
     RDKit          3D

  0  0  0  0  0  0  0  0  0  0999 V3000
M  V30 BEGIN CTAB
M  V30 COUNTS 38 39 0 0 0
M  V30 BEGIN ATOM
M  V30 1 C 4.79163 -0.743075 -2.15866 0
M  V30 2 C 3.80757 -0.91779 -0.996149 0
M  V30 3 C 2.82413 0.224386 -1.10196 0
M  V30 4 N 1.82324 0.208745 -0.0755807 0
M  V30 5 C 0.677923 -0.452696 -0.284991 0
M  V30 6 O 0.519594 -1.05274 -1.39526 0
M  V30 7 N -0.342149 -0.534025 0.61757 0
M  V30 8 C -1.55675 -1.25996 0.313821 0
M  V30 9 C -2.64898 -0.502155 -0.283445 0
M  V30 10 C -2.71539 -0.245053 -1.63136 0
M  V30 11 C -3.79256 0.4741 -2.15462 0
M  V30 12 C -4.81561 0.951528 -1.38392 0
M  V30 13 C -4.75975 0.70066 -0.042726 0
M  V30 14 C -3.68153 -0.0209099 0.490854 0
M  V30 15 C -0.182349 0.0889287 1.79161 0
M  V30 16 N -1.15239 0.0629743 2.82428 0
M  V30 17 C 0.984107 0.775714 2.03349 0
M  V30 18 N 1.15914 1.43897 3.27591 0
M  V30 19 C 2.00588 0.838372 1.08494 0
M  V30 20 O 3.0503 1.48487 1.36805 0
M  V30 21 H 5.69207 -1.34962 -2.01228 0
M  V30 22 H 4.26834 -1.14757 -3.06591 0
M  V30 23 H 4.96454 0.320077 -2.34775 0
M  V30 24 H 4.40486 -0.885801 -0.076992 0
M  V30 25 H 3.35059 -1.90347 -1.11248 0
M  V30 26 H 3.38246 1.1702 -1.02179 0
M  V30 27 H 2.36961 0.157089 -2.11661 0
M  V30 28 H -1.26554 -2.08206 -0.399537 0
M  V30 29 H -1.83902 -1.7696 1.26513 0
M  V30 30 H -2.00034 -0.560998 -2.35992 0
M  V30 31 H -3.84404 0.676567 -3.21593 0
M  V30 32 H -5.64567 1.50835 -1.80131 0
M  V30 33 H -5.55278 1.06544 0.585905 0
M  V30 34 H -3.75879 -0.169589 1.55823 0
M  V30 35 H -1.3326 -0.830828 3.34662 0
M  V30 36 H -1.66032 0.955168 3.02827 0
M  V30 37 H 1.82351 1.03525 3.9606 0
M  V30 38 H 0.647082 2.29055 3.49389 0
M  V30 END ATOM
M  V30 BEGIN BOND
M  V30 1 1 1 2
M  V30 2 1 2 3
M  V30 3 1 3 4
M  V30 4 1 4 5
M  V30 5 2 5 6
M  V30 6 1 5 7
M  V30 7 1 7 8
M  V30 8 1 8 9
M  V30 9 2 9 10
M  V30 10 1 10 11
M  V30 11 2 11 12
M  V30 12 1 12 13
M  V30 13 2 13 14
M  V30 14 1 7 15
M  V30 15 1 15 16
M  V30 16 2 15 17
M  V30 17 1 17 18
M  V30 18 1 17 19
M  V30 19 2 19 20
M  V30 20 1 19 4
M  V30 21 1 14 9
M  V30 22 1 1 21
M  V30 23 1 1 22
M  V30 24 1 1 23
M  V30 25 1 2 24
M  V30 26 1 2 25
M  V30 27 1 3 26
M  V30 28 1 3 27
M  V30 29 1 8 28
M  V30 30 1 8 29
M  V30 31 1 10 30
M  V30 32 1 11 31
M  V30 33 1 12 32
M  V30 34 1 13 33
M  V30 35 1 14 34
M  V30 36 1 16 35
M  V30 37 1 16 36
M  V30 38 1 18 37
M  V30 39 1 18 38
M  V30 END BOND
M  V30 END CTAB
M  END
