
     RDKit          3D

  0  0  0  0  0  0  0  0  0  0999 V3000
M  V30 BEGIN CTAB
M  V30 COUNTS 47 48 0 0 0
M  V30 BEGIN ATOM
M  V30 1 N -0.342217 -2.13619 1.30652 0
M  V30 2 C -0.531697 -1.48939 0.0165628 0
M  V30 3 C -1.92284 -0.90793 0.0746013 0
M  V30 4 C -2.80481 -1.03201 -0.954364 0
M  V30 5 C -4.07821 -0.472839 -0.842021 0
M  V30 6 C -4.46612 0.204781 0.290287 0
M  V30 7 C -3.55735 0.317678 1.31787 0
M  V30 8 C -2.28459 -0.233805 1.22165 0
M  V30 9 C -5.82097 0.794347 0.399361 0
M  V30 10 C -6.84684 -0.332445 0.348455 0
M  V30 11 C -6.09207 1.76796 -0.710192 0
M  V30 12 C 0.397698 -0.296787 -0.133695 0
M  V30 13 N 1.77519 -0.668919 -0.0429457 0
M  V30 14 C 2.77642 0.317889 -0.161631 0
M  V30 15 O 2.45425 1.55 -0.351857 0
M  V30 16 C 4.18091 -0.0241694 -0.0735603 0
M  V30 17 C 4.58111 -1.31764 0.13074 0
M  V30 18 C 5.93949 -1.63603 0.215576 0
M  V30 19 C 6.86063 -0.625224 0.0897316 0
M  V30 20 C 6.45809 0.678096 -0.116051 0
M  V30 21 C 5.11468 1.00863 -0.202313 0
M  V30 22 N 4.68958 2.34569 -0.414221 0
M  V30 23 N 7.38027 1.73998 -0.252267 0 CHG=1
M  V30 24 O 8.51396 1.52626 -0.688686 0
M  V30 25 O 7.01386 2.99969 0.09964 0 CHG=-1
M  V30 26 H -0.325688 -3.17237 1.22021 0
M  V30 27 H 0.414145 -1.72878 1.86481 0
M  V30 28 H -0.466418 -2.18398 -0.826868 0
M  V30 29 H -2.50237 -1.56655 -1.85133 0
M  V30 30 H -4.78105 -0.571141 -1.66029 0
M  V30 31 H -3.86391 0.850658 2.20809 0
M  V30 32 H -1.5907 -0.11947 2.06629 0
M  V30 33 H -5.97915 1.30228 1.36824 0
M  V30 34 H -7.78096 -0.0199112 -0.1491 0
M  V30 35 H -7.05425 -0.69954 1.38796 0
M  V30 36 H -6.39457 -1.1557 -0.241116 0
M  V30 37 H -6.21265 1.26737 -1.68606 0
M  V30 38 H -7.05635 2.28523 -0.453571 0
M  V30 39 H -5.27079 2.49982 -0.791444 0
M  V30 40 H 0.205879 0.133631 -1.13778 0
M  V30 41 H 0.0974047 0.437841 0.65725 0
M  V30 42 H 2.00971 -1.65885 0.109185 0
M  V30 43 H 3.90153 -2.14635 0.235993 0
M  V30 44 H 6.25857 -2.65161 0.376162 0
M  V30 45 H 7.92978 -0.833215 0.150389 0
M  V30 46 H 4.50153 2.94974 0.401996 0
M  V30 47 H 4.57188 2.70329 -1.37346 0
M  V30 END ATOM
M  V30 BEGIN BOND
M  V30 1 1 1 2
M  V30 2 1 2 3
M  V30 3 2 3 4
M  V30 4 1 4 5
M  V30 5 2 5 6
M  V30 6 1 6 7
M  V30 7 2 7 8
M  V30 8 1 6 9
M  V30 9 1 9 10
M  V30 10 1 9 11
M  V30 11 1 2 12
M  V30 12 1 12 13
M  V30 13 1 13 14
M  V30 14 2 14 15
M  V30 15 1 14 16
M  V30 16 2 16 17
M  V30 17 1 17 18
M  V30 18 2 18 19
M  V30 19 1 19 20
M  V30 20 2 20 21
M  V30 21 1 21 22
M  V30 22 1 20 23
M  V30 23 2 23 24
M  V30 24 1 23 25
M  V30 25 1 8 3
M  V30 26 1 21 16
M  V30 27 1 1 26
M  V30 28 1 1 27
M  V30 29 1 2 28
M  V30 30 1 4 29
M  V30 31 1 5 30
M  V30 32 1 7 31
M  V30 33 1 8 32
M  V30 34 1 9 33
M  V30 35 1 10 34
M  V30 36 1 10 35
M  V30 37 1 10 36
M  V30 38 1 11 37
M  V30 39 1 11 38
M  V30 40 1 11 39
M  V30 41 1 12 40
M  V30 42 1 12 41
M  V30 43 1 13 42
M  V30 44 1 17 43
M  V30 45 1 18 44
M  V30 46 1 19 45
M  V30 47 1 22 46
M  V30 48 1 22 47
M  V30 END BOND
M  V30 END CTAB
M  END
