
     RDKit          3D

  0  0  0  0  0  0  0  0  0  0999 V3000
M  V30 BEGIN CTAB
M  V30 COUNTS 21 21 0 0 0
M  V30 BEGIN ATOM
M  V30 1 N 3.71356 0.849881 -0.422286 0
M  V30 2 C 2.39024 0.349895 -0.283544 0
M  V30 3 C 1.73282 0.521838 0.919537 0
M  V30 4 C 0.444143 0.0476627 1.08902 0
M  V30 5 C -0.234992 -0.599491 0.10644 0
M  V30 6 N -1.54943 -1.10887 0.209929 0
M  V30 7 S -2.86426 -0.267094 0.89557 0
M  V30 8 N -3.65939 0.646786 -0.361072 0
M  V30 9 O -3.9157 -1.24528 1.40141 0
M  V30 10 O -2.49517 0.59072 2.05225 0
M  V30 11 C 0.429939 -0.771877 -1.1063 0
M  V30 12 C 1.72021 -0.304594 -1.29616 0
M  V30 13 H 4.51739 0.536296 0.168727 0
M  V30 14 H 3.93838 1.58167 -1.15349 0
M  V30 15 H 2.21409 1.03438 1.76142 0
M  V30 16 H -0.0455496 0.195284 2.03786 0
M  V30 17 H -1.74416 -2.06936 -0.156008 0
M  V30 18 H -3.27858 1.60055 -0.446125 0
M  V30 19 H -3.49179 0.12773 -1.25718 0
M  V30 20 H -0.0747594 -1.28582 -1.92557 0
M  V30 21 H 2.25299 -0.430316 -2.23442 0
M  V30 END ATOM
M  V30 BEGIN BOND
M  V30 1 1 1 2
M  V30 2 2 2 3
M  V30 3 1 3 4
M  V30 4 2 4 5
M  V30 5 1 5 6
M  V30 6 1 6 7
M  V30 7 1 7 8
M  V30 8 2 7 9
M  V30 9 2 7 10
M  V30 10 1 5 11
M  V30 11 2 11 12
M  V30 12 1 12 2
M  V30 13 1 1 13
M  V30 14 1 1 14
M  V30 15 1 3 15
M  V30 16 1 4 16
M  V30 17 1 6 17
M  V30 18 1 8 18
M  V30 19 1 8 19
M  V30 20 1 11 20
M  V30 21 1 12 21
M  V30 END BOND
M  V30 END CTAB
M  END
