
     RDKit          3D

  0  0  0  0  0  0  0  0  0  0999 V3000
M  V30 BEGIN CTAB
M  V30 COUNTS 27 28 0 0 0
M  V30 BEGIN ATOM
M  V30 1 C 4.51584 -0.0398431 -0.501555 0
M  V30 2 O 3.22528 -0.00950177 -0.9915 0
M  V30 3 C 2.33894 -0.0228033 0.0878182 0
M  V30 4 C 1.37911 1.17198 -0.011692 0
M  V30 5 C 0.327124 0.224142 0.576266 0
M  V30 6 C 1.11713 -0.899873 -0.0837503 0
M  V30 7 C -1.01633 0.434556 -0.0201527 0
M  V30 8 N -1.4081 1.26836 -1.00689 0
M  V30 9 C -2.74628 1.10515 -1.21165 0
M  V30 10 N -3.22862 0.166845 -0.360382 0
M  V30 11 C -2.14964 -0.235256 0.36588 0
M  V30 12 N -2.26426 -1.23202 1.38156 0
M  V30 13 N -4.54448 -0.301438 -0.239039 0
M  V30 14 H 4.73476 0.829883 0.156332 0
M  V30 15 H 5.23254 0.0763807 -1.36973 0
M  V30 16 H 4.69798 -0.950523 0.0783159 0
M  V30 17 H 2.82211 -0.0506577 1.06814 0
M  V30 18 H 1.11544 1.46406 -1.03611 0
M  V30 19 H 1.66092 1.99501 0.65053 0
M  V30 20 H 0.29485 0.200537 1.67436 0
M  V30 21 H 0.822365 -0.949745 -1.14893 0
M  V30 22 H 1.1012 -1.8192 0.498933 0
M  V30 23 H -3.33283 1.65794 -1.9587 0
M  V30 24 H -2.06705 -0.935133 2.35317 0
M  V30 25 H -2.53173 -2.22595 1.20022 0
M  V30 26 H -5.15962 0.121507 0.506952 0
M  V30 27 H -4.93667 -1.04442 -0.850027 0
M  V30 END ATOM
M  V30 BEGIN BOND
M  V30 1 1 1 2
M  V30 2 1 2 3
M  V30 3 1 3 4
M  V30 4 1 4 5
M  V30 5 1 5 6
M  V30 6 1 5 7
M  V30 7 1 7 8
M  V30 8 2 8 9
M  V30 9 1 9 10
M  V30 10 1 10 11
M  V30 11 1 11 12
M  V30 12 1 10 13
M  V30 13 1 6 3
M  V30 14 2 11 7
M  V30 15 1 1 14
M  V30 16 1 1 15
M  V30 17 1 1 16
M  V30 18 1 3 17
M  V30 19 1 4 18
M  V30 20 1 4 19
M  V30 21 1 5 20
M  V30 22 1 6 21
M  V30 23 1 6 22
M  V30 24 1 9 23
M  V30 25 1 12 24
M  V30 26 1 12 25
M  V30 27 1 13 26
M  V30 28 1 13 27
M  V30 END BOND
M  V30 END CTAB
M  END
