
     RDKit          3D

  0  0  0  0  0  0  0  0  0  0999 V3000
M  V30 BEGIN CTAB
M  V30 COUNTS 28 28 0 0 0
M  V30 BEGIN ATOM
M  V30 1 N -1.41017 2.8653 0.168631 0
M  V30 2 C -0.698021 1.89136 0.868363 0
M  V30 3 C -0.21543 0.734226 -0.0225845 0 CFG=2
M  V30 4 C -1.4047 0.0876307 -0.634482 0
M  V30 5 O -2.15696 -0.697087 0.186795 0
M  V30 6 C -1.71011 -2.02932 0.0558677 0
M  V30 7 C -0.619232 -2.15734 1.09894 0
M  V30 8 C 0.597084 -1.47388 0.52796 0
M  V30 9 N 0.631111 -0.0727432 0.762507 0
M  V30 10 S 2.25608 0.446127 0.480868 0
M  V30 11 O 3.23816 -0.34707 1.2907 0
M  V30 12 O 2.45106 1.90425 0.784963 0
M  V30 13 N 2.68648 0.236216 -1.1962 0
M  V30 14 H -1.90782 3.50522 0.73606 0
M  V30 15 H -1.19489 3.13971 -0.734548 0
M  V30 16 H 0.11959 2.36174 1.42187 0
M  V30 17 H -1.38731 1.40764 1.61347 0
M  V30 18 H 0.367499 1.21823 -0.831123 0
M  V30 19 H -2.05715 0.882533 -1.05322 0
M  V30 20 H -1.09191 -0.538953 -1.51152 0
M  V30 21 H -2.52694 -2.75341 0.192261 0
M  V30 22 H -1.24634 -2.18473 -0.948494 0
M  V30 23 H -0.916067 -1.59535 2.01175 0
M  V30 24 H -0.400962 -3.17841 1.39171 0
M  V30 25 H 0.704335 -1.76878 -0.53229 0
M  V30 26 H 1.48176 -1.92537 1.0609 0
M  V30 27 H 2.8532 -0.762385 -1.37587 0
M  V30 28 H 3.55764 0.80464 -1.33205 0
M  V30 END ATOM
M  V30 BEGIN BOND
M  V30 1 1 1 2
M  V30 2 1 2 3
M  V30 3 1 3 4
M  V30 4 1 4 5
M  V30 5 1 5 6
M  V30 6 1 6 7
M  V30 7 1 7 8
M  V30 8 1 8 9
M  V30 9 1 9 10
M  V30 10 2 10 11
M  V30 11 2 10 12
M  V30 12 1 10 13
M  V30 13 1 9 3
M  V30 14 1 1 14
M  V30 15 1 1 15
M  V30 16 1 2 16
M  V30 17 1 2 17
M  V30 18 1 3 18 CFG=3
M  V30 19 1 4 19
M  V30 20 1 4 20
M  V30 21 1 6 21
M  V30 22 1 6 22
M  V30 23 1 7 23
M  V30 24 1 7 24
M  V30 25 1 8 25
M  V30 26 1 8 26
M  V30 27 1 13 27
M  V30 28 1 13 28
M  V30 END BOND
M  V30 END CTAB
M  END
