
     RDKit          3D

  0  0  0  0  0  0  0  0  0  0999 V3000
M  V30 BEGIN CTAB
M  V30 COUNTS 36 39 0 0 0
M  V30 BEGIN ATOM
M  V30 1 C -4.44477 -1.44002 -2.50909 0
M  V30 2 C -3.17682 -1.09402 -1.81586 0
M  V30 3 O -2.10553 -1.46484 -2.33217 0
M  V30 4 N -3.23792 -0.35974 -0.601225 0
M  V30 5 N -4.33622 0.0721211 0.0153522 0
M  V30 6 C -4.06172 0.728685 1.13206 0
M  V30 7 N -4.92522 1.34702 2.08124 0
M  V30 8 C -2.69389 0.723192 1.24913 0
M  V30 9 C -2.19716 0.0398279 0.15897 0
M  V30 10 C -0.81909 -0.122513 0.0158782 0
M  V30 11 C 0.0457755 0.382221 0.934331 0
M  V30 12 C -0.45213 1.06503 2.02352 0
M  V30 13 C -1.80557 1.2368 2.18457 0
M  V30 14 C 1.49506 0.191413 0.749182 0
M  V30 15 C 2.32566 0.0848008 1.8437 0
M  V30 16 C 3.68655 -0.0941394 1.70569 0
M  V30 17 C 4.27944 -0.174741 0.456584 0
M  V30 18 O 5.49982 -0.33594 0.0241891 0
M  V30 19 C 5.56913 -0.347967 -1.28582 0
M  V30 20 N 6.73098 -0.502267 -2.09092 0
M  V30 21 N 4.28421 -0.180226 -1.69975 0
M  V30 22 C 3.45496 -0.0689379 -0.644733 0
M  V30 23 C 2.08643 0.111023 -0.494674 0
M  V30 24 H -5.23501 -0.664314 -2.30109 0
M  V30 25 H -4.83698 -2.42752 -2.19159 0
M  V30 26 H -4.23635 -1.48565 -3.59524 0
M  V30 27 H -4.6119 2.17937 2.62675 0
M  V30 28 H -5.86961 0.98781 2.24737 0
M  V30 29 H -0.41646 -0.656843 -0.835099 0
M  V30 30 H 0.23015 1.47012 2.75953 0
M  V30 31 H -2.24846 1.76273 3.01801 0
M  V30 32 H 1.87947 0.14543 2.82713 0
M  V30 33 H 4.34387 -0.178502 2.57396 0
M  V30 34 H 7.55598 0.118035 -1.96959 0
M  V30 35 H 6.77892 -1.23841 -2.81719 0
M  V30 36 H 1.46442 0.190959 -1.37894 0
M  V30 END ATOM
M  V30 BEGIN BOND
M  V30 1 1 1 2
M  V30 2 2 2 3
M  V30 3 1 2 4
M  V30 4 1 4 5
M  V30 5 2 5 6
M  V30 6 1 6 7
M  V30 7 1 6 8
M  V30 8 2 8 9
M  V30 9 1 9 10
M  V30 10 2 10 11
M  V30 11 1 11 12
M  V30 12 2 12 13
M  V30 13 1 11 14
M  V30 14 2 14 15
M  V30 15 1 15 16
M  V30 16 2 16 17
M  V30 17 1 17 18
M  V30 18 1 18 19
M  V30 19 1 19 20
M  V30 20 2 19 21
M  V30 21 1 21 22
M  V30 22 2 22 23
M  V30 23 1 9 4
M  V30 24 1 23 14
M  V30 25 1 13 8
M  V30 26 1 22 17
M  V30 27 1 1 24
M  V30 28 1 1 25
M  V30 29 1 1 26
M  V30 30 1 7 27
M  V30 31 1 7 28
M  V30 32 1 10 29
M  V30 33 1 12 30
M  V30 34 1 13 31
M  V30 35 1 15 32
M  V30 36 1 16 33
M  V30 37 1 20 34
M  V30 38 1 20 35
M  V30 39 1 23 36
M  V30 END BOND
M  V30 END CTAB
M  END
