
     RDKit          3D

  0  0  0  0  0  0  0  0  0  0999 V3000
M  V30 BEGIN CTAB
M  V30 COUNTS 29 30 0 0 0
M  V30 BEGIN ATOM
M  V30 1 N 3.2514 1.4359 0.907528 0
M  V30 2 C 3.13173 0.047626 1.02764 0
M  V30 3 C 1.68049 -0.415627 0.899797 0 CFG=1
M  V30 4 C 1.20687 0.0235886 -0.469435 0
M  V30 5 C -0.195617 -0.366261 -0.730416 0
M  V30 6 C -0.629357 -1.40838 -1.53429 0
M  V30 7 N -1.97755 -1.43691 -1.51274 0
M  V30 8 C -2.44232 -0.442696 -0.717195 0
M  V30 9 C -1.33653 0.217386 -0.235526 0
M  V30 10 C -1.44801 1.29897 0.6172 0
M  V30 11 C -2.73959 1.69011 0.967304 0
M  V30 12 C -3.84013 1.03837 0.491735 0
M  V30 13 C -3.7137 -0.0388524 -0.358074 0
M  V30 14 N 1.62107 -1.87033 1.0242 0
M  V30 15 H 3.79506 1.93852 1.5584 0
M  V30 16 H 3.22293 1.78546 -0.0127082 0
M  V30 17 H 3.62549 -0.381361 1.92063 0
M  V30 18 H 3.68722 -0.404827 0.157163 0
M  V30 19 H 1.04962 0.00313036 1.70101 0
M  V30 20 H 1.88823 -0.419877 -1.25378 0
M  V30 21 H 1.36371 1.12792 -0.519121 0
M  V30 22 H 0.0355035 -2.06165 -2.06774 0
M  V30 23 H -2.58693 -2.11233 -2.02065 0
M  V30 24 H -0.609393 1.84611 1.01879 0
M  V30 25 H -2.91533 2.54069 1.64094 0
M  V30 26 H -4.86958 1.31933 0.748983 0
M  V30 27 H -4.57613 -0.561915 -0.74041 0
M  V30 28 H 2.19713 -2.1455 1.85181 0
M  V30 29 H 2.12369 -2.24659 0.18972 0
M  V30 END ATOM
M  V30 BEGIN BOND
M  V30 1 1 1 2
M  V30 2 1 2 3
M  V30 3 1 3 4
M  V30 4 1 4 5
M  V30 5 2 5 6
M  V30 6 1 6 7
M  V30 7 1 7 8
M  V30 8 2 8 9
M  V30 9 1 9 10
M  V30 10 2 10 11
M  V30 11 1 11 12
M  V30 12 2 12 13
M  V30 13 1 3 14
M  V30 14 1 9 5
M  V30 15 1 13 8
M  V30 16 1 1 15
M  V30 17 1 1 16
M  V30 18 1 2 17
M  V30 19 1 2 18
M  V30 20 1 3 19 CFG=1
M  V30 21 1 4 20
M  V30 22 1 4 21
M  V30 23 1 6 22
M  V30 24 1 7 23
M  V30 25 1 10 24
M  V30 26 1 11 25
M  V30 27 1 12 26
M  V30 28 1 13 27
M  V30 29 1 14 28
M  V30 30 1 14 29
M  V30 END BOND
M  V30 END CTAB
M  END
