
     RDKit          3D

  0  0  0  0  0  0  0  0  0  0999 V3000
M  V30 BEGIN CTAB
M  V30 COUNTS 26 27 0 0 0
M  V30 BEGIN ATOM
M  V30 1 N 4.0523 -1.48945 -0.421503 0
M  V30 2 C 2.97272 -0.55985 -0.283837 0
M  V30 3 N 1.98824 -0.581191 0.624885 0
M  V30 4 N 1.15054 0.419809 0.479609 0
M  V30 5 C 1.58683 1.1354 -0.559314 0
M  V30 6 C 2.73229 0.541356 -1.05899 0
M  V30 7 N 0.963962 2.32998 -1.06815 0
M  V30 8 C -0.0190327 0.702498 1.27673 0
M  V30 9 C -1.25613 0.0585698 0.788015 0
M  V30 10 C -2.11365 0.713744 -0.0690701 0
M  V30 11 C -3.27909 0.0840695 -0.522354 0
M  V30 12 C -3.61409 -1.19688 -0.137619 0
M  V30 13 C -2.7598 -1.8527 0.717833 0
M  V30 14 C -1.61255 -1.23433 1.16467 0
M  V30 15 H 3.83682 -2.50639 -0.329304 0
M  V30 16 H 5.00986 -1.13501 -0.60706 0
M  V30 17 H 3.31775 0.888795 -1.90113 0
M  V30 18 H 0.215086 2.17904 -1.77337 0
M  V30 19 H 1.23509 3.28332 -0.759918 0
M  V30 20 H -0.234149 1.80755 1.3218 0
M  V30 21 H 0.191153 0.418232 2.35008 0
M  V30 22 H -1.93216 1.72021 -0.420771 0
M  V30 23 H -3.95981 0.582903 -1.19289 0
M  V30 24 H -4.51076 -1.70097 -0.477181 0
M  V30 25 H -3.02211 -2.86392 1.02301 0
M  V30 26 H -0.939307 -1.74478 1.83584 0
M  V30 END ATOM
M  V30 BEGIN BOND
M  V30 1 1 1 2
M  V30 2 2 2 3
M  V30 3 1 3 4
M  V30 4 1 4 5
M  V30 5 2 5 6
M  V30 6 1 5 7
M  V30 7 1 4 8
M  V30 8 1 8 9
M  V30 9 2 9 10
M  V30 10 1 10 11
M  V30 11 2 11 12
M  V30 12 1 12 13
M  V30 13 2 13 14
M  V30 14 1 6 2
M  V30 15 1 14 9
M  V30 16 1 1 15
M  V30 17 1 1 16
M  V30 18 1 6 17
M  V30 19 1 7 18
M  V30 20 1 7 19
M  V30 21 1 8 20
M  V30 22 1 8 21
M  V30 23 1 10 22
M  V30 24 1 11 23
M  V30 25 1 12 24
M  V30 26 1 13 25
M  V30 27 1 14 26
M  V30 END BOND
M  V30 END CTAB
M  END
