
     RDKit          3D

  0  0  0  0  0  0  0  0  0  0999 V3000
M  V30 BEGIN CTAB
M  V30 COUNTS 18 18 0 0 0
M  V30 BEGIN ATOM
M  V30 1 N 3.15107 0.958361 -0.0126074 0
M  V30 2 N 2.00521 0.389283 -0.605224 0
M  V30 3 C 1.18162 -0.478068 0.113055 0
M  V30 4 O 1.50008 -0.748564 1.32645 0
M  V30 5 C -0.000431871 -1.08483 -0.44009 0
M  V30 6 N -1.25428 -0.705102 0.187166 0
M  V30 7 N -1.71521 -1.34989 1.22739 0
M  V30 8 N -2.84056 -0.789247 1.59713 0
M  V30 9 N -3.13074 0.216292 0.817865 0
M  V30 10 C -2.11336 0.273372 -0.0905582 0
M  V30 11 N -1.98479 1.20218 -1.1534 0
M  V30 12 H 3.14881 0.824182 1.02783 0
M  V30 13 H 4.03473 0.626406 -0.445798 0
M  V30 14 H 1.83616 0.665256 -1.6029 0
M  V30 15 H -0.0425165 -0.854699 -1.5473 0
M  V30 16 H 0.110306 -2.19324 -0.385782 0
M  V30 17 H -2.41738 0.973171 -2.05996 0
M  V30 18 H -1.46872 2.07514 -0.995973 0
M  V30 END ATOM
M  V30 BEGIN BOND
M  V30 1 1 1 2
M  V30 2 1 2 3
M  V30 3 2 3 4
M  V30 4 1 3 5
M  V30 5 1 5 6
M  V30 6 1 6 7
M  V30 7 2 7 8
M  V30 8 1 8 9
M  V30 9 2 9 10
M  V30 10 1 10 11
M  V30 11 1 10 6
M  V30 12 1 1 12
M  V30 13 1 1 13
M  V30 14 1 2 14
M  V30 15 1 5 15
M  V30 16 1 5 16
M  V30 17 1 11 17
M  V30 18 1 11 18
M  V30 END BOND
M  V30 END CTAB
M  END
