
     RDKit          3D

  0  0  0  0  0  0  0  0  0  0999 V3000
M  V30 BEGIN CTAB
M  V30 COUNTS 44 44 0 0 0
M  V30 BEGIN ATOM
M  V30 1 C -5.28469 0.769428 1.30563 0
M  V30 2 C -5.41833 0.408341 -0.16269 0
M  V30 3 C -4.99231 -1.02851 -0.373097 0 CFG=1
M  V30 4 C -3.58753 -1.14315 0.0572862 0
M  V30 5 O -3.27033 -1.95378 0.949748 0
M  V30 6 N -2.59906 -0.338792 -0.536761 0
M  V30 7 C -1.20231 -0.451694 -0.109909 0
M  V30 8 C -0.318524 0.489189 -0.86598 0
M  V30 9 C 1.09319 0.412322 -0.474802 0
M  V30 10 C 2.08671 0.987972 -1.27615 0
M  V30 11 C 3.40585 0.906241 -0.894767 0
M  V30 12 C 3.78212 0.267418 0.265528 0
M  V30 13 C 2.82462 -0.305188 1.06825 0
M  V30 14 C 1.48193 -0.224928 0.685063 0
M  V30 15 C 5.20312 0.16832 0.695302 0
M  V30 16 C 6.00253 -0.631886 -0.330178 0
M  V30 17 C 5.81311 1.54425 0.884986 0
M  V30 18 N -0.427121 0.170756 -2.27754 0
M  V30 19 N -5.81346 -1.94085 0.367896 0
M  V30 20 H -4.45155 0.179698 1.74177 0
M  V30 21 H -6.24515 0.527997 1.81098 0
M  V30 22 H -5.06742 1.85367 1.35327 0
M  V30 23 H -6.46637 0.547616 -0.468137 0
M  V30 24 H -4.70582 1.06076 -0.726138 0
M  V30 25 H -5.13154 -1.25283 -1.45034 0
M  V30 26 H -2.87932 0.333053 -1.2802 0
M  V30 27 H -1.2331 -0.231787 0.984202 0
M  V30 28 H -0.834835 -1.49504 -0.198196 0
M  V30 29 H -0.740114 1.52569 -0.753787 0
M  V30 30 H 1.77241 1.49308 -2.19666 0
M  V30 31 H 4.17144 1.35939 -1.52863 0
M  V30 32 H 3.0636 -0.823126 1.99686 0
M  V30 33 H 0.719343 -0.678612 1.31964 0
M  V30 34 H 5.30429 -0.38004 1.6517 0
M  V30 35 H 6.04705 -0.121679 -1.30365 0
M  V30 36 H 5.48697 -1.62386 -0.39157 0
M  V30 37 H 7.0048 -0.839083 0.0966494 0
M  V30 38 H 4.98803 2.24232 1.19069 0
M  V30 39 H 6.32722 1.89773 -0.022674 0
M  V30 40 H 6.53865 1.5573 1.74071 0
M  V30 41 H -1.36648 -0.203905 -2.53831 0
M  V30 42 H 0.251852 -0.59994 -2.54732 0
M  V30 43 H -5.27093 -2.83118 0.48145 0
M  V30 44 H -6.06255 -1.60268 1.32357 0
M  V30 END ATOM
M  V30 BEGIN BOND
M  V30 1 1 1 2
M  V30 2 1 2 3
M  V30 3 1 3 4
M  V30 4 2 4 5
M  V30 5 1 4 6
M  V30 6 1 6 7
M  V30 7 1 7 8
M  V30 8 1 8 9
M  V30 9 2 9 10
M  V30 10 1 10 11
M  V30 11 2 11 12
M  V30 12 1 12 13
M  V30 13 2 13 14
M  V30 14 1 12 15
M  V30 15 1 15 16
M  V30 16 1 15 17
M  V30 17 1 8 18
M  V30 18 1 3 19
M  V30 19 1 14 9
M  V30 20 1 1 20
M  V30 21 1 1 21
M  V30 22 1 1 22
M  V30 23 1 2 23
M  V30 24 1 2 24
M  V30 25 1 3 25 CFG=3
M  V30 26 1 6 26
M  V30 27 1 7 27
M  V30 28 1 7 28
M  V30 29 1 8 29
M  V30 30 1 10 30
M  V30 31 1 11 31
M  V30 32 1 13 32
M  V30 33 1 14 33
M  V30 34 1 15 34
M  V30 35 1 16 35
M  V30 36 1 16 36
M  V30 37 1 16 37
M  V30 38 1 17 38
M  V30 39 1 17 39
M  V30 40 1 17 40
M  V30 41 1 18 41
M  V30 42 1 18 42
M  V30 43 1 19 43
M  V30 44 1 19 44
M  V30 END BOND
M  V30 END CTAB
M  END
