
     RDKit          3D

  0  0  0  0  0  0  0  0  0  0999 V3000
M  V30 BEGIN CTAB
M  V30 COUNTS 50 55 0 0 0
M  V30 BEGIN ATOM
M  V30 1 N -4.88856 -0.010043 -0.610203 0
M  V30 2 C -3.48041 -0.0244156 -0.416229 0
M  V30 3 C -2.68257 0.871472 -1.06094 0
M  V30 4 C -3.27821 1.78389 -1.89955 0
M  V30 5 C -2.52822 2.71507 -2.57991 0
M  V30 6 C -1.14554 2.74063 -2.42255 0
M  V30 7 C -0.536902 1.83272 -1.58602 0
M  V30 8 C -1.29637 0.919118 -0.921562 0
M  V30 9 C -0.708073 -0.000425791 -0.0779675 0
M  V30 10 C -1.48977 -0.921273 0.589659 0
M  V30 11 C -2.86465 -0.938504 0.42636 0
M  V30 12 C -3.67331 -1.84453 1.07814 0
M  V30 13 C -3.07869 -2.76987 1.92738 0
M  V30 14 C -1.72954 -2.78392 2.11346 0
M  V30 15 C -0.948414 -1.85916 1.44249 0
M  V30 16 C 0.742691 0.016357 0.0955266 0
M  V30 17 C 1.52617 -0.745377 -0.746801 0
M  V30 18 C 0.898313 -1.50777 -1.73888 0
M  V30 19 C 1.68007 -2.26936 -2.5812 0
M  V30 20 C 3.05176 -2.25295 -2.41649 0
M  V30 21 C 3.67356 -1.50844 -1.44675 0
M  V30 22 C 2.89352 -0.747214 -0.604701 0
M  V30 23 C 3.49333 0.0178998 0.387742 0
M  V30 24 N 4.90131 0.0277076 0.548277 0
M  V30 25 C 2.72746 0.783754 1.23693 0
M  V30 26 C 1.35711 0.778714 1.08616 0
M  V30 27 C 0.582815 1.55303 1.94473 0
M  V30 28 C 1.18101 2.31949 2.93862 0
M  V30 29 C 2.54971 2.32402 3.08859 0
M  V30 30 C 3.2982 1.55783 2.23718 0
M  V30 31 H -5.32504 -0.190461 -1.54395 0
M  V30 32 H -5.55117 0.181834 0.17328 0
M  V30 33 H -4.34255 1.78475 -2.03782 0
M  V30 34 H -3.01068 3.42493 -3.2348 0
M  V30 35 H -0.539852 3.46868 -2.952 0
M  V30 36 H 0.536242 1.81382 -1.43155 0
M  V30 37 H -4.75432 -1.83258 0.928467 0
M  V30 38 H -3.69609 -3.49965 2.45678 0
M  V30 39 H -1.28959 -3.52589 2.78964 0
M  V30 40 H 0.114117 -1.8659 1.58543 0
M  V30 41 H -0.187692 -1.48448 -1.82524 0
M  V30 42 H 1.19894 -2.87002 -3.3614 0
M  V30 43 H 3.62727 -2.86346 -3.09709 0
M  V30 44 H 4.74885 -1.49271 -1.31415 0
M  V30 45 H 5.36771 -0.914286 0.613199 0
M  V30 46 H 5.48972 0.875434 0.604885 0
M  V30 47 H -0.489903 1.55809 1.83765 0
M  V30 48 H 0.531987 2.90015 3.57524 0
M  V30 49 H 2.96657 2.93639 3.87623 0
M  V30 50 H 4.37766 1.53691 2.32573 0
M  V30 END ATOM
M  V30 BEGIN BOND
M  V30 1 1 1 2
M  V30 2 2 2 3
M  V30 3 1 3 4
M  V30 4 2 4 5
M  V30 5 1 5 6
M  V30 6 2 6 7
M  V30 7 1 7 8
M  V30 8 2 8 9
M  V30 9 1 9 10
M  V30 10 2 10 11
M  V30 11 1 11 12
M  V30 12 2 12 13
M  V30 13 1 13 14
M  V30 14 2 14 15
M  V30 15 1 9 16
M  V30 16 1 16 17
M  V30 17 2 17 18
M  V30 18 1 18 19
M  V30 19 2 19 20
M  V30 20 1 20 21
M  V30 21 2 21 22
M  V30 22 1 22 23
M  V30 23 1 23 24
M  V30 24 2 23 25
M  V30 25 1 25 26
M  V30 26 1 26 27
M  V30 27 2 27 28
M  V30 28 1 28 29
M  V30 29 2 29 30
M  V30 30 1 11 2
M  V30 31 2 26 16
M  V30 32 1 8 3
M  V30 33 1 15 10
M  V30 34 1 22 17
M  V30 35 1 30 25
M  V30 36 1 1 31
M  V30 37 1 1 32
M  V30 38 1 4 33
M  V30 39 1 5 34
M  V30 40 1 6 35
M  V30 41 1 7 36
M  V30 42 1 12 37
M  V30 43 1 13 38
M  V30 44 1 14 39
M  V30 45 1 15 40
M  V30 46 1 18 41
M  V30 47 1 19 42
M  V30 48 1 20 43
M  V30 49 1 21 44
M  V30 50 1 24 45
M  V30 51 1 24 46
M  V30 52 1 27 47
M  V30 53 1 28 48
M  V30 54 1 29 49
M  V30 55 1 30 50
M  V30 END BOND
M  V30 END CTAB
M  END
