
     RDKit          3D

  0  0  0  0  0  0  0  0  0  0999 V3000
M  V30 BEGIN CTAB
M  V30 COUNTS 19 19 0 0 0
M  V30 BEGIN ATOM
M  V30 1 N 0.117162 -2.01215 0.248601 0
M  V30 2 C -0.528895 -0.76639 0.0105118 0
M  V30 3 C -1.92241 -0.652142 0.0859011 0
M  V30 4 I -3.02517 -2.38765 0.563534 0
M  V30 5 C -2.55098 0.556411 -0.144948 0
M  V30 6 C -1.81168 1.68022 -0.456074 0
M  V30 7 Br -2.66331 3.36052 -0.778649 0
M  V30 8 C -0.432347 1.53599 -0.523565 0
M  V30 9 C 0.215717 0.352362 -0.299843 0
M  V30 10 S 1.945 0.173359 -0.384872 0
M  V30 11 N 2.62498 -0.358803 1.10434 0
M  V30 12 O 2.29845 -0.846606 -1.43413 0
M  V30 13 O 2.59051 1.47973 -0.81669 0
M  V30 14 H 0.226119 -2.72589 -0.503019 0
M  V30 15 H 0.472645 -2.15303 1.23577 0
M  V30 16 H -3.6284 0.586856 -0.0734206 0
M  V30 17 H 0.169011 2.41232 -0.768003 0
M  V30 18 H 2.25093 0.116494 1.93175 0
M  V30 19 H 3.65267 -0.351607 1.00281 0
M  V30 END ATOM
M  V30 BEGIN BOND
M  V30 1 1 1 2
M  V30 2 2 2 3
M  V30 3 1 3 4
M  V30 4 1 3 5
M  V30 5 2 5 6
M  V30 6 1 6 7
M  V30 7 1 6 8
M  V30 8 2 8 9
M  V30 9 1 9 10
M  V30 10 1 10 11
M  V30 11 2 10 12
M  V30 12 2 10 13
M  V30 13 1 9 2
M  V30 14 1 1 14
M  V30 15 1 1 15
M  V30 16 1 5 16
M  V30 17 1 8 17
M  V30 18 1 11 18
M  V30 19 1 11 19
M  V30 END BOND
M  V30 END CTAB
M  END
