
     RDKit          3D

  0  0  0  0  0  0  0  0  0  0999 V3000
M  V30 BEGIN CTAB
M  V30 COUNTS 28 28 0 0 0
M  V30 BEGIN ATOM
M  V30 1 N -2.57448 -1.49987 0.285038 0
M  V30 2 C -2.50045 -0.0631286 0.289844 0
M  V30 3 C -1.055 0.4245 0.103654 0
M  V30 4 N -1.15867 1.89758 0.132307 0
M  V30 5 C -0.500834 0.0636063 -1.21759 0
M  V30 6 C 0.896593 -0.494533 -1.19147 0
M  V30 7 C 1.70086 0.284788 -0.206658 0
M  V30 8 C 1.18594 -0.0469692 1.16588 0
M  V30 9 C -0.293462 0.0104533 1.29789 0
M  V30 10 C 3.17017 -0.124186 -0.239674 0
M  V30 11 F 3.71913 0.0913018 -1.49692 0
M  V30 12 F 3.32714 -1.45071 0.10053 0
M  V30 13 F 3.90658 0.628124 0.645847 0
M  V30 14 H -1.60212 -1.90972 0.14093 0
M  V30 15 H -3.10482 -1.78972 -0.566638 0
M  V30 16 H -2.89437 0.273153 1.27179 0
M  V30 17 H -3.16459 0.374117 -0.474773 0
M  V30 18 H -1.78079 2.17313 0.909171 0
M  V30 19 H -1.56606 2.24619 -0.771371 0
M  V30 20 H -0.47829 0.916905 -1.95253 0
M  V30 21 H -1.13533 -0.709086 -1.73635 0
M  V30 22 H 0.821789 -1.56806 -0.945717 0
M  V30 23 H 1.32734 -0.411705 -2.21675 0
M  V30 24 H 1.63764 1.3535 -0.445115 0
M  V30 25 H 1.72057 0.634884 1.88258 0
M  V30 26 H 1.57582 -1.07174 1.4129 0
M  V30 27 H -0.662278 -0.97075 1.68841 0
M  V30 28 H -0.518026 0.737968 2.13478 0
M  V30 END ATOM
M  V30 BEGIN BOND
M  V30 1 1 1 2
M  V30 2 1 2 3
M  V30 3 1 3 4
M  V30 4 1 3 5
M  V30 5 1 5 6
M  V30 6 1 6 7
M  V30 7 1 7 8
M  V30 8 1 8 9
M  V30 9 1 7 10
M  V30 10 1 10 11
M  V30 11 1 10 12
M  V30 12 1 10 13
M  V30 13 1 9 3
M  V30 14 1 1 14
M  V30 15 1 1 15
M  V30 16 1 2 16
M  V30 17 1 2 17
M  V30 18 1 4 18
M  V30 19 1 4 19
M  V30 20 1 5 20
M  V30 21 1 5 21
M  V30 22 1 6 22
M  V30 23 1 6 23
M  V30 24 1 7 24
M  V30 25 1 8 25
M  V30 26 1 8 26
M  V30 27 1 9 27
M  V30 28 1 9 28
M  V30 END BOND
M  V30 END CTAB
M  END
