
     RDKit          3D

  0  0  0  0  0  0  0  0  0  0999 V3000
M  V30 BEGIN CTAB
M  V30 COUNTS 40 41 0 0 0
M  V30 BEGIN ATOM
M  V30 1 C 1.59984 -3.73385 1.88124 0
M  V30 2 O 1.04085 -2.54463 1.33201 0
M  V30 3 C 1.87722 -1.59763 0.759645 0
M  V30 4 C 3.23541 -1.74954 0.694299 0
M  V30 5 C 4.07741 -0.818706 0.12961 0
M  V30 6 C 3.49023 0.321739 -0.39175 0
M  V30 7 C 2.11254 0.514037 -0.345 0
M  V30 8 C 1.29467 -0.44388 0.230988 0
M  V30 9 N -0.0981396 -0.276428 0.292042 0
M  V30 10 C -0.899732 0.771927 -0.159617 0
M  V30 11 O -0.43452 1.77643 -0.722254 0
M  V30 12 C -2.39284 0.680856 0.0441781 0
M  V30 13 C -3.05978 1.90221 -0.509983 0
M  V30 14 C -4.39682 1.41736 -1.05459 0
M  V30 15 C -4.44845 -0.0618461 -0.824715 0
M  V30 16 C -2.98292 -0.4467 -0.76625 0
M  V30 17 N -5.11331 -0.296329 0.441802 0
M  V30 18 S 4.47973 1.56989 -1.13424 0
M  V30 19 O 3.70069 2.319 -2.17816 0
M  V30 20 O 5.64891 0.942949 -1.80794 0
M  V30 21 N 4.92185 2.67678 0.100349 0
M  V30 22 H 2.25379 -4.18943 1.0806 0
M  V30 23 H 2.25105 -3.5373 2.74075 0
M  V30 24 H 0.835911 -4.48665 2.09995 0
M  V30 25 H 3.62448 -2.6797 1.12903 0
M  V30 26 H 5.1418 -0.990134 0.105185 0
M  V30 27 H 1.77508 1.43546 -0.780668 0
M  V30 28 H -0.62498 -1.08857 0.762816 0
M  V30 29 H -2.6382 0.518353 1.11136 0
M  V30 30 H -2.48437 2.28651 -1.39219 0
M  V30 31 H -3.17756 2.64801 0.277062 0
M  V30 32 H -4.52545 1.65255 -2.12301 0
M  V30 33 H -5.18278 1.96794 -0.503759 0
M  V30 34 H -4.97654 -0.551083 -1.66335 0
M  V30 35 H -2.56954 -0.536833 -1.7735 0
M  V30 36 H -2.87401 -1.41458 -0.221283 0
M  V30 37 H -6.10244 -0.523191 0.222831 0
M  V30 38 H -5.12853 0.579854 1.02206 0
M  V30 39 H 5.7135 2.33545 0.689335 0
M  V30 40 H 5.0359 3.6497 -0.22908 0
M  V30 END ATOM
M  V30 BEGIN BOND
M  V30 1 1 1 2
M  V30 2 1 2 3
M  V30 3 2 3 4
M  V30 4 1 4 5
M  V30 5 2 5 6
M  V30 6 1 6 7
M  V30 7 2 7 8
M  V30 8 1 8 9
M  V30 9 1 9 10
M  V30 10 2 10 11
M  V30 11 1 10 12
M  V30 12 1 12 13
M  V30 13 1 13 14
M  V30 14 1 14 15
M  V30 15 1 15 16
M  V30 16 1 15 17
M  V30 17 1 6 18
M  V30 18 2 18 19
M  V30 19 2 18 20
M  V30 20 1 18 21
M  V30 21 1 8 3
M  V30 22 1 16 12
M  V30 23 1 1 22
M  V30 24 1 1 23
M  V30 25 1 1 24
M  V30 26 1 4 25
M  V30 27 1 5 26
M  V30 28 1 7 27
M  V30 29 1 9 28
M  V30 30 1 12 29
M  V30 31 1 13 30
M  V30 32 1 13 31
M  V30 33 1 14 32
M  V30 34 1 14 33
M  V30 35 1 15 34
M  V30 36 1 16 35
M  V30 37 1 16 36
M  V30 38 1 17 37
M  V30 39 1 17 38
M  V30 40 1 21 39
M  V30 41 1 21 40
M  V30 END BOND
M  V30 END CTAB
M  END
