
     RDKit          3D

  0  0  0  0  0  0  0  0  0  0999 V3000
M  V30 BEGIN CTAB
M  V30 COUNTS 49 50 0 0 0
M  V30 BEGIN ATOM
M  V30 1 N -8.4664 1.78284 0.903939 0
M  V30 2 C -7.23558 1.82746 0.160559 0
M  V30 3 C -6.60394 0.507751 0.106882 0
M  V30 4 C -6.98654 -0.57122 0.842261 0
M  V30 5 C -6.35383 -1.82337 0.788521 0
M  V30 6 C -5.27225 -1.96624 -0.0755682 0
M  V30 7 C -4.85515 -0.911939 -0.83467 0
M  V30 8 C -5.50951 0.304516 -0.740887 0
M  V30 9 C -3.68535 -1.05645 -1.77752 0
M  V30 10 N -2.6337 -0.264801 -1.49943 0
M  V30 11 C -1.56736 0.550579 -1.21801 0
M  V30 12 O -1.64591 1.8215 -1.25712 0
M  V30 13 C -0.198628 0.0713411 -0.848332 0
M  V30 14 O -0.0881255 -1.15804 -0.676522 0
M  V30 15 N 0.897627 0.945849 -0.736483 0
M  V30 16 C 2.23856 0.647949 -0.472276 0
M  V30 17 C 2.68964 0.0351932 0.801089 0
M  V30 18 C 4.19451 -0.128803 0.705553 0
M  V30 19 C 4.82108 -1.28514 0.365556 0
M  V30 20 C 6.20406 -1.31525 0.148517 0
M  V30 21 C 6.96073 -0.163479 0.278374 0
M  V30 22 C 6.2808 0.993808 0.627303 0
M  V30 23 C 4.93015 1.05489 0.845574 0
M  V30 24 S 8.70343 -0.184195 -0.0241299 0
M  V30 25 O 8.96126 -1.17253 -1.15432 0
M  V30 26 O 9.06915 1.19321 -0.551231 0
M  V30 27 N 9.59877 -0.581667 1.36911 0
M  V30 28 H -8.37273 1.69313 1.91456 0
M  V30 29 H -9.11914 1.11076 0.435547 0
M  V30 30 H -6.57462 2.60976 0.564209 0
M  V30 31 H -7.48979 2.13455 -0.888013 0
M  V30 32 H -7.8617 -0.452088 1.52762 0
M  V30 33 H -6.71547 -2.60513 1.40911 0
M  V30 34 H -4.7974 -2.96106 -0.114838 0
M  V30 35 H -5.22664 1.15859 -1.33806 0
M  V30 36 H -4.1694 -0.905659 -2.82618 0
M  V30 37 H -3.43769 -2.17269 -1.73109 0
M  V30 38 H -3.42094 0.852028 -1.7979 0
M  V30 39 H 0.655845 1.99515 -0.899082 0
M  V30 40 H 2.68466 0.00122396 -1.35026 0
M  V30 41 H 2.85253 1.59542 -0.620486 0
M  V30 42 H 2.48417 0.653824 1.68186 0
M  V30 43 H 2.2871 -0.971889 0.968295 0
M  V30 44 H 4.21825 -2.18664 0.267214 0
M  V30 45 H 6.66624 -2.23075 -0.13221 0
M  V30 46 H 6.92483 1.88308 0.71503 0
M  V30 47 H 4.48671 1.99121 1.1294 0
M  V30 48 H 9.02505 -1.19575 1.9696 0
M  V30 49 H 10.4527 -1.15084 1.10308 0
M  V30 END ATOM
M  V30 BEGIN BOND
M  V30 1 1 1 2
M  V30 2 1 2 3
M  V30 3 2 3 4
M  V30 4 1 4 5
M  V30 5 2 5 6
M  V30 6 1 6 7
M  V30 7 2 7 8
M  V30 8 1 7 9
M  V30 9 1 9 10
M  V30 10 1 10 11
M  V30 11 2 11 12
M  V30 12 1 11 13
M  V30 13 2 13 14
M  V30 14 1 13 15
M  V30 15 1 15 16
M  V30 16 1 16 17
M  V30 17 1 17 18
M  V30 18 2 18 19
M  V30 19 1 19 20
M  V30 20 2 20 21
M  V30 21 1 21 22
M  V30 22 2 22 23
M  V30 23 1 21 24
M  V30 24 2 24 25
M  V30 25 2 24 26
M  V30 26 1 24 27
M  V30 27 1 8 3
M  V30 28 1 23 18
M  V30 29 1 1 28
M  V30 30 1 1 29
M  V30 31 1 2 30
M  V30 32 1 2 31
M  V30 33 1 4 32
M  V30 34 1 5 33
M  V30 35 1 6 34
M  V30 36 1 8 35
M  V30 37 1 9 36
M  V30 38 1 9 37
M  V30 39 1 10 38
M  V30 40 1 15 39
M  V30 41 1 16 40
M  V30 42 1 16 41
M  V30 43 1 17 42
M  V30 44 1 17 43
M  V30 45 1 19 44
M  V30 46 1 20 45
M  V30 47 1 22 46
M  V30 48 1 23 47
M  V30 49 1 27 48
M  V30 50 1 27 49
M  V30 END BOND
M  V30 END CTAB
M  END
