
     RDKit          3D

  0  0  0  0  0  0  0  0  0  0999 V3000
M  V30 BEGIN CTAB
M  V30 COUNTS 28 29 0 0 0
M  V30 BEGIN ATOM
M  V30 1 C 4.74779 -0.402773 -0.0174773 0
M  V30 2 O 3.52402 -0.836905 0.48419 0
M  V30 3 C 2.52888 -0.0786339 -0.101001 0
M  V30 4 C 1.34459 -0.855276 -0.619721 0
M  V30 5 N 0.486647 0.0951055 0.0654787 0
M  V30 6 C 1.59337 0.444675 0.968317 0
M  V30 7 C -0.848641 0.579112 0.00338175 0
M  V30 8 N -1.1023 1.89551 -0.215621 0
M  V30 9 C -2.32185 2.41262 -0.285026 0
M  V30 10 C -3.3951 1.54699 -0.12261 0
M  V30 11 C -3.16539 0.203673 0.1013 0
M  V30 12 C -1.87676 -0.312227 0.169476 0
M  V30 13 N -1.68662 -1.69358 0.400386 0
M  V30 14 N -4.30187 -0.631633 0.259538 0
M  V30 15 H 5.60946 -0.964768 0.404716 0
M  V30 16 H 4.85302 0.693456 0.14393 0
M  V30 17 H 4.79739 -0.562563 -1.13365 0
M  V30 18 H 2.90626 0.665534 -0.801118 0
M  V30 19 H 1.2292 -1.87319 -0.223234 0
M  V30 20 H 1.29165 -0.805548 -1.72671 0
M  V30 21 H 1.66768 1.52197 1.18539 0
M  V30 22 H 1.56851 -0.135125 1.89594 0
M  V30 23 H -2.42649 3.46321 -0.461261 0
M  V30 24 H -4.38185 1.98448 -0.182002 0
M  V30 25 H -1.46058 -2.02785 1.36673 0
M  V30 26 H -1.75385 -2.43414 -0.33144 0
M  V30 27 H -4.21124 -1.65197 0.0341221 0
M  V30 28 H -5.21593 -0.240139 0.594981 0
M  V30 END ATOM
M  V30 BEGIN BOND
M  V30 1 1 1 2
M  V30 2 1 2 3
M  V30 3 1 3 4
M  V30 4 1 4 5
M  V30 5 1 5 6
M  V30 6 1 5 7
M  V30 7 2 7 8
M  V30 8 1 8 9
M  V30 9 2 9 10
M  V30 10 1 10 11
M  V30 11 2 11 12
M  V30 12 1 12 13
M  V30 13 1 11 14
M  V30 14 1 6 3
M  V30 15 1 12 7
M  V30 16 1 1 15
M  V30 17 1 1 16
M  V30 18 1 1 17
M  V30 19 1 3 18
M  V30 20 1 4 19
M  V30 21 1 4 20
M  V30 22 1 6 21
M  V30 23 1 6 22
M  V30 24 1 9 23
M  V30 25 1 10 24
M  V30 26 1 13 25
M  V30 27 1 13 26
M  V30 28 1 14 27
M  V30 29 1 14 28
M  V30 END BOND
M  V30 END CTAB
M  END
