
     RDKit          3D

  0  0  0  0  0  0  0  0  0  0999 V3000
M  V30 BEGIN CTAB
M  V30 COUNTS 44 45 0 0 0
M  V30 BEGIN ATOM
M  V30 1 C -5.16971 -4.11815 -1.0555 0
M  V30 2 O -4.90248 -2.74615 -0.72568 0
M  V30 3 C -3.57404 -2.34686 -0.590056 0
M  V30 4 O -2.68445 -3.1958 -0.759051 0
M  V30 5 C -3.3279 -0.952397 -0.254194 0
M  V30 6 C -1.98764 -0.552951 -0.131877 0
M  V30 7 C -1.63401 0.728997 0.183657 0
M  V30 8 N -0.295091 1.1321 0.270544 0
M  V30 9 C 0.728054 0.540149 -0.466881 0
M  V30 10 O 0.510413 -0.391746 -1.282 0
M  V30 11 C 2.18059 0.920708 -0.386234 0
M  V30 12 S 3.00436 0.0420218 0.928858 0
M  V30 13 C 4.70097 -0.303844 0.541697 0
M  V30 14 N 5.50896 -0.947501 1.43474 0
M  V30 15 C 6.78235 -1.24934 1.19593 0
M  V30 16 N 7.60658 -1.92772 2.15486 0
M  V30 17 C 7.32799 -0.895664 -0.023785 0
M  V30 18 C 6.54154 -0.249176 -0.939017 0
M  V30 19 N 5.25153 0.021641 -0.616137 0
M  V30 20 N 7.08108 0.121444 -2.20488 0
M  V30 21 C -2.66294 1.65671 0.387758 0
M  V30 22 C -4.0027 1.30697 0.278569 0
M  V30 23 C -4.27994 -0.00739996 -0.0445879 0
M  V30 24 C -5.08494 2.24665 0.507753 0
M  V30 25 O -6.27226 1.79713 0.358941 0
M  V30 26 O -4.96033 3.55901 0.86669 0
M  V30 27 C -6.0568 4.43333 1.08236 0
M  V30 28 H -4.25282 -4.6422 -1.40756 0
M  V30 29 H -5.60727 -4.61239 -0.175426 0
M  V30 30 H -5.93579 -4.09941 -1.85438 0
M  V30 31 H -1.26682 -1.35423 -0.274883 0
M  V30 32 H -0.0602087 1.93442 0.937737 0
M  V30 33 H 2.17857 2.02122 -0.159095 0
M  V30 34 H 2.68434 0.774435 -1.34548 0
M  V30 35 H 7.61822 -1.58244 3.13487 0
M  V30 36 H 8.1707 -2.74526 1.86672 0
M  V30 37 H 8.36011 -1.13749 -0.234611 0
M  V30 38 H 8.11275 0.0480451 -2.34383 0
M  V30 39 H 6.44322 0.449303 -2.95831 0
M  V30 40 H -2.4237 2.67422 0.643623 0
M  V30 41 H -5.31634 -0.3299 -0.150688 0
M  V30 42 H -5.7149 5.45925 1.33254 0
M  V30 43 H -6.54038 4.05655 2.02887 0
M  V30 44 H -6.77888 4.46373 0.272502 0
M  V30 END ATOM
M  V30 BEGIN BOND
M  V30 1 1 1 2
M  V30 2 1 2 3
M  V30 3 2 3 4
M  V30 4 1 3 5
M  V30 5 2 5 6
M  V30 6 1 6 7
M  V30 7 1 7 8
M  V30 8 1 8 9
M  V30 9 2 9 10
M  V30 10 1 9 11
M  V30 11 1 11 12
M  V30 12 1 12 13
M  V30 13 2 13 14
M  V30 14 1 14 15
M  V30 15 1 15 16
M  V30 16 2 15 17
M  V30 17 1 17 18
M  V30 18 2 18 19
M  V30 19 1 18 20
M  V30 20 2 7 21
M  V30 21 1 21 22
M  V30 22 2 22 23
M  V30 23 1 22 24
M  V30 24 2 24 25
M  V30 25 1 24 26
M  V30 26 1 26 27
M  V30 27 1 23 5
M  V30 28 1 19 13
M  V30 29 1 1 28
M  V30 30 1 1 29
M  V30 31 1 1 30
M  V30 32 1 6 31
M  V30 33 1 8 32
M  V30 34 1 11 33
M  V30 35 1 11 34
M  V30 36 1 16 35
M  V30 37 1 16 36
M  V30 38 1 17 37
M  V30 39 1 20 38
M  V30 40 1 20 39
M  V30 41 1 21 40
M  V30 42 1 23 41
M  V30 43 1 27 42
M  V30 44 1 27 43
M  V30 45 1 27 44
M  V30 END BOND
M  V30 END CTAB
M  END
