
     RDKit          3D

  0  0  0  0  0  0  0  0  0  0999 V3000
M  V30 BEGIN CTAB
M  V30 COUNTS 32 32 0 0 0
M  V30 BEGIN ATOM
M  V30 1 N 5.07361 -0.919774 0.052341 0
M  V30 2 C 4.91738 0.485269 0.243009 0
M  V30 3 C 3.45444 0.832389 0.145868 0
M  V30 4 O 3.09682 2.02856 0.285033 0
M  V30 5 N 2.53279 -0.174719 -0.0949779 0
M  V30 6 C 1.13023 0.0729615 -0.213289 0
M  V30 7 C 0.588774 1.25826 -0.619391 0
M  V30 8 C -0.794625 1.45776 -0.690462 0
M  V30 9 C -1.59941 0.40313 -0.332949 0
M  V30 10 C -1.09418 -0.802624 0.0789628 0
M  V30 11 C 0.247971 -0.949211 0.132447 0
M  V30 12 S -2.11681 -2.15346 0.535442 0
M  V30 13 O -1.28447 -3.33004 0.902153 0
M  V30 14 O -2.99407 -2.56946 -0.618146 0
M  V30 15 N -3.14401 -1.76838 1.86274 0
M  V30 16 C -3.07774 0.560174 -0.38903 0
M  V30 17 C -3.45256 1.9479 -0.886442 0
M  V30 18 H 4.71335 -1.19009 -0.876663 0
M  V30 19 H 4.55161 -1.42603 0.785043 0
M  V30 20 H 5.51059 1.10025 -0.462837 0
M  V30 21 H 5.19631 0.787359 1.29542 0
M  V30 22 H 2.83943 -1.19795 -0.205085 0
M  V30 23 H 1.20285 2.09815 -0.928158 0
M  V30 24 H -1.19696 2.42448 -1.02074 0
M  V30 25 H 0.687936 -1.88913 0.453681 0
M  V30 26 H -3.20915 -2.61656 2.46634 0
M  V30 27 H -4.14514 -1.61754 1.53482 0
M  V30 28 H -3.46171 0.496463 0.643265 0
M  V30 29 H -3.48387 -0.167222 -1.08936 0
M  V30 30 H -3.09834 2.07836 -1.93105 0
M  V30 31 H -3.04297 2.693 -0.186005 0
M  V30 32 H -4.5481 2.04774 -0.871977 0
M  V30 END ATOM
M  V30 BEGIN BOND
M  V30 1 1 1 2
M  V30 2 1 2 3
M  V30 3 2 3 4
M  V30 4 1 3 5
M  V30 5 1 5 6
M  V30 6 2 6 7
M  V30 7 1 7 8
M  V30 8 2 8 9
M  V30 9 1 9 10
M  V30 10 2 10 11
M  V30 11 1 10 12
M  V30 12 2 12 13
M  V30 13 2 12 14
M  V30 14 1 12 15
M  V30 15 1 9 16
M  V30 16 1 16 17
M  V30 17 1 11 6
M  V30 18 1 1 18
M  V30 19 1 1 19
M  V30 20 1 2 20
M  V30 21 1 2 21
M  V30 22 1 5 22
M  V30 23 1 7 23
M  V30 24 1 8 24
M  V30 25 1 11 25
M  V30 26 1 15 26
M  V30 27 1 15 27
M  V30 28 1 16 28
M  V30 29 1 16 29
M  V30 30 1 17 30
M  V30 31 1 17 31
M  V30 32 1 17 32
M  V30 END BOND
M  V30 END CTAB
M  END
