
     RDKit          3D

  0  0  0  0  0  0  0  0  0  0999 V3000
M  V30 BEGIN CTAB
M  V30 COUNTS 71 74 0 0 0
M  V30 BEGIN ATOM
M  V30 1 C -5.37229 -4.84721 1.66066 0
M  V30 2 O -5.78134 -3.52827 1.88228 0
M  V30 3 C -5.17129 -2.41449 1.2671 0
M  V30 4 C -4.11786 -2.59002 0.397754 0
M  V30 5 C -3.47932 -1.53571 -0.235293 0
M  V30 6 C -2.33068 -1.75596 -1.10355 0
M  V30 7 O -1.10546 -1.39208 -0.453031 0
M  V30 8 C -0.0740764 -0.731079 -1.04921 0
M  V30 9 C 1.09235 -0.393901 -0.345843 0
M  V30 10 C 2.12907 0.26231 -0.924013 0
M  V30 11 N 2.01587 0.599863 -2.24122 0
M  V30 12 C 0.921755 0.291826 -2.92844 0
M  V30 13 N 0.791143 0.643513 -4.32018 0
M  V30 14 N -0.0806147 -0.3552 -2.32754 0
M  V30 15 C 3.35331 0.62316 -0.220126 0
M  V30 16 C 4.37365 1.29036 -0.885136 0
M  V30 17 C 5.54304 1.65054 -0.268604 0
M  V30 18 C 5.745 1.35481 1.05784 0
M  V30 19 C 7.00394 1.72651 1.77267 0
M  V30 20 C 8.03307 0.619429 1.67192 0 CFG=2
M  V30 21 N 7.44305 -0.558504 2.28207 0
M  V30 22 C 9.21941 1.02373 2.45997 0
M  V30 23 O 9.63364 0.340266 3.58644 0
M  V30 24 O 9.89605 2.03236 2.10616 0
M  V30 25 C 4.73877 0.693365 1.72583 0
M  V30 26 C 3.54232 0.324635 1.09567 0
M  V30 27 C -2.10506 -3.22215 -1.48122 0
M  V30 28 F -3.16375 -3.78351 -2.13357 0
M  V30 29 F -1.09048 -3.16711 -2.47239 0
M  V30 30 F -1.54667 -3.96518 -0.483683 0
M  V30 31 C -3.94021 -0.277118 0.0342233 0
M  V30 32 C -5.01557 -0.0809302 0.921468 0
M  V30 33 C -5.62764 -1.13915 1.53405 0
M  V30 34 O -6.69149 -0.999074 2.41664 0
M  V30 35 C -7.25936 0.229739 2.7811 0
M  V30 36 C -3.40817 0.903629 -0.605168 0
M  V30 37 C -3.42252 1.18553 -1.94513 0
M  V30 38 C -2.8833 2.3358 -2.48342 0
M  V30 39 C -2.9337 2.57679 -3.94582 0
M  V30 40 C -2.29124 3.27489 -1.66858 0
M  V30 41 C -2.25688 3.02545 -0.3015 0
M  V30 42 C -2.80645 1.86048 0.214347 0
M  V30 43 H -5.1053 -5.07965 0.617354 0
M  V30 44 H -6.223 -5.5324 1.92515 0
M  V30 45 H -4.49433 -5.12388 2.30397 0
M  V30 46 H -3.78711 -3.58801 0.209059 0
M  V30 47 H -2.34259 -1.22748 -2.06622 0
M  V30 48 H 1.12395 -0.684291 0.684463 0
M  V30 49 H 1.31288 1.46432 -4.69661 0
M  V30 50 H 0.187915 0.0924776 -4.94594 0
M  V30 51 H 4.20556 1.5183 -1.92742 0
M  V30 52 H 6.35648 2.17816 -0.7845 0
M  V30 53 H 6.73647 1.92472 2.8234 0
M  V30 54 H 7.36005 2.66534 1.3033 0
M  V30 55 H 8.28433 0.421592 0.628592 0
M  V30 56 H 8.20523 -1.08939 2.77425 0
M  V30 57 H 6.98825 -1.18548 1.60291 0
M  V30 58 H 9.02005 0.285197 4.39246 0
M  V30 59 H 4.89683 0.458574 2.77626 0
M  V30 60 H 2.78439 -0.190745 1.65742 0
M  V30 61 H -5.36325 0.924851 1.12202 0
M  V30 62 H -7.19228 1.0143 2.02188 0
M  V30 63 H -8.34827 0.0720601 3.03616 0
M  V30 64 H -6.80953 0.627981 3.71894 0
M  V30 65 H -3.89425 0.458814 -2.60643 0
M  V30 66 H -2.12715 2.04624 -4.48629 0
M  V30 67 H -3.88752 2.10284 -4.3107 0
M  V30 68 H -3.00214 3.64367 -4.20739 0
M  V30 69 H -1.86025 4.18569 -2.0622 0
M  V30 70 H -1.78519 3.78313 0.309423 0
M  V30 71 H -2.76025 1.70072 1.29335 0
M  V30 END ATOM
M  V30 BEGIN BOND
M  V30 1 1 1 2
M  V30 2 1 2 3
M  V30 3 2 3 4
M  V30 4 1 4 5
M  V30 5 1 5 6
M  V30 6 1 6 7
M  V30 7 1 7 8
M  V30 8 2 8 9
M  V30 9 1 9 10
M  V30 10 2 10 11
M  V30 11 1 11 12
M  V30 12 1 12 13
M  V30 13 2 12 14
M  V30 14 1 10 15
M  V30 15 2 15 16
M  V30 16 1 16 17
M  V30 17 2 17 18
M  V30 18 1 18 19
M  V30 19 1 19 20
M  V30 20 1 20 21
M  V30 21 1 20 22
M  V30 22 1 22 23
M  V30 23 2 22 24
M  V30 24 1 18 25
M  V30 25 2 25 26
M  V30 26 1 6 27
M  V30 27 1 27 28
M  V30 28 1 27 29
M  V30 29 1 27 30
M  V30 30 2 5 31
M  V30 31 1 31 32
M  V30 32 2 32 33
M  V30 33 1 33 34
M  V30 34 1 34 35
M  V30 35 1 31 36
M  V30 36 2 36 37
M  V30 37 1 37 38
M  V30 38 1 38 39
M  V30 39 2 38 40
M  V30 40 1 40 41
M  V30 41 2 41 42
M  V30 42 1 33 3
M  V30 43 1 42 36
M  V30 44 1 14 8
M  V30 45 1 26 15
M  V30 46 1 1 43
M  V30 47 1 1 44
M  V30 48 1 1 45
M  V30 49 1 4 46
M  V30 50 1 6 47
M  V30 51 1 9 48
M  V30 52 1 13 49
M  V30 53 1 13 50
M  V30 54 1 16 51
M  V30 55 1 17 52
M  V30 56 1 19 53
M  V30 57 1 19 54
M  V30 58 1 20 55 CFG=3
M  V30 59 1 21 56
M  V30 60 1 21 57
M  V30 61 1 23 58
M  V30 62 1 25 59
M  V30 63 1 26 60
M  V30 64 1 32 61
M  V30 65 1 35 62
M  V30 66 1 35 63
M  V30 67 1 35 64
M  V30 68 1 37 65
M  V30 69 1 39 66
M  V30 70 1 39 67
M  V30 71 1 39 68
M  V30 72 1 40 69
M  V30 73 1 41 70
M  V30 74 1 42 71
M  V30 END BOND
M  V30 END CTAB
M  END
