
     RDKit          3D

  0  0  0  0  0  0  0  0  0  0999 V3000
M  V30 BEGIN CTAB
M  V30 COUNTS 24 24 0 0 0
M  V30 BEGIN ATOM
M  V30 1 C 4.01279 -0.489774 -1.17854 0
M  V30 2 O 2.91529 -0.912708 -0.396052 0
M  V30 3 C 2.71953 0.151935 0.51055 0
M  V30 4 S 1.34577 -0.172277 1.62626 0
M  V30 5 C -0.221873 -0.230049 0.780062 0
M  V30 6 N -0.699268 -1.37932 0.271763 0
M  V30 7 C -1.89233 -1.43692 -0.377734 0
M  V30 8 N -2.36951 -2.6782 -0.906112 0
M  V30 9 C -2.68493 -0.322976 -0.554752 0
M  V30 10 C -2.21638 0.869953 -0.041238 0
M  V30 11 C -0.984619 0.904738 0.623561 0
M  V30 12 C -0.50539 2.13283 1.1475 0
M  V30 13 N -0.133066 3.12425 1.56144 0
M  V30 14 N -3.01812 2.03315 -0.212619 0
M  V30 15 H 4.8431 -0.355889 -0.448358 0
M  V30 16 H 4.22733 -1.19109 -1.99283 0
M  V30 17 H 3.76748 0.511627 -1.63722 0
M  V30 18 H 3.64753 0.194244 1.11811 0
M  V30 19 H 2.63801 1.08565 -0.0431336 0
M  V30 20 H -3.3538 -3.00599 -0.769288 0
M  V30 21 H -1.75738 -3.3246 -1.45992 0
M  V30 22 H -3.62701 -0.415043 -1.07819 0
M  V30 23 H -3.69467 2.23977 0.556841 0
M  V30 24 H -2.95849 2.66668 -1.04963 0
M  V30 END ATOM
M  V30 BEGIN BOND
M  V30 1 1 1 2
M  V30 2 1 2 3
M  V30 3 1 3 4
M  V30 4 1 4 5
M  V30 5 2 5 6
M  V30 6 1 6 7
M  V30 7 1 7 8
M  V30 8 2 7 9
M  V30 9 1 9 10
M  V30 10 2 10 11
M  V30 11 1 11 12
M  V30 12 3 12 13
M  V30 13 1 10 14
M  V30 14 1 11 5
M  V30 15 1 1 15
M  V30 16 1 1 16
M  V30 17 1 1 17
M  V30 18 1 3 18
M  V30 19 1 3 19
M  V30 20 1 8 20
M  V30 21 1 8 21
M  V30 22 1 9 22
M  V30 23 1 14 23
M  V30 24 1 14 24
M  V30 END BOND
M  V30 END CTAB
M  END
