
     RDKit          3D

  0  0  0  0  0  0  0  0  0  0999 V3000
M  V30 BEGIN CTAB
M  V30 COUNTS 46 48 0 0 0
M  V30 BEGIN ATOM
M  V30 1 C -2.23115 -1.75765 -1.73391 0
M  V30 2 C -3.49106 -1.42411 -1.02396 0
M  V30 3 N -4.5918 -2.22529 -1.15548 0
M  V30 4 C -5.75188 -1.96357 -0.535987 0
M  V30 5 N -6.8915 -2.80189 -0.676653 0
M  V30 6 N -5.80659 -0.860147 0.24162 0
M  V30 7 C -4.7457 -0.031409 0.408103 0
M  V30 8 N -4.78604 1.12107 1.21996 0
M  V30 9 C -3.54978 -0.304521 -0.232852 0
M  V30 10 C -2.37254 0.552122 -0.0686436 0
M  V30 11 C -1.96488 1.37205 -1.10304 0
M  V30 12 C -0.859009 2.21653 -0.961765 0
M  V30 13 C -0.170297 2.22936 0.220839 0
M  V30 14 C 1.01962 3.10334 0.46093 0
M  V30 15 N 2.06564 2.3666 1.10461 0
M  V30 16 C 2.86368 1.46857 0.313624 0
M  V30 17 O 2.61599 1.36916 -0.914457 0
M  V30 18 N 3.8978 0.717982 0.895984 0
M  V30 19 C 4.75513 -0.165114 0.217456 0
M  V30 20 C 5.05612 -0.14352 -1.11809 0
M  V30 21 C 5.89275 -1.06895 -1.73886 0
M  V30 22 C 6.46494 -2.06821 -1.00529 0
M  V30 23 C 6.1923 -2.13317 0.355948 0
M  V30 24 Cl 6.94157 -3.42624 1.26136 0
M  V30 25 C 5.36958 -1.21507 0.934904 0
M  V30 26 C -0.585908 1.39868 1.26345 0
M  V30 27 C -1.67012 0.567947 1.1314 0
M  V30 28 H -1.87852 -0.969589 -2.40895 0
M  V30 29 H -2.42444 -2.65659 -2.39183 0
M  V30 30 H -1.39866 -2.05243 -1.06318 0
M  V30 31 H -7.6576 -2.6392 -1.36094 0
M  V30 32 H -6.97292 -3.6334 -0.0616286 0
M  V30 33 H -4.72697 1.00819 2.25311 0
M  V30 34 H -4.87205 2.07617 0.834186 0
M  V30 35 H -2.50679 1.35432 -2.0222 0
M  V30 36 H -0.531519 2.86253 -1.76573 0
M  V30 37 H 1.38456 3.52366 -0.524597 0
M  V30 38 H 0.66763 3.98264 1.05542 0
M  V30 39 H 2.2643 2.45727 2.1056 0
M  V30 40 H 4.0313 0.83836 1.94428 0
M  V30 41 H 4.63023 0.656597 -1.74285 0
M  V30 42 H 6.07482 -0.979798 -2.78325 0
M  V30 43 H 7.13091 -2.81847 -1.46344 0
M  V30 44 H 5.14303 -1.24991 2.00965 0
M  V30 45 H -0.0382205 1.41385 2.19471 0
M  V30 46 H -1.986 -0.0687625 1.93611 0
M  V30 END ATOM
M  V30 BEGIN BOND
M  V30 1 1 1 2
M  V30 2 2 2 3
M  V30 3 1 3 4
M  V30 4 1 4 5
M  V30 5 2 4 6
M  V30 6 1 6 7
M  V30 7 1 7 8
M  V30 8 2 7 9
M  V30 9 1 9 10
M  V30 10 2 10 11
M  V30 11 1 11 12
M  V30 12 2 12 13
M  V30 13 1 13 14
M  V30 14 1 14 15
M  V30 15 1 15 16
M  V30 16 2 16 17
M  V30 17 1 16 18
M  V30 18 1 18 19
M  V30 19 2 19 20
M  V30 20 1 20 21
M  V30 21 2 21 22
M  V30 22 1 22 23
M  V30 23 1 23 24
M  V30 24 2 23 25
M  V30 25 1 13 26
M  V30 26 2 26 27
M  V30 27 1 9 2
M  V30 28 1 27 10
M  V30 29 1 25 19
M  V30 30 1 1 28
M  V30 31 1 1 29
M  V30 32 1 1 30
M  V30 33 1 5 31
M  V30 34 1 5 32
M  V30 35 1 8 33
M  V30 36 1 8 34
M  V30 37 1 11 35
M  V30 38 1 12 36
M  V30 39 1 14 37
M  V30 40 1 14 38
M  V30 41 1 15 39
M  V30 42 1 18 40
M  V30 43 1 20 41
M  V30 44 1 21 42
M  V30 45 1 22 43
M  V30 46 1 25 44
M  V30 47 1 26 45
M  V30 48 1 27 46
M  V30 END BOND
M  V30 END CTAB
M  END
