
     RDKit          3D

  0  0  0  0  0  0  0  0  0  0999 V3000
M  V30 BEGIN CTAB
M  V30 COUNTS 20 20 0 0 0
M  V30 BEGIN ATOM
M  V30 1 Br 1.15274 3.79797 -1.40323 0
M  V30 2 C 0.82912 2.05075 -0.67125 0
M  V30 3 C -0.412806 1.71649 -0.155464 0
M  V30 4 C -0.670817 0.453003 0.381504 0
M  V30 5 O -1.91674 0.140337 0.891469 0
M  V30 6 C -2.87908 -0.3928 0.00788408 0
M  V30 7 F -3.08298 0.548966 -0.981499 0
M  V30 8 F -2.57297 -1.60963 -0.511463 0
M  V30 9 F -4.05996 -0.502865 0.755761 0
M  V30 10 C 0.323178 -0.490818 0.405048 0
M  V30 11 C 1.57385 -0.158423 -0.113029 0
M  V30 12 C 1.81732 1.0926 -0.641033 0
M  V30 13 N 2.56173 -1.16896 -0.0638406 0
M  V30 14 N 0.0453218 -1.76079 0.959901 0
M  V30 15 H -1.18707 2.45505 -0.174764 0
M  V30 16 H 2.78846 1.33286 -1.03689 0
M  V30 17 H 2.30205 -2.13103 -0.335964 0
M  V30 18 H 3.51886 -0.939052 0.239055 0
M  V30 19 H 0.000712499 -2.64666 0.439769 0
M  V30 20 H -0.130925 -1.787 2.00804 0
M  V30 END ATOM
M  V30 BEGIN BOND
M  V30 1 1 1 2
M  V30 2 2 2 3
M  V30 3 1 3 4
M  V30 4 1 4 5
M  V30 5 1 5 6
M  V30 6 1 6 7
M  V30 7 1 6 8
M  V30 8 1 6 9
M  V30 9 2 4 10
M  V30 10 1 10 11
M  V30 11 2 11 12
M  V30 12 1 11 13
M  V30 13 1 10 14
M  V30 14 1 12 2
M  V30 15 1 3 15
M  V30 16 1 12 16
M  V30 17 1 13 17
M  V30 18 1 13 18
M  V30 19 1 14 19
M  V30 20 1 14 20
M  V30 END BOND
M  V30 END CTAB
M  END
