
     RDKit          3D

  0  0  0  0  0  0  0  0  0  0999 V3000
M  V30 BEGIN CTAB
M  V30 COUNTS 48 51 0 0 0
M  V30 BEGIN ATOM
M  V30 1 N 7.69273 0.352679 -0.0870311 0
M  V30 2 C 6.30872 0.740734 -0.113923 0
M  V30 3 C 5.63008 0.915253 1.22962 0
M  V30 4 C 4.60898 -0.102515 0.89907 0
M  V30 5 C 5.45424 -0.491371 -0.313539 0
M  V30 6 C 3.29461 0.372208 0.389847 0
M  V30 7 N 2.98375 1.63507 0.129006 0
M  V30 8 C 1.75123 1.91824 -0.375413 0
M  V30 9 N 1.49352 3.3085 -0.619081 0
M  V30 10 N 0.831181 0.974409 -0.623104 0
M  V30 11 C 1.07925 -0.305699 -0.384539 0
M  V30 12 C 2.3516 -0.593443 0.137315 0
M  V30 13 N 0.23049 -1.40014 -0.637639 0
M  V30 14 C -0.955206 -1.64178 0.108012 0
M  V30 15 C -2.04979 -0.688062 -0.173787 0
M  V30 16 O -2.09556 0.463487 -0.768598 0
M  V30 17 N -3.30411 0.954575 -0.790811 0
M  V30 18 C -4.15664 0.112277 -0.182876 0
M  V30 19 C -3.36966 -0.945756 0.220214 0
M  V30 20 C -5.61019 0.237359 0.00141999 0
M  V30 21 C -6.33688 1.27399 -0.491634 0
M  V30 22 C -7.71437 1.36035 -0.306402 0
M  V30 23 C -8.34761 0.360079 0.398562 0
M  V30 24 C -7.65467 -0.7065 0.915733 0
M  V30 25 C -6.28956 -0.739148 0.700704 0
M  V30 26 C 0.599233 -2.3062 -1.70673 0
M  V30 27 H 8.15064 0.362843 0.826278 0
M  V30 28 H 7.88536 -0.533157 -0.649079 0
M  V30 29 H 6.06142 1.58732 -0.772827 0
M  V30 30 H 6.34956 0.605461 2.02521 0
M  V30 31 H 5.24504 1.94305 1.41177 0
M  V30 32 H 4.48616 -0.938792 1.61563 0
M  V30 33 H 4.95167 -0.461783 -1.28186 0
M  V30 34 H 5.96922 -1.45667 -0.090724 0
M  V30 35 H 1.05058 3.89022 0.127027 0
M  V30 36 H 1.74647 3.72264 -1.52202 0
M  V30 37 H 2.5683 -1.64049 0.343404 0
M  V30 38 H -1.30833 -2.70174 0.0400377 0
M  V30 39 H -0.7214 -1.52028 1.20842 0
M  V30 40 H -3.74222 -1.80378 0.743855 0
M  V30 41 H -5.80219 2.05686 -1.0522 0
M  V30 42 H -8.27707 2.19875 -0.714217 0
M  V30 43 H -9.4245 0.437396 0.534466 0
M  V30 44 H -8.15966 -1.50225 1.47688 0
M  V30 45 H -5.72818 -1.5719 1.10253 0
M  V30 46 H 1.04334 -3.20903 -1.19 0
M  V30 47 H -0.235121 -2.61897 -2.33547 0
M  V30 48 H 1.46555 -1.90428 -2.31193 0
M  V30 END ATOM
M  V30 BEGIN BOND
M  V30 1 1 1 2
M  V30 2 1 2 3
M  V30 3 1 3 4
M  V30 4 1 4 5
M  V30 5 1 4 6
M  V30 6 2 6 7
M  V30 7 1 7 8
M  V30 8 1 8 9
M  V30 9 2 8 10
M  V30 10 1 10 11
M  V30 11 2 11 12
M  V30 12 1 11 13
M  V30 13 1 13 14
M  V30 14 1 14 15
M  V30 15 1 15 16
M  V30 16 1 16 17
M  V30 17 2 17 18
M  V30 18 1 18 19
M  V30 19 1 18 20
M  V30 20 2 20 21
M  V30 21 1 21 22
M  V30 22 2 22 23
M  V30 23 1 23 24
M  V30 24 2 24 25
M  V30 25 1 13 26
M  V30 26 1 5 2
M  V30 27 1 12 6
M  V30 28 2 19 15
M  V30 29 1 25 20
M  V30 30 1 1 27
M  V30 31 1 1 28
M  V30 32 1 2 29
M  V30 33 1 3 30
M  V30 34 1 3 31
M  V30 35 1 4 32
M  V30 36 1 5 33
M  V30 37 1 5 34
M  V30 38 1 9 35
M  V30 39 1 9 36
M  V30 40 1 12 37
M  V30 41 1 14 38
M  V30 42 1 14 39
M  V30 43 1 19 40
M  V30 44 1 21 41
M  V30 45 1 22 42
M  V30 46 1 23 43
M  V30 47 1 24 44
M  V30 48 1 25 45
M  V30 49 1 26 46
M  V30 50 1 26 47
M  V30 51 1 26 48
M  V30 END BOND
M  V30 END CTAB
M  END
