
     RDKit          3D

  0  0  0  0  0  0  0  0  0  0999 V3000
M  V30 BEGIN CTAB
M  V30 COUNTS 32 33 0 0 0
M  V30 BEGIN ATOM
M  V30 1 C 3.18115 -2.04617 0.197855 0
M  V30 2 C 3.10255 -0.57252 0.404373 0
M  V30 3 C 1.74819 -0.0231669 0.177153 0
M  V30 4 N 0.606026 -0.622865 -0.176685 0
M  V30 5 C -0.388356 0.277113 -0.267677 0
M  V30 6 C 0.171797 1.49166 0.0463428 0
M  V30 7 N 1.47212 1.29244 0.314556 0
M  V30 8 N 2.38424 2.30974 0.679315 0
M  V30 9 N -0.501923 2.74744 0.0832722 0
M  V30 10 C -1.82516 0.0183388 -0.63714 0
M  V30 11 C -2.3305 0.739816 -1.86339 0
M  V30 12 C -2.84037 -0.0245357 0.491558 0
M  V30 13 C -2.42882 -1.28523 -0.280842 0
M  V30 14 C -1.72007 -2.29001 0.570846 0
M  V30 15 H 2.38015 -2.6153 0.698957 0
M  V30 16 H 4.14721 -2.39523 0.660899 0
M  V30 17 H 3.22313 -2.36125 -0.861667 0
M  V30 18 H 3.43157 -0.309039 1.41531 0
M  V30 19 H 3.83516 -0.0975692 -0.300047 0
M  V30 20 H 2.48047 3.1491 0.0783539 0
M  V30 21 H 2.96776 2.24952 1.53378 0
M  V30 22 H -0.477268 3.36294 -0.748639 0
M  V30 23 H -0.999136 2.99289 0.966083 0
M  V30 24 H -2.44562 0.0614189 -2.73173 0
M  V30 25 H -3.30729 1.2363 -1.7 0
M  V30 26 H -1.61259 1.57599 -2.09201 0
M  V30 27 H -3.87365 0.326545 0.300849 0
M  V30 28 H -2.42134 0.147506 1.48358 0
M  V30 29 H -3.20502 -1.74164 -0.951014 0
M  V30 30 H -1.14873 -1.74683 1.36538 0
M  V30 31 H -1.086 -2.99794 0.00225128 0
M  V30 32 H -2.51967 -2.84946 1.14012 0
M  V30 END ATOM
M  V30 BEGIN BOND
M  V30 1 1 1 2
M  V30 2 1 2 3
M  V30 3 2 3 4
M  V30 4 1 4 5
M  V30 5 2 5 6
M  V30 6 1 6 7
M  V30 7 1 7 8
M  V30 8 1 6 9
M  V30 9 1 5 10
M  V30 10 1 10 11
M  V30 11 1 10 12
M  V30 12 1 12 13
M  V30 13 1 13 14
M  V30 14 1 7 3
M  V30 15 1 13 10
M  V30 16 1 1 15
M  V30 17 1 1 16
M  V30 18 1 1 17
M  V30 19 1 2 18
M  V30 20 1 2 19
M  V30 21 1 8 20
M  V30 22 1 8 21
M  V30 23 1 9 22
M  V30 24 1 9 23
M  V30 25 1 11 24
M  V30 26 1 11 25
M  V30 27 1 11 26
M  V30 28 1 12 27
M  V30 29 1 12 28
M  V30 30 1 13 29
M  V30 31 1 14 30
M  V30 32 1 14 31
M  V30 33 1 14 32
M  V30 END BOND
M  V30 END CTAB
M  END
