
     RDKit          3D

  0  0  0  0  0  0  0  0  0  0999 V3000
M  V30 BEGIN CTAB
M  V30 COUNTS 23 22 0 0 0
M  V30 BEGIN ATOM
M  V30 1 N 4.35514 0.336835 -0.547458 0
M  V30 2 N 3.45523 0.0496103 0.461815 0
M  V30 3 C 2.08342 0.32586 0.288224 0
M  V30 4 O 1.7183 0.832254 -0.797017 0
M  V30 5 C 1.13912 0.0177648 1.36428 0
M  V30 6 C -0.280848 0.360197 1.10199 0
M  V30 7 C -0.941345 -0.289712 -0.0375133 0
M  V30 8 C -2.39203 0.237161 -0.107962 0
M  V30 9 O -2.62368 1.08417 0.821368 0
M  V30 10 N -3.23102 -0.193375 -1.05898 0
M  V30 11 N -4.0708 -0.624323 -2.01091 0
M  V30 12 H 4.21859 -0.196377 -1.43316 0
M  V30 13 H 5.34666 0.322873 -0.221029 0
M  V30 14 H 3.82339 -0.370447 1.34044 0
M  V30 15 H 1.43467 0.626171 2.27274 0
M  V30 16 H 1.2997 -1.03578 1.67299 0
M  V30 17 H -0.375229 1.47333 1.12204 0
M  V30 18 H -0.854546 0.0440236 2.02851 0
M  V30 19 H -0.551573 -0.0658061 -1.03487 0
M  V30 20 H -1.03484 -1.38092 0.0799711 0
M  V30 21 H -4.23715 0.597602 -0.587162 0
M  V30 22 H -4.61821 -1.45973 -1.70443 0
M  V30 23 H -3.66297 -0.691387 -2.95204 0
M  V30 END ATOM
M  V30 BEGIN BOND
M  V30 1 1 1 2
M  V30 2 1 2 3
M  V30 3 2 3 4
M  V30 4 1 3 5
M  V30 5 1 5 6
M  V30 6 1 6 7
M  V30 7 1 7 8
M  V30 8 2 8 9
M  V30 9 1 8 10
M  V30 10 1 10 11
M  V30 11 1 1 12
M  V30 12 1 1 13
M  V30 13 1 2 14
M  V30 14 1 5 15
M  V30 15 1 5 16
M  V30 16 1 6 17
M  V30 17 1 6 18
M  V30 18 1 7 19
M  V30 19 1 7 20
M  V30 20 1 10 21
M  V30 21 1 11 22
M  V30 22 1 11 23
M  V30 END BOND
M  V30 END CTAB
M  END
