
     RDKit          3D

  0  0  0  0  0  0  0  0  0  0999 V3000
M  V30 BEGIN CTAB
M  V30 COUNTS 57 59 0 0 0
M  V30 BEGIN ATOM
M  V30 1 C 4.00202 -1.25382 0.175838 0
M  V30 2 C 3.73731 0.242199 0.303012 0
M  V30 3 C 4.97407 0.976595 -0.157287 0
M  V30 4 C 3.50772 0.530952 1.75267 0
M  V30 5 Si 2.28166 0.73102 -0.755501 0 VAL=4
M  V30 6 C 1.7975 -0.672977 -1.88444 0
M  V30 7 C 2.79238 2.173 -1.85835 0
M  V30 8 O 1.01326 1.23783 0.248747 0
M  V30 9 C -0.233464 0.752501 -0.130184 0 CFG=2
M  V30 10 C -1.23215 1.90813 -0.290996 0
M  V30 11 C -2.13547 1.66469 0.884817 0 CFG=1
M  V30 12 C -3.4907 2.28624 0.744375 0
M  V30 13 O -4.17556 1.90418 -0.381469 0
M  V30 14 S -5.66442 2.70145 -0.361925 0
M  V30 15 N -5.54032 4.27884 0.274823 0
M  V30 16 O -6.20814 2.78732 -1.76059 0
M  V30 17 O -6.67008 1.9271 0.454698 0
M  V30 18 O -2.16573 0.280502 0.945888 0
M  V30 19 C -0.805319 -0.0129721 1.04244 0 CFG=1
M  V30 20 N -0.537199 -1.4205 0.987336 0
M  V30 21 C 0.421466 -2.08844 1.63152 0
M  V30 22 N 0.3512 -3.41186 1.31959 0
M  V30 23 C -0.668451 -3.59235 0.462563 0
M  V30 24 C -1.2106 -2.32784 0.269322 0
M  V30 25 N -2.26308 -2.2519 -0.564772 0
M  V30 26 C -2.78425 -3.31415 -1.18996 0
M  V30 27 N -2.23963 -4.52132 -0.983612 0
M  V30 28 C -1.18622 -4.71602 -0.171702 0
M  V30 29 N -0.620293 -6.0108 0.0349711 0
M  V30 30 H 3.57445 -1.80584 1.03472 0
M  V30 31 H 5.10241 -1.44201 0.159702 0
M  V30 32 H 3.58315 -1.65307 -0.769133 0
M  V30 33 H 5.50065 0.424669 -0.973579 0
M  V30 34 H 4.73353 2.01223 -0.456408 0
M  V30 35 H 5.72697 1.06968 0.669191 0
M  V30 36 H 2.7574 1.34018 1.93054 0
M  V30 37 H 4.45862 0.882295 2.20474 0
M  V30 38 H 3.18177 -0.390519 2.31398 0
M  V30 39 H 1.01302 -0.309198 -2.58155 0
M  V30 40 H 2.67543 -0.918395 -2.50971 0
M  V30 41 H 1.46695 -1.53894 -1.30719 0
M  V30 42 H 2.07372 2.26366 -2.69139 0
M  V30 43 H 3.78199 1.93897 -2.30561 0
M  V30 44 H 2.83368 3.06456 -1.21292 0
M  V30 45 H -0.21996 0.114645 -1.0128 0
M  V30 46 H -0.722014 2.88012 -0.146224 0
M  V30 47 H -1.73897 1.82535 -1.2686 0
M  V30 48 H -1.65901 2.04244 1.79637 0
M  V30 49 H -3.33074 3.39271 0.672376 0
M  V30 50 H -4.05662 2.11781 1.66492 0
M  V30 51 H -5.72913 4.35553 1.28725 0
M  V30 52 H -6.24766 4.8874 -0.206419 0
M  V30 53 H -0.463424 0.449466 2.00381 0
M  V30 54 H 1.14891 -1.66623 2.29947 0
M  V30 55 H -3.64421 -3.19137 -1.85981 0
M  V30 56 H 0.146318 -6.33269 -0.577758 0
M  V30 57 H -0.994751 -6.60106 0.800188 0
M  V30 END ATOM
M  V30 BEGIN BOND
M  V30 1 1 1 2
M  V30 2 1 2 3
M  V30 3 1 2 4
M  V30 4 1 2 5
M  V30 5 1 5 6
M  V30 6 1 5 7
M  V30 7 1 5 8
M  V30 8 1 8 9
M  V30 9 1 9 10
M  V30 10 1 10 11
M  V30 11 1 11 12
M  V30 12 1 12 13
M  V30 13 1 13 14
M  V30 14 1 14 15
M  V30 15 2 14 16
M  V30 16 2 14 17
M  V30 17 1 11 18
M  V30 18 1 18 19
M  V30 19 1 19 20
M  V30 20 1 20 21
M  V30 21 2 21 22
M  V30 22 1 22 23
M  V30 23 2 23 24
M  V30 24 1 24 25
M  V30 25 2 25 26
M  V30 26 1 26 27
M  V30 27 2 27 28
M  V30 28 1 28 29
M  V30 29 1 19 9
M  V30 30 1 24 20
M  V30 31 1 28 23
M  V30 32 1 1 30
M  V30 33 1 1 31
M  V30 34 1 1 32
M  V30 35 1 3 33
M  V30 36 1 3 34
M  V30 37 1 3 35
M  V30 38 1 4 36
M  V30 39 1 4 37
M  V30 40 1 4 38
M  V30 41 1 6 39
M  V30 42 1 6 40
M  V30 43 1 6 41
M  V30 44 1 7 42
M  V30 45 1 7 43
M  V30 46 1 7 44
M  V30 47 1 9 45 CFG=3
M  V30 48 1 10 46
M  V30 49 1 10 47
M  V30 50 1 11 48 CFG=1
M  V30 51 1 12 49
M  V30 52 1 12 50
M  V30 53 1 15 51
M  V30 54 1 15 52
M  V30 55 1 19 53 CFG=1
M  V30 56 1 21 54
M  V30 57 1 26 55
M  V30 58 1 29 56
M  V30 59 1 29 57
M  V30 END BOND
M  V30 END CTAB
M  END
