
     RDKit          3D

  0  0  0  0  0  0  0  0  0  0999 V3000
M  V30 BEGIN CTAB
M  V30 COUNTS 19 19 0 0 0
M  V30 BEGIN ATOM
M  V30 1 C 2.81737 0.169735 0.602785 0
M  V30 2 C 2.11621 -0.426182 -0.62622 0
M  V30 3 C 0.654017 -0.369357 -0.329656 0
M  V30 4 C -0.0943908 0.751024 -0.686647 0
M  V30 5 N -1.34667 0.494163 -0.29021 0
M  V30 6 C -1.3939 -0.714999 0.283961 0
M  V30 7 N -0.141847 -1.25542 0.259287 0
M  V30 8 N -2.51567 -1.37583 0.839897 0
M  V30 9 N -2.43865 1.33552 -0.441202 0
M  V30 10 H 3.88119 0.382024 0.362877 0
M  V30 11 H 2.78309 -0.529207 1.44079 0
M  V30 12 H 2.26646 1.08623 0.905013 0
M  V30 13 H 2.39241 -1.5058 -0.745105 0
M  V30 14 H 2.37104 0.17183 -1.52535 0
M  V30 15 H 0.255636 1.65695 -1.18634 0
M  V30 16 H -2.9255 -2.19239 0.361982 0
M  V30 17 H -2.92182 -1.03166 1.73206 0
M  V30 18 H -2.87876 1.54697 -1.37839 0
M  V30 19 H -2.88022 1.80641 0.394846 0
M  V30 END ATOM
M  V30 BEGIN BOND
M  V30 1 1 1 2
M  V30 2 1 2 3
M  V30 3 2 3 4
M  V30 4 1 4 5
M  V30 5 1 5 6
M  V30 6 2 6 7
M  V30 7 1 6 8
M  V30 8 1 5 9
M  V30 9 1 7 3
M  V30 10 1 1 10
M  V30 11 1 1 11
M  V30 12 1 1 12
M  V30 13 1 2 13
M  V30 14 1 2 14
M  V30 15 1 4 15
M  V30 16 1 8 16
M  V30 17 1 8 17
M  V30 18 1 9 18
M  V30 19 1 9 19
M  V30 END BOND
M  V30 END CTAB
M  END
