
     RDKit          3D

  0  0  0  0  0  0  0  0  0  0999 V3000
M  V30 BEGIN CTAB
M  V30 COUNTS 22 21 0 0 0
M  V30 BEGIN ATOM
M  V30 1 N 3.69234 -0.213712 0.52603 0
M  V30 2 N 2.47175 -0.38524 -0.123935 0
M  V30 3 C 1.23033 -0.225452 0.549712 0
M  V30 4 O 1.23983 0.0804304 1.77102 0
M  V30 5 C -0.0353905 -0.419673 -0.189704 0
M  V30 6 C -1.24129 -0.207906 0.692116 0
M  V30 7 N -1.24727 1.15306 1.23489 0
M  V30 8 C -2.53886 -0.425693 -0.00587734 0
M  V30 9 C -0.0620553 0.387188 -1.4395 0
M  V30 10 H 4.00585 0.770047 0.580219 0
M  V30 11 H 3.77944 -0.73648 1.4063 0
M  V30 12 H 2.50332 -0.639613 -1.14057 0
M  V30 13 H -0.0576135 -1.50141 -0.490261 0
M  V30 14 H -1.20952 -0.879732 1.57439 0
M  V30 15 H -2.09668 1.18176 1.86877 0
M  V30 16 H -1.48094 1.8512 0.471976 0
M  V30 17 H -3.21359 -1.1307 0.564406 0
M  V30 18 H -3.14309 0.524322 -0.0782321 0
M  V30 19 H -2.47274 -0.828395 -1.01591 0
M  V30 20 H 0.162804 1.46162 -1.28884 0
M  V30 21 H -1.01635 0.224163 -1.98122 0
M  V30 22 H 0.729716 -0.0397994 -2.12287 0
M  V30 END ATOM
M  V30 BEGIN BOND
M  V30 1 1 1 2
M  V30 2 1 2 3
M  V30 3 2 3 4
M  V30 4 1 3 5
M  V30 5 1 5 6
M  V30 6 1 6 7
M  V30 7 1 6 8
M  V30 8 1 5 9
M  V30 9 1 1 10
M  V30 10 1 1 11
M  V30 11 1 2 12
M  V30 12 1 5 13
M  V30 13 1 6 14
M  V30 14 1 7 15
M  V30 15 1 7 16
M  V30 16 1 8 17
M  V30 17 1 8 18
M  V30 18 1 8 19
M  V30 19 1 9 20
M  V30 20 1 9 21
M  V30 21 1 9 22
M  V30 END BOND
M  V30 END CTAB
M  END
