
     RDKit          3D

  0  0  0  0  0  0  0  0  0  0999 V3000
M  V30 BEGIN CTAB
M  V30 COUNTS 42 43 0 0 0
M  V30 BEGIN ATOM
M  V30 1 C 6.44713 1.82832 0.177248 0
M  V30 2 C 7.18456 0.549719 -0.107804 0
M  V30 3 C 6.50589 -0.664839 0.477749 0
M  V30 4 C 5.12326 -0.835251 -0.0716306 0
M  V30 5 N 4.75099 -1.51666 -1.14877 0
M  V30 6 N 3.53583 -1.56395 -1.48091 0
M  V30 7 C 2.63115 -0.927277 -0.745563 0
M  V30 8 S 3.6153 -0.241246 0.470723 0
M  V30 9 N 1.20473 -0.851053 -0.942709 0
M  V30 10 C 0.395089 -0.113774 -0.0393113 0
M  V30 11 O 0.892657 0.485358 0.944737 0
M  V30 12 C -1.05908 -0.0638758 -0.280752 0
M  V30 13 S -1.89363 0.934669 1.00291 0
M  V30 14 C -3.65628 0.937344 0.626189 0
M  V30 15 N -4.21426 1.85195 -0.153789 0
M  V30 16 C -5.53453 1.88789 -0.460406 0
M  V30 17 N -6.0645 2.89331 -1.30008 0
M  V30 18 C -6.34531 0.890326 0.0886314 0
M  V30 19 C -5.75609 -0.0536093 0.896465 0
M  V30 20 N -4.4335 -0.0199488 1.15325 0
M  V30 21 N -6.59258 -1.05786 1.44506 0
M  V30 22 C -1.63544 -1.46947 -0.220878 0
M  V30 23 C -1.33409 -2.00213 1.17894 0
M  V30 24 H 7.19073 2.64717 0.295956 0
M  V30 25 H 5.87557 1.76898 1.11749 0
M  V30 26 H 5.80741 2.10783 -0.688905 0
M  V30 27 H 8.17852 0.623141 0.379471 0
M  V30 28 H 7.36549 0.448667 -1.18481 0
M  V30 29 H 6.484 -0.585359 1.57655 0
M  V30 30 H 7.09504 -1.5419 0.197811 0
M  V30 31 H 0.793623 -1.34784 -1.75838 0
M  V30 32 H -1.2273 0.36429 -1.29524 0
M  V30 33 H -6.25418 3.82943 -0.912965 0
M  V30 34 H -6.26185 2.69777 -2.29272 0
M  V30 35 H -7.39919 0.912057 -0.151111 0
M  V30 36 H -6.41349 -2.06553 1.24984 0
M  V30 37 H -7.40097 -0.812621 2.05252 0
M  V30 38 H -1.11527 -2.05626 -0.987121 0
M  V30 39 H -2.72438 -1.41861 -0.356881 0
M  V30 40 H -0.267607 -2.25259 1.29349 0
M  V30 41 H -1.89601 -2.94778 1.37018 0
M  V30 42 H -1.59741 -1.24879 1.94144 0
M  V30 END ATOM
M  V30 BEGIN BOND
M  V30 1 1 1 2
M  V30 2 1 2 3
M  V30 3 1 3 4
M  V30 4 2 4 5
M  V30 5 1 5 6
M  V30 6 2 6 7
M  V30 7 1 7 8
M  V30 8 1 7 9
M  V30 9 1 9 10
M  V30 10 2 10 11
M  V30 11 1 10 12
M  V30 12 1 12 13
M  V30 13 1 13 14
M  V30 14 2 14 15
M  V30 15 1 15 16
M  V30 16 1 16 17
M  V30 17 2 16 18
M  V30 18 1 18 19
M  V30 19 2 19 20
M  V30 20 1 19 21
M  V30 21 1 12 22
M  V30 22 1 22 23
M  V30 23 1 8 4
M  V30 24 1 20 14
M  V30 25 1 1 24
M  V30 26 1 1 25
M  V30 27 1 1 26
M  V30 28 1 2 27
M  V30 29 1 2 28
M  V30 30 1 3 29
M  V30 31 1 3 30
M  V30 32 1 9 31
M  V30 33 1 12 32
M  V30 34 1 17 33
M  V30 35 1 17 34
M  V30 36 1 18 35
M  V30 37 1 21 36
M  V30 38 1 21 37
M  V30 39 1 22 38
M  V30 40 1 22 39
M  V30 41 1 23 40
M  V30 42 1 23 41
M  V30 43 1 23 42
M  V30 END BOND
M  V30 END CTAB
M  END
