
     RDKit          3D

  0  0  0  0  0  0  0  0  0  0999 V3000
M  V30 BEGIN CTAB
M  V30 COUNTS 28 28 0 0 0
M  V30 BEGIN ATOM
M  V30 1 N 5.50604 -0.142081 0.27952 0
M  V30 2 C 4.12309 -0.409993 0.212164 0
M  V30 3 C 3.20015 0.624799 0.138074 0
M  V30 4 C 1.85239 0.372804 0.072216 0
M  V30 5 C 1.36865 -0.914972 0.0773287 0
M  V30 6 N 2.26038 -1.92211 0.149088 0
M  V30 7 C 3.58037 -1.67914 0.213682 0
M  V30 8 S -0.399088 -1.23905 -0.00912072 0
M  V30 9 C -1.23878 0.363123 -0.0921849 0
M  V30 10 C -2.74075 0.206244 -0.168469 0
M  V30 11 N -3.07615 -0.541671 -1.33959 0
M  V30 12 C -3.31115 -0.412632 1.07191 0
M  V30 13 C -3.31385 1.61936 -0.270074 0
M  V30 14 H 6.15247 -0.813573 0.719107 0
M  V30 15 H 5.87308 0.735932 -0.115915 0
M  V30 16 H 3.5359 1.66086 0.131092 0
M  V30 17 H 1.11079 1.18272 0.0131778 0
M  V30 18 H 4.29737 -2.50084 0.271674 0
M  V30 19 H -0.929636 0.993943 0.769826 0
M  V30 20 H -0.877008 0.89079 -0.998513 0
M  V30 21 H -4.09147 -0.829861 -1.33838 0
M  V30 22 H -2.4388 -1.36524 -1.41213 0
M  V30 23 H -3.91435 -1.32089 0.86843 0
M  V30 24 H -2.46147 -0.744852 1.70771 0
M  V30 25 H -3.90528 0.305244 1.67632 0
M  V30 26 H -4.41272 1.62257 -0.243679 0
M  V30 27 H -2.89839 2.036 -1.22618 0
M  V30 28 H -2.85181 2.22251 0.539899 0
M  V30 END ATOM
M  V30 BEGIN BOND
M  V30 1 1 1 2
M  V30 2 2 2 3
M  V30 3 1 3 4
M  V30 4 2 4 5
M  V30 5 1 5 6
M  V30 6 2 6 7
M  V30 7 1 5 8
M  V30 8 1 8 9
M  V30 9 1 9 10
M  V30 10 1 10 11
M  V30 11 1 10 12
M  V30 12 1 10 13
M  V30 13 1 7 2
M  V30 14 1 1 14
M  V30 15 1 1 15
M  V30 16 1 3 16
M  V30 17 1 4 17
M  V30 18 1 7 18
M  V30 19 1 9 19
M  V30 20 1 9 20
M  V30 21 1 11 21
M  V30 22 1 11 22
M  V30 23 1 12 23
M  V30 24 1 12 24
M  V30 25 1 12 25
M  V30 26 1 13 26
M  V30 27 1 13 27
M  V30 28 1 13 28
M  V30 END BOND
M  V30 END CTAB
M  END
