
     RDKit          3D

  0  0  0  0  0  0  0  0  0  0999 V3000
M  V30 BEGIN CTAB
M  V30 COUNTS 28 28 0 0 0
M  V30 BEGIN ATOM
M  V30 1 C 3.4062 1.53966 0.558445 0
M  V30 2 C 2.63469 0.24616 0.482085 0
M  V30 3 C 3.10592 -0.659297 -0.620674 0
M  V30 4 C 1.15518 0.529561 0.236922 0
M  V30 5 C 0.45294 -0.783632 0.172153 0
M  V30 6 C -1.02135 -0.592085 -0.0688316 0
M  V30 7 N -1.50274 0.654431 -0.189863 0
M  V30 8 C -2.812 0.879054 -0.405772 0
M  V30 9 N -3.2898 2.21931 -0.529604 0
M  V30 10 N -3.65286 -0.174409 -0.501576 0
M  V30 11 C -3.17212 -1.42411 -0.380537 0
M  V30 12 N -4.04693 -2.55391 -0.478987 0
M  V30 13 N -1.85811 -1.61982 -0.164915 0
M  V30 14 H 3.01154 2.28458 -0.193174 0
M  V30 15 H 3.20462 1.99841 1.55177 0
M  V30 16 H 4.47723 1.41062 0.35909 0
M  V30 17 H 2.77579 -0.272966 1.44674 0
M  V30 18 H 2.62007 -0.386669 -1.5882 0
M  V30 19 H 4.21194 -0.685921 -0.708242 0
M  V30 20 H 2.80895 -1.70703 -0.338883 0
M  V30 21 H 1.00332 1.12465 -0.667112 0
M  V30 22 H 0.748442 1.10943 1.09662 0
M  V30 23 H 0.823277 -1.3908 -0.68244 0
M  V30 24 H 0.587797 -1.31398 1.14017 0
M  V30 25 H -4.18241 2.45882 -1.01627 0
M  V30 26 H -2.73868 3.00326 -0.124062 0
M  V30 27 H -5.02736 -2.44982 -0.123543 0
M  V30 28 H -3.72356 -3.44347 -0.886906 0
M  V30 END ATOM
M  V30 BEGIN BOND
M  V30 1 1 1 2
M  V30 2 1 2 3
M  V30 3 1 2 4
M  V30 4 1 4 5
M  V30 5 1 5 6
M  V30 6 2 6 7
M  V30 7 1 7 8
M  V30 8 1 8 9
M  V30 9 2 8 10
M  V30 10 1 10 11
M  V30 11 1 11 12
M  V30 12 2 11 13
M  V30 13 1 13 6
M  V30 14 1 1 14
M  V30 15 1 1 15
M  V30 16 1 1 16
M  V30 17 1 2 17
M  V30 18 1 3 18
M  V30 19 1 3 19
M  V30 20 1 3 20
M  V30 21 1 4 21
M  V30 22 1 4 22
M  V30 23 1 5 23
M  V30 24 1 5 24
M  V30 25 1 9 25
M  V30 26 1 9 26
M  V30 27 1 12 27
M  V30 28 1 12 28
M  V30 END BOND
M  V30 END CTAB
M  END
