
     RDKit          3D

  0  0  0  0  0  0  0  0  0  0999 V3000
M  V30 BEGIN CTAB
M  V30 COUNTS 36 37 0 0 0
M  V30 BEGIN ATOM
M  V30 1 C -2.60994 -1.26793 -1.28561 0
M  V30 2 C -2.06398 -0.553241 -0.016586 0
M  V30 3 C -1.68987 -1.59334 1.011 0
M  V30 4 N -3.18575 0.168068 0.49521 0
M  V30 5 C -3.38184 1.40958 0.337701 0
M  V30 6 N -4.55695 2.06133 0.885066 0
M  V30 7 N -2.38545 2.19262 -0.303298 0
M  V30 8 C -1.2614 1.662 -0.719507 0
M  V30 9 N -0.344844 2.53813 -1.35884 0
M  V30 10 N -0.98951 0.302675 -0.424061 0
M  V30 11 C 0.370502 -0.113092 -0.515963 0
M  V30 12 C 1.21214 0.12072 0.554602 0
M  V30 13 C 2.54165 -0.278443 0.53913 0
M  V30 14 C 3.07299 -0.934733 -0.568212 0
M  V30 15 C 2.22424 -1.16172 -1.62933 0
M  V30 16 C 0.886734 -0.760087 -1.61527 0
M  V30 17 C 3.43396 -0.0167605 1.65273 0
M  V30 18 O 2.973 0.604515 2.64776 0
M  V30 19 C 4.84636 -0.436082 1.68039 0
M  V30 20 Cl 5.88756 0.751339 0.831084 0
M  V30 21 H -2.39122 -0.581674 -2.14394 0
M  V30 22 H -3.69888 -1.38549 -1.23572 0
M  V30 23 H -2.08537 -2.20251 -1.48254 0
M  V30 24 H -1.99213 -2.61375 0.625519 0
M  V30 25 H -2.27045 -1.47962 1.96163 0
M  V30 26 H -0.633196 -1.57779 1.29909 0
M  V30 27 H -5.46636 1.74031 0.511452 0
M  V30 28 H -4.41979 2.78102 1.5937 0
M  V30 29 H 0.232453 2.2956 -2.18431 0
M  V30 30 H -0.248029 3.49738 -0.971849 0
M  V30 31 H 0.839447 0.632518 1.44418 0
M  V30 32 H 4.10052 -1.27005 -0.620549 0
M  V30 33 H 2.55046 -1.6731 -2.53846 0
M  V30 34 H 0.233425 -0.946298 -2.45847 0
M  V30 35 H 5.0325 -1.43881 1.25528 0
M  V30 36 H 5.23701 -0.473268 2.74697 0
M  V30 END ATOM
M  V30 BEGIN BOND
M  V30 1 1 1 2
M  V30 2 1 2 3
M  V30 3 1 2 4
M  V30 4 2 4 5
M  V30 5 1 5 6
M  V30 6 1 5 7
M  V30 7 2 7 8
M  V30 8 1 8 9
M  V30 9 1 8 10
M  V30 10 1 10 11
M  V30 11 2 11 12
M  V30 12 1 12 13
M  V30 13 2 13 14
M  V30 14 1 14 15
M  V30 15 2 15 16
M  V30 16 1 13 17
M  V30 17 2 17 18
M  V30 18 1 17 19
M  V30 19 1 19 20
M  V30 20 1 10 2
M  V30 21 1 16 11
M  V30 22 1 1 21
M  V30 23 1 1 22
M  V30 24 1 1 23
M  V30 25 1 3 24
M  V30 26 1 3 25
M  V30 27 1 3 26
M  V30 28 1 6 27
M  V30 29 1 6 28
M  V30 30 1 9 29
M  V30 31 1 9 30
M  V30 32 1 12 31
M  V30 33 1 14 32
M  V30 34 1 15 33
M  V30 35 1 16 34
M  V30 36 1 19 35
M  V30 37 1 19 36
M  V30 END BOND
M  V30 END CTAB
M  END
