
     RDKit          3D

  0  0  0  0  0  0  0  0  0  0999 V3000
M  V30 BEGIN CTAB
M  V30 COUNTS 25 25 0 0 0
M  V30 BEGIN ATOM
M  V30 1 C -2.19628 -1.19983 -0.0342844 0
M  V30 2 C -0.871345 -0.516078 -0.00413619 0
M  V30 3 C 0.310703 -1.2181 0.0991147 0
M  V30 4 C 0.304532 -2.69319 0.18457 0
M  V30 5 C 1.50533 -0.529381 0.122142 0
M  V30 6 N 2.69793 -1.26589 0.227951 0
M  V30 7 C 1.53673 0.86259 0.0428409 0
M  V30 8 Br 3.19722 1.78843 0.0766641 0
M  V30 9 C 0.356353 1.55853 -0.0599724 0
M  V30 10 C 0.34391 3.04822 -0.147281 0
M  V30 11 C -0.845022 0.880795 -0.083994 0
M  V30 12 N -2.04285 1.62219 -0.190368 0
M  V30 13 H -2.6435 -0.994702 -1.02032 0
M  V30 14 H -2.04747 -2.28664 0.0485496 0
M  V30 15 H -2.80731 -0.763826 0.776731 0
M  V30 16 H -0.241056 -3.07486 1.07589 0
M  V30 17 H -0.247438 -3.08891 -0.716523 0
M  V30 18 H 1.30896 -3.11833 0.135472 0
M  V30 19 H 3.52846 -1.13939 -0.414545 0
M  V30 20 H 2.82404 -2.00392 0.978524 0
M  V30 21 H 1.37557 3.42992 -0.332547 0
M  V30 22 H -0.245319 3.38439 -1.04995 0
M  V30 23 H -0.13768 3.52156 0.714283 0
M  V30 24 H -2.41261 2.09127 0.665778 0
M  V30 25 H -2.55186 1.70513 -1.09459 0
M  V30 END ATOM
M  V30 BEGIN BOND
M  V30 1 1 1 2
M  V30 2 2 2 3
M  V30 3 1 3 4
M  V30 4 1 3 5
M  V30 5 1 5 6
M  V30 6 2 5 7
M  V30 7 1 7 8
M  V30 8 1 7 9
M  V30 9 1 9 10
M  V30 10 2 9 11
M  V30 11 1 11 12
M  V30 12 1 11 2
M  V30 13 1 1 13
M  V30 14 1 1 14
M  V30 15 1 1 15
M  V30 16 1 4 16
M  V30 17 1 4 17
M  V30 18 1 4 18
M  V30 19 1 6 19
M  V30 20 1 6 20
M  V30 21 1 10 21
M  V30 22 1 10 22
M  V30 23 1 10 23
M  V30 24 1 12 24
M  V30 25 1 12 25
M  V30 END BOND
M  V30 END CTAB
M  END
