
     RDKit          3D

  0  0  0  0  0  0  0  0  0  0999 V3000
M  V30 BEGIN CTAB
M  V30 COUNTS 47 51 0 0 0
M  V30 BEGIN ATOM
M  V30 1 N -3.69708 -4.04774 0.913155 0
M  V30 2 C -2.78239 -2.99474 0.69221 0
M  V30 3 C -1.48792 -3.04156 1.18051 0
M  V30 4 C -0.608225 -2.00473 0.955093 0
M  V30 5 C -0.968041 -0.885061 0.242086 0
M  V30 6 C -2.24923 -0.813628 -0.254021 0
M  V30 7 C -3.118 -1.85227 -0.0236035 0
M  V30 8 C -0.0273022 0.253129 -0.0242319 0
M  V30 9 C -0.439365 0.989457 -1.23693 0
M  V30 10 C -0.773818 2.29647 -0.934465 0
M  V30 11 C -1.18907 3.20549 -1.88759 0
M  V30 12 C -1.27176 2.78333 -3.19869 0
M  V30 13 C -0.94346 1.47838 -3.53458 0
M  V30 14 C -0.533543 0.59132 -2.57566 0
M  V30 15 C -0.595302 2.42812 0.504687 0
M  V30 16 C -0.17119 1.25826 1.06102 0
M  V30 17 C 0.0552269 1.15005 2.44794 0
M  V30 18 C -0.141472 2.21564 3.29034 0
M  V30 19 C -0.570075 3.39611 2.72025 0
M  V30 20 C -0.795603 3.51593 1.36537 0
M  V30 21 C 1.35638 -0.266912 -0.139952 0
M  V30 22 C 1.64174 -1.40509 -0.852931 0
M  V30 23 C 2.94989 -1.88288 -0.970793 0
M  V30 24 C 3.9803 -1.21554 -0.369675 0
M  V30 25 N 5.33389 -1.70516 -0.486759 0
M  V30 26 C 3.70585 -0.074856 0.346622 0
M  V30 27 C 2.39894 0.389815 0.455762 0
M  V30 28 H -4.02785 -4.23611 1.87031 0
M  V30 29 H -4.03456 -4.62592 0.131975 0
M  V30 30 H -1.19461 -3.93148 1.74954 0
M  V30 31 H 0.382276 -2.10057 1.36611 0
M  V30 32 H -2.58824 0.064872 -0.833546 0
M  V30 33 H -4.11929 -1.75204 -0.43465 0
M  V30 34 H -1.43772 4.20991 -1.60034 0
M  V30 35 H -1.59678 3.49362 -3.94714 0
M  V30 36 H -1.0212 1.18881 -4.56404 0
M  V30 37 H -0.271309 -0.425989 -2.79205 0
M  V30 38 H 0.387984 0.20079 2.82289 0
M  V30 39 H 0.0354656 2.12276 4.35638 0
M  V30 40 H -0.73007 4.24633 3.37151 0
M  V30 41 H -1.13352 4.44375 0.910051 0
M  V30 42 H 0.820279 -1.92805 -1.32002 0
M  V30 43 H 3.1221 -2.79378 -1.55049 0
M  V30 44 H 5.79648 -1.52845 -1.40494 0
M  V30 45 H 5.79187 -2.19855 0.309861 0
M  V30 46 H 4.49995 0.475843 0.83393 0
M  V30 47 H 2.25937 1.3129 1.03949 0
M  V30 END ATOM
M  V30 BEGIN BOND
M  V30 1 1 1 2
M  V30 2 2 2 3
M  V30 3 1 3 4
M  V30 4 2 4 5
M  V30 5 1 5 6
M  V30 6 2 6 7
M  V30 7 1 5 8
M  V30 8 1 8 9
M  V30 9 1 9 10
M  V30 10 2 10 11
M  V30 11 1 11 12
M  V30 12 2 12 13
M  V30 13 1 13 14
M  V30 14 1 10 15
M  V30 15 2 15 16
M  V30 16 1 16 17
M  V30 17 2 17 18
M  V30 18 1 18 19
M  V30 19 2 19 20
M  V30 20 1 8 21
M  V30 21 2 21 22
M  V30 22 1 22 23
M  V30 23 2 23 24
M  V30 24 1 24 25
M  V30 25 1 24 26
M  V30 26 2 26 27
M  V30 27 1 7 2
M  V30 28 1 16 8
M  V30 29 1 27 21
M  V30 30 2 14 9
M  V30 31 1 20 15
M  V30 32 1 1 28
M  V30 33 1 1 29
M  V30 34 1 3 30
M  V30 35 1 4 31
M  V30 36 1 6 32
M  V30 37 1 7 33
M  V30 38 1 11 34
M  V30 39 1 12 35
M  V30 40 1 13 36
M  V30 41 1 14 37
M  V30 42 1 17 38
M  V30 43 1 18 39
M  V30 44 1 19 40
M  V30 45 1 20 41
M  V30 46 1 22 42
M  V30 47 1 23 43
M  V30 48 1 25 44
M  V30 49 1 25 45
M  V30 50 1 26 46
M  V30 51 1 27 47
M  V30 END BOND
M  V30 END CTAB
M  END
