
     RDKit          3D

  0  0  0  0  0  0  0  0  0  0999 V3000
M  V30 BEGIN CTAB
M  V30 COUNTS 19 18 0 0 0
M  V30 BEGIN ATOM
M  V30 1 N 2.53625 0.653245 -0.525348 0
M  V30 2 C 1.10568 0.895724 -0.509312 0
M  V30 3 C 0.358225 -0.342634 -0.122925 0
M  V30 4 C 0.767395 -0.823053 1.26876 0
M  V30 5 F 0.490797 0.175212 2.20431 0
M  V30 6 F 2.10608 -1.1665 1.29396 0
M  V30 7 F 0.0618519 -1.96048 1.61126 0
M  V30 8 C -1.10626 -0.168707 -0.187778 0
M  V30 9 N -1.63603 0.954892 -0.546725 0
M  V30 10 O -2.99569 1.13709 -0.613479 0
M  V30 11 N -1.97513 -1.22522 0.140527 0
M  V30 12 H 3.04679 1.44712 -0.934446 0
M  V30 13 H 2.75617 -0.245534 -0.976049 0
M  V30 14 H 0.909618 1.74777 0.18161 0
M  V30 15 H 0.814315 1.18473 -1.52764 0
M  V30 16 H 0.660063 -1.14665 -0.828622 0
M  V30 17 H -3.31807 2.10154 -0.448287 0
M  V30 18 H -2.29716 -1.34074 1.10787 0
M  V30 19 H -2.2849 -1.87781 -0.5877 0
M  V30 END ATOM
M  V30 BEGIN BOND
M  V30 1 1 1 2
M  V30 2 1 2 3
M  V30 3 1 3 4
M  V30 4 1 4 5
M  V30 5 1 4 6
M  V30 6 1 4 7
M  V30 7 1 3 8
M  V30 8 2 8 9 CFG=2
M  V30 9 1 9 10
M  V30 10 1 8 11
M  V30 11 1 1 12
M  V30 12 1 1 13
M  V30 13 1 2 14
M  V30 14 1 2 15
M  V30 15 1 3 16
M  V30 16 1 10 17
M  V30 17 1 11 18
M  V30 18 1 11 19
M  V30 END BOND
M  V30 END CTAB
M  END
