
     RDKit          3D

  0  0  0  0  0  0  0  0  0  0999 V3000
M  V30 BEGIN CTAB
M  V30 COUNTS 49 51 0 0 0
M  V30 BEGIN ATOM
M  V30 1 N -6.54685 2.45848 -1.41292 0
M  V30 2 C -5.71056 1.86272 -0.451981 0
M  V30 3 C -4.46823 2.37855 -0.188085 0
M  V30 4 C -3.66236 1.77554 0.761927 0
M  V30 5 C -4.104 0.643311 1.45627 0
M  V30 6 C -5.35078 0.136053 1.18277 0
M  V30 7 C -6.13024 0.752486 0.236327 0
M  V30 8 S -3.06651 -0.0706617 2.63081 0
M  V30 9 O -1.9422 0.900212 2.97613 0
M  V30 10 O -3.81835 -0.290165 3.93914 0
M  V30 11 N -2.38404 -1.53657 2.09179 0
M  V30 12 C -1.55473 -1.6223 0.972605 0
M  V30 13 C -1.89404 -1.241 -0.295082 0
M  V30 14 C -0.999055 -1.40231 -1.36526 0
M  V30 15 C 0.252274 -1.94812 -1.19361 0
M  V30 16 C 0.581881 -2.3294 0.0883196 0
M  V30 17 C -0.279566 -2.17935 1.14844 0
M  V30 18 S 1.3624 -2.14302 -2.54762 0
M  V30 19 O 0.564958 -2.38563 -3.82632 0
M  V30 20 O 2.16936 -3.37202 -2.30742 0
M  V30 21 N 2.34342 -0.748071 -2.73338 0
M  V30 22 C 3.21388 -0.340194 -1.70471 0
M  V30 23 C 3.23175 1.01184 -1.36086 0
M  V30 24 C 4.06959 1.46121 -0.353794 0
M  V30 25 C 4.90453 0.565223 0.327069 0
M  V30 26 C 4.88752 -0.768239 -0.0114718 0
M  V30 27 C 4.03862 -1.18735 -1.02318 0
M  V30 28 S 5.97483 1.09642 1.60341 0
M  V30 29 N 7.51697 1.5451 0.971529 0
M  V30 30 O 6.1056 0.0607632 2.68088 0
M  V30 31 O 5.39251 2.33154 2.27107 0
M  V30 32 H -6.91463 1.93832 -2.22192 0
M  V30 33 H -6.80611 3.46029 -1.30719 0
M  V30 34 H -4.12173 3.25467 -0.722699 0
M  V30 35 H -2.69685 2.20062 0.946916 0
M  V30 36 H -5.69453 -0.753216 1.72986 0
M  V30 37 H -7.11795 0.304955 0.0575902 0
M  V30 38 H -2.61924 -2.41936 2.65693 0
M  V30 39 H -2.87246 -0.829027 -0.492818 0
M  V30 40 H -1.30337 -1.08722 -2.3566 0
M  V30 41 H 1.58145 -2.76262 0.208359 0
M  V30 42 H 0.00312452 -2.48643 2.14421 0
M  V30 43 H 2.28189 -0.21171 -3.61872 0
M  V30 44 H 2.60677 1.74168 -1.85632 0
M  V30 45 H 4.11808 2.50506 -0.0510903 0
M  V30 46 H 5.53832 -1.43472 0.526872 0
M  V30 47 H 4.05895 -2.2399 -1.25688 0
M  V30 48 H 7.71502 2.56112 1.08906 0
M  V30 49 H 7.54466 1.28012 -0.0383328 0
M  V30 END ATOM
M  V30 BEGIN BOND
M  V30 1 1 1 2
M  V30 2 2 2 3
M  V30 3 1 3 4
M  V30 4 2 4 5
M  V30 5 1 5 6
M  V30 6 2 6 7
M  V30 7 1 5 8
M  V30 8 2 8 9
M  V30 9 2 8 10
M  V30 10 1 8 11
M  V30 11 1 11 12
M  V30 12 2 12 13
M  V30 13 1 13 14
M  V30 14 2 14 15
M  V30 15 1 15 16
M  V30 16 2 16 17
M  V30 17 1 15 18
M  V30 18 2 18 19
M  V30 19 2 18 20
M  V30 20 1 18 21
M  V30 21 1 21 22
M  V30 22 2 22 23
M  V30 23 1 23 24
M  V30 24 2 24 25
M  V30 25 1 25 26
M  V30 26 2 26 27
M  V30 27 1 25 28
M  V30 28 1 28 29
M  V30 29 2 28 30
M  V30 30 2 28 31
M  V30 31 1 7 2
M  V30 32 1 17 12
M  V30 33 1 27 22
M  V30 34 1 1 32
M  V30 35 1 1 33
M  V30 36 1 3 34
M  V30 37 1 4 35
M  V30 38 1 6 36
M  V30 39 1 7 37
M  V30 40 1 11 38
M  V30 41 1 13 39
M  V30 42 1 14 40
M  V30 43 1 16 41
M  V30 44 1 17 42
M  V30 45 1 21 43
M  V30 46 1 23 44
M  V30 47 1 24 45
M  V30 48 1 26 46
M  V30 49 1 27 47
M  V30 50 1 29 48
M  V30 51 1 29 49
M  V30 END BOND
M  V30 END CTAB
M  END
