
     RDKit          3D

  0  0  0  0  0  0  0  0  0  0999 V3000
M  V30 BEGIN CTAB
M  V30 COUNTS 28 28 0 0 0
M  V30 BEGIN ATOM
M  V30 1 C -2.80096 1.42911 -0.416098 0
M  V30 2 C -2.40317 0.238259 0.398307 0 CFG=2
M  V30 3 C -1.08061 -0.37196 -0.0428458 0
M  V30 4 C -0.0590105 0.701967 -0.0198877 0
M  V30 5 C 1.30358 0.330399 -0.41478 0
M  V30 6 C 1.77238 0.563523 -1.71568 0
M  V30 7 N 3.01374 0.201929 -2.08402 0
M  V30 8 C 3.86505 -0.395283 -1.2391 0
M  V30 9 C 3.42007 -0.629352 0.0372659 0
M  V30 10 C 2.13944 -0.275978 0.480703 0
M  V30 11 N 1.82519 -0.557719 1.83612 0
M  V30 12 O -0.745228 -1.42027 0.790073 0
M  V30 13 N -3.40497 -0.822817 0.318276 0
M  V30 14 H -2.24017 2.30872 -0.0512782 0
M  V30 15 H -2.72013 1.3004 -1.49997 0
M  V30 16 H -3.87538 1.63144 -0.183589 0
M  V30 17 H -2.33767 0.558571 1.4578 0
M  V30 18 H -1.17538 -0.721456 -1.11389 0
M  V30 19 H 0.0269269 1.04894 1.05639 0
M  V30 20 H -0.393994 1.6246 -0.568553 0
M  V30 21 H 1.15335 1.03952 -2.46046 0
M  V30 22 H 4.86806 -0.684985 -1.54598 0
M  V30 23 H 4.0915 -1.10958 0.73281 0
M  V30 24 H 1.95485 -1.53988 2.19147 0
M  V30 25 H 1.47379 0.203141 2.45535 0
M  V30 26 H -0.555166 -2.21418 0.225501 0
M  V30 27 H -2.9504 -1.75425 0.362297 0
M  V30 28 H -4.16572 -0.682784 1.01378 0
M  V30 END ATOM
M  V30 BEGIN BOND
M  V30 1 1 1 2
M  V30 2 1 2 3
M  V30 3 1 3 4
M  V30 4 1 4 5
M  V30 5 2 5 6
M  V30 6 1 6 7
M  V30 7 2 7 8
M  V30 8 1 8 9
M  V30 9 2 9 10
M  V30 10 1 10 11
M  V30 11 1 3 12
M  V30 12 1 2 13
M  V30 13 1 10 5
M  V30 14 1 1 14
M  V30 15 1 1 15
M  V30 16 1 1 16
M  V30 17 1 2 17 CFG=1
M  V30 18 1 3 18
M  V30 19 1 4 19
M  V30 20 1 4 20
M  V30 21 1 6 21
M  V30 22 1 8 22
M  V30 23 1 9 23
M  V30 24 1 11 24
M  V30 25 1 11 25
M  V30 26 1 12 26
M  V30 27 1 13 27
M  V30 28 1 13 28
M  V30 END BOND
M  V30 END CTAB
M  END
