
     RDKit          3D

  0  0  0  0  0  0  0  0  0  0999 V3000
M  V30 BEGIN CTAB
M  V30 COUNTS 30 30 0 0 0
M  V30 BEGIN ATOM
M  V30 1 N 4.63031 0.470922 -0.193082 0
M  V30 2 C 3.2649 0.119659 0.161808 0
M  V30 3 C 2.54077 -0.512294 -1.00256 0
M  V30 4 N 1.20339 -0.853818 -0.624412 0
M  V30 5 C 0.262524 0.112832 -0.208099 0
M  V30 6 O 0.52688 1.346 -0.14207 0
M  V30 7 C -1.11908 -0.275995 0.183469 0
M  V30 8 C -1.15492 -1.21534 1.34418 0
M  V30 9 C -1.85772 -0.925469 -0.975003 0
M  V30 10 O -3.18459 -0.751164 -0.675113 0
M  V30 11 C -3.34917 0.388339 0.0530792 0
M  V30 12 C -1.98447 0.946745 0.382999 0
M  V30 13 N -1.89802 1.49579 1.70496 0
M  V30 14 H 4.9643 1.25805 0.374444 0
M  V30 15 H 4.79383 0.538172 -1.20178 0
M  V30 16 H 3.31002 -0.572523 1.03233 0
M  V30 17 H 2.80922 1.04914 0.539122 0
M  V30 18 H 2.55464 0.156172 -1.89179 0
M  V30 19 H 3.10302 -1.42291 -1.33482 0
M  V30 20 H 0.909324 -1.84968 -0.655882 0
M  V30 21 H -0.238839 -1.19888 1.95753 0
M  V30 22 H -2.00226 -0.979659 2.05304 0
M  V30 23 H -1.34292 -2.25116 0.990026 0
M  V30 24 H -1.63599 -0.331431 -1.88744 0
M  V30 25 H -1.55711 -1.96098 -1.13378 0
M  V30 26 H -3.82593 0.146768 1.04836 0
M  V30 27 H -4.01729 1.14293 -0.4098 0
M  V30 28 H -1.70973 1.67052 -0.41092 0
M  V30 29 H -2.80776 1.98461 1.95892 0
M  V30 30 H -1.18733 2.27467 1.68962 0
M  V30 END ATOM
M  V30 BEGIN BOND
M  V30 1 1 1 2
M  V30 2 1 2 3
M  V30 3 1 3 4
M  V30 4 1 4 5
M  V30 5 2 5 6
M  V30 6 1 5 7
M  V30 7 1 7 8
M  V30 8 1 7 9
M  V30 9 1 9 10
M  V30 10 1 10 11
M  V30 11 1 11 12
M  V30 12 1 12 13
M  V30 13 1 12 7
M  V30 14 1 1 14
M  V30 15 1 1 15
M  V30 16 1 2 16
M  V30 17 1 2 17
M  V30 18 1 3 18
M  V30 19 1 3 19
M  V30 20 1 4 20
M  V30 21 1 8 21
M  V30 22 1 8 22
M  V30 23 1 8 23
M  V30 24 1 9 24
M  V30 25 1 9 25
M  V30 26 1 11 26
M  V30 27 1 11 27
M  V30 28 1 12 28
M  V30 29 1 13 29
M  V30 30 1 13 30
M  V30 END BOND
M  V30 END CTAB
M  END
