
     RDKit          3D

  0  0  0  0  0  0  0  0  0  0999 V3000
M  V30 BEGIN CTAB
M  V30 COUNTS 34 36 0 0 0
M  V30 BEGIN ATOM
M  V30 1 C 4.11422 -1.71829 -0.368592 0
M  V30 2 C 2.92429 -0.863757 -0.262715 0
M  V30 3 C 3.1102 0.455543 -0.100881 0
M  V30 4 N 4.40096 1.00335 -0.0346511 0
M  V30 5 C 1.94292 1.33464 0.00799753 0
M  V30 6 O 2.07151 2.58669 0.161609 0
M  V30 7 C 0.585149 0.823464 -0.0536584 0
M  V30 8 C 0.400784 -0.541662 -0.221115 0
M  V30 9 N -0.927195 -0.760128 -0.24684 0
M  V30 10 C -1.88186 -1.8456 -0.379405 0
M  V30 11 C -3.08176 -1.28516 0.367986 0 CFG=2
M  V30 12 N -4.30646 -1.94221 0.0323864 0
M  V30 13 C -3.0547 0.165365 -0.131355 0
M  V30 14 C -1.56914 0.413373 -0.102219 0
M  V30 15 C -0.650798 1.43175 0.0220516 0
M  V30 16 C -0.951402 2.85842 0.197441 0
M  V30 17 O -2.3246 3.05731 0.223012 0
M  V30 18 C 1.57874 -1.41349 -0.329117 0
M  V30 19 O 1.43951 -2.65376 -0.481289 0
M  V30 20 H 3.81213 -2.76798 -0.210868 0
M  V30 21 H 4.57353 -1.60553 -1.36493 0
M  V30 22 H 4.8656 -1.4007 0.38968 0
M  V30 23 H 5.2184 0.492623 -0.470009 0
M  V30 24 H 4.54941 1.90565 0.440074 0
M  V30 25 H -2.15724 -1.93267 -1.47107 0
M  V30 26 H -1.529 -2.79405 0.030578 0
M  V30 27 H -2.86501 -1.3053 1.454 0
M  V30 28 H -4.89362 -1.96617 0.915334 0
M  V30 29 H -4.80329 -1.44715 -0.727815 0
M  V30 30 H -3.38739 0.148313 -1.17638 0
M  V30 31 H -3.59465 0.842803 0.527947 0
M  V30 32 H -0.517394 3.49889 -0.596269 0
M  V30 33 H -0.55008 3.24809 1.15936 0
M  V30 34 H -2.54177 3.97733 -0.0437639 0
M  V30 END ATOM
M  V30 BEGIN BOND
M  V30 1 1 1 2
M  V30 2 2 2 3
M  V30 3 1 3 4
M  V30 4 1 3 5
M  V30 5 2 5 6
M  V30 6 1 5 7
M  V30 7 2 7 8
M  V30 8 1 8 9
M  V30 9 1 9 10
M  V30 10 1 10 11
M  V30 11 1 11 12
M  V30 12 1 11 13
M  V30 13 1 13 14
M  V30 14 2 14 15
M  V30 15 1 15 16
M  V30 16 1 16 17
M  V30 17 1 8 18
M  V30 18 2 18 19
M  V30 19 1 18 2
M  V30 20 1 15 7
M  V30 21 1 14 9
M  V30 22 1 1 20
M  V30 23 1 1 21
M  V30 24 1 1 22
M  V30 25 1 4 23
M  V30 26 1 4 24
M  V30 27 1 10 25
M  V30 28 1 10 26
M  V30 29 1 11 27 CFG=1
M  V30 30 1 12 28
M  V30 31 1 12 29
M  V30 32 1 13 30
M  V30 33 1 13 31
M  V30 34 1 16 32
M  V30 35 1 16 33
M  V30 36 1 17 34
M  V30 END BOND
M  V30 END CTAB
M  END
