
     RDKit          3D

  0  0  0  0  0  0  0  0  0  0999 V3000
M  V30 BEGIN CTAB
M  V30 COUNTS 23 24 0 0 0
M  V30 BEGIN ATOM
M  V30 1 N -3.27272 1.53346 0.532093 0
M  V30 2 C -3.46568 0.1457 0.894585 0
M  V30 3 C -2.35481 -0.637532 0.234431 0
M  V30 4 S -2.031 -2.31324 0.278698 0
M  V30 5 C -0.636899 -2.33373 -0.707182 0
M  V30 6 C -0.502353 -1.00371 -1.02016 0
M  V30 7 N -1.37666 -0.184243 -0.53376 0
M  V30 8 C 0.645404 -0.560679 -1.90884 0
M  V30 9 C 1.85045 -0.24534 -1.09921 0
M  V30 10 O 2.80134 -1.09383 -0.764731 0
M  V30 11 N 3.7124 -0.531951 -0.0628989 0
M  V30 12 C 3.39934 0.7659 0.109498 0
M  V30 13 N 2.22643 0.92443 -0.549423 0
M  V30 14 N 4.14658 1.75228 0.830908 0
M  V30 15 H -3.7358 1.78461 -0.361078 0
M  V30 16 H -3.62677 2.15685 1.3189 0
M  V30 17 H -4.45528 -0.215273 0.540066 0
M  V30 18 H -3.3635 -0.00743641 1.98091 0
M  V30 19 H -0.0027305 -3.18159 -1.01851 0
M  V30 20 H 0.870273 -1.3522 -2.64726 0
M  V30 21 H 0.316984 0.340539 -2.50171 0
M  V30 22 H 4.3224 2.69613 0.423245 0
M  V30 23 H 4.53261 1.56085 1.77227 0
M  V30 END ATOM
M  V30 BEGIN BOND
M  V30 1 1 1 2
M  V30 2 1 2 3
M  V30 3 1 3 4
M  V30 4 1 4 5
M  V30 5 2 5 6
M  V30 6 1 6 7
M  V30 7 1 6 8
M  V30 8 1 8 9
M  V30 9 1 9 10
M  V30 10 1 10 11
M  V30 11 2 11 12
M  V30 12 1 12 13
M  V30 13 1 12 14
M  V30 14 2 7 3
M  V30 15 2 13 9
M  V30 16 1 1 15
M  V30 17 1 1 16
M  V30 18 1 2 17
M  V30 19 1 2 18
M  V30 20 1 5 19
M  V30 21 1 8 20
M  V30 22 1 8 21
M  V30 23 1 14 22
M  V30 24 1 14 23
M  V30 END BOND
M  V30 END CTAB
M  END
