
     RDKit          3D

  0  0  0  0  0  0  0  0  0  0999 V3000
M  V30 BEGIN CTAB
M  V30 COUNTS 43 46 0 0 0
M  V30 BEGIN ATOM
M  V30 1 N -2.57241 4.14094 -0.183347 0
M  V30 2 N -2.28447 3.37387 0.838033 0
M  V30 3 C -1.96691 2.6204 1.94016 0
M  V30 4 O -1.66218 2.14245 2.91925 0
M  V30 5 C -2.33342 1.17967 1.2252 0
M  V30 6 N -3.50508 0.81192 1.75295 0
M  V30 7 N -3.89846 -0.263278 1.18057 0
M  V30 8 N -2.93087 -0.618322 0.257282 0
M  V30 9 C -1.96628 0.379771 0.302768 0
M  V30 10 C -0.897877 0.550019 -0.684691 0
M  V30 11 N 0.298664 -0.184225 -0.553087 0
M  V30 12 C 0.677824 -0.230791 0.880281 0
M  V30 13 C 1.76295 -1.28387 0.963035 0
M  V30 14 C 2.98877 -0.800697 0.208029 0
M  V30 15 C 2.65926 -0.0149708 -0.874783 0
M  V30 16 C 1.36551 0.588979 -1.20028 0
M  V30 17 C 3.769 0.475044 -1.63321 0
M  V30 18 C 5.0858 0.198423 -1.21211 0
M  V30 19 C 5.17944 -0.634339 -0.0688244 0
M  V30 20 C 4.1681 -1.02453 0.435446 0
M  V30 21 C -3.20841 -1.73788 -0.572921 0
M  V30 22 N -4.17507 -1.97453 -1.44948 0
M  V30 23 O -4.16722 -3.1357 -1.8411 0
M  V30 24 N -3.2674 -3.74706 -1.28779 0
M  V30 25 C -2.56566 -2.93312 -0.44107 0
M  V30 26 N -1.52271 -3.42693 0.34662 0
M  V30 27 H -1.99333 4.46418 -0.879492 0
M  V30 28 H -3.66648 4.25883 -0.319653 0
M  V30 29 H -2.05153 4.44234 1.7002 0
M  V30 30 H -0.778152 1.57216 -0.995211 0
M  V30 31 H -1.32912 0.0733448 -1.6961 0
M  V30 32 H -0.203311 -0.65744 1.46689 0
M  V30 33 H 0.953775 0.740615 1.29797 0
M  V30 34 H 2.06955 -1.47349 2.01176 0
M  V30 35 H 1.39749 -2.16125 0.418576 0
M  V30 36 H 1.44503 1.65164 -0.773206 0
M  V30 37 H 1.15552 0.641034 -2.24979 0
M  V30 38 H 3.63906 1.05665 -2.51509 0
M  V30 39 H 5.92084 0.54016 -1.75631 0
M  V30 40 H 6.28092 -0.629828 0.309639 0
M  V30 41 H 4.36571 -1.78812 1.39063 0
M  V30 42 H -1.61603 -3.51632 1.39811 0
M  V30 43 H -0.620854 -3.66574 -0.0558448 0
M  V30 END ATOM
M  V30 BEGIN BOND
M  V30 1 1 1 2
M  V30 2 1 2 3
M  V30 3 2 3 4
M  V30 4 1 3 5
M  V30 5 1 5 6
M  V30 6 2 6 7
M  V30 7 1 7 8
M  V30 8 1 8 9
M  V30 9 1 9 10
M  V30 10 1 10 11
M  V30 11 1 11 12
M  V30 12 1 12 13
M  V30 13 1 13 14
M  V30 14 2 14 15
M  V30 15 1 15 16
M  V30 16 1 15 17
M  V30 17 2 17 18
M  V30 18 1 18 19
M  V30 19 2 19 20
M  V30 20 1 8 21
M  V30 21 2 21 22
M  V30 22 1 22 23
M  V30 23 1 23 24
M  V30 24 2 24 25
M  V30 25 1 25 26
M  V30 26 2 9 5
M  V30 27 1 16 11
M  V30 28 1 25 21
M  V30 29 1 20 14
M  V30 30 1 1 27
M  V30 31 1 1 28
M  V30 32 1 2 29
M  V30 33 1 10 30
M  V30 34 1 10 31
M  V30 35 1 12 32
M  V30 36 1 12 33
M  V30 37 1 13 34
M  V30 38 1 13 35
M  V30 39 1 16 36
M  V30 40 1 16 37
M  V30 41 1 17 38
M  V30 42 1 18 39
M  V30 43 1 19 40
M  V30 44 1 20 41
M  V30 45 1 26 42
M  V30 46 1 26 43
M  V30 END BOND
M  V30 END CTAB
M  END
