
     RDKit          3D

  0  0  0  0  0  0  0  0  0  0999 V3000
M  V30 BEGIN CTAB
M  V30 COUNTS 58 61 0 0 0
M  V30 BEGIN ATOM
M  V30 1 O -2.47075 -0.702252 -1.07613 0
M  V30 2 C -2.46539 -1.45296 0.0489149 0
M  V30 3 C -3.79991 -1.63119 0.548045 0
M  V30 4 N -4.31784 -2.26821 1.60419 0
M  V30 5 N -5.66373 -2.10136 1.59439 0
M  V30 6 N -6.06139 -1.42127 0.637456 0
M  V30 7 C -4.93366 -1.08229 -0.0792536 0
M  V30 8 N -4.94714 -0.313989 -1.25133 0
M  V30 9 C -7.30709 -0.928827 0.157192 0
M  V30 10 C -8.06228 -1.63241 -0.746362 0
M  V30 11 C -9.18359 -1.08193 -1.3529 0
M  V30 12 C -9.55856 0.19451 -1.05006 0
M  V30 13 C -8.83236 0.939993 -0.141289 0
M  V30 14 C -7.72229 0.368943 0.447032 0
M  V30 15 C -9.25327 2.33701 0.136003 0
M  V30 16 F -8.52019 2.80179 1.20764 0
M  V30 17 F -10.5704 2.46112 0.350042 0
M  V30 18 F -8.86445 3.14384 -0.941813 0
M  V30 19 N -1.18573 -1.84125 0.404347 0
M  V30 20 C -0.0934985 -1.3022 -0.53207 0
M  V30 21 C -0.0576572 0.184176 -0.293994 0
M  V30 22 N 0.928142 0.468566 0.800061 0
M  V30 23 C 2.27293 0.266697 0.436783 0
M  V30 24 O 2.44927 -0.145419 -0.795054 0
M  V30 25 C 3.48112 0.453957 1.18252 0
M  V30 26 N 3.73973 0.746428 2.47477 0
M  V30 27 N 5.05544 0.817072 2.66376 0
M  V30 28 N 5.71325 0.590452 1.55495 0
M  V30 29 C 4.77517 0.358113 0.622843 0
M  V30 30 N 4.98783 0.0528131 -0.746778 0
M  V30 31 C 7.1369 0.672022 1.29327 0
M  V30 32 C 7.90599 1.51737 2.06988 0
M  V30 33 C 9.25599 1.73279 1.77894 0
M  V30 34 C 9.83291 1.09469 0.698192 0
M  V30 35 C 9.07554 0.251687 -0.0796139 0
M  V30 36 C 7.71134 0.0420044 0.23031 0
M  V30 37 C 9.7071 -0.405638 -1.24784 0
M  V30 38 F 10.2028 0.582295 -2.11129 0
M  V30 39 F 10.7934 -1.12009 -0.829951 0
M  V30 40 F 8.80838 -1.17955 -1.93244 0
M  V30 41 H -5.25024 0.700273 -1.18281 0
M  V30 42 H -4.68562 -0.665433 -2.19727 0
M  V30 43 H -7.72919 -2.64481 -0.967299 0
M  V30 44 H -9.76153 -1.65284 -2.0586 0
M  V30 45 H -10.4451 0.646479 -1.53394 0
M  V30 46 H -7.1459 0.946651 1.1537 0
M  V30 47 H -0.904885 -2.41474 1.16976 0
M  V30 48 H 0.821102 -1.7728 -0.212232 0
M  V30 49 H -0.332133 -1.5651 -1.55582 0
M  V30 50 H -0.996992 0.659189 -0.0138259 0
M  V30 51 H 0.367752 0.681356 -1.17731 0
M  V30 52 H 0.657618 0.782332 1.73025 0
M  V30 53 H 5.33396 0.760989 -1.39079 0
M  V30 54 H 4.7617 -0.930836 -1.04561 0
M  V30 55 H 7.40073 2.0001 2.90058 0
M  V30 56 H 9.84389 2.41019 2.39945 0
M  V30 57 H 10.8906 1.24795 0.458806 0
M  V30 58 H 7.2122 -0.656435 -0.410689 0
M  V30 END ATOM
M  V30 BEGIN BOND
M  V30 1 2 1 2
M  V30 2 1 2 3
M  V30 3 1 3 4
M  V30 4 2 4 5
M  V30 5 1 5 6
M  V30 6 1 6 7
M  V30 7 1 7 8
M  V30 8 1 6 9
M  V30 9 2 9 10
M  V30 10 1 10 11
M  V30 11 2 11 12
M  V30 12 1 12 13
M  V30 13 2 13 14
M  V30 14 1 13 15
M  V30 15 1 15 16
M  V30 16 1 15 17
M  V30 17 1 15 18
M  V30 18 1 2 19
M  V30 19 1 19 20
M  V30 20 1 20 21
M  V30 21 1 21 22
M  V30 22 1 22 23
M  V30 23 2 23 24
M  V30 24 1 23 25
M  V30 25 1 25 26
M  V30 26 2 26 27
M  V30 27 1 27 28
M  V30 28 1 28 29
M  V30 29 1 29 30
M  V30 30 1 28 31
M  V30 31 2 31 32
M  V30 32 1 32 33
M  V30 33 2 33 34
M  V30 34 1 34 35
M  V30 35 2 35 36
M  V30 36 1 35 37
M  V30 37 1 37 38
M  V30 38 1 37 39
M  V30 39 1 37 40
M  V30 40 2 7 3
M  V30 41 1 14 9
M  V30 42 2 29 25
M  V30 43 1 36 31
M  V30 44 1 8 41
M  V30 45 1 8 42
M  V30 46 1 10 43
M  V30 47 1 11 44
M  V30 48 1 12 45
M  V30 49 1 14 46
M  V30 50 1 19 47
M  V30 51 1 20 48
M  V30 52 1 20 49
M  V30 53 1 21 50
M  V30 54 1 21 51
M  V30 55 1 22 52
M  V30 56 1 30 53
M  V30 57 1 30 54
M  V30 58 1 32 55
M  V30 59 1 33 56
M  V30 60 1 34 57
M  V30 61 1 36 58
M  V30 END BOND
M  V30 END CTAB
M  END
