
     RDKit          3D

  0  0  0  0  0  0  0  0  0  0999 V3000
M  V30 BEGIN CTAB
M  V30 COUNTS 22 23 0 0 0
M  V30 BEGIN ATOM
M  V30 1 F -2.65573 -1.84357 -2.8073 0
M  V30 2 C -2.3314 -1.15211 -1.67768 0
M  V30 3 C -3.28528 -0.696791 -0.799083 0
M  V30 4 C -2.93809 0.0013787 0.339208 0
M  V30 5 C -1.62034 0.265431 0.632761 0
M  V30 6 C -0.651872 -0.184663 -0.238707 0
M  V30 7 C -1.01118 -0.892628 -1.39214 0
M  V30 8 C 0.750744 0.076289 0.0398408 0
M  V30 9 N 1.20547 0.741966 1.1108 0
M  V30 10 N 2.52639 0.811019 1.07495 0
M  V30 11 C 2.95407 0.184726 -0.0313408 0
M  V30 12 N 1.83831 -0.267467 -0.665759 0
M  V30 13 N 4.29765 0.0296423 -0.448057 0
M  V30 14 N -1.28639 0.990143 1.81739 0
M  V30 15 H -4.32223 -0.915093 -1.04783 0
M  V30 16 H -3.69413 0.36059 1.03277 0
M  V30 17 H -0.245263 -1.24275 -2.07148 0
M  V30 18 H 3.171 1.25743 1.75397 0
M  V30 19 H 4.58368 -0.0144276 -1.4589 0
M  V30 20 H 5.03114 -0.0434913 0.285513 0
M  V30 21 H -0.970946 1.98355 1.78911 0
M  V30 22 H -1.34561 0.550822 2.76198 0
M  V30 END ATOM
M  V30 BEGIN BOND
M  V30 1 1 1 2
M  V30 2 2 2 3
M  V30 3 1 3 4
M  V30 4 2 4 5
M  V30 5 1 5 6
M  V30 6 2 6 7
M  V30 7 1 6 8
M  V30 8 2 8 9
M  V30 9 1 9 10
M  V30 10 1 10 11
M  V30 11 2 11 12
M  V30 12 1 11 13
M  V30 13 1 5 14
M  V30 14 1 7 2
M  V30 15 1 12 8
M  V30 16 1 3 15
M  V30 17 1 4 16
M  V30 18 1 7 17
M  V30 19 1 10 18
M  V30 20 1 13 19
M  V30 21 1 13 20
M  V30 22 1 14 21
M  V30 23 1 14 22
M  V30 END BOND
M  V30 END CTAB
M  END
