
     RDKit          3D

  0  0  0  0  0  0  0  0  0  0999 V3000
M  V30 BEGIN CTAB
M  V30 COUNTS 46 47 0 0 0
M  V30 BEGIN ATOM
M  V30 1 N -2.05462 -1.6388 2.15757 0
M  V30 2 C -1.87236 -1.36484 0.718529 0
M  V30 3 C -2.08219 0.133751 0.495445 0
M  V30 4 C -3.54366 0.43205 0.956986 0
M  V30 5 C -4.4476 -0.484486 0.161948 0
M  V30 6 C -4.19141 -0.484516 -1.30591 0
M  V30 7 C -2.77332 -0.511611 -1.73989 0
M  V30 8 C -2.00711 0.543944 -0.906742 0
M  V30 9 N -0.842607 0.899766 -1.56426 0
M  V30 10 C -0.148649 2.04843 -1.22353 0
M  V30 11 C 0.665632 2.17121 0.00117273 0
M  V30 12 C 1.81478 1.21966 0.0907676 0
M  V30 13 C 1.80419 0.0224559 0.746458 0
M  V30 14 C 2.91749 -0.822516 0.756301 0
M  V30 15 C 4.08538 -0.493975 0.106585 0
M  V30 16 C 4.10899 0.712868 -0.557689 0
M  V30 17 C 3.01552 1.54221 -0.567797 0
M  V30 18 S 5.47855 -1.56351 0.110438 0
M  V30 19 O 5.0631 -2.96924 -0.0851972 0
M  V30 20 O 6.41223 -1.19656 -1.03939 0
M  V30 21 N 6.41146 -1.31396 1.54811 0
M  V30 22 H -1.26965 -1.22085 2.69594 0
M  V30 23 H -2.11819 -2.65645 2.31934 0
M  V30 24 H -2.56943 -1.99591 0.161719 0
M  V30 25 H -0.844411 -1.64595 0.465867 0
M  V30 26 H -1.47285 0.627413 1.23989 0
M  V30 27 H -3.72836 1.47236 0.69253 0
M  V30 28 H -3.67597 0.233336 2.0171 0
M  V30 29 H -5.49872 -0.0940112 0.300229 0
M  V30 30 H -4.48535 -1.50605 0.579131 0
M  V30 31 H -4.68872 0.395819 -1.79142 0
M  V30 32 H -4.69518 -1.37791 -1.73863 0
M  V30 33 H -2.24056 -1.45182 -1.69499 0
M  V30 34 H -2.74292 -0.126075 -2.7912 0
M  V30 35 H -2.77694 1.43883 -0.982334 0
M  V30 36 H -0.311178 0.197162 -2.08287 0
M  V30 37 H 0.478177 2.42464 -2.13771 0
M  V30 38 H -0.904804 2.93765 -1.1996 0
M  V30 39 H 1.12413 3.24063 -0.0128562 0
M  V30 40 H 0.0489593 2.21717 0.905689 0
M  V30 41 H 0.913808 -0.254005 1.27902 0
M  V30 42 H 2.89294 -1.76731 1.27967 0
M  V30 43 H 5.029 0.979188 -1.07379 0
M  V30 44 H 3.02884 2.50434 -1.09656 0
M  V30 45 H 6.9816 -0.454323 1.45836 0
M  V30 46 H 5.71199 -1.25334 2.34759 0
M  V30 END ATOM
M  V30 BEGIN BOND
M  V30 1 1 1 2
M  V30 2 1 2 3
M  V30 3 1 3 4
M  V30 4 1 4 5
M  V30 5 1 5 6
M  V30 6 1 6 7
M  V30 7 1 7 8
M  V30 8 1 8 9
M  V30 9 1 9 10
M  V30 10 1 10 11
M  V30 11 1 11 12
M  V30 12 2 12 13
M  V30 13 1 13 14
M  V30 14 2 14 15
M  V30 15 1 15 16
M  V30 16 2 16 17
M  V30 17 1 15 18
M  V30 18 2 18 19
M  V30 19 2 18 20
M  V30 20 1 18 21
M  V30 21 1 8 3
M  V30 22 1 17 12
M  V30 23 1 1 22
M  V30 24 1 1 23
M  V30 25 1 2 24
M  V30 26 1 2 25
M  V30 27 1 3 26
M  V30 28 1 4 27
M  V30 29 1 4 28
M  V30 30 1 5 29
M  V30 31 1 5 30
M  V30 32 1 6 31
M  V30 33 1 6 32
M  V30 34 1 7 33
M  V30 35 1 7 34
M  V30 36 1 8 35
M  V30 37 1 9 36
M  V30 38 1 10 37
M  V30 39 1 10 38
M  V30 40 1 11 39
M  V30 41 1 11 40
M  V30 42 1 13 41
M  V30 43 1 14 42
M  V30 44 1 16 43
M  V30 45 1 17 44
M  V30 46 1 21 45
M  V30 47 1 21 46
M  V30 END BOND
M  V30 END CTAB
M  END
