
     RDKit          3D

  0  0  0  0  0  0  0  0  0  0999 V3000
M  V30 BEGIN CTAB
M  V30 COUNTS 22 22 0 0 0
M  V30 BEGIN ATOM
M  V30 1 N -2.87888 -1.58073 -0.0656342 0
M  V30 2 O -3.34473 -0.409057 -0.53272 0
M  V30 3 C -2.41117 0.105052 -1.41965 0
M  V30 4 C -1.0897 0.326328 -0.729132 0
M  V30 5 N -0.163769 -0.637929 -0.690283 0
M  V30 6 C 0.99262 -0.391896 -0.0652085 0
M  V30 7 N 2.02993 -1.39257 0.0100567 0
M  V30 8 C 3.2412 -1.05794 0.695364 0
M  V30 9 N 1.18782 0.794846 0.495575 0
M  V30 10 C 0.269246 1.76315 0.461692 0
M  V30 11 N -0.905582 1.54199 -0.161899 0
M  V30 12 N 0.579293 2.99872 1.09426 0
M  V30 13 H -3.48416 -1.82171 0.773066 0
M  V30 14 H -2.91736 -2.33524 -0.785525 0
M  V30 15 H -2.74384 1.06672 -1.84122 0
M  V30 16 H -2.24761 -0.663497 -2.1985 0
M  V30 17 H 1.83405 -2.30063 -0.440167 0
M  V30 18 H 3.57998 -0.00723083 0.477647 0
M  V30 19 H 3.03861 -1.08215 1.80402 0
M  V30 20 H 4.06257 -1.76716 0.488416 0
M  V30 21 H 0.337585 3.123 2.09066 0
M  V30 22 H 1.03389 3.72794 0.539179 0
M  V30 END ATOM
M  V30 BEGIN BOND
M  V30 1 1 1 2
M  V30 2 1 2 3
M  V30 3 1 3 4
M  V30 4 2 4 5
M  V30 5 1 5 6
M  V30 6 1 6 7
M  V30 7 1 7 8
M  V30 8 2 6 9
M  V30 9 1 9 10
M  V30 10 2 10 11
M  V30 11 1 10 12
M  V30 12 1 11 4
M  V30 13 1 1 13
M  V30 14 1 1 14
M  V30 15 1 3 15
M  V30 16 1 3 16
M  V30 17 1 7 17
M  V30 18 1 8 18
M  V30 19 1 8 19
M  V30 20 1 8 20
M  V30 21 1 12 21
M  V30 22 1 12 22
M  V30 END BOND
M  V30 END CTAB
M  END
