
     RDKit          3D

  0  0  0  0  0  0  0  0  0  0999 V3000
M  V30 BEGIN CTAB
M  V30 COUNTS 41 41 0 0 0
M  V30 BEGIN ATOM
M  V30 1 N -3.82497 -1.39858 0.901351 0
M  V30 2 C -3.31545 -0.535089 -0.233577 0
M  V30 3 C -4.14751 0.687972 -0.1268 0
M  V30 4 C -3.88527 1.71015 -1.18099 0
M  V30 5 C -5.64917 0.343786 -0.131464 0
M  V30 6 C -1.8498 -0.416073 -0.00574897 0
M  V30 7 C -1.03583 0.369324 -0.958639 0
M  V30 8 N 0.395084 0.314825 -0.597711 0
M  V30 9 C 1.20335 -0.708082 -1.1321 0
M  V30 10 O 0.708081 -1.58575 -1.92414 0
M  V30 11 C 2.61851 -0.783852 -0.791441 0
M  V30 12 C 3.48394 -1.74941 -1.26707 0
M  V30 13 C 4.74017 -1.47957 -0.713849 0
M  V30 14 C 4.55727 -0.361014 0.0671122 0
M  V30 15 O 3.30613 0.016652 -0.00290156 0
M  V30 16 S 5.84528 0.411627 1.00337 0
M  V30 17 O 6.03192 1.83519 0.509254 0
M  V30 18 O 5.48101 0.47166 2.46013 0
M  V30 19 N 7.3239 -0.413323 0.804476 0
M  V30 20 C 0.952763 1.29181 0.285774 0
M  V30 21 H -3.08359 -2.082 1.09505 0
M  V30 22 H -4.71581 -1.83918 0.574124 0
M  V30 23 H -3.56394 -1.11665 -1.13071 0
M  V30 24 H -4.01197 1.12748 0.915244 0
M  V30 25 H -3.3211 2.55264 -0.756476 0
M  V30 26 H -4.84997 2.11059 -1.61079 0
M  V30 27 H -3.32238 1.30292 -2.03827 0
M  V30 28 H -5.90097 -0.192131 0.784507 0
M  V30 29 H -6.15485 1.35055 -0.0495415 0
M  V30 30 H -5.95765 -0.122643 -1.06523 0
M  V30 31 H -1.46749 -1.4869 0.0611914 0
M  V30 32 H -1.69901 -0.0653203 1.06928 0
M  V30 33 H -1.20841 0.0197918 -1.991 0
M  V30 34 H -1.28075 1.47296 -0.958976 0
M  V30 35 H 3.23466 -2.558 -1.93865 0
M  V30 36 H 5.63426 -2.06074 -0.895429 0
M  V30 37 H 8.16088 0.182193 0.907635 0
M  V30 38 H 7.37043 -1.33122 1.26803 0
M  V30 39 H 0.126416 1.97895 0.635896 0
M  V30 40 H 1.72047 1.87638 -0.265867 0
M  V30 41 H 1.3514 0.858072 1.22602 0
M  V30 END ATOM
M  V30 BEGIN BOND
M  V30 1 1 1 2
M  V30 2 1 2 3
M  V30 3 1 3 4
M  V30 4 1 3 5
M  V30 5 1 2 6
M  V30 6 1 6 7
M  V30 7 1 7 8
M  V30 8 1 8 9
M  V30 9 2 9 10
M  V30 10 1 9 11
M  V30 11 2 11 12
M  V30 12 1 12 13
M  V30 13 2 13 14
M  V30 14 1 14 15
M  V30 15 1 14 16
M  V30 16 2 16 17
M  V30 17 2 16 18
M  V30 18 1 16 19
M  V30 19 1 8 20
M  V30 20 1 15 11
M  V30 21 1 1 21
M  V30 22 1 1 22
M  V30 23 1 2 23
M  V30 24 1 3 24
M  V30 25 1 4 25
M  V30 26 1 4 26
M  V30 27 1 4 27
M  V30 28 1 5 28
M  V30 29 1 5 29
M  V30 30 1 5 30
M  V30 31 1 6 31
M  V30 32 1 6 32
M  V30 33 1 7 33
M  V30 34 1 7 34
M  V30 35 1 12 35
M  V30 36 1 13 36
M  V30 37 1 19 37
M  V30 38 1 19 38
M  V30 39 1 20 39
M  V30 40 1 20 40
M  V30 41 1 20 41
M  V30 END BOND
M  V30 END CTAB
M  END
