
     RDKit          3D

  0  0  0  0  0  0  0  0  0  0999 V3000
M  V30 BEGIN CTAB
M  V30 COUNTS 23 23 0 0 0
M  V30 BEGIN ATOM
M  V30 1 C -0.191478 -1.89093 -1.03586 0
M  V30 2 C -0.0809757 -1.19654 0.278405 0
M  V30 3 N -1.22802 -1.43316 1.16256 0
M  V30 4 N 0.122929 0.264686 0.091018 0
M  V30 5 C -0.865218 1.0769 -0.238843 0
M  V30 6 C -2.31524 0.664685 -0.481609 0
M  V30 7 C -0.559947 2.40365 -0.378742 0
M  V30 8 S 1.11311 2.44153 -0.0373529 0
M  V30 9 C 1.32818 0.783214 0.261522 0
M  V30 10 N 2.45461 0.197075 0.584993 0
M  V30 11 N 3.62165 0.944248 0.712541 0
M  V30 12 H -0.970287 -2.6653 -0.965193 0
M  V30 13 H -0.356672 -1.19783 -1.89083 0
M  V30 14 H 0.777472 -2.41608 -1.28303 0
M  V30 15 H 0.774191 -1.6313 0.830279 0
M  V30 16 H -1.63108 -2.36101 0.949791 0
M  V30 17 H -0.952315 -1.31911 2.15192 0
M  V30 18 H -2.7859 1.31938 -1.23545 0
M  V30 19 H -2.78757 0.684839 0.513085 0
M  V30 20 H -2.37739 -0.363078 -0.876282 0
M  V30 21 H -1.22173 3.24806 -0.645187 0
M  V30 22 H 3.8124 1.76139 0.105007 0
M  V30 23 H 4.31929 0.684687 1.42726 0
M  V30 END ATOM
M  V30 BEGIN BOND
M  V30 1 1 1 2
M  V30 2 1 2 3
M  V30 3 1 2 4
M  V30 4 1 4 5
M  V30 5 1 5 6
M  V30 6 2 5 7
M  V30 7 1 7 8
M  V30 8 1 8 9
M  V30 9 2 9 10
M  V30 10 1 10 11
M  V30 11 1 9 4
M  V30 12 1 1 12
M  V30 13 1 1 13
M  V30 14 1 1 14
M  V30 15 1 2 15
M  V30 16 1 3 16
M  V30 17 1 3 17
M  V30 18 1 6 18
M  V30 19 1 6 19
M  V30 20 1 6 20
M  V30 21 1 7 21
M  V30 22 1 11 22
M  V30 23 1 11 23
M  V30 END BOND
M  V30 END CTAB
M  END
