
     RDKit          3D

  0  0  0  0  0  0  0  0  0  0999 V3000
M  V30 BEGIN CTAB
M  V30 COUNTS 22 22 0 0 0
M  V30 BEGIN ATOM
M  V30 1 N -1.38242 1.85446 0.107505 0
M  V30 2 C -0.0421975 1.35707 0.177258 0
M  V30 3 C 0.0468131 -0.147115 0.143316 0
M  V30 4 C -0.671144 -0.854143 1.26955 0
M  V30 5 C -1.82415 -1.0845 0.295514 0
M  V30 6 C -0.879823 -0.775626 -0.844839 0
M  V30 7 S 1.73394 -0.660319 0.0691476 0
M  V30 8 O 1.90715 -2.13161 0.166365 0
M  V30 9 O 2.43902 -0.0140097 1.25286 0
M  V30 10 N 2.50781 -0.0299451 -1.36238 0
M  V30 11 H -1.74114 1.86811 -0.874824 0
M  V30 12 H -1.34293 2.87534 0.399326 0
M  V30 13 H 0.476624 1.76962 1.07494 0
M  V30 14 H 0.519394 1.7283 -0.712277 0
M  V30 15 H -0.918834 -0.224119 2.13757 0
M  V30 16 H -0.186784 -1.80191 1.58887 0
M  V30 17 H -2.66909 -0.395364 0.401483 0
M  V30 18 H -2.19905 -2.14077 0.315354 0
M  V30 19 H -1.3615 -0.0783577 -1.56846 0
M  V30 20 H -0.535986 -1.66994 -1.37067 0
M  V30 21 H 3.46027 -0.449536 -1.42111 0
M  V30 22 H 2.66404 1.00436 -1.2445 0
M  V30 END ATOM
M  V30 BEGIN BOND
M  V30 1 1 1 2
M  V30 2 1 2 3
M  V30 3 1 3 4
M  V30 4 1 4 5
M  V30 5 1 5 6
M  V30 6 1 3 7
M  V30 7 2 7 8
M  V30 8 2 7 9
M  V30 9 1 7 10
M  V30 10 1 6 3
M  V30 11 1 1 11
M  V30 12 1 1 12
M  V30 13 1 2 13
M  V30 14 1 2 14
M  V30 15 1 4 15
M  V30 16 1 4 16
M  V30 17 1 5 17
M  V30 18 1 5 18
M  V30 19 1 6 19
M  V30 20 1 6 20
M  V30 21 1 10 21
M  V30 22 1 10 22
M  V30 END BOND
M  V30 END CTAB
M  END
