
     RDKit          3D

  0  0  0  0  0  0  0  0  0  0999 V3000
M  V30 BEGIN CTAB
M  V30 COUNTS 37 38 0 0 0
M  V30 BEGIN ATOM
M  V30 1 C 4.30937 1.26742 1.04177 0
M  V30 2 C 4.10942 0.264148 -0.068967 0
M  V30 3 C 2.6661 0.0563237 -0.258074 0
M  V30 4 C 1.95894 -0.736365 0.613475 0
M  V30 5 N 2.59645 -1.37651 1.70794 0
M  V30 6 N 0.643574 -0.880078 0.38402 0
M  V30 7 C -0.0218974 -0.307165 -0.629218 0
M  V30 8 N 0.681942 0.464333 -1.47243 0
M  V30 9 C 1.99439 0.666895 -1.32582 0
M  V30 10 O 2.6755 1.38033 -2.09454 0
M  V30 11 C -1.49279 -0.515278 -0.81979 0
M  V30 12 N -1.56601 -1.67305 -1.73333 0
M  V30 13 C -2.1475 0.640566 -1.47493 0
M  V30 14 C -2.97525 1.52838 -0.650206 0
M  V30 15 C -3.41378 1.01645 0.677365 0
M  V30 16 C -3.52867 -0.506225 0.567544 0
M  V30 17 C -2.06217 -0.950316 0.476848 0
M  V30 18 H 5.15379 1.96323 0.791502 0
M  V30 19 H 3.37745 1.8681 1.25096 0
M  V30 20 H 4.59404 0.803698 2.00765 0
M  V30 21 H 4.61692 0.575381 -1.00896 0
M  V30 22 H 4.60695 -0.672552 0.259189 0
M  V30 23 H 2.62251 -2.43866 1.66582 0
M  V30 24 H 3.02468 -0.921491 2.52196 0
M  V30 25 H 0.122186 -1.502 1.07348 0
M  V30 26 H -2.55532 -1.96753 -1.72997 0
M  V30 27 H -0.98888 -2.41866 -1.27977 0
M  V30 28 H -1.33289 1.24979 -1.96892 0
M  V30 29 H -2.77294 0.294875 -2.34942 0
M  V30 30 H -3.91491 1.85555 -1.18777 0
M  V30 31 H -2.44216 2.5086 -0.45898 0
M  V30 32 H -4.3657 1.45777 1.0073 0
M  V30 33 H -2.58679 1.23618 1.4153 0
M  V30 34 H -4.01095 -0.940958 1.44309 0
M  V30 35 H -3.98332 -0.773571 -0.402621 0
M  V30 36 H -2.00357 -2.04514 0.634744 0
M  V30 37 H -1.58872 -0.472474 1.37375 0
M  V30 END ATOM
M  V30 BEGIN BOND
M  V30 1 1 1 2
M  V30 2 1 2 3
M  V30 3 2 3 4
M  V30 4 1 4 5
M  V30 5 1 4 6
M  V30 6 1 6 7
M  V30 7 2 7 8
M  V30 8 1 8 9
M  V30 9 2 9 10
M  V30 10 1 7 11
M  V30 11 1 11 12
M  V30 12 1 11 13
M  V30 13 1 13 14
M  V30 14 1 14 15
M  V30 15 1 15 16
M  V30 16 1 16 17
M  V30 17 1 9 3
M  V30 18 1 17 11
M  V30 19 1 1 18
M  V30 20 1 1 19
M  V30 21 1 1 20
M  V30 22 1 2 21
M  V30 23 1 2 22
M  V30 24 1 5 23
M  V30 25 1 5 24
M  V30 26 1 6 25
M  V30 27 1 12 26
M  V30 28 1 12 27
M  V30 29 1 13 28
M  V30 30 1 13 29
M  V30 31 1 14 30
M  V30 32 1 14 31
M  V30 33 1 15 32
M  V30 34 1 15 33
M  V30 35 1 16 34
M  V30 36 1 16 35
M  V30 37 1 17 36
M  V30 38 1 17 37
M  V30 END BOND
M  V30 END CTAB
M  END
