
     RDKit          3D

  0  0  0  0  0  0  0  0  0  0999 V3000
M  V30 BEGIN CTAB
M  V30 COUNTS 30 31 0 0 0
M  V30 BEGIN ATOM
M  V30 1 N 5.53678 -0.956446 0.513287 0
M  V30 2 C 5.03877 -0.232338 -0.614309 0
M  V30 3 C 3.53526 -0.220806 -0.664055 0
M  V30 4 O 2.7841 -1.10325 -1.26546 0
M  V30 5 N 1.54303 -0.809382 -1.12189 0
M  V30 6 C 1.42924 0.288942 -0.413227 0
M  V30 7 N 2.70933 0.674997 -0.11398 0
M  V30 8 C 0.288809 1.05655 0.0442172 0
M  V30 9 C -1.03454 0.467291 -0.00620543 0
M  V30 10 C -1.99227 1.06108 0.836024 0
M  V30 11 C -3.28995 0.648878 0.911083 0
M  V30 12 C -3.7253 -0.408558 0.130922 0
M  V30 13 C -2.82849 -1.02056 -0.707094 0
M  V30 14 C -1.49392 -0.572169 -0.763151 0
M  V30 15 F -3.23433 -2.05297 -1.47526 0
M  V30 16 C -5.14206 -0.820265 0.246782 0
M  V30 17 N 0.541604 1.39362 1.46916 0
M  V30 18 H 4.8054 -1.38148 1.11025 0
M  V30 19 H 6.26837 -0.44649 1.05471 0
M  V30 20 H 5.38188 -0.774563 -1.53294 0
M  V30 21 H 5.46199 0.772346 -0.62112 0
M  V30 22 H 0.221818 2.04436 -0.504478 0
M  V30 23 H -1.70702 1.90663 1.48077 0
M  V30 24 H -3.96221 1.16998 1.59367 0
M  V30 25 H -0.835364 -1.06729 -1.4324 0
M  V30 26 H -5.19421 -1.93813 0.27809 0
M  V30 27 H -5.57771 -0.442512 1.19211 0
M  V30 28 H -5.76205 -0.407717 -0.579246 0
M  V30 29 H 0.265636 2.38326 1.59652 0
M  V30 30 H -0.0326079 0.786995 2.08794 0
M  V30 END ATOM
M  V30 BEGIN BOND
M  V30 1 1 1 2
M  V30 2 1 2 3
M  V30 3 1 3 4
M  V30 4 1 4 5
M  V30 5 2 5 6
M  V30 6 1 6 7
M  V30 7 1 6 8
M  V30 8 1 8 9
M  V30 9 2 9 10
M  V30 10 1 10 11
M  V30 11 2 11 12
M  V30 12 1 12 13
M  V30 13 2 13 14
M  V30 14 1 13 15
M  V30 15 1 12 16
M  V30 16 1 8 17
M  V30 17 2 7 3
M  V30 18 1 14 9
M  V30 19 1 1 18
M  V30 20 1 1 19
M  V30 21 1 2 20
M  V30 22 1 2 21
M  V30 23 1 8 22
M  V30 24 1 10 23
M  V30 25 1 11 24
M  V30 26 1 14 25
M  V30 27 1 16 26
M  V30 28 1 16 27
M  V30 29 1 16 28
M  V30 30 1 17 29
M  V30 31 1 17 30
M  V30 END BOND
M  V30 END CTAB
M  END
