
     RDKit          3D

  0  0  0  0  0  0  0  0  0  0999 V3000
M  V30 BEGIN CTAB
M  V30 COUNTS 41 42 0 0 0
M  V30 BEGIN ATOM
M  V30 1 C -0.199494 -2.48722 -1.89927 0
M  V30 2 Si -0.192497 -1.63134 -0.236395 0 VAL=4
M  V30 3 C -0.548551 -2.87269 1.1161 0
M  V30 4 C 1.46304 -0.874142 -0.0142993 0
M  V30 5 C 2.45892 -1.63382 0.550169 0
M  V30 6 C 3.74157 -1.10848 0.743985 0
M  V30 7 C 3.98689 0.189389 0.356491 0
M  V30 8 C 5.35731 0.750091 0.56377 0
M  V30 9 N 5.33151 2.11474 0.0722054 0
M  V30 10 C 2.96279 0.92463 -0.207675 0
M  V30 11 C 1.69484 0.429071 -0.407694 0
M  V30 12 C -1.52393 -0.366975 -0.227223 0
M  V30 13 C -1.43927 0.804391 0.477291 0
M  V30 14 C -2.47536 1.69684 0.432898 0
M  V30 15 C -3.60481 1.44156 -0.307279 0
M  V30 16 C -4.7585 2.38663 -0.384118 0
M  V30 17 N -5.74062 2.1504 0.632182 0
M  V30 18 C -3.70033 0.266125 -1.01981 0
M  V30 19 C -2.64698 -0.640888 -0.974515 0
M  V30 20 H 0.729288 -3.1071 -1.96226 0
M  V30 21 H -1.11644 -3.08897 -2.03602 0
M  V30 22 H -0.0927529 -1.69211 -2.67599 0
M  V30 23 H -1.62838 -3.14485 1.01831 0
M  V30 24 H -0.449977 -2.34579 2.09156 0
M  V30 25 H 0.0860003 -3.76692 1.04664 0
M  V30 26 H 2.25189 -2.64945 0.848934 0
M  V30 27 H 4.51541 -1.72037 1.19026 0
M  V30 28 H 5.70045 0.670966 1.59641 0
M  V30 29 H 6.02255 0.169081 -0.128852 0
M  V30 30 H 5.41005 2.17448 -0.94884 0
M  V30 31 H 5.921 2.7586 0.611299 0
M  V30 32 H 3.19562 1.93977 -0.498618 0
M  V30 33 H 0.897466 1.03949 -0.860412 0
M  V30 34 H -0.537954 1.00389 1.06558 0
M  V30 35 H -2.44466 2.64797 0.984864 0
M  V30 36 H -4.35877 3.41627 -0.275751 0
M  V30 37 H -5.24844 2.33304 -1.38499 0
M  V30 38 H -6.39525 1.39043 0.371751 0
M  V30 39 H -5.32488 1.9872 1.55871 0
M  V30 40 H -4.5759 0.015835 -1.62313 0
M  V30 41 H -2.72286 -1.56976 -1.5378 0
M  V30 END ATOM
M  V30 BEGIN BOND
M  V30 1 1 1 2
M  V30 2 1 2 3
M  V30 3 1 2 4
M  V30 4 2 4 5
M  V30 5 1 5 6
M  V30 6 2 6 7
M  V30 7 1 7 8
M  V30 8 1 8 9
M  V30 9 1 7 10
M  V30 10 2 10 11
M  V30 11 1 2 12
M  V30 12 2 12 13
M  V30 13 1 13 14
M  V30 14 2 14 15
M  V30 15 1 15 16
M  V30 16 1 16 17
M  V30 17 1 15 18
M  V30 18 2 18 19
M  V30 19 1 11 4
M  V30 20 1 19 12
M  V30 21 1 1 20
M  V30 22 1 1 21
M  V30 23 1 1 22
M  V30 24 1 3 23
M  V30 25 1 3 24
M  V30 26 1 3 25
M  V30 27 1 5 26
M  V30 28 1 6 27
M  V30 29 1 8 28
M  V30 30 1 8 29
M  V30 31 1 9 30
M  V30 32 1 9 31
M  V30 33 1 10 32
M  V30 34 1 11 33
M  V30 35 1 13 34
M  V30 36 1 14 35
M  V30 37 1 16 36
M  V30 38 1 16 37
M  V30 39 1 17 38
M  V30 40 1 17 39
M  V30 41 1 18 40
M  V30 42 1 19 41
M  V30 END BOND
M  V30 END CTAB
M  END
