
     RDKit          3D

  0  0  0  0  0  0  0  0  0  0999 V3000
M  V30 BEGIN CTAB
M  V30 COUNTS 40 42 0 0 0
M  V30 BEGIN ATOM
M  V30 1 N 6.19638 -0.0959789 2.22498 0
M  V30 2 C 5.34922 -0.059859 1.06141 0
M  V30 3 C 5.31054 1.111 0.335098 0
M  V30 4 C 4.49534 1.13183 -0.77518 0
M  V30 5 N 4.38401 2.28394 -1.58779 0
M  V30 6 N 3.80781 0.0255258 -1.06469 0
M  V30 7 C 3.84903 -1.10524 -0.358236 0
M  V30 8 N 4.64273 -1.15791 0.74148 0
M  V30 9 S 2.86706 -2.48848 -0.882825 0
M  V30 10 C 1.21727 -2.48489 -0.150558 0
M  V30 11 C 0.386929 -1.33108 -0.642147 0
M  V30 12 O 0.887429 -0.53826 -1.46759 0
M  V30 13 C -0.960194 -1.13365 -0.177766 0
M  V30 14 C -1.70102 -1.88504 0.720971 0
M  V30 15 C -2.93478 -1.28051 0.828101 0
M  V30 16 N -2.98707 -0.208831 0.0493896 0
M  V30 17 C -1.79516 -0.109334 -0.56588 0
M  V30 18 C -1.43439 0.975525 -1.54079 0
M  V30 19 C -4.09014 0.711852 -0.139274 0
M  V30 20 N -4.73839 1.41821 0.773128 0
M  V30 21 C -5.70701 2.19691 0.41995 0
M  V30 22 C -6.02599 2.25726 -0.912909 0
M  V30 23 S -4.88862 1.16784 -1.58299 0
M  V30 24 C -4.06887 -1.74521 1.68948 0
M  V30 25 H 6.7825 -0.927422 2.35619 0
M  V30 26 H 6.22815 0.66744 2.90744 0
M  V30 27 H 5.89627 1.98801 0.620332 0
M  V30 28 H 4.92837 3.15032 -1.38385 0
M  V30 29 H 3.7464 2.28082 -2.41247 0
M  V30 30 H 0.664145 -3.3979 -0.422341 0
M  V30 31 H 1.27527 -2.46317 0.969305 0
M  V30 32 H -1.33466 -2.76198 1.21166 0
M  V30 33 H -2.23392 1.74248 -1.55203 0
M  V30 34 H -0.493572 1.48608 -1.24799 0
M  V30 35 H -1.39627 0.529638 -2.54643 0
M  V30 36 H -6.28548 2.81259 1.14107 0
M  V30 37 H -6.81964 2.86631 -1.38275 0
M  V30 38 H -3.7136 -2.59122 2.32702 0
M  V30 39 H -4.8937 -2.12277 1.0673 0
M  V30 40 H -4.41236 -0.914827 2.36885 0
M  V30 END ATOM
M  V30 BEGIN BOND
M  V30 1 1 1 2
M  V30 2 2 2 3
M  V30 3 1 3 4
M  V30 4 1 4 5
M  V30 5 2 4 6
M  V30 6 1 6 7
M  V30 7 2 7 8
M  V30 8 1 7 9
M  V30 9 1 9 10
M  V30 10 1 10 11
M  V30 11 2 11 12
M  V30 12 1 11 13
M  V30 13 1 13 14
M  V30 14 2 14 15
M  V30 15 1 15 16
M  V30 16 1 16 17
M  V30 17 1 17 18
M  V30 18 1 16 19
M  V30 19 2 19 20
M  V30 20 1 20 21
M  V30 21 2 21 22
M  V30 22 1 22 23
M  V30 23 1 15 24
M  V30 24 1 8 2
M  V30 25 2 17 13
M  V30 26 1 23 19
M  V30 27 1 1 25
M  V30 28 1 1 26
M  V30 29 1 3 27
M  V30 30 1 5 28
M  V30 31 1 5 29
M  V30 32 1 10 30
M  V30 33 1 10 31
M  V30 34 1 14 32
M  V30 35 1 18 33
M  V30 36 1 18 34
M  V30 37 1 18 35
M  V30 38 1 21 36
M  V30 39 1 22 37
M  V30 40 1 24 38
M  V30 41 1 24 39
M  V30 42 1 24 40
M  V30 END BOND
M  V30 END CTAB
M  END
