
     RDKit          3D

  0  0  0  0  0  0  0  0  0  0999 V3000
M  V30 BEGIN CTAB
M  V30 COUNTS 30 30 0 0 0
M  V30 BEGIN ATOM
M  V30 1 C -4.10231 0.492012 -2.02573 0
M  V30 2 C -3.263 0.125315 -0.850514 0
M  V30 3 C -1.86294 0.262713 -0.90636 0
M  V30 4 C -1.10481 -0.0768738 0.177698 0
M  V30 5 N 0.297157 0.0133588 0.249225 0
M  V30 6 C 1.15694 0.461756 -0.764942 0
M  V30 7 O 0.750679 0.857932 -1.92247 0
M  V30 8 C 2.63545 0.542668 -0.651178 0
M  V30 9 N 3.22481 0.137592 0.57135 0
M  V30 10 C 4.63809 0.208959 0.696155 0
M  V30 11 S 5.35848 -0.244713 2.07905 0
M  V30 12 N 5.43344 0.671748 -0.371303 0
M  V30 13 C -1.76772 -0.55742 1.32249 0
M  V30 14 C -3.13286 -0.696754 1.39137 0
M  V30 15 C -3.87567 -0.347437 0.284561 0
M  V30 16 N -0.988296 -0.908643 2.44263 0
M  V30 17 H -3.57698 1.25417 -2.62592 0
M  V30 18 H -4.32175 -0.414986 -2.62538 0
M  V30 19 H -5.09605 0.865299 -1.67288 0
M  V30 20 H -1.4421 0.635449 -1.81525 0
M  V30 21 H 0.801764 -0.276605 1.14293 0
M  V30 22 H 2.90082 1.64167 -0.773129 0
M  V30 23 H 3.11484 0.0522838 -1.5363 0
M  V30 24 H 2.66162 -0.204729 1.36651 0
M  V30 25 H 6.28453 0.11348 -0.642254 0
M  V30 26 H 5.16863 1.56016 -0.878112 0
M  V30 27 H -3.58506 -1.07116 2.2977 0
M  V30 28 H -4.96007 -0.436935 0.282274 0
M  V30 29 H -0.497406 -1.83536 2.47076 0
M  V30 30 H -0.85024 -0.298013 3.28702 0
M  V30 END ATOM
M  V30 BEGIN BOND
M  V30 1 1 1 2
M  V30 2 2 2 3
M  V30 3 1 3 4
M  V30 4 1 4 5
M  V30 5 1 5 6
M  V30 6 2 6 7
M  V30 7 1 6 8
M  V30 8 1 8 9
M  V30 9 1 9 10
M  V30 10 2 10 11
M  V30 11 1 10 12
M  V30 12 2 4 13
M  V30 13 1 13 14
M  V30 14 2 14 15
M  V30 15 1 13 16
M  V30 16 1 15 2
M  V30 17 1 1 17
M  V30 18 1 1 18
M  V30 19 1 1 19
M  V30 20 1 3 20
M  V30 21 1 5 21
M  V30 22 1 8 22
M  V30 23 1 8 23
M  V30 24 1 9 24
M  V30 25 1 12 25
M  V30 26 1 12 26
M  V30 27 1 14 27
M  V30 28 1 15 28
M  V30 29 1 16 29
M  V30 30 1 16 30
M  V30 END BOND
M  V30 END CTAB
M  END
