
     RDKit          3D

  0  0  0  0  0  0  0  0  0  0999 V3000
M  V30 BEGIN CTAB
M  V30 COUNTS 31 32 0 0 0
M  V30 BEGIN ATOM
M  V30 1 N -0.399907 0.870647 -1.05234 0
M  V30 2 C 0.0827937 -0.166132 -0.134898 0
M  V30 3 C 1.57658 0.0847682 -0.0775996 0
M  V30 4 C 2.14602 1.31415 -0.352001 0
M  V30 5 C 3.49221 1.49323 -0.498346 0
M  V30 6 C 4.31147 0.361342 -0.362444 0
M  V30 7 N 3.78991 -0.847891 -0.0894783 0
M  V30 8 C 2.45447 -0.968733 0.0538611 0
M  V30 9 N 1.91383 -2.2418 0.481932 0
M  V30 10 C -0.476026 -0.0730055 1.21205 0
M  V30 11 C -1.93374 -0.151848 1.40693 0
M  V30 12 C -2.84323 0.917028 0.899204 0
M  V30 13 C -3.7285 -0.0824101 0.173846 0
M  V30 14 C -2.59639 -1.07628 0.335313 0
M  V30 15 H 0.25938 0.875576 -1.85809 0
M  V30 16 H -0.387731 1.80789 -0.591772 0
M  V30 17 H -0.0321157 -1.13563 -0.592947 0
M  V30 18 H 1.49982 2.18198 -0.47475 0
M  V30 19 H 3.90443 2.47079 -0.700301 0
M  V30 20 H 5.38385 0.532966 -0.47041 0
M  V30 21 H 1.90053 -2.41364 1.50079 0
M  V30 22 H 1.56135 -2.90046 -0.193606 0
M  V30 23 H -0.023309 -0.935723 1.80624 0
M  V30 24 H -0.102414 0.848243 1.75278 0
M  V30 25 H -2.26581 -0.535241 2.39227 0
M  V30 26 H -3.49587 1.38882 1.7034 0
M  V30 27 H -2.46872 1.71473 0.262484 0
M  V30 28 H -4.67573 -0.3205 0.660014 0
M  V30 29 H -3.88726 0.226926 -0.89023 0
M  V30 30 H -2.95204 -2.02257 0.742182 0
M  V30 31 H -2.00786 -1.21722 -0.567851 0
M  V30 END ATOM
M  V30 BEGIN BOND
M  V30 1 1 1 2
M  V30 2 1 2 3
M  V30 3 2 3 4
M  V30 4 1 4 5
M  V30 5 2 5 6
M  V30 6 1 6 7
M  V30 7 2 7 8
M  V30 8 1 8 9
M  V30 9 1 2 10
M  V30 10 1 10 11
M  V30 11 1 11 12
M  V30 12 1 12 13
M  V30 13 1 13 14
M  V30 14 1 8 3
M  V30 15 1 14 11
M  V30 16 1 1 15
M  V30 17 1 1 16
M  V30 18 1 2 17
M  V30 19 1 4 18
M  V30 20 1 5 19
M  V30 21 1 6 20
M  V30 22 1 9 21
M  V30 23 1 9 22
M  V30 24 1 10 23
M  V30 25 1 10 24
M  V30 26 1 11 25
M  V30 27 1 12 26
M  V30 28 1 12 27
M  V30 29 1 13 28
M  V30 30 1 13 29
M  V30 31 1 14 30
M  V30 32 1 14 31
M  V30 END BOND
M  V30 END CTAB
M  END
