
     RDKit          3D

  0  0  0  0  0  0  0  0  0  0999 V3000
M  V30 BEGIN CTAB
M  V30 COUNTS 33 33 0 0 0
M  V30 BEGIN ATOM
M  V30 1 C 6.07627 1.28437 0.635689 0
M  V30 2 C 5.55225 0.289858 -0.377454 0
M  V30 3 O 4.16337 0.133407 -0.141792 0
M  V30 4 C 3.37634 -0.724282 -0.914512 0
M  V30 5 O 3.94544 -1.35008 -1.82432 0
M  V30 6 C 1.93392 -0.855656 -0.632872 0
M  V30 7 C 1.53967 0.0269291 0.526422 0
M  V30 8 C 0.0388047 -0.175672 0.742081 0
M  V30 9 S -0.852136 0.290669 -0.745152 0
M  V30 10 C -2.60564 0.0443274 -0.468434 0
M  V30 11 N -3.28317 1.10126 0.0459522 0
M  V30 12 C -4.59943 1.06708 0.306735 0
M  V30 13 N -5.29423 2.17947 0.844206 0
M  V30 14 C -5.26829 -0.0986615 0.0329932 0
M  V30 15 C -4.57642 -1.18063 -0.493205 0
M  V30 16 N -3.23811 -1.09761 -0.741278 0
M  V30 17 N -5.23861 -2.39326 -0.784983 0
M  V30 18 H 5.25841 1.88063 1.10331 0
M  V30 19 H 6.76027 2.03947 0.157096 0
M  V30 20 H 6.59981 0.73306 1.45118 0
M  V30 21 H 6.08256 -0.686588 -0.268823 0
M  V30 22 H 5.7577 0.632699 -1.41475 0
M  V30 23 H 1.70472 -1.90136 -0.335008 0
M  V30 24 H 1.29684 -0.628366 -1.50459 0
M  V30 25 H 2.02423 -0.343054 1.45586 0
M  V30 26 H 1.72803 1.09685 0.349832 0
M  V30 27 H -0.316783 0.413848 1.5835 0
M  V30 28 H -0.133668 -1.27638 0.914264 0
M  V30 29 H -5.62882 2.95835 0.20885 0
M  V30 30 H -5.51291 2.30207 1.84966 0
M  V30 31 H -6.32612 -0.154488 0.232536 0
M  V30 32 H -5.15807 -3.1964 -0.147934 0
M  V30 33 H -5.80624 -2.4686 -1.64506 0
M  V30 END ATOM
M  V30 BEGIN BOND
M  V30 1 1 1 2
M  V30 2 1 2 3
M  V30 3 1 3 4
M  V30 4 2 4 5
M  V30 5 1 4 6
M  V30 6 1 6 7
M  V30 7 1 7 8
M  V30 8 1 8 9
M  V30 9 1 9 10
M  V30 10 2 10 11
M  V30 11 1 11 12
M  V30 12 1 12 13
M  V30 13 2 12 14
M  V30 14 1 14 15
M  V30 15 2 15 16
M  V30 16 1 15 17
M  V30 17 1 16 10
M  V30 18 1 1 18
M  V30 19 1 1 19
M  V30 20 1 1 20
M  V30 21 1 2 21
M  V30 22 1 2 22
M  V30 23 1 6 23
M  V30 24 1 6 24
M  V30 25 1 7 25
M  V30 26 1 7 26
M  V30 27 1 8 27
M  V30 28 1 8 28
M  V30 29 1 13 29
M  V30 30 1 13 30
M  V30 31 1 14 31
M  V30 32 1 17 32
M  V30 33 1 17 33
M  V30 END BOND
M  V30 END CTAB
M  END
