
     RDKit          3D

  0  0  0  0  0  0  0  0  0  0999 V3000
M  V30 BEGIN CTAB
M  V30 COUNTS 24 24 0 0 0
M  V30 BEGIN ATOM
M  V30 1 C 4.3644 -0.49106 0.771033 0
M  V30 2 C 3.95897 -0.342718 -0.477752 0
M  V30 3 C 2.54763 -0.181717 -0.840552 0
M  V30 4 O 1.68228 -0.202031 0.271483 0
M  V30 5 C 0.317278 -0.0593707 0.0671682 0
M  V30 6 C -0.537702 -0.0786439 1.15689 0
M  V30 7 C -1.88858 0.0651623 0.925325 0
M  V30 8 N -2.798 0.0493922 2.0315 0
M  V30 9 N -4.17174 0.193231 1.82323 0
M  V30 10 N -2.31801 0.217088 -0.338883 0
M  V30 11 C -1.504 0.23724 -1.39661 0
M  V30 12 N -0.186114 0.0968774 -1.16991 0
M  V30 13 N -1.94044 0.396854 -2.73991 0
M  V30 14 H 3.60745 -0.492108 1.55623 0
M  V30 15 H 5.41456 -0.608285 1.01219 0
M  V30 16 H 4.69303 -0.33867 -1.27328 0
M  V30 17 H 2.44058 0.827146 -1.32208 0
M  V30 18 H 2.18943 -0.921238 -1.57402 0
M  V30 19 H -0.174678 -0.201791 2.1663 0
M  V30 20 H -2.45218 -0.0672875 2.98594 0
M  V30 21 H -4.64743 -0.732521 1.87605 0
M  V30 22 H -4.39343 0.650651 0.917362 0
M  V30 23 H -2.27614 1.35031 -3.0333 0
M  V30 24 H -1.92716 -0.388732 -3.39442 0
M  V30 END ATOM
M  V30 BEGIN BOND
M  V30 1 2 1 2 CFG=2
M  V30 2 1 2 3
M  V30 3 1 3 4
M  V30 4 1 4 5
M  V30 5 2 5 6
M  V30 6 1 6 7
M  V30 7 1 7 8
M  V30 8 1 8 9
M  V30 9 2 7 10
M  V30 10 1 10 11
M  V30 11 2 11 12
M  V30 12 1 11 13
M  V30 13 1 12 5
M  V30 14 1 1 14
M  V30 15 1 1 15
M  V30 16 1 2 16
M  V30 17 1 3 17
M  V30 18 1 3 18
M  V30 19 1 6 19
M  V30 20 1 8 20
M  V30 21 1 9 21
M  V30 22 1 9 22
M  V30 23 1 13 23
M  V30 24 1 13 24
M  V30 END BOND
M  V30 END CTAB
M  END
