
     RDKit          3D

  0  0  0  0  0  0  0  0  0  0999 V3000
M  V30 BEGIN CTAB
M  V30 COUNTS 58 60 0 0 0
M  V30 BEGIN ATOM
M  V30 1 C -5.78273 1.87546 -0.526475 0
M  V30 2 C -5.42357 1.15355 0.776051 0
M  V30 3 C -4.44767 2.00786 1.58832 0
M  V30 4 N -6.64292 1.08881 1.54883 0
M  V30 5 C -7.22256 0.0429278 1.96786 0
M  V30 6 N -8.4246 0.226907 2.71706 0
M  V30 7 N -6.67868 -1.22243 1.68905 0
M  V30 8 C -5.59113 -1.3069 1.00704 0
M  V30 9 N -5.09431 -2.60715 0.759707 0
M  V30 10 N -4.89386 -0.145526 0.507904 0
M  V30 11 C -3.71089 -0.375388 -0.22691 0
M  V30 12 C -3.71569 -0.545197 -1.59343 0
M  V30 13 C -2.55306 -0.767601 -2.29032 0
M  V30 14 Cl -2.58046 -0.98357 -4.0483 0
M  V30 15 C -1.29655 -0.83576 -1.66233 0
M  V30 16 O -0.2222 -1.05981 -2.43937 0
M  V30 17 C 1.12473 -1.17819 -2.23847 0
M  V30 18 C 1.78965 0.0409796 -1.71135 0
M  V30 19 C 3.29184 -0.152347 -1.53222 0
M  V30 20 C 3.60092 -1.25262 -0.563651 0
M  V30 21 O 4.94967 -1.43049 -0.361167 0
M  V30 22 C 5.92361 -0.660486 0.157542 0
M  V30 23 C 5.77408 0.597689 0.677575 0
M  V30 24 C 6.83811 1.32627 1.19066 0
M  V30 25 C 8.07741 0.769419 1.17755 0
M  V30 26 C 8.28505 -0.498835 0.664816 0
M  V30 27 C 7.22191 -1.19686 0.16472 0
M  V30 28 S 9.43746 1.67047 1.82021 0
M  V30 29 F 9.5844 1.32038 3.44839 0
M  V30 30 O 9.22677 3.16119 1.65241 0
M  V30 31 O 10.7002 1.33143 1.0822 0
M  V30 32 C -1.31131 -0.664378 -0.296058 0
M  V30 33 C -2.4948 -0.440048 0.394216 0
M  V30 34 H -6.32729 1.14137 -1.1574 0
M  V30 35 H -4.86265 2.26486 -1.0249 0
M  V30 36 H -6.4495 2.72193 -0.358564 0
M  V30 37 H -4.97045 2.79491 2.15976 0
M  V30 38 H -3.96208 1.34459 2.33696 0
M  V30 39 H -3.71076 2.47039 0.928956 0
M  V30 40 H -8.44083 0.608509 3.67765 0
M  V30 41 H -9.31455 -0.0580931 2.21574 0
M  V30 42 H -4.56396 -3.12174 1.48154 0
M  V30 43 H -5.26235 -3.05332 -0.156667 0
M  V30 44 H -4.65908 -0.500651 -2.11815 0
M  V30 45 H 1.28323 -2.07278 -1.58346 0
M  V30 46 H 1.58506 -1.46069 -3.23638 0
M  V30 47 H 1.33087 0.367667 -0.771717 0
M  V30 48 H 1.65108 0.913668 -2.42733 0
M  V30 49 H 3.72413 0.826314 -1.27774 0
M  V30 50 H 3.73253 -0.464551 -2.52895 0
M  V30 51 H 3.14162 -2.19206 -1.00811 0
M  V30 52 H 3.06327 -1.08658 0.409537 0
M  V30 53 H 4.78534 1.05334 0.714378 0
M  V30 54 H 6.63455 2.31599 1.58312 0
M  V30 55 H 9.30425 -0.881122 0.687294 0
M  V30 56 H 7.39047 -2.19464 -0.237688 0
M  V30 57 H -0.391835 -0.716567 0.266468 0
M  V30 58 H -2.44985 -0.310486 1.47566 0
M  V30 END ATOM
M  V30 BEGIN BOND
M  V30 1 1 1 2
M  V30 2 1 2 3
M  V30 3 1 2 4
M  V30 4 2 4 5
M  V30 5 1 5 6
M  V30 6 1 5 7
M  V30 7 2 7 8
M  V30 8 1 8 9
M  V30 9 1 8 10
M  V30 10 1 10 11
M  V30 11 2 11 12
M  V30 12 1 12 13
M  V30 13 1 13 14
M  V30 14 2 13 15
M  V30 15 1 15 16
M  V30 16 1 16 17
M  V30 17 1 17 18
M  V30 18 1 18 19
M  V30 19 1 19 20
M  V30 20 1 20 21
M  V30 21 1 21 22
M  V30 22 2 22 23
M  V30 23 1 23 24
M  V30 24 2 24 25
M  V30 25 1 25 26
M  V30 26 2 26 27
M  V30 27 1 25 28
M  V30 28 1 28 29
M  V30 29 2 28 30
M  V30 30 2 28 31
M  V30 31 1 15 32
M  V30 32 2 32 33
M  V30 33 1 10 2
M  V30 34 1 33 11
M  V30 35 1 27 22
M  V30 36 1 1 34
M  V30 37 1 1 35
M  V30 38 1 1 36
M  V30 39 1 3 37
M  V30 40 1 3 38
M  V30 41 1 3 39
M  V30 42 1 6 40
M  V30 43 1 6 41
M  V30 44 1 9 42
M  V30 45 1 9 43
M  V30 46 1 12 44
M  V30 47 1 17 45
M  V30 48 1 17 46
M  V30 49 1 18 47
M  V30 50 1 18 48
M  V30 51 1 19 49
M  V30 52 1 19 50
M  V30 53 1 20 51
M  V30 54 1 20 52
M  V30 55 1 23 53
M  V30 56 1 24 54
M  V30 57 1 26 55
M  V30 58 1 27 56
M  V30 59 1 32 57
M  V30 60 1 33 58
M  V30 END BOND
M  V30 END CTAB
M  END
