
     RDKit          3D

  0  0  0  0  0  0  0  0  0  0999 V3000
M  V30 BEGIN CTAB
M  V30 COUNTS 19 18 0 0 0
M  V30 BEGIN ATOM
M  V30 1 N 2.13077 0.153207 0.60938 0
M  V30 2 C 0.953658 -0.681606 0.455194 0
M  V30 3 C 0.0982873 -0.176223 -0.704702 0
M  V30 4 C -1.12201 -1.01109 -0.893193 0
M  V30 5 S -2.21459 -1.06285 0.524902 0
M  V30 6 C -0.182366 1.29326 -0.593238 0
M  V30 7 N -0.878793 1.67786 0.58553 0
M  V30 8 H 2.12599 0.595714 1.55199 0
M  V30 9 H 3.01784 -0.385496 0.476294 0
M  V30 10 H 0.378886 -0.791461 1.38039 0
M  V30 11 H 1.303 -1.69626 0.147639 0
M  V30 12 H 0.729712 -0.307076 -1.61301 0
M  V30 13 H -1.66343 -0.676091 -1.78058 0
M  V30 14 H -0.783031 -2.05624 -1.10062 0
M  V30 15 H -2.32113 -2.36269 1.06327 0
M  V30 16 H 0.796528 1.8269 -0.604791 0
M  V30 17 H -0.745885 1.60044 -1.47922 0
M  V30 18 H -1.16822 2.66158 0.502927 0
M  V30 19 H -0.455214 1.39811 1.47183 0
M  V30 END ATOM
M  V30 BEGIN BOND
M  V30 1 1 1 2
M  V30 2 1 2 3
M  V30 3 1 3 4
M  V30 4 1 4 5
M  V30 5 1 3 6
M  V30 6 1 6 7
M  V30 7 1 1 8
M  V30 8 1 1 9
M  V30 9 1 2 10
M  V30 10 1 2 11
M  V30 11 1 3 12
M  V30 12 1 4 13
M  V30 13 1 4 14
M  V30 14 1 5 15
M  V30 15 1 6 16
M  V30 16 1 6 17
M  V30 17 1 7 18
M  V30 18 1 7 19
M  V30 END BOND
M  V30 END CTAB
M  END
