
     RDKit          3D

  0  0  0  0  0  0  0  0  0  0999 V3000
M  V30 BEGIN CTAB
M  V30 COUNTS 21 22 0 0 0
M  V30 BEGIN ATOM
M  V30 1 Cl 5.55476 -0.153513 0.285119 0
M  V30 2 C 3.79785 -0.0808221 0.24385 0
M  V30 3 C 3.11178 0.374742 -0.863175 0
M  V30 4 C 1.7331 0.433435 -0.899835 0
M  V30 5 C 1.01179 0.0188815 0.218084 0
M  V30 6 N 1.7201 -0.417721 1.27486 0
M  V30 7 N 3.04131 -0.468574 1.29619 0
M  V30 8 N -0.409197 0.0729868 0.196788 0
M  V30 9 N -1.10672 1.21059 0.241582 0
M  V30 10 C -2.41084 0.981757 0.208219 0
M  V30 11 C -2.58502 -0.374597 0.137857 0
M  V30 12 C -1.30712 -0.923282 0.132122 0
M  V30 13 N -0.952808 -2.29748 0.069734 0
M  V30 14 N -3.40739 2.00881 0.242484 0
M  V30 15 H 3.68764 0.690063 -1.71562 0
M  V30 16 H 1.18933 0.796626 -1.78277 0
M  V30 17 H -3.50639 -0.908957 0.0957673 0
M  V30 18 H -1.35004 -2.98128 0.763283 0
M  V30 19 H -0.301505 -2.7 -0.640193 0
M  V30 20 H -4.18091 1.92948 -0.437464 0
M  V30 21 H -3.32972 2.78887 0.933112 0
M  V30 END ATOM
M  V30 BEGIN BOND
M  V30 1 1 1 2
M  V30 2 2 2 3
M  V30 3 1 3 4
M  V30 4 2 4 5
M  V30 5 1 5 6
M  V30 6 2 6 7
M  V30 7 1 5 8
M  V30 8 1 8 9
M  V30 9 2 9 10
M  V30 10 1 10 11
M  V30 11 2 11 12
M  V30 12 1 12 13
M  V30 13 1 10 14
M  V30 14 1 7 2
M  V30 15 1 12 8
M  V30 16 1 3 15
M  V30 17 1 4 16
M  V30 18 1 11 17
M  V30 19 1 13 18
M  V30 20 1 13 19
M  V30 21 1 14 20
M  V30 22 1 14 21
M  V30 END BOND
M  V30 END CTAB
M  END
