
     RDKit          3D

  0  0  0  0  0  0  0  0  0  0999 V3000
M  V30 BEGIN CTAB
M  V30 COUNTS 30 31 0 0 0
M  V30 BEGIN ATOM
M  V30 1 N -1.38345 1.31571 -0.971208 0
M  V30 2 C -1.62122 0.313034 -0.0197219 0
M  V30 3 N -0.635498 -0.38785 0.425594 0
M  V30 4 O 0.633597 -0.15208 -0.0296138 0
M  V30 5 C 1.68624 -0.84131 0.522622 0
M  V30 6 O 1.49053 -1.6811 1.43713 0
M  V30 7 C 3.07364 -0.642169 0.0865611 0
M  V30 8 C 3.30815 0.284493 -0.925608 0
M  V30 9 C 4.60296 0.469575 -1.33176 0
M  V30 10 C 5.67336 -0.220617 -0.781402 0
M  V30 11 C 5.40969 -1.12542 0.212566 0
M  V30 12 C 4.11888 -1.33619 0.645063 0
M  V30 13 C -2.9757 0.0263778 0.497742 0
M  V30 14 N -3.20537 -0.932294 1.4079 0
M  V30 15 C -4.47712 -1.15561 1.85232 0
M  V30 16 C -5.54189 -0.410414 1.38201 0
M  V30 17 N -5.30547 0.551122 0.467967 0
M  V30 18 C -4.03117 0.771715 0.0255307 0
M  V30 19 N -3.75637 1.78096 -0.938936 0
M  V30 20 H -1.40486 1.08743 -1.98864 0
M  V30 21 H -1.18686 2.28666 -0.623686 0
M  V30 22 H 2.48763 0.844323 -1.37981 0
M  V30 23 H 4.82902 1.18846 -2.1242 0
M  V30 24 H 6.66944 -0.0205626 -1.15446 0
M  V30 25 H 6.20101 -1.68808 0.67452 0
M  V30 26 H 3.89962 -2.0601 1.44166 0
M  V30 27 H -4.69866 -1.91921 2.58464 0
M  V30 28 H -6.54027 -0.599284 1.74314 0
M  V30 29 H -3.53824 2.75901 -0.714822 0
M  V30 30 H -3.78163 1.49343 -1.93981 0
M  V30 END ATOM
M  V30 BEGIN BOND
M  V30 1 1 1 2
M  V30 2 2 2 3 CFG=2
M  V30 3 1 3 4
M  V30 4 1 4 5
M  V30 5 2 5 6
M  V30 6 1 5 7
M  V30 7 2 7 8
M  V30 8 1 8 9
M  V30 9 2 9 10
M  V30 10 1 10 11
M  V30 11 2 11 12
M  V30 12 1 2 13
M  V30 13 2 13 14
M  V30 14 1 14 15
M  V30 15 2 15 16
M  V30 16 1 16 17
M  V30 17 2 17 18
M  V30 18 1 18 19
M  V30 19 1 12 7
M  V30 20 1 18 13
M  V30 21 1 1 20
M  V30 22 1 1 21
M  V30 23 1 8 22
M  V30 24 1 9 23
M  V30 25 1 10 24
M  V30 26 1 11 25
M  V30 27 1 12 26
M  V30 28 1 15 27
M  V30 29 1 16 28
M  V30 30 1 19 29
M  V30 31 1 19 30
M  V30 END BOND
M  V30 END CTAB
M  END
