
     RDKit          3D

  0  0  0  0  0  0  0  0  0  0999 V3000
M  V30 BEGIN CTAB
M  V30 COUNTS 39 40 0 0 0
M  V30 BEGIN ATOM
M  V30 1 N 6.28492 -0.055061 -0.155156 0
M  V30 2 C 5.43297 -1.17497 -0.466047 0
M  V30 3 C 3.99289 -0.741792 -0.49552 0
M  V30 4 C 3.40309 -0.2916 -1.65402 0
M  V30 5 C 2.08332 0.0984243 -1.65217 0
M  V30 6 C 1.28996 0.0606266 -0.507058 0
M  V30 7 C 1.87161 -0.384846 0.642571 0
M  V30 8 C 3.20875 -0.7781 0.632348 0
M  V30 9 C -0.106195 0.488418 -0.542015 0
M  V30 10 O -0.452592 1.14153 -1.55183 0
M  V30 11 N -1.02453 0.20083 0.474717 0
M  V30 12 C -2.39067 0.535172 0.619109 0
M  V30 13 C -2.76182 1.96556 0.775614 0
M  V30 14 N -2.39511 2.79667 -0.31454 0
M  V30 15 C -2.99714 -0.305741 1.76494 0
M  V30 16 C -3.23866 -1.62083 1.05563 0
M  V30 17 C -4.03518 -1.10363 -0.150054 0
M  V30 18 C -3.17163 0.028142 -0.610277 0
M  V30 19 H 7.10621 -0.419422 0.370602 0
M  V30 20 H 5.73283 0.632028 0.423976 0
M  V30 21 H 5.72128 -1.69634 -1.38234 0
M  V30 22 H 5.53158 -1.9139 0.368759 0
M  V30 23 H 4.01917 -0.262895 -2.54059 0
M  V30 24 H 1.62303 0.454422 -2.57581 0
M  V30 25 H 1.3352 -0.450656 1.60364 0
M  V30 26 H 3.63894 -1.12377 1.55016 0
M  V30 27 H -0.610584 -0.379401 1.28682 0
M  V30 28 H -2.37765 2.4192 1.71998 0
M  V30 29 H -3.8844 2.00044 0.881095 0
M  V30 30 H -3.13419 2.92068 -1.04356 0
M  V30 31 H -1.97227 3.70383 -0.0165937 0
M  V30 32 H -2.24516 -0.487358 2.55284 0
M  V30 33 H -3.92254 0.156029 2.12706 0
M  V30 34 H -3.84552 -2.31506 1.65157 0
M  V30 35 H -2.26589 -2.03205 0.739439 0
M  V30 36 H -4.19519 -1.88224 -0.893216 0
M  V30 37 H -4.99136 -0.696696 0.285623 0
M  V30 38 H -2.44714 -0.281686 -1.39063 0
M  V30 39 H -3.81035 0.796056 -1.04939 0
M  V30 END ATOM
M  V30 BEGIN BOND
M  V30 1 1 1 2
M  V30 2 1 2 3
M  V30 3 2 3 4
M  V30 4 1 4 5
M  V30 5 2 5 6
M  V30 6 1 6 7
M  V30 7 2 7 8
M  V30 8 1 6 9
M  V30 9 2 9 10
M  V30 10 1 9 11
M  V30 11 1 11 12
M  V30 12 1 12 13
M  V30 13 1 13 14
M  V30 14 1 12 15
M  V30 15 1 15 16
M  V30 16 1 16 17
M  V30 17 1 17 18
M  V30 18 1 8 3
M  V30 19 1 18 12
M  V30 20 1 1 19
M  V30 21 1 1 20
M  V30 22 1 2 21
M  V30 23 1 2 22
M  V30 24 1 4 23
M  V30 25 1 5 24
M  V30 26 1 7 25
M  V30 27 1 8 26
M  V30 28 1 11 27
M  V30 29 1 13 28
M  V30 30 1 13 29
M  V30 31 1 14 30
M  V30 32 1 14 31
M  V30 33 1 15 32
M  V30 34 1 15 33
M  V30 35 1 16 34
M  V30 36 1 16 35
M  V30 37 1 17 36
M  V30 38 1 17 37
M  V30 39 1 18 38
M  V30 40 1 18 39
M  V30 END BOND
M  V30 END CTAB
M  END
