
     RDKit          3D

  0  0  0  0  0  0  0  0  0  0999 V3000
M  V30 BEGIN CTAB
M  V30 COUNTS 39 40 0 0 0
M  V30 BEGIN ATOM
M  V30 1 C 1.6478 -4.2237 0.0759329 0
M  V30 2 O 1.54803 -2.86798 -0.314467 0
M  V30 3 C 0.489548 -2.07296 0.0579305 0
M  V30 4 O -0.393593 -2.64556 0.782697 0
M  V30 5 C 0.402968 -0.685057 -0.363334 0 CFG=2
M  V30 6 C 1.30384 0.320917 0.2125 0
M  V30 7 C 2.76443 0.23739 0.0877625 0
M  V30 8 N 3.36875 -0.925395 0.6895 0
M  V30 9 C 3.27181 0.472156 -1.28197 0
M  V30 10 N 3.96336 1.53739 -1.25407 0
M  V30 11 C 3.99344 2.09055 0.0352874 0
M  V30 12 N 4.67271 3.28511 0.44212 0
M  V30 13 N 3.32271 1.37689 0.820271 0
M  V30 14 N -0.963317 -0.248178 0.0770442 0
M  V30 15 C -1.92069 0.1387 -0.877242 0
M  V30 16 O -1.63204 0.120305 -2.12336 0
M  V30 17 C -3.26114 0.572245 -0.529477 0
M  V30 18 C -3.66683 0.701981 0.777039 0
M  V30 19 C -4.96371 1.11867 1.09948 0
M  V30 20 C -5.87084 1.41081 0.113461 0
M  V30 21 C -5.48395 1.28702 -1.20142 0
M  V30 22 C -4.20682 0.876813 -1.49561 0
M  V30 23 H 2.67456 -4.38506 0.455248 0
M  V30 24 H 1.40642 -4.84003 -0.815141 0
M  V30 25 H 0.876964 -4.39712 0.851799 0
M  V30 26 H 0.40079 -0.605932 -1.49484 0
M  V30 27 H 0.906236 1.3341 -0.101093 0
M  V30 28 H 1.08025 0.34083 1.33566 0
M  V30 29 H 4.23669 -1.23745 0.198364 0
M  V30 30 H 3.48559 -0.831931 1.71272 0
M  V30 31 H 3.08433 -0.145254 -2.12534 0
M  V30 32 H 5.68856 3.23517 0.588529 0
M  V30 33 H 4.14509 4.17672 0.583721 0
M  V30 34 H -1.20625 -0.23042 1.08069 0
M  V30 35 H -2.98464 0.483337 1.5982 0
M  V30 36 H -5.2413 1.20698 2.15387 0
M  V30 37 H -6.87339 1.73266 0.398333 0
M  V30 38 H -6.18342 1.51176 -2.01286 0
M  V30 39 H -3.88293 0.773516 -2.53463 0
M  V30 END ATOM
M  V30 BEGIN BOND
M  V30 1 1 1 2
M  V30 2 1 2 3
M  V30 3 2 3 4
M  V30 4 1 3 5
M  V30 5 1 5 6
M  V30 6 1 6 7
M  V30 7 1 7 8
M  V30 8 1 7 9
M  V30 9 2 9 10
M  V30 10 1 10 11
M  V30 11 1 11 12
M  V30 12 2 11 13
M  V30 13 1 5 14
M  V30 14 1 14 15
M  V30 15 2 15 16
M  V30 16 1 15 17
M  V30 17 2 17 18
M  V30 18 1 18 19
M  V30 19 2 19 20
M  V30 20 1 20 21
M  V30 21 2 21 22
M  V30 22 1 13 7
M  V30 23 1 22 17
M  V30 24 1 1 23
M  V30 25 1 1 24
M  V30 26 1 1 25
M  V30 27 1 5 26 CFG=3
M  V30 28 1 6 27
M  V30 29 1 6 28
M  V30 30 1 8 29
M  V30 31 1 8 30
M  V30 32 1 9 31
M  V30 33 1 12 32
M  V30 34 1 12 33
M  V30 35 1 14 34
M  V30 36 1 18 35
M  V30 37 1 19 36
M  V30 38 1 20 37
M  V30 39 1 21 38
M  V30 40 1 22 39
M  V30 END BOND
M  V30 END CTAB
M  END
