
     RDKit          3D

  0  0  0  0  0  0  0  0  0  0999 V3000
M  V30 BEGIN CTAB
M  V30 COUNTS 37 38 0 0 0
M  V30 BEGIN ATOM
M  V30 1 C -3.47974 2.2536 -0.755059 0
M  V30 2 C -2.14838 1.56845 -0.945852 0
M  V30 3 C -1.81605 0.622233 0.172898 0
M  V30 4 C -2.79401 -0.474482 0.354199 0
M  V30 5 C -1.92528 -1.71915 0.166768 0
M  V30 6 C -0.543314 -1.19025 0.586439 0
M  V30 7 N -0.500734 0.069763 -0.056764 0
M  V30 8 C 0.45729 1.00028 0.457398 0
M  V30 9 C 1.85849 0.593054 0.31234 0
M  V30 10 N 2.80782 1.42491 0.783532 0
M  V30 11 C 4.13263 1.10778 0.681051 0
M  V30 12 N 5.14445 1.97067 1.17106 0
M  V30 13 N 4.50796 -0.0404584 0.107754 0
M  V30 14 C 3.58551 -0.870017 -0.361027 0
M  V30 15 N 2.3009 -0.54364 -0.251951 0
M  V30 16 N 3.93363 -2.12223 -0.989067 0
M  V30 17 C -2.2833 -2.81268 1.11602 0
M  V30 18 H -3.52225 3.07878 -1.49781 0
M  V30 19 H -4.33046 1.57504 -1.01588 0
M  V30 20 H -3.59447 2.71766 0.239918 0
M  V30 21 H -2.18556 1.04602 -1.9224 0
M  V30 22 H -1.39458 2.37212 -1.03482 0
M  V30 23 H -1.7616 1.2131 1.1269 0
M  V30 24 H -3.21421 -0.52928 1.38199 0
M  V30 25 H -3.647 -0.468399 -0.345398 0
M  V30 26 H -1.92131 -2.02811 -0.89448 0
M  V30 27 H -0.597473 -1.12839 1.70259 0
M  V30 28 H 0.175066 -1.94105 0.237885 0
M  V30 29 H 0.251612 1.25632 1.52676 0
M  V30 30 H 0.343042 1.94783 -0.107112 0
M  V30 31 H 6.01344 2.06008 0.592456 0
M  V30 32 H 5.02577 2.48983 2.06498 0
M  V30 33 H 4.7672 -2.19089 -1.60322 0
M  V30 34 H 3.3341 -2.94493 -0.812196 0
M  V30 35 H -3.37053 -2.96699 1.24574 0
M  V30 36 H -1.76265 -2.6376 2.09627 0
M  V30 37 H -1.84599 -3.75897 0.721445 0
M  V30 END ATOM
M  V30 BEGIN BOND
M  V30 1 1 1 2
M  V30 2 1 2 3
M  V30 3 1 3 4
M  V30 4 1 4 5
M  V30 5 1 5 6
M  V30 6 1 6 7
M  V30 7 1 7 8
M  V30 8 1 8 9
M  V30 9 2 9 10
M  V30 10 1 10 11
M  V30 11 1 11 12
M  V30 12 2 11 13
M  V30 13 1 13 14
M  V30 14 2 14 15
M  V30 15 1 14 16
M  V30 16 1 5 17
M  V30 17 1 7 3
M  V30 18 1 15 9
M  V30 19 1 1 18
M  V30 20 1 1 19
M  V30 21 1 1 20
M  V30 22 1 2 21
M  V30 23 1 2 22
M  V30 24 1 3 23
M  V30 25 1 4 24
M  V30 26 1 4 25
M  V30 27 1 5 26
M  V30 28 1 6 27
M  V30 29 1 6 28
M  V30 30 1 8 29
M  V30 31 1 8 30
M  V30 32 1 12 31
M  V30 33 1 12 32
M  V30 34 1 16 33
M  V30 35 1 16 34
M  V30 36 1 17 35
M  V30 37 1 17 36
M  V30 38 1 17 37
M  V30 END BOND
M  V30 END CTAB
M  END
