
     RDKit          3D

  0  0  0  0  0  0  0  0  0  0999 V3000
M  V30 BEGIN CTAB
M  V30 COUNTS 23 24 0 0 0
M  V30 BEGIN ATOM
M  V30 1 N 3.38901 -1.62042 -0.146914 0
M  V30 2 C 2.28946 -0.725531 -0.157235 0
M  V30 3 N 2.47387 0.602142 -0.199269 0
M  V30 4 C 1.4579 1.48155 -0.210357 0
M  V30 5 N 1.69881 2.89899 -0.255869 0
M  V30 6 N 0.209185 0.98696 -0.177331 0
M  V30 7 C -0.0917401 -0.317757 -0.134264 0
M  V30 8 C 0.985058 -1.19364 -0.124175 0
M  V30 9 C -1.44625 -0.845782 -0.0986917 0
M  V30 10 C -1.82384 -2.16942 -0.053695 0
M  V30 11 N -3.1652 -2.19978 -0.0330907 0
M  V30 12 N -3.59592 -0.945454 -0.0641559 0
M  V30 13 N -2.57344 -0.11288 -0.103991 0
M  V30 14 C -2.62075 1.31889 -0.145935 0
M  V30 15 H 4.32 -1.35969 0.216915 0
M  V30 16 H 3.25264 -2.58156 -0.522006 0
M  V30 17 H 1.19117 3.57458 0.35099 0
M  V30 18 H 2.40507 3.31556 -0.910938 0
M  V30 19 H 0.82044 -2.27495 -0.0897318 0
M  V30 20 H -1.12856 -2.98805 -0.0394971 0
M  V30 21 H -2.11517 1.74381 -1.0385 0
M  V30 22 H -2.24891 1.78633 0.806309 0
M  V30 23 H -3.68282 1.62611 -0.223533 0
M  V30 END ATOM
M  V30 BEGIN BOND
M  V30 1 1 1 2
M  V30 2 2 2 3
M  V30 3 1 3 4
M  V30 4 1 4 5
M  V30 5 2 4 6
M  V30 6 1 6 7
M  V30 7 2 7 8
M  V30 8 1 7 9
M  V30 9 2 9 10
M  V30 10 1 10 11
M  V30 11 2 11 12
M  V30 12 1 12 13
M  V30 13 1 13 14
M  V30 14 1 8 2
M  V30 15 1 13 9
M  V30 16 1 1 15
M  V30 17 1 1 16
M  V30 18 1 5 17
M  V30 19 1 5 18
M  V30 20 1 8 19
M  V30 21 1 10 20
M  V30 22 1 14 21
M  V30 23 1 14 22
M  V30 24 1 14 23
M  V30 END BOND
M  V30 END CTAB
M  END
