
     RDKit          3D

  0  0  0  0  0  0  0  0  0  0999 V3000
M  V30 BEGIN CTAB
M  V30 COUNTS 69 71 0 0 0
M  V30 BEGIN ATOM
M  V30 1 C 2.67799 6.34221 -2.63735 0
M  V30 2 O 3.01567 5.05807 -2.21148 0
M  V30 3 C 1.9305 4.50851 -1.48479 0
M  V30 4 C 2.30721 3.13879 -1.03679 0
M  V30 5 O 1.38848 2.42787 -0.306989 0
M  V30 6 C 0.828369 2.66158 0.926427 0
M  V30 7 C 1.14398 3.75018 1.71525 0
M  V30 8 C 0.515836 3.8822 2.93372 0
M  V30 9 C -0.407791 2.94944 3.36012 0
M  V30 10 C -0.723155 1.8556 2.56743 0
M  V30 11 C -0.110343 1.69791 1.34401 0
M  V30 12 N -0.387662 0.576148 0.520132 0
M  V30 13 C 0.49951 -0.568714 0.485382 0
M  V30 14 C 1.59262 -0.536156 1.50318 0
M  V30 15 O 2.46631 -1.60054 1.51857 0
M  V30 16 C 3.35997 -2.04099 0.601687 0
M  V30 17 C 3.63547 -1.47291 -0.623808 0
M  V30 18 C 4.58758 -2.03759 -1.46692 0
M  V30 19 C 4.84897 -1.39646 -2.77003 0
M  V30 20 C 5.29093 -3.16919 -1.12864 0
M  V30 21 C 5.02308 -3.74251 0.0935177 0
M  V30 22 C 4.09249 -3.20021 0.929366 0
M  V30 23 N 3.83217 -3.8135 2.19291 0
M  V30 24 C -1.55702 0.544082 -0.358663 0
M  V30 25 C -2.55544 -0.506205 0.0800224 0
M  V30 26 O -3.68465 -0.533004 -0.771644 0
M  V30 27 C -4.69385 -1.44017 -0.508818 0
M  V30 28 C -5.80537 -1.4696 -1.34313 0
M  V30 29 N -5.86029 -0.577834 -2.41899 0
M  V30 30 C -6.83964 -2.3737 -1.1037 0
M  V30 31 C -6.75572 -3.24528 -0.0283895 0
M  V30 32 C -5.63958 -3.19456 0.784846 0
M  V30 33 C -5.54875 -4.13909 1.94969 0
M  V30 34 C -4.61169 -2.30335 0.555454 0
M  V30 35 H 3.52753 6.76723 -3.20388 0
M  V30 36 H 2.50208 6.98136 -1.72909 0
M  V30 37 H 1.77961 6.37248 -3.25393 0
M  V30 38 H 1.51588 5.18948 -0.759769 0
M  V30 39 H 1.1371 4.38347 -2.29381 0
M  V30 40 H 2.50271 2.54151 -1.98396 0
M  V30 41 H 3.32008 3.16801 -0.54759 0
M  V30 42 H 1.88844 4.48315 1.38442 0
M  V30 43 H 0.791718 4.75105 3.52194 0
M  V30 44 H -0.891294 3.07756 4.32982 0
M  V30 45 H -1.4501 1.11009 2.88978 0
M  V30 46 H 0.925899 -0.574082 -0.529308 0
M  V30 47 H -0.088089 -1.52584 0.552507 0
M  V30 48 H 2.17742 0.429391 1.49236 0
M  V30 49 H 1.06967 -0.465508 2.5197 0
M  V30 50 H 3.1179 -0.560676 -0.926314 0
M  V30 51 H 3.91305 -0.912033 -3.13725 0
M  V30 52 H 5.66455 -0.650486 -2.73213 0
M  V30 53 H 5.14189 -2.16217 -3.5194 0
M  V30 54 H 6.0157 -3.55645 -1.82788 0
M  V30 55 H 5.56583 -4.64879 0.399521 0
M  V30 56 H 3.51909 -4.78896 2.28642 0
M  V30 57 H 3.95463 -3.27581 3.09083 0
M  V30 58 H -2.0086 1.55601 -0.37536 0
M  V30 59 H -1.23656 0.262435 -1.39794 0
M  V30 60 H -2.85383 -0.221514 1.12631 0
M  V30 61 H -2.0726 -1.48524 0.16276 0
M  V30 62 H -5.26258 -0.728151 -3.25156 0
M  V30 63 H -6.49502 0.235963 -2.39383 0
M  V30 64 H -7.70968 -2.40947 -1.74259 0
M  V30 65 H -7.51325 -3.95521 0.202368 0
M  V30 66 H -6.53412 -4.22528 2.42472 0
M  V30 67 H -5.29542 -5.15103 1.54629 0
M  V30 68 H -4.7459 -3.79295 2.63107 0
M  V30 69 H -3.7299 -2.25057 1.18321 0
M  V30 END ATOM
M  V30 BEGIN BOND
M  V30 1 1 1 2
M  V30 2 1 2 3
M  V30 3 1 3 4
M  V30 4 1 4 5
M  V30 5 1 5 6
M  V30 6 2 6 7
M  V30 7 1 7 8
M  V30 8 2 8 9
M  V30 9 1 9 10
M  V30 10 2 10 11
M  V30 11 1 11 12
M  V30 12 1 12 13
M  V30 13 1 13 14
M  V30 14 1 14 15
M  V30 15 1 15 16
M  V30 16 2 16 17
M  V30 17 1 17 18
M  V30 18 1 18 19
M  V30 19 2 18 20
M  V30 20 1 20 21
M  V30 21 2 21 22
M  V30 22 1 22 23
M  V30 23 1 12 24
M  V30 24 1 24 25
M  V30 25 1 25 26
M  V30 26 1 26 27
M  V30 27 2 27 28
M  V30 28 1 28 29
M  V30 29 1 28 30
M  V30 30 2 30 31
M  V30 31 1 31 32
M  V30 32 1 32 33
M  V30 33 2 32 34
M  V30 34 1 11 6
M  V30 35 1 22 16
M  V30 36 1 34 27
M  V30 37 1 1 35
M  V30 38 1 1 36
M  V30 39 1 1 37
M  V30 40 1 3 38
M  V30 41 1 3 39
M  V30 42 1 4 40
M  V30 43 1 4 41
M  V30 44 1 7 42
M  V30 45 1 8 43
M  V30 46 1 9 44
M  V30 47 1 10 45
M  V30 48 1 13 46
M  V30 49 1 13 47
M  V30 50 1 14 48
M  V30 51 1 14 49
M  V30 52 1 17 50
M  V30 53 1 19 51
M  V30 54 1 19 52
M  V30 55 1 19 53
M  V30 56 1 20 54
M  V30 57 1 21 55
M  V30 58 1 23 56
M  V30 59 1 23 57
M  V30 60 1 24 58
M  V30 61 1 24 59
M  V30 62 1 25 60
M  V30 63 1 25 61
M  V30 64 1 29 62
M  V30 65 1 29 63
M  V30 66 1 30 64
M  V30 67 1 31 65
M  V30 68 1 33 66
M  V30 69 1 33 67
M  V30 70 1 33 68
M  V30 71 1 34 69
M  V30 END BOND
M  V30 END CTAB
M  END
