
     RDKit          3D

  0  0  0  0  0  0  0  0  0  0999 V3000
M  V30 BEGIN CTAB
M  V30 COUNTS 31 34 0 0 0
M  V30 BEGIN ATOM
M  V30 1 N 5.14251 0.794452 -0.416162 0
M  V30 2 C 4.08044 -0.0105079 0.0650578 0
M  V30 3 N 4.19594 -1.15603 0.741418 0
M  V30 4 N 2.97634 -1.63531 1.031 0
M  V30 5 C 2.08331 -0.769053 0.523749 0
M  V30 6 N 2.75164 0.223338 -0.0662381 0
M  V30 7 N 2.14038 1.20845 -0.645978 0
M  V30 8 C 0.753164 1.26671 -0.674963 0
M  V30 9 N 0.223861 2.36201 -1.37002 0
M  V30 10 C 0.0351267 0.275371 -0.0844393 0
M  V30 11 C 0.700679 -0.789882 0.544481 0
M  V30 12 C -0.0128807 -1.84665 1.26506 0
M  V30 13 C -1.39336 -2.07836 0.786675 0
M  V30 14 C -2.10638 -0.867047 0.322592 0
M  V30 15 C -3.51062 -0.882421 0.34007 0
M  V30 16 C -4.19705 0.187863 -0.148189 0
M  V30 17 C -3.53079 1.27357 -0.65269 0
M  V30 18 C -2.13088 1.31462 -0.679633 0
M  V30 19 C -1.4333 0.24874 -0.193584 0
M  V30 20 H 5.29339 0.956919 -1.43772 0
M  V30 21 H 5.8321 1.26941 0.216299 0
M  V30 22 H 0.129893 3.28398 -0.845288 0
M  V30 23 H -0.0582661 2.39385 -2.3757 0
M  V30 24 H -0.06359 -1.50944 2.34922 0
M  V30 25 H 0.540144 -2.82412 1.23732 0
M  V30 26 H -1.3922 -2.87553 -0.00554291 0
M  V30 27 H -1.9924 -2.50719 1.64157 0
M  V30 28 H -3.98145 -1.76415 0.750107 0
M  V30 29 H -5.27492 0.143443 -0.121047 0
M  V30 30 H -4.08117 2.12571 -1.04259 0
M  V30 31 H -1.71968 2.18726 -1.05484 0
M  V30 END ATOM
M  V30 BEGIN BOND
M  V30 1 1 1 2
M  V30 2 2 2 3
M  V30 3 1 3 4
M  V30 4 2 4 5
M  V30 5 1 5 6
M  V30 6 1 6 7
M  V30 7 2 7 8
M  V30 8 1 8 9
M  V30 9 1 8 10
M  V30 10 2 10 11
M  V30 11 1 11 12
M  V30 12 1 12 13
M  V30 13 1 13 14
M  V30 14 2 14 15
M  V30 15 1 15 16
M  V30 16 2 16 17
M  V30 17 1 17 18
M  V30 18 2 18 19
M  V30 19 1 6 2
M  V30 20 1 19 10
M  V30 21 1 11 5
M  V30 22 1 19 14
M  V30 23 1 1 20
M  V30 24 1 1 21
M  V30 25 1 9 22
M  V30 26 1 9 23
M  V30 27 1 12 24
M  V30 28 1 12 25
M  V30 29 1 13 26
M  V30 30 1 13 27
M  V30 31 1 15 28
M  V30 32 1 16 29
M  V30 33 1 17 30
M  V30 34 1 18 31
M  V30 END BOND
M  V30 END CTAB
M  END
