
     RDKit          3D

  0  0  0  0  0  0  0  0  0  0999 V3000
M  V30 BEGIN CTAB
M  V30 COUNTS 28 29 0 0 0
M  V30 BEGIN ATOM
M  V30 1 O -3.99351 -1.38033 -1.43367 0
M  V30 2 C -3.414 -1.05435 -0.214253 0
M  V30 3 O -4.20543 -0.760392 0.736179 0
M  V30 4 C -1.94209 -1.05035 -0.0330082 0
M  V30 5 C -1.64458 -0.661265 1.37908 0
M  V30 6 C -1.04966 0.719044 1.27319 0
M  V30 7 C -0.298698 0.734227 -0.0470568 0
M  V30 8 C -1.25387 -0.0585304 -0.938129 0
M  V30 9 C 1.01382 0.0489638 0.0541909 0
M  V30 10 N 1.24214 -1.21899 0.443885 0
M  V30 11 N 2.51518 -1.49115 0.414943 0
M  V30 12 C 3.14138 -0.368724 -0.00621478 0
M  V30 13 N 2.21618 0.586018 -0.230359 0
M  V30 14 N 2.47231 1.88645 -0.675133 0
M  V30 15 N 4.5454 -0.168774 -0.2001 0
M  V30 16 H -4.46818 -0.622723 -1.94223 0
M  V30 17 H -1.5007 -2.0492 -0.237361 0
M  V30 18 H -0.987766 -1.36941 1.91632 0
M  V30 19 H -2.572 -0.577716 1.99968 0
M  V30 20 H -0.36694 0.963007 2.10408 0
M  V30 21 H -1.88186 1.43704 1.20757 0
M  V30 22 H -0.153147 1.75598 -0.391376 0
M  V30 23 H -2.02111 0.619215 -1.37154 0
M  V30 24 H -0.728164 -0.523016 -1.78308 0
M  V30 25 H 1.73521 2.47519 -1.12112 0
M  V30 26 H 3.41757 2.31565 -0.575113 0
M  V30 27 H 4.99818 -0.33135 -1.12945 0
M  V30 28 H 5.18435 0.145491 0.564057 0
M  V30 END ATOM
M  V30 BEGIN BOND
M  V30 1 1 1 2
M  V30 2 2 2 3
M  V30 3 1 2 4
M  V30 4 1 4 5
M  V30 5 1 5 6
M  V30 6 1 6 7
M  V30 7 1 7 8
M  V30 8 1 7 9
M  V30 9 2 9 10
M  V30 10 1 10 11
M  V30 11 2 11 12
M  V30 12 1 12 13
M  V30 13 1 13 14
M  V30 14 1 12 15
M  V30 15 1 8 4
M  V30 16 1 13 9
M  V30 17 1 1 16
M  V30 18 1 4 17
M  V30 19 1 5 18
M  V30 20 1 5 19
M  V30 21 1 6 20
M  V30 22 1 6 21
M  V30 23 1 7 22
M  V30 24 1 8 23
M  V30 25 1 8 24
M  V30 26 1 14 25
M  V30 27 1 14 26
M  V30 28 1 15 27
M  V30 29 1 15 28
M  V30 END BOND
M  V30 END CTAB
M  END
