
     RDKit          3D

  0  0  0  0  0  0  0  0  0  0999 V3000
M  V30 BEGIN CTAB
M  V30 COUNTS 25 26 0 0 0
M  V30 BEGIN ATOM
M  V30 1 N -0.714453 2.42843 -0.38081 0
M  V30 2 C -1.24262 1.1655 0.00454729 0
M  V30 3 C -2.55903 1.07295 0.459682 0
M  V30 4 C -3.09148 -0.137937 0.79568 0
M  V30 5 C -2.28754 -1.24669 0.667509 0
M  V30 6 C -0.988795 -1.18721 0.222371 0
M  V30 7 C -0.432243 0.0544498 -0.12278 0
M  V30 8 N 0.911581 -0.113567 -0.524026 0
M  V30 9 C 0.952427 -1.49293 -1.06728 0
M  V30 10 C 0.0668299 -2.21253 -0.0500728 0
M  V30 11 S 2.24998 0.933304 -0.379995 0
M  V30 12 O 2.86685 1.2576 -1.72055 0
M  V30 13 O 1.99068 2.22881 0.311952 0
M  V30 14 N 3.4774 0.167665 0.651687 0
M  V30 15 H -0.694597 3.2454 0.250622 0
M  V30 16 H -0.339375 2.52186 -1.34359 0
M  V30 17 H -3.13113 1.98085 0.53477 0
M  V30 18 H -4.12411 -0.252789 1.15899 0
M  V30 19 H -2.71555 -2.20187 0.934586 0
M  V30 20 H 0.524216 -1.43195 -2.06505 0
M  V30 21 H 1.94003 -1.91739 -1.09373 0
M  V30 22 H -0.343369 -3.09727 -0.571359 0
M  V30 23 H 0.634607 -2.49437 0.848007 0
M  V30 24 H 2.91882 -0.171655 1.47138 0
M  V30 25 H 4.13088 0.901344 1.00746 0
M  V30 END ATOM
M  V30 BEGIN BOND
M  V30 1 1 1 2
M  V30 2 2 2 3
M  V30 3 1 3 4
M  V30 4 2 4 5
M  V30 5 1 5 6
M  V30 6 2 6 7
M  V30 7 1 7 8
M  V30 8 1 8 9
M  V30 9 1 9 10
M  V30 10 1 8 11
M  V30 11 2 11 12
M  V30 12 2 11 13
M  V30 13 1 11 14
M  V30 14 1 7 2
M  V30 15 1 10 6
M  V30 16 1 1 15
M  V30 17 1 1 16
M  V30 18 1 3 17
M  V30 19 1 4 18
M  V30 20 1 5 19
M  V30 21 1 9 20
M  V30 22 1 9 21
M  V30 23 1 10 22
M  V30 24 1 10 23
M  V30 25 1 14 24
M  V30 26 1 14 25
M  V30 END BOND
M  V30 END CTAB
M  END
