
     RDKit          3D

  0  0  0  0  0  0  0  0  0  0999 V3000
M  V30 BEGIN CTAB
M  V30 COUNTS 18 17 0 0 0
M  V30 BEGIN ATOM
M  V30 1 N 2.69051 0.0234877 0.316282 0
M  V30 2 C 1.32287 0.0830677 0.587742 0
M  V30 3 C 0.45911 -0.491421 -0.502866 0
M  V30 4 C -0.984462 -0.341705 -0.0373373 0 CFG=2
M  V30 5 N -1.90758 -0.868813 -1.0238 0
M  V30 6 C -1.27713 1.12626 0.136131 0
M  V30 7 H 3.2696 0.190866 1.08831 0
M  V30 8 H 3.06134 -0.123891 -0.542824 0
M  V30 9 H 1.10681 -0.481681 1.5124 0
M  V30 10 H 1.00018 1.12448 0.758625 0
M  V30 11 H 0.60117 0.0194684 -1.4772 0
M  V30 12 H 0.690221 -1.56884 -0.694384 0
M  V30 13 H -1.10255 -0.902911 0.913201 0
M  V30 14 H -2.83204 -0.387064 -0.842257 0
M  V30 15 H -2.10919 -1.89012 -0.833141 0
M  V30 16 H -2.31477 1.37349 -0.16392 0
M  V30 17 H -1.12785 1.36529 1.22236 0
M  V30 18 H -0.546226 1.75003 -0.417326 0
M  V30 END ATOM
M  V30 BEGIN BOND
M  V30 1 1 1 2
M  V30 2 1 2 3
M  V30 3 1 3 4
M  V30 4 1 4 5
M  V30 5 1 4 6
M  V30 6 1 1 7
M  V30 7 1 1 8
M  V30 8 1 2 9
M  V30 9 1 2 10
M  V30 10 1 3 11
M  V30 11 1 3 12
M  V30 12 1 4 13 CFG=1
M  V30 13 1 5 14
M  V30 14 1 5 15
M  V30 15 1 6 16
M  V30 16 1 6 17
M  V30 17 1 6 18
M  V30 END BOND
M  V30 END CTAB
M  END
