
     RDKit          3D

  0  0  0  0  0  0  0  0  0  0999 V3000
M  V30 BEGIN CTAB
M  V30 COUNTS 40 39 0 0 0
M  V30 BEGIN ATOM
M  V30 1 C -4.77183 0.0591321 -0.360848 0 CFG=1
M  V30 2 N -5.63429 -1.06951 -0.0537667 0
M  V30 3 C -3.37247 -0.386547 -0.0608648 0
M  V30 4 C -2.3228 0.628334 -0.307466 0
M  V30 5 C -0.961471 0.0257149 0.0676349 0
M  V30 6 C -0.606895 -1.18515 -0.715324 0
M  V30 7 N 0.674779 -1.68572 -0.328645 0
M  V30 8 C 1.86962 -0.921667 -0.508635 0
M  V30 9 O 1.74606 0.199405 -1.0288 0
M  V30 10 C 3.17555 -1.4324 -0.100858 0
M  V30 11 C 4.30751 -0.48257 0.0393676 0
M  V30 12 C 4.23147 0.537268 1.12777 0 CFG=2
M  V30 13 N 3.13286 1.40391 1.01986 0
M  V30 14 C 5.54635 1.27367 1.17106 0
M  V30 15 O 5.65838 2.63892 1.11197 0
M  V30 16 O 6.57595 0.562608 1.26702 0
M  V30 17 C -5.02937 0.507991 -1.7159 0
M  V30 18 O -4.4162 1.58862 -2.34838 0
M  V30 19 O -5.87395 -0.101663 -2.42093 0
M  V30 20 H -5.04849 0.87124 0.344817 0
M  V30 21 H -5.27199 -1.96468 -0.474723 0
M  V30 22 H -6.59163 -0.93309 -0.450731 0
M  V30 23 H -3.35269 -0.723952 0.994286 0
M  V30 24 H -3.18632 -1.25643 -0.725843 0
M  V30 25 H -2.27983 0.884241 -1.3913 0
M  V30 26 H -2.41568 1.53808 0.325279 0
M  V30 27 H -1.13091 -0.334624 1.13215 0
M  V30 28 H -0.193111 0.7873 0.127404 0
M  V30 29 H -0.543773 -0.969954 -1.80915 0
M  V30 30 H -1.35787 -2.0154 -0.534925 0
M  V30 31 H 0.772318 -2.65292 0.109027 0
M  V30 32 H 3.0504 -1.97906 0.89628 0
M  V30 33 H 3.4802 -2.26035 -0.825579 0
M  V30 34 H 5.29537 -1.05442 0.102909 0
M  V30 35 H 4.39316 0.132236 -0.924575 0
M  V30 36 H 4.11405 -0.0129878 2.12193 0
M  V30 37 H 2.72706 1.71347 1.95257 0
M  V30 38 H 3.25931 2.2301 0.395136 0
M  V30 39 H 4.91699 3.29454 1.19972 0
M  V30 40 H -4.56584 2.54631 -2.02031 0
M  V30 END ATOM
M  V30 BEGIN BOND
M  V30 1 1 1 2
M  V30 2 1 1 3
M  V30 3 1 3 4
M  V30 4 1 4 5
M  V30 5 1 5 6
M  V30 6 1 6 7
M  V30 7 1 7 8
M  V30 8 2 8 9
M  V30 9 1 8 10
M  V30 10 1 10 11
M  V30 11 1 11 12
M  V30 12 1 12 13
M  V30 13 1 12 14
M  V30 14 1 14 15
M  V30 15 2 14 16
M  V30 16 1 1 17
M  V30 17 1 17 18
M  V30 18 2 17 19
M  V30 19 1 1 20 CFG=1
M  V30 20 1 2 21
M  V30 21 1 2 22
M  V30 22 1 3 23
M  V30 23 1 3 24
M  V30 24 1 4 25
M  V30 25 1 4 26
M  V30 26 1 5 27
M  V30 27 1 5 28
M  V30 28 1 6 29
M  V30 29 1 6 30
M  V30 30 1 7 31
M  V30 31 1 10 32
M  V30 32 1 10 33
M  V30 33 1 11 34
M  V30 34 1 11 35
M  V30 35 1 12 36 CFG=1
M  V30 36 1 13 37
M  V30 37 1 13 38
M  V30 38 1 15 39
M  V30 39 1 18 40
M  V30 END BOND
M  V30 END CTAB
M  END
