
     RDKit          3D

  0  0  0  0  0  0  0  0  0  0999 V3000
M  V30 BEGIN CTAB
M  V30 COUNTS 25 25 0 0 0
M  V30 BEGIN ATOM
M  V30 1 O 2.26356 -2.02473 0.600118 0
M  V30 2 C 2.15475 -0.672615 0.874623 0
M  V30 3 C 2.30989 0.0802645 -0.421837 0
M  V30 4 S 1.0259 -0.413453 -1.5745 0
M  V30 5 C -0.571644 0.0998779 -0.994149 0
M  V30 6 C -1.30253 -0.738494 -0.186867 0
M  V30 7 C -2.54958 -0.393566 0.294037 0
M  V30 8 N -3.22966 -1.3197 1.12209 0
M  V30 9 N -3.07056 0.800928 -0.0351506 0
M  V30 10 C -2.35882 1.62114 -0.822629 0
M  V30 11 N -1.13546 1.29077 -1.29871 0
M  V30 12 N -2.96515 2.87252 -1.13432 0
M  V30 13 C 3.69831 -0.183803 -0.958083 0
M  V30 14 H 1.37451 -2.40145 0.424152 0
M  V30 15 H 3.01036 -0.367408 1.52203 0
M  V30 16 H 1.18016 -0.395302 1.30893 0
M  V30 17 H 2.15508 1.16854 -0.194271 0
M  V30 18 H -0.898352 -1.70764 0.0917283 0
M  V30 19 H -3.80994 -2.04741 0.691103 0
M  V30 20 H -3.13632 -1.25335 2.14115 0
M  V30 21 H -3.58214 2.95602 -1.96447 0
M  V30 22 H -2.77795 3.68846 -0.514821 0
M  V30 23 H 4.41862 -0.481362 -0.171074 0
M  V30 24 H 4.08313 0.779847 -1.40412 0
M  V30 25 H 3.71385 -0.958078 -1.7306 0
M  V30 END ATOM
M  V30 BEGIN BOND
M  V30 1 1 1 2
M  V30 2 1 2 3
M  V30 3 1 3 4
M  V30 4 1 4 5
M  V30 5 2 5 6
M  V30 6 1 6 7
M  V30 7 1 7 8
M  V30 8 2 7 9
M  V30 9 1 9 10
M  V30 10 2 10 11
M  V30 11 1 10 12
M  V30 12 1 3 13
M  V30 13 1 11 5
M  V30 14 1 1 14
M  V30 15 1 2 15
M  V30 16 1 2 16
M  V30 17 1 3 17
M  V30 18 1 6 18
M  V30 19 1 8 19
M  V30 20 1 8 20
M  V30 21 1 12 21
M  V30 22 1 12 22
M  V30 23 1 13 23
M  V30 24 1 13 24
M  V30 25 1 13 25
M  V30 END BOND
M  V30 END CTAB
M  END
