
     RDKit          3D

  0  0  0  0  0  0  0  0  0  0999 V3000
M  V30 BEGIN CTAB
M  V30 COUNTS 22 22 0 0 0
M  V30 BEGIN ATOM
M  V30 1 C -1.27199 1.91526 0.436992 0
M  V30 2 N -1.53927 0.555315 0.059685 0
M  V30 3 N -2.76836 0.166046 -0.314484 0
M  V30 4 C -2.73597 -1.1427 -0.60689 0
M  V30 5 C -1.45193 -1.56824 -0.40671 0
M  V30 6 C -0.689671 -0.463868 0.0229477 0
M  V30 7 C 0.747096 -0.582928 0.321498 0
M  V30 8 C 1.52778 0.678506 0.337691 0
M  V30 9 N 2.95417 0.410512 0.638778 0
M  V30 10 N 1.33274 -1.42108 -0.747827 0
M  V30 11 H -1.07173 1.99798 1.54529 0
M  V30 12 H -0.474868 2.38728 -0.171348 0
M  V30 13 H -2.17398 2.57591 0.283877 0
M  V30 14 H -3.58523 -1.75811 -0.94499 0
M  V30 15 H -1.09476 -2.58333 -0.556425 0
M  V30 16 H 0.913133 -1.19331 1.25757 0
M  V30 17 H 1.17066 1.31302 1.18274 0
M  V30 18 H 1.54753 1.23335 -0.592996 0
M  V30 19 H 3.31189 -0.385417 0.0953551 0
M  V30 20 H 3.45111 1.30948 0.448648 0
M  V30 21 H 0.887085 -1.04374 -1.63154 0
M  V30 22 H 1.01457 -2.39994 -0.657857 0
M  V30 END ATOM
M  V30 BEGIN BOND
M  V30 1 1 1 2
M  V30 2 1 2 3
M  V30 3 2 3 4
M  V30 4 1 4 5
M  V30 5 2 5 6
M  V30 6 1 6 7
M  V30 7 1 7 8
M  V30 8 1 8 9
M  V30 9 1 7 10
M  V30 10 1 6 2
M  V30 11 1 1 11
M  V30 12 1 1 12
M  V30 13 1 1 13
M  V30 14 1 4 14
M  V30 15 1 5 15
M  V30 16 1 7 16
M  V30 17 1 8 17
M  V30 18 1 8 18
M  V30 19 1 9 19
M  V30 20 1 9 20
M  V30 21 1 10 21
M  V30 22 1 10 22
M  V30 END BOND
M  V30 END CTAB
M  END
