
     RDKit          3D

  0  0  0  0  0  0  0  0  0  0999 V3000
M  V30 BEGIN CTAB
M  V30 COUNTS 69 73 0 0 0
M  V30 BEGIN ATOM
M  V30 1 N -8.67198 3.21331 -1.29087 0
M  V30 2 C -9.42147 2.15476 -0.64547 0
M  V30 3 C -8.7832 0.846619 -1.05514 0
M  V30 4 C -7.32569 0.802103 -0.608963 0
M  V30 5 O -6.76919 -0.42702 -1.01387 0
M  V30 6 C -5.47783 -0.820806 -0.780091 0
M  V30 7 C -5.0647 -2.0517 -1.23703 0
M  V30 8 C -3.79592 -2.53216 -1.05129 0
M  V30 9 C -2.84074 -1.77333 -0.372247 0
M  V30 10 C -3.23819 -0.543462 0.0882146 0
M  V30 11 C -4.52621 -0.0921031 -0.116997 0
M  V30 12 C -1.50701 -2.33098 -0.238055 0
M  V30 13 O -1.33951 -3.4363 -0.944649 0
M  V30 14 N -0.411032 -1.90718 0.490502 0
M  V30 15 C -0.311573 -0.792467 1.34805 0
M  V30 16 C 0.931287 -1.01027 2.21537 0
M  V30 17 C 2.2157 -0.883177 1.41048 0
M  V30 18 C 1.98377 -1.75477 0.166954 0
M  V30 19 C 0.830422 -2.70621 0.365022 0
M  V30 20 O 3.18455 -1.49652 2.14176 0
M  V30 21 C 4.4928 -1.163 1.82422 0
M  V30 22 C 4.60161 0.332994 1.88986 0 CFG=2
M  V30 23 C 3.81436 1.04487 0.908553 0 CFG=2
M  V30 24 C 2.36938 0.53687 1.05048 0
M  V30 25 N 4.10666 1.16525 -0.442079 0
M  V30 26 C 3.22161 1.77508 -1.28061 0
M  V30 27 N 3.74076 1.76619 -2.51678 0
M  V30 28 C 4.94823 1.16409 -2.51178 0
M  V30 29 C 5.14416 0.800603 -1.19532 0
M  V30 30 N 6.27178 0.181167 -0.886522 0
M  V30 31 C 7.18812 -0.0834157 -1.81806 0
M  V30 32 N 7.00966 0.265678 -3.11012 0
M  V30 33 C 5.8902 0.893522 -3.48176 0
M  V30 34 N 5.60673 1.29932 -4.79908 0
M  V30 35 C 5.97942 0.841202 2.22848 0
M  V30 36 O 3.87129 0.601543 3.11212 0
M  V30 37 H -8.1848 2.84131 -2.12474 0
M  V30 38 H -9.35408 3.91655 -1.62748 0
M  V30 39 H -10.4686 2.16432 -0.964317 0
M  V30 40 H -9.36552 2.2656 0.459571 0
M  V30 41 H -8.84764 0.70626 -2.14971 0
M  V30 42 H -9.2751 -0.0232934 -0.57054 0
M  V30 43 H -6.75908 1.61683 -1.10743 0
M  V30 44 H -7.2616 0.958906 0.485069 0
M  V30 45 H -5.78308 -2.68916 -1.77905 0
M  V30 46 H -3.51739 -3.52371 -1.43291 0
M  V30 47 H -2.56093 0.106564 0.601924 0
M  V30 48 H -4.84696 0.890653 0.251002 0
M  V30 49 H -1.13003 -0.733706 2.12243 0
M  V30 50 H -0.27398 0.205127 0.871838 0
M  V30 51 H 0.89917 -0.247999 3.0428 0
M  V30 52 H 0.805946 -1.98489 2.7067 0
M  V30 53 H 1.76545 -1.12015 -0.722613 0
M  V30 54 H 2.88087 -2.34225 -0.0986752 0
M  V30 55 H 0.977346 -3.35679 1.23507 0
M  V30 56 H 0.758849 -3.29628 -0.580352 0
M  V30 57 H 4.70842 -1.64259 0.884033 0
M  V30 58 H 5.14656 -1.63545 2.5886 0
M  V30 59 H 3.73765 2.11814 1.31991 0
M  V30 60 H 1.80552 0.661388 0.0789886 0
M  V30 61 H 1.7901 1.18628 1.76042 0
M  V30 62 H 2.25746 2.22145 -1.08509 0
M  V30 63 H 8.10437 -0.594664 -1.52313 0
M  V30 64 H 6.28557 1.92356 -5.28243 0
M  V30 65 H 4.75847 1.02043 -5.33636 0
M  V30 66 H 6.24307 1.78106 1.69554 0
M  V30 67 H 6.11512 1.10671 3.31334 0
M  V30 68 H 6.76853 0.0404474 2.09712 0
M  V30 69 H 3.90207 1.57908 3.27384 0
M  V30 END ATOM
M  V30 BEGIN BOND
M  V30 1 1 1 2
M  V30 2 1 2 3
M  V30 3 1 3 4
M  V30 4 1 4 5
M  V30 5 1 5 6
M  V30 6 2 6 7
M  V30 7 1 7 8
M  V30 8 2 8 9
M  V30 9 1 9 10
M  V30 10 2 10 11
M  V30 11 1 9 12
M  V30 12 2 12 13
M  V30 13 1 12 14
M  V30 14 1 14 15
M  V30 15 1 15 16
M  V30 16 1 16 17
M  V30 17 1 17 18
M  V30 18 1 18 19
M  V30 19 1 17 20
M  V30 20 1 20 21
M  V30 21 1 21 22
M  V30 22 1 22 23
M  V30 23 1 23 24
M  V30 24 1 23 25
M  V30 25 1 25 26
M  V30 26 2 26 27
M  V30 27 1 27 28
M  V30 28 2 28 29
M  V30 29 1 29 30
M  V30 30 2 30 31
M  V30 31 1 31 32
M  V30 32 2 32 33
M  V30 33 1 33 34
M  V30 34 1 22 35
M  V30 35 1 22 36 CFG=1
M  V30 36 1 11 6
M  V30 37 1 19 14
M  V30 38 1 29 25
M  V30 39 1 24 17
M  V30 40 1 33 28
M  V30 41 1 1 37
M  V30 42 1 1 38
M  V30 43 1 2 39
M  V30 44 1 2 40
M  V30 45 1 3 41
M  V30 46 1 3 42
M  V30 47 1 4 43
M  V30 48 1 4 44
M  V30 49 1 7 45
M  V30 50 1 8 46
M  V30 51 1 10 47
M  V30 52 1 11 48
M  V30 53 1 15 49
M  V30 54 1 15 50
M  V30 55 1 16 51
M  V30 56 1 16 52
M  V30 57 1 18 53
M  V30 58 1 18 54
M  V30 59 1 19 55
M  V30 60 1 19 56
M  V30 61 1 21 57
M  V30 62 1 21 58
M  V30 63 1 23 59 CFG=1
M  V30 64 1 24 60
M  V30 65 1 24 61
M  V30 66 1 26 62
M  V30 67 1 31 63
M  V30 68 1 34 64
M  V30 69 1 34 65
M  V30 70 1 35 66
M  V30 71 1 35 67
M  V30 72 1 35 68
M  V30 73 1 36 69
M  V30 END BOND
M  V30 END CTAB
M  END
