
     RDKit          3D

  0  0  0  0  0  0  0  0  0  0999 V3000
M  V30 BEGIN CTAB
M  V30 COUNTS 29 29 0 0 0
M  V30 BEGIN ATOM
M  V30 1 C 4.04852 -1.27332 0.715108 0
M  V30 2 O 3.19254 -0.62735 -0.245997 0
M  V30 3 C 1.87916 -1.09953 -0.379358 0
M  V30 4 O 1.55562 -2.06021 0.359864 0
M  V30 5 C 0.890501 -0.511845 -1.3388 0
M  V30 6 C -0.236369 0.142872 -0.635313 0
M  V30 7 C -1.23488 -0.626853 -0.0522447 0
M  V30 8 O -1.20666 -2.00566 -0.141094 0
M  V30 9 C -2.173 -2.86226 0.418824 0
M  V30 10 C -2.29377 -0.0480021 0.632612 0
M  V30 11 C -2.37808 1.32907 0.751212 0
M  V30 12 C -1.38995 2.09967 0.173571 0
M  V30 13 C -0.316256 1.53121 -0.521219 0
M  V30 14 N 0.661806 2.3886 -1.07914 0
M  V30 15 N -1.42175 3.52646 0.250991 0
M  V30 16 H 5.0261 -1.51497 0.255797 0
M  V30 17 H 4.2357 -0.551728 1.55239 0
M  V30 18 H 3.54637 -2.18667 1.12232 0
M  V30 19 H 1.34188 0.186962 -2.05773 0
M  V30 20 H 0.518748 -1.37161 -1.97608 0
M  V30 21 H -1.94027 -2.85302 1.53309 0
M  V30 22 H -2.05407 -3.8937 0.00936017 0
M  V30 23 H -3.19654 -2.49652 0.248861 0
M  V30 24 H -3.08812 -0.652251 1.10511 0
M  V30 25 H -3.17624 1.81059 1.27624 0
M  V30 26 H 0.616987 3.41812 -0.901146 0
M  V30 27 H 1.45914 2.09699 -1.66768 0
M  V30 28 H -1.41195 3.98396 1.1748 0
M  V30 29 H -1.45517 4.12101 -0.584345 0
M  V30 END ATOM
M  V30 BEGIN BOND
M  V30 1 1 1 2
M  V30 2 1 2 3
M  V30 3 2 3 4
M  V30 4 1 3 5
M  V30 5 1 5 6
M  V30 6 2 6 7
M  V30 7 1 7 8
M  V30 8 1 8 9
M  V30 9 1 7 10
M  V30 10 2 10 11
M  V30 11 1 11 12
M  V30 12 2 12 13
M  V30 13 1 13 14
M  V30 14 1 12 15
M  V30 15 1 13 6
M  V30 16 1 1 16
M  V30 17 1 1 17
M  V30 18 1 1 18
M  V30 19 1 5 19
M  V30 20 1 5 20
M  V30 21 1 9 21
M  V30 22 1 9 22
M  V30 23 1 9 23
M  V30 24 1 10 24
M  V30 25 1 11 25
M  V30 26 1 14 26
M  V30 27 1 14 27
M  V30 28 1 15 28
M  V30 29 1 15 29
M  V30 END BOND
M  V30 END CTAB
M  END
