
     RDKit          3D

  0  0  0  0  0  0  0  0  0  0999 V3000
M  V30 BEGIN CTAB
M  V30 COUNTS 85 90 0 0 0
M  V30 BEGIN ATOM
M  V30 1 N 1.5578 2.62433 -0.195611 0
M  V30 2 C 1.88127 1.54176 -0.209628 0
M  V30 3 C 2.3353 0.169622 -0.215554 0
M  V30 4 C 3.33896 -0.160104 0.702798 0
M  V30 5 C 3.88405 -1.45404 0.74641 0
M  V30 6 C 3.38759 -2.35444 -0.139403 0
M  V30 7 C 2.4066 -1.99917 -1.02364 0
M  V30 8 C 1.83613 -0.740233 -1.10826 0
M  V30 9 C 0.842223 -0.488548 -2.10799 0
M  V30 10 C -0.559531 -0.328264 -1.86665 0
M  V30 11 C -1.13081 0.941984 -1.9847 0
M  V30 12 C -2.44149 1.21334 -1.81913 0
M  V30 13 C -3.34388 0.194224 -1.50581 0
M  V30 14 C -2.82539 -1.06734 -1.38138 0
M  V30 15 C -1.45394 -1.31341 -1.56138 0
M  V30 16 C -1.02529 -2.69877 -1.4455 0
M  V30 17 N -0.716466 -3.80052 -1.36739 0
M  V30 18 N -4.71814 0.499298 -1.37248 0
M  V30 19 C -5.70096 -0.199485 -0.66803 0
M  V30 20 O -5.41485 -1.25041 -0.0249391 0
M  V30 21 C -7.11915 0.202252 -0.603883 0
M  V30 22 S -7.35035 1.47965 0.65819 0
M  V30 23 C -9.12721 1.84905 0.700399 0
M  V30 24 N -9.59881 2.6742 1.55819 0
M  V30 25 C -10.9834 3.01898 1.65601 0
M  V30 26 N -11.78 2.46763 0.834315 0
M  V30 27 C -11.4186 1.52707 -0.190628 0
M  V30 28 N -10.0105 1.20931 -0.199652 0
M  V30 29 C -12.2097 0.269368 -0.15045 0
M  V30 30 C -12.4534 -0.415189 0.999264 0
M  V30 31 C -13.1964 -1.58406 0.943149 0
M  V30 32 C -13.7018 -2.08887 -0.222012 0
M  V30 33 C -13.4453 -1.37865 -1.38714 0
M  V30 34 C -12.7065 -0.212597 -1.34654 0
M  V30 35 Cl -12.3989 0.660578 -2.84978 0
M  V30 36 N -11.4269 3.94391 2.64168 0
M  V30 37 N 4.8969 -1.7387 1.7082 0
M  V30 38 C 5.93254 -2.6222 1.4277 0
M  V30 39 O 6.02817 -3.19898 0.325444 0
M  V30 40 C 7.00282 -2.93594 2.42881 0
M  V30 41 S 7.94601 -1.41837 2.81549 0
M  V30 42 C 8.80452 -0.838463 1.35137 0
M  V30 43 N 8.768 -1.45948 0.228279 0
M  V30 44 C 9.4514 -0.980137 -0.920394 0
M  V30 45 N 10.1252 0.109522 -0.850157 0
M  V30 46 C 10.251 0.922765 0.335188 0
M  V30 47 N 9.57688 0.334041 1.46406 0
M  V30 48 C 11.6287 1.36017 0.623596 0
M  V30 49 C 11.8575 2.69432 0.990007 0
M  V30 50 C 13.1209 3.16495 1.27155 0
M  V30 51 C 14.2174 2.34007 1.20554 0
M  V30 52 C 14.0024 1.03092 0.847531 0
M  V30 53 C 12.7374 0.558624 0.564597 0
M  V30 54 Cl 12.565 -1.13687 0.119477 0
M  V30 55 N 9.42307 -1.67214 -2.18191 0
M  V30 56 H 3.73233 0.560175 1.40755 0
M  V30 57 H 3.7677 -3.3738 -0.128198 0
M  V30 58 H 2.07176 -2.7551 -1.70789 0
M  V30 59 H 1.21467 0.438977 -2.68854 0
M  V30 60 H 0.934606 -1.26794 -2.94254 0
M  V30 61 H -0.481923 1.77182 -2.23394 0
M  V30 62 H -2.83851 2.23268 -1.92407 0
M  V30 63 H -3.47793 -1.90469 -1.14748 0
M  V30 64 H -5.02666 1.39268 -1.89649 0
M  V30 65 H -7.42489 0.63243 -1.57842 0
M  V30 66 H -7.79846 -0.661779 -0.438454 0
M  V30 67 H -11.6857 2.04292 -1.16485 0
M  V30 68 H -9.62007 0.503907 -0.864202 0
M  V30 69 H -12.0608 -0.0389365 1.94436 0
M  V30 70 H -13.3863 -2.13112 1.87394 0
M  V30 71 H -14.2743 -2.99141 -0.254737 0
M  V30 72 H -13.8161 -1.72303 -2.33567 0
M  V30 73 H -10.8752 4.08178 3.51462 0
M  V30 74 H -12.2915 4.50921 2.55004 0
M  V30 75 H 4.83634 -1.26516 2.62694 0
M  V30 76 H 6.59881 -3.32844 3.37119 0
M  V30 77 H 7.74117 -3.65246 2.02117 0
M  V30 78 H 9.66383 1.86267 0.0935073 0
M  V30 79 H 9.67186 0.799954 2.40241 0
M  V30 80 H 10.9995 3.33558 1.04177 0
M  V30 81 H 13.2827 4.21678 1.55903 0
M  V30 82 H 15.2091 2.72418 1.43141 0
M  V30 83 H 14.8919 0.387507 0.799626 0
M  V30 84 H 8.61231 -1.65891 -2.81949 0
M  V30 85 H 10.2819 -2.20708 -2.44277 0
M  V30 END ATOM
M  V30 BEGIN BOND
M  V30 1 3 1 2
M  V30 2 1 2 3
M  V30 3 2 3 4
M  V30 4 1 4 5
M  V30 5 2 5 6
M  V30 6 1 6 7
M  V30 7 2 7 8
M  V30 8 1 8 9
M  V30 9 1 9 10
M  V30 10 2 10 11
M  V30 11 1 11 12
M  V30 12 2 12 13
M  V30 13 1 13 14
M  V30 14 2 14 15
M  V30 15 1 15 16
M  V30 16 3 16 17
M  V30 17 1 13 18
M  V30 18 1 18 19
M  V30 19 2 19 20
M  V30 20 1 19 21
M  V30 21 1 21 22
M  V30 22 1 22 23
M  V30 23 2 23 24
M  V30 24 1 24 25
M  V30 25 2 25 26
M  V30 26 1 26 27
M  V30 27 1 27 28
M  V30 28 1 27 29
M  V30 29 2 29 30
M  V30 30 1 30 31
M  V30 31 2 31 32
M  V30 32 1 32 33
M  V30 33 2 33 34
M  V30 34 1 34 35
M  V30 35 1 25 36
M  V30 36 1 5 37
M  V30 37 1 37 38
M  V30 38 2 38 39
M  V30 39 1 38 40
M  V30 40 1 40 41
M  V30 41 1 41 42
M  V30 42 2 42 43
M  V30 43 1 43 44
M  V30 44 2 44 45
M  V30 45 1 45 46
M  V30 46 1 46 47
M  V30 47 1 46 48
M  V30 48 2 48 49
M  V30 49 1 49 50
M  V30 50 2 50 51
M  V30 51 1 51 52
M  V30 52 2 52 53
M  V30 53 1 53 54
M  V30 54 1 44 55
M  V30 55 1 8 3
M  V30 56 1 15 10
M  V30 57 1 28 23
M  V30 58 1 34 29
M  V30 59 1 47 42
M  V30 60 1 53 48
M  V30 61 1 4 56
M  V30 62 1 6 57
M  V30 63 1 7 58
M  V30 64 1 9 59
M  V30 65 1 9 60
M  V30 66 1 11 61
M  V30 67 1 12 62
M  V30 68 1 14 63
M  V30 69 1 18 64
M  V30 70 1 21 65
M  V30 71 1 21 66
M  V30 72 1 27 67
M  V30 73 1 28 68
M  V30 74 1 30 69
M  V30 75 1 31 70
M  V30 76 1 32 71
M  V30 77 1 33 72
M  V30 78 1 36 73
M  V30 79 1 36 74
M  V30 80 1 37 75
M  V30 81 1 40 76
M  V30 82 1 40 77
M  V30 83 1 46 78
M  V30 84 1 47 79
M  V30 85 1 49 80
M  V30 86 1 50 81
M  V30 87 1 51 82
M  V30 88 1 52 83
M  V30 89 1 55 84
M  V30 90 1 55 85
M  V30 END BOND
M  V30 END CTAB
M  END
