
     RDKit          3D

  0  0  0  0  0  0  0  0  0  0999 V3000
M  V30 BEGIN CTAB
M  V30 COUNTS 49 51 0 0 0
M  V30 BEGIN ATOM
M  V30 1 O 0.714652 0.125611 0.175151 0
M  V30 2 C 0.947124 -0.666746 -0.764974 0
M  V30 3 C 2.28166 -1.15966 -1.00123 0
M  V30 4 C 3.35381 -0.736398 -0.141331 0
M  V30 5 C 3.54515 -1.22543 1.11726 0
M  V30 6 C 2.60399 -2.23836 1.60046 0
M  V30 7 N 4.59197 -0.758819 1.86357 0
M  V30 8 C 5.44624 0.164214 1.41305 0
M  V30 9 N 5.26729 0.65293 0.174607 0
M  V30 10 C 4.24592 0.216652 -0.590753 0
M  V30 11 C 4.08256 0.784895 -1.95921 0
M  V30 12 N 6.22232 1.55464 -0.0746396 0
M  V30 13 C 7.01616 1.64587 1.00481 0
M  V30 14 N 6.52614 0.784119 1.91253 0
M  V30 15 N 8.15501 2.5096 1.12132 0
M  V30 16 N -0.1425 -1.04232 -1.56214 0
M  V30 17 C -1.46026 -0.554272 -1.32423 0
M  V30 18 C -2.05214 -0.884599 0.0054565 0
M  V30 19 C -3.42992 -0.267906 0.00819222 0
M  V30 20 C -3.64053 1.02023 0.457228 0
M  V30 21 C -4.87581 1.61129 0.472548 0
M  V30 22 C -5.97723 0.890797 0.0171345 0
M  V30 23 C -5.80154 -0.398963 -0.438381 0
M  V30 24 C -4.52717 -0.9722 -0.440386 0
M  V30 25 S -7.58989 1.57286 0.00337513 0
M  V30 26 O -8.40084 1.08436 -1.15355 0
M  V30 27 O -7.43422 3.08201 -0.0923076 0
M  V30 28 N -8.33617 1.1991 1.52392 0
M  V30 29 H 2.25791 -2.29379 -0.974897 0
M  V30 30 H 2.58632 -0.966986 -2.0759 0
M  V30 31 H 3.13021 -2.75316 2.4664 0
M  V30 32 H 1.68678 -1.82714 2.07633 0
M  V30 33 H 2.4013 -3.06344 0.899996 0
M  V30 34 H 3.00982 1.03155 -2.15508 0
M  V30 35 H 4.38013 -0.0316874 -2.6738 0
M  V30 36 H 4.76176 1.61842 -2.1354 0
M  V30 37 H 8.12467 3.4572 0.725524 0
M  V30 38 H 8.9902 2.15381 1.6068 0
M  V30 39 H 0.0144981 -1.69956 -2.3551 0
M  V30 40 H -2.19479 -0.937118 -2.09399 0
M  V30 41 H -1.53893 0.560747 -1.43705 0
M  V30 42 H -2.16791 -1.97235 0.175316 0
M  V30 43 H -1.54685 -0.435298 0.87096 0
M  V30 44 H -2.79512 1.60924 0.820207 0
M  V30 45 H -5.05864 2.61608 0.819803 0
M  V30 46 H -6.65884 -0.946518 -0.787908 0
M  V30 47 H -4.44008 -1.97349 -0.80203 0
M  V30 48 H -8.67375 0.214854 1.44782 0
M  V30 49 H -7.60046 1.30818 2.25451 0
M  V30 END ATOM
M  V30 BEGIN BOND
M  V30 1 2 1 2
M  V30 2 1 2 3
M  V30 3 1 3 4
M  V30 4 1 4 5
M  V30 5 1 5 6
M  V30 6 2 5 7
M  V30 7 1 7 8
M  V30 8 1 8 9
M  V30 9 1 9 10
M  V30 10 1 10 11
M  V30 11 1 9 12
M  V30 12 2 12 13
M  V30 13 1 13 14
M  V30 14 1 13 15
M  V30 15 1 2 16
M  V30 16 1 16 17
M  V30 17 1 17 18
M  V30 18 1 18 19
M  V30 19 2 19 20
M  V30 20 1 20 21
M  V30 21 2 21 22
M  V30 22 1 22 23
M  V30 23 2 23 24
M  V30 24 1 22 25
M  V30 25 2 25 26
M  V30 26 2 25 27
M  V30 27 1 25 28
M  V30 28 2 10 4
M  V30 29 1 24 19
M  V30 30 2 14 8
M  V30 31 1 3 29
M  V30 32 1 3 30
M  V30 33 1 6 31
M  V30 34 1 6 32
M  V30 35 1 6 33
M  V30 36 1 11 34
M  V30 37 1 11 35
M  V30 38 1 11 36
M  V30 39 1 15 37
M  V30 40 1 15 38
M  V30 41 1 16 39
M  V30 42 1 17 40
M  V30 43 1 17 41
M  V30 44 1 18 42
M  V30 45 1 18 43
M  V30 46 1 20 44
M  V30 47 1 21 45
M  V30 48 1 23 46
M  V30 49 1 24 47
M  V30 50 1 28 48
M  V30 51 1 28 49
M  V30 END BOND
M  V30 END CTAB
M  END
