
     RDKit          3D

  0  0  0  0  0  0  0  0  0  0999 V3000
M  V30 BEGIN CTAB
M  V30 COUNTS 56 61 0 0 0
M  V30 BEGIN ATOM
M  V30 1 N -6.08779 -1.91011 -1.0939 0
M  V30 2 C -4.92996 -1.75216 -1.05697 0
M  V30 3 C -3.48966 -1.54184 -1.03442 0
M  V30 4 C -2.7798 -2.63557 -1.08849 0
M  V30 5 N -3.42958 -3.93564 -1.14818 0
M  V30 6 O -1.39062 -2.63883 -1.10995 0
M  V30 7 C -0.759172 -1.38169 -1.0844 0
M  V30 8 C -1.4522 -0.206849 -1.03791 0
M  V30 9 C -2.8855 -0.245467 -0.837604 0
M  V30 10 C -3.34415 0.380398 0.441984 0
M  V30 11 C -2.48829 0.401166 1.4803 0
M  V30 12 C -2.93431 0.951106 2.68948 0
M  V30 13 C -4.20481 1.45319 2.81148 0
M  V30 14 C -5.05835 1.41817 1.73079 0
M  V30 15 C -4.60332 0.866914 0.527215 0
M  V30 16 Cl -4.77835 2.14992 4.33443 0
M  V30 17 C -0.72894 1.00899 -1.05063 0
M  V30 18 C -1.4269 2.20236 -1.08851 0
M  V30 19 C -0.731386 3.39124 -1.16866 0
M  V30 20 C 0.632525 3.40014 -1.21371 0
M  V30 21 C 1.34454 2.20893 -1.17927 0
M  V30 22 C 0.656384 1.0101 -1.09522 0
M  V30 23 C 1.36854 -0.217769 -1.12688 0
M  V30 24 C 0.654461 -1.38301 -1.12824 0
M  V30 25 O 1.26875 -2.64916 -1.18706 0
M  V30 26 C 2.65465 -2.66563 -1.23073 0
M  V30 27 C 3.38378 -1.58948 -1.18906 0
M  V30 28 C 2.80914 -0.267814 -1.06559 0
M  V30 29 C 3.39875 0.402527 0.152228 0
M  V30 30 C 4.65333 0.902973 0.0798617 0
M  V30 31 C 5.20993 1.49669 1.21621 0
M  V30 32 C 4.47095 1.55842 2.37876 0
M  V30 33 C 3.17833 1.02709 2.40315 0
M  V30 34 C 2.65192 0.44486 1.26373 0
M  V30 35 Cl 5.10026 2.2886 3.84874 0
M  V30 36 C 4.8199 -1.81881 -1.27954 0
M  V30 37 N 5.98385 -1.98512 -1.36236 0
M  V30 38 N 3.28621 -3.97808 -1.32833 0
M  V30 39 H -3.33065 -4.63775 -0.399278 0
M  V30 40 H -3.999 -4.11048 -1.9932 0
M  V30 41 H -3.33549 0.435032 -1.58095 0
M  V30 42 H -1.4686 0.0333533 1.49208 0
M  V30 43 H -2.27472 0.984657 3.54439 0
M  V30 44 H -6.04683 1.80631 1.81796 0
M  V30 45 H -5.3286 0.882317 -0.274695 0
M  V30 46 H -2.49906 2.18876 -1.09145 0
M  V30 47 H -1.3109 4.29999 -1.19358 0
M  V30 48 H 1.20675 4.31901 -1.27704 0
M  V30 49 H 2.40588 2.20463 -1.26466 0
M  V30 50 H 3.20987 0.355788 -1.86703 0
M  V30 51 H 5.29322 0.89872 -0.790253 0
M  V30 52 H 6.20652 1.91227 1.21602 0
M  V30 53 H 2.59607 1.07191 3.30686 0
M  V30 54 H 1.62768 0.0513381 1.36947 0
M  V30 55 H 3.09657 -4.70959 -0.640941 0
M  V30 56 H 3.92817 -4.14701 -2.10874 0
M  V30 END ATOM
M  V30 BEGIN BOND
M  V30 1 3 1 2
M  V30 2 1 2 3
M  V30 3 2 3 4
M  V30 4 1 4 5
M  V30 5 1 4 6
M  V30 6 1 6 7
M  V30 7 2 7 8
M  V30 8 1 8 9
M  V30 9 1 9 10
M  V30 10 2 10 11
M  V30 11 1 11 12
M  V30 12 2 12 13
M  V30 13 1 13 14
M  V30 14 2 14 15
M  V30 15 1 13 16
M  V30 16 1 8 17
M  V30 17 2 17 18
M  V30 18 1 18 19
M  V30 19 2 19 20
M  V30 20 1 20 21
M  V30 21 2 21 22
M  V30 22 1 22 23
M  V30 23 2 23 24
M  V30 24 1 24 25
M  V30 25 1 25 26
M  V30 26 2 26 27
M  V30 27 1 27 28
M  V30 28 1 28 29
M  V30 29 2 29 30
M  V30 30 1 30 31
M  V30 31 2 31 32
M  V30 32 1 32 33
M  V30 33 2 33 34
M  V30 34 1 32 35
M  V30 35 1 27 36
M  V30 36 3 36 37
M  V30 37 1 26 38
M  V30 38 1 9 3
M  V30 39 1 15 10
M  V30 40 1 22 17
M  V30 41 1 28 23
M  V30 42 1 34 29
M  V30 43 1 24 7
M  V30 44 1 5 39
M  V30 45 1 5 40
M  V30 46 1 9 41
M  V30 47 1 11 42
M  V30 48 1 12 43
M  V30 49 1 14 44
M  V30 50 1 15 45
M  V30 51 1 18 46
M  V30 52 1 19 47
M  V30 53 1 20 48
M  V30 54 1 21 49
M  V30 55 1 28 50
M  V30 56 1 30 51
M  V30 57 1 31 52
M  V30 58 1 33 53
M  V30 59 1 34 54
M  V30 60 1 38 55
M  V30 61 1 38 56
M  V30 END BOND
M  V30 END CTAB
M  END
