
     RDKit          3D

  0  0  0  0  0  0  0  0  0  0999 V3000
M  V30 BEGIN CTAB
M  V30 COUNTS 29 29 0 0 0
M  V30 BEGIN ATOM
M  V30 1 C 4.1644 0.895958 1.02306 0
M  V30 2 C 4.06145 -0.0155404 -0.147792 0
M  V30 3 O 2.97676 -0.88633 -0.147699 0
M  V30 4 C 1.64499 -0.503221 -0.131588 0
M  V30 5 O 1.42229 0.738965 -0.116941 0
M  V30 6 C 0.535995 -1.50963 -0.131344 0
M  V30 7 C -0.759321 -0.794342 -0.11192 0
M  V30 8 C -1.51632 -0.710308 1.06177 0
M  V30 9 C -2.72296 -0.044418 1.07717 0
M  V30 10 C -3.51061 0.0486828 2.28153 0
M  V30 11 N -4.13497 0.11027 3.26338 0
M  V30 12 C -3.1464 0.528985 -0.102388 0
M  V30 13 C -2.3988 0.448832 -1.27109 0
M  V30 14 C -1.18961 -0.21771 -1.28921 0
M  V30 15 N -0.415743 -0.304627 -2.48656 0
M  V30 16 N -4.40233 1.21247 -0.0578106 0
M  V30 17 H 4.75042 0.394304 1.84906 0
M  V30 18 H 4.78267 1.77999 0.695644 0
M  V30 19 H 3.23361 1.23641 1.46782 0
M  V30 20 H 4.98334 -0.670681 -0.128066 0
M  V30 21 H 4.1834 0.5486 -1.1184 0
M  V30 22 H 0.62349 -2.21162 -0.976579 0
M  V30 23 H 0.65031 -2.09314 0.810501 0
M  V30 24 H -1.12638 -1.18237 1.95336 0
M  V30 25 H -2.76967 0.917156 -2.1856 0
M  V30 26 H -0.123483 0.601719 -2.92264 0
M  V30 27 H -0.158109 -1.21279 -2.90063 0
M  V30 28 H -4.40129 2.15614 0.38186 0
M  V30 29 H -5.23715 0.738245 -0.460359 0
M  V30 END ATOM
M  V30 BEGIN BOND
M  V30 1 1 1 2
M  V30 2 1 2 3
M  V30 3 1 3 4
M  V30 4 2 4 5
M  V30 5 1 4 6
M  V30 6 1 6 7
M  V30 7 2 7 8
M  V30 8 1 8 9
M  V30 9 1 9 10
M  V30 10 3 10 11
M  V30 11 2 9 12
M  V30 12 1 12 13
M  V30 13 2 13 14
M  V30 14 1 14 15
M  V30 15 1 12 16
M  V30 16 1 14 7
M  V30 17 1 1 17
M  V30 18 1 1 18
M  V30 19 1 1 19
M  V30 20 1 2 20
M  V30 21 1 2 21
M  V30 22 1 6 22
M  V30 23 1 6 23
M  V30 24 1 8 24
M  V30 25 1 13 25
M  V30 26 1 15 26
M  V30 27 1 15 27
M  V30 28 1 16 28
M  V30 29 1 16 29
M  V30 END BOND
M  V30 END CTAB
M  END
