
     RDKit          3D

  0  0  0  0  0  0  0  0  0  0999 V3000
M  V30 BEGIN CTAB
M  V30 COUNTS 38 39 0 0 0
M  V30 BEGIN ATOM
M  V30 1 N -8.10347 0.341384 -0.63415 0
M  V30 2 C -6.67265 0.309907 -0.60429 0
M  V30 3 C -5.95496 -0.858069 -0.504409 0
M  V30 4 C -4.58094 -0.790899 -0.48292 0
M  V30 5 C -3.94601 0.430419 -0.560706 0
M  V30 6 C -4.65959 1.60372 -0.6609 0
M  V30 7 C -6.03243 1.54845 -0.683243 0
M  V30 8 C -2.50379 0.472278 -0.536092 0
M  V30 9 O -1.92294 1.57275 -0.605962 0
M  V30 10 O -1.77409 -0.683172 -0.437012 0
M  V30 11 C -0.363787 -0.767151 -0.402055 0
M  V30 12 C 0.270391 -0.0595479 0.745805 0
M  V30 13 O 1.65303 -0.183932 0.718327 0
M  V30 14 C 2.52277 0.249664 -0.248553 0
M  V30 15 O 2.07916 0.83773 -1.25006 0
M  V30 16 C 3.94332 0.027754 -0.109831 0
M  V30 17 C 4.87431 0.436631 -1.04281 0
M  V30 18 C 6.22976 0.218539 -0.898692 0
M  V30 19 C 6.70443 -0.435028 0.217948 0
M  V30 20 N 8.09313 -0.690759 0.425255 0
M  V30 21 C 5.8016 -0.856979 1.1697 0
M  V30 22 C 4.45712 -0.632307 1.01133 0
M  V30 23 H -8.65581 0.171532 0.229338 0
M  V30 24 H -8.60235 0.538441 -1.5392 0
M  V30 25 H -6.47436 -1.79872 -0.445086 0
M  V30 26 H -3.98414 -1.68346 -0.405659 0
M  V30 27 H -4.1358 2.55157 -0.720674 0
M  V30 28 H -6.62393 2.46388 -0.76209 0
M  V30 29 H 0.0760716 -0.512594 -1.37888 0
M  V30 30 H -0.134022 -1.86595 -0.249804 0
M  V30 31 H -0.0645831 -0.581076 1.69345 0
M  V30 32 H -0.0829291 0.982429 0.885588 0
M  V30 33 H 4.49064 0.957492 -1.93169 0
M  V30 34 H 6.93711 0.540747 -1.6289 0
M  V30 35 H 8.78047 0.0990268 0.382138 0
M  V30 36 H 8.46402 -1.63107 0.619291 0
M  V30 37 H 6.17833 -1.37346 2.05181 0
M  V30 38 H 3.71693 -0.950175 1.73978 0
M  V30 END ATOM
M  V30 BEGIN BOND
M  V30 1 1 1 2
M  V30 2 2 2 3
M  V30 3 1 3 4
M  V30 4 2 4 5
M  V30 5 1 5 6
M  V30 6 2 6 7
M  V30 7 1 5 8
M  V30 8 2 8 9
M  V30 9 1 8 10
M  V30 10 1 10 11
M  V30 11 1 11 12
M  V30 12 1 12 13
M  V30 13 1 13 14
M  V30 14 2 14 15
M  V30 15 1 14 16
M  V30 16 2 16 17
M  V30 17 1 17 18
M  V30 18 2 18 19
M  V30 19 1 19 20
M  V30 20 1 19 21
M  V30 21 2 21 22
M  V30 22 1 7 2
M  V30 23 1 22 16
M  V30 24 1 1 23
M  V30 25 1 1 24
M  V30 26 1 3 25
M  V30 27 1 4 26
M  V30 28 1 6 27
M  V30 29 1 7 28
M  V30 30 1 11 29
M  V30 31 1 11 30
M  V30 32 1 12 31
M  V30 33 1 12 32
M  V30 34 1 17 33
M  V30 35 1 18 34
M  V30 36 1 20 35
M  V30 37 1 20 36
M  V30 38 1 21 37
M  V30 39 1 22 38
M  V30 END BOND
M  V30 END CTAB
M  END
