
     RDKit          3D

  0  0  0  0  0  0  0  0  0  0999 V3000
M  V30 BEGIN CTAB
M  V30 COUNTS 38 39 0 0 0
M  V30 BEGIN ATOM
M  V30 1 C -2.9163 -2.19854 -0.248688 0
M  V30 2 C -2.78013 -0.736875 -0.244417 0
M  V30 3 C -1.56212 -0.161843 -0.0165988 0
M  V30 4 C -1.49061 1.22722 -0.108645 0
M  V30 5 C -2.57625 2.001 -0.403952 0
M  V30 6 C -3.80002 1.39679 -0.627244 0
M  V30 7 C -3.92086 0.0483989 -0.553975 0
M  V30 8 C -0.509291 -0.900197 0.620765 0
M  V30 9 N -0.705631 -0.530138 2.11398 0
M  V30 10 C 0.893135 -0.952439 0.360377 0
M  V30 11 N 0.788248 -1.77705 -1.03601 0
M  V30 12 C 1.74457 0.108096 -0.124152 0
M  V30 13 C 2.89896 0.428249 0.577068 0
M  V30 14 C 3.05209 -0.0370879 1.96736 0
M  V30 15 C 3.87667 1.2487 0.0556426 0
M  V30 16 C 3.74019 1.78932 -1.19534 0
M  V30 17 C 2.62393 1.51353 -1.92704 0
M  V30 18 C 1.65161 0.68034 -1.36764 0
M  V30 19 H -2.31267 -2.57987 -1.14801 0
M  V30 20 H -3.9812 -2.48509 -0.535209 0
M  V30 21 H -2.69052 -2.73257 0.656191 0
M  V30 22 H -0.554662 1.78481 0.0943645 0
M  V30 23 H -2.49267 3.06286 -0.450776 0
M  V30 24 H -4.69449 2.00589 -0.835323 0
M  V30 25 H -4.89361 -0.408053 -0.749108 0
M  V30 26 H -0.824715 -2.01984 0.768355 0
M  V30 27 H -0.575566 0.513084 2.16877 0
M  V30 28 H -1.75233 -0.679735 2.25315 0
M  V30 29 H 1.36993 -1.7628 0.916124 0
M  V30 30 H 0.397443 -2.64749 -0.656692 0
M  V30 31 H 0.0571374 -1.28182 -1.56467 0
M  V30 32 H 2.45312 0.684508 2.62952 0
M  V30 33 H 2.77639 -1.06334 2.17594 0
M  V30 34 H 4.07972 0.120642 2.32917 0
M  V30 35 H 4.78008 1.4984 0.622508 0
M  V30 36 H 4.52834 2.41219 -1.57696 0
M  V30 37 H 2.51173 1.91955 -2.91469 0
M  V30 38 H 0.810354 0.511183 -2.02414 0
M  V30 END ATOM
M  V30 BEGIN BOND
M  V30 1 1 1 2
M  V30 2 2 2 3
M  V30 3 1 3 4
M  V30 4 2 4 5
M  V30 5 1 5 6
M  V30 6 2 6 7
M  V30 7 1 3 8
M  V30 8 1 8 9
M  V30 9 1 8 10
M  V30 10 1 10 11
M  V30 11 1 10 12
M  V30 12 2 12 13
M  V30 13 1 13 14
M  V30 14 1 13 15
M  V30 15 2 15 16
M  V30 16 1 16 17
M  V30 17 2 17 18
M  V30 18 1 7 2
M  V30 19 1 18 12
M  V30 20 1 1 19
M  V30 21 1 1 20
M  V30 22 1 1 21
M  V30 23 1 4 22
M  V30 24 1 5 23
M  V30 25 1 6 24
M  V30 26 1 7 25
M  V30 27 1 8 26
M  V30 28 1 9 27
M  V30 29 1 9 28
M  V30 30 1 10 29
M  V30 31 1 11 30
M  V30 32 1 11 31
M  V30 33 1 14 32
M  V30 34 1 14 33
M  V30 35 1 14 34
M  V30 36 1 15 35
M  V30 37 1 16 36
M  V30 38 1 17 37
M  V30 39 1 18 38
M  V30 END BOND
M  V30 END CTAB
M  END
