
     RDKit          3D

  0  0  0  0  0  0  0  0  0  0999 V3000
M  V30 BEGIN CTAB
M  V30 COUNTS 29 30 0 0 0
M  V30 BEGIN ATOM
M  V30 1 C 4.06523 -0.107434 0.0932052 0
M  V30 2 C 2.78471 -0.747116 0.547015 0
M  V30 3 C 1.81314 0.32687 1.07026 0
M  V30 4 C 1.50345 0.547067 -0.414 0
M  V30 5 C 1.74758 -0.928696 -0.584171 0
M  V30 6 N 0.26472 1.11433 -0.737524 0
M  V30 7 C -0.987917 0.602169 -0.412343 0
M  V30 8 C -2.15486 1.2793 -0.810009 0
M  V30 9 C -3.38765 0.776088 -0.486866 0
M  V30 10 N -4.60119 1.4401 -0.875868 0
M  V30 11 N -3.43705 -0.372436 0.214306 0
M  V30 12 C -2.32716 -1.03119 0.601511 0
M  V30 13 N -1.16023 -0.508368 0.267281 0
M  V30 14 N -2.43401 -2.24513 1.34332 0
M  V30 15 H 4.87834 -0.520879 0.759315 0
M  V30 16 H 4.07574 0.999739 0.229536 0
M  V30 17 H 4.28237 -0.374569 -0.972611 0
M  V30 18 H 2.87105 -1.62345 1.20407 0
M  V30 19 H 2.29947 1.1621 1.57157 0
M  V30 20 H 0.990591 -0.17962 1.55496 0
M  V30 21 H 2.39527 1.06097 -0.925192 0
M  V30 22 H 2.27818 -1.19583 -1.53572 0
M  V30 23 H 0.99049 -1.63512 -0.270422 0
M  V30 24 H 0.285508 2.03145 -1.28807 0
M  V30 25 H -2.08331 2.20275 -1.37419 0
M  V30 26 H -5.36911 1.45671 -0.182326 0
M  V30 27 H -4.64523 1.86069 -1.81315 0
M  V30 28 H -3.08562 -2.32574 2.14511 0
M  V30 29 H -1.8525 -3.06475 1.081 0
M  V30 END ATOM
M  V30 BEGIN BOND
M  V30 1 1 1 2
M  V30 2 1 2 3
M  V30 3 1 3 4
M  V30 4 1 4 5
M  V30 5 1 4 6
M  V30 6 1 6 7
M  V30 7 2 7 8
M  V30 8 1 8 9
M  V30 9 1 9 10
M  V30 10 2 9 11
M  V30 11 1 11 12
M  V30 12 2 12 13
M  V30 13 1 12 14
M  V30 14 1 5 2
M  V30 15 1 13 7
M  V30 16 1 1 15
M  V30 17 1 1 16
M  V30 18 1 1 17
M  V30 19 1 2 18
M  V30 20 1 3 19
M  V30 21 1 3 20
M  V30 22 1 4 21
M  V30 23 1 5 22
M  V30 24 1 5 23
M  V30 25 1 6 24
M  V30 26 1 8 25
M  V30 27 1 10 26
M  V30 28 1 10 27
M  V30 29 1 14 28
M  V30 30 1 14 29
M  V30 END BOND
M  V30 END CTAB
M  END
