
     RDKit          3D

  0  0  0  0  0  0  0  0  0  0999 V3000
M  V30 BEGIN CTAB
M  V30 COUNTS 62 65 0 0 0
M  V30 BEGIN ATOM
M  V30 1 C 7.16384 -2.42441 2.01337 0
M  V30 2 C 5.95825 -1.95262 1.73045 0
M  V30 3 C 5.65682 -0.528749 1.58171 0
M  V30 4 N 5.16226 -0.0727925 0.321942 0
M  V30 5 C 3.85714 0.456796 0.208171 0
M  V30 6 N 3.66659 1.79087 0.428754 0
M  V30 7 C 2.45679 2.34764 0.389634 0
M  V30 8 N 2.29319 3.75008 0.624672 0
M  V30 9 C 1.33624 1.56974 0.118454 0
M  V30 10 C 1.53146 0.190366 -0.110669 0
M  V30 11 C 2.77839 -0.362749 -0.0684439 0
M  V30 12 C 2.9934 -1.75136 -0.367155 0
M  V30 13 N 3.23097 -2.88647 -0.627894 0
M  V30 14 C 0.382522 -0.562063 -0.376512 0
M  V30 15 C 0.181721 -1.95204 -0.60205 0
M  V30 16 C -1.25293 -2.14404 -0.917216 0
M  V30 17 O -1.81951 -3.22592 -1.28345 0
M  V30 18 N -1.86202 -0.898074 -0.732297 0
M  V30 19 C -0.850105 0.0520247 -0.406396 0
M  V30 20 N -0.961346 1.38588 -0.17637 0
M  V30 21 C 0.0905559 2.15228 0.0829178 0
M  V30 22 N -0.0383393 3.55559 0.324393 0
M  V30 23 C -3.29841 -0.600611 -0.845591 0
M  V30 24 C -3.89731 -0.806649 0.531414 0
M  V30 25 C -5.37449 -0.534317 0.535359 0
M  V30 26 C -5.84272 0.418989 1.32689 0
M  V30 27 C -7.28818 0.75221 1.39258 0
M  V30 28 C -7.90633 0.444398 0.0480692 0
M  V30 29 C -7.67787 -1.01069 -0.320747 0
M  V30 30 C -6.2256 -1.35933 -0.357452 0
M  V30 31 C 6.01332 -0.117585 -0.836256 0
M  V30 32 C 5.39155 0.441195 -2.05352 0
M  V30 33 C 5.96376 1.49417 -2.66981 0
M  V30 34 H 7.31961 -3.47714 2.10928 0
M  V30 35 H 7.98919 -1.74806 2.14582 0
M  V30 36 H 5.17755 -2.6975 1.62406 0
M  V30 37 H 4.97507 -0.225206 2.43296 0
M  V30 38 H 6.57939 0.107248 1.79504 0
M  V30 39 H 2.13369 4.16021 1.57053 0
M  V30 40 H 2.34818 4.38329 -0.201535 0
M  V30 41 H 0.550243 -2.69653 0.0962419 0
M  V30 42 H 0.657983 -2.2086 -1.59337 0
M  V30 43 H -0.19261 3.92687 1.27886 0
M  V30 44 H 0.0196227 4.19967 -0.509234 0
M  V30 45 H -3.47962 0.406215 -1.23322 0
M  V30 46 H -3.71627 -1.3586 -1.5281 0
M  V30 47 H -3.42045 -0.0530481 1.18272 0
M  V30 48 H -3.76859 -1.84131 0.846139 0
M  V30 49 H -5.12667 0.982971 1.95984 0
M  V30 50 H -7.7953 0.193573 2.20718 0
M  V30 51 H -7.39709 1.84235 1.57472 0
M  V30 52 H -8.99822 0.578409 0.157735 0
M  V30 53 H -7.54328 1.13637 -0.710938 0
M  V30 54 H -8.24682 -1.63497 0.399604 0
M  V30 55 H -8.09667 -1.15134 -1.33919 0
M  V30 56 H -5.83384 -1.23006 -1.40737 0
M  V30 57 H -6.1072 -2.44265 -0.0917486 0
M  V30 58 H 6.89648 0.541531 -0.577997 0
M  V30 59 H 6.36686 -1.15248 -1.05901 0
M  V30 60 H 4.48016 0.00659522 -2.45264 0
M  V30 61 H 6.87016 1.90253 -2.24953 0
M  V30 62 H 5.54483 1.93791 -3.56529 0
M  V30 END ATOM
M  V30 BEGIN BOND
M  V30 1 2 1 2 CFG=2
M  V30 2 1 2 3
M  V30 3 1 3 4
M  V30 4 1 4 5
M  V30 5 2 5 6
M  V30 6 1 6 7
M  V30 7 1 7 8
M  V30 8 2 7 9
M  V30 9 1 9 10
M  V30 10 2 10 11
M  V30 11 1 11 12
M  V30 12 3 12 13
M  V30 13 1 10 14
M  V30 14 1 14 15
M  V30 15 1 15 16
M  V30 16 2 16 17
M  V30 17 1 16 18
M  V30 18 1 18 19
M  V30 19 1 19 20
M  V30 20 2 20 21
M  V30 21 1 21 22
M  V30 22 1 18 23
M  V30 23 1 23 24
M  V30 24 1 24 25
M  V30 25 2 25 26
M  V30 26 1 26 27
M  V30 27 1 27 28
M  V30 28 1 28 29
M  V30 29 1 29 30
M  V30 30 1 4 31
M  V30 31 1 31 32
M  V30 32 2 32 33 CFG=2
M  V30 33 1 11 5
M  V30 34 2 19 14
M  V30 35 1 30 25
M  V30 36 1 21 9
M  V30 37 1 1 34
M  V30 38 1 1 35
M  V30 39 1 2 36
M  V30 40 1 3 37
M  V30 41 1 3 38
M  V30 42 1 8 39
M  V30 43 1 8 40
M  V30 44 1 15 41
M  V30 45 1 15 42
M  V30 46 1 22 43
M  V30 47 1 22 44
M  V30 48 1 23 45
M  V30 49 1 23 46
M  V30 50 1 24 47
M  V30 51 1 24 48
M  V30 52 1 26 49
M  V30 53 1 27 50
M  V30 54 1 27 51
M  V30 55 1 28 52
M  V30 56 1 28 53
M  V30 57 1 29 54
M  V30 58 1 29 55
M  V30 59 1 30 56
M  V30 60 1 30 57
M  V30 61 1 31 58
M  V30 62 1 31 59
M  V30 63 1 32 60
M  V30 64 1 33 61
M  V30 65 1 33 62
M  V30 END BOND
M  V30 END CTAB
M  END
