
     RDKit          3D

  0  0  0  0  0  0  0  0  0  0999 V3000
M  V30 BEGIN CTAB
M  V30 COUNTS 27 27 0 0 0
M  V30 BEGIN ATOM
M  V30 1 C -2.07272 -1.01245 -1.23259 0
M  V30 2 C -1.40385 0.113198 -0.486332 0
M  V30 3 C 0.0208786 -0.158497 -0.176155 0
M  V30 4 C 1.02746 0.663438 -0.647652 0
M  V30 5 C 2.32934 0.394325 -0.348691 0
M  V30 6 C 3.46368 1.24292 -0.827047 0
M  V30 7 C 2.61881 -0.695284 0.420264 0
M  V30 8 N 1.63293 -1.4894 0.874605 0
M  V30 9 C 0.323746 -1.26715 0.606951 0
M  V30 10 N -0.706404 -2.09796 1.08148 0
M  V30 11 C -2.20099 0.559416 0.710646 0
M  V30 12 N -1.57094 1.6104 1.40448 0
M  V30 13 F -1.42804 1.20797 -1.36687 0
M  V30 14 H -2.86979 -1.5044 -0.600739 0
M  V30 15 H -1.38159 -1.78081 -1.5963 0
M  V30 16 H -2.64991 -0.650819 -2.1338 0
M  V30 17 H 0.786004 1.5218 -1.25462 0
M  V30 18 H 3.82117 0.777516 -1.76802 0
M  V30 19 H 4.3094 1.24022 -0.10903 0
M  V30 20 H 3.17569 2.28479 -0.998486 0
M  V30 21 H 3.62658 -0.935546 0.673478 0
M  V30 22 H -0.973827 -1.97422 2.10372 0
M  V30 23 H -1.22959 -2.80623 0.566537 0
M  V30 24 H -3.18185 0.942891 0.30223 0
M  V30 25 H -2.47502 -0.239516 1.4101 0
M  V30 26 H -1.47221 2.5069 0.96725 0
M  V30 27 H -1.51896 1.54648 2.42459 0
M  V30 END ATOM
M  V30 BEGIN BOND
M  V30 1 1 1 2
M  V30 2 1 2 3
M  V30 3 2 3 4
M  V30 4 1 4 5
M  V30 5 1 5 6
M  V30 6 2 5 7
M  V30 7 1 7 8
M  V30 8 2 8 9
M  V30 9 1 9 10
M  V30 10 1 2 11
M  V30 11 1 11 12
M  V30 12 1 2 13
M  V30 13 1 9 3
M  V30 14 1 1 14
M  V30 15 1 1 15
M  V30 16 1 1 16
M  V30 17 1 4 17
M  V30 18 1 6 18
M  V30 19 1 6 19
M  V30 20 1 6 20
M  V30 21 1 7 21
M  V30 22 1 10 22
M  V30 23 1 10 23
M  V30 24 1 11 24
M  V30 25 1 11 25
M  V30 26 1 12 26
M  V30 27 1 12 27
M  V30 END BOND
M  V30 END CTAB
M  END
