
     RDKit          3D

  0  0  0  0  0  0  0  0  0  0999 V3000
M  V30 BEGIN CTAB
M  V30 COUNTS 53 55 0 0 0
M  V30 BEGIN ATOM
M  V30 1 O -1.34626 -0.948848 -1.15316 0
M  V30 2 C -0.816967 0.185721 -1.03267 0
M  V30 3 N 0.600068 0.244383 -1.07031 0
M  V30 4 C 1.41992 -0.937108 -1.23917 0
M  V30 5 C 2.35418 -1.16954 -0.0534465 0
M  V30 6 C 2.70771 0.157297 0.518186 0
M  V30 7 C 2.78021 1.15184 -0.63704 0
M  V30 8 C 1.31932 1.5168 -0.939642 0
M  V30 9 C 3.91363 0.202627 1.38487 0
M  V30 10 C 5.17551 -0.203396 0.75512 0
M  V30 11 C 5.98291 0.710484 0.112405 0
M  V30 12 C 7.17354 0.35346 -0.485252 0
M  V30 13 C 7.59714 -0.954493 -0.455368 0
M  V30 14 C 6.81614 -1.88332 0.175595 0
M  V30 15 C 5.62715 -1.50369 0.767724 0
M  V30 16 C -1.67912 1.37079 -0.862216 0
M  V30 17 S -3.4282 0.971778 -0.867936 0
M  V30 18 C -3.87586 -0.0359797 0.594445 0
M  V30 19 C -5.31716 -0.333244 0.53375 0
M  V30 20 N -5.76773 -1.43727 -0.090574 0
M  V30 21 C -7.07963 -1.7443 -0.167799 0
M  V30 22 N -7.51336 -2.91277 -0.831924 0
M  V30 23 N -7.95369 -0.903621 0.406404 0
M  V30 24 C -7.55517 0.222195 1.04793 0
M  V30 25 N -6.22873 0.478347 1.09356 0
M  V30 26 N -8.51913 1.07777 1.63853 0
M  V30 27 C -1.38489 2.46406 -1.84385 0
M  V30 28 H 1.966 -0.93071 -2.20373 0
M  V30 29 H 0.756103 -1.84833 -1.28217 0
M  V30 30 H 3.26941 -1.63578 -0.471577 0
M  V30 31 H 1.90445 -1.87014 0.675907 0
M  V30 32 H 1.84189 0.469781 1.17478 0
M  V30 33 H 3.13177 0.613553 -1.5536 0
M  V30 34 H 3.37975 2.0342 -0.39639 0
M  V30 35 H 0.966747 2.09735 -0.0621116 0
M  V30 36 H 1.31776 2.08661 -1.87161 0
M  V30 37 H 4.0015 1.24364 1.77992 0
M  V30 38 H 3.68695 -0.424339 2.29268 0
M  V30 39 H 5.7227 1.76909 0.0422608 0
M  V30 40 H 7.81329 1.06423 -0.991679 0
M  V30 41 H 8.53907 -1.26206 -0.923281 0
M  V30 42 H 7.17895 -2.90649 0.18133 0
M  V30 43 H 5.03585 -2.26127 1.25711 0
M  V30 44 H -1.44082 1.78463 0.161558 0
M  V30 45 H -3.33661 -1.00507 0.45914 0
M  V30 46 H -3.55218 0.445535 1.52623 0
M  V30 47 H -7.26498 -3.06198 -1.81971 0
M  V30 48 H -8.07566 -3.6058 -0.318258 0
M  V30 49 H -8.6727 2.07006 1.37438 0
M  V30 50 H -9.11783 0.679829 2.39403 0
M  V30 51 H -0.735491 3.25802 -1.38997 0
M  V30 52 H -2.34614 2.964 -2.09093 0
M  V30 53 H -0.971333 2.09145 -2.80252 0
M  V30 END ATOM
M  V30 BEGIN BOND
M  V30 1 2 1 2
M  V30 2 1 2 3
M  V30 3 1 3 4
M  V30 4 1 4 5
M  V30 5 1 5 6
M  V30 6 1 6 7
M  V30 7 1 7 8
M  V30 8 1 6 9
M  V30 9 1 9 10
M  V30 10 2 10 11
M  V30 11 1 11 12
M  V30 12 2 12 13
M  V30 13 1 13 14
M  V30 14 2 14 15
M  V30 15 1 2 16
M  V30 16 1 16 17
M  V30 17 1 17 18
M  V30 18 1 18 19
M  V30 19 2 19 20
M  V30 20 1 20 21
M  V30 21 1 21 22
M  V30 22 2 21 23
M  V30 23 1 23 24
M  V30 24 2 24 25
M  V30 25 1 24 26
M  V30 26 1 16 27
M  V30 27 1 8 3
M  V30 28 1 15 10
M  V30 29 1 25 19
M  V30 30 1 4 28
M  V30 31 1 4 29
M  V30 32 1 5 30
M  V30 33 1 5 31
M  V30 34 1 6 32
M  V30 35 1 7 33
M  V30 36 1 7 34
M  V30 37 1 8 35
M  V30 38 1 8 36
M  V30 39 1 9 37
M  V30 40 1 9 38
M  V30 41 1 11 39
M  V30 42 1 12 40
M  V30 43 1 13 41
M  V30 44 1 14 42
M  V30 45 1 15 43
M  V30 46 1 16 44
M  V30 47 1 18 45
M  V30 48 1 18 46
M  V30 49 1 22 47
M  V30 50 1 22 48
M  V30 51 1 26 49
M  V30 52 1 26 50
M  V30 53 1 27 51
M  V30 54 1 27 52
M  V30 55 1 27 53
M  V30 END BOND
M  V30 END CTAB
M  END
