
     RDKit          3D

  0  0  0  0  0  0  0  0  0  0999 V3000
M  V30 BEGIN CTAB
M  V30 COUNTS 39 40 0 0 0
M  V30 BEGIN ATOM
M  V30 1 N 6.98369 1.11077 -2.06521 0
M  V30 2 C 6.14942 0.775554 -1.12951 0
M  V30 3 N 6.67143 0.563362 0.174625 0
M  V30 4 N 4.76516 0.618761 -1.36568 0
M  V30 5 C 3.87989 0.258288 -0.351546 0
M  V30 6 O 4.34703 0.0667482 0.822837 0
M  V30 7 C 2.44037 0.0867578 -0.559217 0
M  V30 8 N 1.89228 0.272649 -1.7634 0
M  V30 9 C 0.565706 0.118491 -1.97237 0
M  V30 10 Cl -0.157442 0.360521 -3.54667 0
M  V30 11 C -0.290421 -0.243292 -0.932455 0
M  V30 12 N -1.6942 -0.407133 -1.18456 0
M  V30 13 C -2.61672 -0.772113 -0.138597 0
M  V30 14 C -3.97377 -0.94367 -0.784734 0
M  V30 15 C -5.10921 -0.920221 0.181266 0
M  V30 16 C -5.08114 0.405887 0.918966 0
M  V30 17 C -3.83275 0.425482 1.7332 0
M  V30 18 C -2.57148 0.255244 0.939407 0
M  V30 19 N 0.261796 -0.427983 0.269159 0
M  V30 20 C 1.60262 -0.270287 0.471949 0
M  V30 21 N 2.18526 -0.465955 1.74326 0
M  V30 22 H 6.63029 1.27269 -3.02989 0
M  V30 23 H 6.76704 1.31698 0.890076 0
M  V30 24 H 6.99122 -0.398477 0.473291 0
M  V30 25 H 4.40851 0.780265 -2.3306 0
M  V30 26 H -2.06813 -0.256506 -2.16374 0
M  V30 27 H -2.35215 -1.75509 0.30471 0
M  V30 28 H -4.09994 -0.213601 -1.61991 0
M  V30 29 H -3.94226 -1.95306 -1.28823 0
M  V30 30 H -4.96024 -1.72411 0.91711 0
M  V30 31 H -6.04617 -0.962382 -0.375628 0
M  V30 32 H -5.938 0.551802 1.57612 0
M  V30 33 H -5.02254 1.22697 0.179463 0
M  V30 34 H -3.75774 1.43729 2.22254 0
M  V30 35 H -3.85314 -0.291586 2.58485 0
M  V30 36 H -2.17795 1.24752 0.570792 0
M  V30 37 H -1.79828 -0.0816966 1.69635 0
M  V30 38 H 2.22086 0.318209 2.41996 0
M  V30 39 H 2.58109 -1.38308 2.01692 0
M  V30 END ATOM
M  V30 BEGIN BOND
M  V30 1 2 1 2 CFG=2
M  V30 2 1 2 3
M  V30 3 1 2 4
M  V30 4 1 4 5
M  V30 5 2 5 6
M  V30 6 1 5 7
M  V30 7 2 7 8
M  V30 8 1 8 9
M  V30 9 1 9 10
M  V30 10 2 9 11
M  V30 11 1 11 12
M  V30 12 1 12 13
M  V30 13 1 13 14
M  V30 14 1 14 15
M  V30 15 1 15 16
M  V30 16 1 16 17
M  V30 17 1 17 18
M  V30 18 1 11 19
M  V30 19 2 19 20
M  V30 20 1 20 21
M  V30 21 1 20 7
M  V30 22 1 18 13
M  V30 23 1 1 22
M  V30 24 1 3 23
M  V30 25 1 3 24
M  V30 26 1 4 25
M  V30 27 1 12 26
M  V30 28 1 13 27
M  V30 29 1 14 28
M  V30 30 1 14 29
M  V30 31 1 15 30
M  V30 32 1 15 31
M  V30 33 1 16 32
M  V30 34 1 16 33
M  V30 35 1 17 34
M  V30 36 1 17 35
M  V30 37 1 18 36
M  V30 38 1 18 37
M  V30 39 1 21 38
M  V30 40 1 21 39
M  V30 END BOND
M  V30 END CTAB
M  END
