
     RDKit          3D

  0  0  0  0  0  0  0  0  0  0999 V3000
M  V30 BEGIN CTAB
M  V30 COUNTS 26 26 0 0 0
M  V30 BEGIN ATOM
M  V30 1 N 2.86616 0.393072 -2.00072 0
M  V30 2 C 2.31042 0.151563 -0.717627 0
M  V30 3 N 1.00913 0.132422 -0.651779 0
M  V30 4 C 0.271449 -0.0953518 0.552233 0
M  V30 5 C -0.576463 1.09035 0.96136 0
M  V30 6 C -1.47971 1.56627 -0.138936 0
M  V30 7 C -2.66755 0.668873 -0.157336 0
M  V30 8 C -2.65177 -0.644792 -0.336912 0
M  V30 9 C -1.47108 -1.52449 -0.55896 0
M  V30 10 C -0.493575 -1.38884 0.566252 0
M  V30 11 N 3.1392 -0.054578 0.414645 0
M  V30 12 H 2.96428 1.34002 -2.41747 0
M  V30 13 H 3.19813 -0.413191 -2.56727 0
M  V30 14 H 1.03564 -0.193897 1.38129 0
M  V30 15 H 0.0911732 1.92907 1.25226 0
M  V30 16 H -1.11691 0.788136 1.88108 0
M  V30 17 H -0.945723 1.39088 -1.11623 0
M  V30 18 H -1.75585 2.62211 -0.0261494 0
M  V30 19 H -3.64364 1.11268 -0.0122202 0
M  V30 20 H -3.63842 -1.11714 -0.315162 0
M  V30 21 H -1.72655 -2.56878 -0.695778 0
M  V30 22 H -0.985229 -1.16086 -1.49489 0
M  V30 23 H 0.257095 -2.20916 0.470542 0
M  V30 24 H -0.968732 -1.47826 1.5618 0
M  V30 25 H 3.00169 0.349492 1.34378 0
M  V30 26 H 3.97684 -0.685598 0.282634 0
M  V30 END ATOM
M  V30 BEGIN BOND
M  V30 1 1 1 2
M  V30 2 2 2 3 CFG=2
M  V30 3 1 3 4
M  V30 4 1 4 5
M  V30 5 1 5 6
M  V30 6 1 6 7
M  V30 7 2 7 8
M  V30 8 1 8 9
M  V30 9 1 9 10
M  V30 10 1 2 11
M  V30 11 1 10 4
M  V30 12 1 1 12
M  V30 13 1 1 13
M  V30 14 1 4 14
M  V30 15 1 5 15
M  V30 16 1 5 16
M  V30 17 1 6 17
M  V30 18 1 6 18
M  V30 19 1 7 19
M  V30 20 1 8 20
M  V30 21 1 9 21
M  V30 22 1 9 22
M  V30 23 1 10 23
M  V30 24 1 10 24
M  V30 25 1 11 25
M  V30 26 1 11 26
M  V30 END BOND
M  V30 END CTAB
M  END
