
     RDKit          3D

  0  0  0  0  0  0  0  0  0  0999 V3000
M  V30 BEGIN CTAB
M  V30 COUNTS 39 40 0 0 0
M  V30 BEGIN ATOM
M  V30 1 N -5.94583 0.881906 1.15876 0
M  V30 2 C -4.82142 1.30413 0.383103 0
M  V30 3 C -4.76525 2.55888 -0.180653 0
M  V30 4 C -3.7017 2.99835 -0.932209 0
M  V30 5 C -2.61567 2.14039 -1.14343 0
M  V30 6 C -2.68202 0.892283 -0.576872 0
M  V30 7 C -3.74018 0.456879 0.169976 0
M  V30 8 N -1.55682 -0.0495875 -0.771697 0
M  V30 9 C -0.367642 0.294347 -0.136233 0
M  V30 10 O -0.386343 1.39455 0.545503 0
M  V30 11 N 0.864881 -0.365048 -0.112998 0
M  V30 12 C 1.99707 0.137564 0.598428 0
M  V30 13 O 1.87203 1.20203 1.21944 0
M  V30 14 C 3.275 -0.557937 0.612148 0
M  V30 15 C 3.48152 -1.74445 -0.0577608 0
M  V30 16 C 4.72248 -2.36165 -0.00992835 0
M  V30 17 C 5.76429 -1.81364 0.697089 0
M  V30 18 C 5.58158 -0.626142 1.37601 0
M  V30 19 C 4.34561 -0.0354846 1.3133 0
M  V30 20 N 4.15083 1.18428 2.00767 0
M  V30 21 C -1.84191 -1.17479 -1.57874 0
M  V30 22 O -3.06015 -1.21592 -2.03 0
M  V30 23 C -0.925258 -2.26659 -1.9455 0
M  V30 24 H -5.80858 0.105305 1.83255 0
M  V30 25 H -6.88823 1.30675 1.08541 0
M  V30 26 H -5.59465 3.23581 -0.0286166 0
M  V30 27 H -3.64251 3.98197 -1.38244 0
M  V30 28 H -1.77706 2.44399 -1.71779 0
M  V30 29 H -3.74164 -0.522125 0.587519 0
M  V30 30 H 1.00588 -1.25039 -0.615881 0
M  V30 31 H 2.72672 -2.23209 -0.626348 0
M  V30 32 H 4.90993 -3.29396 -0.528244 0
M  V30 33 H 6.73953 -2.29657 0.73641 0
M  V30 34 H 6.42444 -0.224375 1.92238 0
M  V30 35 H 3.96434 1.22445 3.03135 0
M  V30 36 H 4.2073 2.06256 1.41418 0
M  V30 37 H -1.50412 -2.97112 -2.62685 0
M  V30 38 H -0.596007 -2.89386 -1.10096 0
M  V30 39 H -0.0704389 -1.91069 -2.58806 0
M  V30 END ATOM
M  V30 BEGIN BOND
M  V30 1 1 1 2
M  V30 2 2 2 3
M  V30 3 1 3 4
M  V30 4 2 4 5
M  V30 5 1 5 6
M  V30 6 2 6 7
M  V30 7 1 6 8
M  V30 8 1 8 9
M  V30 9 2 9 10
M  V30 10 1 9 11
M  V30 11 1 11 12
M  V30 12 2 12 13
M  V30 13 1 12 14
M  V30 14 2 14 15
M  V30 15 1 15 16
M  V30 16 2 16 17
M  V30 17 1 17 18
M  V30 18 2 18 19
M  V30 19 1 19 20
M  V30 20 1 8 21
M  V30 21 2 21 22
M  V30 22 1 21 23
M  V30 23 1 7 2
M  V30 24 1 19 14
M  V30 25 1 1 24
M  V30 26 1 1 25
M  V30 27 1 3 26
M  V30 28 1 4 27
M  V30 29 1 5 28
M  V30 30 1 7 29
M  V30 31 1 11 30
M  V30 32 1 15 31
M  V30 33 1 16 32
M  V30 34 1 17 33
M  V30 35 1 18 34
M  V30 36 1 20 35
M  V30 37 1 20 36
M  V30 38 1 23 37
M  V30 39 1 23 38
M  V30 40 1 23 39
M  V30 END BOND
M  V30 END CTAB
M  END
