
     RDKit          3D

  0  0  0  0  0  0  0  0  0  0999 V3000
M  V30 BEGIN CTAB
M  V30 COUNTS 36 37 0 0 0
M  V30 BEGIN ATOM
M  V30 1 N 6.53322 0.829535 1.87845 0
M  V30 2 S 5.78158 -0.359782 0.871091 0
M  V30 3 O 4.6807 -1.04204 1.61537 0
M  V30 4 O 6.81629 -1.40181 0.527015 0
M  V30 5 O 5.16394 0.352787 -0.563072 0
M  V30 6 C 3.84268 0.133702 -0.911259 0
M  V30 7 C 2.85722 0.980036 -0.470587 0
M  V30 8 C 1.53557 0.782396 -0.803982 0
M  V30 9 C 1.18328 -0.290398 -1.59977 0
M  V30 10 C 2.15922 -1.17232 -2.06697 0
M  V30 11 C 3.4656 -0.938277 -1.71093 0
M  V30 12 C -0.180733 -0.593966 -1.98128 0
M  V30 13 O -0.38523 -1.2371 -3.04811 0
M  V30 14 C -1.36253 -0.215265 -1.22743 0
M  V30 15 C -1.37087 0.0144857 0.12911 0
M  V30 16 C -2.51983 0.396201 0.80492 0
M  V30 17 C -3.71995 0.565988 0.151471 0
M  V30 18 O -4.84995 0.946858 0.850434 0
M  V30 19 S -5.85744 -0.226506 1.51281 0
M  V30 20 N -6.13989 0.03138 3.19898 0
M  V30 21 O -7.19422 -0.22126 0.804087 0
M  V30 22 O -5.21024 -1.58168 1.38937 0
M  V30 23 C -3.70752 0.33439 -1.20631 0
M  V30 24 C -2.58632 -0.0416085 -1.88771 0
M  V30 25 H 7.18577 1.43524 1.35598 0
M  V30 26 H 5.81114 1.33643 2.42693 0
M  V30 27 H 3.09883 1.83957 0.162 0
M  V30 28 H 0.788076 1.47461 -0.451879 0
M  V30 29 H 1.88509 -2.01346 -2.69104 0
M  V30 30 H 4.25384 -1.61152 -2.06089 0
M  V30 31 H -0.445855 -0.121741 0.705805 0
M  V30 32 H -2.51257 0.573073 1.86792 0
M  V30 33 H -5.2932 -0.190842 3.77081 0
M  V30 34 H -6.4936 0.998174 3.37001 0
M  V30 35 H -4.64292 0.462738 -1.74724 0
M  V30 36 H -2.5692 -0.228018 -2.9641 0
M  V30 END ATOM
M  V30 BEGIN BOND
M  V30 1 1 1 2
M  V30 2 2 2 3
M  V30 3 2 2 4
M  V30 4 1 2 5
M  V30 5 1 5 6
M  V30 6 2 6 7
M  V30 7 1 7 8
M  V30 8 2 8 9
M  V30 9 1 9 10
M  V30 10 2 10 11
M  V30 11 1 9 12
M  V30 12 2 12 13
M  V30 13 1 12 14
M  V30 14 2 14 15
M  V30 15 1 15 16
M  V30 16 2 16 17
M  V30 17 1 17 18
M  V30 18 1 18 19
M  V30 19 1 19 20
M  V30 20 2 19 21
M  V30 21 2 19 22
M  V30 22 1 17 23
M  V30 23 2 23 24
M  V30 24 1 11 6
M  V30 25 1 24 14
M  V30 26 1 1 25
M  V30 27 1 1 26
M  V30 28 1 7 27
M  V30 29 1 8 28
M  V30 30 1 10 29
M  V30 31 1 11 30
M  V30 32 1 15 31
M  V30 33 1 16 32
M  V30 34 1 20 33
M  V30 35 1 20 34
M  V30 36 1 23 35
M  V30 37 1 24 36
M  V30 END BOND
M  V30 END CTAB
M  END
