
     RDKit          3D

  0  0  0  0  0  0  0  0  0  0999 V3000
M  V30 BEGIN CTAB
M  V30 COUNTS 20 21 0 0 0
M  V30 BEGIN ATOM
M  V30 1 N 4.55027 -0.290033 0.479582 0
M  V30 2 C 3.14992 -0.459932 0.284366 0
M  V30 3 S 2.23278 -1.90843 0.0905526 0
M  V30 4 C 0.680683 -1.17156 -0.0801649 0
M  V30 5 N 0.993359 0.120198 0.0252704 0
M  V30 6 N 2.21576 0.440531 0.204156 0
M  V30 7 C -0.0596953 0.995695 -0.0720216 0
M  V30 8 O 0.124371 2.24402 0.0141119 0
M  V30 9 C -1.33341 0.536826 -0.264577 0
M  V30 10 C -1.63662 -0.804537 -0.371197 0
M  V30 11 N -0.59152 -1.6387 -0.272927 0
M  V30 12 N -2.93591 -1.32468 -0.570197 0
M  V30 13 C -2.47362 1.52358 -0.367997 0
M  V30 14 H 4.88966 -0.098837 1.43613 0
M  V30 15 H 5.22685 -0.353355 -0.307355 0
M  V30 16 H -3.6273 -1.37712 0.225671 0
M  V30 17 H -3.22506 -1.66524 -1.51814 0
M  V30 18 H -2.63962 1.77393 -1.43299 0
M  V30 19 H -2.15931 2.41164 0.226908 0
M  V30 20 H -3.38159 1.046 0.0228584 0
M  V30 END ATOM
M  V30 BEGIN BOND
M  V30 1 1 1 2
M  V30 2 1 2 3
M  V30 3 1 3 4
M  V30 4 1 4 5
M  V30 5 1 5 6
M  V30 6 1 5 7
M  V30 7 2 7 8
M  V30 8 1 7 9
M  V30 9 2 9 10
M  V30 10 1 10 11
M  V30 11 1 10 12
M  V30 12 1 9 13
M  V30 13 2 6 2
M  V30 14 2 11 4
M  V30 15 1 1 14
M  V30 16 1 1 15
M  V30 17 1 12 16
M  V30 18 1 12 17
M  V30 19 1 13 18
M  V30 20 1 13 19
M  V30 21 1 13 20
M  V30 END BOND
M  V30 END CTAB
M  END
