
     RDKit          3D

  0  0  0  0  0  0  0  0  0  0999 V3000
M  V30 BEGIN CTAB
M  V30 COUNTS 30 31 0 0 0
M  V30 BEGIN ATOM
M  V30 1 C -3.70309 0.533547 1.81161 0
M  V30 2 C -3.52472 0.153344 0.361996 0
M  V30 3 C -3.37368 -1.22634 -0.0811096 0
M  V30 4 C -2.14196 -0.40495 0.0613443 0
M  V30 5 C -1.49869 0.212424 -1.15869 0
M  V30 6 N -0.200646 -0.278026 -1.47049 0
M  V30 7 C 0.888531 -0.032332 -0.612348 0
M  V30 8 C 0.836383 0.706058 0.544202 0
M  V30 9 C 1.93563 0.90632 1.35536 0
M  V30 10 C 3.12811 0.332647 0.970758 0
M  V30 11 C 3.17681 -0.408884 -0.193077 0
M  V30 12 N 2.0787 -0.567729 -0.937141 0
M  V30 13 N 4.42273 -0.991121 -0.567857 0
M  V30 14 N 4.3208 0.494801 1.76269 0
M  V30 15 H -3.73784 -0.347338 2.48119 0
M  V30 16 H -2.79861 1.12774 2.09333 0
M  V30 17 H -4.57175 1.20151 1.93509 0
M  V30 18 H -3.96408 0.88262 -0.334196 0
M  V30 19 H -3.53496 -2.08624 0.589282 0
M  V30 20 H -3.65138 -1.44689 -1.14443 0
M  V30 21 H -1.47423 -0.731174 0.859658 0
M  V30 22 H -2.17428 0.0981639 -2.04966 0
M  V30 23 H -1.5054 1.32603 -0.963863 0
M  V30 24 H -0.0413417 -0.824587 -2.33789 0
M  V30 25 H -0.0878897 1.16637 0.850869 0
M  V30 26 H 1.91385 1.48376 2.26885 0
M  V30 27 H 4.51358 -1.45781 -1.49744 0
M  V30 28 H 5.24153 -0.969191 0.0462653 0
M  V30 29 H 4.80944 1.41826 1.76023 0
M  V30 30 H 4.71841 -0.270966 2.33939 0
M  V30 END ATOM
M  V30 BEGIN BOND
M  V30 1 1 1 2
M  V30 2 1 2 3
M  V30 3 1 3 4
M  V30 4 1 4 5
M  V30 5 1 5 6
M  V30 6 1 6 7
M  V30 7 2 7 8
M  V30 8 1 8 9
M  V30 9 2 9 10
M  V30 10 1 10 11
M  V30 11 2 11 12
M  V30 12 1 11 13
M  V30 13 1 10 14
M  V30 14 1 4 2
M  V30 15 1 12 7
M  V30 16 1 1 15
M  V30 17 1 1 16
M  V30 18 1 1 17
M  V30 19 1 2 18
M  V30 20 1 3 19
M  V30 21 1 3 20
M  V30 22 1 4 21
M  V30 23 1 5 22
M  V30 24 1 5 23
M  V30 25 1 6 24
M  V30 26 1 8 25
M  V30 27 1 9 26
M  V30 28 1 13 27
M  V30 29 1 13 28
M  V30 30 1 14 29
M  V30 31 1 14 30
M  V30 END BOND
M  V30 END CTAB
M  END
