
     RDKit          3D

  0  0  0  0  0  0  0  0  0  0999 V3000
M  V30 BEGIN CTAB
M  V30 COUNTS 20 20 0 0 0
M  V30 BEGIN ATOM
M  V30 1 N -1.95618 -1.52725 0.0769117 0
M  V30 2 C -0.892445 -0.594711 0.263665 0 CFG=2
M  V30 3 C -1.35027 0.854945 0.209716 0
M  V30 4 O -0.310271 1.61176 0.740139 0
M  V30 5 C 0.817969 1.59368 -0.0400793 0
M  V30 6 C 1.29194 0.246824 -0.445826 0 CFG=2
M  V30 7 C 0.204526 -0.724494 -0.787145 0
M  V30 8 N 2.18435 -0.360602 0.547101 0
M  V30 9 H -1.83538 -2.00748 -0.850965 0
M  V30 10 H -2.90483 -1.10521 0.146783 0
M  V30 11 H -0.411973 -0.779032 1.25991 0
M  V30 12 H -2.27771 1.03585 0.754209 0
M  V30 13 H -1.46448 1.11441 -0.861344 0
M  V30 14 H 0.638182 2.21721 -0.942325 0
M  V30 15 H 1.63778 2.07642 0.557795 0
M  V30 16 H 1.94238 0.381936 -1.3596 0
M  V30 17 H -0.239355 -0.444572 -1.75247 0
M  V30 18 H 0.568122 -1.74918 -0.808074 0
M  V30 19 H 2.68828 -1.15774 0.0852761 0
M  V30 20 H 1.66937 -0.682752 1.38254 0
M  V30 END ATOM
M  V30 BEGIN BOND
M  V30 1 1 1 2
M  V30 2 1 2 3
M  V30 3 1 3 4
M  V30 4 1 4 5
M  V30 5 1 5 6
M  V30 6 1 6 7
M  V30 7 1 6 8
M  V30 8 1 7 2
M  V30 9 1 1 9
M  V30 10 1 1 10
M  V30 11 1 2 11 CFG=1
M  V30 12 1 3 12
M  V30 13 1 3 13
M  V30 14 1 5 14
M  V30 15 1 5 15
M  V30 16 1 6 16 CFG=3
M  V30 17 1 7 17
M  V30 18 1 7 18
M  V30 19 1 8 19
M  V30 20 1 8 20
M  V30 END BOND
M  V30 END CTAB
M  END
