
     RDKit          3D

  0  0  0  0  0  0  0  0  0  0999 V3000
M  V30 BEGIN CTAB
M  V30 COUNTS 31 31 0 0 0
M  V30 BEGIN ATOM
M  V30 1 N 0.0701692 3.07377 -0.648149 0
M  V30 2 C -1.25112 2.55271 -0.351677 0
M  V30 3 C -1.11382 1.31861 0.523779 0
M  V30 4 N -0.383381 0.306999 -0.112041 0
M  V30 5 C -0.935905 -0.356591 -1.20029 0
M  V30 6 C -1.55863 -1.70554 -0.882774 0
M  V30 7 C -1.41235 -2.08221 0.565685 0
M  V30 8 O -0.0878351 -2.37294 0.808832 0
M  V30 9 C 0.603449 -1.33247 1.42045 0
M  V30 10 C 0.791324 -0.156887 0.50201 0 CFG=1
M  V30 11 S 2.13099 -0.511554 -0.62775 0
M  V30 12 O 1.78384 -1.81571 -1.35062 0
M  V30 13 O 2.42333 0.595069 -1.55985 0
M  V30 14 N 3.59334 -0.873671 0.245936 0
M  V30 15 H 0.00525362 4.08943 -0.900202 0
M  V30 16 H 0.641225 2.99638 0.240244 0
M  V30 17 H -1.82165 2.3416 -1.26661 0
M  V30 18 H -1.79478 3.34446 0.223532 0
M  V30 19 H -2.15944 0.954004 0.702196 0
M  V30 20 H -0.673232 1.55711 1.50476 0
M  V30 21 H -0.231944 -0.495715 -2.06287 0
M  V30 22 H -1.77216 0.265216 -1.61737 0
M  V30 23 H -2.64772 -1.74319 -1.13978 0
M  V30 24 H -1.08078 -2.50742 -1.48022 0
M  V30 25 H -1.9897 -3.04658 0.67719 0
M  V30 26 H -1.82765 -1.3269 1.26328 0
M  V30 27 H 1.62557 -1.74259 1.62639 0
M  V30 28 H 0.181453 -1.04567 2.40409 0
M  V30 29 H 1.167 0.684641 1.12242 0
M  V30 30 H 3.40688 -0.847053 1.28107 0
M  V30 31 H 4.31828 -0.117301 0.0883498 0
M  V30 END ATOM
M  V30 BEGIN BOND
M  V30 1 1 1 2
M  V30 2 1 2 3
M  V30 3 1 3 4
M  V30 4 1 4 5
M  V30 5 1 5 6
M  V30 6 1 6 7
M  V30 7 1 7 8
M  V30 8 1 8 9
M  V30 9 1 9 10
M  V30 10 1 10 11
M  V30 11 2 11 12
M  V30 12 2 11 13
M  V30 13 1 11 14
M  V30 14 1 10 4
M  V30 15 1 1 15
M  V30 16 1 1 16
M  V30 17 1 2 17
M  V30 18 1 2 18
M  V30 19 1 3 19
M  V30 20 1 3 20
M  V30 21 1 5 21
M  V30 22 1 5 22
M  V30 23 1 6 23
M  V30 24 1 6 24
M  V30 25 1 7 25
M  V30 26 1 7 26
M  V30 27 1 9 27
M  V30 28 1 9 28
M  V30 29 1 10 29 CFG=1
M  V30 30 1 14 30
M  V30 31 1 14 31
M  V30 END BOND
M  V30 END CTAB
M  END
