
     RDKit          3D

  0  0  0  0  0  0  0  0  0  0999 V3000
M  V30 BEGIN CTAB
M  V30 COUNTS 30 32 0 0 0
M  V30 BEGIN ATOM
M  V30 1 N -2.7059 -2.45567 -0.42865 0
M  V30 2 C -2.58561 -1.03856 -0.33286 0
M  V30 3 C -3.70325 -0.252386 -0.39307 0
M  V30 4 C -3.5735 1.10536 -0.299902 0
M  V30 5 Br -5.12967 2.19201 -0.384218 0
M  V30 6 C -2.2889 1.67572 -0.143034 0
M  V30 7 O -2.24503 3.02891 -0.0583573 0
M  V30 8 C -1.18199 0.847894 -0.0863285 0
M  V30 9 C -1.31414 -0.518649 -0.180251 0
M  V30 10 C -0.136778 -1.40968 -0.120575 0
M  V30 11 O -0.341758 -2.64268 -0.213528 0
M  V30 12 C 1.19345 -0.849698 0.0400313 0
M  V30 13 C 1.33296 0.522944 0.135019 0
M  V30 14 C 2.57696 1.08196 0.287299 0
M  V30 15 N 2.70558 2.49143 0.383437 0
M  V30 16 C 3.66996 0.245208 0.34212 0
M  V30 17 C 3.56435 -1.10687 0.251603 0
M  V30 18 Br 5.07509 -2.24762 0.328309 0
M  V30 19 C 2.29877 -1.70491 0.094934 0
M  V30 20 O 2.19853 -3.03724 0.00610487 0
M  V30 21 C 0.157437 1.38525 0.0738118 0
M  V30 22 O 0.380772 2.62112 0.168692 0
M  V30 23 H -2.54796 -2.87505 -1.35955 0
M  V30 24 H -2.94461 -2.98102 0.441035 0
M  V30 25 H -4.68681 -0.726476 -0.515404 0
M  V30 26 H -1.56152 3.68732 0.0462181 0
M  V30 27 H 2.76228 2.97792 1.31031 0
M  V30 28 H 2.74359 3.04852 -0.510825 0
M  V30 29 H 4.6567 0.71221 0.464304 0
M  V30 30 H 1.63099 -3.77727 -0.0922127 0
M  V30 END ATOM
M  V30 BEGIN BOND
M  V30 1 1 1 2
M  V30 2 2 2 3
M  V30 3 1 3 4
M  V30 4 1 4 5
M  V30 5 2 4 6
M  V30 6 1 6 7
M  V30 7 1 6 8
M  V30 8 2 8 9
M  V30 9 1 9 10
M  V30 10 2 10 11
M  V30 11 1 10 12
M  V30 12 2 12 13
M  V30 13 1 13 14
M  V30 14 1 14 15
M  V30 15 2 14 16
M  V30 16 1 16 17
M  V30 17 1 17 18
M  V30 18 2 17 19
M  V30 19 1 19 20
M  V30 20 1 13 21
M  V30 21 2 21 22
M  V30 22 1 9 2
M  V30 23 1 19 12
M  V30 24 1 21 8
M  V30 25 1 1 23
M  V30 26 1 1 24
M  V30 27 1 3 25
M  V30 28 1 7 26
M  V30 29 1 15 27
M  V30 30 1 15 28
M  V30 31 1 16 29
M  V30 32 1 20 30
M  V30 END BOND
M  V30 END CTAB
M  END
