
     RDKit          3D

  0  0  0  0  0  0  0  0  0  0999 V3000
M  V30 BEGIN CTAB
M  V30 COUNTS 49 48 0 0 0
M  V30 BEGIN ATOM
M  V30 1 C 5.09124 2.01092 -0.155908 0 CFG=1
M  V30 2 N 4.60403 3.04361 0.700925 0
M  V30 3 C 4.28978 0.733219 -0.0595073 0
M  V30 4 C 2.83609 0.960393 -0.439411 0
M  V30 5 C 2.14938 -0.367321 -0.307092 0
M  V30 6 O 2.75751 -1.40498 0.0538635 0
M  V30 7 N 0.767049 -0.413384 -0.608085 0
M  V30 8 C 0.059008 -1.65099 -0.500301 0 CFG=1
M  V30 9 C -1.10342 -1.5694 0.470876 0
M  V30 10 S -0.422385 -1.13083 2.09086 0
M  V30 11 S -1.90825 -0.976451 3.58202 0
M  V30 12 C -2.5565 0.691185 3.67977 0
M  V30 13 C -3.32579 1.10768 2.44565 0 CFG=2
M  V30 14 N -3.78043 2.46715 2.67178 0
M  V30 15 C -4.47467 0.231093 2.17825 0
M  V30 16 O -5.75292 0.768598 2.16435 0
M  V30 17 O -4.38015 -0.99504 1.95675 0
M  V30 18 C -0.528578 -2.00167 -1.81478 0
M  V30 19 O -0.345259 -1.23011 -2.78039 0
M  V30 20 N -1.27567 -3.19863 -1.92579 0
M  V30 21 C -1.86364 -3.55821 -3.19535 0
M  V30 22 C -2.8327 -2.53992 -3.59456 0
M  V30 23 O -3.46527 -2.71484 -4.82886 0
M  V30 24 O -3.14605 -1.52151 -2.92451 0
M  V30 25 C 5.06923 2.4456 -1.56646 0
M  V30 26 O 4.62304 3.69945 -1.88281 0
M  V30 27 O 5.4563 1.67508 -2.47805 0
M  V30 28 H 6.1332 1.78918 0.120968 0
M  V30 29 H 3.89377 2.74091 1.3894 0
M  V30 30 H 5.35384 3.6297 1.12476 0
M  V30 31 H 4.72171 -0.0285562 -0.738494 0
M  V30 32 H 4.39024 0.358872 0.972009 0
M  V30 33 H 2.7783 1.25004 -1.50544 0
M  V30 34 H 2.36464 1.74318 0.153274 0
M  V30 35 H 0.226857 0.425436 -0.910563 0
M  V30 36 H 0.770474 -2.44111 -0.169703 0
M  V30 37 H -1.81937 -0.780505 0.196053 0
M  V30 38 H -1.60112 -2.53801 0.575395 0
M  V30 39 H -3.14224 0.825509 4.58825 0
M  V30 40 H -1.68004 1.39289 3.75046 0
M  V30 41 H -2.6409 1.10708 1.5633 0
M  V30 42 H -2.93694 3.04644 2.87966 0
M  V30 43 H -4.15094 2.81168 1.75008 0
M  V30 44 H -6.44236 0.323084 2.73991 0
M  V30 45 H -1.38994 -3.80947 -1.07416 0
M  V30 46 H -2.31447 -4.56865 -3.0917 0
M  V30 47 H -1.04178 -3.69311 -3.95623 0
M  V30 48 H -2.85975 -2.67631 -5.64145 0
M  V30 49 H 4.84583 4.53103 -1.33202 0
M  V30 END ATOM
M  V30 BEGIN BOND
M  V30 1 1 1 2
M  V30 2 1 1 3
M  V30 3 1 3 4
M  V30 4 1 4 5
M  V30 5 2 5 6
M  V30 6 1 5 7
M  V30 7 1 7 8
M  V30 8 1 8 9
M  V30 9 1 9 10
M  V30 10 1 10 11
M  V30 11 1 11 12
M  V30 12 1 12 13
M  V30 13 1 13 14
M  V30 14 1 13 15
M  V30 15 1 15 16
M  V30 16 2 15 17
M  V30 17 1 8 18
M  V30 18 2 18 19
M  V30 19 1 18 20
M  V30 20 1 20 21
M  V30 21 1 21 22
M  V30 22 1 22 23
M  V30 23 2 22 24
M  V30 24 1 1 25
M  V30 25 1 25 26
M  V30 26 2 25 27
M  V30 27 1 1 28 CFG=1
M  V30 28 1 2 29
M  V30 29 1 2 30
M  V30 30 1 3 31
M  V30 31 1 3 32
M  V30 32 1 4 33
M  V30 33 1 4 34
M  V30 34 1 7 35
M  V30 35 1 8 36 CFG=1
M  V30 36 1 9 37
M  V30 37 1 9 38
M  V30 38 1 12 39
M  V30 39 1 12 40
M  V30 40 1 13 41 CFG=3
M  V30 41 1 14 42
M  V30 42 1 14 43
M  V30 43 1 16 44
M  V30 44 1 20 45
M  V30 45 1 21 46
M  V30 46 1 21 47
M  V30 47 1 23 48
M  V30 48 1 26 49
M  V30 END BOND
M  V30 END CTAB
M  END
