
     RDKit          3D

  0  0  0  0  0  0  0  0  0  0999 V3000
M  V30 BEGIN CTAB
M  V30 COUNTS 30 31 0 0 0
M  V30 BEGIN ATOM
M  V30 1 C -3.99915 -0.773215 -0.577509 0
M  V30 2 C -2.77026 -0.163449 0.0134878 0
M  V30 3 C -3.0759 0.671569 1.21121 0
M  V30 4 C -1.83263 0.501962 -0.967765 0
M  V30 5 N -0.699533 -0.16564 -0.360532 0
M  V30 6 C -1.62704 -1.14343 0.171684 0
M  V30 7 C 0.724047 0.0491894 -0.309056 0
M  V30 8 C 1.28097 1.12726 -0.960091 0
M  V30 9 C 2.65103 1.34423 -0.917448 0
M  V30 10 C 3.4706 0.47187 -0.215286 0
M  V30 11 C 2.88328 -0.583088 0.415941 0
M  V30 12 N 1.53548 -0.776306 0.360338 0
M  V30 13 N 3.72151 -1.48139 1.13822 0
M  V30 14 N 4.85307 0.744815 -0.208782 0
M  V30 15 H -3.82656 -1.81645 -0.912106 0
M  V30 16 H -4.41169 -0.171318 -1.42318 0
M  V30 17 H -4.77489 -0.831141 0.214607 0
M  V30 18 H -2.17629 0.962418 1.78706 0
M  V30 19 H -3.77277 0.0903568 1.86484 0
M  V30 20 H -3.66795 1.55082 0.867305 0
M  V30 21 H -1.94306 0.126503 -2.01624 0
M  V30 22 H -1.80623 1.60872 -0.897871 0
M  V30 23 H -1.75106 -1.98446 -0.542666 0
M  V30 24 H -1.45806 -1.41595 1.21665 0
M  V30 25 H 0.625314 1.81408 -1.51434 0
M  V30 26 H 3.04032 2.20544 -1.44523 0
M  V30 27 H 3.79151 -1.45183 2.19105 0
M  V30 28 H 4.29412 -2.20106 0.62562 0
M  V30 29 H 5.28197 1.2332 0.590627 0
M  V30 30 H 5.43983 0.456288 -1.00472 0
M  V30 END ATOM
M  V30 BEGIN BOND
M  V30 1 1 1 2
M  V30 2 1 2 3
M  V30 3 1 2 4
M  V30 4 1 4 5
M  V30 5 1 5 6
M  V30 6 1 5 7
M  V30 7 2 7 8
M  V30 8 1 8 9
M  V30 9 2 9 10
M  V30 10 1 10 11
M  V30 11 2 11 12
M  V30 12 1 11 13
M  V30 13 1 10 14
M  V30 14 1 6 2
M  V30 15 1 12 7
M  V30 16 1 1 15
M  V30 17 1 1 16
M  V30 18 1 1 17
M  V30 19 1 3 18
M  V30 20 1 3 19
M  V30 21 1 3 20
M  V30 22 1 4 21
M  V30 23 1 4 22
M  V30 24 1 6 23
M  V30 25 1 6 24
M  V30 26 1 8 25
M  V30 27 1 9 26
M  V30 28 1 13 27
M  V30 29 1 13 28
M  V30 30 1 14 29
M  V30 31 1 14 30
M  V30 END BOND
M  V30 END CTAB
M  END
