
     RDKit          3D

  0  0  0  0  0  0  0  0  0  0999 V3000
M  V30 BEGIN CTAB
M  V30 COUNTS 14 14 0 0 0
M  V30 BEGIN ATOM
M  V30 1 N -1.03813 -1.77674 -0.00336299 0
M  V30 2 C -0.00116043 -0.826281 0.00666457 0
M  V30 3 N 1.31241 -1.16723 0.0391555 0
M  V30 4 C 2.29716 -0.250927 0.0484949 0
M  V30 5 Cl 3.99126 -0.764172 0.0913433 0
M  V30 6 N 1.96814 1.05628 0.0246982 0
M  V30 7 C 0.677046 1.44357 -0.00790355 0
M  V30 8 Cl 0.20752 3.13368 -0.0395738 0
M  V30 9 C -0.337553 0.510118 -0.0176607 0
M  V30 10 N -1.72003 0.884008 -0.0520487 0
M  V30 11 H -1.63315 -1.90022 -0.851471 0
M  V30 12 H -1.22436 -2.36645 0.831427 0
M  V30 13 H -2.33759 0.637985 0.765625 0
M  V30 14 H -2.16156 1.38638 -0.835388 0
M  V30 END ATOM
M  V30 BEGIN BOND
M  V30 1 1 1 2
M  V30 2 2 2 3
M  V30 3 1 3 4
M  V30 4 1 4 5
M  V30 5 2 4 6
M  V30 6 1 6 7
M  V30 7 1 7 8
M  V30 8 2 7 9
M  V30 9 1 9 10
M  V30 10 1 9 2
M  V30 11 1 1 11
M  V30 12 1 1 12
M  V30 13 1 10 13
M  V30 14 1 10 14
M  V30 END BOND
M  V30 END CTAB
M  END
