
     RDKit          3D

  0  0  0  0  0  0  0  0  0  0999 V3000
M  V30 BEGIN CTAB
M  V30 COUNTS 30 31 0 0 0
M  V30 BEGIN ATOM
M  V30 1 N -1.45324 -0.600333 2.13504 0
M  V30 2 C -1.61176 -1.00679 0.762168 0
M  V30 3 C -1.11946 0.0141039 -0.218148 0
M  V30 4 C -1.34921 -0.549682 -1.63809 0
M  V30 5 C -1.82525 1.28204 -0.182228 0
M  V30 6 N -0.978028 2.23456 -0.0447876 0
M  V30 7 C 0.343421 1.74118 0.0251758 0
M  V30 8 O 1.4314 2.36474 0.157919 0
M  V30 9 N 0.268222 0.333308 -0.0835887 0
M  V30 10 C 1.40185 -0.571643 -0.0587468 0
M  V30 11 C 2.47335 -0.272082 -1.0859 0
M  V30 12 C 3.48583 -0.322896 0.0381662 0
M  V30 13 C 2.3482 -0.454844 1.06075 0
M  V30 14 N -3.25255 1.52083 -0.279281 0
M  V30 15 H -1.01538 0.344173 2.17721 0
M  V30 16 H -2.35015 -0.565666 2.65631 0
M  V30 17 H -2.71261 -1.11587 0.589584 0
M  V30 18 H -1.17709 -1.9977 0.637617 0
M  V30 19 H -0.738718 -1.45396 -1.8031 0
M  V30 20 H -2.4285 -0.791718 -1.73012 0
M  V30 21 H -1.1391 0.23741 -2.39387 0
M  V30 22 H 1.03053 -1.61071 -0.164284 0
M  V30 23 H 2.60273 -1.08423 -1.83418 0
M  V30 24 H 2.37188 0.685953 -1.60434 0
M  V30 25 H 4.00336 0.640727 0.124666 0
M  V30 26 H 4.13278 -1.22549 0.00353529 0
M  V30 27 H 2.29972 0.409232 1.72729 0
M  V30 28 H 2.50687 -1.37862 1.68735 0
M  V30 29 H -3.77527 1.09208 -1.06744 0
M  V30 30 H -3.77381 2.10189 0.405305 0
M  V30 END ATOM
M  V30 BEGIN BOND
M  V30 1 1 1 2
M  V30 2 1 2 3
M  V30 3 1 3 4
M  V30 4 1 3 5
M  V30 5 2 5 6
M  V30 6 1 6 7
M  V30 7 2 7 8
M  V30 8 1 7 9
M  V30 9 1 9 10
M  V30 10 1 10 11
M  V30 11 1 11 12
M  V30 12 1 12 13
M  V30 13 1 5 14
M  V30 14 1 9 3
M  V30 15 1 13 10
M  V30 16 1 1 15
M  V30 17 1 1 16
M  V30 18 1 2 17
M  V30 19 1 2 18
M  V30 20 1 4 19
M  V30 21 1 4 20
M  V30 22 1 4 21
M  V30 23 1 10 22
M  V30 24 1 11 23
M  V30 25 1 11 24
M  V30 26 1 12 25
M  V30 27 1 12 26
M  V30 28 1 13 27
M  V30 29 1 13 28
M  V30 30 1 14 29
M  V30 31 1 14 30
M  V30 END BOND
M  V30 END CTAB
M  END
