
     RDKit          3D

  0  0  0  0  0  0  0  0  0  0999 V3000
M  V30 BEGIN CTAB
M  V30 COUNTS 19 19 0 0 0
M  V30 BEGIN ATOM
M  V30 1 C 2.92128 0.127699 -0.279764 0
M  V30 2 C 1.43525 0.213358 -0.13135 0
M  V30 3 C 0.632936 -0.909554 -0.132857 0
M  V30 4 Cl 1.35211 -2.4942 -0.312465 0
M  V30 5 C -0.737448 -0.835678 0.00366698 0
M  V30 6 N -1.57665 -1.9816 0.0040596 0
M  V30 7 C -1.34703 0.401604 0.148507 0
M  V30 8 N -2.76086 0.516166 0.292036 0
M  V30 9 C -0.526735 1.51257 0.147456 0
M  V30 10 Cl -1.29158 3.08354 0.330476 0
M  V30 11 C 0.844914 1.45209 0.011747 0
M  V30 12 H 3.43468 0.354282 0.673941 0
M  V30 13 H 3.29545 0.876522 -1.0174 0
M  V30 14 H 3.17691 -0.907378 -0.54505 0
M  V30 15 H -2.20269 -2.25157 -0.779762 0
M  V30 16 H -1.54412 -2.57931 0.864932 0
M  V30 17 H -3.28479 1.35641 0.0082468 0
M  V30 18 H -3.29403 -0.277851 0.69977 0
M  V30 19 H 1.47242 2.34291 0.0138079 0
M  V30 END ATOM
M  V30 BEGIN BOND
M  V30 1 1 1 2
M  V30 2 2 2 3
M  V30 3 1 3 4
M  V30 4 1 3 5
M  V30 5 1 5 6
M  V30 6 2 5 7
M  V30 7 1 7 8
M  V30 8 1 7 9
M  V30 9 1 9 10
M  V30 10 2 9 11
M  V30 11 1 11 2
M  V30 12 1 1 12
M  V30 13 1 1 13
M  V30 14 1 1 14
M  V30 15 1 6 15
M  V30 16 1 6 16
M  V30 17 1 8 17
M  V30 18 1 8 18
M  V30 19 1 11 19
M  V30 END BOND
M  V30 END CTAB
M  END
