
     RDKit          3D

  0  0  0  0  0  0  0  0  0  0999 V3000
M  V30 BEGIN CTAB
M  V30 COUNTS 53 56 0 0 0
M  V30 BEGIN ATOM
M  V30 1 C 5.55797 -0.145095 -0.435027 0 CFG=1
M  V30 2 N 6.21753 -1.44773 -0.787459 0
M  V30 3 C 4.29905 -0.158616 -1.20277 0
M  V30 4 C 3.4199 1.01963 -1.04663 0
M  V30 5 S 2.78984 1.16512 0.623958 0
M  V30 6 C 1.67992 -0.248789 0.925588 0
M  V30 7 C 0.50378 -0.0542495 0.00383636 0 CFG=1
M  V30 8 O -0.455388 -1.05658 0.103165 0
M  V30 9 C -1.49801 -0.449666 -0.638354 0 CFG=1
M  V30 10 N -2.63919 -1.29992 -0.692103 0
M  V30 11 C -3.20103 -1.75729 -1.83225 0
M  V30 12 N -4.25488 -2.53089 -1.52122 0
M  V30 13 C -4.34407 -2.55124 -0.181421 0
M  V30 14 C -3.32155 -1.7719 0.349168 0
M  V30 15 N -3.2077 -1.64064 1.69601 0
M  V30 16 C -4.07604 -2.2592 2.50185 0
M  V30 17 N -5.06533 -3.01375 1.97536 0
M  V30 18 C -5.22381 -3.17689 0.663621 0
M  V30 19 N -6.24881 -3.96068 0.0930555 0
M  V30 20 C -1.67501 0.829385 0.117713 0 CFG=2
M  V30 21 O -2.0803 1.88284 -0.681456 0
M  V30 22 C -1.19757 2.91751 -0.379076 0
M  V30 23 C -1.22929 3.98237 -1.45287 0
M  V30 24 C -1.62691 3.56324 0.914477 0
M  V30 25 O 0.0187818 2.28565 -0.294267 0
M  V30 26 C -0.235429 1.18037 0.476543 0 CFG=2
M  V30 27 C 5.48375 -0.0974523 1.02077 0
M  V30 28 O 5.37347 -1.25227 1.79222 0
M  V30 29 O 5.51593 0.984212 1.64427 0
M  V30 30 H 6.25466 0.649197 -0.819612 0
M  V30 31 H 5.6197 -2.15629 -0.318556 0
M  V30 32 H 6.10841 -1.52943 -1.81763 0
M  V30 33 H 4.49831 -0.276629 -2.32028 0
M  V30 34 H 3.73458 -1.11731 -0.979054 0
M  V30 35 H 2.5527 0.981524 -1.77891 0
M  V30 36 H 3.94006 1.97561 -1.34477 0
M  V30 37 H 1.38139 -0.190278 1.98678 0
M  V30 38 H 2.19774 -1.2055 0.72223 0
M  V30 39 H 0.807198 0.0266779 -1.05203 0
M  V30 40 H -1.07548 -0.216114 -1.6429 0
M  V30 41 H -2.87157 -1.54697 -2.84244 0
M  V30 42 H -4.00694 -2.17062 3.57768 0
M  V30 43 H -7.2396 -3.73795 0.295191 0
M  V30 44 H -6.01206 -4.75916 -0.528135 0
M  V30 45 H -2.24418 0.7213 1.03904 0
M  V30 46 H -1.17344 4.98209 -0.99156 0
M  V30 47 H -0.335338 3.87489 -2.12104 0
M  V30 48 H -2.18251 3.89796 -2.00756 0
M  V30 49 H -2.56153 4.13426 0.700373 0
M  V30 50 H -1.87193 2.78951 1.67392 0
M  V30 51 H -0.809433 4.22724 1.26563 0
M  V30 52 H -0.0960125 1.30907 1.55155 0
M  V30 53 H 6.10563 -1.60057 2.38704 0
M  V30 END ATOM
M  V30 BEGIN BOND
M  V30 1 1 1 2
M  V30 2 1 1 3
M  V30 3 1 3 4
M  V30 4 1 4 5
M  V30 5 1 5 6
M  V30 6 1 6 7
M  V30 7 1 7 8
M  V30 8 1 8 9
M  V30 9 1 9 10
M  V30 10 1 10 11
M  V30 11 2 11 12
M  V30 12 1 12 13
M  V30 13 2 13 14
M  V30 14 1 14 15
M  V30 15 2 15 16
M  V30 16 1 16 17
M  V30 17 2 17 18
M  V30 18 1 18 19
M  V30 19 1 9 20
M  V30 20 1 20 21
M  V30 21 1 21 22
M  V30 22 1 22 23
M  V30 23 1 22 24
M  V30 24 1 22 25
M  V30 25 1 25 26
M  V30 26 1 1 27
M  V30 27 1 27 28
M  V30 28 2 27 29
M  V30 29 1 26 7
M  V30 30 1 14 10
M  V30 31 1 26 20
M  V30 32 1 18 13
M  V30 33 1 1 30 CFG=3
M  V30 34 1 2 31
M  V30 35 1 2 32
M  V30 36 1 3 33
M  V30 37 1 3 34
M  V30 38 1 4 35
M  V30 39 1 4 36
M  V30 40 1 6 37
M  V30 41 1 6 38
M  V30 42 1 7 39 CFG=3
M  V30 43 1 9 40 CFG=3
M  V30 44 1 11 41
M  V30 45 1 16 42
M  V30 46 1 19 43
M  V30 47 1 19 44
M  V30 48 1 20 45 CFG=1
M  V30 49 1 23 46
M  V30 50 1 23 47
M  V30 51 1 23 48
M  V30 52 1 24 49
M  V30 53 1 24 50
M  V30 54 1 24 51
M  V30 55 1 26 52 CFG=1
M  V30 56 1 28 53
M  V30 END BOND
M  V30 END CTAB
M  END
