
     RDKit          3D

  0  0  0  0  0  0  0  0  0  0999 V3000
M  V30 BEGIN CTAB
M  V30 COUNTS 37 38 0 0 0
M  V30 BEGIN ATOM
M  V30 1 Cl 6.25353 0.752169 -1.15144 0
M  V30 2 C 4.55541 0.665752 -0.705118 0
M  V30 3 C 3.55469 0.730617 -1.64273 0
M  V30 4 C 2.19462 0.660089 -1.2717 0
M  V30 5 C 1.93952 0.525055 0.0709987 0
M  V30 6 C 2.95407 0.457179 1.03873 0
M  V30 7 C 4.27359 0.52792 0.649487 0
M  V30 8 C 5.33848 0.455696 1.67519 0
M  V30 9 N 1.1971 0.704452 -2.26456 0
M  V30 10 S -0.0103974 -0.470317 -2.46624 0
M  V30 11 O 0.625022 -1.82207 -2.71961 0
M  V30 12 O -0.847114 -0.192631 -3.71246 0
M  V30 13 C -1.07686 -0.666829 -1.11504 0
M  V30 14 C -0.995618 -1.74455 -0.23871 0
M  V30 15 C -1.84523 -1.88403 0.822507 0
M  V30 16 C -2.80378 -0.946326 1.03842 0
M  V30 17 C -2.92905 0.146454 0.1971 0
M  V30 18 C -2.05488 0.256551 -0.864863 0
M  V30 19 S -4.12737 1.36472 0.425673 0
M  V30 20 O -3.9874 2.40817 -0.640586 0
M  V30 21 O -3.87536 2.00508 1.78029 0
M  V30 22 N -5.732 0.759397 0.36571 0
M  V30 23 N -3.70011 -1.04654 2.11597 0
M  V30 24 H 3.78737 0.838235 -2.69686 0
M  V30 25 H 0.918889 0.487634 0.420711 0
M  V30 26 H 2.65459 0.349935 2.07182 0
M  V30 27 H 5.5759 -0.616339 1.82665 0
M  V30 28 H 5.02286 0.95679 2.61735 0
M  V30 29 H 6.22056 1.00173 1.26755 0
M  V30 30 H 1.20875 1.53716 -2.93134 0
M  V30 31 H -0.227048 -2.46958 -0.435856 0
M  V30 32 H -1.75904 -2.74086 1.49543 0
M  V30 33 H -2.12607 1.11061 -1.55182 0
M  V30 34 H -5.69527 -0.262982 0.566506 0
M  V30 35 H -6.40532 1.28859 0.926485 0
M  V30 36 H -4.41251 -1.80124 2.13079 0
M  V30 37 H -3.66453 -0.374892 2.9056 0
M  V30 END ATOM
M  V30 BEGIN BOND
M  V30 1 1 1 2
M  V30 2 2 2 3
M  V30 3 1 3 4
M  V30 4 2 4 5
M  V30 5 1 5 6
M  V30 6 2 6 7
M  V30 7 1 7 8
M  V30 8 1 4 9
M  V30 9 1 9 10
M  V30 10 2 10 11
M  V30 11 2 10 12
M  V30 12 1 10 13
M  V30 13 2 13 14
M  V30 14 1 14 15
M  V30 15 2 15 16
M  V30 16 1 16 17
M  V30 17 2 17 18
M  V30 18 1 17 19
M  V30 19 2 19 20
M  V30 20 2 19 21
M  V30 21 1 19 22
M  V30 22 1 16 23
M  V30 23 1 7 2
M  V30 24 1 18 13
M  V30 25 1 3 24
M  V30 26 1 5 25
M  V30 27 1 6 26
M  V30 28 1 8 27
M  V30 29 1 8 28
M  V30 30 1 8 29
M  V30 31 1 9 30
M  V30 32 1 14 31
M  V30 33 1 15 32
M  V30 34 1 18 33
M  V30 35 1 22 34
M  V30 36 1 22 35
M  V30 37 1 23 36
M  V30 38 1 23 37
M  V30 END BOND
M  V30 END CTAB
M  END
