
     RDKit          3D

  0  0  0  0  0  0  0  0  0  0999 V3000
M  V30 BEGIN CTAB
M  V30 COUNTS 41 42 0 0 0
M  V30 BEGIN ATOM
M  V30 1 C -3.68361 2.28358 -2.07702 0
M  V30 2 O -3.1625 1.43032 -1.07778 0
M  V30 3 C -3.82789 0.333534 -0.624866 0
M  V30 4 O -4.97008 0.105947 -1.16203 0
M  V30 5 C -3.28343 -0.526124 0.396952 0
M  V30 6 C -4.03669 -1.67415 0.736654 0
M  V30 7 C -3.53904 -2.53389 1.68464 0
M  V30 8 C -2.32186 -2.30564 2.31387 0
M  V30 9 C -1.62521 -1.17998 1.95406 0
M  V30 10 C -2.09217 -0.274214 0.993496 0
M  V30 11 N -1.31939 0.849711 0.698459 0
M  V30 12 C -0.243648 0.723446 -0.256249 0
M  V30 13 O -0.0131121 -0.38821 -0.783972 0
M  V30 14 C 0.598699 1.88496 -0.627166 0
M  V30 15 S 1.88242 1.31962 -1.77196 0
M  V30 16 C 3.03666 0.233095 -0.958478 0
M  V30 17 N 4.11215 0.801056 -0.37891 0
M  V30 18 C 5.05035 0.110284 0.268111 0
M  V30 19 N 6.18178 0.775522 0.869227 0
M  V30 20 C 4.9087 -1.25866 0.346827 0
M  V30 21 C 3.80466 -1.85925 -0.246155 0
M  V30 22 N 2.90473 -1.09722 -0.879286 0
M  V30 23 N 3.68928 -3.27758 -0.137872 0
M  V30 24 C -1.48386 2.17185 1.30133 0
M  V30 25 H -3.05195 3.19614 -2.19757 0
M  V30 26 H -4.71207 2.5962 -1.74014 0
M  V30 27 H -3.8323 1.80213 -3.04841 0
M  V30 28 H -4.99896 -1.83902 0.224839 0
M  V30 29 H -4.10273 -3.43251 1.96649 0
M  V30 30 H -1.9456 -3.01312 3.06875 0
M  V30 31 H -0.673381 -0.975401 2.42559 0
M  V30 32 H 0.00139365 2.68726 -1.12526 0
M  V30 33 H 1.06215 2.26611 0.331638 0
M  V30 34 H 7.072 0.264415 1.01166 0
M  V30 35 H 6.15176 1.7659 1.17499 0
M  V30 36 H 5.64399 -1.84877 0.858696 0
M  V30 37 H 2.93112 -3.63575 0.491186 0
M  V30 38 H 4.32168 -3.93088 -0.652195 0
M  V30 39 H -1.21528 2.91099 0.516728 0
M  V30 40 H -2.5013 2.31893 1.68247 0
M  V30 41 H -0.71746 2.21935 2.12659 0
M  V30 END ATOM
M  V30 BEGIN BOND
M  V30 1 1 1 2
M  V30 2 1 2 3
M  V30 3 2 3 4
M  V30 4 1 3 5
M  V30 5 2 5 6
M  V30 6 1 6 7
M  V30 7 2 7 8
M  V30 8 1 8 9
M  V30 9 2 9 10
M  V30 10 1 10 11
M  V30 11 1 11 12
M  V30 12 2 12 13
M  V30 13 1 12 14
M  V30 14 1 14 15
M  V30 15 1 15 16
M  V30 16 2 16 17
M  V30 17 1 17 18
M  V30 18 1 18 19
M  V30 19 2 18 20
M  V30 20 1 20 21
M  V30 21 2 21 22
M  V30 22 1 21 23
M  V30 23 1 11 24
M  V30 24 1 10 5
M  V30 25 1 22 16
M  V30 26 1 1 25
M  V30 27 1 1 26
M  V30 28 1 1 27
M  V30 29 1 6 28
M  V30 30 1 7 29
M  V30 31 1 8 30
M  V30 32 1 9 31
M  V30 33 1 14 32
M  V30 34 1 14 33
M  V30 35 1 19 34
M  V30 36 1 19 35
M  V30 37 1 20 36
M  V30 38 1 23 37
M  V30 39 1 23 38
M  V30 40 1 24 39
M  V30 41 1 24 40
M  V30 42 1 24 41
M  V30 END BOND
M  V30 END CTAB
M  END
