
     RDKit          3D

  0  0  0  0  0  0  0  0  0  0999 V3000
M  V30 BEGIN CTAB
M  V30 COUNTS 27 28 0 0 0
M  V30 BEGIN ATOM
M  V30 1 N 3.70257 0.0185004 -0.807288 0
M  V30 2 C 3.09914 1.20657 -0.325642 0
M  V30 3 N 3.30862 2.29752 -0.960211 0
M  V30 4 C 2.25911 1.1804 0.867172 0
M  V30 5 N 1.09955 0.292627 0.703743 0
M  V30 6 N -0.0466209 0.697639 0.231443 0
M  V30 7 C -0.947374 -0.285044 0.175488 0
M  V30 8 C -0.307688 -1.40674 0.656097 0
M  V30 9 C 0.983851 -1.00298 0.979893 0
M  V30 10 N 2.00651 -1.81702 1.51099 0
M  V30 11 C -2.33311 -0.182159 -0.301823 0
M  V30 12 C -2.79535 1.03786 -0.748327 0
M  V30 13 N -4.04745 1.22483 -1.20237 0
M  V30 14 C -4.86797 0.161767 -1.21266 0
M  V30 15 C -4.4127 -1.06707 -0.766296 0
M  V30 16 N -3.15272 -1.22183 -0.317479 0
M  V30 17 H 3.59244 -0.230299 -1.81443 0
M  V30 18 H 4.25991 -0.640149 -0.220512 0
M  V30 19 H 2.86463 3.1686 -0.60487 0
M  V30 20 H 1.95622 2.18223 1.22764 0
M  V30 21 H 2.83091 0.726198 1.72933 0
M  V30 22 H -0.736046 -2.37493 0.750843 0
M  V30 23 H 2.73998 -2.29569 0.959321 0
M  V30 24 H 2.02591 -1.94813 2.54643 0
M  V30 25 H -2.09566 1.88092 -0.724183 0
M  V30 26 H -5.87897 0.302905 -1.57689 0
M  V30 27 H -5.10771 -1.90653 -0.789784 0
M  V30 END ATOM
M  V30 BEGIN BOND
M  V30 1 1 1 2
M  V30 2 2 2 3 CFG=2
M  V30 3 1 2 4
M  V30 4 1 4 5
M  V30 5 1 5 6
M  V30 6 2 6 7
M  V30 7 1 7 8
M  V30 8 2 8 9
M  V30 9 1 9 10
M  V30 10 1 7 11
M  V30 11 2 11 12
M  V30 12 1 12 13
M  V30 13 2 13 14
M  V30 14 1 14 15
M  V30 15 2 15 16
M  V30 16 1 9 5
M  V30 17 1 16 11
M  V30 18 1 1 17
M  V30 19 1 1 18
M  V30 20 1 3 19
M  V30 21 1 4 20
M  V30 22 1 4 21
M  V30 23 1 8 22
M  V30 24 1 10 23
M  V30 25 1 10 24
M  V30 26 1 12 25
M  V30 27 1 14 26
M  V30 28 1 15 27
M  V30 END BOND
M  V30 END CTAB
M  END
