
     RDKit          3D

  0  0  0  0  0  0  0  0  0  0999 V3000
M  V30 BEGIN CTAB
M  V30 COUNTS 15 15 0 0 0
M  V30 BEGIN ATOM
M  V30 1 N -2.34153 -0.921757 0.260506 0
M  V30 2 C -1.16307 -0.158777 0.0911821 0
M  V30 3 C 0.0586916 -0.81651 0.100707 0
M  V30 4 C 1.17431 -0.0386912 -0.0666814 0
M  V30 5 N 2.43381 -0.664506 -0.063552 0
M  V30 6 C 1.11997 1.34183 -0.239725 0
M  V30 7 N -0.10525 1.89761 -0.236018 0
M  V30 8 C -1.22846 1.21245 -0.0800014 0
M  V30 9 Cl -2.82319 1.93764 -0.0753913 0
M  V30 10 Cl 2.57462 2.29352 -0.450005 0
M  V30 11 H -2.73946 -1.05824 1.20404 0
M  V30 12 H -2.8198 -1.35172 -0.550938 0
M  V30 13 H 0.0730601 -1.88644 0.236513 0
M  V30 14 H 2.95254 -0.781139 0.819955 0
M  V30 15 H 2.83375 -1.00527 -0.950595 0
M  V30 END ATOM
M  V30 BEGIN BOND
M  V30 1 1 1 2
M  V30 2 2 2 3
M  V30 3 1 3 4
M  V30 4 1 4 5
M  V30 5 2 4 6
M  V30 6 1 6 7
M  V30 7 2 7 8
M  V30 8 1 8 9
M  V30 9 1 6 10
M  V30 10 1 8 2
M  V30 11 1 1 11
M  V30 12 1 1 12
M  V30 13 1 3 13
M  V30 14 1 5 14
M  V30 15 1 5 15
M  V30 END BOND
M  V30 END CTAB
M  END
