
     RDKit          3D

  0  0  0  0  0  0  0  0  0  0999 V3000
M  V30 BEGIN CTAB
M  V30 COUNTS 35 37 0 0 0
M  V30 BEGIN ATOM
M  V30 1 N -4.37412 0.44478 1.39729 0
M  V30 2 C -4.62776 0.845526 0.0583615 0
M  V30 3 N -5.77543 1.5624 -0.354094 0
M  V30 4 N -3.75993 0.512507 -0.816473 0
M  V30 5 C -2.57145 -0.222816 -0.565594 0
M  V30 6 O -2.64722 -1.47861 -0.625771 0
M  V30 7 C -1.30398 0.405983 -0.257098 0
M  V30 8 C -0.0404988 -0.226081 -0.210663 0
M  V30 9 C 0.0349256 -1.69385 -0.299501 0
M  V30 10 C 0.365653 -2.2349 -1.71345 0
M  V30 11 C 1.35083 -2.35657 -0.617308 0
M  V30 12 N 0.880084 0.675491 0.0429267 0
M  V30 13 N 0.221683 1.86551 0.156011 0
M  V30 14 C -1.065 1.72868 -0.0166597 0
M  V30 15 C 2.28014 0.58945 0.263938 0
M  V30 16 C 3.18754 0.940966 -0.689751 0
M  V30 17 C 4.55527 0.868144 -0.436833 0
M  V30 18 C 5.05725 0.443947 0.773252 0
M  V30 19 C 4.14081 0.0854576 1.74711 0
M  V30 20 C 2.79137 0.160245 1.48727 0
M  V30 21 H -4.80799 -0.43463 1.74999 0
M  V30 22 H -3.76914 1.0158 1.99378 0
M  V30 23 H -5.69571 2.59728 -0.528196 0
M  V30 24 H -6.69153 1.06442 -0.490732 0
M  V30 25 H -0.648669 -2.27254 0.299583 0
M  V30 26 H -0.262555 -3.09714 -2.05408 0
M  V30 27 H 0.509423 -1.48623 -2.51037 0
M  V30 28 H 2.30622 -1.87415 -0.754527 0
M  V30 29 H 1.47393 -3.37332 -0.127552 0
M  V30 30 H -1.8279 2.49251 0.0196126 0
M  V30 31 H 2.80239 1.28251 -1.65966 0
M  V30 32 H 5.25238 1.13919 -1.2019 0
M  V30 33 H 6.13343 0.389303 0.99176 0
M  V30 34 H 4.48955 -0.258562 2.73157 0
M  V30 35 H 2.03601 -0.100684 2.21777 0
M  V30 END ATOM
M  V30 BEGIN BOND
M  V30 1 1 1 2
M  V30 2 1 2 3
M  V30 3 2 2 4
M  V30 4 1 4 5
M  V30 5 2 5 6
M  V30 6 1 5 7
M  V30 7 2 7 8
M  V30 8 1 8 9
M  V30 9 1 9 10
M  V30 10 1 10 11
M  V30 11 1 8 12
M  V30 12 1 12 13
M  V30 13 2 13 14
M  V30 14 1 12 15
M  V30 15 2 15 16
M  V30 16 1 16 17
M  V30 17 2 17 18
M  V30 18 1 18 19
M  V30 19 2 19 20
M  V30 20 1 14 7
M  V30 21 1 20 15
M  V30 22 1 11 9
M  V30 23 1 1 21
M  V30 24 1 1 22
M  V30 25 1 3 23
M  V30 26 1 3 24
M  V30 27 1 9 25
M  V30 28 1 10 26
M  V30 29 1 10 27
M  V30 30 1 11 28
M  V30 31 1 11 29
M  V30 32 1 14 30
M  V30 33 1 16 31
M  V30 34 1 17 32
M  V30 35 1 18 33
M  V30 36 1 19 34
M  V30 37 1 20 35
M  V30 END BOND
M  V30 END CTAB
M  END
