
     RDKit          3D

  0  0  0  0  0  0  0  0  0  0999 V3000
M  V30 BEGIN CTAB
M  V30 COUNTS 37 38 0 0 0
M  V30 BEGIN ATOM
M  V30 1 N -6.48324 1.72784 0.431727 0
M  V30 2 C -5.14743 1.26146 0.322681 0
M  V30 3 C -4.11521 1.72372 1.09841 0
M  V30 4 C -2.82413 1.21008 0.968882 0
M  V30 5 C -2.52602 0.222085 0.0630384 0
M  V30 6 C -3.59444 -0.244714 -0.726548 0
M  V30 7 C -4.84192 0.272985 -0.580776 0
M  V30 8 Cl -3.2482 -1.50435 -1.9199 0
M  V30 9 N -1.26844 -0.400859 -0.0575404 0
M  V30 10 C 0.00465807 0.0722357 0.317244 0
M  V30 11 S 0.148519 1.63386 0.62089 0
M  V30 12 N 1.13559 -0.819632 0.197939 0
M  V30 13 C 2.46738 -0.393354 -0.0174634 0
M  V30 14 C 3.42335 -1.20528 -0.587936 0
M  V30 15 C 4.75366 -0.800774 -0.784685 0
M  V30 16 C 5.17989 0.445763 -0.416557 0
M  V30 17 C 4.25574 1.28614 0.154293 0
M  V30 18 C 2.94492 0.869682 0.346115 0
M  V30 19 N 4.67466 2.59651 0.504882 0
M  V30 20 C 0.742517 -2.17479 0.195755 0
M  V30 21 O -0.304446 -2.36801 1.00504 0
M  V30 22 C 1.18925 -3.3739 -0.466172 0
M  V30 23 H -7.08701 1.39671 1.21632 0
M  V30 24 H -6.89094 2.39415 -0.248581 0
M  V30 25 H -4.30475 2.50726 1.82425 0
M  V30 26 H -2.05939 1.6039 1.63976 0
M  V30 27 H -5.65398 -0.106521 -1.20264 0
M  V30 28 H -1.30279 -1.34563 -0.570153 0
M  V30 29 H 3.23301 -2.1966 -0.929042 0
M  V30 30 H 5.46773 -1.4784 -1.22227 0
M  V30 31 H 6.20323 0.764304 -0.567616 0
M  V30 32 H 2.30211 1.56799 0.831082 0
M  V30 33 H 5.43377 2.70538 1.19555 0
M  V30 34 H 4.25054 3.45129 0.0983049 0
M  V30 35 H 0.38618 -4.19422 -0.400156 0
M  V30 36 H 1.42465 -3.27322 -1.54188 0
M  V30 37 H 2.03098 -3.83309 0.0808435 0
M  V30 END ATOM
M  V30 BEGIN BOND
M  V30 1 1 1 2
M  V30 2 2 2 3
M  V30 3 1 3 4
M  V30 4 2 4 5
M  V30 5 1 5 6
M  V30 6 2 6 7
M  V30 7 1 6 8
M  V30 8 1 5 9
M  V30 9 1 9 10
M  V30 10 2 10 11
M  V30 11 1 10 12
M  V30 12 1 12 13
M  V30 13 2 13 14
M  V30 14 1 14 15
M  V30 15 2 15 16
M  V30 16 1 16 17
M  V30 17 2 17 18
M  V30 18 1 17 19
M  V30 19 1 12 20
M  V30 20 2 20 21
M  V30 21 1 20 22
M  V30 22 1 7 2
M  V30 23 1 18 13
M  V30 24 1 1 23
M  V30 25 1 1 24
M  V30 26 1 3 25
M  V30 27 1 4 26
M  V30 28 1 7 27
M  V30 29 1 9 28
M  V30 30 1 14 29
M  V30 31 1 15 30
M  V30 32 1 16 31
M  V30 33 1 18 32
M  V30 34 1 19 33
M  V30 35 1 19 34
M  V30 36 1 22 35
M  V30 37 1 22 36
M  V30 38 1 22 37
M  V30 END BOND
M  V30 END CTAB
M  END
