
     RDKit          3D

  0  0  0  0  0  0  0  0  0  0999 V3000
M  V30 BEGIN CTAB
M  V30 COUNTS 28 28 0 0 0
M  V30 BEGIN ATOM
M  V30 1 N 2.84673 0.0292101 -1.03414 0
M  V30 2 C 1.94921 -0.79285 -0.248103 0
M  V30 3 C 0.919884 0.0694868 0.460885 0
M  V30 4 N 1.51139 1.01827 1.34974 0
M  V30 5 C 0.0790154 -0.883533 1.30494 0
M  V30 6 C -1.01965 -1.23843 0.328896 0
M  V30 7 C -1.36396 0.154449 -0.216026 0
M  V30 8 C -0.00287498 0.686612 -0.543807 0
M  V30 9 C -2.24107 -0.0303768 -1.41348 0
M  V30 10 C -1.96886 1.02053 0.851818 0
M  V30 11 H 3.6737 -0.558004 -1.28878 0
M  V30 12 H 3.13044 0.838309 -0.420467 0
M  V30 13 H 2.54769 -1.38332 0.45866 0
M  V30 14 H 1.46072 -1.49473 -0.942639 0
M  V30 15 H 2.21093 0.51824 1.94126 0
M  V30 16 H 1.9146 1.85307 0.878123 0
M  V30 17 H -0.386303 -0.261614 2.09619 0
M  V30 18 H 0.641529 -1.74183 1.66917 0
M  V30 19 H -1.87578 -1.73262 0.781635 0
M  V30 20 H -0.549036 -1.78431 -0.509735 0
M  V30 21 H 0.328369 0.450388 -1.57093 0
M  V30 22 H -0.0374473 1.80879 -0.459548 0
M  V30 23 H -1.85877 -0.877134 -2.01179 0
M  V30 24 H -3.24618 -0.339954 -1.04458 0
M  V30 25 H -2.39268 0.886991 -2.00123 0
M  V30 26 H -2.40489 0.407093 1.66469 0
M  V30 27 H -2.68892 1.72039 0.390783 0
M  V30 28 H -1.1778 1.65688 1.33649 0
M  V30 END ATOM
M  V30 BEGIN BOND
M  V30 1 1 1 2
M  V30 2 1 2 3
M  V30 3 1 3 4
M  V30 4 1 3 5
M  V30 5 1 5 6
M  V30 6 1 6 7
M  V30 7 1 7 8
M  V30 8 1 7 9
M  V30 9 1 7 10
M  V30 10 1 8 3
M  V30 11 1 1 11
M  V30 12 1 1 12
M  V30 13 1 2 13
M  V30 14 1 2 14
M  V30 15 1 4 15
M  V30 16 1 4 16
M  V30 17 1 5 17
M  V30 18 1 5 18
M  V30 19 1 6 19
M  V30 20 1 6 20
M  V30 21 1 8 21
M  V30 22 1 8 22
M  V30 23 1 9 23
M  V30 24 1 9 24
M  V30 25 1 9 25
M  V30 26 1 10 26
M  V30 27 1 10 27
M  V30 28 1 10 28
M  V30 END BOND
M  V30 END CTAB
M  END
