
     RDKit          3D

  0  0  0  0  0  0  0  0  0  0999 V3000
M  V30 BEGIN CTAB
M  V30 COUNTS 23 23 0 0 0
M  V30 BEGIN ATOM
M  V30 1 C 3.54818 -0.13891 -1.29703 0
M  V30 2 O 2.16048 -0.323102 -1.05994 0
M  V30 3 C 1.514 0.376394 -0.0655562 0
M  V30 4 O 2.23026 1.181 0.610708 0
M  V30 5 C 0.0938412 0.235928 0.231163 0
M  V30 6 C -0.492045 0.981454 1.25796 0
M  V30 7 N 0.295205 1.88357 2.0211 0
M  V30 8 C -1.82768 0.877658 1.56894 0
M  V30 9 C -2.60809 0.0128512 0.845526 0
M  V30 10 C -2.044 -0.729349 -0.170547 0
M  V30 11 C -0.69059 -0.631946 -0.494421 0
M  V30 12 C -0.161028 -1.44263 -1.57654 0
M  V30 13 N 0.239885 -2.09752 -2.44187 0
M  V30 14 N -2.85008 -1.64322 -0.941068 0
M  V30 15 H 3.6332 0.53811 -2.17995 0
M  V30 16 H 4.0797 0.222382 -0.410921 0
M  V30 17 H 3.96588 -1.14851 -1.56154 0
M  V30 18 H 0.497026 1.5877 3.01913 0
M  V30 19 H 0.663274 2.79121 1.63832 0
M  V30 20 H -2.28873 1.45625 2.36785 0
M  V30 21 H -3.67505 -0.0835414 1.07879 0
M  V30 22 H -3.5321 -1.24113 -1.59916 0
M  V30 23 H -2.75152 -2.66464 -0.840933 0
M  V30 END ATOM
M  V30 BEGIN BOND
M  V30 1 1 1 2
M  V30 2 1 2 3
M  V30 3 2 3 4
M  V30 4 1 3 5
M  V30 5 2 5 6
M  V30 6 1 6 7
M  V30 7 1 6 8
M  V30 8 2 8 9
M  V30 9 1 9 10
M  V30 10 2 10 11
M  V30 11 1 11 12
M  V30 12 3 12 13
M  V30 13 1 10 14
M  V30 14 1 11 5
M  V30 15 1 1 15
M  V30 16 1 1 16
M  V30 17 1 1 17
M  V30 18 1 7 18
M  V30 19 1 7 19
M  V30 20 1 8 20
M  V30 21 1 9 21
M  V30 22 1 14 22
M  V30 23 1 14 23
M  V30 END BOND
M  V30 END CTAB
M  END
