
     RDKit          3D

  0  0  0  0  0  0  0  0  0  0999 V3000
M  V30 BEGIN CTAB
M  V30 COUNTS 17 16 0 0 0
M  V30 BEGIN ATOM
M  V30 1 C -2.81378 0.385215 0.804075 0
M  V30 2 O -1.89618 0.0908524 -0.2027 0
M  V30 3 C -1.23519 -1.0901 0.153805 0
M  V30 4 S -0.0127845 -1.55873 -1.09736 0
M  V30 5 C 1.26975 -0.317584 -1.09686 0
M  V30 6 N 2.24787 -0.496237 -1.91739 0
M  V30 7 N 3.33946 0.306739 -2.10135 0
M  V30 8 N 1.16376 0.770062 -0.225264 0
M  V30 9 H -2.20587 0.508015 1.74106 0
M  V30 10 H -3.43082 1.25385 0.582158 0
M  V30 11 H -3.46311 -0.491917 1.01248 0
M  V30 12 H -0.761171 -1.00045 1.15435 0
M  V30 13 H -1.96911 -1.94115 0.200341 0
M  V30 14 H 3.56361 1.094 -1.4659 0
M  V30 15 H 3.97121 0.123347 -2.90621 0
M  V30 16 H 0.364997 1.42082 -0.312342 0
M  V30 17 H 1.86736 0.943266 0.510459 0
M  V30 END ATOM
M  V30 BEGIN BOND
M  V30 1 1 1 2
M  V30 2 1 2 3
M  V30 3 1 3 4
M  V30 4 1 4 5
M  V30 5 2 5 6 CFG=2
M  V30 6 1 6 7
M  V30 7 1 5 8
M  V30 8 1 1 9
M  V30 9 1 1 10
M  V30 10 1 1 11
M  V30 11 1 3 12
M  V30 12 1 3 13
M  V30 13 1 7 14
M  V30 14 1 7 15
M  V30 15 1 8 16
M  V30 16 1 8 17
M  V30 END BOND
M  V30 END CTAB
M  END
