
     RDKit          3D

  0  0  0  0  0  0  0  0  0  0999 V3000
M  V30 BEGIN CTAB
M  V30 COUNTS 29 30 0 0 0
M  V30 BEGIN ATOM
M  V30 1 C 6.05959 -1.01507 0.291891 0
M  V30 2 C 4.73248 -0.350458 0.371829 0
M  V30 3 N 4.40908 0.746561 1.08714 0
M  V30 4 O 3.14942 1.03199 0.905925 0
M  V30 5 C 2.60244 0.159626 0.0858441 0
M  V30 6 N 3.57285 -0.70439 -0.253881 0
M  V30 7 C 1.18801 0.148177 -0.364685 0
M  V30 8 S 0.150279 -0.120253 1.08572 0
M  V30 9 C -1.58386 -0.153647 0.676329 0
M  V30 10 N -2.19084 -1.30595 0.343628 0
M  V30 11 C -3.51828 -1.34073 0.0286649 0
M  V30 12 N -4.16377 -2.55471 -0.323464 0
M  V30 13 C -4.22109 -0.155834 0.0617078 0
M  V30 14 C -3.60695 1.02922 0.40152 0
M  V30 15 N -2.29272 0.988178 0.700837 0
M  V30 16 N -4.37195 2.22839 0.422455 0
M  V30 17 C 0.862894 1.431 -1.07884 0
M  V30 18 H 6.76774 -0.467161 -0.35972 0
M  V30 19 H 6.49784 -1.20568 1.27702 0
M  V30 20 H 5.91935 -2.01466 -0.198244 0
M  V30 21 H 1.06145 -0.714145 -1.04813 0
M  V30 22 H -3.70702 -3.45051 -0.0597747 0
M  V30 23 H -5.05347 -2.5589 -0.822654 0
M  V30 24 H -5.27054 -0.180116 -0.186745 0
M  V30 25 H -4.4498 2.8359 -0.399524 0
M  V30 26 H -4.85574 2.46808 1.31618 0
M  V30 27 H 1.78733 1.91233 -1.51185 0
M  V30 28 H 0.290486 2.14184 -0.480815 0
M  V30 29 H 0.23478 1.17093 -1.96836 0
M  V30 END ATOM
M  V30 BEGIN BOND
M  V30 1 1 1 2
M  V30 2 2 2 3
M  V30 3 1 3 4
M  V30 4 1 4 5
M  V30 5 2 5 6
M  V30 6 1 5 7
M  V30 7 1 7 8
M  V30 8 1 8 9
M  V30 9 2 9 10
M  V30 10 1 10 11
M  V30 11 1 11 12
M  V30 12 2 11 13
M  V30 13 1 13 14
M  V30 14 2 14 15
M  V30 15 1 14 16
M  V30 16 1 7 17
M  V30 17 1 6 2
M  V30 18 1 15 9
M  V30 19 1 1 18
M  V30 20 1 1 19
M  V30 21 1 1 20
M  V30 22 1 7 21
M  V30 23 1 12 22
M  V30 24 1 12 23
M  V30 25 1 13 24
M  V30 26 1 16 25
M  V30 27 1 16 26
M  V30 28 1 17 27
M  V30 29 1 17 28
M  V30 30 1 17 29
M  V30 END BOND
M  V30 END CTAB
M  END
