
     RDKit          3D

  0  0  0  0  0  0  0  0  0  0999 V3000
M  V30 BEGIN CTAB
M  V30 COUNTS 25 26 0 0 0
M  V30 BEGIN ATOM
M  V30 1 C 4.57925 -0.0486763 0.648791 0
M  V30 2 C 3.13333 -0.210588 0.476289 0
M  V30 3 C 2.42756 0.583143 -0.419281 0
M  V30 4 C 1.05727 0.440133 -0.592439 0
M  V30 5 C 0.374064 -0.513294 0.141314 0
M  V30 6 C 1.10788 -1.28137 1.0193 0
M  V30 7 N 2.4405 -1.12628 1.17281 0
M  V30 8 C -1.06201 -0.716339 0.00929158 0
M  V30 9 N -1.76339 -1.86039 -0.0963031 0
M  V30 10 C -3.08408 -1.56295 -0.198677 0
M  V30 11 N -3.23283 -0.20942 -0.158273 0
M  V30 12 C -1.98193 0.291341 -0.0305186 0
M  V30 13 N -1.72275 1.68479 0.0466962 0
M  V30 14 N -4.43975 0.480307 -0.235391 0
M  V30 15 H 5.01951 -1.01116 1.02704 0
M  V30 16 H 4.86056 0.733687 1.39086 0
M  V30 17 H 5.08115 0.247579 -0.304877 0
M  V30 18 H 2.96195 1.33129 -0.995423 0
M  V30 19 H 0.541256 1.07859 -1.30127 0
M  V30 20 H 0.638914 -2.04495 1.6244 0
M  V30 21 H -3.89655 -2.25978 -0.296268 0
M  V30 22 H -1.68022 2.27142 -0.835913 0
M  V30 23 H -1.56846 2.17762 0.934762 0
M  V30 24 H -5.25771 0.147633 -0.780066 0
M  V30 25 H -4.53352 1.37765 0.277885 0
M  V30 END ATOM
M  V30 BEGIN BOND
M  V30 1 1 1 2
M  V30 2 2 2 3
M  V30 3 1 3 4
M  V30 4 2 4 5
M  V30 5 1 5 6
M  V30 6 2 6 7
M  V30 7 1 5 8
M  V30 8 1 8 9
M  V30 9 2 9 10
M  V30 10 1 10 11
M  V30 11 1 11 12
M  V30 12 1 12 13
M  V30 13 1 11 14
M  V30 14 1 7 2
M  V30 15 2 12 8
M  V30 16 1 1 15
M  V30 17 1 1 16
M  V30 18 1 1 17
M  V30 19 1 3 18
M  V30 20 1 4 19
M  V30 21 1 6 20
M  V30 22 1 10 21
M  V30 23 1 13 22
M  V30 24 1 13 23
M  V30 25 1 14 24
M  V30 26 1 14 25
M  V30 END BOND
M  V30 END CTAB
M  END
