
     RDKit          3D

  0  0  0  0  0  0  0  0  0  0999 V3000
M  V30 BEGIN CTAB
M  V30 COUNTS 37 39 0 0 0
M  V30 BEGIN ATOM
M  V30 1 C 1.11342 -0.598474 -1.65682 0
M  V30 2 C 1.3818 -0.108495 -0.310539 0
M  V30 3 C 0.338031 0.184759 0.579673 0
M  V30 4 C -1.03509 -0.0234695 0.102523 0
M  V30 5 N -2.08422 0.282638 1.02372 0
M  V30 6 C -3.45729 0.091281 0.594564 0
M  V30 7 C -3.74924 -0.37481 -0.671069 0
M  V30 8 C -5.06114 -0.549332 -1.05812 0
M  V30 9 Cl -5.37581 -1.1436 -2.67597 0
M  V30 10 C -6.10854 -0.269454 -0.209845 0
M  V30 11 Cl -7.76376 -0.501879 -0.73197 0
M  V30 12 C -5.81244 0.197268 1.05722 0
M  V30 13 C -4.4962 0.370826 1.44131 0
M  V30 14 C 0.636012 0.642035 1.83165 0
M  V30 15 N 1.90806 0.814874 2.2231 0
M  V30 16 C 2.9235 0.544577 1.399 0
M  V30 17 C 2.71278 0.0688309 0.0893061 0
M  V30 18 C 3.77979 -0.19397 -0.716665 0
M  V30 19 N 3.60774 -0.669923 -2.03226 0
M  V30 20 N 5.04348 0.011595 -0.232379 0
M  V30 21 C 5.25791 0.461866 1.00618 0
M  V30 22 N 6.5849 0.679529 1.51972 0
M  V30 23 N 4.21085 0.720792 1.79988 0
M  V30 24 H -0.0307564 -0.647124 -1.73114 0
M  V30 25 H 1.31213 -1.66801 -1.85362 0
M  V30 26 H 1.2832 0.104464 -2.49326 0
M  V30 27 H -1.16 0.646946 -0.80311 0
M  V30 28 H -1.21776 -1.06109 -0.255392 0
M  V30 29 H -1.94173 0.627757 1.96632 0
M  V30 30 H -2.9524 -0.602403 -1.35691 0
M  V30 31 H -6.60889 0.430758 1.75931 0
M  V30 32 H -4.26225 0.738584 2.43965 0
M  V30 33 H -0.162251 0.88517 2.56493 0
M  V30 34 H 3.54852 -1.6768 -2.31715 0
M  V30 35 H 3.54868 0.0198626 -2.84031 0
M  V30 36 H 6.98574 1.64269 1.38117 0
M  V30 37 H 7.10324 -0.0782661 1.99613 0
M  V30 END ATOM
M  V30 BEGIN BOND
M  V30 1 1 1 2
M  V30 2 2 2 3
M  V30 3 1 3 4
M  V30 4 1 4 5
M  V30 5 1 5 6
M  V30 6 2 6 7
M  V30 7 1 7 8
M  V30 8 1 8 9
M  V30 9 2 8 10
M  V30 10 1 10 11
M  V30 11 1 10 12
M  V30 12 2 12 13
M  V30 13 1 3 14
M  V30 14 2 14 15
M  V30 15 1 15 16
M  V30 16 2 16 17
M  V30 17 1 17 18
M  V30 18 1 18 19
M  V30 19 2 18 20
M  V30 20 1 20 21
M  V30 21 1 21 22
M  V30 22 2 21 23
M  V30 23 1 17 2
M  V30 24 1 13 6
M  V30 25 1 23 16
M  V30 26 1 1 24
M  V30 27 1 1 25
M  V30 28 1 1 26
M  V30 29 1 4 27
M  V30 30 1 4 28
M  V30 31 1 5 29
M  V30 32 1 7 30
M  V30 33 1 12 31
M  V30 34 1 13 32
M  V30 35 1 14 33
M  V30 36 1 19 34
M  V30 37 1 19 35
M  V30 38 1 22 36
M  V30 39 1 22 37
M  V30 END BOND
M  V30 END CTAB
M  END
