
     RDKit          3D

  0  0  0  0  0  0  0  0  0  0999 V3000
M  V30 BEGIN CTAB
M  V30 COUNTS 32 33 0 0 0
M  V30 BEGIN ATOM
M  V30 1 C 4.32848 1.51439 -1.32127 0
M  V30 2 C 4.54873 0.160251 -0.711179 0
M  V30 3 C 3.30864 -0.671844 -0.711938 0
M  V30 4 N 2.90519 -1.5168 -1.68668 0
M  V30 5 N 1.76359 -2.07866 -1.34095 0
M  V30 6 C 1.39029 -1.61533 -0.129849 0
M  V30 7 N 2.35554 -0.748504 0.242639 0
M  V30 8 N 2.41808 -0.00435394 1.43422 0
M  V30 9 S -0.0358175 -2.0001 0.840195 0
M  V30 10 C -1.39723 -0.922077 0.472129 0
M  V30 11 C -1.34524 0.09183 -0.458772 0
M  V30 12 C -2.45914 0.893549 -0.687878 0
M  V30 13 C -3.64825 0.721062 -0.0114525 0
M  V30 14 C -3.69049 -0.296311 0.91827 0
M  V30 15 C -2.58691 -1.0949 1.14911 0
M  V30 16 N -2.67907 -2.14217 2.12749 0
M  V30 17 C -4.82474 1.59112 -0.2743 0
M  V30 18 H 4.81239 2.32116 -0.715286 0
M  V30 19 H 4.81022 1.51397 -2.3185 0
M  V30 20 H 3.27116 1.78568 -1.44909 0
M  V30 21 H 4.87664 0.333369 0.353082 0
M  V30 22 H 5.34737 -0.42064 -1.21011 0
M  V30 23 H 2.32445 1.0352 1.39747 0
M  V30 24 H 2.55471 -0.438497 2.36614 0
M  V30 25 H -0.414391 0.245681 -1.00515 0
M  V30 26 H -2.38955 1.68683 -1.4289 0
M  V30 27 H -4.63538 -0.425786 1.44896 0
M  V30 28 H -1.84153 -2.53341 2.5735 0
M  V30 29 H -3.62259 -2.50388 2.38121 0
M  V30 30 H -5.38097 1.31792 -1.16858 0
M  V30 31 H -5.51853 1.53501 0.594347 0
M  V30 32 H -4.54564 2.66622 -0.362956 0
M  V30 END ATOM
M  V30 BEGIN BOND
M  V30 1 1 1 2
M  V30 2 1 2 3
M  V30 3 2 3 4
M  V30 4 1 4 5
M  V30 5 2 5 6
M  V30 6 1 6 7
M  V30 7 1 7 8
M  V30 8 1 6 9
M  V30 9 1 9 10
M  V30 10 2 10 11
M  V30 11 1 11 12
M  V30 12 2 12 13
M  V30 13 1 13 14
M  V30 14 2 14 15
M  V30 15 1 15 16
M  V30 16 1 13 17
M  V30 17 1 7 3
M  V30 18 1 15 10
M  V30 19 1 1 18
M  V30 20 1 1 19
M  V30 21 1 1 20
M  V30 22 1 2 21
M  V30 23 1 2 22
M  V30 24 1 8 23
M  V30 25 1 8 24
M  V30 26 1 11 25
M  V30 27 1 12 26
M  V30 28 1 14 27
M  V30 29 1 16 28
M  V30 30 1 16 29
M  V30 31 1 17 30
M  V30 32 1 17 31
M  V30 33 1 17 32
M  V30 END BOND
M  V30 END CTAB
M  END
