
     RDKit          3D

  0  0  0  0  0  0  0  0  0  0999 V3000
M  V30 BEGIN CTAB
M  V30 COUNTS 103 108 0 0 0
M  V30 BEGIN ATOM
M  V30 1 N -7.53086 -2.71819 0.366799 0
M  V30 2 C -6.72514 -3.50933 -0.476907 0
M  V30 3 C -6.28547 -2.74041 -1.67971 0
M  V30 4 C -5.49703 -1.52331 -1.28551 0
M  V30 5 C -4.24611 -1.82066 -0.525276 0
M  V30 6 C -3.43877 -0.603292 -0.142995 0 CFG=2
M  V30 7 N -2.26405 -1.12886 0.58823 0
M  V30 8 C -0.964971 -0.789031 0.164951 0
M  V30 9 O -0.810624 -0.0443663 -0.828595 0
M  V30 10 C 0.254056 -1.28945 0.87026 0 CFG=1
M  V30 11 C 0.273462 -2.78121 0.67605 0
M  V30 12 C 1.43167 -3.4398 1.3244 0
M  V30 13 C 2.61254 -3.58895 0.598405 0
M  V30 14 C 3.66624 -4.21381 1.23433 0
M  V30 15 Br 5.34441 -4.47427 0.335485 0
M  V30 16 C 3.56334 -4.67178 2.52662 0
M  V30 17 N 4.65627 -5.31963 3.18339 0
M  V30 18 C 2.38333 -4.51761 3.23922 0
M  V30 19 Br 2.19713 -5.13282 5.02507 0
M  V30 20 C 1.31023 -3.89436 2.6261 0
M  V30 21 N 1.4597 -0.728003 0.251321 0
M  V30 22 C 2.29799 0.153391 0.992394 0
M  V30 23 O 1.97475 0.430793 2.18015 0
M  V30 24 N 3.45636 0.691588 0.389557 0
M  V30 25 C 4.27208 1.59709 1.1746 0
M  V30 26 C 5.74128 1.45382 0.95673 0
M  V30 27 C 6.05122 0.88972 -0.383867 0
M  V30 28 C 4.96808 1.1987 -1.38277 0
M  V30 29 C 3.77358 0.3174 -0.972293 0
M  V30 30 N 7.39385 1.25764 -0.870051 0
M  V30 31 C 8.35244 0.231244 -1.09268 0
M  V30 32 C 9.71504 0.710997 -1.33332 0
M  V30 33 C 10.0074 2.02526 -1.53527 0
M  V30 34 N 9.00411 3.04746 -1.42727 0
M  V30 35 C 7.6972 2.62002 -1.09218 0
M  V30 36 O 6.74894 3.45209 -0.980088 0
M  V30 37 C 11.3228 2.37589 -1.80418 0
M  V30 38 C 12.3635 1.48001 -1.88007 0
M  V30 39 C 12.0504 0.153756 -1.67094 0
M  V30 40 C 10.7686 -0.233387 -1.40469 0
M  V30 41 C -4.13494 0.282422 0.837728 0
M  V30 42 O -4.10875 -0.0479013 2.07561 0
M  V30 43 N -4.81379 1.46014 0.491537 0
M  V30 44 C -4.95846 1.99621 -0.823698 0
M  V30 45 C -6.38393 2.21428 -1.17813 0
M  V30 46 C -7.31992 2.26657 -0.0262274 0
M  V30 47 C -6.71726 2.85037 1.23477 0
M  V30 48 C -5.40485 2.23876 1.57817 0
M  V30 49 C -8.5428 3.04658 -0.306293 0
M  V30 50 C -9.77117 2.43327 -0.265021 0
M  V30 51 C -10.9392 3.13185 -0.524393 0
M  V30 52 N -10.8445 4.43548 -0.820142 0
M  V30 53 C -9.6683 5.08253 -0.873686 0
M  V30 54 C -8.49994 4.38193 -0.613916 0
M  V30 55 H -8.24903 -2.15887 0.0094632 0
M  V30 56 H -7.10043 -2.45764 1.20944 0
M  V30 57 H -7.26838 -4.44018 -0.77566 0
M  V30 58 H -5.8467 -3.83976 0.0991489 0
M  V30 59 H -7.17815 -2.39203 -2.25483 0
M  V30 60 H -5.61809 -3.36557 -2.31481 0
M  V30 61 H -6.20611 -0.881508 -0.709879 0
M  V30 62 H -5.22048 -0.90181 -2.17841 0
M  V30 63 H -3.58503 -2.42472 -1.20557 0
M  V30 64 H -4.413 -2.4853 0.364353 0
M  V30 65 H -3.12782 -0.0695326 -1.04088 0
M  V30 66 H -2.37584 -1.74869 1.41438 0
M  V30 67 H 0.209114 -1.00464 1.92291 0
M  V30 68 H -0.655469 -3.24856 1.08652 0
M  V30 69 H 0.266962 -3.04814 -0.406262 0
M  V30 70 H 2.71135 -3.23455 -0.417436 0
M  V30 71 H 4.92741 -6.31622 2.95462 0
M  V30 72 H 5.1937 -4.79023 3.90426 0
M  V30 73 H 0.363602 -3.75051 3.14397 0
M  V30 74 H 1.65526 -1.00644 -0.731236 0
M  V30 75 H 3.90349 2.62883 0.981832 0
M  V30 76 H 4.06679 1.39737 2.24267 0
M  V30 77 H 6.17648 0.755091 1.73334 0
M  V30 78 H 6.21473 2.42979 1.18698 0
M  V30 79 H 6.04264 -0.229607 -0.278196 0
M  V30 80 H 4.66215 2.25953 -1.32676 0
M  V30 81 H 5.26855 0.918385 -2.41826 0
M  V30 82 H 4.14355 -0.725515 -0.963306 0
M  V30 83 H 2.93332 0.47664 -1.68049 0
M  V30 84 H 8.38825 -0.459239 -0.179017 0
M  V30 85 H 8.034 -0.40904 -1.97136 0
M  V30 86 H 9.25645 4.04486 -1.59246 0
M  V30 87 H 11.5068 3.44169 -1.95959 0
M  V30 88 H 13.3476 1.84253 -2.09251 0
M  V30 89 H 12.8404 -0.601624 -1.71947 0
M  V30 90 H 10.4962 -1.27964 -1.23541 0
M  V30 91 H -4.41587 2.99302 -0.815628 0
M  V30 92 H -4.41173 1.40922 -1.5978 0
M  V30 93 H -6.68626 1.32973 -1.82062 0
M  V30 94 H -6.53854 3.08261 -1.86429 0
M  V30 95 H -7.64474 1.20953 0.198142 0
M  V30 96 H -7.44091 2.58774 2.06427 0
M  V30 97 H -6.73757 3.94803 1.18875 0
M  V30 98 H -5.43824 1.66227 2.50815 0
M  V30 99 H -4.6865 3.09009 1.76248 0
M  V30 100 H -9.87969 1.36602 -0.0245069 0
M  V30 101 H -11.9041 2.67215 -0.498126 0
M  V30 102 H -9.65726 6.12856 -1.11657 0
M  V30 103 H -7.56395 4.89902 -0.657228 0
M  V30 END ATOM
M  V30 BEGIN BOND
M  V30 1 1 1 2
M  V30 2 1 2 3
M  V30 3 1 3 4
M  V30 4 1 4 5
M  V30 5 1 5 6
M  V30 6 1 6 7
M  V30 7 1 7 8
M  V30 8 2 8 9
M  V30 9 1 8 10
M  V30 10 1 10 11
M  V30 11 1 11 12
M  V30 12 2 12 13
M  V30 13 1 13 14
M  V30 14 1 14 15
M  V30 15 2 14 16
M  V30 16 1 16 17
M  V30 17 1 16 18
M  V30 18 1 18 19
M  V30 19 2 18 20
M  V30 20 1 10 21
M  V30 21 1 21 22
M  V30 22 2 22 23
M  V30 23 1 22 24
M  V30 24 1 24 25
M  V30 25 1 25 26
M  V30 26 1 26 27
M  V30 27 1 27 28
M  V30 28 1 28 29
M  V30 29 1 27 30
M  V30 30 1 30 31
M  V30 31 1 31 32
M  V30 32 2 32 33
M  V30 33 1 33 34
M  V30 34 1 34 35
M  V30 35 2 35 36
M  V30 36 1 33 37
M  V30 37 2 37 38
M  V30 38 1 38 39
M  V30 39 2 39 40
M  V30 40 1 6 41
M  V30 41 2 41 42
M  V30 42 1 41 43
M  V30 43 1 43 44
M  V30 44 1 44 45
M  V30 45 1 45 46
M  V30 46 1 46 47
M  V30 47 1 47 48
M  V30 48 1 46 49
M  V30 49 2 49 50
M  V30 50 1 50 51
M  V30 51 2 51 52
M  V30 52 1 52 53
M  V30 53 2 53 54
M  V30 54 1 20 12
M  V30 55 1 29 24
M  V30 56 1 35 30
M  V30 57 1 48 43
M  V30 58 1 54 49
M  V30 59 1 40 32
M  V30 60 1 1 55
M  V30 61 1 1 56
M  V30 62 1 2 57
M  V30 63 1 2 58
M  V30 64 1 3 59
M  V30 65 1 3 60
M  V30 66 1 4 61
M  V30 67 1 4 62
M  V30 68 1 5 63
M  V30 69 1 5 64
M  V30 70 1 6 65 CFG=3
M  V30 71 1 7 66
M  V30 72 1 10 67 CFG=1
M  V30 73 1 11 68
M  V30 74 1 11 69
M  V30 75 1 13 70
M  V30 76 1 17 71
M  V30 77 1 17 72
M  V30 78 1 20 73
M  V30 79 1 21 74
M  V30 80 1 25 75
M  V30 81 1 25 76
M  V30 82 1 26 77
M  V30 83 1 26 78
M  V30 84 1 27 79
M  V30 85 1 28 80
M  V30 86 1 28 81
M  V30 87 1 29 82
M  V30 88 1 29 83
M  V30 89 1 31 84
M  V30 90 1 31 85
M  V30 91 1 34 86
M  V30 92 1 37 87
M  V30 93 1 38 88
M  V30 94 1 39 89
M  V30 95 1 40 90
M  V30 96 1 44 91
M  V30 97 1 44 92
M  V30 98 1 45 93
M  V30 99 1 45 94
M  V30 100 1 46 95
M  V30 101 1 47 96
M  V30 102 1 47 97
M  V30 103 1 48 98
M  V30 104 1 48 99
M  V30 105 1 50 100
M  V30 106 1 51 101
M  V30 107 1 53 102
M  V30 108 1 54 103
M  V30 END BOND
M  V30 END CTAB
M  END
