
     RDKit          3D

  0  0  0  0  0  0  0  0  0  0999 V3000
M  V30 BEGIN CTAB
M  V30 COUNTS 24 24 0 0 0
M  V30 BEGIN ATOM
M  V30 1 C -2.37131 -1.62075 -0.596934 0
M  V30 2 C -1.81755 -0.337883 -0.300406 0
M  V30 3 O -2.7872 0.5774 -0.269064 0
M  V30 4 C -0.541606 0.213526 -0.0406668 0
M  V30 5 C -0.459099 1.63945 0.158371 0
M  V30 6 N -1.66588 2.39262 0.0984492 0
M  V30 7 C 0.707243 2.30464 0.399066 0
M  V30 8 C 1.84898 1.58086 0.453176 0
M  V30 9 C 1.84345 0.206104 0.272054 0
M  V30 10 C 0.641518 -0.481419 0.0248489 0
M  V30 11 C 0.750262 -1.92477 -0.085521 0
M  V30 12 F 0.103285 -2.56816 0.922726 0
M  V30 13 F 2.10043 -2.34794 -0.0518538 0
M  V30 14 F 0.330673 -2.40221 -1.299 0
M  V30 15 N 3.05726 -0.512236 0.337594 0
M  V30 16 H -2.3131 -1.89762 -1.71177 0
M  V30 17 H -3.55939 -1.51887 -0.536426 0
M  V30 18 H -2.25286 -2.4841 0.0298439 0
M  V30 19 H -1.97713 2.77336 -0.814344 0
M  V30 20 H -2.18658 2.53994 0.982961 0
M  V30 21 H 0.689097 3.39751 0.540966 0
M  V30 22 H 2.80531 2.04811 0.639407 0
M  V30 23 H 3.71007 -0.703864 -0.449743 0
M  V30 24 H 3.34411 -0.873682 1.29627 0
M  V30 END ATOM
M  V30 BEGIN BOND
M  V30 1 1 1 2
M  V30 2 2 2 3
M  V30 3 1 2 4
M  V30 4 2 4 5
M  V30 5 1 5 6
M  V30 6 1 5 7
M  V30 7 2 7 8
M  V30 8 1 8 9
M  V30 9 2 9 10
M  V30 10 1 10 11
M  V30 11 1 11 12
M  V30 12 1 11 13
M  V30 13 1 11 14
M  V30 14 1 9 15
M  V30 15 1 10 4
M  V30 16 1 1 16
M  V30 17 1 1 17
M  V30 18 1 1 18
M  V30 19 1 6 19
M  V30 20 1 6 20
M  V30 21 1 7 21
M  V30 22 1 8 22
M  V30 23 1 15 23
M  V30 24 1 15 24
M  V30 END BOND
M  V30 END CTAB
M  END
