
     RDKit          3D

  0  0  0  0  0  0  0  0  0  0999 V3000
M  V30 BEGIN CTAB
M  V30 COUNTS 116 117 0 0 0
M  V30 BEGIN ATOM
M  V30 1 C -9.38116 5.94794 -0.0369273 0
M  V30 2 S -9.15284 4.19023 0.234043 0
M  V30 3 C -7.93703 3.45467 -0.828997 0
M  V30 4 C -7.6638 2.01425 -0.688004 0
M  V30 5 C -7.09408 1.46053 0.566237 0
M  V30 6 C -7.90613 1.62551 1.75214 0
M  V30 7 O -8.48278 0.570065 2.21875 0
M  V30 8 O -8.1583 2.76176 2.48031 0
M  V30 9 N -6.84305 -0.00226662 0.347525 0
M  V30 10 C -5.54629 -0.492317 0.516763 0
M  V30 11 O -4.62341 0.364728 0.868352 0
M  V30 12 C -5.0969 -1.88468 0.344742 0
M  V30 13 C -6.13541 -2.92569 0.201263 0
M  V30 14 C -7.00384 -2.755 -1.02005 0
M  V30 15 C -7.08838 -2.96744 1.38691 0
M  V30 16 N -4.0446 -2.20239 1.32355 0
M  V30 17 C -2.70055 -2.38094 0.95771 0
M  V30 18 O -2.47829 -2.2529 -0.309152 0
M  V30 19 C -1.54568 -2.67858 1.79771 0
M  V30 20 C -1.65349 -3.85585 2.6742 0
M  V30 21 C -2.73387 -3.87542 3.69095 0
M  V30 22 C -1.6567 -5.16646 1.90178 0
M  V30 23 N -0.321791 -2.72723 0.978857 0
M  V30 24 C 0.313269 -1.54884 0.560784 0
M  V30 25 O -0.226998 -0.431491 0.912759 0
M  V30 26 C 1.55539 -1.47443 -0.253307 0
M  V30 27 C 1.83094 -2.50781 -1.2366 0
M  V30 28 C 0.928351 -2.79007 -2.33626 0
M  V30 29 C 1.00924 -2.03361 -3.51657 0
M  V30 30 C 0.235272 -2.21986 -4.60962 0
M  V30 31 C -0.712592 -3.22853 -4.57768 0
M  V30 32 C -0.863602 -4.02849 -3.4531 0
M  V30 33 C -0.0328866 -3.77859 -2.36753 0
M  V30 34 O -1.5486 -3.48752 -5.65316 0
M  V30 35 N 1.85151 -0.0906132 -0.594243 0
M  V30 36 C 2.94317 0.63804 -0.0787012 0
M  V30 37 O 3.70401 -0.0438328 0.700193 0
M  V30 38 C 3.32237 2.02249 -0.284269 0
M  V30 39 C 3.18437 2.66664 -1.58838 0
M  V30 40 C 3.92755 2.13702 -2.74177 0
M  V30 41 C 5.24839 2.52502 -2.90442 0
M  V30 42 C 5.9353 2.06561 -3.99521 0
M  V30 43 C 5.38801 1.22548 -4.96279 0
M  V30 44 C 4.06504 0.858121 -4.76857 0
M  V30 45 C 3.3679 1.31192 -3.68048 0
M  V30 46 N 4.57982 2.36025 0.395658 0
M  V30 47 C 4.70969 3.07747 1.5592 0
M  V30 48 O 3.59134 3.47957 2.07645 0
M  V30 49 C 5.90084 3.4642 2.3078 0
M  V30 50 C 6.59562 2.37472 3.07838 0
M  V30 51 C 7.104 1.28146 2.20376 0
M  V30 52 C 8.14112 1.78326 1.20318 0
M  V30 53 N 9.29212 2.3657 1.82247 0
M  V30 54 C 10.2439 1.62087 2.56926 0
M  V30 55 N 10.3117 1.71339 3.85349 0
M  V30 56 N 11.1716 0.733833 1.94533 0
M  V30 57 N 5.57621 4.49307 3.32446 0
M  V30 58 H -10.3758 6.25042 0.381393 0
M  V30 59 H -8.63442 6.55958 0.544959 0
M  V30 60 H -9.3683 6.25855 -1.09528 0
M  V30 61 H -8.2482 3.59087 -1.93216 0
M  V30 62 H -6.94554 3.99415 -0.798519 0
M  V30 63 H -6.95387 1.65223 -1.52258 0
M  V30 64 H -8.60554 1.43096 -0.981018 0
M  V30 65 H -6.07256 1.90266 0.781003 0
M  V30 66 H -8.89836 2.87396 3.14051 0
M  V30 67 H -7.66122 -0.555019 0.0976196 0
M  V30 68 H -4.4884 -1.87782 -0.64554 0
M  V30 69 H -5.63071 -3.93239 0.103333 0
M  V30 70 H -8.08127 -2.72539 -0.773174 0
M  V30 71 H -6.70244 -1.86949 -1.63009 0
M  V30 72 H -6.90829 -3.67184 -1.67952 0
M  V30 73 H -8.123 -3.23177 1.09746 0
M  V30 74 H -7.03853 -2.02393 1.97049 0
M  V30 75 H -6.72469 -3.77506 2.05845 0
M  V30 76 H -4.34168 -2.27973 2.31155 0
M  V30 77 H -1.38924 -1.74135 2.41907 0
M  V30 78 H -0.678588 -3.89854 3.2681 0
M  V30 79 H -2.42483 -4.59467 4.49715 0
M  V30 80 H -2.9824 -2.89984 4.10983 0
M  V30 81 H -3.66747 -4.3198 3.26512 0
M  V30 82 H -0.624093 -5.46015 1.69955 0
M  V30 83 H -2.14692 -5.92303 2.54822 0
M  V30 84 H -2.25533 -5.04881 0.963966 0
M  V30 85 H 0.0401888 -3.648 0.742641 0
M  V30 86 H 2.37186 -1.66046 0.573615 0
M  V30 87 H 2.85725 -2.25401 -1.68918 0
M  V30 88 H 2.09487 -3.51584 -0.744774 0
M  V30 89 H 1.76283 -1.25949 -3.523 0
M  V30 90 H 0.316862 -1.62435 -5.49997 0
M  V30 91 H -1.61129 -4.81086 -3.46172 0
M  V30 92 H -0.151105 -4.40929 -1.50097 0
M  V30 93 H -2.45602 -3.05163 -5.78357 0
M  V30 94 H 1.21145 0.381418 -1.25971 0
M  V30 95 H 2.56924 2.59683 0.394557 0
M  V30 96 H 2.09422 2.64241 -1.93096 0
M  V30 97 H 3.38562 3.76432 -1.569 0
M  V30 98 H 5.72621 3.19109 -2.16071 0
M  V30 99 H 6.98728 2.35238 -4.15059 0
M  V30 100 H 5.94843 0.873455 -5.81533 0
M  V30 101 H 3.61634 0.199761 -5.52089 0
M  V30 102 H 2.3123 1.00905 -3.57043 0
M  V30 103 H 5.42723 2.00115 -0.113351 0
M  V30 104 H 6.70326 3.90684 1.63854 0
M  V30 105 H 7.48316 2.86638 3.55455 0
M  V30 106 H 5.94126 1.91995 3.85323 0
M  V30 107 H 7.62342 0.500534 2.83975 0
M  V30 108 H 6.34456 0.736145 1.62329 0
M  V30 109 H 7.7009 2.47533 0.482865 0
M  V30 110 H 8.48023 0.874289 0.629192 0
M  V30 111 H 9.49849 3.4062 1.75434 0
M  V30 112 H 9.66732 2.33826 4.37748 0
M  V30 113 H 11.9131 1.03585 1.28585 0
M  V30 114 H 11.0872 -0.274565 2.17874 0
M  V30 115 H 6.39703 4.63657 3.94665 0
M  V30 116 H 5.23297 5.35853 2.86916 0
M  V30 END ATOM
M  V30 BEGIN BOND
M  V30 1 1 1 2
M  V30 2 1 2 3
M  V30 3 1 3 4
M  V30 4 1 4 5
M  V30 5 1 5 6
M  V30 6 2 6 7
M  V30 7 1 6 8
M  V30 8 1 5 9
M  V30 9 1 9 10
M  V30 10 2 10 11
M  V30 11 1 10 12
M  V30 12 1 12 13
M  V30 13 1 13 14
M  V30 14 1 13 15
M  V30 15 1 12 16
M  V30 16 1 16 17
M  V30 17 2 17 18
M  V30 18 1 17 19
M  V30 19 1 19 20
M  V30 20 1 20 21
M  V30 21 1 20 22
M  V30 22 1 19 23
M  V30 23 1 23 24
M  V30 24 2 24 25
M  V30 25 1 24 26
M  V30 26 1 26 27
M  V30 27 1 27 28
M  V30 28 2 28 29
M  V30 29 1 29 30
M  V30 30 2 30 31
M  V30 31 1 31 32
M  V30 32 2 32 33
M  V30 33 1 31 34
M  V30 34 1 26 35
M  V30 35 1 35 36
M  V30 36 2 36 37
M  V30 37 1 36 38
M  V30 38 1 38 39
M  V30 39 1 39 40
M  V30 40 2 40 41
M  V30 41 1 41 42
M  V30 42 2 42 43
M  V30 43 1 43 44
M  V30 44 2 44 45
M  V30 45 1 38 46
M  V30 46 1 46 47
M  V30 47 2 47 48
M  V30 48 1 47 49
M  V30 49 1 49 50
M  V30 50 1 50 51
M  V30 51 1 51 52
M  V30 52 1 52 53
M  V30 53 1 53 54
M  V30 54 2 54 55 CFG=2
M  V30 55 1 54 56
M  V30 56 1 49 57
M  V30 57 1 33 28
M  V30 58 1 45 40
M  V30 59 1 1 58
M  V30 60 1 1 59
M  V30 61 1 1 60
M  V30 62 1 3 61
M  V30 63 1 3 62
M  V30 64 1 4 63
M  V30 65 1 4 64
M  V30 66 1 5 65
M  V30 67 1 8 66
M  V30 68 1 9 67
M  V30 69 1 12 68
M  V30 70 1 13 69
M  V30 71 1 14 70
M  V30 72 1 14 71
M  V30 73 1 14 72
M  V30 74 1 15 73
M  V30 75 1 15 74
M  V30 76 1 15 75
M  V30 77 1 16 76
M  V30 78 1 19 77
M  V30 79 1 20 78
M  V30 80 1 21 79
M  V30 81 1 21 80
M  V30 82 1 21 81
M  V30 83 1 22 82
M  V30 84 1 22 83
M  V30 85 1 22 84
M  V30 86 1 23 85
M  V30 87 1 26 86
M  V30 88 1 27 87
M  V30 89 1 27 88
M  V30 90 1 29 89
M  V30 91 1 30 90
M  V30 92 1 32 91
M  V30 93 1 33 92
M  V30 94 1 34 93
M  V30 95 1 35 94
M  V30 96 1 38 95
M  V30 97 1 39 96
M  V30 98 1 39 97
M  V30 99 1 41 98
M  V30 100 1 42 99
M  V30 101 1 43 100
M  V30 102 1 44 101
M  V30 103 1 45 102
M  V30 104 1 46 103
M  V30 105 1 49 104
M  V30 106 1 50 105
M  V30 107 1 50 106
M  V30 108 1 51 107
M  V30 109 1 51 108
M  V30 110 1 52 109
M  V30 111 1 52 110
M  V30 112 1 53 111
M  V30 113 1 55 112
M  V30 114 1 56 113
M  V30 115 1 56 114
M  V30 116 1 57 115
M  V30 117 1 57 116
M  V30 END BOND
M  V30 END CTAB
M  END
