
     RDKit          3D

  0  0  0  0  0  0  0  0  0  0999 V3000
M  V30 BEGIN CTAB
M  V30 COUNTS 23 23 0 0 0
M  V30 BEGIN ATOM
M  V30 1 N -4.29714 -0.137485 -0.705409 0
M  V30 2 C -2.93723 0.427171 -0.791759 0
M  V30 3 S -2.83334 1.80674 -1.5914 0
M  V30 4 N -1.89518 -0.249806 -0.199497 0
M  V30 5 C -0.526846 0.0362859 -0.118995 0
M  V30 6 C 0.0952342 1.13149 -0.654703 0
M  V30 7 C 1.47797 1.34198 -0.526684 0
M  V30 8 C 2.24763 0.442143 0.147658 0
M  V30 9 C 1.67594 -0.671434 0.703468 0
M  V30 10 C 0.332196 -0.849392 0.56329 0
M  V30 11 N -0.265961 -2.01899 1.14746 0
M  V30 12 C 3.70311 0.642568 0.294962 0
M  V30 13 H -5.11261 0.496835 -0.608045 0
M  V30 14 H -4.45783 -1.15344 -0.739692 0
M  V30 15 H -2.20067 -1.17386 0.292949 0
M  V30 16 H -0.465109 1.88145 -1.20186 0
M  V30 17 H 1.93515 2.2024 -0.953318 0
M  V30 18 H 2.31835 -1.37232 1.23656 0
M  V30 19 H -0.643798 -2.72687 0.483281 0
M  V30 20 H -0.322448 -2.15855 2.17558 0
M  V30 21 H 4.26838 -0.311432 0.294053 0
M  V30 22 H 4.02834 1.3114 -0.534612 0
M  V30 23 H 3.87586 1.10313 1.28671 0
M  V30 END ATOM
M  V30 BEGIN BOND
M  V30 1 1 1 2
M  V30 2 2 2 3
M  V30 3 1 2 4
M  V30 4 1 4 5
M  V30 5 2 5 6
M  V30 6 1 6 7
M  V30 7 2 7 8
M  V30 8 1 8 9
M  V30 9 2 9 10
M  V30 10 1 10 11
M  V30 11 1 8 12
M  V30 12 1 10 5
M  V30 13 1 1 13
M  V30 14 1 1 14
M  V30 15 1 4 15
M  V30 16 1 6 16
M  V30 17 1 7 17
M  V30 18 1 9 18
M  V30 19 1 11 19
M  V30 20 1 11 20
M  V30 21 1 12 21
M  V30 22 1 12 22
M  V30 23 1 12 23
M  V30 END BOND
M  V30 END CTAB
M  END
