
     RDKit          3D

  0  0  0  0  0  0  0  0  0  0999 V3000
M  V30 BEGIN CTAB
M  V30 COUNTS 27 27 0 0 0
M  V30 BEGIN ATOM
M  V30 1 N 3.17287 0.872194 -1.26034 0
M  V30 2 C 3.00044 -0.415852 -0.599992 0
M  V30 3 C 1.72142 -0.431202 0.19705 0
M  V30 4 N 0.562728 -0.205111 -0.642062 0
M  V30 5 C -0.731771 -0.183346 -0.0780865 0
M  V30 6 C -1.27331 0.998177 0.380761 0
M  V30 7 C -0.423096 2.22832 0.246896 0
M  V30 8 C -2.53764 1.0585 0.939042 0
M  V30 9 C -3.3223 -0.0696677 1.06391 0
M  V30 10 C -2.78692 -1.25477 0.607037 0
M  V30 11 C -1.50853 -1.32153 0.0414498 0
M  V30 12 N -0.978019 -2.54045 -0.419775 0
M  V30 13 H 2.79946 1.6036 -0.611573 0
M  V30 14 H 4.13475 1.0399 -1.56965 0
M  V30 15 H 3.07087 -1.26052 -1.30754 0
M  V30 16 H 3.85443 -0.515651 0.100809 0
M  V30 17 H 1.81992 0.35059 0.982678 0
M  V30 18 H 1.67224 -1.41463 0.719487 0
M  V30 19 H 0.721956 -0.062033 -1.65958 0
M  V30 20 H -1.11263 3.09072 0.35386 0
M  V30 21 H 0.357907 2.27851 1.00454 0
M  V30 22 H -0.020226 2.27006 -0.807116 0
M  V30 23 H -2.92257 2.00518 1.2855 0
M  V30 24 H -4.30777 0.000464019 1.50345 0
M  V30 25 H -3.39319 -2.14747 0.699538 0
M  V30 26 H -1.06894 -3.38925 0.158887 0
M  V30 27 H -0.50209 -2.58471 -1.32918 0
M  V30 END ATOM
M  V30 BEGIN BOND
M  V30 1 1 1 2
M  V30 2 1 2 3
M  V30 3 1 3 4
M  V30 4 1 4 5
M  V30 5 2 5 6
M  V30 6 1 6 7
M  V30 7 1 6 8
M  V30 8 2 8 9
M  V30 9 1 9 10
M  V30 10 2 10 11
M  V30 11 1 11 12
M  V30 12 1 11 5
M  V30 13 1 1 13
M  V30 14 1 1 14
M  V30 15 1 2 15
M  V30 16 1 2 16
M  V30 17 1 3 17
M  V30 18 1 3 18
M  V30 19 1 4 19
M  V30 20 1 7 20
M  V30 21 1 7 21
M  V30 22 1 7 22
M  V30 23 1 8 23
M  V30 24 1 9 24
M  V30 25 1 10 25
M  V30 26 1 12 26
M  V30 27 1 12 27
M  V30 END BOND
M  V30 END CTAB
M  END
