
     RDKit          3D

  0  0  0  0  0  0  0  0  0  0999 V3000
M  V30 BEGIN CTAB
M  V30 COUNTS 23 24 0 0 0
M  V30 BEGIN ATOM
M  V30 1 Br 4.76305 1.65589 -0.577009 0
M  V30 2 C 3.31213 0.511988 -0.0465625 0
M  V30 3 C 3.5791 -0.537258 0.83201 0
M  V30 4 C 2.51327 -1.33748 1.1906 0
M  V30 5 C 1.24108 -1.11797 0.708381 0
M  V30 6 C 0.980282 -0.0820277 -0.158373 0
M  V30 7 C 2.03684 0.726988 -0.52606 0
M  V30 8 C -0.377592 0.139345 -0.663108 0
M  V30 9 N -0.714146 0.400022 -1.93995 0
M  V30 10 N -2.027 0.545859 -2.04639 0
M  V30 11 C -2.6131 0.38792 -0.8457 0
M  V30 12 C -1.56895 0.129763 0.0345493 0
M  V30 13 N -1.66595 -0.109454 1.42564 0
M  V30 14 N -3.97764 0.455729 -0.48757 0
M  V30 15 H 4.57359 -0.709377 1.20939 0
M  V30 16 H 2.63911 -2.17682 1.87188 0
M  V30 17 H 0.390668 -1.75036 0.989788 0
M  V30 18 H 1.85892 1.55532 -1.21158 0
M  V30 19 H -2.56689 0.75295 -2.91355 0
M  V30 20 H -1.01464 0.327638 2.12725 0
M  V30 21 H -2.42737 -0.753205 1.74586 0
M  V30 22 H -4.43067 1.38079 -0.421726 0
M  V30 23 H -4.50409 -0.396253 -0.297769 0
M  V30 END ATOM
M  V30 BEGIN BOND
M  V30 1 1 1 2
M  V30 2 2 2 3
M  V30 3 1 3 4
M  V30 4 2 4 5
M  V30 5 1 5 6
M  V30 6 2 6 7
M  V30 7 1 6 8
M  V30 8 2 8 9
M  V30 9 1 9 10
M  V30 10 1 10 11
M  V30 11 2 11 12
M  V30 12 1 12 13
M  V30 13 1 11 14
M  V30 14 1 7 2
M  V30 15 1 12 8
M  V30 16 1 3 15
M  V30 17 1 4 16
M  V30 18 1 5 17
M  V30 19 1 7 18
M  V30 20 1 10 19
M  V30 21 1 13 20
M  V30 22 1 13 21
M  V30 23 1 14 22
M  V30 24 1 14 23
M  V30 END BOND
M  V30 END CTAB
M  END
