
     RDKit          3D

  0  0  0  0  0  0  0  0  0  0999 V3000
M  V30 BEGIN CTAB
M  V30 COUNTS 96 95 0 0 0
M  V30 BEGIN ATOM
M  V30 1 N -11.5476 2.45997 2.46778 0
M  V30 2 C -12.8231 2.25857 1.82887 0
M  V30 3 C -13.048 0.804328 1.46993 0
M  V30 4 C -11.8905 0.410976 0.489413 0
M  V30 5 C -12.0422 -0.99863 0.0932832 0
M  V30 6 C -11.1682 -1.64239 -0.878626 0
M  V30 7 C -9.71786 -1.79371 -0.693759 0
M  V30 8 C -8.95795 -0.528751 -0.640394 0
M  V30 9 C -7.44455 -0.793851 -0.505743 0
M  V30 10 C -6.78941 0.569355 -0.463092 0
M  V30 11 C -5.2635 0.415181 -0.327842 0
M  V30 12 C -4.64575 1.76169 -0.289715 0
M  V30 13 C -3.18291 1.86964 -0.0770144 0
M  V30 14 N -2.35593 1.25657 -1.00243 0
M  V30 15 C -2.16547 -0.119128 -1.1072 0
M  V30 16 C -1.43387 -0.716509 0.105913 0
M  V30 17 S -1.28441 -2.49021 -0.204492 0
M  V30 18 S -0.0247714 -2.90231 -1.845 0
M  V30 19 C 1.70434 -3.10745 -1.35119 0
M  V30 20 C 2.21693 -1.7824 -0.832425 0
M  V30 21 N 3.6023 -1.86655 -0.423477 0
M  V30 22 C 3.80571 -2.68995 0.753703 0
M  V30 23 C 5.32144 -2.66356 0.993033 0
M  V30 24 C 5.67909 -1.19822 1.21331 0
M  V30 25 C 7.17267 -1.05398 1.44785 0
M  V30 26 C 7.45869 0.409622 1.6603 0
M  V30 27 C 8.9299 0.636624 1.89121 0
M  V30 28 C 9.76155 0.186185 0.731523 0
M  V30 29 C 11.2429 0.419578 0.965775 0
M  V30 30 C 12.0847 -0.00556474 -0.175674 0
M  V30 31 C 11.9509 0.63636 -1.49086 0
M  V30 32 C 12.2937 2.04131 -1.69913 0
M  V30 33 C 11.5848 3.14274 -1.02374 0
M  V30 34 N 10.1799 3.24789 -1.32017 0
M  V30 35 H -10.8286 2.87918 1.83668 0
M  V30 36 H -11.1948 1.59939 2.94412 0
M  V30 37 H -13.6299 2.6027 2.49256 0
M  V30 38 H -12.817 2.87574 0.889124 0
M  V30 39 H -14.0166 0.662373 0.995426 0
M  V30 40 H -12.8895 0.16779 2.35396 0
M  V30 41 H -11.0038 0.63853 1.15568 0
M  V30 42 H -11.8434 1.1088 -0.349557 0
M  V30 43 H -12.1647 -1.63202 1.03779 0
M  V30 44 H -13.1089 -1.08626 -0.335193 0
M  V30 45 H -11.2738 -1.12777 -1.9195 0
M  V30 46 H -11.5548 -2.69467 -1.14495 0
M  V30 47 H -9.51939 -2.44224 0.223656 0
M  V30 48 H -9.30842 -2.42584 -1.54059 0
M  V30 49 H -9.06531 -0.0136446 -1.61807 0
M  V30 50 H -9.19867 0.0729794 0.221177 0
M  V30 51 H -7.15414 -1.37774 -1.38566 0
M  V30 52 H -7.20461 -1.3257 0.413798 0
M  V30 53 H -6.98209 1.14494 -1.3908 0
M  V30 54 H -7.21198 1.14905 0.377287 0
M  V30 55 H -5.089 -0.215606 0.549678 0
M  V30 56 H -4.98539 -0.0954535 -1.28941 0
M  V30 57 H -4.83786 2.23936 -1.31411 0
M  V30 58 H -5.21695 2.46828 0.385596 0
M  V30 59 H -2.9132 1.60618 1.00596 0
M  V30 60 H -2.97035 3.00672 -0.0839187 0
M  V30 61 H -2.00581 1.84345 -1.79612 0
M  V30 62 H -2.9487 -0.792573 -1.41193 0
M  V30 63 H -1.36823 -0.258125 -1.93844 0
M  V30 64 H -2.00961 -0.567674 1.0351 0
M  V30 65 H -0.443311 -0.231255 0.11921 0
M  V30 66 H 1.83323 -3.92152 -0.611145 0
M  V30 67 H 2.26663 -3.41955 -2.25406 0
M  V30 68 H 2.17117 -1.04767 -1.66019 0
M  V30 69 H 1.64422 -1.4004 0.00965724 0
M  V30 70 H 4.15595 -2.18819 -1.23306 0
M  V30 71 H 3.41507 -3.70092 0.658401 0
M  V30 72 H 3.35124 -2.22227 1.65015 0
M  V30 73 H 5.60724 -3.30363 1.83149 0
M  V30 74 H 5.76939 -2.95357 0.0179895 0
M  V30 75 H 5.08317 -0.80728 2.06843 0
M  V30 76 H 5.41376 -0.630986 0.322691 0
M  V30 77 H 7.66636 -1.45933 0.55187 0
M  V30 78 H 7.40862 -1.65901 2.35471 0
M  V30 79 H 6.87173 0.828938 2.47562 0
M  V30 80 H 7.18782 0.939664 0.727812 0
M  V30 81 H 9.07561 1.70785 2.14074 0
M  V30 82 H 9.20802 0.0556943 2.78942 0
M  V30 83 H 9.43119 0.544451 -0.253456 0
M  V30 84 H 9.62309 -0.938599 0.678015 0
M  V30 85 H 11.4049 1.42106 1.36791 0
M  V30 86 H 11.5403 -0.274082 1.83532 0
M  V30 87 H 11.8738 -1.12635 -0.30506 0
M  V30 88 H 13.153 -0.0298619 0.19021 0
M  V30 89 H 10.9123 0.481359 -1.91906 0
M  V30 90 H 12.578 0.0370723 -2.24194 0
M  V30 91 H 13.4323 2.20865 -1.63016 0
M  V30 92 H 12.1503 2.23695 -2.82569 0
M  V30 93 H 11.7587 3.2543 0.0667162 0
M  V30 94 H 12.0381 4.11153 -1.44637 0
M  V30 95 H 9.56905 3.0747 -0.471925 0
M  V30 96 H 9.961 4.22869 -1.59092 0
M  V30 END ATOM
M  V30 BEGIN BOND
M  V30 1 1 1 2
M  V30 2 1 2 3
M  V30 3 1 3 4
M  V30 4 1 4 5
M  V30 5 1 5 6
M  V30 6 1 6 7
M  V30 7 1 7 8
M  V30 8 1 8 9
M  V30 9 1 9 10
M  V30 10 1 10 11
M  V30 11 1 11 12
M  V30 12 1 12 13
M  V30 13 1 13 14
M  V30 14 1 14 15
M  V30 15 1 15 16
M  V30 16 1 16 17
M  V30 17 1 17 18
M  V30 18 1 18 19
M  V30 19 1 19 20
M  V30 20 1 20 21
M  V30 21 1 21 22
M  V30 22 1 22 23
M  V30 23 1 23 24
M  V30 24 1 24 25
M  V30 25 1 25 26
M  V30 26 1 26 27
M  V30 27 1 27 28
M  V30 28 1 28 29
M  V30 29 1 29 30
M  V30 30 1 30 31
M  V30 31 1 31 32
M  V30 32 1 32 33
M  V30 33 1 33 34
M  V30 34 1 1 35
M  V30 35 1 1 36
M  V30 36 1 2 37
M  V30 37 1 2 38
M  V30 38 1 3 39
M  V30 39 1 3 40
M  V30 40 1 4 41
M  V30 41 1 4 42
M  V30 42 1 5 43
M  V30 43 1 5 44
M  V30 44 1 6 45
M  V30 45 1 6 46
M  V30 46 1 7 47
M  V30 47 1 7 48
M  V30 48 1 8 49
M  V30 49 1 8 50
M  V30 50 1 9 51
M  V30 51 1 9 52
M  V30 52 1 10 53
M  V30 53 1 10 54
M  V30 54 1 11 55
M  V30 55 1 11 56
M  V30 56 1 12 57
M  V30 57 1 12 58
M  V30 58 1 13 59
M  V30 59 1 13 60
M  V30 60 1 14 61
M  V30 61 1 15 62
M  V30 62 1 15 63
M  V30 63 1 16 64
M  V30 64 1 16 65
M  V30 65 1 19 66
M  V30 66 1 19 67
M  V30 67 1 20 68
M  V30 68 1 20 69
M  V30 69 1 21 70
M  V30 70 1 22 71
M  V30 71 1 22 72
M  V30 72 1 23 73
M  V30 73 1 23 74
M  V30 74 1 24 75
M  V30 75 1 24 76
M  V30 76 1 25 77
M  V30 77 1 25 78
M  V30 78 1 26 79
M  V30 79 1 26 80
M  V30 80 1 27 81
M  V30 81 1 27 82
M  V30 82 1 28 83
M  V30 83 1 28 84
M  V30 84 1 29 85
M  V30 85 1 29 86
M  V30 86 1 30 87
M  V30 87 1 30 88
M  V30 88 1 31 89
M  V30 89 1 31 90
M  V30 90 1 32 91
M  V30 91 1 32 92
M  V30 92 1 33 93
M  V30 93 1 33 94
M  V30 94 1 34 95
M  V30 95 1 34 96
M  V30 END BOND
M  V30 END CTAB
M  END
