
     RDKit          3D

  0  0  0  0  0  0  0  0  0  0999 V3000
M  V30 BEGIN CTAB
M  V30 COUNTS 39 41 0 0 0
M  V30 BEGIN ATOM
M  V30 1 N -5.96117 -0.0451965 0.0535013 0
M  V30 2 C -4.74231 0.685267 -0.219124 0
M  V30 3 C -3.71146 -0.115849 -1.02553 0
M  V30 4 C -2.66173 0.59962 -0.166128 0
M  V30 5 C -3.72732 0.658861 0.917094 0
M  V30 6 C -1.48672 -0.222791 0.163032 0
M  V30 7 C -0.231821 0.295578 -0.0687683 0
M  V30 8 C 0.919369 -0.444984 0.226513 0
M  V30 9 N 0.733329 -1.6725 0.741475 0
M  V30 10 C -0.477487 -2.2007 0.976837 0
M  V30 11 N -1.55885 -1.4584 0.679982 0
M  V30 12 N -0.553371 -3.49995 1.52041 0
M  V30 13 N 2.21786 0.0945873 -0.0146573 0
M  V30 14 C 2.34288 1.43713 -0.576866 0
M  V30 15 C 3.75363 1.93218 -0.239667 0
M  V30 16 C 4.72702 0.999424 -0.877371 0
M  V30 17 C 4.57754 -0.422919 -0.48271 0
M  V30 18 C 3.34351 -0.724782 0.313815 0
M  V30 19 F 4.59123 1.13785 -2.26406 0
M  V30 20 F 6.02215 1.45306 -0.590413 0
M  V30 21 H -6.68062 0.285574 -0.625657 0
M  V30 22 H -6.31259 0.130754 1.02573 0
M  V30 23 H -4.87485 1.67055 -0.699546 0
M  V30 24 H -3.7975 -1.17521 -0.765989 0
M  V30 25 H -3.67331 0.150303 -2.09011 0
M  V30 26 H -2.46925 1.58725 -0.5807 0
M  V30 27 H -3.63064 1.59799 1.46811 0
M  V30 28 H -3.83942 -0.261128 1.50097 0
M  V30 29 H -0.145526 1.28231 -0.481951 0
M  V30 30 H -0.793756 -3.62555 2.51263 0
M  V30 31 H -0.367156 -4.31775 0.919148 0
M  V30 32 H 1.65566 2.15715 -0.0923893 0
M  V30 33 H 2.26555 1.41769 -1.67697 0
M  V30 34 H 3.91937 2.94486 -0.655682 0
M  V30 35 H 3.92946 1.97999 0.839178 0
M  V30 36 H 4.63246 -1.06498 -1.40826 0
M  V30 37 H 5.45831 -0.725401 0.13391 0
M  V30 38 H 3.54207 -0.727165 1.41616 0
M  V30 39 H 3.06544 -1.79273 0.0710994 0
M  V30 END ATOM
M  V30 BEGIN BOND
M  V30 1 1 1 2
M  V30 2 1 2 3
M  V30 3 1 3 4
M  V30 4 1 4 5
M  V30 5 1 4 6
M  V30 6 2 6 7
M  V30 7 1 7 8
M  V30 8 2 8 9
M  V30 9 1 9 10
M  V30 10 2 10 11
M  V30 11 1 10 12
M  V30 12 1 8 13
M  V30 13 1 13 14
M  V30 14 1 14 15
M  V30 15 1 15 16
M  V30 16 1 16 17
M  V30 17 1 17 18
M  V30 18 1 16 19
M  V30 19 1 16 20
M  V30 20 1 5 2
M  V30 21 1 11 6
M  V30 22 1 18 13
M  V30 23 1 1 21
M  V30 24 1 1 22
M  V30 25 1 2 23
M  V30 26 1 3 24
M  V30 27 1 3 25
M  V30 28 1 4 26
M  V30 29 1 5 27
M  V30 30 1 5 28
M  V30 31 1 7 29
M  V30 32 1 12 30
M  V30 33 1 12 31
M  V30 34 1 14 32
M  V30 35 1 14 33
M  V30 36 1 15 34
M  V30 37 1 15 35
M  V30 38 1 17 36
M  V30 39 1 17 37
M  V30 40 1 18 38
M  V30 41 1 18 39
M  V30 END BOND
M  V30 END CTAB
M  END
