
     RDKit          3D

  0  0  0  0  0  0  0  0  0  0999 V3000
M  V30 BEGIN CTAB
M  V30 COUNTS 19 19 0 0 0
M  V30 BEGIN ATOM
M  V30 1 N -3.25165 -0.314699 -0.191647 0
M  V30 2 C -1.84654 -0.332034 -0.0989158 0
M  V30 3 C -1.13157 -1.51244 0.0260395 0
M  V30 4 C 0.24504 -1.48925 0.114213 0
M  V30 5 C 0.977024 -0.320518 0.0843295 0
M  V30 6 C 0.263663 0.851377 -0.0399552 0
M  V30 7 C -1.11344 0.83569 -0.128658 0
M  V30 8 N 0.97969 2.10052 -0.0762203 0
M  V30 9 S 2.73338 -0.321736 0.198865 0
M  V30 10 O 3.18345 0.506573 1.39344 0
M  V30 11 O 3.24806 -1.71149 0.444146 0
M  V30 12 F 3.43858 0.361376 -1.14875 0
M  V30 13 H -3.75385 -1.1241 -0.613673 0
M  V30 14 H -3.84135 0.476661 0.143292 0
M  V30 15 H -1.71267 -2.4327 0.0492516 0
M  V30 16 H 0.794644 -2.42941 0.212447 0
M  V30 17 H -1.67872 1.77263 -0.227693 0
M  V30 18 H 1.2531 2.53461 0.835276 0
M  V30 19 H 1.21316 2.54896 -0.975783 0
M  V30 END ATOM
M  V30 BEGIN BOND
M  V30 1 1 1 2
M  V30 2 2 2 3
M  V30 3 1 3 4
M  V30 4 2 4 5
M  V30 5 1 5 6
M  V30 6 2 6 7
M  V30 7 1 6 8
M  V30 8 1 5 9
M  V30 9 2 9 10
M  V30 10 2 9 11
M  V30 11 1 9 12
M  V30 12 1 7 2
M  V30 13 1 1 13
M  V30 14 1 1 14
M  V30 15 1 3 15
M  V30 16 1 4 16
M  V30 17 1 7 17
M  V30 18 1 8 18
M  V30 19 1 8 19
M  V30 END BOND
M  V30 END CTAB
M  END
