
     RDKit          3D

  0  0  0  0  0  0  0  0  0  0999 V3000
M  V30 BEGIN CTAB
M  V30 COUNTS 34 36 0 0 0
M  V30 BEGIN ATOM
M  V30 1 N -4.73309 2.74312 -0.560575 0
M  V30 2 C -4.17951 1.42839 -0.488707 0
M  V30 3 C -4.97249 0.321463 -0.662665 0
M  V30 4 C -4.37333 -0.908439 -0.580324 0
M  V30 5 C -3.00504 -1.00009 -0.327713 0
M  V30 6 C -2.20726 0.113064 -0.152831 0
M  V30 7 C -2.80115 1.33371 -0.234282 0
M  V30 8 N -0.909779 -0.274954 0.0823083 0
M  V30 9 C -0.942575 -1.61379 0.0448504 0
M  V30 10 N -2.20652 -2.06789 -0.202202 0
M  V30 11 C 0.182516 -2.56732 0.20433 0
M  V30 12 C 0.200051 0.586074 0.272393 0
M  V30 13 O -0.0215336 1.84719 0.118121 0
M  V30 14 C 1.54484 0.19335 0.620583 0
M  V30 15 C 2.01851 -0.304018 1.81339 0
M  V30 16 C 3.3783 -0.525783 1.64324 0
M  V30 17 C 3.6633 -0.152753 0.356727 0
M  V30 18 O 2.56531 0.259993 -0.20213 0
M  V30 19 S 5.2112 -0.199267 -0.451229 0
M  V30 20 O 5.04898 -1.05027 -1.68103 0
M  V30 21 O 6.23293 -0.762199 0.494653 0
M  V30 22 N 5.65222 1.40199 -0.958519 0
M  V30 23 H -4.27359 3.43747 -1.21066 0
M  V30 24 H -5.56344 3.03429 -0.000102584 0
M  V30 25 H -6.0403 0.425888 -0.85908 0
M  V30 26 H -4.97992 -1.78842 -0.714246 0
M  V30 27 H -2.24068 2.2416 -0.105066 0
M  V30 28 H 0.38449 -2.80609 1.25811 0
M  V30 29 H 1.07288 -2.22305 -0.358715 0
M  V30 30 H -0.0960622 -3.53047 -0.342252 0
M  V30 31 H 1.42062 -0.483004 2.71281 0
M  V30 32 H 4.07539 -0.916878 2.38324 0
M  V30 33 H 6.12953 1.84643 -0.122103 0
M  V30 34 H 4.7652 1.96064 -1.11139 0
M  V30 END ATOM
M  V30 BEGIN BOND
M  V30 1 1 1 2
M  V30 2 2 2 3
M  V30 3 1 3 4
M  V30 4 2 4 5
M  V30 5 1 5 6
M  V30 6 2 6 7
M  V30 7 1 6 8
M  V30 8 1 8 9
M  V30 9 2 9 10
M  V30 10 1 9 11
M  V30 11 1 8 12
M  V30 12 2 12 13
M  V30 13 1 12 14
M  V30 14 2 14 15
M  V30 15 1 15 16
M  V30 16 2 16 17
M  V30 17 1 17 18
M  V30 18 1 17 19
M  V30 19 2 19 20
M  V30 20 2 19 21
M  V30 21 1 19 22
M  V30 22 1 7 2
M  V30 23 1 18 14
M  V30 24 1 10 5
M  V30 25 1 1 23
M  V30 26 1 1 24
M  V30 27 1 3 25
M  V30 28 1 4 26
M  V30 29 1 7 27
M  V30 30 1 11 28
M  V30 31 1 11 29
M  V30 32 1 11 30
M  V30 33 1 15 31
M  V30 34 1 16 32
M  V30 35 1 22 33
M  V30 36 1 22 34
M  V30 END BOND
M  V30 END CTAB
M  END
