
     RDKit          3D

  0  0  0  0  0  0  0  0  0  0999 V3000
M  V30 BEGIN CTAB
M  V30 COUNTS 20 20 0 0 0
M  V30 BEGIN ATOM
M  V30 1 C 3.19446 -0.312549 0.0673982 0
M  V30 2 O 1.89576 -0.780573 0.0810375 0
M  V30 3 C 0.739458 -0.063229 0.0112607 0
M  V30 4 C 0.774724 1.30768 -0.0875023 0
M  V30 5 C -0.411477 2.04678 -0.159351 0
M  V30 6 C -1.62809 1.4074 -0.131819 0
M  V30 7 C -1.68313 0.0390399 -0.0335505 0
M  V30 8 C -0.486114 -0.687315 0.0375439 0
M  V30 9 N -0.482122 -2.09956 0.139931 0
M  V30 10 N -2.93357 -0.631199 -0.00427064 0
M  V30 11 Br -3.2784 2.36148 -0.226417 0
M  V30 12 H 3.91536 -0.969188 0.627284 0
M  V30 13 H 3.62238 -0.172531 -0.956166 0
M  V30 14 H 3.23077 0.66171 0.638672 0
M  V30 15 H 1.72596 1.81392 -0.109644 0
M  V30 16 H -0.396582 3.11635 -0.236589 0
M  V30 17 H -1.10885 -2.55785 0.827179 0
M  V30 18 H 0.117633 -2.71582 -0.438117 0
M  V30 19 H -3.42215 -0.92526 0.868075 0
M  V30 20 H -3.38602 -0.839285 -0.914954 0
M  V30 END ATOM
M  V30 BEGIN BOND
M  V30 1 1 1 2
M  V30 2 1 2 3
M  V30 3 2 3 4
M  V30 4 1 4 5
M  V30 5 2 5 6
M  V30 6 1 6 7
M  V30 7 2 7 8
M  V30 8 1 8 9
M  V30 9 1 7 10
M  V30 10 1 6 11
M  V30 11 1 8 3
M  V30 12 1 1 12
M  V30 13 1 1 13
M  V30 14 1 1 14
M  V30 15 1 4 15
M  V30 16 1 5 16
M  V30 17 1 9 17
M  V30 18 1 9 18
M  V30 19 1 10 19
M  V30 20 1 10 20
M  V30 END BOND
M  V30 END CTAB
M  END
