
     RDKit          3D

  0  0  0  0  0  0  0  0  0  0999 V3000
M  V30 BEGIN CTAB
M  V30 COUNTS 8 7 0 0 0
M  V30 BEGIN ATOM
M  V30 1 H -1.66276 -0.0464558 0.89168 0 MASS=2
M  V30 2 N -1.42422 -0.0688932 -0.113817 0
M  V30 3 H -1.4998 -1.00008 -0.559062 0 MASS=2
M  V30 4 B -0.0164727 0.497468 -0.355033 0 MASS=11
M  V30 5 H 0.153502 1.67183 -0.449346 0 MASS=2
M  V30 6 N 1.12846 -0.384867 0.0931402 0
M  V30 7 H 1.42567 -0.207489 1.07723 0 MASS=2
M  V30 8 H 1.89561 -0.461519 -0.584794 0 MASS=2
M  V30 END ATOM
M  V30 BEGIN BOND
M  V30 1 1 1 2
M  V30 2 1 2 3
M  V30 3 1 2 4
M  V30 4 1 4 5
M  V30 5 1 4 6
M  V30 6 1 6 7
M  V30 7 1 6 8
M  V30 END BOND
M  V30 END CTAB
M  END
