
     RDKit          3D

  0  0  0  0  0  0  0  0  0  0999 V3000
M  V30 BEGIN CTAB
M  V30 COUNTS 30 29 0 0 0
M  V30 BEGIN ATOM
M  V30 1 C -2.22366 0.274195 1.12769 0
M  V30 2 C -1.80649 -0.0454736 -0.289564 0
M  V30 3 C -2.71539 0.702907 -1.25754 0
M  V30 4 N -1.98529 -1.44797 -0.536614 0
M  V30 5 C -0.355472 0.377731 -0.533939 0
M  V30 6 C 0.501222 -0.386261 0.440772 0
M  V30 7 C 1.95862 -0.0675347 0.312759 0
M  V30 8 C 2.27554 1.37918 0.549042 0
M  V30 9 C 2.45456 -0.539474 -1.04596 0
M  V30 10 N 2.66416 -0.854425 1.31667 0
M  V30 11 H -1.52571 0.991289 1.60503 0
M  V30 12 H -3.23469 0.769382 1.13905 0
M  V30 13 H -2.33487 -0.655386 1.7497 0
M  V30 14 H -2.25067 1.64869 -1.60639 0
M  V30 15 H -2.90282 0.0731203 -2.1735 0
M  V30 16 H -3.6972 0.860722 -0.79002 0
M  V30 17 H -2.93783 -1.7038 -0.834245 0
M  V30 18 H -1.56799 -2.06253 0.17708 0
M  V30 19 H -0.306413 1.46634 -0.318233 0
M  V30 20 H -0.0760998 0.242269 -1.58312 0
M  V30 21 H 0.132431 -0.188132 1.45113 0
M  V30 22 H 0.385399 -1.47814 0.241018 0
M  V30 23 H 3.04614 1.54064 1.32745 0
M  V30 24 H 2.69345 1.81812 -0.395036 0
M  V30 25 H 1.37661 1.98438 0.787413 0
M  V30 26 H 2.41234 0.244365 -1.80537 0
M  V30 27 H 3.5217 -0.857231 -0.963231 0
M  V30 28 H 1.87828 -1.45188 -1.30539 0
M  V30 29 H 2.08495 -0.76873 2.19668 0
M  V30 30 H 2.53519 -1.86638 1.01669 0
M  V30 END ATOM
M  V30 BEGIN BOND
M  V30 1 1 1 2
M  V30 2 1 2 3
M  V30 3 1 2 4
M  V30 4 1 2 5
M  V30 5 1 5 6
M  V30 6 1 6 7
M  V30 7 1 7 8
M  V30 8 1 7 9
M  V30 9 1 7 10
M  V30 10 1 1 11
M  V30 11 1 1 12
M  V30 12 1 1 13
M  V30 13 1 3 14
M  V30 14 1 3 15
M  V30 15 1 3 16
M  V30 16 1 4 17
M  V30 17 1 4 18
M  V30 18 1 5 19
M  V30 19 1 5 20
M  V30 20 1 6 21
M  V30 21 1 6 22
M  V30 22 1 8 23
M  V30 23 1 8 24
M  V30 24 1 8 25
M  V30 25 1 9 26
M  V30 26 1 9 27
M  V30 27 1 9 28
M  V30 28 1 10 29
M  V30 29 1 10 30
M  V30 END BOND
M  V30 END CTAB
M  END
