
     RDKit          3D

  0  0  0  0  0  0  0  0  0  0999 V3000
M  V30 BEGIN CTAB
M  V30 COUNTS 37 38 0 0 0
M  V30 BEGIN ATOM
M  V30 1 O 0.570539 0.642371 1.43884 0
M  V30 2 C -0.166783 -0.268639 1.0149 0
M  V30 3 N -1.43202 0.0474296 0.470516 0
M  V30 4 C -2.18392 -1.08938 0.0185801 0
M  V30 5 C -3.45034 -0.764995 -0.680448 0
M  V30 6 C -4.2873 0.240876 0.0651006 0
M  V30 7 C -4.03255 1.6473 -0.449952 0
M  V30 8 C -2.55279 1.87689 -0.674234 0
M  V30 9 C -1.7198 1.46112 0.485382 0
M  V30 10 C 0.265074 -1.67167 1.07554 0
M  V30 11 S 1.90971 -1.76336 1.82781 0
M  V30 12 C 3.09168 -1.01287 0.737046 0
M  V30 13 N 3.44605 0.270798 0.735487 0
M  V30 14 C 4.35079 0.796372 -0.114381 0
M  V30 15 N 4.69446 2.18678 -0.0712166 0
M  V30 16 N 4.92065 -0.0323688 -1.00614 0
M  V30 17 C 4.60417 -1.33915 -1.05403 0
M  V30 18 N 3.70705 -1.79797 -0.192181 0
M  V30 19 N 5.17753 -2.24115 -1.97172 0
M  V30 20 H -1.52825 -1.63448 -0.732014 0
M  V30 21 H -2.34101 -1.83229 0.834323 0
M  V30 22 H -3.24072 -0.406033 -1.70903 0
M  V30 23 H -4.06335 -1.71176 -0.705668 0
M  V30 24 H -4.17627 0.173079 1.14991 0
M  V30 25 H -5.36678 0.0369068 -0.155216 0
M  V30 26 H -4.59311 1.78299 -1.39413 0
M  V30 27 H -4.37378 2.34335 0.340068 0
M  V30 28 H -2.35393 2.9579 -0.877855 0
M  V30 29 H -2.20754 1.34014 -1.57956 0
M  V30 30 H -0.763905 2.06712 0.434022 0
M  V30 31 H -2.16207 1.78554 1.46496 0
M  V30 32 H -0.462467 -2.32147 1.60687 0
M  V30 33 H 0.27905 -2.05611 0.0279012 0
M  V30 34 H 3.98726 2.93662 -0.180974 0
M  V30 35 H 5.68203 2.4831 0.0741674 0
M  V30 36 H 6.07044 -2.69441 -1.74004 0
M  V30 37 H 4.70221 -2.43859 -2.86109 0
M  V30 END ATOM
M  V30 BEGIN BOND
M  V30 1 2 1 2
M  V30 2 1 2 3
M  V30 3 1 3 4
M  V30 4 1 4 5
M  V30 5 1 5 6
M  V30 6 1 6 7
M  V30 7 1 7 8
M  V30 8 1 8 9
M  V30 9 1 2 10
M  V30 10 1 10 11
M  V30 11 1 11 12
M  V30 12 2 12 13
M  V30 13 1 13 14
M  V30 14 1 14 15
M  V30 15 2 14 16
M  V30 16 1 16 17
M  V30 17 2 17 18
M  V30 18 1 17 19
M  V30 19 1 9 3
M  V30 20 1 18 12
M  V30 21 1 4 20
M  V30 22 1 4 21
M  V30 23 1 5 22
M  V30 24 1 5 23
M  V30 25 1 6 24
M  V30 26 1 6 25
M  V30 27 1 7 26
M  V30 28 1 7 27
M  V30 29 1 8 28
M  V30 30 1 8 29
M  V30 31 1 9 30
M  V30 32 1 9 31
M  V30 33 1 10 32
M  V30 34 1 10 33
M  V30 35 1 15 34
M  V30 36 1 15 35
M  V30 37 1 19 36
M  V30 38 1 19 37
M  V30 END BOND
M  V30 END CTAB
M  END
