
     RDKit          3D

  0  0  0  0  0  0  0  0  0  0999 V3000
M  V30 BEGIN CTAB
M  V30 COUNTS 23 23 0 0 0
M  V30 BEGIN ATOM
M  V30 1 N 3.86736 1.09706 -0.872814 0
M  V30 2 N 2.95161 0.356519 -0.100682 0
M  V30 3 C 1.65528 0.820693 0.195593 0
M  V30 4 O 1.27921 1.92466 -0.229038 0
M  V30 5 C 0.746973 -0.00253389 1.00815 0
M  V30 6 C -0.548003 -0.256393 0.33104 0
M  V30 7 C -0.823893 -1.1567 -0.672392 0
M  V30 8 N -2.14782 -1.0506 -0.993403 0
M  V30 9 N -2.69966 -0.111966 -0.219115 0
M  V30 10 C -1.7411 0.380693 0.591506 0
M  V30 11 C -4.08694 0.316673 -0.233178 0
M  V30 12 N 1.4274 -1.22045 1.36609 0
M  V30 13 H 4.3045 0.427863 -1.54518 0
M  V30 14 H 4.6266 1.3941 -0.217003 0
M  V30 15 H 3.319 -0.576017 0.237299 0
M  V30 16 H 0.584575 0.555837 1.96358 0
M  V30 17 H -0.0821424 -1.81605 -1.10163 0
M  V30 18 H -1.90805 1.15877 1.32742 0
M  V30 19 H -4.15695 1.42733 -0.165206 0
M  V30 20 H -4.58068 -0.0628067 0.703597 0
M  V30 21 H -4.60758 -0.0512478 -1.13027 0
M  V30 22 H 1.63252 -1.82603 0.543083 0
M  V30 23 H 0.9878 -1.7294 2.15325 0
M  V30 END ATOM
M  V30 BEGIN BOND
M  V30 1 1 1 2
M  V30 2 1 2 3
M  V30 3 2 3 4
M  V30 4 1 3 5
M  V30 5 1 5 6
M  V30 6 1 6 7
M  V30 7 2 7 8
M  V30 8 1 8 9
M  V30 9 1 9 10
M  V30 10 1 9 11
M  V30 11 1 5 12
M  V30 12 2 10 6
M  V30 13 1 1 13
M  V30 14 1 1 14
M  V30 15 1 2 15
M  V30 16 1 5 16
M  V30 17 1 7 17
M  V30 18 1 10 18
M  V30 19 1 11 19
M  V30 20 1 11 20
M  V30 21 1 11 21
M  V30 22 1 12 22
M  V30 23 1 12 23
M  V30 END BOND
M  V30 END CTAB
M  END
