
     RDKit          3D

  0  0  0  0  0  0  0  0  0  0999 V3000
M  V30 BEGIN CTAB
M  V30 COUNTS 30 31 0 0 0
M  V30 BEGIN ATOM
M  V30 1 O 0.632095 -0.0315656 1.33673 0
M  V30 2 C 0.756269 -1.26685 1.50409 0
M  V30 3 N 1.9553 -1.92066 1.07454 0
M  V30 4 C 2.98563 -1.12991 0.462231 0
M  V30 5 N 4.16792 -1.50202 -0.0115436 0
M  V30 6 N 4.93983 -0.642835 -0.516847 0
M  V30 7 C 4.5794 0.631737 -0.579016 0
M  V30 8 S 3.03096 0.561233 0.14092 0
M  V30 9 C 5.30306 1.82222 -1.12121 0
M  V30 10 C -0.348599 -2.0087 2.1437 0
M  V30 11 S -1.68152 -0.877554 2.54388 0
M  V30 12 C -2.44141 -0.206581 1.08667 0
M  V30 13 N -3.46005 0.660707 1.18873 0
M  V30 14 C -4.06001 1.18993 0.100605 0
M  V30 15 N -5.13426 2.10563 0.258703 0
M  V30 16 C -3.59153 0.810133 -1.14768 0
M  V30 17 C -2.55859 -0.069218 -1.25782 0
M  V30 18 N -2.00186 -0.562266 -0.121702 0
M  V30 19 N -2.03454 -0.494579 -2.49863 0
M  V30 20 H 2.13049 -2.93073 1.17766 0
M  V30 21 H 5.73115 2.36242 -0.262759 0
M  V30 22 H 4.50998 2.48526 -1.53893 0
M  V30 23 H 5.99573 1.57844 -1.92171 0
M  V30 24 H -0.689034 -2.87422 1.53323 0
M  V30 25 H 0.0580407 -2.4099 3.11838 0
M  V30 26 H -5.19939 2.70767 1.10492 0
M  V30 27 H -5.85894 2.16874 -0.484027 0
M  V30 28 H -4.05026 1.21559 -2.0475 0
M  V30 29 H -1.73624 0.143549 -3.26745 0
M  V30 30 H -1.92963 -1.51568 -2.68122 0
M  V30 END ATOM
M  V30 BEGIN BOND
M  V30 1 2 1 2
M  V30 2 1 2 3
M  V30 3 1 3 4
M  V30 4 2 4 5
M  V30 5 1 5 6
M  V30 6 2 6 7
M  V30 7 1 7 8
M  V30 8 1 7 9
M  V30 9 1 2 10
M  V30 10 1 10 11
M  V30 11 1 11 12
M  V30 12 2 12 13
M  V30 13 1 13 14
M  V30 14 1 14 15
M  V30 15 2 14 16
M  V30 16 1 16 17
M  V30 17 2 17 18
M  V30 18 1 17 19
M  V30 19 1 8 4
M  V30 20 1 18 12
M  V30 21 1 3 20
M  V30 22 1 9 21
M  V30 23 1 9 22
M  V30 24 1 9 23
M  V30 25 1 10 24
M  V30 26 1 10 25
M  V30 27 1 15 26
M  V30 28 1 15 27
M  V30 29 1 16 28
M  V30 30 1 19 29
M  V30 31 1 19 30
M  V30 END BOND
M  V30 END CTAB
M  END
