
     RDKit          3D

  0  0  0  0  0  0  0  0  0  0999 V3000
M  V30 BEGIN CTAB
M  V30 COUNTS 55 59 0 0 0
M  V30 BEGIN ATOM
M  V30 1 C 6.13835 1.95168 1.98943 0
M  V30 2 C 5.78341 1.06283 0.849947 0
M  V30 3 C 5.02202 -0.0571286 1.10915 0
M  V30 4 C 4.66148 -0.921799 0.082808 0
M  V30 5 C 5.09299 -0.609474 -1.17227 0
M  V30 6 C 5.85802 0.509368 -1.45488 0
M  V30 7 C 6.21301 1.36676 -0.423516 0
M  V30 8 S 4.65487 -1.67915 -2.49252 0
M  V30 9 O 5.75582 -1.61896 -3.49066 0
M  V30 10 O 4.56528 -3.09233 -2.00742 0
M  V30 11 N 3.1799 -1.12843 -3.15337 0
M  V30 12 C 1.97265 -1.06764 -2.39553 0
M  V30 13 C 1.16767 0.0511735 -2.45582 0
M  V30 14 C -0.00748716 0.158171 -1.74236 0
M  V30 15 C -0.428559 -0.867364 -0.928085 0
M  V30 16 C 0.368227 -1.98691 -0.862066 0
M  V30 17 C 1.54484 -2.09165 -1.57767 0
M  V30 18 C -1.68292 -0.771261 -0.157012 0
M  V30 19 N -2.09198 -1.77001 0.635265 0
M  V30 20 C -3.24136 -1.7098 1.35593 0
M  V30 21 C -4.05356 -0.573728 1.29108 0
M  V30 22 C -5.22687 -0.485291 2.00445 0
M  V30 23 C -5.59146 -1.56625 2.8038 0
M  V30 24 C -4.80981 -2.69781 2.88715 0
M  V30 25 C -3.64318 -2.74384 2.15514 0
M  V30 26 C -3.62343 0.438348 0.478912 0
M  V30 27 N -2.45523 0.31707 -0.2226 0
M  V30 28 C -4.41228 1.6945 0.367689 0
M  V30 29 C -3.35348 2.78358 0.410114 0
M  V30 30 N -2.46798 3.09518 1.46894 0
M  V30 31 N -3.38149 3.41016 -0.710263 0
M  V30 32 N -4.36074 2.86515 -1.53889 0
M  V30 33 C -4.97439 1.88772 -0.97221 0
M  V30 34 N -6.02553 1.17263 -1.63956 0
M  V30 35 H 6.36158 1.31325 2.86971 0
M  V30 36 H 6.9878 2.57647 1.68838 0
M  V30 37 H 5.25087 2.56309 2.25605 0
M  V30 38 H 4.69216 -0.2841 2.10894 0
M  V30 39 H 4.0751 -1.79002 0.26664 0
M  V30 40 H 6.20003 0.758507 -2.4441 0
M  V30 41 H 6.81087 2.23911 -0.651277 0
M  V30 42 H 3.18139 -0.822607 -4.17315 0
M  V30 43 H 1.50499 0.869235 -3.1063 0
M  V30 44 H -0.625479 1.04863 -1.8052 0
M  V30 45 H 0.0178023 -2.79629 -0.207564 0
M  V30 46 H 2.16078 -2.9857 -1.51229 0
M  V30 47 H -5.88291 0.392262 1.96255 0
M  V30 48 H -6.52014 -1.46665 3.35338 0
M  V30 49 H -5.10542 -3.52582 3.51034 0
M  V30 50 H -2.99997 -3.62278 2.19632 0
M  V30 51 H -5.09803 1.89537 1.18313 0
M  V30 52 H -1.42859 3.08311 1.40453 0
M  V30 53 H -2.88388 3.35823 2.38816 0
M  V30 54 H -5.88197 0.637014 -2.50142 0
M  V30 55 H -6.9638 1.23417 -1.18209 0
M  V30 END ATOM
M  V30 BEGIN BOND
M  V30 1 1 1 2
M  V30 2 2 2 3
M  V30 3 1 3 4
M  V30 4 2 4 5
M  V30 5 1 5 6
M  V30 6 2 6 7
M  V30 7 1 5 8
M  V30 8 2 8 9
M  V30 9 2 8 10
M  V30 10 1 8 11
M  V30 11 1 11 12
M  V30 12 2 12 13
M  V30 13 1 13 14
M  V30 14 2 14 15
M  V30 15 1 15 16
M  V30 16 2 16 17
M  V30 17 1 15 18
M  V30 18 2 18 19
M  V30 19 1 19 20
M  V30 20 2 20 21
M  V30 21 1 21 22
M  V30 22 2 22 23
M  V30 23 1 23 24
M  V30 24 2 24 25
M  V30 25 1 21 26
M  V30 26 2 26 27
M  V30 27 1 26 28
M  V30 28 1 28 29
M  V30 29 1 29 30
M  V30 30 2 29 31
M  V30 31 1 31 32
M  V30 32 2 32 33
M  V30 33 1 33 34
M  V30 34 1 7 2
M  V30 35 1 17 12
M  V30 36 1 27 18
M  V30 37 1 33 28
M  V30 38 1 25 20
M  V30 39 1 1 35
M  V30 40 1 1 36
M  V30 41 1 1 37
M  V30 42 1 3 38
M  V30 43 1 4 39
M  V30 44 1 6 40
M  V30 45 1 7 41
M  V30 46 1 11 42
M  V30 47 1 13 43
M  V30 48 1 14 44
M  V30 49 1 16 45
M  V30 50 1 17 46
M  V30 51 1 22 47
M  V30 52 1 23 48
M  V30 53 1 24 49
M  V30 54 1 25 50
M  V30 55 1 28 51
M  V30 56 1 30 52
M  V30 57 1 30 53
M  V30 58 1 34 54
M  V30 59 1 34 55
M  V30 END BOND
M  V30 END CTAB
M  END
