
     RDKit          3D

  0  0  0  0  0  0  0  0  0  0999 V3000
M  V30 BEGIN CTAB
M  V30 COUNTS 25 26 0 0 0
M  V30 BEGIN ATOM
M  V30 1 C 4.24364 0.393318 -0.484064 0
M  V30 2 C 3.48246 -0.755727 0.118332 0
M  V30 3 N 2.04968 -0.65957 -0.128541 0
M  V30 4 C 1.36214 -1.15802 -1.17148 0
M  V30 5 N 0.0411434 -0.85433 -1.03408 0
M  V30 6 C -0.115083 -0.157114 0.104743 0
M  V30 7 C 1.14704 -0.0485557 0.650298 0
M  V30 8 C -1.38122 0.370496 0.63795 0
M  V30 9 N -1.51938 1.064 1.77565 0
M  V30 10 N -2.80125 1.34941 1.89316 0
M  V30 11 C -3.48076 0.846462 0.844866 0
M  V30 12 N -2.56958 0.23702 0.0711626 0
M  V30 13 N -2.89829 -0.421983 -1.1416 0
M  V30 14 N -4.88986 0.937698 0.596315 0
M  V30 15 H 5.22893 0.444369 0.0650733 0
M  V30 16 H 3.73266 1.3623 -0.374151 0
M  V30 17 H 4.54091 0.184299 -1.5526 0
M  V30 18 H 3.70552 -0.786901 1.1986 0
M  V30 19 H 3.89168 -1.69419 -0.359633 0
M  V30 20 H 1.74806 -1.7076 -1.99393 0
M  V30 21 H 1.36749 0.459747 1.57627 0
M  V30 22 H -2.62571 -1.41248 -1.28611 0
M  V30 23 H -3.41382 0.0972085 -1.8817 0
M  V30 24 H -5.31348 1.43148 -0.213495 0
M  V30 25 H -5.53291 0.478661 1.27209 0
M  V30 END ATOM
M  V30 BEGIN BOND
M  V30 1 1 1 2
M  V30 2 1 2 3
M  V30 3 1 3 4
M  V30 4 2 4 5
M  V30 5 1 5 6
M  V30 6 2 6 7
M  V30 7 1 6 8
M  V30 8 2 8 9
M  V30 9 1 9 10
M  V30 10 2 10 11
M  V30 11 1 11 12
M  V30 12 1 12 13
M  V30 13 1 11 14
M  V30 14 1 7 3
M  V30 15 1 12 8
M  V30 16 1 1 15
M  V30 17 1 1 16
M  V30 18 1 1 17
M  V30 19 1 2 18
M  V30 20 1 2 19
M  V30 21 1 4 20
M  V30 22 1 7 21
M  V30 23 1 13 22
M  V30 24 1 13 23
M  V30 25 1 14 24
M  V30 26 1 14 25
M  V30 END BOND
M  V30 END CTAB
M  END
