
     RDKit          3D

  0  0  0  0  0  0  0  0  0  0999 V3000
M  V30 BEGIN CTAB
M  V30 COUNTS 23 24 0 0 0
M  V30 BEGIN ATOM
M  V30 1 N -3.03838 2.09313 -1.43976 0
M  V30 2 C -2.22421 1.17766 -0.732398 0
M  V30 3 N -2.74555 0.301813 0.133151 0
M  V30 4 C -1.94376 -0.546623 0.78185 0
M  V30 5 N -2.50734 -1.4774 1.70305 0
M  V30 6 N -0.612293 -0.569652 0.609277 0
M  V30 7 C -0.0704513 0.304084 -0.257347 0
M  V30 8 N -0.879443 1.15056 -0.903223 0
M  V30 9 C 1.38727 0.367825 -0.526598 0
M  V30 10 C 1.87028 1.2842 -1.42231 0
M  V30 11 S 3.55125 1.01101 -1.42017 0
M  V30 12 C 3.61381 -0.255378 -0.288321 0
M  V30 13 C 2.3016 -0.431067 0.0604248 0
M  V30 14 C 1.92817 -1.49887 1.07636 0
M  V30 15 H -2.96468 3.13106 -1.36283 0
M  V30 16 H -3.76429 1.70259 -2.08433 0
M  V30 17 H -3.29814 -2.07862 1.44322 0
M  V30 18 H -2.08707 -1.52797 2.65632 0
M  V30 19 H 1.36804 2.03952 -2.02993 0
M  V30 20 H 4.49208 -0.806913 0.0811457 0
M  V30 21 H 2.82992 -2.04984 1.41722 0
M  V30 22 H 1.48017 -1.07873 1.97511 0
M  V30 23 H 1.313 -2.24237 0.53008 0
M  V30 END ATOM
M  V30 BEGIN BOND
M  V30 1 1 1 2
M  V30 2 2 2 3
M  V30 3 1 3 4
M  V30 4 1 4 5
M  V30 5 2 4 6
M  V30 6 1 6 7
M  V30 7 2 7 8
M  V30 8 1 7 9
M  V30 9 2 9 10
M  V30 10 1 10 11
M  V30 11 1 11 12
M  V30 12 2 12 13
M  V30 13 1 13 14
M  V30 14 1 8 2
M  V30 15 1 13 9
M  V30 16 1 1 15
M  V30 17 1 1 16
M  V30 18 1 5 17
M  V30 19 1 5 18
M  V30 20 1 10 19
M  V30 21 1 12 20
M  V30 22 1 14 21
M  V30 23 1 14 22
M  V30 24 1 14 23
M  V30 END BOND
M  V30 END CTAB
M  END
