
     RDKit          3D

  0  0  0  0  0  0  0  0  0  0999 V3000
M  V30 BEGIN CTAB
M  V30 COUNTS 45 46 0 0 0
M  V30 BEGIN ATOM
M  V30 1 C -5.06736 -0.00794845 0.443928 0
M  V30 2 C -4.20228 -1.23754 0.623496 0
M  V30 3 C -2.80867 -1.01713 0.0895977 0
M  V30 4 C -2.11212 0.126716 0.794123 0
M  V30 5 C -0.627426 -0.0106679 0.442512 0
M  V30 6 N -0.481005 0.0496341 -0.99266 0
M  V30 7 C -1.32766 -0.747807 -1.84075 0
M  V30 8 C -2.76872 -0.750566 -1.37451 0
M  V30 9 C 0.48718 0.884851 -1.56588 0
M  V30 10 O 0.588498 0.948136 -2.81357 0
M  V30 11 C 1.3815 1.68727 -0.741347 0
M  V30 12 C 2.4824 0.893086 -0.087031 0
M  V30 13 C 3.39844 1.54848 0.709797 0
M  V30 14 C 4.44098 0.883851 1.32105 0
M  V30 15 C 4.61869 -0.474751 1.16428 0
M  V30 16 C 3.70802 -1.13536 0.369854 0
M  V30 17 C 2.64812 -0.458791 -0.251782 0
M  V30 18 C 5.75106 -1.16954 1.83428 0
M  V30 19 N 2.02317 2.75032 -1.54184 0
M  V30 20 N -4.86872 -2.34997 0.0335445 0
M  V30 21 H -6.1378 -0.358013 0.401347 0
M  V30 22 H -4.85171 0.538402 -0.473801 0
M  V30 23 H -5.01888 0.628643 1.35799 0
M  V30 24 H -4.14244 -1.41711 1.7186 0
M  V30 25 H -2.204 -1.92412 0.290633 0
M  V30 26 H -2.22335 0.0583904 1.89752 0
M  V30 27 H -2.48107 1.07119 0.371154 0
M  V30 28 H -0.362931 -1.0551 0.741358 0
M  V30 29 H -0.00520911 0.679637 1.00517 0
M  V30 30 H -1.23022 -0.3702 -2.87759 0
M  V30 31 H -0.943076 -1.79231 -1.86338 0
M  V30 32 H -3.15068 0.29065 -1.57233 0
M  V30 33 H -3.35612 -1.51199 -1.9037 0
M  V30 34 H 0.87416 2.25009 0.077785 0
M  V30 35 H 3.28819 2.62577 0.856758 0
M  V30 36 H 5.16361 1.42114 1.95387 0
M  V30 37 H 3.82086 -2.1984 0.228315 0
M  V30 38 H 1.95499 -1.0007 -0.881411 0
M  V30 39 H 5.52154 -2.2112 2.0782 0
M  V30 40 H 6.65664 -1.14369 1.17416 0
M  V30 41 H 6.01643 -0.551141 2.72365 0
M  V30 42 H 2.46915 3.38641 -0.844608 0
M  V30 43 H 2.82325 2.27231 -2.04 0
M  V30 44 H -5.53682 -2.1111 -0.724294 0
M  V30 45 H -4.20861 -3.05617 -0.312513 0
M  V30 END ATOM
M  V30 BEGIN BOND
M  V30 1 1 1 2
M  V30 2 1 2 3
M  V30 3 1 3 4
M  V30 4 1 4 5
M  V30 5 1 5 6
M  V30 6 1 6 7
M  V30 7 1 7 8
M  V30 8 1 6 9
M  V30 9 2 9 10
M  V30 10 1 9 11
M  V30 11 1 11 12
M  V30 12 2 12 13
M  V30 13 1 13 14
M  V30 14 2 14 15
M  V30 15 1 15 16
M  V30 16 2 16 17
M  V30 17 1 15 18
M  V30 18 1 11 19
M  V30 19 1 2 20
M  V30 20 1 8 3
M  V30 21 1 17 12
M  V30 22 1 1 21
M  V30 23 1 1 22
M  V30 24 1 1 23
M  V30 25 1 2 24
M  V30 26 1 3 25
M  V30 27 1 4 26
M  V30 28 1 4 27
M  V30 29 1 5 28
M  V30 30 1 5 29
M  V30 31 1 7 30
M  V30 32 1 7 31
M  V30 33 1 8 32
M  V30 34 1 8 33
M  V30 35 1 11 34
M  V30 36 1 13 35
M  V30 37 1 14 36
M  V30 38 1 16 37
M  V30 39 1 17 38
M  V30 40 1 18 39
M  V30 41 1 18 40
M  V30 42 1 18 41
M  V30 43 1 19 42
M  V30 44 1 19 43
M  V30 45 1 20 44
M  V30 46 1 20 45
M  V30 END BOND
M  V30 END CTAB
M  END
