
     RDKit          3D

  0  0  0  0  0  0  0  0  0  0999 V3000
M  V30 BEGIN CTAB
M  V30 COUNTS 27 29 0 0 0
M  V30 BEGIN ATOM
M  V30 1 N 3.60069 2.3951 0.677841 0
M  V30 2 C 2.85131 1.24502 0.316517 0
M  V30 3 C 3.45993 0.0793422 -0.098647 0
M  V30 4 C 2.7223 -1.0325 -0.447479 0
M  V30 5 C 1.32321 -1.03555 -0.398459 0
M  V30 6 C 0.323615 -2.06295 -0.709406 0
M  V30 7 C -0.969448 -1.39047 -0.436187 0
M  V30 8 C -0.727225 -0.124868 -0.017747 0
M  V30 9 C -1.76047 0.731066 0.308117 0
M  V30 10 C -3.05437 0.283443 0.203391 0
M  V30 11 N -4.09991 1.1822 0.544187 0
M  V30 12 C -3.35953 -1.01184 -0.222814 0
M  V30 13 C -2.29725 -1.82013 -0.533639 0
M  V30 14 C 0.726376 0.12943 0.0160478 0
M  V30 15 C 1.45991 1.23198 0.361894 0
M  V30 16 H 4.39994 2.7933 0.146856 0
M  V30 17 H 3.3244 2.88378 1.5542 0
M  V30 18 H 4.55151 0.0140225 -0.159738 0
M  V30 19 H 3.18681 -1.96298 -0.778116 0
M  V30 20 H 0.369701 -2.95468 -0.0578545 0
M  V30 21 H 0.386482 -2.35949 -1.77674 0
M  V30 22 H -1.57221 1.7518 0.645853 0
M  V30 23 H -3.93029 1.98347 1.16996 0
M  V30 24 H -5.03927 1.01396 0.148754 0
M  V30 25 H -4.38538 -1.28427 -0.278017 0
M  V30 26 H -2.49504 -2.84049 -0.870922 0
M  V30 27 H 1.00421 2.1623 0.692155 0
M  V30 END ATOM
M  V30 BEGIN BOND
M  V30 1 1 1 2
M  V30 2 2 2 3
M  V30 3 1 3 4
M  V30 4 2 4 5
M  V30 5 1 5 6
M  V30 6 1 6 7
M  V30 7 2 7 8
M  V30 8 1 8 9
M  V30 9 2 9 10
M  V30 10 1 10 11
M  V30 11 1 10 12
M  V30 12 2 12 13
M  V30 13 1 8 14
M  V30 14 2 14 15
M  V30 15 1 15 2
M  V30 16 1 14 5
M  V30 17 1 13 7
M  V30 18 1 1 16
M  V30 19 1 1 17
M  V30 20 1 3 18
M  V30 21 1 4 19
M  V30 22 1 6 20
M  V30 23 1 6 21
M  V30 24 1 9 22
M  V30 25 1 11 23
M  V30 26 1 11 24
M  V30 27 1 12 25
M  V30 28 1 13 26
M  V30 29 1 15 27
M  V30 END BOND
M  V30 END CTAB
M  END
