
     RDKit          3D

  0  0  0  0  0  0  0  0  0  0999 V3000
M  V30 BEGIN CTAB
M  V30 COUNTS 38 42 0 0 0
M  V30 BEGIN ATOM
M  V30 1 C -0.632144 -2.21944 0.0169044 0 CFG=1
M  V30 2 C 0.0812098 -1.88786 -1.2647 0
M  V30 3 C 0.441787 -0.439056 -1.26966 0 CFG=1
M  V30 4 C -0.773289 0.45632 -1.10612 0 CFG=2
M  V30 5 C -0.283069 1.88091 -1.16653 0
M  V30 6 C 0.569487 2.17076 0.0506491 0 CFG=1
M  V30 7 C -0.115607 1.81639 1.33745 0
M  V30 8 C -0.471826 0.351338 1.34458 0 CFG=2
M  V30 9 C 0.730805 -0.51653 1.14813 0 CFG=1
M  V30 10 C 0.289252 -1.95742 1.16674 0
M  V30 11 C 1.40222 -0.147901 -0.153025 0 CFG=1
M  V30 12 N 2.59612 -0.936848 -0.361826 0
M  V30 13 C 1.80913 1.29284 -0.072951 0
M  V30 14 C -1.42814 0.111927 0.199253 0 CFG=1
M  V30 15 N -2.61179 0.893563 0.450823 0
M  V30 16 C -1.84855 -1.34039 0.132013 0
M  V30 17 H -0.925013 -3.24827 0.00408489 0
M  V30 18 H -0.617798 -2.07653 -2.11825 0
M  V30 19 H 0.997779 -2.48323 -1.32641 0
M  V30 20 H 0.88536 -0.193188 -2.24798 0
M  V30 21 H -1.522 0.285307 -1.90697 0
M  V30 22 H -1.06243 2.61732 -1.34573 0
M  V30 23 H 0.427258 1.9226 -2.04491 0
M  V30 24 H 0.832733 3.23411 0.0866365 0
M  V30 25 H 0.566491 2.04304 2.1614 0
M  V30 26 H -1.02063 2.42782 1.43438 0
M  V30 27 H -0.944366 0.118296 2.31172 0
M  V30 28 H 1.4623 -0.342352 1.95252 0
M  V30 29 H 1.19317 -2.60841 1.11343 0
M  V30 30 H -0.197663 -2.13791 2.1494 0
M  V30 31 H 2.96363 -0.713131 -1.30882 0
M  V30 32 H 3.2982 -0.622665 0.357009 0
M  V30 33 H 2.39466 1.6151 -0.947492 0
M  V30 34 H 2.4014 1.43515 0.843463 0
M  V30 35 H -3.48978 0.433365 0.152474 0
M  V30 36 H -2.54536 1.83527 0.031743 0
M  V30 37 H -2.43671 -1.61591 1.02018 0
M  V30 38 H -2.41682 -1.45438 -0.823589 0
M  V30 END ATOM
M  V30 BEGIN BOND
M  V30 1 1 1 2
M  V30 2 1 2 3
M  V30 3 1 3 4
M  V30 4 1 4 5
M  V30 5 1 5 6
M  V30 6 1 6 7
M  V30 7 1 7 8
M  V30 8 1 8 9
M  V30 9 1 9 10
M  V30 10 1 9 11
M  V30 11 1 11 12 CFG=3
M  V30 12 1 11 13
M  V30 13 1 8 14
M  V30 14 1 14 15 CFG=1
M  V30 15 1 14 16
M  V30 16 1 10 1
M  V30 17 1 16 1
M  V30 18 1 11 3
M  V30 19 1 14 4
M  V30 20 1 13 6
M  V30 21 1 1 17 CFG=3
M  V30 22 1 2 18
M  V30 23 1 2 19
M  V30 24 1 3 20 CFG=3
M  V30 25 1 4 21 CFG=3
M  V30 26 1 5 22
M  V30 27 1 5 23
M  V30 28 1 6 24 CFG=1
M  V30 29 1 7 25
M  V30 30 1 7 26
M  V30 31 1 8 27 CFG=1
M  V30 32 1 9 28 CFG=1
M  V30 33 1 10 29
M  V30 34 1 10 30
M  V30 35 1 12 31
M  V30 36 1 12 32
M  V30 37 1 13 33
M  V30 38 1 13 34
M  V30 39 1 15 35
M  V30 40 1 15 36
M  V30 41 1 16 37
M  V30 42 1 16 38
M  V30 END BOND
M  V30 END CTAB
M  END
