
     RDKit          3D

  0  0  0  0  0  0  0  0  0  0999 V3000
M  V30 BEGIN CTAB
M  V30 COUNTS 40 41 0 0 0
M  V30 BEGIN ATOM
M  V30 1 N -3.6956 -0.707161 -1.11095 0
M  V30 2 C -2.5645 -1.39855 -0.565326 0
M  V30 3 C -1.85482 -0.531988 0.459312 0
M  V30 4 C -1.34673 0.743548 -0.0776346 0
M  V30 5 C -2.08333 1.89383 0.517337 0
M  V30 6 C -3.34346 1.28524 1.09977 0
M  V30 7 C -2.96161 -0.128607 1.45031 0
M  V30 8 N -0.898945 -1.24648 1.22563 0
M  V30 9 S 0.309596 -2.10131 0.441635 0
M  V30 10 O 1.13292 -2.81367 1.51417 0
M  V30 11 O -0.192778 -3.22035 -0.434765 0
M  V30 12 C 1.39292 -1.15419 -0.540911 0
M  V30 13 C 1.1704 -0.9612 -1.88619 0
M  V30 14 C 2.07254 -0.206165 -2.59505 0
M  V30 15 C 3.18413 0.35834 -2.00206 0
M  V30 16 C 3.41496 0.171635 -0.660642 0
M  V30 17 C 2.51684 -0.584034 0.0610826 0
M  V30 18 S 4.81765 0.873102 0.130572 0
M  V30 19 O 5.93283 0.952083 -0.882691 0
M  V30 20 O 5.18788 -0.029224 1.27426 0
M  V30 21 N 4.44135 2.445 0.732554 0
M  V30 22 H -3.67613 -0.637994 -2.1444 0
M  V30 23 H -4.61034 -1.021 -0.73237 0
M  V30 24 H -2.90088 -2.31235 -0.0280818 0
M  V30 25 H -1.90327 -1.70623 -1.39051 0
M  V30 26 H -1.31222 0.792327 -1.18976 0
M  V30 27 H -0.264164 0.847203 0.2353 0
M  V30 28 H -2.3589 2.6695 -0.251858 0
M  V30 29 H -1.54284 2.40237 1.32734 0
M  V30 30 H -4.18959 1.34909 0.385301 0
M  V30 31 H -3.66725 1.83822 2.0166 0
M  V30 32 H -3.83528 -0.801615 1.38597 0
M  V30 33 H -2.55475 -0.10333 2.4912 0
M  V30 34 H -1.17254 -1.54625 2.16276 0
M  V30 35 H 0.304763 -1.39204 -2.3831 0
M  V30 36 H 1.9277 -0.0355668 -3.65094 0
M  V30 37 H 3.90841 0.957321 -2.54235 0
M  V30 38 H 2.69677 -0.729959 1.10835 0
M  V30 39 H 5.08391 3.13509 0.276313 0
M  V30 40 H 3.43437 2.65538 0.499426 0
M  V30 END ATOM
M  V30 BEGIN BOND
M  V30 1 1 1 2
M  V30 2 1 2 3
M  V30 3 1 3 4
M  V30 4 1 4 5
M  V30 5 1 5 6
M  V30 6 1 6 7
M  V30 7 1 3 8
M  V30 8 1 8 9
M  V30 9 2 9 10
M  V30 10 2 9 11
M  V30 11 1 9 12
M  V30 12 2 12 13
M  V30 13 1 13 14
M  V30 14 2 14 15
M  V30 15 1 15 16
M  V30 16 2 16 17
M  V30 17 1 16 18
M  V30 18 2 18 19
M  V30 19 2 18 20
M  V30 20 1 18 21
M  V30 21 1 7 3
M  V30 22 1 17 12
M  V30 23 1 1 22
M  V30 24 1 1 23
M  V30 25 1 2 24
M  V30 26 1 2 25
M  V30 27 1 4 26
M  V30 28 1 4 27
M  V30 29 1 5 28
M  V30 30 1 5 29
M  V30 31 1 6 30
M  V30 32 1 6 31
M  V30 33 1 7 32
M  V30 34 1 7 33
M  V30 35 1 8 34
M  V30 36 1 13 35
M  V30 37 1 14 36
M  V30 38 1 15 37
M  V30 39 1 17 38
M  V30 40 1 21 39
M  V30 41 1 21 40
M  V30 END BOND
M  V30 END CTAB
M  END
