
     RDKit          3D

  0  0  0  0  0  0  0  0  0  0999 V3000
M  V30 BEGIN CTAB
M  V30 COUNTS 16 16 0 0 0
M  V30 BEGIN ATOM
M  V30 1 N 2.60173 -0.314099 -0.0617365 0
M  V30 2 C 1.23504 0.0563115 -0.0530785 0
M  V30 3 C 0.259402 -0.918485 0.0882991 0
M  V30 4 C -1.08083 -0.586884 0.100251 0
M  V30 5 N -2.1 -1.57233 0.244353 0
M  V30 6 C -1.39221 0.751138 -0.0345311 0
M  V30 7 C -0.425352 1.72342 -0.175318 0
M  V30 8 C 0.912618 1.38553 -0.186508 0
M  V30 9 F -0.735843 3.0477 -0.308642 0
M  V30 10 F -2.70339 1.09708 -0.0251856 0
M  V30 11 H 3.19112 -0.0824814 0.744437 0
M  V30 12 H 3.04475 -0.818479 -0.859893 0
M  V30 13 H 0.501606 -1.97047 0.194368 0
M  V30 14 H -2.64514 -1.6804 1.14172 0
M  V30 15 H -2.36869 -2.23858 -0.513338 0
M  V30 16 H 1.70519 2.12102 -0.295201 0
M  V30 END ATOM
M  V30 BEGIN BOND
M  V30 1 1 1 2
M  V30 2 2 2 3
M  V30 3 1 3 4
M  V30 4 1 4 5
M  V30 5 2 4 6
M  V30 6 1 6 7
M  V30 7 2 7 8
M  V30 8 1 7 9
M  V30 9 1 6 10
M  V30 10 1 8 2
M  V30 11 1 1 11
M  V30 12 1 1 12
M  V30 13 1 3 13
M  V30 14 1 5 14
M  V30 15 1 5 15
M  V30 16 1 8 16
M  V30 END BOND
M  V30 END CTAB
M  END
