
     RDKit          3D

  0  0  0  0  0  0  0  0  0  0999 V3000
M  V30 BEGIN CTAB
M  V30 COUNTS 53 54 0 0 0
M  V30 BEGIN ATOM
M  V30 1 C -5.6778 0.431862 1.86536 0
M  V30 2 C -4.2979 -0.0777839 1.98218 0
M  V30 3 C -3.51983 -0.00468137 0.588022 0
M  V30 4 C -2.20787 -0.565323 0.957513 0
M  V30 5 O -2.13445 -0.975132 2.22389 0
M  V30 6 N -1.01506 -0.771831 0.288843 0
M  V30 7 C 0.0608246 -1.41298 1.10748 0
M  V30 8 C 1.11248 -1.95226 0.172864 0
M  V30 9 N 1.63381 -0.848607 -0.59708 0
M  V30 10 C 0.699175 -0.0628888 -1.35808 0
M  V30 11 C -0.721644 -0.455987 -1.05616 0
M  V30 12 C 3.02296 -0.517038 -0.625126 0
M  V30 13 C 3.40799 0.535121 -1.4238 0
M  V30 14 C 4.71634 0.932481 -1.51859 0
M  V30 15 C 5.691 0.276198 -0.804245 0
M  V30 16 C 5.31486 -0.776177 -0.004009 0
M  V30 17 C 3.97888 -1.1834 0.0938979 0
M  V30 18 S 7.37936 0.781143 -0.920634 0
M  V30 19 O 8.23988 -0.421429 -0.687975 0
M  V30 20 O 7.65288 1.34081 -2.29829 0
M  V30 21 N 7.65319 1.9584 0.281876 0
M  V30 22 C -3.39659 1.43384 0.239145 0
M  V30 23 N -2.64463 2.1887 1.22516 0
M  V30 24 C -4.38432 -0.820338 -0.284162 0
M  V30 25 C -4.04209 -1.00536 -1.70793 0
M  V30 26 H -6.43611 -0.416103 1.87514 0
M  V30 27 H -5.94845 1.02844 0.999875 0
M  V30 28 H -5.92629 1.08483 2.7612 0
M  V30 29 H -3.66088 0.376383 2.74003 0
M  V30 30 H -4.32157 -1.17313 2.1638 0
M  V30 31 H 0.496702 -0.604301 1.70143 0
M  V30 32 H -0.34125 -2.19502 1.7559 0
M  V30 33 H 0.616918 -2.63331 -0.582904 0
M  V30 34 H 1.85298 -2.50201 0.758462 0
M  V30 35 H 0.823159 1.0129 -1.12272 0
M  V30 36 H 0.94231 -0.256322 -2.44425 0
M  V30 37 H -0.932859 -1.33527 -1.75351 0
M  V30 38 H -1.33789 0.354834 -1.47243 0
M  V30 39 H 2.66003 1.09102 -2.01391 0
M  V30 40 H 5.0086 1.75801 -2.14731 0
M  V30 41 H 6.08002 -1.31519 0.576594 0
M  V30 42 H 3.74062 -2.01848 0.740722 0
M  V30 43 H 8.06975 1.4771 1.12738 0
M  V30 44 H 6.77789 2.40202 0.618387 0
M  V30 45 H -2.93537 1.58434 -0.732171 0
M  V30 46 H -4.41949 1.94376 0.210539 0
M  V30 47 H -3.193 2.42795 2.06089 0
M  V30 48 H -2.25427 3.07797 0.855414 0
M  V30 49 H -5.4529 -0.434189 -0.268375 0
M  V30 50 H -4.51542 -1.82884 0.239214 0
M  V30 51 H -3.58257 -0.134824 -2.19784 0
M  V30 52 H -4.96048 -1.28053 -2.32505 0
M  V30 53 H -3.37162 -1.87405 -1.86464 0
M  V30 END ATOM
M  V30 BEGIN BOND
M  V30 1 1 1 2
M  V30 2 1 2 3
M  V30 3 1 3 4
M  V30 4 2 4 5
M  V30 5 1 4 6
M  V30 6 1 6 7
M  V30 7 1 7 8
M  V30 8 1 8 9
M  V30 9 1 9 10
M  V30 10 1 10 11
M  V30 11 1 9 12
M  V30 12 2 12 13
M  V30 13 1 13 14
M  V30 14 2 14 15
M  V30 15 1 15 16
M  V30 16 2 16 17
M  V30 17 1 15 18
M  V30 18 2 18 19
M  V30 19 2 18 20
M  V30 20 1 18 21
M  V30 21 1 3 22
M  V30 22 1 22 23
M  V30 23 1 3 24
M  V30 24 1 24 25
M  V30 25 1 11 6
M  V30 26 1 17 12
M  V30 27 1 1 26
M  V30 28 1 1 27
M  V30 29 1 1 28
M  V30 30 1 2 29
M  V30 31 1 2 30
M  V30 32 1 7 31
M  V30 33 1 7 32
M  V30 34 1 8 33
M  V30 35 1 8 34
M  V30 36 1 10 35
M  V30 37 1 10 36
M  V30 38 1 11 37
M  V30 39 1 11 38
M  V30 40 1 13 39
M  V30 41 1 14 40
M  V30 42 1 16 41
M  V30 43 1 17 42
M  V30 44 1 21 43
M  V30 45 1 21 44
M  V30 46 1 22 45
M  V30 47 1 22 46
M  V30 48 1 23 47
M  V30 49 1 23 48
M  V30 50 1 24 49
M  V30 51 1 24 50
M  V30 52 1 25 51
M  V30 53 1 25 52
M  V30 54 1 25 53
M  V30 END BOND
M  V30 END CTAB
M  END
