
     RDKit          3D

  0  0  0  0  0  0  0  0  0  0999 V3000
M  V30 BEGIN CTAB
M  V30 COUNTS 21 21 0 0 0
M  V30 BEGIN ATOM
M  V30 1 C -1.66634 -1.08339 -0.652418 0
M  V30 2 C -1.8112 0.393725 -0.391521 0
M  V30 3 C -0.828529 0.872388 0.667197 0
M  V30 4 C 0.573446 0.626966 0.244867 0
M  V30 5 N 1.4106 1.40328 -0.439826 0
M  V30 6 N 2.57101 0.786915 -0.595772 0
M  V30 7 C 2.49092 -0.415907 -0.00138982 0
M  V30 8 N 1.25421 -0.5005 0.512295 0
M  V30 9 N 3.53601 -1.40194 0.0601263 0
M  V30 10 N -3.15203 0.608667 0.121753 0
M  V30 11 H -0.731171 -1.3394 -1.18172 0
M  V30 12 H -2.55849 -1.40484 -1.2225 0
M  V30 13 H -1.71731 -1.59957 0.324642 0
M  V30 14 H -1.72121 1.00092 -1.3143 0
M  V30 15 H -0.937339 1.95902 0.809029 0
M  V30 16 H -1.06336 0.369356 1.60438 0
M  V30 17 H 3.42427 1.15711 -1.09631 0
M  V30 18 H 3.52327 -2.29295 -0.478215 0
M  V30 19 H 4.36061 -1.23167 0.673174 0
M  V30 20 H -3.79932 0.598475 -0.687752 0
M  V30 21 H -3.15805 1.49332 0.664102 0
M  V30 END ATOM
M  V30 BEGIN BOND
M  V30 1 1 1 2
M  V30 2 1 2 3
M  V30 3 1 3 4
M  V30 4 2 4 5
M  V30 5 1 5 6
M  V30 6 1 6 7
M  V30 7 2 7 8
M  V30 8 1 7 9
M  V30 9 1 2 10
M  V30 10 1 8 4
M  V30 11 1 1 11
M  V30 12 1 1 12
M  V30 13 1 1 13
M  V30 14 1 2 14
M  V30 15 1 3 15
M  V30 16 1 3 16
M  V30 17 1 6 17
M  V30 18 1 9 18
M  V30 19 1 9 19
M  V30 20 1 10 20
M  V30 21 1 10 21
M  V30 END BOND
M  V30 END CTAB
M  END
