
     RDKit          3D

  0  0  0  0  0  0  0  0  0  0999 V3000
M  V30 BEGIN CTAB
M  V30 COUNTS 21 22 0 0 0
M  V30 BEGIN ATOM
M  V30 1 N -4.17257 -0.651798 -0.389837 0
M  V30 2 C -2.81803 -0.279212 -0.258134 0
M  V30 3 C -2.51749 1.05749 -0.139585 0
M  V30 4 C -1.23367 1.49239 -0.00894151 0
M  V30 5 C -0.14198 0.604344 0.0125455 0
M  V30 6 C -0.448126 -0.726461 -0.106018 0
M  V30 7 C -1.76802 -1.16747 -0.239896 0
M  V30 8 S 1.10325 -1.44082 -0.0364802 0
M  V30 9 C 2.03776 -0.0131891 0.137759 0
M  V30 10 N 1.11048 0.924589 0.132579 0
M  V30 11 C 3.5041 0.130592 0.261833 0
M  V30 12 N 4.01401 1.28125 0.383386 0
M  V30 13 N 4.30364 -1.03048 0.241179 0
M  V30 14 H -4.41601 -1.53731 -0.885243 0
M  V30 15 H -4.9215 -0.0489003 0.00352427 0
M  V30 16 H -3.33234 1.81111 -0.149159 0
M  V30 17 H -1.07357 2.57807 0.080822 0
M  V30 18 H -1.91574 -2.22768 -0.326879 0
M  V30 19 H 3.48867 2.17093 0.405987 0
M  V30 20 H 4.87047 -1.30815 1.06146 0
M  V30 21 H 4.32669 -1.61928 -0.609489 0
M  V30 END ATOM
M  V30 BEGIN BOND
M  V30 1 1 1 2
M  V30 2 2 2 3
M  V30 3 1 3 4
M  V30 4 2 4 5
M  V30 5 1 5 6
M  V30 6 2 6 7
M  V30 7 1 6 8
M  V30 8 1 8 9
M  V30 9 2 9 10
M  V30 10 1 9 11
M  V30 11 2 11 12 CFG=2
M  V30 12 1 11 13
M  V30 13 1 7 2
M  V30 14 1 10 5
M  V30 15 1 1 14
M  V30 16 1 1 15
M  V30 17 1 3 16
M  V30 18 1 4 17
M  V30 19 1 7 18
M  V30 20 1 12 19
M  V30 21 1 13 20
M  V30 22 1 13 21
M  V30 END BOND
M  V30 END CTAB
M  END
