
     RDKit          3D

  0  0  0  0  0  0  0  0  0  0999 V3000
M  V30 BEGIN CTAB
M  V30 COUNTS 41 42 0 0 0
M  V30 BEGIN ATOM
M  V30 1 C -1.36677 1.51353 -1.16695 0
M  V30 2 C -1.08813 0.0344648 -0.986325 0
M  V30 3 C 0.35829 -0.263786 -1.11214 0
M  V30 4 O 0.707936 -1.07559 -1.99847 0
M  V30 5 N 1.32737 0.33684 -0.270296 0
M  V30 6 C 2.74695 0.0987996 -0.32455 0
M  V30 7 C 3.03408 -1.33259 -0.0334269 0
M  V30 8 C 4.50748 -1.66076 0.012568 0
M  V30 9 C 5.39718 -0.495709 0.271999 0
M  V30 10 C 4.77978 0.589943 1.09379 0
M  V30 11 C 3.45001 1.04493 0.610259 0
M  V30 12 C 3.16503 0.398293 -1.71548 0
M  V30 13 N 3.50764 0.629485 -2.79609 0
M  V30 14 S -1.65412 -0.464903 0.689317 0
M  V30 15 C -3.43907 -0.291776 0.7057 0
M  V30 16 N -4.04743 0.867562 1.07124 0
M  V30 17 C -5.38409 0.988414 1.07697 0
M  V30 18 N -5.99664 2.20907 1.4638 0
M  V30 19 N -6.14965 -0.0540533 0.715012 0
M  V30 20 C -5.59142 -1.24156 0.339161 0
M  V30 21 N -4.25022 -1.30307 0.353228 0
M  V30 22 N -6.40251 -2.34337 -0.0446049 0
M  V30 23 H -2.32113 1.58846 -1.72202 0
M  V30 24 H -1.52046 1.9793 -0.171454 0
M  V30 25 H -0.520349 2.02797 -1.68432 0
M  V30 26 H -1.64646 -0.569284 -1.72876 0
M  V30 27 H 0.947134 1.01214 0.448914 0
M  V30 28 H 2.59041 -1.98541 -0.803122 0
M  V30 29 H 2.54394 -1.6496 0.925222 0
M  V30 30 H 4.63138 -2.4811 0.776059 0
M  V30 31 H 4.80719 -2.10023 -0.955506 0
M  V30 32 H 5.86373 -0.0699995 -0.662484 0
M  V30 33 H 6.28619 -0.875069 0.857102 0
M  V30 34 H 5.48326 1.4727 1.03471 0
M  V30 35 H 4.76031 0.323671 2.18321 0
M  V30 36 H 3.51602 2.03992 0.0950562 0
M  V30 37 H 2.79617 1.20317 1.50676 0
M  V30 38 H -6.06185 2.96589 0.749192 0
M  V30 39 H -6.38463 2.4045 2.40544 0
M  V30 40 H -6.03902 -3.0449 -0.716995 0
M  V30 41 H -7.34355 -2.42629 0.354384 0
M  V30 END ATOM
M  V30 BEGIN BOND
M  V30 1 1 1 2
M  V30 2 1 2 3
M  V30 3 2 3 4
M  V30 4 1 3 5
M  V30 5 1 5 6
M  V30 6 1 6 7
M  V30 7 1 7 8
M  V30 8 1 8 9
M  V30 9 1 9 10
M  V30 10 1 10 11
M  V30 11 1 6 12
M  V30 12 3 12 13
M  V30 13 1 2 14
M  V30 14 1 14 15
M  V30 15 2 15 16
M  V30 16 1 16 17
M  V30 17 1 17 18
M  V30 18 2 17 19
M  V30 19 1 19 20
M  V30 20 2 20 21
M  V30 21 1 20 22
M  V30 22 1 11 6
M  V30 23 1 21 15
M  V30 24 1 1 23
M  V30 25 1 1 24
M  V30 26 1 1 25
M  V30 27 1 2 26
M  V30 28 1 5 27
M  V30 29 1 7 28
M  V30 30 1 7 29
M  V30 31 1 8 30
M  V30 32 1 8 31
M  V30 33 1 9 32
M  V30 34 1 9 33
M  V30 35 1 10 34
M  V30 36 1 10 35
M  V30 37 1 11 36
M  V30 38 1 11 37
M  V30 39 1 18 38
M  V30 40 1 18 39
M  V30 41 1 22 40
M  V30 42 1 22 41
M  V30 END BOND
M  V30 END CTAB
M  END
