
     RDKit          3D

  0  0  0  0  0  0  0  0  0  0999 V3000
M  V30 BEGIN CTAB
M  V30 COUNTS 26 27 0 0 0
M  V30 BEGIN ATOM
M  V30 1 C -3.92819 -0.836178 1.00757 0
M  V30 2 N -2.7333 -0.257072 0.366226 0
M  V30 3 N -2.70292 0.369274 -0.786095 0
M  V30 4 C -1.44634 0.777707 -1.08639 0
M  V30 5 C -0.630075 0.382054 -0.0541458 0
M  V30 6 C -1.4823 -0.270738 0.844834 0
M  V30 7 C 0.798792 0.59278 0.118494 0
M  V30 8 N 1.52604 1.71509 0.149907 0
M  V30 9 C 2.83861 1.42656 0.340357 0
M  V30 10 N 2.92511 0.0931848 0.427955 0
M  V30 11 C 1.70158 -0.432785 0.295811 0
M  V30 12 N 1.43911 -1.82623 0.342864 0
M  V30 13 N 4.14191 -0.599509 0.628512 0
M  V30 14 C -1.07476 1.50422 -2.30558 0
M  V30 15 H -4.28084 -1.7349 0.462835 0
M  V30 16 H -4.7185 -0.0791327 0.988344 0
M  V30 17 H -3.68969 -1.04746 2.06885 0
M  V30 18 H -1.11311 -0.698967 1.76336 0
M  V30 19 H 3.66317 2.13749 0.41088 0
M  V30 20 H 1.57188 -2.37531 -0.530456 0
M  V30 21 H 1.1264 -2.26319 1.22616 0
M  V30 22 H 4.86666 -0.42267 -0.102651 0
M  V30 23 H 4.30357 -1.23683 1.4451 0
M  V30 24 H -0.121393 1.18011 -2.77111 0
M  V30 25 H -1.85908 1.29291 -3.08841 0
M  V30 26 H -1.12234 2.6096 -2.16322 0
M  V30 END ATOM
M  V30 BEGIN BOND
M  V30 1 1 1 2
M  V30 2 1 2 3
M  V30 3 2 3 4
M  V30 4 1 4 5
M  V30 5 2 5 6
M  V30 6 1 5 7
M  V30 7 1 7 8
M  V30 8 2 8 9
M  V30 9 1 9 10
M  V30 10 1 10 11
M  V30 11 1 11 12
M  V30 12 1 10 13
M  V30 13 1 4 14
M  V30 14 1 6 2
M  V30 15 2 11 7
M  V30 16 1 1 15
M  V30 17 1 1 16
M  V30 18 1 1 17
M  V30 19 1 6 18
M  V30 20 1 9 19
M  V30 21 1 12 20
M  V30 22 1 12 21
M  V30 23 1 13 22
M  V30 24 1 13 23
M  V30 25 1 14 24
M  V30 26 1 14 25
M  V30 27 1 14 26
M  V30 END BOND
M  V30 END CTAB
M  END
