
     RDKit          3D

  0  0  0  0  0  0  0  0  0  0999 V3000
M  V30 BEGIN CTAB
M  V30 COUNTS 74 79 0 0 0
M  V30 BEGIN ATOM
M  V30 1 N -6.85373 0.693816 -2.94249 0
M  V30 2 C -7.62854 -0.252541 -2.22775 0
M  V30 3 C -7.11811 -0.852067 -1.09676 0
M  V30 4 N -5.80342 -0.488836 -0.680762 0
M  V30 5 N -5.56787 0.753052 -0.570416 0
M  V30 6 C -4.31631 1.29919 -0.168561 0
M  V30 7 C -4.18396 2.21695 0.821246 0
M  V30 8 C -2.94066 2.71735 1.17095 0
M  V30 9 C -1.7587 2.30965 0.530868 0
M  V30 10 C -0.527462 2.93179 0.877081 0
M  V30 11 C 0.72557 2.72096 0.832558 0
M  V30 12 C 1.64961 1.72396 0.420081 0
M  V30 13 C 2.98859 2.07692 0.162512 0
M  V30 14 C 3.93575 1.11087 -0.16219 0
M  V30 15 C 3.59963 -0.215007 -0.241676 0
M  V30 16 C 2.31919 -0.578447 0.00339052 0
M  V30 17 C 1.37963 0.399425 0.328094 0
M  V30 18 N 4.60694 -1.18408 -0.582401 0
M  V30 19 N 5.79207 -0.909514 -0.294161 0
M  V30 20 C 6.90276 -1.74121 -0.554522 0
M  V30 21 C 6.79571 -2.87875 -1.33039 0
M  V30 22 N 5.5242 -3.18135 -1.85845 0
M  V30 23 C 7.91338 -3.67543 -1.56545 0
M  V30 24 C 9.14354 -3.3556 -1.03704 0
M  V30 25 C 9.25411 -2.2125 -0.256603 0
M  V30 26 C 10.4764 -1.87171 0.283389 0
M  V30 27 C 10.5755 -0.73327 1.0578 0
M  V30 28 C 9.47543 0.0645769 1.29832 0
M  V30 29 C 8.2458 -0.277686 0.755333 0
M  V30 30 C 8.13199 -1.4146 -0.0218864 0
M  V30 31 S 3.51798 3.73734 0.264913 0
M  V30 32 O 2.56033 4.70369 -0.737921 0
M  V30 33 O 3.53024 4.28663 1.63657 0
M  V30 34 O 4.95869 3.79579 -0.273026 0
M  V30 35 C -1.95776 1.37739 -0.466905 0
M  V30 36 C -3.1936 0.870306 -0.824429 0
M  V30 37 S -2.83556 3.90868 2.44307 0
M  V30 38 O -1.77206 3.41908 3.65488 0
M  V30 39 O -4.19753 3.98824 3.15516 0
M  V30 40 O -2.5834 5.29109 1.96116 0
M  V30 41 C -7.82408 -1.77545 -0.366082 0
M  V30 42 C -7.30267 -2.36753 0.762246 0
M  V30 43 C -8.05897 -3.29985 1.47029 0
M  V30 44 C -9.32125 -3.63428 1.05272 0
M  V30 45 C -9.82274 -3.03309 -0.0739269 0
M  V30 46 C -9.09867 -2.10621 -0.796741 0
M  V30 47 C -9.60141 -1.50127 -1.92951 0
M  V30 48 C -8.88576 -0.567936 -2.66671 0
M  V30 49 H -7.03201 1.7099 -2.77967 0
M  V30 50 H -6.10349 0.416829 -3.63344 0
M  V30 51 H -5.07264 2.5702 1.35483 0
M  V30 52 H -0.732407 3.98767 1.3356 0
M  V30 53 H 1.30518 3.64829 1.28916 0
M  V30 54 H 4.96386 1.37733 -0.361154 0
M  V30 55 H 2.02232 -1.62016 -0.0511371 0
M  V30 56 H 0.374009 0.0259082 0.550841 0
M  V30 57 H 4.87828 -3.78801 -1.3221 0
M  V30 58 H 5.20621 -2.81569 -2.77409 0
M  V30 59 H 7.80654 -4.56777 -2.1799 0
M  V30 60 H 10.0273 -3.96214 -1.2077 0
M  V30 61 H 11.3521 -2.50598 0.0926481 0
M  V30 62 H 11.5584 -0.509944 1.45853 0
M  V30 63 H 9.57843 0.942321 1.90233 0
M  V30 64 H 7.36085 0.318442 0.918612 0
M  V30 65 H 2.07766 4.17655 -1.41651 0
M  V30 66 H -1.08331 1.04181 -1.03626 0
M  V30 67 H -3.24379 0.131067 -1.63132 0
M  V30 68 H -1.44428 2.49882 3.49879 0
M  V30 69 H -6.30804 -2.07753 1.05671 0
M  V30 70 H -7.63991 -3.75468 2.34924 0
M  V30 71 H -9.94356 -4.35522 1.57515 0
M  V30 72 H -10.8154 -3.26178 -0.447221 0
M  V30 73 H -10.6005 -1.79044 -2.22776 0
M  V30 74 H -9.34067 -0.124304 -3.55675 0
M  V30 END ATOM
M  V30 BEGIN BOND
M  V30 1 1 1 2
M  V30 2 2 2 3
M  V30 3 1 3 4
M  V30 4 2 4 5 CFG=2
M  V30 5 1 5 6
M  V30 6 2 6 7
M  V30 7 1 7 8
M  V30 8 2 8 9
M  V30 9 1 9 10
M  V30 10 2 10 11 CFG=2
M  V30 11 1 11 12
M  V30 12 2 12 13
M  V30 13 1 13 14
M  V30 14 2 14 15
M  V30 15 1 15 16
M  V30 16 2 16 17
M  V30 17 1 15 18
M  V30 18 2 18 19 CFG=2
M  V30 19 1 19 20
M  V30 20 2 20 21
M  V30 21 1 21 22
M  V30 22 1 21 23
M  V30 23 2 23 24
M  V30 24 1 24 25
M  V30 25 2 25 26
M  V30 26 1 26 27
M  V30 27 2 27 28
M  V30 28 1 28 29
M  V30 29 2 29 30
M  V30 30 1 13 31
M  V30 31 1 31 32
M  V30 32 2 31 33
M  V30 33 2 31 34
M  V30 34 1 9 35
M  V30 35 2 35 36
M  V30 36 1 8 37
M  V30 37 1 37 38
M  V30 38 2 37 39
M  V30 39 2 37 40
M  V30 40 1 3 41
M  V30 41 2 41 42
M  V30 42 1 42 43
M  V30 43 2 43 44
M  V30 44 1 44 45
M  V30 45 2 45 46
M  V30 46 1 46 47
M  V30 47 2 47 48
M  V30 48 1 48 2
M  V30 49 1 36 6
M  V30 50 1 46 41
M  V30 51 1 17 12
M  V30 52 1 30 20
M  V30 53 1 30 25
M  V30 54 1 1 49
M  V30 55 1 1 50
M  V30 56 1 7 51
M  V30 57 1 10 52
M  V30 58 1 11 53
M  V30 59 1 14 54
M  V30 60 1 16 55
M  V30 61 1 17 56
M  V30 62 1 22 57
M  V30 63 1 22 58
M  V30 64 1 23 59
M  V30 65 1 24 60
M  V30 66 1 26 61
M  V30 67 1 27 62
M  V30 68 1 28 63
M  V30 69 1 29 64
M  V30 70 1 32 65
M  V30 71 1 35 66
M  V30 72 1 36 67
M  V30 73 1 38 68
M  V30 74 1 42 69
M  V30 75 1 43 70
M  V30 76 1 44 71
M  V30 77 1 45 72
M  V30 78 1 47 73
M  V30 79 1 48 74
M  V30 END BOND
M  V30 END CTAB
M  END
