
     RDKit          3D

  0  0  0  0  0  0  0  0  0  0999 V3000
M  V30 BEGIN CTAB
M  V30 COUNTS 45 47 0 0 0
M  V30 BEGIN ATOM
M  V30 1 C -3.39243 3.4702 -1.23732 0
M  V30 2 O -4.28046 2.42537 -0.89002 0
M  V30 3 C -3.74304 1.23624 -0.447271 0
M  V30 4 C -2.35442 1.04265 -0.335271 0
M  V30 5 C -1.84281 -0.145015 0.105455 0
M  V30 6 N -0.464362 -0.381546 0.21197 0
M  V30 7 C 0.508091 0.405679 -0.429017 0
M  V30 8 O 0.349112 1.37511 -1.15579 0
M  V30 9 C 1.93024 0.0126651 -0.196974 0
M  V30 10 S 2.50895 -1.27734 0.753275 0
M  V30 11 C 4.19113 -1.06439 0.514513 0
M  V30 12 C 4.24545 0.0189044 -0.308365 0
M  V30 13 C 3.0702 0.579837 -0.67901 0
M  V30 14 N 2.96931 1.74503 -1.55677 0
M  V30 15 C 5.55006 0.417474 -0.670286 0
M  V30 16 C 6.62781 -0.260715 -0.206335 0
M  V30 17 C 6.5543 -1.36026 0.629734 0
M  V30 18 N 5.30639 -1.72881 0.966305 0
M  V30 19 N 7.69543 -2.03695 1.08966 0
M  V30 20 C 7.95766 0.165862 -0.590629 0
M  V30 21 N 9.03279 0.491765 -0.892133 0
M  V30 22 C -2.73018 -1.19018 0.453247 0
M  V30 23 C -4.08428 -1.01458 0.349111 0
M  V30 24 C -4.57086 0.206048 -0.103372 0
M  V30 25 O -5.93568 0.361223 -0.200864 0
M  V30 26 C -6.63093 0.859844 0.934111 0
M  V30 27 O -4.9752 -2.02091 0.682872 0
M  V30 28 C -4.44474 -3.24979 1.13965 0
M  V30 29 H -3.92998 4.39959 -1.51572 0
M  V30 30 H -2.71412 3.69991 -0.381612 0
M  V30 31 H -2.7223 3.16952 -2.07508 0
M  V30 32 H -1.77138 1.90139 -0.609273 0
M  V30 33 H -0.125851 -1.21552 0.8234 0
M  V30 34 H 3.10845 1.61635 -2.58218 0
M  V30 35 H 2.76622 2.67743 -1.18622 0
M  V30 36 H 5.73241 1.2672 -1.32218 0
M  V30 37 H 7.97133 -1.97124 2.08574 0
M  V30 38 H 8.2646 -2.60068 0.446169 0
M  V30 39 H -2.32374 -2.11968 0.798902 0
M  V30 40 H -5.94699 0.975228 1.81729 0
M  V30 41 H -7.44225 0.143894 1.25006 0
M  V30 42 H -7.08024 1.84925 0.757393 0
M  V30 43 H -3.96044 -3.08629 2.10862 0
M  V30 44 H -3.64347 -3.63477 0.445786 0
M  V30 45 H -5.22978 -4.03643 1.20842 0
M  V30 END ATOM
M  V30 BEGIN BOND
M  V30 1 1 1 2
M  V30 2 1 2 3
M  V30 3 2 3 4
M  V30 4 1 4 5
M  V30 5 1 5 6
M  V30 6 1 6 7
M  V30 7 2 7 8
M  V30 8 1 7 9
M  V30 9 1 9 10
M  V30 10 1 10 11
M  V30 11 2 11 12
M  V30 12 1 12 13
M  V30 13 1 13 14
M  V30 14 1 12 15
M  V30 15 2 15 16
M  V30 16 1 16 17
M  V30 17 2 17 18
M  V30 18 1 17 19
M  V30 19 1 16 20
M  V30 20 3 20 21
M  V30 21 2 5 22
M  V30 22 1 22 23
M  V30 23 2 23 24
M  V30 24 1 24 25
M  V30 25 1 25 26
M  V30 26 1 23 27
M  V30 27 1 27 28
M  V30 28 1 24 3
M  V30 29 2 13 9
M  V30 30 1 18 11
M  V30 31 1 1 29
M  V30 32 1 1 30
M  V30 33 1 1 31
M  V30 34 1 4 32
M  V30 35 1 6 33
M  V30 36 1 14 34
M  V30 37 1 14 35
M  V30 38 1 15 36
M  V30 39 1 19 37
M  V30 40 1 19 38
M  V30 41 1 22 39
M  V30 42 1 26 40
M  V30 43 1 26 41
M  V30 44 1 26 42
M  V30 45 1 28 43
M  V30 46 1 28 44
M  V30 47 1 28 45
M  V30 END BOND
M  V30 END CTAB
M  END
