
     RDKit          3D

  0  0  0  0  0  0  0  0  0  0999 V3000
M  V30 BEGIN CTAB
M  V30 COUNTS 30 30 0 0 0
M  V30 BEGIN ATOM
M  V30 1 N -2.57026 -0.758786 -1.59233 0
M  V30 2 C -2.97251 -0.525963 -0.208811 0
M  V30 3 C -1.9371 0.415235 0.436846 0
M  V30 4 C -0.594826 -0.249301 0.447566 0
M  V30 5 C -0.306063 -1.26785 1.31884 0
M  V30 6 C 0.972563 -1.78258 1.46013 0
M  V30 7 C 1.99374 -1.24433 0.689575 0
M  V30 8 C 1.68567 -0.216222 -0.189827 0
M  V30 9 C 0.410276 0.288959 -0.326335 0
M  V30 10 O 0.165282 1.29485 -1.22357 0
M  V30 11 C 0.276351 2.65887 -0.938147 0
M  V30 12 O 2.70458 0.331923 -0.972224 0
M  V30 13 C 4.02557 -0.14395 -0.911108 0
M  V30 14 N -2.39479 0.488827 1.87485 0
M  V30 15 H -2.63291 -1.68663 -1.9524 0
M  V30 16 H -2.68948 0.0655843 -2.20705 0
M  V30 17 H -3.96701 -0.0693526 -0.180468 0
M  V30 18 H -2.98521 -1.47096 0.32922 0
M  V30 19 H -1.92446 1.40029 0.0315802 0
M  V30 20 H -1.10219 -1.68245 1.92797 0
M  V30 21 H 1.17389 -2.60555 2.16388 0
M  V30 22 H 2.96099 -1.6602 0.819294 0
M  V30 23 H 0.822563 3.21334 -1.74953 0
M  V30 24 H 0.853723 2.86273 -0.00847209 0
M  V30 25 H -0.700404 3.18905 -0.858585 0
M  V30 26 H 4.58812 0.11852 -1.84224 0
M  V30 27 H 3.99392 -1.27099 -0.855877 0
M  V30 28 H 4.50419 0.247402 0.00977961 0
M  V30 29 H -1.51233 0.519303 2.42288 0
M  V30 30 H -2.84188 -0.459762 2.08456 0
M  V30 END ATOM
M  V30 BEGIN BOND
M  V30 1 1 1 2
M  V30 2 1 2 3
M  V30 3 1 3 4
M  V30 4 2 4 5
M  V30 5 1 5 6
M  V30 6 2 6 7
M  V30 7 1 7 8
M  V30 8 2 8 9
M  V30 9 1 9 10
M  V30 10 1 10 11
M  V30 11 1 8 12
M  V30 12 1 12 13
M  V30 13 1 3 14
M  V30 14 1 9 4
M  V30 15 1 1 15
M  V30 16 1 1 16
M  V30 17 1 2 17
M  V30 18 1 2 18
M  V30 19 1 3 19
M  V30 20 1 5 20
M  V30 21 1 6 21
M  V30 22 1 7 22
M  V30 23 1 11 23
M  V30 24 1 11 24
M  V30 25 1 11 25
M  V30 26 1 13 26
M  V30 27 1 13 27
M  V30 28 1 13 28
M  V30 29 1 14 29
M  V30 30 1 14 30
M  V30 END BOND
M  V30 END CTAB
M  END
