
     RDKit          3D

  0  0  0  0  0  0  0  0  0  0999 V3000
M  V30 BEGIN CTAB
M  V30 COUNTS 82 90 0 0 0
M  V30 BEGIN ATOM
M  V30 1 N 6.34999 -5.80236 -1.34602 0
M  V30 2 C 5.31994 -4.87055 -1.0079 0
M  V30 3 C 5.3745 -4.21432 0.200212 0
M  V30 4 C 4.38058 -3.30308 0.545987 0
M  V30 5 C 3.35776 -3.07346 -0.329023 0
M  V30 6 C 3.30095 -3.72944 -1.53874 0
M  V30 7 C 4.28969 -4.63376 -1.87844 0
M  V30 8 C 2.30447 -2.10588 0.038218 0
M  V30 9 C 2.53195 -0.716061 -0.0802299 0
M  V30 10 N 2.06236 0.314743 0.629804 0
M  V30 11 C 2.54714 1.43453 0.0761146 0
M  V30 12 C 3.36312 1.10226 -1.02926 0
M  V30 13 C 3.3597 -0.261516 -1.13759 0
M  V30 14 C 2.34325 2.78964 0.391088 0
M  V30 15 C 1.11254 3.42902 0.583834 0
M  V30 16 N 0.0353302 2.71456 0.240872 0
M  V30 17 C -1.10246 3.43031 0.446054 0
M  V30 18 C -0.693367 4.6413 0.940359 0
M  V30 19 C 0.672922 4.63501 1.02456 0
M  V30 20 C -2.33432 2.79488 0.11726 0
M  V30 21 C -2.57621 1.43499 0.417457 0
M  V30 22 C -3.6461 1.08803 1.29012 0
M  V30 23 C -3.62808 -0.247352 1.41705 0
M  V30 24 C -2.54906 -0.72476 0.623602 0
M  V30 25 N -1.93349 0.312824 0.0316121 0
M  V30 26 C -2.30916 -2.1123 0.583931 0
M  V30 27 C -1.03686 -2.72488 0.68574 0
M  V30 28 C -0.57376 -3.93444 1.12369 0
M  V30 29 C 0.788636 -3.94264 0.967589 0
M  V30 30 C 1.13034 -2.73335 0.436756 0
M  V30 31 N 0.0234824 -2.02124 0.276364 0
M  V30 32 C -3.43706 -3.07311 0.43553 0
M  V30 33 C -4.04156 -3.23012 -0.792559 0
M  V30 34 C -5.08455 -4.11836 -0.953314 0
M  V30 35 C -5.55662 -4.87862 0.105459 0
M  V30 36 N -6.64081 -5.79266 -0.0926407 0
M  V30 37 C -4.94928 -4.72333 1.34375 0
M  V30 38 C -3.89898 -3.82054 1.48157 0
M  V30 39 C -3.33486 3.65613 -0.523128 0
M  V30 40 C -4.67036 3.33019 -0.593669 0
M  V30 41 C -5.57249 4.18894 -1.20417 0
M  V30 42 C -5.21341 5.38881 -1.76623 0
M  V30 43 C -3.87185 5.73196 -1.70559 0
M  V30 44 C -2.98756 4.86585 -1.09495 0
M  V30 45 C 3.47064 3.75295 0.518047 0
M  V30 46 C 4.13137 3.7034 1.74763 0
M  V30 47 C 5.18957 4.54318 2.0254 0
M  V30 48 C 5.57792 5.43639 1.05025 0
M  V30 49 C 4.91137 5.47119 -0.163839 0
M  V30 50 C 3.84166 4.62373 -0.44697 0
M  V30 51 H 6.32999 -6.79373 -1.01067 0
M  V30 52 H 7.15793 -5.51234 -1.94451 0
M  V30 53 H 6.1666 -4.37193 0.913207 0
M  V30 54 H 4.46782 -2.81721 1.50649 0
M  V30 55 H 2.47131 -3.52052 -2.20771 0
M  V30 56 H 4.2423 -5.1554 -2.84346 0
M  V30 57 H 1.40408 0.259138 1.5351 0
M  V30 58 H 3.92033 1.79032 -1.69738 0
M  V30 59 H 3.89682 -0.857138 -1.89192 0
M  V30 60 H -1.36577 5.43789 1.20435 0
M  V30 61 H 1.32539 5.43515 1.37554 0
M  V30 62 H -4.36449 1.73625 1.78148 0
M  V30 63 H -4.3365 -0.831048 2.02354 0
M  V30 64 H -1.05827 0.253541 -0.660016 0
M  V30 65 H -1.19312 -4.72642 1.52189 0
M  V30 66 H 1.50893 -4.72233 1.20396 0
M  V30 67 H -3.73054 -2.6671 -1.68457 0
M  V30 68 H -5.58325 -4.26919 -1.90099 0
M  V30 69 H -7.43673 -5.89584 0.539519 0
M  V30 70 H -6.5631 -6.37209 -0.967557 0
M  V30 71 H -5.29388 -5.30467 2.18722 0
M  V30 72 H -3.46521 -3.75157 2.49467 0
M  V30 73 H -5.06834 2.38322 -0.215737 0
M  V30 74 H -6.60554 3.90222 -1.24494 0
M  V30 75 H -5.92314 6.05267 -2.24484 0
M  V30 76 H -3.54607 6.66895 -2.13304 0
M  V30 77 H -1.94936 5.2193 -1.11823 0
M  V30 78 H 3.83436 2.99729 2.53111 0
M  V30 79 H 5.69321 4.50009 2.97167 0
M  V30 80 H 6.41188 6.10277 1.26351 0
M  V30 81 H 5.21386 6.16558 -0.914187 0
M  V30 82 H 3.30958 4.63744 -1.38831 0
M  V30 END ATOM
M  V30 BEGIN BOND
M  V30 1 1 1 2
M  V30 2 2 2 3
M  V30 3 1 3 4
M  V30 4 2 4 5
M  V30 5 1 5 6
M  V30 6 2 6 7
M  V30 7 1 5 8
M  V30 8 2 8 9
M  V30 9 1 9 10
M  V30 10 1 10 11
M  V30 11 1 11 12
M  V30 12 2 12 13
M  V30 13 2 11 14
M  V30 14 1 14 15
M  V30 15 2 15 16
M  V30 16 1 16 17
M  V30 17 1 17 18
M  V30 18 2 18 19
M  V30 19 2 17 20
M  V30 20 1 20 21
M  V30 21 2 21 22
M  V30 22 1 22 23
M  V30 23 2 23 24
M  V30 24 1 24 25
M  V30 25 1 24 26
M  V30 26 2 26 27
M  V30 27 1 27 28
M  V30 28 2 28 29
M  V30 29 1 29 30
M  V30 30 2 30 31
M  V30 31 1 26 32
M  V30 32 2 32 33
M  V30 33 1 33 34
M  V30 34 2 34 35
M  V30 35 1 35 36
M  V30 36 1 35 37
M  V30 37 2 37 38
M  V30 38 1 20 39
M  V30 39 2 39 40
M  V30 40 1 40 41
M  V30 41 2 41 42
M  V30 42 1 42 43
M  V30 43 2 43 44
M  V30 44 1 14 45
M  V30 45 2 45 46
M  V30 46 1 46 47
M  V30 47 2 47 48
M  V30 48 1 48 49
M  V30 49 2 49 50
M  V30 50 1 7 2
M  V30 51 1 30 8
M  V30 52 1 38 32
M  V30 53 1 44 39
M  V30 54 1 50 45
M  V30 55 1 13 9
M  V30 56 1 19 15
M  V30 57 1 25 21
M  V30 58 1 31 27
M  V30 59 1 1 51
M  V30 60 1 1 52
M  V30 61 1 3 53
M  V30 62 1 4 54
M  V30 63 1 6 55
M  V30 64 1 7 56
M  V30 65 1 10 57
M  V30 66 1 12 58
M  V30 67 1 13 59
M  V30 68 1 18 60
M  V30 69 1 19 61
M  V30 70 1 22 62
M  V30 71 1 23 63
M  V30 72 1 25 64
M  V30 73 1 28 65
M  V30 74 1 29 66
M  V30 75 1 33 67
M  V30 76 1 34 68
M  V30 77 1 36 69
M  V30 78 1 36 70
M  V30 79 1 37 71
M  V30 80 1 38 72
M  V30 81 1 40 73
M  V30 82 1 41 74
M  V30 83 1 42 75
M  V30 84 1 43 76
M  V30 85 1 44 77
M  V30 86 1 46 78
M  V30 87 1 47 79
M  V30 88 1 48 80
M  V30 89 1 49 81
M  V30 90 1 50 82
M  V30 END BOND
M  V30 END CTAB
M  END
