
     RDKit          3D

  0  0  0  0  0  0  0  0  0  0999 V3000
M  V30 BEGIN CTAB
M  V30 COUNTS 21 21 0 0 0
M  V30 BEGIN ATOM
M  V30 1 C -3.82617 0.289429 0.469907 0
M  V30 2 O -2.43865 -0.0595779 0.457085 0
M  V30 3 C -1.47443 0.747626 -0.0956302 0
M  V30 4 O -1.78988 1.8422 -0.618644 0
M  V30 5 C -0.070156 0.365786 -0.0937845 0
M  V30 6 C 0.874927 1.20261 -0.659195 0
M  V30 7 C 2.20342 0.874427 -0.67458 0
M  V30 8 Cl 3.3968 1.93649 -1.39136 0
M  V30 9 C 2.59667 -0.320938 -0.110197 0
M  V30 10 N 3.96342 -0.711983 -0.0983645 0
M  V30 11 N 1.65462 -1.11871 0.434562 0
M  V30 12 C 0.359276 -0.830668 0.466115 0
M  V30 13 N -0.586561 -1.70672 1.05195 0
M  V30 14 H -4.15464 0.203146 1.53055 0
M  V30 15 H -4.41041 -0.40829 -0.179466 0
M  V30 16 H -3.95277 1.35103 0.158398 0
M  V30 17 H 0.588263 2.14819 -1.10906 0
M  V30 18 H 4.71911 -0.0144844 -0.229421 0
M  V30 19 H 4.2434 -1.70721 0.0418711 0
M  V30 20 H -0.629864 -1.85334 2.09527 0
M  V30 21 H -1.26638 -2.22902 0.448308 0
M  V30 END ATOM
M  V30 BEGIN BOND
M  V30 1 1 1 2
M  V30 2 1 2 3
M  V30 3 2 3 4
M  V30 4 1 3 5
M  V30 5 2 5 6
M  V30 6 1 6 7
M  V30 7 1 7 8
M  V30 8 2 7 9
M  V30 9 1 9 10
M  V30 10 1 9 11
M  V30 11 2 11 12
M  V30 12 1 12 13
M  V30 13 1 12 5
M  V30 14 1 1 14
M  V30 15 1 1 15
M  V30 16 1 1 16
M  V30 17 1 6 17
M  V30 18 1 10 18
M  V30 19 1 10 19
M  V30 20 1 13 20
M  V30 21 1 13 21
M  V30 END BOND
M  V30 END CTAB
M  END
