
     RDKit          3D

  0  0  0  0  0  0  0  0  0  0999 V3000
M  V30 BEGIN CTAB
M  V30 COUNTS 28 28 0 0 0
M  V30 BEGIN ATOM
M  V30 1 C 0.656017 -2.4811 -0.461836 0
M  V30 2 C 0.0498206 -1.59517 0.605854 0
M  V30 3 C -0.0470242 -0.174231 0.138396 0
M  V30 4 C 1.0714 0.646307 0.0881368 0
M  V30 5 C 2.40827 0.09276 0.518273 0
M  V30 6 C 3.41264 1.19453 0.363055 0
M  V30 7 N 0.955028 1.91339 -0.336714 0
M  V30 8 N -0.181674 2.44824 -0.720825 0
M  V30 9 C -1.29003 1.69528 -0.690068 0
M  V30 10 C -1.24427 0.37615 -0.26201 0
M  V30 11 C -2.43982 -0.448359 -0.224588 0
M  V30 12 S -2.80891 -1.3159 -1.56796 0
M  V30 13 N -3.27439 -0.515616 0.925048 0
M  V30 14 N -2.4908 2.29505 -1.10645 0
M  V30 15 H 1.60336 -2.95726 -0.137203 0
M  V30 16 H 0.946062 -1.81838 -1.32566 0
M  V30 17 H -0.101858 -3.21996 -0.822891 0
M  V30 18 H -0.919355 -1.96241 0.976597 0
M  V30 19 H 0.77344 -1.59228 1.45968 0
M  V30 20 H 2.69126 -0.802958 -0.0311693 0
M  V30 21 H 2.26354 -0.193388 1.58643 0
M  V30 22 H 4.42863 0.756903 0.292145 0
M  V30 23 H 3.30478 1.91285 1.20285 0
M  V30 24 H 3.24606 1.78712 -0.568886 0
M  V30 25 H -2.84988 -0.531682 1.8778 0
M  V30 26 H -4.30275 -0.546494 0.751322 0
M  V30 27 H -2.49486 2.88633 -1.95937 0
M  V30 28 H -3.36471 2.1503 -0.569951 0
M  V30 END ATOM
M  V30 BEGIN BOND
M  V30 1 1 1 2
M  V30 2 1 2 3
M  V30 3 2 3 4
M  V30 4 1 4 5
M  V30 5 1 5 6
M  V30 6 1 4 7
M  V30 7 2 7 8
M  V30 8 1 8 9
M  V30 9 2 9 10
M  V30 10 1 10 11
M  V30 11 2 11 12
M  V30 12 1 11 13
M  V30 13 1 9 14
M  V30 14 1 10 3
M  V30 15 1 1 15
M  V30 16 1 1 16
M  V30 17 1 1 17
M  V30 18 1 2 18
M  V30 19 1 2 19
M  V30 20 1 5 20
M  V30 21 1 5 21
M  V30 22 1 6 22
M  V30 23 1 6 23
M  V30 24 1 6 24
M  V30 25 1 13 25
M  V30 26 1 13 26
M  V30 27 1 14 27
M  V30 28 1 14 28
M  V30 END BOND
M  V30 END CTAB
M  END
