
     RDKit          3D

  0  0  0  0  0  0  0  0  0  0999 V3000
M  V30 BEGIN CTAB
M  V30 COUNTS 50 52 0 0 0
M  V30 BEGIN ATOM
M  V30 1 C -5.45582 -0.66686 0.555743 0 CFG=1
M  V30 2 N -5.46881 -1.53134 -0.583066 0
M  V30 3 C -4.18274 -0.436932 1.243 0
M  V30 4 C -3.01813 0.197592 0.639184 0
M  V30 5 N -2.36532 -0.272865 -0.468974 0
M  V30 6 C -2.81409 -0.206345 -1.78114 0
M  V30 7 C -1.07426 -0.885409 -0.263713 0
M  V30 8 C -0.0238485 0.0639567 0.175494 0 CFG=1
M  V30 9 O 1.1741 -0.646923 0.36345 0
M  V30 10 C 2.11183 0.41759 0.507268 0 CFG=2
M  V30 11 C 1.79196 1.36079 -0.539554 0 CFG=2
M  V30 12 O 1.86529 2.67474 -0.0124141 0
M  V30 13 C 0.3359 1.10584 -0.850291 0 CFG=2
M  V30 14 O -0.403456 2.27601 -0.678878 0
M  V30 15 N 3.39365 -0.128157 0.672314 0
M  V30 16 C 3.7235 -0.765495 1.84289 0
M  V30 17 N 4.9824 -1.18785 1.7761 0
M  V30 18 C 5.48501 -0.843006 0.591368 0
M  V30 19 C 4.49182 -0.18726 -0.0844675 0
M  V30 20 N 4.69039 0.291888 -1.32621 0
M  V30 21 C 5.88097 0.130802 -1.92542 0
M  V30 22 N 6.86582 -0.511985 -1.2721 0
M  V30 23 C 6.71105 -1.00309 -0.0388481 0
M  V30 24 N 7.71984 -1.68378 0.692147 0
M  V30 25 C -6.19684 0.60879 0.270371 0
M  V30 26 O -6.37784 1.60449 1.19851 0
M  V30 27 O -6.66818 0.757027 -0.874773 0
M  V30 28 H -6.12839 -1.19247 1.31586 0
M  V30 29 H -5.77937 -1.14197 -1.45897 0
M  V30 30 H -4.79439 -2.28366 -0.544285 0
M  V30 31 H -4.46 0.0756079 2.23538 0
M  V30 32 H -3.83677 -1.46437 1.61142 0
M  V30 33 H -3.31653 1.30052 0.394496 0
M  V30 34 H -2.30626 0.419416 1.5197 0
M  V30 35 H -3.72945 0.430291 -1.89182 0
M  V30 36 H -2.02848 0.183805 -2.50818 0
M  V30 37 H -3.05495 -1.19929 -2.20462 0
M  V30 38 H -1.21156 -1.73211 0.435091 0
M  V30 39 H -0.761409 -1.32638 -1.23776 0
M  V30 40 H -0.298093 0.621015 1.112 0
M  V30 41 H 1.78008 0.872412 1.50069 0
M  V30 42 H 2.41869 1.39719 -1.44012 0
M  V30 43 H 1.47212 2.71676 0.898021 0
M  V30 44 H 0.205001 0.705934 -1.88395 0
M  V30 45 H -0.716192 2.56117 -1.57209 0
M  V30 46 H 3.09374 -0.928085 2.71875 0
M  V30 47 H 6.11152 0.488952 -2.91974 0
M  V30 48 H 8.14793 -2.57193 0.357174 0
M  V30 49 H 8.03914 -1.28148 1.58907 0
M  V30 50 H -6.02058 1.61794 2.14589 0
M  V30 END ATOM
M  V30 BEGIN BOND
M  V30 1 1 1 2
M  V30 2 1 1 3
M  V30 3 1 3 4
M  V30 4 1 4 5
M  V30 5 1 5 6
M  V30 6 1 5 7
M  V30 7 1 7 8
M  V30 8 1 8 9
M  V30 9 1 9 10
M  V30 10 1 10 11
M  V30 11 1 11 12
M  V30 12 1 11 13
M  V30 13 1 13 14
M  V30 14 1 10 15
M  V30 15 1 15 16
M  V30 16 2 16 17
M  V30 17 1 17 18
M  V30 18 2 18 19
M  V30 19 1 19 20
M  V30 20 2 20 21
M  V30 21 1 21 22
M  V30 22 2 22 23
M  V30 23 1 23 24
M  V30 24 1 1 25
M  V30 25 1 25 26
M  V30 26 2 25 27
M  V30 27 1 13 8
M  V30 28 1 19 15
M  V30 29 1 23 18
M  V30 30 1 1 28 CFG=1
M  V30 31 1 2 29
M  V30 32 1 2 30
M  V30 33 1 3 31
M  V30 34 1 3 32
M  V30 35 1 4 33
M  V30 36 1 4 34
M  V30 37 1 6 35
M  V30 38 1 6 36
M  V30 39 1 6 37
M  V30 40 1 7 38
M  V30 41 1 7 39
M  V30 42 1 8 40 CFG=1
M  V30 43 1 10 41 CFG=1
M  V30 44 1 11 42 CFG=3
M  V30 45 1 12 43
M  V30 46 1 13 44 CFG=3
M  V30 47 1 14 45
M  V30 48 1 16 46
M  V30 49 1 21 47
M  V30 50 1 24 48
M  V30 51 1 24 49
M  V30 52 1 26 50
M  V30 END BOND
M  V30 END CTAB
M  END
