
     RDKit          3D

  0  0  0  0  0  0  0  0  0  0999 V3000
M  V30 BEGIN CTAB
M  V30 COUNTS 33 35 0 0 0
M  V30 BEGIN ATOM
M  V30 1 N -4.94808 -1.94788 0.187338 0
M  V30 2 C -3.71128 -1.27226 0.0804378 0
M  V30 3 N -3.68208 0.0459418 -0.142344 0
M  V30 4 C -2.53786 0.741772 -0.253473 0
M  V30 5 C -1.34159 0.0363386 -0.12747 0
M  V30 6 C -1.36785 -1.3242 0.102833 0
M  V30 7 O -0.324488 -2.01046 0.225903 0
M  V30 8 N -2.57803 -1.96005 0.203396 0
M  V30 9 C -0.158344 0.721898 -0.23346 0
M  V30 10 C 1.12064 0.0375377 -0.12662 0
M  V30 11 C 1.68862 -0.476145 -1.26029 0
M  V30 12 C 2.90268 -1.09907 -1.20681 0
M  V30 13 C 3.56713 -1.21399 0.00020694 0
M  V30 14 C 3.00127 -0.700023 1.14101 0
M  V30 15 C 1.76799 -0.0667101 1.08981 0
M  V30 16 N 4.8451 -1.87574 0.0245093 0 CHG=1
M  V30 17 O 5.54344 -2.01441 1.19461 0 CHG=-1
M  V30 18 O 5.33552 -2.33366 -1.02384 0
M  V30 19 C -0.189311 2.08874 -0.460688 0
M  V30 20 C 1.06577 2.76778 -0.564629 0
M  V30 21 N 2.07233 3.33337 -0.647055 0
M  V30 22 C -1.38084 2.73342 -0.57624 0
M  V30 23 N -1.37528 4.15513 -0.812285 0
M  V30 24 N -2.53264 2.06557 -0.473522 0
M  V30 25 H -5.49768 -1.98595 1.08404 0
M  V30 26 H -5.38747 -2.44798 -0.617179 0
M  V30 27 H -2.5505 -2.98153 0.376381 0
M  V30 28 H 1.17307 -0.385752 -2.19137 0
M  V30 29 H 3.3897 -1.52463 -2.10145 0
M  V30 30 H 3.53169 -0.795347 2.08594 0
M  V30 31 H 1.31233 0.343076 1.98787 0
M  V30 32 H -1.51091 4.78002 0.00711041 0
M  V30 33 H -1.24302 4.56521 -1.75364 0
M  V30 END ATOM
M  V30 BEGIN BOND
M  V30 1 1 1 2
M  V30 2 2 2 3
M  V30 3 1 3 4
M  V30 4 2 4 5
M  V30 5 1 5 6
M  V30 6 2 6 7
M  V30 7 1 6 8
M  V30 8 1 5 9
M  V30 9 1 9 10
M  V30 10 2 10 11
M  V30 11 1 11 12
M  V30 12 2 12 13
M  V30 13 1 13 14
M  V30 14 2 14 15
M  V30 15 1 13 16
M  V30 16 1 16 17
M  V30 17 2 16 18
M  V30 18 2 9 19
M  V30 19 1 19 20
M  V30 20 3 20 21
M  V30 21 1 19 22
M  V30 22 1 22 23
M  V30 23 2 22 24
M  V30 24 1 8 2
M  V30 25 1 15 10
M  V30 26 1 24 4
M  V30 27 1 1 25
M  V30 28 1 1 26
M  V30 29 1 8 27
M  V30 30 1 11 28
M  V30 31 1 12 29
M  V30 32 1 14 30
M  V30 33 1 15 31
M  V30 34 1 23 32
M  V30 35 1 23 33
M  V30 END BOND
M  V30 END CTAB
M  END
