
     RDKit          3D

  0  0  0  0  0  0  0  0  0  0999 V3000
M  V30 BEGIN CTAB
M  V30 COUNTS 45 46 0 0 0
M  V30 BEGIN ATOM
M  V30 1 N 6.47354 0.290569 -0.294334 0
M  V30 2 C 5.5305 -0.0352087 0.754612 0
M  V30 3 C 4.23052 0.665291 0.539138 0
M  V30 4 N 3.58836 0.334031 -0.703425 0
M  V30 5 C 3.1016 -1.00273 -0.804239 0
M  V30 6 C 1.71535 -1.17626 -0.150709 0
M  V30 7 N 0.802079 -0.255786 -0.754608 0
M  V30 8 C 1.45624 0.609185 -1.79178 0
M  V30 9 C 2.57075 1.31582 -1.05021 0
M  V30 10 C -0.541217 -0.0557035 -0.532203 0
M  V30 11 O -1.01889 0.917154 -1.32082 0
M  V30 12 N -1.53579 -0.580238 0.279626 0
M  V30 13 C -2.8784 -0.00110867 0.140415 0
M  V30 14 C -3.41631 0.830682 1.07294 0
M  V30 15 C -4.69779 1.34742 0.877574 0
M  V30 16 C -5.43158 1.02775 -0.249345 0
M  V30 17 C -4.88651 0.189038 -1.18699 0
M  V30 18 C -3.61331 -0.311808 -0.972518 0
M  V30 19 N -6.71829 1.56909 -0.409644 0
M  V30 20 C -1.44791 -1.6022 1.22906 0
M  V30 21 O -0.491385 -2.28527 1.59163 0
M  V30 22 C -2.75084 -1.94362 1.95071 0
M  V30 23 H 6.86087 -0.532123 -0.783725 0
M  V30 24 H 6.13847 1.04561 -0.940556 0
M  V30 25 H 5.9761 0.357564 1.69988 0
M  V30 26 H 5.41811 -1.12743 0.87845 0
M  V30 27 H 3.53811 0.32949 1.3608 0
M  V30 28 H 4.38514 1.75737 0.560402 0
M  V30 29 H 3.7836 -1.66292 -0.210685 0
M  V30 30 H 3.10993 -1.37841 -1.82497 0
M  V30 31 H 1.87336 -1.0349 0.933426 0
M  V30 32 H 1.46751 -2.23238 -0.355847 0
M  V30 33 H 0.750077 1.33516 -2.20093 0
M  V30 34 H 1.79457 -0.0481185 -2.59707 0
M  V30 35 H 2.14532 1.69997 -0.101666 0
M  V30 36 H 3.02536 2.10695 -1.68223 0
M  V30 37 H -2.86803 1.0862 1.94432 0
M  V30 38 H -5.12971 2.00322 1.6037 0
M  V30 39 H -5.4609 -0.0712527 -2.08521 0
M  V30 40 H -3.2379 -0.978307 -1.76552 0
M  V30 41 H -7.56204 0.968417 -0.455236 0
M  V30 42 H -6.83383 2.59765 -0.484426 0
M  V30 43 H -2.6675 -2.96039 2.34312 0
M  V30 44 H -2.942 -1.24792 2.76926 0
M  V30 45 H -3.60534 -1.85955 1.21862 0
M  V30 END ATOM
M  V30 BEGIN BOND
M  V30 1 1 1 2
M  V30 2 1 2 3
M  V30 3 1 3 4
M  V30 4 1 4 5
M  V30 5 1 5 6
M  V30 6 1 6 7
M  V30 7 1 7 8
M  V30 8 1 8 9
M  V30 9 1 7 10
M  V30 10 2 10 11
M  V30 11 1 10 12
M  V30 12 1 12 13
M  V30 13 2 13 14
M  V30 14 1 14 15
M  V30 15 2 15 16
M  V30 16 1 16 17
M  V30 17 2 17 18
M  V30 18 1 16 19
M  V30 19 1 12 20
M  V30 20 2 20 21
M  V30 21 1 20 22
M  V30 22 1 9 4
M  V30 23 1 18 13
M  V30 24 1 1 23
M  V30 25 1 1 24
M  V30 26 1 2 25
M  V30 27 1 2 26
M  V30 28 1 3 27
M  V30 29 1 3 28
M  V30 30 1 5 29
M  V30 31 1 5 30
M  V30 32 1 6 31
M  V30 33 1 6 32
M  V30 34 1 8 33
M  V30 35 1 8 34
M  V30 36 1 9 35
M  V30 37 1 9 36
M  V30 38 1 14 37
M  V30 39 1 15 38
M  V30 40 1 17 39
M  V30 41 1 18 40
M  V30 42 1 19 41
M  V30 43 1 19 42
M  V30 44 1 22 43
M  V30 45 1 22 44
M  V30 46 1 22 45
M  V30 END BOND
M  V30 END CTAB
M  END
