
     RDKit          3D

  0  0  0  0  0  0  0  0  0  0999 V3000
M  V30 BEGIN CTAB
M  V30 COUNTS 61 61 0 0 0
M  V30 BEGIN ATOM
M  V30 1 N -2.86259 -4.7962 -3.51868 0
M  V30 2 C -3.42828 -3.61332 -4.13704 0
M  V30 3 C -3.37635 -2.49271 -3.11984 0
M  V30 4 O -2.85648 -2.76644 -1.99497 0
M  V30 5 N -3.91956 -1.22761 -3.47924 0
M  V30 6 C -3.89368 -0.175595 -2.47557 0
M  V30 7 C -2.48909 0.205082 -2.07024 0
M  V30 8 O -1.60128 -0.303852 -2.78763 0
M  V30 9 N -2.23447 1.04569 -1.00376 0
M  V30 10 C -1.03924 1.55795 -0.490551 0
M  V30 11 C 0.125076 0.664074 -0.299738 0
M  V30 12 O 0.457125 -0.153415 -1.19056 0
M  V30 13 N 0.944097 0.64694 0.844154 0
M  V30 14 C 2.14473 -0.224303 0.951496 0
M  V30 15 C 3.17005 0.757997 1.33971 0
M  V30 16 O 3.12187 1.88257 0.695178 0
M  V30 17 O 4.12593 0.590258 2.27854 0
M  V30 18 C 1.94393 -1.35738 1.84874 0
M  V30 19 C 2.90641 -2.43041 2.03472 0
M  V30 20 C 4.26264 -2.29618 2.53077 0
M  V30 21 N 4.81197 -3.68562 2.60318 0
M  V30 22 C 6.0969 -3.88526 3.11197 0
M  V30 23 N 6.33601 -4.86979 3.89514 0
M  V30 24 N 7.12137 -2.9746 2.73304 0
M  V30 25 C -1.20355 2.51783 0.683338 0
M  V30 26 C -2.00076 3.71495 0.417638 0
M  V30 27 C -1.41175 4.82662 -0.110815 0
M  V30 28 C -2.10139 5.97905 -0.355775 0
M  V30 29 C -3.46344 6.05164 -0.0620669 0
M  V30 30 C -4.08536 4.96277 0.46539 0
M  V30 31 C -3.36817 3.802 0.705851 0
M  V30 32 O -4.14378 7.22496 -0.309076 0
M  V30 33 H -3.17749 -4.82857 -2.54187 0
M  V30 34 H -3.21871 -5.63044 -4.01402 0
M  V30 35 H -4.51017 -3.8224 -4.30503 0
M  V30 36 H -2.89709 -3.36438 -5.05211 0
M  V30 37 H -4.30363 -1.1079 -4.43677 0
M  V30 38 H -4.52895 -0.43542 -1.67669 0
M  V30 39 H -4.34143 0.737753 -2.97159 0
M  V30 40 H -3.13268 1.37815 -0.465004 0
M  V30 41 H -0.690244 2.28702 -1.37437 0
M  V30 42 H 0.739956 1.21818 1.65401 0
M  V30 43 H 2.27876 -0.604138 -0.106565 0
M  V30 44 H 4.00358 0.786747 3.28443 0
M  V30 45 H 0.942384 -1.90191 1.60531 0
M  V30 46 H 1.67141 -0.986513 2.90322 0
M  V30 47 H 2.41636 -3.24696 2.68585 0
M  V30 48 H 2.97494 -3.06655 1.05631 0
M  V30 49 H 4.37396 -1.94581 3.56923 0
M  V30 50 H 5.01945 -1.8315 1.82964 0
M  V30 51 H 4.25022 -4.4868 2.28269 0
M  V30 52 H 5.63296 -5.57257 4.21658 0
M  V30 53 H 7.90794 -2.79591 3.36983 0
M  V30 54 H 7.10578 -2.48917 1.80665 0
M  V30 55 H -1.69827 1.96793 1.51968 0
M  V30 56 H -0.198925 2.8133 1.08661 0
M  V30 57 H -0.348249 4.80552 -0.349101 0
M  V30 58 H -1.66672 6.88268 -0.768053 0
M  V30 59 H -5.15194 5.05463 0.691823 0
M  V30 60 H -3.88236 2.96355 1.12462 0
M  V30 61 H -3.65976 8.04382 -0.706936 0
M  V30 END ATOM
M  V30 BEGIN BOND
M  V30 1 1 1 2
M  V30 2 1 2 3
M  V30 3 2 3 4
M  V30 4 1 3 5
M  V30 5 1 5 6
M  V30 6 1 6 7
M  V30 7 2 7 8
M  V30 8 1 7 9
M  V30 9 1 9 10
M  V30 10 1 10 11
M  V30 11 2 11 12
M  V30 12 1 11 13
M  V30 13 1 13 14
M  V30 14 1 14 15
M  V30 15 2 15 16
M  V30 16 1 15 17
M  V30 17 1 14 18
M  V30 18 1 18 19
M  V30 19 1 19 20
M  V30 20 1 20 21
M  V30 21 1 21 22
M  V30 22 2 22 23 CFG=2
M  V30 23 1 22 24
M  V30 24 1 10 25
M  V30 25 1 25 26
M  V30 26 2 26 27
M  V30 27 1 27 28
M  V30 28 2 28 29
M  V30 29 1 29 30
M  V30 30 2 30 31
M  V30 31 1 29 32
M  V30 32 1 31 26
M  V30 33 1 1 33
M  V30 34 1 1 34
M  V30 35 1 2 35
M  V30 36 1 2 36
M  V30 37 1 5 37
M  V30 38 1 6 38
M  V30 39 1 6 39
M  V30 40 1 9 40
M  V30 41 1 10 41
M  V30 42 1 13 42
M  V30 43 1 14 43
M  V30 44 1 17 44
M  V30 45 1 18 45
M  V30 46 1 18 46
M  V30 47 1 19 47
M  V30 48 1 19 48
M  V30 49 1 20 49
M  V30 50 1 20 50
M  V30 51 1 21 51
M  V30 52 1 23 52
M  V30 53 1 24 53
M  V30 54 1 24 54
M  V30 55 1 25 55
M  V30 56 1 25 56
M  V30 57 1 27 57
M  V30 58 1 28 58
M  V30 59 1 30 59
M  V30 60 1 31 60
M  V30 61 1 32 61
M  V30 END BOND
M  V30 END CTAB
M  END
