
     RDKit          3D

  0  0  0  0  0  0  0  0  0  0999 V3000
M  V30 BEGIN CTAB
M  V30 COUNTS 27 27 0 0 0
M  V30 BEGIN ATOM
M  V30 1 N -3.5437 0.442581 0.189942 0
M  V30 2 C -2.10839 0.545164 0.190933 0 CFG=2
M  V30 3 C -1.65097 0.603858 -1.24772 0
M  V30 4 C -0.165505 0.645957 -1.3857 0
M  V30 5 C 0.573545 0.213939 -0.140535 0 CFG=1
M  V30 6 C -0.100605 -0.915091 0.583645 0
M  V30 7 C -1.56639 -0.7328 0.772844 0
M  V30 8 N 1.88585 -0.169108 -0.59381 0
M  V30 9 S 3.16568 0.761806 -0.00731163 0
M  V30 10 O 2.82829 2.15567 0.346173 0
M  V30 11 O 4.34815 0.781855 -0.93361 0
M  V30 12 N 3.71932 0.00270817 1.47105 0
M  V30 13 H -3.94255 0.69155 1.07467 0
M  V30 14 H -3.99419 0.674071 -0.670412 0
M  V30 15 H -1.78983 1.41235 0.77759 0
M  V30 16 H -2.04836 -0.325614 -1.74387 0
M  V30 17 H -2.1708 1.46199 -1.72355 0
M  V30 18 H 0.127045 1.71232 -1.5886 0
M  V30 19 H 0.155866 0.0315396 -2.23277 0
M  V30 20 H 0.621535 1.08375 0.539703 0
M  V30 21 H 0.0960103 -1.84356 -0.0102397 0
M  V30 22 H 0.359592 -0.973999 1.59618 0
M  V30 23 H -1.86683 -0.728588 1.86189 0
M  V30 24 H -2.11808 -1.58944 0.33236 0
M  V30 25 H 2.0415 -1.17382 -0.64864 0
M  V30 26 H 4.30188 -0.818711 1.23161 0
M  V30 27 H 2.84192 -0.31374 1.95817 0
M  V30 END ATOM
M  V30 BEGIN BOND
M  V30 1 1 1 2
M  V30 2 1 2 3
M  V30 3 1 3 4
M  V30 4 1 4 5
M  V30 5 1 5 6
M  V30 6 1 6 7
M  V30 7 1 5 8
M  V30 8 1 8 9
M  V30 9 2 9 10
M  V30 10 2 9 11
M  V30 11 1 9 12
M  V30 12 1 7 2
M  V30 13 1 1 13
M  V30 14 1 1 14
M  V30 15 1 2 15 CFG=1
M  V30 16 1 3 16
M  V30 17 1 3 17
M  V30 18 1 4 18
M  V30 19 1 4 19
M  V30 20 1 5 20 CFG=1
M  V30 21 1 6 21
M  V30 22 1 6 22
M  V30 23 1 7 23
M  V30 24 1 7 24
M  V30 25 1 8 25
M  V30 26 1 12 26
M  V30 27 1 12 27
M  V30 END BOND
M  V30 END CTAB
M  END
