
     RDKit          3D

  0  0  0  0  0  0  0  0  0  0999 V3000
M  V30 BEGIN CTAB
M  V30 COUNTS 28 29 0 0 0
M  V30 BEGIN ATOM
M  V30 1 N -5.4889 -0.0912014 0.0188566 0
M  V30 2 N -4.1724 -0.558361 0.0491767 0
M  V30 3 C -3.05783 0.288429 -0.125121 0
M  V30 4 O -3.28066 1.51063 -0.314269 0
M  V30 5 C -1.69926 -0.18933 -0.0945136 0
M  V30 6 C -1.33479 -1.50224 0.1044 0
M  V30 7 N -0.0386504 -1.90711 0.125398 0
M  V30 8 C 0.96655 -1.02828 -0.0503203 0
M  V30 9 C 0.665112 0.31227 -0.255829 0
M  V30 10 C -0.642799 0.713247 -0.275803 0
M  V30 11 N -0.93314 2.08136 -0.48613 0
M  V30 12 C 1.65768 1.25355 -0.441166 0
M  V30 13 C 2.96546 0.81685 -0.415444 0
M  V30 14 C 3.30222 -0.498137 -0.215256 0
M  V30 15 C 2.29384 -1.40434 -0.035023 0
M  V30 16 C 4.73314 -0.901438 -0.1991 0
M  V30 17 F 4.79178 -2.24457 0.015102 0
M  V30 18 F 5.31751 -0.203383 0.864823 0
M  V30 19 F 5.35317 -0.509719 -1.36989 0
M  V30 20 Cl 4.26799 1.97475 -0.646212 0
M  V30 21 H -5.59053 0.855155 0.445158 0
M  V30 22 H -5.76128 -0.0451593 -0.988647 0
M  V30 23 H -4.03485 -1.57644 0.208364 0
M  V30 24 H -2.12127 -2.22597 0.247709 0
M  V30 25 H -1.22536 2.47256 -1.40728 0
M  V30 26 H -0.85836 2.75538 0.306791 0
M  V30 27 H 1.40606 2.30924 -0.602514 0
M  V30 28 H 2.51956 -2.45774 0.126848 0
M  V30 END ATOM
M  V30 BEGIN BOND
M  V30 1 1 1 2
M  V30 2 1 2 3
M  V30 3 2 3 4
M  V30 4 1 3 5
M  V30 5 2 5 6
M  V30 6 1 6 7
M  V30 7 2 7 8
M  V30 8 1 8 9
M  V30 9 2 9 10
M  V30 10 1 10 11
M  V30 11 1 9 12
M  V30 12 2 12 13
M  V30 13 1 13 14
M  V30 14 2 14 15
M  V30 15 1 14 16
M  V30 16 1 16 17
M  V30 17 1 16 18
M  V30 18 1 16 19
M  V30 19 1 13 20
M  V30 20 1 10 5
M  V30 21 1 15 8
M  V30 22 1 1 21
M  V30 23 1 1 22
M  V30 24 1 2 23
M  V30 25 1 6 24
M  V30 26 1 11 25
M  V30 27 1 11 26
M  V30 28 1 12 27
M  V30 29 1 15 28
M  V30 END BOND
M  V30 END CTAB
M  END
