
     RDKit          3D

  0  0  0  0  0  0  0  0  0  0999 V3000
M  V30 BEGIN CTAB
M  V30 COUNTS 18 18 0 0 0
M  V30 BEGIN ATOM
M  V30 1 N -2.68113 0.765216 1.89734 0
M  V30 2 N -1.82288 0.70326 0.825889 0
M  V30 3 C -0.697832 0.0716723 0.823498 0
M  V30 4 N -0.240628 -0.634467 1.96766 0
M  V30 5 C 0.12741 0.076912 -0.372367 0
M  V30 6 C 1.32114 -0.603544 -0.347864 0
M  V30 7 C 2.12748 -0.607915 -1.49245 0
M  V30 8 C 1.75328 0.0519833 -2.63914 0
M  V30 9 N 0.576025 0.706576 -2.62128 0
M  V30 10 C -0.213945 0.724235 -1.53406 0
M  V30 11 H -2.43948 0.536581 2.88398 0
M  V30 12 H -3.67326 1.06949 1.71676 0
M  V30 13 H -0.319255 -0.25854 2.94371 0
M  V30 14 H 0.211303 -1.59132 1.90572 0
M  V30 15 H 1.65898 -1.14015 0.536535 0
M  V30 16 H 3.05912 -1.16186 -1.41495 0
M  V30 17 H 2.40928 0.0210371 -3.50048 0
M  V30 18 H -1.15561 1.27083 -1.5785 0
M  V30 END ATOM
M  V30 BEGIN BOND
M  V30 1 1 1 2
M  V30 2 2 2 3 CFG=2
M  V30 3 1 3 4
M  V30 4 1 3 5
M  V30 5 2 5 6
M  V30 6 1 6 7
M  V30 7 2 7 8
M  V30 8 1 8 9
M  V30 9 2 9 10
M  V30 10 1 10 5
M  V30 11 1 1 11
M  V30 12 1 1 12
M  V30 13 1 4 13
M  V30 14 1 4 14
M  V30 15 1 6 15
M  V30 16 1 7 16
M  V30 17 1 8 17
M  V30 18 1 10 18
M  V30 END BOND
M  V30 END CTAB
M  END
