
     RDKit          3D

  0  0  0  0  0  0  0  0  0  0999 V3000
M  V30 BEGIN CTAB
M  V30 COUNTS 21 21 0 0 0
M  V30 BEGIN ATOM
M  V30 1 N -2.97558 0.408563 1.29324 0
M  V30 2 C -1.6242 0.494102 0.841065 0
M  V30 3 N -0.758284 1.37436 1.34123 0
M  V30 4 C 0.532851 1.4622 0.915039 0
M  V30 5 C 0.984184 0.615052 -0.0739885 0
M  V30 6 C 0.0903147 -0.292876 -0.589584 0
M  V30 7 C -1.22422 -0.382657 -0.156013 0
M  V30 8 C -2.15372 -1.37674 -0.739969 0
M  V30 9 S 2.62122 0.649115 -0.688328 0
M  V30 10 O 2.53555 0.23481 -2.15019 0
M  V30 11 O 3.19155 2.04841 -0.610892 0
M  V30 12 N 3.66683 -0.393691 0.185791 0
M  V30 13 H -3.50916 1.25092 1.63512 0
M  V30 14 H -3.44492 -0.503043 1.28588 0
M  V30 15 H 1.23249 2.17487 1.32055 0
M  V30 16 H 0.390371 -0.988784 -1.37411 0
M  V30 17 H -2.72688 -1.93837 -0.00739364 0
M  V30 18 H -1.54732 -2.09666 -1.34412 0
M  V30 19 H -2.80213 -0.853799 -1.5007 0
M  V30 20 H 4.33795 -0.879182 -0.438245 0
M  V30 21 H 3.18313 -1.00659 0.855611 0
M  V30 END ATOM
M  V30 BEGIN BOND
M  V30 1 1 1 2
M  V30 2 2 2 3
M  V30 3 1 3 4
M  V30 4 2 4 5
M  V30 5 1 5 6
M  V30 6 2 6 7
M  V30 7 1 7 8
M  V30 8 1 5 9
M  V30 9 2 9 10
M  V30 10 2 9 11
M  V30 11 1 9 12
M  V30 12 1 7 2
M  V30 13 1 1 13
M  V30 14 1 1 14
M  V30 15 1 4 15
M  V30 16 1 6 16
M  V30 17 1 8 17
M  V30 18 1 8 18
M  V30 19 1 8 19
M  V30 20 1 12 20
M  V30 21 1 12 21
M  V30 END BOND
M  V30 END CTAB
M  END
