
     RDKit          3D

  0  0  0  0  0  0  0  0  0  0999 V3000
M  V30 BEGIN CTAB
M  V30 COUNTS 41 43 0 0 0
M  V30 BEGIN ATOM
M  V30 1 N 2.04187 2.92121 1.15358 0
M  V30 2 C 2.70705 1.62964 1.37197 0
M  V30 3 C 1.90493 0.678034 0.614637 0
M  V30 4 C 0.504796 0.595655 0.871784 0
M  V30 5 C -0.220741 -0.210596 -0.0869202 0
M  V30 6 C 0.299489 -0.770611 -1.15246 0
M  V30 7 C 1.65616 -0.635839 -1.38094 0
M  V30 8 C 2.39481 0.0415333 -0.488453 0
M  V30 9 C 3.85997 0.0577699 -0.668751 0
M  V30 10 C 4.34859 -1.32911 -1.20892 0
M  V30 11 C 4.79888 -0.765593 0.0957235 0
M  V30 12 C -1.64886 -0.466261 0.269377 0
M  V30 13 N -2.10746 0.538236 1.15508 0
M  V30 14 C -3.51125 0.385473 1.4981 0
M  V30 15 C -4.25722 0.585936 0.168605 0
M  V30 16 C -3.92038 -0.629052 -0.678573 0
M  V30 17 C -2.47171 -0.603632 -1.01214 0
M  V30 18 N -4.3291 -1.85226 -0.0280854 0
M  V30 19 H 1.95179 2.92467 0.0805601 0
M  V30 20 H 2.60327 3.72243 1.46988 0
M  V30 21 H 3.74398 1.62035 1.07438 0
M  V30 22 H 2.52005 1.37407 2.46691 0
M  V30 23 H 0.0084781 1.08106 1.61748 0
M  V30 24 H -0.275005 -1.28357 -1.93152 0
M  V30 25 H 2.05791 -1.16737 -2.27839 0
M  V30 26 H 4.23847 0.926118 -1.24799 0
M  V30 27 H 4.98124 -1.3461 -2.08944 0
M  V30 28 H 3.62011 -2.17506 -1.12913 0
M  V30 29 H 4.51283 -1.32193 1.00043 0
M  V30 30 H 5.87304 -0.457906 0.121912 0
M  V30 31 H -1.73031 -1.49132 0.744893 0
M  V30 32 H -1.96917 1.47069 0.756173 0
M  V30 33 H -3.69427 -0.63288 1.87679 0
M  V30 34 H -3.80888 1.16272 2.21048 0
M  V30 35 H -3.73741 1.44081 -0.309148 0
M  V30 36 H -5.32461 0.709075 0.324947 0
M  V30 37 H -4.50802 -0.504542 -1.63223 0
M  V30 38 H -2.21098 -1.59203 -1.47044 0
M  V30 39 H -2.25397 0.251307 -1.69084 0
M  V30 40 H -3.55575 -2.54478 0.0752431 0
M  V30 41 H -5.0926 -2.33634 -0.534564 0
M  V30 END ATOM
M  V30 BEGIN BOND
M  V30 1 1 1 2
M  V30 2 1 2 3
M  V30 3 2 3 4
M  V30 4 1 4 5
M  V30 5 2 5 6
M  V30 6 1 6 7
M  V30 7 2 7 8
M  V30 8 1 8 9
M  V30 9 1 9 10
M  V30 10 1 10 11
M  V30 11 1 5 12
M  V30 12 1 12 13
M  V30 13 1 13 14
M  V30 14 1 14 15
M  V30 15 1 15 16
M  V30 16 1 16 17
M  V30 17 1 16 18
M  V30 18 1 8 3
M  V30 19 1 11 9
M  V30 20 1 17 12
M  V30 21 1 1 19
M  V30 22 1 1 20
M  V30 23 1 2 21
M  V30 24 1 2 22
M  V30 25 1 4 23
M  V30 26 1 6 24
M  V30 27 1 7 25
M  V30 28 1 9 26
M  V30 29 1 10 27
M  V30 30 1 10 28
M  V30 31 1 11 29
M  V30 32 1 11 30
M  V30 33 1 12 31
M  V30 34 1 13 32
M  V30 35 1 14 33
M  V30 36 1 14 34
M  V30 37 1 15 35
M  V30 38 1 15 36
M  V30 39 1 16 37
M  V30 40 1 17 38
M  V30 41 1 17 39
M  V30 42 1 18 40
M  V30 43 1 18 41
M  V30 END BOND
M  V30 END CTAB
M  END
