
     RDKit          3D

  0  0  0  0  0  0  0  0  0  0999 V3000
M  V30 BEGIN CTAB
M  V30 COUNTS 28 27 0 0 0
M  V30 BEGIN ATOM
M  V30 1 C -2.45936 -1.22886 0.636202 0
M  V30 2 C -0.964277 -1.26832 0.430635 0
M  V30 3 C -0.500573 -0.0822764 -0.356605 0
M  V30 4 C 0.97603 -0.0689559 -0.591199 0
M  V30 5 C 1.79257 -0.0436893 0.659875 0
M  V30 6 N 1.70909 1.18829 1.39789 0
M  V30 7 O 1.40141 0.933721 -1.42382 0
M  V30 8 C 1.30911 -1.39094 -1.29944 0
M  V30 9 C -1.04295 1.16342 0.279523 0
M  V30 10 N -0.648051 2.36777 -0.410752 0
M  V30 11 H -2.76195 -0.497105 1.41019 0
M  V30 12 H -2.90662 -0.839594 -0.323575 0
M  V30 13 H -2.9021 -2.23293 0.778997 0
M  V30 14 H -0.732774 -2.23592 -0.0524266 0
M  V30 15 H -0.505774 -1.3102 1.44012 0
M  V30 16 H -0.987804 -0.15089 -1.37361 0
M  V30 17 H 2.86905 -0.147534 0.342878 0
M  V30 18 H 1.61511 -0.939851 1.31064 0
M  V30 19 H 2.24468 1.91401 0.832598 0
M  V30 20 H 2.18956 1.04672 2.3079 0
M  V30 21 H 1.1069 0.750049 -2.36997 0
M  V30 22 H 2.30233 -1.27248 -1.75984 0
M  V30 23 H 1.3148 -2.15665 -0.488442 0
M  V30 24 H 0.511317 -1.65302 -2.03342 0
M  V30 25 H -0.879516 1.20739 1.3747 0
M  V30 26 H -2.16664 1.10427 0.168064 0
M  V30 27 H -0.520601 3.1858 0.228222 0
M  V30 28 H -1.36298 2.65777 -1.11535 0
M  V30 END ATOM
M  V30 BEGIN BOND
M  V30 1 1 1 2
M  V30 2 1 2 3
M  V30 3 1 3 4
M  V30 4 1 4 5
M  V30 5 1 5 6
M  V30 6 1 4 7
M  V30 7 1 4 8
M  V30 8 1 3 9
M  V30 9 1 9 10
M  V30 10 1 1 11
M  V30 11 1 1 12
M  V30 12 1 1 13
M  V30 13 1 2 14
M  V30 14 1 2 15
M  V30 15 1 3 16
M  V30 16 1 5 17
M  V30 17 1 5 18
M  V30 18 1 6 19
M  V30 19 1 6 20
M  V30 20 1 7 21
M  V30 21 1 8 22
M  V30 22 1 8 23
M  V30 23 1 8 24
M  V30 24 1 9 25
M  V30 25 1 9 26
M  V30 26 1 10 27
M  V30 27 1 10 28
M  V30 END BOND
M  V30 END CTAB
M  END
