
     RDKit          3D

  0  0  0  0  0  0  0  0  0  0999 V3000
M  V30 BEGIN CTAB
M  V30 COUNTS 41 42 0 0 0
M  V30 BEGIN ATOM
M  V30 1 N -1.53301 3.15588 -1.45515 0
M  V30 2 C -2.08829 1.93877 -0.85107 0
M  V30 3 C -1.00587 1.25823 -0.00115954 0
M  V30 4 C -0.537208 2.21252 1.08985 0
M  V30 5 N -1.70396 2.53512 1.90845 0
M  V30 6 C -0.150916 0.239445 -0.605399 0
M  V30 7 C -1.18253 -0.155413 0.36632 0
M  V30 8 S -2.5629 -1.14179 -0.143986 0
M  V30 9 O -3.82258 -0.820326 0.573824 0
M  V30 10 O -2.71319 -1.0403 -1.65671 0
M  V30 11 C -2.1573 -2.88627 0.131084 0
M  V30 12 C -3.29592 -3.76053 -0.286071 0
M  V30 13 C 1.27809 0.0443775 -0.331055 0
M  V30 14 C 1.74789 -0.233988 0.931456 0
M  V30 15 C 3.10543 -0.408914 1.18291 0
M  V30 16 C 4.04235 -0.311095 0.175285 0
M  V30 17 C 3.58459 -0.0329133 -1.09423 0
M  V30 18 C 2.24015 0.13984 -1.33978 0
M  V30 19 C 5.49528 -0.500911 0.458389 0
M  V30 20 H -2.04891 4.00191 -1.18252 0
M  V30 21 H -0.512404 3.20222 -1.39441 0
M  V30 22 H -2.40946 1.30019 -1.69213 0
M  V30 23 H -2.907 2.20047 -0.150866 0
M  V30 24 H 0.324398 1.88261 1.65211 0
M  V30 25 H -0.24295 3.20098 0.627575 0
M  V30 26 H -1.45259 2.70717 2.90057 0
M  V30 27 H -2.42936 1.78999 1.85428 0
M  V30 28 H -0.419235 0.0414363 -1.69411 0
M  V30 29 H -0.924769 -0.373991 1.45845 0
M  V30 30 H -1.19994 -3.14259 -0.322124 0
M  V30 31 H -2.05923 -2.96937 1.24184 0
M  V30 32 H -3.26095 -4.68236 0.336072 0
M  V30 33 H -3.27634 -3.97713 -1.36352 0
M  V30 34 H -4.24466 -3.18711 -0.0804227 0
M  V30 35 H 1.10462 -0.338605 1.78391 0
M  V30 36 H 3.45248 -0.628928 2.19469 0
M  V30 37 H 4.32884 0.0417499 -1.8789 0
M  V30 38 H 1.88881 0.35788 -2.33871 0
M  V30 39 H 5.5935 -1.11388 1.37195 0
M  V30 40 H 5.9469 0.498022 0.646477 0
M  V30 41 H 6.00814 -1.04239 -0.358909 0
M  V30 END ATOM
M  V30 BEGIN BOND
M  V30 1 1 1 2
M  V30 2 1 2 3
M  V30 3 1 3 4
M  V30 4 1 4 5
M  V30 5 1 3 6
M  V30 6 1 6 7
M  V30 7 1 7 8
M  V30 8 2 8 9
M  V30 9 2 8 10
M  V30 10 1 8 11
M  V30 11 1 11 12
M  V30 12 1 6 13
M  V30 13 2 13 14
M  V30 14 1 14 15
M  V30 15 2 15 16
M  V30 16 1 16 17
M  V30 17 2 17 18
M  V30 18 1 16 19
M  V30 19 1 7 3
M  V30 20 1 18 13
M  V30 21 1 1 20
M  V30 22 1 1 21
M  V30 23 1 2 22
M  V30 24 1 2 23
M  V30 25 1 4 24
M  V30 26 1 4 25
M  V30 27 1 5 26
M  V30 28 1 5 27
M  V30 29 1 6 28
M  V30 30 1 7 29
M  V30 31 1 11 30
M  V30 32 1 11 31
M  V30 33 1 12 32
M  V30 34 1 12 33
M  V30 35 1 12 34
M  V30 36 1 14 35
M  V30 37 1 15 36
M  V30 38 1 17 37
M  V30 39 1 18 38
M  V30 40 1 19 39
M  V30 41 1 19 40
M  V30 42 1 19 41
M  V30 END BOND
M  V30 END CTAB
M  END
