
     RDKit          3D

  0  0  0  0  0  0  0  0  0  0999 V3000
M  V30 BEGIN CTAB
M  V30 COUNTS 41 42 0 0 0
M  V30 BEGIN ATOM
M  V30 1 C -3.93962 1.85458 -2.3494 0
M  V30 2 C -3.76432 2.16062 -0.889656 0
M  V30 3 C -2.56748 1.49418 -0.268854 0
M  V30 4 O -2.61185 0.100943 -0.354333 0
M  V30 5 C -1.57435 -0.68367 0.185431 0
M  V30 6 C -1.58866 -2.04686 0.111612 0
M  V30 7 O -2.66196 -2.64674 -0.515074 0
M  V30 8 C -2.87247 -4.00778 -0.699775 0
M  V30 9 C -0.556107 -2.76242 0.652493 0
M  V30 10 C 0.509053 -2.10005 1.27791 0
M  V30 11 C 0.538943 -0.745125 1.35958 0
M  V30 12 C 1.58952 0.0596334 1.96958 0
M  V30 13 C 2.54259 0.69042 1.05695 0
M  V30 14 C 3.59029 0.00666454 0.506152 0
M  V30 15 N 3.82856 -1.35609 0.838297 0
M  V30 16 N 4.43184 0.644466 -0.362278 0
M  V30 17 C 4.28267 1.92592 -0.708682 0
M  V30 18 N 5.19274 2.55947 -1.6338 0
M  V30 19 N 3.25638 2.61422 -0.174267 0
M  V30 20 C 2.40012 2.0357 0.684209 0
M  V30 21 C -0.530007 -0.0305917 0.798633 0
M  V30 22 H -4.08007 0.767421 -2.52529 0
M  V30 23 H -3.06175 2.23087 -2.90905 0
M  V30 24 H -4.85743 2.40189 -2.69457 0
M  V30 25 H -3.67428 3.27888 -0.812474 0
M  V30 26 H -4.69994 1.84696 -0.365169 0
M  V30 27 H -1.67506 1.82958 -0.876165 0
M  V30 28 H -2.41016 1.83018 0.772634 0
M  V30 29 H -2.51585 -4.65707 0.118581 0
M  V30 30 H -3.96693 -4.1726 -0.773125 0
M  V30 31 H -2.46169 -4.34712 -1.6944 0
M  V30 32 H -0.532867 -3.8362 0.612866 0
M  V30 33 H 1.31116 -2.67228 1.70835 0
M  V30 34 H 1.06919 0.812522 2.63418 0
M  V30 35 H 2.10382 -0.608529 2.7251 0
M  V30 36 H 4.15199 -1.99287 0.0793794 0
M  V30 37 H 3.695 -1.74631 1.80465 0
M  V30 38 H 5.44512 3.5681 -1.51269 0
M  V30 39 H 5.61338 2.0466 -2.42696 0
M  V30 40 H 1.57563 2.58233 1.11779 0
M  V30 41 H -0.52516 1.07016 0.853626 0
M  V30 END ATOM
M  V30 BEGIN BOND
M  V30 1 1 1 2
M  V30 2 1 2 3
M  V30 3 1 3 4
M  V30 4 1 4 5
M  V30 5 2 5 6
M  V30 6 1 6 7
M  V30 7 1 7 8
M  V30 8 1 6 9
M  V30 9 2 9 10
M  V30 10 1 10 11
M  V30 11 1 11 12
M  V30 12 1 12 13
M  V30 13 2 13 14
M  V30 14 1 14 15
M  V30 15 1 14 16
M  V30 16 2 16 17
M  V30 17 1 17 18
M  V30 18 1 17 19
M  V30 19 2 19 20
M  V30 20 2 11 21
M  V30 21 1 21 5
M  V30 22 1 20 13
M  V30 23 1 1 22
M  V30 24 1 1 23
M  V30 25 1 1 24
M  V30 26 1 2 25
M  V30 27 1 2 26
M  V30 28 1 3 27
M  V30 29 1 3 28
M  V30 30 1 8 29
M  V30 31 1 8 30
M  V30 32 1 8 31
M  V30 33 1 9 32
M  V30 34 1 10 33
M  V30 35 1 12 34
M  V30 36 1 12 35
M  V30 37 1 15 36
M  V30 38 1 15 37
M  V30 39 1 18 38
M  V30 40 1 18 39
M  V30 41 1 20 40
M  V30 42 1 21 41
M  V30 END BOND
M  V30 END CTAB
M  END
