
     RDKit          3D

  0  0  0  0  0  0  0  0  0  0999 V3000
M  V30 BEGIN CTAB
M  V30 COUNTS 26 26 0 0 0
M  V30 BEGIN ATOM
M  V30 1 C 2.57976 -2.10726 -0.599504 0
M  V30 2 C 1.99579 -0.777101 -0.254382 0
M  V30 3 C 2.79299 0.224845 0.293519 0
M  V30 4 C 2.23464 1.44916 0.606307 0
M  V30 5 C 0.895354 1.61757 0.355461 0
M  V30 6 C 0.095483 0.636188 -0.185625 0
M  V30 7 N 0.696058 -0.53125 -0.468011 0
M  V30 8 N -1.27784 0.903945 -0.412096 0
M  V30 9 C -2.20117 -0.0453409 -0.966673 0
M  V30 10 C -2.38104 -1.28233 -0.142122 0
M  V30 11 N -2.88124 -0.93788 1.18527 0
M  V30 12 N 0.34412 2.90449 0.692544 0
M  V30 13 H 2.32626 -2.88158 0.155358 0
M  V30 14 H 2.2945 -2.38596 -1.6183 0
M  V30 15 H 3.69205 -2.02954 -0.589189 0
M  V30 16 H 3.8323 0.000708494 0.454391 0
M  V30 17 H 2.85231 2.24691 1.03855 0
M  V30 18 H -1.64703 1.86875 -0.154812 0
M  V30 19 H -3.19322 0.407356 -1.10894 0
M  V30 20 H -1.88748 -0.373735 -2.00195 0
M  V30 21 H -1.46109 -1.86608 -0.053099 0
M  V30 22 H -3.18308 -1.9395 -0.584821 0
M  V30 23 H -3.42343 -1.69916 1.61589 0
M  V30 24 H -3.43872 -0.0618076 1.16892 0
M  V30 25 H -0.181391 3.0011 1.57431 0
M  V30 26 H 0.5251 3.65748 -0.00100448 0
M  V30 END ATOM
M  V30 BEGIN BOND
M  V30 1 1 1 2
M  V30 2 2 2 3
M  V30 3 1 3 4
M  V30 4 2 4 5
M  V30 5 1 5 6
M  V30 6 2 6 7
M  V30 7 1 6 8
M  V30 8 1 8 9
M  V30 9 1 9 10
M  V30 10 1 10 11
M  V30 11 1 5 12
M  V30 12 1 7 2
M  V30 13 1 1 13
M  V30 14 1 1 14
M  V30 15 1 1 15
M  V30 16 1 3 16
M  V30 17 1 4 17
M  V30 18 1 8 18
M  V30 19 1 9 19
M  V30 20 1 9 20
M  V30 21 1 10 21
M  V30 22 1 10 22
M  V30 23 1 11 23
M  V30 24 1 11 24
M  V30 25 1 12 25
M  V30 26 1 12 26
M  V30 END BOND
M  V30 END CTAB
M  END
