
     RDKit          3D

  0  0  0  0  0  0  0  0  0  0999 V3000
M  V30 BEGIN CTAB
M  V30 COUNTS 37 38 0 0 0
M  V30 BEGIN ATOM
M  V30 1 C 1.62302 -2.87167 -0.42254 0
M  V30 2 O 1.01423 -1.74528 0.157808 0
M  V30 3 C 1.71486 -0.551891 0.247563 0
M  V30 4 C 3.03029 -0.487485 -0.236779 0
M  V30 5 C 3.78221 0.670175 -0.18458 0
M  V30 6 C 3.20622 1.7867 0.364203 0
M  V30 7 N 3.95442 3.00307 0.437644 0
M  V30 8 C 1.93177 1.74233 0.838848 0
M  V30 9 C 1.14569 0.561907 0.793426 0
M  V30 10 C -0.206111 0.613243 1.38448 0
M  V30 11 C -1.33049 0.493401 0.448841 0
M  V30 12 C -1.56986 1.46452 -0.470218 0
M  V30 13 C -2.53947 1.39085 -1.44662 0
M  V30 14 N -2.80282 2.36583 -2.41972 0
M  V30 15 C -3.29052 0.228883 -1.44503 0
M  V30 16 C -3.07576 -0.782281 -0.522438 0
M  V30 17 C -2.09871 -0.682531 0.445587 0
M  V30 18 O -1.89379 -1.66986 1.36632 0
M  V30 19 C -2.58829 -2.88035 1.48418 0
M  V30 20 H 2.06767 -2.56076 -1.41168 0
M  V30 21 H 0.893935 -3.68795 -0.652182 0
M  V30 22 H 2.46145 -3.26106 0.210854 0
M  V30 23 H 3.43416 -1.40676 -0.650494 0
M  V30 24 H 4.78466 0.662441 -0.571689 0
M  V30 25 H 4.64411 3.26114 -0.273755 0
M  V30 26 H 3.78975 3.64125 1.23751 0
M  V30 27 H 1.47275 2.60576 1.27103 0
M  V30 28 H -0.300959 1.58498 1.93832 0
M  V30 29 H -0.311956 -0.16739 2.20412 0
M  V30 30 H -0.97911 2.39296 -0.479357 0
M  V30 31 H -3.01221 3.3398 -2.12299 0
M  V30 32 H -2.80366 2.18512 -3.45123 0
M  V30 33 H -4.07347 0.0843016 -2.18052 0
M  V30 34 H -3.67762 -1.70367 -0.523318 0
M  V30 35 H -2.42785 -3.3002 2.50887 0
M  V30 36 H -2.26241 -3.5906 0.701933 0
M  V30 37 H -3.70615 -2.72894 1.42359 0
M  V30 END ATOM
M  V30 BEGIN BOND
M  V30 1 1 1 2
M  V30 2 1 2 3
M  V30 3 2 3 4
M  V30 4 1 4 5
M  V30 5 2 5 6
M  V30 6 1 6 7
M  V30 7 1 6 8
M  V30 8 2 8 9
M  V30 9 1 9 10
M  V30 10 1 10 11
M  V30 11 2 11 12
M  V30 12 1 12 13
M  V30 13 1 13 14
M  V30 14 2 13 15
M  V30 15 1 15 16
M  V30 16 2 16 17
M  V30 17 1 17 18
M  V30 18 1 18 19
M  V30 19 1 9 3
M  V30 20 1 17 11
M  V30 21 1 1 20
M  V30 22 1 1 21
M  V30 23 1 1 22
M  V30 24 1 4 23
M  V30 25 1 5 24
M  V30 26 1 7 25
M  V30 27 1 7 26
M  V30 28 1 8 27
M  V30 29 1 10 28
M  V30 30 1 10 29
M  V30 31 1 12 30
M  V30 32 1 14 31
M  V30 33 1 14 32
M  V30 34 1 15 33
M  V30 35 1 16 34
M  V30 36 1 19 35
M  V30 37 1 19 36
M  V30 38 1 19 37
M  V30 END BOND
M  V30 END CTAB
M  END
