
     RDKit          3D

  0  0  0  0  0  0  0  0  0  0999 V3000
M  V30 BEGIN CTAB
M  V30 COUNTS 38 39 0 0 0
M  V30 BEGIN ATOM
M  V30 1 N -6.59138 -0.949319 0.284238 0
M  V30 2 C -6.37686 -0.265762 -0.901195 0
M  V30 3 N -7.33447 0.426221 -1.43561 0
M  V30 4 N -5.13832 -0.298026 -1.56843 0
M  V30 5 C -3.87861 -0.0104689 -0.979658 0
M  V30 6 C -3.71109 0.391016 0.323144 0
M  V30 7 C -2.47894 0.671919 0.870113 0
M  V30 8 C -1.28156 0.5675 0.12086 0
M  V30 9 C -1.46089 0.167979 -1.16615 0
M  V30 10 C -2.72095 -0.116842 -1.71621 0
M  V30 11 C -0.0480981 0.88404 0.799272 0
M  V30 12 O -0.159271 1.63836 1.88892 0
M  V30 13 C 1.29473 0.512487 0.498702 0
M  V30 14 C 2.16642 0.192501 1.56324 0
M  V30 15 C 3.48357 -0.119113 1.39252 0
M  V30 16 C 4.01286 -0.129131 0.128157 0
M  V30 17 N 5.38601 -0.438036 -0.108688 0
M  V30 18 C 6.29604 -0.675923 0.945235 0
M  V30 19 N 6.49249 0.333128 1.91852 0
M  V30 20 N 6.95236 -1.7932 1.01589 0
M  V30 21 C 3.19679 0.175179 -0.915385 0
M  V30 22 C 1.8594 0.491656 -0.732637 0
M  V30 23 H -6.51773 -1.99096 0.366687 0
M  V30 24 H -6.84566 -0.438835 1.18268 0
M  V30 25 H -8.26145 0.446494 -0.943989 0
M  V30 26 H -5.11561 -0.551601 -2.60926 0
M  V30 27 H -4.59858 0.498013 0.969595 0
M  V30 28 H -2.36496 0.984853 1.89985 0
M  V30 29 H -0.612363 0.0461985 -1.8054 0
M  V30 30 H -2.79282 -0.430447 -2.75234 0
M  V30 31 H 1.71353 0.20991 2.54605 0
M  V30 32 H 4.06167 -0.350294 2.26162 0
M  V30 33 H 5.69635 -0.484888 -1.10938 0
M  V30 34 H 6.25919 1.31508 1.67461 0
M  V30 35 H 6.86254 0.104484 2.85454 0
M  V30 36 H 7.6042 -1.93212 1.7967 0
M  V30 37 H 3.61395 0.169088 -1.9249 0
M  V30 38 H 1.33752 0.748858 -1.6364 0
M  V30 END ATOM
M  V30 BEGIN BOND
M  V30 1 1 1 2
M  V30 2 2 2 3 CFG=2
M  V30 3 1 2 4
M  V30 4 1 4 5
M  V30 5 2 5 6
M  V30 6 1 6 7
M  V30 7 2 7 8
M  V30 8 1 8 9
M  V30 9 2 9 10
M  V30 10 1 8 11
M  V30 11 2 11 12
M  V30 12 1 11 13
M  V30 13 2 13 14
M  V30 14 1 14 15
M  V30 15 2 15 16
M  V30 16 1 16 17
M  V30 17 1 17 18
M  V30 18 1 18 19
M  V30 19 2 18 20 CFG=2
M  V30 20 1 16 21
M  V30 21 2 21 22
M  V30 22 1 10 5
M  V30 23 1 22 13
M  V30 24 1 1 23
M  V30 25 1 1 24
M  V30 26 1 3 25
M  V30 27 1 4 26
M  V30 28 1 6 27
M  V30 29 1 7 28
M  V30 30 1 9 29
M  V30 31 1 10 30
M  V30 32 1 14 31
M  V30 33 1 15 32
M  V30 34 1 17 33
M  V30 35 1 19 34
M  V30 36 1 19 35
M  V30 37 1 20 36
M  V30 38 1 21 37
M  V30 39 1 22 38
M  V30 END BOND
M  V30 END CTAB
M  END
