
     RDKit          3D

  0  0  0  0  0  0  0  0  0  0999 V3000
M  V30 BEGIN CTAB
M  V30 COUNTS 50 53 0 0 0
M  V30 BEGIN ATOM
M  V30 1 C -4.03726 2.77344 1.064 0
M  V30 2 C -4.11903 1.48255 1.85013 0
M  V30 3 N -4.13195 0.391511 0.885478 0
M  V30 4 C -5.25024 -0.135116 0.339589 0
M  V30 5 C -6.58604 0.174939 0.516899 0
M  V30 6 C -7.54809 -0.527809 -0.173275 0
M  V30 7 C -7.11922 -1.52593 -1.0238 0
M  V30 8 C -5.78843 -1.84218 -1.20694 0
M  V30 9 C -4.84003 -1.14027 -0.518498 0
M  V30 10 C -3.45223 -1.22089 -0.489446 0
M  V30 11 C -3.04802 -0.250108 0.397127 0
M  V30 12 C -1.67034 -0.117171 0.614106 0
M  V30 13 C -0.727643 -0.895714 -0.0059127 0
M  V30 14 C -1.16285 -1.88296 -0.908897 0
M  V30 15 C -2.50887 -2.00601 -1.11459 0
M  V30 16 N 0.663558 -0.765242 0.186727 0
M  V30 17 C 1.331 0.290508 0.806384 0
M  V30 18 O 0.75895 1.29224 1.28187 0
M  V30 19 C 2.84953 0.195076 0.897723 0
M  V30 20 S 3.43892 0.0944431 -0.815132 0
M  V30 21 C 5.23824 -0.0209461 -0.735294 0
M  V30 22 N 6.01724 1.07504 -0.737917 0
M  V30 23 C 7.36174 1.00652 -0.678817 0
M  V30 24 N 8.15304 2.17841 -0.683362 0
M  V30 25 N 7.92406 -0.215447 -0.615374 0
M  V30 26 C 7.19438 -1.35726 -0.609159 0
M  V30 27 N 5.85542 -1.21431 -0.670443 0
M  V30 28 N 7.82154 -2.63086 -0.54131 0
M  V30 29 C 3.38757 1.42078 1.59568 0
M  V30 30 H -5.01942 3.14232 0.747816 0
M  V30 31 H -3.44483 2.57551 0.139923 0
M  V30 32 H -3.45127 3.54771 1.62588 0
M  V30 33 H -5.07533 1.43917 2.42879 0
M  V30 34 H -3.23394 1.39707 2.49725 0
M  V30 35 H -6.89351 0.958773 1.18703 0
M  V30 36 H -8.61699 -0.314278 -0.0619585 0
M  V30 37 H -7.8965 -2.07655 -1.56626 0
M  V30 38 H -5.46314 -2.62571 -1.87541 0
M  V30 39 H -1.41971 0.653552 1.32763 0
M  V30 40 H -0.433873 -2.52791 -1.4262 0
M  V30 41 H -2.85916 -2.77119 -1.81554 0
M  V30 42 H 1.2769 -1.56686 -0.178789 0
M  V30 43 H 3.10401 -0.680201 1.49773 0
M  V30 44 H 8.67164 2.48476 -1.5205 0
M  V30 45 H 8.21174 2.74421 0.181408 0
M  V30 46 H 7.30868 -3.39571 -0.0594141 0
M  V30 47 H 8.7476 -2.7486 -0.96551 0
M  V30 48 H 2.64495 1.75226 2.32324 0
M  V30 49 H 3.47273 2.21741 0.811183 0
M  V30 50 H 4.36446 1.16703 2.03196 0
M  V30 END ATOM
M  V30 BEGIN BOND
M  V30 1 1 1 2
M  V30 2 1 2 3
M  V30 3 1 3 4
M  V30 4 2 4 5
M  V30 5 1 5 6
M  V30 6 2 6 7
M  V30 7 1 7 8
M  V30 8 2 8 9
M  V30 9 1 9 10
M  V30 10 2 10 11
M  V30 11 1 11 12
M  V30 12 2 12 13
M  V30 13 1 13 14
M  V30 14 2 14 15
M  V30 15 1 13 16
M  V30 16 1 16 17
M  V30 17 2 17 18
M  V30 18 1 17 19
M  V30 19 1 19 20
M  V30 20 1 20 21
M  V30 21 2 21 22
M  V30 22 1 22 23
M  V30 23 1 23 24
M  V30 24 2 23 25
M  V30 25 1 25 26
M  V30 26 2 26 27
M  V30 27 1 26 28
M  V30 28 1 19 29
M  V30 29 1 11 3
M  V30 30 1 27 21
M  V30 31 1 9 4
M  V30 32 1 15 10
M  V30 33 1 1 30
M  V30 34 1 1 31
M  V30 35 1 1 32
M  V30 36 1 2 33
M  V30 37 1 2 34
M  V30 38 1 5 35
M  V30 39 1 6 36
M  V30 40 1 7 37
M  V30 41 1 8 38
M  V30 42 1 12 39
M  V30 43 1 14 40
M  V30 44 1 15 41
M  V30 45 1 16 42
M  V30 46 1 19 43
M  V30 47 1 24 44
M  V30 48 1 24 45
M  V30 49 1 28 46
M  V30 50 1 28 47
M  V30 51 1 29 48
M  V30 52 1 29 49
M  V30 53 1 29 50
M  V30 END BOND
M  V30 END CTAB
M  END
