
     RDKit          3D

  0  0  0  0  0  0  0  0  0  0999 V3000
M  V30 BEGIN CTAB
M  V30 COUNTS 98 105 0 0 0
M  V30 BEGIN ATOM
M  V30 1 N 10.4672 -1.78005 0.405663 0
M  V30 2 C 10.4314 -0.402793 0.101692 0
M  V30 3 N 9.30036 0.296227 -0.105488 0
M  V30 4 C 9.36105 1.587 -0.387547 0
M  V30 5 C 10.5636 2.25872 -0.479766 0
M  V30 6 N 10.3047 3.56253 -0.77905 0
M  V30 7 C 8.984 3.66086 -0.861913 0
M  V30 8 N 8.37541 2.4616 -0.626144 0
M  V30 9 C 6.95944 2.3078 -0.653997 0 CFG=2
M  V30 10 O 6.39934 1.9974 0.596834 0
M  V30 11 C 5.04016 1.87766 0.249213 0 CFG=2
M  V30 12 C 4.2284 1.32582 1.38187 0
M  V30 13 O 2.89423 1.23467 0.998769 0
M  V30 14 P 1.91791 0.637492 2.22701 0
M  V30 15 O 0.586699 1.65795 2.50921 0
M  V30 16 O 2.74063 0.633322 3.50139 0
M  V30 17 O 1.34727 -0.905041 1.97321 0
M  V30 18 C 0.595615 -1.0561 0.836996 0 CFG=2
M  V30 19 C -0.795274 -1.6139 1.16227 0 CFG=1
M  V30 20 C -1.86172 -0.756 0.518897 0
M  V30 21 O -1.73553 -0.697188 -0.85339 0
M  V30 22 P -2.94323 0.30422 -1.467 0
M  V30 23 O -2.64298 0.524549 -3.1128 0
M  V30 24 O -2.71141 1.67463 -0.816951 0
M  V30 25 O -4.48614 -0.153456 -1.11852 0
M  V30 26 C -5.12187 0.546968 -0.117261 0 CFG=2
M  V30 27 C -5.81893 -0.249986 0.91528 0 CFG=1
M  V30 28 C -5.52322 0.230181 2.34157 0
M  V30 29 O -6.20348 -0.540315 3.27197 0
M  V30 30 O -7.17596 -0.12358 0.740249 0
M  V30 31 C -7.4511 0.774189 -0.2526 0 CFG=2
M  V30 32 C -6.18801 1.48289 -0.654696 0 CFG=2
M  V30 33 O -6.07407 1.76706 -1.98798 0
M  V30 34 N -8.5027 1.72046 0.0526786 0
M  V30 35 C -8.39874 2.83966 0.789816 0
M  V30 36 N -9.59512 3.4671 0.849665 0
M  V30 37 C -10.4857 2.7443 0.14148 0
M  V30 38 C -9.78363 1.66209 -0.345213 0
M  V30 39 N -10.477 0.784876 -1.09549 0
M  V30 40 C -11.7832 0.927483 -1.37324 0
M  V30 41 N -12.4331 1.9865 -0.886561 0
M  V30 42 C -11.8164 2.90012 -0.134936 0
M  V30 43 N -12.5222 4.03169 0.379938 0
M  V30 44 O -0.827542 -2.90392 0.71463 0
M  V30 45 C 0.515643 -3.35267 0.753557 0 CFG=2
M  V30 46 C 1.17512 -2.21691 0.0432828 0 CFG=2
M  V30 47 O 2.54016 -2.16892 0.175593 0
M  V30 48 N 0.736397 -4.64768 0.311161 0
M  V30 49 C 1.31975 -5.55378 1.13649 0
M  V30 50 C 1.56592 -6.84838 0.760101 0
M  V30 51 C 1.20724 -7.24851 -0.506987 0
M  V30 52 O 1.41136 -8.43948 -0.911937 0
M  V30 53 N 0.634066 -6.36331 -1.32177 0
M  V30 54 C 0.41522 -5.10808 -0.90497 0
M  V30 55 O -0.124425 -4.30411 -1.69486 0
M  V30 56 C 5.00208 1.06452 -1.00328 0 CFG=1
M  V30 57 O 4.24362 1.71431 -1.97224 0
M  V30 58 C 6.45754 1.15598 -1.49272 0 CFG=1
M  V30 59 O 6.50439 1.43375 -2.85746 0
M  V30 60 C 11.719 1.54837 -0.269209 0
M  V30 61 O 12.8126 2.16145 -0.353455 0
M  V30 62 N 11.6377 0.238815 0.0161042 0
M  V30 63 H 10.8487 -2.11553 1.30038 0
M  V30 64 H 10.1047 -2.46128 -0.281593 0
M  V30 65 H 8.4774 4.6007 -1.09158 0
M  V30 66 H 6.43833 3.22051 -1.01132 0
M  V30 67 H 4.69856 2.92986 0.0870193 0
M  V30 68 H 4.53723 0.258364 1.59846 0
M  V30 69 H 4.383 1.85606 2.32609 0
M  V30 70 H 0.00790696 1.17002 3.15859 0
M  V30 71 H 0.498636 -0.128258 0.235552 0
M  V30 72 H -0.917932 -1.51528 2.25982 0
M  V30 73 H -2.85773 -1.25002 0.71412 0
M  V30 74 H -1.89868 0.23824 1.00128 0
M  V30 75 H -1.68209 0.749561 -3.19772 0
M  V30 76 H -4.37431 1.21187 0.362943 0
M  V30 77 H -5.47651 -1.32216 0.895631 0
M  V30 78 H -5.78115 1.29721 2.4773 0
M  V30 79 H -4.43987 0.0881386 2.51244 0
M  V30 80 H -7.14661 -0.247436 3.41768 0
M  V30 81 H -7.7837 0.195885 -1.16429 0
M  V30 82 H -6.19611 2.46151 -0.0952794 0
M  V30 83 H -6.39016 0.995279 -2.52854 0
M  V30 84 H -7.50247 3.21246 1.27789 0
M  V30 85 H -12.2609 0.159343 -1.99348 0
M  V30 86 H -13.3133 3.8752 1.01409 0
M  V30 87 H -12.216 4.98365 0.0989084 0
M  V30 88 H 0.790946 -3.24858 1.83462 0
M  V30 89 H 0.818799 -2.05619 -0.993171 0
M  V30 90 H 2.97889 -2.4411 -0.673422 0
M  V30 91 H 1.61874 -5.28101 2.14521 0
M  V30 92 H 2.0284 -7.57209 1.41084 0
M  V30 93 H 0.347628 -6.6275 -2.29156 0
M  V30 94 H 4.692 0.0144815 -0.857551 0
M  V30 95 H 4.08752 2.66935 -1.73538 0
M  V30 96 H 6.99159 0.219764 -1.24195 0
M  V30 97 H 6.44596 2.40823 -2.99417 0
M  V30 98 H 12.53 -0.300268 0.176631 0
M  V30 END ATOM
M  V30 BEGIN BOND
M  V30 1 1 1 2
M  V30 2 2 2 3
M  V30 3 1 3 4
M  V30 4 2 4 5
M  V30 5 1 5 6
M  V30 6 2 6 7
M  V30 7 1 7 8
M  V30 8 1 8 9
M  V30 9 1 9 10
M  V30 10 1 10 11
M  V30 11 1 11 12
M  V30 12 1 12 13
M  V30 13 1 13 14
M  V30 14 1 14 15
M  V30 15 2 14 16
M  V30 16 1 14 17
M  V30 17 1 17 18
M  V30 18 1 18 19
M  V30 19 1 19 20
M  V30 20 1 20 21
M  V30 21 1 21 22
M  V30 22 1 22 23
M  V30 23 2 22 24
M  V30 24 1 22 25
M  V30 25 1 25 26
M  V30 26 1 26 27
M  V30 27 1 27 28
M  V30 28 1 28 29
M  V30 29 1 27 30
M  V30 30 1 30 31
M  V30 31 1 31 32
M  V30 32 1 32 33
M  V30 33 1 31 34
M  V30 34 1 34 35
M  V30 35 2 35 36
M  V30 36 1 36 37
M  V30 37 2 37 38
M  V30 38 1 38 39
M  V30 39 2 39 40
M  V30 40 1 40 41
M  V30 41 2 41 42
M  V30 42 1 42 43
M  V30 43 1 19 44
M  V30 44 1 44 45
M  V30 45 1 45 46
M  V30 46 1 46 47
M  V30 47 1 45 48
M  V30 48 1 48 49
M  V30 49 2 49 50
M  V30 50 1 50 51
M  V30 51 2 51 52
M  V30 52 1 51 53
M  V30 53 1 53 54
M  V30 54 2 54 55
M  V30 55 1 11 56
M  V30 56 1 56 57
M  V30 57 1 56 58
M  V30 58 1 58 59
M  V30 59 1 5 60
M  V30 60 2 60 61
M  V30 61 1 60 62
M  V30 62 1 62 2
M  V30 63 1 8 4
M  V30 64 1 58 9
M  V30 65 1 46 18
M  V30 66 1 54 48
M  V30 67 1 32 26
M  V30 68 1 38 34
M  V30 69 1 42 37
M  V30 70 1 1 63
M  V30 71 1 1 64
M  V30 72 1 7 65
M  V30 73 1 9 66 CFG=3
M  V30 74 1 11 67 CFG=3
M  V30 75 1 12 68
M  V30 76 1 12 69
M  V30 77 1 15 70
M  V30 78 1 18 71 CFG=3
M  V30 79 1 19 72 CFG=1
M  V30 80 1 20 73
M  V30 81 1 20 74
M  V30 82 1 23 75
M  V30 83 1 26 76 CFG=1
M  V30 84 1 27 77 CFG=1
M  V30 85 1 28 78
M  V30 86 1 28 79
M  V30 87 1 29 80
M  V30 88 1 31 81 CFG=3
M  V30 89 1 32 82 CFG=1
M  V30 90 1 33 83
M  V30 91 1 35 84
M  V30 92 1 40 85
M  V30 93 1 43 86
M  V30 94 1 43 87
M  V30 95 1 45 88 CFG=1
M  V30 96 1 46 89 CFG=3
M  V30 97 1 47 90
M  V30 98 1 49 91
M  V30 99 1 50 92
M  V30 100 1 53 93
M  V30 101 1 56 94 CFG=1
M  V30 102 1 57 95
M  V30 103 1 58 96 CFG=3
M  V30 104 1 59 97
M  V30 105 1 62 98
M  V30 END BOND
M  V30 END CTAB
M  END
