
     RDKit          3D

  0  0  0  0  0  0  0  0  0  0999 V3000
M  V30 BEGIN CTAB
M  V30 COUNTS 27 27 0 0 0
M  V30 BEGIN ATOM
M  V30 1 C -0.827878 -2.41959 0.129434 0
M  V30 2 C -1.09136 -1.12168 0.866486 0
M  V30 3 C -0.827139 0.0969565 0.0332486 0
M  V30 4 C 0.633003 0.200991 -0.353763 0
M  V30 5 C 1.05581 1.08923 -1.29726 0
M  V30 6 S 2.77113 0.832171 -1.24308 0
M  V30 7 C 2.80732 -0.367757 -0.043601 0
M  V30 8 N 1.53797 -0.513665 0.248271 0
M  V30 9 N 3.94882 -1.04943 0.533084 0
M  V30 10 C -1.33602 1.29789 0.751742 0
M  V30 11 C -1.15387 2.58672 0.0108119 0
M  V30 12 N -1.5371 0.00352094 -1.25041 0
M  V30 13 H 0.0271867 -2.38374 -0.54459 0
M  V30 14 H -0.769762 -3.23454 0.912167 0
M  V30 15 H -1.79357 -2.64928 -0.406975 0
M  V30 16 H -2.03777 -1.15053 1.38096 0
M  V30 17 H -0.282616 -1.10102 1.67452 0
M  V30 18 H 0.501884 1.77549 -1.93074 0
M  V30 19 H 4.52737 -0.500213 1.17486 0
M  V30 20 H 4.10579 -2.01971 0.287684 0
M  V30 21 H -0.906695 1.40754 1.7774 0
M  V30 22 H -2.43976 1.19171 0.909037 0
M  V30 23 H -1.85858 3.37658 0.442463 0
M  V30 24 H -0.153632 3.0306 0.118497 0
M  V30 25 H -1.49716 2.53288 -1.04033 0
M  V30 26 H -0.921081 -0.520239 -1.8901 0
M  V30 27 H -2.4823 -0.390888 -1.12154 0
M  V30 END ATOM
M  V30 BEGIN BOND
M  V30 1 1 1 2
M  V30 2 1 2 3
M  V30 3 1 3 4
M  V30 4 2 4 5
M  V30 5 1 5 6
M  V30 6 1 6 7
M  V30 7 2 7 8
M  V30 8 1 7 9
M  V30 9 1 3 10
M  V30 10 1 10 11
M  V30 11 1 3 12
M  V30 12 1 8 4
M  V30 13 1 1 13
M  V30 14 1 1 14
M  V30 15 1 1 15
M  V30 16 1 2 16
M  V30 17 1 2 17
M  V30 18 1 5 18
M  V30 19 1 9 19
M  V30 20 1 9 20
M  V30 21 1 10 21
M  V30 22 1 10 22
M  V30 23 1 11 23
M  V30 24 1 11 24
M  V30 25 1 11 25
M  V30 26 1 12 26
M  V30 27 1 12 27
M  V30 END BOND
M  V30 END CTAB
M  END
