
     RDKit          3D

  0  0  0  0  0  0  0  0  0  0999 V3000
M  V30 BEGIN CTAB
M  V30 COUNTS 29 29 0 0 0
M  V30 BEGIN ATOM
M  V30 1 C -1.38773 1.26212 0.488234 0
M  V30 2 C -2.09654 -0.0592447 0.442496 0
M  V30 3 C -1.24989 -1.27063 0.510401 0
M  V30 4 S -0.0564769 -1.5666 -0.7492 0
M  V30 5 C 1.28324 -0.417894 -0.752547 0
M  V30 6 C 1.34918 0.711321 -1.55147 0
M  V30 7 C 2.42488 1.57077 -1.51185 0
M  V30 8 F 2.4602 2.68056 -2.31319 0
M  V30 9 C 3.50159 1.3619 -0.676566 0
M  V30 10 C 3.46069 0.243992 0.130389 0
M  V30 11 C 2.38566 -0.619024 0.0935742 0
M  V30 12 N 2.32166 -1.77941 0.918051 0
M  V30 13 N -3.03499 -0.0838456 1.58454 0
M  V30 14 C -2.92614 -0.166113 -0.843491 0
M  V30 15 H -1.34321 1.75952 -0.510029 0
M  V30 16 H -2.03634 1.98759 1.08823 0
M  V30 17 H -0.393659 1.2128 0.939673 0
M  V30 18 H -1.91128 -2.20144 0.574727 0
M  V30 19 H -0.761874 -1.26586 1.54593 0
M  V30 20 H 0.504639 0.904869 -2.22878 0
M  V30 21 H 4.34475 2.05441 -0.660686 0
M  V30 22 H 4.28799 0.0500818 0.797527 0
M  V30 23 H 2.75747 -2.64809 0.557549 0
M  V30 24 H 1.86102 -1.76734 1.8412 0
M  V30 25 H -2.55765 -0.490808 2.42084 0
M  V30 26 H -3.79248 -0.786777 1.34566 0
M  V30 27 H -2.56349 -0.999508 -1.49333 0
M  V30 28 H -2.85142 0.764127 -1.41396 0
M  V30 29 H -3.9798 -0.441482 -0.573933 0
M  V30 END ATOM
M  V30 BEGIN BOND
M  V30 1 1 1 2
M  V30 2 1 2 3
M  V30 3 1 3 4
M  V30 4 1 4 5
M  V30 5 2 5 6
M  V30 6 1 6 7
M  V30 7 1 7 8
M  V30 8 2 7 9
M  V30 9 1 9 10
M  V30 10 2 10 11
M  V30 11 1 11 12
M  V30 12 1 2 13
M  V30 13 1 2 14
M  V30 14 1 11 5
M  V30 15 1 1 15
M  V30 16 1 1 16
M  V30 17 1 1 17
M  V30 18 1 3 18
M  V30 19 1 3 19
M  V30 20 1 6 20
M  V30 21 1 9 21
M  V30 22 1 10 22
M  V30 23 1 12 23
M  V30 24 1 12 24
M  V30 25 1 13 25
M  V30 26 1 13 26
M  V30 27 1 14 27
M  V30 28 1 14 28
M  V30 29 1 14 29
M  V30 END BOND
M  V30 END CTAB
M  END
