
     RDKit          3D

  0  0  0  0  0  0  0  0  0  0999 V3000
M  V30 BEGIN CTAB
M  V30 COUNTS 19 19 0 0 0
M  V30 BEGIN ATOM
M  V30 1 N 2.67651 -1.63587 -0.140471 0
M  V30 2 C 1.57895 -0.740716 -0.0430735 0
M  V30 3 C 0.283406 -1.17249 -0.212415 0
M  V30 4 C -0.785172 -0.306568 -0.118646 0
M  V30 5 C -0.574994 1.04306 0.15326 0
M  V30 6 C 0.720446 1.49875 0.327164 0
M  V30 7 C 1.76636 0.606389 0.226823 0
M  V30 8 F 3.05459 1.03525 0.395095 0
M  V30 9 N -1.64989 1.96362 0.257039 0
M  V30 10 C -2.19221 -0.734538 -0.294747 0
M  V30 11 F -2.86178 -0.449951 0.877465 0
M  V30 12 F -2.76163 -0.0394591 -1.32821 0
M  V30 13 F -2.2835 -2.09206 -0.507935 0
M  V30 14 H 2.87819 -2.19666 -0.991954 0
M  V30 15 H 3.30301 -1.72916 0.682432 0
M  V30 16 H 0.0814312 -2.21743 -0.425575 0
M  V30 17 H 0.880937 2.54027 0.536872 0
M  V30 18 H -1.92252 2.35305 1.18057 0
M  V30 19 H -2.19214 2.27454 -0.573691 0
M  V30 END ATOM
M  V30 BEGIN BOND
M  V30 1 1 1 2
M  V30 2 2 2 3
M  V30 3 1 3 4
M  V30 4 2 4 5
M  V30 5 1 5 6
M  V30 6 2 6 7
M  V30 7 1 7 8
M  V30 8 1 5 9
M  V30 9 1 4 10
M  V30 10 1 10 11
M  V30 11 1 10 12
M  V30 12 1 10 13
M  V30 13 1 7 2
M  V30 14 1 1 14
M  V30 15 1 1 15
M  V30 16 1 3 16
M  V30 17 1 6 17
M  V30 18 1 9 18
M  V30 19 1 9 19
M  V30 END BOND
M  V30 END CTAB
M  END
