
     RDKit          3D

  0  0  0  0  0  0  0  0  0  0999 V3000
M  V30 BEGIN CTAB
M  V30 COUNTS 34 36 0 0 0
M  V30 BEGIN ATOM
M  V30 1 N 1.96545 -3.76061 0.36684 0
M  V30 2 C 1.09572 -3.00461 0.241534 0
M  V30 3 C 0.00716614 -2.02907 0.100016 0
M  V30 4 C -1.01213 -2.31476 -0.665541 0
M  V30 5 N -0.96119 -3.60818 -1.31762 0
M  V30 6 O -2.11438 -1.48563 -0.892625 0
M  V30 7 C -2.07278 -0.273517 -0.227683 0
M  V30 8 C -1.04565 0.0992683 0.588584 0
M  V30 9 C 0.0870918 -0.746642 0.825309 0
M  V30 10 C 1.40335 -0.157319 0.487027 0
M  V30 11 C 2.06628 0.502513 1.49761 0
M  V30 12 C 3.29682 1.10063 1.32628 0
M  V30 13 C 3.86184 1.01543 0.0724727 0
M  V30 14 C 3.20677 0.355404 -0.951988 0
M  V30 15 C 1.98419 -0.225701 -0.739008 0
M  V30 16 O 3.75656 0.25013 -2.2449 0
M  V30 17 C -1.12948 1.34064 1.1933 0
M  V30 18 C -2.19846 2.18594 0.994793 0
M  V30 19 C -3.24195 1.82319 0.173968 0
M  V30 20 C -3.1628 0.568319 -0.440703 0
M  V30 21 N -4.35296 2.67235 -0.047837 0
M  V30 22 H -1.00704 -4.42357 -0.66966 0
M  V30 23 H -0.885796 -3.64464 -2.34071 0
M  V30 24 H 0.127656 -1.01152 1.93224 0
M  V30 25 H 1.65621 0.594993 2.51599 0
M  V30 26 H 3.80694 1.61677 2.13111 0
M  V30 27 H 4.84271 1.4699 -0.136911 0
M  V30 28 H 1.45614 -0.745222 -1.52393 0
M  V30 29 H 4.65891 0.689996 -2.36626 0
M  V30 30 H -0.34815 1.71859 1.864 0
M  V30 31 H -2.2556 3.16492 1.47711 0
M  V30 32 H -3.96812 0.285157 -1.07588 0
M  V30 33 H -4.53417 3.46652 0.588275 0
M  V30 34 H -4.98917 2.51034 -0.839532 0
M  V30 END ATOM
M  V30 BEGIN BOND
M  V30 1 3 1 2
M  V30 2 1 2 3
M  V30 3 2 3 4
M  V30 4 1 4 5
M  V30 5 1 4 6
M  V30 6 1 6 7
M  V30 7 2 7 8
M  V30 8 1 8 9
M  V30 9 1 9 10
M  V30 10 2 10 11
M  V30 11 1 11 12
M  V30 12 2 12 13
M  V30 13 1 13 14
M  V30 14 2 14 15
M  V30 15 1 14 16
M  V30 16 1 8 17
M  V30 17 2 17 18
M  V30 18 1 18 19
M  V30 19 2 19 20
M  V30 20 1 19 21
M  V30 21 1 9 3
M  V30 22 1 15 10
M  V30 23 1 20 7
M  V30 24 1 5 22
M  V30 25 1 5 23
M  V30 26 1 9 24
M  V30 27 1 11 25
M  V30 28 1 12 26
M  V30 29 1 13 27
M  V30 30 1 15 28
M  V30 31 1 16 29
M  V30 32 1 17 30
M  V30 33 1 18 31
M  V30 34 1 20 32
M  V30 35 1 21 33
M  V30 36 1 21 34
M  V30 END BOND
M  V30 END CTAB
M  END
