
     RDKit          3D

  0  0  0  0  0  0  0  0  0  0999 V3000
M  V30 BEGIN CTAB
M  V30 COUNTS 54 55 0 0 0
M  V30 BEGIN ATOM
M  V30 1 N -5.21926 -1.05579 -1.33417 0
M  V30 2 C -4.46692 -0.257001 -0.381349 0
M  V30 3 C -3.50549 0.628523 -1.05334 0
M  V30 4 C -2.02804 0.231241 -0.895821 0
M  V30 5 C -1.76724 -0.933327 -1.79489 0
M  V30 6 C -1.31443 1.47087 -1.45945 0
M  V30 7 N -1.6421 -0.0160577 0.443792 0
M  V30 8 C -2.68183 -0.471413 1.3782 0
M  V30 9 C -3.87157 -1.09681 0.702948 0
M  V30 10 C -3.10776 0.687344 2.24092 0
M  V30 11 C -2.11762 -1.54311 2.2918 0
M  V30 12 C -0.344437 0.0645827 0.957797 0
M  V30 13 O -0.268769 0.0679402 2.26614 0
M  V30 14 C 0.947774 0.14239 0.348387 0
M  V30 15 O 1.01292 -0.200914 -0.901079 0
M  V30 16 N 2.17922 0.534172 0.874701 0
M  V30 17 C 3.29421 0.417938 -0.0824938 0
M  V30 18 C 3.38988 1.26138 -1.16249 0
M  V30 19 C 4.4577 1.10709 -2.03371 0
M  V30 20 C 5.42281 0.136763 -1.85023 0
M  V30 21 C 5.32365 -0.711992 -0.760436 0
M  V30 22 C 4.25307 -0.542796 0.0960847 0
M  V30 23 N 6.3003 -1.72565 -0.531692 0
M  V30 24 C 2.56034 1.04337 2.10652 0
M  V30 25 O 1.79852 1.23558 3.06148 0
M  V30 26 C 4.00919 1.41833 2.37816 0
M  V30 27 H -4.97655 -2.08195 -1.26754 0
M  V30 28 H -6.25599 -1.02229 -1.14602 0
M  V30 29 H -5.23769 0.39851 0.12672 0
M  V30 30 H -3.69049 0.616104 -2.14796 0
M  V30 31 H -3.61101 1.69066 -0.737409 0
M  V30 32 H -1.14915 -0.697468 -2.69477 0
M  V30 33 H -1.30939 -1.81469 -1.27153 0
M  V30 34 H -2.74747 -1.29783 -2.23368 0
M  V30 35 H -2.07784 2.27213 -1.7481 0
M  V30 36 H -0.702549 1.97813 -0.695023 0
M  V30 37 H -0.810668 1.26513 -2.42178 0
M  V30 38 H -4.58909 -1.33119 1.5158 0
M  V30 39 H -3.55075 -2.06796 0.27279 0
M  V30 40 H -3.16098 1.65124 1.69734 0
M  V30 41 H -4.12317 0.402078 2.6461 0
M  V30 42 H -2.44825 0.727357 3.13229 0
M  V30 43 H -1.24628 -2.06709 1.90355 0
M  V30 44 H -2.91376 -2.35183 2.40478 0
M  V30 45 H -1.98511 -1.17573 3.3509 0
M  V30 46 H 2.65398 2.03217 -1.33932 0
M  V30 47 H 4.57904 1.74992 -2.90685 0
M  V30 48 H 6.25009 0.0125945 -2.52 0
M  V30 49 H 4.16742 -1.20184 0.949421 0
M  V30 50 H 7.26461 -1.64993 -0.906985 0
M  V30 51 H 6.05735 -2.56635 0.0230598 0
M  V30 52 H 4.52307 1.71506 1.46017 0
M  V30 53 H 3.96951 2.318 3.04194 0
M  V30 54 H 4.50703 0.604393 2.93132 0
M  V30 END ATOM
M  V30 BEGIN BOND
M  V30 1 1 1 2
M  V30 2 1 2 3
M  V30 3 1 3 4
M  V30 4 1 4 5
M  V30 5 1 4 6
M  V30 6 1 4 7
M  V30 7 1 7 8
M  V30 8 1 8 9
M  V30 9 1 8 10
M  V30 10 1 8 11
M  V30 11 1 7 12
M  V30 12 2 12 13
M  V30 13 1 12 14
M  V30 14 2 14 15
M  V30 15 1 14 16
M  V30 16 1 16 17
M  V30 17 2 17 18
M  V30 18 1 18 19
M  V30 19 2 19 20
M  V30 20 1 20 21
M  V30 21 2 21 22
M  V30 22 1 21 23
M  V30 23 1 16 24
M  V30 24 2 24 25
M  V30 25 1 24 26
M  V30 26 1 9 2
M  V30 27 1 22 17
M  V30 28 1 1 27
M  V30 29 1 1 28
M  V30 30 1 2 29
M  V30 31 1 3 30
M  V30 32 1 3 31
M  V30 33 1 5 32
M  V30 34 1 5 33
M  V30 35 1 5 34
M  V30 36 1 6 35
M  V30 37 1 6 36
M  V30 38 1 6 37
M  V30 39 1 9 38
M  V30 40 1 9 39
M  V30 41 1 10 40
M  V30 42 1 10 41
M  V30 43 1 10 42
M  V30 44 1 11 43
M  V30 45 1 11 44
M  V30 46 1 11 45
M  V30 47 1 18 46
M  V30 48 1 19 47
M  V30 49 1 20 48
M  V30 50 1 22 49
M  V30 51 1 23 50
M  V30 52 1 23 51
M  V30 53 1 26 52
M  V30 54 1 26 53
M  V30 55 1 26 54
M  V30 END BOND
M  V30 END CTAB
M  END
