
     RDKit          3D

  0  0  0  0  0  0  0  0  0  0999 V3000
M  V30 BEGIN CTAB
M  V30 COUNTS 49 51 0 0 0
M  V30 BEGIN ATOM
M  V30 1 C -4.13886 1.55223 3.11393 0
M  V30 2 O -4.73051 0.914098 1.98166 0
M  V30 3 C -3.84489 0.480841 0.977049 0
M  V30 4 C -2.48479 0.659416 1.07386 0
M  V30 5 C -1.66255 0.21444 0.0584335 0
M  V30 6 C -2.25506 -0.401203 -1.02856 0
M  V30 7 C -3.61013 -0.598721 -1.16315 0
M  V30 8 O -4.16657 -1.22165 -2.27139 0
M  V30 9 C -3.29815 -1.66301 -3.29111 0
M  V30 10 C -4.41611 -0.136811 -0.118074 0
M  V30 11 O -5.7654 -0.335233 -0.256067 0
M  V30 12 C -6.48759 -1.457 0.174393 0
M  V30 13 N -0.239014 0.389541 0.126824 0
M  V30 14 C 0.342795 1.5512 -0.467869 0
M  V30 15 C 0.589778 -0.590801 0.790387 0
M  V30 16 C 2.03482 -0.184347 0.727061 0
M  V30 17 N 2.86224 -0.613868 -0.2388 0
M  V30 18 C 4.15976 -0.246433 -0.297901 0
M  V30 19 C 4.69604 0.600766 0.6498 0
M  V30 20 C 3.86138 1.05385 1.65187 0
M  V30 21 C 2.53856 0.667997 1.69636 0
M  V30 22 N 5.99701 0.96509 0.584106 0
M  V30 23 C 6.82004 0.530511 -0.387368 0
M  V30 24 N 8.17651 0.928957 -0.429436 0
M  V30 25 N 6.30822 -0.302376 -1.32564 0
M  V30 26 C 5.01456 -0.685074 -1.28895 0
M  V30 27 N 4.45791 -1.56642 -2.27267 0
M  V30 28 H -4.99748 1.82125 3.7824 0
M  V30 29 H -3.41668 0.871963 3.61107 0
M  V30 30 H -3.67565 2.49249 2.75244 0
M  V30 31 H -2.09211 1.15011 1.9549 0
M  V30 32 H -1.55949 -0.735814 -1.8071 0
M  V30 33 H -2.87372 -0.732114 -3.74653 0
M  V30 34 H -3.84084 -2.27329 -4.05272 0
M  V30 35 H -2.44376 -2.22622 -2.8697 0
M  V30 36 H -6.55651 -2.20105 -0.650824 0
M  V30 37 H -7.53477 -1.1085 0.404605 0
M  V30 38 H -6.11616 -1.92811 1.08404 0
M  V30 39 H 1.19552 1.22188 -1.12874 0
M  V30 40 H 0.72447 2.26545 0.28501 0
M  V30 41 H -0.34423 2.09124 -1.13789 0
M  V30 42 H 0.334444 -0.638063 1.87788 0
M  V30 43 H 0.439914 -1.60134 0.375326 0
M  V30 44 H 4.23519 1.71942 2.41715 0
M  V30 45 H 1.84183 1.00047 2.46859 0
M  V30 46 H 8.75185 0.801155 0.424507 0
M  V30 47 H 8.63415 1.34473 -1.27008 0
M  V30 48 H 3.9892 -1.23642 -3.13572 0
M  V30 49 H 4.5448 -2.60526 -2.08102 0
M  V30 END ATOM
M  V30 BEGIN BOND
M  V30 1 1 1 2
M  V30 2 1 2 3
M  V30 3 2 3 4
M  V30 4 1 4 5
M  V30 5 2 5 6
M  V30 6 1 6 7
M  V30 7 1 7 8
M  V30 8 1 8 9
M  V30 9 2 7 10
M  V30 10 1 10 11
M  V30 11 1 11 12
M  V30 12 1 5 13
M  V30 13 1 13 14
M  V30 14 1 13 15
M  V30 15 1 15 16
M  V30 16 2 16 17
M  V30 17 1 17 18
M  V30 18 2 18 19
M  V30 19 1 19 20
M  V30 20 2 20 21
M  V30 21 1 19 22
M  V30 22 2 22 23
M  V30 23 1 23 24
M  V30 24 1 23 25
M  V30 25 2 25 26
M  V30 26 1 26 27
M  V30 27 1 10 3
M  V30 28 1 21 16
M  V30 29 1 26 18
M  V30 30 1 1 28
M  V30 31 1 1 29
M  V30 32 1 1 30
M  V30 33 1 4 31
M  V30 34 1 6 32
M  V30 35 1 9 33
M  V30 36 1 9 34
M  V30 37 1 9 35
M  V30 38 1 12 36
M  V30 39 1 12 37
M  V30 40 1 12 38
M  V30 41 1 14 39
M  V30 42 1 14 40
M  V30 43 1 14 41
M  V30 44 1 15 42
M  V30 45 1 15 43
M  V30 46 1 20 44
M  V30 47 1 21 45
M  V30 48 1 24 46
M  V30 49 1 24 47
M  V30 50 1 27 48
M  V30 51 1 27 49
M  V30 END BOND
M  V30 END CTAB
M  END
