
     RDKit          3D

  0  0  0  0  0  0  0  0  0  0999 V3000
M  V30 BEGIN CTAB
M  V30 COUNTS 34 37 0 0 0
M  V30 BEGIN ATOM
M  V30 1 N 6.09926 0.469708 -1.4331 0
M  V30 2 C 5.10658 0.658569 -0.441851 0
M  V30 3 N 5.52786 1.10774 0.835873 0
M  V30 4 N 3.89118 0.411887 -0.760198 0
M  V30 5 C 2.86922 0.579154 0.173078 0
M  V30 6 O 3.11003 1.08672 1.28851 0
M  V30 7 C 1.47524 0.182833 -0.0787747 0
M  V30 8 C 0.477341 0.351522 0.847719 0
M  V30 9 C -0.832022 -0.0133195 0.628418 0
M  V30 10 C -1.13643 -0.576024 -0.592488 0
M  V30 11 C -0.138183 -0.760317 -1.55733 0
M  V30 12 C 1.17861 -0.378654 -1.30067 0
M  V30 13 C -2.57205 -0.881383 -0.6019 0
M  V30 14 C -3.13153 -0.507449 0.601103 0
M  V30 15 C -4.47026 -0.696562 0.825706 0
M  V30 16 C -5.24442 -1.26311 -0.163885 0
M  V30 17 C -4.6952 -1.64106 -1.37147 0
M  V30 18 C -3.33779 -1.45783 -1.62004 0
M  V30 19 C -2.06071 0.0492915 1.4145 0
M  V30 20 C -2.31554 1.19174 2.36475 0
M  V30 21 O -2.0409 -0.100315 2.78888 0
M  V30 22 H 6.44703 -0.490891 -1.59782 0
M  V30 23 H 6.45616 1.26407 -1.96551 0
M  V30 24 H 5.36594 2.0887 1.16682 0
M  V30 25 H 6.02802 0.476781 1.52329 0
M  V30 26 H 0.722411 0.790544 1.79647 0
M  V30 27 H -0.376453 -1.1961 -2.50147 0
M  V30 28 H 1.92109 -0.537192 -2.07093 0
M  V30 29 H -4.95573 -0.4196 1.7532 0
M  V30 30 H -6.31328 -1.43777 -0.0424291 0
M  V30 31 H -5.29429 -2.093 -2.17036 0
M  V30 32 H -2.90202 -1.74616 -2.54983 0
M  V30 33 H -1.49619 1.95187 2.35953 0
M  V30 34 H -3.36298 1.58003 2.45223 0
M  V30 END ATOM
M  V30 BEGIN BOND
M  V30 1 1 1 2
M  V30 2 1 2 3
M  V30 3 2 2 4
M  V30 4 1 4 5
M  V30 5 2 5 6
M  V30 6 1 5 7
M  V30 7 2 7 8
M  V30 8 1 8 9
M  V30 9 2 9 10
M  V30 10 1 10 11
M  V30 11 2 11 12
M  V30 12 1 10 13
M  V30 13 2 13 14
M  V30 14 1 14 15
M  V30 15 2 15 16
M  V30 16 1 16 17
M  V30 17 2 17 18
M  V30 18 1 14 19
M  V30 19 1 19 20
M  V30 20 1 20 21
M  V30 21 1 12 7
M  V30 22 1 18 13
M  V30 23 1 21 19
M  V30 24 1 19 9
M  V30 25 1 1 22
M  V30 26 1 1 23
M  V30 27 1 3 24
M  V30 28 1 3 25
M  V30 29 1 8 26
M  V30 30 1 11 27
M  V30 31 1 12 28
M  V30 32 1 15 29
M  V30 33 1 16 30
M  V30 34 1 17 31
M  V30 35 1 18 32
M  V30 36 1 20 33
M  V30 37 1 20 34
M  V30 END BOND
M  V30 END CTAB
M  END
