
     RDKit          3D

  0  0  0  0  0  0  0  0  0  0999 V3000
M  V30 BEGIN CTAB
M  V30 COUNTS 28 30 0 0 0
M  V30 BEGIN ATOM
M  V30 1 N 2.69585 -1.97355 -0.519934 0
M  V30 2 C 2.55971 -0.618661 -0.149525 0
M  V30 3 C 1.29844 -0.0639774 0.0303512 0
M  V30 4 C 0.11973 -0.901557 -0.169066 0
M  V30 5 O 0.310326 -2.11118 -0.501393 0
M  V30 6 C -1.2226 -0.363399 0.00823261 0
M  V30 7 C -1.39509 0.973926 0.374744 0
M  V30 8 C -2.64699 1.52009 0.552094 0
M  V30 9 Br -2.87699 3.36338 1.05709 0
M  V30 10 C -3.72861 0.693291 0.353322 0
M  V30 11 C -3.59214 -0.629263 -0.00834636 0
M  V30 12 Br -5.15962 -1.71977 -0.2672 0
M  V30 13 C -2.33224 -1.15773 -0.181085 0
M  V30 14 N -2.17087 -2.50399 -0.549757 0
M  V30 15 C -0.242304 1.81532 0.575803 0
M  V30 16 O -0.372663 3.02009 0.905402 0
M  V30 17 C 1.10984 1.25926 0.393422 0
M  V30 18 C 2.22537 2.04716 0.580855 0
M  V30 19 Br 1.9754 3.86446 1.07928 0
M  V30 20 C 3.49585 1.53918 0.413424 0
M  V30 21 C 3.63572 0.216448 0.05163 0
M  V30 22 Br 5.38345 -0.501501 -0.183877 0
M  V30 23 H 2.58957 -2.23439 -1.51311 0
M  V30 24 H 2.89844 -2.71273 0.170761 0
M  V30 25 H -4.72824 1.11059 0.489834 0
M  V30 26 H -2.00703 -2.83154 -1.5312 0
M  V30 27 H -2.21619 -3.22415 0.195323 0
M  V30 28 H 4.39388 2.1242 0.550956 0
M  V30 END ATOM
M  V30 BEGIN BOND
M  V30 1 1 1 2
M  V30 2 2 2 3
M  V30 3 1 3 4
M  V30 4 2 4 5
M  V30 5 1 4 6
M  V30 6 2 6 7
M  V30 7 1 7 8
M  V30 8 1 8 9
M  V30 9 2 8 10
M  V30 10 1 10 11
M  V30 11 1 11 12
M  V30 12 2 11 13
M  V30 13 1 13 14
M  V30 14 1 7 15
M  V30 15 2 15 16
M  V30 16 1 15 17
M  V30 17 2 17 18
M  V30 18 1 18 19
M  V30 19 1 18 20
M  V30 20 2 20 21
M  V30 21 1 21 22
M  V30 22 1 21 2
M  V30 23 1 17 3
M  V30 24 1 13 6
M  V30 25 1 1 23
M  V30 26 1 1 24
M  V30 27 1 10 25
M  V30 28 1 14 26
M  V30 29 1 14 27
M  V30 30 1 20 28
M  V30 END BOND
M  V30 END CTAB
M  END
