
     RDKit          3D

  0  0  0  0  0  0  0  0  0  0999 V3000
M  V30 BEGIN CTAB
M  V30 COUNTS 35 36 0 0 0
M  V30 BEGIN ATOM
M  V30 1 C 4.53957 -1.04597 0.489831 0
M  V30 2 C 3.74995 -2.17565 -0.132877 0
M  V30 3 C 3.17421 -1.74018 -1.45593 0
M  V30 4 O 2.31309 -0.649541 -1.36855 0
M  V30 5 C 1.14338 -0.608365 -0.632629 0
M  V30 6 O 0.840852 -1.6472 0.00739856 0
M  V30 7 C 0.284105 0.594652 -0.594515 0
M  V30 8 C 0.638667 1.71955 -1.30492 0
M  V30 9 C -0.16346 2.86407 -1.27846 0
M  V30 10 N 0.221949 4.01631 -2.02054 0
M  V30 11 C -1.31942 2.82563 -0.517165 0
M  V30 12 C -1.65822 1.68149 0.191349 0
M  V30 13 C -0.85864 0.552497 0.159853 0
M  V30 14 S -1.25878 -0.94071 1.05744 0
M  V30 15 C -2.7669 -0.779756 1.96053 0
M  V30 16 N -2.94635 -0.340167 3.21991 0
M  V30 17 N -4.22347 -0.363665 3.54743 0
M  V30 18 C -4.91881 -0.827438 2.49022 0
M  V30 19 N -4.02311 -1.07891 1.5264 0
M  V30 20 N -4.29558 -1.57228 0.258589 0
M  V30 21 H 4.65819 -1.23791 1.5892 0
M  V30 22 H 5.54767 -0.941454 0.0210303 0
M  V30 23 H 3.99009 -0.108199 0.324455 0
M  V30 24 H 4.50883 -2.9766 -0.374957 0
M  V30 25 H 3.03393 -2.63529 0.544307 0
M  V30 26 H 4.03962 -1.43546 -2.09293 0
M  V30 27 H 2.72934 -2.62295 -1.97301 0
M  V30 28 H 1.55676 1.70526 -1.8903 0
M  V30 29 H -0.459777 4.57108 -2.55984 0
M  V30 30 H 1.21522 4.33857 -2.04238 0
M  V30 31 H -1.9673 3.6894 -0.46972 0
M  V30 32 H -2.5629 1.66495 0.781374 0
M  V30 33 H -5.99616 -0.957088 2.46568 0
M  V30 34 H -5.00935 -1.12718 -0.359286 0
M  V30 35 H -3.7572 -2.41148 -0.0587889 0
M  V30 END ATOM
M  V30 BEGIN BOND
M  V30 1 1 1 2
M  V30 2 1 2 3
M  V30 3 1 3 4
M  V30 4 1 4 5
M  V30 5 2 5 6
M  V30 6 1 5 7
M  V30 7 2 7 8
M  V30 8 1 8 9
M  V30 9 1 9 10
M  V30 10 2 9 11
M  V30 11 1 11 12
M  V30 12 2 12 13
M  V30 13 1 13 14
M  V30 14 1 14 15
M  V30 15 2 15 16
M  V30 16 1 16 17
M  V30 17 2 17 18
M  V30 18 1 18 19
M  V30 19 1 19 20
M  V30 20 1 13 7
M  V30 21 1 19 15
M  V30 22 1 1 21
M  V30 23 1 1 22
M  V30 24 1 1 23
M  V30 25 1 2 24
M  V30 26 1 2 25
M  V30 27 1 3 26
M  V30 28 1 3 27
M  V30 29 1 8 28
M  V30 30 1 10 29
M  V30 31 1 10 30
M  V30 32 1 11 31
M  V30 33 1 12 32
M  V30 34 1 18 33
M  V30 35 1 20 34
M  V30 36 1 20 35
M  V30 END BOND
M  V30 END CTAB
M  END
