
     RDKit          3D

  0  0  0  0  0  0  0  0  0  0999 V3000
M  V30 BEGIN CTAB
M  V30 COUNTS 20 20 0 0 0
M  V30 BEGIN ATOM
M  V30 1 N -3.83328 1.92805 0.360183 0
M  V30 2 C -2.71864 1.60058 0.246193 0
M  V30 3 C -1.34204 1.18294 0.123508 0
M  V30 4 C -0.299825 2.0845 0.0414241 0
M  V30 5 C 1.02124 1.70148 -0.0761099 0
M  V30 6 C 1.34324 0.359496 -0.1158 0
M  V30 7 C 0.324047 -0.567541 -0.0359309 0
M  V30 8 C -0.989972 -0.159601 0.0812197 0
M  V30 9 N -2.04725 -1.0964 0.164326 0
M  V30 10 C 0.685788 -2.00518 -0.079839 0
M  V30 11 N 2.70913 -0.0499802 -0.23742 0
M  V30 12 H -0.562878 3.15241 0.0736321 0
M  V30 13 H 1.83267 2.41963 -0.139868 0
M  V30 14 H -2.38944 -1.5057 1.05306 0
M  V30 15 H -2.54267 -1.42213 -0.71621 0
M  V30 16 H 1.61745 -2.19857 0.524638 0
M  V30 17 H -0.0918598 -2.65415 0.379849 0
M  V30 18 H 0.890491 -2.37773 -1.08942 0
M  V30 19 H 3.07661 -0.232519 -1.17293 0
M  V30 20 H 3.3172 -0.159591 0.615494 0
M  V30 END ATOM
M  V30 BEGIN BOND
M  V30 1 3 1 2
M  V30 2 1 2 3
M  V30 3 2 3 4
M  V30 4 1 4 5
M  V30 5 2 5 6
M  V30 6 1 6 7
M  V30 7 2 7 8
M  V30 8 1 8 9
M  V30 9 1 7 10
M  V30 10 1 6 11
M  V30 11 1 8 3
M  V30 12 1 4 12
M  V30 13 1 5 13
M  V30 14 1 9 14
M  V30 15 1 9 15
M  V30 16 1 10 16
M  V30 17 1 10 17
M  V30 18 1 10 18
M  V30 19 1 11 19
M  V30 20 1 11 20
M  V30 END BOND
M  V30 END CTAB
M  END
