
     RDKit          3D

  0  0  0  0  0  0  0  0  0  0999 V3000
M  V30 BEGIN CTAB
M  V30 COUNTS 52 56 0 0 0
M  V30 BEGIN ATOM
M  V30 1 N 2.02206 2.98751 -0.477987 0
M  V30 2 C 1.90393 1.82764 -0.355718 0
M  V30 3 C 1.83331 0.431891 -0.137679 0
M  V30 4 C 3.04531 -0.206111 0.208733 0
M  V30 5 N 3.04942 -1.4724 0.618376 0
M  V30 6 C 1.95597 -2.21644 0.732184 0
M  V30 7 C 0.746847 -1.64852 0.404136 0
M  V30 8 C 0.695711 -0.295829 -0.0442581 0
M  V30 9 C -0.527171 0.246212 -0.367272 0
M  V30 10 C -0.945947 1.51524 -0.941469 0
M  V30 11 O -0.429153 2.33084 -1.65583 0
M  V30 12 C -2.37483 1.64891 -0.419792 0
M  V30 13 N -2.77956 0.235706 -0.67355 0
M  V30 14 C -1.66959 -0.551397 -0.218328 0
M  V30 15 N -1.58677 -1.80362 0.211159 0
M  V30 16 C -0.41355 -2.36839 0.521491 0
M  V30 17 N -0.339757 -3.71225 0.975839 0
M  V30 18 C -3.99091 -0.203823 -1.2368 0
M  V30 19 C -5.1619 0.236031 -0.405283 0
M  V30 20 C -5.63752 -0.556756 0.609156 0
M  V30 21 C -6.71332 -0.109332 1.34294 0
M  V30 22 C -7.32833 1.09285 1.10317 0
M  V30 23 C -6.84161 1.87364 0.0862935 0
M  V30 24 C -5.76276 1.44912 -0.666398 0
M  V30 25 N 2.00728 -3.573 1.178 0
M  V30 26 N 4.22995 0.546295 0.0857809 0
M  V30 27 C 4.77782 1.10258 -1.12871 0
M  V30 28 C 6.14128 0.463223 -1.31004 0
M  V30 29 O 6.87175 0.322836 -0.168454 0
M  V30 30 C 6.46933 1.02925 0.931593 0
M  V30 31 C 5.01068 0.798931 1.28279 0
M  V30 32 H -2.39605 1.9154 0.62096 0
M  V30 33 H -2.99383 2.26943 -1.03969 0
M  V30 34 H -0.408458 -3.89518 1.9909 0
M  V30 35 H -0.230791 -4.50272 0.322543 0
M  V30 36 H -4.12996 0.153914 -2.29555 0
M  V30 37 H -4.07139 -1.31811 -1.32456 0
M  V30 38 H -5.19062 -1.52563 0.849774 0
M  V30 39 H -7.09651 -0.735211 2.15129 0
M  V30 40 H -8.17401 1.39598 1.71384 0
M  V30 41 H -7.3148 2.82097 -0.113749 0
M  V30 42 H -5.3668 2.05289 -1.47175 0
M  V30 43 H 2.12042 -4.35289 0.469446 0
M  V30 44 H 1.94782 -3.86119 2.17198 0
M  V30 45 H 4.88793 2.20447 -0.966387 0
M  V30 46 H 4.19194 0.859058 -2.03676 0
M  V30 47 H 6.67982 1.0773 -2.06513 0
M  V30 48 H 5.95178 -0.522799 -1.82841 0
M  V30 49 H 7.06228 0.679485 1.8009 0
M  V30 50 H 6.67744 2.13427 0.84485 0
M  V30 51 H 4.66027 1.73278 1.78076 0
M  V30 52 H 4.93554 -0.00303551 2.01789 0
M  V30 END ATOM
M  V30 BEGIN BOND
M  V30 1 3 1 2
M  V30 2 1 2 3
M  V30 3 2 3 4
M  V30 4 1 4 5
M  V30 5 2 5 6
M  V30 6 1 6 7
M  V30 7 2 7 8
M  V30 8 1 8 9
M  V30 9 1 9 10
M  V30 10 2 10 11
M  V30 11 1 10 12
M  V30 12 1 12 13
M  V30 13 1 13 14
M  V30 14 1 14 15
M  V30 15 2 15 16
M  V30 16 1 16 17
M  V30 17 1 13 18
M  V30 18 1 18 19
M  V30 19 2 19 20
M  V30 20 1 20 21
M  V30 21 2 21 22
M  V30 22 1 22 23
M  V30 23 2 23 24
M  V30 24 1 6 25
M  V30 25 1 4 26
M  V30 26 1 26 27
M  V30 27 1 27 28
M  V30 28 1 28 29
M  V30 29 1 29 30
M  V30 30 1 30 31
M  V30 31 1 8 3
M  V30 32 2 14 9
M  V30 33 1 24 19
M  V30 34 1 31 26
M  V30 35 1 16 7
M  V30 36 1 12 32
M  V30 37 1 12 33
M  V30 38 1 17 34
M  V30 39 1 17 35
M  V30 40 1 18 36
M  V30 41 1 18 37
M  V30 42 1 20 38
M  V30 43 1 21 39
M  V30 44 1 22 40
M  V30 45 1 23 41
M  V30 46 1 24 42
M  V30 47 1 25 43
M  V30 48 1 25 44
M  V30 49 1 27 45
M  V30 50 1 27 46
M  V30 51 1 28 47
M  V30 52 1 28 48
M  V30 53 1 30 49
M  V30 54 1 30 50
M  V30 55 1 31 51
M  V30 56 1 31 52
M  V30 END BOND
M  V30 END CTAB
M  END
