
     RDKit          3D

  0  0  0  0  0  0  0  0  0  0999 V3000
M  V30 BEGIN CTAB
M  V30 COUNTS 21 21 0 0 0
M  V30 BEGIN ATOM
M  V30 1 Br 4.62571 -0.489626 0.76609 0
M  V30 2 C 3.10384 0.358659 -0.057271 0
M  V30 3 C 1.85972 -0.341046 0.434291 0
M  V30 4 O 1.93751 -1.30034 1.24199 0
M  V30 5 C 0.54942 0.0921831 -0.0261123 0
M  V30 6 C 0.420973 1.15787 -0.926492 0
M  V30 7 C -0.813068 1.57992 -1.3718 0
M  V30 8 Cl -0.967114 2.92133 -2.50451 0
M  V30 9 C -1.92455 0.916287 -0.900459 0
M  V30 10 C -1.80078 -0.136054 -0.0115878 0
M  V30 11 C -0.569126 -0.564509 0.438896 0
M  V30 12 N -0.477569 -1.64957 1.35269 0
M  V30 13 N -2.95941 -0.802024 0.458175 0
M  V30 14 H 3.08278 1.42332 0.221807 0
M  V30 15 H 3.21045 0.20447 -1.16155 0
M  V30 16 H 1.3135 1.65406 -1.27429 0
M  V30 17 H -2.88766 1.24647 -1.24867 0
M  V30 18 H -0.404818 -1.49371 2.38027 0
M  V30 19 H -0.480065 -2.63666 1.02678 0
M  V30 20 H -3.54313 -1.29135 -0.268665 0
M  V30 21 H -3.27662 -0.849674 1.43042 0
M  V30 END ATOM
M  V30 BEGIN BOND
M  V30 1 1 1 2
M  V30 2 1 2 3
M  V30 3 2 3 4
M  V30 4 1 3 5
M  V30 5 2 5 6
M  V30 6 1 6 7
M  V30 7 1 7 8
M  V30 8 2 7 9
M  V30 9 1 9 10
M  V30 10 2 10 11
M  V30 11 1 11 12
M  V30 12 1 10 13
M  V30 13 1 11 5
M  V30 14 1 2 14
M  V30 15 1 2 15
M  V30 16 1 6 16
M  V30 17 1 9 17
M  V30 18 1 12 18
M  V30 19 1 12 19
M  V30 20 1 13 20
M  V30 21 1 13 21
M  V30 END BOND
M  V30 END CTAB
M  END
