
     RDKit          3D

  0  0  0  0  0  0  0  0  0  0999 V3000
M  V30 BEGIN CTAB
M  V30 COUNTS 25 25 0 0 0
M  V30 BEGIN ATOM
M  V30 1 C -2.06457 0.876441 1.29877 0
M  V30 2 C -1.94281 -0.0240479 0.13928 0 CFG=2
M  V30 3 C -0.772739 -0.893247 -0.0277493 0
M  V30 4 C 0.506505 -0.303262 0.325575 0
M  V30 5 C 0.898446 0.00476248 1.61421 0
M  V30 6 N 2.19024 0.38162 1.85617 0
M  V30 7 C 3.13978 0.499901 0.93345 0
M  V30 8 C 2.76997 0.213051 -0.360721 0
M  V30 9 C 1.49874 -0.181361 -0.670482 0
M  V30 10 N 1.12415 -0.395507 -2.00199 0
M  V30 11 O -0.833545 -1.70476 -1.13013 0
M  V30 12 N -2.07448 0.871971 -1.05375 0
M  V30 13 H -2.5121 0.379243 2.17198 0
M  V30 14 H -2.87938 1.62637 0.994126 0
M  V30 15 H -1.22039 1.52326 1.51596 0
M  V30 16 H -2.8545 -0.674541 0.0769561 0
M  V30 17 H -0.937402 -1.69912 0.837819 0
M  V30 18 H 0.245554 -0.0268949 2.45782 0
M  V30 19 H 4.15808 0.786007 1.13998 0
M  V30 20 H 3.54414 0.341424 -1.13528 0
M  V30 21 H 0.828976 0.478341 -2.56902 0
M  V30 22 H 1.06867 -1.2576 -2.55314 0
M  V30 23 H -0.589621 -2.65995 -0.913096 0
M  V30 24 H -1.28555 1.56131 -1.02649 0
M  V30 25 H -2.00617 0.276597 -1.92025 0
M  V30 END ATOM
M  V30 BEGIN BOND
M  V30 1 1 1 2
M  V30 2 1 2 3
M  V30 3 1 3 4
M  V30 4 2 4 5
M  V30 5 1 5 6
M  V30 6 2 6 7
M  V30 7 1 7 8
M  V30 8 2 8 9
M  V30 9 1 9 10
M  V30 10 1 3 11
M  V30 11 1 2 12
M  V30 12 1 9 4
M  V30 13 1 1 13
M  V30 14 1 1 14
M  V30 15 1 1 15
M  V30 16 1 2 16 CFG=1
M  V30 17 1 3 17
M  V30 18 1 5 18
M  V30 19 1 7 19
M  V30 20 1 8 20
M  V30 21 1 10 21
M  V30 22 1 10 22
M  V30 23 1 11 23
M  V30 24 1 12 24
M  V30 25 1 12 25
M  V30 END BOND
M  V30 END CTAB
M  END
