
     RDKit          3D

  0  0  0  0  0  0  0  0  0  0999 V3000
M  V30 BEGIN CTAB
M  V30 COUNTS 39 40 0 0 0
M  V30 BEGIN ATOM
M  V30 1 C 4.69385 1.69294 1.70524 0
M  V30 2 C 4.85976 0.277431 1.1685 0
M  V30 3 C 3.53572 -0.248213 0.763753 0
M  V30 4 C 3.05499 -0.0776709 -0.513294 0
M  V30 5 C 1.80668 -0.569892 -0.90607 0
M  V30 6 C 1.03921 -1.23771 -0.00643321 0
M  V30 7 C 1.49864 -1.4284 1.301 0
M  V30 8 C 2.73123 -0.931203 1.65443 0
M  V30 9 C -0.255827 -1.77494 -0.357908 0
M  V30 10 O -0.946358 -2.36854 0.545779 0
M  V30 11 C -0.780903 -1.64782 -1.73303 0
M  V30 12 S -1.0952 0.109646 -2.10143 0
M  V30 13 C -2.42384 0.644439 -1.03118 0
M  V30 14 N -3.71887 0.529025 -1.42678 0
M  V30 15 C -4.7371 0.924917 -0.644105 0
M  V30 16 N -6.10869 0.81409 -1.03463 0
M  V30 17 C -4.42572 1.46444 0.600925 0
M  V30 18 C -3.11303 1.59112 1.02353 0
M  V30 19 N -2.15178 1.17036 0.179263 0
M  V30 20 N -2.79878 2.1449 2.2964 0
M  V30 21 C 0.0503441 -2.32758 -2.78003 0
M  V30 22 H 4.71702 2.42057 0.867016 0
M  V30 23 H 3.71836 1.79902 2.22854 0
M  V30 24 H 5.52404 1.92563 2.42716 0
M  V30 25 H 5.59777 0.272881 0.347027 0
M  V30 26 H 5.26845 -0.369989 1.99651 0
M  V30 27 H 3.65194 0.454213 -1.25181 0
M  V30 28 H 1.50432 -0.393307 -1.91208 0
M  V30 29 H 0.872892 -1.9625 2.00245 0
M  V30 30 H 3.12531 -1.06247 2.67396 0
M  V30 31 H -1.77092 -2.20957 -1.74013 0
M  V30 32 H -6.70966 1.61627 -1.23574 0
M  V30 33 H -6.49891 -0.159258 -1.11225 0
M  V30 34 H -5.22108 1.80023 1.27159 0
M  V30 35 H -1.97562 1.74013 2.79309 0
M  V30 36 H -3.314 2.90272 2.75709 0
M  V30 37 H 0.280241 -1.58841 -3.58453 0
M  V30 38 H -0.459345 -3.23462 -3.21326 0
M  V30 39 H 0.974851 -2.70288 -2.27637 0
M  V30 END ATOM
M  V30 BEGIN BOND
M  V30 1 1 1 2
M  V30 2 1 2 3
M  V30 3 2 3 4
M  V30 4 1 4 5
M  V30 5 2 5 6
M  V30 6 1 6 7
M  V30 7 2 7 8
M  V30 8 1 6 9
M  V30 9 2 9 10
M  V30 10 1 9 11
M  V30 11 1 11 12
M  V30 12 1 12 13
M  V30 13 2 13 14
M  V30 14 1 14 15
M  V30 15 1 15 16
M  V30 16 2 15 17
M  V30 17 1 17 18
M  V30 18 2 18 19
M  V30 19 1 18 20
M  V30 20 1 11 21
M  V30 21 1 8 3
M  V30 22 1 19 13
M  V30 23 1 1 22
M  V30 24 1 1 23
M  V30 25 1 1 24
M  V30 26 1 2 25
M  V30 27 1 2 26
M  V30 28 1 4 27
M  V30 29 1 5 28
M  V30 30 1 7 29
M  V30 31 1 8 30
M  V30 32 1 11 31
M  V30 33 1 16 32
M  V30 34 1 16 33
M  V30 35 1 17 34
M  V30 36 1 20 35
M  V30 37 1 20 36
M  V30 38 1 21 37
M  V30 39 1 21 38
M  V30 40 1 21 39
M  V30 END BOND
M  V30 END CTAB
M  END
