
     RDKit          3D

  0  0  0  0  0  0  0  0  0  0999 V3000
M  V30 BEGIN CTAB
M  V30 COUNTS 26 27 0 0 0
M  V30 BEGIN ATOM
M  V30 1 C -2.71766 -0.527316 1.01976 0
M  V30 2 C -2.19165 -0.651304 -0.403615 0
M  V30 3 C -1.07457 0.295924 -0.522439 0
M  V30 4 C 0.249688 0.0708117 -0.220268 0
M  V30 5 C 0.7039 -1.17976 0.110788 0
M  V30 6 N -0.145883 -2.3012 0.116098 0
M  V30 7 N 2.01596 -1.39623 0.387983 0
M  V30 8 C 2.91827 -0.4204 0.349412 0
M  V30 9 N 4.30999 -0.640781 0.632984 0
M  V30 10 N 2.47883 0.80084 0.0233478 0
M  V30 11 C 1.20007 1.08899 -0.261173 0
M  V30 12 C 0.848032 2.3728 -0.612235 0
M  V30 13 C -0.462152 2.61441 -0.919342 0
M  V30 14 C -1.41005 1.63201 -0.884757 0
M  V30 15 H -2.53722 0.472686 1.45503 0
M  V30 16 H -2.33592 -1.24889 1.74595 0
M  V30 17 H -3.82925 -0.657339 1.06887 0
M  V30 18 H -2.10379 -1.68441 -0.622164 0
M  V30 19 H -3.09024 -0.227645 -0.995605 0
M  V30 20 H -0.671446 -2.70576 0.899162 0
M  V30 21 H -0.217492 -2.805 -0.819394 0
M  V30 22 H 4.95405 -0.871327 -0.165595 0
M  V30 23 H 4.73179 -0.588867 1.57787 0
M  V30 24 H 1.6201 3.13156 -0.629833 0
M  V30 25 H -0.790388 3.61777 -1.20352 0
M  V30 26 H -2.45297 1.80843 -1.12731 0
M  V30 END ATOM
M  V30 BEGIN BOND
M  V30 1 1 1 2
M  V30 2 1 2 3
M  V30 3 2 3 4
M  V30 4 1 4 5
M  V30 5 1 5 6
M  V30 6 2 5 7
M  V30 7 1 7 8
M  V30 8 1 8 9
M  V30 9 2 8 10
M  V30 10 1 10 11
M  V30 11 2 11 12
M  V30 12 1 12 13
M  V30 13 2 13 14
M  V30 14 1 14 3
M  V30 15 1 11 4
M  V30 16 1 1 15
M  V30 17 1 1 16
M  V30 18 1 1 17
M  V30 19 1 2 18
M  V30 20 1 2 19
M  V30 21 1 6 20
M  V30 22 1 6 21
M  V30 23 1 9 22
M  V30 24 1 9 23
M  V30 25 1 12 24
M  V30 26 1 13 25
M  V30 27 1 14 26
M  V30 END BOND
M  V30 END CTAB
M  END
