
     RDKit          3D

  0  0  0  0  0  0  0  0  0  0999 V3000
M  V30 BEGIN CTAB
M  V30 COUNTS 24 25 0 0 0
M  V30 BEGIN ATOM
M  V30 1 N 3.42666 -2.03855 0.47361 0
M  V30 2 C 2.70693 -0.91805 -0.0191903 0
M  V30 3 C 3.38514 0.0673816 -0.715427 0
M  V30 4 C 2.73814 1.17244 -1.21404 0
M  V30 5 C 1.35959 1.29519 -1.00751 0
M  V30 6 C 0.697584 0.315091 -0.317552 0
M  V30 7 N 1.38921 -0.760341 0.155273 0
M  V30 8 C -0.727451 0.422421 -0.0929273 0
M  V30 9 N -1.34743 -0.574992 0.598448 0
M  V30 10 C -2.64035 -0.608224 0.876494 0
M  V30 11 N -3.22779 -1.69029 1.60947 0
M  V30 12 C -3.42395 0.43221 0.441991 0
M  V30 13 C -2.8593 1.46025 -0.255708 0
M  V30 14 C -1.4918 1.45061 -0.524329 0
M  V30 15 H 4.42547 -2.00077 0.7612 0
M  V30 16 H 2.93216 -2.94989 0.553324 0
M  V30 17 H 4.46966 -0.0158289 -0.885507 0
M  V30 18 H 3.25491 1.96041 -1.76564 0
M  V30 19 H 0.875624 2.17923 -1.41314 0
M  V30 20 H -2.65505 -2.40145 2.09004 0
M  V30 21 H -4.26496 -1.78108 1.67214 0
M  V30 22 H -4.49461 0.417565 0.664928 0
M  V30 23 H -3.4619 2.28832 -0.60574 0
M  V30 24 H -1.0665 2.27836 -1.08022 0
M  V30 END ATOM
M  V30 BEGIN BOND
M  V30 1 1 1 2
M  V30 2 2 2 3
M  V30 3 1 3 4
M  V30 4 2 4 5
M  V30 5 1 5 6
M  V30 6 2 6 7
M  V30 7 1 6 8
M  V30 8 2 8 9
M  V30 9 1 9 10
M  V30 10 1 10 11
M  V30 11 2 10 12
M  V30 12 1 12 13
M  V30 13 2 13 14
M  V30 14 1 7 2
M  V30 15 1 14 8
M  V30 16 1 1 15
M  V30 17 1 1 16
M  V30 18 1 3 17
M  V30 19 1 4 18
M  V30 20 1 5 19
M  V30 21 1 11 20
M  V30 22 1 11 21
M  V30 23 1 12 22
M  V30 24 1 13 23
M  V30 25 1 14 24
M  V30 END BOND
M  V30 END CTAB
M  END
