
     RDKit          3D

  0  0  0  0  0  0  0  0  0  0999 V3000
M  V30 BEGIN CTAB
M  V30 COUNTS 26 26 0 0 0
M  V30 BEGIN ATOM
M  V30 1 C -3.8011 -1.38569 0.849149 0
M  V30 2 O -2.41397 -1.59158 1.01278 0
M  V30 3 C -1.49915 -0.715421 0.445849 0
M  V30 4 C -1.91516 0.373286 -0.28806 0
M  V30 5 C -1.03045 1.27167 -0.87038 0
M  V30 6 N -1.48023 2.38838 -1.62359 0
M  V30 7 C 0.324012 1.01888 -0.676116 0
M  V30 8 C 0.772077 -0.0552557 0.0486835 0
M  V30 9 C -0.140597 -0.923296 0.610237 0
M  V30 10 C 2.19815 -0.292856 0.234196 0
M  V30 11 O 3.0245 0.506987 -0.283542 0
M  V30 12 O 2.69023 -1.36312 0.957292 0
M  V30 13 C 4.09142 -1.5155 1.0855 0
M  V30 14 N 1.23086 1.93347 -1.26886 0
M  V30 15 H -4.14017 -1.56767 -0.185592 0
M  V30 16 H -4.36171 -1.99346 1.59353 0
M  V30 17 H -4.03985 -0.308852 1.08529 0
M  V30 18 H -2.97535 0.557447 -0.430973 0
M  V30 19 H -0.954612 2.79365 -2.42341 0
M  V30 20 H -2.38577 2.83134 -1.36663 0
M  V30 21 H 0.145762 -1.79028 1.19383 0
M  V30 22 H 4.45361 -1.27174 2.09993 0
M  V30 23 H 4.40841 -2.5651 0.875608 0
M  V30 24 H 4.6591 -0.879515 0.376926 0
M  V30 25 H 1.32345 1.93338 -2.30957 0
M  V30 26 H 1.81652 2.61086 -0.742067 0
M  V30 END ATOM
M  V30 BEGIN BOND
M  V30 1 1 1 2
M  V30 2 1 2 3
M  V30 3 2 3 4
M  V30 4 1 4 5
M  V30 5 1 5 6
M  V30 6 2 5 7
M  V30 7 1 7 8
M  V30 8 2 8 9
M  V30 9 1 8 10
M  V30 10 2 10 11
M  V30 11 1 10 12
M  V30 12 1 12 13
M  V30 13 1 7 14
M  V30 14 1 9 3
M  V30 15 1 1 15
M  V30 16 1 1 16
M  V30 17 1 1 17
M  V30 18 1 4 18
M  V30 19 1 6 19
M  V30 20 1 6 20
M  V30 21 1 9 21
M  V30 22 1 13 22
M  V30 23 1 13 23
M  V30 24 1 13 24
M  V30 25 1 14 25
M  V30 26 1 14 26
M  V30 END BOND
M  V30 END CTAB
M  END
