
     RDKit          3D

  0  0  0  0  0  0  0  0  0  0999 V3000
M  V30 BEGIN CTAB
M  V30 COUNTS 36 37 0 0 0
M  V30 BEGIN ATOM
M  V30 1 N 3.41439 2.82423 -0.121625 0
M  V30 2 C 2.62877 1.78785 -0.808355 0
M  V30 3 C 1.83062 1.0197 0.234441 0
M  V30 4 N 1.03528 -0.00241901 -0.314465 0
M  V30 5 C 1.88038 -1.11296 -0.746806 0
M  V30 6 C 2.15218 -1.96554 0.490952 0
M  V30 7 C 0.916377 -2.77936 0.792248 0
M  V30 8 C -0.252228 -2.03153 0.188379 0
M  V30 9 C -0.0595252 -0.531542 0.389527 0 CFG=2
M  V30 10 C -1.37119 0.0908073 0.125458 0
M  V30 11 C -2.43346 -0.616142 -0.441065 0
M  V30 12 C -3.67474 -0.0524394 -0.638497 0
M  V30 13 C -3.88883 1.24882 -0.271056 0
M  V30 14 N -2.88838 1.93529 0.268866 0
M  V30 15 C -1.65762 1.38629 0.467575 0
M  V30 16 N -5.18179 1.85163 -0.454015 0
M  V30 17 H 4.39403 2.43248 0.00253415 0
M  V30 18 H 3.04402 2.91129 0.850829 0
M  V30 19 H 1.9244 2.28735 -1.50557 0
M  V30 20 H 3.31814 1.10182 -1.30497 0
M  V30 21 H 2.67032 0.600015 0.902231 0
M  V30 22 H 1.28487 1.70319 0.895122 0
M  V30 23 H 2.82752 -0.692348 -1.12023 0
M  V30 24 H 1.41342 -1.68825 -1.5454 0
M  V30 25 H 3.06075 -2.55974 0.389865 0
M  V30 26 H 2.29668 -1.31133 1.37608 0
M  V30 27 H 0.976041 -3.81506 0.449734 0
M  V30 28 H 0.709845 -2.80464 1.90514 0
M  V30 29 H -1.15023 -2.32909 0.759585 0
M  V30 30 H -0.358853 -2.33495 -0.85213 0
M  V30 31 H 0.112218 -0.433014 1.50425 0
M  V30 32 H -2.25606 -1.64061 -0.732505 0
M  V30 33 H -4.49807 -0.620272 -1.0821 0
M  V30 34 H -0.935435 2.04275 0.919732 0
M  V30 35 H -5.39373 2.42611 -1.27733 0
M  V30 36 H -5.89013 1.6716 0.303574 0
M  V30 END ATOM
M  V30 BEGIN BOND
M  V30 1 1 1 2
M  V30 2 1 2 3
M  V30 3 1 3 4
M  V30 4 1 4 5
M  V30 5 1 5 6
M  V30 6 1 6 7
M  V30 7 1 7 8
M  V30 8 1 8 9
M  V30 9 1 9 10
M  V30 10 2 10 11
M  V30 11 1 11 12
M  V30 12 2 12 13
M  V30 13 1 13 14
M  V30 14 2 14 15
M  V30 15 1 13 16
M  V30 16 1 9 4
M  V30 17 1 15 10
M  V30 18 1 1 17
M  V30 19 1 1 18
M  V30 20 1 2 19
M  V30 21 1 2 20
M  V30 22 1 3 21
M  V30 23 1 3 22
M  V30 24 1 5 23
M  V30 25 1 5 24
M  V30 26 1 6 25
M  V30 27 1 6 26
M  V30 28 1 7 27
M  V30 29 1 7 28
M  V30 30 1 8 29
M  V30 31 1 8 30
M  V30 32 1 9 31 CFG=1
M  V30 33 1 11 32
M  V30 34 1 12 33
M  V30 35 1 15 34
M  V30 36 1 16 35
M  V30 37 1 16 36
M  V30 END BOND
M  V30 END CTAB
M  END
