
     RDKit          3D

  0  0  0  0  0  0  0  0  0  0999 V3000
M  V30 BEGIN CTAB
M  V30 COUNTS 46 49 0 0 0
M  V30 BEGIN ATOM
M  V30 1 N 9.78458 0.262576 -0.369436 0
M  V30 2 C 8.49814 0.753826 -0.757977 0
M  V30 3 N 8.37258 1.73426 -1.56631 0
M  V30 4 C 7.31323 0.120959 -0.21916 0
M  V30 5 C 7.41979 -0.949205 0.663552 0
M  V30 6 C 6.27676 -1.53287 1.16113 0
M  V30 7 C 5.00991 -1.09028 0.812515 0
M  V30 8 O 3.79389 -1.46178 1.13579 0
M  V30 9 C 2.88243 -0.730803 0.544133 0
M  V30 10 C 3.57198 0.185408 -0.222087 0
M  V30 11 C 4.92598 -0.026089 -0.0655621 0
M  V30 12 C 6.05828 0.574315 -0.576832 0
M  V30 13 C 1.41568 -0.862341 0.672524 0
M  V30 14 C 0.636479 -0.033232 -0.00192721 0
M  V30 15 C -0.793737 -0.104783 0.0764112 0
M  V30 16 C -1.52868 0.745417 -0.616041 0
M  V30 17 C -2.98792 0.686257 -0.547557 0
M  V30 18 C -3.71912 -0.210716 0.203194 0
M  V30 19 C -5.07675 0.0535937 0.00311323 0
M  V30 20 C -6.25065 -0.480706 0.460229 0
M  V30 21 C -7.46776 0.0422448 0.0446106 0
M  V30 22 C -7.46862 1.09782 -0.827304 0
M  V30 23 C -6.27864 1.65097 -1.30021 0
M  V30 24 C -5.08023 1.12252 -0.879804 0
M  V30 25 O -3.83977 1.44786 -1.16521 0
M  V30 26 C -8.71527 -0.5081 0.515945 0
M  V30 27 N -8.6699 -1.6128 1.42781 0
M  V30 28 N -9.85765 -0.068288 0.168002 0
M  V30 29 H 10.0473 0.217367 0.6372 0
M  V30 30 H 10.4755 -0.0549877 -1.06473 0
M  V30 31 H 9.22943 2.17861 -1.94497 0
M  V30 32 H 8.42209 -1.29188 0.933178 0
M  V30 33 H 6.4082 -2.36222 1.84456 0
M  V30 34 H 3.11821 0.9303 -0.831401 0
M  V30 35 H 5.9381 1.41777 -1.27205 0
M  V30 36 H 1.03509 -1.624 1.30685 0
M  V30 37 H 1.0993 0.714603 -0.625936 0
M  V30 38 H -1.30546 -0.846135 0.695709 0
M  V30 39 H -1.06952 1.51133 -1.25491 0
M  V30 40 H -3.34932 -1.00056 0.850653 0
M  V30 41 H -6.21119 -1.31162 1.14605 0
M  V30 42 H -8.39679 1.56222 -1.19844 0
M  V30 43 H -6.313 2.48519 -1.98883 0
M  V30 44 H -8.84554 -1.45783 2.44663 0
M  V30 45 H -8.46394 -2.57884 1.09869 0
M  V30 46 H -10.0435 0.704648 -0.467947 0
M  V30 END ATOM
M  V30 BEGIN BOND
M  V30 1 1 1 2
M  V30 2 2 2 3 CFG=2
M  V30 3 1 2 4
M  V30 4 2 4 5
M  V30 5 1 5 6
M  V30 6 2 6 7
M  V30 7 1 7 8
M  V30 8 1 8 9
M  V30 9 2 9 10
M  V30 10 1 10 11
M  V30 11 2 11 12
M  V30 12 1 9 13
M  V30 13 2 13 14
M  V30 14 1 14 15
M  V30 15 2 15 16
M  V30 16 1 16 17
M  V30 17 2 17 18
M  V30 18 1 18 19
M  V30 19 2 19 20
M  V30 20 1 20 21
M  V30 21 2 21 22
M  V30 22 1 22 23
M  V30 23 2 23 24
M  V30 24 1 24 25
M  V30 25 1 21 26
M  V30 26 1 26 27
M  V30 27 2 26 28 CFG=2
M  V30 28 1 12 4
M  V30 29 1 25 17
M  V30 30 1 11 7
M  V30 31 1 24 19
M  V30 32 1 1 29
M  V30 33 1 1 30
M  V30 34 1 3 31
M  V30 35 1 5 32
M  V30 36 1 6 33
M  V30 37 1 10 34
M  V30 38 1 12 35
M  V30 39 1 13 36
M  V30 40 1 14 37
M  V30 41 1 15 38
M  V30 42 1 16 39
M  V30 43 1 18 40
M  V30 44 1 20 41
M  V30 45 1 22 42
M  V30 46 1 23 43
M  V30 47 1 27 44
M  V30 48 1 27 45
M  V30 49 1 28 46
M  V30 END BOND
M  V30 END CTAB
M  END
