
     RDKit          3D

  0  0  0  0  0  0  0  0  0  0999 V3000
M  V30 BEGIN CTAB
M  V30 COUNTS 102 102 0 0 0
M  V30 BEGIN ATOM
M  V30 1 C -12.6797 0.0382024 4.03138 0
M  V30 2 C -11.7947 0.948679 3.26923 0
M  V30 3 C -10.839 0.190105 2.35495 0
M  V30 4 C -10.0459 1.16903 1.56027 0
M  V30 5 C -9.08372 0.675154 0.581048 0
M  V30 6 C -7.89432 -0.142572 1.07653 0
M  V30 7 C -7.14295 0.668336 2.04446 0
M  V30 8 C -5.88555 0.221679 2.65088 0
M  V30 9 C -4.76014 -0.00954016 1.64197 0
M  V30 10 C -4.87382 -1.22224 0.795534 0
M  V30 11 C -4.01533 -1.28283 -0.400338 0
M  V30 12 C -2.56445 -1.29727 -0.385969 0
M  V30 13 C -1.83424 -0.149503 0.262891 0
M  V30 14 C -0.322254 -0.251826 -0.101216 0
M  V30 15 O 0.401831 -1.21349 0.145036 0
M  V30 16 C 1.17199 -2.23136 0.599908 0
M  V30 17 C 1.77838 -3.08864 -0.351209 0
M  V30 18 O 1.50081 -2.69961 -1.69331 0
M  V30 19 C 1.97861 -3.26374 -2.82849 0
M  V30 20 C 3.34392 -3.5138 -3.22332 0
M  V30 21 C 4.35304 -2.44138 -3.33975 0
M  V30 22 C 4.66626 -1.71016 -2.073 0
M  V30 23 C 5.79428 -0.736768 -2.34655 0
M  V30 24 C 6.22322 0.0990277 -1.21329 0
M  V30 25 C 5.17322 1.07551 -0.755662 0
M  V30 26 C 5.68301 1.88164 0.410032 0
M  V30 27 C 6.91544 2.65997 0.252688 0
M  V30 28 C 7.03509 3.82378 -0.632805 0
M  V30 29 C 6.75772 3.58208 -2.07343 0
M  V30 30 C 6.97002 4.85097 -2.89901 0
M  V30 31 C 8.37172 5.36401 -2.81615 0
M  V30 32 C 9.41539 4.4044 -3.23512 0
M  V30 33 C 2.53996 -4.13673 -0.0156169 0
M  V30 34 C 2.75242 -4.3903 1.34025 0
M  V30 35 N 3.53215 -5.50506 1.68237 0
M  V30 36 C 2.19558 -3.58366 2.33277 0
M  V30 37 N 2.42495 -3.87139 3.70959 0
M  V30 38 C 1.42888 -2.53661 1.93071 0
M  V30 39 H -12.1728 -0.876918 4.3116 0
M  V30 40 H -13.0291 0.53533 4.97358 0
M  V30 41 H -13.5749 -0.16133 3.38021 0
M  V30 42 H -12.3076 1.78514 2.75127 0
M  V30 43 H -11.1355 1.4611 4.03328 0
M  V30 44 H -10.221 -0.427817 3.04134 0
M  V30 45 H -11.3777 -0.507598 1.70258 0
M  V30 46 H -10.7979 1.8085 0.99585 0
M  V30 47 H -9.52916 1.92204 2.23124 0
M  V30 48 H -9.54035 0.0969714 -0.27241 0
M  V30 49 H -8.61778 1.57171 0.0677271 0
M  V30 50 H -7.2592 -0.215247 0.122724 0
M  V30 51 H -8.14281 -1.16905 1.34081 0
M  V30 52 H -6.99898 1.70176 1.57501 0
M  V30 53 H -7.82685 0.950913 2.94105 0
M  V30 54 H -6.06598 -0.799795 3.10408 0
M  V30 55 H -5.52813 0.879342 3.48407 0
M  V30 56 H -4.7056 0.912072 1.00438 0
M  V30 57 H -3.83195 0.0355339 2.27757 0
M  V30 58 H -5.83537 -1.72335 0.718538 0
M  V30 59 H -4.32186 -2.03402 1.50394 0
M  V30 60 H -4.40875 -0.449086 -1.10544 0
M  V30 61 H -4.36208 -2.19807 -0.991959 0
M  V30 62 H -2.18577 -1.34559 -1.44198 0
M  V30 63 H -2.17642 -2.27642 0.0550912 0
M  V30 64 H -1.85273 -0.297752 1.35233 0
M  V30 65 H -2.18123 0.819617 -0.0493238 0
M  V30 66 H 0.101067 0.755251 0.348156 0
M  V30 67 H -0.284979 0.0706625 -1.22862 0
M  V30 68 H 1.54179 -2.48266 -3.66821 0
M  V30 69 H 1.28549 -4.13357 -3.1058 0
M  V30 70 H 3.78532 -4.41927 -2.72114 0
M  V30 71 H 3.27419 -3.95141 -4.34211 0
M  V30 72 H 3.95226 -1.70113 -4.11909 0
M  V30 73 H 5.29274 -2.88124 -3.78137 0
M  V30 74 H 5.03929 -2.47287 -1.31539 0
M  V30 75 H 3.8029 -1.15614 -1.70278 0
M  V30 76 H 6.66669 -1.31161 -2.79157 0
M  V30 77 H 5.45633 -0.0776402 -3.20275 0
M  V30 78 H 6.45522 -0.620417 -0.351497 0
M  V30 79 H 7.21604 0.567595 -1.4099 0
M  V30 80 H 4.36833 0.397786 -0.279207 0
M  V30 81 H 4.65071 1.59033 -1.52845 0
M  V30 82 H 4.83698 2.57146 0.710103 0
M  V30 83 H 5.81114 1.16975 1.26077 0
M  V30 84 H 7.77058 1.90337 0.0523371 0
M  V30 85 H 7.21325 3.00569 1.29411 0
M  V30 86 H 6.31263 4.62999 -0.237299 0
M  V30 87 H 8.02557 4.36493 -0.480148 0
M  V30 88 H 7.2053 2.71196 -2.53854 0
M  V30 89 H 5.63601 3.45007 -2.13958 0
M  V30 90 H 6.20118 5.57306 -2.58347 0
M  V30 91 H 6.76094 4.57758 -3.95905 0
M  V30 92 H 8.45105 6.28181 -3.49904 0
M  V30 93 H 8.57901 5.7755 -1.82094 0
M  V30 94 H 10.0288 3.95259 -2.43093 0
M  V30 95 H 10.1892 4.99052 -3.8348 0
M  V30 96 H 9.0716 3.64593 -3.95604 0
M  V30 97 H 2.98651 -4.8276 -0.742307 0
M  V30 98 H 4.48563 -5.40471 2.04998 0
M  V30 99 H 3.1475 -6.46234 1.55886 0
M  V30 100 H 3.40003 -4.06748 3.99987 0
M  V30 101 H 1.64167 -3.89792 4.41823 0
M  V30 102 H 0.957608 -1.87285 2.68221 0
M  V30 END ATOM
M  V30 BEGIN BOND
M  V30 1 1 1 2
M  V30 2 1 2 3
M  V30 3 1 3 4
M  V30 4 1 4 5
M  V30 5 1 5 6
M  V30 6 1 6 7
M  V30 7 1 7 8
M  V30 8 1 8 9
M  V30 9 1 9 10
M  V30 10 1 10 11
M  V30 11 1 11 12
M  V30 12 1 12 13
M  V30 13 1 13 14
M  V30 14 1 14 15
M  V30 15 1 15 16
M  V30 16 2 16 17
M  V30 17 1 17 18
M  V30 18 1 18 19
M  V30 19 1 19 20
M  V30 20 1 20 21
M  V30 21 1 21 22
M  V30 22 1 22 23
M  V30 23 1 23 24
M  V30 24 1 24 25
M  V30 25 1 25 26
M  V30 26 1 26 27
M  V30 27 1 27 28
M  V30 28 1 28 29
M  V30 29 1 29 30
M  V30 30 1 30 31
M  V30 31 1 31 32
M  V30 32 1 17 33
M  V30 33 2 33 34
M  V30 34 1 34 35
M  V30 35 1 34 36
M  V30 36 1 36 37
M  V30 37 2 36 38
M  V30 38 1 38 16
M  V30 39 1 1 39
M  V30 40 1 1 40
M  V30 41 1 1 41
M  V30 42 1 2 42
M  V30 43 1 2 43
M  V30 44 1 3 44
M  V30 45 1 3 45
M  V30 46 1 4 46
M  V30 47 1 4 47
M  V30 48 1 5 48
M  V30 49 1 5 49
M  V30 50 1 6 50
M  V30 51 1 6 51
M  V30 52 1 7 52
M  V30 53 1 7 53
M  V30 54 1 8 54
M  V30 55 1 8 55
M  V30 56 1 9 56
M  V30 57 1 9 57
M  V30 58 1 10 58
M  V30 59 1 10 59
M  V30 60 1 11 60
M  V30 61 1 11 61
M  V30 62 1 12 62
M  V30 63 1 12 63
M  V30 64 1 13 64
M  V30 65 1 13 65
M  V30 66 1 14 66
M  V30 67 1 14 67
M  V30 68 1 19 68
M  V30 69 1 19 69
M  V30 70 1 20 70
M  V30 71 1 20 71
M  V30 72 1 21 72
M  V30 73 1 21 73
M  V30 74 1 22 74
M  V30 75 1 22 75
M  V30 76 1 23 76
M  V30 77 1 23 77
M  V30 78 1 24 78
M  V30 79 1 24 79
M  V30 80 1 25 80
M  V30 81 1 25 81
M  V30 82 1 26 82
M  V30 83 1 26 83
M  V30 84 1 27 84
M  V30 85 1 27 85
M  V30 86 1 28 86
M  V30 87 1 28 87
M  V30 88 1 29 88
M  V30 89 1 29 89
M  V30 90 1 30 90
M  V30 91 1 30 91
M  V30 92 1 31 92
M  V30 93 1 31 93
M  V30 94 1 32 94
M  V30 95 1 32 95
M  V30 96 1 32 96
M  V30 97 1 33 97
M  V30 98 1 35 98
M  V30 99 1 35 99
M  V30 100 1 37 100
M  V30 101 1 37 101
M  V30 102 1 38 102
M  V30 END BOND
M  V30 END CTAB
M  END
