
     RDKit          3D

  0  0  0  0  0  0  0  0  0  0999 V3000
M  V30 BEGIN CTAB
M  V30 COUNTS 31 32 0 0 0
M  V30 BEGIN ATOM
M  V30 1 N 4.72412 -1.5183 -0.495804 0
M  V30 2 C 3.5798 -0.692191 -0.288583 0
M  V30 3 C 3.07801 -0.504796 0.982554 0
M  V30 4 C 1.9637 0.297717 1.19743 0
M  V30 5 C 1.31834 0.935171 0.156351 0
M  V30 6 C 0.123659 1.79705 0.376608 0
M  V30 7 C -1.13987 1.0202 0.295805 0
M  V30 8 C -1.79191 0.872381 -0.910506 0
M  V30 9 C -2.98086 0.147344 -1.01383 0
M  V30 10 C -3.52773 -0.438967 0.102094 0
M  V30 11 N -4.75499 -1.18748 -0.00394236 0
M  V30 12 C -2.88431 -0.294839 1.30044 0
M  V30 13 O -3.44808 -0.896933 2.44012 0
M  V30 14 C -1.70658 0.423512 1.40208 0
M  V30 15 C 1.82074 0.747153 -1.11363 0
M  V30 16 C 2.92778 -0.050982 -1.32133 0
M  V30 17 O 3.44863 -0.251279 -2.60173 0
M  V30 18 H 5.67152 -1.1663 -0.689223 0
M  V30 19 H 4.56318 -2.55966 -0.442238 0
M  V30 20 H 3.58942 -1.00822 1.79592 0
M  V30 21 H 1.58526 0.43412 2.18934 0
M  V30 22 H 0.150189 2.24244 1.40819 0
M  V30 23 H 0.0795605 2.65142 -0.318472 0
M  V30 24 H -1.39732 1.3165 -1.81274 0
M  V30 25 H -3.50035 0.0253191 -1.95535 0
M  V30 26 H -4.72853 -2.00437 -0.649955 0
M  V30 27 H -5.56326 -0.876663 0.551762 0
M  V30 28 H -4.30176 -1.42007 2.37758 0
M  V30 29 H -1.22175 0.516403 2.37738 0
M  V30 30 H 1.3232 1.24301 -1.94604 0
M  V30 31 H 3.0002 0.201316 -3.39029 0
M  V30 END ATOM
M  V30 BEGIN BOND
M  V30 1 1 1 2
M  V30 2 2 2 3
M  V30 3 1 3 4
M  V30 4 2 4 5
M  V30 5 1 5 6
M  V30 6 1 6 7
M  V30 7 2 7 8
M  V30 8 1 8 9
M  V30 9 2 9 10
M  V30 10 1 10 11
M  V30 11 1 10 12
M  V30 12 1 12 13
M  V30 13 2 12 14
M  V30 14 1 5 15
M  V30 15 2 15 16
M  V30 16 1 16 17
M  V30 17 1 16 2
M  V30 18 1 14 7
M  V30 19 1 1 18
M  V30 20 1 1 19
M  V30 21 1 3 20
M  V30 22 1 4 21
M  V30 23 1 6 22
M  V30 24 1 6 23
M  V30 25 1 8 24
M  V30 26 1 9 25
M  V30 27 1 11 26
M  V30 28 1 11 27
M  V30 29 1 13 28
M  V30 30 1 14 29
M  V30 31 1 15 30
M  V30 32 1 17 31
M  V30 END BOND
M  V30 END CTAB
M  END
