
     RDKit          3D

  0  0  0  0  0  0  0  0  0  0999 V3000
M  V30 BEGIN CTAB
M  V30 COUNTS 26 26 0 0 0
M  V30 BEGIN ATOM
M  V30 1 N -2.19217 -0.493015 -1.76339 0
M  V30 2 C -2.23107 0.0505927 -0.458889 0
M  V30 3 N -3.36348 0.245586 0.106903 0
M  V30 4 N -3.55706 0.765897 1.36919 0
M  V30 5 N -1.02143 0.369967 0.199593 0
M  V30 6 C 0.119353 -0.514113 0.245969 0
M  V30 7 C 0.616239 -0.810996 -1.14965 0
M  V30 8 O 1.96771 -1.11473 -1.18046 0
M  V30 9 C 2.7853 -0.1413 -0.688213 0
M  V30 10 C 2.08127 0.904804 0.140173 0
M  V30 11 C 1.17388 0.126556 1.1039 0
M  V30 12 O 1.89579 -0.891462 1.71722 0
M  V30 13 H -2.00081 0.0771943 -2.63017 0
M  V30 14 H -2.35771 -1.52765 -1.93972 0
M  V30 15 H -4.35361 0.438282 1.94567 0
M  V30 16 H -2.92124 1.48334 1.76185 0
M  V30 17 H -0.977063 1.29761 0.667429 0
M  V30 18 H -0.197499 -1.44238 0.765641 0
M  V30 19 H 0.0764192 -1.71686 -1.4981 0
M  V30 20 H 0.349116 0.00131514 -1.86273 0
M  V30 21 H 3.51709 -0.642839 0.0116413 0
M  V30 22 H 3.41675 0.366567 -1.44584 0
M  V30 23 H 1.42574 1.48024 -0.535298 0
M  V30 24 H 2.81446 1.5158 0.662314 0
M  V30 25 H 0.778811 0.862506 1.81401 0
M  V30 26 H 2.15523 -0.690925 2.64096 0
M  V30 END ATOM
M  V30 BEGIN BOND
M  V30 1 1 1 2
M  V30 2 2 2 3 CFG=2
M  V30 3 1 3 4
M  V30 4 1 2 5
M  V30 5 1 5 6
M  V30 6 1 6 7
M  V30 7 1 7 8
M  V30 8 1 8 9
M  V30 9 1 9 10
M  V30 10 1 10 11
M  V30 11 1 11 12
M  V30 12 1 11 6
M  V30 13 1 1 13
M  V30 14 1 1 14
M  V30 15 1 4 15
M  V30 16 1 4 16
M  V30 17 1 5 17
M  V30 18 1 6 18
M  V30 19 1 7 19
M  V30 20 1 7 20
M  V30 21 1 9 21
M  V30 22 1 9 22
M  V30 23 1 10 23
M  V30 24 1 10 24
M  V30 25 1 11 25
M  V30 26 1 12 26
M  V30 END BOND
M  V30 END CTAB
M  END
