
     RDKit          3D

  0  0  0  0  0  0  0  0  0  0999 V3000
M  V30 BEGIN CTAB
M  V30 COUNTS 30 30 0 0 0
M  V30 BEGIN ATOM
M  V30 1 N 4.27995 -0.165284 1.44825 0
M  V30 2 N 2.96305 -0.399624 1.1359 0
M  V30 3 C 2.4919 -0.16489 -0.035182 0
M  V30 4 N 1.09904 -0.431268 -0.305059 0
M  V30 5 C 0.0847702 0.47042 0.0345128 0
M  V30 6 C 0.381568 1.68154 0.61139 0
M  V30 7 C -0.626755 2.59691 0.939228 0
M  V30 8 C -1.93154 2.27284 0.677159 0
M  V30 9 C -2.25365 1.06156 0.0983335 0
M  V30 10 C -1.23101 0.164195 -0.21955 0
M  V30 11 C -1.63839 -1.12891 -0.816535 0
M  V30 12 C -3.10603 -1.0396 -1.18995 0
M  V30 13 C -1.42203 -2.21101 0.228714 0
M  V30 14 N 3.38118 0.35023 -1.01127 0
M  V30 15 H 4.54324 0.237323 2.36288 0
M  V30 16 H 5.03124 -0.393246 0.760538 0
M  V30 17 H 0.855999 -1.32786 -0.774538 0
M  V30 18 H 1.40067 1.99352 0.842699 0
M  V30 19 H -0.362639 3.54599 1.39447 0
M  V30 20 H -2.71777 2.99369 0.935302 0
M  V30 21 H -3.29839 0.854037 -0.0874381 0
M  V30 22 H -1.02099 -1.36484 -1.68368 0
M  V30 23 H -3.78538 -1.15007 -0.347046 0
M  V30 24 H -3.28685 -1.94121 -1.84693 0
M  V30 25 H -3.28404 -0.170761 -1.84808 0
M  V30 26 H -2.36863 -2.47509 0.733997 0
M  V30 27 H -0.942999 -3.11276 -0.210021 0
M  V30 28 H -0.704557 -1.8145 0.97002 0
M  V30 29 H 3.52703 1.36894 -1.15944 0
M  V30 30 H 3.94203 -0.300269 -1.63867 0
M  V30 END ATOM
M  V30 BEGIN BOND
M  V30 1 1 1 2
M  V30 2 2 2 3 CFG=2
M  V30 3 1 3 4
M  V30 4 1 4 5
M  V30 5 2 5 6
M  V30 6 1 6 7
M  V30 7 2 7 8
M  V30 8 1 8 9
M  V30 9 2 9 10
M  V30 10 1 10 11
M  V30 11 1 11 12
M  V30 12 1 11 13
M  V30 13 1 3 14
M  V30 14 1 10 5
M  V30 15 1 1 15
M  V30 16 1 1 16
M  V30 17 1 4 17
M  V30 18 1 6 18
M  V30 19 1 7 19
M  V30 20 1 8 20
M  V30 21 1 9 21
M  V30 22 1 11 22
M  V30 23 1 12 23
M  V30 24 1 12 24
M  V30 25 1 12 25
M  V30 26 1 13 26
M  V30 27 1 13 27
M  V30 28 1 13 28
M  V30 29 1 14 29
M  V30 30 1 14 30
M  V30 END BOND
M  V30 END CTAB
M  END
