
     RDKit          3D

  0  0  0  0  0  0  0  0  0  0999 V3000
M  V30 BEGIN CTAB
M  V30 COUNTS 21 22 0 0 0
M  V30 BEGIN ATOM
M  V30 1 N 3.18852 -1.96804 -0.237094 0
M  V30 2 C 2.30666 -0.866695 -0.149992 0
M  V30 3 N 1.04938 -0.903706 0.322237 0
M  V30 4 N 0.48445 0.271147 0.276382 0
M  V30 5 C 1.39516 1.11674 -0.243003 0
M  V30 6 N 2.5103 0.408675 -0.501389 0
M  V30 7 N 1.17723 2.51167 -0.464661 0
M  V30 8 C -0.853804 0.555279 0.708917 0
M  V30 9 N -1.27554 1.4927 1.56196 0
M  V30 10 N -2.57822 1.41622 1.68452 0
M  V30 11 C -2.99515 0.422086 0.904067 0
M  V30 12 N -1.93246 -0.122127 0.291305 0
M  V30 13 C -1.93436 -1.21821 -0.634986 0
M  V30 14 H 4.2127 -1.8211 -0.369739 0
M  V30 15 H 2.85004 -2.93901 -0.17289 0
M  V30 16 H 1.15066 3.19062 0.345956 0
M  V30 17 H 1.03824 2.90323 -1.42576 0
M  V30 18 H -4.00793 0.0702931 0.75224 0
M  V30 19 H -1.68127 -0.813241 -1.63435 0
M  V30 20 H -1.18399 -1.99907 -0.407849 0
M  V30 21 H -2.92061 -1.70747 -0.605867 0
M  V30 END ATOM
M  V30 BEGIN BOND
M  V30 1 1 1 2
M  V30 2 2 2 3
M  V30 3 1 3 4
M  V30 4 1 4 5
M  V30 5 2 5 6
M  V30 6 1 5 7
M  V30 7 1 4 8
M  V30 8 2 8 9
M  V30 9 1 9 10
M  V30 10 2 10 11
M  V30 11 1 11 12
M  V30 12 1 12 13
M  V30 13 1 6 2
M  V30 14 1 12 8
M  V30 15 1 1 14
M  V30 16 1 1 15
M  V30 17 1 7 16
M  V30 18 1 7 17
M  V30 19 1 11 18
M  V30 20 1 13 19
M  V30 21 1 13 20
M  V30 22 1 13 21
M  V30 END BOND
M  V30 END CTAB
M  END
