
     RDKit          3D

  0  0  0  0  0  0  0  0  0  0999 V3000
M  V30 BEGIN CTAB
M  V30 COUNTS 38 39 0 0 0
M  V30 BEGIN ATOM
M  V30 1 C -6.02412 -0.39064 -0.128766 0
M  V30 2 C -4.56857 -0.0912983 -0.128477 0
M  V30 3 C -3.91268 0.391017 0.988929 0
M  V30 4 C -2.56045 0.653781 0.93982 0
M  V30 5 C -1.81821 0.450268 -0.205466 0
M  V30 6 C -2.45168 -0.0251508 -1.31553 0
M  V30 7 C -3.80159 -0.285082 -1.25885 0
M  V30 8 C -0.371699 0.762661 -0.157434 0 CFG=2
M  V30 9 N 0.079796 1.48705 -1.31902 0
M  V30 10 C 0.367272 -0.51615 0.0701572 0 CFG=1
M  V30 11 N 0.0895417 -1.44768 -1.02262 0
M  V30 12 C 1.81752 -0.338391 0.279514 0
M  V30 13 C 2.37084 -0.354009 1.54183 0
M  V30 14 C 3.72953 -0.186494 1.72324 0
M  V30 15 C 4.50341 -0.00474266 0.602631 0
M  V30 16 C 5.96955 0.178538 0.76295 0
M  V30 17 C 3.97196 0.0149335 -0.676055 0
M  V30 18 C 2.60612 -0.154558 -0.842918 0
M  V30 19 H -6.22652 -1.15204 -0.904552 0
M  V30 20 H -6.29577 -0.71432 0.891518 0
M  V30 21 H -6.54683 0.569966 -0.316241 0
M  V30 22 H -4.48595 0.556216 1.8993 0
M  V30 23 H -2.07781 1.03781 1.85567 0
M  V30 24 H -1.85969 -0.179774 -2.20429 0
M  V30 25 H -4.31396 -0.662782 -2.13471 0
M  V30 26 H -0.195253 1.42985 0.708432 0
M  V30 27 H -0.402532 2.41875 -1.30369 0
M  V30 28 H -0.0954453 1.00967 -2.21449 0
M  V30 29 H -0.0596641 -0.990367 0.981227 0
M  V30 30 H 0.35825 -1.07698 -1.94346 0
M  V30 31 H 0.564134 -2.33719 -0.766011 0
M  V30 32 H 1.72529 -0.499076 2.38401 0
M  V30 33 H 4.14279 -0.201844 2.71836 0
M  V30 34 H 6.33478 -0.218621 1.73036 0
M  V30 35 H 6.2032 1.25443 0.630107 0
M  V30 36 H 6.44408 -0.40769 -0.0629071 0
M  V30 37 H 4.59249 0.159154 -1.55332 0
M  V30 38 H 2.19789 -0.139227 -1.82831 0
M  V30 END ATOM
M  V30 BEGIN BOND
M  V30 1 1 1 2
M  V30 2 2 2 3
M  V30 3 1 3 4
M  V30 4 2 4 5
M  V30 5 1 5 6
M  V30 6 2 6 7
M  V30 7 1 5 8
M  V30 8 1 8 9
M  V30 9 1 8 10
M  V30 10 1 10 11
M  V30 11 1 10 12
M  V30 12 2 12 13
M  V30 13 1 13 14
M  V30 14 2 14 15
M  V30 15 1 15 16
M  V30 16 1 15 17
M  V30 17 2 17 18
M  V30 18 1 7 2
M  V30 19 1 18 12
M  V30 20 1 1 19
M  V30 21 1 1 20
M  V30 22 1 1 21
M  V30 23 1 3 22
M  V30 24 1 4 23
M  V30 25 1 6 24
M  V30 26 1 7 25
M  V30 27 1 8 26 CFG=1
M  V30 28 1 9 27
M  V30 29 1 9 28
M  V30 30 1 10 29 CFG=1
M  V30 31 1 11 30
M  V30 32 1 11 31
M  V30 33 1 13 32
M  V30 34 1 14 33
M  V30 35 1 16 34
M  V30 36 1 16 35
M  V30 37 1 16 36
M  V30 38 1 17 37
M  V30 39 1 18 38
M  V30 END BOND
M  V30 END CTAB
M  END
