
     RDKit          3D

  0  0  0  0  0  0  0  0  0  0999 V3000
M  V30 BEGIN CTAB
M  V30 COUNTS 84 87 0 0 0
M  V30 BEGIN ATOM
M  V30 1 C 6.56149 -1.95685 1.69645 0
M  V30 2 C 5.5831 -1.83715 0.555803 0
M  V30 3 C 4.86794 -3.1329 0.390166 0
M  V30 4 C 6.42264 -1.52886 -0.69189 0
M  V30 5 O 4.73357 -0.733256 0.839865 0
M  V30 6 C 3.70253 -0.354409 -0.00684594 0
M  V30 7 O 3.57272 -1.06412 -1.04065 0
M  V30 8 C 2.80934 0.78094 0.249848 0
M  V30 9 N 1.75171 0.979834 -0.667859 0
M  V30 10 C 0.734574 0.0053298 -0.612063 0 CFG=1
M  V30 11 C -0.0385903 -0.0624841 0.686488 0 CFG=1
M  V30 12 O -0.884092 0.999721 0.878968 0
M  V30 13 C -0.609787 1.76733 1.98145 0
M  V30 14 C -1.53176 2.89701 2.16273 0
M  V30 15 C -1.32671 3.85544 3.12329 0
M  V30 16 C -2.19458 4.92513 3.29667 0
M  V30 17 C -3.29833 5.02871 2.47812 0
M  V30 18 C -3.51272 4.08388 1.52173 0
M  V30 19 C -2.6349 3.00855 1.35165 0
M  V30 20 C -0.763941 -1.38279 0.742623 0 CFG=1
M  V30 21 N -1.48495 -1.39425 1.9879 0
M  V30 22 C -1.60317 -1.69346 -0.432393 0 CFG=1
M  V30 23 O -2.89804 -1.23448 -0.414043 0
M  V30 24 C -3.91671 -2.11578 -0.556597 0
M  V30 25 C -4.11173 -3.16447 0.437469 0
M  V30 26 C -4.81811 -2.95794 1.61952 0
M  V30 27 C -5.01191 -3.96963 2.54465 0
M  V30 28 C -4.50156 -5.22843 2.31475 0
M  V30 29 C -3.80024 -5.4506 1.15015 0
M  V30 30 C -3.62046 -4.42754 0.243627 0
M  V30 31 C -0.913948 -1.33034 -1.75217 0 CFG=1
M  V30 32 N -1.78525 -1.51866 -2.85386 0
M  V30 33 C -0.307498 0.0769508 -1.70792 0 CFG=1
M  V30 34 O -1.25096 1.01471 -1.45612 0
M  V30 35 C -1.48412 1.99545 -2.36592 0
M  V30 36 C -0.374223 2.89443 -2.69182 0
M  V30 37 C 0.411142 2.64512 -3.79068 0
M  V30 38 C 1.475 3.44699 -4.16144 0
M  V30 39 C 1.75632 4.55016 -3.38583 0
M  V30 40 C 0.996325 4.84101 -2.27445 0
M  V30 41 C -0.0595326 4.01647 -1.93442 0
M  V30 42 H 6.53431 -1.05838 2.33142 0
M  V30 43 H 6.36038 -2.86661 2.31097 0
M  V30 44 H 7.61084 -2.08896 1.33248 0
M  V30 45 H 5.43173 -3.93626 0.906133 0
M  V30 46 H 4.78309 -3.4608 -0.667374 0
M  V30 47 H 3.86051 -3.10319 0.87046 0
M  V30 48 H 6.60646 -0.433588 -0.779168 0
M  V30 49 H 7.44986 -1.97924 -0.570411 0
M  V30 50 H 5.96021 -1.9146 -1.61535 0
M  V30 51 H 3.46825 1.70924 0.174005 0
M  V30 52 H 2.48019 0.832052 1.32911 0
M  V30 53 H 2.14483 0.99553 -1.62995 0
M  V30 54 H 1.20795 -1.00589 -0.71289 0
M  V30 55 H 0.7037 -0.0687305 1.50697 0
M  V30 56 H -0.620575 1.1113 2.88735 0
M  V30 57 H 0.454123 2.10427 1.90157 0
M  V30 58 H -0.478096 3.82566 3.79406 0
M  V30 59 H -2.0557 5.69223 4.04403 0
M  V30 60 H -3.99279 5.8719 2.60523 0
M  V30 61 H -4.35559 4.12415 0.864259 0
M  V30 62 H -2.84341 2.28583 0.586806 0
M  V30 63 H 0.0516058 -2.15859 0.861366 0
M  V30 64 H -2.10258 -0.554352 2.01252 0
M  V30 65 H -0.782996 -1.27247 2.74897 0
M  V30 66 H -1.66055 -2.82032 -0.515341 0
M  V30 67 H -3.78607 -2.56873 -1.60125 0
M  V30 68 H -4.88145 -1.51939 -0.717786 0
M  V30 69 H -5.22954 -1.99941 1.83673 0
M  V30 70 H -5.55705 -3.84045 3.47293 0
M  V30 71 H -4.65203 -6.03921 3.0456 0
M  V30 72 H -3.40941 -6.44269 0.990092 0
M  V30 73 H -3.07288 -4.67474 -0.648323 0
M  V30 74 H -0.052271 -2.02105 -1.84512 0
M  V30 75 H -2.40069 -0.742199 -3.10289 0
M  V30 76 H -1.23833 -1.855 -3.67509 0
M  V30 77 H 0.230357 0.192926 -2.6707 0
M  V30 78 H -2.29943 2.64305 -1.91413 0
M  V30 79 H -1.99745 1.6094 -3.30231 0
M  V30 80 H 0.223142 1.79546 -4.42607 0
M  V30 81 H 2.08028 3.22542 -5.03757 0
M  V30 82 H 2.60335 5.18861 -3.67946 0
M  V30 83 H 1.2545 5.71462 -1.69763 0
M  V30 84 H -0.671374 4.22843 -1.06118 0
M  V30 END ATOM
M  V30 BEGIN BOND
M  V30 1 1 1 2
M  V30 2 1 2 3
M  V30 3 1 2 4
M  V30 4 1 2 5
M  V30 5 1 5 6
M  V30 6 2 6 7
M  V30 7 1 6 8
M  V30 8 1 8 9
M  V30 9 1 9 10
M  V30 10 1 10 11
M  V30 11 1 11 12
M  V30 12 1 12 13
M  V30 13 1 13 14
M  V30 14 2 14 15
M  V30 15 1 15 16
M  V30 16 2 16 17
M  V30 17 1 17 18
M  V30 18 2 18 19
M  V30 19 1 11 20
M  V30 20 1 20 21
M  V30 21 1 20 22
M  V30 22 1 22 23
M  V30 23 1 23 24
M  V30 24 1 24 25
M  V30 25 2 25 26
M  V30 26 1 26 27
M  V30 27 2 27 28
M  V30 28 1 28 29
M  V30 29 2 29 30
M  V30 30 1 22 31
M  V30 31 1 31 32
M  V30 32 1 31 33
M  V30 33 1 33 34
M  V30 34 1 34 35
M  V30 35 1 35 36
M  V30 36 2 36 37
M  V30 37 1 37 38
M  V30 38 2 38 39
M  V30 39 1 39 40
M  V30 40 2 40 41
M  V30 41 1 33 10
M  V30 42 1 41 36
M  V30 43 1 19 14
M  V30 44 1 30 25
M  V30 45 1 1 42
M  V30 46 1 1 43
M  V30 47 1 1 44
M  V30 48 1 3 45
M  V30 49 1 3 46
M  V30 50 1 3 47
M  V30 51 1 4 48
M  V30 52 1 4 49
M  V30 53 1 4 50
M  V30 54 1 8 51
M  V30 55 1 8 52
M  V30 56 1 9 53
M  V30 57 1 10 54 CFG=3
M  V30 58 1 11 55 CFG=1
M  V30 59 1 13 56
M  V30 60 1 13 57
M  V30 61 1 15 58
M  V30 62 1 16 59
M  V30 63 1 17 60
M  V30 64 1 18 61
M  V30 65 1 19 62
M  V30 66 1 20 63 CFG=1
M  V30 67 1 21 64
M  V30 68 1 21 65
M  V30 69 1 22 66 CFG=3
M  V30 70 1 24 67
M  V30 71 1 24 68
M  V30 72 1 26 69
M  V30 73 1 27 70
M  V30 74 1 28 71
M  V30 75 1 29 72
M  V30 76 1 30 73
M  V30 77 1 31 74 CFG=3
M  V30 78 1 32 75
M  V30 79 1 32 76
M  V30 80 1 33 77 CFG=3
M  V30 81 1 35 78
M  V30 82 1 35 79
M  V30 83 1 37 80
M  V30 84 1 38 81
M  V30 85 1 39 82
M  V30 86 1 40 83
M  V30 87 1 41 84
M  V30 END BOND
M  V30 END CTAB
M  END
