
     RDKit          3D

  0  0  0  0  0  0  0  0  0  0999 V3000
M  V30 BEGIN CTAB
M  V30 COUNTS 46 47 0 0 0
M  V30 BEGIN ATOM
M  V30 1 C -2.40101 0.581665 1.35164 0 CFG=1
M  V30 2 N -3.18587 0.261923 2.56258 0
M  V30 3 C -2.49307 -0.635245 0.450537 0
M  V30 4 C -1.76542 -0.516519 -0.816536 0
M  V30 5 C -2.51582 -0.234824 -1.96639 0
M  V30 6 C -1.96462 -0.0831829 -3.20852 0
M  V30 7 C -0.600054 -0.217167 -3.32309 0
M  V30 8 O -0.0370382 -0.0643636 -4.58084 0
M  V30 9 C 0.158152 -0.498891 -2.18176 0
M  V30 10 C -0.389056 -0.651645 -0.93138 0
M  V30 11 C 0.437831 -1.06466 0.193526 0
M  V30 12 C 1.40261 -0.338904 0.818035 0
M  V30 13 C 1.78041 1.04359 0.499898 0
M  V30 14 C 2.81972 1.29681 -0.505123 0 CFG=2
M  V30 15 N 4.08693 0.704549 -0.243459 0
M  V30 16 C 3.08513 2.80591 -0.487756 0
M  V30 17 O 2.03602 3.68312 -0.680325 0
M  V30 18 O 4.25311 3.16774 -0.297475 0
M  V30 19 C 2.15069 -0.91005 1.8807 0
M  V30 20 C 1.89851 -2.18699 2.27064 0
M  V30 21 C 0.935823 -2.96045 1.67121 0
M  V30 22 O 0.697824 -4.28176 2.09619 0
M  V30 23 C 0.232907 -2.38905 0.655539 0
M  V30 24 C -3.10109 1.76366 0.765072 0
M  V30 25 O -4.29854 2.25985 1.27514 0
M  V30 26 O -2.55076 2.30889 -0.239051 0
M  V30 27 H -1.38623 0.799237 1.68826 0
M  V30 28 H -3.12945 -0.727654 2.81062 0
M  V30 29 H -2.96839 0.944629 3.32102 0
M  V30 30 H -3.59254 -0.766465 0.254042 0
M  V30 31 H -2.16958 -1.49569 1.03158 0
M  V30 32 H -3.57708 -0.132263 -1.85954 0
M  V30 33 H -2.58872 0.14028 -4.08645 0
M  V30 34 H 0.054802 -0.889003 -5.14932 0
M  V30 35 H 1.23097 -0.609167 -2.39038 0
M  V30 36 H 0.82447 1.55 0.135059 0
M  V30 37 H 1.96619 1.58398 1.47378 0
M  V30 38 H 2.53685 1.08216 -1.5259 0
M  V30 39 H 4.40209 0.579965 0.698841 0
M  V30 40 H 4.45765 0.0939354 -0.979779 0
M  V30 41 H 2.07931 4.30109 -1.46006 0
M  V30 42 H 2.93066 -0.297702 2.37353 0
M  V30 43 H 2.47296 -2.64058 3.09394 0
M  V30 44 H 1.23876 -4.98166 1.63008 0
M  V30 45 H -0.530585 -2.97727 0.159909 0
M  V30 46 H -4.92545 1.59818 1.75175 0
M  V30 END ATOM
M  V30 BEGIN BOND
M  V30 1 1 1 2
M  V30 2 1 1 3
M  V30 3 1 3 4
M  V30 4 2 4 5
M  V30 5 1 5 6
M  V30 6 2 6 7
M  V30 7 1 7 8
M  V30 8 1 7 9
M  V30 9 2 9 10
M  V30 10 1 10 11
M  V30 11 2 11 12
M  V30 12 1 12 13
M  V30 13 1 13 14
M  V30 14 1 14 15
M  V30 15 1 14 16
M  V30 16 1 16 17
M  V30 17 2 16 18
M  V30 18 1 12 19
M  V30 19 2 19 20
M  V30 20 1 20 21
M  V30 21 1 21 22
M  V30 22 2 21 23
M  V30 23 1 1 24
M  V30 24 1 24 25
M  V30 25 2 24 26
M  V30 26 1 10 4
M  V30 27 1 23 11
M  V30 28 1 1 27 CFG=1
M  V30 29 1 2 28
M  V30 30 1 2 29
M  V30 31 1 3 30
M  V30 32 1 3 31
M  V30 33 1 5 32
M  V30 34 1 6 33
M  V30 35 1 8 34
M  V30 36 1 9 35
M  V30 37 1 13 36
M  V30 38 1 13 37
M  V30 39 1 14 38 CFG=3
M  V30 40 1 15 39
M  V30 41 1 15 40
M  V30 42 1 17 41
M  V30 43 1 19 42
M  V30 44 1 20 43
M  V30 45 1 22 44
M  V30 46 1 23 45
M  V30 47 1 25 46
M  V30 END BOND
M  V30 END CTAB
M  END
