
     RDKit          3D

  0  0  0  0  0  0  0  0  0  0999 V3000
M  V30 BEGIN CTAB
M  V30 COUNTS 48 49 0 0 0
M  V30 BEGIN ATOM
M  V30 1 C -2.76555 -4.05294 0.279324 0
M  V30 2 C -1.90714 -3.96539 -0.925269 0
M  V30 3 C -1.5103 -2.62348 -1.39642 0
M  V30 4 N -0.736045 -1.78233 -0.571655 0
M  V30 5 S 0.993078 -1.79931 -0.499317 0
M  V30 6 O 1.55611 -2.90031 -1.36817 0
M  V30 7 O 1.35159 -2.08317 0.940145 0
M  V30 8 C 1.71061 -0.314235 -1.02091 0
M  V30 9 C 2.47316 0.42639 -0.120093 0
M  V30 10 C 3.07652 1.60513 -0.413668 0
M  V30 11 C 2.90371 2.08623 -1.71954 0
M  V30 12 C 2.16118 1.37836 -2.61975 0
M  V30 13 C 1.55013 0.163504 -2.28712 0
M  V30 14 N 0.796883 -0.523161 -3.27927 0
M  V30 15 C 3.87697 2.40104 0.500246 0
M  V30 16 O 4.38815 3.49005 0.0973942 0
M  V30 17 N 4.08763 1.96978 1.82919 0
M  V30 18 N 4.85266 2.7139 2.73068 0
M  V30 19 C -1.36545 -0.777762 0.231467 0
M  V30 20 C -1.64884 -1.00639 1.55046 0
M  V30 21 C -2.22829 0.0333869 2.26927 0
M  V30 22 C -2.51917 1.25812 1.71025 0
M  V30 23 C -2.23364 1.49185 0.379516 0
M  V30 24 C -1.66033 0.468987 -0.340731 0
M  V30 25 O -3.09649 2.28787 2.43463 0
M  V30 26 C -3.40595 3.54083 1.90368 0
M  V30 27 H -3.3434 -5.0263 0.30686 0
M  V30 28 H -2.17355 -4.07051 1.21577 0
M  V30 29 H -3.49334 -3.19826 0.313239 0
M  V30 30 H -2.50199 -4.43382 -1.77145 0
M  V30 31 H -1.05605 -4.67606 -0.804494 0
M  V30 32 H -1.06039 -2.66885 -2.44026 0
M  V30 33 H -2.48317 -2.06635 -1.60775 0
M  V30 34 H 2.57949 0.0149221 0.879464 0
M  V30 35 H 3.36457 3.02441 -2.00767 0
M  V30 36 H 2.01852 1.73226 -3.6243 0
M  V30 37 H -0.0297767 -0.12612 -3.74336 0
M  V30 38 H 1.11031 -1.47934 -3.54073 0
M  V30 39 H 3.66965 1.08277 2.15287 0
M  V30 40 H 5.67692 2.18993 3.09608 0
M  V30 41 H 5.15435 3.58635 2.25562 0
M  V30 42 H -1.43064 -1.95449 2.06366 0
M  V30 43 H -2.44448 -0.166543 3.30695 0
M  V30 44 H -2.43022 2.42287 -0.131643 0
M  V30 45 H -1.43045 0.636758 -1.38566 0
M  V30 46 H -4.08003 4.13704 2.55184 0
M  V30 47 H -2.45309 4.09737 1.73977 0
M  V30 48 H -3.86442 3.455 0.880837 0
M  V30 END ATOM
M  V30 BEGIN BOND
M  V30 1 1 1 2
M  V30 2 1 2 3
M  V30 3 1 3 4
M  V30 4 1 4 5
M  V30 5 2 5 6
M  V30 6 2 5 7
M  V30 7 1 5 8
M  V30 8 2 8 9
M  V30 9 1 9 10
M  V30 10 2 10 11
M  V30 11 1 11 12
M  V30 12 2 12 13
M  V30 13 1 13 14
M  V30 14 1 10 15
M  V30 15 2 15 16
M  V30 16 1 15 17
M  V30 17 1 17 18
M  V30 18 1 4 19
M  V30 19 2 19 20
M  V30 20 1 20 21
M  V30 21 2 21 22
M  V30 22 1 22 23
M  V30 23 2 23 24
M  V30 24 1 22 25
M  V30 25 1 25 26
M  V30 26 1 13 8
M  V30 27 1 24 19
M  V30 28 1 1 27
M  V30 29 1 1 28
M  V30 30 1 1 29
M  V30 31 1 2 30
M  V30 32 1 2 31
M  V30 33 1 3 32
M  V30 34 1 3 33
M  V30 35 1 9 34
M  V30 36 1 11 35
M  V30 37 1 12 36
M  V30 38 1 14 37
M  V30 39 1 14 38
M  V30 40 1 17 39
M  V30 41 1 18 40
M  V30 42 1 18 41
M  V30 43 1 20 42
M  V30 44 1 21 43
M  V30 45 1 23 44
M  V30 46 1 24 45
M  V30 47 1 26 46
M  V30 48 1 26 47
M  V30 49 1 26 48
M  V30 END BOND
M  V30 END CTAB
M  END
