
     RDKit          3D

  0  0  0  0  0  0  0  0  0  0999 V3000
M  V30 BEGIN CTAB
M  V30 COUNTS 24 23 0 0 0
M  V30 BEGIN ATOM
M  V30 1 C -2.4575 -1.0523 -0.810419 0
M  V30 2 C -2.27536 -0.23039 0.434338 0
M  V30 3 C -1.00752 0.563153 0.434226 0
M  V30 4 O 0.131785 -0.244446 0.338164 0
M  V30 5 N 1.22302 0.546373 0.344836 0
M  V30 6 C 2.51826 0.113403 -0.00237485 0
M  V30 7 N 2.88493 -1.05987 0.342035 0
M  V30 8 N 4.13401 -1.61611 0.0656272 0
M  V30 9 N 3.37381 0.975526 -0.715453 0
M  V30 10 C -3.42278 0.729484 0.667973 0
M  V30 11 H -2.89824 -2.03228 -0.530976 0
M  V30 12 H -1.49829 -1.27975 -1.31905 0
M  V30 13 H -3.1025 -0.540944 -1.5704 0
M  V30 14 H -2.21094 -0.935851 1.31499 0
M  V30 15 H -0.964212 1.12042 1.39823 0
M  V30 16 H -1.06339 1.30078 -0.378973 0
M  V30 17 H 1.13532 1.56647 0.624903 0
M  V30 18 H 4.87741 -1.48586 0.773187 0
M  V30 19 H 4.24514 -2.12719 -0.831572 0
M  V30 20 H 3.03198 1.70616 -1.39479 0
M  V30 21 H 4.43197 0.953169 -0.621004 0
M  V30 22 H -4.36811 0.385379 0.210793 0
M  V30 23 H -3.21085 1.73656 0.215901 0
M  V30 24 H -3.50796 0.908105 1.75762 0
M  V30 END ATOM
M  V30 BEGIN BOND
M  V30 1 1 1 2
M  V30 2 1 2 3
M  V30 3 1 3 4
M  V30 4 1 4 5
M  V30 5 1 5 6
M  V30 6 2 6 7 CFG=2
M  V30 7 1 7 8
M  V30 8 1 6 9
M  V30 9 1 2 10
M  V30 10 1 1 11
M  V30 11 1 1 12
M  V30 12 1 1 13
M  V30 13 1 2 14
M  V30 14 1 3 15
M  V30 15 1 3 16
M  V30 16 1 5 17
M  V30 17 1 8 18
M  V30 18 1 8 19
M  V30 19 1 9 20
M  V30 20 1 9 21
M  V30 21 1 10 22
M  V30 22 1 10 23
M  V30 23 1 10 24
M  V30 END BOND
M  V30 END CTAB
M  END
