
     RDKit          3D

  0  0  0  0  0  0  0  0  0  0999 V3000
M  V30 BEGIN CTAB
M  V30 COUNTS 38 42 0 0 0
M  V30 BEGIN ATOM
M  V30 1 N 6.24487 0.0614269 3.00836 0
M  V30 2 C 5.08186 0.086335 2.19279 0
M  V30 3 N 3.79079 -0.0754771 2.55334 0
M  V30 4 C 3.02305 0.0259025 1.44733 0
M  V30 5 C 3.89548 0.254865 0.40459 0
M  V30 6 O 5.12937 0.284013 0.898479 0
M  V30 7 C 3.40257 0.405139 -0.87388 0
M  V30 8 C 2.03195 0.325084 -1.10501 0
M  V30 9 C 1.15369 0.0981104 -0.0860103 0
M  V30 10 C 1.66828 -0.049435 1.19003 0
M  V30 11 C -0.276184 -0.0129441 -0.310023 0
M  V30 12 N -1.22447 0.780946 0.266204 0
M  V30 13 N -2.4308 0.431449 -0.096617 0
M  V30 14 C -3.68621 1.01038 0.284229 0
M  V30 15 C -4.0318 0.795113 1.76302 0
M  V30 16 C -4.53098 2.18978 1.77831 0
M  V30 17 O -5.33901 2.79132 2.464 0
M  V30 18 C -3.63072 2.48354 0.629607 0
M  V30 19 C -2.2938 -0.625188 -0.937524 0
M  V30 20 N -3.17856 -1.38824 -1.59626 0
M  V30 21 C -2.81911 -2.41423 -2.37923 0
M  V30 22 N -1.51429 -2.68286 -2.50297 0
M  V30 23 C -0.543411 -1.98186 -1.88773 0
M  V30 24 N 0.824462 -2.3381 -2.02603 0
M  V30 25 C -0.92738 -0.920033 -1.08162 0
M  V30 26 H 6.80649 -0.796992 3.17171 0
M  V30 27 H 6.56517 0.938764 3.47375 0
M  V30 28 H 4.10073 0.586767 -1.69641 0
M  V30 29 H 1.71172 0.471622 -2.13231 0
M  V30 30 H 1.01195 -0.23011 2.02973 0
M  V30 31 H -4.54242 0.810756 -0.358742 0
M  V30 32 H -4.76942 0.00585174 1.95005 0
M  V30 33 H -3.06587 0.651507 2.32484 0
M  V30 34 H -2.64696 2.85169 0.980171 0
M  V30 35 H -4.1071 3.10917 -0.172928 0
M  V30 36 H -3.58269 -3.01326 -2.9017 0
M  V30 37 H 1.2939 -2.15744 -2.95283 0
M  V30 38 H 1.40485 -2.76336 -1.28897 0
M  V30 END ATOM
M  V30 BEGIN BOND
M  V30 1 1 1 2
M  V30 2 2 2 3
M  V30 3 1 3 4
M  V30 4 2 4 5
M  V30 5 1 5 6
M  V30 6 1 5 7
M  V30 7 2 7 8
M  V30 8 1 8 9
M  V30 9 2 9 10
M  V30 10 1 9 11
M  V30 11 2 11 12
M  V30 12 1 12 13
M  V30 13 1 13 14
M  V30 14 1 14 15
M  V30 15 1 15 16
M  V30 16 2 16 17
M  V30 17 1 16 18
M  V30 18 1 13 19
M  V30 19 2 19 20
M  V30 20 1 20 21
M  V30 21 2 21 22
M  V30 22 1 22 23
M  V30 23 1 23 24
M  V30 24 2 23 25
M  V30 25 1 6 2
M  V30 26 1 25 11
M  V30 27 1 10 4
M  V30 28 1 18 14
M  V30 29 1 25 19
M  V30 30 1 1 26
M  V30 31 1 1 27
M  V30 32 1 7 28
M  V30 33 1 8 29
M  V30 34 1 10 30
M  V30 35 1 14 31
M  V30 36 1 15 32
M  V30 37 1 15 33
M  V30 38 1 18 34
M  V30 39 1 18 35
M  V30 40 1 21 36
M  V30 41 1 24 37
M  V30 42 1 24 38
M  V30 END BOND
M  V30 END CTAB
M  END
