
     RDKit          3D

  0  0  0  0  0  0  0  0  0  0999 V3000
M  V30 BEGIN CTAB
M  V30 COUNTS 49 51 0 0 0
M  V30 BEGIN ATOM
M  V30 1 N 0.268803 -1.82946 -0.23772 0
M  V30 2 C -0.420785 -0.693736 0.251911 0
M  V30 3 N 0.247591 0.230076 0.818368 0
M  V30 4 O 1.61051 0.193315 0.985933 0
M  V30 5 C 2.51503 0.353549 -0.0993577 0
M  V30 6 C 3.91642 0.253908 0.473741 0
M  V30 7 O 4.85014 0.409896 -0.585583 0
M  V30 8 C 6.19496 0.355145 -0.300452 0
M  V30 9 C 6.90523 1.47646 0.0256089 0
M  V30 10 Cl 6.07562 3.01631 0.0794574 0
M  V30 11 C 8.26934 1.41959 0.314627 0
M  V30 12 C 8.88617 0.200772 0.263312 0
M  V30 13 C 8.19493 -0.937908 -0.061243 0
M  V30 14 C 6.83878 -0.856574 -0.344794 0
M  V30 15 Cl 5.93975 -2.27919 -0.758008 0
M  V30 16 C -1.87635 -0.601838 0.100024 0
M  V30 17 C -2.66964 0.367844 0.490097 0
M  V30 18 N -2.18991 1.55063 1.16397 0
M  V30 19 C -4.05582 0.0690763 0.146269 0
M  V30 20 N -4.04719 -1.21015 -0.508858 0
M  V30 21 C -2.69278 -1.61656 -0.532915 0
M  V30 22 O -2.30376 -2.72301 -1.0485 0
M  V30 23 C -5.17405 -1.95579 -1.0449 0
M  V30 24 C -4.98572 0.0928914 1.33819 0
M  V30 25 C -6.27162 0.636656 0.794988 0
M  V30 26 C -5.994 1.21912 -0.560962 0
M  V30 27 C -4.51923 1.1749 -0.779814 0
M  V30 28 H 0.335595 -1.96547 -1.25467 0
M  V30 29 H 0.691646 -2.50036 0.41314 0
M  V30 30 H 2.41983 -0.470524 -0.837778 0
M  V30 31 H 2.39252 1.305 -0.627318 0
M  V30 32 H 4.08423 -0.698054 0.983317 0
M  V30 33 H 4.12396 1.09563 1.18716 0
M  V30 34 H 8.79544 2.31707 0.566348 0
M  V30 35 H 9.94688 0.166308 0.489537 0
M  V30 36 H 8.70641 -1.90176 -0.0966548 0
M  V30 37 H -1.9076 2.41756 0.690147 0
M  V30 38 H -2.13524 1.49781 2.19615 0
M  V30 39 H -5.97826 -2.08831 -0.264789 0
M  V30 40 H -5.63171 -1.46543 -1.92484 0
M  V30 41 H -4.82123 -2.94797 -1.3614 0
M  V30 42 H -4.59751 0.660372 2.18173 0
M  V30 43 H -5.16603 -0.954762 1.70688 0
M  V30 44 H -7.02678 -0.16148 0.699807 0
M  V30 45 H -6.69377 1.38466 1.50153 0
M  V30 46 H -6.51429 0.697726 -1.38661 0
M  V30 47 H -6.30471 2.29408 -0.622055 0
M  V30 48 H -4.23061 0.898234 -1.80976 0
M  V30 49 H -4.00119 2.10373 -0.49555 0
M  V30 END ATOM
M  V30 BEGIN BOND
M  V30 1 1 1 2
M  V30 2 2 2 3 CFG=2
M  V30 3 1 3 4
M  V30 4 1 4 5
M  V30 5 1 5 6
M  V30 6 1 6 7
M  V30 7 1 7 8
M  V30 8 2 8 9
M  V30 9 1 9 10
M  V30 10 1 9 11
M  V30 11 2 11 12
M  V30 12 1 12 13
M  V30 13 2 13 14
M  V30 14 1 14 15
M  V30 15 1 2 16
M  V30 16 2 16 17
M  V30 17 1 17 18
M  V30 18 1 17 19
M  V30 19 1 19 20
M  V30 20 1 20 21
M  V30 21 2 21 22
M  V30 22 1 20 23
M  V30 23 1 19 24
M  V30 24 1 24 25
M  V30 25 1 25 26
M  V30 26 1 26 27
M  V30 27 1 14 8
M  V30 28 1 21 16
M  V30 29 1 27 19
M  V30 30 1 1 28
M  V30 31 1 1 29
M  V30 32 1 5 30
M  V30 33 1 5 31
M  V30 34 1 6 32
M  V30 35 1 6 33
M  V30 36 1 11 34
M  V30 37 1 12 35
M  V30 38 1 13 36
M  V30 39 1 18 37
M  V30 40 1 18 38
M  V30 41 1 23 39
M  V30 42 1 23 40
M  V30 43 1 23 41
M  V30 44 1 24 42
M  V30 45 1 24 43
M  V30 46 1 25 44
M  V30 47 1 25 45
M  V30 48 1 26 46
M  V30 49 1 26 47
M  V30 50 1 27 48
M  V30 51 1 27 49
M  V30 END BOND
M  V30 END CTAB
M  END
