
     RDKit          3D

  0  0  0  0  0  0  0  0  0  0999 V3000
M  V30 BEGIN CTAB
M  V30 COUNTS 31 32 0 0 0
M  V30 BEGIN ATOM
M  V30 1 N -3.06442 -2.03366 0.536194 0
M  V30 2 C -2.69961 -0.647861 0.44946 0 CFG=2
M  V30 3 C -3.58491 0.117354 -0.514101 0
M  V30 4 C -2.69697 1.34216 -0.765757 0
M  V30 5 C -1.38811 0.639941 -1.11933 0
M  V30 6 C -1.28716 -0.475401 -0.101476 0 CFG=1
M  V30 7 C -0.406453 -0.0850942 1.06574 0
M  V30 8 C 1.00775 0.117193 0.67957 0
M  V30 9 N 1.97173 -0.832134 0.669123 0
M  V30 10 N 3.12057 -0.33777 0.279797 0
M  V30 11 C 2.93705 0.954708 0.0240677 0
M  V30 12 N 1.62714 1.23898 0.271408 0
M  V30 13 N 3.94817 1.84523 -0.424155 0
M  V30 14 C 4.33439 -1.126 0.17225 0
M  V30 15 H -3.0005 -2.329 1.53133 0
M  V30 16 H -2.39974 -2.59627 -0.00436774 0
M  V30 17 H -2.7966 -0.155286 1.42961 0
M  V30 18 H -4.5436 0.41047 -0.0622765 0
M  V30 19 H -3.70961 -0.420225 -1.47156 0
M  V30 20 H -3.07663 1.95316 -1.59281 0
M  V30 21 H -2.5731 1.85827 0.18589 0
M  V30 22 H -1.55606 0.226687 -2.15272 0
M  V30 23 H -0.572847 1.35815 -1.08489 0
M  V30 24 H -0.965697 -1.39747 -0.583883 0
M  V30 25 H -0.826123 0.842335 1.526 0
M  V30 26 H -0.478833 -0.863595 1.85199 0
M  V30 27 H 4.10072 2.02552 -1.44076 0
M  V30 28 H 4.57754 2.35393 0.238826 0
M  V30 29 H 4.92041 -0.77728 -0.715919 0
M  V30 30 H 4.1125 -2.20462 0.0522528 0
M  V30 31 H 4.969 -1.00242 1.07049 0
M  V30 END ATOM
M  V30 BEGIN BOND
M  V30 1 1 1 2
M  V30 2 1 2 3
M  V30 3 1 3 4
M  V30 4 1 4 5
M  V30 5 1 5 6
M  V30 6 1 6 7
M  V30 7 1 7 8
M  V30 8 2 8 9
M  V30 9 1 9 10
M  V30 10 1 10 11
M  V30 11 2 11 12
M  V30 12 1 11 13
M  V30 13 1 10 14
M  V30 14 1 6 2
M  V30 15 1 12 8
M  V30 16 1 1 15
M  V30 17 1 1 16
M  V30 18 1 2 17 CFG=1
M  V30 19 1 3 18
M  V30 20 1 3 19
M  V30 21 1 4 20
M  V30 22 1 4 21
M  V30 23 1 5 22
M  V30 24 1 5 23
M  V30 25 1 6 24 CFG=3
M  V30 26 1 7 25
M  V30 27 1 7 26
M  V30 28 1 13 27
M  V30 29 1 13 28
M  V30 30 1 14 29
M  V30 31 1 14 30
M  V30 32 1 14 31
M  V30 END BOND
M  V30 END CTAB
M  END
