
     RDKit          3D

  0  0  0  0  0  0  0  0  0  0999 V3000
M  V30 BEGIN CTAB
M  V30 COUNTS 24 24 0 0 0
M  V30 BEGIN ATOM
M  V30 1 N -1.55143 2.07959 0.0656679 0
M  V30 2 C -1.46638 0.657358 0.0877663 0
M  V30 3 C -0.329792 -0.00504955 -0.393096 0
M  V30 4 N 0.711181 0.801704 -0.899932 0
M  V30 5 C 1.91955 0.214116 -1.40901 0
M  V30 6 C 2.73004 -0.545151 -0.41595 0
M  V30 7 N 3.15992 0.286566 0.703929 0
M  V30 8 N -0.271586 -1.34605 -0.362429 0
M  V30 9 C -1.25417 -2.10078 0.109429 0
M  V30 10 C -2.39095 -1.48605 0.592398 0
M  V30 11 C -2.49357 -0.112605 0.580242 0
M  V30 12 C -3.67601 0.547232 1.08169 0
M  V30 13 N -4.62997 1.08563 1.4702 0
M  V30 14 H -1.38252 2.59744 0.956088 0
M  V30 15 H -1.77443 2.61961 -0.799967 0
M  V30 16 H 0.616976 1.83334 -0.911518 0
M  V30 17 H 2.5516 0.943085 -1.95801 0
M  V30 18 H 1.58879 -0.533837 -2.18517 0
M  V30 19 H 3.69138 -0.830746 -0.935597 0
M  V30 20 H 2.26258 -1.49292 -0.0963459 0
M  V30 21 H 4.00686 -0.172064 1.10875 0
M  V30 22 H 2.42959 0.221282 1.47449 0
M  V30 23 H -1.2281 -3.18592 0.143651 0
M  V30 24 H -3.21957 -2.07578 0.988359 0
M  V30 END ATOM
M  V30 BEGIN BOND
M  V30 1 1 1 2
M  V30 2 2 2 3
M  V30 3 1 3 4
M  V30 4 1 4 5
M  V30 5 1 5 6
M  V30 6 1 6 7
M  V30 7 1 3 8
M  V30 8 2 8 9
M  V30 9 1 9 10
M  V30 10 2 10 11
M  V30 11 1 11 12
M  V30 12 3 12 13
M  V30 13 1 11 2
M  V30 14 1 1 14
M  V30 15 1 1 15
M  V30 16 1 4 16
M  V30 17 1 5 17
M  V30 18 1 5 18
M  V30 19 1 6 19
M  V30 20 1 6 20
M  V30 21 1 7 21
M  V30 22 1 7 22
M  V30 23 1 9 23
M  V30 24 1 10 24
M  V30 END BOND
M  V30 END CTAB
M  END
