
     RDKit          3D

  0  0  0  0  0  0  0  0  0  0999 V3000
M  V30 BEGIN CTAB
M  V30 COUNTS 38 40 0 0 0
M  V30 BEGIN ATOM
M  V30 1 C 4.43541 2.31125 -1.47455 0
M  V30 2 C 5.12818 0.960628 -1.4061 0
M  V30 3 S 4.66387 0.171279 0.164567 0
M  V30 4 C 2.93589 -0.223051 0.204444 0
M  V30 5 N 2.11526 0.049451 -0.823294 0
M  V30 6 C 0.80983 -0.238811 -0.81591 0
M  V30 7 N -0.0171009 0.0670637 -1.9482 0
M  V30 8 C 0.290603 -0.858335 0.336725 0
M  V30 9 C 1.09838 -1.15072 1.4056 0
M  V30 10 N 2.41992 -0.812232 1.29029 0
M  V30 11 O 0.658497 -1.75842 2.58166 0
M  V30 12 C -0.694262 -2.08204 2.64685 0
M  V30 13 C -1.50577 -1.83476 1.64626 0
M  V30 14 C -1.13695 -1.22076 0.368287 0
M  V30 15 C -1.98471 -0.0574768 0.0253621 0
M  V30 16 C -3.00146 -0.274448 -0.911604 0
M  V30 17 Cl -3.21749 -1.86596 -1.6304 0
M  V30 18 C -3.80858 0.780348 -1.24088 0
M  V30 19 C -3.63012 2.01613 -0.671579 0
M  V30 20 C -2.63746 2.25901 0.253871 0
M  V30 21 C -1.81577 1.18119 0.587725 0
M  V30 22 Cl -0.57966 1.53353 1.76719 0
M  V30 23 C -2.91047 -2.19731 1.82717 0
M  V30 24 N -4.03536 -2.47971 1.99421 0
M  V30 25 N -1.2325 -2.70187 3.82926 0
M  V30 26 H 4.41802 2.72425 -0.460948 0
M  V30 27 H 3.37403 2.12598 -1.76246 0
M  V30 28 H 4.94621 2.95139 -2.21217 0
M  V30 29 H 4.8591 0.35164 -2.27611 0
M  V30 30 H 6.23091 1.08315 -1.3827 0
M  V30 31 H -0.235151 1.06486 -2.10919 0
M  V30 32 H -0.391208 -0.647828 -2.59498 0
M  V30 33 H -1.30661 -2.02215 -0.449884 0
M  V30 34 H -4.60355 0.591756 -1.97977 0
M  V30 35 H -4.29157 2.84166 -0.954287 0
M  V30 36 H -2.48585 3.21959 0.707272 0
M  V30 37 H -1.7336 -2.14006 4.53812 0
M  V30 38 H -1.12891 -3.7182 3.99239 0
M  V30 END ATOM
M  V30 BEGIN BOND
M  V30 1 1 1 2
M  V30 2 1 2 3
M  V30 3 1 3 4
M  V30 4 2 4 5
M  V30 5 1 5 6
M  V30 6 1 6 7
M  V30 7 2 6 8
M  V30 8 1 8 9
M  V30 9 2 9 10
M  V30 10 1 9 11
M  V30 11 1 11 12
M  V30 12 2 12 13
M  V30 13 1 13 14
M  V30 14 1 14 15
M  V30 15 2 15 16
M  V30 16 1 16 17
M  V30 17 1 16 18
M  V30 18 2 18 19
M  V30 19 1 19 20
M  V30 20 2 20 21
M  V30 21 1 21 22
M  V30 22 1 13 23
M  V30 23 3 23 24
M  V30 24 1 12 25
M  V30 25 1 10 4
M  V30 26 1 21 15
M  V30 27 1 14 8
M  V30 28 1 1 26
M  V30 29 1 1 27
M  V30 30 1 1 28
M  V30 31 1 2 29
M  V30 32 1 2 30
M  V30 33 1 7 31
M  V30 34 1 7 32
M  V30 35 1 14 33
M  V30 36 1 18 34
M  V30 37 1 19 35
M  V30 38 1 20 36
M  V30 39 1 25 37
M  V30 40 1 25 38
M  V30 END BOND
M  V30 END CTAB
M  END
