
     RDKit          3D

  0  0  0  0  0  0  0  0  0  0999 V3000
M  V30 BEGIN CTAB
M  V30 COUNTS 27 27 0 0 0
M  V30 BEGIN ATOM
M  V30 1 C -3.26335 0.741823 0.161159 0
M  V30 2 C -2.92026 -0.663978 0.581813 0
M  V30 3 C -1.51627 -0.952682 0.0142731 0
M  V30 4 C -0.62442 0.0562989 0.617653 0
M  V30 5 C 0.800398 -0.01509 0.234327 0
M  V30 6 N 1.68847 0.882365 0.700749 0
M  V30 7 C 2.98475 0.876208 0.403684 0
M  V30 8 N 3.91342 1.83225 0.904451 0
M  V30 9 C 3.48616 -0.0983836 -0.433578 0
M  V30 10 C 2.59767 -1.03099 -0.925901 0
M  V30 11 O 3.05453 -1.91256 -1.68399 0
M  V30 12 N 1.27797 -0.967799 -0.581063 0
M  V30 13 N -1.66094 -0.759921 -1.42279 0
M  V30 14 H -3.08175 1.48346 0.983257 0
M  V30 15 H -2.74173 1.06829 -0.754667 0
M  V30 16 H -4.3604 0.829181 -0.0650502 0
M  V30 17 H -2.85964 -0.648889 1.70301 0
M  V30 18 H -3.62892 -1.4143 0.23647 0
M  V30 19 H -1.31321 -1.99687 0.231093 0
M  V30 20 H -0.987422 1.0687 0.292997 0
M  V30 21 H -0.665966 -0.043358 1.72282 0
M  V30 22 H 4.59928 2.34961 0.338607 0
M  V30 23 H 3.88811 2.01607 1.93134 0
M  V30 24 H 4.53438 -0.146466 -0.705912 0
M  V30 25 H 0.668825 -1.70879 -0.989007 0
M  V30 26 H -1.24624 0.114037 -1.76238 0
M  V30 27 H -2.62345 -0.958238 -1.73337 0
M  V30 END ATOM
M  V30 BEGIN BOND
M  V30 1 1 1 2
M  V30 2 1 2 3
M  V30 3 1 3 4
M  V30 4 1 4 5
M  V30 5 2 5 6
M  V30 6 1 6 7
M  V30 7 1 7 8
M  V30 8 2 7 9
M  V30 9 1 9 10
M  V30 10 2 10 11
M  V30 11 1 10 12
M  V30 12 1 3 13
M  V30 13 1 12 5
M  V30 14 1 1 14
M  V30 15 1 1 15
M  V30 16 1 1 16
M  V30 17 1 2 17
M  V30 18 1 2 18
M  V30 19 1 3 19
M  V30 20 1 4 20
M  V30 21 1 4 21
M  V30 22 1 8 22
M  V30 23 1 8 23
M  V30 24 1 9 24
M  V30 25 1 12 25
M  V30 26 1 13 26
M  V30 27 1 13 27
M  V30 END BOND
M  V30 END CTAB
M  END
