
     RDKit          3D

  0  0  0  0  0  0  0  0  0  0999 V3000
M  V30 BEGIN CTAB
M  V30 COUNTS 30 31 0 0 0
M  V30 BEGIN ATOM
M  V30 1 N -5.39252 0.0369704 1.51425 0
M  V30 2 N -4.36657 -0.523176 0.735189 0
M  V30 3 C -3.21898 0.236092 0.479372 0
M  V30 4 O -3.13233 1.42154 0.961179 0
M  V30 5 C -2.07528 -0.201791 -0.306231 0
M  V30 6 C -2.10894 -1.4643 -0.849402 0
M  V30 7 C -1.01671 -1.88772 -1.60197 0
M  V30 8 C 0.0611385 -1.04858 -1.78652 0
M  V30 9 C 0.112914 0.220415 -1.24984 0
M  V30 10 C -0.979756 0.610206 -0.511973 0
M  V30 11 C 1.30427 1.05951 -1.49309 0
M  V30 12 N 2.28683 0.844424 -0.452641 0
M  V30 13 C 2.38975 1.51601 0.698265 0
M  V30 14 C 3.45321 1.0062 1.40854 0
M  V30 15 C 3.98879 -0.00118531 0.639514 0
M  V30 16 N 3.24528 -0.0646415 -0.487358 0
M  V30 17 N 5.10665 -0.812084 0.973309 0
M  V30 18 Cl 4.03638 1.50999 2.97391 0
M  V30 19 H -5.41995 1.07196 1.46143 0
M  V30 20 H -5.34418 -0.32537 2.49667 0
M  V30 21 H -4.47746 -1.48866 0.363611 0
M  V30 22 H -2.94449 -2.16222 -0.727392 0
M  V30 23 H -1.06293 -2.88445 -2.02064 0
M  V30 24 H 0.89908 -1.40325 -2.37713 0
M  V30 25 H -0.972337 1.60016 -0.0762641 0
M  V30 26 H 1.01098 2.14886 -1.51265 0
M  V30 27 H 1.75895 0.876608 -2.49368 0
M  V30 28 H 1.76645 2.31525 1.03314 0
M  V30 29 H 5.08554 -1.85247 0.977239 0
M  V30 30 H 6.00623 -0.3543 1.23117 0
M  V30 END ATOM
M  V30 BEGIN BOND
M  V30 1 1 1 2
M  V30 2 1 2 3
M  V30 3 2 3 4
M  V30 4 1 3 5
M  V30 5 2 5 6
M  V30 6 1 6 7
M  V30 7 2 7 8
M  V30 8 1 8 9
M  V30 9 2 9 10
M  V30 10 1 9 11
M  V30 11 1 11 12
M  V30 12 1 12 13
M  V30 13 2 13 14
M  V30 14 1 14 15
M  V30 15 2 15 16
M  V30 16 1 15 17
M  V30 17 1 14 18
M  V30 18 1 10 5
M  V30 19 1 16 12
M  V30 20 1 1 19
M  V30 21 1 1 20
M  V30 22 1 2 21
M  V30 23 1 6 22
M  V30 24 1 7 23
M  V30 25 1 8 24
M  V30 26 1 10 25
M  V30 27 1 11 26
M  V30 28 1 11 27
M  V30 29 1 13 28
M  V30 30 1 17 29
M  V30 31 1 17 30
M  V30 END BOND
M  V30 END CTAB
M  END
