
     RDKit          3D

  0  0  0  0  0  0  0  0  0  0999 V3000
M  V30 BEGIN CTAB
M  V30 COUNTS 20 20 0 0 0
M  V30 BEGIN ATOM
M  V30 1 F 2.83038 -1.50106 0.906957 0
M  V30 2 C 3.15304 -0.651021 -0.145289 0
M  V30 3 O 2.06597 -0.69436 -1.07596 0
M  V30 4 C 0.814392 -0.304481 -0.622244 0
M  V30 5 C 0.420074 1.014 -0.718909 0
M  V30 6 C -0.833386 1.38956 -0.261527 0
M  V30 7 N -1.30019 2.73818 -0.333444 0
M  V30 8 C -1.63324 0.412405 0.27419 0
M  V30 9 C -1.27827 -0.905754 0.387514 0
M  V30 10 C -0.0133459 -1.26258 -0.0784935 0
M  V30 11 N -2.12882 -1.90047 0.948291 0
M  V30 12 Cl -3.22353 0.876236 0.857016 0
M  V30 13 F 4.29551 -1.17235 -0.726104 0
M  V30 14 F 3.36497 0.644346 0.293385 0
M  V30 15 H 1.05805 1.76783 -1.14108 0
M  V30 16 H -1.92886 2.96731 -1.13509 0
M  V30 17 H -1.06183 3.47489 0.336208 0
M  V30 18 H 0.279721 -2.30564 0.00599949 0
M  V30 19 H -2.35349 -2.71886 0.33575 0
M  V30 20 H -2.52714 -1.86819 1.89283 0
M  V30 END ATOM
M  V30 BEGIN BOND
M  V30 1 1 1 2
M  V30 2 1 2 3
M  V30 3 1 3 4
M  V30 4 2 4 5
M  V30 5 1 5 6
M  V30 6 1 6 7
M  V30 7 2 6 8
M  V30 8 1 8 9
M  V30 9 2 9 10
M  V30 10 1 9 11
M  V30 11 1 8 12
M  V30 12 1 2 13
M  V30 13 1 2 14
M  V30 14 1 10 4
M  V30 15 1 5 15
M  V30 16 1 7 16
M  V30 17 1 7 17
M  V30 18 1 10 18
M  V30 19 1 11 19
M  V30 20 1 11 20
M  V30 END BOND
M  V30 END CTAB
M  END
