
     RDKit          3D

  0  0  0  0  0  0  0  0  0  0999 V3000
M  V30 BEGIN CTAB
M  V30 COUNTS 22 23 0 0 0
M  V30 BEGIN ATOM
M  V30 1 N 4.09301 -0.492057 0.834085 0
M  V30 2 C 2.72792 -0.183437 0.462203 0
M  V30 3 N 2.42519 0.925505 -0.212126 0
M  V30 4 C 1.16733 1.21822 -0.559519 0
M  V30 5 N 0.831998 2.39076 -1.27472 0
M  V30 6 C 0.15865 0.328059 -0.198239 0
M  V30 7 N -1.13588 0.544886 -0.507726 0
M  V30 8 C -2.12551 -0.300669 -0.169058 0
M  V30 9 C -3.5252 0.0480386 -0.568643 0
M  V30 10 Br -4.37583 1.09069 0.811265 0
M  V30 11 C -1.86157 -1.47093 0.534574 0
M  V30 12 C -0.549676 -1.72973 0.870432 0
M  V30 13 C 0.440412 -0.829253 0.500588 0
M  V30 14 N 1.73571 -1.02117 0.79603 0
M  V30 15 H 4.73288 -0.716931 0.0526732 0
M  V30 16 H 4.39564 -0.484127 1.82627 0
M  V30 17 H 1.21121 2.56141 -2.217 0
M  V30 18 H 0.200331 3.08587 -0.850988 0
M  V30 19 H -3.46567 0.633669 -1.5315 0
M  V30 20 H -4.10023 -0.85191 -0.801229 0
M  V30 21 H -2.68018 -2.13006 0.791781 0
M  V30 22 H -0.30054 -2.61682 1.41085 0
M  V30 END ATOM
M  V30 BEGIN BOND
M  V30 1 1 1 2
M  V30 2 2 2 3
M  V30 3 1 3 4
M  V30 4 1 4 5
M  V30 5 2 4 6
M  V30 6 1 6 7
M  V30 7 2 7 8
M  V30 8 1 8 9
M  V30 9 1 9 10
M  V30 10 1 8 11
M  V30 11 2 11 12
M  V30 12 1 12 13
M  V30 13 2 13 14
M  V30 14 1 14 2
M  V30 15 1 13 6
M  V30 16 1 1 15
M  V30 17 1 1 16
M  V30 18 1 5 17
M  V30 19 1 5 18
M  V30 20 1 9 19
M  V30 21 1 9 20
M  V30 22 1 11 21
M  V30 23 1 12 22
M  V30 END BOND
M  V30 END CTAB
M  END
