
     RDKit          3D

  0  0  0  0  0  0  0  0  0  0999 V3000
M  V30 BEGIN CTAB
M  V30 COUNTS 61 65 0 0 0
M  V30 BEGIN ATOM
M  V30 1 C -4.68873 5.31826 -0.185663 0
M  V30 2 C -4.22707 4.61976 -1.4441 0
M  V30 3 C -3.63898 3.28331 -1.15191 0
M  V30 4 N -4.32102 2.12882 -1.10778 0
M  V30 5 N -3.52719 1.10941 -0.824493 0
M  V30 6 C -2.2903 1.59874 -0.677321 0
M  V30 7 C -2.32819 2.95989 -0.87671 0
M  V30 8 C -1.07825 0.791417 -0.350737 0
M  V30 9 O -1.18878 -0.432051 -0.195271 0
M  V30 10 N 0.143061 1.45672 -0.232899 0
M  V30 11 C 1.42166 0.947971 0.0662936 0
M  V30 12 C 2.54762 1.78008 -0.0630817 0
M  V30 13 C 3.81639 1.3486 0.221349 0
M  V30 14 C 4.05283 0.0733349 0.648675 0
M  V30 15 C 2.96172 -0.753466 0.781254 0
M  V30 16 C 1.65838 -0.320043 0.49288 0
M  V30 17 C 5.36603 -0.49273 0.946501 0
M  V30 18 C 5.73177 -0.726256 2.26892 0
M  V30 19 C 6.94573 -1.22765 2.65894 0
M  V30 20 C 7.86952 -1.5221 1.68343 0
M  V30 21 C 7.54438 -1.3056 0.369466 0
M  V30 22 C 6.30213 -0.793584 -0.0229635 0
M  V30 23 S 5.96464 -0.584911 -1.71736 0
M  V30 24 N 7.36546 -1.14914 -2.60449 0
M  V30 25 O 5.79158 0.833919 -2.11492 0
M  V30 26 O 4.82104 -1.44661 -2.17287 0
M  V30 27 C -3.94406 -0.266434 -0.70275 0
M  V30 28 C -4.19613 -0.831916 0.529907 0
M  V30 29 C -4.59902 -2.15869 0.660404 0
M  V30 30 C -4.83858 -2.6764 1.91764 0
M  V30 31 N -4.66213 -1.82558 3.0339 0
M  V30 32 N -5.2229 -3.95104 2.00292 0
M  V30 33 C -5.39173 -4.76367 0.94131 0
M  V30 34 C -5.15584 -4.25939 -0.320652 0
M  V30 35 C -4.75518 -2.94488 -0.471994 0
M  V30 36 C -4.50632 -2.39156 -1.71051 0
M  V30 37 C -4.1067 -1.06925 -1.81253 0
M  V30 38 H -5.24261 6.22828 -0.519257 0
M  V30 39 H -3.80819 5.68617 0.38412 0
M  V30 40 H -5.33671 4.64979 0.418508 0
M  V30 41 H -5.10734 4.53006 -2.13362 0
M  V30 42 H -3.49713 5.29134 -1.9449 0
M  V30 43 H -1.51945 3.67849 -0.836939 0
M  V30 44 H 0.107708 2.52401 -0.39148 0
M  V30 45 H 2.39458 2.80653 -0.404301 0
M  V30 46 H 4.67014 2.02316 0.134513 0
M  V30 47 H 3.06949 -1.77717 1.11566 0
M  V30 48 H 0.839767 -1.0314 0.628374 0
M  V30 49 H 5.00726 -0.49558 3.03796 0
M  V30 50 H 7.19436 -1.39732 3.71732 0
M  V30 51 H 8.83198 -1.91771 1.97164 0
M  V30 52 H 8.29139 -1.54568 -0.388927 0
M  V30 53 H 7.07972 -1.50534 -3.52334 0
M  V30 54 H 8.12358 -0.451373 -2.6028 0
M  V30 55 H -4.07598 -0.225728 1.40668 0
M  V30 56 H -4.08616 -2.20117 3.83484 0
M  V30 57 H -5.03768 -0.880592 3.1429 0
M  V30 58 H -5.70751 -5.80091 1.05517 0
M  V30 59 H -5.2831 -4.89191 -1.20796 0
M  V30 60 H -4.63572 -3.02557 -2.57281 0
M  V30 61 H -3.90924 -0.627664 -2.78416 0
M  V30 END ATOM
M  V30 BEGIN BOND
M  V30 1 1 1 2
M  V30 2 1 2 3
M  V30 3 2 3 4
M  V30 4 1 4 5
M  V30 5 1 5 6
M  V30 6 2 6 7
M  V30 7 1 6 8
M  V30 8 2 8 9
M  V30 9 1 8 10
M  V30 10 1 10 11
M  V30 11 2 11 12
M  V30 12 1 12 13
M  V30 13 2 13 14
M  V30 14 1 14 15
M  V30 15 2 15 16
M  V30 16 1 14 17
M  V30 17 2 17 18
M  V30 18 1 18 19
M  V30 19 2 19 20
M  V30 20 1 20 21
M  V30 21 2 21 22
M  V30 22 1 22 23
M  V30 23 1 23 24
M  V30 24 2 23 25
M  V30 25 2 23 26
M  V30 26 1 5 27
M  V30 27 2 27 28
M  V30 28 1 28 29
M  V30 29 2 29 30
M  V30 30 1 30 31
M  V30 31 1 30 32
M  V30 32 2 32 33
M  V30 33 1 33 34
M  V30 34 2 34 35
M  V30 35 1 35 36
M  V30 36 2 36 37
M  V30 37 1 7 3
M  V30 38 1 16 11
M  V30 39 1 22 17
M  V30 40 1 37 27
M  V30 41 1 35 29
M  V30 42 1 1 38
M  V30 43 1 1 39
M  V30 44 1 1 40
M  V30 45 1 2 41
M  V30 46 1 2 42
M  V30 47 1 7 43
M  V30 48 1 10 44
M  V30 49 1 12 45
M  V30 50 1 13 46
M  V30 51 1 15 47
M  V30 52 1 16 48
M  V30 53 1 18 49
M  V30 54 1 19 50
M  V30 55 1 20 51
M  V30 56 1 21 52
M  V30 57 1 24 53
M  V30 58 1 24 54
M  V30 59 1 28 55
M  V30 60 1 31 56
M  V30 61 1 31 57
M  V30 62 1 33 58
M  V30 63 1 34 59
M  V30 64 1 36 60
M  V30 65 1 37 61
M  V30 END BOND
M  V30 END CTAB
M  END
