
     RDKit          3D

  0  0  0  0  0  0  0  0  0  0999 V3000
M  V30 BEGIN CTAB
M  V30 COUNTS 28 29 0 0 0
M  V30 BEGIN ATOM
M  V30 1 N 4.3014 -0.790058 0.974954 0
M  V30 2 C 2.92639 -0.568407 0.67769 0
M  V30 3 C 1.99953 -1.52271 1.02024 0
M  V30 4 C 0.655578 -1.32503 0.73902 0
M  V30 5 C 0.244863 -0.168311 0.113762 0
M  V30 6 N 1.18889 0.764648 -0.215915 0
M  V30 7 C 2.49684 0.589556 0.0492814 0
M  V30 8 N 3.47301 1.5735 -0.301061 0
M  V30 9 N -1.12488 0.0365232 -0.175592 0
M  V30 10 C -2.0846 -0.985352 0.162161 0
M  V30 11 C -3.39598 -0.667535 -0.521003 0
M  V30 12 C -3.8024 0.697912 -0.0888137 0
M  V30 13 C -2.89166 1.67951 -0.228372 0
M  V30 14 C -1.58601 1.25588 -0.803846 0
M  V30 15 H 5.0152 -0.415126 0.330642 0
M  V30 16 H 4.58155 -1.31376 1.81547 0
M  V30 17 H 2.26058 -2.45905 1.51657 0
M  V30 18 H -0.0667053 -2.07274 1.00879 0
M  V30 19 H 4.34292 1.64084 0.260057 0
M  V30 20 H 3.32752 2.22184 -1.10652 0
M  V30 21 H -2.27604 -0.912084 1.25632 0
M  V30 22 H -1.75017 -2.0063 -0.123893 0
M  V30 23 H -4.1837 -1.38689 -0.235394 0
M  V30 24 H -3.24323 -0.618349 -1.61762 0
M  V30 25 H -4.77249 0.914405 0.318712 0
M  V30 26 H -3.10728 2.70083 0.0617469 0
M  V30 27 H -1.66675 1.06255 -1.8934 0
M  V30 28 H -0.862373 2.07373 -0.657681 0
M  V30 END ATOM
M  V30 BEGIN BOND
M  V30 1 1 1 2
M  V30 2 2 2 3
M  V30 3 1 3 4
M  V30 4 2 4 5
M  V30 5 1 5 6
M  V30 6 2 6 7
M  V30 7 1 7 8
M  V30 8 1 5 9
M  V30 9 1 9 10
M  V30 10 1 10 11
M  V30 11 1 11 12
M  V30 12 2 12 13
M  V30 13 1 13 14
M  V30 14 1 7 2
M  V30 15 1 14 9
M  V30 16 1 1 15
M  V30 17 1 1 16
M  V30 18 1 3 17
M  V30 19 1 4 18
M  V30 20 1 8 19
M  V30 21 1 8 20
M  V30 22 1 10 21
M  V30 23 1 10 22
M  V30 24 1 11 23
M  V30 25 1 11 24
M  V30 26 1 12 25
M  V30 27 1 13 26
M  V30 28 1 14 27
M  V30 29 1 14 28
M  V30 END BOND
M  V30 END CTAB
M  END
