
     RDKit          3D

  0  0  0  0  0  0  0  0  0  0999 V3000
M  V30 BEGIN CTAB
M  V30 COUNTS 23 23 0 0 0
M  V30 BEGIN ATOM
M  V30 1 O -1.75122 -2.79065 0.172858 0
M  V30 2 C -1.99434 -1.4049 0.148197 0
M  V30 3 C -0.75143 -0.619493 0.0137844 0
M  V30 4 C 0.439056 -1.25831 0.189052 0
M  V30 5 C 1.57916 -0.435903 0.231416 0
M  V30 6 C 1.46168 0.918552 0.117007 0
M  V30 7 C 0.265819 1.52653 -0.0483978 0
M  V30 8 C -0.848484 0.761213 -0.113547 0
M  V30 9 N -2.06934 1.31805 -0.532682 0
M  V30 10 N 0.11203 2.95811 -0.184322 0
M  V30 11 C 2.97793 -0.996572 0.318958 0
M  V30 12 F 3.44698 -1.4885 -0.879293 0
M  V30 13 F 2.91738 -2.11443 1.17934 0
M  V30 14 F 3.83459 -0.0738884 0.833718 0
M  V30 15 H -2.45557 -3.14074 -0.545205 0
M  V30 16 H -2.46573 -1.0783 1.1558 0
M  V30 17 H -2.73947 -1.17041 -0.625372 0
M  V30 18 H 0.563374 -2.33462 0.301958 0
M  V30 19 H 2.34632 1.5644 0.0997443 0
M  V30 20 H -2.55377 0.832057 -1.35604 0
M  V30 21 H -2.49123 2.12645 -0.112872 0
M  V30 22 H 0.252043 3.43929 -1.08936 0
M  V30 23 H -0.0757776 3.46207 0.725267 0
M  V30 END ATOM
M  V30 BEGIN BOND
M  V30 1 1 1 2
M  V30 2 1 2 3
M  V30 3 2 3 4
M  V30 4 1 4 5
M  V30 5 2 5 6
M  V30 6 1 6 7
M  V30 7 2 7 8
M  V30 8 1 8 9
M  V30 9 1 7 10
M  V30 10 1 5 11
M  V30 11 1 11 12
M  V30 12 1 11 13
M  V30 13 1 11 14
M  V30 14 1 8 3
M  V30 15 1 1 15
M  V30 16 1 2 16
M  V30 17 1 2 17
M  V30 18 1 4 18
M  V30 19 1 6 19
M  V30 20 1 9 20
M  V30 21 1 9 21
M  V30 22 1 10 22
M  V30 23 1 10 23
M  V30 END BOND
M  V30 END CTAB
M  END
