
     RDKit          3D

  0  0  0  0  0  0  0  0  0  0999 V3000
M  V30 BEGIN CTAB
M  V30 COUNTS 33 34 0 0 0
M  V30 BEGIN ATOM
M  V30 1 N 6.66942 1.38343 -1.03557 0
M  V30 2 N 5.28471 1.34599 -1.02565 0
M  V30 3 C 4.53692 0.386752 -0.296586 0
M  V30 4 O 5.19928 -0.466926 0.370408 0
M  V30 5 C 3.08984 0.362191 -0.297448 0
M  V30 6 N 2.42733 1.29212 -1.02325 0
M  V30 7 C 1.08466 1.30604 -1.05236 0
M  V30 8 Cl 0.196103 2.50649 -1.98975 0
M  V30 9 C 0.417297 0.348053 -0.32315 0
M  V30 10 N -1.00777 0.318552 -0.319902 0
M  V30 11 C -1.7405 -0.660508 0.424637 0
M  V30 12 C -3.21433 -0.526089 0.3325 0
M  V30 13 C -3.8266 0.68847 0.110328 0
M  V30 14 C -5.2173 0.783055 0.0240955 0
M  V30 15 C -6.0151 -0.310964 0.155122 0
M  V30 16 Cl -7.76363 -0.124918 0.0361482 0
M  V30 17 C -5.41858 -1.5204 0.375847 0
M  V30 18 C -4.05658 -1.61484 0.460505 0
M  V30 19 N 1.08151 -0.578084 0.399748 0
M  V30 20 C 2.42707 -0.600536 0.435481 0
M  V30 21 N 3.14599 -1.56445 1.18825 0
M  V30 22 H 7.0713 0.783659 -1.77259 0
M  V30 23 H 7.10386 1.15337 -0.121407 0
M  V30 24 H 4.7611 2.0525 -1.57734 0
M  V30 25 H -1.53606 1.02295 -0.874189 0
M  V30 26 H -1.49744 -1.71111 0.0885435 0
M  V30 27 H -1.40564 -0.583843 1.50029 0
M  V30 28 H -3.25235 1.57993 0.00318302 0
M  V30 29 H -5.67156 1.75133 -0.151413 0
M  V30 30 H -6.08125 -2.39128 0.478799 0
M  V30 31 H -3.6281 -2.58897 0.63562 0
M  V30 32 H 3.47364 -2.47949 0.82125 0
M  V30 33 H 3.36278 -1.34247 2.18045 0
M  V30 END ATOM
M  V30 BEGIN BOND
M  V30 1 1 1 2
M  V30 2 1 2 3
M  V30 3 2 3 4
M  V30 4 1 3 5
M  V30 5 2 5 6
M  V30 6 1 6 7
M  V30 7 1 7 8
M  V30 8 2 7 9
M  V30 9 1 9 10
M  V30 10 1 10 11
M  V30 11 1 11 12
M  V30 12 2 12 13
M  V30 13 1 13 14
M  V30 14 2 14 15
M  V30 15 1 15 16
M  V30 16 1 15 17
M  V30 17 2 17 18
M  V30 18 1 9 19
M  V30 19 2 19 20
M  V30 20 1 20 21
M  V30 21 1 20 5
M  V30 22 1 18 12
M  V30 23 1 1 22
M  V30 24 1 1 23
M  V30 25 1 2 24
M  V30 26 1 10 25
M  V30 27 1 11 26
M  V30 28 1 11 27
M  V30 29 1 13 28
M  V30 30 1 14 29
M  V30 31 1 17 30
M  V30 32 1 18 31
M  V30 33 1 21 32
M  V30 34 1 21 33
M  V30 END BOND
M  V30 END CTAB
M  END
