
     RDKit          3D

  0  0  0  0  0  0  0  0  0  0999 V3000
M  V30 BEGIN CTAB
M  V30 COUNTS 37 41 0 0 0
M  V30 BEGIN ATOM
M  V30 1 N 2.35759 -3.64442 0.459052 0
M  V30 2 N 1.61002 -2.47112 0.343331 0
M  V30 3 C 2.11078 -1.20325 0.355235 0
M  V30 4 N 3.38711 -0.746518 0.474221 0
M  V30 5 C 3.59227 0.58095 0.453281 0
M  V30 6 C 4.92278 1.00108 0.579108 0
M  V30 7 C 5.14548 2.35856 0.559045 0
M  V30 8 C 4.13436 3.2821 0.423717 0
M  V30 9 C 2.83889 2.8391 0.302288 0
M  V30 10 C 2.54716 1.47849 0.315226 0
M  V30 11 N 1.27273 1.04119 0.19582 0
M  V30 12 C 1.08095 -0.302783 0.218688 0
M  V30 13 C -0.0816082 -1.06836 0.121475 0
M  V30 14 C 0.253506 -2.39936 0.199066 0
M  V30 15 N -0.625812 -3.51444 0.142663 0
M  V30 16 C -1.41507 -0.487145 -0.0366189 0
M  V30 17 N -1.71 0.834332 -0.109589 0
M  V30 18 C -3.03521 1.01616 -0.254074 0
M  V30 19 C -3.60903 -0.220466 -0.274728 0
M  V30 20 N -2.58989 -1.10906 -0.139756 0
M  V30 21 C -4.96659 -0.365629 -0.412172 0
M  V30 22 C -5.74762 0.782294 -0.530476 0
M  V30 23 C -5.19106 2.04322 -0.512401 0
M  V30 24 C -3.81639 2.16299 -0.372359 0
M  V30 25 H 2.51049 -4.12594 1.38234 0
M  V30 26 H 2.76795 -4.03275 -0.429935 0
M  V30 27 H 5.71111 0.267253 0.685058 0
M  V30 28 H 6.17958 2.72485 0.655567 0
M  V30 29 H 4.37132 4.34851 0.414442 0
M  V30 30 H 2.01802 3.54749 0.193749 0
M  V30 31 H -0.887272 -4.01064 -0.730559 0
M  V30 32 H -1.03126 -3.85171 1.03694 0
M  V30 33 H -2.76997 -2.122 -0.12632 0
M  V30 34 H -5.42199 -1.34941 -0.428488 0
M  V30 35 H -6.81633 0.666824 -0.638638 0
M  V30 36 H -5.79761 2.94356 -0.604556 0
M  V30 37 H -3.29941 3.10605 -0.348284 0
M  V30 END ATOM
M  V30 BEGIN BOND
M  V30 1 1 1 2
M  V30 2 1 2 3
M  V30 3 2 3 4
M  V30 4 1 4 5
M  V30 5 2 5 6
M  V30 6 1 6 7
M  V30 7 2 7 8
M  V30 8 1 8 9
M  V30 9 2 9 10
M  V30 10 1 10 11
M  V30 11 2 11 12
M  V30 12 1 12 13
M  V30 13 2 13 14
M  V30 14 1 14 15
M  V30 15 1 13 16
M  V30 16 2 16 17
M  V30 17 1 17 18
M  V30 18 2 18 19
M  V30 19 1 19 20
M  V30 20 1 19 21
M  V30 21 2 21 22
M  V30 22 1 22 23
M  V30 23 2 23 24
M  V30 24 1 14 2
M  V30 25 1 20 16
M  V30 26 1 12 3
M  V30 27 1 24 18
M  V30 28 1 10 5
M  V30 29 1 1 25
M  V30 30 1 1 26
M  V30 31 1 6 27
M  V30 32 1 7 28
M  V30 33 1 8 29
M  V30 34 1 9 30
M  V30 35 1 15 31
M  V30 36 1 15 32
M  V30 37 1 20 33
M  V30 38 1 21 34
M  V30 39 1 22 35
M  V30 40 1 23 36
M  V30 41 1 24 37
M  V30 END BOND
M  V30 END CTAB
M  END
