
     RDKit          3D

  0  0  0  0  0  0  0  0  0  0999 V3000
M  V30 BEGIN CTAB
M  V30 COUNTS 33 33 0 0 0
M  V30 BEGIN ATOM
M  V30 1 N -4.49882 1.72612 0.296763 0
M  V30 2 C -4.31754 0.669271 -0.635118 0
M  V30 3 C -2.88396 0.28158 -0.857134 0
M  V30 4 C -2.19802 -0.186689 0.404877 0
M  V30 5 C -0.772111 -0.534067 -0.000479132 0
M  V30 6 C 0.0558091 -1.01695 1.12447 0
M  V30 7 C 1.44229 -1.34942 0.6699 0
M  V30 8 C 2.23074 -0.24883 0.112357 0
M  V30 9 C 3.48992 -0.611811 -0.394207 0
M  V30 10 C 4.36351 0.301647 -0.933512 0
M  V30 11 C 3.97516 1.62335 -0.972304 0
M  V30 12 C 2.74145 1.95563 -0.472221 0
M  V30 13 N 1.91752 1.03431 0.0460647 0
M  V30 14 N 2.21456 -2.11399 1.64161 0
M  V30 15 H -3.79504 2.46609 0.150003 0
M  V30 16 H -4.54285 1.34681 1.2566 0
M  V30 17 H -4.73587 0.953366 -1.6216 0
M  V30 18 H -4.86575 -0.259213 -0.333302 0
M  V30 19 H -2.80703 -0.515849 -1.61885 0
M  V30 20 H -2.28724 1.15109 -1.23505 0
M  V30 21 H -2.73107 -1.05436 0.817641 0
M  V30 22 H -2.21423 0.602016 1.18498 0
M  V30 23 H -0.371423 0.319638 -0.512787 0
M  V30 24 H -0.886366 -1.4008 -0.71985 0
M  V30 25 H 0.0545084 -0.326138 2.00061 0
M  V30 26 H -0.374582 -1.97562 1.55077 0
M  V30 27 H 1.33879 -2.09527 -0.199711 0
M  V30 28 H 3.82838 -1.64625 -0.379327 0
M  V30 29 H 5.3327 0.0326069 -1.32509 0
M  V30 30 H 4.65821 2.35522 -1.39681 0
M  V30 31 H 2.45325 3.01234 -0.513239 0
M  V30 32 H 1.66851 -2.95622 1.87071 0
M  V30 33 H 2.5166 -1.5396 2.4344 0
M  V30 END ATOM
M  V30 BEGIN BOND
M  V30 1 1 1 2
M  V30 2 1 2 3
M  V30 3 1 3 4
M  V30 4 1 4 5
M  V30 5 1 5 6
M  V30 6 1 6 7
M  V30 7 1 7 8
M  V30 8 2 8 9
M  V30 9 1 9 10
M  V30 10 2 10 11
M  V30 11 1 11 12
M  V30 12 2 12 13
M  V30 13 1 7 14
M  V30 14 1 13 8
M  V30 15 1 1 15
M  V30 16 1 1 16
M  V30 17 1 2 17
M  V30 18 1 2 18
M  V30 19 1 3 19
M  V30 20 1 3 20
M  V30 21 1 4 21
M  V30 22 1 4 22
M  V30 23 1 5 23
M  V30 24 1 5 24
M  V30 25 1 6 25
M  V30 26 1 6 26
M  V30 27 1 7 27
M  V30 28 1 9 28
M  V30 29 1 10 29
M  V30 30 1 11 30
M  V30 31 1 12 31
M  V30 32 1 14 32
M  V30 33 1 14 33
M  V30 END BOND
M  V30 END CTAB
M  END
