
     RDKit          3D

  0  0  0  0  0  0  0  0  0  0999 V3000
M  V30 BEGIN CTAB
M  V30 COUNTS 28 28 0 0 0
M  V30 BEGIN ATOM
M  V30 1 N 2.06118 1.98389 -0.704417 0
M  V30 2 C 0.955428 1.41579 0.00583785 0
M  V30 3 C 0.24834 1.99598 1.03061 0
M  V30 4 N 0.48857 3.27549 1.57565 0
M  V30 5 C -0.731135 1.1092 1.42771 0
M  V30 6 O -1.59591 1.24287 2.33271 0
M  V30 7 N -0.608534 0.0149543 0.649028 0
M  V30 8 C -1.44431 -1.16419 0.732255 0
M  V30 9 C -2.65055 -1.02385 -0.182397 0
M  V30 10 O -3.42386 -2.17604 -0.0710993 0
M  V30 11 N 0.400969 0.209037 -0.195654 0
M  V30 12 C 0.855837 -0.752302 -1.21065 0
M  V30 13 C 1.90514 -1.61962 -0.556463 0
M  V30 14 O 2.42164 -2.57181 -1.39958 0
M  V30 15 H 1.9238 2.72868 -1.43846 0
M  V30 16 H 3.0422 1.68993 -0.529812 0
M  V30 17 H 0.838032 4.0859 1.01742 0
M  V30 18 H 0.303527 3.41895 2.60754 0
M  V30 19 H -0.903201 -2.08485 0.368509 0
M  V30 20 H -1.82118 -1.36097 1.75069 0
M  V30 21 H -2.34654 -0.914987 -1.24511 0
M  V30 22 H -3.21188 -0.137702 0.188591 0
M  V30 23 H -4.31344 -2.08477 -0.476946 0
M  V30 24 H -0.000144197 -1.38156 -1.46342 0
M  V30 25 H 1.30753 -0.212156 -2.03949 0
M  V30 26 H 1.49659 -2.13478 0.341907 0
M  V30 27 H 2.74948 -0.967861 -0.211076 0
M  V30 28 H 2.05242 -2.58324 -2.3039 0
M  V30 END ATOM
M  V30 BEGIN BOND
M  V30 1 1 1 2
M  V30 2 2 2 3
M  V30 3 1 3 4
M  V30 4 1 3 5
M  V30 5 2 5 6
M  V30 6 1 5 7
M  V30 7 1 7 8
M  V30 8 1 8 9
M  V30 9 1 9 10
M  V30 10 1 7 11
M  V30 11 1 11 12
M  V30 12 1 12 13
M  V30 13 1 13 14
M  V30 14 1 11 2
M  V30 15 1 1 15
M  V30 16 1 1 16
M  V30 17 1 4 17
M  V30 18 1 4 18
M  V30 19 1 8 19
M  V30 20 1 8 20
M  V30 21 1 9 21
M  V30 22 1 9 22
M  V30 23 1 10 23
M  V30 24 1 12 24
M  V30 25 1 12 25
M  V30 26 1 13 26
M  V30 27 1 13 27
M  V30 28 1 14 28
M  V30 END BOND
M  V30 END CTAB
M  END
