
     RDKit          3D

  0  0  0  0  0  0  0  0  0  0999 V3000
M  V30 BEGIN CTAB
M  V30 COUNTS 45 47 0 0 0
M  V30 BEGIN ATOM
M  V30 1 C -2.23992 -1.88015 0.456569 0
M  V30 2 C -3.00883 -0.8289 -0.360532 0
M  V30 3 C -2.67343 -1.12695 -1.81385 0
M  V30 4 N -4.38831 -1.03602 -0.0823176 0
M  V30 5 C -5.16908 -0.158801 0.413414 0
M  V30 6 N -6.54095 -0.528945 0.634186 0
M  V30 7 N -4.73427 1.15625 0.748989 0
M  V30 8 C -3.48956 1.42012 0.522083 0
M  V30 9 N -2.96493 2.73441 0.834815 0
M  V30 10 N -2.57707 0.492914 -0.026692 0
M  V30 11 C -1.21153 0.920395 -0.237238 0
M  V30 12 C -0.32346 0.726701 0.795113 0
M  V30 13 C 1.01835 1.10929 0.683123 0
M  V30 14 S 2.04922 0.849261 2.07847 0
M  V30 15 C 3.79418 1.08194 1.86048 0
M  V30 16 C 4.37478 -0.0209312 1.06851 0
M  V30 17 C 4.71858 -1.18867 1.74692 0
M  V30 18 C 5.28516 -2.26165 1.10651 0
M  V30 19 C 5.53149 -2.21012 -0.241623 0
M  V30 20 C 5.20338 -1.06898 -0.943267 0
M  V30 21 C 4.63439 -0.00560686 -0.269901 0
M  V30 22 C 1.37355 1.68237 -0.511939 0
M  V30 23 C 0.48996 1.88357 -1.56132 0
M  V30 24 C -0.817541 1.498 -1.42204 0
M  V30 25 H -2.72326 -2.8507 0.257266 0
M  V30 26 H -2.33825 -1.68444 1.54679 0
M  V30 27 H -1.17676 -1.89866 0.153403 0
M  V30 28 H -2.89689 -2.20046 -2.04735 0
M  V30 29 H -1.58951 -1.00431 -2.01106 0
M  V30 30 H -3.21891 -0.502854 -2.52256 0
M  V30 31 H -6.77391 -1.40861 1.11785 0
M  V30 32 H -7.28135 0.106162 0.297189 0
M  V30 33 H -3.00156 3.51134 0.145387 0
M  V30 34 H -2.53286 2.93231 1.77196 0
M  V30 35 H -0.656657 0.275811 1.70303 0
M  V30 36 H 4.29002 1.03259 2.87817 0
M  V30 37 H 4.05416 2.06238 1.38277 0
M  V30 38 H 4.51358 -1.21237 2.8298 0
M  V30 39 H 5.53912 -3.16385 1.69001 0
M  V30 40 H 5.9811 -3.05534 -0.763392 0
M  V30 41 H 5.40351 -1.04109 -2.00845 0
M  V30 42 H 4.3997 0.869569 -0.849674 0
M  V30 43 H 2.3714 2.01844 -0.659445 0
M  V30 44 H 0.834154 2.34218 -2.48282 0
M  V30 45 H -1.53098 1.63239 -2.19986 0
M  V30 END ATOM
M  V30 BEGIN BOND
M  V30 1 1 1 2
M  V30 2 1 2 3
M  V30 3 1 2 4
M  V30 4 2 4 5
M  V30 5 1 5 6
M  V30 6 1 5 7
M  V30 7 2 7 8
M  V30 8 1 8 9
M  V30 9 1 8 10
M  V30 10 1 10 11
M  V30 11 2 11 12
M  V30 12 1 12 13
M  V30 13 1 13 14
M  V30 14 1 14 15
M  V30 15 1 15 16
M  V30 16 2 16 17
M  V30 17 1 17 18
M  V30 18 2 18 19
M  V30 19 1 19 20
M  V30 20 2 20 21
M  V30 21 2 13 22
M  V30 22 1 22 23
M  V30 23 2 23 24
M  V30 24 1 10 2
M  V30 25 1 24 11
M  V30 26 1 21 16
M  V30 27 1 1 25
M  V30 28 1 1 26
M  V30 29 1 1 27
M  V30 30 1 3 28
M  V30 31 1 3 29
M  V30 32 1 3 30
M  V30 33 1 6 31
M  V30 34 1 6 32
M  V30 35 1 9 33
M  V30 36 1 9 34
M  V30 37 1 12 35
M  V30 38 1 15 36
M  V30 39 1 15 37
M  V30 40 1 17 38
M  V30 41 1 18 39
M  V30 42 1 19 40
M  V30 43 1 20 41
M  V30 44 1 21 42
M  V30 45 1 22 43
M  V30 46 1 23 44
M  V30 47 1 24 45
M  V30 END BOND
M  V30 END CTAB
M  END
