
     RDKit          3D

  0  0  0  0  0  0  0  0  0  0999 V3000
M  V30 BEGIN CTAB
M  V30 COUNTS 19 19 0 0 0
M  V30 BEGIN ATOM
M  V30 1 N -3.82653 -0.517647 -0.468462 0
M  V30 2 N -2.44872 -0.706624 -0.0824793 0
M  V30 3 C -1.53131 0.229829 -0.502047 0
M  V30 4 O -2.04054 1.2032 -1.2185 0
M  V30 5 C -0.0934936 0.378427 -0.320351 0
M  V30 6 S 0.865325 1.70893 -0.968093 0
M  V30 7 C 2.38675 1.24841 -0.38992 0
M  V30 8 N 2.10978 0.143918 0.246704 0
M  V30 9 C 0.888685 -0.322525 0.304568 0
M  V30 10 C 0.663091 -1.623 1.06312 0
M  V30 11 F 0.16675 -2.5891 0.26974 0
M  V30 12 F -0.1505 -1.35663 2.13506 0
M  V30 13 F 1.87018 -2.11144 1.5669 0
M  V30 14 N 3.65455 1.89799 -0.553313 0
M  V30 15 H -3.98712 0.505569 -0.645214 0
M  V30 16 H -4.45725 -0.823476 0.289246 0
M  V30 17 H -2.30923 -1.5367 0.475726 0
M  V30 18 H 4.22529 2.11949 0.295413 0
M  V30 19 H 4.01431 2.1514 -1.49809 0
M  V30 END ATOM
M  V30 BEGIN BOND
M  V30 1 1 1 2
M  V30 2 1 2 3
M  V30 3 2 3 4
M  V30 4 1 3 5
M  V30 5 1 5 6
M  V30 6 1 6 7
M  V30 7 2 7 8
M  V30 8 1 8 9
M  V30 9 1 9 10
M  V30 10 1 10 11
M  V30 11 1 10 12
M  V30 12 1 10 13
M  V30 13 1 7 14
M  V30 14 2 9 5
M  V30 15 1 1 15
M  V30 16 1 1 16
M  V30 17 1 2 17
M  V30 18 1 14 18
M  V30 19 1 14 19
M  V30 END BOND
M  V30 END CTAB
M  END
