
     RDKit          3D

  0  0  0  0  0  0  0  0  0  0999 V3000
M  V30 BEGIN CTAB
M  V30 COUNTS 29 30 0 0 0
M  V30 BEGIN ATOM
M  V30 1 N -5.25359 1.12018 0.663425 0
M  V30 2 C -3.9906 0.60458 0.226503 0
M  V30 3 C -2.94639 1.49292 0.134412 0
M  V30 4 C -1.70332 0.949651 -0.234681 0
M  V30 5 C -1.55335 -0.38014 -0.481709 0
M  V30 6 C -2.66545 -1.23615 -0.372193 0
M  V30 7 C -3.89135 -0.744691 -0.0180362 0
M  V30 8 C -0.333091 -1.10658 -0.853833 0
M  V30 9 S 0.512395 -1.54231 0.745167 0
M  V30 10 C 1.73848 -0.233421 1.02597 0
M  V30 11 N 1.82557 0.913868 1.61583 0
M  V30 12 N 3.05009 1.47413 1.39619 0
M  V30 13 C 3.76052 0.631936 0.624108 0
M  V30 14 N 2.96864 -0.411795 0.393269 0
M  V30 15 N 3.22378 -1.60519 -0.335379 0
M  V30 16 C 5.10378 0.815742 -0.0219369 0
M  V30 17 F 5.56994 -0.458191 -0.259037 0
M  V30 18 F 5.92166 1.58567 0.750335 0
M  V30 19 F 4.94958 1.48021 -1.27444 0
M  V30 20 H -6.0928 0.796681 0.118801 0
M  V30 21 H -5.38875 1.7538 1.45362 0
M  V30 22 H -3.08694 2.53389 0.306398 0
M  V30 23 H -0.892984 1.60904 -0.311448 0
M  V30 24 H -2.54387 -2.265 -0.60088 0
M  V30 25 H -4.75295 -1.34858 0.0878448 0
M  V30 26 H 0.350749 -0.381075 -1.37655 0
M  V30 27 H -0.461016 -1.9536 -1.49667 0
M  V30 28 H 3.40407 -1.5992 -1.32064 0
M  V30 29 H 3.17722 -2.49637 0.182483 0
M  V30 END ATOM
M  V30 BEGIN BOND
M  V30 1 1 1 2
M  V30 2 2 2 3
M  V30 3 1 3 4
M  V30 4 2 4 5
M  V30 5 1 5 6
M  V30 6 2 6 7
M  V30 7 1 5 8
M  V30 8 1 8 9
M  V30 9 1 9 10
M  V30 10 2 10 11
M  V30 11 1 11 12
M  V30 12 2 12 13
M  V30 13 1 13 14
M  V30 14 1 14 15
M  V30 15 1 13 16
M  V30 16 1 16 17
M  V30 17 1 16 18
M  V30 18 1 16 19
M  V30 19 1 7 2
M  V30 20 1 14 10
M  V30 21 1 1 20
M  V30 22 1 1 21
M  V30 23 1 3 22
M  V30 24 1 4 23
M  V30 25 1 6 24
M  V30 26 1 7 25
M  V30 27 1 8 26
M  V30 28 1 8 27
M  V30 29 1 15 28
M  V30 30 1 15 29
M  V30 END BOND
M  V30 END CTAB
M  END
