
     RDKit          3D

  0  0  0  0  0  0  0  0  0  0999 V3000
M  V30 BEGIN CTAB
M  V30 COUNTS 28 28 0 0 0
M  V30 BEGIN ATOM
M  V30 1 N -1.00577 -3.05022 0.670561 0
M  V30 2 S 0.37198 -2.16064 0.214604 0
M  V30 3 O 0.836378 -2.73239 -1.11921 0
M  V30 4 O 1.409 -2.33373 1.26052 0
M  V30 5 N -0.0719143 -0.560608 -0.0255673 0
M  V30 6 C -1.00839 -0.329124 -1.03215 0
M  V30 7 C -2.33702 0.210965 -0.589026 0
M  V30 8 O -2.32637 1.49099 -0.138868 0
M  V30 9 C -1.12118 2.13806 -0.156972 0
M  V30 10 C -0.293573 1.66451 1.0043 0
M  V30 11 C 0.516965 0.436769 0.711334 0 CFG=2
M  V30 12 S 2.0789 0.999704 0.0204142 0
M  V30 13 O 1.89908 1.60855 -1.32044 0
M  V30 14 O 2.7146 2.01435 0.955171 0
M  V30 15 N 3.19839 -0.314588 -0.101631 0
M  V30 16 H -1.6647 -3.12243 -0.0457296 0
M  V30 17 H -1.15212 -3.08114 1.60638 0
M  V30 18 H -0.597604 0.238197 -1.91266 0
M  V30 19 H -1.2548 -1.33892 -1.48894 0
M  V30 20 H -3.03302 0.140436 -1.46483 0
M  V30 21 H -2.73167 -0.477195 0.183963 0
M  V30 22 H -0.590461 2.11804 -1.12233 0
M  V30 23 H -1.33732 3.23209 0.0346006 0
M  V30 24 H 0.406564 2.50035 1.26109 0
M  V30 25 H -0.95698 1.53574 1.87097 0
M  V30 26 H 0.798589 0.031228 1.73055 0
M  V30 27 H 3.07225 -0.870873 -0.956676 0
M  V30 28 H 4.1802 0.0118765 -0.0494366 0
M  V30 END ATOM
M  V30 BEGIN BOND
M  V30 1 1 1 2
M  V30 2 2 2 3
M  V30 3 2 2 4
M  V30 4 1 2 5
M  V30 5 1 5 6
M  V30 6 1 6 7
M  V30 7 1 7 8
M  V30 8 1 8 9
M  V30 9 1 9 10
M  V30 10 1 10 11
M  V30 11 1 11 12
M  V30 12 2 12 13
M  V30 13 2 12 14
M  V30 14 1 12 15
M  V30 15 1 11 5
M  V30 16 1 1 16
M  V30 17 1 1 17
M  V30 18 1 6 18
M  V30 19 1 6 19
M  V30 20 1 7 20
M  V30 21 1 7 21
M  V30 22 1 9 22
M  V30 23 1 9 23
M  V30 24 1 10 24
M  V30 25 1 10 25
M  V30 26 1 11 26 CFG=1
M  V30 27 1 15 27
M  V30 28 1 15 28
M  V30 END BOND
M  V30 END CTAB
M  END
