
     RDKit          3D

  0  0  0  0  0  0  0  0  0  0999 V3000
M  V30 BEGIN CTAB
M  V30 COUNTS 49 50 0 0 0
M  V30 BEGIN ATOM
M  V30 1 N -3.36108 1.50444 -1.96059 0
M  V30 2 C -3.22186 1.71843 -0.526222 0
M  V30 3 C -2.70634 0.392246 0.0506819 0
M  V30 4 C -2.5511 0.575021 1.52401 0
M  V30 5 C -3.55566 -0.251444 2.26661 0
M  V30 6 O -4.82248 0.0705255 1.78739 0
M  V30 7 C -4.98271 -0.516773 0.556843 0
M  V30 8 C -3.74849 -0.640657 -0.265039 0
M  V30 9 C -1.41382 0.0301809 -0.613442 0
M  V30 10 O -1.38818 -1.05465 -1.22903 0
M  V30 11 N -0.282625 0.850349 -0.558898 0
M  V30 12 C 1.01271 0.699507 -1.09289 0
M  V30 13 C 1.87981 -0.407376 -0.639249 0
M  V30 14 N 1.34266 -1.71185 -0.892223 0
M  V30 15 C 2.15053 -0.357384 0.857328 0
M  V30 16 C 2.84654 0.907095 1.26649 0
M  V30 17 C 4.20845 1.0716 0.702332 0
M  V30 18 C 4.91032 -0.225276 0.406766 0
M  V30 19 C 4.29571 -1.01839 -0.692472 0
M  V30 20 C 3.18633 -0.333009 -1.41982 0
M  V30 21 H -4.35703 1.52688 -2.25956 0
M  V30 22 H -2.82605 2.29182 -2.4363 0
M  V30 23 H -4.22216 1.94707 -0.134068 0
M  V30 24 H -2.55551 2.55374 -0.296795 0
M  V30 25 H -1.53377 0.243567 1.82454 0
M  V30 26 H -2.65839 1.65197 1.84075 0
M  V30 27 H -3.30478 -1.31306 2.17867 0
M  V30 28 H -3.51623 0.0106788 3.36195 0
M  V30 29 H -5.35819 -1.56525 0.747852 0
M  V30 30 H -5.82012 -0.0440283 -0.0340265 0
M  V30 31 H -3.26607 -1.64301 -0.161734 0
M  V30 32 H -4.04744 -0.56929 -1.34469 0
M  V30 33 H -0.424908 1.77917 0.000845103 0
M  V30 34 H 0.88717 0.56073 -2.22283 0
M  V30 35 H 1.5987 1.67562 -1.05481 0
M  V30 36 H 1.90769 -2.40482 -0.366168 0
M  V30 37 H 1.31929 -1.87043 -1.91455 0
M  V30 38 H 2.67571 -1.26994 1.16361 0
M  V30 39 H 1.15502 -0.366803 1.34807 0
M  V30 40 H 2.90086 0.908346 2.37301 0
M  V30 41 H 2.22297 1.76975 0.981489 0
M  V30 42 H 4.83977 1.60583 1.46243 0
M  V30 43 H 4.2133 1.76078 -0.187072 0
M  V30 44 H 4.9892 -0.777574 1.36667 0
M  V30 45 H 5.95722 0.0256456 0.11856 0
M  V30 46 H 3.9039 -1.97829 -0.302059 0
M  V30 47 H 5.06814 -1.31526 -1.46121 0
M  V30 48 H 3.02875 -0.90429 -2.3818 0
M  V30 49 H 3.42428 0.698566 -1.73931 0
M  V30 END ATOM
M  V30 BEGIN BOND
M  V30 1 1 1 2
M  V30 2 1 2 3
M  V30 3 1 3 4
M  V30 4 1 4 5
M  V30 5 1 5 6
M  V30 6 1 6 7
M  V30 7 1 7 8
M  V30 8 1 3 9
M  V30 9 2 9 10
M  V30 10 1 9 11
M  V30 11 1 11 12
M  V30 12 1 12 13
M  V30 13 1 13 14
M  V30 14 1 13 15
M  V30 15 1 15 16
M  V30 16 1 16 17
M  V30 17 1 17 18
M  V30 18 1 18 19
M  V30 19 1 19 20
M  V30 20 1 8 3
M  V30 21 1 20 13
M  V30 22 1 1 21
M  V30 23 1 1 22
M  V30 24 1 2 23
M  V30 25 1 2 24
M  V30 26 1 4 25
M  V30 27 1 4 26
M  V30 28 1 5 27
M  V30 29 1 5 28
M  V30 30 1 7 29
M  V30 31 1 7 30
M  V30 32 1 8 31
M  V30 33 1 8 32
M  V30 34 1 11 33
M  V30 35 1 12 34
M  V30 36 1 12 35
M  V30 37 1 14 36
M  V30 38 1 14 37
M  V30 39 1 15 38
M  V30 40 1 15 39
M  V30 41 1 16 40
M  V30 42 1 16 41
M  V30 43 1 17 42
M  V30 44 1 17 43
M  V30 45 1 18 44
M  V30 46 1 18 45
M  V30 47 1 19 46
M  V30 48 1 19 47
M  V30 49 1 20 48
M  V30 50 1 20 49
M  V30 END BOND
M  V30 END CTAB
M  END
