
     RDKit          3D

  0  0  0  0  0  0  0  0  0  0999 V3000
M  V30 BEGIN CTAB
M  V30 COUNTS 19 18 0 0 0
M  V30 BEGIN ATOM
M  V30 1 C -3.4907 0.448804 0.096835 0
M  V30 2 C -2.3882 -0.544012 -0.0474697 0
M  V30 3 O -1.10166 0.0870766 0.0215383 0
M  V30 4 C 0.0696887 -0.620182 -0.0856675 0
M  V30 5 O -0.00124176 -1.86471 -0.249945 0
M  V30 6 C 1.39329 0.00478613 -0.0178931 0
M  V30 7 C 2.49212 -0.716546 -0.126124 0
M  V30 8 N 3.7857 -0.131842 -0.0633495 0
M  V30 9 N 1.52011 1.40707 0.166622 0
M  V30 10 H -3.1473 1.509 -0.000638624 0
M  V30 11 H -3.97352 0.356164 1.10983 0
M  V30 12 H -4.32239 0.265087 -0.633985 0
M  V30 13 H -2.37586 -1.2979 0.785749 0
M  V30 14 H -2.51822 -1.0991 -0.990323 0
M  V30 15 H 2.37762 -1.8019 -0.268773 0
M  V30 16 H 4.37456 -0.15565 0.791967 0
M  V30 17 H 4.17892 0.348124 -0.905928 0
M  V30 18 H 1.61306 1.81696 1.126 0
M  V30 19 H 1.51401 1.98877 -0.708442 0
M  V30 END ATOM
M  V30 BEGIN BOND
M  V30 1 1 1 2
M  V30 2 1 2 3
M  V30 3 1 3 4
M  V30 4 2 4 5
M  V30 5 1 4 6
M  V30 6 2 6 7
M  V30 7 1 7 8
M  V30 8 1 6 9
M  V30 9 1 1 10
M  V30 10 1 1 11
M  V30 11 1 1 12
M  V30 12 1 2 13
M  V30 13 1 2 14
M  V30 14 1 7 15
M  V30 15 1 8 16
M  V30 16 1 8 17
M  V30 17 1 9 18
M  V30 18 1 9 19
M  V30 END BOND
M  V30 END CTAB
M  END
