
     RDKit          3D

  0  0  0  0  0  0  0  0  0  0999 V3000
M  V30 BEGIN CTAB
M  V30 COUNTS 50 53 0 0 0
M  V30 BEGIN ATOM
M  V30 1 N -7.47826 -3.63854 -0.857314 0
M  V30 2 C -6.42017 -2.75942 -0.575952 0
M  V30 3 C -5.87816 -1.9768 -1.58063 0
M  V30 4 C -4.83884 -1.11142 -1.30942 0
M  V30 5 C -4.29503 -0.982356 -0.0479717 0
M  V30 6 C -4.8645 -1.78295 0.932522 0
M  V30 7 N -5.87704 -2.62208 0.654904 0
M  V30 8 C -3.19815 -0.0707489 0.243987 0
M  V30 9 C -3.05501 0.538564 1.4791 0
M  V30 10 C -1.98448 1.40308 1.70066 0
M  V30 11 C -1.04762 1.68141 0.726823 0
M  V30 12 N -1.21605 1.07345 -0.460262 0
M  V30 13 C -2.24084 0.231755 -0.706772 0
M  V30 14 C 0.0890335 2.62152 0.970233 0
M  V30 15 C -0.0918827 3.89773 0.215406 0
M  V30 16 C 1.32433 4.41827 0.126239 0
M  V30 17 C 2.19606 3.19154 0.134076 0
M  V30 18 N 1.36013 2.11572 0.577999 0
M  V30 19 C 1.8217 0.751091 0.6124 0
M  V30 20 O 1.04651 -0.117538 1.04271 0
M  V30 21 C 3.16419 0.36889 0.158406 0
M  V30 22 C 3.38401 -1.09486 0.301492 0
M  V30 23 C 4.78618 -1.43414 -0.182119 0
M  V30 24 C 5.64002 -0.468753 -0.659058 0
M  V30 25 S 7.02483 -1.38773 -1.04616 0
M  V30 26 C 6.44069 -2.92437 -0.583525 0
M  V30 27 N 5.22216 -2.65577 -0.158918 0
M  V30 28 N 7.10836 -4.21244 -0.638823 0
M  V30 29 H -8.47279 -3.37744 -0.942453 0
M  V30 30 H -7.23767 -4.65729 -0.994335 0
M  V30 31 H -6.2964 -2.06511 -2.58808 0
M  V30 32 H -4.46374 -0.530763 -2.13952 0
M  V30 33 H -4.51128 -1.75759 1.95394 0
M  V30 34 H -3.79284 0.311782 2.22666 0
M  V30 35 H -1.87777 1.87859 2.67377 0
M  V30 36 H -2.36221 -0.255194 -1.68097 0
M  V30 37 H 0.159913 2.89042 2.046 0
M  V30 38 H -0.495664 3.6422 -0.790731 0
M  V30 39 H -0.784445 4.60913 0.700885 0
M  V30 40 H 1.53701 5.07746 1.01892 0
M  V30 41 H 1.41624 5.00406 -0.822533 0
M  V30 42 H 3.02627 3.30788 0.881414 0
M  V30 43 H 2.66636 2.99862 -0.852125 0
M  V30 44 H 3.30753 0.660275 -0.891165 0
M  V30 45 H 3.91494 0.958182 0.753443 0
M  V30 46 H 2.63213 -1.6297 -0.294015 0
M  V30 47 H 3.33001 -1.46331 1.33882 0
M  V30 48 H 5.44936 0.616512 -0.754636 0
M  V30 49 H 8.01176 -4.25177 -0.12099 0
M  V30 50 H 6.72112 -5.02004 -1.14773 0
M  V30 END ATOM
M  V30 BEGIN BOND
M  V30 1 1 1 2
M  V30 2 2 2 3
M  V30 3 1 3 4
M  V30 4 2 4 5
M  V30 5 1 5 6
M  V30 6 2 6 7
M  V30 7 1 5 8
M  V30 8 2 8 9
M  V30 9 1 9 10
M  V30 10 2 10 11
M  V30 11 1 11 12
M  V30 12 2 12 13
M  V30 13 1 11 14
M  V30 14 1 14 15
M  V30 15 1 15 16
M  V30 16 1 16 17
M  V30 17 1 17 18
M  V30 18 1 18 19
M  V30 19 2 19 20
M  V30 20 1 19 21
M  V30 21 1 21 22
M  V30 22 1 22 23
M  V30 23 2 23 24
M  V30 24 1 24 25
M  V30 25 1 25 26
M  V30 26 2 26 27
M  V30 27 1 26 28
M  V30 28 1 7 2
M  V30 29 1 13 8
M  V30 30 1 18 14
M  V30 31 1 27 23
M  V30 32 1 1 29
M  V30 33 1 1 30
M  V30 34 1 3 31
M  V30 35 1 4 32
M  V30 36 1 6 33
M  V30 37 1 9 34
M  V30 38 1 10 35
M  V30 39 1 13 36
M  V30 40 1 14 37
M  V30 41 1 15 38
M  V30 42 1 15 39
M  V30 43 1 16 40
M  V30 44 1 16 41
M  V30 45 1 17 42
M  V30 46 1 17 43
M  V30 47 1 21 44
M  V30 48 1 21 45
M  V30 49 1 22 46
M  V30 50 1 22 47
M  V30 51 1 24 48
M  V30 52 1 28 49
M  V30 53 1 28 50
M  V30 END BOND
M  V30 END CTAB
M  END
