
     RDKit          3D

  0  0  0  0  0  0  0  0  0  0999 V3000
M  V30 BEGIN CTAB
M  V30 COUNTS 43 45 0 0 0
M  V30 BEGIN ATOM
M  V30 1 C 4.28204 0.107649 3.4891 0
M  V30 2 C 3.89535 0.863477 2.24207 0
M  V30 3 O 3.24566 -0.0534667 1.37381 0
M  V30 4 C 2.75758 0.314807 0.128045 0
M  V30 5 O 2.91113 1.50809 -0.214748 0
M  V30 6 N 2.10953 -0.58509 -0.746588 0
M  V30 7 C 1.6369 -0.159846 -1.99188 0
M  V30 8 C 0.328169 0.337652 -2.12417 0
M  V30 9 O -0.473193 0.422806 -1.13352 0
M  V30 10 C -1.27319 0.507813 -0.144554 0
M  V30 11 C -2.49364 -0.168036 -0.0781044 0
M  V30 12 C -2.86546 -0.982139 -1.14247 0
M  V30 13 C -4.05751 -1.66667 -1.11807 0
M  V30 14 C -4.91931 -1.57405 -0.0516695 0
M  V30 15 C -4.57008 -0.776055 1.00784 0
M  V30 16 C -3.37212 -0.0974268 0.966703 0
M  V30 17 C -3.01797 0.708618 2.03949 0
M  V30 18 N -3.9063 0.806518 3.14326 0
M  V30 19 C -1.83031 1.40074 2.03694 0
M  V30 20 C -0.969634 1.3087 0.972147 0
M  V30 21 C -0.0324558 0.726576 -3.39023 0
M  V30 22 C 0.817458 0.638315 -4.4508 0
M  V30 23 N 2.04573 0.156943 -4.25596 0
M  V30 24 C 2.50093 -0.251193 -3.06207 0
M  V30 25 N 3.82287 -0.753986 -2.92704 0
M  V30 26 H 5.36557 0.176134 3.70918 0
M  V30 27 H 3.73578 0.589101 4.33374 0
M  V30 28 H 3.9354 -0.953568 3.47448 0
M  V30 29 H 3.21479 1.69777 2.43089 0
M  V30 30 H 4.84562 1.21894 1.76127 0
M  V30 31 H 1.98794 -1.57059 -0.452045 0
M  V30 32 H -2.17586 -1.03879 -1.96064 0
M  V30 33 H -4.33998 -2.30276 -1.95819 0
M  V30 34 H -5.87705 -2.1333 -0.0486837 0
M  V30 35 H -5.22825 -0.677388 1.8722 0
M  V30 36 H -4.05379 -0.00256594 3.77363 0
M  V30 37 H -4.41648 1.69148 3.32823 0
M  V30 38 H -1.58764 2.02949 2.90896 0
M  V30 39 H -0.0520354 1.87431 1.02545 0
M  V30 40 H -1.02761 1.11465 -3.53871 0
M  V30 41 H 0.518695 0.953778 -5.46672 0
M  V30 42 H 4.61622 -0.128247 -3.12124 0
M  V30 43 H 3.96654 -1.72875 -2.63933 0
M  V30 END ATOM
M  V30 BEGIN BOND
M  V30 1 1 1 2
M  V30 2 1 2 3
M  V30 3 1 3 4
M  V30 4 2 4 5
M  V30 5 1 4 6
M  V30 6 1 6 7
M  V30 7 2 7 8
M  V30 8 1 8 9
M  V30 9 1 9 10
M  V30 10 1 10 11
M  V30 11 2 11 12
M  V30 12 1 12 13
M  V30 13 2 13 14
M  V30 14 1 14 15
M  V30 15 2 15 16
M  V30 16 1 16 17
M  V30 17 1 17 18
M  V30 18 2 17 19
M  V30 19 1 19 20
M  V30 20 1 8 21
M  V30 21 2 21 22
M  V30 22 1 22 23
M  V30 23 2 23 24
M  V30 24 1 24 25
M  V30 25 1 24 7
M  V30 26 2 20 10
M  V30 27 1 16 11
M  V30 28 1 1 26
M  V30 29 1 1 27
M  V30 30 1 1 28
M  V30 31 1 2 29
M  V30 32 1 2 30
M  V30 33 1 6 31
M  V30 34 1 12 32
M  V30 35 1 13 33
M  V30 36 1 14 34
M  V30 37 1 15 35
M  V30 38 1 18 36
M  V30 39 1 18 37
M  V30 40 1 19 38
M  V30 41 1 20 39
M  V30 42 1 21 40
M  V30 43 1 22 41
M  V30 44 1 25 42
M  V30 45 1 25 43
M  V30 END BOND
M  V30 END CTAB
M  END
