
     RDKit          3D

  0  0  0  0  0  0  0  0  0  0999 V3000
M  V30 BEGIN CTAB
M  V30 COUNTS 22 23 0 0 0
M  V30 BEGIN ATOM
M  V30 1 N 3.41755 -0.820035 0.355981 0
M  V30 2 C 2.49144 -0.252911 -0.589766 0
M  V30 3 C 1.32643 0.440482 0.0677503 0
M  V30 4 C 1.49157 1.63227 0.697286 0
M  V30 5 S -0.0865912 2.16344 1.04483 0
M  V30 6 C -0.980525 0.820413 0.372572 0
M  V30 7 C 0.00570109 0.0449202 -0.0746777 0
M  V30 8 C -0.340003 -1.19122 -0.646318 0
M  V30 9 C -1.65794 -1.5492 -0.722286 0
M  V30 10 C -2.71813 -0.757954 -0.256155 0
M  V30 11 C -2.3324 0.429607 0.287892 0
M  V30 12 N -3.26145 1.34698 0.776258 0
M  V30 13 H 3.87985 -0.347264 1.0756 0
M  V30 14 H 3.75343 -1.74702 -0.0590563 0
M  V30 15 H 3.11352 0.61166 -1.08543 0
M  V30 16 H 2.23618 -0.863107 -1.46466 0
M  V30 17 H 2.42606 2.16244 0.924671 0
M  V30 18 H 0.370196 -1.92914 -1.0138 0
M  V30 19 H -1.99614 -2.48241 -1.06877 0
M  V30 20 H -3.73878 -1.0186 -0.412668 0
M  V30 21 H -4.11164 1.48602 0.125294 0
M  V30 22 H -3.28834 1.82062 1.66546 0
M  V30 END ATOM
M  V30 BEGIN BOND
M  V30 1 1 1 2
M  V30 2 1 2 3
M  V30 3 2 3 4
M  V30 4 1 4 5
M  V30 5 1 5 6
M  V30 6 2 6 7
M  V30 7 1 7 8
M  V30 8 2 8 9
M  V30 9 1 9 10
M  V30 10 2 10 11
M  V30 11 1 11 12
M  V30 12 1 7 3
M  V30 13 1 11 6
M  V30 14 1 1 13
M  V30 15 1 1 14
M  V30 16 1 2 15
M  V30 17 1 2 16
M  V30 18 1 4 17
M  V30 19 1 8 18
M  V30 20 1 9 19
M  V30 21 1 10 20
M  V30 22 1 12 21
M  V30 23 1 12 22
M  V30 END BOND
M  V30 END CTAB
M  END
