
     RDKit          3D

  0  0  0  0  0  0  0  0  0  0999 V3000
M  V30 BEGIN CTAB
M  V30 COUNTS 39 40 0 0 0
M  V30 BEGIN ATOM
M  V30 1 C 5.27455 -1.26834 1.91598 0
M  V30 2 N 4.64436 -1.34614 0.612421 0
M  V30 3 C 3.53548 -0.516354 0.265985 0
M  V30 4 C 3.02388 0.384308 1.1494 0
M  V30 5 C 1.93722 1.18362 0.782036 0
M  V30 6 C 1.35664 1.08547 -0.472303 0
M  V30 7 C 0.217885 1.9281 -0.847249 0
M  V30 8 C -1.10193 1.28642 -0.511769 0
M  V30 9 C -1.70398 1.48815 0.711218 0
M  V30 10 C -2.91067 0.92488 1.06859 0
M  V30 11 N -3.51179 1.145 2.3302 0
M  V30 12 C -3.55126 0.115613 0.154143 0
M  V30 13 N -4.81164 -0.480361 0.510245 0
M  V30 14 C -5.52402 -1.33828 -0.412374 0
M  V30 15 C -2.98554 -0.113678 -1.08106 0
M  V30 16 C -1.76063 0.472965 -1.41163 0
M  V30 17 C 1.88264 0.171335 -1.35667 0
M  V30 18 C 2.9536 -0.6103 -0.982253 0
M  V30 19 N 3.49044 -1.55515 -1.90874 0
M  V30 20 H 5.33362 -0.231296 2.29185 0
M  V30 21 H 4.62921 -1.8652 2.60558 0
M  V30 22 H 6.26759 -1.75292 1.86602 0
M  V30 23 H 5.00335 -2.02643 -0.10471 0
M  V30 24 H 3.41411 0.520054 2.13307 0
M  V30 25 H 1.51298 1.90804 1.46938 0
M  V30 26 H 0.187508 2.16624 -1.92628 0
M  V30 27 H 0.22116 2.91366 -0.315872 0
M  V30 28 H -1.20264 2.12066 1.42507 0
M  V30 29 H -3.25753 0.611817 3.18006 0
M  V30 30 H -4.24184 1.87555 2.40618 0
M  V30 31 H -5.24202 -0.307182 1.44393 0
M  V30 32 H -6.34703 -1.85231 0.0813975 0
M  V30 33 H -4.80591 -2.04395 -0.901316 0
M  V30 34 H -5.96954 -0.73427 -1.25109 0
M  V30 35 H -3.50157 -0.748683 -1.78149 0
M  V30 36 H -1.32565 0.285426 -2.38568 0
M  V30 37 H 1.48612 0.0379125 -2.34713 0
M  V30 38 H 3.68507 -2.53012 -1.59362 0
M  V30 39 H 3.69778 -1.30428 -2.90051 0
M  V30 END ATOM
M  V30 BEGIN BOND
M  V30 1 1 1 2
M  V30 2 1 2 3
M  V30 3 2 3 4
M  V30 4 1 4 5
M  V30 5 2 5 6
M  V30 6 1 6 7
M  V30 7 1 7 8
M  V30 8 2 8 9
M  V30 9 1 9 10
M  V30 10 1 10 11
M  V30 11 2 10 12
M  V30 12 1 12 13
M  V30 13 1 13 14
M  V30 14 1 12 15
M  V30 15 2 15 16
M  V30 16 1 6 17
M  V30 17 2 17 18
M  V30 18 1 18 19
M  V30 19 1 18 3
M  V30 20 1 16 8
M  V30 21 1 1 20
M  V30 22 1 1 21
M  V30 23 1 1 22
M  V30 24 1 2 23
M  V30 25 1 4 24
M  V30 26 1 5 25
M  V30 27 1 7 26
M  V30 28 1 7 27
M  V30 29 1 9 28
M  V30 30 1 11 29
M  V30 31 1 11 30
M  V30 32 1 13 31
M  V30 33 1 14 32
M  V30 34 1 14 33
M  V30 35 1 14 34
M  V30 36 1 15 35
M  V30 37 1 16 36
M  V30 38 1 17 37
M  V30 39 1 19 38
M  V30 40 1 19 39
M  V30 END BOND
M  V30 END CTAB
M  END
