
     RDKit          3D

  0  0  0  0  0  0  0  0  0  0999 V3000
M  V30 BEGIN CTAB
M  V30 COUNTS 30 31 0 0 0
M  V30 BEGIN ATOM
M  V30 1 C 5.45739 0.211039 -0.0224511 0
M  V30 2 C 3.97323 0.038108 0.00402757 0
M  V30 3 C 3.17932 1.12235 -0.211511 0
M  V30 4 C 1.78777 0.969955 -0.188584 0
M  V30 5 C 1.16062 -0.233262 0.043214 0
M  V30 6 C 2.03527 -1.34068 0.263672 0
M  V30 7 C 3.38698 -1.18077 0.239082 0
M  V30 8 O -0.130671 -0.457995 0.0807502 0
M  V30 9 C -1.35799 -0.0301556 -0.0088198 0
M  V30 10 C -1.79587 1.26535 -0.263939 0
M  V30 11 C -3.13207 1.59732 -0.335324 0
M  V30 12 C -4.10514 0.650546 -0.15523 0
M  V30 13 C -3.71743 -0.641564 0.0989803 0
M  V30 14 C -2.39876 -0.98638 0.172787 0
M  V30 15 N -1.99588 -2.32133 0.435442 0
M  V30 16 N -5.48366 1.02505 -0.235121 0
M  V30 17 H 5.96815 -0.563612 0.56496 0
M  V30 18 H 5.69861 1.23853 0.278955 0
M  V30 19 H 5.77262 0.0646584 -1.08117 0
M  V30 20 H 3.59695 2.08346 -0.397081 0
M  V30 21 H 1.1692 1.83617 -0.360695 0
M  V30 22 H 1.58787 -2.30623 0.449948 0
M  V30 23 H 4.06658 -2.01792 0.405829 0
M  V30 24 H -1.04519 2.03272 -0.410101 0
M  V30 25 H -3.42332 2.62242 -0.536919 0
M  V30 26 H -4.50326 -1.37438 0.238213 0
M  V30 27 H -2.43834 -3.07503 -0.127313 0
M  V30 28 H -1.29876 -2.56313 1.14549 0
M  V30 29 H -5.93948 1.15423 -1.17886 0
M  V30 30 H -6.07476 1.18052 0.610908 0
M  V30 END ATOM
M  V30 BEGIN BOND
M  V30 1 1 1 2
M  V30 2 2 2 3
M  V30 3 1 3 4
M  V30 4 2 4 5
M  V30 5 1 5 6
M  V30 6 2 6 7
M  V30 7 1 5 8
M  V30 8 1 8 9
M  V30 9 2 9 10
M  V30 10 1 10 11
M  V30 11 2 11 12
M  V30 12 1 12 13
M  V30 13 2 13 14
M  V30 14 1 14 15
M  V30 15 1 12 16
M  V30 16 1 7 2
M  V30 17 1 14 9
M  V30 18 1 1 17
M  V30 19 1 1 18
M  V30 20 1 1 19
M  V30 21 1 3 20
M  V30 22 1 4 21
M  V30 23 1 6 22
M  V30 24 1 7 23
M  V30 25 1 10 24
M  V30 26 1 11 25
M  V30 27 1 13 26
M  V30 28 1 15 27
M  V30 29 1 15 28
M  V30 30 1 16 29
M  V30 31 1 16 30
M  V30 END BOND
M  V30 END CTAB
M  END
