
     RDKit          3D

  0  0  0  0  0  0  0  0  0  0999 V3000
M  V30 BEGIN CTAB
M  V30 COUNTS 34 35 0 0 0
M  V30 BEGIN ATOM
M  V30 1 N -5.53014 -1.76632 0.291234 0
M  V30 2 N -4.1279 -1.68735 0.231054 0
M  V30 3 C -3.54501 -0.417295 0.178469 0
M  V30 4 O -4.25086 0.621287 0.180536 0
M  V30 5 C -2.09697 -0.228322 0.117056 0
M  V30 6 C -1.58608 0.886293 -0.546997 0
M  V30 7 N -0.270447 1.11336 -0.712036 0
M  V30 8 C 0.126007 2.26866 -1.40567 0
M  V30 9 C 0.28896 3.40841 -0.390085 0
M  V30 10 C 0.550238 0.182603 -0.188274 0
M  V30 11 C 0.111693 -0.922755 0.469244 0
M  V30 12 C -1.25135 -1.14891 0.635616 0
M  V30 13 O -1.58392 -2.19912 1.26196 0
M  V30 14 C 1.03452 -1.82594 0.964842 0
M  V30 15 C 2.37626 -1.65343 0.818121 0
M  V30 16 C 2.85251 -0.532453 0.148591 0
M  V30 17 C 1.91701 0.362666 -0.339031 0
M  V30 18 N 4.24061 -0.306556 -0.0433843 0
M  V30 19 N 5.14878 -1.24503 0.452049 0
M  V30 20 F 3.28737 -2.51324 1.29245 0
M  V30 21 H -5.96501 -1.24811 1.0361 0
M  V30 22 H -5.91465 -2.64283 -0.0345429 0
M  V30 23 H -3.58988 -2.55455 0.20604 0
M  V30 24 H -2.3292 1.59394 -0.941635 0
M  V30 25 H 0.984855 2.26546 -2.04147 0
M  V30 26 H -0.73031 2.60316 -2.06455 0
M  V30 27 H 1.28552 3.36337 0.0777792 0
M  V30 28 H 0.0930583 4.39573 -0.849139 0
M  V30 29 H -0.484828 3.30053 0.415328 0
M  V30 30 H 0.667234 -2.69608 1.48815 0
M  V30 31 H 2.23625 1.23814 -0.858494 0
M  V30 32 H 4.60036 0.528608 -0.535918 0
M  V30 33 H 5.5885 -1.81336 -0.305579 0
M  V30 34 H 5.86682 -0.730609 0.992182 0
M  V30 END ATOM
M  V30 BEGIN BOND
M  V30 1 1 1 2
M  V30 2 1 2 3
M  V30 3 2 3 4
M  V30 4 1 3 5
M  V30 5 2 5 6
M  V30 6 1 6 7
M  V30 7 1 7 8
M  V30 8 1 8 9
M  V30 9 1 7 10
M  V30 10 2 10 11
M  V30 11 1 11 12
M  V30 12 2 12 13
M  V30 13 1 11 14
M  V30 14 2 14 15
M  V30 15 1 15 16
M  V30 16 2 16 17
M  V30 17 1 16 18
M  V30 18 1 18 19
M  V30 19 1 15 20
M  V30 20 1 12 5
M  V30 21 1 17 10
M  V30 22 1 1 21
M  V30 23 1 1 22
M  V30 24 1 2 23
M  V30 25 1 6 24
M  V30 26 1 8 25
M  V30 27 1 8 26
M  V30 28 1 9 27
M  V30 29 1 9 28
M  V30 30 1 9 29
M  V30 31 1 14 30
M  V30 32 1 17 31
M  V30 33 1 18 32
M  V30 34 1 19 33
M  V30 35 1 19 34
M  V30 END BOND
M  V30 END CTAB
M  END
