
     RDKit          3D

  0  0  0  0  0  0  0  0  0  0999 V3000
M  V30 BEGIN CTAB
M  V30 COUNTS 31 31 0 0 0
M  V30 BEGIN ATOM
M  V30 1 C 2.83564 0.688356 -0.852688 0
M  V30 2 C 2.49123 0.450038 0.588013 0
M  V30 3 C 1.23371 -0.45533 0.699305 0
M  V30 4 C 0.172055 0.30742 0.00217438 0
M  V30 5 C -1.15568 -0.257782 -0.0992182 0
M  V30 6 C -2.09082 0.379487 -0.903678 0
M  V30 7 C -1.8227 1.60149 -1.69627 0
M  V30 8 C -3.39348 -0.108172 -1.04064 0
M  V30 9 C -3.72331 -1.24591 -0.350387 0
M  V30 10 N -2.82068 -1.8598 0.424785 0
M  V30 11 C -1.54724 -1.3899 0.56377 0
M  V30 12 N -0.72695 -2.16653 1.41844 0
M  V30 13 O 0.15479 1.58479 0.6179 0
M  V30 14 N 3.59402 -0.144347 1.30483 0
M  V30 15 H 2.27835 1.54957 -1.28694 0
M  V30 16 H 2.68555 -0.241157 -1.47083 0
M  V30 17 H 3.93054 0.927991 -0.899111 0
M  V30 18 H 2.28491 1.43186 1.06507 0
M  V30 19 H 1.48227 -1.44442 0.282866 0
M  V30 20 H 1.1135 -0.503001 1.82216 0
M  V30 21 H 0.544027 0.474502 -1.04653 0
M  V30 22 H -2.75606 2.23722 -1.77579 0
M  V30 23 H -1.56986 1.2409 -2.73031 0
M  V30 24 H -1.06294 2.26906 -1.31871 0
M  V30 25 H -4.13064 0.403103 -1.67979 0
M  V30 26 H -4.74437 -1.63596 -0.452471 0
M  V30 27 H -0.139842 -2.97229 1.11437 0
M  V30 28 H -0.689734 -1.93326 2.45052 0
M  V30 29 H 0.253533 1.46539 1.60024 0
M  V30 30 H 3.97602 0.450212 2.06865 0
M  V30 31 H 3.34415 -1.10352 1.58028 0
M  V30 END ATOM
M  V30 BEGIN BOND
M  V30 1 1 1 2
M  V30 2 1 2 3
M  V30 3 1 3 4
M  V30 4 1 4 5
M  V30 5 2 5 6
M  V30 6 1 6 7
M  V30 7 1 6 8
M  V30 8 2 8 9
M  V30 9 1 9 10
M  V30 10 2 10 11
M  V30 11 1 11 12
M  V30 12 1 4 13
M  V30 13 1 2 14
M  V30 14 1 11 5
M  V30 15 1 1 15
M  V30 16 1 1 16
M  V30 17 1 1 17
M  V30 18 1 2 18
M  V30 19 1 3 19
M  V30 20 1 3 20
M  V30 21 1 4 21
M  V30 22 1 7 22
M  V30 23 1 7 23
M  V30 24 1 7 24
M  V30 25 1 8 25
M  V30 26 1 9 26
M  V30 27 1 12 27
M  V30 28 1 12 28
M  V30 29 1 13 29
M  V30 30 1 14 30
M  V30 31 1 14 31
M  V30 END BOND
M  V30 END CTAB
M  END
