
     RDKit          3D

  0  0  0  0  0  0  0  0  0  0999 V3000
M  V30 BEGIN CTAB
M  V30 COUNTS 47 48 0 0 0
M  V30 BEGIN ATOM
M  V30 1 C 4.49232 2.38619 -0.365894 0
M  V30 2 C 3.89745 2.23919 0.997294 0
M  V30 3 O 2.69923 1.45919 0.935186 0
M  V30 4 C 2.74488 0.16667 0.464072 0
M  V30 5 O 3.83634 -0.296394 0.100317 0
M  V30 6 C 1.5494 -0.713732 0.366154 0
M  V30 7 C 1.72601 -1.9333 -0.0990777 0
M  V30 8 N 3.06899 -2.3306 -0.482479 0
M  V30 9 N 0.681106 -2.87932 -0.240867 0
M  V30 10 C -0.614156 -2.42768 0.158584 0
M  V30 11 N -1.72214 -3.35046 0.0386906 0
M  V30 12 C -0.815523 -1.21087 0.624827 0
M  V30 13 C 0.222216 -0.217679 0.780756 0
M  V30 14 C -0.0301626 1.07216 0.110511 0
M  V30 15 C -0.264384 2.20285 0.858663 0
M  V30 16 C -0.498451 3.40016 0.216255 0
M  V30 17 C -0.495452 3.45195 -1.16138 0
M  V30 18 C -0.256361 2.29704 -1.911 0
M  V30 19 C -0.0233904 1.10475 -1.26014 0
M  V30 20 N -0.256104 2.36468 -3.32159 0 CHG=1
M  V30 21 O -0.489401 3.55546 -3.93811 0 CHG=-1
M  V30 22 O -0.0464599 1.35537 -3.99869 0
M  V30 23 C -2.23312 -0.944386 0.985675 0
M  V30 24 O -2.53672 0.193644 1.44411 0
M  V30 25 O -3.24579 -1.84832 0.857641 0
M  V30 26 C -4.59598 -1.59591 1.20087 0
M  V30 27 C -5.38449 -2.85652 0.90507 0
M  V30 28 H 4.73833 3.4577 -0.609542 0
M  V30 29 H 5.45634 1.84319 -0.445295 0
M  V30 30 H 3.83589 1.95095 -1.16491 0
M  V30 31 H 3.75284 3.17103 1.5451 0
M  V30 32 H 4.59918 1.6169 1.62728 0
M  V30 33 H 3.64819 -2.74834 0.265832 0
M  V30 34 H 3.43847 -2.2099 -1.44106 0
M  V30 35 H 0.83747 -3.84697 -0.612385 0
M  V30 36 H -1.99482 -3.97335 0.8132 0
M  V30 37 H -2.22103 -3.34648 -0.86727 0
M  V30 38 H 0.328644 -0.00915488 1.89376 0
M  V30 39 H -0.270558 2.17951 1.9641 0
M  V30 40 H -0.685765 4.30584 0.783451 0
M  V30 41 H -0.675196 4.37342 -1.69804 0
M  V30 42 H 0.160526 0.218548 -1.88353 0
M  V30 43 H -4.60898 -1.35532 2.2772 0
M  V30 44 H -5.00859 -0.744595 0.607834 0
M  V30 45 H -5.11595 -3.31111 -0.0480673 0
M  V30 46 H -5.16468 -3.60816 1.71381 0
M  V30 47 H -6.46015 -2.60789 1.0131 0
M  V30 END ATOM
M  V30 BEGIN BOND
M  V30 1 1 1 2
M  V30 2 1 2 3
M  V30 3 1 3 4
M  V30 4 2 4 5
M  V30 5 1 4 6
M  V30 6 2 6 7
M  V30 7 1 7 8
M  V30 8 1 7 9
M  V30 9 1 9 10
M  V30 10 1 10 11
M  V30 11 2 10 12
M  V30 12 1 12 13
M  V30 13 1 13 14
M  V30 14 2 14 15
M  V30 15 1 15 16
M  V30 16 2 16 17
M  V30 17 1 17 18
M  V30 18 2 18 19
M  V30 19 1 18 20
M  V30 20 1 20 21
M  V30 21 2 20 22
M  V30 22 1 12 23
M  V30 23 2 23 24
M  V30 24 1 23 25
M  V30 25 1 25 26
M  V30 26 1 26 27
M  V30 27 1 13 6
M  V30 28 1 19 14
M  V30 29 1 1 28
M  V30 30 1 1 29
M  V30 31 1 1 30
M  V30 32 1 2 31
M  V30 33 1 2 32
M  V30 34 1 8 33
M  V30 35 1 8 34
M  V30 36 1 9 35
M  V30 37 1 11 36
M  V30 38 1 11 37
M  V30 39 1 13 38
M  V30 40 1 15 39
M  V30 41 1 16 40
M  V30 42 1 17 41
M  V30 43 1 19 42
M  V30 44 1 26 43
M  V30 45 1 26 44
M  V30 46 1 27 45
M  V30 47 1 27 46
M  V30 48 1 27 47
M  V30 END BOND
M  V30 END CTAB
M  END
