
     RDKit          3D

  0  0  0  0  0  0  0  0  0  0999 V3000
M  V30 BEGIN CTAB
M  V30 COUNTS 19 18 0 0 0
M  V30 BEGIN ATOM
M  V30 1 N -3.32809 0.0498114 0.794594 0
M  V30 2 C -2.2189 -0.580583 0.107625 0
M  V30 3 C -0.972085 0.230722 0.442246 0
M  V30 4 C 0.187537 -0.39914 -0.254754 0
M  V30 5 C 1.45536 0.324005 0.0112926 0
M  V30 6 O 1.51048 1.33435 0.735755 0
M  V30 7 N 2.66151 -0.144273 -0.577644 0
M  V30 8 N 3.88345 0.485919 -0.369858 0
M  V30 9 H -3.74071 0.826446 0.26958 0
M  V30 10 H -4.01733 -0.640968 1.15947 0
M  V30 11 H -2.06916 -1.6227 0.458602 0
M  V30 12 H -2.41758 -0.607658 -0.968389 0
M  V30 13 H -1.09957 1.29138 0.144072 0
M  V30 14 H -0.83926 0.215099 1.5394 0
M  V30 15 H 0.0120832 -0.444698 -1.34065 0
M  V30 16 H 0.32932 -1.43238 0.141742 0
M  V30 17 H 2.66144 -0.986878 -1.19127 0
M  V30 18 H 3.88499 0.925291 0.578622 0
M  V30 19 H 4.11651 1.17625 -1.11661 0
M  V30 END ATOM
M  V30 BEGIN BOND
M  V30 1 1 1 2
M  V30 2 1 2 3
M  V30 3 1 3 4
M  V30 4 1 4 5
M  V30 5 2 5 6
M  V30 6 1 5 7
M  V30 7 1 7 8
M  V30 8 1 1 9
M  V30 9 1 1 10
M  V30 10 1 2 11
M  V30 11 1 2 12
M  V30 12 1 3 13
M  V30 13 1 3 14
M  V30 14 1 4 15
M  V30 15 1 4 16
M  V30 16 1 7 17
M  V30 17 1 8 18
M  V30 18 1 8 19
M  V30 END BOND
M  V30 END CTAB
M  END
