
     RDKit          3D

  0  0  0  0  0  0  0  0  0  0999 V3000
M  V30 BEGIN CTAB
M  V30 COUNTS 28 28 0 0 0
M  V30 BEGIN ATOM
M  V30 1 N -1.01605 -2.53148 -0.579568 0
M  V30 2 C -1.57085 -1.35367 0.0170537 0
M  V30 3 C -0.469036 -0.413964 0.508473 0
M  V30 4 C -1.05695 0.809947 1.12832 0
M  V30 5 C -1.17936 1.99487 0.266703 0
M  V30 6 C -0.104973 2.17562 -0.754919 0
M  V30 7 C 1.07457 1.25809 -0.550457 0
M  V30 8 C 0.573826 -0.159168 -0.520822 0
M  V30 9 C 1.79205 -1.05692 -0.337686 0
M  V30 10 N 2.43757 -0.899617 0.90684 0
M  V30 11 H -1.49426 -3.41295 -0.283851 0
M  V30 12 H -0.969776 -2.52091 -1.60999 0
M  V30 13 H -2.13237 -1.67878 0.939779 0
M  V30 14 H -2.30368 -0.829847 -0.608371 0
M  V30 15 H 0.0217153 -0.988391 1.34891 0
M  V30 16 H -2.08304 0.530218 1.49624 0
M  V30 17 H -0.497035 1.08999 2.06543 0
M  V30 18 H -2.17736 2.06039 -0.257393 0
M  V30 19 H -1.16743 2.91758 0.919979 0
M  V30 20 H 0.286167 3.21826 -0.792949 0
M  V30 21 H -0.50423 1.9809 -1.78632 0
M  V30 22 H 1.70893 1.53054 0.294449 0
M  V30 23 H 1.701 1.34986 -1.48367 0
M  V30 24 H 0.180727 -0.374513 -1.55512 0
M  V30 25 H 2.52334 -0.773982 -1.14775 0
M  V30 26 H 1.54054 -2.10691 -0.512657 0
M  V30 27 H 2.68021 -1.74663 1.43008 0
M  V30 28 H 2.20574 -0.0685289 1.45926 0
M  V30 END ATOM
M  V30 BEGIN BOND
M  V30 1 1 1 2
M  V30 2 1 2 3
M  V30 3 1 3 4
M  V30 4 1 4 5
M  V30 5 1 5 6
M  V30 6 1 6 7
M  V30 7 1 7 8
M  V30 8 1 8 9
M  V30 9 1 9 10
M  V30 10 1 8 3
M  V30 11 1 1 11
M  V30 12 1 1 12
M  V30 13 1 2 13
M  V30 14 1 2 14
M  V30 15 1 3 15
M  V30 16 1 4 16
M  V30 17 1 4 17
M  V30 18 1 5 18
M  V30 19 1 5 19
M  V30 20 1 6 20
M  V30 21 1 6 21
M  V30 22 1 7 22
M  V30 23 1 7 23
M  V30 24 1 8 24
M  V30 25 1 9 25
M  V30 26 1 9 26
M  V30 27 1 10 27
M  V30 28 1 10 28
M  V30 END BOND
M  V30 END CTAB
M  END
