
     RDKit          3D

  0  0  0  0  0  0  0  0  0  0999 V3000
M  V30 BEGIN CTAB
M  V30 COUNTS 21 21 0 0 0
M  V30 BEGIN ATOM
M  V30 1 N 4.06433 1.29933 0.0197607 0
M  V30 2 N 2.69568 1.24587 0.1595 0
M  V30 3 C 1.98385 0.190147 0.117883 0
M  V30 4 N 0.583608 0.280386 0.276978 0
M  V30 5 C -0.238842 -0.244372 -0.785632 0
M  V30 6 C -1.67072 -0.0373411 -0.393181 0
M  V30 7 C -2.48869 -0.882431 0.309961 0
M  V30 8 C -3.74963 -0.463991 0.538184 0
M  V30 9 C -4.10515 0.758476 0.0534204 0
M  V30 10 S -2.67719 1.2993 -0.709491 0
M  V30 11 N 2.57907 -1.0672 -0.0853307 0
M  V30 12 H 4.5428 2.22131 0.0293024 0
M  V30 13 H 4.61873 0.4351 -0.0941126 0
M  V30 14 H 0.119342 0.698063 1.10562 0
M  V30 15 H -0.0988809 0.313224 -1.74131 0
M  V30 16 H -0.0694809 -1.32072 -0.959897 0
M  V30 17 H -2.07612 -1.86397 0.655197 0
M  V30 18 H -4.4857 -1.07252 1.09539 0
M  V30 19 H -5.09283 1.25736 0.147114 0
M  V30 20 H 2.27934 -1.62809 -0.911826 0
M  V30 21 H 3.2865 -1.41793 0.562788 0
M  V30 END ATOM
M  V30 BEGIN BOND
M  V30 1 1 1 2
M  V30 2 2 2 3 CFG=2
M  V30 3 1 3 4
M  V30 4 1 4 5
M  V30 5 1 5 6
M  V30 6 2 6 7
M  V30 7 1 7 8
M  V30 8 2 8 9
M  V30 9 1 9 10
M  V30 10 1 3 11
M  V30 11 1 10 6
M  V30 12 1 1 12
M  V30 13 1 1 13
M  V30 14 1 4 14
M  V30 15 1 5 15
M  V30 16 1 5 16
M  V30 17 1 7 17
M  V30 18 1 8 18
M  V30 19 1 9 19
M  V30 20 1 11 20
M  V30 21 1 11 21
M  V30 END BOND
M  V30 END CTAB
M  END
