
     RDKit          3D

  0  0  0  0  0  0  0  0  0  0999 V3000
M  V30 BEGIN CTAB
M  V30 COUNTS 72 71 0 0 0
M  V30 BEGIN ATOM
M  V30 1 C 5.55554 -0.257409 -2.27969 0 CFG=1
M  V30 2 N 5.36884 -0.171157 -3.73487 0
M  V30 3 C 6.56779 0.779683 -1.83074 0
M  V30 4 C 6.7082 0.641121 -0.321836 0
M  V30 5 C 7.69011 1.61746 0.248244 0
M  V30 6 O 8.90139 1.30674 0.777349 0
M  V30 7 O 7.30458 2.81755 0.202687 0
M  V30 8 C 4.21728 -0.0415476 -1.60889 0
M  V30 9 O 3.40483 0.766358 -2.16686 0
M  V30 10 N 3.88367 -0.702704 -0.437501 0
M  V30 11 C 2.63359 -0.571606 0.258206 0 CFG=1
M  V30 12 C 1.45225 -1.17306 -0.402241 0
M  V30 13 S -0.0294844 -0.891439 0.629354 0
M  V30 14 S -0.345445 1.14265 0.888217 0
M  V30 15 C -1.36233 2.0379 -0.243597 0
M  V30 16 C -2.78791 1.78683 -0.20629 0 CFG=2
M  V30 17 N -3.22432 0.483288 -0.532397 0
M  V30 18 C -4.48132 -0.0242892 -0.152279 0
M  V30 19 O -5.22888 0.782051 0.535343 0
M  V30 20 C -5.06395 -1.3298 -0.421392 0 CFG=1
M  V30 21 N -4.18296 -2.30839 -0.916987 0
M  V30 22 C -5.98346 -1.68411 0.707321 0
M  V30 23 C -6.66492 -3.00546 0.63373 0
M  V30 24 C -5.79737 -4.16426 0.770217 0
M  V30 25 O -6.25366 -5.43678 0.491546 0
M  V30 26 O -4.57437 -4.11103 1.15139 0
M  V30 27 C -3.55068 2.82133 -0.989216 0
M  V30 28 O -4.43003 2.40462 -1.78038 0
M  V30 29 N -3.28486 4.16564 -0.83082 0
M  V30 30 C -4.04253 5.17899 -1.55519 0
M  V30 31 C -5.45057 5.12515 -1.1366 0
M  V30 32 O -6.38725 5.98287 -1.74 0
M  V30 33 O -5.83279 4.33192 -0.256488 0
M  V30 34 C 2.72714 -0.556922 1.71684 0
M  V30 35 O 2.71884 0.446796 2.45664 0
M  V30 36 N 2.86369 -1.81299 2.45354 0
M  V30 37 C 2.92399 -1.97415 3.84766 0
M  V30 38 C 3.13426 -3.43229 4.20533 0
M  V30 39 O 3.91828 -3.71435 5.30656 0
M  V30 40 O 2.60984 -4.3065 3.50863 0
M  V30 41 H 5.96677 -1.25938 -2.06167 0
M  V30 42 H 4.81173 -1.05716 -3.97561 0
M  V30 43 H 6.2972 -0.368215 -4.17534 0
M  V30 44 H 6.20909 1.80843 -2.11044 0
M  V30 45 H 7.49911 0.585206 -2.35711 0
M  V30 46 H 6.99274 -0.359904 0.0129622 0
M  V30 47 H 5.70077 0.97005 0.0865638 0
M  V30 48 H 9.43506 0.468149 0.618743 0
M  V30 49 H 4.62004 -1.35589 -0.0305748 0
M  V30 50 H 2.41784 0.594411 0.0332247 0
M  V30 51 H 1.25047 -0.624854 -1.3461 0
M  V30 52 H 1.57226 -2.24363 -0.667878 0
M  V30 53 H -0.94486 1.85047 -1.3055 0
M  V30 54 H -1.12007 3.14326 -0.131662 0
M  V30 55 H -3.15791 1.94084 0.880954 0
M  V30 56 H -2.59112 -0.165142 -1.08129 0
M  V30 57 H -5.77243 -1.11021 -1.33966 0
M  V30 58 H -3.16032 -2.14358 -0.811781 0
M  V30 59 H -4.45551 -2.72482 -1.83278 0
M  V30 60 H -5.40806 -1.55635 1.65578 0
M  V30 61 H -6.745 -0.8459 0.741196 0
M  V30 62 H -7.25047 -3.06773 -0.335847 0
M  V30 63 H -7.47871 -3.00149 1.41652 0
M  V30 64 H -7.18359 -5.73403 0.668844 0
M  V30 65 H -2.53415 4.56268 -0.189076 0
M  V30 66 H -3.68241 6.21658 -1.35347 0
M  V30 67 H -3.89603 5.01522 -2.65798 0
M  V30 68 H -6.71496 6.84042 -1.32814 0
M  V30 69 H 2.96412 -2.66438 1.84098 0
M  V30 70 H 1.99566 -1.58269 4.37834 0
M  V30 71 H 3.78012 -1.3993 4.27387 0
M  V30 72 H 4.9576 -3.67974 5.23937 0
M  V30 END ATOM
M  V30 BEGIN BOND
M  V30 1 1 1 2
M  V30 2 1 1 3
M  V30 3 1 3 4
M  V30 4 1 4 5
M  V30 5 1 5 6
M  V30 6 2 5 7
M  V30 7 1 1 8
M  V30 8 2 8 9
M  V30 9 1 8 10
M  V30 10 1 10 11
M  V30 11 1 11 12
M  V30 12 1 12 13
M  V30 13 1 13 14
M  V30 14 1 14 15
M  V30 15 1 15 16
M  V30 16 1 16 17
M  V30 17 1 17 18
M  V30 18 2 18 19
M  V30 19 1 18 20
M  V30 20 1 20 21
M  V30 21 1 20 22
M  V30 22 1 22 23
M  V30 23 1 23 24
M  V30 24 1 24 25
M  V30 25 2 24 26
M  V30 26 1 16 27
M  V30 27 2 27 28
M  V30 28 1 27 29
M  V30 29 1 29 30
M  V30 30 1 30 31
M  V30 31 1 31 32
M  V30 32 2 31 33
M  V30 33 1 11 34
M  V30 34 2 34 35
M  V30 35 1 34 36
M  V30 36 1 36 37
M  V30 37 1 37 38
M  V30 38 1 38 39
M  V30 39 2 38 40
M  V30 40 1 1 41 CFG=3
M  V30 41 1 2 42
M  V30 42 1 2 43
M  V30 43 1 3 44
M  V30 44 1 3 45
M  V30 45 1 4 46
M  V30 46 1 4 47
M  V30 47 1 6 48
M  V30 48 1 10 49
M  V30 49 1 11 50 CFG=3
M  V30 50 1 12 51
M  V30 51 1 12 52
M  V30 52 1 15 53
M  V30 53 1 15 54
M  V30 54 1 16 55 CFG=1
M  V30 55 1 17 56
M  V30 56 1 20 57 CFG=3
M  V30 57 1 21 58
M  V30 58 1 21 59
M  V30 59 1 22 60
M  V30 60 1 22 61
M  V30 61 1 23 62
M  V30 62 1 23 63
M  V30 63 1 25 64
M  V30 64 1 29 65
M  V30 65 1 30 66
M  V30 66 1 30 67
M  V30 67 1 32 68
M  V30 68 1 36 69
M  V30 69 1 37 70
M  V30 70 1 37 71
M  V30 71 1 39 72
M  V30 END BOND
M  V30 END CTAB
M  END
