
     RDKit          3D

  0  0  0  0  0  0  0  0  0  0999 V3000
M  V30 BEGIN CTAB
M  V30 COUNTS 20 20 0 0 0
M  V30 BEGIN ATOM
M  V30 1 N 3.7383 0.530826 -0.0421061 0
M  V30 2 N 2.41827 0.628794 0.41184 0
M  V30 3 C 1.4131 -0.308665 0.0713424 0
M  V30 4 O 1.72831 -1.26995 -0.672951 0
M  V30 5 C 0.065871 -0.115697 0.597712 0
M  V30 6 C -0.962438 -1.15109 0.198104 0
M  V30 7 C -1.9773 2.51285e-05 0.221037 0
M  V30 8 C -0.79234 0.892598 -0.179553 0
M  V30 9 N -2.9822 -0.138883 -0.78984 0
M  V30 10 H 4.09831 -0.418515 0.232466 0
M  V30 11 H 3.74545 0.525032 -1.0953 0
M  V30 12 H 2.20216 1.43119 1.01932 0
M  V30 13 H -0.00224465 0.13034 1.68804 0
M  V30 14 H -1.14828 -1.94363 0.923179 0
M  V30 15 H -0.764167 -1.46866 -0.847438 0
M  V30 16 H -2.29799 0.271681 1.2296 0
M  V30 17 H -0.527732 0.800489 -1.25493 0
M  V30 18 H -0.818059 1.89647 0.240521 0
M  V30 19 H -3.57781 0.692992 -0.830728 0
M  V30 20 H -3.5592 -0.98535 -0.534536 0
M  V30 END ATOM
M  V30 BEGIN BOND
M  V30 1 1 1 2
M  V30 2 1 2 3
M  V30 3 2 3 4
M  V30 4 1 3 5
M  V30 5 1 5 6
M  V30 6 1 6 7
M  V30 7 1 7 8
M  V30 8 1 7 9
M  V30 9 1 8 5
M  V30 10 1 1 10
M  V30 11 1 1 11
M  V30 12 1 2 12
M  V30 13 1 5 13
M  V30 14 1 6 14
M  V30 15 1 6 15
M  V30 16 1 7 16
M  V30 17 1 8 17
M  V30 18 1 8 18
M  V30 19 1 9 19
M  V30 20 1 9 20
M  V30 END BOND
M  V30 END CTAB
M  END
