
     RDKit          3D

  0  0  0  0  0  0  0  0  0  0999 V3000
M  V30 BEGIN CTAB
M  V30 COUNTS 30 31 0 0 0
M  V30 BEGIN ATOM
M  V30 1 Cl 6.42402 -0.587462 0.0188992 0
M  V30 2 C 4.67013 -0.387351 -0.0332838 0
M  V30 3 C 3.84546 -1.04369 0.837201 0
M  V30 4 C 2.45663 -0.849317 0.75305 0
M  V30 5 C 1.86556 -0.0291394 -0.162301 0
M  V30 6 C 2.77479 0.618632 -1.03155 0
M  V30 7 C 4.12754 0.454981 -0.980214 0
M  V30 8 N 2.22529 1.48172 -2.00247 0
M  V30 9 N 0.489622 0.21968 -0.312722 0
M  V30 10 C -0.533347 -0.336437 0.459026 0
M  V30 11 O -0.326501 -1.15927 1.41806 0
M  V30 12 C -1.94934 -0.0391152 0.255036 0
M  V30 13 C -2.3071 0.830018 -0.743168 0
M  V30 14 C -3.67217 1.1094 -0.931225 0
M  V30 15 C -4.60979 0.519418 -0.128215 0
M  V30 16 C -4.25058 -0.348754 0.868698 0
M  V30 17 C -2.8983 -0.620803 1.04937 0
M  V30 18 N -2.50552 -1.51494 2.07371 0
M  V30 19 H 4.22074 -1.70752 1.58901 0
M  V30 20 H 1.84105 -1.38958 1.46287 0
M  V30 21 H 4.81825 0.962491 -1.65896 0
M  V30 22 H 1.47193 1.14094 -2.63747 0
M  V30 23 H 2.53454 2.47155 -2.13002 0
M  V30 24 H 0.175083 0.892047 -1.08091 0
M  V30 25 H -1.62675 1.33296 -1.41506 0
M  V30 26 H -3.9391 1.80004 -1.72628 0
M  V30 27 H -5.65897 0.720756 -0.256796 0
M  V30 28 H -4.95103 -0.831413 1.51856 0
M  V30 29 H -2.42609 -2.5363 1.8964 0
M  V30 30 H -2.28605 -1.17354 3.03075 0
M  V30 END ATOM
M  V30 BEGIN BOND
M  V30 1 1 1 2
M  V30 2 2 2 3
M  V30 3 1 3 4
M  V30 4 2 4 5
M  V30 5 1 5 6
M  V30 6 2 6 7
M  V30 7 1 6 8
M  V30 8 1 5 9
M  V30 9 1 9 10
M  V30 10 2 10 11
M  V30 11 1 10 12
M  V30 12 2 12 13
M  V30 13 1 13 14
M  V30 14 2 14 15
M  V30 15 1 15 16
M  V30 16 2 16 17
M  V30 17 1 17 18
M  V30 18 1 7 2
M  V30 19 1 17 12
M  V30 20 1 3 19
M  V30 21 1 4 20
M  V30 22 1 7 21
M  V30 23 1 8 22
M  V30 24 1 8 23
M  V30 25 1 9 24
M  V30 26 1 13 25
M  V30 27 1 14 26
M  V30 28 1 15 27
M  V30 29 1 16 28
M  V30 30 1 18 29
M  V30 31 1 18 30
M  V30 END BOND
M  V30 END CTAB
M  END
