
     RDKit          3D

  0  0  0  0  0  0  0  0  0  0999 V3000
M  V30 BEGIN CTAB
M  V30 COUNTS 54 55 0 0 0
M  V30 BEGIN ATOM
M  V30 1 C 6.01193 -1.08055 0.203584 0
M  V30 2 C 5.52574 0.226308 -0.265998 0
M  V30 3 C 4.09339 0.535274 -0.196463 0
M  V30 4 C 3.19769 -0.364738 0.29691 0
M  V30 5 C 1.82363 -0.0321402 0.348259 0
M  V30 6 N 0.941304 -0.98062 0.895904 0
M  V30 7 C -0.416521 -1.08792 0.528535 0
M  V30 8 O -0.895463 -0.323953 -0.334681 0
M  V30 9 N -1.19243 -2.06719 1.15867 0
M  V30 10 C -2.55663 -2.3015 0.917266 0
M  V30 11 C -3.13051 -3.53497 1.30061 0
M  V30 12 C -4.44772 -3.82857 1.12128 0
M  V30 13 C -5.2834 -2.88328 0.535138 0
M  V30 14 C -4.78705 -1.66314 0.139922 0
M  V30 15 C -3.44501 -1.42439 0.348173 0
M  V30 16 C -5.6763 -0.686103 -0.470135 0
M  V30 17 C -7.11966 -0.988223 -0.66843 0
M  V30 18 N -5.27285 0.475661 -0.865252 0
M  V30 19 N -6.11098 1.42511 -1.45219 0
M  V30 20 C -6.23675 2.74953 -1.03785 0
M  V30 21 N -7.2086 3.602 -1.58951 0
M  V30 22 N -5.44678 3.20594 -0.129567 0
M  V30 23 C 1.39057 1.1871 -0.0935181 0
M  V30 24 C 2.30999 2.10583 -0.598356 0
M  V30 25 C 3.63499 1.75661 -0.636593 0
M  V30 26 N 6.34722 1.08926 -0.733037 0
M  V30 27 N 7.72078 0.86848 -0.831179 0
M  V30 28 C 8.59115 1.71241 -0.0921861 0
M  V30 29 N 9.78442 1.16854 0.437101 0
M  V30 30 N 8.27237 2.96521 0.0815942 0
M  V30 31 H 5.38776 -1.91307 -0.222672 0
M  V30 32 H 5.91884 -1.15577 1.3253 0
M  V30 33 H 7.07503 -1.22717 -0.0228829 0
M  V30 34 H 3.49971 -1.33101 0.653233 0
M  V30 35 H 1.36273 -1.63552 1.62933 0
M  V30 36 H -0.728405 -2.68607 1.88075 0
M  V30 37 H -2.42744 -4.24218 1.75552 0
M  V30 38 H -4.82478 -4.79454 1.43803 0
M  V30 39 H -6.32903 -3.13179 0.398442 0
M  V30 40 H -3.12585 -0.426845 0.0232014 0
M  V30 41 H -7.47357 -1.4511 0.274682 0
M  V30 42 H -7.69863 -0.124111 -0.983676 0
M  V30 43 H -7.22404 -1.77192 -1.45546 0
M  V30 44 H -6.6768 1.08441 -2.26668 0
M  V30 45 H -7.17804 3.83063 -2.6186 0
M  V30 46 H -7.98751 4.04574 -1.05099 0
M  V30 47 H -4.6977 2.62899 0.327794 0
M  V30 48 H 0.366082 1.53825 -0.0758363 0
M  V30 49 H 1.97951 3.08256 -0.955242 0
M  V30 50 H 4.37977 2.45563 -1.02677 0
M  V30 51 H 8.15371 0.12144 -1.41398 0
M  V30 52 H 9.93155 1.14404 1.46838 0
M  V30 53 H 10.5033 0.798934 -0.197953 0
M  V30 54 H 7.39527 3.33449 -0.316111 0
M  V30 END ATOM
M  V30 BEGIN BOND
M  V30 1 1 1 2
M  V30 2 1 2 3
M  V30 3 2 3 4
M  V30 4 1 4 5
M  V30 5 1 5 6
M  V30 6 1 6 7
M  V30 7 2 7 8
M  V30 8 1 7 9
M  V30 9 1 9 10
M  V30 10 2 10 11
M  V30 11 1 11 12
M  V30 12 2 12 13
M  V30 13 1 13 14
M  V30 14 2 14 15
M  V30 15 1 14 16
M  V30 16 1 16 17
M  V30 17 2 16 18
M  V30 18 1 18 19
M  V30 19 1 19 20
M  V30 20 1 20 21
M  V30 21 2 20 22 CFG=2
M  V30 22 2 5 23
M  V30 23 1 23 24
M  V30 24 2 24 25
M  V30 25 2 2 26
M  V30 26 1 26 27
M  V30 27 1 27 28
M  V30 28 1 28 29
M  V30 29 2 28 30 CFG=2
M  V30 30 1 25 3
M  V30 31 1 15 10
M  V30 32 1 1 31
M  V30 33 1 1 32
M  V30 34 1 1 33
M  V30 35 1 4 34
M  V30 36 1 6 35
M  V30 37 1 9 36
M  V30 38 1 11 37
M  V30 39 1 12 38
M  V30 40 1 13 39
M  V30 41 1 15 40
M  V30 42 1 17 41
M  V30 43 1 17 42
M  V30 44 1 17 43
M  V30 45 1 19 44
M  V30 46 1 21 45
M  V30 47 1 21 46
M  V30 48 1 22 47
M  V30 49 1 23 48
M  V30 50 1 24 49
M  V30 51 1 25 50
M  V30 52 1 27 51
M  V30 53 1 29 52
M  V30 54 1 29 53
M  V30 55 1 30 54
M  V30 END BOND
M  V30 END CTAB
M  END
