
     RDKit          3D

  0  0  0  0  0  0  0  0  0  0999 V3000
M  V30 BEGIN CTAB
M  V30 COUNTS 41 41 0 0 0
M  V30 BEGIN ATOM
M  V30 1 C -6.43136 0.0734229 -0.977296 0
M  V30 2 C -5.27667 -0.401592 -0.100879 0
M  V30 3 C -4.06206 -0.505673 -0.964733 0
M  V30 4 C -2.83518 -0.962633 -0.249909 0
M  V30 5 C -2.43033 -0.0461026 0.878263 0
M  V30 6 C -2.13634 1.34385 0.427712 0
M  V30 7 N -1.07955 1.47222 -0.527591 0
M  V30 8 C 0.258026 1.0859 -0.247493 0
M  V30 9 N 0.647413 0.575625 0.933096 0
M  V30 10 C 1.92097 0.219946 1.17562 0
M  V30 11 N 2.31071 -0.316833 2.42898 0
M  V30 12 C 2.90167 0.361699 0.217033 0
M  V30 13 N 2.52888 0.870973 -0.970413 0
M  V30 14 C 1.25404 1.22568 -1.20952 0
M  V30 15 Cl 0.867559 1.88 -2.78873 0
M  V30 16 C 4.29456 -0.02687 0.481078 0
M  V30 17 O 4.61988 -0.493433 1.5784 0
M  V30 18 N 5.25537 0.152336 -0.56925 0
M  V30 19 C 6.59682 -0.211768 -0.342853 0
M  V30 20 N 7.00974 -0.75159 0.905572 0
M  V30 21 N 7.4666 -0.0583488 -1.26943 0
M  V30 22 H -7.0326 -0.804405 -1.33055 0
M  V30 23 H -6.05176 0.611533 -1.86728 0
M  V30 24 H -7.08105 0.733449 -0.366809 0
M  V30 25 H -5.53152 -1.43494 0.261661 0
M  V30 26 H -5.15077 0.241665 0.773825 0
M  V30 27 H -3.84151 0.448852 -1.48315 0
M  V30 28 H -4.27571 -1.24469 -1.76877 0
M  V30 29 H -2.9183 -1.9923 0.136493 0
M  V30 30 H -1.99825 -0.965175 -0.977062 0
M  V30 31 H -1.61583 -0.529589 1.45096 0
M  V30 32 H -3.29487 -0.00832888 1.58079 0
M  V30 33 H -3.08202 1.77208 0.0293929 0
M  V30 34 H -1.93737 1.94384 1.3639 0
M  V30 35 H -1.29081 1.86439 -1.47062 0
M  V30 36 H 2.54038 0.317223 3.21527 0
M  V30 37 H 2.3725 -1.33363 2.58091 0
M  V30 38 H 4.98058 0.543214 -1.48721 0
M  V30 39 H 6.92051 -1.76675 1.10072 0
M  V30 40 H 7.40504 -0.137161 1.63605 0
M  V30 41 H 7.20257 0.329822 -2.18619 0
M  V30 END ATOM
M  V30 BEGIN BOND
M  V30 1 1 1 2
M  V30 2 1 2 3
M  V30 3 1 3 4
M  V30 4 1 4 5
M  V30 5 1 5 6
M  V30 6 1 6 7
M  V30 7 1 7 8
M  V30 8 2 8 9
M  V30 9 1 9 10
M  V30 10 1 10 11
M  V30 11 2 10 12
M  V30 12 1 12 13
M  V30 13 2 13 14
M  V30 14 1 14 15
M  V30 15 1 12 16
M  V30 16 2 16 17
M  V30 17 1 16 18
M  V30 18 1 18 19
M  V30 19 1 19 20
M  V30 20 2 19 21 CFG=2
M  V30 21 1 14 8
M  V30 22 1 1 22
M  V30 23 1 1 23
M  V30 24 1 1 24
M  V30 25 1 2 25
M  V30 26 1 2 26
M  V30 27 1 3 27
M  V30 28 1 3 28
M  V30 29 1 4 29
M  V30 30 1 4 30
M  V30 31 1 5 31
M  V30 32 1 5 32
M  V30 33 1 6 33
M  V30 34 1 6 34
M  V30 35 1 7 35
M  V30 36 1 11 36
M  V30 37 1 11 37
M  V30 38 1 18 38
M  V30 39 1 20 39
M  V30 40 1 20 40
M  V30 41 1 21 41
M  V30 END BOND
M  V30 END CTAB
M  END
