
     RDKit          3D

  0  0  0  0  0  0  0  0  0  0999 V3000
M  V30 BEGIN CTAB
M  V30 COUNTS 53 56 0 0 0
M  V30 BEGIN ATOM
M  V30 1 N -1.32009 4.1849 0.201738 0
M  V30 2 C -2.36178 3.31322 -0.335428 0
M  V30 3 C -2.89972 2.34527 0.59813 0
M  V30 4 C -2.10329 1.2219 1.17139 0
M  V30 5 N -1.63232 0.178465 0.345275 0
M  V30 6 C -0.409598 0.183843 -0.251884 0
M  V30 7 C 0.680532 1.2179 -0.218418 0
M  V30 8 C 2.0215 0.667031 -0.660362 0
M  V30 9 C 2.47998 -0.381612 0.322899 0
M  V30 10 O 3.69878 -0.968262 0.0526077 0
M  V30 11 C 4.90476 -0.344276 0.0481584 0
M  V30 12 C 6.01096 -1.13752 -0.294511 0
M  V30 13 C 7.28951 -0.631093 -0.334587 0
M  V30 14 C 7.49342 0.707147 -0.0264635 0
M  V30 15 C 6.43498 1.50687 0.312153 0
M  V30 16 C 5.14446 0.968723 0.346406 0
M  V30 17 N -0.240241 -0.936157 -0.980408 0
M  V30 18 C -1.33036 -1.6967 -0.880627 0
M  V30 19 C -1.69721 -2.92016 -1.39199 0
M  V30 20 N -0.779139 -3.58665 -2.23265 0
M  V30 21 N -2.86761 -3.49445 -1.13012 0
M  V30 22 C -3.73066 -2.84645 -0.326553 0
M  V30 23 C -4.95236 -3.46429 -0.0399723 0
M  V30 24 C -5.82208 -2.80896 0.793458 0
M  V30 25 C -5.52888 -1.59134 1.33931 0
M  V30 26 C -4.29614 -0.965461 1.05085 0
M  V30 27 C -3.42755 -1.58936 0.234959 0
M  V30 28 C -2.20077 -0.997545 -0.048392 0
M  V30 29 H -1.71262 4.56852 1.10757 0
M  V30 30 H -1.13435 4.99504 -0.397811 0
M  V30 31 H -3.20239 4.02756 -0.59554 0
M  V30 32 H -2.0422 2.92924 -1.32685 0
M  V30 33 H -3.91671 1.96638 0.221471 0
M  V30 34 H -3.2357 2.94607 1.52545 0
M  V30 35 H -2.41183 0.964628 2.21209 0
M  V30 36 H -1.15 1.82205 1.50187 0
M  V30 37 H 0.823032 1.66166 0.775763 0
M  V30 38 H 0.427299 2.05925 -0.912222 0
M  V30 39 H 1.83291 0.0583914 -1.6225 0
M  V30 40 H 2.72584 1.45185 -0.895695 0
M  V30 41 H 1.69181 -1.13232 0.461335 0
M  V30 42 H 2.5155 0.162021 1.32493 0
M  V30 43 H 5.8475 -2.19154 -0.536825 0
M  V30 44 H 8.15316 -1.21898 -0.594259 0
M  V30 45 H 8.47949 1.09979 -0.0572885 0
M  V30 46 H 6.56806 2.54631 0.5548 0
M  V30 47 H 4.34837 1.63116 0.641367 0
M  V30 48 H 0.235129 -3.51686 -2.05779 0
M  V30 49 H -1.14905 -4.14121 -3.02078 0
M  V30 50 H -5.13973 -4.42505 -0.493743 0
M  V30 51 H -6.77346 -3.29085 1.0169 0
M  V30 52 H -6.20353 -1.06003 1.99953 0
M  V30 53 H -4.1356 -0.0480799 1.50326 0
M  V30 END ATOM
M  V30 BEGIN BOND
M  V30 1 1 1 2
M  V30 2 1 2 3
M  V30 3 1 3 4
M  V30 4 1 4 5
M  V30 5 1 5 6
M  V30 6 1 6 7
M  V30 7 1 7 8
M  V30 8 1 8 9
M  V30 9 1 9 10
M  V30 10 1 10 11
M  V30 11 2 11 12
M  V30 12 1 12 13
M  V30 13 2 13 14
M  V30 14 1 14 15
M  V30 15 2 15 16
M  V30 16 2 6 17
M  V30 17 1 17 18
M  V30 18 2 18 19
M  V30 19 1 19 20
M  V30 20 1 19 21
M  V30 21 2 21 22
M  V30 22 1 22 23
M  V30 23 2 23 24
M  V30 24 1 24 25
M  V30 25 2 25 26
M  V30 26 1 26 27
M  V30 27 2 27 28
M  V30 28 1 28 5
M  V30 29 1 16 11
M  V30 30 1 28 18
M  V30 31 1 27 22
M  V30 32 1 1 29
M  V30 33 1 1 30
M  V30 34 1 2 31
M  V30 35 1 2 32
M  V30 36 1 3 33
M  V30 37 1 3 34
M  V30 38 1 4 35
M  V30 39 1 4 36
M  V30 40 1 7 37
M  V30 41 1 7 38
M  V30 42 1 8 39
M  V30 43 1 8 40
M  V30 44 1 9 41
M  V30 45 1 9 42
M  V30 46 1 12 43
M  V30 47 1 13 44
M  V30 48 1 14 45
M  V30 49 1 15 46
M  V30 50 1 16 47
M  V30 51 1 20 48
M  V30 52 1 20 49
M  V30 53 1 23 50
M  V30 54 1 24 51
M  V30 55 1 25 52
M  V30 56 1 26 53
M  V30 END BOND
M  V30 END CTAB
M  END
