
     RDKit          3D

  0  0  0  0  0  0  0  0  0  0999 V3000
M  V30 BEGIN CTAB
M  V30 COUNTS 45 46 0 0 0
M  V30 BEGIN ATOM
M  V30 1 C -8.4088 -1.539 -0.186677 0
M  V30 2 C -6.99689 -1.1486 -0.455277 0
M  V30 3 C -6.32316 -0.619038 0.796338 0
M  V30 4 O -7.15728 -0.510706 1.76097 0
M  V30 5 N -5.01856 -0.328315 0.810641 0
M  V30 6 C -3.69221 -0.0319624 0.827772 0
M  V30 7 C -2.85461 0.149125 1.90993 0
M  V30 8 C -1.4853 0.325378 1.78499 0
M  V30 9 C -0.887744 0.328053 0.560583 0
M  V30 10 C -1.7221 0.151424 -0.525013 0
M  V30 11 C -3.05148 -0.0217125 -0.440052 0
M  V30 12 C -3.86585 -0.185845 -1.68145 0
M  V30 13 N 0.497107 0.425508 0.39702 0
M  V30 14 C 1.50626 0.130474 1.3151 0
M  V30 15 O 1.20991 -0.286084 2.46514 0
M  V30 16 C 2.94484 0.26775 1.04721 0
M  V30 17 S 3.36937 0.891496 -0.573551 0
M  V30 18 C 5.1729 0.899167 -0.665947 0
M  V30 19 N 5.85212 -0.167388 -1.11972 0
M  V30 20 C 7.19601 -0.200412 -1.18739 0
M  V30 21 N 7.89683 -1.34617 -1.67562 0
M  V30 22 C 7.91677 0.902342 -0.776182 0
M  V30 23 C 7.22774 2.00087 -0.310131 0
M  V30 24 N 5.87003 1.97369 -0.266035 0
M  V30 25 N 7.93734 3.14919 0.125293 0
M  V30 26 H -9.0135 -1.28629 -1.10221 0
M  V30 27 H -8.82959 -0.973015 0.658347 0
M  V30 28 H -8.5238 -2.63555 -0.0129863 0
M  V30 29 H -6.94128 -0.364912 -1.25625 0
M  V30 30 H -6.406 -2.00624 -0.79702 0
M  V30 31 H -5.17442 0.259273 2.04982 0
M  V30 32 H -3.27199 0.146188 2.90782 0
M  V30 33 H -0.939179 0.475551 2.69496 0
M  V30 34 H -1.26931 0.150247 -1.53417 0
M  V30 35 H -4.71759 0.512949 -1.674 0
M  V30 36 H -3.25088 0.141859 -2.56718 0
M  V30 37 H -4.23276 -1.21433 -1.80864 0
M  V30 38 H 0.832351 0.773622 -0.560647 0
M  V30 39 H 3.47634 0.890585 1.82353 0
M  V30 40 H 3.42665 -0.748136 1.15756 0
M  V30 41 H 7.39287 -2.24011 -1.71708 0
M  V30 42 H 8.87999 -1.27422 -1.97631 0
M  V30 43 H 8.99204 0.874095 -0.829786 0
M  V30 44 H 7.71941 4.11031 -0.207209 0
M  V30 45 H 8.7174 3.04383 0.813526 0
M  V30 END ATOM
M  V30 BEGIN BOND
M  V30 1 1 1 2
M  V30 2 1 2 3
M  V30 3 2 3 4
M  V30 4 1 3 5
M  V30 5 1 5 6
M  V30 6 2 6 7
M  V30 7 1 7 8
M  V30 8 2 8 9
M  V30 9 1 9 10
M  V30 10 2 10 11
M  V30 11 1 11 12
M  V30 12 1 9 13
M  V30 13 1 13 14
M  V30 14 2 14 15
M  V30 15 1 14 16
M  V30 16 1 16 17
M  V30 17 1 17 18
M  V30 18 2 18 19
M  V30 19 1 19 20
M  V30 20 1 20 21
M  V30 21 2 20 22
M  V30 22 1 22 23
M  V30 23 2 23 24
M  V30 24 1 23 25
M  V30 25 1 11 6
M  V30 26 1 24 18
M  V30 27 1 1 26
M  V30 28 1 1 27
M  V30 29 1 1 28
M  V30 30 1 2 29
M  V30 31 1 2 30
M  V30 32 1 5 31
M  V30 33 1 7 32
M  V30 34 1 8 33
M  V30 35 1 10 34
M  V30 36 1 12 35
M  V30 37 1 12 36
M  V30 38 1 12 37
M  V30 39 1 13 38
M  V30 40 1 16 39
M  V30 41 1 16 40
M  V30 42 1 21 41
M  V30 43 1 21 42
M  V30 44 1 22 43
M  V30 45 1 25 44
M  V30 46 1 25 45
M  V30 END BOND
M  V30 END CTAB
M  END
