
     RDKit          3D

  0  0  0  0  0  0  0  0  0  0999 V3000
M  V30 BEGIN CTAB
M  V30 COUNTS 49 52 0 0 0
M  V30 BEGIN ATOM
M  V30 1 N 6.70232 0.859973 1.28237 0
M  V30 2 C 6.58297 0.103623 0.0497106 0 CFG=1
M  V30 3 C 5.98629 -1.23071 0.363808 0
M  V30 4 C 4.88777 -1.63357 -0.592062 0
M  V30 5 C 3.81602 -0.554852 -0.591424 0
M  V30 6 C 4.32524 0.708648 -0.767652 0
M  V30 7 C 5.79449 0.904643 -0.934413 0
M  V30 8 S 2.90629 1.65748 -0.719646 0
M  V30 9 C 1.75636 0.39628 -0.479517 0
M  V30 10 N 2.53644 -0.674216 -0.451501 0
M  V30 11 N 0.34243 0.477196 -0.346007 0
M  V30 12 C -0.415504 -0.679461 -0.155421 0
M  V30 13 O 0.173887 -1.8106 -0.102208 0
M  V30 14 C -1.89922 -0.676189 -0.00712862 0
M  V30 15 C -2.46221 -0.0735573 -1.26248 0
M  V30 16 C -3.88626 0.402038 -1.09864 0
M  V30 17 C -4.86212 -0.671107 -0.817018 0
M  V30 18 C -5.01413 -1.08521 0.592902 0
M  V30 19 C -4.66722 -0.0726764 1.62313 0
M  V30 20 C -3.50391 0.801007 1.25519 0
M  V30 21 C -2.23103 0.0584188 1.24075 0
M  V30 22 C -3.84744 1.487 -0.0439641 0
M  V30 23 N -5.14352 2.0974 0.0792249 0
M  V30 24 H 5.81345 0.720369 1.81933 0
M  V30 25 H 7.45452 0.382734 1.84977 0
M  V30 26 H 7.62483 0.0123782 -0.35857 0
M  V30 27 H 6.79145 -1.9979 0.254645 0
M  V30 28 H 5.63431 -1.30759 1.41098 0
M  V30 29 H 4.47192 -2.5821 -0.216615 0
M  V30 30 H 5.29579 -1.67985 -1.60802 0
M  V30 31 H 6.07545 0.575475 -1.957 0
M  V30 32 H 6.01766 1.98287 -0.827561 0
M  V30 33 H -0.0998206 1.40649 -0.393923 0
M  V30 34 H -2.23515 -1.72864 0.0211462 0
M  V30 35 H -1.86424 0.836256 -1.54793 0
M  V30 36 H -2.39668 -0.785878 -2.08836 0
M  V30 37 H -4.16604 0.906545 -2.05265 0
M  V30 38 H -4.55345 -1.5811 -1.41146 0
M  V30 39 H -5.84865 -0.38013 -1.26511 0
M  V30 40 H -6.09955 -1.35935 0.751106 0
M  V30 41 H -4.46586 -2.03251 0.848367 0
M  V30 42 H -4.38003 -0.595073 2.58269 0
M  V30 43 H -5.57327 0.514544 1.88798 0
M  V30 44 H -3.44906 1.6165 2.03092 0
M  V30 45 H -2.2372 -0.677281 2.08081 0
M  V30 46 H -1.39772 0.771472 1.50065 0
M  V30 47 H -3.08163 2.21268 -0.314716 0
M  V30 48 H -5.28708 2.48795 1.03151 0
M  V30 49 H -5.9219 1.48957 -0.251392 0
M  V30 END ATOM
M  V30 BEGIN BOND
M  V30 1 1 1 2
M  V30 2 1 2 3
M  V30 3 1 3 4
M  V30 4 1 4 5
M  V30 5 2 5 6
M  V30 6 1 6 7
M  V30 7 1 6 8
M  V30 8 1 8 9
M  V30 9 2 9 10
M  V30 10 1 9 11
M  V30 11 1 11 12
M  V30 12 2 12 13
M  V30 13 1 12 14
M  V30 14 1 14 15
M  V30 15 1 15 16
M  V30 16 1 16 17
M  V30 17 1 17 18
M  V30 18 1 18 19
M  V30 19 1 19 20
M  V30 20 1 20 21
M  V30 21 1 20 22
M  V30 22 1 22 23
M  V30 23 1 7 2
M  V30 24 1 21 14
M  V30 25 1 10 5
M  V30 26 1 22 16
M  V30 27 1 1 24
M  V30 28 1 1 25
M  V30 29 1 2 26 CFG=3
M  V30 30 1 3 27
M  V30 31 1 3 28
M  V30 32 1 4 29
M  V30 33 1 4 30
M  V30 34 1 7 31
M  V30 35 1 7 32
M  V30 36 1 11 33
M  V30 37 1 14 34
M  V30 38 1 15 35
M  V30 39 1 15 36
M  V30 40 1 16 37
M  V30 41 1 17 38
M  V30 42 1 17 39
M  V30 43 1 18 40
M  V30 44 1 18 41
M  V30 45 1 19 42
M  V30 46 1 19 43
M  V30 47 1 20 44
M  V30 48 1 21 45
M  V30 49 1 21 46
M  V30 50 1 22 47
M  V30 51 1 23 48
M  V30 52 1 23 49
M  V30 END BOND
M  V30 END CTAB
M  END
