
     RDKit          3D

  0  0  0  0  0  0  0  0  0  0999 V3000
M  V30 BEGIN CTAB
M  V30 COUNTS 22 22 0 0 0
M  V30 BEGIN ATOM
M  V30 1 C 2.21455 0.887688 -0.482519 0
M  V30 2 C 1.13402 0.985151 0.597314 0
M  V30 3 C -0.031505 0.130653 0.251825 0
M  V30 4 C 0.0978996 -1.22908 0.440157 0
M  V30 5 N 1.32039 -1.75844 0.949835 0
M  V30 6 C -0.972723 -2.06701 0.126887 0
M  V30 7 C -2.13325 -1.50856 -0.363712 0
M  V30 8 C -2.27565 -0.15156 -0.55632 0
M  V30 9 C -1.21098 0.685108 -0.245337 0
M  V30 10 N -1.28722 2.09135 -0.423626 0
M  V30 11 Cl -3.72505 0.586542 -1.16573 0
M  V30 12 H 2.34259 1.84906 -1.02078 0
M  V30 13 H 1.9101 0.119496 -1.25005 0
M  V30 14 H 3.18958 0.576168 -0.057704 0
M  V30 15 H 1.60509 0.738755 1.54662 0
M  V30 16 H 0.773523 2.04625 0.585379 0
M  V30 17 H 1.32122 -2.29809 1.84548 0
M  V30 18 H 2.24724 -1.64207 0.478115 0
M  V30 19 H -0.855924 -3.11871 0.278351 0
M  V30 20 H -2.97121 -2.1745 -0.607346 0
M  V30 21 H -2.02171 2.6046 0.110517 0
M  V30 22 H -0.670974 2.64719 -1.03735 0
M  V30 END ATOM
M  V30 BEGIN BOND
M  V30 1 1 1 2
M  V30 2 1 2 3
M  V30 3 2 3 4
M  V30 4 1 4 5
M  V30 5 1 4 6
M  V30 6 2 6 7
M  V30 7 1 7 8
M  V30 8 2 8 9
M  V30 9 1 9 10
M  V30 10 1 8 11
M  V30 11 1 9 3
M  V30 12 1 1 12
M  V30 13 1 1 13
M  V30 14 1 1 14
M  V30 15 1 2 15
M  V30 16 1 2 16
M  V30 17 1 5 17
M  V30 18 1 5 18
M  V30 19 1 6 19
M  V30 20 1 7 20
M  V30 21 1 10 21
M  V30 22 1 10 22
M  V30 END BOND
M  V30 END CTAB
M  END
