
     RDKit          3D

  0  0  0  0  0  0  0  0  0  0999 V3000
M  V30 BEGIN CTAB
M  V30 COUNTS 49 51 0 0 0
M  V30 BEGIN ATOM
M  V30 1 N 7.04601 -0.715448 -1.19548 0
M  V30 2 C 6.64479 -0.205197 0.0943363 0
M  V30 3 C 6.28166 1.26364 0.0230791 0
M  V30 4 C 4.82725 1.32003 0.512482 0
M  V30 5 C 4.31674 0.00242819 -0.0288111 0
M  V30 6 C 5.38133 -0.939868 0.494822 0
M  V30 7 C 2.97177 -0.340174 0.495612 0
M  V30 8 O 2.46547 0.477576 1.28434 0
M  V30 9 N 2.35838 -1.52109 0.0947405 0
M  V30 10 C 1.09375 -2.0747 0.41377 0
M  V30 11 C -0.154107 -1.4293 -0.0520788 0
M  V30 12 C -0.413116 -0.0165523 0.342693 0
M  V30 13 C -1.79091 0.326192 -0.197565 0
M  V30 14 N -2.91639 0.135487 0.503233 0
M  V30 15 N -3.97197 0.516766 -0.198677 0
M  V30 16 C -3.52217 0.963565 -1.37798 0
M  V30 17 C -2.13918 0.85202 -1.39983 0
M  V30 18 N -4.32766 1.47071 -2.43821 0
M  V30 19 C -5.32068 0.435563 0.283655 0
M  V30 20 C -6.36918 0.0812436 -0.527792 0
M  V30 21 C -7.64647 0.0203188 -0.00590528 0
M  V30 22 C -7.93797 0.300954 1.31325 0
M  V30 23 C -6.87757 0.657356 2.12601 0
M  V30 24 C -5.59684 0.720882 1.61265 0
M  V30 25 H 6.74417 -0.147194 -1.99252 0
M  V30 26 H 6.81368 -1.70165 -1.35009 0
M  V30 27 H 7.4034 -0.391146 0.882036 0
M  V30 28 H 6.93884 1.90409 0.62232 0
M  V30 29 H 6.22073 1.59497 -1.05481 0
M  V30 30 H 4.29956 2.19162 0.116188 0
M  V30 31 H 4.83681 1.25269 1.61471 0
M  V30 32 H 4.31411 0.0509078 -1.13458 0
M  V30 33 H 5.2697 -0.963695 1.60465 0
M  V30 34 H 5.31053 -1.94184 0.0326746 0
M  V30 35 H 2.9522 -2.13019 -0.585722 0
M  V30 36 H 0.998 -2.21868 1.55712 0
M  V30 37 H 1.01971 -3.15904 0.0775988 0
M  V30 38 H -0.26505 -1.5436 -1.17687 0
M  V30 39 H -1.0003 -2.08897 0.356331 0
M  V30 40 H 0.253724 0.706271 -0.195132 0
M  V30 41 H -0.446985 0.100431 1.41455 0
M  V30 42 H -1.45019 1.11723 -2.18909 0
M  V30 43 H -5.17526 2.04775 -2.26096 0
M  V30 44 H -4.08575 1.27423 -3.43549 0
M  V30 45 H -6.16708 -0.146076 -1.57581 0
M  V30 46 H -8.46658 -0.259866 -0.653001 0
M  V30 47 H -8.93429 0.25486 1.72616 0
M  V30 48 H -7.02788 0.891276 3.1697 0
M  V30 49 H -4.75873 1.00323 2.25772 0
M  V30 END ATOM
M  V30 BEGIN BOND
M  V30 1 1 1 2
M  V30 2 1 2 3
M  V30 3 1 3 4
M  V30 4 1 4 5
M  V30 5 1 5 6
M  V30 6 1 5 7
M  V30 7 2 7 8
M  V30 8 1 7 9
M  V30 9 1 9 10
M  V30 10 1 10 11
M  V30 11 1 11 12
M  V30 12 1 12 13
M  V30 13 2 13 14
M  V30 14 1 14 15
M  V30 15 1 15 16
M  V30 16 2 16 17
M  V30 17 1 16 18
M  V30 18 1 15 19
M  V30 19 2 19 20
M  V30 20 1 20 21
M  V30 21 2 21 22
M  V30 22 1 22 23
M  V30 23 2 23 24
M  V30 24 1 6 2
M  V30 25 1 17 13
M  V30 26 1 24 19
M  V30 27 1 1 25
M  V30 28 1 1 26
M  V30 29 1 2 27
M  V30 30 1 3 28
M  V30 31 1 3 29
M  V30 32 1 4 30
M  V30 33 1 4 31
M  V30 34 1 5 32
M  V30 35 1 6 33
M  V30 36 1 6 34
M  V30 37 1 9 35
M  V30 38 1 10 36
M  V30 39 1 10 37
M  V30 40 1 11 38
M  V30 41 1 11 39
M  V30 42 1 12 40
M  V30 43 1 12 41
M  V30 44 1 17 42
M  V30 45 1 18 43
M  V30 46 1 18 44
M  V30 47 1 20 45
M  V30 48 1 21 46
M  V30 49 1 22 47
M  V30 50 1 23 48
M  V30 51 1 24 49
M  V30 END BOND
M  V30 END CTAB
M  END
