
     RDKit          3D

  0  0  0  0  0  0  0  0  0  0999 V3000
M  V30 BEGIN CTAB
M  V30 COUNTS 70 70 0 0 0
M  V30 BEGIN ATOM
M  V30 1 N 8.51196 0.994689 2.20795 0
M  V30 2 C 7.23684 1.05237 1.4708 0
M  V30 3 C 7.26168 -0.00366677 0.417747 0
M  V30 4 C 6.05849 -0.108166 -0.44219 0
M  V30 5 C 4.81853 -0.425199 0.265749 0
M  V30 6 O 4.84102 -0.685259 1.48672 0
M  V30 7 N 3.58411 -0.429659 -0.479879 0
M  V30 8 C 3.57911 -0.125224 -1.89229 0
M  V30 9 C 2.17956 0.0575276 -2.39073 0
M  V30 10 O 2.0721 0.87369 -3.49419 0
M  V30 11 C 0.770378 0.681629 -4.01462 0
M  V30 12 C -0.260513 1.36743 -3.18142 0
M  V30 13 O -0.826673 0.492404 -2.22425 0
M  V30 14 C -1.99882 1.02594 -1.69902 0
M  V30 15 C -3.21471 0.235951 -2.07202 0
M  V30 16 N -3.9669 -0.23092 -0.94066 0
M  V30 17 C -3.7023 -1.49319 -0.270924 0
M  V30 18 C -2.90266 -1.27326 0.983601 0
M  V30 19 O -1.60823 -1.74638 0.893609 0
M  V30 20 C -0.776443 -0.881423 1.59052 0
M  V30 21 C 0.362272 -1.57359 2.27708 0
M  V30 22 O 1.17414 -2.29698 1.44403 0
M  V30 23 C 2.42587 -1.64502 1.32999 0
M  V30 24 C 2.32887 -0.735024 0.153987 0
M  V30 25 C -5.01968 0.566406 -0.442826 0
M  V30 26 O -5.26882 1.66006 -1.00266 0
M  V30 27 C -5.85087 0.165429 0.721864 0
M  V30 28 C -6.90097 1.21549 1.03294 0
M  V30 29 C -7.74009 0.795599 2.22044 0
M  V30 30 N -6.88965 0.626948 3.38334 0
M  V30 31 H 8.66384 0.0382875 2.57099 0
M  V30 32 H 9.28406 1.20773 1.5386 0
M  V30 33 H 6.43178 0.981171 2.19448 0
M  V30 34 H 7.22108 2.08408 1.04051 0
M  V30 35 H 7.43401 -1.01923 0.875022 0
M  V30 36 H 8.13667 0.185007 -0.270318 0
M  V30 37 H 6.24631 -0.961675 -1.14978 0
M  V30 38 H 5.89555 0.788361 -1.0779 0
M  V30 39 H 4.09256 0.867973 -2.02062 0
M  V30 40 H 4.13372 -0.883619 -2.48159 0
M  V30 41 H 1.60791 0.567593 -1.56095 0
M  V30 42 H 1.65202 -0.886265 -2.61593 0
M  V30 43 H 0.769921 0.992223 -5.08313 0
M  V30 44 H 0.533325 -0.421421 -4.02732 0
M  V30 45 H -1.06065 1.76299 -3.86645 0
M  V30 46 H 0.18548 2.22067 -2.63077 0
M  V30 47 H -1.91666 1.1255 -0.588912 0
M  V30 48 H -2.08529 2.06446 -2.0786 0
M  V30 49 H -2.95067 -0.660466 -2.67546 0
M  V30 50 H -3.87348 0.863762 -2.70585 0
M  V30 51 H -3.2392 -2.22475 -0.962005 0
M  V30 52 H -4.67393 -1.97199 0.0487885 0
M  V30 53 H -2.87174 -0.188536 1.18207 0
M  V30 54 H -3.36804 -1.74261 1.87367 0
M  V30 55 H -1.35889 -0.349973 2.38448 0
M  V30 56 H -0.455106 -0.0975906 0.881057 0
M  V30 57 H 0.942015 -0.811471 2.82084 0
M  V30 58 H -0.0836185 -2.24298 3.05323 0
M  V30 59 H 2.56005 -1.12261 2.30306 0
M  V30 60 H 3.16247 -2.46695 1.21659 0
M  V30 61 H 1.89425 0.225072 0.497722 0
M  V30 62 H 1.68766 -1.23662 -0.604738 0
M  V30 63 H -6.3984 -0.756778 0.437617 0
M  V30 64 H -5.2335 -0.0765335 1.59401 0
M  V30 65 H -6.42283 2.1812 1.31368 0
M  V30 66 H -7.50806 1.40852 0.135918 0
M  V30 67 H -8.25249 -0.146757 1.92856 0
M  V30 68 H -8.44431 1.61377 2.44833 0
M  V30 69 H -6.08459 1.28213 3.25625 0
M  V30 70 H -6.53081 -0.350292 3.47221 0
M  V30 END ATOM
M  V30 BEGIN BOND
M  V30 1 1 1 2
M  V30 2 1 2 3
M  V30 3 1 3 4
M  V30 4 1 4 5
M  V30 5 2 5 6
M  V30 6 1 5 7
M  V30 7 1 7 8
M  V30 8 1 8 9
M  V30 9 1 9 10
M  V30 10 1 10 11
M  V30 11 1 11 12
M  V30 12 1 12 13
M  V30 13 1 13 14
M  V30 14 1 14 15
M  V30 15 1 15 16
M  V30 16 1 16 17
M  V30 17 1 17 18
M  V30 18 1 18 19
M  V30 19 1 19 20
M  V30 20 1 20 21
M  V30 21 1 21 22
M  V30 22 1 22 23
M  V30 23 1 23 24
M  V30 24 1 16 25
M  V30 25 2 25 26
M  V30 26 1 25 27
M  V30 27 1 27 28
M  V30 28 1 28 29
M  V30 29 1 29 30
M  V30 30 1 24 7
M  V30 31 1 1 31
M  V30 32 1 1 32
M  V30 33 1 2 33
M  V30 34 1 2 34
M  V30 35 1 3 35
M  V30 36 1 3 36
M  V30 37 1 4 37
M  V30 38 1 4 38
M  V30 39 1 8 39
M  V30 40 1 8 40
M  V30 41 1 9 41
M  V30 42 1 9 42
M  V30 43 1 11 43
M  V30 44 1 11 44
M  V30 45 1 12 45
M  V30 46 1 12 46
M  V30 47 1 14 47
M  V30 48 1 14 48
M  V30 49 1 15 49
M  V30 50 1 15 50
M  V30 51 1 17 51
M  V30 52 1 17 52
M  V30 53 1 18 53
M  V30 54 1 18 54
M  V30 55 1 20 55
M  V30 56 1 20 56
M  V30 57 1 21 57
M  V30 58 1 21 58
M  V30 59 1 23 59
M  V30 60 1 23 60
M  V30 61 1 24 61
M  V30 62 1 24 62
M  V30 63 1 27 63
M  V30 64 1 27 64
M  V30 65 1 28 65
M  V30 66 1 28 66
M  V30 67 1 29 67
M  V30 68 1 29 68
M  V30 69 1 30 69
M  V30 70 1 30 70
M  V30 END BOND
M  V30 END CTAB
M  END
