
     RDKit          3D

  0  0  0  0  0  0  0  0  0  0999 V3000
M  V30 BEGIN CTAB
M  V30 COUNTS 38 40 0 0 0
M  V30 BEGIN ATOM
M  V30 1 C -7.70246 1.23494 2.9183 0
M  V30 2 O -6.38944 0.974275 2.50519 0
M  V30 3 C -6.0159 -0.00288569 1.62187 0
M  V30 4 O -6.89901 -0.731559 1.133 0
M  V30 5 C -4.62496 -0.234663 1.22195 0
M  V30 6 C -3.58865 0.530868 1.7201 0
M  V30 7 C -2.27769 0.303358 1.33558 0
M  V30 8 C -1.9487 -0.696406 0.439238 0
M  V30 9 S -0.267969 -1.00707 -0.0699957 0
M  V30 10 C 0.848418 0.143814 0.743658 0
M  V30 11 C 2.23764 -0.163102 0.27983 0
M  V30 12 N 2.7671 0.428428 -0.806624 0
M  V30 13 C 4.02175 0.151738 -1.22613 0
M  V30 14 C 4.81062 -0.75458 -0.549599 0
M  V30 15 N 4.27502 -1.34438 0.538424 0
M  V30 16 C 3.0226 -1.07022 0.959809 0
M  V30 17 N 6.04806 -1.01113 -0.984354 0
M  V30 18 C 6.5933 -0.423036 -2.07614 0
M  V30 19 N 7.90566 -0.711672 -2.5161 0
M  V30 20 N 5.82567 0.464841 -2.74212 0
M  V30 21 C 4.5744 0.752496 -2.33876 0
M  V30 22 N 3.76125 1.68738 -3.03702 0
M  V30 23 C -2.98722 -1.45871 -0.0558495 0
M  V30 24 C -4.30021 -1.2319 0.328381 0
M  V30 25 H -8.02129 2.23353 2.49957 0
M  V30 26 H -7.80099 1.31494 4.0364 0
M  V30 27 H -8.44659 0.507662 2.53408 0
M  V30 28 H -3.85786 1.3151 2.4248 0
M  V30 29 H -1.48994 0.904443 1.7306 0
M  V30 30 H 0.588522 1.1966 0.612646 0
M  V30 31 H 0.806719 -0.0908566 1.84788 0
M  V30 32 H 2.61281 -1.55511 1.83543 0
M  V30 33 H 8.66983 -0.943022 -1.85871 0
M  V30 34 H 8.10773 -0.690586 -3.53038 0
M  V30 35 H 3.42378 1.47602 -3.98412 0
M  V30 36 H 3.52073 2.58511 -2.56232 0
M  V30 37 H -2.71821 -2.24008 -0.758081 0
M  V30 38 H -5.08452 -1.84457 -0.0768433 0
M  V30 END ATOM
M  V30 BEGIN BOND
M  V30 1 1 1 2
M  V30 2 1 2 3
M  V30 3 2 3 4
M  V30 4 1 3 5
M  V30 5 2 5 6
M  V30 6 1 6 7
M  V30 7 2 7 8
M  V30 8 1 8 9
M  V30 9 1 9 10
M  V30 10 1 10 11
M  V30 11 2 11 12
M  V30 12 1 12 13
M  V30 13 2 13 14
M  V30 14 1 14 15
M  V30 15 2 15 16
M  V30 16 1 14 17
M  V30 17 2 17 18
M  V30 18 1 18 19
M  V30 19 1 18 20
M  V30 20 2 20 21
M  V30 21 1 21 22
M  V30 22 1 8 23
M  V30 23 2 23 24
M  V30 24 1 24 5
M  V30 25 1 16 11
M  V30 26 1 21 13
M  V30 27 1 1 25
M  V30 28 1 1 26
M  V30 29 1 1 27
M  V30 30 1 6 28
M  V30 31 1 7 29
M  V30 32 1 10 30
M  V30 33 1 10 31
M  V30 34 1 16 32
M  V30 35 1 19 33
M  V30 36 1 19 34
M  V30 37 1 22 35
M  V30 38 1 22 36
M  V30 39 1 23 37
M  V30 40 1 24 38
M  V30 END BOND
M  V30 END CTAB
M  END
