
     RDKit          3D

  0  0  0  0  0  0  0  0  0  0999 V3000
M  V30 BEGIN CTAB
M  V30 COUNTS 38 40 0 0 0
M  V30 BEGIN ATOM
M  V30 1 N -5.80929 0.114796 0.172943 0
M  V30 2 C -4.38917 0.187045 0.0538671 0
M  V30 3 C -3.733 -0.40294 -1.01023 0
M  V30 4 C -2.36582 -0.360042 -1.16798 0
M  V30 5 C -1.58976 0.286668 -0.250057 0
M  V30 6 C -2.23666 0.886171 0.827897 0
M  V30 7 C -3.60711 0.841724 0.983677 0
M  V30 8 C -0.130644 0.400373 -0.308401 0 CFG=2
M  V30 9 C 0.417646 0.43144 -1.70797 0
M  V30 10 C 1.87715 0.840094 -1.6672 0
M  V30 11 N 2.52794 0.329348 -0.455448 0
M  V30 12 C 1.92967 -0.724717 0.28734 0
M  V30 13 C 0.554135 -0.730232 0.394642 0
M  V30 14 C -0.0650852 -1.7143 1.0932 0
M  V30 15 C 0.718356 -2.69266 1.68208 0
M  V30 16 C 2.1067 -2.67809 1.56743 0
M  V30 17 C 2.74525 -1.69647 0.868926 0
M  V30 18 S 4.03657 1.00364 0.0487109 0
M  V30 19 O 5.09693 0.897395 -0.986873 0
M  V30 20 O 4.48569 0.466456 1.3938 0
M  V30 21 N 3.75335 2.71241 0.365447 0
M  V30 22 H -6.42594 0.0921899 -0.668102 0
M  V30 23 H -6.25654 0.0832149 1.10712 0
M  V30 24 H -4.34641 -0.919251 -1.74407 0
M  V30 25 H -1.86084 -0.826915 -2.00768 0
M  V30 26 H -1.64666 1.41488 1.58569 0
M  V30 27 H -4.11481 1.30973 1.82564 0
M  V30 28 H 0.194303 1.36052 0.179133 0
M  V30 29 H 0.325334 -0.553245 -2.21824 0
M  V30 30 H -0.120082 1.20449 -2.28209 0
M  V30 31 H 2.37676 0.491849 -2.57285 0
M  V30 32 H 1.96678 1.9466 -1.61702 0
M  V30 33 H -1.14247 -1.69084 1.15898 0
M  V30 34 H 0.202704 -3.46888 2.23531 0
M  V30 35 H 2.64409 -3.47564 2.05508 0
M  V30 36 H 3.8141 -1.65035 0.74986 0
M  V30 37 H 3.4327 3.08793 -0.570872 0
M  V30 38 H 4.63416 3.19561 0.598318 0
M  V30 END ATOM
M  V30 BEGIN BOND
M  V30 1 1 1 2
M  V30 2 2 2 3
M  V30 3 1 3 4
M  V30 4 2 4 5
M  V30 5 1 5 6
M  V30 6 2 6 7
M  V30 7 1 5 8
M  V30 8 1 8 9
M  V30 9 1 9 10
M  V30 10 1 10 11
M  V30 11 1 11 12
M  V30 12 2 12 13
M  V30 13 1 13 14
M  V30 14 2 14 15
M  V30 15 1 15 16
M  V30 16 2 16 17
M  V30 17 1 11 18
M  V30 18 2 18 19
M  V30 19 2 18 20
M  V30 20 1 18 21
M  V30 21 1 7 2
M  V30 22 1 13 8
M  V30 23 1 17 12
M  V30 24 1 1 22
M  V30 25 1 1 23
M  V30 26 1 3 24
M  V30 27 1 4 25
M  V30 28 1 6 26
M  V30 29 1 7 27
M  V30 30 1 8 28 CFG=1
M  V30 31 1 9 29
M  V30 32 1 9 30
M  V30 33 1 10 31
M  V30 34 1 10 32
M  V30 35 1 14 33
M  V30 36 1 15 34
M  V30 37 1 16 35
M  V30 38 1 17 36
M  V30 39 1 21 37
M  V30 40 1 21 38
M  V30 END BOND
M  V30 END CTAB
M  END
