
     RDKit          3D

  0  0  0  0  0  0  0  0  0  0999 V3000
M  V30 BEGIN CTAB
M  V30 COUNTS 25 25 0 0 0
M  V30 BEGIN ATOM
M  V30 1 F 1.37912 -0.731554 -2.41915 0
M  V30 2 C 0.504214 -0.47582 -1.4191 0
M  V30 3 C -0.822593 -0.544152 -1.78077 0
M  V30 4 C -1.80909 -0.306432 -0.830209 0
M  V30 5 N -3.17877 -0.374467 -1.19467 0
M  V30 6 C -1.43812 -0.00474371 0.461743 0
M  V30 7 C -0.0826585 0.0553291 0.794285 0
M  V30 8 C 0.912809 -0.175635 -0.126947 0
M  V30 9 C 2.34891 -0.122011 0.113925 0 CFG=2
M  V30 10 C 2.81493 -0.0593007 1.52824 0
M  V30 11 F 2.41643 0.995715 2.27016 0
M  V30 12 F 2.60247 -1.29044 2.16146 0
M  V30 13 F 4.22057 0.0256698 1.44421 0
M  V30 14 N 2.9612 0.974032 -0.656863 0
M  V30 15 C -2.47765 0.24067 1.4295 0
M  V30 16 O -2.19061 0.518609 2.60755 0
M  V30 17 O -3.82188 0.173079 1.08688 0
M  V30 18 H -1.1371 -0.779399 -2.79608 0
M  V30 19 H -3.70612 -1.2557 -1.01006 0
M  V30 20 H -3.65827 0.427978 -1.63625 0
M  V30 21 H 0.151778 0.28904 1.80655 0
M  V30 22 H 2.81308 -1.047 -0.316018 0
M  V30 23 H 3.19074 0.723147 -1.62637 0
M  V30 24 H 2.38935 1.8436 -0.609943 0
M  V30 25 H -4.38273 0.899794 0.717918 0
M  V30 END ATOM
M  V30 BEGIN BOND
M  V30 1 1 1 2
M  V30 2 2 2 3
M  V30 3 1 3 4
M  V30 4 1 4 5
M  V30 5 2 4 6
M  V30 6 1 6 7
M  V30 7 2 7 8
M  V30 8 1 8 9
M  V30 9 1 9 10
M  V30 10 1 10 11
M  V30 11 1 10 12
M  V30 12 1 10 13
M  V30 13 1 9 14
M  V30 14 1 6 15
M  V30 15 2 15 16
M  V30 16 1 15 17
M  V30 17 1 8 2
M  V30 18 1 3 18
M  V30 19 1 5 19
M  V30 20 1 5 20
M  V30 21 1 7 21
M  V30 22 1 9 22 CFG=3
M  V30 23 1 14 23
M  V30 24 1 14 24
M  V30 25 1 17 25
M  V30 END BOND
M  V30 END CTAB
M  END
