
     RDKit          3D

  0  0  0  0  0  0  0  0  0  0999 V3000
M  V30 BEGIN CTAB
M  V30 COUNTS 21 22 0 0 0
M  V30 BEGIN ATOM
M  V30 1 I 4.32409 1.76164 0.817161 0
M  V30 2 C 2.74469 0.46849 0.279444 0
M  V30 3 C 2.9984 -0.822639 -0.182741 0
M  V30 4 C 1.94517 -1.6336 -0.5225 0
M  V30 5 C 0.664073 -1.16487 -0.403208 0
M  V30 6 C 0.392868 0.128175 0.0589638 0
M  V30 7 C 1.45445 0.941117 0.399788 0
M  V30 8 C -0.902773 0.588063 0.174428 0
M  V30 9 N -1.14754 1.90689 0.647111 0
M  V30 10 C -1.93134 -0.25818 -0.177237 0
M  V30 11 C -1.65759 -1.53757 -0.634306 0
M  V30 12 N -0.372799 -1.95271 -0.733839 0
M  V30 13 N -3.29294 0.156729 -0.080919 0
M  V30 14 H 4.0133 -1.15209 -0.261928 0
M  V30 15 H 2.12409 -2.62802 -0.879146 0
M  V30 16 H 1.24267 1.93128 0.753542 0
M  V30 17 H -1.33774 2.7206 0.0547485 0
M  V30 18 H -1.13192 2.05702 1.68222 0
M  V30 19 H -2.49345 -2.17651 -0.902253 0
M  V30 20 H -4.07956 -0.519041 0.0242556 0
M  V30 21 H -3.55614 1.18522 -0.113585 0
M  V30 END ATOM
M  V30 BEGIN BOND
M  V30 1 1 1 2
M  V30 2 2 2 3
M  V30 3 1 3 4
M  V30 4 2 4 5
M  V30 5 1 5 6
M  V30 6 2 6 7
M  V30 7 1 6 8
M  V30 8 1 8 9
M  V30 9 2 8 10
M  V30 10 1 10 11
M  V30 11 2 11 12
M  V30 12 1 10 13
M  V30 13 1 7 2
M  V30 14 1 12 5
M  V30 15 1 3 14
M  V30 16 1 4 15
M  V30 17 1 7 16
M  V30 18 1 9 17
M  V30 19 1 9 18
M  V30 20 1 11 19
M  V30 21 1 13 20
M  V30 22 1 13 21
M  V30 END BOND
M  V30 END CTAB
M  END
