
     RDKit          3D

  0  0  0  0  0  0  0  0  0  0999 V3000
M  V30 BEGIN CTAB
M  V30 COUNTS 38 38 0 0 0
M  V30 BEGIN ATOM
M  V30 1 N -3.44495 2.2439 -0.729592 0
M  V30 2 C -2.06907 1.91258 -0.481479 0
M  V30 3 C -1.80417 0.417968 -0.449967 0
M  V30 4 C -2.61458 -0.218552 0.636334 0
M  V30 5 C -4.08568 -0.0790607 0.528324 0
M  V30 6 C -2.26764 -1.69931 0.775172 0
M  V30 7 N -0.411844 0.139303 -0.247615 0
M  V30 8 C 0.624675 0.534216 -1.13119 0
M  V30 9 O 0.354389 1.17973 -2.19196 0
M  V30 10 C 2.02635 0.228571 -0.877551 0
M  V30 11 C 3.08904 0.572467 -1.67818 0
M  V30 12 C 4.23429 0.0938963 -1.07623 0
M  V30 13 C 3.80997 -0.530089 0.0829251 0
M  V30 14 O 2.52044 -0.422087 0.148347 0
M  V30 15 S 4.89197 -1.31162 1.2198 0
M  V30 16 O 4.50744 -2.74417 1.44084 0
M  V30 17 O 4.78494 -0.586532 2.53156 0
M  V30 18 N 6.5265 -1.19228 0.694788 0
M  V30 19 C -2.21238 -0.219028 -1.76883 0
M  V30 20 H -3.71994 3.09843 -0.157683 0
M  V30 21 H -3.64831 2.50714 -1.717 0
M  V30 22 H -1.70581 2.36053 0.492223 0
M  V30 23 H -1.47934 2.44843 -1.24997 0
M  V30 24 H -2.30434 0.292713 1.5961 0
M  V30 25 H -4.55073 -0.986815 1.02265 0
M  V30 26 H -4.52745 0.773975 1.0827 0
M  V30 27 H -4.50464 -0.091756 -0.488162 0
M  V30 28 H -2.07963 -1.9783 1.8272 0
M  V30 29 H -3.10898 -2.34437 0.408183 0
M  V30 30 H -1.38428 -1.96598 0.158747 0
M  V30 31 H -0.106392 -0.39995 0.617875 0
M  V30 32 H 3.04789 1.12736 -2.62729 0
M  V30 33 H 5.23541 0.204548 -1.4625 0
M  V30 34 H 6.60641 -0.318803 0.117173 0
M  V30 35 H 6.69899 -1.98163 0.0364904 0
M  V30 36 H -3.03249 -0.946642 -1.61124 0
M  V30 37 H -2.54769 0.584307 -2.48707 0
M  V30 38 H -1.34835 -0.703084 -2.26275 0
M  V30 END ATOM
M  V30 BEGIN BOND
M  V30 1 1 1 2
M  V30 2 1 2 3
M  V30 3 1 3 4
M  V30 4 1 4 5
M  V30 5 1 4 6
M  V30 6 1 3 7
M  V30 7 1 7 8
M  V30 8 2 8 9
M  V30 9 1 8 10
M  V30 10 2 10 11
M  V30 11 1 11 12
M  V30 12 2 12 13
M  V30 13 1 13 14
M  V30 14 1 13 15
M  V30 15 2 15 16
M  V30 16 2 15 17
M  V30 17 1 15 18
M  V30 18 1 3 19
M  V30 19 1 14 10
M  V30 20 1 1 20
M  V30 21 1 1 21
M  V30 22 1 2 22
M  V30 23 1 2 23
M  V30 24 1 4 24
M  V30 25 1 5 25
M  V30 26 1 5 26
M  V30 27 1 5 27
M  V30 28 1 6 28
M  V30 29 1 6 29
M  V30 30 1 6 30
M  V30 31 1 7 31
M  V30 32 1 11 32
M  V30 33 1 12 33
M  V30 34 1 18 34
M  V30 35 1 18 35
M  V30 36 1 19 36
M  V30 37 1 19 37
M  V30 38 1 19 38
M  V30 END BOND
M  V30 END CTAB
M  END
