
     RDKit          3D

  0  0  0  0  0  0  0  0  0  0999 V3000
M  V30 BEGIN CTAB
M  V30 COUNTS 16 16 0 0 0
M  V30 BEGIN ATOM
M  V30 1 N -2.16045 0.488194 0.231536 0
M  V30 2 C -0.74694 0.43148 0.0796571 0
M  V30 3 C 0.0215716 1.5727 -0.0115473 0
M  V30 4 C 1.39152 1.53189 -0.158854 0
M  V30 5 Cl 2.37715 2.9763 -0.275675 0
M  V30 6 C 1.99114 0.277498 -0.214227 0
M  V30 7 C 1.21211 -0.866662 -0.121869 0
M  V30 8 C -0.159462 -0.824526 0.0256013 0
M  V30 9 N -0.918902 -2.01828 0.116234 0
M  V30 10 Cl 2.00161 -2.42791 -0.195454 0
M  V30 11 F 3.32235 0.233845 -0.357324 0
M  V30 12 H -2.58085 1.05222 0.975855 0
M  V30 13 H -2.81892 -0.0333138 -0.397845 0
M  V30 14 H -0.462917 2.53221 0.0335741 0
M  V30 15 H -1.87032 -2.03083 -0.309641 0
M  V30 16 H -0.598695 -2.89482 0.579979 0
M  V30 END ATOM
M  V30 BEGIN BOND
M  V30 1 1 1 2
M  V30 2 2 2 3
M  V30 3 1 3 4
M  V30 4 1 4 5
M  V30 5 2 4 6
M  V30 6 1 6 7
M  V30 7 2 7 8
M  V30 8 1 8 9
M  V30 9 1 7 10
M  V30 10 1 6 11
M  V30 11 1 8 2
M  V30 12 1 1 12
M  V30 13 1 1 13
M  V30 14 1 3 14
M  V30 15 1 9 15
M  V30 16 1 9 16
M  V30 END BOND
M  V30 END CTAB
M  END
