
     RDKit          3D

  0  0  0  0  0  0  0  0  0  0999 V3000
M  V30 BEGIN CTAB
M  V30 COUNTS 20 21 0 0 0
M  V30 BEGIN ATOM
M  V30 1 N 3.94265 0.637708 -0.361399 0
M  V30 2 C 2.52508 0.520778 -0.216528 0
M  V30 3 N 2.00945 -0.717626 -0.031741 0
M  V30 4 C 0.674311 -0.864091 0.108727 0
M  V30 5 N 0.129873 -2.15319 0.301825 0
M  V30 6 C -0.161868 0.232413 0.065451 0
M  V30 7 C 0.359284 1.47925 -0.120783 0
M  V30 8 N 1.7044 1.56617 -0.2556 0
M  V30 9 O -0.627691 2.33653 -0.123597 0
M  V30 10 C -1.7891 1.76044 0.0481516 0
M  V30 11 C -1.53397 0.412494 0.173286 0
M  V30 12 C -2.5132 -0.629082 0.379475 0
M  V30 13 O -2.84191 -0.966608 1.52902 0
M  V30 14 O -3.07909 -1.24458 -0.710459 0
M  V30 15 Br -3.513 2.6157 0.114177 0
M  V30 16 H 4.47845 1.31968 0.213538 0
M  V30 17 H 4.47333 0.0553636 -1.0338 0
M  V30 18 H 0.177514 -2.88143 -0.43274 0
M  V30 19 H -0.32756 -2.37405 1.19981 0
M  V30 20 H -4.08695 -1.10587 -0.846807 0
M  V30 END ATOM
M  V30 BEGIN BOND
M  V30 1 1 1 2
M  V30 2 2 2 3
M  V30 3 1 3 4
M  V30 4 1 4 5
M  V30 5 2 4 6
M  V30 6 1 6 7
M  V30 7 2 7 8
M  V30 8 1 7 9
M  V30 9 1 9 10
M  V30 10 2 10 11
M  V30 11 1 11 12
M  V30 12 2 12 13
M  V30 13 1 12 14
M  V30 14 1 10 15
M  V30 15 1 8 2
M  V30 16 1 11 6
M  V30 17 1 1 16
M  V30 18 1 1 17
M  V30 19 1 5 18
M  V30 20 1 5 19
M  V30 21 1 14 20
M  V30 END BOND
M  V30 END CTAB
M  END
