
     RDKit          3D

  0  0  0  0  0  0  0  0  0  0999 V3000
M  V30 BEGIN CTAB
M  V30 COUNTS 24 24 0 0 0
M  V30 BEGIN ATOM
M  V30 1 C -3.84218 -0.0528915 -0.310324 0
M  V30 2 N -2.82063 0.955673 -0.436381 0
M  V30 3 C -1.42294 0.647595 -0.325298 0
M  V30 4 C -0.483572 1.65217 -0.449032 0
M  V30 5 C 0.846637 1.29117 -0.332594 0
M  V30 6 C 1.24716 -0.00823548 -0.102825 0
M  V30 7 C 0.316023 -1.01847 0.0221864 0
M  V30 8 C -1.01104 -0.657522 -0.0941123 0
M  V30 9 N 0.700774 -2.37739 0.260978 0
M  V30 10 S 2.94763 -0.413334 0.0367983 0
M  V30 11 O 3.31418 -1.40672 -1.01523 0
M  V30 12 O 3.16265 -0.976048 1.41005 0
M  V30 13 N 3.9351 0.965441 -0.146136 0
M  V30 14 H -4.81968 0.385014 0.0055185 0
M  V30 15 H -3.57314 -0.770323 0.489051 0
M  V30 16 H -4.02221 -0.589057 -1.25978 0
M  V30 17 H -3.11224 1.92305 -0.611267 0
M  V30 18 H -0.80142 2.67079 -0.629312 0
M  V30 19 H 1.59581 2.07067 -0.427739 0
M  V30 20 H -1.72581 -1.48163 0.00957194 0
M  V30 21 H 1.11305 -2.99063 -0.461549 0
M  V30 22 H 0.572648 -2.81752 1.21765 0
M  V30 23 H 4.30635 1.32604 0.74047 0
M  V30 24 H 3.57684 1.67217 -0.795937 0
M  V30 END ATOM
M  V30 BEGIN BOND
M  V30 1 1 1 2
M  V30 2 1 2 3
M  V30 3 2 3 4
M  V30 4 1 4 5
M  V30 5 2 5 6
M  V30 6 1 6 7
M  V30 7 2 7 8
M  V30 8 1 7 9
M  V30 9 1 6 10
M  V30 10 2 10 11
M  V30 11 2 10 12
M  V30 12 1 10 13
M  V30 13 1 8 3
M  V30 14 1 1 14
M  V30 15 1 1 15
M  V30 16 1 1 16
M  V30 17 1 2 17
M  V30 18 1 4 18
M  V30 19 1 5 19
M  V30 20 1 8 20
M  V30 21 1 9 21
M  V30 22 1 9 22
M  V30 23 1 13 23
M  V30 24 1 13 24
M  V30 END BOND
M  V30 END CTAB
M  END
