
     RDKit          3D

  0  0  0  0  0  0  0  0  0  0999 V3000
M  V30 BEGIN CTAB
M  V30 COUNTS 22 22 0 0 0
M  V30 BEGIN ATOM
M  V30 1 N -2.76127 -1.27794 0.240965 0
M  V30 2 C -1.74816 -0.650673 -0.520231 0 CFG=1
M  V30 3 O -1.98169 0.693284 -0.739656 0
M  V30 4 C -1.22581 1.51422 0.0814257 0
M  V30 5 C 0.26136 1.36613 -0.164366 0
M  V30 6 N 0.566135 -0.00702719 -0.505422 0
M  V30 7 C -0.440147 -0.831299 0.173726 0
M  V30 8 S 2.0954 -0.503637 0.111761 0
M  V30 9 O 2.28232 -1.95177 -0.304406 0
M  V30 10 O 2.02969 -0.451052 1.59774 0
M  V30 11 N 3.39801 0.39947 -0.507931 0
M  V30 12 H -3.67826 -0.967391 0.217364 0
M  V30 13 H -2.4905 -2.16801 0.577262 0
M  V30 14 H -1.67886 -1.17029 -1.50727 0
M  V30 15 H -1.51864 2.5705 -0.18752 0
M  V30 16 H -1.45148 1.39081 1.15203 0
M  V30 17 H 0.527251 2.06152 -1.00877 0
M  V30 18 H 0.83729 1.69414 0.707215 0
M  V30 19 H -0.491501 -0.472322 1.22131 0
M  V30 20 H -0.0527784 -1.85967 0.159372 0
M  V30 21 H 4.26358 -0.179341 -0.45581 0
M  V30 22 H 3.25805 0.800338 -1.44132 0
M  V30 END ATOM
M  V30 BEGIN BOND
M  V30 1 1 1 2
M  V30 2 1 2 3
M  V30 3 1 3 4
M  V30 4 1 4 5
M  V30 5 1 5 6
M  V30 6 1 6 7
M  V30 7 1 6 8
M  V30 8 2 8 9
M  V30 9 2 8 10
M  V30 10 1 8 11
M  V30 11 1 7 2
M  V30 12 1 1 12
M  V30 13 1 1 13
M  V30 14 1 2 14 CFG=3
M  V30 15 1 4 15
M  V30 16 1 4 16
M  V30 17 1 5 17
M  V30 18 1 5 18
M  V30 19 1 7 19
M  V30 20 1 7 20
M  V30 21 1 11 21
M  V30 22 1 11 22
M  V30 END BOND
M  V30 END CTAB
M  END
