
     RDKit          3D

  0  0  0  0  0  0  0  0  0  0999 V3000
M  V30 BEGIN CTAB
M  V30 COUNTS 31 33 0 0 0
M  V30 BEGIN ATOM
M  V30 1 N -5.25736 -0.539118 1.3484 0
M  V30 2 C -4.14159 -0.0212364 0.641052 0
M  V30 3 C -3.4861 1.07674 1.14956 0
M  V30 4 C -2.40908 1.55238 0.438568 0
M  V30 5 C -2.00795 0.95297 -0.73028 0
M  V30 6 C -2.67447 -0.144698 -1.22547 0
M  V30 7 C -3.76497 -0.63402 -0.514579 0
M  V30 8 C -0.854946 1.48762 -1.4618 0
M  V30 9 C 0.413086 0.830382 -0.9944 0
M  V30 10 O 0.947114 -0.259592 -1.48996 0
M  V30 11 C 2.06554 -0.567502 -0.846286 0
M  V30 12 C 2.26362 0.388473 0.128148 0
M  V30 13 N 1.22244 1.23144 0.0026287 0
M  V30 14 C 3.36908 0.315041 0.960974 0
M  V30 15 C 4.30994 -0.691891 0.865623 0
M  V30 16 C 4.08457 -1.64416 -0.127753 0
M  V30 17 C 2.99012 -1.58034 -0.959843 0
M  V30 18 N 5.43981 -0.762506 1.72065 0
M  V30 19 H -5.13384 -1.21581 2.14627 0
M  V30 20 H -6.2124 -0.214397 1.03711 0
M  V30 21 H -3.80302 1.54735 2.06958 0
M  V30 22 H -1.86368 2.40365 0.789124 0
M  V30 23 H -2.39048 -0.644558 -2.14087 0
M  V30 24 H -4.29985 -1.50792 -0.903853 0
M  V30 25 H -0.740466 2.60112 -1.32206 0
M  V30 26 H -0.976646 1.36033 -2.56968 0
M  V30 27 H 3.47095 1.0929 1.70583 0
M  V30 28 H 4.82643 -2.43415 -0.199562 0
M  V30 29 H 2.88452 -2.35438 -1.70446 0
M  V30 30 H 5.81132 -1.69628 1.97209 0
M  V30 31 H 5.9183 0.0721565 2.11095 0
M  V30 END ATOM
M  V30 BEGIN BOND
M  V30 1 1 1 2
M  V30 2 2 2 3
M  V30 3 1 3 4
M  V30 4 2 4 5
M  V30 5 1 5 6
M  V30 6 2 6 7
M  V30 7 1 5 8
M  V30 8 1 8 9
M  V30 9 1 9 10
M  V30 10 1 10 11
M  V30 11 2 11 12
M  V30 12 1 12 13
M  V30 13 1 12 14
M  V30 14 2 14 15
M  V30 15 1 15 16
M  V30 16 2 16 17
M  V30 17 1 15 18
M  V30 18 1 7 2
M  V30 19 2 13 9
M  V30 20 1 17 11
M  V30 21 1 1 19
M  V30 22 1 1 20
M  V30 23 1 3 21
M  V30 24 1 4 22
M  V30 25 1 6 23
M  V30 26 1 7 24
M  V30 27 1 8 25
M  V30 28 1 8 26
M  V30 29 1 14 27
M  V30 30 1 16 28
M  V30 31 1 17 29
M  V30 32 1 18 30
M  V30 33 1 18 31
M  V30 END BOND
M  V30 END CTAB
M  END
