
     RDKit          3D

  0  0  0  0  0  0  0  0  0  0999 V3000
M  V30 BEGIN CTAB
M  V30 COUNTS 39 39 0 0 0
M  V30 BEGIN ATOM
M  V30 1 N -5.42585 -0.263892 -2.44599 0
M  V30 2 C -5.49442 -0.0814938 -1.01338 0
M  V30 3 C -4.33382 0.850293 -0.6419 0
M  V30 4 S -4.41151 1.09488 1.13141 0
M  V30 5 C -4.05985 -0.413146 2.03669 0
M  V30 6 C -2.63241 -0.780235 1.87861 0
M  V30 7 O -2.258 -1.87796 2.37702 0
M  V30 8 N -1.76733 0.0904348 1.19402 0
M  V30 9 C -0.374714 -0.328182 1.06602 0
M  V30 10 C 0.38218 0.703323 0.292229 0
M  V30 11 C 1.81057 0.362335 0.112167 0
M  V30 12 C 2.78907 0.784157 0.986678 0
M  V30 13 C 4.13239 0.466245 0.843126 0
M  V30 14 C 4.52954 -0.306873 -0.216797 0
M  V30 15 C 3.57708 -0.761927 -1.13523 0
M  V30 16 C 2.25015 -0.421846 -0.954653 0
M  V30 17 S 6.2298 -0.705794 -0.390057 0
M  V30 18 O 6.39691 -2.11016 -0.939458 0
M  V30 19 O 6.86221 -0.627762 0.993891 0
M  V30 20 N 7.03814 0.462103 -1.36415 0
M  V30 21 H -6.17257 -0.912345 -2.79411 0
M  V30 22 H -5.59728 0.699062 -2.86772 0
M  V30 23 H -6.45368 0.398162 -0.743628 0
M  V30 24 H -5.31903 -1.0169 -0.453497 0
M  V30 25 H -3.40368 0.388172 -0.998344 0
M  V30 26 H -4.44147 1.82973 -1.15093 0
M  V30 27 H -4.69867 -1.26213 1.69477 0
M  V30 28 H -4.22567 -0.2172 3.12249 0
M  V30 29 H -2.05476 0.988908 0.800303 0
M  V30 30 H -0.372378 -1.32451 0.64167 0
M  V30 31 H 0.0397482 -0.402852 2.11218 0
M  V30 32 H 0.37225 1.64146 0.923026 0
M  V30 33 H -0.134243 0.979284 -0.649861 0
M  V30 34 H 2.51637 1.40481 1.84763 0
M  V30 35 H 4.87887 0.82028 1.55675 0
M  V30 36 H 3.89115 -1.36191 -1.95717 0
M  V30 37 H 1.54407 -0.781367 -1.66736 0
M  V30 38 H 6.41136 1.28044 -1.51352 0
M  V30 39 H 7.97947 0.714423 -1.04627 0
M  V30 END ATOM
M  V30 BEGIN BOND
M  V30 1 1 1 2
M  V30 2 1 2 3
M  V30 3 1 3 4
M  V30 4 1 4 5
M  V30 5 1 5 6
M  V30 6 2 6 7
M  V30 7 1 6 8
M  V30 8 1 8 9
M  V30 9 1 9 10
M  V30 10 1 10 11
M  V30 11 2 11 12
M  V30 12 1 12 13
M  V30 13 2 13 14
M  V30 14 1 14 15
M  V30 15 2 15 16
M  V30 16 1 14 17
M  V30 17 2 17 18
M  V30 18 2 17 19
M  V30 19 1 17 20
M  V30 20 1 16 11
M  V30 21 1 1 21
M  V30 22 1 1 22
M  V30 23 1 2 23
M  V30 24 1 2 24
M  V30 25 1 3 25
M  V30 26 1 3 26
M  V30 27 1 5 27
M  V30 28 1 5 28
M  V30 29 1 8 29
M  V30 30 1 9 30
M  V30 31 1 9 31
M  V30 32 1 10 32
M  V30 33 1 10 33
M  V30 34 1 12 34
M  V30 35 1 13 35
M  V30 36 1 15 36
M  V30 37 1 16 37
M  V30 38 1 20 38
M  V30 39 1 20 39
M  V30 END BOND
M  V30 END CTAB
M  END
