
     RDKit          3D

  0  0  0  0  0  0  0  0  0  0999 V3000
M  V30 BEGIN CTAB
M  V30 COUNTS 46 49 0 0 0
M  V30 BEGIN ATOM
M  V30 1 N -1.62844 8.12445 0.888413 0
M  V30 2 C -1.0235 7.14902 0.752153 0
M  V30 3 N -0.306474 5.96284 0.601245 0
M  V30 4 C -0.923155 4.83731 0.463831 0
M  V30 5 C -0.148503 3.59547 0.305737 0
M  V30 6 S 1.53634 3.44962 0.279946 0
M  V30 7 C 1.66287 1.75035 0.0676826 0
M  V30 8 C 0.359 1.34445 0.0219121 0
M  V30 9 C -0.587772 2.31504 0.148279 0
M  V30 10 N -2.03265 2.09218 0.157567 0
M  V30 11 C 0.17314 -0.0428169 -0.138849 0
M  V30 12 C 1.30101 -0.859351 -0.231366 0
M  V30 13 C 2.59312 -0.420498 -0.180444 0
M  V30 14 N 2.74204 0.905436 -0.0291018 0
M  V30 15 C 3.76541 -1.26541 -0.275995 0
M  V30 16 C 5.02609 -0.681184 -0.208515 0
M  V30 17 C 6.17536 -1.43423 -0.293573 0
M  V30 18 C 6.10553 -2.79182 -0.448399 0
M  V30 19 C 4.87229 -3.40819 -0.519526 0
M  V30 20 C 3.73097 -2.62331 -0.430834 0
M  V30 21 C -1.12109 -0.694579 -0.276159 0
M  V30 22 C -1.4931 -1.58362 0.726027 0
M  V30 23 C -2.66513 -2.3095 0.697102 0
M  V30 24 C -3.51468 -2.14999 -0.37669 0
M  V30 25 C -3.14844 -1.26621 -1.3766 0
M  V30 26 C -1.97794 -0.54873 -1.33644 0
M  V30 27 O -4.69007 -2.87341 -0.412493 0
M  V30 28 C -5.01992 -3.759 0.625719 0
M  V30 29 N -2.32238 4.79276 0.464498 0
M  V30 30 H -2.5934 2.46212 -0.641293 0
M  V30 31 H -2.44179 1.57614 0.956548 0
M  V30 32 H 1.16621 -1.94636 -0.355507 0
M  V30 33 H 5.0794 0.392123 -0.0861081 0
M  V30 34 H 7.12179 -0.937843 -0.236325 0
M  V30 35 H 7.0124 -3.40027 -0.517144 0
M  V30 36 H 4.81843 -4.47185 -0.640827 0
M  V30 37 H 2.78724 -3.13702 -0.490058 0
M  V30 38 H -0.826532 -1.72224 1.58922 0
M  V30 39 H -2.91038 -2.99182 1.50553 0
M  V30 40 H -3.85619 -1.16728 -2.21903 0
M  V30 41 H -1.71314 0.135693 -2.13625 0
M  V30 42 H -4.92255 -3.30304 1.63886 0
M  V30 43 H -4.38661 -4.66725 0.581761 0
M  V30 44 H -6.10276 -3.99867 0.51418 0
M  V30 45 H -2.81555 5.04904 -0.430442 0
M  V30 46 H -2.85647 4.52144 1.30175 0
M  V30 END ATOM
M  V30 BEGIN BOND
M  V30 1 3 1 2
M  V30 2 1 2 3
M  V30 3 2 3 4
M  V30 4 1 4 5
M  V30 5 1 5 6
M  V30 6 1 6 7
M  V30 7 2 7 8
M  V30 8 1 8 9
M  V30 9 1 9 10
M  V30 10 1 8 11
M  V30 11 2 11 12
M  V30 12 1 12 13
M  V30 13 2 13 14
M  V30 14 1 13 15
M  V30 15 2 15 16
M  V30 16 1 16 17
M  V30 17 2 17 18
M  V30 18 1 18 19
M  V30 19 2 19 20
M  V30 20 1 11 21
M  V30 21 2 21 22
M  V30 22 1 22 23
M  V30 23 2 23 24
M  V30 24 1 24 25
M  V30 25 2 25 26
M  V30 26 1 24 27
M  V30 27 1 27 28
M  V30 28 1 4 29
M  V30 29 2 9 5
M  V30 30 1 20 15
M  V30 31 1 26 21
M  V30 32 1 14 7
M  V30 33 1 10 30
M  V30 34 1 10 31
M  V30 35 1 12 32
M  V30 36 1 16 33
M  V30 37 1 17 34
M  V30 38 1 18 35
M  V30 39 1 19 36
M  V30 40 1 20 37
M  V30 41 1 22 38
M  V30 42 1 23 39
M  V30 43 1 25 40
M  V30 44 1 26 41
M  V30 45 1 28 42
M  V30 46 1 28 43
M  V30 47 1 28 44
M  V30 48 1 29 45
M  V30 49 1 29 46
M  V30 END BOND
M  V30 END CTAB
M  END
