
     RDKit          3D

  0  0  0  0  0  0  0  0  0  0999 V3000
M  V30 BEGIN CTAB
M  V30 COUNTS 79 78 0 0 0
M  V30 BEGIN ATOM
M  V30 1 C 0.395019 -1.55426 -0.793171 0 CFG=2
M  V30 2 N 0.920912 -1.15688 0.46451 0
M  V30 3 C 1.15662 -2.51466 -1.59767 0
M  V30 4 C 2.51203 -2.19719 -2.05693 0
M  V30 5 C 3.56695 -1.93454 -1.02515 0
M  V30 6 C 4.90929 -1.63733 -1.71088 0
M  V30 7 N 5.89043 -1.41541 -0.696406 0
M  V30 8 C 5.6826 -0.201035 0.0484922 0
M  V30 9 C 6.80517 -0.0335771 1.06165 0
M  V30 10 C 8.15177 0.0177783 0.35431 0
M  V30 11 C 8.19821 1.16014 -0.592523 0
M  V30 12 C 9.52681 1.21291 -1.29218 0
M  V30 13 C 10.6384 1.41002 -0.300976 0
M  V30 14 C -0.0801369 -0.32857 -1.53973 0
M  V30 15 O -0.191185 -0.334659 -2.76834 0
M  V30 16 N -0.363149 0.771338 -0.703455 0
M  V30 17 C -0.625464 1.79079 0.0715611 0
M  V30 18 C -2.10836 2.23921 -0.18753 0
M  V30 19 C -3.06785 1.14278 0.0794 0
M  V30 20 N -3.13617 0.688842 1.45586 0
M  V30 21 C -3.75637 1.62739 2.3168 0
M  V30 22 C -5.2258 1.79413 2.22171 0
M  V30 23 C -6.00914 0.626115 2.67598 0
M  V30 24 C -5.84762 -0.623569 1.913 0
M  V30 25 N -6.29278 -0.468198 0.541798 0
M  V30 26 C -7.71621 -0.326867 0.534415 0
M  V30 27 C -8.29304 -0.246964 -0.862695 0
M  V30 28 C -9.79614 -0.120182 -0.717873 0
M  V30 29 N -10.0972 1.07547 0.0378322 0
M  V30 30 H -0.598004 -2.07197 -0.55093 0
M  V30 31 H 1.31404 -0.189724 0.524964 0
M  V30 32 H 1.47277 -1.88408 0.972109 0
M  V30 33 H 1.16541 -3.49129 -1.04051 0
M  V30 34 H 0.539954 -2.74243 -2.51592 0
M  V30 35 H 2.88369 -3.11838 -2.61587 0
M  V30 36 H 2.54686 -1.41258 -2.84139 0
M  V30 37 H 3.77885 -2.7895 -0.368505 0
M  V30 38 H 3.29909 -0.996492 -0.513076 0
M  V30 39 H 5.16756 -2.58786 -2.24855 0
M  V30 40 H 4.81831 -0.789263 -2.42153 0
M  V30 41 H 5.81897 -2.21201 0.00192408 0
M  V30 42 H 4.74347 -0.257593 0.683919 0
M  V30 43 H 5.63383 0.652415 -0.643687 0
M  V30 44 H 6.84726 -0.936352 1.73545 0
M  V30 45 H 6.65012 0.838646 1.71649 0
M  V30 46 H 8.91216 0.129228 1.14455 0
M  V30 47 H 8.27615 -0.973669 -0.136914 0
M  V30 48 H 7.95024 2.09944 -0.0669614 0
M  V30 49 H 7.43068 1.06436 -1.41677 0
M  V30 50 H 9.47729 2.03615 -2.03679 0
M  V30 51 H 9.6388 0.216368 -1.81225 0
M  V30 52 H 11.084 2.42105 -0.523852 0
M  V30 53 H 11.4596 0.679446 -0.456412 0
M  V30 54 H 10.28 1.48785 0.73563 0
M  V30 55 H -0.551103 1.56866 -1.83072 0
M  V30 56 H 0.0110074 2.71623 -0.00570301 0
M  V30 57 H -0.651029 1.63403 1.20495 0
M  V30 58 H -2.32221 3.18905 0.297208 0
M  V30 59 H -2.08947 2.42055 -1.29951 0
M  V30 60 H -2.80195 0.263608 -0.526616 0
M  V30 61 H -4.06439 1.46955 -0.313362 0
M  V30 62 H -2.18034 0.477628 1.78027 0
M  V30 63 H -3.31198 2.65589 2.23595 0
M  V30 64 H -3.45723 1.32382 3.37377 0
M  V30 65 H -5.52005 2.09865 1.1648 0
M  V30 66 H -5.57638 2.70509 2.82062 0
M  V30 67 H -5.71473 0.369086 3.76813 0
M  V30 68 H -7.10648 0.903933 2.79975 0
M  V30 69 H -6.49779 -1.45727 2.38438 0
M  V30 70 H -4.8107 -0.987071 1.92449 0
M  V30 71 H -5.92235 -1.18043 -0.108537 0
M  V30 72 H -7.94656 0.653699 1.01583 0
M  V30 73 H -8.16654 -1.1837 1.04992 0
M  V30 74 H -8.01491 -1.18213 -1.37771 0
M  V30 75 H -7.89135 0.621945 -1.39543 0
M  V30 76 H -10.3246 -0.0540447 -1.69275 0
M  V30 77 H -10.1291 -1.03086 -0.153865 0
M  V30 78 H -10.9644 1.5322 -0.374164 0
M  V30 79 H -10.334 0.869125 1.02133 0
M  V30 END ATOM
M  V30 BEGIN BOND
M  V30 1 1 1 2
M  V30 2 1 1 3
M  V30 3 1 3 4
M  V30 4 1 4 5
M  V30 5 1 5 6
M  V30 6 1 6 7
M  V30 7 1 7 8
M  V30 8 1 8 9
M  V30 9 1 9 10
M  V30 10 1 10 11
M  V30 11 1 11 12
M  V30 12 1 12 13
M  V30 13 1 1 14
M  V30 14 2 14 15
M  V30 15 1 14 16
M  V30 16 1 16 17
M  V30 17 1 17 18
M  V30 18 1 18 19
M  V30 19 1 19 20
M  V30 20 1 20 21
M  V30 21 1 21 22
M  V30 22 1 22 23
M  V30 23 1 23 24
M  V30 24 1 24 25
M  V30 25 1 25 26
M  V30 26 1 26 27
M  V30 27 1 27 28
M  V30 28 1 28 29
M  V30 29 1 1 30 CFG=1
M  V30 30 1 2 31
M  V30 31 1 2 32
M  V30 32 1 3 33
M  V30 33 1 3 34
M  V30 34 1 4 35
M  V30 35 1 4 36
M  V30 36 1 5 37
M  V30 37 1 5 38
M  V30 38 1 6 39
M  V30 39 1 6 40
M  V30 40 1 7 41
M  V30 41 1 8 42
M  V30 42 1 8 43
M  V30 43 1 9 44
M  V30 44 1 9 45
M  V30 45 1 10 46
M  V30 46 1 10 47
M  V30 47 1 11 48
M  V30 48 1 11 49
M  V30 49 1 12 50
M  V30 50 1 12 51
M  V30 51 1 13 52
M  V30 52 1 13 53
M  V30 53 1 13 54
M  V30 54 1 16 55
M  V30 55 1 17 56
M  V30 56 1 17 57
M  V30 57 1 18 58
M  V30 58 1 18 59
M  V30 59 1 19 60
M  V30 60 1 19 61
M  V30 61 1 20 62
M  V30 62 1 21 63
M  V30 63 1 21 64
M  V30 64 1 22 65
M  V30 65 1 22 66
M  V30 66 1 23 67
M  V30 67 1 23 68
M  V30 68 1 24 69
M  V30 69 1 24 70
M  V30 70 1 25 71
M  V30 71 1 26 72
M  V30 72 1 26 73
M  V30 73 1 27 74
M  V30 74 1 27 75
M  V30 75 1 28 76
M  V30 76 1 28 77
M  V30 77 1 29 78
M  V30 78 1 29 79
M  V30 END BOND
M  V30 END CTAB
M  END
