
     RDKit          3D

  0  0  0  0  0  0  0  0  0  0999 V3000
M  V30 BEGIN CTAB
M  V30 COUNTS 56 57 0 0 0
M  V30 BEGIN ATOM
M  V30 1 C 0.565919 -1.9077 3.85149 0
M  V30 2 C 0.906471 -0.86531 2.91611 0
M  V30 3 O 1.48971 0.190921 3.43742 0
M  V30 4 O 0.760752 -0.703581 1.6461 0
M  V30 5 C 0.750506 -0.23629 0.448396 0
M  V30 6 C -0.555435 -0.3389 -0.364786 0
M  V30 7 O -1.00619 -1.57319 -0.52244 0
M  V30 8 C -1.42931 -2.74888 -0.70997 0
M  V30 9 C -1.94798 -3.71205 0.295371 0
M  V30 10 O -1.34018 -3.0192 -1.97071 0
M  V30 11 C -1.67399 0.524282 0.196053 0
M  V30 12 C -2.15596 0.293515 1.47247 0
M  V30 13 C -3.31797 0.838559 1.99044 0
M  V30 14 N -3.78402 0.517736 3.30388 0
M  V30 15 C -4.04434 1.68166 1.14604 0
M  V30 16 C -3.63301 1.95427 -0.113302 0
M  V30 17 C -2.4405 1.36457 -0.579479 0
M  V30 18 O -2.04677 1.66971 -1.86523 0
M  V30 19 C -2.7351 1.36681 -3.02245 0
M  V30 20 C -2.14413 1.81582 -4.32169 0
M  V30 21 O -3.80146 0.751679 -2.91242 0
M  V30 22 C 1.9433 -0.333067 -0.472307 0
M  V30 23 C 1.77611 -0.951274 -1.6812 0
M  V30 24 C 2.80407 -1.11245 -2.58748 0
M  V30 25 N 2.64163 -1.76163 -3.85954 0
M  V30 26 C 4.04374 -0.623387 -2.25381 0
M  V30 27 C 4.21559 0.00329462 -1.02983 0
M  V30 28 C 3.15342 0.146868 -0.131873 0
M  V30 29 O 3.4905 0.827595 1.07627 0
M  V30 30 C 3.52715 2.22401 1.05518 0
M  V30 31 C 3.8561 3.06935 2.22358 0
M  V30 32 O 3.25117 2.80878 -0.0420929 0
M  V30 33 H -0.134928 -1.46699 4.68729 0
M  V30 34 H 1.42296 -2.28154 4.49382 0
M  V30 35 H -0.0777453 -2.73808 3.46252 0
M  V30 36 H 0.933743 0.939239 0.647135 0
M  V30 37 H -0.337595 0.0686549 -1.31287 0
M  V30 38 H -2.87903 -3.27236 0.729342 0
M  V30 39 H -1.22487 -3.96968 1.12053 0
M  V30 40 H -2.25896 -4.6167 -0.243371 0
M  V30 41 H -1.60973 -0.379905 2.08007 0
M  V30 42 H -3.19361 0.769925 4.14031 0
M  V30 43 H -4.70884 0.0243608 3.40178 0
M  V30 44 H -4.97131 2.11659 1.57016 0
M  V30 45 H -4.1874 2.60358 -0.750761 0
M  V30 46 H -1.8101 2.87422 -4.21462 0
M  V30 47 H -2.866 1.78427 -5.17183 0
M  V30 48 H -1.26543 1.17451 -4.51103 0
M  V30 49 H 0.839455 -1.35116 -2.01562 0
M  V30 50 H 2.09227 -2.66423 -3.91927 0
M  V30 51 H 3.09741 -1.33081 -4.65763 0
M  V30 52 H 4.91173 -0.704149 -2.90446 0
M  V30 53 H 5.16836 0.397642 -0.743823 0
M  V30 54 H 3.41017 4.08906 2.07667 0
M  V30 55 H 3.54281 2.64305 3.18626 0
M  V30 56 H 4.9868 3.12799 2.23122 0
M  V30 END ATOM
M  V30 BEGIN BOND
M  V30 1 1 1 2
M  V30 2 2 2 3
M  V30 3 1 2 4
M  V30 4 1 4 5
M  V30 5 1 5 6
M  V30 6 1 6 7
M  V30 7 1 7 8
M  V30 8 1 8 9
M  V30 9 2 8 10
M  V30 10 1 6 11
M  V30 11 2 11 12
M  V30 12 1 12 13
M  V30 13 1 13 14
M  V30 14 2 13 15
M  V30 15 1 15 16
M  V30 16 2 16 17
M  V30 17 1 17 18
M  V30 18 1 18 19
M  V30 19 1 19 20
M  V30 20 2 19 21
M  V30 21 1 5 22
M  V30 22 2 22 23
M  V30 23 1 23 24
M  V30 24 1 24 25
M  V30 25 2 24 26
M  V30 26 1 26 27
M  V30 27 2 27 28
M  V30 28 1 28 29
M  V30 29 1 29 30
M  V30 30 1 30 31
M  V30 31 2 30 32
M  V30 32 1 17 11
M  V30 33 1 28 22
M  V30 34 1 1 33
M  V30 35 1 1 34
M  V30 36 1 1 35
M  V30 37 1 5 36
M  V30 38 1 6 37
M  V30 39 1 9 38
M  V30 40 1 9 39
M  V30 41 1 9 40
M  V30 42 1 12 41
M  V30 43 1 14 42
M  V30 44 1 14 43
M  V30 45 1 15 44
M  V30 46 1 16 45
M  V30 47 1 20 46
M  V30 48 1 20 47
M  V30 49 1 20 48
M  V30 50 1 23 49
M  V30 51 1 25 50
M  V30 52 1 25 51
M  V30 53 1 26 52
M  V30 54 1 27 53
M  V30 55 1 31 54
M  V30 56 1 31 55
M  V30 57 1 31 56
M  V30 END BOND
M  V30 END CTAB
M  END
