
     RDKit          3D

  0  0  0  0  0  0  0  0  0  0999 V3000
M  V30 BEGIN CTAB
M  V30 COUNTS 40 43 0 0 0
M  V30 BEGIN ATOM
M  V30 1 N 6.65166 -0.370307 0.961591 0
M  V30 2 C 5.37602 -0.178246 0.40032 0
M  V30 3 N 4.40421 -1.12225 0.433509 0
M  V30 4 C 3.19361 -0.907943 -0.110944 0
M  V30 5 C 2.12107 -1.92352 -0.087169 0
M  V30 6 S 1.08086 -1.79974 1.37669 0
M  V30 7 C 0.151507 -0.286422 1.38154 0
M  V30 8 N 0.56824 0.867671 1.91241 0
M  V30 9 N -0.357007 1.79695 1.75429 0
M  V30 10 C -1.41673 1.2312 1.09667 0
M  V30 11 N -1.09588 -0.0249809 0.87829 0
M  V30 12 C -1.86209 -1.02214 0.228271 0
M  V30 13 C -1.77788 -1.22551 -1.14226 0
M  V30 14 C -2.49545 -2.20329 -1.8018 0
M  V30 15 C -3.33315 -3.01486 -1.07063 0
M  V30 16 C -3.44088 -2.84415 0.274579 0
M  V30 17 C -2.71782 -1.86348 0.919226 0
M  V30 18 C -2.60003 2.01137 0.77642 0
M  V30 19 C -3.74978 1.62362 0.141297 0
M  V30 20 C -4.58923 2.73313 0.0711066 0
M  V30 21 C -3.90769 3.75612 0.671731 0
M  V30 22 O -2.77373 3.3031 1.06208 0
M  V30 23 N 2.99006 0.288491 -0.691598 0
M  V30 24 C 3.93669 1.24176 -0.738258 0
M  V30 25 N 5.13101 1.00864 -0.191912 0
M  V30 26 N 3.60382 2.45625 -1.37575 0
M  V30 27 H 6.81907 -0.226723 1.97128 0
M  V30 28 H 7.45293 -0.661437 0.366905 0
M  V30 29 H 2.49136 -2.95466 -0.258791 0
M  V30 30 H 1.4553 -1.71072 -0.968844 0
M  V30 31 H -1.13425 -0.604222 -1.72009 0
M  V30 32 H -2.42575 -2.35595 -2.86916 0
M  V30 33 H -3.8881 -3.77446 -1.59452 0
M  V30 34 H -4.11376 -3.50586 0.818434 0
M  V30 35 H -2.81897 -1.75111 1.96955 0
M  V30 36 H -4.02752 0.65269 -0.258531 0
M  V30 37 H -5.5753 2.80517 -0.359219 0
M  V30 38 H -4.2981 4.77486 0.781157 0
M  V30 39 H 3.28552 3.26533 -0.823587 0
M  V30 40 H 3.68618 2.51562 -2.40238 0
M  V30 END ATOM
M  V30 BEGIN BOND
M  V30 1 1 1 2
M  V30 2 2 2 3
M  V30 3 1 3 4
M  V30 4 1 4 5
M  V30 5 1 5 6
M  V30 6 1 6 7
M  V30 7 2 7 8
M  V30 8 1 8 9
M  V30 9 2 9 10
M  V30 10 1 10 11
M  V30 11 1 11 12
M  V30 12 2 12 13
M  V30 13 1 13 14
M  V30 14 2 14 15
M  V30 15 1 15 16
M  V30 16 2 16 17
M  V30 17 1 10 18
M  V30 18 2 18 19
M  V30 19 1 19 20
M  V30 20 2 20 21
M  V30 21 1 21 22
M  V30 22 2 4 23
M  V30 23 1 23 24
M  V30 24 2 24 25
M  V30 25 1 24 26
M  V30 26 1 25 2
M  V30 27 1 11 7
M  V30 28 1 17 12
M  V30 29 1 22 18
M  V30 30 1 1 27
M  V30 31 1 1 28
M  V30 32 1 5 29
M  V30 33 1 5 30
M  V30 34 1 13 31
M  V30 35 1 14 32
M  V30 36 1 15 33
M  V30 37 1 16 34
M  V30 38 1 17 35
M  V30 39 1 19 36
M  V30 40 1 20 37
M  V30 41 1 21 38
M  V30 42 1 26 39
M  V30 43 1 26 40
M  V30 END BOND
M  V30 END CTAB
M  END
