
     RDKit          3D

  0  0  0  0  0  0  0  0  0  0999 V3000
M  V30 BEGIN CTAB
M  V30 COUNTS 44 45 0 0 0
M  V30 BEGIN ATOM
M  V30 1 C -6.80275 2.38901 1.47333 0
M  V30 2 C -6.17444 1.11916 0.98304 0
M  V30 3 C -4.72251 1.3339 0.601917 0
M  V30 4 O -4.29179 2.46116 0.74167 0
M  V30 5 N -4.0272 0.225677 0.131364 0
M  V30 6 C -2.6692 0.242446 -0.269779 0
M  V30 7 C -1.87038 1.34764 -0.252096 0
M  V30 8 C -0.534783 1.32018 -0.659056 0
M  V30 9 C 0.0294714 0.157637 -1.09864 0
M  V30 10 C -0.755192 -0.97209 -1.12633 0
M  V30 11 C -2.06684 -0.949526 -0.727766 0
M  V30 12 O -2.85598 -2.10581 -0.759907 0
M  V30 13 C -2.2523 -3.29528 -1.21726 0
M  V30 14 C 1.43227 0.112422 -1.52598 0
M  V30 15 O 2.14671 1.16539 -1.48224 0
M  V30 16 C 2.0057 -1.1641 -2.00599 0
M  V30 17 S 2.62055 -2.07889 -0.544559 0
M  V30 18 C 3.98005 -1.12887 0.117957 0
M  V30 19 N 3.72873 -0.180973 1.0445 0
M  V30 20 C 4.70542 0.56995 1.5852 0
M  V30 21 N 4.43069 1.56379 2.55808 0
M  V30 22 C 5.99173 0.335368 1.1547 0
M  V30 23 C 6.29756 -0.631065 0.201799 0
M  V30 24 N 5.24393 -1.33707 -0.28424 0
M  V30 25 N 7.62166 -0.863491 -0.232454 0
M  V30 26 H -6.32109 2.71316 2.40786 0
M  V30 27 H -6.60695 3.19121 0.703711 0
M  V30 28 H -7.87976 2.22249 1.56261 0
M  V30 29 H -6.20842 0.370312 1.8024 0
M  V30 30 H -6.661 0.694112 0.104541 0
M  V30 31 H -4.53496 -0.73211 0.0552244 0
M  V30 32 H -2.19233 2.32259 0.0709509 0
M  V30 33 H 0.0947 2.20133 -0.642844 0
M  V30 34 H -0.368859 -1.93874 -1.46592 0
M  V30 35 H -2.01976 -3.2859 -2.29407 0
M  V30 36 H -1.34042 -3.49871 -0.594452 0
M  V30 37 H -2.96091 -4.13232 -0.956238 0
M  V30 38 H 1.2887 -1.73937 -2.5971 0
M  V30 39 H 2.85378 -0.89009 -2.67451 0
M  V30 40 H 5.13776 1.89172 3.21628 0
M  V30 41 H 3.4726 1.96272 2.59023 0
M  V30 42 H 6.82638 0.910063 1.55397 0
M  V30 43 H 8.40751 -0.852451 0.433186 0
M  V30 44 H 7.80191 -1.04659 -1.23015 0
M  V30 END ATOM
M  V30 BEGIN BOND
M  V30 1 1 1 2
M  V30 2 1 2 3
M  V30 3 2 3 4
M  V30 4 1 3 5
M  V30 5 1 5 6
M  V30 6 2 6 7
M  V30 7 1 7 8
M  V30 8 2 8 9
M  V30 9 1 9 10
M  V30 10 2 10 11
M  V30 11 1 11 12
M  V30 12 1 12 13
M  V30 13 1 9 14
M  V30 14 2 14 15
M  V30 15 1 14 16
M  V30 16 1 16 17
M  V30 17 1 17 18
M  V30 18 2 18 19
M  V30 19 1 19 20
M  V30 20 1 20 21
M  V30 21 2 20 22
M  V30 22 1 22 23
M  V30 23 2 23 24
M  V30 24 1 23 25
M  V30 25 1 11 6
M  V30 26 1 24 18
M  V30 27 1 1 26
M  V30 28 1 1 27
M  V30 29 1 1 28
M  V30 30 1 2 29
M  V30 31 1 2 30
M  V30 32 1 5 31
M  V30 33 1 7 32
M  V30 34 1 8 33
M  V30 35 1 10 34
M  V30 36 1 13 35
M  V30 37 1 13 36
M  V30 38 1 13 37
M  V30 39 1 16 38
M  V30 40 1 16 39
M  V30 41 1 21 40
M  V30 42 1 21 41
M  V30 43 1 22 42
M  V30 44 1 25 43
M  V30 45 1 25 44
M  V30 END BOND
M  V30 END CTAB
M  END
