
     RDKit          3D

  0  0  0  0  0  0  0  0  0  0999 V3000
M  V30 BEGIN CTAB
M  V30 COUNTS 53 54 0 0 0
M  V30 BEGIN ATOM
M  V30 1 N 6.67553 2.60206 -0.225544 0
M  V30 2 C 5.53197 1.71147 -0.157143 0
M  V30 3 C 5.88067 0.364343 -0.768304 0
M  V30 4 N 4.79454 -0.562858 -0.730187 0
M  V30 5 C 4.47061 -0.984971 0.614788 0
M  V30 6 C 3.00815 -0.671399 0.930876 0
M  V30 7 N 2.23558 -1.44676 -0.0514435 0
M  V30 8 C 2.57762 -1.21552 -1.43599 0
M  V30 9 C 3.65713 -0.13618 -1.48274 0
M  V30 10 C 1.30473 -2.36722 0.401539 0
M  V30 11 C 0.0323878 -2.13625 0.647715 0
M  V30 12 C -0.536376 -0.846473 0.460432 0
M  V30 13 O 0.228064 0.0971698 0.0316059 0
M  V30 14 N -1.86563 -0.406412 0.676953 0
M  V30 15 C -2.18595 0.967822 0.388403 0
M  V30 16 C -3.54568 1.13349 -0.253792 0
M  V30 17 N -4.46222 0.149616 0.149617 0
M  V30 18 C -4.16181 -0.534933 1.34639 0
M  V30 19 C -2.85672 -1.30067 1.17425 0
M  V30 20 C -5.74725 0.0697771 -0.375077 0
M  V30 21 C -6.7301 1.13922 -0.0406387 0
M  V30 22 N -6.40195 2.46184 -0.437282 0
M  V30 23 C -0.753174 -3.29488 1.11534 0
M  V30 24 N -1.34691 -4.24525 1.48297 0
M  V30 25 H 6.36501 3.55075 -0.509513 0
M  V30 26 H 7.39721 2.18126 -0.835983 0
M  V30 27 H 4.69872 2.17064 -0.706913 0
M  V30 28 H 5.25788 1.61049 0.906039 0
M  V30 29 H 6.74286 -0.0210323 -0.166551 0
M  V30 30 H 6.26414 0.547687 -1.7755 0
M  V30 31 H 5.07477 -0.407412 1.32748 0
M  V30 32 H 4.61344 -2.06991 0.715702 0
M  V30 33 H 2.87761 0.409136 0.843977 0
M  V30 34 H 2.81737 -1.0005 1.95975 0
M  V30 35 H 1.75931 -0.887849 -2.08706 0
M  V30 36 H 3.0485 -2.16155 -1.81214 0
M  V30 37 H 3.24943 0.805733 -1.11445 0
M  V30 38 H 3.98643 -0.0419006 -2.54832 0
M  V30 39 H 1.69889 -3.4053 0.567145 0
M  V30 40 H -1.38125 1.40217 -0.232604 0
M  V30 41 H -2.19581 1.52648 1.34472 0
M  V30 42 H -3.39193 1.09061 -1.34927 0
M  V30 43 H -3.93322 2.14077 -0.0174431 0
M  V30 44 H -4.08396 0.0884511 2.2471 0
M  V30 45 H -4.94014 -1.30556 1.52297 0
M  V30 46 H -2.61873 -1.70831 2.17914 0
M  V30 47 H -3.08362 -2.10606 0.444872 0
M  V30 48 H -6.23169 -0.897993 -0.0203223 0
M  V30 49 H -5.72718 -0.066966 -1.48752 0
M  V30 50 H -7.0052 1.13286 1.04022 0
M  V30 51 H -7.68815 0.864519 -0.574315 0
M  V30 52 H -6.28631 3.13799 0.350679 0
M  V30 53 H -7.08758 2.87377 -1.12174 0
M  V30 END ATOM
M  V30 BEGIN BOND
M  V30 1 1 1 2
M  V30 2 1 2 3
M  V30 3 1 3 4
M  V30 4 1 4 5
M  V30 5 1 5 6
M  V30 6 1 6 7
M  V30 7 1 7 8
M  V30 8 1 8 9
M  V30 9 1 7 10
M  V30 10 2 10 11
M  V30 11 1 11 12
M  V30 12 2 12 13
M  V30 13 1 12 14
M  V30 14 1 14 15
M  V30 15 1 15 16
M  V30 16 1 16 17
M  V30 17 1 17 18
M  V30 18 1 18 19
M  V30 19 1 17 20
M  V30 20 1 20 21
M  V30 21 1 21 22
M  V30 22 1 11 23
M  V30 23 3 23 24
M  V30 24 1 9 4
M  V30 25 1 19 14
M  V30 26 1 1 25
M  V30 27 1 1 26
M  V30 28 1 2 27
M  V30 29 1 2 28
M  V30 30 1 3 29
M  V30 31 1 3 30
M  V30 32 1 5 31
M  V30 33 1 5 32
M  V30 34 1 6 33
M  V30 35 1 6 34
M  V30 36 1 8 35
M  V30 37 1 8 36
M  V30 38 1 9 37
M  V30 39 1 9 38
M  V30 40 1 10 39
M  V30 41 1 15 40
M  V30 42 1 15 41
M  V30 43 1 16 42
M  V30 44 1 16 43
M  V30 45 1 18 44
M  V30 46 1 18 45
M  V30 47 1 19 46
M  V30 48 1 19 47
M  V30 49 1 20 48
M  V30 50 1 20 49
M  V30 51 1 21 50
M  V30 52 1 21 51
M  V30 53 1 22 52
M  V30 54 1 22 53
M  V30 END BOND
M  V30 END CTAB
M  END
