
     RDKit          3D

  0  0  0  0  0  0  0  0  0  0999 V3000
M  V30 BEGIN CTAB
M  V30 COUNTS 41 43 0 0 0
M  V30 BEGIN ATOM
M  V30 1 N 4.79536 0.00481979 1.90185 0
M  V30 2 C 4.86732 0.372646 0.499812 0
M  V30 3 C 4.26529 -0.635234 -0.44964 0
M  V30 4 C 3.33369 0.379708 -1.01813 0
M  V30 5 C 3.78523 1.344 0.0814969 0
M  V30 6 C 1.90332 0.138065 -0.922627 0
M  V30 7 C 1.26188 -0.381679 0.179312 0
M  V30 8 C -0.0944621 -0.575556 0.179094 0
M  V30 9 N -0.803381 -0.260482 -0.893079 0
M  V30 10 C -0.212411 0.257365 -2.00872 0
M  V30 11 N 1.11895 0.434087 -1.97353 0
M  V30 12 N -0.997522 0.585789 -3.14323 0
M  V30 13 N -0.696957 -1.12163 1.36322 0
M  V30 14 C -2.13638 -1.31603 1.33349 0
M  V30 15 C -2.83359 -0.0183531 1.10502 0
M  V30 16 N -2.53927 1.14699 1.73115 0
M  V30 17 N -3.35304 2.10649 1.29278 0
M  V30 18 C -4.18146 1.57145 0.379101 0
M  V30 19 N -3.84873 0.272338 0.277979 0
M  V30 20 C -5.26296 2.25766 -0.385591 0
M  V30 21 C -2.51852 -2.29839 0.249047 0
M  V30 22 H 4.15004 -0.786393 2.08364 0
M  V30 23 H 5.73676 -0.198472 2.27162 0
M  V30 24 H 5.86318 0.746572 0.175788 0
M  V30 25 H 4.98554 -0.982596 -1.22237 0
M  V30 26 H 3.81699 -1.50894 0.0468944 0
M  V30 27 H 3.63024 0.801876 -1.99519 0
M  V30 28 H 3.03962 1.46568 0.897922 0
M  V30 29 H 4.15431 2.31047 -0.271994 0
M  V30 30 H 1.83666 -0.630368 1.03121 0
M  V30 31 H -1.26084 -0.15813 -3.81025 0
M  V30 32 H -1.31205 1.55367 -3.31719 0
M  V30 33 H -0.121454 -1.36319 2.19727 0
M  V30 34 H -2.43338 -1.74743 2.31372 0
M  V30 35 H -3.35881 3.11558 1.59958 0
M  V30 36 H -6.05188 1.54319 -0.697984 0
M  V30 37 H -5.75037 3.0054 0.278724 0
M  V30 38 H -4.83115 2.71791 -1.30238 0
M  V30 39 H -1.65435 -2.91335 -0.0769332 0
M  V30 40 H -2.93276 -1.71038 -0.603821 0
M  V30 41 H -3.35864 -2.91896 0.622914 0
M  V30 END ATOM
M  V30 BEGIN BOND
M  V30 1 1 1 2
M  V30 2 1 2 3
M  V30 3 1 3 4
M  V30 4 1 4 5
M  V30 5 1 4 6
M  V30 6 2 6 7
M  V30 7 1 7 8
M  V30 8 2 8 9
M  V30 9 1 9 10
M  V30 10 2 10 11
M  V30 11 1 10 12
M  V30 12 1 8 13
M  V30 13 1 13 14
M  V30 14 1 14 15
M  V30 15 2 15 16
M  V30 16 1 16 17
M  V30 17 1 17 18
M  V30 18 2 18 19
M  V30 19 1 18 20
M  V30 20 1 14 21
M  V30 21 1 5 2
M  V30 22 1 11 6
M  V30 23 1 19 15
M  V30 24 1 1 22
M  V30 25 1 1 23
M  V30 26 1 2 24
M  V30 27 1 3 25
M  V30 28 1 3 26
M  V30 29 1 4 27
M  V30 30 1 5 28
M  V30 31 1 5 29
M  V30 32 1 7 30
M  V30 33 1 12 31
M  V30 34 1 12 32
M  V30 35 1 13 33
M  V30 36 1 14 34
M  V30 37 1 17 35
M  V30 38 1 20 36
M  V30 39 1 20 37
M  V30 40 1 20 38
M  V30 41 1 21 39
M  V30 42 1 21 40
M  V30 43 1 21 41
M  V30 END BOND
M  V30 END CTAB
M  END
