
     RDKit          3D

  0  0  0  0  0  0  0  0  0  0999 V3000
M  V30 BEGIN CTAB
M  V30 COUNTS 34 36 0 0 0
M  V30 BEGIN ATOM
M  V30 1 C 6.54815 0.0424601 0.258263 0
M  V30 2 O 5.16737 0.276099 0.446432 0
M  V30 3 C 4.22659 -0.384256 -0.32661 0
M  V30 4 O 4.66547 -1.19422 -1.19547 0
M  V30 5 C 2.79827 -0.155227 -0.145888 0
M  V30 6 N 1.88052 -0.807251 -0.908638 0
M  V30 7 C 0.571728 -0.573864 -0.717184 0
M  V30 8 C -0.397221 -1.2264 -1.48306 0
M  V30 9 N 0.0271002 -2.14489 -2.47197 0
M  V30 10 N -1.68889 -0.949265 -1.24265 0
M  V30 11 C -2.10436 -0.0796847 -0.307074 0
M  V30 12 N -1.14232 0.529316 0.410583 0
M  V30 13 C 0.164742 0.320817 0.246423 0
M  V30 14 N 1.10138 0.966233 1.00285 0
M  V30 15 C 2.41089 0.744083 0.823786 0
M  V30 16 N 3.34152 1.44285 1.63859 0
M  V30 17 C -3.51483 0.178914 -0.0929958 0
M  V30 18 C -4.44253 -0.477603 -0.861235 0
M  V30 19 C -5.81514 -0.258376 -0.68858 0
M  V30 20 C -6.25616 0.63041 0.266847 0
M  V30 21 C -5.32101 1.28651 1.035 0
M  V30 22 C -3.9558 1.06399 0.858361 0
M  V30 23 H 6.83905 0.10746 -0.809342 0
M  V30 24 H 7.11343 0.824987 0.802241 0
M  V30 25 H 6.85821 -0.93421 0.711172 0
M  V30 26 H 0.841637 -2.76042 -2.31722 0
M  V30 27 H -0.470063 -2.22625 -3.3841 0
M  V30 28 H 3.7716 0.913194 2.43829 0
M  V30 29 H 3.57422 2.43679 1.43575 0
M  V30 30 H -4.08466 -1.17278 -1.60789 0
M  V30 31 H -6.54035 -0.782963 -1.30162 0
M  V30 32 H -7.33222 0.800037 0.399737 0
M  V30 33 H -5.63057 1.99 1.79321 0
M  V30 34 H -3.20576 1.5735 1.45607 0
M  V30 END ATOM
M  V30 BEGIN BOND
M  V30 1 1 1 2
M  V30 2 1 2 3
M  V30 3 2 3 4
M  V30 4 1 3 5
M  V30 5 2 5 6
M  V30 6 1 6 7
M  V30 7 2 7 8
M  V30 8 1 8 9
M  V30 9 1 8 10
M  V30 10 2 10 11
M  V30 11 1 11 12
M  V30 12 2 12 13
M  V30 13 1 13 14
M  V30 14 2 14 15
M  V30 15 1 15 16
M  V30 16 1 11 17
M  V30 17 2 17 18
M  V30 18 1 18 19
M  V30 19 2 19 20
M  V30 20 1 20 21
M  V30 21 2 21 22
M  V30 22 1 15 5
M  V30 23 1 22 17
M  V30 24 1 13 7
M  V30 25 1 1 23
M  V30 26 1 1 24
M  V30 27 1 1 25
M  V30 28 1 9 26
M  V30 29 1 9 27
M  V30 30 1 16 28
M  V30 31 1 16 29
M  V30 32 1 18 30
M  V30 33 1 19 31
M  V30 34 1 20 32
M  V30 35 1 21 33
M  V30 36 1 22 34
M  V30 END BOND
M  V30 END CTAB
M  END
