
     RDKit          3D

  0  0  0  0  0  0  0  0  0  0999 V3000
M  V30 BEGIN CTAB
M  V30 COUNTS 25 25 0 0 0
M  V30 BEGIN ATOM
M  V30 1 N -2.61513 -0.841271 1.05916 0
M  V30 2 C -2.26946 0.272126 0.292187 0
M  V30 3 C -1.02466 0.165857 -0.557326 0
M  V30 4 C 0.216235 -0.168679 0.0404611 0
M  V30 5 C 0.359935 -1.40067 0.715635 0
M  V30 6 C 1.55497 -1.87014 1.16812 0
M  V30 7 C 2.7135 -1.15645 0.988856 0
M  V30 8 C 2.60861 0.0525056 0.333282 0
M  V30 9 C 1.38426 0.538878 -0.136134 0
M  V30 10 C 1.31364 1.89506 -0.745943 0
M  V30 11 F 0.444202 2.76504 -0.129364 0
M  V30 12 F 2.54028 2.52023 -0.227125 0
M  V30 13 F 1.51952 2.04275 -2.07552 0
M  V30 14 N -1.09833 0.847698 -1.83141 0
M  V30 15 H -3.12803 -1.57893 0.538025 0
M  V30 16 H -3.27209 -0.520665 1.84114 0
M  V30 17 H -3.16267 0.463954 -0.423022 0
M  V30 18 H -2.28278 1.24498 0.863018 0
M  V30 19 H -1.34041 -0.920858 -1.02968 0
M  V30 20 H -0.515116 -1.98565 0.862928 0
M  V30 21 H 1.62651 -2.81261 1.68836 0
M  V30 22 H 3.67622 -1.51139 1.32031 0
M  V30 23 H 3.50018 0.642555 0.169068 0
M  V30 24 H -2.09931 1.05948 -2.11277 0
M  V30 25 H -0.650083 0.256194 -2.61225 0
M  V30 END ATOM
M  V30 BEGIN BOND
M  V30 1 1 1 2
M  V30 2 1 2 3
M  V30 3 1 3 4
M  V30 4 2 4 5
M  V30 5 1 5 6
M  V30 6 2 6 7
M  V30 7 1 7 8
M  V30 8 2 8 9
M  V30 9 1 9 10
M  V30 10 1 10 11
M  V30 11 1 10 12
M  V30 12 1 10 13
M  V30 13 1 3 14
M  V30 14 1 9 4
M  V30 15 1 1 15
M  V30 16 1 1 16
M  V30 17 1 2 17
M  V30 18 1 2 18
M  V30 19 1 3 19
M  V30 20 1 5 20
M  V30 21 1 6 21
M  V30 22 1 7 22
M  V30 23 1 8 23
M  V30 24 1 14 24
M  V30 25 1 14 25
M  V30 END BOND
M  V30 END CTAB
M  END
