
     RDKit          3D

  0  0  0  0  0  0  0  0  0  0999 V3000
M  V30 BEGIN CTAB
M  V30 COUNTS 16 16 0 0 0
M  V30 BEGIN ATOM
M  V30 1 N 2.7036 -0.695898 -0.173454 0
M  V30 2 C 1.40083 -0.166998 0.0479392 0
M  V30 3 C 1.23671 1.03648 0.706231 0
M  V30 4 N 0.0154861 1.55251 0.924967 0
M  V30 5 C -1.11596 0.944575 0.525404 0
M  V30 6 C -0.976399 -0.260812 -0.135298 0
M  V30 7 C 0.276006 -0.834588 -0.384338 0
M  V30 8 N -2.15474 -0.915314 -0.563264 0
M  V30 9 O -2.37621 1.50317 0.765592 0
M  V30 10 H 2.80303 -1.62097 -0.644859 0
M  V30 11 H 3.56706 -0.206986 0.11104 0
M  V30 12 H 2.15672 1.52863 1.02991 0
M  V30 13 H 0.364904 -1.78339 -0.905564 0
M  V30 14 H -3.00323 -0.84568 0.0225887 0
M  V30 15 H -2.192 -1.45879 -1.44084 0
M  V30 16 H -2.7058 2.22406 0.113941 0
M  V30 END ATOM
M  V30 BEGIN BOND
M  V30 1 1 1 2
M  V30 2 2 2 3
M  V30 3 1 3 4
M  V30 4 2 4 5
M  V30 5 1 5 6
M  V30 6 2 6 7
M  V30 7 1 6 8
M  V30 8 1 5 9
M  V30 9 1 7 2
M  V30 10 1 1 10
M  V30 11 1 1 11
M  V30 12 1 3 12
M  V30 13 1 7 13
M  V30 14 1 8 14
M  V30 15 1 8 15
M  V30 16 1 9 16
M  V30 END BOND
M  V30 END CTAB
M  END
