
     RDKit          3D

  0  0  0  0  0  0  0  0  0  0999 V3000
M  V30 BEGIN CTAB
M  V30 COUNTS 39 41 0 0 0
M  V30 BEGIN ATOM
M  V30 1 C 5.91666 2.39376 0.367874 0
M  V30 2 O 4.67123 1.76349 0.107456 0
M  V30 3 C 4.50649 0.409678 0.35419 0
M  V30 4 O 5.51891 -0.204899 0.815246 0
M  V30 5 C 3.24999 -0.288813 0.106206 0
M  V30 6 C 2.17416 0.424961 -0.403573 0
M  V30 7 C 0.988297 -0.243784 -0.632507 0
M  V30 8 C 0.821286 -1.58343 -0.379594 0
M  V30 9 C -0.496681 -2.21056 -0.660963 0
M  V30 10 C -1.42356 -2.18622 0.503744 0
M  V30 11 C -1.72378 -0.807226 0.926153 0
M  V30 12 C -1.05926 -0.0786409 1.92425 0
M  V30 13 O -1.58531 1.09062 1.95686 0
M  V30 14 C -2.55704 1.23352 1.06851 0
M  V30 15 N -3.37595 2.22922 0.734803 0
M  V30 16 C -4.31427 2.15016 -0.218261 0
M  V30 17 N -5.16097 3.26892 -0.519459 0
M  V30 18 N -4.43299 0.984816 -0.87922 0
M  V30 19 C -3.64876 -0.0745078 -0.610146 0
M  V30 20 N -3.80444 -1.30443 -1.2894 0
M  V30 21 C -2.68828 0.0276043 0.372125 0
M  V30 22 C 1.89183 -2.28613 0.125856 0
M  V30 23 C 3.09453 -1.63592 0.364365 0
M  V30 24 H 5.95068 3.38363 -0.114258 0
M  V30 25 H 6.78295 1.78054 0.0844619 0
M  V30 26 H 5.96717 2.54464 1.4844 0
M  V30 27 H 2.3131 1.4816 -0.60132 0
M  V30 28 H 0.162403 0.336593 -1.03061 0
M  V30 29 H -0.339293 -3.25863 -1.0561 0
M  V30 30 H -0.930256 -1.66424 -1.51067 0
M  V30 31 H -0.941 -2.68261 1.40067 0
M  V30 32 H -2.33993 -2.79523 0.348602 0
M  V30 33 H -0.248061 -0.513645 2.5181 0
M  V30 34 H -6.14313 3.32907 -0.199442 0
M  V30 35 H -4.76973 4.04954 -1.08151 0
M  V30 36 H -3.41359 -1.54511 -2.2057 0
M  V30 37 H -4.38538 -2.0438 -0.793011 0
M  V30 38 H 1.81307 -3.32518 0.338032 0
M  V30 39 H 3.95891 -2.1494 0.760513 0
M  V30 END ATOM
M  V30 BEGIN BOND
M  V30 1 1 1 2
M  V30 2 1 2 3
M  V30 3 2 3 4
M  V30 4 1 3 5
M  V30 5 2 5 6
M  V30 6 1 6 7
M  V30 7 2 7 8
M  V30 8 1 8 9
M  V30 9 1 9 10
M  V30 10 1 10 11
M  V30 11 2 11 12
M  V30 12 1 12 13
M  V30 13 1 13 14
M  V30 14 2 14 15
M  V30 15 1 15 16
M  V30 16 1 16 17
M  V30 17 2 16 18
M  V30 18 1 18 19
M  V30 19 1 19 20
M  V30 20 2 19 21
M  V30 21 1 8 22
M  V30 22 2 22 23
M  V30 23 1 23 5
M  V30 24 1 21 11
M  V30 25 1 21 14
M  V30 26 1 1 24
M  V30 27 1 1 25
M  V30 28 1 1 26
M  V30 29 1 6 27
M  V30 30 1 7 28
M  V30 31 1 9 29
M  V30 32 1 9 30
M  V30 33 1 10 31
M  V30 34 1 10 32
M  V30 35 1 12 33
M  V30 36 1 17 34
M  V30 37 1 17 35
M  V30 38 1 20 36
M  V30 39 1 20 37
M  V30 40 1 22 38
M  V30 41 1 23 39
M  V30 END BOND
M  V30 END CTAB
M  END
