
     RDKit          3D

  0  0  0  0  0  0  0  0  0  0999 V3000
M  V30 BEGIN CTAB
M  V30 COUNTS 27 27 0 0 0
M  V30 BEGIN ATOM
M  V30 1 C 3.34353 -1.00806 0.720982 0
M  V30 2 C 2.95317 0.452182 0.583372 0
M  V30 3 C 2.46605 0.784974 -0.785252 0
M  V30 4 N 1.31252 0.0143822 -1.11785 0
M  V30 5 C 0.0130344 0.157054 -0.581336 0
M  V30 6 C -0.289313 1.1977 0.259623 0
M  V30 7 C -1.59164 1.32748 0.759467 0
M  V30 8 C -2.58737 0.42582 0.422887 0
M  V30 9 C -2.28389 -0.617302 -0.420947 0
M  V30 10 C -1.0129 -0.726603 -0.89593 0
M  V30 11 F -0.719976 -1.75779 -1.72766 0
M  V30 12 N -3.29731 -1.57201 -0.79047 0
M  V30 13 N -3.91507 0.547876 0.925143 0
M  V30 14 H 4.43058 -1.12603 0.51266 0
M  V30 15 H 2.71867 -1.66267 0.0690663 0
M  V30 16 H 3.14982 -1.34168 1.76033 0
M  V30 17 H 2.1725 0.64572 1.33357 0
M  V30 18 H 3.87128 1.04062 0.790111 0
M  V30 19 H 3.26488 0.721033 -1.56007 0
M  V30 20 H 2.17491 1.86706 -0.780233 0
M  V30 21 H 1.40912 -0.762944 -1.84982 0
M  V30 22 H 0.421093 1.94676 0.559286 0
M  V30 23 H -1.8078 2.14754 1.41584 0
M  V30 24 H -4.21804 -1.28465 -1.18029 0
M  V30 25 H -3.11288 -2.59387 -0.667216 0
M  V30 26 H -4.42653 1.45534 0.92956 0
M  V30 27 H -4.43845 -0.277941 1.31517 0
M  V30 END ATOM
M  V30 BEGIN BOND
M  V30 1 1 1 2
M  V30 2 1 2 3
M  V30 3 1 3 4
M  V30 4 1 4 5
M  V30 5 2 5 6
M  V30 6 1 6 7
M  V30 7 2 7 8
M  V30 8 1 8 9
M  V30 9 2 9 10
M  V30 10 1 10 11
M  V30 11 1 9 12
M  V30 12 1 8 13
M  V30 13 1 10 5
M  V30 14 1 1 14
M  V30 15 1 1 15
M  V30 16 1 1 16
M  V30 17 1 2 17
M  V30 18 1 2 18
M  V30 19 1 3 19
M  V30 20 1 3 20
M  V30 21 1 4 21
M  V30 22 1 6 22
M  V30 23 1 7 23
M  V30 24 1 12 24
M  V30 25 1 12 25
M  V30 26 1 13 26
M  V30 27 1 13 27
M  V30 END BOND
M  V30 END CTAB
M  END
