
     RDKit          3D

  0  0  0  0  0  0  0  0  0  0999 V3000
M  V30 BEGIN CTAB
M  V30 COUNTS 53 56 0 0 0
M  V30 BEGIN ATOM
M  V30 1 C 4.94465 0.953589 -2.33039 0
M  V30 2 C 5.89444 0.990759 -1.16589 0
M  V30 3 O 5.2717 0.924187 0.0818059 0
M  V30 4 C 4.48354 -0.0982811 0.5246 0
M  V30 5 O 4.29099 -1.08402 -0.259842 0
M  V30 6 C 3.83165 -0.130899 1.87708 0
M  V30 7 C 2.91523 1.02639 2.03998 0
M  V30 8 C 1.47473 0.64626 2.33401 0
M  V30 9 N 1.16199 -0.444425 1.43908 0
M  V30 10 C 1.90585 -1.70432 1.51467 0
M  V30 11 C 3.25464 -1.47954 2.16037 0
M  V30 12 C 0.153167 -0.334865 0.470384 0
M  V30 13 N 0.390894 -0.416163 -0.85421 0
M  V30 14 C -0.588125 -0.303527 -1.75389 0
M  V30 15 N -0.28955 -0.395398 -3.12512 0
M  V30 16 C -1.88082 -0.0988046 -1.34009 0
M  V30 17 C -2.20624 -0.00339042 0.0225799 0
M  V30 18 C -1.16818 -0.125425 0.904211 0
M  V30 19 C -1.41216 -0.045869 2.31578 0
M  V30 20 N -1.56551 0.0109383 3.48908 0
M  V30 21 C -3.50366 0.202236 0.439884 0
M  V30 22 C -4.16744 0.344356 1.73212 0
M  V30 23 C -5.61382 0.5454 1.33643 0
M  V30 24 O -6.51082 0.708546 2.18258 0
M  V30 25 N -5.74959 0.516443 -0.0544769 0
M  V30 26 C -4.45605 0.306893 -0.58208 0
M  V30 27 N -4.11913 0.211901 -1.88362 0
M  V30 28 C -2.85254 0.0113999 -2.28399 0
M  V30 29 N -2.57117 -0.0795843 -3.69875 0
M  V30 30 C -6.99194 0.674243 -0.780211 0
M  V30 31 H 5.53797 1.25476 -3.24265 0
M  V30 32 H 4.55517 -0.0693967 -2.49082 0
M  V30 33 H 4.15383 1.72095 -2.23577 0
M  V30 34 H 6.52581 1.89992 -1.18833 0
M  V30 35 H 6.6093 0.129521 -1.31707 0
M  V30 36 H 4.70261 -0.0159863 2.59067 0
M  V30 37 H 2.92461 1.63267 1.10435 0
M  V30 38 H 3.24535 1.66209 2.88882 0
M  V30 39 H 1.43518 0.27882 3.39208 0
M  V30 40 H 0.854825 1.53286 2.16344 0
M  V30 41 H 1.96119 -2.16055 0.52652 0
M  V30 42 H 1.31527 -2.37278 2.17395 0
M  V30 43 H 3.19487 -1.7264 3.23358 0
M  V30 44 H 3.94679 -2.23658 1.70854 0
M  V30 45 H -0.042137 0.427651 -3.68552 0
M  V30 46 H -0.317679 -1.33323 -3.58273 0
M  V30 47 H -3.93712 1.27303 2.28969 0
M  V30 48 H -4.21305 -0.57496 2.35206 0
M  V30 49 H -2.33441 0.753479 -4.26819 0
M  V30 50 H -2.60218 -1.00047 -4.19025 0
M  V30 51 H -7.05017 1.75223 -1.07431 0
M  V30 52 H -6.9127 0.0537239 -1.70922 0
M  V30 53 H -7.88006 0.37613 -0.190941 0
M  V30 END ATOM
M  V30 BEGIN BOND
M  V30 1 1 1 2
M  V30 2 1 2 3
M  V30 3 1 3 4
M  V30 4 2 4 5
M  V30 5 1 4 6
M  V30 6 1 6 7
M  V30 7 1 7 8
M  V30 8 1 8 9
M  V30 9 1 9 10
M  V30 10 1 10 11
M  V30 11 1 9 12
M  V30 12 2 12 13
M  V30 13 1 13 14
M  V30 14 1 14 15
M  V30 15 2 14 16
M  V30 16 1 16 17
M  V30 17 2 17 18
M  V30 18 1 18 19
M  V30 19 3 19 20
M  V30 20 1 17 21
M  V30 21 1 21 22
M  V30 22 1 22 23
M  V30 23 2 23 24
M  V30 24 1 23 25
M  V30 25 1 25 26
M  V30 26 1 26 27
M  V30 27 2 27 28
M  V30 28 1 28 29
M  V30 29 1 25 30
M  V30 30 1 11 6
M  V30 31 1 18 12
M  V30 32 2 26 21
M  V30 33 1 28 16
M  V30 34 1 1 31
M  V30 35 1 1 32
M  V30 36 1 1 33
M  V30 37 1 2 34
M  V30 38 1 2 35
M  V30 39 1 6 36
M  V30 40 1 7 37
M  V30 41 1 7 38
M  V30 42 1 8 39
M  V30 43 1 8 40
M  V30 44 1 10 41
M  V30 45 1 10 42
M  V30 46 1 11 43
M  V30 47 1 11 44
M  V30 48 1 15 45
M  V30 49 1 15 46
M  V30 50 1 22 47
M  V30 51 1 22 48
M  V30 52 1 29 49
M  V30 53 1 29 50
M  V30 54 1 30 51
M  V30 55 1 30 52
M  V30 56 1 30 53
M  V30 END BOND
M  V30 END CTAB
M  END
