
     RDKit          3D

  0  0  0  0  0  0  0  0  0  0999 V3000
M  V30 BEGIN CTAB
M  V30 COUNTS 41 41 0 0 0
M  V30 BEGIN ATOM
M  V30 1 C -4.48447 1.397 1.11851 0
M  V30 2 C -4.08137 1.06267 -0.294215 0
M  V30 3 C -2.71199 0.487697 -0.407039 0
M  V30 4 C -2.46827 -0.781448 0.334761 0 CFG=1
M  V30 5 C -1.06059 -1.18669 0.0902902 0
M  V30 6 O -0.6372 -1.36479 -1.08356 0
M  V30 7 N -0.121343 -1.39515 1.14333 0
M  V30 8 C 1.23501 -1.78413 0.923798 0
M  V30 9 C 2.08593 -0.663667 0.451268 0
M  V30 10 C 1.61616 0.621247 0.328387 0
M  V30 11 C 2.41647 1.66387 -0.116266 0
M  V30 12 C 3.73886 1.39485 -0.447706 0
M  V30 13 C 4.23446 0.113822 -0.333013 0
M  V30 14 C 3.4049 -0.880125 0.110312 0
M  V30 15 S 5.90176 -0.182736 -0.759333 0
M  V30 16 O 6.47523 -1.31923 0.0498707 0
M  V30 17 O 6.69833 1.06504 -0.503051 0
M  V30 18 N 6.01938 -0.578577 -2.43332 0
M  V30 19 N -2.61623 -0.642111 1.77413 0
M  V30 20 C -5.13127 0.279752 -1.02071 0
M  V30 21 H -5.26143 2.21038 1.13466 0
M  V30 22 H -3.622 1.773 1.68768 0
M  V30 23 H -4.91095 0.540764 1.64543 0
M  V30 24 H -4.03186 2.0651 -0.821545 0
M  V30 25 H -1.99847 1.251 0.0167024 0
M  V30 26 H -2.4634 0.323811 -1.46618 0
M  V30 27 H -3.11587 -1.62511 -0.00370463 0
M  V30 28 H -0.456241 -1.25257 2.12133 0
M  V30 29 H 1.66793 -2.20602 1.86183 0
M  V30 30 H 1.28783 -2.56313 0.130349 0
M  V30 31 H 0.596309 0.857491 0.578793 0
M  V30 32 H 2.03549 2.67767 -0.2107 0
M  V30 33 H 4.33427 2.23516 -0.791742 0
M  V30 34 H 3.80935 -1.8801 0.194711 0
M  V30 35 H 7.01951 -0.536452 -2.74918 0
M  V30 36 H 5.43967 0.0556943 -3.0264 0
M  V30 37 H -1.9846 0.0909877 2.14901 0
M  V30 38 H -2.48205 -1.57956 2.20271 0
M  V30 39 H -4.86272 -0.755098 -1.22931 0
M  V30 40 H -5.44384 0.757117 -1.9932 0
M  V30 41 H -6.07068 0.252568 -0.412838 0
M  V30 END ATOM
M  V30 BEGIN BOND
M  V30 1 1 1 2
M  V30 2 1 2 3
M  V30 3 1 3 4
M  V30 4 1 4 5
M  V30 5 2 5 6
M  V30 6 1 5 7
M  V30 7 1 7 8
M  V30 8 1 8 9
M  V30 9 2 9 10
M  V30 10 1 10 11
M  V30 11 2 11 12
M  V30 12 1 12 13
M  V30 13 2 13 14
M  V30 14 1 13 15
M  V30 15 2 15 16
M  V30 16 2 15 17
M  V30 17 1 15 18
M  V30 18 1 4 19
M  V30 19 1 2 20
M  V30 20 1 14 9
M  V30 21 1 1 21
M  V30 22 1 1 22
M  V30 23 1 1 23
M  V30 24 1 2 24
M  V30 25 1 3 25
M  V30 26 1 3 26
M  V30 27 1 4 27 CFG=3
M  V30 28 1 7 28
M  V30 29 1 8 29
M  V30 30 1 8 30
M  V30 31 1 10 31
M  V30 32 1 11 32
M  V30 33 1 12 33
M  V30 34 1 14 34
M  V30 35 1 18 35
M  V30 36 1 18 36
M  V30 37 1 19 37
M  V30 38 1 19 38
M  V30 39 1 20 39
M  V30 40 1 20 40
M  V30 41 1 20 41
M  V30 END BOND
M  V30 END CTAB
M  END
