
     RDKit          3D

  0  0  0  0  0  0  0  0  0  0999 V3000
M  V30 BEGIN CTAB
M  V30 COUNTS 39 40 0 0 0
M  V30 BEGIN ATOM
M  V30 1 C -4.45289 -1.18405 1.48232 0
M  V30 2 C -3.16784 -1.36173 2.23524 0
M  V30 3 C -2.2494 -0.181554 2.20562 0
M  V30 4 N -1.82571 0.202515 0.890843 0
M  V30 5 C -0.715832 -0.401125 0.41502 0
M  V30 6 N -0.0370346 -1.3726 1.21137 0
M  V30 7 C -0.189696 -0.116981 -0.839555 0
M  V30 8 C 1.01469 -0.775255 -1.33079 0
M  V30 9 O 1.54828 -1.61016 -0.517953 0
M  V30 10 C 1.64228 -0.565617 -2.6345 0
M  V30 11 S 2.7566 0.87534 -2.65018 0
M  V30 12 C 4.17429 0.578535 -1.57438 0
M  V30 13 N 5.34139 0.0246901 -1.88032 0
M  V30 14 N 6.22986 -0.105897 -0.992057 0
M  V30 15 C 5.98973 0.313412 0.246373 0
M  V30 16 S 4.40015 0.919137 0.0905464 0
M  V30 17 N 6.88747 0.241965 1.37559 0
M  V30 18 C -0.883312 0.828535 -1.56767 0
M  V30 19 O -0.509986 1.1739 -2.71504 0
M  V30 20 N -1.98639 1.41489 -1.07035 0
M  V30 21 C -2.4669 1.10969 0.158415 0
M  V30 22 O -3.50968 1.68466 0.59448 0
M  V30 23 C -2.69615 2.39531 -1.83894 0
M  V30 24 H -5.0579 -0.364296 1.89304 0
M  V30 25 H -4.2945 -1.07673 0.384236 0
M  V30 26 H -5.09738 -2.10535 1.57541 0
M  V30 27 H -3.44879 -1.51619 3.31427 0
M  V30 28 H -2.68087 -2.27995 1.82606 0
M  V30 29 H -1.38104 -0.428384 2.852 0
M  V30 30 H -2.8337 0.689759 2.62088 0
M  V30 31 H 0.762043 -1.01912 1.78996 0
M  V30 32 H -0.292819 -2.37109 1.23861 0
M  V30 33 H 2.31445 -1.44519 -2.82949 0
M  V30 34 H 0.983792 -0.519408 -3.50094 0
M  V30 35 H 7.36196 -0.678384 1.52799 0
M  V30 36 H 7.05806 1.05422 2.00554 0
M  V30 37 H -2.4503 2.2553 -2.89709 0
M  V30 38 H -2.4428 3.42621 -1.4705 0
M  V30 39 H -3.79415 2.29098 -1.62404 0
M  V30 END ATOM
M  V30 BEGIN BOND
M  V30 1 1 1 2
M  V30 2 1 2 3
M  V30 3 1 3 4
M  V30 4 1 4 5
M  V30 5 1 5 6
M  V30 6 2 5 7
M  V30 7 1 7 8
M  V30 8 2 8 9
M  V30 9 1 8 10
M  V30 10 1 10 11
M  V30 11 1 11 12
M  V30 12 2 12 13
M  V30 13 1 13 14
M  V30 14 2 14 15
M  V30 15 1 15 16
M  V30 16 1 15 17
M  V30 17 1 7 18
M  V30 18 2 18 19
M  V30 19 1 18 20
M  V30 20 1 20 21
M  V30 21 2 21 22
M  V30 22 1 20 23
M  V30 23 1 21 4
M  V30 24 1 16 12
M  V30 25 1 1 24
M  V30 26 1 1 25
M  V30 27 1 1 26
M  V30 28 1 2 27
M  V30 29 1 2 28
M  V30 30 1 3 29
M  V30 31 1 3 30
M  V30 32 1 6 31
M  V30 33 1 6 32
M  V30 34 1 10 33
M  V30 35 1 10 34
M  V30 36 1 17 35
M  V30 37 1 17 36
M  V30 38 1 23 37
M  V30 39 1 23 38
M  V30 40 1 23 39
M  V30 END BOND
M  V30 END CTAB
M  END
