
     RDKit          3D

  0  0  0  0  0  0  0  0  0  0999 V3000
M  V30 BEGIN CTAB
M  V30 COUNTS 20 20 0 0 0
M  V30 BEGIN ATOM
M  V30 1 N -0.132123 1.84739 -0.46966 0
M  V30 2 C -0.578085 0.529092 -0.13302 0
M  V30 3 C 0.330188 -0.506869 -0.210333 0
M  V30 4 C -0.122171 -1.76672 0.118491 0
M  V30 5 C -1.43056 -1.96591 0.506401 0
M  V30 6 C -2.33737 -0.921485 0.581934 0
M  V30 7 C -1.88972 0.33823 0.254411 0
M  V30 8 O -2.74409 1.42865 0.308183 0
M  V30 9 S 1.97002 -0.267603 -0.694819 0
M  V30 10 N 2.82206 0.813169 0.335542 0
M  V30 11 O 2.07706 0.288042 -2.10287 0
M  V30 12 O 2.70479 -1.57357 -0.690647 0
M  V30 13 H -0.218467 2.13975 -1.47692 0
M  V30 14 H 0.262006 2.48321 0.26933 0
M  V30 15 H 0.549319 -2.6387 0.0786818 0
M  V30 16 H -1.77363 -2.97487 0.764528 0
M  V30 17 H -3.37014 -1.10451 0.892345 0
M  V30 18 H -2.41698 2.34661 0.0692652 0
M  V30 19 H 2.45952 0.807738 1.31286 0
M  V30 20 H 3.83837 0.698343 0.286297 0
M  V30 END ATOM
M  V30 BEGIN BOND
M  V30 1 1 1 2
M  V30 2 2 2 3
M  V30 3 1 3 4
M  V30 4 2 4 5
M  V30 5 1 5 6
M  V30 6 2 6 7
M  V30 7 1 7 8
M  V30 8 1 3 9
M  V30 9 1 9 10
M  V30 10 2 9 11
M  V30 11 2 9 12
M  V30 12 1 7 2
M  V30 13 1 1 13
M  V30 14 1 1 14
M  V30 15 1 4 15
M  V30 16 1 5 16
M  V30 17 1 6 17
M  V30 18 1 8 18
M  V30 19 1 10 19
M  V30 20 1 10 20
M  V30 END BOND
M  V30 END CTAB
M  END
