
     RDKit          3D

  0  0  0  0  0  0  0  0  0  0999 V3000
M  V30 BEGIN CTAB
M  V30 COUNTS 36 37 0 0 0
M  V30 BEGIN ATOM
M  V30 1 N -5.12986 0.378214 0.497439 0
M  V30 2 C -3.72942 0.132254 0.588249 0
M  V30 3 C -3.01707 1.40428 0.276031 0
M  V30 4 C -1.57574 1.24863 -0.057123 0
M  V30 5 C -1.0652 -0.164693 0.0673041 0
M  V30 6 C -1.95172 -1.16429 -0.625933 0
M  V30 7 C -3.40187 -0.997745 -0.330021 0
M  V30 8 N 0.237651 -0.23187 -0.559268 0
M  V30 9 C 1.35489 -0.611057 0.200142 0
M  V30 10 O 1.29246 -0.903384 1.42191 0
M  V30 11 C 2.68396 -0.678636 -0.442876 0 CFG=2
M  V30 12 C 3.81286 -1.09878 0.474195 0
M  V30 13 C 4.64106 0.0199632 -0.0861053 0 CFG=1
M  V30 14 C 3.38037 0.670812 -0.599394 0
M  V30 15 N 5.26096 0.828797 0.97292 0
M  V30 16 H -5.62055 -0.320772 0.0279637 0
M  V30 17 H -5.45198 1.3078 0.575315 0
M  V30 18 H -3.49582 -0.170983 1.64904 0
M  V30 19 H -3.0832 2.05136 1.19822 0
M  V30 20 H -3.52999 1.97419 -0.525946 0
M  V30 21 H -1.37583 1.5893 -1.10195 0
M  V30 22 H -0.917319 1.87866 0.596746 0
M  V30 23 H -0.993149 -0.437601 1.11794 0
M  V30 24 H -1.73762 -1.14168 -1.73096 0
M  V30 25 H -1.5947 -2.17883 -0.301603 0
M  V30 26 H -3.79703 -1.93556 0.112817 0
M  V30 27 H -3.93694 -0.879236 -1.30979 0
M  V30 28 H 0.325207 0.0022871 -1.5638 0
M  V30 29 H 2.68563 -1.27949 -1.37469 0
M  V30 30 H 3.52257 -0.874776 1.53631 0
M  V30 31 H 4.19158 -2.11909 0.31249 0
M  V30 32 H 5.34893 -0.277738 -0.886688 0
M  V30 33 H 2.93782 1.44716 0.0307228 0
M  V30 34 H 3.46226 0.997612 -1.67123 0
M  V30 35 H 4.50666 1.31801 1.47953 0
M  V30 36 H 5.76018 0.216889 1.64426 0
M  V30 END ATOM
M  V30 BEGIN BOND
M  V30 1 1 1 2
M  V30 2 1 2 3
M  V30 3 1 3 4
M  V30 4 1 4 5
M  V30 5 1 5 6
M  V30 6 1 6 7
M  V30 7 1 5 8
M  V30 8 1 8 9
M  V30 9 2 9 10
M  V30 10 1 9 11
M  V30 11 1 11 12
M  V30 12 1 12 13
M  V30 13 1 13 14
M  V30 14 1 13 15
M  V30 15 1 7 2
M  V30 16 1 14 11
M  V30 17 1 1 16
M  V30 18 1 1 17
M  V30 19 1 2 18
M  V30 20 1 3 19
M  V30 21 1 3 20
M  V30 22 1 4 21
M  V30 23 1 4 22
M  V30 24 1 5 23
M  V30 25 1 6 24
M  V30 26 1 6 25
M  V30 27 1 7 26
M  V30 28 1 7 27
M  V30 29 1 8 28
M  V30 30 1 11 29 CFG=3
M  V30 31 1 12 30
M  V30 32 1 12 31
M  V30 33 1 13 32 CFG=3
M  V30 34 1 14 33
M  V30 35 1 14 34
M  V30 36 1 15 35
M  V30 37 1 15 36
M  V30 END BOND
M  V30 END CTAB
M  END
