
     RDKit          3D

  0  0  0  0  0  0  0  0  0  0999 V3000
M  V30 BEGIN CTAB
M  V30 COUNTS 48 50 0 0 0
M  V30 BEGIN ATOM
M  V30 1 O 1.03904 0.322281 -1.44389 0
M  V30 2 C -0.150148 -0.28014 -1.29194 0 CFG=1
M  V30 3 C -0.371694 -0.917739 0.0633989 0 CFG=1
M  V30 4 C 0.689958 -0.466341 1.05152 0
M  V30 5 O 1.9666 -0.792833 0.590074 0
M  V30 6 P 3.15523 -0.306635 1.65938 0
M  V30 7 O 2.57947 0.818117 2.52162 0
M  V30 8 O 4.50402 0.330012 0.857429 0
M  V30 9 P 5.3889 -0.902698 0.1097 0
M  V30 10 O 6.24237 -1.66109 1.10046 0
M  V30 11 O 6.38694 -0.238568 -1.06404 0
M  V30 12 P 7.30428 1.03999 -0.474913 0
M  V30 13 O 6.53844 1.92555 0.453323 0
M  V30 14 O 7.85147 1.93782 -1.82289 0
M  V30 15 O 8.70766 0.496055 0.322693 0
M  V30 16 O 4.35097 -2.00477 -0.664136 0
M  V30 17 O 3.59665 -1.55555 2.67914 0
M  V30 18 O -1.63762 -0.611896 0.486911 0
M  V30 19 C -2.33663 -0.189594 -0.63813 0 CFG=2
M  V30 20 C -1.32814 0.71273 -1.29532 0
M  V30 21 N -0.886358 1.79224 -0.443474 0
M  V30 22 N -3.597 0.384441 -0.395985 0
M  V30 23 C -3.97713 1.68621 -0.442746 0
M  V30 24 N -5.28222 1.79167 -0.141099 0
M  V30 25 C -5.77331 0.561654 0.106849 0
M  V30 26 C -4.70347 -0.303405 -0.0579539 0
M  V30 27 N -4.96857 -1.61879 0.144798 0
M  V30 28 C -6.17188 -2.09805 0.483857 0
M  V30 29 N -7.18925 -1.22876 0.635629 0
M  V30 30 C -7.01544 0.0842649 0.455017 0
M  V30 31 N -8.10704 0.964197 0.623567 0
M  V30 32 H 1.38024 0.250436 -2.32956 0
M  V30 33 H -0.396283 -1.02835 -2.067 0
M  V30 34 H -0.289068 -2.02374 -0.000462017 0
M  V30 35 H 0.672735 0.605009 1.252 0
M  V30 36 H 0.510362 -1.03593 1.99359 0
M  V30 37 H 7.79864 2.90535 -1.63686 0
M  V30 38 H 8.80344 -0.474457 0.208264 0
M  V30 39 H 4.53053 -2.93062 -0.351247 0
M  V30 40 H 3.08032 -2.37487 2.44702 0
M  V30 41 H -2.41125 -1.10246 -1.30132 0
M  V30 42 H -1.60006 1.02009 -2.30213 0
M  V30 43 H -1.33633 1.81908 0.471567 0
M  V30 44 H -0.758232 2.68775 -0.922878 0
M  V30 45 H -3.35317 2.53843 -0.682703 0
M  V30 46 H -6.32968 -3.16233 0.634274 0
M  V30 47 H -8.35645 1.7259 -0.0624597 0
M  V30 48 H -8.75189 0.910356 1.4646 0
M  V30 END ATOM
M  V30 BEGIN BOND
M  V30 1 1 1 2
M  V30 2 1 2 3
M  V30 3 1 3 4
M  V30 4 1 4 5
M  V30 5 1 5 6
M  V30 6 2 6 7
M  V30 7 1 6 8
M  V30 8 1 8 9
M  V30 9 2 9 10
M  V30 10 1 9 11
M  V30 11 1 11 12
M  V30 12 2 12 13
M  V30 13 1 12 14
M  V30 14 1 12 15
M  V30 15 1 9 16
M  V30 16 1 6 17
M  V30 17 1 3 18
M  V30 18 1 18 19
M  V30 19 1 19 20
M  V30 20 1 20 21
M  V30 21 1 19 22
M  V30 22 1 22 23
M  V30 23 2 23 24
M  V30 24 1 24 25
M  V30 25 2 25 26
M  V30 26 1 26 27
M  V30 27 2 27 28
M  V30 28 1 28 29
M  V30 29 2 29 30
M  V30 30 1 30 31
M  V30 31 1 20 2
M  V30 32 1 26 22
M  V30 33 1 30 25
M  V30 34 1 1 32
M  V30 35 1 2 33 CFG=3
M  V30 36 1 3 34 CFG=3
M  V30 37 1 4 35
M  V30 38 1 4 36
M  V30 39 1 14 37
M  V30 40 1 15 38
M  V30 41 1 16 39
M  V30 42 1 17 40
M  V30 43 1 19 41 CFG=3
M  V30 44 1 20 42
M  V30 45 1 21 43
M  V30 46 1 21 44
M  V30 47 1 23 45
M  V30 48 1 28 46
M  V30 49 1 31 47
M  V30 50 1 31 48
M  V30 END BOND
M  V30 END CTAB
M  END
