
     RDKit          3D

  0  0  0  0  0  0  0  0  0  0999 V3000
M  V30 BEGIN CTAB
M  V30 COUNTS 91 91 0 0 0
M  V30 BEGIN ATOM
M  V30 1 C 9.63746 -1.45886 0.632515 0
M  V30 2 C 9.25555 0.00243634 0.749241 0
M  V30 3 C 10.4269 0.859502 1.07567 0
M  V30 4 C 8.44661 0.452502 -0.419004 0 CFG=2
M  V30 5 N 7.21836 -0.315943 -0.498626 0
M  V30 6 C 5.97588 0.303304 -0.800368 0
M  V30 7 O 5.97908 1.52377 -1.00361 0
M  V30 8 C 4.77743 -0.500425 -0.853888 0 CFG=2
M  V30 9 C 4.96124 -1.50628 -1.98701 0
M  V30 10 N 3.5207 0.184812 -1.12622 0
M  V30 11 C 2.44558 0.162189 -0.239075 0
M  V30 12 O 2.68646 -0.497685 0.857805 0
M  V30 13 C 1.15681 0.731266 -0.374493 0 CFG=2
M  V30 14 C 0.896568 2.18591 -0.251007 0
M  V30 15 C 1.5235 3.18384 -1.09389 0
M  V30 16 C 2.92507 3.53203 -0.942659 0
M  V30 17 O 3.68336 4.09488 -1.95474 0
M  V30 18 O 3.50302 3.32153 0.154064 0
M  V30 19 N 0.230473 0.14609 0.659804 0
M  V30 20 C -1.12525 -0.06214 0.405689 0
M  V30 21 O -1.60301 0.253737 -0.712202 0
M  V30 22 C -2.05454 -0.64714 1.41224 0 CFG=2
M  V30 23 C -2.33289 -2.11216 1.09762 0
M  V30 24 C -3.25612 -2.67977 2.13037 0
M  V30 25 C -3.59341 -4.13835 1.91711 0
M  V30 26 C -4.52584 -4.5583 3.04126 0
M  V30 27 N -5.73582 -3.76957 3.03717 0
M  V30 28 N -3.29637 0.048355 1.49138 0
M  V30 29 C -4.37282 0.082323 0.576953 0
M  V30 30 O -4.30556 -0.573493 -0.487487 0
M  V30 31 C -5.58737 0.876619 0.832781 0 CFG=2
M  V30 32 C -6.38122 0.350194 2.00022 0
M  V30 33 C -7.7163 -0.119862 1.43284 0
M  V30 34 C -7.57665 0.00354573 -0.0866083 0
M  V30 35 N -6.50505 0.982298 -0.260499 0
M  V30 36 C -6.41657 1.9044 -1.31803 0
M  V30 37 O -5.4158 2.69768 -1.30408 0
M  V30 38 C -7.34602 2.07428 -2.44143 0 CFG=1
M  V30 39 N -7.22463 3.49927 -2.87803 0
M  V30 40 C -6.98442 1.31103 -3.69735 0
M  V30 41 S -6.90262 -0.454054 -3.52726 0
M  V30 42 C 9.21061 0.325298 -1.70657 0
M  V30 43 O 10.411 0.966752 -1.94469 0
M  V30 44 O 8.75588 -0.402851 -2.65046 0
M  V30 45 H 10.7025 -1.56468 0.883718 0
M  V30 46 H 9.01625 -2.10798 1.27498 0
M  V30 47 H 9.51794 -1.84871 -0.402373 0
M  V30 48 H 8.56458 0.0437797 1.65116 0
M  V30 49 H 11.2365 0.667098 0.331434 0
M  V30 50 H 10.8135 0.542716 2.09247 0
M  V30 51 H 10.1385 1.91773 1.08849 0
M  V30 52 H 8.16424 1.50611 -0.34486 0
M  V30 53 H 7.23984 -1.33333 -0.333888 0
M  V30 54 H 4.61284 -1.09994 0.0852006 0
M  V30 55 H 5.70652 -2.28212 -1.77292 0
M  V30 56 H 5.31141 -0.903142 -2.87581 0
M  V30 57 H 3.97594 -1.91027 -2.27495 0
M  V30 58 H 3.45623 0.691584 -2.02445 0
M  V30 59 H 0.654759 0.34312 -1.3273 0
M  V30 60 H -0.249247 2.34577 -0.308471 0
M  V30 61 H 1.07177 2.49415 0.838871 0
M  V30 62 H 1.4389 2.78559 -2.18081 0
M  V30 63 H 0.854316 4.09203 -1.16165 0
M  V30 64 H 4.2194 3.54475 -2.62783 0
M  V30 65 H 0.647187 -0.0950519 1.56897 0
M  V30 66 H -1.54378 -0.661141 2.40855 0
M  V30 67 H -1.37762 -2.71804 1.19037 0
M  V30 68 H -2.66896 -2.29315 0.0750639 0
M  V30 69 H -4.22838 -2.13588 2.035 0
M  V30 70 H -2.90409 -2.53067 3.15969 0
M  V30 71 H -4.11067 -4.30593 0.963521 0
M  V30 72 H -2.69002 -4.80078 1.99114 0
M  V30 73 H -3.99706 -4.34943 3.99756 0
M  V30 74 H -4.83169 -5.6256 2.945 0
M  V30 75 H -5.8533 -3.19957 3.89901 0
M  V30 76 H -5.89788 -3.24579 2.15875 0
M  V30 77 H -3.41067 0.633024 2.40602 0
M  V30 78 H -5.20979 1.88914 1.16943 0
M  V30 79 H -5.81863 -0.452698 2.5032 0
M  V30 80 H -6.57272 1.13327 2.78064 0
M  V30 81 H -7.82821 -1.18807 1.66115 0
M  V30 82 H -8.55703 0.471671 1.80309 0
M  V30 83 H -7.33665 -0.980784 -0.525357 0
M  V30 84 H -8.54062 0.343246 -0.498771 0
M  V30 85 H -8.41317 1.88227 -2.15722 0
M  V30 86 H -6.18701 3.65702 -2.97546 0
M  V30 87 H -7.66852 4.09916 -2.16237 0
M  V30 88 H -7.77375 1.53822 -4.47625 0
M  V30 89 H -6.03423 1.71743 -4.12656 0
M  V30 90 H -5.58842 -0.906875 -3.70108 0
M  V30 91 H 10.5798 1.93782 -1.63568 0
M  V30 END ATOM
M  V30 BEGIN BOND
M  V30 1 1 1 2
M  V30 2 1 2 3
M  V30 3 1 2 4
M  V30 4 1 4 5
M  V30 5 1 5 6
M  V30 6 2 6 7
M  V30 7 1 6 8
M  V30 8 1 8 9
M  V30 9 1 8 10
M  V30 10 1 10 11
M  V30 11 2 11 12
M  V30 12 1 11 13
M  V30 13 1 13 14
M  V30 14 1 14 15
M  V30 15 1 15 16
M  V30 16 1 16 17
M  V30 17 2 16 18
M  V30 18 1 13 19
M  V30 19 1 19 20
M  V30 20 2 20 21
M  V30 21 1 20 22
M  V30 22 1 22 23
M  V30 23 1 23 24
M  V30 24 1 24 25
M  V30 25 1 25 26
M  V30 26 1 26 27
M  V30 27 1 22 28
M  V30 28 1 28 29
M  V30 29 2 29 30
M  V30 30 1 29 31
M  V30 31 1 31 32
M  V30 32 1 32 33
M  V30 33 1 33 34
M  V30 34 1 34 35
M  V30 35 1 35 36
M  V30 36 2 36 37
M  V30 37 1 36 38
M  V30 38 1 38 39
M  V30 39 1 38 40
M  V30 40 1 40 41
M  V30 41 1 4 42
M  V30 42 1 42 43
M  V30 43 2 42 44
M  V30 44 1 35 31
M  V30 45 1 1 45
M  V30 46 1 1 46
M  V30 47 1 1 47
M  V30 48 1 2 48
M  V30 49 1 3 49
M  V30 50 1 3 50
M  V30 51 1 3 51
M  V30 52 1 4 52 CFG=1
M  V30 53 1 5 53
M  V30 54 1 8 54 CFG=1
M  V30 55 1 9 55
M  V30 56 1 9 56
M  V30 57 1 9 57
M  V30 58 1 10 58
M  V30 59 1 13 59 CFG=3
M  V30 60 1 14 60
M  V30 61 1 14 61
M  V30 62 1 15 62
M  V30 63 1 15 63
M  V30 64 1 17 64
M  V30 65 1 19 65
M  V30 66 1 22 66 CFG=1
M  V30 67 1 23 67
M  V30 68 1 23 68
M  V30 69 1 24 69
M  V30 70 1 24 70
M  V30 71 1 25 71
M  V30 72 1 25 72
M  V30 73 1 26 73
M  V30 74 1 26 74
M  V30 75 1 27 75
M  V30 76 1 27 76
M  V30 77 1 28 77
M  V30 78 1 31 78 CFG=1
M  V30 79 1 32 79
M  V30 80 1 32 80
M  V30 81 1 33 81
M  V30 82 1 33 82
M  V30 83 1 34 83
M  V30 84 1 34 84
M  V30 85 1 38 85 CFG=1
M  V30 86 1 39 86
M  V30 87 1 39 87
M  V30 88 1 40 88
M  V30 89 1 40 89
M  V30 90 1 41 90
M  V30 91 1 43 91
M  V30 END BOND
M  V30 END CTAB
M  END
