
     RDKit          3D

  0  0  0  0  0  0  0  0  0  0999 V3000
M  V30 BEGIN CTAB
M  V30 COUNTS 30 31 0 0 0
M  V30 BEGIN ATOM
M  V30 1 N 4.52059 -0.644393 -0.521688 0
M  V30 2 C 3.84485 0.564339 -0.0723257 0
M  V30 3 C 2.36029 0.495817 -0.174892 0
M  V30 4 C 1.67195 1.52438 -0.81294 0
M  V30 5 N 0.331624 1.45673 -0.84343 0
M  V30 6 C -0.356507 0.442192 -0.28264 0
M  V30 7 N 0.348464 -0.510777 0.310392 0
M  V30 8 C 1.67315 -0.541468 0.396283 0
M  V30 9 N 2.41126 -1.57349 1.0335 0
M  V30 10 C -1.81943 0.480572 -0.34193 0
M  V30 11 C -2.43032 0.446945 1.08567 0
M  V30 12 C -3.90423 0.358736 0.726572 0
M  V30 13 C -3.89689 -0.612829 -0.409477 0
M  V30 14 C -2.48726 -0.698538 -0.951826 0
M  V30 15 H 5.18673 -0.914058 0.262544 0
M  V30 16 H 5.10422 -0.541889 -1.37141 0
M  V30 17 H 4.18686 0.922851 0.901931 0
M  V30 18 H 4.16831 1.38077 -0.829904 0
M  V30 19 H 2.18488 2.3482 -1.25961 0
M  V30 20 H 2.62144 -1.55724 2.07679 0
M  V30 21 H 2.79002 -2.42176 0.518227 0
M  V30 22 H -2.20815 1.38918 -0.822028 0
M  V30 23 H -2.10685 -0.434833 1.63816 0
M  V30 24 H -2.24794 1.4013 1.61455 0
M  V30 25 H -4.49577 0.0399034 1.6086 0
M  V30 26 H -4.22036 1.37751 0.403914 0
M  V30 27 H -4.57953 -0.250736 -1.20909 0
M  V30 28 H -4.1956 -1.64168 -0.0616183 0
M  V30 29 H -1.9491 -1.59631 -0.569572 0
M  V30 30 H -2.5067 -0.689428 -2.04275 0
M  V30 END ATOM
M  V30 BEGIN BOND
M  V30 1 1 1 2
M  V30 2 1 2 3
M  V30 3 2 3 4
M  V30 4 1 4 5
M  V30 5 2 5 6
M  V30 6 1 6 7
M  V30 7 2 7 8
M  V30 8 1 8 9
M  V30 9 1 6 10
M  V30 10 1 10 11
M  V30 11 1 11 12
M  V30 12 1 12 13
M  V30 13 1 13 14
M  V30 14 1 8 3
M  V30 15 1 14 10
M  V30 16 1 1 15
M  V30 17 1 1 16
M  V30 18 1 2 17
M  V30 19 1 2 18
M  V30 20 1 4 19
M  V30 21 1 9 20
M  V30 22 1 9 21
M  V30 23 1 10 22
M  V30 24 1 11 23
M  V30 25 1 11 24
M  V30 26 1 12 25
M  V30 27 1 12 26
M  V30 28 1 13 27
M  V30 29 1 13 28
M  V30 30 1 14 29
M  V30 31 1 14 30
M  V30 END BOND
M  V30 END CTAB
M  END
