
     RDKit          3D

  0  0  0  0  0  0  0  0  0  0999 V3000
M  V30 BEGIN CTAB
M  V30 COUNTS 30 31 0 0 0
M  V30 BEGIN ATOM
M  V30 1 N -2.40033 -0.832835 1.7648 0
M  V30 2 C -1.51529 -0.177438 0.851362 0
M  V30 3 C -2.24829 1.07485 0.349967 0
M  V30 4 C -3.41861 0.44267 -0.377091 0
M  V30 5 C -2.86706 -0.797887 -1.01095 0
M  V30 6 C -1.45274 -0.966738 -0.459446 0
M  V30 7 S -0.346567 -0.077299 -1.56241 0
M  V30 8 C 1.33794 -0.0742729 -0.970369 0
M  V30 9 C 2.20279 -1.08647 -1.34288 0
M  V30 10 C 3.51412 -1.12807 -0.912526 0
M  V30 11 C 4.01157 -0.145389 -0.0836894 0
M  V30 12 C 3.15302 0.866898 0.291031 0
M  V30 13 C 1.83727 0.9073 -0.141675 0
M  V30 14 N 3.66738 1.87934 1.1448 0
M  V30 15 H -2.17251 -0.739358 2.75723 0
M  V30 16 H -2.77781 -1.73298 1.45608 0
M  V30 17 H -0.524875 0.0537554 1.24635 0
M  V30 18 H -1.6469 1.61307 -0.410741 0
M  V30 19 H -2.58892 1.70502 1.17979 0
M  V30 20 H -3.88012 1.13465 -1.11044 0
M  V30 21 H -4.1991 0.191228 0.393639 0
M  V30 22 H -3.48741 -1.67636 -0.741551 0
M  V30 23 H -2.87445 -0.693777 -2.10501 0
M  V30 24 H -1.17282 -2.0082 -0.314525 0
M  V30 25 H 1.80195 -1.86428 -2.00032 0
M  V30 26 H 4.17068 -1.94672 -1.22911 0
M  V30 27 H 5.04444 -0.160384 0.26668 0
M  V30 28 H 1.16612 1.7044 0.154684 0
M  V30 29 H 3.05844 2.68916 1.37092 0
M  V30 30 H 4.60809 1.84613 1.54541 0
M  V30 END ATOM
M  V30 BEGIN BOND
M  V30 1 1 1 2
M  V30 2 1 2 3
M  V30 3 1 3 4
M  V30 4 1 4 5
M  V30 5 1 5 6
M  V30 6 1 6 7
M  V30 7 1 7 8
M  V30 8 2 8 9
M  V30 9 1 9 10
M  V30 10 2 10 11
M  V30 11 1 11 12
M  V30 12 2 12 13
M  V30 13 1 12 14
M  V30 14 1 6 2
M  V30 15 1 13 8
M  V30 16 1 1 15
M  V30 17 1 1 16
M  V30 18 1 2 17
M  V30 19 1 3 18
M  V30 20 1 3 19
M  V30 21 1 4 20
M  V30 22 1 4 21
M  V30 23 1 5 22
M  V30 24 1 5 23
M  V30 25 1 6 24
M  V30 26 1 9 25
M  V30 27 1 10 26
M  V30 28 1 11 27
M  V30 29 1 13 28
M  V30 30 1 14 29
M  V30 31 1 14 30
M  V30 END BOND
M  V30 END CTAB
M  END
