
     RDKit          3D

  0  0  0  0  0  0  0  0  0  0999 V3000
M  V30 BEGIN CTAB
M  V30 COUNTS 53 55 0 0 0
M  V30 BEGIN ATOM
M  V30 1 N 6.75122 1.83385 0.975321 0
M  V30 2 C 5.43396 1.29173 0.693841 0
M  V30 3 C 5.32639 0.694592 -0.669459 0
M  V30 4 C 4.83945 -0.582209 -0.0839168 0
M  V30 5 C 5.17549 -0.0673798 1.29304 0
M  V30 6 C 3.41338 -0.904501 -0.316545 0
M  V30 7 C 2.39269 -0.0138472 -0.129094 0
M  V30 8 C 1.06468 -0.341304 -0.354331 0
M  V30 9 N 0.036487 0.613584 -0.15293 0
M  V30 10 C -1.37078 0.339933 -0.358552 0
M  V30 11 C -1.87376 -0.715747 0.564873 0
M  V30 12 C -3.35423 -0.89413 0.338408 0
M  V30 13 C -3.83511 -1.8528 1.43971 0
M  V30 14 C -3.56195 -1.65286 -0.967752 0
M  V30 15 N -4.14005 0.260789 0.397129 0
M  V30 16 C -3.582 1.49555 0.0148358 0
M  V30 17 C -2.12582 1.61155 -0.0803925 0
M  V30 18 C -4.08222 2.54636 1.02109 0
M  V30 19 C -4.21076 1.90741 -1.31733 0
M  V30 20 N 0.859494 -1.60358 -0.771589 0
M  V30 21 C 1.82611 -2.49264 -0.963504 0
M  V30 22 N 3.08783 -2.13301 -0.734187 0
M  V30 23 N 1.48756 -3.81007 -1.41026 0
M  V30 24 H 7.12166 2.41169 0.202917 0
M  V30 25 H 7.40946 1.13581 1.35772 0
M  V30 26 H 4.63246 1.99673 1.00159 0
M  V30 27 H 6.32485 0.567541 -1.14168 0
M  V30 28 H 4.65627 1.21218 -1.38471 0
M  V30 29 H 5.50719 -1.46589 -0.307373 0
M  V30 30 H 6.13908 -0.467264 1.70102 0
M  V30 31 H 4.33833 -0.103881 2.01981 0
M  V30 32 H 2.61987 0.979149 0.205009 0
M  V30 33 H 0.354174 1.57762 0.168315 0
M  V30 34 H -1.48326 0.000464038 -1.40978 0
M  V30 35 H -1.42611 -1.71051 0.373534 0
M  V30 36 H -1.66249 -0.478115 1.62452 0
M  V30 37 H -3.25869 -2.77589 1.3648 0
M  V30 38 H -3.54777 -1.35826 2.40204 0
M  V30 39 H -4.92606 -1.98219 1.39833 0
M  V30 40 H -4.37958 -2.39804 -0.853924 0
M  V30 41 H -2.62444 -2.2424 -1.1853 0
M  V30 42 H -3.81473 -0.956846 -1.78777 0
M  V30 43 H -4.89821 0.287585 1.08694 0
M  V30 44 H -1.679 2.04795 0.85169 0
M  V30 45 H -1.8468 2.34013 -0.894068 0
M  V30 46 H -5.1434 2.77222 0.861886 0
M  V30 47 H -3.44419 3.43667 1.00796 0
M  V30 48 H -4.00185 2.09485 2.04036 0
M  V30 49 H -5.30982 1.70121 -1.2182 0
M  V30 50 H -3.75732 1.41092 -2.17217 0
M  V30 51 H -4.1338 3.03081 -1.36925 0
M  V30 52 H 1.94256 -4.27376 -2.22255 0
M  V30 53 H 0.733547 -4.32174 -0.873676 0
M  V30 END ATOM
M  V30 BEGIN BOND
M  V30 1 1 1 2
M  V30 2 1 2 3
M  V30 3 1 3 4
M  V30 4 1 4 5
M  V30 5 1 4 6
M  V30 6 2 6 7
M  V30 7 1 7 8
M  V30 8 1 8 9
M  V30 9 1 9 10
M  V30 10 1 10 11
M  V30 11 1 11 12
M  V30 12 1 12 13
M  V30 13 1 12 14
M  V30 14 1 12 15
M  V30 15 1 15 16
M  V30 16 1 16 17
M  V30 17 1 16 18
M  V30 18 1 16 19
M  V30 19 2 8 20
M  V30 20 1 20 21
M  V30 21 2 21 22
M  V30 22 1 21 23
M  V30 23 1 5 2
M  V30 24 1 22 6
M  V30 25 1 17 10
M  V30 26 1 1 24
M  V30 27 1 1 25
M  V30 28 1 2 26
M  V30 29 1 3 27
M  V30 30 1 3 28
M  V30 31 1 4 29
M  V30 32 1 5 30
M  V30 33 1 5 31
M  V30 34 1 7 32
M  V30 35 1 9 33
M  V30 36 1 10 34
M  V30 37 1 11 35
M  V30 38 1 11 36
M  V30 39 1 13 37
M  V30 40 1 13 38
M  V30 41 1 13 39
M  V30 42 1 14 40
M  V30 43 1 14 41
M  V30 44 1 14 42
M  V30 45 1 15 43
M  V30 46 1 17 44
M  V30 47 1 17 45
M  V30 48 1 18 46
M  V30 49 1 18 47
M  V30 50 1 18 48
M  V30 51 1 19 49
M  V30 52 1 19 50
M  V30 53 1 19 51
M  V30 54 1 23 52
M  V30 55 1 23 53
M  V30 END BOND
M  V30 END CTAB
M  END
