
     RDKit          3D

  0  0  0  0  0  0  0  0  0  0999 V3000
M  V30 BEGIN CTAB
M  V30 COUNTS 31 32 0 0 0
M  V30 BEGIN ATOM
M  V30 1 N -4.62998 0.607808 1.55214 0
M  V30 2 C -3.49661 0.4512 0.717525 0
M  V30 3 C -2.9311 1.60853 0.168056 0
M  V30 4 C -1.82854 1.45572 -0.643785 0
M  V30 5 C -1.29187 0.216478 -0.913496 0
M  V30 6 C -0.124641 0.0741326 -1.77503 0
M  V30 7 C 1.16813 0.129415 -1.06854 0
M  V30 8 C 1.71504 -1.04161 -0.598701 0
M  V30 9 C 2.92072 -1.06223 0.0705418 0
M  V30 10 C 3.50957 -2.28535 0.571008 0
M  V30 11 N 3.9763 -3.27359 0.961998 0
M  V30 12 C 3.59095 0.126068 0.270844 0
M  V30 13 N 4.84783 0.0825418 0.971659 0
M  V30 14 C 3.05942 1.30963 -0.192292 0
M  V30 15 C 1.85571 1.29405 -0.855258 0
M  V30 16 C -1.86096 -0.9188 -0.363716 0
M  V30 17 C -2.97453 -0.803135 0.460388 0
M  V30 18 C -3.6093 -1.94435 1.06017 0
M  V30 19 N -4.1165 -2.88043 1.53445 0
M  V30 20 H -5.58246 0.647075 1.14172 0
M  V30 21 H -4.53403 0.68625 2.58551 0
M  V30 22 H -3.33818 2.58238 0.369002 0
M  V30 23 H -1.34412 2.29657 -1.09822 0
M  V30 24 H -0.206885 -0.903139 -2.30661 0
M  V30 25 H -0.0968116 0.846145 -2.58222 0
M  V30 26 H 1.22009 -2.00898 -0.733744 0
M  V30 27 H 5.74293 0.318303 0.499786 0
M  V30 28 H 4.79749 -0.197435 1.96903 0
M  V30 29 H 3.6117 2.24625 -0.0211369 0
M  V30 30 H 1.44529 2.24872 -1.2187 0
M  V30 31 H -1.49464 -1.90822 -0.532376 0
M  V30 END ATOM
M  V30 BEGIN BOND
M  V30 1 1 1 2
M  V30 2 2 2 3
M  V30 3 1 3 4
M  V30 4 2 4 5
M  V30 5 1 5 6
M  V30 6 1 6 7
M  V30 7 2 7 8
M  V30 8 1 8 9
M  V30 9 1 9 10
M  V30 10 3 10 11
M  V30 11 2 9 12
M  V30 12 1 12 13
M  V30 13 1 12 14
M  V30 14 2 14 15
M  V30 15 1 5 16
M  V30 16 2 16 17
M  V30 17 1 17 18
M  V30 18 3 18 19
M  V30 19 1 17 2
M  V30 20 1 15 7
M  V30 21 1 1 20
M  V30 22 1 1 21
M  V30 23 1 3 22
M  V30 24 1 4 23
M  V30 25 1 6 24
M  V30 26 1 6 25
M  V30 27 1 8 26
M  V30 28 1 13 27
M  V30 29 1 13 28
M  V30 30 1 14 29
M  V30 31 1 15 30
M  V30 32 1 16 31
M  V30 END BOND
M  V30 END CTAB
M  END
