
     RDKit          3D

  0  0  0  0  0  0  0  0  0  0999 V3000
M  V30 BEGIN CTAB
M  V30 COUNTS 32 33 0 0 0
M  V30 BEGIN ATOM
M  V30 1 C -2.71498 1.96404 0.294728 0
M  V30 2 C -3.12895 0.539377 0.390573 0
M  V30 3 N -2.0896 -0.428644 0.203509 0
M  V30 4 C -2.44928 -1.84123 0.342531 0
M  V30 5 C -2.80614 -2.22497 1.74193 0
M  V30 6 C -0.733418 -0.139409 -0.125105 0
M  V30 7 C -0.357275 0.38707 -1.34119 0
M  V30 8 Cl -1.60843 0.673514 -2.53285 0
M  V30 9 N 0.932397 0.662289 -1.61443 0
M  V30 10 C 1.9216 0.442991 -0.728612 0
M  V30 11 C 3.24218 0.73403 -1.02921 0
M  V30 12 N 3.59182 1.27808 -2.29628 0
M  V30 13 N 4.15878 0.481115 -0.0785043 0
M  V30 14 C 3.8301 -0.0338492 1.12359 0
M  V30 15 N 4.88757 -0.251886 2.03246 0
M  V30 16 N 2.54705 -0.302171 1.37903 0
M  V30 17 C 1.54905 -0.0859739 0.494506 0
M  V30 18 N 0.264408 -0.363282 0.775437 0
M  V30 19 H -3.06493 2.49026 1.22867 0
M  V30 20 H -1.61212 2.1297 0.274892 0
M  V30 21 H -3.22049 2.52887 -0.529601 0
M  V30 22 H -3.61004 0.335413 1.3543 0
M  V30 23 H -3.86018 0.365471 -0.452569 0
M  V30 24 H -3.28974 -2.09598 -0.369069 0
M  V30 25 H -1.61339 -2.50593 0.0201974 0
M  V30 26 H -3.48671 -3.11846 1.70519 0
M  V30 27 H -3.34947 -1.43988 2.30857 0
M  V30 28 H -1.9322 -2.50049 2.3601 0
M  V30 29 H 4.56019 1.20865 -2.66718 0
M  V30 30 H 2.88776 1.76293 -2.88926 0
M  V30 31 H 5.21969 -1.20618 2.24334 0
M  V30 32 H 5.33476 0.554534 2.49177 0
M  V30 END ATOM
M  V30 BEGIN BOND
M  V30 1 1 1 2
M  V30 2 1 2 3
M  V30 3 1 3 4
M  V30 4 1 4 5
M  V30 5 1 3 6
M  V30 6 2 6 7
M  V30 7 1 7 8
M  V30 8 1 7 9
M  V30 9 2 9 10
M  V30 10 1 10 11
M  V30 11 1 11 12
M  V30 12 2 11 13
M  V30 13 1 13 14
M  V30 14 1 14 15
M  V30 15 2 14 16
M  V30 16 1 16 17
M  V30 17 2 17 18
M  V30 18 1 18 6
M  V30 19 1 17 10
M  V30 20 1 1 19
M  V30 21 1 1 20
M  V30 22 1 1 21
M  V30 23 1 2 22
M  V30 24 1 2 23
M  V30 25 1 4 24
M  V30 26 1 4 25
M  V30 27 1 5 26
M  V30 28 1 5 27
M  V30 29 1 5 28
M  V30 30 1 12 29
M  V30 31 1 12 30
M  V30 32 1 15 31
M  V30 33 1 15 32
M  V30 END BOND
M  V30 END CTAB
M  END
