
     RDKit          3D

  0  0  0  0  0  0  0  0  0  0999 V3000
M  V30 BEGIN CTAB
M  V30 COUNTS 37 40 0 0 0
M  V30 BEGIN ATOM
M  V30 1 N 7.20979 -1.19042 0.00629689 0
M  V30 2 C 6.04561 -0.397221 0.0503041 0
M  V30 3 N 4.88319 -0.909026 -0.0038239 0
M  V30 4 C 3.73747 -0.0315278 0.0467711 0
M  V30 5 S 3.66103 1.66809 0.173581 0
M  V30 6 C 1.96269 1.8468 0.164194 0
M  V30 7 C 1.54338 0.540417 0.0602995 0
M  V30 8 N 2.46156 -0.374357 0.00383499 0
M  V30 9 C 0.105412 0.209632 0.0161181 0
M  V30 10 C -0.857584 1.18788 0.0767617 0
M  V30 11 C -2.21037 0.87135 0.0348236 0
M  V30 12 C -3.27186 1.89242 0.0973082 0
M  V30 13 C -4.49927 1.25329 0.735089 0
M  V30 14 C -4.99685 0.0554654 -0.0638275 0
M  V30 15 N -3.88805 -0.91369 -0.121875 0
M  V30 16 C -2.55379 -0.447627 -0.0689538 0
M  V30 17 C -1.64372 -1.46521 -0.133265 0
M  V30 18 C -0.305109 -1.09784 -0.0876952 0
M  V30 19 C -2.39606 -2.74265 -0.239402 0
M  V30 20 C -3.81576 -2.32895 -0.22732 0
M  V30 21 O -4.82419 -3.08643 -0.297788 0
M  V30 22 N 6.20881 1.0016 0.157713 0
M  V30 23 H 7.9366 -0.952867 -0.716684 0
M  V30 24 H 7.41395 -1.99192 0.627294 0
M  V30 25 H 1.34329 2.76204 0.224706 0
M  V30 26 H -0.591817 2.24592 0.159879 0
M  V30 27 H -3.56178 2.26149 -0.916306 0
M  V30 28 H -3.00119 2.74302 0.737326 0
M  V30 29 H -4.1973 0.875611 1.72544 0
M  V30 30 H -5.3074 1.99215 0.853759 0
M  V30 31 H -5.84318 -0.360393 0.511839 0
M  V30 32 H -5.34756 0.34292 -1.05315 0
M  V30 33 H 0.416263 -1.9051 -0.138725 0
M  V30 34 H -2.2353 -3.34287 0.697001 0
M  V30 35 H -2.12678 -3.32201 -1.14607 0
M  V30 36 H 6.21903 1.48833 1.09449 0
M  V30 37 H 6.32688 1.62169 -0.678017 0
M  V30 END ATOM
M  V30 BEGIN BOND
M  V30 1 1 1 2
M  V30 2 2 2 3 CFG=2
M  V30 3 1 3 4
M  V30 4 1 4 5
M  V30 5 1 5 6
M  V30 6 2 6 7
M  V30 7 1 7 8
M  V30 8 1 7 9
M  V30 9 2 9 10
M  V30 10 1 10 11
M  V30 11 1 11 12
M  V30 12 1 12 13
M  V30 13 1 13 14
M  V30 14 1 14 15
M  V30 15 1 15 16
M  V30 16 1 16 17
M  V30 17 2 17 18
M  V30 18 1 17 19
M  V30 19 1 19 20
M  V30 20 2 20 21
M  V30 21 1 2 22
M  V30 22 2 8 4
M  V30 23 1 18 9
M  V30 24 2 16 11
M  V30 25 1 20 15
M  V30 26 1 1 23
M  V30 27 1 1 24
M  V30 28 1 6 25
M  V30 29 1 10 26
M  V30 30 1 12 27
M  V30 31 1 12 28
M  V30 32 1 13 29
M  V30 33 1 13 30
M  V30 34 1 14 31
M  V30 35 1 14 32
M  V30 36 1 18 33
M  V30 37 1 19 34
M  V30 38 1 19 35
M  V30 39 1 22 36
M  V30 40 1 22 37
M  V30 END BOND
M  V30 END CTAB
M  END
