
     RDKit          3D

  0  0  0  0  0  0  0  0  0  0999 V3000
M  V30 BEGIN CTAB
M  V30 COUNTS 17 17 0 0 0
M  V30 BEGIN ATOM
M  V30 1 N 2.91358 -0.402685 0.190974 0
M  V30 2 N 1.80784 0.474968 0.14738 0
M  V30 3 C 0.502616 -0.0818903 0.0331617 0
M  V30 4 C -0.591717 0.747462 -0.0115182 0
M  V30 5 N -0.367887 2.1404 0.059188 0
M  V30 6 C -1.89005 0.262925 -0.122387 0
M  V30 7 C -2.06959 -1.10249 -0.188879 0
M  V30 8 C -0.946564 -1.91545 -0.14153 0
M  V30 9 N 0.296481 -1.40704 -0.0336268 0
M  V30 10 H 2.8862 -1.02162 1.02817 0
M  V30 11 H 3.01626 -0.936832 -0.704109 0
M  V30 12 H 1.9414 1.4898 0.196804 0
M  V30 13 H -0.433455 2.74041 -0.791541 0
M  V30 14 H -0.138417 2.55674 0.964637 0
M  V30 15 H -2.72463 0.949419 -0.154328 0
M  V30 16 H -3.07117 -1.51452 -0.275907 0
M  V30 17 H -1.1309 -2.97961 -0.196486 0
M  V30 END ATOM
M  V30 BEGIN BOND
M  V30 1 1 1 2
M  V30 2 1 2 3
M  V30 3 2 3 4
M  V30 4 1 4 5
M  V30 5 1 4 6
M  V30 6 2 6 7
M  V30 7 1 7 8
M  V30 8 2 8 9
M  V30 9 1 9 3
M  V30 10 1 1 10
M  V30 11 1 1 11
M  V30 12 1 2 12
M  V30 13 1 5 13
M  V30 14 1 5 14
M  V30 15 1 6 15
M  V30 16 1 7 16
M  V30 17 1 8 17
M  V30 END BOND
M  V30 END CTAB
M  END
