
     RDKit          3D

  0  0  0  0  0  0  0  0  0  0999 V3000
M  V30 BEGIN CTAB
M  V30 COUNTS 18 18 0 0 0
M  V30 BEGIN ATOM
M  V30 1 N -1.92227 -1.42325 0.838593 0
M  V30 2 C -1.58248 -0.148166 0.280034 0
M  V30 3 C -0.116397 -0.0320017 0.0768653 0
M  V30 4 C 0.719312 -1.07061 0.413828 0
M  V30 5 C 2.07715 -0.911377 0.204509 0
M  V30 6 C 2.60255 0.245678 -0.325411 0
M  V30 7 N 1.73246 1.22402 -0.63403 0
M  V30 8 C 0.410261 1.11359 -0.448489 0
M  V30 9 N -0.463308 2.20407 -0.802698 0
M  V30 10 H -1.69779 -2.16574 0.132063 0
M  V30 11 H -2.93281 -1.44005 1.08133 0
M  V30 12 H -2.00234 0.69807 0.859241 0
M  V30 13 H -2.04496 -0.0735958 -0.743886 0
M  V30 14 H 0.30224 -1.99414 0.83655 0
M  V30 15 H 2.74124 -1.74043 0.473825 0
M  V30 16 H 3.67149 0.320055 -0.469294 0
M  V30 17 H -1.04553 2.1767 -1.6515 0
M  V30 18 H -0.448815 3.01717 -0.121532 0
M  V30 END ATOM
M  V30 BEGIN BOND
M  V30 1 1 1 2
M  V30 2 1 2 3
M  V30 3 2 3 4
M  V30 4 1 4 5
M  V30 5 2 5 6
M  V30 6 1 6 7
M  V30 7 2 7 8
M  V30 8 1 8 9
M  V30 9 1 8 3
M  V30 10 1 1 10
M  V30 11 1 1 11
M  V30 12 1 2 12
M  V30 13 1 2 13
M  V30 14 1 4 14
M  V30 15 1 5 15
M  V30 16 1 6 16
M  V30 17 1 9 17
M  V30 18 1 9 18
M  V30 END BOND
M  V30 END CTAB
M  END
