
     RDKit          3D

  0  0  0  0  0  0  0  0  0  0999 V3000
M  V30 BEGIN CTAB
M  V30 COUNTS 30 30 0 0 0
M  V30 BEGIN ATOM
M  V30 1 N 0.716455 -2.23667 0.048382 0
M  V30 2 C -0.358862 -1.32916 0.405759 0
M  V30 3 C -1.45325 -1.48152 -0.586471 0
M  V30 4 C -2.4607 -0.361801 -0.575963 0
M  V30 5 C -1.91828 0.855564 -1.24757 0
M  V30 6 C -1.4472 1.81349 -0.195824 0
M  V30 7 C -0.692195 1.10036 0.929226 0
M  V30 8 C 0.239556 0.0664657 0.43237 0
M  V30 9 N 1.48293 -0.0459952 1.1217 0
M  V30 10 S 2.88902 0.182126 0.235543 0
M  V30 11 O 2.60226 -0.178718 -1.20505 0
M  V30 12 O 4.02391 -0.741184 0.654522 0
M  V30 13 N 3.43615 1.82725 0.194175 0
M  V30 14 H 1.09729 -2.7464 0.876143 0
M  V30 15 H 0.374355 -2.95489 -0.614338 0
M  V30 16 H -0.656082 -1.58882 1.4433 0
M  V30 17 H -1.07508 -1.60729 -1.60286 0
M  V30 18 H -2.01478 -2.41508 -0.335451 0
M  V30 19 H -3.32746 -0.721564 -1.20409 0
M  V30 20 H -2.87153 -0.187275 0.422689 0
M  V30 21 H -2.70467 1.39548 -1.84405 0
M  V30 22 H -1.12569 0.599821 -1.97913 0
M  V30 23 H -2.34105 2.27156 0.28926 0
M  V30 24 H -0.84677 2.64092 -0.612871 0
M  V30 25 H -0.227735 1.9092 1.52545 0
M  V30 26 H -1.42965 0.612166 1.62408 0
M  V30 27 H 0.48237 0.303012 -0.644835 0
M  V30 28 H 1.53985 -0.859172 1.73991 0
M  V30 29 H 4.0772 1.91337 -0.633526 0
M  V30 30 H 3.98962 1.96477 1.08805 0
M  V30 END ATOM
M  V30 BEGIN BOND
M  V30 1 1 1 2
M  V30 2 1 2 3
M  V30 3 1 3 4
M  V30 4 1 4 5
M  V30 5 1 5 6
M  V30 6 1 6 7
M  V30 7 1 7 8
M  V30 8 1 8 9
M  V30 9 1 9 10
M  V30 10 2 10 11
M  V30 11 2 10 12
M  V30 12 1 10 13
M  V30 13 1 8 2
M  V30 14 1 1 14
M  V30 15 1 1 15
M  V30 16 1 2 16
M  V30 17 1 3 17
M  V30 18 1 3 18
M  V30 19 1 4 19
M  V30 20 1 4 20
M  V30 21 1 5 21
M  V30 22 1 5 22
M  V30 23 1 6 23
M  V30 24 1 6 24
M  V30 25 1 7 25
M  V30 26 1 7 26
M  V30 27 1 8 27
M  V30 28 1 9 28
M  V30 29 1 13 29
M  V30 30 1 13 30
M  V30 END BOND
M  V30 END CTAB
M  END
