
     RDKit          3D

  0  0  0  0  0  0  0  0  0  0999 V3000
M  V30 BEGIN CTAB
M  V30 COUNTS 21 20 0 0 0
M  V30 BEGIN ATOM
M  V30 1 C 2.68435 -0.366396 0.400739 0
M  V30 2 C 1.24322 0.11276 0.506266 0
M  V30 3 C 0.553282 -0.0944734 -0.818586 0
M  V30 4 C -0.888913 0.353507 -0.829237 0
M  V30 5 N -0.924166 1.74502 -0.519456 0
M  V30 6 C -1.83913 -0.530854 -0.149673 0
M  V30 7 N -1.72763 -0.830793 1.1971 0
M  V30 8 H 3.12324 -0.146864 -0.590855 0
M  V30 9 H 2.68318 -1.44494 0.56802 0
M  V30 10 H 3.25233 0.108869 1.22383 0
M  V30 11 H 1.29753 1.19664 0.75906 0
M  V30 12 H 0.795235 -0.413358 1.34932 0
M  V30 13 H 1.16066 0.48625 -1.57048 0
M  V30 14 H 0.664934 -1.15073 -1.14015 0
M  V30 15 H -1.16932 0.311213 -1.93329 0
M  V30 16 H -1.2373 1.98073 0.43838 0
M  V30 17 H -1.47356 2.32812 -1.19044 0
M  V30 18 H -1.81348 -1.51839 -0.713399 0
M  V30 19 H -2.90078 -0.186242 -0.347397 0
M  V30 20 H -1.5451 -0.147195 1.89508 0
M  V30 21 H -1.93859 -1.79288 1.46517 0
M  V30 END ATOM
M  V30 BEGIN BOND
M  V30 1 1 1 2
M  V30 2 1 2 3
M  V30 3 1 3 4
M  V30 4 1 4 5
M  V30 5 1 4 6
M  V30 6 1 6 7
M  V30 7 1 1 8
M  V30 8 1 1 9
M  V30 9 1 1 10
M  V30 10 1 2 11
M  V30 11 1 2 12
M  V30 12 1 3 13
M  V30 13 1 3 14
M  V30 14 1 4 15
M  V30 15 1 5 16
M  V30 16 1 5 17
M  V30 17 1 6 18
M  V30 18 1 6 19
M  V30 19 1 7 20
M  V30 20 1 7 21
M  V30 END BOND
M  V30 END CTAB
M  END
