
     RDKit          3D

  0  0  0  0  0  0  0  0  0  0999 V3000
M  V30 BEGIN CTAB
M  V30 COUNTS 19 19 0 0 0
M  V30 BEGIN ATOM
M  V30 1 N -3.04727 1.03723 0.920445 0
M  V30 2 N -2.27562 -0.0370685 0.650249 0
M  V30 3 C -1.51451 -1.09671 0.383768 0
M  V30 4 O -1.4332 -2.18149 1.08363 0
M  V30 5 C -0.605475 -1.19324 -0.831735 0
M  V30 6 N 0.674005 -0.618062 -0.510895 0
M  V30 7 C 1.73062 -1.26122 0.0510579 0
M  V30 8 N 2.71717 -0.348462 0.144217 0
M  V30 9 C 2.29208 0.846181 -0.347723 0
M  V30 10 N 1.04784 0.620724 -0.728547 0
M  V30 11 N 3.04873 2.03969 -0.430495 0
M  V30 12 H -2.67549 1.98811 0.708116 0
M  V30 13 H -4.02071 0.947304 0.498829 0
M  V30 14 H -2.82607 -0.615184 1.74623 0
M  V30 15 H -0.522064 -2.2627 -1.08702 0
M  V30 16 H -1.03573 -0.6044 -1.6733 0
M  V30 17 H 1.77525 -2.28882 0.360442 0
M  V30 18 H 4.08728 2.09048 -0.27379 0
M  V30 19 H 2.58316 2.93764 -0.663486 0
M  V30 END ATOM
M  V30 BEGIN BOND
M  V30 1 1 1 2
M  V30 2 1 2 3
M  V30 3 2 3 4
M  V30 4 1 3 5
M  V30 5 1 5 6
M  V30 6 1 6 7
M  V30 7 2 7 8
M  V30 8 1 8 9
M  V30 9 2 9 10
M  V30 10 1 9 11
M  V30 11 1 10 6
M  V30 12 1 1 12
M  V30 13 1 1 13
M  V30 14 1 2 14
M  V30 15 1 5 15
M  V30 16 1 5 16
M  V30 17 1 7 17
M  V30 18 1 11 18
M  V30 19 1 11 19
M  V30 END BOND
M  V30 END CTAB
M  END
