
     RDKit          3D

  0  0  0  0  0  0  0  0  0  0999 V3000
M  V30 BEGIN CTAB
M  V30 COUNTS 38 39 0 0 0
M  V30 BEGIN ATOM
M  V30 1 C 1.48649 -4.00962 -0.269005 0
M  V30 2 O 1.27152 -2.70274 0.266744 0
M  V30 3 N 2.31113 -1.84833 0.235065 0
M  V30 4 C 2.29596 -0.593797 0.0383926 0
M  V30 5 C 1.07736 0.121221 -0.190923 0
M  V30 6 O 1.2365 1.40348 -0.372586 0
M  V30 7 N -0.234604 -0.365752 -0.244549 0
M  V30 8 C -1.31135 0.565159 -0.492477 0 CFG=2
M  V30 9 C -2.49673 0.564844 0.390156 0 CFG=2
M  V30 10 C -3.00843 -0.705953 0.965119 0
M  V30 11 N -2.11633 -1.43586 1.80277 0
M  V30 12 N -3.25697 0.887325 -0.805034 0
M  V30 13 C -2.26645 0.193967 -1.54154 0
M  V30 14 O -2.26797 -0.438205 -2.61148 0
M  V30 15 S -4.7161 1.74919 -1.07065 0
M  V30 16 O -4.45052 3.11139 -2.02077 0
M  V30 17 O -5.31914 2.15691 0.235559 0
M  V30 18 O -5.70162 0.821955 -1.74565 0
M  V30 19 C 3.60549 0.158031 0.0449442 0
M  V30 20 C 4.79046 -0.503466 0.26836 0
M  V30 21 S 5.92561 0.774157 0.166104 0
M  V30 22 C 4.82638 2.06653 -0.15331 0
M  V30 23 N 5.13372 3.43872 -0.351998 0
M  V30 24 N 3.67352 1.43172 -0.159358 0
M  V30 25 H 2.11995 -3.87417 -1.17084 0
M  V30 26 H 2.07145 -4.55043 0.509313 0
M  V30 27 H 0.526878 -4.49529 -0.461864 0
M  V30 28 H -0.451066 -1.35335 -0.12102 0
M  V30 29 H -0.964154 1.61659 -0.654801 0
M  V30 30 H -2.52168 1.41098 1.13057 0
M  V30 31 H -3.89819 -0.436031 1.60693 0
M  V30 32 H -3.46283 -1.36082 0.164936 0
M  V30 33 H -2.00114 -2.40785 1.38085 0
M  V30 34 H -2.46391 -1.56221 2.779 0
M  V30 35 H -4.87744 3.89076 -1.58825 0
M  V30 36 H 4.95525 -1.58013 0.462931 0
M  V30 37 H 5.94665 3.70877 -0.916626 0
M  V30 38 H 4.53231 4.15229 0.0756332 0
M  V30 END ATOM
M  V30 BEGIN BOND
M  V30 1 1 1 2
M  V30 2 1 2 3
M  V30 3 2 3 4
M  V30 4 1 4 5
M  V30 5 2 5 6
M  V30 6 1 5 7
M  V30 7 1 7 8
M  V30 8 1 8 9
M  V30 9 1 9 10
M  V30 10 1 10 11
M  V30 11 1 9 12
M  V30 12 1 12 13
M  V30 13 2 13 14
M  V30 14 1 12 15
M  V30 15 1 15 16
M  V30 16 2 15 17
M  V30 17 2 15 18
M  V30 18 1 4 19
M  V30 19 2 19 20
M  V30 20 1 20 21
M  V30 21 1 21 22
M  V30 22 1 22 23
M  V30 23 2 22 24
M  V30 24 1 13 8
M  V30 25 1 24 19
M  V30 26 1 1 25
M  V30 27 1 1 26
M  V30 28 1 1 27
M  V30 29 1 7 28
M  V30 30 1 8 29 CFG=3
M  V30 31 1 9 30 CFG=1
M  V30 32 1 10 31
M  V30 33 1 10 32
M  V30 34 1 11 33
M  V30 35 1 11 34
M  V30 36 1 16 35
M  V30 37 1 20 36
M  V30 38 1 23 37
M  V30 39 1 23 38
M  V30 END BOND
M  V30 END CTAB
M  END
