
     RDKit          3D

  0  0  0  0  0  0  0  0  0  0999 V3000
M  V30 BEGIN CTAB
M  V30 COUNTS 59 62 0 0 0
M  V30 BEGIN ATOM
M  V30 1 N 8.86946 0.375727 -1.06344 0
M  V30 2 C 7.75212 0.594467 -0.782125 0
M  V30 3 C 6.35815 0.879494 -0.451095 0
M  V30 4 C 6.08981 2.18694 -0.29692 0
M  V30 5 N 7.05396 3.22509 -0.440617 0
M  V30 6 N 4.83925 2.51688 0.00623793 0
M  V30 7 C 3.90573 1.54348 0.134608 0
M  V30 8 C 4.14596 0.168662 -0.0246625 0
M  V30 9 C 5.46996 -0.20514 -0.33182 0
M  V30 10 C 6.03641 -1.44948 -0.538968 0
M  V30 11 C 5.79415 -2.29613 0.715855 0
M  V30 12 C 5.87483 -2.39709 -1.62685 0
M  V30 13 C 3.05712 -0.608283 0.0574547 0
M  V30 14 N 2.97831 -2.02094 -0.261279 0
M  V30 15 C 1.81636 0.00728747 0.311278 0
M  V30 16 S 2.21905 1.63862 0.40907 0
M  V30 17 C 0.543134 -0.678813 0.447409 0
M  V30 18 O 0.601696 -2.00985 0.346645 0
M  V30 19 N -0.691233 -0.145738 0.651209 0
M  V30 20 C -1.80229 -1.13382 0.750419 0
M  V30 21 C -2.69497 -0.724493 -0.418631 0
M  V30 22 N -3.26134 0.550061 0.0652538 0
M  V30 23 C -2.46428 1.59057 0.571339 0
M  V30 24 C -0.988374 1.24287 0.735823 0
M  V30 25 C -4.67892 0.600223 -0.0158476 0
M  V30 26 C -5.30921 0.519546 -1.24619 0
M  V30 27 C -6.66102 0.425096 -1.2861 0
M  V30 28 C -7.4471 0.407305 -0.152157 0
M  V30 29 C -6.80671 0.493991 1.05847 0
M  V30 30 C -5.41947 0.591076 1.14612 0
M  V30 31 C -8.89031 0.260718 -0.231079 0
M  V30 32 O -9.41661 0.201042 -1.38683 0
M  V30 33 C -9.77816 0.172909 0.941341 0
M  V30 34 H 7.56682 3.35878 -1.3286 0
M  V30 35 H 7.2729 3.87955 0.34412 0
M  V30 36 H 7.17562 -1.36813 -0.49159 0
M  V30 37 H 5.08977 -1.75951 1.36891 0
M  V30 38 H 5.51063 -3.32649 0.543679 0
M  V30 39 H 6.76852 -2.26528 1.34855 0
M  V30 40 H 5.41321 -1.98428 -2.5518 0
M  V30 41 H 5.4081 -3.40391 -1.37621 0
M  V30 42 H 6.87173 -2.71447 -1.98547 0
M  V30 43 H 2.93012 -2.3932 -1.22444 0
M  V30 44 H 2.93622 -2.70684 0.52179 0
M  V30 45 H -1.39829 -2.12473 0.556037 0
M  V30 46 H -2.30942 -1.02589 1.6967 0
M  V30 47 H -2.13411 -0.618855 -1.34584 0
M  V30 48 H -3.47262 -1.48106 -0.501679 0
M  V30 49 H -2.87744 1.95929 1.52846 0
M  V30 50 H -2.51012 2.48489 -0.11951 0
M  V30 51 H -0.396356 1.82262 0.00167571 0
M  V30 52 H -0.668133 1.61271 1.75813 0
M  V30 53 H -4.72228 0.541031 -2.13168 0
M  V30 54 H -7.22383 0.35161 -2.22527 0
M  V30 55 H -7.36171 0.484786 1.99768 0
M  V30 56 H -4.9172 0.662419 2.10699 0
M  V30 57 H -10.8433 0.257212 0.623184 0
M  V30 58 H -9.52792 0.939551 1.68835 0
M  V30 59 H -9.67641 -0.848736 1.4039 0
M  V30 END ATOM
M  V30 BEGIN BOND
M  V30 1 3 1 2
M  V30 2 1 2 3
M  V30 3 2 3 4
M  V30 4 1 4 5
M  V30 5 1 4 6
M  V30 6 2 6 7
M  V30 7 1 7 8
M  V30 8 2 8 9
M  V30 9 1 9 10
M  V30 10 1 10 11
M  V30 11 1 10 12
M  V30 12 1 8 13
M  V30 13 1 13 14
M  V30 14 2 13 15
M  V30 15 1 15 16
M  V30 16 1 15 17
M  V30 17 2 17 18
M  V30 18 1 17 19
M  V30 19 1 19 20
M  V30 20 1 20 21
M  V30 21 1 21 22
M  V30 22 1 22 23
M  V30 23 1 23 24
M  V30 24 1 22 25
M  V30 25 2 25 26
M  V30 26 1 26 27
M  V30 27 2 27 28
M  V30 28 1 28 29
M  V30 29 2 29 30
M  V30 30 1 28 31
M  V30 31 2 31 32
M  V30 32 1 31 33
M  V30 33 1 9 3
M  V30 34 1 24 19
M  V30 35 1 30 25
M  V30 36 1 16 7
M  V30 37 1 5 34
M  V30 38 1 5 35
M  V30 39 1 10 36
M  V30 40 1 11 37
M  V30 41 1 11 38
M  V30 42 1 11 39
M  V30 43 1 12 40
M  V30 44 1 12 41
M  V30 45 1 12 42
M  V30 46 1 14 43
M  V30 47 1 14 44
M  V30 48 1 20 45
M  V30 49 1 20 46
M  V30 50 1 21 47
M  V30 51 1 21 48
M  V30 52 1 23 49
M  V30 53 1 23 50
M  V30 54 1 24 51
M  V30 55 1 24 52
M  V30 56 1 26 53
M  V30 57 1 27 54
M  V30 58 1 29 55
M  V30 59 1 30 56
M  V30 60 1 33 57
M  V30 61 1 33 58
M  V30 62 1 33 59
M  V30 END BOND
M  V30 END CTAB
M  END
