
     RDKit          3D

  0  0  0  0  0  0  0  0  0  0999 V3000
M  V30 BEGIN CTAB
M  V30 COUNTS 27 27 0 0 0
M  V30 BEGIN ATOM
M  V30 1 N 4.30898 -0.593419 0.823767 0
M  V30 2 C 2.93549 -0.745706 1.25938 0
M  V30 3 C 2.03609 -0.0590573 0.297834 0
M  V30 4 C 2.55513 0.585615 -0.800466 0
M  V30 5 C 1.77666 1.23241 -1.71606 0
M  V30 6 C 0.405944 1.22143 -1.50202 0
M  V30 7 C -0.162106 0.589943 -0.417644 0
M  V30 8 C 0.67283 -0.0459569 0.472543 0
M  V30 9 C -1.63983 0.646943 -0.296322 0
M  V30 10 N -2.12 -0.0480435 0.876029 0
M  V30 11 S -3.84886 0.0992086 0.890029 0
M  V30 12 O -4.36785 0.0913808 2.31116 0
M  V30 13 O -4.29113 1.3673 0.20737 0
M  V30 14 N -4.59575 -1.20254 0.0422092 0
M  V30 15 H 4.95485 -0.978324 1.56069 0
M  V30 16 H 4.43919 -1.20221 -0.0286448 0
M  V30 17 H 2.71846 -1.81777 1.31446 0
M  V30 18 H 2.86456 -0.238849 2.2512 0
M  V30 19 H 3.64212 0.57702 -0.942748 0
M  V30 20 H 2.19418 1.737 -2.57732 0
M  V30 21 H -0.186982 1.74352 -2.24616 0
M  V30 22 H 0.213761 -0.545773 1.33221 0
M  V30 23 H -2.10175 0.134984 -1.17922 0
M  V30 24 H -1.99091 1.69172 -0.271966 0
M  V30 25 H -1.81106 -1.04027 0.884198 0
M  V30 26 H -4.27187 -2.09884 0.430677 0
M  V30 27 H -4.33016 -1.1017 -0.973318 0
M  V30 END ATOM
M  V30 BEGIN BOND
M  V30 1 1 1 2
M  V30 2 1 2 3
M  V30 3 2 3 4
M  V30 4 1 4 5
M  V30 5 2 5 6
M  V30 6 1 6 7
M  V30 7 2 7 8
M  V30 8 1 7 9
M  V30 9 1 9 10
M  V30 10 1 10 11
M  V30 11 2 11 12
M  V30 12 2 11 13
M  V30 13 1 11 14
M  V30 14 1 8 3
M  V30 15 1 1 15
M  V30 16 1 1 16
M  V30 17 1 2 17
M  V30 18 1 2 18
M  V30 19 1 4 19
M  V30 20 1 5 20
M  V30 21 1 6 21
M  V30 22 1 8 22
M  V30 23 1 9 23
M  V30 24 1 9 24
M  V30 25 1 10 25
M  V30 26 1 14 26
M  V30 27 1 14 27
M  V30 END BOND
M  V30 END CTAB
M  END
