
     RDKit          3D

  0  0  0  0  0  0  0  0  0  0999 V3000
M  V30 BEGIN CTAB
M  V30 COUNTS 23 24 0 0 0
M  V30 BEGIN ATOM
M  V30 1 N -1.55085 0.115216 -1.88646 0
M  V30 2 C -1.37911 -0.252087 -0.538974 0 CFG=1
M  V30 3 C -0.263487 -1.2808 -0.321485 0
M  V30 4 C 0.45135 -0.859317 0.932406 0 CFG=2
M  V30 5 C -0.633696 -0.00968451 1.61829 0
M  V30 6 C -0.89437 0.849632 0.366909 0 CFG=1
M  V30 7 C 0.496013 1.23217 -0.103289 0
M  V30 8 C 1.41147 0.276387 0.637089 0 CFG=2
M  V30 9 N 2.54154 -0.143292 -0.0599019 0
M  V30 10 H -2.43254 -0.316708 -2.25214 0
M  V30 11 H -1.68947 1.14973 -1.97921 0
M  V30 12 H -2.30096 -0.67397 -0.0490353 0
M  V30 13 H 0.421155 -1.24261 -1.21083 0
M  V30 14 H -0.655092 -2.29661 -0.201027 0
M  V30 15 H 0.83853 -1.64013 1.54435 0
M  V30 16 H -0.228185 0.577377 2.4372 0
M  V30 17 H -1.51689 -0.605742 1.83933 0
M  V30 18 H -1.56505 1.65885 0.53199 0
M  V30 19 H 0.735193 2.28 0.0563888 0
M  V30 20 H 0.625354 1.00424 -1.18884 0
M  V30 21 H 1.70107 0.703654 1.61911 0
M  V30 22 H 3.42337 0.333081 0.0743876 0
M  V30 23 H 2.46467 -0.85938 -0.766701 0
M  V30 END ATOM
M  V30 BEGIN BOND
M  V30 1 1 1 2
M  V30 2 1 2 3
M  V30 3 1 3 4
M  V30 4 1 4 5
M  V30 5 1 5 6
M  V30 6 1 6 7
M  V30 7 1 7 8
M  V30 8 1 8 9
M  V30 9 1 6 2
M  V30 10 1 8 4
M  V30 11 1 1 10
M  V30 12 1 1 11
M  V30 13 1 2 12 CFG=1
M  V30 14 1 3 13
M  V30 15 1 3 14
M  V30 16 1 4 15 CFG=1
M  V30 17 1 5 16
M  V30 18 1 5 17
M  V30 19 1 6 18 CFG=1
M  V30 20 1 7 19
M  V30 21 1 7 20
M  V30 22 1 8 21 CFG=1
M  V30 23 1 9 22
M  V30 24 1 9 23
M  V30 END BOND
M  V30 END CTAB
M  END
