
     RDKit          3D

  0  0  0  0  0  0  0  0  0  0999 V3000
M  V30 BEGIN CTAB
M  V30 COUNTS 29 30 0 0 0
M  V30 BEGIN ATOM
M  V30 1 N -6.9431 1.20657 -1.06855 0
M  V30 2 C -5.67422 0.663038 -0.679102 0
M  V30 3 N -5.03549 -0.400276 -1.15695 0
M  V30 4 N -3.91459 -0.730832 -0.684868 0
M  V30 5 C -3.37017 -0.0144639 0.292909 0
M  V30 6 S -4.55911 1.19075 0.521678 0
M  V30 7 C -2.04808 -0.24745 0.984077 0
M  V30 8 C -1.02363 0.534799 0.182695 0
M  V30 9 S 0.6335 0.341165 0.913716 0
M  V30 10 C 1.20214 -1.38018 0.762771 0
M  V30 11 C 2.56158 -1.50224 1.36877 0
M  V30 12 C 3.5641 -0.617132 0.696219 0
M  V30 13 N 3.89992 0.6379 0.975599 0
M  V30 14 N 4.7789 1.22657 0.28912 0
M  V30 15 C 5.37215 0.591762 -0.716993 0
M  V30 16 S 4.59962 -0.929564 -0.641722 0
M  V30 17 N 6.38048 1.09381 -1.5926 0
M  V30 18 H -7.76077 0.57518 -1.15949 0
M  V30 19 H -6.9821 2.22498 -1.24391 0
M  V30 20 H -2.06551 0.144954 2.00391 0
M  V30 21 H -1.85966 -1.32487 0.91962 0
M  V30 22 H -1.06655 0.153495 -0.857583 0
M  V30 23 H -1.30545 1.60075 0.252926 0
M  V30 24 H 1.16427 -1.73028 -0.289044 0
M  V30 25 H 0.508498 -1.98591 1.39071 0
M  V30 26 H 2.50274 -1.31284 2.4461 0
M  V30 27 H 2.93956 -2.54007 1.22418 0
M  V30 28 H 6.53106 0.616729 -2.50083 0
M  V30 29 H 6.96991 1.91365 -1.36163 0
M  V30 END ATOM
M  V30 BEGIN BOND
M  V30 1 1 1 2
M  V30 2 2 2 3
M  V30 3 1 3 4
M  V30 4 2 4 5
M  V30 5 1 5 6
M  V30 6 1 5 7
M  V30 7 1 7 8
M  V30 8 1 8 9
M  V30 9 1 9 10
M  V30 10 1 10 11
M  V30 11 1 11 12
M  V30 12 2 12 13
M  V30 13 1 13 14
M  V30 14 2 14 15
M  V30 15 1 15 16
M  V30 16 1 15 17
M  V30 17 1 6 2
M  V30 18 1 16 12
M  V30 19 1 1 18
M  V30 20 1 1 19
M  V30 21 1 7 20
M  V30 22 1 7 21
M  V30 23 1 8 22
M  V30 24 1 8 23
M  V30 25 1 10 24
M  V30 26 1 10 25
M  V30 27 1 11 26
M  V30 28 1 11 27
M  V30 29 1 17 28
M  V30 30 1 17 29
M  V30 END BOND
M  V30 END CTAB
M  END
