
     RDKit          3D

  0  0  0  0  0  0  0  0  0  0999 V3000
M  V30 BEGIN CTAB
M  V30 COUNTS 37 39 0 0 0
M  V30 BEGIN ATOM
M  V30 1 N -6.81462 1.4973 -0.643432 0
M  V30 2 C -5.75674 1.06776 -0.491456 0
M  V30 3 C -4.43048 0.546325 -0.282335 0
M  V30 4 C -3.33262 1.00345 -0.978252 0
M  V30 5 C -3.54237 2.06994 -1.97347 0
M  V30 6 N -2.11745 0.46254 -0.724931 0
M  V30 7 C -1.98621 -0.518405 0.204444 0
M  V30 8 N -3.0311 -0.993731 0.906151 0
M  V30 9 C -4.24019 -0.451812 0.650459 0
M  V30 10 N -5.35051 -0.945339 1.38483 0
M  V30 11 N -2.59655 -1.93507 1.728 0
M  V30 12 C -1.27115 -2.11076 1.59921 0
M  V30 13 C -0.857607 -1.2176 0.632132 0
M  V30 14 N 0.462035 -1.00733 0.127252 0
M  V30 15 N 1.27896 -0.208002 0.630786 0
M  V30 16 C 2.59706 0.0230175 0.152104 0
M  V30 17 C 3.2005 -0.707364 -0.831832 0
M  V30 18 C 4.49622 -0.390971 -1.22075 0
M  V30 19 C 5.20772 0.638825 -0.651319 0
M  V30 20 C 4.58846 1.37372 0.345027 0
M  V30 21 C 3.30066 1.06229 0.734337 0
M  V30 22 C 6.59789 0.98251 -1.06475 0
M  V30 23 N -0.409591 -3.0065 2.27965 0
M  V30 24 H -4.24624 1.74987 -2.7781 0
M  V30 25 H -2.59482 2.33914 -2.49792 0
M  V30 26 H -3.91266 3.01439 -1.52039 0
M  V30 27 H -5.91802 -0.21582 1.89916 0
M  V30 28 H -5.57001 -1.95955 1.40026 0
M  V30 29 H 2.64672 -1.52491 -1.28968 0
M  V30 30 H 4.9409 -0.986046 -1.99781 0
M  V30 31 H 5.12409 2.19395 0.814851 0
M  V30 32 H 2.85706 1.66945 1.5219 0
M  V30 33 H 6.58026 1.50768 -2.03031 0
M  V30 34 H 7.04578 1.63935 -0.283346 0
M  V30 35 H 7.25391 0.0766956 -1.10831 0
M  V30 36 H -0.632953 -4.02135 2.24448 0
M  V30 37 H 0.43366 -2.71766 2.81363 0
M  V30 END ATOM
M  V30 BEGIN BOND
M  V30 1 3 1 2
M  V30 2 1 2 3
M  V30 3 1 3 4
M  V30 4 1 4 5
M  V30 5 2 4 6
M  V30 6 1 6 7
M  V30 7 1 7 8
M  V30 8 1 8 9
M  V30 9 1 9 10
M  V30 10 1 8 11
M  V30 11 2 11 12
M  V30 12 1 12 13
M  V30 13 1 13 14
M  V30 14 2 14 15
M  V30 15 1 15 16
M  V30 16 2 16 17
M  V30 17 1 17 18
M  V30 18 2 18 19
M  V30 19 1 19 20
M  V30 20 2 20 21
M  V30 21 1 19 22
M  V30 22 1 12 23
M  V30 23 2 9 3
M  V30 24 1 21 16
M  V30 25 2 13 7
M  V30 26 1 5 24
M  V30 27 1 5 25
M  V30 28 1 5 26
M  V30 29 1 10 27
M  V30 30 1 10 28
M  V30 31 1 17 29
M  V30 32 1 18 30
M  V30 33 1 20 31
M  V30 34 1 21 32
M  V30 35 1 22 33
M  V30 36 1 22 34
M  V30 37 1 22 35
M  V30 38 1 23 36
M  V30 39 1 23 37
M  V30 END BOND
M  V30 END CTAB
M  END
