
     RDKit          3D

  0  0  0  0  0  0  0  0  0  0999 V3000
M  V30 BEGIN CTAB
M  V30 COUNTS 28 29 0 0 0
M  V30 BEGIN ATOM
M  V30 1 N 2.93027 1.97645 -1.41212 0
M  V30 2 C 2.18279 0.942314 -0.804949 0
M  V30 3 N 0.839581 0.874907 -0.846184 0
M  V30 4 C 0.129773 -0.109389 -0.268184 0
M  V30 5 N 0.824699 -1.06184 0.377377 0
M  V30 6 C 2.16585 -1.08036 0.472812 0
M  V30 7 N 2.88199 -2.08637 1.15358 0
M  V30 8 C 2.85746 -0.0529565 -0.133583 0
M  V30 9 N 4.26847 -0.0227182 -0.0646497 0
M  V30 10 O 4.78917 -0.0622278 1.08907 0
M  V30 11 N -1.28952 -0.162015 -0.323587 0
M  V30 12 C -2.05914 -1.21858 0.295914 0
M  V30 13 C -3.04396 -0.599967 1.21697 0
M  V30 14 O -3.63058 0.540249 0.860439 0
M  V30 15 C -3.23911 1.27648 -0.170298 0
M  V30 16 C -2.09631 0.827474 -0.999207 0
M  V30 17 H 2.63867 2.98502 -1.42425 0
M  V30 18 H 3.85318 1.79084 -1.90391 0
M  V30 19 H 2.4536 -2.56432 1.95944 0
M  V30 20 H 3.83166 -2.34887 0.852425 0
M  V30 21 H -2.53978 -1.83364 -0.518916 0
M  V30 22 H -1.41558 -1.91645 0.858612 0
M  V30 23 H -3.81569 -1.39067 1.45894 0
M  V30 24 H -2.51436 -0.450498 2.20591 0
M  V30 25 H -4.11411 1.43931 -0.868833 0
M  V30 26 H -3.00174 2.32453 0.185622 0
M  V30 27 H -1.42311 1.6509 -1.31027 0
M  V30 28 H -2.46418 0.332396 -1.93818 0
M  V30 END ATOM
M  V30 BEGIN BOND
M  V30 1 1 1 2
M  V30 2 2 2 3
M  V30 3 1 3 4
M  V30 4 2 4 5
M  V30 5 1 5 6
M  V30 6 1 6 7
M  V30 7 2 6 8
M  V30 8 1 8 9
M  V30 9 2 9 10
M  V30 10 1 4 11
M  V30 11 1 11 12
M  V30 12 1 12 13
M  V30 13 1 13 14
M  V30 14 1 14 15
M  V30 15 1 15 16
M  V30 16 1 8 2
M  V30 17 1 16 11
M  V30 18 1 1 17
M  V30 19 1 1 18
M  V30 20 1 7 19
M  V30 21 1 7 20
M  V30 22 1 12 21
M  V30 23 1 12 22
M  V30 24 1 13 23
M  V30 25 1 13 24
M  V30 26 1 15 25
M  V30 27 1 15 26
M  V30 28 1 16 27
M  V30 29 1 16 28
M  V30 END BOND
M  V30 END CTAB
M  END
