
     RDKit          3D

  0  0  0  0  0  0  0  0  0  0999 V3000
M  V30 BEGIN CTAB
M  V30 COUNTS 43 46 0 0 0
M  V30 BEGIN ATOM
M  V30 1 N 7.14028 -0.102984 -1.30044 0
M  V30 2 C 5.85364 -0.253718 -0.729704 0
M  V30 3 N 5.68913 -0.79738 0.504704 0
M  V30 4 C 4.46783 -0.949559 1.05013 0
M  V30 5 N 4.2757 -1.52854 2.33913 0
M  V30 6 C 3.33318 -0.559788 0.380246 0
M  V30 7 N 2.1034 -0.709111 0.881462 0
M  V30 8 C 0.968891 -0.334965 0.208165 0
M  V30 9 C -0.285906 -0.613946 0.914858 0
M  V30 10 N -1.48453 -0.0352946 0.493388 0
M  V30 11 C -1.86978 1.321 0.449419 0
M  V30 12 C -2.24983 1.90475 -0.717847 0
M  V30 13 C -2.67482 3.19345 -0.791364 0
M  V30 14 C -2.73418 3.95814 0.330876 0
M  V30 15 C -2.36121 3.42056 1.54245 0
M  V30 16 C -1.93364 2.11822 1.60344 0
M  V30 17 C -2.55403 -0.93553 0.0823894 0
M  V30 18 C -3.65454 -1.05029 0.922843 0
M  V30 19 C -4.68513 -1.8977 0.592827 0
M  V30 20 C -4.59219 -2.61352 -0.574879 0
M  V30 21 C -3.50841 -2.51776 -1.42679 0
M  V30 22 C -2.47389 -1.64552 -1.06388 0
M  V30 23 C 1.12358 0.215054 -1.0348 0
M  V30 24 N 2.3884 0.3619 -1.53453 0
M  V30 25 C 3.49382 -0.00625358 -0.870365 0
M  V30 26 N 4.72828 0.129017 -1.37994 0
M  V30 27 H 7.88043 -0.844714 -1.23963 0
M  V30 28 H 7.43977 0.746371 -1.82476 0
M  V30 29 H 3.68974 -1.12319 3.09162 0
M  V30 30 H 4.76107 -2.42841 2.54217 0
M  V30 31 H -0.0966479 -0.44725 2.03156 0
M  V30 32 H -0.371093 -1.75638 0.892579 0
M  V30 33 H -2.21224 1.32237 -1.62713 0
M  V30 34 H -2.9681 3.61269 -1.76614 0
M  V30 35 H -3.08418 4.98978 0.242343 0
M  V30 36 H -2.41976 4.07393 2.42492 0
M  V30 37 H -1.64623 1.71755 2.56329 0
M  V30 38 H -3.7385 -0.484295 1.85259 0
M  V30 39 H -5.53304 -1.98786 1.24077 0
M  V30 40 H -5.3851 -3.3112 -0.894948 0
M  V30 41 H -3.46124 -3.09014 -2.33336 0
M  V30 42 H -1.6345 -1.5791 -1.73276 0
M  V30 43 H 0.27557 0.519605 -1.62487 0
M  V30 END ATOM
M  V30 BEGIN BOND
M  V30 1 1 1 2
M  V30 2 2 2 3
M  V30 3 1 3 4
M  V30 4 1 4 5
M  V30 5 2 4 6
M  V30 6 1 6 7
M  V30 7 2 7 8
M  V30 8 1 8 9
M  V30 9 1 9 10
M  V30 10 1 10 11
M  V30 11 2 11 12
M  V30 12 1 12 13
M  V30 13 2 13 14
M  V30 14 1 14 15
M  V30 15 2 15 16
M  V30 16 1 10 17
M  V30 17 2 17 18
M  V30 18 1 18 19
M  V30 19 2 19 20
M  V30 20 1 20 21
M  V30 21 2 21 22
M  V30 22 1 8 23
M  V30 23 2 23 24
M  V30 24 1 24 25
M  V30 25 2 25 26
M  V30 26 1 26 2
M  V30 27 1 25 6
M  V30 28 1 16 11
M  V30 29 1 22 17
M  V30 30 1 1 27
M  V30 31 1 1 28
M  V30 32 1 5 29
M  V30 33 1 5 30
M  V30 34 1 9 31
M  V30 35 1 9 32
M  V30 36 1 12 33
M  V30 37 1 13 34
M  V30 38 1 14 35
M  V30 39 1 15 36
M  V30 40 1 16 37
M  V30 41 1 18 38
M  V30 42 1 19 39
M  V30 43 1 20 40
M  V30 44 1 21 41
M  V30 45 1 22 42
M  V30 46 1 23 43
M  V30 END BOND
M  V30 END CTAB
M  END
