
     RDKit          3D

  0  0  0  0  0  0  0  0  0  0999 V3000
M  V30 BEGIN CTAB
M  V30 COUNTS 37 38 0 0 0
M  V30 BEGIN ATOM
M  V30 1 N -4.49145 2.09262 1.46228 0
M  V30 2 C -3.88462 0.778208 1.2792 0
M  V30 3 C -2.50222 0.998986 0.74694 0
M  V30 4 N -1.75663 -0.196938 0.505496 0
M  V30 5 C -2.31005 -0.927757 -0.57108 0
M  V30 6 C -1.60374 -2.1648 -0.981544 0
M  V30 7 O -0.594743 -2.00748 -1.90191 0
M  V30 8 C 0.127539 -0.859391 -1.66618 0
M  V30 9 C 0.514295 -0.86926 -0.201073 0 CFG=2
M  V30 10 C -0.38971 0.0421314 0.557324 0
M  V30 11 C 1.90276 -0.349085 -0.108364 0
M  V30 12 C 2.92624 -1.12333 0.415655 0
M  V30 13 C 4.21846 -0.646639 0.507114 0
M  V30 14 C 4.54002 0.639096 0.0720713 0
M  V30 15 N 3.52298 1.36786 -0.433006 0
M  V30 16 C 2.2624 0.915205 -0.526849 0
M  V30 17 N 5.86913 1.1403 0.161596 0
M  V30 18 H -3.76466 2.8335 1.61116 0
M  V30 19 H -5.05535 2.3801 0.617201 0
M  V30 20 H -3.83971 0.310359 2.28081 0
M  V30 21 H -4.54716 0.21039 0.612242 0
M  V30 22 H -2.5402 1.58444 -0.209159 0
M  V30 23 H -1.95267 1.62612 1.47509 0
M  V30 24 H -2.49796 -0.306124 -1.49132 0
M  V30 25 H -3.3521 -1.23183 -0.247245 0
M  V30 26 H -1.29963 -2.73275 -0.0779779 0
M  V30 27 H -2.36612 -2.83465 -1.48348 0
M  V30 28 H -0.442763 0.0786504 -1.86176 0
M  V30 29 H 1.026 -0.802304 -2.32543 0
M  V30 30 H 0.535637 -1.89851 0.215054 0
M  V30 31 H -0.15377 1.09252 0.22219 0
M  V30 32 H -0.050441 0.017649 1.63568 0
M  V30 33 H 2.73456 -2.12801 0.768179 0
M  V30 34 H 5.02348 -1.23982 0.913731 0
M  V30 35 H 1.50482 1.57348 -0.948617 0
M  V30 36 H 6.04145 2.15202 0.0700863 0
M  V30 37 H 6.64597 0.485051 0.317714 0
M  V30 END ATOM
M  V30 BEGIN BOND
M  V30 1 1 1 2
M  V30 2 1 2 3
M  V30 3 1 3 4
M  V30 4 1 4 5
M  V30 5 1 5 6
M  V30 6 1 6 7
M  V30 7 1 7 8
M  V30 8 1 8 9
M  V30 9 1 9 10
M  V30 10 1 9 11
M  V30 11 2 11 12
M  V30 12 1 12 13
M  V30 13 2 13 14
M  V30 14 1 14 15
M  V30 15 2 15 16
M  V30 16 1 14 17
M  V30 17 1 10 4
M  V30 18 1 16 11
M  V30 19 1 1 18
M  V30 20 1 1 19
M  V30 21 1 2 20
M  V30 22 1 2 21
M  V30 23 1 3 22
M  V30 24 1 3 23
M  V30 25 1 5 24
M  V30 26 1 5 25
M  V30 27 1 6 26
M  V30 28 1 6 27
M  V30 29 1 8 28
M  V30 30 1 8 29
M  V30 31 1 9 30 CFG=1
M  V30 32 1 10 31
M  V30 33 1 10 32
M  V30 34 1 12 33
M  V30 35 1 13 34
M  V30 36 1 16 35
M  V30 37 1 17 36
M  V30 38 1 17 37
M  V30 END BOND
M  V30 END CTAB
M  END
