
     RDKit          3D

  0  0  0  0  0  0  0  0  0  0999 V3000
M  V30 BEGIN CTAB
M  V30 COUNTS 49 50 0 0 0
M  V30 BEGIN ATOM
M  V30 1 N 6.91334 0.609095 0.876124 0
M  V30 2 C 5.65606 0.740985 0.198445 0
M  V30 3 C 4.68845 1.45168 1.14287 0
M  V30 4 C 3.33822 1.60185 0.433552 0
M  V30 5 O 2.92014 0.310876 0.144652 0
M  V30 6 C 1.69144 0.376972 -0.50572 0
M  V30 7 C 1.87211 -0.307424 -1.84405 0
M  V30 8 C 0.572547 -0.533172 -2.56583 0
M  V30 9 N -0.31975 -1.21068 -1.59942 0
M  V30 10 C 0.256183 -1.62951 -0.340564 0
M  V30 11 C 0.692421 -0.347392 0.368005 0
M  V30 12 C -1.65636 -1.45605 -1.911 0
M  V30 13 O -2.06842 -1.11528 -3.0611 0
M  V30 14 C -2.60454 -2.08365 -0.989132 0
M  V30 15 C -3.20752 -0.996109 -0.132025 0
M  V30 16 C -3.04302 -0.935714 1.22444 0
M  V30 17 C -3.61706 0.0864328 1.97946 0
M  V30 18 C -4.37189 1.07361 1.38401 0
M  V30 19 C -4.52667 0.996266 0.0158908 0
M  V30 20 C -3.96239 -0.0111789 -0.739093 0
M  V30 21 C -4.987 2.16868 2.18896 0
M  V30 22 N -3.74868 -2.58785 -1.77868 0
M  V30 23 H 6.80472 -0.0971455 1.63564 0
M  V30 24 H 7.32855 1.49819 1.19491 0
M  V30 25 H 5.73199 1.30196 -0.75436 0
M  V30 26 H 5.27249 -0.277145 -0.0191438 0
M  V30 27 H 5.04279 2.44659 1.41331 0
M  V30 28 H 4.49443 0.830543 2.03792 0
M  V30 29 H 3.49124 2.2237 -0.454906 0
M  V30 30 H 2.66584 2.10854 1.15459 0
M  V30 31 H 1.3329 1.41035 -0.643741 0
M  V30 32 H 2.46551 0.415289 -2.47273 0
M  V30 33 H 2.49485 -1.20815 -1.76417 0
M  V30 34 H 0.148139 0.456642 -2.81036 0
M  V30 35 H 0.725384 -1.19583 -3.41667 0
M  V30 36 H 1.14355 -2.28802 -0.524214 0
M  V30 37 H -0.391966 -2.17252 0.334282 0
M  V30 38 H -0.22368 0.258897 0.512568 0
M  V30 39 H 1.13074 -0.663309 1.34408 0
M  V30 40 H -2.12634 -2.83542 -0.388232 0
M  V30 41 H -2.44283 -1.72226 1.69029 0
M  V30 42 H -3.4652 0.105331 3.06713 0
M  V30 43 H -5.11987 1.7721 -0.453397 0
M  V30 44 H -4.08095 -0.0768841 -1.81551 0
M  V30 45 H -5.908 1.79843 2.64554 0
M  V30 46 H -4.26044 2.58675 2.93768 0
M  V30 47 H -5.25542 3.03898 1.5407 0
M  V30 48 H -3.79508 -3.61941 -1.62574 0
M  V30 49 H -3.69095 -2.29859 -2.76061 0
M  V30 END ATOM
M  V30 BEGIN BOND
M  V30 1 1 1 2
M  V30 2 1 2 3
M  V30 3 1 3 4
M  V30 4 1 4 5
M  V30 5 1 5 6
M  V30 6 1 6 7
M  V30 7 1 7 8
M  V30 8 1 8 9
M  V30 9 1 9 10
M  V30 10 1 10 11
M  V30 11 1 9 12
M  V30 12 2 12 13
M  V30 13 1 12 14
M  V30 14 1 14 15
M  V30 15 2 15 16
M  V30 16 1 16 17
M  V30 17 2 17 18
M  V30 18 1 18 19
M  V30 19 2 19 20
M  V30 20 1 18 21
M  V30 21 1 14 22
M  V30 22 1 11 6
M  V30 23 1 20 15
M  V30 24 1 1 23
M  V30 25 1 1 24
M  V30 26 1 2 25
M  V30 27 1 2 26
M  V30 28 1 3 27
M  V30 29 1 3 28
M  V30 30 1 4 29
M  V30 31 1 4 30
M  V30 32 1 6 31
M  V30 33 1 7 32
M  V30 34 1 7 33
M  V30 35 1 8 34
M  V30 36 1 8 35
M  V30 37 1 10 36
M  V30 38 1 10 37
M  V30 39 1 11 38
M  V30 40 1 11 39
M  V30 41 1 14 40
M  V30 42 1 16 41
M  V30 43 1 17 42
M  V30 44 1 19 43
M  V30 45 1 20 44
M  V30 46 1 21 45
M  V30 47 1 21 46
M  V30 48 1 21 47
M  V30 49 1 22 48
M  V30 50 1 22 49
M  V30 END BOND
M  V30 END CTAB
M  END
