
     RDKit          3D

  0  0  0  0  0  0  0  0  0  0999 V3000
M  V30 BEGIN CTAB
M  V30 COUNTS 60 64 0 0 0
M  V30 BEGIN ATOM
M  V30 1 C -6.11056 1.48894 1.65813 0
M  V30 2 C -6.17091 0.0124804 1.63236 0
M  V30 3 C -6.53394 -0.511075 3.00438 0
M  V30 4 C -4.9112 -0.662974 1.1098 0 CFG=1
M  V30 5 N -5.12974 -2.11969 1.15006 0
M  V30 6 C -4.65349 -0.310691 -0.304646 0
M  V30 7 O -5.23305 -1.0671 -1.16057 0
M  V30 8 N -3.85129 0.746006 -0.77505 0
M  V30 9 C -3.78541 0.936418 -2.2172 0
M  V30 10 C -2.57352 1.70547 -2.65703 0
M  V30 11 N -1.46089 1.34201 -1.81517 0
M  V30 12 C -1.62385 1.55657 -0.382595 0
M  V30 13 C -3.07205 1.63513 0.0354402 0
M  V30 14 C -0.247308 0.795618 -2.27252 0
M  V30 15 N 0.78468 0.652457 -1.39999 0
M  V30 16 C 1.96997 0.141259 -1.73352 0
M  V30 17 C 2.16052 -0.260699 -3.01658 0
M  V30 18 C 3.38795 -0.791693 -3.38262 0
M  V30 19 C 4.38393 -0.897666 -2.43521 0
M  V30 20 C 4.21845 -0.498623 -1.12835 0
M  V30 21 C 2.98933 0.0277716 -0.779511 0
M  V30 22 C 5.29664 -0.620167 -0.156669 0
M  V30 23 C 6.59912 -0.492976 -0.597829 0
M  V30 24 C 7.67458 -0.587052 0.262007 0
M  V30 25 C 7.48222 -0.816061 1.61849 0
M  V30 26 O 8.26982 -0.949694 2.64681 0
M  V30 27 C 7.60294 -1.15965 3.76477 0
M  V30 28 N 8.13406 -1.34914 5.07437 0
M  V30 29 N 6.29854 -1.15562 3.39655 0
M  V30 30 C 6.18816 -0.945273 2.07222 0
M  V30 31 C 5.11057 -0.847488 1.19049 0
M  V30 32 N 1.1637 -0.137659 -3.91727 0
M  V30 33 C -0.0321495 0.383685 -3.56115 0
M  V30 34 H -7.02884 1.84907 2.20997 0
M  V30 35 H -6.10293 1.99752 0.686769 0
M  V30 36 H -5.24191 1.84777 2.25429 0
M  V30 37 H -7.00356 -0.283854 0.935345 0
M  V30 38 H -5.63869 -0.971003 3.51386 0
M  V30 39 H -6.85108 0.316546 3.68476 0
M  V30 40 H -7.3826 -1.22711 2.98144 0
M  V30 41 H -4.06847 -0.419989 1.73349 0
M  V30 42 H -5.53899 -2.41349 2.05351 0
M  V30 43 H -4.25421 -2.64384 0.994226 0
M  V30 44 H -3.78255 -0.0461119 -2.7571 0
M  V30 45 H -4.6918 1.46979 -2.59214 0
M  V30 46 H -2.40065 1.44931 -3.71585 0
M  V30 47 H -2.73274 2.80927 -2.61571 0
M  V30 48 H -1.18124 0.666729 0.121505 0
M  V30 49 H -1.05315 2.47971 -0.144922 0
M  V30 50 H -3.06814 1.33792 1.12827 0
M  V30 51 H -3.44407 2.69839 -0.0365992 0
M  V30 52 H 3.49132 -1.09625 -4.41494 0
M  V30 53 H 5.32782 -1.31598 -2.75358 0
M  V30 54 H 2.8344 0.347758 0.232577 0
M  V30 55 H 6.76556 -0.312133 -1.66855 0
M  V30 56 H 8.69795 -0.483883 -0.0987489 0
M  V30 57 H 9.04676 -0.913849 5.30429 0
M  V30 58 H 7.65872 -1.90058 5.81587 0
M  V30 59 H 4.11755 -0.949763 1.55508 0
M  V30 60 H -0.800301 0.465224 -4.30269 0
M  V30 END ATOM
M  V30 BEGIN BOND
M  V30 1 1 1 2
M  V30 2 1 2 3
M  V30 3 1 2 4
M  V30 4 1 4 5
M  V30 5 1 4 6
M  V30 6 2 6 7
M  V30 7 1 6 8
M  V30 8 1 8 9
M  V30 9 1 9 10
M  V30 10 1 10 11
M  V30 11 1 11 12
M  V30 12 1 12 13
M  V30 13 1 11 14
M  V30 14 2 14 15
M  V30 15 1 15 16
M  V30 16 2 16 17
M  V30 17 1 17 18
M  V30 18 2 18 19
M  V30 19 1 19 20
M  V30 20 2 20 21
M  V30 21 1 20 22
M  V30 22 2 22 23
M  V30 23 1 23 24
M  V30 24 2 24 25
M  V30 25 1 25 26
M  V30 26 1 26 27
M  V30 27 1 27 28
M  V30 28 2 27 29
M  V30 29 1 29 30
M  V30 30 2 30 31
M  V30 31 1 17 32
M  V30 32 2 32 33
M  V30 33 1 13 8
M  V30 34 1 33 14
M  V30 35 1 21 16
M  V30 36 1 31 22
M  V30 37 1 30 25
M  V30 38 1 1 34
M  V30 39 1 1 35
M  V30 40 1 1 36
M  V30 41 1 2 37
M  V30 42 1 3 38
M  V30 43 1 3 39
M  V30 44 1 3 40
M  V30 45 1 4 41 CFG=1
M  V30 46 1 5 42
M  V30 47 1 5 43
M  V30 48 1 9 44
M  V30 49 1 9 45
M  V30 50 1 10 46
M  V30 51 1 10 47
M  V30 52 1 12 48
M  V30 53 1 12 49
M  V30 54 1 13 50
M  V30 55 1 13 51
M  V30 56 1 18 52
M  V30 57 1 19 53
M  V30 58 1 21 54
M  V30 59 1 23 55
M  V30 60 1 24 56
M  V30 61 1 28 57
M  V30 62 1 28 58
M  V30 63 1 31 59
M  V30 64 1 33 60
M  V30 END BOND
M  V30 END CTAB
M  END
