
     RDKit          3D

  0  0  0  0  0  0  0  0  0  0999 V3000
M  V30 BEGIN CTAB
M  V30 COUNTS 37 39 0 0 0
M  V30 BEGIN ATOM
M  V30 1 N -3.80508 2.74145 0.472107 0
M  V30 2 C -2.96176 2.11474 -0.478139 0
M  V30 3 S -3.07039 2.6739 -2.02936 0
M  V30 4 C -2.04227 1.03805 -0.138119 0
M  V30 5 C -0.706321 1.15954 0.177544 0
M  V30 6 N -0.194872 -0.0719596 0.433613 0
M  V30 7 C 1.13998 -0.437915 0.800604 0 CFG=2
M  V30 8 O 1.94691 0.624086 1.09993 0
M  V30 9 C 3.24823 0.309226 0.821231 0 CFG=2
M  V30 10 C 3.80223 1.38851 -0.117575 0
M  V30 11 O 5.12671 1.12401 -0.439019 0
M  V30 12 C 3.27916 -0.984912 0.0696672 0 CFG=1
M  V30 13 O 3.57381 -2.04623 0.940361 0
M  V30 14 C 1.83486 -1.12473 -0.366372 0 CFG=2
M  V30 15 O 1.58043 -0.408138 -1.53017 0
M  V30 16 C -1.19295 -0.980778 0.284334 0
M  V30 17 C -2.33768 -0.303362 -0.0688341 0
M  V30 18 C -3.4969 -1.02359 -0.277697 0
M  V30 19 N -4.69019 -0.347037 -0.642716 0
M  V30 20 N -3.44669 -2.36675 -0.123242 0
M  V30 21 C -2.33939 -3.03477 0.219726 0
M  V30 22 N -1.21766 -2.32004 0.419952 0
M  V30 23 H -3.47169 3.60408 0.949301 0
M  V30 24 H -4.74205 2.38265 0.717445 0
M  V30 25 H -0.103796 2.06662 0.229737 0
M  V30 26 H 1.06193 -1.17727 1.63329 0
M  V30 27 H 3.86811 0.264971 1.72241 0
M  V30 28 H 3.21962 1.43303 -1.05207 0
M  V30 29 H 3.70364 2.37005 0.39845 0
M  V30 30 H 5.68975 1.65358 0.181233 0
M  V30 31 H 3.98049 -0.989183 -0.779412 0
M  V30 32 H 3.05886 -1.96081 1.77194 0
M  V30 33 H 1.52778 -2.18519 -0.448214 0
M  V30 34 H 0.831743 -0.882447 -2.00505 0
M  V30 35 H -5.44557 -0.247193 0.0664585 0
M  V30 36 H -4.86991 0.0638448 -1.58227 0
M  V30 37 H -2.33909 -4.12003 0.334607 0
M  V30 END ATOM
M  V30 BEGIN BOND
M  V30 1 1 1 2
M  V30 2 2 2 3
M  V30 3 1 2 4
M  V30 4 2 4 5
M  V30 5 1 5 6
M  V30 6 1 6 7
M  V30 7 1 7 8
M  V30 8 1 8 9
M  V30 9 1 9 10
M  V30 10 1 10 11
M  V30 11 1 9 12
M  V30 12 1 12 13
M  V30 13 1 12 14
M  V30 14 1 14 15
M  V30 15 1 6 16
M  V30 16 2 16 17
M  V30 17 1 17 18
M  V30 18 1 18 19
M  V30 19 2 18 20
M  V30 20 1 20 21
M  V30 21 2 21 22
M  V30 22 1 17 4
M  V30 23 1 14 7
M  V30 24 1 22 16
M  V30 25 1 1 23
M  V30 26 1 1 24
M  V30 27 1 5 25
M  V30 28 1 7 26 CFG=1
M  V30 29 1 9 27 CFG=1
M  V30 30 1 10 28
M  V30 31 1 10 29
M  V30 32 1 11 30
M  V30 33 1 12 31 CFG=3
M  V30 34 1 13 32
M  V30 35 1 14 33 CFG=3
M  V30 36 1 15 34
M  V30 37 1 19 35
M  V30 38 1 19 36
M  V30 39 1 21 37
M  V30 END BOND
M  V30 END CTAB
M  END
