
     RDKit          3D

  0  0  0  0  0  0  0  0  0  0999 V3000
M  V30 BEGIN CTAB
M  V30 COUNTS 26 26 0 0 0
M  V30 BEGIN ATOM
M  V30 1 C -2.06555 1.05029 -0.164298 0
M  V30 2 C -2.86017 -0.182678 -0.27653 0
M  V30 3 C -2.1295 -1.41851 0.109108 0
M  V30 4 S -0.703566 -1.70892 -0.879202 0
M  V30 5 C 0.765685 -0.828615 -0.534417 0
M  V30 6 C 1.07291 -0.103429 0.589761 0
M  V30 7 C 2.26106 0.581921 0.758139 0
M  V30 8 C 3.23231 0.576325 -0.218267 0
M  V30 9 C 2.9474 -0.145419 -1.35691 0
M  V30 10 C 1.76485 -0.827161 -1.52377 0
M  V30 11 F 1.52425 -1.52982 -2.66693 0
M  V30 12 N 4.46213 1.26446 -0.0870984 0
M  V30 13 N -4.16289 -0.0846207 0.382948 0
M  V30 14 H -1.28793 1.06865 -0.950197 0
M  V30 15 H -1.68319 1.19037 0.847183 0
M  V30 16 H -2.77131 1.91073 -0.399366 0
M  V30 17 H -3.14999 -0.290965 -1.37914 0
M  V30 18 H -1.87786 -1.36483 1.21571 0
M  V30 19 H -2.85624 -2.27197 0.0696037 0
M  V30 20 H 0.321528 -0.0995961 1.38003 0
M  V30 21 H 2.45737 1.14297 1.66924 0
M  V30 22 H 3.69997 -0.164189 -2.14349 0
M  V30 23 H 4.51276 2.28268 0.101269 0
M  V30 24 H 5.35195 0.740137 -0.180991 0
M  V30 25 H -4.73696 -0.922732 0.152312 0
M  V30 26 H -4.08902 0.134913 1.38444 0
M  V30 END ATOM
M  V30 BEGIN BOND
M  V30 1 1 1 2
M  V30 2 1 2 3
M  V30 3 1 3 4
M  V30 4 1 4 5
M  V30 5 2 5 6
M  V30 6 1 6 7
M  V30 7 2 7 8
M  V30 8 1 8 9
M  V30 9 2 9 10
M  V30 10 1 10 11
M  V30 11 1 8 12
M  V30 12 1 2 13
M  V30 13 1 10 5
M  V30 14 1 1 14
M  V30 15 1 1 15
M  V30 16 1 1 16
M  V30 17 1 2 17
M  V30 18 1 3 18
M  V30 19 1 3 19
M  V30 20 1 6 20
M  V30 21 1 7 21
M  V30 22 1 9 22
M  V30 23 1 12 23
M  V30 24 1 12 24
M  V30 25 1 13 25
M  V30 26 1 13 26
M  V30 END BOND
M  V30 END CTAB
M  END
