
     RDKit          3D

  0  0  0  0  0  0  0  0  0  0999 V3000
M  V30 BEGIN CTAB
M  V30 COUNTS 23 24 0 0 0
M  V30 BEGIN ATOM
M  V30 1 Cl -0.866838 -1.26389 2.42919 0
M  V30 2 C -1.71846 -0.508884 1.06689 0
M  V30 3 C -3.08038 -0.663181 0.935647 0
M  V30 4 C -3.7824 -0.10292 -0.134908 0
M  V30 5 C -3.06332 0.612077 -1.06263 0
M  V30 6 C -1.67443 0.752506 -0.906535 0
M  V30 7 C -0.977471 0.200659 0.146708 0
M  V30 8 C 0.447191 0.40931 0.36832 0
M  V30 9 N 1.00965 1.19855 1.34679 0
M  V30 10 C 2.35213 1.11225 1.28557 0
M  V30 11 N 2.67007 0.262574 0.270021 0
M  V30 12 C 1.52178 -0.145244 -0.26214 0
M  V30 13 N 1.458 -1.09917 -1.334 0
M  V30 14 N 4.01185 -0.0564699 -0.0593038 0
M  V30 15 H -3.67766 -1.21736 1.64375 0
M  V30 16 H -4.86129 -0.225075 -0.226637 0
M  V30 17 H -3.59248 1.06053 -1.90084 0
M  V30 18 H -1.10492 1.33372 -1.63079 0
M  V30 19 H 3.04002 1.63102 1.93213 0
M  V30 20 H 2.32201 -1.37879 -1.84788 0
M  V30 21 H 0.579221 -1.56219 -1.64632 0
M  V30 22 H 4.25413 -0.0769678 -1.06104 0
M  V30 23 H 4.7336 -0.273031 0.647991 0
M  V30 END ATOM
M  V30 BEGIN BOND
M  V30 1 1 1 2
M  V30 2 2 2 3
M  V30 3 1 3 4
M  V30 4 2 4 5
M  V30 5 1 5 6
M  V30 6 2 6 7
M  V30 7 1 7 8
M  V30 8 1 8 9
M  V30 9 2 9 10
M  V30 10 1 10 11
M  V30 11 1 11 12
M  V30 12 1 12 13
M  V30 13 1 11 14
M  V30 14 1 7 2
M  V30 15 2 12 8
M  V30 16 1 3 15
M  V30 17 1 4 16
M  V30 18 1 5 17
M  V30 19 1 6 18
M  V30 20 1 10 19
M  V30 21 1 13 20
M  V30 22 1 13 21
M  V30 23 1 14 22
M  V30 24 1 14 23
M  V30 END BOND
M  V30 END CTAB
M  END
