
     RDKit          3D

  0  0  0  0  0  0  0  0  0  0999 V3000
M  V30 BEGIN CTAB
M  V30 COUNTS 23 23 0 0 0
M  V30 BEGIN ATOM
M  V30 1 N -2.68749 0.703611 1.04578 0
M  V30 2 N -1.3506 0.950792 0.600124 0
M  V30 3 C -0.995455 -0.0648112 -0.315192 0
M  V30 4 C -1.68096 -0.184071 -1.63544 0
M  V30 5 Cl -3.41461 -0.394506 -1.41588 0
M  V30 6 F -1.19524 -1.25479 -2.39136 0
M  V30 7 F -1.49398 0.975594 -2.40732 0
M  V30 8 C 0.43252 -0.437675 -0.258139 0
M  V30 9 C 0.911216 -1.7166 -0.457604 0
M  V30 10 N 2.18557 -2.07679 -0.175791 0
M  V30 11 C 3.02912 -1.13984 0.32671 0
M  V30 12 C 2.6377 0.14186 0.540101 0
M  V30 13 C 1.32258 0.487691 0.242756 0
M  V30 14 N 0.927025 1.8288 0.290971 0
M  V30 15 H -2.75258 -0.338817 1.20974 0
M  V30 16 H -2.73117 1.20158 1.97936 0
M  V30 17 H -0.808795 0.650064 1.51763 0
M  V30 18 H -1.54446 -1.00831 0.240295 0
M  V30 19 H 0.250068 -2.48201 -0.815596 0
M  V30 20 H 4.0388 -1.41425 0.53173 0
M  V30 21 H 3.34657 0.855986 0.930478 0
M  V30 22 H 0.692165 2.40824 1.09099 0
M  V30 23 H 0.882023 2.30826 -0.674348 0
M  V30 END ATOM
M  V30 BEGIN BOND
M  V30 1 1 1 2
M  V30 2 1 2 3
M  V30 3 1 3 4
M  V30 4 1 4 5
M  V30 5 1 4 6
M  V30 6 1 4 7
M  V30 7 1 3 8
M  V30 8 2 8 9
M  V30 9 1 9 10
M  V30 10 2 10 11
M  V30 11 1 11 12
M  V30 12 2 12 13
M  V30 13 1 13 14
M  V30 14 1 13 8
M  V30 15 1 1 15
M  V30 16 1 1 16
M  V30 17 1 2 17
M  V30 18 1 3 18
M  V30 19 1 9 19
M  V30 20 1 11 20
M  V30 21 1 12 21
M  V30 22 1 14 22
M  V30 23 1 14 23
M  V30 END BOND
M  V30 END CTAB
M  END
