
     RDKit          3D

  0  0  0  0  0  0  0  0  0  0999 V3000
M  V30 BEGIN CTAB
M  V30 COUNTS 37 38 0 0 0
M  V30 BEGIN ATOM
M  V30 1 C -5.14414 2.82013 -0.465372 0
M  V30 2 O -4.08267 2.3004 -1.21753 0
M  V30 3 C -3.39235 1.1432 -0.825461 0
M  V30 4 C -2.34259 0.671451 -1.61189 0
M  V30 5 C -1.65328 -0.462717 -1.2426 0
M  V30 6 C -0.546721 -0.905999 -2.12959 0
M  V30 7 C 0.716912 -0.523134 -1.5017 0
M  V30 8 C 1.76481 -0.194151 -1.00329 0
M  V30 9 C 3.01723 0.22492 -0.419048 0
M  V30 10 C 3.46548 1.50698 -0.615038 0
M  V30 11 N 4.62919 1.91596 -0.0783644 0
M  V30 12 C 5.39698 1.09993 0.664578 0
M  V30 13 N 6.64027 1.5644 1.22946 0
M  V30 14 N 4.9695 -0.151861 0.861859 0
M  V30 15 C 3.79923 -0.616584 0.341181 0
M  V30 16 N 3.36795 -1.95454 0.566011 0
M  V30 17 C -1.95558 -1.165 -0.115831 0
M  V30 18 O -1.218 -2.30068 0.195363 0
M  V30 19 C -1.55831 -3.02146 1.38339 0
M  V30 20 C -2.99213 -0.704574 0.665994 0
M  V30 21 C -3.69955 0.434888 0.313513 0
M  V30 22 H -5.03335 2.68395 0.628201 0
M  V30 23 H -5.26482 3.91891 -0.709391 0
M  V30 24 H -6.12377 2.33951 -0.736122 0
M  V30 25 H -2.06331 1.19484 -2.5186 0
M  V30 26 H -0.650048 -2.00151 -2.26207 0
M  V30 27 H -0.639413 -0.456558 -3.1351 0
M  V30 28 H 2.8393 2.1559 -1.21434 0
M  V30 29 H 6.99935 2.49524 0.970178 0
M  V30 30 H 7.18821 0.983524 1.89499 0
M  V30 31 H 3.11211 -2.51645 -0.274176 0
M  V30 32 H 3.29537 -2.38907 1.49248 0
M  V30 33 H -1.37355 -2.37715 2.2581 0
M  V30 34 H -2.67022 -3.21145 1.37325 0
M  V30 35 H -1.06096 -4.00183 1.41759 0
M  V30 36 H -3.24005 -1.26535 1.57485 0
M  V30 37 H -4.49709 0.765951 0.934823 0
M  V30 END ATOM
M  V30 BEGIN BOND
M  V30 1 1 1 2
M  V30 2 1 2 3
M  V30 3 2 3 4
M  V30 4 1 4 5
M  V30 5 1 5 6
M  V30 6 1 6 7
M  V30 7 3 7 8
M  V30 8 1 8 9
M  V30 9 2 9 10
M  V30 10 1 10 11
M  V30 11 2 11 12
M  V30 12 1 12 13
M  V30 13 1 12 14
M  V30 14 2 14 15
M  V30 15 1 15 16
M  V30 16 2 5 17
M  V30 17 1 17 18
M  V30 18 1 18 19
M  V30 19 1 17 20
M  V30 20 2 20 21
M  V30 21 1 21 3
M  V30 22 1 15 9
M  V30 23 1 1 22
M  V30 24 1 1 23
M  V30 25 1 1 24
M  V30 26 1 4 25
M  V30 27 1 6 26
M  V30 28 1 6 27
M  V30 29 1 10 28
M  V30 30 1 13 29
M  V30 31 1 13 30
M  V30 32 1 16 31
M  V30 33 1 16 32
M  V30 34 1 19 33
M  V30 35 1 19 34
M  V30 36 1 19 35
M  V30 37 1 20 36
M  V30 38 1 21 37
M  V30 END BOND
M  V30 END CTAB
M  END
