
     RDKit          3D

  0  0  0  0  0  0  0  0  0  0999 V3000
M  V30 BEGIN CTAB
M  V30 COUNTS 39 40 0 0 0
M  V30 BEGIN ATOM
M  V30 1 N -3.3171 -1.32668 0.804933 0
M  V30 2 C -3.35993 0.0821194 0.696062 0
M  V30 3 C -2.58531 0.470627 -0.561227 0
M  V30 4 C -3.28533 -0.205079 -1.71743 0
M  V30 5 C -4.73871 0.223178 -1.86824 0
M  V30 6 C -3.69462 0.520214 -2.92047 0
M  V30 7 N -1.21553 0.0882159 -0.4323 0
M  V30 8 C -0.14285 1.02731 -0.385316 0
M  V30 9 O -0.437135 2.26375 -0.463354 0
M  V30 10 C 1.26575 0.619606 -0.252067 0 CFG=2
M  V30 11 C 1.50834 -0.140762 1.03984 0
M  V30 12 C 2.90928 -0.548291 1.17539 0
M  V30 13 C 3.25999 -1.79203 0.65133 0
M  V30 14 C 4.55538 -2.25125 0.736752 0
M  V30 15 C 5.51192 -1.47017 1.34739 0
M  V30 16 C 5.21441 -0.235535 1.87974 0
M  V30 17 C 3.89278 0.187196 1.77021 0
M  V30 18 N 2.11613 1.78649 -0.233492 0
M  V30 19 H -2.65766 -1.84498 0.287164 0
M  V30 20 H -4.01851 -1.78205 1.36376 0
M  V30 21 H -2.97495 0.617843 1.58555 0
M  V30 22 H -4.42808 0.366378 0.480564 0
M  V30 23 H -2.63285 1.5756 -0.613215 0
M  V30 24 H -3.08643 -1.29656 -1.76532 0
M  V30 25 H -5.46593 -0.595327 -2.03373 0
M  V30 26 H -5.09394 1.12159 -1.33925 0
M  V30 27 H -3.40838 1.55955 -3.13988 0
M  V30 28 H -3.82404 -0.089201 -3.84856 0
M  V30 29 H -0.960871 -0.920938 -0.367465 0
M  V30 30 H 1.51234 -0.0519821 -1.09482 0
M  V30 31 H 1.24412 0.535211 1.89146 0
M  V30 32 H 0.842819 -1.02664 1.13096 0
M  V30 33 H 2.51231 -2.40789 0.171424 0
M  V30 34 H 4.86395 -3.20482 0.344451 0
M  V30 35 H 6.53335 -1.81726 1.42208 0
M  V30 36 H 5.95629 0.392098 2.36402 0
M  V30 37 H 3.64399 1.14928 2.18122 0
M  V30 38 H 2.13107 2.2596 0.687891 0
M  V30 39 H 1.85395 2.47371 -0.976038 0
M  V30 END ATOM
M  V30 BEGIN BOND
M  V30 1 1 1 2
M  V30 2 1 2 3
M  V30 3 1 3 4
M  V30 4 1 4 5
M  V30 5 1 5 6
M  V30 6 1 3 7
M  V30 7 1 7 8
M  V30 8 2 8 9
M  V30 9 1 8 10
M  V30 10 1 10 11
M  V30 11 1 11 12
M  V30 12 2 12 13
M  V30 13 1 13 14
M  V30 14 2 14 15
M  V30 15 1 15 16
M  V30 16 2 16 17
M  V30 17 1 10 18
M  V30 18 1 6 4
M  V30 19 1 17 12
M  V30 20 1 1 19
M  V30 21 1 1 20
M  V30 22 1 2 21
M  V30 23 1 2 22
M  V30 24 1 3 23
M  V30 25 1 4 24
M  V30 26 1 5 25
M  V30 27 1 5 26
M  V30 28 1 6 27
M  V30 29 1 6 28
M  V30 30 1 7 29
M  V30 31 1 10 30 CFG=3
M  V30 32 1 11 31
M  V30 33 1 11 32
M  V30 34 1 13 33
M  V30 35 1 14 34
M  V30 36 1 15 35
M  V30 37 1 16 36
M  V30 38 1 17 37
M  V30 39 1 18 38
M  V30 40 1 18 39
M  V30 END BOND
M  V30 END CTAB
M  END
