
     RDKit          3D

  0  0  0  0  0  0  0  0  0  0999 V3000
M  V30 BEGIN CTAB
M  V30 COUNTS 105 105 0 0 0
M  V30 BEGIN ATOM
M  V30 1 C 0.644274 3.07075 1.80993 0
M  V30 2 C 0.416504 2.83627 0.329779 0
M  V30 3 C -0.499405 3.94448 -0.178909 0
M  V30 4 C 1.69293 2.93777 -0.422152 0
M  V30 5 C 2.77835 1.93467 -0.0425214 0 CFG=2
M  V30 6 N 3.91279 2.3426 -0.9389 0
M  V30 7 C 5.04329 3.01039 -0.428029 0
M  V30 8 O 5.10495 3.26952 0.785252 0
M  V30 9 C 6.12252 3.38613 -1.34651 0 CFG=1
M  V30 10 N 7.12932 4.22501 -0.690782 0
M  V30 11 C 6.84896 2.15232 -1.86807 0
M  V30 12 C 7.46292 1.35882 -0.753511 0
M  V30 13 C 8.16525 0.157472 -1.31536 0
M  V30 14 N 7.27471 -0.719709 -2.03051 0
M  V30 15 C 7.84908 -1.89083 -2.64016 0
M  V30 16 N 8.32268 -1.87441 -3.97323 0
M  V30 17 N 7.90604 -2.94858 -1.91187 0
M  V30 18 C 2.41894 0.542026 -0.388558 0
M  V30 19 O 2.97904 0.0292744 -1.423 0
M  V30 20 N 1.51104 -0.235578 0.34612 0
M  V30 21 C 1.14707 -1.62471 -0.0224521 0 CFG=1
M  V30 22 C 1.41353 -2.56889 1.08093 0
M  V30 23 C 0.689987 -2.32655 2.36269 0
M  V30 24 C 2.9308 -2.61965 1.31431 0
M  V30 25 C -0.244938 -1.63339 -0.540213 0
M  V30 26 O -0.568727 -0.640891 -1.24082 0
M  V30 27 N -1.19436 -2.638 -0.300065 0
M  V30 28 C -2.53186 -2.53137 -0.847279 0 CFG=1
M  V30 29 C -3.24279 -3.74953 -1.12238 0
M  V30 30 C -3.56309 -4.76895 -0.104758 0
M  V30 31 C -4.41199 -4.3681 1.04738 0
M  V30 32 C -2.38428 -5.64199 0.31798 0
M  V30 33 C -3.31183 -1.57093 0.0636866 0
M  V30 34 O -2.98535 -1.51688 1.25678 0
M  V30 35 N -4.34413 -0.792209 -0.466809 0
M  V30 36 C -4.77446 -0.810134 -1.91254 0
M  V30 37 C -6.2376 -1.02767 -1.74705 0
M  V30 38 C -6.59191 -0.506675 -0.339593 0
M  V30 39 C -5.25961 0.185366 0.0328539 0 CFG=1
M  V30 40 C -5.2242 0.677507 1.36924 0
M  V30 41 O -4.49147 0.278725 2.29083 0
M  V30 42 N -6.13243 1.76311 1.70433 0
M  V30 43 C -6.14955 2.32249 3.022 0 CFG=1
M  V30 44 C -5.69259 3.78305 2.97703 0
M  V30 45 O -6.52301 4.54286 2.1681 0
M  V30 46 C -7.41088 2.17659 3.7544 0
M  V30 47 O -7.56303 2.66986 5.05854 0
M  V30 48 O -8.41343 1.609 3.26205 0
M  V30 49 H 1.73084 3.26284 1.97347 0
M  V30 50 H 0.308019 2.18805 2.3859 0
M  V30 51 H 0.131289 3.99074 2.12543 0
M  V30 52 H -0.11496 1.86488 0.143623 0
M  V30 53 H 0.136384 4.78343 -0.548531 0
M  V30 54 H -1.16395 3.5996 -0.990135 0
M  V30 55 H -1.08871 4.33824 0.670856 0
M  V30 56 H 1.50675 2.79365 -1.52128 0
M  V30 57 H 2.07589 3.9828 -0.269301 0
M  V30 58 H 3.13663 2.09317 0.971722 0
M  V30 59 H 3.79325 2.10131 -1.92901 0
M  V30 60 H 5.71197 3.93466 -2.20363 0
M  V30 61 H 6.77772 5.20601 -0.623272 0
M  V30 62 H 7.99239 4.26207 -1.3113 0
M  V30 63 H 6.12249 1.5462 -2.44447 0
M  V30 64 H 7.66436 2.50972 -2.51902 0
M  V30 65 H 6.67931 1.01824 -0.0250143 0
M  V30 66 H 8.17023 1.9937 -0.188677 0
M  V30 67 H 8.62156 -0.420132 -0.477604 0
M  V30 68 H 8.98814 0.428409 -1.99689 0
M  V30 69 H 6.24421 -0.567661 -2.13694 0
M  V30 70 H 9.10273 -1.22929 -4.20105 0
M  V30 71 H 7.9049 -2.48309 -4.68866 0
M  V30 72 H 8.31381 -3.82706 -2.30409 0
M  V30 73 H 1.07687 0.155819 1.20684 0
M  V30 74 H 1.79375 -1.87355 -0.885484 0
M  V30 75 H 1.11404 -3.58893 0.721269 0
M  V30 76 H 0.346272 -1.31115 2.54176 0
M  V30 77 H -0.185518 -3.01908 2.51351 0
M  V30 78 H 1.38298 -2.6233 3.20686 0
M  V30 79 H 3.24967 -3.66307 1.53606 0
M  V30 80 H 3.46884 -2.24926 0.420975 0
M  V30 81 H 3.19859 -1.96151 2.16363 0
M  V30 82 H -0.936315 -3.44215 0.262354 0
M  V30 83 H -2.42903 -1.90492 -1.75989 0
M  V30 84 H -4.25824 -3.48102 -1.57174 0
M  V30 85 H -2.77805 -4.32409 -1.99541 0
M  V30 86 H -4.20307 -5.52425 -0.689049 0
M  V30 87 H -5.16723 -5.17257 1.24797 0
M  V30 88 H -5.0213 -3.48273 0.773844 0
M  V30 89 H -3.88006 -4.12413 1.98324 0
M  V30 90 H -1.98271 -5.32694 1.31256 0
M  V30 91 H -2.6705 -6.70712 0.455125 0
M  V30 92 H -1.60954 -5.62694 -0.47584 0
M  V30 93 H -4.64456 0.255544 -2.27701 0
M  V30 94 H -4.20458 -1.45099 -2.53238 0
M  V30 95 H -6.54338 -2.1081 -1.83579 0
M  V30 96 H -6.8465 -0.441982 -2.49375 0
M  V30 97 H -7.41678 0.225392 -0.39399 0
M  V30 98 H -6.78681 -1.34438 0.3578 0
M  V30 99 H -5.25858 1.06017 -0.7299 0
M  V30 100 H -6.75825 2.11136 0.972542 0
M  V30 101 H -5.36411 1.77522 3.62718 0
M  V30 102 H -4.63345 3.87162 2.70048 0
M  V30 103 H -5.78823 4.21347 4.01614 0
M  V30 104 H -6.77289 4.10942 1.3197 0
M  V30 105 H -8.25469 3.40326 5.21032 0
M  V30 END ATOM
M  V30 BEGIN BOND
M  V30 1 1 1 2
M  V30 2 1 2 3
M  V30 3 1 2 4
M  V30 4 1 4 5
M  V30 5 1 5 6
M  V30 6 1 6 7
M  V30 7 2 7 8
M  V30 8 1 7 9
M  V30 9 1 9 10
M  V30 10 1 9 11
M  V30 11 1 11 12
M  V30 12 1 12 13
M  V30 13 1 13 14
M  V30 14 1 14 15
M  V30 15 1 15 16
M  V30 16 2 15 17 CFG=2
M  V30 17 1 5 18
M  V30 18 2 18 19
M  V30 19 1 18 20
M  V30 20 1 20 21
M  V30 21 1 21 22
M  V30 22 1 22 23
M  V30 23 1 22 24
M  V30 24 1 21 25
M  V30 25 2 25 26
M  V30 26 1 25 27
M  V30 27 1 27 28
M  V30 28 1 28 29
M  V30 29 1 29 30
M  V30 30 1 30 31
M  V30 31 1 30 32
M  V30 32 1 28 33
M  V30 33 2 33 34
M  V30 34 1 33 35
M  V30 35 1 35 36
M  V30 36 1 36 37
M  V30 37 1 37 38
M  V30 38 1 38 39
M  V30 39 1 39 40
M  V30 40 2 40 41
M  V30 41 1 40 42
M  V30 42 1 42 43
M  V30 43 1 43 44
M  V30 44 1 44 45
M  V30 45 1 43 46
M  V30 46 1 46 47
M  V30 47 2 46 48
M  V30 48 1 39 35
M  V30 49 1 1 49
M  V30 50 1 1 50
M  V30 51 1 1 51
M  V30 52 1 2 52
M  V30 53 1 3 53
M  V30 54 1 3 54
M  V30 55 1 3 55
M  V30 56 1 4 56
M  V30 57 1 4 57
M  V30 58 1 5 58 CFG=1
M  V30 59 1 6 59
M  V30 60 1 9 60 CFG=3
M  V30 61 1 10 61
M  V30 62 1 10 62
M  V30 63 1 11 63
M  V30 64 1 11 64
M  V30 65 1 12 65
M  V30 66 1 12 66
M  V30 67 1 13 67
M  V30 68 1 13 68
M  V30 69 1 14 69
M  V30 70 1 16 70
M  V30 71 1 16 71
M  V30 72 1 17 72
M  V30 73 1 20 73
M  V30 74 1 21 74 CFG=3
M  V30 75 1 22 75
M  V30 76 1 23 76
M  V30 77 1 23 77
M  V30 78 1 23 78
M  V30 79 1 24 79
M  V30 80 1 24 80
M  V30 81 1 24 81
M  V30 82 1 27 82
M  V30 83 1 28 83 CFG=3
M  V30 84 1 29 84
M  V30 85 1 29 85
M  V30 86 1 30 86
M  V30 87 1 31 87
M  V30 88 1 31 88
M  V30 89 1 31 89
M  V30 90 1 32 90
M  V30 91 1 32 91
M  V30 92 1 32 92
M  V30 93 1 36 93
M  V30 94 1 36 94
M  V30 95 1 37 95
M  V30 96 1 37 96
M  V30 97 1 38 97
M  V30 98 1 38 98
M  V30 99 1 39 99 CFG=3
M  V30 100 1 42 100
M  V30 101 1 43 101 CFG=1
M  V30 102 1 44 102
M  V30 103 1 44 103
M  V30 104 1 45 104
M  V30 105 1 47 105
M  V30 END BOND
M  V30 END CTAB
M  END
