
     RDKit          3D

  0  0  0  0  0  0  0  0  0  0999 V3000
M  V30 BEGIN CTAB
M  V30 COUNTS 38 40 0 0 0
M  V30 BEGIN ATOM
M  V30 1 C 2.37588 -2.2756 -1.5692 0
M  V30 2 O 1.92167 -1.10876 -0.917686 0
M  V30 3 C 2.71509 -0.527346 0.0454534 0
M  V30 4 C 2.26255 0.609746 0.674151 0
M  V30 5 C 3.09312 1.15689 1.6321 0
M  V30 6 C 4.32243 0.581045 1.93921 0
M  V30 7 C 4.75093 -0.550103 1.30044 0
M  V30 8 C 3.93031 -1.10603 0.341573 0
M  V30 9 C 0.968963 1.14505 0.299572 0
M  V30 10 C -0.187378 0.395793 0.157509 0
M  V30 11 C -1.38335 0.972352 -0.205196 0
M  V30 12 C -1.47631 2.3347 -0.443608 0
M  V30 13 C -0.33166 3.10469 -0.30737 0
M  V30 14 C 0.848944 2.50509 0.0554681 0
M  V30 15 C -2.68527 2.90059 -0.807561 0
M  V30 16 Cl -2.78981 4.59881 -1.10218 0
M  V30 17 C -3.7558 2.03885 -0.912398 0
M  V30 18 N -3.66703 0.730395 -0.683532 0
M  V30 19 C -2.49976 0.158085 -0.32799 0
M  V30 20 N -2.33025 -1.22065 -0.0696697 0
M  V30 21 C -3.33264 -2.01319 -0.170162 0
M  V30 22 N -3.19512 -3.42901 0.0868289 0
M  V30 23 N -4.648 -1.61348 -0.531707 0
M  V30 24 H 2.66115 -3.08313 -0.87501 0
M  V30 25 H 1.58996 -2.62318 -2.29664 0
M  V30 26 H 3.26656 -2.03933 -2.21523 0
M  V30 27 H 2.76714 2.05116 2.14511 0
M  V30 28 H 4.95926 1.01906 2.68854 0
M  V30 29 H 5.71673 -1.02441 1.52424 0
M  V30 30 H 4.25669 -2.01458 -0.182621 0
M  V30 31 H -0.128023 -0.665511 0.343064 0
M  V30 32 H -0.438817 4.16321 -0.500468 0
M  V30 33 H 1.71784 3.14207 0.150521 0
M  V30 34 H -4.7217 2.47556 -1.20072 0
M  V30 35 H -3.07049 -4.03008 -0.741018 0
M  V30 36 H -3.21867 -3.82972 1.04293 0
M  V30 37 H -5.40995 -1.46769 0.180617 0
M  V30 38 H -4.85519 -1.46132 -1.54764 0
M  V30 END ATOM
M  V30 BEGIN BOND
M  V30 1 1 1 2
M  V30 2 1 2 3
M  V30 3 2 3 4
M  V30 4 1 4 5
M  V30 5 2 5 6
M  V30 6 1 6 7
M  V30 7 2 7 8
M  V30 8 1 4 9
M  V30 9 2 9 10
M  V30 10 1 10 11
M  V30 11 2 11 12
M  V30 12 1 12 13
M  V30 13 2 13 14
M  V30 14 1 12 15
M  V30 15 1 15 16
M  V30 16 2 15 17
M  V30 17 1 17 18
M  V30 18 2 18 19
M  V30 19 1 19 20
M  V30 20 2 20 21
M  V30 21 1 21 22
M  V30 22 1 21 23
M  V30 23 1 8 3
M  V30 24 1 14 9
M  V30 25 1 19 11
M  V30 26 1 1 24
M  V30 27 1 1 25
M  V30 28 1 1 26
M  V30 29 1 5 27
M  V30 30 1 6 28
M  V30 31 1 7 29
M  V30 32 1 8 30
M  V30 33 1 10 31
M  V30 34 1 13 32
M  V30 35 1 14 33
M  V30 36 1 17 34
M  V30 37 1 22 35
M  V30 38 1 22 36
M  V30 39 1 23 37
M  V30 40 1 23 38
M  V30 END BOND
M  V30 END CTAB
M  END
