
     RDKit          3D

  0  0  0  0  0  0  0  0  0  0999 V3000
M  V30 BEGIN CTAB
M  V30 COUNTS 53 53 0 0 0
M  V30 BEGIN ATOM
M  V30 1 N 8.34006 1.69828 0.465759 0
M  V30 2 C 7.14493 0.995716 -0.102948 0
M  V30 3 C 6.88613 -0.235315 0.677824 0
M  V30 4 C 5.82514 -1.12976 0.243425 0
M  V30 5 C 4.44627 -0.617135 0.117045 0
M  V30 6 C 4.12594 0.285133 -1.0119 0
M  V30 7 N 2.87822 0.920457 -1.0589 0
M  V30 8 C 1.65567 0.282687 -1.22898 0
M  V30 9 C 1.08863 -0.345103 -0.0160678 0
M  V30 10 C -0.200302 -1.0869 -0.263423 0
M  V30 11 C -1.34995 -0.386183 -0.770059 0
M  V30 12 N -2.04988 0.637556 -0.151059 0
M  V30 13 C -2.78084 0.336664 1.04406 0
M  V30 14 C -4.22961 0.270254 0.639664 0
M  V30 15 C -4.88242 -0.959194 0.828232 0
M  V30 16 C -6.18641 -1.17092 0.403578 0
M  V30 17 C -6.88004 -0.168378 -0.222699 0
M  V30 18 C -8.27259 -0.379004 -0.723675 0
M  V30 19 N -9.15827 -0.117571 0.386315 0
M  V30 20 C -6.24793 1.05111 -0.409676 0
M  V30 21 C -4.92507 1.26604 0.0229606 0
M  V30 22 H 8.33693 2.65445 0.0353427 0
M  V30 23 H 9.18425 1.23392 0.114705 0
M  V30 24 H 6.30489 1.76625 0.0402334 0
M  V30 25 H 7.32306 0.790507 -1.15225 0
M  V30 26 H 7.90814 -0.773311 0.721777 0
M  V30 27 H 6.6621 0.0430913 1.78063 0
M  V30 28 H 5.86731 -2.05327 0.91261 0
M  V30 29 H 6.10507 -1.58621 -0.784612 0
M  V30 30 H 3.82971 -1.61131 -0.0335833 0
M  V30 31 H 4.02702 -0.246625 1.05713 0
M  V30 32 H 4.11184 -0.394681 -1.99879 0
M  V30 33 H 4.90473 0.989909 -1.30457 0
M  V30 34 H 2.85566 1.91737 -1.38622 0
M  V30 35 H 1.78544 -0.55553 -1.99559 0
M  V30 36 H 0.943946 1.03695 -1.69052 0
M  V30 37 H 0.864652 0.534629 0.690552 0
M  V30 38 H 1.82896 -0.934179 0.518578 0
M  V30 39 H 0.106243 -1.84409 -1.06853 0
M  V30 40 H -0.346341 -1.74578 0.615353 0
M  V30 41 H -2.14965 -1.15968 -1.11495 0
M  V30 42 H -1.05691 0.0252803 -1.81246 0
M  V30 43 H -2.66917 1.14435 -0.804357 0
M  V30 44 H -2.45006 -0.477007 1.66507 0
M  V30 45 H -2.74947 1.27258 1.68221 0
M  V30 46 H -4.30487 -1.73562 1.32647 0
M  V30 47 H -6.68135 -2.12728 0.549188 0
M  V30 48 H -8.53582 0.23056 -1.60277 0
M  V30 49 H -8.37285 -1.44491 -1.07651 0
M  V30 50 H -8.92919 -0.890122 1.10209 0
M  V30 51 H -8.73404 0.740047 0.879808 0
M  V30 52 H -6.7763 1.84232 -0.90162 0
M  V30 53 H -4.4216 2.20895 -0.116678 0
M  V30 END ATOM
M  V30 BEGIN BOND
M  V30 1 1 1 2
M  V30 2 1 2 3
M  V30 3 1 3 4
M  V30 4 1 4 5
M  V30 5 1 5 6
M  V30 6 1 6 7
M  V30 7 1 7 8
M  V30 8 1 8 9
M  V30 9 1 9 10
M  V30 10 1 10 11
M  V30 11 1 11 12
M  V30 12 1 12 13
M  V30 13 1 13 14
M  V30 14 2 14 15
M  V30 15 1 15 16
M  V30 16 2 16 17
M  V30 17 1 17 18
M  V30 18 1 18 19
M  V30 19 1 17 20
M  V30 20 2 20 21
M  V30 21 1 21 14
M  V30 22 1 1 22
M  V30 23 1 1 23
M  V30 24 1 2 24
M  V30 25 1 2 25
M  V30 26 1 3 26
M  V30 27 1 3 27
M  V30 28 1 4 28
M  V30 29 1 4 29
M  V30 30 1 5 30
M  V30 31 1 5 31
M  V30 32 1 6 32
M  V30 33 1 6 33
M  V30 34 1 7 34
M  V30 35 1 8 35
M  V30 36 1 8 36
M  V30 37 1 9 37
M  V30 38 1 9 38
M  V30 39 1 10 39
M  V30 40 1 10 40
M  V30 41 1 11 41
M  V30 42 1 11 42
M  V30 43 1 12 43
M  V30 44 1 13 44
M  V30 45 1 13 45
M  V30 46 1 15 46
M  V30 47 1 16 47
M  V30 48 1 18 48
M  V30 49 1 18 49
M  V30 50 1 19 50
M  V30 51 1 19 51
M  V30 52 1 20 52
M  V30 53 1 21 53
M  V30 END BOND
M  V30 END CTAB
M  END
