
     RDKit          3D

  0  0  0  0  0  0  0  0  0  0999 V3000
M  V30 BEGIN CTAB
M  V30 COUNTS 37 39 0 0 0
M  V30 BEGIN ATOM
M  V30 1 N -0.52757 3.72902 -0.722993 0
M  V30 2 C -1.0929 2.47549 -0.367566 0
M  V30 3 N -2.4149 2.29474 -0.223328 0
M  V30 4 C -2.92889 1.10774 0.110662 0
M  V30 5 C -4.38096 0.941201 0.286271 0
M  V30 6 C -4.92868 -0.366896 -0.164404 0
M  V30 7 C -3.87793 -1.40199 -0.419311 0
M  V30 8 C -2.76048 -1.27437 0.653768 0
M  V30 9 C -2.09496 0.00734221 0.321004 0
M  V30 10 C -0.745947 0.183711 0.178008 0
M  V30 11 N -0.305392 1.42783 -0.165162 0
M  V30 12 C 0.20968 -0.866922 0.414913 0
M  V30 13 O -0.0646254 -1.97279 0.889075 0
M  V30 14 N 1.58804 -0.657911 0.0914017 0
M  V30 15 C 2.53945 -1.68937 0.321398 0
M  V30 16 C 3.89674 -1.18733 -0.155631 0
M  V30 17 C 4.37845 -1.48105 -1.41656 0
M  V30 18 S 5.88356 -0.686012 -1.40862 0
M  V30 19 C 5.82233 -0.0254266 0.188257 0
M  V30 20 N 4.64746 -0.461867 0.606531 0
M  V30 21 N 6.79105 0.776859 0.862231 0
M  V30 22 H 0.1894 4.19648 -0.14078 0
M  V30 23 H -0.833584 4.19809 -1.58696 0
M  V30 24 H -4.58668 1.08052 1.38697 0
M  V30 25 H -4.88231 1.79542 -0.239978 0
M  V30 26 H -5.49281 -0.201022 -1.12253 0
M  V30 27 H -5.69077 -0.750252 0.56594 0
M  V30 28 H -4.29415 -2.40616 -0.351364 0
M  V30 29 H -3.41348 -1.21452 -1.42349 0
M  V30 30 H -3.33771 -1.16506 1.60534 0
M  V30 31 H -2.20524 -2.18246 0.572655 0
M  V30 32 H 1.85481 0.26371 -0.310578 0
M  V30 33 H 2.65501 -1.90049 1.39911 0
M  V30 34 H 2.27962 -2.60779 -0.258085 0
M  V30 35 H 3.86359 -2.08529 -2.18442 0
M  V30 36 H 7.09882 0.488915 1.79661 0
M  V30 37 H 7.16197 1.61793 0.411618 0
M  V30 END ATOM
M  V30 BEGIN BOND
M  V30 1 1 1 2
M  V30 2 2 2 3
M  V30 3 1 3 4
M  V30 4 1 4 5
M  V30 5 1 5 6
M  V30 6 1 6 7
M  V30 7 1 7 8
M  V30 8 1 8 9
M  V30 9 1 9 10
M  V30 10 2 10 11
M  V30 11 1 10 12
M  V30 12 2 12 13
M  V30 13 1 12 14
M  V30 14 1 14 15
M  V30 15 1 15 16
M  V30 16 2 16 17
M  V30 17 1 17 18
M  V30 18 1 18 19
M  V30 19 2 19 20
M  V30 20 1 19 21
M  V30 21 1 11 2
M  V30 22 1 20 16
M  V30 23 2 9 4
M  V30 24 1 1 22
M  V30 25 1 1 23
M  V30 26 1 5 24
M  V30 27 1 5 25
M  V30 28 1 6 26
M  V30 29 1 6 27
M  V30 30 1 7 28
M  V30 31 1 7 29
M  V30 32 1 8 30
M  V30 33 1 8 31
M  V30 34 1 14 32
M  V30 35 1 15 33
M  V30 36 1 15 34
M  V30 37 1 17 35
M  V30 38 1 21 36
M  V30 39 1 21 37
M  V30 END BOND
M  V30 END CTAB
M  END
