
     RDKit          3D

  0  0  0  0  0  0  0  0  0  0999 V3000
M  V30 BEGIN CTAB
M  V30 COUNTS 37 38 0 0 0
M  V30 BEGIN ATOM
M  V30 1 N -4.40922 1.49795 1.46053 0
M  V30 2 C -3.30173 1.78099 0.584771 0
M  V30 3 C -2.48945 0.514687 0.283375 0
M  V30 4 N -3.41446 -0.406623 -0.351613 0
M  V30 5 C -2.76646 -1.32627 -1.24719 0
M  V30 6 C -1.33889 -1.49379 -0.772745 0
M  V30 7 C -0.602575 -0.216282 -1.18645 0
M  V30 8 C -1.37651 0.936529 -0.671255 0
M  V30 9 C 0.769846 -0.329657 -0.678426 0
M  V30 10 C 1.09954 -0.361417 0.653942 0
M  V30 11 C 2.41897 -0.470051 1.04537 0
M  V30 12 C 3.45971 -0.551208 0.14335 0
M  V30 13 C 3.12743 -0.519209 -1.19643 0
M  V30 14 C 1.80663 -0.410476 -1.58492 0
M  V30 15 C 4.87327 -0.66777 0.605017 0
M  V30 16 N 5.38648 0.678577 0.74113 0
M  V30 17 H -5.30758 1.92017 1.16063 0
M  V30 18 H -4.19373 1.63451 2.47019 0
M  V30 19 H -3.717 2.18233 -0.36206 0
M  V30 20 H -2.6459 2.52483 1.09884 0
M  V30 21 H -2.0833 0.125602 1.23763 0
M  V30 22 H -3.91457 -0.91526 0.411925 0
M  V30 23 H -3.31884 -2.28797 -1.24345 0
M  V30 24 H -2.75681 -0.861172 -2.26507 0
M  V30 25 H -1.30037 -1.52814 0.335212 0
M  V30 26 H -0.854458 -2.38687 -1.21023 0
M  V30 27 H -0.623553 -0.210509 -2.2947 0
M  V30 28 H -0.782637 1.70741 -0.158202 0
M  V30 29 H -1.91065 1.47117 -1.50667 0
M  V30 30 H 0.280877 -0.297552 1.35851 0
M  V30 31 H 2.64994 -0.492753 2.0988 0
M  V30 32 H 3.93935 -0.582471 -1.91644 0
M  V30 33 H 1.57867 -0.387927 -2.66241 0
M  V30 34 H 5.42961 -1.18287 -0.229408 0
M  V30 35 H 4.9762 -1.18422 1.56038 0
M  V30 36 H 4.89282 1.36993 0.140403 0
M  V30 37 H 6.41935 0.72577 0.65226 0
M  V30 END ATOM
M  V30 BEGIN BOND
M  V30 1 1 1 2
M  V30 2 1 2 3
M  V30 3 1 3 4
M  V30 4 1 4 5
M  V30 5 1 5 6
M  V30 6 1 6 7
M  V30 7 1 7 8
M  V30 8 1 7 9
M  V30 9 2 9 10
M  V30 10 1 10 11
M  V30 11 2 11 12
M  V30 12 1 12 13
M  V30 13 2 13 14
M  V30 14 1 12 15
M  V30 15 1 15 16
M  V30 16 1 8 3
M  V30 17 1 14 9
M  V30 18 1 1 17
M  V30 19 1 1 18
M  V30 20 1 2 19
M  V30 21 1 2 20
M  V30 22 1 3 21
M  V30 23 1 4 22
M  V30 24 1 5 23
M  V30 25 1 5 24
M  V30 26 1 6 25
M  V30 27 1 6 26
M  V30 28 1 7 27
M  V30 29 1 8 28
M  V30 30 1 8 29
M  V30 31 1 10 30
M  V30 32 1 11 31
M  V30 33 1 13 32
M  V30 34 1 14 33
M  V30 35 1 15 34
M  V30 36 1 15 35
M  V30 37 1 16 36
M  V30 38 1 16 37
M  V30 END BOND
M  V30 END CTAB
M  END
