
     RDKit          3D

  0  0  0  0  0  0  0  0  0  0999 V3000
M  V30 BEGIN CTAB
M  V30 COUNTS 19 20 0 0 0
M  V30 BEGIN ATOM
M  V30 1 Br 2.48235 2.70089 -0.103407 0
M  V30 2 C 2.53071 0.750849 0.0213637 0
M  V30 3 C 3.74977 0.132597 0.032884 0
M  V30 4 S 3.35866 -1.51155 0.148152 0
M  V30 5 C 1.65517 -1.39198 0.180113 0
M  V30 6 C 1.43412 -0.0440925 0.0982335 0
M  V30 7 C 0.0560687 0.530615 0.0932112 0
M  V30 8 N -0.285406 1.83835 0.0167801 0
M  V30 9 N -1.57259 2.01139 0.0355199 0
M  V30 10 C -2.13397 0.807673 0.126213 0
M  V30 11 N -1.11557 -0.0974088 0.160945 0
M  V30 12 N -1.36471 -1.44877 0.253917 0
M  V30 13 N -3.5121 0.528269 0.176223 0
M  V30 14 H 4.74908 0.597384 -0.0204088 0
M  V30 15 H 0.957066 -2.2347 0.250798 0
M  V30 16 H -1.59055 -1.92868 1.13552 0
M  V30 17 H -1.32282 -2.02166 -0.617855 0
M  V30 18 H -3.83845 -0.382902 0.596553 0
M  V30 19 H -4.23683 1.16372 -0.175685 0
M  V30 END ATOM
M  V30 BEGIN BOND
M  V30 1 1 1 2
M  V30 2 2 2 3
M  V30 3 1 3 4
M  V30 4 1 4 5
M  V30 5 2 5 6
M  V30 6 1 6 7
M  V30 7 2 7 8
M  V30 8 1 8 9
M  V30 9 2 9 10
M  V30 10 1 10 11
M  V30 11 1 11 12
M  V30 12 1 10 13
M  V30 13 1 6 2
M  V30 14 1 11 7
M  V30 15 1 3 14
M  V30 16 1 5 15
M  V30 17 1 12 16
M  V30 18 1 12 17
M  V30 19 1 13 18
M  V30 20 1 13 19
M  V30 END BOND
M  V30 END CTAB
M  END
