
     RDKit          3D

  0  0  0  0  0  0  0  0  0  0999 V3000
M  V30 BEGIN CTAB
M  V30 COUNTS 29 30 0 0 0
M  V30 BEGIN ATOM
M  V30 1 N -0.770561 3.11119 0.448743 0
M  V30 2 N 0.232345 2.23046 0.244586 0
M  V30 3 C 0.13051 0.960639 0.0549186 0
M  V30 4 C -1.15451 0.307207 0.0472705 0
M  V30 5 C -2.17605 0.752452 0.903298 0
M  V30 6 C -3.35106 0.0536459 1.10226 0
M  V30 7 Cl -4.58289 0.674833 2.18667 0
M  V30 8 C -3.58639 -1.1275 0.468517 0
M  V30 9 C -2.62364 -1.6094 -0.380628 0
M  V30 10 C -1.44256 -0.885725 -0.571581 0
M  V30 11 N -0.543036 -1.34307 -1.60811 0
M  V30 12 C 1.43451 0.234959 -0.0809547 0
M  V30 13 C 2.52473 0.966396 -0.572712 0
M  V30 14 C 3.77876 0.408763 -0.593856 0
M  V30 15 C 3.96583 -0.87294 -0.130509 0
M  V30 16 C 2.8909 -1.58213 0.350851 0
M  V30 17 C 1.60358 -1.01821 0.37701 0
M  V30 18 H -1.56817 3.29541 -0.237686 0
M  V30 19 H -0.812909 3.68962 1.34729 0
M  V30 20 H -2.06161 1.64053 1.46059 0
M  V30 21 H -4.491 -1.71333 0.593692 0
M  V30 22 H -2.75041 -2.55347 -0.920726 0
M  V30 23 H -0.087502 -0.686402 -2.25947 0
M  V30 24 H -0.34822 -2.3549 -1.7027 0
M  V30 25 H 2.35886 1.97174 -0.932494 0
M  V30 26 H 4.64862 0.963593 -0.975045 0
M  V30 27 H 4.95236 -1.31357 -0.147282 0
M  V30 28 H 3.02754 -2.59266 0.718262 0
M  V30 29 H 0.801992 -1.60813 0.809789 0
M  V30 END ATOM
M  V30 BEGIN BOND
M  V30 1 1 1 2
M  V30 2 2 2 3
M  V30 3 1 3 4
M  V30 4 2 4 5
M  V30 5 1 5 6
M  V30 6 1 6 7
M  V30 7 2 6 8
M  V30 8 1 8 9
M  V30 9 2 9 10
M  V30 10 1 10 11
M  V30 11 1 3 12
M  V30 12 2 12 13
M  V30 13 1 13 14
M  V30 14 2 14 15
M  V30 15 1 15 16
M  V30 16 2 16 17
M  V30 17 1 10 4
M  V30 18 1 17 12
M  V30 19 1 1 18
M  V30 20 1 1 19
M  V30 21 1 5 20
M  V30 22 1 8 21
M  V30 23 1 9 22
M  V30 24 1 11 23
M  V30 25 1 11 24
M  V30 26 1 13 25
M  V30 27 1 14 26
M  V30 28 1 15 27
M  V30 29 1 16 28
M  V30 30 1 17 29
M  V30 END BOND
M  V30 END CTAB
M  END
