
     RDKit          3D

  0  0  0  0  0  0  0  0  0  0999 V3000
M  V30 BEGIN CTAB
M  V30 COUNTS 50 53 0 0 0
M  V30 BEGIN ATOM
M  V30 1 C 3.73009 0.209143 0.189609 0 CFG=2
M  V30 2 C 3.24265 0.475783 1.57355 0
M  V30 3 C 1.85914 -0.104906 1.59812 0
M  V30 4 N 1.38335 0.12391 0.249453 0
M  V30 5 C 2.50099 -0.282994 -0.574166 0
M  V30 6 C 0.150999 0.669392 -0.153802 0
M  V30 7 C 0.0987593 2.02786 -0.368123 0
M  V30 8 F 1.20793 2.75617 -0.205025 0
M  V30 9 C -1.06004 2.6211 -0.739509 0
M  V30 10 C -2.20155 1.87512 -0.905039 0
M  V30 11 C -3.35817 2.49352 -1.32387 0
M  V30 12 O -3.32063 3.731 -1.50149 0
M  V30 13 N -4.42643 1.73252 -1.5081 0
M  V30 14 N -5.61194 2.33979 -1.93854 0
M  V30 15 C -4.4269 0.42445 -1.30461 0
M  V30 16 O -5.44447 -0.237846 -1.50127 0
M  V30 17 N -3.30353 -0.238858 -0.881477 0
M  V30 18 C -3.4035 -1.61985 -0.538809 0
M  V30 19 C -4.83243 -1.93034 0.0338082 0
M  V30 20 C -3.63893 -2.26393 0.762127 0
M  V30 21 C -2.15801 0.481249 -0.682514 0
M  V30 22 C -0.999124 -0.145928 -0.312585 0
M  V30 23 C -0.860932 -1.58374 -0.182926 0
M  V30 24 C 4.83538 -0.832302 0.163314 0 CFG=2
M  V30 25 C 5.96791 -0.274589 1.00945 0
M  V30 26 N 5.33871 -0.928323 -1.19883 0
M  V30 27 H 4.15345 1.12207 -0.267286 0
M  V30 28 H 3.83131 0.00483524 2.37171 0
M  V30 29 H 3.15001 1.55783 1.80483 0
M  V30 30 H 1.91118 -1.22595 1.72415 0
M  V30 31 H 1.21746 0.332171 2.36928 0
M  V30 32 H 2.46886 0.130714 -1.58283 0
M  V30 33 H 2.5379 -1.38466 -0.612123 0
M  V30 34 H -1.13333 3.68921 -0.91793 0
M  V30 35 H -6.17214 2.96001 -1.30581 0
M  V30 36 H -5.91165 2.14497 -2.92126 0
M  V30 37 H -3.37711 -2.26358 -1.49317 0
M  V30 38 H -5.48805 -1.11614 0.393667 0
M  V30 39 H -5.4178 -2.76672 -0.375221 0
M  V30 40 H -3.29621 -1.70763 1.67168 0
M  V30 41 H -3.28945 -3.32532 0.809124 0
M  V30 42 H 0.288827 -1.73428 -0.376491 0
M  V30 43 H -0.778218 -2.00311 0.841556 0
M  V30 44 H -1.11849 -2.25077 -1.01075 0
M  V30 45 H 4.48369 -1.81065 0.548354 0
M  V30 46 H 5.86817 0.822467 1.14806 0
M  V30 47 H 6.94531 -0.430551 0.507781 0
M  V30 48 H 5.98603 -0.777359 2.00064 0
M  V30 49 H 5.66023 0.0308766 -1.45683 0
M  V30 50 H 6.2107 -1.51584 -1.16285 0
M  V30 END ATOM
M  V30 BEGIN BOND
M  V30 1 1 1 2
M  V30 2 1 2 3
M  V30 3 1 3 4
M  V30 4 1 4 5
M  V30 5 1 4 6
M  V30 6 2 6 7
M  V30 7 1 7 8
M  V30 8 1 7 9
M  V30 9 2 9 10
M  V30 10 1 10 11
M  V30 11 2 11 12
M  V30 12 1 11 13
M  V30 13 1 13 14
M  V30 14 1 13 15
M  V30 15 2 15 16
M  V30 16 1 15 17
M  V30 17 1 17 18
M  V30 18 1 18 19
M  V30 19 1 19 20
M  V30 20 1 17 21
M  V30 21 2 21 22
M  V30 22 1 22 23
M  V30 23 1 1 24
M  V30 24 1 24 25
M  V30 25 1 24 26
M  V30 26 1 5 1
M  V30 27 1 22 6
M  V30 28 1 21 10
M  V30 29 1 20 18
M  V30 30 1 1 27 CFG=3
M  V30 31 1 2 28
M  V30 32 1 2 29
M  V30 33 1 3 30
M  V30 34 1 3 31
M  V30 35 1 5 32
M  V30 36 1 5 33
M  V30 37 1 9 34
M  V30 38 1 14 35
M  V30 39 1 14 36
M  V30 40 1 18 37
M  V30 41 1 19 38
M  V30 42 1 19 39
M  V30 43 1 20 40
M  V30 44 1 20 41
M  V30 45 1 23 42
M  V30 46 1 23 43
M  V30 47 1 23 44
M  V30 48 1 24 45 CFG=1
M  V30 49 1 25 46
M  V30 50 1 25 47
M  V30 51 1 25 48
M  V30 52 1 26 49
M  V30 53 1 26 50
M  V30 END BOND
M  V30 END CTAB
M  END
