
     RDKit          3D

  0  0  0  0  0  0  0  0  0  0999 V3000
M  V30 BEGIN CTAB
M  V30 COUNTS 29 30 0 0 0
M  V30 BEGIN ATOM
M  V30 1 C -3.86215 0.495113 0.713476 0
M  V30 2 C -3.17977 -0.611326 -0.0491003 0
M  V30 3 C -1.803 -0.136554 -0.4804 0
M  V30 4 C -1.01915 0.209888 0.775382 0
M  V30 5 N 0.305284 0.67122 0.452986 0
M  V30 6 C 0.638806 1.94615 0.229086 0
M  V30 7 N 1.95804 1.94258 -0.0350397 0
M  V30 8 C 2.44296 0.686488 0.0224078 0
M  V30 9 C 1.37208 -0.142202 0.339223 0
M  V30 10 N 1.57764 -1.46665 0.461123 0
M  V30 11 C 2.78528 -2.03562 0.289021 0
M  V30 12 N 3.81968 -1.22984 -0.0176568 0
M  V30 13 C 3.68284 0.106916 -0.154854 0
M  V30 14 N 4.80521 0.919154 -0.479976 0
M  V30 15 N -1.07871 -1.14541 -1.19647 0
M  V30 16 H -4.94248 0.234562 0.760347 0
M  V30 17 H -3.50131 0.481692 1.778 0
M  V30 18 H -3.68027 1.47743 0.24981 0
M  V30 19 H -3.09451 -1.47353 0.640559 0
M  V30 20 H -3.72069 -0.903955 -0.949861 0
M  V30 21 H -1.85528 0.767625 -1.0852 0
M  V30 22 H -0.979548 -0.6934 1.4275 0
M  V30 23 H -1.5164 0.998502 1.37192 0
M  V30 24 H -0.0187672 2.82884 0.252242 0
M  V30 25 H 2.9053 -3.1135 0.397708 0
M  V30 26 H 5.74679 0.688761 -0.0431341 0
M  V30 27 H 4.72648 1.71335 -1.11959 0
M  V30 28 H -1.3003 -2.10448 -0.801789 0
M  V30 29 H -1.21406 -1.11182 -2.22468 0
M  V30 END ATOM
M  V30 BEGIN BOND
M  V30 1 1 1 2
M  V30 2 1 2 3
M  V30 3 1 3 4
M  V30 4 1 4 5
M  V30 5 1 5 6
M  V30 6 2 6 7
M  V30 7 1 7 8
M  V30 8 2 8 9
M  V30 9 1 9 10
M  V30 10 2 10 11
M  V30 11 1 11 12
M  V30 12 2 12 13
M  V30 13 1 13 14
M  V30 14 1 3 15
M  V30 15 1 9 5
M  V30 16 1 13 8
M  V30 17 1 1 16
M  V30 18 1 1 17
M  V30 19 1 1 18
M  V30 20 1 2 19
M  V30 21 1 2 20
M  V30 22 1 3 21
M  V30 23 1 4 22
M  V30 24 1 4 23
M  V30 25 1 6 24
M  V30 26 1 11 25
M  V30 27 1 14 26
M  V30 28 1 14 27
M  V30 29 1 15 28
M  V30 30 1 15 29
M  V30 END BOND
M  V30 END CTAB
M  END
