
     RDKit          3D

  0  0  0  0  0  0  0  0  0  0999 V3000
M  V30 BEGIN CTAB
M  V30 COUNTS 50 53 0 0 0
M  V30 BEGIN ATOM
M  V30 1 C 0.249106 0.491087 -0.0727919 0 CFG=1
M  V30 2 O 0.100451 1.56671 0.752512 0
M  V30 3 C -1.17163 2.05587 0.668073 0
M  V30 4 C -1.99969 1.07407 -0.142878 0 CFG=2
M  V30 5 O -2.44719 -0.000990426 0.606992 0
M  V30 6 C -3.70185 -0.522707 0.737773 0
M  V30 7 C -4.76088 0.0222091 0.0693464 0
M  V30 8 C -6.02301 -0.545296 0.234611 0
M  V30 9 C -6.15931 -1.64035 1.06958 0
M  V30 10 C -5.094 -2.19061 1.74364 0
M  V30 11 C -3.87118 -1.61188 1.56068 0
M  V30 12 C -7.18978 -0.0214654 -0.441201 0
M  V30 13 N -8.44694 -0.65629 -0.221867 0
M  V30 14 N -7.18967 0.980117 -1.23253 0
M  V30 15 C -0.896466 0.51489 -1.06073 0 CFG=1
M  V30 16 O -0.559425 1.38514 -2.0576 0
M  V30 17 C 0.774939 1.66903 -2.00353 0
M  V30 18 C 1.42605 0.683579 -1.04809 0 CFG=1
M  V30 19 O 2.53987 1.18431 -0.421721 0
M  V30 20 C 3.74686 0.535338 -0.348877 0
M  V30 21 C 4.77944 1.2035 0.335852 0
M  V30 22 C 5.99116 0.598482 0.432651 0
M  V30 23 C 6.28209 -0.643704 -0.102179 0
M  V30 24 C 5.27892 -1.30303 -0.772604 0
M  V30 25 C 4.02419 -0.697394 -0.883441 0
M  V30 26 C 7.61287 -1.19842 0.0600907 0
M  V30 27 N 8.6054 -0.479618 0.757565 0
M  V30 28 N 7.89502 -2.35006 -0.431733 0
M  V30 29 H 0.338909 -0.48238 0.441791 0
M  V30 30 H -1.15486 3.00549 0.0945034 0
M  V30 31 H -1.64124 2.26043 1.65761 0
M  V30 32 H -2.76572 1.58912 -0.723754 0
M  V30 33 H -4.62251 0.876186 -0.574626 0
M  V30 34 H -7.12657 -2.10173 1.21713 0
M  V30 35 H -5.18222 -3.04807 2.40162 0
M  V30 36 H -3.02052 -2.03665 2.08738 0
M  V30 37 H -8.79173 -0.746298 0.741465 0
M  V30 38 H -8.9536 -0.999526 -1.07212 0
M  V30 39 H -6.32186 1.48589 -1.43732 0
M  V30 40 H -1.16142 -0.495171 -1.42415 0
M  V30 41 H 1.29196 1.64945 -2.98517 0
M  V30 42 H 0.887618 2.67725 -1.51578 0
M  V30 43 H 1.55055 -0.308354 -1.51122 0
M  V30 44 H 4.58092 2.18867 0.770807 0
M  V30 45 H 6.79759 1.12128 0.967886 0
M  V30 46 H 5.45942 -2.26392 -1.2012 0
M  V30 47 H 3.24442 -1.25324 -1.42663 0
M  V30 48 H 8.73443 -0.628022 1.7868 0
M  V30 49 H 9.23793 0.209729 0.304623 0
M  V30 50 H 8.82316 -2.80266 -0.352002 0
M  V30 END ATOM
M  V30 BEGIN BOND
M  V30 1 1 1 2
M  V30 2 1 2 3
M  V30 3 1 3 4
M  V30 4 1 4 5
M  V30 5 1 5 6
M  V30 6 2 6 7
M  V30 7 1 7 8
M  V30 8 2 8 9
M  V30 9 1 9 10
M  V30 10 2 10 11
M  V30 11 1 8 12
M  V30 12 1 12 13
M  V30 13 2 12 14 CFG=2
M  V30 14 1 4 15
M  V30 15 1 15 16
M  V30 16 1 16 17
M  V30 17 1 17 18
M  V30 18 1 18 19
M  V30 19 1 19 20
M  V30 20 2 20 21
M  V30 21 1 21 22
M  V30 22 2 22 23
M  V30 23 1 23 24
M  V30 24 2 24 25
M  V30 25 1 23 26
M  V30 26 1 26 27
M  V30 27 2 26 28 CFG=2
M  V30 28 1 15 1
M  V30 29 1 25 20
M  V30 30 1 18 1
M  V30 31 1 11 6
M  V30 32 1 1 29 CFG=1
M  V30 33 1 3 30
M  V30 34 1 3 31
M  V30 35 1 4 32 CFG=3
M  V30 36 1 7 33
M  V30 37 1 9 34
M  V30 38 1 10 35
M  V30 39 1 11 36
M  V30 40 1 13 37
M  V30 41 1 13 38
M  V30 42 1 14 39
M  V30 43 1 15 40 CFG=3
M  V30 44 1 17 41
M  V30 45 1 17 42
M  V30 46 1 18 43 CFG=3
M  V30 47 1 21 44
M  V30 48 1 22 45
M  V30 49 1 24 46
M  V30 50 1 25 47
M  V30 51 1 27 48
M  V30 52 1 27 49
M  V30 53 1 28 50
M  V30 END BOND
M  V30 END CTAB
M  END
