
     RDKit          3D

  0  0  0  0  0  0  0  0  0  0999 V3000
M  V30 BEGIN CTAB
M  V30 COUNTS 59 61 0 0 0
M  V30 BEGIN ATOM
M  V30 1 C -2.04826 -2.17558 2.48037 0
M  V30 2 N -1.62294 -1.76185 1.13937 0
M  V30 3 C -2.65129 -1.57794 0.154493 0
M  V30 4 C -3.4981 -0.378712 0.36646 0
M  V30 5 C -4.53931 -0.158262 -0.535744 0
M  V30 6 C -4.81296 -1.05933 -1.64793 0
M  V30 7 C -5.3404 0.97974 -0.355113 0
M  V30 8 C -5.03472 1.82257 0.729152 0
M  V30 9 N -4.02391 1.56783 1.56736 0
M  V30 10 C -3.26294 0.47488 1.38466 0
M  V30 11 N -5.82007 2.91965 0.891493 0
M  V30 12 C -6.83673 3.22383 0.093239 0
M  V30 13 N -7.66045 4.37046 0.260671 0
M  V30 14 N -7.1147 2.40852 -0.936662 0
M  V30 15 C -6.38196 1.28836 -1.17538 0
M  V30 16 N -6.73071 0.478966 -2.26883 0
M  V30 17 C -0.239366 -1.56643 0.885336 0
M  V30 18 C 0.275984 -1.15556 -0.316456 0
M  V30 19 C 1.64675 -0.986164 -0.494078 0
M  V30 20 C 2.55834 -1.21558 0.507142 0
M  V30 21 C 2.03745 -1.62868 1.71476 0
M  V30 22 C 0.692498 -1.80135 1.90952 0
M  V30 23 C 4.00969 -1.04329 0.332172 0
M  V30 24 O 4.76594 -1.08789 1.33629 0
M  V30 25 N 4.60357 -0.826433 -0.936729 0
M  V30 26 C 6.0077 -0.656935 -1.11501 0
M  V30 27 C 6.59243 0.533835 -0.386064 0
M  V30 28 C 5.9087 1.79634 -0.899988 0
M  V30 29 C 6.42851 3.00157 -0.233276 0
M  V30 30 O 7.41211 2.88172 0.743118 0
M  V30 31 O 5.94304 4.10701 -0.590616 0
M  V30 32 C 6.81377 -1.84562 -0.769579 0
M  V30 33 O 8.19155 -1.87185 -0.868569 0
M  V30 34 O 6.2262 -2.87646 -0.369024 0
M  V30 35 H -3.1452 -2.17272 2.55918 0
M  V30 36 H -1.73905 -3.25725 2.56714 0
M  V30 37 H -1.61206 -1.55954 3.2625 0
M  V30 38 H -3.28378 -2.51114 0.137321 0
M  V30 39 H -2.22824 -1.49793 -0.86069 0
M  V30 40 H -4.53711 -0.702094 -2.66018 0
M  V30 41 H -4.02152 -1.88529 -1.55652 0
M  V30 42 H -5.70535 -1.70069 -1.57536 0
M  V30 43 H -2.44149 0.348845 2.11553 0
M  V30 44 H -8.19798 4.76959 -0.539107 0
M  V30 45 H -7.69668 4.7867 1.22047 0
M  V30 46 H -7.45247 -0.28606 -2.09834 0
M  V30 47 H -6.35212 0.577037 -3.24507 0
M  V30 48 H -0.395179 -0.952053 -1.15575 0
M  V30 49 H 2.01397 -0.655651 -1.47287 0
M  V30 50 H 2.73902 -1.82056 2.53417 0
M  V30 51 H 0.281491 -2.1297 2.86444 0
M  V30 52 H 3.99285 -0.78797 -1.79692 0
M  V30 53 H 6.23061 -0.463725 -2.21109 0
M  V30 54 H 6.48328 0.518454 0.693176 0
M  V30 55 H 7.6615 0.649438 -0.617638 0
M  V30 56 H 4.80868 1.75818 -0.71674 0
M  V30 57 H 6.14239 1.88054 -1.98714 0
M  V30 58 H 7.13824 2.70464 1.70533 0
M  V30 59 H 8.82079 -1.79238 -0.0859376 0
M  V30 END ATOM
M  V30 BEGIN BOND
M  V30 1 1 1 2
M  V30 2 1 2 3
M  V30 3 1 3 4
M  V30 4 2 4 5
M  V30 5 1 5 6
M  V30 6 1 5 7
M  V30 7 2 7 8
M  V30 8 1 8 9
M  V30 9 2 9 10
M  V30 10 1 8 11
M  V30 11 2 11 12
M  V30 12 1 12 13
M  V30 13 1 12 14
M  V30 14 2 14 15
M  V30 15 1 15 16
M  V30 16 1 2 17
M  V30 17 2 17 18
M  V30 18 1 18 19
M  V30 19 2 19 20
M  V30 20 1 20 21
M  V30 21 2 21 22
M  V30 22 1 20 23
M  V30 23 2 23 24
M  V30 24 1 23 25
M  V30 25 1 25 26
M  V30 26 1 26 27
M  V30 27 1 27 28
M  V30 28 1 28 29
M  V30 29 1 29 30
M  V30 30 2 29 31
M  V30 31 1 26 32
M  V30 32 1 32 33
M  V30 33 2 32 34
M  V30 34 1 10 4
M  V30 35 1 22 17
M  V30 36 1 15 7
M  V30 37 1 1 35
M  V30 38 1 1 36
M  V30 39 1 1 37
M  V30 40 1 3 38
M  V30 41 1 3 39
M  V30 42 1 6 40
M  V30 43 1 6 41
M  V30 44 1 6 42
M  V30 45 1 10 43
M  V30 46 1 13 44
M  V30 47 1 13 45
M  V30 48 1 16 46
M  V30 49 1 16 47
M  V30 50 1 18 48
M  V30 51 1 19 49
M  V30 52 1 21 50
M  V30 53 1 22 51
M  V30 54 1 25 52
M  V30 55 1 26 53
M  V30 56 1 27 54
M  V30 57 1 27 55
M  V30 58 1 28 56
M  V30 59 1 28 57
M  V30 60 1 30 58
M  V30 61 1 33 59
M  V30 END BOND
M  V30 END CTAB
M  END
