
     RDKit          3D

  0  0  0  0  0  0  0  0  0  0999 V3000
M  V30 BEGIN CTAB
M  V30 COUNTS 24 24 0 0 0
M  V30 BEGIN ATOM
M  V30 1 N -2.70426 0.60859 0.829629 0
M  V30 2 C -2.08337 0.317553 -0.478375 0
M  V30 3 C -0.622592 -0.0296321 -0.229213 0
M  V30 4 C 0.195099 1.09668 -0.0845834 0
M  V30 5 N -0.459877 2.38352 -0.0894873 0
M  V30 6 C 1.52396 0.99591 0.0892499 0
M  V30 7 C 2.04491 -0.275219 0.136771 0
M  V30 8 N 1.29363 -1.36117 -0.0109914 0
M  V30 9 C -0.0352661 -1.26895 -0.201457 0
M  V30 10 C -0.891564 -2.41272 -0.535556 0
M  V30 11 C 3.50915 -0.428227 0.443054 0
M  V30 12 H -3.24941 1.49671 0.765526 0
M  V30 13 H -2.48905 0.113183 1.61991 0
M  V30 14 H -2.26873 1.08634 -1.1622 0
M  V30 15 H -2.56655 -0.70966 -0.723393 0
M  V30 16 H -0.885464 2.73009 -1.00714 0
M  V30 17 H -0.583939 2.99727 0.725281 0
M  V30 18 H 2.10306 1.92894 0.215356 0
M  V30 19 H -0.27319 -3.28989 -0.727331 0
M  V30 20 H -1.6007 -2.55961 0.278612 0
M  V30 21 H -1.49123 -2.20507 -1.48972 0
M  V30 22 H 3.69415 0.140815 1.379 0
M  V30 23 H 4.05592 0.103127 -0.375007 0
M  V30 24 H 3.78532 -1.45859 0.632068 0
M  V30 END ATOM
M  V30 BEGIN BOND
M  V30 1 1 1 2
M  V30 2 1 2 3
M  V30 3 2 3 4
M  V30 4 1 4 5
M  V30 5 1 4 6
M  V30 6 2 6 7
M  V30 7 1 7 8
M  V30 8 2 8 9
M  V30 9 1 9 10
M  V30 10 1 7 11
M  V30 11 1 9 3
M  V30 12 1 1 12
M  V30 13 1 1 13
M  V30 14 1 2 14
M  V30 15 1 2 15
M  V30 16 1 5 16
M  V30 17 1 5 17
M  V30 18 1 6 18
M  V30 19 1 10 19
M  V30 20 1 10 20
M  V30 21 1 10 21
M  V30 22 1 11 22
M  V30 23 1 11 23
M  V30 24 1 11 24
M  V30 END BOND
M  V30 END CTAB
M  END
