
     RDKit          3D

  0  0  0  0  0  0  0  0  0  0999 V3000
M  V30 BEGIN CTAB
M  V30 COUNTS 35 36 0 0 0
M  V30 BEGIN ATOM
M  V30 1 N -2.88284 3.04629 -0.142046 0
M  V30 2 C -2.41074 1.8232 0.396992 0
M  V30 3 C -1.73243 0.9419 -0.627851 0
M  V30 4 N -1.27161 -0.297784 -0.0905183 0
M  V30 5 C -2.31496 -1.19994 0.24823 0
M  V30 6 C -1.71486 -2.40723 0.92613 0
M  V30 7 O -0.65935 -2.98492 0.280937 0
M  V30 8 C -0.266551 -2.39282 -0.895028 0
M  V30 9 C -0.267823 -0.903677 -0.877433 0 CFG=2
M  V30 10 C 1.05373 -0.362912 -0.424301 0
M  V30 11 C 1.99566 0.0695284 -1.33306 0
M  V30 12 C 3.21148 0.567961 -0.941092 0
M  V30 13 C 3.52396 0.650077 0.382342 0
M  V30 14 C 2.60573 0.225593 1.32979 0
M  V30 15 C 1.36808 -0.281182 0.914729 0
M  V30 16 N 4.79117 1.17385 0.780895 0
M  V30 17 H -2.53731 3.86774 0.307506 0
M  V30 18 H -3.86773 3.10804 -0.345335 0
M  V30 19 H -3.16706 1.25291 0.940117 0
M  V30 20 H -1.59043 2.11868 1.13215 0
M  V30 21 H -2.45854 0.744913 -1.44874 0
M  V30 22 H -0.884717 1.53198 -1.07863 0
M  V30 23 H -2.89936 -1.55894 -0.634201 0
M  V30 24 H -3.03468 -0.757632 0.984771 0
M  V30 25 H -1.34511 -2.03655 1.91716 0
M  V30 26 H -2.49743 -3.15939 1.1788 0
M  V30 27 H -0.839532 -2.8207 -1.73627 0
M  V30 28 H 0.79874 -2.72003 -1.05932 0
M  V30 29 H -0.419274 -0.581692 -1.95007 0
M  V30 30 H 1.77852 0.0251913 -2.39364 0
M  V30 31 H 3.95181 0.91252 -1.67581 0
M  V30 32 H 2.83516 0.278785 2.39273 0
M  V30 33 H 0.691721 -0.600248 1.68021 0
M  V30 34 H 5.60268 1.12058 0.135652 0
M  V30 35 H 4.85389 1.6059 1.7242 0
M  V30 END ATOM
M  V30 BEGIN BOND
M  V30 1 1 1 2
M  V30 2 1 2 3
M  V30 3 1 3 4
M  V30 4 1 4 5
M  V30 5 1 5 6
M  V30 6 1 6 7
M  V30 7 1 7 8
M  V30 8 1 8 9
M  V30 9 1 9 10
M  V30 10 2 10 11
M  V30 11 1 11 12
M  V30 12 2 12 13
M  V30 13 1 13 14
M  V30 14 2 14 15
M  V30 15 1 13 16
M  V30 16 1 9 4
M  V30 17 1 15 10
M  V30 18 1 1 17
M  V30 19 1 1 18
M  V30 20 1 2 19
M  V30 21 1 2 20
M  V30 22 1 3 21
M  V30 23 1 3 22
M  V30 24 1 5 23
M  V30 25 1 5 24
M  V30 26 1 6 25
M  V30 27 1 6 26
M  V30 28 1 8 27
M  V30 29 1 8 28
M  V30 30 1 9 29 CFG=3
M  V30 31 1 11 30
M  V30 32 1 12 31
M  V30 33 1 14 32
M  V30 34 1 15 33
M  V30 35 1 16 34
M  V30 36 1 16 35
M  V30 END BOND
M  V30 END CTAB
M  END
