
     RDKit          3D

  0  0  0  0  0  0  0  0  0  0999 V3000
M  V30 BEGIN CTAB
M  V30 COUNTS 44 44 0 0 0
M  V30 BEGIN ATOM
M  V30 1 C -4.47746 1.55241 -1.56069 0
M  V30 2 C -3.0309 1.32887 -1.52626 0
M  V30 3 C -2.49402 0.420804 -0.407401 0
M  V30 4 N -1.06556 0.40158 -0.635497 0
M  V30 5 C -0.0351323 -0.122807 0.13432 0
M  V30 6 O -0.212799 -0.683633 1.22341 0
M  V30 7 C 1.38379 -0.0235954 -0.346597 0
M  V30 8 C 2.28765 -0.655706 0.650994 0
M  V30 9 C 3.70448 -0.617109 0.284471 0
M  V30 10 C 4.66005 -0.892884 1.24865 0
M  V30 11 C 6.01668 -0.868086 0.946794 0
M  V30 12 C 6.4278 -0.564548 -0.332652 0
M  V30 13 C 5.46935 -0.295422 -1.26973 0
M  V30 14 C 4.10537 -0.312479 -0.997829 0
M  V30 15 N 2.11252 0.0447934 1.92396 0
M  V30 16 C -2.73617 1.13362 0.890981 0
M  V30 17 N -4.09875 1.42579 1.18878 0
M  V30 18 C -3.16447 -0.916733 -0.515305 0
M  V30 19 C -2.84476 -1.9736 0.447221 0
M  V30 20 H -5.14783 0.867737 -1.0555 0
M  V30 21 H -4.66195 2.55588 -1.06045 0
M  V30 22 H -4.85505 1.76825 -2.61844 0
M  V30 23 H -2.46617 2.27993 -1.49417 0
M  V30 24 H -2.71301 0.836089 -2.49123 0
M  V30 25 H -0.729828 0.863717 -1.55125 0
M  V30 26 H 1.63576 1.0034 -0.613324 0
M  V30 27 H 1.45866 -0.622643 -1.29411 0
M  V30 28 H 1.92424 -1.71344 0.802126 0
M  V30 29 H 4.31737 -1.12874 2.24626 0
M  V30 30 H 6.74221 -1.09205 1.73738 0
M  V30 31 H 7.49607 -0.550716 -0.547519 0
M  V30 32 H 5.78736 -0.0559882 -2.278 0
M  V30 33 H 3.37427 -0.096569 -1.75511 0
M  V30 34 H 2.86367 0.790031 1.99125 0
M  V30 35 H 2.10264 -0.59166 2.72718 0
M  V30 36 H -2.20833 0.61748 1.73676 0
M  V30 37 H -2.21071 2.13105 0.778589 0
M  V30 38 H -4.67075 0.642946 1.5157 0
M  V30 39 H -4.23674 2.27404 1.74982 0
M  V30 40 H -3.01248 -1.33555 -1.54451 0
M  V30 41 H -4.28362 -0.759421 -0.463881 0
M  V30 42 H -1.97865 -2.62759 0.226235 0
M  V30 43 H -2.81736 -1.71504 1.51311 0
M  V30 44 H -3.71744 -2.72242 0.39546 0
M  V30 END ATOM
M  V30 BEGIN BOND
M  V30 1 1 1 2
M  V30 2 1 2 3
M  V30 3 1 3 4
M  V30 4 1 4 5
M  V30 5 2 5 6
M  V30 6 1 5 7
M  V30 7 1 7 8
M  V30 8 1 8 9
M  V30 9 2 9 10
M  V30 10 1 10 11
M  V30 11 2 11 12
M  V30 12 1 12 13
M  V30 13 2 13 14
M  V30 14 1 8 15
M  V30 15 1 3 16
M  V30 16 1 16 17
M  V30 17 1 3 18
M  V30 18 1 18 19
M  V30 19 1 14 9
M  V30 20 1 1 20
M  V30 21 1 1 21
M  V30 22 1 1 22
M  V30 23 1 2 23
M  V30 24 1 2 24
M  V30 25 1 4 25
M  V30 26 1 7 26
M  V30 27 1 7 27
M  V30 28 1 8 28
M  V30 29 1 10 29
M  V30 30 1 11 30
M  V30 31 1 12 31
M  V30 32 1 13 32
M  V30 33 1 14 33
M  V30 34 1 15 34
M  V30 35 1 15 35
M  V30 36 1 16 36
M  V30 37 1 16 37
M  V30 38 1 17 38
M  V30 39 1 17 39
M  V30 40 1 18 40
M  V30 41 1 18 41
M  V30 42 1 19 42
M  V30 43 1 19 43
M  V30 44 1 19 44
M  V30 END BOND
M  V30 END CTAB
M  END
