
     RDKit          3D

  0  0  0  0  0  0  0  0  0  0999 V3000
M  V30 BEGIN CTAB
M  V30 COUNTS 26 27 0 0 0
M  V30 BEGIN ATOM
M  V30 1 C 2.1541 -1.64416 0.0203073 0
M  V30 2 C 1.97306 -0.189747 0.0450823 0
M  V30 3 C 3.11437 0.586645 0.0229628 0
M  V30 4 C 3.04657 1.95493 0.0432725 0
M  V30 5 C 1.82261 2.55471 0.086231 0
M  V30 6 C 0.657007 1.77442 0.108994 0
M  V30 7 C 0.736365 0.396115 0.0882222 0
M  V30 8 C -0.466562 -0.424357 0.111744 0
M  V30 9 N -0.517337 -1.78692 0.0954506 0
M  V30 10 C -1.78132 -2.22237 0.125638 0
M  V30 11 N -2.59632 -1.16376 0.162539 0
M  V30 12 C -1.7893 -0.0585386 0.154029 0
M  V30 13 N -2.38126 1.23076 0.187582 0
M  V30 14 N -4.00654 -1.19429 0.202146 0
M  V30 15 H 3.26291 -1.90147 -0.0277775 0
M  V30 16 H 1.76788 -2.07829 -0.927347 0
M  V30 17 H 1.82434 -2.17578 0.936717 0
M  V30 18 H 4.1045 0.101901 -0.0117543 0
M  V30 19 H 3.98642 2.50735 0.0238879 0
M  V30 20 H 1.76472 3.64767 0.102546 0
M  V30 21 H -0.256942 2.32392 0.142452 0
M  V30 22 H -2.1282 -3.26107 0.121949 0
M  V30 23 H -2.42896 1.83172 1.03812 0
M  V30 24 H -2.79597 1.58836 -0.719596 0
M  V30 25 H -4.51171 -1.57895 1.00747 0
M  V30 26 H -4.55445 -0.818812 -0.602425 0
M  V30 END ATOM
M  V30 BEGIN BOND
M  V30 1 1 1 2
M  V30 2 2 2 3
M  V30 3 1 3 4
M  V30 4 2 4 5
M  V30 5 1 5 6
M  V30 6 2 6 7
M  V30 7 1 7 8
M  V30 8 1 8 9
M  V30 9 2 9 10
M  V30 10 1 10 11
M  V30 11 1 11 12
M  V30 12 1 12 13
M  V30 13 1 11 14
M  V30 14 1 7 2
M  V30 15 2 12 8
M  V30 16 1 1 15
M  V30 17 1 1 16
M  V30 18 1 1 17
M  V30 19 1 3 18
M  V30 20 1 4 19
M  V30 21 1 5 20
M  V30 22 1 6 21
M  V30 23 1 10 22
M  V30 24 1 13 23
M  V30 25 1 13 24
M  V30 26 1 14 25
M  V30 27 1 14 26
M  V30 END BOND
M  V30 END CTAB
M  END
