
     RDKit          3D

  0  0  0  0  0  0  0  0  0  0999 V3000
M  V30 BEGIN CTAB
M  V30 COUNTS 33 35 0 0 0
M  V30 BEGIN ATOM
M  V30 1 O -4.89731 0.9693 0.0617459 0
M  V30 2 C -3.67523 1.23765 -0.214733 0
M  V30 3 C -2.71239 0.611116 0.801164 0
M  V30 4 O -1.44658 0.951598 0.422729 0
M  V30 5 C -0.690906 -0.175179 0.255419 0
M  V30 6 C -1.70474 -1.18667 -0.296483 0
M  V30 7 C -2.86628 -0.883595 0.660687 0 CFG=2
M  V30 8 O -4.07699 -1.27153 0.146309 0
M  V30 9 N 0.441967 -0.0238067 -0.594079 0
M  V30 10 C 0.52461 0.132263 -1.92057 0
M  V30 11 N 1.82108 0.238555 -2.30899 0
M  V30 12 C 2.58895 0.148079 -1.20122 0
M  V30 13 C 1.73536 -0.0122707 -0.157531 0
M  V30 14 N 2.23752 -0.130698 1.08363 0
M  V30 15 C 3.55957 -0.0959341 1.32946 0
M  V30 16 N 3.97128 -0.230565 2.67404 0
M  V30 17 N 4.41109 0.0617566 0.308079 0
M  V30 18 C 3.94357 0.183267 -0.945531 0
M  V30 19 N 4.86247 0.347799 -1.99851 0
M  V30 20 H -5.59325 1.31847 0.304738 0
M  V30 21 H -3.3708 0.802303 -1.21012 0
M  V30 22 H -3.45856 2.32996 -0.202547 0
M  V30 23 H -2.97876 0.979239 1.8056 0
M  V30 24 H -0.399365 -0.555951 1.24863 0
M  V30 25 H -1.35523 -2.21359 -0.214502 0
M  V30 26 H -2.01719 -0.879645 -1.31084 0
M  V30 27 H -2.60787 -1.41029 1.62215 0
M  V30 28 H -4.61768 -1.62901 0.920974 0
M  V30 29 H -0.29685 0.170496 -2.59494 0
M  V30 30 H 4.48895 -1.07347 2.96487 0
M  V30 31 H 3.75862 0.506319 3.36629 0
M  V30 32 H 5.12431 -0.482298 -2.57362 0
M  V30 33 H 5.29662 1.26634 -2.2323 0
M  V30 END ATOM
M  V30 BEGIN BOND
M  V30 1 1 1 2
M  V30 2 1 2 3
M  V30 3 1 3 4
M  V30 4 1 4 5
M  V30 5 1 5 6
M  V30 6 1 6 7
M  V30 7 1 7 8
M  V30 8 1 5 9
M  V30 9 1 9 10
M  V30 10 2 10 11
M  V30 11 1 11 12
M  V30 12 2 12 13
M  V30 13 1 13 14
M  V30 14 2 14 15
M  V30 15 1 15 16
M  V30 16 1 15 17
M  V30 17 2 17 18
M  V30 18 1 18 19
M  V30 19 1 7 3
M  V30 20 1 13 9
M  V30 21 1 18 12
M  V30 22 1 1 20
M  V30 23 1 2 21
M  V30 24 1 2 22
M  V30 25 1 3 23
M  V30 26 1 5 24
M  V30 27 1 6 25
M  V30 28 1 6 26
M  V30 29 1 7 27 CFG=1
M  V30 30 1 8 28
M  V30 31 1 10 29
M  V30 32 1 16 30
M  V30 33 1 16 31
M  V30 34 1 19 32
M  V30 35 1 19 33
M  V30 END BOND
M  V30 END CTAB
M  END
