
     RDKit          3D

  0  0  0  0  0  0  0  0  0  0999 V3000
M  V30 BEGIN CTAB
M  V30 COUNTS 44 44 0 0 0
M  V30 BEGIN ATOM
M  V30 1 C -3.32826 -0.793328 1.32776 0
M  V30 2 C -4.39846 -0.884246 0.314255 0
M  V30 3 C -4.53408 0.16362 -0.702491 0
M  V30 4 C -3.42424 0.381721 -1.65245 0
M  V30 5 C -2.10663 0.739021 -1.18608 0
M  V30 6 O -1.75254 1.95287 -0.996151 0
M  V30 7 N -1.12505 -0.246544 -0.919698 0
M  V30 8 C 0.208733 0.0668995 -0.456757 0
M  V30 9 C 1.00991 -1.17585 -0.26604 0
M  V30 10 C 2.37873 -0.924833 0.204672 0
M  V30 11 C 3.39248 -0.739083 -0.709457 0
M  V30 12 C 4.69409 -0.500398 -0.319194 0
M  V30 13 C 5.03896 -0.437007 1.01682 0
M  V30 14 C 4.02155 -0.623425 1.93897 0
M  V30 15 C 2.71974 -0.862148 1.54667 0
M  V30 16 S 6.6735 -0.137308 1.55847 0
M  V30 17 O 7.65035 -0.559956 0.501032 0
M  V30 18 O 6.95647 -0.804553 2.86963 0
M  V30 19 N 6.83933 1.59475 1.71266 0
M  V30 20 N -3.83517 1.53076 -2.55503 0
M  V30 21 C -5.08352 1.47376 -0.134971 0
M  V30 22 H -3.81517 -0.984531 2.34809 0
M  V30 23 H -2.87106 0.212113 1.44116 0
M  V30 24 H -2.58059 -1.612 1.2784 0
M  V30 25 H -5.40093 -1.01239 0.837015 0
M  V30 26 H -4.206 -1.85874 -0.256928 0
M  V30 27 H -5.41117 -0.184562 -1.3555 0
M  V30 28 H -3.36735 -0.470421 -2.36082 0
M  V30 29 H -1.36412 -1.25248 -1.0646 0
M  V30 30 H 0.688953 0.744323 -1.20257 0
M  V30 31 H 0.152764 0.615567 0.499755 0
M  V30 32 H 0.437637 -1.83811 0.447759 0
M  V30 33 H 1.0199 -1.76161 -1.22452 0
M  V30 34 H 3.13416 -0.786578 -1.76025 0
M  V30 35 H 5.49866 -0.352974 -1.04463 0
M  V30 36 H 4.29273 -0.573571 2.99469 0
M  V30 37 H 1.91814 -1.00903 2.27461 0
M  V30 38 H 6.13724 1.87626 2.45737 0
M  V30 39 H 6.42537 1.98845 0.819844 0
M  V30 40 H -3.49019 2.41332 -2.07815 0
M  V30 41 H -3.40905 1.38912 -3.48088 0
M  V30 42 H -6.09783 1.24103 0.250043 0
M  V30 43 H -5.19396 2.1626 -0.97671 0
M  V30 44 H -4.49403 1.83948 0.707337 0
M  V30 END ATOM
M  V30 BEGIN BOND
M  V30 1 1 1 2
M  V30 2 1 2 3
M  V30 3 1 3 4
M  V30 4 1 4 5
M  V30 5 2 5 6
M  V30 6 1 5 7
M  V30 7 1 7 8
M  V30 8 1 8 9
M  V30 9 1 9 10
M  V30 10 2 10 11
M  V30 11 1 11 12
M  V30 12 2 12 13
M  V30 13 1 13 14
M  V30 14 2 14 15
M  V30 15 1 13 16
M  V30 16 2 16 17
M  V30 17 2 16 18
M  V30 18 1 16 19
M  V30 19 1 4 20
M  V30 20 1 3 21
M  V30 21 1 15 10
M  V30 22 1 1 22
M  V30 23 1 1 23
M  V30 24 1 1 24
M  V30 25 1 2 25
M  V30 26 1 2 26
M  V30 27 1 3 27
M  V30 28 1 4 28
M  V30 29 1 7 29
M  V30 30 1 8 30
M  V30 31 1 8 31
M  V30 32 1 9 32
M  V30 33 1 9 33
M  V30 34 1 11 34
M  V30 35 1 12 35
M  V30 36 1 14 36
M  V30 37 1 15 37
M  V30 38 1 19 38
M  V30 39 1 19 39
M  V30 40 1 20 40
M  V30 41 1 20 41
M  V30 42 1 21 42
M  V30 43 1 21 43
M  V30 44 1 21 44
M  V30 END BOND
M  V30 END CTAB
M  END
