
     RDKit          3D

  0  0  0  0  0  0  0  0  0  0999 V3000
M  V30 BEGIN CTAB
M  V30 COUNTS 20 20 0 0 0
M  V30 BEGIN ATOM
M  V30 1 N 3.06614 0.713164 0.49708 0
M  V30 2 C 1.69149 0.464558 0.266867 0
M  V30 3 C 1.22006 -0.814084 0.113675 0
M  V30 4 C -0.110018 -1.10712 -0.112325 0
M  V30 5 N -0.500399 -2.45415 -0.257139 0
M  V30 6 C -0.992113 -0.0481102 -0.18423 0
M  V30 7 C -0.538994 1.24046 -0.0332819 0
M  V30 8 C 0.789375 1.50646 0.19077 0
M  V30 9 O -1.44162 2.27838 -0.109714 0
M  V30 10 C -2.43606 -0.332153 -0.42746 0
M  V30 11 F -2.52309 -0.985777 -1.64024 0
M  V30 12 F -3.14723 0.853237 -0.432821 0
M  V30 13 F -2.88127 -1.12178 0.595821 0
M  V30 14 H 3.75539 -0.0707693 0.417146 0
M  V30 15 H 3.42182 1.65126 0.744498 0
M  V30 16 H 1.91844 -1.63461 0.171693 0
M  V30 17 H -1.12255 -2.92178 0.42238 0
M  V30 18 H -0.151526 -2.98863 -1.0701 0
M  V30 19 H 1.15323 2.51805 0.310538 0
M  V30 20 H -1.17108 3.25339 -0.00677398 0
M  V30 END ATOM
M  V30 BEGIN BOND
M  V30 1 1 1 2
M  V30 2 2 2 3
M  V30 3 1 3 4
M  V30 4 1 4 5
M  V30 5 2 4 6
M  V30 6 1 6 7
M  V30 7 2 7 8
M  V30 8 1 7 9
M  V30 9 1 6 10
M  V30 10 1 10 11
M  V30 11 1 10 12
M  V30 12 1 10 13
M  V30 13 1 8 2
M  V30 14 1 1 14
M  V30 15 1 1 15
M  V30 16 1 3 16
M  V30 17 1 5 17
M  V30 18 1 5 18
M  V30 19 1 8 19
M  V30 20 1 9 20
M  V30 END BOND
M  V30 END CTAB
M  END
