
     RDKit          3D

  0  0  0  0  0  0  0  0  0  0999 V3000
M  V30 BEGIN CTAB
M  V30 COUNTS 26 27 0 0 0
M  V30 BEGIN ATOM
M  V30 1 N 3.34295 2.34606 0.0849284 0
M  V30 2 C 2.66843 1.11228 -0.0160465 0
M  V30 3 C 1.43738 0.971746 -0.607162 0
M  V30 4 C 0.771165 -0.236978 -0.708806 0
M  V30 5 O -0.444071 -0.257185 -1.31516 0
M  V30 6 C -1.67265 -0.0897014 -0.758319 0
M  V30 7 C -2.83544 -0.133707 -1.49226 0
M  V30 8 C -4.08477 0.0424657 -0.889502 0
M  V30 9 C -4.19343 0.266789 0.464247 0
M  V30 10 C -3.03269 0.311576 1.20222 0
M  V30 11 C -1.78841 0.134957 0.594693 0
M  V30 12 C 1.41448 -1.33855 -0.173489 0
M  V30 13 C 2.66958 -1.19809 0.429719 0
M  V30 14 N 3.30581 -2.34927 0.971051 0
M  V30 15 N 3.27325 0.0131846 0.499463 0
M  V30 16 H 3.43924 2.80266 1.00277 0
M  V30 17 H 3.73823 2.78975 -0.755523 0
M  V30 18 H 0.981837 1.86806 -1.00861 0
M  V30 19 H -2.79451 -0.307911 -2.56075 0
M  V30 20 H -5.00603 0.00862527 -1.46462 0
M  V30 21 H -5.17928 0.402889 0.921778 0
M  V30 22 H -3.11271 0.487721 2.26731 0
M  V30 23 H -0.895932 0.176198 1.20452 0
M  V30 24 H 0.917857 -2.28477 -0.240551 0
M  V30 25 H 3.64429 -2.34726 1.96871 0
M  V30 26 H 3.43541 -3.19153 0.379397 0
M  V30 END ATOM
M  V30 BEGIN BOND
M  V30 1 1 1 2
M  V30 2 2 2 3
M  V30 3 1 3 4
M  V30 4 1 4 5
M  V30 5 1 5 6
M  V30 6 2 6 7
M  V30 7 1 7 8
M  V30 8 2 8 9
M  V30 9 1 9 10
M  V30 10 2 10 11
M  V30 11 2 4 12
M  V30 12 1 12 13
M  V30 13 1 13 14
M  V30 14 2 13 15
M  V30 15 1 15 2
M  V30 16 1 11 6
M  V30 17 1 1 16
M  V30 18 1 1 17
M  V30 19 1 3 18
M  V30 20 1 7 19
M  V30 21 1 8 20
M  V30 22 1 9 21
M  V30 23 1 10 22
M  V30 24 1 11 23
M  V30 25 1 12 24
M  V30 26 1 14 25
M  V30 27 1 14 26
M  V30 END BOND
M  V30 END CTAB
M  END
