
     RDKit          3D

  0  0  0  0  0  0  0  0  0  0999 V3000
M  V30 BEGIN CTAB
M  V30 COUNTS 16 15 0 0 0
M  V30 BEGIN ATOM
M  V30 1 C -1.3127 0.485528 1.01271 0
M  V30 2 C -0.414369 -0.442509 0.24848 0
M  V30 3 C 0.773199 0.226354 -0.302774 0
M  V30 4 N 1.92447 -0.18994 0.0757007 0
M  V30 5 O 1.99777 -1.22347 0.96323 0
M  V30 6 N 0.689991 1.30282 -1.22726 0
M  V30 7 N -1.18194 -0.943147 -0.905027 0
M  V30 8 H -1.60311 1.31925 0.360776 0
M  V30 9 H -2.16769 -0.102954 1.39383 0
M  V30 10 H -0.718066 0.897613 1.87773 0
M  V30 11 H -0.17594 -1.32989 0.856506 0
M  V30 12 H 2.67478 -1.26438 1.71416 0
M  V30 13 H 0.906281 1.09525 -2.22004 0
M  V30 14 H 0.432611 2.28122 -1.00462 0
M  V30 15 H -0.774173 -1.86916 -1.16391 0
M  V30 16 H -1.05111 -0.242581 -1.6795 0
M  V30 END ATOM
M  V30 BEGIN BOND
M  V30 1 1 1 2
M  V30 2 1 2 3
M  V30 3 2 3 4 CFG=2
M  V30 4 1 4 5
M  V30 5 1 3 6
M  V30 6 1 2 7
M  V30 7 1 1 8
M  V30 8 1 1 9
M  V30 9 1 1 10
M  V30 10 1 2 11
M  V30 11 1 5 12
M  V30 12 1 6 13
M  V30 13 1 6 14
M  V30 14 1 7 15
M  V30 15 1 7 16
M  V30 END BOND
M  V30 END CTAB
M  END
