
     RDKit          3D

  0  0  0  0  0  0  0  0  0  0999 V3000
M  V30 BEGIN CTAB
M  V30 COUNTS 34 35 0 0 0
M  V30 BEGIN ATOM
M  V30 1 N -2.63953 -3.01291 -0.130604 0
M  V30 2 C -1.75377 -1.96859 -0.659891 0
M  V30 3 C -1.22185 -1.27199 0.530001 0
M  V30 4 N -0.312766 -0.18305 0.359474 0
M  V30 5 C 1.09086 -0.466859 0.497104 0
M  V30 6 C 1.57229 -1.66384 0.971526 0
M  V30 7 C 2.92664 -1.96061 1.09271 0
M  V30 8 C 3.86403 -1.01937 0.722552 0
M  V30 9 C 3.43113 0.192522 0.242611 0
M  V30 10 C 2.06524 0.456391 0.134685 0
M  V30 11 C 1.70555 1.76493 -0.388313 0
M  V30 12 C 0.295903 2.01549 -0.627318 0
M  V30 13 C -0.711637 1.13109 0.0248673 0 CFG=1
M  V30 14 S -2.20438 1.43015 -0.790974 0
M  V30 15 O -2.03586 1.11168 -2.27411 0
M  V30 16 O -3.44135 0.854146 -0.303129 0
M  V30 17 N -2.44984 3.17985 -0.778227 0
M  V30 18 H -3.36742 -2.51685 0.405737 0
M  V30 19 H -2.15379 -3.74118 0.352308 0
M  V30 20 H -2.37653 -1.45988 -1.38105 0
M  V30 21 H -0.957579 -2.46836 -1.27626 0
M  V30 22 H -0.901085 -2.04733 1.26453 0
M  V30 23 H -2.16221 -0.886244 1.09178 0
M  V30 24 H 0.913297 -2.43924 1.27399 0
M  V30 25 H 3.23379 -2.92542 1.47342 0
M  V30 26 H 4.9123 -1.27033 0.823426 0
M  V30 27 H 4.16864 0.934642 -0.0499781 0
M  V30 28 H 2.27674 1.88179 -1.35846 0
M  V30 29 H 2.18684 2.53455 0.272705 0
M  V30 30 H 0.0796928 2.05744 -1.73588 0
M  V30 31 H 0.0784524 3.07613 -0.299886 0
M  V30 32 H -0.855258 1.62581 1.07946 0
M  V30 33 H -3.42903 3.40548 -0.450886 0
M  V30 34 H -1.8275 3.64997 -0.107932 0
M  V30 END ATOM
M  V30 BEGIN BOND
M  V30 1 1 1 2
M  V30 2 1 2 3
M  V30 3 1 3 4
M  V30 4 1 4 5
M  V30 5 2 5 6
M  V30 6 1 6 7
M  V30 7 2 7 8
M  V30 8 1 8 9
M  V30 9 2 9 10
M  V30 10 1 10 11
M  V30 11 1 11 12
M  V30 12 1 12 13
M  V30 13 1 13 14
M  V30 14 2 14 15
M  V30 15 2 14 16
M  V30 16 1 14 17
M  V30 17 1 13 4
M  V30 18 1 10 5
M  V30 19 1 1 18
M  V30 20 1 1 19
M  V30 21 1 2 20
M  V30 22 1 2 21
M  V30 23 1 3 22
M  V30 24 1 3 23
M  V30 25 1 6 24
M  V30 26 1 7 25
M  V30 27 1 8 26
M  V30 28 1 9 27
M  V30 29 1 11 28
M  V30 30 1 11 29
M  V30 31 1 12 30
M  V30 32 1 12 31
M  V30 33 1 13 32 CFG=1
M  V30 34 1 17 33
M  V30 35 1 17 34
M  V30 END BOND
M  V30 END CTAB
M  END
