
     RDKit          3D

  0  0  0  0  0  0  0  0  0  0999 V3000
M  V30 BEGIN CTAB
M  V30 COUNTS 29 30 0 0 0
M  V30 BEGIN ATOM
M  V30 1 N 0.55225 -2.27441 0.974663 0
M  V30 2 C 0.941948 -0.943667 0.578043 0
M  V30 3 C 0.348301 0.255411 0.856506 0
M  V30 4 C -0.901123 0.501088 1.577 0
M  V30 5 C -2.16505 0.462366 0.826385 0
M  V30 6 C -2.32156 1.4809 -0.29835 0
M  V30 7 C -3.09039 0.392874 -1.05248 0
M  V30 8 C -2.25655 -0.607061 -0.214042 0
M  V30 9 N 1.10802 1.2114 0.296525 0
M  V30 10 C 2.15764 0.684441 -0.327711 0
M  V30 11 N 2.0515 -0.642721 -0.152025 0
M  V30 12 N 2.93356 -1.59183 -0.632182 0
M  V30 13 C 3.2093 1.44665 -1.06384 0
M  V30 14 H 0.970266 -2.73036 1.81295 0
M  V30 15 H -0.15015 -2.80388 0.431197 0
M  V30 16 H -1.02593 -0.240204 2.43889 0
M  V30 17 H -0.85315 1.48252 2.15942 0
M  V30 18 H -3.0411 0.494702 1.51129 0
M  V30 19 H -2.99545 2.2865 -0.0266829 0
M  V30 20 H -1.41983 1.75354 -0.839867 0
M  V30 21 H -4.14659 0.324635 -0.785781 0
M  V30 22 H -2.85399 0.327428 -2.12542 0
M  V30 23 H -2.84156 -1.4667 0.142064 0
M  V30 24 H -1.32931 -0.809503 -0.7683 0
M  V30 25 H 2.64553 -2.32808 -1.31116 0
M  V30 26 H 3.92844 -1.59474 -0.324293 0
M  V30 27 H 4.20387 0.955551 -0.965338 0
M  V30 28 H 3.00954 1.51675 -2.13771 0
M  V30 29 H 3.3316 2.45639 -0.579761 0
M  V30 END ATOM
M  V30 BEGIN BOND
M  V30 1 1 1 2
M  V30 2 2 2 3
M  V30 3 1 3 4
M  V30 4 1 4 5
M  V30 5 1 5 6
M  V30 6 1 6 7
M  V30 7 1 7 8
M  V30 8 1 3 9
M  V30 9 2 9 10
M  V30 10 1 10 11
M  V30 11 1 11 12
M  V30 12 1 10 13
M  V30 13 1 11 2
M  V30 14 1 8 5
M  V30 15 1 1 14
M  V30 16 1 1 15
M  V30 17 1 4 16
M  V30 18 1 4 17
M  V30 19 1 5 18
M  V30 20 1 6 19
M  V30 21 1 6 20
M  V30 22 1 7 21
M  V30 23 1 7 22
M  V30 24 1 8 23
M  V30 25 1 8 24
M  V30 26 1 12 25
M  V30 27 1 12 26
M  V30 28 1 13 27
M  V30 29 1 13 28
M  V30 30 1 13 29
M  V30 END BOND
M  V30 END CTAB
M  END
