
     RDKit          3D

  0  0  0  0  0  0  0  0  0  0999 V3000
M  V30 BEGIN CTAB
M  V30 COUNTS 25 25 0 0 0
M  V30 BEGIN ATOM
M  V30 1 F 3.63869 -1.94392 -0.36724 0
M  V30 2 C 3.35562 -0.689537 0.14151 0
M  V30 3 O 2.37649 -0.109513 -0.670101 0
M  V30 4 C 1.10416 0.241165 -0.248287 0
M  V30 5 C 0.902386 1.50921 0.252971 0
M  V30 6 N 1.94653 2.46866 0.353648 0
M  V30 7 C -0.35246 1.92748 0.694926 0
M  V30 8 C -1.41121 1.03546 0.621815 0
M  V30 9 C -1.2389 -0.238849 0.12518 0
M  V30 10 C 0.0140783 -0.601317 -0.296355 0
M  V30 11 N 0.212509 -1.90945 -0.811236 0
M  V30 12 C -2.38723 -1.14138 0.0689154 0
M  V30 13 O -2.18943 -2.28442 -0.387339 0
M  V30 14 C -3.73135 -0.733451 0.528515 0
M  V30 15 F 4.52829 0.0372096 0.17586 0
M  V30 16 H 3.00987 -0.849399 1.1914 0
M  V30 17 H 2.19094 2.83102 1.30082 0
M  V30 18 H 2.48486 2.83554 -0.45099 0
M  V30 19 H -0.493356 2.9293 1.08663 0
M  V30 20 H -2.3839 1.38072 0.971776 0
M  V30 21 H 0.256607 -2.72291 -0.163372 0
M  V30 22 H 0.319442 -2.10759 -1.82784 0
M  V30 23 H -3.62378 -0.153428 1.48417 0
M  V30 24 H -4.20026 -0.0561576 -0.225397 0
M  V30 25 H -4.3286 -1.65445 0.682607 0
M  V30 END ATOM
M  V30 BEGIN BOND
M  V30 1 1 1 2
M  V30 2 1 2 3
M  V30 3 1 3 4
M  V30 4 2 4 5
M  V30 5 1 5 6
M  V30 6 1 5 7
M  V30 7 2 7 8
M  V30 8 1 8 9
M  V30 9 2 9 10
M  V30 10 1 10 11
M  V30 11 1 9 12
M  V30 12 2 12 13
M  V30 13 1 12 14
M  V30 14 1 2 15
M  V30 15 1 10 4
M  V30 16 1 2 16
M  V30 17 1 6 17
M  V30 18 1 6 18
M  V30 19 1 7 19
M  V30 20 1 8 20
M  V30 21 1 11 21
M  V30 22 1 11 22
M  V30 23 1 14 23
M  V30 24 1 14 24
M  V30 25 1 14 25
M  V30 END BOND
M  V30 END CTAB
M  END
