
     RDKit          3D

  0  0  0  0  0  0  0  0  0  0999 V3000
M  V30 BEGIN CTAB
M  V30 COUNTS 35 37 0 0 0
M  V30 BEGIN ATOM
M  V30 1 N -2.49244 -4.42474 -0.0312937 0
M  V30 2 N -2.44393 -3.04298 -0.117497 0
M  V30 3 C -1.5669 -2.21757 0.659391 0
M  V30 4 O -0.820137 -2.851 1.44972 0
M  V30 5 C -1.56661 -0.766983 0.519941 0
M  V30 6 C -0.721053 0.16842 1.0132 0
M  V30 7 S 0.798931 -0.0404453 1.86688 0
M  V30 8 C 2.24002 0.0470323 0.841689 0
M  V30 9 C 2.8529 -1.0757 0.384221 0
M  V30 10 N 2.42836 -2.40817 0.669787 0
M  V30 11 C 4.00827 -1.02382 -0.417289 0
M  V30 12 C 4.49499 0.227179 -0.719024 0
M  V30 13 C 3.87957 1.3639 -0.258147 0
M  V30 14 Cl 4.52479 2.97075 -0.662138 0
M  V30 15 C 2.75871 1.28318 0.518004 0
M  V30 16 C -1.23624 1.41027 0.652411 0
M  V30 17 C -0.856431 2.72489 0.848207 0
M  V30 18 C -1.58508 3.78637 0.360796 0
M  V30 19 Cl -1.02215 5.41684 0.661453 0
M  V30 20 C -2.73357 3.56784 -0.348641 0
M  V30 21 C -3.12416 2.26449 -0.551204 0
M  V30 22 C -2.38948 1.20232 -0.0597386 0
M  V30 23 N -2.57674 -0.117756 -0.1325 0
M  V30 24 H -3.44063 -4.78303 0.268752 0
M  V30 25 H -2.35602 -4.81235 -0.995954 0
M  V30 26 H -3.07953 -2.55795 -0.785994 0
M  V30 27 H 1.7868 -2.85895 -0.0416328 0
M  V30 28 H 2.75611 -2.87091 1.53849 0
M  V30 29 H 4.49453 -1.92658 -0.782209 0
M  V30 30 H 5.38498 0.341443 -1.33375 0
M  V30 31 H 2.26694 2.20257 0.889402 0
M  V30 32 H 0.0404951 2.90225 1.40276 0
M  V30 33 H -3.31193 4.42162 -0.735498 0
M  V30 34 H -4.01776 2.05027 -1.10315 0
M  V30 35 H -3.37558 -0.572723 -0.615267 0
M  V30 END ATOM
M  V30 BEGIN BOND
M  V30 1 1 1 2
M  V30 2 1 2 3
M  V30 3 2 3 4
M  V30 4 1 3 5
M  V30 5 2 5 6
M  V30 6 1 6 7
M  V30 7 1 7 8
M  V30 8 2 8 9
M  V30 9 1 9 10
M  V30 10 1 9 11
M  V30 11 2 11 12
M  V30 12 1 12 13
M  V30 13 1 13 14
M  V30 14 2 13 15
M  V30 15 1 6 16
M  V30 16 2 16 17
M  V30 17 1 17 18
M  V30 18 1 18 19
M  V30 19 2 18 20
M  V30 20 1 20 21
M  V30 21 2 21 22
M  V30 22 1 22 23
M  V30 23 1 23 5
M  V30 24 1 15 8
M  V30 25 1 22 16
M  V30 26 1 1 24
M  V30 27 1 1 25
M  V30 28 1 2 26
M  V30 29 1 10 27
M  V30 30 1 10 28
M  V30 31 1 11 29
M  V30 32 1 12 30
M  V30 33 1 15 31
M  V30 34 1 17 32
M  V30 35 1 20 33
M  V30 36 1 21 34
M  V30 37 1 23 35
M  V30 END BOND
M  V30 END CTAB
M  END
