
     RDKit          3D

  0  0  0  0  0  0  0  0  0  0999 V3000
M  V30 BEGIN CTAB
M  V30 COUNTS 24 24 0 0 0
M  V30 BEGIN ATOM
M  V30 1 N 3.92159 -0.737261 0.720483 0
M  V30 2 C 2.58826 -0.406468 0.362602 0
M  V30 3 C 2.17688 0.910964 0.362547 0
M  V30 4 C 0.88478 1.20774 0.0138431 0
M  V30 5 N 0.462391 2.56709 0.0144107 0
M  V30 6 C -0.0375665 0.206186 -0.345179 0
M  V30 7 O -1.26859 0.637601 -0.665829 0
M  V30 8 C -2.44964 0.0778889 -1.04665 0
M  V30 9 C -3.04437 -0.825545 -5.71127e-05 0
M  V30 10 O -3.2815 -0.0847769 1.18156 0
M  V30 11 C 0.400878 -1.11063 -0.337878 0
M  V30 12 C 1.71145 -1.41287 0.0160479 0
M  V30 13 H 4.59601 -1.04918 -0.00482283 0
M  V30 14 H 4.25993 -0.679321 1.70055 0
M  V30 15 H 2.88034 1.71096 0.639639 0
M  V30 16 H -0.0368689 2.9871 0.823273 0
M  V30 17 H 0.687158 3.11695 -0.852986 0
M  V30 18 H -3.22069 0.851433 -1.36908 0
M  V30 19 H -2.32584 -0.531232 -1.98321 0
M  V30 20 H -4.08652 -1.12132 -0.34636 0
M  V30 21 H -2.42094 -1.69052 0.149191 0
M  V30 22 H -4.15203 -0.279069 1.57416 0
M  V30 23 H -0.286112 -1.90624 -0.624952 0
M  V30 24 H 2.041 -2.43947 0.0186966 0
M  V30 END ATOM
M  V30 BEGIN BOND
M  V30 1 1 1 2
M  V30 2 2 2 3
M  V30 3 1 3 4
M  V30 4 1 4 5
M  V30 5 2 4 6
M  V30 6 1 6 7
M  V30 7 1 7 8
M  V30 8 1 8 9
M  V30 9 1 9 10
M  V30 10 1 6 11
M  V30 11 2 11 12
M  V30 12 1 12 2
M  V30 13 1 1 13
M  V30 14 1 1 14
M  V30 15 1 3 15
M  V30 16 1 5 16
M  V30 17 1 5 17
M  V30 18 1 8 18
M  V30 19 1 8 19
M  V30 20 1 9 20
M  V30 21 1 9 21
M  V30 22 1 10 22
M  V30 23 1 11 23
M  V30 24 1 12 24
M  V30 END BOND
M  V30 END CTAB
M  END
