
     RDKit          3D

  0  0  0  0  0  0  0  0  0  0999 V3000
M  V30 BEGIN CTAB
M  V30 COUNTS 25 25 0 0 0
M  V30 BEGIN ATOM
M  V30 1 O 2.7972 1.64507 0.559798 0
M  V30 2 C 2.42462 0.341164 0.958114 0
M  V30 3 C 2.33236 -0.562728 -0.260124 0
M  V30 4 S 1.10882 0.0904376 -1.38418 0
M  V30 5 C -0.557141 0.0377817 -0.751112 0
M  V30 6 N -1.38469 -1.01787 -0.936828 0
M  V30 7 C -2.64797 -1.02439 -0.44165 0
M  V30 8 N -3.48139 -2.1479 -0.661265 0
M  V30 9 C -3.11957 0.0738579 0.277769 0
M  V30 10 C -2.27345 1.12198 0.452607 0
M  V30 11 N -1.03474 1.07816 -0.0576109 0
M  V30 12 N -2.75929 2.24866 1.19121 0
M  V30 13 C 3.67143 -0.566146 -0.992763 0
M  V30 14 H 3.77208 1.65046 0.335141 0
M  V30 15 H 1.46143 0.355209 1.48167 0
M  V30 16 H 3.21137 -0.0313664 1.65866 0
M  V30 17 H 2.13915 -1.59103 0.0800306 0
M  V30 18 H -3.07566 -3.10391 -0.6751 0
M  V30 19 H -4.50425 -2.05787 -0.813296 0
M  V30 20 H -4.13002 0.0296824 0.654331 0
M  V30 21 H -3.0685 3.14085 0.716513 0
M  V30 22 H -2.79436 2.14715 2.22918 0
M  V30 23 H 3.49533 -1.19946 -1.91005 0
M  V30 24 H 4.44473 -1.10161 -0.402737 0
M  V30 25 H 3.97248 0.443808 -1.30832 0
M  V30 END ATOM
M  V30 BEGIN BOND
M  V30 1 1 1 2
M  V30 2 1 2 3
M  V30 3 1 3 4
M  V30 4 1 4 5
M  V30 5 2 5 6
M  V30 6 1 6 7
M  V30 7 1 7 8
M  V30 8 2 7 9
M  V30 9 1 9 10
M  V30 10 2 10 11
M  V30 11 1 10 12
M  V30 12 1 3 13
M  V30 13 1 11 5
M  V30 14 1 1 14
M  V30 15 1 2 15
M  V30 16 1 2 16
M  V30 17 1 3 17
M  V30 18 1 8 18
M  V30 19 1 8 19
M  V30 20 1 9 20
M  V30 21 1 12 21
M  V30 22 1 12 22
M  V30 23 1 13 23
M  V30 24 1 13 24
M  V30 25 1 13 25
M  V30 END BOND
M  V30 END CTAB
M  END
