
     RDKit          3D

  0  0  0  0  0  0  0  0  0  0999 V3000
M  V30 BEGIN CTAB
M  V30 COUNTS 26 26 0 0 0
M  V30 BEGIN ATOM
M  V30 1 C 4.05372 -0.53026 0.292112 0
M  V30 2 C 2.82926 0.336997 0.298505 0
M  V30 3 C 1.55847 -0.509012 0.0601383 0
M  V30 4 S 0.20452 0.649137 0.0952163 0
M  V30 5 C -1.39988 -0.0131863 -0.128086 0
M  V30 6 C -2.47306 0.862076 -0.112533 0
M  V30 7 N -2.2343 2.24759 0.0801248 0
M  V30 8 C -3.77077 0.459051 -0.274938 0
M  V30 9 C -4.01981 -0.863477 -0.460501 0
M  V30 10 C -2.99804 -1.7647 -0.483684 0
M  V30 11 C -1.68182 -1.34421 -0.317464 0
M  V30 12 Cl -0.3995 -2.54538 -0.352199 0
M  V30 13 N 2.83828 1.36843 -0.693356 0
M  V30 14 H 3.85279 -1.39373 0.970812 0
M  V30 15 H 4.281 -0.938452 -0.719442 0
M  V30 16 H 4.88956 0.0788567 0.694849 0
M  V30 17 H 2.72398 0.754014 1.32066 0
M  V30 18 H 1.5745 -1.25874 0.868805 0
M  V30 19 H 1.6832 -1.02948 -0.932393 0
M  V30 20 H -1.56994 2.7623 -0.532529 0
M  V30 21 H -2.7142 2.7795 0.83349 0
M  V30 22 H -4.59075 1.16942 -0.257928 0
M  V30 23 H -5.03761 -1.24738 -0.596345 0
M  V30 24 H -3.15823 -2.84363 -0.631333 0
M  V30 25 H 3.64085 1.3667 -1.33082 0
M  V30 26 H 1.91779 1.44756 -1.18812 0
M  V30 END ATOM
M  V30 BEGIN BOND
M  V30 1 1 1 2
M  V30 2 1 2 3
M  V30 3 1 3 4
M  V30 4 1 4 5
M  V30 5 2 5 6
M  V30 6 1 6 7
M  V30 7 1 6 8
M  V30 8 2 8 9
M  V30 9 1 9 10
M  V30 10 2 10 11
M  V30 11 1 11 12
M  V30 12 1 2 13
M  V30 13 1 11 5
M  V30 14 1 1 14
M  V30 15 1 1 15
M  V30 16 1 1 16
M  V30 17 1 2 17
M  V30 18 1 3 18
M  V30 19 1 3 19
M  V30 20 1 7 20
M  V30 21 1 7 21
M  V30 22 1 8 22
M  V30 23 1 9 23
M  V30 24 1 10 24
M  V30 25 1 13 25
M  V30 26 1 13 26
M  V30 END BOND
M  V30 END CTAB
M  END
