
     RDKit          3D

  0  0  0  0  0  0  0  0  0  0999 V3000
M  V30 BEGIN CTAB
M  V30 COUNTS 48 51 0 0 0
M  V30 BEGIN ATOM
M  V30 1 N 0.154581 2.94197 0.273954 0
M  V30 2 C -0.673137 1.81778 0.12489 0
M  V30 3 N -0.128216 0.649704 -0.259064 0
M  V30 4 C -0.828691 -0.475241 -0.423313 0
M  V30 5 C -2.19743 -0.415395 -0.178569 0
M  V30 6 C -2.78445 0.767253 0.21559 0
M  V30 7 N -2.01196 1.84257 0.355328 0
M  V30 8 C -4.22759 0.867092 0.466337 0
M  V30 9 C -5.09135 0.4762 -0.742829 0
M  V30 10 C -6.02604 -0.20124 0.234536 0
M  V30 11 C -4.88364 -0.245161 1.22477 0
M  V30 12 N -6.54169 -1.47548 -0.198174 0
M  V30 13 N -0.192419 -1.65667 -0.840054 0
M  V30 14 C 0.740561 -2.34169 -0.0039471 0
M  V30 15 C 1.97311 -1.51431 0.273354 0
M  V30 16 N 2.65654 -0.760309 -0.549412 0
M  V30 17 C 3.72126 -0.109281 -0.114403 0
M  V30 18 C 4.0456 -0.271708 1.20149 0
M  V30 19 S 2.81233 -1.34278 1.73695 0
M  V30 20 C 5.22884 0.389292 1.87258 0
M  V30 21 C 6.28266 0.509076 0.773265 0
M  V30 22 C 5.64722 1.37143 -0.275917 0
M  V30 23 C 4.54792 0.782124 -1.04272 0
M  V30 24 C -0.50229 -2.18023 -2.14455 0
M  V30 25 H 0.126175 3.72445 -0.397525 0
M  V30 26 H 0.813133 2.99471 1.07733 0
M  V30 27 H -2.79634 -1.30407 -0.301048 0
M  V30 28 H -4.55651 1.87848 0.842629 0
M  V30 29 H -4.57074 -0.238863 -1.41009 0
M  V30 30 H -5.52249 1.35146 -1.2673 0
M  V30 31 H -6.80944 0.531979 0.563318 0
M  V30 32 H -4.31226 -1.19006 1.16639 0
M  V30 33 H -5.19489 0.0627176 2.24391 0
M  V30 34 H -6.03827 -2.298 0.16712 0
M  V30 35 H -7.57456 -1.50708 -0.0660383 0
M  V30 36 H 1.14505 -3.2583 -0.522631 0
M  V30 37 H 0.343603 -2.66138 0.969705 0
M  V30 38 H 5.58047 -0.216698 2.72217 0
M  V30 39 H 4.96238 1.40135 2.19921 0
M  V30 40 H 6.58361 -0.484395 0.382928 0
M  V30 41 H 7.16183 1.03721 1.17487 0
M  V30 42 H 5.3803 2.34541 0.221236 0
M  V30 43 H 6.48796 1.64175 -0.990731 0
M  V30 44 H 3.9021 1.59298 -1.43561 0
M  V30 45 H 4.94883 0.192656 -1.88377 0
M  V30 46 H -0.244222 -3.27156 -2.20037 0
M  V30 47 H -1.59509 -2.03744 -2.3461 0
M  V30 48 H 0.0576742 -1.59319 -2.88969 0
M  V30 END ATOM
M  V30 BEGIN BOND
M  V30 1 1 1 2
M  V30 2 2 2 3
M  V30 3 1 3 4
M  V30 4 2 4 5
M  V30 5 1 5 6
M  V30 6 2 6 7
M  V30 7 1 6 8
M  V30 8 1 8 9
M  V30 9 1 9 10
M  V30 10 1 10 11
M  V30 11 1 10 12
M  V30 12 1 4 13
M  V30 13 1 13 14
M  V30 14 1 14 15
M  V30 15 2 15 16
M  V30 16 1 16 17
M  V30 17 2 17 18
M  V30 18 1 18 19
M  V30 19 1 18 20
M  V30 20 1 20 21
M  V30 21 1 21 22
M  V30 22 1 22 23
M  V30 23 1 13 24
M  V30 24 1 7 2
M  V30 25 1 11 8
M  V30 26 1 19 15
M  V30 27 1 23 17
M  V30 28 1 1 25
M  V30 29 1 1 26
M  V30 30 1 5 27
M  V30 31 1 8 28
M  V30 32 1 9 29
M  V30 33 1 9 30
M  V30 34 1 10 31
M  V30 35 1 11 32
M  V30 36 1 11 33
M  V30 37 1 12 34
M  V30 38 1 12 35
M  V30 39 1 14 36
M  V30 40 1 14 37
M  V30 41 1 20 38
M  V30 42 1 20 39
M  V30 43 1 21 40
M  V30 44 1 21 41
M  V30 45 1 22 42
M  V30 46 1 22 43
M  V30 47 1 23 44
M  V30 48 1 23 45
M  V30 49 1 24 46
M  V30 50 1 24 47
M  V30 51 1 24 48
M  V30 END BOND
M  V30 END CTAB
M  END
