
     RDKit          3D

  0  0  0  0  0  0  0  0  0  0999 V3000
M  V30 BEGIN CTAB
M  V30 COUNTS 16 16 0 0 0
M  V30 BEGIN ATOM
M  V30 1 N -0.64511 2.13291 0.171931 0
M  V30 2 C -0.362234 0.752308 0.49589 0
M  V30 3 C -0.890831 -0.352904 -0.360018 0
M  V30 4 C 0.520885 0.0243749 -0.533576 0
M  V30 5 C 1.65286 -0.721366 0.0871873 0
M  V30 6 F 2.43541 0.21491 0.77385 0
M  V30 7 F 1.2751 -1.73074 0.917709 0
M  V30 8 F 2.48102 -1.22695 -0.908848 0
M  V30 9 N -1.2882 -1.59735 0.249061 0
M  V30 10 H -0.578262 2.24329 -0.880352 0
M  V30 11 H 0.148849 2.73484 0.535481 0
M  V30 12 H -0.206226 0.547103 1.55808 0
M  V30 13 H -1.58307 -0.0172302 -1.162 0
M  V30 14 H 0.819794 0.620161 -1.44369 0
M  V30 15 H -1.74345 -2.19365 -0.479649 0
M  V30 16 H -2.03655 -1.42971 0.97894 0
M  V30 END ATOM
M  V30 BEGIN BOND
M  V30 1 1 1 2
M  V30 2 1 2 3
M  V30 3 1 3 4
M  V30 4 1 4 5
M  V30 5 1 5 6
M  V30 6 1 5 7
M  V30 7 1 5 8
M  V30 8 1 3 9
M  V30 9 1 4 2
M  V30 10 1 1 10
M  V30 11 1 1 11
M  V30 12 1 2 12
M  V30 13 1 3 13
M  V30 14 1 4 14
M  V30 15 1 9 15
M  V30 16 1 9 16
M  V30 END BOND
M  V30 END CTAB
M  END
