
     RDKit          3D

  0  0  0  0  0  0  0  0  0  0999 V3000
M  V30 BEGIN CTAB
M  V30 COUNTS 33 35 0 0 0
M  V30 BEGIN ATOM
M  V30 1 N 3.20824 2.88341 -0.739247 0
M  V30 2 C 2.14538 2.44637 -0.598621 0
M  V30 3 C 0.802011 1.86376 -0.428707 0
M  V30 4 C -0.137162 2.65743 0.0236263 0
M  V30 5 N 0.219782 4.03824 0.319012 0
M  V30 6 O -1.44956 2.27321 0.240912 0
M  V30 7 C -1.7511 0.933461 -0.0568195 0
M  V30 8 C -0.834557 0.0601958 -0.525743 0
M  V30 9 C 0.559335 0.473242 -0.754839 0
M  V30 10 C 1.52349 -0.457593 -0.125036 0
M  V30 11 C 1.65263 -0.539232 1.23911 0
M  V30 12 F 0.890667 0.240634 2.01226 0
M  V30 13 C 2.56092 -1.41725 1.82711 0
M  V30 14 C 3.33991 -2.21374 1.04102 0
M  V30 15 C 3.22463 -2.14637 -0.337884 0
M  V30 16 C 2.30844 -1.26015 -0.912226 0
M  V30 17 F 2.22647 -1.225 -2.26263 0
M  V30 18 C -1.18267 -1.25036 -0.803756 0
M  V30 19 C -2.46388 -1.6774 -0.605836 0
M  V30 20 C -3.43495 -0.813151 -0.126041 0
M  V30 21 C -3.06333 0.481804 0.141821 0
M  V30 22 N -4.76117 -1.27395 0.0735341 0
M  V30 23 H -0.172615 4.53643 1.12914 0
M  V30 24 H 0.885937 4.53357 -0.301293 0
M  V30 25 H 0.677193 0.402417 -1.8931 0
M  V30 26 H 2.66073 -1.48046 2.89857 0
M  V30 27 H 4.07422 -2.92589 1.41846 0
M  V30 28 H 3.80513 -2.74313 -1.0034 0
M  V30 29 H -0.432947 -1.95876 -1.18619 0
M  V30 30 H -2.73637 -2.72601 -0.829126 0
M  V30 31 H -3.78482 1.19223 0.517112 0
M  V30 32 H -5.1122 -2.1504 -0.369105 0
M  V30 33 H -5.44778 -0.75758 0.672578 0
M  V30 END ATOM
M  V30 BEGIN BOND
M  V30 1 3 1 2
M  V30 2 1 2 3
M  V30 3 2 3 4
M  V30 4 1 4 5
M  V30 5 1 4 6
M  V30 6 1 6 7
M  V30 7 2 7 8
M  V30 8 1 8 9
M  V30 9 1 9 10
M  V30 10 2 10 11
M  V30 11 1 11 12
M  V30 12 1 11 13
M  V30 13 2 13 14
M  V30 14 1 14 15
M  V30 15 2 15 16
M  V30 16 1 16 17
M  V30 17 1 8 18
M  V30 18 2 18 19
M  V30 19 1 19 20
M  V30 20 2 20 21
M  V30 21 1 20 22
M  V30 22 1 9 3
M  V30 23 1 16 10
M  V30 24 1 21 7
M  V30 25 1 5 23
M  V30 26 1 5 24
M  V30 27 1 9 25
M  V30 28 1 13 26
M  V30 29 1 14 27
M  V30 30 1 15 28
M  V30 31 1 18 29
M  V30 32 1 19 30
M  V30 33 1 21 31
M  V30 34 1 22 32
M  V30 35 1 22 33
M  V30 END BOND
M  V30 END CTAB
M  END
