
     RDKit          3D

  0  0  0  0  0  0  0  0  0  0999 V3000
M  V30 BEGIN CTAB
M  V30 COUNTS 19 19 0 0 0
M  V30 BEGIN ATOM
M  V30 1 N -1.80598 -1.8032 -0.283886 0
M  V30 2 C -0.851034 -0.77694 -0.129771 0
M  V30 3 C 0.510541 -1.08925 -0.120355 0
M  V30 4 C 1.44871 -0.0894347 0.0300698 0
M  V30 5 C 2.91368 -0.347804 0.0494051 0
M  V30 6 C 0.987286 1.19876 0.166946 0
M  V30 7 C -0.3661 1.50842 0.15749 0
M  V30 8 C -1.3109 0.515673 0.00768086 0
M  V30 9 N -2.69817 0.844592 -0.000650061 0
M  V30 10 Br -0.985991 3.29867 0.348458 0
M  V30 11 Cl 2.13995 2.494 0.359731 0
M  V30 12 H -2.00574 -2.16873 -1.22957 0
M  V30 13 H -2.28559 -2.16725 0.555607 0
M  V30 14 H 0.865734 -2.10522 -0.228591 0
M  V30 15 H 3.08405 -1.40347 -0.234822 0
M  V30 16 H 3.47054 0.363222 -0.602563 0
M  V30 17 H 3.33845 -0.191126 1.07904 0
M  V30 18 H -3.21415 1.16389 -0.834752 0
M  V30 19 H -3.23529 0.755193 0.910532 0
M  V30 END ATOM
M  V30 BEGIN BOND
M  V30 1 1 1 2
M  V30 2 2 2 3
M  V30 3 1 3 4
M  V30 4 1 4 5
M  V30 5 2 4 6
M  V30 6 1 6 7
M  V30 7 2 7 8
M  V30 8 1 8 9
M  V30 9 1 7 10
M  V30 10 1 6 11
M  V30 11 1 8 2
M  V30 12 1 1 12
M  V30 13 1 1 13
M  V30 14 1 3 14
M  V30 15 1 5 15
M  V30 16 1 5 16
M  V30 17 1 5 17
M  V30 18 1 9 18
M  V30 19 1 9 19
M  V30 END BOND
M  V30 END CTAB
M  END
