
     RDKit          3D

  0  0  0  0  0  0  0  0  0  0999 V3000
M  V30 BEGIN CTAB
M  V30 COUNTS 57 58 0 0 0
M  V30 BEGIN ATOM
M  V30 1 N -3.79051 2.11372 1.87939 0
M  V30 2 C -2.68259 1.53007 1.17452 0 CFG=2
M  V30 3 C -3.09315 1.65773 -0.304133 0
M  V30 4 C -4.35158 0.955735 -0.581959 0
M  V30 5 C -4.32316 -0.352453 -0.992332 0
M  V30 6 C -5.52019 -0.98722 -1.24408 0
M  V30 7 C -6.71443 -0.338489 -1.09154 0
M  V30 8 C -6.75523 0.970132 -0.681688 0
M  V30 9 C -5.55304 1.60234 -0.430678 0
M  V30 10 C -2.51441 0.166244 1.59309 0
M  V30 11 O -3.49893 -0.210167 2.37594 0
M  V30 12 N -1.53864 -0.807257 1.33748 0
M  V30 13 C -1.69987 -2.17867 1.94409 0
M  V30 14 C -1.68384 -2.95784 0.618062 0
M  V30 15 C -0.70204 -2.20518 -0.256873 0
M  V30 16 C -0.33625 -1.05019 0.666454 0 CFG=1
M  V30 17 C 0.508844 -0.0680335 0.0961927 0
M  V30 18 O 0.418047 1.14001 0.314642 0
M  V30 19 N 1.54721 -0.489648 -0.800355 0
M  V30 20 C 2.4714 0.408269 -1.43767 0
M  V30 21 C 3.34003 1.18763 -0.490574 0
M  V30 22 C 4.18138 0.269279 0.373517 0
M  V30 23 C 5.08377 -0.601438 -0.438646 0
M  V30 24 N 6.04523 0.0739009 -1.24621 0
M  V30 25 C 7.15296 0.777805 -0.719425 0
M  V30 26 N 8.45663 0.197591 -0.670642 0
M  V30 27 N 7.00939 1.96221 -0.271666 0
M  V30 28 H -4.04225 3.00861 1.65056 0
M  V30 29 H -3.89721 1.73561 2.789 0
M  V30 30 H -1.88173 2.25724 1.33542 0
M  V30 31 H -3.19279 2.75462 -0.533286 0
M  V30 32 H -2.23313 1.294 -0.907482 0
M  V30 33 H -3.37991 -0.85381 -1.11159 0
M  V30 34 H -5.54637 -2.02372 -1.5713 0
M  V30 35 H -7.63277 -0.873185 -1.2998 0
M  V30 36 H -7.71344 1.43827 -0.575899 0
M  V30 37 H -5.63321 2.64011 -0.107565 0
M  V30 38 H -2.63746 -2.28195 2.47102 0
M  V30 39 H -0.78512 -2.36436 2.53385 0
M  V30 40 H -1.36615 -3.96872 0.872603 0
M  V30 41 H -2.72504 -2.90919 0.218691 0
M  V30 42 H -1.20704 -1.82381 -1.16214 0
M  V30 43 H 0.183719 -2.82165 -0.510774 0
M  V30 44 H 0.354267 -1.59636 1.44259 0
M  V30 45 H 1.66779 -1.52454 -1.02852 0
M  V30 46 H 1.8631 1.09296 -2.08172 0
M  V30 47 H 3.12061 -0.138454 -2.14918 0
M  V30 48 H 4.03309 1.81613 -1.08531 0
M  V30 49 H 2.71366 1.87945 0.0893141 0
M  V30 50 H 3.5448 -0.410115 0.985799 0
M  V30 51 H 4.79223 0.915614 1.04534 0
M  V30 52 H 5.65443 -1.24002 0.297573 0
M  V30 53 H 4.44797 -1.31046 -1.00324 0
M  V30 54 H 5.96743 0.0770057 -2.30488 0
M  V30 55 H 8.59126 -0.826674 -0.53489 0
M  V30 56 H 9.33593 0.760551 -0.767 0
M  V30 57 H 6.1463 2.53076 -0.230162 0
M  V30 END ATOM
M  V30 BEGIN BOND
M  V30 1 1 1 2
M  V30 2 1 2 3
M  V30 3 1 3 4
M  V30 4 2 4 5
M  V30 5 1 5 6
M  V30 6 2 6 7
M  V30 7 1 7 8
M  V30 8 2 8 9
M  V30 9 1 2 10
M  V30 10 2 10 11
M  V30 11 1 10 12
M  V30 12 1 12 13
M  V30 13 1 13 14
M  V30 14 1 14 15
M  V30 15 1 15 16
M  V30 16 1 16 17
M  V30 17 2 17 18
M  V30 18 1 17 19
M  V30 19 1 19 20
M  V30 20 1 20 21
M  V30 21 1 21 22
M  V30 22 1 22 23
M  V30 23 1 23 24
M  V30 24 1 24 25
M  V30 25 1 25 26
M  V30 26 2 25 27 CFG=2
M  V30 27 1 9 4
M  V30 28 1 16 12
M  V30 29 1 1 28
M  V30 30 1 1 29
M  V30 31 1 2 30 CFG=3
M  V30 32 1 3 31
M  V30 33 1 3 32
M  V30 34 1 5 33
M  V30 35 1 6 34
M  V30 36 1 7 35
M  V30 37 1 8 36
M  V30 38 1 9 37
M  V30 39 1 13 38
M  V30 40 1 13 39
M  V30 41 1 14 40
M  V30 42 1 14 41
M  V30 43 1 15 42
M  V30 44 1 15 43
M  V30 45 1 16 44 CFG=1
M  V30 46 1 19 45
M  V30 47 1 20 46
M  V30 48 1 20 47
M  V30 49 1 21 48
M  V30 50 1 21 49
M  V30 51 1 22 50
M  V30 52 1 22 51
M  V30 53 1 23 52
M  V30 54 1 23 53
M  V30 55 1 24 54
M  V30 56 1 26 55
M  V30 57 1 26 56
M  V30 58 1 27 57
M  V30 END BOND
M  V30 END CTAB
M  END
