
     RDKit          3D

  0  0  0  0  0  0  0  0  0  0999 V3000
M  V30 BEGIN CTAB
M  V30 COUNTS 39 41 0 0 0
M  V30 BEGIN ATOM
M  V30 1 N 2.71936 -2.89439 -0.367467 0
M  V30 2 C 2.78919 -1.47733 -0.4096 0
M  V30 3 N 3.92313 -0.796577 -0.692941 0
M  V30 4 C 3.66858 0.516263 -0.655632 0
M  V30 5 C 2.32438 0.618219 -0.336057 0
M  V30 6 N 1.833 1.88288 -0.241244 0
M  V30 7 C 2.60757 2.95559 -0.445677 0
M  V30 8 N 3.89878 2.82643 -0.752088 0
M  V30 9 C 4.46754 1.62062 -0.866461 0
M  V30 10 N 5.84446 1.45011 -1.19262 0
M  V30 11 N 1.79261 -0.602772 -0.187002 0
M  V30 12 C 0.45069 -0.943399 0.139947 0 CFG=2
M  V30 13 O -0.488145 -0.258525 -0.666421 0
M  V30 14 C -1.67247 -0.627483 -0.00394678 0 CFG=2
M  V30 15 C -2.87172 0.0792857 -0.582888 0
M  V30 16 O -3.98678 -0.349112 0.135193 0
M  V30 17 P -5.41329 0.36099 -0.4023 0
M  V30 18 O -5.36707 1.99492 0.00825714 0
M  V30 19 O -5.66019 0.102598 -2.03197 0
M  V30 20 O -6.5536 -0.306111 0.354086 0
M  V30 21 C -1.3735 -0.164533 1.40631 0 CFG=1
M  V30 22 O -2.21073 -0.714141 2.34935 0
M  V30 23 C 0.0724672 -0.650276 1.56415 0 CFG=1
M  V30 24 O -0.0100904 -1.84469 2.30509 0
M  V30 25 H 2.68442 -3.40921 -1.25392 0
M  V30 26 H 2.70245 -3.42603 0.524282 0
M  V30 27 H 2.19536 3.95312 -0.364971 0
M  V30 28 H 6.09598 1.62865 -2.20014 0
M  V30 29 H 6.53733 1.16969 -0.476903 0
M  V30 30 H 0.246471 -2.0239 -0.0458035 0
M  V30 31 H -1.74564 -1.71124 -0.0760701 0
M  V30 32 H -3.00372 -0.326904 -1.61854 0
M  V30 33 H -2.75733 1.16078 -0.630612 0
M  V30 34 H -4.40959 2.28119 -0.0791195 0
M  V30 35 H -5.7118 0.993485 -2.48769 0
M  V30 36 H -1.32772 0.938594 1.42631 0
M  V30 37 H -2.55301 -1.59118 2.06091 0
M  V30 38 H 0.705956 0.0820965 2.06264 0
M  V30 39 H -0.443327 -2.49772 1.67117 0
M  V30 END ATOM
M  V30 BEGIN BOND
M  V30 1 1 1 2
M  V30 2 2 2 3
M  V30 3 1 3 4
M  V30 4 2 4 5
M  V30 5 1 5 6
M  V30 6 2 6 7
M  V30 7 1 7 8
M  V30 8 2 8 9
M  V30 9 1 9 10
M  V30 10 1 5 11
M  V30 11 1 11 12
M  V30 12 1 12 13
M  V30 13 1 13 14
M  V30 14 1 14 15
M  V30 15 1 15 16
M  V30 16 1 16 17
M  V30 17 1 17 18
M  V30 18 1 17 19
M  V30 19 2 17 20
M  V30 20 1 14 21
M  V30 21 1 21 22
M  V30 22 1 21 23
M  V30 23 1 23 24
M  V30 24 1 11 2
M  V30 25 1 23 12
M  V30 26 1 9 4
M  V30 27 1 1 25
M  V30 28 1 1 26
M  V30 29 1 7 27
M  V30 30 1 10 28
M  V30 31 1 10 29
M  V30 32 1 12 30 CFG=1
M  V30 33 1 14 31 CFG=1
M  V30 34 1 15 32
M  V30 35 1 15 33
M  V30 36 1 18 34
M  V30 37 1 19 35
M  V30 38 1 21 36 CFG=3
M  V30 39 1 22 37
M  V30 40 1 23 38 CFG=1
M  V30 41 1 24 39
M  V30 END BOND
M  V30 END CTAB
M  END
