
     RDKit          3D

  0  0  0  0  0  0  0  0  0  0999 V3000
M  V30 BEGIN CTAB
M  V30 COUNTS 60 64 0 0 0
M  V30 BEGIN ATOM
M  V30 1 N 0.261447 -1.45356 -3.50093 0
M  V30 2 C 1.13249 -1.11737 -2.42425 0
M  V30 3 C 2.48815 -1.10179 -2.63132 0
M  V30 4 Br 3.24575 -1.52376 -4.3509 0
M  V30 5 C 3.30889 -0.776974 -1.5822 0
M  V30 6 C 2.84082 -0.460083 -0.31409 0
M  V30 7 N 3.72792 -0.233635 0.754975 0
M  V30 8 C 5.07297 0.195946 0.619732 0
M  V30 9 C 6.06595 -0.192935 1.50783 0
M  V30 10 C 7.35787 0.274559 1.39688 0
M  V30 11 C 7.71069 1.15112 0.392315 0
M  V30 12 C 6.72934 1.54064 -0.491721 0
M  V30 13 C 5.42065 1.06337 -0.374136 0
M  V30 14 S 9.35428 1.75721 0.235927 0
M  V30 15 O 10.2854 0.775943 -0.737297 0
M  V30 16 O 9.26944 3.13421 -0.356923 0
M  V30 17 O 10.0278 1.87755 1.56782 0
M  V30 18 C 1.46843 -0.472283 -0.097245 0
M  V30 19 C 0.643717 -0.801434 -1.15699 0
M  V30 20 C -0.808663 -0.798799 -0.930669 0
M  V30 21 O -1.50232 -1.10416 -1.93338 0
M  V30 22 C -1.4215 -0.465865 0.353343 0
M  V30 23 C -2.78966 -0.446182 0.57442 0
M  V30 24 N -3.67719 -0.880575 -0.423652 0
M  V30 25 C -5.05135 -0.497688 -0.436724 0
M  V30 26 C -5.55366 0.697443 -0.0142394 0
M  V30 27 C -6.92162 0.987144 -0.0467083 0
M  V30 28 C -7.81227 0.0613443 -0.513004 0
M  V30 29 C -7.31502 -1.15285 -0.944163 0
M  V30 30 C -5.97564 -1.43761 -0.912579 0
M  V30 31 S -9.53423 0.386983 -0.569459 0
M  V30 32 O -10.2489 -0.090732 0.871954 0
M  V30 33 O -10.1193 -0.432767 -1.69701 0
M  V30 34 O -9.81617 1.8492 -0.76596 0
M  V30 35 C -3.2985 -0.0959556 1.83215 0
M  V30 36 C -2.47215 0.23571 2.87846 0
M  V30 37 Br -3.19986 0.712357 4.58736 0
M  V30 38 C -1.11633 0.211892 2.65166 0
M  V30 39 N -0.247016 0.548206 3.71391 0
M  V30 40 C -0.5996 -0.134115 1.40802 0
M  V30 41 C 0.858833 -0.135697 1.18578 0
M  V30 42 O 1.53268 0.180742 2.19427 0
M  V30 43 H 0.0970954 -2.43784 -3.80441 0
M  V30 44 H -0.258327 -0.722956 -4.04195 0
M  V30 45 H 4.38171 -0.793507 -1.75055 0
M  V30 46 H 3.44099 -0.421164 1.72959 0
M  V30 47 H 5.81044 -0.886139 2.31132 0
M  V30 48 H 8.13755 -0.0268866 2.08914 0
M  V30 49 H 6.96974 2.22639 -1.2913 0
M  V30 50 H 4.71113 1.4458 -1.12602 0
M  V30 51 H 11.0151 0.318743 -0.251304 0
M  V30 52 H -3.37708 -1.53377 -1.17195 0
M  V30 53 H -4.86919 1.45578 0.351345 0
M  V30 54 H -7.2872 1.92897 0.289905 0
M  V30 55 H -8.04022 -1.87279 -1.31051 0
M  V30 56 H -5.60277 -2.39616 -1.2551 0
M  V30 57 H -10.2259 0.640775 1.55466 0
M  V30 58 H -4.36421 -0.090591 2.05864 0
M  V30 59 H 0.0834544 -0.195286 4.3501 0
M  V30 60 H 0.0551105 1.5259 3.85352 0
M  V30 END ATOM
M  V30 BEGIN BOND
M  V30 1 1 1 2
M  V30 2 2 2 3
M  V30 3 1 3 4
M  V30 4 1 3 5
M  V30 5 2 5 6
M  V30 6 1 6 7
M  V30 7 1 7 8
M  V30 8 2 8 9
M  V30 9 1 9 10
M  V30 10 2 10 11
M  V30 11 1 11 12
M  V30 12 2 12 13
M  V30 13 1 11 14
M  V30 14 1 14 15
M  V30 15 2 14 16
M  V30 16 2 14 17
M  V30 17 1 6 18
M  V30 18 2 18 19
M  V30 19 1 19 20
M  V30 20 2 20 21
M  V30 21 1 20 22
M  V30 22 2 22 23
M  V30 23 1 23 24
M  V30 24 1 24 25
M  V30 25 2 25 26
M  V30 26 1 26 27
M  V30 27 2 27 28
M  V30 28 1 28 29
M  V30 29 2 29 30
M  V30 30 1 28 31
M  V30 31 1 31 32
M  V30 32 2 31 33
M  V30 33 2 31 34
M  V30 34 1 23 35
M  V30 35 2 35 36
M  V30 36 1 36 37
M  V30 37 1 36 38
M  V30 38 1 38 39
M  V30 39 2 38 40
M  V30 40 1 40 41
M  V30 41 2 41 42
M  V30 42 1 19 2
M  V30 43 1 40 22
M  V30 44 1 13 8
M  V30 45 1 41 18
M  V30 46 1 30 25
M  V30 47 1 1 43
M  V30 48 1 1 44
M  V30 49 1 5 45
M  V30 50 1 7 46
M  V30 51 1 9 47
M  V30 52 1 10 48
M  V30 53 1 12 49
M  V30 54 1 13 50
M  V30 55 1 15 51
M  V30 56 1 24 52
M  V30 57 1 26 53
M  V30 58 1 27 54
M  V30 59 1 29 55
M  V30 60 1 30 56
M  V30 61 1 32 57
M  V30 62 1 35 58
M  V30 63 1 39 59
M  V30 64 1 39 60
M  V30 END BOND
M  V30 END CTAB
M  END
