
     RDKit          3D

  0  0  0  0  0  0  0  0  0  0999 V3000
M  V30 BEGIN CTAB
M  V30 COUNTS 21 22 0 0 0
M  V30 BEGIN ATOM
M  V30 1 N -2.8574 -1.25171 -0.0599732 0
M  V30 2 C -1.55905 -0.678898 -0.0734531 0
M  V30 3 C -0.448616 -1.44123 -0.364923 0
M  V30 4 C 0.801422 -0.843843 -0.367644 0
M  V30 5 O 2.05709 -1.4254 -0.633992 0
M  V30 6 C 3.03933 -0.590804 -0.00343707 0
M  V30 7 C 2.42237 0.775204 -0.185974 0
M  V30 8 C 0.974005 0.491517 -0.0880672 0
M  V30 9 C -0.12497 1.27115 0.20609 0
M  V30 10 C -1.35844 0.678063 0.208031 0
M  V30 11 N -2.48742 1.48548 0.511683 0
M  V30 12 H -3.53751 -1.09554 -0.82648 0
M  V30 13 H -3.13645 -1.84536 0.740823 0
M  V30 14 H -0.572705 -2.50683 -0.589632 0
M  V30 15 H 3.10534 -0.813117 1.07963 0
M  V30 16 H 3.99273 -0.628534 -0.535403 0
M  V30 17 H 2.62263 1.07893 -1.23288 0
M  V30 18 H 2.78273 1.49735 0.552485 0
M  V30 19 H 0.0415555 2.31689 0.421723 0
M  V30 20 H -2.8946 1.40786 1.45964 0
M  V30 21 H -2.86205 2.11881 -0.218243 0
M  V30 END ATOM
M  V30 BEGIN BOND
M  V30 1 1 1 2
M  V30 2 2 2 3
M  V30 3 1 3 4
M  V30 4 1 4 5
M  V30 5 1 5 6
M  V30 6 1 6 7
M  V30 7 1 7 8
M  V30 8 1 8 9
M  V30 9 2 9 10
M  V30 10 1 10 11
M  V30 11 1 10 2
M  V30 12 2 8 4
M  V30 13 1 1 12
M  V30 14 1 1 13
M  V30 15 1 3 14
M  V30 16 1 6 15
M  V30 17 1 6 16
M  V30 18 1 7 17
M  V30 19 1 7 18
M  V30 20 1 9 19
M  V30 21 1 11 20
M  V30 22 1 11 21
M  V30 END BOND
M  V30 END CTAB
M  END
