
     RDKit          3D

  0  0  0  0  0  0  0  0  0  0999 V3000
M  V30 BEGIN CTAB
M  V30 COUNTS 16 16 0 0 0
M  V30 BEGIN ATOM
M  V30 1 N 2.59704 -0.670154 0.155608 0
M  V30 2 C 1.27503 -0.141997 0.0679988 0
M  V30 3 C 0.177022 -0.973567 0.0417526 0
M  V30 4 C -1.11919 -0.493571 -0.0427581 0
M  V30 5 N -2.23917 -1.36556 -0.068674 0
M  V30 6 C -1.27993 0.88483 -0.101531 0
M  V30 7 C -0.182689 1.71092 -0.0751216 0
M  V30 8 C 1.10666 1.22905 0.00909951 0
M  V30 9 Br -0.47101 3.60266 -0.159261 0
M  V30 10 Cl -2.92794 1.49706 -0.20906 0
M  V30 11 H 2.69847 -1.6591 0.480015 0
M  V30 12 H 3.41926 -0.0763417 -0.098838 0
M  V30 13 H 0.32992 -2.04618 0.0889265 0
M  V30 14 H -2.95911 -1.28431 0.681329 0
M  V30 15 H -2.3938 -2.09455 -0.799275 0
M  V30 16 H 1.96945 1.88081 0.0297885 0
M  V30 END ATOM
M  V30 BEGIN BOND
M  V30 1 1 1 2
M  V30 2 2 2 3
M  V30 3 1 3 4
M  V30 4 1 4 5
M  V30 5 2 4 6
M  V30 6 1 6 7
M  V30 7 2 7 8
M  V30 8 1 7 9
M  V30 9 1 6 10
M  V30 10 1 8 2
M  V30 11 1 1 11
M  V30 12 1 1 12
M  V30 13 1 3 13
M  V30 14 1 5 14
M  V30 15 1 5 15
M  V30 16 1 8 16
M  V30 END BOND
M  V30 END CTAB
M  END
