
     RDKit          3D

  0  0  0  0  0  0  0  0  0  0999 V3000
M  V30 BEGIN CTAB
M  V30 COUNTS 21 21 0 0 0
M  V30 BEGIN ATOM
M  V30 1 C 4.13991 -0.162817 -0.197897 0
M  V30 2 O 2.85848 -0.694411 -0.387119 0
M  V30 3 C 1.7306 0.0571213 -0.00851534 0
M  V30 4 C 0.454673 -0.436164 -0.180824 0
M  V30 5 C -0.603003 0.338066 0.205272 0
M  V30 6 N -0.392651 1.54592 0.737303 0
M  V30 7 C 0.837023 2.02229 0.903796 0
M  V30 8 N 1.88781 1.27256 0.528917 0
M  V30 9 C -1.96913 -0.197878 0.0172982 0
M  V30 10 N -3.01575 0.475272 0.357791 0
M  V30 11 N -4.3224 0.00442605 0.196671 0
M  V30 12 N -2.18106 -1.47676 -0.546451 0
M  V30 13 H 4.06182 0.922605 0.0462523 0
M  V30 14 H 4.62762 -0.675664 0.672543 0
M  V30 15 H 4.79744 -0.290636 -1.08866 0
M  V30 16 H 0.318047 -1.42949 -0.619735 0
M  V30 17 H 0.954693 3.01492 1.34311 0
M  V30 18 H -4.71151 -0.73006 0.823671 0
M  V30 19 H -4.96628 0.360554 -0.550744 0
M  V30 20 H -1.88206 -2.31208 -0.0150331 0
M  V30 21 H -2.62428 -1.60777 -1.47112 0
M  V30 END ATOM
M  V30 BEGIN BOND
M  V30 1 1 1 2
M  V30 2 1 2 3
M  V30 3 2 3 4
M  V30 4 1 4 5
M  V30 5 2 5 6
M  V30 6 1 6 7
M  V30 7 2 7 8
M  V30 8 1 5 9
M  V30 9 2 9 10
M  V30 10 1 10 11
M  V30 11 1 9 12
M  V30 12 1 8 3
M  V30 13 1 1 13
M  V30 14 1 1 14
M  V30 15 1 1 15
M  V30 16 1 4 16
M  V30 17 1 7 17
M  V30 18 1 11 18
M  V30 19 1 11 19
M  V30 20 1 12 20
M  V30 21 1 12 21
M  V30 END BOND
M  V30 END CTAB
M  END
