
     RDKit          3D

  0  0  0  0  0  0  0  0  0  0999 V3000
M  V30 BEGIN CTAB
M  V30 COUNTS 37 39 0 0 0
M  V30 BEGIN ATOM
M  V30 1 N 1.29209 1.74148 -2.11735 0
M  V30 2 C 0.845437 0.556269 -1.46443 0
M  V30 3 N 1.66975 -0.498651 -1.42988 0
M  V30 4 C 1.30031 -1.63544 -0.830541 0
M  V30 5 C 2.24855 -2.77325 -0.81874 0
M  V30 6 S 3.32247 -2.71662 0.637497 0
M  V30 7 C 4.41457 -1.30798 0.59028 0
M  V30 8 N 4.15123 -0.104944 1.08143 0
M  V30 9 N 5.00842 0.8171 0.988572 0
M  V30 10 C 6.17799 0.591244 0.39994 0
M  V30 11 S 5.98438 -1.07203 -0.0318682 0
M  V30 12 N 7.28253 1.4601 0.181283 0
M  V30 13 N 0.0848334 -1.70198 -0.26198 0
M  V30 14 C -0.776132 -0.631177 -0.286419 0
M  V30 15 N -0.351358 0.465448 -0.895018 0
M  V30 16 N -2.0453 -0.72657 0.307225 0
M  V30 17 C -3.06146 0.228927 0.402362 0
M  V30 18 C -3.02022 1.51496 -0.0298399 0
M  V30 19 C -4.07081 2.4279 0.103849 0
M  V30 20 C -5.22524 2.00179 0.712569 0
M  V30 21 C -5.30783 0.708251 1.16413 0
M  V30 22 C -4.26314 -0.16038 1.01843 0
M  V30 23 C -4.40019 -1.53178 1.51543 0
M  V30 24 H 1.23462 2.63089 -1.58137 0
M  V30 25 H 1.66235 1.72018 -3.09391 0
M  V30 26 H 2.81523 -2.81412 -1.76084 0
M  V30 27 H 1.6376 -3.6959 -0.732372 0
M  V30 28 H 8.19851 1.04277 -0.0489659 0
M  V30 29 H 7.15761 2.45926 0.252933 0
M  V30 30 H -2.21891 -1.70888 0.747668 0
M  V30 31 H -2.15786 1.91432 -0.507772 0
M  V30 32 H -3.98835 3.44595 -0.257733 0
M  V30 33 H -6.05621 2.69558 0.827314 0
M  V30 34 H -6.24218 0.390187 1.64772 0
M  V30 35 H -5.3926 -1.65522 1.98818 0
M  V30 36 H -3.63846 -1.7864 2.29178 0
M  V30 37 H -4.27223 -2.29129 0.706273 0
M  V30 END ATOM
M  V30 BEGIN BOND
M  V30 1 1 1 2
M  V30 2 2 2 3
M  V30 3 1 3 4
M  V30 4 1 4 5
M  V30 5 1 5 6
M  V30 6 1 6 7
M  V30 7 2 7 8
M  V30 8 1 8 9
M  V30 9 2 9 10
M  V30 10 1 10 11
M  V30 11 1 10 12
M  V30 12 2 4 13
M  V30 13 1 13 14
M  V30 14 2 14 15
M  V30 15 1 14 16
M  V30 16 1 16 17
M  V30 17 2 17 18
M  V30 18 1 18 19
M  V30 19 2 19 20
M  V30 20 1 20 21
M  V30 21 2 21 22
M  V30 22 1 22 23
M  V30 23 1 15 2
M  V30 24 1 22 17
M  V30 25 1 11 7
M  V30 26 1 1 24
M  V30 27 1 1 25
M  V30 28 1 5 26
M  V30 29 1 5 27
M  V30 30 1 12 28
M  V30 31 1 12 29
M  V30 32 1 16 30
M  V30 33 1 18 31
M  V30 34 1 19 32
M  V30 35 1 20 33
M  V30 36 1 21 34
M  V30 37 1 23 35
M  V30 38 1 23 36
M  V30 39 1 23 37
M  V30 END BOND
M  V30 END CTAB
M  END
