
     RDKit          3D

  0  0  0  0  0  0  0  0  0  0999 V3000
M  V30 BEGIN CTAB
M  V30 COUNTS 26 26 0 0 0
M  V30 BEGIN ATOM
M  V30 1 C 4.21797 -0.0365605 0.311022 0
M  V30 2 C 3.50297 0.809083 -0.691088 0
M  V30 3 O 2.1364 0.940077 -0.475687 0
M  V30 4 C 1.20906 -0.0657417 -0.438612 0
M  V30 5 O 1.62021 -1.24346 -0.616851 0
M  V30 6 C -0.219922 0.148887 -0.205643 0
M  V30 7 C -0.715897 1.41976 -0.00550749 0
M  V30 8 C -2.03456 1.69404 0.217081 0
M  V30 9 C -2.91757 0.642595 0.242996 0
M  V30 10 C -2.44218 -0.636583 0.0450814 0
M  V30 11 C -1.09579 -0.908939 -0.181421 0
M  V30 12 N -0.645465 -2.24798 -0.381587 0
M  V30 13 O -3.36354 -1.68205 0.0772738 0
M  V30 14 N -4.30106 0.86103 0.4696 0
M  V30 15 H 4.02615 0.394007 1.33 0
M  V30 16 H 5.31647 0.0560367 0.0946113 0
M  V30 17 H 3.93318 -1.08253 0.222171 0
M  V30 18 H 3.94687 1.84181 -0.646745 0
M  V30 19 H 3.75681 0.435652 -1.71907 0
M  V30 20 H 0.0213818 2.2361 -0.0332871 0
M  V30 21 H -2.34386 2.71899 0.365067 0
M  V30 22 H -0.63933 -2.89402 0.434388 0
M  V30 23 H -0.320028 -2.63029 -1.2896 0
M  V30 24 H -3.0547 -2.63912 -0.0638726 0
M  V30 25 H -4.92314 1.19991 -0.28362 0
M  V30 26 H -4.67043 0.669313 1.41852 0
M  V30 END ATOM
M  V30 BEGIN BOND
M  V30 1 1 1 2
M  V30 2 1 2 3
M  V30 3 1 3 4
M  V30 4 2 4 5
M  V30 5 1 4 6
M  V30 6 2 6 7
M  V30 7 1 7 8
M  V30 8 2 8 9
M  V30 9 1 9 10
M  V30 10 2 10 11
M  V30 11 1 11 12
M  V30 12 1 10 13
M  V30 13 1 9 14
M  V30 14 1 11 6
M  V30 15 1 1 15
M  V30 16 1 1 16
M  V30 17 1 1 17
M  V30 18 1 2 18
M  V30 19 1 2 19
M  V30 20 1 7 20
M  V30 21 1 8 21
M  V30 22 1 12 22
M  V30 23 1 12 23
M  V30 24 1 13 24
M  V30 25 1 14 25
M  V30 26 1 14 26
M  V30 END BOND
M  V30 END CTAB
M  END
