
     RDKit          3D

  0  0  0  0  0  0  0  0  0  0999 V3000
M  V30 BEGIN CTAB
M  V30 COUNTS 48 51 0 0 0
M  V30 BEGIN ATOM
M  V30 1 C -0.658202 -4.97796 0.0713932 0
M  V30 2 O -1.48787 -3.86904 -0.0923618 0
M  V30 3 C -1.1421 -2.57588 0.197593 0
M  V30 4 C -2.01897 -1.53424 0.0078387 0
M  V30 5 O -3.29252 -1.74407 -0.485171 0
M  V30 6 C -4.40928 -2.00341 0.363705 0
M  V30 7 C -1.5965 -0.238233 0.32621 0
M  V30 8 C -0.318635 -0.0153846 0.822505 0
M  V30 9 C 0.0515027 1.35941 1.134 0
M  V30 10 C -0.773085 2.37471 0.962263 0
M  V30 11 C -2.14081 2.16144 0.434533 0
M  V30 12 O -2.45273 0.830127 0.147208 0
M  V30 13 C -2.26933 3.05757 -0.785544 0
M  V30 14 C -3.5225 3.08679 -1.55547 0
M  V30 15 C -3.23586 4.21834 -0.645099 0
M  V30 16 C 0.550934 -1.05885 1.00929 0
M  V30 17 C 1.89174 -0.819807 1.53095 0
M  V30 18 C 2.83273 -0.251442 0.531735 0
M  V30 19 C 2.5084 -0.026107 -0.788815 0
M  V30 20 N 3.43339 0.493692 -1.62532 0
M  V30 21 C 4.68393 0.815272 -1.24765 0
M  V30 22 N 5.62651 1.36309 -2.17301 0
M  V30 23 N 5.00926 0.598151 0.0412151 0
M  V30 24 C 4.1139 0.0774711 0.920519 0
M  V30 25 N 4.4679 -0.147622 2.281 0
M  V30 26 C 0.139971 -2.33025 0.698215 0
M  V30 27 H -1.2744 -5.88736 -0.139614 0
M  V30 28 H -0.30626 -4.99432 1.12304 0
M  V30 29 H 0.215435 -4.87495 -0.571371 0
M  V30 30 H -4.64814 -3.08518 0.254514 0
M  V30 31 H -5.31392 -1.45029 0.0230125 0
M  V30 32 H -4.19467 -1.76555 1.41828 0
M  V30 33 H 1.0526 1.59542 1.52948 0
M  V30 34 H -0.4191 3.38816 1.2215 0
M  V30 35 H -2.85576 2.50584 1.21555 0
M  V30 36 H -1.33263 3.23789 -1.35211 0
M  V30 37 H -4.30708 2.34712 -1.24833 0
M  V30 38 H -3.51775 3.30774 -2.63753 0
M  V30 39 H -3.85944 4.27271 0.273507 0
M  V30 40 H -2.89892 5.19868 -1.00579 0
M  V30 41 H 1.85293 -0.0714768 2.3768 0
M  V30 42 H 2.34726 -1.77484 1.89174 0
M  V30 43 H 1.50929 -0.278268 -1.11588 0
M  V30 44 H 5.2903 1.95732 -2.95938 0
M  V30 45 H 6.65202 1.19941 -2.1056 0
M  V30 46 H 4.27563 0.552509 3.02841 0
M  V30 47 H 4.93505 -1.04921 2.51968 0
M  V30 48 H 0.805777 -3.17511 0.835476 0
M  V30 END ATOM
M  V30 BEGIN BOND
M  V30 1 1 1 2
M  V30 2 1 2 3
M  V30 3 2 3 4
M  V30 4 1 4 5
M  V30 5 1 5 6
M  V30 6 1 4 7
M  V30 7 2 7 8
M  V30 8 1 8 9
M  V30 9 2 9 10
M  V30 10 1 10 11
M  V30 11 1 11 12
M  V30 12 1 11 13
M  V30 13 1 13 14
M  V30 14 1 14 15
M  V30 15 1 8 16
M  V30 16 1 16 17
M  V30 17 1 17 18
M  V30 18 2 18 19
M  V30 19 1 19 20
M  V30 20 2 20 21
M  V30 21 1 21 22
M  V30 22 1 21 23
M  V30 23 2 23 24
M  V30 24 1 24 25
M  V30 25 2 16 26
M  V30 26 1 26 3
M  V30 27 1 12 7
M  V30 28 1 15 13
M  V30 29 1 24 18
M  V30 30 1 1 27
M  V30 31 1 1 28
M  V30 32 1 1 29
M  V30 33 1 6 30
M  V30 34 1 6 31
M  V30 35 1 6 32
M  V30 36 1 9 33
M  V30 37 1 10 34
M  V30 38 1 11 35
M  V30 39 1 13 36
M  V30 40 1 14 37
M  V30 41 1 14 38
M  V30 42 1 15 39
M  V30 43 1 15 40
M  V30 44 1 17 41
M  V30 45 1 17 42
M  V30 46 1 19 43
M  V30 47 1 22 44
M  V30 48 1 22 45
M  V30 49 1 25 46
M  V30 50 1 25 47
M  V30 51 1 26 48
M  V30 END BOND
M  V30 END CTAB
M  END
