
     RDKit          3D

  0  0  0  0  0  0  0  0  0  0999 V3000
M  V30 BEGIN CTAB
M  V30 COUNTS 39 41 0 0 0
M  V30 BEGIN ATOM
M  V30 1 N -4.68321 1.0064 2.5003 0
M  V30 2 C -4.45225 0.891294 1.10333 0
M  V30 3 C -5.41282 1.41444 0.230192 0
M  V30 4 C -5.21372 1.31649 -1.13683 0
M  V30 5 C -4.07259 0.705211 -1.61517 0
M  V30 6 C -3.13818 0.19606 -0.721209 0
M  V30 7 C -3.31398 0.281468 0.634802 0
M  V30 8 S -2.14442 -0.358336 1.81925 0
M  V30 9 C -0.74218 -1.12175 1.06575 0
M  V30 10 N -0.661592 -2.42119 0.730339 0
M  V30 11 C 0.439943 -2.96245 0.154407 0
M  V30 12 N 0.50156 -4.34661 -0.192605 0
M  V30 13 C 1.54202 -2.17503 -0.112305 0
M  V30 14 C 2.72947 -2.70002 -0.718729 0
M  V30 15 N 3.67454 -3.12124 -1.17974 0
M  V30 16 C 1.50263 -0.829159 0.217174 0
M  V30 17 C 2.6353 0.0533164 -0.0350971 0
M  V30 18 C 3.70597 0.136249 0.8389 0
M  V30 19 C 4.77088 0.977911 0.57563 0
M  V30 20 C 4.82332 1.76709 -0.552835 0
M  V30 21 O 5.90913 2.58695 -0.764556 0
M  V30 22 C 3.76236 1.69162 -1.42895 0
M  V30 23 C 2.70344 0.856369 -1.16983 0
M  V30 24 C 0.366248 -0.32928 0.797447 0
M  V30 25 C 0.347665 1.07581 1.13111 0
M  V30 26 N 0.317403 2.20994 1.39117 0
M  V30 27 H -3.89561 1.32446 3.097 0
M  V30 28 H -5.60205 0.786168 2.94064 0
M  V30 29 H -6.30907 1.89486 0.578894 0
M  V30 30 H -5.97307 1.73057 -1.8014 0
M  V30 31 H -3.93252 0.637014 -2.68944 0
M  V30 32 H -2.25355 -0.277344 -1.11233 0
M  V30 33 H 0.0670363 -5.0915 0.3936 0
M  V30 34 H 0.994809 -4.67231 -1.0648 0
M  V30 35 H 3.7176 -0.450556 1.72521 0
M  V30 36 H 5.60304 1.03282 1.26921 0
M  V30 37 H 6.02952 3.18895 -1.55151 0
M  V30 38 H 3.79833 2.30894 -2.31644 0
M  V30 39 H 1.85858 0.786384 -1.85148 0
M  V30 END ATOM
M  V30 BEGIN BOND
M  V30 1 1 1 2
M  V30 2 2 2 3
M  V30 3 1 3 4
M  V30 4 2 4 5
M  V30 5 1 5 6
M  V30 6 2 6 7
M  V30 7 1 7 8
M  V30 8 1 8 9
M  V30 9 2 9 10
M  V30 10 1 10 11
M  V30 11 1 11 12
M  V30 12 2 11 13
M  V30 13 1 13 14
M  V30 14 3 14 15
M  V30 15 1 13 16
M  V30 16 1 16 17
M  V30 17 2 17 18
M  V30 18 1 18 19
M  V30 19 2 19 20
M  V30 20 1 20 21
M  V30 21 1 20 22
M  V30 22 2 22 23
M  V30 23 2 16 24
M  V30 24 1 24 25
M  V30 25 3 25 26
M  V30 26 1 7 2
M  V30 27 1 24 9
M  V30 28 1 23 17
M  V30 29 1 1 27
M  V30 30 1 1 28
M  V30 31 1 3 29
M  V30 32 1 4 30
M  V30 33 1 5 31
M  V30 34 1 6 32
M  V30 35 1 12 33
M  V30 36 1 12 34
M  V30 37 1 18 35
M  V30 38 1 19 36
M  V30 39 1 21 37
M  V30 40 1 22 38
M  V30 41 1 23 39
M  V30 END BOND
M  V30 END CTAB
M  END
