
     RDKit          3D

  0  0  0  0  0  0  0  0  0  0999 V3000
M  V30 BEGIN CTAB
M  V30 COUNTS 86 87 0 0 0
M  V30 BEGIN ATOM
M  V30 1 C -5.04688 1.26277 1.73912 0 CFG=1
M  V30 2 N -5.37928 1.87085 3.01047 0
M  V30 3 C -4.75308 2.3909 0.765366 0
M  V30 4 C -5.89554 3.3213 0.550575 0
M  V30 5 C -6.39046 4.03598 1.76139 0
M  V30 6 C -7.06367 2.65271 -0.138211 0
M  V30 7 C -3.79546 0.500098 1.89015 0
M  V30 8 O -3.22302 0.5324 3.03271 0
M  V30 9 N -3.192 -0.261376 0.856987 0
M  V30 10 C -1.99143 -0.974534 1.06003 0 CFG=1
M  V30 11 C -2.12358 -2.45888 1.06445 0
M  V30 12 C -2.66899 -3.07947 -0.144863 0
M  V30 13 C -1.95722 -3.62143 -1.21404 0
M  V30 14 N -2.76799 -4.0749 -2.15421 0
M  V30 15 C -4.02499 -3.85468 -1.75046 0
M  V30 16 C -4.00061 -3.23937 -0.508717 0
M  V30 17 C -5.21342 -2.93976 0.0801677 0
M  V30 18 C -6.40738 -3.2365 -0.536573 0
M  V30 19 C -6.45186 -3.84724 -1.77094 0
M  V30 20 C -5.24745 -4.14814 -2.36093 0
M  V30 21 C -0.841985 -0.487548 0.205254 0
M  V30 22 O -1.08547 0.459447 -0.545587 0
M  V30 23 N 0.422925 -1.09337 0.281208 0
M  V30 24 C 1.62664 -0.829232 -0.408999 0 CFG=1
M  V30 25 C 1.4654 -0.160113 -1.76678 0
M  V30 26 C 0.71466 -1.02356 -2.73567 0
M  V30 27 S 0.583823 -0.10439 -4.31462 0
M  V30 28 C -0.442314 1.36623 -4.07202 0
M  V30 29 C 2.63636 -0.150449 0.420563 0
M  V30 30 O 2.29501 0.175061 1.58235 0
M  V30 31 N 3.92912 0.138614 -0.0208774 0
M  V30 32 C 4.97349 0.819116 0.753084 0 CFG=1
M  V30 33 C 5.89271 -0.131125 1.37807 0
M  V30 34 C 7.06189 0.304572 2.16325 0
M  V30 35 C 8.21048 0.940067 1.47729 0
M  V30 36 N 8.7369 -0.0596317 0.52186 0
M  V30 37 C 9.834 0.315969 -0.28857 0
M  V30 38 N 11.0486 0.727381 0.303006 0
M  V30 39 N 9.68844 0.268634 -1.56535 0
M  V30 40 C 5.52656 1.964 0.0690783 0
M  V30 41 O 5.74096 3.17811 0.761583 0
M  V30 42 O 5.82914 1.93303 -1.15397 0
M  V30 43 H -5.87823 0.622531 1.36013 0
M  V30 44 H -5.54372 1.07999 3.69842 0
M  V30 45 H -4.48001 2.32282 3.36506 0
M  V30 46 H -3.82377 2.89389 1.05597 0
M  V30 47 H -4.53487 1.88432 -0.221192 0
M  V30 48 H -5.52539 4.11643 -0.160068 0
M  V30 49 H -7.22353 3.51407 2.29001 0
M  V30 50 H -5.59037 4.37695 2.43822 0
M  V30 51 H -6.87195 4.99755 1.39682 0
M  V30 52 H -7.98349 3.22858 0.115397 0
M  V30 53 H -7.2462 1.61159 0.212465 0
M  V30 54 H -6.87127 2.67997 -1.23435 0
M  V30 55 H -3.65509 -0.271567 -0.0695556 0
M  V30 56 H -1.63187 -0.665491 2.11133 0
M  V30 57 H -1.18446 -2.9676 1.40961 0
M  V30 58 H -2.86672 -2.69689 1.88905 0
M  V30 59 H -0.872648 -3.65161 -1.24632 0
M  V30 60 H -2.4765 -4.52835 -3.0612 0
M  V30 61 H -5.20412 -2.4668 1.05526 0
M  V30 62 H -7.35165 -2.99013 -0.0544644 0
M  V30 63 H -7.40444 -4.06381 -2.22048 0
M  V30 64 H -5.28621 -4.62705 -3.33734 0
M  V30 65 H 0.514992 -1.91767 1.0004 0
M  V30 66 H 2.0065 -1.8638 -0.737832 0
M  V30 67 H 2.52287 -0.011613 -2.16299 0
M  V30 68 H 0.989307 0.819686 -1.73199 0
M  V30 69 H -0.268547 -1.29606 -2.41648 0
M  V30 70 H 1.37061 -1.91331 -2.9579 0
M  V30 71 H -1.24374 1.12772 -3.3568 0
M  V30 72 H -0.875192 1.67126 -5.06241 0
M  V30 73 H 0.153111 2.23684 -3.68879 0
M  V30 74 H 4.20529 -0.142201 -0.989058 0
M  V30 75 H 4.35932 1.25535 1.62782 0
M  V30 76 H 5.36109 -0.899769 2.02421 0
M  V30 77 H 6.32106 -0.826929 0.560988 0
M  V30 78 H 7.46972 -0.518211 2.82194 0
M  V30 79 H 6.67283 1.06823 2.93956 0
M  V30 80 H 9.0093 1.08043 2.26409 0
M  V30 81 H 8.01917 1.85271 0.927286 0
M  V30 82 H 8.33459 -1.01566 0.4273 0
M  V30 83 H 11.1185 1.16485 1.23012 0
M  V30 84 H 11.9607 0.584331 -0.220784 0
M  V30 85 H 8.79421 -0.0328625 -1.9968 0
M  V30 86 H 6.45787 3.79571 0.42874 0
M  V30 END ATOM
M  V30 BEGIN BOND
M  V30 1 1 1 2
M  V30 2 1 1 3
M  V30 3 1 3 4
M  V30 4 1 4 5
M  V30 5 1 4 6
M  V30 6 1 1 7
M  V30 7 2 7 8
M  V30 8 1 7 9
M  V30 9 1 9 10
M  V30 10 1 10 11
M  V30 11 1 11 12
M  V30 12 2 12 13
M  V30 13 1 13 14
M  V30 14 1 14 15
M  V30 15 2 15 16
M  V30 16 1 16 17
M  V30 17 2 17 18
M  V30 18 1 18 19
M  V30 19 2 19 20
M  V30 20 1 10 21
M  V30 21 2 21 22
M  V30 22 1 21 23
M  V30 23 1 23 24
M  V30 24 1 24 25
M  V30 25 1 25 26
M  V30 26 1 26 27
M  V30 27 1 27 28
M  V30 28 1 24 29
M  V30 29 2 29 30
M  V30 30 1 29 31
M  V30 31 1 31 32
M  V30 32 1 32 33
M  V30 33 1 33 34
M  V30 34 1 34 35
M  V30 35 1 35 36
M  V30 36 1 36 37
M  V30 37 1 37 38
M  V30 38 2 37 39 CFG=2
M  V30 39 1 32 40
M  V30 40 1 40 41
M  V30 41 2 40 42
M  V30 42 1 16 12
M  V30 43 1 20 15
M  V30 44 1 1 43 CFG=3
M  V30 45 1 2 44
M  V30 46 1 2 45
M  V30 47 1 3 46
M  V30 48 1 3 47
M  V30 49 1 4 48
M  V30 50 1 5 49
M  V30 51 1 5 50
M  V30 52 1 5 51
M  V30 53 1 6 52
M  V30 54 1 6 53
M  V30 55 1 6 54
M  V30 56 1 9 55
M  V30 57 1 10 56 CFG=1
M  V30 58 1 11 57
M  V30 59 1 11 58
M  V30 60 1 13 59
M  V30 61 1 14 60
M  V30 62 1 17 61
M  V30 63 1 18 62
M  V30 64 1 19 63
M  V30 65 1 20 64
M  V30 66 1 23 65
M  V30 67 1 24 66 CFG=3
M  V30 68 1 25 67
M  V30 69 1 25 68
M  V30 70 1 26 69
M  V30 71 1 26 70
M  V30 72 1 28 71
M  V30 73 1 28 72
M  V30 74 1 28 73
M  V30 75 1 31 74
M  V30 76 1 32 75 CFG=1
M  V30 77 1 33 76
M  V30 78 1 33 77
M  V30 79 1 34 78
M  V30 80 1 34 79
M  V30 81 1 35 80
M  V30 82 1 35 81
M  V30 83 1 36 82
M  V30 84 1 38 83
M  V30 85 1 38 84
M  V30 86 1 39 85
M  V30 87 1 41 86
M  V30 END BOND
M  V30 END CTAB
M  END
