
     RDKit          3D

  0  0  0  0  0  0  0  0  0  0999 V3000
M  V30 BEGIN CTAB
M  V30 COUNTS 31 32 0 0 0
M  V30 BEGIN ATOM
M  V30 1 N -4.04519 1.60631 -1.38513 0
M  V30 2 C -3.23224 0.45061 -1.21307 0
M  V30 3 N -2.16981 0.443145 -0.362558 0
M  V30 4 C -1.40637 -0.655548 -0.206521 0
M  V30 5 O -0.315429 -0.701664 0.65082 0
M  V30 6 C -0.00730457 0.479875 1.39022 0
M  V30 7 C 1.19151 0.285646 2.27269 0
M  V30 8 C 2.40854 -0.064563 1.52864 0
M  V30 9 C 2.70969 -1.39683 1.28863 0
M  V30 10 C 3.85409 -1.74919 0.588023 0
M  V30 11 C 4.73005 -0.801469 0.106412 0
M  V30 12 C 4.43331 0.522984 0.343428 0
M  V30 13 C 3.29155 0.876318 1.0425 0
M  V30 14 C -1.73552 -1.77647 -0.937601 0
M  V30 15 N -2.79958 -1.77123 -1.79035 0
M  V30 16 C -3.56007 -0.672284 -1.94392 0
M  V30 17 N -4.67245 -0.655372 -2.83059 0
M  V30 18 H -4.65294 1.98967 -0.630135 0
M  V30 19 H -4.00185 2.06356 -2.32992 0
M  V30 20 H 0.0768857 1.36899 0.744274 0
M  V30 21 H -0.881484 0.661608 2.06578 0
M  V30 22 H 1.32329 1.22045 2.85526 0
M  V30 23 H 0.919199 -0.496299 3.02928 0
M  V30 24 H 2.01627 -2.13484 1.6704 0
M  V30 25 H 4.07447 -2.7888 0.409474 0
M  V30 26 H 5.62473 -1.09023 -0.441897 0
M  V30 27 H 5.1118 1.27669 -0.0287443 0
M  V30 28 H 3.03967 1.92183 1.24015 0
M  V30 29 H -1.11646 -2.6649 -0.810047 0
M  V30 30 H -4.76941 -1.30051 -3.64394 0
M  V30 31 H -5.43895 0.0327143 -2.67155 0
M  V30 END ATOM
M  V30 BEGIN BOND
M  V30 1 1 1 2
M  V30 2 2 2 3
M  V30 3 1 3 4
M  V30 4 1 4 5
M  V30 5 1 5 6
M  V30 6 1 6 7
M  V30 7 1 7 8
M  V30 8 2 8 9
M  V30 9 1 9 10
M  V30 10 2 10 11
M  V30 11 1 11 12
M  V30 12 2 12 13
M  V30 13 2 4 14
M  V30 14 1 14 15
M  V30 15 2 15 16
M  V30 16 1 16 17
M  V30 17 1 16 2
M  V30 18 1 13 8
M  V30 19 1 1 18
M  V30 20 1 1 19
M  V30 21 1 6 20
M  V30 22 1 6 21
M  V30 23 1 7 22
M  V30 24 1 7 23
M  V30 25 1 9 24
M  V30 26 1 10 25
M  V30 27 1 11 26
M  V30 28 1 12 27
M  V30 29 1 13 28
M  V30 30 1 14 29
M  V30 31 1 17 30
M  V30 32 1 17 31
M  V30 END BOND
M  V30 END CTAB
M  END
