
     RDKit          3D

  0  0  0  0  0  0  0  0  0  0999 V3000
M  V30 BEGIN CTAB
M  V30 COUNTS 34 35 0 0 0
M  V30 BEGIN ATOM
M  V30 1 O 0.926549 0.301786 -1.9452 0
M  V30 2 C 0.416101 -0.466615 -1.05927 0
M  V30 3 C -0.355485 -1.59775 -1.56122 0
M  V30 4 S -1.35389 -2.44488 -0.345745 0
M  V30 5 C -2.71289 -1.394 0.109584 0
M  V30 6 N -3.84902 -1.47764 -0.612466 0
M  V30 7 C -4.91803 -0.713331 -0.327552 0
M  V30 8 N -6.11914 -0.784698 -1.07129 0
M  V30 9 N -4.8062 0.139989 0.709939 0
M  V30 10 C -3.7087 0.263775 1.45619 0
M  V30 11 N -2.64669 -0.534598 1.12904 0
M  V30 12 N -3.60243 1.17495 2.5499 0
M  V30 13 N 0.656068 -0.140659 0.301468 0
M  V30 14 C 1.43375 1.03401 0.64622 0
M  V30 15 C 2.87619 0.814809 0.397835 0
M  V30 16 C 3.57448 1.69414 -0.39441 0
M  V30 17 C 4.91138 1.49511 -0.637143 0
M  V30 18 C 5.56148 0.418758 -0.0918964 0
M  V30 19 C 4.88798 -0.464601 0.695906 0
M  V30 20 C 3.53237 -0.264373 0.94316 0
M  V30 21 F 6.87403 0.233277 -0.340238 0
M  V30 22 H 0.269331 -2.36228 -2.08173 0
M  V30 23 H -1.0655 -1.25771 -2.37488 0
M  V30 24 H -6.12699 -0.969377 -2.09138 0
M  V30 25 H -7.02583 -0.647773 -0.584179 0
M  V30 26 H -2.6869 1.50657 2.90129 0
M  V30 27 H -4.4911 1.50033 2.99386 0
M  V30 28 H 0.309007 -0.726265 1.09475 0
M  V30 29 H 1.0827 1.92677 0.067754 0
M  V30 30 H 1.24136 1.27918 1.72665 0
M  V30 31 H 3.10146 2.55952 -0.845088 0
M  V30 32 H 5.45606 2.20882 -1.27846 0
M  V30 33 H 5.35243 -1.33459 1.15672 0
M  V30 34 H 3.00607 -0.970652 1.5659 0
M  V30 END ATOM
M  V30 BEGIN BOND
M  V30 1 2 1 2
M  V30 2 1 2 3
M  V30 3 1 3 4
M  V30 4 1 4 5
M  V30 5 2 5 6
M  V30 6 1 6 7
M  V30 7 1 7 8
M  V30 8 2 7 9
M  V30 9 1 9 10
M  V30 10 2 10 11
M  V30 11 1 10 12
M  V30 12 1 2 13
M  V30 13 1 13 14
M  V30 14 1 14 15
M  V30 15 2 15 16
M  V30 16 1 16 17
M  V30 17 2 17 18
M  V30 18 1 18 19
M  V30 19 2 19 20
M  V30 20 1 18 21
M  V30 21 1 11 5
M  V30 22 1 20 15
M  V30 23 1 3 22
M  V30 24 1 3 23
M  V30 25 1 8 24
M  V30 26 1 8 25
M  V30 27 1 12 26
M  V30 28 1 12 27
M  V30 29 1 13 28
M  V30 30 1 14 29
M  V30 31 1 14 30
M  V30 32 1 16 31
M  V30 33 1 17 32
M  V30 34 1 19 33
M  V30 35 1 20 34
M  V30 END BOND
M  V30 END CTAB
M  END
