
     RDKit          3D

  0  0  0  0  0  0  0  0  0  0999 V3000
M  V30 BEGIN CTAB
M  V30 COUNTS 26 26 0 0 0
M  V30 BEGIN ATOM
M  V30 1 O 3.61382 -0.0537917 0.421584 0
M  V30 2 C 2.96646 -0.911352 -0.453338 0
M  V30 3 C 1.57092 -0.496056 -0.777315 0
M  V30 4 C 0.638879 -0.414669 0.394456 0
M  V30 5 C -0.697806 0.0018213 -0.0957406 0
M  V30 6 C -0.990004 0.291433 -1.40763 0
M  V30 7 C -2.25385 0.676226 -1.81017 0
M  V30 8 C -3.29006 0.7904 -0.917148 0
M  V30 9 C -3.02697 0.50561 0.410291 0
M  V30 10 C -1.74613 0.116696 0.8118 0
M  V30 11 N -1.46272 -0.178106 2.16902 0
M  V30 12 N 1.12992 0.478971 1.39076 0
M  V30 13 H 3.805 0.80337 -0.00341161 0
M  V30 14 H 3.00383 -1.96132 -0.0744973 0
M  V30 15 H 3.51813 -0.951806 -1.43365 0
M  V30 16 H 1.58903 0.520118 -1.24447 0
M  V30 17 H 1.08728 -1.20543 -1.50721 0
M  V30 18 H 0.587458 -1.451 0.84959 0
M  V30 19 H -0.188055 0.213481 -2.15713 0
M  V30 20 H -2.43391 0.891394 -2.84184 0
M  V30 21 H -4.29329 1.08811 -1.18972 0
M  V30 22 H -3.81875 0.580557 1.16738 0
M  V30 23 H -1.32487 0.586309 2.83123 0
M  V30 24 H -1.3982 -1.16535 2.47577 0
M  V30 25 H 1.63799 1.27092 0.96456 0
M  V30 26 H 1.7759 -0.0265374 2.02684 0
M  V30 END ATOM
M  V30 BEGIN BOND
M  V30 1 1 1 2
M  V30 2 1 2 3
M  V30 3 1 3 4
M  V30 4 1 4 5
M  V30 5 2 5 6
M  V30 6 1 6 7
M  V30 7 2 7 8
M  V30 8 1 8 9
M  V30 9 2 9 10
M  V30 10 1 10 11
M  V30 11 1 4 12
M  V30 12 1 10 5
M  V30 13 1 1 13
M  V30 14 1 2 14
M  V30 15 1 2 15
M  V30 16 1 3 16
M  V30 17 1 3 17
M  V30 18 1 4 18
M  V30 19 1 6 19
M  V30 20 1 7 20
M  V30 21 1 8 21
M  V30 22 1 9 22
M  V30 23 1 11 23
M  V30 24 1 11 24
M  V30 25 1 12 25
M  V30 26 1 12 26
M  V30 END BOND
M  V30 END CTAB
M  END
