
     RDKit          3D

  0  0  0  0  0  0  0  0  0  0999 V3000
M  V30 BEGIN CTAB
M  V30 COUNTS 33 35 0 0 0
M  V30 BEGIN ATOM
M  V30 1 N -3.46363 1.23865 -1.3048 0
M  V30 2 C -2.60593 1.07024 -0.232018 0 CFG=1
M  V30 3 C -2.4227 -0.358018 0.169497 0 CFG=1
M  V30 4 C -3.13843 -1.31684 -0.779176 0
M  V30 5 O -2.82691 -2.61814 -0.349131 0
M  V30 6 O -1.05532 -0.649775 0.0493044 0
M  V30 7 C -0.381624 0.546288 0.282418 0 CFG=2
M  V30 8 C -1.18785 1.52119 -0.536085 0 CFG=2
M  V30 9 O -0.953884 2.82696 -0.177447 0
M  V30 10 N 0.972798 0.430825 -0.186317 0
M  V30 11 C 1.52302 0.929477 -1.28147 0
M  V30 12 N 2.81713 0.574392 -1.32342 0
M  V30 13 C 3.07962 -0.157978 -0.23683 0
M  V30 14 C 1.92837 -0.249138 0.475524 0
M  V30 15 N 1.91648 -0.951755 1.6465 0
M  V30 16 C 3.04655 -1.53776 2.06746 0
M  V30 17 N 4.18346 -1.44401 1.35781 0
M  V30 18 C 4.25642 -0.769907 0.204342 0
M  V30 19 N 5.45552 -0.664303 -0.555292 0
M  V30 20 H -4.4146 1.14633 -1.10883 0
M  V30 21 H -3.09591 1.10295 -2.19195 0
M  V30 22 H -2.95087 1.70319 0.636069 0
M  V30 23 H -2.68872 -0.545715 1.22558 0
M  V30 24 H -4.2173 -1.10359 -0.671681 0
M  V30 25 H -2.75095 -1.11245 -1.78756 0
M  V30 26 H -3.65786 -3.15586 -0.403502 0
M  V30 27 H -0.463638 0.776808 1.35109 0
M  V30 28 H -1.0241 1.36256 -1.61549 0
M  V30 29 H -1.66019 3.23242 0.367247 0
M  V30 30 H 1.01519 1.54072 -2.04759 0
M  V30 31 H 3.01351 -2.09467 3.00711 0
M  V30 32 H 6.24571 -1.28787 -0.304408 0
M  V30 33 H 5.50664 0.0147709 -1.319 0
M  V30 END ATOM
M  V30 BEGIN BOND
M  V30 1 1 1 2
M  V30 2 1 2 3
M  V30 3 1 3 4
M  V30 4 1 4 5
M  V30 5 1 3 6
M  V30 6 1 6 7
M  V30 7 1 7 8
M  V30 8 1 8 9
M  V30 9 1 7 10
M  V30 10 1 10 11
M  V30 11 2 11 12
M  V30 12 1 12 13
M  V30 13 2 13 14
M  V30 14 1 14 15
M  V30 15 2 15 16
M  V30 16 1 16 17
M  V30 17 2 17 18
M  V30 18 1 18 19
M  V30 19 1 8 2
M  V30 20 1 14 10
M  V30 21 1 18 13
M  V30 22 1 1 20
M  V30 23 1 1 21
M  V30 24 1 2 22 CFG=1
M  V30 25 1 3 23 CFG=1
M  V30 26 1 4 24
M  V30 27 1 4 25
M  V30 28 1 5 26
M  V30 29 1 7 27 CFG=1
M  V30 30 1 8 28 CFG=3
M  V30 31 1 9 29
M  V30 32 1 11 30
M  V30 33 1 16 31
M  V30 34 1 19 32
M  V30 35 1 19 33
M  V30 END BOND
M  V30 END CTAB
M  END
