
     RDKit          3D

  0  0  0  0  0  0  0  0  0  0999 V3000
M  V30 BEGIN CTAB
M  V30 COUNTS 20 20 0 0 0
M  V30 BEGIN ATOM
M  V30 1 C 3.57503 0.636731 -0.0689236 0
M  V30 2 S 2.76591 -0.984 0.0409732 0
M  V30 3 C 0.998445 -0.791762 0.0429771 0
M  V30 4 C 0.455679 0.473784 -0.0333799 0
M  V30 5 C -0.925881 0.636988 -0.0326297 0
M  V30 6 N -1.49797 1.92768 -0.110382 0
M  V30 7 C -1.75801 -0.463333 0.0443025 0
M  V30 8 C -1.1657 -1.70335 0.118633 0
M  V30 9 C 0.189069 -1.898 0.120101 0
M  V30 10 Cl 0.941932 -3.47708 0.214765 0
M  V30 11 N -3.19234 -0.319593 0.0467109 0
M  V30 12 H 3.39892 1.24823 0.853776 0
M  V30 13 H 3.16433 1.20601 -0.924354 0
M  V30 14 H 4.66464 0.454357 -0.21757 0
M  V30 15 H 1.06122 1.36288 -0.0949846 0
M  V30 16 H -1.22756 2.56651 -0.891332 0
M  V30 17 H -2.17928 2.24102 0.598241 0
M  V30 18 H -1.79696 -2.56974 0.178992 0
M  V30 19 H -3.67385 0.314857 -0.600173 0
M  V30 20 H -3.7976 -0.862183 0.714258 0
M  V30 END ATOM
M  V30 BEGIN BOND
M  V30 1 1 1 2
M  V30 2 1 2 3
M  V30 3 2 3 4
M  V30 4 1 4 5
M  V30 5 1 5 6
M  V30 6 2 5 7
M  V30 7 1 7 8
M  V30 8 2 8 9
M  V30 9 1 9 10
M  V30 10 1 7 11
M  V30 11 1 9 3
M  V30 12 1 1 12
M  V30 13 1 1 13
M  V30 14 1 1 14
M  V30 15 1 4 15
M  V30 16 1 6 16
M  V30 17 1 6 17
M  V30 18 1 8 18
M  V30 19 1 11 19
M  V30 20 1 11 20
M  V30 END BOND
M  V30 END CTAB
M  END
