
     RDKit          3D

  0  0  0  0  0  0  0  0  0  0999 V3000
M  V30 BEGIN CTAB
M  V30 COUNTS 54 57 0 0 0
M  V30 BEGIN ATOM
M  V30 1 C -1.64274 -0.917618 0.667153 0 CFG=2
M  V30 2 C -2.42693 -2.16391 0.626104 0
M  V30 3 C -3.77662 -1.72055 0.0828293 0
M  V30 4 C -3.6602 -0.208685 -0.142867 0 CFG=1
M  V30 5 O -3.8003 0.432521 1.08201 0
M  V30 6 S -4.95852 1.61292 1.09217 0
M  V30 7 N -5.52529 2.05124 -0.457058 0
M  V30 8 O -4.33614 2.85733 1.71032 0
M  V30 9 O -6.12704 1.26388 1.99093 0
M  V30 10 C -2.19519 -0.142605 -0.51419 0 CFG=2
M  V30 11 C -2.01207 -0.907214 -1.80617 0
M  V30 12 C -1.61192 1.21325 -0.528725 0
M  V30 13 C -0.650937 1.48669 0.605401 0
M  V30 14 C 0.31879 0.415958 0.876184 0 CFG=2
M  V30 15 C 1.63626 0.514325 0.205402 0
M  V30 16 C 2.47879 -0.562958 0.487292 0
M  V30 17 C 2.03867 -1.64835 1.36673 0
M  V30 18 C 0.568111 -1.97122 1.2584 0
M  V30 19 C -0.206049 -0.976738 0.495439 0 CFG=1
M  V30 20 C 3.7332 -0.576856 -0.084651 0
M  V30 21 C 4.15864 0.434433 -0.912311 0
M  V30 22 O 5.40191 0.396528 -1.46411 0
M  V30 23 S 6.79958 1.04248 -0.783159 0
M  V30 24 N 7.21502 0.333725 0.719431 0
M  V30 25 O 6.70995 2.52896 -0.58575 0
M  V30 26 O 7.94581 0.786381 -1.73599 0
M  V30 27 C 3.30095 1.47336 -1.16333 0
M  V30 28 C 2.02999 1.52452 -0.606965 0
M  V30 29 H -1.92085 -0.352072 1.56201 0
M  V30 30 H -2.63238 -2.49195 1.68698 0
M  V30 31 H -1.99966 -3.00227 0.0918186 0
M  V30 32 H -4.61042 -1.97795 0.73468 0
M  V30 33 H -3.86914 -2.16 -0.94053 0
M  V30 34 H -4.32579 0.150823 -0.919975 0
M  V30 35 H -4.78206 2.52356 -0.996562 0
M  V30 36 H -6.01796 1.29255 -0.937073 0
M  V30 37 H -1.15495 -0.478491 -2.36723 0
M  V30 38 H -2.92596 -0.847757 -2.44272 0
M  V30 39 H -1.8047 -1.97422 -1.65942 0
M  V30 40 H -2.37237 2.00878 -0.543638 0
M  V30 41 H -1.02122 1.33466 -1.47254 0
M  V30 42 H -0.21791 2.48328 0.472605 0
M  V30 43 H -1.30767 1.58927 1.52278 0
M  V30 44 H 0.538116 0.339237 1.97734 0
M  V30 45 H 2.66973 -2.55345 1.19724 0
M  V30 46 H 2.21985 -1.33633 2.41676 0
M  V30 47 H 0.501808 -2.96318 0.728504 0
M  V30 48 H 0.100926 -2.11249 2.25765 0
M  V30 49 H 0.0403624 -1.1067 -0.595332 0
M  V30 50 H 4.42012 -1.41087 0.117543 0
M  V30 51 H 6.48532 0.406318 1.44306 0
M  V30 52 H 7.67508 -0.584585 0.6376 0
M  V30 53 H 3.5586 2.31398 -1.80688 0
M  V30 54 H 1.34741 2.33805 -0.799538 0
M  V30 END ATOM
M  V30 BEGIN BOND
M  V30 1 1 1 2
M  V30 2 1 2 3
M  V30 3 1 3 4
M  V30 4 1 4 5
M  V30 5 1 5 6
M  V30 6 1 6 7
M  V30 7 2 6 8
M  V30 8 2 6 9
M  V30 9 1 4 10
M  V30 10 1 10 11 CFG=3
M  V30 11 1 10 12
M  V30 12 1 12 13
M  V30 13 1 13 14
M  V30 14 1 14 15
M  V30 15 2 15 16
M  V30 16 1 16 17
M  V30 17 1 17 18
M  V30 18 1 18 19
M  V30 19 1 16 20
M  V30 20 2 20 21
M  V30 21 1 21 22
M  V30 22 1 22 23
M  V30 23 1 23 24
M  V30 24 2 23 25
M  V30 25 2 23 26
M  V30 26 1 21 27
M  V30 27 2 27 28
M  V30 28 1 10 1
M  V30 29 1 19 14
M  V30 30 1 19 1
M  V30 31 1 28 15
M  V30 32 1 1 29 CFG=1
M  V30 33 1 2 30
M  V30 34 1 2 31
M  V30 35 1 3 32
M  V30 36 1 3 33
M  V30 37 1 4 34 CFG=3
M  V30 38 1 7 35
M  V30 39 1 7 36
M  V30 40 1 11 37
M  V30 41 1 11 38
M  V30 42 1 11 39
M  V30 43 1 12 40
M  V30 44 1 12 41
M  V30 45 1 13 42
M  V30 46 1 13 43
M  V30 47 1 14 44 CFG=1
M  V30 48 1 17 45
M  V30 49 1 17 46
M  V30 50 1 18 47
M  V30 51 1 18 48
M  V30 52 1 19 49 CFG=3
M  V30 53 1 20 50
M  V30 54 1 24 51
M  V30 55 1 24 52
M  V30 56 1 27 53
M  V30 57 1 28 54
M  V30 END BOND
M  V30 END CTAB
M  END
