
     RDKit          3D

  0  0  0  0  0  0  0  0  0  0999 V3000
M  V30 BEGIN CTAB
M  V30 COUNTS 53 56 0 0 0
M  V30 BEGIN ATOM
M  V30 1 N -6.12309 -0.750403 -1.82213 0
M  V30 2 C -6.69246 -0.99721 -0.520892 0 CFG=1
M  V30 3 C -6.49564 0.255798 0.334381 0
M  V30 4 C -5.0349 0.471735 0.407916 0
M  V30 5 C -4.23922 -0.0670653 1.39085 0
M  V30 6 C -2.86226 0.160221 1.42354 0
M  V30 7 C -2.27234 0.935871 0.461737 0
M  V30 8 C -3.09182 1.47734 -0.531275 0
M  V30 9 C -4.45247 1.26296 -0.578051 0
M  V30 10 C -0.846441 1.21694 0.434687 0
M  V30 11 N -0.306895 1.98572 -0.53883 0
M  V30 12 C 1.00647 2.26961 -0.595027 0
M  V30 13 N 1.48286 3.083 -1.64966 0
M  V30 14 N 1.84768 1.78206 0.344416 0
M  V30 15 C 1.39621 1.00861 1.34877 0
M  V30 16 S 2.47443 0.350929 2.60993 0
M  V30 17 C 3.10128 -1.26666 2.09095 0
M  V30 18 C 3.99144 -1.11657 0.914359 0
M  V30 19 C 5.35168 -0.910245 1.11076 0
M  V30 20 C 6.20713 -0.771738 0.0231808 0
M  V30 21 C 5.74046 -0.833816 -1.27286 0
M  V30 22 C 6.60293 -0.695105 -2.34094 0
M  V30 23 C 7.9474 -0.492265 -2.07606 0
M  V30 24 C 8.45053 -0.424523 -0.797913 0
M  V30 25 C 7.55593 -0.567915 0.238231 0
M  V30 26 C 4.38512 -1.03931 -1.4708 0
M  V30 27 C 3.5243 -1.17858 -0.381086 0
M  V30 28 C 0.0241723 0.729763 1.38144 0
M  V30 29 C -8.15572 -1.21489 -0.59715 0
M  V30 30 O -8.8865 -1.47324 0.536474 0
M  V30 31 O -8.70079 -1.15494 -1.73183 0
M  V30 32 H -5.84682 -1.54923 -2.34266 0
M  V30 33 H -6.5324 0.041282 -2.28568 0
M  V30 34 H -6.15152 -1.81761 -0.043507 0
M  V30 35 H -6.85033 0.0305192 1.36692 0
M  V30 36 H -7.04709 1.12204 -0.0827909 0
M  V30 37 H -4.66627 -0.680384 2.16114 0
M  V30 38 H -2.25108 -0.26903 2.2009 0
M  V30 39 H -2.59905 2.09804 -1.29708 0
M  V30 40 H -5.05406 1.70085 -1.36404 0
M  V30 41 H 2.23199 2.72247 -2.27016 0
M  V30 42 H 1.11036 4.03459 -1.83016 0
M  V30 43 H 2.23444 -1.87156 1.75447 0
M  V30 44 H 3.6558 -1.77087 2.89212 0
M  V30 45 H 5.71211 -0.862153 2.11565 0
M  V30 46 H 6.24934 -0.741816 -3.37427 0
M  V30 47 H 8.63612 -0.381995 -2.91362 0
M  V30 48 H 9.49728 -0.266587 -0.565114 0
M  V30 49 H 7.88475 -0.525109 1.25917 0
M  V30 50 H 4.00337 -1.0904 -2.48073 0
M  V30 51 H 2.46193 -1.33984 -0.522304 0
M  V30 52 H -0.293072 0.105584 2.20427 0
M  V30 53 H -9.31528 -0.724872 1.09196 0
M  V30 END ATOM
M  V30 BEGIN BOND
M  V30 1 1 1 2
M  V30 2 1 2 3
M  V30 3 1 3 4
M  V30 4 2 4 5
M  V30 5 1 5 6
M  V30 6 2 6 7
M  V30 7 1 7 8
M  V30 8 2 8 9
M  V30 9 1 7 10
M  V30 10 2 10 11
M  V30 11 1 11 12
M  V30 12 1 12 13
M  V30 13 2 12 14
M  V30 14 1 14 15
M  V30 15 1 15 16
M  V30 16 1 16 17
M  V30 17 1 17 18
M  V30 18 2 18 19
M  V30 19 1 19 20
M  V30 20 2 20 21
M  V30 21 1 21 22
M  V30 22 2 22 23
M  V30 23 1 23 24
M  V30 24 2 24 25
M  V30 25 1 21 26
M  V30 26 2 26 27
M  V30 27 2 15 28
M  V30 28 1 2 29
M  V30 29 1 29 30
M  V30 30 2 29 31
M  V30 31 1 9 4
M  V30 32 1 28 10
M  V30 33 1 27 18
M  V30 34 1 25 20
M  V30 35 1 1 32
M  V30 36 1 1 33
M  V30 37 1 2 34 CFG=1
M  V30 38 1 3 35
M  V30 39 1 3 36
M  V30 40 1 5 37
M  V30 41 1 6 38
M  V30 42 1 8 39
M  V30 43 1 9 40
M  V30 44 1 13 41
M  V30 45 1 13 42
M  V30 46 1 17 43
M  V30 47 1 17 44
M  V30 48 1 19 45
M  V30 49 1 22 46
M  V30 50 1 23 47
M  V30 51 1 24 48
M  V30 52 1 25 49
M  V30 53 1 26 50
M  V30 54 1 27 51
M  V30 55 1 28 52
M  V30 56 1 30 53
M  V30 END BOND
M  V30 END CTAB
M  END
