
     RDKit          3D

  0  0  0  0  0  0  0  0  0  0999 V3000
M  V30 BEGIN CTAB
M  V30 COUNTS 35 35 0 0 0
M  V30 BEGIN ATOM
M  V30 1 N 4.26605 -0.796096 -0.336148 0
M  V30 2 C 3.01292 -0.839865 -1.06911 0
M  V30 3 C 1.99101 -0.110781 -0.247414 0
M  V30 4 C 1.76026 -0.694198 1.10795 0
M  V30 5 C 0.334171 -0.249273 1.43892 0
M  V30 6 C -0.190705 0.422599 0.217813 0
M  V30 7 C 0.585383 -0.241468 -0.867632 0
M  V30 8 O 0.306729 1.75326 0.26567 0
M  V30 9 C -1.65028 0.488627 0.0926235 0
M  V30 10 C -2.4093 -0.795756 0.058497 0
M  V30 11 N -2.09205 -1.68786 -1.00866 0
M  V30 12 C -2.11114 1.31233 -1.09041 0
M  V30 13 C -2.16906 1.24847 1.32753 0
M  V30 14 H 4.88402 -0.0284585 -0.666524 0
M  V30 15 H 4.11633 -0.619386 0.688685 0
M  V30 16 H 2.70778 -1.84414 -1.36813 0
M  V30 17 H 3.17682 -0.223909 -1.99276 0
M  V30 18 H 2.19946 0.967287 -0.185227 0
M  V30 19 H 2.47806 -0.326705 1.86837 0
M  V30 20 H 1.81175 -1.8072 1.00755 0
M  V30 21 H -0.20577 -1.13723 1.7601 0
M  V30 22 H 0.413253 0.487418 2.2643 0
M  V30 23 H 0.441226 -1.31088 -0.996855 0
M  V30 24 H 0.630898 0.333213 -1.80705 0
M  V30 25 H 0.183368 2.10478 -0.658856 0
M  V30 26 H -2.41254 -1.33654 1.02444 0
M  V30 27 H -3.49405 -0.503873 -0.0913254 0
M  V30 28 H -1.89365 -1.19034 -1.89643 0
M  V30 29 H -2.93546 -2.29888 -1.21335 0
M  V30 30 H -3.0513 0.907105 -1.53869 0
M  V30 31 H -2.34101 2.36321 -0.816225 0
M  V30 32 H -1.37237 1.34539 -1.90656 0
M  V30 33 H -1.41228 1.92126 1.73741 0
M  V30 34 H -2.49923 0.528873 2.10518 0
M  V30 35 H -3.0593 1.85902 1.06823 0
M  V30 END ATOM
M  V30 BEGIN BOND
M  V30 1 1 1 2
M  V30 2 1 2 3
M  V30 3 1 3 4
M  V30 4 1 4 5
M  V30 5 1 5 6
M  V30 6 1 6 7
M  V30 7 1 6 8
M  V30 8 1 6 9
M  V30 9 1 9 10
M  V30 10 1 10 11
M  V30 11 1 9 12
M  V30 12 1 9 13
M  V30 13 1 7 3
M  V30 14 1 1 14
M  V30 15 1 1 15
M  V30 16 1 2 16
M  V30 17 1 2 17
M  V30 18 1 3 18
M  V30 19 1 4 19
M  V30 20 1 4 20
M  V30 21 1 5 21
M  V30 22 1 5 22
M  V30 23 1 7 23
M  V30 24 1 7 24
M  V30 25 1 8 25
M  V30 26 1 10 26
M  V30 27 1 10 27
M  V30 28 1 11 28
M  V30 29 1 11 29
M  V30 30 1 12 30
M  V30 31 1 12 31
M  V30 32 1 12 32
M  V30 33 1 13 33
M  V30 34 1 13 34
M  V30 35 1 13 35
M  V30 END BOND
M  V30 END CTAB
M  END
