
     RDKit          3D

  0  0  0  0  0  0  0  0  0  0999 V3000
M  V30 BEGIN CTAB
M  V30 COUNTS 19 19 0 0 0
M  V30 BEGIN ATOM
M  V30 1 O -3.78883 0.275138 -0.516263 0
M  V30 2 C -2.80148 -0.610033 -0.114586 0
M  V30 3 O -3.15254 -1.7608 0.248697 0
M  V30 4 C -1.3854 -0.223893 -0.110267 0
M  V30 5 C -0.420889 -1.11817 0.292376 0
M  V30 6 C 0.911292 -0.727422 0.286938 0
M  V30 7 N 1.94302 -1.62708 0.697965 0
M  V30 8 C 1.32018 0.531397 -0.108091 0
M  V30 9 C 0.337092 1.41202 -0.507827 0
M  V30 10 C -0.991698 1.03562 -0.507016 0
M  V30 11 Br 0.855397 3.17058 -1.06479 0
M  V30 12 N 2.69512 0.919466 -0.108452 0
M  V30 13 H -4.21996 0.915802 0.127513 0
M  V30 14 H -0.661565 -2.13249 0.619325 0
M  V30 15 H 2.68601 -1.98754 0.0725757 0
M  V30 16 H 1.957 -1.94545 1.68505 0
M  V30 17 H -1.72123 1.75836 -0.827575 0
M  V30 18 H 3.16619 1.36834 -0.911632 0
M  V30 19 H 3.27229 0.746157 0.746058 0
M  V30 END ATOM
M  V30 BEGIN BOND
M  V30 1 1 1 2
M  V30 2 2 2 3
M  V30 3 1 2 4
M  V30 4 2 4 5
M  V30 5 1 5 6
M  V30 6 1 6 7
M  V30 7 2 6 8
M  V30 8 1 8 9
M  V30 9 2 9 10
M  V30 10 1 9 11
M  V30 11 1 8 12
M  V30 12 1 10 4
M  V30 13 1 1 13
M  V30 14 1 5 14
M  V30 15 1 7 15
M  V30 16 1 7 16
M  V30 17 1 10 17
M  V30 18 1 12 18
M  V30 19 1 12 19
M  V30 END BOND
M  V30 END CTAB
M  END
