
     RDKit          3D

  0  0  0  0  0  0  0  0  0  0999 V3000
M  V30 BEGIN CTAB
M  V30 COUNTS 55 59 0 0 0
M  V30 BEGIN ATOM
M  V30 1 C -6.25581 1.69458 -0.184699 0
M  V30 2 O -5.16502 0.854965 0.0801169 0
M  V30 3 C -5.33036 -0.413086 0.648703 0
M  V30 4 C -6.58025 -0.8506 0.955858 0
M  V30 5 C -6.77708 -2.08569 1.51299 0
M  V30 6 C -5.69361 -2.89335 1.76454 0
M  V30 7 C -4.41257 -2.46327 1.45773 0
M  V30 8 C -4.21081 -1.22944 0.900689 0
M  V30 9 N -2.9341 -0.730623 0.564284 0
M  V30 10 C -1.68696 -1.31168 0.701697 0
M  V30 11 O -1.57862 -2.4774 1.20014 0
M  V30 12 C -0.420041 -0.693812 0.314261 0
M  V30 13 C 0.849573 -1.23689 0.432979 0
M  V30 14 N 1.08474 -2.53712 0.978269 0
M  V30 15 N 1.76334 -0.375502 -0.0278226 0
M  V30 16 C 1.11042 0.715139 -0.442795 0
M  V30 17 C -0.271448 0.553281 -0.243563 0
M  V30 18 N -1.05871 1.57718 -0.616919 0
M  V30 19 C -0.636553 2.72573 -1.15722 0
M  V30 20 C -1.48203 3.75078 -1.52566 0
M  V30 21 C -1.01007 4.92888 -2.08349 0
M  V30 22 C 0.349892 5.06968 -2.27149 0
M  V30 23 C 1.18956 4.03987 -1.90044 0
M  V30 24 C 0.735448 2.85946 -1.34326 0
M  V30 25 N 1.54889 1.86176 -0.983775 0
M  V30 26 C 3.15201 -0.623288 -0.0490252 0
M  V30 27 C 3.64757 -1.79919 -0.625277 0
M  V30 28 C 5.00192 -2.05532 -0.653559 0
M  V30 29 C 5.91456 -1.17709 -0.1231 0
M  V30 30 C 5.43658 -0.00384206 0.453142 0
M  V30 31 C 4.07245 0.263009 0.48626 0
M  V30 32 S 7.61591 -1.53272 -0.176354 0
M  V30 33 O 8.46051 -0.300325 -0.306175 0
M  V30 34 O 7.86434 -2.36527 -1.40587 0
M  V30 35 N 8.11449 -2.39656 1.21302 0
M  V30 36 H -5.85358 2.61574 -0.664916 0
M  V30 37 H -7.00295 1.24881 -0.873238 0
M  V30 38 H -6.7594 2.00981 0.750167 0
M  V30 39 H -7.46323 -0.222683 0.764075 0
M  V30 40 H -7.75814 -2.46199 1.76843 0
M  V30 41 H -5.81132 -3.8862 2.20864 0
M  V30 42 H -3.6059 -3.15794 1.68574 0
M  V30 43 H -2.9375 0.248337 0.137566 0
M  V30 44 H 0.730831 -3.40636 0.558367 0
M  V30 45 H 1.65609 -2.62938 1.86825 0
M  V30 46 H -2.54955 3.64215 -1.3789 0
M  V30 47 H -1.6966 5.71774 -2.36369 0
M  V30 48 H 0.725471 5.98778 -2.70694 0
M  V30 49 H 2.24749 4.15204 -2.04783 0
M  V30 50 H 2.97662 -2.53114 -1.06039 0
M  V30 51 H 5.35893 -2.96979 -1.10392 0
M  V30 52 H 6.10952 0.723767 0.886132 0
M  V30 53 H 3.73891 1.1845 0.942117 0
M  V30 54 H 8.06062 -3.43551 1.10142 0
M  V30 55 H 7.42555 -2.17196 1.98471 0
M  V30 END ATOM
M  V30 BEGIN BOND
M  V30 1 1 1 2
M  V30 2 1 2 3
M  V30 3 2 3 4
M  V30 4 1 4 5
M  V30 5 2 5 6
M  V30 6 1 6 7
M  V30 7 2 7 8
M  V30 8 1 8 9
M  V30 9 1 9 10
M  V30 10 2 10 11
M  V30 11 1 10 12
M  V30 12 2 12 13
M  V30 13 1 13 14
M  V30 14 1 13 15
M  V30 15 1 15 16
M  V30 16 2 16 17
M  V30 17 1 17 18
M  V30 18 2 18 19
M  V30 19 1 19 20
M  V30 20 2 20 21
M  V30 21 1 21 22
M  V30 22 2 22 23
M  V30 23 1 23 24
M  V30 24 2 24 25
M  V30 25 1 15 26
M  V30 26 2 26 27
M  V30 27 1 27 28
M  V30 28 2 28 29
M  V30 29 1 29 30
M  V30 30 2 30 31
M  V30 31 1 29 32
M  V30 32 2 32 33
M  V30 33 2 32 34
M  V30 34 1 32 35
M  V30 35 1 8 3
M  V30 36 1 17 12
M  V30 37 1 24 19
M  V30 38 1 31 26
M  V30 39 1 25 16
M  V30 40 1 1 36
M  V30 41 1 1 37
M  V30 42 1 1 38
M  V30 43 1 4 39
M  V30 44 1 5 40
M  V30 45 1 6 41
M  V30 46 1 7 42
M  V30 47 1 9 43
M  V30 48 1 14 44
M  V30 49 1 14 45
M  V30 50 1 20 46
M  V30 51 1 21 47
M  V30 52 1 22 48
M  V30 53 1 23 49
M  V30 54 1 27 50
M  V30 55 1 28 51
M  V30 56 1 30 52
M  V30 57 1 31 53
M  V30 58 1 35 54
M  V30 59 1 35 55
M  V30 END BOND
M  V30 END CTAB
M  END
