
     RDKit          3D

  0  0  0  0  0  0  0  0  0  0999 V3000
M  V30 BEGIN CTAB
M  V30 COUNTS 29 30 0 0 0
M  V30 BEGIN ATOM
M  V30 1 C -2.60094 1.7102 0.995543 0
M  V30 2 C -1.34586 0.885912 0.666279 0
M  V30 3 C -1.35795 0.465405 -0.75844 0
M  V30 4 O -2.49295 -0.305319 -0.978059 0
M  V30 5 C -2.18823 -1.62247 -0.766923 0
M  V30 6 C -0.692206 -1.73298 -0.520224 0
M  V30 7 C -0.257273 -0.470409 -1.18014 0
M  V30 8 C 1.09717 -0.0352503 -0.96679 0
M  V30 9 N 1.85289 0.54182 -1.9512 0
M  V30 10 N 3.04799 0.831926 -1.5036 0
M  V30 11 C 3.11979 0.460783 -0.226022 0
M  V30 12 N 1.92678 -0.0649871 0.0867327 0
M  V30 13 N 1.62322 -0.570978 1.32924 0
M  V30 14 N 4.2571 0.619119 0.579475 0
M  V30 15 H -2.93206 2.2599 0.104617 0
M  V30 16 H -3.38252 1.02862 1.41254 0
M  V30 17 H -2.39165 2.45513 1.79095 0
M  V30 18 H -0.51059 1.53097 0.960774 0
M  V30 19 H -1.35118 0.0101408 1.34618 0
M  V30 20 H -1.35646 1.33116 -1.44729 0
M  V30 21 H -2.77093 -2.0944 0.0534202 0
M  V30 22 H -2.36661 -2.16649 -1.7397 0
M  V30 23 H -0.266077 -2.6459 -0.983409 0
M  V30 24 H -0.574376 -1.71586 0.576938 0
M  V30 25 H -0.459785 -0.61446 -2.29468 0
M  V30 26 H 1.38482 0.101529 2.09225 0
M  V30 27 H 1.61899 -1.56948 1.54374 0
M  V30 28 H 4.33823 1.44342 1.21108 0
M  V30 29 H 5.03066 -0.0670477 0.566718 0
M  V30 END ATOM
M  V30 BEGIN BOND
M  V30 1 1 1 2
M  V30 2 1 2 3
M  V30 3 1 3 4
M  V30 4 1 4 5
M  V30 5 1 5 6
M  V30 6 1 6 7
M  V30 7 1 7 8
M  V30 8 2 8 9
M  V30 9 1 9 10
M  V30 10 2 10 11
M  V30 11 1 11 12
M  V30 12 1 12 13
M  V30 13 1 11 14
M  V30 14 1 7 3
M  V30 15 1 12 8
M  V30 16 1 1 15
M  V30 17 1 1 16
M  V30 18 1 1 17
M  V30 19 1 2 18
M  V30 20 1 2 19
M  V30 21 1 3 20
M  V30 22 1 5 21
M  V30 23 1 5 22
M  V30 24 1 6 23
M  V30 25 1 6 24
M  V30 26 1 7 25
M  V30 27 1 13 26
M  V30 28 1 13 27
M  V30 29 1 14 28
M  V30 30 1 14 29
M  V30 END BOND
M  V30 END CTAB
M  END
