
     RDKit          3D

  0  0  0  0  0  0  0  0  0  0999 V3000
M  V30 BEGIN CTAB
M  V30 COUNTS 44 46 0 0 0
M  V30 BEGIN ATOM
M  V30 1 C -2.90286 1.6631 -0.143953 0
M  V30 2 C -3.15659 0.152678 0.0195094 0
M  V30 3 C -3.71931 -0.289328 -1.31889 0
M  V30 4 N -4.10269 0.0326797 1.0794 0
M  V30 5 C -3.87682 -0.602263 2.16264 0
M  V30 6 N -4.86408 -0.691807 3.19677 0
M  V30 7 N -2.63867 -1.26386 2.42428 0
M  V30 8 C -1.72571 -1.21284 1.5322 0
M  V30 9 N -0.455103 -1.87196 1.76077 0
M  V30 10 N -1.94313 -0.519803 0.324889 0
M  V30 11 C -0.832051 -0.535384 -0.603726 0
M  V30 12 C -0.806411 -1.57062 -1.50475 0
M  V30 13 C 0.245715 -1.63632 -2.42751 0
M  V30 14 C 1.24898 -0.661688 -2.42578 0
M  V30 15 C 1.2095 0.36794 -1.51812 0
M  V30 16 C 2.28134 1.38945 -1.53315 0
M  V30 17 C 3.41289 1.0617 -0.678719 0
M  V30 18 C 4.48371 0.346501 -1.15507 0
M  V30 19 C 5.5457 0.0584934 -0.291205 0
M  V30 20 C 5.54362 0.472379 1.01806 0
M  V30 21 C 4.47486 1.18357 1.48513 0
M  V30 22 C 3.41741 1.47292 0.633118 0
M  V30 23 C 0.159171 0.409337 -0.617496 0
M  V30 24 H -2.52317 2.00143 0.854785 0
M  V30 25 H -2.13656 1.86654 -0.891496 0
M  V30 26 H -3.88349 2.11978 -0.363271 0
M  V30 27 H -3.15181 0.208258 -2.13249 0
M  V30 28 H -4.76529 0.11377 -1.38827 0
M  V30 29 H -3.7281 -1.37459 -1.44986 0
M  V30 30 H -5.71292 -1.29171 3.10257 0
M  V30 31 H -4.77628 -0.160017 4.08985 0
M  V30 32 H 0.394143 -1.27972 1.65375 0
M  V30 33 H -0.380771 -2.8636 2.01387 0
M  V30 34 H -1.54206 -2.35934 -1.56898 0
M  V30 35 H 0.29535 -2.43727 -3.14918 0
M  V30 36 H 2.0729 -0.695309 -3.13325 0
M  V30 37 H 1.79324 2.34872 -1.19468 0
M  V30 38 H 2.55042 1.55374 -2.59729 0
M  V30 39 H 4.53292 -0.000969822 -2.1748 0
M  V30 40 H 6.39994 -0.506748 -0.654391 0
M  V30 41 H 6.36561 0.239243 1.65429 0
M  V30 42 H 4.47381 1.50816 2.5129 0
M  V30 43 H 2.60347 2.03903 1.06649 0
M  V30 44 H 0.119171 1.21572 0.10085 0
M  V30 END ATOM
M  V30 BEGIN BOND
M  V30 1 1 1 2
M  V30 2 1 2 3
M  V30 3 1 2 4
M  V30 4 2 4 5
M  V30 5 1 5 6
M  V30 6 1 5 7
M  V30 7 2 7 8
M  V30 8 1 8 9
M  V30 9 1 8 10
M  V30 10 1 10 11
M  V30 11 2 11 12
M  V30 12 1 12 13
M  V30 13 2 13 14
M  V30 14 1 14 15
M  V30 15 1 15 16
M  V30 16 1 16 17
M  V30 17 2 17 18
M  V30 18 1 18 19
M  V30 19 2 19 20
M  V30 20 1 20 21
M  V30 21 2 21 22
M  V30 22 2 15 23
M  V30 23 1 10 2
M  V30 24 1 23 11
M  V30 25 1 22 17
M  V30 26 1 1 24
M  V30 27 1 1 25
M  V30 28 1 1 26
M  V30 29 1 3 27
M  V30 30 1 3 28
M  V30 31 1 3 29
M  V30 32 1 6 30
M  V30 33 1 6 31
M  V30 34 1 9 32
M  V30 35 1 9 33
M  V30 36 1 12 34
M  V30 37 1 13 35
M  V30 38 1 14 36
M  V30 39 1 16 37
M  V30 40 1 16 38
M  V30 41 1 18 39
M  V30 42 1 19 40
M  V30 43 1 20 41
M  V30 44 1 21 42
M  V30 45 1 22 43
M  V30 46 1 23 44
M  V30 END BOND
M  V30 END CTAB
M  END
