
     RDKit          3D

  0  0  0  0  0  0  0  0  0  0999 V3000
M  V30 BEGIN CTAB
M  V30 COUNTS 31 31 0 0 0
M  V30 BEGIN ATOM
M  V30 1 O -3.47132 -1.08163 -1.1321 0
M  V30 2 C -2.84345 -0.0123363 -0.516133 0
M  V30 3 C -2.34677 -0.502353 0.84334 0
M  V30 4 C -1.48751 0.531535 1.49639 0
M  V30 5 C -0.183836 0.707086 0.694586 0
M  V30 6 C -0.347045 0.0836635 -0.660385 0
M  V30 7 C -1.67883 0.532227 -1.28332 0
M  V30 8 C 0.868723 0.0279933 1.49868 0
M  V30 9 N 2.2066 0.0528129 0.998668 0
M  V30 10 C 2.66159 -0.643886 -0.132405 0
M  V30 11 N 3.37122 -0.0357695 -1.03735 0
M  V30 12 N 3.66472 1.31586 -0.852291 0
M  V30 13 N 2.4174 -2.02241 -0.376563 0
M  V30 14 H -4.0337 -0.819908 -1.90036 0
M  V30 15 H -3.61678 0.748205 -0.301535 0
M  V30 16 H -3.21026 -0.693685 1.51468 0
M  V30 17 H -1.79171 -1.43559 0.739877 0
M  V30 18 H -1.99049 1.51963 1.52138 0
M  V30 19 H -1.29625 0.242618 2.53851 0
M  V30 20 H 0.0215666 1.78893 0.546156 0
M  V30 21 H 0.442298 0.458552 -1.31871 0
M  V30 22 H -0.379561 -1.00912 -0.664451 0
M  V30 23 H -1.64833 1.62572 -1.35902 0
M  V30 24 H -1.73343 0.128162 -2.31603 0
M  V30 25 H 0.822214 0.382942 2.57627 0
M  V30 26 H 0.504968 -1.05111 1.6127 0
M  V30 27 H 2.87866 0.668182 1.56734 0
M  V30 28 H 3.42237 1.96185 -1.61539 0
M  V30 29 H 4.11226 1.59079 0.0461121 0
M  V30 30 H 2.22834 -2.4058 -1.31985 0
M  V30 31 H 2.43633 -2.65317 0.45356 0
M  V30 END ATOM
M  V30 BEGIN BOND
M  V30 1 1 1 2
M  V30 2 1 2 3
M  V30 3 1 3 4
M  V30 4 1 4 5
M  V30 5 1 5 6
M  V30 6 1 6 7
M  V30 7 1 5 8
M  V30 8 1 8 9
M  V30 9 1 9 10
M  V30 10 2 10 11 CFG=2
M  V30 11 1 11 12
M  V30 12 1 10 13
M  V30 13 1 7 2
M  V30 14 1 1 14
M  V30 15 1 2 15
M  V30 16 1 3 16
M  V30 17 1 3 17
M  V30 18 1 4 18
M  V30 19 1 4 19
M  V30 20 1 5 20
M  V30 21 1 6 21
M  V30 22 1 6 22
M  V30 23 1 7 23
M  V30 24 1 7 24
M  V30 25 1 8 25
M  V30 26 1 8 26
M  V30 27 1 9 27
M  V30 28 1 12 28
M  V30 29 1 12 29
M  V30 30 1 13 30
M  V30 31 1 13 31
M  V30 END BOND
M  V30 END CTAB
M  END
