
     RDKit          3D

  0  0  0  0  0  0  0  0  0  0999 V3000
M  V30 BEGIN CTAB
M  V30 COUNTS 24 25 0 0 0
M  V30 BEGIN ATOM
M  V30 1 N 3.15571 -0.861399 -1.29264 0
M  V30 2 N 2.30703 -0.15166 -0.454391 0
M  V30 3 C 2.7524 0.755136 0.435818 0
M  V30 4 N 4.16201 0.994047 0.517609 0
M  V30 5 N 1.88066 1.41036 1.22013 0
M  V30 6 N 0.576533 1.20184 1.15753 0
M  V30 7 C 0.0739793 0.307174 0.286773 0
M  V30 8 C 0.955324 -0.356379 -0.507479 0
M  V30 9 O 0.547995 -1.20281 -1.34004 0
M  V30 10 C -1.36148 0.0631207 0.197963 0
M  V30 11 C -2.2511 1.14143 0.163941 0
M  V30 12 C -3.60738 0.912916 0.0831201 0
M  V30 13 C -4.10243 -0.372338 0.0350405 0
M  V30 14 C -3.24403 -1.45391 0.0672878 0
M  V30 15 C -1.89523 -1.19596 0.148187 0
M  V30 16 H 3.9835 -0.391926 -1.71088 0
M  V30 17 H 2.94883 -1.85777 -1.49029 0
M  V30 18 H 4.81176 0.214617 0.318339 0
M  V30 19 H 4.44994 1.96267 0.779332 0
M  V30 20 H -1.86971 2.15465 0.20133 0
M  V30 21 H -4.30577 1.76191 0.0564423 0
M  V30 22 H -5.16617 -0.519096 -0.0279086 0
M  V30 23 H -3.61486 -2.48899 0.0301564 0
M  V30 24 H -1.1875 -2.02764 0.178088 0
M  V30 END ATOM
M  V30 BEGIN BOND
M  V30 1 1 1 2
M  V30 2 1 2 3
M  V30 3 1 3 4
M  V30 4 2 3 5
M  V30 5 1 5 6
M  V30 6 2 6 7
M  V30 7 1 7 8
M  V30 8 2 8 9
M  V30 9 1 7 10
M  V30 10 2 10 11
M  V30 11 1 11 12
M  V30 12 2 12 13
M  V30 13 1 13 14
M  V30 14 2 14 15
M  V30 15 1 8 2
M  V30 16 1 15 10
M  V30 17 1 1 16
M  V30 18 1 1 17
M  V30 19 1 4 18
M  V30 20 1 4 19
M  V30 21 1 11 20
M  V30 22 1 12 21
M  V30 23 1 13 22
M  V30 24 1 14 23
M  V30 25 1 15 24
M  V30 END BOND
M  V30 END CTAB
M  END
