
     RDKit          3D

  0  0  0  0  0  0  0  0  0  0999 V3000
M  V30 BEGIN CTAB
M  V30 COUNTS 25 25 0 0 0
M  V30 BEGIN ATOM
M  V30 1 N -3.27222 1.41444 -0.888675 0
M  V30 2 C -2.3503 0.484752 -0.364862 0
M  V30 3 C -2.86341 -0.566568 0.383004 0
M  V30 4 C -1.94847 -1.46651 0.887786 0
M  V30 5 C -0.590366 -1.37142 0.688997 0
M  V30 6 C -0.112014 -0.324185 -0.0526817 0
M  V30 7 C -0.992743 0.59969 -0.576747 0
M  V30 8 N 1.29321 -0.199849 -0.275745 0
M  V30 9 C 1.82703 -0.782313 -1.44551 0
M  V30 10 S 0.865267 -1.57038 -2.50516 0
M  V30 11 N 3.21785 -0.674733 -1.69144 0
M  V30 12 C 2.13927 0.482129 0.636589 0
M  V30 13 O 3.36093 0.581492 0.427307 0
M  V30 14 C 1.57352 1.0994 1.87729 0
M  V30 15 H -3.36058 1.57406 -1.90047 0
M  V30 16 H -3.87008 1.9445 -0.235916 0
M  V30 17 H -3.93458 -0.663194 0.55403 0
M  V30 18 H -2.34663 -2.29734 1.47826 0
M  V30 19 H 0.0681117 -2.13077 1.12641 0
M  V30 20 H -0.637153 1.45015 -1.1757 0
M  V30 21 H 3.81387 -1.50244 -1.5065 0
M  V30 22 H 3.60016 0.202344 -2.04069 0
M  V30 23 H 0.483488 1.12538 1.87196 0
M  V30 24 H 2.04422 2.10433 2.00461 0
M  V30 25 H 1.99164 0.487022 2.72385 0
M  V30 END ATOM
M  V30 BEGIN BOND
M  V30 1 1 1 2
M  V30 2 2 2 3
M  V30 3 1 3 4
M  V30 4 2 4 5
M  V30 5 1 5 6
M  V30 6 2 6 7
M  V30 7 1 6 8
M  V30 8 1 8 9
M  V30 9 2 9 10
M  V30 10 1 9 11
M  V30 11 1 8 12
M  V30 12 2 12 13
M  V30 13 1 12 14
M  V30 14 1 7 2
M  V30 15 1 1 15
M  V30 16 1 1 16
M  V30 17 1 3 17
M  V30 18 1 4 18
M  V30 19 1 5 19
M  V30 20 1 7 20
M  V30 21 1 11 21
M  V30 22 1 11 22
M  V30 23 1 14 23
M  V30 24 1 14 24
M  V30 25 1 14 25
M  V30 END BOND
M  V30 END CTAB
M  END
