
     RDKit          3D

  0  0  0  0  0  0  0  0  0  0999 V3000
M  V30 BEGIN CTAB
M  V30 COUNTS 25 25 0 0 0
M  V30 BEGIN ATOM
M  V30 1 F -3.7288 -1.10175 -0.330919 0
M  V30 2 C -2.45287 -1.40773 0.0490308 0
M  V30 3 O -1.53636 -0.686373 -0.768921 0
M  V30 4 C -0.278798 -0.288903 -0.363021 0
M  V30 5 C 0.739699 -1.23136 -0.536258 0
M  V30 6 N 0.492647 -2.52336 -1.11896 0
M  V30 7 C 2.02629 -0.934249 -0.157836 0
M  V30 8 C 2.34044 0.284797 0.394359 0
M  V30 9 C 1.3502 1.20754 0.563316 0
M  V30 10 C 0.0216179 0.928436 0.182338 0
M  V30 11 C -0.900135 2.02855 0.344766 0
M  V30 12 O -0.502174 3.08177 0.927589 0
M  V30 13 C -2.2794 2.0356 -0.11872 0
M  V30 14 N 3.6802 0.598203 0.791608 0
M  V30 15 F -2.33538 -2.79207 -0.274649 0
M  V30 16 H -2.22728 -1.37017 1.11176 0
M  V30 17 H 0.242794 -2.61966 -2.12446 0
M  V30 18 H 0.57028 -3.36086 -0.508273 0
M  V30 19 H 2.83479 -1.65331 -0.283292 0
M  V30 20 H 1.61897 2.17372 1.00484 0
M  V30 21 H -2.92985 1.59166 0.666711 0
M  V30 22 H -2.66698 3.09621 -0.253328 0
M  V30 23 H -2.47761 1.51414 -1.07665 0
M  V30 24 H 4.50217 0.1778 0.302938 0
M  V30 25 H 3.89552 1.25137 1.57603 0
M  V30 END ATOM
M  V30 BEGIN BOND
M  V30 1 1 1 2
M  V30 2 1 2 3
M  V30 3 1 3 4
M  V30 4 2 4 5
M  V30 5 1 5 6
M  V30 6 1 5 7
M  V30 7 2 7 8
M  V30 8 1 8 9
M  V30 9 2 9 10
M  V30 10 1 10 11
M  V30 11 2 11 12
M  V30 12 1 11 13
M  V30 13 1 8 14
M  V30 14 1 2 15
M  V30 15 1 10 4
M  V30 16 1 2 16
M  V30 17 1 6 17
M  V30 18 1 6 18
M  V30 19 1 7 19
M  V30 20 1 9 20
M  V30 21 1 13 21
M  V30 22 1 13 22
M  V30 23 1 13 23
M  V30 24 1 14 24
M  V30 25 1 14 25
M  V30 END BOND
M  V30 END CTAB
M  END
