
     RDKit          3D

  0  0  0  0  0  0  0  0  0  0999 V3000
M  V30 BEGIN CTAB
M  V30 COUNTS 29 31 0 0 0
M  V30 BEGIN ATOM
M  V30 1 N -4.97451 0.68612 -0.783694 0
M  V30 2 C -3.65809 0.349182 -0.385795 0
M  V30 3 N -3.3831 -0.402444 0.678685 0
M  V30 4 C -2.14328 -0.727616 1.06575 0
M  V30 5 C -1.07022 -0.257057 0.318845 0
M  V30 6 C -1.31065 0.506352 -0.767609 0
M  V30 7 N -0.343899 1.01768 -1.62704 0
M  V30 8 N -2.60872 0.790393 -1.0911 0
M  V30 9 C 0.192409 -0.591553 0.695495 0
M  V30 10 C 0.326399 -1.4128 1.8389 0
M  V30 11 C -0.729068 -1.86487 2.55551 0
M  V30 12 N -1.95074 -1.49845 2.13546 0
M  V30 13 C 1.42833 -0.153319 0.101267 0
M  V30 14 C 2.22217 -1.02069 -0.629115 0
M  V30 15 C 3.46583 -0.622723 -1.10936 0
M  V30 16 C 3.92964 0.657494 -0.860689 0
M  V30 17 C 3.14838 1.52327 -0.137293 0
M  V30 18 C 1.91527 1.10833 0.331188 0
M  V30 19 H -5.77976 0.61788 -0.115618 0
M  V30 20 H -5.14497 1.00652 -1.75475 0
M  V30 21 H -0.18728 2.06776 -1.60723 0
M  V30 22 H 0.199725 0.440093 -2.28641 0
M  V30 23 H 1.32059 -1.68718 2.14712 0
M  V30 24 H -0.621578 -2.49261 3.4288 0
M  V30 25 H 1.90659 -2.01888 -0.846347 0
M  V30 26 H 4.10476 -1.27974 -1.6817 0
M  V30 27 H 4.91692 0.953303 -1.24952 0
M  V30 28 H 3.5194 2.51358 0.0488602 0
M  V30 29 H 1.30946 1.792 0.896785 0
M  V30 END ATOM
M  V30 BEGIN BOND
M  V30 1 1 1 2
M  V30 2 2 2 3
M  V30 3 1 3 4
M  V30 4 2 4 5
M  V30 5 1 5 6
M  V30 6 1 6 7
M  V30 7 2 6 8
M  V30 8 1 5 9
M  V30 9 2 9 10
M  V30 10 1 10 11
M  V30 11 2 11 12
M  V30 12 1 9 13
M  V30 13 2 13 14
M  V30 14 1 14 15
M  V30 15 2 15 16
M  V30 16 1 16 17
M  V30 17 2 17 18
M  V30 18 1 8 2
M  V30 19 1 18 13
M  V30 20 1 12 4
M  V30 21 1 1 19
M  V30 22 1 1 20
M  V30 23 1 7 21
M  V30 24 1 7 22
M  V30 25 1 10 23
M  V30 26 1 11 24
M  V30 27 1 14 25
M  V30 28 1 15 26
M  V30 29 1 16 27
M  V30 30 1 17 28
M  V30 31 1 18 29
M  V30 END BOND
M  V30 END CTAB
M  END
