
     RDKit          3D

  0  0  0  0  0  0  0  0  0  0999 V3000
M  V30 BEGIN CTAB
M  V30 COUNTS 24 23 0 0 0
M  V30 BEGIN ATOM
M  V30 1 N -0.9875 2.21298 0.969121 0
M  V30 2 C -1.7273 0.99845 0.790699 0
M  V30 3 C -1.00708 0.024727 -0.120165 0
M  V30 4 N 0.285495 -0.320966 0.438709 0
M  V30 5 C 1.4849 -0.0986221 -0.271782 0
M  V30 6 O 1.42014 0.412876 -1.41834 0
M  V30 7 N 2.73647 -0.442502 0.29031 0
M  V30 8 C 3.94944 -0.209223 -0.447529 0
M  V30 9 C -1.78476 -1.26265 -0.274565 0
M  V30 10 N -3.10006 -1.01437 -0.845042 0
M  V30 11 H -1.11998 2.64513 1.92585 0
M  V30 12 H -1.16123 2.93608 0.260217 0
M  V30 13 H -1.79391 0.51093 1.80333 0
M  V30 14 H -2.76869 1.15748 0.454105 0
M  V30 15 H -0.913709 0.467019 -1.13533 0
M  V30 16 H 0.265955 -0.744526 1.40058 0
M  V30 17 H 2.77631 -0.866691 1.24395 0
M  V30 18 H 4.73478 -0.870819 -0.0457172 0
M  V30 19 H 4.29657 0.840461 -0.290195 0
M  V30 20 H 3.80354 -0.317879 -1.54712 0
M  V30 21 H -1.82728 -1.78421 0.685827 0
M  V30 22 H -1.18578 -1.90774 -0.961547 0
M  V30 23 H -3.45897 -1.94045 -1.19138 0
M  V30 24 H -2.91736 -0.425491 -1.71398 0
M  V30 END ATOM
M  V30 BEGIN BOND
M  V30 1 1 1 2
M  V30 2 1 2 3
M  V30 3 1 3 4
M  V30 4 1 4 5
M  V30 5 2 5 6
M  V30 6 1 5 7
M  V30 7 1 7 8
M  V30 8 1 3 9
M  V30 9 1 9 10
M  V30 10 1 1 11
M  V30 11 1 1 12
M  V30 12 1 2 13
M  V30 13 1 2 14
M  V30 14 1 3 15
M  V30 15 1 4 16
M  V30 16 1 7 17
M  V30 17 1 8 18
M  V30 18 1 8 19
M  V30 19 1 8 20
M  V30 20 1 9 21
M  V30 21 1 9 22
M  V30 22 1 10 23
M  V30 23 1 10 24
M  V30 END BOND
M  V30 END CTAB
M  END
