
     RDKit          3D

  0  0  0  0  0  0  0  0  0  0999 V3000
M  V30 BEGIN CTAB
M  V30 COUNTS 23 24 0 0 0
M  V30 BEGIN ATOM
M  V30 1 C -2.14955 0.806029 -1.36946 0
M  V30 2 C -1.56474 0.26222 -0.13413 0
M  V30 3 C -2.31617 0.103348 1.1218 0
M  V30 4 C -2.1683 -1.12717 0.272206 0
M  V30 5 C -0.0775037 0.228668 -0.060216 0
M  V30 6 N 0.612723 1.09388 0.674312 0
M  V30 7 C 1.92709 0.964999 0.798698 0
M  V30 8 N 2.7467 1.88122 1.5521 0
M  V30 9 N 2.58617 -0.0601741 0.188332 0
M  V30 10 C 1.88684 -0.94079 -0.565321 0
M  V30 11 N 0.576102 -0.80102 -0.685941 0
M  V30 12 N 2.58652 -2.03029 -1.17749 0
M  V30 13 H -2.23432 1.91395 -1.29001 0
M  V30 14 H -3.205 0.376965 -1.45652 0
M  V30 15 H -1.59209 0.456089 -2.22485 0
M  V30 16 H -3.31636 0.576726 1.12211 0
M  V30 17 H -1.69071 0.154641 2.01916 0
M  V30 18 H -1.38349 -1.88645 0.627093 0
M  V30 19 H -2.94759 -1.51 -0.359699 0
M  V30 20 H 3.46042 1.5245 2.26115 0
M  V30 21 H 2.62512 2.90411 1.4178 0
M  V30 22 H 2.49213 -2.98999 -0.700373 0
M  V30 23 H 3.14599 -1.90147 -2.03075 0
M  V30 END ATOM
M  V30 BEGIN BOND
M  V30 1 1 1 2
M  V30 2 1 2 3
M  V30 3 1 3 4
M  V30 4 1 2 5
M  V30 5 2 5 6
M  V30 6 1 6 7
M  V30 7 1 7 8
M  V30 8 2 7 9
M  V30 9 1 9 10
M  V30 10 2 10 11
M  V30 11 1 10 12
M  V30 12 1 4 2
M  V30 13 1 11 5
M  V30 14 1 1 13
M  V30 15 1 1 14
M  V30 16 1 1 15
M  V30 17 1 3 16
M  V30 18 1 3 17
M  V30 19 1 4 18
M  V30 20 1 4 19
M  V30 21 1 8 20
M  V30 22 1 8 21
M  V30 23 1 12 22
M  V30 24 1 12 23
M  V30 END BOND
M  V30 END CTAB
M  END
