
     RDKit          3D

  0  0  0  0  0  0  0  0  0  0999 V3000
M  V30 BEGIN CTAB
M  V30 COUNTS 63 65 0 0 0
M  V30 BEGIN ATOM
M  V30 1 N 8.1604 0.756898 0.701111 0
M  V30 2 C 7.64712 -0.128831 -0.31983 0
M  V30 3 C 6.54941 0.541446 -1.10275 0
M  V30 4 C 5.38642 0.941797 -0.215737 0
M  V30 5 C 4.76939 -0.225098 0.471889 0
M  V30 6 C 3.60875 0.155546 1.38346 0 CFG=1
M  V30 7 C 2.51055 0.813878 0.671074 0
M  V30 8 O 2.71141 2.04394 0.373183 0
M  V30 9 N 1.26007 0.235369 0.281602 0
M  V30 10 C 0.902254 -1.13657 0.483093 0
M  V30 11 C -0.199433 -1.6535 -0.377069 0
M  V30 12 C -1.27809 -0.612346 -0.712022 0
M  V30 13 C -0.464982 0.483086 -1.41626 0
M  V30 14 C 0.319005 1.15093 -0.323371 0
M  V30 15 O -1.66704 -0.0969427 0.47732 0
M  V30 16 C -2.96119 -0.350531 0.799055 0
M  V30 17 C -3.81077 0.143521 -0.398515 0 CFG=1
M  V30 18 C -3.73682 -0.966093 -1.33404 0 CFG=1
M  V30 19 C -2.24646 -1.25943 -1.60292 0
M  V30 20 C -4.28346 -2.30212 -0.832741 0
M  V30 21 O -4.25741 -0.729016 -2.62444 0
M  V30 22 N -4.97363 0.706949 0.117401 0
M  V30 23 C -4.77039 1.64633 1.10121 0
M  V30 24 C -5.80855 2.29627 1.71312 0
M  V30 25 F -5.62099 3.22683 2.68757 0
M  V30 26 C -7.11591 2.03395 1.36483 0
M  V30 27 O -8.09327 2.61554 1.90984 0
M  V30 28 N -7.30492 1.1171 0.404253 0
M  V30 29 C -6.25699 0.478947 -0.194851 0
M  V30 30 O -6.56727 -0.346828 -1.07059 0
M  V30 31 N 3.13103 -0.985838 2.107 0
M  V30 32 H 7.6781 1.66231 0.750454 0
M  V30 33 H 8.15279 0.250936 1.59798 0
M  V30 34 H 7.30627 -1.10163 0.125813 0
M  V30 35 H 8.45348 -0.376326 -1.04408 0
M  V30 36 H 6.97522 1.4512 -1.55506 0
M  V30 37 H 6.18203 -0.170451 -1.85226 0
M  V30 38 H 5.65468 1.7208 0.497996 0
M  V30 39 H 4.63308 1.38122 -0.929024 0
M  V30 40 H 4.34515 -0.903787 -0.318984 0
M  V30 41 H 5.49465 -0.849666 1.02889 0
M  V30 42 H 4.04554 0.872421 2.13175 0
M  V30 43 H 0.644967 -1.29915 1.5722 0
M  V30 44 H 1.77626 -1.82365 0.255034 0
M  V30 45 H 0.211578 -1.99112 -1.36008 0
M  V30 46 H -0.673799 -2.5135 0.167481 0
M  V30 47 H -1.07683 1.22878 -1.91376 0
M  V30 48 H 0.189909 -0.0443973 -2.1414 0
M  V30 49 H 0.833429 2.06857 -0.701386 0
M  V30 50 H -0.432795 1.48448 0.456107 0
M  V30 51 H -3.30617 0.0203263 1.75594 0
M  V30 52 H -3.06885 -1.47579 0.890701 0
M  V30 53 H -3.20692 1.00172 -0.854086 0
M  V30 54 H -2.0621 -2.36749 -1.65051 0
M  V30 55 H -1.96567 -0.944694 -2.65838 0
M  V30 56 H -3.50925 -3.08454 -0.731949 0
M  V30 57 H -4.99517 -2.72344 -1.6058 0
M  V30 58 H -4.77664 -2.2378 0.142259 0
M  V30 59 H -3.70367 -0.109053 -3.13997 0
M  V30 60 H -3.76593 1.92963 1.44083 0
M  V30 61 H -8.28744 0.905203 0.126958 0
M  V30 62 H 3.72598 -1.79584 1.89836 0
M  V30 63 H 2.9899 -0.760439 3.0961 0
M  V30 END ATOM
M  V30 BEGIN BOND
M  V30 1 1 1 2
M  V30 2 1 2 3
M  V30 3 1 3 4
M  V30 4 1 4 5
M  V30 5 1 5 6
M  V30 6 1 6 7
M  V30 7 2 7 8
M  V30 8 1 7 9
M  V30 9 1 9 10
M  V30 10 1 10 11
M  V30 11 1 11 12
M  V30 12 1 12 13
M  V30 13 1 13 14
M  V30 14 1 12 15
M  V30 15 1 15 16
M  V30 16 1 16 17
M  V30 17 1 17 18
M  V30 18 1 18 19
M  V30 19 1 18 20
M  V30 20 1 18 21 CFG=3
M  V30 21 1 17 22
M  V30 22 1 22 23
M  V30 23 2 23 24
M  V30 24 1 24 25
M  V30 25 1 24 26
M  V30 26 2 26 27
M  V30 27 1 26 28
M  V30 28 1 28 29
M  V30 29 2 29 30
M  V30 30 1 6 31
M  V30 31 1 14 9
M  V30 32 1 29 22
M  V30 33 1 19 12
M  V30 34 1 1 32
M  V30 35 1 1 33
M  V30 36 1 2 34
M  V30 37 1 2 35
M  V30 38 1 3 36
M  V30 39 1 3 37
M  V30 40 1 4 38
M  V30 41 1 4 39
M  V30 42 1 5 40
M  V30 43 1 5 41
M  V30 44 1 6 42 CFG=1
M  V30 45 1 10 43
M  V30 46 1 10 44
M  V30 47 1 11 45
M  V30 48 1 11 46
M  V30 49 1 13 47
M  V30 50 1 13 48
M  V30 51 1 14 49
M  V30 52 1 14 50
M  V30 53 1 16 51
M  V30 54 1 16 52
M  V30 55 1 17 53 CFG=3
M  V30 56 1 19 54
M  V30 57 1 19 55
M  V30 58 1 20 56
M  V30 59 1 20 57
M  V30 60 1 20 58
M  V30 61 1 21 59
M  V30 62 1 23 60
M  V30 63 1 28 61
M  V30 64 1 31 62
M  V30 65 1 31 63
M  V30 END BOND
M  V30 END CTAB
M  END
