
     RDKit          3D

  0  0  0  0  0  0  0  0  0  0999 V3000
M  V30 BEGIN CTAB
M  V30 COUNTS 17 18 0 0 0
M  V30 BEGIN ATOM
M  V30 1 N 3.59351 -0.35855 -0.316412 0
M  V30 2 C 2.16492 -0.439807 -0.201595 0
M  V30 3 N 1.43424 -1.56728 -0.186188 0
M  V30 4 C 0.125001 -1.21719 -0.0640284 0
M  V30 5 N 0.0362412 0.122377 -0.00326122 0
M  V30 6 N 1.28692 0.568307 -0.0888268 0
M  V30 7 C -1.16448 0.741757 0.120671 0
M  V30 8 N -1.22883 2.15779 0.18247 0
M  V30 9 C -2.33573 0.0261405 0.188915 0
M  V30 10 C -2.22937 -1.34657 0.125368 0
M  V30 11 N -1.02059 -1.9192 0.00263734 0
M  V30 12 H 4.09059 -0.0679739 -1.16231 0
M  V30 13 H 4.16668 -0.61436 0.523696 0
M  V30 14 H -0.348551 2.73118 0.268855 0
M  V30 15 H -2.11687 2.66603 0.146093 0
M  V30 16 H -3.3185 0.481301 0.288304 0
M  V30 17 H -3.13518 -1.96396 0.175609 0
M  V30 END ATOM
M  V30 BEGIN BOND
M  V30 1 1 1 2
M  V30 2 1 2 3
M  V30 3 2 3 4
M  V30 4 1 4 5
M  V30 5 1 5 6
M  V30 6 1 5 7
M  V30 7 1 7 8
M  V30 8 2 7 9
M  V30 9 1 9 10
M  V30 10 2 10 11
M  V30 11 2 6 2
M  V30 12 1 11 4
M  V30 13 1 1 12
M  V30 14 1 1 13
M  V30 15 1 8 14
M  V30 16 1 8 15
M  V30 17 1 9 16
M  V30 18 1 10 17
M  V30 END BOND
M  V30 END CTAB
M  END
