
     RDKit          3D

  0  0  0  0  0  0  0  0  0  0999 V3000
M  V30 BEGIN CTAB
M  V30 COUNTS 15 15 0 0 0
M  V30 BEGIN ATOM
M  V30 1 C 0.190513 -1.43166 -0.175066 0
M  V30 2 C 0.0140401 0.0757366 0.00871487 0
M  V30 3 C -1.21041 0.656775 0.0845764 0
M  V30 4 N -2.46521 -0.0760397 0.00115345 0
M  V30 5 N -1.24747 1.97753 0.244984 0
M  V30 6 S 0.356838 2.44925 0.295194 0
M  V30 7 C 1.09055 0.922925 0.106789 0
M  V30 8 N 2.48564 0.563979 0.0571081 0
M  V30 9 H 1.06886 -1.60555 -0.821619 0
M  V30 10 H 0.345501 -1.91306 0.812972 0
M  V30 11 H -0.727691 -1.8704 -0.611205 0
M  V30 12 H -2.61685 -0.915678 0.57657 0
M  V30 13 H -3.209 0.242725 -0.635411 0
M  V30 14 H 2.81525 -0.279586 0.510486 0
M  V30 15 H 3.10944 1.20304 -0.455247 0
M  V30 END ATOM
M  V30 BEGIN BOND
M  V30 1 1 1 2
M  V30 2 1 2 3
M  V30 3 1 3 4
M  V30 4 2 3 5
M  V30 5 1 5 6
M  V30 6 1 6 7
M  V30 7 1 7 8
M  V30 8 2 7 2
M  V30 9 1 1 9
M  V30 10 1 1 10
M  V30 11 1 1 11
M  V30 12 1 4 12
M  V30 13 1 4 13
M  V30 14 1 8 14
M  V30 15 1 8 15
M  V30 END BOND
M  V30 END CTAB
M  END
