
     RDKit          3D

  0  0  0  0  0  0  0  0  0  0999 V3000
M  V30 BEGIN CTAB
M  V30 COUNTS 20 21 0 0 0
M  V30 BEGIN ATOM
M  V30 1 N 3.50707 -0.920073 -0.200557 0
M  V30 2 C 2.17234 -0.446831 -0.208753 0
M  V30 3 N 1.18959 -1.34998 -0.358136 0
M  V30 4 C -0.105602 -0.993388 -0.377839 0
M  V30 5 C -1.10761 -1.95179 -0.534433 0
M  V30 6 C -2.40271 -1.55099 -0.549054 0
M  V30 7 C -2.71137 -0.231901 -0.412407 0
M  V30 8 C -1.71537 0.730899 -0.255586 0
M  V30 9 Br -2.18391 2.54106 -0.0701315 0
M  V30 10 C -0.39413 0.351207 -0.23732 0
M  V30 11 C 0.595022 1.29171 -0.0833594 0
M  V30 12 N 0.391518 2.67545 0.0656262 0
M  V30 13 N 1.88702 0.861551 -0.0722345 0
M  V30 14 H 4.00763 -1.02684 -1.09295 0
M  V30 15 H 3.96843 -1.15371 0.689263 0
M  V30 16 H -0.786946 -2.97552 -0.636696 0
M  V30 17 H -3.20186 -2.29303 -0.671386 0
M  V30 18 H -3.75362 0.0786245 -0.425571 0
M  V30 19 H 0.363854 3.28255 -0.768005 0
M  V30 20 H 0.280658 3.08101 1.00776 0
M  V30 END ATOM
M  V30 BEGIN BOND
M  V30 1 1 1 2
M  V30 2 2 2 3
M  V30 3 1 3 4
M  V30 4 2 4 5
M  V30 5 1 5 6
M  V30 6 2 6 7
M  V30 7 1 7 8
M  V30 8 1 8 9
M  V30 9 2 8 10
M  V30 10 1 10 11
M  V30 11 1 11 12
M  V30 12 2 11 13
M  V30 13 1 13 2
M  V30 14 1 10 4
M  V30 15 1 1 14
M  V30 16 1 1 15
M  V30 17 1 5 16
M  V30 18 1 6 17
M  V30 19 1 7 18
M  V30 20 1 12 19
M  V30 21 1 12 20
M  V30 END BOND
M  V30 END CTAB
M  END
