
     RDKit          3D

  0  0  0  0  0  0  0  0  0  0999 V3000
M  V30 BEGIN CTAB
M  V30 COUNTS 26 27 0 0 0
M  V30 BEGIN ATOM
M  V30 1 N -4.4927 1.13735 -0.246694 0
M  V30 2 C -3.46483 0.155903 -0.273451 0
M  V30 3 N -3.73704 -1.15936 -0.386706 0
M  V30 4 C -2.7407 -2.05661 -0.408523 0
M  V30 5 N -1.46668 -1.64955 -0.317665 0
M  V30 6 C -1.12083 -0.349968 -0.202155 0
M  V30 7 N 0.242672 0.0237625 -0.109671 0
M  V30 8 C 1.2701 -0.988108 -0.138782 0
M  V30 9 C 2.6144 -0.373579 -0.0289686 0
M  V30 10 C 3.79681 -1.09722 -0.028637 0
M  V30 11 C 4.79881 -0.157489 0.0898854 0
M  V30 12 C 4.16229 1.08426 0.154592 0
M  V30 13 O 2.87243 0.906289 0.0805767 0
M  V30 14 C -2.15392 0.561873 -0.180946 0
M  V30 15 N -1.82806 1.95209 -0.0594415 0
M  V30 16 H -4.61698 1.86257 -0.986652 0
M  V30 17 H -5.14781 1.11433 0.564991 0
M  V30 18 H -2.92807 -3.11291 -0.498009 0
M  V30 19 H 0.483501 1.03182 -0.0213742 0
M  V30 20 H 1.17262 -1.66958 0.756969 0
M  V30 21 H 1.21417 -1.59409 -1.07823 0
M  V30 22 H 3.90843 -2.14976 -0.103543 0
M  V30 23 H 5.85485 -0.369451 0.12325 0
M  V30 24 H 4.73149 2.00286 0.251216 0
M  V30 25 H -1.66619 2.55771 -0.900561 0
M  V30 26 H -1.75877 2.33685 0.912369 0
M  V30 END ATOM
M  V30 BEGIN BOND
M  V30 1 1 1 2
M  V30 2 2 2 3
M  V30 3 1 3 4
M  V30 4 2 4 5
M  V30 5 1 5 6
M  V30 6 1 6 7
M  V30 7 1 7 8
M  V30 8 1 8 9
M  V30 9 2 9 10
M  V30 10 1 10 11
M  V30 11 2 11 12
M  V30 12 1 12 13
M  V30 13 2 6 14
M  V30 14 1 14 15
M  V30 15 1 14 2
M  V30 16 1 13 9
M  V30 17 1 1 16
M  V30 18 1 1 17
M  V30 19 1 4 18
M  V30 20 1 7 19
M  V30 21 1 8 20
M  V30 22 1 8 21
M  V30 23 1 10 22
M  V30 24 1 11 23
M  V30 25 1 12 24
M  V30 26 1 15 25
M  V30 27 1 15 26
M  V30 END BOND
M  V30 END CTAB
M  END
