
     RDKit          3D

  0  0  0  0  0  0  0  0  0  0999 V3000
M  V30 BEGIN CTAB
M  V30 COUNTS 30 30 0 0 0
M  V30 BEGIN ATOM
M  V30 1 N -4.09278 -0.0830455 0.657862 0
M  V30 2 C -3.18919 -0.0248188 -0.459583 0
M  V30 3 C -1.80942 0.341603 0.0818184 0
M  V30 4 C -0.800673 0.421765 -1.04306 0
M  V30 5 C 0.456598 1.00526 -0.389802 0
M  V30 6 C 1.04466 -0.0825051 0.459379 0
M  V30 7 C 0.0719273 -1.10002 0.934494 0
M  V30 8 C -1.33704 -0.642801 1.08836 0
M  V30 9 N 2.05836 -0.753935 -0.340537 0
M  V30 10 S 3.63852 -0.533262 0.261396 0
M  V30 11 O 4.45571 -1.746 -0.0936502 0
M  V30 12 O 3.57275 -0.451367 1.76137 0
M  V30 13 N 4.41926 0.851629 -0.39072 0
M  V30 14 H -4.01319 0.826134 1.17271 0
M  V30 15 H -5.08052 -0.240833 0.383538 0
M  V30 16 H -3.07421 -0.984638 -0.979738 0
M  V30 17 H -3.50803 0.719739 -1.20303 0
M  V30 18 H -1.86923 1.35413 0.531794 0
M  V30 19 H -1.12313 1.06314 -1.86355 0
M  V30 20 H -0.54566 -0.606078 -1.33128 0
M  V30 21 H 1.18303 1.35214 -1.15304 0
M  V30 22 H 0.118983 1.88717 0.190638 0
M  V30 23 H 1.60237 0.418498 1.28907 0
M  V30 24 H 0.0610148 -2.00072 0.267624 0
M  V30 25 H 0.424438 -1.47414 1.92011 0
M  V30 26 H -2.0211 -1.5289 1.04135 0
M  V30 27 H -1.49194 -0.213869 2.10724 0
M  V30 28 H 1.95891 -0.5856 -1.34965 0
M  V30 29 H 3.74317 1.56957 -0.730769 0
M  V30 30 H 5.14639 1.24176 0.243679 0
M  V30 END ATOM
M  V30 BEGIN BOND
M  V30 1 1 1 2
M  V30 2 1 2 3
M  V30 3 1 3 4
M  V30 4 1 4 5
M  V30 5 1 5 6
M  V30 6 1 6 7
M  V30 7 1 7 8
M  V30 8 1 6 9
M  V30 9 1 9 10
M  V30 10 2 10 11
M  V30 11 2 10 12
M  V30 12 1 10 13
M  V30 13 1 8 3
M  V30 14 1 1 14
M  V30 15 1 1 15
M  V30 16 1 2 16
M  V30 17 1 2 17
M  V30 18 1 3 18
M  V30 19 1 4 19
M  V30 20 1 4 20
M  V30 21 1 5 21
M  V30 22 1 5 22
M  V30 23 1 6 23
M  V30 24 1 7 24
M  V30 25 1 7 25
M  V30 26 1 8 26
M  V30 27 1 8 27
M  V30 28 1 9 28
M  V30 29 1 13 29
M  V30 30 1 13 30
M  V30 END BOND
M  V30 END CTAB
M  END
