
     RDKit          3D

  0  0  0  0  0  0  0  0  0  0999 V3000
M  V30 BEGIN CTAB
M  V30 COUNTS 37 38 0 0 0
M  V30 BEGIN ATOM
M  V30 1 N -4.61306 -1.95233 -1.92665 0
M  V30 2 C -3.97297 -0.792099 -1.45489 0
M  V30 3 C -4.46655 0.421692 -1.87619 0
M  V30 4 C -3.86244 1.5743 -1.43301 0
M  V30 5 C -2.77316 1.50188 -0.574907 0
M  V30 6 C -2.27218 0.297371 -0.148044 0
M  V30 7 C -2.87161 -0.855879 -0.587448 0
M  V30 8 N -1.12532 0.205625 0.755703 0
M  V30 9 C 0.159003 0.181634 0.197806 0
M  V30 10 S 0.237497 0.282013 -1.46577 0
M  V30 11 N 1.34955 0.0407478 0.876231 0
M  V30 12 C 2.67409 0.0312535 0.369125 0
M  V30 13 C 3.6029 -0.791457 1.01648 0
M  V30 14 C 4.91788 -0.851623 0.620261 0
M  V30 15 C 5.3811 -0.10846 -0.427627 0
M  V30 16 C 4.48727 0.706636 -1.07723 0
M  V30 17 C 3.15003 0.76977 -0.675781 0
M  V30 18 Cl 5.01438 1.69915 -2.44276 0
M  V30 19 N 6.7307 -0.137522 -0.874193 0
M  V30 20 C -1.46289 0.146032 2.12459 0
M  V30 21 O -0.62823 0.0779473 3.01973 0
M  V30 22 C -2.89954 0.162974 2.5733 0
M  V30 23 H -4.35235 -2.39364 -2.83029 0
M  V30 24 H -5.3681 -2.37677 -1.35045 0
M  V30 25 H -5.33339 0.454839 -2.55836 0
M  V30 26 H -4.20322 2.54477 -1.72786 0
M  V30 27 H -2.26954 2.39866 -0.203589 0
M  V30 28 H -2.53094 -1.83441 -0.292947 0
M  V30 29 H 1.30628 -0.0793401 1.93833 0
M  V30 30 H 3.24344 -1.39097 1.85623 0
M  V30 31 H 5.60911 -1.50147 1.14674 0
M  V30 32 H 2.48025 1.43906 -1.19558 0
M  V30 33 H 6.87877 -0.216747 -1.90589 0
M  V30 34 H 7.54638 -0.0838314 -0.225186 0
M  V30 35 H -3.27724 -0.868137 2.43131 0
M  V30 36 H -2.97518 0.472207 3.62204 0
M  V30 37 H -3.51071 0.826122 1.9166 0
M  V30 END ATOM
M  V30 BEGIN BOND
M  V30 1 1 1 2
M  V30 2 2 2 3
M  V30 3 1 3 4
M  V30 4 2 4 5
M  V30 5 1 5 6
M  V30 6 2 6 7
M  V30 7 1 6 8
M  V30 8 1 8 9
M  V30 9 2 9 10
M  V30 10 1 9 11
M  V30 11 1 11 12
M  V30 12 2 12 13
M  V30 13 1 13 14
M  V30 14 2 14 15
M  V30 15 1 15 16
M  V30 16 2 16 17
M  V30 17 1 16 18
M  V30 18 1 15 19
M  V30 19 1 8 20
M  V30 20 2 20 21
M  V30 21 1 20 22
M  V30 22 1 7 2
M  V30 23 1 17 12
M  V30 24 1 1 23
M  V30 25 1 1 24
M  V30 26 1 3 25
M  V30 27 1 4 26
M  V30 28 1 5 27
M  V30 29 1 7 28
M  V30 30 1 11 29
M  V30 31 1 13 30
M  V30 32 1 14 31
M  V30 33 1 17 32
M  V30 34 1 19 33
M  V30 35 1 19 34
M  V30 36 1 22 35
M  V30 37 1 22 36
M  V30 38 1 22 37
M  V30 END BOND
M  V30 END CTAB
M  END
