
     RDKit          3D

  0  0  0  0  0  0  0  0  0  0999 V3000
M  V30 BEGIN CTAB
M  V30 COUNTS 36 37 0 0 0
M  V30 BEGIN ATOM
M  V30 1 N -3.03589 -2.02575 -1.00213 0
M  V30 2 C -2.37894 -0.760141 -1.13623 0
M  V30 3 C -1.65522 -0.434339 0.156736 0
M  V30 4 C -2.76811 -0.394053 1.24678 0
M  V30 5 C -3.70426 0.709462 0.903671 0
M  V30 6 C -2.9062 1.99847 0.977341 0
M  V30 7 C -1.73348 2.00321 0.0889897 0
M  V30 8 N -0.914254 0.770646 0.116866 0
M  V30 9 C 0.458858 0.961971 0.0496824 0
M  V30 10 O 0.813426 2.21884 0.112779 0
M  V30 11 C 1.55075 -0.0348727 -0.0774051 0
M  V30 12 C 1.37226 -1.33328 -0.459608 0
M  V30 13 S 2.95905 -2.0076 -0.333224 0
M  V30 14 C 3.78786 -0.640705 0.190721 0
M  V30 15 C 2.82798 0.312696 0.260441 0
M  V30 16 S 5.51075 -0.512745 0.557203 0
M  V30 17 O 5.83634 0.879647 0.958153 0
M  V30 18 O 5.85228 -1.51867 1.59859 0
M  V30 19 N 6.43566 -0.902846 -0.864191 0
M  V30 20 H -2.92934 -2.61786 -1.87883 0
M  V30 21 H -2.52241 -2.5782 -0.255311 0
M  V30 22 H -1.55965 -0.907319 -1.90111 0
M  V30 23 H -2.99469 0.0536732 -1.51287 0
M  V30 24 H -1.08134 -1.31166 0.474095 0
M  V30 25 H -2.2841 -0.158742 2.20718 0
M  V30 26 H -3.24253 -1.39644 1.24515 0
M  V30 27 H -4.4607 0.775693 1.73578 0
M  V30 28 H -4.27098 0.59244 -0.0183088 0
M  V30 29 H -2.60596 2.13118 2.0357 0
M  V30 30 H -3.57368 2.82511 0.720379 0
M  V30 31 H -1.11343 2.8899 0.327064 0
M  V30 32 H -2.08988 2.15552 -0.968148 0
M  V30 33 H 0.474786 -1.87674 -0.809807 0
M  V30 34 H 3.13082 1.33754 0.594777 0
M  V30 35 H 5.77759 -1.09076 -1.65356 0
M  V30 36 H 7.03665 -0.113254 -1.14348 0
M  V30 END ATOM
M  V30 BEGIN BOND
M  V30 1 1 1 2
M  V30 2 1 2 3
M  V30 3 1 3 4
M  V30 4 1 4 5
M  V30 5 1 5 6
M  V30 6 1 6 7
M  V30 7 1 7 8
M  V30 8 1 8 9
M  V30 9 2 9 10
M  V30 10 1 9 11
M  V30 11 2 11 12
M  V30 12 1 12 13
M  V30 13 1 13 14
M  V30 14 2 14 15
M  V30 15 1 14 16
M  V30 16 2 16 17
M  V30 17 2 16 18
M  V30 18 1 16 19
M  V30 19 1 8 3
M  V30 20 1 15 11
M  V30 21 1 1 20
M  V30 22 1 1 21
M  V30 23 1 2 22
M  V30 24 1 2 23
M  V30 25 1 3 24
M  V30 26 1 4 25
M  V30 27 1 4 26
M  V30 28 1 5 27
M  V30 29 1 5 28
M  V30 30 1 6 29
M  V30 31 1 6 30
M  V30 32 1 7 31
M  V30 33 1 7 32
M  V30 34 1 12 33
M  V30 35 1 15 34
M  V30 36 1 19 35
M  V30 37 1 19 36
M  V30 END BOND
M  V30 END CTAB
M  END
