
     RDKit          3D

  0  0  0  0  0  0  0  0  0  0999 V3000
M  V30 BEGIN CTAB
M  V30 COUNTS 37 39 0 0 0
M  V30 BEGIN ATOM
M  V30 1 N 6.71994 0.695257 0.274616 0
M  V30 2 C 5.44267 0.049938 0.0785529 0
M  V30 3 N 4.87963 -0.910267 0.793356 0
M  V30 4 C 3.71496 -1.36608 0.457376 0
M  V30 5 C 3.10982 -0.820145 -0.645247 0
M  V30 6 S 4.2717 0.331606 -1.13658 0
M  V30 7 C 1.77493 -1.14965 -1.25779 0
M  V30 8 N 0.826564 -0.253753 -0.668635 0
M  V30 9 C -0.525022 -0.431862 -1.15152 0
M  V30 10 C -1.22413 0.576965 -0.226994 0 CFG=2
M  V30 11 C -0.62943 0.184641 1.09703 0 CFG=1
M  V30 12 C 0.774954 -0.269008 0.748355 0
M  V30 13 N -0.60428 1.29551 2.03605 0
M  V30 14 C -2.67154 0.488907 -0.294092 0
M  V30 15 C -3.41122 1.58729 -0.678964 0
M  V30 16 C -4.80406 1.53715 -0.754066 0
M  V30 17 C -5.48479 0.381143 -0.443793 0
M  V30 18 C -4.75241 -0.719524 -0.0586922 0
M  V30 19 C -3.35836 -0.65611 0.0124176 0
M  V30 20 H 6.78226 1.68126 -0.0515282 0
M  V30 21 H 7.47557 0.167417 0.710527 0
M  V30 22 H 3.21644 -2.17528 1.0405 0
M  V30 23 H 1.57769 -2.21174 -1.04369 0
M  V30 24 H 1.84057 -1.03376 -2.35792 0
M  V30 25 H -0.884005 -1.4338 -0.912248 0
M  V30 26 H -0.612889 -0.135821 -2.20163 0
M  V30 27 H -0.808823 1.55765 -0.499288 0
M  V30 28 H -1.14294 -0.697216 1.53888 0
M  V30 29 H 1.53473 0.463822 1.13715 0
M  V30 30 H 1.0078 -1.26028 1.18557 0
M  V30 31 H 0.307548 1.33976 2.52499 0
M  V30 32 H -1.37547 1.10739 2.72984 0
M  V30 33 H -2.93601 2.5269 -0.936231 0
M  V30 34 H -5.3938 2.39651 -1.05589 0
M  V30 35 H -6.57376 0.316051 -0.494571 0
M  V30 36 H -5.25456 -1.64627 0.192881 0
M  V30 37 H -2.81025 -1.51458 0.311282 0
M  V30 END ATOM
M  V30 BEGIN BOND
M  V30 1 1 1 2
M  V30 2 2 2 3
M  V30 3 1 3 4
M  V30 4 2 4 5
M  V30 5 1 5 6
M  V30 6 1 5 7
M  V30 7 1 7 8
M  V30 8 1 8 9
M  V30 9 1 9 10
M  V30 10 1 10 11
M  V30 11 1 11 12
M  V30 12 1 11 13
M  V30 13 1 10 14
M  V30 14 2 14 15
M  V30 15 1 15 16
M  V30 16 2 16 17
M  V30 17 1 17 18
M  V30 18 2 18 19
M  V30 19 1 6 2
M  V30 20 1 12 8
M  V30 21 1 19 14
M  V30 22 1 1 20
M  V30 23 1 1 21
M  V30 24 1 4 22
M  V30 25 1 7 23
M  V30 26 1 7 24
M  V30 27 1 9 25
M  V30 28 1 9 26
M  V30 29 1 10 27 CFG=3
M  V30 30 1 11 28 CFG=1
M  V30 31 1 12 29
M  V30 32 1 12 30
M  V30 33 1 13 31
M  V30 34 1 13 32
M  V30 35 1 15 33
M  V30 36 1 16 34
M  V30 37 1 17 35
M  V30 38 1 18 36
M  V30 39 1 19 37
M  V30 END BOND
M  V30 END CTAB
M  END
