
     RDKit          3D

  0  0  0  0  0  0  0  0  0  0999 V3000
M  V30 BEGIN CTAB
M  V30 COUNTS 51 52 0 0 0
M  V30 BEGIN ATOM
M  V30 1 N -0.746194 1.2292 -0.800549 0
M  V30 2 C -1.02444 0.671385 0.48089 0
M  V30 3 C -2.51842 0.505593 0.612829 0
M  V30 4 C -3.28705 -0.0336198 -0.396401 0
M  V30 5 C -4.65829 -0.171866 -0.24367 0
M  V30 6 C -5.30143 0.219345 0.909461 0
M  V30 7 C -4.53296 0.759262 1.92052 0
M  V30 8 C -3.18487 0.889646 1.75721 0
M  V30 9 C -6.75074 0.0934112 1.11874 0
M  V30 10 C -7.43056 0.882128 -0.00527823 0
M  V30 11 C -7.23974 -1.3305 0.994668 0
M  V30 12 C -0.307292 -0.569322 0.864908 0
M  V30 13 N 1.10525 -0.540912 0.935023 0
M  V30 14 C 2.01611 -0.305535 -0.0940584 0
M  V30 15 O 1.74769 -0.0782007 -1.30082 0
M  V30 16 C 3.4973 -0.315931 0.233508 0
M  V30 17 C 4.31782 -0.0438252 -0.998413 0
M  V30 18 C 5.76333 -0.0437136 -0.730861 0
M  V30 19 C 6.45852 1.14772 -0.683527 0
M  V30 20 C 7.83026 1.179 -0.431749 0
M  V30 21 C 8.51757 -0.00592853 -0.22362 0
M  V30 22 C 7.8221 -1.19544 -0.271135 0
M  V30 23 C 6.44658 -1.21551 -0.524381 0
M  V30 24 N 3.98183 -1.07131 -1.97394 0
M  V30 25 H -1.17975 0.76076 -1.61332 0
M  V30 26 H -0.836175 2.26266 -0.84791 0
M  V30 27 H -0.761091 1.44708 1.24296 0
M  V30 28 H -2.84911 -0.354817 -1.30941 0
M  V30 29 H -5.24066 -0.592259 -1.0365 0
M  V30 30 H -4.95621 1.09343 2.86135 0
M  V30 31 H -2.55995 1.31863 2.55549 0
M  V30 32 H -7.04393 0.466519 2.10615 0
M  V30 33 H -7.75477 1.88034 0.353134 0
M  V30 34 H -8.33642 0.351644 -0.356123 0
M  V30 35 H -6.76824 1.04526 -0.858957 0
M  V30 36 H -6.88533 -1.96756 1.8211 0
M  V30 37 H -7.03874 -1.76109 -0.0104659 0
M  V30 38 H -8.35716 -1.28336 1.0788 0
M  V30 39 H -0.680853 -1.38955 0.184253 0
M  V30 40 H -0.753201 -0.882033 1.86399 0
M  V30 41 H 1.51787 -0.725495 1.91301 0
M  V30 42 H 3.76005 -1.29317 0.681965 0
M  V30 43 H 3.72224 0.470589 0.978508 0
M  V30 44 H 3.99676 0.925551 -1.43206 0
M  V30 45 H 5.91062 2.06038 -0.847262 0
M  V30 46 H 8.3619 2.12703 -0.398067 0
M  V30 47 H 9.58583 0.0371312 -0.0288204 0
M  V30 48 H 8.34857 -2.11846 -0.110663 0
M  V30 49 H 5.92756 -2.16032 -0.555952 0
M  V30 50 H 3.57372 -0.664491 -2.84943 0
M  V30 51 H 4.77409 -1.70948 -2.17738 0
M  V30 END ATOM
M  V30 BEGIN BOND
M  V30 1 1 1 2
M  V30 2 1 2 3
M  V30 3 2 3 4
M  V30 4 1 4 5
M  V30 5 2 5 6
M  V30 6 1 6 7
M  V30 7 2 7 8
M  V30 8 1 6 9
M  V30 9 1 9 10
M  V30 10 1 9 11
M  V30 11 1 2 12
M  V30 12 1 12 13
M  V30 13 1 13 14
M  V30 14 2 14 15
M  V30 15 1 14 16
M  V30 16 1 16 17
M  V30 17 1 17 18
M  V30 18 2 18 19
M  V30 19 1 19 20
M  V30 20 2 20 21
M  V30 21 1 21 22
M  V30 22 2 22 23
M  V30 23 1 17 24
M  V30 24 1 8 3
M  V30 25 1 23 18
M  V30 26 1 1 25
M  V30 27 1 1 26
M  V30 28 1 2 27
M  V30 29 1 4 28
M  V30 30 1 5 29
M  V30 31 1 7 30
M  V30 32 1 8 31
M  V30 33 1 9 32
M  V30 34 1 10 33
M  V30 35 1 10 34
M  V30 36 1 10 35
M  V30 37 1 11 36
M  V30 38 1 11 37
M  V30 39 1 11 38
M  V30 40 1 12 39
M  V30 41 1 12 40
M  V30 42 1 13 41
M  V30 43 1 16 42
M  V30 44 1 16 43
M  V30 45 1 17 44
M  V30 46 1 19 45
M  V30 47 1 20 46
M  V30 48 1 21 47
M  V30 49 1 22 48
M  V30 50 1 23 49
M  V30 51 1 24 50
M  V30 52 1 24 51
M  V30 END BOND
M  V30 END CTAB
M  END
