
     RDKit          3D

  0  0  0  0  0  0  0  0  0  0999 V3000
M  V30 BEGIN CTAB
M  V30 COUNTS 33 34 0 0 0
M  V30 BEGIN ATOM
M  V30 1 C -1.95962 2.25885 1.34367 0
M  V30 2 C -1.51204 1.66534 0.0317583 0
M  V30 3 N -1.51141 0.231688 -0.0240307 0
M  V30 4 C -2.71268 -0.480086 -0.42594 0
M  V30 5 O -3.82229 0.0325628 -0.710472 0
M  V30 6 C -2.44698 -1.94524 -0.457262 0
M  V30 7 C -0.947527 -1.86526 -0.78303 0
M  V30 8 C -0.557382 -0.793846 0.219292 0
M  V30 9 C 0.850233 -0.545771 0.124381 0
M  V30 10 C 1.66119 -1.37081 -0.624689 0
M  V30 11 C 3.0459 -1.14683 -0.715869 0
M  V30 12 C 3.63565 -0.0930234 -0.0571121 0
M  V30 13 C 2.84087 0.751091 0.703602 0
M  V30 14 C 1.49297 0.502361 0.770222 0
M  V30 15 N 3.35077 1.8635 1.41988 0
M  V30 16 N -0.811012 -1.2615 -2.10526 0
M  V30 17 H -1.58683 3.30329 1.36866 0
M  V30 18 H -3.08218 2.35222 1.38898 0
M  V30 19 H -1.54175 1.73344 2.20826 0
M  V30 20 H -0.539203 2.1273 -0.24445 0
M  V30 21 H -2.26921 2.0364 -0.721923 0
M  V30 22 H -3.01047 -2.47099 -1.22542 0
M  V30 23 H -2.52929 -2.35707 0.557034 0
M  V30 24 H -0.464533 -2.82241 -0.658582 0
M  V30 25 H -0.755578 -1.21613 1.26428 0
M  V30 26 H 1.31657 -2.23204 -1.18141 0
M  V30 27 H 3.67768 -1.80504 -1.31094 0
M  V30 28 H 4.68621 0.126087 -0.0907996 0
M  V30 29 H 0.883254 1.13695 1.36218 0
M  V30 30 H 3.33807 1.77899 2.47525 0
M  V30 31 H 3.72324 2.72569 1.006 0
M  V30 32 H -1.24654 -0.329246 -2.06297 0
M  V30 33 H -1.19609 -1.89048 -2.8433 0
M  V30 END ATOM
M  V30 BEGIN BOND
M  V30 1 1 1 2
M  V30 2 1 2 3
M  V30 3 1 3 4
M  V30 4 2 4 5
M  V30 5 1 4 6
M  V30 6 1 6 7
M  V30 7 1 7 8
M  V30 8 1 8 9
M  V30 9 2 9 10
M  V30 10 1 10 11
M  V30 11 2 11 12
M  V30 12 1 12 13
M  V30 13 2 13 14
M  V30 14 1 13 15
M  V30 15 1 7 16
M  V30 16 1 8 3
M  V30 17 1 14 9
M  V30 18 1 1 17
M  V30 19 1 1 18
M  V30 20 1 1 19
M  V30 21 1 2 20
M  V30 22 1 2 21
M  V30 23 1 6 22
M  V30 24 1 6 23
M  V30 25 1 7 24
M  V30 26 1 8 25
M  V30 27 1 10 26
M  V30 28 1 11 27
M  V30 29 1 12 28
M  V30 30 1 14 29
M  V30 31 1 15 30
M  V30 32 1 15 31
M  V30 33 1 16 32
M  V30 34 1 16 33
M  V30 END BOND
M  V30 END CTAB
M  END
