
     RDKit          3D

  0  0  0  0  0  0  0  0  0  0999 V3000
M  V30 BEGIN CTAB
M  V30 COUNTS 35 36 0 0 0
M  V30 BEGIN ATOM
M  V30 1 C 5.35124 -1.91677 -0.0195312 0
M  V30 2 S 5.01354 -0.155277 -0.279519 0
M  V30 3 C 3.24244 0.0646089 -0.225658 0
M  V30 4 C 2.47129 -0.0289117 -1.3618 0
M  V30 5 C 1.09914 0.146355 -1.28999 0
M  V30 6 C 0.444823 0.416035 -0.115476 0
M  V30 7 C 1.22968 0.506297 1.0107 0
M  V30 8 C 2.59434 0.33566 0.961769 0
M  V30 9 N -0.971578 0.587332 -0.0999681 0
M  V30 10 C -1.51491 1.88774 -0.291278 0
M  V30 11 N -0.59908 2.97008 -0.491994 0
M  V30 12 N -2.76204 2.16478 -0.297742 0
M  V30 13 C -3.69157 1.10782 -0.100692 0
M  V30 14 N -5.09443 1.30923 -0.0903143 0
M  V30 15 N -3.25242 -0.0666157 0.0736405 0
M  V30 16 C -1.88819 -0.501454 0.101764 0
M  V30 17 C -1.66841 -1.20626 1.42074 0
M  V30 18 C -1.73826 -1.56037 -0.987706 0
M  V30 19 H 4.41728 -2.51819 0.0673921 0
M  V30 20 H 5.91271 -2.2833 -0.898617 0
M  V30 21 H 5.95188 -2.09318 0.896284 0
M  V30 22 H 2.97414 -0.241309 -2.29596 0
M  V30 23 H 0.547931 0.0625055 -2.2063 0
M  V30 24 H 0.783764 0.716199 1.97114 0
M  V30 25 H 3.15586 0.422819 1.90592 0
M  V30 26 H -0.326332 3.27993 -1.4572 0
M  V30 27 H -0.21956 3.43142 0.351257 0
M  V30 28 H -5.68951 1.00081 0.689832 0
M  V30 29 H -5.52693 1.78593 -0.903724 0
M  V30 30 H -1.6677 -0.467729 2.24882 0
M  V30 31 H -2.54629 -1.86629 1.58246 0
M  V30 32 H -0.776431 -1.86036 1.41559 0
M  V30 33 H -0.770728 -2.07847 -0.934031 0
M  V30 34 H -1.91674 -1.06251 -1.97466 0
M  V30 35 H -2.56898 -2.28854 -0.818926 0
M  V30 END ATOM
M  V30 BEGIN BOND
M  V30 1 1 1 2
M  V30 2 1 2 3
M  V30 3 2 3 4
M  V30 4 1 4 5
M  V30 5 2 5 6
M  V30 6 1 6 7
M  V30 7 2 7 8
M  V30 8 1 6 9
M  V30 9 1 9 10
M  V30 10 1 10 11
M  V30 11 2 10 12
M  V30 12 1 12 13
M  V30 13 1 13 14
M  V30 14 2 13 15
M  V30 15 1 15 16
M  V30 16 1 16 17
M  V30 17 1 16 18
M  V30 18 1 8 3
M  V30 19 1 16 9
M  V30 20 1 1 19
M  V30 21 1 1 20
M  V30 22 1 1 21
M  V30 23 1 4 22
M  V30 24 1 5 23
M  V30 25 1 7 24
M  V30 26 1 8 25
M  V30 27 1 11 26
M  V30 28 1 11 27
M  V30 29 1 14 28
M  V30 30 1 14 29
M  V30 31 1 17 30
M  V30 32 1 17 31
M  V30 33 1 17 32
M  V30 34 1 18 33
M  V30 35 1 18 34
M  V30 36 1 18 35
M  V30 END BOND
M  V30 END CTAB
M  END
