
     RDKit          3D

  0  0  0  0  0  0  0  0  0  0999 V3000
M  V30 BEGIN CTAB
M  V30 COUNTS 78 82 0 0 0
M  V30 BEGIN ATOM
M  V30 1 C -4.99604 -1.44779 -1.46391 0 CFG=2
M  V30 2 O -3.71667 -0.95812 -1.8829 0
M  V30 3 C -3.32774 -0.0794361 -0.843191 0
M  V30 4 C -4.45128 0.388361 -0.23313 0
M  V30 5 C -4.53393 1.24596 0.812255 0
M  V30 6 C -5.81832 1.62851 1.38496 0
M  V30 7 C -6.97626 0.966155 0.704391 0 CFG=1
M  V30 8 N -7.40801 1.87679 -0.365772 0
M  V30 9 C -8.65374 2.53069 -0.0529166 0
M  V30 10 C -7.4237 1.27642 -1.65863 0
M  V30 11 C -6.07123 0.72018 -2.03198 0
M  V30 12 C -5.60945 -0.196806 -0.939099 0 CFG=1
M  V30 13 C -6.70432 -0.370341 0.0662068 0 CFG=1
M  V30 14 C -6.34995 -1.38726 1.12846 0
M  V30 15 C -5.93995 -2.70764 0.513509 0
M  V30 16 C -4.82592 -2.45033 -0.419875 0
M  V30 17 O -3.79881 -3.07292 -0.301412 0
M  V30 18 C -3.3174 1.69843 1.31086 0
M  V30 19 C -2.11349 1.27387 0.746313 0
M  V30 20 C -2.13113 0.381755 -0.333618 0
M  V30 21 O -0.94483 -0.0446573 -0.898219 0
M  V30 22 C -0.301363 -1.14832 -0.369456 0
M  V30 23 O -0.825008 -1.72854 0.616007 0
M  V30 24 N 0.924502 -1.60512 -0.937842 0
M  V30 25 C 1.57112 -2.77702 -0.347257 0
M  V30 26 C 1.4605 -0.907184 -2.0716 0
M  V30 27 C 2.34302 0.209751 -1.6405 0
M  V30 28 N 3.46386 -0.239345 -0.88096 0
M  V30 29 C 4.4216 0.681971 -0.368177 0
M  V30 30 O 4.25443 1.90131 -0.602952 0
M  V30 31 C 5.58804 0.257187 0.419382 0 CFG=1
M  V30 32 N 5.52249 -1.19346 0.549646 0
M  V30 33 C 6.89761 0.585399 -0.265515 0
M  V30 34 C 8.03028 0.111226 0.621459 0
M  V30 35 C 9.36276 0.416768 -0.0226825 0
M  V30 36 N 10.4031 -0.0575225 0.867188 0
M  V30 37 C 10.5868 0.593684 2.09943 0
M  V30 38 N 11.4767 1.71945 2.11401 0
M  V30 39 N 9.97623 0.17979 3.14232 0
M  V30 40 H -5.50813 -1.81392 -2.34102 0
M  V30 41 H -5.8568 1.51281 2.4958 0
M  V30 42 H -5.92383 2.74785 1.24389 0
M  V30 43 H -7.8637 0.902781 1.39754 0
M  V30 44 H -8.59948 3.05108 0.908796 0
M  V30 45 H -9.51428 1.83175 -0.1043 0
M  V30 46 H -8.81637 3.29669 -0.841889 0
M  V30 47 H -7.61228 2.10617 -2.38645 0
M  V30 48 H -8.25971 0.569605 -1.82372 0
M  V30 49 H -5.36419 1.55459 -2.22156 0
M  V30 50 H -6.20225 0.0823765 -2.94363 0
M  V30 51 H -7.61342 -0.717114 -0.418426 0
M  V30 52 H -5.55215 -1.06749 1.79868 0
M  V30 53 H -7.27066 -1.57283 1.71847 0
M  V30 54 H -6.7772 -3.15714 -0.0815302 0
M  V30 55 H -5.63125 -3.36968 1.32796 0
M  V30 56 H -3.28348 2.37444 2.12992 0
M  V30 57 H -1.16964 1.63027 1.13852 0
M  V30 58 H 0.776569 -3.54081 -0.175296 0
M  V30 59 H 2.01944 -2.51595 0.634462 0
M  V30 60 H 2.28224 -3.19666 -1.05939 0
M  V30 61 H 0.599797 -0.456051 -2.62632 0
M  V30 62 H 1.99551 -1.62157 -2.738 0
M  V30 63 H 2.71669 0.766265 -2.53352 0
M  V30 64 H 1.75053 0.936014 -1.03567 0
M  V30 65 H 3.64336 -1.23529 -0.670532 0
M  V30 66 H 5.57 0.730782 1.40917 0
M  V30 67 H 5.96013 -1.53153 1.42279 0
M  V30 68 H 5.93138 -1.67019 -0.28146 0
M  V30 69 H 6.98051 0.0354733 -1.22466 0
M  V30 70 H 6.95388 1.67399 -0.419185 0
M  V30 71 H 7.97802 0.683953 1.57105 0
M  V30 72 H 7.94116 -0.962377 0.813735 0
M  V30 73 H 9.50061 1.50219 -0.159449 0
M  V30 74 H 9.4399 -0.113696 -1.00324 0
M  V30 75 H 11.0134 -0.866671 0.613059 0
M  V30 76 H 12.4825 1.56904 2.36708 0
M  V30 77 H 11.123 2.66085 1.87735 0
M  V30 78 H 10.1157 0.666752 4.05614 0
M  V30 END ATOM
M  V30 BEGIN BOND
M  V30 1 1 1 2
M  V30 2 1 2 3
M  V30 3 2 3 4
M  V30 4 1 4 5
M  V30 5 1 5 6
M  V30 6 1 6 7
M  V30 7 1 7 8
M  V30 8 1 8 9
M  V30 9 1 8 10
M  V30 10 1 10 11
M  V30 11 1 12 11 CFG=3
M  V30 12 1 12 13
M  V30 13 1 13 14
M  V30 14 1 14 15
M  V30 15 1 15 16
M  V30 16 2 16 17
M  V30 17 2 5 18
M  V30 18 1 18 19
M  V30 19 2 19 20
M  V30 20 1 20 21
M  V30 21 1 21 22
M  V30 22 2 22 23
M  V30 23 1 22 24
M  V30 24 1 24 25
M  V30 25 1 24 26
M  V30 26 1 26 27
M  V30 27 1 27 28
M  V30 28 1 28 29
M  V30 29 2 29 30
M  V30 30 1 29 31
M  V30 31 1 31 32
M  V30 32 1 31 33
M  V30 33 1 33 34
M  V30 34 1 34 35
M  V30 35 1 35 36
M  V30 36 1 36 37
M  V30 37 1 37 38
M  V30 38 2 37 39 CFG=2
M  V30 39 1 12 1
M  V30 40 1 16 1
M  V30 41 1 20 3
M  V30 42 1 12 4
M  V30 43 1 13 7
M  V30 44 1 1 40 CFG=3
M  V30 45 1 6 41
M  V30 46 1 6 42
M  V30 47 1 7 43 CFG=1
M  V30 48 1 9 44
M  V30 49 1 9 45
M  V30 50 1 9 46
M  V30 51 1 10 47
M  V30 52 1 10 48
M  V30 53 1 11 49
M  V30 54 1 11 50
M  V30 55 1 13 51 CFG=3
M  V30 56 1 14 52
M  V30 57 1 14 53
M  V30 58 1 15 54
M  V30 59 1 15 55
M  V30 60 1 18 56
M  V30 61 1 19 57
M  V30 62 1 25 58
M  V30 63 1 25 59
M  V30 64 1 25 60
M  V30 65 1 26 61
M  V30 66 1 26 62
M  V30 67 1 27 63
M  V30 68 1 27 64
M  V30 69 1 28 65
M  V30 70 1 31 66 CFG=1
M  V30 71 1 32 67
M  V30 72 1 32 68
M  V30 73 1 33 69
M  V30 74 1 33 70
M  V30 75 1 34 71
M  V30 76 1 34 72
M  V30 77 1 35 73
M  V30 78 1 35 74
M  V30 79 1 36 75
M  V30 80 1 38 76
M  V30 81 1 38 77
M  V30 82 1 39 78
M  V30 END BOND
M  V30 END CTAB
M  END
