
     RDKit          3D

  0  0  0  0  0  0  0  0  0  0999 V3000
M  V30 BEGIN CTAB
M  V30 COUNTS 46 47 0 0 0
M  V30 BEGIN ATOM
M  V30 1 N 5.28901 0.541943 1.25366 0
M  V30 2 C 4.84501 -0.199279 0.0958327 0
M  V30 3 C 3.35729 -0.178995 -0.0749042 0
M  V30 4 C 2.62827 -0.767815 1.08417 0
M  V30 5 C 1.17054 -1.12154 0.733304 0
M  V30 6 C 0.761403 -0.301571 -0.428667 0
M  V30 7 C 1.59052 -0.562983 -1.67476 0
M  V30 8 C 3.00031 -0.973186 -1.3142 0
M  V30 9 N -0.600209 -0.282617 -0.80127 0
M  V30 10 C -1.09255 1.04537 -0.90778 0
M  V30 11 C -2.03345 1.17309 0.281908 0 CFG=2
M  V30 12 C -2.6707 -0.173855 0.237368 0 CFG=2
M  V30 13 C -1.50219 -1.0679 -0.0417239 0
M  V30 14 C -3.59779 -0.281665 -0.987195 0
M  V30 15 C -3.39738 -0.58575 1.48398 0
M  V30 16 N -4.47369 0.263676 1.82475 0
M  V30 17 C -2.92189 2.35387 0.166163 0
M  V30 18 H 5.06152 1.54949 1.07916 0
M  V30 19 H 6.33494 0.481409 1.24925 0
M  V30 20 H 5.20296 -1.25748 0.145373 0
M  V30 21 H 5.31814 0.26488 -0.788892 0
M  V30 22 H 3.07433 0.898827 -0.210514 0
M  V30 23 H 3.1348 -1.71144 1.43455 0
M  V30 24 H 2.69402 -0.0554968 1.92733 0
M  V30 25 H 0.58781 -0.78309 1.62641 0
M  V30 26 H 1.08917 -2.19533 0.560891 0
M  V30 27 H 1.04295 0.76101 -0.134037 0
M  V30 28 H 1.70942 0.419199 -2.24482 0
M  V30 29 H 1.09324 -1.24787 -2.38835 0
M  V30 30 H 2.96011 -2.04346 -1.0258 0
M  V30 31 H 3.67623 -0.759748 -2.15733 0
M  V30 32 H -1.62752 1.26367 -1.86856 0
M  V30 33 H -0.300438 1.81022 -0.837017 0
M  V30 34 H -1.39683 1.26328 1.18786 0
M  V30 35 H -1.13167 -1.5254 0.871335 0
M  V30 36 H -1.86236 -1.93292 -0.685645 0
M  V30 37 H -3.52202 0.588547 -1.62487 0
M  V30 38 H -4.65283 -0.35302 -0.630238 0
M  V30 39 H -3.37264 -1.19638 -1.5558 0
M  V30 40 H -3.72643 -1.62539 1.39384 0
M  V30 41 H -2.64493 -0.55915 2.31073 0
M  V30 42 H -4.45038 0.880958 2.60702 0
M  V30 43 H -5.38615 0.0151482 1.4152 0
M  V30 44 H -3.5208 2.47033 1.0696 0
M  V30 45 H -2.24748 3.26804 0.157357 0
M  V30 46 H -3.48964 2.43038 -0.764129 0
M  V30 END ATOM
M  V30 BEGIN BOND
M  V30 1 1 1 2
M  V30 2 1 2 3
M  V30 3 1 3 4
M  V30 4 1 4 5
M  V30 5 1 5 6
M  V30 6 1 6 7
M  V30 7 1 7 8
M  V30 8 1 6 9
M  V30 9 1 9 10
M  V30 10 1 10 11
M  V30 11 1 11 12
M  V30 12 1 12 13
M  V30 13 1 12 14 CFG=3
M  V30 14 1 12 15
M  V30 15 1 15 16
M  V30 16 1 11 17
M  V30 17 1 8 3
M  V30 18 1 13 9
M  V30 19 1 1 18
M  V30 20 1 1 19
M  V30 21 1 2 20
M  V30 22 1 2 21
M  V30 23 1 3 22
M  V30 24 1 4 23
M  V30 25 1 4 24
M  V30 26 1 5 25
M  V30 27 1 5 26
M  V30 28 1 6 27
M  V30 29 1 7 28
M  V30 30 1 7 29
M  V30 31 1 8 30
M  V30 32 1 8 31
M  V30 33 1 10 32
M  V30 34 1 10 33
M  V30 35 1 11 34 CFG=1
M  V30 36 1 13 35
M  V30 37 1 13 36
M  V30 38 1 14 37
M  V30 39 1 14 38
M  V30 40 1 14 39
M  V30 41 1 15 40
M  V30 42 1 15 41
M  V30 43 1 16 42
M  V30 44 1 16 43
M  V30 45 1 17 44
M  V30 46 1 17 45
M  V30 47 1 17 46
M  V30 END BOND
M  V30 END CTAB
M  END
