
     RDKit          3D

  0  0  0  0  0  0  0  0  0  0999 V3000
M  V30 BEGIN CTAB
M  V30 COUNTS 71 73 0 0 0
M  V30 BEGIN ATOM
M  V30 1 N 8.5766 -1.59423 1.75206 0
M  V30 2 C 8.52622 -1.22849 0.392766 0
M  V30 3 N 9.25415 -1.8409 -0.476993 0
M  V30 4 C 7.63919 -0.149943 -0.00485676 0
M  V30 5 C 7.58273 0.219906 -1.34363 0
M  V30 6 C 6.76118 1.22743 -1.74971 0
M  V30 7 C 5.96761 1.90832 -0.86686 0
M  V30 8 C 5.0816 3.00459 -1.29778 0
M  V30 9 N 3.94924 2.43226 -1.99439 0
M  V30 10 C 2.87234 1.80179 -1.32384 0
M  V30 11 O 2.85419 1.7122 -0.0717127 0
M  V30 12 C 1.76269 1.24863 -2.14736 0
M  V30 13 N 0.732562 0.637802 -1.3592 0
M  V30 14 C -0.39072 0.0620914 -1.97275 0
M  V30 15 O -0.43637 0.113087 -3.22184 0
M  V30 16 C -1.50131 -0.592952 -1.16884 0 CFG=1
M  V30 17 C -1.88644 0.232206 -0.00103188 0
M  V30 18 C -2.38795 1.60923 -0.323466 0
M  V30 19 C -2.7372 2.31719 0.933259 0
M  V30 20 C -3.99622 2.2559 1.48395 0
M  V30 21 C -4.33835 2.90509 2.64556 0
M  V30 22 C -3.38535 3.65508 3.29824 0
M  V30 23 O -3.72393 4.32564 4.49033 0
M  V30 24 C -2.11946 3.74543 2.78846 0
M  V30 25 C -1.80627 3.08255 1.62076 0
M  V30 26 N -2.51705 -1.10549 -1.99203 0
M  V30 27 S -2.73512 -2.69197 -2.33469 0
M  V30 28 O -3.95236 -2.76793 -3.27566 0
M  V30 29 O -1.64175 -3.30209 -3.22352 0
M  V30 30 C -3.09075 -3.82423 -1.0378 0
M  V30 31 C -4.33496 -3.573 -0.300128 0
M  V30 32 C -4.34059 -2.8363 0.851621 0
M  V30 33 C -5.49128 -2.57615 1.57308 0
M  V30 34 C -6.68642 -3.06116 1.1434 0
M  V30 35 N -7.90222 -2.81334 1.86341 0
M  V30 36 C -6.72217 -3.81059 -0.0167052 0
M  V30 37 C -5.56383 -4.05953 -0.722822 0
M  V30 38 C 6.02517 1.54108 0.456148 0
M  V30 39 C 6.85673 0.514231 0.89717 0
M  V30 40 H 8.77557 -0.905694 2.47158 0
M  V30 41 H 8.40772 -2.57579 2.00635 0
M  V30 42 H 9.88243 -2.60662 -0.186797 0
M  V30 43 H 8.19054 -0.284922 -2.09199 0
M  V30 44 H 6.73843 1.49437 -2.80464 0
M  V30 45 H 5.64795 3.70637 -1.93665 0
M  V30 46 H 4.75563 3.59715 -0.415166 0
M  V30 47 H 3.96194 2.50711 -3.04397 0
M  V30 48 H 2.2519 0.512837 -2.85083 0
M  V30 49 H 1.37198 2.05188 -2.78525 0
M  V30 50 H 0.820479 0.622525 -0.328264 0
M  V30 51 H -0.969225 -1.49106 -0.775212 0
M  V30 52 H -1.02162 0.388066 0.711646 0
M  V30 53 H -2.6769 -0.262484 0.582825 0
M  V30 54 H -3.29416 1.62735 -0.939784 0
M  V30 55 H -1.54019 2.17043 -0.780726 0
M  V30 56 H -4.73871 1.67812 0.984936 0
M  V30 57 H -5.34432 2.8143 3.02159 0
M  V30 58 H -4.634 4.27733 4.88192 0
M  V30 59 H -1.35867 4.3263 3.28277 0
M  V30 60 H -0.806819 3.12796 1.17858 0
M  V30 61 H -3.13614 -0.402154 -2.45042 0
M  V30 62 H -2.2805 -3.83643 -0.253799 0
M  V30 63 H -3.18717 -4.85793 -1.48532 0
M  V30 64 H -3.42709 -2.42147 1.25458 0
M  V30 65 H -5.44504 -1.98873 2.47724 0
M  V30 66 H -8.40802 -3.59798 2.30617 0
M  V30 67 H -8.24767 -1.84416 1.92302 0
M  V30 68 H -7.69732 -4.18089 -0.326667 0
M  V30 69 H -5.65904 -4.65535 -1.62638 0
M  V30 70 H 5.42424 2.04773 1.18516 0
M  V30 71 H 6.88967 0.238359 1.9391 0
M  V30 END ATOM
M  V30 BEGIN BOND
M  V30 1 1 1 2
M  V30 2 2 2 3 CFG=2
M  V30 3 1 2 4
M  V30 4 2 4 5
M  V30 5 1 5 6
M  V30 6 2 6 7
M  V30 7 1 7 8
M  V30 8 1 8 9
M  V30 9 1 9 10
M  V30 10 2 10 11
M  V30 11 1 10 12
M  V30 12 1 12 13
M  V30 13 1 13 14
M  V30 14 2 14 15
M  V30 15 1 14 16
M  V30 16 1 16 17
M  V30 17 1 17 18
M  V30 18 1 18 19
M  V30 19 2 19 20
M  V30 20 1 20 21
M  V30 21 2 21 22
M  V30 22 1 22 23
M  V30 23 1 22 24
M  V30 24 2 24 25
M  V30 25 1 16 26
M  V30 26 1 26 27
M  V30 27 2 27 28
M  V30 28 2 27 29
M  V30 29 1 27 30
M  V30 30 1 30 31
M  V30 31 2 31 32
M  V30 32 1 32 33
M  V30 33 2 33 34
M  V30 34 1 34 35
M  V30 35 1 34 36
M  V30 36 2 36 37
M  V30 37 1 7 38
M  V30 38 2 38 39
M  V30 39 1 39 4
M  V30 40 1 25 19
M  V30 41 1 37 31
M  V30 42 1 1 40
M  V30 43 1 1 41
M  V30 44 1 3 42
M  V30 45 1 5 43
M  V30 46 1 6 44
M  V30 47 1 8 45
M  V30 48 1 8 46
M  V30 49 1 9 47
M  V30 50 1 12 48
M  V30 51 1 12 49
M  V30 52 1 13 50
M  V30 53 1 16 51 CFG=1
M  V30 54 1 17 52
M  V30 55 1 17 53
M  V30 56 1 18 54
M  V30 57 1 18 55
M  V30 58 1 20 56
M  V30 59 1 21 57
M  V30 60 1 23 58
M  V30 61 1 24 59
M  V30 62 1 25 60
M  V30 63 1 26 61
M  V30 64 1 30 62
M  V30 65 1 30 63
M  V30 66 1 32 64
M  V30 67 1 33 65
M  V30 68 1 35 66
M  V30 69 1 35 67
M  V30 70 1 36 68
M  V30 71 1 37 69
M  V30 72 1 38 70
M  V30 73 1 39 71
M  V30 END BOND
M  V30 END CTAB
M  END
