
     RDKit          3D

  0  0  0  0  0  0  0  0  0  0999 V3000
M  V30 BEGIN CTAB
M  V30 COUNTS 42 44 0 0 0
M  V30 BEGIN ATOM
M  V30 1 C -2.22634 0.561433 2.05507 0
M  V30 2 C -3.17693 0.151388 0.936939 0
M  V30 3 C -4.18122 1.32494 0.866015 0
M  V30 4 N -3.91885 -1.01078 1.28835 0
M  V30 5 C -4.08404 -2.02381 0.537207 0
M  V30 6 N -4.87798 -3.09213 1.09516 0
M  V30 7 N -3.51006 -2.14072 -0.755406 0
M  V30 8 C -2.78491 -1.13588 -1.13531 0
M  V30 9 N -2.16323 -1.1546 -2.43317 0
M  V30 10 N -2.52266 -0.00623437 -0.331297 0
M  V30 11 O -1.63586 0.938887 -0.793062 0
M  V30 12 C -0.334744 0.544122 -0.530431 0
M  V30 13 C 0.644822 1.58783 -1.03968 0
M  V30 14 N 1.97935 1.11782 -0.735983 0
M  V30 15 C 2.70768 1.38946 0.470144 0
M  V30 16 O 2.24734 2.0843 1.41475 0
M  V30 17 C 4.00189 0.749813 0.402552 0
M  V30 18 C 4.05615 0.104604 -0.818428 0
M  V30 19 C 5.19584 -0.582794 -1.12246 0
M  V30 20 C 6.28581 -0.670023 -0.290062 0
M  V30 21 C 6.21119 -0.016065 0.929392 0
M  V30 22 C 5.07524 0.685094 1.26399 0
M  V30 23 C 2.82009 0.306509 -1.55954 0
M  V30 24 O 2.56254 -0.153232 -2.70246 0
M  V30 25 H -1.75289 1.49973 1.77772 0
M  V30 26 H -2.871 0.786023 2.94895 0
M  V30 27 H -1.53616 -0.220445 2.35998 0
M  V30 28 H -5.0781 1.05184 0.311011 0
M  V30 29 H -4.46902 1.536 1.90401 0
M  V30 30 H -3.67503 2.18317 0.398961 0
M  V30 31 H -4.63841 -4.07772 0.891592 0
M  V30 32 H -5.69693 -2.88225 1.70601 0
M  V30 33 H -1.91961 -0.305035 -2.96519 0
M  V30 34 H -1.95718 -2.08443 -2.83812 0
M  V30 35 H -0.150921 -0.392808 -1.10322 0
M  V30 36 H -0.115344 0.304738 0.509142 0
M  V30 37 H 0.493689 1.71239 -2.12039 0
M  V30 38 H 0.478858 2.53694 -0.466021 0
M  V30 39 H 5.2454 -1.08626 -2.06855 0
M  V30 40 H 7.18674 -1.23427 -0.571475 0
M  V30 41 H 7.06461 -0.0841406 1.58159 0
M  V30 42 H 5.02018 1.19661 2.22086 0
M  V30 END ATOM
M  V30 BEGIN BOND
M  V30 1 1 1 2
M  V30 2 1 2 3
M  V30 3 1 2 4
M  V30 4 2 4 5
M  V30 5 1 5 6
M  V30 6 1 5 7
M  V30 7 2 7 8
M  V30 8 1 8 9
M  V30 9 1 8 10
M  V30 10 1 10 11
M  V30 11 1 11 12
M  V30 12 1 12 13
M  V30 13 1 13 14
M  V30 14 1 14 15
M  V30 15 2 15 16
M  V30 16 1 15 17
M  V30 17 2 17 18
M  V30 18 1 18 19
M  V30 19 2 19 20
M  V30 20 1 20 21
M  V30 21 2 21 22
M  V30 22 1 18 23
M  V30 23 2 23 24
M  V30 24 1 10 2
M  V30 25 1 23 14
M  V30 26 1 22 17
M  V30 27 1 1 25
M  V30 28 1 1 26
M  V30 29 1 1 27
M  V30 30 1 3 28
M  V30 31 1 3 29
M  V30 32 1 3 30
M  V30 33 1 6 31
M  V30 34 1 6 32
M  V30 35 1 9 33
M  V30 36 1 9 34
M  V30 37 1 12 35
M  V30 38 1 12 36
M  V30 39 1 13 37
M  V30 40 1 13 38
M  V30 41 1 19 39
M  V30 42 1 20 40
M  V30 43 1 21 41
M  V30 44 1 22 42
M  V30 END BOND
M  V30 END CTAB
M  END
