
     RDKit          3D

  0  0  0  0  0  0  0  0  0  0999 V3000
M  V30 BEGIN CTAB
M  V30 COUNTS 26 26 0 0 0
M  V30 BEGIN ATOM
M  V30 1 C 3.6421 1.29558 1.13498 0
M  V30 2 O 2.44968 0.659867 0.665475 0
M  V30 3 C 2.51427 -0.563835 0.0528301 0
M  V30 4 O 3.6743 -1.08314 -0.068137 0
M  V30 5 C 1.40226 -1.3452 -0.479988 0
M  V30 6 C 0.0993794 -0.686015 -0.464001 0
M  V30 7 C -0.810639 -1.07217 0.499987 0
M  V30 8 C -2.06885 -0.518238 0.603218 0
M  V30 9 N -3.00409 -0.917232 1.59381 0
M  V30 10 C -2.38976 0.463403 -0.320202 0
M  V30 11 C -1.47622 0.845792 -1.28184 0
M  V30 12 C -0.219187 0.290665 -1.38328 0
M  V30 13 O 0.686391 0.699522 -2.37015 0
M  V30 14 N -3.67572 1.04559 -0.233567 0
M  V30 15 H 4.49524 0.558551 1.07086 0
M  V30 16 H 3.90454 2.08909 0.399635 0
M  V30 17 H 3.53191 1.73879 2.12333 0
M  V30 18 H 1.37124 -2.32026 0.0612328 0
M  V30 19 H 1.61794 -1.61269 -1.5558 0
M  V30 20 H -0.561783 -1.84185 1.22624 0
M  V30 21 H -3.83276 -1.46842 1.29016 0
M  V30 22 H -2.89187 -0.682618 2.5925 0
M  V30 23 H -1.75486 1.6207 -1.99568 0
M  V30 24 H 1.60576 0.304594 -2.45369 0
M  V30 25 H -3.78434 2.07886 -0.249343 0
M  V30 26 H -4.52493 0.420675 -0.153019 0
M  V30 END ATOM
M  V30 BEGIN BOND
M  V30 1 1 1 2
M  V30 2 1 2 3
M  V30 3 2 3 4
M  V30 4 1 3 5
M  V30 5 1 5 6
M  V30 6 2 6 7
M  V30 7 1 7 8
M  V30 8 1 8 9
M  V30 9 2 8 10
M  V30 10 1 10 11
M  V30 11 2 11 12
M  V30 12 1 12 13
M  V30 13 1 10 14
M  V30 14 1 12 6
M  V30 15 1 1 15
M  V30 16 1 1 16
M  V30 17 1 1 17
M  V30 18 1 5 18
M  V30 19 1 5 19
M  V30 20 1 7 20
M  V30 21 1 9 21
M  V30 22 1 9 22
M  V30 23 1 11 23
M  V30 24 1 13 24
M  V30 25 1 14 25
M  V30 26 1 14 26
M  V30 END BOND
M  V30 END CTAB
M  END
