
     RDKit          3D

  0  0  0  0  0  0  0  0  0  0999 V3000
M  V30 BEGIN CTAB
M  V30 COUNTS 16 15 0 0 0
M  V30 BEGIN ATOM
M  V30 1 N 3.14276 -0.0766384 -0.151088 0
M  V30 2 C 1.78295 -0.504171 -0.173554 0
M  V30 3 S 1.45975 -2.10104 -0.080069 0
M  V30 4 C 0.654017 0.451176 -0.278802 0
M  V30 5 C -0.630959 -0.306785 -0.276481 0
M  V30 6 C -1.82338 0.542563 -0.377069 0
M  V30 7 N -3.10014 -0.0668449 -0.384179 0
M  V30 8 S -1.74931 2.17784 -0.48263 0
M  V30 9 H 3.84692 -0.675995 0.314559 0
M  V30 10 H 3.44672 0.821529 -0.590039 0
M  V30 11 H 0.679786 1.22273 0.516729 0
M  V30 12 H 0.812016 1.00217 -1.24989 0
M  V30 13 H -0.648616 -0.933427 0.644399 0
M  V30 14 H -0.621821 -0.962348 -1.1968 0
M  V30 15 H -3.27794 -1.06436 -0.124562 0
M  V30 16 H -3.97275 0.473605 -0.662301 0
M  V30 END ATOM
M  V30 BEGIN BOND
M  V30 1 1 1 2
M  V30 2 2 2 3
M  V30 3 1 2 4
M  V30 4 1 4 5
M  V30 5 1 5 6
M  V30 6 1 6 7
M  V30 7 2 6 8
M  V30 8 1 1 9
M  V30 9 1 1 10
M  V30 10 1 4 11
M  V30 11 1 4 12
M  V30 12 1 5 13
M  V30 13 1 5 14
M  V30 14 1 7 15
M  V30 15 1 7 16
M  V30 END BOND
M  V30 END CTAB
M  END
