
     RDKit          3D

  0  0  0  0  0  0  0  0  0  0999 V3000
M  V30 BEGIN CTAB
M  V30 COUNTS 31 31 0 0 0
M  V30 BEGIN ATOM
M  V30 1 N -3.87588 1.53968 0.242758 0
M  V30 2 C -2.78233 0.70883 -0.230531 0
M  V30 3 C -1.78227 0.60449 0.885193 0
M  V30 4 N -0.630612 -0.193795 0.567495 0
M  V30 5 C -0.930211 -1.58375 0.415736 0
M  V30 6 C 0.329332 -2.38456 0.252732 0
M  V30 7 C 1.54924 -1.72343 0.808245 0
M  V30 8 O 2.11241 -0.865452 -0.138308 0
M  V30 9 C 1.56735 0.397543 -0.0986562 0 CFG=2
M  V30 10 C 0.112554 0.281055 -0.551788 0
M  V30 11 S 2.48627 1.41515 -1.24742 0
M  V30 12 O 2.41772 0.849825 -2.62752 0
M  V30 13 O 1.89984 2.79313 -1.2895 0
M  V30 14 N 4.12856 1.46094 -0.759563 0
M  V30 15 H -4.23314 1.23395 1.16079 0
M  V30 16 H -4.65985 1.59423 -0.446347 0
M  V30 17 H -3.22775 -0.265714 -0.506021 0
M  V30 18 H -2.32917 1.14964 -1.12117 0
M  V30 19 H -2.31412 0.235006 1.77749 0
M  V30 20 H -1.45008 1.64698 1.11678 0
M  V30 21 H -1.57734 -1.77878 -0.454778 0
M  V30 22 H -1.43606 -1.95407 1.34496 0
M  V30 23 H 0.219829 -3.36917 0.777098 0
M  V30 24 H 0.526299 -2.62174 -0.813863 0
M  V30 25 H 1.38205 -1.21254 1.7808 0
M  V30 26 H 2.31015 -2.50823 1.00498 0
M  V30 27 H 1.6377 0.818499 0.909717 0
M  V30 28 H -0.23187 1.24878 -0.963078 0
M  V30 29 H 0.133454 -0.447776 -1.40967 0
M  V30 30 H 4.28262 2.32853 -0.188243 0
M  V30 31 H 4.36531 0.60277 -0.198333 0
M  V30 END ATOM
M  V30 BEGIN BOND
M  V30 1 1 1 2
M  V30 2 1 2 3
M  V30 3 1 3 4
M  V30 4 1 4 5
M  V30 5 1 5 6
M  V30 6 1 6 7
M  V30 7 1 7 8
M  V30 8 1 8 9
M  V30 9 1 9 10
M  V30 10 1 9 11
M  V30 11 2 11 12
M  V30 12 2 11 13
M  V30 13 1 11 14
M  V30 14 1 10 4
M  V30 15 1 1 15
M  V30 16 1 1 16
M  V30 17 1 2 17
M  V30 18 1 2 18
M  V30 19 1 3 19
M  V30 20 1 3 20
M  V30 21 1 5 21
M  V30 22 1 5 22
M  V30 23 1 6 23
M  V30 24 1 6 24
M  V30 25 1 7 25
M  V30 26 1 7 26
M  V30 27 1 9 27 CFG=1
M  V30 28 1 10 28
M  V30 29 1 10 29
M  V30 30 1 14 30
M  V30 31 1 14 31
M  V30 END BOND
M  V30 END CTAB
M  END
