
     RDKit          3D

  0  0  0  0  0  0  0  0  0  0999 V3000
M  V30 BEGIN CTAB
M  V30 COUNTS 47 49 0 0 0
M  V30 BEGIN ATOM
M  V30 1 C -8.54115 1.28854 -1.33533 0
M  V30 2 O -8.57222 0.533568 -0.158241 0
M  V30 3 C -7.40583 0.0753017 0.458246 0
M  V30 4 C -7.56408 -0.65596 1.60899 0
M  V30 5 C -6.43825 -1.11713 2.23335 0
M  V30 6 C -5.18785 -0.841305 1.70083 0
M  V30 7 C -5.0112 -0.116244 0.558186 0
M  V30 8 C -6.16401 0.348358 -0.0692775 0
M  V30 9 C -3.73386 0.209222 -0.054615 0
M  V30 10 N -3.599 0.944355 -1.20697 0
M  V30 11 N -2.33383 1.0738 -1.51501 0
M  V30 12 C -1.59145 0.442852 -0.598569 0
M  V30 13 N -2.47531 -0.0756552 0.281002 0
M  V30 14 N -2.08139 -0.813909 1.39323 0
M  V30 15 S 0.171538 0.286578 -0.505194 0
M  V30 16 C 0.780123 -1.1583 -1.37393 0
M  V30 17 C 2.2835 -1.20246 -1.23815 0
M  V30 18 O 2.9023 -2.14787 -1.78373 0
M  V30 19 N 2.93331 -0.214169 -0.526052 0
M  V30 20 C 4.32791 -0.130372 -0.330787 0
M  V30 21 C 5.263 -0.751579 -1.10177 0
M  V30 22 C 6.63953 -0.627917 -0.815676 0
M  V30 23 C 7.10445 0.115962 0.240759 0
M  V30 24 C 6.16996 0.744239 1.02008 0
M  V30 25 C 4.83033 0.628717 0.748847 0
M  V30 26 S 8.80845 0.268264 0.593421 0
M  V30 27 O 9.0494 0.500138 2.06017 0
M  V30 28 O 9.56503 -0.963498 0.192004 0
M  V30 29 N 9.41572 1.63928 -0.266108 0
M  V30 30 H -8.30932 2.3478 -1.12468 0
M  V30 31 H -7.85011 0.856845 -2.10674 0
M  V30 32 H -9.57521 1.26249 -1.78006 0
M  V30 33 H -8.55807 -0.868936 2.02247 0
M  V30 34 H -6.52935 -1.68957 3.13142 0
M  V30 35 H -4.35363 -1.22752 2.23291 0
M  V30 36 H -6.12238 0.93432 -0.984393 0
M  V30 37 H -2.08279 -0.362377 2.3289 0
M  V30 38 H -1.79739 -1.808 1.22847 0
M  V30 39 H 0.60652 -1.00151 -2.46979 0
M  V30 40 H 0.347986 -2.11026 -1.01395 0
M  V30 41 H 2.30522 0.551126 -0.0904504 0
M  V30 42 H 4.99172 -1.34934 -1.97296 0
M  V30 43 H 7.34818 -1.1331 -1.446 0
M  V30 44 H 6.51612 1.3451 1.87032 0
M  V30 45 H 4.07403 1.11667 1.35139 0
M  V30 46 H 9.01196 1.75205 -1.2016 0
M  V30 47 H 10.4314 1.74509 -0.184954 0
M  V30 END ATOM
M  V30 BEGIN BOND
M  V30 1 1 1 2
M  V30 2 1 2 3
M  V30 3 2 3 4
M  V30 4 1 4 5
M  V30 5 2 5 6
M  V30 6 1 6 7
M  V30 7 2 7 8
M  V30 8 1 7 9
M  V30 9 2 9 10
M  V30 10 1 10 11
M  V30 11 2 11 12
M  V30 12 1 12 13
M  V30 13 1 13 14
M  V30 14 1 12 15
M  V30 15 1 15 16
M  V30 16 1 16 17
M  V30 17 2 17 18
M  V30 18 1 17 19
M  V30 19 1 19 20
M  V30 20 2 20 21
M  V30 21 1 21 22
M  V30 22 2 22 23
M  V30 23 1 23 24
M  V30 24 2 24 25
M  V30 25 1 23 26
M  V30 26 2 26 27
M  V30 27 2 26 28
M  V30 28 1 26 29
M  V30 29 1 8 3
M  V30 30 1 13 9
M  V30 31 1 25 20
M  V30 32 1 1 30
M  V30 33 1 1 31
M  V30 34 1 1 32
M  V30 35 1 4 33
M  V30 36 1 5 34
M  V30 37 1 6 35
M  V30 38 1 8 36
M  V30 39 1 14 37
M  V30 40 1 14 38
M  V30 41 1 16 39
M  V30 42 1 16 40
M  V30 43 1 19 41
M  V30 44 1 21 42
M  V30 45 1 22 43
M  V30 46 1 24 44
M  V30 47 1 25 45
M  V30 48 1 29 46
M  V30 49 1 29 47
M  V30 END BOND
M  V30 END CTAB
M  END
