
     RDKit          3D

  0  0  0  0  0  0  0  0  0  0999 V3000
M  V30 BEGIN CTAB
M  V30 COUNTS 52 54 0 0 0
M  V30 BEGIN ATOM
M  V30 1 N 8.50666 -0.467265 -1.87518 0
M  V30 2 C 7.88454 -0.421453 -0.602609 0
M  V30 3 N 8.59543 -0.713423 0.418569 0
M  V30 4 C 6.48123 -0.0527079 -0.53281 0
M  V30 5 C 5.75794 0.257594 -1.67843 0
M  V30 6 C 4.43701 0.605533 -1.67787 0
M  V30 7 C 3.73165 0.665001 -0.467759 0
M  V30 8 C 4.43067 0.364096 0.658865 0
M  V30 9 C 5.78604 0.00738109 0.651974 0
M  V30 10 C 2.34198 1.07284 -0.502174 0
M  V30 11 C 1.34562 0.44169 0.0949383 0
M  V30 12 C 1.65401 -0.790097 0.865673 0
M  V30 13 C 0.380086 -1.6349 0.832409 0
M  V30 14 C -0.571225 -1.24795 1.91335 0
M  V30 15 C -1.61631 -0.250694 1.5109 0
M  V30 16 C -1.2825 0.590051 0.371457 0
M  V30 17 C -2.2778 1.02264 -0.378169 0
M  V30 18 C -3.6846 0.749184 -0.182094 0
M  V30 19 C -4.38118 0.327188 -1.31177 0
M  V30 20 C -5.7194 0.0723733 -1.25122 0
M  V30 21 C -6.46694 0.213866 -0.0780637 0
M  V30 22 C -5.74594 0.632636 1.01816 0
M  V30 23 C -4.3948 0.893876 0.971374 0
M  V30 24 C -7.89055 -0.0725192 -0.0670836 0
M  V30 25 N -8.49806 -0.500555 -1.27557 0
M  V30 26 N -8.58481 0.0505217 0.98205 0
M  V30 27 C 0.0167312 1.05289 -0.0780016 0
M  V30 28 O 0.0317217 2.16202 -0.727518 0
M  V30 29 H 9.31112 0.158647 -2.06708 0
M  V30 30 H 8.18518 -1.10937 -2.6294 0
M  V30 31 H 8.1967 -0.697296 1.37765 0
M  V30 32 H 6.32154 0.207443 -2.61667 0
M  V30 33 H 3.90246 0.839504 -2.57517 0
M  V30 34 H 3.90588 0.413811 1.61898 0
M  V30 35 H 6.25111 -0.214133 1.6012 0
M  V30 36 H 2.05574 1.9791 -1.06264 0
M  V30 37 H 1.8282 -0.600896 1.94775 0
M  V30 38 H 2.51205 -1.36267 0.487968 0
M  V30 39 H 0.7058 -2.67629 1.00833 0
M  V30 40 H -0.0869684 -1.55413 -0.167454 0
M  V30 41 H -1.04347 -2.1486 2.31379 0
M  V30 42 H 0.02333 -0.811257 2.756 0
M  V30 43 H -1.78887 0.403054 2.39134 0
M  V30 44 H -2.55027 -0.86121 1.33959 0
M  V30 45 H -2.05567 1.66847 -1.26044 0
M  V30 46 H -3.8446 0.196197 -2.26785 0
M  V30 47 H -6.2667 -0.257 -2.13472 0
M  V30 48 H -6.29123 0.759585 1.97321 0
M  V30 49 H -3.9108 1.22507 1.86882 0
M  V30 50 H -8.07475 -1.2959 -1.78512 0
M  V30 51 H -9.34308 -0.00677297 -1.61009 0
M  V30 52 H -8.20991 0.355124 1.88861 0
M  V30 END ATOM
M  V30 BEGIN BOND
M  V30 1 1 1 2
M  V30 2 2 2 3 CFG=2
M  V30 3 1 2 4
M  V30 4 2 4 5
M  V30 5 1 5 6
M  V30 6 2 6 7
M  V30 7 1 7 8
M  V30 8 2 8 9
M  V30 9 1 7 10
M  V30 10 2 10 11
M  V30 11 1 11 12
M  V30 12 1 12 13
M  V30 13 1 13 14
M  V30 14 1 14 15
M  V30 15 1 15 16
M  V30 16 2 16 17
M  V30 17 1 17 18
M  V30 18 2 18 19
M  V30 19 1 19 20
M  V30 20 2 20 21
M  V30 21 1 21 22
M  V30 22 2 22 23
M  V30 23 1 21 24
M  V30 24 1 24 25
M  V30 25 2 24 26 CFG=2
M  V30 26 1 16 27
M  V30 27 2 27 28
M  V30 28 1 9 4
M  V30 29 1 27 11
M  V30 30 1 23 18
M  V30 31 1 1 29
M  V30 32 1 1 30
M  V30 33 1 3 31
M  V30 34 1 5 32
M  V30 35 1 6 33
M  V30 36 1 8 34
M  V30 37 1 9 35
M  V30 38 1 10 36
M  V30 39 1 12 37
M  V30 40 1 12 38
M  V30 41 1 13 39
M  V30 42 1 13 40
M  V30 43 1 14 41
M  V30 44 1 14 42
M  V30 45 1 15 43
M  V30 46 1 15 44
M  V30 47 1 17 45
M  V30 48 1 19 46
M  V30 49 1 20 47
M  V30 50 1 22 48
M  V30 51 1 23 49
M  V30 52 1 25 50
M  V30 53 1 25 51
M  V30 54 1 26 52
M  V30 END BOND
M  V30 END CTAB
M  END
