
     RDKit          3D

  0  0  0  0  0  0  0  0  0  0999 V3000
M  V30 BEGIN CTAB
M  V30 COUNTS 22 22 0 0 0
M  V30 BEGIN ATOM
M  V30 1 N -4.35741 0.741245 -0.534742 0
M  V30 2 N -3.10413 1.01113 -0.0329028 0
M  V30 3 C -2.25717 0.144634 0.354077 0
M  V30 4 S -0.690551 0.721068 0.976252 0
M  V30 5 C 0.491304 -0.591623 1.29789 0
M  V30 6 C 1.57785 -0.524002 0.269993 0
M  V30 7 C 2.75901 0.129654 0.727433 0
M  V30 8 C 3.83683 0.258646 -0.0920922 0
M  V30 9 N 3.73418 -0.26952 -1.3676 0
M  V30 10 C 2.63807 -0.88624 -1.81245 0
M  V30 11 C 1.5076 -1.01689 -0.960504 0
M  V30 12 N -2.54222 -1.26851 0.365531 0
M  V30 13 H -5.12114 0.482342 0.179864 0
M  V30 14 H -4.68938 0.757695 -1.51171 0
M  V30 15 H -0.0737869 -1.55682 1.1883 0
M  V30 16 H 0.918294 -0.533163 2.3104 0
M  V30 17 H 2.77052 0.510661 1.75618 0
M  V30 18 H 4.77215 0.742651 0.152683 0
M  V30 19 H 2.536 -1.29481 -2.79266 0
M  V30 20 H 0.596949 -1.51934 -1.32102 0
M  V30 21 H -2.79899 -1.67448 1.32537 0
M  V30 22 H -2.50399 -1.85172 -0.478302 0
M  V30 END ATOM
M  V30 BEGIN BOND
M  V30 1 1 1 2
M  V30 2 2 2 3 CFG=2
M  V30 3 1 3 4
M  V30 4 1 4 5
M  V30 5 1 5 6
M  V30 6 2 6 7
M  V30 7 1 7 8
M  V30 8 2 8 9
M  V30 9 1 9 10
M  V30 10 2 10 11
M  V30 11 1 3 12
M  V30 12 1 11 6
M  V30 13 1 1 13
M  V30 14 1 1 14
M  V30 15 1 5 15
M  V30 16 1 5 16
M  V30 17 1 7 17
M  V30 18 1 8 18
M  V30 19 1 10 19
M  V30 20 1 11 20
M  V30 21 1 12 21
M  V30 22 1 12 22
M  V30 END BOND
M  V30 END CTAB
M  END
