
     RDKit          3D

  0  0  0  0  0  0  0  0  0  0999 V3000
M  V30 BEGIN CTAB
M  V30 COUNTS 46 47 0 0 0
M  V30 BEGIN ATOM
M  V30 1 N -0.159167 -4.12776 1.44757 0
M  V30 2 C -0.00533381 -2.99673 1.25514 0
M  V30 3 C 0.180679 -1.56604 1.03581 0
M  V30 4 C 1.36854 -1.02129 1.04819 0
M  V30 5 N 1.51783 0.366822 0.832717 0
M  V30 6 C 1.99712 0.943386 -0.401238 0
M  V30 7 C 3.36505 0.420036 -0.642633 0
M  V30 8 C 3.58411 -0.721342 -1.39043 0
M  V30 9 C 4.90468 -1.12268 -1.55212 0
M  V30 10 C 5.95355 -0.434842 -1.00532 0
M  V30 11 C 5.73021 0.696979 -0.264293 0
M  V30 12 C 4.42579 1.10885 -0.0942151 0
M  V30 13 C 6.81412 1.50028 0.362781 0
M  V30 14 N 8.11581 0.958905 0.104925 0
M  V30 15 C -0.983948 -0.714991 0.795863 0
M  V30 16 O -0.873948 0.512792 0.603389 0
M  V30 17 N -2.25739 -1.31342 0.784947 0
M  V30 18 C -3.51575 -0.726266 0.580379 0
M  V30 19 C -4.64192 -1.56868 0.621155 0
M  V30 20 C -5.92081 -1.10398 0.434903 0
M  V30 21 C -6.1419 0.233609 0.196995 0
M  V30 22 C -5.04935 1.07624 0.153291 0
M  V30 23 C -3.76297 0.577877 0.345699 0
M  V30 24 S -7.74911 0.86345 -0.0445988 0
M  V30 25 O -8.78748 0.0512643 0.669153 0
M  V30 26 O -7.88568 2.2819 0.40309 0
M  V30 27 N -8.1328 0.805139 -1.7334 0
M  V30 28 H 2.26068 -1.65056 1.22827 0
M  V30 29 H 1.26858 0.995887 1.62687 0
M  V30 30 H 1.3238 0.753833 -1.26388 0
M  V30 31 H 2.08008 2.03894 -0.272903 0
M  V30 32 H 2.76741 -1.25918 -1.8177 0
M  V30 33 H 5.05422 -2.03355 -2.15095 0
M  V30 34 H 6.95509 -0.78239 -1.15691 0
M  V30 35 H 4.24559 2.01831 0.50118 0
M  V30 36 H 6.70587 2.55088 0.0171939 0
M  V30 37 H 6.63056 1.48153 1.46179 0
M  V30 38 H 8.8267 1.68462 0.364101 0
M  V30 39 H 8.28643 0.148681 0.736433 0
M  V30 40 H -2.23859 -2.37122 0.960516 0
M  V30 41 H -4.54707 -2.62564 0.802259 0
M  V30 42 H -6.77693 -1.76605 0.469449 0
M  V30 43 H -5.18751 2.1243 -0.0300903 0
M  V30 44 H -2.984 1.30457 0.293987 0
M  V30 45 H -9.1543 0.842004 -1.90907 0
M  V30 46 H -7.60655 1.56552 -2.25786 0
M  V30 END ATOM
M  V30 BEGIN BOND
M  V30 1 3 1 2
M  V30 2 1 2 3
M  V30 3 2 3 4
M  V30 4 1 4 5
M  V30 5 1 5 6
M  V30 6 1 6 7
M  V30 7 2 7 8
M  V30 8 1 8 9
M  V30 9 2 9 10
M  V30 10 1 10 11
M  V30 11 2 11 12
M  V30 12 1 11 13
M  V30 13 1 13 14
M  V30 14 1 3 15
M  V30 15 2 15 16
M  V30 16 1 15 17
M  V30 17 1 17 18
M  V30 18 2 18 19
M  V30 19 1 19 20
M  V30 20 2 20 21
M  V30 21 1 21 22
M  V30 22 2 22 23
M  V30 23 1 21 24
M  V30 24 2 24 25
M  V30 25 2 24 26
M  V30 26 1 24 27
M  V30 27 1 12 7
M  V30 28 1 23 18
M  V30 29 1 4 28
M  V30 30 1 5 29
M  V30 31 1 6 30
M  V30 32 1 6 31
M  V30 33 1 8 32
M  V30 34 1 9 33
M  V30 35 1 10 34
M  V30 36 1 12 35
M  V30 37 1 13 36
M  V30 38 1 13 37
M  V30 39 1 14 38
M  V30 40 1 14 39
M  V30 41 1 17 40
M  V30 42 1 19 41
M  V30 43 1 20 42
M  V30 44 1 22 43
M  V30 45 1 23 44
M  V30 46 1 27 45
M  V30 47 1 27 46
M  V30 END BOND
M  V30 END CTAB
M  END
