
     RDKit          3D

  0  0  0  0  0  0  0  0  0  0999 V3000
M  V30 BEGIN CTAB
M  V30 COUNTS 19 19 0 0 0
M  V30 BEGIN ATOM
M  V30 1 C 2.57305 -1.31636 0.462261 0
M  V30 2 N 1.56737 -0.269428 0.287121 0
M  V30 3 C 0.240026 -0.597718 0.0324317 0
M  V30 4 O 0.00239988 -1.85053 -0.0295912 0
M  V30 5 C -0.871221 0.381898 -0.163533 0
M  V30 6 C -2.1384 -0.0662184 -0.408537 0
M  V30 7 N -2.55239 -1.46113 -0.505774 0
M  V30 8 N -3.07564 0.862871 -0.572393 0
M  V30 9 S -2.30247 2.32142 -0.406584 0
M  V30 10 C -0.702533 1.72784 -0.113206 0
M  V30 11 N 0.45814 2.54564 0.116822 0
M  V30 12 H 2.10905 -2.32063 0.494579 0
M  V30 13 H 3.37469 -1.24299 -0.307835 0
M  V30 14 H 3.07912 -1.16553 1.4409 0
M  V30 15 H 1.90616 0.6913 0.364197 0
M  V30 16 H -3.25504 -1.8341 0.145861 0
M  V30 17 H -2.14285 -2.06976 -1.22378 0
M  V30 18 H 0.671297 2.87495 1.06308 0
M  V30 19 H 1.05926 2.78848 -0.676019 0
M  V30 END ATOM
M  V30 BEGIN BOND
M  V30 1 1 1 2
M  V30 2 1 2 3
M  V30 3 2 3 4
M  V30 4 1 3 5
M  V30 5 1 5 6
M  V30 6 1 6 7
M  V30 7 2 6 8
M  V30 8 1 8 9
M  V30 9 1 9 10
M  V30 10 1 10 11
M  V30 11 2 10 5
M  V30 12 1 1 12
M  V30 13 1 1 13
M  V30 14 1 1 14
M  V30 15 1 2 15
M  V30 16 1 7 16
M  V30 17 1 7 17
M  V30 18 1 11 18
M  V30 19 1 11 19
M  V30 END BOND
M  V30 END CTAB
M  END
