
     RDKit          3D

  0  0  0  0  0  0  0  0  0  0999 V3000
M  V30 BEGIN CTAB
M  V30 COUNTS 21 22 0 0 0
M  V30 BEGIN ATOM
M  V30 1 N -3.10969 -0.146739 -0.248123 0
M  V30 2 C -1.74841 -0.496657 -0.114439 0
M  V30 3 C -1.32307 -1.80521 -0.00505175 0
M  V30 4 C 0.0179365 -2.10194 0.123944 0
M  V30 5 C 0.964325 -1.10067 0.146723 0
M  V30 6 N 2.2879 -1.36601 0.272494 0
M  V30 7 C 3.18163 -0.360765 0.290644 0
M  V30 8 C 2.76916 0.941626 0.182681 0
M  V30 9 C 1.43941 1.26534 0.0531031 0
M  V30 10 C 0.525493 0.221778 0.0354237 0
M  V30 11 C -0.818333 0.522616 -0.0940435 0
M  V30 12 N -1.21364 1.8749 -0.203398 0
M  V30 13 H -3.67819 0.265477 0.549358 0
M  V30 14 H -3.66053 -0.266445 -1.14021 0
M  V30 15 H -2.05261 -2.59929 -0.0213702 0
M  V30 16 H 0.385479 -3.12561 0.212411 0
M  V30 17 H 4.25466 -0.543287 0.390768 0
M  V30 18 H 3.4845 1.77604 0.195523 0
M  V30 19 H 1.07522 2.27657 -0.0344077 0
M  V30 20 H -1.75387 2.14805 -1.06799 0
M  V30 21 H -1.02736 2.62022 0.475959 0
M  V30 END ATOM
M  V30 BEGIN BOND
M  V30 1 1 1 2
M  V30 2 2 2 3
M  V30 3 1 3 4
M  V30 4 2 4 5
M  V30 5 1 5 6
M  V30 6 2 6 7
M  V30 7 1 7 8
M  V30 8 2 8 9
M  V30 9 1 9 10
M  V30 10 2 10 11
M  V30 11 1 11 12
M  V30 12 1 11 2
M  V30 13 1 10 5
M  V30 14 1 1 13
M  V30 15 1 1 14
M  V30 16 1 3 15
M  V30 17 1 4 16
M  V30 18 1 7 17
M  V30 19 1 8 18
M  V30 20 1 9 19
M  V30 21 1 12 20
M  V30 22 1 12 21
M  V30 END BOND
M  V30 END CTAB
M  END
