
     RDKit          3D

  0  0  0  0  0  0  0  0  0  0999 V3000
M  V30 BEGIN CTAB
M  V30 COUNTS 44 46 0 0 0
M  V30 BEGIN ATOM
M  V30 1 O -1.33345 1.07695 1.04962 0
M  V30 2 C -1.28587 -0.128143 0.637303 0
M  V30 3 N -0.155599 -0.912514 0.948058 0
M  V30 4 C 0.885294 -0.388632 1.793 0
M  V30 5 C 2.0149 0.186056 1.03712 0
M  V30 6 C 2.11669 1.34141 0.298881 0
M  V30 7 N 3.36478 1.4223 -0.182828 0
M  V30 8 N 4.09243 0.382587 0.195859 0
M  V30 9 C 3.28751 -0.390702 0.945911 0
M  V30 10 C 5.45383 0.195396 -0.167213 0
M  V30 11 C 5.82162 0.0358425 -1.48452 0
M  V30 12 C 7.12116 -0.154253 -1.85511 0
M  V30 13 C 8.11176 -0.191605 -0.891059 0
M  V30 14 C 7.76638 -0.0343549 0.442048 0
M  V30 15 C 6.46642 0.152317 0.772068 0
M  V30 16 C -0.0435302 -2.27047 0.364186 0
M  V30 17 C -2.44464 -0.627788 -0.15102 0
M  V30 18 S -3.8684 -0.910836 0.959874 0
M  V30 19 C -5.29824 -0.0725186 0.309476 0
M  V30 20 N -5.33862 0.569412 -0.85993 0
M  V30 21 C -6.46615 1.18207 -1.30755 0
M  V30 22 N -6.51325 1.82768 -2.57169 0
M  V30 23 N -7.57706 1.15278 -0.568101 0
M  V30 24 C -7.58236 0.508691 0.634344 0
M  V30 25 N -6.44928 -0.0823454 1.03511 0
M  V30 26 N -8.75011 0.478092 1.44575 0
M  V30 27 H 0.460622 0.44537 2.39567 0
M  V30 28 H 1.2164 -1.20497 2.46533 0
M  V30 29 H 1.34434 2.0626 0.136122 0
M  V30 30 H 3.63443 -1.30764 1.38666 0
M  V30 31 H 5.06571 0.0584573 -2.25708 0
M  V30 32 H 7.43262 -0.285022 -2.89304 0
M  V30 33 H 9.14908 -0.339802 -1.17339 0
M  V30 34 H 8.53331 -0.0615496 1.20544 0
M  V30 35 H 6.11338 0.278505 1.80776 0
M  V30 36 H -1.01926 -2.75317 0.246367 0
M  V30 37 H 0.475083 -2.1473 -0.622972 0
M  V30 38 H 0.572256 -2.8658 1.06065 0
M  V30 39 H -2.21025 -1.48762 -0.779101 0
M  V30 40 H -2.75017 0.220271 -0.836772 0
M  V30 41 H -6.44239 2.8473 -2.62566 0
M  V30 42 H -6.62256 1.25365 -3.4254 0
M  V30 43 H -8.92081 1.23646 2.12538 0
M  V30 44 H -9.428 -0.297155 1.3599 0
M  V30 END ATOM
M  V30 BEGIN BOND
M  V30 1 2 1 2
M  V30 2 1 2 3
M  V30 3 1 3 4
M  V30 4 1 4 5
M  V30 5 1 5 6
M  V30 6 2 6 7
M  V30 7 1 7 8
M  V30 8 1 8 9
M  V30 9 1 8 10
M  V30 10 2 10 11
M  V30 11 1 11 12
M  V30 12 2 12 13
M  V30 13 1 13 14
M  V30 14 2 14 15
M  V30 15 1 3 16
M  V30 16 1 2 17
M  V30 17 1 17 18
M  V30 18 1 18 19
M  V30 19 2 19 20
M  V30 20 1 20 21
M  V30 21 1 21 22
M  V30 22 2 21 23
M  V30 23 1 23 24
M  V30 24 2 24 25
M  V30 25 1 24 26
M  V30 26 2 9 5
M  V30 27 1 15 10
M  V30 28 1 25 19
M  V30 29 1 4 27
M  V30 30 1 4 28
M  V30 31 1 6 29
M  V30 32 1 9 30
M  V30 33 1 11 31
M  V30 34 1 12 32
M  V30 35 1 13 33
M  V30 36 1 14 34
M  V30 37 1 15 35
M  V30 38 1 16 36
M  V30 39 1 16 37
M  V30 40 1 16 38
M  V30 41 1 17 39
M  V30 42 1 17 40
M  V30 43 1 22 41
M  V30 44 1 22 42
M  V30 45 1 26 43
M  V30 46 1 26 44
M  V30 END BOND
M  V30 END CTAB
M  END
