
     RDKit          3D

  0  0  0  0  0  0  0  0  0  0999 V3000
M  V30 BEGIN CTAB
M  V30 COUNTS 35 35 0 0 0
M  V30 BEGIN ATOM
M  V30 1 C -6.15485 0.408624 0.21724 0
M  V30 2 C -4.66957 0.687537 0.0301834 0
M  V30 3 C -3.92432 -0.621121 -0.00573729 0
M  V30 4 C -2.46879 -0.36993 -0.204549 0
M  V30 5 C -1.81443 0.455367 0.867095 0
M  V30 6 N -0.404771 0.670888 0.643374 0
M  V30 7 C 0.572817 -0.336528 0.570503 0
M  V30 8 O 0.192508 -1.54056 0.717255 0
M  V30 9 C 1.98246 -0.0532165 0.336629 0
M  V30 10 C 2.88624 -1.10276 0.279995 0
M  V30 11 C 4.22817 -0.945158 0.0657805 0
M  V30 12 N 5.08961 -2.08858 0.0226521 0
M  V30 13 C 4.71242 0.336073 -0.104372 0
M  V30 14 N 6.11079 0.483795 -0.326373 0
M  V30 15 C 3.85901 1.42093 -0.0580126 0
M  V30 16 C 2.49419 1.20732 0.163902 0
M  V30 17 H -6.36145 -0.61847 -0.187374 0
M  V30 18 H -6.38167 0.479696 1.29418 0
M  V30 19 H -6.78561 1.13592 -0.309536 0
M  V30 20 H -4.48597 1.29912 -0.85876 0
M  V30 21 H -4.30718 1.27984 0.920792 0
M  V30 22 H -4.27817 -1.18859 -0.905108 0
M  V30 23 H -4.0613 -1.20308 0.918493 0
M  V30 24 H -2.33446 0.117229 -1.21408 0
M  V30 25 H -1.96496 -1.35155 -0.308808 0
M  V30 26 H -2.32604 1.43819 0.935487 0
M  V30 27 H -1.96981 -0.127199 1.82657 0
M  V30 28 H -0.0892074 1.68259 0.524469 0
M  V30 29 H 2.49197 -2.10139 0.415161 0
M  V30 30 H 4.73926 -2.94667 -0.430821 0
M  V30 31 H 6.04372 -2.03662 0.444206 0
M  V30 32 H 6.50404 0.170627 -1.24568 0
M  V30 33 H 6.77031 0.886074 0.372408 0
M  V30 34 H 4.25259 2.41327 -0.192585 0
M  V30 35 H 1.85244 2.05831 0.196072 0
M  V30 END ATOM
M  V30 BEGIN BOND
M  V30 1 1 1 2
M  V30 2 1 2 3
M  V30 3 1 3 4
M  V30 4 1 4 5
M  V30 5 1 5 6
M  V30 6 1 6 7
M  V30 7 2 7 8
M  V30 8 1 7 9
M  V30 9 2 9 10
M  V30 10 1 10 11
M  V30 11 1 11 12
M  V30 12 2 11 13
M  V30 13 1 13 14
M  V30 14 1 13 15
M  V30 15 2 15 16
M  V30 16 1 16 9
M  V30 17 1 1 17
M  V30 18 1 1 18
M  V30 19 1 1 19
M  V30 20 1 2 20
M  V30 21 1 2 21
M  V30 22 1 3 22
M  V30 23 1 3 23
M  V30 24 1 4 24
M  V30 25 1 4 25
M  V30 26 1 5 26
M  V30 27 1 5 27
M  V30 28 1 6 28
M  V30 29 1 10 29
M  V30 30 1 12 30
M  V30 31 1 12 31
M  V30 32 1 14 32
M  V30 33 1 14 33
M  V30 34 1 15 34
M  V30 35 1 16 35
M  V30 END BOND
M  V30 END CTAB
M  END
