
     RDKit          3D

  0  0  0  0  0  0  0  0  0  0999 V3000
M  V30 BEGIN CTAB
M  V30 COUNTS 38 38 0 0 0
M  V30 BEGIN ATOM
M  V30 1 N -1.94016 2.21811 -0.888236 0
M  V30 2 C -2.45404 1.53662 0.284817 0
M  V30 3 C -1.71173 0.230797 0.415828 0
M  V30 4 C -1.94545 -0.585959 -0.811525 0
M  V30 5 C -3.37973 -1.07354 -0.589517 0
M  V30 6 C -3.58315 -1.09481 0.907079 0
M  V30 7 C -2.2813 -0.630147 1.52671 0
M  V30 8 C -0.288274 0.458617 0.730836 0
M  V30 9 O 0.0857745 1.62962 0.877353 0
M  V30 10 N 0.601496 -0.6196 0.858061 0
M  V30 11 C 1.99865 -0.608446 1.14557 0
M  V30 12 C 2.91515 0.0371719 0.183465 0
M  V30 13 N 2.75355 1.41256 -0.0980793 0
M  V30 14 C 4.35022 -0.159567 0.708738 0
M  V30 15 C 2.92633 -0.685444 -1.17286 0
M  V30 16 H -1.08095 1.79446 -1.28228 0
M  V30 17 H -1.7748 3.22575 -0.725787 0
M  V30 18 H -3.52307 1.37757 0.165837 0
M  V30 19 H -2.19414 2.16661 1.1722 0
M  V30 20 H -1.25481 -1.45013 -0.90533 0
M  V30 21 H -1.98692 0.0281195 -1.73455 0
M  V30 22 H -4.10127 -0.317095 -0.994533 0
M  V30 23 H -3.56346 -2.05134 -1.03036 0
M  V30 24 H -4.43808 -0.479458 1.23673 0
M  V30 25 H -3.75413 -2.13383 1.27721 0
M  V30 26 H -1.58271 -1.47844 1.67096 0
M  V30 27 H -2.41321 -0.0766376 2.45403 0
M  V30 28 H 0.206048 -1.62518 0.722328 0
M  V30 29 H 2.39394 -1.64798 1.34144 0
M  V30 30 H 2.11526 -0.0675638 2.13561 0
M  V30 31 H 3.01503 2.06932 0.64382 0
M  V30 32 H 2.91465 1.71602 -1.06276 0
M  V30 33 H 4.51103 -1.25594 0.834435 0
M  V30 34 H 5.00627 0.239359 -0.0976116 0
M  V30 35 H 4.52759 0.418902 1.61358 0
M  V30 36 H 2.07866 -0.397636 -1.79195 0
M  V30 37 H 2.98473 -1.76217 -0.931445 0
M  V30 38 H 3.86699 -0.358678 -1.66858 0
M  V30 END ATOM
M  V30 BEGIN BOND
M  V30 1 1 1 2
M  V30 2 1 2 3
M  V30 3 1 3 4
M  V30 4 1 4 5
M  V30 5 1 5 6
M  V30 6 1 6 7
M  V30 7 1 3 8
M  V30 8 2 8 9
M  V30 9 1 8 10
M  V30 10 1 10 11
M  V30 11 1 11 12
M  V30 12 1 12 13
M  V30 13 1 12 14
M  V30 14 1 12 15
M  V30 15 1 7 3
M  V30 16 1 1 16
M  V30 17 1 1 17
M  V30 18 1 2 18
M  V30 19 1 2 19
M  V30 20 1 4 20
M  V30 21 1 4 21
M  V30 22 1 5 22
M  V30 23 1 5 23
M  V30 24 1 6 24
M  V30 25 1 6 25
M  V30 26 1 7 26
M  V30 27 1 7 27
M  V30 28 1 10 28
M  V30 29 1 11 29
M  V30 30 1 11 30
M  V30 31 1 13 31
M  V30 32 1 13 32
M  V30 33 1 14 33
M  V30 34 1 14 34
M  V30 35 1 14 35
M  V30 36 1 15 36
M  V30 37 1 15 37
M  V30 38 1 15 38
M  V30 END BOND
M  V30 END CTAB
M  END
