
     RDKit          3D

  0  0  0  0  0  0  0  0  0  0999 V3000
M  V30 BEGIN CTAB
M  V30 COUNTS 15 15 0 0 0
M  V30 BEGIN ATOM
M  V30 1 N 2.8255 -0.785224 0.129073 0
M  V30 2 C 1.48651 -0.335535 0.0875587 0
M  V30 3 N 0.429705 -1.17386 0.137446 0
M  V30 4 C -0.842278 -0.736901 0.0973242 0
M  V30 5 N -1.95752 -1.61851 0.149755 0
M  V30 6 C -1.07031 0.623715 0.00130412 0
M  V30 7 C 0.00574709 1.47637 -0.0494243 0
M  V30 8 N 1.25788 0.986985 -0.00582547 0
M  V30 9 O -0.238959 2.84165 -0.145888 0
M  V30 10 I -3.04286 1.39404 -0.067377 0
M  V30 11 H 3.33143 -0.926377 1.01943 0
M  V30 12 H 3.32144 -0.98142 -0.756917 0
M  V30 13 H -2.8623 -1.42875 -0.33396 0
M  V30 14 H -1.89997 -2.50583 0.689468 0
M  V30 15 H -0.744022 3.16966 -0.951965 0
M  V30 END ATOM
M  V30 BEGIN BOND
M  V30 1 1 1 2
M  V30 2 2 2 3
M  V30 3 1 3 4
M  V30 4 1 4 5
M  V30 5 2 4 6
M  V30 6 1 6 7
M  V30 7 2 7 8
M  V30 8 1 7 9
M  V30 9 1 6 10
M  V30 10 1 8 2
M  V30 11 1 1 11
M  V30 12 1 1 12
M  V30 13 1 5 13
M  V30 14 1 5 14
M  V30 15 1 9 15
M  V30 END BOND
M  V30 END CTAB
M  END
