
     RDKit          3D

  0  0  0  0  0  0  0  0  0  0999 V3000
M  V30 BEGIN CTAB
M  V30 COUNTS 15 15 0 0 0
M  V30 BEGIN ATOM
M  V30 1 N -2.02332 -3.49321 0.434996 0
M  V30 2 C -1.40802 -2.52347 0.319246 0
M  V30 3 C -0.615508 -1.31595 0.182428 0
M  V30 4 C -1.28385 -0.137664 -0.0830253 0
M  V30 5 C -0.569261 1.04128 -0.222047 0
M  V30 6 N -1.23141 2.27283 -0.496154 0
M  V30 7 N 0.76674 0.951545 -0.0842451 0
M  V30 8 C 1.41009 -0.198049 0.173947 0
M  V30 9 N 0.72441 -1.3477 0.310543 0
M  V30 10 N 2.82519 -0.224074 0.307945 0
M  V30 11 H -2.36521 -0.093127 -0.189727 0
M  V30 12 H -1.42238 2.88914 0.324373 0
M  V30 13 H -1.52276 2.57211 -1.45235 0
M  V30 14 H 3.36886 0.680625 0.178734 0
M  V30 15 H 3.34644 -1.07428 0.523347 0
M  V30 END ATOM
M  V30 BEGIN BOND
M  V30 1 3 1 2
M  V30 2 1 2 3
M  V30 3 2 3 4
M  V30 4 1 4 5
M  V30 5 1 5 6
M  V30 6 2 5 7
M  V30 7 1 7 8
M  V30 8 2 8 9
M  V30 9 1 8 10
M  V30 10 1 9 3
M  V30 11 1 4 11
M  V30 12 1 6 12
M  V30 13 1 6 13
M  V30 14 1 10 14
M  V30 15 1 10 15
M  V30 END BOND
M  V30 END CTAB
M  END
