
     RDKit          3D

  0  0  0  0  0  0  0  0  0  0999 V3000
M  V30 BEGIN CTAB
M  V30 COUNTS 19 19 0 0 0
M  V30 BEGIN ATOM
M  V30 1 N -1.83699 -1.99693 0.856877 0
M  V30 2 C -1.00782 -0.947829 0.385988 0
M  V30 3 C -1.63352 0.211568 -0.052534 0
M  V30 4 C -0.823484 1.22106 -0.506305 0
M  V30 5 N -1.40574 2.42015 -0.963254 0
M  V30 6 C 0.542519 1.09782 -0.528705 0
M  V30 7 C 1.13242 -0.0875763 -0.077701 0
M  V30 8 C 0.348929 -1.11802 0.383186 0
M  V30 9 C 2.57319 -0.190364 -0.112373 0
M  V30 10 O 3.28903 0.73856 -0.528325 0
M  V30 11 O 3.17185 -1.34851 0.327056 0
M  V30 12 F 1.35473 2.10646 -0.982273 0
M  V30 13 H -1.98951 -2.06539 1.88457 0
M  V30 14 H -2.30051 -2.70091 0.2319 0
M  V30 15 H -2.728 0.304111 -0.0320845 0
M  V30 16 H -1.7768 2.58918 -1.91661 0
M  V30 17 H -1.46686 3.21304 -0.269036 0
M  V30 18 H 0.82121 -2.05237 0.738284 0
M  V30 19 H 3.73537 -1.39404 1.16134 0
M  V30 END ATOM
M  V30 BEGIN BOND
M  V30 1 1 1 2
M  V30 2 2 2 3
M  V30 3 1 3 4
M  V30 4 1 4 5
M  V30 5 2 4 6
M  V30 6 1 6 7
M  V30 7 2 7 8
M  V30 8 1 7 9
M  V30 9 2 9 10
M  V30 10 1 9 11
M  V30 11 1 6 12
M  V30 12 1 8 2
M  V30 13 1 1 13
M  V30 14 1 1 14
M  V30 15 1 3 15
M  V30 16 1 5 16
M  V30 17 1 5 17
M  V30 18 1 8 18
M  V30 19 1 11 19
M  V30 END BOND
M  V30 END CTAB
M  END
