
     RDKit          3D

  0  0  0  0  0  0  0  0  0  0999 V3000
M  V30 BEGIN CTAB
M  V30 COUNTS 32 34 0 0 0
M  V30 BEGIN ATOM
M  V30 1 F 6.53929 2.58609 -0.409298 0
M  V30 2 C 5.41265 1.82423 -0.35093 0
M  V30 3 C 4.37395 2.06252 -1.2128 0
M  V30 4 C 3.21359 1.29436 -1.16875 0
M  V30 5 C 3.06215 0.266272 -0.259811 0
M  V30 6 C 4.11506 0.0427474 0.596298 0
M  V30 7 C 5.26521 0.80057 0.556114 0
M  V30 8 C 1.84544 -0.547131 -0.205903 0
M  V30 9 N 0.744023 -0.479711 -0.939618 0
M  V30 10 N -0.119624 -1.40106 -0.566485 0
M  V30 11 C 0.477073 -2.06381 0.440679 0
M  V30 12 O 0.0491403 -3.03502 1.12665 0
M  V30 13 O 1.66097 -1.5289 0.638021 0
M  V30 14 C -1.43072 -1.72848 -1.04302 0
M  V30 15 C -2.50739 -0.999929 -0.350797 0
M  V30 16 N -2.91419 0.187667 -0.836351 0
M  V30 17 C -3.88264 0.92067 -0.277349 0
M  V30 18 N -4.31124 2.17574 -0.792074 0
M  V30 19 N -4.48993 0.461638 0.825481 0
M  V30 20 C -4.12709 -0.714597 1.35434 0
M  V30 21 N -3.13455 -1.43653 0.757441 0
M  V30 22 N -4.79103 -1.16485 2.51773 0
M  V30 23 H 4.47773 2.87145 -1.9373 0
M  V30 24 H 2.42457 1.50869 -1.85586 0
M  V30 25 H 4.04266 -0.752532 1.32653 0
M  V30 26 H 6.05075 0.570995 1.25599 0
M  V30 27 H -1.44856 -1.4966 -2.1326 0
M  V30 28 H -1.56165 -2.83692 -0.984635 0
M  V30 29 H -5.21935 2.23744 -1.31957 0
M  V30 30 H -3.75331 3.0433 -0.664283 0
M  V30 31 H -4.24066 -1.45001 3.34509 0
M  V30 32 H -5.82233 -1.21831 2.56706 0
M  V30 END ATOM
M  V30 BEGIN BOND
M  V30 1 1 1 2
M  V30 2 2 2 3
M  V30 3 1 3 4
M  V30 4 2 4 5
M  V30 5 1 5 6
M  V30 6 2 6 7
M  V30 7 1 5 8
M  V30 8 2 8 9
M  V30 9 1 9 10
M  V30 10 1 10 11
M  V30 11 2 11 12
M  V30 12 1 11 13
M  V30 13 1 10 14
M  V30 14 1 14 15
M  V30 15 2 15 16
M  V30 16 1 16 17
M  V30 17 1 17 18
M  V30 18 2 17 19
M  V30 19 1 19 20
M  V30 20 2 20 21
M  V30 21 1 20 22
M  V30 22 1 7 2
M  V30 23 1 13 8
M  V30 24 1 21 15
M  V30 25 1 3 23
M  V30 26 1 4 24
M  V30 27 1 6 25
M  V30 28 1 7 26
M  V30 29 1 14 27
M  V30 30 1 14 28
M  V30 31 1 18 29
M  V30 32 1 18 30
M  V30 33 1 22 31
M  V30 34 1 22 32
M  V30 END BOND
M  V30 END CTAB
M  END
