
     RDKit          3D

  0  0  0  0  0  0  0  0  0  0999 V3000
M  V30 BEGIN CTAB
M  V30 COUNTS 43 45 0 0 0
M  V30 BEGIN ATOM
M  V30 1 N 6.06939 0.14579 -2.15039 0
M  V30 2 C 5.70205 0.169867 -0.787677 0 CFG=2
M  V30 3 C 4.52227 -0.754099 -0.477712 0
M  V30 4 C 4.15705 0.303757 0.574964 0 CFG=1
M  V30 5 C 4.77675 1.30516 -0.363947 0
M  V30 6 C 2.7097 0.386726 0.767433 0
M  V30 7 C 1.78914 0.514164 -0.234928 0
M  V30 8 C 0.419332 0.584099 0.0755454 0
M  V30 9 N -0.482457 0.746801 -1.00196 0
M  V30 10 C -1.90595 0.778869 -0.886091 0
M  V30 11 C -2.4926 -0.569956 -0.722584 0 CFG=2
M  V30 12 C -3.98022 -0.552706 -0.635969 0
M  V30 13 C -4.75139 0.541462 -0.89603 0
M  V30 14 C -6.12466 0.43612 -0.782595 0
M  V30 15 C -6.76233 -0.730136 -0.416244 0
M  V30 16 C -5.9494 -1.8237 -0.158882 0
M  V30 17 C -4.57708 -1.75438 -0.262157 0
M  V30 18 O -2.03727 -1.21145 0.401177 0
M  V30 19 N 0.032773 0.5248 1.35313 0
M  V30 20 C 0.920903 0.400275 2.34393 0
M  V30 21 N 2.22594 0.335653 2.01788 0
M  V30 22 N 0.495013 0.337465 3.71307 0
M  V30 23 H 6.54255 -0.720496 -2.38504 0
M  V30 24 H 5.35638 0.422143 -2.78264 0
M  V30 25 H 6.50418 -0.0277706 -0.0549383 0
M  V30 26 H 4.78565 -1.7303 -0.0772603 0
M  V30 27 H 3.79219 -0.727231 -1.31731 0
M  V30 28 H 4.73496 0.204756 1.49235 0
M  V30 29 H 5.3725 2.10676 0.0956562 0
M  V30 30 H 4.1444 1.63119 -1.21269 0
M  V30 31 H 2.1442 0.558017 -1.24865 0
M  V30 32 H -0.0633062 0.854021 -1.97941 0
M  V30 33 H -2.32969 1.35033 -1.7442 0
M  V30 34 H -2.21486 1.39347 0.0172602 0
M  V30 35 H -2.2236 -1.2286 -1.58903 0
M  V30 36 H -4.27795 1.47071 -1.18537 0
M  V30 37 H -6.70834 1.32355 -0.996095 0
M  V30 38 H -7.83629 -0.777936 -0.337243 0
M  V30 39 H -6.45511 -2.74439 0.130472 0
M  V30 40 H -4.021 -2.64117 -0.0471565 0
M  V30 41 H -2.73938 -1.43381 1.05397 0
M  V30 42 H 1.07244 -0.218287 4.36104 0
M  V30 43 H -0.336888 0.82047 4.0208 0
M  V30 END ATOM
M  V30 BEGIN BOND
M  V30 1 1 1 2
M  V30 2 1 2 3
M  V30 3 1 3 4
M  V30 4 1 4 5
M  V30 5 1 4 6
M  V30 6 2 6 7
M  V30 7 1 7 8
M  V30 8 1 8 9
M  V30 9 1 9 10
M  V30 10 1 10 11
M  V30 11 1 11 12
M  V30 12 2 12 13
M  V30 13 1 13 14
M  V30 14 2 14 15
M  V30 15 1 15 16
M  V30 16 2 16 17
M  V30 17 1 11 18
M  V30 18 2 8 19
M  V30 19 1 19 20
M  V30 20 2 20 21
M  V30 21 1 20 22
M  V30 22 1 5 2
M  V30 23 1 21 6
M  V30 24 1 17 12
M  V30 25 1 1 23
M  V30 26 1 1 24
M  V30 27 1 2 25 CFG=1
M  V30 28 1 3 26
M  V30 29 1 3 27
M  V30 30 1 4 28 CFG=1
M  V30 31 1 5 29
M  V30 32 1 5 30
M  V30 33 1 7 31
M  V30 34 1 9 32
M  V30 35 1 10 33
M  V30 36 1 10 34
M  V30 37 1 11 35 CFG=3
M  V30 38 1 13 36
M  V30 39 1 14 37
M  V30 40 1 15 38
M  V30 41 1 16 39
M  V30 42 1 17 40
M  V30 43 1 18 41
M  V30 44 1 22 42
M  V30 45 1 22 43
M  V30 END BOND
M  V30 END CTAB
M  END
