
     RDKit          3D

  0  0  0  0  0  0  0  0  0  0999 V3000
M  V30 BEGIN CTAB
M  V30 COUNTS 36 36 0 0 0
M  V30 BEGIN ATOM
M  V30 1 N -4.29275 1.62345 -0.181519 0
M  V30 2 C -3.36505 0.606995 0.259761 0
M  V30 3 C -2.05416 0.913608 -0.361425 0
M  V30 4 C -0.922731 -0.0229827 -0.029036 0 CFG=1
M  V30 5 C -1.28278 -1.39962 -0.490398 0
M  V30 6 C -0.711523 -2.48148 0.398222 0
M  V30 7 C 0.68308 -2.08425 0.803763 0
M  V30 8 C 1.39563 -1.61713 -0.455483 0
M  V30 9 N 1.47351 -0.213794 -0.574236 0
M  V30 10 C 0.306028 0.518702 -0.730344 0
M  V30 11 C 2.6216 0.359343 0.00644362 0
M  V30 12 C 2.74852 1.83647 -0.0876305 0
M  V30 13 N 4.01756 2.19161 0.575497 0
M  V30 14 H -4.82515 1.42798 -0.984548 0
M  V30 15 H -4.45281 2.37858 0.430079 0
M  V30 16 H -3.2918 0.767366 1.37725 0
M  V30 17 H -3.82995 -0.344182 0.0182346 0
M  V30 18 H -1.78092 1.97062 -0.0777487 0
M  V30 19 H -2.21047 0.968187 -1.47547 0
M  V30 20 H -0.782521 -0.0226023 1.0756 0
M  V30 21 H -2.37133 -1.56911 -0.530127 0
M  V30 22 H -0.93092 -1.5145 -1.53939 0
M  V30 23 H -0.622351 -3.41477 -0.2046 0
M  V30 24 H -1.36494 -2.7153 1.25728 0
M  V30 25 H 1.16799 -3.02701 1.19473 0
M  V30 26 H 0.716744 -1.30681 1.58237 0
M  V30 27 H 2.45049 -2.01146 -0.354926 0
M  V30 28 H 1.00313 -2.13494 -1.36605 0
M  V30 29 H 0.0286372 0.529648 -1.82732 0
M  V30 30 H 0.391591 1.57689 -0.446779 0
M  V30 31 H 2.78156 0.072867 1.07547 0
M  V30 32 H 3.52214 -0.0772357 -0.520821 0
M  V30 33 H 1.97559 2.34979 0.531075 0
M  V30 34 H 2.8263 2.22343 -1.10901 0
M  V30 35 H 4.81901 2.12935 -0.0638331 0
M  V30 36 H 4.16305 1.51232 1.34947 0
M  V30 END ATOM
M  V30 BEGIN BOND
M  V30 1 1 1 2
M  V30 2 1 2 3
M  V30 3 1 3 4
M  V30 4 1 4 5
M  V30 5 1 5 6
M  V30 6 1 6 7
M  V30 7 1 7 8
M  V30 8 1 8 9
M  V30 9 1 9 10
M  V30 10 1 9 11
M  V30 11 1 11 12
M  V30 12 1 12 13
M  V30 13 1 10 4
M  V30 14 1 1 14
M  V30 15 1 1 15
M  V30 16 1 2 16
M  V30 17 1 2 17
M  V30 18 1 3 18
M  V30 19 1 3 19
M  V30 20 1 4 20 CFG=1
M  V30 21 1 5 21
M  V30 22 1 5 22
M  V30 23 1 6 23
M  V30 24 1 6 24
M  V30 25 1 7 25
M  V30 26 1 7 26
M  V30 27 1 8 27
M  V30 28 1 8 28
M  V30 29 1 10 29
M  V30 30 1 10 30
M  V30 31 1 11 31
M  V30 32 1 11 32
M  V30 33 1 12 33
M  V30 34 1 12 34
M  V30 35 1 13 35
M  V30 36 1 13 36
M  V30 END BOND
M  V30 END CTAB
M  END
