
     RDKit          3D

  0  0  0  0  0  0  0  0  0  0999 V3000
M  V30 BEGIN CTAB
M  V30 COUNTS 67 71 0 0 0
M  V30 BEGIN ATOM
M  V30 1 O -2.26137 -0.795047 0.450335 0
M  V30 2 C -1.62767 -0.209823 -0.439945 0
M  V30 3 C -0.619879 -0.957467 -1.22899 0
M  V30 4 C -0.419423 -2.37958 -0.901201 0
M  V30 5 C 0.0255308 -2.69456 0.494566 0
M  V30 6 C 0.385272 -4.16221 0.634159 0
M  V30 7 C 1.41949 -4.61983 -0.330223 0
M  V30 8 C 0.826456 -4.40418 -1.72836 0
M  V30 9 C 0.641264 -2.93978 -1.89211 0
M  V30 10 C -0.425472 -5.21355 -1.88108 0
M  V30 11 C -1.42922 -4.68267 -0.884083 0
M  V30 12 C -1.64369 -3.2245 -1.21204 0
M  V30 13 C -0.917501 -4.93099 0.487242 0
M  V30 14 C 0.640357 -0.151392 -1.35469 0
M  V30 15 O 1.1604 0.0480374 -2.46125 0
M  V30 16 N 1.24291 0.386627 -0.193915 0
M  V30 17 C 2.42417 1.14623 -0.161296 0
M  V30 18 C 2.65673 1.93678 0.968084 0
M  V30 19 C 3.78127 2.71341 1.13666 0
M  V30 20 C 4.74928 2.73601 0.159393 0
M  V30 21 C 4.55128 1.97608 -0.952407 0
M  V30 22 C 3.40492 1.18607 -1.12062 0
M  V30 23 S 6.17922 3.72007 0.367492 0
M  V30 24 O 5.87461 4.91308 1.22423 0
M  V30 25 O 6.67787 4.24973 -0.961436 0
M  V30 26 N 7.42923 2.81341 1.15399 0
M  V30 27 N -1.84722 1.13506 -0.709707 0
M  V30 28 C -2.75142 2.00899 -0.0900619 0
M  V30 29 C -3.80174 1.55536 0.649532 0
M  V30 30 C -4.65728 2.48052 1.26017 0
M  V30 31 C -4.49845 3.84136 1.1558 0
M  V30 32 C -3.42483 4.29657 0.398964 0
M  V30 33 C -2.58908 3.39432 -0.197189 0
M  V30 34 S -5.5719 4.98314 1.92172 0
M  V30 35 O -6.95052 4.41209 2.06293 0
M  V30 36 O -5.69838 6.24153 1.09974 0
M  V30 37 N -5.00664 5.37484 3.51376 0
M  V30 38 H -1.05696 -0.930699 -2.2871 0
M  V30 39 H 0.935239 -2.13786 0.796778 0
M  V30 40 H -0.831489 -2.55863 1.18147 0
M  V30 41 H 0.751929 -4.31914 1.67127 0
M  V30 42 H 1.6514 -5.66576 -0.137512 0
M  V30 43 H 2.28867 -3.94229 -0.266663 0
M  V30 44 H 1.6012 -4.73013 -2.43786 0
M  V30 45 H 0.261855 -2.64017 -2.89107 0
M  V30 46 H 1.58129 -2.42918 -1.6336 0
M  V30 47 H -0.18421 -6.2717 -1.70851 0
M  V30 48 H -0.832334 -5.06424 -2.88381 0
M  V30 49 H -2.41532 -5.18075 -1.00397 0
M  V30 50 H -1.71433 -3.19989 -2.34446 0
M  V30 51 H -2.5725 -2.85573 -0.766969 0
M  V30 52 H -1.5916 -4.55986 1.29015 0
M  V30 53 H -0.689742 -6.0014 0.588888 0
M  V30 54 H 0.787247 0.219066 0.760093 0
M  V30 55 H 1.91966 1.95118 1.76326 0
M  V30 56 H 3.94573 3.32245 2.0222 0
M  V30 57 H 5.30591 1.98063 -1.73689 0
M  V30 58 H 3.32705 0.600236 -2.02505 0
M  V30 59 H 7.13319 1.81529 1.17723 0
M  V30 60 H 7.65806 3.20394 2.09081 0
M  V30 61 H -1.2634 1.58452 -1.48996 0
M  V30 62 H -4.06361 0.511712 0.811031 0
M  V30 63 H -5.48451 2.10391 1.84302 0
M  V30 64 H -3.28172 5.36446 0.30375 0
M  V30 65 H -1.75262 3.76809 -0.786616 0
M  V30 66 H -3.97142 5.27493 3.52349 0
M  V30 67 H -5.37123 4.60328 4.13843 0
M  V30 END ATOM
M  V30 BEGIN BOND
M  V30 1 2 1 2
M  V30 2 1 2 3
M  V30 3 1 3 4
M  V30 4 1 4 5
M  V30 5 1 5 6
M  V30 6 1 6 7
M  V30 7 1 7 8
M  V30 8 1 8 9
M  V30 9 1 8 10
M  V30 10 1 10 11
M  V30 11 1 11 12
M  V30 12 1 11 13
M  V30 13 1 3 14
M  V30 14 2 14 15
M  V30 15 1 14 16
M  V30 16 1 16 17
M  V30 17 2 17 18
M  V30 18 1 18 19
M  V30 19 2 19 20
M  V30 20 1 20 21
M  V30 21 2 21 22
M  V30 22 1 20 23
M  V30 23 2 23 24
M  V30 24 2 23 25
M  V30 25 1 23 26
M  V30 26 1 2 27
M  V30 27 1 27 28
M  V30 28 2 28 29
M  V30 29 1 29 30
M  V30 30 2 30 31
M  V30 31 1 31 32
M  V30 32 2 32 33
M  V30 33 1 31 34
M  V30 34 2 34 35
M  V30 35 2 34 36
M  V30 36 1 34 37
M  V30 37 1 12 4
M  V30 38 1 22 17
M  V30 39 1 33 28
M  V30 40 1 9 4
M  V30 41 1 13 6
M  V30 42 1 3 38
M  V30 43 1 5 39
M  V30 44 1 5 40
M  V30 45 1 6 41
M  V30 46 1 7 42
M  V30 47 1 7 43
M  V30 48 1 8 44
M  V30 49 1 9 45
M  V30 50 1 9 46
M  V30 51 1 10 47
M  V30 52 1 10 48
M  V30 53 1 11 49
M  V30 54 1 12 50
M  V30 55 1 12 51
M  V30 56 1 13 52
M  V30 57 1 13 53
M  V30 58 1 16 54
M  V30 59 1 18 55
M  V30 60 1 19 56
M  V30 61 1 21 57
M  V30 62 1 22 58
M  V30 63 1 26 59
M  V30 64 1 26 60
M  V30 65 1 27 61
M  V30 66 1 29 62
M  V30 67 1 30 63
M  V30 68 1 32 64
M  V30 69 1 33 65
M  V30 70 1 37 66
M  V30 71 1 37 67
M  V30 END BOND
M  V30 END CTAB
M  END
