
     RDKit          3D

  0  0  0  0  0  0  0  0  0  0999 V3000
M  V30 BEGIN CTAB
M  V30 COUNTS 21 21 0 0 0
M  V30 BEGIN ATOM
M  V30 1 N -0.788014 2.24005 -1.28875 0
M  V30 2 C -1.16722 1.13171 -0.476139 0
M  V30 3 C -2.47608 0.918275 -0.0968511 0
M  V30 4 C -2.79151 -0.14953 0.677039 0
M  V30 5 C -1.86527 -1.06618 1.12549 0
M  V30 6 C -0.536734 -0.84832 0.739599 0
M  V30 7 C -0.19231 0.223442 -0.0420029 0
M  V30 8 N 1.13601 0.481197 -0.461549 0
M  V30 9 S 2.50607 -0.327441 0.194565 0
M  V30 10 O 2.40246 -0.64016 1.63722 0
M  V30 11 O 3.74114 0.549142 0.0455905 0
M  V30 12 N 2.81435 -1.82539 -0.650779 0
M  V30 13 Cl -2.28271 -2.43852 2.12215 0
M  V30 14 H -0.356868 2.14018 -2.23227 0
M  V30 15 H -0.942458 3.20581 -0.937353 0
M  V30 16 H -3.22491 1.64667 -0.450962 0
M  V30 17 H -3.8306 -0.30115 0.966246 0
M  V30 18 H 0.215036 -1.54441 1.06741 0
M  V30 19 H 1.35236 1.19789 -1.21631 0
M  V30 20 H 2.43875 -2.62774 -0.0635962 0
M  V30 21 H 3.8485 -1.96552 -0.658751 0
M  V30 END ATOM
M  V30 BEGIN BOND
M  V30 1 1 1 2
M  V30 2 2 2 3
M  V30 3 1 3 4
M  V30 4 2 4 5
M  V30 5 1 5 6
M  V30 6 2 6 7
M  V30 7 1 7 8
M  V30 8 1 8 9
M  V30 9 2 9 10
M  V30 10 2 9 11
M  V30 11 1 9 12
M  V30 12 1 5 13
M  V30 13 1 7 2
M  V30 14 1 1 14
M  V30 15 1 1 15
M  V30 16 1 3 16
M  V30 17 1 4 17
M  V30 18 1 6 18
M  V30 19 1 8 19
M  V30 20 1 12 20
M  V30 21 1 12 21
M  V30 END BOND
M  V30 END CTAB
M  END
