
     RDKit          3D

  0  0  0  0  0  0  0  0  0  0999 V3000
M  V30 BEGIN CTAB
M  V30 COUNTS 24 24 0 0 0
M  V30 BEGIN ATOM
M  V30 1 C -2.91703 -0.616457 0.33126 0
M  V30 2 N -2.05284 -0.112688 -0.745201 0
M  V30 3 C -0.681004 0.0628543 -0.402396 0
M  V30 4 C 0.128089 -1.06313 -0.581738 0
M  V30 5 N -0.419184 -2.25373 -1.11006 0
M  V30 6 C 1.45199 -0.925407 -0.223297 0
M  V30 7 C 1.94169 0.259629 0.281955 0
M  V30 8 C 1.12979 1.37585 0.455208 0
M  V30 9 C -0.191539 1.2475 0.100812 0
M  V30 10 N -1.06926 2.36263 0.236114 0
M  V30 11 C 3.36409 0.319218 0.655366 0
M  V30 12 F 4.16182 0.55793 -0.466193 0
M  V30 13 F 3.61505 1.18602 1.67533 0
M  V30 14 F 3.77066 -0.946532 1.09789 0
M  V30 15 H -3.392 -1.57537 0.0715558 0
M  V30 16 H -2.33436 -0.833602 1.25657 0
M  V30 17 H -3.63563 0.201973 0.540022 0
M  V30 18 H -2.44362 0.0806435 -1.64752 0
M  V30 19 H -0.795482 -2.2932 -2.05953 0
M  V30 20 H -0.439454 -3.11041 -0.534624 0
M  V30 21 H 2.08844 -1.79866 -0.371267 0
M  V30 22 H 1.53843 2.29616 0.859552 0
M  V30 23 H -0.756332 3.36082 0.0639759 0
M  V30 24 H -2.06232 2.21795 0.516208 0
M  V30 END ATOM
M  V30 BEGIN BOND
M  V30 1 1 1 2
M  V30 2 1 2 3
M  V30 3 2 3 4
M  V30 4 1 4 5
M  V30 5 1 4 6
M  V30 6 2 6 7
M  V30 7 1 7 8
M  V30 8 2 8 9
M  V30 9 1 9 10
M  V30 10 1 7 11
M  V30 11 1 11 12
M  V30 12 1 11 13
M  V30 13 1 11 14
M  V30 14 1 9 3
M  V30 15 1 1 15
M  V30 16 1 1 16
M  V30 17 1 1 17
M  V30 18 1 2 18
M  V30 19 1 5 19
M  V30 20 1 5 20
M  V30 21 1 6 21
M  V30 22 1 8 22
M  V30 23 1 10 23
M  V30 24 1 10 24
M  V30 END BOND
M  V30 END CTAB
M  END
