
     RDKit          3D

  0  0  0  0  0  0  0  0  0  0999 V3000
M  V30 BEGIN CTAB
M  V30 COUNTS 38 39 0 0 0
M  V30 BEGIN ATOM
M  V30 1 N -1.25513 -0.298944 1.52977 0
M  V30 2 C -1.53103 0.370714 0.294515 0
M  V30 3 C -0.693054 -0.00920883 -0.871873 0
M  V30 4 C 0.761157 0.223972 -0.761677 0
M  V30 5 C 1.51501 -0.467504 0.311092 0
M  V30 6 N 1.39952 -1.92674 0.200381 0
M  V30 7 C 2.95368 -0.0894692 0.179064 0
M  V30 8 C 3.47447 0.832309 1.04944 0
M  V30 9 C 4.82574 1.18119 0.918199 0
M  V30 10 C 5.58785 0.608681 -0.0556763 0
M  V30 11 C 5.0674 -0.310142 -0.922728 0
M  V30 12 C 3.72812 -0.653054 -0.789289 0
M  V30 13 C -2.99837 0.267484 -0.0271793 0
M  V30 14 C -3.71599 1.36127 -0.464825 0
M  V30 15 C -5.06039 1.2842 -0.763864 0
M  V30 16 C -5.74771 0.0959272 -0.635296 0
M  V30 17 C -5.03189 -0.998414 -0.19794 0
M  V30 18 C -3.68035 -0.924221 0.103489 0
M  V30 19 H -1.50076 -1.29256 1.56316 0
M  V30 20 H -1.45175 0.257352 2.36661 0
M  V30 21 H -1.32151 1.46539 0.501984 0
M  V30 22 H -1.04679 0.648472 -1.72821 0
M  V30 23 H -0.935913 -1.06714 -1.18057 0
M  V30 24 H 0.90231 1.33665 -0.573626 0
M  V30 25 H 1.28741 0.103482 -1.76195 0
M  V30 26 H 1.1982 -0.194624 1.32368 0
M  V30 27 H 2.21553 -2.30763 0.740162 0
M  V30 28 H 1.53583 -2.23437 -0.78946 0
M  V30 29 H 2.89771 1.29305 1.8186 0
M  V30 30 H 5.22031 1.90442 1.6067 0
M  V30 31 H 6.62655 0.885401 -0.14658 0
M  V30 32 H 5.71033 -0.736254 -1.67777 0
M  V30 33 H 3.29232 -1.37346 -1.45803 0
M  V30 34 H -3.14815 2.29869 -0.560199 0
M  V30 35 H -5.59072 2.17833 -1.10832 0
M  V30 36 H -6.81039 0.036925 -0.872145 0
M  V30 37 H -5.54858 -1.94737 -0.0876349 0
M  V30 38 H -3.13097 -1.8028 0.448605 0
M  V30 END ATOM
M  V30 BEGIN BOND
M  V30 1 1 1 2
M  V30 2 1 2 3
M  V30 3 1 3 4
M  V30 4 1 4 5
M  V30 5 1 5 6
M  V30 6 1 5 7
M  V30 7 2 7 8
M  V30 8 1 8 9
M  V30 9 2 9 10
M  V30 10 1 10 11
M  V30 11 2 11 12
M  V30 12 1 2 13
M  V30 13 2 13 14
M  V30 14 1 14 15
M  V30 15 2 15 16
M  V30 16 1 16 17
M  V30 17 2 17 18
M  V30 18 1 12 7
M  V30 19 1 18 13
M  V30 20 1 1 19
M  V30 21 1 1 20
M  V30 22 1 2 21
M  V30 23 1 3 22
M  V30 24 1 3 23
M  V30 25 1 4 24
M  V30 26 1 4 25
M  V30 27 1 5 26
M  V30 28 1 6 27
M  V30 29 1 6 28
M  V30 30 1 8 29
M  V30 31 1 9 30
M  V30 32 1 10 31
M  V30 33 1 11 32
M  V30 34 1 12 33
M  V30 35 1 14 34
M  V30 36 1 15 35
M  V30 37 1 16 36
M  V30 38 1 17 37
M  V30 39 1 18 38
M  V30 END BOND
M  V30 END CTAB
M  END
