
     RDKit          3D

  0  0  0  0  0  0  0  0  0  0999 V3000
M  V30 BEGIN CTAB
M  V30 COUNTS 32 33 0 0 0
M  V30 BEGIN ATOM
M  V30 1 C -1.73004 -1.51482 0.225656 0
M  V30 2 C -1.44407 -0.26572 -0.644156 0
M  V30 3 C -0.974025 -0.781097 -1.99272 0
M  V30 4 N -2.65998 0.442085 -0.719811 0
M  V30 5 C -2.89355 1.60357 -0.25761 0
M  V30 6 N -4.20616 2.18966 -0.422055 0
M  V30 7 N -1.86013 2.30929 0.414475 0
M  V30 8 C -0.706008 1.7574 0.542109 0
M  V30 9 N 0.377647 2.41871 1.21026 0
M  V30 10 N -0.423178 0.471995 0.0387243 0
M  V30 11 C 0.906121 -0.105323 0.21288 0
M  V30 12 C 1.2063 -0.862959 1.32582 0
M  V30 13 C 2.47617 -1.40879 1.4826 0
M  V30 14 C 3.43335 -1.19243 0.526326 0
M  V30 15 C 3.15014 -0.440554 -0.587166 0
M  V30 16 C 1.89339 0.0884667 -0.72321 0
M  V30 17 C 4.76771 -1.72602 0.622708 0
M  V30 18 N 5.85694 -2.14629 0.712124 0
M  V30 19 H -2.70816 -1.96149 -0.066027 0
M  V30 20 H -1.78453 -1.23454 1.28974 0
M  V30 21 H -0.907925 -2.24759 0.103155 0
M  V30 22 H -0.464512 -0.0102681 -2.56382 0
M  V30 23 H -1.88534 -1.10421 -2.54426 0
M  V30 24 H -0.367833 -1.70684 -1.84631 0
M  V30 25 H -4.9975 1.57609 -0.642975 0
M  V30 26 H -4.38368 3.20984 -0.325791 0
M  V30 27 H 0.900438 3.21592 0.794239 0
M  V30 28 H 0.632721 2.06656 2.15165 0
M  V30 29 H 0.481578 -1.04324 2.07805 0
M  V30 30 H 2.73486 -2.00755 2.34903 0
M  V30 31 H 3.93098 -0.270501 -1.35627 0
M  V30 32 H 1.64827 0.680648 -1.58666 0
M  V30 END ATOM
M  V30 BEGIN BOND
M  V30 1 1 1 2
M  V30 2 1 2 3
M  V30 3 1 2 4
M  V30 4 2 4 5
M  V30 5 1 5 6
M  V30 6 1 5 7
M  V30 7 2 7 8
M  V30 8 1 8 9
M  V30 9 1 8 10
M  V30 10 1 10 11
M  V30 11 2 11 12
M  V30 12 1 12 13
M  V30 13 2 13 14
M  V30 14 1 14 15
M  V30 15 2 15 16
M  V30 16 1 14 17
M  V30 17 3 17 18
M  V30 18 1 10 2
M  V30 19 1 16 11
M  V30 20 1 1 19
M  V30 21 1 1 20
M  V30 22 1 1 21
M  V30 23 1 3 22
M  V30 24 1 3 23
M  V30 25 1 3 24
M  V30 26 1 6 25
M  V30 27 1 6 26
M  V30 28 1 9 27
M  V30 29 1 9 28
M  V30 30 1 12 29
M  V30 31 1 13 30
M  V30 32 1 15 31
M  V30 33 1 16 32
M  V30 END BOND
M  V30 END CTAB
M  END
