
     RDKit          3D

  0  0  0  0  0  0  0  0  0  0999 V3000
M  V30 BEGIN CTAB
M  V30 COUNTS 22 23 0 0 0
M  V30 BEGIN ATOM
M  V30 1 N -2.3821 -2.28664 -0.237441 0
M  V30 2 C -1.83868 -0.989486 -0.150313 0
M  V30 3 C -2.62408 0.152544 -0.320992 0
M  V30 4 C -2.03572 1.39659 -0.224291 0
M  V30 5 C -0.692415 1.54926 0.0363656 0
M  V30 6 C 0.120101 0.422315 0.212121 0
M  V30 7 C -0.495911 -0.807758 0.109809 0
M  V30 8 N 1.37884 0.83971 0.452296 0
M  V30 9 N 1.39989 2.16132 0.436794 0
M  V30 10 C 0.154176 2.62878 0.186038 0
M  V30 11 S 2.74648 -0.171932 0.735069 0
M  V30 12 O 2.41832 -1.15473 1.85201 0
M  V30 13 O 3.95844 0.618664 1.07283 0
M  V30 14 N 2.9818 -1.13488 -0.684466 0
M  V30 15 H -2.31568 -2.8121 -1.11715 0
M  V30 16 H -2.84376 -2.7042 0.579472 0
M  V30 17 H -3.66935 -0.0080109 -0.523208 0
M  V30 18 H -2.63244 2.28231 -0.354214 0
M  V30 19 H 0.15465 -1.67912 0.250087 0
M  V30 20 H -0.0935724 3.66567 0.122143 0
M  V30 21 H 2.32852 -0.870301 -1.44587 0
M  V30 22 H 3.98249 -1.09801 -0.987095 0
M  V30 END ATOM
M  V30 BEGIN BOND
M  V30 1 1 1 2
M  V30 2 2 2 3
M  V30 3 1 3 4
M  V30 4 2 4 5
M  V30 5 1 5 6
M  V30 6 2 6 7
M  V30 7 1 6 8
M  V30 8 1 8 9
M  V30 9 2 9 10
M  V30 10 1 8 11
M  V30 11 2 11 12
M  V30 12 2 11 13
M  V30 13 1 11 14
M  V30 14 1 7 2
M  V30 15 1 10 5
M  V30 16 1 1 15
M  V30 17 1 1 16
M  V30 18 1 3 17
M  V30 19 1 4 18
M  V30 20 1 7 19
M  V30 21 1 10 20
M  V30 22 1 14 21
M  V30 23 1 14 22
M  V30 END BOND
M  V30 END CTAB
M  END
