
     RDKit          3D

  0  0  0  0  0  0  0  0  0  0999 V3000
M  V30 BEGIN CTAB
M  V30 COUNTS 20 21 0 0 0
M  V30 BEGIN ATOM
M  V30 1 N -2.72868 1.43736 -1.56649 0
M  V30 2 C -1.97669 0.500012 -0.807259 0
M  V30 3 C -2.37373 0.17771 0.470404 0
M  V30 4 C -1.64665 -0.726925 1.20116 0
M  V30 5 N -2.04469 -1.07923 2.54254 0
M  V30 6 N -0.551377 -1.28253 0.64417 0
M  V30 7 C -0.152094 -0.979921 -0.596574 0
M  V30 8 N -0.872434 -0.0955319 -1.29625 0
M  V30 9 S 1.28779 -1.73246 -1.28395 0
M  V30 10 C 2.72342 -0.72816 -0.890421 0
M  V30 11 N 3.99798 -0.922117 -1.20832 0
M  V30 12 N 4.8751 -0.0937662 -0.835886 0
M  V30 13 C 4.52417 0.970901 -0.126778 0
M  V30 14 S 2.83749 0.745577 -0.00241766 0
M  V30 15 Br 5.71405 2.31401 0.513392 0
M  V30 16 H -3.76265 1.40601 -1.49349 0
M  V30 17 H -2.22426 2.11364 -2.16127 0
M  V30 18 H -3.26612 0.638078 0.90851 0
M  V30 19 H -2.40049 -2.04137 2.70848 0
M  V30 20 H -1.96011 -0.36371 3.28046 0
M  V30 END ATOM
M  V30 BEGIN BOND
M  V30 1 1 1 2
M  V30 2 2 2 3
M  V30 3 1 3 4
M  V30 4 1 4 5
M  V30 5 2 4 6
M  V30 6 1 6 7
M  V30 7 2 7 8
M  V30 8 1 7 9
M  V30 9 1 9 10
M  V30 10 2 10 11
M  V30 11 1 11 12
M  V30 12 2 12 13
M  V30 13 1 13 14
M  V30 14 1 13 15
M  V30 15 1 8 2
M  V30 16 1 14 10
M  V30 17 1 1 16
M  V30 18 1 1 17
M  V30 19 1 3 18
M  V30 20 1 5 19
M  V30 21 1 5 20
M  V30 END BOND
M  V30 END CTAB
M  END
