
     RDKit          3D

  0  0  0  0  0  0  0  0  0  0999 V3000
M  V30 BEGIN CTAB
M  V30 COUNTS 45 46 0 0 0
M  V30 BEGIN ATOM
M  V30 1 N 0.385926 0.518196 1.86609 0
M  V30 2 C 0.12666 0.153918 0.471468 0
M  V30 3 C -1.37945 0.149188 0.367592 0
M  V30 4 C -2.01422 -0.88911 -0.281431 0
M  V30 5 C -3.40114 -0.949712 -0.409948 0
M  V30 6 C -4.16968 0.0574624 0.126675 0
M  V30 7 C -3.53562 1.09022 0.772417 0
M  V30 8 C -2.1487 1.15037 0.900668 0
M  V30 9 C -5.64134 -0.0289899 -0.0226284 0
M  V30 10 C -6.05003 -0.02219 -1.48949 0
M  V30 11 C -6.11794 -1.34755 0.551789 0
M  V30 12 C 0.740615 1.10524 -0.487554 0
M  V30 13 N 2.17255 1.15198 -0.310104 0
M  V30 14 C 3.05657 0.0664123 -0.471312 0
M  V30 15 O 2.58477 -1.05411 -0.802601 0
M  V30 16 C 4.49852 0.143974 -0.280513 0
M  V30 17 C 5.0843 1.33079 0.0808151 0
M  V30 18 C 6.4722 1.40182 0.263608 0
M  V30 19 C 7.29012 0.31535 0.0941545 0
M  V30 20 C 6.66961 -0.86792 -0.270441 0
M  V30 21 C 5.31211 -0.959547 -0.454669 0
M  V30 22 N 4.69639 -2.18186 -0.828286 0
M  V30 23 H -0.297582 -0.0418077 2.4321 0
M  V30 24 H 0.277452 1.52721 2.0356 0
M  V30 25 H 0.463731 -0.859479 0.305624 0
M  V30 26 H -1.42283 -1.68777 -0.70817 0
M  V30 27 H -3.87277 -1.79083 -0.93286 0
M  V30 28 H -4.12045 1.90749 1.21046 0
M  V30 29 H -1.67911 1.96537 1.40818 0
M  V30 30 H -6.14295 0.845372 0.454618 0
M  V30 31 H -5.62751 -0.892026 -2.0154 0
M  V30 32 H -7.15579 -0.138204 -1.49743 0
M  V30 33 H -5.78953 0.94457 -1.96152 0
M  V30 34 H -5.41143 -1.66488 1.35107 0
M  V30 35 H -6.10394 -2.11883 -0.273022 0
M  V30 36 H -7.16326 -1.3058 0.900939 0
M  V30 37 H 0.301116 2.12387 -0.430114 0
M  V30 38 H 0.496138 0.74588 -1.51701 0
M  V30 39 H 2.58657 2.08029 -0.0362912 0
M  V30 40 H 4.51992 2.26021 0.241929 0
M  V30 41 H 6.8843 2.36401 0.54906 0
M  V30 42 H 8.35255 0.397589 0.240916 0
M  V30 43 H 7.33362 -1.73267 -0.403765 0
M  V30 44 H 4.56561 -2.39183 -1.83923 0
M  V30 45 H 4.37395 -2.87168 -0.0912538 0
M  V30 END ATOM
M  V30 BEGIN BOND
M  V30 1 1 1 2
M  V30 2 1 2 3
M  V30 3 2 3 4
M  V30 4 1 4 5
M  V30 5 2 5 6
M  V30 6 1 6 7
M  V30 7 2 7 8
M  V30 8 1 6 9
M  V30 9 1 9 10
M  V30 10 1 9 11
M  V30 11 1 2 12
M  V30 12 1 12 13
M  V30 13 1 13 14
M  V30 14 2 14 15
M  V30 15 1 14 16
M  V30 16 2 16 17
M  V30 17 1 17 18
M  V30 18 2 18 19
M  V30 19 1 19 20
M  V30 20 2 20 21
M  V30 21 1 21 22
M  V30 22 1 8 3
M  V30 23 1 21 16
M  V30 24 1 1 23
M  V30 25 1 1 24
M  V30 26 1 2 25
M  V30 27 1 4 26
M  V30 28 1 5 27
M  V30 29 1 7 28
M  V30 30 1 8 29
M  V30 31 1 9 30
M  V30 32 1 10 31
M  V30 33 1 10 32
M  V30 34 1 10 33
M  V30 35 1 11 34
M  V30 36 1 11 35
M  V30 37 1 11 36
M  V30 38 1 12 37
M  V30 39 1 12 38
M  V30 40 1 13 39
M  V30 41 1 17 40
M  V30 42 1 18 41
M  V30 43 1 19 42
M  V30 44 1 20 43
M  V30 45 1 22 44
M  V30 46 1 22 45
M  V30 END BOND
M  V30 END CTAB
M  END
