
     RDKit          3D

  0  0  0  0  0  0  0  0  0  0999 V3000
M  V30 BEGIN CTAB
M  V30 COUNTS 83 87 0 0 0
M  V30 BEGIN ATOM
M  V30 1 N 4.37027 -4.14178 -2.78573 0
M  V30 2 C 5.46046 -3.17903 -2.83793 0
M  V30 3 N 6.33932 -3.39527 -3.70183 0
M  V30 4 O 7.4584 -2.74274 -4.03346 0
M  V30 5 C 5.37975 -2.08846 -1.87428 0
M  V30 6 C 6.30713 -1.07758 -1.77034 0
M  V30 7 C 6.1817 -0.0655281 -0.833697 0
M  V30 8 C 5.122 -0.0321587 0.0309765 0
M  V30 9 C 4.17273 -1.01564 -0.0334448 0
M  V30 10 C 3.04148 -0.973993 0.902087 0
M  V30 11 N 1.92124 -0.147451 0.460902 0
M  V30 12 C 1.92624 1.2516 0.785897 0 CFG=2
M  V30 13 C 2.06307 1.6589 2.18569 0
M  V30 14 C 1.12465 1.31058 3.20991 0
M  V30 15 C 0.100803 2.20243 3.52548 0
M  V30 16 C -0.837461 1.95769 4.49361 0
M  V30 17 C -0.799076 0.792766 5.2051 0
M  V30 18 C 0.207857 -0.106622 4.90922 0
M  V30 19 C 1.15608 0.143103 3.92936 0
M  V30 20 C 0.892745 1.93437 -0.0439957 0 CFG=2
M  V30 21 O 0.761967 3.29214 0.208924 0
M  V30 22 C -0.47621 1.23725 -0.0923065 0 CFG=1
M  V30 23 C -1.40216 2.28611 -0.52042 0
M  V30 24 C -2.85442 1.93216 -0.641034 0
M  V30 25 C -3.61709 3.16484 -1.04631 0
M  V30 26 C -3.80566 3.46436 -2.37572 0
M  V30 27 C -4.51615 4.61319 -2.69422 0
M  V30 28 C -5.02837 5.44663 -1.71824 0
M  V30 29 C -4.83761 5.14359 -0.382811 0
M  V30 30 C -4.1254 3.99188 -0.0827498 0
M  V30 31 N -0.265696 0.0447129 -0.815452 0
M  V30 32 C -0.915166 -0.537684 -1.93984 0
M  V30 33 C -1.92449 -1.56881 -1.60865 0
M  V30 34 C -2.60264 -2.20121 -2.62576 0
M  V30 35 C -3.55445 -3.17333 -2.3904 0
M  V30 36 C -3.8483 -3.53527 -1.10092 0
M  V30 37 C -3.20119 -2.93481 -0.0698367 0
M  V30 38 C -2.25462 -1.96685 -0.325408 0
M  V30 39 C -3.52467 -3.33307 1.29332 0
M  V30 40 N -4.50081 -4.33656 1.55922 0
M  V30 41 N -2.93792 -2.79108 2.30369 0
M  V30 42 O -3.23781 -3.16127 3.58153 0
M  V30 43 C 0.869159 -0.724527 -0.292983 0
M  V30 44 O 0.91101 -1.95726 -0.525272 0
M  V30 45 C 4.31864 -2.00637 -0.968163 0
M  V30 46 H 4.44271 -4.87328 -2.04879 0
M  V30 47 H 3.58212 -4.09944 -3.43516 0
M  V30 48 H 7.62847 -2.12187 -4.79109 0
M  V30 49 H 7.16966 -1.05301 -2.4322 0
M  V30 50 H 6.97018 0.711543 -0.813544 0
M  V30 51 H 5.04234 0.753508 0.7507 0
M  V30 52 H 2.68776 -2.02765 1.0735 0
M  V30 53 H 3.39488 -0.631748 1.91289 0
M  V30 54 H 2.9006 1.66812 0.305391 0
M  V30 55 H 2.24897 2.78819 2.15567 0
M  V30 56 H 3.08533 1.29844 2.55042 0
M  V30 57 H 0.00728595 3.15294 2.99975 0
M  V30 58 H -1.61947 2.67879 4.70902 0
M  V30 59 H -1.53953 0.591071 5.97433 0
M  V30 60 H 0.232654 -1.02226 5.47336 0
M  V30 61 H 1.90252 -0.632487 3.78411 0
M  V30 62 H 1.23793 1.87197 -1.1205 0
M  V30 63 H 1.58358 3.72145 -0.180939 0
M  V30 64 H -0.803172 0.919301 0.939873 0
M  V30 65 H -1.13916 2.7904 -1.48111 0
M  V30 66 H -1.40017 3.16949 0.199592 0
M  V30 67 H -3.27181 1.50956 0.307415 0
M  V30 68 H -3.028 1.22986 -1.47198 0
M  V30 69 H -3.40564 2.81328 -3.14588 0
M  V30 70 H -4.65341 4.83099 -3.73926 0
M  V30 71 H -5.58189 6.34192 -1.98659 0
M  V30 72 H -5.24077 5.79989 0.388111 0
M  V30 73 H -3.99272 3.78126 0.976626 0
M  V30 74 H -0.156509 -1.08266 -2.59555 0
M  V30 75 H -1.30545 0.214543 -2.68968 0
M  V30 76 H -2.41488 -1.958 -3.68212 0
M  V30 77 H -4.08112 -3.66391 -3.19436 0
M  V30 78 H -4.60439 -4.30884 -0.881228 0
M  V30 79 H -1.76148 -1.51014 0.496447 0
M  V30 80 H -5.14392 -4.2611 2.39935 0
M  V30 81 H -4.64209 -5.17748 0.969578 0
M  V30 82 H -2.92957 -4.07883 3.90756 0
M  V30 83 H 3.57888 -2.80776 -1.03741 0
M  V30 END ATOM
M  V30 BEGIN BOND
M  V30 1 1 1 2
M  V30 2 2 2 3 CFG=2
M  V30 3 1 3 4
M  V30 4 1 2 5
M  V30 5 2 5 6
M  V30 6 1 6 7
M  V30 7 2 7 8
M  V30 8 1 8 9
M  V30 9 1 9 10
M  V30 10 1 10 11
M  V30 11 1 11 12
M  V30 12 1 12 13
M  V30 13 1 13 14
M  V30 14 2 14 15
M  V30 15 1 15 16
M  V30 16 2 16 17
M  V30 17 1 17 18
M  V30 18 2 18 19
M  V30 19 1 12 20
M  V30 20 1 20 21
M  V30 21 1 20 22
M  V30 22 1 22 23
M  V30 23 1 23 24
M  V30 24 1 24 25
M  V30 25 2 25 26
M  V30 26 1 26 27
M  V30 27 2 27 28
M  V30 28 1 28 29
M  V30 29 2 29 30
M  V30 30 1 22 31
M  V30 31 1 31 32
M  V30 32 1 32 33
M  V30 33 2 33 34
M  V30 34 1 34 35
M  V30 35 2 35 36
M  V30 36 1 36 37
M  V30 37 2 37 38
M  V30 38 1 37 39
M  V30 39 1 39 40
M  V30 40 2 39 41 CFG=2
M  V30 41 1 41 42
M  V30 42 1 31 43
M  V30 43 2 43 44
M  V30 44 2 9 45
M  V30 45 1 45 5
M  V30 46 1 43 11
M  V30 47 1 19 14
M  V30 48 1 30 25
M  V30 49 1 38 33
M  V30 50 1 1 46
M  V30 51 1 1 47
M  V30 52 1 4 48
M  V30 53 1 6 49
M  V30 54 1 7 50
M  V30 55 1 8 51
M  V30 56 1 10 52
M  V30 57 1 10 53
M  V30 58 1 12 54 CFG=3
M  V30 59 1 13 55
M  V30 60 1 13 56
M  V30 61 1 15 57
M  V30 62 1 16 58
M  V30 63 1 17 59
M  V30 64 1 18 60
M  V30 65 1 19 61
M  V30 66 1 20 62 CFG=3
M  V30 67 1 21 63
M  V30 68 1 22 64 CFG=1
M  V30 69 1 23 65
M  V30 70 1 23 66
M  V30 71 1 24 67
M  V30 72 1 24 68
M  V30 73 1 26 69
M  V30 74 1 27 70
M  V30 75 1 28 71
M  V30 76 1 29 72
M  V30 77 1 30 73
M  V30 78 1 32 74
M  V30 79 1 32 75
M  V30 80 1 34 76
M  V30 81 1 35 77
M  V30 82 1 36 78
M  V30 83 1 38 79
M  V30 84 1 40 80
M  V30 85 1 40 81
M  V30 86 1 42 82
M  V30 87 1 45 83
M  V30 END BOND
M  V30 END CTAB
M  END
