
     RDKit          3D

  0  0  0  0  0  0  0  0  0  0999 V3000
M  V30 BEGIN CTAB
M  V30 COUNTS 18 18 0 0 0
M  V30 BEGIN ATOM
M  V30 1 N -1.09563 1.9542 -0.939394 0
M  V30 2 C -1.21157 0.569796 -0.623292 0
M  V30 3 N -2.37117 -0.0882791 -0.815173 0
M  V30 4 C -2.51665 -1.39016 -0.529215 0
M  V30 5 C -1.46478 -2.11741 -0.0184623 0
M  V30 6 C -0.266064 -1.46271 0.18639 0
M  V30 7 C -0.139035 -0.126272 -0.114071 0
M  V30 8 C 1.1257 0.587156 0.0962829 0
M  V30 9 N 2.16686 -0.009091 0.570417 0
M  V30 10 N 3.38837 0.67137 0.775765 0
M  V30 11 H -0.553625 2.59937 -0.348495 0
M  V30 12 H -1.56401 2.33765 -1.7841 0
M  V30 13 H -3.47759 -1.83725 -0.713213 0
M  V30 14 H -1.55748 -3.17662 0.222136 0
M  V30 15 H 0.612874 -1.96508 0.586388 0
M  V30 16 H 1.23599 1.63449 -0.135881 0
M  V30 17 H 3.57974 1.61096 0.351509 0
M  V30 18 H 4.10808 0.207865 1.3704 0
M  V30 END ATOM
M  V30 BEGIN BOND
M  V30 1 1 1 2
M  V30 2 2 2 3
M  V30 3 1 3 4
M  V30 4 2 4 5
M  V30 5 1 5 6
M  V30 6 2 6 7
M  V30 7 1 7 8
M  V30 8 2 8 9
M  V30 9 1 9 10
M  V30 10 1 7 2
M  V30 11 1 1 11
M  V30 12 1 1 12
M  V30 13 1 4 13
M  V30 14 1 5 14
M  V30 15 1 6 15
M  V30 16 1 8 16
M  V30 17 1 10 17
M  V30 18 1 10 18
M  V30 END BOND
M  V30 END CTAB
M  END
