
     RDKit          3D

  0  0  0  0  0  0  0  0  0  0999 V3000
M  V30 BEGIN CTAB
M  V30 COUNTS 25 25 0 0 0
M  V30 BEGIN ATOM
M  V30 1 N -3.37281 0.913989 -0.423039 0
M  V30 2 C -3.00152 -0.150476 0.475037 0
M  V30 3 C -1.50897 -0.135132 0.75994 0
M  V30 4 C -0.792196 -0.401584 -0.537307 0
M  V30 5 C 0.665593 -0.415428 -0.410048 0
M  V30 6 C 1.33002 -1.60289 -0.12389 0
M  V30 7 C 2.69992 -1.65073 0.00242123 0
M  V30 8 N 3.42461 -0.531675 -0.151817 0
M  V30 9 C 2.81946 0.644834 -0.430793 0
M  V30 10 C 1.43313 0.71951 -0.56369 0
M  V30 11 N 3.59266 1.82101 -0.591894 0
M  V30 12 O -1.22336 -1.1858 1.63028 0
M  V30 13 H -2.66304 1.6599 -0.488965 0
M  V30 14 H -4.33238 1.24564 -0.291165 0
M  V30 15 H -3.57687 -0.0188742 1.43524 0
M  V30 16 H -3.33443 -1.10509 0.0461266 0
M  V30 17 H -1.27622 0.845987 1.18685 0
M  V30 18 H -1.20541 -1.32773 -0.987339 0
M  V30 19 H -1.05965 0.442271 -1.23521 0
M  V30 20 H 0.728842 -2.50273 -0.00144432 0
M  V30 21 H 3.2299 -2.56298 0.223928 0
M  V30 22 H 0.918351 1.64244 -0.785961 0
M  V30 23 H 3.21587 2.6208 -1.12938 0
M  V30 24 H 4.53498 1.85172 -0.158869 0
M  V30 25 H -1.24647 -0.816999 2.55099 0
M  V30 END ATOM
M  V30 BEGIN BOND
M  V30 1 1 1 2
M  V30 2 1 2 3
M  V30 3 1 3 4
M  V30 4 1 4 5
M  V30 5 2 5 6
M  V30 6 1 6 7
M  V30 7 2 7 8
M  V30 8 1 8 9
M  V30 9 2 9 10
M  V30 10 1 9 11
M  V30 11 1 3 12
M  V30 12 1 10 5
M  V30 13 1 1 13
M  V30 14 1 1 14
M  V30 15 1 2 15
M  V30 16 1 2 16
M  V30 17 1 3 17
M  V30 18 1 4 18
M  V30 19 1 4 19
M  V30 20 1 6 20
M  V30 21 1 7 21
M  V30 22 1 10 22
M  V30 23 1 11 23
M  V30 24 1 11 24
M  V30 25 1 12 25
M  V30 END BOND
M  V30 END CTAB
M  END
