
     RDKit          3D

  0  0  0  0  0  0  0  0  0  0999 V3000
M  V30 BEGIN CTAB
M  V30 COUNTS 19 19 0 0 0
M  V30 BEGIN ATOM
M  V30 1 N -1.75968 2.0269 0.00613181 0
M  V30 2 C -1.37157 0.671582 0.392963 0
M  V30 3 N -2.24179 0.0887262 1.0753 0
M  V30 4 N -2.12718 -1.17517 1.55908 0
M  V30 5 C -0.107075 0.180665 -0.0261233 0
M  V30 6 C 0.418067 -1.04543 0.237137 0
M  V30 7 C 1.67783 -1.45148 -0.215903 0
M  V30 8 Cl 2.3082 -3.06077 0.15894 0
M  V30 9 C 2.40878 -0.567334 -0.9578 0
M  V30 10 C 1.93218 0.684569 -1.25625 0
M  V30 11 C 0.683095 1.03373 -0.784189 0
M  V30 12 F 0.264128 2.30462 -1.11945 0
M  V30 13 H -1.44069 2.75458 0.664891 0
M  V30 14 H -2.30382 2.18116 -0.859335 0
M  V30 15 H -1.71747 -1.37323 2.49497 0
M  V30 16 H -2.45508 -1.98742 0.996055 0
M  V30 17 H -0.0871093 -1.80702 0.814256 0
M  V30 18 H 3.40279 -0.858741 -1.32766 0
M  V30 19 H 2.51639 1.40005 -1.85301 0
M  V30 END ATOM
M  V30 BEGIN BOND
M  V30 1 1 1 2
M  V30 2 2 2 3
M  V30 3 1 3 4
M  V30 4 1 2 5
M  V30 5 2 5 6
M  V30 6 1 6 7
M  V30 7 1 7 8
M  V30 8 2 7 9
M  V30 9 1 9 10
M  V30 10 2 10 11
M  V30 11 1 11 12
M  V30 12 1 11 5
M  V30 13 1 1 13
M  V30 14 1 1 14
M  V30 15 1 4 15
M  V30 16 1 4 16
M  V30 17 1 6 17
M  V30 18 1 9 18
M  V30 19 1 10 19
M  V30 END BOND
M  V30 END CTAB
M  END
