
     RDKit          3D

  0  0  0  0  0  0  0  0  0  0999 V3000
M  V30 BEGIN CTAB
M  V30 COUNTS 51 53 0 0 0
M  V30 BEGIN ATOM
M  V30 1 C 9.02539 0.878185 1.35556 0
M  V30 2 O 7.81106 0.278172 1.72219 0
M  V30 3 C 7.70257 -0.974501 2.28556 0
M  V30 4 O 8.73344 -1.64145 2.49484 0
M  V30 5 C 6.39451 -1.51283 2.63271 0
M  V30 6 C 5.26189 -0.764331 2.39582 0
M  V30 7 C 3.99243 -1.20938 2.69845 0
M  V30 8 C 2.81178 -0.417405 2.44637 0
M  V30 9 C 1.81209 0.242507 2.25353 0
M  V30 10 C 0.621567 1.01877 2.04866 0
M  V30 11 N -0.227271 0.743256 1.04243 0
M  V30 12 C -1.34842 1.44452 0.818613 0
M  V30 13 C -1.67538 2.50169 1.63805 0
M  V30 14 C -0.84577 2.83359 2.68646 0
M  V30 15 C 0.291803 2.08392 2.874 0
M  V30 16 C -2.18746 1.06234 -0.290001 0
M  V30 17 C -2.90618 0.74842 -1.20639 0
M  V30 18 C -3.79141 0.377361 -2.2956 0
M  V30 19 C -5.06835 0.909332 -2.38876 0
M  V30 20 C -5.92509 0.568215 -3.41797 0
M  V30 21 C -5.47626 -0.32176 -4.3588 0
M  V30 22 C -4.2008 -0.875246 -4.29641 0
M  V30 23 C -3.35566 -0.515121 -3.24842 0
M  V30 24 N -2.04524 -1.06705 -3.16117 0
M  V30 25 C -7.25092 1.13278 -3.49779 0
M  V30 26 O -7.64208 1.93926 -2.6351 0
M  V30 27 O -8.08365 0.777431 -4.53114 0
M  V30 28 C -9.3828 1.27559 -4.6856 0
M  V30 29 C 3.89801 -2.47434 3.26603 0
M  V30 30 N 2.59915 -2.948 3.58374 0
M  V30 31 C 5.02156 -3.24215 3.51222 0
M  V30 32 C 6.26608 -2.76364 3.19687 0
M  V30 33 H 9.63565 0.158876 0.808641 0
M  V30 34 H 8.75773 1.77932 0.730503 0
M  V30 35 H 9.55469 1.29578 2.24726 0
M  V30 36 H 5.33874 0.236361 1.94663 0
M  V30 37 H -2.60171 3.0743 1.44605 0
M  V30 38 H -1.13352 3.66951 3.30963 0
M  V30 39 H 0.944552 2.35736 3.71165 0
M  V30 40 H -5.37865 1.60429 -1.62794 0
M  V30 41 H -6.10883 -0.620458 -5.18359 0
M  V30 42 H -3.83009 -1.57147 -5.01968 0
M  V30 43 H -1.92768 -2.1083 -3.1182 0
M  V30 44 H -1.19059 -0.472009 -3.13812 0
M  V30 45 H -9.36097 2.01184 -5.51462 0
M  V30 46 H -10.1117 0.488378 -4.99494 0
M  V30 47 H -9.76339 1.79037 -3.76239 0
M  V30 48 H 2.29438 -3.935 3.46211 0
M  V30 49 H 1.91182 -2.27126 3.95961 0
M  V30 50 H 4.95853 -4.22716 3.95334 0
M  V30 51 H 7.18039 -3.34887 3.3797 0
M  V30 END ATOM
M  V30 BEGIN BOND
M  V30 1 1 1 2
M  V30 2 1 2 3
M  V30 3 2 3 4
M  V30 4 1 3 5
M  V30 5 2 5 6
M  V30 6 1 6 7
M  V30 7 1 7 8
M  V30 8 3 8 9
M  V30 9 1 9 10
M  V30 10 2 10 11
M  V30 11 1 11 12
M  V30 12 2 12 13
M  V30 13 1 13 14
M  V30 14 2 14 15
M  V30 15 1 12 16
M  V30 16 3 16 17
M  V30 17 1 17 18
M  V30 18 2 18 19
M  V30 19 1 19 20
M  V30 20 2 20 21
M  V30 21 1 21 22
M  V30 22 2 22 23
M  V30 23 1 23 24
M  V30 24 1 20 25
M  V30 25 2 25 26
M  V30 26 1 25 27
M  V30 27 1 27 28
M  V30 28 2 7 29
M  V30 29 1 29 30
M  V30 30 1 29 31
M  V30 31 2 31 32
M  V30 32 1 32 5
M  V30 33 1 15 10
M  V30 34 1 23 18
M  V30 35 1 1 33
M  V30 36 1 1 34
M  V30 37 1 1 35
M  V30 38 1 6 36
M  V30 39 1 13 37
M  V30 40 1 14 38
M  V30 41 1 15 39
M  V30 42 1 19 40
M  V30 43 1 21 41
M  V30 44 1 22 42
M  V30 45 1 24 43
M  V30 46 1 24 44
M  V30 47 1 28 45
M  V30 48 1 28 46
M  V30 49 1 28 47
M  V30 50 1 30 48
M  V30 51 1 30 49
M  V30 52 1 31 50
M  V30 53 1 32 51
M  V30 END BOND
M  V30 END CTAB
M  END
