
     RDKit          3D

  0  0  0  0  0  0  0  0  0  0999 V3000
M  V30 BEGIN CTAB
M  V30 COUNTS 51 53 0 0 0
M  V30 BEGIN ATOM
M  V30 1 C 6.74729 0.538247 0.947696 0 CFG=1
M  V30 2 C 7.54938 0.579224 -0.325976 0
M  V30 3 O 7.5405 0.875303 2.05121 0
M  V30 4 C 5.56245 1.51335 0.893654 0 CFG=2
M  V30 5 N 4.79292 1.40669 2.11494 0
M  V30 6 C 4.71334 1.09038 -0.241508 0
M  V30 7 O 5.14372 1.10198 -1.43374 0
M  V30 8 O 3.4192 0.67353 0.0141267 0
M  V30 9 P 2.35917 0.164769 -1.23478 0
M  V30 10 O 1.5504 1.45391 -1.93061 0
M  V30 11 O 3.17998 -0.521365 -2.2959 0
M  V30 12 O 1.28819 -0.977001 -0.598853 0
M  V30 13 C 0.258243 -0.364048 0.112308 0
M  V30 14 C -0.640568 -1.47387 0.637233 0 CFG=1
M  V30 15 O -1.69828 -1.00308 1.35838 0
M  V30 16 C -2.87902 -1.50175 0.812538 0 CFG=2
M  V30 17 C -2.5784 -1.67303 -0.635508 0 CFG=2
M  V30 18 O -3.32405 -2.67304 -1.24777 0
M  V30 19 C -1.15235 -2.23954 -0.543341 0 CFG=2
M  V30 20 O -1.26398 -3.56796 -0.212708 0
M  V30 21 N -3.91728 -0.578752 1.12084 0
M  V30 22 C -4.15419 -0.028007 2.31781 0
M  V30 23 N -5.1976 0.794624 2.2779 0
M  V30 24 C -5.66668 0.784856 1.00217 0
M  V30 25 C -4.87085 -0.0687383 0.283208 0
M  V30 26 N -5.11453 -0.265463 -1.01483 0
M  V30 27 C -6.11275 0.345463 -1.63668 0
M  V30 28 N -6.90281 1.1828 -0.956234 0
M  V30 29 C -6.70198 1.41964 0.361133 0
M  V30 30 N -7.55031 2.30922 1.06024 0
M  V30 31 H 6.36882 -0.49185 1.07968 0
M  V30 32 H 7.46015 1.5957 -0.774025 0
M  V30 33 H 8.60924 0.399848 -0.033886 0
M  V30 34 H 7.18375 -0.199961 -1.00164 0
M  V30 35 H 7.30907 0.277168 2.80446 0
M  V30 36 H 5.93742 2.54773 0.782246 0
M  V30 37 H 4.28277 0.496537 2.0781 0
M  V30 38 H 4.09897 2.18838 2.09886 0
M  V30 39 H 1.13031 2.05268 -1.24524 0
M  V30 40 H 0.698693 0.231367 0.918138 0
M  V30 41 H -0.363447 0.259693 -0.588289 0
M  V30 42 H 0.0186476 -2.1119 1.28878 0
M  V30 43 H -3.03749 -2.5122 1.27296 0
M  V30 44 H -2.57008 -0.723102 -1.16835 0
M  V30 45 H -3.38394 -2.49766 -2.23216 0
M  V30 46 H -0.597079 -2.04902 -1.4802 0
M  V30 47 H -1.85507 -4.07472 -0.836052 0
M  V30 48 H -3.59692 -0.190314 3.25715 0
M  V30 49 H -6.34678 0.215255 -2.68869 0
M  V30 50 H -7.53031 3.31497 0.831474 0
M  V30 51 H -8.1959 1.97303 1.80175 0
M  V30 END ATOM
M  V30 BEGIN BOND
M  V30 1 1 1 2
M  V30 2 1 1 3
M  V30 3 1 1 4
M  V30 4 1 4 5
M  V30 5 1 4 6
M  V30 6 2 6 7
M  V30 7 1 6 8
M  V30 8 1 8 9
M  V30 9 1 9 10
M  V30 10 2 9 11
M  V30 11 1 9 12
M  V30 12 1 12 13
M  V30 13 1 13 14
M  V30 14 1 14 15
M  V30 15 1 15 16
M  V30 16 1 16 17
M  V30 17 1 17 18
M  V30 18 1 17 19
M  V30 19 1 19 20
M  V30 20 1 16 21
M  V30 21 1 21 22
M  V30 22 2 22 23
M  V30 23 1 23 24
M  V30 24 2 24 25
M  V30 25 1 25 26
M  V30 26 2 26 27
M  V30 27 1 27 28
M  V30 28 2 28 29
M  V30 29 1 29 30
M  V30 30 1 19 14
M  V30 31 1 25 21
M  V30 32 1 29 24
M  V30 33 1 1 31 CFG=1
M  V30 34 1 2 32
M  V30 35 1 2 33
M  V30 36 1 2 34
M  V30 37 1 3 35
M  V30 38 1 4 36 CFG=3
M  V30 39 1 5 37
M  V30 40 1 5 38
M  V30 41 1 10 39
M  V30 42 1 13 40
M  V30 43 1 13 41
M  V30 44 1 14 42 CFG=1
M  V30 45 1 16 43 CFG=1
M  V30 46 1 17 44 CFG=3
M  V30 47 1 18 45
M  V30 48 1 19 46 CFG=3
M  V30 49 1 20 47
M  V30 50 1 22 48
M  V30 51 1 27 49
M  V30 52 1 30 50
M  V30 53 1 30 51
M  V30 END BOND
M  V30 END CTAB
M  END
