
     RDKit          3D

  0  0  0  0  0  0  0  0  0  0999 V3000
M  V30 BEGIN CTAB
M  V30 COUNTS 32 34 0 0 0
M  V30 BEGIN ATOM
M  V30 1 N 3.29406 1.49872 -1.97456 0
M  V30 2 C 3.7778 0.832625 -0.810589 0
M  V30 3 N 5.12499 0.846225 -0.599027 0
M  V30 4 C 5.62507 0.234069 0.497458 0
M  V30 5 C 4.80866 -0.406082 1.41396 0
M  V30 6 N 3.48882 -0.390454 1.15844 0
M  V30 7 C 2.94758 0.202435 0.0866044 0
M  V30 8 C 1.51728 0.193083 -0.157003 0
M  V30 9 O 0.899067 0.724893 -1.14016 0
M  V30 10 N -0.36184 0.553086 -1.0877 0
M  V30 11 C -0.611282 -0.169233 0.0501049 0
M  V30 12 N 0.557456 -0.39709 0.637532 0
M  V30 13 C -1.99648 -0.558737 0.424183 0
M  V30 14 N -1.98946 -1.74322 1.26664 0
M  V30 15 C -2.73668 -0.877086 -0.853914 0
M  V30 16 C -3.97618 -3.7399e-05 -0.845626 0
M  V30 17 C -4.18566 0.279198 0.641967 0
M  V30 18 C -2.75758 0.547354 1.06275 0
M  V30 19 H 3.38753 1.09985 -2.944 0
M  V30 20 H 2.81917 2.41994 -1.88165 0
M  V30 21 H 6.69615 0.251846 0.641994 0
M  V30 22 H 5.27151 -0.874112 2.27181 0
M  V30 23 H -2.47781 -2.51487 0.77357 0
M  V30 24 H -0.990223 -2.06575 1.45745 0
M  V30 25 H -2.12831 -0.694831 -1.74799 0
M  V30 26 H -3.05631 -1.95192 -0.880126 0
M  V30 27 H -3.67845 0.938763 -1.35016 0
M  V30 28 H -4.82783 -0.482431 -1.3185 0
M  V30 29 H -4.54132 -0.650079 1.11644 0
M  V30 30 H -4.85862 1.14646 0.810019 0
M  V30 31 H -2.62274 0.465711 2.16013 0
M  V30 32 H -2.41836 1.54167 0.703694 0
M  V30 END ATOM
M  V30 BEGIN BOND
M  V30 1 1 1 2
M  V30 2 2 2 3
M  V30 3 1 3 4
M  V30 4 2 4 5
M  V30 5 1 5 6
M  V30 6 2 6 7
M  V30 7 1 7 8
M  V30 8 1 8 9
M  V30 9 1 9 10
M  V30 10 2 10 11
M  V30 11 1 11 12
M  V30 12 1 11 13
M  V30 13 1 13 14
M  V30 14 1 13 15
M  V30 15 1 15 16
M  V30 16 1 16 17
M  V30 17 1 17 18
M  V30 18 1 7 2
M  V30 19 2 12 8
M  V30 20 1 18 13
M  V30 21 1 1 19
M  V30 22 1 1 20
M  V30 23 1 4 21
M  V30 24 1 5 22
M  V30 25 1 14 23
M  V30 26 1 14 24
M  V30 27 1 15 25
M  V30 28 1 15 26
M  V30 29 1 16 27
M  V30 30 1 16 28
M  V30 31 1 17 29
M  V30 32 1 17 30
M  V30 33 1 18 31
M  V30 34 1 18 32
M  V30 END BOND
M  V30 END CTAB
M  END
