
     RDKit          3D

  0  0  0  0  0  0  0  0  0  0999 V3000
M  V30 BEGIN CTAB
M  V30 COUNTS 35 37 0 0 0
M  V30 BEGIN ATOM
M  V30 1 C -6.34695 1.67764 0.0940967 0
M  V30 2 O -5.98625 0.383251 -0.315351 0
M  V30 3 C -4.69097 -0.0561844 -0.163376 0
M  V30 4 C -3.75648 0.767194 0.379456 0
M  V30 5 C -2.44827 0.297765 0.524483 0
M  V30 6 C -2.09166 -0.957044 0.136327 0
M  V30 7 C -3.0984 -1.77177 -0.420849 0
M  V30 8 C -4.38771 -1.34204 -0.576365 0
M  V30 9 C -0.785593 -1.52823 0.213005 0
M  V30 10 O -0.684324 -2.80365 0.290774 0
M  V30 11 C 0.468937 -0.789451 0.207777 0
M  V30 12 S 0.727162 0.903874 0.0667542 0
M  V30 13 C 2.41989 0.943719 0.124859 0
M  V30 14 C 2.75335 -0.370774 0.253735 0
M  V30 15 C 1.74879 -1.27086 0.297171 0
M  V30 16 N 1.94314 -2.7221 0.434091 0
M  V30 17 C 4.13426 -0.630406 0.322427 0
M  V30 18 C 5.01104 0.422355 0.256728 0
M  V30 19 C 4.64113 1.74061 0.126507 0
M  V30 20 N 3.31165 1.96667 0.0630013 0
M  V30 21 N 5.57195 2.78638 0.0594052 0
M  V30 22 C 6.4296 0.163576 0.32562 0
M  V30 23 N 7.56581 -0.039152 0.399528 0
M  V30 24 H -7.39166 1.92741 -0.17887 0
M  V30 25 H -5.64396 2.37851 -0.441757 0
M  V30 26 H -6.1545 1.72809 1.19032 0
M  V30 27 H -3.95386 1.77757 0.715607 0
M  V30 28 H -1.69189 0.933535 0.97189 0
M  V30 29 H -2.85802 -2.78736 -0.745762 0
M  V30 30 H -5.14518 -1.99392 -1.01429 0
M  V30 31 H 2.46132 -3.263 -0.267737 0
M  V30 32 H 1.54569 -3.20498 1.26355 0
M  V30 33 H 4.55011 -1.61541 0.424069 0
M  V30 34 H 5.62798 3.36473 -0.798358 0
M  V30 35 H 6.20386 2.98344 0.855664 0
M  V30 END ATOM
M  V30 BEGIN BOND
M  V30 1 1 1 2
M  V30 2 1 2 3
M  V30 3 2 3 4
M  V30 4 1 4 5
M  V30 5 2 5 6
M  V30 6 1 6 7
M  V30 7 2 7 8
M  V30 8 1 6 9
M  V30 9 2 9 10
M  V30 10 1 9 11
M  V30 11 1 11 12
M  V30 12 1 12 13
M  V30 13 2 13 14
M  V30 14 1 14 15
M  V30 15 1 15 16
M  V30 16 1 14 17
M  V30 17 2 17 18
M  V30 18 1 18 19
M  V30 19 2 19 20
M  V30 20 1 19 21
M  V30 21 1 18 22
M  V30 22 3 22 23
M  V30 23 1 8 3
M  V30 24 2 15 11
M  V30 25 1 20 13
M  V30 26 1 1 24
M  V30 27 1 1 25
M  V30 28 1 1 26
M  V30 29 1 4 27
M  V30 30 1 5 28
M  V30 31 1 7 29
M  V30 32 1 8 30
M  V30 33 1 16 31
M  V30 34 1 16 32
M  V30 35 1 17 33
M  V30 36 1 21 34
M  V30 37 1 21 35
M  V30 END BOND
M  V30 END CTAB
M  END
