
     RDKit          3D

  0  0  0  0  0  0  0  0  0  0999 V3000
M  V30 BEGIN CTAB
M  V30 COUNTS 75 79 0 0 0
M  V30 BEGIN ATOM
M  V30 1 N -2.98633 2.44739 3.18536 0
M  V30 2 C -2.29097 2.65868 1.94906 0
M  V30 3 C -2.39294 1.74186 0.906517 0
M  V30 4 C -1.73304 1.92692 -0.287979 0
M  V30 5 C -1.81382 0.964977 -1.43541 0
M  V30 6 N -0.785876 -0.0116533 -1.39323 0
M  V30 7 C -0.76444 -1.31419 -0.795206 0 CFG=2
M  V30 8 C -2.06661 -1.95168 -0.46985 0
M  V30 9 C -2.94888 -2.2381 -1.64829 0
M  V30 10 C -4.24041 -2.86082 -1.2313 0
M  V30 11 C -5.37382 -2.14027 -0.920325 0
M  V30 12 C -6.55146 -2.76272 -0.537998 0
M  V30 13 C -6.6314 -4.13381 -0.454626 0
M  V30 14 C -5.5027 -4.86188 -0.763839 0
M  V30 15 C -4.31629 -4.23264 -1.14912 0
M  V30 16 C 0.28619 -1.43311 0.303269 0 CFG=1
M  V30 17 O 0.774204 -2.74236 0.362855 0
M  V30 18 C 1.3965 -0.436586 0.0740518 0 CFG=1
M  V30 19 C 2.61183 -0.658096 0.914548 0
M  V30 20 C 2.38974 -0.575774 2.37211 0
M  V30 21 C 2.43987 0.690998 2.97532 0
M  V30 22 C 2.26691 0.889514 4.30547 0
M  V30 23 C 2.02953 -0.182387 5.12747 0
M  V30 24 C 1.97005 -1.45111 4.58871 0
M  V30 25 C 2.15148 -1.6231 3.22204 0
M  V30 26 N 1.62527 -0.201905 -1.31033 0
M  V30 27 C 2.80433 -0.43606 -2.07739 0
M  V30 28 C 3.71539 0.729376 -2.19406 0
M  V30 29 C 3.47255 1.98998 -1.76103 0
M  V30 30 C 4.41161 2.98496 -1.93718 0
M  V30 31 N 4.19256 4.30697 -1.49951 0
M  V30 32 C 5.63358 2.72127 -2.56409 0
M  V30 33 F 6.56242 3.68322 -2.74403 0
M  V30 34 C 5.88575 1.44266 -3.00587 0
M  V30 35 C 4.93524 0.481072 -2.81603 0
M  V30 36 C 0.485116 0.345553 -2.02038 0
M  V30 37 O 0.573924 1.04642 -3.05335 0
M  V30 38 C -0.959638 3.05655 -0.427019 0
M  V30 39 C -0.846782 3.98788 0.611699 0
M  V30 40 C -1.51413 3.79013 1.80506 0
M  V30 41 F -1.41863 4.68566 2.83266 0
M  V30 42 H -2.62193 2.73442 4.10437 0
M  V30 43 H -3.92543 1.97175 3.16437 0
M  V30 44 H -2.99498 0.875322 1.03234 0
M  V30 45 H -1.67302 1.58649 -2.36539 0
M  V30 46 H -2.84589 0.63418 -1.46005 0
M  V30 47 H -0.329677 -2.06651 -1.58024 0
M  V30 48 H -1.91878 -2.94722 0.0473104 0
M  V30 49 H -2.68123 -1.37187 0.252553 0
M  V30 50 H -3.17604 -1.40467 -2.3105 0
M  V30 51 H -2.37654 -2.97153 -2.29849 0
M  V30 52 H -5.31896 -1.05241 -0.983884 0
M  V30 53 H -7.42857 -2.18758 -0.29814 0
M  V30 54 H -7.54979 -4.6472 -0.155215 0
M  V30 55 H -5.5296 -5.95584 -0.708395 0
M  V30 56 H -3.43414 -4.82425 -1.38978 0
M  V30 57 H -0.234418 -1.22504 1.25418 0
M  V30 58 H 0.292394 -3.34536 -0.232814 0
M  V30 59 H 0.949424 0.524049 0.51138 0
M  V30 60 H 3.09159 -1.64965 0.736554 0
M  V30 61 H 3.40534 0.0804504 0.687213 0
M  V30 62 H 2.62534 1.54394 2.34496 0
M  V30 63 H 2.31371 1.87537 4.72138 0
M  V30 64 H 1.88287 -0.0936786 6.19522 0
M  V30 65 H 1.78734 -2.33449 5.17808 0
M  V30 66 H 2.11065 -2.62622 2.83215 0
M  V30 67 H 3.43144 -1.26983 -1.69732 0
M  V30 68 H 2.58199 -0.739684 -3.14503 0
M  V30 69 H 2.53083 2.1977 -1.27415 0
M  V30 70 H 4.65201 4.6537 -0.644961 0
M  V30 71 H 3.57088 4.93004 -2.03508 0
M  V30 72 H 6.82632 1.19002 -3.50101 0
M  V30 73 H 5.17933 -0.524203 -3.18433 0
M  V30 74 H -0.421771 3.24075 -1.35474 0
M  V30 75 H -0.246559 4.87528 0.518692 0
M  V30 END ATOM
M  V30 BEGIN BOND
M  V30 1 1 1 2
M  V30 2 2 2 3
M  V30 3 1 3 4
M  V30 4 1 4 5
M  V30 5 1 5 6
M  V30 6 1 6 7
M  V30 7 1 7 8
M  V30 8 1 8 9
M  V30 9 1 9 10
M  V30 10 2 10 11
M  V30 11 1 11 12
M  V30 12 2 12 13
M  V30 13 1 13 14
M  V30 14 2 14 15
M  V30 15 1 7 16
M  V30 16 1 16 17
M  V30 17 1 16 18
M  V30 18 1 18 19
M  V30 19 1 19 20
M  V30 20 2 20 21
M  V30 21 1 21 22
M  V30 22 2 22 23
M  V30 23 1 23 24
M  V30 24 2 24 25
M  V30 25 1 18 26
M  V30 26 1 26 27
M  V30 27 1 27 28
M  V30 28 2 28 29
M  V30 29 1 29 30
M  V30 30 1 30 31
M  V30 31 2 30 32
M  V30 32 1 32 33
M  V30 33 1 32 34
M  V30 34 2 34 35
M  V30 35 1 26 36
M  V30 36 2 36 37
M  V30 37 2 4 38
M  V30 38 1 38 39
M  V30 39 2 39 40
M  V30 40 1 40 41
M  V30 41 1 40 2
M  V30 42 1 36 6
M  V30 43 1 15 10
M  V30 44 1 25 20
M  V30 45 1 35 28
M  V30 46 1 1 42
M  V30 47 1 1 43
M  V30 48 1 3 44
M  V30 49 1 5 45
M  V30 50 1 5 46
M  V30 51 1 7 47 CFG=3
M  V30 52 1 8 48
M  V30 53 1 8 49
M  V30 54 1 9 50
M  V30 55 1 9 51
M  V30 56 1 11 52
M  V30 57 1 12 53
M  V30 58 1 13 54
M  V30 59 1 14 55
M  V30 60 1 15 56
M  V30 61 1 16 57 CFG=1
M  V30 62 1 17 58
M  V30 63 1 18 59 CFG=1
M  V30 64 1 19 60
M  V30 65 1 19 61
M  V30 66 1 21 62
M  V30 67 1 22 63
M  V30 68 1 23 64
M  V30 69 1 24 65
M  V30 70 1 25 66
M  V30 71 1 27 67
M  V30 72 1 27 68
M  V30 73 1 29 69
M  V30 74 1 31 70
M  V30 75 1 31 71
M  V30 76 1 34 72
M  V30 77 1 35 73
M  V30 78 1 38 74
M  V30 79 1 39 75
M  V30 END BOND
M  V30 END CTAB
M  END
