
     RDKit          3D

  0  0  0  0  0  0  0  0  0  0999 V3000
M  V30 BEGIN CTAB
M  V30 COUNTS 54 57 0 0 0
M  V30 BEGIN ATOM
M  V30 1 C -1.5434 -4.24665 -1.59294 0
M  V30 2 C -1.19024 -3.31453 -0.446413 0
M  V30 3 N -1.56784 -1.9481 -0.732375 0
M  V30 4 C -0.797716 -1.28977 -1.75467 0
M  V30 5 C 0.636937 -1.10092 -1.34599 0
M  V30 6 C 1.65252 -0.986435 -2.27056 0
M  V30 7 C 2.96182 -0.814655 -1.87314 0
M  V30 8 C 3.33736 -0.746591 -0.551272 0
M  V30 9 C 2.30476 -0.861996 0.384891 0
M  V30 10 C 0.99797 -1.03397 -0.0167195 0
M  V30 11 S 4.99346 -0.535997 -0.0253494 0
M  V30 12 O 5.95315 -1.18797 -0.989406 0
M  V30 13 O 5.22044 -1.17935 1.31866 0
M  V30 14 C 5.40191 1.15471 0.125476 0
M  V30 15 C 5.99006 1.79103 -0.953253 0
M  V30 16 C 6.28995 3.10696 -0.803783 0
M  V30 17 C 6.03282 3.81081 0.361308 0
M  V30 18 C 5.44634 3.11966 1.39775 0
M  V30 19 C 5.12162 1.79153 1.30456 0
M  V30 20 C -2.63273 -1.28391 -0.0733264 0
M  V30 21 C -2.92335 0.0390887 -0.310437 0
M  V30 22 C -3.96379 0.702101 0.317242 0
M  V30 23 C -4.76533 0.0318894 1.22896 0
M  V30 24 C -4.49903 -1.29457 1.48782 0
M  V30 25 C -3.45464 -1.93365 0.84731 0
M  V30 26 N -5.76889 0.692101 1.82327 0
M  V30 27 C -6.01038 1.97877 1.55345 0
M  V30 28 N -7.10627 2.66703 2.21482 0
M  V30 29 N -5.23819 2.62055 0.676823 0
M  V30 30 C -4.22134 2.03328 0.0454589 0
M  V30 31 N -3.3918 2.69532 -0.893523 0
M  V30 32 H -1.14899 -5.28165 -1.36758 0
M  V30 33 H -1.06348 -3.96403 -2.54332 0
M  V30 34 H -2.63148 -4.35767 -1.7208 0
M  V30 35 H -1.57454 -3.63392 0.496595 0
M  V30 36 H -0.0568878 -3.40862 -0.379611 0
M  V30 37 H -1.16029 -0.335757 -2.11982 0
M  V30 38 H -0.782596 -1.96009 -2.6691 0
M  V30 39 H 1.35903 -1.03969 -3.31458 0
M  V30 40 H 3.76922 -0.724865 -2.6175 0
M  V30 41 H 2.59452 -0.810128 1.42346 0
M  V30 42 H 0.210079 -1.12224 0.724153 0
M  V30 43 H 6.18667 1.24043 -1.84744 0
M  V30 44 H 6.74201 3.64252 -1.60524 0
M  V30 45 H 6.27407 4.86682 0.483235 0
M  V30 46 H 5.23914 3.65198 2.30856 0
M  V30 47 H 4.66391 1.30814 2.15335 0
M  V30 48 H -2.34469 0.646089 -1.00625 0
M  V30 49 H -5.08543 -1.86464 2.18416 0
M  V30 50 H -3.25565 -2.98254 1.05006 0
M  V30 51 H -6.94426 3.32227 2.98554 0
M  V30 52 H -8.05726 2.46796 1.87456 0
M  V30 53 H -3.73087 2.78484 -1.87027 0
M  V30 54 H -2.46843 3.079 -0.604664 0
M  V30 END ATOM
M  V30 BEGIN BOND
M  V30 1 1 1 2
M  V30 2 1 2 3
M  V30 3 1 3 4
M  V30 4 1 4 5
M  V30 5 2 5 6
M  V30 6 1 6 7
M  V30 7 2 7 8
M  V30 8 1 8 9
M  V30 9 2 9 10
M  V30 10 1 8 11
M  V30 11 2 11 12
M  V30 12 2 11 13
M  V30 13 1 11 14
M  V30 14 2 14 15
M  V30 15 1 15 16
M  V30 16 2 16 17
M  V30 17 1 17 18
M  V30 18 2 18 19
M  V30 19 1 3 20
M  V30 20 2 20 21
M  V30 21 1 21 22
M  V30 22 2 22 23
M  V30 23 1 23 24
M  V30 24 2 24 25
M  V30 25 1 23 26
M  V30 26 2 26 27
M  V30 27 1 27 28
M  V30 28 1 27 29
M  V30 29 2 29 30
M  V30 30 1 30 31
M  V30 31 1 10 5
M  V30 32 1 19 14
M  V30 33 1 25 20
M  V30 34 1 30 22
M  V30 35 1 1 32
M  V30 36 1 1 33
M  V30 37 1 1 34
M  V30 38 1 2 35
M  V30 39 1 2 36
M  V30 40 1 4 37
M  V30 41 1 4 38
M  V30 42 1 6 39
M  V30 43 1 7 40
M  V30 44 1 9 41
M  V30 45 1 10 42
M  V30 46 1 15 43
M  V30 47 1 16 44
M  V30 48 1 17 45
M  V30 49 1 18 46
M  V30 50 1 19 47
M  V30 51 1 21 48
M  V30 52 1 24 49
M  V30 53 1 25 50
M  V30 54 1 28 51
M  V30 55 1 28 52
M  V30 56 1 31 53
M  V30 57 1 31 54
M  V30 END BOND
M  V30 END CTAB
M  END
