
     RDKit          3D

  0  0  0  0  0  0  0  0  0  0999 V3000
M  V30 BEGIN CTAB
M  V30 COUNTS 57 60 0 0 0
M  V30 BEGIN ATOM
M  V30 1 C -3.15271 1.58546 -0.550395 0 CFG=2
M  V30 2 N -4.41078 0.849807 -0.612384 0
M  V30 3 C -4.55793 -0.242296 -1.41688 0
M  V30 4 O -3.56862 -0.66907 -2.11231 0
M  V30 5 C -5.73464 -1.10491 -1.6302 0
M  V30 6 N -5.78283 -2.00347 -2.44747 0
M  V30 7 O -4.71196 -2.33731 -3.28426 0
M  V30 8 C -6.96294 -0.89362 -0.75064 0
M  V30 9 C -8.07759 -1.66933 -0.900209 0
M  V30 10 Cl -8.38665 -2.93196 -2.11342 0
M  V30 11 S -9.1038 -1.12237 0.405521 0
M  V30 12 C -8.01678 0.0487357 1.02897 0
M  V30 13 N -8.09652 0.94697 2.15002 0
M  V30 14 N -6.99459 -0.0472457 0.233034 0
M  V30 15 C -2.48949 1.58674 -1.92513 0
M  V30 16 O -2.88574 1.95767 -3.04345 0
M  V30 17 N -1.34666 1.04594 -1.34375 0
M  V30 18 C 0.0109648 0.596373 -1.41946 0
M  V30 19 C 0.911389 1.32918 -2.35862 0
M  V30 20 O 2.12969 1.46235 -2.62244 0
M  V30 21 O 0.100389 2.05393 -3.25857 0
M  V30 22 C 0.498093 -0.316155 -0.659832 0
M  V30 23 C -0.106047 -1.13089 0.424292 0
M  V30 24 S -1.92245 -0.79129 0.444894 0
M  V30 25 C -1.96343 1.00592 0.0204044 0 CFG=2
M  V30 26 S 2.31882 -0.555183 -0.804053 0
M  V30 27 C 2.88567 0.241609 0.740034 0
M  V30 28 C 2.33247 1.35705 1.20929 0
M  V30 29 C 2.78189 1.95154 2.36183 0
M  V30 30 N 3.79907 1.35551 2.98653 0
M  V30 31 C 4.38225 0.205562 2.52655 0
M  V30 32 C 3.92198 -0.389354 1.34821 0
M  V30 33 C 4.41613 -1.67618 0.853362 0
M  V30 34 S 6.1129 -1.45631 0.301211 0
M  V30 35 C 6.97297 -0.0635142 1.00658 0
M  V30 36 C 8.4633 -0.261735 0.579346 0
M  V30 37 N 8.71448 -1.63989 1.04082 0
M  V30 38 H -3.31415 2.68466 -0.328302 0
M  V30 39 H -5.13151 1.25873 0.00998431 0
M  V30 40 H -4.35227 -1.69824 -4.02225 0
M  V30 41 H -9.03864 1.42588 2.22808 0
M  V30 42 H -7.37035 1.10709 2.81989 0
M  V30 43 H 2.87923 0.87012 -3.0248 0
M  V30 44 H 0.0832003 -2.20949 0.216274 0
M  V30 45 H 0.307407 -0.868943 1.40123 0
M  V30 46 H -1.39266 1.61142 0.782321 0
M  V30 47 H 1.50969 1.84708 0.692739 0
M  V30 48 H 2.35164 2.89488 2.74211 0
M  V30 49 H 5.14728 -0.248367 3.08529 0
M  V30 50 H 4.39897 -2.41564 1.73265 0
M  V30 51 H 3.75583 -2.05387 0.074363 0
M  V30 52 H 7.0029 0.0481926 2.06687 0
M  V30 53 H 6.64835 0.891526 0.494043 0
M  V30 54 H 8.51805 -0.179783 -0.462147 0
M  V30 55 H 9.09386 0.407074 1.19508 0
M  V30 56 H 8.49041 -2.2149 0.148065 0
M  V30 57 H 7.93246 -1.87149 1.74106 0
M  V30 END ATOM
M  V30 BEGIN BOND
M  V30 1 1 1 2
M  V30 2 1 2 3
M  V30 3 2 3 4
M  V30 4 1 3 5
M  V30 5 2 5 6
M  V30 6 1 6 7
M  V30 7 1 5 8
M  V30 8 2 8 9
M  V30 9 1 9 10
M  V30 10 1 9 11
M  V30 11 1 11 12
M  V30 12 1 12 13
M  V30 13 2 12 14
M  V30 14 1 1 15
M  V30 15 2 15 16
M  V30 16 1 15 17
M  V30 17 1 17 18
M  V30 18 1 18 19
M  V30 19 1 19 20
M  V30 20 2 19 21
M  V30 21 2 18 22
M  V30 22 1 22 23
M  V30 23 1 23 24
M  V30 24 1 24 25
M  V30 25 1 22 26
M  V30 26 1 26 27
M  V30 27 2 27 28
M  V30 28 1 28 29
M  V30 29 2 29 30
M  V30 30 1 30 31
M  V30 31 2 31 32
M  V30 32 1 32 33
M  V30 33 1 33 34
M  V30 34 1 34 35
M  V30 35 1 35 36
M  V30 36 1 36 37
M  V30 37 1 25 1
M  V30 38 1 32 27
M  V30 39 1 14 8
M  V30 40 1 25 17
M  V30 41 1 1 38 CFG=1
M  V30 42 1 2 39
M  V30 43 1 7 40
M  V30 44 1 13 41
M  V30 45 1 13 42
M  V30 46 1 20 43
M  V30 47 1 23 44
M  V30 48 1 23 45
M  V30 49 1 25 46 CFG=1
M  V30 50 1 28 47
M  V30 51 1 29 48
M  V30 52 1 31 49
M  V30 53 1 33 50
M  V30 54 1 33 51
M  V30 55 1 35 52
M  V30 56 1 35 53
M  V30 57 1 36 54
M  V30 58 1 36 55
M  V30 59 1 37 56
M  V30 60 1 37 57
M  V30 END BOND
M  V30 END CTAB
M  END
