
     RDKit          3D

  0  0  0  0  0  0  0  0  0  0999 V3000
M  V30 BEGIN CTAB
M  V30 COUNTS 32 33 0 0 0
M  V30 BEGIN ATOM
M  V30 1 C -3.5408 0.772075 1.46175 0
M  V30 2 C -3.47511 0.747452 -0.023606 0
M  V30 3 C -2.43828 -0.181503 -0.576672 0
M  V30 4 C -1.06988 0.256847 -0.173895 0
M  V30 5 C -0.0228244 -0.659129 -0.390222 0
M  V30 6 C -0.274949 -1.95412 -1.04643 0
M  V30 7 C 1.23902 -0.239629 0.0100246 0
M  V30 8 C 1.46208 1.01916 0.591901 0
M  V30 9 C 0.404833 1.8764 0.777721 0
M  V30 10 C -0.840603 1.48505 0.39327 0
M  V30 11 N 2.7043 1.37022 0.969437 0
M  V30 12 C 3.74265 0.548174 0.804896 0
M  V30 13 N 5.05896 0.970236 1.23669 0
M  V30 14 N 3.58398 -0.658927 0.257384 0
M  V30 15 C 2.32839 -1.05222 -0.140398 0
M  V30 16 N 2.18105 -2.3354 -0.707373 0
M  V30 17 H -2.65267 0.331646 1.94603 0
M  V30 18 H -4.44495 0.231601 1.86348 0
M  V30 19 H -3.59135 1.84453 1.82739 0
M  V30 20 H -4.49474 0.42451 -0.394081 0
M  V30 21 H -3.37921 1.79463 -0.428729 0
M  V30 22 H -2.55092 -0.263133 -1.6798 0
M  V30 23 H -2.66437 -1.19621 -0.13614 0
M  V30 24 H 0.130846 -2.05221 -2.08109 0
M  V30 25 H -0.315468 -2.83815 -0.425807 0
M  V30 26 H -1.38055 -1.90911 -1.3566 0
M  V30 27 H 0.60543 2.84268 1.22618 0
M  V30 28 H -1.65806 2.18968 0.52718 0
M  V30 29 H 5.68631 0.304757 1.738 0
M  V30 30 H 5.38822 1.94104 1.05399 0
M  V30 31 H 1.93721 -3.1579 -0.137453 0
M  V30 32 H 2.34143 -2.45304 -1.72355 0
M  V30 END ATOM
M  V30 BEGIN BOND
M  V30 1 1 1 2
M  V30 2 1 2 3
M  V30 3 1 3 4
M  V30 4 2 4 5
M  V30 5 1 5 6
M  V30 6 1 5 7
M  V30 7 2 7 8
M  V30 8 1 8 9
M  V30 9 2 9 10
M  V30 10 1 8 11
M  V30 11 2 11 12
M  V30 12 1 12 13
M  V30 13 1 12 14
M  V30 14 2 14 15
M  V30 15 1 15 16
M  V30 16 1 10 4
M  V30 17 1 15 7
M  V30 18 1 1 17
M  V30 19 1 1 18
M  V30 20 1 1 19
M  V30 21 1 2 20
M  V30 22 1 2 21
M  V30 23 1 3 22
M  V30 24 1 3 23
M  V30 25 1 6 24
M  V30 26 1 6 25
M  V30 27 1 6 26
M  V30 28 1 9 27
M  V30 29 1 10 28
M  V30 30 1 13 29
M  V30 31 1 13 30
M  V30 32 1 16 31
M  V30 33 1 16 32
M  V30 END BOND
M  V30 END CTAB
M  END
