
     RDKit          3D

  0  0  0  0  0  0  0  0  0  0999 V3000
M  V30 BEGIN CTAB
M  V30 COUNTS 18 18 0 0 0
M  V30 BEGIN ATOM
M  V30 1 N 2.166 0.433042 0.506079 0
M  V30 2 C 1.41662 -0.765384 0.212504 0
M  V30 3 C 0.369025 -0.547133 -0.849705 0
M  V30 4 N -0.580646 0.454497 -0.440879 0
M  V30 5 C -0.45129 1.77279 -0.68592 0
M  V30 6 N -1.54179 2.35731 -0.142778 0
M  V30 7 N -2.30698 1.43169 0.412195 0
M  V30 8 C -1.72366 0.248619 0.234959 0
M  V30 9 N -2.16717 -1.03406 0.653742 0
M  V30 10 H 2.62138 0.317119 1.43791 0
M  V30 11 H 2.96584 0.573673 -0.179631 0
M  V30 12 H 2.06045 -1.63606 0.00138082 0
M  V30 13 H 0.866646 -1.02726 1.15965 0
M  V30 14 H 0.785901 -0.250797 -1.81704 0
M  V30 15 H -0.189856 -1.50283 -0.950596 0
M  V30 16 H 0.375687 2.22278 -1.21406 0
M  V30 17 H -2.5869 -1.73741 0.00693303 0
M  V30 18 H -2.07925 -1.3106 1.65525 0
M  V30 END ATOM
M  V30 BEGIN BOND
M  V30 1 1 1 2
M  V30 2 1 2 3
M  V30 3 1 3 4
M  V30 4 1 4 5
M  V30 5 2 5 6
M  V30 6 1 6 7
M  V30 7 2 7 8
M  V30 8 1 8 9
M  V30 9 1 8 4
M  V30 10 1 1 10
M  V30 11 1 1 11
M  V30 12 1 2 12
M  V30 13 1 2 13
M  V30 14 1 3 14
M  V30 15 1 3 15
M  V30 16 1 5 16
M  V30 17 1 9 17
M  V30 18 1 9 18
M  V30 END BOND
M  V30 END CTAB
M  END
