
     RDKit          3D

  0  0  0  0  0  0  0  0  0  0999 V3000
M  V30 BEGIN CTAB
M  V30 COUNTS 24 23 0 0 0
M  V30 BEGIN ATOM
M  V30 1 C 2.40606 1.95247 -0.562203 0
M  V30 2 O 1.44302 0.995984 -0.169247 0
M  V30 3 C 1.6587 -0.364394 -0.159847 0
M  V30 4 O 2.8134 -0.753057 -0.536018 0
M  V30 5 C 0.643308 -1.33292 0.251185 0
M  V30 6 C -0.645788 -1.25856 -0.480542 0
M  V30 7 C -1.41971 -0.00188843 -0.407054 0
M  V30 8 S -1.96033 0.423764 1.21271 0
M  V30 9 O -2.95201 -0.626254 1.70156 0
M  V30 10 O -0.859405 0.507974 2.20623 0
M  V30 11 N -2.8624 1.90454 1.16019 0
M  V30 12 N 1.17655 -2.71197 0.0907926 0
M  V30 13 H 1.85785 2.87032 -0.913743 0
M  V30 14 H 3.04539 2.25154 0.307373 0
M  V30 15 H 3.05286 1.55816 -1.37975 0
M  V30 16 H 0.502443 -1.25222 1.34904 0
M  V30 17 H -0.438936 -1.56663 -1.55345 0
M  V30 18 H -1.28897 -2.12178 -0.119305 0
M  V30 19 H -2.37001 -0.172534 -1.00561 0
M  V30 20 H -0.909075 0.872868 -0.865465 0
M  V30 21 H -3.08153 2.18744 0.189256 0
M  V30 22 H -2.39784 2.65722 1.72456 0
M  V30 23 H 2.07385 -2.71051 0.628526 0
M  V30 24 H 0.512573 -3.30957 0.63251 0
M  V30 END ATOM
M  V30 BEGIN BOND
M  V30 1 1 1 2
M  V30 2 1 2 3
M  V30 3 2 3 4
M  V30 4 1 3 5
M  V30 5 1 5 6
M  V30 6 1 6 7
M  V30 7 1 7 8
M  V30 8 2 8 9
M  V30 9 2 8 10
M  V30 10 1 8 11
M  V30 11 1 5 12
M  V30 12 1 1 13
M  V30 13 1 1 14
M  V30 14 1 1 15
M  V30 15 1 5 16
M  V30 16 1 6 17
M  V30 17 1 6 18
M  V30 18 1 7 19
M  V30 19 1 7 20
M  V30 20 1 11 21
M  V30 21 1 11 22
M  V30 22 1 12 23
M  V30 23 1 12 24
M  V30 END BOND
M  V30 END CTAB
M  END
