
     RDKit          3D

  0  0  0  0  0  0  0  0  0  0999 V3000
M  V30 BEGIN CTAB
M  V30 COUNTS 28 28 0 0 0
M  V30 BEGIN ATOM
M  V30 1 C 3.825 0.59591 -0.364069 0
M  V30 2 C 3.47379 -0.584166 0.472883 0
M  V30 3 C 2.19319 -1.25976 0.0554453 0
M  V30 4 C 1.05018 -0.298555 0.151176 0
M  V30 5 N -0.204714 -0.892106 -0.237416 0
M  V30 6 C -1.419 -0.151705 -0.219811 0
M  V30 7 N -1.45237 1.14177 0.161866 0
M  V30 8 C -2.60571 1.85175 0.18061 0
M  V30 9 N -2.61691 3.21961 0.588285 0
M  V30 10 N -3.78165 1.29983 -0.182269 0
M  V30 11 C -3.7869 0.00680783 -0.570296 0
M  V30 12 C -2.61872 -0.716431 -0.590521 0
M  V30 13 N -2.63698 -2.08319 -1.00281 0
M  V30 14 H 4.00536 0.281914 -1.43294 0
M  V30 15 H 3.10801 1.41541 -0.339692 0
M  V30 16 H 4.79782 0.992249 -0.0127688 0
M  V30 17 H 4.32172 -1.30982 0.407323 0
M  V30 18 H 3.38992 -0.247843 1.52772 0
M  V30 19 H 2.33392 -1.67857 -0.954408 0
M  V30 20 H 1.97299 -2.11234 0.725356 0
M  V30 21 H 1.23056 0.626252 -0.461743 0
M  V30 22 H 0.948164 -0.0179032 1.23084 0
M  V30 23 H -0.243768 -1.88751 -0.541993 0
M  V30 24 H -2.9865 3.51867 1.51718 0
M  V30 25 H -2.236 3.9415 -0.0813357 0
M  V30 26 H -4.71988 -0.455492 -0.865512 0
M  V30 27 H -2.07301 -2.46552 -1.77025 0
M  V30 28 H -3.26854 -2.73076 -0.484379 0
M  V30 END ATOM
M  V30 BEGIN BOND
M  V30 1 1 1 2
M  V30 2 1 2 3
M  V30 3 1 3 4
M  V30 4 1 4 5
M  V30 5 1 5 6
M  V30 6 2 6 7
M  V30 7 1 7 8
M  V30 8 1 8 9
M  V30 9 2 8 10
M  V30 10 1 10 11
M  V30 11 2 11 12
M  V30 12 1 12 13
M  V30 13 1 12 6
M  V30 14 1 1 14
M  V30 15 1 1 15
M  V30 16 1 1 16
M  V30 17 1 2 17
M  V30 18 1 2 18
M  V30 19 1 3 19
M  V30 20 1 3 20
M  V30 21 1 4 21
M  V30 22 1 4 22
M  V30 23 1 5 23
M  V30 24 1 9 24
M  V30 25 1 9 25
M  V30 26 1 11 26
M  V30 27 1 13 27
M  V30 28 1 13 28
M  V30 END BOND
M  V30 END CTAB
M  END
