
     RDKit          3D

  0  0  0  0  0  0  0  0  0  0999 V3000
M  V30 BEGIN CTAB
M  V30 COUNTS 51 54 0 0 0
M  V30 BEGIN ATOM
M  V30 1 C 1.46185 2.10746 -0.292384 0
M  V30 2 C 1.27365 1.34537 -1.52773 0
M  V30 3 N 2.33683 1.24703 -2.45277 0
M  V30 4 C 3.63544 0.788869 -2.05589 0
M  V30 5 N 4.02443 0.407989 -0.836591 0
M  V30 6 N 5.28958 0.0529061 -0.862137 0
M  V30 7 C 5.72256 0.207329 -2.1172 0
M  V30 8 N 7.04838 -0.0773143 -2.53902 0
M  V30 9 N 4.71063 0.660762 -2.86195 0
M  V30 10 C 6.08488 -0.417441 0.238071 0
M  V30 11 C 7.28803 0.203003 0.471868 0
M  V30 12 C 8.09963 -0.222825 1.53648 0
M  V30 13 C 7.68831 -1.26515 2.34826 0
M  V30 14 C 6.47808 -1.88684 2.1105 0
M  V30 15 C 5.67732 -1.45203 1.04435 0
M  V30 16 C 0.101686 0.753691 -1.76588 0
M  V30 17 C -1.04172 0.798751 -0.881613 0
M  V30 18 O -1.04625 1.40607 0.210744 0
M  V30 19 N -2.22246 0.118601 -1.27171 0
M  V30 20 C -3.37399 0.126848 -0.447845 0
M  V30 21 N -4.56826 -0.460173 -0.6614 0
M  V30 22 N -5.38088 -0.217303 0.345008 0
M  V30 23 C -4.70107 0.534941 1.21627 0
M  V30 24 N -5.19416 1.02564 2.44253 0
M  V30 25 N -3.44799 0.760353 0.740091 0
M  V30 26 C -6.71044 -0.65676 0.49112 0
M  V30 27 C -7.70076 0.23782 0.867766 0
M  V30 28 C -8.99349 -0.21455 1.00433 0
M  V30 29 C -9.37889 -1.52042 0.788379 0
M  V30 30 C -8.38299 -2.39588 0.414907 0
M  V30 31 C -7.07919 -1.98831 0.266508 0
M  V30 32 H 0.775896 2.96776 -0.157111 0
M  V30 33 H 1.35281 1.42453 0.576587 0
M  V30 34 H 2.53502 2.44526 -0.243143 0
M  V30 35 H 2.18397 1.50847 -3.4367 0
M  V30 36 H 7.63473 0.686329 -2.96174 0
M  V30 37 H 7.45966 -1.00897 -2.44596 0
M  V30 38 H 7.5887 1.00537 -0.164961 0
M  V30 39 H 9.03318 0.27728 1.69782 0
M  V30 40 H 8.35034 -1.55932 3.15955 0
M  V30 41 H 6.14686 -2.69961 2.73565 0
M  V30 42 H 4.72161 -1.92925 0.84185 0
M  V30 43 H 0.0511543 0.206004 -2.71308 0
M  V30 44 H -2.28715 -0.417016 -2.18681 0
M  V30 45 H -5.54868 1.9928 2.60123 0
M  V30 46 H -5.22024 0.391147 3.2845 0
M  V30 47 H -7.43067 1.28584 1.04823 0
M  V30 48 H -9.73988 0.526126 1.30276 0
M  V30 49 H -10.4123 -1.84522 0.905616 0
M  V30 50 H -8.59667 -3.44276 0.224412 0
M  V30 51 H -6.29709 -2.6985 -0.0317544 0
M  V30 END ATOM
M  V30 BEGIN BOND
M  V30 1 1 1 2
M  V30 2 1 2 3
M  V30 3 1 3 4
M  V30 4 2 4 5
M  V30 5 1 5 6
M  V30 6 1 6 7
M  V30 7 1 7 8
M  V30 8 2 7 9
M  V30 9 1 6 10
M  V30 10 2 10 11
M  V30 11 1 11 12
M  V30 12 2 12 13
M  V30 13 1 13 14
M  V30 14 2 14 15
M  V30 15 2 2 16
M  V30 16 1 16 17
M  V30 17 2 17 18
M  V30 18 1 17 19
M  V30 19 1 19 20
M  V30 20 2 20 21
M  V30 21 1 21 22
M  V30 22 1 22 23
M  V30 23 1 23 24
M  V30 24 2 23 25
M  V30 25 1 22 26
M  V30 26 2 26 27
M  V30 27 1 27 28
M  V30 28 2 28 29
M  V30 29 1 29 30
M  V30 30 2 30 31
M  V30 31 1 9 4
M  V30 32 1 15 10
M  V30 33 1 25 20
M  V30 34 1 31 26
M  V30 35 1 1 32
M  V30 36 1 1 33
M  V30 37 1 1 34
M  V30 38 1 3 35
M  V30 39 1 8 36
M  V30 40 1 8 37
M  V30 41 1 11 38
M  V30 42 1 12 39
M  V30 43 1 13 40
M  V30 44 1 14 41
M  V30 45 1 15 42
M  V30 46 1 16 43
M  V30 47 1 19 44
M  V30 48 1 24 45
M  V30 49 1 24 46
M  V30 50 1 27 47
M  V30 51 1 28 48
M  V30 52 1 29 49
M  V30 53 1 30 50
M  V30 54 1 31 51
M  V30 END BOND
M  V30 END CTAB
M  END
