
     RDKit          3D

  0  0  0  0  0  0  0  0  0  0999 V3000
M  V30 BEGIN CTAB
M  V30 COUNTS 21 21 0 0 0
M  V30 BEGIN ATOM
M  V30 1 N 2.95696 0.127187 0.219604 0
M  V30 2 C 1.95415 -0.851077 -0.138477 0
M  V30 3 C 0.624795 -0.21587 -0.0452441 0
M  V30 4 C 0.53485 1.10508 0.336775 0
M  V30 5 C -0.70625 1.71174 0.427852 0
M  V30 6 C -0.819185 3.08753 0.824395 0
M  V30 7 N -0.915853 4.21833 1.12945 0
M  V30 8 C -1.83578 0.947623 0.123784 0
M  V30 9 C -1.73472 -0.369099 -0.256213 0
M  V30 10 C -0.492009 -0.946687 -0.338631 0
M  V30 11 O -0.344367 -2.26183 -0.714892 0
M  V30 12 N -2.87052 -1.15392 -0.566787 0
M  V30 13 H 3.85874 -0.198585 -0.233793 0
M  V30 14 H 3.1492 0.117349 1.25133 0
M  V30 15 H 1.98942 -1.73788 0.555706 0
M  V30 16 H 2.07567 -1.20469 -1.18391 0
M  V30 17 H 1.43302 1.69333 0.572871 0
M  V30 18 H -2.78935 1.43832 0.200989 0
M  V30 19 H 0.57907 -2.656 -0.765833 0
M  V30 20 H -2.95865 -2.17204 -0.391179 0
M  V30 21 H -3.68919 -0.678794 -1.00779 0
M  V30 END ATOM
M  V30 BEGIN BOND
M  V30 1 1 1 2
M  V30 2 1 2 3
M  V30 3 2 3 4
M  V30 4 1 4 5
M  V30 5 1 5 6
M  V30 6 3 6 7
M  V30 7 2 5 8
M  V30 8 1 8 9
M  V30 9 2 9 10
M  V30 10 1 10 11
M  V30 11 1 9 12
M  V30 12 1 10 3
M  V30 13 1 1 13
M  V30 14 1 1 14
M  V30 15 1 2 15
M  V30 16 1 2 16
M  V30 17 1 4 17
M  V30 18 1 8 18
M  V30 19 1 11 19
M  V30 20 1 12 20
M  V30 21 1 12 21
M  V30 END BOND
M  V30 END CTAB
M  END
