
     RDKit          3D

  0  0  0  0  0  0  0  0  0  0999 V3000
M  V30 BEGIN CTAB
M  V30 COUNTS 37 38 0 0 0
M  V30 BEGIN ATOM
M  V30 1 C 4.39159 -0.38245 1.52671 0
M  V30 2 C 3.91937 0.0255906 0.171197 0
M  V30 3 C 2.57789 -0.571563 -0.202326 0
M  V30 4 C 2.23456 -0.0790434 -1.57566 0
M  V30 5 C 0.74733 -0.128578 -1.84129 0
M  V30 6 C 0.127183 -1.0015 -0.798318 0
M  V30 7 N 0.225815 -0.378194 0.481444 0
M  V30 8 C 1.58529 -0.187435 0.850207 0
M  V30 9 C -0.580554 0.790006 0.639782 0
M  V30 10 C -2.02062 0.510103 0.458326 0
M  V30 11 N -2.53682 0.623634 -0.772452 0
M  V30 12 C -3.83695 0.378202 -0.975887 0
M  V30 13 N -4.37426 0.503717 -2.29716 0
M  V30 14 N -4.63077 0.0182859 0.0449397 0
M  V30 15 C -4.14251 -0.104847 1.29494 0
M  V30 16 N -2.84729 0.14803 1.45198 0
M  V30 17 N -4.97493 -0.486753 2.38979 0
M  V30 18 H 4.46349 0.545606 2.1567 0
M  V30 19 H 3.78632 -1.14166 2.02445 0
M  V30 20 H 5.44834 -0.779641 1.50725 0
M  V30 21 H 4.65342 -0.3286 -0.581323 0
M  V30 22 H 3.86682 1.13945 0.0490316 0
M  V30 23 H 2.69564 -1.69082 -0.177294 0
M  V30 24 H 2.63532 0.944284 -1.76223 0
M  V30 25 H 2.70445 -0.805392 -2.30141 0
M  V30 26 H 0.380197 0.927773 -1.76757 0
M  V30 27 H 0.535281 -0.493797 -2.87544 0
M  V30 28 H -0.887724 -1.35425 -1.06448 0
M  V30 29 H 0.753904 -1.93971 -0.749999 0
M  V30 30 H 1.78701 -0.853789 1.73975 0
M  V30 31 H 1.74808 0.847376 1.23908 0
M  V30 32 H -0.264963 1.65451 0.025878 0
M  V30 33 H -0.461326 1.12715 1.70651 0
M  V30 34 H -3.82746 0.980488 -3.04541 0
M  V30 35 H -5.3156 0.127869 -2.54941 0
M  V30 36 H -5.90403 -0.920627 2.21884 0
M  V30 37 H -4.66149 -0.335401 3.36086 0
M  V30 END ATOM
M  V30 BEGIN BOND
M  V30 1 1 1 2
M  V30 2 1 2 3
M  V30 3 1 3 4
M  V30 4 1 4 5
M  V30 5 1 5 6
M  V30 6 1 6 7
M  V30 7 1 7 8
M  V30 8 1 7 9
M  V30 9 1 9 10
M  V30 10 2 10 11
M  V30 11 1 11 12
M  V30 12 1 12 13
M  V30 13 2 12 14
M  V30 14 1 14 15
M  V30 15 2 15 16
M  V30 16 1 15 17
M  V30 17 1 8 3
M  V30 18 1 16 10
M  V30 19 1 1 18
M  V30 20 1 1 19
M  V30 21 1 1 20
M  V30 22 1 2 21
M  V30 23 1 2 22
M  V30 24 1 3 23
M  V30 25 1 4 24
M  V30 26 1 4 25
M  V30 27 1 5 26
M  V30 28 1 5 27
M  V30 29 1 6 28
M  V30 30 1 6 29
M  V30 31 1 8 30
M  V30 32 1 8 31
M  V30 33 1 9 32
M  V30 34 1 9 33
M  V30 35 1 13 34
M  V30 36 1 13 35
M  V30 37 1 17 36
M  V30 38 1 17 37
M  V30 END BOND
M  V30 END CTAB
M  END
