
     RDKit          3D

  0  0  0  0  0  0  0  0  0  0999 V3000
M  V30 BEGIN CTAB
M  V30 COUNTS 27 27 0 0 0
M  V30 BEGIN ATOM
M  V30 1 N 1.29125 1.20659 1.29152 0
M  V30 2 C 1.23613 0.351281 0.148033 0
M  V30 3 C 0.191473 -0.712476 0.189621 0
M  V30 4 C -1.19393 -0.205601 0.186302 0
M  V30 5 C -1.52433 1.10172 0.0356403 0
M  V30 6 C -2.86413 1.49295 0.0414818 0
M  V30 7 C -3.88677 0.588686 0.196952 0
M  V30 8 N -3.5326 -0.704112 0.344774 0
M  V30 9 C -2.25354 -1.10719 0.342924 0
M  V30 10 N -1.96762 -2.47314 0.501839 0
M  V30 11 O 0.334568 -1.42862 -1.02774 0
M  V30 12 C 2.59857 -0.323199 -0.0674603 0
M  V30 13 C 3.59435 0.726399 -0.276148 0
M  V30 14 C 4.42725 1.58485 -0.46162 0
M  V30 15 H 1.50612 2.17389 0.979598 0
M  V30 16 H 1.89446 0.87356 2.06517 0
M  V30 17 H 1.07366 0.980038 -0.765019 0
M  V30 18 H 0.386101 -1.44179 1.00569 0
M  V30 19 H -0.770682 1.85357 -0.0922027 0
M  V30 20 H -3.08239 2.56322 -0.0835834 0
M  V30 21 H -4.91862 0.914708 0.198865 0
M  V30 22 H -1.73887 -2.88952 1.4369 0
M  V30 23 H -1.96731 -3.14237 -0.296937 0
M  V30 24 H 0.563465 -2.36885 -0.865933 0
M  V30 25 H 2.85242 -0.99896 0.765752 0
M  V30 26 H 2.57283 -0.948239 -0.995554 0
M  V30 27 H 5.17815 2.33258 -0.63027 0
M  V30 END ATOM
M  V30 BEGIN BOND
M  V30 1 1 1 2
M  V30 2 1 2 3
M  V30 3 1 3 4
M  V30 4 2 4 5
M  V30 5 1 5 6
M  V30 6 2 6 7
M  V30 7 1 7 8
M  V30 8 2 8 9
M  V30 9 1 9 10
M  V30 10 1 3 11
M  V30 11 1 2 12
M  V30 12 1 12 13
M  V30 13 3 13 14
M  V30 14 1 9 4
M  V30 15 1 1 15
M  V30 16 1 1 16
M  V30 17 1 2 17
M  V30 18 1 3 18
M  V30 19 1 5 19
M  V30 20 1 6 20
M  V30 21 1 7 21
M  V30 22 1 10 22
M  V30 23 1 10 23
M  V30 24 1 11 24
M  V30 25 1 12 25
M  V30 26 1 12 26
M  V30 27 1 14 27
M  V30 END BOND
M  V30 END CTAB
M  END
