
     RDKit          3D

  0  0  0  0  0  0  0  0  0  0999 V3000
M  V30 BEGIN CTAB
M  V30 COUNTS 39 40 0 0 0
M  V30 BEGIN ATOM
M  V30 1 N -1.37747 -3.42231 2.95143 0
M  V30 2 C -0.985 -2.5817 2.27308 0
M  V30 3 C -0.489308 -1.49509 1.41491 0
M  V30 4 C 0.792125 -1.36291 1.18038 0
M  V30 5 N 1.52334 -0.490075 0.481073 0
M  V30 6 C 2.26707 0.397839 -0.230291 0
M  V30 7 O 1.8796 1.41889 -0.844778 0
M  V30 8 C 3.7433 0.167161 -0.310291 0
M  V30 9 C 4.27437 -1.06516 -0.0115575 0
M  V30 10 C 5.63444 -1.29416 -0.0699554 0
M  V30 11 C 6.45438 -0.267207 -0.433667 0
M  V30 12 C 5.92988 0.982014 -0.738126 0
M  V30 13 C 4.58138 1.22356 -0.683591 0
M  V30 14 N 7.88746 -0.388138 -0.531921 0
M  V30 15 C -1.44975 -0.727893 0.643415 0
M  V30 16 O -1.06965 -0.00842279 -0.301692 0
M  V30 17 N -2.81409 -0.761519 0.929454 0
M  V30 18 C -3.88519 -0.119207 0.298184 0
M  V30 19 C -3.76617 0.64297 -0.816751 0
M  V30 20 C -4.88549 1.23664 -1.39552 0
M  V30 21 C -6.15422 1.08744 -0.882496 0
M  V30 22 C -6.24792 0.303379 0.255803 0
M  V30 23 C -5.15063 -0.297445 0.852794 0
M  V30 24 Cl -5.35529 -1.27467 2.29954 0
M  V30 25 N -7.26793 1.70437 -1.50849 0
M  V30 26 H 1.37194 -2.21567 1.71881 0
M  V30 27 H 0.567287 0.46503 0.640063 0
M  V30 28 H 3.60936 -1.8786 0.275692 0
M  V30 29 H 6.02977 -2.25535 0.169696 0
M  V30 30 H 6.58017 1.7927 -1.02779 0
M  V30 31 H 4.12258 2.17821 -0.902674 0
M  V30 32 H 8.43143 -0.417387 0.364862 0
M  V30 33 H 8.39554 -0.446012 -1.4426 0
M  V30 34 H -3.06408 -1.38416 1.76777 0
M  V30 35 H -2.8246 0.825145 -1.29657 0
M  V30 36 H -4.74517 1.83774 -2.27603 0
M  V30 37 H -7.21574 0.153482 0.700442 0
M  V30 38 H -8.13566 1.89141 -1.00637 0
M  V30 39 H -7.19207 1.97045 -2.50624 0
M  V30 END ATOM
M  V30 BEGIN BOND
M  V30 1 3 1 2
M  V30 2 1 2 3
M  V30 3 2 3 4
M  V30 4 1 4 5
M  V30 5 1 5 6
M  V30 6 2 6 7
M  V30 7 1 6 8
M  V30 8 2 8 9
M  V30 9 1 9 10
M  V30 10 2 10 11
M  V30 11 1 11 12
M  V30 12 2 12 13
M  V30 13 1 11 14
M  V30 14 1 3 15
M  V30 15 2 15 16
M  V30 16 1 15 17
M  V30 17 1 17 18
M  V30 18 2 18 19
M  V30 19 1 19 20
M  V30 20 2 20 21
M  V30 21 1 21 22
M  V30 22 2 22 23
M  V30 23 1 23 24
M  V30 24 1 21 25
M  V30 25 1 13 8
M  V30 26 1 23 18
M  V30 27 1 4 26
M  V30 28 1 5 27
M  V30 29 1 9 28
M  V30 30 1 10 29
M  V30 31 1 12 30
M  V30 32 1 13 31
M  V30 33 1 14 32
M  V30 34 1 14 33
M  V30 35 1 17 34
M  V30 36 1 19 35
M  V30 37 1 20 36
M  V30 38 1 22 37
M  V30 39 1 25 38
M  V30 40 1 25 39
M  V30 END BOND
M  V30 END CTAB
M  END
