
     RDKit          3D

  0  0  0  0  0  0  0  0  0  0999 V3000
M  V30 BEGIN CTAB
M  V30 COUNTS 66 68 0 0 0
M  V30 BEGIN ATOM
M  V30 1 N -6.41136 2.48055 3.09965 0
M  V30 2 C -5.71821 1.29135 2.70418 0
M  V30 3 C -4.87841 1.59629 1.5091 0
M  V30 4 C -4.11384 0.410387 1.03915 0
M  V30 5 C -5.0028 -0.715597 0.645166 0
M  V30 6 C -4.18382 -1.91177 0.149961 0 CFG=1
M  V30 7 C -3.40716 -1.44944 -1.00918 0
M  V30 8 O -4.10608 -0.87369 -1.92246 0
M  V30 9 N -2.03215 -1.55895 -1.23082 0
M  V30 10 C -1.45861 -1.01387 -2.46632 0
M  V30 11 C -0.315471 -0.11144 -2.04887 0
M  V30 12 C 0.8116 -0.851606 -1.3679 0
M  V30 13 C 0.22413 -2.25326 -1.07416 0
M  V30 14 C -1.0966 -2.17156 -0.343569 0
M  V30 15 O 1.01296 -0.330955 -0.115761 0
M  V30 16 C 1.96684 0.634626 -0.0988494 0
M  V30 17 C 3.3332 0.0167997 -0.494072 0 CFG=1
M  V30 18 C 3.23666 -0.164635 -1.91012 0 CFG=1
M  V30 19 C 2.01503 -1.08367 -2.16324 0
M  V30 20 C 3.04725 0.994506 -2.82164 0
M  V30 21 O 4.25004 -0.967462 -2.50053 0
M  V30 22 N 4.2912 0.671174 0.256839 0
M  V30 23 C 4.067 0.636113 1.61586 0
M  V30 24 C 4.88897 1.21677 2.53948 0
M  V30 25 C 4.59183 1.14633 4.01559 0
M  V30 26 C 6.0036 1.87454 2.10606 0
M  V30 27 O 6.8089 2.43489 2.89576 0
M  V30 28 N 6.21939 1.90618 0.783186 0
M  V30 29 C 5.38967 1.32203 -0.121692 0
M  V30 30 O 5.62846 1.3731 -1.34381 0
M  V30 31 N -3.38298 -2.50983 1.15962 0
M  V30 32 H -7.40274 2.34949 3.04562 0
M  V30 33 H -6.00318 3.31782 2.74288 0
M  V30 34 H -6.45282 0.471202 2.51741 0
M  V30 35 H -5.07599 1.00159 3.55865 0
M  V30 36 H -5.47885 2.03555 0.670877 0
M  V30 37 H -4.12342 2.38052 1.79564 0
M  V30 38 H -3.43693 0.111698 1.88653 0
M  V30 39 H -3.4847 0.71256 0.156651 0
M  V30 40 H -5.6189 -1.02998 1.5154 0
M  V30 41 H -5.67848 -0.402122 -0.163887 0
M  V30 42 H -4.95704 -2.67408 -0.143466 0
M  V30 43 H -1.19373 -1.78107 -3.18686 0
M  V30 44 H -2.21395 -0.358636 -2.95891 0
M  V30 45 H -0.0328128 0.554939 -2.85532 0
M  V30 46 H -0.768933 0.574792 -1.27013 0
M  V30 47 H 0.91356 -2.83644 -0.447134 0
M  V30 48 H 0.0549415 -2.82774 -2.00149 0
M  V30 49 H -1.36799 -3.25668 -0.182017 0
M  V30 50 H -1.0059 -1.73005 0.652856 0
M  V30 51 H 1.74404 1.4697 -0.831884 0
M  V30 52 H 1.98181 1.12695 0.869468 0
M  V30 53 H 3.23488 -1.03458 -0.0330581 0
M  V30 54 H 1.77343 -0.982597 -3.2454 0
M  V30 55 H 2.3376 -2.16324 -2.0548 0
M  V30 56 H 2.97969 1.97525 -2.35277 0
M  V30 57 H 2.17169 0.888324 -3.52747 0
M  V30 58 H 3.88938 1.09141 -3.58298 0
M  V30 59 H 4.52417 -1.64555 -1.80662 0
M  V30 60 H 3.19865 0.1159 2.04533 0
M  V30 61 H 4.08076 2.07953 4.3475 0
M  V30 62 H 3.97287 0.275804 4.23596 0
M  V30 63 H 5.53652 1.05973 4.59181 0
M  V30 64 H 7.05246 2.39177 0.386763 0
M  V30 65 H -3.75121 -3.42514 1.50004 0
M  V30 66 H -3.07813 -1.87451 1.90345 0
M  V30 END ATOM
M  V30 BEGIN BOND
M  V30 1 1 1 2
M  V30 2 1 2 3
M  V30 3 1 3 4
M  V30 4 1 4 5
M  V30 5 1 5 6
M  V30 6 1 6 7
M  V30 7 2 7 8
M  V30 8 1 7 9
M  V30 9 1 9 10
M  V30 10 1 10 11
M  V30 11 1 11 12
M  V30 12 1 12 13
M  V30 13 1 13 14
M  V30 14 1 12 15
M  V30 15 1 15 16
M  V30 16 1 16 17
M  V30 17 1 17 18
M  V30 18 1 18 19
M  V30 19 1 18 20
M  V30 20 1 18 21 CFG=3
M  V30 21 1 17 22
M  V30 22 1 22 23
M  V30 23 2 23 24
M  V30 24 1 24 25
M  V30 25 1 24 26
M  V30 26 2 26 27
M  V30 27 1 26 28
M  V30 28 1 28 29
M  V30 29 2 29 30
M  V30 30 1 6 31
M  V30 31 1 14 9
M  V30 32 1 29 22
M  V30 33 1 19 12
M  V30 34 1 1 32
M  V30 35 1 1 33
M  V30 36 1 2 34
M  V30 37 1 2 35
M  V30 38 1 3 36
M  V30 39 1 3 37
M  V30 40 1 4 38
M  V30 41 1 4 39
M  V30 42 1 5 40
M  V30 43 1 5 41
M  V30 44 1 6 42 CFG=3
M  V30 45 1 10 43
M  V30 46 1 10 44
M  V30 47 1 11 45
M  V30 48 1 11 46
M  V30 49 1 13 47
M  V30 50 1 13 48
M  V30 51 1 14 49
M  V30 52 1 14 50
M  V30 53 1 16 51
M  V30 54 1 16 52
M  V30 55 1 17 53 CFG=1
M  V30 56 1 19 54
M  V30 57 1 19 55
M  V30 58 1 20 56
M  V30 59 1 20 57
M  V30 60 1 20 58
M  V30 61 1 21 59
M  V30 62 1 23 60
M  V30 63 1 25 61
M  V30 64 1 25 62
M  V30 65 1 25 63
M  V30 66 1 28 64
M  V30 67 1 31 65
M  V30 68 1 31 66
M  V30 END BOND
M  V30 END CTAB
M  END
