
     RDKit          3D

  0  0  0  0  0  0  0  0  0  0999 V3000
M  V30 BEGIN CTAB
M  V30 COUNTS 78 83 0 0 0
M  V30 BEGIN ATOM
M  V30 1 N 12.2397 4.63016 3.12435 0
M  V30 2 C 11.2441 3.81865 2.47662 0
M  V30 3 C 9.90707 3.99288 2.75344 0
M  V30 4 C 8.97657 3.21547 2.13304 0
M  V30 5 C 9.32214 2.24162 1.22084 0
M  V30 6 C 10.6667 2.07834 0.953307 0
M  V30 7 C 11.6108 2.85136 1.56901 0
M  V30 8 C 8.33081 1.41704 0.569231 0
M  V30 9 C 8.63657 0.120718 0.204442 0
M  V30 10 C 7.70755 -0.713472 -0.424108 0
M  V30 11 C 6.45947 -0.271829 -0.70192 0
M  V30 12 N 5.49558 -1.07516 -1.35906 0
M  V30 13 C 5.82799 -1.85729 -2.46886 0
M  V30 14 S 7.37614 -1.75772 -3.06078 0
M  V30 15 N 4.88605 -2.67813 -3.11377 0
M  V30 16 C 3.53449 -2.77357 -2.72671 0
M  V30 17 C 2.99218 -4.04205 -2.45844 0
M  V30 18 C 1.6742 -4.21287 -2.11992 0
M  V30 19 C 0.798678 -3.13805 -2.02409 0
M  V30 20 C 1.32539 -1.89376 -2.28653 0
M  V30 21 C 2.65102 -1.72177 -2.62676 0
M  V30 22 C -0.596033 -3.32427 -1.64837 0
M  V30 23 C -0.914268 -4.33956 -0.763654 0
M  V30 24 C -2.20751 -4.57848 -0.37476 0
M  V30 25 C -3.27191 -3.8021 -0.856942 0
M  V30 26 N -4.60234 -4.08631 -0.496347 0
M  V30 27 C -5.62142 -3.18399 -0.150992 0
M  V30 28 S -7.08952 -3.85761 0.225285 0
M  V30 29 N -5.47381 -1.81517 -0.0681583 0
M  V30 30 C -6.49441 -0.886339 0.22979 0
M  V30 31 C -7.79714 -0.992764 -0.15814 0
M  V30 32 C -8.75921 -0.0359196 0.20056 0
M  V30 33 C -8.43997 1.06445 0.963483 0
M  V30 34 C -7.13172 1.18437 1.35971 0
M  V30 35 C -6.18975 0.251789 1.01161 0
M  V30 36 C -9.47653 2.03809 1.30987 0
M  V30 37 C -10.7826 1.63789 1.4908 0
M  V30 38 C -11.7809 2.53767 1.81051 0
M  V30 39 C -11.492 3.88541 1.96024 0
M  V30 40 N -12.4975 4.83306 2.28696 0
M  V30 41 C -10.1869 4.30213 1.78238 0
M  V30 42 C -9.21244 3.382 1.46371 0
M  V30 43 C -2.96748 -2.8 -1.73059 0
M  V30 44 C -1.64044 -2.56636 -2.1197 0
M  V30 45 C 6.14263 1.02575 -0.340556 0
M  V30 46 C 7.04785 1.83421 0.271349 0
M  V30 47 H 13.1917 4.25307 3.35487 0
M  V30 48 H 12.0707 5.61708 3.39575 0
M  V30 49 H 9.62661 4.75193 3.46607 0
M  V30 50 H 7.93388 3.37144 2.36758 0
M  V30 51 H 10.9628 1.32671 0.245214 0
M  V30 52 H 12.6832 2.74689 1.38077 0
M  V30 53 H 9.64476 -0.234644 0.429619 0
M  V30 54 H 8.09059 -1.72056 -0.623527 0
M  V30 55 H 4.4994 -1.10446 -1.00667 0
M  V30 56 H 5.25825 -3.24829 -3.94483 0
M  V30 57 H 3.65965 -4.89286 -2.5285 0
M  V30 58 H 1.24356 -5.19438 -1.90915 0
M  V30 59 H 0.639114 -1.03567 -2.21324 0
M  V30 60 H 3.02518 -0.720143 -2.82936 0
M  V30 61 H -0.090822 -4.95613 -0.378589 0
M  V30 62 H -2.45631 -5.37973 0.324174 0
M  V30 63 H -4.87575 -5.14145 -0.483628 0
M  V30 64 H -4.50125 -1.39074 -0.20802 0
M  V30 65 H -8.13399 -1.80971 -0.783933 0
M  V30 66 H -9.79025 -0.138939 -0.116399 0
M  V30 67 H -6.87019 2.04345 1.95767 0
M  V30 68 H -5.14815 0.328443 1.31625 0
M  V30 69 H -11.0045 0.573886 1.37091 0
M  V30 70 H -12.8099 2.23841 1.95656 0
M  V30 71 H -13.1116 4.63058 3.09712 0
M  V30 72 H -12.6366 5.70713 1.7471 0
M  V30 73 H -9.9333 5.35854 1.89315 0
M  V30 74 H -8.2122 3.73206 1.32944 0
M  V30 75 H -3.73362 -2.15287 -2.18578 0
M  V30 76 H -1.39275 -1.7683 -2.8149 0
M  V30 77 H 5.15699 1.418 -0.543428 0
M  V30 78 H 6.78688 2.85276 0.553143 0
M  V30 END ATOM
M  V30 BEGIN BOND
M  V30 1 1 1 2
M  V30 2 2 2 3
M  V30 3 1 3 4
M  V30 4 2 4 5
M  V30 5 1 5 6
M  V30 6 2 6 7
M  V30 7 1 5 8
M  V30 8 2 8 9
M  V30 9 1 9 10
M  V30 10 2 10 11
M  V30 11 1 11 12
M  V30 12 1 12 13
M  V30 13 2 13 14
M  V30 14 1 13 15
M  V30 15 1 15 16
M  V30 16 2 16 17
M  V30 17 1 17 18
M  V30 18 2 18 19
M  V30 19 1 19 20
M  V30 20 2 20 21
M  V30 21 1 19 22
M  V30 22 2 22 23
M  V30 23 1 23 24
M  V30 24 2 24 25
M  V30 25 1 25 26
M  V30 26 1 26 27
M  V30 27 2 27 28
M  V30 28 1 27 29
M  V30 29 1 29 30
M  V30 30 2 30 31
M  V30 31 1 31 32
M  V30 32 2 32 33
M  V30 33 1 33 34
M  V30 34 2 34 35
M  V30 35 1 33 36
M  V30 36 2 36 37
M  V30 37 1 37 38
M  V30 38 2 38 39
M  V30 39 1 39 40
M  V30 40 1 39 41
M  V30 41 2 41 42
M  V30 42 1 25 43
M  V30 43 2 43 44
M  V30 44 1 11 45
M  V30 45 2 45 46
M  V30 46 1 7 2
M  V30 47 1 46 8
M  V30 48 1 21 16
M  V30 49 1 44 22
M  V30 50 1 35 30
M  V30 51 1 42 36
M  V30 52 1 1 47
M  V30 53 1 1 48
M  V30 54 1 3 49
M  V30 55 1 4 50
M  V30 56 1 6 51
M  V30 57 1 7 52
M  V30 58 1 9 53
M  V30 59 1 10 54
M  V30 60 1 12 55
M  V30 61 1 15 56
M  V30 62 1 17 57
M  V30 63 1 18 58
M  V30 64 1 20 59
M  V30 65 1 21 60
M  V30 66 1 23 61
M  V30 67 1 24 62
M  V30 68 1 26 63
M  V30 69 1 29 64
M  V30 70 1 31 65
M  V30 71 1 32 66
M  V30 72 1 34 67
M  V30 73 1 35 68
M  V30 74 1 37 69
M  V30 75 1 38 70
M  V30 76 1 40 71
M  V30 77 1 40 72
M  V30 78 1 41 73
M  V30 79 1 42 74
M  V30 80 1 43 75
M  V30 81 1 44 76
M  V30 82 1 45 77
M  V30 83 1 46 78
M  V30 END BOND
M  V30 END CTAB
M  END
