
     RDKit          3D

  0  0  0  0  0  0  0  0  0  0999 V3000
M  V30 BEGIN CTAB
M  V30 COUNTS 30 30 0 0 0
M  V30 BEGIN ATOM
M  V30 1 C 3.95988 -1.26828 0.9601 0
M  V30 2 C 2.96188 -0.215049 0.578935 0
M  V30 3 N 1.66181 -0.844973 0.508624 0
M  V30 4 C 0.481702 -0.107039 0.179294 0
M  V30 5 N 0.495008 1.18848 -0.0805253 0
M  V30 6 C -0.677358 1.81698 -0.386481 0
M  V30 7 N -0.654055 3.20967 -0.664416 0
M  V30 8 N -1.83684 1.13434 -0.425464 0
M  V30 9 C -1.85366 -0.174115 -0.16357 0
M  V30 10 N -0.677575 -0.761057 0.134554 0
M  V30 11 C -3.10175 -0.99101 -0.188885 0 CFG=2
M  V30 12 N -3.88878 -0.67448 -1.36254 0
M  V30 13 C -3.83424 -0.733945 1.09126 0
M  V30 14 C 3.25093 0.321738 -0.827703 0
M  V30 15 H 4.99895 -0.941926 0.931101 0
M  V30 16 H 3.70511 -1.62106 1.97344 0
M  V30 17 H 3.8182 -2.13221 0.270881 0
M  V30 18 H 2.96125 0.621591 1.31482 0
M  V30 19 H 1.61373 -1.86742 0.708452 0
M  V30 20 H -1.17967 3.88384 -0.067033 0
M  V30 21 H -0.115883 3.61858 -1.47036 0
M  V30 22 H -2.83675 -2.05403 -0.251177 0
M  V30 23 H -3.28192 -0.937363 -2.1916 0
M  V30 24 H -4.08827 0.349541 -1.36095 0
M  V30 25 H -3.07706 -0.805858 1.91787 0
M  V30 26 H -4.61414 -1.49898 1.27025 0
M  V30 27 H -4.2024 0.292755 1.10109 0
M  V30 28 H 2.91554 1.34632 -0.972774 0
M  V30 29 H 2.7516 -0.36266 -1.54201 0
M  V30 30 H 4.34474 0.207618 -0.985177 0
M  V30 END ATOM
M  V30 BEGIN BOND
M  V30 1 1 1 2
M  V30 2 1 2 3
M  V30 3 1 3 4
M  V30 4 2 4 5
M  V30 5 1 5 6
M  V30 6 1 6 7
M  V30 7 2 6 8
M  V30 8 1 8 9
M  V30 9 2 9 10
M  V30 10 1 9 11
M  V30 11 1 11 12
M  V30 12 1 11 13
M  V30 13 1 2 14
M  V30 14 1 10 4
M  V30 15 1 1 15
M  V30 16 1 1 16
M  V30 17 1 1 17
M  V30 18 1 2 18
M  V30 19 1 3 19
M  V30 20 1 7 20
M  V30 21 1 7 21
M  V30 22 1 11 22 CFG=3
M  V30 23 1 12 23
M  V30 24 1 12 24
M  V30 25 1 13 25
M  V30 26 1 13 26
M  V30 27 1 13 27
M  V30 28 1 14 28
M  V30 29 1 14 29
M  V30 30 1 14 30
M  V30 END BOND
M  V30 END CTAB
M  END
