
     RDKit          3D

  0  0  0  0  0  0  0  0  0  0999 V3000
M  V30 BEGIN CTAB
M  V30 COUNTS 15 15 0 0 0
M  V30 BEGIN ATOM
M  V30 1 N -1.36842 1.40862 0.375694 0
M  V30 2 C -0.227401 0.625926 0.0857711 0
M  V30 3 C 1.00919 1.21173 -0.133274 0
M  V30 4 C 2.1248 0.451246 -0.416424 0
M  V30 5 N 2.00062 -0.887413 -0.479357 0
M  V30 6 C 0.83366 -1.52845 -0.278501 0
M  V30 7 C -0.267124 -0.753215 0.00253684 0
M  V30 8 N -1.52551 -1.37151 0.223979 0
M  V30 9 H -1.34003 2.08407 1.15314 0
M  V30 10 H -2.22228 1.28227 -0.211352 0
M  V30 11 H 1.13711 2.30144 -0.0876249 0
M  V30 12 H 3.08535 0.958992 -0.583076 0
M  V30 13 H 0.771708 -2.62216 -0.338168 0
M  V30 14 H -2.06554 -1.06557 1.06321 0
M  V30 15 H -1.94612 -2.09598 -0.376549 0
M  V30 END ATOM
M  V30 BEGIN BOND
M  V30 1 1 1 2
M  V30 2 2 2 3
M  V30 3 1 3 4
M  V30 4 2 4 5
M  V30 5 1 5 6
M  V30 6 2 6 7
M  V30 7 1 7 8
M  V30 8 1 7 2
M  V30 9 1 1 9
M  V30 10 1 1 10
M  V30 11 1 3 11
M  V30 12 1 4 12
M  V30 13 1 6 13
M  V30 14 1 8 14
M  V30 15 1 8 15
M  V30 END BOND
M  V30 END CTAB
M  END
