
     RDKit          3D

  0  0  0  0  0  0  0  0  0  0999 V3000
M  V30 BEGIN CTAB
M  V30 COUNTS 76 78 0 0 0
M  V30 BEGIN ATOM
M  V30 1 N 2.03685 -5.42354 0.0926488 0
M  V30 2 C 0.957979 -4.52614 -0.0914667 0
M  V30 3 C -0.311817 -5.06035 -0.345447 0
M  V30 4 C -1.35753 -4.18348 -0.523898 0
M  V30 5 N -2.69335 -4.65937 -0.789339 0
M  V30 6 C -1.16888 -2.8185 -0.456153 0
M  V30 7 C 0.0871987 -2.31035 -0.205378 0
M  V30 8 C 1.17292 -3.17583 -0.0190805 0
M  V30 9 N 2.47115 -2.59816 0.240832 0
M  V30 10 N 2.93209 -1.84994 -0.647069 0
M  V30 11 C 4.11317 -1.13751 -0.742731 0
M  V30 12 C 5.35347 -1.70541 -0.713654 0
M  V30 13 C 6.47681 -0.902137 -0.844592 0
M  V30 14 C 6.38124 0.462988 -1.00365 0
M  V30 15 C 5.1231 1.02513 -1.03054 0
M  V30 16 C 4.00009 0.252255 -0.903663 0
M  V30 17 S 7.75861 1.51842 -1.17254 0
M  V30 18 O 7.47972 2.67323 -2.08728 0
M  V30 19 O 8.87412 0.685979 -1.77945 0
M  V30 20 C 8.31537 2.10329 0.422806 0
M  V30 21 C 9.50252 3.00346 0.18157 0
M  V30 22 O 10.0186 3.51733 1.36534 0
M  V30 23 S 11.3261 4.49682 0.97885 0
M  V30 24 O 10.7358 6.07684 0.868072 0
M  V30 25 O 11.911 4.04549 -0.312441 0
M  V30 26 O 12.376 4.39505 2.05628 0
M  V30 27 S 5.58445 -3.41055 -0.485808 0
M  V30 28 O 5.03589 -3.8643 1.02507 0
M  V30 29 O 7.05347 -3.74565 -0.568887 0
M  V30 30 O 4.91767 -4.21234 -1.57905 0
M  V30 31 N -2.28415 -1.95599 -0.648709 0
M  V30 32 N -3.41015 -2.14669 -0.0958008 0
M  V30 33 C -4.47214 -1.23842 -0.340356 0
M  V30 34 C -5.62827 -1.34946 0.392329 0
M  V30 35 C -6.65401 -0.440632 0.127724 0
M  V30 36 C -6.55029 0.53436 -0.814231 0
M  V30 37 C -5.3835 0.633324 -1.54178 0
M  V30 38 C -4.33346 -0.261068 -1.30358 0
M  V30 39 S -7.88484 1.63227 -1.0819 0
M  V30 40 O -9.16125 0.939257 -0.678136 0
M  V30 41 O -7.97181 2.05265 -2.51971 0
M  V30 42 C -7.66746 3.02376 -0.00569797 0
M  V30 43 C -8.78605 4.03425 -0.170775 0
M  V30 44 O -9.98072 3.3822 0.1405 0
M  V30 45 S -11.301 4.40267 -0.0059029 0
M  V30 46 O -10.8947 5.84499 0.784591 0
M  V30 47 O -11.6255 4.69949 -1.43545 0
M  V30 48 O -12.4679 3.73238 0.673411 0
M  V30 49 S -5.84356 -2.57074 1.61876 0
M  V30 50 O -4.68673 -2.42432 2.83477 0
M  V30 51 O -5.6743 -3.9205 0.988748 0
M  V30 52 O -7.22749 -2.46379 2.19212 0
M  V30 53 H 2.39264 -5.66144 1.04477 0
M  V30 54 H 2.50776 -5.87314 -0.716077 0
M  V30 55 H -0.454335 -6.13089 -0.397494 0
M  V30 56 H -3.22254 -4.38974 -1.63931 0
M  V30 57 H -3.14812 -5.30587 -0.0922158 0
M  V30 58 H 0.248531 -1.24199 -0.149716 0
M  V30 59 H 7.48449 -1.31972 -0.82687 0
M  V30 60 H 5.01567 2.09518 -1.15375 0
M  V30 61 H 2.99668 0.707175 -0.925801 0
M  V30 62 H 8.63358 1.23726 1.02492 0
M  V30 63 H 7.49105 2.66456 0.911019 0
M  V30 64 H 9.18917 3.87199 -0.438361 0
M  V30 65 H 10.269 2.42595 -0.380879 0
M  V30 66 H 11.3973 6.68575 0.455867 0
M  V30 67 H 5.72168 -3.75427 1.73344 0
M  V30 68 H -7.56826 -0.520841 0.70022 0
M  V30 69 H -5.27738 1.39765 -2.2938 0
M  V30 70 H -3.41535 -0.195981 -1.86444 0
M  V30 71 H -6.70641 3.49818 -0.225678 0
M  V30 72 H -7.62108 2.63616 1.03236 0
M  V30 73 H -8.77369 4.44649 -1.19064 0
M  V30 74 H -8.66196 4.83497 0.577442 0
M  V30 75 H -10.468 6.41707 0.113911 0
M  V30 76 H -4.60486 -3.33718 3.24323 0
M  V30 END ATOM
M  V30 BEGIN BOND
M  V30 1 1 1 2
M  V30 2 2 2 3
M  V30 3 1 3 4
M  V30 4 1 4 5
M  V30 5 2 4 6
M  V30 6 1 6 7
M  V30 7 2 7 8
M  V30 8 1 8 9
M  V30 9 2 9 10 CFG=2
M  V30 10 1 10 11
M  V30 11 2 11 12
M  V30 12 1 12 13
M  V30 13 2 13 14
M  V30 14 1 14 15
M  V30 15 2 15 16
M  V30 16 1 14 17
M  V30 17 2 17 18
M  V30 18 2 17 19
M  V30 19 1 17 20
M  V30 20 1 20 21
M  V30 21 1 21 22
M  V30 22 1 22 23
M  V30 23 1 23 24
M  V30 24 2 23 25
M  V30 25 2 23 26
M  V30 26 1 12 27
M  V30 27 1 27 28
M  V30 28 2 27 29
M  V30 29 2 27 30
M  V30 30 1 6 31
M  V30 31 2 31 32 CFG=2
M  V30 32 1 32 33
M  V30 33 2 33 34
M  V30 34 1 34 35
M  V30 35 2 35 36
M  V30 36 1 36 37
M  V30 37 2 37 38
M  V30 38 1 36 39
M  V30 39 2 39 40
M  V30 40 2 39 41
M  V30 41 1 39 42
M  V30 42 1 42 43
M  V30 43 1 43 44
M  V30 44 1 44 45
M  V30 45 1 45 46
M  V30 46 2 45 47
M  V30 47 2 45 48
M  V30 48 1 34 49
M  V30 49 1 49 50
M  V30 50 2 49 51
M  V30 51 2 49 52
M  V30 52 1 8 2
M  V30 53 1 16 11
M  V30 54 1 38 33
M  V30 55 1 1 53
M  V30 56 1 1 54
M  V30 57 1 3 55
M  V30 58 1 5 56
M  V30 59 1 5 57
M  V30 60 1 7 58
M  V30 61 1 13 59
M  V30 62 1 15 60
M  V30 63 1 16 61
M  V30 64 1 20 62
M  V30 65 1 20 63
M  V30 66 1 21 64
M  V30 67 1 21 65
M  V30 68 1 24 66
M  V30 69 1 28 67
M  V30 70 1 35 68
M  V30 71 1 37 69
M  V30 72 1 38 70
M  V30 73 1 42 71
M  V30 74 1 42 72
M  V30 75 1 43 73
M  V30 76 1 43 74
M  V30 77 1 46 75
M  V30 78 1 50 76
M  V30 END BOND
M  V30 END CTAB
M  END
