
     RDKit          3D

  0  0  0  0  0  0  0  0  0  0999 V3000
M  V30 BEGIN CTAB
M  V30 COUNTS 21 21 0 0 0
M  V30 BEGIN ATOM
M  V30 1 N -1.46285 -0.401205 -2.60471 0
M  V30 2 N -1.20482 0.0965302 -1.3427 0
M  V30 3 C -0.152894 -0.26948 -0.697962 0
M  V30 4 C 0.129507 0.248125 0.632244 0
M  V30 5 C -0.662777 1.15302 1.3289 0
M  V30 6 C -1.92769 1.73611 0.822607 0
M  V30 7 N -0.0205362 1.34058 2.49457 0
M  V30 8 O 1.06517 0.629507 2.53363 0
M  V30 9 C 1.21305 -0.0630084 1.41991 0
M  V30 10 C 2.30612 -0.994852 1.05354 0
M  V30 11 N 0.746652 -1.19411 -1.29575 0
M  V30 12 H -1.67307 -1.41985 -2.74552 0
M  V30 13 H -1.46821 0.175233 -3.48011 0
M  V30 14 H -2.68538 0.962597 0.585995 0
M  V30 15 H -2.40851 2.39243 1.58608 0
M  V30 16 H -1.72966 2.30996 -0.121444 0
M  V30 17 H 3.05704 -1.08284 1.87634 0
M  V30 18 H 2.81166 -0.593144 0.131239 0
M  V30 19 H 1.92269 -2.0106 0.850761 0
M  V30 20 H 1.51933 -0.789547 -1.87629 0
M  V30 21 H 0.625186 -2.22546 -1.15133 0
M  V30 END ATOM
M  V30 BEGIN BOND
M  V30 1 1 1 2
M  V30 2 2 2 3 CFG=2
M  V30 3 1 3 4
M  V30 4 1 4 5
M  V30 5 1 5 6
M  V30 6 2 5 7
M  V30 7 1 7 8
M  V30 8 1 8 9
M  V30 9 1 9 10
M  V30 10 1 3 11
M  V30 11 2 9 4
M  V30 12 1 1 12
M  V30 13 1 1 13
M  V30 14 1 6 14
M  V30 15 1 6 15
M  V30 16 1 6 16
M  V30 17 1 10 17
M  V30 18 1 10 18
M  V30 19 1 10 19
M  V30 20 1 11 20
M  V30 21 1 11 21
M  V30 END BOND
M  V30 END CTAB
M  END
