
     RDKit          3D

  0  0  0  0  0  0  0  0  0  0999 V3000
M  V30 BEGIN CTAB
M  V30 COUNTS 52 54 0 0 0
M  V30 BEGIN ATOM
M  V30 1 N 5.24516 4.04851 -0.220179 0
M  V30 2 C 5.61762 2.88622 0.499014 0
M  V30 3 N 6.53682 2.98102 1.36362 0
M  V30 4 C 4.95536 1.59946 0.255064 0
M  V30 5 C 5.24267 0.440632 0.90808 0
M  V30 6 C 4.55767 -0.74423 0.605415 0
M  V30 7 C 3.5812 -0.783729 -0.349934 0
M  V30 8 C 3.31007 0.392991 -0.992 0
M  V30 9 C 3.95885 1.57162 -0.723412 0
M  V30 10 C 2.96724 -2.01564 -0.714066 0
M  V30 11 C 1.69753 -2.24791 -0.562722 0
M  V30 12 C 1.16339 -3.59311 -0.999731 0
M  V30 13 C 0.00612452 -3.95183 -0.163683 0
M  V30 14 C -1.31484 -3.37854 -0.442277 0
M  V30 15 C -1.41411 -1.96435 -0.903274 0
M  V30 16 C -0.590487 -1.01727 -0.179218 0
M  V30 17 C -1.09123 0.0733757 0.31823 0
M  V30 18 C -2.45811 0.539769 0.269809 0
M  V30 19 C -2.68242 1.84003 -0.204736 0
M  V30 20 C -3.94355 2.3863 -0.241887 0
M  V30 21 C -5.03809 1.67715 0.186418 0
M  V30 22 C -4.81933 0.401353 0.65269 0
M  V30 23 C -3.53651 -0.152226 0.689839 0
M  V30 24 C -6.39398 2.22661 0.158446 0
M  V30 25 N -7.47918 1.41927 0.622607 0
M  V30 26 N -6.68907 3.39262 -0.256876 0
M  V30 27 C 0.864215 -1.22954 0.0641646 0
M  V30 28 O 1.45453 -0.489556 0.873304 0
M  V30 29 H 5.27371 4.0723 -1.26002 0
M  V30 30 H 4.92794 4.92645 0.246709 0
M  V30 31 H 6.84682 2.1728 1.91318 0
M  V30 32 H 6.01076 0.440555 1.66987 0
M  V30 33 H 4.86968 -1.61768 1.19188 0
M  V30 34 H 2.54394 0.397788 -1.75214 0
M  V30 35 H 3.71985 2.50291 -1.25627 0
M  V30 36 H 3.54433 -2.85478 -1.15082 0
M  V30 37 H 1.96165 -4.37561 -0.941678 0
M  V30 38 H 0.928575 -3.52777 -2.09654 0
M  V30 39 H -0.107134 -5.07861 -0.230439 0
M  V30 40 H 0.297266 -3.80604 0.914493 0
M  V30 41 H -1.91304 -3.44415 0.51846 0
M  V30 42 H -1.87218 -4.02694 -1.15457 0
M  V30 43 H -1.06324 -2.00291 -2.00492 0
M  V30 44 H -2.44678 -1.66146 -0.989728 0
M  V30 45 H -0.353012 0.730212 0.853173 0
M  V30 46 H -1.86836 2.45131 -0.555885 0
M  V30 47 H -4.11317 3.39353 -0.610002 0
M  V30 48 H -5.62233 -0.210291 1.00193 0
M  V30 49 H -3.4263 -1.14713 1.07349 0
M  V30 50 H -8.25028 1.20885 -0.0751321 0
M  V30 51 H -7.55111 1.03898 1.58001 0
M  V30 52 H -6.04512 4.1087 -0.625853 0
M  V30 END ATOM
M  V30 BEGIN BOND
M  V30 1 1 1 2
M  V30 2 2 2 3 CFG=2
M  V30 3 1 2 4
M  V30 4 2 4 5
M  V30 5 1 5 6
M  V30 6 2 6 7
M  V30 7 1 7 8
M  V30 8 2 8 9
M  V30 9 1 7 10
M  V30 10 2 10 11
M  V30 11 1 11 12
M  V30 12 1 12 13
M  V30 13 1 13 14
M  V30 14 1 14 15
M  V30 15 1 15 16
M  V30 16 2 16 17
M  V30 17 1 17 18
M  V30 18 2 18 19
M  V30 19 1 19 20
M  V30 20 2 20 21
M  V30 21 1 21 22
M  V30 22 2 22 23
M  V30 23 1 21 24
M  V30 24 1 24 25
M  V30 25 2 24 26 CFG=2
M  V30 26 1 16 27
M  V30 27 2 27 28
M  V30 28 1 9 4
M  V30 29 1 27 11
M  V30 30 1 23 18
M  V30 31 1 1 29
M  V30 32 1 1 30
M  V30 33 1 3 31
M  V30 34 1 5 32
M  V30 35 1 6 33
M  V30 36 1 8 34
M  V30 37 1 9 35
M  V30 38 1 10 36
M  V30 39 1 12 37
M  V30 40 1 12 38
M  V30 41 1 13 39
M  V30 42 1 13 40
M  V30 43 1 14 41
M  V30 44 1 14 42
M  V30 45 1 15 43
M  V30 46 1 15 44
M  V30 47 1 17 45
M  V30 48 1 19 46
M  V30 49 1 20 47
M  V30 50 1 22 48
M  V30 51 1 23 49
M  V30 52 1 25 50
M  V30 53 1 25 51
M  V30 54 1 26 52
M  V30 END BOND
M  V30 END CTAB
M  END
