
     RDKit          3D

  0  0  0  0  0  0  0  0  0  0999 V3000
M  V30 BEGIN CTAB
M  V30 COUNTS 55 57 0 0 0
M  V30 BEGIN ATOM
M  V30 1 N 8.26906 -0.664639 0.250563 0
M  V30 2 C 7.44924 0.219921 -0.584449 0
M  V30 3 C 6.41003 -0.544402 -1.37155 0
M  V30 4 C 5.37678 0.437825 -0.881268 0
M  V30 5 C 6.34972 0.806925 0.237434 0
M  V30 6 C 4.11828 -0.164034 -0.380354 0
M  V30 7 C 2.92084 0.548645 -0.459074 0
M  V30 8 C 1.76754 -0.037708 0.00475412 0
M  V30 9 N 1.83212 -1.27665 0.516988 0
M  V30 10 C 2.9681 -1.99188 0.608073 0
M  V30 11 N 4.1055 -1.39761 0.144292 0
M  V30 12 N 3.01064 -3.30266 1.15703 0
M  V30 13 N 0.535165 0.697915 -0.0317936 0
M  V30 14 C 0.00336151 1.17814 1.22026 0
M  V30 15 C -1.23695 0.533182 1.70325 0
M  V30 16 C -2.46463 0.683476 0.859661 0
M  V30 17 O -3.55629 -0.0244339 1.4815 0
M  V30 18 C -4.78333 0.00477859 0.87071 0
M  V30 19 C -5.02504 0.680247 -0.296622 0
M  V30 20 C -6.28878 0.684317 -0.879856 0
M  V30 21 C -6.55334 1.42007 -2.14268 0
M  V30 22 C -7.33408 -0.00605363 -0.278708 0
M  V30 23 C -7.09873 -0.692847 0.902715 0
M  V30 24 C -5.84787 -0.670794 1.43949 0
M  V30 25 C -5.5804 -1.40973 2.69022 0
M  V30 26 C -0.0706888 0.907094 -1.31672 0
M  V30 27 H 8.61429 -1.47504 -0.345149 0
M  V30 28 H 9.04857 -0.110201 0.659793 0
M  V30 29 H 8.00031 0.935734 -1.19596 0
M  V30 30 H 6.23374 -1.53969 -0.908587 0
M  V30 31 H 6.51962 -0.562649 -2.45915 0
M  V30 32 H 5.2496 1.32655 -1.51827 0
M  V30 33 H 6.13284 0.289641 1.20098 0
M  V30 34 H 6.43341 1.89376 0.416158 0
M  V30 35 H 2.95486 1.54042 -0.882465 0
M  V30 36 H 2.36878 -4.0226 0.761101 0
M  V30 37 H 3.6471 -3.5734 1.93461 0
M  V30 38 H -0.223181 2.27802 1.09601 0
M  V30 39 H 0.805011 1.16826 2.01531 0
M  V30 40 H -1.4846 0.986399 2.71074 0
M  V30 41 H -1.09367 -0.55677 1.9465 0
M  V30 42 H -2.36461 0.318443 -0.176593 0
M  V30 43 H -2.67841 1.7719 0.784695 0
M  V30 44 H -4.2272 1.23579 -0.798186 0
M  V30 45 H -5.68459 1.45368 -2.79834 0
M  V30 46 H -7.44712 0.939827 -2.62381 0
M  V30 47 H -6.79887 2.46672 -1.85542 0
M  V30 48 H -8.29447 0.00384975 -0.731229 0
M  V30 49 H -7.94049 -1.22018 1.34945 0
M  V30 50 H -4.77043 -0.946753 3.29956 0
M  V30 51 H -5.22384 -2.45483 2.433 0
M  V30 52 H -6.46353 -1.5552 3.33307 0
M  V30 53 H 0.754405 1.05615 -2.04459 0
M  V30 54 H -0.774969 1.76401 -1.32042 0
M  V30 55 H -0.568842 -0.0309537 -1.62397 0
M  V30 END ATOM
M  V30 BEGIN BOND
M  V30 1 1 1 2
M  V30 2 1 2 3
M  V30 3 1 3 4
M  V30 4 1 4 5
M  V30 5 1 4 6
M  V30 6 2 6 7
M  V30 7 1 7 8
M  V30 8 2 8 9
M  V30 9 1 9 10
M  V30 10 2 10 11
M  V30 11 1 10 12
M  V30 12 1 8 13
M  V30 13 1 13 14
M  V30 14 1 14 15
M  V30 15 1 15 16
M  V30 16 1 16 17
M  V30 17 1 17 18
M  V30 18 2 18 19
M  V30 19 1 19 20
M  V30 20 1 20 21
M  V30 21 2 20 22
M  V30 22 1 22 23
M  V30 23 2 23 24
M  V30 24 1 24 25
M  V30 25 1 13 26
M  V30 26 1 5 2
M  V30 27 1 11 6
M  V30 28 1 24 18
M  V30 29 1 1 27
M  V30 30 1 1 28
M  V30 31 1 2 29
M  V30 32 1 3 30
M  V30 33 1 3 31
M  V30 34 1 4 32
M  V30 35 1 5 33
M  V30 36 1 5 34
M  V30 37 1 7 35
M  V30 38 1 12 36
M  V30 39 1 12 37
M  V30 40 1 14 38
M  V30 41 1 14 39
M  V30 42 1 15 40
M  V30 43 1 15 41
M  V30 44 1 16 42
M  V30 45 1 16 43
M  V30 46 1 19 44
M  V30 47 1 21 45
M  V30 48 1 21 46
M  V30 49 1 21 47
M  V30 50 1 22 48
M  V30 51 1 23 49
M  V30 52 1 25 50
M  V30 53 1 25 51
M  V30 54 1 25 52
M  V30 55 1 26 53
M  V30 56 1 26 54
M  V30 57 1 26 55
M  V30 END BOND
M  V30 END CTAB
M  END
