
     RDKit          3D

  0  0  0  0  0  0  0  0  0  0999 V3000
M  V30 BEGIN CTAB
M  V30 COUNTS 36 37 0 0 0
M  V30 BEGIN ATOM
M  V30 1 N 7.19202 -0.790392 1.58442 0
M  V30 2 C 6.10751 -0.251935 0.856257 0
M  V30 3 N 4.88906 -0.35951 1.28192 0
M  V30 4 N 3.87111 0.196052 0.510905 0
M  V30 5 C 2.63257 -0.116656 0.616478 0
M  V30 6 C 1.59851 0.491698 -0.213189 0
M  V30 7 C 1.86716 1.443 -1.16875 0
M  V30 8 C 0.904158 2.02707 -1.95989 0
M  V30 9 C -0.414159 1.64204 -1.79238 0
M  V30 10 C -0.718432 0.695607 -0.848416 0
M  V30 11 C 0.277459 0.125138 -0.0656749 0
M  V30 12 O -2.03201 0.299911 -0.668794 0
M  V30 13 C -2.36755 -0.683805 0.308876 0
M  V30 14 C -3.85643 -0.9007 0.267954 0
M  V30 15 C -4.66178 -0.208276 -0.609041 0
M  V30 16 C -6.0363 -0.423977 -0.630503 0
M  V30 17 C -6.63272 -1.32948 0.217316 0
M  V30 18 C -5.82211 -2.02081 1.09411 0
M  V30 19 C -4.45271 -1.80542 1.11498 0
M  V30 20 Cl -3.43319 -2.69864 2.24278 0
M  V30 21 N 6.41551 0.421167 -0.378822 0
M  V30 22 H 7.12004 -1.7782 1.91651 0
M  V30 23 H 8.02543 -0.178607 1.76282 0
M  V30 24 H 2.35885 -0.853978 1.3452 0
M  V30 25 H 2.89071 1.74801 -1.3052 0
M  V30 26 H 1.12993 2.77558 -2.70914 0
M  V30 27 H -1.17007 2.10103 -2.41394 0
M  V30 28 H 0.00181011 -0.611334 0.661829 0
M  V30 29 H -1.84099 -1.6137 0.0115239 0
M  V30 30 H -2.05906 -0.309699 1.30659 0
M  V30 31 H -4.19262 0.507702 -1.27985 0
M  V30 32 H -6.65546 0.128084 -1.32556 0
M  V30 33 H -7.70255 -1.48864 0.191399 0
M  V30 34 H -6.29531 -2.73002 1.75705 0
M  V30 35 H 6.63437 1.43371 -0.38429 0
M  V30 36 H 6.42724 -0.085882 -1.29547 0
M  V30 END ATOM
M  V30 BEGIN BOND
M  V30 1 1 1 2
M  V30 2 2 2 3
M  V30 3 1 3 4
M  V30 4 2 4 5
M  V30 5 1 5 6
M  V30 6 2 6 7
M  V30 7 1 7 8
M  V30 8 2 8 9
M  V30 9 1 9 10
M  V30 10 2 10 11
M  V30 11 1 10 12
M  V30 12 1 12 13
M  V30 13 1 13 14
M  V30 14 2 14 15
M  V30 15 1 15 16
M  V30 16 2 16 17
M  V30 17 1 17 18
M  V30 18 2 18 19
M  V30 19 1 19 20
M  V30 20 1 2 21
M  V30 21 1 11 6
M  V30 22 1 19 14
M  V30 23 1 1 22
M  V30 24 1 1 23
M  V30 25 1 5 24
M  V30 26 1 7 25
M  V30 27 1 8 26
M  V30 28 1 9 27
M  V30 29 1 11 28
M  V30 30 1 13 29
M  V30 31 1 13 30
M  V30 32 1 15 31
M  V30 33 1 16 32
M  V30 34 1 17 33
M  V30 35 1 18 34
M  V30 36 1 21 35
M  V30 37 1 21 36
M  V30 END BOND
M  V30 END CTAB
M  END
