
     RDKit          3D

  0  0  0  0  0  0  0  0  0  0999 V3000
M  V30 BEGIN CTAB
M  V30 COUNTS 59 63 0 0 0
M  V30 BEGIN ATOM
M  V30 1 F 1.09578 1.99147 2.90235 0
M  V30 2 C 0.650017 2.65798 1.77742 0
M  V30 3 C 0.757146 4.03765 1.7512 0
M  V30 4 C 0.331395 4.76127 0.658646 0
M  V30 5 C -0.19654 4.02099 -0.380546 0
M  V30 6 C -0.307738 2.64855 -0.365063 0
M  V30 7 C 0.120653 1.94499 0.729616 0
M  V30 8 C 0.0222393 0.488648 0.807316 0
M  V30 9 C -1.19566 -0.0956747 0.201173 0
M  V30 10 C -1.37566 -0.644966 -1.05423 0
M  V30 11 C -0.401254 -0.814873 -2.12457 0
M  V30 12 N -2.67617 -1.03427 -1.13701 0
M  V30 13 N -3.33274 -0.777603 -0.0390853 0
M  V30 14 C -2.46573 -0.209956 0.790012 0
M  V30 15 N -2.75876 0.228424 2.09916 0
M  V30 16 C -4.71763 -1.09621 0.119242 0
M  V30 17 C -5.25008 -2.24955 -0.472446 0
M  V30 18 C -6.56345 -2.61245 -0.357695 0
M  V30 19 C -7.40141 -1.80619 0.373761 0
M  V30 20 C -6.92505 -0.668016 0.970782 0
M  V30 21 C -5.57749 -0.307452 0.845302 0
M  V30 22 C 1.26693 -0.23474 0.555359 0
M  V30 23 C 1.62065 -1.47115 1.10481 0
M  V30 24 C 0.782663 -2.28003 2.02238 0
M  V30 25 N 2.84488 -1.82451 0.677422 0
M  V30 26 N 3.26224 -0.863563 -0.109341 0
M  V30 27 C 2.3442 0.120719 -0.215277 0
M  V30 28 N 2.51248 1.28268 -0.97972 0
M  V30 29 C 4.52582 -0.845899 -0.774478 0
M  V30 30 C 4.55933 -0.634031 -2.13371 0
M  V30 31 C 5.76653 -0.605606 -2.82401 0
M  V30 32 C 6.95946 -0.793092 -2.13718 0
M  V30 33 C 6.92195 -1.00421 -0.781468 0
M  V30 34 C 5.70658 -1.0303 -0.103277 0
M  V30 35 H 1.18541 4.57419 2.60582 0
M  V30 36 H 0.4065 5.84913 0.617456 0
M  V30 37 H -0.541676 4.58549 -1.25982 0
M  V30 38 H -0.739798 2.16935 -1.23784 0
M  V30 39 H -0.163142 0.30519 1.94062 0
M  V30 40 H -0.916171 -1.17682 -3.03683 0
M  V30 41 H 0.107944 0.115278 -2.42478 0
M  V30 42 H 0.360506 -1.61061 -1.90255 0
M  V30 43 H -3.06462 1.21691 2.23003 0
M  V30 44 H -2.68281 -0.383162 2.91675 0
M  V30 45 H -4.56644 -2.87096 -1.04741 0
M  V30 46 H -6.94237 -3.52015 -0.834376 0
M  V30 47 H -8.43317 -2.06109 0.4834 0
M  V30 48 H -7.56209 -0.00282677 1.56099 0
M  V30 49 H -5.18937 0.582628 1.30626 0
M  V30 50 H 0.0624535 -2.84863 1.41887 0
M  V30 51 H 0.298782 -1.63848 2.79865 0
M  V30 52 H 1.42948 -2.98787 2.59183 0
M  V30 53 H 2.98024 2.11154 -0.559847 0
M  V30 54 H 2.18224 1.34464 -1.96306 0
M  V30 55 H 3.63301 -0.48802 -2.674 0
M  V30 56 H 5.82696 -0.4406 -3.8922 0
M  V30 57 H 7.88938 -0.764128 -2.70881 0
M  V30 58 H 7.86455 -1.14595 -0.276398 0
M  V30 59 H 5.66863 -1.19413 0.950394 0
M  V30 END ATOM
M  V30 BEGIN BOND
M  V30 1 1 1 2
M  V30 2 2 2 3
M  V30 3 1 3 4
M  V30 4 2 4 5
M  V30 5 1 5 6
M  V30 6 2 6 7
M  V30 7 1 7 8
M  V30 8 1 8 9
M  V30 9 1 9 10
M  V30 10 1 10 11
M  V30 11 2 10 12
M  V30 12 1 12 13
M  V30 13 1 13 14
M  V30 14 1 14 15
M  V30 15 1 13 16
M  V30 16 2 16 17
M  V30 17 1 17 18
M  V30 18 2 18 19
M  V30 19 1 19 20
M  V30 20 2 20 21
M  V30 21 1 8 22
M  V30 22 1 22 23
M  V30 23 1 23 24
M  V30 24 2 23 25
M  V30 25 1 25 26
M  V30 26 1 26 27
M  V30 27 1 27 28
M  V30 28 1 26 29
M  V30 29 2 29 30
M  V30 30 1 30 31
M  V30 31 2 31 32
M  V30 32 1 32 33
M  V30 33 2 33 34
M  V30 34 1 7 2
M  V30 35 2 14 9
M  V30 36 1 21 16
M  V30 37 2 27 22
M  V30 38 1 34 29
M  V30 39 1 3 35
M  V30 40 1 4 36
M  V30 41 1 5 37
M  V30 42 1 6 38
M  V30 43 1 8 39
M  V30 44 1 11 40
M  V30 45 1 11 41
M  V30 46 1 11 42
M  V30 47 1 15 43
M  V30 48 1 15 44
M  V30 49 1 17 45
M  V30 50 1 18 46
M  V30 51 1 19 47
M  V30 52 1 20 48
M  V30 53 1 21 49
M  V30 54 1 24 50
M  V30 55 1 24 51
M  V30 56 1 24 52
M  V30 57 1 28 53
M  V30 58 1 28 54
M  V30 59 1 30 55
M  V30 60 1 31 56
M  V30 61 1 32 57
M  V30 62 1 33 58
M  V30 63 1 34 59
M  V30 END BOND
M  V30 END CTAB
M  END
