
     RDKit          3D

  0  0  0  0  0  0  0  0  0  0999 V3000
M  V30 BEGIN CTAB
M  V30 COUNTS 35 37 0 0 0
M  V30 BEGIN ATOM
M  V30 1 C 5.11353 2.74988 1.28051 0
M  V30 2 C 4.56573 1.5917 0.541074 0
M  V30 3 N 3.27216 1.5171 0.198081 0
M  V30 4 C 2.7565 0.46897 -0.475814 0
M  V30 5 S 1.02639 0.395728 -0.92062 0
M  V30 6 C 0.165746 -0.412509 0.466735 0
M  V30 7 C -1.29296 -0.529091 0.20221 0
M  V30 8 N -1.80111 -1.61155 -0.411722 0
M  V30 9 C -3.09446 -1.77604 -0.677094 0
M  V30 10 N -3.66098 -2.90221 -1.32126 0
M  V30 11 C -3.95269 -0.759997 -0.289699 0
M  V30 12 C -3.47193 0.368374 0.343385 0
M  V30 13 N -2.15416 0.44228 0.566812 0
M  V30 14 C -4.32275 1.38266 0.730816 0
M  V30 15 C -5.66669 1.28799 0.493171 0
M  V30 16 C -6.16303 0.154498 -0.144718 0
M  V30 17 C -5.30174 -0.839229 -0.520376 0
M  V30 18 N 3.60049 -0.525588 -0.802295 0
M  V30 19 C 4.90787 -0.537613 -0.501767 0
M  V30 20 C 5.41292 0.565506 0.198603 0
M  V30 21 N 5.76992 -1.6161 -0.868274 0
M  V30 22 H 4.84618 3.71957 0.811501 0
M  V30 23 H 4.62206 2.72404 2.29724 0
M  V30 24 H 6.18354 2.6355 1.46508 0
M  V30 25 H 0.629872 -1.3821 0.702372 0
M  V30 26 H 0.359531 0.241265 1.36728 0
M  V30 27 H -3.5945 -3.05602 -2.34166 0
M  V30 28 H -4.16595 -3.6082 -0.75337 0
M  V30 29 H -3.96168 2.27309 1.22792 0
M  V30 30 H -6.34531 2.07877 0.793211 0
M  V30 31 H -7.22454 0.0969183 -0.323898 0
M  V30 32 H -5.67175 -1.73202 -1.01987 0
M  V30 33 H 6.46362 0.542091 0.433003 0
M  V30 34 H 6.47977 -1.40886 -1.61616 0
M  V30 35 H 5.6704 -2.53878 -0.399553 0
M  V30 END ATOM
M  V30 BEGIN BOND
M  V30 1 1 1 2
M  V30 2 2 2 3
M  V30 3 1 3 4
M  V30 4 1 4 5
M  V30 5 1 5 6
M  V30 6 1 6 7
M  V30 7 2 7 8
M  V30 8 1 8 9
M  V30 9 1 9 10
M  V30 10 2 9 11
M  V30 11 1 11 12
M  V30 12 2 12 13
M  V30 13 1 12 14
M  V30 14 2 14 15
M  V30 15 1 15 16
M  V30 16 2 16 17
M  V30 17 2 4 18
M  V30 18 1 18 19
M  V30 19 2 19 20
M  V30 20 1 19 21
M  V30 21 1 20 2
M  V30 22 1 13 7
M  V30 23 1 17 11
M  V30 24 1 1 22
M  V30 25 1 1 23
M  V30 26 1 1 24
M  V30 27 1 6 25
M  V30 28 1 6 26
M  V30 29 1 10 27
M  V30 30 1 10 28
M  V30 31 1 14 29
M  V30 32 1 15 30
M  V30 33 1 16 31
M  V30 34 1 17 32
M  V30 35 1 20 33
M  V30 36 1 21 34
M  V30 37 1 21 35
M  V30 END BOND
M  V30 END CTAB
M  END
