
     RDKit          3D

  0  0  0  0  0  0  0  0  0  0999 V3000
M  V30 BEGIN CTAB
M  V30 COUNTS 24 25 0 0 0
M  V30 BEGIN ATOM
M  V30 1 Br -2.79593 2.71201 2.65792 0
M  V30 2 C -2.40441 1.41773 1.31505 0
M  V30 3 C -3.42325 0.811091 0.591318 0
M  V30 4 C -3.1274 -0.125608 -0.379554 0
M  V30 5 C -1.81414 -0.46111 -0.632577 0
M  V30 6 C -0.776989 0.12642 0.0723241 0
M  V30 7 C -1.09725 1.06434 1.04258 0
M  V30 8 C 0.546338 -0.193762 -0.163688 0
M  V30 9 N 0.828426 -1.1026 -1.10612 0
M  V30 10 C -0.1233 -1.71112 -1.82659 0
M  V30 11 C -1.45367 -1.39015 -1.5903 0
M  V30 12 N 1.5448 0.442571 0.589907 0
M  V30 13 C 2.80247 0.211279 0.442852 0
M  V30 14 N 3.70534 0.92807 1.27435 0
M  V30 15 N 3.30665 -0.729408 -0.516151 0
M  V30 16 H -4.42706 1.11325 0.833223 0
M  V30 17 H -3.92951 -0.590549 -0.935904 0
M  V30 18 H -0.307607 1.54763 1.61744 0
M  V30 19 H 0.134243 -2.44414 -2.58435 0
M  V30 20 H -2.24382 -1.85567 -2.14633 0
M  V30 21 H 3.92701 1.91811 1.04831 0
M  V30 22 H 4.15789 0.500144 2.10712 0
M  V30 23 H 3.75752 -0.446071 -1.41297 0
M  V30 24 H 3.21365 -1.74245 -0.297874 0
M  V30 END ATOM
M  V30 BEGIN BOND
M  V30 1 1 1 2
M  V30 2 2 2 3
M  V30 3 1 3 4
M  V30 4 2 4 5
M  V30 5 1 5 6
M  V30 6 2 6 7
M  V30 7 1 6 8
M  V30 8 2 8 9
M  V30 9 1 9 10
M  V30 10 2 10 11
M  V30 11 1 8 12
M  V30 12 2 12 13 CFG=2
M  V30 13 1 13 14
M  V30 14 1 13 15
M  V30 15 1 7 2
M  V30 16 1 11 5
M  V30 17 1 3 16
M  V30 18 1 4 17
M  V30 19 1 7 18
M  V30 20 1 10 19
M  V30 21 1 11 20
M  V30 22 1 14 21
M  V30 23 1 14 22
M  V30 24 1 15 23
M  V30 25 1 15 24
M  V30 END BOND
M  V30 END CTAB
M  END
