
     RDKit          3D

  0  0  0  0  0  0  0  0  0  0999 V3000
M  V30 BEGIN CTAB
M  V30 COUNTS 31 32 0 0 0
M  V30 BEGIN ATOM
M  V30 1 N -2.18349 -0.727469 2.04913 0
M  V30 2 C -2.5637 -0.25611 0.762832 0
M  V30 3 N -3.82198 0.17224 0.5617 0
M  V30 4 C -4.21392 0.733634 -0.617573 0
M  V30 5 C -3.29105 0.859059 -1.6075 0
M  V30 6 C -1.97074 0.43044 -1.43222 0
M  V30 7 C -1.57213 -0.152307 -0.219772 0
M  V30 8 C -0.238268 -0.701125 -0.0804687 0 CFG=2
M  V30 9 O 0.0838211 -1.84758 0.535689 0
M  V30 10 C 1.28499 -2.38605 0.00773378 0
M  V30 11 C 2.24283 -1.2816 -0.455254 0
M  V30 12 N 2.02522 -0.191306 0.490259 0
M  V30 13 C 0.758885 0.467319 0.0720453 0
M  V30 14 S 3.24992 1.00735 0.519315 0
M  V30 15 O 3.75141 1.13793 1.92547 0
M  V30 16 O 4.38703 0.712764 -0.40041 0
M  V30 17 N 2.57272 2.56097 0.101747 0
M  V30 18 H -2.7714 -0.411317 2.87884 0
M  V30 19 H -1.4046 -1.31382 2.30422 0
M  V30 20 H -5.25892 1.02774 -0.691372 0
M  V30 21 H -3.62256 1.32077 -2.56572 0
M  V30 22 H -1.24534 0.551017 -2.21127 0
M  V30 23 H 0.0312152 -0.991292 -1.21386 0
M  V30 24 H 1.01162 -3.06849 -0.797415 0
M  V30 25 H 1.79329 -2.94238 0.816824 0
M  V30 26 H 3.27343 -1.62032 -0.363117 0
M  V30 27 H 2.08294 -1.00377 -1.49737 0
M  V30 28 H 0.809966 1.00373 -0.850453 0
M  V30 29 H 0.459113 1.08229 0.940593 0
M  V30 30 H 1.51255 2.53275 0.20169 0
M  V30 31 H 2.82715 3.29492 0.835687 0
M  V30 END ATOM
M  V30 BEGIN BOND
M  V30 1 1 1 2
M  V30 2 2 2 3
M  V30 3 1 3 4
M  V30 4 2 4 5
M  V30 5 1 5 6
M  V30 6 2 6 7
M  V30 7 1 7 8
M  V30 8 1 8 9
M  V30 9 1 9 10
M  V30 10 1 10 11
M  V30 11 1 11 12
M  V30 12 1 12 13
M  V30 13 1 12 14
M  V30 14 2 14 15
M  V30 15 2 14 16
M  V30 16 1 14 17
M  V30 17 1 7 2
M  V30 18 1 13 8
M  V30 19 1 1 18
M  V30 20 1 1 19
M  V30 21 1 4 20
M  V30 22 1 5 21
M  V30 23 1 6 22
M  V30 24 1 8 23 CFG=3
M  V30 25 1 10 24
M  V30 26 1 10 25
M  V30 27 1 11 26
M  V30 28 1 11 27
M  V30 29 1 13 28
M  V30 30 1 13 29
M  V30 31 1 17 30
M  V30 32 1 17 31
M  V30 END BOND
M  V30 END CTAB
M  END
