
     RDKit          3D

  0  0  0  0  0  0  0  0  0  0999 V3000
M  V30 BEGIN CTAB
M  V30 COUNTS 35 35 0 0 0
M  V30 BEGIN ATOM
M  V30 1 N -3.43735 -1.66914 1.43451 0
M  V30 2 C -2.05915 -1.62146 0.987938 0
M  V30 3 C -1.91255 -0.338311 0.145892 0
M  V30 4 C -0.50502 -0.297636 -0.313995 0
M  V30 5 N -0.116935 0.828595 -1.11719 0
M  V30 6 C 1.12155 0.628348 -1.79067 0
M  V30 7 C 2.31082 0.382539 -0.95178 0
M  V30 8 C 2.81265 -0.805342 -0.473168 0
M  V30 9 N 3.89628 -0.774272 0.228046 0
M  V30 10 C 4.49957 0.377765 0.473481 0
M  V30 11 S 3.48603 1.4924 -0.32451 0
M  V30 12 N 5.70562 0.531471 1.2247 0
M  V30 13 C 0.0730662 1.97597 -0.211861 0
M  V30 14 C -2.83383 -0.548651 -1.06654 0
M  V30 15 C -2.43876 0.796922 0.940125 0
M  V30 16 H -4.00093 -2.21339 0.752068 0
M  V30 17 H -3.49596 -2.13042 2.36154 0
M  V30 18 H -1.35701 -1.53934 1.86505 0
M  V30 19 H -1.74101 -2.50413 0.409201 0
M  V30 20 H -0.290984 -1.28615 -0.803604 0
M  V30 21 H 0.201026 -0.302066 0.563663 0
M  V30 22 H 1.32123 1.55689 -2.40001 0
M  V30 23 H 0.986524 -0.164084 -2.56752 0
M  V30 24 H 2.27765 -1.74922 -0.706147 0
M  V30 25 H 5.85795 -0.0897008 2.01711 0
M  V30 26 H 6.42628 1.24992 0.998242 0
M  V30 27 H 0.990513 2.51567 -0.553286 0
M  V30 28 H 0.19266 1.61956 0.829002 0
M  V30 29 H -0.744228 2.6857 -0.298176 0
M  V30 30 H -2.73671 0.306541 -1.74871 0
M  V30 31 H -2.60901 -1.53478 -1.5169 0
M  V30 32 H -3.88956 -0.544867 -0.709474 0
M  V30 33 H -2.75636 1.67825 0.335175 0
M  V30 34 H -3.41899 0.442001 1.4063 0
M  V30 35 H -1.81509 1.04439 1.81163 0
M  V30 END ATOM
M  V30 BEGIN BOND
M  V30 1 1 1 2
M  V30 2 1 2 3
M  V30 3 1 3 4
M  V30 4 1 4 5
M  V30 5 1 5 6
M  V30 6 1 6 7
M  V30 7 2 7 8
M  V30 8 1 8 9
M  V30 9 2 9 10
M  V30 10 1 10 11
M  V30 11 1 10 12
M  V30 12 1 5 13
M  V30 13 1 3 14
M  V30 14 1 3 15
M  V30 15 1 11 7
M  V30 16 1 1 16
M  V30 17 1 1 17
M  V30 18 1 2 18
M  V30 19 1 2 19
M  V30 20 1 4 20
M  V30 21 1 4 21
M  V30 22 1 6 22
M  V30 23 1 6 23
M  V30 24 1 8 24
M  V30 25 1 12 25
M  V30 26 1 12 26
M  V30 27 1 13 27
M  V30 28 1 13 28
M  V30 29 1 13 29
M  V30 30 1 14 30
M  V30 31 1 14 31
M  V30 32 1 14 32
M  V30 33 1 15 33
M  V30 34 1 15 34
M  V30 35 1 15 35
M  V30 END BOND
M  V30 END CTAB
M  END
