
     RDKit          3D

  0  0  0  0  0  0  0  0  0  0999 V3000
M  V30 BEGIN CTAB
M  V30 COUNTS 58 61 0 0 0
M  V30 BEGIN ATOM
M  V30 1 O 8.88757 -0.040518 -0.320099 0
M  V30 2 C 7.49566 -0.0982078 -0.368428 0
M  V30 3 O 6.9899 -1.11802 -0.870985 0
M  V30 4 C 6.73024 1.03756 0.171873 0
M  V30 5 C 5.26036 0.813405 0.0874759 0
M  V30 6 C 4.75969 -0.349113 0.840819 0
M  V30 7 O 5.54921 -0.981745 1.58387 0
M  V30 8 N 3.41655 -0.786616 0.763666 0
M  V30 9 C 3.00777 -1.9362 1.5393 0
M  V30 10 C 1.72554 -2.44722 0.914486 0
M  V30 11 C 0.70518 -1.32051 1.12605 0 CFG=1
M  V30 12 C 1.07709 -0.11585 0.309439 0 CFG=1
M  V30 13 C 2.52102 -0.0706119 -0.0820817 0
M  V30 14 C 0.25073 -0.0338776 -0.955815 0
M  V30 15 C -1.06731 0.640646 -0.770057 0 CFG=1
M  V30 16 C -0.947027 1.98425 -0.136629 0
M  V30 17 O -1.59683 0.84568 -2.06572 0
M  V30 18 C -2.01914 -0.283656 -0.0691997 0 CFG=1
M  V30 19 C -1.47883 -0.841128 1.22165 0
M  V30 20 O -0.537786 -1.82953 0.857272 0
M  V30 21 N -3.29782 0.328684 0.213605 0
M  V30 22 C -3.60516 1.15409 1.20812 0
M  V30 23 N -4.89982 1.49417 1.11179 0
M  V30 24 C -5.42789 0.891662 0.0598746 0
M  V30 25 C -4.42293 0.150146 -0.517752 0
M  V30 26 N -4.66681 -0.589398 -1.634 0
M  V30 27 C -5.88949 -0.607569 -2.18864 0
M  V30 28 N -6.1726 -1.37398 -3.35842 0
M  V30 29 N -6.86212 0.134469 -1.59622 0
M  V30 30 C -6.69629 0.878406 -0.507919 0
M  V30 31 N -7.71651 1.64455 0.096989 0
M  V30 32 H 9.43746 -0.288442 0.481674 0
M  V30 33 H 6.95693 1.91632 -0.493858 0
M  V30 34 H 7.09533 1.21664 1.2032 0
M  V30 35 H 4.66752 1.70962 0.379387 0
M  V30 36 H 5.02492 0.619196 -1.00052 0
M  V30 37 H 3.73417 -2.76845 1.4937 0
M  V30 38 H 2.75866 -1.65619 2.593 0
M  V30 39 H 1.35765 -3.36504 1.37478 0
M  V30 40 H 1.91707 -2.52544 -0.175928 0
M  V30 41 H 0.763118 -1.07832 2.22054 0
M  V30 42 H 0.860217 0.787527 0.918234 0
M  V30 43 H 2.84168 0.989021 -0.135721 0
M  V30 44 H 2.62723 -0.463055 -1.13248 0
M  V30 45 H 0.838151 0.595645 -1.6855 0
M  V30 46 H 0.122618 -1.01215 -1.44574 0
M  V30 47 H -0.0673351 2.49599 -0.620443 0
M  V30 48 H -0.784126 1.99179 0.939217 0
M  V30 49 H -1.82769 2.62846 -0.411733 0
M  V30 50 H -2.27814 1.5883 -2.03622 0
M  V30 51 H -2.17861 -1.15622 -0.747316 0
M  V30 52 H -2.30141 -1.36181 1.73814 0
M  V30 53 H -1.01219 -0.0618211 1.86529 0
M  V30 54 H -2.88681 1.49151 1.98026 0
M  V30 55 H -6.41376 -2.37269 -3.26266 0
M  V30 56 H -6.13923 -0.943669 -4.29541 0
M  V30 57 H -7.66123 1.90472 1.09333 0
M  V30 58 H -8.52434 1.94461 -0.469767 0
M  V30 END ATOM
M  V30 BEGIN BOND
M  V30 1 1 1 2
M  V30 2 2 2 3
M  V30 3 1 2 4
M  V30 4 1 4 5
M  V30 5 1 5 6
M  V30 6 2 6 7
M  V30 7 1 6 8
M  V30 8 1 8 9
M  V30 9 1 9 10
M  V30 10 1 10 11
M  V30 11 1 11 12
M  V30 12 1 12 13
M  V30 13 1 12 14
M  V30 14 1 14 15
M  V30 15 1 15 16
M  V30 16 1 15 17 CFG=3
M  V30 17 1 15 18
M  V30 18 1 18 19
M  V30 19 1 19 20
M  V30 20 1 18 21
M  V30 21 1 21 22
M  V30 22 2 22 23
M  V30 23 1 23 24
M  V30 24 2 24 25
M  V30 25 1 25 26
M  V30 26 2 26 27
M  V30 27 1 27 28
M  V30 28 1 27 29
M  V30 29 2 29 30
M  V30 30 1 30 31
M  V30 31 1 13 8
M  V30 32 1 25 21
M  V30 33 1 20 11
M  V30 34 1 30 24
M  V30 35 1 1 32
M  V30 36 1 4 33
M  V30 37 1 4 34
M  V30 38 1 5 35
M  V30 39 1 5 36
M  V30 40 1 9 37
M  V30 41 1 9 38
M  V30 42 1 10 39
M  V30 43 1 10 40
M  V30 44 1 11 41 CFG=1
M  V30 45 1 12 42 CFG=1
M  V30 46 1 13 43
M  V30 47 1 13 44
M  V30 48 1 14 45
M  V30 49 1 14 46
M  V30 50 1 16 47
M  V30 51 1 16 48
M  V30 52 1 16 49
M  V30 53 1 17 50
M  V30 54 1 18 51 CFG=3
M  V30 55 1 19 52
M  V30 56 1 19 53
M  V30 57 1 22 54
M  V30 58 1 28 55
M  V30 59 1 28 56
M  V30 60 1 31 57
M  V30 61 1 31 58
M  V30 END BOND
M  V30 END CTAB
M  END
