
     RDKit          3D

  0  0  0  0  0  0  0  0  0  0999 V3000
M  V30 BEGIN CTAB
M  V30 COUNTS 26 26 0 0 0
M  V30 BEGIN ATOM
M  V30 1 C 3.81128 1.08472 0.552597 0
M  V30 2 O 2.7823 0.174437 0.688583 0
M  V30 3 C 2.03844 -0.386349 -0.360624 0
M  V30 4 O 2.34455 -0.0300985 -1.51959 0
M  V30 5 C 0.935344 -1.35383 -0.0520767 0
M  V30 6 C -0.380281 -0.763779 -0.352909 0
M  V30 7 C -0.952095 -0.767354 -1.59018 0
M  V30 8 C -0.292991 -1.39605 -2.6757 0
M  V30 9 N 0.224191 -1.9266 -3.57504 0
M  V30 10 C -2.19359 -0.148554 -1.82222 0
M  V30 11 C -2.85252 0.473267 -0.802439 0
M  V30 12 C -2.28965 0.490303 0.469843 0
M  V30 13 C -1.07319 -0.121719 0.677243 0
M  V30 14 N -0.458335 -0.108254 1.93887 0
M  V30 15 N -2.95272 1.12357 1.5357 0
M  V30 16 H 4.78539 0.676633 0.226444 0
M  V30 17 H 3.95777 1.61299 1.54861 0
M  V30 18 H 3.57179 1.93371 -0.150769 0
M  V30 19 H 1.13663 -2.28133 -0.643423 0
M  V30 20 H 1.01217 -1.64921 1.00505 0
M  V30 21 H -2.583 -0.202326 -2.82931 0
M  V30 22 H -3.80553 0.965864 -0.983824 0
M  V30 23 H -0.533155 -0.887428 2.60468 0
M  V30 24 H 0.114478 0.736745 2.19427 0
M  V30 25 H -3.97954 1.18851 1.63485 0
M  V30 26 H -2.36774 1.56213 2.28138 0
M  V30 END ATOM
M  V30 BEGIN BOND
M  V30 1 1 1 2
M  V30 2 1 2 3
M  V30 3 2 3 4
M  V30 4 1 3 5
M  V30 5 1 5 6
M  V30 6 2 6 7
M  V30 7 1 7 8
M  V30 8 3 8 9
M  V30 9 1 7 10
M  V30 10 2 10 11
M  V30 11 1 11 12
M  V30 12 2 12 13
M  V30 13 1 13 14
M  V30 14 1 12 15
M  V30 15 1 13 6
M  V30 16 1 1 16
M  V30 17 1 1 17
M  V30 18 1 1 18
M  V30 19 1 5 19
M  V30 20 1 5 20
M  V30 21 1 10 21
M  V30 22 1 11 22
M  V30 23 1 14 23
M  V30 24 1 14 24
M  V30 25 1 15 25
M  V30 26 1 15 26
M  V30 END BOND
M  V30 END CTAB
M  END
