
     RDKit          3D

  0  0  0  0  0  0  0  0  0  0999 V3000
M  V30 BEGIN CTAB
M  V30 COUNTS 29 30 0 0 0
M  V30 BEGIN ATOM
M  V30 1 O 4.45218 1.73513 -1.39409 0
M  V30 2 N 3.14477 1.36165 -1.18207 0
M  V30 3 C 2.83858 0.400611 -0.389144 0
M  V30 4 C 1.44419 -0.00563091 -0.156272 0
M  V30 5 C 0.399607 0.640114 -0.790012 0
M  V30 6 C -0.898021 0.236799 -0.55171 0
M  V30 7 C -2.04995 0.904897 -1.21311 0
M  V30 8 C -3.07175 1.11919 -0.108121 0
M  V30 9 C -3.60363 -0.165703 0.408042 0
M  V30 10 C -2.59288 -1.25025 0.576532 0
M  V30 11 C -1.20124 -0.80081 0.306534 0
M  V30 12 N -0.150169 -1.399 0.900332 0
M  V30 13 C 1.12476 -1.036 0.694499 0
M  V30 14 N 2.14554 -1.73151 1.36863 0
M  V30 15 N 3.87418 -0.290308 0.282458 0
M  V30 16 H 4.79515 2.53244 -0.866566 0
M  V30 17 H 0.625373 1.47005 -1.47783 0
M  V30 18 H -1.77151 1.85701 -1.68471 0
M  V30 19 H -2.54412 0.20954 -1.94485 0
M  V30 20 H -3.94152 1.71075 -0.508129 0
M  V30 21 H -2.56601 1.74348 0.669841 0
M  V30 22 H -4.38916 -0.531872 -0.307142 0
M  V30 23 H -4.15911 0.0586743 1.36379 0
M  V30 24 H -2.62586 -1.57144 1.64963 0
M  V30 25 H -2.83738 -2.18118 -0.00326762 0
M  V30 26 H 2.56353 -2.58148 0.962293 0
M  V30 27 H 2.47156 -1.37661 2.28058 0
M  V30 28 H 4.19036 0.0969089 1.20694 0
M  V30 29 H 4.3325 -1.15545 -0.093079 0
M  V30 END ATOM
M  V30 BEGIN BOND
M  V30 1 1 1 2
M  V30 2 2 2 3
M  V30 3 1 3 4
M  V30 4 2 4 5
M  V30 5 1 5 6
M  V30 6 1 6 7
M  V30 7 1 7 8
M  V30 8 1 8 9
M  V30 9 1 9 10
M  V30 10 1 10 11
M  V30 11 1 11 12
M  V30 12 2 12 13
M  V30 13 1 13 14
M  V30 14 1 3 15
M  V30 15 1 13 4
M  V30 16 2 11 6
M  V30 17 1 1 16
M  V30 18 1 5 17
M  V30 19 1 7 18
M  V30 20 1 7 19
M  V30 21 1 8 20
M  V30 22 1 8 21
M  V30 23 1 9 22
M  V30 24 1 9 23
M  V30 25 1 10 24
M  V30 26 1 10 25
M  V30 27 1 14 26
M  V30 28 1 14 27
M  V30 29 1 15 28
M  V30 30 1 15 29
M  V30 END BOND
M  V30 END CTAB
M  END
