
     RDKit          3D

  0  0  0  0  0  0  0  0  0  0999 V3000
M  V30 BEGIN CTAB
M  V30 COUNTS 44 46 0 0 0
M  V30 BEGIN ATOM
M  V30 1 O 1.45191 1.6597 -0.200437 0
M  V30 2 C 0.799767 0.89089 0.538041 0
M  V30 3 N -0.393408 0.299463 0.0339084 0
M  V30 4 C -1.11587 -0.589398 0.927786 0
M  V30 5 C -2.02948 -1.47737 0.131912 0
M  V30 6 N -2.77346 -0.568216 -0.759045 0
M  V30 7 C -1.96294 -0.0642359 -1.85738 0
M  V30 8 C -0.772653 0.63594 -1.30166 0
M  V30 9 C -4.1288 -0.223788 -0.535897 0
M  V30 10 C -4.90403 0.401107 -1.48739 0
M  V30 11 C -6.23758 0.743124 -1.23905 0
M  V30 12 C -6.83895 0.471184 -0.0313734 0
M  V30 13 C -6.07315 -0.15376 0.92797 0
M  V30 14 C -4.74876 -0.488883 0.670255 0
M  V30 15 C 1.22267 0.568213 1.92962 0
M  V30 16 S 2.26925 -0.897189 1.91326 0
M  V30 17 C 3.81118 -0.619024 1.10315 0
M  V30 18 N 4.13716 0.557529 0.576503 0
M  V30 19 C 5.30224 0.757599 -0.0325675 0
M  V30 20 N 5.63646 2.02824 -0.59255 0
M  V30 21 C 6.17882 -0.304587 -0.105199 0
M  V30 22 C 5.86296 -1.52139 0.429507 0
M  V30 23 N 4.66865 -1.67778 1.03833 0
M  V30 24 N 6.76092 -2.63663 0.362988 0
M  V30 25 H -1.74851 0.0490283 1.57074 0
M  V30 26 H -0.425134 -1.16562 1.57939 0
M  V30 27 H -1.41486 -2.1587 -0.53516 0
M  V30 28 H -2.70876 -2.09431 0.705648 0
M  V30 29 H -1.57336 -1.00097 -2.36282 0
M  V30 30 H -2.50395 0.48538 -2.61948 0
M  V30 31 H -0.983617 1.74647 -1.29921 0
M  V30 32 H 0.126183 0.540273 -1.97562 0
M  V30 33 H -4.47014 0.631524 -2.45406 0
M  V30 34 H -6.80165 1.228 -2.00875 0
M  V30 35 H -7.87667 0.735972 0.16483 0
M  V30 36 H -6.55331 -0.36354 1.87403 0
M  V30 37 H -4.17096 -0.97788 1.45202 0
M  V30 38 H 0.340773 0.420617 2.59028 0
M  V30 39 H 1.79681 1.42269 2.37167 0
M  V30 40 H 5.67124 2.83218 0.0645457 0
M  V30 41 H 5.84035 2.18471 -1.59091 0
M  V30 42 H 7.14407 -0.184623 -0.595246 0
M  V30 43 H 6.68541 -3.44785 0.998746 0
M  V30 44 H 7.50316 -2.58361 -0.371337 0
M  V30 END ATOM
M  V30 BEGIN BOND
M  V30 1 2 1 2
M  V30 2 1 2 3
M  V30 3 1 3 4
M  V30 4 1 4 5
M  V30 5 1 5 6
M  V30 6 1 6 7
M  V30 7 1 7 8
M  V30 8 1 6 9
M  V30 9 2 9 10
M  V30 10 1 10 11
M  V30 11 2 11 12
M  V30 12 1 12 13
M  V30 13 2 13 14
M  V30 14 1 2 15
M  V30 15 1 15 16
M  V30 16 1 16 17
M  V30 17 2 17 18
M  V30 18 1 18 19
M  V30 19 1 19 20
M  V30 20 2 19 21
M  V30 21 1 21 22
M  V30 22 2 22 23
M  V30 23 1 22 24
M  V30 24 1 8 3
M  V30 25 1 14 9
M  V30 26 1 23 17
M  V30 27 1 4 25
M  V30 28 1 4 26
M  V30 29 1 5 27
M  V30 30 1 5 28
M  V30 31 1 7 29
M  V30 32 1 7 30
M  V30 33 1 8 31
M  V30 34 1 8 32
M  V30 35 1 10 33
M  V30 36 1 11 34
M  V30 37 1 12 35
M  V30 38 1 13 36
M  V30 39 1 14 37
M  V30 40 1 15 38
M  V30 41 1 15 39
M  V30 42 1 20 40
M  V30 43 1 20 41
M  V30 44 1 21 42
M  V30 45 1 24 43
M  V30 46 1 24 44
M  V30 END BOND
M  V30 END CTAB
M  END
