
     RDKit          3D

  0  0  0  0  0  0  0  0  0  0999 V3000
M  V30 BEGIN CTAB
M  V30 COUNTS 26 27 0 0 0
M  V30 BEGIN ATOM
M  V30 1 N -3.42969 -1.54246 -0.771212 0
M  V30 2 C -2.10663 -1.04797 -0.533686 0
M  V30 3 C -1.01464 -1.82104 -0.86989 0
M  V30 4 C 0.280395 -1.39593 -0.663928 0
M  V30 5 C 0.497319 -0.154013 -0.101899 0
M  V30 6 C -0.605834 0.615058 0.232378 0
M  V30 7 C -0.361173 1.85027 0.791735 0
M  V30 8 C 0.920457 2.3072 1.01193 0
M  V30 9 C 1.98287 1.50609 0.662753 0
M  V30 10 C 1.80069 0.260604 0.0994591 0
M  V30 11 S 3.15829 -0.767595 -0.348817 0
M  V30 12 O 4.57318 0.0808279 0.049403 0
M  V30 13 O 3.21044 -1.00634 -1.82345 0
M  V30 14 O 3.18475 -2.03082 0.451012 0
M  V30 15 C -1.89469 0.187403 0.0253356 0
M  V30 16 N -3.02166 0.969683 0.365276 0
M  V30 17 H -4.21324 -0.864112 -0.883595 0
M  V30 18 H -3.62539 -2.55441 -0.833689 0
M  V30 19 H -1.16111 -2.80376 -1.31433 0
M  V30 20 H 1.14383 -2.00398 -0.92829 0
M  V30 21 H -1.20831 2.4644 1.05904 0
M  V30 22 H 1.09716 3.2878 1.45579 0
M  V30 23 H 3.00675 1.823 0.816964 0
M  V30 24 H 4.67602 0.148995 1.02777 0
M  V30 25 H -3.56344 0.701603 1.21271 0
M  V30 26 H -3.32634 1.78948 -0.188765 0
M  V30 END ATOM
M  V30 BEGIN BOND
M  V30 1 1 1 2
M  V30 2 2 2 3
M  V30 3 1 3 4
M  V30 4 2 4 5
M  V30 5 1 5 6
M  V30 6 1 6 7
M  V30 7 2 7 8
M  V30 8 1 8 9
M  V30 9 2 9 10
M  V30 10 1 10 11
M  V30 11 1 11 12
M  V30 12 2 11 13
M  V30 13 2 11 14
M  V30 14 2 6 15
M  V30 15 1 15 16
M  V30 16 1 15 2
M  V30 17 1 10 5
M  V30 18 1 1 17
M  V30 19 1 1 18
M  V30 20 1 3 19
M  V30 21 1 4 20
M  V30 22 1 7 21
M  V30 23 1 8 22
M  V30 24 1 9 23
M  V30 25 1 12 24
M  V30 26 1 16 25
M  V30 27 1 16 26
M  V30 END BOND
M  V30 END CTAB
M  END
