
     RDKit          3D

  0  0  0  0  0  0  0  0  0  0999 V3000
M  V30 BEGIN CTAB
M  V30 COUNTS 28 30 0 0 0
M  V30 BEGIN ATOM
M  V30 1 N -4.98668 -0.350621 -0.383421 0
M  V30 2 C -3.64719 0.092084 -0.160862 0
M  V30 3 C -3.36724 1.40052 0.16236 0
M  V30 4 C -2.08733 1.84305 0.379467 0
M  V30 5 C -1.02629 0.955887 0.274068 0
M  V30 6 C 0.271199 1.3347 0.47827 0
M  V30 7 O 0.534004 2.5261 0.773297 0
M  V30 8 C 1.29398 0.425781 0.364439 0
M  V30 9 C 0.982765 -0.879517 0.0390896 0
M  V30 10 N -0.282671 -1.28349 -0.167926 0
M  V30 11 C -1.28269 -0.360047 -0.0487201 0
M  V30 12 C -2.58995 -0.776463 -0.262371 0
M  V30 13 C 2.01356 -1.79663 -0.0758746 0
M  V30 14 C 3.32842 -1.4181 0.129846 0
M  V30 15 C 3.6596 -0.11872 0.455668 0
M  V30 16 N 5.02224 0.230177 0.658995 0
M  V30 17 C 2.62921 0.790549 0.568882 0
M  V30 18 H -5.37685 -0.527049 -1.31578 0
M  V30 19 H -5.59235 -0.499574 0.451825 0
M  V30 20 H -4.20824 2.09366 0.243613 0
M  V30 21 H -1.85393 2.86061 0.632269 0
M  V30 22 H -0.534858 -2.26562 -0.414362 0
M  V30 23 H -2.80454 -1.81993 -0.519345 0
M  V30 24 H 1.81079 -2.8412 -0.332022 0
M  V30 25 H 4.13371 -2.14804 0.0369747 0
M  V30 26 H 5.60108 0.576318 -0.135151 0
M  V30 27 H 5.47527 0.151527 1.59246 0
M  V30 28 H 2.88499 1.80403 0.822781 0
M  V30 END ATOM
M  V30 BEGIN BOND
M  V30 1 1 1 2
M  V30 2 2 2 3
M  V30 3 1 3 4
M  V30 4 2 4 5
M  V30 5 1 5 6
M  V30 6 2 6 7
M  V30 7 1 6 8
M  V30 8 2 8 9
M  V30 9 1 9 10
M  V30 10 1 10 11
M  V30 11 2 11 12
M  V30 12 1 9 13
M  V30 13 2 13 14
M  V30 14 1 14 15
M  V30 15 1 15 16
M  V30 16 2 15 17
M  V30 17 1 12 2
M  V30 18 1 11 5
M  V30 19 1 17 8
M  V30 20 1 1 18
M  V30 21 1 1 19
M  V30 22 1 3 20
M  V30 23 1 4 21
M  V30 24 1 10 22
M  V30 25 1 12 23
M  V30 26 1 13 24
M  V30 27 1 14 25
M  V30 28 1 16 26
M  V30 29 1 16 27
M  V30 30 1 17 28
M  V30 END BOND
M  V30 END CTAB
M  END
