
     RDKit          3D

  0  0  0  0  0  0  0  0  0  0999 V3000
M  V30 BEGIN CTAB
M  V30 COUNTS 94 98 0 0 0
M  V30 BEGIN ATOM
M  V30 1 N -5.46861 -2.35714 0.945331 0
M  V30 2 C -4.87121 -3.49281 1.42564 0
M  V30 3 C -3.38493 -3.65424 1.29603 0
M  V30 4 C -2.79734 -3.629 -0.0332473 0
M  V30 5 C -2.70865 -2.44043 -0.888766 0
M  V30 6 C -1.83561 -1.32014 -0.452503 0 CFG=2
M  V30 7 N -0.462713 -1.81315 -0.237404 0
M  V30 8 C 0.678252 -1.2741 -0.854588 0
M  V30 9 O 0.562182 -0.308582 -1.63033 0
M  V30 10 C 1.99968 -1.84012 -0.587698 0 CFG=1
M  V30 11 C 2.40156 -2.89211 -1.6086 0
M  V30 12 C 1.54335 -4.05806 -1.704 0
M  V30 13 C 0.494855 -4.05493 -2.61341 0
M  V30 14 C -0.316912 -5.15993 -2.74651 0
M  V30 15 Br -1.74647 -5.14184 -4.01072 0
M  V30 16 C -0.125175 -6.29167 -1.99521 0
M  V30 17 N -0.953088 -7.44807 -2.12885 0
M  V30 18 C 0.909518 -6.31706 -1.08369 0
M  V30 19 Br 1.19521 -7.88636 -0.0273753 0
M  V30 20 C 1.71496 -5.20965 -0.958701 0
M  V30 21 N 2.99449 -0.776275 -0.785448 0
M  V30 22 C 3.99772 -0.571975 0.19981 0
M  V30 23 O 4.00795 -1.3305 1.24499 0
M  V30 24 N 5.01233 0.410744 0.134604 0
M  V30 25 C 5.97958 0.47981 1.21139 0
M  V30 26 C 6.11352 1.87821 1.77372 0
M  V30 27 N 6.11955 2.86727 0.719448 0
M  V30 28 C 5.44411 2.71906 -0.529158 0
M  V30 29 C 5.12169 1.32915 -0.950788 0
M  V30 30 C 6.85168 4.06307 0.947541 0
M  V30 31 C 7.89038 4.35052 0.0896132 0
M  V30 32 C 8.64231 5.50296 0.261605 0
M  V30 33 C 8.39185 6.3967 1.27783 0
M  V30 34 C 7.34939 6.11055 2.14098 0
M  V30 35 C 6.60371 4.95151 1.95652 0
M  V30 36 Cl 5.30135 4.64293 3.06582 0
M  V30 37 C -2.25988 -0.415927 0.594779 0
M  V30 38 O -1.61993 -0.443967 1.68452 0
M  V30 39 N -3.34298 0.524192 0.514845 0
M  V30 40 C -4.05007 0.641206 -0.726026 0
M  V30 41 C -4.45888 2.07556 -1.01797 0
M  V30 42 N -4.75827 2.80182 0.172013 0
M  V30 43 C -3.81119 2.76534 1.26159 0
M  V30 44 C -3.69659 1.29749 1.66448 0
M  V30 45 C -5.96588 3.5253 0.287609 0
M  V30 46 C -7.08599 3.21258 -0.453049 0
M  V30 47 C -8.28123 3.9197 -0.376874 0
M  V30 48 N -8.34613 4.95575 0.459226 0
M  V30 49 C -7.27753 5.29353 1.1995 0
M  V30 50 C -6.07756 4.60433 1.13935 0
M  V30 51 H -6.13244 -2.37009 0.222302 0
M  V30 52 H -5.57736 -1.58925 1.57304 0
M  V30 53 H -5.16424 -3.56422 2.52904 0
M  V30 54 H -5.36969 -4.4341 1.00738 0
M  V30 55 H -2.94143 -2.91911 2.02105 0
M  V30 56 H -3.17871 -4.6711 1.79699 0
M  V30 57 H -3.40669 -4.39373 -0.659245 0
M  V30 58 H -1.80657 -4.19006 0.0221042 0
M  V30 59 H -2.44083 -2.70117 -1.93285 0
M  V30 60 H -3.75778 -2.02021 -0.9858 0
M  V30 61 H -1.68581 -0.660298 -1.38227 0
M  V30 62 H -0.370057 -2.60584 0.416024 0
M  V30 63 H 2.15471 -2.22326 0.44481 0
M  V30 64 H 2.48094 -2.32397 -2.58351 0
M  V30 65 H 3.44946 -3.21946 -1.36066 0
M  V30 66 H 0.291074 -3.19348 -3.23415 0
M  V30 67 H -0.542209 -8.38044 -1.927 0
M  V30 68 H -1.94395 -7.39805 -2.41742 0
M  V30 69 H 2.51975 -5.21731 -0.257293 0
M  V30 70 H 2.96572 -0.19152 -1.6234 0
M  V30 71 H 5.77527 -0.254505 2.01082 0
M  V30 72 H 6.97555 0.208689 0.769109 0
M  V30 73 H 5.22282 2.04691 2.40022 0
M  V30 74 H 7.01331 2.00125 2.38017 0
M  V30 75 H 6.10992 3.1629 -1.31305 0
M  V30 76 H 4.48688 3.29271 -0.448584 0
M  V30 77 H 4.19832 1.37515 -1.59539 0
M  V30 78 H 5.91234 0.948311 -1.66651 0
M  V30 79 H 8.1576 3.71332 -0.73026 0
M  V30 80 H 9.46896 5.72358 -0.428621 0
M  V30 81 H 9.0042 7.28619 1.37799 0
M  V30 82 H 7.14743 6.80478 2.93878 0
M  V30 83 H -3.41508 0.278046 -1.55317 0
M  V30 84 H -4.99298 0.0606411 -0.766488 0
M  V30 85 H -5.19438 2.17135 -1.82314 0
M  V30 86 H -3.51738 2.5498 -1.43628 0
M  V30 87 H -2.81684 3.13025 0.869268 0
M  V30 88 H -4.11308 3.3529 2.12789 0
M  V30 89 H -4.75015 1.00091 1.92373 0
M  V30 90 H -3.02138 1.15211 2.51747 0
M  V30 91 H -7.02555 2.35341 -1.13094 0
M  V30 92 H -9.13761 3.63107 -0.984415 0
M  V30 93 H -7.3966 6.14395 1.85684 0
M  V30 94 H -5.2538 4.94168 1.76756 0
M  V30 END ATOM
M  V30 BEGIN BOND
M  V30 1 1 1 2
M  V30 2 1 2 3
M  V30 3 1 3 4
M  V30 4 1 4 5
M  V30 5 1 5 6
M  V30 6 1 6 7
M  V30 7 1 7 8
M  V30 8 2 8 9
M  V30 9 1 8 10
M  V30 10 1 10 11
M  V30 11 1 11 12
M  V30 12 2 12 13
M  V30 13 1 13 14
M  V30 14 1 14 15
M  V30 15 2 14 16
M  V30 16 1 16 17
M  V30 17 1 16 18
M  V30 18 1 18 19
M  V30 19 2 18 20
M  V30 20 1 10 21
M  V30 21 1 21 22
M  V30 22 2 22 23
M  V30 23 1 22 24
M  V30 24 1 24 25
M  V30 25 1 25 26
M  V30 26 1 26 27
M  V30 27 1 27 28
M  V30 28 1 28 29
M  V30 29 1 27 30
M  V30 30 2 30 31
M  V30 31 1 31 32
M  V30 32 2 32 33
M  V30 33 1 33 34
M  V30 34 2 34 35
M  V30 35 1 35 36
M  V30 36 1 6 37
M  V30 37 2 37 38
M  V30 38 1 37 39
M  V30 39 1 39 40
M  V30 40 1 40 41
M  V30 41 1 41 42
M  V30 42 1 42 43
M  V30 43 1 43 44
M  V30 44 1 42 45
M  V30 45 2 45 46
M  V30 46 1 46 47
M  V30 47 2 47 48
M  V30 48 1 48 49
M  V30 49 2 49 50
M  V30 50 1 20 12
M  V30 51 1 29 24
M  V30 52 1 35 30
M  V30 53 1 44 39
M  V30 54 1 50 45
M  V30 55 1 1 51
M  V30 56 1 1 52
M  V30 57 1 2 53
M  V30 58 1 2 54
M  V30 59 1 3 55
M  V30 60 1 3 56
M  V30 61 1 4 57
M  V30 62 1 4 58
M  V30 63 1 5 59
M  V30 64 1 5 60
M  V30 65 1 6 61 CFG=3
M  V30 66 1 7 62
M  V30 67 1 10 63 CFG=1
M  V30 68 1 11 64
M  V30 69 1 11 65
M  V30 70 1 13 66
M  V30 71 1 17 67
M  V30 72 1 17 68
M  V30 73 1 20 69
M  V30 74 1 21 70
M  V30 75 1 25 71
M  V30 76 1 25 72
M  V30 77 1 26 73
M  V30 78 1 26 74
M  V30 79 1 28 75
M  V30 80 1 28 76
M  V30 81 1 29 77
M  V30 82 1 29 78
M  V30 83 1 31 79
M  V30 84 1 32 80
M  V30 85 1 33 81
M  V30 86 1 34 82
M  V30 87 1 40 83
M  V30 88 1 40 84
M  V30 89 1 41 85
M  V30 90 1 41 86
M  V30 91 1 43 87
M  V30 92 1 43 88
M  V30 93 1 44 89
M  V30 94 1 44 90
M  V30 95 1 46 91
M  V30 96 1 47 92
M  V30 97 1 49 93
M  V30 98 1 50 94
M  V30 END BOND
M  V30 END CTAB
M  END
