
     RDKit          3D

  0  0  0  0  0  0  0  0  0  0999 V3000
M  V30 BEGIN CTAB
M  V30 COUNTS 47 50 0 0 0
M  V30 BEGIN ATOM
M  V30 1 N 6.26682 2.14067 1.64586 0
M  V30 2 C 5.4973 1.08419 1.05692 0
M  V30 3 N 4.14696 1.1622 1.0099 0
M  V30 4 C 3.35866 0.232276 0.46349 0
M  V30 5 N 1.96393 0.361423 0.413699 0
M  V30 6 C 1.03617 -0.663125 0.85684 0
M  V30 7 C 0.0653376 -1.05451 -0.212711 0
M  V30 8 C -0.302928 -0.0121335 -1.20228 0
M  V30 9 C 0.639072 1.11137 -1.38041 0
M  V30 10 C 1.30707 1.56936 -0.0983119 0
M  V30 11 N -1.62563 0.548046 -0.862477 0
M  V30 12 N -2.0258 1.79449 -0.872766 0
M  V30 13 N -3.29686 1.89332 -0.470043 0
M  V30 14 C -3.75242 0.668896 -0.185353 0
M  V30 15 C -2.68039 -0.182442 -0.440536 0
M  V30 16 C -5.07352 0.214072 0.311479 0
M  V30 17 N -4.88036 -0.206467 1.71464 0
M  V30 18 C -6.1042 1.28791 0.285447 0
M  V30 19 C -5.47266 -1.01206 -0.47275 0
M  V30 20 C 3.981 -0.885971 -0.0866194 0
M  V30 21 C 5.36191 -0.998306 -0.0537313 0
M  V30 22 N 6.0677 -0.0129544 0.513898 0
M  V30 23 N 5.64886 -2.16802 -0.657206 0
M  V30 24 C 4.52236 -2.7788 -1.05764 0
M  V30 25 N 3.51357 -1.96379 -0.691352 0
M  V30 26 H 6.13969 3.14173 1.41413 0
M  V30 27 H 6.97292 1.87494 2.35075 0
M  V30 28 H 1.67101 -1.51969 1.18444 0
M  V30 29 H 0.533733 -0.276541 1.75822 0
M  V30 30 H -0.861326 -1.36682 0.321296 0
M  V30 31 H 0.437035 -1.98886 -0.687461 0
M  V30 32 H -0.442918 -0.502279 -2.18421 0
M  V30 33 H 1.47242 0.808724 -2.05828 0
M  V30 34 H 0.135664 1.97436 -1.87013 0
M  V30 35 H 0.51271 1.81044 0.633349 0
M  V30 36 H 1.99356 2.38032 -0.324546 0
M  V30 37 H -2.72177 -1.26212 -0.310059 0
M  V30 38 H -5.47446 -1.04093 1.95454 0
M  V30 39 H -3.89243 -0.558388 1.75483 0
M  V30 40 H -7.04383 0.877132 0.725095 0
M  V30 41 H -6.30667 1.6118 -0.743383 0
M  V30 42 H -5.79199 2.11845 0.949173 0
M  V30 43 H -4.67924 -1.77398 -0.290639 0
M  V30 44 H -5.4257 -0.747547 -1.55501 0
M  V30 45 H -6.46792 -1.39551 -0.187001 0
M  V30 46 H 6.62731 -2.54994 -0.785509 0
M  V30 47 H 4.45027 -3.74494 -1.5776 0
M  V30 END ATOM
M  V30 BEGIN BOND
M  V30 1 1 1 2
M  V30 2 2 2 3
M  V30 3 1 3 4
M  V30 4 1 4 5
M  V30 5 1 5 6
M  V30 6 1 6 7
M  V30 7 1 7 8
M  V30 8 1 8 9
M  V30 9 1 9 10
M  V30 10 1 8 11
M  V30 11 1 11 12
M  V30 12 2 12 13
M  V30 13 1 13 14
M  V30 14 2 14 15
M  V30 15 1 14 16
M  V30 16 1 16 17
M  V30 17 1 16 18
M  V30 18 1 16 19
M  V30 19 2 4 20
M  V30 20 1 20 21
M  V30 21 2 21 22
M  V30 22 1 21 23
M  V30 23 1 23 24
M  V30 24 2 24 25
M  V30 25 1 22 2
M  V30 26 1 10 5
M  V30 27 1 15 11
M  V30 28 1 25 20
M  V30 29 1 1 26
M  V30 30 1 1 27
M  V30 31 1 6 28
M  V30 32 1 6 29
M  V30 33 1 7 30
M  V30 34 1 7 31
M  V30 35 1 8 32
M  V30 36 1 9 33
M  V30 37 1 9 34
M  V30 38 1 10 35
M  V30 39 1 10 36
M  V30 40 1 15 37
M  V30 41 1 17 38
M  V30 42 1 17 39
M  V30 43 1 18 40
M  V30 44 1 18 41
M  V30 45 1 18 42
M  V30 46 1 19 43
M  V30 47 1 19 44
M  V30 48 1 19 45
M  V30 49 1 23 46
M  V30 50 1 24 47
M  V30 END BOND
M  V30 END CTAB
M  END
