
     RDKit          3D

  0  0  0  0  0  0  0  0  0  0999 V3000
M  V30 BEGIN CTAB
M  V30 COUNTS 25 26 0 0 0
M  V30 BEGIN ATOM
M  V30 1 N 0.471371 3.11865 1.10114 0
M  V30 2 C -0.124985 2.25102 0.625391 0
M  V30 3 C -0.875333 1.14 0.0292354 0
M  V30 4 C -2.18839 1.21078 0.107562 0
M  V30 5 N -2.88582 2.28753 0.725517 0
M  V30 6 S -3.09883 -0.183245 -0.61368 0
M  V30 7 C -1.96794 -1.58026 -0.274518 0
M  V30 8 C -0.669008 -1.32765 -0.316001 0
M  V30 9 C -0.198384 0.0314952 -0.627241 0
M  V30 10 C 1.26847 0.157506 -0.284203 0
M  V30 11 C 2.3351 0.325307 -1.09775 0
M  V30 12 C 3.54546 0.409394 -0.537503 0
M  V30 13 C 3.61788 0.319369 0.822269 0
M  V30 14 S 1.97332 0.117534 1.28308 0
M  V30 15 Br 5.18578 0.399888 1.9448 0
M  V30 16 C 0.284735 -2.35098 -0.0640376 0
M  V30 17 N 1.04312 -3.19358 0.144991 0
M  V30 18 N -2.50096 -2.85399 0.0140955 0
M  V30 19 H -3.52304 2.83888 0.107981 0
M  V30 20 H -2.73964 2.47487 1.72497 0
M  V30 21 H -0.231461 0.10868 -1.74913 0
M  V30 22 H 2.18339 0.388395 -2.19485 0
M  V30 23 H 4.48755 0.546916 -1.10685 0
M  V30 24 H -2.28713 -3.32263 0.933389 0
M  V30 25 H -3.10526 -3.31387 -0.698638 0
M  V30 END ATOM
M  V30 BEGIN BOND
M  V30 1 3 1 2
M  V30 2 1 2 3
M  V30 3 2 3 4
M  V30 4 1 4 5
M  V30 5 1 4 6
M  V30 6 1 6 7
M  V30 7 2 7 8
M  V30 8 1 8 9
M  V30 9 1 9 10
M  V30 10 2 10 11
M  V30 11 1 11 12
M  V30 12 2 12 13
M  V30 13 1 13 14
M  V30 14 1 13 15
M  V30 15 1 8 16
M  V30 16 3 16 17
M  V30 17 1 7 18
M  V30 18 1 9 3
M  V30 19 1 14 10
M  V30 20 1 5 19
M  V30 21 1 5 20
M  V30 22 1 9 21
M  V30 23 1 11 22
M  V30 24 1 12 23
M  V30 25 1 18 24
M  V30 26 1 18 25
M  V30 END BOND
M  V30 END CTAB
M  END
