
     RDKit          3D

  0  0  0  0  0  0  0  0  0  0999 V3000
M  V30 BEGIN CTAB
M  V30 COUNTS 29 29 0 0 0
M  V30 BEGIN ATOM
M  V30 1 N 4.06881 0.940445 -0.134158 0
M  V30 2 N 3.51714 0.598726 1.10268 0
M  V30 3 C 2.27359 0.245731 1.11621 0
M  V30 4 N 1.48453 0.201954 -0.0733339 0
M  V30 5 C 0.428247 -0.758099 -0.259695 0
M  V30 6 C -0.204905 -0.540615 -1.60822 0
M  V30 7 C -1.21978 0.578901 -1.47289 0
M  V30 8 N -2.41046 0.138475 -0.795716 0
M  V30 9 C -2.03198 -0.893619 0.140272 0
M  V30 10 C -0.673256 -0.600562 0.782465 0
M  V30 11 C -3.05725 1.24257 -0.142258 0
M  V30 12 N 1.73583 -0.0952945 2.37451 0
M  V30 13 H 4.82894 0.32598 -0.523259 0
M  V30 14 H 3.7004 1.78409 -0.606943 0
M  V30 15 H 1.71862 0.912113 -0.807872 0
M  V30 16 H 0.766675 -1.80456 -0.216481 0
M  V30 17 H 0.583547 -0.187221 -2.31223 0
M  V30 18 H -0.649801 -1.46463 -2.02768 0
M  V30 19 H -1.45175 1.01337 -2.48208 0
M  V30 20 H -0.720074 1.39596 -0.908443 0
M  V30 21 H -2.76486 -1.00336 0.956453 0
M  V30 22 H -1.99189 -1.8492 -0.450565 0
M  V30 23 H -0.566612 -1.3081 1.60824 0
M  V30 24 H -0.702396 0.460934 1.09121 0
M  V30 25 H -4.05679 0.947172 0.213824 0
M  V30 26 H -3.22843 2.03302 -0.924331 0
M  V30 27 H -2.45845 1.63748 0.701325 0
M  V30 28 H 1.19103 0.599942 2.9004 0
M  V30 29 H 1.89131 -1.03594 2.75855 0
M  V30 END ATOM
M  V30 BEGIN BOND
M  V30 1 1 1 2
M  V30 2 2 2 3 CFG=2
M  V30 3 1 3 4
M  V30 4 1 4 5
M  V30 5 1 5 6
M  V30 6 1 6 7
M  V30 7 1 7 8
M  V30 8 1 8 9
M  V30 9 1 9 10
M  V30 10 1 8 11
M  V30 11 1 3 12
M  V30 12 1 10 5
M  V30 13 1 1 13
M  V30 14 1 1 14
M  V30 15 1 4 15
M  V30 16 1 5 16
M  V30 17 1 6 17
M  V30 18 1 6 18
M  V30 19 1 7 19
M  V30 20 1 7 20
M  V30 21 1 9 21
M  V30 22 1 9 22
M  V30 23 1 10 23
M  V30 24 1 10 24
M  V30 25 1 11 25
M  V30 26 1 11 26
M  V30 27 1 11 27
M  V30 28 1 12 28
M  V30 29 1 12 29
M  V30 END BOND
M  V30 END CTAB
M  END
