
     RDKit          3D

  0  0  0  0  0  0  0  0  0  0999 V3000
M  V30 BEGIN CTAB
M  V30 COUNTS 34 35 0 0 0
M  V30 BEGIN ATOM
M  V30 1 N -2.38869 4.00416 -1.07646 0
M  V30 2 N -1.74873 2.7398 -0.993282 0
M  V30 3 C -2.46887 1.63938 -0.511576 0
M  V30 4 O -3.71812 1.83786 -0.156419 0
M  V30 5 C -2.02283 0.28086 -0.344824 0
M  V30 6 C -2.90725 -0.678275 0.157679 0
M  V30 7 C -2.53768 -1.99288 0.339131 0
M  V30 8 N -3.45766 -2.94299 0.851426 0
M  V30 9 C -1.26162 -2.4016 0.0227226 0
M  V30 10 C -0.364913 -1.48749 -0.473887 0
M  V30 11 C -0.752364 -0.149962 -0.653955 0
M  V30 12 O 0.187399 0.715462 -1.1553 0
M  V30 13 C 1.48893 0.539572 -1.51344 0
M  V30 14 C 2.34662 0.14726 -0.353935 0
M  V30 15 C 1.96475 0.47648 0.923076 0
M  V30 16 C 2.70943 0.147262 2.03174 0
M  V30 17 C 3.88162 -0.538504 1.84897 0
M  V30 18 C 4.29294 -0.88395 0.578839 0
M  V30 19 C 3.52565 -0.542149 -0.53362 0
M  V30 20 F 4.61696 -0.865141 2.92579 0
M  V30 21 H -3.07011 4.12201 -0.281433 0
M  V30 22 H -1.70263 4.78516 -0.987796 0
M  V30 23 H -0.788255 2.72993 -1.29881 0
M  V30 24 H -3.93384 -0.443935 0.43344 0
M  V30 25 H -3.98347 -2.75081 1.72577 0
M  V30 26 H -3.59034 -3.83622 0.327156 0
M  V30 27 H -0.926891 -3.4391 0.152103 0
M  V30 28 H 0.644224 -1.77191 -0.751499 0
M  V30 29 H 1.90546 1.53636 -1.84568 0
M  V30 30 H 1.59564 -0.187048 -2.34768 0
M  V30 31 H 1.01689 1.02672 1.02163 0
M  V30 32 H 2.36649 0.429204 3.02075 0
M  V30 33 H 5.22111 -1.42535 0.452702 0
M  V30 34 H 3.86014 -0.820185 -1.53332 0
M  V30 END ATOM
M  V30 BEGIN BOND
M  V30 1 1 1 2
M  V30 2 1 2 3
M  V30 3 2 3 4
M  V30 4 1 3 5
M  V30 5 2 5 6
M  V30 6 1 6 7
M  V30 7 1 7 8
M  V30 8 2 7 9
M  V30 9 1 9 10
M  V30 10 2 10 11
M  V30 11 1 11 12
M  V30 12 1 12 13
M  V30 13 1 13 14
M  V30 14 2 14 15
M  V30 15 1 15 16
M  V30 16 2 16 17
M  V30 17 1 17 18
M  V30 18 2 18 19
M  V30 19 1 17 20
M  V30 20 1 11 5
M  V30 21 1 19 14
M  V30 22 1 1 21
M  V30 23 1 1 22
M  V30 24 1 2 23
M  V30 25 1 6 24
M  V30 26 1 8 25
M  V30 27 1 8 26
M  V30 28 1 9 27
M  V30 29 1 10 28
M  V30 30 1 13 29
M  V30 31 1 13 30
M  V30 32 1 15 31
M  V30 33 1 16 32
M  V30 34 1 18 33
M  V30 35 1 19 34
M  V30 END BOND
M  V30 END CTAB
M  END
