
     RDKit          3D

  0  0  0  0  0  0  0  0  0  0999 V3000
M  V30 BEGIN CTAB
M  V30 COUNTS 26 27 0 0 0
M  V30 BEGIN ATOM
M  V30 1 C 1.31144 2.14915 0.0780041 0
M  V30 2 C 1.07013 0.764607 -0.486435 0
M  V30 3 C -0.349521 0.338447 -0.239152 0
M  V30 4 N -1.20103 0.0544901 -1.20772 0
M  V30 5 C -2.48617 -0.330699 -0.960555 0
M  V30 6 N -3.38242 -0.630468 -2.01534 0
M  V30 7 N -2.85795 -0.411202 0.329494 0
M  V30 8 C -2.00856 -0.12706 1.33065 0
M  V30 9 N -0.732141 0.254261 1.03589 0
M  V30 10 N -2.36933 -0.202362 2.69346 0
M  V30 11 C 1.97555 -0.189714 0.208007 0
M  V30 12 C 2.01139 -1.6338 -0.0915255 0
M  V30 13 C 3.08735 -0.755065 -0.688389 0
M  V30 14 H 2.08228 2.70164 -0.478124 0
M  V30 15 H 1.6891 2.0882 1.13948 0
M  V30 16 H 0.369572 2.7338 0.142373 0
M  V30 17 H 1.20504 0.777912 -1.58438 0
M  V30 18 H -4.22919 -0.0400197 -2.12657 0
M  V30 19 H -3.21429 -1.41468 -2.66915 0
M  V30 20 H -2.66949 0.647832 3.18737 0
M  V30 21 H -2.32794 -1.10776 3.17788 0
M  V30 22 H 2.27575 0.132137 1.24478 0
M  V30 23 H 1.26941 -2.12113 -0.747578 0
M  V30 24 H 2.37775 -2.29158 0.722887 0
M  V30 25 H 4.09727 -0.768389 -0.229148 0
M  V30 26 H 3.00601 -0.618551 -1.76621 0
M  V30 END ATOM
M  V30 BEGIN BOND
M  V30 1 1 1 2
M  V30 2 1 2 3
M  V30 3 2 3 4
M  V30 4 1 4 5
M  V30 5 1 5 6
M  V30 6 2 5 7
M  V30 7 1 7 8
M  V30 8 2 8 9
M  V30 9 1 8 10
M  V30 10 1 2 11
M  V30 11 1 11 12
M  V30 12 1 12 13
M  V30 13 1 9 3
M  V30 14 1 13 11
M  V30 15 1 1 14
M  V30 16 1 1 15
M  V30 17 1 1 16
M  V30 18 1 2 17
M  V30 19 1 6 18
M  V30 20 1 6 19
M  V30 21 1 10 20
M  V30 22 1 10 21
M  V30 23 1 11 22
M  V30 24 1 12 23
M  V30 25 1 12 24
M  V30 26 1 13 25
M  V30 27 1 13 26
M  V30 END BOND
M  V30 END CTAB
M  END
