
     RDKit          3D

  0  0  0  0  0  0  0  0  0  0999 V3000
M  V30 BEGIN CTAB
M  V30 COUNTS 44 46 0 0 0
M  V30 BEGIN ATOM
M  V30 1 N 7.55942 0.52157 -1.67519 0
M  V30 2 C 7.45832 0.249996 -0.267681 0
M  V30 3 N 8.52473 0.192668 0.458958 0
M  V30 4 C 6.12264 0.0490105 0.276071 0
M  V30 5 C 5.9098 -0.217119 1.61001 0
M  V30 6 C 4.62374 -0.40882 2.12393 0
M  V30 7 C 3.55529 -0.325077 1.25616 0
M  V30 8 O 2.24759 -0.51165 1.73421 0
M  V30 9 C 1.17042 -0.431082 0.87976 0
M  V30 10 C 0.656144 -1.50693 0.195708 0
M  V30 11 C -0.424525 -1.34969 -0.642569 0
M  V30 12 C -1.02748 -0.113822 -0.825782 0
M  V30 13 O -2.11036 0.0908002 -1.65412 0
M  V30 14 C -3.41163 -0.0249993 -1.18757 0
M  V30 15 C -4.0381 -1.26228 -1.25511 0
M  V30 16 C -5.33047 -1.41602 -0.801324 0
M  V30 17 C -6.03203 -0.351879 -0.271224 0
M  V30 18 C -5.367 0.871717 -0.221735 0
M  V30 19 C -4.0864 1.06135 -0.662164 0
M  V30 20 C -7.39742 -0.498102 0.212195 0
M  V30 21 N -8.08592 0.609192 0.748001 0
M  V30 22 N -7.95818 -1.64336 0.142388 0
M  V30 23 C -0.506953 0.956908 -0.137924 0
M  V30 24 C 0.57512 0.808299 0.703631 0
M  V30 25 C 3.74013 -0.0599762 -0.083353 0
M  V30 26 C 5.01441 0.125792 -0.5703 0
M  V30 27 H 8.17533 -0.0800172 -2.23372 0
M  V30 28 H 7.00695 1.30703 -2.04774 0
M  V30 29 H 8.45642 0.00127802 1.45211 0
M  V30 30 H 6.70266 -0.294496 2.33513 0
M  V30 31 H 4.468 -0.618634 3.18033 0
M  V30 32 H 1.08998 -2.47776 0.307312 0
M  V30 33 H -0.826271 -2.20584 -1.18084 0
M  V30 34 H -3.54559 -2.13571 -1.65851 0
M  V30 35 H -5.82291 -2.39311 -0.855532 0
M  V30 36 H -5.91068 1.72279 0.195605 0
M  V30 37 H -3.598 2.03716 -0.60673 0
M  V30 38 H -7.61915 1.20266 1.45191 0
M  V30 39 H -9.04988 0.836823 0.448062 0
M  V30 40 H -8.93254 -1.82829 0.467434 0
M  V30 41 H -0.915528 1.95789 -0.221551 0
M  V30 42 H 0.972818 1.64162 1.23296 0
M  V30 43 H 2.84728 -0.00682965 -0.718815 0
M  V30 44 H 5.11982 0.332947 -1.63239 0
M  V30 END ATOM
M  V30 BEGIN BOND
M  V30 1 1 1 2
M  V30 2 2 2 3 CFG=2
M  V30 3 1 2 4
M  V30 4 2 4 5
M  V30 5 1 5 6
M  V30 6 2 6 7
M  V30 7 1 7 8
M  V30 8 1 8 9
M  V30 9 2 9 10
M  V30 10 1 10 11
M  V30 11 2 11 12
M  V30 12 1 12 13
M  V30 13 1 13 14
M  V30 14 2 14 15
M  V30 15 1 15 16
M  V30 16 2 16 17
M  V30 17 1 17 18
M  V30 18 2 18 19
M  V30 19 1 17 20
M  V30 20 1 20 21
M  V30 21 2 20 22 CFG=2
M  V30 22 1 12 23
M  V30 23 2 23 24
M  V30 24 1 7 25
M  V30 25 2 25 26
M  V30 26 1 26 4
M  V30 27 1 24 9
M  V30 28 1 19 14
M  V30 29 1 1 27
M  V30 30 1 1 28
M  V30 31 1 3 29
M  V30 32 1 5 30
M  V30 33 1 6 31
M  V30 34 1 10 32
M  V30 35 1 11 33
M  V30 36 1 15 34
M  V30 37 1 16 35
M  V30 38 1 18 36
M  V30 39 1 19 37
M  V30 40 1 21 38
M  V30 41 1 21 39
M  V30 42 1 22 40
M  V30 43 1 23 41
M  V30 44 1 24 42
M  V30 45 1 25 43
M  V30 46 1 26 44
M  V30 END BOND
M  V30 END CTAB
M  END
