
     RDKit          3D

  0  0  0  0  0  0  0  0  0  0999 V3000
M  V30 BEGIN CTAB
M  V30 COUNTS 28 28 0 0 0
M  V30 BEGIN ATOM
M  V30 1 C 4.64044 -1.1721 -0.208191 0
M  V30 2 C 4.32423 -0.524422 1.10656 0
M  V30 3 O 3.29952 0.414688 1.0696 0
M  V30 4 C 2.02092 0.0794933 0.686106 0
M  V30 5 O 1.74548 -1.08967 0.359054 0
M  V30 6 N 1.0312 1.07622 0.669701 0
M  V30 7 C -0.286472 0.734389 0.277269 0
M  V30 8 N -0.611814 -0.517027 -0.0789366 0
M  V30 9 C -1.84595 -0.898389 -0.459098 0
M  V30 10 N -2.12764 -2.24115 -0.825309 0
M  V30 11 C -2.81138 0.0782915 -0.472654 0
M  V30 12 C -2.5748 1.40311 -0.121386 0
M  V30 13 N -3.58364 2.38793 -0.143712 0
M  V30 14 C -1.28585 1.71156 0.255509 0
M  V30 15 N -4.13495 -0.256769 -0.864019 0 CHG=1
M  V30 16 O -4.53467 0.1886 -2.11278 0 CHG=-1
M  V30 17 O -4.86529 -0.911622 -0.107646 0
M  V30 18 H 4.91382 -0.361573 -0.917692 0
M  V30 19 H 3.86559 -1.80554 -0.632044 0
M  V30 20 H 5.52566 -1.84251 -0.0312203 0
M  V30 21 H 5.26686 0.01373 1.41924 0
M  V30 22 H 4.16273 -1.27908 1.92309 0
M  V30 23 H 1.23952 2.06408 0.939825 0
M  V30 24 H -2.93475 -2.72634 -0.414184 0
M  V30 25 H -1.52452 -2.74101 -1.50725 0
M  V30 26 H -3.5756 3.14723 0.550285 0
M  V30 27 H -4.32718 2.34722 -0.853187 0
M  V30 28 H -1.01146 2.72067 0.545987 0
M  V30 END ATOM
M  V30 BEGIN BOND
M  V30 1 1 1 2
M  V30 2 1 2 3
M  V30 3 1 3 4
M  V30 4 2 4 5
M  V30 5 1 4 6
M  V30 6 1 6 7
M  V30 7 2 7 8
M  V30 8 1 8 9
M  V30 9 1 9 10
M  V30 10 2 9 11
M  V30 11 1 11 12
M  V30 12 1 12 13
M  V30 13 2 12 14
M  V30 14 1 11 15
M  V30 15 1 15 16
M  V30 16 2 15 17
M  V30 17 1 14 7
M  V30 18 1 1 18
M  V30 19 1 1 19
M  V30 20 1 1 20
M  V30 21 1 2 21
M  V30 22 1 2 22
M  V30 23 1 6 23
M  V30 24 1 10 24
M  V30 25 1 10 25
M  V30 26 1 13 26
M  V30 27 1 13 27
M  V30 28 1 14 28
M  V30 END BOND
M  V30 END CTAB
M  END
