
     RDKit          3D

  0  0  0  0  0  0  0  0  0  0999 V3000
M  V30 BEGIN CTAB
M  V30 COUNTS 35 35 0 0 0
M  V30 BEGIN ATOM
M  V30 1 N -5.25662 -1.6858 -0.024877 0
M  V30 2 S -3.91042 -1.69734 -1.10911 0
M  V30 3 O -3.47948 -3.10249 -1.36316 0
M  V30 4 O -4.20566 -0.960308 -2.37645 0
M  V30 5 C -2.58423 -0.897042 -0.266793 0
M  V30 6 C -2.01222 0.249854 -0.765411 0
M  V30 7 C -0.962913 0.905968 -0.115371 0
M  V30 8 C -0.492762 0.381089 1.05867 0
M  V30 9 N 0.578641 0.966761 1.76701 0
M  V30 10 C 1.88719 0.484639 1.61106 0
M  V30 11 S 3.08298 1.21906 2.45704 0
M  V30 12 N 2.23324 -0.600441 0.769617 0
M  V30 13 C 3.58774 -1.08572 0.614175 0
M  V30 14 C 4.47907 -0.154976 -0.0897983 0
M  V30 15 C 5.06597 -0.52418 -1.21382 0
M  V30 16 C -1.04148 -0.7857 1.60975 0
M  V30 17 Cl -0.427454 -1.44895 3.12204 0
M  V30 18 C -2.06826 -1.37275 0.915437 0
M  V30 19 Cl -2.765 -2.83729 1.59725 0
M  V30 20 S -0.284749 2.37548 -0.760632 0
M  V30 21 N -1.08386 2.83305 -2.22827 0
M  V30 22 O -0.543711 3.47007 0.249735 0
M  V30 23 O 1.1831 2.2229 -0.970206 0
M  V30 24 H -4.98855 -1.46367 0.955777 0
M  V30 25 H -5.87428 -0.878736 -0.343452 0
M  V30 26 H -2.37591 0.672136 -1.69304 0
M  V30 27 H 0.342898 1.77076 2.40658 0
M  V30 28 H 1.43541 -1.04818 0.249375 0
M  V30 29 H 3.94461 -1.28551 1.66897 0
M  V30 30 H 3.53115 -2.08675 0.125061 0
M  V30 31 H 4.66208 0.830716 0.301457 0
M  V30 32 H 4.88691 -1.50476 -1.60668 0
M  V30 33 H 5.73778 0.145231 -1.76422 0
M  V30 34 H -0.37956 3.41574 -2.76629 0
M  V30 35 H -1.90164 3.47714 -2.02142 0
M  V30 END ATOM
M  V30 BEGIN BOND
M  V30 1 1 1 2
M  V30 2 2 2 3
M  V30 3 2 2 4
M  V30 4 1 2 5
M  V30 5 2 5 6
M  V30 6 1 6 7
M  V30 7 2 7 8
M  V30 8 1 8 9
M  V30 9 1 9 10
M  V30 10 2 10 11
M  V30 11 1 10 12
M  V30 12 1 12 13
M  V30 13 1 13 14
M  V30 14 2 14 15 CFG=2
M  V30 15 1 8 16
M  V30 16 1 16 17
M  V30 17 2 16 18
M  V30 18 1 18 19
M  V30 19 1 7 20
M  V30 20 1 20 21
M  V30 21 2 20 22
M  V30 22 2 20 23
M  V30 23 1 18 5
M  V30 24 1 1 24
M  V30 25 1 1 25
M  V30 26 1 6 26
M  V30 27 1 9 27
M  V30 28 1 12 28
M  V30 29 1 13 29
M  V30 30 1 13 30
M  V30 31 1 14 31
M  V30 32 1 15 32
M  V30 33 1 15 33
M  V30 34 1 21 34
M  V30 35 1 21 35
M  V30 END BOND
M  V30 END CTAB
M  END
