
     RDKit          3D

  0  0  0  0  0  0  0  0  0  0999 V3000
M  V30 BEGIN CTAB
M  V30 COUNTS 41 42 0 0 0
M  V30 BEGIN ATOM
M  V30 1 S -1.43073 -0.975694 0.348421 0
M  V30 2 C -1.79511 0.228644 -0.666502 0
M  V30 3 N -3.10547 0.668887 -0.890319 0
M  V30 4 C -4.31929 0.195549 -0.363014 0
M  V30 5 C -4.54591 -1.05846 0.134248 0
M  V30 6 C -5.78171 -1.44741 0.670268 0
M  V30 7 C -6.82066 -0.57471 0.714803 0
M  V30 8 C -6.63397 0.714019 0.218329 0
M  V30 9 C -5.41854 1.06936 -0.29947 0
M  V30 10 N -8.09237 -0.944997 1.25253 0
M  V30 11 N -0.715559 0.863703 -1.33002 0
M  V30 12 C 0.666216 0.53411 -1.20505 0
M  V30 13 C 1.28962 0.84035 0.115881 0
M  V30 14 C 2.72283 0.431587 0.0263098 0
M  V30 15 C 3.66869 1.33033 -0.39332 0
M  V30 16 C 5.00095 0.956543 -0.481264 0
M  V30 17 C 5.41504 -0.322937 -0.151732 0
M  V30 18 C 4.46439 -1.22399 0.269122 0
M  V30 19 C 3.12759 -0.83476 0.352809 0
M  V30 20 S 7.09476 -0.791577 -0.265622 0
M  V30 21 O 7.20307 -2.26863 -0.55451 0
M  V30 22 O 7.75785 -0.0755914 -1.40812 0
M  V30 23 N 7.85059 -0.478382 1.23828 0
M  V30 24 H -3.19874 1.50826 -1.58834 0
M  V30 25 H -3.79971 -1.81965 0.126012 0
M  V30 26 H -5.92858 -2.44224 1.05422 0
M  V30 27 H -7.47738 1.38775 0.267189 0
M  V30 28 H -5.2651 2.06494 -0.686205 0
M  V30 29 H -8.37622 -0.498144 2.14412 0
M  V30 30 H -8.73351 -1.62441 0.807782 0
M  V30 31 H -0.956025 1.66027 -1.9818 0
M  V30 32 H 0.869991 -0.551711 -1.41024 0
M  V30 33 H 1.27738 1.06295 -1.97794 0
M  V30 34 H 1.26603 1.93573 0.355423 0
M  V30 35 H 0.839121 0.324983 0.963808 0
M  V30 36 H 3.37 2.34611 -0.659969 0
M  V30 37 H 5.76359 1.66413 -0.814227 0
M  V30 38 H 4.77887 -2.22234 0.527706 0
M  V30 39 H 2.41469 -1.56644 0.683002 0
M  V30 40 H 8.42239 0.368109 1.17884 0
M  V30 41 H 7.13096 -0.434251 1.98259 0
M  V30 END ATOM
M  V30 BEGIN BOND
M  V30 1 2 1 2
M  V30 2 1 2 3
M  V30 3 1 3 4
M  V30 4 2 4 5
M  V30 5 1 5 6
M  V30 6 2 6 7
M  V30 7 1 7 8
M  V30 8 2 8 9
M  V30 9 1 7 10
M  V30 10 1 2 11
M  V30 11 1 11 12
M  V30 12 1 12 13
M  V30 13 1 13 14
M  V30 14 2 14 15
M  V30 15 1 15 16
M  V30 16 2 16 17
M  V30 17 1 17 18
M  V30 18 2 18 19
M  V30 19 1 17 20
M  V30 20 2 20 21
M  V30 21 2 20 22
M  V30 22 1 20 23
M  V30 23 1 9 4
M  V30 24 1 19 14
M  V30 25 1 3 24
M  V30 26 1 5 25
M  V30 27 1 6 26
M  V30 28 1 8 27
M  V30 29 1 9 28
M  V30 30 1 10 29
M  V30 31 1 10 30
M  V30 32 1 11 31
M  V30 33 1 12 32
M  V30 34 1 12 33
M  V30 35 1 13 34
M  V30 36 1 13 35
M  V30 37 1 15 36
M  V30 38 1 16 37
M  V30 39 1 18 38
M  V30 40 1 19 39
M  V30 41 1 23 40
M  V30 42 1 23 41
M  V30 END BOND
M  V30 END CTAB
M  END
