
     RDKit          3D

  0  0  0  0  0  0  0  0  0  0999 V3000
M  V30 BEGIN CTAB
M  V30 COUNTS 78 82 0 0 0
M  V30 BEGIN ATOM
M  V30 1 N -4.96568 -0.351352 5.47275 0
M  V30 2 C -3.90979 0.112865 4.67125 0
M  V30 3 C -4.17854 1.16621 3.81099 0
M  V30 4 C -3.21974 1.67089 2.98104 0
M  V30 5 C -1.91142 1.15165 2.95666 0
M  V30 6 C -0.97005 1.74397 2.03894 0
M  V30 7 N -0.518978 0.941064 0.925716 0
M  V30 8 C -1.45582 0.469624 -0.066083 0 CFG=2
M  V30 9 C -2.01974 -0.864926 0.186771 0
M  V30 10 C -2.9567 -1.35557 -0.844327 0
M  V30 11 C -4.31877 -1.02478 -0.866204 0
M  V30 12 C -5.17322 -1.53545 -1.82937 0
M  V30 13 C -4.71527 -2.37881 -2.79074 0
M  V30 14 C -3.37538 -2.72603 -2.79723 0
M  V30 15 C -2.53233 -2.20389 -1.82308 0
M  V30 16 C -1.01608 0.844628 -1.42795 0 CFG=2
M  V30 17 O -2.10805 0.691069 -2.32959 0
M  V30 18 C 0.177248 0.237245 -2.00095 0 CFG=1
M  V30 19 O 0.178169 0.4265 -3.39176 0
M  V30 20 C 1.53398 0.817198 -1.55767 0 CFG=1
M  V30 21 C 1.43666 2.31815 -1.68396 0
M  V30 22 C 2.64705 3.07153 -1.41855 0
M  V30 23 C 2.99294 3.53354 -0.17382 0
M  V30 24 C 4.17219 4.27635 0.00458508 0
M  V30 25 C 4.99393 4.55376 -1.03909 0
M  V30 26 C 4.65871 4.09799 -2.27238 0
M  V30 27 C 3.49901 3.36556 -2.46338 0
M  V30 28 N 1.77544 0.413639 -0.194361 0
M  V30 29 C 2.94187 -0.363889 0.0672027 0
M  V30 30 C 2.88649 -1.77197 -0.342946 0
M  V30 31 C 3.21573 -2.16465 -1.60322 0
M  V30 32 C 3.13475 -3.51164 -1.94848 0
M  V30 33 C 2.73726 -4.46601 -1.07143 0
M  V30 34 N 2.66664 -5.84579 -1.4064 0
M  V30 35 C 2.38861 -4.07527 0.251418 0
M  V30 36 C 2.47682 -2.7377 0.567288 0
M  V30 37 C 0.922093 0.718099 0.944579 0
M  V30 38 N 1.41752 0.855437 2.02945 0
M  V30 39 C 2.06659 0.970944 3.12713 0
M  V30 40 N 2.62622 1.10087 4.11189 0
M  V30 41 C -1.65393 0.105151 3.81769 0
M  V30 42 C -2.64802 -0.406938 4.66402 0
M  V30 43 H -5.91481 -0.424341 5.02225 0
M  V30 44 H -4.80966 -0.611785 6.45798 0
M  V30 45 H -5.19216 1.58806 3.80981 0
M  V30 46 H -3.51335 2.49852 2.34355 0
M  V30 47 H -1.48038 2.63649 1.53514 0
M  V30 48 H -0.12501 2.25577 2.58041 0
M  V30 49 H -2.367 1.18721 0.111059 0
M  V30 50 H -2.70311 -0.74813 1.10202 0
M  V30 51 H -1.31966 -1.64684 0.533802 0
M  V30 52 H -4.71593 -0.361084 -0.117243 0
M  V30 53 H -6.23915 -1.24009 -1.80384 0
M  V30 54 H -5.40746 -2.76696 -3.53635 0
M  V30 55 H -2.97066 -3.39122 -3.53943 0
M  V30 56 H -1.47666 -2.51951 -1.88079 0
M  V30 57 H -0.896306 1.97235 -1.42133 0
M  V30 58 H -1.8068 0.510911 -3.24959 0
M  V30 59 H 0.244324 -0.876752 -1.89733 0
M  V30 60 H 0.930497 0.958308 -3.72388 0
M  V30 61 H 2.28296 0.375386 -2.20225 0
M  V30 62 H 0.744885 2.61098 -0.804944 0
M  V30 63 H 0.919933 2.63131 -2.60246 0
M  V30 64 H 2.40107 3.38119 0.710771 0
M  V30 65 H 4.40752 4.61715 1.00758 0
M  V30 66 H 5.89421 5.13381 -0.866194 0
M  V30 67 H 5.30712 4.31364 -3.11833 0
M  V30 68 H 3.30402 3.04787 -3.45466 0
M  V30 69 H 3.80518 0.0746114 -0.539881 0
M  V30 70 H 3.30312 -0.22529 1.11506 0
M  V30 71 H 3.55379 -1.50674 -2.38212 0
M  V30 72 H 3.40924 -3.79451 -2.9772 0
M  V30 73 H 2.39464 -6.5961 -0.749416 0
M  V30 74 H 2.90719 -6.1352 -2.38733 0
M  V30 75 H 2.0805 -4.8401 0.925736 0
M  V30 76 H 2.22202 -2.39863 1.55453 0
M  V30 77 H -0.689741 -0.325605 3.83731 0
M  V30 78 H -2.38282 -1.25396 5.32118 0
M  V30 END ATOM
M  V30 BEGIN BOND
M  V30 1 1 1 2
M  V30 2 2 2 3
M  V30 3 1 3 4
M  V30 4 2 4 5
M  V30 5 1 5 6
M  V30 6 1 6 7
M  V30 7 1 7 8
M  V30 8 1 8 9
M  V30 9 1 9 10
M  V30 10 2 10 11
M  V30 11 1 11 12
M  V30 12 2 12 13
M  V30 13 1 13 14
M  V30 14 2 14 15
M  V30 15 1 8 16
M  V30 16 1 16 17
M  V30 17 1 16 18
M  V30 18 1 18 19
M  V30 19 1 18 20
M  V30 20 1 20 21
M  V30 21 1 21 22
M  V30 22 2 22 23
M  V30 23 1 23 24
M  V30 24 2 24 25
M  V30 25 1 25 26
M  V30 26 2 26 27
M  V30 27 1 20 28
M  V30 28 1 28 29
M  V30 29 1 29 30
M  V30 30 2 30 31
M  V30 31 1 31 32
M  V30 32 2 32 33
M  V30 33 1 33 34
M  V30 34 1 33 35
M  V30 35 2 35 36
M  V30 36 1 28 37
M  V30 37 2 37 38
M  V30 38 1 38 39
M  V30 39 3 39 40
M  V30 40 1 5 41
M  V30 41 2 41 42
M  V30 42 1 42 2
M  V30 43 1 37 7
M  V30 44 1 15 10
M  V30 45 1 27 22
M  V30 46 1 36 30
M  V30 47 1 1 43
M  V30 48 1 1 44
M  V30 49 1 3 45
M  V30 50 1 4 46
M  V30 51 1 6 47
M  V30 52 1 6 48
M  V30 53 1 8 49 CFG=1
M  V30 54 1 9 50
M  V30 55 1 9 51
M  V30 56 1 11 52
M  V30 57 1 12 53
M  V30 58 1 13 54
M  V30 59 1 14 55
M  V30 60 1 15 56
M  V30 61 1 16 57 CFG=1
M  V30 62 1 17 58
M  V30 63 1 18 59 CFG=3
M  V30 64 1 19 60
M  V30 65 1 20 61 CFG=3
M  V30 66 1 21 62
M  V30 67 1 21 63
M  V30 68 1 23 64
M  V30 69 1 24 65
M  V30 70 1 25 66
M  V30 71 1 26 67
M  V30 72 1 27 68
M  V30 73 1 29 69
M  V30 74 1 29 70
M  V30 75 1 31 71
M  V30 76 1 32 72
M  V30 77 1 34 73
M  V30 78 1 34 74
M  V30 79 1 35 75
M  V30 80 1 36 76
M  V30 81 1 41 77
M  V30 82 1 42 78
M  V30 END BOND
M  V30 END CTAB
M  END
