
     RDKit          3D

  0  0  0  0  0  0  0  0  0  0999 V3000
M  V30 BEGIN CTAB
M  V30 COUNTS 33 35 0 0 0
M  V30 BEGIN ATOM
M  V30 1 N 6.92421 -0.0262516 0.85341 0
M  V30 2 C 5.51513 -0.00704996 0.736181 0
M  V30 3 C 4.70964 0.490943 1.73502 0
M  V30 4 C 3.33634 0.516095 1.63488 0
M  V30 5 C 2.68339 0.0294324 0.496045 0
M  V30 6 C 3.47977 -0.464825 -0.495645 0
M  V30 7 C 4.87861 -0.487206 -0.386568 0
M  V30 8 C 1.2296 0.0818913 0.446591 0
M  V30 9 C 0.544536 -0.350551 -0.577198 0
M  V30 10 C -0.928757 -0.249583 -0.522691 0
M  V30 11 N -1.77676 -0.640855 -1.4749 0
M  V30 12 C -3.05028 -0.384679 -1.05806 0
M  V30 13 C -2.96628 0.183874 0.195867 0
M  V30 14 N -1.65748 0.24917 0.486643 0
M  V30 15 C -4.09438 0.563726 0.899862 0
M  V30 16 C -5.35774 0.384937 0.365824 0
M  V30 17 C -5.42974 -0.1855 -0.890882 0
M  V30 18 C -4.30036 -0.567296 -1.59898 0
M  V30 19 N -6.53685 0.762537 1.05916 0
M  V30 20 H 7.42825 -0.888646 0.555113 0
M  V30 21 H 7.50158 0.761665 1.21792 0
M  V30 22 H 5.2094 0.867906 2.61647 0
M  V30 23 H 2.73177 0.919032 2.44839 0
M  V30 24 H 3.02135 -0.851817 -1.39438 0
M  V30 25 H 5.46103 -0.890438 -1.20324 0
M  V30 26 H 0.702946 0.509499 1.32289 0
M  V30 27 H 1.04699 -0.763136 -1.42334 0
M  V30 28 H -1.53175 -1.07359 -2.3944 0
M  V30 29 H -4.01219 1.01185 1.89001 0
M  V30 30 H -6.42212 -0.327155 -1.31304 0
M  V30 31 H -4.36572 -1.01064 -2.57674 0
M  V30 32 H -7.06351 1.60618 0.7558 0
M  V30 33 H -6.91064 0.23049 1.87093 0
M  V30 END ATOM
M  V30 BEGIN BOND
M  V30 1 1 1 2
M  V30 2 2 2 3
M  V30 3 1 3 4
M  V30 4 2 4 5
M  V30 5 1 5 6
M  V30 6 2 6 7
M  V30 7 1 5 8
M  V30 8 2 8 9
M  V30 9 1 9 10
M  V30 10 1 10 11
M  V30 11 1 11 12
M  V30 12 2 12 13
M  V30 13 1 13 14
M  V30 14 1 13 15
M  V30 15 2 15 16
M  V30 16 1 16 17
M  V30 17 2 17 18
M  V30 18 1 16 19
M  V30 19 1 7 2
M  V30 20 2 14 10
M  V30 21 1 18 12
M  V30 22 1 1 20
M  V30 23 1 1 21
M  V30 24 1 3 22
M  V30 25 1 4 23
M  V30 26 1 6 24
M  V30 27 1 7 25
M  V30 28 1 8 26
M  V30 29 1 9 27
M  V30 30 1 11 28
M  V30 31 1 15 29
M  V30 32 1 17 30
M  V30 33 1 18 31
M  V30 34 1 19 32
M  V30 35 1 19 33
M  V30 END BOND
M  V30 END CTAB
M  END
