
     RDKit          3D

  0  0  0  0  0  0  0  0  0  0999 V3000
M  V30 BEGIN CTAB
M  V30 COUNTS 57 59 0 0 0
M  V30 BEGIN ATOM
M  V30 1 O -9.53673 1.9518 0.45916 0
M  V30 2 C -8.25986 1.78421 0.0914027 0
M  V30 3 O -7.41542 2.47922 0.690542 0
M  V30 4 C -7.90652 0.836612 -0.95216 0
M  V30 5 C -6.44025 0.607251 -1.17453 0
M  V30 6 C -5.76722 0.0827324 0.041405 0 CFG=1
M  V30 7 C -6.38105 -1.2064 0.441147 0
M  V30 8 O -5.64055 -2.25728 0.28025 0
M  V30 9 O -7.63292 -1.37714 0.9608 0
M  V30 10 N -4.34225 -0.131908 -0.0750368 0
M  V30 11 C -3.37547 0.908607 -0.0357731 0
M  V30 12 O -3.53642 2.11526 -0.00311684 0
M  V30 13 C -1.96616 0.365696 -0.000603205 0
M  V30 14 C -1.41109 -0.461877 -0.900083 0
M  V30 15 C -0.215089 -1.15302 -0.615322 0
M  V30 16 C 0.429965 -1.01406 0.584954 0
M  V30 17 C -0.199092 -0.105908 1.50829 0
M  V30 18 C -1.34083 0.558846 1.24457 0
M  V30 19 N 1.51978 -1.65585 1.07651 0
M  V30 20 C 2.78894 -2.04088 0.736034 0
M  V30 21 C 3.67813 -1.16176 -0.0451317 0
M  V30 22 C 3.61365 -1.16265 -1.41685 0
M  V30 23 C 4.58965 -0.555057 -2.14264 0
M  V30 24 C 5.63649 0.0601351 -1.47968 0
M  V30 25 C 5.69453 0.0624798 -0.109967 0
M  V30 26 C 4.72448 -0.545585 0.67069 0
M  V30 27 C 4.69284 -0.453477 2.13023 0
M  V30 28 C 6.7635 0.727009 0.453312 0
M  V30 29 N 6.85492 0.783373 1.87514 0
M  V30 30 N 7.68889 1.33749 -0.304305 0
M  V30 31 C 7.63267 1.34311 -1.64998 0
M  V30 32 N 6.60434 0.698223 -2.19873 0
M  V30 33 N 8.60017 2.02962 -2.44347 0
M  V30 34 H -9.99992 2.58848 0.8937 0
M  V30 35 H -8.29872 1.31578 -1.9243 0
M  V30 36 H -8.48391 -0.106869 -0.836345 0
M  V30 37 H -5.95211 1.52092 -1.61181 0
M  V30 38 H -6.37516 -0.192064 -1.96494 0
M  V30 39 H -5.87641 0.83585 0.871834 0
M  V30 40 H -7.76415 -2.10875 1.68162 0
M  V30 41 H -4.02401 -1.14244 -0.197578 0
M  V30 42 H -1.89699 -0.594798 -1.86178 0
M  V30 43 H 0.153744 -1.79063 -1.40836 0
M  V30 44 H 0.309233 0.0335784 2.47319 0
M  V30 45 H -1.79887 1.23671 1.93717 0
M  V30 46 H 1.27528 -2.04428 2.13879 0
M  V30 47 H 2.6181 -2.99357 0.0335238 0
M  V30 48 H 3.36144 -2.58038 1.5581 0
M  V30 49 H 2.79637 -1.67426 -1.94254 0
M  V30 50 H 4.63387 -0.519539 -3.24113 0
M  V30 51 H 4.39141 0.572623 2.49195 0
M  V30 52 H 3.69327 -0.961901 2.43301 0
M  V30 53 H 5.36257 -1.02808 2.74101 0
M  V30 54 H 6.43969 1.53168 2.44679 0
M  V30 55 H 7.39855 0.0270652 2.35816 0
M  V30 56 H 9.28799 1.55072 -3.04703 0
M  V30 57 H 8.60272 3.07534 -2.42278 0
M  V30 END ATOM
M  V30 BEGIN BOND
M  V30 1 1 1 2
M  V30 2 2 2 3
M  V30 3 1 2 4
M  V30 4 1 4 5
M  V30 5 1 5 6
M  V30 6 1 6 7
M  V30 7 2 7 8
M  V30 8 1 7 9
M  V30 9 1 6 10
M  V30 10 1 10 11
M  V30 11 2 11 12
M  V30 12 1 11 13
M  V30 13 2 13 14
M  V30 14 1 14 15
M  V30 15 2 15 16
M  V30 16 1 16 17
M  V30 17 2 17 18
M  V30 18 1 16 19
M  V30 19 1 19 20
M  V30 20 1 20 21
M  V30 21 2 21 22
M  V30 22 1 22 23
M  V30 23 2 23 24
M  V30 24 1 24 25
M  V30 25 2 25 26
M  V30 26 1 26 27
M  V30 27 1 25 28
M  V30 28 1 28 29
M  V30 29 2 28 30
M  V30 30 1 30 31
M  V30 31 2 31 32
M  V30 32 1 31 33
M  V30 33 1 18 13
M  V30 34 1 26 21
M  V30 35 1 32 24
M  V30 36 1 1 34
M  V30 37 1 4 35
M  V30 38 1 4 36
M  V30 39 1 5 37
M  V30 40 1 5 38
M  V30 41 1 6 39 CFG=1
M  V30 42 1 9 40
M  V30 43 1 10 41
M  V30 44 1 14 42
M  V30 45 1 15 43
M  V30 46 1 17 44
M  V30 47 1 18 45
M  V30 48 1 19 46
M  V30 49 1 20 47
M  V30 50 1 20 48
M  V30 51 1 22 49
M  V30 52 1 23 50
M  V30 53 1 27 51
M  V30 54 1 27 52
M  V30 55 1 27 53
M  V30 56 1 29 54
M  V30 57 1 29 55
M  V30 58 1 33 56
M  V30 59 1 33 57
M  V30 END BOND
M  V30 END CTAB
M  END
