
     RDKit          3D

  0  0  0  0  0  0  0  0  0  0999 V3000
M  V30 BEGIN CTAB
M  V30 COUNTS 61 64 0 0 0
M  V30 BEGIN ATOM
M  V30 1 N 7.23039 -3.86889 -0.53899 0
M  V30 2 C 6.27267 -2.74865 -0.460898 0 CFG=1
M  V30 3 C 4.92252 -3.21091 -0.936149 0
M  V30 4 C 3.8628 -2.20281 -0.927156 0
M  V30 5 C 3.00215 -1.97706 0.113948 0
M  V30 6 C 2.01348 -1.0109 0.0623471 0
M  V30 7 C 1.88707 -0.250116 -1.06936 0
M  V30 8 C 2.74615 -0.444752 -2.16341 0
M  V30 9 C 3.69562 -1.40359 -2.0592 0
M  V30 10 C 0.884805 0.807838 -1.24079 0
M  V30 11 N 0.818576 1.51886 -2.38353 0
M  V30 12 C -0.0694684 2.50009 -2.59365 0
M  V30 13 N -0.0767202 3.20695 -3.83183 0
M  V30 14 N -0.917168 2.76093 -1.59913 0
M  V30 15 C -0.926673 2.09351 -0.403576 0
M  V30 16 O -1.77605 2.40301 0.508696 0
M  V30 17 C -2.52999 2.52146 1.58639 0
M  V30 18 C -3.9871 2.31255 1.38533 0
M  V30 19 C -4.46307 1.10964 0.966701 0
M  V30 20 C -5.84048 0.932322 0.713797 0
M  V30 21 C -6.70648 1.97124 0.890507 0
M  V30 22 C -6.25999 3.19844 1.31367 0
M  V30 23 C -4.88743 3.33747 1.55299 0
M  V30 24 C -3.65525 -0.0779393 0.78957 0
M  V30 25 C -2.92779 -0.710935 1.75225 0
M  V30 26 C -2.18306 -1.82788 1.50762 0
M  V30 27 O -1.43772 -2.4581 2.53496 0
M  V30 28 C -2.16672 -2.34015 0.229397 0
M  V30 29 C -2.88829 -1.73487 -0.77782 0
M  V30 30 C -3.62951 -0.612125 -0.509098 0
M  V30 31 C -2.22794 3.80567 2.38398 0
M  V30 32 F -0.860169 3.67126 2.73435 0
M  V30 33 F -2.31772 4.94312 1.68578 0
M  V30 34 F -2.96769 3.79596 3.51102 0
M  V30 35 C 0.00739861 1.09382 -0.240839 0
M  V30 36 C 6.26035 -2.28536 0.93274 0
M  V30 37 O 6.93184 -3.05506 1.89712 0
M  V30 38 O 5.66945 -1.22197 1.3037 0
M  V30 39 H 7.39942 -4.11798 -1.55601 0
M  V30 40 H 6.69881 -4.69476 -0.160919 0
M  V30 41 H 6.62842 -1.97396 -1.16608 0
M  V30 42 H 4.55157 -4.0845 -0.336182 0
M  V30 43 H 5.05508 -3.60091 -1.98939 0
M  V30 44 H 3.09814 -2.56934 1.003 0
M  V30 45 H 1.3516 -0.856366 0.89615 0
M  V30 46 H 2.647 0.152853 -3.05716 0
M  V30 47 H 4.36879 -1.55832 -2.91157 0
M  V30 48 H 0.291777 2.70395 -4.66785 0
M  V30 49 H -0.421105 4.17576 -3.94709 0
M  V30 50 H -2.20736 1.73582 2.34109 0
M  V30 51 H -6.21492 -0.0188849 0.381621 0
M  V30 52 H -7.76951 1.85949 0.702988 0
M  V30 53 H -6.94626 4.01162 1.45059 0
M  V30 54 H -4.59007 4.30315 1.86796 0
M  V30 55 H -2.94793 -0.341947 2.76598 0
M  V30 56 H -0.489117 -2.12031 2.64307 0
M  V30 57 H -1.58062 -3.22978 0.0138111 0
M  V30 58 H -2.8652 -2.15603 -1.79063 0
M  V30 59 H -4.19603 -0.142707 -1.32218 0
M  V30 60 H 0.00437157 0.564125 0.703353 0
M  V30 61 H 7.63031 -2.58302 2.45975 0
M  V30 END ATOM
M  V30 BEGIN BOND
M  V30 1 1 1 2
M  V30 2 1 2 3
M  V30 3 1 3 4
M  V30 4 2 4 5
M  V30 5 1 5 6
M  V30 6 2 6 7
M  V30 7 1 7 8
M  V30 8 2 8 9
M  V30 9 1 7 10
M  V30 10 2 10 11
M  V30 11 1 11 12
M  V30 12 1 12 13
M  V30 13 2 12 14
M  V30 14 1 14 15
M  V30 15 1 15 16
M  V30 16 1 16 17
M  V30 17 1 17 18
M  V30 18 1 18 19
M  V30 19 2 19 20
M  V30 20 1 20 21
M  V30 21 2 21 22
M  V30 22 1 22 23
M  V30 23 1 19 24
M  V30 24 2 24 25
M  V30 25 1 25 26
M  V30 26 1 26 27
M  V30 27 2 26 28
M  V30 28 1 28 29
M  V30 29 2 29 30
M  V30 30 1 17 31
M  V30 31 1 31 32
M  V30 32 1 31 33
M  V30 33 1 31 34
M  V30 34 2 15 35
M  V30 35 1 2 36
M  V30 36 1 36 37
M  V30 37 2 36 38
M  V30 38 1 9 4
M  V30 39 1 35 10
M  V30 40 2 23 18
M  V30 41 1 30 24
M  V30 42 1 1 39
M  V30 43 1 1 40
M  V30 44 1 2 41 CFG=3
M  V30 45 1 3 42
M  V30 46 1 3 43
M  V30 47 1 5 44
M  V30 48 1 6 45
M  V30 49 1 8 46
M  V30 50 1 9 47
M  V30 51 1 13 48
M  V30 52 1 13 49
M  V30 53 1 17 50
M  V30 54 1 20 51
M  V30 55 1 21 52
M  V30 56 1 22 53
M  V30 57 1 23 54
M  V30 58 1 25 55
M  V30 59 1 27 56
M  V30 60 1 28 57
M  V30 61 1 29 58
M  V30 62 1 30 59
M  V30 63 1 35 60
M  V30 64 1 37 61
M  V30 END BOND
M  V30 END CTAB
M  END
