
     RDKit          3D

  0  0  0  0  0  0  0  0  0  0999 V3000
M  V30 BEGIN CTAB
M  V30 COUNTS 25 25 0 0 0
M  V30 BEGIN ATOM
M  V30 1 C -0.450424 1.76982 -2.44134 0
M  V30 2 O -0.960626 1.06907 -1.3264 0
M  V30 3 C -0.110844 0.371199 -0.508616 0
M  V30 4 C 1.25159 0.374225 -0.806452 0
M  V30 5 C 2.12997 -0.312457 -0.0108663 0
M  V30 6 N 3.51505 -0.331877 -0.281347 0
M  V30 7 C 1.65539 -1.00149 1.07955 0
M  V30 8 C 0.319916 -1.02916 1.40691 0
M  V30 9 C -0.553158 -0.314571 0.570159 0
M  V30 10 C -1.94106 -0.371877 0.9514 0
M  V30 11 O -2.35321 -1.01653 1.96495 0
M  V30 12 C -2.95701 0.344015 0.143347 0
M  V30 13 N -0.176613 -1.73614 2.52778 0
M  V30 14 H 0.362608 2.48259 -2.1636 0
M  V30 15 H -1.22752 2.38412 -2.93947 0
M  V30 16 H 0.0134263 1.07907 -3.18724 0
M  V30 17 H 1.59652 0.930075 -1.67793 0
M  V30 18 H 3.91968 -1.14794 -0.796048 0
M  V30 19 H 4.18253 0.414657 -0.00531354 0
M  V30 20 H 2.34331 -1.55783 1.72924 0
M  V30 21 H -2.79645 1.44282 0.16567 0
M  V30 22 H -3.99454 0.16375 0.567281 0
M  V30 23 H -3.0384 -0.0349952 -0.890444 0
M  V30 24 H -0.366477 -1.22264 3.41376 0
M  V30 25 H -0.363652 -2.74792 2.51502 0
M  V30 END ATOM
M  V30 BEGIN BOND
M  V30 1 1 1 2
M  V30 2 1 2 3
M  V30 3 2 3 4
M  V30 4 1 4 5
M  V30 5 1 5 6
M  V30 6 2 5 7
M  V30 7 1 7 8
M  V30 8 2 8 9
M  V30 9 1 9 10
M  V30 10 2 10 11
M  V30 11 1 10 12
M  V30 12 1 8 13
M  V30 13 1 9 3
M  V30 14 1 1 14
M  V30 15 1 1 15
M  V30 16 1 1 16
M  V30 17 1 4 17
M  V30 18 1 6 18
M  V30 19 1 6 19
M  V30 20 1 7 20
M  V30 21 1 12 21
M  V30 22 1 12 22
M  V30 23 1 12 23
M  V30 24 1 13 24
M  V30 25 1 13 25
M  V30 END BOND
M  V30 END CTAB
M  END
