
     RDKit          3D

  0  0  0  0  0  0  0  0  0  0999 V3000
M  V30 BEGIN CTAB
M  V30 COUNTS 26 28 0 0 0
M  V30 BEGIN ATOM
M  V30 1 N 4.58643 -0.210726 -0.50125 0
M  V30 2 C 3.17446 -0.0779948 -0.377794 0
M  V30 3 N 2.43403 -1.18832 -0.464759 0
M  V30 4 C 1.09512 -1.16085 -0.360333 0
M  V30 5 C 0.468994 0.0813052 -0.153443 0
M  V30 6 C 1.20376 1.21115 -0.0635444 0
M  V30 7 N 0.788686 2.51245 0.135085 0
M  V30 8 N 2.57566 1.09431 -0.181947 0
M  V30 9 C -0.913353 0.116707 -0.0447176 0
M  V30 10 C -1.55319 1.29404 0.154853 0
M  V30 11 C -2.95457 1.30935 0.262408 0
M  V30 12 C -3.64569 0.13168 0.163082 0
M  V30 13 C -2.99773 -1.06188 -0.0391815 0
M  V30 14 C -1.60254 -1.09511 -0.148579 0
M  V30 15 C -0.987708 -2.30561 -0.350544 0
M  V30 16 C 0.363737 -2.31426 -0.453504 0
M  V30 17 H 5.15897 -0.542075 0.326016 0
M  V30 18 H 5.11938 -0.00263169 -1.36408 0
M  V30 19 H 0.679387 3.01955 1.05367 0
M  V30 20 H 0.587088 3.11562 -0.723762 0
M  V30 21 H -1.13155 2.23212 0.243701 0
M  V30 22 H -3.49996 2.22349 0.421004 0
M  V30 23 H -4.72345 0.082016 0.237894 0
M  V30 24 H -3.54137 -2.00629 -0.119611 0
M  V30 25 H -1.59762 -3.18665 -0.417851 0
M  V30 26 H 0.913022 -3.27138 -0.617962 0
M  V30 END ATOM
M  V30 BEGIN BOND
M  V30 1 1 1 2
M  V30 2 2 2 3
M  V30 3 1 3 4
M  V30 4 2 4 5
M  V30 5 1 5 6
M  V30 6 1 6 7
M  V30 7 2 6 8
M  V30 8 1 5 9
M  V30 9 2 9 10
M  V30 10 1 10 11
M  V30 11 2 11 12
M  V30 12 1 12 13
M  V30 13 2 13 14
M  V30 14 1 14 15
M  V30 15 2 15 16
M  V30 16 1 8 2
M  V30 17 1 14 9
M  V30 18 1 16 4
M  V30 19 1 1 17
M  V30 20 1 1 18
M  V30 21 1 7 19
M  V30 22 1 7 20
M  V30 23 1 10 21
M  V30 24 1 11 22
M  V30 25 1 12 23
M  V30 26 1 13 24
M  V30 27 1 15 25
M  V30 28 1 16 26
M  V30 END BOND
M  V30 END CTAB
M  END
