
     RDKit          3D

  0  0  0  0  0  0  0  0  0  0999 V3000
M  V30 BEGIN CTAB
M  V30 COUNTS 22 22 0 0 0
M  V30 BEGIN ATOM
M  V30 1 N 3.0895 1.13617 -0.170689 0
M  V30 2 N 1.73582 0.819716 -0.0631397 0
M  V30 3 C 1.34072 -0.389035 -0.225244 0
M  V30 4 C -0.0442127 -0.727115 -0.117696 0
M  V30 5 C -0.502246 -2.01623 -0.286111 0
M  V30 6 C -1.83935 -2.33582 -0.181066 0
M  V30 7 N -2.69506 -1.34553 0.0931869 0
M  V30 8 C -2.29065 -0.0764176 0.264573 0
M  V30 9 C -0.95955 0.258577 0.162916 0
M  V30 10 O -0.598723 1.58223 0.348976 0
M  V30 11 C -1.56216 2.577 0.636923 0
M  V30 12 N 2.28157 -1.40403 -0.51404 0
M  V30 13 H 3.46636 1.92959 -0.724309 0
M  V30 14 H 3.76818 0.540924 0.335134 0
M  V30 15 H 0.18026 -2.83503 -0.509852 0
M  V30 16 H -2.18923 -3.36738 -0.317852 0
M  V30 17 H -3.04725 0.679153 0.486276 0
M  V30 18 H -2.31983 2.66316 -0.177581 0
M  V30 19 H -0.99285 3.54018 0.710431 0
M  V30 20 H -2.07636 2.33114 1.59061 0
M  V30 21 H 2.43152 -1.62979 -1.52198 0
M  V30 22 H 2.82356 -1.93145 0.180536 0
M  V30 END ATOM
M  V30 BEGIN BOND
M  V30 1 1 1 2
M  V30 2 2 2 3
M  V30 3 1 3 4
M  V30 4 2 4 5
M  V30 5 1 5 6
M  V30 6 2 6 7
M  V30 7 1 7 8
M  V30 8 2 8 9
M  V30 9 1 9 10
M  V30 10 1 10 11
M  V30 11 1 3 12
M  V30 12 1 9 4
M  V30 13 1 1 13
M  V30 14 1 1 14
M  V30 15 1 5 15
M  V30 16 1 6 16
M  V30 17 1 8 17
M  V30 18 1 11 18
M  V30 19 1 11 19
M  V30 20 1 11 20
M  V30 21 1 12 21
M  V30 22 1 12 22
M  V30 END BOND
M  V30 END CTAB
M  END
