
     RDKit          3D

  0  0  0  0  0  0  0  0  0  0999 V3000
M  V30 BEGIN CTAB
M  V30 COUNTS 26 27 0 0 0
M  V30 BEGIN ATOM
M  V30 1 N -2.68421 1.59851 -1.20589 0
M  V30 2 C -1.9372 0.789445 -0.278255 0 CFG=1
M  V30 3 C -2.79969 -0.222925 0.380702 0
M  V30 4 C -2.2134 -1.21772 1.02716 0
M  V30 5 C -0.736922 -1.29302 1.07522 0
M  V30 6 C -0.0524306 -0.870469 -0.186884 0 CFG=1
M  V30 7 C -0.890595 0.00305245 -1.0517 0
M  V30 8 C 1.2675 -0.224006 0.123455 0
M  V30 9 N 1.49741 0.906672 0.790047 0
M  V30 10 N 2.8146 1.1168 0.837996 0
M  V30 11 C 3.45459 0.104832 0.191005 0
M  V30 12 N 2.46105 -0.699634 -0.233821 0
M  V30 13 N 4.85659 -0.0378656 0.0216494 0
M  V30 14 H -2.27126 2.53122 -1.28108 0
M  V30 15 H -3.66233 1.66808 -0.925498 0
M  V30 16 H -1.48157 1.40912 0.498328 0
M  V30 17 H -3.86408 -0.13117 0.321825 0
M  V30 18 H -2.86092 -1.95749 1.50855 0
M  V30 19 H -0.484953 -2.36394 1.3295 0
M  V30 20 H -0.344028 -0.715184 1.96243 0
M  V30 21 H 0.142221 -1.81858 -0.766225 0
M  V30 22 H -0.307285 0.699094 -1.68696 0
M  V30 23 H -1.47655 -0.628266 -1.77419 0
M  V30 24 H 0.805084 1.53929 1.21196 0
M  V30 25 H 5.33305 -0.930672 0.259448 0
M  V30 26 H 5.43534 0.744834 -0.342665 0
M  V30 END ATOM
M  V30 BEGIN BOND
M  V30 1 1 1 2
M  V30 2 1 2 3
M  V30 3 2 3 4
M  V30 4 1 4 5
M  V30 5 1 5 6
M  V30 6 1 6 7
M  V30 7 1 6 8
M  V30 8 1 8 9
M  V30 9 1 9 10
M  V30 10 2 10 11
M  V30 11 1 11 12
M  V30 12 1 11 13
M  V30 13 1 7 2
M  V30 14 2 12 8
M  V30 15 1 1 14
M  V30 16 1 1 15
M  V30 17 1 2 16 CFG=1
M  V30 18 1 3 17
M  V30 19 1 4 18
M  V30 20 1 5 19
M  V30 21 1 5 20
M  V30 22 1 6 21 CFG=3
M  V30 23 1 7 22
M  V30 24 1 7 23
M  V30 25 1 9 24
M  V30 26 1 13 25
M  V30 27 1 13 26
M  V30 END BOND
M  V30 END CTAB
M  END
