
     RDKit          3D

  0  0  0  0  0  0  0  0  0  0999 V3000
M  V30 BEGIN CTAB
M  V30 COUNTS 17 17 0 0 0
M  V30 BEGIN ATOM
M  V30 1 N 2.78522 -0.0393165 0.00254068 0
M  V30 2 C 1.39271 0.161494 0.0108915 0
M  V30 3 C 0.55963 -0.952542 -0.0857398 0
M  V30 4 Cl 1.21437 -2.5708 -0.215207 0
M  V30 5 C -0.804976 -0.745885 -0.076749 0
M  V30 6 N -1.67702 -1.87013 -0.174462 0
M  V30 7 C -1.31758 0.543169 0.0263786 0
M  V30 8 O -2.70029 0.650446 0.0270753 0
M  V30 9 C -0.494086 1.64888 0.122273 0
M  V30 10 C 0.872584 1.43857 0.112992 0
M  V30 11 H 3.33217 -0.46337 -0.759285 0
M  V30 12 H 3.32169 0.271169 0.851608 0
M  V30 13 H -1.79987 -2.4511 -1.00846 0
M  V30 14 H -2.23065 -2.11277 0.677764 0
M  V30 15 H -3.09699 1.57888 0.101187 0
M  V30 16 H -0.919241 2.63665 0.201115 0
M  V30 17 H 1.56233 2.27666 0.186073 0
M  V30 END ATOM
M  V30 BEGIN BOND
M  V30 1 1 1 2
M  V30 2 2 2 3
M  V30 3 1 3 4
M  V30 4 1 3 5
M  V30 5 1 5 6
M  V30 6 2 5 7
M  V30 7 1 7 8
M  V30 8 1 7 9
M  V30 9 2 9 10
M  V30 10 1 10 2
M  V30 11 1 1 11
M  V30 12 1 1 12
M  V30 13 1 6 13
M  V30 14 1 6 14
M  V30 15 1 8 15
M  V30 16 1 9 16
M  V30 17 1 10 17
M  V30 END BOND
M  V30 END CTAB
M  END
