
     RDKit          3D

  0  0  0  0  0  0  0  0  0  0999 V3000
M  V30 BEGIN CTAB
M  V30 COUNTS 57 59 0 0 0
M  V30 BEGIN ATOM
M  V30 1 C 5.65591 -0.136435 2.46386 0
M  V30 2 C 6.18363 -0.0187241 1.04467 0
M  V30 3 C 7.18166 1.13825 0.990238 0
M  V30 4 C 6.90717 -1.2554 0.632996 0
M  V30 5 C 5.04793 0.341211 0.152847 0
M  V30 6 C 5.16833 1.25464 -0.865376 0
M  V30 7 C 4.10851 1.59636 -1.69771 0
M  V30 8 C 2.88388 1.0194 -1.52542 0
M  V30 9 C 2.70743 0.0818681 -0.501356 0
M  V30 10 O 1.52986 -0.478101 -0.324945 0
M  V30 11 C 0.498979 -1.15683 0.0461194 0
M  V30 12 C -0.777205 -0.757708 -0.680494 0
M  V30 13 C -0.651788 -0.434413 -2.0075 0
M  V30 14 C -1.78523 0.043312 -2.67595 0
M  V30 15 C -2.98804 0.1776 -1.99359 0
M  V30 16 C -3.09328 -0.153326 -0.66452 0
M  V30 17 C -1.96508 -0.632143 0.00066285 0
M  V30 18 N -4.29673 0.0558666 0.0592989 0
M  V30 19 C -4.33957 1.24776 0.872345 0
M  V30 20 N -3.27505 2.15674 0.89617 0
M  V30 21 N -5.3655 1.52049 1.59618 0
M  V30 22 C -6.52054 0.679325 1.63757 0
M  V30 23 N -7.63896 1.00599 2.46328 0
M  V30 24 N -6.49105 -0.364583 0.902968 0
M  V30 25 C -5.44816 -0.799352 0.0316231 0
M  V30 26 C -6.08515 -0.681606 -1.39882 0
M  V30 27 C -5.1455 -2.25606 0.290126 0
M  V30 28 C 3.80494 -0.22582 0.306464 0
M  V30 29 H 4.92274 0.652726 2.656 0
M  V30 30 H 5.25698 -1.1392 2.6227 0
M  V30 31 H 6.52949 0.0652146 3.13705 0
M  V30 32 H 7.87587 1.10452 1.85869 0
M  V30 33 H 6.56882 2.05514 0.951743 0
M  V30 34 H 7.72557 1.06138 0.0259185 0
M  V30 35 H 6.29682 -2.13871 0.881827 0
M  V30 36 H 7.82562 -1.31792 1.28776 0
M  V30 37 H 7.28409 -1.23411 -0.387879 0
M  V30 38 H 6.1401 1.72312 -1.01527 0
M  V30 39 H 4.29659 2.34152 -2.49084 0
M  V30 40 H 2.05041 1.28515 -2.17722 0
M  V30 41 H 0.250091 -0.97639 1.1476 0
M  V30 42 H 0.562146 -2.2962 0.0298133 0
M  V30 43 H 0.304128 -0.557031 -2.51701 0
M  V30 44 H -1.70918 0.293136 -3.70526 0
M  V30 45 H -3.86248 0.547275 -2.48677 0
M  V30 46 H -1.99598 -0.910173 1.05412 0
M  V30 47 H -3.14652 2.81201 0.106669 0
M  V30 48 H -2.61798 2.1795 1.69399 0
M  V30 49 H -7.95961 1.98223 2.49777 0
M  V30 50 H -8.10115 0.26793 3.00175 0
M  V30 51 H -5.48842 -1.27334 -2.08556 0
M  V30 52 H -7.12948 -1.01907 -1.38246 0
M  V30 53 H -6.08854 0.401279 -1.66899 0
M  V30 54 H -4.30901 -2.43356 0.967101 0
M  V30 55 H -6.03035 -2.76269 0.725281 0
M  V30 56 H -4.97482 -2.72215 -0.725368 0
M  V30 57 H 3.71263 -0.959905 1.12488 0
M  V30 END ATOM
M  V30 BEGIN BOND
M  V30 1 1 1 2
M  V30 2 1 2 3
M  V30 3 1 2 4
M  V30 4 1 2 5
M  V30 5 2 5 6
M  V30 6 1 6 7
M  V30 7 2 7 8
M  V30 8 1 8 9
M  V30 9 1 9 10
M  V30 10 1 10 11
M  V30 11 1 11 12
M  V30 12 2 12 13
M  V30 13 1 13 14
M  V30 14 2 14 15
M  V30 15 1 15 16
M  V30 16 2 16 17
M  V30 17 1 16 18
M  V30 18 1 18 19
M  V30 19 1 19 20
M  V30 20 2 19 21
M  V30 21 1 21 22
M  V30 22 1 22 23
M  V30 23 2 22 24
M  V30 24 1 24 25
M  V30 25 1 25 26
M  V30 26 1 25 27
M  V30 27 2 9 28
M  V30 28 1 28 5
M  V30 29 1 17 12
M  V30 30 1 25 18
M  V30 31 1 1 29
M  V30 32 1 1 30
M  V30 33 1 1 31
M  V30 34 1 3 32
M  V30 35 1 3 33
M  V30 36 1 3 34
M  V30 37 1 4 35
M  V30 38 1 4 36
M  V30 39 1 4 37
M  V30 40 1 6 38
M  V30 41 1 7 39
M  V30 42 1 8 40
M  V30 43 1 11 41
M  V30 44 1 11 42
M  V30 45 1 13 43
M  V30 46 1 14 44
M  V30 47 1 15 45
M  V30 48 1 17 46
M  V30 49 1 20 47
M  V30 50 1 20 48
M  V30 51 1 23 49
M  V30 52 1 23 50
M  V30 53 1 26 51
M  V30 54 1 26 52
M  V30 55 1 26 53
M  V30 56 1 27 54
M  V30 57 1 27 55
M  V30 58 1 27 56
M  V30 59 1 28 57
M  V30 END BOND
M  V30 END CTAB
M  END
