
     RDKit          3D

  0  0  0  0  0  0  0  0  0  0999 V3000
M  V30 BEGIN CTAB
M  V30 COUNTS 23 23 0 0 0
M  V30 BEGIN ATOM
M  V30 1 N -1.19412 -1.93072 0.351675 0
M  V30 2 C -1.16093 -0.888456 -0.634246 0
M  V30 3 C 0.281002 -0.4944 -0.856766 0
M  V30 4 N 0.574202 0.301477 0.319207 0
M  V30 5 C -0.653219 0.779353 0.921518 0
M  V30 6 C -1.7602 0.366637 -0.00421817 0
M  V30 7 N -2.03483 1.37216 -1.01204 0
M  V30 8 C 1.86575 0.57712 0.814598 0
M  V30 9 O 1.99116 1.28008 1.84335 0
M  V30 10 C 3.0398 0.0250225 0.100878 0
M  V30 11 H -1.43308 -2.86844 -0.0331798 0
M  V30 12 H -1.74942 -1.67295 1.18771 0
M  V30 13 H -1.66515 -1.15687 -1.58188 0
M  V30 14 H 0.924941 -1.40846 -0.865981 0
M  V30 15 H 0.447358 0.04652 -1.79325 0
M  V30 16 H -0.61321 1.87345 1.10045 0
M  V30 17 H -0.757127 0.246259 1.90083 0
M  V30 18 H -2.69345 0.147767 0.530271 0
M  V30 19 H -2.23751 2.26582 -0.510769 0
M  V30 20 H -1.16655 1.5243 -1.57803 0
M  V30 21 H 3.23434 0.595234 -0.826351 0
M  V30 22 H 2.83483 -1.03797 -0.138417 0
M  V30 23 H 3.92541 0.0570649 0.764649 0
M  V30 END ATOM
M  V30 BEGIN BOND
M  V30 1 1 1 2
M  V30 2 1 2 3
M  V30 3 1 3 4
M  V30 4 1 4 5
M  V30 5 1 5 6
M  V30 6 1 6 7
M  V30 7 1 4 8
M  V30 8 2 8 9
M  V30 9 1 8 10
M  V30 10 1 6 2
M  V30 11 1 1 11
M  V30 12 1 1 12
M  V30 13 1 2 13
M  V30 14 1 3 14
M  V30 15 1 3 15
M  V30 16 1 5 16
M  V30 17 1 5 17
M  V30 18 1 6 18
M  V30 19 1 7 19
M  V30 20 1 7 20
M  V30 21 1 10 21
M  V30 22 1 10 22
M  V30 23 1 10 23
M  V30 END BOND
M  V30 END CTAB
M  END
