
     RDKit          3D

  0  0  0  0  0  0  0  0  0  0999 V3000
M  V30 BEGIN CTAB
M  V30 COUNTS 32 34 0 0 0
M  V30 BEGIN ATOM
M  V30 1 O 0.179245 -2.34038 3.41154 0
M  V30 2 C 0.541691 -1.97482 2.29385 0
M  V30 3 N 1.87323 -1.56941 2.04324 0
M  V30 4 C 2.01768 -0.627569 0.953699 0
M  V30 5 N 3.25864 -0.27446 0.580056 0
M  V30 6 C 3.53508 0.518251 -0.471024 0
M  V30 7 N 4.86466 0.869717 -0.834705 0
M  V30 8 N 2.4863 0.963965 -1.16408 0
M  V30 9 C 1.18146 0.670947 -0.874458 0
M  V30 10 C 0.936444 -0.138254 0.205329 0
M  V30 11 C -0.389969 -0.472309 0.728611 0
M  V30 12 C -0.384836 -1.92151 1.08736 0
M  V30 13 C -1.55406 0.0433667 0.092023 0
M  V30 14 C -2.10138 1.23816 0.529407 0
M  V30 15 C -3.24215 1.7998 0.0183411 0
M  V30 16 C -3.89184 1.13287 -1.00051 0
M  V30 17 C -3.35127 -0.0576412 -1.44034 0
M  V30 18 C -2.20471 -0.620291 -0.92563 0
M  V30 19 Cl -1.59632 -2.15783 -1.57932 0
M  V30 20 N 0.196704 1.24467 -1.74172 0
M  V30 21 H 2.68228 -1.90639 2.59108 0
M  V30 22 H 5.02628 1.69686 -1.43265 0
M  V30 23 H 5.65816 0.303426 -0.503923 0
M  V30 24 H -0.382017 0.0428766 1.78205 0
M  V30 25 H 0.137931 -2.52763 0.326041 0
M  V30 26 H -1.31773 -2.3892 1.33561 0
M  V30 27 H -1.62313 1.81442 1.34244 0
M  V30 28 H -3.61364 2.7454 0.414438 0
M  V30 29 H -4.78689 1.54828 -1.41992 0
M  V30 30 H -3.83019 -0.630598 -2.25134 0
M  V30 31 H -0.138304 2.19848 -1.50839 0
M  V30 32 H -0.16735 0.776788 -2.58709 0
M  V30 END ATOM
M  V30 BEGIN BOND
M  V30 1 2 1 2
M  V30 2 1 2 3
M  V30 3 1 3 4
M  V30 4 2 4 5
M  V30 5 1 5 6
M  V30 6 1 6 7
M  V30 7 2 6 8
M  V30 8 1 8 9
M  V30 9 2 9 10
M  V30 10 1 10 11
M  V30 11 1 11 12
M  V30 12 1 11 13
M  V30 13 2 13 14
M  V30 14 1 14 15
M  V30 15 2 15 16
M  V30 16 1 16 17
M  V30 17 2 17 18
M  V30 18 1 18 19
M  V30 19 1 9 20
M  V30 20 1 12 2
M  V30 21 1 18 13
M  V30 22 1 10 4
M  V30 23 1 3 21
M  V30 24 1 7 22
M  V30 25 1 7 23
M  V30 26 1 11 24
M  V30 27 1 12 25
M  V30 28 1 12 26
M  V30 29 1 14 27
M  V30 30 1 15 28
M  V30 31 1 16 29
M  V30 32 1 17 30
M  V30 33 1 20 31
M  V30 34 1 20 32
M  V30 END BOND
M  V30 END CTAB
M  END
