
     RDKit          3D

  0  0  0  0  0  0  0  0  0  0999 V3000
M  V30 BEGIN CTAB
M  V30 COUNTS 28 29 0 0 0
M  V30 BEGIN ATOM
M  V30 1 Cl 5.61805 2.31674 1.42136 0
M  V30 2 C 4.66734 0.944402 0.887598 0
M  V30 3 C 5.28851 -0.286713 0.813644 0
M  V30 4 C 4.5649 -1.38599 0.396652 0
M  V30 5 C 3.23471 -1.25743 0.0570027 0
M  V30 6 C 2.58064 -0.0229308 0.122589 0
M  V30 7 C 3.33744 1.04143 0.541729 0
M  V30 8 C 1.14121 0.0944391 -0.249634 0
M  V30 9 S 0.0623684 -0.17114 1.17756 0
M  V30 10 C -1.62504 -0.012606 0.636114 0
M  V30 11 N -2.2685 -1.10213 0.194025 0
M  V30 12 C -3.5352 -1.08522 -0.23355 0
M  V30 13 N -4.15828 -2.2573 -0.685897 0
M  V30 14 C -4.22454 0.105944 -0.224065 0
M  V30 15 C -3.56983 1.22961 0.228854 0
M  V30 16 N -2.29625 1.14812 0.645505 0
M  V30 17 N -4.30394 2.45406 0.229967 0
M  V30 18 H 6.34177 -0.422906 1.07581 0
M  V30 19 H 5.01024 -2.36909 0.323584 0
M  V30 20 H 2.6229 -2.08988 -0.276448 0
M  V30 21 H 2.88422 2.0166 0.610948 0
M  V30 22 H 0.868592 -0.598711 -1.0405 0
M  V30 23 H 0.929717 1.13735 -0.617199 0
M  V30 24 H -3.78245 -2.7591 -1.50787 0
M  V30 25 H -4.99306 -2.62911 -0.206439 0
M  V30 26 H -5.26011 0.180649 -0.561213 0
M  V30 27 H -4.43051 3.00633 -0.656513 0
M  V30 28 H -4.70489 2.77458 1.13521 0
M  V30 END ATOM
M  V30 BEGIN BOND
M  V30 1 1 1 2
M  V30 2 2 2 3
M  V30 3 1 3 4
M  V30 4 2 4 5
M  V30 5 1 5 6
M  V30 6 2 6 7
M  V30 7 1 6 8
M  V30 8 1 8 9
M  V30 9 1 9 10
M  V30 10 2 10 11
M  V30 11 1 11 12
M  V30 12 1 12 13
M  V30 13 2 12 14
M  V30 14 1 14 15
M  V30 15 2 15 16
M  V30 16 1 15 17
M  V30 17 1 7 2
M  V30 18 1 16 10
M  V30 19 1 3 18
M  V30 20 1 4 19
M  V30 21 1 5 20
M  V30 22 1 7 21
M  V30 23 1 8 22
M  V30 24 1 8 23
M  V30 25 1 13 24
M  V30 26 1 13 25
M  V30 27 1 14 26
M  V30 28 1 17 27
M  V30 29 1 17 28
M  V30 END BOND
M  V30 END CTAB
M  END
