
     RDKit          3D

  0  0  0  0  0  0  0  0  0  0999 V3000
M  V30 BEGIN CTAB
M  V30 COUNTS 42 42 0 0 0
M  V30 BEGIN ATOM
M  V30 1 C -3.70165 -2.22481 -0.780914 0
M  V30 2 C -2.40339 -1.52225 -0.374415 0
M  V30 3 C -2.65299 -0.115939 0.0627474 0
M  V30 4 C -1.35993 0.530991 0.445584 0
M  V30 5 N -0.67093 -0.120946 1.52202 0
M  V30 6 S 0.811145 0.668579 1.9214 0
M  V30 7 O 0.601196 2.06599 2.37542 0
M  V30 8 O 1.42595 -0.11587 3.06602 0
M  V30 9 C 1.93126 0.669079 0.578389 0
M  V30 10 C 1.95442 1.68514 -0.34742 0
M  V30 11 C 2.82932 1.70271 -1.41178 0
M  V30 12 C 3.70766 0.646231 -1.53095 0
M  V30 13 C 3.71061 -0.393636 -0.615389 0
M  V30 14 C 2.81875 -0.370784 0.433581 0
M  V30 15 S 4.85754 -1.69544 -0.83972 0
M  V30 16 O 5.18809 -1.82334 -2.3172 0
M  V30 17 O 4.26988 -2.95942 -0.304583 0
M  V30 18 N 6.30598 -1.26251 0.0189444 0
M  V30 19 C -3.2325 0.68322 -1.09577 0
M  V30 20 C -3.48965 2.10253 -0.671386 0
M  V30 21 N -3.59538 -0.161485 1.17026 0
M  V30 22 H -3.41827 -3.29088 -0.951018 0
M  V30 23 H -4.41184 -2.20405 0.0575719 0
M  V30 24 H -4.07632 -1.7989 -1.71192 0
M  V30 25 H -1.98395 -2.16121 0.428748 0
M  V30 26 H -1.71088 -1.60138 -1.2377 0
M  V30 27 H -1.45052 1.62923 0.594997 0
M  V30 28 H -0.686048 0.43311 -0.457495 0
M  V30 29 H -0.55491 -1.12863 1.39859 0
M  V30 30 H 1.2529 2.53601 -0.258451 0
M  V30 31 H 2.8421 2.51078 -2.14132 0
M  V30 32 H 4.40308 0.630797 -2.35097 0
M  V30 33 H 2.85753 -1.2063 1.12557 0
M  V30 34 H 6.85455 -0.577414 -0.5387 0
M  V30 35 H 6.03155 -0.827891 0.927303 0
M  V30 36 H -4.15635 0.223597 -1.4538 0
M  V30 37 H -2.43128 0.720115 -1.87502 0
M  V30 38 H -4.48861 2.44393 -1.01949 0
M  V30 39 H -2.72513 2.81537 -1.08854 0
M  V30 40 H -3.46682 2.24614 0.419593 0
M  V30 41 H -3.4449 0.605451 1.84887 0
M  V30 42 H -4.54125 0.014072 0.743039 0
M  V30 END ATOM
M  V30 BEGIN BOND
M  V30 1 1 1 2
M  V30 2 1 2 3
M  V30 3 1 3 4
M  V30 4 1 4 5
M  V30 5 1 5 6
M  V30 6 2 6 7
M  V30 7 2 6 8
M  V30 8 1 6 9
M  V30 9 2 9 10
M  V30 10 1 10 11
M  V30 11 2 11 12
M  V30 12 1 12 13
M  V30 13 2 13 14
M  V30 14 1 13 15
M  V30 15 2 15 16
M  V30 16 2 15 17
M  V30 17 1 15 18
M  V30 18 1 3 19
M  V30 19 1 19 20
M  V30 20 1 3 21
M  V30 21 1 14 9
M  V30 22 1 1 22
M  V30 23 1 1 23
M  V30 24 1 1 24
M  V30 25 1 2 25
M  V30 26 1 2 26
M  V30 27 1 4 27
M  V30 28 1 4 28
M  V30 29 1 5 29
M  V30 30 1 10 30
M  V30 31 1 11 31
M  V30 32 1 12 32
M  V30 33 1 14 33
M  V30 34 1 18 34
M  V30 35 1 18 35
M  V30 36 1 19 36
M  V30 37 1 19 37
M  V30 38 1 20 38
M  V30 39 1 20 39
M  V30 40 1 20 40
M  V30 41 1 21 41
M  V30 42 1 21 42
M  V30 END BOND
M  V30 END CTAB
M  END
