
     RDKit          3D

  0  0  0  0  0  0  0  0  0  0999 V3000
M  V30 BEGIN CTAB
M  V30 COUNTS 21 21 0 0 0
M  V30 BEGIN ATOM
M  V30 1 N -2.57445 0.415886 0.831874 0
M  V30 2 C -2.23721 0.678083 -0.53672 0
M  V30 3 C -1.32195 -0.400805 -1.09393 0
M  V30 4 C -0.0529903 -0.477003 -0.319764 0
M  V30 5 C 0.0840562 -1.3015 0.7837 0
M  V30 6 C 1.25575 -1.38352 1.51318 0
M  V30 7 N 2.29926 -0.623091 1.12152 0
M  V30 8 C 2.22313 0.202689 0.0490275 0
M  V30 9 C 1.05909 0.279224 -0.669505 0
M  V30 10 N 3.35832 0.987212 -0.323667 0
M  V30 11 H -1.78595 0.484375 1.49595 0
M  V30 12 H -3.44546 0.873096 1.14187 0
M  V30 13 H -1.80198 1.66227 -0.716975 0
M  V30 14 H -3.17583 0.620619 -1.12778 0
M  V30 15 H -1.88253 -1.36172 -0.983226 0
M  V30 16 H -1.13774 -0.2428 -2.15922 0
M  V30 17 H -0.763775 -1.90001 1.07777 0
M  V30 18 H 1.37678 -2.0241 2.37828 0
M  V30 19 H 0.955343 0.927275 -1.53473 0
M  V30 20 H 3.29557 2.02574 -0.344265 0
M  V30 21 H 4.27255 0.558078 -0.583398 0
M  V30 END ATOM
M  V30 BEGIN BOND
M  V30 1 1 1 2
M  V30 2 1 2 3
M  V30 3 1 3 4
M  V30 4 2 4 5
M  V30 5 1 5 6
M  V30 6 2 6 7
M  V30 7 1 7 8
M  V30 8 2 8 9
M  V30 9 1 8 10
M  V30 10 1 9 4
M  V30 11 1 1 11
M  V30 12 1 1 12
M  V30 13 1 2 13
M  V30 14 1 2 14
M  V30 15 1 3 15
M  V30 16 1 3 16
M  V30 17 1 5 17
M  V30 18 1 6 18
M  V30 19 1 9 19
M  V30 20 1 10 20
M  V30 21 1 10 21
M  V30 END BOND
M  V30 END CTAB
M  END
