
     RDKit          3D

  0  0  0  0  0  0  0  0  0  0999 V3000
M  V30 BEGIN CTAB
M  V30 COUNTS 25 25 0 0 0
M  V30 BEGIN ATOM
M  V30 1 Cl 3.09115 2.15558 1.60624 0
M  V30 2 C 2.70297 1.77673 -0.103277 0
M  V30 3 C 2.3933 0.349815 -0.169694 0
M  V30 4 O 3.36383 -0.476564 -0.286894 0
M  V30 5 C 1.05901 -0.195575 -0.106415 0
M  V30 6 C -0.0437606 0.641909 0.00823763 0
M  V30 7 C -1.32062 0.155751 0.067822 0
M  V30 8 O -2.4705 0.897152 0.177705 0
M  V30 9 C -2.48487 2.27847 0.225743 0
M  V30 10 F -2.99572 2.60359 1.49829 0
M  V30 11 F -3.42424 2.82721 -0.656019 0
M  V30 12 C -1.48877 -1.24113 0.0085128 0
M  V30 13 C -0.391304 -2.05202 -0.104638 0
M  V30 14 C 0.901517 -1.5861 -0.166557 0
M  V30 15 N 2.01825 -2.44632 -0.290299 0
M  V30 16 N -2.79825 -1.81102 0.0648718 0
M  V30 17 H 1.87482 2.41293 -0.482903 0
M  V30 18 H 3.62001 1.95269 -0.753403 0
M  V30 19 H 0.107195 1.70282 0.0557447 0
M  V30 20 H -1.50689 2.75274 0.0872849 0
M  V30 21 H -0.496496 -3.14928 -0.153091 0
M  V30 22 H 2.44802 -2.56669 -1.22027 0
M  V30 23 H 2.39974 -2.94733 0.522163 0
M  V30 24 H -2.96529 -2.76979 -0.314064 0
M  V30 25 H -3.5931 -1.26558 0.484903 0
M  V30 END ATOM
M  V30 BEGIN BOND
M  V30 1 1 1 2
M  V30 2 1 2 3
M  V30 3 2 3 4
M  V30 4 1 3 5
M  V30 5 2 5 6
M  V30 6 1 6 7
M  V30 7 1 7 8
M  V30 8 1 8 9
M  V30 9 1 9 10
M  V30 10 1 9 11
M  V30 11 2 7 12
M  V30 12 1 12 13
M  V30 13 2 13 14
M  V30 14 1 14 15
M  V30 15 1 12 16
M  V30 16 1 14 5
M  V30 17 1 2 17
M  V30 18 1 2 18
M  V30 19 1 6 19
M  V30 20 1 9 20
M  V30 21 1 13 21
M  V30 22 1 15 22
M  V30 23 1 15 23
M  V30 24 1 16 24
M  V30 25 1 16 25
M  V30 END BOND
M  V30 END CTAB
M  END
