
     RDKit          3D

  0  0  0  0  0  0  0  0  0  0999 V3000
M  V30 BEGIN CTAB
M  V30 COUNTS 42 44 0 0 0
M  V30 BEGIN ATOM
M  V30 1 O 0.226964 -1.95526 0.77111 0
M  V30 2 C -0.0732177 -0.811736 1.12299 0
M  V30 3 N 0.772258 0.275634 1.22 0
M  V30 4 C 2.15688 0.250926 0.914598 0
M  V30 5 C 2.96041 1.31631 1.38888 0
M  V30 6 C 4.29748 1.33019 1.08748 0
M  V30 7 C 4.89302 0.340441 0.3358 0
M  V30 8 C 4.12459 -0.695517 -0.128766 0
M  V30 9 C 2.76569 -0.719224 0.171292 0
M  V30 10 C 4.99206 -1.64136 -0.919073 0
M  V30 11 C 6.0838 -0.691404 -1.36668 0
M  V30 12 C 6.30017 0.141377 -0.113573 0
M  V30 13 C -1.51913 -0.601679 1.47982 0
M  V30 14 C -2.29239 -1.89057 1.35519 0
M  V30 15 S -4.02052 -1.4761 1.81386 0
M  V30 16 C -4.62104 -0.371192 0.515367 0
M  V30 17 N -5.23006 -0.903571 -0.580957 0
M  V30 18 C -5.69238 -0.132519 -1.57532 0
M  V30 19 N -6.33061 -0.628188 -2.7327 0
M  V30 20 C -5.52979 1.23851 -1.45241 0
M  V30 21 C -4.91047 1.79759 -0.34 0
M  V30 22 N -4.47769 0.961783 0.606946 0
M  V30 23 N -4.76308 3.21916 -0.254733 0
M  V30 24 H 0.334107 1.20175 1.55026 0
M  V30 25 H 2.46347 2.06918 1.97137 0
M  V30 26 H 4.88554 2.17339 1.47431 0
M  V30 27 H 2.21973 -1.56601 -0.242593 0
M  V30 28 H 4.4273 -2.07292 -1.76512 0
M  V30 29 H 5.4545 -2.41319 -0.291392 0
M  V30 30 H 5.63813 -0.00501886 -2.11869 0
M  V30 31 H 6.99167 -1.18485 -1.71095 0
M  V30 32 H 6.79803 1.10566 -0.32072 0
M  V30 33 H 6.80606 -0.426748 0.685922 0
M  V30 34 H -1.64077 -0.217151 2.49049 0
M  V30 35 H -1.93411 0.0895823 0.692982 0
M  V30 36 H -1.87961 -2.6387 2.07927 0
M  V30 37 H -2.236 -2.24789 0.304026 0
M  V30 38 H -7.31274 -0.940685 -2.67497 0
M  V30 39 H -5.82091 -0.677094 -3.62435 0
M  V30 40 H -5.88581 1.93213 -2.23126 0
M  V30 41 H -5.21408 3.82532 -0.945161 0
M  V30 42 H -4.20746 3.63963 0.494573 0
M  V30 END ATOM
M  V30 BEGIN BOND
M  V30 1 2 1 2
M  V30 2 1 2 3
M  V30 3 1 3 4
M  V30 4 2 4 5
M  V30 5 1 5 6
M  V30 6 2 6 7
M  V30 7 1 7 8
M  V30 8 2 8 9
M  V30 9 1 8 10
M  V30 10 1 10 11
M  V30 11 1 11 12
M  V30 12 1 2 13
M  V30 13 1 13 14
M  V30 14 1 14 15
M  V30 15 1 15 16
M  V30 16 2 16 17
M  V30 17 1 17 18
M  V30 18 1 18 19
M  V30 19 2 18 20
M  V30 20 1 20 21
M  V30 21 2 21 22
M  V30 22 1 21 23
M  V30 23 1 9 4
M  V30 24 1 22 16
M  V30 25 1 12 7
M  V30 26 1 3 24
M  V30 27 1 5 25
M  V30 28 1 6 26
M  V30 29 1 9 27
M  V30 30 1 10 28
M  V30 31 1 10 29
M  V30 32 1 11 30
M  V30 33 1 11 31
M  V30 34 1 12 32
M  V30 35 1 12 33
M  V30 36 1 13 34
M  V30 37 1 13 35
M  V30 38 1 14 36
M  V30 39 1 14 37
M  V30 40 1 19 38
M  V30 41 1 19 39
M  V30 42 1 20 40
M  V30 43 1 23 41
M  V30 44 1 23 42
M  V30 END BOND
M  V30 END CTAB
M  END
