
     RDKit          3D

  0  0  0  0  0  0  0  0  0  0999 V3000
M  V30 BEGIN CTAB
M  V30 COUNTS 27 27 0 0 0
M  V30 BEGIN ATOM
M  V30 1 C -0.908157 -1.51626 -1.23998 0
M  V30 2 C -0.629573 -0.695432 0.0656177 0
M  V30 3 C 0.818827 -0.401808 0.0137356 0
M  V30 4 C 1.55764 -0.691081 -1.12881 0
M  V30 5 C 2.8862 -0.349302 -1.20922 0
M  V30 6 C 3.5554 0.28531 -0.190755 0
M  V30 7 N 2.84637 0.562919 0.909063 0
M  V30 8 C 1.52062 0.236533 1.02631 0
M  V30 9 N 0.909206 0.518484 2.27487 0
M  V30 10 C -1.52127 0.50331 -0.210325 0
M  V30 11 N -2.87349 -0.111355 -0.358248 0
M  V30 12 C -1.60576 1.59112 0.758215 0
M  V30 13 F -1.0392 -1.47565 1.08474 0
M  V30 14 H -0.808788 -0.833308 -2.09139 0
M  V30 15 H -1.99985 -1.81088 -1.21843 0
M  V30 16 H -0.256717 -2.37431 -1.32102 0
M  V30 17 H 1.14251 -1.18531 -2.00016 0
M  V30 18 H 3.46247 -0.582135 -2.11674 0
M  V30 19 H 4.60608 0.539937 -0.292966 0
M  V30 20 H 0.425478 -0.205626 2.8107 0
M  V30 21 H 0.967299 1.48544 2.63046 0
M  V30 22 H -1.27018 0.836621 -1.25877 0
M  V30 23 H -3.52628 0.68732 -0.318642 0
M  V30 24 H -2.98729 -0.798801 0.416147 0
M  V30 25 H -1.90794 1.22234 1.75787 0
M  V30 26 H -0.826232 2.36176 0.763118 0
M  V30 27 H -2.53739 2.20017 0.444618 0
M  V30 END ATOM
M  V30 BEGIN BOND
M  V30 1 1 1 2
M  V30 2 1 2 3
M  V30 3 2 3 4
M  V30 4 1 4 5
M  V30 5 2 5 6
M  V30 6 1 6 7
M  V30 7 2 7 8
M  V30 8 1 8 9
M  V30 9 1 2 10
M  V30 10 1 10 11
M  V30 11 1 10 12
M  V30 12 1 2 13
M  V30 13 1 8 3
M  V30 14 1 1 14
M  V30 15 1 1 15
M  V30 16 1 1 16
M  V30 17 1 4 17
M  V30 18 1 5 18
M  V30 19 1 6 19
M  V30 20 1 9 20
M  V30 21 1 9 21
M  V30 22 1 10 22
M  V30 23 1 11 23
M  V30 24 1 11 24
M  V30 25 1 12 25
M  V30 26 1 12 26
M  V30 27 1 12 27
M  V30 END BOND
M  V30 END CTAB
M  END
