
     RDKit          3D

  0  0  0  0  0  0  0  0  0  0999 V3000
M  V30 BEGIN CTAB
M  V30 COUNTS 27 27 0 0 0
M  V30 BEGIN ATOM
M  V30 1 C -3.43379 -0.659383 0.0897681 0
M  V30 2 C -2.00251 -0.491398 -0.318374 0
M  V30 3 C -1.10498 -0.309781 0.878025 0
M  V30 4 C 0.318949 -0.141824 0.48747 0
M  V30 5 N 1.34939 -0.953856 0.869381 0
M  V30 6 N 2.48149 -0.504886 0.334326 0
M  V30 7 C 2.2143 0.593387 -0.396607 0
M  V30 8 N 0.887365 0.786051 -0.281203 0
M  V30 9 N 3.16573 1.36117 -1.12422 0
M  V30 10 C 3.81406 -1.08568 0.494146 0
M  V30 11 C -1.51856 0.906522 1.69141 0
M  V30 12 N -1.87432 0.570874 -1.27894 0
M  V30 13 H -4.00737 -0.9748 -0.816651 0
M  V30 14 H -3.89826 0.300331 0.418743 0
M  V30 15 H -3.58669 -1.45072 0.839059 0
M  V30 16 H -1.68926 -1.44421 -0.812846 0
M  V30 17 H -1.23824 -1.19195 1.5312 0
M  V30 18 H 2.88934 1.74321 -2.05234 0
M  V30 19 H 4.13153 1.57635 -0.800323 0
M  V30 20 H 3.73163 -2.03764 1.03742 0
M  V30 21 H 4.49134 -0.365282 0.992603 0
M  V30 22 H 4.24229 -1.28358 -0.516521 0
M  V30 23 H -1.68004 1.72629 0.985163 0
M  V30 24 H -2.37887 0.697709 2.35098 0
M  V30 25 H -0.65109 1.18139 2.32965 0
M  V30 26 H -2.0372 0.166552 -2.23427 0
M  V30 27 H -2.61624 1.28516 -1.13713 0
M  V30 END ATOM
M  V30 BEGIN BOND
M  V30 1 1 1 2
M  V30 2 1 2 3
M  V30 3 1 3 4
M  V30 4 2 4 5
M  V30 5 1 5 6
M  V30 6 1 6 7
M  V30 7 2 7 8
M  V30 8 1 7 9
M  V30 9 1 6 10
M  V30 10 1 3 11
M  V30 11 1 2 12
M  V30 12 1 8 4
M  V30 13 1 1 13
M  V30 14 1 1 14
M  V30 15 1 1 15
M  V30 16 1 2 16
M  V30 17 1 3 17
M  V30 18 1 9 18
M  V30 19 1 9 19
M  V30 20 1 10 20
M  V30 21 1 10 21
M  V30 22 1 10 22
M  V30 23 1 11 23
M  V30 24 1 11 24
M  V30 25 1 11 25
M  V30 26 1 12 26
M  V30 27 1 12 27
M  V30 END BOND
M  V30 END CTAB
M  END
