
     RDKit          3D

  0  0  0  0  0  0  0  0  0  0999 V3000
M  V30 BEGIN CTAB
M  V30 COUNTS 49 50 0 0 0
M  V30 BEGIN ATOM
M  V30 1 C -4.9322 2.17417 0.318992 0
M  V30 2 C -3.98452 1.94495 -0.816963 0
M  V30 3 O -2.91944 1.11921 -0.492419 0
M  V30 4 C -3.29813 -0.138768 -0.0860273 0
M  V30 5 C -2.70778 -0.505761 1.25792 0
M  V30 6 C -1.91962 -1.60426 0.641866 0
M  V30 7 C -2.43575 -1.21243 -0.715609 0
M  V30 8 C -3.37505 -2.25225 -1.34774 0
M  V30 9 C -1.45559 -0.741738 -1.72834 0
M  V30 10 N -2.45586 -2.9039 0.994135 0
M  V30 11 C -0.435627 -1.53953 0.820415 0
M  V30 12 O 0.130222 -2.61035 1.14891 0
M  V30 13 N 0.297473 -0.373108 0.639792 0
M  V30 14 C 1.69403 -0.255061 0.802731 0
M  V30 15 C 2.51119 -1.08908 1.49888 0
M  V30 16 C 3.86678 -0.878508 1.5621 0
M  V30 17 C 4.44888 0.190495 0.920152 0
M  V30 18 C 3.66845 1.06819 0.200779 0
M  V30 19 C 2.32809 0.835652 0.154383 0
M  V30 20 S 4.44502 2.41175 -0.597503 0
M  V30 21 O 3.35247 3.12452 -1.38801 0
M  V30 22 O 4.97559 3.42669 0.367425 0
M  V30 23 N 5.61657 1.90505 -1.74779 0
M  V30 24 C 5.90309 0.384368 1.00911 0
M  V30 25 H -4.39445 2.29752 1.27158 0
M  V30 26 H -5.72559 1.41794 0.364781 0
M  V30 27 H -5.44011 3.15978 0.124409 0
M  V30 28 H -4.55542 1.59966 -1.69084 0
M  V30 29 H -3.53547 2.94177 -1.07779 0
M  V30 30 H -4.38847 -0.339379 -0.0665809 0
M  V30 31 H -3.46334 -0.837347 2.02624 0
M  V30 32 H -2.13274 0.328937 1.70628 0
M  V30 33 H -2.7323 -3.00631 -1.8857 0
M  V30 34 H -3.92429 -2.76096 -0.554766 0
M  V30 35 H -4.04147 -1.70922 -2.04486 0
M  V30 36 H -0.518193 -1.3217 -1.6215 0
M  V30 37 H -1.30321 0.356103 -1.75344 0
M  V30 38 H -1.85023 -0.984949 -2.74901 0
M  V30 39 H -2.27522 -3.16099 1.97673 0
M  V30 40 H -2.2388 -3.64009 0.301957 0
M  V30 41 H -0.229462 0.484951 0.367489 0
M  V30 42 H 2.08554 -1.94545 2.04105 0
M  V30 43 H 4.48141 -1.59096 2.14317 0
M  V30 44 H 1.69891 1.53211 -0.418517 0
M  V30 45 H 5.90069 0.917555 -1.63716 0
M  V30 46 H 6.40043 2.57599 -1.77304 0
M  V30 47 H 6.26883 1.35941 0.70026 0
M  V30 48 H 6.42193 -0.430935 0.455903 0
M  V30 49 H 6.17275 0.27626 2.0994 0
M  V30 END ATOM
M  V30 BEGIN BOND
M  V30 1 1 1 2
M  V30 2 1 2 3
M  V30 3 1 3 4
M  V30 4 1 4 5
M  V30 5 1 5 6
M  V30 6 1 6 7
M  V30 7 1 7 8
M  V30 8 1 7 9
M  V30 9 1 6 10
M  V30 10 1 6 11
M  V30 11 2 11 12
M  V30 12 1 11 13
M  V30 13 1 13 14
M  V30 14 2 14 15
M  V30 15 1 15 16
M  V30 16 2 16 17
M  V30 17 1 17 18
M  V30 18 2 18 19
M  V30 19 1 18 20
M  V30 20 2 20 21
M  V30 21 2 20 22
M  V30 22 1 20 23
M  V30 23 1 17 24
M  V30 24 1 7 4
M  V30 25 1 19 14
M  V30 26 1 1 25
M  V30 27 1 1 26
M  V30 28 1 1 27
M  V30 29 1 2 28
M  V30 30 1 2 29
M  V30 31 1 4 30
M  V30 32 1 5 31
M  V30 33 1 5 32
M  V30 34 1 8 33
M  V30 35 1 8 34
M  V30 36 1 8 35
M  V30 37 1 9 36
M  V30 38 1 9 37
M  V30 39 1 9 38
M  V30 40 1 10 39
M  V30 41 1 10 40
M  V30 42 1 13 41
M  V30 43 1 15 42
M  V30 44 1 16 43
M  V30 45 1 19 44
M  V30 46 1 23 45
M  V30 47 1 23 46
M  V30 48 1 24 47
M  V30 49 1 24 48
M  V30 50 1 24 49
M  V30 END BOND
M  V30 END CTAB
M  END
