
     RDKit          3D

  0  0  0  0  0  0  0  0  0  0999 V3000
M  V30 BEGIN CTAB
M  V30 COUNTS 93 92 0 0 0
M  V30 BEGIN ATOM
M  V30 1 C 1.87998 -0.593031 3.98114 0
M  V30 2 C 3.16408 -1.00733 3.3956 0
M  V30 3 C 4.3306 -0.495578 4.27164 0
M  V30 4 C 3.44854 -0.842521 1.96862 0
M  V30 5 C 3.46177 0.444087 1.29 0 CFG=2
M  V30 6 N 2.25638 1.21117 1.20072 0
M  V30 7 C 0.984926 0.752528 0.812684 0
M  V30 8 O 0.873873 -0.498735 0.549315 0
M  V30 9 C -0.18582 1.62054 0.687809 0 CFG=2
M  V30 10 C -0.124703 3.00749 1.15845 0
M  V30 11 C 0.102758 3.28088 2.57348 0
M  V30 12 O 0.33205 4.63137 2.91789 0
M  V30 13 O 0.121074 2.47797 3.51598 0
M  V30 14 N -1.3564 0.893406 1.15366 0
M  V30 15 C -2.44793 0.505162 0.360001 0
M  V30 16 O -2.4208 0.807399 -0.860673 0
M  V30 17 C -3.5898 -0.241023 0.979367 0 CFG=2
M  V30 18 C -3.15862 -1.41901 1.75453 0
M  V30 19 C -2.41099 -2.45257 0.954172 0
M  V30 20 C -1.99707 -3.61195 1.77838 0
M  V30 21 O -1.28281 -4.61676 1.13498 0
M  V30 22 O -2.23234 -3.7583 2.98337 0
M  V30 23 N -4.5846 -0.483778 -0.0410284 0
M  V30 24 C -5.81085 0.171101 -0.128234 0
M  V30 25 O -6.08299 1.03921 0.732936 0
M  V30 26 C -6.78124 -0.129716 -1.1926 0 CFG=2
M  V30 27 C -6.25506 0.329062 -2.53465 0
M  V30 28 O -5.15545 -0.435632 -2.87742 0
M  V30 29 N -7.94831 0.740497 -0.941279 0
M  V30 30 C -9.22751 0.257916 -0.626572 0
M  V30 31 O -9.40287 -1.0005 -0.551844 0
M  V30 32 C -10.3538 1.19273 -0.384718 0 CFG=2
M  V30 33 C -11.4911 0.936636 -1.33275 0
M  V30 34 N -9.87787 2.54728 -0.588392 0
M  V30 35 C 3.98373 0.3064 -0.128114 0
M  V30 36 O 3.32241 0.794448 -1.06287 0
M  V30 37 N 5.19131 -0.358443 -0.392763 0
M  V30 38 C 5.64163 -0.459101 -1.81748 0 CFG=1
M  V30 39 C 6.81191 0.452792 -1.8811 0
M  V30 40 C 7.53845 0.652918 -3.1372 0
M  V30 41 C 8.24182 -0.473827 -3.78147 0
M  V30 42 C 9.32204 -1.09264 -2.91765 0
M  V30 43 N 10.2953 -0.0280936 -2.63472 0
M  V30 44 C 5.90129 -1.89494 -1.99648 0
M  V30 45 O 5.6116 -2.65102 -3.10136 0
M  V30 46 O 6.45126 -2.52499 -1.02603 0
M  V30 47 H 1.7779 -1.17118 4.96696 0
M  V30 48 H 1.85772 0.461587 4.33087 0
M  V30 49 H 1.01577 -0.90848 3.40588 0
M  V30 50 H 3.23143 -2.14299 3.5842 0
M  V30 51 H 5.23332 -1.03025 3.9467 0
M  V30 52 H 4.12102 -0.780608 5.32634 0
M  V30 53 H 4.48133 0.579019 4.15283 0
M  V30 54 H 2.83675 -1.62948 1.42071 0
M  V30 55 H 4.50615 -1.29989 1.82904 0
M  V30 56 H 4.24683 1.11068 1.82454 0
M  V30 57 H 2.27407 2.26705 1.44646 0
M  V30 58 H -0.394139 1.71363 -0.4522 0
M  V30 59 H -1.03126 3.5541 0.766554 0
M  V30 60 H 0.742949 3.50067 0.597152 0
M  V30 61 H -0.404115 5.30757 2.7271 0
M  V30 62 H -1.35793 0.652262 2.16831 0
M  V30 63 H -4.04646 0.505891 1.69156 0
M  V30 64 H -2.48446 -1.07318 2.56502 0
M  V30 65 H -4.04268 -1.85419 2.26023 0
M  V30 66 H -3.14913 -2.86771 0.204913 0
M  V30 67 H -1.57327 -2.05056 0.390564 0
M  V30 68 H -1.7606 -5.29962 0.533616 0
M  V30 69 H -4.33274 -1.21248 -0.741737 0
M  V30 70 H -7.09912 -1.19408 -1.18961 0
M  V30 71 H -7.04704 0.295966 -3.31257 0
M  V30 72 H -5.89033 1.38338 -2.35917 0
M  V30 73 H -5.49956 -1.31898 -3.19304 0
M  V30 74 H -7.8012 1.77398 -1.00538 0
M  V30 75 H -10.7177 1.10214 0.667302 0
M  V30 76 H -11.5815 1.72504 -2.09934 0
M  V30 77 H -12.4429 0.847572 -0.74222 0
M  V30 78 H -11.3396 -0.0581919 -1.82736 0
M  V30 79 H -9.94595 2.78696 -1.60044 0
M  V30 80 H -10.393 3.24557 -0.0221826 0
M  V30 81 H 5.77112 -0.771689 0.34335 0
M  V30 82 H 4.79183 -0.0851066 -2.44817 0
M  V30 83 H 7.48802 0.195772 -1.01593 0
M  V30 84 H 6.41621 1.47803 -1.56589 0
M  V30 85 H 8.34112 1.44822 -2.94754 0
M  V30 86 H 6.85683 1.16152 -3.8765 0
M  V30 87 H 8.85152 0.00787208 -4.63683 0
M  V30 88 H 7.66748 -1.24987 -4.26115 0
M  V30 89 H 9.80185 -1.88603 -3.52999 0
M  V30 90 H 8.98701 -1.47875 -1.96061 0
M  V30 91 H 10.928 0.0147931 -3.46617 0
M  V30 92 H 10.8433 -0.262546 -1.77959 0
M  V30 93 H 6.17548 -3.47695 -3.33741 0
M  V30 END ATOM
M  V30 BEGIN BOND
M  V30 1 1 1 2
M  V30 2 1 2 3
M  V30 3 1 2 4
M  V30 4 1 4 5
M  V30 5 1 5 6
M  V30 6 1 6 7
M  V30 7 2 7 8
M  V30 8 1 7 9
M  V30 9 1 9 10
M  V30 10 1 10 11
M  V30 11 1 11 12
M  V30 12 2 11 13
M  V30 13 1 9 14
M  V30 14 1 14 15
M  V30 15 2 15 16
M  V30 16 1 15 17
M  V30 17 1 17 18
M  V30 18 1 18 19
M  V30 19 1 19 20
M  V30 20 1 20 21
M  V30 21 2 20 22
M  V30 22 1 17 23
M  V30 23 1 23 24
M  V30 24 2 24 25
M  V30 25 1 24 26
M  V30 26 1 26 27
M  V30 27 1 27 28
M  V30 28 1 26 29
M  V30 29 1 29 30
M  V30 30 2 30 31
M  V30 31 1 30 32
M  V30 32 1 32 33
M  V30 33 1 32 34
M  V30 34 1 5 35
M  V30 35 2 35 36
M  V30 36 1 35 37
M  V30 37 1 37 38
M  V30 38 1 38 39
M  V30 39 1 39 40
M  V30 40 1 40 41
M  V30 41 1 41 42
M  V30 42 1 42 43
M  V30 43 1 38 44
M  V30 44 1 44 45
M  V30 45 2 44 46
M  V30 46 1 1 47
M  V30 47 1 1 48
M  V30 48 1 1 49
M  V30 49 1 2 50
M  V30 50 1 3 51
M  V30 51 1 3 52
M  V30 52 1 3 53
M  V30 53 1 4 54
M  V30 54 1 4 55
M  V30 55 1 5 56 CFG=1
M  V30 56 1 6 57
M  V30 57 1 9 58 CFG=3
M  V30 58 1 10 59
M  V30 59 1 10 60
M  V30 60 1 12 61
M  V30 61 1 14 62
M  V30 62 1 17 63 CFG=1
M  V30 63 1 18 64
M  V30 64 1 18 65
M  V30 65 1 19 66
M  V30 66 1 19 67
M  V30 67 1 21 68
M  V30 68 1 23 69
M  V30 69 1 26 70 CFG=3
M  V30 70 1 27 71
M  V30 71 1 27 72
M  V30 72 1 28 73
M  V30 73 1 29 74
M  V30 74 1 32 75 CFG=1
M  V30 75 1 33 76
M  V30 76 1 33 77
M  V30 77 1 33 78
M  V30 78 1 34 79
M  V30 79 1 34 80
M  V30 80 1 37 81
M  V30 81 1 38 82 CFG=3
M  V30 82 1 39 83
M  V30 83 1 39 84
M  V30 84 1 40 85
M  V30 85 1 40 86
M  V30 86 1 41 87
M  V30 87 1 41 88
M  V30 88 1 42 89
M  V30 89 1 42 90
M  V30 90 1 43 91
M  V30 91 1 43 92
M  V30 92 1 45 93
M  V30 END BOND
M  V30 END CTAB
M  END
