
     RDKit          3D

  0  0  0  0  0  0  0  0  0  0999 V3000
M  V30 BEGIN CTAB
M  V30 COUNTS 17 18 0 0 0
M  V30 BEGIN ATOM
M  V30 1 N 4.05331 0.442919 0.213384 0
M  V30 2 C 2.67165 0.103783 0.183362 0
M  V30 3 N 1.61162 0.884984 0.0540506 0
M  V30 4 C 0.416594 0.381201 0.0495697 0
M  V30 5 C 0.289539 -0.973589 0.181899 0
M  V30 6 S 1.92352 -1.45251 0.307204 0
M  V30 7 C -0.958843 -1.61809 0.189278 0
M  V30 8 C -2.11008 -0.874532 0.0595356 0
M  V30 9 C -1.91961 0.479594 -0.0697595 0
M  V30 10 N -3.11638 1.27266 -0.206689 0
M  V30 11 N -0.750692 1.09022 -0.0773996 0
M  V30 12 H 4.52522 0.690317 -0.665376 0
M  V30 13 H 4.57105 0.440375 1.10049 0
M  V30 14 H -0.971714 -2.68934 0.298006 0
M  V30 15 H -3.08753 -1.28881 0.0560942 0
M  V30 16 H -3.92976 0.898063 -0.750085 0
M  V30 17 H -3.21791 2.21275 0.211912 0
M  V30 END ATOM
M  V30 BEGIN BOND
M  V30 1 1 1 2
M  V30 2 2 2 3
M  V30 3 1 3 4
M  V30 4 2 4 5
M  V30 5 1 5 6
M  V30 6 1 5 7
M  V30 7 2 7 8
M  V30 8 1 8 9
M  V30 9 1 9 10
M  V30 10 2 9 11
M  V30 11 1 6 2
M  V30 12 1 11 4
M  V30 13 1 1 12
M  V30 14 1 1 13
M  V30 15 1 7 14
M  V30 16 1 8 15
M  V30 17 1 10 16
M  V30 18 1 10 17
M  V30 END BOND
M  V30 END CTAB
M  END
