
     RDKit          3D

  0  0  0  0  0  0  0  0  0  0999 V3000
M  V30 BEGIN CTAB
M  V30 COUNTS 14 14 0 0 0
M  V30 BEGIN ATOM
M  V30 1 N 3.19291 -0.0508223 0.031711 0
M  V30 2 C 1.80607 -0.328374 -0.0199048 0
M  V30 3 N 1.22138 -1.51334 -0.335989 0
M  V30 4 N -0.0687788 -1.36684 -0.272461 0
M  V30 5 C -0.346032 -0.102796 0.0808818 0
M  V30 6 O 0.810821 0.485169 0.222161 0
M  V30 7 C -1.68311 0.462149 0.260582 0
M  V30 8 N -1.87993 1.68187 0.60026 0
M  V30 9 N -2.82429 -0.362397 0.0538404 0
M  V30 10 H 3.89467 -0.811559 0.060294 0
M  V30 11 H 3.52903 0.928753 0.0417136 0
M  V30 12 H -1.09121 2.32844 0.764295 0
M  V30 13 H -3.75175 0.0496032 -0.230468 0
M  V30 14 H -2.80979 -1.39985 0.16907 0
M  V30 END ATOM
M  V30 BEGIN BOND
M  V30 1 1 1 2
M  V30 2 2 2 3
M  V30 3 1 3 4
M  V30 4 2 4 5
M  V30 5 1 5 6
M  V30 6 1 5 7
M  V30 7 2 7 8 CFG=2
M  V30 8 1 7 9
M  V30 9 1 6 2
M  V30 10 1 1 10
M  V30 11 1 1 11
M  V30 12 1 8 12
M  V30 13 1 9 13
M  V30 14 1 9 14
M  V30 END BOND
M  V30 END CTAB
M  END
