
     RDKit          3D

  0  0  0  0  0  0  0  0  0  0999 V3000
M  V30 BEGIN CTAB
M  V30 COUNTS 20 20 0 0 0
M  V30 BEGIN ATOM
M  V30 1 C 3.1814 -0.596009 0.241778 0
M  V30 2 O 2.31217 0.411197 -0.162309 0
M  V30 3 C 0.951982 0.341318 -0.221885 0
M  V30 4 C 0.348339 -0.840574 0.152316 0
M  V30 5 C -1.02809 -0.98172 0.11655 0
M  V30 6 N -1.64337 -2.2026 0.503578 0
M  V30 7 C -1.80239 0.0629668 -0.29487 0
M  V30 8 C -1.23027 1.24374 -0.670615 0
M  V30 9 C 0.133027 1.3706 -0.630691 0
M  V30 10 I 1.00156 3.18967 -1.21035 0
M  V30 11 N -2.06412 2.31111 -1.0936 0
M  V30 12 H 3.18047 -0.632455 1.35101 0
M  V30 13 H 2.84203 -1.61505 -0.109486 0
M  V30 14 H 4.2109 -0.482102 -0.154728 0
M  V30 15 H 0.897438 -1.71519 0.490803 0
M  V30 16 H -1.20111 -2.73758 1.28234 0
M  V30 17 H -2.49732 -2.52761 0.0160318 0
M  V30 18 H -2.88939 -0.0399469 -0.326089 0
M  V30 19 H -3.07936 2.3051 -0.967838 0
M  V30 20 H -1.62389 3.13514 -1.55127 0
M  V30 END ATOM
M  V30 BEGIN BOND
M  V30 1 1 1 2
M  V30 2 1 2 3
M  V30 3 2 3 4
M  V30 4 1 4 5
M  V30 5 1 5 6
M  V30 6 2 5 7
M  V30 7 1 7 8
M  V30 8 2 8 9
M  V30 9 1 9 10
M  V30 10 1 8 11
M  V30 11 1 9 3
M  V30 12 1 1 12
M  V30 13 1 1 13
M  V30 14 1 1 14
M  V30 15 1 4 15
M  V30 16 1 6 16
M  V30 17 1 6 17
M  V30 18 1 7 18
M  V30 19 1 11 19
M  V30 20 1 11 20
M  V30 END BOND
M  V30 END CTAB
M  END
