
     RDKit          3D

  0  0  0  0  0  0  0  0  0  0999 V3000
M  V30 BEGIN CTAB
M  V30 COUNTS 12 11 0 0 0
M  V30 BEGIN ATOM
M  V30 1 N -2.23851 -0.719387 -0.146758 0
M  V30 2 C -0.90299 -0.280061 -0.341764 0
M  V30 3 S -0.374102 -0.0691357 -1.86644 0
M  V30 4 N -0.0500241 -0.0309682 0.769409 0
M  V30 5 C 1.28037 0.403946 0.68211 0
M  V30 6 N 1.85973 0.624597 -0.583228 0
M  V30 7 S 2.16267 0.656942 2.01412 0
M  V30 8 H -2.54853 -1.05089 0.787323 0
M  V30 9 H -2.93276 -0.721622 -0.920925 0
M  V30 10 H -0.445761 -0.184609 1.74792 0
M  V30 11 H 1.72797 1.49436 -1.13415 0
M  V30 12 H 2.46194 -0.123174 -1.00761 0
M  V30 END ATOM
M  V30 BEGIN BOND
M  V30 1 1 1 2
M  V30 2 2 2 3
M  V30 3 1 2 4
M  V30 4 1 4 5
M  V30 5 1 5 6
M  V30 6 2 5 7
M  V30 7 1 1 8
M  V30 8 1 1 9
M  V30 9 1 4 10
M  V30 10 1 6 11
M  V30 11 1 6 12
M  V30 END BOND
M  V30 END CTAB
M  END
