
     RDKit          3D

  0  0  0  0  0  0  0  0  0  0999 V3000
M  V30 BEGIN CTAB
M  V30 COUNTS 48 49 0 0 0
M  V30 BEGIN ATOM
M  V30 1 N 6.57064 -1.68496 -1.35529 0
M  V30 2 C 5.16355 -1.32215 -1.41316 0
M  V30 3 C 4.66322 -1.1954 0.00546219 0
M  V30 4 N 3.27251 -0.845102 -0.0138666 0
M  V30 5 C 2.72073 -0.701302 1.31894 0
M  V30 6 C 2.24886 0.712218 1.57836 0
M  V30 7 N 1.14235 0.921889 0.598469 0
M  V30 8 C 1.52635 0.700648 -0.750142 0
M  V30 9 C 2.9862 0.254998 -0.867882 0
M  V30 10 C -0.123031 1.29702 1.04024 0
M  V30 11 O -0.211363 1.44101 2.36916 0
M  V30 12 N -1.26628 1.53244 0.308912 0
M  V30 13 C -2.48017 1.91322 1.10148 0
M  V30 14 C -3.54375 0.878608 0.855316 0
M  V30 15 N -3.57774 0.247204 -0.388956 0
M  V30 16 C -2.47066 0.278013 -1.26032 0
M  V30 17 C -1.54061 1.48024 -1.08217 0
M  V30 18 C -4.0585 -1.10243 -0.307575 0
M  V30 19 C -5.50339 -1.19499 0.00881428 0
M  V30 20 N -5.85583 -0.628995 1.26592 0
M  V30 21 H 7.02465 -0.944007 -0.760246 0
M  V30 22 H 7.00244 -1.74913 -2.29367 0
M  V30 23 H 4.54934 -2.03732 -1.96015 0
M  V30 24 H 5.05881 -0.317231 -1.89247 0
M  V30 25 H 4.87848 -2.09945 0.58491 0
M  V30 26 H 5.22722 -0.336865 0.451406 0
M  V30 27 H 3.4317 -1.06342 2.08832 0
M  V30 28 H 1.82184 -1.35088 1.37638 0
M  V30 29 H 1.79025 0.722529 2.58342 0
M  V30 30 H 3.00866 1.48032 1.48222 0
M  V30 31 H 1.44608 1.65024 -1.30697 0
M  V30 32 H 0.902542 -0.0703642 -1.20936 0
M  V30 33 H 3.05164 -0.11591 -1.93578 0
M  V30 34 H 3.64924 1.12019 -0.79769 0
M  V30 35 H -2.79496 2.92348 0.77266 0
M  V30 36 H -2.23296 1.9266 2.17131 0
M  V30 37 H -3.5055 0.176854 1.73609 0
M  V30 38 H -4.5165 1.45899 0.970945 0
M  V30 39 H -2.84116 0.345763 -2.31245 0
M  V30 40 H -1.81181 -0.636082 -1.18609 0
M  V30 41 H -2.21051 2.37055 -1.31085 0
M  V30 42 H -0.753417 1.39126 -1.80061 0
M  V30 43 H -3.78985 -1.61923 -1.26025 0
M  V30 44 H -3.43442 -1.65123 0.468542 0
M  V30 45 H -5.78243 -2.2832 -0.0572158 0
M  V30 46 H -6.14204 -0.713253 -0.789011 0
M  V30 47 H -6.64948 0.040282 1.18079 0
M  V30 48 H -6.04094 -1.35301 1.99409 0
M  V30 END ATOM
M  V30 BEGIN BOND
M  V30 1 1 1 2
M  V30 2 1 2 3
M  V30 3 1 3 4
M  V30 4 1 4 5
M  V30 5 1 5 6
M  V30 6 1 6 7
M  V30 7 1 7 8
M  V30 8 1 8 9
M  V30 9 1 7 10
M  V30 10 2 10 11
M  V30 11 1 10 12
M  V30 12 1 12 13
M  V30 13 1 13 14
M  V30 14 1 14 15
M  V30 15 1 15 16
M  V30 16 1 16 17
M  V30 17 1 15 18
M  V30 18 1 18 19
M  V30 19 1 19 20
M  V30 20 1 9 4
M  V30 21 1 17 12
M  V30 22 1 1 21
M  V30 23 1 1 22
M  V30 24 1 2 23
M  V30 25 1 2 24
M  V30 26 1 3 25
M  V30 27 1 3 26
M  V30 28 1 5 27
M  V30 29 1 5 28
M  V30 30 1 6 29
M  V30 31 1 6 30
M  V30 32 1 8 31
M  V30 33 1 8 32
M  V30 34 1 9 33
M  V30 35 1 9 34
M  V30 36 1 13 35
M  V30 37 1 13 36
M  V30 38 1 14 37
M  V30 39 1 14 38
M  V30 40 1 16 39
M  V30 41 1 16 40
M  V30 42 1 17 41
M  V30 43 1 17 42
M  V30 44 1 18 43
M  V30 45 1 18 44
M  V30 46 1 19 45
M  V30 47 1 19 46
M  V30 48 1 20 47
M  V30 49 1 20 48
M  V30 END BOND
M  V30 END CTAB
M  END
