
     RDKit          3D

  0  0  0  0  0  0  0  0  0  0999 V3000
M  V30 BEGIN CTAB
M  V30 COUNTS 29 29 0 0 0
M  V30 BEGIN ATOM
M  V30 1 C -2.84488 -0.472518 -0.797026 0
M  V30 2 N -2.15004 -0.392163 0.424699 0
M  V30 3 C -1.73784 0.84755 0.912153 0
M  V30 4 C -0.65066 1.52058 0.145821 0 CFG=1
M  V30 5 C 0.589553 0.721812 0.074907 0
M  V30 6 N 1.70601 1.14198 -0.542155 0
M  V30 7 N 2.63299 0.215835 -0.444172 0
M  V30 8 C 2.11553 -0.819863 0.242478 0
M  V30 9 N 0.857704 -0.494416 0.555815 0
M  V30 10 N 2.84509 -2.00376 0.526921 0
M  V30 11 C 3.97824 0.306059 -0.992486 0
M  V30 12 N -0.989496 2.01004 -1.14834 0
M  V30 13 C -2.57054 -1.33794 1.39323 0
M  V30 14 H -2.1949 -0.680127 -1.67922 0
M  V30 15 H -3.43468 0.474915 -0.962482 0
M  V30 16 H -3.6369 -1.27344 -0.818569 0
M  V30 17 H -1.40785 0.839419 1.98902 0
M  V30 18 H -2.61658 1.55047 0.908108 0
M  V30 19 H -0.374227 2.43108 0.761292 0
M  V30 20 H 2.68217 -2.90997 0.0527565 0
M  V30 21 H 3.61107 -2.01197 1.26017 0
M  V30 22 H 4.0552 -0.309882 -1.91981 0
M  V30 23 H 4.23346 1.32478 -1.28095 0
M  V30 24 H 4.70291 -0.136683 -0.256961 0
M  V30 25 H -0.721544 1.33623 -1.90167 0
M  V30 26 H -0.517115 2.90363 -1.39978 0
M  V30 27 H -3.62288 -1.10944 1.72036 0
M  V30 28 H -2.57174 -2.35954 0.951297 0
M  V30 29 H -1.96806 -1.31267 2.33289 0
M  V30 END ATOM
M  V30 BEGIN BOND
M  V30 1 1 1 2
M  V30 2 1 2 3
M  V30 3 1 3 4
M  V30 4 1 4 5
M  V30 5 2 5 6
M  V30 6 1 6 7
M  V30 7 1 7 8
M  V30 8 2 8 9
M  V30 9 1 8 10
M  V30 10 1 7 11
M  V30 11 1 4 12
M  V30 12 1 2 13
M  V30 13 1 9 5
M  V30 14 1 1 14
M  V30 15 1 1 15
M  V30 16 1 1 16
M  V30 17 1 3 17
M  V30 18 1 3 18
M  V30 19 1 4 19 CFG=1
M  V30 20 1 10 20
M  V30 21 1 10 21
M  V30 22 1 11 22
M  V30 23 1 11 23
M  V30 24 1 11 24
M  V30 25 1 12 25
M  V30 26 1 12 26
M  V30 27 1 13 27
M  V30 28 1 13 28
M  V30 29 1 13 29
M  V30 END BOND
M  V30 END CTAB
M  END
