
     RDKit          3D

  0  0  0  0  0  0  0  0  0  0999 V3000
M  V30 BEGIN CTAB
M  V30 COUNTS 24 24 0 0 0
M  V30 BEGIN ATOM
M  V30 1 N 4.35287 0.676959 0.20721 0
M  V30 2 C 3.39098 -0.0440186 -0.575469 0
M  V30 3 C 1.99168 0.19933 -0.0621478 0
M  V30 4 N 0.993845 -0.500403 -0.812454 0
M  V30 5 C -0.369176 -0.357531 -0.432798 0
M  V30 6 C -1.39065 -1.00282 -1.11007 0
M  V30 7 C -2.70627 -0.850776 -0.725519 0
M  V30 8 C -3.04548 -0.0527714 0.343683 0
M  V30 9 N -4.42459 0.0858814 0.720313 0
M  V30 10 C -2.05123 0.595672 1.02893 0
M  V30 11 C -0.743106 0.437247 0.6373 0
M  V30 12 H 4.20871 0.530659 1.23127 0
M  V30 13 H 4.44593 1.67192 -0.0206034 0
M  V30 14 H 3.60007 -1.13712 -0.492073 0
M  V30 15 H 3.51711 0.230604 -1.62445 0
M  V30 16 H 1.77978 1.29095 -0.0859831 0
M  V30 17 H 1.95475 -0.104098 1.00251 0
M  V30 18 H 1.20035 -1.12016 -1.63457 0
M  V30 19 H -1.15104 -1.64847 -1.97013 0
M  V30 20 H -3.50309 -1.35308 -1.25248 0
M  V30 21 H -4.69536 0.517932 1.61505 0
M  V30 22 H -5.16352 -0.259993 0.0702809 0
M  V30 23 H -2.24531 1.23534 1.87473 0
M  V30 24 H 0.0527366 0.958754 1.18893 0
M  V30 END ATOM
M  V30 BEGIN BOND
M  V30 1 1 1 2
M  V30 2 1 2 3
M  V30 3 1 3 4
M  V30 4 1 4 5
M  V30 5 2 5 6
M  V30 6 1 6 7
M  V30 7 2 7 8
M  V30 8 1 8 9
M  V30 9 1 8 10
M  V30 10 2 10 11
M  V30 11 1 11 5
M  V30 12 1 1 12
M  V30 13 1 1 13
M  V30 14 1 2 14
M  V30 15 1 2 15
M  V30 16 1 3 16
M  V30 17 1 3 17
M  V30 18 1 4 18
M  V30 19 1 6 19
M  V30 20 1 7 20
M  V30 21 1 9 21
M  V30 22 1 9 22
M  V30 23 1 10 23
M  V30 24 1 11 24
M  V30 END BOND
M  V30 END CTAB
M  END
