
     RDKit          3D

  0  0  0  0  0  0  0  0  0  0999 V3000
M  V30 BEGIN CTAB
M  V30 COUNTS 54 57 0 0 0
M  V30 BEGIN ATOM
M  V30 1 C 7.99765 -1.37997 -0.0148977 0
M  V30 2 C 7.30328 -0.342598 -0.840098 0
M  V30 3 C 7.28344 0.975802 -0.161899 0
M  V30 4 C 6.5416 0.96178 1.13057 0
M  V30 5 C 5.09243 0.609274 0.938046 0
M  V30 6 C 4.22699 1.63273 0.619768 0
M  V30 7 C 2.88584 1.38408 0.444653 0
M  V30 8 C 2.35148 0.147604 0.572349 0
M  V30 9 N 1.0021 -0.200449 0.423499 0
M  V30 10 C -0.111356 0.616661 0.243081 0
M  V30 11 O 0.00829768 1.86183 0.195468 0
M  V30 12 C -1.46681 0.0964358 0.0996097 0
M  V30 13 C -2.51062 0.983521 -0.0756679 0
M  V30 14 N -2.2835 2.38136 -0.11761 0
M  V30 15 C -3.81433 0.560544 -0.217516 0
M  V30 16 C -4.10971 -0.785618 -0.186708 0
M  V30 17 C -5.48634 -1.27193 -0.334477 0
M  V30 18 O -5.69904 -2.5016 -0.29919 0
M  V30 19 C -6.55018 -0.291318 -0.516956 0
M  V30 20 C -6.30638 1.06881 -0.554927 0
M  V30 21 C -7.33225 1.9985 -0.730076 0
M  V30 22 C -8.62962 1.5512 -0.869871 0
M  V30 23 C -8.87498 0.19415 -0.832253 0
M  V30 24 C -7.8541 -0.717576 -0.658634 0
M  V30 25 C -4.91672 1.50086 -0.402795 0
M  V30 26 O -4.64073 2.71766 -0.429525 0
M  V30 27 C -3.1032 -1.70988 -0.0142249 0
M  V30 28 N -3.41133 -3.07847 0.016123 0
M  V30 29 C -1.79693 -1.23623 0.125392 0
M  V30 30 C 3.26861 -0.868959 0.897981 0
M  V30 31 C 4.60016 -0.643653 1.0757 0
M  V30 32 H 8.43053 -0.963966 0.924754 0
M  V30 33 H 7.31116 -2.20239 0.32263 0
M  V30 34 H 8.85038 -1.78772 -0.601036 0
M  V30 35 H 7.76263 -0.20903 -1.84417 0
M  V30 36 H 6.27119 -0.725853 -1.04435 0
M  V30 37 H 8.32807 1.30055 0.0408625 0
M  V30 38 H 6.84534 1.75776 -0.831963 0
M  V30 39 H 7.02693 0.231134 1.81097 0
M  V30 40 H 6.60333 1.9854 1.59192 0
M  V30 41 H 4.62943 2.65951 0.507222 0
M  V30 42 H 2.25443 2.23649 0.188351 0
M  V30 43 H 0.779463 -1.25283 0.447285 0
M  V30 44 H -2.1644 2.86038 -1.03134 0
M  V30 45 H -2.23902 2.9107 0.771919 0
M  V30 46 H -7.07216 3.04656 -0.750294 0
M  V30 47 H -9.42437 2.27901 -1.00593 0
M  V30 48 H -9.90571 -0.136217 -0.94457 0
M  V30 49 H -8.03057 -1.79025 -0.626715 0
M  V30 50 H -3.53024 -3.5638 -0.921139 0
M  V30 51 H -3.53403 -3.66089 0.858841 0
M  V30 52 H -1.03346 -1.97806 0.258291 0
M  V30 53 H 2.91878 -1.87636 1.0162 0
M  V30 54 H 5.25854 -1.46962 1.33734 0
M  V30 END ATOM
M  V30 BEGIN BOND
M  V30 1 1 1 2
M  V30 2 1 2 3
M  V30 3 1 3 4
M  V30 4 1 4 5
M  V30 5 2 5 6
M  V30 6 1 6 7
M  V30 7 2 7 8
M  V30 8 1 8 9
M  V30 9 1 9 10
M  V30 10 2 10 11
M  V30 11 1 10 12
M  V30 12 2 12 13
M  V30 13 1 13 14
M  V30 14 1 13 15
M  V30 15 2 15 16
M  V30 16 1 16 17
M  V30 17 2 17 18
M  V30 18 1 17 19
M  V30 19 2 19 20
M  V30 20 1 20 21
M  V30 21 2 21 22
M  V30 22 1 22 23
M  V30 23 2 23 24
M  V30 24 1 20 25
M  V30 25 2 25 26
M  V30 26 1 16 27
M  V30 27 1 27 28
M  V30 28 2 27 29
M  V30 29 1 8 30
M  V30 30 2 30 31
M  V30 31 1 31 5
M  V30 32 1 29 12
M  V30 33 1 25 15
M  V30 34 1 24 19
M  V30 35 1 1 32
M  V30 36 1 1 33
M  V30 37 1 1 34
M  V30 38 1 2 35
M  V30 39 1 2 36
M  V30 40 1 3 37
M  V30 41 1 3 38
M  V30 42 1 4 39
M  V30 43 1 4 40
M  V30 44 1 6 41
M  V30 45 1 7 42
M  V30 46 1 9 43
M  V30 47 1 14 44
M  V30 48 1 14 45
M  V30 49 1 21 46
M  V30 50 1 22 47
M  V30 51 1 23 48
M  V30 52 1 24 49
M  V30 53 1 28 50
M  V30 54 1 28 51
M  V30 55 1 29 52
M  V30 56 1 30 53
M  V30 57 1 31 54
M  V30 END BOND
M  V30 END CTAB
M  END
