
     RDKit          3D

  0  0  0  0  0  0  0  0  0  0999 V3000
M  V30 BEGIN CTAB
M  V30 COUNTS 97 98 0 0 0
M  V30 BEGIN ATOM
M  V30 1 C 0.277139 -0.580575 -2.62373 0
M  V30 2 C 1.37992 -0.0740018 -1.69008 0
M  V30 3 C 1.74357 1.28147 -2.15268 0
M  V30 4 C 0.912927 -0.181328 -0.271176 0 CFG=2
M  V30 5 N -0.245519 0.548313 0.0658515 0
M  V30 6 C -1.55211 0.142822 0.354741 0
M  V30 7 O -1.78761 -1.0961 0.288661 0
M  V30 8 C -2.66664 0.998632 0.728763 0 CFG=2
M  V30 9 C -2.81422 1.06415 2.26466 0
M  V30 10 O -1.65707 1.54455 2.86595 0
M  V30 11 N -3.97586 0.475401 0.292914 0
M  V30 12 C -4.96809 1.37208 -0.0356351 0
M  V30 13 O -4.62756 2.63567 0.0743635 0
M  V30 14 C -6.33895 1.17745 -0.488406 0 CFG=2
M  V30 15 C -6.68443 -0.157572 -0.971028 0
M  V30 16 C -6.61448 -1.23869 0.0151588 0
M  V30 17 C -6.69216 -1.20601 1.38773 0
M  V30 18 N -6.63081 -2.45657 1.81491 0
M  V30 19 C -6.51425 -3.33995 0.791235 0
M  V30 20 C -6.50225 -2.58504 -0.363263 0
M  V30 21 C -6.40228 -3.20814 -1.59716 0
M  V30 22 C -6.31753 -4.57675 -1.65359 0
M  V30 23 C -6.33079 -5.33712 -0.490471 0
M  V30 24 C -6.42837 -4.70852 0.704367 0
M  V30 25 N -6.75872 2.25472 -1.38856 0
M  V30 26 C -7.58318 3.32841 -0.988715 0
M  V30 27 O -7.98788 3.37244 0.21982 0
M  V30 28 C -7.98784 4.39872 -1.91804 0 CFG=2
M  V30 29 C -6.85999 5.0226 -2.66809 0
M  V30 30 N -8.73959 5.44077 -1.23809 0
M  V30 31 C 2.03553 0.277061 0.579368 0
M  V30 32 O 2.10446 1.48746 0.956334 0
M  V30 33 N 3.03224 -0.664786 0.96806 0
M  V30 34 C 4.15386 -0.270128 1.79304 0 CFG=1
M  V30 35 C 3.89007 -0.607036 3.25967 0
M  V30 36 C 5.37465 -0.950117 1.31884 0
M  V30 37 O 5.37096 -1.76349 0.341843 0
M  V30 38 N 6.5812 -0.690955 1.9761 0
M  V30 39 C 7.82487 -1.3587 1.5554 0 CFG=1
M  V30 40 C 8.89752 -0.346958 1.68765 0
M  V30 41 C 8.81111 0.872195 0.917811 0
M  V30 42 C 9.02211 0.931118 -0.511563 0
M  V30 43 N 8.33809 0.265452 -1.51852 0
M  V30 44 C 8.36263 -1.06946 -1.96805 0
M  V30 45 N 7.2542 -1.64942 -2.6331 0
M  V30 46 N 9.41493 -1.83622 -1.80451 0
M  V30 47 C 8.08383 -2.42548 2.63418 0
M  V30 48 O 9.18245 -3.22066 2.61753 0
M  V30 49 O 7.20678 -2.50493 3.52948 0
M  V30 50 H 0.619729 -0.636087 -3.67388 0
M  V30 51 H 0.0965326 -1.64208 -2.32467 0
M  V30 52 H -0.649842 -0.0468506 -2.50715 0
M  V30 53 H 2.23068 -0.754575 -1.86834 0
M  V30 54 H 1.21162 1.59813 -3.103 0
M  V30 55 H 2.81633 1.29365 -2.44259 0
M  V30 56 H 1.65563 2.07485 -1.37949 0
M  V30 57 H 0.765377 -1.25326 -0.0682835 0
M  V30 58 H -0.117153 1.61433 0.0998072 0
M  V30 59 H -2.6313 2.05312 0.437391 0
M  V30 60 H -3.61274 1.808 2.44012 0
M  V30 61 H -3.15236 0.109995 2.67549 0
M  V30 62 H -0.958727 0.826637 2.96015 0
M  V30 63 H -4.03694 -0.535006 0.246047 0
M  V30 64 H -6.98799 1.42494 0.459218 0
M  V30 65 H -7.71932 -0.128183 -1.42092 0
M  V30 66 H -6.04523 -0.476392 -1.84084 0
M  V30 67 H -6.78722 -0.281541 1.96822 0
M  V30 68 H -6.66395 -2.77739 2.82034 0
M  V30 69 H -6.3957 -2.5889 -2.49959 0
M  V30 70 H -6.24348 -5.03678 -2.62133 0
M  V30 71 H -6.26279 -6.42498 -0.606552 0
M  V30 72 H -6.43861 -5.32055 1.60776 0
M  V30 73 H -6.4065 2.19121 -2.3818 0
M  V30 74 H -8.69512 3.94048 -2.6537 0
M  V30 75 H -5.89434 4.75935 -2.15514 0
M  V30 76 H -6.96159 6.11771 -2.806 0
M  V30 77 H -6.78675 4.58842 -3.67235 0
M  V30 78 H -9.24436 6.0696 -1.86962 0
M  V30 79 H -8.14419 5.91186 -0.513942 0
M  V30 80 H 2.96386 -1.63657 0.66275 0
M  V30 81 H 4.21529 0.834859 1.77242 0
M  V30 82 H 3.24489 0.168757 3.7368 0
M  V30 83 H 3.51521 -1.63629 3.38081 0
M  V30 84 H 4.86806 -0.555315 3.81236 0
M  V30 85 H 6.62449 -0.0124378 2.77945 0
M  V30 86 H 7.63837 -1.87131 0.641908 0
M  V30 87 H 8.90071 -0.0732976 2.81112 0
M  V30 88 H 9.90736 -0.866418 1.55956 0
M  V30 89 H 9.54997 1.65839 1.39773 0
M  V30 90 H 7.81014 1.43918 1.19081 0
M  V30 91 H 10.1722 0.728365 -0.713568 0
M  V30 92 H 9.07337 2.07867 -0.808962 0
M  V30 93 H 7.63406 0.877991 -2.0965 0
M  V30 94 H 7.31779 -2.49531 -3.23749 0
M  V30 95 H 6.32159 -1.20825 -2.51395 0
M  V30 96 H 10.2343 -1.42969 -1.33102 0
M  V30 97 H 9.8617 -3.26781 3.37991 0
M  V30 END ATOM
M  V30 BEGIN BOND
M  V30 1 1 1 2
M  V30 2 1 2 3
M  V30 3 1 2 4
M  V30 4 1 4 5
M  V30 5 1 5 6
M  V30 6 2 6 7
M  V30 7 1 6 8
M  V30 8 1 8 9
M  V30 9 1 9 10
M  V30 10 1 8 11
M  V30 11 1 11 12
M  V30 12 2 12 13
M  V30 13 1 12 14
M  V30 14 1 14 15
M  V30 15 1 15 16
M  V30 16 2 16 17
M  V30 17 1 17 18
M  V30 18 1 18 19
M  V30 19 2 19 20
M  V30 20 1 20 21
M  V30 21 2 21 22
M  V30 22 1 22 23
M  V30 23 2 23 24
M  V30 24 1 14 25
M  V30 25 1 25 26
M  V30 26 2 26 27
M  V30 27 1 26 28
M  V30 28 1 28 29
M  V30 29 1 28 30
M  V30 30 1 4 31
M  V30 31 2 31 32
M  V30 32 1 31 33
M  V30 33 1 33 34
M  V30 34 1 34 35
M  V30 35 1 34 36
M  V30 36 2 36 37
M  V30 37 1 36 38
M  V30 38 1 38 39
M  V30 39 1 39 40
M  V30 40 1 40 41
M  V30 41 1 41 42
M  V30 42 1 42 43
M  V30 43 1 43 44
M  V30 44 1 44 45
M  V30 45 2 44 46 CFG=2
M  V30 46 1 39 47
M  V30 47 1 47 48
M  V30 48 2 47 49
M  V30 49 1 20 16
M  V30 50 1 24 19
M  V30 51 1 1 50
M  V30 52 1 1 51
M  V30 53 1 1 52
M  V30 54 1 2 53
M  V30 55 1 3 54
M  V30 56 1 3 55
M  V30 57 1 3 56
M  V30 58 1 4 57 CFG=1
M  V30 59 1 5 58
M  V30 60 1 8 59 CFG=3
M  V30 61 1 9 60
M  V30 62 1 9 61
M  V30 63 1 10 62
M  V30 64 1 11 63
M  V30 65 1 14 64 CFG=1
M  V30 66 1 15 65
M  V30 67 1 15 66
M  V30 68 1 17 67
M  V30 69 1 18 68
M  V30 70 1 21 69
M  V30 71 1 22 70
M  V30 72 1 23 71
M  V30 73 1 24 72
M  V30 74 1 25 73
M  V30 75 1 28 74 CFG=3
M  V30 76 1 29 75
M  V30 77 1 29 76
M  V30 78 1 29 77
M  V30 79 1 30 78
M  V30 80 1 30 79
M  V30 81 1 33 80
M  V30 82 1 34 81 CFG=1
M  V30 83 1 35 82
M  V30 84 1 35 83
M  V30 85 1 35 84
M  V30 86 1 38 85
M  V30 87 1 39 86 CFG=3
M  V30 88 1 40 87
M  V30 89 1 40 88
M  V30 90 1 41 89
M  V30 91 1 41 90
M  V30 92 1 42 91
M  V30 93 1 42 92
M  V30 94 1 43 93
M  V30 95 1 45 94
M  V30 96 1 45 95
M  V30 97 1 46 96
M  V30 98 1 48 97
M  V30 END BOND
M  V30 END CTAB
M  END
