
     RDKit          3D

  0  0  0  0  0  0  0  0  0  0999 V3000
M  V30 BEGIN CTAB
M  V30 COUNTS 16 16 0 0 0
M  V30 BEGIN ATOM
M  V30 1 N -1.72527 1.34687 -0.162294 0
M  V30 2 C -0.478396 0.685091 -0.0560665 0
M  V30 3 C -0.452172 -0.692301 -0.00948147 0
M  V30 4 N -1.63449 -1.46738 -0.0645557 0
M  V30 5 C 0.744404 -1.37193 0.0939132 0
M  V30 6 F 0.804923 -2.71464 0.141694 0
M  V30 7 C 1.89631 -0.629673 0.148024 0
M  V30 8 F 3.0942 -1.25668 0.249838 0
M  V30 9 C 1.87752 0.762152 0.101475 0
M  V30 10 F 3.04693 1.47668 0.157685 0
M  V30 11 C 0.6739 1.42343 -0.00180028 0
M  V30 12 F 0.710647 2.77784 -0.0433279 0
M  V30 13 H -2.09129 1.79827 -1.02452 0
M  V30 14 H -2.33125 1.39108 0.682606 0
M  V30 15 H -1.80742 -2.06802 -0.900875 0
M  V30 16 H -2.32855 -1.4608 0.687688 0
M  V30 END ATOM
M  V30 BEGIN BOND
M  V30 1 1 1 2
M  V30 2 2 2 3
M  V30 3 1 3 4
M  V30 4 1 3 5
M  V30 5 1 5 6
M  V30 6 2 5 7
M  V30 7 1 7 8
M  V30 8 1 7 9
M  V30 9 1 9 10
M  V30 10 2 9 11
M  V30 11 1 11 12
M  V30 12 1 11 2
M  V30 13 1 1 13
M  V30 14 1 1 14
M  V30 15 1 4 15
M  V30 16 1 4 16
M  V30 END BOND
M  V30 END CTAB
M  END
