
     RDKit          3D

  0  0  0  0  0  0  0  0  0  0999 V3000
M  V30 BEGIN CTAB
M  V30 COUNTS 46 48 0 0 0
M  V30 BEGIN ATOM
M  V30 1 O 0.809926 -0.547993 -1.0742 0
M  V30 2 C 0.325252 0.43911 -0.440726 0
M  V30 3 C -0.926304 0.268342 0.379161 0
M  V30 4 C -1.94387 1.22178 -0.204795 0
M  V30 5 C -3.28251 1.12549 0.453386 0
M  V30 6 C -4.35693 0.798891 -0.548532 0
M  V30 7 C -4.19815 -0.55871 -1.16717 0
M  V30 8 C -3.87388 -1.63839 -0.174881 0
M  V30 9 C -2.79907 -1.23413 0.804639 0
M  V30 10 C -1.4464 -1.13174 0.176254 0
M  V30 11 C -3.2074 0.0429783 1.50761 0
M  V30 12 N -4.48495 -0.198389 2.14207 0
M  V30 13 N 0.960756 1.70298 -0.503896 0
M  V30 14 C 2.14812 1.93623 -1.25779 0
M  V30 15 C 3.30481 1.09416 -0.779628 0
M  V30 16 C 3.40315 0.344283 0.35912 0
M  V30 17 C 4.54357 -0.3243 0.562601 0
M  V30 18 C 5.52112 -0.199213 -0.39364 0
M  V30 19 S 4.81054 0.844225 -1.53563 0
M  V30 20 S 7.12129 -0.960484 -0.394472 0
M  V30 21 O 7.30123 -1.74962 -1.66 0
M  V30 22 O 8.12555 0.155186 -0.372134 0
M  V30 23 N 7.32369 -1.92168 1.00601 0
M  V30 24 H -0.659685 0.499353 1.41387 0
M  V30 25 H -2.04781 0.944759 -1.28733 0
M  V30 26 H -1.54793 2.25768 -0.203966 0
M  V30 27 H -3.58642 2.0885 0.940997 0
M  V30 28 H -5.36635 0.961975 -0.115239 0
M  V30 29 H -4.26232 1.55111 -1.37312 0
M  V30 30 H -3.46259 -0.546508 -2.00037 0
M  V30 31 H -5.17735 -0.825372 -1.6323 0
M  V30 32 H -3.48818 -2.51408 -0.742685 0
M  V30 33 H -4.77169 -1.98294 0.371096 0
M  V30 34 H -2.75124 -2.02871 1.58211 0
M  V30 35 H -1.49983 -1.32912 -0.908957 0
M  V30 36 H -0.704015 -1.82265 0.641481 0
M  V30 37 H -2.49306 0.30954 2.29852 0
M  V30 38 H -5.25894 -0.313964 1.48039 0
M  V30 39 H -4.67023 0.431512 2.93425 0
M  V30 40 H 0.538622 2.49284 0.0249044 0
M  V30 41 H 1.99987 1.62009 -2.32627 0
M  V30 42 H 2.48801 2.96881 -1.2748 0
M  V30 43 H 2.54605 0.317833 1.06652 0
M  V30 44 H 4.7259 -0.964308 1.45848 0
M  V30 45 H 7.86875 -1.39282 1.71717 0
M  V30 46 H 6.40089 -2.23254 1.38832 0
M  V30 END ATOM
M  V30 BEGIN BOND
M  V30 1 2 1 2
M  V30 2 1 2 3
M  V30 3 1 3 4
M  V30 4 1 4 5
M  V30 5 1 5 6
M  V30 6 1 6 7
M  V30 7 1 7 8
M  V30 8 1 8 9
M  V30 9 1 9 10
M  V30 10 1 9 11
M  V30 11 1 11 12
M  V30 12 1 2 13
M  V30 13 1 13 14
M  V30 14 1 14 15
M  V30 15 2 15 16
M  V30 16 1 16 17
M  V30 17 2 17 18
M  V30 18 1 18 19
M  V30 19 1 18 20
M  V30 20 2 20 21
M  V30 21 2 20 22
M  V30 22 1 20 23
M  V30 23 1 10 3
M  V30 24 1 19 15
M  V30 25 1 11 5
M  V30 26 1 3 24
M  V30 27 1 4 25
M  V30 28 1 4 26
M  V30 29 1 5 27
M  V30 30 1 6 28
M  V30 31 1 6 29
M  V30 32 1 7 30
M  V30 33 1 7 31
M  V30 34 1 8 32
M  V30 35 1 8 33
M  V30 36 1 9 34
M  V30 37 1 10 35
M  V30 38 1 10 36
M  V30 39 1 11 37
M  V30 40 1 12 38
M  V30 41 1 12 39
M  V30 42 1 13 40
M  V30 43 1 14 41
M  V30 44 1 14 42
M  V30 45 1 16 43
M  V30 46 1 17 44
M  V30 47 1 23 45
M  V30 48 1 23 46
M  V30 END BOND
M  V30 END CTAB
M  END
