
     RDKit          3D

  0  0  0  0  0  0  0  0  0  0999 V3000
M  V30 BEGIN CTAB
M  V30 COUNTS 54 58 0 0 0
M  V30 BEGIN ATOM
M  V30 1 C -7.38683 0.0804254 -0.296458 0
M  V30 2 C -7.08753 0.229284 1.20406 0
M  V30 3 N -8.19642 -0.416832 1.91414 0
M  V30 4 C -5.84529 -0.521066 1.52187 0
M  V30 5 O -5.97854 -1.60293 2.20486 0
M  V30 6 N -4.56359 -0.0945536 1.10967 0
M  V30 7 C -4.41444 1.11689 0.36108 0
M  V30 8 C -3.71561 0.717867 -0.948534 0
M  V30 9 N -2.47964 0.123527 -0.570504 0
M  V30 10 C -2.52281 -1.09701 0.212474 0
M  V30 11 C -3.41028 -0.880977 1.44383 0
M  V30 12 C -1.20989 0.651166 -0.910028 0
M  V30 13 N -0.0650208 0.0209739 -0.531846 0
M  V30 14 C 1.16151 0.475286 -0.824519 0
M  V30 15 C 1.26486 1.64524 -1.54838 0
M  V30 16 C 2.50194 2.17603 -1.8884 0
M  V30 17 C 3.61427 1.48797 -1.47421 0
M  V30 18 C 3.5744 0.315327 -0.749308 0
M  V30 19 C 2.31339 -0.172784 -0.435369 0
M  V30 20 C 4.79917 -0.360757 -0.343154 0
M  V30 21 C 4.90509 -1.72712 -0.196806 0
M  V30 22 C 6.10159 -2.33208 0.195489 0
M  V30 23 C 7.20741 -1.54571 0.44367 0
M  V30 24 O 8.43569 -1.84539 0.81908 0
M  V30 25 C 9.14085 -0.753693 0.927172 0
M  V30 26 N 10.5087 -0.603304 1.30406 0
M  V30 27 N 8.34425 0.289782 0.61153 0
M  V30 28 C 7.12255 -0.176487 0.303109 0
M  V30 29 C 5.92964 0.392769 -0.0851548 0
M  V30 30 N 0.157085 2.30821 -1.94714 0
M  V30 31 C -1.05179 1.81167 -1.62853 0
M  V30 32 H -6.64674 -0.567823 -0.793687 0
M  V30 33 H -8.38359 -0.402559 -0.445578 0
M  V30 34 H -7.4442 1.09384 -0.756294 0
M  V30 35 H -7.0102 1.28671 1.49189 0
M  V30 36 H -9.09893 0.022474 1.6329 0
M  V30 37 H -8.13669 -1.43202 1.64626 0
M  V30 38 H -3.69087 1.76133 0.955436 0
M  V30 39 H -5.32887 1.68327 0.189403 0
M  V30 40 H -4.36664 -0.113456 -1.35528 0
M  V30 41 H -3.69327 1.51823 -1.67542 0
M  V30 42 H -2.95677 -1.93282 -0.382081 0
M  V30 43 H -1.53503 -1.42216 0.547925 0
M  V30 44 H -3.70301 -1.86493 1.84478 0
M  V30 45 H -2.77794 -0.29867 2.17349 0
M  V30 46 H 2.57294 3.10741 -2.4644 0
M  V30 47 H 4.58679 1.89167 -1.73334 0
M  V30 48 H 2.25077 -1.07438 0.122388 0
M  V30 49 H 4.03646 -2.32437 -0.393588 0
M  V30 50 H 6.19032 -3.40198 0.311799 0
M  V30 51 H 10.8721 -1.04919 2.17452 0
M  V30 52 H 11.1291 -0.0441284 0.696697 0
M  V30 53 H 5.88097 1.47086 -0.190651 0
M  V30 54 H -1.90139 2.38096 -1.9711 0
M  V30 END ATOM
M  V30 BEGIN BOND
M  V30 1 1 1 2
M  V30 2 1 2 3
M  V30 3 1 2 4
M  V30 4 2 4 5
M  V30 5 1 4 6
M  V30 6 1 6 7
M  V30 7 1 7 8
M  V30 8 1 8 9
M  V30 9 1 9 10
M  V30 10 1 10 11
M  V30 11 1 9 12
M  V30 12 2 12 13
M  V30 13 1 13 14
M  V30 14 2 14 15
M  V30 15 1 15 16
M  V30 16 2 16 17
M  V30 17 1 17 18
M  V30 18 2 18 19
M  V30 19 1 18 20
M  V30 20 2 20 21
M  V30 21 1 21 22
M  V30 22 2 22 23
M  V30 23 1 23 24
M  V30 24 1 24 25
M  V30 25 1 25 26
M  V30 26 2 25 27
M  V30 27 1 27 28
M  V30 28 2 28 29
M  V30 29 1 15 30
M  V30 30 2 30 31
M  V30 31 1 11 6
M  V30 32 1 31 12
M  V30 33 1 19 14
M  V30 34 1 29 20
M  V30 35 1 28 23
M  V30 36 1 1 32
M  V30 37 1 1 33
M  V30 38 1 1 34
M  V30 39 1 2 35
M  V30 40 1 3 36
M  V30 41 1 3 37
M  V30 42 1 7 38
M  V30 43 1 7 39
M  V30 44 1 8 40
M  V30 45 1 8 41
M  V30 46 1 10 42
M  V30 47 1 10 43
M  V30 48 1 11 44
M  V30 49 1 11 45
M  V30 50 1 16 46
M  V30 51 1 17 47
M  V30 52 1 19 48
M  V30 53 1 21 49
M  V30 54 1 22 50
M  V30 55 1 26 51
M  V30 56 1 26 52
M  V30 57 1 29 53
M  V30 58 1 31 54
M  V30 END BOND
M  V30 END CTAB
M  END
