
     RDKit          3D

  0  0  0  0  0  0  0  0  0  0999 V3000
M  V30 BEGIN CTAB
M  V30 COUNTS 27 28 0 0 0
M  V30 BEGIN ATOM
M  V30 1 N -2.95913 2.21298 -0.331099 0
M  V30 2 N -3.12693 0.919432 0.15062 0
M  V30 3 C -2.03847 0.0244839 0.375547 0
M  V30 4 N -0.76927 0.402954 0.1249 0
M  V30 5 C 0.308533 -0.377463 0.309488 0
M  V30 6 C 0.0715468 -1.64187 0.786876 0
M  V30 7 C -1.23287 -2.06985 1.05855 0
M  V30 8 O -1.47263 -3.21886 1.49456 0
M  V30 9 N -2.24164 -1.225 0.844511 0
M  V30 10 N -3.53457 -1.65237 1.11494 0
M  V30 11 C 1.66056 0.0704869 0.0263482 0
M  V30 12 C 2.78101 -0.704342 0.205097 0
M  V30 13 C 4.06889 -0.276885 -0.0648677 0
M  V30 14 C 4.24418 1.00099 -0.541552 0
M  V30 15 C 3.16658 1.82255 -0.74101 0
M  V30 16 C 1.90697 1.35402 -0.458775 0
M  V30 17 H -3.60674 2.35897 -1.13963 0
M  V30 18 H -3.18278 2.92705 0.406262 0
M  V30 19 H -4.08782 0.589964 0.355922 0
M  V30 20 H 0.847299 -2.36377 0.977517 0
M  V30 21 H -3.89418 -2.49339 0.617459 0
M  V30 22 H -4.17272 -1.18192 1.78878 0
M  V30 23 H 2.68612 -1.71561 0.578391 0
M  V30 24 H 4.91104 -0.949517 0.102042 0
M  V30 25 H 5.2508 1.3642 -0.763052 0
M  V30 26 H 3.34441 2.81618 -1.1154 0
M  V30 27 H 1.07178 2.00659 -0.619078 0
M  V30 END ATOM
M  V30 BEGIN BOND
M  V30 1 1 1 2
M  V30 2 1 2 3
M  V30 3 2 3 4
M  V30 4 1 4 5
M  V30 5 2 5 6
M  V30 6 1 6 7
M  V30 7 2 7 8
M  V30 8 1 7 9
M  V30 9 1 9 10
M  V30 10 1 5 11
M  V30 11 2 11 12
M  V30 12 1 12 13
M  V30 13 2 13 14
M  V30 14 1 14 15
M  V30 15 2 15 16
M  V30 16 1 9 3
M  V30 17 1 16 11
M  V30 18 1 1 17
M  V30 19 1 1 18
M  V30 20 1 2 19
M  V30 21 1 6 20
M  V30 22 1 10 21
M  V30 23 1 10 22
M  V30 24 1 12 23
M  V30 25 1 13 24
M  V30 26 1 14 25
M  V30 27 1 15 26
M  V30 28 1 16 27
M  V30 END BOND
M  V30 END CTAB
M  END
