
     RDKit          3D

  0  0  0  0  0  0  0  0  0  0999 V3000
M  V30 BEGIN CTAB
M  V30 COUNTS 28 28 0 0 0
M  V30 BEGIN ATOM
M  V30 1 N 2.86282 -1.33784 -0.00566868 0
M  V30 2 C 1.65062 -1.07496 -0.723017 0
M  V30 3 C 0.559539 -0.50727 0.189117 0 CFG=1
M  V30 4 C 0.981432 0.78474 0.826025 0
M  V30 5 C 1.08558 1.90115 -0.180235 0
M  V30 6 O -0.0756757 2.65403 -0.0923372 0
M  V30 7 C -1.22931 1.87898 -0.122422 0
M  V30 8 C -1.12579 0.706669 -1.05862 0
M  V30 9 N -0.662549 -0.488606 -0.48821 0
M  V30 10 S -1.80295 -1.65377 -0.0880286 0
M  V30 11 O -1.2556 -3.04496 -0.363326 0
M  V30 12 O -3.0095 -1.47624 -0.970295 0
M  V30 13 N -2.33962 -1.60237 1.54054 0
M  V30 14 H 3.68214 -0.878342 -0.424217 0
M  V30 15 H 2.83056 -1.1755 1.00016 0
M  V30 16 H 1.25951 -2.05625 -1.09202 0
M  V30 17 H 1.86377 -0.414638 -1.5668 0
M  V30 18 H 0.488505 -1.25752 1.03203 0
M  V30 19 H 1.97278 0.654177 1.27976 0
M  V30 20 H 0.264418 1.00341 1.63999 0
M  V30 21 H 1.92738 2.60437 0.0766296 0
M  V30 22 H 1.29708 1.5344 -1.18998 0
M  V30 23 H -2.04456 2.55773 -0.489074 0
M  V30 24 H -1.5513 1.53486 0.876625 0
M  V30 25 H -0.516521 1.00587 -1.96178 0
M  V30 26 H -2.14947 0.528956 -1.4669 0
M  V30 27 H -1.65469 -1.15485 2.18853 0
M  V30 28 H -3.3086 -1.22622 1.63353 0
M  V30 END ATOM
M  V30 BEGIN BOND
M  V30 1 1 1 2
M  V30 2 1 2 3
M  V30 3 1 3 4
M  V30 4 1 4 5
M  V30 5 1 5 6
M  V30 6 1 6 7
M  V30 7 1 7 8
M  V30 8 1 8 9
M  V30 9 1 9 10
M  V30 10 2 10 11
M  V30 11 2 10 12
M  V30 12 1 10 13
M  V30 13 1 9 3
M  V30 14 1 1 14
M  V30 15 1 1 15
M  V30 16 1 2 16
M  V30 17 1 2 17
M  V30 18 1 3 18 CFG=1
M  V30 19 1 4 19
M  V30 20 1 4 20
M  V30 21 1 5 21
M  V30 22 1 5 22
M  V30 23 1 7 23
M  V30 24 1 7 24
M  V30 25 1 8 25
M  V30 26 1 8 26
M  V30 27 1 13 27
M  V30 28 1 13 28
M  V30 END BOND
M  V30 END CTAB
M  END
