
     RDKit          3D

  0  0  0  0  0  0  0  0  0  0999 V3000
M  V30 BEGIN CTAB
M  V30 COUNTS 23 23 0 0 0
M  V30 BEGIN ATOM
M  V30 1 C 1.47353 -0.284716 -1.71639 0
M  V30 2 C 0.839031 0.552785 -0.617414 0
M  V30 3 C -0.450231 0.0754621 -0.148337 0
M  V30 4 C -0.90866 -1.21288 -0.364493 0
M  V30 5 C -2.12336 -1.63692 0.116106 0
M  V30 6 C -2.88284 -0.740058 0.828964 0
M  V30 7 N -2.44327 0.515474 1.0436 0
M  V30 8 C -1.24941 0.936381 0.570143 0
M  V30 9 N -0.793802 2.2601 0.794297 0
M  V30 10 N 1.72977 0.599121 0.540443 0
M  V30 11 N 2.11894 -0.600124 1.01989 0
M  V30 12 H 1.9881 0.385833 -2.46671 0
M  V30 13 H 0.682683 -0.797646 -2.27764 0
M  V30 14 H 2.26022 -0.925923 -1.30112 0
M  V30 15 H 0.73806 1.57871 -1.01018 0
M  V30 16 H -0.302896 -1.91462 -0.920442 0
M  V30 17 H -2.46647 -2.66774 -0.0698972 0
M  V30 18 H -3.851 -1.06035 1.22891 0
M  V30 19 H 0.159135 2.51174 1.11854 0
M  V30 20 H -1.45821 3.08463 0.62603 0
M  V30 21 H 2.37876 1.37575 0.568582 0
M  V30 22 H 3.04949 -0.659349 1.40436 0
M  V30 23 H 1.51242 -1.37564 1.03276 0
M  V30 END ATOM
M  V30 BEGIN BOND
M  V30 1 1 1 2
M  V30 2 1 2 3
M  V30 3 2 3 4
M  V30 4 1 4 5
M  V30 5 2 5 6
M  V30 6 1 6 7
M  V30 7 2 7 8
M  V30 8 1 8 9
M  V30 9 1 2 10
M  V30 10 1 10 11
M  V30 11 1 8 3
M  V30 12 1 1 12
M  V30 13 1 1 13
M  V30 14 1 1 14
M  V30 15 1 2 15
M  V30 16 1 4 16
M  V30 17 1 5 17
M  V30 18 1 6 18
M  V30 19 1 9 19
M  V30 20 1 9 20
M  V30 21 1 10 21
M  V30 22 1 11 22
M  V30 23 1 11 23
M  V30 END BOND
M  V30 END CTAB
M  END
