
     RDKit          3D

  0  0  0  0  0  0  0  0  0  0999 V3000
M  V30 BEGIN CTAB
M  V30 COUNTS 39 40 0 0 0
M  V30 BEGIN ATOM
M  V30 1 N 4.50781 0.864038 -1.14511 0
M  V30 2 C 4.09363 -0.474825 -1.52128 0
M  V30 3 C 2.96748 -0.974944 -0.645543 0
M  V30 4 C 3.31341 -1.04299 0.804163 0
M  V30 5 C 2.20862 -0.264579 1.47948 0
M  V30 6 N 1.09473 -0.270893 0.502497 0
M  V30 7 C 1.75232 -0.0503619 -0.744523 0
M  V30 8 C -0.251603 -0.47391 0.882047 0
M  V30 9 O -0.435497 -0.692354 2.13505 0
M  V30 10 C -1.44491 -0.468295 0.050916 0
M  V30 11 C -2.54112 0.354775 0.601378 0
M  V30 12 C -3.0097 0.189956 1.86957 0
M  V30 13 C -4.03292 1.00801 2.36731 0
M  V30 14 C -4.57015 1.98935 1.56135 0
M  V30 15 C -4.07581 2.13096 0.282365 0
M  V30 16 C -3.07624 1.34729 -0.23253 0
M  V30 17 Br -5.97026 3.13188 2.19784 0
M  V30 18 N -1.21944 -0.0857185 -1.33201 0
M  V30 19 C -1.98696 -1.92962 -0.0825992 0
M  V30 20 H 5.50484 0.973506 -1.43758 0
M  V30 21 H 3.96852 1.56403 -1.70227 0
M  V30 22 H 4.96503 -1.12955 -1.43438 0
M  V30 23 H 3.69086 -0.458609 -2.56409 0
M  V30 24 H 2.63018 -1.97202 -0.97951 0
M  V30 25 H 4.30816 -0.59248 0.959162 0
M  V30 26 H 3.34952 -2.10423 1.17324 0
M  V30 27 H 1.89633 -0.714508 2.42628 0
M  V30 28 H 2.52652 0.795188 1.62166 0
M  V30 29 H 1.20905 -0.275003 -1.65599 0
M  V30 30 H 2.1615 0.985569 -0.712624 0
M  V30 31 H -2.65404 -0.568118 2.54152 0
M  V30 32 H -4.42161 0.903922 3.35879 0
M  V30 33 H -4.53659 2.92657 -0.321027 0
M  V30 34 H -2.7362 1.50791 -1.24286 0
M  V30 35 H -2.04743 -0.296354 -1.8964 0
M  V30 36 H -0.841641 0.881434 -1.42962 0
M  V30 37 H -1.92177 -2.43417 0.881253 0
M  V30 38 H -3.00428 -1.84552 -0.496489 0
M  V30 39 H -1.37029 -2.43534 -0.854919 0
M  V30 END ATOM
M  V30 BEGIN BOND
M  V30 1 1 1 2
M  V30 2 1 2 3
M  V30 3 1 3 4
M  V30 4 1 4 5
M  V30 5 1 5 6
M  V30 6 1 6 7
M  V30 7 1 6 8
M  V30 8 2 8 9
M  V30 9 1 8 10
M  V30 10 1 10 11
M  V30 11 2 11 12
M  V30 12 1 12 13
M  V30 13 2 13 14
M  V30 14 1 14 15
M  V30 15 2 15 16
M  V30 16 1 14 17
M  V30 17 1 10 18
M  V30 18 1 10 19
M  V30 19 1 7 3
M  V30 20 1 16 11
M  V30 21 1 1 20
M  V30 22 1 1 21
M  V30 23 1 2 22
M  V30 24 1 2 23
M  V30 25 1 3 24
M  V30 26 1 4 25
M  V30 27 1 4 26
M  V30 28 1 5 27
M  V30 29 1 5 28
M  V30 30 1 7 29
M  V30 31 1 7 30
M  V30 32 1 12 31
M  V30 33 1 13 32
M  V30 34 1 15 33
M  V30 35 1 16 34
M  V30 36 1 18 35
M  V30 37 1 18 36
M  V30 38 1 19 37
M  V30 39 1 19 38
M  V30 40 1 19 39
M  V30 END BOND
M  V30 END CTAB
M  END
