
     RDKit          3D

  0  0  0  0  0  0  0  0  0  0999 V3000
M  V30 BEGIN CTAB
M  V30 COUNTS 62 65 0 0 0
M  V30 BEGIN ATOM
M  V30 1 O -9.86812 0.319872 -1.29633 0
M  V30 2 C -8.49279 0.401139 -1.24904 0
M  V30 3 C -7.86931 1.03002 -0.185419 0
M  V30 4 C -6.49146 1.12621 -0.112082 0
M  V30 5 C -5.69251 0.606157 -1.08276 0
M  V30 6 C -6.32816 -0.0251788 -2.15011 0
M  V30 7 C -7.69724 -0.131155 -2.24153 0
M  V30 8 C -4.21494 0.650985 -1.0935 0
M  V30 9 C -3.5941 -0.587849 -0.446597 0 CFG=1
M  V30 10 C -2.12986 -0.522599 -0.473003 0
M  V30 11 O -1.59209 -0.272337 -1.62368 0
M  V30 12 N -1.22441 -0.694388 0.578219 0
M  V30 13 C 0.231072 -0.588319 0.382847 0 CFG=1
M  V30 14 C 0.684258 0.57098 1.22399 0
M  V30 15 C 2.18326 0.76894 1.17776 0
M  V30 16 C 2.85002 -0.578177 0.989945 0 CFG=1
M  V30 17 C 1.99184 -1.57789 1.73926 0 CFG=1
M  V30 18 C 0.821807 -1.89792 0.833846 0
M  V30 19 O 2.70134 -2.7069 2.1109 0
M  V30 20 O 2.85439 -0.836609 -0.380049 0
M  V30 21 C 4.2395 -0.605862 1.57542 0
M  V30 22 N 5.11609 0.358455 0.988996 0
M  V30 23 C 5.30064 1.61917 1.41175 0
M  V30 24 N 6.19815 2.21006 0.606424 0
M  V30 25 C 6.6054 1.34411 -0.344624 0
M  V30 26 C 5.9105 0.173458 -0.0894251 0
M  V30 27 N 6.12546 -0.866072 -0.892171 0
M  V30 28 C 6.97431 -0.842142 -1.92998 0
M  V30 29 N 7.64349 0.295157 -2.17057 0
M  V30 30 C 7.4676 1.37722 -1.39423 0
M  V30 31 N 8.18898 2.54334 -1.68475 0
M  V30 32 C -1.7 -0.991972 1.91076 0
M  V30 33 N -4.2051 -0.78549 0.819033 0
M  V30 34 H -10.4718 0.972649 -1.70626 0
M  V30 35 H -8.52428 1.44125 0.584196 0
M  V30 36 H -6.06528 1.62556 0.727513 0
M  V30 37 H -5.72908 -0.45391 -2.94649 0
M  V30 38 H -8.15837 -0.629572 -3.08673 0
M  V30 39 H -3.87068 0.805431 -2.11821 0
M  V30 40 H -3.90741 1.56956 -0.516844 0
M  V30 41 H -3.92133 -1.44633 -1.09717 0
M  V30 42 H 0.398649 -0.36527 -0.68094 0
M  V30 43 H 0.231267 1.49002 0.797623 0
M  V30 44 H 0.298925 0.471801 2.24558 0
M  V30 45 H 2.47744 1.25179 2.13627 0
M  V30 46 H 2.48058 1.47307 0.373322 0
M  V30 47 H 1.57969 -1.1339 2.66673 0
M  V30 48 H 0.12996 -2.53508 1.39388 0
M  V30 49 H 1.15587 -2.45541 -0.074906 0
M  V30 50 H 3.0249 -2.67037 3.05389 0
M  V30 51 H 3.07592 -0.0149205 -0.89302 0
M  V30 52 H 4.64028 -1.63726 1.50375 0
M  V30 53 H 4.10693 -0.426378 2.68122 0
M  V30 54 H 4.83517 2.12154 2.24709 0
M  V30 55 H 7.11428 -1.71775 -2.55546 0
M  V30 56 H 9.14874 2.7051 -1.32551 0
M  V30 57 H 7.76171 3.27982 -2.27856 0
M  V30 58 H -2.25166 -0.141481 2.35178 0
M  V30 59 H -2.2693 -1.95527 1.97131 0
M  V30 60 H -0.817728 -1.19609 2.60487 0
M  V30 61 H -4.40577 0.0680028 1.37726 0
M  V30 62 H -5.05565 -1.38102 0.8058 0
M  V30 END ATOM
M  V30 BEGIN BOND
M  V30 1 1 1 2
M  V30 2 2 2 3
M  V30 3 1 3 4
M  V30 4 2 4 5
M  V30 5 1 5 6
M  V30 6 2 6 7
M  V30 7 1 5 8
M  V30 8 1 8 9
M  V30 9 1 9 10
M  V30 10 2 10 11
M  V30 11 1 10 12
M  V30 12 1 12 13
M  V30 13 1 13 14
M  V30 14 1 14 15
M  V30 15 1 15 16
M  V30 16 1 16 17
M  V30 17 1 17 18
M  V30 18 1 17 19
M  V30 19 1 16 20 CFG=3
M  V30 20 1 16 21
M  V30 21 1 21 22
M  V30 22 1 22 23
M  V30 23 2 23 24
M  V30 24 1 24 25
M  V30 25 2 25 26
M  V30 26 1 26 27
M  V30 27 2 27 28
M  V30 28 1 28 29
M  V30 29 2 29 30
M  V30 30 1 30 31
M  V30 31 1 12 32
M  V30 32 1 9 33
M  V30 33 1 7 2
M  V30 34 1 18 13
M  V30 35 1 26 22
M  V30 36 1 30 25
M  V30 37 1 1 34
M  V30 38 1 3 35
M  V30 39 1 4 36
M  V30 40 1 6 37
M  V30 41 1 7 38
M  V30 42 1 8 39
M  V30 43 1 8 40
M  V30 44 1 9 41 CFG=3
M  V30 45 1 13 42 CFG=3
M  V30 46 1 14 43
M  V30 47 1 14 44
M  V30 48 1 15 45
M  V30 49 1 15 46
M  V30 50 1 17 47 CFG=1
M  V30 51 1 18 48
M  V30 52 1 18 49
M  V30 53 1 19 50
M  V30 54 1 20 51
M  V30 55 1 21 52
M  V30 56 1 21 53
M  V30 57 1 23 54
M  V30 58 1 28 55
M  V30 59 1 31 56
M  V30 60 1 31 57
M  V30 61 1 32 58
M  V30 62 1 32 59
M  V30 63 1 32 60
M  V30 64 1 33 61
M  V30 65 1 33 62
M  V30 END BOND
M  V30 END CTAB
M  END
