
     RDKit          3D

  0  0  0  0  0  0  0  0  0  0999 V3000
M  V30 BEGIN CTAB
M  V30 COUNTS 52 54 0 0 0
M  V30 BEGIN ATOM
M  V30 1 C -4.50381 -2.93487 0.217457 0
M  V30 2 C -5.18541 -1.57655 0.0447786 0
M  V30 3 C -5.16165 -1.32079 -1.4747 0
M  V30 4 N -6.55827 -1.67922 0.400144 0
M  V30 5 C -7.1169 -0.944529 1.27591 0
M  V30 6 N -8.50638 -1.07859 1.60845 0
M  V30 7 N -6.38689 0.0558965 1.96659 0
M  V30 8 C -5.15564 0.24379 1.72696 0
M  V30 9 N -4.42972 1.27298 2.44671 0
M  V30 10 N -4.50219 -0.549193 0.751189 0
M  V30 11 C -3.11658 -0.244552 0.522491 0
M  V30 12 C -2.09457 -0.85256 1.20802 0
M  V30 13 C -0.760436 -0.524243 0.950262 0
M  V30 14 C -0.435888 0.417418 0.00242945 0
M  V30 15 O 0.895851 0.762297 -0.273126 0
M  V30 16 C 1.92456 0.132603 0.429729 0
M  V30 17 C 3.23989 0.709747 -0.0820433 0
M  V30 18 O 4.32681 0.113895 0.584343 0
M  V30 19 C 5.60803 0.496724 0.273451 0
M  V30 20 C 6.70964 -0.078781 0.91917 0
M  V30 21 C 7.96737 0.344707 0.565921 0
M  V30 22 C 8.21314 1.3105 -0.394434 0
M  V30 23 C 7.09725 1.84907 -1.00361 0
M  V30 24 C 5.81452 1.46103 -0.68741 0
M  V30 25 S 9.84818 1.80111 -0.795084 0
M  V30 26 F 10.3514 3.07338 0.173742 0
M  V30 27 O 9.81242 2.33268 -2.21505 0
M  V30 28 O 10.7626 0.631406 -0.671273 0
M  V30 29 C -1.46055 1.02779 -0.685332 0
M  V30 30 C -2.79278 0.69705 -0.425184 0
M  V30 31 H -3.66437 -2.97565 -0.482441 0
M  V30 32 H -5.27781 -3.70343 0.00955392 0
M  V30 33 H -4.20251 -3.07149 1.27894 0
M  V30 34 H -5.47356 -0.285455 -1.6775 0
M  V30 35 H -5.9029 -2.00299 -1.93312 0
M  V30 36 H -4.16008 -1.56878 -1.8973 0
M  V30 37 H -9.06234 -0.208997 1.67245 0
M  V30 38 H -8.96917 -1.98646 1.78366 0
M  V30 39 H -3.45287 1.16635 2.7348 0
M  V30 40 H -4.99015 2.13887 2.64948 0
M  V30 41 H -2.35434 -1.59585 1.95599 0
M  V30 42 H 0.0274955 -1.00751 1.49359 0
M  V30 43 H 1.9095 -0.952095 0.23882 0
M  V30 44 H 1.78654 0.341443 1.50769 0
M  V30 45 H 3.20871 1.80547 0.0329527 0
M  V30 46 H 3.30992 0.393126 -1.14831 0
M  V30 47 H 6.52944 -0.833755 1.67076 0
M  V30 48 H 8.85779 -0.0819429 1.04871 0
M  V30 49 H 7.29557 2.61567 -1.76565 0
M  V30 50 H 4.9632 1.90681 -1.18755 0
M  V30 51 H -1.20909 1.77194 -1.4345 0
M  V30 52 H -3.57301 1.18454 -0.972967 0
M  V30 END ATOM
M  V30 BEGIN BOND
M  V30 1 1 1 2
M  V30 2 1 2 3
M  V30 3 1 2 4
M  V30 4 2 4 5
M  V30 5 1 5 6
M  V30 6 1 5 7
M  V30 7 2 7 8
M  V30 8 1 8 9
M  V30 9 1 8 10
M  V30 10 1 10 11
M  V30 11 2 11 12
M  V30 12 1 12 13
M  V30 13 2 13 14
M  V30 14 1 14 15
M  V30 15 1 15 16
M  V30 16 1 16 17
M  V30 17 1 17 18
M  V30 18 1 18 19
M  V30 19 2 19 20
M  V30 20 1 20 21
M  V30 21 2 21 22
M  V30 22 1 22 23
M  V30 23 2 23 24
M  V30 24 1 22 25
M  V30 25 1 25 26
M  V30 26 2 25 27
M  V30 27 2 25 28
M  V30 28 1 14 29
M  V30 29 2 29 30
M  V30 30 1 10 2
M  V30 31 1 30 11
M  V30 32 1 24 19
M  V30 33 1 1 31
M  V30 34 1 1 32
M  V30 35 1 1 33
M  V30 36 1 3 34
M  V30 37 1 3 35
M  V30 38 1 3 36
M  V30 39 1 6 37
M  V30 40 1 6 38
M  V30 41 1 9 39
M  V30 42 1 9 40
M  V30 43 1 12 41
M  V30 44 1 13 42
M  V30 45 1 16 43
M  V30 46 1 16 44
M  V30 47 1 17 45
M  V30 48 1 17 46
M  V30 49 1 20 47
M  V30 50 1 21 48
M  V30 51 1 23 49
M  V30 52 1 24 50
M  V30 53 1 29 51
M  V30 54 1 30 52
M  V30 END BOND
M  V30 END CTAB
M  END
