
     RDKit          3D

  0  0  0  0  0  0  0  0  0  0999 V3000
M  V30 BEGIN CTAB
M  V30 COUNTS 46 48 0 0 0
M  V30 BEGIN ATOM
M  V30 1 N -4.60558 -2.04736 0.943829 0
M  V30 2 C -3.44609 -2.43977 0.292125 0
M  V30 3 C -2.25037 -1.51073 0.565331 0
M  V30 4 C -1.06337 -2.00009 -0.163963 0
M  V30 5 O -1.24428 -2.99675 -0.944743 0
M  V30 6 N 0.241823 -1.47637 -0.0806482 0
M  V30 7 C 0.817512 -0.388802 0.676251 0
M  V30 8 C 1.75702 0.251432 -0.32811 0 CFG=2
M  V30 9 C 2.09302 -0.776329 -1.35143 0 CFG=1
M  V30 10 C 1.392 -2.00081 -0.833808 0
M  V30 11 N 1.60916 -0.406969 -2.68602 0
M  V30 12 C 2.90256 0.914708 0.288145 0
M  V30 13 C 3.12112 2.27693 0.203976 0
M  V30 14 C 4.20483 2.90313 0.787186 0
M  V30 15 C 5.12563 2.15154 1.4923 0
M  V30 16 C 4.9425 0.787873 1.59912 0
M  V30 17 C 3.84179 0.187457 1.00094 0
M  V30 18 C -2.64077 -0.134476 0.233675 0
M  V30 19 C -3.02177 0.815218 1.18748 0
M  V30 20 C -3.37865 2.09407 0.81691 0
M  V30 21 C -3.36293 2.45227 -0.512793 0
M  V30 22 C -2.98619 1.51584 -1.46444 0
M  V30 23 C -2.62811 0.234801 -1.09956 0
M  V30 24 H -4.67084 -1.91457 1.89699 0
M  V30 25 H -5.25481 -1.56266 0.362677 0
M  V30 26 H -3.14631 -3.47595 0.48745 0
M  V30 27 H -3.61383 -2.36015 -0.814666 0
M  V30 28 H -2.13137 -1.56176 1.68299 0
M  V30 29 H 0.0328428 0.325163 0.978693 0
M  V30 30 H 1.35901 -0.743399 1.57684 0
M  V30 31 H 1.1483 1.04551 -0.842586 0
M  V30 32 H 3.1496 -1.00282 -1.4658 0
M  V30 33 H 1.0767 -2.62244 -1.68147 0
M  V30 34 H 2.05087 -2.60721 -0.183213 0
M  V30 35 H 0.972627 0.41463 -2.64334 0
M  V30 36 H 1.18762 -1.22721 -3.17099 0
M  V30 37 H 2.39457 2.88049 -0.354114 0
M  V30 38 H 4.37173 3.96783 0.718913 0
M  V30 39 H 5.99628 2.61724 1.96695 0
M  V30 40 H 5.64193 0.150471 2.14556 0
M  V30 41 H 3.6702 -0.885626 1.06761 0
M  V30 42 H -3.031 0.521591 2.23859 0
M  V30 43 H -3.67674 2.84862 1.52582 0
M  V30 44 H -3.63221 3.43772 -0.859039 0
M  V30 45 H -2.97216 1.7944 -2.51756 0
M  V30 46 H -2.34387 -0.446687 -1.89872 0
M  V30 END ATOM
M  V30 BEGIN BOND
M  V30 1 1 1 2
M  V30 2 1 2 3
M  V30 3 1 3 4
M  V30 4 2 4 5
M  V30 5 1 4 6
M  V30 6 1 6 7
M  V30 7 1 7 8
M  V30 8 1 8 9
M  V30 9 1 9 10
M  V30 10 1 9 11
M  V30 11 1 8 12
M  V30 12 2 12 13
M  V30 13 1 13 14
M  V30 14 2 14 15
M  V30 15 1 15 16
M  V30 16 2 16 17
M  V30 17 1 3 18
M  V30 18 2 18 19
M  V30 19 1 19 20
M  V30 20 2 20 21
M  V30 21 1 21 22
M  V30 22 2 22 23
M  V30 23 1 10 6
M  V30 24 1 17 12
M  V30 25 1 23 18
M  V30 26 1 1 24
M  V30 27 1 1 25
M  V30 28 1 2 26
M  V30 29 1 2 27
M  V30 30 1 3 28
M  V30 31 1 7 29
M  V30 32 1 7 30
M  V30 33 1 8 31 CFG=3
M  V30 34 1 9 32 CFG=3
M  V30 35 1 10 33
M  V30 36 1 10 34
M  V30 37 1 11 35
M  V30 38 1 11 36
M  V30 39 1 13 37
M  V30 40 1 14 38
M  V30 41 1 15 39
M  V30 42 1 16 40
M  V30 43 1 17 41
M  V30 44 1 19 42
M  V30 45 1 20 43
M  V30 46 1 21 44
M  V30 47 1 22 45
M  V30 48 1 23 46
M  V30 END BOND
M  V30 END CTAB
M  END
