
     RDKit          3D

  0  0  0  0  0  0  0  0  0  0999 V3000
M  V30 BEGIN CTAB
M  V30 COUNTS 35 37 0 0 0
M  V30 BEGIN ATOM
M  V30 1 N -5.14046 -0.662803 0.885026 0
M  V30 2 P -3.64165 0.0912947 0.375993 0
M  V30 3 N -3.85184 1.8427 0.253641 0
M  V30 4 O -2.64166 -0.202213 1.4806 0
M  V30 5 C -3.09669 -0.62661 -1.19764 0
M  V30 6 O -1.88869 -1.18738 -1.0349 0
M  V30 7 C -0.639067 -0.893742 -0.703521 0
M  V30 8 C -0.280359 0.406874 -0.388133 0
M  V30 9 C 1.0474 0.622698 -0.054636 0
M  V30 10 C 1.98727 -0.364171 -0.0252061 0
M  V30 11 C 3.37132 0.01749 0.351855 0
M  V30 12 C 3.83078 1.26805 -0.324254 0
M  V30 13 C 2.7432 2.24833 -0.602409 0
M  V30 14 C 1.53168 2.00139 0.30022 0
M  V30 15 C 1.6421 -1.69131 -0.342522 0
M  V30 16 C 0.332872 -1.89597 -0.669904 0
M  V30 17 S 0.318568 -3.57932 -0.979308 0
M  V30 18 C 1.973 -3.91432 -0.673628 0
M  V30 19 N 2.43683 -2.71874 -0.353314 0
M  V30 20 H -5.70369 -0.876583 0.0195813 0
M  V30 21 H -4.88733 -1.59565 1.2846 0
M  V30 22 H -4.87515 2.03839 0.361543 0
M  V30 23 H -3.62616 2.11692 -0.739142 0
M  V30 24 H -3.92008 -1.28684 -1.53979 0
M  V30 25 H -3.09142 0.240138 -1.93197 0
M  V30 26 H -0.951684 1.23798 -0.387542 0
M  V30 27 H 4.02814 -0.826839 0.0654826 0
M  V30 28 H 3.36817 0.147562 1.47132 0
M  V30 29 H 4.37986 0.97959 -1.26134 0
M  V30 30 H 4.61772 1.72778 0.335213 0
M  V30 31 H 3.07041 3.31119 -0.447002 0
M  V30 32 H 2.36296 2.13273 -1.64815 0
M  V30 33 H 0.786147 2.75734 0.0680607 0
M  V30 34 H 1.8859 2.00736 1.3436 0
M  V30 35 H 2.52159 -4.87333 -0.7266 0
M  V30 END ATOM
M  V30 BEGIN BOND
M  V30 1 1 1 2
M  V30 2 1 2 3
M  V30 3 2 2 4
M  V30 4 1 2 5
M  V30 5 1 5 6
M  V30 6 1 6 7
M  V30 7 2 7 8
M  V30 8 1 8 9
M  V30 9 2 9 10
M  V30 10 1 10 11
M  V30 11 1 11 12
M  V30 12 1 12 13
M  V30 13 1 13 14
M  V30 14 1 10 15
M  V30 15 2 15 16
M  V30 16 1 16 17
M  V30 17 1 17 18
M  V30 18 2 18 19
M  V30 19 1 16 7
M  V30 20 1 14 9
M  V30 21 1 19 15
M  V30 22 1 1 20
M  V30 23 1 1 21
M  V30 24 1 3 22
M  V30 25 1 3 23
M  V30 26 1 5 24
M  V30 27 1 5 25
M  V30 28 1 8 26
M  V30 29 1 11 27
M  V30 30 1 11 28
M  V30 31 1 12 29
M  V30 32 1 12 30
M  V30 33 1 13 31
M  V30 34 1 13 32
M  V30 35 1 14 33
M  V30 36 1 14 34
M  V30 37 1 18 35
M  V30 END BOND
M  V30 END CTAB
M  END
