
     RDKit          3D

  0  0  0  0  0  0  0  0  0  0999 V3000
M  V30 BEGIN CTAB
M  V30 COUNTS 38 40 0 0 0
M  V30 BEGIN ATOM
M  V30 1 N -2.268 -3.00378 0.0826233 0
M  V30 2 C -2.81393 -1.73257 -0.282674 0
M  V30 3 C -1.70497 -0.73621 -0.535884 0
M  V30 4 N -0.920917 -0.58958 0.633954 0
M  V30 5 C -1.64318 0.126265 1.66054 0
M  V30 6 C -1.44759 1.61914 1.5711 0
M  V30 7 C -0.733058 2.06886 0.353424 0
M  V30 8 C 0.233666 1.23696 -0.247019 0
M  V30 9 C 0.39747 -0.0388205 0.473304 0 CFG=2
M  V30 10 C 1.47321 -0.899501 0.0823426 0
M  V30 11 N 1.4848 -1.91584 -0.783655 0
M  V30 12 N 2.71669 -2.42982 -0.844574 0
M  V30 13 C 3.52941 -1.75984 -0.0210412 0
M  V30 14 C 2.76147 -0.794851 0.568735 0
M  V30 15 N 4.9147 -1.99315 0.20783 0
M  V30 16 C 0.904951 1.62611 -1.36416 0
M  V30 17 C 0.623517 2.8643 -1.91066 0
M  V30 18 C -0.322628 3.71694 -1.35096 0
M  V30 19 C -0.988974 3.28483 -0.208971 0
M  V30 20 H -1.60887 -3.02278 0.823799 0
M  V30 21 H -2.82648 -3.79677 -0.00806968 0
M  V30 22 H -3.55705 -1.40786 0.445057 0
M  V30 23 H -3.38726 -1.94098 -1.22422 0
M  V30 24 H -1.18611 -1.04812 -1.43551 0
M  V30 25 H -2.2317 0.223056 -0.826 0
M  V30 26 H -1.31662 -0.268144 2.63976 0
M  V30 27 H -2.71166 -0.0701282 1.55217 0
M  V30 28 H -0.862451 1.9608 2.4549 0
M  V30 29 H -2.4088 2.1722 1.59905 0
M  V30 30 H 0.651051 0.304086 1.55077 0
M  V30 31 H 0.705823 -2.32783 -1.37062 0
M  V30 32 H 3.10615 -0.0510694 1.30995 0
M  V30 33 H 5.62979 -1.33236 -0.162275 0
M  V30 34 H 5.26015 -2.81618 0.7431 0
M  V30 35 H 1.63606 0.939999 -1.77828 0
M  V30 36 H 1.16111 3.17727 -2.80546 0
M  V30 37 H -0.530729 4.68894 -1.79749 0
M  V30 38 H -1.71905 3.96644 0.205098 0
M  V30 END ATOM
M  V30 BEGIN BOND
M  V30 1 1 1 2
M  V30 2 1 2 3
M  V30 3 1 3 4
M  V30 4 1 4 5
M  V30 5 1 5 6
M  V30 6 1 6 7
M  V30 7 2 7 8
M  V30 8 1 8 9
M  V30 9 1 9 10
M  V30 10 1 10 11
M  V30 11 1 11 12
M  V30 12 2 12 13
M  V30 13 1 13 14
M  V30 14 1 13 15
M  V30 15 1 8 16
M  V30 16 2 16 17
M  V30 17 1 17 18
M  V30 18 2 18 19
M  V30 19 1 9 4
M  V30 20 2 14 10
M  V30 21 1 19 7
M  V30 22 1 1 20
M  V30 23 1 1 21
M  V30 24 1 2 22
M  V30 25 1 2 23
M  V30 26 1 3 24
M  V30 27 1 3 25
M  V30 28 1 5 26
M  V30 29 1 5 27
M  V30 30 1 6 28
M  V30 31 1 6 29
M  V30 32 1 9 30 CFG=1
M  V30 33 1 11 31
M  V30 34 1 14 32
M  V30 35 1 15 33
M  V30 36 1 15 34
M  V30 37 1 16 35
M  V30 38 1 17 36
M  V30 39 1 18 37
M  V30 40 1 19 38
M  V30 END BOND
M  V30 END CTAB
M  END
