
     RDKit          3D

  0  0  0  0  0  0  0  0  0  0999 V3000
M  V30 BEGIN CTAB
M  V30 COUNTS 22 23 0 0 0
M  V30 BEGIN ATOM
M  V30 1 F -4.81628 0.299013 -1.1207 0
M  V30 2 C -3.50123 0.322985 -0.768894 0
M  V30 3 C -2.59789 -0.584217 -1.25496 0
M  V30 4 C -1.24452 -0.593595 -0.919728 0
M  V30 5 C -0.79844 0.366112 -0.0506775 0
M  V30 6 C -1.69426 1.30158 0.459556 0
M  V30 7 C -3.02412 1.27885 0.104978 0
M  V30 8 C 0.581324 0.462914 0.374884 0
M  V30 9 N 1.01829 1.40811 1.23021 0
M  V30 10 N 2.29729 1.22002 1.4058 0
M  V30 11 C 2.69626 0.166137 0.676472 0
M  V30 12 N 1.59507 -0.314692 0.0188645 0
M  V30 13 N 1.68974 -1.41984 -0.827899 0
M  V30 14 N 3.99718 -0.389531 0.56804 0
M  V30 15 H -2.95032 -1.34896 -1.94669 0
M  V30 16 H -0.598644 -1.36493 -1.36393 0
M  V30 17 H -1.35562 2.06288 1.1451 0
M  V30 18 H -3.67395 2.02343 0.527097 0
M  V30 19 H 2.03529 -1.37446 -1.80944 0
M  V30 20 H 1.40058 -2.34378 -0.464647 0
M  V30 21 H 4.48575 -0.341367 -0.343992 0
M  V30 22 H 4.4585 -0.836653 1.37792 0
M  V30 END ATOM
M  V30 BEGIN BOND
M  V30 1 1 1 2
M  V30 2 2 2 3
M  V30 3 1 3 4
M  V30 4 2 4 5
M  V30 5 1 5 6
M  V30 6 2 6 7
M  V30 7 1 5 8
M  V30 8 2 8 9
M  V30 9 1 9 10
M  V30 10 2 10 11
M  V30 11 1 11 12
M  V30 12 1 12 13
M  V30 13 1 11 14
M  V30 14 1 7 2
M  V30 15 1 12 8
M  V30 16 1 3 15
M  V30 17 1 4 16
M  V30 18 1 6 17
M  V30 19 1 7 18
M  V30 20 1 13 19
M  V30 21 1 13 20
M  V30 22 1 14 21
M  V30 23 1 14 22
M  V30 END BOND
M  V30 END CTAB
M  END
