
     RDKit          3D

  0  0  0  0  0  0  0  0  0  0999 V3000
M  V30 BEGIN CTAB
M  V30 COUNTS 26 27 0 0 0
M  V30 BEGIN ATOM
M  V30 1 C -2.82792 0.206231 1.23343 0
M  V30 2 C -2.72838 -0.218258 -0.202634 0
M  V30 3 C -1.55929 0.373361 -0.916759 0
M  V30 4 C -0.260921 0.0119362 -0.312958 0
M  V30 5 N 0.0189904 -0.753441 0.760179 0
M  V30 6 C 1.35205 -0.814053 0.954282 0
M  V30 7 C 1.90029 -0.0511132 -0.0465843 0
M  V30 8 N 0.919382 0.436938 -0.797674 0
M  V30 9 C 3.27275 0.0737018 -0.103542 0
M  V30 10 N 3.87236 0.864785 -1.13875 0
M  V30 11 N 4.07495 -0.540557 0.805794 0
M  V30 12 C 3.50481 -1.28004 1.77265 0
M  V30 13 N 2.17289 -1.41073 1.84105 0
M  V30 14 N -3.93725 0.255464 -0.875765 0
M  V30 15 H -2.52775 1.27953 1.29475 0
M  V30 16 H -3.8986 0.1734 1.56411 0
M  V30 17 H -2.27618 -0.442644 1.92527 0
M  V30 18 H -2.69841 -1.31831 -0.323235 0
M  V30 19 H -1.65592 1.47576 -0.934014 0
M  V30 20 H -1.58 0.00705258 -1.96449 0
M  V30 21 H 1.08001 1.05749 -1.6355 0
M  V30 22 H 4.37806 0.371536 -1.88874 0
M  V30 23 H 3.75489 1.89548 -1.06169 0
M  V30 24 H 4.17778 -1.76199 2.48973 0
M  V30 25 H -3.76467 0.418713 -1.88887 0
M  V30 26 H -4.76391 -0.310244 -0.662566 0
M  V30 END ATOM
M  V30 BEGIN BOND
M  V30 1 1 1 2
M  V30 2 1 2 3
M  V30 3 1 3 4
M  V30 4 2 4 5
M  V30 5 1 5 6
M  V30 6 2 6 7
M  V30 7 1 7 8
M  V30 8 1 7 9
M  V30 9 1 9 10
M  V30 10 2 9 11
M  V30 11 1 11 12
M  V30 12 2 12 13
M  V30 13 1 2 14
M  V30 14 1 8 4
M  V30 15 1 13 6
M  V30 16 1 1 15
M  V30 17 1 1 16
M  V30 18 1 1 17
M  V30 19 1 2 18
M  V30 20 1 3 19
M  V30 21 1 3 20
M  V30 22 1 8 21
M  V30 23 1 10 22
M  V30 24 1 10 23
M  V30 25 1 12 24
M  V30 26 1 14 25
M  V30 27 1 14 26
M  V30 END BOND
M  V30 END CTAB
M  END
