
     RDKit          3D

  0  0  0  0  0  0  0  0  0  0999 V3000
M  V30 BEGIN CTAB
M  V30 COUNTS 70 73 0 0 0
M  V30 BEGIN ATOM
M  V30 1 N -2.06121 4.25265 0.134368 0
M  V30 2 C -1.32541 3.36632 0.260448 0
M  V30 3 C -0.392797 2.26205 0.399458 0
M  V30 4 C 0.811148 2.29937 -0.133374 0
M  V30 5 N 1.24079 3.43686 -0.870716 0
M  V30 6 N 1.73078 1.22229 -0.00246638 0
M  V30 7 C 3.03524 1.2747 -0.585623 0
M  V30 8 C 4.10994 1.78513 0.119041 0
M  V30 9 C 5.37087 1.83959 -0.434772 0
M  V30 10 C 5.55055 1.37178 -1.71954 0
M  V30 11 C 4.46605 0.861225 -2.41913 0
M  V30 12 C 3.19945 0.803122 -1.87161 0
M  V30 13 S 7.09721 1.38758 -2.52897 0
M  V30 14 O 7.91146 2.53392 -2.00049 0
M  V30 15 O 6.86735 1.51058 -4.00869 0
M  V30 16 N 7.9824 -0.0526748 -2.25762 0
M  V30 17 C 1.34795 0.0622057 0.725639 0
M  V30 18 C 0.124764 0.00987788 1.27407 0
M  V30 19 C -0.857505 1.10263 1.16266 0
M  V30 20 C -2.16202 0.62804 0.619049 0
M  V30 21 C -3.3083 0.689129 1.38152 0
M  V30 22 C -4.48737 0.233643 0.822682 0
M  V30 23 C -4.58338 -0.279203 -0.454763 0
M  V30 24 C -3.40868 -0.336171 -1.22199 0
M  V30 25 C -2.24387 0.118499 -0.658199 0
M  V30 26 O -3.48929 -0.84757 -2.50482 0
M  V30 27 C -2.39718 -0.95942 -3.37165 0
M  V30 28 O -5.7482 -0.734691 -1.01689 0
M  V30 29 C -7.01905 -0.802112 -0.443419 0
M  V30 30 C -7.04242 -1.61263 0.84525 0
M  V30 31 C -7.6564 0.542653 -0.246384 0
M  V30 32 C -0.278173 -1.17813 2.02384 0
M  V30 33 O -1.24425 -1.19189 2.82958 0
M  V30 34 C 0.506081 -2.42389 1.80933 0
M  V30 35 C 1.96874 -2.04228 1.90199 0
M  V30 36 C 2.32174 -1.0438 0.848428 0
M  V30 37 C 2.84401 -3.2597 1.70234 0
M  V30 38 C 2.21842 -1.53808 3.30307 0
M  V30 39 H 0.560738 3.91646 -1.50078 0
M  V30 40 H 2.2253 3.7557 -0.757264 0
M  V30 41 H 3.97075 2.15967 1.14507 0
M  V30 42 H 6.24439 2.22713 0.0691012 0
M  V30 43 H 4.60873 0.492336 -3.43286 0
M  V30 44 H 2.39115 0.400574 -2.44839 0
M  V30 45 H 8.68669 0.0135006 -1.51935 0
M  V30 46 H 7.38856 -0.892937 -2.25583 0
M  V30 47 H -1.0351 1.46666 2.21698 0
M  V30 48 H -3.31521 1.07809 2.39274 0
M  V30 49 H -5.36962 0.308528 1.46093 0
M  V30 50 H -1.34772 0.0612101 -1.27923 0
M  V30 51 H -2.08117 0.0236995 -3.79436 0
M  V30 52 H -1.47117 -1.35141 -2.85687 0
M  V30 53 H -2.64372 -1.62392 -4.21833 0
M  V30 54 H -7.67723 -1.38775 -1.14564 0
M  V30 55 H -7.36995 -0.978027 1.71663 0
M  V30 56 H -6.03189 -1.95606 1.0609 0
M  V30 57 H -7.69106 -2.50433 0.776419 0
M  V30 58 H -7.1553 1.26179 -0.940153 0
M  V30 59 H -8.71659 0.512151 -0.569987 0
M  V30 60 H -7.59703 0.903732 0.811679 0
M  V30 61 H 0.322744 -2.77299 0.777815 0
M  V30 62 H 0.282352 -3.20051 2.57008 0
M  V30 63 H 2.51315 -1.55271 -0.123354 0
M  V30 64 H 3.32263 -0.608087 1.13807 0
M  V30 65 H 3.87034 -3.05374 2.04479 0
M  V30 66 H 2.40041 -4.12582 2.2354 0
M  V30 67 H 2.88259 -3.54059 0.613225 0
M  V30 68 H 2.06285 -0.451902 3.36223 0
M  V30 69 H 3.25192 -1.82266 3.65098 0
M  V30 70 H 1.51805 -2.04941 3.99754 0
M  V30 END ATOM
M  V30 BEGIN BOND
M  V30 1 3 1 2
M  V30 2 1 2 3
M  V30 3 2 3 4
M  V30 4 1 4 5
M  V30 5 1 4 6
M  V30 6 1 6 7
M  V30 7 2 7 8
M  V30 8 1 8 9
M  V30 9 2 9 10
M  V30 10 1 10 11
M  V30 11 2 11 12
M  V30 12 1 10 13
M  V30 13 2 13 14
M  V30 14 2 13 15
M  V30 15 1 13 16
M  V30 16 1 6 17
M  V30 17 2 17 18
M  V30 18 1 18 19
M  V30 19 1 19 20
M  V30 20 2 20 21
M  V30 21 1 21 22
M  V30 22 2 22 23
M  V30 23 1 23 24
M  V30 24 2 24 25
M  V30 25 1 24 26
M  V30 26 1 26 27
M  V30 27 1 23 28
M  V30 28 1 28 29
M  V30 29 1 29 30
M  V30 30 1 29 31
M  V30 31 1 18 32
M  V30 32 2 32 33
M  V30 33 1 32 34
M  V30 34 1 34 35
M  V30 35 1 35 36
M  V30 36 1 35 37
M  V30 37 1 35 38
M  V30 38 1 19 3
M  V30 39 1 25 20
M  V30 40 1 12 7
M  V30 41 1 36 17
M  V30 42 1 5 39
M  V30 43 1 5 40
M  V30 44 1 8 41
M  V30 45 1 9 42
M  V30 46 1 11 43
M  V30 47 1 12 44
M  V30 48 1 16 45
M  V30 49 1 16 46
M  V30 50 1 19 47
M  V30 51 1 21 48
M  V30 52 1 22 49
M  V30 53 1 25 50
M  V30 54 1 27 51
M  V30 55 1 27 52
M  V30 56 1 27 53
M  V30 57 1 29 54
M  V30 58 1 30 55
M  V30 59 1 30 56
M  V30 60 1 30 57
M  V30 61 1 31 58
M  V30 62 1 31 59
M  V30 63 1 31 60
M  V30 64 1 34 61
M  V30 65 1 34 62
M  V30 66 1 36 63
M  V30 67 1 36 64
M  V30 68 1 37 65
M  V30 69 1 37 66
M  V30 70 1 37 67
M  V30 71 1 38 68
M  V30 72 1 38 69
M  V30 73 1 38 70
M  V30 END BOND
M  V30 END CTAB
M  END
