
     RDKit          3D

  0  0  0  0  0  0  0  0  0  0999 V3000
M  V30 BEGIN CTAB
M  V30 COUNTS 31 33 0 0 0
M  V30 BEGIN ATOM
M  V30 1 N 5.10345 0.582837 1.59199 0
M  V30 2 C 3.80858 0.441552 0.981835 0
M  V30 3 N 3.39272 -0.834724 0.795641 0
M  V30 4 C 2.17808 -1.0262 0.223745 0
M  V30 5 C 1.67448 -2.29103 -0.00396194 0
M  V30 6 C 0.444192 -2.50409 -0.583296 0
M  V30 7 C -0.334848 -1.42992 -0.95983 0
M  V30 8 C 0.129451 -0.151154 -0.750338 0
M  V30 9 O -0.588327 0.992551 -1.09962 0
M  V30 10 C -1.84697 1.03217 -1.68302 0
M  V30 11 C -2.92619 0.420657 -0.847424 0
M  V30 12 C -2.90606 0.223368 0.515039 0
M  V30 13 C -4.10379 -0.36547 0.848581 0
M  V30 14 C -4.79912 -0.500562 -0.322955 0
M  V30 15 O -4.07561 -0.0279671 -1.29631 0
M  V30 16 C 1.38578 0.0280953 -0.158654 0
M  V30 17 C 1.84963 1.31477 0.0501151 0
M  V30 18 N 1.05459 2.42664 -0.334018 0
M  V30 19 N 3.06008 1.48321 0.62021 0
M  V30 20 H 5.29986 1.35371 2.26274 0
M  V30 21 H 5.88542 -0.0809982 1.38249 0
M  V30 22 H 2.3074 -3.13074 0.301683 0
M  V30 23 H 0.0834782 -3.5337 -0.745409 0
M  V30 24 H -1.29906 -1.59799 -1.42349 0
M  V30 25 H -2.08067 2.10971 -1.88021 0
M  V30 26 H -1.88823 0.496218 -2.65955 0
M  V30 27 H -2.09099 0.488233 1.18509 0
M  V30 28 H -4.4462 -0.67129 1.85177 0
M  V30 29 H -5.77414 -0.92361 -0.423192 0
M  V30 30 H 1.07704 2.82152 -1.2789 0
M  V30 31 H 0.425962 2.85421 0.374643 0
M  V30 END ATOM
M  V30 BEGIN BOND
M  V30 1 1 1 2
M  V30 2 2 2 3
M  V30 3 1 3 4
M  V30 4 2 4 5
M  V30 5 1 5 6
M  V30 6 2 6 7
M  V30 7 1 7 8
M  V30 8 1 8 9
M  V30 9 1 9 10
M  V30 10 1 10 11
M  V30 11 2 11 12
M  V30 12 1 12 13
M  V30 13 2 13 14
M  V30 14 1 14 15
M  V30 15 2 8 16
M  V30 16 1 16 17
M  V30 17 1 17 18
M  V30 18 2 17 19
M  V30 19 1 19 2
M  V30 20 1 16 4
M  V30 21 1 15 11
M  V30 22 1 1 20
M  V30 23 1 1 21
M  V30 24 1 5 22
M  V30 25 1 6 23
M  V30 26 1 7 24
M  V30 27 1 10 25
M  V30 28 1 10 26
M  V30 29 1 12 27
M  V30 30 1 13 28
M  V30 31 1 14 29
M  V30 32 1 18 30
M  V30 33 1 18 31
M  V30 END BOND
M  V30 END CTAB
M  END
