
     RDKit          3D

  0  0  0  0  0  0  0  0  0  0999 V3000
M  V30 BEGIN CTAB
M  V30 COUNTS 31 32 0 0 0
M  V30 BEGIN ATOM
M  V30 1 C -1.77534 -1.15758 1.7661 0
M  V30 2 C -1.17862 0.0170913 0.97227 0
M  V30 3 C -2.23081 0.928403 0.516093 0
M  V30 4 C -2.6008 0.912628 -0.922886 0
M  V30 5 C -1.49209 0.525142 -1.85956 0
M  V30 6 C -0.852709 -0.726554 -1.39344 0
M  V30 7 C -0.242254 -0.525933 -0.0510499 0
M  V30 8 C 1.02736 0.281885 -0.0969106 0
M  V30 9 N 1.12128 1.58108 -0.406875 0
M  V30 10 N 2.38345 1.92255 -0.338622 0
M  V30 11 C 3.10422 0.844323 0.0152616 0
M  V30 12 N 2.25094 -0.177625 0.164781 0
M  V30 13 N 2.64757 -1.4865 0.536498 0
M  V30 14 N 4.51967 0.807778 0.195566 0
M  V30 15 H -2.20968 -1.91225 1.06583 0
M  V30 16 H -2.63199 -0.741526 2.33355 0
M  V30 17 H -1.00933 -1.61425 2.43011 0
M  V30 18 H -0.533872 0.543337 1.73925 0
M  V30 19 H -1.96397 1.99702 0.778367 0
M  V30 20 H -3.15955 0.744609 1.10933 0
M  V30 21 H -3.44671 0.218231 -1.11688 0
M  V30 22 H -2.95401 1.91282 -1.27057 0
M  V30 23 H -1.97985 0.284531 -2.85333 0
M  V30 24 H -0.846267 1.37155 -2.06193 0
M  V30 25 H -0.110266 -1.12701 -2.10842 0
M  V30 26 H -1.63504 -1.50384 -1.294 0
M  V30 27 H 0.0865536 -1.54977 0.277936 0
M  V30 28 H 3.49149 -1.90798 0.088225 0
M  V30 29 H 2.14073 -2.04546 1.23153 0
M  V30 30 H 5.17047 0.946119 -0.589933 0
M  V30 31 H 4.90943 0.63719 1.14369 0
M  V30 END ATOM
M  V30 BEGIN BOND
M  V30 1 1 1 2
M  V30 2 1 2 3
M  V30 3 1 3 4
M  V30 4 1 4 5
M  V30 5 1 5 6
M  V30 6 1 6 7
M  V30 7 1 7 8
M  V30 8 2 8 9
M  V30 9 1 9 10
M  V30 10 2 10 11
M  V30 11 1 11 12
M  V30 12 1 12 13
M  V30 13 1 11 14
M  V30 14 1 7 2
M  V30 15 1 12 8
M  V30 16 1 1 15
M  V30 17 1 1 16
M  V30 18 1 1 17
M  V30 19 1 2 18
M  V30 20 1 3 19
M  V30 21 1 3 20
M  V30 22 1 4 21
M  V30 23 1 4 22
M  V30 24 1 5 23
M  V30 25 1 5 24
M  V30 26 1 6 25
M  V30 27 1 6 26
M  V30 28 1 7 27
M  V30 29 1 13 28
M  V30 30 1 13 29
M  V30 31 1 14 30
M  V30 32 1 14 31
M  V30 END BOND
M  V30 END CTAB
M  END
