
     RDKit          3D

  0  0  0  0  0  0  0  0  0  0999 V3000
M  V30 BEGIN CTAB
M  V30 COUNTS 21 22 0 0 0
M  V30 BEGIN ATOM
M  V30 1 N 3.09122 -1.63391 -0.100077 0
M  V30 2 C 2.10248 -0.644316 0.0771961 0
M  V30 3 N 2.38722 0.622139 0.422908 0
M  V30 4 C 1.465 1.57959 0.597042 0
M  V30 5 N 1.78847 2.90671 0.961219 0
M  V30 6 N 0.160878 1.2368 0.409373 0
M  V30 7 C -0.219474 -0.000147972 0.0638732 0
M  V30 8 C 0.75232 -0.963544 -0.10798 0
M  V30 9 C -1.62831 -0.353787 -0.134631 0
M  V30 10 C -2.70463 0.495482 -1.92271e-05 0
M  V30 11 C -3.83734 -0.234254 -0.273548 0
M  V30 12 O -3.43603 -1.44738 -0.553005 0
M  V30 13 C -2.14747 -1.57096 -0.485743 0
M  V30 14 H 3.71328 -1.86792 0.687982 0
M  V30 15 H 3.19496 -2.11933 -1.00208 0
M  V30 16 H 2.29118 3.49874 0.279881 0
M  V30 17 H 1.51241 3.24468 1.89779 0
M  V30 18 H 0.54275 -1.98033 -0.384063 0
M  V30 19 H -2.62292 1.54575 0.274841 0
M  V30 20 H -4.86639 0.147581 -0.254852 0
M  V30 21 H -1.53959 -2.46159 -0.666874 0
M  V30 END ATOM
M  V30 BEGIN BOND
M  V30 1 1 1 2
M  V30 2 2 2 3
M  V30 3 1 3 4
M  V30 4 1 4 5
M  V30 5 2 4 6
M  V30 6 1 6 7
M  V30 7 2 7 8
M  V30 8 1 7 9
M  V30 9 1 9 10
M  V30 10 2 10 11
M  V30 11 1 11 12
M  V30 12 1 12 13
M  V30 13 1 8 2
M  V30 14 2 13 9
M  V30 15 1 1 14
M  V30 16 1 1 15
M  V30 17 1 5 16
M  V30 18 1 5 17
M  V30 19 1 8 18
M  V30 20 1 10 19
M  V30 21 1 11 20
M  V30 22 1 13 21
M  V30 END BOND
M  V30 END CTAB
M  END
