
     RDKit          3D

  0  0  0  0  0  0  0  0  0  0999 V3000
M  V30 BEGIN CTAB
M  V30 COUNTS 24 24 0 0 0
M  V30 BEGIN ATOM
M  V30 1 N 3.67887 -0.423912 -0.300614 0
M  V30 2 C 2.25341 -0.367388 -0.190418 0
M  V30 3 C 1.65041 0.856596 -0.0660684 0
M  V30 4 C 0.254902 0.913823 0.0418863 0
M  V30 5 C -0.338032 2.27479 0.175171 0
M  V30 6 C -0.546017 -0.205906 0.029422 0
M  V30 7 C 0.103891 -1.46935 -0.101052 0
M  V30 8 C 1.47055 -1.49115 -0.204692 0
M  V30 9 N -0.647716 -2.67311 -0.122819 0
M  V30 10 C -1.97912 -0.244851 0.135227 0
M  V30 11 O -2.53549 -1.4131 0.0976762 0
M  V30 12 C -2.91341 0.848013 0.280286 0
M  V30 13 H 4.16913 0.0379386 -1.08495 0
M  V30 14 H 4.16637 -0.961634 0.46568 0
M  V30 15 H 2.20485 1.78458 -0.045849 0
M  V30 16 H 0.482381 3.0223 -0.0502021 0
M  V30 17 H -0.643442 2.37926 1.23407 0
M  V30 18 H -1.12659 2.43178 -0.557599 0
M  V30 19 H 1.94411 -2.462 -0.303025 0
M  V30 20 H -0.946737 -3.0593 -1.02299 0
M  V30 21 H -0.875934 -3.13157 0.764346 0
M  V30 22 H -3.14254 1.36807 -0.700577 0
M  V30 23 H -3.95171 0.374315 0.49669 0
M  V30 24 H -2.73214 1.6118 1.0304 0
M  V30 END ATOM
M  V30 BEGIN BOND
M  V30 1 1 1 2
M  V30 2 2 2 3
M  V30 3 1 3 4
M  V30 4 1 4 5
M  V30 5 2 4 6
M  V30 6 1 6 7
M  V30 7 2 7 8
M  V30 8 1 7 9
M  V30 9 1 6 10
M  V30 10 2 10 11
M  V30 11 1 10 12
M  V30 12 1 8 2
M  V30 13 1 1 13
M  V30 14 1 1 14
M  V30 15 1 3 15
M  V30 16 1 5 16
M  V30 17 1 5 17
M  V30 18 1 5 18
M  V30 19 1 8 19
M  V30 20 1 9 20
M  V30 21 1 9 21
M  V30 22 1 12 22
M  V30 23 1 12 23
M  V30 24 1 12 24
M  V30 END BOND
M  V30 END CTAB
M  END
