
     RDKit          3D

  0  0  0  0  0  0  0  0  0  0999 V3000
M  V30 BEGIN CTAB
M  V30 COUNTS 37 39 0 0 0
M  V30 BEGIN ATOM
M  V30 1 C -2.33657 4.42213 0.176881 0
M  V30 2 O -2.35555 3.05384 0.0989196 0
M  V30 3 C -3.20221 2.14996 0.869896 0
M  V30 4 O -3.9517 2.55519 1.69264 0
M  V30 5 C -3.07507 0.714167 0.515056 0
M  V30 6 O -4.06624 -0.12705 0.510381 0
M  V30 7 C -3.65278 -1.31267 0.150085 0
M  V30 8 C -2.29586 -1.20497 -0.0818466 0
M  V30 9 C -1.9011 0.103634 0.15904 0
M  V30 10 C -0.566262 0.600175 0.436212 0
M  V30 11 S 0.573303 1.11171 -0.813088 0
M  V30 12 C 2.18356 0.433639 -0.607843 0
M  V30 13 N 2.98161 1.02362 0.336867 0
M  V30 14 C 4.2889 0.735988 0.477381 0
M  V30 15 N 5.02788 1.32397 1.51675 0
M  V30 16 C 4.891 -0.197353 -0.34911 0
M  V30 17 C 4.04566 -0.817777 -1.32584 0
M  V30 18 N 2.80497 -0.480468 -1.39485 0
M  V30 19 N 4.75965 -1.65952 -2.18716 0
M  V30 20 C -1.63032 -2.36725 -0.491896 0
M  V30 21 C -2.27353 -3.55609 -0.662771 0
M  V30 22 C -3.61534 -3.59193 -0.430741 0
M  V30 23 C -4.32493 -2.48716 -0.0174074 0
M  V30 24 H -2.91548 4.85147 -0.667274 0
M  V30 25 H -1.27776 4.76909 -0.000148425 0
M  V30 26 H -2.70841 4.87285 1.08226 0
M  V30 27 H -0.0218277 -0.586188 0.648717 0
M  V30 28 H -0.349229 0.889773 1.51125 0
M  V30 29 H 5.23488 0.827056 2.42938 0
M  V30 30 H 5.39705 2.27564 1.46022 0
M  V30 31 H 5.94737 -0.428016 -0.284786 0
M  V30 32 H 5.78696 -1.91131 -1.9885 0
M  V30 33 H 4.38619 -2.08958 -3.04428 0
M  V30 34 H -0.533902 -2.28013 -0.622346 0
M  V30 35 H -1.73107 -4.43986 -0.981785 0
M  V30 36 H -4.12518 -4.5956 -0.581505 0
M  V30 37 H -5.39865 -2.58097 0.126904 0
M  V30 END ATOM
M  V30 BEGIN BOND
M  V30 1 1 1 2
M  V30 2 1 2 3
M  V30 3 2 3 4
M  V30 4 1 3 5
M  V30 5 1 5 6
M  V30 6 1 6 7
M  V30 7 2 7 8
M  V30 8 1 8 9
M  V30 9 1 9 10
M  V30 10 1 10 11
M  V30 11 1 11 12
M  V30 12 2 12 13
M  V30 13 1 13 14
M  V30 14 1 14 15
M  V30 15 2 14 16
M  V30 16 1 16 17
M  V30 17 2 17 18
M  V30 18 1 17 19
M  V30 19 1 8 20
M  V30 20 2 20 21
M  V30 21 1 21 22
M  V30 22 2 22 23
M  V30 23 2 9 5
M  V30 24 1 18 12
M  V30 25 1 23 7
M  V30 26 1 1 24
M  V30 27 1 1 25
M  V30 28 1 1 26
M  V30 29 1 10 27
M  V30 30 1 10 28
M  V30 31 1 15 29
M  V30 32 1 15 30
M  V30 33 1 16 31
M  V30 34 1 19 32
M  V30 35 1 19 33
M  V30 36 1 20 34
M  V30 37 1 21 35
M  V30 38 1 22 36
M  V30 39 1 23 37
M  V30 END BOND
M  V30 END CTAB
M  END
