
     RDKit          3D

  0  0  0  0  0  0  0  0  0  0999 V3000
M  V30 BEGIN CTAB
M  V30 COUNTS 51 53 0 0 0
M  V30 BEGIN ATOM
M  V30 1 N 8.21502 0.0295616 -0.350322 0
M  V30 2 C 6.8671 0.118368 0.188259 0 CFG=1
M  V30 3 C 5.94681 0.269001 -1.00233 0
M  V30 4 C 4.51731 0.368584 -0.685049 0
M  V30 5 C 3.89142 1.5845 -0.42427 0
M  V30 6 C 2.53907 1.66038 -0.113094 0
M  V30 7 C 1.74571 0.50899 -0.0508627 0
M  V30 8 C 2.38989 -0.675358 -0.314816 0
M  V30 9 C 3.73511 -0.755785 -0.624047 0
M  V30 10 C 0.323057 0.626864 0.273594 0
M  V30 11 N -0.307556 1.80491 0.345883 0
M  V30 12 C -1.58111 1.97858 0.699441 0
M  V30 13 N -2.0998 3.32897 0.695216 0
M  V30 14 N -2.30921 0.923827 1.01174 0
M  V30 15 C -1.76163 -0.312502 0.969599 0
M  V30 16 N -2.51278 -1.4362 1.37296 0
M  V30 17 C -3.84929 -1.33949 1.8705 0
M  V30 18 C -4.77564 -0.958186 0.766023 0
M  V30 19 C -4.97478 -1.82934 -0.27242 0
M  V30 20 C -5.86133 -1.51302 -1.28453 0
M  V30 21 C -6.57475 -0.340291 -1.30535 0
M  V30 22 C -6.35453 0.518853 -0.245383 0
M  V30 23 C -5.47585 0.22698 0.770831 0
M  V30 24 C -7.54012 -0.0429679 -2.39594 0
M  V30 25 F -8.42722 -1.11098 -2.5116 0
M  V30 26 F -6.87318 0.188998 -3.55814 0
M  V30 27 F -8.32269 1.05742 -2.02112 0
M  V30 28 C -0.426379 -0.478087 0.594237 0
M  V30 29 C 6.58626 -1.21494 0.827314 0
M  V30 30 O 7.37516 -2.34649 0.550791 0
M  V30 31 O 5.65619 -1.38686 1.62037 0
M  V30 32 H 8.27758 0.408325 -1.30805 0
M  V30 33 H 8.87848 0.52044 0.255737 0
M  V30 34 H 6.86016 0.954447 0.87559 0
M  V30 35 H 6.30683 1.19594 -1.5487 0
M  V30 36 H 6.20168 -0.555028 -1.69308 0
M  V30 37 H 4.54805 2.43329 -0.486979 0
M  V30 38 H 2.10374 2.61189 0.091816 0
M  V30 39 H 1.7855 -1.57966 -0.272741 0
M  V30 40 H 4.18957 -1.72907 -0.826693 0
M  V30 41 H -3.02574 3.56356 1.03181 0
M  V30 42 H -1.50637 4.11185 0.332647 0
M  V30 43 H -2.02681 -2.37491 1.28144 0
M  V30 44 H -4.18427 -2.2776 2.374 0
M  V30 45 H -3.85956 -0.45701 2.58133 0
M  V30 46 H -4.4267 -2.77235 -0.297181 0
M  V30 47 H -6.01398 -2.22896 -2.10141 0
M  V30 48 H -6.90618 1.46377 -0.233784 0
M  V30 49 H -5.31824 0.931155 1.57685 0
M  V30 50 H -0.00205465 -1.45408 0.564824 0
M  V30 51 H 8.35804 -2.2203 0.297213 0
M  V30 END ATOM
M  V30 BEGIN BOND
M  V30 1 1 1 2
M  V30 2 1 2 3
M  V30 3 1 3 4
M  V30 4 2 4 5
M  V30 5 1 5 6
M  V30 6 2 6 7
M  V30 7 1 7 8
M  V30 8 2 8 9
M  V30 9 1 7 10
M  V30 10 2 10 11
M  V30 11 1 11 12
M  V30 12 1 12 13
M  V30 13 2 12 14
M  V30 14 1 14 15
M  V30 15 1 15 16
M  V30 16 1 16 17
M  V30 17 1 17 18
M  V30 18 2 18 19
M  V30 19 1 19 20
M  V30 20 2 20 21
M  V30 21 1 21 22
M  V30 22 2 22 23
M  V30 23 1 21 24
M  V30 24 1 24 25
M  V30 25 1 24 26
M  V30 26 1 24 27
M  V30 27 2 15 28
M  V30 28 1 2 29
M  V30 29 1 29 30
M  V30 30 2 29 31
M  V30 31 1 9 4
M  V30 32 1 28 10
M  V30 33 1 23 18
M  V30 34 1 1 32
M  V30 35 1 1 33
M  V30 36 1 2 34 CFG=1
M  V30 37 1 3 35
M  V30 38 1 3 36
M  V30 39 1 5 37
M  V30 40 1 6 38
M  V30 41 1 8 39
M  V30 42 1 9 40
M  V30 43 1 13 41
M  V30 44 1 13 42
M  V30 45 1 16 43
M  V30 46 1 17 44
M  V30 47 1 17 45
M  V30 48 1 19 46
M  V30 49 1 20 47
M  V30 50 1 22 48
M  V30 51 1 23 49
M  V30 52 1 28 50
M  V30 53 1 30 51
M  V30 END BOND
M  V30 END CTAB
M  END
