
     RDKit          3D

  0  0  0  0  0  0  0  0  0  0999 V3000
M  V30 BEGIN CTAB
M  V30 COUNTS 21 21 0 0 0
M  V30 BEGIN ATOM
M  V30 1 N 2.13912 1.70727 -0.437754 0
M  V30 2 C 2.29626 0.317421 -0.557874 0
M  V30 3 N 3.45488 -0.0727664 -0.964774 0
M  V30 4 C 1.26795 -0.671158 -0.260308 0
M  V30 5 C 1.45598 -2.06965 -0.386029 0
M  V30 6 N 0.302463 -2.63985 -0.0257903 0
M  V30 7 N -0.582963 -1.75398 0.310064 0
M  V30 8 C -0.0232306 -0.514016 0.178688 0
M  V30 9 N -0.677551 0.726108 0.441052 0
M  V30 10 S -2.29823 0.852122 1.0208 0
M  V30 11 O -2.5859 -0.213607 2.0347 0
M  V30 12 O -2.41212 2.19769 1.71768 0
M  V30 13 N -3.46299 0.754882 -0.213207 0
M  V30 14 H 1.88459 2.29715 -1.25732 0
M  V30 15 H 2.27124 2.19137 0.470018 0
M  V30 16 H 3.69915 -1.06857 -1.09493 0
M  V30 17 H 2.38089 -2.53268 -0.716205 0
M  V30 18 H -1.57773 -1.8724 0.633019 0
M  V30 19 H -0.182566 1.60693 0.281035 0
M  V30 20 H -4.26845 0.135211 -0.00324453 0
M  V30 21 H -3.08079 0.622529 -1.16962 0
M  V30 END ATOM
M  V30 BEGIN BOND
M  V30 1 1 1 2
M  V30 2 2 2 3 CFG=2
M  V30 3 1 2 4
M  V30 4 1 4 5
M  V30 5 2 5 6
M  V30 6 1 6 7
M  V30 7 1 7 8
M  V30 8 1 8 9
M  V30 9 1 9 10
M  V30 10 2 10 11
M  V30 11 2 10 12
M  V30 12 1 10 13
M  V30 13 2 8 4
M  V30 14 1 1 14
M  V30 15 1 1 15
M  V30 16 1 3 16
M  V30 17 1 5 17
M  V30 18 1 7 18
M  V30 19 1 9 19
M  V30 20 1 13 20
M  V30 21 1 13 21
M  V30 END BOND
M  V30 END CTAB
M  END
