
     RDKit          3D

  0  0  0  0  0  0  0  0  0  0999 V3000
M  V30 BEGIN CTAB
M  V30 COUNTS 16 16 0 0 0
M  V30 BEGIN ATOM
M  V30 1 N -1.64195 -1.44704 0.304332 0
M  V30 2 C -0.440335 -0.710528 0.115556 0
M  V30 3 C 0.774901 -1.36178 0.0860898 0
M  V30 4 C 1.92256 -0.623996 -0.0981908 0
M  V30 5 Cl 3.47764 -1.44296 -0.137561 0
M  V30 6 C 1.8604 0.747416 -0.25143 0
M  V30 7 C 0.643579 1.38976 -0.220798 0
M  V30 8 C -0.521686 0.674525 -0.0376085 0
M  V30 9 N -1.78664 1.33503 -0.00492626 0
M  V30 10 F 0.559203 2.73687 -0.369333 0
M  V30 11 F 2.98356 1.48269 -0.43331 0
M  V30 12 H -1.62697 -2.39885 0.73387 0
M  V30 13 H -2.58024 -1.08317 0.0297332 0
M  V30 14 H 0.839723 -2.43514 0.204628 0
M  V30 15 H -2.16084 1.56134 0.955575 0
M  V30 16 H -2.3029 1.57582 -0.876625 0
M  V30 END ATOM
M  V30 BEGIN BOND
M  V30 1 1 1 2
M  V30 2 2 2 3
M  V30 3 1 3 4
M  V30 4 1 4 5
M  V30 5 2 4 6
M  V30 6 1 6 7
M  V30 7 2 7 8
M  V30 8 1 8 9
M  V30 9 1 7 10
M  V30 10 1 6 11
M  V30 11 1 8 2
M  V30 12 1 1 12
M  V30 13 1 1 13
M  V30 14 1 3 14
M  V30 15 1 9 15
M  V30 16 1 9 16
M  V30 END BOND
M  V30 END CTAB
M  END
