
     RDKit          3D

  0  0  0  0  0  0  0  0  0  0999 V3000
M  V30 BEGIN CTAB
M  V30 COUNTS 21 21 0 0 0
M  V30 BEGIN ATOM
M  V30 1 C -2.24157 -0.0724163 -0.0838104 0
M  V30 2 C -1.02148 -0.797893 0.343913 0
M  V30 3 N 0.204426 -0.0736003 0.18601 0
M  V30 4 N 1.34587 -0.497343 -0.33008 0
M  V30 5 C 2.25569 0.458582 -0.306623 0
M  V30 6 N 1.70616 1.54248 0.237577 0
M  V30 7 C 0.43928 1.21005 0.540577 0
M  V30 8 N -0.46953 2.11808 1.1433 0
M  V30 9 N 3.62324 0.430103 -0.763872 0
M  V30 10 C -0.914729 -2.0667 -0.509583 0
M  V30 11 H -2.07267 0.928718 -0.510907 0
M  V30 12 H -2.85109 -0.634856 -0.847109 0
M  V30 13 H -2.92878 0.0120894 0.808488 0
M  V30 14 H -1.09923 -1.1677 1.39578 0
M  V30 15 H -0.930417 2.80972 0.487444 0
M  V30 16 H -0.706845 2.15393 2.13781 0
M  V30 17 H 4.13204 -0.479219 -0.732411 0
M  V30 18 H 4.07923 1.29896 -1.11336 0
M  V30 19 H -1.75767 -2.75944 -0.307477 0
M  V30 20 H 0.011135 -2.59624 -0.193599 0
M  V30 21 H -0.803061 -1.8173 -1.58207 0
M  V30 END ATOM
M  V30 BEGIN BOND
M  V30 1 1 1 2
M  V30 2 1 2 3
M  V30 3 1 3 4
M  V30 4 2 4 5
M  V30 5 1 5 6
M  V30 6 2 6 7
M  V30 7 1 7 8
M  V30 8 1 5 9
M  V30 9 1 2 10
M  V30 10 1 7 3
M  V30 11 1 1 11
M  V30 12 1 1 12
M  V30 13 1 1 13
M  V30 14 1 2 14
M  V30 15 1 8 15
M  V30 16 1 8 16
M  V30 17 1 9 17
M  V30 18 1 9 18
M  V30 19 1 10 19
M  V30 20 1 10 20
M  V30 21 1 10 21
M  V30 END BOND
M  V30 END CTAB
M  END
