
     RDKit          3D

  0  0  0  0  0  0  0  0  0  0999 V3000
M  V30 BEGIN CTAB
M  V30 COUNTS 26 26 0 0 0
M  V30 BEGIN ATOM
M  V30 1 N 3.88293 0.4017 -0.951609 0
M  V30 2 C 3.65769 -0.892146 -0.333755 0
M  V30 3 C 2.50503 -0.820998 0.638043 0
M  V30 4 N 1.29486 -0.423406 -0.0405745 0
M  V30 5 C 0.0668215 -0.281508 0.647367 0
M  V30 6 O 0.0804285 -0.521514 1.89463 0
M  V30 7 C -1.18215 0.108257 0.0552077 0
M  V30 8 C -1.28221 0.384814 -1.28393 0
M  V30 9 C -2.49248 0.762636 -1.85857 0
M  V30 10 C -3.62494 0.866997 -1.08441 0
M  V30 11 C -3.52525 0.588935 0.263076 0
M  V30 12 C -2.30604 0.210065 0.832803 0
M  V30 13 N -2.28685 -0.0580131 2.22166 0
M  V30 14 F -4.81926 1.23338 -1.61742 0
M  V30 15 H 4.65235 0.918849 -0.453163 0
M  V30 16 H 3.0013 0.992041 -0.924692 0
M  V30 17 H 4.5521 -1.31577 0.117975 0
M  V30 18 H 3.32877 -1.57132 -1.16456 0
M  V30 19 H 2.41156 -1.83677 1.09071 0
M  V30 20 H 2.71429 -0.135573 1.48478 0
M  V30 21 H 1.32614 -0.236617 -1.06019 0
M  V30 22 H -0.409819 0.311407 -1.91721 0
M  V30 23 H -2.56462 0.98177 -2.92799 0
M  V30 24 H -4.41237 0.668819 0.879366 0
M  V30 25 H -1.86728 0.598096 2.91539 0
M  V30 26 H -2.70101 -0.934126 2.57706 0
M  V30 END ATOM
M  V30 BEGIN BOND
M  V30 1 1 1 2
M  V30 2 1 2 3
M  V30 3 1 3 4
M  V30 4 1 4 5
M  V30 5 2 5 6
M  V30 6 1 5 7
M  V30 7 2 7 8
M  V30 8 1 8 9
M  V30 9 2 9 10
M  V30 10 1 10 11
M  V30 11 2 11 12
M  V30 12 1 12 13
M  V30 13 1 10 14
M  V30 14 1 12 7
M  V30 15 1 1 15
M  V30 16 1 1 16
M  V30 17 1 2 17
M  V30 18 1 2 18
M  V30 19 1 3 19
M  V30 20 1 3 20
M  V30 21 1 4 21
M  V30 22 1 8 22
M  V30 23 1 9 23
M  V30 24 1 11 24
M  V30 25 1 13 25
M  V30 26 1 13 26
M  V30 END BOND
M  V30 END CTAB
M  END
