
     RDKit          3D

  0  0  0  0  0  0  0  0  0  0999 V3000
M  V30 BEGIN CTAB
M  V30 COUNTS 50 53 0 0 0
M  V30 BEGIN ATOM
M  V30 1 N 6.44398 -2.15737 1.67739 0
M  V30 2 C 6.3867 -0.954654 0.852956 0
M  V30 3 C 5.36336 -1.1613 -0.244592 0
M  V30 4 C 4.32596 -0.572633 0.720832 0
M  V30 5 C 5.47879 0.117934 1.4182 0
M  V30 6 C 3.38369 0.307669 0.0302945 0
M  V30 7 C 2.02894 0.141851 0.280213 0
M  V30 8 C 1.06846 0.915915 -0.316671 0
M  V30 9 N 1.47556 1.88417 -1.18924 0
M  V30 10 C 2.78531 2.04625 -1.43243 0
M  V30 11 N 3.73431 1.26894 -0.831743 0
M  V30 12 N 3.15105 3.07301 -2.35256 0
M  V30 13 N -0.288133 0.701517 -0.0219111 0
M  V30 14 C -0.739766 -0.272709 0.926991 0
M  V30 15 C -2.11482 0.144048 1.41945 0
M  V30 16 N -3.08014 0.14807 0.293745 0
M  V30 17 C -2.54431 0.603775 -0.945934 0
M  V30 18 C -1.30705 1.49607 -0.707158 0
M  V30 19 C -4.38678 -0.259279 0.616279 0
M  V30 20 N -4.76047 -0.279227 1.94943 0
M  V30 21 C -5.99112 -0.621969 2.31527 0
M  V30 22 C -6.96359 -0.974158 1.42345 0
M  V30 23 C -6.65676 -0.973659 0.107823 0
M  V30 24 C -5.3546 -0.612046 -0.286391 0
M  V30 25 C -5.06692 -0.656623 -1.73583 0
M  V30 26 H 5.49906 -2.33645 2.05827 0
M  V30 27 H 6.78177 -2.93645 1.06281 0
M  V30 28 H 7.37418 -0.589277 0.512581 0
M  V30 29 H 5.49475 -0.460122 -1.11716 0
M  V30 30 H 5.14644 -2.19535 -0.511653 0
M  V30 31 H 3.86966 -1.3004 1.38791 0
M  V30 32 H 5.44369 0.000494299 2.54155 0
M  V30 33 H 5.72155 1.1237 1.07259 0
M  V30 34 H 1.69921 -0.629343 0.97366 0
M  V30 35 H 2.68415 4.00456 -2.33689 0
M  V30 36 H 3.90685 2.87191 -3.05341 0
M  V30 37 H -0.713632 -1.30584 0.554147 0
M  V30 38 H -0.0796004 -0.202942 1.8388 0
M  V30 39 H -2.46249 -0.472338 2.25161 0
M  V30 40 H -2.0292 1.20814 1.73145 0
M  V30 41 H -2.13155 -0.22109 -1.59922 0
M  V30 42 H -3.24443 1.27091 -1.48301 0
M  V30 43 H -1.62369 2.33676 -0.0984327 0
M  V30 44 H -0.963348 1.81224 -1.68615 0
M  V30 45 H -6.21398 -0.614838 3.38617 0
M  V30 46 H -7.94866 -1.24111 1.81654 0
M  V30 47 H -7.39037 -1.24393 -0.636843 0
M  V30 48 H -4.14867 -1.22385 -1.985 0
M  V30 49 H -5.15857 0.291818 -2.2646 0
M  V30 50 H -5.88474 -1.3008 -2.22291 0
M  V30 END ATOM
M  V30 BEGIN BOND
M  V30 1 1 1 2
M  V30 2 1 2 3
M  V30 3 1 3 4
M  V30 4 1 4 5
M  V30 5 1 4 6
M  V30 6 2 6 7
M  V30 7 1 7 8
M  V30 8 2 8 9
M  V30 9 1 9 10
M  V30 10 2 10 11
M  V30 11 1 10 12
M  V30 12 1 8 13
M  V30 13 1 13 14
M  V30 14 1 14 15
M  V30 15 1 15 16
M  V30 16 1 16 17
M  V30 17 1 17 18
M  V30 18 1 16 19
M  V30 19 2 19 20
M  V30 20 1 20 21
M  V30 21 2 21 22
M  V30 22 1 22 23
M  V30 23 2 23 24
M  V30 24 1 24 25
M  V30 25 1 5 2
M  V30 26 1 11 6
M  V30 27 1 18 13
M  V30 28 1 24 19
M  V30 29 1 1 26
M  V30 30 1 1 27
M  V30 31 1 2 28
M  V30 32 1 3 29
M  V30 33 1 3 30
M  V30 34 1 4 31
M  V30 35 1 5 32
M  V30 36 1 5 33
M  V30 37 1 7 34
M  V30 38 1 12 35
M  V30 39 1 12 36
M  V30 40 1 14 37
M  V30 41 1 14 38
M  V30 42 1 15 39
M  V30 43 1 15 40
M  V30 44 1 17 41
M  V30 45 1 17 42
M  V30 46 1 18 43
M  V30 47 1 18 44
M  V30 48 1 21 45
M  V30 49 1 22 46
M  V30 50 1 23 47
M  V30 51 1 25 48
M  V30 52 1 25 49
M  V30 53 1 25 50
M  V30 END BOND
M  V30 END CTAB
M  END
