
     RDKit          3D

  0  0  0  0  0  0  0  0  0  0999 V3000
M  V30 BEGIN CTAB
M  V30 COUNTS 32 33 0 0 0
M  V30 BEGIN ATOM
M  V30 1 N 5.40796 0.734233 0.871432 0
M  V30 2 N 4.78834 1.00712 -0.336906 0
M  V30 3 C 3.44384 0.637915 -0.544153 0
M  V30 4 S 2.67697 0.951561 -1.97913 0
M  V30 5 C 2.72089 -0.0448515 0.560704 0
M  V30 6 N 1.36419 -0.365655 0.221148 0
M  V30 7 N 0.281102 0.367047 0.391815 0
M  V30 8 C -0.809918 -0.273181 -0.0519815 0
M  V30 9 N -0.348563 -1.44605 -0.509204 0
M  V30 10 C 0.985362 -1.52051 -0.349542 0
M  V30 11 N 1.81871 -2.6291 -0.724235 0
M  V30 12 N -2.15587 0.168185 -0.0494747 0
M  V30 13 C -2.43836 1.48173 0.496211 0
M  V30 14 C -3.91869 1.59032 0.805719 0
M  V30 15 O -4.33143 0.341996 1.26856 0
M  V30 16 C -4.51747 -0.465934 0.126151 0
M  V30 17 C -3.19265 -0.690028 -0.58254 0
M  V30 18 H 6.43895 0.793957 0.827643 0
M  V30 19 H 5.17724 -0.231155 1.1921 0
M  V30 20 H 5.3213 1.48421 -1.08552 0
M  V30 21 H 2.77995 0.565346 1.50728 0
M  V30 22 H 3.27331 -0.979938 0.786822 0
M  V30 23 H 1.41206 -3.5773 -0.840832 0
M  V30 24 H 2.82656 -2.49398 -0.880623 0
M  V30 25 H -2.11136 2.27873 -0.211593 0
M  V30 26 H -1.8915 1.66475 1.44416 0
M  V30 27 H -4.04365 2.30472 1.64927 0
M  V30 28 H -4.48694 1.90694 -0.0825668 0
M  V30 29 H -5.24197 0.0830123 -0.511105 0
M  V30 30 H -4.98768 -1.4376 0.40344 0
M  V30 31 H -2.92585 -1.7564 -0.530594 0
M  V30 32 H -3.31483 -0.450064 -1.67449 0
M  V30 END ATOM
M  V30 BEGIN BOND
M  V30 1 1 1 2
M  V30 2 1 2 3
M  V30 3 2 3 4
M  V30 4 1 3 5
M  V30 5 1 5 6
M  V30 6 1 6 7
M  V30 7 2 7 8
M  V30 8 1 8 9
M  V30 9 2 9 10
M  V30 10 1 10 11
M  V30 11 1 8 12
M  V30 12 1 12 13
M  V30 13 1 13 14
M  V30 14 1 14 15
M  V30 15 1 15 16
M  V30 16 1 16 17
M  V30 17 1 10 6
M  V30 18 1 17 12
M  V30 19 1 1 18
M  V30 20 1 1 19
M  V30 21 1 2 20
M  V30 22 1 5 21
M  V30 23 1 5 22
M  V30 24 1 11 23
M  V30 25 1 11 24
M  V30 26 1 13 25
M  V30 27 1 13 26
M  V30 28 1 14 27
M  V30 29 1 14 28
M  V30 30 1 16 29
M  V30 31 1 16 30
M  V30 32 1 17 31
M  V30 33 1 17 32
M  V30 END BOND
M  V30 END CTAB
M  END
