
     RDKit          3D

  0  0  0  0  0  0  0  0  0  0999 V3000
M  V30 BEGIN CTAB
M  V30 COUNTS 51 54 0 0 0
M  V30 BEGIN ATOM
M  V30 1 N -8.90981 1.54757 -0.956422 0
M  V30 2 C -7.7841 1.30972 -0.0956018 0
M  V30 3 C -6.7452 2.19319 -0.0564888 0
M  V30 4 C -5.65579 2.00347 0.748871 0
M  V30 5 C -5.59597 0.891123 1.54769 0
M  V30 6 C -6.64823 -0.000803393 1.50608 0
M  V30 7 C -7.74299 0.188498 0.697694 0
M  V30 8 S -4.24345 0.53481 2.63028 0
M  V30 9 C -2.98944 -0.436047 1.79593 0
M  V30 10 C -3.10737 -0.830845 0.47941 0
M  V30 11 C -2.10704 -1.57981 -0.113082 0
M  V30 12 C -0.970794 -1.96173 0.559322 0
M  V30 13 C -0.844993 -1.57089 1.87675 0
M  V30 14 C -1.85603 -0.814103 2.475 0
M  V30 15 C 0.0894096 -2.76822 -0.10506 0
M  V30 16 C 1.11028 -1.93101 -0.754712 0
M  V30 17 C 0.995344 -1.52039 -2.06483 0
M  V30 18 C 1.96707 -0.729415 -2.66699 0
M  V30 19 C 3.06309 -0.339473 -1.97021 0
M  V30 20 C 3.20979 -0.731134 -0.660876 0
M  V30 21 C 2.22823 -1.52792 -0.058666 0
M  V30 22 S 4.35938 0.682615 -2.68284 0
M  V30 23 C 5.64255 1.00479 -1.4991 0
M  V30 24 C 6.71749 0.129316 -1.413 0
M  V30 25 C 7.68667 0.406925 -0.49183 0
M  V30 26 C 7.6206 1.50056 0.324986 0
M  V30 27 C 6.53588 2.368 0.225453 0
M  V30 28 C 5.54797 2.1215 -0.684692 0
M  V30 29 N 8.65437 1.72372 1.24987 0
M  V30 30 H -9.88132 1.53638 -0.599442 0
M  V30 31 H -8.77077 1.73884 -1.97126 0
M  V30 32 H -6.78719 3.08624 -0.694079 0
M  V30 33 H -4.81966 2.71392 0.780754 0
M  V30 34 H -6.65104 -0.897689 2.11852 0
M  V30 35 H -8.54947 -0.539385 0.696134 0
M  V30 36 H -4.00863 -0.530433 -0.0611631 0
M  V30 37 H -2.19477 -1.89268 -1.14747 0
M  V30 38 H 0.0434677 -1.85919 2.43217 0
M  V30 39 H -1.74043 -0.513569 3.5174 0
M  V30 40 H 0.535734 -3.50461 0.620563 0
M  V30 41 H -0.383445 -3.40801 -0.894129 0
M  V30 42 H 0.107937 -1.8399 -2.61861 0
M  V30 43 H 1.84749 -0.425881 -3.6912 0
M  V30 44 H 4.0856 -0.426497 -0.0850339 0
M  V30 45 H 2.39046 -1.81034 0.976385 0
M  V30 46 H 6.7444 -0.732614 -2.07497 0
M  V30 47 H 8.53147 -0.284628 -0.426937 0
M  V30 48 H 6.49281 3.22338 0.87055 0
M  V30 49 H 4.69465 2.81004 -0.758131 0
M  V30 50 H 9.64091 1.61268 0.937848 0
M  V30 51 H 8.44492 1.99492 2.22916 0
M  V30 END ATOM
M  V30 BEGIN BOND
M  V30 1 1 1 2
M  V30 2 2 2 3
M  V30 3 1 3 4
M  V30 4 2 4 5
M  V30 5 1 5 6
M  V30 6 2 6 7
M  V30 7 1 5 8
M  V30 8 1 8 9
M  V30 9 2 9 10
M  V30 10 1 10 11
M  V30 11 2 11 12
M  V30 12 1 12 13
M  V30 13 2 13 14
M  V30 14 1 12 15
M  V30 15 1 15 16
M  V30 16 2 16 17
M  V30 17 1 17 18
M  V30 18 2 18 19
M  V30 19 1 19 20
M  V30 20 2 20 21
M  V30 21 1 19 22
M  V30 22 1 22 23
M  V30 23 2 23 24
M  V30 24 1 24 25
M  V30 25 2 25 26
M  V30 26 1 26 27
M  V30 27 2 27 28
M  V30 28 1 26 29
M  V30 29 1 7 2
M  V30 30 1 14 9
M  V30 31 1 21 16
M  V30 32 1 28 23
M  V30 33 1 1 30
M  V30 34 1 1 31
M  V30 35 1 3 32
M  V30 36 1 4 33
M  V30 37 1 6 34
M  V30 38 1 7 35
M  V30 39 1 10 36
M  V30 40 1 11 37
M  V30 41 1 13 38
M  V30 42 1 14 39
M  V30 43 1 15 40
M  V30 44 1 15 41
M  V30 45 1 17 42
M  V30 46 1 18 43
M  V30 47 1 20 44
M  V30 48 1 21 45
M  V30 49 1 24 46
M  V30 50 1 25 47
M  V30 51 1 27 48
M  V30 52 1 28 49
M  V30 53 1 29 50
M  V30 54 1 29 51
M  V30 END BOND
M  V30 END CTAB
M  END
