
     RDKit          3D

  0  0  0  0  0  0  0  0  0  0999 V3000
M  V30 BEGIN CTAB
M  V30 COUNTS 27 28 0 0 0
M  V30 BEGIN ATOM
M  V30 1 N -4.32005 2.07262 0.245585 0
M  V30 2 C -3.21667 1.20741 0.0183345 0
M  V30 3 N -2.42684 1.33738 -1.05619 0
M  V30 4 C -1.38739 0.544343 -1.29592 0
M  V30 5 C -1.03703 -0.513665 -0.412211 0
M  V30 6 C 0.182477 -1.25299 -0.757572 0
M  V30 7 C 1.47555 -0.672417 -0.355471 0
M  V30 8 C 2.04934 0.278365 -1.24554 0
M  V30 9 C 3.20284 0.955723 -0.994684 0
M  V30 10 C 3.88401 0.742295 0.166094 0
M  V30 11 C 3.35991 -0.16826 1.04277 0
M  V30 12 C 2.18223 -0.859034 0.781698 0
M  V30 13 Br 1.74927 -2.18188 2.10219 0
M  V30 14 C -1.85101 -0.632198 0.668684 0
M  V30 15 N -1.68361 -1.7082 1.586 0
M  V30 16 N -2.90413 0.217509 0.857844 0
M  V30 17 H -4.79114 2.15616 1.17337 0
M  V30 18 H -4.68791 2.65631 -0.521799 0
M  V30 19 H -0.75396 0.641837 -2.16783 0
M  V30 20 H 0.224182 -1.4132 -1.85939 0
M  V30 21 H 0.0945544 -2.25468 -0.229433 0
M  V30 22 H 1.57711 0.497914 -2.19036 0
M  V30 23 H 3.61246 1.68149 -1.70826 0
M  V30 24 H 4.79829 1.26407 0.396782 0
M  V30 25 H 3.91644 -0.324093 1.9591 0
M  V30 26 H -1.68341 -2.66811 1.19086 0
M  V30 27 H -1.56552 -1.60469 2.60534 0
M  V30 END ATOM
M  V30 BEGIN BOND
M  V30 1 1 1 2
M  V30 2 2 2 3
M  V30 3 1 3 4
M  V30 4 2 4 5
M  V30 5 1 5 6
M  V30 6 1 6 7
M  V30 7 2 7 8
M  V30 8 1 8 9
M  V30 9 2 9 10
M  V30 10 1 10 11
M  V30 11 2 11 12
M  V30 12 1 12 13
M  V30 13 1 5 14
M  V30 14 1 14 15
M  V30 15 2 14 16
M  V30 16 1 16 2
M  V30 17 1 12 7
M  V30 18 1 1 17
M  V30 19 1 1 18
M  V30 20 1 4 19
M  V30 21 1 6 20
M  V30 22 1 6 21
M  V30 23 1 8 22
M  V30 24 1 9 23
M  V30 25 1 10 24
M  V30 26 1 11 25
M  V30 27 1 15 26
M  V30 28 1 15 27
M  V30 END BOND
M  V30 END CTAB
M  END
