
     RDKit          3D

  0  0  0  0  0  0  0  0  0  0999 V3000
M  V30 BEGIN CTAB
M  V30 COUNTS 22 22 0 0 0
M  V30 BEGIN ATOM
M  V30 1 N -2.9881 2.56835 0.25426 0
M  V30 2 C -2.21597 1.38816 0.0657814 0
M  V30 3 N -0.865567 1.42829 0.0492167 0
M  V30 4 C -0.0898465 0.346126 -0.124735 0
M  V30 5 C 1.3718 0.455848 -0.13278 0
M  V30 6 C 2.09003 -0.829284 -0.336013 0
M  V30 7 C 3.59084 -0.500832 -0.312079 0
M  V30 8 Br 3.9973 0.749209 -1.72952 0
M  V30 9 Br 4.65194 -2.09671 -0.431894 0
M  V30 10 Br 4.02033 0.378334 1.36447 0
M  V30 11 N -0.718278 -0.831644 -0.289477 0
M  V30 12 C -2.06634 -0.925682 -0.280972 0
M  V30 13 N -2.69663 -2.18793 -0.458251 0
M  V30 14 N -2.78575 0.176937 -0.104917 0
M  V30 15 H -2.49906 3.4134 0.610251 0
M  V30 16 H -3.98453 2.61086 0.0555758 0
M  V30 17 H 1.69119 0.886807 0.831616 0
M  V30 18 H 1.65955 1.14202 -0.966935 0
M  V30 19 H 1.85649 -1.58879 0.435388 0
M  V30 20 H 1.91413 -1.28614 -1.3351 0
M  V30 21 H -3.71124 -2.20883 -0.734304 0
M  V30 22 H -2.2223 -3.08849 -0.333393 0
M  V30 END ATOM
M  V30 BEGIN BOND
M  V30 1 1 1 2
M  V30 2 2 2 3
M  V30 3 1 3 4
M  V30 4 1 4 5
M  V30 5 1 5 6
M  V30 6 1 6 7
M  V30 7 1 7 8
M  V30 8 1 7 9
M  V30 9 1 7 10
M  V30 10 2 4 11
M  V30 11 1 11 12
M  V30 12 1 12 13
M  V30 13 2 12 14
M  V30 14 1 14 2
M  V30 15 1 1 15
M  V30 16 1 1 16
M  V30 17 1 5 17
M  V30 18 1 5 18
M  V30 19 1 6 19
M  V30 20 1 6 20
M  V30 21 1 13 21
M  V30 22 1 13 22
M  V30 END BOND
M  V30 END CTAB
M  END
