
     RDKit          3D

  0  0  0  0  0  0  0  0  0  0999 V3000
M  V30 BEGIN CTAB
M  V30 COUNTS 38 38 0 0 0
M  V30 BEGIN ATOM
M  V30 1 C -5.00952 0.792365 0.797461 0
M  V30 2 C -3.6758 0.12037 0.949673 0
M  V30 3 C -2.64248 0.673463 -0.00545574 0 CFG=1
M  V30 4 C -1.37005 -0.055063 0.229696 0
M  V30 5 O -0.784456 -0.0305183 1.35556 0
M  V30 6 N -0.764054 -0.807139 -0.803998 0
M  V30 7 C 0.464489 -1.52397 -0.619681 0
M  V30 8 C 1.59153 -0.571572 -0.642173 0
M  V30 9 C 1.40032 0.735884 -1.0073 0
M  V30 10 C 2.49723 1.58471 -1.00509 0
M  V30 11 C 3.74722 1.12595 -0.6453 0
M  V30 12 C 3.89902 -0.191986 -0.285474 0
M  V30 13 C 2.84348 -1.03745 -0.280236 0
M  V30 14 S 5.48466 -0.742335 0.16273 0
M  V30 15 O 6.51967 0.0949015 -0.561404 0
M  V30 16 O 5.6275 -2.166 -0.266229 0
M  V30 17 N 5.80976 -0.625588 1.83293 0
M  V30 18 N -3.05401 0.461613 -1.37815 0
M  V30 19 C -3.8287 -1.34616 0.694188 0
M  V30 20 H -5.68711 0.210956 0.139495 0
M  V30 21 H -4.90515 1.84531 0.423421 0
M  V30 22 H -5.48618 0.83134 1.79521 0
M  V30 23 H -3.2951 0.319004 1.9747 0
M  V30 24 H -2.49135 1.76162 0.16344 0
M  V30 25 H -1.21924 -0.847448 -1.73374 0
M  V30 26 H 0.445161 -2.08155 0.35557 0
M  V30 27 H 0.63986 -2.25417 -1.4447 0
M  V30 28 H 0.425937 1.13959 -1.30331 0
M  V30 29 H 2.3264 2.6256 -1.29921 0
M  V30 30 H 4.57808 1.80372 -0.652037 0
M  V30 31 H 2.98579 -2.07198 0.00596709 0
M  V30 32 H 6.31252 -1.42918 2.22677 0
M  V30 33 H 5.06427 -0.219325 2.40331 0
M  V30 34 H -2.74898 1.24985 -1.99768 0
M  V30 35 H -4.06859 0.29013 -1.47002 0
M  V30 36 H -4.30332 -1.4989 -0.290183 0
M  V30 37 H -4.50779 -1.75612 1.46419 0
M  V30 38 H -2.82101 -1.8168 0.717072 0
M  V30 END ATOM
M  V30 BEGIN BOND
M  V30 1 1 1 2
M  V30 2 1 2 3
M  V30 3 1 3 4
M  V30 4 2 4 5
M  V30 5 1 4 6
M  V30 6 1 6 7
M  V30 7 1 7 8
M  V30 8 2 8 9
M  V30 9 1 9 10
M  V30 10 2 10 11
M  V30 11 1 11 12
M  V30 12 2 12 13
M  V30 13 1 12 14
M  V30 14 2 14 15
M  V30 15 2 14 16
M  V30 16 1 14 17
M  V30 17 1 3 18
M  V30 18 1 2 19
M  V30 19 1 13 8
M  V30 20 1 1 20
M  V30 21 1 1 21
M  V30 22 1 1 22
M  V30 23 1 2 23
M  V30 24 1 3 24 CFG=1
M  V30 25 1 6 25
M  V30 26 1 7 26
M  V30 27 1 7 27
M  V30 28 1 9 28
M  V30 29 1 10 29
M  V30 30 1 11 30
M  V30 31 1 13 31
M  V30 32 1 17 32
M  V30 33 1 17 33
M  V30 34 1 18 34
M  V30 35 1 18 35
M  V30 36 1 19 36
M  V30 37 1 19 37
M  V30 38 1 19 38
M  V30 END BOND
M  V30 END CTAB
M  END
