
     RDKit          3D

  0  0  0  0  0  0  0  0  0  0999 V3000
M  V30 BEGIN CTAB
M  V30 COUNTS 26 26 0 0 0
M  V30 BEGIN ATOM
M  V30 1 N -0.621633 -2.08811 -0.199365 0
M  V30 2 C -0.20817 -0.767161 -0.689268 0 CFG=2
M  V30 3 C 1.28194 -0.727672 -0.635407 0
M  V30 4 N 2.1106 -1.72237 -0.915631 0
M  V30 5 N 3.38658 -1.35097 -0.772773 0
M  V30 6 C 3.33232 -0.0503718 -0.382375 0
M  V30 7 N 2.03662 0.326121 -0.297495 0
M  V30 8 N 4.44402 0.811234 -0.103912 0
M  V30 9 C -0.774233 0.313212 0.206603 0
M  V30 10 N -2.22196 0.313042 0.266656 0
M  V30 11 C -2.68742 1.26418 1.277 0
M  V30 12 C -2.76554 0.86654 -0.991724 0
M  V30 13 H -0.601296 -2.73869 -1.0188 0
M  V30 14 H 0.11755 -2.48759 0.452188 0
M  V30 15 H -0.497867 -0.60907 -1.74725 0
M  V30 16 H 1.87974 -2.72176 -1.21988 0
M  V30 17 H 4.55838 1.13834 0.866857 0
M  V30 18 H 5.10209 1.08796 -0.860601 0
M  V30 19 H -0.325752 0.322192 1.21121 0
M  V30 20 H -0.490023 1.30186 -0.272744 0
M  V30 21 H -3.54546 1.87491 0.937495 0
M  V30 22 H -1.91216 1.94249 1.63041 0
M  V30 23 H -3.00959 0.641949 2.13675 0
M  V30 24 H -3.65556 1.52261 -0.791636 0
M  V30 25 H -1.96588 1.50976 -1.45179 0
M  V30 26 H -2.9673 0.0273599 -1.65423 0
M  V30 END ATOM
M  V30 BEGIN BOND
M  V30 1 1 1 2
M  V30 2 1 2 3
M  V30 3 1 3 4
M  V30 4 1 4 5
M  V30 5 2 5 6
M  V30 6 1 6 7
M  V30 7 1 6 8
M  V30 8 1 2 9
M  V30 9 1 9 10
M  V30 10 1 10 11
M  V30 11 1 10 12
M  V30 12 2 7 3
M  V30 13 1 1 13
M  V30 14 1 1 14
M  V30 15 1 2 15 CFG=3
M  V30 16 1 4 16
M  V30 17 1 8 17
M  V30 18 1 8 18
M  V30 19 1 9 19
M  V30 20 1 9 20
M  V30 21 1 11 21
M  V30 22 1 11 22
M  V30 23 1 11 23
M  V30 24 1 12 24
M  V30 25 1 12 25
M  V30 26 1 12 26
M  V30 END BOND
M  V30 END CTAB
M  END
