
     RDKit          3D

  0  0  0  0  0  0  0  0  0  0999 V3000
M  V30 BEGIN CTAB
M  V30 COUNTS 26 27 0 0 0
M  V30 BEGIN ATOM
M  V30 1 N 2.34524 -1.94576 -0.0785571 0
M  V30 2 C 2.8813 -0.633112 -0.129617 0
M  V30 3 N 4.10487 -0.295411 0.143358 0
M  V30 4 N 4.28002 1.08406 -0.0126093 0
M  V30 5 C 3.18565 1.65446 -0.384603 0
M  V30 6 N 2.93267 3.02337 -0.65186 0
M  V30 7 C 2.19177 0.598119 -0.491743 0
M  V30 8 N 0.958118 0.704984 -0.832479 0
M  V30 9 N 0.0756358 -0.35184 -0.910142 0
M  V30 10 C -1.15567 -0.288625 -0.203156 0
M  V30 11 C -2.07729 -1.32193 -0.24685 0
M  V30 12 C -3.27254 -1.27226 0.433182 0
M  V30 13 O -4.16868 -2.33482 0.360043 0
M  V30 14 C -3.54073 -0.144353 1.17776 0
M  V30 15 C -2.66235 0.921251 1.26223 0
M  V30 16 C -1.48049 0.813256 0.558599 0
M  V30 17 H 2.01674 -2.30614 0.843713 0
M  V30 18 H 2.2806 -2.52634 -0.919729 0
M  V30 19 H 2.5998 3.35566 -1.5635 0
M  V30 20 H 3.09513 3.70584 0.114972 0
M  V30 21 H 0.287795 -1.203 -1.47747 0
M  V30 22 H -1.8577 -2.20259 -0.833772 0
M  V30 23 H -4.89379 -2.40293 -0.34089 0
M  V30 24 H -4.48368 -0.0669234 1.73451 0
M  V30 25 H -2.89663 1.81093 1.86198 0
M  V30 26 H -0.745794 1.62412 0.58664 0
M  V30 END ATOM
M  V30 BEGIN BOND
M  V30 1 1 1 2
M  V30 2 2 2 3
M  V30 3 1 3 4
M  V30 4 2 4 5
M  V30 5 1 5 6
M  V30 6 1 5 7
M  V30 7 2 7 8
M  V30 8 1 8 9
M  V30 9 1 9 10
M  V30 10 2 10 11
M  V30 11 1 11 12
M  V30 12 1 12 13
M  V30 13 2 12 14
M  V30 14 1 14 15
M  V30 15 2 15 16
M  V30 16 1 7 2
M  V30 17 1 16 10
M  V30 18 1 1 17
M  V30 19 1 1 18
M  V30 20 1 6 19
M  V30 21 1 6 20
M  V30 22 1 9 21
M  V30 23 1 11 22
M  V30 24 1 13 23
M  V30 25 1 14 24
M  V30 26 1 15 25
M  V30 27 1 16 26
M  V30 END BOND
M  V30 END CTAB
M  END
