
     RDKit          3D

  0  0  0  0  0  0  0  0  0  0999 V3000
M  V30 BEGIN CTAB
M  V30 COUNTS 22 22 0 0 0
M  V30 BEGIN ATOM
M  V30 1 C 3.17542 0.344395 0.291303 0
M  V30 2 C 2.33702 -0.477277 -0.654412 0
M  V30 3 C 0.897699 -0.398224 -0.286338 0
M  V30 4 C 0.0809072 0.58083 -0.814354 0
M  V30 5 C -1.26569 0.661666 -0.475414 0
M  V30 6 N -2.09738 1.66311 -1.01665 0
M  V30 7 C -1.83622 -0.235205 0.402658 0
M  V30 8 C -1.01894 -1.21337 0.92983 0
M  V30 9 C 0.317181 -1.29143 0.591828 0
M  V30 10 Cl -1.7361 -2.35852 2.04757 0
M  V30 11 N -3.2193 -0.156313 0.754024 0
M  V30 12 H 4.1727 0.543043 -0.132486 0
M  V30 13 H 2.6033 1.29504 0.470704 0
M  V30 14 H 3.24218 -0.228956 1.2451 0
M  V30 15 H 2.71568 -1.53734 -0.569774 0
M  V30 16 H 2.5079 -0.205171 -1.72142 0
M  V30 17 H 0.524329 1.27638 -1.49559 0
M  V30 18 H -2.80079 2.12612 -0.401201 0
M  V30 19 H -2.037 1.95818 -2.00525 0
M  V30 20 H 0.924474 -2.07951 1.03186 0
M  V30 21 H -3.94795 0.240448 0.125583 0
M  V30 22 H -3.53941 -0.507898 1.68241 0
M  V30 END ATOM
M  V30 BEGIN BOND
M  V30 1 1 1 2
M  V30 2 1 2 3
M  V30 3 2 3 4
M  V30 4 1 4 5
M  V30 5 1 5 6
M  V30 6 2 5 7
M  V30 7 1 7 8
M  V30 8 2 8 9
M  V30 9 1 8 10
M  V30 10 1 7 11
M  V30 11 1 9 3
M  V30 12 1 1 12
M  V30 13 1 1 13
M  V30 14 1 1 14
M  V30 15 1 2 15
M  V30 16 1 2 16
M  V30 17 1 4 17
M  V30 18 1 6 18
M  V30 19 1 6 19
M  V30 20 1 9 20
M  V30 21 1 11 21
M  V30 22 1 11 22
M  V30 END BOND
M  V30 END CTAB
M  END
