
     RDKit          3D

  0  0  0  0  0  0  0  0  0  0999 V3000
M  V30 BEGIN CTAB
M  V30 COUNTS 30 30 0 0 0
M  V30 BEGIN ATOM
M  V30 1 N -0.72565 -0.669359 -1.59663 0
M  V30 2 C -0.99833 0.0214939 -0.323867 0 CFG=1
M  V30 3 C -2.21129 -0.548836 0.302926 0
M  V30 4 O -2.25328 -1.37418 1.3225 0
M  V30 5 C -3.49306 -1.67689 1.61326 0
M  V30 6 N -4.30063 -1.04647 0.778057 0
M  V30 7 C -3.51042 -0.319378 -0.0686726 0
M  V30 8 C -4.03407 0.523955 -1.12021 0
M  V30 9 O -5.28533 0.576764 -1.28854 0
M  V30 10 O -3.17867 1.25287 -1.9166 0
M  V30 11 C 0.238959 -0.239606 0.5388 0
M  V30 12 C 1.40427 0.345572 -0.188753 0
M  V30 13 C 2.71536 0.182299 0.517874 0
M  V30 14 C 3.77634 0.843743 -0.369611 0
M  V30 15 N 5.06832 0.709802 0.276645 0
M  V30 16 H -0.0768663 -1.48271 -1.37802 0
M  V30 17 H -1.61966 -1.14798 -1.87447 0
M  V30 18 H -1.06285 1.09334 -0.548973 0
M  V30 19 H -3.8092 -2.34655 2.42178 0
M  V30 20 H -3.0215 2.23666 -1.72394 0
M  V30 21 H 0.0894356 0.234749 1.52553 0
M  V30 22 H 0.335489 -1.33839 0.641076 0
M  V30 23 H 1.19817 1.39725 -0.464591 0
M  V30 24 H 1.49189 -0.212456 -1.1661 0
M  V30 25 H 2.9529 -0.894481 0.547834 0
M  V30 26 H 2.73951 0.574889 1.53363 0
M  V30 27 H 3.55621 1.91304 -0.51365 0
M  V30 28 H 3.84306 0.295166 -1.33749 0
M  V30 29 H 5.11379 -0.268588 0.65263 0
M  V30 30 H 5.05711 1.36428 1.10517 0
M  V30 END ATOM
M  V30 BEGIN BOND
M  V30 1 1 1 2
M  V30 2 1 2 3
M  V30 3 1 3 4
M  V30 4 1 4 5
M  V30 5 2 5 6
M  V30 6 1 6 7
M  V30 7 1 7 8
M  V30 8 2 8 9
M  V30 9 1 8 10
M  V30 10 1 2 11
M  V30 11 1 11 12
M  V30 12 1 12 13
M  V30 13 1 13 14
M  V30 14 1 14 15
M  V30 15 2 7 3
M  V30 16 1 1 16
M  V30 17 1 1 17
M  V30 18 1 2 18 CFG=3
M  V30 19 1 5 19
M  V30 20 1 10 20
M  V30 21 1 11 21
M  V30 22 1 11 22
M  V30 23 1 12 23
M  V30 24 1 12 24
M  V30 25 1 13 25
M  V30 26 1 13 26
M  V30 27 1 14 27
M  V30 28 1 14 28
M  V30 29 1 15 29
M  V30 30 1 15 30
M  V30 END BOND
M  V30 END CTAB
M  END
