
     RDKit          3D

  0  0  0  0  0  0  0  0  0  0999 V3000
M  V30 BEGIN CTAB
M  V30 COUNTS 20 20 0 0 0
M  V30 BEGIN ATOM
M  V30 1 O -4.03876 0.913265 0.355516 0
M  V30 2 N -2.67289 1.01132 0.325563 0
M  V30 3 C -1.95954 -0.0277834 0.137467 0
M  V30 4 C -0.49396 0.0202067 0.0962668 0
M  V30 5 C 0.260434 -1.11171 -0.107872 0
M  V30 6 C 1.6323 -1.10579 -0.152597 0
M  V30 7 C 2.30482 0.0791927 0.0124444 0
M  V30 8 C 1.57368 1.22706 0.218331 0
M  V30 9 C 0.185286 1.20783 0.261502 0
M  V30 10 F 2.23128 2.42292 0.385613 0
M  V30 11 N 3.74653 0.126406 -0.0280572 0
M  V30 12 N -2.58898 -1.28663 -0.0406736 0
M  V30 13 H -4.57883 1.75612 0.502356 0
M  V30 14 H -0.270414 -2.07741 -0.242949 0
M  V30 15 H 2.21038 -2.02541 -0.317295 0
M  V30 16 H -0.369876 2.14007 0.427425 0
M  V30 17 H 4.27006 -0.688639 -0.352852 0
M  V30 18 H 4.21502 0.978935 0.270736 0
M  V30 19 H -3.45197 -1.40769 -0.615229 0
M  V30 20 H -2.20455 -2.15225 0.404526 0
M  V30 END ATOM
M  V30 BEGIN BOND
M  V30 1 1 1 2
M  V30 2 2 2 3 CFG=2
M  V30 3 1 3 4
M  V30 4 2 4 5
M  V30 5 1 5 6
M  V30 6 2 6 7
M  V30 7 1 7 8
M  V30 8 2 8 9
M  V30 9 1 8 10
M  V30 10 1 7 11
M  V30 11 1 3 12
M  V30 12 1 9 4
M  V30 13 1 1 13
M  V30 14 1 5 14
M  V30 15 1 6 15
M  V30 16 1 9 16
M  V30 17 1 11 17
M  V30 18 1 11 18
M  V30 19 1 12 19
M  V30 20 1 12 20
M  V30 END BOND
M  V30 END CTAB
M  END
