
     RDKit          3D

  0  0  0  0  0  0  0  0  0  0999 V3000
M  V30 BEGIN CTAB
M  V30 COUNTS 55 57 0 0 0
M  V30 BEGIN ATOM
M  V30 1 C -7.27506 -0.246867 1.4242 0
M  V30 2 C -6.00213 -0.0293039 0.589684 0
M  V30 3 C -4.78682 -0.158427 1.44432 0
M  V30 4 O -3.56363 0.0028469 0.850732 0
M  V30 5 C -2.92569 -0.727781 -0.131933 0
M  V30 6 C -3.46602 -1.84974 -0.704066 0
M  V30 7 C -2.78677 -2.54513 -1.68053 0
M  V30 8 C -1.5454 -2.14478 -2.11852 0
M  V30 9 C -0.994908 -1.00828 -1.54016 0
M  V30 10 C -1.65589 -0.318076 -0.578844 0
M  V30 11 C -1.13684 0.92871 0.0790896 0
M  V30 12 N 0.157602 1.31619 -0.343221 0
M  V30 13 C 1.34046 0.595853 -0.00716933 0
M  V30 14 C 2.57348 0.975051 -0.48261 0
M  V30 15 C 3.75077 0.324096 -0.181398 0
M  V30 16 N 3.66151 -0.744707 0.629475 0
M  V30 17 C 2.46858 -1.13975 1.11047 0
M  V30 18 N 1.33153 -0.49011 0.803867 0
M  V30 19 N 2.41099 -2.28796 1.97637 0
M  V30 20 C 5.01763 0.813866 -0.746502 0
M  V30 21 C 6.11807 1.053 0.272903 0
M  V30 22 C 6.67526 -0.313325 -0.0719248 0
M  V30 23 C 5.89135 -0.253147 -1.36804 0
M  V30 24 N 8.1206 -0.292674 -0.26778 0
M  V30 25 C 0.295353 2.50683 -1.16036 0
M  V30 26 C -6.10203 1.45383 0.168901 0
M  V30 27 H -8.09235 0.221686 0.872665 0
M  V30 28 H -7.4197 -1.31669 1.64524 0
M  V30 29 H -7.12711 0.349649 2.36282 0
M  V30 30 H -6.05197 -0.594471 -0.322605 0
M  V30 31 H -4.81203 -1.2173 1.85957 0
M  V30 32 H -4.90355 0.490793 2.36728 0
M  V30 33 H -4.44322 -2.20493 -0.366331 0
M  V30 34 H -3.2335 -3.42841 -2.11859 0
M  V30 35 H -0.98837 -2.66833 -2.88184 0
M  V30 36 H -0.00843179 -0.657712 -1.87993 0
M  V30 37 H -1.13723 0.804886 1.18068 0
M  V30 38 H -1.91132 1.70478 -0.128075 0
M  V30 39 H 2.58735 1.85045 -1.13719 0
M  V30 40 H 3.1478 -2.44391 2.67389 0
M  V30 41 H 1.63103 -2.97693 1.91525 0
M  V30 42 H 4.88591 1.69075 -1.39011 0
M  V30 43 H 5.68743 1.14353 1.293 0
M  V30 44 H 6.78894 1.88435 -0.0184976 0
M  V30 45 H 6.31018 -1.10133 0.586997 0
M  V30 46 H 5.35615 -1.21841 -1.556 0
M  V30 47 H 6.4888 0.124002 -2.19785 0
M  V30 48 H 8.53245 -0.275723 0.694079 0
M  V30 49 H 8.42254 0.598864 -0.71777 0
M  V30 50 H 0.673595 2.18675 -2.15958 0
M  V30 51 H 1.05779 3.17506 -0.69922 0
M  V30 52 H -0.62637 3.08204 -1.24397 0
M  V30 53 H -5.38386 1.6711 -0.63057 0
M  V30 54 H -7.15027 1.67109 -0.108212 0
M  V30 55 H -5.85268 2.03412 1.09308 0
M  V30 END ATOM
M  V30 BEGIN BOND
M  V30 1 1 1 2
M  V30 2 1 2 3
M  V30 3 1 3 4
M  V30 4 1 4 5
M  V30 5 2 5 6
M  V30 6 1 6 7
M  V30 7 2 7 8
M  V30 8 1 8 9
M  V30 9 2 9 10
M  V30 10 1 10 11
M  V30 11 1 11 12
M  V30 12 1 12 13
M  V30 13 2 13 14
M  V30 14 1 14 15
M  V30 15 2 15 16
M  V30 16 1 16 17
M  V30 17 2 17 18
M  V30 18 1 17 19
M  V30 19 1 15 20
M  V30 20 1 20 21
M  V30 21 1 21 22
M  V30 22 1 22 23
M  V30 23 1 22 24
M  V30 24 1 12 25
M  V30 25 1 2 26
M  V30 26 1 10 5
M  V30 27 1 18 13
M  V30 28 1 23 20
M  V30 29 1 1 27
M  V30 30 1 1 28
M  V30 31 1 1 29
M  V30 32 1 2 30
M  V30 33 1 3 31
M  V30 34 1 3 32
M  V30 35 1 6 33
M  V30 36 1 7 34
M  V30 37 1 8 35
M  V30 38 1 9 36
M  V30 39 1 11 37
M  V30 40 1 11 38
M  V30 41 1 14 39
M  V30 42 1 19 40
M  V30 43 1 19 41
M  V30 44 1 20 42
M  V30 45 1 21 43
M  V30 46 1 21 44
M  V30 47 1 22 45
M  V30 48 1 23 46
M  V30 49 1 23 47
M  V30 50 1 24 48
M  V30 51 1 24 49
M  V30 52 1 25 50
M  V30 53 1 25 51
M  V30 54 1 25 52
M  V30 55 1 26 53
M  V30 56 1 26 54
M  V30 57 1 26 55
M  V30 END BOND
M  V30 END CTAB
M  END
