
     RDKit          3D

  0  0  0  0  0  0  0  0  0  0999 V3000
M  V30 BEGIN CTAB
M  V30 COUNTS 21 20 0 0 0
M  V30 BEGIN ATOM
M  V30 1 C -1.41467 1.55049 0.446038 0
M  V30 2 C -0.684184 0.306506 -0.0254199 0 CFG=1
M  V30 3 C 0.610808 0.221945 0.647566 0
M  V30 4 O 0.788443 0.13023 1.87327 0
M  V30 5 O 1.77776 0.244316 -0.140413 0
M  V30 6 C 3.0689 0.166905 0.432661 0
M  V30 7 C -1.56965 -0.893911 0.272941 0
M  V30 8 N -0.997671 -2.13381 -0.123131 0
M  V30 9 N -0.527345 0.403661 -1.46274 0
M  V30 10 H -1.9557 1.37426 1.40142 0
M  V30 11 H -2.14774 1.84614 -0.348599 0
M  V30 12 H -0.684966 2.3947 0.57333 0
M  V30 13 H 3.0595 0.365962 1.52502 0
M  V30 14 H 3.4825 -0.840535 0.271039 0
M  V30 15 H 3.71414 0.89901 -0.101656 0
M  V30 16 H -1.72836 -0.908897 1.3784 0
M  V30 17 H -2.56998 -0.752605 -0.183004 0
M  V30 18 H -1.05542 -2.89488 0.574088 0
M  V30 19 H -1.18365 -2.41819 -1.10075 0
M  V30 20 H 0.0699325 -0.383812 -1.80509 0
M  V30 21 H -0.0526405 1.32251 -1.68689 0
M  V30 END ATOM
M  V30 BEGIN BOND
M  V30 1 1 1 2
M  V30 2 1 2 3 CFG=1
M  V30 3 2 3 4
M  V30 4 1 3 5
M  V30 5 1 5 6
M  V30 6 1 2 7
M  V30 7 1 7 8
M  V30 8 1 2 9
M  V30 9 1 1 10
M  V30 10 1 1 11
M  V30 11 1 1 12
M  V30 12 1 6 13
M  V30 13 1 6 14
M  V30 14 1 6 15
M  V30 15 1 7 16
M  V30 16 1 7 17
M  V30 17 1 8 18
M  V30 18 1 8 19
M  V30 19 1 9 20
M  V30 20 1 9 21
M  V30 END BOND
M  V30 END CTAB
M  END
