
     RDKit          3D

  0  0  0  0  0  0  0  0  0  0999 V3000
M  V30 BEGIN CTAB
M  V30 COUNTS 30 31 0 0 0
M  V30 BEGIN ATOM
M  V30 1 N -4.95004 -0.83961 1.09147 0
M  V30 2 C -3.66967 -0.616244 0.564235 0
M  V30 3 C -3.48639 -0.549732 -0.82085 0
M  V30 4 N -4.6485 -0.718677 -1.62363 0
M  V30 5 C -2.24543 -0.332196 -1.37217 0
M  V30 6 C -1.12123 -0.16978 -0.557719 0
M  V30 7 C -1.34351 -0.241788 0.793879 0
M  V30 8 C -2.57295 -0.458439 1.38314 0
M  V30 9 C 0.162606 0.056627 -1.18235 0
M  V30 10 O 0.264369 0.106563 -2.43915 0
M  V30 11 N 1.36105 0.232889 -0.441802 0
M  V30 12 C 2.64263 0.45894 -1.06815 0
M  V30 13 C 3.66576 0.598012 -0.00897888 0
M  V30 14 C 5.02202 0.824818 -0.205996 0
M  V30 15 C 5.58093 0.882867 1.0486 0
M  V30 16 C 4.56054 0.692127 1.95479 0
M  V30 17 O 3.46064 0.529949 1.29402 0
M  V30 18 H -5.80638 -0.685688 0.528599 0
M  V30 19 H -5.05357 -1.16739 2.06892 0
M  V30 20 H -4.87583 -0.0780202 -2.38755 0
M  V30 21 H -5.27185 -1.52426 -1.41019 0
M  V30 22 H -2.10678 -0.281163 -2.44696 0
M  V30 23 H -0.487425 -0.119436 1.46445 0
M  V30 24 H -2.70911 -0.509003 2.45599 0
M  V30 25 H 1.28983 0.193784 0.595809 0
M  V30 26 H 2.93336 -0.356104 -1.76189 0
M  V30 27 H 2.58952 1.41304 -1.6331 0
M  V30 28 H 5.53063 0.932533 -1.13476 0
M  V30 29 H 6.6148 1.04436 1.32874 0
M  V30 30 H 4.66999 0.681022 3.04798 0
M  V30 END ATOM
M  V30 BEGIN BOND
M  V30 1 1 1 2
M  V30 2 2 2 3
M  V30 3 1 3 4
M  V30 4 1 3 5
M  V30 5 2 5 6
M  V30 6 1 6 7
M  V30 7 2 7 8
M  V30 8 1 6 9
M  V30 9 2 9 10
M  V30 10 1 9 11
M  V30 11 1 11 12
M  V30 12 1 12 13
M  V30 13 2 13 14
M  V30 14 1 14 15
M  V30 15 2 15 16
M  V30 16 1 16 17
M  V30 17 1 8 2
M  V30 18 1 17 13
M  V30 19 1 1 18
M  V30 20 1 1 19
M  V30 21 1 4 20
M  V30 22 1 4 21
M  V30 23 1 5 22
M  V30 24 1 7 23
M  V30 25 1 8 24
M  V30 26 1 11 25
M  V30 27 1 12 26
M  V30 28 1 12 27
M  V30 29 1 14 28
M  V30 30 1 15 29
M  V30 31 1 16 30
M  V30 END BOND
M  V30 END CTAB
M  END
