
     RDKit          3D

  0  0  0  0  0  0  0  0  0  0999 V3000
M  V30 BEGIN CTAB
M  V30 COUNTS 23 23 0 0 0
M  V30 BEGIN ATOM
M  V30 1 C 2.5983 1.60893 0.327321 0
M  V30 2 N 2.04274 0.286053 0.334701 0
M  V30 3 C 2.89751 -0.866929 0.498169 0
M  V30 4 C 0.645316 0.0687853 0.182748 0
M  V30 5 N -0.163933 1.11605 0.0304394 0
M  V30 6 C -1.50979 0.955684 -0.118566 0
M  V30 7 N -2.3009 2.10846 -0.274549 0
M  V30 8 C -2.03253 -0.30562 -0.110694 0
M  V30 9 N -3.41927 -0.494476 -0.262898 0
M  V30 10 O -4.23916 -0.301502 0.672321 0
M  V30 11 C -1.20852 -1.38525 0.0451229 0
M  V30 12 N -1.77524 -2.6805 0.049688 0
M  V30 13 N 0.109048 -1.17281 0.187954 0
M  V30 14 H 2.77121 1.97792 1.36815 0
M  V30 15 H 3.61952 1.56739 -0.14077 0
M  V30 16 H 2.00872 2.33956 -0.253958 0
M  V30 17 H 3.96647 -0.613326 0.4999 0
M  V30 18 H 2.61922 -1.59045 -0.302225 0
M  V30 19 H 2.5804 -1.3567 1.4578 0
M  V30 20 H -2.04406 2.88887 -0.910964 0
M  V30 21 H -3.18766 2.21032 0.258872 0
M  V30 22 H -1.71487 -3.27757 -0.803762 0
M  V30 23 H -2.26253 -3.08287 0.879107 0
M  V30 END ATOM
M  V30 BEGIN BOND
M  V30 1 1 1 2
M  V30 2 1 2 3
M  V30 3 1 2 4
M  V30 4 2 4 5
M  V30 5 1 5 6
M  V30 6 1 6 7
M  V30 7 2 6 8
M  V30 8 1 8 9
M  V30 9 2 9 10
M  V30 10 1 8 11
M  V30 11 1 11 12
M  V30 12 2 11 13
M  V30 13 1 13 4
M  V30 14 1 1 14
M  V30 15 1 1 15
M  V30 16 1 1 16
M  V30 17 1 3 17
M  V30 18 1 3 18
M  V30 19 1 3 19
M  V30 20 1 7 20
M  V30 21 1 7 21
M  V30 22 1 12 22
M  V30 23 1 12 23
M  V30 END BOND
M  V30 END CTAB
M  END
