
     RDKit          3D

  0  0  0  0  0  0  0  0  0  0999 V3000
M  V30 BEGIN CTAB
M  V30 COUNTS 37 38 0 0 0
M  V30 BEGIN ATOM
M  V30 1 O 1.54833 -0.246114 2.02449 0
M  V30 2 C 0.891442 0.232384 1.07023 0
M  V30 3 C -0.467948 -0.242097 0.824405 0
M  V30 4 S -1.58512 1.19235 0.967597 0
M  V30 5 C -3.24206 0.589027 0.676923 0
M  V30 6 N -3.69785 0.575465 -0.573669 0
M  V30 7 C -4.93289 0.138258 -0.881103 0
M  V30 8 N -5.36302 0.147467 -2.23631 0
M  V30 9 N -5.7217 -0.295882 0.113857 0
M  V30 10 C -5.29137 -0.29545 1.38955 0
M  V30 11 N -4.04478 0.151079 1.65999 0
M  V30 12 N -6.08903 -0.742799 2.46631 0
M  V30 13 C -0.685841 -0.809904 -0.56368 0
M  V30 14 N 1.51024 1.22488 0.265828 0
M  V30 15 C 2.84856 1.67907 0.525251 0
M  V30 16 C 3.86384 0.693885 0.0633531 0
M  V30 17 C 5.18652 0.805286 0.438668 0
M  V30 18 C 6.10457 -0.11845 -0.0082685 0
M  V30 19 C 5.68729 -1.14488 -0.827222 0
M  V30 20 C 4.36899 -1.26733 -1.20954 0
M  V30 21 C 3.44898 -0.338403 -0.759424 0
M  V30 22 H -0.757213 -0.995872 1.55839 0
M  V30 23 H -5.86857 -0.65886 -2.67126 0
M  V30 24 H -5.19409 0.965903 -2.86935 0
M  V30 25 H -6.1029 -1.74091 2.72347 0
M  V30 26 H -6.65879 -0.065566 2.99587 0
M  V30 27 H -0.936311 0.048649 -1.25299 0
M  V30 28 H 0.152265 -1.38393 -0.954192 0
M  V30 29 H -1.57481 -1.4863 -0.506672 0
M  V30 30 H 1.00464 1.66561 -0.555951 0
M  V30 31 H 3.02469 1.86142 1.62673 0
M  V30 32 H 3.06428 2.6334 -0.0124298 0
M  V30 33 H 5.49323 1.60743 1.07481 0
M  V30 34 H 7.1664 -0.0473771 0.279892 0
M  V30 35 H 6.43717 -1.8662 -1.1691 0
M  V30 36 H 4.01819 -2.0692 -1.85481 0
M  V30 37 H 2.39468 -0.396044 -1.03866 0
M  V30 END ATOM
M  V30 BEGIN BOND
M  V30 1 2 1 2
M  V30 2 1 2 3
M  V30 3 1 3 4
M  V30 4 1 4 5
M  V30 5 2 5 6
M  V30 6 1 6 7
M  V30 7 1 7 8
M  V30 8 2 7 9
M  V30 9 1 9 10
M  V30 10 2 10 11
M  V30 11 1 10 12
M  V30 12 1 3 13
M  V30 13 1 2 14
M  V30 14 1 14 15
M  V30 15 1 15 16
M  V30 16 2 16 17
M  V30 17 1 17 18
M  V30 18 2 18 19
M  V30 19 1 19 20
M  V30 20 2 20 21
M  V30 21 1 11 5
M  V30 22 1 21 16
M  V30 23 1 3 22
M  V30 24 1 8 23
M  V30 25 1 8 24
M  V30 26 1 12 25
M  V30 27 1 12 26
M  V30 28 1 13 27
M  V30 29 1 13 28
M  V30 30 1 13 29
M  V30 31 1 14 30
M  V30 32 1 15 31
M  V30 33 1 15 32
M  V30 34 1 17 33
M  V30 35 1 18 34
M  V30 36 1 19 35
M  V30 37 1 20 36
M  V30 38 1 21 37
M  V30 END BOND
M  V30 END CTAB
M  END
