
     RDKit          3D

  0  0  0  0  0  0  0  0  0  0999 V3000
M  V30 BEGIN CTAB
M  V30 COUNTS 57 60 0 0 0
M  V30 BEGIN ATOM
M  V30 1 O -5.56512 1.06588 -1.18961 0
M  V30 2 C -5.66308 -0.0094649 -0.5801 0
M  V30 3 C -6.79805 -0.879932 -0.952462 0
M  V30 4 C -7.38967 -0.700555 -2.20717 0
M  V30 5 C -8.456 -1.48471 -2.58981 0
M  V30 6 C -8.91599 -2.4418 -1.70512 0
M  V30 7 C -8.35237 -2.63426 -0.47299 0
M  V30 8 C -7.26855 -1.83258 -0.091609 0
M  V30 9 N -10.0274 -3.26265 -2.09722 0
M  V30 10 N -4.75793 -0.407609 0.416449 0
M  V30 11 C -3.62611 0.290742 0.896125 0
M  V30 12 C -3.11175 1.4373 0.357615 0
M  V30 13 C -1.98726 2.08204 0.902468 0
M  V30 14 C -1.3492 1.58277 2.0113 0
M  V30 15 C -1.8596 0.428941 2.55991 0
M  V30 16 C -2.95788 -0.20309 2.03013 0
M  V30 17 C -0.162183 2.26621 2.58537 0
M  V30 18 C 1.10945 1.7742 1.98403 0
M  V30 19 C 1.60384 2.38666 0.87617 0
M  V30 20 C 2.80045 1.93346 0.299676 0
M  V30 21 C 3.47279 0.867108 0.859529 0
M  V30 22 C 2.93224 0.265726 1.99605 0
M  V30 23 C 1.77967 0.714963 2.53696 0
M  V30 24 N 4.69263 0.399578 0.317995 0
M  V30 25 C 5.57787 1.04416 -0.553277 0
M  V30 26 O 5.36485 2.19747 -0.970474 0
M  V30 27 C 6.81704 0.407414 -1.03536 0
M  V30 28 C 7.68452 1.11247 -1.85711 0
M  V30 29 C 8.84632 0.54601 -2.32281 0
M  V30 30 C 9.21063 -0.728217 -2.00805 0
M  V30 31 C 8.36968 -1.44947 -1.1957 0
M  V30 32 C 7.19399 -0.872193 -0.726087 0
M  V30 33 N 10.4305 -1.25531 -2.52504 0
M  V30 34 H -7.01757 0.054168 -2.88987 0
M  V30 35 H -8.95559 -1.39723 -3.54072 0
M  V30 36 H -8.69288 -3.37257 0.232573 0
M  V30 37 H -6.81859 -1.97602 0.889515 0
M  V30 38 H -10.2823 -3.36501 -3.09948 0
M  V30 39 H -10.6008 -3.77114 -1.39637 0
M  V30 40 H -4.95242 -1.35348 0.84899 0
M  V30 41 H -3.5529 1.88579 -0.515498 0
M  V30 42 H -1.60571 2.9976 0.443231 0
M  V30 43 H -1.36452 0.029068 3.43141 0
M  V30 44 H -3.35607 -1.11991 2.47479 0
M  V30 45 H -0.137998 2.19389 3.69406 0
M  V30 46 H -0.26228 3.35722 2.36355 0
M  V30 47 H 1.09098 3.21306 0.435941 0
M  V30 48 H 3.14459 2.44548 -0.588111 0
M  V30 49 H 3.45986 -0.558445 2.4221 0
M  V30 50 H 1.35796 0.222856 3.44835 0
M  V30 51 H 4.94319 -0.601238 0.64053 0
M  V30 52 H 7.46694 2.12818 -2.15211 0
M  V30 53 H 9.4957 1.13715 -2.96454 0
M  V30 54 H 8.63239 -2.4714 -0.92553 0
M  V30 55 H 6.5645 -1.47064 -0.094124 0
M  V30 56 H 11.287 -0.628339 -2.56128 0
M  V30 57 H 10.5182 -2.22031 -2.86606 0
M  V30 END ATOM
M  V30 BEGIN BOND
M  V30 1 2 1 2
M  V30 2 1 2 3
M  V30 3 2 3 4
M  V30 4 1 4 5
M  V30 5 2 5 6
M  V30 6 1 6 7
M  V30 7 2 7 8
M  V30 8 1 6 9
M  V30 9 1 2 10
M  V30 10 1 10 11
M  V30 11 2 11 12
M  V30 12 1 12 13
M  V30 13 2 13 14
M  V30 14 1 14 15
M  V30 15 2 15 16
M  V30 16 1 14 17
M  V30 17 1 17 18
M  V30 18 2 18 19
M  V30 19 1 19 20
M  V30 20 2 20 21
M  V30 21 1 21 22
M  V30 22 2 22 23
M  V30 23 1 21 24
M  V30 24 1 24 25
M  V30 25 2 25 26
M  V30 26 1 25 27
M  V30 27 2 27 28
M  V30 28 1 28 29
M  V30 29 2 29 30
M  V30 30 1 30 31
M  V30 31 2 31 32
M  V30 32 1 30 33
M  V30 33 1 8 3
M  V30 34 1 16 11
M  V30 35 1 23 18
M  V30 36 1 32 27
M  V30 37 1 4 34
M  V30 38 1 5 35
M  V30 39 1 7 36
M  V30 40 1 8 37
M  V30 41 1 9 38
M  V30 42 1 9 39
M  V30 43 1 10 40
M  V30 44 1 12 41
M  V30 45 1 13 42
M  V30 46 1 15 43
M  V30 47 1 16 44
M  V30 48 1 17 45
M  V30 49 1 17 46
M  V30 50 1 19 47
M  V30 51 1 20 48
M  V30 52 1 22 49
M  V30 53 1 23 50
M  V30 54 1 24 51
M  V30 55 1 28 52
M  V30 56 1 29 53
M  V30 57 1 31 54
M  V30 58 1 32 55
M  V30 59 1 33 56
M  V30 60 1 33 57
M  V30 END BOND
M  V30 END CTAB
M  END
