
     RDKit          3D

  0  0  0  0  0  0  0  0  0  0999 V3000
M  V30 BEGIN CTAB
M  V30 COUNTS 95 96 0 0 0
M  V30 BEGIN ATOM
M  V30 1 C 7.86056 0.145132 0.921573 0 CFG=1
M  V30 2 N 7.10675 1.30299 0.508628 0
M  V30 3 C 7.9034 0.117578 2.42834 0
M  V30 4 S 6.22947 0.0225164 3.10399 0
M  V30 5 C 7.21989 -1.09777 0.428783 0
M  V30 6 O 7.72648 -2.22518 0.687371 0
M  V30 7 N 6.02622 -0.998862 -0.339441 0
M  V30 8 C 5.40244 -2.21718 -0.819614 0
M  V30 9 C 4.16568 -1.90639 -1.60324 0
M  V30 10 C 3.13579 -1.15651 -0.74923 0
M  V30 11 C 1.95551 -0.914705 -1.66115 0
M  V30 12 C 0.838646 -0.17296 -0.970616 0 CFG=2
M  V30 13 N 0.27466 -0.824549 0.170175 0
M  V30 14 C 0.0133117 -2.13434 0.508934 0
M  V30 15 O 0.570894 -2.54473 1.61514 0
M  V30 16 C -0.768854 -3.2139 -0.0957986 0 CFG=2
M  V30 17 C -1.26316 -3.04065 -1.47236 0
M  V30 18 C -2.01377 -4.25546 -1.88341 0
M  V30 19 C -1.35549 -5.36572 -2.40416 0
M  V30 20 C -2.02335 -6.49581 -2.81407 0
M  V30 21 C -3.38929 -6.57004 -2.7223 0
M  V30 22 C -4.0825 -5.49786 -2.21453 0
M  V30 23 C -3.3821 -4.37095 -1.8091 0
M  V30 24 N -1.85555 -3.67695 0.747077 0
M  V30 25 C -2.85071 -2.96711 1.39203 0
M  V30 26 O -3.91231 -3.63744 1.70349 0
M  V30 27 C -2.91723 -1.54835 1.7961 0 CFG=2
M  V30 28 C -3.96781 -1.3634 2.91109 0
M  V30 29 C -3.61717 -2.16608 4.09326 0
M  V30 30 O -4.43396 -2.15811 5.21392 0
M  V30 31 O -2.5877 -2.87873 4.14299 0
M  V30 32 N -3.37224 -0.684518 0.723352 0
M  V30 33 C -3.55116 0.715829 0.852648 0
M  V30 34 O -4.41511 1.2346 0.111342 0
M  V30 35 C -2.7847 1.50728 1.78641 0
M  V30 36 N -1.98874 2.60119 1.30147 0
M  V30 37 C -1.03016 2.72135 0.316446 0
M  V30 38 O 0.176369 2.99184 0.760331 0
M  V30 39 C -1.08753 2.60505 -1.14978 0 CFG=2
M  V30 40 C -2.09622 3.48658 -1.84847 0
M  V30 41 C -1.98164 4.94108 -1.74249 0
M  V30 42 C -2.08517 5.59966 -0.422736 0
M  V30 43 N -1.96825 7.0637 -0.606713 0
M  V30 44 C -2.03904 7.91615 0.527577 0
M  V30 45 N -1.87839 9.30562 0.342002 0
M  V30 46 N -2.24351 7.43377 1.68831 0
M  V30 47 N -1.15643 1.27281 -1.68167 0
M  V30 48 C -0.149726 0.33587 -1.9589 0
M  V30 49 O -0.0311326 -0.156144 -3.15902 0
M  V30 50 H 8.90376 0.199241 0.548884 0
M  V30 51 H 6.19886 1.34554 1.01819 0
M  V30 52 H 7.02139 1.39365 -0.514459 0
M  V30 53 H 8.36481 1.05539 2.79525 0
M  V30 54 H 8.44992 -0.785385 2.80484 0
M  V30 55 H 6.14085 -0.905244 4.16503 0
M  V30 56 H 5.60224 -0.0791669 -0.557449 0
M  V30 57 H 6.09917 -2.74987 -1.48558 0
M  V30 58 H 5.15116 -2.90661 0.0225384 0
M  V30 59 H 4.42177 -1.29759 -2.49257 0
M  V30 60 H 3.69389 -2.8372 -1.93999 0
M  V30 61 H 3.55962 -0.222711 -0.34655 0
M  V30 62 H 2.87784 -1.86666 0.0592198 0
M  V30 63 H 2.33389 -0.198707 -2.45088 0
M  V30 64 H 1.68961 -1.86925 -2.10065 0
M  V30 65 H 1.37079 0.796421 -0.6532 0
M  V30 66 H -0.00103156 -0.11245 0.943127 0
M  V30 67 H -0.00775044 -4.07593 -0.173776 0
M  V30 68 H -0.397802 -2.97594 -2.1751 0
M  V30 69 H -1.97041 -2.199 -1.61974 0
M  V30 70 H -0.274356 -5.31553 -2.48045 0
M  V30 71 H -1.49062 -7.36738 -3.22442 0
M  V30 72 H -3.92724 -7.45887 -3.04338 0
M  V30 73 H -5.15932 -5.50095 -2.11916 0
M  V30 74 H -3.95907 -3.54658 -1.42706 0
M  V30 75 H -1.87599 -4.74183 0.880449 0
M  V30 76 H -1.91928 -1.25599 2.18103 0
M  V30 77 H -4.89906 -1.83151 2.47527 0
M  V30 78 H -4.20719 -0.321648 3.09666 0
M  V30 79 H -5.28572 -1.62174 5.27818 0
M  V30 80 H -3.57564 -1.1693 -0.19742 0
M  V30 81 H -2.19509 0.846016 2.511 0
M  V30 82 H -3.56516 1.9142 2.51986 0
M  V30 83 H -2.18643 3.51448 1.85031 0
M  V30 84 H -0.101138 3.0349 -1.57547 0
M  V30 85 H -2.05334 3.23679 -2.96222 0
M  V30 86 H -3.14036 3.21023 -1.48884 0
M  V30 87 H -2.80376 5.39066 -2.38794 0
M  V30 88 H -1.04322 5.33244 -2.27178 0
M  V30 89 H -1.21741 5.34875 0.215248 0
M  V30 90 H -3.03704 5.41499 0.0940519 0
M  V30 91 H -1.83747 7.4276 -1.56096 0
M  V30 92 H -1.34831 9.88469 1.02849 0
M  V30 93 H -2.28427 9.79489 -0.486255 0
M  V30 94 H -2.29549 8.05195 2.5155 0
M  V30 95 H -2.14657 0.93999 -1.92183 0
M  V30 END ATOM
M  V30 BEGIN BOND
M  V30 1 1 1 2
M  V30 2 1 1 3
M  V30 3 1 3 4
M  V30 4 1 1 5
M  V30 5 2 5 6
M  V30 6 1 5 7
M  V30 7 1 7 8
M  V30 8 1 8 9
M  V30 9 1 9 10
M  V30 10 1 10 11
M  V30 11 1 11 12
M  V30 12 1 12 13
M  V30 13 1 13 14
M  V30 14 2 14 15
M  V30 15 1 14 16
M  V30 16 1 16 17
M  V30 17 1 17 18
M  V30 18 2 18 19
M  V30 19 1 19 20
M  V30 20 2 20 21
M  V30 21 1 21 22
M  V30 22 2 22 23
M  V30 23 1 16 24
M  V30 24 1 24 25
M  V30 25 2 25 26
M  V30 26 1 25 27
M  V30 27 1 27 28
M  V30 28 1 28 29
M  V30 29 1 29 30
M  V30 30 2 29 31
M  V30 31 1 27 32
M  V30 32 1 32 33
M  V30 33 2 33 34
M  V30 34 1 33 35
M  V30 35 1 35 36
M  V30 36 1 36 37
M  V30 37 2 37 38
M  V30 38 1 37 39
M  V30 39 1 39 40
M  V30 40 1 40 41
M  V30 41 1 41 42
M  V30 42 1 42 43
M  V30 43 1 43 44
M  V30 44 1 44 45
M  V30 45 2 44 46 CFG=2
M  V30 46 1 39 47
M  V30 47 1 47 48
M  V30 48 2 48 49
M  V30 49 1 48 12
M  V30 50 1 23 18
M  V30 51 1 1 50 CFG=3
M  V30 52 1 2 51
M  V30 53 1 2 52
M  V30 54 1 3 53
M  V30 55 1 3 54
M  V30 56 1 4 55
M  V30 57 1 7 56
M  V30 58 1 8 57
M  V30 59 1 8 58
M  V30 60 1 9 59
M  V30 61 1 9 60
M  V30 62 1 10 61
M  V30 63 1 10 62
M  V30 64 1 11 63
M  V30 65 1 11 64
M  V30 66 1 12 65 CFG=1
M  V30 67 1 13 66
M  V30 68 1 16 67 CFG=3
M  V30 69 1 17 68
M  V30 70 1 17 69
M  V30 71 1 19 70
M  V30 72 1 20 71
M  V30 73 1 21 72
M  V30 74 1 22 73
M  V30 75 1 23 74
M  V30 76 1 24 75
M  V30 77 1 27 76 CFG=1
M  V30 78 1 28 77
M  V30 79 1 28 78
M  V30 80 1 30 79
M  V30 81 1 32 80
M  V30 82 1 35 81
M  V30 83 1 35 82
M  V30 84 1 36 83
M  V30 85 1 39 84 CFG=3
M  V30 86 1 40 85
M  V30 87 1 40 86
M  V30 88 1 41 87
M  V30 89 1 41 88
M  V30 90 1 42 89
M  V30 91 1 42 90
M  V30 92 1 43 91
M  V30 93 1 45 92
M  V30 94 1 45 93
M  V30 95 1 46 94
M  V30 96 1 47 95
M  V30 END BOND
M  V30 END CTAB
M  END
