
     RDKit          3D

  0  0  0  0  0  0  0  0  0  0999 V3000
M  V30 BEGIN CTAB
M  V30 COUNTS 42 44 0 0 0
M  V30 BEGIN ATOM
M  V30 1 C -2.49895 -1.51365 3.28105 0
M  V30 2 O -3.22356 -1.33755 2.09086 0
M  V30 3 C -2.64987 -0.884171 0.919673 0
M  V30 4 C -1.27744 -0.588417 0.930527 0
M  V30 5 C -0.651364 -0.13972 -0.175754 0
M  V30 6 C -1.41012 0.0236807 -1.3523 0
M  V30 7 C -2.74892 -0.272133 -1.34031 0
M  V30 8 O -3.54363 -0.122882 -2.49415 0
M  V30 9 C -2.92684 0.348744 -3.6987 0
M  V30 10 C -3.40064 -0.729046 -0.216209 0
M  V30 11 O -4.75842 -1.00897 -0.270734 0
M  V30 12 C -5.11733 -2.33734 -0.632013 0
M  V30 13 C 0.76012 0.282191 -0.297348 0
M  V30 14 C 1.69716 0.69176 0.601492 0
M  V30 15 C 1.3005 0.862083 2.06135 0
M  V30 16 C 2.92345 1.02641 0.134593 0
M  V30 17 C 3.12144 0.932168 -1.21944 0
M  V30 18 S 1.61999 0.384415 -1.80511 0
M  V30 19 N 4.31201 1.22467 -1.84098 0
M  V30 20 C 5.38027 1.62837 -1.14009 0
M  V30 21 N 6.60751 1.93101 -1.77926 0
M  V30 22 N 5.19742 1.71964 0.176927 0
M  V30 23 C 4.0671 1.45102 0.845071 0
M  V30 24 N 4.07521 1.56939 2.26183 0
M  V30 25 H -3.25983 -1.57377 4.10604 0
M  V30 26 H -1.88533 -2.44113 3.27372 0
M  V30 27 H -1.84257 -0.677001 3.53408 0
M  V30 28 H -0.716591 -0.766442 1.83578 0
M  V30 29 H -0.955229 0.376324 -2.2553 0
M  V30 30 H -2.74341 1.42714 -3.57813 0
M  V30 31 H -1.98855 -0.232721 -3.90463 0
M  V30 32 H -3.63051 0.214688 -4.54044 0
M  V30 33 H -5.0926 -2.3916 -1.7305 0
M  V30 34 H -4.31796 -3.03809 -0.273844 0
M  V30 35 H -6.09303 -2.6414 -0.21014 0
M  V30 36 H 1.8131 1.77854 2.4808 0
M  V30 37 H 0.213604 1.20414 2.0813 0
M  V30 38 H 1.36856 -0.0275113 2.64611 0
M  V30 39 H 6.63183 2.64248 -2.53439 0
M  V30 40 H 7.48538 1.45714 -1.50989 0
M  V30 41 H 3.98136 0.712976 2.88309 0
M  V30 42 H 4.17669 2.5276 2.65535 0
M  V30 END ATOM
M  V30 BEGIN BOND
M  V30 1 1 1 2
M  V30 2 1 2 3
M  V30 3 2 3 4
M  V30 4 1 4 5
M  V30 5 2 5 6
M  V30 6 1 6 7
M  V30 7 1 7 8
M  V30 8 1 8 9
M  V30 9 2 7 10
M  V30 10 1 10 11
M  V30 11 1 11 12
M  V30 12 1 5 13
M  V30 13 2 13 14
M  V30 14 1 14 15
M  V30 15 1 14 16
M  V30 16 2 16 17
M  V30 17 1 17 18
M  V30 18 1 17 19
M  V30 19 2 19 20
M  V30 20 1 20 21
M  V30 21 1 20 22
M  V30 22 2 22 23
M  V30 23 1 23 24
M  V30 24 1 10 3
M  V30 25 1 18 13
M  V30 26 1 23 16
M  V30 27 1 1 25
M  V30 28 1 1 26
M  V30 29 1 1 27
M  V30 30 1 4 28
M  V30 31 1 6 29
M  V30 32 1 9 30
M  V30 33 1 9 31
M  V30 34 1 9 32
M  V30 35 1 12 33
M  V30 36 1 12 34
M  V30 37 1 12 35
M  V30 38 1 15 36
M  V30 39 1 15 37
M  V30 40 1 15 38
M  V30 41 1 21 39
M  V30 42 1 21 40
M  V30 43 1 24 41
M  V30 44 1 24 42
M  V30 END BOND
M  V30 END CTAB
M  END
