
     RDKit          3D

  0  0  0  0  0  0  0  0  0  0999 V3000
M  V30 BEGIN CTAB
M  V30 COUNTS 41 42 0 0 0
M  V30 BEGIN ATOM
M  V30 1 N 0.110712 -1.86907 -2.39205 0
M  V30 2 C -0.182291 -0.44644 -2.53106 0
M  V30 3 C -0.201107 0.235518 -1.17104 0
M  V30 4 C 1.11006 0.102452 -0.487702 0
M  V30 5 C 1.47071 -1.02323 0.228717 0
M  V30 6 C 2.6886 -1.14699 0.862663 0
M  V30 7 C 3.60104 -0.125162 0.796541 0
M  V30 8 C 3.27151 1.01114 0.0896333 0
M  V30 9 C 2.03787 1.12074 -0.544865 0
M  V30 10 C 4.21467 2.01511 0.0466311 0
M  V30 11 C 5.44625 1.91036 0.677788 0
M  V30 12 C 5.73957 0.753785 1.37748 0
M  V30 13 C 4.81292 -0.286626 1.44595 0
M  V30 14 N -1.29858 -0.193513 -0.358862 0
M  V30 15 C -2.35068 0.6615 0.0699637 0
M  V30 16 O -2.40178 1.88051 -0.234447 0
M  V30 17 C -3.45561 0.140202 0.912344 0
M  V30 18 C -4.21841 -0.97885 0.216356 0
M  V30 19 N -5.25629 -1.40535 1.11392 0
M  V30 20 C -4.45778 1.20539 1.26177 0
M  V30 21 H 1.11425 -2.07406 -2.34205 0
M  V30 22 H -0.303764 -2.43486 -3.14648 0
M  V30 23 H 0.60607 -0.0224968 -3.18535 0
M  V30 24 H -1.12839 -0.354774 -3.0596 0
M  V30 25 H -0.345195 1.31714 -1.37858 0
M  V30 26 H 0.786636 -1.83329 0.299635 0
M  V30 27 H 2.94052 -2.04983 1.41966 0
M  V30 28 H 1.81295 2.03659 -1.09545 0
M  V30 29 H 3.9873 2.90898 -0.494451 0
M  V30 30 H 6.18098 2.70524 0.638084 0
M  V30 31 H 6.68601 0.603332 1.89646 0
M  V30 32 H 5.04738 -1.2045 2.00202 0
M  V30 33 H -1.31825 -1.19672 -0.0693247 0
M  V30 34 H -3.03606 -0.235795 1.88816 0
M  V30 35 H -3.48958 -1.79222 0.051731 0
M  V30 36 H -4.60721 -0.542173 -0.725775 0
M  V30 37 H -5.21863 -2.44633 1.1895 0
M  V30 38 H -6.17858 -1.2103 0.618882 0
M  V30 39 H -4.008 2.15585 1.57058 0
M  V30 40 H -5.05183 0.815071 2.13528 0
M  V30 41 H -5.15799 1.29367 0.407334 0
M  V30 END ATOM
M  V30 BEGIN BOND
M  V30 1 1 1 2
M  V30 2 1 2 3
M  V30 3 1 3 4
M  V30 4 2 4 5
M  V30 5 1 5 6
M  V30 6 2 6 7
M  V30 7 1 7 8
M  V30 8 2 8 9
M  V30 9 1 8 10
M  V30 10 2 10 11
M  V30 11 1 11 12
M  V30 12 2 12 13
M  V30 13 1 3 14
M  V30 14 1 14 15
M  V30 15 2 15 16
M  V30 16 1 15 17
M  V30 17 1 17 18
M  V30 18 1 18 19
M  V30 19 1 17 20
M  V30 20 1 9 4
M  V30 21 1 13 7
M  V30 22 1 1 21
M  V30 23 1 1 22
M  V30 24 1 2 23
M  V30 25 1 2 24
M  V30 26 1 3 25
M  V30 27 1 5 26
M  V30 28 1 6 27
M  V30 29 1 9 28
M  V30 30 1 10 29
M  V30 31 1 11 30
M  V30 32 1 12 31
M  V30 33 1 13 32
M  V30 34 1 14 33
M  V30 35 1 17 34
M  V30 36 1 18 35
M  V30 37 1 18 36
M  V30 38 1 19 37
M  V30 39 1 19 38
M  V30 40 1 20 39
M  V30 41 1 20 40
M  V30 42 1 20 41
M  V30 END BOND
M  V30 END CTAB
M  END
