
     RDKit          3D

  0  0  0  0  0  0  0  0  0  0999 V3000
M  V30 BEGIN CTAB
M  V30 COUNTS 18 18 0 0 0
M  V30 BEGIN ATOM
M  V30 1 N -3.57089 0.454749 -0.69932 0
M  V30 2 N -2.20299 0.358849 -0.450497 0
M  V30 3 C -1.79641 -0.485503 0.429259 0
M  V30 4 S -0.0494634 -0.669884 0.808167 0
M  V30 5 C 0.8584 0.495908 -0.240909 0
M  V30 6 C 2.32135 0.419018 -4.8746e-05 0
M  V30 7 N 2.99792 1.15569 0.91279 0
M  V30 8 O 4.25874 0.840627 0.862149 0
M  V30 9 C 4.46001 -0.0800928 -0.049299 0
M  V30 10 N 3.25694 -0.343472 -0.586328 0
M  V30 11 N -2.73445 -1.29817 1.12623 0
M  V30 12 H -4.1295 -0.356595 -1.07302 0
M  V30 13 H -4.05973 1.35397 -0.511547 0
M  V30 14 H 0.585851 0.27922 -1.29431 0
M  V30 15 H 0.478026 1.52752 -0.0123593 0
M  V30 16 H 5.43564 -0.492471 -0.263452 0
M  V30 17 H -3.51541 -0.834859 1.64653 0
M  V30 18 H -2.59403 -2.3245 1.08231 0
M  V30 END ATOM
M  V30 BEGIN BOND
M  V30 1 1 1 2
M  V30 2 2 2 3 CFG=2
M  V30 3 1 3 4
M  V30 4 1 4 5
M  V30 5 1 5 6
M  V30 6 2 6 7
M  V30 7 1 7 8
M  V30 8 1 8 9
M  V30 9 2 9 10
M  V30 10 1 3 11
M  V30 11 1 10 6
M  V30 12 1 1 12
M  V30 13 1 1 13
M  V30 14 1 5 14
M  V30 15 1 5 15
M  V30 16 1 9 16
M  V30 17 1 11 17
M  V30 18 1 11 18
M  V30 END BOND
M  V30 END CTAB
M  END
