
     RDKit          3D

  0  0  0  0  0  0  0  0  0  0999 V3000
M  V30 BEGIN CTAB
M  V30 COUNTS 25 25 0 0 0
M  V30 BEGIN ATOM
M  V30 1 C 3.54684 -0.360521 0.864793 0
M  V30 2 C 2.88495 -0.0835137 -0.44484 0
M  V30 3 C 1.41041 0.152205 -0.306406 0
M  V30 4 N 0.53406 -0.860652 -0.382351 0
M  V30 5 C -0.814337 -0.69222 -0.262229 0
M  V30 6 N -1.70793 -1.77691 -0.34653 0
M  V30 7 N -1.30225 -3.0967 -0.557143 0
M  V30 8 C -1.31109 0.571651 -0.0530644 0
M  V30 9 C -0.423776 1.62167 0.0271969 0
M  V30 10 N 0.915143 1.38468 -0.101646 0
M  V30 11 N -0.911663 2.92929 0.241735 0
M  V30 12 C -2.7601 0.858678 0.0900677 0
M  V30 13 H 4.56643 0.0943302 0.841629 0
M  V30 14 H 3.00452 0.0421478 1.73736 0
M  V30 15 H 3.72111 -1.46721 0.975029 0
M  V30 16 H 3.0813 -0.95915 -1.13101 0
M  V30 17 H 3.3452 0.786737 -0.933754 0
M  V30 18 H -2.72459 -1.60508 -0.24924 0
M  V30 19 H -1.39691 -3.60053 0.35274 0
M  V30 20 H -1.99307 -3.52813 -1.2112 0
M  V30 21 H -0.527884 3.70371 -0.329111 0
M  V30 22 H -1.6368 3.15361 0.94404 0
M  V30 23 H -3.0043 1.91213 -0.0795958 0
M  V30 24 H -3.18996 0.528749 1.03436 0
M  V30 25 H -3.3053 0.29102 -0.720831 0
M  V30 END ATOM
M  V30 BEGIN BOND
M  V30 1 1 1 2
M  V30 2 1 2 3
M  V30 3 2 3 4
M  V30 4 1 4 5
M  V30 5 1 5 6
M  V30 6 1 6 7
M  V30 7 2 5 8
M  V30 8 1 8 9
M  V30 9 2 9 10
M  V30 10 1 9 11
M  V30 11 1 8 12
M  V30 12 1 10 3
M  V30 13 1 1 13
M  V30 14 1 1 14
M  V30 15 1 1 15
M  V30 16 1 2 16
M  V30 17 1 2 17
M  V30 18 1 6 18
M  V30 19 1 7 19
M  V30 20 1 7 20
M  V30 21 1 11 21
M  V30 22 1 11 22
M  V30 23 1 12 23
M  V30 24 1 12 24
M  V30 25 1 12 25
M  V30 END BOND
M  V30 END CTAB
M  END
