
     RDKit          3D

  0  0  0  0  0  0  0  0  0  0999 V3000
M  V30 BEGIN CTAB
M  V30 COUNTS 30 30 0 0 0
M  V30 BEGIN ATOM
M  V30 1 C -2.27281 -1.20818 0.102577 0
M  V30 2 C -2.58261 0.235636 0.153321 0
M  V30 3 C -2.89406 0.724265 1.55705 0
M  V30 4 O -3.99622 0.0485106 2.07387 0
M  V30 5 C -1.5952 1.08077 -0.552511 0
M  V30 6 N -0.241785 1.05093 -0.111816 0
M  V30 7 C 0.782757 0.152935 -0.488706 0
M  V30 8 N 0.628706 -0.79848 -1.41211 0
M  V30 9 C 1.64208 -1.62706 -1.78173 0
M  V30 10 C 2.87677 -1.51345 -1.21087 0
M  V30 11 C 3.08772 -0.546437 -0.251741 0
M  V30 12 C 2.03397 0.265185 0.0871807 0
M  V30 13 N 2.24702 1.25962 1.0724 0
M  V30 14 N 4.36987 -0.413998 0.354207 0
M  V30 15 H -3.17768 -1.74755 0.51257 0
M  V30 16 H -2.20223 -1.54958 -0.944996 0
M  V30 17 H -1.36734 -1.50522 0.659269 0
M  V30 18 H -3.56521 0.376687 -0.404034 0
M  V30 19 H -3.0603 1.79878 1.60323 0
M  V30 20 H -2.01252 0.482547 2.18644 0
M  V30 21 H -4.6683 0.650313 2.46912 0
M  V30 22 H -1.65267 0.745043 -1.64706 0
M  V30 23 H -1.94264 2.1567 -0.522996 0
M  V30 24 H 0.00591768 1.82259 0.604127 0
M  V30 25 H 1.48534 -2.39204 -2.53661 0
M  V30 26 H 3.72573 -2.14203 -1.46088 0
M  V30 27 H 2.12308 2.26447 0.760308 0
M  V30 28 H 2.51138 1.01962 2.05191 0
M  V30 29 H 4.60585 -0.761078 1.29264 0
M  V30 30 H 5.10537 0.0705204 -0.20764 0
M  V30 END ATOM
M  V30 BEGIN BOND
M  V30 1 1 1 2
M  V30 2 1 2 3
M  V30 3 1 3 4
M  V30 4 1 2 5
M  V30 5 1 5 6
M  V30 6 1 6 7
M  V30 7 2 7 8
M  V30 8 1 8 9
M  V30 9 2 9 10
M  V30 10 1 10 11
M  V30 11 2 11 12
M  V30 12 1 12 13
M  V30 13 1 11 14
M  V30 14 1 12 7
M  V30 15 1 1 15
M  V30 16 1 1 16
M  V30 17 1 1 17
M  V30 18 1 2 18
M  V30 19 1 3 19
M  V30 20 1 3 20
M  V30 21 1 4 21
M  V30 22 1 5 22
M  V30 23 1 5 23
M  V30 24 1 6 24
M  V30 25 1 9 25
M  V30 26 1 10 26
M  V30 27 1 13 27
M  V30 28 1 13 28
M  V30 29 1 14 29
M  V30 30 1 14 30
M  V30 END BOND
M  V30 END CTAB
M  END
