
     RDKit          3D

  0  0  0  0  0  0  0  0  0  0999 V3000
M  V30 BEGIN CTAB
M  V30 COUNTS 35 36 0 0 0
M  V30 BEGIN ATOM
M  V30 1 C -5.80602 0.032962 0.7288 0
M  V30 2 C -4.35501 -0.303808 0.521983 0
M  V30 3 C -3.88032 -1.55809 0.847146 0
M  V30 4 C -2.56679 -1.86876 0.662174 0
M  V30 5 C -1.71263 -0.935046 0.152084 0
M  V30 6 C -2.11916 0.33811 -0.195426 0
M  V30 7 C -3.49272 0.625271 0.0112465 0
M  V30 8 O -1.38041 1.28819 -0.688174 0
M  V30 9 C -0.341277 1.93195 -1.14986 0
M  V30 10 C 0.36025 1.4566 -2.41249 0
M  V30 11 S 1.05138 -0.179013 -2.33043 0
M  V30 12 C 2.39784 -0.274209 -1.16342 0
M  V30 13 N 3.04415 -1.43934 -0.966879 0
M  V30 14 C 4.06425 -1.56167 -0.0991686 0
M  V30 15 N 4.76239 -2.7764 0.127682 0
M  V30 16 C 4.45899 -0.449268 0.613074 0
M  V30 17 C 3.78924 0.745602 0.405202 0
M  V30 18 N 2.77311 0.801306 -0.480454 0
M  V30 19 N 4.16686 1.91308 1.12055 0
M  V30 20 H -6.26955 0.224704 -0.249912 0
M  V30 21 H -5.91418 0.952914 1.35993 0
M  V30 22 H -6.309 -0.847179 1.16695 0
M  V30 23 H -4.60781 -2.24907 1.24597 0
M  V30 24 H -2.22944 -2.87453 0.932706 0
M  V30 25 H -0.671261 -1.18041 0.0186736 0
M  V30 26 H -3.88455 1.61626 -0.242412 0
M  V30 27 H -0.590668 3.03462 -1.40614 0
M  V30 28 H 0.526409 2.08385 -0.424102 0
M  V30 29 H 1.18644 2.20145 -2.61129 0
M  V30 30 H -0.397401 1.4931 -3.22724 0
M  V30 31 H 4.94368 -3.06593 1.1225 0
M  V30 32 H 5.10922 -3.40412 -0.634283 0
M  V30 33 H 5.27249 -0.474306 1.32854 0
M  V30 34 H 4.01391 1.99911 2.15121 0
M  V30 35 H 4.6076 2.70207 0.600712 0
M  V30 END ATOM
M  V30 BEGIN BOND
M  V30 1 1 1 2
M  V30 2 2 2 3
M  V30 3 1 3 4
M  V30 4 2 4 5
M  V30 5 1 5 6
M  V30 6 2 6 7
M  V30 7 1 6 8
M  V30 8 1 8 9
M  V30 9 1 9 10
M  V30 10 1 10 11
M  V30 11 1 11 12
M  V30 12 2 12 13
M  V30 13 1 13 14
M  V30 14 1 14 15
M  V30 15 2 14 16
M  V30 16 1 16 17
M  V30 17 2 17 18
M  V30 18 1 17 19
M  V30 19 1 7 2
M  V30 20 1 18 12
M  V30 21 1 1 20
M  V30 22 1 1 21
M  V30 23 1 1 22
M  V30 24 1 3 23
M  V30 25 1 4 24
M  V30 26 1 5 25
M  V30 27 1 7 26
M  V30 28 1 9 27
M  V30 29 1 9 28
M  V30 30 1 10 29
M  V30 31 1 10 30
M  V30 32 1 15 31
M  V30 33 1 15 32
M  V30 34 1 16 33
M  V30 35 1 19 34
M  V30 36 1 19 35
M  V30 END BOND
M  V30 END CTAB
M  END
