
     RDKit          3D

  0  0  0  0  0  0  0  0  0  0999 V3000
M  V30 BEGIN CTAB
M  V30 COUNTS 52 53 0 0 0
M  V30 BEGIN ATOM
M  V30 1 C 9.46016 -0.0986668 1.28703 0
M  V30 2 C 8.02636 0.110408 0.926296 0
M  V30 3 C 7.64488 0.792228 -0.207259 0
M  V30 4 C 6.31761 0.980147 -0.531862 0
M  V30 5 C 5.30785 0.475676 0.293971 0
M  V30 6 C 3.87387 0.665953 -0.0351747 0
M  V30 7 C 3.38142 -0.48559 -0.885302 0
M  V30 8 C 1.93148 -0.343192 -1.24802 0
M  V30 9 N 1.05865 -0.293461 -0.122659 0
M  V30 10 C -0.335396 -0.160721 -0.314375 0
M  V30 11 O -0.854454 -0.0822871 -1.46673 0
M  V30 12 C -1.22088 -0.111332 0.864652 0
M  V30 13 C -2.63022 0.028911 0.451312 0
M  V30 14 C -3.45171 -1.02854 0.208699 0
M  V30 15 C -4.77866 -0.844234 -0.180307 0
M  V30 16 C -5.27254 0.42155 -0.322206 0
M  V30 17 O -6.53715 0.680904 -0.695795 0
M  V30 18 C -7.5696 -0.187853 -0.972523 0
M  V30 19 C -8.04581 -1.00409 0.186503 0
M  V30 20 N -9.135 -1.89646 -0.196867 0
M  V30 21 C -4.45227 1.54079 -0.0804286 0
M  V30 22 N -4.97218 2.84616 -0.230967 0
M  V30 23 C -3.15426 1.28993 0.299489 0
M  V30 24 C 5.73561 -0.199615 1.41717 0
M  V30 25 C 7.04246 -0.389671 1.74511 0
M  V30 26 H 9.52307 -0.111329 2.37477 0
M  V30 27 H 10.0278 0.708266 0.794054 0
M  V30 28 H 9.72982 -1.10992 0.88368 0
M  V30 29 H 8.44786 1.17814 -0.83873 0
M  V30 30 H 6.02478 1.50928 -1.41156 0
M  V30 31 H 3.8176 1.58418 -0.685527 0
M  V30 32 H 3.23783 0.862461 0.826692 0
M  V30 33 H 3.54447 -1.41964 -0.309766 0
M  V30 34 H 3.97894 -0.573844 -1.81494 0
M  V30 35 H 1.64244 -1.20253 -1.88672 0
M  V30 36 H 1.80597 0.561407 -1.90155 0
M  V30 37 H 1.43429 -0.353515 0.836574 0
M  V30 38 H -0.918268 0.669302 1.59427 0
M  V30 39 H -1.12639 -1.08076 1.40208 0
M  V30 40 H -3.05872 -2.02449 0.322518 0
M  V30 41 H -5.32694 -1.75555 -0.366893 0
M  V30 42 H -8.46236 0.339023 -1.4114 0
M  V30 43 H -7.30454 -0.928273 -1.79165 0
M  V30 44 H -8.41212 -0.285255 0.976674 0
M  V30 45 H -7.29384 -1.60942 0.677688 0
M  V30 46 H -9.0724 -2.07923 -1.24321 0
M  V30 47 H -9.05968 -2.82868 0.298702 0
M  V30 48 H -5.2189 3.39925 0.599435 0
M  V30 49 H -5.10175 3.23813 -1.17405 0
M  V30 50 H -2.50808 2.14918 0.489944 0
M  V30 51 H 4.9637 -0.607758 2.08574 0
M  V30 52 H 7.31516 -0.935379 2.65218 0
M  V30 END ATOM
M  V30 BEGIN BOND
M  V30 1 1 1 2
M  V30 2 2 2 3
M  V30 3 1 3 4
M  V30 4 2 4 5
M  V30 5 1 5 6
M  V30 6 1 6 7
M  V30 7 1 7 8
M  V30 8 1 8 9
M  V30 9 1 9 10
M  V30 10 2 10 11
M  V30 11 1 10 12
M  V30 12 1 12 13
M  V30 13 2 13 14
M  V30 14 1 14 15
M  V30 15 2 15 16
M  V30 16 1 16 17
M  V30 17 1 17 18
M  V30 18 1 18 19
M  V30 19 1 19 20
M  V30 20 1 16 21
M  V30 21 1 21 22
M  V30 22 2 21 23
M  V30 23 1 5 24
M  V30 24 2 24 25
M  V30 25 1 25 2
M  V30 26 1 23 13
M  V30 27 1 1 26
M  V30 28 1 1 27
M  V30 29 1 1 28
M  V30 30 1 3 29
M  V30 31 1 4 30
M  V30 32 1 6 31
M  V30 33 1 6 32
M  V30 34 1 7 33
M  V30 35 1 7 34
M  V30 36 1 8 35
M  V30 37 1 8 36
M  V30 38 1 9 37
M  V30 39 1 12 38
M  V30 40 1 12 39
M  V30 41 1 14 40
M  V30 42 1 15 41
M  V30 43 1 18 42
M  V30 44 1 18 43
M  V30 45 1 19 44
M  V30 46 1 19 45
M  V30 47 1 20 46
M  V30 48 1 20 47
M  V30 49 1 22 48
M  V30 50 1 22 49
M  V30 51 1 23 50
M  V30 52 1 24 51
M  V30 53 1 25 52
M  V30 END BOND
M  V30 END CTAB
M  END
