
     RDKit          3D

  0  0  0  0  0  0  0  0  0  0999 V3000
M  V30 BEGIN CTAB
M  V30 COUNTS 26 27 0 0 0
M  V30 BEGIN ATOM
M  V30 1 N -3.5617 2.1296 0.0697073 0
M  V30 2 C -2.88573 1.17709 0.865967 0
M  V30 3 S -3.49821 0.805001 2.32778 0
M  V30 4 C -1.66533 0.512548 0.438446 0
M  V30 5 N -0.403877 1.0248 0.478115 0
M  V30 6 C 0.427457 0.106345 -0.000143716 0
M  V30 7 N -0.298229 -0.9743 -0.338589 0
M  V30 8 C -1.60817 -0.752125 -0.0769448 0
M  V30 9 C -2.7338 -1.64233 -0.28627 0
M  V30 10 S -4.05649 -1.23374 -1.14853 0
M  V30 11 N -2.68318 -2.93583 0.288117 0
M  V30 12 C 1.87982 0.221583 -0.145009 0
M  V30 13 C 2.61554 -0.803815 -0.653557 0
M  V30 14 C 3.97413 -0.729363 -0.802389 0
M  V30 15 C 4.59796 0.434529 -0.41709 0
M  V30 16 C 3.86118 1.48272 0.100746 0
M  V30 17 N 2.5312 1.34577 0.220724 0
M  V30 18 H -3.76615 1.94613 -0.932027 0
M  V30 19 H -3.87173 3.03836 0.465938 0
M  V30 20 H -0.176188 1.98348 0.833127 0
M  V30 21 H -2.29387 -3.7215 -0.256299 0
M  V30 22 H -3.03831 -3.06872 1.24487 0
M  V30 23 H 2.08902 -1.70488 -0.946123 0
M  V30 24 H 4.50828 -1.56085 -1.20655 0
M  V30 25 H 5.68051 0.523546 -0.523759 0
M  V30 26 H 4.37585 2.39594 0.399744 0
M  V30 END ATOM
M  V30 BEGIN BOND
M  V30 1 1 1 2
M  V30 2 2 2 3
M  V30 3 1 2 4
M  V30 4 1 4 5
M  V30 5 1 5 6
M  V30 6 2 6 7
M  V30 7 1 7 8
M  V30 8 1 8 9
M  V30 9 2 9 10
M  V30 10 1 9 11
M  V30 11 1 6 12
M  V30 12 2 12 13
M  V30 13 1 13 14
M  V30 14 2 14 15
M  V30 15 1 15 16
M  V30 16 2 16 17
M  V30 17 2 8 4
M  V30 18 1 17 12
M  V30 19 1 1 18
M  V30 20 1 1 19
M  V30 21 1 5 20
M  V30 22 1 11 21
M  V30 23 1 11 22
M  V30 24 1 13 23
M  V30 25 1 14 24
M  V30 26 1 15 25
M  V30 27 1 16 26
M  V30 END BOND
M  V30 END CTAB
M  END
