
     RDKit          3D

  0  0  0  0  0  0  0  0  0  0999 V3000
M  V30 BEGIN CTAB
M  V30 COUNTS 29 30 0 0 0
M  V30 BEGIN ATOM
M  V30 1 N 4.90216 0.451069 0.909303 0
M  V30 2 C 3.55113 0.0973417 0.543159 0
M  V30 3 N 3.07532 -1.14342 0.408079 0
M  V30 4 N 1.80582 -1.04503 0.0663779 0
M  V30 5 C 1.43464 0.241396 -0.0266342 0
M  V30 6 N 2.54126 0.942502 0.275541 0
M  V30 7 C 0.10909 0.810746 -0.380917 0
M  V30 8 C -0.917155 -0.22253 -0.663366 0
M  V30 9 N -0.571909 -1.09503 -1.76439 0
M  V30 10 C -2.18157 0.519823 -1.11699 0
M  V30 11 C -2.67805 1.44612 -0.0343821 0
M  V30 12 O -2.52588 0.937646 1.23073 0
M  V30 13 C -2.51129 -0.442003 1.26634 0
M  V30 14 C -1.3104 -1.0317 0.541757 0
M  V30 15 H 5.41691 -0.124616 1.60451 0
M  V30 16 H 5.39339 1.27323 0.499974 0
M  V30 17 H 3.61759 -2.03119 0.549382 0
M  V30 18 H 0.180987 1.47411 -1.28333 0
M  V30 19 H -0.248626 1.45506 0.435141 0
M  V30 20 H -0.220229 -0.572703 -2.57074 0
M  V30 21 H -0.0597381 -1.93891 -1.49609 0
M  V30 22 H -1.92889 1.04261 -2.04367 0
M  V30 23 H -2.94892 -0.267532 -1.25312 0
M  V30 24 H -3.75681 1.66038 -0.21235 0
M  V30 25 H -2.11743 2.39936 -0.138704 0
M  V30 26 H -3.4655 -0.84936 0.901091 0
M  V30 27 H -2.44005 -0.738041 2.34653 0
M  V30 28 H -0.497631 -1.22202 1.24408 0
M  V30 29 H -1.64819 -2.0273 0.162692 0
M  V30 END ATOM
M  V30 BEGIN BOND
M  V30 1 1 1 2
M  V30 2 1 2 3
M  V30 3 1 3 4
M  V30 4 2 4 5
M  V30 5 1 5 6
M  V30 6 1 5 7
M  V30 7 1 7 8
M  V30 8 1 8 9
M  V30 9 1 8 10
M  V30 10 1 10 11
M  V30 11 1 11 12
M  V30 12 1 12 13
M  V30 13 1 13 14
M  V30 14 2 6 2
M  V30 15 1 14 8
M  V30 16 1 1 15
M  V30 17 1 1 16
M  V30 18 1 3 17
M  V30 19 1 7 18
M  V30 20 1 7 19
M  V30 21 1 9 20
M  V30 22 1 9 21
M  V30 23 1 10 22
M  V30 24 1 10 23
M  V30 25 1 11 24
M  V30 26 1 11 25
M  V30 27 1 13 26
M  V30 28 1 13 27
M  V30 29 1 14 28
M  V30 30 1 14 29
M  V30 END BOND
M  V30 END CTAB
M  END
