
     RDKit          3D

  0  0  0  0  0  0  0  0  0  0999 V3000
M  V30 BEGIN CTAB
M  V30 COUNTS 49 51 0 0 0
M  V30 BEGIN ATOM
M  V30 1 O -0.531701 -1.27079 -0.311785 0
M  V30 2 C 0.143991 -0.24005 -0.109813 0
M  V30 3 C -0.23006 1.04103 -0.740509 0
M  V30 4 S -1.32164 1.90094 0.451117 0
M  V30 5 C -2.80662 0.948498 0.594302 0
M  V30 6 N -3.10627 -0.0507917 1.42399 0
M  V30 7 N -4.33223 -0.466705 1.17771 0
M  V30 8 C -4.87263 0.276005 0.150985 0
M  V30 9 N -3.91752 1.13131 -0.183897 0
M  V30 10 N -3.99795 2.10761 -1.19478 0
M  V30 11 C -6.20236 0.0654066 -0.354001 0
M  V30 12 C -6.99859 -0.944839 0.218694 0
M  V30 13 C -8.27134 -1.19813 -0.212508 0
M  V30 14 C -8.82031 -0.452754 -1.24385 0
M  V30 15 C -8.08099 0.529492 -1.81937 0
M  V30 16 C -6.77775 0.777769 -1.36681 0
M  V30 17 N 1.28546 -0.278502 0.730643 0
M  V30 18 C 1.7204 -1.49499 1.38756 0
M  V30 19 C 2.9327 -1.31608 2.22545 0
M  V30 20 C 4.13928 -0.858782 1.54858 0
M  V30 21 C 4.99313 -1.779 0.964933 0
M  V30 22 C 6.12135 -1.35572 0.347825 0
M  V30 23 C 6.47681 -0.0137173 0.266991 0
M  V30 24 C 5.63803 0.893112 0.840772 0
M  V30 25 C 4.46883 0.473147 1.48227 0
M  V30 26 S 7.96034 0.411867 -0.553819 0
M  V30 27 O 8.98747 -0.673885 -0.417055 0
M  V30 28 O 8.50828 1.71351 -0.0116531 0
M  V30 29 N 7.62431 0.65666 -2.231 0
M  V30 30 H 0.648433 1.65698 -1.00031 0
M  V30 31 H -0.781562 0.883607 -1.70184 0
M  V30 32 H -3.76223 1.85203 -2.17465 0
M  V30 33 H -4.28885 3.08041 -0.980592 0
M  V30 34 H -6.61031 -1.54919 1.02452 0
M  V30 35 H -8.84556 -1.9821 0.255299 0
M  V30 36 H -9.81843 -0.654418 -1.57914 0
M  V30 37 H -8.50803 1.1146 -2.62677 0
M  V30 38 H -6.25389 1.55856 -1.8585 0
M  V30 39 H 1.85532 0.588355 0.903198 0
M  V30 40 H 0.8672 -1.78853 2.05665 0
M  V30 41 H 1.79966 -2.33455 0.658929 0
M  V30 42 H 2.64229 -0.609353 3.05836 0
M  V30 43 H 3.14992 -2.30536 2.70116 0
M  V30 44 H 4.74694 -2.8053 1.01224 0
M  V30 45 H 6.77813 -2.07674 -0.102093 0
M  V30 46 H 5.88319 1.94697 0.797096 0
M  V30 47 H 3.8728 1.25202 1.91152 0
M  V30 48 H 8.17621 1.4232 -2.63762 0
M  V30 49 H 7.71631 -0.220081 -2.77843 0
M  V30 END ATOM
M  V30 BEGIN BOND
M  V30 1 2 1 2
M  V30 2 1 2 3
M  V30 3 1 3 4
M  V30 4 1 4 5
M  V30 5 2 5 6
M  V30 6 1 6 7
M  V30 7 2 7 8
M  V30 8 1 8 9
M  V30 9 1 9 10
M  V30 10 1 8 11
M  V30 11 2 11 12
M  V30 12 1 12 13
M  V30 13 2 13 14
M  V30 14 1 14 15
M  V30 15 2 15 16
M  V30 16 1 2 17
M  V30 17 1 17 18
M  V30 18 1 18 19
M  V30 19 1 19 20
M  V30 20 2 20 21
M  V30 21 1 21 22
M  V30 22 2 22 23
M  V30 23 1 23 24
M  V30 24 2 24 25
M  V30 25 1 23 26
M  V30 26 2 26 27
M  V30 27 2 26 28
M  V30 28 1 26 29
M  V30 29 1 9 5
M  V30 30 1 16 11
M  V30 31 1 25 20
M  V30 32 1 3 30
M  V30 33 1 3 31
M  V30 34 1 10 32
M  V30 35 1 10 33
M  V30 36 1 12 34
M  V30 37 1 13 35
M  V30 38 1 14 36
M  V30 39 1 15 37
M  V30 40 1 16 38
M  V30 41 1 17 39
M  V30 42 1 18 40
M  V30 43 1 18 41
M  V30 44 1 19 42
M  V30 45 1 19 43
M  V30 46 1 21 44
M  V30 47 1 22 45
M  V30 48 1 24 46
M  V30 49 1 25 47
M  V30 50 1 29 48
M  V30 51 1 29 49
M  V30 END BOND
M  V30 END CTAB
M  END
