
     RDKit          3D

  0  0  0  0  0  0  0  0  0  0999 V3000
M  V30 BEGIN CTAB
M  V30 COUNTS 30 31 0 0 0
M  V30 BEGIN ATOM
M  V30 1 N 3.49033 -0.843716 -2.37644 0
M  V30 2 C 2.70601 -0.319263 -1.31073 0
M  V30 3 N 1.3713 -0.403186 -1.3263 0
M  V30 4 C 0.621776 0.0819497 -0.337842 0
M  V30 5 C 1.23161 0.689421 0.73555 0
M  V30 6 C 2.60414 0.781355 0.762114 0
M  V30 7 N 3.25169 1.39889 1.85015 0
M  V30 8 N 3.32188 0.279005 -0.255227 0 CHG=1
M  V30 9 O 4.68876 0.39267 -0.187365 0 CHG=-1
M  V30 10 N -0.800931 0.00432304 -0.332389 0
M  V30 11 C -1.52805 0.543577 0.755754 0
M  V30 12 C -2.99703 0.455972 0.678764 0
M  V30 13 C -3.56266 -0.423778 -0.360731 0
M  V30 14 C -2.59836 -1.42947 -0.9342 0
M  V30 15 C -1.41837 -0.646398 -1.48699 0
M  V30 16 H 4.17023 -1.60967 -2.18675 0
M  V30 17 H 3.34095 -0.422233 -3.32376 0
M  V30 18 H 0.639392 1.10158 1.57065 0
M  V30 19 H 3.53145 2.38744 1.78647 0
M  V30 20 H 3.44389 0.860699 2.70659 0
M  V30 21 H -1.12216 0.0778828 1.70082 0
M  V30 22 H -1.23645 1.6304 0.854674 0
M  V30 23 H -3.46795 1.47718 0.571574 0
M  V30 24 H -3.37729 0.0978712 1.68049 0
M  V30 25 H -4.45368 -0.999229 0.00280153 0
M  V30 26 H -3.94936 0.169667 -1.23923 0
M  V30 27 H -3.13822 -1.98406 -1.73636 0
M  V30 28 H -2.21344 -2.09944 -0.146469 0
M  V30 29 H -1.82127 0.111828 -2.19096 0
M  V30 30 H -0.7282 -1.36127 -1.95762 0
M  V30 END ATOM
M  V30 BEGIN BOND
M  V30 1 1 1 2
M  V30 2 2 2 3
M  V30 3 1 3 4
M  V30 4 2 4 5
M  V30 5 1 5 6
M  V30 6 1 6 7
M  V30 7 2 6 8
M  V30 8 1 8 9
M  V30 9 1 4 10
M  V30 10 1 10 11
M  V30 11 1 11 12
M  V30 12 1 12 13
M  V30 13 1 13 14
M  V30 14 1 14 15
M  V30 15 1 8 2
M  V30 16 1 15 10
M  V30 17 1 1 16
M  V30 18 1 1 17
M  V30 19 1 5 18
M  V30 20 1 7 19
M  V30 21 1 7 20
M  V30 22 1 11 21
M  V30 23 1 11 22
M  V30 24 1 12 23
M  V30 25 1 12 24
M  V30 26 1 13 25
M  V30 27 1 13 26
M  V30 28 1 14 27
M  V30 29 1 14 28
M  V30 30 1 15 29
M  V30 31 1 15 30
M  V30 END BOND
M  V30 END CTAB
M  END
