
     RDKit          3D

  0  0  0  0  0  0  0  0  0  0999 V3000
M  V30 BEGIN CTAB
M  V30 COUNTS 21 21 0 0 0
M  V30 BEGIN ATOM
M  V30 1 C 3.12484 -0.568186 -0.433816 0
M  V30 2 C 2.07923 0.440215 -0.136934 0
M  V30 3 O 2.4534 1.62406 0.0423078 0
M  V30 4 C 0.673696 0.0813569 -0.0546922 0
M  V30 5 C 0.209894 -1.19923 -0.24237 0
M  V30 6 C -1.12304 -1.5253 -0.16172 0
M  V30 7 C -2.0853 -0.550946 0.12012 0
M  V30 8 C -1.61268 0.731112 0.30713 0
M  V30 9 C -0.27632 1.03949 0.222846 0
M  V30 10 N 0.184538 2.38655 0.423137 0
M  V30 11 F -2.51317 1.718 0.584744 0
M  V30 12 N -3.46125 -0.876141 0.205499 0
M  V30 13 H 3.05378 -1.33917 0.380169 0
M  V30 14 H 2.96263 -1.05393 -1.4197 0
M  V30 15 H 4.13382 -0.118168 -0.466712 0
M  V30 16 H 0.915943 -1.98173 -0.461666 0
M  V30 17 H -1.49702 -2.53412 -0.308649 0
M  V30 18 H 0.420902 2.93143 -0.445406 0
M  V30 19 H 0.274918 2.78681 1.3674 0
M  V30 20 H -4.13486 -0.474243 -0.459304 0
M  V30 21 H -3.78395 -1.51786 0.937614 0
M  V30 END ATOM
M  V30 BEGIN BOND
M  V30 1 1 1 2
M  V30 2 2 2 3
M  V30 3 1 2 4
M  V30 4 2 4 5
M  V30 5 1 5 6
M  V30 6 2 6 7
M  V30 7 1 7 8
M  V30 8 2 8 9
M  V30 9 1 9 10
M  V30 10 1 8 11
M  V30 11 1 7 12
M  V30 12 1 9 4
M  V30 13 1 1 13
M  V30 14 1 1 14
M  V30 15 1 1 15
M  V30 16 1 5 16
M  V30 17 1 6 17
M  V30 18 1 10 18
M  V30 19 1 10 19
M  V30 20 1 12 20
M  V30 21 1 12 21
M  V30 END BOND
M  V30 END CTAB
M  END
