
     RDKit          3D

  0  0  0  0  0  0  0  0  0  0999 V3000
M  V30 BEGIN CTAB
M  V30 COUNTS 41 41 0 0 0
M  V30 BEGIN ATOM
M  V30 1 N -4.36934 -0.529866 -1.50867 0
M  V30 2 C -3.76855 -0.507249 -0.208722 0
M  V30 3 C -2.32301 -0.274706 -0.294309 0
M  V30 4 O -1.79431 -0.128415 -1.43257 0
M  V30 5 N -1.52092 -0.213246 0.879744 0
M  V30 6 C -0.112164 0.00903666 0.874924 0
M  V30 7 C 0.670693 -1.03577 0.119692 0
M  V30 8 C 2.11485 -0.641327 0.222139 0
M  V30 9 C 2.91341 -1.08473 1.25482 0
M  V30 10 C 4.2432 -0.73558 1.36989 0
M  V30 11 C 4.82315 0.0882242 0.42925 0
M  V30 12 C 4.0367 0.534386 -0.601768 0
M  V30 13 C 2.6991 0.185176 -0.72045 0
M  V30 14 S 6.51558 0.563868 0.529615 0
M  V30 15 O 6.90453 0.714863 1.97042 0
M  V30 16 O 6.72084 1.92716 -0.111515 0
M  V30 17 N 7.52712 -0.5397 -0.297003 0
M  V30 18 C -4.47494 0.518221 0.653187 0
M  V30 19 C -5.92465 0.145963 0.772065 0
M  V30 20 C -4.38915 1.9031 0.0664961 0
M  V30 21 H -4.39504 -1.53773 -1.82658 0
M  V30 22 H -3.83272 0.0704936 -2.17772 0
M  V30 23 H -3.94827 -1.49967 0.297909 0
M  V30 24 H -2.00655 -0.340345 1.7945 0
M  V30 25 H 0.261681 0.00250685 1.91586 0
M  V30 26 H 0.178975 0.996035 0.448256 0
M  V30 27 H 0.583301 -2.04229 0.577574 0
M  V30 28 H 0.423385 -1.08689 -0.94402 0
M  V30 29 H 2.42664 -1.74017 1.99118 0
M  V30 30 H 4.82724 -1.11143 2.20119 0
M  V30 31 H 4.46764 1.17816 -1.34743 0
M  V30 32 H 2.07796 0.547357 -1.54924 0
M  V30 33 H 7.40055 -0.364852 -1.33101 0
M  V30 34 H 7.16096 -1.5148 -0.135185 0
M  V30 35 H -4.02593 0.5533 1.65549 0
M  V30 36 H -6.26791 0.156112 1.84323 0
M  V30 37 H -6.1469 -0.864514 0.388241 0
M  V30 38 H -6.58694 0.845952 0.190085 0
M  V30 39 H -3.52839 2.44524 0.533874 0
M  V30 40 H -4.26806 1.90421 -1.03629 0
M  V30 41 H -5.29378 2.50392 0.332208 0
M  V30 END ATOM
M  V30 BEGIN BOND
M  V30 1 1 1 2
M  V30 2 1 2 3
M  V30 3 2 3 4
M  V30 4 1 3 5
M  V30 5 1 5 6
M  V30 6 1 6 7
M  V30 7 1 7 8
M  V30 8 2 8 9
M  V30 9 1 9 10
M  V30 10 2 10 11
M  V30 11 1 11 12
M  V30 12 2 12 13
M  V30 13 1 11 14
M  V30 14 2 14 15
M  V30 15 2 14 16
M  V30 16 1 14 17
M  V30 17 1 2 18
M  V30 18 1 18 19
M  V30 19 1 18 20
M  V30 20 1 13 8
M  V30 21 1 1 21
M  V30 22 1 1 22
M  V30 23 1 2 23
M  V30 24 1 5 24
M  V30 25 1 6 25
M  V30 26 1 6 26
M  V30 27 1 7 27
M  V30 28 1 7 28
M  V30 29 1 9 29
M  V30 30 1 10 30
M  V30 31 1 12 31
M  V30 32 1 13 32
M  V30 33 1 17 33
M  V30 34 1 17 34
M  V30 35 1 18 35
M  V30 36 1 19 36
M  V30 37 1 19 37
M  V30 38 1 19 38
M  V30 39 1 20 39
M  V30 40 1 20 40
M  V30 41 1 20 41
M  V30 END BOND
M  V30 END CTAB
M  END
