
     RDKit          3D

  0  0  0  0  0  0  0  0  0  0999 V3000
M  V30 BEGIN CTAB
M  V30 COUNTS 41 43 0 0 0
M  V30 BEGIN ATOM
M  V30 1 N -7.51007 -0.642144 -1.87753 0
M  V30 2 C -6.32488 -0.55589 -1.09878 0
M  V30 3 C -5.22515 0.15926 -1.50385 0
M  V30 4 C -4.06096 0.230661 -0.715485 0
M  V30 5 C -3.96813 -0.40808 0.489957 0
M  V30 6 C -5.10003 -1.13468 0.890828 0
M  V30 7 C -6.23352 -1.19913 0.114955 0
M  V30 8 N -2.82821 -0.412512 1.3342 0
M  V30 9 C -1.50551 -0.118243 0.985619 0
M  V30 10 O -1.25177 0.179608 -0.181672 0
M  V30 11 C -0.465879 -0.170548 1.99721 0
M  V30 12 N -0.678808 -0.410099 3.33167 0
M  V30 13 C 0.475205 -0.409401 4.00352 0
M  V30 14 N 1.42065 -0.170139 3.09983 0
M  V30 15 C 0.882375 -0.0167359 1.84942 0
M  V30 16 C 1.69248 0.250005 0.675306 0
M  V30 17 O 1.25797 0.421576 -0.466397 0
M  V30 18 N 3.10217 0.322719 0.829274 0
M  V30 19 C 4.05397 0.577029 -0.180881 0
M  V30 20 C 3.83106 1.18709 -1.38246 0
M  V30 21 C 4.85516 1.35754 -2.3238 0
M  V30 22 C 6.13675 0.920766 -2.08726 0
M  V30 23 C 6.36254 0.306232 -0.875706 0
M  V30 24 C 5.36893 0.133367 0.0530946 0
M  V30 25 N 7.17884 1.09094 -3.0381 0
M  V30 26 H -8.44935 -0.446464 -1.50844 0
M  V30 27 H -7.43978 -0.920358 -2.88964 0
M  V30 28 H -5.2667 0.677206 -2.45593 0
M  V30 29 H -3.23828 0.826568 -1.09533 0
M  V30 30 H -5.02118 -1.64244 1.85261 0
M  V30 31 H -7.08956 -1.77425 0.463617 0
M  V30 32 H -2.98285 -0.667303 2.36774 0
M  V30 33 H -1.59518 -0.572874 3.79082 0
M  V30 34 H 0.580913 -0.576591 5.08401 0
M  V30 35 H 3.46202 0.169046 1.82716 0
M  V30 36 H 2.84467 1.56992 -1.62648 0
M  V30 37 H 4.62954 1.84377 -3.25616 0
M  V30 38 H 7.36924 -0.0394979 -0.683407 0
M  V30 39 H 5.57957 -0.359708 1.00785 0
M  V30 40 H 7.54632 0.283779 -3.58579 0
M  V30 41 H 7.6054 2.02506 -3.21561 0
M  V30 END ATOM
M  V30 BEGIN BOND
M  V30 1 1 1 2
M  V30 2 2 2 3
M  V30 3 1 3 4
M  V30 4 2 4 5
M  V30 5 1 5 6
M  V30 6 2 6 7
M  V30 7 1 5 8
M  V30 8 1 8 9
M  V30 9 2 9 10
M  V30 10 1 9 11
M  V30 11 1 11 12
M  V30 12 1 12 13
M  V30 13 2 13 14
M  V30 14 1 14 15
M  V30 15 1 15 16
M  V30 16 2 16 17
M  V30 17 1 16 18
M  V30 18 1 18 19
M  V30 19 2 19 20
M  V30 20 1 20 21
M  V30 21 2 21 22
M  V30 22 1 22 23
M  V30 23 2 23 24
M  V30 24 1 22 25
M  V30 25 1 7 2
M  V30 26 2 15 11
M  V30 27 1 24 19
M  V30 28 1 1 26
M  V30 29 1 1 27
M  V30 30 1 3 28
M  V30 31 1 4 29
M  V30 32 1 6 30
M  V30 33 1 7 31
M  V30 34 1 8 32
M  V30 35 1 12 33
M  V30 36 1 13 34
M  V30 37 1 18 35
M  V30 38 1 20 36
M  V30 39 1 21 37
M  V30 40 1 23 38
M  V30 41 1 24 39
M  V30 42 1 25 40
M  V30 43 1 25 41
M  V30 END BOND
M  V30 END CTAB
M  END
