
     RDKit          3D

  0  0  0  0  0  0  0  0  0  0999 V3000
M  V30 BEGIN CTAB
M  V30 COUNTS 43 43 0 0 0
M  V30 BEGIN ATOM
M  V30 1 N -0.254379 4.44497 -0.703824 0
M  V30 2 C -0.63176 3.03453 -0.77979 0
M  V30 3 C -0.261113 2.39713 0.518951 0
M  V30 4 N -0.568101 0.993611 0.605797 0
M  V30 5 C 0.424337 0.0483153 0.148486 0
M  V30 6 S 0.00575018 -1.5093 0.332134 0
M  V30 7 N 1.62495 0.48382 -0.432164 0
M  V30 8 C 2.71545 -0.236562 -0.927616 0
M  V30 9 C 2.85717 -1.59437 -0.903734 0
M  V30 10 C 3.98735 -2.24988 -1.41527 0
M  V30 11 C 4.99239 -1.50676 -1.96145 0
M  V30 12 C 4.85799 -0.137325 -1.98952 0
M  V30 13 C 3.75385 0.509283 -1.49031 0
M  V30 14 Cl 3.67768 2.27906 -1.57537 0
M  V30 15 N 6.13191 -2.16497 -2.47739 0
M  V30 16 C -1.81629 0.541197 1.12984 0
M  V30 17 O -2.64734 1.42989 1.51807 0
M  V30 18 O -2.22437 -0.748272 1.26341 0
M  V30 19 C -3.47497 -1.1502 1.79022 0
M  V30 20 C -4.6284 -0.599734 0.981661 0
M  V30 21 C -3.63538 -0.822406 3.24472 0
M  V30 22 C -3.52996 -2.66151 1.65689 0
M  V30 23 H 0.653564 4.476 -0.153374 0
M  V30 24 H -0.0180562 4.83555 -1.63535 0
M  V30 25 H -0.117396 2.59858 -1.64719 0
M  V30 26 H -1.75013 3.05647 -0.931493 0
M  V30 27 H 0.779288 2.60355 0.778997 0
M  V30 28 H -0.898753 2.96254 1.2973 0
M  V30 29 H 1.69887 1.55596 -0.508555 0
M  V30 30 H 2.1209 -2.26617 -0.489619 0
M  V30 31 H 4.04373 -3.33186 -1.36859 0
M  V30 32 H 5.67607 0.453605 -2.43304 0
M  V30 33 H 6.64659 -1.72286 -3.27598 0
M  V30 34 H 6.50971 -3.0625 -2.12886 0
M  V30 35 H -5.46653 -1.32336 1.08145 0
M  V30 36 H -5.0042 0.360581 1.38274 0
M  V30 37 H -4.38752 -0.548532 -0.0953627 0
M  V30 38 H -3.28856 0.168582 3.53592 0
M  V30 39 H -3.14862 -1.60894 3.88112 0
M  V30 40 H -4.72861 -0.872056 3.48333 0
M  V30 41 H -3.82991 -2.988 0.653602 0
M  V30 42 H -4.29211 -3.00545 2.39722 0
M  V30 43 H -2.5551 -3.12221 1.98567 0
M  V30 END ATOM
M  V30 BEGIN BOND
M  V30 1 1 1 2
M  V30 2 1 2 3
M  V30 3 1 3 4
M  V30 4 1 4 5
M  V30 5 2 5 6
M  V30 6 1 5 7
M  V30 7 1 7 8
M  V30 8 2 8 9
M  V30 9 1 9 10
M  V30 10 2 10 11
M  V30 11 1 11 12
M  V30 12 2 12 13
M  V30 13 1 13 14
M  V30 14 1 11 15
M  V30 15 1 4 16
M  V30 16 2 16 17
M  V30 17 1 16 18
M  V30 18 1 18 19
M  V30 19 1 19 20
M  V30 20 1 19 21
M  V30 21 1 19 22
M  V30 22 1 13 8
M  V30 23 1 1 23
M  V30 24 1 1 24
M  V30 25 1 2 25
M  V30 26 1 2 26
M  V30 27 1 3 27
M  V30 28 1 3 28
M  V30 29 1 7 29
M  V30 30 1 9 30
M  V30 31 1 10 31
M  V30 32 1 12 32
M  V30 33 1 15 33
M  V30 34 1 15 34
M  V30 35 1 20 35
M  V30 36 1 20 36
M  V30 37 1 20 37
M  V30 38 1 21 38
M  V30 39 1 21 39
M  V30 40 1 21 40
M  V30 41 1 22 41
M  V30 42 1 22 42
M  V30 43 1 22 43
M  V30 END BOND
M  V30 END CTAB
M  END
