
     RDKit          3D

  0  0  0  0  0  0  0  0  0  0999 V3000
M  V30 BEGIN CTAB
M  V30 COUNTS 21 22 0 0 0
M  V30 BEGIN ATOM
M  V30 1 N -3.59078 0.329928 -0.922833 0
M  V30 2 C -2.97841 -0.057566 0.349221 0
M  V30 3 C -1.51909 -0.225806 0.230289 0
M  V30 4 C -0.936768 -1.43042 -0.0980795 0
M  V30 5 C 0.414682 -1.60234 -0.212202 0
M  V30 6 C 1.29648 -0.528754 0.00617097 0
M  V30 7 C 0.726558 0.674781 0.333616 0
M  V30 8 C -0.660605 0.832422 0.446102 0
M  V30 9 S 2.11571 1.66487 0.504463 0
M  V30 10 C 3.32309 0.483538 0.148704 0
M  V30 11 N 2.59456 -0.573855 -0.0737995 0
M  V30 12 N 4.75048 0.668613 0.118724 0
M  V30 13 H -2.97075 0.951458 -1.46515 0
M  V30 14 H -4.51621 0.756777 -0.720308 0
M  V30 15 H -3.40274 -1.05968 0.586658 0
M  V30 16 H -3.25622 0.693664 1.11457 0
M  V30 17 H -1.61039 -2.27542 -0.271044 0
M  V30 18 H 0.764168 -2.59209 -0.475156 0
M  V30 19 H -1.00323 1.81134 0.706021 0
M  V30 20 H 5.33945 -0.100732 0.437064 0
M  V30 21 H 5.12003 1.57926 -0.226405 0
M  V30 END ATOM
M  V30 BEGIN BOND
M  V30 1 1 1 2
M  V30 2 1 2 3
M  V30 3 2 3 4
M  V30 4 1 4 5
M  V30 5 2 5 6
M  V30 6 1 6 7
M  V30 7 2 7 8
M  V30 8 1 7 9
M  V30 9 1 9 10
M  V30 10 2 10 11
M  V30 11 1 10 12
M  V30 12 1 8 3
M  V30 13 1 11 6
M  V30 14 1 1 13
M  V30 15 1 1 14
M  V30 16 1 2 15
M  V30 17 1 2 16
M  V30 18 1 4 17
M  V30 19 1 5 18
M  V30 20 1 8 19
M  V30 21 1 12 20
M  V30 22 1 12 21
M  V30 END BOND
M  V30 END CTAB
M  END
