
     RDKit          3D

  0  0  0  0  0  0  0  0  0  0999 V3000
M  V30 BEGIN CTAB
M  V30 COUNTS 41 40 0 0 0
M  V30 BEGIN ATOM
M  V30 1 N -5.52414 2.56755 -0.0134917 0
M  V30 2 C -4.5365 1.58663 -0.388182 0
M  V30 3 C -4.8711 0.309463 0.239047 0
M  V30 4 C -4.10909 -0.90721 0.0520401 0
M  V30 5 C -2.70741 -1.07924 0.415695 0
M  V30 6 C -1.67971 -0.204899 -0.250129 0 CFG=1
M  V30 7 C -0.319538 -0.604363 0.288263 0
M  V30 8 O -0.146656 -0.506263 1.51315 0
M  V30 9 N 0.658745 -1.05567 -0.601407 0
M  V30 10 C 1.98339 -1.485 -0.294164 0 CFG=2
M  V30 11 C 2.05919 -2.29823 0.952906 0
M  V30 12 O 1.03271 -2.97575 1.30801 0
M  V30 13 O 3.14547 -2.391 1.77498 0
M  V30 14 C 3.00117 -0.396549 -0.238951 0
M  V30 15 S 4.61866 -1.11611 0.143334 0
M  V30 16 C 5.89319 0.120486 0.215042 0
M  V30 17 O 7.0597 -0.264809 0.482272 0
M  V30 18 O 5.66036 1.46239 -0.00687885 0
M  V30 19 C 6.65669 2.46207 0.0454961 0
M  V30 20 N -1.7269 -0.362281 -1.6847 0
M  V30 21 H -5.90765 2.35082 0.870192 0
M  V30 22 H -5.29901 3.49563 -0.177461 0
M  V30 23 H -3.60436 2.0874 -0.133865 0
M  V30 24 H -4.58961 1.54903 -1.50038 0
M  V30 25 H -5.03355 0.521462 1.35036 0
M  V30 26 H -5.94822 0.0783316 -0.0747016 0
M  V30 27 H -4.20945 -1.29459 -1.02477 0
M  V30 28 H -4.68344 -1.74217 0.595202 0
M  V30 29 H -2.51548 -1.17321 1.51543 0
M  V30 30 H -2.41361 -2.12644 0.0610103 0
M  V30 31 H -1.73582 0.857723 -0.030859 0
M  V30 32 H 0.385343 -1.08156 -1.63539 0
M  V30 33 H 2.29113 -2.20626 -1.10813 0
M  V30 34 H 3.21674 -1.85899 2.64244 0
M  V30 35 H 2.74144 0.389081 0.513691 0
M  V30 36 H 3.10379 0.112946 -1.24082 0
M  V30 37 H 6.38931 3.30304 0.729271 0
M  V30 38 H 6.77772 2.939 -0.956931 0
M  V30 39 H 7.59316 2.01057 0.424285 0
M  V30 40 H -1.63989 -1.35089 -1.95348 0
M  V30 41 H -1.06679 0.277842 -2.13371 0
M  V30 END ATOM
M  V30 BEGIN BOND
M  V30 1 1 1 2
M  V30 2 1 2 3
M  V30 3 1 3 4
M  V30 4 1 4 5
M  V30 5 1 5 6
M  V30 6 1 6 7
M  V30 7 2 7 8
M  V30 8 1 7 9
M  V30 9 1 9 10
M  V30 10 1 10 11
M  V30 11 2 11 12
M  V30 12 1 11 13
M  V30 13 1 10 14
M  V30 14 1 14 15
M  V30 15 1 15 16
M  V30 16 2 16 17
M  V30 17 1 16 18
M  V30 18 1 18 19
M  V30 19 1 6 20
M  V30 20 1 1 21
M  V30 21 1 1 22
M  V30 22 1 2 23
M  V30 23 1 2 24
M  V30 24 1 3 25
M  V30 25 1 3 26
M  V30 26 1 4 27
M  V30 27 1 4 28
M  V30 28 1 5 29
M  V30 29 1 5 30
M  V30 30 1 6 31 CFG=3
M  V30 31 1 9 32
M  V30 32 1 10 33 CFG=3
M  V30 33 1 13 34
M  V30 34 1 14 35
M  V30 35 1 14 36
M  V30 36 1 19 37
M  V30 37 1 19 38
M  V30 38 1 19 39
M  V30 39 1 20 40
M  V30 40 1 20 41
M  V30 END BOND
M  V30 END CTAB
M  END
