
     RDKit          3D

  0  0  0  0  0  0  0  0  0  0999 V3000
M  V30 BEGIN CTAB
M  V30 COUNTS 39 41 0 0 0
M  V30 BEGIN ATOM
M  V30 1 N -2.7477 2.17717 0.727961 0
M  V30 2 C -2.51936 2.33989 -0.694639 0
M  V30 3 C -2.54703 0.919724 -1.28604 0
M  V30 4 N -1.52775 0.131341 -0.692042 0
M  V30 5 C -0.15178 0.512677 -1.03712 0
M  V30 6 C 0.819366 -0.60375 -0.851282 0 CFG=2
M  V30 7 N 0.604107 -1.44014 0.280976 0
M  V30 8 C -0.705307 -1.75329 0.678849 0
M  V30 9 C -1.73357 -0.969728 0.189702 0
M  V30 10 C -3.00249 -1.27457 0.578051 0
M  V30 11 C -3.28215 -2.32456 1.42969 0
M  V30 12 C -2.27801 -3.11247 1.92453 0
M  V30 13 C -0.985388 -2.81925 1.54278 0
M  V30 14 C 2.21182 -0.0865113 -0.787801 0
M  V30 15 C 3.0394 -0.0263692 -1.89645 0
M  V30 16 C 4.32544 0.453365 -1.79572 0
M  V30 17 N 4.82374 0.880537 -0.616155 0
M  V30 18 C 4.05917 0.840534 0.483122 0
M  V30 19 C 2.7591 0.361355 0.406739 0
M  V30 20 N 4.57641 1.28657 1.73797 0
M  V30 21 H -2.05899 2.70455 1.30585 0
M  V30 22 H -3.70912 2.48836 1.01218 0
M  V30 23 H -1.57891 2.84681 -0.927827 0
M  V30 24 H -3.41259 2.84911 -1.10748 0
M  V30 25 H -3.56658 0.619446 -1.25572 0
M  V30 26 H -2.24499 1.09007 -2.36454 0
M  V30 27 H -0.14276 0.758795 -2.14119 0
M  V30 28 H 0.180815 1.42913 -0.527656 0
M  V30 29 H 0.811105 -1.29506 -1.74925 0
M  V30 30 H 1.41238 -1.81692 0.807902 0
M  V30 31 H -3.81637 -0.701259 0.227885 0
M  V30 32 H -4.3073 -2.52241 1.70624 0
M  V30 33 H -2.49435 -3.92352 2.58054 0
M  V30 34 H -0.167457 -3.40657 1.90356 0
M  V30 35 H 2.66105 -0.367208 -2.86875 0
M  V30 36 H 4.96866 0.499436 -2.65634 0
M  V30 37 H 2.19514 0.354736 1.33272 0
M  V30 38 H 3.9772 1.29518 2.58156 0
M  V30 39 H 5.55505 1.6048 1.81721 0
M  V30 END ATOM
M  V30 BEGIN BOND
M  V30 1 1 1 2
M  V30 2 1 2 3
M  V30 3 1 3 4
M  V30 4 1 4 5
M  V30 5 1 5 6
M  V30 6 1 6 7
M  V30 7 1 7 8
M  V30 8 2 8 9
M  V30 9 1 9 10
M  V30 10 2 10 11
M  V30 11 1 11 12
M  V30 12 2 12 13
M  V30 13 1 6 14
M  V30 14 2 14 15
M  V30 15 1 15 16
M  V30 16 2 16 17
M  V30 17 1 17 18
M  V30 18 2 18 19
M  V30 19 1 18 20
M  V30 20 1 9 4
M  V30 21 1 19 14
M  V30 22 1 13 8
M  V30 23 1 1 21
M  V30 24 1 1 22
M  V30 25 1 2 23
M  V30 26 1 2 24
M  V30 27 1 3 25
M  V30 28 1 3 26
M  V30 29 1 5 27
M  V30 30 1 5 28
M  V30 31 1 6 29 CFG=3
M  V30 32 1 7 30
M  V30 33 1 10 31
M  V30 34 1 11 32
M  V30 35 1 12 33
M  V30 36 1 13 34
M  V30 37 1 15 35
M  V30 38 1 16 36
M  V30 39 1 19 37
M  V30 40 1 20 38
M  V30 41 1 20 39
M  V30 END BOND
M  V30 END CTAB
M  END
