
     RDKit          3D

  0  0  0  0  0  0  0  0  0  0999 V3000
M  V30 BEGIN CTAB
M  V30 COUNTS 42 43 0 0 0
M  V30 BEGIN ATOM
M  V30 1 C -2.97263 3.64178 -0.102998 0
M  V30 2 O -3.23511 2.25301 -0.08369 0
M  V30 3 C -2.14604 1.39211 -0.01854 0
M  V30 4 C -0.847575 1.8947 0.0254753 0
M  V30 5 C 0.249353 1.0644 0.0900877 0
M  V30 6 C 1.58502 1.67592 0.116879 0
M  V30 7 C 2.70913 0.769525 -0.123297 0
M  V30 8 C 3.2325 -0.0343998 0.862307 0
M  V30 9 N 2.70749 0.0464792 2.18991 0
M  V30 10 N 4.25805 -0.878027 0.570944 0
M  V30 11 C 4.80423 -0.974049 -0.654194 0
M  V30 12 N 5.88023 -1.87425 -0.917749 0
M  V30 13 N 4.29418 -0.187931 -1.61916 0
M  V30 14 C 3.27971 0.66626 -1.39047 0
M  V30 15 C 0.0269724 -0.275204 0.109182 0
M  V30 16 C -1.25941 -0.82176 0.0666628 0
M  V30 17 O -1.45026 -2.1767 0.0867362 0
M  V30 18 C -0.435848 -3.15642 0.150395 0
M  V30 19 C -2.34777 0.00162649 0.00319252 0
M  V30 20 C -3.751 -0.424092 -0.0441726 0
M  V30 21 C -4.00959 -1.87906 0.102713 0
M  V30 22 O -4.44113 0.0489844 -1.1599 0
M  V30 23 H -2.47233 3.90698 0.836109 0
M  V30 24 H -2.25526 3.89729 -0.934261 0
M  V30 25 H -3.8886 4.2209 -0.31266 0
M  V30 26 H -0.694223 2.97283 0.00815219 0
M  V30 27 H 1.58252 2.54457 -0.600781 0
M  V30 28 H 1.7035 2.17003 1.11486 0
M  V30 29 H 2.76282 -0.82327 2.76972 0
M  V30 30 H 2.28979 0.883514 2.60168 0
M  V30 31 H 5.77175 -2.85184 -0.576087 0
M  V30 32 H 6.75177 -1.62556 -1.41943 0
M  V30 33 H 2.86609 1.30412 -2.16945 0
M  V30 34 H 0.824568 -0.966745 0.145433 0
M  V30 35 H -0.958325 -4.13923 0.0136095 0
M  V30 36 H -0.105898 -3.1763 1.22994 0
M  V30 37 H 0.390189 -3.0051 -0.544928 0
M  V30 38 H -4.25673 0.0782075 0.834477 0
M  V30 39 H -5.14026 -1.98235 0.162019 0
M  V30 40 H -3.67547 -2.24716 1.09689 0
M  V30 41 H -3.73098 -2.51425 -0.744985 0
M  V30 42 H -3.89539 0.580469 -1.77063 0
M  V30 END ATOM
M  V30 BEGIN BOND
M  V30 1 1 1 2
M  V30 2 1 2 3
M  V30 3 2 3 4
M  V30 4 1 4 5
M  V30 5 1 5 6
M  V30 6 1 6 7
M  V30 7 2 7 8
M  V30 8 1 8 9
M  V30 9 1 8 10
M  V30 10 2 10 11
M  V30 11 1 11 12
M  V30 12 1 11 13
M  V30 13 2 13 14
M  V30 14 2 5 15
M  V30 15 1 15 16
M  V30 16 1 16 17
M  V30 17 1 17 18
M  V30 18 2 16 19
M  V30 19 1 19 20
M  V30 20 1 20 21
M  V30 21 1 20 22
M  V30 22 1 19 3
M  V30 23 1 14 7
M  V30 24 1 1 23
M  V30 25 1 1 24
M  V30 26 1 1 25
M  V30 27 1 4 26
M  V30 28 1 6 27
M  V30 29 1 6 28
M  V30 30 1 9 29
M  V30 31 1 9 30
M  V30 32 1 12 31
M  V30 33 1 12 32
M  V30 34 1 14 33
M  V30 35 1 15 34
M  V30 36 1 18 35
M  V30 37 1 18 36
M  V30 38 1 18 37
M  V30 39 1 20 38
M  V30 40 1 21 39
M  V30 41 1 21 40
M  V30 42 1 21 41
M  V30 43 1 22 42
M  V30 END BOND
M  V30 END CTAB
M  END
