
     RDKit          3D

  0  0  0  0  0  0  0  0  0  0999 V3000
M  V30 BEGIN CTAB
M  V30 COUNTS 39 40 0 0 0
M  V30 BEGIN ATOM
M  V30 1 N 5.37189 -1.43774 -0.552452 0
M  V30 2 C 4.24739 -0.553716 -0.587648 0
M  V30 3 C 3.43609 -0.574625 0.714025 0
M  V30 4 C 2.32956 0.382538 0.507429 0
M  V30 5 C 2.36445 1.74582 0.529729 0
M  V30 6 C 3.57812 2.58978 0.784297 0
M  V30 7 N 1.13588 2.20656 0.286957 0
M  V30 8 N 0.277286 1.17681 0.101595 0
M  V30 9 C 0.995486 0.0648977 0.235468 0
M  V30 10 C 0.471382 -1.31842 0.151363 0
M  V30 11 C -1.08827 1.42826 -0.145084 0
M  V30 12 O -1.526 2.65346 -0.104452 0
M  V30 13 C -2.12888 0.477439 -0.453583 0
M  V30 14 C -2.10337 -0.214463 -1.64175 0
M  V30 15 C -3.09959 -1.11623 -1.92294 0
M  V30 16 N -4.09525 -1.32831 -1.0516 0
M  V30 17 C -4.17409 -0.682604 0.124984 0
M  V30 18 C -3.18307 0.222184 0.417685 0
M  V30 19 C -5.3026 -0.959752 1.05297 0
M  V30 20 N -6.37898 -0.0376479 0.653477 0
M  V30 21 H 6.23023 -0.963199 -0.233153 0
M  V30 22 H 5.57836 -1.80679 -1.51716 0
M  V30 23 H 4.53109 0.488551 -0.856711 0
M  V30 24 H 3.52568 -0.920115 -1.37503 0
M  V30 25 H 3.06469 -1.58366 0.833736 0
M  V30 26 H 4.06945 -0.218284 1.55167 0
M  V30 27 H 4.36735 1.95227 1.23378 0
M  V30 28 H 3.91986 3.04839 -0.172101 0
M  V30 29 H 3.30753 3.41971 1.46849 0
M  V30 30 H 1.12966 -2.01936 0.745999 0
M  V30 31 H 0.432246 -1.73888 -0.862697 0
M  V30 32 H -0.516032 -1.43092 0.638098 0
M  V30 33 H -1.27411 -0.0146173 -2.32874 0
M  V30 34 H -3.04219 -1.64745 -2.88233 0
M  V30 35 H -3.23399 0.752956 1.36924 0
M  V30 36 H -5.59987 -2.0081 0.96481 0
M  V30 37 H -5.04139 -0.65583 2.09034 0
M  V30 38 H -5.90023 0.904297 0.556385 0
M  V30 39 H -6.6758 -0.283222 -0.32509 0
M  V30 END ATOM
M  V30 BEGIN BOND
M  V30 1 1 1 2
M  V30 2 1 2 3
M  V30 3 1 3 4
M  V30 4 1 4 5
M  V30 5 1 5 6
M  V30 6 2 5 7
M  V30 7 1 7 8
M  V30 8 1 8 9
M  V30 9 1 9 10
M  V30 10 1 8 11
M  V30 11 2 11 12
M  V30 12 1 11 13
M  V30 13 2 13 14
M  V30 14 1 14 15
M  V30 15 2 15 16
M  V30 16 1 16 17
M  V30 17 2 17 18
M  V30 18 1 17 19
M  V30 19 1 19 20
M  V30 20 2 9 4
M  V30 21 1 18 13
M  V30 22 1 1 21
M  V30 23 1 1 22
M  V30 24 1 2 23
M  V30 25 1 2 24
M  V30 26 1 3 25
M  V30 27 1 3 26
M  V30 28 1 6 27
M  V30 29 1 6 28
M  V30 30 1 6 29
M  V30 31 1 10 30
M  V30 32 1 10 31
M  V30 33 1 10 32
M  V30 34 1 14 33
M  V30 35 1 15 34
M  V30 36 1 18 35
M  V30 37 1 19 36
M  V30 38 1 19 37
M  V30 39 1 20 38
M  V30 40 1 20 39
M  V30 END BOND
M  V30 END CTAB
M  END
