
     RDKit          3D

  0  0  0  0  0  0  0  0  0  0999 V3000
M  V30 BEGIN CTAB
M  V30 COUNTS 48 49 0 0 0
M  V30 BEGIN ATOM
M  V30 1 C 2.4016 -2.75736 -2.08266 0
M  V30 2 O 2.99996 -1.8531 -1.2206 0
M  V30 3 C 2.44965 -0.954122 -0.364664 0
M  V30 4 C 1.06093 -0.812836 -0.231464 0
M  V30 5 C 0.474602 0.0605917 0.60031 0
M  V30 6 C -0.967944 0.243928 0.822064 0
M  V30 7 C -1.76381 0.792334 -0.2629 0
M  V30 8 C -1.54492 2.06738 -0.71784 0
M  V30 9 N -0.498124 2.91785 -0.25103 0
M  V30 10 N -2.32305 2.65455 -1.68226 0
M  V30 11 C -3.33201 1.97713 -2.2072 0
M  V30 12 N -4.16112 2.5766 -3.21857 0
M  V30 13 N -3.54592 0.737736 -1.76583 0
M  V30 14 C -2.83199 0.0930347 -0.826933 0
M  V30 15 C -3.20044 -1.29321 -0.410552 0
M  V30 16 C -4.63661 -1.51418 -0.946495 0
M  V30 17 C -2.38868 -2.35936 -1.11612 0
M  V30 18 C 1.33351 0.86776 1.37025 0
M  V30 19 C 2.6999 0.761647 1.27021 0
M  V30 20 O 3.60938 1.51366 1.98663 0
M  V30 21 C 3.22176 2.48065 2.90722 0
M  V30 22 C 3.28147 -0.165983 0.387167 0
M  V30 23 O 4.67463 -0.251968 0.307351 0
M  V30 24 C 5.27575 -1.16744 1.21536 0
M  V30 25 H 2.75392 -3.78596 -1.76888 0
M  V30 26 H 2.77149 -2.67971 -3.14748 0
M  V30 27 H 1.3113 -2.72308 -2.16358 0
M  V30 28 H 0.455734 -1.45118 -0.845712 0
M  V30 29 H -1.16241 0.914971 1.71967 0
M  V30 30 H -1.34535 -0.747082 1.18432 0
M  V30 31 H 0.39948 2.97011 -0.744899 0
M  V30 32 H -0.615543 3.50252 0.592167 0
M  V30 33 H -4.92036 2.03249 -3.67974 0
M  V30 34 H -4.02847 3.55401 -3.5133 0
M  V30 35 H -3.27498 -1.43107 0.670556 0
M  V30 36 H -4.73818 -1.00573 -1.90369 0
M  V30 37 H -4.83762 -2.60647 -0.976407 0
M  V30 38 H -5.30893 -1.01505 -0.211567 0
M  V30 39 H -1.69263 -1.89056 -1.86651 0
M  V30 40 H -1.78211 -2.95445 -0.407607 0
M  V30 41 H -2.99559 -3.07301 -1.705 0
M  V30 42 H 0.900746 1.57862 2.05735 0
M  V30 43 H 3.7624 3.46086 2.69621 0
M  V30 44 H 2.16829 2.74751 2.95172 0
M  V30 45 H 3.55318 2.2329 3.9499 0
M  V30 46 H 4.89028 -1.05693 2.24154 0
M  V30 47 H 5.08369 -2.22047 0.919058 0
M  V30 48 H 6.36315 -0.968542 1.25557 0
M  V30 END ATOM
M  V30 BEGIN BOND
M  V30 1 1 1 2
M  V30 2 1 2 3
M  V30 3 2 3 4
M  V30 4 1 4 5
M  V30 5 1 5 6
M  V30 6 1 6 7
M  V30 7 2 7 8
M  V30 8 1 8 9
M  V30 9 1 8 10
M  V30 10 2 10 11
M  V30 11 1 11 12
M  V30 12 1 11 13
M  V30 13 2 13 14
M  V30 14 1 14 15
M  V30 15 1 15 16
M  V30 16 1 15 17
M  V30 17 2 5 18
M  V30 18 1 18 19
M  V30 19 1 19 20
M  V30 20 1 20 21
M  V30 21 2 19 22
M  V30 22 1 22 23
M  V30 23 1 23 24
M  V30 24 1 22 3
M  V30 25 1 14 7
M  V30 26 1 1 25
M  V30 27 1 1 26
M  V30 28 1 1 27
M  V30 29 1 4 28
M  V30 30 1 6 29
M  V30 31 1 6 30
M  V30 32 1 9 31
M  V30 33 1 9 32
M  V30 34 1 12 33
M  V30 35 1 12 34
M  V30 36 1 15 35
M  V30 37 1 16 36
M  V30 38 1 16 37
M  V30 39 1 16 38
M  V30 40 1 17 39
M  V30 41 1 17 40
M  V30 42 1 17 41
M  V30 43 1 18 42
M  V30 44 1 21 43
M  V30 45 1 21 44
M  V30 46 1 21 45
M  V30 47 1 24 46
M  V30 48 1 24 47
M  V30 49 1 24 48
M  V30 END BOND
M  V30 END CTAB
M  END
