
     RDKit          3D

  0  0  0  0  0  0  0  0  0  0999 V3000
M  V30 BEGIN CTAB
M  V30 COUNTS 57 60 0 0 0
M  V30 BEGIN ATOM
M  V30 1 C 6.40269 1.29663 1.35073 0
M  V30 2 C 6.08466 -0.0554891 0.821969 0
M  V30 3 C 5.21765 -0.147282 -0.375582 0
M  V30 4 N 3.88202 0.394484 -0.251966 0
M  V30 5 C 3.44317 1.71263 -0.114011 0
M  V30 6 O 4.14585 2.75582 -0.21177 0
M  V30 7 C 1.97668 1.65388 0.167755 0
M  V30 8 C 1.59233 0.312923 -0.0399698 0
M  V30 9 C 2.71717 -0.460042 -0.210215 0
M  V30 10 N 2.6184 -1.80794 -0.367931 0
M  V30 11 C 1.44357 -2.42904 -0.367014 0
M  V30 12 N 1.3915 -3.8353 -0.534548 0
M  V30 13 C 0.280078 -1.71922 -0.204939 0
M  V30 14 C 0.348528 -0.326243 -0.0384343 0
M  V30 15 C -0.8155 0.378327 0.121477 0
M  V30 16 C -0.830554 1.81041 0.306073 0
M  V30 17 N -0.901415 2.98552 0.462917 0
M  V30 18 C -2.06496 -0.280425 0.119447 0
M  V30 19 N -2.05619 -1.60098 -0.0426487 0
M  V30 20 C -0.942564 -2.31501 -0.200483 0
M  V30 21 N -0.991344 -3.74243 -0.372205 0
M  V30 22 N -3.21628 0.501298 0.276712 0
M  V30 23 C -3.5546 1.47716 -0.756115 0
M  V30 24 C -4.92594 1.01296 -1.26549 0
M  V30 25 C -4.90442 -0.401589 -1.74034 0
M  V30 26 O -5.7974 1.24009 -0.207743 0
M  V30 27 C -5.58302 0.476519 0.906024 0
M  V30 28 C -4.14793 0.434085 1.3861 0
M  V30 29 C -6.41344 1.09725 2.03754 0
M  V30 30 C 5.91893 0.438003 -1.56874 0
M  V30 31 H 7.29359 1.22244 2.07985 0
M  V30 32 H 5.61156 1.75835 1.95097 0
M  V30 33 H 6.72018 2.00339 0.566736 0
M  V30 34 H 7.08378 -0.503573 0.512065 0
M  V30 35 H 5.75979 -0.764401 1.63685 0
M  V30 36 H 5.14668 -1.27289 -0.569383 0
M  V30 37 H 1.58245 2.26108 -0.704122 0
M  V30 38 H 1.72121 2.22089 1.04925 0
M  V30 39 H 1.30614 -4.32763 -1.43917 0
M  V30 40 H 1.44482 -4.42197 0.328746 0
M  V30 41 H -0.944946 -4.34168 0.466403 0
M  V30 42 H -1.07278 -4.06724 -1.35642 0
M  V30 43 H -2.86069 1.52068 -1.58602 0
M  V30 44 H -3.73809 2.47422 -0.336636 0
M  V30 45 H -5.21239 1.66818 -2.09304 0
M  V30 46 H -4.00885 -0.520468 -2.39691 0
M  V30 47 H -4.95225 -1.14868 -0.9409 0
M  V30 48 H -5.78862 -0.55914 -2.39128 0
M  V30 49 H -6.00692 -0.546789 0.768719 0
M  V30 50 H -3.98947 1.31908 2.02749 0
M  V30 51 H -3.99111 -0.530186 1.89992 0
M  V30 52 H -6.09921 2.16508 2.08962 0
M  V30 53 H -6.22408 0.600244 3.0006 0
M  V30 54 H -7.48534 1.10653 1.74382 0
M  V30 55 H 7.01981 0.469682 -1.35002 0
M  V30 56 H 5.62993 1.49922 -1.74558 0
M  V30 57 H 5.73712 -0.141412 -2.49471 0
M  V30 END ATOM
M  V30 BEGIN BOND
M  V30 1 1 1 2
M  V30 2 1 2 3
M  V30 3 1 3 4
M  V30 4 1 4 5
M  V30 5 2 5 6
M  V30 6 1 5 7
M  V30 7 1 7 8
M  V30 8 2 8 9
M  V30 9 1 9 10
M  V30 10 2 10 11
M  V30 11 1 11 12
M  V30 12 1 11 13
M  V30 13 2 13 14
M  V30 14 1 14 15
M  V30 15 1 15 16
M  V30 16 3 16 17
M  V30 17 2 15 18
M  V30 18 1 18 19
M  V30 19 2 19 20
M  V30 20 1 20 21
M  V30 21 1 18 22
M  V30 22 1 22 23
M  V30 23 1 23 24
M  V30 24 1 24 25
M  V30 25 1 24 26
M  V30 26 1 26 27
M  V30 27 1 27 28
M  V30 28 1 27 29
M  V30 29 1 3 30
M  V30 30 1 9 4
M  V30 31 1 20 13
M  V30 32 1 28 22
M  V30 33 1 14 8
M  V30 34 1 1 31
M  V30 35 1 1 32
M  V30 36 1 1 33
M  V30 37 1 2 34
M  V30 38 1 2 35
M  V30 39 1 3 36
M  V30 40 1 7 37
M  V30 41 1 7 38
M  V30 42 1 12 39
M  V30 43 1 12 40
M  V30 44 1 21 41
M  V30 45 1 21 42
M  V30 46 1 23 43
M  V30 47 1 23 44
M  V30 48 1 24 45
M  V30 49 1 25 46
M  V30 50 1 25 47
M  V30 51 1 25 48
M  V30 52 1 27 49
M  V30 53 1 28 50
M  V30 54 1 28 51
M  V30 55 1 29 52
M  V30 56 1 29 53
M  V30 57 1 29 54
M  V30 58 1 30 55
M  V30 59 1 30 56
M  V30 60 1 30 57
M  V30 END BOND
M  V30 END CTAB
M  END
