
     RDKit          3D

  0  0  0  0  0  0  0  0  0  0999 V3000
M  V30 BEGIN CTAB
M  V30 COUNTS 33 32 0 0 0
M  V30 BEGIN ATOM
M  V30 1 N -4.03243 2.1912 1.13294 0
M  V30 2 C -4.32302 1.14133 0.25065 0
M  V30 3 S -3.13398 -0.129593 -0.0737006 0
M  V30 4 C -1.64225 0.211082 0.887198 0
M  V30 5 C -0.576405 -0.809677 0.680008 0
M  V30 6 C -0.156309 -0.875624 -0.77387 0
M  V30 7 C 0.929333 -1.92249 -0.957324 0
M  V30 8 C 2.14414 -1.59761 -0.130068 0
M  V30 9 S 2.86821 -0.0108312 -0.561276 0
M  V30 10 C 4.28843 0.278203 0.46574 0
M  V30 11 N 4.69594 -0.662815 1.4397 0
M  V30 12 N 4.96304 1.3644 0.324088 0
M  V30 13 N 4.64765 2.35121 -0.601208 0 CHG=1
M  V30 14 O 4.05181 3.50205 -0.105868 0 CHG=-1
M  V30 15 O 4.8717 2.24652 -1.81894 0
M  V30 16 N -5.45674 1.08497 -0.336435 0
M  V30 17 N -5.84239 0.0953283 -1.22205 0 CHG=1
M  V30 18 O -6.41091 0.437616 -2.40899 0 CHG=-1
M  V30 19 O -5.6737 -1.09206 -0.941413 0
M  V30 20 H -4.62306 3.04377 1.18943 0
M  V30 21 H -3.20579 2.13772 1.75985 0
M  V30 22 H -1.31044 1.2346 0.640276 0
M  V30 23 H -1.90964 0.222909 1.97016 0
M  V30 24 H 0.317979 -0.485293 1.25677 0
M  V30 25 H -0.882836 -1.77503 1.07798 0
M  V30 26 H 0.208552 0.105203 -1.1386 0
M  V30 27 H -1.03555 -1.16923 -1.38089 0
M  V30 28 H 0.51116 -2.87871 -0.569771 0
M  V30 29 H 1.18048 -2.08502 -2.00933 0
M  V30 30 H 1.92508 -1.70368 0.950189 0
M  V30 31 H 2.9103 -2.38502 -0.382512 0
M  V30 32 H 3.99935 -1.17954 2.03155 0
M  V30 33 H 5.70229 -0.885876 1.61419 0
M  V30 END ATOM
M  V30 BEGIN BOND
M  V30 1 1 1 2
M  V30 2 1 2 3
M  V30 3 1 3 4
M  V30 4 1 4 5
M  V30 5 1 5 6
M  V30 6 1 6 7
M  V30 7 1 7 8
M  V30 8 1 8 9
M  V30 9 1 9 10
M  V30 10 1 10 11
M  V30 11 2 10 12 CFG=2
M  V30 12 1 12 13
M  V30 13 1 13 14
M  V30 14 2 13 15
M  V30 15 2 2 16 CFG=2
M  V30 16 1 16 17
M  V30 17 1 17 18
M  V30 18 2 17 19
M  V30 19 1 1 20
M  V30 20 1 1 21
M  V30 21 1 4 22
M  V30 22 1 4 23
M  V30 23 1 5 24
M  V30 24 1 5 25
M  V30 25 1 6 26
M  V30 26 1 6 27
M  V30 27 1 7 28
M  V30 28 1 7 29
M  V30 29 1 8 30
M  V30 30 1 8 31
M  V30 31 1 11 32
M  V30 32 1 11 33
M  V30 END BOND
M  V30 END CTAB
M  END
