
     RDKit          3D

  0  0  0  0  0  0  0  0  0  0999 V3000
M  V30 BEGIN CTAB
M  V30 COUNTS 47 47 0 0 0
M  V30 BEGIN ATOM
M  V30 1 N -4.9558 -1.3802 -0.0371059 0
M  V30 2 C -3.92037 -1.00738 -0.959203 0
M  V30 3 C -2.94422 -0.0459359 -0.277666 0
M  V30 4 C -1.87665 0.319751 -1.26409 0
M  V30 5 N -0.855718 1.19678 -0.797352 0
M  V30 6 C 0.39351 0.775616 -0.339828 0
M  V30 7 O 1.12768 1.69713 0.162444 0
M  V30 8 C 0.84125 -0.599413 -0.434448 0
M  V30 9 C 1.81552 -1.10954 0.556975 0
M  V30 10 C 3.12662 -0.455857 0.653567 0
M  V30 11 C 3.45196 0.488165 1.62399 0
M  V30 12 C 4.7008 1.06504 1.66979 0
M  V30 13 C 5.69374 0.7424 0.763276 0
M  V30 14 C 5.39881 -0.179506 -0.195452 0
M  V30 15 C 4.16356 -0.750392 -0.241145 0
M  V30 16 N 1.25079 -1.41448 1.86612 0
M  V30 17 C 1.46133 -0.857983 -1.837 0
M  V30 18 C -1.16137 2.64112 -0.81566 0
M  V30 19 C -2.52397 -0.644455 1.00935 0
M  V30 20 C -3.82149 1.21277 -0.0236009 0
M  V30 21 H -5.81967 -0.833051 -0.0997412 0
M  V30 22 H -4.65988 -1.73506 0.869473 0
M  V30 23 H -4.4194 -0.517478 -1.83015 0
M  V30 24 H -3.38276 -1.9302 -1.25756 0
M  V30 25 H -2.36314 0.810261 -2.14809 0
M  V30 26 H -1.50462 -0.650558 -1.68096 0
M  V30 27 H -0.0341826 -1.28495 -0.447777 0
M  V30 28 H 2.07712 -2.16721 0.170423 0
M  V30 29 H 2.70271 0.763482 2.35876 0
M  V30 30 H 4.96479 1.80584 2.42634 0
M  V30 31 H 6.66754 1.22408 0.837213 0
M  V30 32 H 6.16607 -0.455293 -0.927617 0
M  V30 33 H 3.94824 -1.4887 -1.00879 0
M  V30 34 H 1.93551 -1.26997 2.63568 0
M  V30 35 H 0.765248 -2.33013 1.89213 0
M  V30 36 H 0.669095 -0.801973 -2.62237 0
M  V30 37 H 1.76552 -1.91947 -1.81779 0
M  V30 38 H 2.25356 -0.13176 -1.98336 0
M  V30 39 H -0.208028 3.2271 -0.854716 0
M  V30 40 H -1.6847 2.9729 0.0852218 0
M  V30 41 H -1.73565 2.93275 -1.69661 0
M  V30 42 H -2.41163 -1.7382 0.929131 0
M  V30 43 H -3.36388 -0.455854 1.74527 0
M  V30 44 H -1.61226 -0.200609 1.45952 0
M  V30 45 H -3.46688 1.62183 0.933723 0
M  V30 46 H -4.88103 0.949354 0.0788452 0
M  V30 47 H -3.73365 1.90921 -0.862436 0
M  V30 END ATOM
M  V30 BEGIN BOND
M  V30 1 1 1 2
M  V30 2 1 2 3
M  V30 3 1 3 4
M  V30 4 1 4 5
M  V30 5 1 5 6
M  V30 6 2 6 7
M  V30 7 1 6 8
M  V30 8 1 8 9
M  V30 9 1 9 10
M  V30 10 2 10 11
M  V30 11 1 11 12
M  V30 12 2 12 13
M  V30 13 1 13 14
M  V30 14 2 14 15
M  V30 15 1 9 16
M  V30 16 1 8 17
M  V30 17 1 5 18
M  V30 18 1 3 19
M  V30 19 1 3 20
M  V30 20 1 15 10
M  V30 21 1 1 21
M  V30 22 1 1 22
M  V30 23 1 2 23
M  V30 24 1 2 24
M  V30 25 1 4 25
M  V30 26 1 4 26
M  V30 27 1 8 27
M  V30 28 1 9 28
M  V30 29 1 11 29
M  V30 30 1 12 30
M  V30 31 1 13 31
M  V30 32 1 14 32
M  V30 33 1 15 33
M  V30 34 1 16 34
M  V30 35 1 16 35
M  V30 36 1 17 36
M  V30 37 1 17 37
M  V30 38 1 17 38
M  V30 39 1 18 39
M  V30 40 1 18 40
M  V30 41 1 18 41
M  V30 42 1 19 42
M  V30 43 1 19 43
M  V30 44 1 19 44
M  V30 45 1 20 45
M  V30 46 1 20 46
M  V30 47 1 20 47
M  V30 END BOND
M  V30 END CTAB
M  END
