
     RDKit          3D

  0  0  0  0  0  0  0  0  0  0999 V3000
M  V30 BEGIN CTAB
M  V30 COUNTS 45 47 0 0 0
M  V30 BEGIN ATOM
M  V30 1 C -3.28984 -0.993886 2.13801 0
M  V30 2 C -1.98971 -1.64846 2.22924 0
M  V30 3 C -1.07326 -1.59931 1.02395 0
M  V30 4 N -0.694764 -0.305783 0.58745 0
M  V30 5 C 0.480664 0.278927 1.05514 0
M  V30 6 N 0.609136 1.52204 0.577572 0
M  V30 7 N -0.426464 1.74448 -0.166003 0
M  V30 8 C -1.26702 0.612779 -0.182965 0
M  V30 9 C -2.52102 0.690619 -0.895053 0
M  V30 10 C -3.15523 -0.282203 -1.54902 0
M  V30 11 C -4.40242 -0.117303 -2.12077 0
M  V30 12 C -5.05462 1.09846 -2.03454 0
M  V30 13 C -4.40192 2.11356 -1.35965 0
M  V30 14 C -3.1797 1.92794 -0.806199 0
M  V30 15 S 1.66853 -0.483929 2.13984 0
M  V30 16 C 2.94109 -1.38295 1.22715 0
M  V30 17 C 3.81281 -0.487885 0.423289 0
M  V30 18 N 3.50322 -0.163964 -0.84491 0
M  V30 19 C 4.29857 0.653118 -1.58483 0
M  V30 20 N 3.99019 1.00685 -2.922 0
M  V30 21 N 5.43078 1.16653 -1.06313 0
M  V30 22 C 5.75344 0.853877 0.198149 0
M  V30 23 N 4.95775 0.0486523 0.908863 0
M  V30 24 N 6.95817 1.40986 0.72767 0
M  V30 25 C -1.35109 -2.68982 0.0736287 0
M  V30 26 H -3.95183 -1.29817 1.31922 0
M  V30 27 H -3.85878 -1.21701 3.07623 0
M  V30 28 H -3.2055 0.122385 2.12197 0
M  V30 29 H -1.47406 -1.29463 3.1476 0
M  V30 30 H -2.15841 -2.75218 2.41105 0
M  V30 31 H -0.098561 -2.01879 1.53473 0
M  V30 32 H -2.73881 -1.27224 -1.74168 0
M  V30 33 H -4.91098 -0.938266 -2.65683 0
M  V30 34 H -6.03584 1.27648 -2.46783 0
M  V30 35 H -4.89223 3.09895 -1.2712 0
M  V30 36 H -2.70142 2.77439 -0.274898 0
M  V30 37 H 2.50661 -2.17918 0.582832 0
M  V30 38 H 3.5577 -1.92537 1.98689 0
M  V30 39 H 3.47132 0.389032 -3.58154 0
M  V30 40 H 4.29242 1.94717 -3.29849 0
M  V30 41 H 6.96839 2.4078 1.02552 0
M  V30 42 H 7.84066 0.855365 0.831672 0
M  V30 43 H -0.914832 -3.6413 0.442558 0
M  V30 44 H -0.860339 -2.51663 -0.917046 0
M  V30 45 H -2.4328 -2.93027 -0.0516431 0
M  V30 END ATOM
M  V30 BEGIN BOND
M  V30 1 1 1 2
M  V30 2 1 2 3
M  V30 3 1 3 4
M  V30 4 1 4 5
M  V30 5 2 5 6
M  V30 6 1 6 7
M  V30 7 2 7 8
M  V30 8 1 8 9
M  V30 9 2 9 10
M  V30 10 1 10 11
M  V30 11 2 11 12
M  V30 12 1 12 13
M  V30 13 2 13 14
M  V30 14 1 5 15
M  V30 15 1 15 16
M  V30 16 1 16 17
M  V30 17 2 17 18
M  V30 18 1 18 19
M  V30 19 1 19 20
M  V30 20 2 19 21
M  V30 21 1 21 22
M  V30 22 2 22 23
M  V30 23 1 22 24
M  V30 24 1 3 25
M  V30 25 1 8 4
M  V30 26 1 14 9
M  V30 27 1 23 17
M  V30 28 1 1 26
M  V30 29 1 1 27
M  V30 30 1 1 28
M  V30 31 1 2 29
M  V30 32 1 2 30
M  V30 33 1 3 31
M  V30 34 1 10 32
M  V30 35 1 11 33
M  V30 36 1 12 34
M  V30 37 1 13 35
M  V30 38 1 14 36
M  V30 39 1 16 37
M  V30 40 1 16 38
M  V30 41 1 20 39
M  V30 42 1 20 40
M  V30 43 1 24 41
M  V30 44 1 24 42
M  V30 45 1 25 43
M  V30 46 1 25 44
M  V30 47 1 25 45
M  V30 END BOND
M  V30 END CTAB
M  END
