
     RDKit          3D

  0  0  0  0  0  0  0  0  0  0999 V3000
M  V30 BEGIN CTAB
M  V30 COUNTS 16 16 0 0 0
M  V30 BEGIN ATOM
M  V30 1 N -2.9716 0.342918 -0.883583 0
M  V30 2 C -1.75259 0.0233291 -0.159385 0
M  V30 3 C -0.546883 0.520289 -0.47576 0
M  V30 4 C 0.512671 0.131846 0.294299 0
M  V30 5 S -0.20311 -0.913828 1.43557 0
M  V30 6 C -1.81894 -0.829958 0.907102 0
M  V30 7 Cl -3.21725 -1.65117 1.58504 0
M  V30 8 S 2.21232 0.606852 0.134883 0
M  V30 9 O 2.3274 1.50027 -1.03568 0
M  V30 10 O 2.67675 1.3108 1.38444 0
M  V30 11 N 3.15859 -0.792165 -0.134087 0
M  V30 12 H -3.56729 1.10031 -0.54252 0
M  V30 13 H -3.1914 -0.214068 -1.72463 0
M  V30 14 H -0.375125 1.22555 -1.32668 0
M  V30 15 H 4.06769 -0.682697 0.387681 0
M  V30 16 H 2.68878 -1.67828 0.153303 0
M  V30 END ATOM
M  V30 BEGIN BOND
M  V30 1 1 1 2
M  V30 2 1 2 3
M  V30 3 2 3 4
M  V30 4 1 4 5
M  V30 5 1 5 6
M  V30 6 1 6 7
M  V30 7 1 4 8
M  V30 8 2 8 9
M  V30 9 2 8 10
M  V30 10 1 8 11
M  V30 11 2 6 2
M  V30 12 1 1 12
M  V30 13 1 1 13
M  V30 14 1 3 14
M  V30 15 1 11 15
M  V30 16 1 11 16
M  V30 END BOND
M  V30 END CTAB
M  END
