
     RDKit          3D

  0  0  0  0  0  0  0  0  0  0999 V3000
M  V30 BEGIN CTAB
M  V30 COUNTS 20 19 0 0 0
M  V30 BEGIN ATOM
M  V30 1 N -2.52349 0.0332129 1.08731 0
M  V30 2 C -1.62175 -0.91564 0.524905 0
M  V30 3 C -0.372668 -0.312819 -0.0598747 0
M  V30 4 N 0.406073 0.412194 0.904156 0
M  V30 5 S 1.95194 -0.261019 1.15912 0
M  V30 6 O 2.427 0.0477627 2.55245 0
M  V30 7 O 2.00232 -1.72988 0.970338 0
M  V30 8 N 3.11509 0.435083 0.0643261 0
M  V30 9 C -0.753531 0.489052 -1.26391 0
M  V30 10 H -2.67023 0.893656 0.567709 0
M  V30 11 H -2.56206 0.0747278 2.10508 0
M  V30 12 H -1.38135 -1.67714 1.29294 0
M  V30 13 H -2.14263 -1.44347 -0.302773 0
M  V30 14 H 0.264043 -1.15701 -0.400096 0
M  V30 15 H 0.396101 1.42281 0.806455 0
M  V30 16 H 3.115 1.4719 0.11617 0
M  V30 17 H 2.95464 0.0967256 -0.901477 0
M  V30 18 H -0.335403 1.51011 -1.13358 0
M  V30 19 H -0.409713 0.0254063 -2.21809 0
M  V30 20 H -1.85937 0.584329 -1.36324 0
M  V30 END ATOM
M  V30 BEGIN BOND
M  V30 1 1 1 2
M  V30 2 1 2 3
M  V30 3 1 3 4
M  V30 4 1 4 5
M  V30 5 2 5 6
M  V30 6 2 5 7
M  V30 7 1 5 8
M  V30 8 1 3 9
M  V30 9 1 1 10
M  V30 10 1 1 11
M  V30 11 1 2 12
M  V30 12 1 2 13
M  V30 13 1 3 14
M  V30 14 1 4 15
M  V30 15 1 8 16
M  V30 16 1 8 17
M  V30 17 1 9 18
M  V30 18 1 9 19
M  V30 19 1 9 20
M  V30 END BOND
M  V30 END CTAB
M  END
