
     RDKit          3D

  0  0  0  0  0  0  0  0  0  0999 V3000
M  V30 BEGIN CTAB
M  V30 COUNTS 27 27 0 0 0
M  V30 BEGIN ATOM
M  V30 1 C -3.20643 0.133379 -0.912294 0
M  V30 2 C -2.01045 -0.521324 -0.205166 0
M  V30 3 N -0.83754 0.194568 -0.579762 0
M  V30 4 C 0.466568 -0.187623 -0.112047 0
M  V30 5 N 0.653449 -1.23362 0.691177 0
M  V30 6 C 1.87553 -1.58525 1.12095 0
M  V30 7 C 3.00873 -0.88666 0.757881 0
M  V30 8 C 2.86694 0.204673 -0.0728068 0
M  V30 9 C 1.58637 0.527994 -0.489611 0
M  V30 10 N 1.43569 1.64957 -1.34398 0
M  V30 11 N 3.96978 0.989528 -0.504127 0
M  V30 12 C -2.34522 -0.451248 1.27022 0
M  V30 13 O -3.52499 -1.21393 1.42974 0
M  V30 14 H -3.31329 1.14277 -0.452949 0
M  V30 15 H -4.14259 -0.429306 -0.705271 0
M  V30 16 H -2.96582 0.173945 -1.98899 0
M  V30 17 H -1.90563 -1.57966 -0.500319 0
M  V30 18 H -0.895674 1.03262 -1.21665 0
M  V30 19 H 1.94436 -2.44596 1.77018 0
M  V30 20 H 3.99868 -1.15234 1.09176 0
M  V30 21 H 1.55279 2.63693 -1.04433 0
M  V30 22 H 1.19131 1.47492 -2.33887 0
M  V30 23 H 4.17409 1.91464 -0.0656405 0
M  V30 24 H 4.61179 0.679613 -1.26505 0
M  V30 25 H -2.63128 0.595896 1.49671 0
M  V30 26 H -1.55603 -0.78815 1.93732 0
M  V30 27 H -4.00114 -0.875968 2.23192 0
M  V30 END ATOM
M  V30 BEGIN BOND
M  V30 1 1 1 2
M  V30 2 1 2 3
M  V30 3 1 3 4
M  V30 4 2 4 5
M  V30 5 1 5 6
M  V30 6 2 6 7
M  V30 7 1 7 8
M  V30 8 2 8 9
M  V30 9 1 9 10
M  V30 10 1 8 11
M  V30 11 1 2 12
M  V30 12 1 12 13
M  V30 13 1 9 4
M  V30 14 1 1 14
M  V30 15 1 1 15
M  V30 16 1 1 16
M  V30 17 1 2 17
M  V30 18 1 3 18
M  V30 19 1 6 19
M  V30 20 1 7 20
M  V30 21 1 10 21
M  V30 22 1 10 22
M  V30 23 1 11 23
M  V30 24 1 11 24
M  V30 25 1 12 25
M  V30 26 1 12 26
M  V30 27 1 13 27
M  V30 END BOND
M  V30 END CTAB
M  END
