
     RDKit          3D

  0  0  0  0  0  0  0  0  0  0999 V3000
M  V30 BEGIN CTAB
M  V30 COUNTS 33 35 0 0 0
M  V30 BEGIN ATOM
M  V30 1 C -1.88053 -2.63747 0.35808 0
M  V30 2 C -2.42945 -1.25939 0.296455 0
M  V30 3 C -3.71582 -0.878121 0.587557 0
M  V30 4 C -3.8285 0.49477 0.40824 0
M  V30 5 C -5.04931 1.34099 0.610441 0
M  V30 6 N -2.60373 0.892964 0.0146843 0
M  V30 7 N -1.7751 -0.13652 -0.0529726 0
M  V30 8 C -0.402668 -0.00465085 -0.445893 0
M  V30 9 C 0.595343 0.289083 0.460935 0
M  V30 10 C 1.90365 0.408032 0.045609 0
M  V30 11 C 2.86941 0.699516 0.966763 0
M  V30 12 N 2.48766 0.86919 2.31993 0
M  V30 13 N 4.13795 0.810752 0.539343 0
M  V30 14 C 4.46566 0.641418 -0.765016 0
M  V30 15 N 5.83285 0.769068 -1.17886 0
M  V30 16 N 3.49934 0.355047 -1.65487 0
M  V30 17 C 2.22031 0.229204 -1.30642 0
M  V30 18 C 1.2342 -0.0652152 -2.22768 0
M  V30 19 C -0.0524265 -0.173679 -1.76791 0
M  V30 20 H -1.93019 -3.16003 -0.623179 0
M  V30 21 H -0.842175 -2.65664 0.767647 0
M  V30 22 H -2.48933 -3.2675 1.0584 0
M  V30 23 H -4.53422 -1.50625 0.905898 0
M  V30 24 H -5.67385 0.874894 1.39886 0
M  V30 25 H -5.66264 1.3911 -0.308175 0
M  V30 26 H -4.75113 2.35261 0.979432 0
M  V30 27 H 0.347203 0.427093 1.50765 0
M  V30 28 H 2.64219 0.134167 3.04987 0
M  V30 29 H 2.03151 1.75849 2.62036 0
M  V30 30 H 6.16634 0.197889 -1.97277 0
M  V30 31 H 6.51066 1.40784 -0.721912 0
M  V30 32 H 1.53122 -0.193712 -3.25933 0
M  V30 33 H -0.854451 -0.404952 -2.46782 0
M  V30 END ATOM
M  V30 BEGIN BOND
M  V30 1 1 1 2
M  V30 2 2 2 3
M  V30 3 1 3 4
M  V30 4 1 4 5
M  V30 5 2 4 6
M  V30 6 1 6 7
M  V30 7 1 7 8
M  V30 8 2 8 9
M  V30 9 1 9 10
M  V30 10 2 10 11
M  V30 11 1 11 12
M  V30 12 1 11 13
M  V30 13 2 13 14
M  V30 14 1 14 15
M  V30 15 1 14 16
M  V30 16 2 16 17
M  V30 17 1 17 18
M  V30 18 2 18 19
M  V30 19 1 7 2
M  V30 20 1 19 8
M  V30 21 1 17 10
M  V30 22 1 1 20
M  V30 23 1 1 21
M  V30 24 1 1 22
M  V30 25 1 3 23
M  V30 26 1 5 24
M  V30 27 1 5 25
M  V30 28 1 5 26
M  V30 29 1 9 27
M  V30 30 1 12 28
M  V30 31 1 12 29
M  V30 32 1 15 30
M  V30 33 1 15 31
M  V30 34 1 18 32
M  V30 35 1 19 33
M  V30 END BOND
M  V30 END CTAB
M  END
