
     RDKit          3D

  0  0  0  0  0  0  0  0  0  0999 V3000
M  V30 BEGIN CTAB
M  V30 COUNTS 31 32 0 0 0
M  V30 BEGIN ATOM
M  V30 1 N 0.737769 -2.34692 -0.304551 0
M  V30 2 C 0.57101 -1.08943 0.583943 0
M  V30 3 C 1.3241 -0.0590581 -0.104676 0
M  V30 4 C 1.15762 0.283494 -1.42882 0
M  V30 5 N 1.91242 1.17442 -2.08222 0
M  V30 6 C 2.91656 1.81561 -1.47115 0
M  V30 7 C 3.12986 1.50499 -0.151045 0
M  V30 8 C 2.3822 0.596532 0.548709 0
M  V30 9 N 2.6405 0.320649 1.91757 0
M  V30 10 C -0.874808 -0.951984 0.753377 0
M  V30 11 C -1.90264 -0.678824 -0.226358 0
M  V30 12 C -2.07182 0.635186 -0.910481 0
M  V30 13 C -3.15079 0.93186 0.18128 0
M  V30 14 C -3.28638 -0.559054 0.331208 0
M  V30 15 H 0.45465 -2.13168 -1.24908 0
M  V30 16 H 1.71232 -2.60248 -0.217047 0
M  V30 17 H 1.05052 -1.44377 1.4946 0
M  V30 18 H 0.411947 -0.211265 -2.08063 0
M  V30 19 H 3.52342 2.55035 -1.97442 0
M  V30 20 H 3.95502 2.04687 0.350437 0
M  V30 21 H 1.94868 -0.0697932 2.57326 0
M  V30 22 H 3.58322 0.49491 2.33133 0
M  V30 23 H -1.23222 -1.68577 1.55865 0
M  V30 24 H -0.891551 0.0499851 1.45361 0
M  V30 25 H -1.97799 -1.51992 -1.04064 0
M  V30 26 H -2.60777 0.538012 -1.87245 0
M  V30 27 H -1.33429 1.42185 -0.830696 0
M  V30 28 H -2.61742 1.32751 1.08368 0
M  V30 29 H -4.0088 1.4863 -0.191073 0
M  V30 30 H -4.06114 -0.912062 -0.385223 0
M  V30 31 H -3.39421 -0.91652 1.35888 0
M  V30 END ATOM
M  V30 BEGIN BOND
M  V30 1 1 1 2
M  V30 2 1 2 3
M  V30 3 2 3 4
M  V30 4 1 4 5
M  V30 5 2 5 6
M  V30 6 1 6 7
M  V30 7 2 7 8
M  V30 8 1 8 9
M  V30 9 1 2 10
M  V30 10 1 10 11
M  V30 11 1 11 12
M  V30 12 1 12 13
M  V30 13 1 13 14
M  V30 14 1 8 3
M  V30 15 1 14 11
M  V30 16 1 1 15
M  V30 17 1 1 16
M  V30 18 1 2 17
M  V30 19 1 4 18
M  V30 20 1 6 19
M  V30 21 1 7 20
M  V30 22 1 9 21
M  V30 23 1 9 22
M  V30 24 1 10 23
M  V30 25 1 10 24
M  V30 26 1 11 25
M  V30 27 1 12 26
M  V30 28 1 12 27
M  V30 29 1 13 28
M  V30 30 1 13 29
M  V30 31 1 14 30
M  V30 32 1 14 31
M  V30 END BOND
M  V30 END CTAB
M  END
