
     RDKit          3D

  0  0  0  0  0  0  0  0  0  0999 V3000
M  V30 BEGIN CTAB
M  V30 COUNTS 26 28 0 0 0
M  V30 BEGIN ATOM
M  V30 1 N -1.85601 -2.16749 0.349248 0
M  V30 2 C -0.919609 -1.11335 0.179929 0
M  V30 3 C 0.422889 -1.41996 0.256939 0
M  V30 4 N 0.903801 -2.738 0.497039 0
M  V30 5 C 1.34158 -0.392256 0.091965 0
M  V30 6 C 0.865272 0.882275 -0.140405 0
M  V30 7 N 1.76413 1.85465 -0.295995 0
M  V30 8 C 3.09106 1.64284 -0.235935 0
M  V30 9 C 3.58607 0.377009 -0.00477719 0
M  V30 10 C 2.70329 -0.665793 0.163479 0
M  V30 11 C -0.47844 1.18803 -0.217285 0
M  V30 12 C -1.39062 0.161936 -0.0524825 0
M  V30 13 C -2.72953 0.466625 -0.129087 0
M  V30 14 C -3.15826 1.75933 -0.363833 0
M  V30 15 C -2.22407 2.76164 -0.524073 0
M  V30 16 N -0.916793 2.45364 -0.447431 0
M  V30 17 H -1.97017 -2.94475 -0.341963 0
M  V30 18 H -2.48352 -2.19569 1.20688 0
M  V30 19 H 1.39832 -3.23232 -0.277923 0
M  V30 20 H 0.781387 -3.22893 1.4167 0
M  V30 21 H 3.76341 2.48265 -0.372103 0
M  V30 22 H 4.66171 0.27109 0.0323333 0
M  V30 23 H 3.06947 -1.65405 0.343599 0
M  V30 24 H -3.43814 -0.335846 -0.000121673 0
M  V30 25 H -4.21329 2.00574 -0.425317 0
M  V30 26 H -2.57393 3.78099 -0.709386 0
M  V30 END ATOM
M  V30 BEGIN BOND
M  V30 1 1 1 2
M  V30 2 2 2 3
M  V30 3 1 3 4
M  V30 4 1 3 5
M  V30 5 2 5 6
M  V30 6 1 6 7
M  V30 7 2 7 8
M  V30 8 1 8 9
M  V30 9 2 9 10
M  V30 10 1 6 11
M  V30 11 2 11 12
M  V30 12 1 12 13
M  V30 13 2 13 14
M  V30 14 1 14 15
M  V30 15 2 15 16
M  V30 16 1 12 2
M  V30 17 1 10 5
M  V30 18 1 16 11
M  V30 19 1 1 17
M  V30 20 1 1 18
M  V30 21 1 4 19
M  V30 22 1 4 20
M  V30 23 1 8 21
M  V30 24 1 9 22
M  V30 25 1 10 23
M  V30 26 1 13 24
M  V30 27 1 14 25
M  V30 28 1 15 26
M  V30 END BOND
M  V30 END CTAB
M  END
