
     RDKit          3D

  0  0  0  0  0  0  0  0  0  0999 V3000
M  V30 BEGIN CTAB
M  V30 COUNTS 30 31 0 0 0
M  V30 BEGIN ATOM
M  V30 1 N 3.46613 -1.20017 -1.22643 0
M  V30 2 S 1.87257 -0.59337 -1.437 0
M  V30 3 O 0.935556 -1.68278 -1.81214 0
M  V30 4 O 1.93688 0.400932 -2.58831 0
M  V30 5 C 1.42878 0.303784 -0.00157299 0 CFG=2
M  V30 6 C 1.40943 -0.48953 1.26669 0
M  V30 7 N 0.323107 -1.40459 1.32654 0
M  V30 8 C -0.886425 -1.17944 0.627158 0
M  V30 9 C -1.00333 0.00392231 -0.0994878 0
M  V30 10 N 0.100029 0.919632 -0.0955817 0
M  V30 11 S -0.175673 2.59524 -0.2019 0
M  V30 12 O 0.557617 3.24978 -1.33283 0
M  V30 13 O -1.61254 3.00008 -0.134698 0
M  V30 14 N 0.504977 3.26745 1.28832 0
M  V30 15 C -2.15419 0.253735 -0.794663 0
M  V30 16 C -3.21895 -0.645647 -0.794556 0
M  V30 17 C -3.11003 -1.80677 -0.082571 0
M  V30 18 C -1.95327 -2.06851 0.620537 0
M  V30 19 H 3.64193 -1.36525 -0.218476 0
M  V30 20 H 3.6404 -2.04231 -1.76922 0
M  V30 21 H 2.14765 1.14079 0.129088 0
M  V30 22 H 1.23236 0.265882 2.09023 0
M  V30 23 H 2.39189 -0.942073 1.51251 0
M  V30 24 H 0.347005 -2.2984 1.888 0
M  V30 25 H -0.0129189 2.74712 2.04456 0
M  V30 26 H 0.211993 4.26569 1.38463 0
M  V30 27 H -2.205 1.16696 -1.35842 0
M  V30 28 H -4.09139 -0.367642 -1.37112 0
M  V30 29 H -3.9181 -2.52213 -0.0633489 0
M  V30 30 H -1.80647 -2.97239 1.20408 0
M  V30 END ATOM
M  V30 BEGIN BOND
M  V30 1 1 1 2
M  V30 2 2 2 3
M  V30 3 2 2 4
M  V30 4 1 2 5
M  V30 5 1 5 6
M  V30 6 1 6 7
M  V30 7 1 7 8
M  V30 8 2 8 9
M  V30 9 1 9 10
M  V30 10 1 10 11
M  V30 11 2 11 12
M  V30 12 2 11 13
M  V30 13 1 11 14
M  V30 14 1 9 15
M  V30 15 2 15 16
M  V30 16 1 16 17
M  V30 17 2 17 18
M  V30 18 1 10 5
M  V30 19 1 18 8
M  V30 20 1 1 19
M  V30 21 1 1 20
M  V30 22 1 5 21 CFG=1
M  V30 23 1 6 22
M  V30 24 1 6 23
M  V30 25 1 7 24
M  V30 26 1 14 25
M  V30 27 1 14 26
M  V30 28 1 15 27
M  V30 29 1 16 28
M  V30 30 1 17 29
M  V30 31 1 18 30
M  V30 END BOND
M  V30 END CTAB
M  END
