
     RDKit          3D

  0  0  0  0  0  0  0  0  0  0999 V3000
M  V30 BEGIN CTAB
M  V30 COUNTS 35 36 0 0 0
M  V30 BEGIN ATOM
M  V30 1 N 4.87656 0.635526 1.76666 0
M  V30 2 C 4.02826 0.268684 0.698236 0
M  V30 3 C 4.56508 -0.26957 -0.455337 0
M  V30 4 C 3.74083 -0.621407 -1.48253 0
M  V30 5 C 2.36338 -0.439908 -1.37166 0
M  V30 6 C 1.80084 0.0952522 -0.231416 0
M  V30 7 C 2.65572 0.442216 0.791342 0
M  V30 8 C 0.336902 0.255014 -0.192764 0 CFG=1
M  V30 9 O -0.229347 -0.912797 -0.682436 0
M  V30 10 C -1.37046 -0.730012 -1.41276 0
M  V30 11 C -2.26767 0.359354 -0.952723 0
M  V30 12 N -2.51036 0.435501 0.435097 0
M  V30 13 C -1.57488 -0.209174 1.28605 0
M  V30 14 C -0.206575 0.479337 1.19211 0
M  V30 15 S -4.12293 0.380787 0.925888 0
M  V30 16 O -4.90463 1.5374 0.353318 0
M  V30 17 O -4.17496 0.523271 2.43048 0
M  V30 18 N -4.93867 -1.07419 0.505357 0
M  V30 19 H 5.29218 -0.0999769 2.35414 0
M  V30 20 H 5.0734 1.63255 1.95077 0
M  V30 21 H 5.64676 -0.389123 -0.487802 0
M  V30 22 H 4.17822 -1.04157 -2.37866 0
M  V30 23 H 1.74266 -0.736024 -2.2192 0
M  V30 24 H 2.25055 0.855999 1.67978 0
M  V30 25 H 0.0650391 1.09065 -0.880033 0
M  V30 26 H -1.92853 -1.69705 -1.44697 0
M  V30 27 H -1.1145 -0.519094 -2.49274 0
M  V30 28 H -1.91039 1.37093 -1.30211 0
M  V30 29 H -3.25176 0.229804 -1.49206 0
M  V30 30 H -1.47208 -1.30406 1.11858 0
M  V30 31 H -1.90631 -0.0656839 2.33917 0
M  V30 32 H 0.400361 0.0566541 1.99257 0
M  V30 33 H -0.412524 1.56183 1.3058 0
M  V30 34 H -4.7428 -1.25901 -0.521938 0
M  V30 35 H -5.97736 -0.84213 0.519828 0
M  V30 END ATOM
M  V30 BEGIN BOND
M  V30 1 1 1 2
M  V30 2 2 2 3
M  V30 3 1 3 4
M  V30 4 2 4 5
M  V30 5 1 5 6
M  V30 6 2 6 7
M  V30 7 1 6 8
M  V30 8 1 8 9
M  V30 9 1 9 10
M  V30 10 1 10 11
M  V30 11 1 11 12
M  V30 12 1 12 13
M  V30 13 1 13 14
M  V30 14 1 12 15
M  V30 15 2 15 16
M  V30 16 2 15 17
M  V30 17 1 15 18
M  V30 18 1 7 2
M  V30 19 1 14 8
M  V30 20 1 1 19
M  V30 21 1 1 20
M  V30 22 1 3 21
M  V30 23 1 4 22
M  V30 24 1 5 23
M  V30 25 1 7 24
M  V30 26 1 8 25 CFG=3
M  V30 27 1 10 26
M  V30 28 1 10 27
M  V30 29 1 11 28
M  V30 30 1 11 29
M  V30 31 1 13 30
M  V30 32 1 13 31
M  V30 33 1 14 32
M  V30 34 1 14 33
M  V30 35 1 18 34
M  V30 36 1 18 35
M  V30 END BOND
M  V30 END CTAB
M  END
