
     RDKit          3D

  0  0  0  0  0  0  0  0  0  0999 V3000
M  V30 BEGIN CTAB
M  V30 COUNTS 27 27 0 0 0
M  V30 BEGIN ATOM
M  V30 1 O 4.9844 -0.301756 -0.763531 0
M  V30 2 C 3.61067 -0.538747 -0.820808 0
M  V30 3 O 3.05411 -0.653318 -1.94711 0
M  V30 4 C 2.8649 -0.6455 0.45759 0
M  V30 5 C 2.1867 0.64612 0.843063 0
M  V30 6 C 1.22708 1.04221 -0.191405 0
M  V30 7 O 1.65939 1.73014 -1.15537 0
M  V30 8 C -0.179867 0.703191 -0.190029 0
M  V30 9 C -1.01622 1.11822 -1.20083 0
M  V30 10 C -2.35907 0.811674 -1.22852 0
M  V30 11 C -2.91113 0.0583704 -0.21192 0
M  V30 12 C -2.10529 -0.385276 0.833478 0
M  V30 13 C -0.766348 -0.0525443 0.817231 0
M  V30 14 N -2.71324 -1.15207 1.8485 0
M  V30 15 N -4.29582 -0.242317 -0.26734 0
M  V30 16 H 5.57896 -0.636877 -0.0143207 0
M  V30 17 H 3.53133 -1.01821 1.28083 0
M  V30 18 H 2.09918 -1.45037 0.339789 0
M  V30 19 H 3.02112 1.40917 0.890885 0
M  V30 20 H 1.76096 0.593382 1.84942 0
M  V30 21 H -0.592688 1.70801 -1.99919 0
M  V30 22 H -2.94412 1.18339 -2.06877 0
M  V30 23 H -0.136621 -0.385926 1.61227 0
M  V30 24 H -2.56466 -0.913968 2.83882 0
M  V30 25 H -3.30726 -1.95184 1.58591 0
M  V30 26 H -4.96856 0.295944 0.336853 0
M  V30 27 H -4.71792 -0.971105 -0.871778 0
M  V30 END ATOM
M  V30 BEGIN BOND
M  V30 1 1 1 2
M  V30 2 2 2 3
M  V30 3 1 2 4
M  V30 4 1 4 5
M  V30 5 1 5 6
M  V30 6 2 6 7
M  V30 7 1 6 8
M  V30 8 2 8 9
M  V30 9 1 9 10
M  V30 10 2 10 11
M  V30 11 1 11 12
M  V30 12 2 12 13
M  V30 13 1 12 14
M  V30 14 1 11 15
M  V30 15 1 13 8
M  V30 16 1 1 16
M  V30 17 1 4 17
M  V30 18 1 4 18
M  V30 19 1 5 19
M  V30 20 1 5 20
M  V30 21 1 9 21
M  V30 22 1 10 22
M  V30 23 1 13 23
M  V30 24 1 14 24
M  V30 25 1 14 25
M  V30 26 1 15 26
M  V30 27 1 15 27
M  V30 END BOND
M  V30 END CTAB
M  END
