
     RDKit          3D

  0  0  0  0  0  0  0  0  0  0999 V3000
M  V30 BEGIN CTAB
M  V30 COUNTS 45 46 0 0 0
M  V30 BEGIN ATOM
M  V30 1 C 7.2841 1.14334 -1.08489 0
M  V30 2 C 5.93592 1.75703 -1.35252 0
M  V30 3 O 4.87171 0.974744 -0.859567 0
M  V30 4 C 4.76392 0.672813 0.486681 0
M  V30 5 O 5.65952 1.13207 1.23015 0
M  V30 6 C 3.64854 -0.151704 1.03059 0
M  V30 7 C 3.60145 -0.414084 2.37666 0
M  V30 8 N 4.51755 0.0102659 3.40062 0
M  V30 9 S 2.18546 -1.36829 2.52852 0
M  V30 10 C 1.70605 -1.4031 0.903858 0
M  V30 11 C 2.66483 -0.666389 0.274302 0
M  V30 12 C 2.58054 -0.462902 -1.22677 0
M  V30 13 S 0.27816 -2.22028 0.215868 0
M  V30 14 C -1.11765 -1.0709 0.245853 0
M  V30 15 S -1.17023 0.5375 0.812847 0
M  V30 16 C -2.80062 0.883892 0.486544 0
M  V30 17 C -3.26863 -0.282357 -0.0647794 0
M  V30 18 C -2.39612 -1.28971 -0.187345 0
M  V30 19 C -2.75939 -2.64105 -0.776472 0
M  V30 20 C -4.69566 -0.355949 -0.487202 0
M  V30 21 O -5.16878 -1.39079 -0.992617 0
M  V30 22 O -5.56365 0.70915 -0.342936 0
M  V30 23 C -6.90425 0.679701 -0.726088 0
M  V30 24 C -7.72912 -0.363434 -0.0366097 0
M  V30 25 N -3.49908 2.11626 0.73875 0
M  V30 26 H 7.67497 1.54675 -0.139091 0
M  V30 27 H 8.00506 1.39084 -1.90559 0
M  V30 28 H 7.19627 0.0442446 -1.05075 0
M  V30 29 H 5.90791 2.77458 -0.879595 0
M  V30 30 H 5.81096 1.86841 -2.44618 0
M  V30 31 H 4.21718 0.556584 4.22562 0
M  V30 32 H 5.51392 -0.247996 3.29538 0
M  V30 33 H 3.48879 -0.882487 -1.67642 0
M  V30 34 H 2.49855 0.651731 -1.39349 0
M  V30 35 H 1.6928 -0.925044 -1.65127 0
M  V30 36 H -3.15892 -2.52319 -1.80956 0
M  V30 37 H -3.58255 -3.05302 -0.145833 0
M  V30 38 H -1.91322 -3.31905 -0.809117 0
M  V30 39 H -7.34338 1.68047 -0.448088 0
M  V30 40 H -7.05383 0.587218 -1.82208 0
M  V30 41 H -8.80746 -0.123753 -0.272361 0
M  V30 42 H -7.56689 -1.37968 -0.423774 0
M  V30 43 H -7.65557 -0.294988 1.06331 0
M  V30 44 H -3.2078 3.01635 0.342643 0
M  V30 45 H -4.34137 2.09621 1.35279 0
M  V30 END ATOM
M  V30 BEGIN BOND
M  V30 1 1 1 2
M  V30 2 1 2 3
M  V30 3 1 3 4
M  V30 4 2 4 5
M  V30 5 1 4 6
M  V30 6 2 6 7
M  V30 7 1 7 8
M  V30 8 1 7 9
M  V30 9 1 9 10
M  V30 10 2 10 11
M  V30 11 1 11 12
M  V30 12 1 10 13
M  V30 13 1 13 14
M  V30 14 1 14 15
M  V30 15 1 15 16
M  V30 16 2 16 17
M  V30 17 1 17 18
M  V30 18 1 18 19
M  V30 19 1 17 20
M  V30 20 2 20 21
M  V30 21 1 20 22
M  V30 22 1 22 23
M  V30 23 1 23 24
M  V30 24 1 16 25
M  V30 25 1 11 6
M  V30 26 2 18 14
M  V30 27 1 1 26
M  V30 28 1 1 27
M  V30 29 1 1 28
M  V30 30 1 2 29
M  V30 31 1 2 30
M  V30 32 1 8 31
M  V30 33 1 8 32
M  V30 34 1 12 33
M  V30 35 1 12 34
M  V30 36 1 12 35
M  V30 37 1 19 36
M  V30 38 1 19 37
M  V30 39 1 19 38
M  V30 40 1 23 39
M  V30 41 1 23 40
M  V30 42 1 24 41
M  V30 43 1 24 42
M  V30 44 1 24 43
M  V30 45 1 25 44
M  V30 46 1 25 45
M  V30 END BOND
M  V30 END CTAB
M  END
