
     RDKit          3D

  0  0  0  0  0  0  0  0  0  0999 V3000
M  V30 BEGIN CTAB
M  V30 COUNTS 35 35 0 0 0
M  V30 BEGIN ATOM
M  V30 1 N -0.127066 -2.59693 -0.485862 0
M  V30 2 C 0.273261 -1.35413 -1.09855 0
M  V30 3 C -0.00495792 -0.155106 -0.198838 0
M  V30 4 C 0.778174 -0.363127 1.06923 0
M  V30 5 C 2.20659 -0.744799 0.75144 0
M  V30 6 C 2.83318 0.366908 -0.0277634 0
M  V30 7 C 1.86568 1.50397 -0.272688 0
M  V30 8 C 0.586943 1.04682 -0.900658 0
M  V30 9 C -1.47409 -0.0627259 -0.0129973 0
M  V30 10 C -1.95786 1.05939 0.844789 0
M  V30 11 N -1.61663 0.980711 2.22605 0
M  V30 12 O -1.99329 -1.25911 0.440038 0
M  V30 13 C -2.08345 0.179099 -1.40506 0
M  V30 14 H 0.649929 -3.2882 -0.391533 0
M  V30 15 H -0.974026 -3.02213 -0.941868 0
M  V30 16 H 1.31097 -1.36079 -1.47928 0
M  V30 17 H -0.367645 -1.24256 -2.02246 0
M  V30 18 H 0.871773 0.592564 1.66442 0
M  V30 19 H 0.308149 -1.0903 1.76286 0
M  V30 20 H 2.71947 -0.82942 1.75374 0
M  V30 21 H 2.32348 -1.70291 0.255486 0
M  V30 22 H 3.70294 0.772902 0.524662 0
M  V30 23 H 3.24608 -0.033477 -0.981731 0
M  V30 24 H 1.74916 2.11319 0.626362 0
M  V30 25 H 2.37319 2.17092 -1.03047 0
M  V30 26 H 0.790487 0.83652 -1.97086 0
M  V30 27 H -0.111402 1.91893 -0.896929 0
M  V30 28 H -3.08369 1.04309 0.782303 0
M  V30 29 H -1.6756 2.04827 0.405937 0
M  V30 30 H -1.03491 1.83056 2.47278 0
M  V30 31 H -2.42316 0.941842 2.8728 0
M  V30 32 H -2.88299 -1.09395 0.881408 0
M  V30 33 H -1.38069 0.777045 -2.01808 0
M  V30 34 H -3.01729 0.7869 -1.31873 0
M  V30 35 H -2.38071 -0.769975 -1.87993 0
M  V30 END ATOM
M  V30 BEGIN BOND
M  V30 1 1 1 2
M  V30 2 1 2 3
M  V30 3 1 3 4
M  V30 4 1 4 5
M  V30 5 1 5 6
M  V30 6 1 6 7
M  V30 7 1 7 8
M  V30 8 1 3 9
M  V30 9 1 9 10
M  V30 10 1 10 11
M  V30 11 1 9 12
M  V30 12 1 9 13
M  V30 13 1 8 3
M  V30 14 1 1 14
M  V30 15 1 1 15
M  V30 16 1 2 16
M  V30 17 1 2 17
M  V30 18 1 4 18
M  V30 19 1 4 19
M  V30 20 1 5 20
M  V30 21 1 5 21
M  V30 22 1 6 22
M  V30 23 1 6 23
M  V30 24 1 7 24
M  V30 25 1 7 25
M  V30 26 1 8 26
M  V30 27 1 8 27
M  V30 28 1 10 28
M  V30 29 1 10 29
M  V30 30 1 11 30
M  V30 31 1 11 31
M  V30 32 1 12 32
M  V30 33 1 13 33
M  V30 34 1 13 34
M  V30 35 1 13 35
M  V30 END BOND
M  V30 END CTAB
M  END
