
     RDKit          3D

  0  0  0  0  0  0  0  0  0  0999 V3000
M  V30 BEGIN CTAB
M  V30 COUNTS 68 72 0 0 0
M  V30 BEGIN ATOM
M  V30 1 N -7.04335 3.32537 0.897062 0
M  V30 2 C -5.8748 3.27022 0.870663 0
M  V30 3 C -4.42228 3.22915 0.842953 0
M  V30 4 C -3.7415 4.39191 1.16755 0
M  V30 5 N -4.44139 5.56175 1.5093 0
M  V30 6 N -2.40373 4.30435 1.1276 0
M  V30 7 C -1.77754 3.13951 0.787903 0
M  V30 8 C -2.41322 1.97668 0.462707 0
M  V30 9 C -3.81974 2.04949 0.499303 0
M  V30 10 C -4.68541 0.92528 0.186113 0
M  V30 11 C -5.26487 0.704542 -1.05597 0
M  V30 12 C -6.09335 -0.370965 -1.28663 0
M  V30 13 O -6.65475 -0.565898 -2.5269 0
M  V30 14 C -6.50443 0.209999 -3.66652 0
M  V30 15 C -6.37596 -1.26991 -0.283869 0
M  V30 16 C -5.80703 -1.06889 0.967069 0
M  V30 17 C -4.97488 0.0209632 1.17993 0
M  V30 18 O -6.09342 -1.97589 1.97446 0
M  V30 19 C -5.5727 -1.87325 3.2834 0
M  V30 20 O -7.21335 -2.3774 -0.475467 0
M  V30 21 C -8.61154 -2.21569 -0.226963 0
M  V30 22 C -1.6518 0.915736 0.150847 0
M  V30 23 N -2.1378 -0.403019 -0.227339 0
M  V30 24 C -0.297659 1.09366 0.186879 0
M  V30 25 S -0.119719 2.71614 0.64845 0
M  V30 26 C 0.801429 0.131777 -0.0925929 0
M  V30 27 O 0.481928 -1.0218 -0.405185 0
M  V30 28 N 2.12255 0.620011 0.0236728 0
M  V30 29 C 3.32877 -0.0677068 -0.181983 0
M  V30 30 C 4.55603 0.551058 0.101325 0
M  V30 31 C 5.75557 -0.0727785 -0.0860489 0
M  V30 32 C 5.7761 -1.35521 -0.569809 0
M  V30 33 C 4.58198 -1.97204 -0.851171 0
M  V30 34 C 3.34185 -1.3481 -0.665677 0
M  V30 35 C 7.02159 -2.06422 -0.787534 0
M  V30 36 O 6.98991 -3.24232 -1.22684 0
M  V30 37 C 8.32481 -1.47566 -0.520711 0
M  V30 38 C 9.44222 -2.15103 -0.729267 0
M  V30 39 C 10.749 -1.51962 -0.446996 0
M  V30 40 C 12.0013 -2.04688 -0.591503 0
M  V30 41 C 13.0366 -1.26607 -0.266347 0
M  V30 42 C 12.7614 -0.00460185 0.183914 0
M  V30 43 S 11.0568 0.0509154 0.138779 0
M  V30 44 H -4.53991 6.34154 0.831511 0
M  V30 45 H -4.8671 5.65605 2.44511 0
M  V30 46 H -5.01217 1.44002 -1.81001 0
M  V30 47 H -5.5196 0.716062 -3.63806 0
M  V30 48 H -7.27846 1.00946 -3.76369 0
M  V30 49 H -6.47171 -0.422501 -4.60284 0
M  V30 50 H -4.56183 0.121007 2.18131 0
M  V30 51 H -5.68935 -0.809018 3.5998 0
M  V30 52 H -4.51307 -2.14958 3.31178 0
M  V30 53 H -6.19119 -2.53798 3.93978 0
M  V30 54 H -8.83208 -2.33206 0.873913 0
M  V30 55 H -9.2149 -2.92404 -0.830924 0
M  V30 56 H -8.86225 -1.15078 -0.456928 0
M  V30 57 H -2.40341 -0.503786 -1.22545 0
M  V30 58 H -2.21398 -1.18558 0.418229 0
M  V30 59 H 2.24343 1.66232 0.305427 0
M  V30 60 H 4.49729 1.5819 0.489424 0
M  V30 61 H 6.67477 0.477275 0.158761 0
M  V30 62 H 4.56815 -2.99287 -1.23685 0
M  V30 63 H 2.44663 -1.92396 -0.924792 0
M  V30 64 H 8.44876 -0.466872 -0.142315 0
M  V30 65 H 9.45484 -3.14396 -1.09637 0
M  V30 66 H 12.1121 -3.09045 -0.968685 0
M  V30 67 H 14.0953 -1.59443 -0.345811 0
M  V30 68 H 13.4962 0.762695 0.49268 0
M  V30 END ATOM
M  V30 BEGIN BOND
M  V30 1 3 1 2
M  V30 2 1 2 3
M  V30 3 2 3 4
M  V30 4 1 4 5
M  V30 5 1 4 6
M  V30 6 2 6 7
M  V30 7 1 7 8
M  V30 8 2 8 9
M  V30 9 1 9 10
M  V30 10 2 10 11
M  V30 11 1 11 12
M  V30 12 1 12 13
M  V30 13 1 13 14
M  V30 14 2 12 15
M  V30 15 1 15 16
M  V30 16 2 16 17
M  V30 17 1 16 18
M  V30 18 1 18 19
M  V30 19 1 15 20
M  V30 20 1 20 21
M  V30 21 1 8 22
M  V30 22 1 22 23
M  V30 23 2 22 24
M  V30 24 1 24 25
M  V30 25 1 24 26
M  V30 26 2 26 27
M  V30 27 1 26 28
M  V30 28 1 28 29
M  V30 29 2 29 30
M  V30 30 1 30 31
M  V30 31 2 31 32
M  V30 32 1 32 33
M  V30 33 2 33 34
M  V30 34 1 32 35
M  V30 35 2 35 36
M  V30 36 1 35 37
M  V30 37 2 37 38
M  V30 38 1 38 39
M  V30 39 2 39 40
M  V30 40 1 40 41
M  V30 41 2 41 42
M  V30 42 1 42 43
M  V30 43 1 9 3
M  V30 44 1 17 10
M  V30 45 1 34 29
M  V30 46 1 43 39
M  V30 47 1 25 7
M  V30 48 1 5 44
M  V30 49 1 5 45
M  V30 50 1 11 46
M  V30 51 1 14 47
M  V30 52 1 14 48
M  V30 53 1 14 49
M  V30 54 1 17 50
M  V30 55 1 19 51
M  V30 56 1 19 52
M  V30 57 1 19 53
M  V30 58 1 21 54
M  V30 59 1 21 55
M  V30 60 1 21 56
M  V30 61 1 23 57
M  V30 62 1 23 58
M  V30 63 1 28 59
M  V30 64 1 30 60
M  V30 65 1 31 61
M  V30 66 1 33 62
M  V30 67 1 34 63
M  V30 68 1 37 64
M  V30 69 1 38 65
M  V30 70 1 40 66
M  V30 71 1 41 67
M  V30 72 1 42 68
M  V30 END BOND
M  V30 END CTAB
M  END
