
     RDKit          3D

  0  0  0  0  0  0  0  0  0  0999 V3000
M  V30 BEGIN CTAB
M  V30 COUNTS 29 30 0 0 0
M  V30 BEGIN ATOM
M  V30 1 N -2.98231 -1.53647 -0.0677014 0
M  V30 2 C -1.53091 -1.49401 -0.0310979 0
M  V30 3 C -1.05054 -0.0571318 0.0800367 0
M  V30 4 C -1.52105 0.780638 -1.11277 0
M  V30 5 C -2.39313 1.62772 -0.208453 0
M  V30 6 C -1.87277 0.79243 0.971753 0
M  V30 7 F -2.06383 2.95561 -0.153162 0
M  V30 8 F -3.73038 1.44677 -0.459287 0
M  V30 9 C 0.399257 -0.00490124 0.185958 0
M  V30 10 C 1.11385 0.608679 1.19151 0
M  V30 11 C 2.48358 0.628868 1.25281 0
M  V30 12 C 3.18296 -0.0028947 0.250319 0
M  V30 13 C 2.52029 -0.642242 -0.797548 0
M  V30 14 C 1.14358 -0.626292 -0.802 0
M  V30 15 N 4.59027 0.0292336 0.339667 0
M  V30 16 H -3.33611 -1.38991 -1.0502 0
M  V30 17 H -3.25479 -2.52906 0.174096 0
M  V30 18 H -1.17009 -2.08632 0.824355 0
M  V30 19 H -1.1381 -1.91607 -0.968347 0
M  V30 20 H -0.708395 1.43583 -1.53518 0
M  V30 21 H -2.04094 0.232908 -1.89589 0
M  V30 22 H -2.7301 0.244691 1.44709 0
M  V30 23 H -1.41254 1.45978 1.68501 0
M  V30 24 H 0.565942 1.09411 1.96936 0
M  V30 25 H 2.98389 1.12799 2.07146 0
M  V30 26 H 3.11256 -1.1318 -1.57177 0
M  V30 27 H 0.62934 -1.13483 -1.64071 0
M  V30 28 H 5.07451 -0.488458 1.08754 0
M  V30 29 H 5.13595 0.575142 -0.349742 0
M  V30 END ATOM
M  V30 BEGIN BOND
M  V30 1 1 1 2
M  V30 2 1 2 3
M  V30 3 1 3 4
M  V30 4 1 4 5
M  V30 5 1 5 6
M  V30 6 1 5 7
M  V30 7 1 5 8
M  V30 8 1 3 9
M  V30 9 2 9 10
M  V30 10 1 10 11
M  V30 11 2 11 12
M  V30 12 1 12 13
M  V30 13 2 13 14
M  V30 14 1 12 15
M  V30 15 1 6 3
M  V30 16 1 14 9
M  V30 17 1 1 16
M  V30 18 1 1 17
M  V30 19 1 2 18
M  V30 20 1 2 19
M  V30 21 1 4 20
M  V30 22 1 4 21
M  V30 23 1 6 22
M  V30 24 1 6 23
M  V30 25 1 10 24
M  V30 26 1 11 25
M  V30 27 1 13 26
M  V30 28 1 14 27
M  V30 29 1 15 28
M  V30 30 1 15 29
M  V30 END BOND
M  V30 END CTAB
M  END
