
     RDKit          3D

  0  0  0  0  0  0  0  0  0  0999 V3000
M  V30 BEGIN CTAB
M  V30 COUNTS 30 31 0 0 0
M  V30 BEGIN ATOM
M  V30 1 C -2.14388 -1.93081 -0.358087 0
M  V30 2 C -2.07943 -0.455645 -0.488103 0
M  V30 3 C -2.71089 0.332335 0.647399 0
M  V30 4 C -4.09573 0.851896 0.365985 0
M  V30 5 C -1.67619 1.35648 0.234207 0
M  V30 6 N -0.840801 0.213231 -0.177175 0
M  V30 7 C 0.549818 0.0122895 -0.200894 0
M  V30 8 C 1.10433 -1.16197 -0.664935 0
M  V30 9 C 2.47986 -1.31631 -0.668889 0
M  V30 10 C 3.32861 -0.32627 -0.220046 0
M  V30 11 C 2.7283 0.837311 0.237518 0
M  V30 12 N 1.3917 0.989559 0.242325 0
M  V30 13 N 3.57802 1.8677 0.703183 0
M  V30 14 N 4.73324 -0.456482 -0.212701 0
M  V30 15 H -1.90832 -2.38432 -1.33926 0
M  V30 16 H -3.20023 -2.20578 -0.070749 0
M  V30 17 H -1.43718 -2.2624 0.444596 0
M  V30 18 H -2.47088 -0.0546299 -1.46081 0
M  V30 19 H -2.54859 -0.157889 1.6079 0
M  V30 20 H -4.88769 0.119133 0.514053 0
M  V30 21 H -4.23194 1.76948 0.987392 0
M  V30 22 H -4.08003 1.23171 -0.695559 0
M  V30 23 H -1.99388 1.90593 -0.652607 0
M  V30 24 H -1.22812 1.93741 1.05665 0
M  V30 25 H 0.438703 -1.9351 -1.01629 0
M  V30 26 H 2.90807 -2.22955 -1.0299 0
M  V30 27 H 4.20001 2.43139 0.0892215 0
M  V30 28 H 3.59801 2.09364 1.72491 0
M  V30 29 H 5.36783 0.348503 -0.196926 0
M  V30 30 H 5.12729 -1.42083 -0.224019 0
M  V30 END ATOM
M  V30 BEGIN BOND
M  V30 1 1 1 2
M  V30 2 1 2 3
M  V30 3 1 3 4
M  V30 4 1 3 5
M  V30 5 1 5 6
M  V30 6 1 6 7
M  V30 7 2 7 8
M  V30 8 1 8 9
M  V30 9 2 9 10
M  V30 10 1 10 11
M  V30 11 2 11 12
M  V30 12 1 11 13
M  V30 13 1 10 14
M  V30 14 1 6 2
M  V30 15 1 12 7
M  V30 16 1 1 15
M  V30 17 1 1 16
M  V30 18 1 1 17
M  V30 19 1 2 18
M  V30 20 1 3 19
M  V30 21 1 4 20
M  V30 22 1 4 21
M  V30 23 1 4 22
M  V30 24 1 5 23
M  V30 25 1 5 24
M  V30 26 1 8 25
M  V30 27 1 9 26
M  V30 28 1 13 27
M  V30 29 1 13 28
M  V30 30 1 14 29
M  V30 31 1 14 30
M  V30 END BOND
M  V30 END CTAB
M  END
