
     RDKit          3D

  0  0  0  0  0  0  0  0  0  0999 V3000
M  V30 BEGIN CTAB
M  V30 COUNTS 56 58 0 0 0
M  V30 BEGIN ATOM
M  V30 1 N 5.53026 1.92334 -2.14293 0
M  V30 2 C 6.01921 1.36701 -0.901432 0
M  V30 3 C 5.58612 2.19703 0.224176 0
M  V30 4 C 4.15275 2.38686 0.482362 0
M  V30 5 C 3.33057 1.26037 0.884125 0
M  V30 6 C 3.06227 0.0722217 0.0701006 0 CFG=1
M  V30 7 C 2.16451 -0.811722 0.904834 0
M  V30 8 O 2.68145 -1.12162 2.02285 0
M  V30 9 N 0.906321 -1.28003 0.569521 0
M  V30 10 C 0.237001 -2.14921 1.55306 0
M  V30 11 C -1.14214 -1.60495 1.84109 0
M  V30 12 N -1.94131 -1.69307 0.611428 0
M  V30 13 C -1.21932 -1.60078 -0.583262 0
M  V30 14 O -1.71911 -2.01151 -1.6422 0
M  V30 15 C 0.161087 -1.01542 -0.637964 0
M  V30 16 C -3.3278 -1.88363 0.698091 0
M  V30 17 C -3.81871 -3.04654 1.33596 0
M  V30 18 C -5.15619 -3.31665 1.44965 0
M  V30 19 C -6.05454 -2.42027 0.922027 0
M  V30 20 C -5.60097 -1.28346 0.298064 0
M  V30 21 C -4.22176 -1.00168 0.179349 0
M  V30 22 C -3.80132 0.219945 -0.473095 0
M  V30 23 C -4.28954 0.51934 -1.75261 0
M  V30 24 C -3.96377 1.66633 -2.43246 0
M  V30 25 C -3.11345 2.59069 -1.85051 0
M  V30 26 C -2.62212 2.32189 -0.599288 0
M  V30 27 C -2.96698 1.14523 0.0783511 0
M  V30 28 N 2.47278 0.322411 -1.21522 0
M  V30 29 H 5.01761 1.19124 -2.65796 0
M  V30 30 H 4.92 2.7169 -1.95825 0
M  V30 31 H 5.81807 0.308049 -0.812851 0
M  V30 32 H 7.16145 1.45376 -0.950208 0
M  V30 33 H 6.11247 3.21498 0.123327 0
M  V30 34 H 6.06388 1.75982 1.17835 0
M  V30 35 H 3.66176 3.0189 -0.336315 0
M  V30 36 H 4.10787 3.1485 1.35487 0
M  V30 37 H 2.31243 1.64604 1.27345 0
M  V30 38 H 3.74478 0.846991 1.88631 0
M  V30 39 H 3.96207 -0.546307 -0.0687 0
M  V30 40 H 0.219567 -3.14716 1.09995 0
M  V30 41 H 0.779724 -2.2098 2.50005 0
M  V30 42 H -1.60092 -2.12493 2.67957 0
M  V30 43 H -1.02091 -0.531651 2.06501 0
M  V30 44 H 0.678873 -1.49812 -1.47535 0
M  V30 45 H -0.0077812 0.0606128 -0.841568 0
M  V30 46 H -3.10888 -3.73724 1.74311 0
M  V30 47 H -5.46908 -4.22895 1.95195 0
M  V30 48 H -7.10478 -2.6459 1.0187 0
M  V30 49 H -6.28676 -0.558489 -0.127635 0
M  V30 50 H -4.95118 -0.213024 -2.19019 0
M  V30 51 H -4.33841 1.90026 -3.41898 0
M  V30 52 H -2.84059 3.50208 -2.36394 0
M  V30 53 H -1.9632 3.03515 -0.144895 0
M  V30 54 H -2.56306 0.996625 1.05324 0
M  V30 55 H 2.77629 -0.406197 -1.87549 0
M  V30 56 H 2.57341 1.29574 -1.54855 0
M  V30 END ATOM
M  V30 BEGIN BOND
M  V30 1 1 1 2
M  V30 2 1 2 3
M  V30 3 1 3 4
M  V30 4 1 4 5
M  V30 5 1 5 6
M  V30 6 1 6 7
M  V30 7 2 7 8
M  V30 8 1 7 9
M  V30 9 1 9 10
M  V30 10 1 10 11
M  V30 11 1 11 12
M  V30 12 1 12 13
M  V30 13 2 13 14
M  V30 14 1 13 15
M  V30 15 1 12 16
M  V30 16 2 16 17
M  V30 17 1 17 18
M  V30 18 2 18 19
M  V30 19 1 19 20
M  V30 20 2 20 21
M  V30 21 1 21 22
M  V30 22 2 22 23
M  V30 23 1 23 24
M  V30 24 2 24 25
M  V30 25 1 25 26
M  V30 26 2 26 27
M  V30 27 1 6 28
M  V30 28 1 15 9
M  V30 29 1 21 16
M  V30 30 1 27 22
M  V30 31 1 1 29
M  V30 32 1 1 30
M  V30 33 1 2 31
M  V30 34 1 2 32
M  V30 35 1 3 33
M  V30 36 1 3 34
M  V30 37 1 4 35
M  V30 38 1 4 36
M  V30 39 1 5 37
M  V30 40 1 5 38
M  V30 41 1 6 39 CFG=3
M  V30 42 1 10 40
M  V30 43 1 10 41
M  V30 44 1 11 42
M  V30 45 1 11 43
M  V30 46 1 15 44
M  V30 47 1 15 45
M  V30 48 1 17 46
M  V30 49 1 18 47
M  V30 50 1 19 48
M  V30 51 1 20 49
M  V30 52 1 23 50
M  V30 53 1 24 51
M  V30 54 1 25 52
M  V30 55 1 26 53
M  V30 56 1 27 54
M  V30 57 1 28 55
M  V30 58 1 28 56
M  V30 END BOND
M  V30 END CTAB
M  END
