
     RDKit          3D

  0  0  0  0  0  0  0  0  0  0999 V3000
M  V30 BEGIN CTAB
M  V30 COUNTS 28 29 0 0 0
M  V30 BEGIN ATOM
M  V30 1 C -1.83799 0.946969 1.55279 0
M  V30 2 C -1.74522 -0.169718 0.572172 0
M  V30 3 C -3.05808 -0.443521 -0.142488 0
M  V30 4 N -2.73668 -0.861658 -1.47172 0
M  V30 5 C -1.29758 -0.882227 -1.59952 0
M  V30 6 C -0.876669 0.197408 -0.635089 0
M  V30 7 C 0.560735 0.152911 -0.305137 0
M  V30 8 N 1.12624 -0.969375 0.139439 0
M  V30 9 C 2.45448 -1.02941 0.44971 0
M  V30 10 N 3.01404 -2.25103 0.921288 0
M  V30 11 N 3.22717 0.0621867 0.309239 0
M  V30 12 C 2.66496 1.1975 -0.138322 0
M  V30 13 N 1.33948 1.24182 -0.443503 0
M  V30 14 N 3.47563 2.34641 -0.286739 0
M  V30 15 H -2.87464 1.2492 1.73644 0
M  V30 16 H -1.19368 1.78092 1.17613 0
M  V30 17 H -1.35171 0.58955 2.50647 0
M  V30 18 H -1.41753 -1.13578 1.00166 0
M  V30 19 H -3.56441 0.560793 -0.2325 0
M  V30 20 H -3.70693 -1.13313 0.408054 0
M  V30 21 H -3.08414 -0.187774 -2.21653 0
M  V30 22 H -0.898922 -1.83928 -1.2085 0
M  V30 23 H -0.96436 -0.696458 -2.63263 0
M  V30 24 H -1.20258 1.17519 -0.985606 0
M  V30 25 H 3.81909 -2.68984 0.448913 0
M  V30 26 H 2.60659 -2.71268 1.75702 0
M  V30 27 H 3.93194 2.5209 -1.20489 0
M  V30 28 H 3.59075 2.98012 0.52384 0
M  V30 END ATOM
M  V30 BEGIN BOND
M  V30 1 1 1 2
M  V30 2 1 2 3
M  V30 3 1 3 4
M  V30 4 1 4 5
M  V30 5 1 5 6
M  V30 6 1 6 7
M  V30 7 2 7 8
M  V30 8 1 8 9
M  V30 9 1 9 10
M  V30 10 2 9 11
M  V30 11 1 11 12
M  V30 12 2 12 13
M  V30 13 1 12 14
M  V30 14 1 6 2
M  V30 15 1 13 7
M  V30 16 1 1 15
M  V30 17 1 1 16
M  V30 18 1 1 17
M  V30 19 1 2 18
M  V30 20 1 3 19
M  V30 21 1 3 20
M  V30 22 1 4 21
M  V30 23 1 5 22
M  V30 24 1 5 23
M  V30 25 1 6 24
M  V30 26 1 10 25
M  V30 27 1 10 26
M  V30 28 1 14 27
M  V30 29 1 14 28
M  V30 END BOND
M  V30 END CTAB
M  END
