
     RDKit          3D

  0  0  0  0  0  0  0  0  0  0999 V3000
M  V30 BEGIN CTAB
M  V30 COUNTS 21 21 0 0 0
M  V30 BEGIN ATOM
M  V30 1 N -1.16021 1.70411 1.31044 0
M  V30 2 C -1.26991 0.49543 0.568065 0
M  V30 3 C -2.404 -0.26789 0.697375 0
M  V30 4 C -2.4804 -1.44626 -0.00500793 0
M  V30 5 N -1.46511 -1.83736 -0.792663 0
M  V30 6 C -0.326467 -1.11417 -0.947 0
M  V30 7 C -0.227041 0.0566099 -0.263008 0
M  V30 8 C 0.948159 0.94425 -0.420275 0
M  V30 9 C 2.19149 0.141848 -0.770963 0
M  V30 10 N 2.49345 -0.821809 0.217345 0
M  V30 11 F 0.675677 1.7335 -1.56664 0
M  V30 12 H -1.10558 2.61195 0.857483 0
M  V30 13 H -1.0932 1.59187 2.33588 0
M  V30 14 H -3.24732 0.00865627 1.33119 0
M  V30 15 H -3.37823 -2.04719 0.114866 0
M  V30 16 H 0.452082 -1.48643 -1.63745 0
M  V30 17 H 1.05893 1.55124 0.483905 0
M  V30 18 H 3.0406 0.862809 -0.792498 0
M  V30 19 H 2.02355 -0.293664 -1.79003 0
M  V30 20 H 2.01075 -1.71112 0.242981 0
M  V30 21 H 3.26278 -0.676388 0.826007 0
M  V30 END ATOM
M  V30 BEGIN BOND
M  V30 1 1 1 2
M  V30 2 2 2 3
M  V30 3 1 3 4
M  V30 4 2 4 5
M  V30 5 1 5 6
M  V30 6 2 6 7
M  V30 7 1 7 8
M  V30 8 1 8 9
M  V30 9 1 9 10
M  V30 10 1 8 11
M  V30 11 1 7 2
M  V30 12 1 1 12
M  V30 13 1 1 13
M  V30 14 1 3 14
M  V30 15 1 4 15
M  V30 16 1 6 16
M  V30 17 1 8 17
M  V30 18 1 9 18
M  V30 19 1 9 19
M  V30 20 1 10 20
M  V30 21 1 10 21
M  V30 END BOND
M  V30 END CTAB
M  END
