
     RDKit          3D

  0  0  0  0  0  0  0  0  0  0999 V3000
M  V30 BEGIN CTAB
M  V30 COUNTS 59 61 0 0 0
M  V30 BEGIN ATOM
M  V30 1 C -7.50983 2.31442 0.732098 0
M  V30 2 C -7.18253 0.907828 1.01876 0
M  V30 3 N -8.17644 0.0157782 1.13591 0
M  V30 4 C -7.9627 -1.29111 1.39924 0
M  V30 5 N -9.06248 -2.20449 1.51503 0
M  V30 6 N -6.69505 -1.69517 1.54624 0
M  V30 7 C -5.65628 -0.814275 1.43366 0
M  V30 8 N -4.37466 -1.37669 1.63432 0
M  V30 9 C -5.87398 0.513738 1.16549 0
M  V30 10 C -4.78807 1.46843 1.06213 0
M  V30 11 C -4.46374 1.99267 -0.295872 0
M  V30 12 C -4.03985 1.00343 -1.3159 0
M  V30 13 O -2.90036 0.31167 -1.00993 0
M  V30 14 C -1.61007 0.630339 -0.809598 0
M  V30 15 C -1.03985 1.87814 -0.886099 0
M  V30 16 C 0.277226 2.14237 -0.670729 0
M  V30 17 C 1.16307 1.10051 -0.343878 0
M  V30 18 N 2.52247 1.41286 -0.0996672 0
M  V30 19 C 3.59737 0.503168 -0.277408 0
M  V30 20 O 3.42603 -0.666921 -0.686628 0
M  V30 21 N 4.91357 0.904374 0.00889285 0
M  V30 22 C 6.07001 0.125921 -0.129645 0
M  V30 23 C 6.20003 -0.917668 -0.994193 0
M  V30 24 C 7.35145 -1.69887 -1.07802 0
M  V30 25 C 8.4191 -1.42717 -0.264771 0
M  V30 26 C 9.68918 -2.20143 -0.268321 0
M  V30 27 C 8.2883 -0.370437 0.609057 0
M  V30 28 C 7.16015 0.402677 0.698259 0
M  V30 29 S 7.45133 -3.02612 -2.21486 0
M  V30 30 F 7.69812 -4.4754 -1.42468 0
M  V30 31 O 8.53519 -2.78563 -3.25396 0
M  V30 32 O 6.15703 -3.08103 -3.01497 0
M  V30 33 C 0.607924 -0.149898 -0.263849 0
M  V30 34 C -0.719256 -0.413172 -0.481261 0
M  V30 35 H -6.80199 3.05218 1.11198 0
M  V30 36 H -8.50501 2.57219 1.19775 0
M  V30 37 H -7.69148 2.396 -0.362816 0
M  V30 38 H -9.57205 -2.35498 2.40273 0
M  V30 39 H -9.35583 -2.73232 0.674642 0
M  V30 40 H -3.73228 -1.08469 2.3981 0
M  V30 41 H -4.0505 -2.12632 0.984572 0
M  V30 42 H -4.97792 2.38047 1.70489 0
M  V30 43 H -3.8151 1.0736 1.48781 0
M  V30 44 H -3.68954 2.77423 -0.152147 0
M  V30 45 H -5.32856 2.56625 -0.739752 0
M  V30 46 H -4.87615 0.343252 -1.66 0
M  V30 47 H -3.80476 1.59264 -2.27004 0
M  V30 48 H -1.65719 2.73598 -1.15161 0
M  V30 49 H 0.712167 3.12349 -0.732691 0
M  V30 50 H 2.77562 2.39201 0.243775 0
M  V30 51 H 5.03532 1.90492 0.368936 0
M  V30 52 H 5.41255 -1.20026 -1.69679 0
M  V30 53 H 9.69289 -2.84483 0.650111 0
M  V30 54 H 10.5268 -1.45215 -0.225544 0
M  V30 55 H 9.83895 -2.80272 -1.18246 0
M  V30 56 H 9.12312 -0.142664 1.25707 0
M  V30 57 H 7.07623 1.23404 1.3944 0
M  V30 58 H 1.258 -0.996014 0.00630812 0
M  V30 59 H -1.06571 -1.43714 -0.395381 0
M  V30 END ATOM
M  V30 BEGIN BOND
M  V30 1 1 1 2
M  V30 2 2 2 3
M  V30 3 1 3 4
M  V30 4 1 4 5
M  V30 5 2 4 6
M  V30 6 1 6 7
M  V30 7 1 7 8
M  V30 8 2 7 9
M  V30 9 1 9 10
M  V30 10 1 10 11
M  V30 11 1 11 12
M  V30 12 1 12 13
M  V30 13 1 13 14
M  V30 14 2 14 15
M  V30 15 1 15 16
M  V30 16 2 16 17
M  V30 17 1 17 18
M  V30 18 1 18 19
M  V30 19 2 19 20
M  V30 20 1 19 21
M  V30 21 1 21 22
M  V30 22 2 22 23
M  V30 23 1 23 24
M  V30 24 2 24 25
M  V30 25 1 25 26
M  V30 26 1 25 27
M  V30 27 2 27 28
M  V30 28 1 24 29
M  V30 29 1 29 30
M  V30 30 2 29 31
M  V30 31 2 29 32
M  V30 32 1 17 33
M  V30 33 2 33 34
M  V30 34 1 9 2
M  V30 35 1 34 14
M  V30 36 1 28 22
M  V30 37 1 1 35
M  V30 38 1 1 36
M  V30 39 1 1 37
M  V30 40 1 5 38
M  V30 41 1 5 39
M  V30 42 1 8 40
M  V30 43 1 8 41
M  V30 44 1 10 42
M  V30 45 1 10 43
M  V30 46 1 11 44
M  V30 47 1 11 45
M  V30 48 1 12 46
M  V30 49 1 12 47
M  V30 50 1 15 48
M  V30 51 1 16 49
M  V30 52 1 18 50
M  V30 53 1 21 51
M  V30 54 1 23 52
M  V30 55 1 26 53
M  V30 56 1 26 54
M  V30 57 1 26 55
M  V30 58 1 27 56
M  V30 59 1 28 57
M  V30 60 1 33 58
M  V30 61 1 34 59
M  V30 END BOND
M  V30 END CTAB
M  END
