
     RDKit          3D

  0  0  0  0  0  0  0  0  0  0999 V3000
M  V30 BEGIN CTAB
M  V30 COUNTS 42 44 0 0 0
M  V30 BEGIN ATOM
M  V30 1 N 5.21865 2.30468 -0.282561 0
M  V30 2 C 3.80175 2.33963 0.00385036 0
M  V30 3 C 2.96005 1.42725 -0.864645 0
M  V30 4 C 2.09696 1.19624 0.385041 0
M  V30 5 C 3.3838 1.44842 1.1821 0
M  V30 6 C 1.55368 -0.147768 0.508268 0
M  V30 7 C 0.206886 -0.307383 0.744779 0
M  V30 8 C -0.37365 -1.55802 0.873095 0
M  V30 9 N -1.78714 -1.7196 1.12207 0
M  V30 10 C -2.65867 -0.609259 1.22078 0
M  V30 11 C -3.14264 -0.0683035 -0.0630366 0
M  V30 12 C -3.95341 1.07726 -0.172836 0
M  V30 13 C -4.36157 1.87952 1.02236 0
M  V30 14 N -4.24125 1.26108 -1.44854 0
M  V30 15 N -3.66981 0.313093 -2.1446 0
M  V30 16 C -2.97426 -0.541738 -1.33085 0
M  V30 17 C -2.25234 -1.72988 -1.83303 0
M  V30 18 N 0.446009 -2.61463 0.7548 0
M  V30 19 C 1.77812 -2.49053 0.521565 0
M  V30 20 N 2.31098 -1.2473 0.401718 0
M  V30 21 N 2.54825 -3.67255 0.414838 0
M  V30 22 H 5.78889 2.6358 0.505762 0
M  V30 23 H 5.51212 1.40891 -0.684573 0
M  V30 24 H 3.36623 3.34894 0.0939072 0
M  V30 25 H 3.53735 0.553882 -1.1864 0
M  V30 26 H 2.40005 1.92556 -1.67806 0
M  V30 27 H 1.36231 2.001 0.493366 0
M  V30 28 H 3.97263 0.508411 1.23066 0
M  V30 29 H 3.23056 1.9793 2.12655 0
M  V30 30 H -0.453719 0.555103 0.839471 0
M  V30 31 H -2.12587 -2.71008 1.22517 0
M  V30 32 H -3.54232 -0.909331 1.85115 0
M  V30 33 H -2.18891 0.210708 1.84287 0
M  V30 34 H -3.60338 2.65209 1.21267 0
M  V30 35 H -5.37288 2.28433 0.811383 0
M  V30 36 H -4.38785 1.21423 1.90819 0
M  V30 37 H -3.72967 0.214498 -3.17645 0
M  V30 38 H -1.22922 -1.46468 -2.08873 0
M  V30 39 H -2.37869 -2.63588 -1.20693 0
M  V30 40 H -2.7392 -2.00394 -2.82963 0
M  V30 41 H 2.14674 -4.55016 -0.00590639 0
M  V30 42 H 3.54445 -3.75889 0.736652 0
M  V30 END ATOM
M  V30 BEGIN BOND
M  V30 1 1 1 2
M  V30 2 1 2 3
M  V30 3 1 3 4
M  V30 4 1 4 5
M  V30 5 1 4 6
M  V30 6 2 6 7
M  V30 7 1 7 8
M  V30 8 1 8 9
M  V30 9 1 9 10
M  V30 10 1 10 11
M  V30 11 1 11 12
M  V30 12 1 12 13
M  V30 13 2 12 14
M  V30 14 1 14 15
M  V30 15 1 15 16
M  V30 16 1 16 17
M  V30 17 2 8 18
M  V30 18 1 18 19
M  V30 19 2 19 20
M  V30 20 1 19 21
M  V30 21 1 5 2
M  V30 22 1 20 6
M  V30 23 2 16 11
M  V30 24 1 1 22
M  V30 25 1 1 23
M  V30 26 1 2 24
M  V30 27 1 3 25
M  V30 28 1 3 26
M  V30 29 1 4 27
M  V30 30 1 5 28
M  V30 31 1 5 29
M  V30 32 1 7 30
M  V30 33 1 9 31
M  V30 34 1 10 32
M  V30 35 1 10 33
M  V30 36 1 13 34
M  V30 37 1 13 35
M  V30 38 1 13 36
M  V30 39 1 15 37
M  V30 40 1 17 38
M  V30 41 1 17 39
M  V30 42 1 17 40
M  V30 43 1 21 41
M  V30 44 1 21 42
M  V30 END BOND
M  V30 END CTAB
M  END
