
     RDKit          3D

  0  0  0  0  0  0  0  0  0  0999 V3000
M  V30 BEGIN CTAB
M  V30 COUNTS 22 22 0 0 0
M  V30 BEGIN ATOM
M  V30 1 N 1.87672 -1.71727 -0.143956 0
M  V30 2 C 1.88103 -0.337057 -0.411176 0
M  V30 3 N 2.82466 0.397083 0.0251845 0
M  V30 4 N 3.86449 -0.156487 0.772448 0
M  V30 5 N 0.833744 0.228146 -1.16529 0
M  V30 6 C -0.482915 0.401634 -0.690092 0
M  V30 7 C -0.82352 0.01731 0.569957 0
M  V30 8 C -2.13991 0.204202 1.00921 0
M  V30 9 C -3.07828 0.771958 0.171046 0
M  V30 10 C -2.72724 1.15958 -1.10514 0
M  V30 11 C -1.42544 0.966955 -1.51886 0
M  V30 12 Cl -0.944135 1.44765 -3.13412 0
M  V30 13 C -2.53668 -0.191821 2.34005 0
M  V30 14 N -2.8478 -0.49556 3.42299 0
M  V30 15 H 1.4182 -2.37037 -0.845767 0
M  V30 16 H 2.28305 -2.18252 0.685988 0
M  V30 17 H 3.71737 -0.943395 1.43981 0
M  V30 18 H 4.85795 0.197787 0.697285 0
M  V30 19 H 1.10102 0.528245 -2.15043 0
M  V30 20 H -0.0880224 -0.427547 1.22656 0
M  V30 21 H -4.09869 0.898567 0.559917 0
M  V30 22 H -3.46559 1.60291 -1.75561 0
M  V30 END ATOM
M  V30 BEGIN BOND
M  V30 1 1 1 2
M  V30 2 2 2 3 CFG=2
M  V30 3 1 3 4
M  V30 4 1 2 5
M  V30 5 1 5 6
M  V30 6 2 6 7
M  V30 7 1 7 8
M  V30 8 2 8 9
M  V30 9 1 9 10
M  V30 10 2 10 11
M  V30 11 1 11 12
M  V30 12 1 8 13
M  V30 13 3 13 14
M  V30 14 1 11 6
M  V30 15 1 1 15
M  V30 16 1 1 16
M  V30 17 1 4 17
M  V30 18 1 4 18
M  V30 19 1 5 19
M  V30 20 1 7 20
M  V30 21 1 9 21
M  V30 22 1 10 22
M  V30 END BOND
M  V30 END CTAB
M  END
