
     RDKit          3D

  0  0  0  0  0  0  0  0  0  0999 V3000
M  V30 BEGIN CTAB
M  V30 COUNTS 34 35 0 0 0
M  V30 BEGIN ATOM
M  V30 1 N -5.28417 1.08993 -0.837721 0
M  V30 2 C -3.97913 0.629079 -0.63655 0
M  V30 3 C -3.38273 0.871337 0.595041 0
M  V30 4 C -2.11233 0.430497 0.810385 0
M  V30 5 C -1.36764 -0.251392 -0.129098 0
M  V30 6 C -2.00562 -0.472044 -1.34967 0
M  V30 7 N -3.26111 -0.0388199 -1.56863 0
M  V30 8 C -0.0160293 -0.690972 0.174001 0 CFG=1
M  V30 9 C 0.16994 -2.19052 0.121287 0
M  V30 10 O 1.42263 -2.54357 0.536437 0
M  V30 11 C 1.92913 -1.78397 1.57627 0
M  V30 12 C 2.49491 -0.467547 1.11994 0
M  V30 13 N 2.35229 -0.317558 -0.296101 0
M  V30 14 C 1.02272 -0.0915493 -0.752165 0
M  V30 15 S 3.32353 1.03421 -0.820574 0
M  V30 16 O 3.18087 1.22729 -2.28793 0
M  V30 17 O 4.76305 0.824966 -0.44053 0
M  V30 18 N 2.74687 2.48705 -0.0428383 0
M  V30 19 H -6.06977 0.694502 -0.293288 0
M  V30 20 H -5.48153 1.83149 -1.5327 0
M  V30 21 H -3.89796 1.39924 1.38628 0
M  V30 22 H -1.64493 0.625546 1.78868 0
M  V30 23 H -1.41989 -1.00853 -2.089 0
M  V30 24 H 0.234931 -0.384163 1.20867 0
M  V30 25 H 0.0687128 -2.48496 -0.94903 0
M  V30 26 H -0.635005 -2.73816 0.662274 0
M  V30 27 H 2.7924 -2.37994 1.99916 0
M  V30 28 H 1.2227 -1.68369 2.43194 0
M  V30 29 H 2.05415 0.405016 1.68615 0
M  V30 30 H 3.60148 -0.382447 1.33751 0
M  V30 31 H 0.793549 0.95411 -0.972827 0
M  V30 32 H 0.910417 -0.643436 -1.7311 0
M  V30 33 H 3.51859 3.16961 -0.089167 0
M  V30 34 H 1.95501 2.87939 -0.615106 0
M  V30 END ATOM
M  V30 BEGIN BOND
M  V30 1 1 1 2
M  V30 2 2 2 3
M  V30 3 1 3 4
M  V30 4 2 4 5
M  V30 5 1 5 6
M  V30 6 2 6 7
M  V30 7 1 5 8
M  V30 8 1 8 9
M  V30 9 1 9 10
M  V30 10 1 10 11
M  V30 11 1 11 12
M  V30 12 1 12 13
M  V30 13 1 13 14
M  V30 14 1 13 15
M  V30 15 2 15 16
M  V30 16 2 15 17
M  V30 17 1 15 18
M  V30 18 1 7 2
M  V30 19 1 14 8
M  V30 20 1 1 19
M  V30 21 1 1 20
M  V30 22 1 3 21
M  V30 23 1 4 22
M  V30 24 1 6 23
M  V30 25 1 8 24 CFG=1
M  V30 26 1 9 25
M  V30 27 1 9 26
M  V30 28 1 11 27
M  V30 29 1 11 28
M  V30 30 1 12 29
M  V30 31 1 12 30
M  V30 32 1 14 31
M  V30 33 1 14 32
M  V30 34 1 18 33
M  V30 35 1 18 34
M  V30 END BOND
M  V30 END CTAB
M  END
