
     RDKit          3D

  0  0  0  0  0  0  0  0  0  0999 V3000
M  V30 BEGIN CTAB
M  V30 COUNTS 53 54 0 0 0
M  V30 BEGIN ATOM
M  V30 1 C 4.63829 2.41197 -0.339662 0
M  V30 2 O 4.0772 1.11424 -0.502819 0
M  V30 3 C 2.69933 0.993603 -0.486614 0
M  V30 4 C 1.90548 2.14329 -0.317009 0
M  V30 5 C 0.537782 2.01679 -0.305446 0
M  V30 6 C -0.0695505 0.774309 -0.459156 0
M  V30 7 O -1.44702 0.718711 -0.442779 0
M  V30 8 C -2.19032 1.90405 -0.275871 0
M  V30 9 C -3.68063 1.63153 -0.302146 0
M  V30 10 C -4.0051 0.696594 0.817583 0
M  V30 11 C -5.47018 0.344734 0.907675 0
M  V30 12 C -5.87477 -0.310102 -0.398061 0
M  V30 13 C -7.31549 -0.713866 -0.43945 0
M  V30 14 C -7.69581 -1.69275 0.60867 0
M  V30 15 O -7.78294 -3.02167 0.294165 0
M  V30 16 O -7.92461 -1.22369 1.77454 0
M  V30 17 C 0.728007 -0.334525 -0.621856 0
M  V30 18 C 2.12611 -0.234871 -0.637589 0
M  V30 19 C 2.85505 -1.47443 -0.824814 0
M  V30 20 C 4.29765 -1.4859 -0.691141 0
M  V30 21 C 5.10832 -1.44114 -1.83111 0
M  V30 22 N 6.4287 -1.45115 -1.6819 0
M  V30 23 C 7.0684 -1.50342 -0.480636 0
M  V30 24 N 8.48423 -1.50613 -0.404254 0
M  V30 25 N 6.26532 -1.54675 0.595532 0
M  V30 26 C 4.91898 -1.53991 0.534771 0
M  V30 27 N 4.1616 -1.59775 1.76758 0
M  V30 28 H 5.72921 2.41631 -0.324667 0
M  V30 29 H 4.25871 2.8281 0.633699 0
M  V30 30 H 4.2813 3.12646 -1.09878 0
M  V30 31 H 2.40155 3.09298 -0.20078 0
M  V30 32 H -0.0794381 2.88412 -0.176188 0
M  V30 33 H -1.98397 2.38399 0.707498 0
M  V30 34 H -1.89537 2.60686 -1.08313 0
M  V30 35 H -4.25847 2.57108 -0.253192 0
M  V30 36 H -3.87425 1.18873 -1.30765 0
M  V30 37 H -3.42725 -0.266811 0.744496 0
M  V30 38 H -3.71888 1.20073 1.77021 0
M  V30 39 H -6.03325 1.2712 1.09865 0
M  V30 40 H -5.60198 -0.357614 1.74029 0
M  V30 41 H -5.73638 0.413521 -1.24572 0
M  V30 42 H -5.22331 -1.17851 -0.564444 0
M  V30 43 H -7.48345 -1.15343 -1.45703 0
M  V30 44 H -7.97889 0.189821 -0.394148 0
M  V30 45 H -7.88784 -3.7652 0.957002 0
M  V30 46 H 0.252419 -1.30544 -0.739594 0
M  V30 47 H 2.60859 -1.9298 -1.83832 0
M  V30 48 H 2.38395 -2.21231 -0.0785878 0
M  V30 49 H 4.64956 -1.39876 -2.80298 0
M  V30 50 H 9.03469 -2.3498 -0.625525 0
M  V30 51 H 8.96426 -0.63345 -0.117751 0
M  V30 52 H 4.19559 -2.47439 2.34738 0
M  V30 53 H 3.57884 -0.82016 2.12192 0
M  V30 END ATOM
M  V30 BEGIN BOND
M  V30 1 1 1 2
M  V30 2 1 2 3
M  V30 3 2 3 4
M  V30 4 1 4 5
M  V30 5 2 5 6
M  V30 6 1 6 7
M  V30 7 1 7 8
M  V30 8 1 8 9
M  V30 9 1 9 10
M  V30 10 1 10 11
M  V30 11 1 11 12
M  V30 12 1 12 13
M  V30 13 1 13 14
M  V30 14 1 14 15
M  V30 15 2 14 16
M  V30 16 1 6 17
M  V30 17 2 17 18
M  V30 18 1 18 19
M  V30 19 1 19 20
M  V30 20 2 20 21
M  V30 21 1 21 22
M  V30 22 2 22 23
M  V30 23 1 23 24
M  V30 24 1 23 25
M  V30 25 2 25 26
M  V30 26 1 26 27
M  V30 27 1 18 3
M  V30 28 1 26 20
M  V30 29 1 1 28
M  V30 30 1 1 29
M  V30 31 1 1 30
M  V30 32 1 4 31
M  V30 33 1 5 32
M  V30 34 1 8 33
M  V30 35 1 8 34
M  V30 36 1 9 35
M  V30 37 1 9 36
M  V30 38 1 10 37
M  V30 39 1 10 38
M  V30 40 1 11 39
M  V30 41 1 11 40
M  V30 42 1 12 41
M  V30 43 1 12 42
M  V30 44 1 13 43
M  V30 45 1 13 44
M  V30 46 1 15 45
M  V30 47 1 17 46
M  V30 48 1 19 47
M  V30 49 1 19 48
M  V30 50 1 21 49
M  V30 51 1 24 50
M  V30 52 1 24 51
M  V30 53 1 27 52
M  V30 54 1 27 53
M  V30 END BOND
M  V30 END CTAB
M  END
