
     RDKit          3D

  0  0  0  0  0  0  0  0  0  0999 V3000
M  V30 BEGIN CTAB
M  V30 COUNTS 21 21 0 0 0
M  V30 BEGIN ATOM
M  V30 1 N 2.79132 0.402764 1.28385 0
M  V30 2 N 2.39601 -0.767142 0.6624 0
M  V30 3 C 1.24733 -0.960536 0.122323 0
M  V30 4 C 0.233809 0.0655687 0.118259 0
M  V30 5 N 0.493194 1.26117 0.695049 0
M  V30 6 C -0.336211 2.28668 0.765141 0
M  V30 7 C -1.58647 2.16551 0.212582 0
M  V30 8 C -1.90652 0.978863 -0.385162 0
M  V30 9 C -1.00772 -0.09135 -0.444894 0
M  V30 10 C -1.3913 -1.34545 -1.09498 0
M  V30 11 N 1.07906 -2.2554 -0.456688 0
M  V30 12 H 2.48293 0.680379 2.25291 0
M  V30 13 H 3.43062 1.06452 0.786209 0
M  V30 14 H -0.0112276 3.20567 1.25921 0
M  V30 15 H -2.26881 2.98596 0.261091 0
M  V30 16 H -2.88907 0.834836 -0.838683 0
M  V30 17 H -0.829238 -1.57665 -2.03094 0
M  V30 18 H -2.45419 -1.22373 -1.47598 0
M  V30 19 H -1.48492 -2.2197 -0.408677 0
M  V30 20 H 0.698995 -3.0238 0.155664 0
M  V30 21 H 1.3124 -2.46818 -1.43868 0
M  V30 END ATOM
M  V30 BEGIN BOND
M  V30 1 1 1 2
M  V30 2 2 2 3 CFG=2
M  V30 3 1 3 4
M  V30 4 2 4 5
M  V30 5 1 5 6
M  V30 6 2 6 7
M  V30 7 1 7 8
M  V30 8 2 8 9
M  V30 9 1 9 10
M  V30 10 1 3 11
M  V30 11 1 9 4
M  V30 12 1 1 12
M  V30 13 1 1 13
M  V30 14 1 6 14
M  V30 15 1 7 15
M  V30 16 1 8 16
M  V30 17 1 10 17
M  V30 18 1 10 18
M  V30 19 1 10 19
M  V30 20 1 11 20
M  V30 21 1 11 21
M  V30 END BOND
M  V30 END CTAB
M  END
