
     RDKit          3D

  0  0  0  0  0  0  0  0  0  0999 V3000
M  V30 BEGIN CTAB
M  V30 COUNTS 57 59 0 0 0
M  V30 BEGIN ATOM
M  V30 1 C -1.24155 1.82711 4.08657 0
M  V30 2 C -1.7358 1.18733 2.78049 0
M  V30 3 C -2.82071 2.03657 2.18577 0
M  V30 4 C -3.34532 1.46364 0.918414 0
M  V30 5 C -4.4019 0.541402 0.933163 0
M  V30 6 C -4.91916 -0.00702412 -0.221347 0
M  V30 7 C -4.39923 0.344924 -1.44962 0
M  V30 8 N -3.38704 1.22885 -1.45988 0
M  V30 9 C -2.86367 1.78034 -0.334159 0
M  V30 10 N -4.89545 -0.184715 -2.59855 0
M  V30 11 C -5.90897 -1.06916 -2.58118 0
M  V30 12 N -6.42281 -1.61955 -3.79442 0
M  V30 13 N -6.42483 -1.42058 -1.38939 0
M  V30 14 C -5.95833 -0.914936 -0.216542 0
M  V30 15 N -6.49707 -1.28101 1.03924 0
M  V30 16 C -0.597285 0.876771 1.95673 0
M  V30 17 C -0.363121 -0.418933 1.55832 0
M  V30 18 C 0.735846 -0.76302 0.765052 0
M  V30 19 C 1.62461 0.184548 0.353776 0
M  V30 20 C 1.39439 1.50657 0.754399 0
M  V30 21 C 0.307797 1.83615 1.53662 0
M  V30 22 C 2.8038 -0.0565308 -0.461177 0
M  V30 23 O 3.32675 0.917549 -1.03362 0
M  V30 24 N 3.32919 -1.34419 -0.593006 0
M  V30 25 C 4.48083 -1.77616 -1.32734 0
M  V30 26 C 5.52464 -0.717749 -1.59959 0
M  V30 27 C 6.16624 -0.152208 -0.370735 0
M  V30 28 C 7.14786 0.909741 -0.68921 0
M  V30 29 O 7.3714 1.263 -1.99934 0
M  V30 30 O 7.76876 1.48119 0.223144 0
M  V30 31 C 4.23141 -2.55005 -2.53197 0
M  V30 32 O 5.27271 -3.01859 -3.31851 0
M  V30 33 O 3.05951 -2.82406 -2.9065 0
M  V30 34 H -2.0063 1.65204 4.88237 0
M  V30 35 H -1.06767 2.89845 3.90716 0
M  V30 36 H -0.325126 1.30144 4.42081 0
M  V30 37 H -2.23822 0.241051 3.09919 0
M  V30 38 H -2.52379 3.10071 2.05766 0
M  V30 39 H -3.64049 2.06376 2.94837 0
M  V30 40 H -4.81283 0.263205 1.90338 0
M  V30 41 H -2.04699 2.49384 -0.404631 0
M  V30 42 H -6.62537 -1.05488 -4.64032 0
M  V30 43 H -6.61125 -2.6569 -3.84637 0
M  V30 44 H -5.95145 -1.86135 1.70698 0
M  V30 45 H -7.44902 -0.987128 1.33976 0
M  V30 46 H -1.00987 -1.2447 1.8322 0
M  V30 47 H 0.892826 -1.78647 0.463839 0
M  V30 48 H 2.07956 2.29594 0.448523 0
M  V30 49 H 0.0903452 2.84434 1.86993 0
M  V30 50 H 2.77585 -2.10491 -0.0524429 0
M  V30 51 H 5.05405 -2.41789 -0.533355 0
M  V30 52 H 6.33617 -1.27999 -2.17133 0
M  V30 53 H 5.13405 -0.00592664 -2.31894 0
M  V30 54 H 6.75533 -1.03106 0.104257 0
M  V30 55 H 5.44812 0.0893785 0.410299 0
M  V30 56 H 8.22253 1.74608 -2.25369 0
M  V30 57 H 5.15603 -3.82622 -3.93783 0
M  V30 END ATOM
M  V30 BEGIN BOND
M  V30 1 1 1 2
M  V30 2 1 2 3
M  V30 3 1 3 4
M  V30 4 2 4 5
M  V30 5 1 5 6
M  V30 6 2 6 7
M  V30 7 1 7 8
M  V30 8 2 8 9
M  V30 9 1 7 10
M  V30 10 2 10 11
M  V30 11 1 11 12
M  V30 12 1 11 13
M  V30 13 2 13 14
M  V30 14 1 14 15
M  V30 15 1 2 16
M  V30 16 2 16 17
M  V30 17 1 17 18
M  V30 18 2 18 19
M  V30 19 1 19 20
M  V30 20 2 20 21
M  V30 21 1 19 22
M  V30 22 2 22 23
M  V30 23 1 22 24
M  V30 24 1 24 25
M  V30 25 1 25 26
M  V30 26 1 26 27
M  V30 27 1 27 28
M  V30 28 1 28 29
M  V30 29 2 28 30
M  V30 30 1 25 31
M  V30 31 1 31 32
M  V30 32 2 31 33
M  V30 33 1 9 4
M  V30 34 1 21 16
M  V30 35 1 14 6
M  V30 36 1 1 34
M  V30 37 1 1 35
M  V30 38 1 1 36
M  V30 39 1 2 37
M  V30 40 1 3 38
M  V30 41 1 3 39
M  V30 42 1 5 40
M  V30 43 1 9 41
M  V30 44 1 12 42
M  V30 45 1 12 43
M  V30 46 1 15 44
M  V30 47 1 15 45
M  V30 48 1 17 46
M  V30 49 1 18 47
M  V30 50 1 20 48
M  V30 51 1 21 49
M  V30 52 1 24 50
M  V30 53 1 25 51
M  V30 54 1 26 52
M  V30 55 1 26 53
M  V30 56 1 27 54
M  V30 57 1 27 55
M  V30 58 1 29 56
M  V30 59 1 32 57
M  V30 END BOND
M  V30 END CTAB
M  END
