
     RDKit          3D

  0  0  0  0  0  0  0  0  0  0999 V3000
M  V30 BEGIN CTAB
M  V30 COUNTS 31 31 0 0 0
M  V30 BEGIN ATOM
M  V30 1 O -1.07822 1.00037 -1.76956 0
M  V30 2 C -0.566515 0.415205 -0.785351 0
M  V30 3 C 0.874923 0.408893 -0.649901 0
M  V30 4 C 1.65384 1.04296 -1.60041 0
M  V30 5 C 3.01831 1.01298 -1.43367 0
M  V30 6 C 3.61015 0.377647 -0.361994 0
M  V30 7 C 2.83064 -0.256547 0.588669 0
M  V30 8 C 1.46369 -0.234164 0.433915 0
M  V30 9 N 3.46001 -0.909392 1.6917 0
M  V30 10 N 5.03127 0.354066 -0.200613 0
M  V30 11 O -1.32539 -0.220469 0.169505 0
M  V30 12 C -2.72757 -0.251446 0.0973414 0
M  V30 13 C -3.31432 1.15248 0.116293 0
M  V30 14 C -3.21505 -0.942971 1.36894 0
M  V30 15 C -3.25094 -1.02213 -1.0798 0
M  V30 16 H 1.1905 1.55385 -2.46108 0
M  V30 17 H 3.65613 1.50009 -2.16047 0
M  V30 18 H 0.84873 -0.737121 1.18811 0
M  V30 19 H 3.46482 -0.448771 2.62137 0
M  V30 20 H 3.92416 -1.84238 1.61171 0
M  V30 21 H 5.61784 0.42365 -1.05744 0
M  V30 22 H 5.44052 0.269155 0.755349 0
M  V30 23 H -2.7534 1.80813 0.801487 0
M  V30 24 H -4.353 1.02715 0.54195 0
M  V30 25 H -3.4318 1.5717 -0.890731 0
M  V30 26 H -2.91663 -0.323311 2.25356 0
M  V30 27 H -4.29114 -1.10803 1.37673 0
M  V30 28 H -2.6358 -1.89098 1.43085 0
M  V30 29 H -3.29951 -0.427401 -2.01349 0
M  V30 30 H -2.63274 -1.93808 -1.18135 0
M  V30 31 H -4.29351 -1.36512 -0.868051 0
M  V30 END ATOM
M  V30 BEGIN BOND
M  V30 1 2 1 2
M  V30 2 1 2 3
M  V30 3 2 3 4
M  V30 4 1 4 5
M  V30 5 2 5 6
M  V30 6 1 6 7
M  V30 7 2 7 8
M  V30 8 1 7 9
M  V30 9 1 6 10
M  V30 10 1 2 11
M  V30 11 1 11 12
M  V30 12 1 12 13
M  V30 13 1 12 14
M  V30 14 1 12 15
M  V30 15 1 8 3
M  V30 16 1 4 16
M  V30 17 1 5 17
M  V30 18 1 8 18
M  V30 19 1 9 19
M  V30 20 1 9 20
M  V30 21 1 10 21
M  V30 22 1 10 22
M  V30 23 1 13 23
M  V30 24 1 13 24
M  V30 25 1 13 25
M  V30 26 1 14 26
M  V30 27 1 14 27
M  V30 28 1 14 28
M  V30 29 1 15 29
M  V30 30 1 15 30
M  V30 31 1 15 31
M  V30 END BOND
M  V30 END CTAB
M  END
