
     RDKit          3D

  0  0  0  0  0  0  0  0  0  0999 V3000
M  V30 BEGIN CTAB
M  V30 COUNTS 24 24 0 0 0
M  V30 BEGIN ATOM
M  V30 1 N 3.47916 -0.083692 0.0869749 0
M  V30 2 C 2.83722 -1.33049 0.462227 0
M  V30 3 C 1.45838 -1.03567 0.985643 0
M  V30 4 N 0.699403 -0.387426 -0.0372908 0
M  V30 5 C -0.624858 0.0456558 0.0610235 0
M  V30 6 C -1.39104 -0.103567 1.19657 0
M  V30 7 C -2.71185 0.345842 1.24757 0
M  V30 8 C -3.28627 0.954251 0.155573 0
M  V30 9 C -2.53729 1.10662 -0.972019 0
M  V30 10 C -1.23243 0.655824 -1.00401 0
M  V30 11 N -0.50997 0.84235 -2.19845 0
M  V30 12 Cl -4.96368 1.5237 0.223798 0
M  V30 13 H 3.02649 0.678446 0.64197 0
M  V30 14 H 3.44875 0.0730687 -0.924856 0
M  V30 15 H 2.78386 -1.94369 -0.474 0
M  V30 16 H 3.45759 -1.89909 1.18152 0
M  V30 17 H 0.967072 -1.90447 1.44484 0
M  V30 18 H 1.59895 -0.29531 1.82783 0
M  V30 19 H 1.20711 -0.22691 -0.956058 0
M  V30 20 H -0.957775 -0.575568 2.05556 0
M  V30 21 H -3.30775 0.227478 2.13695 0
M  V30 22 H -2.9843 1.58214 -1.82734 0
M  V30 23 H -0.12542 -0.00705255 -2.668 0
M  V30 24 H -0.331367 1.75756 -2.64603 0
M  V30 END ATOM
M  V30 BEGIN BOND
M  V30 1 1 1 2
M  V30 2 1 2 3
M  V30 3 1 3 4
M  V30 4 1 4 5
M  V30 5 2 5 6
M  V30 6 1 6 7
M  V30 7 2 7 8
M  V30 8 1 8 9
M  V30 9 2 9 10
M  V30 10 1 10 11
M  V30 11 1 8 12
M  V30 12 1 10 5
M  V30 13 1 1 13
M  V30 14 1 1 14
M  V30 15 1 2 15
M  V30 16 1 2 16
M  V30 17 1 3 17
M  V30 18 1 3 18
M  V30 19 1 4 19
M  V30 20 1 6 20
M  V30 21 1 7 21
M  V30 22 1 9 22
M  V30 23 1 11 23
M  V30 24 1 11 24
M  V30 END BOND
M  V30 END CTAB
M  END
