
     RDKit          3D

  0  0  0  0  0  0  0  0  0  0999 V3000
M  V30 BEGIN CTAB
M  V30 COUNTS 32 32 0 0 0
M  V30 BEGIN ATOM
M  V30 1 N 5.43402 -1.29419 0.735359 0
M  V30 2 C 4.62295 -0.363566 0.341867 0
M  V30 3 N 5.18059 0.854291 -0.122242 0
M  V30 4 N 3.22141 -0.525538 0.361946 0
M  V30 5 C 2.37328 0.499218 -0.0699568 0
M  V30 6 O 2.86708 1.57556 -0.480172 0
M  V30 7 C 0.904049 0.373283 -0.0662364 0
M  V30 8 N 0.305669 -0.752163 0.360181 0
M  V30 9 C -1.02301 -0.912895 0.382104 0
M  V30 10 C -1.671 -2.17588 0.861381 0
M  V30 11 C -1.85302 0.121466 -0.0530649 0
M  V30 12 N -1.25519 1.2497 -0.480605 0
M  V30 13 C 0.0924879 1.39934 -0.497545 0
M  V30 14 N 0.703239 2.58754 -0.948388 0
M  V30 15 N -3.26372 -0.043559 -0.0320025 0
M  V30 16 C -3.89172 -0.305399 1.24857 0
M  V30 17 C -4.09533 0.035791 -1.21138 0
M  V30 18 H 6.4484 -1.1395 0.706035 0
M  V30 19 H 5.46402 1.56974 0.570903 0
M  V30 20 H 5.2993 1.01847 -1.13696 0
M  V30 21 H 2.82177 -1.41826 0.702472 0
M  V30 22 H -1.99231 -2.11452 1.90742 0
M  V30 23 H -0.855217 -2.95541 0.832402 0
M  V30 24 H -2.43804 -2.52488 0.157487 0
M  V30 25 H 0.812428 2.80245 -1.95431 0
M  V30 26 H 1.05433 3.26799 -0.249933 0
M  V30 27 H -4.20541 -1.36346 1.35837 0
M  V30 28 H -3.22436 -0.0151067 2.10296 0
M  V30 29 H -4.81601 0.302858 1.38553 0
M  V30 30 H -4.78284 -0.837661 -1.27886 0
M  V30 31 H -3.47261 0.15147 -2.12272 0
M  V30 32 H -4.76525 0.932826 -1.19021 0
M  V30 END ATOM
M  V30 BEGIN BOND
M  V30 1 2 1 2 CFG=2
M  V30 2 1 2 3
M  V30 3 1 2 4
M  V30 4 1 4 5
M  V30 5 2 5 6
M  V30 6 1 5 7
M  V30 7 2 7 8
M  V30 8 1 8 9
M  V30 9 1 9 10
M  V30 10 2 9 11
M  V30 11 1 11 12
M  V30 12 2 12 13
M  V30 13 1 13 14
M  V30 14 1 11 15
M  V30 15 1 15 16
M  V30 16 1 15 17
M  V30 17 1 13 7
M  V30 18 1 1 18
M  V30 19 1 3 19
M  V30 20 1 3 20
M  V30 21 1 4 21
M  V30 22 1 10 22
M  V30 23 1 10 23
M  V30 24 1 10 24
M  V30 25 1 14 25
M  V30 26 1 14 26
M  V30 27 1 16 27
M  V30 28 1 16 28
M  V30 29 1 16 29
M  V30 30 1 17 30
M  V30 31 1 17 31
M  V30 32 1 17 32
M  V30 END BOND
M  V30 END CTAB
M  END
