
     RDKit          3D

  0  0  0  0  0  0  0  0  0  0999 V3000
M  V30 BEGIN CTAB
M  V30 COUNTS 35 37 0 0 0
M  V30 BEGIN ATOM
M  V30 1 C 5.10517 -1.0818 -0.956344 0
M  V30 2 C 3.84726 -0.397841 -0.501653 0
M  V30 3 C 3.24657 -0.76055 0.682302 0
M  V30 4 C 2.08264 -0.119339 1.0912 0
M  V30 5 C 1.50237 0.877863 0.344583 0
M  V30 6 C 0.285799 1.53851 0.793147 0
M  V30 7 N -0.947105 0.905044 0.402776 0
M  V30 8 C -1.60487 1.18563 -0.725675 0
M  V30 9 N -1.27451 2.13007 -1.76275 0
M  V30 10 C -2.73204 0.374988 -0.742201 0
M  V30 11 C -3.73947 0.335248 -1.7739 0
M  V30 12 N -4.56181 0.307996 -2.60496 0
M  V30 13 C -2.70604 -0.378666 0.405147 0
M  V30 14 C -1.58212 -0.0470885 1.12945 0
M  V30 15 N -1.35256 -0.66829 2.30177 0
M  V30 16 C -2.1956 -1.60401 2.77989 0
M  V30 17 N -3.3094 -1.94796 2.08485 0
M  V30 18 C -3.57201 -1.3497 0.910902 0
M  V30 19 N -4.73149 -1.69029 0.161363 0
M  V30 20 C 2.11357 1.22956 -0.835414 0
M  V30 21 C 3.28841 0.590284 -1.25936 0
M  V30 22 H 5.30026 -0.797921 -1.99912 0
M  V30 23 H 5.93277 -0.823928 -0.263677 0
M  V30 24 H 4.91631 -2.17195 -0.837512 0
M  V30 25 H 3.70589 -1.54261 1.26299 0
M  V30 26 H 1.66888 -0.458586 2.03437 0
M  V30 27 H 0.250776 1.64851 1.92027 0
M  V30 28 H 0.217903 2.61283 0.447892 0
M  V30 29 H -0.822346 1.8734 -2.64375 0
M  V30 30 H -1.51873 3.13134 -1.58667 0
M  V30 31 H -2.01133 -2.10514 3.72463 0
M  V30 32 H -4.59219 -2.13714 -0.777701 0
M  V30 33 H -5.70048 -1.53526 0.462592 0
M  V30 34 H 1.73376 2.00214 -1.48586 0
M  V30 35 H 3.75577 0.874667 -2.18356 0
M  V30 END ATOM
M  V30 BEGIN BOND
M  V30 1 1 1 2
M  V30 2 2 2 3
M  V30 3 1 3 4
M  V30 4 2 4 5
M  V30 5 1 5 6
M  V30 6 1 6 7
M  V30 7 1 7 8
M  V30 8 1 8 9
M  V30 9 2 8 10
M  V30 10 1 10 11
M  V30 11 3 11 12
M  V30 12 1 10 13
M  V30 13 2 13 14
M  V30 14 1 14 15
M  V30 15 2 15 16
M  V30 16 1 16 17
M  V30 17 2 17 18
M  V30 18 1 18 19
M  V30 19 1 5 20
M  V30 20 2 20 21
M  V30 21 1 21 2
M  V30 22 1 14 7
M  V30 23 1 18 13
M  V30 24 1 1 22
M  V30 25 1 1 23
M  V30 26 1 1 24
M  V30 27 1 3 25
M  V30 28 1 4 26
M  V30 29 1 6 27
M  V30 30 1 6 28
M  V30 31 1 9 29
M  V30 32 1 9 30
M  V30 33 1 16 31
M  V30 34 1 19 32
M  V30 35 1 19 33
M  V30 36 1 20 34
M  V30 37 1 21 35
M  V30 END BOND
M  V30 END CTAB
M  END
