
     RDKit          3D

  0  0  0  0  0  0  0  0  0  0999 V3000
M  V30 BEGIN CTAB
M  V30 COUNTS 23 23 0 0 0
M  V30 BEGIN ATOM
M  V30 1 C -3.32192 0.386598 0.473111 0
M  V30 2 C -2.55055 -0.0822246 -0.762235 0
M  V30 3 C -2.07517 -1.48222 -0.489802 0
M  V30 4 S -1.01626 -1.47518 0.965262 0
M  V30 5 C 0.512315 -0.616172 0.757954 0
M  V30 6 N 0.681645 0.692977 1.02614 0
M  V30 7 C 1.83528 1.3549 0.872931 0
M  V30 8 N 1.92765 2.73656 1.17939 0
M  V30 9 N 2.89081 0.654363 0.419472 0
M  V30 10 C 2.8093 -0.646243 0.129665 0
M  V30 11 N 1.6337 -1.25395 0.301817 0
M  V30 12 N 3.90515 -1.41895 -0.351521 0
M  V30 13 F -1.53841 0.802247 -0.975848 0
M  V30 14 F -3.404 -0.05023 -1.86308 0
M  V30 15 H -3.79634 -0.51367 0.905325 0
M  V30 16 H -4.06809 1.1532 0.157143 0
M  V30 17 H -2.56917 0.794995 1.17074 0
M  V30 18 H -1.47538 -1.89005 -1.33189 0
M  V30 19 H -2.91144 -2.18069 -0.281128 0
M  V30 20 H 2.80922 3.26071 1.1135 0
M  V30 21 H 1.08227 3.24973 1.48257 0
M  V30 22 H 4.73271 -1.01464 -0.83306 0
M  V30 23 H 3.90667 -2.46207 -0.227521 0
M  V30 END ATOM
M  V30 BEGIN BOND
M  V30 1 1 1 2
M  V30 2 1 2 3
M  V30 3 1 3 4
M  V30 4 1 4 5
M  V30 5 2 5 6
M  V30 6 1 6 7
M  V30 7 1 7 8
M  V30 8 2 7 9
M  V30 9 1 9 10
M  V30 10 2 10 11
M  V30 11 1 10 12
M  V30 12 1 2 13
M  V30 13 1 2 14
M  V30 14 1 11 5
M  V30 15 1 1 15
M  V30 16 1 1 16
M  V30 17 1 1 17
M  V30 18 1 3 18
M  V30 19 1 3 19
M  V30 20 1 8 20
M  V30 21 1 8 21
M  V30 22 1 12 22
M  V30 23 1 12 23
M  V30 END BOND
M  V30 END CTAB
M  END
