
     RDKit          3D

  0  0  0  0  0  0  0  0  0  0999 V3000
M  V30 BEGIN CTAB
M  V30 COUNTS 30 30 0 0 0
M  V30 BEGIN ATOM
M  V30 1 C 3.97527 -1.94278 -0.498074 0
M  V30 2 N 3.00193 -0.865364 -0.359632 0
M  V30 3 N 1.68906 -0.934365 -0.351321 0
M  V30 4 C 1.15862 0.279625 -0.202408 0
M  V30 5 N 2.20722 1.11299 -0.117827 0
M  V30 6 C 3.36836 0.406689 -0.215111 0
M  V30 7 N 4.68929 0.931342 -0.170126 0
M  V30 8 C -0.243086 0.72408 -0.132817 0
M  V30 9 C -1.21868 -0.421169 -0.2549 0
M  V30 10 C -2.61593 0.186407 -0.166265 0
M  V30 11 N -2.79296 1.13048 -1.23742 0
M  V30 12 C -2.79721 0.910095 1.13714 0
M  V30 13 C -3.68061 -0.87203 -0.279034 0
M  V30 14 H 3.52741 -2.93617 -0.471427 0
M  V30 15 H 4.7345 -1.90423 0.318936 0
M  V30 16 H 4.55083 -1.84117 -1.45336 0
M  V30 17 H 5.45138 0.379572 -0.591205 0
M  V30 18 H 4.84908 1.84643 0.280861 0
M  V30 19 H -0.428651 1.38653 -1.02143 0
M  V30 20 H -0.479763 1.28592 0.785576 0
M  V30 21 H -1.05863 -1.12272 0.590863 0
M  V30 22 H -1.08767 -1.00132 -1.17877 0
M  V30 23 H -3.75618 1.20502 -1.59139 0
M  V30 24 H -2.39063 2.07839 -1.02714 0
M  V30 25 H -2.35404 0.352744 1.98519 0
M  V30 26 H -2.39686 1.93651 1.03689 0
M  V30 27 H -3.88601 1.00831 1.32802 0
M  V30 28 H -3.90404 -1.17584 -1.30727 0
M  V30 29 H -3.48367 -1.73987 0.397449 0
M  V30 30 H -4.62833 -0.404103 0.114953 0
M  V30 END ATOM
M  V30 BEGIN BOND
M  V30 1 1 1 2
M  V30 2 1 2 3
M  V30 3 2 3 4
M  V30 4 1 4 5
M  V30 5 2 5 6
M  V30 6 1 6 7
M  V30 7 1 4 8
M  V30 8 1 8 9
M  V30 9 1 9 10
M  V30 10 1 10 11
M  V30 11 1 10 12
M  V30 12 1 10 13
M  V30 13 1 6 2
M  V30 14 1 1 14
M  V30 15 1 1 15
M  V30 16 1 1 16
M  V30 17 1 7 17
M  V30 18 1 7 18
M  V30 19 1 8 19
M  V30 20 1 8 20
M  V30 21 1 9 21
M  V30 22 1 9 22
M  V30 23 1 11 23
M  V30 24 1 11 24
M  V30 25 1 12 25
M  V30 26 1 12 26
M  V30 27 1 12 27
M  V30 28 1 13 28
M  V30 29 1 13 29
M  V30 30 1 13 30
M  V30 END BOND
M  V30 END CTAB
M  END
