
     RDKit          3D

  0  0  0  0  0  0  0  0  0  0999 V3000
M  V30 BEGIN CTAB
M  V30 COUNTS 27 28 0 0 0
M  V30 BEGIN ATOM
M  V30 1 N -3.1408 0.92411 -0.297947 0
M  V30 2 C -2.56853 -0.307921 0.0953758 0
M  V30 3 C -1.10451 -0.42444 0.11751 0
M  V30 4 C -0.610722 -1.67498 0.549784 0
M  V30 5 N -1.54205 -2.72148 0.898255 0
M  V30 6 N 0.697642 -1.8647 0.627583 0
M  V30 7 C 1.55479 -0.886673 0.302788 0
M  V30 8 C 1.12557 0.377584 -0.134029 0
M  V30 9 C -0.257961 0.599678 -0.226402 0
M  V30 10 C -0.72107 1.8895 -0.727199 0
M  V30 11 C 2.04738 1.33587 -0.436454 0
M  V30 12 C 3.42614 1.07357 -0.318803 0
M  V30 13 C 3.80336 -0.15818 0.104167 0
M  V30 14 C 2.90625 -1.14705 0.418877 0
M  V30 15 F 4.28174 2.07329 -0.637166 0
M  V30 16 H -3.39994 1.57847 0.474056 0
M  V30 17 H -4.01074 0.75744 -0.850072 0
M  V30 18 H -3.02136 -1.18589 -0.482806 0
M  V30 19 H -2.98837 -0.509755 1.13975 0
M  V30 20 H -1.83737 -3.47462 0.256377 0
M  V30 21 H -1.92784 -2.7012 1.85288 0
M  V30 22 H 0.124244 2.42696 -1.24386 0
M  V30 23 H -1.39579 1.69559 -1.63187 0
M  V30 24 H -1.26705 2.53666 -0.0585308 0
M  V30 25 H 1.74934 2.31429 -0.755411 0
M  V30 26 H 4.86553 -0.390488 0.204481 0
M  V30 27 H 3.21213 -2.13563 0.758675 0
M  V30 END ATOM
M  V30 BEGIN BOND
M  V30 1 1 1 2
M  V30 2 1 2 3
M  V30 3 2 3 4
M  V30 4 1 4 5
M  V30 5 1 4 6
M  V30 6 2 6 7
M  V30 7 1 7 8
M  V30 8 2 8 9
M  V30 9 1 9 10
M  V30 10 1 8 11
M  V30 11 2 11 12
M  V30 12 1 12 13
M  V30 13 2 13 14
M  V30 14 1 12 15
M  V30 15 1 9 3
M  V30 16 1 14 7
M  V30 17 1 1 16
M  V30 18 1 1 17
M  V30 19 1 2 18
M  V30 20 1 2 19
M  V30 21 1 5 20
M  V30 22 1 5 21
M  V30 23 1 10 22
M  V30 24 1 10 23
M  V30 25 1 10 24
M  V30 26 1 11 25
M  V30 27 1 13 26
M  V30 28 1 14 27
M  V30 END BOND
M  V30 END CTAB
M  END
