
     RDKit          3D

  0  0  0  0  0  0  0  0  0  0999 V3000
M  V30 BEGIN CTAB
M  V30 COUNTS 27 27 0 0 0
M  V30 BEGIN ATOM
M  V30 1 N 4.07087 -1.91726 -0.636948 0
M  V30 2 C 2.87183 -1.12966 -0.920282 0
M  V30 3 C 2.37066 -0.620519 0.411326 0
M  V30 4 C 1.14145 0.204261 0.261183 0
M  V30 5 N -0.0557999 -0.420935 0.318224 0
M  V30 6 C -1.21435 0.265777 0.189662 0
M  V30 7 N -1.12568 1.57852 0.00527721 0
M  V30 8 C 0.0272964 2.26571 -0.0617618 0
M  V30 9 N 1.16553 1.53749 0.0721594 0
M  V30 10 N 0.036797 3.66596 -0.26067 0
M  V30 11 N -2.47149 -0.391474 0.249641 0
M  V30 12 C -3.67582 0.403506 0.104532 0
M  V30 13 C -2.61004 -1.80534 0.446993 0
M  V30 14 H 4.85093 -1.24851 -0.409226 0
M  V30 15 H 3.82626 -2.48975 0.221416 0
M  V30 16 H 3.10796 -0.292288 -1.61165 0
M  V30 17 H 2.1189 -1.80595 -1.3816 0
M  V30 18 H 2.14282 -1.52697 1.03306 0
M  V30 19 H 3.16677 -0.00929094 0.882571 0
M  V30 20 H 0.228123 4.09652 -1.18282 0
M  V30 21 H -0.154784 4.28777 0.545777 0
M  V30 22 H -3.57165 0.930065 -0.885875 0
M  V30 23 H -4.58313 -0.206778 0.106888 0
M  V30 24 H -3.69596 1.18096 0.919511 0
M  V30 25 H -1.86177 -2.13009 1.21476 0
M  V30 26 H -3.59563 -2.03425 0.86163 0
M  V30 27 H -2.5101 -2.38747 -0.493773 0
M  V30 END ATOM
M  V30 BEGIN BOND
M  V30 1 1 1 2
M  V30 2 1 2 3
M  V30 3 1 3 4
M  V30 4 2 4 5
M  V30 5 1 5 6
M  V30 6 2 6 7
M  V30 7 1 7 8
M  V30 8 2 8 9
M  V30 9 1 8 10
M  V30 10 1 6 11
M  V30 11 1 11 12
M  V30 12 1 11 13
M  V30 13 1 9 4
M  V30 14 1 1 14
M  V30 15 1 1 15
M  V30 16 1 2 16
M  V30 17 1 2 17
M  V30 18 1 3 18
M  V30 19 1 3 19
M  V30 20 1 10 20
M  V30 21 1 10 21
M  V30 22 1 12 22
M  V30 23 1 12 23
M  V30 24 1 12 24
M  V30 25 1 13 25
M  V30 26 1 13 26
M  V30 27 1 13 27
M  V30 END BOND
M  V30 END CTAB
M  END
