
     RDKit          3D

  0  0  0  0  0  0  0  0  0  0999 V3000
M  V30 BEGIN CTAB
M  V30 COUNTS 31 32 0 0 0
M  V30 BEGIN ATOM
M  V30 1 N -0.53281 2.02148 -1.41796 0
M  V30 2 C -0.922122 0.804394 -0.885072 0 CFG=2
M  V30 3 C -2.36485 0.843546 -0.368927 0 CFG=2
M  V30 4 O -2.54244 2.14714 0.149421 0
M  V30 5 C -2.31211 -0.182072 0.724885 0 CFG=1
M  V30 6 C -3.24254 -1.337 0.340479 0
M  V30 7 O -3.24483 -2.32855 1.30536 0
M  V30 8 O -1.01636 -0.5926 0.880032 0
M  V30 9 C -0.214976 0.448743 0.427277 0 CFG=1
M  V30 10 N 1.14867 0.101568 0.236345 0
M  V30 11 C 1.54089 -0.958128 -0.469714 0
M  V30 12 C 2.86777 -1.26594 -0.635192 0
M  V30 13 C 3.84251 -0.461897 -0.0579081 0
M  V30 14 N 5.22473 -0.755398 -0.211885 0
M  V30 15 N 3.41513 0.600104 0.648573 0
M  V30 16 C 2.11261 0.870643 0.789556 0
M  V30 17 O 1.74905 1.89003 1.46921 0
M  V30 18 H 0.268793 2.12096 -1.96219 0
M  V30 19 H -1.06358 2.81563 -1.14966 0
M  V30 20 H -0.871347 -0.0588169 -1.5786 0
M  V30 21 H -3.08877 0.611309 -1.16011 0
M  V30 22 H -3.25783 2.1607 0.837939 0
M  V30 23 H -2.70544 0.206364 1.69274 0
M  V30 24 H -4.27868 -0.906232 0.317263 0
M  V30 25 H -3.0336 -1.71302 -0.673163 0
M  V30 26 H -2.49672 -2.96951 1.09463 0
M  V30 27 H -0.344168 1.30032 1.09607 0
M  V30 28 H 0.74467 -1.56822 -0.909573 0
M  V30 29 H 3.17721 -2.11959 -1.20416 0
M  V30 30 H 5.69283 -0.612346 -1.11568 0
M  V30 31 H 5.74831 -1.11361 0.597535 0
M  V30 END ATOM
M  V30 BEGIN BOND
M  V30 1 1 1 2
M  V30 2 1 2 3
M  V30 3 1 3 4
M  V30 4 1 3 5
M  V30 5 1 5 6
M  V30 6 1 6 7
M  V30 7 1 5 8
M  V30 8 1 8 9
M  V30 9 1 9 10
M  V30 10 1 10 11
M  V30 11 2 11 12
M  V30 12 1 12 13
M  V30 13 1 13 14
M  V30 14 2 13 15
M  V30 15 1 15 16
M  V30 16 2 16 17
M  V30 17 1 9 2
M  V30 18 1 16 10
M  V30 19 1 1 18
M  V30 20 1 1 19
M  V30 21 1 2 20 CFG=3
M  V30 22 1 3 21 CFG=3
M  V30 23 1 4 22
M  V30 24 1 5 23 CFG=1
M  V30 25 1 6 24
M  V30 26 1 6 25
M  V30 27 1 7 26
M  V30 28 1 9 27 CFG=1
M  V30 29 1 11 28
M  V30 30 1 12 29
M  V30 31 1 14 30
M  V30 32 1 14 31
M  V30 END BOND
M  V30 END CTAB
M  END
