
     RDKit          3D

  0  0  0  0  0  0  0  0  0  0999 V3000
M  V30 BEGIN CTAB
M  V30 COUNTS 18 17 0 0 0
M  V30 BEGIN ATOM
M  V30 1 N -3.0454 0.0125083 0.103228 0
M  V30 2 N -1.84513 0.696072 -0.0216936 0
M  V30 3 C -0.74288 0.154288 -0.484369 0
M  V30 4 N -0.86481 -1.2025 -0.854689 0
M  V30 5 C 0.492943 0.953702 -0.581374 0
M  V30 6 F 1.06147 0.834029 -1.85082 0
M  V30 7 F 0.062402 2.30472 -0.519086 0
M  V30 8 C 1.47159 0.798904 0.517701 0
M  V30 9 F 2.59117 1.6117 0.296703 0
M  V30 10 F 0.871675 1.24314 1.6905 0
M  V30 11 C 1.99518 -0.56599 0.792668 0
M  V30 12 F 2.64342 -1.14875 -0.280946 0
M  V30 13 F 3.0355 -0.375507 1.73952 0
M  V30 14 F 1.10544 -1.44257 1.34886 0
M  V30 15 H -3.36086 -0.662321 -0.6163 0
M  V30 16 H -3.65179 0.168709 0.928412 0
M  V30 17 H -0.452615 -1.53167 -1.73603 0
M  V30 18 H -1.36732 -1.84847 -0.234729 0
M  V30 END ATOM
M  V30 BEGIN BOND
M  V30 1 1 1 2
M  V30 2 2 2 3 CFG=2
M  V30 3 1 3 4
M  V30 4 1 3 5
M  V30 5 1 5 6
M  V30 6 1 5 7
M  V30 7 1 5 8
M  V30 8 1 8 9
M  V30 9 1 8 10
M  V30 10 1 8 11
M  V30 11 1 11 12
M  V30 12 1 11 13
M  V30 13 1 11 14
M  V30 14 1 1 15
M  V30 15 1 1 16
M  V30 16 1 4 17
M  V30 17 1 4 18
M  V30 END BOND
M  V30 END CTAB
M  END
