
     RDKit          3D

  0  0  0  0  0  0  0  0  0  0999 V3000
M  V30 BEGIN CTAB
M  V30 COUNTS 24 23 0 0 0
M  V30 BEGIN ATOM
M  V30 1 N -3.74935 0.329461 -0.259033 0
M  V30 2 S -2.59874 -0.930212 -0.240244 0
M  V30 3 O -1.89574 -0.951669 -1.56053 0
M  V30 4 O -3.4281 -2.21828 -0.212013 0
M  V30 5 C -1.51104 -0.894708 1.14085 0
M  V30 6 F -2.40846 -1.02491 2.26335 0
M  V30 7 F -0.85039 -2.097 1.20532 0
M  V30 8 C -0.734089 0.321053 1.37325 0
M  V30 9 F -1.56579 1.4466 1.58899 0
M  V30 10 F -0.130232 0.187647 2.6447 0
M  V30 11 C 0.323083 0.776787 0.4689 0
M  V30 12 F 0.880317 1.9882 0.971476 0
M  V30 13 F -0.0937389 1.14666 -0.797997 0
M  V30 14 C 1.52372 -0.117526 0.316022 0
M  V30 15 F 2.1625 -0.34018 1.53655 0
M  V30 16 F 1.29549 -1.24149 -0.40205 0
M  V30 17 S 2.78698 0.836329 -0.585709 0
M  V30 18 N 4.1422 -0.233529 -0.734609 0
M  V30 19 O 2.26373 1.27755 -1.89965 0
M  V30 20 O 3.22636 1.99257 0.264633 0
M  V30 21 H -4.61525 0.0484754 -0.741694 0
M  V30 22 H -3.38421 1.23024 -0.63263 0
M  V30 23 H 4.56481 -0.340202 0.218674 0
M  V30 24 H 3.79593 -1.19186 -1.00803 0
M  V30 END ATOM
M  V30 BEGIN BOND
M  V30 1 1 1 2
M  V30 2 2 2 3
M  V30 3 2 2 4
M  V30 4 1 2 5
M  V30 5 1 5 6
M  V30 6 1 5 7
M  V30 7 1 5 8
M  V30 8 1 8 9
M  V30 9 1 8 10
M  V30 10 1 8 11
M  V30 11 1 11 12
M  V30 12 1 11 13
M  V30 13 1 11 14
M  V30 14 1 14 15
M  V30 15 1 14 16
M  V30 16 1 14 17
M  V30 17 1 17 18
M  V30 18 2 17 19
M  V30 19 2 17 20
M  V30 20 1 1 21
M  V30 21 1 1 22
M  V30 22 1 18 23
M  V30 23 1 18 24
M  V30 END BOND
M  V30 END CTAB
M  END
