
     RDKit          3D

  0  0  0  0  0  0  0  0  0  0999 V3000
M  V30 BEGIN CTAB
M  V30 COUNTS 22 23 0 0 0
M  V30 BEGIN ATOM
M  V30 1 N -3.63243 0.622822 0.127707 0
M  V30 2 C -2.51523 -0.304886 0.175092 0
M  V30 3 C -1.24204 0.451572 -0.00263943 0
M  V30 4 C -1.125 1.80341 -0.182838 0
M  V30 5 N 0.201145 2.10907 -0.306326 0
M  V30 6 C 0.922364 0.978451 -0.207756 0
M  V30 7 C 0.0397682 -0.0634194 -0.0184341 0
M  V30 8 C 0.48572 -1.3772 0.121075 0
M  V30 9 O -0.362058 -2.27917 0.290304 0
M  V30 10 N 1.80764 -1.57172 0.0617954 0
M  V30 11 C 2.68733 -0.5635 -0.123036 0
M  V30 12 N 4.07758 -0.851205 -0.174725 0
M  V30 13 N 2.23347 0.693582 -0.254797 0
M  V30 14 H -3.86199 0.958564 1.11114 0
M  V30 15 H -4.46998 0.0690388 -0.160838 0
M  V30 16 H -2.57216 -0.827931 1.13502 0
M  V30 17 H -2.65738 -1.01505 -0.671085 0
M  V30 18 H -1.93455 2.52726 -0.2238 0
M  V30 19 H 0.591131 3.06541 -0.45337 0
M  V30 20 H 2.15079 -2.55947 0.166195 0
M  V30 21 H 4.68889 -0.161037 -0.668235 0
M  V30 22 H 4.48698 -1.70459 0.253148 0
M  V30 END ATOM
M  V30 BEGIN BOND
M  V30 1 1 1 2
M  V30 2 1 2 3
M  V30 3 2 3 4
M  V30 4 1 4 5
M  V30 5 1 5 6
M  V30 6 2 6 7
M  V30 7 1 7 8
M  V30 8 2 8 9
M  V30 9 1 8 10
M  V30 10 1 10 11
M  V30 11 1 11 12
M  V30 12 2 11 13
M  V30 13 1 7 3
M  V30 14 1 13 6
M  V30 15 1 1 14
M  V30 16 1 1 15
M  V30 17 1 2 16
M  V30 18 1 2 17
M  V30 19 1 4 18
M  V30 20 1 5 19
M  V30 21 1 10 20
M  V30 22 1 12 21
M  V30 23 1 12 22
M  V30 END BOND
M  V30 END CTAB
M  END
