
     RDKit          3D

  0  0  0  0  0  0  0  0  0  0999 V3000
M  V30 BEGIN CTAB
M  V30 COUNTS 37 37 0 0 0
M  V30 BEGIN ATOM
M  V30 1 C 2.81039 1.46822 1.3788 0
M  V30 2 C 2.53911 0.434578 0.315077 0
M  V30 3 C 3.07146 0.957883 -0.998463 0
M  V30 4 C 3.29809 -0.822155 0.702923 0
M  V30 5 O 1.14236 0.187602 0.253791 0
M  V30 6 C 0.578271 -0.712325 -0.624748 0
M  V30 7 O 1.33707 -1.33635 -1.40043 0
M  V30 8 C -0.87889 -0.961805 -0.67916 0
M  V30 9 C -1.49179 -1.23658 -2.06586 0
M  V30 10 C -1.24658 -2.33664 -1.12252 0
M  V30 11 C -1.79739 -0.212125 0.233358 0
M  V30 12 C -3.25251 -0.604 0.040084 0
M  V30 13 N -1.49145 -0.433133 1.63613 0
M  V30 14 C -1.76407 1.2857 0.00510917 0
M  V30 15 N -2.67397 1.94996 0.917149 0
M  V30 16 H 1.95561 2.1021 1.60736 0
M  V30 17 H 3.66278 2.10732 1.06419 0
M  V30 18 H 3.13878 0.980912 2.34109 0
M  V30 19 H 3.62853 0.165991 -1.54348 0
M  V30 20 H 3.79811 1.80195 -0.819289 0
M  V30 21 H 2.27698 1.38374 -1.64076 0
M  V30 22 H 4.01718 -0.624984 1.5443 0
M  V30 23 H 3.90584 -1.1695 -0.168159 0
M  V30 24 H 2.5994 -1.58168 1.07088 0
M  V30 25 H -0.761954 -1.07133 -2.91172 0
M  V30 26 H -2.50072 -0.899103 -2.29035 0
M  V30 27 H -2.11191 -2.88589 -0.751223 0
M  V30 28 H -0.420431 -3.04168 -1.43614 0
M  V30 29 H -3.78632 -0.117247 0.911975 0
M  V30 30 H -3.70853 -0.128092 -0.853689 0
M  V30 31 H -3.45308 -1.6674 0.152253 0
M  V30 32 H -1.65099 -1.40186 1.94378 0
M  V30 33 H -2.13912 0.201666 2.17188 0
M  V30 34 H -2.05485 1.55532 -1.03243 0
M  V30 35 H -0.75914 1.71498 0.175248 0
M  V30 36 H -2.23003 2.75796 1.39907 0
M  V30 37 H -3.58623 2.18799 0.473994 0
M  V30 END ATOM
M  V30 BEGIN BOND
M  V30 1 1 1 2
M  V30 2 1 2 3
M  V30 3 1 2 4
M  V30 4 1 2 5
M  V30 5 1 5 6
M  V30 6 2 6 7
M  V30 7 1 6 8
M  V30 8 1 8 9
M  V30 9 1 9 10
M  V30 10 1 8 11
M  V30 11 1 11 12
M  V30 12 1 11 13
M  V30 13 1 11 14
M  V30 14 1 14 15
M  V30 15 1 10 8
M  V30 16 1 1 16
M  V30 17 1 1 17
M  V30 18 1 1 18
M  V30 19 1 3 19
M  V30 20 1 3 20
M  V30 21 1 3 21
M  V30 22 1 4 22
M  V30 23 1 4 23
M  V30 24 1 4 24
M  V30 25 1 9 25
M  V30 26 1 9 26
M  V30 27 1 10 27
M  V30 28 1 10 28
M  V30 29 1 12 29
M  V30 30 1 12 30
M  V30 31 1 12 31
M  V30 32 1 13 32
M  V30 33 1 13 33
M  V30 34 1 14 34
M  V30 35 1 14 35
M  V30 36 1 15 36
M  V30 37 1 15 37
M  V30 END BOND
M  V30 END CTAB
M  END
