
     RDKit          3D

  0  0  0  0  0  0  0  0  0  0999 V3000
M  V30 BEGIN CTAB
M  V30 COUNTS 35 36 0 0 0
M  V30 BEGIN ATOM
M  V30 1 N -4.57526 0.6919 -0.235817 0
M  V30 2 C -3.99045 0.825324 1.01957 0
M  V30 3 C -2.49219 0.740786 0.96501 0
M  V30 4 N -1.9598 -0.477349 0.467765 0
M  V30 5 C -2.16955 -0.742502 -0.908557 0
M  V30 6 C -1.15897 -1.617 -1.58159 0
M  V30 7 O 0.0892493 -1.64167 -1.02074 0
M  V30 8 C 0.287122 -0.462433 -0.30763 0 CFG=1
M  V30 9 C -0.591133 -0.583849 0.923428 0
M  V30 10 C 1.68517 -0.18505 0.0216303 0
M  V30 11 C 2.51905 -1.16344 0.510828 0
M  V30 12 C 3.83451 -0.88843 0.819065 0
M  V30 13 C 4.32123 0.376649 0.636785 0
M  V30 14 C 3.50026 1.3733 0.146291 0
M  V30 15 C 2.20737 1.08012 -0.150839 0
M  V30 16 N 5.69335 0.678243 0.955447 0
M  V30 17 H -5.45167 0.271687 -0.313274 0
M  V30 18 H -4.33684 1.37469 -0.893624 0
M  V30 19 H -4.31776 1.80736 1.4677 0
M  V30 20 H -4.41904 0.0672677 1.72576 0
M  V30 21 H -2.08021 0.871008 2.01039 0
M  V30 22 H -2.10822 1.64816 0.423407 0
M  V30 23 H -3.15407 -1.29207 -1.00821 0
M  V30 24 H -2.31682 0.222276 -1.46933 0
M  V30 25 H -1.02342 -1.21171 -2.63006 0
M  V30 26 H -1.53324 -2.65992 -1.6834 0
M  V30 27 H -0.110922 0.359103 -0.932986 0
M  V30 28 H -0.454032 -1.6055 1.32962 0
M  V30 29 H -0.334524 0.158014 1.68767 0
M  V30 30 H 2.11306 -2.17329 0.651378 0
M  V30 31 H 4.47738 -1.67915 1.20366 0
M  V30 32 H 3.89654 2.38382 0.00330851 0
M  V30 33 H 1.58559 1.88718 -0.536594 0
M  V30 34 H 6.00359 1.67106 1.02123 0
M  V30 35 H 6.36464 -0.104617 1.11755 0
M  V30 END ATOM
M  V30 BEGIN BOND
M  V30 1 1 1 2
M  V30 2 1 2 3
M  V30 3 1 3 4
M  V30 4 1 4 5
M  V30 5 1 5 6
M  V30 6 1 6 7
M  V30 7 1 7 8
M  V30 8 1 8 9
M  V30 9 1 8 10
M  V30 10 2 10 11
M  V30 11 1 11 12
M  V30 12 2 12 13
M  V30 13 1 13 14
M  V30 14 2 14 15
M  V30 15 1 13 16
M  V30 16 1 9 4
M  V30 17 1 15 10
M  V30 18 1 1 17
M  V30 19 1 1 18
M  V30 20 1 2 19
M  V30 21 1 2 20
M  V30 22 1 3 21
M  V30 23 1 3 22
M  V30 24 1 5 23
M  V30 25 1 5 24
M  V30 26 1 6 25
M  V30 27 1 6 26
M  V30 28 1 8 27 CFG=3
M  V30 29 1 9 28
M  V30 30 1 9 29
M  V30 31 1 11 30
M  V30 32 1 12 31
M  V30 33 1 14 32
M  V30 34 1 15 33
M  V30 35 1 16 34
M  V30 36 1 16 35
M  V30 END BOND
M  V30 END CTAB
M  END
