
     RDKit          3D

  0  0  0  0  0  0  0  0  0  0999 V3000
M  V30 BEGIN CTAB
M  V30 COUNTS 20 20 0 0 0
M  V30 BEGIN ATOM
M  V30 1 N -2.5915 -0.521101 0.487928 0
M  V30 2 C -1.97388 -1.26791 1.52001 0
M  V30 3 N -2.79128 -1.8529 2.52214 0
M  V30 4 N -0.717109 -1.43841 1.58955 0
M  V30 5 N 0.17555 -0.922755 0.680552 0
M  V30 6 C 0.355742 0.481391 0.505406 0
M  V30 7 O -0.299046 1.31823 1.17995 0
M  V30 8 C 1.30638 1.01303 -0.462713 0
M  V30 9 C 2.12717 0.250233 -1.30651 0
M  V30 10 C 2.87293 1.12175 -2.06303 0
M  V30 11 C 2.49356 2.37932 -1.66715 0
M  V30 12 O 1.57978 2.2645 -0.734007 0
M  V30 13 H -3.48341 -0.0270775 0.693937 0
M  V30 14 H -2.2031 -0.437061 -0.470148 0
M  V30 15 H -3.46671 -2.61894 2.34457 0
M  V30 16 H -2.74865 -1.52381 3.53206 0
M  V30 17 H 0.740098 -1.56165 0.0994836 0
M  V30 18 H 2.12577 -0.829338 -1.31208 0
M  V30 19 H 3.59671 0.85636 -2.80446 0
M  V30 20 H 2.90098 3.31613 -2.07746 0
M  V30 END ATOM
M  V30 BEGIN BOND
M  V30 1 1 1 2
M  V30 2 1 2 3
M  V30 3 2 2 4
M  V30 4 1 4 5
M  V30 5 1 5 6
M  V30 6 2 6 7
M  V30 7 1 6 8
M  V30 8 2 8 9
M  V30 9 1 9 10
M  V30 10 2 10 11
M  V30 11 1 11 12
M  V30 12 1 12 8
M  V30 13 1 1 13
M  V30 14 1 1 14
M  V30 15 1 3 15
M  V30 16 1 3 16
M  V30 17 1 5 17
M  V30 18 1 9 18
M  V30 19 1 10 19
M  V30 20 1 11 20
M  V30 END BOND
M  V30 END CTAB
M  END
