
     RDKit          3D

  0  0  0  0  0  0  0  0  0  0999 V3000
M  V30 BEGIN CTAB
M  V30 COUNTS 27 27 0 0 0
M  V30 BEGIN ATOM
M  V30 1 N -3.75751 1.25418 -0.910244 0
M  V30 2 N -3.10529 0.353845 -0.0507742 0
M  V30 3 C -3.16616 -1.03412 -0.30893 0
M  V30 4 O -3.8272 -1.44232 -1.32797 0
M  V30 5 C -2.53288 -2.06377 0.500925 0
M  V30 6 S -1.35931 -1.42779 1.65598 0
M  V30 7 C 0.170954 -0.839033 0.960691 0
M  V30 8 C 1.22868 -1.73992 0.726869 0
M  V30 9 C 2.43694 -1.33683 0.207609 0
M  V30 10 C 2.65618 0.00117894 -0.108354 0
M  V30 11 C 1.64572 0.896544 0.11019 0
M  V30 12 C 0.45276 0.458187 0.629108 0
M  V30 13 C 1.87299 2.34347 -0.225744 0
M  V30 14 N 3.92005 0.361794 -0.641054 0
M  V30 15 H -3.30549 1.27792 -1.84135 0
M  V30 16 H -3.82728 2.21591 -0.530159 0
M  V30 17 H -2.61503 0.777591 0.759956 0
M  V30 18 H -3.36084 -2.55402 1.10467 0
M  V30 19 H -2.04128 -2.85997 -0.111731 0
M  V30 20 H 1.02023 -2.78103 0.983391 0
M  V30 21 H 3.22151 -2.08649 0.0453548 0
M  V30 22 H -0.319089 1.19975 0.798852 0
M  V30 23 H 1.90981 2.86727 0.763749 0
M  V30 24 H 2.81084 2.46384 -0.764633 0
M  V30 25 H 0.989033 2.70468 -0.803911 0
M  V30 26 H 4.05865 1.00265 -1.44606 0
M  V30 27 H 4.82303 -0.0135151 -0.231455 0
M  V30 END ATOM
M  V30 BEGIN BOND
M  V30 1 1 1 2
M  V30 2 1 2 3
M  V30 3 2 3 4
M  V30 4 1 3 5
M  V30 5 1 5 6
M  V30 6 1 6 7
M  V30 7 2 7 8
M  V30 8 1 8 9
M  V30 9 2 9 10
M  V30 10 1 10 11
M  V30 11 2 11 12
M  V30 12 1 11 13
M  V30 13 1 10 14
M  V30 14 1 12 7
M  V30 15 1 1 15
M  V30 16 1 1 16
M  V30 17 1 2 17
M  V30 18 1 5 18
M  V30 19 1 5 19
M  V30 20 1 8 20
M  V30 21 1 9 21
M  V30 22 1 12 22
M  V30 23 1 13 23
M  V30 24 1 13 24
M  V30 25 1 13 25
M  V30 26 1 14 26
M  V30 27 1 14 27
M  V30 END BOND
M  V30 END CTAB
M  END
