
     RDKit          3D

  0  0  0  0  0  0  0  0  0  0999 V3000
M  V30 BEGIN CTAB
M  V30 COUNTS 43 46 0 0 0
M  V30 BEGIN ATOM
M  V30 1 N 7.76336 2.23705 1.33543 0
M  V30 2 C 6.60983 1.49334 0.891284 0
M  V30 3 N 6.74881 0.334113 0.223982 0
M  V30 4 C 5.70436 -0.361805 -0.191168 0
M  V30 5 N 5.80722 -1.59946 -0.904227 0
M  V30 6 C 4.41403 0.117571 0.0688811 0
M  V30 7 C 3.30495 -0.563203 -0.338155 0
M  V30 8 C 1.99409 -0.106298 -0.0912453 0
M  V30 9 N 0.931725 -0.897407 -0.574544 0
M  V30 10 C -0.426767 -0.739866 -0.309343 0
M  V30 11 O -0.836505 0.180809 0.434798 0
M  V30 12 C -1.44639 -1.69442 -0.926307 0
M  V30 13 C -2.78224 -1.25985 -0.45275 0
M  V30 14 C -3.32366 -1.76322 0.710937 0
M  V30 15 C -4.5647 -1.3671 1.16173 0
M  V30 16 C -5.32242 -0.44333 0.46172 0
M  V30 17 C -6.55338 -0.081065 0.952636 0
M  V30 18 C -7.28519 0.843225 0.230606 0
M  V30 19 C -6.75708 1.35689 -0.936906 0
M  V30 20 C -5.52682 0.983793 -1.41174 0
M  V30 21 C -4.79177 0.0649569 -0.700175 0
M  V30 22 C -3.54962 -0.336389 -1.1444 0
M  V30 23 C 1.91111 1.07027 0.586292 0
M  V30 24 C 2.99857 1.8093 1.0269 0
M  V30 25 C 4.25187 1.30364 0.751372 0
M  V30 26 N 5.37439 1.95057 1.13925 0
M  V30 27 H 8.0791 2.17908 2.31939 0
M  V30 28 H 8.24849 2.82218 0.624091 0
M  V30 29 H 5.92016 -1.65559 -1.93704 0
M  V30 30 H 5.76695 -2.48645 -0.362014 0
M  V30 31 H 3.45851 -1.48834 -0.869884 0
M  V30 32 H 1.16349 -1.72528 -1.22873 0
M  V30 33 H -1.35733 -1.65148 -2.02364 0
M  V30 34 H -1.24041 -2.72258 -0.580902 0
M  V30 35 H -2.76719 -2.48617 1.28871 0
M  V30 36 H -4.93489 -1.79138 2.07194 0
M  V30 37 H -6.94357 -0.491354 1.85926 0
M  V30 38 H -8.24839 1.14646 0.586464 0
M  V30 39 H -7.33396 2.08798 -1.50962 0
M  V30 40 H -5.16728 1.42177 -2.33283 0
M  V30 41 H -3.15778 0.0799142 -2.06095 0
M  V30 42 H 0.957488 1.5009 0.813455 0
M  V30 43 H 2.90884 2.72824 1.55605 0
M  V30 END ATOM
M  V30 BEGIN BOND
M  V30 1 1 1 2
M  V30 2 2 2 3
M  V30 3 1 3 4
M  V30 4 1 4 5
M  V30 5 2 4 6
M  V30 6 1 6 7
M  V30 7 2 7 8
M  V30 8 1 8 9
M  V30 9 1 9 10
M  V30 10 2 10 11
M  V30 11 1 10 12
M  V30 12 1 12 13
M  V30 13 2 13 14
M  V30 14 1 14 15
M  V30 15 2 15 16
M  V30 16 1 16 17
M  V30 17 2 17 18
M  V30 18 1 18 19
M  V30 19 2 19 20
M  V30 20 1 20 21
M  V30 21 2 21 22
M  V30 22 1 8 23
M  V30 23 2 23 24
M  V30 24 1 24 25
M  V30 25 2 25 26
M  V30 26 1 26 2
M  V30 27 1 25 6
M  V30 28 1 22 13
M  V30 29 1 21 16
M  V30 30 1 1 27
M  V30 31 1 1 28
M  V30 32 1 5 29
M  V30 33 1 5 30
M  V30 34 1 7 31
M  V30 35 1 9 32
M  V30 36 1 12 33
M  V30 37 1 12 34
M  V30 38 1 14 35
M  V30 39 1 15 36
M  V30 40 1 17 37
M  V30 41 1 18 38
M  V30 42 1 19 39
M  V30 43 1 20 40
M  V30 44 1 22 41
M  V30 45 1 23 42
M  V30 46 1 24 43
M  V30 END BOND
M  V30 END CTAB
M  END
