
     RDKit          3D

  0  0  0  0  0  0  0  0  0  0999 V3000
M  V30 BEGIN CTAB
M  V30 COUNTS 44 43 0 0 0
M  V30 BEGIN ATOM
M  V30 1 N -5.97021 1.00483 0.886847 0
M  V30 2 C -5.42923 -0.141237 0.146766 0
M  V30 3 C -4.47688 0.416369 -0.890787 0
M  V30 4 C -3.35116 1.18858 -0.245845 0
M  V30 5 S -2.4418 0.0759052 0.841313 0
M  V30 6 C -1.63218 -1.17038 -0.210272 0
M  V30 7 C -0.603659 -0.442401 -1.03148 0
M  V30 8 C 0.38064 0.221118 -0.135546 0
M  V30 9 C 1.1207 -0.757209 0.746957 0
M  V30 10 S 2.31462 0.142075 1.81222 0
M  V30 11 C 3.63076 0.898761 0.781725 0
M  V30 12 C 4.41067 -0.217722 0.180993 0
M  V30 13 C 5.54732 0.212997 -0.713266 0
M  V30 14 N 6.16915 -1.01098 -1.18954 0
M  V30 15 C 6.55547 1.05017 -0.0640147 0
M  V30 16 O 6.31646 2.30259 0.48692 0
M  V30 17 O 7.74178 0.641133 0.0223444 0
M  V30 18 C -6.51206 -0.928301 -0.461653 0
M  V30 19 O -6.23031 -2.06373 -1.20724 0
M  V30 20 O -7.69619 -0.565839 -0.302066 0
M  V30 21 H -5.26186 1.26154 1.60673 0
M  V30 22 H -6.84177 0.678765 1.3497 0
M  V30 23 H -4.90795 -0.778977 0.888137 0
M  V30 24 H -5.0541 1.12107 -1.52968 0
M  V30 25 H -4.0745 -0.391745 -1.53388 0
M  V30 26 H -2.6966 1.57441 -1.04342 0
M  V30 27 H -3.78443 2.01924 0.346535 0
M  V30 28 H -2.42186 -1.62505 -0.858921 0
M  V30 29 H -1.14084 -1.96461 0.379702 0
M  V30 30 H -0.126504 -1.12552 -1.75487 0
M  V30 31 H -1.1581 0.344643 -1.60218 0
M  V30 32 H 1.10171 0.850142 -0.728688 0
M  V30 33 H -0.107306 0.94941 0.561985 0
M  V30 34 H 1.68047 -1.49178 0.120595 0
M  V30 35 H 0.411449 -1.25084 1.4256 0
M  V30 36 H 4.24452 1.48167 1.50592 0
M  V30 37 H 3.11223 1.5334 0.0434235 0
M  V30 38 H 4.73493 -0.90686 0.968738 0
M  V30 39 H 3.70846 -0.800511 -0.477057 0
M  V30 40 H 5.11416 0.709467 -1.63144 0
M  V30 41 H 6.1537 -1.68282 -0.38989 0
M  V30 42 H 7.19833 -0.816452 -1.35497 0
M  V30 43 H 6.57478 2.40991 1.46721 0
M  V30 44 H -6.30282 -2.95523 -0.696834 0
M  V30 END ATOM
M  V30 BEGIN BOND
M  V30 1 1 1 2
M  V30 2 1 2 3
M  V30 3 1 3 4
M  V30 4 1 4 5
M  V30 5 1 5 6
M  V30 6 1 6 7
M  V30 7 1 7 8
M  V30 8 1 8 9
M  V30 9 1 9 10
M  V30 10 1 10 11
M  V30 11 1 11 12
M  V30 12 1 12 13
M  V30 13 1 13 14
M  V30 14 1 13 15
M  V30 15 1 15 16
M  V30 16 2 15 17
M  V30 17 1 2 18
M  V30 18 1 18 19
M  V30 19 2 18 20
M  V30 20 1 1 21
M  V30 21 1 1 22
M  V30 22 1 2 23
M  V30 23 1 3 24
M  V30 24 1 3 25
M  V30 25 1 4 26
M  V30 26 1 4 27
M  V30 27 1 6 28
M  V30 28 1 6 29
M  V30 29 1 7 30
M  V30 30 1 7 31
M  V30 31 1 8 32
M  V30 32 1 8 33
M  V30 33 1 9 34
M  V30 34 1 9 35
M  V30 35 1 11 36
M  V30 36 1 11 37
M  V30 37 1 12 38
M  V30 38 1 12 39
M  V30 39 1 13 40
M  V30 40 1 14 41
M  V30 41 1 14 42
M  V30 42 1 16 43
M  V30 43 1 19 44
M  V30 END BOND
M  V30 END CTAB
M  END
