
     RDKit          3D

  0  0  0  0  0  0  0  0  0  0999 V3000
M  V30 BEGIN CTAB
M  V30 COUNTS 47 51 0 0 0
M  V30 BEGIN ATOM
M  V30 1 N 5.05072 2.34191 0.563237 0
M  V30 2 C 3.79173 1.67896 0.444044 0
M  V30 3 C 2.84928 2.25137 -0.405256 0
M  V30 4 C 1.61372 1.63559 -0.547013 0
M  V30 5 C 1.29352 0.477728 0.126243 0
M  V30 6 C 2.25248 -0.0577256 0.956837 0
M  V30 7 C 3.50669 0.531806 1.1261 0
M  V30 8 C -0.00907565 -0.205946 -0.00616948 0
M  V30 9 C 0.0235762 -1.10641 -1.17168 0
M  V30 10 C -0.208416 -2.38879 -0.70901 0
M  V30 11 C -0.233513 -3.45963 -1.57906 0
M  V30 12 C -0.0263049 -3.26491 -2.9268 0
M  V30 13 C 0.206317 -1.99857 -3.40596 0
M  V30 14 Br 0.487404 -1.78786 -5.28482 0
M  V30 15 C 0.227575 -0.951807 -2.53306 0
M  V30 16 C -0.389308 -2.37207 0.757017 0
M  V30 17 C -0.260677 -1.05713 1.15963 0
M  V30 18 C -0.382748 -0.73909 2.49607 0
M  V30 19 C -0.634342 -1.74172 3.43004 0
M  V30 20 Br -0.808401 -1.32738 5.29254 0
M  V30 21 C -0.766395 -3.06095 3.04963 0
M  V30 22 C -0.638175 -3.34124 1.70536 0
M  V30 23 C -1.13364 0.748667 -0.16006 0
M  V30 24 C -1.19461 1.92962 0.549912 0
M  V30 25 C -2.26635 2.77425 0.383549 0
M  V30 26 C -3.3025 2.47727 -0.484412 0
M  V30 27 N -4.38876 3.37919 -0.624212 0
M  V30 28 C -3.23094 1.29618 -1.18723 0
M  V30 29 C -2.14322 0.427766 -1.02525 0
M  V30 30 H 5.63744 2.54042 -0.26728 0
M  V30 31 H 5.4164 2.64576 1.49087 0
M  V30 32 H 3.05305 3.16406 -0.958801 0
M  V30 33 H 0.885805 2.07423 -1.20054 0
M  V30 34 H 2.07137 -0.960232 1.50951 0
M  V30 35 H 4.25583 0.108436 1.77868 0
M  V30 36 H -0.418483 -4.45897 -1.19023 0
M  V30 37 H -0.0569137 -4.13345 -3.55634 0
M  V30 38 H 0.413474 0.0372818 -2.93841 0
M  V30 39 H -0.292902 0.273537 2.88166 0
M  V30 40 H -0.965163 -3.86087 3.77923 0
M  V30 41 H -0.74036 -4.37236 1.39999 0
M  V30 42 H -0.391341 2.17377 1.23169 0
M  V30 43 H -2.34548 3.71225 0.927365 0
M  V30 44 H -5.00832 3.61186 0.176504 0
M  V30 45 H -4.60459 3.8443 -1.54552 0
M  V30 46 H -4.022 1.01185 -1.88641 0
M  V30 47 H -2.17344 -0.500942 -1.62217 0
M  V30 END ATOM
M  V30 BEGIN BOND
M  V30 1 1 1 2
M  V30 2 2 2 3
M  V30 3 1 3 4
M  V30 4 2 4 5
M  V30 5 1 5 6
M  V30 6 2 6 7
M  V30 7 1 5 8
M  V30 8 1 8 9
M  V30 9 1 9 10
M  V30 10 2 10 11
M  V30 11 1 11 12
M  V30 12 2 12 13
M  V30 13 1 13 14
M  V30 14 1 13 15
M  V30 15 1 10 16
M  V30 16 2 16 17
M  V30 17 1 17 18
M  V30 18 2 18 19
M  V30 19 1 19 20
M  V30 20 1 19 21
M  V30 21 2 21 22
M  V30 22 1 8 23
M  V30 23 2 23 24
M  V30 24 1 24 25
M  V30 25 2 25 26
M  V30 26 1 26 27
M  V30 27 1 26 28
M  V30 28 2 28 29
M  V30 29 1 7 2
M  V30 30 1 17 8
M  V30 31 1 29 23
M  V30 32 2 15 9
M  V30 33 1 22 16
M  V30 34 1 1 30
M  V30 35 1 1 31
M  V30 36 1 3 32
M  V30 37 1 4 33
M  V30 38 1 6 34
M  V30 39 1 7 35
M  V30 40 1 11 36
M  V30 41 1 12 37
M  V30 42 1 15 38
M  V30 43 1 18 39
M  V30 44 1 21 40
M  V30 45 1 22 41
M  V30 46 1 24 42
M  V30 47 1 25 43
M  V30 48 1 27 44
M  V30 49 1 27 45
M  V30 50 1 28 46
M  V30 51 1 29 47
M  V30 END BOND
M  V30 END CTAB
M  END
