
     RDKit          3D

  0  0  0  0  0  0  0  0  0  0999 V3000
M  V30 BEGIN CTAB
M  V30 COUNTS 96 100 0 0 0
M  V30 BEGIN ATOM
M  V30 1 C -1.38668 2.09584 -4.14938 0
M  V30 2 C -0.257072 3.06395 -3.93075 0
M  V30 3 C -0.20982 3.68033 -2.57151 0
M  V30 4 O -0.0754099 2.67782 -1.60406 0
M  V30 5 C 0.0646458 2.99272 -0.161259 0
M  V30 6 C 1.33246 3.17807 0.406846 0
M  V30 7 C 2.69441 2.90228 -0.147153 0
M  V30 8 C 3.03332 1.62593 -0.829694 0
M  V30 9 C 3.6375 1.95073 -2.04257 0
M  V30 10 C 3.96985 1.07733 -3.04998 0
M  V30 11 C 3.64002 -0.216368 -2.75862 0
M  V30 12 C 3.03117 -0.629623 -1.56445 0
M  V30 13 C 2.66173 -2.10285 -1.7156 0
M  V30 14 C 1.16375 -2.25723 -1.94447 0
M  V30 15 C 0.938386 -1.96846 -3.31267 0
M  V30 16 C -0.302629 -1.84732 -3.87517 0
M  V30 17 C -1.32161 -2.02901 -2.98219 0
M  V30 18 C -1.17181 -2.31424 -1.62727 0
M  V30 19 C -2.52724 -2.20604 -0.980352 0
M  V30 20 C -2.94069 -0.75946 -0.784077 0
M  V30 21 C -3.84845 -0.412945 -1.77517 0
M  V30 22 C -4.32462 0.848969 -1.9971 0
M  V30 23 C -3.82873 1.79004 -1.1506 0
M  V30 24 C -2.89843 1.51575 -0.111545 0
M  V30 25 C -2.49161 2.84193 0.481574 0
M  V30 26 C -1.01852 3.13208 0.65697 0
M  V30 27 C -0.820973 3.47231 2.01766 0
M  V30 28 C 0.382946 3.67484 2.61326 0
M  V30 29 C 1.43319 3.51031 1.74973 0
M  V30 30 C -2.44535 0.225636 0.0947465 0
M  V30 31 O -1.52929 -0.105431 1.15656 0
M  V30 32 C -1.63094 -0.532032 2.40968 0
M  V30 33 C -2.32922 0.158402 3.49952 0
M  V30 34 C -3.80521 0.371798 3.34598 0
M  V30 35 N -4.52718 -0.876027 3.18742 0
M  V30 36 C 0.116027 -2.44368 -1.08019 0
M  V30 37 O 0.306512 -2.76637 0.324966 0
M  V30 38 C 0.446318 -4.04327 0.856669 0
M  V30 39 C -0.716806 -4.94405 0.612954 0
M  V30 40 C -0.524451 -6.31613 1.20713 0
M  V30 41 C 2.72926 0.278144 -0.582761 0
M  V30 42 O 2.12532 -0.113315 0.705524 0
M  V30 43 C 2.83599 -0.521651 1.82567 0
M  V30 44 C 3.82055 0.429603 2.39851 0
M  V30 45 C 4.46593 -0.265473 3.61024 0
M  V30 46 N 3.47524 -0.606197 4.60633 0
M  V30 47 H -2.34868 2.6166 -4.31825 0
M  V30 48 H -1.20171 1.46403 -5.05601 0
M  V30 49 H -1.50883 1.45677 -3.25039 0
M  V30 50 H 0.7341 2.5966 -4.20475 0
M  V30 51 H -0.405105 3.89184 -4.68379 0
M  V30 52 H 0.69369 4.32281 -2.49943 0
M  V30 53 H -1.1358 4.23612 -2.34835 0
M  V30 54 H 3.44679 3.00271 0.666807 0
M  V30 55 H 3.02402 3.81172 -0.753021 0
M  V30 56 H 3.91924 3.01933 -2.282 0
M  V30 57 H 4.4412 1.37998 -3.9692 0
M  V30 58 H 3.91173 -0.959999 -3.55277 0
M  V30 59 H 3.21368 -2.6976 -1.0189 0
M  V30 60 H 3.17534 -2.54409 -2.65696 0
M  V30 61 H 1.80317 -1.82855 -4.00071 0
M  V30 62 H -0.455455 -1.63189 -4.92123 0
M  V30 63 H -2.32019 -1.92413 -3.46478 0
M  V30 64 H -2.88144 -2.91895 -0.237781 0
M  V30 65 H -3.20799 -2.62954 -1.79702 0
M  V30 66 H -4.28613 -1.16738 -2.4756 0
M  V30 67 H -5.03761 1.07605 -2.779 0
M  V30 68 H -4.20446 2.82527 -1.30665 0
M  V30 69 H -2.98488 3.72799 -0.0452201 0
M  V30 70 H -3.10083 3.02268 1.4331 0
M  V30 71 H -1.70803 3.60306 2.69375 0
M  V30 72 H 0.522624 3.93795 3.64494 0
M  V30 73 H 2.45477 3.67618 2.18694 0
M  V30 74 H -2.01096 -1.62673 2.45601 0
M  V30 75 H -0.557619 -0.700951 2.78211 0
M  V30 76 H -2.21979 -0.458813 4.45922 0
M  V30 77 H -1.80324 1.115 3.78026 0
M  V30 78 H -4.1207 1.07375 2.59589 0
M  V30 79 H -4.13751 0.773154 4.36936 0
M  V30 80 H -4.95664 -0.918107 2.22688 0
M  V30 81 H -5.21553 -1.05895 3.94434 0
M  V30 82 H 0.789998 -3.9817 1.89535 0
M  V30 83 H 1.31657 -4.51208 0.299464 0
M  V30 84 H -1.61266 -4.47587 1.07022 0
M  V30 85 H -0.839489 -5.07789 -0.485869 0
M  V30 86 H -0.6788 -6.27779 2.31823 0
M  V30 87 H -1.25149 -7.0442 0.804058 0
M  V30 88 H 0.498715 -6.70135 1.03405 0
M  V30 89 H 3.40477 -1.47556 1.60993 0
M  V30 90 H 2.11095 -0.791615 2.5952 0
M  V30 91 H 3.4153 1.36639 2.80457 0
M  V30 92 H 4.66715 0.633858 1.70276 0
M  V30 93 H 5.22568 0.409919 4.06297 0
M  V30 94 H 4.95863 -1.21567 3.28296 0
M  V30 95 H 3.54293 -0.00740901 5.4647 0
M  V30 96 H 3.54875 -1.6306 4.8843 0
M  V30 END ATOM
M  V30 BEGIN BOND
M  V30 1 1 1 2
M  V30 2 1 2 3
M  V30 3 1 3 4
M  V30 4 1 4 5
M  V30 5 2 5 6
M  V30 6 1 6 7
M  V30 7 1 7 8
M  V30 8 2 8 9
M  V30 9 1 9 10
M  V30 10 2 10 11
M  V30 11 1 11 12
M  V30 12 1 12 13
M  V30 13 1 13 14
M  V30 14 2 14 15
M  V30 15 1 15 16
M  V30 16 2 16 17
M  V30 17 1 17 18
M  V30 18 1 18 19
M  V30 19 1 19 20
M  V30 20 2 20 21
M  V30 21 1 21 22
M  V30 22 2 22 23
M  V30 23 1 23 24
M  V30 24 1 24 25
M  V30 25 1 25 26
M  V30 26 2 26 27
M  V30 27 1 27 28
M  V30 28 2 28 29
M  V30 29 2 24 30
M  V30 30 1 30 31
M  V30 31 1 31 32
M  V30 32 1 32 33
M  V30 33 1 33 34
M  V30 34 1 34 35
M  V30 35 2 18 36
M  V30 36 1 36 37
M  V30 37 1 37 38
M  V30 38 1 38 39
M  V30 39 1 39 40
M  V30 40 2 12 41
M  V30 41 1 41 42
M  V30 42 1 42 43
M  V30 43 1 43 44
M  V30 44 1 44 45
M  V30 45 1 45 46
M  V30 46 1 26 5
M  V30 47 1 29 6
M  V30 48 1 41 8
M  V30 49 1 36 14
M  V30 50 1 30 20
M  V30 51 1 1 47
M  V30 52 1 1 48
M  V30 53 1 1 49
M  V30 54 1 2 50
M  V30 55 1 2 51
M  V30 56 1 3 52
M  V30 57 1 3 53
M  V30 58 1 7 54
M  V30 59 1 7 55
M  V30 60 1 9 56
M  V30 61 1 10 57
M  V30 62 1 11 58
M  V30 63 1 13 59
M  V30 64 1 13 60
M  V30 65 1 15 61
M  V30 66 1 16 62
M  V30 67 1 17 63
M  V30 68 1 19 64
M  V30 69 1 19 65
M  V30 70 1 21 66
M  V30 71 1 22 67
M  V30 72 1 23 68
M  V30 73 1 25 69
M  V30 74 1 25 70
M  V30 75 1 27 71
M  V30 76 1 28 72
M  V30 77 1 29 73
M  V30 78 1 32 74
M  V30 79 1 32 75
M  V30 80 1 33 76
M  V30 81 1 33 77
M  V30 82 1 34 78
M  V30 83 1 34 79
M  V30 84 1 35 80
M  V30 85 1 35 81
M  V30 86 1 38 82
M  V30 87 1 38 83
M  V30 88 1 39 84
M  V30 89 1 39 85
M  V30 90 1 40 86
M  V30 91 1 40 87
M  V30 92 1 40 88
M  V30 93 1 43 89
M  V30 94 1 43 90
M  V30 95 1 44 91
M  V30 96 1 44 92
M  V30 97 1 45 93
M  V30 98 1 45 94
M  V30 99 1 46 95
M  V30 100 1 46 96
M  V30 END BOND
M  V30 END CTAB
M  END
