
     RDKit          3D

  0  0  0  0  0  0  0  0  0  0999 V3000
M  V30 BEGIN CTAB
M  V30 COUNTS 24 25 0 0 0
M  V30 BEGIN ATOM
M  V30 1 N -3.64316 -0.979665 0.908031 0
M  V30 2 C -2.9929 -0.0189562 0.0644604 0
M  V30 3 C -1.51305 -0.149962 0.132655 0
M  V30 4 C -0.950794 -1.11512 0.943846 0
M  V30 5 N 0.378721 -1.19565 0.973218 0
M  V30 6 C 1.17119 -0.387145 0.255963 0
M  V30 7 N 0.609389 0.543619 -0.525735 0
M  V30 8 C -0.724327 0.694772 -0.615572 0
M  V30 9 N -1.31103 1.68296 -1.4458 0
M  V30 10 C 2.63796 -0.567624 0.366989 0
M  V30 11 C 3.43709 0.724324 0.404415 0
M  V30 12 C 3.52473 -0.213329 -0.770971 0
M  V30 13 H -3.43998 -1.9605 0.681775 0
M  V30 14 H -3.6173 -0.748859 1.92043 0
M  V30 15 H -3.36159 -0.141804 -0.957946 0
M  V30 16 H -3.33288 0.995377 0.405318 0
M  V30 17 H -1.58289 -1.7695 1.5241 0
M  V30 18 H -0.756054 2.16746 -2.17591 0
M  V30 19 H -2.30237 1.94221 -1.34256 0
M  V30 20 H 3.02604 -1.35986 1.03509 0
M  V30 21 H 4.30211 0.787938 1.11206 0
M  V30 22 H 2.89386 1.6849 0.215314 0
M  V30 23 H 4.47582 -0.750333 -0.895386 0
M  V30 24 H 3.07142 0.134759 -1.73954 0
M  V30 END ATOM
M  V30 BEGIN BOND
M  V30 1 1 1 2
M  V30 2 1 2 3
M  V30 3 2 3 4
M  V30 4 1 4 5
M  V30 5 2 5 6
M  V30 6 1 6 7
M  V30 7 2 7 8
M  V30 8 1 8 9
M  V30 9 1 6 10
M  V30 10 1 10 11
M  V30 11 1 11 12
M  V30 12 1 8 3
M  V30 13 1 12 10
M  V30 14 1 1 13
M  V30 15 1 1 14
M  V30 16 1 2 15
M  V30 17 1 2 16
M  V30 18 1 4 17
M  V30 19 1 9 18
M  V30 20 1 9 19
M  V30 21 1 10 20
M  V30 22 1 11 21
M  V30 23 1 11 22
M  V30 24 1 12 23
M  V30 25 1 12 24
M  V30 END BOND
M  V30 END CTAB
M  END
