
     RDKit          3D

  0  0  0  0  0  0  0  0  0  0999 V3000
M  V30 BEGIN CTAB
M  V30 COUNTS 48 50 0 0 0
M  V30 BEGIN ATOM
M  V30 1 C 5.55684 3.04374 0.19293 0
M  V30 2 O 4.61536 2.36885 0.963226 0
M  V30 3 C 3.65537 1.49821 0.474014 0
M  V30 4 C 2.79624 0.911493 1.3805 0
M  V30 5 C 1.83091 0.038216 0.904014 0
M  V30 6 C 1.70946 -0.254149 -0.430718 0
M  V30 7 C 2.56738 0.333681 -1.32239 0
M  V30 8 C 3.52818 1.20086 -0.862098 0
M  V30 9 C 0.63972 -1.21297 -0.896141 0
M  V30 10 C 1.13921 -2.57791 -0.697481 0
M  V30 11 C 0.494616 -3.36175 0.423655 0
M  V30 12 C -0.742492 -3.99602 -0.172941 0
M  V30 13 C -1.41847 -2.99658 -1.07779 0
M  V30 14 C -1.68321 -1.68326 -0.406016 0
M  V30 15 N -0.561433 -0.832775 -0.218701 0
M  V30 16 C -0.873645 0.515362 -0.720541 0
M  V30 17 C -2.07205 1.08731 -0.114694 0
M  V30 18 N -2.50026 2.27647 -0.600841 0
M  V30 19 C -3.57165 2.92838 -0.154894 0
M  V30 20 N -3.97108 4.19508 -0.721093 0
M  V30 21 N -4.27954 2.37241 0.845723 0
M  V30 22 C -3.8828 1.19122 1.35299 0
M  V30 23 N -2.79519 0.558095 0.879782 0
M  V30 24 N -4.6365 0.608354 2.41189 0
M  V30 25 H 6.47483 3.18683 0.833165 0
M  V30 26 H 5.86978 2.5337 -0.718481 0
M  V30 27 H 5.22269 4.0968 -0.0425825 0
M  V30 28 H 2.85444 1.11396 2.45578 0
M  V30 29 H 1.17606 -0.401642 1.64633 0
M  V30 30 H 2.48691 0.114037 -2.38769 0
M  V30 31 H 4.21854 1.67557 -1.56791 0
M  V30 32 H 0.495822 -1.01663 -1.97957 0
M  V30 33 H 2.23965 -2.58984 -0.481824 0
M  V30 34 H 1.05041 -3.20576 -1.63312 0
M  V30 35 H 1.1837 -4.17796 0.726625 0
M  V30 36 H 0.175054 -2.72425 1.2638 0
M  V30 37 H -0.491148 -4.88436 -0.783622 0
M  V30 38 H -1.42505 -4.28391 0.626213 0
M  V30 39 H -2.41627 -3.43643 -1.32973 0
M  V30 40 H -0.9098 -2.81286 -2.0214 0
M  V30 41 H -2.13204 -1.91933 0.582826 0
M  V30 42 H -2.48867 -1.18743 -0.997195 0
M  V30 43 H -0.0379213 1.2185 -0.592493 0
M  V30 44 H -1.10749 0.348333 -1.8135 0
M  V30 45 H -4.36917 4.22904 -1.69249 0
M  V30 46 H -3.85306 5.05555 -0.14461 0
M  V30 47 H -5.31602 -0.149651 2.2247 0
M  V30 48 H -4.44619 1.00543 3.37176 0
M  V30 END ATOM
M  V30 BEGIN BOND
M  V30 1 1 1 2
M  V30 2 1 2 3
M  V30 3 2 3 4
M  V30 4 1 4 5
M  V30 5 2 5 6
M  V30 6 1 6 7
M  V30 7 2 7 8
M  V30 8 1 6 9
M  V30 9 1 9 10
M  V30 10 1 10 11
M  V30 11 1 11 12
M  V30 12 1 12 13
M  V30 13 1 13 14
M  V30 14 1 14 15
M  V30 15 1 15 16
M  V30 16 1 16 17
M  V30 17 2 17 18
M  V30 18 1 18 19
M  V30 19 1 19 20
M  V30 20 2 19 21
M  V30 21 1 21 22
M  V30 22 2 22 23
M  V30 23 1 22 24
M  V30 24 1 8 3
M  V30 25 1 15 9
M  V30 26 1 23 17
M  V30 27 1 1 25
M  V30 28 1 1 26
M  V30 29 1 1 27
M  V30 30 1 4 28
M  V30 31 1 5 29
M  V30 32 1 7 30
M  V30 33 1 8 31
M  V30 34 1 9 32
M  V30 35 1 10 33
M  V30 36 1 10 34
M  V30 37 1 11 35
M  V30 38 1 11 36
M  V30 39 1 12 37
M  V30 40 1 12 38
M  V30 41 1 13 39
M  V30 42 1 13 40
M  V30 43 1 14 41
M  V30 44 1 14 42
M  V30 45 1 16 43
M  V30 46 1 16 44
M  V30 47 1 20 45
M  V30 48 1 20 46
M  V30 49 1 24 47
M  V30 50 1 24 48
M  V30 END BOND
M  V30 END CTAB
M  END
