
     RDKit          3D

  0  0  0  0  0  0  0  0  0  0999 V3000
M  V30 BEGIN CTAB
M  V30 COUNTS 56 55 0 0 0
M  V30 BEGIN ATOM
M  V30 1 N 4.51488 -3.09815 -1.62136 0
M  V30 2 C 3.80972 -1.94404 -1.03172 0
M  V30 3 C 4.85709 -1.16425 -0.327619 0
M  V30 4 O 6.08396 -1.47598 -0.321305 0
M  V30 5 O 4.52799 -0.0188238 0.380389 0
M  V30 6 C 5.48848 0.750803 1.06107 0
M  V30 7 C 6.5454 1.2805 0.1038 0
M  V30 8 C 6.21665 -0.0123758 2.13837 0
M  V30 9 C 4.77662 1.90772 1.72574 0
M  V30 10 C 3.21156 -1.16646 -2.18454 0
M  V30 11 C 2.44747 0.045128 -1.78313 0
M  V30 12 S 1.0466 -0.319335 -0.703472 0
M  V30 13 S -0.44713 -1.44184 -1.7157 0
M  V30 14 C -1.65374 -0.386359 -2.51605 0
M  V30 15 C -2.47733 0.384814 -1.51745 0
M  V30 16 C -3.19287 -0.635039 -0.65392 0
M  V30 17 C -4.01227 0.0990918 0.335186 0
M  V30 18 O -3.48607 0.819386 1.19792 0
M  V30 19 O -5.36976 -0.00899163 0.309188 0
M  V30 20 C -6.27294 0.610012 1.15996 0
M  V30 21 C -6.25231 2.09393 1.16602 0
M  V30 22 C -7.67756 0.173001 0.721791 0
M  V30 23 C -6.06692 0.123129 2.57805 0
M  V30 24 N -4.04863 -1.39951 -1.54589 0
M  V30 25 H 4.49727 -3.91011 -0.968949 0
M  V30 26 H 5.48148 -2.80902 -1.90603 0
M  V30 27 H 3.01439 -2.28635 -0.370751 0
M  V30 28 H 7.43637 0.620237 0.0520687 0
M  V30 29 H 6.89433 2.28416 0.378916 0
M  V30 30 H 6.14198 1.33312 -0.947227 0
M  V30 31 H 6.66364 0.762719 2.82583 0
M  V30 32 H 7.09184 -0.576646 1.74517 0
M  V30 33 H 5.55307 -0.621943 2.77106 0
M  V30 34 H 4.09246 1.49865 2.50606 0
M  V30 35 H 4.12662 2.46482 1.02105 0
M  V30 36 H 5.49123 2.57142 2.26805 0
M  V30 37 H 2.64322 -1.80137 -2.87273 0
M  V30 38 H 4.09831 -0.798349 -2.78052 0
M  V30 39 H 1.99681 0.458466 -2.73376 0
M  V30 40 H 3.05976 0.842653 -1.37457 0
M  V30 41 H -2.30029 -1.01842 -3.15525 0
M  V30 42 H -1.10797 0.328155 -3.17006 0
M  V30 43 H -1.82741 1.03393 -0.898819 0
M  V30 44 H -3.20721 1.02595 -2.06083 0
M  V30 45 H -2.41473 -1.27448 -0.191293 0
M  V30 46 H -5.62361 2.52866 1.98459 0
M  V30 47 H -7.28446 2.45647 1.38533 0
M  V30 48 H -5.9955 2.55369 0.174496 0
M  V30 49 H -7.79732 0.573291 -0.310166 0
M  V30 50 H -8.45322 0.499371 1.41723 0
M  V30 51 H -7.62545 -0.947037 0.609149 0
M  V30 52 H -5.8408 -0.963524 2.62848 0
M  V30 53 H -6.97759 0.34853 3.20113 0
M  V30 54 H -5.23358 0.703661 3.00132 0
M  V30 55 H -4.81758 -0.793134 -1.85201 0
M  V30 56 H -4.34493 -2.30394 -1.15137 0
M  V30 END ATOM
M  V30 BEGIN BOND
M  V30 1 1 1 2
M  V30 2 1 2 3
M  V30 3 2 3 4
M  V30 4 1 3 5
M  V30 5 1 5 6
M  V30 6 1 6 7
M  V30 7 1 6 8
M  V30 8 1 6 9
M  V30 9 1 2 10
M  V30 10 1 10 11
M  V30 11 1 11 12
M  V30 12 1 12 13
M  V30 13 1 13 14
M  V30 14 1 14 15
M  V30 15 1 15 16
M  V30 16 1 16 17
M  V30 17 2 17 18
M  V30 18 1 17 19
M  V30 19 1 19 20
M  V30 20 1 20 21
M  V30 21 1 20 22
M  V30 22 1 20 23
M  V30 23 1 16 24
M  V30 24 1 1 25
M  V30 25 1 1 26
M  V30 26 1 2 27
M  V30 27 1 7 28
M  V30 28 1 7 29
M  V30 29 1 7 30
M  V30 30 1 8 31
M  V30 31 1 8 32
M  V30 32 1 8 33
M  V30 33 1 9 34
M  V30 34 1 9 35
M  V30 35 1 9 36
M  V30 36 1 10 37
M  V30 37 1 10 38
M  V30 38 1 11 39
M  V30 39 1 11 40
M  V30 40 1 14 41
M  V30 41 1 14 42
M  V30 42 1 15 43
M  V30 43 1 15 44
M  V30 44 1 16 45
M  V30 45 1 21 46
M  V30 46 1 21 47
M  V30 47 1 21 48
M  V30 48 1 22 49
M  V30 49 1 22 50
M  V30 50 1 22 51
M  V30 51 1 23 52
M  V30 52 1 23 53
M  V30 53 1 23 54
M  V30 54 1 24 55
M  V30 55 1 24 56
M  V30 END BOND
M  V30 END CTAB
M  END
