
     RDKit          3D

  0  0  0  0  0  0  0  0  0  0999 V3000
M  V30 BEGIN CTAB
M  V30 COUNTS 29 30 0 0 0
M  V30 BEGIN ATOM
M  V30 1 N -2.76044 -1.39005 -1.24964 0
M  V30 2 C -1.39227 -1.19803 -0.950389 0
M  V30 3 C -1.05385 -0.0992005 0.00336927 0 CFG=2
M  V30 4 C -1.62211 -0.222443 1.38763 0
M  V30 5 C -2.75418 0.669699 0.992842 0 CFG=2
M  V30 6 C -1.9028 1.12566 -0.180238 0
M  V30 7 F -3.04742 1.68138 1.89212 0
M  V30 8 C 0.397709 0.112522 0.0317793 0
M  V30 9 C 1.03243 1.32155 -0.0483045 0
M  V30 10 C 2.40805 1.38816 -0.0454736 0
M  V30 11 C 3.2212 0.27189 0.0348036 0
M  V30 12 C 2.58846 -0.940887 0.117575 0
M  V30 13 C 1.20774 -1.00131 0.11469 0
M  V30 14 N 4.63406 0.37466 0.032287 0
M  V30 15 H -3.37007 -0.647539 -1.4532 0
M  V30 16 H -2.81089 -2.09053 -2.02639 0
M  V30 17 H -0.848759 -1.1132 -1.91385 0
M  V30 18 H -1.00605 -2.16942 -0.484563 0
M  V30 19 H -0.999939 0.310325 2.16539 0
M  V30 20 H -1.88779 -1.26054 1.67566 0
M  V30 21 H -3.66136 0.117257 0.768705 0
M  V30 22 H -1.49981 2.10381 0.0392268 0
M  V30 23 H -2.52876 1.13289 -1.11378 0
M  V30 24 H 0.451856 2.20797 -0.110263 0
M  V30 25 H 2.92704 2.34332 -0.109614 0
M  V30 26 H 3.18401 -1.8354 0.186953 0
M  V30 27 H 0.814468 -2.02912 0.191531 0
M  V30 28 H 5.21321 -0.479733 0.021455 0
M  V30 29 H 5.06628 1.31632 0.0297002 0
M  V30 END ATOM
M  V30 BEGIN BOND
M  V30 1 1 1 2
M  V30 2 1 3 2 CFG=3
M  V30 3 1 3 4
M  V30 4 1 4 5
M  V30 5 1 5 6
M  V30 6 1 5 7
M  V30 7 1 3 8
M  V30 8 2 8 9
M  V30 9 1 9 10
M  V30 10 2 10 11
M  V30 11 1 11 12
M  V30 12 2 12 13
M  V30 13 1 11 14
M  V30 14 1 6 3
M  V30 15 1 13 8
M  V30 16 1 1 15
M  V30 17 1 1 16
M  V30 18 1 2 17
M  V30 19 1 2 18
M  V30 20 1 4 19
M  V30 21 1 4 20
M  V30 22 1 5 21 CFG=3
M  V30 23 1 6 22
M  V30 24 1 6 23
M  V30 25 1 9 24
M  V30 26 1 10 25
M  V30 27 1 12 26
M  V30 28 1 13 27
M  V30 29 1 14 28
M  V30 30 1 14 29
M  V30 END BOND
M  V30 END CTAB
M  END
