
     RDKit          3D

  0  0  0  0  0  0  0  0  0  0999 V3000
M  V30 BEGIN CTAB
M  V30 COUNTS 26 26 0 0 0
M  V30 BEGIN ATOM
M  V30 1 N 2.87395 1.08063 0.779373 0
M  V30 2 C 3.37322 -0.224473 0.612833 0
M  V30 3 S 4.36387 -0.809797 1.77785 0
M  V30 4 N 3.03268 -1.00814 -0.522527 0
M  V30 5 C 2.17225 -0.544926 -1.5621 0
M  V30 6 C 0.813877 -0.29622 -1.02391 0
M  V30 7 C 0.391344 -0.854413 0.161681 0
M  V30 8 C -0.904144 -0.578375 0.61698 0
M  V30 9 C -1.76977 0.233911 -0.0834177 0
M  V30 10 C -1.34453 0.791926 -1.27074 0
M  V30 11 C -0.0618838 0.523123 -1.72865 0
M  V30 12 S -3.39237 0.578297 0.488937 0
M  V30 13 O -3.73894 1.97013 -0.0169551 0
M  V30 14 O -3.33938 0.617904 1.98466 0
M  V30 15 N -4.51203 -0.576188 -0.107611 0
M  V30 16 H 2.41004 1.33955 1.65924 0
M  V30 17 H 2.97061 1.77496 0.0271503 0
M  V30 18 H 3.42378 -1.97949 -0.619545 0
M  V30 19 H 2.55605 0.445087 -1.94985 0
M  V30 20 H 2.11491 -1.21889 -2.42669 0
M  V30 21 H 1.04065 -1.50684 0.752862 0
M  V30 22 H -1.2588 -1.01361 1.55896 0
M  V30 23 H -1.9825 1.44477 -1.87371 0
M  V30 24 H 0.307409 0.941433 -2.65369 0
M  V30 25 H -5.43288 -0.114893 -0.278478 0
M  V30 26 H -4.10743 -1.01546 -0.961243 0
M  V30 END ATOM
M  V30 BEGIN BOND
M  V30 1 1 1 2
M  V30 2 2 2 3
M  V30 3 1 2 4
M  V30 4 1 4 5
M  V30 5 1 5 6
M  V30 6 2 6 7
M  V30 7 1 7 8
M  V30 8 2 8 9
M  V30 9 1 9 10
M  V30 10 2 10 11
M  V30 11 1 9 12
M  V30 12 2 12 13
M  V30 13 2 12 14
M  V30 14 1 12 15
M  V30 15 1 11 6
M  V30 16 1 1 16
M  V30 17 1 1 17
M  V30 18 1 4 18
M  V30 19 1 5 19
M  V30 20 1 5 20
M  V30 21 1 7 21
M  V30 22 1 8 22
M  V30 23 1 10 23
M  V30 24 1 11 24
M  V30 25 1 15 25
M  V30 26 1 15 26
M  V30 END BOND
M  V30 END CTAB
M  END
