
     RDKit          3D

  0  0  0  0  0  0  0  0  0  0999 V3000
M  V30 BEGIN CTAB
M  V30 COUNTS 52 55 0 0 0
M  V30 BEGIN ATOM
M  V30 1 Cl -4.73074 5.65412 -0.0644451 0
M  V30 2 C -3.53697 4.40199 0.173037 0
M  V30 3 C -2.39444 4.58862 0.912019 0
M  V30 4 C -1.48759 3.57402 1.06733 0
M  V30 5 C -1.67218 2.30466 0.488074 0
M  V30 6 C -2.79263 2.13166 -0.231271 0
M  V30 7 C -3.72641 3.16366 -0.396664 0
M  V30 8 C -0.614613 1.32494 0.757965 0
M  V30 9 N 0.410915 1.55391 1.64833 0
M  V30 10 N 1.22746 0.532698 1.67413 0
M  V30 11 C 0.797975 -0.397442 0.826763 0
M  V30 12 N -0.352024 0.118368 0.266758 0
M  V30 13 C -1.05527 -0.605407 -0.706595 0
M  V30 14 C -0.86854 -0.323736 -2.06336 0
M  V30 15 C -1.47884 -1.03767 -3.0684 0
M  V30 16 C -2.31014 -2.07676 -2.69718 0
M  V30 17 C -2.51412 -2.37855 -1.37102 0
M  V30 18 C -1.88555 -1.64194 -0.358303 0
M  V30 19 C -2.19412 -2.03622 1.01847 0
M  V30 20 C -2.79584 -3.46185 1.04355 0
M  V30 21 C -3.34277 -1.20071 1.62635 0
M  V30 22 S 1.54098 -1.99736 0.459038 0
M  V30 23 C 2.7335 -1.78654 -0.9147 0
M  V30 24 C 3.88994 -0.940472 -0.466865 0
M  V30 25 N 3.89621 0.388891 -0.588434 0
M  V30 26 C 4.91911 1.17512 -0.194801 0
M  V30 27 N 4.85897 2.5826 -0.353722 0
M  V30 28 N 5.98444 0.543146 0.350954 0
M  V30 29 C 6.04947 -0.795163 0.505909 0
M  V30 30 N 4.98483 -1.51603 0.0871259 0
M  V30 31 N 7.18969 -1.41287 1.08515 0
M  V30 32 H -2.2524 5.56576 1.35592 0
M  V30 33 H -0.614878 3.81484 1.66874 0
M  V30 34 H -2.99175 1.18034 -0.672189 0
M  V30 35 H -4.59635 2.93426 -0.991439 0
M  V30 36 H -0.207846 0.499813 -2.29672 0
M  V30 37 H -1.32997 -0.812095 -4.11888 0
M  V30 38 H -2.81495 -2.66875 -3.4663 0
M  V30 39 H -3.17188 -3.19312 -1.15059 0
M  V30 40 H -1.34944 -2.0526 1.70731 0
M  V30 41 H -2.21476 -4.09078 0.375934 0
M  V30 42 H -2.6871 -3.86211 2.07326 0
M  V30 43 H -3.84781 -3.42732 0.777761 0
M  V30 44 H -3.64193 -1.74922 2.55206 0
M  V30 45 H -4.21788 -1.23391 0.957213 0
M  V30 46 H -3.06279 -0.191516 1.87887 0
M  V30 47 H 3.16101 -2.74373 -1.22121 0
M  V30 48 H 2.23542 -1.34108 -1.78876 0
M  V30 49 H 4.58455 3.06354 -1.23382 0
M  V30 50 H 5.10591 3.17316 0.466169 0
M  V30 51 H 8.14105 -1.15353 0.802658 0
M  V30 52 H 7.04313 -2.14162 1.80881 0
M  V30 END ATOM
M  V30 BEGIN BOND
M  V30 1 1 1 2
M  V30 2 2 2 3
M  V30 3 1 3 4
M  V30 4 2 4 5
M  V30 5 1 5 6
M  V30 6 2 6 7
M  V30 7 1 5 8
M  V30 8 2 8 9
M  V30 9 1 9 10
M  V30 10 2 10 11
M  V30 11 1 11 12
M  V30 12 1 12 13
M  V30 13 2 13 14
M  V30 14 1 14 15
M  V30 15 2 15 16
M  V30 16 1 16 17
M  V30 17 2 17 18
M  V30 18 1 18 19
M  V30 19 1 19 20
M  V30 20 1 19 21
M  V30 21 1 11 22
M  V30 22 1 22 23
M  V30 23 1 23 24
M  V30 24 2 24 25
M  V30 25 1 25 26
M  V30 26 1 26 27
M  V30 27 2 26 28
M  V30 28 1 28 29
M  V30 29 2 29 30
M  V30 30 1 29 31
M  V30 31 1 7 2
M  V30 32 1 12 8
M  V30 33 1 18 13
M  V30 34 1 30 24
M  V30 35 1 3 32
M  V30 36 1 4 33
M  V30 37 1 6 34
M  V30 38 1 7 35
M  V30 39 1 14 36
M  V30 40 1 15 37
M  V30 41 1 16 38
M  V30 42 1 17 39
M  V30 43 1 19 40
M  V30 44 1 20 41
M  V30 45 1 20 42
M  V30 46 1 20 43
M  V30 47 1 21 44
M  V30 48 1 21 45
M  V30 49 1 21 46
M  V30 50 1 23 47
M  V30 51 1 23 48
M  V30 52 1 27 49
M  V30 53 1 27 50
M  V30 54 1 31 51
M  V30 55 1 31 52
M  V30 END BOND
M  V30 END CTAB
M  END
