
     RDKit          3D

  0  0  0  0  0  0  0  0  0  0999 V3000
M  V30 BEGIN CTAB
M  V30 COUNTS 41 44 0 0 0
M  V30 BEGIN ATOM
M  V30 1 N 5.82576 -1.00088 2.72444 0
M  V30 2 C 5.9169 0.0930734 1.80245 0
M  V30 3 N 6.89577 0.904802 1.9868 0
M  V30 4 C 4.92358 0.192575 0.764047 0
M  V30 5 C 3.90852 -0.7601 0.675044 0
M  V30 6 C 2.9334 -0.711399 -0.299149 0
M  V30 7 C 2.96016 0.319193 -1.22383 0
M  V30 8 N 1.90709 0.106606 -2.0314 0
M  V30 9 C 1.22659 -0.987481 -1.6712 0
M  V30 10 C 0.00124535 -1.57617 -2.29619 0
M  V30 11 C -1.20876 -0.975777 -1.64033 0
M  V30 12 N -1.8294 -1.46902 -0.554373 0
M  V30 13 C -2.89152 -0.691719 -0.212814 0
M  V30 14 C -2.90631 0.322131 -1.14643 0
M  V30 15 N -1.87554 0.132108 -2.00586 0
M  V30 16 C -3.89874 1.26341 -1.02841 0
M  V30 17 C -4.84276 1.21049 -0.0289669 0
M  V30 18 C -4.83574 0.186395 0.922052 0
M  V30 19 C -3.83472 -0.751829 0.792518 0
M  V30 20 C -5.83664 0.147514 1.96556 0
M  V30 21 N -6.82717 1.14813 2.02603 0
M  V30 22 N -5.83582 -0.785562 2.83772 0
M  V30 23 N 1.87535 -1.48544 -0.593827 0
M  V30 24 C 3.95589 1.2675 -1.14922 0
M  V30 25 C 4.94194 1.2127 -0.158981 0
M  V30 26 H 4.90649 -1.25207 3.13985 0
M  V30 27 H 6.64777 -1.57214 3.00872 0
M  V30 28 H 7.04041 1.72203 1.371 0
M  V30 29 H 3.89011 -1.56366 1.39837 0
M  V30 30 H 1.65811 0.718399 -2.83273 0
M  V30 31 H -0.0407356 -1.36685 -3.36865 0
M  V30 32 H 0.0453579 -2.66829 -2.10867 0
M  V30 33 H -1.62683 0.732624 -2.81793 0
M  V30 34 H -3.91109 2.06491 -1.76582 0
M  V30 35 H -5.62862 1.96575 0.0552236 0
M  V30 36 H -3.76456 -1.57366 1.49079 0
M  V30 37 H -6.69818 1.95549 2.65321 0
M  V30 38 H -7.67475 1.07006 1.445 0
M  V30 39 H -5.19001 -1.57395 2.92549 0
M  V30 40 H 3.97851 2.06059 -1.85887 0
M  V30 41 H 5.71896 1.96951 -0.116246 0
M  V30 END ATOM
M  V30 BEGIN BOND
M  V30 1 1 1 2
M  V30 2 2 2 3 CFG=2
M  V30 3 1 2 4
M  V30 4 2 4 5
M  V30 5 1 5 6
M  V30 6 2 6 7
M  V30 7 1 7 8
M  V30 8 1 8 9
M  V30 9 1 9 10
M  V30 10 1 10 11
M  V30 11 2 11 12
M  V30 12 1 12 13
M  V30 13 2 13 14
M  V30 14 1 14 15
M  V30 15 1 14 16
M  V30 16 2 16 17
M  V30 17 1 17 18
M  V30 18 2 18 19
M  V30 19 1 18 20
M  V30 20 1 20 21
M  V30 21 2 20 22 CFG=2
M  V30 22 2 9 23
M  V30 23 1 7 24
M  V30 24 2 24 25
M  V30 25 1 25 4
M  V30 26 1 23 6
M  V30 27 1 15 11
M  V30 28 1 19 13
M  V30 29 1 1 26
M  V30 30 1 1 27
M  V30 31 1 3 28
M  V30 32 1 5 29
M  V30 33 1 8 30
M  V30 34 1 10 31
M  V30 35 1 10 32
M  V30 36 1 15 33
M  V30 37 1 16 34
M  V30 38 1 17 35
M  V30 39 1 19 36
M  V30 40 1 21 37
M  V30 41 1 21 38
M  V30 42 1 22 39
M  V30 43 1 24 40
M  V30 44 1 25 41
M  V30 END BOND
M  V30 END CTAB
M  END
