
     RDKit          3D

  0  0  0  0  0  0  0  0  0  0999 V3000
M  V30 BEGIN CTAB
M  V30 COUNTS 27 27 0 0 0
M  V30 BEGIN ATOM
M  V30 1 N 2.8812 -1.01171 0.733523 0
M  V30 2 C 1.90731 -1.57573 -0.198277 0
M  V30 3 C 1.16386 -0.435237 -0.81735 0
M  V30 4 N 0.422227 0.404433 0.0450822 0
M  V30 5 C 0.390263 1.73549 -0.699269 0
M  V30 6 C -0.599758 2.55131 0.112912 0
M  V30 7 C -1.33596 1.49386 0.947605 0
M  V30 8 C -0.994931 0.273089 0.0570022 0
M  V30 9 C -1.71181 -0.893146 0.524241 0
M  V30 10 N -1.48954 -2.13574 -0.174245 0
M  V30 11 H 2.486 -0.688592 1.61843 0
M  V30 12 H 3.78096 -1.50207 0.756493 0
M  V30 13 H 1.27781 -2.31057 0.255758 0
M  V30 14 H 2.53039 -2.09471 -0.990624 0
M  V30 15 H 0.498129 -0.905727 -1.60811 0
M  V30 16 H 1.93207 0.126661 -1.43502 0
M  V30 17 H -0.0100767 1.48533 -1.67947 0
M  V30 18 H 1.37041 2.1905 -0.681056 0
M  V30 19 H -1.35397 3.02183 -0.572248 0
M  V30 20 H -0.155795 3.32912 0.728321 0
M  V30 21 H -0.794051 1.3743 1.89198 0
M  V30 22 H -2.40699 1.65996 1.00458 0
M  V30 23 H -1.4255 0.55527 -0.964385 0
M  V30 24 H -1.71001 -1.0459 1.63452 0
M  V30 25 H -2.82294 -0.68884 0.328241 0
M  V30 26 H -1.85242 -2.01015 -1.14306 0
M  V30 27 H -1.97688 -2.90302 0.324433 0
M  V30 END ATOM
M  V30 BEGIN BOND
M  V30 1 1 1 2
M  V30 2 1 2 3
M  V30 3 1 3 4
M  V30 4 1 4 5
M  V30 5 1 5 6
M  V30 6 1 6 7
M  V30 7 1 7 8
M  V30 8 1 8 9
M  V30 9 1 9 10
M  V30 10 1 8 4
M  V30 11 1 1 11
M  V30 12 1 1 12
M  V30 13 1 2 13
M  V30 14 1 2 14
M  V30 15 1 3 15
M  V30 16 1 3 16
M  V30 17 1 5 17
M  V30 18 1 5 18
M  V30 19 1 6 19
M  V30 20 1 6 20
M  V30 21 1 7 21
M  V30 22 1 7 22
M  V30 23 1 8 23
M  V30 24 1 9 24
M  V30 25 1 9 25
M  V30 26 1 10 26
M  V30 27 1 10 27
M  V30 END BOND
M  V30 END CTAB
M  END
