
     RDKit          3D

  0  0  0  0  0  0  0  0  0  0999 V3000
M  V30 BEGIN CTAB
M  V30 COUNTS 33 35 0 0 0
M  V30 BEGIN ATOM
M  V30 1 N -2.55681 3.46219 -0.607647 0
M  V30 2 C -1.60648 2.8378 -0.397693 0
M  V30 3 C -0.401929 2.01545 -0.14084 0
M  V30 4 C 0.571373 2.52043 0.572787 0
M  V30 5 N 0.36381 3.87045 1.05166 0
M  V30 6 O 1.74388 1.84688 0.877386 0
M  V30 7 C 1.8794 0.552483 0.385803 0
M  V30 8 C 0.902819 -0.0377358 -0.365891 0
M  V30 9 C -0.334515 0.665858 -0.688978 0
M  V30 10 C -1.55029 -0.137431 -0.376765 0
M  V30 11 C -1.88265 -0.411628 0.918586 0
M  V30 12 C -3.01491 -1.15201 1.15995 0
M  V30 13 C -3.81574 -1.62124 0.152644 0
M  V30 14 C -3.46863 -1.33699 -1.158 0
M  V30 15 C -2.33924 -0.598113 -1.40368 0
M  V30 16 Cl -1.92689 -0.253653 -3.06857 0
M  V30 17 C 1.09543 -1.35465 -0.839374 0
M  V30 18 C 2.2523 -2.00702 -0.534963 0
M  V30 19 C 3.26358 -1.44109 0.223762 0
M  V30 20 C 3.05786 -0.16755 0.671874 0
M  V30 21 N 4.44608 -2.1446 0.516662 0
M  V30 22 H -0.297025 4.09034 1.79768 0
M  V30 23 H 0.925827 4.61098 0.594379 0
M  V30 24 H -0.303443 0.790866 -1.82132 0
M  V30 25 H -1.24543 -0.0384531 1.72714 0
M  V30 26 H -3.28222 -1.37196 2.18975 0
M  V30 27 H -4.71751 -2.21045 0.340665 0
M  V30 28 H -4.08423 -1.69478 -1.99823 0
M  V30 29 H 0.303192 -1.78513 -1.42771 0
M  V30 30 H 2.43735 -3.02337 -0.882279 0
M  V30 31 H 3.80838 0.339071 1.27287 0
M  V30 32 H 4.76675 -2.25401 1.49772 0
M  V30 33 H 5.0099 -2.56094 -0.239384 0
M  V30 END ATOM
M  V30 BEGIN BOND
M  V30 1 3 1 2
M  V30 2 1 2 3
M  V30 3 2 3 4
M  V30 4 1 4 5
M  V30 5 1 4 6
M  V30 6 1 6 7
M  V30 7 2 7 8
M  V30 8 1 8 9
M  V30 9 1 9 10
M  V30 10 2 10 11
M  V30 11 1 11 12
M  V30 12 2 12 13
M  V30 13 1 13 14
M  V30 14 2 14 15
M  V30 15 1 15 16
M  V30 16 1 8 17
M  V30 17 2 17 18
M  V30 18 1 18 19
M  V30 19 2 19 20
M  V30 20 1 19 21
M  V30 21 1 9 3
M  V30 22 1 15 10
M  V30 23 1 20 7
M  V30 24 1 5 22
M  V30 25 1 5 23
M  V30 26 1 9 24
M  V30 27 1 11 25
M  V30 28 1 12 26
M  V30 29 1 13 27
M  V30 30 1 14 28
M  V30 31 1 17 29
M  V30 32 1 18 30
M  V30 33 1 20 31
M  V30 34 1 21 32
M  V30 35 1 21 33
M  V30 END BOND
M  V30 END CTAB
M  END
