
     RDKit          3D

  0  0  0  0  0  0  0  0  0  0999 V3000
M  V30 BEGIN CTAB
M  V30 COUNTS 22 22 0 0 0
M  V30 BEGIN ATOM
M  V30 1 C 2.41999 -0.371066 -1.1935 0
M  V30 2 N 1.67217 -0.226608 0.00530267 0
M  V30 3 C 2.25984 -0.368469 1.31839 0
M  V30 4 C 0.286361 0.0635937 -0.0512042 0
M  V30 5 N -0.142716 1.29863 -0.303255 0
M  V30 6 C -1.46638 1.57957 -0.327723 0
M  V30 7 N -1.91763 2.89374 -0.595239 0
M  V30 8 N -2.31188 0.560754 -0.0879818 0
M  V30 9 C -1.92419 -0.689581 0.169089 0
M  V30 10 N -2.81398 -1.7632 0.43373 0
M  V30 11 C -0.578415 -0.997358 0.198798 0
M  V30 12 H 2.70719 0.607029 -1.64509 0
M  V30 13 H 3.3657 -0.943615 -0.98521 0
M  V30 14 H 1.82616 -0.957307 -1.91934 0
M  V30 15 H 1.49571 -0.399044 2.11627 0
M  V30 16 H 2.81492 -1.33794 1.29533 0
M  V30 17 H 2.90067 0.513531 1.49783 0
M  V30 18 H -2.51409 3.39416 0.0819235 0
M  V30 19 H -1.64975 3.37029 -1.47666 0
M  V30 20 H -3.14792 -2.34754 -0.353658 0
M  V30 21 H -3.08133 -1.89114 1.43061 0
M  V30 22 H -0.200424 -1.98842 0.391594 0
M  V30 END ATOM
M  V30 BEGIN BOND
M  V30 1 1 1 2
M  V30 2 1 2 3
M  V30 3 1 2 4
M  V30 4 2 4 5
M  V30 5 1 5 6
M  V30 6 1 6 7
M  V30 7 2 6 8
M  V30 8 1 8 9
M  V30 9 1 9 10
M  V30 10 2 9 11
M  V30 11 1 11 4
M  V30 12 1 1 12
M  V30 13 1 1 13
M  V30 14 1 1 14
M  V30 15 1 3 15
M  V30 16 1 3 16
M  V30 17 1 3 17
M  V30 18 1 7 18
M  V30 19 1 7 19
M  V30 20 1 10 20
M  V30 21 1 10 21
M  V30 22 1 11 22
M  V30 END BOND
M  V30 END CTAB
M  END
