
     RDKit          3D

  0  0  0  0  0  0  0  0  0  0999 V3000
M  V30 BEGIN CTAB
M  V30 COUNTS 44 47 0 0 0
M  V30 BEGIN ATOM
M  V30 1 N -7.37671 -0.102569 -0.873393 0
M  V30 2 C -6.03149 -0.179843 -0.364054 0
M  V30 3 N -5.20093 0.873806 -0.409496 0
M  V30 4 C -3.93007 0.824453 0.064658 0
M  V30 5 C -3.10508 2.07876 -0.0499446 0
M  V30 6 S -2.25555 1.97801 -1.64479 0
M  V30 7 C -1.08519 0.657174 -1.62939 0
M  V30 8 N -1.39064 -0.604944 -1.97956 0
M  V30 9 N -0.292994 -1.30316 -1.8544 0
M  V30 10 C 0.691035 -0.499784 -1.43306 0
M  V30 11 N 0.210565 0.761154 -1.28094 0
M  V30 12 C 0.996327 1.87471 -0.844578 0
M  V30 13 C 0.863585 2.37361 0.581952 0
M  V30 14 C 0.551983 3.22958 -0.653812 0
M  V30 15 C 2.07516 -0.966394 -1.19089 0
M  V30 16 O 2.62785 -0.564387 0.0267018 0
M  V30 17 C 3.91899 -0.950872 0.354908 0
M  V30 18 C 4.64343 -1.73477 -0.535045 0
M  V30 19 C 5.92059 -2.10828 -0.193637 0
M  V30 20 C 6.46114 -1.71292 0.998856 0
M  V30 21 C 5.74913 -0.93293 1.89168 0
M  V30 22 C 4.47406 -0.557873 1.55532 0
M  V30 23 Cl 3.5418 0.418216 2.6445 0
M  V30 24 N -3.48572 -0.302847 0.593663 0
M  V30 25 C -4.2903 -1.39966 0.662454 0
M  V30 26 N -5.55172 -1.31069 0.178749 0
M  V30 27 N -3.79067 -2.59239 1.2316 0
M  V30 28 H -7.7713 0.824171 -1.12242 0
M  V30 29 H -7.89457 -0.981846 -0.968991 0
M  V30 30 H -2.32129 2.02407 0.735456 0
M  V30 31 H -3.70332 2.97815 0.0765962 0
M  V30 32 H 2.09442 1.76603 -1.12214 0
M  V30 33 H 1.74053 2.64059 1.17312 0
M  V30 34 H 0.0369108 1.92872 1.14102 0
M  V30 35 H -0.441043 3.65256 -0.601706 0
M  V30 36 H 1.30571 4.06561 -0.809669 0
M  V30 37 H 2.15437 -2.08348 -1.32056 0
M  V30 38 H 2.7294 -0.566828 -2.02181 0
M  V30 39 H 4.1822 -2.02649 -1.46714 0
M  V30 40 H 6.47106 -2.72651 -0.91064 0
M  V30 41 H 7.47498 -2.03688 1.21729 0
M  V30 42 H 6.23211 -0.656007 2.81347 0
M  V30 43 H -2.92496 -3.01637 0.871589 0
M  V30 44 H -4.30379 -3.03064 2.01052 0
M  V30 END ATOM
M  V30 BEGIN BOND
M  V30 1 1 1 2
M  V30 2 2 2 3
M  V30 3 1 3 4
M  V30 4 1 4 5
M  V30 5 1 5 6
M  V30 6 1 6 7
M  V30 7 2 7 8
M  V30 8 1 8 9
M  V30 9 2 9 10
M  V30 10 1 10 11
M  V30 11 1 11 12
M  V30 12 1 12 13
M  V30 13 1 13 14
M  V30 14 1 10 15
M  V30 15 1 15 16
M  V30 16 1 16 17
M  V30 17 2 17 18
M  V30 18 1 18 19
M  V30 19 2 19 20
M  V30 20 1 20 21
M  V30 21 2 21 22
M  V30 22 1 22 23
M  V30 23 2 4 24
M  V30 24 1 24 25
M  V30 25 2 25 26
M  V30 26 1 25 27
M  V30 27 1 26 2
M  V30 28 1 11 7
M  V30 29 1 14 12
M  V30 30 1 22 17
M  V30 31 1 1 28
M  V30 32 1 1 29
M  V30 33 1 5 30
M  V30 34 1 5 31
M  V30 35 1 12 32
M  V30 36 1 13 33
M  V30 37 1 13 34
M  V30 38 1 14 35
M  V30 39 1 14 36
M  V30 40 1 15 37
M  V30 41 1 15 38
M  V30 42 1 18 39
M  V30 43 1 19 40
M  V30 44 1 20 41
M  V30 45 1 21 42
M  V30 46 1 27 43
M  V30 47 1 27 44
M  V30 END BOND
M  V30 END CTAB
M  END
