
     RDKit          3D

  0  0  0  0  0  0  0  0  0  0999 V3000
M  V30 BEGIN CTAB
M  V30 COUNTS 21 21 0 0 0
M  V30 BEGIN ATOM
M  V30 1 N 2.53436 -0.97321 0.892993 0
M  V30 2 C 2.59266 0.0317052 -0.136809 0
M  V30 3 N 1.5947 0.539056 -0.715268 0
M  V30 4 C 0.235142 0.312942 -0.547178 0
M  V30 5 C -0.567226 1.41508 -0.183209 0
M  V30 6 C -1.90759 1.29345 0.0853413 0
M  V30 7 C -2.47318 0.0431501 -0.0138162 0
M  V30 8 C -1.71661 -1.07445 -0.364565 0
M  V30 9 C -0.386618 -0.908609 -0.621159 0
M  V30 10 N -3.87389 -0.157706 0.238776 0 CHG=1
M  V30 11 O -4.4239 -1.28198 0.144593 0
M  V30 12 O -4.64337 0.916001 0.563913 0 CHG=-1
M  V30 13 N 3.91559 0.497492 -0.458822 0
M  V30 14 H 2.43139 -0.747784 1.88134 0
M  V30 15 H 2.62653 -1.98518 0.573203 0
M  V30 16 H -0.126981 2.38878 -0.124763 0
M  V30 17 H -2.54833 2.1273 0.363432 0
M  V30 18 H -2.23005 -2.01767 -0.401343 0
M  V30 19 H 0.208716 -1.75158 -0.88486 0
M  V30 20 H 4.1066 0.822426 -1.40417 0
M  V30 21 H 4.65204 0.510786 0.272598 0
M  V30 END ATOM
M  V30 BEGIN BOND
M  V30 1 1 1 2
M  V30 2 2 2 3 CFG=2
M  V30 3 1 3 4
M  V30 4 2 4 5
M  V30 5 1 5 6
M  V30 6 2 6 7
M  V30 7 1 7 8
M  V30 8 2 8 9
M  V30 9 1 7 10
M  V30 10 2 10 11
M  V30 11 1 10 12
M  V30 12 1 2 13
M  V30 13 1 9 4
M  V30 14 1 1 14
M  V30 15 1 1 15
M  V30 16 1 5 16
M  V30 17 1 6 17
M  V30 18 1 8 18
M  V30 19 1 9 19
M  V30 20 1 13 20
M  V30 21 1 13 21
M  V30 END BOND
M  V30 END CTAB
M  END
