
     RDKit          3D

  0  0  0  0  0  0  0  0  0  0999 V3000
M  V30 BEGIN CTAB
M  V30 COUNTS 65 68 0 0 0
M  V30 BEGIN ATOM
M  V30 1 C -2.33518 2.34501 1.81957 0
M  V30 2 C -2.2241 1.05228 2.57736 0
M  V30 3 O -2.40357 -0.0287603 1.74703 0
M  V30 4 C -3.53728 -0.335554 1.03639 0
M  V30 5 C -4.67971 0.427704 1.09014 0
M  V30 6 C -5.82834 0.119017 0.374322 0
M  V30 7 C -5.87289 -0.985597 -0.435641 0
M  V30 8 O -7.1393 -1.06876 -1.04308 0
M  V30 9 C -7.65841 0.2727 -1.06257 0
M  V30 10 C -6.90933 1.00934 -2.15242 0
M  V30 11 C -7.16259 0.76538 0.278225 0
M  V30 12 C -4.71539 -1.76383 -0.492566 0
M  V30 13 C -3.57591 -1.4733 0.206586 0
M  V30 14 C -2.37993 -2.31748 0.124668 0
M  V30 15 O -1.21287 -1.57578 -0.13806 0
M  V30 16 C -0.0403832 -1.62145 0.583771 0
M  V30 17 C 0.99111 -0.797022 0.157907 0
M  V30 18 C 2.22111 -0.735914 0.77909 0
M  V30 19 N 2.3757 -1.54392 1.85606 0
M  V30 20 C 1.38974 -2.34334 2.27752 0
M  V30 21 N 1.67399 -3.14543 3.42113 0
M  V30 22 N 0.190598 -2.38969 1.65564 0
M  V30 23 C 3.31345 0.112343 0.33985 0
M  V30 24 C 4.50576 0.0662419 1.01709 0
M  V30 25 C 5.57645 0.854005 0.633638 0
M  V30 26 C 5.47672 1.70824 -0.440187 0
M  V30 27 C 6.64035 2.56775 -0.883994 0
M  V30 28 C 7.43432 1.86939 -1.95669 0 CFG=2
M  V30 29 N 6.58921 1.5881 -3.11055 0
M  V30 30 C 7.96042 0.601013 -1.43838 0
M  V30 31 O 7.53406 -0.596608 -1.97615 0
M  V30 32 O 8.80607 0.652918 -0.494422 0
M  V30 33 C 4.2846 1.76318 -1.1269 0
M  V30 34 C 3.22244 0.95663 -0.716405 0
M  V30 35 C -2.49089 -3.52245 -0.773368 0
M  V30 36 F -1.28524 -4.24565 -0.761839 0
M  V30 37 F -3.42954 -4.43661 -0.361696 0
M  V30 38 F -2.68764 -3.20442 -2.09933 0
M  V30 39 H -3.08949 3.03119 2.24171 0
M  V30 40 H -1.36703 2.87198 1.87073 0
M  V30 41 H -2.51144 2.11358 0.756111 0
M  V30 42 H -3.00546 1.03062 3.39121 0
M  V30 43 H -1.24417 1.00327 3.10216 0
M  V30 44 H -4.69192 1.32162 1.74015 0
M  V30 45 H -8.74075 0.294235 -1.1787 0
M  V30 46 H -5.85822 0.641808 -2.09418 0
M  V30 47 H -6.87498 2.099 -2.00781 0
M  V30 48 H -7.29945 0.753682 -3.1408 0
M  V30 49 H -7.78748 0.288704 1.07289 0
M  V30 50 H -7.12259 1.86087 0.352022 0
M  V30 51 H -4.82894 -2.63268 -1.1607 0
M  V30 52 H -2.21006 -2.75746 1.15513 0
M  V30 53 H 0.81412 -0.156911 -0.724002 0
M  V30 54 H 2.19407 -2.72754 4.21997 0
M  V30 55 H 1.38609 -4.14337 3.50902 0
M  V30 56 H 4.66962 -0.578044 1.87158 0
M  V30 57 H 6.51897 0.79741 1.20372 0
M  V30 58 H 7.24659 2.85953 -0.019076 0
M  V30 59 H 6.21647 3.49567 -1.31441 0
M  V30 60 H 8.25786 2.51657 -2.33874 0
M  V30 61 H 5.99296 0.766658 -2.95305 0
M  V30 62 H 6.0984 2.42356 -3.45486 0
M  V30 63 H 8.13011 -1.23475 -2.48779 0
M  V30 64 H 4.18597 2.43092 -1.97691 0
M  V30 65 H 2.30317 1.03017 -1.28209 0
M  V30 END ATOM
M  V30 BEGIN BOND
M  V30 1 1 1 2
M  V30 2 1 2 3
M  V30 3 1 3 4
M  V30 4 2 4 5
M  V30 5 1 5 6
M  V30 6 2 6 7
M  V30 7 1 7 8
M  V30 8 1 8 9
M  V30 9 1 9 10
M  V30 10 1 9 11
M  V30 11 1 7 12
M  V30 12 2 12 13
M  V30 13 1 13 14
M  V30 14 1 14 15
M  V30 15 1 15 16
M  V30 16 2 16 17
M  V30 17 1 17 18
M  V30 18 2 18 19
M  V30 19 1 19 20
M  V30 20 1 20 21
M  V30 21 2 20 22
M  V30 22 1 18 23
M  V30 23 2 23 24
M  V30 24 1 24 25
M  V30 25 2 25 26
M  V30 26 1 26 27
M  V30 27 1 27 28
M  V30 28 1 28 29
M  V30 29 1 28 30
M  V30 30 1 30 31
M  V30 31 2 30 32
M  V30 32 1 26 33
M  V30 33 2 33 34
M  V30 34 1 14 35
M  V30 35 1 35 36
M  V30 36 1 35 37
M  V30 37 1 35 38
M  V30 38 1 13 4
M  V30 39 1 22 16
M  V30 40 1 34 23
M  V30 41 1 11 6
M  V30 42 1 1 39
M  V30 43 1 1 40
M  V30 44 1 1 41
M  V30 45 1 2 42
M  V30 46 1 2 43
M  V30 47 1 5 44
M  V30 48 1 9 45
M  V30 49 1 10 46
M  V30 50 1 10 47
M  V30 51 1 10 48
M  V30 52 1 11 49
M  V30 53 1 11 50
M  V30 54 1 12 51
M  V30 55 1 14 52
M  V30 56 1 17 53
M  V30 57 1 21 54
M  V30 58 1 21 55
M  V30 59 1 24 56
M  V30 60 1 25 57
M  V30 61 1 27 58
M  V30 62 1 27 59
M  V30 63 1 28 60 CFG=3
M  V30 64 1 29 61
M  V30 65 1 29 62
M  V30 66 1 31 63
M  V30 67 1 33 64
M  V30 68 1 34 65
M  V30 END BOND
M  V30 END CTAB
M  END
