
     RDKit          3D

  0  0  0  0  0  0  0  0  0  0999 V3000
M  V30 BEGIN CTAB
M  V30 COUNTS 26 26 0 0 0
M  V30 BEGIN ATOM
M  V30 1 N 0.545544 -2.17091 -1.50116 0
M  V30 2 C 0.651435 -1.33803 -0.531275 0
M  V30 3 N -0.525312 -0.78216 0.0294701 0
M  V30 4 C -0.658259 -0.626498 1.46378 0
M  V30 5 C -1.59682 0.530423 1.72001 0
M  V30 6 N -2.54113 0.714958 0.713898 0
M  V30 7 C -2.09377 0.992895 -0.610205 0
M  V30 8 C -1.63834 -0.348749 -0.805398 0
M  V30 9 N 1.95684 -1.01489 -0.0672024 0
M  V30 10 C 2.56353 0.0794525 -0.3867 0
M  V30 11 N 1.95556 1.04447 -1.23514 0
M  V30 12 N 3.85481 0.29911 0.129068 0
M  V30 13 H -0.397031 -2.42265 -1.85753 0
M  V30 14 H 0.365602 -0.380259 1.87188 0
M  V30 15 H -1.05104 -1.57088 1.92598 0
M  V30 16 H -2.15043 0.260685 2.666 0
M  V30 17 H -1.01415 1.43545 1.99019 0
M  V30 18 H -3.37393 0.167229 0.67044 0
M  V30 19 H -2.0902 1.96093 -0.262197 0
M  V30 20 H -1.07731 1.33121 -0.938537 0
M  V30 21 H -1.36094 -0.624268 -1.87804 0
M  V30 22 H -2.42342 -1.15647 -0.648957 0
M  V30 23 H 1.77698 2.0292 -0.894142 0
M  V30 24 H 1.66184 0.835477 -2.21327 0
M  V30 25 H 4.55823 0.825672 -0.412009 0
M  V30 26 H 4.10171 -0.0713952 1.06106 0
M  V30 END ATOM
M  V30 BEGIN BOND
M  V30 1 2 1 2 CFG=2
M  V30 2 1 2 3
M  V30 3 1 3 4
M  V30 4 1 4 5
M  V30 5 1 5 6
M  V30 6 1 6 7
M  V30 7 1 7 8
M  V30 8 1 2 9
M  V30 9 2 9 10 CFG=2
M  V30 10 1 10 11
M  V30 11 1 10 12
M  V30 12 1 8 3
M  V30 13 1 1 13
M  V30 14 1 4 14
M  V30 15 1 4 15
M  V30 16 1 5 16
M  V30 17 1 5 17
M  V30 18 1 6 18
M  V30 19 1 7 19
M  V30 20 1 7 20
M  V30 21 1 8 21
M  V30 22 1 8 22
M  V30 23 1 11 23
M  V30 24 1 11 24
M  V30 25 1 12 25
M  V30 26 1 12 26
M  V30 END BOND
M  V30 END CTAB
M  END
