
     RDKit          3D

  0  0  0  0  0  0  0  0  0  0999 V3000
M  V30 BEGIN CTAB
M  V30 COUNTS 43 44 0 0 0
M  V30 BEGIN ATOM
M  V30 1 O 0.510054 1.7154 -1.30211 0
M  V30 2 C 0.219624 1.71305 -0.0951887 0
M  V30 3 C -1.11876 1.17918 0.277794 0
M  V30 4 O -1.44603 1.15382 1.48419 0
M  V30 5 N -1.95093 0.729281 -0.741778 0
M  V30 6 C -3.23852 0.204974 -0.583818 0
M  V30 7 C -4.00327 0.386663 0.536397 0
M  V30 8 C -5.27556 -0.183363 0.63937 0
M  V30 9 C -5.83108 -0.947515 -0.357545 0
M  V30 10 C -5.03795 -1.1163 -1.48152 0
M  V30 11 C -3.80027 -0.577208 -1.61187 0
M  V30 12 S -7.42228 -1.65471 -0.215929 0
M  V30 13 O -8.26881 -0.822927 0.735749 0
M  V30 14 O -8.07567 -1.77721 -1.55536 0
M  V30 15 N -7.34645 -3.2394 0.481357 0
M  V30 16 N 1.05929 2.17545 0.934465 0
M  V30 17 C 2.35517 2.69588 0.62933 0
M  V30 18 C 3.34945 1.62679 0.330416 0
M  V30 19 C 3.918 0.908982 1.37872 0
M  V30 20 C 4.84633 -0.0902157 1.17767 0
M  V30 21 C 5.25491 -0.422614 -0.0971733 0
M  V30 22 C 4.69411 0.286185 -1.13775 0
M  V30 23 C 3.76258 1.28915 -0.939046 0
M  V30 24 S 6.43898 -1.6938 -0.378787 0
M  V30 25 O 6.39633 -2.72514 0.716621 0
M  V30 26 O 6.20045 -2.3726 -1.6733 0
M  V30 27 N 8.04357 -1.04532 -0.387308 0
M  V30 28 H -1.58413 0.788432 -1.74857 0
M  V30 29 H -3.68706 0.985966 1.39581 0
M  V30 30 H -5.86008 -0.0264316 1.53422 0
M  V30 31 H -5.46259 -1.72013 -2.28444 0
M  V30 32 H -3.17702 -0.716889 -2.50757 0
M  V30 33 H -6.99728 -3.24312 1.44355 0
M  V30 34 H -6.81325 -3.83551 -0.180457 0
M  V30 35 H 0.752359 2.14619 1.93627 0
M  V30 36 H 2.31896 3.41466 -0.240937 0
M  V30 37 H 2.72663 3.27905 1.4755 0
M  V30 38 H 3.58336 1.18438 2.39155 0
M  V30 39 H 5.26709 -0.627556 2.02197 0
M  V30 40 H 5.01793 0.0232818 -2.15427 0
M  V30 41 H 3.34277 1.83139 -1.78845 0
M  V30 42 H 8.18048 -0.627141 -1.35327 0
M  V30 43 H 8.15858 -0.25307 0.282059 0
M  V30 END ATOM
M  V30 BEGIN BOND
M  V30 1 2 1 2
M  V30 2 1 2 3
M  V30 3 2 3 4
M  V30 4 1 3 5
M  V30 5 1 5 6
M  V30 6 2 6 7
M  V30 7 1 7 8
M  V30 8 2 8 9
M  V30 9 1 9 10
M  V30 10 2 10 11
M  V30 11 1 9 12
M  V30 12 2 12 13
M  V30 13 2 12 14
M  V30 14 1 12 15
M  V30 15 1 2 16
M  V30 16 1 16 17
M  V30 17 1 17 18
M  V30 18 2 18 19
M  V30 19 1 19 20
M  V30 20 2 20 21
M  V30 21 1 21 22
M  V30 22 2 22 23
M  V30 23 1 21 24
M  V30 24 2 24 25
M  V30 25 2 24 26
M  V30 26 1 24 27
M  V30 27 1 11 6
M  V30 28 1 23 18
M  V30 29 1 5 28
M  V30 30 1 7 29
M  V30 31 1 8 30
M  V30 32 1 10 31
M  V30 33 1 11 32
M  V30 34 1 15 33
M  V30 35 1 15 34
M  V30 36 1 16 35
M  V30 37 1 17 36
M  V30 38 1 17 37
M  V30 39 1 19 38
M  V30 40 1 20 39
M  V30 41 1 22 40
M  V30 42 1 23 41
M  V30 43 1 27 42
M  V30 44 1 27 43
M  V30 END BOND
M  V30 END CTAB
M  END
