
     RDKit          3D

  0  0  0  0  0  0  0  0  0  0999 V3000
M  V30 BEGIN CTAB
M  V30 COUNTS 25 24 0 0 0
M  V30 BEGIN ATOM
M  V30 1 N 4.21464 0.0514235 -0.693413 0
M  V30 2 N 3.008 0.126844 -0.0349623 0
M  V30 3 C 1.81235 -0.494829 -0.458702 0
M  V30 4 O 1.81787 -1.1762 -1.51413 0
M  V30 5 C 0.559404 -0.369576 0.297552 0
M  V30 6 C -0.55836 0.225674 -0.543578 0
M  V30 7 C -1.82983 0.348748 0.23636 0
M  V30 8 C -2.25124 -1.03734 0.702628 0
M  V30 9 C -2.91948 0.838636 -0.694855 0
M  V30 10 N 0.690385 0.436862 1.48488 0
M  V30 11 H 4.1645 -0.0460697 -1.70965 0
M  V30 12 H 4.95721 -0.460313 -0.212991 0
M  V30 13 H 2.99309 0.701802 0.860213 0
M  V30 14 H 0.17444 -1.37361 0.642075 0
M  V30 15 H -0.739191 -0.338693 -1.46752 0
M  V30 16 H -0.253572 1.25854 -0.873356 0
M  V30 17 H -1.75649 1.0119 1.10732 0
M  V30 18 H -1.64197 -1.2997 1.56741 0
M  V30 19 H -2.04032 -1.74171 -0.115617 0
M  V30 20 H -3.33211 -1.05369 0.967256 0
M  V30 21 H -2.75962 1.94034 -0.816849 0
M  V30 22 H -2.78429 0.38451 -1.69424 0
M  V30 23 H -3.92788 0.676791 -0.306432 0
M  V30 24 H 1.4128 -0.0083963 2.09736 0
M  V30 25 H 0.98968 1.39804 1.17324 0
M  V30 END ATOM
M  V30 BEGIN BOND
M  V30 1 1 1 2
M  V30 2 1 2 3
M  V30 3 2 3 4
M  V30 4 1 3 5
M  V30 5 1 5 6
M  V30 6 1 6 7
M  V30 7 1 7 8
M  V30 8 1 7 9
M  V30 9 1 5 10
M  V30 10 1 1 11
M  V30 11 1 1 12
M  V30 12 1 2 13
M  V30 13 1 5 14
M  V30 14 1 6 15
M  V30 15 1 6 16
M  V30 16 1 7 17
M  V30 17 1 8 18
M  V30 18 1 8 19
M  V30 19 1 8 20
M  V30 20 1 9 21
M  V30 21 1 9 22
M  V30 22 1 9 23
M  V30 23 1 10 24
M  V30 24 1 10 25
M  V30 END BOND
M  V30 END CTAB
M  END
