
     RDKit          3D

  0  0  0  0  0  0  0  0  0  0999 V3000
M  V30 BEGIN CTAB
M  V30 COUNTS 26 25 0 0 0
M  V30 BEGIN ATOM
M  V30 1 N 4.55682 0.792856 -0.144036 0
M  V30 2 N 3.37291 0.23534 0.356098 0
M  V30 3 C 2.11381 0.870544 0.222021 0
M  V30 4 O 1.97585 1.96627 -0.349134 0
M  V30 5 C 0.91542 0.209791 0.780584 0
M  V30 6 C -0.114873 -0.0922263 -0.291635 0
M  V30 7 C -1.26347 -0.750164 0.387637 0
M  V30 8 C -2.48972 -0.232488 0.366671 0
M  V30 9 C -2.71348 1.04569 -0.361068 0
M  V30 10 C -3.64148 -0.881267 1.04115 0
M  V30 11 N 1.28429 -1.02646 1.39149 0
M  V30 12 H 4.63989 0.560238 -1.15735 0
M  V30 13 H 5.39515 0.521154 0.383061 0
M  V30 14 H 3.44966 -0.682094 0.840695 0
M  V30 15 H 0.473721 0.914711 1.51739 0
M  V30 16 H -0.420395 0.812047 -0.854069 0
M  V30 17 H 0.384445 -0.82185 -0.990164 0
M  V30 18 H -1.05094 -1.6816 0.906017 0
M  V30 19 H -3.71448 1.46241 -0.176268 0
M  V30 20 H -2.64378 0.848352 -1.46462 0
M  V30 21 H -1.98742 1.83404 -0.0413511 0
M  V30 22 H -3.95754 -0.229158 1.88035 0
M  V30 23 H -4.47072 -0.974426 0.293091 0
M  V30 24 H -3.4139 -1.91416 1.3671 0
M  V30 25 H 1.93775 -0.967457 2.17854 0
M  V30 26 H 1.38248 -1.82009 0.755195 0
M  V30 END ATOM
M  V30 BEGIN BOND
M  V30 1 1 1 2
M  V30 2 1 2 3
M  V30 3 2 3 4
M  V30 4 1 3 5
M  V30 5 1 5 6
M  V30 6 1 6 7
M  V30 7 2 7 8 CFG=2
M  V30 8 1 8 9
M  V30 9 1 8 10
M  V30 10 1 5 11
M  V30 11 1 1 12
M  V30 12 1 1 13
M  V30 13 1 2 14
M  V30 14 1 5 15
M  V30 15 1 6 16
M  V30 16 1 6 17
M  V30 17 1 7 18
M  V30 18 1 9 19
M  V30 19 1 9 20
M  V30 20 1 9 21
M  V30 21 1 10 22
M  V30 22 1 10 23
M  V30 23 1 10 24
M  V30 24 1 11 25
M  V30 25 1 11 26
M  V30 END BOND
M  V30 END CTAB
M  END
