
     RDKit          3D

  0  0  0  0  0  0  0  0  0  0999 V3000
M  V30 BEGIN CTAB
M  V30 COUNTS 34 35 0 0 0
M  V30 BEGIN ATOM
M  V30 1 N -3.35103 -1.5244 -0.25326 0
M  V30 2 C -3.03274 -0.291171 0.448207 0
M  V30 3 C -2.13856 -0.669095 1.60592 0
M  V30 4 C -0.770922 -0.642547 0.906656 0
M  V30 5 N -0.837587 0.574394 0.161884 0
M  V30 6 C -2.17884 0.593701 -0.392486 0
M  V30 7 C -2.72061 1.99909 -0.506885 0
M  V30 8 C 0.0825033 0.614155 -0.953139 0
M  V30 9 C 1.49414 0.480643 -0.559925 0
M  V30 10 C 2.27572 1.58324 -0.256858 0
M  V30 11 C 3.60179 1.46061 0.112752 0
M  V30 12 C 4.20763 0.226039 0.196127 0
M  V30 13 C 3.4439 -0.882234 -0.102249 0
M  V30 14 C 2.12077 -0.745859 -0.470025 0
M  V30 15 N 4.07253 -2.15284 -0.0149647 0
M  V30 16 H -4.28112 -1.5194 -0.69222 0
M  V30 17 H -3.12178 -2.37389 0.281392 0
M  V30 18 H -3.98003 0.172442 0.788842 0
M  V30 19 H -2.29782 -1.68834 1.96844 0
M  V30 20 H -2.21001 0.106211 2.36966 0
M  V30 21 H -0.719132 -1.55242 0.309029 0
M  V30 22 H -0.0330121 -0.629122 1.73102 0
M  V30 23 H -2.15746 0.180875 -1.43422 0
M  V30 24 H -2.24212 2.65845 0.2605 0
M  V30 25 H -3.81577 2.05226 -0.362492 0
M  V30 26 H -2.49759 2.46479 -1.49186 0
M  V30 27 H -0.239698 -0.193232 -1.65478 0
M  V30 28 H -0.0527158 1.56644 -1.50442 0
M  V30 29 H 1.81178 2.55827 -0.318564 0
M  V30 30 H 4.22274 2.32027 0.352341 0
M  V30 31 H 5.24697 0.115981 0.484811 0
M  V30 32 H 1.53137 -1.61704 -0.701452 0
M  V30 33 H 4.91307 -2.30804 0.556208 0
M  V30 34 H 3.65365 -2.93821 -0.553596 0
M  V30 END ATOM
M  V30 BEGIN BOND
M  V30 1 1 1 2
M  V30 2 1 2 3
M  V30 3 1 3 4
M  V30 4 1 4 5
M  V30 5 1 5 6
M  V30 6 1 6 7
M  V30 7 1 5 8
M  V30 8 1 8 9
M  V30 9 2 9 10
M  V30 10 1 10 11
M  V30 11 2 11 12
M  V30 12 1 12 13
M  V30 13 2 13 14
M  V30 14 1 13 15
M  V30 15 1 6 2
M  V30 16 1 14 9
M  V30 17 1 1 16
M  V30 18 1 1 17
M  V30 19 1 2 18
M  V30 20 1 3 19
M  V30 21 1 3 20
M  V30 22 1 4 21
M  V30 23 1 4 22
M  V30 24 1 6 23
M  V30 25 1 7 24
M  V30 26 1 7 25
M  V30 27 1 7 26
M  V30 28 1 8 27
M  V30 29 1 8 28
M  V30 30 1 10 29
M  V30 31 1 11 30
M  V30 32 1 12 31
M  V30 33 1 14 32
M  V30 34 1 15 33
M  V30 35 1 15 34
M  V30 END BOND
M  V30 END CTAB
M  END
