
     RDKit          3D

  0  0  0  0  0  0  0  0  0  0999 V3000
M  V30 BEGIN CTAB
M  V30 COUNTS 27 28 0 0 0
M  V30 BEGIN ATOM
M  V30 1 F -4.82469 -0.776293 1.60629 0
M  V30 2 C -3.51581 -0.56196 1.2419 0
M  V30 3 C -2.4693 -0.857085 2.05047 0
M  V30 4 C -1.18376 -0.64145 1.68097 0
M  V30 5 C -0.896551 -0.0958129 0.423915 0
M  V30 6 C -1.94964 0.208533 -0.40713 0
M  V30 7 C -3.26071 -0.0278063 0.00991842 0
M  V30 8 C -1.78778 0.772869 -1.74789 0
M  V30 9 F -3.08333 0.923454 -2.32729 0
M  V30 10 F -1.35762 2.10679 -1.70514 0
M  V30 11 F -1.07335 -0.00149599 -2.62672 0
M  V30 12 C 0.495763 0.0479717 0.107802 0
M  V30 13 C 1.45245 -0.679904 0.801208 0
M  V30 14 C 2.81799 -0.581776 0.482093 0
M  V30 15 N 3.78396 -1.34032 1.21016 0
M  V30 16 N 3.18127 0.230582 -0.508796 0
M  V30 17 C 2.24718 0.949242 -1.19597 0
M  V30 18 N 0.968963 0.820888 -0.854723 0
M  V30 19 N 2.59555 1.82602 -2.25934 0
M  V30 20 H -2.69636 -1.28084 3.02476 0
M  V30 21 H -0.365416 -0.882363 2.38109 0
M  V30 22 H -4.11907 0.205824 -0.631938 0
M  V30 23 H 1.24902 -1.36712 1.60166 0
M  V30 24 H 4.71723 -0.932159 1.43834 0
M  V30 25 H 3.61614 -2.31428 1.5442 0
M  V30 26 H 2.85886 1.38524 -3.16496 0
M  V30 27 H 2.59901 2.86324 -2.17489 0
M  V30 END ATOM
M  V30 BEGIN BOND
M  V30 1 1 1 2
M  V30 2 2 2 3
M  V30 3 1 3 4
M  V30 4 2 4 5
M  V30 5 1 5 6
M  V30 6 2 6 7
M  V30 7 1 6 8
M  V30 8 1 8 9
M  V30 9 1 8 10
M  V30 10 1 8 11
M  V30 11 1 5 12
M  V30 12 2 12 13
M  V30 13 1 13 14
M  V30 14 1 14 15
M  V30 15 2 14 16
M  V30 16 1 16 17
M  V30 17 2 17 18
M  V30 18 1 17 19
M  V30 19 1 7 2
M  V30 20 1 18 12
M  V30 21 1 3 20
M  V30 22 1 4 21
M  V30 23 1 7 22
M  V30 24 1 13 23
M  V30 25 1 15 24
M  V30 26 1 15 25
M  V30 27 1 19 26
M  V30 28 1 19 27
M  V30 END BOND
M  V30 END CTAB
M  END
