
     RDKit          3D

  0  0  0  0  0  0  0  0  0  0999 V3000
M  V30 BEGIN CTAB
M  V30 COUNTS 19 19 0 0 0
M  V30 BEGIN ATOM
M  V30 1 N -3.44395 -0.135544 -0.438695 0
M  V30 2 C -2.08211 0.346327 -0.299697 0
M  V30 3 C -1.25271 -0.707199 0.426897 0
M  V30 4 N 0.115601 -0.267244 0.58766 0
M  V30 5 N 0.591759 0.415802 1.61392 0
M  V30 6 C 1.91045 0.644514 1.41127 0
M  V30 7 C 2.25794 0.0786992 0.211548 0
M  V30 8 C 1.10795 -0.493137 -0.293555 0
M  V30 9 N 3.56483 0.116843 -0.33442 0
M  V30 10 H -3.80947 0.0196814 -1.40956 0
M  V30 11 H -4.05749 0.345555 0.277305 0
M  V30 12 H -2.01309 1.30275 0.243595 0
M  V30 13 H -1.63755 0.444866 -1.32945 0
M  V30 14 H -1.26863 -1.66754 -0.117542 0
M  V30 15 H -1.73478 -0.887028 1.41939 0
M  V30 16 H 2.58161 1.17186 2.06055 0
M  V30 17 H 1.06921 -1.02262 -1.24475 0
M  V30 18 H 4.07896 -0.746485 -0.599457 0
M  V30 19 H 4.02147 1.03989 -0.473125 0
M  V30 END ATOM
M  V30 BEGIN BOND
M  V30 1 1 1 2
M  V30 2 1 2 3
M  V30 3 1 3 4
M  V30 4 1 4 5
M  V30 5 2 5 6
M  V30 6 1 6 7
M  V30 7 2 7 8
M  V30 8 1 7 9
M  V30 9 1 8 4
M  V30 10 1 1 10
M  V30 11 1 1 11
M  V30 12 1 2 12
M  V30 13 1 2 13
M  V30 14 1 3 14
M  V30 15 1 3 15
M  V30 16 1 6 16
M  V30 17 1 8 17
M  V30 18 1 9 18
M  V30 19 1 9 19
M  V30 END BOND
M  V30 END CTAB
M  END
