
     RDKit          3D

  0  0  0  0  0  0  0  0  0  0999 V3000
M  V30 BEGIN CTAB
M  V30 COUNTS 26 26 0 0 0
M  V30 BEGIN ATOM
M  V30 1 N 1.26981 2.21106 -0.902286 0
M  V30 2 C 0.617323 1.03385 -0.61778 0 CFG=2
M  V30 3 C -0.780617 1.1908 -0.0624571 0
M  V30 4 O -0.712325 1.91893 1.11593 0
M  V30 5 C -1.48139 -0.104062 0.163456 0 CFG=1
M  V30 6 N -1.80472 -0.682096 -1.12504 0
M  V30 7 C -0.656387 -1.12207 0.914486 0 CFG=1
M  V30 8 O -1.34458 -2.31894 0.95753 0
M  V30 9 C 0.666105 -1.24752 0.166973 0
M  V30 10 O 1.4294 -2.29732 0.587728 0
M  V30 11 C 1.35502 0.104593 0.337818 0 CFG=1
M  V30 12 O 2.69955 0.0567457 0.123731 0
M  V30 13 H 0.934792 2.73297 -1.65083 0
M  V30 14 H 2.09627 2.45655 -0.479477 0
M  V30 15 H 0.498228 0.438078 -1.56926 0
M  V30 16 H -1.35633 1.76779 -0.812912 0
M  V30 17 H -1.5527 2.41639 1.29079 0
M  V30 18 H -2.3833 0.0988041 0.780163 0
M  V30 19 H -2.10658 -1.66986 -1.0308 0
M  V30 20 H -2.51249 -0.0685487 -1.56402 0
M  V30 21 H -0.382829 -0.76144 1.94267 0
M  V30 22 H -1.0742 -2.93817 0.221452 0
M  V30 23 H 0.395766 -1.36266 -0.921177 0
M  V30 24 H 1.92608 -2.64474 -0.219606 0
M  V30 25 H 1.10181 0.483719 1.36616 0
M  V30 26 H 3.15829 0.307134 0.986749 0
M  V30 END ATOM
M  V30 BEGIN BOND
M  V30 1 1 1 2
M  V30 2 1 2 3
M  V30 3 1 3 4
M  V30 4 1 3 5
M  V30 5 1 5 6
M  V30 6 1 5 7
M  V30 7 1 7 8
M  V30 8 1 7 9
M  V30 9 1 9 10
M  V30 10 1 9 11
M  V30 11 1 11 12
M  V30 12 1 11 2
M  V30 13 1 1 13
M  V30 14 1 1 14
M  V30 15 1 2 15 CFG=3
M  V30 16 1 3 16
M  V30 17 1 4 17
M  V30 18 1 5 18 CFG=1
M  V30 19 1 6 19
M  V30 20 1 6 20
M  V30 21 1 7 21 CFG=1
M  V30 22 1 8 22
M  V30 23 1 9 23
M  V30 24 1 10 24
M  V30 25 1 11 25 CFG=1
M  V30 26 1 12 26
M  V30 END BOND
M  V30 END CTAB
M  END
