
     RDKit          3D

  0  0  0  0  0  0  0  0  0  0999 V3000
M  V30 BEGIN CTAB
M  V30 COUNTS 47 47 0 0 0
M  V30 BEGIN ATOM
M  V30 1 C -3.56916 2.25447 -1.20316 0
M  V30 2 C -3.98866 1.00721 -0.460471 0
M  V30 3 C -2.75035 0.394207 0.231229 0
M  V30 4 C -3.10795 -0.826862 0.970354 0
M  V30 5 C -2.05368 -1.50975 1.74629 0
M  V30 6 N -0.850784 -1.92588 1.00299 0
M  V30 7 C 0.257503 -1.10156 1.06632 0
M  V30 8 O 0.113627 -0.0510545 1.85192 0
M  V30 9 C 1.54272 -1.16466 0.442568 0
M  V30 10 C 1.8825 -2.10792 -0.492927 0
M  V30 11 C 3.18342 -2.08507 -1.01436 0
M  V30 12 C 4.10504 -1.15273 -0.613285 0
M  V30 13 C 3.79429 -0.191501 0.324262 0
M  V30 14 C 2.52137 -0.220988 0.829003 0
M  V30 15 C 4.78737 0.811766 0.754724 0
M  V30 16 S 4.75201 2.28139 -0.238821 0
M  V30 17 O 3.44904 2.98525 -0.189151 0
M  V30 18 O 5.15723 1.98213 -1.64422 0
M  V30 19 N 5.98032 3.3406 0.41251 0
M  V30 20 C -0.959035 -3.16859 0.308569 0
M  V30 21 N -1.88182 -0.00899301 -0.911534 0
M  V30 22 C -5.08024 1.28159 0.52224 0
M  V30 23 H -2.95228 2.01669 -2.07249 0
M  V30 24 H -3.06142 2.9092 -0.454388 0
M  V30 25 H -4.52627 2.74677 -1.53891 0
M  V30 26 H -4.34293 0.279357 -1.21631 0
M  V30 27 H -2.26411 1.15566 0.803234 0
M  V30 28 H -3.61464 -1.59518 0.308676 0
M  V30 29 H -3.9032 -0.527666 1.73951 0
M  V30 30 H -1.69809 -0.896166 2.63091 0
M  V30 31 H -2.4593 -2.44101 2.25723 0
M  V30 32 H 1.20639 -2.86656 -0.870303 0
M  V30 33 H 3.41647 -2.85298 -1.75701 0
M  V30 34 H 5.10265 -1.14694 -1.02303 0
M  V30 35 H 2.26772 0.53033 1.56794 0
M  V30 36 H 4.69425 1.04255 1.83455 0
M  V30 37 H 5.81275 0.374849 0.632335 0
M  V30 38 H 6.77504 2.72907 0.741719 0
M  V30 39 H 5.63067 3.82029 1.27475 0
M  V30 40 H -1.06989 -3.08706 -0.779841 0
M  V30 41 H -1.92758 -3.71086 0.613809 0
M  V30 42 H -0.17938 -3.92119 0.606634 0
M  V30 43 H -2.53265 -0.434647 -1.60563 0
M  V30 44 H -1.46123 0.832798 -1.33546 0
M  V30 45 H -4.72792 1.51132 1.54345 0
M  V30 46 H -5.85928 0.490898 0.492581 0
M  V30 47 H -5.61052 2.21739 0.178173 0
M  V30 END ATOM
M  V30 BEGIN BOND
M  V30 1 1 1 2
M  V30 2 1 2 3
M  V30 3 1 3 4
M  V30 4 1 4 5
M  V30 5 1 5 6
M  V30 6 1 6 7
M  V30 7 2 7 8
M  V30 8 1 7 9
M  V30 9 2 9 10
M  V30 10 1 10 11
M  V30 11 2 11 12
M  V30 12 1 12 13
M  V30 13 2 13 14
M  V30 14 1 13 15
M  V30 15 1 15 16
M  V30 16 2 16 17
M  V30 17 2 16 18
M  V30 18 1 16 19
M  V30 19 1 6 20
M  V30 20 1 3 21
M  V30 21 1 2 22
M  V30 22 1 14 9
M  V30 23 1 1 23
M  V30 24 1 1 24
M  V30 25 1 1 25
M  V30 26 1 2 26
M  V30 27 1 3 27
M  V30 28 1 4 28
M  V30 29 1 4 29
M  V30 30 1 5 30
M  V30 31 1 5 31
M  V30 32 1 10 32
M  V30 33 1 11 33
M  V30 34 1 12 34
M  V30 35 1 14 35
M  V30 36 1 15 36
M  V30 37 1 15 37
M  V30 38 1 19 38
M  V30 39 1 19 39
M  V30 40 1 20 40
M  V30 41 1 20 41
M  V30 42 1 20 42
M  V30 43 1 21 43
M  V30 44 1 21 44
M  V30 45 1 22 45
M  V30 46 1 22 46
M  V30 47 1 22 47
M  V30 END BOND
M  V30 END CTAB
M  END
