
     RDKit          3D

  0  0  0  0  0  0  0  0  0  0999 V3000
M  V30 BEGIN CTAB
M  V30 COUNTS 33 34 0 0 0
M  V30 BEGIN ATOM
M  V30 1 N -6.21029 -0.0567392 0.651509 0
M  V30 2 C -4.84745 -0.552967 0.387538 0
M  V30 3 C -3.99342 0.0343966 1.48499 0
M  V30 4 N -2.60554 -0.337993 1.41348 0
M  V30 5 C -1.83768 0.00875574 0.283867 0
M  V30 6 O -2.32987 0.648907 -0.686315 0
M  V30 7 C -0.393816 -0.414031 0.271297 0
M  V30 8 C 0.200126 0.0669825 -1.01967 0
M  V30 9 N 1.59887 -0.297959 -1.1194 0
M  V30 10 C 2.10489 -1.43326 -1.64951 0
M  V30 11 N 3.443 -1.35701 -1.53556 0
M  V30 12 C 3.78343 -0.192621 -0.942797 0
M  V30 13 C 2.60386 0.486195 -0.675903 0
M  V30 14 N 2.66073 1.69337 -0.0782797 0
M  V30 15 C 3.85851 2.2011 0.240083 0
M  V30 16 N 5.02339 1.54445 -0.0167387 0
M  V30 17 C 5.0186 0.332857 -0.613563 0
M  V30 18 N 6.22263 -0.384226 -0.897897 0
M  V30 19 H -6.22961 0.917926 0.275654 0
M  V30 20 H -6.40783 -0.0676465 1.68356 0
M  V30 21 H -4.59759 -0.191794 -0.627588 0
M  V30 22 H -4.81131 -1.65998 0.43262 0
M  V30 23 H -4.03334 1.14192 1.41108 0
M  V30 24 H -4.43271 -0.327743 2.43951 0
M  V30 25 H -2.16879 -0.863089 2.19539 0
M  V30 26 H 0.0805543 0.162833 1.10024 0
M  V30 27 H -0.296045 -1.4932 0.423267 0
M  V30 28 H -0.30701 -0.39223 -1.90233 0
M  V30 29 H 0.0650341 1.16073 -1.09942 0
M  V30 30 H 1.51632 -2.23365 -2.07723 0
M  V30 31 H 3.93207 3.17392 0.723298 0
M  V30 32 H 7.02466 0.0578006 -1.42036 0
M  V30 33 H 6.36564 -1.376 -0.603344 0
M  V30 END ATOM
M  V30 BEGIN BOND
M  V30 1 1 1 2
M  V30 2 1 2 3
M  V30 3 1 3 4
M  V30 4 1 4 5
M  V30 5 2 5 6
M  V30 6 1 5 7
M  V30 7 1 7 8
M  V30 8 1 8 9
M  V30 9 1 9 10
M  V30 10 2 10 11
M  V30 11 1 11 12
M  V30 12 2 12 13
M  V30 13 1 13 14
M  V30 14 2 14 15
M  V30 15 1 15 16
M  V30 16 2 16 17
M  V30 17 1 17 18
M  V30 18 1 13 9
M  V30 19 1 17 12
M  V30 20 1 1 19
M  V30 21 1 1 20
M  V30 22 1 2 21
M  V30 23 1 2 22
M  V30 24 1 3 23
M  V30 25 1 3 24
M  V30 26 1 4 25
M  V30 27 1 7 26
M  V30 28 1 7 27
M  V30 29 1 8 28
M  V30 30 1 8 29
M  V30 31 1 10 30
M  V30 32 1 15 31
M  V30 33 1 18 32
M  V30 34 1 18 33
M  V30 END BOND
M  V30 END CTAB
M  END
