
     RDKit          3D

  0  0  0  0  0  0  0  0  0  0999 V3000
M  V30 BEGIN CTAB
M  V30 COUNTS 40 43 0 0 0
M  V30 BEGIN ATOM
M  V30 1 N 0.415161 0.252343 -2.93374 0
M  V30 2 C 0.213142 0.122261 -1.52429 0
M  V30 3 C -1.0403 0.0323474 -0.97408 0
M  V30 4 C -1.21562 -0.0880107 0.374878 0
M  V30 5 C -2.47623 -0.227403 1.04264 0
M  V30 6 O -2.49719 -0.483467 2.29433 0
M  V30 7 C -3.75585 -0.0978538 0.391294 0
M  V30 8 C -4.82659 -0.925561 0.755093 0
M  V30 9 C -6.06075 -0.774347 0.198549 0
M  V30 10 C -6.35411 0.184728 -0.749437 0
M  V30 11 C -5.31248 1.00518 -1.11578 0
M  V30 12 C -4.05835 0.852332 -0.550025 0
M  V30 13 C -0.0786535 -0.12167 1.19508 0
M  V30 14 N -0.177921 -0.250394 2.60578 0
M  V30 15 C 1.16166 -0.0320651 0.633659 0
M  V30 16 C 1.34153 0.0928103 -0.739385 0
M  V30 17 C 2.65088 0.195398 -1.36905 0
M  V30 18 O 2.77085 0.30634 -2.61144 0
M  V30 19 C 3.84254 0.167569 -0.531611 0
M  V30 20 C 3.67835 0.0444219 0.830009 0
M  V30 21 C 4.80712 0.0201759 1.65388 0
M  V30 22 C 6.05 0.120753 1.07501 0
M  V30 23 C 6.19745 0.244454 -0.299435 0
M  V30 24 C 5.11216 0.268827 -1.10753 0
M  V30 25 C 2.37995 -0.0593778 1.47399 0
M  V30 26 O 2.208 -0.172205 2.70946 0
M  V30 27 H 0.508977 1.2147 -3.31351 0
M  V30 28 H 0.471969 -0.549915 -3.58481 0
M  V30 29 H -1.88089 0.0271655 -1.65577 0
M  V30 30 H -4.58506 -1.6803 1.50449 0
M  V30 31 H -6.86891 -1.43492 0.504688 0
M  V30 32 H -7.34238 0.268201 -1.16244 0
M  V30 33 H -5.53334 1.76008 -1.85947 0
M  V30 34 H -3.28798 1.56121 -0.866347 0
M  V30 35 H -0.0241903 -1.20112 3.05469 0
M  V30 36 H -0.397638 0.577594 3.18314 0
M  V30 37 H 4.66437 -0.0774597 2.73098 0
M  V30 38 H 6.93902 0.10587 1.6801 0
M  V30 39 H 7.19224 0.323552 -0.74094 0
M  V30 40 H 5.16907 0.365484 -2.20263 0
M  V30 END ATOM
M  V30 BEGIN BOND
M  V30 1 1 1 2
M  V30 2 2 2 3
M  V30 3 1 3 4
M  V30 4 1 4 5
M  V30 5 2 5 6
M  V30 6 1 5 7
M  V30 7 2 7 8
M  V30 8 1 8 9
M  V30 9 2 9 10
M  V30 10 1 10 11
M  V30 11 2 11 12
M  V30 12 2 4 13
M  V30 13 1 13 14
M  V30 14 1 13 15
M  V30 15 2 15 16
M  V30 16 1 16 17
M  V30 17 2 17 18
M  V30 18 1 17 19
M  V30 19 2 19 20
M  V30 20 1 20 21
M  V30 21 2 21 22
M  V30 22 1 22 23
M  V30 23 2 23 24
M  V30 24 1 20 25
M  V30 25 2 25 26
M  V30 26 1 16 2
M  V30 27 1 24 19
M  V30 28 1 12 7
M  V30 29 1 25 15
M  V30 30 1 1 27
M  V30 31 1 1 28
M  V30 32 1 3 29
M  V30 33 1 8 30
M  V30 34 1 9 31
M  V30 35 1 10 32
M  V30 36 1 11 33
M  V30 37 1 12 34
M  V30 38 1 14 35
M  V30 39 1 14 36
M  V30 40 1 21 37
M  V30 41 1 22 38
M  V30 42 1 23 39
M  V30 43 1 24 40
M  V30 END BOND
M  V30 END CTAB
M  END
