
     RDKit          3D

  0  0  0  0  0  0  0  0  0  0999 V3000
M  V30 BEGIN CTAB
M  V30 COUNTS 34 35 0 0 0
M  V30 BEGIN ATOM
M  V30 1 N -5.52168 -1.65803 0.233587 0
M  V30 2 C -4.93185 -0.392181 0.00103299 0
M  V30 3 C -5.74608 0.709127 -0.242025 0
M  V30 4 C -5.15653 1.93627 -0.466933 0
M  V30 5 C -3.79268 2.07526 -0.452619 0
M  V30 6 C -2.98522 1.00465 -0.21585 0
M  V30 7 O -1.60026 1.085 -0.189278 0
M  V30 8 C -0.784278 -0.0405199 0.0586275 0
M  V30 9 C 0.653658 0.411242 0.0133517 0
M  V30 10 O 1.56246 -0.626267 0.246742 0
M  V30 11 C 2.9118 -0.346749 0.232914 0
M  V30 12 C 3.79523 -1.37412 0.463545 0
M  V30 13 C 5.16803 -1.11607 0.454696 0
M  V30 14 N 6.07194 -2.19132 0.695454 0
M  V30 15 C 5.6252 0.180728 0.21197 0
M  V30 16 C 4.74106 1.20493 -0.0180538 0
M  V30 17 C 3.38777 0.925893 -0.00444826 0
M  V30 18 C -3.55443 -0.232717 0.0117133 0
M  V30 19 H -5.36856 -2.43534 -0.439236 0
M  V30 20 H -6.11491 -1.85069 1.06585 0
M  V30 21 H -6.82347 0.560159 -0.245584 0
M  V30 22 H -5.80561 2.78843 -0.655593 0
M  V30 23 H -3.31424 3.04867 -0.630723 0
M  V30 24 H -1.04264 -0.587277 0.965469 0
M  V30 25 H -0.908076 -0.765824 -0.791655 0
M  V30 26 H 0.880152 0.831335 -0.987982 0
M  V30 27 H 0.859474 1.21941 0.75337 0
M  V30 28 H 3.49048 -2.39855 0.657038 0
M  V30 29 H 6.1292 -2.97532 0.019591 0
M  V30 30 H 6.66959 -2.15751 1.57361 0
M  V30 31 H 6.66914 0.376605 0.205313 0
M  V30 32 H 5.1047 2.19452 -0.202833 0
M  V30 33 H 2.67526 1.7168 -0.182982 0
M  V30 34 H -2.94462 -1.12055 0.206218 0
M  V30 END ATOM
M  V30 BEGIN BOND
M  V30 1 1 1 2
M  V30 2 2 2 3
M  V30 3 1 3 4
M  V30 4 2 4 5
M  V30 5 1 5 6
M  V30 6 1 6 7
M  V30 7 1 7 8
M  V30 8 1 8 9
M  V30 9 1 9 10
M  V30 10 1 10 11
M  V30 11 2 11 12
M  V30 12 1 12 13
M  V30 13 1 13 14
M  V30 14 2 13 15
M  V30 15 1 15 16
M  V30 16 2 16 17
M  V30 17 2 6 18
M  V30 18 1 18 2
M  V30 19 1 17 11
M  V30 20 1 1 19
M  V30 21 1 1 20
M  V30 22 1 3 21
M  V30 23 1 4 22
M  V30 24 1 5 23
M  V30 25 1 8 24
M  V30 26 1 8 25
M  V30 27 1 9 26
M  V30 28 1 9 27
M  V30 29 1 12 28
M  V30 30 1 14 29
M  V30 31 1 14 30
M  V30 32 1 15 31
M  V30 33 1 16 32
M  V30 34 1 17 33
M  V30 35 1 18 34
M  V30 END BOND
M  V30 END CTAB
M  END
