
     RDKit          3D

  0  0  0  0  0  0  0  0  0  0999 V3000
M  V30 BEGIN CTAB
M  V30 COUNTS 51 54 0 0 0
M  V30 BEGIN ATOM
M  V30 1 N -2.9796 3.90681 -1.41731 0
M  V30 2 C -2.71812 2.61356 -0.891596 0
M  V30 3 N -1.45854 2.16505 -0.656285 0
M  V30 4 C -1.21538 0.949087 -0.162498 0
M  V30 5 C 0.197206 0.480318 0.0860326 0
M  V30 6 S 0.847094 -0.340418 -1.38549 0
M  V30 7 C 2.51782 -0.875335 -1.06701 0
M  V30 8 N 3.23794 -1.5283 -2.02464 0
M  V30 9 N 4.40645 -1.77344 -1.4703 0
M  V30 10 C 4.44464 -1.30172 -0.211991 0
M  V30 11 N 3.26567 -0.740278 0.0431692 0
M  V30 12 N 2.7945 -0.125255 1.20263 0
M  V30 13 C 5.60634 -1.44677 0.672026 0
M  V30 14 C 6.78767 -0.65739 0.305997 0
M  V30 15 C 7.84677 -1.30818 -0.347547 0
M  V30 16 C 8.97638 -0.630371 -0.726981 0
M  V30 17 C 9.05539 0.724175 -0.451083 0
M  V30 18 C 8.03652 1.3698 0.182195 0
M  V30 19 C 6.90396 0.666998 0.557633 0
M  V30 20 F 5.94926 1.36334 1.18199 0
M  V30 21 N -2.25533 0.145658 0.109316 0
M  V30 22 C -3.561 0.535083 -0.104602 0
M  V30 23 N -3.71312 1.75946 -0.597694 0
M  V30 24 N -4.54051 -0.409121 0.226842 0
M  V30 25 C -5.93835 -0.237794 0.0949086 0
M  V30 26 C -6.5921 0.862062 -0.377677 0
M  V30 27 C -7.99184 0.952999 -0.478661 0
M  V30 28 C -8.73088 -0.13214 -0.076057 0
M  V30 29 C -8.13605 -1.27627 0.411691 0
M  V30 30 C -6.76975 -1.30756 0.487159 0
M  V30 31 C -6.15892 -2.55105 1.01635 0
M  V30 32 H -2.41702 4.69917 -1.03999 0
M  V30 33 H -3.68643 4.09074 -2.14016 0
M  V30 34 H 0.83292 1.3499 0.339826 0
M  V30 35 H 0.171717 -0.188475 0.948955 0
M  V30 36 H 2.99089 0.918419 1.26679 0
M  V30 37 H 2.29377 -0.576894 1.97303 0
M  V30 38 H 5.32193 -1.22439 1.74914 0
M  V30 39 H 5.92872 -2.52925 0.734005 0
M  V30 40 H 7.74354 -2.37477 -0.54581 0
M  V30 41 H 9.80692 -1.08795 -1.22702 0
M  V30 42 H 9.93844 1.28351 -0.741284 0
M  V30 43 H 8.12489 2.41826 0.3827 0
M  V30 44 H -4.19798 -1.36734 0.623801 0
M  V30 45 H -6.03934 1.72418 -0.699488 0
M  V30 46 H -8.46786 1.844 -0.858933 0
M  V30 47 H -9.8084 -0.110996 -0.134176 0
M  V30 48 H -8.73806 -2.14031 0.73146 0
M  V30 49 H -6.90549 -3.3396 1.20197 0
M  V30 50 H -5.53165 -2.31488 1.89819 0
M  V30 51 H -5.47562 -2.92632 0.216856 0
M  V30 END ATOM
M  V30 BEGIN BOND
M  V30 1 1 1 2
M  V30 2 2 2 3
M  V30 3 1 3 4
M  V30 4 1 4 5
M  V30 5 1 5 6
M  V30 6 1 6 7
M  V30 7 2 7 8
M  V30 8 1 8 9
M  V30 9 2 9 10
M  V30 10 1 10 11
M  V30 11 1 11 12
M  V30 12 1 10 13
M  V30 13 1 13 14
M  V30 14 2 14 15
M  V30 15 1 15 16
M  V30 16 2 16 17
M  V30 17 1 17 18
M  V30 18 2 18 19
M  V30 19 1 19 20
M  V30 20 2 4 21
M  V30 21 1 21 22
M  V30 22 2 22 23
M  V30 23 1 22 24
M  V30 24 1 24 25
M  V30 25 2 25 26
M  V30 26 1 26 27
M  V30 27 2 27 28
M  V30 28 1 28 29
M  V30 29 2 29 30
M  V30 30 1 30 31
M  V30 31 1 23 2
M  V30 32 1 30 25
M  V30 33 1 11 7
M  V30 34 1 19 14
M  V30 35 1 1 32
M  V30 36 1 1 33
M  V30 37 1 5 34
M  V30 38 1 5 35
M  V30 39 1 12 36
M  V30 40 1 12 37
M  V30 41 1 13 38
M  V30 42 1 13 39
M  V30 43 1 15 40
M  V30 44 1 16 41
M  V30 45 1 17 42
M  V30 46 1 18 43
M  V30 47 1 24 44
M  V30 48 1 26 45
M  V30 49 1 27 46
M  V30 50 1 28 47
M  V30 51 1 29 48
M  V30 52 1 31 49
M  V30 53 1 31 50
M  V30 54 1 31 51
M  V30 END BOND
M  V30 END CTAB
M  END
