
     RDKit          3D

  0  0  0  0  0  0  0  0  0  0999 V3000
M  V30 BEGIN CTAB
M  V30 COUNTS 53 55 0 0 0
M  V30 BEGIN ATOM
M  V30 1 N -2.7212 -1.97889 3.68746 0
M  V30 2 C -1.89338 -1.81912 2.54054 0
M  V30 3 C -0.722091 -2.53483 2.41899 0
M  V30 4 C 0.0265147 -2.33084 1.28351 0
M  V30 5 C -0.308859 -1.45423 0.244137 0
M  V30 6 C -1.48584 -0.736114 0.374886 0
M  V30 7 C -2.23047 -0.959695 1.53351 0
M  V30 8 C -2.02528 0.261224 -0.570405 0
M  V30 9 C -3.35009 0.0668248 -0.897637 0
M  V30 10 C -4.06902 0.864578 -1.76023 0
M  V30 11 N -5.44274 0.606399 -2.05508 0
M  V30 12 C -3.44744 1.93519 -2.34923 0
M  V30 13 C -2.12676 2.1548 -2.04097 0
M  V30 14 C -1.37243 1.34478 -1.15419 0
M  V30 15 O -0.0986035 1.68635 -0.947481 0
M  V30 16 C 0.814104 2.22059 -0.0921768 0
M  V30 17 C 0.438849 2.14309 1.35928 0
M  V30 18 O 1.2312 1.22508 2.0556 0
M  V30 19 C 2.52694 1.63108 2.20358 0
M  V30 20 C 3.58776 0.65929 1.82907 0
M  V30 21 O 3.21376 -0.373881 1.00474 0
M  V30 22 C 4.01337 -0.446381 -0.132188 0
M  V30 23 C 3.37453 -1.21964 -1.26412 0
M  V30 24 O 2.57256 -0.373966 -1.98541 0
M  V30 25 C 1.71084 -1.00495 -2.88319 0
M  V30 26 C 0.492374 -1.55954 -2.17661 0
M  V30 27 O 0.545591 -1.37956 -0.81105 0
M  V30 28 H -3.40739 -1.22687 3.95346 0
M  V30 29 H -2.62183 -2.84685 4.23581 0
M  V30 30 H -0.414982 -3.22425 3.18968 0
M  V30 31 H 0.963946 -2.93024 1.2538 0
M  V30 32 H -3.18954 -0.43291 1.69618 0
M  V30 33 H -3.93421 -0.767756 -0.452885 0
M  V30 34 H -5.77201 0.735217 -3.03316 0
M  V30 35 H -6.12902 0.296025 -1.33942 0
M  V30 36 H -3.96747 2.60003 -3.04033 0
M  V30 37 H -1.70449 3.01601 -2.56115 0
M  V30 38 H 1.85304 1.80961 -0.225188 0
M  V30 39 H 0.993829 3.34127 -0.289733 0
M  V30 40 H 0.70452 3.13382 1.84393 0
M  V30 41 H -0.641618 2.01497 1.5225 0
M  V30 42 H 2.66805 1.83588 3.30991 0
M  V30 43 H 2.71957 2.64783 1.7517 0
M  V30 44 H 4.38877 1.23126 1.28887 0
M  V30 45 H 4.10045 0.208641 2.71077 0
M  V30 46 H 4.26203 0.588517 -0.492145 0
M  V30 47 H 4.98696 -0.894462 0.167282 0
M  V30 48 H 2.86349 -2.133 -0.884215 0
M  V30 49 H 4.17964 -1.6331 -1.94077 0
M  V30 50 H 1.48817 -0.315028 -3.69087 0
M  V30 51 H 2.28088 -1.85632 -3.29785 0
M  V30 52 H 0.476992 -2.65474 -2.38874 0
M  V30 53 H -0.401961 -1.17121 -2.70274 0
M  V30 END ATOM
M  V30 BEGIN BOND
M  V30 1 1 1 2
M  V30 2 2 2 3
M  V30 3 1 3 4
M  V30 4 2 4 5
M  V30 5 1 5 6
M  V30 6 2 6 7
M  V30 7 1 6 8
M  V30 8 2 8 9
M  V30 9 1 9 10
M  V30 10 1 10 11
M  V30 11 2 10 12
M  V30 12 1 12 13
M  V30 13 2 13 14
M  V30 14 1 14 15
M  V30 15 1 15 16
M  V30 16 1 16 17
M  V30 17 1 17 18
M  V30 18 1 18 19
M  V30 19 1 19 20
M  V30 20 1 20 21
M  V30 21 1 21 22
M  V30 22 1 22 23
M  V30 23 1 23 24
M  V30 24 1 24 25
M  V30 25 1 25 26
M  V30 26 1 26 27
M  V30 27 1 7 2
M  V30 28 1 14 8
M  V30 29 1 27 5
M  V30 30 1 1 28
M  V30 31 1 1 29
M  V30 32 1 3 30
M  V30 33 1 4 31
M  V30 34 1 7 32
M  V30 35 1 9 33
M  V30 36 1 11 34
M  V30 37 1 11 35
M  V30 38 1 12 36
M  V30 39 1 13 37
M  V30 40 1 16 38
M  V30 41 1 16 39
M  V30 42 1 17 40
M  V30 43 1 17 41
M  V30 44 1 19 42
M  V30 45 1 19 43
M  V30 46 1 20 44
M  V30 47 1 20 45
M  V30 48 1 22 46
M  V30 49 1 22 47
M  V30 50 1 23 48
M  V30 51 1 23 49
M  V30 52 1 25 50
M  V30 53 1 25 51
M  V30 54 1 26 52
M  V30 55 1 26 53
M  V30 END BOND
M  V30 END CTAB
M  END
