
     RDKit          3D

  0  0  0  0  0  0  0  0  0  0999 V3000
M  V30 BEGIN CTAB
M  V30 COUNTS 30 31 0 0 0
M  V30 BEGIN ATOM
M  V30 1 C 5.68634 -0.0680589 -0.459178 0
M  V30 2 C 4.19303 0.0450914 -0.33784 0
M  V30 3 C 3.42553 -1.09336 -0.469471 0
M  V30 4 C 2.05834 -1.02747 -0.36448 0
M  V30 5 C 1.45582 0.188454 -0.125786 0
M  V30 6 C 2.21463 1.32547 0.00621123 0
M  V30 7 C 3.58787 1.25468 -0.0999912 0
M  V30 8 Br 1.3679 3.0138 0.338354 0
M  V30 9 O 0.0888928 0.231818 -0.0244648 0
M  V30 10 C -0.779099 -0.846718 -0.139452 0
M  V30 11 C -2.16843 -0.343872 0.0379018 0
M  V30 12 N -2.67223 -0.323056 1.29099 0
M  V30 13 C -3.93618 0.123933 1.52937 0
M  V30 14 N -4.45029 0.139181 2.85224 0
M  V30 15 N -4.67163 0.544846 0.484421 0
M  V30 16 C -4.20172 0.539489 -0.787856 0
M  V30 17 N -2.94029 0.0834054 -0.95226 0
M  V30 18 N -4.99441 0.986816 -1.86748 0
M  V30 19 H 6.02449 0.37849 -1.41722 0
M  V30 20 H 6.17526 0.417185 0.425615 0
M  V30 21 H 5.97483 -1.13407 -0.414251 0
M  V30 22 H 3.94926 -2.04273 -0.659519 0
M  V30 23 H 1.50654 -1.94998 -0.475983 0
M  V30 24 H 4.17108 2.15928 0.00644262 0
M  V30 25 H -0.511017 -1.59509 0.632616 0
M  V30 26 H -0.672887 -1.26338 -1.16918 0
M  V30 27 H -5.40335 -0.232389 3.05707 0
M  V30 28 H -3.89182 0.516313 3.62821 0
M  V30 29 H -5.91166 0.544936 -2.03463 0
M  V30 30 H -4.6748 1.74475 -2.4904 0
M  V30 END ATOM
M  V30 BEGIN BOND
M  V30 1 1 1 2
M  V30 2 2 2 3
M  V30 3 1 3 4
M  V30 4 2 4 5
M  V30 5 1 5 6
M  V30 6 2 6 7
M  V30 7 1 6 8
M  V30 8 1 5 9
M  V30 9 1 9 10
M  V30 10 1 10 11
M  V30 11 2 11 12
M  V30 12 1 12 13
M  V30 13 1 13 14
M  V30 14 2 13 15
M  V30 15 1 15 16
M  V30 16 2 16 17
M  V30 17 1 16 18
M  V30 18 1 7 2
M  V30 19 1 17 11
M  V30 20 1 1 19
M  V30 21 1 1 20
M  V30 22 1 1 21
M  V30 23 1 3 22
M  V30 24 1 4 23
M  V30 25 1 7 24
M  V30 26 1 10 25
M  V30 27 1 10 26
M  V30 28 1 14 27
M  V30 29 1 14 28
M  V30 30 1 18 29
M  V30 31 1 18 30
M  V30 END BOND
M  V30 END CTAB
M  END
