
     RDKit          3D

  0  0  0  0  0  0  0  0  0  0999 V3000
M  V30 BEGIN CTAB
M  V30 COUNTS 20 20 0 0 0
M  V30 BEGIN ATOM
M  V30 1 C 2.48009 0.946946 -0.0465569 0
M  V30 2 C 1.04981 0.502097 0.0125854 0
M  V30 3 C 0.737592 -0.846104 0.0240865 0
M  V30 4 N 1.82199 -1.78016 -0.0221903 0
M  V30 5 C -0.572181 -1.29503 0.0782067 0
M  V30 6 C -1.61441 -0.395698 0.122684 0
M  V30 7 N -2.97935 -0.794992 0.179162 0
M  V30 8 C -1.28256 0.948341 0.110358 0
M  V30 9 C 0.0101941 1.39592 0.056948 0
M  V30 10 N -2.37255 1.8788 0.156867 0
M  V30 11 O -2.70998 2.44052 -0.904691 0
M  V30 12 H 3.01591 0.172227 -0.634955 0
M  V30 13 H 2.59257 1.92876 -0.528969 0
M  V30 14 H 2.92712 0.935049 0.971962 0
M  V30 15 H 2.00224 -2.47847 0.734753 0
M  V30 16 H 2.47593 -1.78545 -0.835801 0
M  V30 17 H -0.796249 -2.36253 0.0863627 0
M  V30 18 H -3.29482 -1.71309 0.563301 0
M  V30 19 H -3.71872 -0.159071 -0.173198 0
M  V30 20 H 0.22739 2.46195 0.0490854 0
M  V30 END ATOM
M  V30 BEGIN BOND
M  V30 1 1 1 2
M  V30 2 2 2 3
M  V30 3 1 3 4
M  V30 4 1 3 5
M  V30 5 2 5 6
M  V30 6 1 6 7
M  V30 7 1 6 8
M  V30 8 2 8 9
M  V30 9 1 8 10
M  V30 10 2 10 11
M  V30 11 1 9 2
M  V30 12 1 1 12
M  V30 13 1 1 13
M  V30 14 1 1 14
M  V30 15 1 4 15
M  V30 16 1 4 16
M  V30 17 1 5 17
M  V30 18 1 7 18
M  V30 19 1 7 19
M  V30 20 1 9 20
M  V30 END BOND
M  V30 END CTAB
M  END
