
     RDKit          3D

  0  0  0  0  0  0  0  0  0  0999 V3000
M  V30 BEGIN CTAB
M  V30 COUNTS 30 31 0 0 0
M  V30 BEGIN ATOM
M  V30 1 C -4.80319 -0.845068 -0.0476673 0
M  V30 2 C -4.01425 0.389974 0.165315 0
M  V30 3 C -2.72246 0.178284 0.894603 0 CFG=2
M  V30 4 C -1.92643 1.47465 1.10099 0
M  V30 5 C -1.40853 0.392651 0.254451 0 CFG=1
M  V30 6 N -0.271852 -0.34066 0.774225 0
M  V30 7 C 1.03695 -0.193789 0.224922 0
M  V30 8 C 1.32181 0.641484 -0.821856 0
M  V30 9 C 2.62019 0.755528 -1.33106 0
M  V30 10 C 3.61484 0.0119336 -0.762152 0
M  V30 11 C 3.31759 -0.827881 0.293503 0
M  V30 12 N 2.05658 -0.896805 0.739745 0
M  V30 13 N 4.37432 -1.60014 0.877452 0
M  V30 14 N 4.94065 0.122377 -1.27521 0
M  V30 15 H -4.27 -1.73003 0.321719 0
M  V30 16 H -5.78335 -0.816463 0.473587 0
M  V30 17 H -5.03204 -1.00488 -1.12007 0
M  V30 18 H -3.877 0.910242 -0.809109 0
M  V30 19 H -4.62786 1.09431 0.78622 0
M  V30 20 H -2.77473 -0.538427 1.73714 0
M  V30 21 H -2.27031 2.38915 0.601097 0
M  V30 22 H -1.54169 1.64898 2.12464 0
M  V30 23 H -1.33266 0.538576 -0.856393 0
M  V30 24 H -0.42739 -0.985312 1.56573 0
M  V30 25 H 0.531884 1.23379 -1.27507 0
M  V30 26 H 2.82038 1.40998 -2.14456 0
M  V30 27 H 4.54331 -2.58947 0.632154 0
M  V30 28 H 5.01033 -1.15849 1.58346 0
M  V30 29 H 5.25502 -0.412297 -2.11288 0
M  V30 30 H 5.6399 0.747777 -0.821776 0
M  V30 END ATOM
M  V30 BEGIN BOND
M  V30 1 1 1 2
M  V30 2 1 2 3
M  V30 3 1 3 4
M  V30 4 1 4 5
M  V30 5 1 5 6
M  V30 6 1 6 7
M  V30 7 2 7 8
M  V30 8 1 8 9
M  V30 9 2 9 10
M  V30 10 1 10 11
M  V30 11 2 11 12
M  V30 12 1 11 13
M  V30 13 1 10 14
M  V30 14 1 5 3
M  V30 15 1 12 7
M  V30 16 1 1 15
M  V30 17 1 1 16
M  V30 18 1 1 17
M  V30 19 1 2 18
M  V30 20 1 2 19
M  V30 21 1 3 20 CFG=1
M  V30 22 1 4 21
M  V30 23 1 4 22
M  V30 24 1 5 23 CFG=3
M  V30 25 1 6 24
M  V30 26 1 8 25
M  V30 27 1 9 26
M  V30 28 1 13 27
M  V30 29 1 13 28
M  V30 30 1 14 29
M  V30 31 1 14 30
M  V30 END BOND
M  V30 END CTAB
M  END
