
     RDKit          3D

  0  0  0  0  0  0  0  0  0  0999 V3000
M  V30 BEGIN CTAB
M  V30 COUNTS 47 50 0 0 0
M  V30 BEGIN ATOM
M  V30 1 N 6.60807 1.32638 -0.88869 0
M  V30 2 C 5.28914 1.16513 -0.373312 0
M  V30 3 N 4.33202 0.496621 -1.04026 0
M  V30 4 C 3.06917 0.341145 -0.548847 0
M  V30 5 O 1.92898 -0.28694 -1.02591 0
M  V30 6 C 1.00251 -0.462961 0.0294299 0
M  V30 7 C 1.41971 0.630637 1.02429 0
M  V30 8 C 2.82504 0.907818 0.672532 0
M  V30 9 C 3.78563 1.59071 1.36445 0
M  V30 10 N 5.01203 1.70932 0.826072 0
M  V30 11 N 3.47773 2.15857 2.62759 0
M  V30 12 C 1.19783 -1.79987 0.639597 0
M  V30 13 O 0.059576 -2.59497 0.652946 0
M  V30 14 C -0.00955168 -3.27942 -0.551349 0
M  V30 15 C -0.412087 -2.37031 -1.6743 0
M  V30 16 N -1.02862 -1.18493 -1.15568 0
M  V30 17 C -0.408739 -0.153395 -0.374873 0
M  V30 18 C -2.39242 -0.989936 -1.44064 0
M  V30 19 O -2.99373 -1.85049 -2.13261 0
M  V30 20 C -3.17001 0.151867 -0.987576 0
M  V30 21 C -3.21294 1.31362 -1.75262 0
M  V30 22 C -3.92241 2.42974 -1.36836 0
M  V30 23 C -4.62542 2.42792 -0.189554 0
M  V30 24 C -4.59045 1.28941 0.571577 0
M  V30 25 C -3.8814 0.162485 0.195357 0
M  V30 26 C -3.9091 -0.995488 1.04781 0
M  V30 27 O -3.29293 -2.03386 0.724365 0
M  V30 28 O -4.62682 -0.96852 2.2471 0
M  V30 29 H 7.0911 2.24888 -0.820919 0
M  V30 30 H 7.14524 0.553803 -1.34763 0
M  V30 31 H 1.3096 0.247779 2.05493 0
M  V30 32 H 0.762812 1.5182 0.940678 0
M  V30 33 H 2.86444 1.68774 3.29626 0
M  V30 34 H 3.88986 3.07998 2.87594 0
M  V30 35 H 2.02057 -2.39415 0.17198 0
M  V30 36 H 1.50565 -1.68976 1.72052 0
M  V30 37 H 0.993054 -3.71781 -0.822704 0
M  V30 38 H -0.763558 -4.11823 -0.496723 0
M  V30 39 H -1.11496 -2.89579 -2.37292 0
M  V30 40 H 0.459238 -2.04282 -2.29401 0
M  V30 41 H -0.390945 0.772019 -0.988494 0
M  V30 42 H -0.994165 0.0932818 0.536942 0
M  V30 43 H -2.6418 1.29293 -2.69435 0
M  V30 44 H -3.93941 3.32163 -1.98241 0
M  V30 45 H -5.20171 3.29101 0.154291 0
M  V30 46 H -5.14039 1.26549 1.50993 0
M  V30 47 H -5.38542 -1.64446 2.31193 0
M  V30 END ATOM
M  V30 BEGIN BOND
M  V30 1 1 1 2
M  V30 2 2 2 3
M  V30 3 1 3 4
M  V30 4 1 4 5
M  V30 5 1 5 6
M  V30 6 1 6 7
M  V30 7 1 7 8
M  V30 8 1 8 9
M  V30 9 2 9 10
M  V30 10 1 9 11
M  V30 11 1 6 12
M  V30 12 1 12 13
M  V30 13 1 13 14
M  V30 14 1 14 15
M  V30 15 1 15 16
M  V30 16 1 16 17
M  V30 17 1 16 18
M  V30 18 2 18 19
M  V30 19 1 18 20
M  V30 20 2 20 21
M  V30 21 1 21 22
M  V30 22 2 22 23
M  V30 23 1 23 24
M  V30 24 2 24 25
M  V30 25 1 25 26
M  V30 26 2 26 27
M  V30 27 1 26 28
M  V30 28 1 10 2
M  V30 29 1 25 20
M  V30 30 2 8 4
M  V30 31 1 17 6
M  V30 32 1 1 29
M  V30 33 1 1 30
M  V30 34 1 7 31
M  V30 35 1 7 32
M  V30 36 1 11 33
M  V30 37 1 11 34
M  V30 38 1 12 35
M  V30 39 1 12 36
M  V30 40 1 14 37
M  V30 41 1 14 38
M  V30 42 1 15 39
M  V30 43 1 15 40
M  V30 44 1 17 41
M  V30 45 1 17 42
M  V30 46 1 21 43
M  V30 47 1 22 44
M  V30 48 1 23 45
M  V30 49 1 24 46
M  V30 50 1 28 47
M  V30 END BOND
M  V30 END CTAB
M  END
