
     RDKit          3D

  0  0  0  0  0  0  0  0  0  0999 V3000
M  V30 BEGIN CTAB
M  V30 COUNTS 22 22 0 0 0
M  V30 BEGIN ATOM
M  V30 1 N -4.50441 -0.769147 -0.61329 0
M  V30 2 C -3.19323 -0.244311 -0.47554 0
M  V30 3 N -2.99402 1.07214 -0.0130928 0
M  V30 4 N -2.19031 -0.988261 -0.779084 0
M  V30 5 N -0.909597 -0.508477 -0.656267 0
M  V30 6 C -0.0228659 -0.954462 0.15448 0
M  V30 7 C 1.30426 -0.360247 0.191248 0
M  V30 8 C 2.26008 -0.839669 1.06397 0
M  V30 9 Cl 1.80199 -2.1808 2.11078 0
M  V30 10 C 3.51377 -0.276953 1.09741 0
M  V30 11 C 3.85073 0.772237 0.26895 0
M  V30 12 C 2.90063 1.25574 -0.605034 0
M  V30 13 C 1.64155 0.689585 -0.637665 0
M  V30 14 Cl 0.403069 1.28729 -1.74667 0
M  V30 15 H -5.1234 -0.364334 -1.34352 0
M  V30 16 H -4.80677 -1.54006 0.0174194 0
M  V30 17 H -3.22238 1.30514 0.970754 0
M  V30 18 H -2.62393 1.81456 -0.634188 0
M  V30 19 H -0.308927 -1.77631 0.793553 0
M  V30 20 H 4.2624 -0.672914 1.80004 0
M  V30 21 H 4.85156 1.20097 0.314779 0
M  V30 22 H 3.1098 2.07829 -1.27903 0
M  V30 END ATOM
M  V30 BEGIN BOND
M  V30 1 1 1 2
M  V30 2 1 2 3
M  V30 3 2 2 4
M  V30 4 1 4 5
M  V30 5 2 5 6
M  V30 6 1 6 7
M  V30 7 2 7 8
M  V30 8 1 8 9
M  V30 9 1 8 10
M  V30 10 2 10 11
M  V30 11 1 11 12
M  V30 12 2 12 13
M  V30 13 1 13 14
M  V30 14 1 13 7
M  V30 15 1 1 15
M  V30 16 1 1 16
M  V30 17 1 3 17
M  V30 18 1 3 18
M  V30 19 1 6 19
M  V30 20 1 10 20
M  V30 21 1 11 21
M  V30 22 1 12 22
M  V30 END BOND
M  V30 END CTAB
M  END
