
     RDKit          3D

  0  0  0  0  0  0  0  0  0  0999 V3000
M  V30 BEGIN CTAB
M  V30 COUNTS 72 74 0 0 0
M  V30 BEGIN ATOM
M  V30 1 N -7.94934 3.01608 -3.64728 0
M  V30 2 C -8.04459 1.84444 -2.74052 0
M  V30 3 C -9.4626 1.42573 -2.58882 0
M  V30 4 C -9.79278 0.25227 -1.77882 0
M  V30 5 C -9.47787 0.166772 -0.351688 0
M  V30 6 C -8.07384 0.21955 0.11787 0
M  V30 7 C -7.20451 -0.848164 -0.435907 0
M  V30 8 O -7.6859 -1.76058 -1.16751 0
M  V30 9 N -5.83297 -0.848311 -0.148834 0
M  V30 10 C -4.92403 -1.86941 -0.663306 0
M  V30 11 C -3.54282 -1.66143 -0.245764 0
M  V30 12 C -2.39139 -1.50153 0.0749883 0
M  V30 13 C -1.01173 -1.33042 0.429048 0
M  V30 14 C -0.443912 -0.311594 1.15732 0
M  V30 15 N 0.881638 -0.533498 1.2557 0
M  V30 16 C 1.79586 0.354721 1.95473 0 CFG=1
M  V30 17 C 2.2285 -0.309478 3.21812 0
M  V30 18 C 3.73088 -0.359376 3.10447 0
M  V30 19 C 4.02129 0.60087 1.97846 0 CFG=1
M  V30 20 C 5.28676 0.207792 1.23329 0
M  V30 21 O 5.39811 1.04229 0.135846 0
M  V30 22 P 6.75792 0.700748 -0.790974 0
M  V30 23 O 6.19567 0.12192 -2.29857 0
M  V30 24 O 7.50608 -0.432958 -0.141689 0
M  V30 25 O 7.70212 2.04764 -1.08262 0
M  V30 26 P 8.52245 2.57404 0.29245 0
M  V30 27 O 9.62181 3.77574 -0.179327 0
M  V30 28 O 7.53041 3.1967 1.2391 0
M  V30 29 O 9.29327 1.29706 1.0894 0
M  V30 30 P 10.9589 1.55055 0.963439 0
M  V30 31 O 11.812 0.174966 1.47779 0
M  V30 32 O 11.3652 1.96159 -0.628268 0
M  V30 33 O 11.4017 2.71139 1.84253 0
M  V30 34 O 2.9292 0.463372 1.1496 0
M  V30 35 C 1.22696 -1.66455 0.620444 0
M  V30 36 C 0.0544913 -2.17115 0.100518 0
M  V30 37 C 0.149409 -3.34839 -0.607752 0
M  V30 38 N -1.0503 -3.87968 -1.15259 0
M  V30 39 N 1.33674 -3.98994 -0.79285 0
M  V30 40 C 2.46809 -3.47787 -0.277306 0
M  V30 41 N 2.37298 -2.33001 0.413333 0
M  V30 42 H -8.22996 3.88277 -3.17702 0
M  V30 43 H -7.05508 3.01597 -4.14167 0
M  V30 44 H -7.65349 2.26679 -1.78395 0
M  V30 45 H -7.42906 1.0642 -3.18738 0
M  V30 46 H -10.0938 2.30008 -2.25255 0
M  V30 47 H -9.8236 1.2111 -3.65248 0
M  V30 48 H -9.46792 -0.663526 -2.35707 0
M  V30 49 H -10.943 0.14026 -1.8564 0
M  V30 50 H -10.0988 0.9138 0.222549 0
M  V30 51 H -9.88485 -0.838137 0.0174953 0
M  V30 52 H -8.15547 0.00289825 1.26741 0
M  V30 53 H -7.55378 1.16729 0.114166 0
M  V30 54 H -5.42717 -0.104513 0.449737 0
M  V30 55 H -4.94835 -1.89858 -1.75786 0
M  V30 56 H -5.28067 -2.83345 -0.203739 0
M  V30 57 H -0.98091 0.533116 1.58378 0
M  V30 58 H 1.30959 1.3353 2.12136 0
M  V30 59 H 1.96142 0.33283 4.1026 0
M  V30 60 H 1.78736 -1.33205 3.32922 0
M  V30 61 H 3.99852 -1.41403 2.8245 0
M  V30 62 H 4.22629 -0.0584646 4.05148 0
M  V30 63 H 4.06283 1.6143 2.38154 0
M  V30 64 H 5.16824 -0.833163 0.871169 0
M  V30 65 H 6.14354 0.22122 1.91779 0
M  V30 66 H 6.99487 -0.0741283 -2.84716 0
M  V30 67 H 9.16928 4.30965 -0.887583 0
M  V30 68 H 11.315 -0.602396 1.09262 0
M  V30 69 H 10.7963 1.4027 -1.23343 0
M  V30 70 H -1.74122 -4.3042 -0.521455 0
M  V30 71 H -1.23398 -3.84024 -2.19833 0
M  V30 72 H 3.40788 -3.99531 -0.430289 0
M  V30 END ATOM
M  V30 BEGIN BOND
M  V30 1 1 1 2
M  V30 2 1 2 3
M  V30 3 1 3 4
M  V30 4 1 4 5
M  V30 5 1 5 6
M  V30 6 1 6 7
M  V30 7 2 7 8
M  V30 8 1 7 9
M  V30 9 1 9 10
M  V30 10 1 10 11
M  V30 11 3 11 12
M  V30 12 1 12 13
M  V30 13 2 13 14
M  V30 14 1 14 15
M  V30 15 1 15 16
M  V30 16 1 16 17
M  V30 17 1 17 18
M  V30 18 1 18 19
M  V30 19 1 19 20
M  V30 20 1 20 21
M  V30 21 1 21 22
M  V30 22 1 22 23
M  V30 23 2 22 24
M  V30 24 1 22 25
M  V30 25 1 25 26
M  V30 26 1 26 27
M  V30 27 2 26 28
M  V30 28 1 26 29
M  V30 29 1 29 30
M  V30 30 1 30 31
M  V30 31 1 30 32
M  V30 32 2 30 33
M  V30 33 1 19 34
M  V30 34 1 15 35
M  V30 35 2 35 36
M  V30 36 1 36 37
M  V30 37 1 37 38
M  V30 38 2 37 39
M  V30 39 1 39 40
M  V30 40 2 40 41
M  V30 41 1 36 13
M  V30 42 1 34 16
M  V30 43 1 41 35
M  V30 44 1 1 42
M  V30 45 1 1 43
M  V30 46 1 2 44
M  V30 47 1 2 45
M  V30 48 1 3 46
M  V30 49 1 3 47
M  V30 50 1 4 48
M  V30 51 1 4 49
M  V30 52 1 5 50
M  V30 53 1 5 51
M  V30 54 1 6 52
M  V30 55 1 6 53
M  V30 56 1 9 54
M  V30 57 1 10 55
M  V30 58 1 10 56
M  V30 59 1 14 57
M  V30 60 1 16 58 CFG=1
M  V30 61 1 17 59
M  V30 62 1 17 60
M  V30 63 1 18 61
M  V30 64 1 18 62
M  V30 65 1 19 63 CFG=1
M  V30 66 1 20 64
M  V30 67 1 20 65
M  V30 68 1 23 66
M  V30 69 1 27 67
M  V30 70 1 31 68
M  V30 71 1 32 69
M  V30 72 1 38 70
M  V30 73 1 38 71
M  V30 74 1 40 72
M  V30 END BOND
M  V30 END CTAB
M  END
