
     RDKit          3D

  0  0  0  0  0  0  0  0  0  0999 V3000
M  V30 BEGIN CTAB
M  V30 COUNTS 59 62 0 0 0
M  V30 BEGIN ATOM
M  V30 1 C -4.39145 -2.45358 -1.72364 0
M  V30 2 C -4.25742 -1.74295 -0.403322 0
M  V30 3 C -5.63617 -1.61481 0.26095 0
M  V30 4 C -3.37563 -2.4682 0.560415 0
M  V30 5 N -2.04526 -2.64922 0.0834248 0
M  V30 6 C -1.14107 -1.58852 -0.19195 0
M  V30 7 N 0.100898 -1.8774 -0.647729 0
M  V30 8 C 1.00274 -0.927285 -0.920413 0
M  V30 9 C 0.638111 0.385839 -0.724901 0
M  V30 10 N 1.72464 1.10838 -1.07448 0
M  V30 11 C 2.73412 0.322225 -1.47254 0
M  V30 12 N 2.28168 -0.932906 -1.37494 0
M  V30 13 C 3.01584 -2.12066 -1.70249 0
M  V30 14 C 3.77768 -2.70374 -0.534002 0
M  V30 15 C 4.77421 -1.75139 0.0174502 0
M  V30 16 C 6.06476 -1.70712 -0.481197 0
M  V30 17 C 7.0012 -0.831839 0.0270494 0
M  V30 18 C 6.70458 0.0412256 1.05306 0
M  V30 19 N 7.67988 0.946209 1.57544 0
M  V30 20 C 5.41929 -0.00061999 1.552 0
M  V30 21 C 4.48285 -0.875971 1.04369 0
M  V30 22 C -0.639594 0.719815 -0.254135 0
M  V30 23 N -0.913228 2.08531 -0.100131 0
M  V30 24 C -2.09704 2.70488 0.361795 0
M  V30 25 C -3.12623 2.03603 0.956772 0
M  V30 26 C -4.29442 2.69423 1.3864 0
M  V30 27 C -4.44123 4.04714 1.22069 0
M  V30 28 C -3.40963 4.73422 0.621955 0
M  V30 29 N -3.53685 6.14199 0.437962 0
M  V30 30 C -2.27672 4.08776 0.206491 0
M  V30 31 N -1.44637 -0.309653 -0.0192199 0
M  V30 32 H -3.51105 -3.05918 -1.98396 0
M  V30 33 H -4.61162 -1.72932 -2.54336 0
M  V30 34 H -5.24939 -3.15848 -1.65884 0
M  V30 35 H -3.90796 -0.706804 -0.543794 0
M  V30 36 H -6.08407 -2.63337 0.267287 0
M  V30 37 H -5.48271 -1.22365 1.28528 0
M  V30 38 H -6.27453 -0.904873 -0.303149 0
M  V30 39 H -3.8266 -3.45224 0.856622 0
M  V30 40 H -3.30026 -1.91842 1.54233 0
M  V30 41 H -1.71851 -3.63928 -0.0732259 0
M  V30 42 H 3.69306 0.70662 -1.79383 0
M  V30 43 H 2.28689 -2.9113 -2.03254 0
M  V30 44 H 3.69639 -1.9588 -2.58536 0
M  V30 45 H 4.22526 -3.66852 -0.807777 0
M  V30 46 H 3.03484 -2.90211 0.28019 0
M  V30 47 H 6.29807 -2.39975 -1.29423 0
M  V30 48 H 7.99975 -0.817698 -0.379485 0
M  V30 49 H 8.36421 0.69993 2.29642 0
M  V30 50 H 7.71635 1.93877 1.20925 0
M  V30 51 H 5.17475 0.684573 2.36213 0
M  V30 52 H 3.46662 -0.909675 1.43755 0
M  V30 53 H -0.136787 2.78417 -0.357198 0
M  V30 54 H -3.10431 0.975371 1.14058 0
M  V30 55 H -5.0937 2.11229 1.85885 0
M  V30 56 H -5.35439 4.56304 1.55615 0
M  V30 57 H -4.41653 6.54698 0.0584939 0
M  V30 58 H -2.76854 6.79811 0.672717 0
M  V30 59 H -1.48942 4.6842 -0.263052 0
M  V30 END ATOM
M  V30 BEGIN BOND
M  V30 1 1 1 2
M  V30 2 1 2 3
M  V30 3 1 2 4
M  V30 4 1 4 5
M  V30 5 1 5 6
M  V30 6 2 6 7
M  V30 7 1 7 8
M  V30 8 2 8 9
M  V30 9 1 9 10
M  V30 10 2 10 11
M  V30 11 1 11 12
M  V30 12 1 12 13
M  V30 13 1 13 14
M  V30 14 1 14 15
M  V30 15 2 15 16
M  V30 16 1 16 17
M  V30 17 2 17 18
M  V30 18 1 18 19
M  V30 19 1 18 20
M  V30 20 2 20 21
M  V30 21 1 9 22
M  V30 22 1 22 23
M  V30 23 1 23 24
M  V30 24 2 24 25
M  V30 25 1 25 26
M  V30 26 2 26 27
M  V30 27 1 27 28
M  V30 28 1 28 29
M  V30 29 2 28 30
M  V30 30 2 22 31
M  V30 31 1 31 6
M  V30 32 1 12 8
M  V30 33 1 21 15
M  V30 34 1 30 24
M  V30 35 1 1 32
M  V30 36 1 1 33
M  V30 37 1 1 34
M  V30 38 1 2 35
M  V30 39 1 3 36
M  V30 40 1 3 37
M  V30 41 1 3 38
M  V30 42 1 4 39
M  V30 43 1 4 40
M  V30 44 1 5 41
M  V30 45 1 11 42
M  V30 46 1 13 43
M  V30 47 1 13 44
M  V30 48 1 14 45
M  V30 49 1 14 46
M  V30 50 1 16 47
M  V30 51 1 17 48
M  V30 52 1 19 49
M  V30 53 1 19 50
M  V30 54 1 20 51
M  V30 55 1 21 52
M  V30 56 1 23 53
M  V30 57 1 25 54
M  V30 58 1 26 55
M  V30 59 1 27 56
M  V30 60 1 29 57
M  V30 61 1 29 58
M  V30 62 1 30 59
M  V30 END BOND
M  V30 END CTAB
M  END
