
     RDKit          3D

  0  0  0  0  0  0  0  0  0  0999 V3000
M  V30 BEGIN CTAB
M  V30 COUNTS 21 22 0 0 0
M  V30 BEGIN ATOM
M  V30 1 Cl 4.84399 0.442578 -0.403214 0
M  V30 2 C 3.11285 0.206513 -0.240132 0
M  V30 3 C 2.22283 1.2472 -0.429957 0
M  V30 4 C 0.859116 1.07039 -0.303626 0
M  V30 5 N -0.0063265 2.08192 -0.488101 0
M  V30 6 C -1.33736 1.92191 -0.367753 0
M  V30 7 C -1.88301 0.708078 -0.0479986 0
M  V30 8 C -1.01129 -0.374749 0.15288 0
M  V30 9 C 0.35255 -0.195057 0.0258637 0
M  V30 10 C 1.23461 -1.23777 0.216657 0
M  V30 11 C 2.61956 -1.04039 0.0841615 0
M  V30 12 Cl 3.66929 -2.42481 0.345005 0
M  V30 13 Cl 0.637848 -2.83835 0.63065 0
M  V30 14 N -1.53746 -1.6468 0.48514 0
M  V30 15 N -3.26486 0.495898 0.0878139 0
M  V30 16 H 2.57275 2.24151 -0.685867 0
M  V30 17 H -2.02951 2.7453 -0.518701 0
M  V30 18 H -1.69016 -1.92632 1.46754 0
M  V30 19 H -1.78256 -2.30561 -0.27303 0
M  V30 20 H -3.82904 0.323233 -0.769273 0
M  V30 21 H -3.75379 0.505324 1.03195 0
M  V30 END ATOM
M  V30 BEGIN BOND
M  V30 1 1 1 2
M  V30 2 2 2 3
M  V30 3 1 3 4
M  V30 4 2 4 5
M  V30 5 1 5 6
M  V30 6 2 6 7
M  V30 7 1 7 8
M  V30 8 2 8 9
M  V30 9 1 9 10
M  V30 10 2 10 11
M  V30 11 1 11 12
M  V30 12 1 10 13
M  V30 13 1 8 14
M  V30 14 1 7 15
M  V30 15 1 11 2
M  V30 16 1 9 4
M  V30 17 1 3 16
M  V30 18 1 6 17
M  V30 19 1 14 18
M  V30 20 1 14 19
M  V30 21 1 15 20
M  V30 22 1 15 21
M  V30 END BOND
M  V30 END CTAB
M  END
