
     RDKit          3D

  0  0  0  0  0  0  0  0  0  0999 V3000
M  V30 BEGIN CTAB
M  V30 COUNTS 29 30 0 0 0
M  V30 BEGIN ATOM
M  V30 1 C 5.04943 0.0772852 0.324328 0
M  V30 2 N 3.59087 -0.00226179 0.329527 0
M  V30 3 C 2.77415 -0.810471 1.21127 0
M  V30 4 C 1.37234 -0.674093 0.709221 0
M  V30 5 C 1.43421 0.213446 -0.51385 0
M  V30 6 C 2.79745 0.745208 -0.577697 0
M  V30 7 O 3.19019 1.69182 -1.30474 0
M  V30 8 S 0.297332 1.60629 -0.272315 0
M  V30 9 C -1.36911 0.932634 -0.243111 0
M  V30 10 N -2.42381 1.75226 -0.0720777 0
M  V30 11 C -3.67758 1.2638 -0.0481017 0
M  V30 12 N -4.7563 2.1639 0.135142 0
M  V30 13 C -3.94995 -0.0807933 -0.194818 0
M  V30 14 C -2.85431 -0.918001 -0.37089 0
M  V30 15 N -1.62165 -0.379937 -0.387185 0
M  V30 16 N -3.09841 -2.30471 -0.524704 0
M  V30 17 H 5.51999 -0.533358 1.09326 0
M  V30 18 H 5.28 1.17064 0.434985 0
M  V30 19 H 5.41886 -0.268409 -0.675487 0
M  V30 20 H 3.07916 -1.8691 1.10147 0
M  V30 21 H 2.81139 -0.478607 2.25478 0
M  V30 22 H 0.899535 -1.63947 0.421901 0
M  V30 23 H 0.685643 -0.23673 1.47523 0
M  V30 24 H 1.22267 -0.364663 -1.4351 0
M  V30 25 H -5.75016 1.84575 0.133236 0
M  V30 26 H -4.59858 3.18792 0.27959 0
M  V30 27 H -4.96709 -0.436722 -0.170272 0
M  V30 28 H -2.43561 -2.87905 -1.07721 0
M  V30 29 H -3.92067 -2.77458 -0.103819 0
M  V30 END ATOM
M  V30 BEGIN BOND
M  V30 1 1 1 2
M  V30 2 1 2 3
M  V30 3 1 3 4
M  V30 4 1 4 5
M  V30 5 1 5 6
M  V30 6 2 6 7
M  V30 7 1 5 8
M  V30 8 1 8 9
M  V30 9 2 9 10
M  V30 10 1 10 11
M  V30 11 1 11 12
M  V30 12 2 11 13
M  V30 13 1 13 14
M  V30 14 2 14 15
M  V30 15 1 14 16
M  V30 16 1 6 2
M  V30 17 1 15 9
M  V30 18 1 1 17
M  V30 19 1 1 18
M  V30 20 1 1 19
M  V30 21 1 3 20
M  V30 22 1 3 21
M  V30 23 1 4 22
M  V30 24 1 4 23
M  V30 25 1 5 24
M  V30 26 1 12 25
M  V30 27 1 12 26
M  V30 28 1 13 27
M  V30 29 1 16 28
M  V30 30 1 16 29
M  V30 END BOND
M  V30 END CTAB
M  END
