
     RDKit          3D

  0  0  0  0  0  0  0  0  0  0999 V3000
M  V30 BEGIN CTAB
M  V30 COUNTS 34 35 0 0 0
M  V30 BEGIN ATOM
M  V30 1 C -1.88357 -0.444359 1.9058 0
M  V30 2 C -2.54986 -0.259703 0.611673 0
M  V30 3 C -1.79978 -0.25527 -0.545379 0
M  V30 4 C -2.47568 -0.0779746 -1.7347 0
M  V30 5 C -3.84307 0.0912153 -1.80791 0
M  V30 6 N -4.43709 0.265756 -3.08374 0
M  V30 7 C -4.56641 0.0834291 -0.648861 0
M  V30 8 C -3.93911 -0.0907139 0.5731 0
M  V30 9 N -0.395055 -0.431004 -0.446401 0
M  V30 10 N 0.366926 0.234865 0.283427 0
M  V30 11 C 1.77252 0.0510593 0.375391 0
M  V30 12 C 2.55905 1.18075 0.319095 0
M  V30 13 C 1.99823 2.55256 0.168872 0
M  V30 14 C 3.94706 1.05876 0.404712 0
M  V30 15 C 4.52853 -0.181791 0.544572 0
M  V30 16 C 3.75241 -1.33534 0.603514 0
M  V30 17 N 4.37461 -2.6053 0.748139 0
M  V30 18 C 2.39408 -1.16953 0.51567 0
M  V30 19 H -2.62494 -0.715581 2.70219 0
M  V30 20 H -1.32505 0.46594 2.23407 0
M  V30 21 H -1.12362 -1.258 1.79143 0
M  V30 22 H -1.86728 -0.0766402 -2.64534 0
M  V30 23 H -3.95945 0.808225 -3.83418 0
M  V30 24 H -5.36702 -0.145738 -3.2997 0
M  V30 25 H -5.65081 0.216771 -0.696577 0
M  V30 26 H -4.55126 -0.0885552 1.44629 0
M  V30 27 H 2.66486 3.31342 0.618447 0
M  V30 28 H 1.0203 2.63247 0.709433 0
M  V30 29 H 1.80683 2.82268 -0.878986 0
M  V30 30 H 4.58864 1.92741 0.363406 0
M  V30 31 H 5.59703 -0.322402 0.61457 0
M  V30 32 H 4.79541 -2.9739 1.62317 0
M  V30 33 H 4.40889 -3.21271 -0.0958229 0
M  V30 34 H 1.78365 -2.0608 0.560628 0
M  V30 END ATOM
M  V30 BEGIN BOND
M  V30 1 1 1 2
M  V30 2 2 2 3
M  V30 3 1 3 4
M  V30 4 2 4 5
M  V30 5 1 5 6
M  V30 6 1 5 7
M  V30 7 2 7 8
M  V30 8 1 3 9
M  V30 9 2 9 10
M  V30 10 1 10 11
M  V30 11 2 11 12
M  V30 12 1 12 13
M  V30 13 1 12 14
M  V30 14 2 14 15
M  V30 15 1 15 16
M  V30 16 1 16 17
M  V30 17 2 16 18
M  V30 18 1 8 2
M  V30 19 1 18 11
M  V30 20 1 1 19
M  V30 21 1 1 20
M  V30 22 1 1 21
M  V30 23 1 4 22
M  V30 24 1 6 23
M  V30 25 1 6 24
M  V30 26 1 7 25
M  V30 27 1 8 26
M  V30 28 1 13 27
M  V30 29 1 13 28
M  V30 30 1 13 29
M  V30 31 1 14 30
M  V30 32 1 15 31
M  V30 33 1 17 32
M  V30 34 1 17 33
M  V30 35 1 18 34
M  V30 END BOND
M  V30 END CTAB
M  END
