
     RDKit          3D

  0  0  0  0  0  0  0  0  0  0999 V3000
M  V30 BEGIN CTAB
M  V30 COUNTS 30 30 0 0 0
M  V30 BEGIN ATOM
M  V30 1 O 0.934297 -1.23274 -0.303431 0
M  V30 2 C 0.733151 -0.199671 -0.981655 0
M  V30 3 N -0.445087 0.569196 -1.00595 0
M  V30 4 C -1.61907 0.341654 -0.285389 0
M  V30 5 C -1.84388 -0.681708 0.605725 0
M  V30 6 C -3.05872 -0.825424 1.28342 0
M  V30 7 C -4.10717 0.0488108 1.10133 0
M  V30 8 C -3.89222 1.07712 0.21107 0
M  V30 9 C -2.70235 1.2188 -0.453437 0
M  V30 10 N -5.33648 -0.105422 1.79407 0
M  V30 11 C 1.90362 0.220686 -1.8406 0
M  V30 12 C 3.0566 -0.741108 -1.68062 0
M  V30 13 N 3.51758 -0.823088 -0.315802 0
M  V30 14 C 4.18066 0.21137 0.385189 0
M  V30 15 S 4.50908 1.63776 -0.302615 0
M  V30 16 N 4.58304 0.00918877 1.73386 0
M  V30 17 H -0.430771 1.41534 -1.64741 0
M  V30 18 H -1.07082 -1.40355 0.800032 0
M  V30 19 H -3.19218 -1.65852 1.98559 0
M  V30 20 H -4.72832 1.76433 0.0735597 0
M  V30 21 H -2.5694 2.057 -1.15853 0
M  V30 22 H -6.22576 0.0620175 1.3021 0
M  V30 23 H -5.34733 -0.382434 2.78565 0
M  V30 24 H 2.18403 1.26653 -1.61761 0
M  V30 25 H 1.53989 0.136944 -2.8849 0
M  V30 26 H 2.70197 -1.74359 -1.98771 0
M  V30 27 H 3.93651 -0.411142 -2.28177 0
M  V30 28 H 3.33365 -1.74382 0.188409 0
M  V30 29 H 4.46679 0.796015 2.40409 0
M  V30 30 H 4.98869 -0.88054 2.09334 0
M  V30 END ATOM
M  V30 BEGIN BOND
M  V30 1 2 1 2
M  V30 2 1 2 3
M  V30 3 1 3 4
M  V30 4 2 4 5
M  V30 5 1 5 6
M  V30 6 2 6 7
M  V30 7 1 7 8
M  V30 8 2 8 9
M  V30 9 1 7 10
M  V30 10 1 2 11
M  V30 11 1 11 12
M  V30 12 1 12 13
M  V30 13 1 13 14
M  V30 14 2 14 15
M  V30 15 1 14 16
M  V30 16 1 9 4
M  V30 17 1 3 17
M  V30 18 1 5 18
M  V30 19 1 6 19
M  V30 20 1 8 20
M  V30 21 1 9 21
M  V30 22 1 10 22
M  V30 23 1 10 23
M  V30 24 1 11 24
M  V30 25 1 11 25
M  V30 26 1 12 26
M  V30 27 1 12 27
M  V30 28 1 13 28
M  V30 29 1 16 29
M  V30 30 1 16 30
M  V30 END BOND
M  V30 END CTAB
M  END
