
     RDKit          3D

  0  0  0  0  0  0  0  0  0  0999 V3000
M  V30 BEGIN CTAB
M  V30 COUNTS 32 32 0 0 0
M  V30 BEGIN ATOM
M  V30 1 O -5.64089 0.521826 0.482605 0
M  V30 2 C -4.33216 -0.0135246 0.524432 0
M  V30 3 C -3.70885 0.125585 -0.829754 0
M  V30 4 N -2.3704 -0.3794 -0.939591 0
M  V30 5 C -1.26276 0.135721 -0.226269 0
M  V30 6 N -1.35821 1.16626 0.621036 0
M  V30 7 C -0.287384 1.65933 1.29799 0
M  V30 8 N -0.425518 2.763 2.1967 0
M  V30 9 N 0.910903 1.07928 1.09946 0
M  V30 10 C 1.10193 0.0394691 0.267578 0
M  V30 11 C -0.0150375 -0.423775 -0.395411 0
M  V30 12 N 0.17369 -1.53154 -1.28525 0
M  V30 13 N 2.37889 -0.556647 0.0746012 0
M  V30 14 C 3.56829 -0.103148 0.746997 0
M  V30 15 C 4.75532 -0.938357 0.329975 0
M  V30 16 O 5.92061 -0.534911 0.954197 0
M  V30 17 H -6.153 0.116731 1.23272 0
M  V30 18 H -3.72518 0.474925 1.28069 0
M  V30 19 H -4.47649 -1.07978 0.81328 0
M  V30 20 H -4.37548 -0.356996 -1.55985 0
M  V30 21 H -3.65088 1.22496 -1.07952 0
M  V30 22 H -2.1894 -1.20025 -1.60312 0
M  V30 23 H -0.400902 2.59249 3.23488 0
M  V30 24 H -0.550339 3.73568 1.88135 0
M  V30 25 H 0.377149 -1.34655 -2.28908 0
M  V30 26 H 0.111588 -2.50058 -0.949419 0
M  V30 27 H 2.44347 -1.36285 -0.590739 0
M  V30 28 H 3.81198 0.954721 0.467262 0
M  V30 29 H 3.48122 -0.117469 1.84796 0
M  V30 30 H 4.55059 -2.02834 0.473582 0
M  V30 31 H 4.9228 -0.824241 -0.775128 0
M  V30 32 H 6.41446 -1.29161 1.371 0
M  V30 END ATOM
M  V30 BEGIN BOND
M  V30 1 1 1 2
M  V30 2 1 2 3
M  V30 3 1 3 4
M  V30 4 1 4 5
M  V30 5 2 5 6
M  V30 6 1 6 7
M  V30 7 1 7 8
M  V30 8 2 7 9
M  V30 9 1 9 10
M  V30 10 2 10 11
M  V30 11 1 11 12
M  V30 12 1 10 13
M  V30 13 1 13 14
M  V30 14 1 14 15
M  V30 15 1 15 16
M  V30 16 1 11 5
M  V30 17 1 1 17
M  V30 18 1 2 18
M  V30 19 1 2 19
M  V30 20 1 3 20
M  V30 21 1 3 21
M  V30 22 1 4 22
M  V30 23 1 8 23
M  V30 24 1 8 24
M  V30 25 1 12 25
M  V30 26 1 12 26
M  V30 27 1 13 27
M  V30 28 1 14 28
M  V30 29 1 14 29
M  V30 30 1 15 30
M  V30 31 1 15 31
M  V30 32 1 16 32
M  V30 END BOND
M  V30 END CTAB
M  END
