
     RDKit          3D

  0  0  0  0  0  0  0  0  0  0999 V3000
M  V30 BEGIN CTAB
M  V30 COUNTS 38 40 0 0 0
M  V30 BEGIN ATOM
M  V30 1 N -3.62719 -1.26471 -2.5982 0
M  V30 2 C -4.36274 -0.710552 -1.47353 0
M  V30 3 C -3.92537 0.710788 -1.23567 0
M  V30 4 C -3.65995 0.428905 0.205326 0
M  V30 5 C -3.78865 -1.06476 -0.126104 0
M  V30 6 C -2.32971 0.698268 0.729735 0
M  V30 7 C -1.15074 0.374125 0.115761 0
M  V30 8 C 0.0684756 0.67118 0.6926 0
M  V30 9 N 1.3041 0.342295 0.0698191 0
M  V30 10 C 2.53579 0.676033 0.717036 0
M  V30 11 C 3.71939 0.229726 -0.131218 0
M  V30 12 C 4.22768 1.07975 -1.08551 0
M  V30 13 S 5.5009 0.144518 -1.73707 0
M  V30 14 C 5.31275 -1.25067 -0.770728 0
M  V30 15 N 4.28534 -0.926564 -0.000664506 0
M  V30 16 C 6.10639 -2.53874 -0.776761 0
M  V30 17 N 0.0629436 1.29326 1.88484 0
M  V30 18 C -1.06524 1.61455 2.49366 0
M  V30 19 N -2.22533 1.321 1.9239 0
M  V30 20 N -1.01309 2.28078 3.77093 0
M  V30 21 H -4.20388 -1.90218 -3.1596 0
M  V30 22 H -2.69864 -1.62749 -2.32898 0
M  V30 23 H -5.44956 -0.890912 -1.49526 0
M  V30 24 H -4.78007 1.40454 -1.37217 0
M  V30 25 H -3.07491 1.06243 -1.84347 0
M  V30 26 H -4.4749 0.775977 0.864377 0
M  V30 27 H -2.82827 -1.60893 -0.132813 0
M  V30 28 H -4.4884 -1.55383 0.578582 0
M  V30 29 H -1.16732 -0.115595 -0.82292 0
M  V30 30 H 1.30164 -0.140447 -0.855447 0
M  V30 31 H 2.58289 0.178557 1.71562 0
M  V30 32 H 2.57772 1.74996 0.890698 0
M  V30 33 H 3.87597 2.0974 -1.33637 0
M  V30 34 H 5.41618 -3.35043 -0.511464 0
M  V30 35 H 6.51729 -2.67201 -1.80795 0
M  V30 36 H 6.91334 -2.49687 -0.0303389 0
M  V30 37 H -0.907128 3.29631 3.82981 0
M  V30 38 H -1.08774 1.68433 4.62224 0
M  V30 END ATOM
M  V30 BEGIN BOND
M  V30 1 1 1 2
M  V30 2 1 2 3
M  V30 3 1 3 4
M  V30 4 1 4 5
M  V30 5 1 4 6
M  V30 6 2 6 7
M  V30 7 1 7 8
M  V30 8 1 8 9
M  V30 9 1 9 10
M  V30 10 1 10 11
M  V30 11 2 11 12
M  V30 12 1 12 13
M  V30 13 1 13 14
M  V30 14 2 14 15
M  V30 15 1 14 16
M  V30 16 2 8 17
M  V30 17 1 17 18
M  V30 18 2 18 19
M  V30 19 1 18 20
M  V30 20 1 5 2
M  V30 21 1 19 6
M  V30 22 1 15 11
M  V30 23 1 1 21
M  V30 24 1 1 22
M  V30 25 1 2 23
M  V30 26 1 3 24
M  V30 27 1 3 25
M  V30 28 1 4 26
M  V30 29 1 5 27
M  V30 30 1 5 28
M  V30 31 1 7 29
M  V30 32 1 9 30
M  V30 33 1 10 31
M  V30 34 1 10 32
M  V30 35 1 12 33
M  V30 36 1 16 34
M  V30 37 1 16 35
M  V30 38 1 16 36
M  V30 39 1 20 37
M  V30 40 1 20 38
M  V30 END BOND
M  V30 END CTAB
M  END
