
     RDKit          3D

  0  0  0  0  0  0  0  0  0  0999 V3000
M  V30 BEGIN CTAB
M  V30 COUNTS 56 57 0 0 0
M  V30 BEGIN ATOM
M  V30 1 N 6.96125 0.536696 2.36789 0
M  V30 2 C 7.69901 -0.115809 1.32235 0
M  V30 3 N 8.95998 -0.530444 1.50186 0
M  V30 4 C 9.65377 -1.13022 0.491445 0
M  V30 5 N 10.9941 -1.56565 0.684249 0
M  V30 6 C 8.99586 -1.28721 -0.715174 0
M  V30 7 Cl 9.84285 -2.04959 -2.03727 0
M  V30 8 N 7.72942 -0.872676 -0.90116 0
M  V30 9 C 7.05168 -0.280109 0.110908 0
M  V30 10 C 5.66902 0.165831 -0.0415278 0
M  V30 11 O 5.08266 0.659795 0.918506 0
M  V30 12 N 5.02824 0.0191291 -1.29379 0
M  V30 13 C 3.70696 0.379244 -1.60725 0
M  V30 14 N 3.26753 0.213262 -2.80754 0
M  V30 15 N 2.81839 0.878767 -0.638675 0
M  V30 16 C 1.37722 0.545087 -0.723217 0
M  V30 17 C 0.691568 0.914502 0.551321 0
M  V30 18 C -0.764293 0.654413 0.621784 0
M  V30 19 C -1.63748 1.40543 -0.321672 0
M  V30 20 C -3.0534 0.957197 -0.0975064 0
M  V30 21 C -3.66566 0.0397796 -0.943168 0
M  V30 22 C -4.95431 -0.432625 -0.734133 0
M  V30 23 C -5.65208 0.0526945 0.390243 0
M  V30 24 O -6.94129 -0.378019 0.652894 0
M  V30 25 C -7.54134 -1.32098 -0.246939 0
M  V30 26 C -8.928 -1.63435 0.263477 0
M  V30 27 C -9.79869 -0.401299 0.345688 0
M  V30 28 O -9.9617 0.211743 -0.894103 0
M  V30 29 C -5.04009 0.947069 1.20603 0
M  V30 30 C -3.75579 1.4292 1.01135 0
M  V30 31 H 7.04573 1.5761 2.40724 0
M  V30 32 H 6.3677 0.0644261 3.06305 0
M  V30 33 H 11.6493 -1.46496 -0.116481 0
M  V30 34 H 11.3077 -1.97167 1.58739 0
M  V30 35 H 5.6111 -0.417621 -2.09386 0
M  V30 36 H 2.30654 0.47017 -3.06107 0
M  V30 37 H 3.08297 1.4858 0.132926 0
M  V30 38 H 0.992836 1.11488 -1.6006 0
M  V30 39 H 1.26136 -0.536921 -0.910676 0
M  V30 40 H 0.861115 1.99009 0.823502 0
M  V30 41 H 1.17255 0.267579 1.35115 0
M  V30 42 H -1.09493 0.920381 1.66333 0
M  V30 43 H -0.958877 -0.443269 0.483069 0
M  V30 44 H -1.59221 2.50979 -0.144171 0
M  V30 45 H -1.42936 1.24195 -1.38808 0
M  V30 46 H -3.12944 -0.329086 -1.80521 0
M  V30 47 H -5.46392 -1.13225 -1.35748 0
M  V30 48 H -6.96853 -2.27168 -0.285143 0
M  V30 49 H -7.57605 -0.882691 -1.26198 0
M  V30 50 H -8.80628 -1.998 1.31554 0
M  V30 51 H -9.39958 -2.4269 -0.360678 0
M  V30 52 H -9.35945 0.322318 1.04048 0
M  V30 53 H -10.8247 -0.72861 0.673408 0
M  V30 54 H -10.0187 1.17912 -0.870508 0
M  V30 55 H -5.58582 1.31158 2.07621 0
M  V30 56 H -3.28654 2.13862 1.67315 0
M  V30 END ATOM
M  V30 BEGIN BOND
M  V30 1 1 1 2
M  V30 2 2 2 3
M  V30 3 1 3 4
M  V30 4 1 4 5
M  V30 5 2 4 6
M  V30 6 1 6 7
M  V30 7 1 6 8
M  V30 8 2 8 9
M  V30 9 1 9 10
M  V30 10 2 10 11
M  V30 11 1 10 12
M  V30 12 1 12 13
M  V30 13 2 13 14 CFG=2
M  V30 14 1 13 15
M  V30 15 1 15 16
M  V30 16 1 16 17
M  V30 17 1 17 18
M  V30 18 1 18 19
M  V30 19 1 19 20
M  V30 20 2 20 21
M  V30 21 1 21 22
M  V30 22 2 22 23
M  V30 23 1 23 24
M  V30 24 1 24 25
M  V30 25 1 25 26
M  V30 26 1 26 27
M  V30 27 1 27 28
M  V30 28 1 23 29
M  V30 29 2 29 30
M  V30 30 1 9 2
M  V30 31 1 30 20
M  V30 32 1 1 31
M  V30 33 1 1 32
M  V30 34 1 5 33
M  V30 35 1 5 34
M  V30 36 1 12 35
M  V30 37 1 14 36
M  V30 38 1 15 37
M  V30 39 1 16 38
M  V30 40 1 16 39
M  V30 41 1 17 40
M  V30 42 1 17 41
M  V30 43 1 18 42
M  V30 44 1 18 43
M  V30 45 1 19 44
M  V30 46 1 19 45
M  V30 47 1 21 46
M  V30 48 1 22 47
M  V30 49 1 25 48
M  V30 50 1 25 49
M  V30 51 1 26 50
M  V30 52 1 26 51
M  V30 53 1 27 52
M  V30 54 1 27 53
M  V30 55 1 28 54
M  V30 56 1 29 55
M  V30 57 1 30 56
M  V30 END BOND
M  V30 END CTAB
M  END
