
     RDKit          3D

  0  0  0  0  0  0  0  0  0  0999 V3000
M  V30 BEGIN CTAB
M  V30 COUNTS 61 64 0 0 0
M  V30 BEGIN ATOM
M  V30 1 O 8.84603 2.32131 0.257445 0
M  V30 2 C 7.73199 2.19487 -0.539995 0
M  V30 3 O 7.62774 2.70692 -1.67677 0
M  V30 4 C 6.577 1.39717 -0.0157509 0
M  V30 5 C 6.48395 0.092739 -0.755074 0
M  V30 6 C 5.35651 -0.744389 -0.275404 0
M  V30 7 C 4.06313 -0.096479 -0.515603 0
M  V30 8 O 3.99305 0.854992 -1.33059 0
M  V30 9 N 2.86398 -0.4985 0.133395 0
M  V30 10 C 2.81861 -1.57698 1.09584 0
M  V30 11 C 1.59121 -2.42125 0.735061 0
M  V30 12 C 0.315822 -1.61139 0.81194 0 CFG=1
M  V30 13 C 0.650742 -0.176661 0.945661 0 CFG=1
M  V30 14 C 1.63144 0.174547 -0.165786 0
M  V30 15 C -0.468409 0.780819 0.861199 0
M  V30 16 C -1.84326 0.294797 1.11777 0 CFG=1
M  V30 17 C -2.07866 -0.297686 2.46904 0
M  V30 18 O -2.66481 1.45658 1.07481 0
M  V30 19 C -2.31372 -0.548648 -0.0269006 0 CFG=1
M  V30 20 C -1.69131 -1.91596 -0.100093 0
M  V30 21 O -0.357311 -1.81686 -0.412154 0
M  V30 22 N -3.77579 -0.665896 -0.0789017 0
M  V30 23 C -4.51005 -1.65797 0.449022 0
M  V30 24 N -5.80824 -1.41827 0.197217 0
M  V30 25 C -5.90742 -0.274006 -0.491294 0
M  V30 26 C -4.63047 0.191867 -0.660822 0
M  V30 27 N -4.46429 1.36395 -1.34358 0
M  V30 28 C -5.46923 2.0652 -1.84492 0
M  V30 29 N -5.31415 3.29194 -2.55997 0
M  V30 30 N -6.7233 1.60991 -1.67994 0
M  V30 31 C -6.96456 0.459851 -1.01662 0
M  V30 32 N -8.28341 -0.0170473 -0.844287 0
M  V30 33 H 9.60093 1.67745 0.112952 0
M  V30 34 H 6.77888 1.18493 1.06671 0
M  V30 35 H 5.66828 1.98135 -0.146865 0
M  V30 36 H 6.37124 0.299526 -1.84714 0
M  V30 37 H 7.47318 -0.429488 -0.601902 0
M  V30 38 H 5.52737 -0.945003 0.811422 0
M  V30 39 H 5.32338 -1.74543 -0.760722 0
M  V30 40 H 3.69177 -2.23357 0.860856 0
M  V30 41 H 2.81063 -1.24894 2.13785 0
M  V30 42 H 1.7907 -2.79135 -0.290955 0
M  V30 43 H 1.603 -3.28996 1.39636 0
M  V30 44 H -0.256986 -2.05286 1.65363 0
M  V30 45 H 1.19031 -0.0387208 1.91028 0
M  V30 46 H 1.24293 -0.283052 -1.11896 0
M  V30 47 H 1.74661 1.26947 -0.278316 0
M  V30 48 H -0.497153 1.2898 -0.147162 0
M  V30 49 H -0.261977 1.63779 1.5694 0
M  V30 50 H -2.82575 0.237108 3.09084 0
M  V30 51 H -2.43916 -1.35552 2.40624 0
M  V30 52 H -1.12777 -0.262697 3.07924 0
M  V30 53 H -2.46446 1.93528 1.9379 0
M  V30 54 H -2.03426 -0.0168959 -0.961018 0
M  V30 55 H -1.81768 -2.49874 0.832197 0
M  V30 56 H -2.23116 -2.47634 -0.890157 0
M  V30 57 H -4.11453 -2.52708 0.998859 0
M  V30 58 H -5.07033 3.37601 -3.55129 0
M  V30 59 H -5.46552 4.16923 -2.01176 0
M  V30 60 H -9.00122 0.207407 -1.54679 0
M  V30 61 H -8.49406 -0.589188 -0.000643041 0
M  V30 END ATOM
M  V30 BEGIN BOND
M  V30 1 1 1 2
M  V30 2 2 2 3
M  V30 3 1 2 4
M  V30 4 1 4 5
M  V30 5 1 5 6
M  V30 6 1 6 7
M  V30 7 2 7 8
M  V30 8 1 7 9
M  V30 9 1 9 10
M  V30 10 1 10 11
M  V30 11 1 11 12
M  V30 12 1 12 13
M  V30 13 1 13 14
M  V30 14 1 13 15
M  V30 15 1 15 16
M  V30 16 1 16 17
M  V30 17 1 16 18 CFG=1
M  V30 18 1 16 19
M  V30 19 1 19 20
M  V30 20 1 20 21
M  V30 21 1 19 22
M  V30 22 1 22 23
M  V30 23 2 23 24
M  V30 24 1 24 25
M  V30 25 2 25 26
M  V30 26 1 26 27
M  V30 27 2 27 28
M  V30 28 1 28 29
M  V30 29 1 28 30
M  V30 30 2 30 31
M  V30 31 1 31 32
M  V30 32 1 14 9
M  V30 33 1 26 22
M  V30 34 1 21 12
M  V30 35 1 31 25
M  V30 36 1 1 33
M  V30 37 1 4 34
M  V30 38 1 4 35
M  V30 39 1 5 36
M  V30 40 1 5 37
M  V30 41 1 6 38
M  V30 42 1 6 39
M  V30 43 1 10 40
M  V30 44 1 10 41
M  V30 45 1 11 42
M  V30 46 1 11 43
M  V30 47 1 12 44 CFG=1
M  V30 48 1 13 45 CFG=1
M  V30 49 1 14 46
M  V30 50 1 14 47
M  V30 51 1 15 48
M  V30 52 1 15 49
M  V30 53 1 17 50
M  V30 54 1 17 51
M  V30 55 1 17 52
M  V30 56 1 18 53
M  V30 57 1 19 54 CFG=3
M  V30 58 1 20 55
M  V30 59 1 20 56
M  V30 60 1 23 57
M  V30 61 1 29 58
M  V30 62 1 29 59
M  V30 63 1 32 60
M  V30 64 1 32 61
M  V30 END BOND
M  V30 END CTAB
M  END
