
     RDKit          3D

  0  0  0  0  0  0  0  0  0  0999 V3000
M  V30 BEGIN CTAB
M  V30 COUNTS 39 42 0 0 0
M  V30 BEGIN ATOM
M  V30 1 N 6.02264 -0.707421 1.99464 0
M  V30 2 C 4.90977 -0.860224 1.10333 0
M  V30 3 N 3.87466 -0.16015 1.33209 0
M  V30 4 C 2.73133 -0.288712 0.452059 0
M  V30 5 S 2.52318 -1.27768 -0.921101 0
M  V30 6 C 0.937421 -0.815322 -1.33682 0
M  V30 7 C 0.641102 0.108524 -0.362496 0
M  V30 8 N 1.57649 0.345336 0.522807 0
M  V30 9 C -0.677969 0.798471 -0.324602 0
M  V30 10 C -1.9188 0.242036 -0.148914 0
M  V30 11 N -2.86846 1.18984 -0.174026 0
M  V30 12 C -2.28077 2.36652 -0.363316 0
M  V30 13 C -0.926586 2.14132 -0.458351 0
M  V30 14 C -0.116807 3.24957 -0.659611 0
M  V30 15 C -0.606633 4.52109 -0.763519 0
M  V30 16 C -1.96529 4.71455 -0.664389 0
M  V30 17 C -2.81263 3.65163 -0.465037 0
M  V30 18 C -2.21164 -1.15251 0.0391853 0
M  V30 19 C -3.00446 -1.79615 -0.878499 0
M  V30 20 C -3.31141 -3.1576 -0.72714 0
M  V30 21 C -2.80805 -3.84139 0.353102 0
M  V30 22 C -2.01175 -3.15674 1.25742 0
M  V30 23 C -1.71399 -1.82732 1.10662 0
M  V30 24 N 4.98983 -1.76711 0.01475 0
M  V30 25 H 6.35679 0.233027 2.29663 0
M  V30 26 H 6.52414 -1.54432 2.36148 0
M  V30 27 H 0.287157 -1.15046 -2.16649 0
M  V30 28 H -3.91297 1.06994 -0.0666162 0
M  V30 29 H 0.929483 3.08341 -0.73396 0
M  V30 30 H 0.0758343 5.33213 -0.918853 0
M  V30 31 H -2.31182 5.73953 -0.752495 0
M  V30 32 H -3.86964 3.8322 -0.391411 0
M  V30 33 H -3.43294 -1.32191 -1.74891 0
M  V30 34 H -3.93533 -3.65069 -1.45545 0
M  V30 35 H -3.02051 -4.90718 0.514101 0
M  V30 36 H -1.63263 -3.7484 2.1059 0
M  V30 37 H -1.09716 -1.33677 1.82524 0
M  V30 38 H 4.59649 -2.7446 0.0519828 0
M  V30 39 H 5.47193 -1.40645 -0.849355 0
M  V30 END ATOM
M  V30 BEGIN BOND
M  V30 1 1 1 2
M  V30 2 2 2 3 CFG=2
M  V30 3 1 3 4
M  V30 4 1 4 5
M  V30 5 1 5 6
M  V30 6 2 6 7
M  V30 7 1 7 8
M  V30 8 1 7 9
M  V30 9 2 9 10
M  V30 10 1 10 11
M  V30 11 1 11 12
M  V30 12 2 12 13
M  V30 13 1 13 14
M  V30 14 2 14 15
M  V30 15 1 15 16
M  V30 16 2 16 17
M  V30 17 1 10 18
M  V30 18 2 18 19
M  V30 19 1 19 20
M  V30 20 2 20 21
M  V30 21 1 21 22
M  V30 22 2 22 23
M  V30 23 1 2 24
M  V30 24 2 8 4
M  V30 25 1 13 9
M  V30 26 1 23 18
M  V30 27 1 17 12
M  V30 28 1 1 25
M  V30 29 1 1 26
M  V30 30 1 6 27
M  V30 31 1 11 28
M  V30 32 1 14 29
M  V30 33 1 15 30
M  V30 34 1 16 31
M  V30 35 1 17 32
M  V30 36 1 19 33
M  V30 37 1 20 34
M  V30 38 1 21 35
M  V30 39 1 22 36
M  V30 40 1 23 37
M  V30 41 1 24 38
M  V30 42 1 24 39
M  V30 END BOND
M  V30 END CTAB
M  END
