
     RDKit          3D

  0  0  0  0  0  0  0  0  0  0999 V3000
M  V30 BEGIN CTAB
M  V30 COUNTS 26 26 0 0 0
M  V30 BEGIN ATOM
M  V30 1 C 4.38412 -1.64728 -0.300472 0
M  V30 2 S 2.69848 -2.32321 -0.173094 0
M  V30 3 C 1.54811 -0.954547 -0.135331 0
M  V30 4 N 1.96467 0.313856 -0.196509 0
M  V30 5 C 1.07972 1.31109 -0.165876 0
M  V30 6 N 1.49259 2.67953 -0.229535 0
M  V30 7 C -0.278136 1.08778 -0.0716881 0
M  V30 8 N -1.2055 2.15738 -0.0398679 0
M  V30 9 C -0.719555 -0.211968 -0.00806474 0
M  V30 10 N 0.249171 -1.17687 -0.0450074 0
M  V30 11 N -2.09424 -0.593067 0.0911313 0
M  V30 12 C -2.37039 -2.01663 0.148964 0
M  V30 13 C -3.1992 0.31737 0.13617 0
M  V30 14 H 4.59157 -0.921172 0.495166 0
M  V30 15 H 4.52856 -1.2012 -1.30436 0
M  V30 16 H 5.07259 -2.53068 -0.192538 0
M  V30 17 H 1.46708 3.23315 -1.11843 0
M  V30 18 H 1.82691 3.1209 0.651711 0
M  V30 19 H -1.47382 2.56768 0.86762 0
M  V30 20 H -1.60266 2.52418 -0.915263 0
M  V30 21 H -1.61812 -2.58508 -0.444239 0
M  V30 22 H -2.32876 -2.40845 1.18329 0
M  V30 23 H -3.36757 -2.27854 -0.246273 0
M  V30 24 H -4.14933 -0.290345 0.23959 0
M  V30 25 H -3.22678 0.982228 1.0206 0
M  V30 26 H -3.26951 0.843891 -0.837353 0
M  V30 END ATOM
M  V30 BEGIN BOND
M  V30 1 1 1 2
M  V30 2 1 2 3
M  V30 3 2 3 4
M  V30 4 1 4 5
M  V30 5 1 5 6
M  V30 6 2 5 7
M  V30 7 1 7 8
M  V30 8 1 7 9
M  V30 9 2 9 10
M  V30 10 1 9 11
M  V30 11 1 11 12
M  V30 12 1 11 13
M  V30 13 1 10 3
M  V30 14 1 1 14
M  V30 15 1 1 15
M  V30 16 1 1 16
M  V30 17 1 6 17
M  V30 18 1 6 18
M  V30 19 1 8 19
M  V30 20 1 8 20
M  V30 21 1 12 21
M  V30 22 1 12 22
M  V30 23 1 12 23
M  V30 24 1 13 24
M  V30 25 1 13 25
M  V30 26 1 13 26
M  V30 END BOND
M  V30 END CTAB
M  END
