
     RDKit          3D

  0  0  0  0  0  0  0  0  0  0999 V3000
M  V30 BEGIN CTAB
M  V30 COUNTS 72 75 0 0 0
M  V30 BEGIN ATOM
M  V30 1 N 6.65733 -1.20354 -2.57703 0
M  V30 2 C 7.61086 -0.185025 -2.51749 0
M  V30 3 C 8.08657 0.108341 -1.14996 0
M  V30 4 C 7.08998 0.598677 -0.151488 0
M  V30 5 C 5.9504 -0.295135 0.171687 0
M  V30 6 C 5.04018 0.34021 1.24348 0 CFG=2
M  V30 7 C 3.92461 -0.550757 1.55475 0
M  V30 8 O 4.27636 -1.77967 1.76703 0
M  V30 9 N 2.58001 -0.251883 1.64799 0
M  V30 10 C 2.02655 1.05092 1.47198 0
M  V30 11 C 0.599243 1.21975 1.8699 0
M  V30 12 C -0.338947 0.0954098 1.52337 0
M  V30 13 C 0.48844 -1.02308 0.897734 0
M  V30 14 C 1.59341 -1.31161 1.93228 0
M  V30 15 O -0.788619 -0.4224 2.69923 0
M  V30 16 C -2.08036 -0.568537 2.96881 0
M  V30 17 C -3.09426 0.137762 2.14934 0 CFG=2
M  V30 18 C -2.7285 -0.095396 0.696217 0 CFG=2
M  V30 19 C -1.33987 0.507804 0.524045 0
M  V30 20 N -3.63878 0.541082 -0.218057 0
M  V30 21 C -3.70956 1.84696 -0.544846 0
M  V30 22 N -4.68916 2.05527 -1.42929 0
M  V30 23 C -5.29109 0.874532 -1.70576 0
M  V30 24 C -4.60436 -0.0660136 -0.924479 0
M  V30 25 C -5.07275 -1.36694 -1.06255 0
M  V30 26 O -4.46539 -2.24758 -0.361465 0
M  V30 27 N -6.09144 -1.72861 -1.86431 0
M  V30 28 C -6.50142 -3.11911 -1.93183 0
M  V30 29 C -6.69308 -0.760783 -2.57872 0
M  V30 30 O -7.66025 -1.11594 -3.33668 0
M  V30 31 N -6.30532 0.518297 -2.50566 0
M  V30 32 C -6.98393 1.51568 -3.29048 0
M  V30 33 C -3.25109 1.59789 2.50486 0
M  V30 34 O -4.34359 -0.440965 2.47846 0
M  V30 35 N 4.67341 1.66266 0.839575 0
M  V30 36 H 6.75076 -1.93129 -1.89974 0
M  V30 37 H 6.20933 -1.39099 -3.44793 0
M  V30 38 H 8.51425 -0.43343 -3.14804 0
M  V30 39 H 7.2078 0.745444 -2.99203 0
M  V30 40 H 8.91579 0.87313 -1.25594 0
M  V30 41 H 8.64112 -0.795208 -0.743443 0
M  V30 42 H 6.66031 1.58437 -0.48649 0
M  V30 43 H 7.68299 0.876881 0.765257 0
M  V30 44 H 5.28749 -0.440654 -0.714729 0
M  V30 45 H 6.31197 -1.28019 0.481236 0
M  V30 46 H 5.72465 0.435461 2.14415 0
M  V30 47 H 2.59783 1.71886 2.19795 0
M  V30 48 H 2.15888 1.4459 0.439234 0
M  V30 49 H 0.231135 2.14764 1.33012 0
M  V30 50 H 0.506891 1.51501 2.94964 0
M  V30 51 H 0.896178 -0.761956 -0.076894 0
M  V30 52 H -0.100768 -1.96438 0.84362 0
M  V30 53 H 2.01873 -2.31265 1.79883 0
M  V30 54 H 1.18236 -1.12806 2.94367 0
M  V30 55 H -2.34619 -1.66761 2.93858 0
M  V30 56 H -2.26272 -0.30587 4.05491 0
M  V30 57 H -2.57264 -1.15939 0.563695 0
M  V30 58 H -1.03646 0.219003 -0.527275 0
M  V30 59 H -1.4319 1.60355 0.499586 0
M  V30 60 H -3.08614 2.61734 -0.167188 0
M  V30 61 H -7.60034 -3.2126 -1.81981 0
M  V30 62 H -6.02525 -3.68121 -1.10206 0
M  V30 63 H -6.12214 -3.55039 -2.86297 0
M  V30 64 H -6.23604 2.23212 -3.74271 0
M  V30 65 H -7.58222 1.08911 -4.11666 0
M  V30 66 H -7.65573 2.16382 -2.66243 0
M  V30 67 H -4.231 2.0063 2.188 0
M  V30 68 H -2.47385 2.25396 2.11405 0
M  V30 69 H -3.29137 1.61391 3.63374 0
M  V30 70 H -4.20882 -1.42991 2.54271 0
M  V30 71 H 5.32448 2.39856 1.20659 0
M  V30 72 H 4.51506 1.76718 -0.185963 0
M  V30 END ATOM
M  V30 BEGIN BOND
M  V30 1 1 1 2
M  V30 2 1 2 3
M  V30 3 1 3 4
M  V30 4 1 4 5
M  V30 5 1 5 6
M  V30 6 1 6 7
M  V30 7 2 7 8
M  V30 8 1 7 9
M  V30 9 1 9 10
M  V30 10 1 10 11
M  V30 11 1 11 12
M  V30 12 1 12 13
M  V30 13 1 13 14
M  V30 14 1 12 15
M  V30 15 1 15 16
M  V30 16 1 16 17
M  V30 17 1 17 18
M  V30 18 1 18 19
M  V30 19 1 18 20
M  V30 20 1 20 21
M  V30 21 2 21 22
M  V30 22 1 22 23
M  V30 23 2 23 24
M  V30 24 1 24 25
M  V30 25 2 25 26
M  V30 26 1 25 27
M  V30 27 1 27 28
M  V30 28 1 27 29
M  V30 29 2 29 30
M  V30 30 1 29 31
M  V30 31 1 31 32
M  V30 32 1 17 33
M  V30 33 1 17 34 CFG=3
M  V30 34 1 6 35
M  V30 35 1 14 9
M  V30 36 1 24 20
M  V30 37 1 19 12
M  V30 38 1 31 23
M  V30 39 1 1 36
M  V30 40 1 1 37
M  V30 41 1 2 38
M  V30 42 1 2 39
M  V30 43 1 3 40
M  V30 44 1 3 41
M  V30 45 1 4 42
M  V30 46 1 4 43
M  V30 47 1 5 44
M  V30 48 1 5 45
M  V30 49 1 6 46 CFG=1
M  V30 50 1 10 47
M  V30 51 1 10 48
M  V30 52 1 11 49
M  V30 53 1 11 50
M  V30 54 1 13 51
M  V30 55 1 13 52
M  V30 56 1 14 53
M  V30 57 1 14 54
M  V30 58 1 16 55
M  V30 59 1 16 56
M  V30 60 1 18 57 CFG=3
M  V30 61 1 19 58
M  V30 62 1 19 59
M  V30 63 1 21 60
M  V30 64 1 28 61
M  V30 65 1 28 62
M  V30 66 1 28 63
M  V30 67 1 32 64
M  V30 68 1 32 65
M  V30 69 1 32 66
M  V30 70 1 33 67
M  V30 71 1 33 68
M  V30 72 1 33 69
M  V30 73 1 34 70
M  V30 74 1 35 71
M  V30 75 1 35 72
M  V30 END BOND
M  V30 END CTAB
M  END
