
     RDKit          3D

  0  0  0  0  0  0  0  0  0  0999 V3000
M  V30 BEGIN CTAB
M  V30 COUNTS 26 26 0 0 0
M  V30 BEGIN ATOM
M  V30 1 N -3.71052 -2.56157 -0.215626 0
M  V30 2 N -2.49246 -1.83945 -0.1406 0
M  V30 3 C -2.46575 -0.431075 -0.261328 0
M  V30 4 O -3.53602 0.190016 -0.437586 0
M  V30 5 C -1.22336 0.296623 -0.184019 0
M  V30 6 C -1.25935 1.67451 -0.30807 0
M  V30 7 C -0.110781 2.43026 -0.24383 0
M  V30 8 C 1.07967 1.80973 -0.0550126 0
M  V30 9 C 1.18837 0.4299 0.0774384 0
M  V30 10 C 0.0106393 -0.276162 0.00556726 0
M  V30 11 C 2.48885 -0.190344 0.278663 0
M  V30 12 O 3.50908 0.537435 0.330348 0
M  V30 13 N 2.67964 -1.57924 0.42167 0
M  V30 14 N 3.88703 -2.20625 0.612961 0
M  V30 15 N -0.207444 3.83838 -0.377365 0 CHG=1
M  V30 16 O -1.4164 4.43255 -0.566057 0 CHG=-1
M  V30 17 O 0.814678 4.5363 -0.322318 0
M  V30 18 H -4.47019 -1.94069 -0.553696 0
M  V30 19 H -3.54622 -3.33119 -0.894285 0
M  V30 20 H -1.65808 -2.44802 0.00774584 0
M  V30 21 H -2.22211 2.17996 -0.461088 0
M  V30 22 H 1.99353 2.40121 -0.00304089 0
M  V30 23 H 0.0250278 -1.36467 0.10197 0
M  V30 24 H 1.83643 -2.19113 0.379872 0
M  V30 25 H 4.52276 -2.22957 -0.179419 0
M  V30 26 H 4.283 -2.1675 1.54516 0
M  V30 END ATOM
M  V30 BEGIN BOND
M  V30 1 1 1 2
M  V30 2 1 2 3
M  V30 3 2 3 4
M  V30 4 1 3 5
M  V30 5 2 5 6
M  V30 6 1 6 7
M  V30 7 2 7 8
M  V30 8 1 8 9
M  V30 9 2 9 10
M  V30 10 1 9 11
M  V30 11 2 11 12
M  V30 12 1 11 13
M  V30 13 1 13 14
M  V30 14 1 7 15
M  V30 15 1 15 16
M  V30 16 2 15 17
M  V30 17 1 10 5
M  V30 18 1 1 18
M  V30 19 1 1 19
M  V30 20 1 2 20
M  V30 21 1 6 21
M  V30 22 1 8 22
M  V30 23 1 10 23
M  V30 24 1 13 24
M  V30 25 1 14 25
M  V30 26 1 14 26
M  V30 END BOND
M  V30 END CTAB
M  END
