
     RDKit          3D

  0  0  0  0  0  0  0  0  0  0999 V3000
M  V30 BEGIN CTAB
M  V30 COUNTS 34 36 0 0 0
M  V30 BEGIN ATOM
M  V30 1 N -8.69425 -0.531396 -0.409655 0
M  V30 2 C -7.54114 -0.472985 -0.407882 0
M  V30 3 C -6.10714 -0.393646 -0.38118 0
M  V30 4 C -5.37458 -1.13735 -1.27947 0
M  V30 5 C -4.00037 -1.08946 -1.28457 0
M  V30 6 C -3.27436 -0.287528 -0.383113 0
M  V30 7 C -4.02893 0.445725 0.503012 0
M  V30 8 C -5.43092 0.398816 0.510907 0
M  V30 9 N -1.86697 -0.2879 -0.466819 0
M  V30 10 C -0.980175 0.185609 0.502484 0
M  V30 11 O -1.31709 0.668891 1.57689 0
M  V30 12 C 0.466126 0.0869661 0.188955 0
M  V30 13 S 1.20411 -0.536058 -1.21671 0
M  V30 14 C 2.84219 -0.290522 -0.794188 0
M  V30 15 C 2.75353 0.2769 0.446262 0
M  V30 16 C 1.52413 0.47278 0.956167 0
M  V30 17 N 1.2572 1.06717 2.26742 0
M  V30 18 C 3.99034 0.594207 1.05239 0
M  V30 19 C 5.15158 0.319799 0.376392 0
M  V30 20 C 5.21843 -0.252905 -0.874065 0
M  V30 21 N 4.0328 -0.546961 -1.43309 0
M  V30 22 N 6.42887 -0.525536 -1.54955 0
M  V30 23 C 6.44237 0.634575 0.973284 0
M  V30 24 N 7.45842 0.899226 1.45703 0
M  V30 25 H -5.93066 -1.76188 -1.98195 0
M  V30 26 H -3.44288 -1.67969 -1.99409 0
M  V30 27 H -3.52018 1.08895 1.21146 0
M  V30 28 H -5.95788 0.99822 1.23195 0
M  V30 29 H -1.46864 -0.69605 -1.38545 0
M  V30 30 H 1.01703 2.06915 2.2367 0
M  V30 31 H 1.31548 0.496866 3.1226 0
M  V30 32 H 4.02253 1.05085 2.04363 0
M  V30 33 H 6.49042 -1.27523 -2.26519 0
M  V30 34 H 7.3206 0.010391 -1.36501 0
M  V30 END ATOM
M  V30 BEGIN BOND
M  V30 1 3 1 2
M  V30 2 1 2 3
M  V30 3 2 3 4
M  V30 4 1 4 5
M  V30 5 2 5 6
M  V30 6 1 6 7
M  V30 7 2 7 8
M  V30 8 1 6 9
M  V30 9 1 9 10
M  V30 10 2 10 11
M  V30 11 1 10 12
M  V30 12 1 12 13
M  V30 13 1 13 14
M  V30 14 2 14 15
M  V30 15 1 15 16
M  V30 16 1 16 17
M  V30 17 1 15 18
M  V30 18 2 18 19
M  V30 19 1 19 20
M  V30 20 2 20 21
M  V30 21 1 20 22
M  V30 22 1 19 23
M  V30 23 3 23 24
M  V30 24 1 8 3
M  V30 25 2 16 12
M  V30 26 1 21 14
M  V30 27 1 4 25
M  V30 28 1 5 26
M  V30 29 1 7 27
M  V30 30 1 8 28
M  V30 31 1 9 29
M  V30 32 1 17 30
M  V30 33 1 17 31
M  V30 34 1 18 32
M  V30 35 1 22 33
M  V30 36 1 22 34
M  V30 END BOND
M  V30 END CTAB
M  END
