
     RDKit          3D

  0  0  0  0  0  0  0  0  0  0999 V3000
M  V30 BEGIN CTAB
M  V30 COUNTS 19 20 0 0 0
M  V30 BEGIN ATOM
M  V30 1 N 2.78634 -1.32251 0.207357 0
M  V30 2 C 1.73868 -0.322858 0.171033 0
M  V30 3 C 2.07458 1.01 0.324189 0
M  V30 4 C 1.03852 1.92422 0.281887 0
M  V30 5 C -0.274699 1.47423 0.0905806 0
M  V30 6 C -0.618342 0.165111 -0.0614448 0
M  V30 7 C 0.460589 -0.735385 -0.0129808 0
M  V30 8 C -1.92953 -0.11445 -0.237918 0
M  V30 9 N -2.48046 -1.44941 -0.416258 0
M  V30 10 C -2.79644 0.943497 -0.24823 0
M  V30 11 S -1.76929 2.28736 -0.0137134 0
M  V30 12 H 3.2761 -1.61567 -0.643399 0
M  V30 13 H 3.0615 -1.76552 1.11604 0
M  V30 14 H 3.09491 1.257 0.464048 0
M  V30 15 H 1.23137 2.97136 0.393939 0
M  V30 16 H 0.299523 -1.82059 -0.124598 0
M  V30 17 H -2.11105 -2.16236 0.243231 0
M  V30 18 H -3.18635 -1.63951 -1.15522 0
M  V30 19 H -3.89595 0.915465 -0.378552 0
M  V30 END ATOM
M  V30 BEGIN BOND
M  V30 1 1 1 2
M  V30 2 2 2 3
M  V30 3 1 3 4
M  V30 4 2 4 5
M  V30 5 1 5 6
M  V30 6 2 6 7
M  V30 7 1 6 8
M  V30 8 1 8 9
M  V30 9 2 8 10
M  V30 10 1 10 11
M  V30 11 1 7 2
M  V30 12 1 11 5
M  V30 13 1 1 12
M  V30 14 1 1 13
M  V30 15 1 3 14
M  V30 16 1 4 15
M  V30 17 1 7 16
M  V30 18 1 9 17
M  V30 19 1 9 18
M  V30 20 1 10 19
M  V30 END BOND
M  V30 END CTAB
M  END
