
     RDKit          3D

  0  0  0  0  0  0  0  0  0  0999 V3000
M  V30 BEGIN CTAB
M  V30 COUNTS 29 29 0 0 0
M  V30 BEGIN ATOM
M  V30 1 N -3.71022 -1.53198 0.0301533 0
M  V30 2 C -2.5766 -0.753623 -0.447835 0
M  V30 3 C -2.27029 0.331605 0.54327 0
M  V30 4 S -0.877805 1.30233 -0.0111528 0
M  V30 5 C 0.668433 0.42613 0.0364472 0
M  V30 6 C 0.81312 -0.834289 0.532662 0
M  V30 7 C 2.03855 -1.51492 0.550368 0
M  V30 8 C 3.16449 -0.913331 0.0535532 0
M  V30 9 C 3.02805 0.370893 -0.453983 0
M  V30 10 C 1.82099 1.03587 -0.469468 0
M  V30 11 C 1.6739 2.40773 -1.0107 0
M  V30 12 N 4.43173 -1.51806 0.030888 0
M  V30 13 C -3.4705 1.22557 0.763816 0
M  V30 14 H -3.405 -2.09645 0.871285 0
M  V30 15 H -3.97372 -2.19919 -0.726372 0
M  V30 16 H -2.94888 -0.306658 -1.42142 0
M  V30 17 H -1.70071 -1.3558 -0.706504 0
M  V30 18 H -2.07326 -0.193758 1.51714 0
M  V30 19 H -0.0507467 -1.3357 0.942764 0
M  V30 20 H 2.11726 -2.51733 0.953489 0
M  V30 21 H 3.90052 0.877664 -0.856137 0
M  V30 22 H 1.24385 2.35 -2.02714 0
M  V30 23 H 2.63044 2.97886 -0.974219 0
M  V30 24 H 0.922381 2.9286 -0.376465 0
M  V30 25 H 4.779 -1.95293 -0.831685 0
M  V30 26 H 5.02591 -1.53068 0.883254 0
M  V30 27 H -3.89198 1.57615 -0.182114 0
M  V30 28 H -3.12761 2.0915 1.38782 0
M  V30 29 H -4.18129 0.651779 1.39828 0
M  V30 END ATOM
M  V30 BEGIN BOND
M  V30 1 1 1 2
M  V30 2 1 2 3
M  V30 3 1 3 4
M  V30 4 1 4 5
M  V30 5 2 5 6
M  V30 6 1 6 7
M  V30 7 2 7 8
M  V30 8 1 8 9
M  V30 9 2 9 10
M  V30 10 1 10 11
M  V30 11 1 8 12
M  V30 12 1 3 13
M  V30 13 1 10 5
M  V30 14 1 1 14
M  V30 15 1 1 15
M  V30 16 1 2 16
M  V30 17 1 2 17
M  V30 18 1 3 18
M  V30 19 1 6 19
M  V30 20 1 7 20
M  V30 21 1 9 21
M  V30 22 1 11 22
M  V30 23 1 11 23
M  V30 24 1 11 24
M  V30 25 1 12 25
M  V30 26 1 12 26
M  V30 27 1 13 27
M  V30 28 1 13 28
M  V30 29 1 13 29
M  V30 END BOND
M  V30 END CTAB
M  END
