
     RDKit          3D

  0  0  0  0  0  0  0  0  0  0999 V3000
M  V30 BEGIN CTAB
M  V30 COUNTS 24 24 0 0 0
M  V30 BEGIN ATOM
M  V30 1 C 3.06322 -1.32519 0.429262 0
M  V30 2 N 1.86202 -0.564925 0.25863 0
M  V30 3 N 0.653727 -1.0456 0.135791 0
M  V30 4 C -0.249045 -0.0115899 0.00698494 0
M  V30 5 N 0.493821 1.08312 0.0603104 0
M  V30 6 C 1.78859 0.74084 0.206281 0
M  V30 7 N 2.76795 1.78246 0.239028 0
M  V30 8 C -1.68399 -0.0710752 -0.253984 0
M  V30 9 C -2.48718 -1.05425 0.570758 0
M  V30 10 F -2.41415 -0.893686 1.91083 0
M  V30 11 F -3.73267 -1.16662 0.035705 0
M  V30 12 F -1.86456 -2.30895 0.258308 0
M  V30 13 N -1.9622 -0.402648 -1.6409 0
M  V30 14 C -2.23836 1.35974 -0.00641534 0
M  V30 15 H 3.03347 -2.06331 -0.454178 0
M  V30 16 H 3.97832 -0.736145 0.31863 0
M  V30 17 H 2.98407 -1.91996 1.35023 0
M  V30 18 H 3.34703 1.94668 -0.600187 0
M  V30 19 H 2.81883 2.32366 1.11281 0
M  V30 20 H -1.65118 0.382609 -2.25086 0
M  V30 21 H -1.48602 -1.29363 -1.88811 0
M  V30 22 H -2.45732 1.85435 -0.9722 0
M  V30 23 H -3.09855 1.37345 0.690253 0
M  V30 24 H -1.46583 2.01067 0.483029 0
M  V30 END ATOM
M  V30 BEGIN BOND
M  V30 1 1 1 2
M  V30 2 1 2 3
M  V30 3 2 3 4
M  V30 4 1 4 5
M  V30 5 2 5 6
M  V30 6 1 6 7
M  V30 7 1 4 8
M  V30 8 1 8 9
M  V30 9 1 9 10
M  V30 10 1 9 11
M  V30 11 1 9 12
M  V30 12 1 8 13
M  V30 13 1 8 14
M  V30 14 1 6 2
M  V30 15 1 1 15
M  V30 16 1 1 16
M  V30 17 1 1 17
M  V30 18 1 7 18
M  V30 19 1 7 19
M  V30 20 1 13 20
M  V30 21 1 13 21
M  V30 22 1 14 22
M  V30 23 1 14 23
M  V30 24 1 14 24
M  V30 END BOND
M  V30 END CTAB
M  END
