
     RDKit          3D

  0  0  0  0  0  0  0  0  0  0999 V3000
M  V30 BEGIN CTAB
M  V30 COUNTS 22 22 0 0 0
M  V30 BEGIN ATOM
M  V30 1 C -3.04772 -0.867192 -0.00564001 0
M  V30 2 C -1.61489 -0.539923 0.207766 0
M  V30 3 C -0.79537 -1.47837 0.762963 0
M  V30 4 C 0.550771 -1.26632 1.00017 0
M  V30 5 C 1.07258 -0.0429311 0.652989 0
M  V30 6 C 0.242611 0.902163 0.0927611 0
M  V30 7 C -1.10695 0.690182 -0.145285 0
M  V30 8 N -1.93708 1.67946 -0.722579 0
M  V30 9 S 2.74157 0.349064 0.897374 0
M  V30 10 N 3.70681 -0.0749997 -0.490069 0
M  V30 11 O 2.94809 1.81272 1.13263 0
M  V30 12 O 3.28789 -0.375561 2.09261 0
M  V30 13 H -3.57508 -0.0976768 -0.566682 0
M  V30 14 H -3.54737 -1.06239 0.972614 0
M  V30 15 H -3.05757 -1.79004 -0.653887 0
M  V30 16 H -1.23092 -2.45284 1.03478 0
M  V30 17 H 1.17203 -2.05325 1.45013 0
M  V30 18 H 0.648573 1.8704 -0.183674 0
M  V30 19 H -1.81267 2.6607 -0.396821 0
M  V30 20 H -2.66048 1.50433 -1.44538 0
M  V30 21 H 3.34003 0.364908 -1.34772 0
M  V30 22 H 4.67513 0.267572 -0.275496 0
M  V30 END ATOM
M  V30 BEGIN BOND
M  V30 1 1 1 2
M  V30 2 2 2 3
M  V30 3 1 3 4
M  V30 4 2 4 5
M  V30 5 1 5 6
M  V30 6 2 6 7
M  V30 7 1 7 8
M  V30 8 1 5 9
M  V30 9 1 9 10
M  V30 10 2 9 11
M  V30 11 2 9 12
M  V30 12 1 7 2
M  V30 13 1 1 13
M  V30 14 1 1 14
M  V30 15 1 1 15
M  V30 16 1 3 16
M  V30 17 1 4 17
M  V30 18 1 6 18
M  V30 19 1 8 19
M  V30 20 1 8 20
M  V30 21 1 10 21
M  V30 22 1 10 22
M  V30 END BOND
M  V30 END CTAB
M  END
