
     RDKit          3D

  0  0  0  0  0  0  0  0  0  0999 V3000
M  V30 BEGIN CTAB
M  V30 COUNTS 28 29 0 0 0
M  V30 BEGIN ATOM
M  V30 1 N 3.33606 0.359375 0.678097 0
M  V30 2 C 2.16449 -0.500867 0.460798 0
M  V30 3 C 1.85919 -0.489765 -1.04253 0
M  V30 4 C 1.22281 0.876373 -1.17269 0
M  V30 5 C 0.231112 0.885571 -0.0669867 0
M  V30 6 C 0.925643 0.11816 1.04616 0
M  V30 7 F 0.117883 2.21188 0.374539 0
M  V30 8 C -1.09484 0.362361 -0.369425 0
M  V30 9 C -1.41072 -0.123014 -1.61614 0
M  V30 10 N -2.65913 -0.608283 -1.86561 0
M  V30 11 C -3.62029 -0.634885 -0.924683 0
M  V30 12 C -3.29008 -0.145004 0.321635 0
M  V30 13 C -2.0435 0.358313 0.631811 0
M  V30 14 N -1.69868 0.864777 1.91389 0
M  V30 15 H 4.01963 -0.164341 1.29519 0
M  V30 16 H 3.82867 0.517066 -0.225024 0
M  V30 17 H 2.3424 -1.51527 0.83281 0
M  V30 18 H 2.76515 -0.595432 -1.64611 0
M  V30 19 H 1.11585 -1.28608 -1.20401 0
M  V30 20 H 2.04079 1.61565 -0.918639 0
M  V30 21 H 0.877694 1.13953 -2.16382 0
M  V30 22 H 0.281374 -0.72377 1.40081 0
M  V30 23 H 1.17248 0.750211 1.89777 0
M  V30 24 H -0.674472 -0.122937 -2.3974 0
M  V30 25 H -4.61879 -1.03022 -1.1477 0
M  V30 26 H -4.05796 -0.164791 1.07835 0
M  V30 27 H -1.54119 0.170032 2.67896 0
M  V30 28 H -1.59157 1.86317 2.14993 0
M  V30 END ATOM
M  V30 BEGIN BOND
M  V30 1 1 1 2
M  V30 2 1 2 3
M  V30 3 1 3 4
M  V30 4 1 4 5
M  V30 5 1 5 6
M  V30 6 1 5 7
M  V30 7 1 5 8
M  V30 8 2 8 9
M  V30 9 1 9 10
M  V30 10 2 10 11
M  V30 11 1 11 12
M  V30 12 2 12 13
M  V30 13 1 13 14
M  V30 14 1 6 2
M  V30 15 1 13 8
M  V30 16 1 1 15
M  V30 17 1 1 16
M  V30 18 1 2 17
M  V30 19 1 3 18
M  V30 20 1 3 19
M  V30 21 1 4 20
M  V30 22 1 4 21
M  V30 23 1 6 22
M  V30 24 1 6 23
M  V30 25 1 9 24
M  V30 26 1 11 25
M  V30 27 1 12 26
M  V30 28 1 14 27
M  V30 29 1 14 28
M  V30 END BOND
M  V30 END CTAB
M  END
