
     RDKit          3D

  0  0  0  0  0  0  0  0  0  0999 V3000
M  V30 BEGIN CTAB
M  V30 COUNTS 178 184 0 0 0
M  V30 BEGIN ATOM
M  V30 1 C -11.3079 1.53669 -3.79756 0
M  V30 2 C -12.0591 2.35091 -2.73711 0
M  V30 3 C -12.2082 3.73812 -3.2383 0
M  V30 4 C -13.4699 1.73854 -2.73341 0
M  V30 5 O -11.487 2.15291 -1.51024 0
M  V30 6 C -11.787 2.6759 -0.289996 0
M  V30 7 O -12.7673 3.48539 -0.311536 0
M  V30 8 N -11.1017 2.37589 0.90305 0
M  V30 9 C -11.5809 3.06929 2.07434 0
M  V30 10 C -10.7645 3.95019 2.72311 0
M  V30 11 C -11.2365 4.60666 3.85087 0
M  V30 12 C -12.528 4.37357 4.3202 0
M  V30 13 N -13.0162 5.02742 5.46528 0
M  V30 14 C -13.3208 3.47444 3.63376 0
M  V30 15 C -12.8435 2.83159 2.52094 0
M  V30 16 C -10.0298 1.46748 1.06038 0
M  V30 17 C -9.68808 1.00112 2.33808 0
M  V30 18 C -8.66726 0.104229 2.56216 0
M  V30 19 C -7.92025 -0.386488 1.52227 0
M  V30 20 C -8.24716 0.0673119 0.257856 0
M  V30 21 C -9.27421 0.970892 0.0320562 0
M  V30 22 N -6.84703 -1.33838 1.67869 0
M  V30 23 C -7.00633 -2.37067 2.62166 0
M  V30 24 O -6.0463 -3.16944 2.75513 0
M  V30 25 O -8.12653 -2.54362 3.37731 0
M  V30 26 C -8.22069 -3.6044 4.30062 0
M  V30 27 C -9.58039 -3.47006 4.97338 0
M  V30 28 C -7.08164 -3.45071 5.27814 0
M  V30 29 C -8.14432 -4.95082 3.64601 0
M  V30 30 C -5.72026 -1.19044 0.830478 0
M  V30 31 C -5.14872 -2.27064 0.174203 0
M  V30 32 C -4.10759 -2.14404 -0.701874 0
M  V30 33 C -3.5422 -0.890174 -0.999716 0
M  V30 34 C -4.09484 0.186333 -0.35374 0
M  V30 35 C -5.15991 0.0358297 0.540461 0
M  V30 36 N -2.54155 -0.815927 -2.00458 0
M  V30 37 C -2.92879 -1.17729 -3.36602 0
M  V30 38 O -2.10512 -1.12241 -4.26807 0
M  V30 39 O -4.22126 -1.57037 -3.57701 0
M  V30 40 C -4.72885 -1.95215 -4.84493 0
M  V30 41 C -4.62242 -0.865514 -5.87156 0
M  V30 42 C -6.18479 -2.31747 -4.62729 0
M  V30 43 C -4.01889 -3.17922 -5.37172 0
M  V30 44 C -1.2039 -0.431816 -1.87804 0
M  V30 45 C -0.759527 0.76193 -1.3971 0
M  V30 46 C 0.581173 1.06831 -1.45377 0
M  V30 47 C 1.5133 0.205332 -1.98489 0
M  V30 48 C 1.06506 -1.00457 -2.46416 0
M  V30 49 C -0.268039 -1.32044 -2.41303 0
M  V30 50 N 2.90314 0.615529 -2.19019 0
M  V30 51 C 3.03676 1.64048 -3.14954 0
M  V30 52 O 4.1026 2.11996 -3.51322 0
M  V30 53 O 1.87503 2.15823 -3.73853 0
M  V30 54 C 1.92218 3.17287 -4.70593 0
M  V30 55 C 0.456268 3.45693 -5.07111 0
M  V30 56 C 2.60692 4.42561 -4.27093 0
M  V30 57 C 2.58122 2.66467 -5.98082 0
M  V30 58 C 3.98228 0.0232382 -1.52112 0
M  V30 59 C 5.25607 0.523415 -1.54087 0
M  V30 60 C 6.35414 -0.0542448 -0.938764 0
M  V30 61 C 6.1816 -1.24645 -0.242826 0
M  V30 62 C 4.91465 -1.76342 -0.205758 0
M  V30 63 C 3.82884 -1.17319 -0.814619 0
M  V30 64 N 7.28977 -1.89413 0.353391 0
M  V30 65 C 7.40422 -3.30698 0.401325 0
M  V30 66 O 8.39108 -3.86462 0.977051 0
M  V30 67 O 6.47953 -4.1585 -0.162098 0
M  V30 68 C 6.59308 -5.57034 -0.122887 0
M  V30 69 C 6.60576 -6.1369 1.26267 0
M  V30 70 C 7.87632 -6.02341 -0.805259 0
M  V30 71 C 5.4184 -6.12551 -0.889906 0
M  V30 72 C 8.38549 -1.16301 0.888838 0
M  V30 73 C 9.63832 -1.47943 0.361756 0
M  V30 74 C 10.7876 -0.849454 0.777262 0
M  V30 75 C 10.7416 0.151185 1.76317 0
M  V30 76 C 9.50702 0.453402 2.27439 0
M  V30 77 C 8.34789 -0.194525 1.84271 0
M  V30 78 N 11.9331 0.791907 2.186 0
M  V30 79 C 12.3902 0.630141 3.51713 0
M  V30 80 O 11.7179 -0.132219 4.27425 0
M  V30 81 O 13.5305 1.27448 3.99621 0
M  V30 82 C 13.963 1.09012 5.32288 0
M  V30 83 C 14.2928 -0.372392 5.59345 0
M  V30 84 C 12.945 1.50846 6.34295 0
M  V30 85 C 15.2314 1.8944 5.57481 0
M  V30 86 C 12.6972 1.58432 1.29253 0
M  V30 87 C 12.4577 2.91119 1.04696 0
M  V30 88 C 13.2299 3.63585 0.163429 0
M  V30 89 C 14.2901 3.05715 -0.522168 0
M  V30 90 N 15.0885 3.7918 -1.43295 0
M  V30 91 C 14.5439 1.72876 -0.2872 0
M  V30 92 C 13.7757 1.0112 0.591051 0
M  V30 93 H -11.8965 1.4579 -4.71899 0
M  V30 94 H -10.336 2.05316 -3.95117 0
M  V30 95 H -11.0994 0.53446 -3.39447 0
M  V30 96 H -11.2574 4.32788 -3.26571 0
M  V30 97 H -13.0297 4.3275 -2.74574 0
M  V30 98 H -12.53 3.66423 -4.30996 0
M  V30 99 H -13.8802 1.72514 -3.77954 0
M  V30 100 H -13.4578 0.727283 -2.29521 0
M  V30 101 H -14.0763 2.4119 -2.10617 0
M  V30 102 H -9.73988 4.16798 2.39503 0
M  V30 103 H -10.6176 5.31204 4.38596 0
M  V30 104 H -13.8973 4.73196 5.92106 0
M  V30 105 H -12.4893 5.82288 5.86808 0
M  V30 106 H -14.3462 3.29022 4.00544 0
M  V30 107 H -13.526 2.12814 2.01793 0
M  V30 108 H -10.2921 1.39446 3.15798 0
M  V30 109 H -8.44694 -0.203958 3.5789 0
M  V30 110 H -7.69668 -0.280301 -0.596067 0
M  V30 111 H -9.45598 1.28688 -1.00696 0
M  V30 112 H -9.88918 -4.46759 5.2941 0
M  V30 113 H -9.4587 -2.74959 5.81006 0
M  V30 114 H -10.2877 -3.09211 4.22136 0
M  V30 115 H -6.63987 -2.45248 5.18423 0
M  V30 116 H -7.46507 -3.54777 6.30284 0
M  V30 117 H -6.3266 -4.24988 5.0619 0
M  V30 118 H -7.39911 -5.63374 4.13803 0
M  V30 119 H -9.11715 -5.46825 3.76266 0
M  V30 120 H -7.9777 -4.86766 2.54948 0
M  V30 121 H -5.57451 -3.25915 0.38535 0
M  V30 122 H -3.67556 -3.00401 -1.20217 0
M  V30 123 H -3.68889 1.17835 -0.554694 0
M  V30 124 H -5.55221 0.925835 1.02003 0
M  V30 125 H -4.24948 -1.29414 -6.84696 0
M  V30 126 H -5.63296 -0.43288 -6.06293 0
M  V30 127 H -3.90395 -0.0919557 -5.58641 0
M  V30 128 H -6.55091 -2.76263 -5.55371 0
M  V30 129 H -6.18357 -3.06156 -3.77759 0
M  V30 130 H -6.77512 -1.42257 -4.30541 0
M  V30 131 H -3.71989 -3.78596 -4.49253 0
M  V30 132 H -4.56158 -3.71541 -6.14571 0
M  V30 133 H -3.06446 -2.80173 -5.82219 0
M  V30 134 H -1.4149 1.49848 -0.968859 0
M  V30 135 H 0.934444 2.04241 -1.0627 0
M  V30 136 H 1.80996 -1.69998 -2.88441 0
M  V30 137 H -0.581507 -2.30383 -2.80264 0
M  V30 138 H 0.340609 3.52525 -6.18861 0
M  V30 139 H -0.216312 2.67844 -4.66411 0
M  V30 140 H 0.196041 4.40941 -4.59246 0
M  V30 141 H 3.6911 4.33654 -4.5306 0
M  V30 142 H 2.21978 5.24918 -4.93939 0
M  V30 143 H 2.41716 4.73428 -3.2399 0
M  V30 144 H 3.4611 3.28696 -6.21281 0
M  V30 145 H 1.88426 2.74324 -6.82986 0
M  V30 146 H 2.83122 1.58627 -5.88864 0
M  V30 147 H 5.48472 1.47402 -2.04162 0
M  V30 148 H 7.31869 0.409613 -1.00655 0
M  V30 149 H 4.72196 -2.696 0.35041 0
M  V30 150 H 2.86425 -1.63973 -0.732953 0
M  V30 151 H 6.24215 -5.43942 2.04878 0
M  V30 152 H 5.976 -7.06977 1.34852 0
M  V30 153 H 7.63808 -6.50196 1.54471 0
M  V30 154 H 8.5685 -6.52818 -0.0886226 0
M  V30 155 H 8.36499 -5.18838 -1.33406 0
M  V30 156 H 7.61398 -6.79254 -1.55133 0
M  V30 157 H 5.58742 -7.16002 -1.24182 0
M  V30 158 H 4.50189 -6.04154 -0.263936 0
M  V30 159 H 5.23621 -5.43218 -1.75038 0
M  V30 160 H 9.72348 -2.2525 -0.40892 0
M  V30 161 H 11.7746 -1.06741 0.395724 0
M  V30 162 H 9.41898 1.22553 3.04372 0
M  V30 163 H 7.37687 0.0560111 2.25639 0
M  V30 164 H 13.7065 -0.786778 6.40974 0
M  V30 165 H 15.391 -0.495412 5.82224 0
M  V30 166 H 14.0624 -0.930943 4.67074 0
M  V30 167 H 13.2489 2.50714 6.74366 0
M  V30 168 H 11.9505 1.63836 5.91984 0
M  V30 169 H 12.9702 0.83411 7.22404 0
M  V30 170 H 15.1342 2.94728 5.23676 0
M  V30 171 H 15.4313 1.86384 6.67951 0
M  V30 172 H 16.055 1.34657 5.0913 0
M  V30 173 H 11.6274 3.3686 1.58445 0
M  V30 174 H 13.0078 4.67455 0.000816988 0
M  V30 175 H 16.0708 3.4966 -1.58399 0
M  V30 176 H 14.7326 4.61319 -1.95539 0
M  V30 177 H 15.3833 1.26481 -0.830098 0
M  V30 178 H 14.0091 -0.0158968 0.740873 0
M  V30 END ATOM
M  V30 BEGIN BOND
M  V30 1 1 1 2
M  V30 2 1 2 3
M  V30 3 1 2 4
M  V30 4 1 2 5
M  V30 5 1 5 6
M  V30 6 2 6 7
M  V30 7 1 6 8
M  V30 8 1 8 9
M  V30 9 2 9 10
M  V30 10 1 10 11
M  V30 11 2 11 12
M  V30 12 1 12 13
M  V30 13 1 12 14
M  V30 14 2 14 15
M  V30 15 1 8 16
M  V30 16 2 16 17
M  V30 17 1 17 18
M  V30 18 2 18 19
M  V30 19 1 19 20
M  V30 20 2 20 21
M  V30 21 1 19 22
M  V30 22 1 22 23
M  V30 23 2 23 24
M  V30 24 1 23 25
M  V30 25 1 25 26
M  V30 26 1 26 27
M  V30 27 1 26 28
M  V30 28 1 26 29
M  V30 29 1 22 30
M  V30 30 2 30 31
M  V30 31 1 31 32
M  V30 32 2 32 33
M  V30 33 1 33 34
M  V30 34 2 34 35
M  V30 35 1 33 36
M  V30 36 1 36 37
M  V30 37 2 37 38
M  V30 38 1 37 39
M  V30 39 1 39 40
M  V30 40 1 40 41
M  V30 41 1 40 42
M  V30 42 1 40 43
M  V30 43 1 36 44
M  V30 44 2 44 45
M  V30 45 1 45 46
M  V30 46 2 46 47
M  V30 47 1 47 48
M  V30 48 2 48 49
M  V30 49 1 47 50
M  V30 50 1 50 51
M  V30 51 2 51 52
M  V30 52 1 51 53
M  V30 53 1 53 54
M  V30 54 1 54 55
M  V30 55 1 54 56
M  V30 56 1 54 57
M  V30 57 1 50 58
M  V30 58 2 58 59
M  V30 59 1 59 60
M  V30 60 2 60 61
M  V30 61 1 61 62
M  V30 62 2 62 63
M  V30 63 1 61 64
M  V30 64 1 64 65
M  V30 65 2 65 66
M  V30 66 1 65 67
M  V30 67 1 67 68
M  V30 68 1 68 69
M  V30 69 1 68 70
M  V30 70 1 68 71
M  V30 71 1 64 72
M  V30 72 2 72 73
M  V30 73 1 73 74
M  V30 74 2 74 75
M  V30 75 1 75 76
M  V30 76 2 76 77
M  V30 77 1 75 78
M  V30 78 1 78 79
M  V30 79 2 79 80
M  V30 80 1 79 81
M  V30 81 1 81 82
M  V30 82 1 82 83
M  V30 83 1 82 84
M  V30 84 1 82 85
M  V30 85 1 78 86
M  V30 86 2 86 87
M  V30 87 1 87 88
M  V30 88 2 88 89
M  V30 89 1 89 90
M  V30 90 1 89 91
M  V30 91 2 91 92
M  V30 92 1 15 9
M  V30 93 1 21 16
M  V30 94 1 35 30
M  V30 95 1 49 44
M  V30 96 1 63 58
M  V30 97 1 77 72
M  V30 98 1 92 86
M  V30 99 1 1 93
M  V30 100 1 1 94
M  V30 101 1 1 95
M  V30 102 1 3 96
M  V30 103 1 3 97
M  V30 104 1 3 98
M  V30 105 1 4 99
M  V30 106 1 4 100
M  V30 107 1 4 101
M  V30 108 1 10 102
M  V30 109 1 11 103
M  V30 110 1 13 104
M  V30 111 1 13 105
M  V30 112 1 14 106
M  V30 113 1 15 107
M  V30 114 1 17 108
M  V30 115 1 18 109
M  V30 116 1 20 110
M  V30 117 1 21 111
M  V30 118 1 27 112
M  V30 119 1 27 113
M  V30 120 1 27 114
M  V30 121 1 28 115
M  V30 122 1 28 116
M  V30 123 1 28 117
M  V30 124 1 29 118
M  V30 125 1 29 119
M  V30 126 1 29 120
M  V30 127 1 31 121
M  V30 128 1 32 122
M  V30 129 1 34 123
M  V30 130 1 35 124
M  V30 131 1 41 125
M  V30 132 1 41 126
M  V30 133 1 41 127
M  V30 134 1 42 128
M  V30 135 1 42 129
M  V30 136 1 42 130
M  V30 137 1 43 131
M  V30 138 1 43 132
M  V30 139 1 43 133
M  V30 140 1 45 134
M  V30 141 1 46 135
M  V30 142 1 48 136
M  V30 143 1 49 137
M  V30 144 1 55 138
M  V30 145 1 55 139
M  V30 146 1 55 140
M  V30 147 1 56 141
M  V30 148 1 56 142
M  V30 149 1 56 143
M  V30 150 1 57 144
M  V30 151 1 57 145
M  V30 152 1 57 146
M  V30 153 1 59 147
M  V30 154 1 60 148
M  V30 155 1 62 149
M  V30 156 1 63 150
M  V30 157 1 69 151
M  V30 158 1 69 152
M  V30 159 1 69 153
M  V30 160 1 70 154
M  V30 161 1 70 155
M  V30 162 1 70 156
M  V30 163 1 71 157
M  V30 164 1 71 158
M  V30 165 1 71 159
M  V30 166 1 73 160
M  V30 167 1 74 161
M  V30 168 1 76 162
M  V30 169 1 77 163
M  V30 170 1 83 164
M  V30 171 1 83 165
M  V30 172 1 83 166
M  V30 173 1 84 167
M  V30 174 1 84 168
M  V30 175 1 84 169
M  V30 176 1 85 170
M  V30 177 1 85 171
M  V30 178 1 85 172
M  V30 179 1 87 173
M  V30 180 1 88 174
M  V30 181 1 90 175
M  V30 182 1 90 176
M  V30 183 1 91 177
M  V30 184 1 92 178
M  V30 END BOND
M  V30 END CTAB
M  END
