
     RDKit          3D

  0  0  0  0  0  0  0  0  0  0999 V3000
M  V30 BEGIN CTAB
M  V30 COUNTS 40 42 0 0 0
M  V30 BEGIN ATOM
M  V30 1 N -4.88945 2.9306 -0.81596 0
M  V30 2 C -3.97877 1.8676 -0.682973 0
M  V30 3 C -2.7809 1.9179 -1.36792 0
M  V30 4 C -1.87902 0.883867 -1.2473 0
M  V30 5 C -2.11905 -0.23825 -0.449918 0
M  V30 6 C -3.31565 -0.275798 0.226728 0
M  V30 7 C -4.21875 0.769177 0.100304 0
M  V30 8 C -3.62172 -1.44583 1.08777 0
M  V30 9 C -2.3078 -1.99406 1.58983 0
M  V30 10 C -1.55368 -2.51265 0.373968 0
M  V30 11 C -1.0878 -1.29494 -0.386382 0
M  V30 12 N 0.11558 -0.82635 0.244052 0
M  V30 13 C 1.368 -0.791168 -0.402423 0
M  V30 14 O 1.40096 -1.19727 -1.59119 0
M  V30 15 C 2.5858 -0.302147 0.278334 0
M  V30 16 C 2.52 0.138262 1.57881 0
M  V30 17 S 4.13356 0.588741 1.91557 0
M  V30 18 C 4.83808 0.209915 0.413979 0
M  V30 19 C 3.78539 -0.261985 -0.315635 0
M  V30 20 S 6.51759 0.393132 -0.0539174 0
M  V30 21 O 6.66404 -0.0363729 -1.48652 0
M  V30 22 O 7.38689 -0.491289 0.814317 0
M  V30 23 N 7.02918 2.0348 0.0558026 0
M  V30 24 H -5.66203 2.86278 -1.49886 0
M  V30 25 H -4.79442 3.77878 -0.238188 0
M  V30 26 H -2.58518 2.78578 -1.99015 0
M  V30 27 H -0.936832 0.923595 -1.78614 0
M  V30 28 H -5.13277 0.677962 0.654297 0
M  V30 29 H -4.18116 -2.20372 0.496696 0
M  V30 30 H -4.22119 -1.13809 1.98783 0
M  V30 31 H -1.72565 -1.1904 2.03968 0
M  V30 32 H -2.54312 -2.80798 2.30368 0
M  V30 33 H -2.21568 -3.167 -0.227101 0
M  V30 34 H -0.682245 -3.08697 0.781092 0
M  V30 35 H -0.910711 -1.62293 -1.43632 0
M  V30 36 H 0.0332053 -0.499239 1.2349 0
M  V30 37 H 1.63923 0.189018 2.24473 0
M  V30 38 H 3.98045 -0.586574 -1.36073 0
M  V30 39 H 6.62723 2.51088 0.872774 0
M  V30 40 H 6.71838 2.50822 -0.817321 0
M  V30 END ATOM
M  V30 BEGIN BOND
M  V30 1 1 1 2
M  V30 2 2 2 3
M  V30 3 1 3 4
M  V30 4 2 4 5
M  V30 5 1 5 6
M  V30 6 2 6 7
M  V30 7 1 6 8
M  V30 8 1 8 9
M  V30 9 1 9 10
M  V30 10 1 10 11
M  V30 11 1 11 12
M  V30 12 1 12 13
M  V30 13 2 13 14
M  V30 14 1 13 15
M  V30 15 2 15 16
M  V30 16 1 16 17
M  V30 17 1 17 18
M  V30 18 2 18 19
M  V30 19 1 18 20
M  V30 20 2 20 21
M  V30 21 2 20 22
M  V30 22 1 20 23
M  V30 23 1 7 2
M  V30 24 1 19 15
M  V30 25 1 11 5
M  V30 26 1 1 24
M  V30 27 1 1 25
M  V30 28 1 3 26
M  V30 29 1 4 27
M  V30 30 1 7 28
M  V30 31 1 8 29
M  V30 32 1 8 30
M  V30 33 1 9 31
M  V30 34 1 9 32
M  V30 35 1 10 33
M  V30 36 1 10 34
M  V30 37 1 11 35
M  V30 38 1 12 36
M  V30 39 1 16 37
M  V30 40 1 19 38
M  V30 41 1 23 39
M  V30 42 1 23 40
M  V30 END BOND
M  V30 END CTAB
M  END
