
     RDKit          3D

  0  0  0  0  0  0  0  0  0  0999 V3000
M  V30 BEGIN CTAB
M  V30 COUNTS 33 33 0 0 0
M  V30 BEGIN ATOM
M  V30 1 C -3.23525 1.56496 0.165359 0
M  V30 2 C -3.01175 0.229665 -0.464843 0
M  V30 3 C -4.25814 -0.612796 -0.141287 0
M  V30 4 C -3.03625 0.405099 -1.96799 0
M  V30 5 O -1.92556 -0.49667 -0.0060859 0
M  V30 6 C -0.609921 -0.0816856 -0.0768688 0
M  V30 7 O -0.386406 1.0381 -0.597513 0
M  V30 8 N 0.455516 -0.901732 0.425409 0
M  V30 9 N 0.153728 -2.14036 0.989076 0
M  V30 10 C 1.80511 -0.499914 0.369152 0
M  V30 11 C 2.35874 -0.0973005 -0.812647 0
M  V30 12 C 3.69439 0.306877 -0.906798 0
M  V30 13 C 4.46774 0.292536 0.24676 0
M  V30 14 N 5.81076 0.697984 0.171091 0
M  V30 15 C 3.89817 -0.115621 1.43409 0
M  V30 16 C 2.57096 -0.513 1.50611 0
M  V30 17 H -3.69006 1.44022 1.19354 0
M  V30 18 H -4.06512 2.0556 -0.421836 0
M  V30 19 H -2.36112 2.2225 0.193241 0
M  V30 20 H -4.44758 -1.37476 -0.910977 0
M  V30 21 H -4.11878 -1.14935 0.827971 0
M  V30 22 H -5.15812 0.0172269 -0.0277705 0
M  V30 23 H -2.78279 -0.56053 -2.44574 0
M  V30 24 H -2.46645 1.26113 -2.32812 0
M  V30 25 H -4.11625 0.591328 -2.24008 0
M  V30 26 H 0.0401115 -2.81675 0.188739 0
M  V30 27 H -0.805158 -2.07418 1.4311 0
M  V30 28 H 1.79218 -0.0708718 -1.7306 0
M  V30 29 H 4.136 0.627099 -1.82618 0
M  V30 30 H 6.39336 0.517923 -0.673292 0
M  V30 31 H 6.25264 1.1963 0.971905 0
M  V30 32 H 4.50084 -0.125487 2.34361 0
M  V30 33 H 2.14444 -0.833542 2.46597 0
M  V30 END ATOM
M  V30 BEGIN BOND
M  V30 1 1 1 2
M  V30 2 1 2 3
M  V30 3 1 2 4
M  V30 4 1 2 5
M  V30 5 1 5 6
M  V30 6 2 6 7
M  V30 7 1 6 8
M  V30 8 1 8 9
M  V30 9 1 8 10
M  V30 10 2 10 11
M  V30 11 1 11 12
M  V30 12 2 12 13
M  V30 13 1 13 14
M  V30 14 1 13 15
M  V30 15 2 15 16
M  V30 16 1 16 10
M  V30 17 1 1 17
M  V30 18 1 1 18
M  V30 19 1 1 19
M  V30 20 1 3 20
M  V30 21 1 3 21
M  V30 22 1 3 22
M  V30 23 1 4 23
M  V30 24 1 4 24
M  V30 25 1 4 25
M  V30 26 1 9 26
M  V30 27 1 9 27
M  V30 28 1 11 28
M  V30 29 1 12 29
M  V30 30 1 14 30
M  V30 31 1 14 31
M  V30 32 1 15 32
M  V30 33 1 16 33
M  V30 END BOND
M  V30 END CTAB
M  END
