
     RDKit          3D

  0  0  0  0  0  0  0  0  0  0999 V3000
M  V30 BEGIN CTAB
M  V30 COUNTS 37 38 0 0 0
M  V30 BEGIN ATOM
M  V30 1 N -3.04816 2.88898 -0.0141631 0
M  V30 2 C -2.26603 1.87253 -0.596768 0
M  V30 3 C -1.58382 1.02282 0.452355 0
M  V30 4 N -0.801262 0.0114098 -0.183447 0
M  V30 5 C -1.52064 -0.991997 -0.862388 0
M  V30 6 C -2.46863 -1.80117 -0.0461391 0
M  V30 7 C -1.93763 -2.46428 1.15428 0
M  V30 8 O -0.777056 -2.03825 1.68511 0
M  V30 9 C 0.286238 -1.86485 0.841457 0
M  V30 10 C 0.36142 -0.386175 0.545025 0 CFG=1
M  V30 11 C 1.64736 0.0129191 -0.0441411 0
M  V30 12 C 1.92185 -0.12192 -1.38789 0
M  V30 13 C 3.1402 0.257404 -1.92689 0
M  V30 14 N 4.09068 0.772029 -1.13369 0
M  V30 15 C 3.87958 0.928772 0.193366 0
M  V30 16 C 2.6507 0.545762 0.734542 0
M  V30 17 N 4.87508 1.47083 1.04599 0
M  V30 18 H -3.44259 3.54979 -0.620865 0
M  V30 19 H -2.90582 3.1689 0.913976 0
M  V30 20 H -1.50826 2.35987 -1.2692 0
M  V30 21 H -2.92791 1.29308 -1.26561 0
M  V30 22 H -0.924172 1.65384 1.06174 0
M  V30 23 H -2.40616 0.560086 1.06203 0
M  V30 24 H -2.10581 -0.501908 -1.67181 0
M  V30 25 H -0.822693 -1.6613 -1.41524 0
M  V30 26 H -2.90454 -2.56781 -0.724325 0
M  V30 27 H -3.33232 -1.13315 0.215118 0
M  V30 28 H -2.71473 -2.39585 1.97648 0
M  V30 29 H -1.84853 -3.58071 0.994945 0
M  V30 30 H 0.354025 -2.52338 -0.0119898 0
M  V30 31 H 1.21598 -2.07793 1.45337 0
M  V30 32 H 0.239892 0.0996924 1.56483 0
M  V30 33 H 1.18131 -0.529038 -2.04315 0
M  V30 34 H 3.34999 0.150442 -2.97254 0
M  V30 35 H 2.52659 0.692732 1.8168 0
M  V30 36 H 4.73778 2.34854 1.57716 0
M  V30 37 H 5.78807 0.97929 1.15473 0
M  V30 END ATOM
M  V30 BEGIN BOND
M  V30 1 1 1 2
M  V30 2 1 2 3
M  V30 3 1 3 4
M  V30 4 1 4 5
M  V30 5 1 5 6
M  V30 6 1 6 7
M  V30 7 1 7 8
M  V30 8 1 8 9
M  V30 9 1 9 10
M  V30 10 1 10 11
M  V30 11 2 11 12
M  V30 12 1 12 13
M  V30 13 2 13 14
M  V30 14 1 14 15
M  V30 15 2 15 16
M  V30 16 1 15 17
M  V30 17 1 10 4
M  V30 18 1 16 11
M  V30 19 1 1 18
M  V30 20 1 1 19
M  V30 21 1 2 20
M  V30 22 1 2 21
M  V30 23 1 3 22
M  V30 24 1 3 23
M  V30 25 1 5 24
M  V30 26 1 5 25
M  V30 27 1 6 26
M  V30 28 1 6 27
M  V30 29 1 7 28
M  V30 30 1 7 29
M  V30 31 1 9 30
M  V30 32 1 9 31
M  V30 33 1 10 32 CFG=1
M  V30 34 1 12 33
M  V30 35 1 13 34
M  V30 36 1 16 35
M  V30 37 1 17 36
M  V30 38 1 17 37
M  V30 END BOND
M  V30 END CTAB
M  END
