
     RDKit          3D

  0  0  0  0  0  0  0  0  0  0999 V3000
M  V30 BEGIN CTAB
M  V30 COUNTS 56 60 0 0 0
M  V30 BEGIN ATOM
M  V30 1 N 0.755028 2.62906 -2.47212 0
M  V30 2 P -0.217731 2.19621 -1.07489 0
M  V30 3 N -1.14934 3.64198 -0.657733 0
M  V30 4 N -1.18211 1.03848 -1.53099 0
M  V30 5 P -1.38262 -0.30603 -0.450852 0
M  V30 6 N 0.0603634 -0.837981 -0.109166 0
M  V30 7 P 1.37861 0.236837 0.207107 0
M  V30 8 N 0.773581 1.70979 0.263806 0
M  V30 9 C 2.54254 0.240068 -1.16224 0
M  V30 10 C 3.42343 1.29765 -1.23124 0
M  V30 11 C 4.36651 1.41095 -2.23927 0
M  V30 12 C 4.40703 0.420876 -3.19474 0
M  V30 13 C 3.52733 -0.637599 -3.12796 0
M  V30 14 C 2.58912 -0.733252 -2.10948 0
M  V30 15 C 2.17732 -0.189329 1.73102 0
M  V30 16 C 3.11217 0.638834 2.30812 0
M  V30 17 C 3.73938 0.295917 3.51234 0
M  V30 18 C 3.42644 -0.882551 4.13863 0
M  V30 19 C 2.49497 -1.7166 3.57169 0
M  V30 20 C 1.89779 -1.36251 2.40004 0
M  V30 21 C -2.23316 0.280482 0.996522 0
M  V30 22 C -1.98764 -0.193733 2.25698 0
M  V30 23 C -2.68058 0.304631 3.32306 0
M  V30 24 C -3.64002 1.28996 3.17377 0
M  V30 25 C -3.88933 1.76654 1.92119 0
M  V30 26 C -3.18944 1.26322 0.844222 0
M  V30 27 C -2.35557 -1.5996 -1.19419 0
M  V30 28 C -3.08617 -2.41256 -0.351972 0
M  V30 29 C -3.86481 -3.43728 -0.854267 0
M  V30 30 C -3.8901 -3.62322 -2.22066 0
M  V30 31 C -3.16034 -2.81132 -3.06296 0
M  V30 32 C -2.38875 -1.79313 -2.54106 0
M  V30 33 H 0.918706 1.80494 -3.0925 0
M  V30 34 H 0.275211 3.36736 -3.04642 0
M  V30 35 H -0.684663 4.50538 -0.995676 0
M  V30 36 H -2.06678 3.57165 -1.13362 0
M  V30 37 H 3.41415 2.09074 -0.493195 0
M  V30 38 H 5.03771 2.25847 -2.25362 0
M  V30 39 H 5.14857 0.509096 -3.98815 0
M  V30 40 H 3.58835 -1.3964 -3.89557 0
M  V30 41 H 1.88809 -1.56973 -2.04982 0
M  V30 42 H 3.3751 1.55737 1.84702 0
M  V30 43 H 4.48483 0.972957 3.95735 0
M  V30 44 H 3.92195 -1.1501 5.08692 0
M  V30 45 H 2.2505 -2.63773 4.06143 0
M  V30 46 H 1.15019 -2.01979 1.934 0
M  V30 47 H -1.25267 -0.955836 2.41148 0
M  V30 48 H -2.52221 -0.0395592 4.34695 0
M  V30 49 H -4.19684 1.69253 4.01881 0
M  V30 50 H -4.63995 2.54829 1.74458 0
M  V30 51 H -3.42993 1.68296 -0.144185 0
M  V30 52 H -3.07058 -2.26974 0.73971 0
M  V30 53 H -4.44931 -4.09016 -0.202483 0
M  V30 54 H -4.50349 -4.42837 -2.59796 0
M  V30 55 H -3.20306 -2.98373 -4.1181 0
M  V30 56 H -1.80776 -1.14538 -3.19964 0
M  V30 END ATOM
M  V30 BEGIN BOND
M  V30 1 1 1 2
M  V30 2 1 2 3
M  V30 3 2 2 4
M  V30 4 1 4 5
M  V30 5 2 5 6
M  V30 6 1 6 7
M  V30 7 2 7 8
M  V30 8 1 7 9
M  V30 9 2 9 10
M  V30 10 1 10 11
M  V30 11 2 11 12
M  V30 12 1 12 13
M  V30 13 2 13 14
M  V30 14 1 7 15
M  V30 15 2 15 16
M  V30 16 1 16 17
M  V30 17 2 17 18
M  V30 18 1 18 19
M  V30 19 2 19 20
M  V30 20 1 5 21
M  V30 21 2 21 22
M  V30 22 1 22 23
M  V30 23 2 23 24
M  V30 24 1 24 25
M  V30 25 2 25 26
M  V30 26 1 5 27
M  V30 27 2 27 28
M  V30 28 1 28 29
M  V30 29 2 29 30
M  V30 30 1 30 31
M  V30 31 2 31 32
M  V30 32 1 8 2
M  V30 33 1 14 9
M  V30 34 1 20 15
M  V30 35 1 26 21
M  V30 36 1 32 27
M  V30 37 1 1 33
M  V30 38 1 1 34
M  V30 39 1 3 35
M  V30 40 1 3 36
M  V30 41 1 10 37
M  V30 42 1 11 38
M  V30 43 1 12 39
M  V30 44 1 13 40
M  V30 45 1 14 41
M  V30 46 1 16 42
M  V30 47 1 17 43
M  V30 48 1 18 44
M  V30 49 1 19 45
M  V30 50 1 20 46
M  V30 51 1 22 47
M  V30 52 1 23 48
M  V30 53 1 24 49
M  V30 54 1 25 50
M  V30 55 1 26 51
M  V30 56 1 28 52
M  V30 57 1 29 53
M  V30 58 1 30 54
M  V30 59 1 31 55
M  V30 60 1 32 56
M  V30 END BOND
M  V30 END CTAB
M  END
