
     RDKit          3D

  0  0  0  0  0  0  0  0  0  0999 V3000
M  V30 BEGIN CTAB
M  V30 COUNTS 64 67 0 0 0
M  V30 BEGIN ATOM
M  V30 1 C -2.3845 2.60584 1.45191 0
M  V30 2 N -1.72461 1.66519 0.598391 0
M  V30 3 C -2.41748 0.622725 -0.0658373 0
M  V30 4 O -1.74387 -0.174415 -0.811886 0
M  V30 5 C -3.85554 0.435087 0.0744899 0
M  V30 6 S -4.95651 1.35185 0.997207 0
M  V30 7 C -6.39269 0.511558 0.635394 0
M  V30 8 C -5.96569 -0.476042 -0.208377 0
M  V30 9 C -4.6586 -0.518863 -0.499995 0
M  V30 10 N -4.0329 -1.49785 -1.37703 0
M  V30 11 C -6.98533 -1.33055 -0.66389 0
M  V30 12 C -6.69589 -2.4674 -1.59346 0
M  V30 13 C -8.28056 -1.12271 -0.248212 0
M  V30 14 C -8.66903 -0.105768 0.610516 0
M  V30 15 N -7.68166 0.693996 1.03039 0
M  V30 16 C -10.0715 0.0713176 1.02385 0
M  V30 17 C -9.33128 -2.0637 -0.76502 0
M  V30 18 C -0.265998 1.78773 0.404155 0
M  V30 19 C 0.367457 0.959098 1.47225 0
M  V30 20 O 1.7554 0.929787 1.47934 0
M  V30 21 C 2.56808 0.483932 0.470265 0
M  V30 22 O 2.04049 0.0496468 -0.583257 0
M  V30 23 C 4.03105 0.505343 0.599142 0
M  V30 24 S 4.93993 1.04601 1.92478 0
M  V30 25 C 6.5119 0.753772 1.31905 0
M  V30 26 C 6.27136 0.233871 0.0783367 0
M  V30 27 C 4.97791 0.104176 -0.297408 0
M  V30 28 N 4.54653 -0.430618 -1.58375 0
M  V30 29 C 7.4262 -0.105408 -0.661088 0
M  V30 30 C 7.33592 -0.684613 -2.03329 0
M  V30 31 C 8.66236 0.103201 -0.102264 0
M  V30 32 C 8.88118 0.629129 1.15153 0
M  V30 33 N 7.76911 0.944408 1.83658 0
M  V30 34 C 10.2316 0.841165 1.72467 0
M  V30 35 C 9.86478 -0.264969 -0.90799 0
M  V30 36 H -2.80855 2.14506 2.37229 0
M  V30 37 H -3.1046 3.27426 0.936421 0
M  V30 38 H -1.60807 3.33376 1.85529 0
M  V30 39 H -3.97476 -1.20154 -2.37673 0
M  V30 40 H -3.68969 -2.397 -0.99955 0
M  V30 41 H -6.25984 -2.13492 -2.54147 0
M  V30 42 H -7.60225 -3.03842 -1.76915 0
M  V30 43 H -5.98074 -3.17846 -1.08355 0
M  V30 44 H -10.7381 0.416416 0.225952 0
M  V30 45 H -10.0831 0.878143 1.81086 0
M  V30 46 H -10.4181 -0.895658 1.45822 0
M  V30 47 H -10.3069 -1.67802 -0.423605 0
M  V30 48 H -9.13878 -3.05856 -0.36131 0
M  V30 49 H -9.35721 -2.0116 -1.87343 0
M  V30 50 H -0.0013234 1.40679 -0.58019 0
M  V30 51 H -0.00663466 2.87437 0.539547 0
M  V30 52 H 0.0448405 1.39871 2.46157 0
M  V30 53 H -0.105976 -0.0432515 1.44633 0
M  V30 54 H 4.35755 -1.42331 -1.74675 0
M  V30 55 H 4.44144 0.272489 -2.33728 0
M  V30 56 H 8.34608 -0.905717 -2.41728 0
M  V30 57 H 6.82069 -0.00194515 -2.74422 0
M  V30 58 H 6.78614 -1.66736 -1.97576 0
M  V30 59 H 10.8376 1.53202 1.11496 0
M  V30 60 H 10.1325 1.23873 2.7351 0
M  V30 61 H 10.7938 -0.127342 1.81871 0
M  V30 62 H 9.86287 -1.35432 -1.12101 0
M  V30 63 H 10.7979 -0.0389898 -0.374199 0
M  V30 64 H 9.89566 0.299747 -1.86422 0
M  V30 END ATOM
M  V30 BEGIN BOND
M  V30 1 1 1 2
M  V30 2 1 2 3
M  V30 3 2 3 4
M  V30 4 1 3 5
M  V30 5 1 5 6
M  V30 6 1 6 7
M  V30 7 2 7 8
M  V30 8 1 8 9
M  V30 9 1 9 10
M  V30 10 1 8 11
M  V30 11 1 11 12
M  V30 12 2 11 13
M  V30 13 1 13 14
M  V30 14 2 14 15
M  V30 15 1 14 16
M  V30 16 1 13 17
M  V30 17 1 2 18
M  V30 18 1 18 19
M  V30 19 1 19 20
M  V30 20 1 20 21
M  V30 21 2 21 22
M  V30 22 1 21 23
M  V30 23 1 23 24
M  V30 24 1 24 25
M  V30 25 2 25 26
M  V30 26 1 26 27
M  V30 27 1 27 28
M  V30 28 1 26 29
M  V30 29 1 29 30
M  V30 30 2 29 31
M  V30 31 1 31 32
M  V30 32 2 32 33
M  V30 33 1 32 34
M  V30 34 1 31 35
M  V30 35 2 9 5
M  V30 36 2 27 23
M  V30 37 1 15 7
M  V30 38 1 33 25
M  V30 39 1 1 36
M  V30 40 1 1 37
M  V30 41 1 1 38
M  V30 42 1 10 39
M  V30 43 1 10 40
M  V30 44 1 12 41
M  V30 45 1 12 42
M  V30 46 1 12 43
M  V30 47 1 16 44
M  V30 48 1 16 45
M  V30 49 1 16 46
M  V30 50 1 17 47
M  V30 51 1 17 48
M  V30 52 1 17 49
M  V30 53 1 18 50
M  V30 54 1 18 51
M  V30 55 1 19 52
M  V30 56 1 19 53
M  V30 57 1 28 54
M  V30 58 1 28 55
M  V30 59 1 30 56
M  V30 60 1 30 57
M  V30 61 1 30 58
M  V30 62 1 34 59
M  V30 63 1 34 60
M  V30 64 1 34 61
M  V30 65 1 35 62
M  V30 66 1 35 63
M  V30 67 1 35 64
M  V30 END BOND
M  V30 END CTAB
M  END
