
     RDKit          3D

  0  0  0  0  0  0  0  0  0  0999 V3000
M  V30 BEGIN CTAB
M  V30 COUNTS 90 89 0 0 0
M  V30 BEGIN ATOM
M  V30 1 N 10.086 3.4778 -0.000420943 0
M  V30 2 C 10.4585 2.12299 -0.291694 0
M  V30 3 N 11.5839 1.85006 -0.821548 0
M  V30 4 N 9.54815 1.09388 -0.00152154 0
M  V30 5 C 9.99397 -0.156703 0.5021 0
M  V30 6 C 8.99287 -1.26307 0.657397 0
M  V30 7 C 8.37217 -1.72334 -0.613825 0
M  V30 8 C 7.52817 -0.801271 -1.36718 0
M  V30 9 N 6.21532 -0.539936 -0.670776 0
M  V30 10 C 5.33427 0.339402 -1.22183 0
M  V30 11 O 5.80617 1.0261 -2.26394 0
M  V30 12 C 3.97028 0.657885 -0.880569 0
M  V30 13 N 3.30156 -0.120559 0.161656 0
M  V30 14 C 1.85028 0.132641 -0.237397 0
M  V30 15 C 0.857908 -0.533272 0.627671 0
M  V30 16 N -0.437152 -0.572264 0.164954 0
M  V30 17 C -1.47554 0.272427 -0.0541968 0
M  V30 18 C -2.12158 0.871152 1.12599 0
M  V30 19 N -3.41027 1.49024 1.01463 0
M  V30 20 C -3.27124 2.72532 0.218597 0
M  V30 21 C -4.55388 3.3346 -0.0630632 0
M  V30 22 O -4.77123 3.95513 -1.34586 0
M  V30 23 O -5.56555 3.40144 0.676937 0
M  V30 24 C -4.42012 0.687179 0.364812 0
M  V30 25 C -4.59384 -0.608738 1.19647 0
M  V30 26 O -3.92265 -0.855888 2.2103 0
M  V30 27 N -5.56595 -1.4716 0.676609 0
M  V30 28 C -6.48182 -2.30066 0.198191 0
M  V30 29 C -7.61247 -1.50262 -0.621416 0
M  V30 30 C -8.2148 -0.691081 0.494327 0
M  V30 31 C -9.3494 0.177561 0.170198 0
M  V30 32 N -9.04564 1.2669 -0.7269 0
M  V30 33 C -10.0921 2.22547 -0.96398 0
M  V30 34 N -10.1463 3.43113 -0.217048 0
M  V30 35 N -11.0154 1.96192 -1.81851 0
M  V30 36 C -0.980985 -1.97288 0.407188 0
M  V30 37 C -0.359653 -2.92521 -0.49698 0
M  V30 38 O -0.332693 -4.29313 -0.207203 0
M  V30 39 O 0.190674 -2.54239 -1.58268 0
M  V30 40 C 3.49977 -1.53195 -0.0261597 0
M  V30 41 C 3.45205 -2.30845 1.25055 0
M  V30 42 O 3.2909 -3.72753 1.15344 0
M  V30 43 O 3.5439 -1.79317 2.3476 0
M  V30 44 H 9.93488 4.16586 -0.752345 0
M  V30 45 H 9.98839 3.7635 0.996531 0
M  V30 46 H 12.3353 2.50724 -1.09561 0
M  V30 47 H 8.53379 1.31428 -0.123367 0
M  V30 48 H 10.8068 -0.569935 -0.210793 0
M  V30 49 H 10.4993 -0.0169541 1.50743 0
M  V30 50 H 9.46824 -2.14151 1.12176 0
M  V30 51 H 8.24124 -0.92435 1.42491 0
M  V30 52 H 7.70815 -2.62226 -0.328843 0
M  V30 53 H 9.14623 -2.16694 -1.2822 0
M  V30 54 H 7.95241 0.0288458 -1.90627 0
M  V30 55 H 7.11928 -1.45869 -2.26487 0
M  V30 56 H 6.12911 -1.0263 0.219002 0
M  V30 57 H 3.96158 1.71894 -0.368097 0
M  V30 58 H 3.34816 0.826194 -1.74389 0
M  V30 59 H 1.71793 1.25054 -0.153638 0
M  V30 60 H 1.84044 -0.129559 -1.30516 0
M  V30 61 H 0.824913 -0.00115813 1.65325 0
M  V30 62 H 1.1767 -1.5715 0.961617 0
M  V30 63 H -1.0868 1.15848 -0.683648 0
M  V30 64 H -2.20627 -0.188165 -0.784144 0
M  V30 65 H -1.4481 1.78483 1.40791 0
M  V30 66 H -2.03344 0.248546 2.00018 0
M  V30 67 H -2.69979 3.41977 0.884083 0
M  V30 68 H -2.67453 2.55684 -0.672698 0
M  V30 69 H -5.00592 3.3333 -2.11682 0
M  V30 70 H -4.09233 0.301928 -0.633535 0
M  V30 71 H -5.37832 1.14537 0.196231 0
M  V30 72 H -5.63839 -2.07875 1.9109 0
M  V30 73 H -7.03728 -3.08314 0.729257 0
M  V30 74 H -6.04218 -2.90889 -0.704688 0
M  V30 75 H -8.30004 -2.24375 -0.983889 0
M  V30 76 H -7.16911 -0.877638 -1.37078 0
M  V30 77 H -7.38522 0.0171526 0.911645 0
M  V30 78 H -8.43575 -1.35349 1.39235 0
M  V30 79 H -9.8262 0.634752 1.1007 0
M  V30 80 H -10.1531 -0.426429 -0.368174 0
M  V30 81 H -8.15559 1.37952 -1.20319 0
M  V30 82 H -11.0167 3.68164 0.308627 0
M  V30 83 H -9.35979 4.10025 -0.106625 0
M  V30 84 H -10.9989 1.08795 -2.32819 0
M  V30 85 H -0.732664 -2.21739 1.48348 0
M  V30 86 H -2.05182 -1.9627 0.314347 0
M  V30 87 H -1.1078 -4.9148 -0.361524 0
M  V30 88 H 4.27257 -1.88325 -0.681518 0
M  V30 89 H 2.56286 -1.88193 -0.580912 0
M  V30 90 H 2.3312 -4.04179 1.30961 0
M  V30 END ATOM
M  V30 BEGIN BOND
M  V30 1 1 1 2
M  V30 2 2 2 3 CFG=2
M  V30 3 1 2 4
M  V30 4 1 4 5
M  V30 5 1 5 6
M  V30 6 1 6 7
M  V30 7 1 7 8
M  V30 8 1 8 9
M  V30 9 1 9 10
M  V30 10 2 10 11
M  V30 11 1 10 12
M  V30 12 1 12 13
M  V30 13 1 13 14
M  V30 14 1 14 15
M  V30 15 1 15 16
M  V30 16 1 16 17
M  V30 17 1 17 18
M  V30 18 1 18 19
M  V30 19 1 19 20
M  V30 20 1 20 21
M  V30 21 1 21 22
M  V30 22 2 21 23
M  V30 23 1 19 24
M  V30 24 1 24 25
M  V30 25 2 25 26
M  V30 26 1 25 27
M  V30 27 1 27 28
M  V30 28 1 28 29
M  V30 29 1 29 30
M  V30 30 1 30 31
M  V30 31 1 31 32
M  V30 32 1 32 33
M  V30 33 1 33 34
M  V30 34 2 33 35 CFG=2
M  V30 35 1 16 36
M  V30 36 1 36 37
M  V30 37 1 37 38
M  V30 38 2 37 39
M  V30 39 1 13 40
M  V30 40 1 40 41
M  V30 41 1 41 42
M  V30 42 2 41 43
M  V30 43 1 1 44
M  V30 44 1 1 45
M  V30 45 1 3 46
M  V30 46 1 4 47
M  V30 47 1 5 48
M  V30 48 1 5 49
M  V30 49 1 6 50
M  V30 50 1 6 51
M  V30 51 1 7 52
M  V30 52 1 7 53
M  V30 53 1 8 54
M  V30 54 1 8 55
M  V30 55 1 9 56
M  V30 56 1 12 57
M  V30 57 1 12 58
M  V30 58 1 14 59
M  V30 59 1 14 60
M  V30 60 1 15 61
M  V30 61 1 15 62
M  V30 62 1 17 63
M  V30 63 1 17 64
M  V30 64 1 18 65
M  V30 65 1 18 66
M  V30 66 1 20 67
M  V30 67 1 20 68
M  V30 68 1 22 69
M  V30 69 1 24 70
M  V30 70 1 24 71
M  V30 71 1 27 72
M  V30 72 1 28 73
M  V30 73 1 28 74
M  V30 74 1 29 75
M  V30 75 1 29 76
M  V30 76 1 30 77
M  V30 77 1 30 78
M  V30 78 1 31 79
M  V30 79 1 31 80
M  V30 80 1 32 81
M  V30 81 1 34 82
M  V30 82 1 34 83
M  V30 83 1 35 84
M  V30 84 1 36 85
M  V30 85 1 36 86
M  V30 86 1 38 87
M  V30 87 1 40 88
M  V30 88 1 40 89
M  V30 89 1 42 90
M  V30 END BOND
M  V30 END CTAB
M  END
