
     RDKit          3D

  0  0  0  0  0  0  0  0  0  0999 V3000
M  V30 BEGIN CTAB
M  V30 COUNTS 27 28 0 0 0
M  V30 BEGIN ATOM
M  V30 1 N -4.49021 -0.281461 -0.146188 0
M  V30 2 C -3.08286 -0.490029 -0.103262 0
M  V30 3 C -2.21142 0.544744 -0.471946 0
M  V30 4 C -0.846573 0.351651 -0.43343 0
M  V30 5 C 0.0232038 1.3679 -0.795767 0
M  V30 6 O -0.402212 2.61663 -1.21141 0
M  V30 7 C 1.40092 1.19627 -0.764763 0
M  V30 8 N 2.27236 2.25164 -1.14035 0
M  V30 9 C 1.90799 -0.012659 -0.364268 0
M  V30 10 C 1.0754 -1.04382 0.00238996 0
M  V30 11 C -0.294031 -0.860269 -0.0328149 0
M  V30 12 C -1.15648 -1.88312 0.331647 0
M  V30 13 C -2.51819 -1.6738 0.287554 0
M  V30 14 S 3.63327 -0.286653 -0.305429 0
M  V30 15 O 3.9439 -1.84909 0.219012 0
M  V30 16 O 4.15379 -0.136994 -1.72723 0
M  V30 17 O 4.33999 0.721756 0.534752 0
M  V30 18 H -5.13704 -1.09685 -0.183119 0
M  V30 19 H -4.88521 0.682527 -0.14114 0
M  V30 20 H -2.61816 1.49482 -0.78654 0
M  V30 21 H -1.35644 2.88387 -1.28329 0
M  V30 22 H 2.77958 2.77126 -0.397642 0
M  V30 23 H 2.43382 2.53731 -2.12523 0
M  V30 24 H 1.48605 -2.00963 0.322226 0
M  V30 25 H -0.724097 -2.82965 0.644518 0
M  V30 26 H -3.14383 -2.50225 0.581303 0
M  V30 27 H 3.41648 -2.4641 -0.364702 0
M  V30 END ATOM
M  V30 BEGIN BOND
M  V30 1 1 1 2
M  V30 2 2 2 3
M  V30 3 1 3 4
M  V30 4 2 4 5
M  V30 5 1 5 6
M  V30 6 1 5 7
M  V30 7 1 7 8
M  V30 8 2 7 9
M  V30 9 1 9 10
M  V30 10 2 10 11
M  V30 11 1 11 12
M  V30 12 2 12 13
M  V30 13 1 9 14
M  V30 14 1 14 15
M  V30 15 2 14 16
M  V30 16 2 14 17
M  V30 17 1 13 2
M  V30 18 1 11 4
M  V30 19 1 1 18
M  V30 20 1 1 19
M  V30 21 1 3 20
M  V30 22 1 6 21
M  V30 23 1 8 22
M  V30 24 1 8 23
M  V30 25 1 10 24
M  V30 26 1 12 25
M  V30 27 1 13 26
M  V30 28 1 15 27
M  V30 END BOND
M  V30 END CTAB
M  END
