
     RDKit          3D

  0  0  0  0  0  0  0  0  0  0999 V3000
M  V30 BEGIN CTAB
M  V30 COUNTS 30 31 0 0 0
M  V30 BEGIN ATOM
M  V30 1 C -1.17278 2.49315 0.504357 0
M  V30 2 C -1.60758 1.09228 0.227959 0
M  V30 3 C -0.918285 0.26804 -0.602779 0
M  V30 4 C 0.393409 0.57764 -1.18335 0
M  V30 5 C 1.58363 0.18728 -0.410918 0
M  V30 6 C 2.03664 0.852739 0.684756 0
M  V30 7 C 3.1868 0.442881 1.38531 0
M  V30 8 C 3.89914 -0.654597 0.981205 0
M  V30 9 C 3.45754 -1.33884 -0.126048 0
M  V30 10 C 2.33522 -0.932127 -0.802852 0
M  V30 11 C -1.48483 -0.98691 -0.834514 0
M  V30 12 N -0.832997 -1.90973 -1.70899 0
M  V30 13 N -2.64538 -1.29984 -0.235922 0
M  V30 14 C -3.3098 -0.491376 0.575366 0
M  V30 15 N -4.54663 -0.860474 1.20989 0
M  V30 16 N -2.8014 0.712793 0.81764 0
M  V30 17 H -0.5861 2.86439 -0.335684 0
M  V30 18 H -2.11336 3.10971 0.575866 0
M  V30 19 H -0.615632 2.55047 1.46618 0
M  V30 20 H 0.504555 0.0987303 -2.20535 0
M  V30 21 H 0.514946 1.66396 -1.41989 0
M  V30 22 H 1.57789 1.73417 1.0915 0
M  V30 23 H 3.51605 0.989428 2.24929 0
M  V30 24 H 4.79738 -0.973784 1.5328 0
M  V30 25 H 4.02759 -2.22272 -0.455032 0
M  V30 26 H 2.04009 -1.50683 -1.69777 0
M  V30 27 H -0.383821 -2.7727 -1.38926 0
M  V30 28 H -0.834302 -1.65801 -2.71341 0
M  V30 29 H -5.20489 -1.43801 0.654987 0
M  V30 30 H -4.81309 -0.591715 2.16466 0
M  V30 END ATOM
M  V30 BEGIN BOND
M  V30 1 1 1 2
M  V30 2 2 2 3
M  V30 3 1 3 4
M  V30 4 1 4 5
M  V30 5 2 5 6
M  V30 6 1 6 7
M  V30 7 2 7 8
M  V30 8 1 8 9
M  V30 9 2 9 10
M  V30 10 1 3 11
M  V30 11 1 11 12
M  V30 12 2 11 13
M  V30 13 1 13 14
M  V30 14 1 14 15
M  V30 15 2 14 16
M  V30 16 1 16 2
M  V30 17 1 10 5
M  V30 18 1 1 17
M  V30 19 1 1 18
M  V30 20 1 1 19
M  V30 21 1 4 20
M  V30 22 1 4 21
M  V30 23 1 6 22
M  V30 24 1 7 23
M  V30 25 1 8 24
M  V30 26 1 9 25
M  V30 27 1 10 26
M  V30 28 1 12 27
M  V30 29 1 12 28
M  V30 30 1 15 29
M  V30 31 1 15 30
M  V30 END BOND
M  V30 END CTAB
M  END
