
     RDKit          3D

  0  0  0  0  0  0  0  0  0  0999 V3000
M  V30 BEGIN CTAB
M  V30 COUNTS 44 46 0 0 0
M  V30 BEGIN ATOM
M  V30 1 N -1.46456 4.40854 -0.734506 0
M  V30 2 C -0.988191 3.0811 -0.544518 0
M  V30 3 C 0.0602814 2.59127 -1.28554 0
M  V30 4 C 0.502158 1.31033 -1.08606 0
M  V30 5 C -0.0538084 0.448935 -0.158976 0
M  V30 6 C -1.11447 0.98298 0.572325 0
M  V30 7 C -1.58774 2.26203 0.402814 0
M  V30 8 N -2.67287 2.76625 1.17055 0
M  V30 9 N 0.417 -0.88284 0.0614585 0
M  V30 10 C 1.62274 -1.322 -0.608646 0
M  V30 11 C 2.84081 -0.604817 -0.178733 0
M  V30 12 C 3.98148 -0.802814 -0.928693 0
M  V30 13 C 5.17396 -0.184311 -0.605285 0
M  V30 14 C 5.25697 0.655266 0.485727 0
M  V30 15 C 4.10164 0.835369 1.2178 0
M  V30 16 C 2.91417 0.221096 0.897998 0
M  V30 17 C -0.302788 -1.76584 0.91893 0
M  V30 18 C -1.66402 -2.12242 0.449098 0
M  V30 19 C -2.14776 -1.83952 -0.812714 0
M  V30 20 C -3.42917 -2.191 -1.20643 0
M  V30 21 C -4.2739 -2.84413 -0.337576 0
M  V30 22 C -3.80607 -3.13433 0.926903 0
M  V30 23 C -2.53326 -2.77923 1.30235 0
M  V30 24 H -1.63925 4.81206 -1.67849 0
M  V30 25 H -1.65404 5.0213 0.0859 0
M  V30 26 H 0.535047 3.24093 -2.03639 0
M  V30 27 H 1.32297 0.965989 -1.69303 0
M  V30 28 H -1.61388 0.387488 1.32738 0
M  V30 29 H -3.45733 2.16006 1.43934 0
M  V30 30 H -2.65944 3.76357 1.45708 0
M  V30 31 H 1.48216 -1.10717 -1.68879 0
M  V30 32 H 1.79356 -2.40144 -0.514636 0
M  V30 33 H 3.98838 -1.45161 -1.80258 0
M  V30 34 H 6.0669 -0.351092 -1.20798 0
M  V30 35 H 6.19469 1.15956 0.763768 0
M  V30 36 H 4.19628 1.50956 2.08272 0
M  V30 37 H 2.04455 0.399263 1.50564 0
M  V30 38 H -0.370274 -1.35982 1.9467 0
M  V30 39 H 0.251075 -2.73322 1.01574 0
M  V30 40 H -1.52403 -1.33799 -1.50882 0
M  V30 41 H -3.81103 -1.96947 -2.19554 0
M  V30 42 H -5.2877 -3.12749 -0.634364 0
M  V30 43 H -4.4998 -3.65215 1.59109 0
M  V30 44 H -2.19147 -3.01824 2.29941 0
M  V30 END ATOM
M  V30 BEGIN BOND
M  V30 1 1 1 2
M  V30 2 2 2 3
M  V30 3 1 3 4
M  V30 4 2 4 5
M  V30 5 1 5 6
M  V30 6 2 6 7
M  V30 7 1 7 8
M  V30 8 1 5 9
M  V30 9 1 9 10
M  V30 10 1 10 11
M  V30 11 2 11 12
M  V30 12 1 12 13
M  V30 13 2 13 14
M  V30 14 1 14 15
M  V30 15 2 15 16
M  V30 16 1 9 17
M  V30 17 1 17 18
M  V30 18 2 18 19
M  V30 19 1 19 20
M  V30 20 2 20 21
M  V30 21 1 21 22
M  V30 22 2 22 23
M  V30 23 1 7 2
M  V30 24 1 16 11
M  V30 25 1 23 18
M  V30 26 1 1 24
M  V30 27 1 1 25
M  V30 28 1 3 26
M  V30 29 1 4 27
M  V30 30 1 6 28
M  V30 31 1 8 29
M  V30 32 1 8 30
M  V30 33 1 10 31
M  V30 34 1 10 32
M  V30 35 1 12 33
M  V30 36 1 13 34
M  V30 37 1 14 35
M  V30 38 1 15 36
M  V30 39 1 16 37
M  V30 40 1 17 38
M  V30 41 1 17 39
M  V30 42 1 19 40
M  V30 43 1 20 41
M  V30 44 1 21 42
M  V30 45 1 22 43
M  V30 46 1 23 44
M  V30 END BOND
M  V30 END CTAB
M  END
