
     RDKit          3D

  0  0  0  0  0  0  0  0  0  0999 V3000
M  V30 BEGIN CTAB
M  V30 COUNTS 24 25 0 0 0
M  V30 BEGIN ATOM
M  V30 1 N -1.69443 2.77472 -1.20359 0
M  V30 2 N -0.863308 1.78873 -0.64971 0
M  V30 3 C -1.29601 0.486971 -0.346723 0
M  V30 4 O -2.54646 0.298847 -0.635578 0
M  V30 5 C -0.541084 -0.601447 0.219285 0
M  V30 6 C -1.10297 -1.8592 0.468304 0
M  V30 7 C -2.49573 -2.30407 0.218309 0
M  V30 8 N -0.147284 -2.63485 0.990302 0
M  V30 9 N 0.928694 -1.89587 1.055 0
M  V30 10 N 0.712006 -0.662202 0.593513 0
M  V30 11 C 1.77858 0.2898 0.586672 0
M  V30 12 N 2.1186 1.18915 1.52721 0
M  V30 13 O 3.16472 1.82097 1.10186 0
M  V30 14 N 3.53258 1.39034 -0.0625154 0
M  V30 15 C 2.69806 0.415711 -0.454733 0
M  V30 16 N 2.7797 -0.301351 -1.67917 0
M  V30 17 H -2.6797 2.50334 -1.26116 0
M  V30 18 H -1.51971 3.71547 -0.816907 0
M  V30 19 H 0.111138 2.06566 -0.467306 0
M  V30 20 H -3.23038 -1.77253 0.842102 0
M  V30 21 H -2.74057 -2.14552 -0.869285 0
M  V30 22 H -2.60901 -3.37577 0.395129 0
M  V30 23 H 3.63502 -0.866507 -1.95235 0
M  V30 24 H 2.00755 -0.320381 -2.38895 0
M  V30 END ATOM
M  V30 BEGIN BOND
M  V30 1 1 1 2
M  V30 2 1 2 3
M  V30 3 2 3 4
M  V30 4 1 3 5
M  V30 5 2 5 6
M  V30 6 1 6 7
M  V30 7 1 6 8
M  V30 8 2 8 9
M  V30 9 1 9 10
M  V30 10 1 10 11
M  V30 11 2 11 12
M  V30 12 1 12 13
M  V30 13 1 13 14
M  V30 14 2 14 15
M  V30 15 1 15 16
M  V30 16 1 10 5
M  V30 17 1 15 11
M  V30 18 1 1 17
M  V30 19 1 1 18
M  V30 20 1 2 19
M  V30 21 1 7 20
M  V30 22 1 7 21
M  V30 23 1 7 22
M  V30 24 1 16 23
M  V30 25 1 16 24
M  V30 END BOND
M  V30 END CTAB
M  END
