
     RDKit          3D

  0  0  0  0  0  0  0  0  0  0999 V3000
M  V30 BEGIN CTAB
M  V30 COUNTS 14 14 0 0 0
M  V30 BEGIN ATOM
M  V30 1 N 2.03 0.0808619 0.828859 0
M  V30 2 C 1.25051 0.0330155 -0.346996 0
M  V30 3 S 1.88646 0.556702 -1.75702 0
M  V30 4 C -0.128333 -0.487638 -0.295374 0
M  V30 5 C -0.534523 -1.79122 -0.457331 0
M  V30 6 N -1.87158 -1.77882 -0.327608 0
M  V30 7 O -2.27184 -0.562695 -0.102026 0
M  V30 8 C -1.26449 0.271595 -0.0698203 0
M  V30 9 N -1.27942 1.68122 0.148726 0
M  V30 10 H 1.73174 -0.441368 1.68725 0
M  V30 11 H 2.90562 0.62144 0.885786 0
M  V30 12 H 0.132264 -2.61567 -0.648059 0
M  V30 13 H -2.05696 2.26051 -0.225549 0
M  V30 14 H -0.529446 2.17207 0.679164 0
M  V30 END ATOM
M  V30 BEGIN BOND
M  V30 1 1 1 2
M  V30 2 2 2 3
M  V30 3 1 2 4
M  V30 4 1 4 5
M  V30 5 2 5 6
M  V30 6 1 6 7
M  V30 7 1 7 8
M  V30 8 1 8 9
M  V30 9 2 8 4
M  V30 10 1 1 10
M  V30 11 1 1 11
M  V30 12 1 5 12
M  V30 13 1 9 13
M  V30 14 1 9 14
M  V30 END BOND
M  V30 END CTAB
M  END
