
     RDKit          3D

  0  0  0  0  0  0  0  0  0  0999 V3000
M  V30 BEGIN CTAB
M  V30 COUNTS 22 22 0 0 0
M  V30 BEGIN ATOM
M  V30 1 N 2.87312 1.15677 -0.509775 0
M  V30 2 C 2.57242 -0.114108 0.0209811 0
M  V30 3 N 3.5017 -0.758721 0.871353 0
M  V30 4 N 1.46757 -0.729938 -0.237089 0
M  V30 5 C 0.465278 -0.145946 -1.09366 0
M  V30 6 C -0.870298 -0.115944 -0.424021 0
M  V30 7 C -1.98639 0.398949 -1.04924 0
M  V30 8 C -3.22209 0.428688 -0.434457 0
M  V30 9 C -3.39615 -0.0596882 0.843576 0
M  V30 10 C -2.27654 -0.57408 1.46562 0
M  V30 11 C -1.0389 -0.605887 0.854764 0
M  V30 12 H 3.17881 1.92601 0.102414 0
M  V30 13 H 2.7856 1.31749 -1.52444 0
M  V30 14 H 3.97362 -1.64205 0.60942 0
M  V30 15 H 3.70562 -0.316937 1.78577 0
M  V30 16 H 0.373596 -0.67969 -2.06418 0
M  V30 17 H 0.795726 0.893818 -1.36286 0
M  V30 18 H -1.87292 0.788383 -2.05429 0
M  V30 19 H -4.10412 0.837907 -0.93411 0
M  V30 20 H -4.36841 -0.0328944 1.31907 0
M  V30 21 H -2.4047 -0.958596 2.46692 0
M  V30 22 H -0.152533 -1.01354 1.34822 0
M  V30 END ATOM
M  V30 BEGIN BOND
M  V30 1 1 1 2
M  V30 2 1 2 3
M  V30 3 2 2 4
M  V30 4 1 4 5
M  V30 5 1 5 6
M  V30 6 2 6 7
M  V30 7 1 7 8
M  V30 8 2 8 9
M  V30 9 1 9 10
M  V30 10 2 10 11
M  V30 11 1 11 6
M  V30 12 1 1 12
M  V30 13 1 1 13
M  V30 14 1 3 14
M  V30 15 1 3 15
M  V30 16 1 5 16
M  V30 17 1 5 17
M  V30 18 1 7 18
M  V30 19 1 8 19
M  V30 20 1 9 20
M  V30 21 1 10 21
M  V30 22 1 11 22
M  V30 END BOND
M  V30 END CTAB
M  END
