
     RDKit          3D

  0  0  0  0  0  0  0  0  0  0999 V3000
M  V30 BEGIN CTAB
M  V30 COUNTS 39 41 0 0 0
M  V30 BEGIN ATOM
M  V30 1 N 5.46411 -2.78959 0.737465 0
M  V30 2 N 4.36594 -1.97933 0.538162 0
M  V30 3 C 4.5078 -0.579915 0.649601 0
M  V30 4 O 5.64326 -0.0516624 0.93158 0
M  V30 5 C 3.37385 0.299279 0.447635 0
M  V30 6 C 3.62094 1.64567 0.275481 0
M  V30 7 C 2.57764 2.49564 0.089592 0
M  V30 8 C 1.27045 1.99975 0.0746991 0
M  V30 9 C 1.04787 0.67227 0.245873 0
M  V30 10 C 2.11414 -0.223041 0.439654 0
M  V30 11 N -0.210416 0.226784 0.228216 0
M  V30 12 C -1.31656 1.00772 0.0487129 0
M  V30 13 N -1.08847 2.30452 -0.119657 0
M  V30 14 C 0.189574 2.81735 -0.109334 0
M  V30 15 O 0.376564 4.0633 -0.271856 0
M  V30 16 N -2.08619 3.24854 -0.356893 0
M  V30 17 C -2.62431 0.359944 0.0178953 0
M  V30 18 C -3.79167 1.01577 0.17824 0
M  V30 19 C -4.99787 0.300918 0.080661 0
M  V30 20 C -5.00395 -1.05001 -0.17322 0
M  V30 21 C -3.80525 -1.70692 -0.333431 0
M  V30 22 C -2.63026 -1.02815 -0.242379 0
M  V30 23 O -1.38598 -1.67589 -0.402638 0
M  V30 24 C -1.43641 -3.06263 -0.661272 0
M  V30 25 H 5.82614 -3.2226 -0.135791 0
M  V30 26 H 6.24378 -2.34755 1.23879 0
M  V30 27 H 3.44687 -2.38575 0.306175 0
M  V30 28 H 4.62127 2.01225 0.288675 0
M  V30 29 H 2.71823 3.55353 -0.0491225 0
M  V30 30 H 1.84912 -1.26019 0.570948 0
M  V30 31 H -2.33285 3.94276 0.360482 0
M  V30 32 H -2.57199 3.23562 -1.26819 0
M  V30 33 H -3.86429 2.08677 0.411376 0
M  V30 34 H -5.93384 0.856939 0.213838 0
M  V30 35 H -5.91921 -1.614 -0.251293 0
M  V30 36 H -3.77716 -2.7749 -0.534622 0
M  V30 37 H -2.04653 -3.27403 -1.5775 0
M  V30 38 H -1.97572 -3.60717 0.161616 0
M  V30 39 H -0.458626 -3.51202 -0.828218 0
M  V30 END ATOM
M  V30 BEGIN BOND
M  V30 1 1 1 2
M  V30 2 1 2 3
M  V30 3 2 3 4
M  V30 4 1 3 5
M  V30 5 2 5 6
M  V30 6 1 6 7
M  V30 7 2 7 8
M  V30 8 1 8 9
M  V30 9 2 9 10
M  V30 10 1 9 11
M  V30 11 2 11 12
M  V30 12 1 12 13
M  V30 13 1 13 14
M  V30 14 2 14 15
M  V30 15 1 13 16
M  V30 16 1 12 17
M  V30 17 2 17 18
M  V30 18 1 18 19
M  V30 19 2 19 20
M  V30 20 1 20 21
M  V30 21 2 21 22
M  V30 22 1 22 23
M  V30 23 1 23 24
M  V30 24 1 10 5
M  V30 25 1 22 17
M  V30 26 1 14 8
M  V30 27 1 1 25
M  V30 28 1 1 26
M  V30 29 1 2 27
M  V30 30 1 6 28
M  V30 31 1 7 29
M  V30 32 1 10 30
M  V30 33 1 16 31
M  V30 34 1 16 32
M  V30 35 1 18 33
M  V30 36 1 19 34
M  V30 37 1 20 35
M  V30 38 1 21 36
M  V30 39 1 24 37
M  V30 40 1 24 38
M  V30 41 1 24 39
M  V30 END BOND
M  V30 END CTAB
M  END
