
     RDKit          3D

  0  0  0  0  0  0  0  0  0  0999 V3000
M  V30 BEGIN CTAB
M  V30 COUNTS 64 68 0 0 0
M  V30 BEGIN ATOM
M  V30 1 C 8.90487 -0.664003 0.869563 0
M  V30 2 C 7.79622 -0.389009 1.84793 0
M  V30 3 O 6.60356 0.035443 1.19559 0
M  V30 4 C 6.57795 1.18351 0.41233 0
M  V30 5 O 7.69182 1.80638 0.333123 0
M  V30 6 C 5.37061 1.67429 -0.289283 0
M  V30 7 C 4.848 0.646601 -1.28344 0
M  V30 8 C 3.86345 -0.202939 -0.518773 0
M  V30 9 N 2.63072 0.603415 -0.292985 0
M  V30 10 C 2.91573 1.95329 0.0704356 0
M  V30 11 C 4.32132 1.98526 0.756156 0
M  V30 12 C 1.43185 -0.101061 -0.422768 0
M  V30 13 N 1.44424 -1.46492 -0.23074 0
M  V30 14 C 0.350194 -2.20522 -0.290463 0
M  V30 15 N 0.401617 -3.63053 -0.0840243 0
M  V30 16 C -0.874193 -1.64424 -0.551215 0
M  V30 17 C -0.917258 -0.255224 -0.752659 0
M  V30 18 C 0.218941 0.504004 -0.689649 0
M  V30 19 C 0.177799 1.93709 -0.926947 0
M  V30 20 N 0.197338 3.11579 -1.12472 0
M  V30 21 C -2.16224 0.335787 -1.01442 0
M  V30 22 C -2.58916 1.65475 -1.30651 0
M  V30 23 C -4.07719 1.62055 -1.38379 0
M  V30 24 O -4.81727 2.65781 -1.52088 0
M  V30 25 N -4.43838 0.278692 -1.27881 0
M  V30 26 C -3.25912 -0.500899 -1.05085 0
M  V30 27 N -3.17928 -1.83731 -0.851868 0
M  V30 28 C -2.006 -2.42649 -0.602589 0
M  V30 29 N -1.95164 -3.82422 -0.399237 0
M  V30 30 C -5.78143 -0.295339 -1.36933 0
M  V30 31 C -6.48126 -0.402366 -0.0552829 0
M  V30 32 C -6.7884 0.992366 0.460971 0
M  V30 33 C -7.96185 0.704935 1.40304 0
M  V30 34 C -8.56984 -0.503895 0.759968 0
M  V30 35 O -7.74035 -0.990208 -0.212701 0
M  V30 36 H 9.53827 -1.51934 1.19493 0
M  V30 37 H 8.53062 -0.887708 -0.131554 0
M  V30 38 H 9.55405 0.252688 0.792592 0
M  V30 39 H 8.14136 0.395106 2.5678 0
M  V30 40 H 7.57004 -1.34331 2.37084 0
M  V30 41 H 5.63577 2.57809 -0.842384 0
M  V30 42 H 4.37737 1.11651 -2.15905 0
M  V30 43 H 5.64146 -0.0237461 -1.6546 0
M  V30 44 H 4.27732 -0.372745 0.495597 0
M  V30 45 H 3.65118 -1.15659 -0.995327 0
M  V30 46 H 3.05435 2.65431 -0.763377 0
M  V30 47 H 2.22358 2.32926 0.834047 0
M  V30 48 H 4.345 1.35992 1.64036 0
M  V30 49 H 4.45177 3.03964 1.0606 0
M  V30 50 H 0.289251 -3.99122 0.88402 0
M  V30 51 H 0.552948 -4.19825 -0.934483 0
M  V30 52 H -2.42334 2.2846 -0.401826 0
M  V30 53 H -2.18319 2.2172 -2.14582 0
M  V30 54 H -2.06271 -4.20722 0.548397 0
M  V30 55 H -1.80366 -4.45706 -1.19934 0
M  V30 56 H -6.3437 0.299248 -2.11696 0
M  V30 57 H -5.67391 -1.31347 -1.80788 0
M  V30 58 H -5.89252 -0.991574 0.641416 0
M  V30 59 H -5.91697 1.36674 0.983319 0
M  V30 60 H -7.17678 1.64995 -0.338237 0
M  V30 61 H -7.50432 0.475056 2.38213 0
M  V30 62 H -8.66854 1.53538 1.40734 0
M  V30 63 H -9.53546 -0.210837 0.258174 0
M  V30 64 H -8.8006 -1.23271 1.56349 0
M  V30 END ATOM
M  V30 BEGIN BOND
M  V30 1 1 1 2
M  V30 2 1 2 3
M  V30 3 1 3 4
M  V30 4 2 4 5
M  V30 5 1 4 6
M  V30 6 1 6 7
M  V30 7 1 7 8
M  V30 8 1 8 9
M  V30 9 1 9 10
M  V30 10 1 10 11
M  V30 11 1 9 12
M  V30 12 2 12 13
M  V30 13 1 13 14
M  V30 14 1 14 15
M  V30 15 2 14 16
M  V30 16 1 16 17
M  V30 17 2 17 18
M  V30 18 1 18 19
M  V30 19 3 19 20
M  V30 20 1 17 21
M  V30 21 1 21 22
M  V30 22 1 22 23
M  V30 23 2 23 24
M  V30 24 1 23 25
M  V30 25 1 25 26
M  V30 26 1 26 27
M  V30 27 2 27 28
M  V30 28 1 28 29
M  V30 29 1 25 30
M  V30 30 1 30 31
M  V30 31 1 31 32
M  V30 32 1 32 33
M  V30 33 1 33 34
M  V30 34 1 34 35
M  V30 35 1 11 6
M  V30 36 1 18 12
M  V30 37 2 26 21
M  V30 38 1 35 31
M  V30 39 1 28 16
M  V30 40 1 1 36
M  V30 41 1 1 37
M  V30 42 1 1 38
M  V30 43 1 2 39
M  V30 44 1 2 40
M  V30 45 1 6 41
M  V30 46 1 7 42
M  V30 47 1 7 43
M  V30 48 1 8 44
M  V30 49 1 8 45
M  V30 50 1 10 46
M  V30 51 1 10 47
M  V30 52 1 11 48
M  V30 53 1 11 49
M  V30 54 1 15 50
M  V30 55 1 15 51
M  V30 56 1 22 52
M  V30 57 1 22 53
M  V30 58 1 29 54
M  V30 59 1 29 55
M  V30 60 1 30 56
M  V30 61 1 30 57
M  V30 62 1 31 58
M  V30 63 1 32 59
M  V30 64 1 32 60
M  V30 65 1 33 61
M  V30 66 1 33 62
M  V30 67 1 34 63
M  V30 68 1 34 64
M  V30 END BOND
M  V30 END CTAB
M  END
