
     RDKit          3D

  0  0  0  0  0  0  0  0  0  0999 V3000
M  V30 BEGIN CTAB
M  V30 COUNTS 36 37 0 0 0
M  V30 BEGIN ATOM
M  V30 1 N -5.27042 1.00194 -0.560899 0
M  V30 2 C -4.33637 -0.0560939 -0.202624 0
M  V30 3 C -3.06704 0.614952 0.209367 0
M  V30 4 N -2.00033 -0.325914 0.592128 0
M  V30 5 C -0.994549 0.530599 1.19731 0
M  V30 6 C 0.341166 -0.0979785 1.28319 0
M  V30 7 C 0.758634 -0.275226 -0.208586 0
M  V30 8 C -0.133411 -1.33628 -0.715799 0
M  V30 9 C -1.54968 -0.902403 -0.647937 0
M  V30 10 C 2.19571 -0.449709 -0.313489 0
M  V30 11 C 2.87195 -1.62929 -0.36678 0
M  V30 12 C 4.25316 -1.59643 -0.429352 0
M  V30 13 N 4.94383 -0.444984 -0.437764 0
M  V30 14 C 4.32188 0.749399 -0.38705 0
M  V30 15 C 2.95139 0.731958 -0.325037 0
M  V30 16 N 5.02531 1.98076 -0.377851 0
M  V30 17 H -4.91697 1.57849 -1.34794 0
M  V30 18 H -6.19743 0.576464 -0.738546 0
M  V30 19 H -4.16206 -0.804232 -0.963623 0
M  V30 20 H -4.75442 -0.508462 0.761002 0
M  V30 21 H -3.26749 1.37008 0.981342 0
M  V30 22 H -2.69406 1.22085 -0.678211 0
M  V30 23 H -0.910955 1.42531 0.545055 0
M  V30 24 H -1.34564 0.835199 2.1904 0
M  V30 25 H 0.264557 -1.15424 1.66756 0
M  V30 26 H 1.04894 0.533344 1.80638 0
M  V30 27 H 0.446664 0.717364 -0.652795 0
M  V30 28 H -0.0310255 -2.23441 -0.0441447 0
M  V30 29 H 0.0713033 -1.63732 -1.77834 0
M  V30 30 H -1.73897 -0.173739 -1.48531 0
M  V30 31 H -2.20371 -1.76522 -0.885805 0
M  V30 32 H 2.31561 -2.56341 -0.352336 0
M  V30 33 H 4.76616 -2.5417 -0.472339 0
M  V30 34 H 2.45624 1.71692 -0.289659 0
M  V30 35 H 4.76858 2.68779 -1.09504 0
M  V30 36 H 5.77346 2.22563 0.296687 0
M  V30 END ATOM
M  V30 BEGIN BOND
M  V30 1 1 1 2
M  V30 2 1 2 3
M  V30 3 1 3 4
M  V30 4 1 4 5
M  V30 5 1 5 6
M  V30 6 1 6 7
M  V30 7 1 7 8
M  V30 8 1 8 9
M  V30 9 1 7 10
M  V30 10 2 10 11
M  V30 11 1 11 12
M  V30 12 2 12 13
M  V30 13 1 13 14
M  V30 14 2 14 15
M  V30 15 1 14 16
M  V30 16 1 9 4
M  V30 17 1 15 10
M  V30 18 1 1 17
M  V30 19 1 1 18
M  V30 20 1 2 19
M  V30 21 1 2 20
M  V30 22 1 3 21
M  V30 23 1 3 22
M  V30 24 1 5 23
M  V30 25 1 5 24
M  V30 26 1 6 25
M  V30 27 1 6 26
M  V30 28 1 7 27
M  V30 29 1 8 28
M  V30 30 1 8 29
M  V30 31 1 9 30
M  V30 32 1 9 31
M  V30 33 1 11 32
M  V30 34 1 12 33
M  V30 35 1 15 34
M  V30 36 1 16 35
M  V30 37 1 16 36
M  V30 END BOND
M  V30 END CTAB
M  END
