
     RDKit          3D

  0  0  0  0  0  0  0  0  0  0999 V3000
M  V30 BEGIN CTAB
M  V30 COUNTS 33 33 0 0 0
M  V30 BEGIN ATOM
M  V30 1 C -0.813697 -2.40547 -1.81144 0
M  V30 2 C -0.458979 -2.18175 -0.376911 0
M  V30 3 C -0.978995 -0.919109 0.225031 0
M  V30 4 C -2.45452 -0.819436 0.232648 0
M  V30 5 O -3.24651 -1.73508 -0.102052 0
M  V30 6 O -3.0256 0.392938 0.648761 0
M  V30 7 C -4.44129 0.513305 0.668352 0
M  V30 8 C -4.85252 1.89261 1.14469 0
M  V30 9 S -0.222579 0.487967 -0.623938 0
M  V30 10 C 1.5253 0.605779 -0.292494 0
M  V30 11 N 2.19292 1.61067 -0.88111 0
M  V30 12 C 3.51709 1.82289 -0.711543 0
M  V30 13 N 4.17652 2.89539 -1.35327 0
M  V30 14 C 4.18887 0.934981 0.122048 0
M  V30 15 C 3.51534 -0.101489 0.732721 0
M  V30 16 N 2.18978 -0.226198 0.496848 0
M  V30 17 N 4.22194 -0.991992 1.57914 0
M  V30 18 H -0.53129 -3.47151 -2.03665 0
M  V30 19 H -0.228968 -1.73374 -2.48691 0
M  V30 20 H -1.88708 -2.31313 -1.96041 0
M  V30 21 H -0.781263 -3.09338 0.181387 0
M  V30 22 H 0.665493 -2.1407 -0.287695 0
M  V30 23 H -0.671394 -0.887562 1.2988 0
M  V30 24 H -4.8347 0.348073 -0.345257 0
M  V30 25 H -4.8269 -0.218625 1.41107 0
M  V30 26 H -4.12385 2.66257 0.805082 0
M  V30 27 H -5.81864 2.12436 0.652822 0
M  V30 28 H -5.0216 1.8934 2.23237 0
M  V30 29 H 3.91963 3.86384 -1.12154 0
M  V30 30 H 4.90933 2.69883 -2.04753 0
M  V30 31 H 5.25224 1.10173 0.26065 0
M  V30 32 H 3.8838 -1.14211 2.54432 0
M  V30 33 H 5.06214 -1.46803 1.20201 0
M  V30 END ATOM
M  V30 BEGIN BOND
M  V30 1 1 1 2
M  V30 2 1 2 3
M  V30 3 1 3 4
M  V30 4 2 4 5
M  V30 5 1 4 6
M  V30 6 1 6 7
M  V30 7 1 7 8
M  V30 8 1 3 9
M  V30 9 1 9 10
M  V30 10 2 10 11
M  V30 11 1 11 12
M  V30 12 1 12 13
M  V30 13 2 12 14
M  V30 14 1 14 15
M  V30 15 2 15 16
M  V30 16 1 15 17
M  V30 17 1 16 10
M  V30 18 1 1 18
M  V30 19 1 1 19
M  V30 20 1 1 20
M  V30 21 1 2 21
M  V30 22 1 2 22
M  V30 23 1 3 23
M  V30 24 1 7 24
M  V30 25 1 7 25
M  V30 26 1 8 26
M  V30 27 1 8 27
M  V30 28 1 8 28
M  V30 29 1 13 29
M  V30 30 1 13 30
M  V30 31 1 14 31
M  V30 32 1 17 32
M  V30 33 1 17 33
M  V30 END BOND
M  V30 END CTAB
M  END
