
     RDKit          3D

  0  0  0  0  0  0  0  0  0  0999 V3000
M  V30 BEGIN CTAB
M  V30 COUNTS 26 26 0 0 0
M  V30 BEGIN ATOM
M  V30 1 N 4.57348 1.13755 -0.58334 0
M  V30 2 C 3.8419 0.156072 0.15114 0
M  V30 3 C 2.3576 0.249887 -0.0938344 0
M  V30 4 O 2.01144 1.14624 -0.878686 0
M  V30 5 N 1.45876 -0.625721 0.533772 0
M  V30 6 C 0.0622381 -0.686633 0.427446 0
M  V30 7 C -0.58948 -1.67697 1.1772 0
M  V30 8 C -1.94418 -1.83918 1.15979 0
M  V30 9 C -2.68868 -0.991544 0.371754 0
M  V30 10 C -2.11211 0.00109844 -0.388357 0
M  V30 11 C -0.718393 0.136632 -0.344399 0
M  V30 12 C -2.9196 0.920693 -1.24329 0
M  V30 13 N -3.2942 2.08656 -0.464291 0
M  V30 14 H 4.75536 2.02123 -0.0943034 0
M  V30 15 H 5.35912 0.771613 -1.14082 0
M  V30 16 H 4.01143 0.337059 1.23792 0
M  V30 17 H 4.21242 -0.86118 -0.124156 0
M  V30 18 H 1.94749 -1.33923 1.18252 0
M  V30 19 H -0.0378008 -2.37183 1.81661 0
M  V30 20 H -2.45175 -2.6113 1.7444 0
M  V30 21 H -3.78433 -1.07083 0.314556 0
M  V30 22 H -0.276858 0.919679 -0.945466 0
M  V30 23 H -3.84498 0.373789 -1.49803 0
M  V30 24 H -2.34125 1.16426 -2.14126 0
M  V30 25 H -3.33759 1.79056 0.536838 0
M  V30 26 H -4.25004 2.41986 -0.713726 0
M  V30 END ATOM
M  V30 BEGIN BOND
M  V30 1 1 1 2
M  V30 2 1 2 3
M  V30 3 2 3 4
M  V30 4 1 3 5
M  V30 5 1 5 6
M  V30 6 2 6 7
M  V30 7 1 7 8
M  V30 8 2 8 9
M  V30 9 1 9 10
M  V30 10 2 10 11
M  V30 11 1 10 12
M  V30 12 1 12 13
M  V30 13 1 11 6
M  V30 14 1 1 14
M  V30 15 1 1 15
M  V30 16 1 2 16
M  V30 17 1 2 17
M  V30 18 1 5 18
M  V30 19 1 7 19
M  V30 20 1 8 20
M  V30 21 1 9 21
M  V30 22 1 11 22
M  V30 23 1 12 23
M  V30 24 1 12 24
M  V30 25 1 13 25
M  V30 26 1 13 26
M  V30 END BOND
M  V30 END CTAB
M  END
