
     RDKit          3D

  0  0  0  0  0  0  0  0  0  0999 V3000
M  V30 BEGIN CTAB
M  V30 COUNTS 18 19 0 0 0
M  V30 BEGIN ATOM
M  V30 1 N 3.53484 -0.599518 0.228584 0
M  V30 2 C 2.13263 -0.295479 0.147617 0
M  V30 3 N 1.22219 -1.25 -0.11932 0
M  V30 4 C -0.0879634 -1.04282 -0.209277 0
M  V30 5 C -0.542095 0.25277 -0.0127227 0
M  V30 6 N -1.85561 0.491252 -0.0971856 0
M  V30 7 C -2.74854 -0.480279 -0.365565 0
M  V30 8 Br -4.62324 -0.146477 -0.487338 0
M  V30 9 C -2.30943 -1.77531 -0.563487 0
M  V30 10 N -0.987028 -2.00703 -0.476897 0
M  V30 11 C 0.380549 1.25294 0.263902 0
M  V30 12 N -0.140948 2.5624 0.456432 0
M  V30 13 N 1.69075 0.960905 0.338075 0
M  V30 14 H 4.22281 -0.334366 -0.481741 0
M  V30 15 H 3.81471 -1.13268 1.10008 0
M  V30 16 H -3.02004 -2.58724 -0.784283 0
M  V30 17 H -0.0724528 3.29548 -0.28314 0
M  V30 18 H -0.611125 2.83544 1.34627 0
M  V30 END ATOM
M  V30 BEGIN BOND
M  V30 1 1 1 2
M  V30 2 2 2 3
M  V30 3 1 3 4
M  V30 4 2 4 5
M  V30 5 1 5 6
M  V30 6 2 6 7
M  V30 7 1 7 8
M  V30 8 1 7 9
M  V30 9 2 9 10
M  V30 10 1 5 11
M  V30 11 1 11 12
M  V30 12 2 11 13
M  V30 13 1 13 2
M  V30 14 1 10 4
M  V30 15 1 1 14
M  V30 16 1 1 15
M  V30 17 1 9 16
M  V30 18 1 12 17
M  V30 19 1 12 18
M  V30 END BOND
M  V30 END CTAB
M  END
