
     RDKit          3D

  0  0  0  0  0  0  0  0  0  0999 V3000
M  V30 BEGIN CTAB
M  V30 COUNTS 38 38 0 0 0
M  V30 BEGIN ATOM
M  V30 1 N 4.33491 1.31943 -0.0505843 0
M  V30 2 C 4.75184 -0.0408414 -0.421812 0
M  V30 3 C 3.58346 -0.743039 -1.04927 0
M  V30 4 C 2.42239 -0.828947 -0.100117 0
M  V30 5 O 2.61272 -0.322001 1.01182 0
M  V30 6 N 1.2591 -1.45759 -0.544621 0
M  V30 7 C 0.00822307 -1.68491 0.0888807 0
M  V30 8 C -0.753666 -0.438463 0.397694 0
M  V30 9 N -0.0326961 0.406821 1.29261 0
M  V30 10 C -2.05995 -0.794502 1.09939 0
M  V30 11 C -2.73297 0.430296 1.65214 0
M  V30 12 C -3.11766 1.43427 0.625714 0
M  V30 13 C -3.51007 0.837235 -0.697457 0
M  V30 14 C -2.4069 0.132685 -1.40594 0
M  V30 15 C -1.04443 0.376495 -0.853269 0
M  V30 16 H 4.99623 1.70894 0.655646 0
M  V30 17 H 4.29149 1.88385 -0.922228 0
M  V30 18 H 5.0866 -0.556899 0.487312 0
M  V30 19 H 5.57218 0.0276076 -1.13853 0
M  V30 20 H 3.25546 -0.206659 -1.95341 0
M  V30 21 H 3.86857 -1.80146 -1.26021 0
M  V30 22 H 1.28929 -1.85462 -1.56296 0
M  V30 23 H 0.193481 -2.1737 1.1014 0
M  V30 24 H -0.612255 -2.42364 -0.485797 0
M  V30 25 H -0.122518 1.42475 1.09181 0
M  V30 26 H -0.108216 0.156474 2.2865 0
M  V30 27 H -2.7286 -1.3979 0.45576 0
M  V30 28 H -1.77638 -1.43891 1.95814 0
M  V30 29 H -3.63039 0.109975 2.2064 0
M  V30 30 H -2.02737 0.906667 2.36779 0
M  V30 31 H -4.01063 1.97697 1.00561 0
M  V30 32 H -2.33705 2.23655 0.486614 0
M  V30 33 H -3.96348 1.6539 -1.30096 0
M  V30 34 H -4.33278 0.10681 -0.484514 0
M  V30 35 H -2.62017 -0.966945 -1.53471 0
M  V30 36 H -2.40028 0.522827 -2.46723 0
M  V30 37 H -0.894879 1.44628 -0.719798 0
M  V30 38 H -0.302584 0.0322013 -1.6199 0
M  V30 END ATOM
M  V30 BEGIN BOND
M  V30 1 1 1 2
M  V30 2 1 2 3
M  V30 3 1 3 4
M  V30 4 2 4 5
M  V30 5 1 4 6
M  V30 6 1 6 7
M  V30 7 1 7 8
M  V30 8 1 8 9
M  V30 9 1 8 10
M  V30 10 1 10 11
M  V30 11 1 11 12
M  V30 12 1 12 13
M  V30 13 1 13 14
M  V30 14 1 14 15
M  V30 15 1 15 8
M  V30 16 1 1 16
M  V30 17 1 1 17
M  V30 18 1 2 18
M  V30 19 1 2 19
M  V30 20 1 3 20
M  V30 21 1 3 21
M  V30 22 1 6 22
M  V30 23 1 7 23
M  V30 24 1 7 24
M  V30 25 1 9 25
M  V30 26 1 9 26
M  V30 27 1 10 27
M  V30 28 1 10 28
M  V30 29 1 11 29
M  V30 30 1 11 30
M  V30 31 1 12 31
M  V30 32 1 12 32
M  V30 33 1 13 33
M  V30 34 1 13 34
M  V30 35 1 14 35
M  V30 36 1 14 36
M  V30 37 1 15 37
M  V30 38 1 15 38
M  V30 END BOND
M  V30 END CTAB
M  END
