
     RDKit          3D

  0  0  0  0  0  0  0  0  0  0999 V3000
M  V30 BEGIN CTAB
M  V30 COUNTS 52 54 0 0 0
M  V30 BEGIN ATOM
M  V30 1 O -4.56414 -2.5561 -2.50385 0 CHG=-1
M  V30 2 N -5.53504 -2.20143 -1.6023 0 CHG=1
M  V30 3 O -6.64653 -2.75406 -1.70955 0
M  V30 4 C -5.32682 -1.25216 -0.576879 0
M  V30 5 C -4.08886 -0.625032 -0.442891 0
M  V30 6 C -3.8411 0.314175 0.548115 0
M  V30 7 C -2.56371 0.966817 0.760628 0
M  V30 8 O -2.55358 1.69487 1.86361 0
M  V30 9 N -1.38285 0.968242 0.0414096 0
M  V30 10 C -0.259897 1.72823 0.671248 0
M  V30 11 C 1.08183 1.22774 0.263656 0
M  V30 12 N 1.1877 -0.00430574 -0.418969 0
M  V30 13 C -0.0573916 -0.730213 -0.835359 0
M  V30 14 C -1.02394 0.408386 -1.20944 0
M  V30 15 C 2.36547 -0.654693 -0.777912 0
M  V30 16 O 2.18862 -1.82509 -1.40818 0
M  V30 17 C 3.74759 -0.321369 -0.607089 0
M  V30 18 C 4.22379 0.82141 -0.0346098 0
M  V30 19 C 5.59939 1.11019 0.103585 0
M  V30 20 C 6.50887 0.191679 -0.363737 0
M  V30 21 C 6.08664 -0.980508 -0.95178 0
M  V30 22 C 4.75122 -1.21095 -1.06065 0
M  V30 23 N 4.32732 -2.41433 -1.66499 0
M  V30 24 N 7.03448 -1.94756 -1.44198 0 CHG=1
M  V30 25 O 8.17903 -2.05174 -0.952639 0
M  V30 26 O 6.61091 -2.74722 -2.47521 0 CHG=-1
M  V30 27 N 6.04005 2.3214 0.712249 0 CHG=1
M  V30 28 O 5.24625 3.15878 1.13717 0
M  V30 29 O 7.38129 2.58358 0.839233 0 CHG=-1
M  V30 30 C -4.88035 0.625175 1.4317 0
M  V30 31 C -6.10062 0.0128964 1.30771 0
M  V30 32 C -6.32121 -0.921685 0.306504 0
M  V30 33 N -7.16257 0.348779 2.22716 0 CHG=1
M  V30 34 O -8.36483 0.255302 1.91659 0
M  V30 35 O -6.79151 0.781615 3.4748 0 CHG=-1
M  V30 36 N -4.72741 1.58369 2.49021 0
M  V30 37 H -3.30945 -0.917159 -1.12493 0
M  V30 38 H -0.361499 1.71287 1.75385 0
M  V30 39 H -0.397423 2.75665 0.30076 0
M  V30 40 H 1.67738 1.15581 1.23354 0
M  V30 41 H 1.56674 2.00414 -0.4176 0
M  V30 42 H 0.126485 -1.3918 -1.67744 0
M  V30 43 H -0.488583 -1.27411 0.0260419 0
M  V30 44 H -1.75384 0.161823 -1.94596 0
M  V30 45 H -0.351312 1.2126 -1.71727 0
M  V30 46 H 3.61535 1.60543 0.354336 0
M  V30 47 H 7.57898 0.366344 -0.281399 0
M  V30 48 H 4.17792 -2.46834 -2.69001 0
M  V30 49 H 4.16018 -3.26215 -1.09132 0
M  V30 50 H -7.28006 -1.3981 0.213622 0
M  V30 51 H -4.38869 1.23416 3.41372 0
M  V30 52 H -4.94029 2.59731 2.36604 0
M  V30 END ATOM
M  V30 BEGIN BOND
M  V30 1 1 1 2
M  V30 2 2 2 3
M  V30 3 1 2 4
M  V30 4 2 4 5
M  V30 5 1 5 6
M  V30 6 1 6 7
M  V30 7 2 7 8
M  V30 8 1 7 9
M  V30 9 1 9 10
M  V30 10 1 10 11
M  V30 11 1 11 12
M  V30 12 1 12 13
M  V30 13 1 13 14
M  V30 14 1 12 15
M  V30 15 2 15 16
M  V30 16 1 15 17
M  V30 17 2 17 18
M  V30 18 1 18 19
M  V30 19 2 19 20
M  V30 20 1 20 21
M  V30 21 2 21 22
M  V30 22 1 22 23
M  V30 23 1 21 24
M  V30 24 2 24 25
M  V30 25 1 24 26
M  V30 26 1 19 27
M  V30 27 2 27 28
M  V30 28 1 27 29
M  V30 29 2 6 30
M  V30 30 1 30 31
M  V30 31 2 31 32
M  V30 32 1 31 33
M  V30 33 2 33 34
M  V30 34 1 33 35
M  V30 35 1 30 36
M  V30 36 1 32 4
M  V30 37 1 14 9
M  V30 38 1 22 17
M  V30 39 1 5 37
M  V30 40 1 10 38
M  V30 41 1 10 39
M  V30 42 1 11 40
M  V30 43 1 11 41
M  V30 44 1 13 42
M  V30 45 1 13 43
M  V30 46 1 14 44
M  V30 47 1 14 45
M  V30 48 1 18 46
M  V30 49 1 20 47
M  V30 50 1 23 48
M  V30 51 1 23 49
M  V30 52 1 32 50
M  V30 53 1 36 51
M  V30 54 1 36 52
M  V30 END BOND
M  V30 END CTAB
M  END
