
     RDKit          3D

  0  0  0  0  0  0  0  0  0  0999 V3000
M  V30 BEGIN CTAB
M  V30 COUNTS 30 30 0 0 0
M  V30 BEGIN ATOM
M  V30 1 N -6.85945 -1.13688 0.550252 0
M  V30 2 C -5.44984 -1.08298 0.509016 0
M  V30 3 S -4.58865 -1.33516 1.88005 0
M  V30 4 N -4.75179 -0.817159 -0.682479 0
M  V30 5 N -3.35582 -0.762743 -0.728302 0
M  V30 6 C -2.72436 0.255364 -0.250363 0
M  V30 7 C -1.2561 0.286631 -0.311599 0
M  V30 8 C -0.584333 1.38081 0.202387 0
M  V30 9 C 0.792245 1.36783 0.123698 0
M  V30 10 C 1.50958 0.330059 -0.434798 0
M  V30 11 C 0.828961 -0.734859 -0.933628 0
M  V30 12 C -0.564593 -0.765316 -0.875855 0
M  V30 13 C 2.97964 0.422487 -0.465551 0
M  V30 14 N 3.61872 1.41984 0.00141465 0
M  V30 15 N 5.00693 1.55023 -0.00598634 0
M  V30 16 C 5.89501 0.535315 0.429298 0
M  V30 17 S 7.50386 0.781647 0.382546 0
M  V30 18 N 5.4257 -0.723786 0.918579 0
M  V30 19 H -7.46963 -0.692393 -0.169631 0
M  V30 20 H -7.35082 -1.63586 1.32184 0
M  V30 21 H -5.27428 -0.651132 -1.57816 0
M  V30 22 H -3.26494 1.07494 0.189338 0
M  V30 23 H -1.131 2.22259 0.653572 0
M  V30 24 H 1.33271 2.21792 0.522058 0
M  V30 25 H 1.37605 -1.55145 -1.37218 0
M  V30 26 H -1.11965 -1.62238 -1.27694 0
M  V30 27 H 3.54982 -0.386821 -0.901603 0
M  V30 28 H 5.39641 2.4471 -0.352712 0
M  V30 29 H 5.89663 -1.58699 0.596464 0
M  V30 30 H 4.633 -0.806859 1.58274 0
M  V30 END ATOM
M  V30 BEGIN BOND
M  V30 1 1 1 2
M  V30 2 2 2 3
M  V30 3 1 2 4
M  V30 4 1 4 5
M  V30 5 2 5 6
M  V30 6 1 6 7
M  V30 7 2 7 8
M  V30 8 1 8 9
M  V30 9 2 9 10
M  V30 10 1 10 11
M  V30 11 2 11 12
M  V30 12 1 10 13
M  V30 13 2 13 14
M  V30 14 1 14 15
M  V30 15 1 15 16
M  V30 16 2 16 17
M  V30 17 1 16 18
M  V30 18 1 12 7
M  V30 19 1 1 19
M  V30 20 1 1 20
M  V30 21 1 4 21
M  V30 22 1 6 22
M  V30 23 1 8 23
M  V30 24 1 9 24
M  V30 25 1 11 25
M  V30 26 1 12 26
M  V30 27 1 13 27
M  V30 28 1 15 28
M  V30 29 1 18 29
M  V30 30 1 18 30
M  V30 END BOND
M  V30 END CTAB
M  END
