
     RDKit          3D

  0  0  0  0  0  0  0  0  0  0999 V3000
M  V30 BEGIN CTAB
M  V30 COUNTS 50 53 0 0 0
M  V30 BEGIN ATOM
M  V30 1 O 8.67395 -1.5541 -2.60149 0
M  V30 2 C 8.0389 -1.32949 -1.39402 0
M  V30 3 O 8.66175 -1.52539 -0.327141 0
M  V30 4 C 6.62281 -0.85729 -1.34586 0
M  V30 5 O 6.19039 -0.698786 -0.012764 0
M  V30 6 C 4.93596 -0.277105 0.343512 0
M  V30 7 C 4.60225 -0.151533 1.67065 0
M  V30 8 C 3.35718 0.267493 2.05247 0
M  V30 9 C 2.3584 0.590052 1.10644 0
M  V30 10 C 2.68867 0.465374 -0.210249 0
M  V30 11 C 3.97097 0.0343537 -0.571714 0
M  V30 12 C 1.09862 1.00352 1.6564 0
M  V30 13 O 0.993008 0.984398 2.95982 0
M  V30 14 N -0.0802251 1.43981 1.02899 0
M  V30 15 C -1.20312 1.77366 1.92037 0
M  V30 16 C -2.46394 1.06434 1.47791 0
M  V30 17 C -2.67777 1.23403 -0.0108243 0
M  V30 18 C -1.68357 2.22317 -0.576203 0
M  V30 19 C -0.294368 1.60336 -0.391606 0
M  V30 20 O -4.0174 1.63236 -0.205171 0
M  V30 21 C -4.7961 0.461659 -0.101574 0
M  V30 22 C -4.00105 -0.62268 -0.411159 0
M  V30 23 C -2.64801 -0.0975783 -0.725732 0
M  V30 24 C -4.5462 -1.8971 -0.379331 0
M  V30 25 N -3.78525 -3.04253 -0.685147 0
M  V30 26 N -5.84169 -1.99157 -0.0413188 0
M  V30 27 C -6.64141 -0.966436 0.264227 0
M  V30 28 N -6.08829 0.281081 0.227859 0
M  V30 29 N -8.00637 -1.11717 0.615795 0
M  V30 30 H 9.3249 -2.3249 -2.65175 0
M  V30 31 H 5.9864 -1.67941 -1.78366 0
M  V30 32 H 6.49638 0.0901966 -1.88502 0
M  V30 33 H 5.35648 -0.394656 2.42819 0
M  V30 34 H 3.16646 0.343264 3.10305 0
M  V30 35 H 1.98305 0.684148 -0.982844 0
M  V30 36 H 4.24087 -0.0670419 -1.62951 0
M  V30 37 H -0.935741 1.50346 2.95066 0
M  V30 38 H -1.4117 2.85664 1.89925 0
M  V30 39 H -3.34398 1.42736 2.03084 0
M  V30 40 H -2.33537 -0.00789156 1.71054 0
M  V30 41 H -1.80255 3.16848 -0.0572074 0
M  V30 42 H -1.918 2.3578 -1.64148 0
M  V30 43 H 0.457959 2.35454 -0.752693 0
M  V30 44 H -0.308148 0.663046 -0.958331 0
M  V30 45 H -2.54262 0.0987687 -1.81518 0
M  V30 46 H -1.84181 -0.749618 -0.337453 0
M  V30 47 H -3.62876 -3.76212 0.0319441 0
M  V30 48 H -3.38844 -3.15426 -1.62707 0
M  V30 49 H -8.72664 -0.800653 -0.0552412 0
M  V30 50 H -8.24683 -1.53704 1.52837 0
M  V30 END ATOM
M  V30 BEGIN BOND
M  V30 1 1 1 2
M  V30 2 2 2 3
M  V30 3 1 2 4
M  V30 4 1 4 5
M  V30 5 1 5 6
M  V30 6 2 6 7
M  V30 7 1 7 8
M  V30 8 2 8 9
M  V30 9 1 9 10
M  V30 10 2 10 11
M  V30 11 1 9 12
M  V30 12 2 12 13
M  V30 13 1 12 14
M  V30 14 1 14 15
M  V30 15 1 15 16
M  V30 16 1 16 17
M  V30 17 1 17 18
M  V30 18 1 18 19
M  V30 19 1 17 20
M  V30 20 1 20 21
M  V30 21 2 21 22
M  V30 22 1 22 23
M  V30 23 1 22 24
M  V30 24 1 24 25
M  V30 25 2 24 26
M  V30 26 1 26 27
M  V30 27 2 27 28
M  V30 28 1 27 29
M  V30 29 1 11 6
M  V30 30 1 19 14
M  V30 31 1 28 21
M  V30 32 1 23 17
M  V30 33 1 1 30
M  V30 34 1 4 31
M  V30 35 1 4 32
M  V30 36 1 7 33
M  V30 37 1 8 34
M  V30 38 1 10 35
M  V30 39 1 11 36
M  V30 40 1 15 37
M  V30 41 1 15 38
M  V30 42 1 16 39
M  V30 43 1 16 40
M  V30 44 1 18 41
M  V30 45 1 18 42
M  V30 46 1 19 43
M  V30 47 1 19 44
M  V30 48 1 23 45
M  V30 49 1 23 46
M  V30 50 1 25 47
M  V30 51 1 25 48
M  V30 52 1 29 49
M  V30 53 1 29 50
M  V30 END BOND
M  V30 END CTAB
M  END
