
     RDKit          3D

  0  0  0  0  0  0  0  0  0  0999 V3000
M  V30 BEGIN CTAB
M  V30 COUNTS 47 50 0 0 0
M  V30 BEGIN ATOM
M  V30 1 N -6.95847 -1.61511 -0.24118 0
M  V30 2 C -5.80945 -1.51502 -0.302378 0
M  V30 3 C -4.36946 -1.45832 -0.423345 0
M  V30 4 C -3.80822 -2.56288 -1.08137 0
M  V30 5 N -4.66347 -3.5988 -1.53075 0
M  V30 6 N -2.50555 -2.58209 -1.2504 0
M  V30 7 C -1.74004 -1.56178 -0.791215 0
M  V30 8 C -2.17168 -0.433393 -0.129606 0
M  V30 9 C -3.59347 -0.411158 0.042858 0
M  V30 10 C -4.22834 0.683003 0.727484 0
M  V30 11 C -3.89316 2.00943 0.00429 0
M  V30 12 C -5.65614 0.796086 1.05663 0
M  V30 13 C -1.18043 0.404394 0.284444 0
M  V30 14 N -1.2839 1.56982 1.16975 0
M  V30 15 C 0.10482 0.041307 -0.0180496 0
M  V30 16 S -0.0327944 -1.41305 -0.836024 0
M  V30 17 C 1.36615 0.76866 0.272474 0
M  V30 18 O 1.26777 1.84965 0.855615 0
M  V30 19 N 2.57462 0.155257 -0.146208 0
M  V30 20 C 3.83027 0.691438 0.0260823 0
M  V30 21 C 4.0386 1.98218 0.389578 0
M  V30 22 C 5.34533 2.49776 0.490546 0
M  V30 23 C 6.41548 1.72017 0.229783 0
M  V30 24 C 6.24458 0.412457 -0.139109 0
M  V30 25 C 4.9624 -0.101894 -0.240198 0
M  V30 26 C 4.84384 -1.418 -0.602775 0
M  V30 27 C 6.01847 -2.14544 -0.84603 0
M  V30 28 C 7.2713 -1.62076 -0.742306 0
M  V30 29 N 7.35428 -0.321037 -0.382166 0
M  V30 30 H -4.49694 -4.6129 -1.45692 0
M  V30 31 H -5.55817 -3.27163 -1.98697 0
M  V30 32 H -3.69215 0.854512 1.75282 0
M  V30 33 H -3.78985 2.85205 0.692852 0
M  V30 34 H -4.86896 2.32563 -0.562598 0
M  V30 35 H -3.2165 1.89848 -0.825674 0
M  V30 36 H -6.04921 0.0924917 1.81154 0
M  V30 37 H -6.32322 1.07278 0.225575 0
M  V30 38 H -5.78332 1.78415 1.70253 0
M  V30 39 H -1.07208 2.50077 0.772868 0
M  V30 40 H -1.54215 1.38393 2.14867 0
M  V30 41 H 2.44281 -0.777376 -0.635143 0
M  V30 42 H 3.28905 2.72051 0.618375 0
M  V30 43 H 5.50839 3.52852 0.781308 0
M  V30 44 H 7.4386 2.10525 0.30114 0
M  V30 45 H 3.89274 -1.90876 -0.702373 0
M  V30 46 H 5.90303 -3.1942 -1.13255 0
M  V30 47 H 8.17461 -2.17708 -0.92849 0
M  V30 END ATOM
M  V30 BEGIN BOND
M  V30 1 3 1 2
M  V30 2 1 2 3
M  V30 3 2 3 4
M  V30 4 1 4 5
M  V30 5 1 4 6
M  V30 6 2 6 7
M  V30 7 1 7 8
M  V30 8 2 8 9
M  V30 9 1 9 10
M  V30 10 1 10 11
M  V30 11 1 10 12
M  V30 12 1 8 13
M  V30 13 1 13 14
M  V30 14 2 13 15
M  V30 15 1 15 16
M  V30 16 1 15 17
M  V30 17 2 17 18
M  V30 18 1 17 19
M  V30 19 1 19 20
M  V30 20 2 20 21
M  V30 21 1 21 22
M  V30 22 2 22 23
M  V30 23 1 23 24
M  V30 24 2 24 25
M  V30 25 1 25 26
M  V30 26 2 26 27
M  V30 27 1 27 28
M  V30 28 2 28 29
M  V30 29 1 9 3
M  V30 30 1 25 20
M  V30 31 1 16 7
M  V30 32 1 29 24
M  V30 33 1 5 30
M  V30 34 1 5 31
M  V30 35 1 10 32
M  V30 36 1 11 33
M  V30 37 1 11 34
M  V30 38 1 11 35
M  V30 39 1 12 36
M  V30 40 1 12 37
M  V30 41 1 12 38
M  V30 42 1 14 39
M  V30 43 1 14 40
M  V30 44 1 19 41
M  V30 45 1 21 42
M  V30 46 1 22 43
M  V30 47 1 23 44
M  V30 48 1 26 45
M  V30 49 1 27 46
M  V30 50 1 28 47
M  V30 END BOND
M  V30 END CTAB
M  END
