
     RDKit          3D

  0  0  0  0  0  0  0  0  0  0999 V3000
M  V30 BEGIN CTAB
M  V30 COUNTS 46 48 0 0 0
M  V30 BEGIN ATOM
M  V30 1 C 5.49966 -0.670253 -0.077539 0 CFG=1
M  V30 2 N 5.07741 -1.57563 0.960709 0
M  V30 3 C 4.36678 0.0171676 -0.779038 0
M  V30 4 C 3.39685 -0.883324 -1.45981 0
M  V30 5 S 2.50085 -2.00395 -0.351511 0
M  V30 6 C 0.730369 -2.05765 -0.872664 0
M  V30 7 C 0.175893 -0.678883 -0.626726 0 CFG=1
M  V30 8 O -1.17558 -0.567517 -1.02106 0
M  V30 9 C -1.58796 0.60828 -0.363295 0 CFG=2
M  V30 10 C -1.25699 0.277147 1.05329 0 CFG=2
M  V30 11 O -1.11304 1.36671 1.89394 0
M  V30 12 C 0.137475 -0.348773 0.864463 0 CFG=2
M  V30 13 O 1.1634 0.546836 1.07978 0
M  V30 14 N -2.946 0.869119 -0.651959 0
M  V30 15 C -3.33327 1.64264 -1.72052 0
M  V30 16 N -4.66059 1.74706 -1.7785 0
M  V30 17 C -5.19009 1.05739 -0.767733 0
M  V30 18 C -4.10267 0.514431 -0.0750989 0
M  V30 19 N -4.37289 -0.226589 0.984151 0
M  V30 20 C -5.65192 -0.454756 1.38721 0
M  V30 21 N -6.69407 0.074804 0.710811 0
M  V30 22 C -6.50033 0.845218 -0.38307 0
M  V30 23 N -7.6021 1.41502 -1.09048 0
M  V30 24 C 6.51496 0.309997 0.417046 0
M  V30 25 O 6.92006 0.240912 1.73109 0
M  V30 26 O 6.97238 1.17946 -0.390137 0
M  V30 27 H 6.03072 -1.25713 -0.894607 0
M  V30 28 H 4.98855 -2.52513 0.494342 0
M  V30 29 H 5.92794 -1.71114 1.60054 0
M  V30 30 H 3.81528 0.686275 -0.0490657 0
M  V30 31 H 4.78666 0.707346 -1.54546 0
M  V30 32 H 3.99445 -1.55831 -2.14161 0
M  V30 33 H 2.64798 -0.300945 -2.06914 0
M  V30 34 H 0.678062 -2.23649 -1.97826 0
M  V30 35 H 0.210231 -2.80194 -0.271671 0
M  V30 36 H 0.771938 0.0441769 -1.2104 0
M  V30 37 H -0.906566 1.45886 -0.647966 0
M  V30 38 H -1.93554 -0.493609 1.49053 0
M  V30 39 H -1.64948 1.17641 2.7233 0
M  V30 40 H 0.205415 -1.24553 1.50321 0
M  V30 41 H 0.799731 1.36611 1.4858 0
M  V30 42 H -2.62942 2.11207 -2.42328 0
M  V30 43 H -5.89779 -1.0623 2.25568 0
M  V30 44 H -8.29768 0.852156 -1.63375 0
M  V30 45 H -7.77867 2.45758 -1.09845 0
M  V30 46 H 6.96959 1.08668 2.2767 0
M  V30 END ATOM
M  V30 BEGIN BOND
M  V30 1 1 1 2
M  V30 2 1 1 3
M  V30 3 1 3 4
M  V30 4 1 4 5
M  V30 5 1 5 6
M  V30 6 1 6 7
M  V30 7 1 7 8
M  V30 8 1 8 9
M  V30 9 1 9 10
M  V30 10 1 10 11
M  V30 11 1 10 12
M  V30 12 1 12 13
M  V30 13 1 9 14
M  V30 14 1 14 15
M  V30 15 2 15 16
M  V30 16 1 16 17
M  V30 17 2 17 18
M  V30 18 1 18 19
M  V30 19 2 19 20
M  V30 20 1 20 21
M  V30 21 2 21 22
M  V30 22 1 22 23
M  V30 23 1 1 24
M  V30 24 1 24 25
M  V30 25 2 24 26
M  V30 26 1 12 7
M  V30 27 1 18 14
M  V30 28 1 22 17
M  V30 29 1 1 27 CFG=3
M  V30 30 1 2 28
M  V30 31 1 2 29
M  V30 32 1 3 30
M  V30 33 1 3 31
M  V30 34 1 4 32
M  V30 35 1 4 33
M  V30 36 1 6 34
M  V30 37 1 6 35
M  V30 38 1 7 36 CFG=3
M  V30 39 1 9 37 CFG=3
M  V30 40 1 10 38 CFG=1
M  V30 41 1 11 39
M  V30 42 1 12 40 CFG=1
M  V30 43 1 13 41
M  V30 44 1 15 42
M  V30 45 1 20 43
M  V30 46 1 23 44
M  V30 47 1 23 45
M  V30 48 1 25 46
M  V30 END BOND
M  V30 END CTAB
M  END
