
     RDKit          3D

  0  0  0  0  0  0  0  0  0  0999 V3000
M  V30 BEGIN CTAB
M  V30 COUNTS 33 34 0 0 0
M  V30 BEGIN ATOM
M  V30 1 F -5.00792 2.23527 -0.963075 0
M  V30 2 C -4.97658 0.825842 -0.956882 0
M  V30 3 C -3.65152 0.377074 -0.501496 0
M  V30 4 C -2.71578 0.0900298 -1.48924 0
M  V30 5 C -1.43364 -0.313696 -1.19576 0
M  V30 6 N -0.454822 -0.60963 -2.17593 0
M  V30 7 C -1.12085 -0.421618 0.181223 0
M  V30 8 C -2.00074 -0.157461 1.1589 0
M  V30 9 C -3.28585 0.251144 0.80713 0
M  V30 10 N -1.63255 -0.325148 2.51662 0
M  V30 11 O 0.217338 -0.831906 0.362235 0
M  V30 12 C 1.08297 0.35399 0.391112 0
M  V30 13 C 2.49547 0.0492815 0.335369 0
M  V30 14 C 3.34737 1.04776 -0.136471 0
M  V30 15 C 4.71814 0.812103 -0.30615 0
M  V30 16 C 5.18075 -0.440808 0.0106724 0
M  V30 17 C 4.35031 -1.43248 0.477454 0
M  V30 18 C 2.99756 -1.18282 0.644906 0
M  V30 19 F -5.24843 0.420166 -2.24875 0
M  V30 20 F -5.98227 0.386835 -0.14765 0
M  V30 21 H -2.97523 0.174524 -2.54569 0
M  V30 22 H 0.350606 -1.21844 -1.92425 0
M  V30 23 H -0.527568 -0.242104 -3.13595 0
M  V30 24 H -3.9725 0.475193 1.61406 0
M  V30 25 H -1.39356 -1.25674 2.91098 0
M  V30 26 H -1.60933 0.494762 3.16268 0
M  V30 27 H 0.797258 0.905114 -0.525374 0
M  V30 28 H 0.777911 0.990194 1.26736 0
M  V30 29 H 3.01349 2.02163 -0.380124 0
M  V30 30 H 5.37136 1.59419 -0.696736 0
M  V30 31 H 6.24357 -0.66696 -0.0961243 0
M  V30 32 H 4.69679 -2.42626 0.719575 0
M  V30 33 H 2.34826 -1.97904 1.01288 0
M  V30 END ATOM
M  V30 BEGIN BOND
M  V30 1 1 1 2
M  V30 2 1 2 3
M  V30 3 2 3 4
M  V30 4 1 4 5
M  V30 5 1 5 6
M  V30 6 2 5 7
M  V30 7 1 7 8
M  V30 8 2 8 9
M  V30 9 1 8 10
M  V30 10 1 7 11
M  V30 11 1 11 12
M  V30 12 1 12 13
M  V30 13 2 13 14
M  V30 14 1 14 15
M  V30 15 2 15 16
M  V30 16 1 16 17
M  V30 17 2 17 18
M  V30 18 1 2 19
M  V30 19 1 2 20
M  V30 20 1 9 3
M  V30 21 1 18 13
M  V30 22 1 4 21
M  V30 23 1 6 22
M  V30 24 1 6 23
M  V30 25 1 9 24
M  V30 26 1 10 25
M  V30 27 1 10 26
M  V30 28 1 12 27
M  V30 29 1 12 28
M  V30 30 1 14 29
M  V30 31 1 15 30
M  V30 32 1 16 31
M  V30 33 1 17 32
M  V30 34 1 18 33
M  V30 END BOND
M  V30 END CTAB
M  END
