
     RDKit          3D

  0  0  0  0  0  0  0  0  0  0999 V3000
M  V30 BEGIN CTAB
M  V30 COUNTS 54 57 0 0 0
M  V30 BEGIN ATOM
M  V30 1 N 7.75583 -2.1988 0.283848 0
M  V30 2 C 6.43299 -2.15726 -0.245523 0 CFG=2
M  V30 3 C 6.39358 -1.44517 -1.58315 0
M  V30 4 C 5.29232 -0.421389 -1.49927 0
M  V30 5 C 4.44991 -0.89418 -0.335154 0 CFG=1
M  V30 6 C 5.47545 -1.38257 0.639196 0
M  V30 7 N 3.64972 0.183297 0.224906 0
M  V30 8 C 2.25037 0.0832259 0.284253 0
M  V30 9 O 1.66314 -0.962039 -0.157462 0
M  V30 10 C 1.386 1.11766 0.830163 0
M  V30 11 C 1.92674 2.18204 1.502 0
M  V30 12 C 1.08126 3.1451 2.00139 0
M  V30 13 C -0.305815 3.04576 1.8302 0
M  V30 14 C -0.865008 1.99136 1.16289 0
M  V30 15 C -0.00513207 1.0378 0.6702 0
M  V30 16 C -2.31857 1.86621 0.971191 0
M  V30 17 C -3.23353 2.77582 1.43374 0
M  V30 18 C -4.58621 2.60029 1.22052 0
M  V30 19 N -5.52728 3.54201 1.69985 0
M  V30 20 N -4.97649 1.50847 0.544643 0
M  V30 21 C -4.11317 0.593131 0.0745222 0
M  V30 22 N -2.80792 0.787254 0.294873 0
M  V30 23 N -4.60095 -0.552497 -0.640993 0
M  V30 24 C -6.02235 -0.71916 -0.854202 0
M  V30 25 C -6.48054 -2.12578 -0.544487 0
M  V30 26 O -5.42616 -3.02095 -0.493373 0
M  V30 27 C -4.58717 -2.75029 -1.57359 0
M  V30 28 C -3.72312 -1.5713 -1.17142 0
M  V30 29 H 8.26064 -1.3189 0.163918 0
M  V30 30 H 8.27857 -2.95554 -0.158269 0
M  V30 31 H 6.06748 -3.19788 -0.314435 0
M  V30 32 H 7.36924 -0.95651 -1.72746 0
M  V30 33 H 6.21174 -2.14071 -2.4197 0
M  V30 34 H 5.68321 0.591877 -1.243 0
M  V30 35 H 4.66294 -0.398535 -2.41489 0
M  V30 36 H 3.83037 -1.73292 -0.677149 0
M  V30 37 H 5.07491 -2.01116 1.44602 0
M  V30 38 H 6.0502 -0.529882 1.05961 0
M  V30 39 H 4.13464 1.02855 0.57758 0
M  V30 40 H 3.01402 2.25598 1.63692 0
M  V30 41 H 1.51603 3.97698 2.52734 0
M  V30 42 H -0.941719 3.82227 2.23657 0
M  V30 43 H -0.405405 0.194765 0.14046 0
M  V30 44 H -2.88707 3.65189 1.97878 0
M  V30 45 H -5.884 3.41924 2.68031 0
M  V30 46 H -5.82729 4.3137 1.06772 0
M  V30 47 H -6.22135 -0.453774 -1.91229 0
M  V30 48 H -6.56217 0.0220463 -0.237652 0
M  V30 49 H -7.0444 -2.08051 0.416895 0
M  V30 50 H -7.17932 -2.43142 -1.3594 0
M  V30 51 H -3.9896 -3.64921 -1.82603 0
M  V30 52 H -5.19627 -2.51389 -2.48064 0
M  V30 53 H -3.00437 -1.94367 -0.413827 0
M  V30 54 H -3.18893 -1.22081 -2.08695 0
M  V30 END ATOM
M  V30 BEGIN BOND
M  V30 1 1 1 2
M  V30 2 1 2 3
M  V30 3 1 3 4
M  V30 4 1 4 5
M  V30 5 1 5 6
M  V30 6 1 5 7
M  V30 7 1 7 8
M  V30 8 2 8 9
M  V30 9 1 8 10
M  V30 10 2 10 11
M  V30 11 1 11 12
M  V30 12 2 12 13
M  V30 13 1 13 14
M  V30 14 2 14 15
M  V30 15 1 14 16
M  V30 16 2 16 17
M  V30 17 1 17 18
M  V30 18 1 18 19
M  V30 19 2 18 20
M  V30 20 1 20 21
M  V30 21 2 21 22
M  V30 22 1 21 23
M  V30 23 1 23 24
M  V30 24 1 24 25
M  V30 25 1 25 26
M  V30 26 1 26 27
M  V30 27 1 27 28
M  V30 28 1 6 2
M  V30 29 1 15 10
M  V30 30 1 22 16
M  V30 31 1 28 23
M  V30 32 1 1 29
M  V30 33 1 1 30
M  V30 34 1 2 31 CFG=3
M  V30 35 1 3 32
M  V30 36 1 3 33
M  V30 37 1 4 34
M  V30 38 1 4 35
M  V30 39 1 5 36 CFG=3
M  V30 40 1 6 37
M  V30 41 1 6 38
M  V30 42 1 7 39
M  V30 43 1 11 40
M  V30 44 1 12 41
M  V30 45 1 13 42
M  V30 46 1 15 43
M  V30 47 1 17 44
M  V30 48 1 19 45
M  V30 49 1 19 46
M  V30 50 1 24 47
M  V30 51 1 24 48
M  V30 52 1 25 49
M  V30 53 1 25 50
M  V30 54 1 27 51
M  V30 55 1 27 52
M  V30 56 1 28 53
M  V30 57 1 28 54
M  V30 END BOND
M  V30 END CTAB
M  END
