
     RDKit          3D

  0  0  0  0  0  0  0  0  0  0999 V3000
M  V30 BEGIN CTAB
M  V30 COUNTS 27 27 0 0 0
M  V30 BEGIN ATOM
M  V30 1 N 3.40655 -0.190118 -1.45511 0
M  V30 2 N 2.77682 -0.212324 -0.269663 0
M  V30 3 C 2.14536 -0.234575 0.919125 0
M  V30 4 O 2.61717 0.164685 2.03824 0
M  V30 5 C 0.725112 -0.771618 1.0406 0
M  V30 6 C -0.224545 0.268352 0.513458 0
M  V30 7 C -0.0762201 1.57563 0.916547 0
M  V30 8 C -0.903651 2.57667 0.499375 0
M  V30 9 C -1.92214 2.23272 -0.361511 0
M  V30 10 C -2.09104 0.924239 -0.7807 0
M  V30 11 C -1.24712 -0.0576883 -0.347007 0
M  V30 12 O -1.38893 -1.36443 -0.744237 0
M  V30 13 C -2.36122 -1.88757 -1.60914 0
M  V30 14 N 0.381351 -0.907473 2.43268 0
M  V30 15 H 4.18694 -0.918991 -1.51594 0
M  V30 16 H 2.73162 -0.521855 -2.1979 0
M  V30 17 H 3.8905 0.39577 0.249618 0
M  V30 18 H 0.594109 -1.69028 0.464399 0
M  V30 19 H 0.726732 1.86959 1.60778 0
M  V30 20 H -0.799604 3.60197 0.812806 0
M  V30 21 H -2.5758 3.03421 -0.677847 0
M  V30 22 H -2.92364 0.756065 -1.463 0
M  V30 23 H -2.00428 -1.8174 -2.67924 0
M  V30 24 H -3.26643 -1.26082 -1.51231 0
M  V30 25 H -2.53608 -2.95984 -1.38113 0
M  V30 26 H -0.623031 -0.830631 2.63929 0
M  V30 27 H 0.761478 -1.77429 2.86082 0
M  V30 END ATOM
M  V30 BEGIN BOND
M  V30 1 1 1 2
M  V30 2 1 2 3
M  V30 3 2 3 4
M  V30 4 1 3 5
M  V30 5 1 5 6
M  V30 6 2 6 7
M  V30 7 1 7 8
M  V30 8 2 8 9
M  V30 9 1 9 10
M  V30 10 2 10 11
M  V30 11 1 11 12
M  V30 12 1 12 13
M  V30 13 1 5 14
M  V30 14 1 11 6
M  V30 15 1 1 15
M  V30 16 1 1 16
M  V30 17 1 2 17
M  V30 18 1 5 18
M  V30 19 1 7 19
M  V30 20 1 8 20
M  V30 21 1 9 21
M  V30 22 1 10 22
M  V30 23 1 13 23
M  V30 24 1 13 24
M  V30 25 1 13 25
M  V30 26 1 14 26
M  V30 27 1 14 27
M  V30 END BOND
M  V30 END CTAB
M  END
