
     RDKit          3D

  0  0  0  0  0  0  0  0  0  0999 V3000
M  V30 BEGIN CTAB
M  V30 COUNTS 48 48 0 0 0
M  V30 BEGIN ATOM
M  V30 1 C -1.47838 4.07532 1.14907 0
M  V30 2 O -0.35549 4.14411 0.380176 0
M  V30 3 C 0.192244 2.92674 -0.0137001 0
M  V30 4 C -0.768982 2.16246 -0.835305 0
M  V30 5 C -0.283712 0.860404 -1.40429 0
M  V30 6 N 0.143693 -0.137296 -0.508266 0
M  V30 7 C 1.49639 -0.269798 -0.120069 0
M  V30 8 C 2.45343 -0.395782 -1.11478 0
M  V30 9 C 3.75999 -0.543831 -0.701451 0
M  V30 10 C 4.16374 -0.572669 0.614488 0
M  V30 11 N 3.18549 -0.444381 1.55887 0
M  V30 12 C 1.90282 -0.299203 1.19468 0
M  V30 13 C 5.58424 -0.739501 1.03638 0
M  V30 14 N 6.3622 -0.95807 -0.147138 0
M  V30 15 C -0.77504 -1.08886 0.0221941 0
M  V30 16 O -0.381504 -2.01906 0.808331 0
M  V30 17 O -2.12222 -1.09455 -0.253064 0
M  V30 18 C -3.07502 -2.0017 0.239252 0
M  V30 19 C -3.21815 -2.01255 1.73169 0
M  V30 20 C -4.42662 -1.62558 -0.351815 0
M  V30 21 C -2.7857 -3.42425 -0.200313 0
M  V30 22 N -1.1021 3.02454 -1.99243 0
M  V30 23 H -1.74866 5.13967 1.39643 0
M  V30 24 H -2.34853 3.62782 0.578078 0
M  V30 25 H -1.38432 3.51376 2.07773 0
M  V30 26 H 0.330015 2.34522 0.949127 0
M  V30 27 H 1.15313 3.14583 -0.485851 0
M  V30 28 H -1.71584 2.0007 -0.297497 0
M  V30 29 H -1.12039 0.514919 -2.08583 0
M  V30 30 H 0.538532 1.14352 -2.13026 0
M  V30 31 H 2.18437 -0.377287 -2.17753 0
M  V30 32 H 4.52596 -0.644405 -1.46541 0
M  V30 33 H 1.09247 -0.193362 1.93307 0
M  V30 34 H 5.67609 -1.6276 1.69278 0
M  V30 35 H 5.96317 0.165468 1.55593 0
M  V30 36 H 6.39934 -0.143968 -0.775365 0
M  V30 37 H 6.09005 -1.80525 -0.6662 0
M  V30 38 H -3.56774 -3.04263 2.03571 0
M  V30 39 H -2.3006 -1.78584 2.27822 0
M  V30 40 H -4.0654 -1.3475 2.01528 0
M  V30 41 H -4.97316 -0.907582 0.297178 0
M  V30 42 H -4.23856 -1.103 -1.30961 0
M  V30 43 H -5.04413 -2.55364 -0.517087 0
M  V30 44 H -3.76136 -3.95754 -0.274097 0
M  V30 45 H -2.33596 -3.47209 -1.21777 0
M  V30 46 H -2.17919 -3.98835 0.5423 0
M  V30 47 H -1.47595 2.38823 -2.71928 0
M  V30 48 H -0.164638 3.39842 -2.32254 0
M  V30 END ATOM
M  V30 BEGIN BOND
M  V30 1 1 1 2
M  V30 2 1 2 3
M  V30 3 1 3 4
M  V30 4 1 4 5
M  V30 5 1 5 6
M  V30 6 1 6 7
M  V30 7 2 7 8
M  V30 8 1 8 9
M  V30 9 2 9 10
M  V30 10 1 10 11
M  V30 11 2 11 12
M  V30 12 1 10 13
M  V30 13 1 13 14
M  V30 14 1 6 15
M  V30 15 2 15 16
M  V30 16 1 15 17
M  V30 17 1 17 18
M  V30 18 1 18 19
M  V30 19 1 18 20
M  V30 20 1 18 21
M  V30 21 1 4 22
M  V30 22 1 12 7
M  V30 23 1 1 23
M  V30 24 1 1 24
M  V30 25 1 1 25
M  V30 26 1 3 26
M  V30 27 1 3 27
M  V30 28 1 4 28
M  V30 29 1 5 29
M  V30 30 1 5 30
M  V30 31 1 8 31
M  V30 32 1 9 32
M  V30 33 1 12 33
M  V30 34 1 13 34
M  V30 35 1 13 35
M  V30 36 1 14 36
M  V30 37 1 14 37
M  V30 38 1 19 38
M  V30 39 1 19 39
M  V30 40 1 19 40
M  V30 41 1 20 41
M  V30 42 1 20 42
M  V30 43 1 20 43
M  V30 44 1 21 44
M  V30 45 1 21 45
M  V30 46 1 21 46
M  V30 47 1 22 47
M  V30 48 1 22 48
M  V30 END BOND
M  V30 END CTAB
M  END
