
     RDKit          3D

  0  0  0  0  0  0  0  0  0  0999 V3000
M  V30 BEGIN CTAB
M  V30 COUNTS 25 26 0 0 0
M  V30 BEGIN ATOM
M  V30 1 N 4.05545 1.19373 -0.178867 0
M  V30 2 C 2.90045 0.53553 -0.683887 0
M  V30 3 C 1.97 -0.215608 0.041537 0
M  V30 4 N 2.0426 -0.440971 1.43647 0
M  V30 5 N 1.01396 -0.681505 -0.780913 0
M  V30 6 C -0.151401 -1.50543 -0.467 0
M  V30 7 C -1.31266 -0.632998 -0.13667 0
M  V30 8 C -2.12571 -0.241694 -1.20512 0
M  V30 9 C -3.20663 0.564348 -0.927528 0
M  V30 10 C -3.50913 0.992822 0.355551 0
M  V30 11 C -2.68005 0.582485 1.37791 0
M  V30 12 C -1.58765 -0.22346 1.1489 0
M  V30 13 N 1.33871 -0.232013 -1.99445 0
M  V30 14 N 2.44714 0.484279 -1.94361 0
M  V30 15 H 4.57234 0.853765 0.662685 0
M  V30 16 H 4.40471 2.04843 -0.66217 0
M  V30 17 H 1.44468 0.0503395 2.12594 0
M  V30 18 H 2.73328 -1.13595 1.77729 0
M  V30 19 H -0.405221 -2.17935 -1.32018 0
M  V30 20 H 0.0777409 -2.17244 0.38564 0
M  V30 21 H -1.93777 -0.544436 -2.21928 0
M  V30 22 H -3.88335 0.907927 -1.71055 0
M  V30 23 H -4.35753 1.62624 0.577914 0
M  V30 24 H -2.8872 0.897239 2.3834 0
M  V30 25 H -0.956772 -0.531277 1.95699 0
M  V30 END ATOM
M  V30 BEGIN BOND
M  V30 1 1 1 2
M  V30 2 2 2 3
M  V30 3 1 3 4
M  V30 4 1 3 5
M  V30 5 1 5 6
M  V30 6 1 6 7
M  V30 7 2 7 8
M  V30 8 1 8 9
M  V30 9 2 9 10
M  V30 10 1 10 11
M  V30 11 2 11 12
M  V30 12 1 5 13
M  V30 13 2 13 14
M  V30 14 1 14 2
M  V30 15 1 12 7
M  V30 16 1 1 15
M  V30 17 1 1 16
M  V30 18 1 4 17
M  V30 19 1 4 18
M  V30 20 1 6 19
M  V30 21 1 6 20
M  V30 22 1 8 21
M  V30 23 1 9 22
M  V30 24 1 10 23
M  V30 25 1 11 24
M  V30 26 1 12 25
M  V30 END BOND
M  V30 END CTAB
M  END
