
     RDKit          3D

  0  0  0  0  0  0  0  0  0  0999 V3000
M  V30 BEGIN CTAB
M  V30 COUNTS 52 54 0 0 0
M  V30 BEGIN ATOM
M  V30 1 C 5.92888 -0.636289 -1.80456 0
M  V30 2 C 5.57021 -1.65887 -0.786019 0
M  V30 3 C 4.12468 -1.86298 -0.557329 0
M  V30 4 C 3.33439 -0.750203 -0.0223045 0
M  V30 5 C 3.2487 0.515152 -0.818849 0
M  V30 6 C 2.33242 1.50633 -0.0878963 0
M  V30 7 O 1.04039 0.969587 0.0699916 0
M  V30 8 C 0.071698 1.71338 0.71253 0
M  V30 9 C 0.360559 2.97033 1.19588 0
M  V30 10 C -0.609707 3.71332 1.83962 0
M  V30 11 C -1.86103 3.1598 1.97938 0
M  V30 12 C -2.12936 1.89429 1.4855 0
M  V30 13 C -1.17409 1.14459 0.843301 0
M  V30 14 C -1.43694 -0.196439 0.304309 0
M  V30 15 C -1.38507 -1.25803 1.30257 0
M  V30 16 C -2.38765 -2.09474 1.47355 0
M  V30 17 N -2.3085 -3.13952 2.47233 0
M  V30 18 O -3.5661 -2.07238 0.758496 0
M  V30 19 C -3.73769 -1.10947 -0.219862 0
M  V30 20 C -2.71968 -0.215013 -0.435196 0
M  V30 21 C -2.95094 0.73646 -1.43794 0
M  V30 22 C -4.12785 0.749309 -2.14225 0
M  V30 23 C -5.12998 -0.162094 -1.902 0
M  V30 24 C -4.93157 -1.10542 -0.926083 0
M  V30 25 N -6.35965 -0.170506 -2.61527 0
M  V30 26 C -0.234655 -1.46116 2.16612 0
M  V30 27 N 0.700277 -1.61121 2.84745 0
M  V30 28 H 6.77352 -1.07549 -2.43584 0
M  V30 29 H 5.11386 -0.368493 -2.50263 0
M  V30 30 H 6.40604 0.274359 -1.33352 0
M  V30 31 H 6.08062 -1.38163 0.190816 0
M  V30 32 H 6.02344 -2.67362 -1.04777 0
M  V30 33 H 3.9836 -2.7587 0.141337 0
M  V30 34 H 3.62259 -2.18777 -1.5388 0
M  V30 35 H 3.65529 -0.530964 1.03685 0
M  V30 36 H 2.25009 -1.0714 0.1256 0
M  V30 37 H 4.25287 1.01555 -0.77862 0
M  V30 38 H 2.95268 0.372546 -1.84776 0
M  V30 39 H 2.75875 1.65667 0.921389 0
M  V30 40 H 2.34668 2.47285 -0.613004 0
M  V30 41 H 1.3549 3.41795 1.08851 0
M  V30 42 H -0.367054 4.70657 2.2171 0
M  V30 43 H -2.6181 3.73989 2.48196 0
M  V30 44 H -3.1236 1.48768 1.61213 0
M  V30 45 H -0.6627 -0.466101 -0.490445 0
M  V30 46 H -2.16828 -4.11003 2.1286 0
M  V30 47 H -2.39115 -2.902 3.48256 0
M  V30 48 H -2.21344 1.46647 -1.66876 0
M  V30 49 H -4.29408 1.50327 -2.92683 0
M  V30 50 H -5.71828 -1.83812 -0.722323 0
M  V30 51 H -6.48531 -0.544931 -3.57433 0
M  V30 52 H -7.19467 0.227216 -2.14306 0
M  V30 END ATOM
M  V30 BEGIN BOND
M  V30 1 1 1 2
M  V30 2 1 2 3
M  V30 3 1 3 4
M  V30 4 1 4 5
M  V30 5 1 5 6
M  V30 6 1 6 7
M  V30 7 1 7 8
M  V30 8 2 8 9
M  V30 9 1 9 10
M  V30 10 2 10 11
M  V30 11 1 11 12
M  V30 12 2 12 13
M  V30 13 1 13 14
M  V30 14 1 14 15
M  V30 15 2 15 16
M  V30 16 1 16 17
M  V30 17 1 16 18
M  V30 18 1 18 19
M  V30 19 2 19 20
M  V30 20 1 20 21
M  V30 21 2 21 22
M  V30 22 1 22 23
M  V30 23 2 23 24
M  V30 24 1 23 25
M  V30 25 1 15 26
M  V30 26 3 26 27
M  V30 27 1 13 8
M  V30 28 1 20 14
M  V30 29 1 24 19
M  V30 30 1 1 28
M  V30 31 1 1 29
M  V30 32 1 1 30
M  V30 33 1 2 31
M  V30 34 1 2 32
M  V30 35 1 3 33
M  V30 36 1 3 34
M  V30 37 1 4 35
M  V30 38 1 4 36
M  V30 39 1 5 37
M  V30 40 1 5 38
M  V30 41 1 6 39
M  V30 42 1 6 40
M  V30 43 1 9 41
M  V30 44 1 10 42
M  V30 45 1 11 43
M  V30 46 1 12 44
M  V30 47 1 14 45
M  V30 48 1 17 46
M  V30 49 1 17 47
M  V30 50 1 21 48
M  V30 51 1 22 49
M  V30 52 1 24 50
M  V30 53 1 25 51
M  V30 54 1 25 52
M  V30 END BOND
M  V30 END CTAB
M  END
