
     RDKit          3D

  0  0  0  0  0  0  0  0  0  0999 V3000
M  V30 BEGIN CTAB
M  V30 COUNTS 27 27 0 0 0
M  V30 BEGIN ATOM
M  V30 1 C -3.49241 0.742661 -0.386942 0
M  V30 2 C -2.05366 0.624706 -0.0439256 0
M  V30 3 C -1.28298 1.76874 -0.111754 0
M  V30 4 C 0.0746622 1.64972 0.213525 0
M  V30 5 C 0.602535 0.438482 0.5822 0
M  V30 6 C -0.211904 -0.708211 0.641167 0
M  V30 7 C -1.54672 -0.593306 0.32208 0
M  V30 8 N -2.40544 -1.735 0.370221 0
M  V30 9 C 0.292457 -2.02985 1.02819 0
M  V30 10 N 1.95722 0.28529 0.934147 0
M  V30 11 S 3.2434 0.982956 0.0709432 0
M  V30 12 O 2.80117 2.18822 -0.681634 0
M  V30 13 O 4.42873 1.29251 0.944384 0
M  V30 14 N 3.828 -0.163561 -1.1147 0
M  V30 15 H -4.07756 -0.152137 -0.135665 0
M  V30 16 H -3.65709 1.07542 -1.42835 0
M  V30 17 H -3.89868 1.56885 0.262327 0
M  V30 18 H -1.68603 2.73092 -0.401472 0
M  V30 19 H 0.627645 2.5697 0.156769 0
M  V30 20 H -2.67055 -2.17793 -0.536679 0
M  V30 21 H -2.77666 -2.14484 1.24379 0
M  V30 22 H 1.35878 -2.07884 1.24499 0
M  V30 23 H -0.0343995 -2.75319 0.244256 0
M  V30 24 H -0.276776 -2.3378 1.9503 0
M  V30 25 H 2.20493 -0.307931 1.80122 0
M  V30 26 H 4.19399 -1.01874 -0.655253 0
M  V30 27 H 4.45734 0.283145 -1.78882 0
M  V30 END ATOM
M  V30 BEGIN BOND
M  V30 1 1 1 2
M  V30 2 2 2 3
M  V30 3 1 3 4
M  V30 4 2 4 5
M  V30 5 1 5 6
M  V30 6 2 6 7
M  V30 7 1 7 8
M  V30 8 1 6 9
M  V30 9 1 5 10
M  V30 10 1 10 11
M  V30 11 2 11 12
M  V30 12 2 11 13
M  V30 13 1 11 14
M  V30 14 1 7 2
M  V30 15 1 1 15
M  V30 16 1 1 16
M  V30 17 1 1 17
M  V30 18 1 3 18
M  V30 19 1 4 19
M  V30 20 1 8 20
M  V30 21 1 8 21
M  V30 22 1 9 22
M  V30 23 1 9 23
M  V30 24 1 9 24
M  V30 25 1 10 25
M  V30 26 1 14 26
M  V30 27 1 14 27
M  V30 END BOND
M  V30 END CTAB
M  END
