
     RDKit          3D

  0  0  0  0  0  0  0  0  0  0999 V3000
M  V30 BEGIN CTAB
M  V30 COUNTS 33 33 0 0 0
M  V30 BEGIN ATOM
M  V30 1 C 3.25556 1.01345 0.0240284 0
M  V30 2 C 1.81666 0.90534 0.605026 0
M  V30 3 C 1.12076 -0.14667 -0.124041 0
M  V30 4 C -0.246195 -0.587239 0.161955 0
M  V30 5 C -1.39775 0.279647 0.156922 0
M  V30 6 C -1.42227 1.55768 0.619588 0
M  V30 7 N -2.55601 2.29272 0.716571 0
M  V30 8 C -3.75227 1.82943 0.365091 0
M  V30 9 C -3.79116 0.5303 -0.113615 0
M  V30 10 C -2.66246 -0.241114 -0.223045 0
M  V30 11 N -2.72079 -1.53635 -0.763029 0
M  V30 12 N -0.184211 -1.32096 1.46478 0
M  V30 13 C 1.34826 0.0291619 -1.63001 0
M  V30 14 C 1.99064 -1.42911 0.184387 0
M  V30 15 H 3.95115 0.555107 0.739197 0
M  V30 16 H 3.56865 2.07665 -0.0686351 0
M  V30 17 H 3.31179 0.481895 -0.922963 0
M  V30 18 H 1.95864 0.788448 1.68999 0
M  V30 19 H 1.42479 1.93633 0.356282 0
M  V30 20 H -0.43853 -1.45392 -0.558686 0
M  V30 21 H -0.559547 2.05258 0.974949 0
M  V30 22 H -4.66349 2.4609 0.455903 0
M  V30 23 H -4.78255 0.149107 -0.413006 0
M  V30 24 H -2.99544 -1.65558 -1.75876 0
M  V30 25 H -2.48984 -2.3555 -0.197049 0
M  V30 26 H 0.539648 -0.959243 2.08215 0
M  V30 27 H -0.359131 -2.31269 1.39166 0
M  V30 28 H 0.409746 -0.250235 -2.1925 0
M  V30 29 H 2.12188 -0.639643 -2.04026 0
M  V30 30 H 1.62575 1.06301 -1.88261 0
M  V30 31 H 1.3618 -2.31108 0.117943 0
M  V30 32 H 2.88097 -1.44834 -0.445256 0
M  V30 33 H 2.33494 -1.35409 1.22703 0
M  V30 END ATOM
M  V30 BEGIN BOND
M  V30 1 1 1 2
M  V30 2 1 2 3
M  V30 3 1 3 4
M  V30 4 1 4 5
M  V30 5 2 5 6
M  V30 6 1 6 7
M  V30 7 2 7 8
M  V30 8 1 8 9
M  V30 9 2 9 10
M  V30 10 1 10 11
M  V30 11 1 4 12
M  V30 12 1 3 13
M  V30 13 1 3 14
M  V30 14 1 10 5
M  V30 15 1 1 15
M  V30 16 1 1 16
M  V30 17 1 1 17
M  V30 18 1 2 18
M  V30 19 1 2 19
M  V30 20 1 4 20
M  V30 21 1 6 21
M  V30 22 1 8 22
M  V30 23 1 9 23
M  V30 24 1 11 24
M  V30 25 1 11 25
M  V30 26 1 12 26
M  V30 27 1 12 27
M  V30 28 1 13 28
M  V30 29 1 13 29
M  V30 30 1 13 30
M  V30 31 1 14 31
M  V30 32 1 14 32
M  V30 33 1 14 33
M  V30 END BOND
M  V30 END CTAB
M  END
