
     RDKit          3D

  0  0  0  0  0  0  0  0  0  0999 V3000
M  V30 BEGIN CTAB
M  V30 COUNTS 24 25 0 0 0
M  V30 BEGIN ATOM
M  V30 1 N 3.7113 -1.24894 -0.641525 0
M  V30 2 C 2.42871 -0.711141 -0.37528 0
M  V30 3 N 1.28325 -1.39369 -0.519582 0
M  V30 4 C 0.0947693 -0.843812 -0.25592 0
M  V30 5 C 0.0648863 0.463619 0.175773 0
M  V30 6 C -1.22482 1.13377 0.486003 0
M  V30 7 C -2.38108 0.407211 -0.167521 0
M  V30 8 C -2.34658 -1.06402 0.149089 0
M  V30 9 C -1.11143 -1.67904 -0.446154 0
M  V30 10 C 1.2252 1.18868 0.333006 0
M  V30 11 N 1.22154 2.54858 0.780121 0
M  V30 12 N 2.38424 0.574224 0.0501815 0
M  V30 13 H 4.22062 -1.8156 0.0562769 0
M  V30 14 H 4.134 -1.05723 -1.56893 0
M  V30 15 H -1.26094 2.18086 0.101744 0
M  V30 16 H -1.36917 1.07371 1.57966 0
M  V30 17 H -3.32939 0.824356 0.223205 0
M  V30 18 H -2.33635 0.515564 -1.2639 0
M  V30 19 H -3.22211 -1.54086 -0.32952 0
M  V30 20 H -2.41068 -1.22116 1.24366 0
M  V30 21 H -1.26666 -1.79413 -1.53752 0
M  V30 22 H -0.91751 -2.6653 0.0534211 0
M  V30 23 H 0.484067 3.18399 0.433182 0
M  V30 24 H 1.92414 2.94036 1.44054 0
M  V30 END ATOM
M  V30 BEGIN BOND
M  V30 1 1 1 2
M  V30 2 2 2 3
M  V30 3 1 3 4
M  V30 4 2 4 5
M  V30 5 1 5 6
M  V30 6 1 6 7
M  V30 7 1 7 8
M  V30 8 1 8 9
M  V30 9 1 5 10
M  V30 10 1 10 11
M  V30 11 2 10 12
M  V30 12 1 12 2
M  V30 13 1 9 4
M  V30 14 1 1 13
M  V30 15 1 1 14
M  V30 16 1 6 15
M  V30 17 1 6 16
M  V30 18 1 7 17
M  V30 19 1 7 18
M  V30 20 1 8 19
M  V30 21 1 8 20
M  V30 22 1 9 21
M  V30 23 1 9 22
M  V30 24 1 11 23
M  V30 25 1 11 24
M  V30 END BOND
M  V30 END CTAB
M  END
