
     RDKit          3D

  0  0  0  0  0  0  0  0  0  0999 V3000
M  V30 BEGIN CTAB
M  V30 COUNTS 44 47 0 0 0
M  V30 BEGIN ATOM
M  V30 1 N -2.23713 4.87659 0.445241 0
M  V30 2 C -0.82098 4.70836 0.336526 0
M  V30 3 N 0.046324 5.72783 0.359033 0
M  V30 4 N 1.35173 5.581 0.259859 0
M  V30 5 C 1.88695 4.36431 0.127642 0
M  V30 6 C 1.0387 3.27952 0.0987156 0
M  V30 7 C -0.329243 3.4166 0.201311 0
M  V30 8 N -1.15705 2.35836 0.173011 0
M  V30 9 C -0.630607 1.13083 0.0406583 0
M  V30 10 C -1.50366 -0.0320857 0.00236951 0
M  V30 11 C -2.30009 -0.417045 1.05431 0
M  V30 12 C -3.12658 -1.53181 0.986369 0
M  V30 13 C -3.14134 -2.27035 -0.179677 0
M  V30 14 C -2.35794 -1.9126 -1.24832 0
M  V30 15 C -1.53694 -0.783787 -1.14616 0
M  V30 16 C -4.02614 -3.47723 -0.274526 0
M  V30 17 C 0.727708 0.929502 -0.0658638 0
M  V30 18 N 1.51981 2.01296 -0.0333948 0
M  V30 19 C 1.35738 -0.372187 -0.207801 0
M  V30 20 C 2.11204 -0.644115 -1.33438 0
M  V30 21 C 2.73526 -1.85552 -1.52696 0
M  V30 22 C 2.62107 -2.84893 -0.582579 0
M  V30 23 C 1.87309 -2.61662 0.561792 0
M  V30 24 C 1.25877 -1.38165 0.721044 0
M  V30 25 C 3.27373 -4.17332 -0.737753 0
M  V30 26 N 3.27157 4.1499 0.0171416 0
M  V30 27 H -2.88088 4.5874 -0.343241 0
M  V30 28 H -2.70491 5.28146 1.28111 0
M  V30 29 H -2.30336 0.154509 1.98775 0
M  V30 30 H -3.75938 -1.84883 1.80433 0
M  V30 31 H -2.38636 -2.5093 -2.15658 0
M  V30 32 H -0.948852 -0.560654 -2.02745 0
M  V30 33 H -5.05071 -3.25644 0.0843133 0
M  V30 34 H -3.61228 -4.27664 0.353408 0
M  V30 35 H -4.11437 -3.80494 -1.32552 0
M  V30 36 H 2.20349 0.1327 -2.07594 0
M  V30 37 H 3.31739 -2.05561 -2.40472 0
M  V30 38 H 1.78455 -3.4066 1.30861 0
M  V30 39 H 0.686799 -1.22812 1.61474 0
M  V30 40 H 3.34828 -4.49258 -1.79867 0
M  V30 41 H 4.28343 -4.16746 -0.247174 0
M  V30 42 H 2.66941 -4.90954 -0.171952 0
M  V30 43 H 3.70865 4.06489 -0.912821 0
M  V30 44 H 3.85266 4.07728 0.865204 0
M  V30 END ATOM
M  V30 BEGIN BOND
M  V30 1 1 1 2
M  V30 2 2 2 3
M  V30 3 1 3 4
M  V30 4 2 4 5
M  V30 5 1 5 6
M  V30 6 2 6 7
M  V30 7 1 7 8
M  V30 8 2 8 9
M  V30 9 1 9 10
M  V30 10 2 10 11
M  V30 11 1 11 12
M  V30 12 2 12 13
M  V30 13 1 13 14
M  V30 14 2 14 15
M  V30 15 1 13 16
M  V30 16 1 9 17
M  V30 17 2 17 18
M  V30 18 1 17 19
M  V30 19 2 19 20
M  V30 20 1 20 21
M  V30 21 2 21 22
M  V30 22 1 22 23
M  V30 23 2 23 24
M  V30 24 1 22 25
M  V30 25 1 5 26
M  V30 26 1 7 2
M  V30 27 1 15 10
M  V30 28 1 24 19
M  V30 29 1 18 6
M  V30 30 1 1 27
M  V30 31 1 1 28
M  V30 32 1 11 29
M  V30 33 1 12 30
M  V30 34 1 14 31
M  V30 35 1 15 32
M  V30 36 1 16 33
M  V30 37 1 16 34
M  V30 38 1 16 35
M  V30 39 1 20 36
M  V30 40 1 21 37
M  V30 41 1 23 38
M  V30 42 1 24 39
M  V30 43 1 25 40
M  V30 44 1 25 41
M  V30 45 1 25 42
M  V30 46 1 26 43
M  V30 47 1 26 44
M  V30 END BOND
M  V30 END CTAB
M  END
