
     RDKit          3D

  0  0  0  0  0  0  0  0  0  0999 V3000
M  V30 BEGIN CTAB
M  V30 COUNTS 55 57 0 0 0
M  V30 BEGIN ATOM
M  V30 1 C 11.2815 0.198242 0.110577 0
M  V30 2 C 10.1572 1.2034 0.206478 0
M  V30 3 O 8.93424 0.491487 0.233617 0
M  V30 4 C 7.69303 1.10627 0.31842 0
M  V30 5 O 7.64753 2.35191 0.373918 0
M  V30 6 C 6.4741 0.301953 0.341401 0
M  V30 7 C 6.38763 -1.07336 0.286543 0
M  V30 8 N 5.09231 -1.4095 0.333182 0
M  V30 9 N 4.37689 -0.293185 0.414736 0
M  V30 10 C 5.18506 0.784646 0.422839 0
M  V30 11 N 4.819 2.15632 0.498866 0
M  V30 12 C 2.95684 -0.293779 0.481524 0
M  V30 13 C 2.24342 0.586562 1.28918 0
M  V30 14 C 0.875263 0.555343 1.32642 0
M  V30 15 C 0.155609 -0.366074 0.550422 0
M  V30 16 C 0.880574 -1.22156 -0.235969 0
M  V30 17 C 2.258 -1.19565 -0.278286 0
M  V30 18 C -1.30499 -0.36963 0.6143 0
M  V30 19 O -1.86241 0.499011 1.32255 0
M  V30 20 N -2.08763 -1.3049 -0.0849688 0
M  V30 21 C -3.52823 -1.35693 -0.0647132 0
M  V30 22 C -4.19613 -0.113055 -0.588147 0
M  V30 23 C -5.66111 -0.197555 -0.561667 0
M  V30 24 C -6.3286 0.227105 0.567289 0
M  V30 25 C -7.71799 0.162623 0.630192 0
M  V30 26 C -8.45116 -0.321163 -0.421166 0
M  V30 27 C -7.80097 -0.745434 -1.54642 0
M  V30 28 C -6.41677 -0.681313 -1.60939 0
M  V30 29 S -10.2072 -0.413971 -0.369236 0
M  V30 30 O -10.635 -0.643923 1.06673 0
M  V30 31 O -10.6366 -1.64327 -1.14286 0
M  V30 32 N -10.9491 1.00738 -0.955536 0
M  V30 33 H 10.9315 -0.743635 0.580793 0
M  V30 34 H 11.5698 -0.0100805 -0.939247 0
M  V30 35 H 12.1731 0.532646 0.714101 0
M  V30 36 H 10.1843 1.95007 -0.611046 0
M  V30 37 H 10.3007 1.72878 1.19386 0
M  V30 38 H 7.27394 -1.70351 0.21778 0
M  V30 39 H 4.1405 2.52293 -0.197458 0
M  V30 40 H 5.18519 2.82523 1.20821 0
M  V30 41 H 2.80694 1.3073 1.89622 0
M  V30 42 H 0.308896 1.24879 1.96283 0
M  V30 43 H 0.365649 -1.95331 -0.856134 0
M  V30 44 H 2.75944 -1.90347 -0.92417 0
M  V30 45 H -1.59141 -2.01735 -0.662532 0
M  V30 46 H -3.86551 -1.61309 0.962061 0
M  V30 47 H -3.85828 -2.1883 -0.717886 0
M  V30 48 H -3.90197 0.739507 0.0488224 0
M  V30 49 H -3.79847 0.128561 -1.60679 0
M  V30 50 H -5.81625 0.624849 1.44586 0
M  V30 51 H -8.26245 0.494242 1.51545 0
M  V30 52 H -8.39872 -1.12835 -2.37583 0
M  V30 53 H -5.94074 -1.02329 -2.50883 0
M  V30 54 H -11.8647 0.71444 -1.40893 0
M  V30 55 H -10.3357 1.47902 -1.65369 0
M  V30 END ATOM
M  V30 BEGIN BOND
M  V30 1 1 1 2
M  V30 2 1 2 3
M  V30 3 1 3 4
M  V30 4 2 4 5
M  V30 5 1 4 6
M  V30 6 1 6 7
M  V30 7 2 7 8
M  V30 8 1 8 9
M  V30 9 1 9 10
M  V30 10 1 10 11
M  V30 11 1 9 12
M  V30 12 2 12 13
M  V30 13 1 13 14
M  V30 14 2 14 15
M  V30 15 1 15 16
M  V30 16 2 16 17
M  V30 17 1 15 18
M  V30 18 2 18 19
M  V30 19 1 18 20
M  V30 20 1 20 21
M  V30 21 1 21 22
M  V30 22 1 22 23
M  V30 23 2 23 24
M  V30 24 1 24 25
M  V30 25 2 25 26
M  V30 26 1 26 27
M  V30 27 2 27 28
M  V30 28 1 26 29
M  V30 29 2 29 30
M  V30 30 2 29 31
M  V30 31 1 29 32
M  V30 32 2 10 6
M  V30 33 1 17 12
M  V30 34 1 28 23
M  V30 35 1 1 33
M  V30 36 1 1 34
M  V30 37 1 1 35
M  V30 38 1 2 36
M  V30 39 1 2 37
M  V30 40 1 7 38
M  V30 41 1 11 39
M  V30 42 1 11 40
M  V30 43 1 13 41
M  V30 44 1 14 42
M  V30 45 1 16 43
M  V30 46 1 17 44
M  V30 47 1 20 45
M  V30 48 1 21 46
M  V30 49 1 21 47
M  V30 50 1 22 48
M  V30 51 1 22 49
M  V30 52 1 24 50
M  V30 53 1 25 51
M  V30 54 1 27 52
M  V30 55 1 28 53
M  V30 56 1 32 54
M  V30 57 1 32 55
M  V30 END BOND
M  V30 END CTAB
M  END
