
     RDKit          3D

  0  0  0  0  0  0  0  0  0  0999 V3000
M  V30 BEGIN CTAB
M  V30 COUNTS 51 54 0 0 0
M  V30 BEGIN ATOM
M  V30 1 N 7.63062 -0.269491 0.307851 0
M  V30 2 C 6.3029 0.0872467 -0.11727 0
M  V30 3 C 5.30052 -1.03789 -0.0140677 0
M  V30 4 C 4.40071 -0.111885 0.758052 0
M  V30 5 C 5.51771 0.906281 0.887782 0
M  V30 6 C 3.26447 0.332375 -0.0782682 0
M  V30 7 C 1.95517 0.30977 0.348057 0
M  V30 8 C 0.982573 0.748685 -0.520472 0
M  V30 9 N 1.28002 1.19644 -1.76848 0
M  V30 10 C 2.57063 1.20438 -2.15143 0
M  V30 11 N 3.51209 0.78284 -1.31935 0
M  V30 12 N 2.91074 1.66899 -3.45513 0
M  V30 13 N -0.388726 0.745512 -0.127669 0
M  V30 14 C -1.4368 1.21112 -1.02563 0
M  V30 15 C -2.41228 0.0475255 -1.16071 0
M  V30 16 N -2.92117 -0.225522 0.149371 0
M  V30 17 C -2.21441 0.0800508 1.37501 0
M  V30 18 C -0.74705 0.275414 1.17612 0
M  V30 19 C -4.19444 -0.832109 0.275249 0
M  V30 20 C -4.233 -2.11327 0.833592 0
M  V30 21 C -5.43194 -2.77788 0.983997 0
M  V30 22 C -6.6157 -2.19269 0.587074 0
M  V30 23 C -6.57997 -0.931767 0.0374625 0
M  V30 24 C -5.36339 -0.265064 -0.111607 0
M  V30 25 C -5.35946 1.0958 -0.698468 0
M  V30 26 H 7.97565 -1.13077 -0.158525 0
M  V30 27 H 7.74764 -0.299987 1.33001 0
M  V30 28 H 6.33131 0.608456 -1.09018 0
M  V30 29 H 5.62646 -1.91188 0.588822 0
M  V30 30 H 4.93918 -1.3372 -1.01872 0
M  V30 31 H 4.06816 -0.458262 1.74804 0
M  V30 32 H 5.97063 0.920425 1.89834 0
M  V30 33 H 5.24364 1.92491 0.533372 0
M  V30 34 H 1.74202 -0.0496508 1.34324 0
M  V30 35 H 3.53757 2.51086 -3.49951 0
M  V30 36 H 2.5551 1.19668 -4.3052 0
M  V30 37 H -1.00219 1.4735 -2.00428 0
M  V30 38 H -1.98424 2.04751 -0.565539 0
M  V30 39 H -3.1801 0.19479 -1.91248 0
M  V30 40 H -1.7733 -0.847861 -1.43067 0
M  V30 41 H -2.6858 0.96104 1.86974 0
M  V30 42 H -2.35234 -0.771075 2.07397 0
M  V30 43 H -0.1912 -0.692864 1.3318 0
M  V30 44 H -0.349186 0.985276 1.93299 0
M  V30 45 H -3.30499 -2.5819 1.14909 0
M  V30 46 H -5.39005 -3.77153 1.42553 0
M  V30 47 H -7.54211 -2.72997 0.71359 0
M  V30 48 H -7.51087 -0.468111 -0.276193 0
M  V30 49 H -5.43517 0.98791 -1.8038 0
M  V30 50 H -6.28392 1.61868 -0.37661 0
M  V30 51 H -4.4817 1.68616 -0.425238 0
M  V30 END ATOM
M  V30 BEGIN BOND
M  V30 1 1 1 2
M  V30 2 1 2 3
M  V30 3 1 3 4
M  V30 4 1 4 5
M  V30 5 1 4 6
M  V30 6 2 6 7
M  V30 7 1 7 8
M  V30 8 2 8 9
M  V30 9 1 9 10
M  V30 10 2 10 11
M  V30 11 1 10 12
M  V30 12 1 8 13
M  V30 13 1 13 14
M  V30 14 1 14 15
M  V30 15 1 15 16
M  V30 16 1 16 17
M  V30 17 1 17 18
M  V30 18 1 16 19
M  V30 19 2 19 20
M  V30 20 1 20 21
M  V30 21 2 21 22
M  V30 22 1 22 23
M  V30 23 2 23 24
M  V30 24 1 24 25
M  V30 25 1 5 2
M  V30 26 1 11 6
M  V30 27 1 18 13
M  V30 28 1 24 19
M  V30 29 1 1 26
M  V30 30 1 1 27
M  V30 31 1 2 28
M  V30 32 1 3 29
M  V30 33 1 3 30
M  V30 34 1 4 31
M  V30 35 1 5 32
M  V30 36 1 5 33
M  V30 37 1 7 34
M  V30 38 1 12 35
M  V30 39 1 12 36
M  V30 40 1 14 37
M  V30 41 1 14 38
M  V30 42 1 15 39
M  V30 43 1 15 40
M  V30 44 1 17 41
M  V30 45 1 17 42
M  V30 46 1 18 43
M  V30 47 1 18 44
M  V30 48 1 20 45
M  V30 49 1 21 46
M  V30 50 1 22 47
M  V30 51 1 23 48
M  V30 52 1 25 49
M  V30 53 1 25 50
M  V30 54 1 25 51
M  V30 END BOND
M  V30 END CTAB
M  END
