
     RDKit          3D

  0  0  0  0  0  0  0  0  0  0999 V3000
M  V30 BEGIN CTAB
M  V30 COUNTS 23 24 0 0 0
M  V30 BEGIN ATOM
M  V30 1 N -2.11597 2.85352 0.745729 0
M  V30 2 C -1.63939 1.57093 0.389578 0
M  V30 3 C -2.52531 0.568719 0.0543842 0
M  V30 4 C -2.07073 -0.686064 -0.29459 0
M  V30 5 N -2.97503 -1.722 -0.640573 0
M  V30 6 C -0.696563 -0.913572 -0.299468 0
M  V30 7 C 0.204569 0.0655767 0.0296209 0
M  V30 8 C -0.264437 1.29803 0.371366 0
M  V30 9 C 1.65411 -0.19672 0.0178958 0
M  V30 10 C 2.31061 -1.3564 -0.29397 0
M  V30 11 C 3.64503 -1.34312 -0.229748 0
M  V30 12 C 4.2476 -0.172626 0.142202 0
M  V30 13 S 2.9261 0.87575 0.391233 0
M  V30 14 Br 6.11123 0.231564 0.345461 0
M  V30 15 H -1.80423 3.68391 0.22011 0
M  V30 16 H -2.77526 2.95862 1.53105 0
M  V30 17 H -3.61196 0.746607 0.0576477 0
M  V30 18 H -3.15454 -1.92869 -1.63727 0
M  V30 19 H -3.46591 -2.28333 0.0757618 0
M  V30 20 H -0.359339 -1.89268 -0.57256 0
M  V30 21 H 0.376667 2.1072 0.638632 0
M  V30 22 H 1.70682 -2.24168 -0.581979 0
M  V30 23 H 4.27595 -2.22353 -0.460513 0
M  V30 END ATOM
M  V30 BEGIN BOND
M  V30 1 1 1 2
M  V30 2 2 2 3
M  V30 3 1 3 4
M  V30 4 1 4 5
M  V30 5 2 4 6
M  V30 6 1 6 7
M  V30 7 2 7 8
M  V30 8 1 7 9
M  V30 9 2 9 10
M  V30 10 1 10 11
M  V30 11 2 11 12
M  V30 12 1 12 13
M  V30 13 1 12 14
M  V30 14 1 8 2
M  V30 15 1 13 9
M  V30 16 1 1 15
M  V30 17 1 1 16
M  V30 18 1 3 17
M  V30 19 1 5 18
M  V30 20 1 5 19
M  V30 21 1 6 20
M  V30 22 1 8 21
M  V30 23 1 10 22
M  V30 24 1 11 23
M  V30 END BOND
M  V30 END CTAB
M  END
