
     RDKit          3D

  0  0  0  0  0  0  0  0  0  0999 V3000
M  V30 BEGIN CTAB
M  V30 COUNTS 18 17 0 0 0
M  V30 BEGIN ATOM
M  V30 1 C 2.47413 -1.17997 -0.0142908 0
M  V30 2 C 2.01365 -0.236993 1.0561 0
M  V30 3 O 0.700706 0.210059 0.894106 0
M  V30 4 C 0.348865 0.90793 -0.249153 0
M  V30 5 O 1.25419 1.10476 -1.09843 0
M  V30 6 N -0.964672 1.39689 -0.490592 0
M  V30 7 C -2.02797 0.735727 -0.233192 0
M  V30 8 N -3.30004 1.26951 -0.492816 0
M  V30 9 N -1.91065 -0.557741 0.323786 0
M  V30 10 H 3.01634 -0.618324 -0.83028 0
M  V30 11 H 3.26756 -1.84285 0.434979 0
M  V30 12 H 1.68053 -1.81321 -0.432133 0
M  V30 13 H 2.06502 -0.798246 2.03254 0
M  V30 14 H 2.76138 0.593836 1.12235 0
M  V30 15 H -3.42856 2.05595 -1.17953 0
M  V30 16 H -4.18588 0.938012 -0.0395531 0
M  V30 17 H -2.23601 -1.38937 -0.251796 0
M  V30 18 H -1.5286 -0.775971 1.26164 0
M  V30 END ATOM
M  V30 BEGIN BOND
M  V30 1 1 1 2
M  V30 2 1 2 3
M  V30 3 1 3 4
M  V30 4 2 4 5
M  V30 5 1 4 6
M  V30 6 2 6 7
M  V30 7 1 7 8
M  V30 8 1 7 9
M  V30 9 1 1 10
M  V30 10 1 1 11
M  V30 11 1 1 12
M  V30 12 1 2 13
M  V30 13 1 2 14
M  V30 14 1 8 15
M  V30 15 1 8 16
M  V30 16 1 9 17
M  V30 17 1 9 18
M  V30 END BOND
M  V30 END CTAB
M  END
