
     RDKit          3D

  0  0  0  0  0  0  0  0  0  0999 V3000
M  V30 BEGIN CTAB
M  V30 COUNTS 36 36 0 0 0
M  V30 BEGIN ATOM
M  V30 1 C -2.51902 3.15387 -0.171951 0
M  V30 2 C -3.09181 1.80691 -0.298251 0
M  V30 3 O -4.34209 1.73018 -0.4996 0
M  V30 4 N -2.31091 0.6471 -0.203845 0
M  V30 5 C -0.911599 0.736993 0.0770016 0
M  V30 6 O -0.350972 1.86871 0.139416 0
M  V30 7 N -0.115717 -0.395057 0.293955 0
M  V30 8 C 1.25264 -0.480504 0.569952 0
M  V30 9 C 2.11654 0.577381 0.686545 0
M  V30 10 C 3.48402 0.413566 0.966254 0
M  V30 11 C 4.36197 1.59515 1.07923 0
M  V30 12 C 4.02539 -0.831082 1.13805 0
M  V30 13 C 3.1822 -1.9109 1.02669 0
M  V30 14 C 1.85215 -1.74469 0.754281 0
M  V30 15 N 1.01234 -2.87692 0.646086 0
M  V30 16 C -3.00587 -0.612327 -0.347327 0
M  V30 17 C -3.16469 -1.07029 -1.75839 0
M  V30 18 N -1.88112 -1.22126 -2.38312 0
M  V30 19 H -3.33181 3.92785 -0.292718 0
M  V30 20 H -2.0611 3.36973 0.826128 0
M  V30 21 H -1.78472 3.41205 -0.958868 0
M  V30 22 H -0.631722 -1.32482 0.260727 0
M  V30 23 H 1.77095 1.6054 0.564598 0
M  V30 24 H 4.01392 2.3872 0.359927 0
M  V30 25 H 5.41184 1.36897 0.810608 0
M  V30 26 H 4.37128 2.02831 2.09624 0
M  V30 27 H 5.09123 -0.974076 1.35685 0
M  V30 28 H 3.63831 -2.89713 1.1682 0
M  V30 29 H 0.459245 -2.99859 -0.21044 0
M  V30 30 H 0.967297 -3.56272 1.4269 0
M  V30 31 H -4.06953 -0.465243 0.0313166 0
M  V30 32 H -2.60809 -1.39332 0.324188 0
M  V30 33 H -3.6328 -2.09909 -1.77858 0
M  V30 34 H -3.86243 -0.445225 -2.34752 0
M  V30 35 H -1.91156 -1.26474 -3.41369 0
M  V30 36 H -1.42376 -2.06138 -1.93882 0
M  V30 END ATOM
M  V30 BEGIN BOND
M  V30 1 1 1 2
M  V30 2 2 2 3
M  V30 3 1 2 4
M  V30 4 1 4 5
M  V30 5 2 5 6
M  V30 6 1 5 7
M  V30 7 1 7 8
M  V30 8 2 8 9
M  V30 9 1 9 10
M  V30 10 1 10 11
M  V30 11 2 10 12
M  V30 12 1 12 13
M  V30 13 2 13 14
M  V30 14 1 14 15
M  V30 15 1 4 16
M  V30 16 1 16 17
M  V30 17 1 17 18
M  V30 18 1 14 8
M  V30 19 1 1 19
M  V30 20 1 1 20
M  V30 21 1 1 21
M  V30 22 1 7 22
M  V30 23 1 9 23
M  V30 24 1 11 24
M  V30 25 1 11 25
M  V30 26 1 11 26
M  V30 27 1 12 27
M  V30 28 1 13 28
M  V30 29 1 15 29
M  V30 30 1 15 30
M  V30 31 1 16 31
M  V30 32 1 16 32
M  V30 33 1 17 33
M  V30 34 1 17 34
M  V30 35 1 18 35
M  V30 36 1 18 36
M  V30 END BOND
M  V30 END CTAB
M  END
