
     RDKit          3D

  0  0  0  0  0  0  0  0  0  0999 V3000
M  V30 BEGIN CTAB
M  V30 COUNTS 23 23 0 0 0
M  V30 BEGIN ATOM
M  V30 1 Cl 3.95155 1.77287 0.532608 0
M  V30 2 C 3.42793 0.358327 -0.361422 0
M  V30 3 C 4.26295 -0.206919 -1.24956 0
M  V30 4 C 2.08179 -0.168697 -0.109346 0
M  V30 5 N 1.04377 0.795589 -0.396305 0
M  V30 6 C -0.331171 0.495955 -0.222726 0
M  V30 7 C -0.720479 -0.7396 0.230455 0
M  V30 8 C -2.04917 -1.08978 0.419461 0
M  V30 9 N -2.44684 -2.36775 0.887916 0
M  V30 10 N -2.96488 -0.13096 0.12832 0
M  V30 11 C -2.61301 1.08855 -0.317366 0
M  V30 12 N -1.30058 1.38807 -0.487777 0
M  V30 13 N -3.63356 2.02083 -0.593953 0
M  V30 14 H 5.24523 0.210148 -1.40686 0
M  V30 15 H 3.97668 -1.0723 -1.81379 0
M  V30 16 H 1.95414 -0.513504 0.955521 0
M  V30 17 H 1.94622 -1.08133 -0.752688 0
M  V30 18 H 1.32024 1.73522 -0.73997 0
M  V30 19 H 0.0338312 -1.49761 0.459117 0
M  V30 20 H -1.92919 -3.21245 0.577067 0
M  V30 21 H -3.24409 -2.50711 1.53832 0
M  V30 22 H -4.23279 2.37437 0.166888 0
M  V30 23 H -3.77856 2.34807 -1.56086 0
M  V30 END ATOM
M  V30 BEGIN BOND
M  V30 1 1 1 2
M  V30 2 2 2 3 CFG=2
M  V30 3 1 2 4
M  V30 4 1 4 5
M  V30 5 1 5 6
M  V30 6 2 6 7
M  V30 7 1 7 8
M  V30 8 1 8 9
M  V30 9 2 8 10
M  V30 10 1 10 11
M  V30 11 2 11 12
M  V30 12 1 11 13
M  V30 13 1 12 6
M  V30 14 1 3 14
M  V30 15 1 3 15
M  V30 16 1 4 16
M  V30 17 1 4 17
M  V30 18 1 5 18
M  V30 19 1 7 19
M  V30 20 1 9 20
M  V30 21 1 9 21
M  V30 22 1 13 22
M  V30 23 1 13 23
M  V30 END BOND
M  V30 END CTAB
M  END
