
     RDKit          3D

  0  0  0  0  0  0  0  0  0  0999 V3000
M  V30 BEGIN CTAB
M  V30 COUNTS 45 48 0 0 0
M  V30 BEGIN ATOM
M  V30 1 C 8.74535 0.632448 0.680775 0
M  V30 2 C 7.69289 -0.0762353 -0.148248 0
M  V30 3 S 7.89288 -1.23212 -1.38656 0
M  V30 4 C 6.24915 -1.48961 -1.76289 0
M  V30 5 C 5.62021 -0.640502 -0.881885 0
M  V30 6 N 6.38432 0.0522824 -0.0870934 0
M  V30 7 C 4.12593 -0.524538 -0.845976 0
M  V30 8 C 3.34339 -1.26137 -1.6873 0
M  V30 9 C 1.95377 -1.13458 -1.63371 0
M  V30 10 C 1.36705 -0.264002 -0.730334 0
M  V30 11 C 2.13598 0.491669 0.1304 0
M  V30 12 C 3.49745 0.327152 0.0346334 0
M  V30 13 C 1.24121 1.33423 0.986009 0
M  V30 14 C -0.0601758 0.619375 0.863538 0
M  V30 15 N -0.00718433 0.0552904 -0.469538 0
M  V30 16 C -1.08064 -0.161556 -1.3803 0
M  V30 17 O -0.869989 -0.668068 -2.5083 0
M  V30 18 C -2.43879 0.21979 -0.971837 0
M  V30 19 S -3.21172 -1.19841 -0.124898 0
M  V30 20 C -4.86785 -0.769449 0.382006 0
M  V30 21 N -5.09797 -0.214554 1.58346 0
M  V30 22 C -6.35043 0.108484 1.96648 0
M  V30 23 N -6.62069 0.697756 3.23391 0
M  V30 24 C -7.41234 -0.138562 1.10236 0
M  V30 25 C -7.17441 -0.703426 -0.119535 0
M  V30 26 N -5.89433 -1.00199 -0.438998 0
M  V30 27 N -8.23622 -0.972537 -1.03275 0
M  V30 28 H 8.99616 0.0484772 1.57763 0
M  V30 29 H 8.35031 1.65341 0.926047 0
M  V30 30 H 9.60093 0.794254 -0.00620207 0
M  V30 31 H 5.78127 -2.15638 -2.51178 0
M  V30 32 H 3.78362 -1.94041 -2.39311 0
M  V30 33 H 1.34957 -1.71736 -2.29829 0
M  V30 34 H 4.12054 0.906976 0.697187 0
M  V30 35 H 1.24704 2.37306 0.669965 0
M  V30 36 H 1.58539 1.25594 2.05302 0
M  V30 37 H -0.157715 -0.181935 1.63689 0
M  V30 38 H -0.92739 1.32558 0.980277 0
M  V30 39 H -2.49642 1.07536 -0.299751 0
M  V30 40 H -3.08981 0.448866 -1.86186 0
M  V30 41 H -6.00393 0.487499 4.04489 0
M  V30 42 H -7.42486 1.34181 3.38242 0
M  V30 43 H -8.41211 0.112496 1.39185 0
M  V30 44 H -9.17012 -0.541559 -0.905491 0
M  V30 45 H -8.05929 -1.61391 -1.83708 0
M  V30 END ATOM
M  V30 BEGIN BOND
M  V30 1 1 1 2
M  V30 2 1 2 3
M  V30 3 1 3 4
M  V30 4 2 4 5
M  V30 5 1 5 6
M  V30 6 1 5 7
M  V30 7 2 7 8
M  V30 8 1 8 9
M  V30 9 2 9 10
M  V30 10 1 10 11
M  V30 11 2 11 12
M  V30 12 1 11 13
M  V30 13 1 13 14
M  V30 14 1 14 15
M  V30 15 1 15 16
M  V30 16 2 16 17
M  V30 17 1 16 18
M  V30 18 1 18 19
M  V30 19 1 19 20
M  V30 20 2 20 21
M  V30 21 1 21 22
M  V30 22 1 22 23
M  V30 23 2 22 24
M  V30 24 1 24 25
M  V30 25 2 25 26
M  V30 26 1 25 27
M  V30 27 2 6 2
M  V30 28 1 12 7
M  V30 29 1 26 20
M  V30 30 1 15 10
M  V30 31 1 1 28
M  V30 32 1 1 29
M  V30 33 1 1 30
M  V30 34 1 4 31
M  V30 35 1 8 32
M  V30 36 1 9 33
M  V30 37 1 12 34
M  V30 38 1 13 35
M  V30 39 1 13 36
M  V30 40 1 14 37
M  V30 41 1 14 38
M  V30 42 1 18 39
M  V30 43 1 18 40
M  V30 44 1 23 41
M  V30 45 1 23 42
M  V30 46 1 24 43
M  V30 47 1 27 44
M  V30 48 1 27 45
M  V30 END BOND
M  V30 END CTAB
M  END
