
     RDKit          3D

  0  0  0  0  0  0  0  0  0  0999 V3000
M  V30 BEGIN CTAB
M  V30 COUNTS 24 24 0 0 0
M  V30 BEGIN ATOM
M  V30 1 F -3.73529 -0.691311 1.55707 0
M  V30 2 C -3.55067 -0.942086 0.226152 0
M  V30 3 C -2.04943 -1.08169 -0.0456055 0
M  V30 4 C -1.42401 0.236323 0.3613 0
M  V30 5 C 0.0437434 0.241777 0.149263 0
M  V30 6 N 0.887437 -0.749072 -0.108762 0
M  V30 7 N 2.11788 -0.298766 -0.225518 0
M  V30 8 C 2.08187 1.0222 -0.0394073 0
M  V30 9 N 0.78353 1.36529 0.195842 0
M  V30 10 N 3.14873 1.95432 -0.0664686 0
M  V30 11 C 3.34249 -1.04969 -0.50591 0
M  V30 12 N -2.09644 1.28448 -0.349182 0
M  V30 13 F -4.2051 -2.12719 -0.101362 0
M  V30 14 H -3.9938 -0.163308 -0.415834 0
M  V30 15 H -1.93584 -1.2333 -1.14444 0
M  V30 16 H -1.63508 -1.92743 0.532937 0
M  V30 17 H -1.68457 0.367564 1.45225 0
M  V30 18 H 3.94527 1.86922 0.595291 0
M  V30 19 H 3.14062 2.7347 -0.753852 0
M  V30 20 H 4.08773 -0.458256 -1.03705 0
M  V30 21 H 2.99724 -1.93372 -1.11707 0
M  V30 22 H 3.72131 -1.48407 0.440744 0
M  V30 23 H -1.49305 2.1249 -0.466134 0
M  V30 24 H -2.49458 0.939123 -1.26061 0
M  V30 END ATOM
M  V30 BEGIN BOND
M  V30 1 1 1 2
M  V30 2 1 2 3
M  V30 3 1 3 4
M  V30 4 1 4 5
M  V30 5 2 5 6
M  V30 6 1 6 7
M  V30 7 1 7 8
M  V30 8 2 8 9
M  V30 9 1 8 10
M  V30 10 1 7 11
M  V30 11 1 4 12
M  V30 12 1 2 13
M  V30 13 1 9 5
M  V30 14 1 2 14
M  V30 15 1 3 15
M  V30 16 1 3 16
M  V30 17 1 4 17
M  V30 18 1 10 18
M  V30 19 1 10 19
M  V30 20 1 11 20
M  V30 21 1 11 21
M  V30 22 1 11 22
M  V30 23 1 12 23
M  V30 24 1 12 24
M  V30 END BOND
M  V30 END CTAB
M  END
