
     RDKit          3D

  0  0  0  0  0  0  0  0  0  0999 V3000
M  V30 BEGIN CTAB
M  V30 COUNTS 34 35 0 0 0
M  V30 BEGIN ATOM
M  V30 1 N 1.35016 2.09249 0.0498546 0
M  V30 2 C 1.25903 0.922755 -0.750054 0
M  V30 3 C 2.68245 0.444383 -1.07354 0
M  V30 4 C 3.27479 -0.0384813 0.235761 0
M  V30 5 C 2.45967 -1.16633 0.833037 0
M  V30 6 N 1.14574 -0.628269 1.13632 0
M  V30 7 C 0.558659 -0.245114 -0.151982 0
M  V30 8 C -0.898237 -0.145301 -0.107336 0
M  V30 9 C -1.57079 0.979136 -0.536223 0
M  V30 10 C -2.95125 1.03137 -0.475261 0
M  V30 11 N -3.57345 2.22143 -0.934673 0
M  V30 12 C -3.70392 -0.0384888 0.0163806 0
M  V30 13 C -3.02627 -1.15775 0.442822 0
M  V30 14 C -1.6375 -1.20336 0.378447 0
M  V30 15 C -0.979772 -2.44674 0.854225 0
M  V30 16 H 2.06198 2.72857 -0.417351 0
M  V30 17 H 1.54772 1.98062 1.04691 0
M  V30 18 H 0.771174 1.17645 -1.70033 0
M  V30 19 H 2.59302 -0.381019 -1.80522 0
M  V30 20 H 3.30622 1.25523 -1.45514 0
M  V30 21 H 4.30032 -0.433451 0.0963796 0
M  V30 22 H 3.21673 0.809021 0.948108 0
M  V30 23 H 2.98816 -1.51165 1.74251 0
M  V30 24 H 2.34929 -1.96282 0.0734737 0
M  V30 25 H 1.17115 0.133252 1.81758 0
M  V30 26 H 0.803485 -1.1224 -0.825988 0
M  V30 27 H -1.03018 1.85279 -0.933694 0
M  V30 28 H -3.52568 3.12802 -0.440584 0
M  V30 29 H -4.10705 2.172 -1.82071 0
M  V30 30 H -4.7775 0.0321247 0.0512173 0
M  V30 31 H -3.576 -2.02473 0.837714 0
M  V30 32 H -0.607316 -2.38156 1.87434 0
M  V30 33 H -0.162618 -2.76334 0.17464 0
M  V30 34 H -1.71221 -3.30884 0.818375 0
M  V30 END ATOM
M  V30 BEGIN BOND
M  V30 1 1 1 2
M  V30 2 1 2 3
M  V30 3 1 3 4
M  V30 4 1 4 5
M  V30 5 1 5 6
M  V30 6 1 6 7
M  V30 7 1 7 8
M  V30 8 2 8 9
M  V30 9 1 9 10
M  V30 10 1 10 11
M  V30 11 2 10 12
M  V30 12 1 12 13
M  V30 13 2 13 14
M  V30 14 1 14 15
M  V30 15 1 7 2
M  V30 16 1 14 8
M  V30 17 1 1 16
M  V30 18 1 1 17
M  V30 19 1 2 18
M  V30 20 1 3 19
M  V30 21 1 3 20
M  V30 22 1 4 21
M  V30 23 1 4 22
M  V30 24 1 5 23
M  V30 25 1 5 24
M  V30 26 1 6 25
M  V30 27 1 7 26
M  V30 28 1 9 27
M  V30 29 1 11 28
M  V30 30 1 11 29
M  V30 31 1 12 30
M  V30 32 1 13 31
M  V30 33 1 15 32
M  V30 34 1 15 33
M  V30 35 1 15 34
M  V30 END BOND
M  V30 END CTAB
M  END
