
     RDKit          3D

  0  0  0  0  0  0  0  0  0  0999 V3000
M  V30 BEGIN CTAB
M  V30 COUNTS 28 29 0 0 0
M  V30 BEGIN ATOM
M  V30 1 N -3.74702 -1.14041 -0.112811 0
M  V30 2 C -2.77575 -0.120341 0.0410409 0
M  V30 3 C -3.19526 1.20311 0.181502 0
M  V30 4 C -2.2921 2.22471 0.333123 0
M  V30 5 N -0.986916 1.93248 0.3448 0
M  V30 6 C -0.506659 0.679265 0.214725 0
M  V30 7 C -1.41573 -0.345886 0.0624727 0
M  V30 8 N -0.996169 -1.70027 -0.0818737 0
M  V30 9 N 0.893222 0.37961 0.229118 0
M  V30 10 C 1.50285 -0.484558 1.19565 0
M  V30 11 C 3.01382 -0.264551 1.12336 0
M  V30 12 C 3.38959 -0.579172 -0.294241 0
M  V30 13 C 2.72045 0.0633201 -1.24484 0
M  V30 14 C 1.67856 1.01871 -0.8188 0
M  V30 15 H -4.09726 -1.30083 -1.09274 0
M  V30 16 H -4.07704 -1.68015 0.695635 0
M  V30 17 H -4.25408 1.4389 0.171875 0
M  V30 18 H -2.6659 3.23247 0.438165 0
M  V30 19 H -0.726565 -2.0949 -1.00582 0
M  V30 20 H -0.953101 -2.32624 0.754135 0
M  V30 21 H 1.14996 -0.284933 2.22783 0
M  V30 22 H 1.35684 -1.56575 0.993699 0
M  V30 23 H 3.51458 -1.00527 1.75328 0
M  V30 24 H 3.21994 0.785806 1.3857 0
M  V30 25 H 4.15043 -1.27745 -0.577408 0
M  V30 26 H 2.91642 -0.0931198 -2.30924 0
M  V30 27 H 2.12243 1.95292 -0.378655 0
M  V30 28 H 1.06043 1.35254 -1.6636 0
M  V30 END ATOM
M  V30 BEGIN BOND
M  V30 1 1 1 2
M  V30 2 2 2 3
M  V30 3 1 3 4
M  V30 4 2 4 5
M  V30 5 1 5 6
M  V30 6 2 6 7
M  V30 7 1 7 8
M  V30 8 1 6 9
M  V30 9 1 9 10
M  V30 10 1 10 11
M  V30 11 1 11 12
M  V30 12 2 12 13
M  V30 13 1 13 14
M  V30 14 1 7 2
M  V30 15 1 14 9
M  V30 16 1 1 15
M  V30 17 1 1 16
M  V30 18 1 3 17
M  V30 19 1 4 18
M  V30 20 1 8 19
M  V30 21 1 8 20
M  V30 22 1 10 21
M  V30 23 1 10 22
M  V30 24 1 11 23
M  V30 25 1 11 24
M  V30 26 1 12 25
M  V30 27 1 13 26
M  V30 28 1 14 27
M  V30 29 1 14 28
M  V30 END BOND
M  V30 END CTAB
M  END
