
     RDKit          3D

  0  0  0  0  0  0  0  0  0  0999 V3000
M  V30 BEGIN CTAB
M  V30 COUNTS 48 51 0 0 0
M  V30 BEGIN ATOM
M  V30 1 C -4.28664 3.09138 0.80908 0
M  V30 2 C -4.29245 1.74883 1.50206 0
M  V30 3 N -4.28913 0.642708 0.563616 0
M  V30 4 C -5.36237 0.0303132 0.0365959 0
M  V30 5 C -6.71824 0.253904 0.216947 0
M  V30 6 C -7.65924 -0.515852 -0.442673 0
M  V30 7 C -7.20095 -1.50737 -1.28081 0
M  V30 8 C -5.84969 -1.75424 -1.48095 0
M  V30 9 C -4.93819 -0.966037 -0.805864 0
M  V30 10 C -3.55344 -0.974444 -0.803411 0
M  V30 11 C -3.18143 0.0434345 0.0628281 0
M  V30 12 C -1.8348 0.237516 0.23703 0
M  V30 13 C -0.84472 -0.516143 -0.39546 0
M  V30 14 C -1.27393 -1.50153 -1.23482 0
M  V30 15 C -2.63569 -1.75005 -1.45518 0
M  V30 16 N 0.504776 -0.198658 -0.123835 0
M  V30 17 C 1.65286 -0.866974 -0.562115 0
M  V30 18 O 1.64533 -1.87157 -1.27695 0
M  V30 19 C 2.99401 -0.349367 -0.150534 0
M  V30 20 S 4.31548 -1.35976 -0.82595 0
M  V30 21 C 5.87721 -0.67247 -0.285557 0
M  V30 22 N 6.54487 0.254357 -0.958853 0
M  V30 23 C 7.71817 0.763328 -0.542739 0
M  V30 24 N 8.4015 1.76132 -1.30244 0
M  V30 25 C 8.25652 0.304094 0.637656 0
M  V30 26 C 7.57273 -0.655881 1.34257 0
M  V30 27 N 6.3863 -1.13748 0.874594 0
M  V30 28 N 8.07164 -1.16938 2.56197 0
M  V30 29 H -5.31957 3.39552 0.544492 0
M  V30 30 H -3.94312 3.84299 1.5793 0
M  V30 31 H -3.59771 3.12951 -0.056957 0
M  V30 32 H -5.17588 1.70679 2.16494 0
M  V30 33 H -3.40419 1.70782 2.18538 0
M  V30 34 H -7.06304 1.044 0.884915 0
M  V30 35 H -8.70724 -0.310632 -0.275714 0
M  V30 36 H -7.95409 -2.09785 -1.78708 0
M  V30 37 H -5.559 -2.5453 -2.15013 0
M  V30 38 H -1.57709 1.05396 0.931894 0
M  V30 39 H -0.561549 -2.12263 -1.76188 0
M  V30 40 H -2.88692 -2.54165 -2.12864 0
M  V30 41 H 0.673619 0.675793 0.503034 0
M  V30 42 H 2.98552 -0.332849 0.973016 0
M  V30 43 H 3.04809 0.706908 -0.480342 0
M  V30 44 H 9.31948 2.10581 -0.98804 0
M  V30 45 H 7.9749 2.14053 -2.17131 0
M  V30 46 H 9.1944 0.661789 1.04057 0
M  V30 47 H 8.15522 -2.20152 2.71661 0
M  V30 48 H 8.37766 -0.548374 3.35913 0
M  V30 END ATOM
M  V30 BEGIN BOND
M  V30 1 1 1 2
M  V30 2 1 2 3
M  V30 3 1 3 4
M  V30 4 2 4 5
M  V30 5 1 5 6
M  V30 6 2 6 7
M  V30 7 1 7 8
M  V30 8 2 8 9
M  V30 9 1 9 10
M  V30 10 2 10 11
M  V30 11 1 11 12
M  V30 12 2 12 13
M  V30 13 1 13 14
M  V30 14 2 14 15
M  V30 15 1 13 16
M  V30 16 1 16 17
M  V30 17 2 17 18
M  V30 18 1 17 19
M  V30 19 1 19 20
M  V30 20 1 20 21
M  V30 21 2 21 22
M  V30 22 1 22 23
M  V30 23 1 23 24
M  V30 24 2 23 25
M  V30 25 1 25 26
M  V30 26 2 26 27
M  V30 27 1 26 28
M  V30 28 1 11 3
M  V30 29 1 27 21
M  V30 30 1 9 4
M  V30 31 1 15 10
M  V30 32 1 1 29
M  V30 33 1 1 30
M  V30 34 1 1 31
M  V30 35 1 2 32
M  V30 36 1 2 33
M  V30 37 1 5 34
M  V30 38 1 6 35
M  V30 39 1 7 36
M  V30 40 1 8 37
M  V30 41 1 12 38
M  V30 42 1 14 39
M  V30 43 1 15 40
M  V30 44 1 16 41
M  V30 45 1 19 42
M  V30 46 1 19 43
M  V30 47 1 24 44
M  V30 48 1 24 45
M  V30 49 1 25 46
M  V30 50 1 28 47
M  V30 51 1 28 48
M  V30 END BOND
M  V30 END CTAB
M  END
