
     RDKit          3D

  0  0  0  0  0  0  0  0  0  0999 V3000
M  V30 BEGIN CTAB
M  V30 COUNTS 32 33 0 0 0
M  V30 BEGIN ATOM
M  V30 1 C 5.19972 0.732413 1.20358 0
M  V30 2 O 4.75964 0.0858015 0.026383 0
M  V30 3 C 3.41677 -0.120963 -0.239233 0
M  V30 4 C 2.47184 0.312308 0.664388 0
M  V30 5 C 1.09598 0.122631 0.433965 0
M  V30 6 C 0.662449 -0.503335 -0.707846 0
M  V30 7 N -0.686672 -0.769696 -1.0015 0
M  V30 8 C -1.79915 -0.230168 -0.320238 0
M  V30 9 C -2.91356 -1.04957 -0.146021 0
M  V30 10 C -4.07437 -0.631726 0.463063 0
M  V30 11 C -4.18394 0.656656 0.940628 0
M  V30 12 N -5.37744 1.12193 1.57941 0
M  V30 13 C -3.09643 1.48146 0.778515 0
M  V30 14 C -1.91783 1.04894 0.156783 0
M  V30 15 C 1.64982 -0.920583 -1.58409 0
M  V30 16 N 1.25507 -1.57274 -2.78067 0
M  V30 17 C 2.99599 -0.747068 -1.38016 0
M  V30 18 H 6.26191 1.03762 1.14114 0
M  V30 19 H 4.62936 1.66154 1.41326 0
M  V30 20 H 5.04535 0.0603309 2.06279 0
M  V30 21 H 2.78525 0.808673 1.57107 0
M  V30 22 H 0.412897 0.459258 1.18161 0
M  V30 23 H -0.856194 -1.44827 -1.81682 0
M  V30 24 H -2.85053 -2.07676 -0.516891 0
M  V30 25 H -4.93585 -1.2697 0.596203 0
M  V30 26 H -5.37076 1.7881 2.38103 0
M  V30 27 H -6.30227 0.791402 1.24237 0
M  V30 28 H -3.1396 2.49842 1.13794 0
M  V30 29 H -1.09099 1.72845 0.0276579 0
M  V30 30 H 0.567088 -1.08077 -3.39393 0
M  V30 31 H 1.64221 -2.5017 -3.02502 0
M  V30 32 H 3.74423 -1.0873 -2.08937 0
M  V30 END ATOM
M  V30 BEGIN BOND
M  V30 1 1 1 2
M  V30 2 1 2 3
M  V30 3 2 3 4
M  V30 4 1 4 5
M  V30 5 2 5 6
M  V30 6 1 6 7
M  V30 7 1 7 8
M  V30 8 2 8 9
M  V30 9 1 9 10
M  V30 10 2 10 11
M  V30 11 1 11 12
M  V30 12 1 11 13
M  V30 13 2 13 14
M  V30 14 1 6 15
M  V30 15 1 15 16
M  V30 16 2 15 17
M  V30 17 1 17 3
M  V30 18 1 14 8
M  V30 19 1 1 18
M  V30 20 1 1 19
M  V30 21 1 1 20
M  V30 22 1 4 21
M  V30 23 1 5 22
M  V30 24 1 7 23
M  V30 25 1 9 24
M  V30 26 1 10 25
M  V30 27 1 12 26
M  V30 28 1 12 27
M  V30 29 1 13 28
M  V30 30 1 14 29
M  V30 31 1 16 30
M  V30 32 1 16 31
M  V30 33 1 17 32
M  V30 END BOND
M  V30 END CTAB
M  END
