
     RDKit          3D

  0  0  0  0  0  0  0  0  0  0999 V3000
M  V30 BEGIN CTAB
M  V30 COUNTS 28 29 0 0 0
M  V30 BEGIN ATOM
M  V30 1 N -2.20195 -1.25466 -1.99032 0
M  V30 2 C -1.31874 -0.308374 -1.21001 0
M  V30 3 C -2.25344 0.472706 -0.401124 0
M  V30 4 C -1.90064 1.54264 0.544698 0
M  V30 5 C -2.62603 0.317027 0.995387 0
M  V30 6 C -0.266795 -1.15397 -0.67372 0
M  V30 7 C 0.819819 -0.617139 0.131906 0
M  V30 8 C 0.902342 -0.62873 1.49578 0
M  V30 9 C 1.97881 -0.0881118 2.20565 0
M  V30 10 N 2.96633 0.463307 1.48262 0
M  V30 11 C 2.97122 0.519402 0.157069 0
M  V30 12 C 1.90276 -0.0179969 -0.525557 0
M  V30 13 N 4.07845 1.13091 -0.489112 0
M  V30 14 H -2.69407 -1.78357 -1.22513 0
M  V30 15 H -1.57327 -1.93888 -2.4597 0
M  V30 16 H -0.919515 0.335434 -2.03442 0
M  V30 17 H -3.16 0.799235 -1.06132 0
M  V30 18 H -0.88499 1.75228 0.908533 0
M  V30 19 H -2.52642 2.4923 0.583933 0
M  V30 20 H -2.13011 -0.312484 1.72899 0
M  V30 21 H -3.72491 0.433328 1.28458 0
M  V30 22 H 0.244018 -1.63998 -1.5801 0
M  V30 23 H -0.686065 -2.07843 -0.161243 0
M  V30 24 H 0.095378 -1.08203 2.05319 0
M  V30 25 H 2.01022 -0.115264 3.28997 0
M  V30 26 H 1.88842 0.0173286 -1.58848 0
M  V30 27 H 4.5455 1.96253 -0.0688709 0
M  V30 28 H 4.46368 0.781194 -1.39321 0
M  V30 END ATOM
M  V30 BEGIN BOND
M  V30 1 1 1 2
M  V30 2 1 2 3
M  V30 3 1 3 4
M  V30 4 1 4 5
M  V30 5 1 2 6
M  V30 6 1 6 7
M  V30 7 2 7 8
M  V30 8 1 8 9
M  V30 9 2 9 10
M  V30 10 1 10 11
M  V30 11 2 11 12
M  V30 12 1 11 13
M  V30 13 1 5 3
M  V30 14 1 12 7
M  V30 15 1 1 14
M  V30 16 1 1 15
M  V30 17 1 2 16
M  V30 18 1 3 17
M  V30 19 1 4 18
M  V30 20 1 4 19
M  V30 21 1 5 20
M  V30 22 1 5 21
M  V30 23 1 6 22
M  V30 24 1 6 23
M  V30 25 1 8 24
M  V30 26 1 9 25
M  V30 27 1 12 26
M  V30 28 1 13 27
M  V30 29 1 13 28
M  V30 END BOND
M  V30 END CTAB
M  END
