
     RDKit          3D

  0  0  0  0  0  0  0  0  0  0999 V3000
M  V30 BEGIN CTAB
M  V30 COUNTS 48 50 0 0 0
M  V30 BEGIN ATOM
M  V30 1 N -2.58101 -3.03344 -3.62896 0
M  V30 2 C -1.99163 -2.08875 -2.70862 0
M  V30 3 N -0.8903 -1.39703 -3.03064 0
M  V30 4 C -0.306793 -0.512777 -2.21419 0
M  V30 5 N 0.85914 0.218032 -2.5693 0
M  V30 6 C -0.894128 -0.305598 -0.943631 0
M  V30 7 C -0.184412 0.623598 -0.0684022 0
M  V30 8 C 1.05572 -0.00505864 0.555027 0
M  V30 9 C 1.77483 0.958062 1.45 0
M  V30 10 N 2.94993 0.446449 2.06785 0
M  V30 11 C 4.13933 0.0947463 1.38467 0
M  V30 12 C 4.38645 0.391744 0.0676666 0
M  V30 13 C 5.57713 0.00592187 -0.555803 0
M  V30 14 C 6.55459 -0.688954 0.12444 0
M  V30 15 C 6.30542 -0.985882 1.44578 0
M  V30 16 C 5.13245 -0.602394 2.04866 0
M  V30 17 C -2.01573 -0.989466 -0.581705 0
M  V30 18 C -2.73404 -0.806322 0.696121 0
M  V30 19 C -3.70871 0.274623 0.744538 0
M  V30 20 C -4.88264 0.231663 -0.00398921 0
M  V30 21 C -5.85217 1.20877 0.0427512 0
M  V30 22 C -5.6545 2.29206 0.875469 0
M  V30 23 C -4.50183 2.35914 1.62679 0
M  V30 24 C -3.5482 1.36448 1.5587 0
M  V30 25 N -2.51973 -1.8702 -1.50757 0
M  V30 26 H -2.9056 -3.96246 -3.33847 0
M  V30 27 H -2.67776 -2.75359 -4.628 0
M  V30 28 H 0.870548 1.2412 -2.67164 0
M  V30 29 H 1.73315 -0.329377 -2.72897 0
M  V30 30 H -0.760804 1.16059 0.677813 0
M  V30 31 H 0.24412 1.44189 -0.733274 0
M  V30 32 H 0.669814 -0.816248 1.21046 0
M  V30 33 H 1.73515 -0.360663 -0.220678 0
M  V30 34 H 2.08535 1.88616 0.880104 0
M  V30 35 H 1.06654 1.35737 2.21522 0
M  V30 36 H 2.93326 0.320297 3.11254 0
M  V30 37 H 3.66493 0.938659 -0.507587 0
M  V30 38 H 5.74218 0.256218 -1.5995 0
M  V30 39 H 7.4837 -0.998463 -0.336202 0
M  V30 40 H 7.08212 -1.53284 1.96968 0
M  V30 41 H 4.96515 -0.849473 3.0853 0
M  V30 42 H -2.00845 -0.710987 1.54658 0
M  V30 43 H -3.28869 -1.76099 0.951618 0
M  V30 44 H -5.00475 -0.628524 -0.643983 0
M  V30 45 H -6.75849 1.15448 -0.549146 0
M  V30 46 H -6.39718 3.098 0.949273 0
M  V30 47 H -4.30151 3.20235 2.30357 0
M  V30 48 H -2.64196 1.46299 2.17963 0
M  V30 END ATOM
M  V30 BEGIN BOND
M  V30 1 1 1 2
M  V30 2 2 2 3
M  V30 3 1 3 4
M  V30 4 1 4 5
M  V30 5 2 4 6
M  V30 6 1 6 7
M  V30 7 1 7 8
M  V30 8 1 8 9
M  V30 9 1 9 10
M  V30 10 1 10 11
M  V30 11 2 11 12
M  V30 12 1 12 13
M  V30 13 2 13 14
M  V30 14 1 14 15
M  V30 15 2 15 16
M  V30 16 1 6 17
M  V30 17 1 17 18
M  V30 18 1 18 19
M  V30 19 2 19 20
M  V30 20 1 20 21
M  V30 21 2 21 22
M  V30 22 1 22 23
M  V30 23 2 23 24
M  V30 24 2 17 25
M  V30 25 1 25 2
M  V30 26 1 16 11
M  V30 27 1 24 19
M  V30 28 1 1 26
M  V30 29 1 1 27
M  V30 30 1 5 28
M  V30 31 1 5 29
M  V30 32 1 7 30
M  V30 33 1 7 31
M  V30 34 1 8 32
M  V30 35 1 8 33
M  V30 36 1 9 34
M  V30 37 1 9 35
M  V30 38 1 10 36
M  V30 39 1 12 37
M  V30 40 1 13 38
M  V30 41 1 14 39
M  V30 42 1 15 40
M  V30 43 1 16 41
M  V30 44 1 18 42
M  V30 45 1 18 43
M  V30 46 1 20 44
M  V30 47 1 21 45
M  V30 48 1 22 46
M  V30 49 1 23 47
M  V30 50 1 24 48
M  V30 END BOND
M  V30 END CTAB
M  END
