
     RDKit          3D

  0  0  0  0  0  0  0  0  0  0999 V3000
M  V30 BEGIN CTAB
M  V30 COUNTS 27 27 0 0 0
M  V30 BEGIN ATOM
M  V30 1 N 3.06522 -1.46998 -0.945877 0
M  V30 2 N 2.11369 -0.771628 -0.239423 0
M  V30 3 C 0.871737 -0.339763 -0.769154 0
M  V30 4 O 0.625157 -0.614984 -1.96687 0
M  V30 5 C -0.123261 0.410547 0.0302784 0
M  V30 6 C 0.541951 1.68848 0.488227 0
M  V30 7 N 0.983341 2.51873 -0.576592 0
M  V30 8 C -0.448154 -0.450154 1.24199 0
M  V30 9 C -1.33822 -1.58374 0.807925 0
M  V30 10 C -2.59688 -0.925445 0.22769 0
M  V30 11 O -2.1909 -0.335663 -0.96824 0
M  V30 12 C -1.35653 0.736674 -0.765701 0
M  V30 13 H 4.03945 -1.28983 -0.65487 0
M  V30 14 H 2.83392 -2.43923 -1.17436 0
M  V30 15 H 2.35052 -0.55224 0.775011 0
M  V30 16 H 1.38697 1.49226 1.17832 0
M  V30 17 H -0.212639 2.2536 1.09249 0
M  V30 18 H 0.961925 3.53252 -0.386205 0
M  V30 19 H 0.64391 2.24573 -1.5203 0
M  V30 20 H -0.998666 0.173538 1.97446 0
M  V30 21 H 0.49558 -0.789321 1.66821 0
M  V30 22 H -1.58079 -2.23874 1.65136 0
M  V30 23 H -0.858233 -2.13257 -0.0319302 0
M  V30 24 H -3.38383 -1.6596 0.0344171 0
M  V30 25 H -2.90931 -0.10114 0.912133 0
M  V30 26 H -1.00081 1.06675 -1.77917 0
M  V30 27 H -1.91515 1.57523 -0.303808 0
M  V30 END ATOM
M  V30 BEGIN BOND
M  V30 1 1 1 2
M  V30 2 1 2 3
M  V30 3 2 3 4
M  V30 4 1 3 5
M  V30 5 1 5 6
M  V30 6 1 6 7
M  V30 7 1 5 8
M  V30 8 1 8 9
M  V30 9 1 9 10
M  V30 10 1 10 11
M  V30 11 1 11 12
M  V30 12 1 12 5
M  V30 13 1 1 13
M  V30 14 1 1 14
M  V30 15 1 2 15
M  V30 16 1 6 16
M  V30 17 1 6 17
M  V30 18 1 7 18
M  V30 19 1 7 19
M  V30 20 1 8 20
M  V30 21 1 8 21
M  V30 22 1 9 22
M  V30 23 1 9 23
M  V30 24 1 10 24
M  V30 25 1 10 25
M  V30 26 1 12 26
M  V30 27 1 12 27
M  V30 END BOND
M  V30 END CTAB
M  END
