
     RDKit          3D

  0  0  0  0  0  0  0  0  0  0999 V3000
M  V30 BEGIN CTAB
M  V30 COUNTS 36 38 0 0 0
M  V30 BEGIN ATOM
M  V30 1 N 2.71435 1.39336 -2.17939 0
M  V30 2 C 3.06795 0.923797 -0.887295 0
M  V30 3 N 2.12534 0.811632 0.0896302 0
M  V30 4 C 2.43025 0.371688 1.31428 0
M  V30 5 C 1.37832 0.26445 2.37122 0
M  V30 6 S 0.620018 -1.3718 2.25804 0
M  V30 7 C -0.301452 -1.52027 0.713885 0
M  V30 8 C -1.51663 -0.697356 0.726496 0
M  V30 9 C -1.93793 0.0358743 1.80986 0
M  V30 10 C -3.11325 0.78031 1.76627 0
M  V30 11 C -3.83552 0.75227 0.597982 0
M  V30 12 C -3.44034 0.0288284 -0.499681 0
M  V30 13 C -2.27875 -0.702289 -0.447282 0
M  V30 14 C -1.91719 -1.41272 -1.56942 0
M  V30 15 C -2.65726 -1.42435 -2.72902 0
M  V30 16 C -3.8191 -0.691564 -2.778 0
M  V30 17 C -4.21114 0.0333098 -1.66814 0
M  V30 18 N 3.68714 0.024481 1.61852 0
M  V30 19 C 4.66275 0.123338 0.664202 0
M  V30 20 N 4.31791 0.569262 -0.555057 0
M  V30 21 N 6.00825 -0.247099 1.00405 0
M  V30 22 H 2.36332 0.647931 -2.848 0
M  V30 23 H 2.77678 2.37844 -2.49314 0
M  V30 24 H 1.89164 0.35843 3.35355 0
M  V30 25 H 0.65461 1.0735 2.3129 0
M  V30 26 H -0.6183 -2.58646 0.543972 0
M  V30 27 H 0.334034 -1.16182 -0.126036 0
M  V30 28 H -1.35621 0.0250737 2.72298 0
M  V30 29 H -3.40713 1.34451 2.64384 0
M  V30 30 H -4.75179 1.31673 0.524678 0
M  V30 31 H -1.01129 -1.99478 -1.55358 0
M  V30 32 H -2.35049 -1.99738 -3.6118 0
M  V30 33 H -4.41667 -0.690706 -3.69055 0
M  V30 34 H -5.12768 0.62531 -1.67348 0
M  V30 35 H 6.63134 0.416233 1.53418 0
M  V30 36 H 6.40412 -1.17169 0.739336 0
M  V30 END ATOM
M  V30 BEGIN BOND
M  V30 1 1 1 2
M  V30 2 2 2 3
M  V30 3 1 3 4
M  V30 4 1 4 5
M  V30 5 1 5 6
M  V30 6 1 6 7
M  V30 7 1 7 8
M  V30 8 2 8 9
M  V30 9 1 9 10
M  V30 10 2 10 11
M  V30 11 1 11 12
M  V30 12 2 12 13
M  V30 13 1 13 14
M  V30 14 2 14 15
M  V30 15 1 15 16
M  V30 16 2 16 17
M  V30 17 2 4 18
M  V30 18 1 18 19
M  V30 19 2 19 20
M  V30 20 1 19 21
M  V30 21 1 20 2
M  V30 22 1 13 8
M  V30 23 1 17 12
M  V30 24 1 1 22
M  V30 25 1 1 23
M  V30 26 1 5 24
M  V30 27 1 5 25
M  V30 28 1 7 26
M  V30 29 1 7 27
M  V30 30 1 9 28
M  V30 31 1 10 29
M  V30 32 1 11 30
M  V30 33 1 14 31
M  V30 34 1 15 32
M  V30 35 1 16 33
M  V30 36 1 17 34
M  V30 37 1 21 35
M  V30 38 1 21 36
M  V30 END BOND
M  V30 END CTAB
M  END
