
     RDKit          3D

  0  0  0  0  0  0  0  0  0  0999 V3000
M  V30 BEGIN CTAB
M  V30 COUNTS 140 146 0 0 0
M  V30 BEGIN ATOM
M  V30 1 C -11.1665 -0.767318 2.88028 0
M  V30 2 C -10.9034 -1.84163 1.87882 0
M  V30 3 S -12.3651 -2.42683 1.01066 0
M  V30 4 C -13.1386 -1.18294 0.00399275 0
M  V30 5 S -13.8721 0.0564891 1.15585 0
M  V30 6 C -15.2466 -0.707296 2.03652 0
M  V30 7 C -15.8225 0.322815 2.98143 0
M  V30 8 C -12.1776 -0.359102 -0.860817 0 CFG=2
M  V30 9 C -13.1868 0.601806 -1.60446 0
M  V30 10 C -13.8992 -0.418726 -2.46982 0
M  V30 11 C -12.9437 -1.54398 -2.63799 0
M  V30 12 N -11.6649 -1.0227 -1.9861 0
M  V30 13 C -10.4633 -1.25206 -2.62754 0
M  V30 14 O -10.5217 -2.02408 -3.71314 0
M  V30 15 C -9.12269 -0.816583 -2.36694 0
M  V30 16 C -8.08178 -1.16503 -3.23137 0
M  V30 17 N -8.32673 -1.91403 -4.41883 0
M  V30 18 C -6.79846 -0.750823 -2.97242 0
M  V30 19 C -6.44319 0.0233204 -1.86481 0
M  V30 20 O -5.18508 0.438164 -1.59779 0
M  V30 21 C -4.00946 0.316754 -2.18936 0
M  V30 22 C -3.35393 -1.02517 -2.4605 0
M  V30 23 C -1.98561 -0.710882 -3.12229 0
M  V30 24 O -1.16969 -0.0107373 -2.27468 0
M  V30 25 C -0.536139 -0.499303 -1.17117 0
M  V30 26 C -0.519271 -1.7998 -0.72288 0
M  V30 27 C 0.152149 -2.23771 0.383678 0
M  V30 28 C 0.879803 -1.30229 1.12955 0
M  V30 29 O 1.54814 -1.62752 2.18906 0
M  V30 30 C 2.06653 -2.30928 3.15278 0
M  V30 31 C 2.97984 -3.48375 2.88206 0
M  V30 32 C 4.11893 -3.13838 2.01201 0
M  V30 33 O 4.80401 -2.00585 2.47544 0
M  V30 34 C 5.94635 -1.63061 1.7873 0
M  V30 35 C 6.47464 -2.36023 0.758124 0
M  V30 36 C 7.60056 -1.97037 0.0765918 0
M  V30 37 N 8.07037 -2.76575 -0.969132 0
M  V30 38 C 8.24885 -0.789652 0.427492 0
M  V30 39 C 7.74548 -0.0318379 1.45606 0
M  V30 40 C 6.58368 -0.46335 2.13872 0
M  V30 41 O 6.04417 0.272884 3.17059 0
M  V30 42 C 6.53913 1.50677 3.55092 0
M  V30 43 C 9.4726 -0.474581 -0.26354 0
M  V30 44 O 9.85509 -1.41432 -1.07871 0
M  V30 45 N 10.3308 0.628062 -0.238373 0
M  V30 46 C 10.0812 1.8311 0.567206 0
M  V30 47 C 11.1899 2.79375 0.158094 0
M  V30 48 C 12.3119 1.69879 0.0830245 0
M  V30 49 C 11.602 0.841206 -0.957768 0 CFG=1
M  V30 50 C 12.3441 -0.314988 -1.44954 0
M  V30 51 S 12.9028 -1.47801 -0.168931 0
M  V30 52 C 14.2447 -0.920617 0.838766 0
M  V30 53 C 14.4946 -1.96785 1.91767 0
M  V30 54 S 13.5442 -0.10393 -2.73953 0
M  V30 55 C 15.0461 0.724615 -2.53876 0
M  V30 56 C 15.084 2.20722 -2.3926 0
M  V30 57 C 0.877521 0.0443667 0.69688 0
M  V30 58 C 0.19221 0.428997 -0.416858 0
M  V30 59 C 0.160736 1.85409 -0.809709 0
M  V30 60 O -0.473803 2.19713 -1.83516 0
M  V30 61 C 0.851794 2.86325 -0.0259836 0
M  V30 62 C 0.801896 4.21815 -0.379868 0
M  V30 63 C 1.42977 5.18682 0.365318 0
M  V30 64 C 2.12637 4.81533 1.48796 0
M  V30 65 C 2.17795 3.45759 1.84383 0
M  V30 66 C 1.54355 2.49129 1.08984 0
M  V30 67 C 1.57603 1.06914 1.4807 0
M  V30 68 O 2.22161 0.786258 2.50141 0
M  V30 69 C -7.50552 0.33722 -1.05327 0
M  V30 70 O -7.29484 1.12313 0.100376 0
M  V30 71 C -8.3379 1.44665 0.965578 0
M  V30 72 C -8.80802 -0.0547187 -1.27007 0
M  V30 73 H -11.5123 0.169357 2.38741 0
M  V30 74 H -11.8513 -1.08533 3.68665 0
M  V30 75 H -10.2042 -0.465441 3.39407 0
M  V30 76 H -10.1629 -1.44074 1.14791 0
M  V30 77 H -10.3596 -2.70259 2.37645 0
M  V30 78 H -13.9532 -1.63713 -0.589009 0
M  V30 79 H -16.017 -1.0195 1.27955 0
M  V30 80 H -14.8833 -1.62144 2.54749 0
M  V30 81 H -15.6679 1.30774 2.53972 0
M  V30 82 H -16.905 0.109967 3.10536 0
M  V30 83 H -15.348 0.251568 3.96223 0
M  V30 84 H -11.5859 0.237276 -0.207493 0
M  V30 85 H -12.6318 1.33026 -2.19309 0
M  V30 86 H -13.8452 0.987327 -0.83067 0
M  V30 87 H -14.8923 -0.667211 -2.10001 0
M  V30 88 H -14.0783 0.132687 -3.4489 0
M  V30 89 H -13.2092 -2.50106 -2.21891 0
M  V30 90 H -12.7529 -1.67147 -3.72272 0
M  V30 91 H -8.14779 -2.92101 -4.51176 0
M  V30 92 H -8.71154 -1.39049 -5.2325 0
M  V30 93 H -6.00969 -1.03817 -3.68194 0
M  V30 94 H -4.06008 0.881292 -3.20296 0
M  V30 95 H -3.22128 0.910839 -1.59242 0
M  V30 96 H -3.1699 -1.56225 -1.54988 0
M  V30 97 H -3.89637 -1.59122 -3.18598 0
M  V30 98 H -1.55268 -1.70558 -3.34286 0
M  V30 99 H -2.10945 -0.196801 -4.08125 0
M  V30 100 H -1.07516 -2.53386 -1.31715 0
M  V30 101 H 0.176314 -3.2552 0.740772 0
M  V30 102 H 1.2926 -2.68404 3.95482 0
M  V30 103 H 2.69223 -1.63644 3.85407 0
M  V30 104 H 3.41033 -3.79621 3.87676 0
M  V30 105 H 2.41628 -4.37251 2.53447 0
M  V30 106 H 4.79365 -4.02923 1.93017 0
M  V30 107 H 3.82546 -2.91165 0.957353 0
M  V30 108 H 5.9927 -3.28966 0.457517 0
M  V30 109 H 8.67069 -3.58836 -0.714473 0
M  V30 110 H 7.88053 -2.61941 -1.9825 0
M  V30 111 H 8.16905 0.885706 1.81563 0
M  V30 112 H 7.33418 1.41578 4.29059 0
M  V30 113 H 6.89847 2.13095 2.69482 0
M  V30 114 H 5.67592 2.09665 4.007 0
M  V30 115 H 9.11435 2.24856 0.29053 0
M  V30 116 H 10.2108 1.67797 1.63712 0
M  V30 117 H 11.4336 3.54954 0.881606 0
M  V30 118 H 10.9799 3.13243 -0.866032 0
M  V30 119 H 13.1734 2.2375 -0.207056 0
M  V30 120 H 12.2818 1.23617 1.09251 0
M  V30 121 H 11.3129 1.56304 -1.7677 0
M  V30 122 H 11.5511 -0.965714 -2.0029 0
M  V30 123 H 14.2447 0.0925438 1.20704 0
M  V30 124 H 15.1856 -0.980529 0.191298 0
M  V30 125 H 15.2405 -2.74332 1.59221 0
M  V30 126 H 13.578 -2.52201 2.1881 0
M  V30 127 H 14.831 -1.42597 2.83187 0
M  V30 128 H 15.6736 0.516746 -3.47846 0
M  V30 129 H 15.7477 0.240878 -1.75346 0
M  V30 130 H 15.9966 2.59069 -2.93628 0
M  V30 131 H 14.1889 2.62793 -2.87747 0
M  V30 132 H 15.2223 2.53783 -1.33302 0
M  V30 133 H 0.253147 4.49113 -1.25478 0
M  V30 134 H 1.3852 6.24393 0.0778823 0
M  V30 135 H 2.63646 5.5107 2.11193 0
M  V30 136 H 2.71845 3.14024 2.72352 0
M  V30 137 H -7.89076 2.0772 1.79556 0
M  V30 138 H -8.73141 0.496584 1.43058 0
M  V30 139 H -9.13268 1.97863 0.41916 0
M  V30 140 H -9.56168 0.229719 -0.58197 0
M  V30 END ATOM
M  V30 BEGIN BOND
M  V30 1 1 1 2
M  V30 2 1 2 3
M  V30 3 1 3 4
M  V30 4 1 4 5
M  V30 5 1 5 6
M  V30 6 1 6 7
M  V30 7 1 4 8
M  V30 8 1 8 9
M  V30 9 1 9 10
M  V30 10 1 10 11
M  V30 11 1 11 12
M  V30 12 1 12 13
M  V30 13 2 13 14
M  V30 14 1 13 15
M  V30 15 2 15 16
M  V30 16 1 16 17
M  V30 17 1 16 18
M  V30 18 2 18 19
M  V30 19 1 19 20
M  V30 20 1 20 21
M  V30 21 1 21 22
M  V30 22 1 22 23
M  V30 23 1 23 24
M  V30 24 1 24 25
M  V30 25 2 25 26
M  V30 26 1 26 27
M  V30 27 2 27 28
M  V30 28 1 28 29
M  V30 29 1 29 30
M  V30 30 1 30 31
M  V30 31 1 31 32
M  V30 32 1 32 33
M  V30 33 1 33 34
M  V30 34 2 34 35
M  V30 35 1 35 36
M  V30 36 1 36 37
M  V30 37 2 36 38
M  V30 38 1 38 39
M  V30 39 2 39 40
M  V30 40 1 40 41
M  V30 41 1 41 42
M  V30 42 1 38 43
M  V30 43 2 43 44
M  V30 44 1 43 45
M  V30 45 1 45 46
M  V30 46 1 46 47
M  V30 47 1 47 48
M  V30 48 1 48 49
M  V30 49 1 49 50
M  V30 50 1 50 51
M  V30 51 1 51 52
M  V30 52 1 52 53
M  V30 53 1 50 54
M  V30 54 1 54 55
M  V30 55 1 55 56
M  V30 56 1 28 57
M  V30 57 2 57 58
M  V30 58 1 58 59
M  V30 59 2 59 60
M  V30 60 1 59 61
M  V30 61 2 61 62
M  V30 62 1 62 63
M  V30 63 2 63 64
M  V30 64 1 64 65
M  V30 65 2 65 66
M  V30 66 1 66 67
M  V30 67 2 67 68
M  V30 68 1 19 69
M  V30 69 1 69 70
M  V30 70 1 70 71
M  V30 71 2 69 72
M  V30 72 1 12 8
M  V30 73 1 72 15
M  V30 74 1 58 25
M  V30 75 1 66 61
M  V30 76 1 40 34
M  V30 77 1 49 45
M  V30 78 1 67 57
M  V30 79 1 1 73
M  V30 80 1 1 74
M  V30 81 1 1 75
M  V30 82 1 2 76
M  V30 83 1 2 77
M  V30 84 1 4 78
M  V30 85 1 6 79
M  V30 86 1 6 80
M  V30 87 1 7 81
M  V30 88 1 7 82
M  V30 89 1 7 83
M  V30 90 1 8 84 CFG=1
M  V30 91 1 9 85
M  V30 92 1 9 86
M  V30 93 1 10 87
M  V30 94 1 10 88
M  V30 95 1 11 89
M  V30 96 1 11 90
M  V30 97 1 17 91
M  V30 98 1 17 92
M  V30 99 1 18 93
M  V30 100 1 21 94
M  V30 101 1 21 95
M  V30 102 1 22 96
M  V30 103 1 22 97
M  V30 104 1 23 98
M  V30 105 1 23 99
M  V30 106 1 26 100
M  V30 107 1 27 101
M  V30 108 1 30 102
M  V30 109 1 30 103
M  V30 110 1 31 104
M  V30 111 1 31 105
M  V30 112 1 32 106
M  V30 113 1 32 107
M  V30 114 1 35 108
M  V30 115 1 37 109
M  V30 116 1 37 110
M  V30 117 1 39 111
M  V30 118 1 42 112
M  V30 119 1 42 113
M  V30 120 1 42 114
M  V30 121 1 46 115
M  V30 122 1 46 116
M  V30 123 1 47 117
M  V30 124 1 47 118
M  V30 125 1 48 119
M  V30 126 1 48 120
M  V30 127 1 49 121 CFG=3
M  V30 128 1 50 122
M  V30 129 1 52 123
M  V30 130 1 52 124
M  V30 131 1 53 125
M  V30 132 1 53 126
M  V30 133 1 53 127
M  V30 134 1 55 128
M  V30 135 1 55 129
M  V30 136 1 56 130
M  V30 137 1 56 131
M  V30 138 1 56 132
M  V30 139 1 62 133
M  V30 140 1 63 134
M  V30 141 1 64 135
M  V30 142 1 65 136
M  V30 143 1 71 137
M  V30 144 1 71 138
M  V30 145 1 71 139
M  V30 146 1 72 140
M  V30 END BOND
M  V30 END CTAB
M  END
