
     RDKit          3D

  0  0  0  0  0  0  0  0  0  0999 V3000
M  V30 BEGIN CTAB
M  V30 COUNTS 22 23 0 0 0
M  V30 BEGIN ATOM
M  V30 1 C 4.36638 0.584438 -0.199183 0
M  V30 2 N 2.99388 0.937538 0.112933 0
M  V30 3 N 2.51402 2.11113 0.507079 0
M  V30 4 N 1.18683 1.99807 0.685563 0
M  V30 5 C 0.821637 0.75088 0.404629 0
M  V30 6 C 1.95724 0.0631484 0.0389964 0
M  V30 7 C -0.529569 0.217063 0.472732 0
M  V30 8 N -0.780418 -1.07253 0.162279 0
M  V30 9 C -2.01682 -1.59939 0.214175 0
M  V30 10 N -2.26376 -2.95971 -0.116084 0
M  V30 11 N -3.02593 -0.807523 0.588144 0
M  V30 12 C -2.83258 0.483447 0.908032 0
M  V30 13 N -1.57873 0.971029 0.842727 0
M  V30 14 N -3.87799 1.35616 1.30965 0
M  V30 15 H 5.05521 1.12352 0.499558 0
M  V30 16 H 4.54461 -0.493815 -0.0248581 0
M  V30 17 H 4.61937 0.88721 -1.23771 0
M  V30 18 H 2.04552 -0.97162 -0.255785 0
M  V30 19 H -2.19817 -3.21361 -1.13189 0
M  V30 20 H -2.50091 -3.68983 0.600448 0
M  V30 21 H -4.46407 1.09563 2.15166 0
M  V30 22 H -4.03575 2.22877 0.760738 0
M  V30 END ATOM
M  V30 BEGIN BOND
M  V30 1 1 1 2
M  V30 2 1 2 3
M  V30 3 2 3 4
M  V30 4 1 4 5
M  V30 5 2 5 6
M  V30 6 1 5 7
M  V30 7 2 7 8
M  V30 8 1 8 9
M  V30 9 1 9 10
M  V30 10 2 9 11
M  V30 11 1 11 12
M  V30 12 2 12 13
M  V30 13 1 12 14
M  V30 14 1 6 2
M  V30 15 1 13 7
M  V30 16 1 1 15
M  V30 17 1 1 16
M  V30 18 1 1 17
M  V30 19 1 6 18
M  V30 20 1 10 19
M  V30 21 1 10 20
M  V30 22 1 14 21
M  V30 23 1 14 22
M  V30 END BOND
M  V30 END CTAB
M  END
