
     RDKit          3D

  0  0  0  0  0  0  0  0  0  0999 V3000
M  V30 BEGIN CTAB
M  V30 COUNTS 26 26 0 0 0
M  V30 BEGIN ATOM
M  V30 1 N 0.449577 -1.36825 -2.12409 0
M  V30 2 C -0.0308532 -1.09602 -0.757576 0
M  V30 3 C 1.11536 -0.63879 0.0351792 0
M  V30 4 N 1.44025 -1.03991 1.26433 0
M  V30 5 N 2.52848 -0.403293 1.63473 0
M  V30 6 C 2.92444 0.420221 0.649982 0
M  V30 7 N 2.0234 0.258758 -0.348692 0
M  V30 8 N 4.03751 1.29598 0.596841 0
M  V30 9 C -1.02301 0.0309031 -0.8996 0
M  V30 10 N -1.60674 0.437526 0.337896 0
M  V30 11 C -2.49521 -0.5481 0.921353 0
M  V30 12 C -2.39649 1.63212 0.123064 0
M  V30 13 H 1.24319 -2.07606 -2.04587 0
M  V30 14 H 0.933017 -0.492687 -2.47281 0
M  V30 15 H -0.483926 -2.03243 -0.420823 0
M  V30 16 H 0.896976 -1.75792 1.82936 0
M  V30 17 H 4.48505 1.44405 -0.334809 0
M  V30 18 H 4.41427 1.78796 1.42719 0
M  V30 19 H -0.461878 0.903784 -1.30765 0
M  V30 20 H -1.80248 -0.251464 -1.63152 0
M  V30 21 H -3.16732 -0.997973 0.164162 0
M  V30 22 H -1.97875 -1.29736 1.54549 0
M  V30 23 H -3.1652 0.0261332 1.61748 0
M  V30 24 H -1.86171 2.31962 -0.55791 0
M  V30 25 H -3.35835 1.30594 -0.329356 0
M  V30 26 H -2.6596 2.13728 1.08364 0
M  V30 END ATOM
M  V30 BEGIN BOND
M  V30 1 1 1 2
M  V30 2 1 2 3
M  V30 3 1 3 4
M  V30 4 1 4 5
M  V30 5 2 5 6
M  V30 6 1 6 7
M  V30 7 1 6 8
M  V30 8 1 2 9
M  V30 9 1 9 10
M  V30 10 1 10 11
M  V30 11 1 10 12
M  V30 12 2 7 3
M  V30 13 1 1 13
M  V30 14 1 1 14
M  V30 15 1 2 15
M  V30 16 1 4 16
M  V30 17 1 8 17
M  V30 18 1 8 18
M  V30 19 1 9 19
M  V30 20 1 9 20
M  V30 21 1 11 21
M  V30 22 1 11 22
M  V30 23 1 11 23
M  V30 24 1 12 24
M  V30 25 1 12 25
M  V30 26 1 12 26
M  V30 END BOND
M  V30 END CTAB
M  END
