
     RDKit          3D

  0  0  0  0  0  0  0  0  0  0999 V3000
M  V30 BEGIN CTAB
M  V30 COUNTS 29 29 0 0 0
M  V30 BEGIN ATOM
M  V30 1 C -2.76379 3.27717 -0.249887 0
M  V30 2 C -2.34522 2.29023 -0.817522 0
M  V30 3 C -1.79898 1.08994 -1.50196 0
M  V30 4 N -1.47968 0.10694 -0.470309 0
M  V30 5 C -0.138248 -0.224876 -0.29268 0
M  V30 6 C 0.320586 -1.50086 -0.591055 0
M  V30 7 C 1.66388 -1.78479 -0.474375 0
M  V30 8 C 2.60949 -0.865831 -0.0709052 0
M  V30 9 C 2.14615 0.404958 0.226003 0
M  V30 10 C 0.813224 0.71022 0.115759 0
M  V30 11 N 3.14153 1.34562 0.620216 0
M  V30 12 N 3.99723 -1.1891 0.0402547 0
M  V30 13 C -2.55077 -0.482666 0.247659 0
M  V30 14 C -2.21705 -1.30475 1.44009 0
M  V30 15 H -3.10435 4.14334 0.245585 0
M  V30 16 H -0.872194 1.40002 -2.05288 0
M  V30 17 H -2.51021 0.731372 -2.26234 0
M  V30 18 H -0.370721 -2.28135 -0.915199 0
M  V30 19 H 1.99448 -2.79002 -0.719395 0
M  V30 20 H 0.487619 1.71464 0.355683 0
M  V30 21 H 3.52467 2.04606 -0.0730565 0
M  V30 22 H 3.46698 1.3025 1.61223 0
M  V30 23 H 4.71115 -0.447611 0.130664 0
M  V30 24 H 4.33082 -2.16764 0.0334337 0
M  V30 25 H -3.15321 -1.15018 -0.469417 0
M  V30 26 H -3.31604 0.291992 0.573944 0
M  V30 27 H -1.1747 -1.62165 1.53615 0
M  V30 28 H -2.8288 -2.25477 1.39646 0
M  V30 29 H -2.58383 -0.788912 2.38685 0
M  V30 END ATOM
M  V30 BEGIN BOND
M  V30 1 3 1 2
M  V30 2 1 2 3
M  V30 3 1 3 4
M  V30 4 1 4 5
M  V30 5 2 5 6
M  V30 6 1 6 7
M  V30 7 2 7 8
M  V30 8 1 8 9
M  V30 9 2 9 10
M  V30 10 1 9 11
M  V30 11 1 8 12
M  V30 12 1 4 13
M  V30 13 1 13 14
M  V30 14 1 10 5
M  V30 15 1 1 15
M  V30 16 1 3 16
M  V30 17 1 3 17
M  V30 18 1 6 18
M  V30 19 1 7 19
M  V30 20 1 10 20
M  V30 21 1 11 21
M  V30 22 1 11 22
M  V30 23 1 12 23
M  V30 24 1 12 24
M  V30 25 1 13 25
M  V30 26 1 13 26
M  V30 27 1 14 27
M  V30 28 1 14 28
M  V30 29 1 14 29
M  V30 END BOND
M  V30 END CTAB
M  END
