
     RDKit          3D

  0  0  0  0  0  0  0  0  0  0999 V3000
M  V30 BEGIN CTAB
M  V30 COUNTS 25 26 0 0 0
M  V30 BEGIN ATOM
M  V30 1 N 3.29028 1.49093 -1.4141 0
M  V30 2 C 2.55161 0.686068 -0.508657 0
M  V30 3 N 1.47521 1.11437 0.152813 0
M  V30 4 C 0.777597 0.343675 1.01289 0
M  V30 5 S -0.643802 0.994249 1.8547 0
M  V30 6 C -2.18234 0.78019 0.99367 0
M  V30 7 C -2.64295 -0.648628 0.839955 0
M  V30 8 O -3.48174 -0.517676 -0.290958 0
M  V30 9 C -2.68291 0.136906 -1.20629 0
M  V30 10 C -2.08375 1.28522 -0.430138 0
M  V30 11 N 1.23659 -0.91377 1.17311 0
M  V30 12 C 2.32315 -1.39127 0.5239 0
M  V30 13 N 2.993 -0.589355 -0.327327 0
M  V30 14 N 2.80329 -2.69994 0.690431 0
M  V30 15 H 4.32565 1.59125 -1.36535 0
M  V30 16 H 2.82179 2.03141 -2.1872 0
M  V30 17 H -2.96576 1.36463 1.48743 0
M  V30 18 H -1.83991 -1.36646 0.677916 0
M  V30 19 H -3.31573 -0.923975 1.68231 0
M  V30 20 H -3.25315 0.505227 -2.08213 0
M  V30 21 H -1.84854 -0.533488 -1.49298 0
M  V30 22 H -1.00441 1.39994 -0.707066 0
M  V30 23 H -2.61888 2.23903 -0.585884 0
M  V30 24 H 2.87904 -3.11611 1.64076 0
M  V30 25 H 3.08667 -3.26242 -0.131803 0
M  V30 END ATOM
M  V30 BEGIN BOND
M  V30 1 1 1 2
M  V30 2 2 2 3
M  V30 3 1 3 4
M  V30 4 1 4 5
M  V30 5 1 5 6
M  V30 6 1 6 7
M  V30 7 1 7 8
M  V30 8 1 8 9
M  V30 9 1 9 10
M  V30 10 2 4 11
M  V30 11 1 11 12
M  V30 12 2 12 13
M  V30 13 1 12 14
M  V30 14 1 13 2
M  V30 15 1 10 6
M  V30 16 1 1 15
M  V30 17 1 1 16
M  V30 18 1 6 17
M  V30 19 1 7 18
M  V30 20 1 7 19
M  V30 21 1 9 20
M  V30 22 1 9 21
M  V30 23 1 10 22
M  V30 24 1 10 23
M  V30 25 1 14 24
M  V30 26 1 14 25
M  V30 END BOND
M  V30 END CTAB
M  END
