
     RDKit          3D

  0  0  0  0  0  0  0  0  0  0999 V3000
M  V30 BEGIN CTAB
M  V30 COUNTS 79 82 0 0 0
M  V30 BEGIN ATOM
M  V30 1 C 1.493 0.453767 2.56769 0
M  V30 2 O 0.830962 0.567426 1.32496 0
M  V30 3 C 0.385542 1.83602 0.844484 0
M  V30 4 O 0.646835 2.76491 1.62548 0
M  V30 5 C -0.287585 1.94976 -0.413429 0
M  V30 6 N 0.258183 1.2117 -1.48709 0
M  V30 7 C 1.50668 1.45043 -2.02985 0
M  V30 8 C 2.72118 1.26929 -1.2014 0
M  V30 9 N 3.31112 2.30634 -0.558686 0
M  V30 10 C 4.40942 2.21279 0.181695 0
M  V30 11 N 4.99257 3.35437 0.842214 0
M  V30 12 N 4.9674 0.998552 0.295316 0
M  V30 13 C 4.46513 -0.0775019 -0.295089 0
M  V30 14 N 3.31764 0.0734471 -1.0572 0
M  V30 15 N 5.03241 -1.36613 -0.188609 0
M  V30 16 C 6.16979 -1.75974 0.513951 0
M  V30 17 C 6.96656 -0.922818 1.24212 0
M  V30 18 C 8.10978 -1.37751 1.9354 0
M  V30 19 C 8.45281 -2.70596 1.8902 0
M  V30 20 C 7.67227 -3.5715 1.16723 0
M  V30 21 C 6.57897 -3.10705 0.510599 0
M  V30 22 C 5.7453 -4.05516 -0.269015 0
M  V30 23 C -0.67886 0.528464 -2.33412 0
M  V30 24 C -1.52823 -0.466166 -1.6154 0
M  V30 25 N -0.97151 -1.50995 -0.959594 0
M  V30 26 C -1.74351 -2.41716 -0.312219 0
M  V30 27 N -1.1368 -3.50904 0.371847 0
M  V30 28 N -3.06089 -2.22617 -0.357678 0
M  V30 29 C -3.69699 -1.24142 -0.969924 0
M  V30 30 N -2.85766 -0.351782 -1.60933 0
M  V30 31 N -5.09513 -1.01426 -1.03874 0
M  V30 32 C -6.07495 -1.80851 -0.456022 0
M  V30 33 C -5.91053 -2.93784 0.308242 0
M  V30 34 C -6.99496 -3.6474 0.843783 0
M  V30 35 C -8.28317 -3.25313 0.634685 0
M  V30 36 C -8.46489 -2.12479 -0.128352 0
M  V30 37 C -7.41118 -1.4188 -0.660205 0
M  V30 38 C -7.69281 -0.226167 -1.4645 0
M  V30 39 C -0.923968 3.22839 -0.740926 0
M  V30 40 C -2.06041 3.76498 0.0250707 0
M  V30 41 C -2.42044 5.11587 -0.692426 0
M  V30 42 C -1.94057 4.15565 1.44326 0
M  V30 43 H 2.15584 -0.427844 2.60719 0
M  V30 44 H 2.18495 1.33812 2.67345 0
M  V30 45 H 0.791695 0.530779 3.41911 0
M  V30 46 H -1.27928 1.27288 -0.199969 0
M  V30 47 H 1.62691 2.43775 -2.55451 0
M  V30 48 H 1.64304 0.720347 -2.90014 0
M  V30 49 H 4.58062 3.65249 1.73362 0
M  V30 50 H 5.80962 3.83 0.385033 0
M  V30 51 H 4.52524 -2.1629 -0.718494 0
M  V30 52 H 6.80787 0.131455 1.35587 0
M  V30 53 H 8.73133 -0.703425 2.50792 0
M  V30 54 H 9.32108 -3.06487 2.41329 0
M  V30 55 H 7.96811 -4.62117 1.14961 0
M  V30 56 H 6.15462 -5.0713 -0.230135 0
M  V30 57 H 4.74123 -4.07979 0.190446 0
M  V30 58 H 5.71393 -3.70157 -1.33484 0
M  V30 59 H -1.34387 1.21053 -2.89582 0
M  V30 60 H -0.0934058 -0.0274377 -3.09582 0
M  V30 61 H -0.724351 -3.39948 1.32368 0
M  V30 62 H -1.07171 -4.47019 -0.0359429 0
M  V30 63 H -5.40701 -0.14293 -1.59669 0
M  V30 64 H -4.9157 -3.29658 0.507984 0
M  V30 65 H -6.78325 -4.51745 1.42837 0
M  V30 66 H -9.14344 -3.79032 1.04189 0
M  V30 67 H -9.48962 -1.7917 -0.308357 0
M  V30 68 H -7.39601 0.715849 -0.956319 0
M  V30 69 H -7.2356 -0.327395 -2.47082 0
M  V30 70 H -8.78311 -0.156205 -1.64114 0
M  V30 71 H -1.19821 3.31347 -1.83624 0
M  V30 72 H -0.108568 4.04462 -0.678483 0
M  V30 73 H -3.00384 3.1549 -0.114583 0
M  V30 74 H -3.32392 5.46035 -0.149374 0
M  V30 75 H -1.6138 5.84381 -0.467412 0
M  V30 76 H -2.55316 4.94482 -1.75777 0
M  V30 77 H -2.02678 3.34312 2.1918 0
M  V30 78 H -1.15858 4.89857 1.62489 0
M  V30 79 H -2.90139 4.76249 1.6603 0
M  V30 END ATOM
M  V30 BEGIN BOND
M  V30 1 1 1 2
M  V30 2 1 2 3
M  V30 3 2 3 4
M  V30 4 1 3 5
M  V30 5 1 5 6
M  V30 6 1 6 7
M  V30 7 1 7 8
M  V30 8 2 8 9
M  V30 9 1 9 10
M  V30 10 1 10 11
M  V30 11 2 10 12
M  V30 12 1 12 13
M  V30 13 2 13 14
M  V30 14 1 13 15
M  V30 15 1 15 16
M  V30 16 2 16 17
M  V30 17 1 17 18
M  V30 18 2 18 19
M  V30 19 1 19 20
M  V30 20 2 20 21
M  V30 21 1 21 22
M  V30 22 1 6 23
M  V30 23 1 23 24
M  V30 24 2 24 25
M  V30 25 1 25 26
M  V30 26 1 26 27
M  V30 27 2 26 28
M  V30 28 1 28 29
M  V30 29 2 29 30
M  V30 30 1 29 31
M  V30 31 1 31 32
M  V30 32 2 32 33
M  V30 33 1 33 34
M  V30 34 2 34 35
M  V30 35 1 35 36
M  V30 36 2 36 37
M  V30 37 1 37 38
M  V30 38 1 5 39
M  V30 39 1 39 40
M  V30 40 1 40 41
M  V30 41 1 40 42
M  V30 42 1 14 8
M  V30 43 1 21 16
M  V30 44 1 30 24
M  V30 45 1 37 32
M  V30 46 1 1 43
M  V30 47 1 1 44
M  V30 48 1 1 45
M  V30 49 1 5 46
M  V30 50 1 7 47
M  V30 51 1 7 48
M  V30 52 1 11 49
M  V30 53 1 11 50
M  V30 54 1 15 51
M  V30 55 1 17 52
M  V30 56 1 18 53
M  V30 57 1 19 54
M  V30 58 1 20 55
M  V30 59 1 22 56
M  V30 60 1 22 57
M  V30 61 1 22 58
M  V30 62 1 23 59
M  V30 63 1 23 60
M  V30 64 1 27 61
M  V30 65 1 27 62
M  V30 66 1 31 63
M  V30 67 1 33 64
M  V30 68 1 34 65
M  V30 69 1 35 66
M  V30 70 1 36 67
M  V30 71 1 38 68
M  V30 72 1 38 69
M  V30 73 1 38 70
M  V30 74 1 39 71
M  V30 75 1 39 72
M  V30 76 1 40 73
M  V30 77 1 41 74
M  V30 78 1 41 75
M  V30 79 1 41 76
M  V30 80 1 42 77
M  V30 81 1 42 78
M  V30 82 1 42 79
M  V30 END BOND
M  V30 END CTAB
M  END
