
     RDKit          3D

  0  0  0  0  0  0  0  0  0  0999 V3000
M  V30 BEGIN CTAB
M  V30 COUNTS 45 47 0 0 0
M  V30 BEGIN ATOM
M  V30 1 N -3.27517 -4.0951 -1.44635 0
M  V30 2 C -2.62943 -2.87355 -1.01389 0
M  V30 3 N -2.9191 -2.39585 0.13754 0
M  V30 4 C -2.37925 -1.1962 0.686203 0
M  V30 5 N -1.14666 -0.818505 0.0259714 0
M  V30 6 C -0.228535 -0.0014662 0.793268 0
M  V30 7 C 1.01997 0.453181 0.164487 0
M  V30 8 C 1.80123 1.29709 1.2059 0
M  V30 9 O 2.98515 1.78921 0.77599 0
M  V30 10 C 4.17115 1.27675 0.359717 0
M  V30 11 C 4.50539 -0.0560456 0.28398 0
M  V30 12 C 5.78002 -0.40468 -0.174281 0
M  V30 13 C 6.71148 0.535689 -0.551361 0
M  V30 14 Cl 8.31284 0.110178 -1.12792 0
M  V30 15 C 6.38146 1.87456 -0.476632 0
M  V30 16 C 5.13772 2.22369 -0.0300876 0
M  V30 17 C -0.879347 -1.32317 -1.26661 0
M  V30 18 N 0.145793 -0.751075 -2.07154 0
M  V30 19 N -1.58158 -2.31272 -1.75728 0
M  V30 20 C -3.37037 -0.0879912 0.504603 0
M  V30 21 C -3.11867 1.13688 -0.0245206 0
M  V30 22 C -4.13479 2.09255 -0.176037 0
M  V30 23 C -5.41651 1.80274 0.211542 0
M  V30 24 C -5.69669 0.565278 0.750708 0
M  V30 25 C -4.68669 -0.361714 0.892947 0
M  V30 26 Cl -5.05624 -1.94441 1.58521 0
M  V30 27 H -2.76351 -4.98166 -1.49694 0
M  V30 28 H -4.26654 -4.03826 -1.70053 0
M  V30 29 H -2.23795 -1.26639 1.79255 0
M  V30 30 H 0.101993 -0.717627 1.63596 0
M  V30 31 H -0.715434 0.809041 1.37378 0
M  V30 32 H 1.71928 -0.313406 -0.146261 0
M  V30 33 H 0.778717 1.22527 -0.623081 0
M  V30 34 H 1.86334 0.705791 2.16127 0
M  V30 35 H 1.12474 2.16003 1.4734 0
M  V30 36 H 3.81239 -0.827326 0.582899 0
M  V30 37 H 6.03305 -1.4455 -0.230842 0
M  V30 38 H 7.10626 2.64378 -0.771323 0
M  V30 39 H 4.91544 3.29498 0.0143345 0
M  V30 40 H 0.0271001 0.150418 -2.56101 0
M  V30 41 H 1.0354 -1.26585 -2.17467 0
M  V30 42 H -2.12208 1.37803 -0.354356 0
M  V30 43 H -3.9088 3.05569 -0.597412 0
M  V30 44 H -6.21771 2.5522 0.0935713 0
M  V30 45 H -6.71885 0.345455 1.05488 0
M  V30 END ATOM
M  V30 BEGIN BOND
M  V30 1 1 1 2
M  V30 2 2 2 3
M  V30 3 1 3 4
M  V30 4 1 4 5
M  V30 5 1 5 6
M  V30 6 1 6 7
M  V30 7 1 7 8
M  V30 8 1 8 9
M  V30 9 1 9 10
M  V30 10 2 10 11
M  V30 11 1 11 12
M  V30 12 2 12 13
M  V30 13 1 13 14
M  V30 14 1 13 15
M  V30 15 2 15 16
M  V30 16 1 5 17
M  V30 17 1 17 18
M  V30 18 2 17 19
M  V30 19 1 4 20
M  V30 20 2 20 21
M  V30 21 1 21 22
M  V30 22 2 22 23
M  V30 23 1 23 24
M  V30 24 2 24 25
M  V30 25 1 25 26
M  V30 26 1 19 2
M  V30 27 1 25 20
M  V30 28 1 16 10
M  V30 29 1 1 27
M  V30 30 1 1 28
M  V30 31 1 4 29
M  V30 32 1 6 30
M  V30 33 1 6 31
M  V30 34 1 7 32
M  V30 35 1 7 33
M  V30 36 1 8 34
M  V30 37 1 8 35
M  V30 38 1 11 36
M  V30 39 1 12 37
M  V30 40 1 15 38
M  V30 41 1 16 39
M  V30 42 1 18 40
M  V30 43 1 18 41
M  V30 44 1 21 42
M  V30 45 1 22 43
M  V30 46 1 23 44
M  V30 47 1 24 45
M  V30 END BOND
M  V30 END CTAB
M  END
