
     RDKit          3D

  0  0  0  0  0  0  0  0  0  0999 V3000
M  V30 BEGIN CTAB
M  V30 COUNTS 17 17 0 0 0
M  V30 BEGIN ATOM
M  V30 1 O -2.56682 0.986501 -0.341726 0
M  V30 2 C -1.23017 0.655827 -0.201305 0
M  V30 3 C -0.909032 -0.644848 0.11132 0
M  V30 4 N -1.87922 -1.66976 0.298262 0
M  V30 5 C 0.444384 -0.944879 0.245555 0
M  V30 6 C 1.40349 0.0309966 0.0692686 0
M  V30 7 C 1.06802 1.33227 -0.244189 0
M  V30 8 C -0.272589 1.64189 -0.379994 0
M  V30 9 F -0.611234 2.91885 -0.688055 0
M  V30 10 Cl 2.29821 2.56965 -0.467029 0
M  V30 11 N 2.78706 -0.27215 0.205674 0
M  V30 12 H -3.28614 0.305074 -0.22104 0
M  V30 13 H -2.75795 -1.66552 -0.269028 0
M  V30 14 H -1.76804 -2.44121 0.978978 0
M  V30 15 H 0.704402 -1.97343 0.493069 0
M  V30 16 H 3.38799 0.0589003 0.970181 0
M  V30 17 H 3.18764 -0.888144 -0.559943 0
M  V30 END ATOM
M  V30 BEGIN BOND
M  V30 1 1 1 2
M  V30 2 2 2 3
M  V30 3 1 3 4
M  V30 4 1 3 5
M  V30 5 2 5 6
M  V30 6 1 6 7
M  V30 7 2 7 8
M  V30 8 1 8 9
M  V30 9 1 7 10
M  V30 10 1 6 11
M  V30 11 1 8 2
M  V30 12 1 1 12
M  V30 13 1 4 13
M  V30 14 1 4 14
M  V30 15 1 5 15
M  V30 16 1 11 16
M  V30 17 1 11 17
M  V30 END BOND
M  V30 END CTAB
M  END
