
     RDKit          3D

  0  0  0  0  0  0  0  0  0  0999 V3000
M  V30 BEGIN CTAB
M  V30 COUNTS 31 31 0 0 0
M  V30 BEGIN ATOM
M  V30 1 C -4.70159 0.264482 0.224826 0
M  V30 2 C -3.20979 0.326733 0.420335 0
M  V30 3 S -2.41592 -1.21918 0.123255 0
M  V30 4 O -2.62894 -1.59584 -1.31552 0
M  V30 5 O -2.96508 -2.31951 0.962507 0
M  V30 6 C -0.670975 -1.0081 0.387051 0
M  V30 7 C -0.185441 0.0445639 -0.583115 0
M  V30 8 C 1.25736 0.306371 -0.456585 0
M  V30 9 C 1.86511 1.07759 -1.42501 0
M  V30 10 C 3.21152 1.34548 -1.34334 0
M  V30 11 C 3.94069 0.848194 -0.306099 0
M  V30 12 C 3.35937 0.0744251 0.675995 0
M  V30 13 C 2.01519 -0.187429 0.585823 0
M  V30 14 N 4.1431 -0.431144 1.7462 0
M  V30 15 N -0.582697 -0.324438 -1.92614 0
M  V30 16 H -5.06735 1.31507 0.200027 0
M  V30 17 H -4.99825 -0.258087 -0.697974 0
M  V30 18 H -5.17155 -0.192396 1.13473 0
M  V30 19 H -2.79684 1.06356 -0.299477 0
M  V30 20 H -3.02143 0.713806 1.43007 0
M  V30 21 H -0.114046 -1.95922 0.231798 0
M  V30 22 H -0.475717 -0.67977 1.43071 0
M  V30 23 H -0.724527 0.990908 -0.330115 0
M  V30 24 H 1.32064 1.4897 -2.26259 0
M  V30 25 H 3.68121 1.9477 -2.10136 0
M  V30 26 H 5.01644 1.06835 -0.250299 0
M  V30 27 H 1.56587 -0.79426 1.35842 0
M  V30 28 H 3.94531 -1.3817 2.13999 0
M  V30 29 H 4.90913 0.107352 2.15641 0
M  V30 30 H -0.451442 0.515227 -2.53042 0
M  V30 31 H -0.0493552 -1.14844 -2.24122 0
M  V30 END ATOM
M  V30 BEGIN BOND
M  V30 1 1 1 2
M  V30 2 1 2 3
M  V30 3 2 3 4
M  V30 4 2 3 5
M  V30 5 1 3 6
M  V30 6 1 6 7
M  V30 7 1 7 8
M  V30 8 2 8 9
M  V30 9 1 9 10
M  V30 10 2 10 11
M  V30 11 1 11 12
M  V30 12 2 12 13
M  V30 13 1 12 14
M  V30 14 1 7 15
M  V30 15 1 13 8
M  V30 16 1 1 16
M  V30 17 1 1 17
M  V30 18 1 1 18
M  V30 19 1 2 19
M  V30 20 1 2 20
M  V30 21 1 6 21
M  V30 22 1 6 22
M  V30 23 1 7 23
M  V30 24 1 9 24
M  V30 25 1 10 25
M  V30 26 1 11 26
M  V30 27 1 13 27
M  V30 28 1 14 28
M  V30 29 1 14 29
M  V30 30 1 15 30
M  V30 31 1 15 31
M  V30 END BOND
M  V30 END CTAB
M  END
