
     RDKit          3D

  0  0  0  0  0  0  0  0  0  0999 V3000
M  V30 BEGIN CTAB
M  V30 COUNTS 26 26 0 0 0
M  V30 BEGIN ATOM
M  V30 1 C 4.72027 0.0281023 0.15471 0
M  V30 2 C 3.47869 -0.797897 0.0519414 0
M  V30 3 C 2.23075 0.0925298 0.123853 0
M  V30 4 O 1.12598 -0.785501 0.0178172 0
M  V30 5 C -0.184911 -0.313982 0.0461344 0
M  V30 6 C -1.24115 -1.19184 -0.0591696 0
M  V30 7 C -2.52319 -0.670417 -0.0253592 0
M  V30 8 N -3.62513 -1.57328 -0.133897 0
M  V30 9 N -4.94021 -1.09707 -0.105059 0
M  V30 10 N -2.74122 0.648326 0.105674 0
M  V30 11 C -1.70549 1.501 0.208114 0
M  V30 12 N -0.467458 0.994781 0.175187 0
M  V30 13 N -1.95436 2.90778 0.347617 0
M  V30 14 H 4.71493 0.941986 -0.461256 0
M  V30 15 H 5.58294 -0.628981 -0.138677 0
M  V30 16 H 4.89766 0.292851 1.21332 0
M  V30 17 H 3.4543 -1.52045 0.882626 0
M  V30 18 H 3.41941 -1.32714 -0.938023 0
M  V30 19 H 2.2892 0.782112 -0.753375 0
M  V30 20 H 2.21095 0.666252 1.06493 0
M  V30 21 H -1.0598 -2.26404 -0.165662 0
M  V30 22 H -3.48827 -2.58447 -0.234888 0
M  V30 23 H -5.14439 -0.709558 -1.0535 0
M  V30 24 H -4.93961 -0.28112 0.553506 0
M  V30 25 H -2.70136 3.37494 -0.202695 0
M  V30 26 H -1.40852 3.51509 0.994507 0
M  V30 END ATOM
M  V30 BEGIN BOND
M  V30 1 1 1 2
M  V30 2 1 2 3
M  V30 3 1 3 4
M  V30 4 1 4 5
M  V30 5 2 5 6
M  V30 6 1 6 7
M  V30 7 1 7 8
M  V30 8 1 8 9
M  V30 9 2 7 10
M  V30 10 1 10 11
M  V30 11 2 11 12
M  V30 12 1 11 13
M  V30 13 1 12 5
M  V30 14 1 1 14
M  V30 15 1 1 15
M  V30 16 1 1 16
M  V30 17 1 2 17
M  V30 18 1 2 18
M  V30 19 1 3 19
M  V30 20 1 3 20
M  V30 21 1 6 21
M  V30 22 1 8 22
M  V30 23 1 9 23
M  V30 24 1 9 24
M  V30 25 1 13 25
M  V30 26 1 13 26
M  V30 END BOND
M  V30 END CTAB
M  END
