
     RDKit          3D

  0  0  0  0  0  0  0  0  0  0999 V3000
M  V30 BEGIN CTAB
M  V30 COUNTS 28 29 0 0 0
M  V30 BEGIN ATOM
M  V30 1 Br 7.206 0.187742 0.357634 0
M  V30 2 C 5.31697 0.0221739 0.11848 0
M  V30 3 C 4.54153 -0.517068 1.11965 0
M  V30 4 C 3.19022 -0.63548 0.948503 0
M  V30 5 C 2.55418 -0.230528 -0.206698 0
M  V30 6 C 3.32434 0.304799 -1.20049 0
M  V30 7 C 4.68884 0.428824 -1.03807 0
M  V30 8 C 1.09882 -0.405181 -0.281158 0
M  V30 9 S 0.171172 0.998859 0.322042 0
M  V30 10 C -1.5716 0.637002 0.167298 0
M  V30 11 N -2.00005 -0.551043 -0.342642 0
M  V30 12 C -3.31127 -0.824176 -0.459454 0
M  V30 13 N -3.71642 -2.06965 -0.994049 0
M  V30 14 C -4.27933 0.0770918 -0.0721572 0
M  V30 15 C -3.83291 1.27893 0.443701 0
M  V30 16 N -2.51684 1.5332 0.552417 0
M  V30 17 N -4.82399 2.21705 0.846821 0
M  V30 18 H 5.00016 -0.84941 2.04671 0
M  V30 19 H 2.62409 -1.07201 1.77936 0
M  V30 20 H 2.84881 0.627718 -2.11121 0
M  V30 21 H 5.32257 0.856806 -1.82667 0
M  V30 22 H 0.846705 -0.535707 -1.3717 0
M  V30 23 H 0.817887 -1.30132 0.299244 0
M  V30 24 H -3.11779 -2.64376 -1.64047 0
M  V30 25 H -4.65587 -2.50871 -0.776766 0
M  V30 26 H -5.33249 -0.149985 -0.169284 0
M  V30 27 H -5.28221 2.89483 0.208301 0
M  V30 28 H -5.11151 2.22899 1.84337 0
M  V30 END ATOM
M  V30 BEGIN BOND
M  V30 1 1 1 2
M  V30 2 2 2 3
M  V30 3 1 3 4
M  V30 4 2 4 5
M  V30 5 1 5 6
M  V30 6 2 6 7
M  V30 7 1 5 8
M  V30 8 1 8 9
M  V30 9 1 9 10
M  V30 10 2 10 11
M  V30 11 1 11 12
M  V30 12 1 12 13
M  V30 13 2 12 14
M  V30 14 1 14 15
M  V30 15 2 15 16
M  V30 16 1 15 17
M  V30 17 1 7 2
M  V30 18 1 16 10
M  V30 19 1 3 18
M  V30 20 1 4 19
M  V30 21 1 6 20
M  V30 22 1 7 21
M  V30 23 1 8 22
M  V30 24 1 8 23
M  V30 25 1 13 24
M  V30 26 1 13 25
M  V30 27 1 14 26
M  V30 28 1 17 27
M  V30 29 1 17 28
M  V30 END BOND
M  V30 END CTAB
M  END
