
     RDKit          3D

  0  0  0  0  0  0  0  0  0  0999 V3000
M  V30 BEGIN CTAB
M  V30 COUNTS 27 27 0 0 0
M  V30 BEGIN ATOM
M  V30 1 C 3.7473 -0.344831 -1.3547 0
M  V30 2 O 2.91784 -0.855288 -0.377321 0
M  V30 3 C 2.28023 0.209957 0.260344 0
M  V30 4 C 0.807299 0.130268 0.137903 0
M  V30 5 N 0.0625752 0.358696 1.23234 0
M  V30 6 C -1.26859 0.310145 1.22272 0
M  V30 7 C -1.91736 0.014958 0.0496279 0
M  V30 8 C -1.1754 -0.223465 -1.0874 0
M  V30 9 N 0.151706 -0.154412 -0.988945 0
M  V30 10 N -1.84442 -0.532926 -2.3189 0
M  V30 11 C -3.39873 -0.0369797 0.0478144 0
M  V30 12 N -3.87841 0.249411 1.35201 0
M  V30 13 C 2.68926 0.168997 1.70873 0
M  V30 14 H 4.28575 -1.14748 -1.9007 0
M  V30 15 H 4.53193 0.341536 -0.927237 0
M  V30 16 H 3.16707 0.204329 -2.14664 0
M  V30 17 H 2.6004 1.18487 -0.177563 0
M  V30 18 H -1.81495 0.504365 2.14025 0
M  V30 19 H -2.25028 -1.47443 -2.48081 0
M  V30 20 H -1.94107 0.175364 -3.08138 0
M  V30 21 H -3.66103 -1.11368 -0.175181 0
M  V30 22 H -3.84058 0.583496 -0.754165 0
M  V30 23 H -4.74469 -0.256011 1.62792 0
M  V30 24 H -3.85896 1.23881 1.62995 0
M  V30 25 H 3.65136 -0.351718 1.87553 0
M  V30 26 H 1.94131 -0.372552 2.3439 0
M  V30 27 H 2.76046 1.18856 2.14191 0
M  V30 END ATOM
M  V30 BEGIN BOND
M  V30 1 1 1 2
M  V30 2 1 2 3
M  V30 3 1 3 4
M  V30 4 2 4 5
M  V30 5 1 5 6
M  V30 6 2 6 7
M  V30 7 1 7 8
M  V30 8 2 8 9
M  V30 9 1 8 10
M  V30 10 1 7 11
M  V30 11 1 11 12
M  V30 12 1 3 13
M  V30 13 1 9 4
M  V30 14 1 1 14
M  V30 15 1 1 15
M  V30 16 1 1 16
M  V30 17 1 3 17
M  V30 18 1 6 18
M  V30 19 1 10 19
M  V30 20 1 10 20
M  V30 21 1 11 21
M  V30 22 1 11 22
M  V30 23 1 12 23
M  V30 24 1 12 24
M  V30 25 1 13 25
M  V30 26 1 13 26
M  V30 27 1 13 27
M  V30 END BOND
M  V30 END CTAB
M  END
