
     RDKit          3D

  0  0  0  0  0  0  0  0  0  0999 V3000
M  V30 BEGIN CTAB
M  V30 COUNTS 27 29 0 0 0
M  V30 BEGIN ATOM
M  V30 1 N 3.43944 2.58537 -0.689793 0
M  V30 2 C 2.68906 1.44778 -0.283043 0
M  V30 3 N 1.34478 1.40709 -0.416157 0
M  V30 4 C 0.627172 0.328949 -0.0313701 0
M  V30 5 N 1.32496 -0.695046 0.488693 0
M  V30 6 C 2.66084 -0.685795 0.634426 0
M  V30 7 N 3.36376 0.409329 0.240664 0
M  V30 8 N 3.28448 -1.82295 1.19502 0
M  V30 9 C -0.84892 0.320814 -0.193258 0
M  V30 10 C -1.28418 -0.802908 -1.0913 0
M  V30 11 C -2.74154 -0.937123 -0.790962 0
M  V30 12 C -2.88188 -0.528256 0.626796 0
M  V30 13 C -1.55484 -0.014346 1.10147 0
M  V30 14 C -3.58039 0.228257 -0.436692 0
M  V30 15 H 4.01431 3.12948 -0.020745 0
M  V30 16 H 3.42845 2.90532 -1.69199 0
M  V30 17 H 3.29334 -2.71221 0.669037 0
M  V30 18 H 3.72462 -1.75334 2.12406 0
M  V30 19 H -1.17251 1.2611 -0.635044 0
M  V30 20 H -1.09798 -0.590921 -2.16343 0
M  V30 21 H -0.785767 -1.75565 -0.803813 0
M  V30 22 H -3.23187 -1.84734 -1.18478 0
M  V30 23 H -3.44611 -1.24526 1.27566 0
M  V30 24 H -1.63878 0.863426 1.76873 0
M  V30 25 H -0.987825 -0.856985 1.56555 0
M  V30 26 H -3.2661 1.2729 -0.664907 0
M  V30 27 H -4.67654 0.0883225 -0.592826 0
M  V30 END ATOM
M  V30 BEGIN BOND
M  V30 1 1 1 2
M  V30 2 2 2 3
M  V30 3 1 3 4
M  V30 4 2 4 5
M  V30 5 1 5 6
M  V30 6 2 6 7
M  V30 7 1 6 8
M  V30 8 1 4 9
M  V30 9 1 9 10
M  V30 10 1 10 11
M  V30 11 1 11 12
M  V30 12 1 12 13
M  V30 13 1 12 14
M  V30 14 1 7 2
M  V30 15 1 13 9
M  V30 16 1 14 11
M  V30 17 1 1 15
M  V30 18 1 1 16
M  V30 19 1 8 17
M  V30 20 1 8 18
M  V30 21 1 9 19
M  V30 22 1 10 20
M  V30 23 1 10 21
M  V30 24 1 11 22
M  V30 25 1 12 23
M  V30 26 1 13 24
M  V30 27 1 13 25
M  V30 28 1 14 26
M  V30 29 1 14 27
M  V30 END BOND
M  V30 END CTAB
M  END
