
     RDKit          3D

  0  0  0  0  0  0  0  0  0  0999 V3000
M  V30 BEGIN CTAB
M  V30 COUNTS 44 46 0 0 0
M  V30 BEGIN ATOM
M  V30 1 O 1.40544 2.04806 0.213839 0
M  V30 2 C 0.37635 1.26051 0.380592 0
M  V30 3 N 0.59394 -0.0742685 0.0282261 0
M  V30 4 C 1.8454 -0.583898 -0.449484 0
M  V30 5 C 2.99521 -0.632473 0.48242 0
M  V30 6 C 2.82029 -1.59337 1.66771 0
M  V30 7 C 2.91619 -0.156827 1.91881 0
M  V30 8 C 4.37773 -0.569564 -0.0840532 0
M  V30 9 C 5.14699 0.585111 0.129049 0
M  V30 10 C 6.42018 0.709239 -0.367378 0
M  V30 11 C 6.99803 -0.312982 -1.10547 0
M  V30 12 C 6.2549 -1.44823 -1.31908 0
M  V30 13 C 4.95704 -1.56565 -0.809621 0
M  V30 14 C -0.798398 1.9224 0.904449 0
M  V30 15 S -2.31818 1.00186 1.04678 0
M  V30 16 C -3.05956 0.619738 -0.574828 0
M  V30 17 C -4.5266 0.380757 -0.415131 0
M  V30 18 N -5.40512 1.42621 -0.471803 0
M  V30 19 C -6.72121 1.21226 -0.318989 0
M  V30 20 N -7.694 2.23772 -0.368166 0
M  V30 21 N -7.14898 -0.072094 -0.108697 0
M  V30 22 C -6.31063 -1.10843 -0.0500409 0
M  V30 23 N -4.98284 -0.84408 -0.209431 0
M  V30 24 N -6.78963 -2.41983 0.179814 0
M  V30 25 H -0.209376 -0.74147 0.125991 0
M  V30 26 H 1.69996 -1.60738 -0.861187 0
M  V30 27 H 2.12894 0.0777629 -1.3222 0
M  V30 28 H 1.81574 -2.03728 1.8341 0
M  V30 29 H 3.64551 -2.2688 1.93727 0
M  V30 30 H 3.87553 0.279638 2.30949 0
M  V30 31 H 2.05719 0.427507 2.22543 0
M  V30 32 H 4.74226 1.40628 0.690657 0
M  V30 33 H 7.00898 1.6133 -0.18899 0
M  V30 34 H 8.01268 -0.209483 -1.50342 0
M  V30 35 H 6.66219 -2.26273 -1.88188 0
M  V30 36 H 4.41138 -2.48517 -1.00405 0
M  V30 37 H -1.05288 2.8681 0.315952 0
M  V30 38 H -0.595523 2.38489 1.9344 0
M  V30 39 H -2.56583 -0.342958 -0.904361 0
M  V30 40 H -2.89755 1.45628 -1.27575 0
M  V30 41 H -7.82955 2.85541 0.461923 0
M  V30 42 H -8.26853 2.38906 -1.20756 0
M  V30 43 H -7.42725 -2.81033 -0.550273 0
M  V30 44 H -6.5664 -3.01481 1.011 0
M  V30 END ATOM
M  V30 BEGIN BOND
M  V30 1 2 1 2
M  V30 2 1 2 3
M  V30 3 1 3 4
M  V30 4 1 4 5
M  V30 5 1 5 6
M  V30 6 1 6 7
M  V30 7 1 5 8
M  V30 8 2 8 9
M  V30 9 1 9 10
M  V30 10 2 10 11
M  V30 11 1 11 12
M  V30 12 2 12 13
M  V30 13 1 2 14
M  V30 14 1 14 15
M  V30 15 1 15 16
M  V30 16 1 16 17
M  V30 17 2 17 18
M  V30 18 1 18 19
M  V30 19 1 19 20
M  V30 20 2 19 21
M  V30 21 1 21 22
M  V30 22 2 22 23
M  V30 23 1 22 24
M  V30 24 1 7 5
M  V30 25 1 13 8
M  V30 26 1 23 17
M  V30 27 1 3 25
M  V30 28 1 4 26
M  V30 29 1 4 27
M  V30 30 1 6 28
M  V30 31 1 6 29
M  V30 32 1 7 30
M  V30 33 1 7 31
M  V30 34 1 9 32
M  V30 35 1 10 33
M  V30 36 1 11 34
M  V30 37 1 12 35
M  V30 38 1 13 36
M  V30 39 1 14 37
M  V30 40 1 14 38
M  V30 41 1 16 39
M  V30 42 1 16 40
M  V30 43 1 20 41
M  V30 44 1 20 42
M  V30 45 1 24 43
M  V30 46 1 24 44
M  V30 END BOND
M  V30 END CTAB
M  END
