
     RDKit          3D

  0  0  0  0  0  0  0  0  0  0999 V3000
M  V30 BEGIN CTAB
M  V30 COUNTS 31 31 0 0 0
M  V30 BEGIN ATOM
M  V30 1 C 1.76221 1.73533 -1.18901 0
M  V30 2 C 1.00192 0.876383 -0.186063 0
M  V30 3 C 1.85533 0.00356324 0.606997 0
M  V30 4 N 1.29 -0.898622 1.55944 0
M  V30 5 C 3.01908 -0.646849 -0.127619 0
M  V30 6 C -0.31622 0.568326 -0.736366 0
M  V30 7 C -1.285 -0.286442 -0.0976062 0
M  V30 8 C -1.18722 -1.64783 -0.0904905 0
M  V30 9 C -2.26375 -2.43411 0.375239 0
M  V30 10 C -3.40088 -1.82171 0.820451 0
M  V30 11 N -3.48037 -0.473426 0.809192 0
M  V30 12 C -2.47814 0.275067 0.373632 0
M  V30 13 N -2.58597 1.7135 0.479649 0
M  V30 14 O -0.884711 1.6965 -1.3314 0
M  V30 15 H 0.998172 2.16431 -1.89541 0
M  V30 16 H 2.27616 2.59052 -0.750539 0
M  V30 17 H 2.40334 1.09784 -1.84663 0
M  V30 18 H 0.782204 1.76873 0.626608 0
M  V30 19 H 2.50033 0.77042 1.31479 0
M  V30 20 H 1.52374 -1.87797 1.363 0
M  V30 21 H 1.57809 -0.622185 2.53827 0
M  V30 22 H 2.69138 -1.32153 -0.931614 0
M  V30 23 H 3.66362 -1.19791 0.557677 0
M  V30 24 H 3.69498 0.197467 -0.529705 0
M  V30 25 H -0.032397 -0.0709492 -1.7051 0
M  V30 26 H -0.311376 -2.21381 -0.474926 0
M  V30 27 H -2.17871 -3.49817 0.373053 0
M  V30 28 H -4.2821 -2.40554 1.19729 0
M  V30 29 H -2.94762 2.32218 -0.248019 0
M  V30 30 H -2.25546 2.10336 1.40461 0
M  V30 31 H -1.1506 1.53357 -2.25941 0
M  V30 END ATOM
M  V30 BEGIN BOND
M  V30 1 1 1 2
M  V30 2 1 2 3
M  V30 3 1 3 4
M  V30 4 1 3 5
M  V30 5 1 2 6
M  V30 6 1 6 7
M  V30 7 2 7 8
M  V30 8 1 8 9
M  V30 9 2 9 10
M  V30 10 1 10 11
M  V30 11 2 11 12
M  V30 12 1 12 13
M  V30 13 1 6 14
M  V30 14 1 12 7
M  V30 15 1 1 15
M  V30 16 1 1 16
M  V30 17 1 1 17
M  V30 18 1 2 18
M  V30 19 1 3 19
M  V30 20 1 4 20
M  V30 21 1 4 21
M  V30 22 1 5 22
M  V30 23 1 5 23
M  V30 24 1 5 24
M  V30 25 1 6 25
M  V30 26 1 8 26
M  V30 27 1 9 27
M  V30 28 1 10 28
M  V30 29 1 13 29
M  V30 30 1 13 30
M  V30 31 1 14 31
M  V30 END BOND
M  V30 END CTAB
M  END
