
     RDKit          3D

  0  0  0  0  0  0  0  0  0  0999 V3000
M  V30 BEGIN CTAB
M  V30 COUNTS 31 33 0 0 0
M  V30 BEGIN ATOM
M  V30 1 C 4.56979 0.10443 0.397869 0
M  V30 2 C 3.15185 -0.296737 0.265436 0
M  V30 3 C 2.15973 0.675149 0.194533 0
M  V30 4 N 2.51949 2.04469 0.250151 0
M  V30 5 C 0.838556 0.30818 0.0712564 0
M  V30 6 C 0.496939 -1.02921 0.0177982 0
M  V30 7 C 1.49019 -1.97453 0.089259 0
M  V30 8 C 2.82465 -1.64324 0.213092 0
M  V30 9 C -0.89833 -1.40279 -0.112154 0
M  V30 10 O -1.25957 -2.60221 -0.164946 0
M  V30 11 C -1.92982 -0.354323 -0.185222 0
M  V30 12 C -3.25874 -0.715473 -0.309089 0
M  V30 13 N -3.58165 -2.08787 -0.361507 0
M  V30 14 C -4.26472 0.246428 -0.381401 0
M  V30 15 C -3.89479 1.57331 -0.325618 0
M  V30 16 C -2.57295 1.95073 -0.202098 0
M  V30 17 C -1.58071 0.982789 -0.131109 0
M  V30 18 C -0.167247 1.34784 0.000310037 0
M  V30 19 O 0.166121 2.54402 0.0505845 0
M  V30 20 H 4.99678 -0.480724 1.24051 0
M  V30 21 H 4.62928 1.17859 0.640502 0
M  V30 22 H 5.07013 -0.114784 -0.567277 0
M  V30 23 H 2.77075 2.5564 1.11996 0
M  V30 24 H 2.53408 2.57892 -0.64184 0
M  V30 25 H 1.22573 -3.01757 0.0477196 0
M  V30 26 H 3.61582 -2.3707 0.270463 0
M  V30 27 H -3.92856 -2.6258 0.462012 0
M  V30 28 H -3.47083 -2.60192 -1.26895 0
M  V30 29 H -5.29395 -0.0859791 -0.478261 0
M  V30 30 H -4.69037 2.32725 -0.382879 0
M  V30 31 H -2.26765 2.98513 -0.157147 0
M  V30 END ATOM
M  V30 BEGIN BOND
M  V30 1 1 1 2
M  V30 2 2 2 3
M  V30 3 1 3 4
M  V30 4 1 3 5
M  V30 5 2 5 6
M  V30 6 1 6 7
M  V30 7 2 7 8
M  V30 8 1 6 9
M  V30 9 2 9 10
M  V30 10 1 9 11
M  V30 11 2 11 12
M  V30 12 1 12 13
M  V30 13 1 12 14
M  V30 14 2 14 15
M  V30 15 1 15 16
M  V30 16 2 16 17
M  V30 17 1 17 18
M  V30 18 2 18 19
M  V30 19 1 8 2
M  V30 20 1 17 11
M  V30 21 1 18 5
M  V30 22 1 1 20
M  V30 23 1 1 21
M  V30 24 1 1 22
M  V30 25 1 4 23
M  V30 26 1 4 24
M  V30 27 1 7 25
M  V30 28 1 8 26
M  V30 29 1 13 27
M  V30 30 1 13 28
M  V30 31 1 14 29
M  V30 32 1 15 30
M  V30 33 1 16 31
M  V30 END BOND
M  V30 END CTAB
M  END
