
     RDKit          3D

  0  0  0  0  0  0  0  0  0  0999 V3000
M  V30 BEGIN CTAB
M  V30 COUNTS 33 35 0 0 0
M  V30 BEGIN ATOM
M  V30 1 N -5.08843 2.2674 -0.182082 0
M  V30 2 C -4.07332 1.3085 0.123267 0
M  V30 3 N -3.66777 1.08301 1.3732 0
M  V30 4 C -2.70983 0.185467 1.64778 0
M  V30 5 C -2.1096 -0.541009 0.611426 0
M  V30 6 C -1.03783 -1.49255 0.90984 0
M  V30 7 C 0.319853 -0.90621 0.65154 0
M  V30 8 C 1.07047 -1.15171 -0.462492 0
M  V30 9 C 2.31679 -0.554912 -0.66744 0
M  V30 10 C 2.74016 0.297818 0.328816 0
M  V30 11 C 3.98631 0.910829 0.140046 0
M  V30 12 C 4.72375 0.654676 -0.990834 0
M  V30 13 C 4.2731 -0.204048 -1.97177 0
M  V30 14 C 3.05083 -0.823675 -1.81542 0
M  V30 15 C 1.99627 0.554372 1.45631 0
M  V30 16 C 0.775724 -0.0495114 1.62492 0
M  V30 17 C -2.54345 -0.293246 -0.662811 0
M  V30 18 N -2.05424 -0.955083 -1.81409 0
M  V30 19 N -3.51929 0.630146 -0.880285 0
M  V30 20 H -5.99047 2.36165 0.306782 0
M  V30 21 H -4.90232 2.94467 -0.980727 0
M  V30 22 H -2.43855 0.0643497 2.68692 0
M  V30 23 H -1.13659 -2.36276 0.226877 0
M  V30 24 H -1.05241 -1.85116 1.96406 0
M  V30 25 H 0.732769 -1.83226 -1.23378 0
M  V30 26 H 4.29709 1.57819 0.937561 0
M  V30 27 H 5.68351 1.16758 -1.06895 0
M  V30 28 H 4.90188 -0.376154 -2.86056 0
M  V30 29 H 2.66668 -1.50277 -2.56114 0
M  V30 30 H 2.3567 1.23262 2.22606 0
M  V30 31 H 0.170258 0.152424 2.53242 0
M  V30 32 H -2.33045 -1.96022 -2.03422 0
M  V30 33 H -1.40761 -0.536425 -2.51979 0
M  V30 END ATOM
M  V30 BEGIN BOND
M  V30 1 1 1 2
M  V30 2 2 2 3
M  V30 3 1 3 4
M  V30 4 2 4 5
M  V30 5 1 5 6
M  V30 6 1 6 7
M  V30 7 2 7 8
M  V30 8 1 8 9
M  V30 9 2 9 10
M  V30 10 1 10 11
M  V30 11 2 11 12
M  V30 12 1 12 13
M  V30 13 2 13 14
M  V30 14 1 10 15
M  V30 15 2 15 16
M  V30 16 1 5 17
M  V30 17 1 17 18
M  V30 18 2 17 19
M  V30 19 1 19 2
M  V30 20 1 16 7
M  V30 21 1 14 9
M  V30 22 1 1 20
M  V30 23 1 1 21
M  V30 24 1 4 22
M  V30 25 1 6 23
M  V30 26 1 6 24
M  V30 27 1 8 25
M  V30 28 1 11 26
M  V30 29 1 12 27
M  V30 30 1 13 28
M  V30 31 1 14 29
M  V30 32 1 15 30
M  V30 33 1 16 31
M  V30 34 1 18 32
M  V30 35 1 18 33
M  V30 END BOND
M  V30 END CTAB
M  END
