
     RDKit          3D

  0  0  0  0  0  0  0  0  0  0999 V3000
M  V30 BEGIN CTAB
M  V30 COUNTS 36 36 0 0 0
M  V30 BEGIN ATOM
M  V30 1 C -3.78551 -1.42277 -0.926898 0
M  V30 2 C -4.00321 -1.14356 0.532165 0
M  V30 3 C -3.12388 -0.0557674 1.06272 0 CFG=1
M  V30 4 C -1.66468 -0.421426 0.897375 0
M  V30 5 O -1.27008 -1.49684 1.3609 0
M  V30 6 N -0.839474 0.490968 0.221412 0
M  V30 7 C 0.537355 0.361534 -0.0468377 0
M  V30 8 C 1.30091 -0.719725 0.329745 0
M  V30 9 C 2.66091 -0.809064 0.0446949 0
M  V30 10 C 3.25801 0.220704 -0.636798 0
M  V30 11 C 2.53473 1.31043 -1.0276 0
M  V30 12 C 1.19516 1.39187 -0.743417 0
M  V30 13 O 0.442958 2.51311 -1.14357 0
M  V30 14 C 1.0951 3.55309 -1.84377 0
M  V30 15 S 3.60816 -2.19609 0.535624 0
M  V30 16 O 4.70935 -2.44836 -0.457781 0
M  V30 17 O 2.6963 -3.40333 0.576253 0
M  V30 18 N 4.24721 -1.88432 2.10835 0
M  V30 19 N -3.40231 1.21422 0.467 0
M  V30 20 H -4.75173 -1.52046 -1.49023 0
M  V30 21 H -3.21461 -0.622176 -1.44796 0
M  V30 22 H -3.24595 -2.37144 -1.06504 0
M  V30 23 H -3.77178 -2.07905 1.11764 0
M  V30 24 H -5.05301 -0.840025 0.714351 0
M  V30 25 H -3.30729 0.0311616 2.15324 0
M  V30 26 H -1.2916 1.40713 -0.145053 0
M  V30 27 H 0.891961 -1.55666 0.86501 0
M  V30 28 H 4.31908 0.171457 -0.86985 0
M  V30 29 H 3.00972 2.13081 -1.57036 0
M  V30 30 H 0.328886 4.33632 -2.06171 0
M  V30 31 H 1.90675 4.00215 -1.23043 0
M  V30 32 H 1.53936 3.17838 -2.8017 0
M  V30 33 H 3.53055 -2.12321 2.82269 0
M  V30 34 H 5.11683 -2.45507 2.24842 0
M  V30 35 H -2.92744 2.00852 0.905097 0
M  V30 36 H -3.27672 1.24751 -0.557967 0
M  V30 END ATOM
M  V30 BEGIN BOND
M  V30 1 1 1 2
M  V30 2 1 2 3
M  V30 3 1 3 4
M  V30 4 2 4 5
M  V30 5 1 4 6
M  V30 6 1 6 7
M  V30 7 2 7 8
M  V30 8 1 8 9
M  V30 9 2 9 10
M  V30 10 1 10 11
M  V30 11 2 11 12
M  V30 12 1 12 13
M  V30 13 1 13 14
M  V30 14 1 9 15
M  V30 15 2 15 16
M  V30 16 2 15 17
M  V30 17 1 15 18
M  V30 18 1 3 19
M  V30 19 1 12 7
M  V30 20 1 1 20
M  V30 21 1 1 21
M  V30 22 1 1 22
M  V30 23 1 2 23
M  V30 24 1 2 24
M  V30 25 1 3 25 CFG=1
M  V30 26 1 6 26
M  V30 27 1 8 27
M  V30 28 1 10 28
M  V30 29 1 11 29
M  V30 30 1 14 30
M  V30 31 1 14 31
M  V30 32 1 14 32
M  V30 33 1 18 33
M  V30 34 1 18 34
M  V30 35 1 19 35
M  V30 36 1 19 36
M  V30 END BOND
M  V30 END CTAB
M  END
