
     RDKit          3D

  0  0  0  0  0  0  0  0  0  0999 V3000
M  V30 BEGIN CTAB
M  V30 COUNTS 47 48 0 0 0
M  V30 BEGIN ATOM
M  V30 1 N 6.58952 -2.10739 0.00483571 0
M  V30 2 C 5.8698 -1.28561 0.956905 0
M  V30 3 C 5.31963 -0.0346071 0.32857 0
M  V30 4 N 4.40224 -0.2748 -0.740957 0
M  V30 5 C 3.94186 0.961596 -1.265 0
M  V30 6 C 2.65639 1.48224 -0.612904 0
M  V30 7 N 1.65154 0.467958 -0.757266 0
M  V30 8 C 2.17144 -0.816621 -1.30735 0
M  V30 9 C 3.34724 -1.18403 -0.439601 0
M  V30 10 C 0.28446 0.552947 -0.438524 0
M  V30 11 O -0.389507 -0.510285 -0.700429 0
M  V30 12 C -0.364993 1.67312 0.122268 0
M  V30 13 C -1.65631 1.73998 0.402085 0
M  V30 14 N -2.54626 0.685033 0.168905 0
M  V30 15 C -3.92116 0.910967 0.52655 0
M  V30 16 O -4.22208 2.02357 1.01622 0
M  V30 17 C -4.92293 -0.0920595 0.335209 0
M  V30 18 C -4.66086 -1.33305 -0.195968 0
M  V30 19 C -5.66666 -2.2826 -0.365822 0
M  V30 20 C -6.93874 -1.95731 0.00941971 0
M  V30 21 C -7.21704 -0.720257 0.542262 0
M  V30 22 C -6.22317 0.219939 0.710835 0
M  V30 23 N -6.48396 1.49587 1.25527 0
M  V30 24 C 0.370537 2.8884 0.465721 0
M  V30 25 N 0.932189 3.89146 0.764518 0
M  V30 26 H 7.46848 -1.69179 -0.324695 0
M  V30 27 H 5.98378 -2.52051 -0.718979 0
M  V30 28 H 6.61582 -0.959279 1.72177 0
M  V30 29 H 5.11267 -1.89203 1.47567 0
M  V30 30 H 4.84078 0.558446 1.1325 0
M  V30 31 H 6.17367 0.545879 -0.0695967 0
M  V30 32 H 4.69665 1.78459 -1.14663 0
M  V30 33 H 3.77726 0.88068 -2.34749 0
M  V30 34 H 2.40675 2.38756 -1.2107 0
M  V30 35 H 2.80908 1.65546 0.450433 0
M  V30 36 H 1.36408 -1.58136 -1.24839 0
M  V30 37 H 2.47933 -0.606818 -2.34084 0
M  V30 38 H 3.58892 -2.24798 -0.644329 0
M  V30 39 H 3.00665 -1.1454 0.614866 0
M  V30 40 H -2.06008 2.68504 0.846754 0
M  V30 41 H -2.3654 -0.235791 -0.223455 0
M  V30 42 H -3.66105 -1.60568 -0.497431 0
M  V30 43 H -5.42373 -3.25959 -0.791185 0
M  V30 44 H -7.73581 -2.68565 -0.115844 0
M  V30 45 H -8.22616 -0.471169 0.836471 0
M  V30 46 H -6.63361 2.29074 0.580692 0
M  V30 47 H -6.54127 1.72021 2.25651 0
M  V30 END ATOM
M  V30 BEGIN BOND
M  V30 1 1 1 2
M  V30 2 1 2 3
M  V30 3 1 3 4
M  V30 4 1 4 5
M  V30 5 1 5 6
M  V30 6 1 6 7
M  V30 7 1 7 8
M  V30 8 1 8 9
M  V30 9 1 7 10
M  V30 10 2 10 11
M  V30 11 1 10 12
M  V30 12 2 12 13
M  V30 13 1 13 14
M  V30 14 1 14 15
M  V30 15 2 15 16
M  V30 16 1 15 17
M  V30 17 2 17 18
M  V30 18 1 18 19
M  V30 19 2 19 20
M  V30 20 1 20 21
M  V30 21 2 21 22
M  V30 22 1 22 23
M  V30 23 1 12 24
M  V30 24 3 24 25
M  V30 25 1 9 4
M  V30 26 1 22 17
M  V30 27 1 1 26
M  V30 28 1 1 27
M  V30 29 1 2 28
M  V30 30 1 2 29
M  V30 31 1 3 30
M  V30 32 1 3 31
M  V30 33 1 5 32
M  V30 34 1 5 33
M  V30 35 1 6 34
M  V30 36 1 6 35
M  V30 37 1 8 36
M  V30 38 1 8 37
M  V30 39 1 9 38
M  V30 40 1 9 39
M  V30 41 1 13 40
M  V30 42 1 14 41
M  V30 43 1 18 42
M  V30 44 1 19 43
M  V30 45 1 20 44
M  V30 46 1 21 45
M  V30 47 1 23 46
M  V30 48 1 23 47
M  V30 END BOND
M  V30 END CTAB
M  END
