
     RDKit          3D

  0  0  0  0  0  0  0  0  0  0999 V3000
M  V30 BEGIN CTAB
M  V30 COUNTS 64 64 0 0 0
M  V30 BEGIN ATOM
M  V30 1 N 6.25847 -0.335789 1.50119 0
M  V30 2 C 6.65836 -1.45447 0.785888 0
M  V30 3 C 5.59311 -2.37364 0.307599 0
M  V30 4 C 4.58947 -1.81151 -0.64468 0
M  V30 5 C 3.77995 -0.666361 -0.145727 0
M  V30 6 C 2.76114 -0.217687 -1.22137 0 CFG=1
M  V30 7 C 1.97509 0.917983 -0.679409 0
M  V30 8 O 2.37773 2.07679 -0.985865 0
M  V30 9 N 0.827976 0.782324 0.140245 0
M  V30 10 C 0.170593 1.96338 0.643276 0
M  V30 11 C -0.445277 2.81133 -0.476092 0
M  V30 12 C -1.73576 3.35425 0.0264061 0
M  V30 13 C -2.82576 3.5004 -0.977836 0
M  V30 14 C -3.24495 2.26393 -1.68427 0
M  V30 15 C -4.04825 1.29817 -0.832829 0
M  V30 16 O -3.2007 0.785337 0.13115 0
M  V30 17 C -3.38596 -0.62167 0.170282 0 CFG=1
M  V30 18 C -2.08373 -1.26317 0.608844 0 CFG=1
M  V30 19 C -0.96202 -0.833775 -0.300281 0 CFG=1
M  V30 20 C 0.324106 -0.537256 0.441313 0
M  V30 21 O -0.68916 -1.94216 -1.14256 0
M  V30 22 O -1.81978 -0.958055 1.94103 0
M  V30 23 C -4.52807 -0.852434 1.09471 0 CFG=1
M  V30 24 C -5.10863 -2.22865 1.09548 0
M  V30 25 O -4.24291 -3.11349 1.68275 0
M  V30 26 O -4.23182 -0.374609 2.34973 0
M  V30 27 N 3.60997 0.260685 -2.31174 0
M  V30 28 H 5.90072 -0.416368 2.42169 0
M  V30 29 H 6.44908 0.579836 1.19867 0
M  V30 30 H 7.36552 -2.04284 1.44975 0
M  V30 31 H 7.26354 -1.0927 -0.102754 0
M  V30 32 H 6.00504 -3.35042 -0.0574833 0
M  V30 33 H 4.99782 -2.68859 1.22589 0
M  V30 34 H 3.87021 -2.61986 -0.970706 0
M  V30 35 H 5.17192 -1.49146 -1.56646 0
M  V30 36 H 4.43262 0.259663 -0.059175 0
M  V30 37 H 3.31472 -0.90182 0.801951 0
M  V30 38 H 2.17497 -1.08145 -1.53292 0
M  V30 39 H 0.823893 2.63277 1.21592 0
M  V30 40 H -0.637469 1.65374 1.36487 0
M  V30 41 H -0.482592 2.18962 -1.36569 0
M  V30 42 H 0.253872 3.65719 -0.732171 0
M  V30 43 H -2.10613 2.82928 0.943242 0
M  V30 44 H -1.52853 4.40043 0.407052 0
M  V30 45 H -3.72889 3.8575 -0.397905 0
M  V30 46 H -2.58719 4.34425 -1.65541 0
M  V30 47 H -2.42607 1.69344 -2.14837 0
M  V30 48 H -3.89736 2.58642 -2.54744 0
M  V30 49 H -4.45083 0.522837 -1.52809 0
M  V30 50 H -4.93711 1.79898 -0.390521 0
M  V30 51 H -3.62647 -1.02865 -0.831053 0
M  V30 52 H -2.23644 -2.36439 0.56868 0
M  V30 53 H -1.24586 -0.0289412 -0.983094 0
M  V30 54 H 1.10658 -1.29812 0.197304 0
M  V30 55 H 0.13178 -0.674767 1.52646 0
M  V30 56 H -1.27466 -1.95624 -1.92182 0
M  V30 57 H -1.44443 -1.76435 2.40758 0
M  V30 58 H -5.35689 -0.161976 0.711504 0
M  V30 59 H -5.39911 -2.57763 0.0821525 0
M  V30 60 H -6.06836 -2.24585 1.67882 0
M  V30 61 H -4.68404 -3.65513 2.3815 0
M  V30 62 H -4.42393 0.58957 2.43154 0
M  V30 63 H 3.76077 -0.534258 -2.9728 0
M  V30 64 H 3.14612 1.07859 -2.76796 0
M  V30 END ATOM
M  V30 BEGIN BOND
M  V30 1 1 1 2
M  V30 2 1 2 3
M  V30 3 1 3 4
M  V30 4 1 4 5
M  V30 5 1 5 6
M  V30 6 1 6 7
M  V30 7 2 7 8
M  V30 8 1 7 9
M  V30 9 1 9 10
M  V30 10 1 10 11
M  V30 11 1 11 12
M  V30 12 1 12 13
M  V30 13 1 13 14
M  V30 14 1 14 15
M  V30 15 1 15 16
M  V30 16 1 16 17
M  V30 17 1 17 18
M  V30 18 1 18 19
M  V30 19 1 19 20
M  V30 20 1 19 21
M  V30 21 1 18 22
M  V30 22 1 17 23
M  V30 23 1 23 24
M  V30 24 1 24 25
M  V30 25 1 23 26
M  V30 26 1 6 27
M  V30 27 1 20 9
M  V30 28 1 1 28
M  V30 29 1 1 29
M  V30 30 1 2 30
M  V30 31 1 2 31
M  V30 32 1 3 32
M  V30 33 1 3 33
M  V30 34 1 4 34
M  V30 35 1 4 35
M  V30 36 1 5 36
M  V30 37 1 5 37
M  V30 38 1 6 38 CFG=3
M  V30 39 1 10 39
M  V30 40 1 10 40
M  V30 41 1 11 41
M  V30 42 1 11 42
M  V30 43 1 12 43
M  V30 44 1 12 44
M  V30 45 1 13 45
M  V30 46 1 13 46
M  V30 47 1 14 47
M  V30 48 1 14 48
M  V30 49 1 15 49
M  V30 50 1 15 50
M  V30 51 1 17 51 CFG=3
M  V30 52 1 18 52 CFG=1
M  V30 53 1 19 53 CFG=3
M  V30 54 1 20 54
M  V30 55 1 20 55
M  V30 56 1 21 56
M  V30 57 1 22 57
M  V30 58 1 23 58 CFG=3
M  V30 59 1 24 59
M  V30 60 1 24 60
M  V30 61 1 25 61
M  V30 62 1 26 62
M  V30 63 1 27 63
M  V30 64 1 27 64
M  V30 END BOND
M  V30 END CTAB
M  END
