
     RDKit          3D

  0  0  0  0  0  0  0  0  0  0999 V3000
M  V30 BEGIN CTAB
M  V30 COUNTS 44 48 0 0 0
M  V30 BEGIN ATOM
M  V30 1 N -7.15627 -0.790705 -0.470382 0
M  V30 2 C -6.01724 -0.920284 -0.272959 0
M  V30 3 C -4.609 -1.1024 -0.0147309 0
M  V30 4 C -4.25859 -2.28476 0.560776 0
M  V30 5 N -5.18976 -3.30071 0.900709 0
M  V30 6 N -2.95228 -2.4418 0.789506 0
M  V30 7 C -2.04901 -1.47254 0.454949 0
M  V30 8 C -2.34789 -0.263076 -0.131159 0
M  V30 9 C -3.71187 -0.074439 -0.369285 0
M  V30 10 C -4.35219 1.11434 -0.994467 0
M  V30 11 C -5.30247 1.80312 0.0242335 0
M  V30 12 C -4.11808 2.50203 -0.499864 0
M  V30 13 C -1.30133 0.522795 -0.447077 0
M  V30 14 N -1.32765 1.76676 -1.20182 0
M  V30 15 C -0.0383546 0.0528019 -0.141255 0
M  V30 16 S -0.33981 -1.44942 0.556867 0
M  V30 17 C 1.23484 0.719618 -0.359728 0
M  V30 18 O 1.27489 1.89195 -0.871239 0
M  V30 19 C 2.52483 0.139112 -0.0268954 0
M  V30 20 C 2.78295 -1.20175 0.0269933 0
M  V30 21 C 4.02195 -1.72109 0.360272 0
M  V30 22 C 5.03911 -0.844994 0.649096 0
M  V30 23 C 4.802 0.535352 0.600403 0
M  V30 24 C 3.58025 0.993841 0.272189 0
M  V30 25 O 5.92259 1.32153 0.912743 0
M  V30 26 C 7.16313 0.808704 0.438381 0
M  V30 27 C 7.42178 -0.564103 0.987548 0
M  V30 28 O 6.2629 -1.33429 0.978408 0
M  V30 29 H -4.92692 -4.33045 0.909355 0
M  V30 30 H -6.15938 -3.06165 1.15037 0
M  V30 31 H -4.81221 0.957703 -1.97413 0
M  V30 32 H -6.29931 2.12115 -0.372746 0
M  V30 33 H -5.30306 1.45022 1.06088 0
M  V30 34 H -3.35347 2.74653 0.268351 0
M  V30 35 H -4.26201 3.28846 -1.30097 0
M  V30 36 H -1.04339 2.62594 -0.71275 0
M  V30 37 H -1.60664 1.80417 -2.18992 0
M  V30 38 H 2.00657 -1.95094 -0.217614 0
M  V30 39 H 4.17301 -2.81236 0.390709 0
M  V30 40 H 3.39944 2.06241 0.232126 0
M  V30 41 H 8.01285 1.45126 0.772735 0
M  V30 42 H 7.20049 0.803315 -0.66651 0
M  V30 43 H 8.177 -1.08464 0.322713 0
M  V30 44 H 7.83762 -0.476724 2.02221 0
M  V30 END ATOM
M  V30 BEGIN BOND
M  V30 1 3 1 2
M  V30 2 1 2 3
M  V30 3 2 3 4
M  V30 4 1 4 5
M  V30 5 1 4 6
M  V30 6 2 6 7
M  V30 7 1 7 8
M  V30 8 2 8 9
M  V30 9 1 9 10
M  V30 10 1 10 11
M  V30 11 1 11 12
M  V30 12 1 8 13
M  V30 13 1 13 14
M  V30 14 2 13 15
M  V30 15 1 15 16
M  V30 16 1 15 17
M  V30 17 2 17 18
M  V30 18 1 17 19
M  V30 19 2 19 20
M  V30 20 1 20 21
M  V30 21 2 21 22
M  V30 22 1 22 23
M  V30 23 2 23 24
M  V30 24 1 23 25
M  V30 25 1 25 26
M  V30 26 1 26 27
M  V30 27 1 27 28
M  V30 28 1 9 3
M  V30 29 1 12 10
M  V30 30 1 24 19
M  V30 31 1 16 7
M  V30 32 1 28 22
M  V30 33 1 5 29
M  V30 34 1 5 30
M  V30 35 1 10 31
M  V30 36 1 11 32
M  V30 37 1 11 33
M  V30 38 1 12 34
M  V30 39 1 12 35
M  V30 40 1 14 36
M  V30 41 1 14 37
M  V30 42 1 20 38
M  V30 43 1 21 39
M  V30 44 1 24 40
M  V30 45 1 26 41
M  V30 46 1 26 42
M  V30 47 1 27 43
M  V30 48 1 27 44
M  V30 END BOND
M  V30 END CTAB
M  END
