
     RDKit          3D

  0  0  0  0  0  0  0  0  0  0999 V3000
M  V30 BEGIN CTAB
M  V30 COUNTS 50 52 0 0 0
M  V30 BEGIN ATOM
M  V30 1 N 8.54562 -1.29061 1.26994 0
M  V30 2 C 7.2669 -1.66895 1.73788 0
M  V30 3 N 7.1476 -2.5201 2.68835 0
M  V30 4 C 6.08146 -1.09594 1.14494 0
M  V30 5 C 4.82176 -1.45395 1.58954 0
M  V30 6 C 3.68115 -0.93692 1.05672 0
M  V30 7 C 3.73274 0.0100915 0.00173204 0
M  V30 8 N 2.52498 0.526758 -0.499873 0
M  V30 9 C 2.35459 1.19653 -1.6887 0
M  V30 10 O 3.33036 1.40966 -2.47757 0
M  V30 11 C 1.03609 1.71915 -2.14269 0
M  V30 12 C -0.126659 1.41452 -1.47822 0
M  V30 13 C -1.33703 1.92926 -1.93684 0
M  V30 14 C -1.39315 2.73981 -3.04555 0
M  V30 15 C -0.233473 3.05854 -3.72887 0
M  V30 16 C 0.947128 2.53556 -3.25292 0
M  V30 17 C -2.6085 1.6092 -1.25091 0
M  V30 18 O -3.52817 2.41659 -1.44662 0
M  V30 19 N -2.72504 0.470019 -0.449801 0
M  V30 20 C -3.86723 0.0640973 0.255159 0
M  V30 21 C -4.96476 0.84438 0.489802 0
M  V30 22 C -6.09941 0.398138 1.18534 0
M  V30 23 C -6.09489 -0.885388 1.64792 0
M  V30 24 C -4.98629 -1.69495 1.41931 0
M  V30 25 C -3.88666 -1.25679 0.742886 0
M  V30 26 C -7.23294 -1.42507 2.37885 0
M  V30 27 N -7.18448 -2.77262 2.84398 0
M  V30 28 N -8.2653 -0.72441 2.61095 0
M  V30 29 C 4.99751 0.344364 -0.415735 0
M  V30 30 C 6.16262 -0.183426 0.127734 0
M  V30 31 H 8.82875 -1.50822 0.296995 0
M  V30 32 H 9.18644 -0.797962 1.90958 0
M  V30 33 H 7.99144 -2.93059 3.11332 0
M  V30 34 H 4.71263 -2.17885 2.39964 0
M  V30 35 H 2.72213 -1.24129 1.43044 0
M  V30 36 H 1.67177 0.382682 0.110326 0
M  V30 37 H -0.112093 0.789371 -0.612793 0
M  V30 38 H -2.31529 3.15698 -3.42919 0
M  V30 39 H -0.271496 3.70406 -4.61334 0
M  V30 40 H 1.87259 2.76904 -3.76922 0
M  V30 41 H -1.84885 -0.139343 -0.381818 0
M  V30 42 H -5.0135 1.87287 0.155398 0
M  V30 43 H -6.93306 1.06846 1.33496 0
M  V30 44 H -5.02776 -2.7062 1.80523 0
M  V30 45 H -3.04495 -1.91903 0.586573 0
M  V30 46 H -7.00288 -3.51922 2.15817 0
M  V30 47 H -7.32691 -2.98893 3.83447 0
M  V30 48 H -8.46974 0.242284 2.35714 0
M  V30 49 H 5.14483 1.06151 -1.19762 0
M  V30 50 H 7.13945 0.104835 -0.228819 0
M  V30 END ATOM
M  V30 BEGIN BOND
M  V30 1 1 1 2
M  V30 2 2 2 3 CFG=2
M  V30 3 1 2 4
M  V30 4 2 4 5
M  V30 5 1 5 6
M  V30 6 2 6 7
M  V30 7 1 7 8
M  V30 8 1 8 9
M  V30 9 2 9 10
M  V30 10 1 9 11
M  V30 11 2 11 12
M  V30 12 1 12 13
M  V30 13 2 13 14
M  V30 14 1 14 15
M  V30 15 2 15 16
M  V30 16 1 13 17
M  V30 17 2 17 18
M  V30 18 1 17 19
M  V30 19 1 19 20
M  V30 20 2 20 21
M  V30 21 1 21 22
M  V30 22 2 22 23
M  V30 23 1 23 24
M  V30 24 2 24 25
M  V30 25 1 23 26
M  V30 26 1 26 27
M  V30 27 2 26 28 CFG=2
M  V30 28 1 7 29
M  V30 29 2 29 30
M  V30 30 1 30 4
M  V30 31 1 16 11
M  V30 32 1 25 20
M  V30 33 1 1 31
M  V30 34 1 1 32
M  V30 35 1 3 33
M  V30 36 1 5 34
M  V30 37 1 6 35
M  V30 38 1 8 36
M  V30 39 1 12 37
M  V30 40 1 14 38
M  V30 41 1 15 39
M  V30 42 1 16 40
M  V30 43 1 19 41
M  V30 44 1 21 42
M  V30 45 1 22 43
M  V30 46 1 24 44
M  V30 47 1 25 45
M  V30 48 1 27 46
M  V30 49 1 27 47
M  V30 50 1 28 48
M  V30 51 1 29 49
M  V30 52 1 30 50
M  V30 END BOND
M  V30 END CTAB
M  END
