
     RDKit          3D

  0  0  0  0  0  0  0  0  0  0999 V3000
M  V30 BEGIN CTAB
M  V30 COUNTS 24 25 0 0 0
M  V30 BEGIN ATOM
M  V30 1 N 0.871924 2.75601 0.544975 0
M  V30 2 N 0.156063 1.82128 -0.127025 0
M  V30 3 C 0.00343356 0.524691 0.408969 0
M  V30 4 C -0.924779 -0.243118 -0.48045 0
M  V30 5 C -0.712169 -0.412626 -1.8233 0
M  V30 6 N -1.73544 -1.13598 -2.26523 0
M  V30 7 N -2.55815 -1.42138 -1.29219 0
M  V30 8 C -2.09086 -0.883938 -0.16105 0
M  V30 9 N -2.66105 -0.942064 1.14428 0
M  V30 10 C 1.35585 -0.152875 0.462385 0
M  V30 11 C 2.41881 0.396732 1.12146 0
M  V30 12 S 3.64828 -0.78903 0.822861 0
M  V30 13 C 2.72188 -1.8775 -0.105661 0
M  V30 14 N 1.55026 -1.29129 -0.137983 0
M  V30 15 H 1.38437 3.37137 -0.142101 0
M  V30 16 H 0.3754 3.35364 1.21589 0
M  V30 17 H 0.207348 1.83413 -1.16147 0
M  V30 18 H -0.463041 0.509353 1.41744 0
M  V30 19 H 0.128061 -0.0300564 -2.40955 0
M  V30 20 H -3.43681 -1.97542 -1.37171 0
M  V30 21 H -3.01843 -0.0520056 1.55749 0
M  V30 22 H -2.71656 -1.84211 1.66281 0
M  V30 23 H 2.50115 1.3213 1.6977 0
M  V30 24 H 2.99447 -2.83912 -0.57854 0
M  V30 END ATOM
M  V30 BEGIN BOND
M  V30 1 1 1 2
M  V30 2 1 2 3
M  V30 3 1 3 4
M  V30 4 1 4 5
M  V30 5 2 5 6
M  V30 6 1 6 7
M  V30 7 1 7 8
M  V30 8 1 8 9
M  V30 9 1 3 10
M  V30 10 2 10 11
M  V30 11 1 11 12
M  V30 12 1 12 13
M  V30 13 2 13 14
M  V30 14 2 8 4
M  V30 15 1 14 10
M  V30 16 1 1 15
M  V30 17 1 1 16
M  V30 18 1 2 17
M  V30 19 1 3 18
M  V30 20 1 5 19
M  V30 21 1 7 20
M  V30 22 1 9 21
M  V30 23 1 9 22
M  V30 24 1 11 23
M  V30 25 1 13 24
M  V30 END BOND
M  V30 END CTAB
M  END
