
     RDKit          3D

  0  0  0  0  0  0  0  0  0  0999 V3000
M  V30 BEGIN CTAB
M  V30 COUNTS 18 18 0 0 0
M  V30 BEGIN ATOM
M  V30 1 N -2.29286 -1.27821 0.167159 0
M  V30 2 C -0.923512 -0.906288 0.100393 0
M  V30 3 N 0.0727877 -1.83777 0.154408 0
M  V30 4 C 1.33746 -1.42119 0.0865021 0
M  V30 5 Cl 2.70534 -2.54107 0.147085 0
M  V30 6 C 1.65978 -0.08205 -0.0360348 0
M  V30 7 C 0.6343 0.86878 -0.0909513 0
M  V30 8 O 0.861478 2.08315 -0.200409 0
M  V30 9 N -0.633558 0.399328 -0.0184532 0
M  V30 10 C -1.71983 1.35094 -0.071887 0
M  V30 11 N 2.9975 0.345667 -0.10679 0
M  V30 12 H -2.69547 -1.46935 1.13177 0
M  V30 13 H -2.92601 -1.37865 -0.628632 0
M  V30 14 H -1.34731 2.39298 -0.0830115 0
M  V30 15 H -2.4549 1.21334 0.752357 0
M  V30 16 H -2.29995 1.2413 -1.03402 0
M  V30 17 H 3.35444 1.11459 0.495529 0
M  V30 18 H 3.67032 -0.095503 -0.765018 0
M  V30 END ATOM
M  V30 BEGIN BOND
M  V30 1 1 1 2
M  V30 2 2 2 3
M  V30 3 1 3 4
M  V30 4 1 4 5
M  V30 5 2 4 6
M  V30 6 1 6 7
M  V30 7 2 7 8
M  V30 8 1 7 9
M  V30 9 1 9 10
M  V30 10 1 6 11
M  V30 11 1 9 2
M  V30 12 1 1 12
M  V30 13 1 1 13
M  V30 14 1 10 14
M  V30 15 1 10 15
M  V30 16 1 10 16
M  V30 17 1 11 17
M  V30 18 1 11 18
M  V30 END BOND
M  V30 END CTAB
M  END
