
     RDKit          3D

  0  0  0  0  0  0  0  0  0  0999 V3000
M  V30 BEGIN CTAB
M  V30 COUNTS 69 71 0 0 0
M  V30 BEGIN ATOM
M  V30 1 C 6.95547 -4.28306 0.367806 0
M  V30 2 C 7.75836 -3.02646 0.0869718 0
M  V30 3 O 7.18683 -1.98465 0.84783 0
M  V30 4 C 5.85007 -1.63854 0.631281 0
M  V30 5 O 5.23146 -2.27703 -0.231378 0
M  V30 6 C 5.27191 -0.554744 1.4293 0
M  V30 7 C 3.87204 -0.173313 1.12234 0
M  V30 8 C 3.60679 0.3168 -0.269927 0
M  V30 9 N 2.19512 0.650751 -0.404723 0
M  V30 10 C 1.57394 1.70972 0.289935 0
M  V30 11 O 2.21824 2.45102 1.09003 0
M  V30 12 C 0.155687 2.00363 0.119799 0
M  V30 13 C -0.711208 1.20386 -0.588497 0
M  V30 14 C -2.06271 1.51969 -0.733992 0
M  V30 15 C -2.56845 2.66051 -0.160971 0
M  V30 16 N -3.92378 3.02645 -0.278684 0
M  V30 17 C -4.86745 2.1572 -0.932653 0
M  V30 18 C -5.22988 0.94774 -0.147828 0
M  V30 19 C -6.10952 0.02327 -0.748438 0
M  V30 20 C -6.61955 0.23182 -2.10291 0
M  V30 21 C -6.43361 -1.06908 0.0405672 0
M  V30 22 C -5.93926 -1.25484 1.32562 0
M  V30 23 C -5.09273 -0.326497 1.85242 0
M  V30 24 C -4.73437 0.781786 1.11501 0
M  V30 25 N -6.2986 -2.35494 2.05128 0
M  V30 26 C -7.12379 -3.29723 1.58937 0
M  V30 27 N -7.47533 -4.44002 2.38835 0
M  V30 28 N -7.6044 -3.13101 0.359542 0
M  V30 29 C -7.27889 -2.04625 -0.416391 0
M  V30 30 N -7.82732 -1.93822 -1.70593 0
M  V30 31 C -1.69068 3.44948 0.543599 0
M  V30 32 C -0.377742 3.14759 0.687948 0
M  V30 33 C 4.47082 1.4129 -0.728652 0
M  V30 34 O 3.95021 2.49898 -1.16138 0
M  V30 35 O 5.85253 1.39702 -0.746326 0
M  V30 36 C 6.62682 2.49024 -1.20446 0
M  V30 37 C 8.08415 2.10433 -1.07407 0
M  V30 38 H 7.64462 -5.12949 0.4922 0
M  V30 39 H 6.35327 -4.18177 1.29396 0
M  V30 40 H 6.2382 -4.51742 -0.446954 0
M  V30 41 H 7.73536 -2.84276 -1.00033 0
M  V30 42 H 8.81499 -3.15268 0.441785 0
M  V30 43 H 5.29004 -0.85663 2.53264 0
M  V30 44 H 5.91151 0.368935 1.40594 0
M  V30 45 H 3.5916 0.625386 1.86653 0
M  V30 46 H 3.14842 -1.00739 1.32711 0
M  V30 47 H 3.77441 -0.55417 -0.974301 0
M  V30 48 H 1.61586 0.0757409 -1.05086 0
M  V30 49 H -0.346451 0.290032 -1.05505 0
M  V30 50 H -2.66891 0.830273 -1.30793 0
M  V30 51 H -4.24329 3.92769 0.108133 0
M  V30 52 H -5.79448 2.72605 -1.20909 0
M  V30 53 H -4.33709 1.8248 -1.87584 0
M  V30 54 H -6.13897 1.21587 -2.44938 0
M  V30 55 H -6.19812 -0.412997 -2.89878 0
M  V30 56 H -7.66911 0.538007 -2.20845 0
M  V30 57 H -4.71719 -0.493383 2.86276 0
M  V30 58 H -4.06851 1.48638 1.61127 0
M  V30 59 H -6.88666 -5.30091 2.42148 0
M  V30 60 H -8.33497 -4.40802 2.94542 0
M  V30 61 H -7.35849 -2.35031 -2.53903 0
M  V30 62 H -8.73408 -1.45502 -1.84689 0
M  V30 63 H -2.04015 4.37217 1.02202 0
M  V30 64 H 0.280335 3.81179 1.26051 0
M  V30 65 H 6.3969 2.73435 -2.25742 0
M  V30 66 H 6.44638 3.40621 -0.600161 0
M  V30 67 H 8.70911 3.03428 -1.09543 0
M  V30 68 H 8.40903 1.49444 -1.94374 0
M  V30 69 H 8.28523 1.51165 -0.165875 0
M  V30 END ATOM
M  V30 BEGIN BOND
M  V30 1 1 1 2
M  V30 2 1 2 3
M  V30 3 1 3 4
M  V30 4 2 4 5
M  V30 5 1 4 6
M  V30 6 1 6 7
M  V30 7 1 7 8
M  V30 8 1 8 9
M  V30 9 1 9 10
M  V30 10 2 10 11
M  V30 11 1 10 12
M  V30 12 2 12 13
M  V30 13 1 13 14
M  V30 14 2 14 15
M  V30 15 1 15 16
M  V30 16 1 16 17
M  V30 17 1 17 18
M  V30 18 2 18 19
M  V30 19 1 19 20
M  V30 20 1 19 21
M  V30 21 2 21 22
M  V30 22 1 22 23
M  V30 23 2 23 24
M  V30 24 1 22 25
M  V30 25 2 25 26
M  V30 26 1 26 27
M  V30 27 1 26 28
M  V30 28 2 28 29
M  V30 29 1 29 30
M  V30 30 1 15 31
M  V30 31 2 31 32
M  V30 32 1 8 33
M  V30 33 2 33 34
M  V30 34 1 33 35
M  V30 35 1 35 36
M  V30 36 1 36 37
M  V30 37 1 32 12
M  V30 38 1 24 18
M  V30 39 1 29 21
M  V30 40 1 1 38
M  V30 41 1 1 39
M  V30 42 1 1 40
M  V30 43 1 2 41
M  V30 44 1 2 42
M  V30 45 1 6 43
M  V30 46 1 6 44
M  V30 47 1 7 45
M  V30 48 1 7 46
M  V30 49 1 8 47
M  V30 50 1 9 48
M  V30 51 1 13 49
M  V30 52 1 14 50
M  V30 53 1 16 51
M  V30 54 1 17 52
M  V30 55 1 17 53
M  V30 56 1 20 54
M  V30 57 1 20 55
M  V30 58 1 20 56
M  V30 59 1 23 57
M  V30 60 1 24 58
M  V30 61 1 27 59
M  V30 62 1 27 60
M  V30 63 1 30 61
M  V30 64 1 30 62
M  V30 65 1 31 63
M  V30 66 1 32 64
M  V30 67 1 36 65
M  V30 68 1 36 66
M  V30 69 1 37 67
M  V30 70 1 37 68
M  V30 71 1 37 69
M  V30 END BOND
M  V30 END CTAB
M  END
