
     RDKit          3D

  0  0  0  0  0  0  0  0  0  0999 V3000
M  V30 BEGIN CTAB
M  V30 COUNTS 33 34 0 0 0
M  V30 BEGIN ATOM
M  V30 1 N 2.90352 0.664091 -1.73771 0
M  V30 2 C 2.09679 -0.0419357 -0.753822 0
M  V30 3 C 2.82368 0.0569214 0.574169 0
M  V30 4 C 4.1776 -0.477923 0.756482 0
M  V30 5 C 3.02047 -1.2275 1.29546 0
M  V30 6 C 0.744586 0.56338 -0.584374 0
M  V30 7 N -0.0496384 0.586544 -1.76504 0
M  V30 8 S -1.59676 1.28833 -1.53562 0
M  V30 9 O -2.39253 1.35153 -2.79384 0
M  V30 10 O -1.41714 2.67938 -1.03626 0
M  V30 11 C -2.52393 0.379399 -0.369522 0
M  V30 12 C -2.96154 0.99033 0.777909 0
M  V30 13 C -3.69815 0.258259 1.6986 0
M  V30 14 Cl -4.28253 1.00161 3.18918 0
M  V30 15 C -3.97035 -1.06816 1.43258 0
M  V30 16 N -3.52609 -1.63787 0.296703 0
M  V30 17 C -2.80991 -0.945293 -0.609453 0
M  V30 18 N -2.37114 -1.60086 -1.78446 0
M  V30 19 H 3.89868 0.774356 -1.39262 0
M  V30 20 H 2.54375 1.621 -1.8683 0
M  V30 21 H 2.02251 -1.1117 -1.07428 0
M  V30 22 H 2.57467 0.983804 1.13213 0
M  V30 23 H 4.85194 0.038184 1.49122 0
M  V30 24 H 4.70461 -0.927549 -0.107699 0
M  V30 25 H 2.7451 -1.21056 2.36491 0
M  V30 26 H 2.71459 -2.17882 0.781444 0
M  V30 27 H 0.878975 1.60486 -0.224156 0
M  V30 28 H 0.207216 0.00482592 0.194717 0
M  V30 29 H 0.42057 0.848915 -2.63143 0
M  V30 30 H -2.75247 2.01828 0.987547 0
M  V30 31 H -4.54071 -1.614 2.15751 0
M  V30 32 H -2.86225 -1.41194 -2.68124 0
M  V30 33 H -1.57413 -2.25988 -1.75997 0
M  V30 END ATOM
M  V30 BEGIN BOND
M  V30 1 1 1 2
M  V30 2 1 2 3
M  V30 3 1 3 4
M  V30 4 1 4 5
M  V30 5 1 2 6
M  V30 6 1 6 7
M  V30 7 1 7 8
M  V30 8 2 8 9
M  V30 9 2 8 10
M  V30 10 1 8 11
M  V30 11 2 11 12
M  V30 12 1 12 13
M  V30 13 1 13 14
M  V30 14 2 13 15
M  V30 15 1 15 16
M  V30 16 2 16 17
M  V30 17 1 17 18
M  V30 18 1 5 3
M  V30 19 1 17 11
M  V30 20 1 1 19
M  V30 21 1 1 20
M  V30 22 1 2 21
M  V30 23 1 3 22
M  V30 24 1 4 23
M  V30 25 1 4 24
M  V30 26 1 5 25
M  V30 27 1 5 26
M  V30 28 1 6 27
M  V30 29 1 6 28
M  V30 30 1 7 29
M  V30 31 1 12 30
M  V30 32 1 15 31
M  V30 33 1 18 32
M  V30 34 1 18 33
M  V30 END BOND
M  V30 END CTAB
M  END
