
     RDKit          3D

  0  0  0  0  0  0  0  0  0  0999 V3000
M  V30 BEGIN CTAB
M  V30 COUNTS 20 20 0 0 0
M  V30 BEGIN ATOM
M  V30 1 C -2.95881 0.193631 -0.830044 0
M  V30 2 C -1.50123 0.540936 -0.668522 0
M  V30 3 C -0.781162 -0.594459 0.0294095 0 CFG=1
M  V30 4 C 0.645896 -0.203949 0.16366 0
M  V30 5 N 1.73766 -0.687541 -0.437188 0
M  V30 6 C 2.79028 0.0204001 0.0394369 0
M  V30 7 N 2.2955 0.920912 0.924449 0
M  V30 8 O 1.0177 0.773995 0.986579 0
M  V30 9 N 4.16599 -0.115914 -0.292285 0
M  V30 10 N -1.32711 -0.671044 1.37575 0
M  V30 11 H -3.1394 -0.810716 -1.20209 0
M  V30 12 H -3.41357 0.974363 -1.49696 0
M  V30 13 H -3.43568 0.329761 0.181456 0
M  V30 14 H -1.00797 0.750245 -1.65832 0
M  V30 15 H -1.4056 1.42872 -0.015862 0
M  V30 16 H -0.933465 -1.53911 -0.491959 0
M  V30 17 H 4.75675 -0.870364 0.104367 0
M  V30 18 H 4.56772 0.578673 -0.958066 0
M  V30 19 H -0.739471 -1.30824 1.96839 0
M  V30 20 H -1.33403 0.289702 1.7561 0
M  V30 END ATOM
M  V30 BEGIN BOND
M  V30 1 1 1 2
M  V30 2 1 2 3
M  V30 3 1 3 4
M  V30 4 2 4 5
M  V30 5 1 5 6
M  V30 6 2 6 7
M  V30 7 1 7 8
M  V30 8 1 6 9
M  V30 9 1 3 10
M  V30 10 1 8 4
M  V30 11 1 1 11
M  V30 12 1 1 12
M  V30 13 1 1 13
M  V30 14 1 2 14
M  V30 15 1 2 15
M  V30 16 1 3 16 CFG=3
M  V30 17 1 9 17
M  V30 18 1 9 18
M  V30 19 1 10 19
M  V30 20 1 10 20
M  V30 END BOND
M  V30 END CTAB
M  END
