
     RDKit          3D

  0  0  0  0  0  0  0  0  0  0999 V3000
M  V30 BEGIN CTAB
M  V30 COUNTS 26 26 0 0 0
M  V30 BEGIN ATOM
M  V30 1 N -5.59652 0.863112 -0.571902 0
M  V30 2 N -4.56318 0.779111 0.356873 0
M  V30 3 C -3.35468 0.142297 0.00474027 0
M  V30 4 O -3.23605 -0.33543 -1.13872 0
M  V30 5 C -2.27719 0.0608699 0.989643 0
M  V30 6 C -1.06771 -0.633642 0.484324 0
M  V30 7 S -0.67568 -2.28978 0.544194 0
M  V30 8 C 0.851316 -2.22685 -0.238567 0
M  V30 9 C 0.95826 -0.883277 -0.502248 0
M  V30 10 N -0.0186585 -0.118899 -0.126996 0
M  V30 11 C 2.18356 -0.3346 -1.20739 0
M  V30 12 C 3.19928 -0.00178027 -0.175813 0
M  V30 13 O 2.97911 -0.183588 1.05323 0
M  V30 14 N 4.46305 0.536741 -0.540456 0
M  V30 15 N 5.43006 0.856445 0.404216 0
M  V30 16 H -5.22857 0.859411 -1.54998 0
M  V30 17 H -6.12389 1.74636 -0.397664 0
M  V30 18 H -4.71712 1.19576 1.29785 0
M  V30 19 H -2.67925 -0.444536 1.90767 0
M  V30 20 H -2.03888 1.10505 1.31191 0
M  V30 21 H 1.57646 -3.02442 -0.481233 0
M  V30 22 H 2.56752 -1.10481 -1.88091 0
M  V30 23 H 1.91197 0.544829 -1.82398 0
M  V30 24 H 4.68516 0.702498 -1.54681 0
M  V30 25 H 5.28394 0.307556 1.27706 0
M  V30 26 H 5.48769 1.88158 0.587564 0
M  V30 END ATOM
M  V30 BEGIN BOND
M  V30 1 1 1 2
M  V30 2 1 2 3
M  V30 3 2 3 4
M  V30 4 1 3 5
M  V30 5 1 5 6
M  V30 6 1 6 7
M  V30 7 1 7 8
M  V30 8 2 8 9
M  V30 9 1 9 10
M  V30 10 1 9 11
M  V30 11 1 11 12
M  V30 12 2 12 13
M  V30 13 1 12 14
M  V30 14 1 14 15
M  V30 15 2 10 6
M  V30 16 1 1 16
M  V30 17 1 1 17
M  V30 18 1 2 18
M  V30 19 1 5 19
M  V30 20 1 5 20
M  V30 21 1 8 21
M  V30 22 1 11 22
M  V30 23 1 11 23
M  V30 24 1 14 24
M  V30 25 1 15 25
M  V30 26 1 15 26
M  V30 END BOND
M  V30 END CTAB
M  END
