
     RDKit          3D

  0  0  0  0  0  0  0  0  0  0999 V3000
M  V30 BEGIN CTAB
M  V30 COUNTS 19 19 0 0 0
M  V30 BEGIN ATOM
M  V30 1 N 3.37071 0.797975 0.732182 0
M  V30 2 N 3.03795 -0.296606 0.0228124 0
M  V30 3 C 2.04447 -0.882717 -0.413669 0
M  V30 4 C 0.665375 -0.48674 -0.261215 0
M  V30 5 C 0.310342 0.643885 0.422988 0
M  V30 6 C -1.05065 0.967364 0.531261 0
M  V30 7 C -2.00768 0.157238 -0.0431414 0
M  V30 8 C -1.66749 -0.985257 -0.735818 0
M  V30 9 C -0.344733 -1.28523 -0.832006 0
M  V30 10 Cl 0.133679 -2.73967 -1.71068 0
M  V30 11 N -3.36317 0.523223 0.092117 0
M  V30 12 H 3.6984 1.66348 0.201794 0
M  V30 13 H 3.33517 0.878042 1.79557 0
M  V30 14 H 2.26641 -1.82963 -0.991891 0
M  V30 15 H 1.01905 1.31511 0.89305 0
M  V30 16 H -1.31185 1.86028 1.07296 0
M  V30 17 H -2.43673 -1.60997 -1.18092 0
M  V30 18 H -4.04984 -0.183265 0.404303 0
M  V30 19 H -3.64941 1.49248 -0.123025 0
M  V30 END ATOM
M  V30 BEGIN BOND
M  V30 1 1 1 2
M  V30 2 2 2 3 CFG=2
M  V30 3 1 3 4
M  V30 4 2 4 5
M  V30 5 1 5 6
M  V30 6 2 6 7
M  V30 7 1 7 8
M  V30 8 2 8 9
M  V30 9 1 9 10
M  V30 10 1 7 11
M  V30 11 1 9 4
M  V30 12 1 1 12
M  V30 13 1 1 13
M  V30 14 1 3 14
M  V30 15 1 5 15
M  V30 16 1 6 16
M  V30 17 1 8 17
M  V30 18 1 11 18
M  V30 19 1 11 19
M  V30 END BOND
M  V30 END CTAB
M  END
