
     RDKit          3D

  0  0  0  0  0  0  0  0  0  0999 V3000
M  V30 BEGIN CTAB
M  V30 COUNTS 88 89 0 0 0
M  V30 BEGIN ATOM
M  V30 1 C 5.67801 -1.53061 1.01973 0 CFG=1
M  V30 2 N 5.81055 -2.65027 1.90747 0
M  V30 3 C 6.04994 -1.84644 -0.388025 0
M  V30 4 C 7.44816 -2.3146 -0.605418 0
M  V30 5 C 8.52224 -1.36094 -0.187433 0
M  V30 6 C 7.69519 -3.64732 0.0496789 0
M  V30 7 C 4.25425 -1.05548 1.04574 0
M  V30 8 O 3.98269 -0.109892 0.283168 0
M  V30 9 N 3.28641 -1.63564 1.87329 0
M  V30 10 C 1.91282 -1.21807 1.93463 0
M  V30 11 C 1.17355 -1.31104 0.635419 0
M  V30 12 C -0.260853 -0.914619 0.818998 0
M  V30 13 C -0.428401 0.486044 1.30735 0 CFG=1
M  V30 14 N 0.112621 1.48625 0.415999 0
M  V30 15 C 0.798519 2.59249 0.964985 0
M  V30 16 O 0.927448 2.6822 2.20019 0
M  V30 17 C 1.35306 3.63486 0.0900317 0 CFG=1
M  V30 18 N 1.95595 4.69815 0.915138 0
M  V30 19 C 2.40926 3.00765 -0.784733 0
M  V30 20 C 3.05664 3.94023 -1.71806 0
M  V30 21 C 2.56161 4.19681 -2.96376 0
M  V30 22 C 3.22212 5.05558 -3.79229 0
M  V30 23 C 4.398 5.67179 -3.37639 0
M  V30 24 O 5.05057 6.53487 -4.22879 0
M  V30 25 C 4.8833 5.40773 -2.12883 0
M  V30 26 C 4.24061 4.55082 -1.27781 0
M  V30 27 C -1.91826 0.736287 1.33482 0
M  V30 28 O -2.41549 1.35795 0.376634 0
M  V30 29 N -2.66641 0.261517 2.43543 0
M  V30 30 C -4.09182 0.484609 2.46306 0
M  V30 31 C -4.72786 -0.25974 1.3623 0
M  V30 32 O -4.03674 -0.974708 0.612448 0
M  V30 33 N -6.12447 -0.166743 1.1602 0
M  V30 34 C -6.76313 -0.940452 0.0719079 0 CFG=1
M  V30 35 C -7.95147 -1.67603 0.607434 0
M  V30 36 C -8.69265 -2.50924 -0.321799 0
M  V30 37 C -8.2944 -3.83006 -0.506001 0
M  V30 38 C -9.02734 -4.6012 -1.37744 0
M  V30 39 C -10.1335 -4.08877 -2.05932 0
M  V30 40 C -10.524 -2.78117 -1.87419 0
M  V30 41 C -9.78614 -2.01138 -0.998943 0
M  V30 42 C -7.01526 -0.00373164 -1.01278 0
M  V30 43 O -7.51934 -0.414862 -2.23808 0
M  V30 44 O -6.79033 1.24763 -0.922826 0
M  V30 45 H 6.28833 -0.684419 1.38614 0
M  V30 46 H 5.63882 -2.33499 2.88946 0
M  V30 47 H 5.166 -3.42511 1.64245 0
M  V30 48 H 5.36465 -2.64975 -0.782441 0
M  V30 49 H 5.86864 -0.965909 -1.05654 0
M  V30 50 H 7.56591 -2.45158 -1.72969 0
M  V30 51 H 8.85618 -1.53158 0.862916 0
M  V30 52 H 8.26436 -0.294747 -0.365025 0
M  V30 53 H 9.42695 -1.56667 -0.827895 0
M  V30 54 H 8.49351 -4.16452 -0.54076 0
M  V30 55 H 6.79389 -4.25303 0.106954 0
M  V30 56 H 8.08717 -3.51341 1.09192 0
M  V30 57 H 3.61601 -2.43859 2.48958 0
M  V30 58 H 1.38006 -1.75996 2.74973 0
M  V30 59 H 1.87468 -0.127032 2.22572 0
M  V30 60 H 1.2077 -2.33624 0.208341 0
M  V30 61 H 1.59436 -0.591419 -0.121674 0
M  V30 62 H -0.859588 -1.11147 -0.103632 0
M  V30 63 H -0.671688 -1.60586 1.61391 0
M  V30 64 H -0.0741205 0.623365 2.34926 0
M  V30 65 H -0.00105917 1.38908 -0.598356 0
M  V30 66 H 0.558896 4.14075 -0.508155 0
M  V30 67 H 2.53996 4.3023 1.67573 0
M  V30 68 H 1.1349 5.21771 1.32157 0
M  V30 69 H 3.16754 2.5901 -0.0766686 0
M  V30 70 H 1.95733 2.18209 -1.34023 0
M  V30 71 H 1.63465 3.68818 -3.23977 0
M  V30 72 H 2.81042 5.24176 -4.77684 0
M  V30 73 H 5.74907 6.10804 -4.84243 0
M  V30 74 H 5.80678 5.86389 -1.74565 0
M  V30 75 H 4.60599 4.32416 -0.281943 0
M  V30 76 H -2.22066 -0.241047 3.22244 0
M  V30 77 H -4.53864 0.197882 3.44319 0
M  V30 78 H -4.25735 1.58604 2.27995 0
M  V30 79 H -6.68356 0.44806 1.78249 0
M  V30 80 H -6.00281 -1.68121 -0.252786 0
M  V30 81 H -8.62574 -0.87929 1.04333 0
M  V30 82 H -7.66798 -2.28138 1.50802 0
M  V30 83 H -7.44735 -4.2616 -0.00175441 0
M  V30 84 H -8.71783 -5.64969 -1.53107 0
M  V30 85 H -10.6867 -4.72546 -2.73711 0
M  V30 86 H -11.3805 -2.40902 -2.41144 0
M  V30 87 H -10.1203 -0.97649 -0.872607 0
M  V30 88 H -7.11258 -1.17237 -2.76942 0
M  V30 END ATOM
M  V30 BEGIN BOND
M  V30 1 1 1 2
M  V30 2 1 1 3
M  V30 3 1 3 4
M  V30 4 1 4 5
M  V30 5 1 4 6
M  V30 6 1 1 7
M  V30 7 2 7 8
M  V30 8 1 7 9
M  V30 9 1 9 10
M  V30 10 1 10 11
M  V30 11 1 11 12
M  V30 12 1 12 13
M  V30 13 1 13 14
M  V30 14 1 14 15
M  V30 15 2 15 16
M  V30 16 1 15 17
M  V30 17 1 17 18
M  V30 18 1 17 19
M  V30 19 1 19 20
M  V30 20 2 20 21
M  V30 21 1 21 22
M  V30 22 2 22 23
M  V30 23 1 23 24
M  V30 24 1 23 25
M  V30 25 2 25 26
M  V30 26 1 13 27
M  V30 27 2 27 28
M  V30 28 1 27 29
M  V30 29 1 29 30
M  V30 30 1 30 31
M  V30 31 2 31 32
M  V30 32 1 31 33
M  V30 33 1 33 34
M  V30 34 1 34 35
M  V30 35 1 35 36
M  V30 36 2 36 37
M  V30 37 1 37 38
M  V30 38 2 38 39
M  V30 39 1 39 40
M  V30 40 2 40 41
M  V30 41 1 34 42
M  V30 42 1 42 43
M  V30 43 2 42 44
M  V30 44 1 26 20
M  V30 45 1 41 36
M  V30 46 1 1 45 CFG=1
M  V30 47 1 2 46
M  V30 48 1 2 47
M  V30 49 1 3 48
M  V30 50 1 3 49
M  V30 51 1 4 50
M  V30 52 1 5 51
M  V30 53 1 5 52
M  V30 54 1 5 53
M  V30 55 1 6 54
M  V30 56 1 6 55
M  V30 57 1 6 56
M  V30 58 1 9 57
M  V30 59 1 10 58
M  V30 60 1 10 59
M  V30 61 1 11 60
M  V30 62 1 11 61
M  V30 63 1 12 62
M  V30 64 1 12 63
M  V30 65 1 13 64 CFG=1
M  V30 66 1 14 65
M  V30 67 1 17 66 CFG=3
M  V30 68 1 18 67
M  V30 69 1 18 68
M  V30 70 1 19 69
M  V30 71 1 19 70
M  V30 72 1 21 71
M  V30 73 1 22 72
M  V30 74 1 24 73
M  V30 75 1 25 74
M  V30 76 1 26 75
M  V30 77 1 29 76
M  V30 78 1 30 77
M  V30 79 1 30 78
M  V30 80 1 33 79
M  V30 81 1 34 80 CFG=3
M  V30 82 1 35 81
M  V30 83 1 35 82
M  V30 84 1 37 83
M  V30 85 1 38 84
M  V30 86 1 39 85
M  V30 87 1 40 86
M  V30 88 1 41 87
M  V30 89 1 43 88
M  V30 END BOND
M  V30 END CTAB
M  END
