
     RDKit          3D

  0  0  0  0  0  0  0  0  0  0999 V3000
M  V30 BEGIN CTAB
M  V30 COUNTS 58 61 0 0 0
M  V30 BEGIN ATOM
M  V30 1 N -5.98518 0.0871605 3.5913 0
M  V30 2 C -5.14231 0.353069 2.47267 0
M  V30 3 N -5.67404 0.739584 1.29546 0
M  V30 4 C -4.89017 0.995685 0.224903 0
M  V30 5 O -5.424 1.35509 -0.859052 0
M  V30 6 N -3.56087 0.887317 0.253223 0
M  V30 7 C -2.9747 0.506211 1.39828 0
M  V30 8 C -3.76597 0.23546 2.52034 0
M  V30 9 C -2.71652 1.16617 -0.909631 0 CFG=2
M  V30 10 O -3.45181 1.22207 -2.06516 0
M  V30 11 C -2.59299 0.754307 -3.05666 0 CFG=2
M  V30 12 C -3.28617 0.487608 -4.35867 0
M  V30 13 O -4.26913 -0.463396 -4.19399 0
M  V30 14 C -2.13912 -0.549468 -2.38392 0 CFG=1
M  V30 15 O -1.17688 -1.20476 -3.07829 0
M  V30 16 C -1.67902 0.039432 -1.06748 0 CFG=1
M  V30 17 S -0.0864356 0.813192 -1.14118 0
M  V30 18 S 1.45654 -0.547083 -1.35957 0
M  V30 19 C 2.21735 -1.15616 0.0830111 0 CFG=2
M  V30 20 C 1.48509 -2.01671 1.03433 0 CFG=2
M  V30 21 O 0.214848 -1.64968 1.37529 0
M  V30 22 C 2.33552 -1.79971 2.306 0 CFG=1
M  V30 23 C 3.02396 -3.10406 2.64163 0
M  V30 24 O 3.82968 -2.98992 3.75597 0
M  V30 25 O 3.21248 -0.781033 2.04218 0
M  V30 26 C 2.65933 -0.0253389 1.04231 0 CFG=1
M  V30 27 N 3.56917 0.88099 0.395833 0
M  V30 28 C 4.65634 0.492611 -0.279321 0
M  V30 29 C 5.48795 1.42572 -0.878057 0
M  V30 30 C 5.20791 2.77286 -0.787501 0
M  V30 31 N 6.05705 3.73584 -1.39941 0
M  V30 32 N 4.10767 3.11647 -0.100909 0
M  V30 33 C 3.30664 2.20483 0.476641 0
M  V30 34 O 2.28997 2.64409 1.10294 0
M  V30 35 H -5.74725 -0.679315 4.25513 0
M  V30 36 H -6.85671 0.629538 3.79651 0
M  V30 37 H -1.89724 0.401733 1.47812 0
M  V30 38 H -3.3411 -0.071946 3.4562 0
M  V30 39 H -2.24157 2.15202 -0.759252 0
M  V30 40 H -1.70385 1.40316 -3.17275 0
M  V30 41 H -3.64111 1.44305 -4.7558 0
M  V30 42 H -2.49398 0.134629 -5.07048 0
M  V30 43 H -3.9739 -1.30058 -4.63556 0
M  V30 44 H -3.01969 -1.19202 -2.17911 0
M  V30 45 H -1.23887 -2.1856 -3.06071 0
M  V30 46 H -1.82996 -0.730914 -0.304944 0
M  V30 47 H 3.19585 -1.6977 -0.137987 0
M  V30 48 H 1.55 -3.08619 0.746306 0
M  V30 49 H -0.216379 -2.42707 1.81815 0
M  V30 50 H 1.72263 -1.52157 3.17075 0
M  V30 51 H 3.5219 -3.45851 1.73971 0
M  V30 52 H 2.20702 -3.82224 2.90543 0
M  V30 53 H 3.914 -3.83687 4.26039 0
M  V30 54 H 1.77081 0.497392 1.42384 0
M  V30 55 H 4.87519 -0.564968 -0.349608 0
M  V30 56 H 6.36413 1.1087 -1.42168 0
M  V30 57 H 6.12792 4.72598 -1.09114 0
M  V30 58 H 6.64998 3.45089 -2.205 0
M  V30 END ATOM
M  V30 BEGIN BOND
M  V30 1 1 1 2
M  V30 2 2 2 3
M  V30 3 1 3 4
M  V30 4 2 4 5
M  V30 5 1 4 6
M  V30 6 1 6 7
M  V30 7 2 7 8
M  V30 8 1 6 9
M  V30 9 1 9 10
M  V30 10 1 10 11
M  V30 11 1 11 12
M  V30 12 1 12 13
M  V30 13 1 11 14
M  V30 14 1 14 15
M  V30 15 1 14 16
M  V30 16 1 16 17
M  V30 17 1 17 18
M  V30 18 1 18 19
M  V30 19 1 19 20
M  V30 20 1 20 21
M  V30 21 1 20 22
M  V30 22 1 22 23
M  V30 23 1 23 24
M  V30 24 1 22 25
M  V30 25 1 25 26
M  V30 26 1 26 27
M  V30 27 1 27 28
M  V30 28 2 28 29
M  V30 29 1 29 30
M  V30 30 1 30 31
M  V30 31 2 30 32
M  V30 32 1 32 33
M  V30 33 2 33 34
M  V30 34 1 8 2
M  V30 35 1 16 9
M  V30 36 1 26 19
M  V30 37 1 33 27
M  V30 38 1 1 35
M  V30 39 1 1 36
M  V30 40 1 7 37
M  V30 41 1 8 38
M  V30 42 1 9 39 CFG=1
M  V30 43 1 11 40 CFG=3
M  V30 44 1 12 41
M  V30 45 1 12 42
M  V30 46 1 13 43
M  V30 47 1 14 44 CFG=1
M  V30 48 1 15 45
M  V30 49 1 16 46 CFG=1
M  V30 50 1 19 47 CFG=3
M  V30 51 1 20 48 CFG=3
M  V30 52 1 21 49
M  V30 53 1 22 50 CFG=1
M  V30 54 1 23 51
M  V30 55 1 23 52
M  V30 56 1 24 53
M  V30 57 1 26 54 CFG=1
M  V30 58 1 28 55
M  V30 59 1 29 56
M  V30 60 1 31 57
M  V30 61 1 31 58
M  V30 END BOND
M  V30 END CTAB
M  END
