
     RDKit          3D

  0  0  0  0  0  0  0  0  0  0999 V3000
M  V30 BEGIN CTAB
M  V30 COUNTS 28 27 0 0 0
M  V30 BEGIN ATOM
M  V30 1 N -3.95277 1.80251 0.202924 0
M  V30 2 N -3.95719 0.54358 -0.239699 0
M  V30 3 C -3.97334 -0.733087 -0.708716 0
M  V30 4 O -4.45665 -1.12557 -1.79632 0
M  V30 5 C -3.32887 -1.8208 0.171356 0
M  V30 6 S -2.20098 -0.89586 1.32361 0
M  V30 7 C -0.882851 -0.290635 0.275206 0
M  V30 8 C 0.211222 -1.34999 0.0365268 0
M  V30 9 S 1.29993 -0.473109 -1.14599 0
M  V30 10 C 2.23219 0.725407 -0.259286 0
M  V30 11 C 3.70638 0.157187 -0.0365182 0
M  V30 12 O 3.58021 -0.728643 0.880118 0
M  V30 13 N 4.63444 0.733688 -0.788389 0
M  V30 14 N 5.93624 0.693623 -1.02536 0
M  V30 15 H -3.26415 2.33965 -0.278783 0
M  V30 16 H -3.83952 1.93857 1.23558 0
M  V30 17 H -5.08144 0.858072 -1.00535 0
M  V30 18 H -2.73343 -2.5057 -0.425405 0
M  V30 19 H -4.07037 -2.30143 0.755274 0
M  V30 20 H -1.30308 -0.108962 -0.78662 0
M  V30 21 H -0.52123 0.724713 0.528652 0
M  V30 22 H -0.145132 -2.30732 -0.36942 0
M  V30 23 H 0.741143 -1.51362 0.994428 0
M  V30 24 H 1.99173 0.875896 0.82396 0
M  V30 25 H 2.32139 1.71913 -0.71776 0
M  V30 26 H 4.17012 1.55816 -1.50313 0
M  V30 27 H 6.40818 1.63205 -1.17851 0
M  V30 28 H 6.47785 -0.147511 -1.14682 0
M  V30 END ATOM
M  V30 BEGIN BOND
M  V30 1 1 1 2
M  V30 2 1 2 3
M  V30 3 2 3 4
M  V30 4 1 3 5
M  V30 5 1 5 6
M  V30 6 1 6 7
M  V30 7 1 7 8
M  V30 8 1 8 9
M  V30 9 1 9 10
M  V30 10 1 10 11
M  V30 11 2 11 12
M  V30 12 1 11 13
M  V30 13 1 13 14
M  V30 14 1 1 15
M  V30 15 1 1 16
M  V30 16 1 2 17
M  V30 17 1 5 18
M  V30 18 1 5 19
M  V30 19 1 7 20
M  V30 20 1 7 21
M  V30 21 1 8 22
M  V30 22 1 8 23
M  V30 23 1 10 24
M  V30 24 1 10 25
M  V30 25 1 13 26
M  V30 26 1 14 27
M  V30 27 1 14 28
M  V30 END BOND
M  V30 END CTAB
M  END
