
     RDKit          3D

  0  0  0  0  0  0  0  0  0  0999 V3000
M  V30 BEGIN CTAB
M  V30 COUNTS 77 79 0 0 0
M  V30 BEGIN ATOM
M  V30 1 N 11.1918 -2.87161 -0.337386 0
M  V30 2 C 10.8399 -2.41423 0.947004 0
M  V30 3 N 11.0314 -3.27203 1.92453 0
M  V30 4 N 10.3139 -1.12638 1.20655 0
M  V30 5 C 8.91832 -0.909966 1.22078 0
M  V30 6 C 8.00229 -1.90394 0.950274 0
M  V30 7 C 6.62307 -1.66332 0.97774 0
M  V30 8 C 6.13292 -0.416696 1.2781 0
M  V30 9 C 7.04458 0.58398 1.5499 0
M  V30 10 C 8.39949 0.341462 1.52124 0
M  V30 11 C 4.68063 -0.124565 1.31185 0
M  V30 12 O 4.33699 0.942006 1.88425 0
M  V30 13 N 3.72919 -0.963218 0.750811 0
M  V30 14 C 2.32701 -0.673332 0.78172 0
M  V30 15 C 1.99885 0.605639 0.0515471 0
M  V30 16 C 0.479552 0.842991 0.113083 0
M  V30 17 C 0.137511 2.09744 -0.571567 0 CFG=2
M  V30 18 N -1.24823 2.51699 -0.558129 0
M  V30 19 C -1.40284 3.96816 -0.860796 0
M  V30 20 C -0.479252 4.46124 -1.90728 0
M  V30 21 N 0.256006 3.42193 -2.6283 0
M  V30 22 C 0.738731 3.70567 -3.95495 0
M  V30 23 C -0.302944 3.32474 -4.93462 0
M  V30 24 O -1.48983 2.78666 -4.48341 0
M  V30 25 O -0.0599552 3.51 -6.16679 0
M  V30 26 C 0.487535 2.15702 -2.02816 0
M  V30 27 O 0.926321 1.21329 -2.6436 0
M  V30 28 C -2.4063 1.80595 -0.328785 0
M  V30 29 O -3.50736 2.49073 -0.357373 0
M  V30 30 C -2.61148 0.380612 -0.0531187 0
M  V30 31 N -4.0108 0.0402754 0.157658 0
M  V30 32 C -4.36676 -1.30348 0.43358 0
M  V30 33 O -3.48364 -2.21425 0.49745 0
M  V30 34 C -5.75217 -1.69187 0.653461 0
M  V30 35 C -6.79762 -0.803377 0.765821 0
M  V30 36 C -8.11595 -1.22628 0.974918 0
M  V30 37 C -8.4185 -2.56802 1.07717 0
M  V30 38 N -9.74405 -3.03153 1.29278 0
M  V30 39 C -10.8422 -2.15164 1.45398 0
M  V30 40 N -11.4252 -1.93112 2.72465 0
M  V30 41 N -11.3216 -1.54121 0.435948 0
M  V30 42 C -7.37819 -3.46409 0.965552 0
M  V30 43 C -6.08142 -3.0475 0.759988 0
M  V30 44 H 10.864 -3.79112 -0.663222 0
M  V30 45 H 11.7761 -2.28383 -0.948808 0
M  V30 46 H 11.4084 -4.21443 1.79268 0
M  V30 47 H 10.9549 -0.339142 1.38733 0
M  V30 48 H 8.39444 -2.88313 0.714261 0
M  V30 49 H 5.93819 -2.47809 0.760734 0
M  V30 50 H 6.63252 1.5706 1.78641 0
M  V30 51 H 9.11345 1.13503 1.73611 0
M  V30 52 H 4.09764 -1.84997 0.28501 0
M  V30 53 H 2.04155 -0.604144 1.86055 0
M  V30 54 H 1.78092 -1.54021 0.344774 0
M  V30 55 H 2.38651 0.517275 -0.966571 0
M  V30 56 H 2.49657 1.46512 0.516566 0
M  V30 57 H 0.227367 0.936409 1.18494 0
M  V30 58 H -0.0296015 -0.0659473 -0.277981 0
M  V30 59 H 0.727825 2.93674 -0.104941 0
M  V30 60 H -2.45148 4.23503 -0.997498 0
M  V30 61 H -1.09217 4.45417 0.111319 0
M  V30 62 H -1.07907 5.0443 -2.65899 0
M  V30 63 H 0.314501 5.15589 -1.5035 0
M  V30 64 H 1.63519 3.06753 -4.18205 0
M  V30 65 H 1.05385 4.76812 -4.06886 0
M  V30 66 H -1.72835 1.81843 -4.6813 0
M  V30 67 H -2.08537 0.110292 0.876233 0
M  V30 68 H -2.2291 -0.279706 -0.862955 0
M  V30 69 H -4.73578 0.76417 0.106403 0
M  V30 70 H -6.60028 0.25004 0.691279 0
M  V30 71 H -8.91299 -0.513114 1.05891 0
M  V30 72 H -9.91848 -4.05128 1.33431 0
M  V30 73 H -11.784 -0.982096 2.94822 0
M  V30 74 H -11.5165 -2.67 3.45116 0
M  V30 75 H -12.1006 -0.884817 0.395911 0
M  V30 76 H -7.63933 -4.52781 1.04971 0
M  V30 77 H -5.2905 -3.75865 0.675799 0
M  V30 END ATOM
M  V30 BEGIN BOND
M  V30 1 1 1 2
M  V30 2 2 2 3 CFG=2
M  V30 3 1 2 4
M  V30 4 1 4 5
M  V30 5 2 5 6
M  V30 6 1 6 7
M  V30 7 2 7 8
M  V30 8 1 8 9
M  V30 9 2 9 10
M  V30 10 1 8 11
M  V30 11 2 11 12
M  V30 12 1 11 13
M  V30 13 1 13 14
M  V30 14 1 14 15
M  V30 15 1 15 16
M  V30 16 1 16 17
M  V30 17 1 17 18
M  V30 18 1 18 19
M  V30 19 1 19 20
M  V30 20 1 20 21
M  V30 21 1 21 22
M  V30 22 1 22 23
M  V30 23 1 23 24
M  V30 24 2 23 25
M  V30 25 1 21 26
M  V30 26 2 26 27
M  V30 27 1 18 28
M  V30 28 2 28 29
M  V30 29 1 28 30
M  V30 30 1 30 31
M  V30 31 1 31 32
M  V30 32 2 32 33
M  V30 33 1 32 34
M  V30 34 2 34 35
M  V30 35 1 35 36
M  V30 36 2 36 37
M  V30 37 1 37 38
M  V30 38 1 38 39
M  V30 39 1 39 40
M  V30 40 2 39 41 CFG=2
M  V30 41 1 37 42
M  V30 42 2 42 43
M  V30 43 1 10 5
M  V30 44 1 26 17
M  V30 45 1 43 34
M  V30 46 1 1 44
M  V30 47 1 1 45
M  V30 48 1 3 46
M  V30 49 1 4 47
M  V30 50 1 6 48
M  V30 51 1 7 49
M  V30 52 1 9 50
M  V30 53 1 10 51
M  V30 54 1 13 52
M  V30 55 1 14 53
M  V30 56 1 14 54
M  V30 57 1 15 55
M  V30 58 1 15 56
M  V30 59 1 16 57
M  V30 60 1 16 58
M  V30 61 1 17 59 CFG=1
M  V30 62 1 19 60
M  V30 63 1 19 61
M  V30 64 1 20 62
M  V30 65 1 20 63
M  V30 66 1 22 64
M  V30 67 1 22 65
M  V30 68 1 24 66
M  V30 69 1 30 67
M  V30 70 1 30 68
M  V30 71 1 31 69
M  V30 72 1 35 70
M  V30 73 1 36 71
M  V30 74 1 38 72
M  V30 75 1 40 73
M  V30 76 1 40 74
M  V30 77 1 41 75
M  V30 78 1 42 76
M  V30 79 1 43 77
M  V30 END BOND
M  V30 END CTAB
M  END
