
     RDKit          3D

  0  0  0  0  0  0  0  0  0  0999 V3000
M  V30 BEGIN CTAB
M  V30 COUNTS 29 29 0 0 0
M  V30 BEGIN ATOM
M  V30 1 C -3.23597 -0.633394 -1.3981 0
M  V30 2 C -1.92256 -0.770376 -0.649329 0
M  V30 3 N -0.932785 0.150733 -1.15256 0
M  V30 4 C 0.409425 0.228091 -0.726181 0
M  V30 5 C 1.25754 1.1642 -1.27726 0
M  V30 6 C 2.56816 1.30169 -0.927608 0
M  V30 7 C 3.09635 0.457379 0.0389069 0
M  V30 8 C 2.23808 -0.474012 0.581965 0
M  V30 9 N 0.948303 -0.574202 0.205652 0
M  V30 10 N 2.77371 -1.34606 1.5765 0
M  V30 11 N 4.45467 0.571196 0.427632 0
M  V30 12 C -2.18629 -0.626124 0.834306 0
M  V30 13 C -2.78576 0.694813 1.20178 0
M  V30 14 H -3.17988 0.295503 -2.00447 0
M  V30 15 H -3.40694 -1.4915 -2.09072 0
M  V30 16 H -4.09867 -0.613531 -0.704383 0
M  V30 17 H -1.55094 -1.79889 -0.819869 0
M  V30 18 H -1.24982 0.814115 -1.89815 0
M  V30 19 H 0.861592 1.82834 -2.03043 0
M  V30 20 H 3.21626 2.02687 -1.35776 0
M  V30 21 H 2.83021 -1.02552 2.566 0
M  V30 22 H 3.1113 -2.29715 1.3424 0
M  V30 23 H 5.202 0.700055 -0.281513 0
M  V30 24 H 4.76605 0.531869 1.42841 0
M  V30 25 H -1.27985 -0.785686 1.42047 0
M  V30 26 H -2.96238 -1.3983 1.07926 0
M  V30 27 H -3.29032 0.567158 2.19518 0
M  V30 28 H -2.03896 1.50777 1.31961 0
M  V30 29 H -3.61253 0.994964 0.501471 0
M  V30 END ATOM
M  V30 BEGIN BOND
M  V30 1 1 1 2
M  V30 2 1 2 3
M  V30 3 1 3 4
M  V30 4 2 4 5
M  V30 5 1 5 6
M  V30 6 2 6 7
M  V30 7 1 7 8
M  V30 8 2 8 9
M  V30 9 1 8 10
M  V30 10 1 7 11
M  V30 11 1 2 12
M  V30 12 1 12 13
M  V30 13 1 9 4
M  V30 14 1 1 14
M  V30 15 1 1 15
M  V30 16 1 1 16
M  V30 17 1 2 17
M  V30 18 1 3 18
M  V30 19 1 5 19
M  V30 20 1 6 20
M  V30 21 1 10 21
M  V30 22 1 10 22
M  V30 23 1 11 23
M  V30 24 1 11 24
M  V30 25 1 12 25
M  V30 26 1 12 26
M  V30 27 1 13 27
M  V30 28 1 13 28
M  V30 29 1 13 29
M  V30 END BOND
M  V30 END CTAB
M  END
