
     RDKit          3D

  0  0  0  0  0  0  0  0  0  0999 V3000
M  V30 BEGIN CTAB
M  V30 COUNTS 47 49 0 0 0
M  V30 BEGIN ATOM
M  V30 1 C -2.748 -3.89836 -1.0641 0
M  V30 2 O -3.2672 -3.00149 -0.11365 0
M  V30 3 C -2.7207 -1.73543 -0.0410405 0
M  V30 4 C -1.66814 -1.31967 -0.876953 0
M  V30 5 C -1.16024 -0.0605358 -0.771779 0
M  V30 6 C -1.66887 0.809274 0.146866 0
M  V30 7 C -2.7203 0.428295 0.999582 0
M  V30 8 O -3.26287 1.26943 1.93885 0
M  V30 9 C -2.90994 2.58091 2.22733 0
M  V30 10 C -3.22219 -0.84837 0.879222 0
M  V30 11 O -4.26138 -1.24278 1.71143 0
M  V30 12 C -5.61863 -1.07433 1.38827 0
M  V30 13 N -0.0507749 0.428461 -1.61161 0
M  V30 14 C -0.44678 0.875428 -2.90467 0
M  V30 15 C 1.16555 0.36679 -0.919628 0
M  V30 16 C 2.4651 0.701921 -1.56831 0
M  V30 17 C 2.60203 1.0381 -2.87288 0
M  V30 18 S 4.29032 1.28907 -3.05935 0
M  V30 19 C 4.78155 0.959791 -1.47212 0
M  V30 20 C 3.63595 0.658645 -0.812215 0
M  V30 21 C 3.80376 0.348139 0.548192 0
M  V30 22 N 2.76117 0.00655809 1.42928 0
M  V30 23 N 5.02868 0.365064 1.09667 0
M  V30 24 C 6.13497 0.658596 0.44845 0
M  V30 25 N 7.40963 0.665526 1.05759 0
M  V30 26 N 6.01265 0.959701 -0.851094 0
M  V30 27 H -2.70029 -3.43828 -2.0885 0
M  V30 28 H -1.71808 -4.15343 -0.779444 0
M  V30 29 H -3.39757 -4.81215 -1.17455 0
M  V30 30 H -1.26945 -1.9937 -1.5925 0
M  V30 31 H -1.27818 1.81531 0.244096 0
M  V30 32 H -3.81152 3.22522 2.00421 0
M  V30 33 H -2.09352 3.01018 1.64822 0
M  V30 34 H -2.74448 2.72012 3.33189 0
M  V30 35 H -6.18212 -0.705613 2.26568 0
M  V30 36 H -6.11657 -1.99456 1.04153 0
M  V30 37 H -5.77093 -0.318296 0.580161 0
M  V30 38 H -1.59254 0.889471 -2.93994 0
M  V30 39 H -0.212264 0.154508 -3.72393 0
M  V30 40 H -0.211549 1.93223 -3.13918 0
M  V30 41 H 1.01999 1.05018 -0.0235156 0
M  V30 42 H 1.3326 -0.671592 -0.480551 0
M  V30 43 H 1.86181 1.14189 -3.69284 0
M  V30 44 H 2.18391 0.632015 1.99843 0
M  V30 45 H 2.5367 -1.02375 1.53339 0
M  V30 46 H 7.62345 -0.014676 1.82016 0
M  V30 47 H 8.17524 1.32618 0.787206 0
M  V30 END ATOM
M  V30 BEGIN BOND
M  V30 1 1 1 2
M  V30 2 1 2 3
M  V30 3 2 3 4
M  V30 4 1 4 5
M  V30 5 2 5 6
M  V30 6 1 6 7
M  V30 7 1 7 8
M  V30 8 1 8 9
M  V30 9 2 7 10
M  V30 10 1 10 11
M  V30 11 1 11 12
M  V30 12 1 5 13
M  V30 13 1 13 14
M  V30 14 1 13 15
M  V30 15 1 15 16
M  V30 16 2 16 17
M  V30 17 1 17 18
M  V30 18 1 18 19
M  V30 19 2 19 20
M  V30 20 1 20 21
M  V30 21 1 21 22
M  V30 22 2 21 23
M  V30 23 1 23 24
M  V30 24 1 24 25
M  V30 25 2 24 26
M  V30 26 1 10 3
M  V30 27 1 20 16
M  V30 28 1 26 19
M  V30 29 1 1 27
M  V30 30 1 1 28
M  V30 31 1 1 29
M  V30 32 1 4 30
M  V30 33 1 6 31
M  V30 34 1 9 32
M  V30 35 1 9 33
M  V30 36 1 9 34
M  V30 37 1 12 35
M  V30 38 1 12 36
M  V30 39 1 12 37
M  V30 40 1 14 38
M  V30 41 1 14 39
M  V30 42 1 14 40
M  V30 43 1 15 41
M  V30 44 1 15 42
M  V30 45 1 17 43
M  V30 46 1 22 44
M  V30 47 1 22 45
M  V30 48 1 25 46
M  V30 49 1 25 47
M  V30 END BOND
M  V30 END CTAB
M  END
