
     RDKit          3D

  0  0  0  0  0  0  0  0  0  0999 V3000
M  V30 BEGIN CTAB
M  V30 COUNTS 47 48 0 0 0
M  V30 BEGIN ATOM
M  V30 1 N 7.49757 2.36855 -0.537317 0
M  V30 2 C 7.23742 1.33302 0.467241 0
M  V30 3 C 6.33749 0.315757 -0.0931502 0
M  V30 4 C 6.86831 -0.771151 -0.743798 0
M  V30 5 C 6.07893 -1.76287 -1.29317 0
M  V30 6 C 4.71513 -1.62217 -1.1639 0
M  V30 7 C 4.17265 -0.540349 -0.51581 0
M  V30 8 C 4.97834 0.461187 0.0387036 0
M  V30 9 C 2.69883 -0.434304 -0.40288 0
M  V30 10 N 2.19926 -1.06867 0.794212 0
M  V30 11 C 0.81108 -1.07068 1.07722 0
M  V30 12 S 0.220252 -1.77976 2.42183 0
M  V30 13 N -0.078955 -0.450708 0.184805 0
M  V30 14 C -1.49129 -0.442173 0.454439 0
M  V30 15 C -2.26297 0.286245 -0.649244 0
M  V30 16 C -3.70947 0.243661 -0.284663 0
M  V30 17 C -4.29384 1.23413 0.477233 0
M  V30 18 C -5.63463 1.17845 0.805318 0
M  V30 19 C -6.44782 0.142911 0.393305 0
M  V30 20 C -5.86284 -0.849061 -0.369671 0
M  V30 21 C -4.52273 -0.791897 -0.696666 0
M  V30 22 S -8.14299 0.115155 0.834146 0
M  V30 23 O -8.56169 -1.34454 0.932347 0
M  V30 24 O -8.29544 0.711867 2.19327 0
M  V30 25 N -9.11081 0.919892 -0.343611 0
M  V30 26 H 8.27883 2.03327 -1.12283 0
M  V30 27 H 7.79155 3.25538 -0.071322 0
M  V30 28 H 6.83513 1.84154 1.36589 0
M  V30 29 H 8.20573 0.876877 0.779398 0
M  V30 30 H 7.94968 -0.90252 -0.857811 0
M  V30 31 H 6.51092 -2.60533 -1.7982 0
M  V30 32 H 4.08577 -2.38558 -1.58604 0
M  V30 33 H 4.54152 1.31266 0.549141 0
M  V30 34 H 2.24998 -0.956181 -1.29371 0
M  V30 35 H 2.39392 0.625631 -0.482286 0
M  V30 36 H 2.84224 -1.53409 1.46924 0
M  V30 37 H 0.287706 0.00246321 -0.672338 0
M  V30 38 H -1.92011 -1.4509 0.620544 0
M  V30 39 H -1.68234 0.125665 1.41134 0
M  V30 40 H -2.15111 -0.284926 -1.59482 0
M  V30 41 H -1.89526 1.2995 -0.799198 0
M  V30 42 H -3.65646 2.06195 0.810016 0
M  V30 43 H -6.06539 1.97213 1.40571 0
M  V30 44 H -6.4996 -1.65981 -0.692216 0
M  V30 45 H -4.06973 -1.58544 -1.30298 0
M  V30 46 H -9.53424 0.199921 -0.970812 0
M  V30 47 H -9.89849 1.37531 0.167941 0
M  V30 END ATOM
M  V30 BEGIN BOND
M  V30 1 1 1 2
M  V30 2 1 2 3
M  V30 3 2 3 4
M  V30 4 1 4 5
M  V30 5 2 5 6
M  V30 6 1 6 7
M  V30 7 2 7 8
M  V30 8 1 7 9
M  V30 9 1 9 10
M  V30 10 1 10 11
M  V30 11 2 11 12
M  V30 12 1 11 13
M  V30 13 1 13 14
M  V30 14 1 14 15
M  V30 15 1 15 16
M  V30 16 2 16 17
M  V30 17 1 17 18
M  V30 18 2 18 19
M  V30 19 1 19 20
M  V30 20 2 20 21
M  V30 21 1 19 22
M  V30 22 2 22 23
M  V30 23 2 22 24
M  V30 24 1 22 25
M  V30 25 1 8 3
M  V30 26 1 21 16
M  V30 27 1 1 26
M  V30 28 1 1 27
M  V30 29 1 2 28
M  V30 30 1 2 29
M  V30 31 1 4 30
M  V30 32 1 5 31
M  V30 33 1 6 32
M  V30 34 1 8 33
M  V30 35 1 9 34
M  V30 36 1 9 35
M  V30 37 1 10 36
M  V30 38 1 13 37
M  V30 39 1 14 38
M  V30 40 1 14 39
M  V30 41 1 15 40
M  V30 42 1 15 41
M  V30 43 1 17 42
M  V30 44 1 18 43
M  V30 45 1 20 44
M  V30 46 1 21 45
M  V30 47 1 25 46
M  V30 48 1 25 47
M  V30 END BOND
M  V30 END CTAB
M  END
