
     RDKit          3D

  0  0  0  0  0  0  0  0  0  0999 V3000
M  V30 BEGIN CTAB
M  V30 COUNTS 30 30 0 0 0
M  V30 BEGIN ATOM
M  V30 1 N 4.75615 0.0395589 0.314968 0
M  V30 2 C 3.37595 0.483367 0.421209 0
M  V30 3 C 2.51146 -0.615553 -0.114138 0
M  V30 4 C 1.07751 -0.338596 -0.0840985 0
M  V30 5 C 0.498854 0.741827 0.537205 0
M  V30 6 C -0.857688 0.968056 0.543422 0
M  V30 7 C -1.69856 0.0890486 -0.0935754 0
M  V30 8 C -1.15726 -1.00871 -0.729512 0
M  V30 9 C 0.22685 -1.2186 -0.722695 0
M  V30 10 N -3.11104 0.297533 -0.104143 0
M  V30 11 C -3.97807 -0.636444 -0.778348 0
M  V30 12 C -3.68831 1.44092 0.55688 0
M  V30 13 N 2.95132 -0.99541 -1.44312 0
M  V30 14 H 5.076 0.287122 -0.648109 0
M  V30 15 H 4.83588 -0.98261 0.415566 0
M  V30 16 H 3.16593 0.713348 1.47998 0
M  V30 17 H 3.30294 1.42503 -0.135383 0
M  V30 18 H 2.69151 -1.51423 0.534608 0
M  V30 19 H 1.13947 1.43248 1.0357 0
M  V30 20 H -1.22982 1.84125 1.05513 0
M  V30 21 H -1.82756 -1.69265 -1.22675 0
M  V30 22 H 0.571676 -2.1024 -1.24355 0
M  V30 23 H -4.06758 -1.59235 -0.213339 0
M  V30 24 H -4.98786 -0.174693 -0.934225 0
M  V30 25 H -3.62308 -0.907677 -1.79495 0
M  V30 26 H -4.77561 1.29015 0.733586 0
M  V30 27 H -3.23008 1.62953 1.55455 0
M  V30 28 H -3.57193 2.38389 -0.0214725 0
M  V30 29 H 3.47974 -0.163094 -1.83388 0
M  V30 30 H 2.1432 -1.12009 -2.09232 0
M  V30 END ATOM
M  V30 BEGIN BOND
M  V30 1 1 1 2
M  V30 2 1 2 3
M  V30 3 1 3 4
M  V30 4 2 4 5
M  V30 5 1 5 6
M  V30 6 2 6 7
M  V30 7 1 7 8
M  V30 8 2 8 9
M  V30 9 1 7 10
M  V30 10 1 10 11
M  V30 11 1 10 12
M  V30 12 1 3 13
M  V30 13 1 9 4
M  V30 14 1 1 14
M  V30 15 1 1 15
M  V30 16 1 2 16
M  V30 17 1 2 17
M  V30 18 1 3 18
M  V30 19 1 5 19
M  V30 20 1 6 20
M  V30 21 1 8 21
M  V30 22 1 9 22
M  V30 23 1 11 23
M  V30 24 1 11 24
M  V30 25 1 11 25
M  V30 26 1 12 26
M  V30 27 1 12 27
M  V30 28 1 12 28
M  V30 29 1 13 29
M  V30 30 1 13 30
M  V30 END BOND
M  V30 END CTAB
M  END
