
     RDKit          3D

  0  0  0  0  0  0  0  0  0  0999 V3000
M  V30 BEGIN CTAB
M  V30 COUNTS 28 28 0 0 0
M  V30 BEGIN ATOM
M  V30 1 C 4.11391 0.202713 -0.564826 0
M  V30 2 C 3.75603 -0.992876 0.277464 0
M  V30 3 O 2.48586 -1.51452 -0.0448978 0
M  V30 4 C 1.31175 -0.826889 0.040472 0
M  V30 5 O 1.36583 0.376256 0.441249 0
M  V30 6 C -0.0213469 -1.38825 -0.303406 0
M  V30 7 C -1.10484 -0.408631 -0.111094 0
M  V30 8 C -1.30364 0.606139 -1.01342 0
M  V30 9 N -0.461313 0.746843 -2.17565 0
M  V30 10 C -2.33222 1.50725 -0.797574 0
M  V30 11 C -3.16074 1.41474 0.295593 0
M  V30 12 C -2.96365 0.397933 1.2028 0
M  V30 13 C -1.92865 -0.502142 0.977636 0
M  V30 14 F -1.77701 -1.49301 1.90859 0
M  V30 15 N -3.82352 0.310256 2.32978 0
M  V30 16 H 3.78877 0.0944315 -1.61704 0
M  V30 17 H 5.21196 0.347007 -0.465902 0
M  V30 18 H 3.65184 1.12861 -0.116777 0
M  V30 19 H 3.85971 -0.716155 1.33293 0
M  V30 20 H 4.52042 -1.78044 0.0712111 0
M  V30 21 H -0.0227073 -1.81739 -1.34751 0
M  V30 22 H -0.152253 -2.28859 0.35563 0
M  V30 23 H -0.188962 1.68787 -2.51251 0
M  V30 24 H -0.113018 -0.0800336 -2.69524 0
M  V30 25 H -2.46042 2.30087 -1.53642 0
M  V30 26 H -3.9564 2.12661 0.447556 0
M  V30 27 H -3.49649 0.627704 3.27887 0
M  V30 28 H -4.7989 -0.0662944 2.26644 0
M  V30 END ATOM
M  V30 BEGIN BOND
M  V30 1 1 1 2
M  V30 2 1 2 3
M  V30 3 1 3 4
M  V30 4 2 4 5
M  V30 5 1 4 6
M  V30 6 1 6 7
M  V30 7 2 7 8
M  V30 8 1 8 9
M  V30 9 1 8 10
M  V30 10 2 10 11
M  V30 11 1 11 12
M  V30 12 2 12 13
M  V30 13 1 13 14
M  V30 14 1 12 15
M  V30 15 1 13 7
M  V30 16 1 1 16
M  V30 17 1 1 17
M  V30 18 1 1 18
M  V30 19 1 2 19
M  V30 20 1 2 20
M  V30 21 1 6 21
M  V30 22 1 6 22
M  V30 23 1 9 23
M  V30 24 1 9 24
M  V30 25 1 10 25
M  V30 26 1 11 26
M  V30 27 1 15 27
M  V30 28 1 15 28
M  V30 END BOND
M  V30 END CTAB
M  END
