
     RDKit          3D

  0  0  0  0  0  0  0  0  0  0999 V3000
M  V30 BEGIN CTAB
M  V30 COUNTS 46 46 0 0 0
M  V30 BEGIN ATOM
M  V30 1 N -3.8743 3.01923 0.723545 0
M  V30 2 C -5.13236 2.31933 0.494487 0
M  V30 3 C -4.79472 0.832081 0.409934 0
M  V30 4 N -4.19039 0.478481 1.6826 0
M  V30 5 S -3.75596 -1.19543 1.72127 0
M  V30 6 O -3.10131 -1.51728 3.01511 0
M  V30 7 O -4.93633 -2.07595 1.50898 0
M  V30 8 C -2.57728 -1.44756 0.451609 0
M  V30 9 C -3.0152 -1.79374 -0.813665 0
M  V30 10 C -2.10854 -1.99607 -1.82356 0
M  V30 11 C -0.739821 -1.84693 -1.55294 0
M  V30 12 C -0.254264 -1.50468 -0.315936 0
M  V30 13 C -1.22774 -1.31114 0.675656 0
M  V30 14 N 1.07864 -1.31909 0.0304681 0
M  V30 15 C 2.2171 -1.20052 -0.803084 0
M  V30 16 O 2.08118 -1.25764 -2.0411 0
M  V30 17 C 3.56863 -1.01052 -0.265057 0
M  V30 18 C 4.08828 0.347045 -0.0594646 0
M  V30 19 C 4.23167 1.31636 -1.14612 0
M  V30 20 C 2.95442 1.69658 -1.80318 0
M  V30 21 C 5.43843 0.166277 0.69133 0
M  V30 22 N 3.4977 -1.57557 1.12244 0
M  V30 23 H -3.48135 3.38319 -0.173799 0
M  V30 24 H -3.93718 3.72057 1.47294 0
M  V30 25 H -5.74087 2.47145 1.40387 0
M  V30 26 H -5.6191 2.67691 -0.423934 0
M  V30 27 H -4.01455 0.69333 -0.362637 0
M  V30 28 H -5.67368 0.228649 0.180251 0
M  V30 29 H -3.40589 1.09265 1.93439 0
M  V30 30 H -4.05849 -1.8984 -0.984294 0
M  V30 31 H -2.40929 -2.26611 -2.81994 0
M  V30 32 H -0.0534194 -2.01964 -2.35828 0
M  V30 33 H -0.908446 -1.03977 1.66827 0
M  V30 34 H 1.28442 -1.26196 1.08398 0
M  V30 35 H 4.30994 -1.68644 -0.770255 0
M  V30 36 H 3.43433 0.801994 0.769904 0
M  V30 37 H 5.03611 1.06024 -1.88579 0
M  V30 38 H 4.64909 2.27089 -0.681704 0
M  V30 39 H 2.07225 1.42791 -1.19391 0
M  V30 40 H 2.86408 2.8447 -1.85645 0
M  V30 41 H 2.80073 1.32428 -2.82674 0
M  V30 42 H 6.00338 -0.668113 0.221556 0
M  V30 43 H 5.24893 -0.122147 1.74034 0
M  V30 44 H 6.05749 1.0671 0.584341 0
M  V30 45 H 3.14547 -0.788937 1.70595 0
M  V30 46 H 2.9482 -2.43562 1.13953 0
M  V30 END ATOM
M  V30 BEGIN BOND
M  V30 1 1 1 2
M  V30 2 1 2 3
M  V30 3 1 3 4
M  V30 4 1 4 5
M  V30 5 2 5 6
M  V30 6 2 5 7
M  V30 7 1 5 8
M  V30 8 2 8 9
M  V30 9 1 9 10
M  V30 10 2 10 11
M  V30 11 1 11 12
M  V30 12 2 12 13
M  V30 13 1 12 14
M  V30 14 1 14 15
M  V30 15 2 15 16
M  V30 16 1 15 17
M  V30 17 1 17 18
M  V30 18 1 18 19
M  V30 19 1 19 20
M  V30 20 1 18 21
M  V30 21 1 17 22
M  V30 22 1 13 8
M  V30 23 1 1 23
M  V30 24 1 1 24
M  V30 25 1 2 25
M  V30 26 1 2 26
M  V30 27 1 3 27
M  V30 28 1 3 28
M  V30 29 1 4 29
M  V30 30 1 9 30
M  V30 31 1 10 31
M  V30 32 1 11 32
M  V30 33 1 13 33
M  V30 34 1 14 34
M  V30 35 1 17 35
M  V30 36 1 18 36
M  V30 37 1 19 37
M  V30 38 1 19 38
M  V30 39 1 20 39
M  V30 40 1 20 40
M  V30 41 1 20 41
M  V30 42 1 21 42
M  V30 43 1 21 43
M  V30 44 1 21 44
M  V30 45 1 22 45
M  V30 46 1 22 46
M  V30 END BOND
M  V30 END CTAB
M  END
