
     RDKit          3D

  0  0  0  0  0  0  0  0  0  0999 V3000
M  V30 BEGIN CTAB
M  V30 COUNTS 34 36 0 0 0
M  V30 BEGIN ATOM
M  V30 1 N 5.86455 1.232 1.46926 0
M  V30 2 C 4.85349 0.612992 0.699974 0
M  V30 3 C 4.94408 -0.665467 0.139015 0
M  V30 4 N 3.78312 -0.86371 -0.502242 0
M  V30 5 N 3.00058 0.173277 -0.381693 0
M  V30 6 N 3.645 1.06517 0.343425 0
M  V30 7 C 1.64004 0.340955 -0.94326 0
M  V30 8 C 0.632037 -0.132445 -0.00215754 0
M  V30 9 O 1.07348 -0.614021 1.08949 0
M  V30 10 N -0.773421 -0.104632 -0.191506 0
M  V30 11 C -1.68714 -0.573394 0.726584 0
M  V30 12 C -1.60282 -1.15686 1.97264 0
M  V30 13 C -2.76032 -1.51746 2.64065 0
M  V30 14 C -3.98457 -1.29489 2.0646 0
M  V30 15 C -4.10318 -0.721604 0.836944 0
M  V30 16 C -2.93283 -0.361013 0.170009 0
M  V30 17 C -2.78965 0.222836 -1.05771 0
M  V30 18 C -1.43746 0.380985 -1.27905 0
M  V30 19 C -0.85561 0.977523 -2.4902 0
M  V30 20 N -3.83412 0.60942 -1.96696 0
M  V30 21 H 6.84884 1.14757 1.17914 0
M  V30 22 H 5.61865 1.76403 2.31516 0
M  V30 23 H 5.80172 -1.2908 0.248196 0
M  V30 24 H 1.60264 -0.286195 -1.85608 0
M  V30 25 H 1.53792 1.41784 -1.09599 0
M  V30 26 H -0.649811 -1.32869 2.41848 0
M  V30 27 H -2.68696 -1.98454 3.63937 0
M  V30 28 H -4.89121 -1.59061 2.61599 0
M  V30 29 H -5.04445 -0.535204 0.361388 0
M  V30 30 H -0.233003 0.335742 -3.10313 0
M  V30 31 H -0.380575 1.9664 -2.28382 0
M  V30 32 H -1.71718 1.25952 -3.18566 0
M  V30 33 H -3.69493 0.663549 -2.99673 0
M  V30 34 H -4.7869 0.851727 -1.59412 0
M  V30 END ATOM
M  V30 BEGIN BOND
M  V30 1 1 1 2
M  V30 2 1 2 3
M  V30 3 2 3 4
M  V30 4 1 4 5
M  V30 5 1 5 6
M  V30 6 1 5 7
M  V30 7 1 7 8
M  V30 8 2 8 9
M  V30 9 1 8 10
M  V30 10 1 10 11
M  V30 11 2 11 12
M  V30 12 1 12 13
M  V30 13 2 13 14
M  V30 14 1 14 15
M  V30 15 2 15 16
M  V30 16 1 16 17
M  V30 17 2 17 18
M  V30 18 1 18 19
M  V30 19 1 17 20
M  V30 20 2 6 2
M  V30 21 1 18 10
M  V30 22 1 16 11
M  V30 23 1 1 21
M  V30 24 1 1 22
M  V30 25 1 3 23
M  V30 26 1 7 24
M  V30 27 1 7 25
M  V30 28 1 12 26
M  V30 29 1 13 27
M  V30 30 1 14 28
M  V30 31 1 15 29
M  V30 32 1 19 30
M  V30 33 1 19 31
M  V30 34 1 19 32
M  V30 35 1 20 33
M  V30 36 1 20 34
M  V30 END BOND
M  V30 END CTAB
M  END
