
     RDKit          3D

  0  0  0  0  0  0  0  0  0  0999 V3000
M  V30 BEGIN CTAB
M  V30 COUNTS 28 28 0 0 0
M  V30 BEGIN ATOM
M  V30 1 N 5.15734 -0.124889 -0.210963 0
M  V30 2 C 3.90328 -0.410797 0.492182 0
M  V30 3 C 2.784 0.0147785 -0.395002 0
M  V30 4 N 1.45903 -0.212325 0.191377 0
M  V30 5 C 0.359525 0.165452 -0.60173 0
M  V30 6 O 0.585178 0.694381 -1.76902 0
M  V30 7 C -1.04976 0.0579724 -0.295785 0
M  V30 8 C -1.68793 -1.10595 -0.00660857 0
M  V30 9 C -3.05477 -1.08289 0.331753 0
M  V30 10 C -3.76875 0.0762785 0.378669 0
M  V30 11 C -3.14225 1.27028 0.0868271 0
M  V30 12 N -3.87576 2.50701 0.124421 0
M  V30 13 C -1.81148 1.24556 -0.241462 0
M  V30 14 N -1.14282 -2.41383 -0.0827323 0 CHG=1
M  V30 15 O -1.97682 -3.46472 -0.519007 0 CHG=-1
M  V30 16 O -0.0113527 -2.69299 0.208541 0
M  V30 17 H 4.95353 0.0840564 -1.20832 0
M  V30 18 H 5.5418 0.776747 0.18826 0
M  V30 19 H 3.82068 -1.52651 0.641605 0
M  V30 20 H 3.86648 0.049956 1.48198 0
M  V30 21 H 2.84842 1.0975 -0.633334 0
M  V30 22 H 2.78817 -0.549735 -1.35058 0
M  V30 23 H 1.44858 -0.604314 1.14262 0
M  V30 24 H -3.56484 -2.03235 0.56536 0
M  V30 25 H -4.83587 0.0861255 0.644001 0
M  V30 26 H -3.78135 3.19921 -0.652479 0
M  V30 27 H -4.50645 2.72895 0.919943 0
M  V30 28 H -1.30579 2.16705 -0.473162 0
M  V30 END ATOM
M  V30 BEGIN BOND
M  V30 1 1 1 2
M  V30 2 1 2 3
M  V30 3 1 3 4
M  V30 4 1 4 5
M  V30 5 2 5 6
M  V30 6 1 5 7
M  V30 7 2 7 8
M  V30 8 1 8 9
M  V30 9 2 9 10
M  V30 10 1 10 11
M  V30 11 1 11 12
M  V30 12 2 11 13
M  V30 13 1 8 14
M  V30 14 1 14 15
M  V30 15 2 14 16
M  V30 16 1 13 7
M  V30 17 1 1 17
M  V30 18 1 1 18
M  V30 19 1 2 19
M  V30 20 1 2 20
M  V30 21 1 3 21
M  V30 22 1 3 22
M  V30 23 1 4 23
M  V30 24 1 9 24
M  V30 25 1 10 25
M  V30 26 1 12 26
M  V30 27 1 12 27
M  V30 28 1 13 28
M  V30 END BOND
M  V30 END CTAB
M  END
