
     RDKit          3D

  0  0  0  0  0  0  0  0  0  0999 V3000
M  V30 BEGIN CTAB
M  V30 COUNTS 57 61 0 0 0
M  V30 BEGIN ATOM
M  V30 1 N -8.40326 -2.52662 0.881119 0
M  V30 2 C -7.29242 -2.17012 0.974439 0
M  V30 3 C -5.89513 -1.77291 1.07951 0
M  V30 4 C -5.16242 -2.56096 1.92573 0
M  V30 5 N -5.68511 -3.59942 2.71746 0
M  V30 6 N -3.86376 -2.2966 1.97751 0
M  V30 7 C -3.32855 -1.30143 1.22752 0
M  V30 8 C -4.00158 -0.472837 0.361819 0
M  V30 9 C -5.38177 -0.738988 0.294073 0
M  V30 10 C -6.34333 0.0419115 -0.455167 0
M  V30 11 C -7.60288 0.467515 -0.0129214 0
M  V30 12 C -8.19133 1.18913 -1.03459 0
M  V30 13 C -7.27864 1.18239 -2.05713 0
M  V30 14 O -6.25269 0.510017 -1.65005 0
M  V30 15 C -3.26624 0.457002 -0.27209 0
M  V30 16 N -3.72892 1.47168 -1.20904 0
M  V30 17 C -1.919 0.490492 9.46382e-05 0
M  V30 18 S -1.70533 -0.753439 1.11822 0
M  V30 19 C -0.872259 1.36045 -0.516919 0
M  V30 20 O -1.22909 2.25113 -1.36596 0
M  V30 21 N 0.47279 1.30171 -0.165293 0
M  V30 22 C 0.99154 0.354764 0.769357 0
M  V30 23 C 2.4812 0.476881 1.03229 0
M  V30 24 N 3.22763 0.810905 -0.137308 0
M  V30 25 C 2.63705 1.55235 -1.25041 0
M  V30 26 C 1.37251 2.24851 -0.783457 0
M  V30 27 C 4.57864 0.438521 -0.251722 0
M  V30 28 C 5.22901 -0.113004 0.826397 0
M  V30 29 C 6.57504 -0.499422 0.740595 0
M  V30 30 C 7.27133 -0.33521 -0.420762 0
M  V30 31 C 6.61268 0.217437 -1.49407 0
M  V30 32 C 5.2929 0.602563 -1.42937 0
M  V30 33 C 8.66366 -0.742337 -0.488241 0
M  V30 34 O 9.33639 -0.598255 -1.56032 0
M  V30 35 C 9.33613 -1.33326 0.681819 0
M  V30 36 H -5.21563 -3.87095 3.59227 0
M  V30 37 H -6.54094 -4.08653 2.41609 0
M  V30 38 H -8.0414 0.315417 0.938445 0
M  V30 39 H -9.16914 1.66272 -1.03208 0
M  V30 40 H -7.3879 1.65042 -3.02864 0
M  V30 41 H -4.19205 2.29816 -0.780293 0
M  V30 42 H -3.57648 1.33604 -2.24212 0
M  V30 43 H 0.84328 -0.70885 0.421083 0
M  V30 44 H 0.526333 0.495655 1.77865 0
M  V30 45 H 2.66285 1.22195 1.85177 0
M  V30 46 H 2.80898 -0.500609 1.43708 0
M  V30 47 H 3.36879 2.30687 -1.57529 0
M  V30 48 H 2.40336 0.818578 -2.03412 0
M  V30 49 H 1.69867 3.04957 -0.0802583 0
M  V30 50 H 0.927072 2.7197 -1.67969 0
M  V30 51 H 4.76886 -0.277285 1.77595 0
M  V30 52 H 7.06694 -0.926921 1.58827 0
M  V30 53 H 7.17284 0.346499 -2.41879 0
M  V30 54 H 4.78824 1.02927 -2.26487 0
M  V30 55 H 8.63833 -2.12241 1.08809 0
M  V30 56 H 10.2712 -1.81877 0.364738 0
M  V30 57 H 9.503 -0.549084 1.47004 0
M  V30 END ATOM
M  V30 BEGIN BOND
M  V30 1 3 1 2
M  V30 2 1 2 3
M  V30 3 2 3 4
M  V30 4 1 4 5
M  V30 5 1 4 6
M  V30 6 2 6 7
M  V30 7 1 7 8
M  V30 8 2 8 9
M  V30 9 1 9 10
M  V30 10 2 10 11
M  V30 11 1 11 12
M  V30 12 2 12 13
M  V30 13 1 13 14
M  V30 14 1 8 15
M  V30 15 1 15 16
M  V30 16 2 15 17
M  V30 17 1 17 18
M  V30 18 1 17 19
M  V30 19 2 19 20
M  V30 20 1 19 21
M  V30 21 1 21 22
M  V30 22 1 22 23
M  V30 23 1 23 24
M  V30 24 1 24 25
M  V30 25 1 25 26
M  V30 26 1 24 27
M  V30 27 2 27 28
M  V30 28 1 28 29
M  V30 29 2 29 30
M  V30 30 1 30 31
M  V30 31 2 31 32
M  V30 32 1 30 33
M  V30 33 2 33 34
M  V30 34 1 33 35
M  V30 35 1 9 3
M  V30 36 1 14 10
M  V30 37 1 26 21
M  V30 38 1 32 27
M  V30 39 1 18 7
M  V30 40 1 5 36
M  V30 41 1 5 37
M  V30 42 1 11 38
M  V30 43 1 12 39
M  V30 44 1 13 40
M  V30 45 1 16 41
M  V30 46 1 16 42
M  V30 47 1 22 43
M  V30 48 1 22 44
M  V30 49 1 23 45
M  V30 50 1 23 46
M  V30 51 1 25 47
M  V30 52 1 25 48
M  V30 53 1 26 49
M  V30 54 1 26 50
M  V30 55 1 28 51
M  V30 56 1 29 52
M  V30 57 1 31 53
M  V30 58 1 32 54
M  V30 59 1 35 55
M  V30 60 1 35 56
M  V30 61 1 35 57
M  V30 END BOND
M  V30 END CTAB
M  END
