
     RDKit          3D

  0  0  0  0  0  0  0  0  0  0999 V3000
M  V30 BEGIN CTAB
M  V30 COUNTS 44 45 0 0 0
M  V30 BEGIN ATOM
M  V30 1 C -2.30732 0.125617 2.51118 0
M  V30 2 C -2.93098 0.0638992 1.1217 0
M  V30 3 C -3.19711 -1.41307 0.823725 0
M  V30 4 N -4.19317 0.729772 1.09749 0
M  V30 5 C -4.57572 1.67571 0.32792 0
M  V30 6 N -5.89313 2.17742 0.500062 0
M  V30 7 N -3.683 2.18652 -0.655205 0
M  V30 8 C -2.50276 1.64739 -0.71317 0
M  V30 9 N -1.559 2.13377 -1.69674 0
M  V30 10 N -2.04665 0.6027 0.124058 0
M  V30 11 O -0.770853 0.147588 -0.0338678 0
M  V30 12 C -0.559553 -0.682179 -1.08905 0
M  V30 13 C 0.932132 -1.04422 -1.0582 0
M  V30 14 C 1.2856 -1.73509 0.238056 0
M  V30 15 C 2.73454 -2.08648 0.231724 0
M  V30 16 C 3.66666 -0.965629 0.101422 0
M  V30 17 C 4.1127 -0.30231 1.22168 0
M  V30 18 C 5.01402 0.765897 1.11789 0
M  V30 19 C 5.45509 1.1524 -0.118008 0
M  V30 20 Cl 6.58178 2.48811 -0.244172 0
M  V30 21 C 5.02844 0.511665 -1.24406 0
M  V30 22 Cl 5.6143 1.0333 -2.81371 0
M  V30 23 C 4.13343 -0.546795 -1.12123 0
M  V30 24 H -3.18859 0.154192 3.21549 0
M  V30 25 H -1.74394 1.04743 2.65536 0
M  V30 26 H -1.75618 -0.804472 2.67661 0
M  V30 27 H -4.12309 -1.74901 1.36572 0
M  V30 28 H -3.39901 -1.54917 -0.254096 0
M  V30 29 H -2.31387 -1.97534 1.10506 0
M  V30 30 H -6.14607 2.68904 1.36028 0
M  V30 31 H -6.60456 2.03349 -0.233306 0
M  V30 32 H -1.89845 2.13178 -2.68257 0
M  V30 33 H -0.615209 2.4616 -1.45215 0
M  V30 34 H -0.797474 -0.270595 -2.08853 0
M  V30 35 H -1.12348 -1.63746 -0.918674 0
M  V30 36 H 1.53815 -0.0898349 -1.06718 0
M  V30 37 H 1.13167 -1.69976 -1.91158 0
M  V30 38 H 0.639604 -2.62174 0.428009 0
M  V30 39 H 1.14122 -1.015 1.09769 0
M  V30 40 H 2.93036 -2.66001 1.17458 0
M  V30 41 H 2.98742 -2.83021 -0.580295 0
M  V30 42 H 3.80986 -0.549247 2.23078 0
M  V30 43 H 5.36833 1.29115 1.99343 0
M  V30 44 H 3.82386 -1.02282 -2.03494 0
M  V30 END ATOM
M  V30 BEGIN BOND
M  V30 1 1 1 2
M  V30 2 1 2 3
M  V30 3 1 2 4
M  V30 4 2 4 5
M  V30 5 1 5 6
M  V30 6 1 5 7
M  V30 7 2 7 8
M  V30 8 1 8 9
M  V30 9 1 8 10
M  V30 10 1 10 11
M  V30 11 1 11 12
M  V30 12 1 12 13
M  V30 13 1 13 14
M  V30 14 1 14 15
M  V30 15 1 15 16
M  V30 16 2 16 17
M  V30 17 1 17 18
M  V30 18 2 18 19
M  V30 19 1 19 20
M  V30 20 1 19 21
M  V30 21 1 21 22
M  V30 22 2 21 23
M  V30 23 1 10 2
M  V30 24 1 23 16
M  V30 25 1 1 24
M  V30 26 1 1 25
M  V30 27 1 1 26
M  V30 28 1 3 27
M  V30 29 1 3 28
M  V30 30 1 3 29
M  V30 31 1 6 30
M  V30 32 1 6 31
M  V30 33 1 9 32
M  V30 34 1 9 33
M  V30 35 1 12 34
M  V30 36 1 12 35
M  V30 37 1 13 36
M  V30 38 1 13 37
M  V30 39 1 14 38
M  V30 40 1 14 39
M  V30 41 1 15 40
M  V30 42 1 15 41
M  V30 43 1 17 42
M  V30 44 1 18 43
M  V30 45 1 23 44
M  V30 END BOND
M  V30 END CTAB
M  END
