
     RDKit          3D

  0  0  0  0  0  0  0  0  0  0999 V3000
M  V30 BEGIN CTAB
M  V30 COUNTS 22 22 0 0 0
M  V30 BEGIN ATOM
M  V30 1 N -2.4663 -1.1329 0.317289 0
M  V30 2 C -2.47736 -0.14032 -0.753483 0
M  V30 3 C -1.4968 0.945368 -0.443895 0
M  V30 4 C -0.10821 0.415333 -0.313694 0
M  V30 5 C 0.436668 -0.765805 -0.746798 0
M  V30 6 C 1.72816 -0.98504 -0.489175 0
M  V30 7 C 2.41355 -0.0127612 0.189336 0
M  V30 8 S 1.22214 1.18046 0.444858 0
M  V30 9 C 3.83857 0.050972 0.625698 0
M  V30 10 Br 2.67206 -2.59436 -1.02209 0
M  V30 11 N -1.84627 1.48429 0.867737 0
M  V30 12 H -3.40261 -1.60931 0.394327 0
M  V30 13 H -2.28577 -0.606806 1.20142 0
M  V30 14 H -3.49213 0.310614 -0.743079 0
M  V30 15 H -2.33511 -0.600648 -1.74466 0
M  V30 16 H -1.57815 1.74583 -1.17942 0
M  V30 17 H -0.221736 -1.47411 -1.28627 0
M  V30 18 H 4.46863 -0.426798 -0.149962 0
M  V30 19 H 3.94168 -0.516466 1.57121 0
M  V30 20 H 4.09459 1.10939 0.783025 0
M  V30 21 H -1.86593 2.52923 0.853515 0
M  V30 22 H -1.23968 1.09384 1.62411 0
M  V30 END ATOM
M  V30 BEGIN BOND
M  V30 1 1 1 2
M  V30 2 1 2 3
M  V30 3 1 3 4
M  V30 4 2 4 5
M  V30 5 1 5 6
M  V30 6 2 6 7
M  V30 7 1 7 8
M  V30 8 1 7 9
M  V30 9 1 6 10
M  V30 10 1 3 11
M  V30 11 1 8 4
M  V30 12 1 1 12
M  V30 13 1 1 13
M  V30 14 1 2 14
M  V30 15 1 2 15
M  V30 16 1 3 16
M  V30 17 1 5 17
M  V30 18 1 9 18
M  V30 19 1 9 19
M  V30 20 1 9 20
M  V30 21 1 11 21
M  V30 22 1 11 22
M  V30 END BOND
M  V30 END CTAB
M  END
