
     RDKit          3D

  0  0  0  0  0  0  0  0  0  0999 V3000
M  V30 BEGIN CTAB
M  V30 COUNTS 85 90 0 0 0
M  V30 BEGIN ATOM
M  V30 1 N -0.549942 -1.33519 -3.65497 0
M  V30 2 C 0.30059 -1.03479 -2.95335 0
M  V30 3 C 1.38533 -0.678945 -2.0971 0
M  V30 4 C 2.1841 -1.74483 -1.63466 0
M  V30 5 C 3.26723 -1.54229 -0.856763 0
M  V30 6 C 3.58655 -0.221366 -0.508787 0
M  V30 7 C 2.8404 0.823484 -0.934943 0
M  V30 8 C 1.68954 0.590726 -1.76471 0
M  V30 9 C 0.940959 1.78773 -2.17332 0
M  V30 10 C -0.247002 2.02667 -1.33488 0
M  V30 11 C -0.0566524 2.19981 0.0490926 0
M  V30 12 C -1.09371 2.33475 0.931921 0
M  V30 13 C -2.43196 2.30857 0.501908 0
M  V30 14 C -2.61068 2.14104 -0.845352 0
M  V30 15 C -1.54737 2.00467 -1.74931 0
M  V30 16 C -1.87065 1.96693 -3.16456 0
M  V30 17 N -2.10153 1.94221 -4.29226 0
M  V30 18 N -3.44752 2.45083 1.46963 0
M  V30 19 C -4.74783 2.85881 1.18649 0
M  V30 20 O -5.14976 3.14804 0.0420628 0
M  V30 21 C -5.7855 2.98355 2.27114 0
M  V30 22 S -7.36508 3.54456 1.56538 0
M  V30 23 C -8.07963 2.2913 0.49071 0
M  V30 24 N -9.13003 2.59308 -0.174995 0
M  V30 25 C -9.74992 1.65703 -1.04031 0
M  V30 26 N -9.24644 0.483388 -1.15412 0
M  V30 27 C -8.08311 -0.0162554 -0.480496 0
M  V30 28 N -7.50186 1.01045 0.354182 0
M  V30 29 C -8.46395 -1.1177 0.47877 0
M  V30 30 C -9.57693 -1.0021 1.27928 0
M  V30 31 C -9.95506 -1.98383 2.17926 0
M  V30 32 C -9.16934 -3.11317 2.25958 0
M  V30 33 C -8.04215 -3.27559 1.4763 0
M  V30 34 C -7.70154 -2.25043 0.578026 0
M  V30 35 Cl -7.0445 -4.70142 1.57754 0
M  V30 36 N -10.9332 2.02138 -1.77968 0
M  V30 37 N 4.13985 -2.53253 -0.412315 0
M  V30 38 C 4.31241 -3.77508 -1.02375 0
M  V30 39 O 3.68934 -4.1321 -2.0335 0
M  V30 40 C 5.29195 -4.75865 -0.465143 0
M  V30 41 S 6.22208 -3.97835 0.849275 0
M  V30 42 C 7.27256 -2.68147 0.14537 0
M  V30 43 N 7.24298 -2.41424 -1.11544 0
M  V30 44 C 8.06876 -1.39292 -1.67907 0
M  V30 45 N 8.85348 -0.736293 -0.911805 0
M  V30 46 C 9.03001 -0.886856 0.494595 0
M  V30 47 N 8.13287 -1.93125 0.970425 0
M  V30 48 C 8.85723 0.359709 1.24065 0
M  V30 49 C 7.78593 1.19056 0.998237 0
M  V30 50 C 7.66874 2.36832 1.73547 0
M  V30 51 C 8.58432 2.73618 2.70058 0
M  V30 52 C 9.65069 1.88988 2.92866 0
M  V30 53 C 9.77026 0.728522 2.20442 0
M  V30 54 Cl 10.8181 2.35528 4.15664 0
M  V30 55 N 8.0109 -1.11242 -3.09154 0
M  V30 56 H 1.88807 -2.73877 -1.91021 0
M  V30 57 H 4.44711 0.00440459 0.117114 0
M  V30 58 H 3.05778 1.86623 -0.692149 0
M  V30 59 H 1.59451 2.69901 -2.16698 0
M  V30 60 H 0.577867 1.65905 -3.23867 0
M  V30 61 H 0.979104 2.22168 0.386425 0
M  V30 62 H -0.915051 2.46635 1.99592 0
M  V30 63 H -3.60711 2.09341 -1.24228 0
M  V30 64 H -3.20151 2.23087 2.47358 0
M  V30 65 H -5.9183 2.05419 2.83405 0
M  V30 66 H -5.48526 3.7725 3.00729 0
M  V30 67 H -7.34016 -0.457704 -1.18742 0
M  V30 68 H -6.60674 0.820209 0.901345 0
M  V30 69 H -10.1755 -0.10563 1.19414 0
M  V30 70 H -10.8208 -1.90778 2.80986 0
M  V30 71 H -9.40454 -3.93005 2.94807 0
M  V30 72 H -6.80868 -2.35914 -0.0550381 0
M  V30 73 H -11.8225 2.09486 -1.28131 0
M  V30 74 H -10.8529 2.19774 -2.78414 0
M  V30 75 H 4.6923 -2.29687 0.482337 0
M  V30 76 H 4.71332 -5.6233 -0.0924071 0
M  V30 77 H 5.94112 -5.16411 -1.27586 0
M  V30 78 H 10.066 -1.30194 0.70173 0
M  V30 79 H 8.10325 -2.16399 2.00544 0
M  V30 80 H 7.05742 0.908363 0.236913 0
M  V30 81 H 6.83772 3.00834 1.54315 0
M  V30 82 H 8.47051 3.67314 3.27298 0
M  V30 83 H 10.619 0.0640171 2.39043 0
M  V30 84 H 7.12832 -0.78829 -3.51627 0
M  V30 85 H 8.87138 -1.24632 -3.64652 0
M  V30 END ATOM
M  V30 BEGIN BOND
M  V30 1 3 1 2
M  V30 2 1 2 3
M  V30 3 2 3 4
M  V30 4 1 4 5
M  V30 5 2 5 6
M  V30 6 1 6 7
M  V30 7 2 7 8
M  V30 8 1 8 9
M  V30 9 1 9 10
M  V30 10 2 10 11
M  V30 11 1 11 12
M  V30 12 2 12 13
M  V30 13 1 13 14
M  V30 14 2 14 15
M  V30 15 1 15 16
M  V30 16 3 16 17
M  V30 17 1 13 18
M  V30 18 1 18 19
M  V30 19 2 19 20
M  V30 20 1 19 21
M  V30 21 1 21 22
M  V30 22 1 22 23
M  V30 23 2 23 24
M  V30 24 1 24 25
M  V30 25 2 25 26
M  V30 26 1 26 27
M  V30 27 1 27 28
M  V30 28 1 27 29
M  V30 29 2 29 30
M  V30 30 1 30 31
M  V30 31 2 31 32
M  V30 32 1 32 33
M  V30 33 2 33 34
M  V30 34 1 33 35
M  V30 35 1 25 36
M  V30 36 1 5 37
M  V30 37 1 37 38
M  V30 38 2 38 39
M  V30 39 1 38 40
M  V30 40 1 40 41
M  V30 41 1 41 42
M  V30 42 2 42 43
M  V30 43 1 43 44
M  V30 44 2 44 45
M  V30 45 1 45 46
M  V30 46 1 46 47
M  V30 47 1 46 48
M  V30 48 2 48 49
M  V30 49 1 49 50
M  V30 50 2 50 51
M  V30 51 1 51 52
M  V30 52 2 52 53
M  V30 53 1 52 54
M  V30 54 1 44 55
M  V30 55 1 8 3
M  V30 56 1 15 10
M  V30 57 1 28 23
M  V30 58 1 34 29
M  V30 59 1 47 42
M  V30 60 1 53 48
M  V30 61 1 4 56
M  V30 62 1 6 57
M  V30 63 1 7 58
M  V30 64 1 9 59
M  V30 65 1 9 60
M  V30 66 1 11 61
M  V30 67 1 12 62
M  V30 68 1 14 63
M  V30 69 1 18 64
M  V30 70 1 21 65
M  V30 71 1 21 66
M  V30 72 1 27 67
M  V30 73 1 28 68
M  V30 74 1 30 69
M  V30 75 1 31 70
M  V30 76 1 32 71
M  V30 77 1 34 72
M  V30 78 1 36 73
M  V30 79 1 36 74
M  V30 80 1 37 75
M  V30 81 1 40 76
M  V30 82 1 40 77
M  V30 83 1 46 78
M  V30 84 1 47 79
M  V30 85 1 49 80
M  V30 86 1 50 81
M  V30 87 1 51 82
M  V30 88 1 53 83
M  V30 89 1 55 84
M  V30 90 1 55 85
M  V30 END BOND
M  V30 END CTAB
M  END
