
     RDKit          3D

  0  0  0  0  0  0  0  0  0  0999 V3000
M  V30 BEGIN CTAB
M  V30 COUNTS 17 17 0 0 0
M  V30 BEGIN ATOM
M  V30 1 N 2.84671 -0.622808 0.636907 0
M  V30 2 C 1.56494 -0.145647 0.272742 0
M  V30 3 N 0.591679 -1.0584 0.103655 0
M  V30 4 C -0.669402 -0.720729 -0.243539 0
M  V30 5 C -1.73843 -1.75785 -0.426349 0
M  V30 6 O -2.39801 -1.98029 0.783619 0
M  V30 7 N -0.9302 0.591355 -0.420013 0
M  V30 8 C 0.0170681 1.54105 -0.260614 0
M  V30 9 N -0.230478 2.91817 -0.439182 0
M  V30 10 N 1.27192 1.1544 0.0891334 0
M  V30 11 H 3.02004 -0.871409 1.62194 0
M  V30 12 H 3.57403 -0.709457 -0.0924331 0
M  V30 13 H -2.47063 -1.38191 -1.1605 0
M  V30 14 H -1.22706 -2.68726 -0.737108 0
M  V30 15 H -2.57537 -1.12333 1.27267 0
M  V30 16 H -0.596637 3.47936 0.345763 0
M  V30 17 H -0.0501734 3.37476 -1.34669 0
M  V30 END ATOM
M  V30 BEGIN BOND
M  V30 1 1 1 2
M  V30 2 2 2 3
M  V30 3 1 3 4
M  V30 4 1 4 5
M  V30 5 1 5 6
M  V30 6 2 4 7
M  V30 7 1 7 8
M  V30 8 1 8 9
M  V30 9 2 8 10
M  V30 10 1 10 2
M  V30 11 1 1 11
M  V30 12 1 1 12
M  V30 13 1 5 13
M  V30 14 1 5 14
M  V30 15 1 6 15
M  V30 16 1 9 16
M  V30 17 1 9 17
M  V30 END BOND
M  V30 END CTAB
M  END
