
     RDKit          3D

  0  0  0  0  0  0  0  0  0  0999 V3000
M  V30 BEGIN CTAB
M  V30 COUNTS 32 33 0 0 0
M  V30 BEGIN ATOM
M  V30 1 C -0.586097 1.40608 -0.707306 0 CFG=1
M  V30 2 N -1.35056 2.11177 -1.71316 0
M  V30 3 C -1.4807 0.44591 -0.0419077 0
M  V30 4 C -2.32324 -0.33665 -0.765151 0
M  V30 5 C -3.13917 -1.21849 -0.085343 0
M  V30 6 C -3.13064 -1.33377 1.29327 0
M  V30 7 C -2.27408 -0.537655 2.02246 0
M  V30 8 C -1.45274 0.35075 1.33022 0
M  V30 9 C 0.641127 0.769293 -1.29758 0 CFG=2
M  V30 10 N 0.37596 -0.185305 -2.32504 0
M  V30 11 C 1.53593 0.214233 -0.250548 0
M  V30 12 C 1.36548 -1.04743 0.285537 0
M  V30 13 C 2.19384 -1.56067 1.25493 0
M  V30 14 C 3.24714 -0.813475 1.73449 0
M  V30 15 C 3.44079 0.443433 1.22037 0
M  V30 16 C 2.60545 0.938502 0.25491 0
M  V30 17 H -0.218413 2.19421 0.00571342 0
M  V30 18 H -1.68929 1.49808 -2.48074 0
M  V30 19 H -0.723157 2.81944 -2.16743 0
M  V30 20 H -2.39513 -0.310925 -1.85642 0
M  V30 21 H -3.81939 -1.85348 -0.633487 0
M  V30 22 H -3.78209 -2.03691 1.82579 0
M  V30 23 H -2.28073 -0.640854 3.09661 0
M  V30 24 H -0.792234 0.959631 1.94813 0
M  V30 25 H 1.22178 1.61068 -1.77852 0
M  V30 26 H 1.27267 -0.348334 -2.85097 0
M  V30 27 H 0.0351774 -1.09835 -2.00915 0
M  V30 28 H 0.521955 -1.64065 -0.101622 0
M  V30 29 H 2.0379 -2.54573 1.65437 0
M  V30 30 H 3.91598 -1.22317 2.51469 0
M  V30 31 H 4.26002 1.03461 1.58796 0
M  V30 32 H 2.76648 1.93525 -0.146551 0
M  V30 END ATOM
M  V30 BEGIN BOND
M  V30 1 1 1 2
M  V30 2 1 1 3
M  V30 3 2 3 4
M  V30 4 1 4 5
M  V30 5 2 5 6
M  V30 6 1 6 7
M  V30 7 2 7 8
M  V30 8 1 1 9
M  V30 9 1 9 10
M  V30 10 1 9 11
M  V30 11 2 11 12
M  V30 12 1 12 13
M  V30 13 2 13 14
M  V30 14 1 14 15
M  V30 15 2 15 16
M  V30 16 1 8 3
M  V30 17 1 16 11
M  V30 18 1 1 17 CFG=1
M  V30 19 1 2 18
M  V30 20 1 2 19
M  V30 21 1 4 20
M  V30 22 1 5 21
M  V30 23 1 6 22
M  V30 24 1 7 23
M  V30 25 1 8 24
M  V30 26 1 9 25 CFG=3
M  V30 27 1 10 26
M  V30 28 1 10 27
M  V30 29 1 12 28
M  V30 30 1 13 29
M  V30 31 1 14 30
M  V30 32 1 15 31
M  V30 33 1 16 32
M  V30 END BOND
M  V30 END CTAB
M  END
