
     RDKit          3D

  0  0  0  0  0  0  0  0  0  0999 V3000
M  V30 BEGIN CTAB
M  V30 COUNTS 68 72 0 0 0
M  V30 BEGIN ATOM
M  V30 1 N -2.10216 -4.74376 -0.51989 0
M  V30 2 C -2.61053 -3.70575 -0.499961 0
M  V30 3 C -3.25712 -2.39207 -0.449627 0
M  V30 4 C -4.40371 -2.27615 -1.09438 0
M  V30 5 N -4.9597 -3.40089 -1.79867 0
M  V30 6 O -5.04824 -1.05104 -1.0721 0
M  V30 7 C -4.4701 0.00345088 -0.377784 0
M  V30 8 C -3.33106 -0.0885717 0.270569 0
M  V30 9 C -2.57691 -1.33688 0.305137 0
M  V30 10 C -1.18399 -1.18612 -0.209687 0
M  V30 11 C -0.986507 -0.738045 -1.49756 0
M  V30 12 C 0.310674 -0.584864 -2.01329 0
M  V30 13 C 1.38965 -0.879538 -1.24052 0
M  V30 14 C 1.21808 -1.32451 0.0369171 0
M  V30 15 C -0.0675539 -1.47248 0.537103 0
M  V30 16 C 2.75114 -0.720154 -1.77798 0
M  V30 17 C 3.36245 -1.99713 -2.13746 0
M  V30 18 C 4.57483 -2.29932 -1.77176 0
M  V30 19 N 5.04783 -3.59716 -2.19952 0
M  V30 20 O 5.39447 -1.47467 -1.02729 0
M  V30 21 C 4.82468 -0.224807 -0.66387 0
M  V30 22 C 3.62304 0.137711 -0.995619 0
M  V30 23 C 3.06882 1.4616 -0.586887 0
M  V30 24 O 1.82838 1.704 -0.653508 0
M  V30 25 C 4.03821 2.46786 -0.103321 0
M  V30 26 C 5.0601 1.80756 0.80845 0
M  V30 27 C 5.73561 0.671416 0.152487 0
M  V30 28 C 6.12219 2.88182 1.07851 0
M  V30 29 C 4.41268 1.47525 2.11748 0
M  V30 30 C 2.59134 -2.96779 -2.93233 0
M  V30 31 N 1.96534 -3.71875 -3.55978 0
M  V30 32 C -2.85114 1.12071 0.965759 0
M  V30 33 O -1.63936 1.32262 1.03676 0
M  V30 34 C -3.82375 2.08633 1.57542 0
M  V30 35 C -5.23229 1.75244 1.11674 0
M  V30 36 C -5.15212 1.34829 -0.339321 0
M  V30 37 C -5.84075 0.636551 1.95553 0
M  V30 38 C -6.09379 2.98138 1.30842 0
M  V30 39 H -4.5853 -3.76907 -2.69476 0
M  V30 40 H -5.78644 -3.87424 -1.3861 0
M  V30 41 H -2.4399 -1.71516 1.36535 0
M  V30 42 H -1.84702 -0.50623 -2.10479 0
M  V30 43 H 0.35668 -0.227445 -3.03379 0
M  V30 44 H 2.04909 -1.57182 0.690041 0
M  V30 45 H -0.248816 -1.829 1.56326 0
M  V30 46 H 2.61503 -0.170979 -2.77907 0
M  V30 47 H 5.59441 -3.62791 -3.0718 0
M  V30 48 H 4.84928 -4.44636 -1.66127 0
M  V30 49 H 3.57539 3.29324 0.436041 0
M  V30 50 H 4.60061 2.82985 -0.989094 0
M  V30 51 H 6.19342 0.0221097 0.955613 0
M  V30 52 H 6.58573 0.958723 -0.498004 0
M  V30 53 H 6.17523 3.583 0.228366 0
M  V30 54 H 5.91968 3.40289 2.04095 0
M  V30 55 H 7.11176 2.3919 1.18779 0
M  V30 56 H 4.84548 0.612907 2.62928 0
M  V30 57 H 4.46478 2.37278 2.80161 0
M  V30 58 H 3.30514 1.29659 2.00159 0
M  V30 59 H -3.79972 1.89787 2.67281 0
M  V30 60 H -3.54548 3.12699 1.41044 0
M  V30 61 H -4.50125 2.10978 -0.837938 0
M  V30 62 H -6.16592 1.30331 -0.755001 0
M  V30 63 H -6.42725 -0.0141696 1.25507 0
M  V30 64 H -5.06629 0.0635986 2.49958 0
M  V30 65 H -6.53906 1.04624 2.71455 0
M  V30 66 H -6.18849 3.46847 0.320877 0
M  V30 67 H -5.66436 3.62302 2.08975 0
M  V30 68 H -7.12519 2.67059 1.64095 0
M  V30 END ATOM
M  V30 BEGIN BOND
M  V30 1 3 1 2
M  V30 2 1 2 3
M  V30 3 2 3 4
M  V30 4 1 4 5
M  V30 5 1 4 6
M  V30 6 1 6 7
M  V30 7 2 7 8
M  V30 8 1 8 9
M  V30 9 1 9 10
M  V30 10 2 10 11
M  V30 11 1 11 12
M  V30 12 2 12 13
M  V30 13 1 13 14
M  V30 14 2 14 15
M  V30 15 1 13 16
M  V30 16 1 16 17
M  V30 17 2 17 18
M  V30 18 1 18 19
M  V30 19 1 18 20
M  V30 20 1 20 21
M  V30 21 2 21 22
M  V30 22 1 22 23
M  V30 23 2 23 24
M  V30 24 1 23 25
M  V30 25 1 25 26
M  V30 26 1 26 27
M  V30 27 1 26 28
M  V30 28 1 26 29
M  V30 29 1 17 30
M  V30 30 3 30 31
M  V30 31 1 8 32
M  V30 32 2 32 33
M  V30 33 1 32 34
M  V30 34 1 34 35
M  V30 35 1 35 36
M  V30 36 1 35 37
M  V30 37 1 35 38
M  V30 38 1 9 3
M  V30 39 1 15 10
M  V30 40 1 22 16
M  V30 41 1 36 7
M  V30 42 1 27 21
M  V30 43 1 5 39
M  V30 44 1 5 40
M  V30 45 1 9 41
M  V30 46 1 11 42
M  V30 47 1 12 43
M  V30 48 1 14 44
M  V30 49 1 15 45
M  V30 50 1 16 46
M  V30 51 1 19 47
M  V30 52 1 19 48
M  V30 53 1 25 49
M  V30 54 1 25 50
M  V30 55 1 27 51
M  V30 56 1 27 52
M  V30 57 1 28 53
M  V30 58 1 28 54
M  V30 59 1 28 55
M  V30 60 1 29 56
M  V30 61 1 29 57
M  V30 62 1 29 58
M  V30 63 1 34 59
M  V30 64 1 34 60
M  V30 65 1 36 61
M  V30 66 1 36 62
M  V30 67 1 37 63
M  V30 68 1 37 64
M  V30 69 1 37 65
M  V30 70 1 38 66
M  V30 71 1 38 67
M  V30 72 1 38 68
M  V30 END BOND
M  V30 END CTAB
M  END
