
     RDKit          3D

  0  0  0  0  0  0  0  0  0  0999 V3000
M  V30 BEGIN CTAB
M  V30 COUNTS 26 27 0 0 0
M  V30 BEGIN ATOM
M  V30 1 C 4.53653 0.850155 0.121074 0
M  V30 2 N 3.34157 0.0128892 -0.0510959 0
M  V30 3 C 3.29576 -1.29518 -0.347571 0
M  V30 4 N 2.01244 -1.62507 -0.403135 0
M  V30 5 C 1.23062 -0.562471 -0.149929 0
M  V30 6 C 2.09661 0.497663 0.0778339 0
M  V30 7 C -0.224616 -0.502644 -0.114357 0
M  V30 8 C -0.946411 -1.65355 -0.36489 0
M  V30 9 C -2.32195 -1.599 -0.331719 0
M  V30 10 C -3.00905 -0.432534 -0.0563673 0
M  V30 11 C -2.2451 0.707956 0.191165 0
M  V30 12 C -0.856108 0.676023 0.162928 0
M  V30 13 N -2.94258 1.90568 0.473775 0
M  V30 14 N -4.41484 -0.352603 -0.0169776 0
M  V30 15 H 4.54616 1.56426 -0.717033 0
M  V30 16 H 4.4551 1.44494 1.06252 0
M  V30 17 H 5.41724 0.192971 0.134401 0
M  V30 18 H 4.13074 -1.95941 -0.511076 0
M  V30 19 H 1.82457 1.52471 0.315265 0
M  V30 20 H -0.404123 -2.58013 -0.583563 0
M  V30 21 H -2.91808 -2.47842 -0.522485 0
M  V30 22 H -0.347885 1.60307 0.36584 0
M  V30 23 H -3.42112 2.47064 -0.251052 0
M  V30 24 H -2.97838 2.2375 1.45548 0
M  V30 25 H -4.96813 -0.638541 -0.835937 0
M  V30 26 H -4.88898 -0.00891422 0.829008 0
M  V30 END ATOM
M  V30 BEGIN BOND
M  V30 1 1 1 2
M  V30 2 1 2 3
M  V30 3 2 3 4
M  V30 4 1 4 5
M  V30 5 2 5 6
M  V30 6 1 5 7
M  V30 7 2 7 8
M  V30 8 1 8 9
M  V30 9 2 9 10
M  V30 10 1 10 11
M  V30 11 2 11 12
M  V30 12 1 11 13
M  V30 13 1 10 14
M  V30 14 1 6 2
M  V30 15 1 12 7
M  V30 16 1 1 15
M  V30 17 1 1 16
M  V30 18 1 1 17
M  V30 19 1 3 18
M  V30 20 1 6 19
M  V30 21 1 8 20
M  V30 22 1 9 21
M  V30 23 1 12 22
M  V30 24 1 13 23
M  V30 25 1 13 24
M  V30 26 1 14 25
M  V30 27 1 14 26
M  V30 END BOND
M  V30 END CTAB
M  END
