
     RDKit          3D

  0  0  0  0  0  0  0  0  0  0999 V3000
M  V30 BEGIN CTAB
M  V30 COUNTS 27 27 0 0 0
M  V30 BEGIN ATOM
M  V30 1 C -2.56052 -0.829399 -1.04991 0
M  V30 2 C -1.44899 0.185781 -0.686082 0
M  V30 3 C -0.213926 -0.594038 -0.550191 0
M  V30 4 C 1.03452 0.0657111 -0.230036 0
M  V30 5 C 1.22795 1.42615 -0.266983 0
M  V30 6 C 2.48096 1.89896 0.0518103 0
M  V30 7 C 3.51103 1.05733 0.395171 0
M  V30 8 N 3.29727 -0.26305 0.422894 0
M  V30 9 C 2.09825 -0.770438 0.12188 0
M  V30 10 N 1.94521 -2.18093 0.173843 0
M  V30 11 F -0.0139356 -1.27785 -1.76235 0
M  V30 12 C -1.94869 0.883216 0.541813 0
M  V30 13 N -2.18182 -0.0282638 1.66047 0
M  V30 14 H -3.43791 -0.735749 -0.412062 0
M  V30 15 H -2.19441 -1.8748 -0.944565 0
M  V30 16 H -2.88599 -0.687688 -2.0964 0
M  V30 17 H -1.40979 0.922068 -1.49953 0
M  V30 18 H -0.341037 -1.44076 0.192848 0
M  V30 19 H 0.417955 2.11277 -0.551868 0
M  V30 20 H 2.63107 2.96867 0.0251018 0
M  V30 21 H 4.50464 1.45303 0.644672 0
M  V30 22 H 2.21633 -2.74839 -0.683126 0
M  V30 23 H 1.58738 -2.6969 0.986978 0
M  V30 24 H -2.99017 1.23915 0.26993 0
M  V30 25 H -1.41719 1.79436 0.837655 0
M  V30 26 H -1.29671 -0.458249 1.98722 0
M  V30 27 H -2.61147 0.579304 2.42082 0
M  V30 END ATOM
M  V30 BEGIN BOND
M  V30 1 1 1 2
M  V30 2 1 2 3
M  V30 3 1 3 4
M  V30 4 2 4 5
M  V30 5 1 5 6
M  V30 6 2 6 7
M  V30 7 1 7 8
M  V30 8 2 8 9
M  V30 9 1 9 10
M  V30 10 1 3 11
M  V30 11 1 2 12
M  V30 12 1 12 13
M  V30 13 1 9 4
M  V30 14 1 1 14
M  V30 15 1 1 15
M  V30 16 1 1 16
M  V30 17 1 2 17
M  V30 18 1 3 18
M  V30 19 1 5 19
M  V30 20 1 6 20
M  V30 21 1 7 21
M  V30 22 1 10 22
M  V30 23 1 10 23
M  V30 24 1 12 24
M  V30 25 1 12 25
M  V30 26 1 13 26
M  V30 27 1 13 27
M  V30 END BOND
M  V30 END CTAB
M  END
