
     RDKit          3D

  0  0  0  0  0  0  0  0  0  0999 V3000
M  V30 BEGIN CTAB
M  V30 COUNTS 46 47 0 0 0
M  V30 BEGIN ATOM
M  V30 1 O -0.186161 -2.72946 -0.0375389 0
M  V30 2 C 0.584139 -1.9492 -0.693946 0
M  V30 3 N 0.314382 -0.586125 -0.772969 0
M  V30 4 C -0.738825 0.152524 -0.236919 0
M  V30 5 C -1.83918 -0.393337 0.352967 0
M  V30 6 C -2.90163 0.380747 0.850581 0
M  V30 7 C -2.8628 1.73131 0.758156 0
M  V30 8 C -1.77574 2.30971 0.173518 0
M  V30 9 C -0.72502 1.54685 -0.320131 0
M  V30 10 C 0.43848 2.22872 -0.947638 0
M  V30 11 S -4.27369 -0.402318 1.57068 0
M  V30 12 O -3.83668 -1.7323 2.11653 0
M  V30 13 O -4.73176 0.41444 2.73362 0
M  V30 14 N -5.55195 -0.66522 0.448769 0
M  V30 15 C -5.2057 -1.51 -0.644832 0
M  V30 16 C -6.28067 0.510269 0.0977059 0
M  V30 17 C 1.73225 -2.60828 -1.34206 0
M  V30 18 S 2.86399 -1.45246 -2.07105 0
M  V30 19 C 3.90364 -0.679018 -0.863499 0
M  V30 20 N 5.09789 -1.30881 -0.578526 0
M  V30 21 C 5.98045 -0.805104 0.300208 0
M  V30 22 N 7.22637 -1.47231 0.577198 0
M  V30 23 C 5.74014 0.3735 0.968826 0
M  V30 24 C 4.53291 0.999507 0.674018 0
M  V30 25 N 3.68539 0.453945 -0.212674 0
M  V30 26 N 4.25325 2.23489 1.35197 0
M  V30 27 H 1.01681 -0.0147572 -1.3527 0
M  V30 28 H -1.92539 -1.46178 0.445255 0
M  V30 29 H -3.67965 2.32623 1.14077 0
M  V30 30 H -1.75517 3.3969 0.102497 0
M  V30 31 H 0.163494 3.32147 -1.09754 0
M  V30 32 H 1.29816 2.23967 -0.250876 0
M  V30 33 H 0.673032 1.84662 -1.9566 0
M  V30 34 H -4.1349 -1.419 -0.949841 0
M  V30 35 H -5.37892 -2.56662 -0.316292 0
M  V30 36 H -5.86537 -1.23022 -1.49725 0
M  V30 37 H -7.26576 0.15082 -0.31381 0
M  V30 38 H -5.83446 1.11915 -0.708292 0
M  V30 39 H -6.50813 1.08253 1.00577 0
M  V30 40 H 1.37351 -3.38211 -2.09746 0
M  V30 41 H 2.25115 -3.29075 -0.577261 0
M  V30 42 H 8.09373 -0.896122 0.629745 0
M  V30 43 H 7.26246 -2.49573 0.723506 0
M  V30 44 H 6.42106 0.811834 1.6804 0
M  V30 45 H 3.32343 2.47159 1.75818 0
M  V30 46 H 5.02745 2.94779 1.44779 0
M  V30 END ATOM
M  V30 BEGIN BOND
M  V30 1 2 1 2
M  V30 2 1 2 3
M  V30 3 1 3 4
M  V30 4 2 4 5
M  V30 5 1 5 6
M  V30 6 2 6 7
M  V30 7 1 7 8
M  V30 8 2 8 9
M  V30 9 1 9 10
M  V30 10 1 6 11
M  V30 11 2 11 12
M  V30 12 2 11 13
M  V30 13 1 11 14
M  V30 14 1 14 15
M  V30 15 1 14 16
M  V30 16 1 2 17
M  V30 17 1 17 18
M  V30 18 1 18 19
M  V30 19 2 19 20
M  V30 20 1 20 21
M  V30 21 1 21 22
M  V30 22 2 21 23
M  V30 23 1 23 24
M  V30 24 2 24 25
M  V30 25 1 24 26
M  V30 26 1 9 4
M  V30 27 1 25 19
M  V30 28 1 3 27
M  V30 29 1 5 28
M  V30 30 1 7 29
M  V30 31 1 8 30
M  V30 32 1 10 31
M  V30 33 1 10 32
M  V30 34 1 10 33
M  V30 35 1 15 34
M  V30 36 1 15 35
M  V30 37 1 15 36
M  V30 38 1 16 37
M  V30 39 1 16 38
M  V30 40 1 16 39
M  V30 41 1 17 40
M  V30 42 1 17 41
M  V30 43 1 22 42
M  V30 44 1 22 43
M  V30 45 1 23 44
M  V30 46 1 26 45
M  V30 47 1 26 46
M  V30 END BOND
M  V30 END CTAB
M  END
