
     RDKit          3D

  0  0  0  0  0  0  0  0  0  0999 V3000
M  V30 BEGIN CTAB
M  V30 COUNTS 29 29 0 0 0
M  V30 BEGIN ATOM
M  V30 1 N 4.42428 1.24351 -0.0625479 0
M  V30 2 N 4.43209 -0.151095 -0.0725628 0
M  V30 3 C 3.34627 -0.769224 0.205499 0
M  V30 4 C 2.10354 -0.0351209 0.53162 0
M  V30 5 S 0.858821 -0.519209 -0.689443 0
M  V30 6 C -0.732636 0.319726 -0.397906 0
M  V30 7 C -1.25886 -0.195686 0.902519 0
M  V30 8 C -2.71175 0.0908014 1.13775 0
M  V30 9 C -3.25996 0.896715 -0.0313411 0
M  V30 10 C -3.07109 0.00269778 -1.25138 0
M  V30 11 C -1.60589 0.0389827 -1.58122 0
M  V30 12 N 3.32458 -2.1752 0.203937 0
M  V30 13 H 4.16675 1.73358 0.817815 0
M  V30 14 H 4.67158 1.78096 -0.919143 0
M  V30 15 H 1.71128 -0.32889 1.54127 0
M  V30 16 H 2.27036 1.04786 0.529149 0
M  V30 17 H -0.501875 1.39942 -0.310968 0
M  V30 18 H -0.682839 0.28545 1.72034 0
M  V30 19 H -1.10547 -1.29853 1.02353 0
M  V30 20 H -3.32338 -0.834116 1.18352 0
M  V30 21 H -2.89883 0.645382 2.07481 0
M  V30 22 H -2.62192 1.81516 -0.171195 0
M  V30 23 H -4.29895 1.20071 0.107741 0
M  V30 24 H -3.72328 0.31595 -2.06319 0
M  V30 25 H -3.34842 -1.05001 -0.953618 0
M  V30 26 H -1.33381 -0.915336 -2.0899 0
M  V30 27 H -1.4566 0.840247 -2.33463 0
M  V30 28 H 3.89406 -2.70646 -0.468773 0
M  V30 29 H 2.73197 -2.67828 0.883393 0
M  V30 END ATOM
M  V30 BEGIN BOND
M  V30 1 1 1 2
M  V30 2 2 2 3 CFG=2
M  V30 3 1 3 4
M  V30 4 1 4 5
M  V30 5 1 5 6
M  V30 6 1 6 7
M  V30 7 1 7 8
M  V30 8 1 8 9
M  V30 9 1 9 10
M  V30 10 1 10 11
M  V30 11 1 3 12
M  V30 12 1 11 6
M  V30 13 1 1 13
M  V30 14 1 1 14
M  V30 15 1 4 15
M  V30 16 1 4 16
M  V30 17 1 6 17
M  V30 18 1 7 18
M  V30 19 1 7 19
M  V30 20 1 8 20
M  V30 21 1 8 21
M  V30 22 1 9 22
M  V30 23 1 9 23
M  V30 24 1 10 24
M  V30 25 1 10 25
M  V30 26 1 11 26
M  V30 27 1 11 27
M  V30 28 1 12 28
M  V30 29 1 12 29
M  V30 END BOND
M  V30 END CTAB
M  END
