
     RDKit          3D

  0  0  0  0  0  0  0  0  0  0999 V3000
M  V30 BEGIN CTAB
M  V30 COUNTS 43 44 0 0 0
M  V30 BEGIN ATOM
M  V30 1 N -2.80118 2.11014 -1.1209 0
M  V30 2 C -3.03674 1.22972 0.00167365 0
M  V30 3 C -2.5946 -0.163474 -0.351985 0
M  V30 4 C -3.33876 -0.691857 -1.52752 0
M  V30 5 C -4.48349 -1.54714 -1.01398 0
M  V30 6 O -5.00656 -1.05893 0.168656 0
M  V30 7 C -4.17779 -1.20208 1.25295 0
M  V30 8 C -2.73546 -1.12693 0.793964 0
M  V30 9 C -1.10615 -0.0683505 -0.643846 0
M  V30 10 O -0.66891 -0.378419 -1.75077 0
M  V30 11 N -0.29457 0.386787 0.415235 0
M  V30 12 C 1.09543 0.569036 0.439329 0
M  V30 13 C 1.71122 1.2701 1.47766 0
M  V30 14 C 3.0722 1.4592 1.54818 0
M  V30 15 C 3.87943 0.950322 0.574477 0
M  V30 16 C 3.31408 0.257891 -0.458245 0
M  V30 17 C 1.92396 0.0714609 -0.51886 0
M  V30 18 S 4.3271 -0.400727 -1.71318 0
M  V30 19 O 3.50887 -1.21224 -2.69577 0
M  V30 20 O 5.03239 0.649096 -2.50282 0
M  V30 21 N 5.42646 -1.50679 -0.962716 0
M  V30 22 C 5.35527 1.1811 0.692764 0
M  V30 23 H -3.66951 2.27494 -1.67742 0
M  V30 24 H -2.03443 1.69041 -1.7112 0
M  V30 25 H -4.1157 1.23639 0.309288 0
M  V30 26 H -2.48551 1.64351 0.869796 0
M  V30 27 H -2.69561 -1.35324 -2.13962 0
M  V30 28 H -3.71296 0.10223 -2.22123 0
M  V30 29 H -4.19803 -2.60794 -0.891293 0
M  V30 30 H -5.31905 -1.54015 -1.76458 0
M  V30 31 H -4.34522 -0.333406 1.93299 0
M  V30 32 H -4.37218 -2.12274 1.83913 0
M  V30 33 H -2.04238 -0.948628 1.61979 0
M  V30 34 H -2.4961 -2.14431 0.382775 0
M  V30 35 H -0.783744 0.635288 1.35897 0
M  V30 36 H 1.06455 1.68123 2.26162 0
M  V30 37 H 3.4719 2.01526 2.38738 0
M  V30 38 H 1.57385 -0.504513 -1.38087 0
M  V30 39 H 4.8423 -2.10825 -0.32006 0
M  V30 40 H 5.75088 -2.17971 -1.7163 0
M  V30 41 H 5.51918 2.12133 1.27028 0
M  V30 42 H 5.84488 1.31428 -0.273195 0
M  V30 43 H 5.80069 0.350097 1.30563 0
M  V30 END ATOM
M  V30 BEGIN BOND
M  V30 1 1 1 2
M  V30 2 1 2 3
M  V30 3 1 3 4
M  V30 4 1 4 5
M  V30 5 1 5 6
M  V30 6 1 6 7
M  V30 7 1 7 8
M  V30 8 1 3 9
M  V30 9 2 9 10
M  V30 10 1 9 11
M  V30 11 1 11 12
M  V30 12 2 12 13
M  V30 13 1 13 14
M  V30 14 2 14 15
M  V30 15 1 15 16
M  V30 16 2 16 17
M  V30 17 1 16 18
M  V30 18 2 18 19
M  V30 19 2 18 20
M  V30 20 1 18 21
M  V30 21 1 15 22
M  V30 22 1 8 3
M  V30 23 1 17 12
M  V30 24 1 1 23
M  V30 25 1 1 24
M  V30 26 1 2 25
M  V30 27 1 2 26
M  V30 28 1 4 27
M  V30 29 1 4 28
M  V30 30 1 5 29
M  V30 31 1 5 30
M  V30 32 1 7 31
M  V30 33 1 7 32
M  V30 34 1 8 33
M  V30 35 1 8 34
M  V30 36 1 11 35
M  V30 37 1 13 36
M  V30 38 1 14 37
M  V30 39 1 17 38
M  V30 40 1 21 39
M  V30 41 1 21 40
M  V30 42 1 22 41
M  V30 43 1 22 42
M  V30 44 1 22 43
M  V30 END BOND
M  V30 END CTAB
M  END
