
     RDKit          3D

  0  0  0  0  0  0  0  0  0  0999 V3000
M  V30 BEGIN CTAB
M  V30 COUNTS 28 28 0 0 0
M  V30 BEGIN ATOM
M  V30 1 N 3.38667 1.01829 0.165951 0
M  V30 2 C 2.28454 0.894273 -0.756718 0
M  V30 3 C 1.01957 0.443517 -0.0920121 0
M  V30 4 C 1.19558 -0.925144 0.576177 0
M  V30 5 C -0.251449 -1.31491 0.790446 0
M  V30 6 C -1.05076 -0.7488 -0.336908 0
M  V30 7 C -0.0586581 0.0506778 -1.11036 0
M  V30 8 N -1.47559 -1.86147 -1.18469 0
M  V30 9 C -2.26504 -0.028981 0.103318 0
M  V30 10 C -2.09497 1.12974 0.974495 0
M  V30 11 O -1.86357 0.991353 2.19218 0
M  V30 12 O -2.18713 2.40274 0.468493 0
M  V30 13 H 3.68165 2.01423 0.311659 0
M  V30 14 H 3.20547 0.532591 1.07363 0
M  V30 15 H 2.57657 0.16109 -1.53274 0
M  V30 16 H 2.126 1.84934 -1.26661 0
M  V30 17 H 0.688154 1.20047 0.614944 0
M  V30 18 H 1.66247 -1.56546 -0.199346 0
M  V30 19 H 1.75562 -0.845614 1.50761 0
M  V30 20 H -0.600986 -1.02597 1.79038 0
M  V30 21 H -0.257341 -2.43506 0.784696 0
M  V30 22 H 0.459601 -0.592359 -1.84594 0
M  V30 23 H -0.437308 0.948797 -1.60397 0
M  V30 24 H -0.637123 -2.47556 -1.26689 0
M  V30 25 H -2.17221 -2.40055 -0.608221 0
M  V30 26 H -2.93142 -0.813285 0.581737 0
M  V30 27 H -2.8939 0.295449 -0.781523 0
M  V30 28 H -2.86444 3.10058 0.6502 0
M  V30 END ATOM
M  V30 BEGIN BOND
M  V30 1 1 1 2
M  V30 2 1 2 3
M  V30 3 1 3 4
M  V30 4 1 4 5
M  V30 5 1 5 6
M  V30 6 1 6 7
M  V30 7 1 6 8
M  V30 8 1 6 9
M  V30 9 1 9 10
M  V30 10 2 10 11
M  V30 11 1 10 12
M  V30 12 1 7 3
M  V30 13 1 1 13
M  V30 14 1 1 14
M  V30 15 1 2 15
M  V30 16 1 2 16
M  V30 17 1 3 17
M  V30 18 1 4 18
M  V30 19 1 4 19
M  V30 20 1 5 20
M  V30 21 1 5 21
M  V30 22 1 7 22
M  V30 23 1 7 23
M  V30 24 1 8 24
M  V30 25 1 8 25
M  V30 26 1 9 26
M  V30 27 1 9 27
M  V30 28 1 12 28
M  V30 END BOND
M  V30 END CTAB
M  END
