
     RDKit          3D

  0  0  0  0  0  0  0  0  0  0999 V3000
M  V30 BEGIN CTAB
M  V30 COUNTS 21 21 0 0 0
M  V30 BEGIN ATOM
M  V30 1 N 3.54548 0.882842 -0.200854 0
M  V30 2 C 3.34591 -0.533359 -0.0113224 0
M  V30 3 C 2.42805 -1.09655 -1.10314 0
M  V30 4 S 0.814476 -0.314685 -1.09373 0
M  V30 5 C -0.119683 -0.696185 0.413511 0
M  V30 6 C -1.46114 -0.0322133 0.394277 0
M  V30 7 N -1.81073 1.16994 0.841124 0
M  V30 8 N -3.00569 1.56055 0.736743 0
M  V30 9 C -3.92042 0.773118 0.180105 0
M  V30 10 N -5.29609 1.06902 -0.00752044 0
M  V30 11 S -2.97009 -0.598973 -0.202653 0
M  V30 12 H 2.79969 1.34007 -0.764094 0
M  V30 13 H 4.50535 1.06894 -0.556978 0
M  V30 14 H 2.92256 -0.728987 1.00292 0
M  V30 15 H 4.32326 -1.04566 -0.121298 0
M  V30 16 H 2.40716 -2.18219 -1.08618 0
M  V30 17 H 2.92661 -0.801403 -2.06545 0
M  V30 18 H 0.480036 -0.392835 1.27248 0
M  V30 19 H -0.31695 -1.78496 0.475052 0
M  V30 20 H -5.86413 1.51086 0.733121 0
M  V30 21 H -5.73368 0.832659 -0.913119 0
M  V30 END ATOM
M  V30 BEGIN BOND
M  V30 1 1 1 2
M  V30 2 1 2 3
M  V30 3 1 3 4
M  V30 4 1 4 5
M  V30 5 1 5 6
M  V30 6 2 6 7
M  V30 7 1 7 8
M  V30 8 2 8 9
M  V30 9 1 9 10
M  V30 10 1 9 11
M  V30 11 1 11 6
M  V30 12 1 1 12
M  V30 13 1 1 13
M  V30 14 1 2 14
M  V30 15 1 2 15
M  V30 16 1 3 16
M  V30 17 1 3 17
M  V30 18 1 5 18
M  V30 19 1 5 19
M  V30 20 1 10 20
M  V30 21 1 10 21
M  V30 END BOND
M  V30 END CTAB
M  END
