
     RDKit          3D

  0  0  0  0  0  0  0  0  0  0999 V3000
M  V30 BEGIN CTAB
M  V30 COUNTS 58 58 0 0 0
M  V30 BEGIN ATOM
M  V30 1 C -3.32659 -1.05236 -0.552434 0 CFG=1
M  V30 2 O -3.38917 -0.397255 -1.77814 0
M  V30 3 C -2.89339 -2.47823 -0.863713 0
M  V30 4 N -3.93061 -3.01998 -1.74546 0
M  V30 5 C -2.45499 -0.386074 0.451817 0 CFG=1
M  V30 6 O -1.16027 -0.279608 0.0106503 0
M  V30 7 C -0.230209 -0.986264 0.796556 0 CFG=1
M  V30 8 O 0.406053 -1.99068 0.140144 0
M  V30 9 C 1.60691 -1.67035 -0.481694 0 CFG=1
M  V30 10 C 1.37469 -0.795367 -1.69765 0
M  V30 11 O 2.54228 -0.461749 -2.36879 0
M  V30 12 C 2.61675 -1.11799 0.481896 0 CFG=1
M  V30 13 N 3.33153 -0.00936044 -0.0638794 0
M  V30 14 C 4.73886 -0.051867 -0.240835 0
M  V30 15 O 5.3673 -1.10809 0.0983661 0
M  V30 16 C 5.49649 1.09602 -0.807714 0
M  V30 17 C 6.97584 0.803307 -0.877949 0
M  V30 18 C 1.97103 -0.732065 1.80241 0 CFG=2
M  V30 19 O 1.63638 -1.87589 2.52261 0
M  V30 20 C 0.659657 0.00186647 1.50266 0 CFG=2
M  V30 21 O 0.12381 0.358708 2.7149 0
M  V30 22 C -3.0146 0.929367 0.893153 0 CFG=2
M  V30 23 N -4.36771 0.845966 1.3646 0
M  V30 24 C -2.93535 2.00623 -0.161521 0 CFG=2
M  V30 25 O -1.63135 2.1252 -0.668488 0
M  V30 26 C -3.21055 3.37712 0.472399 0
M  V30 27 O -4.46071 3.46996 1.02719 0
M  V30 28 H -4.3824 -1.1392 -0.166245 0
M  V30 29 H -3.67381 -1.01441 -2.49656 0
M  V30 30 H -1.96249 -2.42978 -1.45377 0
M  V30 31 H -2.80074 -3.11 0.0152415 0
M  V30 32 H -4.8183 -2.47879 -1.6605 0
M  V30 33 H -3.59751 -3.07203 -2.71604 0
M  V30 34 H -2.44382 -1.04338 1.36627 0
M  V30 35 H -0.847991 -1.47273 1.60882 0
M  V30 36 H 2.01053 -2.62363 -0.880484 0
M  V30 37 H 0.812803 0.129575 -1.43133 0
M  V30 38 H 0.769456 -1.42704 -2.40448 0
M  V30 39 H 2.44994 -0.523499 -3.36079 0
M  V30 40 H 3.35006 -1.92614 0.705979 0
M  V30 41 H 2.84411 0.873001 -0.34738 0
M  V30 42 H 5.36388 1.96759 -0.132665 0
M  V30 43 H 5.09755 1.4157 -1.79511 0
M  V30 44 H 7.24097 0.64124 -1.94236 0
M  V30 45 H 7.22929 -0.0884021 -0.269332 0
M  V30 46 H 7.56639 1.68104 -0.544956 0
M  V30 47 H 2.57438 -0.0708443 2.41417 0
M  V30 48 H 2.06537 -1.9279 3.4036 0
M  V30 49 H 0.845972 0.919767 0.917438 0
M  V30 50 H -0.169283 1.3114 2.74513 0
M  V30 51 H -2.42935 1.34478 1.76324 0
M  V30 52 H -4.52854 1.36645 2.27599 0
M  V30 53 H -4.6826 -0.131654 1.55859 0
M  V30 54 H -3.69929 1.87085 -0.937261 0
M  V30 55 H -1.74455 2.36736 -1.63348 0
M  V30 56 H -2.39442 3.50541 1.23618 0
M  V30 57 H -3.00868 4.13475 -0.315058 0
M  V30 58 H -4.87899 4.34994 0.820424 0
M  V30 END ATOM
M  V30 BEGIN BOND
M  V30 1 1 1 2
M  V30 2 1 1 3
M  V30 3 1 3 4
M  V30 4 1 1 5
M  V30 5 1 5 6
M  V30 6 1 6 7
M  V30 7 1 7 8
M  V30 8 1 8 9
M  V30 9 1 9 10
M  V30 10 1 10 11
M  V30 11 1 9 12
M  V30 12 1 12 13
M  V30 13 1 13 14
M  V30 14 2 14 15
M  V30 15 1 14 16
M  V30 16 1 16 17
M  V30 17 1 12 18
M  V30 18 1 18 19
M  V30 19 1 18 20
M  V30 20 1 20 21
M  V30 21 1 5 22
M  V30 22 1 22 23
M  V30 23 1 22 24
M  V30 24 1 24 25
M  V30 25 1 24 26
M  V30 26 1 26 27
M  V30 27 1 20 7
M  V30 28 1 1 28 CFG=1
M  V30 29 1 2 29
M  V30 30 1 3 30
M  V30 31 1 3 31
M  V30 32 1 4 32
M  V30 33 1 4 33
M  V30 34 1 5 34 CFG=1
M  V30 35 1 7 35 CFG=1
M  V30 36 1 9 36 CFG=3
M  V30 37 1 10 37
M  V30 38 1 10 38
M  V30 39 1 11 39
M  V30 40 1 12 40 CFG=1
M  V30 41 1 13 41
M  V30 42 1 16 42
M  V30 43 1 16 43
M  V30 44 1 17 44
M  V30 45 1 17 45
M  V30 46 1 17 46
M  V30 47 1 18 47 CFG=1
M  V30 48 1 19 48
M  V30 49 1 20 49 CFG=3
M  V30 50 1 21 50
M  V30 51 1 22 51 CFG=1
M  V30 52 1 23 52
M  V30 53 1 23 53
M  V30 54 1 24 54 CFG=3
M  V30 55 1 25 55
M  V30 56 1 26 56
M  V30 57 1 26 57
M  V30 58 1 27 58
M  V30 END BOND
M  V30 END CTAB
M  END
