
     RDKit          3D

  0  0  0  0  0  0  0  0  0  0999 V3000
M  V30 BEGIN CTAB
M  V30 COUNTS 32 32 0 0 0
M  V30 BEGIN ATOM
M  V30 1 C -3.45258 0.138625 -0.0193873 0
M  V30 2 C -2.54412 -0.714631 0.785863 0
M  V30 3 C -1.42263 -1.37602 0.0868037 0
M  V30 4 N -0.461916 -0.510306 -0.560623 0
M  V30 5 C 0.829889 -0.42065 -0.0222599 0
M  V30 6 N 1.16484 -1.26119 1.00355 0
M  V30 7 C 2.35801 -1.28393 1.59262 0
M  V30 8 C 3.37202 -0.435736 1.19836 0
M  V30 9 C 3.08678 0.42528 0.175322 0
M  V30 10 C 1.81696 0.429747 -0.430966 0
M  V30 11 N 1.61344 1.37926 -1.48834 0
M  V30 12 N 4.07289 1.33137 -0.292552 0
M  V30 13 C -0.860404 0.212433 -1.72589 0
M  V30 14 C -2.11007 0.085514 1.99727 0
M  V30 15 H -2.99669 1.07743 -0.388605 0
M  V30 16 H -3.88186 -0.382066 -0.910953 0
M  V30 17 H -4.37562 0.440717 0.572373 0
M  V30 18 H -3.1938 -1.54174 1.21178 0
M  V30 19 H -1.88968 -2.05509 -0.694009 0
M  V30 20 H -0.877506 -2.11455 0.744992 0
M  V30 21 H 2.6059 -1.96446 2.41174 0
M  V30 22 H 4.34254 -0.4724 1.69575 0
M  V30 23 H 1.18982 2.323 -1.32765 0
M  V30 24 H 1.89803 1.14228 -2.4649 0
M  V30 25 H 4.06038 2.33626 -0.0185668 0
M  V30 26 H 4.83765 1.01947 -0.922635 0
M  V30 27 H -1.86141 -0.134457 -2.11403 0
M  V30 28 H -0.930554 1.29444 -1.5416 0
M  V30 29 H -0.197072 0.0546041 -2.61675 0
M  V30 30 H -3.05154 0.548207 2.4128 0
M  V30 31 H -1.64932 -0.51708 2.77861 0
M  V30 32 H -1.49239 0.945679 1.67019 0
M  V30 END ATOM
M  V30 BEGIN BOND
M  V30 1 1 1 2
M  V30 2 1 2 3
M  V30 3 1 3 4
M  V30 4 1 4 5
M  V30 5 2 5 6
M  V30 6 1 6 7
M  V30 7 2 7 8
M  V30 8 1 8 9
M  V30 9 2 9 10
M  V30 10 1 10 11
M  V30 11 1 9 12
M  V30 12 1 4 13
M  V30 13 1 2 14
M  V30 14 1 10 5
M  V30 15 1 1 15
M  V30 16 1 1 16
M  V30 17 1 1 17
M  V30 18 1 2 18
M  V30 19 1 3 19
M  V30 20 1 3 20
M  V30 21 1 7 21
M  V30 22 1 8 22
M  V30 23 1 11 23
M  V30 24 1 11 24
M  V30 25 1 12 25
M  V30 26 1 12 26
M  V30 27 1 13 27
M  V30 28 1 13 28
M  V30 29 1 13 29
M  V30 30 1 14 30
M  V30 31 1 14 31
M  V30 32 1 14 32
M  V30 END BOND
M  V30 END CTAB
M  END
