
     RDKit          3D

  0  0  0  0  0  0  0  0  0  0999 V3000
M  V30 BEGIN CTAB
M  V30 COUNTS 67 72 0 0 0
M  V30 BEGIN ATOM
M  V30 1 N -9.04275 -2.81112 -1.58723 0
M  V30 2 C -8.59184 -2.20343 -0.401566 0
M  V30 3 N -7.3593 -1.67836 -0.340023 0
M  V30 4 C -6.87304 -1.07844 0.783372 0
M  V30 5 C -7.72405 -1.0349 1.87726 0
M  V30 6 N -7.01283 -0.399876 2.84178 0
M  V30 7 C -5.80195 -0.0811046 2.35071 0
M  V30 8 N -5.70137 -0.491275 1.0881 0
M  V30 9 C -4.61135 -0.382495 0.14797 0 CFG=2
M  V30 10 O -3.42175 0.00924783 0.756563 0
M  V30 11 C -2.5874 0.225488 -0.320708 0 CFG=2
M  V30 12 C -1.46115 1.18562 0.00204811 0
M  V30 13 O -0.692422 1.32742 -1.14344 0
M  V30 14 P 0.605467 2.37768 -0.921557 0
M  V30 15 O 0.668436 2.98864 0.646535 0
M  V30 16 O 0.412512 3.55043 -1.85784 0
M  V30 17 O 2.0171 1.5868 -1.36356 0
M  V30 18 C 2.99033 1.63698 -0.373993 0 CFG=2
M  V30 19 C 4.25352 2.18373 -0.983341 0 CFG=1
M  V30 20 C 4.52155 3.60561 -0.556263 0
M  V30 21 O 4.63413 3.72587 0.822317 0
M  V30 22 O 5.28141 1.31669 -0.58177 0
M  V30 23 C 4.69663 0.0611408 -0.760941 0 CFG=2
M  V30 24 C 3.3797 0.229534 -0.0236408 0 CFG=2
M  V30 25 O 2.43658 -0.703479 -0.448405 0
M  V30 26 N 5.51372 -0.978515 -0.159174 0
M  V30 27 C 5.13254 -2.10065 0.458882 0
M  V30 28 N 6.1976 -2.80131 0.87724 0
M  V30 29 C 7.28188 -2.11031 0.517804 0
M  V30 30 C 6.84858 -0.954828 -0.139177 0
M  V30 31 N 7.81105 -0.119395 -0.582441 0
M  V30 32 C 9.1159 -0.329626 -0.432405 0
M  V30 33 N 9.51501 -1.4547 0.206717 0
M  V30 34 C 8.62874 -2.34899 0.684798 0
M  V30 35 N 9.13478 -3.5007 1.34149 0
M  V30 36 C -3.39992 0.837741 -1.42501 0 CFG=1
M  V30 37 O -3.37419 -0.0305845 -2.53888 0
M  V30 38 C -4.81638 0.749479 -0.840695 0 CFG=1
M  V30 39 O -5.69604 0.431905 -1.84461 0
M  V30 40 C -8.98618 -1.57513 1.80709 0
M  V30 41 O -9.75246 -1.53647 2.79052 0
M  V30 42 N -9.40279 -2.15156 0.669823 0
M  V30 43 H -8.86297 -2.37381 -2.50424 0
M  V30 44 H -9.55878 -3.7036 -1.53953 0
M  V30 45 H -5.03571 0.4281 2.90035 0
M  V30 46 H -4.42057 -1.29662 -0.42345 0
M  V30 47 H -2.11847 -0.742666 -0.639602 0
M  V30 48 H -0.813773 0.764456 0.792499 0
M  V30 49 H -1.91998 2.1212 0.339254 0
M  V30 50 H -0.090838 2.69037 1.20562 0
M  V30 51 H 2.66205 2.18647 0.523761 0
M  V30 52 H 4.24302 2.16034 -2.09076 0
M  V30 53 H 3.72957 4.23433 -0.990088 0
M  V30 54 H 5.47641 3.90752 -1.07449 0
M  V30 55 H 5.30699 4.43356 1.0292 0
M  V30 56 H 4.46009 -0.142562 -1.81587 0
M  V30 57 H 3.53979 0.104853 1.05716 0
M  V30 58 H 2.76499 -1.32443 -1.11847 0
M  V30 59 H 4.08053 -2.38034 0.589121 0
M  V30 60 H 9.82449 0.389146 -0.816737 0
M  V30 61 H 9.17394 -3.6219 2.37379 0
M  V30 62 H 9.49367 -4.28315 0.754876 0
M  V30 63 H -3.12267 1.8581 -1.68679 0
M  V30 64 H -2.6499 -0.718112 -2.40414 0
M  V30 65 H -5.07758 1.69235 -0.304832 0
M  V30 66 H -5.47634 1.0132 -2.6331 0
M  V30 67 H -10.376 -2.56955 0.611645 0
M  V30 END ATOM
M  V30 BEGIN BOND
M  V30 1 1 1 2
M  V30 2 2 2 3
M  V30 3 1 3 4
M  V30 4 2 4 5
M  V30 5 1 5 6
M  V30 6 2 6 7
M  V30 7 1 7 8
M  V30 8 1 8 9
M  V30 9 1 9 10
M  V30 10 1 10 11
M  V30 11 1 11 12
M  V30 12 1 12 13
M  V30 13 1 13 14
M  V30 14 1 14 15
M  V30 15 2 14 16
M  V30 16 1 14 17
M  V30 17 1 17 18
M  V30 18 1 18 19
M  V30 19 1 19 20
M  V30 20 1 20 21
M  V30 21 1 19 22
M  V30 22 1 22 23
M  V30 23 1 23 24
M  V30 24 1 24 25
M  V30 25 1 23 26
M  V30 26 1 26 27
M  V30 27 2 27 28
M  V30 28 1 28 29
M  V30 29 2 29 30
M  V30 30 1 30 31
M  V30 31 2 31 32
M  V30 32 1 32 33
M  V30 33 2 33 34
M  V30 34 1 34 35
M  V30 35 1 11 36
M  V30 36 1 36 37
M  V30 37 1 36 38
M  V30 38 1 38 39
M  V30 39 1 5 40
M  V30 40 2 40 41
M  V30 41 1 40 42
M  V30 42 1 42 2
M  V30 43 1 8 4
M  V30 44 1 38 9
M  V30 45 1 24 18
M  V30 46 1 30 26
M  V30 47 1 34 29
M  V30 48 1 1 43
M  V30 49 1 1 44
M  V30 50 1 7 45
M  V30 51 1 9 46 CFG=3
M  V30 52 1 11 47 CFG=3
M  V30 53 1 12 48
M  V30 54 1 12 49
M  V30 55 1 15 50
M  V30 56 1 18 51 CFG=1
M  V30 57 1 19 52 CFG=3
M  V30 58 1 20 53
M  V30 59 1 20 54
M  V30 60 1 21 55
M  V30 61 1 23 56 CFG=3
M  V30 62 1 24 57 CFG=1
M  V30 63 1 25 58
M  V30 64 1 27 59
M  V30 65 1 32 60
M  V30 66 1 35 61
M  V30 67 1 35 62
M  V30 68 1 36 63 CFG=3
M  V30 69 1 37 64
M  V30 70 1 38 65 CFG=1
M  V30 71 1 39 66
M  V30 72 1 42 67
M  V30 END BOND
M  V30 END CTAB
M  END
