
     RDKit          3D

  0  0  0  0  0  0  0  0  0  0999 V3000
M  V30 BEGIN CTAB
M  V30 COUNTS 20 20 0 0 0
M  V30 BEGIN ATOM
M  V30 1 N 2.98405 -0.924446 0.494571 0
M  V30 2 C 1.70254 -0.383528 0.245366 0
M  V30 3 C 1.51945 0.964776 -0.0776483 0
M  V30 4 C 0.246965 1.4342 -0.309796 0
M  V30 5 O 0.0327346 2.76886 -0.63281 0
M  V30 6 C -0.871622 0.628365 -0.238336 0
M  V30 7 C -0.710215 -0.700154 0.0780568 0
M  V30 8 C 0.564077 -1.17299 0.311154 0
M  V30 9 C -1.88223 -1.58378 0.161828 0
M  V30 10 F -2.73292 -1.16329 1.17617 0
M  V30 11 F -2.62424 -1.55807 -1.00408 0
M  V30 12 N -2.18363 1.13657 -0.483171 0
M  V30 13 H 3.83301 -0.46343 0.128235 0
M  V30 14 H 3.0942 -1.79038 1.04747 0
M  V30 15 H 2.39389 1.59765 -0.134172 0
M  V30 16 H 0.8163 3.40371 -0.698771 0
M  V30 17 H 0.71257 -2.22793 0.564403 0
M  V30 18 H -1.55787 -2.61083 0.426181 0
M  V30 19 H -2.77015 1.32133 0.359614 0
M  V30 20 H -2.56692 1.32335 -1.41426 0
M  V30 END ATOM
M  V30 BEGIN BOND
M  V30 1 1 1 2
M  V30 2 2 2 3
M  V30 3 1 3 4
M  V30 4 1 4 5
M  V30 5 2 4 6
M  V30 6 1 6 7
M  V30 7 2 7 8
M  V30 8 1 7 9
M  V30 9 1 9 10
M  V30 10 1 9 11
M  V30 11 1 6 12
M  V30 12 1 8 2
M  V30 13 1 1 13
M  V30 14 1 1 14
M  V30 15 1 3 15
M  V30 16 1 5 16
M  V30 17 1 8 17
M  V30 18 1 9 18
M  V30 19 1 12 19
M  V30 20 1 12 20
M  V30 END BOND
M  V30 END CTAB
M  END
