
     RDKit          3D

  0  0  0  0  0  0  0  0  0  0999 V3000
M  V30 BEGIN CTAB
M  V30 COUNTS 35 36 0 0 0
M  V30 BEGIN ATOM
M  V30 1 N -4.82769 -0.364006 2.59657 0
M  V30 2 C -3.95425 -0.200711 1.50067 0
M  V30 3 C -4.39134 0.480612 0.396422 0
M  V30 4 C -3.56441 0.667586 -0.711738 0
M  V30 5 N -4.03526 1.37928 -1.85282 0
M  V30 6 N -2.32587 0.144654 -0.631865 0
M  V30 7 C -1.87007 -0.528496 0.438879 0
M  V30 8 N -2.68247 -0.69492 1.49005 0
M  V30 9 S -0.188952 -1.20091 0.463262 0
M  V30 10 C 0.64081 -0.796818 -1.12398 0
M  V30 11 C 0.840199 0.677196 -1.24136 0
M  V30 12 C 2.25305 1.12904 -1.08994 0
M  V30 13 C 2.6682 0.978592 0.35065 0
M  V30 14 C 3.9675 0.202961 0.375129 0
M  V30 15 C 3.72072 -1.28589 0.457074 0
M  V30 16 C 3.04294 -1.81621 -0.736326 0
M  V30 17 C 1.85633 -1.60015 -1.30866 0
M  V30 18 H -5.25365 -1.28813 2.79373 0
M  V30 19 H -5.06375 0.428735 3.22711 0
M  V30 20 H -5.38665 0.912113 0.308413 0
M  V30 21 H -3.52736 2.25357 -2.12308 0
M  V30 22 H -4.83641 1.09574 -2.4282 0
M  V30 23 H -0.100402 -1.07928 -1.90813 0
M  V30 24 H 0.241426 1.18012 -0.44301 0
M  V30 25 H 0.453518 1.10144 -2.20816 0
M  V30 26 H 2.26464 2.23521 -1.31003 0
M  V30 27 H 2.95229 0.674001 -1.80268 0
M  V30 28 H 1.89079 0.484927 0.964422 0
M  V30 29 H 2.86366 1.96792 0.846177 0
M  V30 30 H 4.52432 0.492611 1.27924 0
M  V30 31 H 4.51145 0.419475 -0.558862 0
M  V30 32 H 3.13913 -1.49087 1.40229 0
M  V30 33 H 4.7021 -1.76917 0.6175 0
M  V30 34 H 3.66531 -2.54138 -1.24739 0
M  V30 35 H 1.81016 -2.24882 -2.20145 0
M  V30 END ATOM
M  V30 BEGIN BOND
M  V30 1 1 1 2
M  V30 2 2 2 3
M  V30 3 1 3 4
M  V30 4 1 4 5
M  V30 5 2 4 6
M  V30 6 1 6 7
M  V30 7 2 7 8
M  V30 8 1 7 9
M  V30 9 1 9 10
M  V30 10 1 10 11
M  V30 11 1 11 12
M  V30 12 1 12 13
M  V30 13 1 13 14
M  V30 14 1 14 15
M  V30 15 1 15 16
M  V30 16 2 16 17
M  V30 17 1 8 2
M  V30 18 1 17 10
M  V30 19 1 1 18
M  V30 20 1 1 19
M  V30 21 1 3 20
M  V30 22 1 5 21
M  V30 23 1 5 22
M  V30 24 1 10 23
M  V30 25 1 11 24
M  V30 26 1 11 25
M  V30 27 1 12 26
M  V30 28 1 12 27
M  V30 29 1 13 28
M  V30 30 1 13 29
M  V30 31 1 14 30
M  V30 32 1 14 31
M  V30 33 1 15 32
M  V30 34 1 15 33
M  V30 35 1 16 34
M  V30 36 1 17 35
M  V30 END BOND
M  V30 END CTAB
M  END
