
     RDKit          3D

  0  0  0  0  0  0  0  0  0  0999 V3000
M  V30 BEGIN CTAB
M  V30 COUNTS 15 15 0 0 0
M  V30 BEGIN ATOM
M  V30 1 N -1.48313 -1.70642 -0.507011 0
M  V30 2 C -0.336394 -0.903768 -0.258188 0
M  V30 3 N 0.916898 -1.32169 -0.339979 0
M  V30 4 C 1.97845 -0.528371 -0.0958889 0
M  V30 5 I 3.95002 -1.2903 -0.253099 0
M  V30 6 C 1.80056 0.792494 0.260292 0
M  V30 7 C 0.517384 1.28506 0.361696 0
M  V30 8 C -0.545892 0.432354 0.101341 0
M  V30 9 N -1.86798 0.916114 0.199378 0
M  V30 10 Cl 3.18925 1.80434 0.57251 0
M  V30 11 H -2.16433 -1.48777 -1.27232 0
M  V30 12 H -1.61069 -2.53685 0.123361 0
M  V30 13 H 0.377849 2.3158 0.639617 0
M  V30 14 H -2.0394 1.93408 0.11679 0
M  V30 15 H -2.68258 0.294909 0.351498 0
M  V30 END ATOM
M  V30 BEGIN BOND
M  V30 1 1 1 2
M  V30 2 2 2 3
M  V30 3 1 3 4
M  V30 4 1 4 5
M  V30 5 2 4 6
M  V30 6 1 6 7
M  V30 7 2 7 8
M  V30 8 1 8 9
M  V30 9 1 6 10
M  V30 10 1 8 2
M  V30 11 1 1 11
M  V30 12 1 1 12
M  V30 13 1 7 13
M  V30 14 1 9 14
M  V30 15 1 9 15
M  V30 END BOND
M  V30 END CTAB
M  END
