
     RDKit          3D

  0  0  0  0  0  0  0  0  0  0999 V3000
M  V30 BEGIN CTAB
M  V30 COUNTS 46 48 0 0 0
M  V30 BEGIN ATOM
M  V30 1 C -3.37191 1.35138 3.25751 0
M  V30 2 O -4.17846 0.708827 2.28945 0
M  V30 3 C -3.58309 0.292185 1.12188 0
M  V30 4 C -2.24581 0.483471 0.880417 0
M  V30 5 C -1.63039 0.0715024 -0.28694 0
M  V30 6 N -0.242856 0.272378 -0.532354 0
M  V30 7 C 0.517349 0.940522 0.511989 0
M  V30 8 C 1.94592 1.08778 0.133731 0
M  V30 9 N 2.83271 0.12543 0.448879 0
M  V30 10 C 4.13458 0.212496 0.128702 0
M  V30 11 C 4.63334 1.30632 -0.547457 0
M  V30 12 C 3.75685 2.3213 -0.89225 0
M  V30 13 C 2.43519 2.18442 -0.541898 0
M  V30 14 N 5.95671 1.39117 -0.871024 0
M  V30 15 C 6.73065 0.355973 -0.494055 0
M  V30 16 N 8.13492 0.4105 -0.818895 0
M  V30 17 N 6.26757 -0.713788 0.162023 0
M  V30 18 C 4.97377 -0.82854 0.494959 0
M  V30 19 N 4.43595 -1.9298 1.18327 0
M  V30 20 C -2.43948 -0.558456 -1.22715 0
M  V30 21 C -3.79262 -0.776656 -1.03489 0
M  V30 22 O -4.59609 -1.40478 -1.97393 0
M  V30 23 C -4.00096 -1.84062 -3.1819 0
M  V30 24 C -4.32419 -0.33288 0.15919 0
M  V30 25 O -5.67544 -0.537436 0.379367 0
M  V30 26 C -6.02807 -1.77187 1.01969 0
M  V30 27 H -2.51016 0.694818 3.52481 0
M  V30 28 H -3.92448 1.62432 4.16686 0
M  V30 29 H -2.90133 2.26735 2.79366 0
M  V30 30 H -1.62697 0.975775 1.62165 0
M  V30 31 H 0.232321 -0.0241016 -1.38792 0
M  V30 32 H 0.403511 0.316172 1.42839 0
M  V30 33 H 0.046553 1.91649 0.746258 0
M  V30 34 H 4.15007 3.18236 -1.42465 0
M  V30 35 H 1.73221 2.97011 -0.803631 0
M  V30 36 H 8.43899 0.241688 -1.80306 0
M  V30 37 H 8.84588 0.614676 -0.0900584 0
M  V30 38 H 4.4885 -1.97156 2.21379 0
M  V30 39 H 3.98759 -2.69715 0.649383 0
M  V30 40 H -2.02751 -0.908058 -2.16452 0
M  V30 41 H -4.85027 -2.22421 -3.81324 0
M  V30 42 H -3.22285 -2.61254 -3.02201 0
M  V30 43 H -3.51991 -0.985253 -3.69827 0
M  V30 44 H -5.19774 -2.18856 1.60085 0
M  V30 45 H -6.32242 -2.45833 0.199477 0
M  V30 46 H -6.86814 -1.55484 1.71786 0
M  V30 END ATOM
M  V30 BEGIN BOND
M  V30 1 1 1 2
M  V30 2 1 2 3
M  V30 3 2 3 4
M  V30 4 1 4 5
M  V30 5 1 5 6
M  V30 6 1 6 7
M  V30 7 1 7 8
M  V30 8 2 8 9
M  V30 9 1 9 10
M  V30 10 2 10 11
M  V30 11 1 11 12
M  V30 12 2 12 13
M  V30 13 1 11 14
M  V30 14 2 14 15
M  V30 15 1 15 16
M  V30 16 1 15 17
M  V30 17 2 17 18
M  V30 18 1 18 19
M  V30 19 2 5 20
M  V30 20 1 20 21
M  V30 21 1 21 22
M  V30 22 1 22 23
M  V30 23 2 21 24
M  V30 24 1 24 25
M  V30 25 1 25 26
M  V30 26 1 24 3
M  V30 27 1 13 8
M  V30 28 1 18 10
M  V30 29 1 1 27
M  V30 30 1 1 28
M  V30 31 1 1 29
M  V30 32 1 4 30
M  V30 33 1 6 31
M  V30 34 1 7 32
M  V30 35 1 7 33
M  V30 36 1 12 34
M  V30 37 1 13 35
M  V30 38 1 16 36
M  V30 39 1 16 37
M  V30 40 1 19 38
M  V30 41 1 19 39
M  V30 42 1 20 40
M  V30 43 1 23 41
M  V30 44 1 23 42
M  V30 45 1 23 43
M  V30 46 1 26 44
M  V30 47 1 26 45
M  V30 48 1 26 46
M  V30 END BOND
M  V30 END CTAB
M  END
