
     RDKit          3D

  0  0  0  0  0  0  0  0  0  0999 V3000
M  V30 BEGIN CTAB
M  V30 COUNTS 52 54 0 0 0
M  V30 BEGIN ATOM
M  V30 1 C 8.94713 -0.78326 -1.89616 0
M  V30 2 O 8.2927 0.316477 -1.31425 0
M  V30 3 C 7.07192 0.177174 -0.668799 0
M  V30 4 C 6.4973 -1.06844 -0.602018 0
M  V30 5 C 5.28272 -1.21921 0.0376956 0
M  V30 6 C 4.63208 -0.149798 0.611409 0
M  V30 7 C 5.22981 1.08597 0.529898 0
M  V30 8 C 6.44006 1.24896 -0.104966 0
M  V30 9 C 3.34257 -0.276675 1.29713 0
M  V30 10 C 2.15304 -0.091016 0.398578 0
M  V30 11 C 0.918745 -0.23747 1.18204 0
M  V30 12 O 1.02965 -0.486473 2.42811 0
M  V30 13 N -0.378793 -0.118702 0.636153 0
M  V30 14 C -1.54974 -0.271117 1.44766 0
M  V30 15 C -2.82612 -0.273165 0.665996 0
M  V30 16 N -2.88693 0.591088 -0.437453 0
M  V30 17 C -1.65906 1.13595 -0.913217 0
M  V30 18 C -0.533364 0.161146 -0.76393 0
M  V30 19 C -4.00399 1.46405 -0.505574 0
M  V30 20 C -5.3042 0.732747 -0.555666 0
M  V30 21 N -6.44197 1.45268 -0.621016 0
M  V30 22 C -7.6532 0.869299 -0.669233 0
M  V30 23 N -8.85676 1.65131 -0.738673 0
M  V30 24 N -7.6872 -0.474217 -0.649586 0
M  V30 25 C -6.58894 -1.25363 -0.585164 0
M  V30 26 N -5.38413 -0.61183 -0.538182 0
M  V30 27 N -6.6621 -2.67139 -0.566198 0
M  V30 28 H 9.96019 -0.426984 -2.21342 0
M  V30 29 H 9.03575 -1.60274 -1.15224 0
M  V30 30 H 8.40683 -1.17874 -2.7758 0
M  V30 31 H 6.98588 -1.94344 -1.04728 0
M  V30 32 H 4.85306 -2.217 0.0742739 0
M  V30 33 H 4.73423 1.95762 0.978333 0
M  V30 34 H 6.90032 2.24803 -0.158212 0
M  V30 35 H 3.22302 -1.24517 1.81751 0
M  V30 36 H 3.28453 0.525071 2.08045 0
M  V30 37 H 2.19475 -0.798619 -0.454779 0
M  V30 38 H 2.20887 0.953063 -0.0162672 0
M  V30 39 H -1.46929 -1.28899 1.93245 0
M  V30 40 H -1.57586 0.438334 2.3136 0
M  V30 41 H -3.04043 -1.32372 0.310199 0
M  V30 42 H -3.65156 -0.0357369 1.37041 0
M  V30 43 H -1.39717 2.0508 -0.369203 0
M  V30 44 H -1.78744 1.40105 -2.00413 0
M  V30 45 H 0.417841 0.611711 -1.15755 0
M  V30 46 H -0.73604 -0.790474 -1.32241 0
M  V30 47 H -3.93467 2.0499 -1.45712 0
M  V30 48 H -4.0266 2.22805 0.311461 0
M  V30 49 H -9.52523 1.73005 0.0378795 0
M  V30 50 H -9.06696 2.16747 -1.6209 0
M  V30 51 H -7.48521 -3.12566 -0.122893 0
M  V30 52 H -5.93002 -3.28433 -0.975561 0
M  V30 END ATOM
M  V30 BEGIN BOND
M  V30 1 1 1 2
M  V30 2 1 2 3
M  V30 3 2 3 4
M  V30 4 1 4 5
M  V30 5 2 5 6
M  V30 6 1 6 7
M  V30 7 2 7 8
M  V30 8 1 6 9
M  V30 9 1 9 10
M  V30 10 1 10 11
M  V30 11 2 11 12
M  V30 12 1 11 13
M  V30 13 1 13 14
M  V30 14 1 14 15
M  V30 15 1 15 16
M  V30 16 1 16 17
M  V30 17 1 17 18
M  V30 18 1 16 19
M  V30 19 1 19 20
M  V30 20 2 20 21
M  V30 21 1 21 22
M  V30 22 1 22 23
M  V30 23 2 22 24
M  V30 24 1 24 25
M  V30 25 2 25 26
M  V30 26 1 25 27
M  V30 27 1 8 3
M  V30 28 1 18 13
M  V30 29 1 26 20
M  V30 30 1 1 28
M  V30 31 1 1 29
M  V30 32 1 1 30
M  V30 33 1 4 31
M  V30 34 1 5 32
M  V30 35 1 7 33
M  V30 36 1 8 34
M  V30 37 1 9 35
M  V30 38 1 9 36
M  V30 39 1 10 37
M  V30 40 1 10 38
M  V30 41 1 14 39
M  V30 42 1 14 40
M  V30 43 1 15 41
M  V30 44 1 15 42
M  V30 45 1 17 43
M  V30 46 1 17 44
M  V30 47 1 18 45
M  V30 48 1 18 46
M  V30 49 1 19 47
M  V30 50 1 19 48
M  V30 51 1 23 49
M  V30 52 1 23 50
M  V30 53 1 27 51
M  V30 54 1 27 52
M  V30 END BOND
M  V30 END CTAB
M  END
