
     RDKit          3D

  0  0  0  0  0  0  0  0  0  0999 V3000
M  V30 BEGIN CTAB
M  V30 COUNTS 23 23 0 0 0
M  V30 BEGIN ATOM
M  V30 1 C 3.74735 -0.014465 0.435817 0
M  V30 2 O 2.45683 -0.492979 0.365429 0
M  V30 3 C 1.50945 0.458515 0.100447 0
M  V30 4 C 0.180035 -0.188726 0.0532077 0
M  V30 5 C -0.954824 0.543678 -0.197499 0
M  V30 6 N -0.838462 1.93082 -0.411176 0
M  V30 7 C -2.21699 -0.0423075 -0.247039 0
M  V30 8 N -3.35845 0.747679 -0.507929 0
M  V30 9 C -2.2886 -1.41295 -0.0308957 0
M  V30 10 C -1.1828 -2.18059 0.222234 0
M  V30 11 C 0.0536146 -1.54059 0.25996 0
M  V30 12 H 4.09095 0.466576 -0.500265 0
M  V30 13 H 3.92769 0.621575 1.32995 0
M  V30 14 H 4.4153 -0.91121 0.566082 0
M  V30 15 H 1.69006 0.976209 -0.870727 0
M  V30 16 H 1.53375 1.24474 0.894387 0
M  V30 17 H -1.34822 2.65951 0.146217 0
M  V30 18 H -0.197285 2.25144 -1.18111 0
M  V30 19 H -4.27512 0.468804 -0.100222 0
M  V30 20 H -3.33653 1.60578 -1.09309 0
M  V30 21 H -3.29184 -1.85754 -0.0737306 0
M  V30 22 H -1.26474 -3.23179 0.384884 0
M  V30 23 H 0.948812 -2.10218 0.455074 0
M  V30 END ATOM
M  V30 BEGIN BOND
M  V30 1 1 1 2
M  V30 2 1 2 3
M  V30 3 1 3 4
M  V30 4 2 4 5
M  V30 5 1 5 6
M  V30 6 1 5 7
M  V30 7 1 7 8
M  V30 8 2 7 9
M  V30 9 1 9 10
M  V30 10 2 10 11
M  V30 11 1 11 4
M  V30 12 1 1 12
M  V30 13 1 1 13
M  V30 14 1 1 14
M  V30 15 1 3 15
M  V30 16 1 3 16
M  V30 17 1 6 17
M  V30 18 1 6 18
M  V30 19 1 8 19
M  V30 20 1 8 20
M  V30 21 1 9 21
M  V30 22 1 10 22
M  V30 23 1 11 23
M  V30 END BOND
M  V30 END CTAB
M  END
