
     RDKit          3D

  0  0  0  0  0  0  0  0  0  0999 V3000
M  V30 BEGIN CTAB
M  V30 COUNTS 59 62 0 0 0
M  V30 BEGIN ATOM
M  V30 1 N -5.45636 -3.36132 -0.165402 0
M  V30 2 C -4.05282 -3.08594 -0.121543 0
M  V30 3 N -3.56284 -1.84887 -0.265426 0
M  V30 4 C -2.26091 -1.51464 -0.233933 0
M  V30 5 C -1.72479 -0.164265 -0.414081 0
M  V30 6 O -2.59906 0.857387 -0.590669 0
M  V30 7 C -3.37441 1.12179 0.493944 0
M  V30 8 C -4.34302 2.24345 0.217181 0
M  V30 9 C -5.55616 1.8639 -0.328889 0
M  V30 10 C -6.4575 2.86398 -0.596449 0
M  V30 11 C -6.18161 4.17897 -0.339942 0
M  V30 12 C -4.9675 4.51934 0.202622 0
M  V30 13 C -4.03718 3.55538 0.486309 0
M  V30 14 C -1.36109 -2.54706 -0.0355114 0
M  V30 15 C -1.83624 -3.85629 0.119588 0
M  V30 16 N -0.880178 -4.88695 0.321083 0
M  V30 17 N -3.1514 -4.06561 0.0700823 0
M  V30 18 C 0.0639989 -2.26283 0.00252459 0
M  V30 19 C 0.823576 -2.12178 -1.14155 0
M  V30 20 C 2.19115 -1.86585 -1.11446 0
M  V30 21 C 2.85154 -1.74083 0.0725724 0
M  V30 22 N 4.24093 -1.47559 0.161426 0
M  V30 23 C 5.0844 -1.12284 -0.927089 0
M  V30 24 C 4.81548 0.235784 -1.53037 0
M  V30 25 C 4.99795 1.33995 -0.542032 0
M  V30 26 C 3.95286 1.79785 0.208488 0
M  V30 27 C 4.14434 2.81568 1.12273 0
M  V30 28 C 5.38169 3.38647 1.29594 0
M  V30 29 Cl 5.57206 4.66405 2.4579 0
M  V30 30 C 6.45493 2.93622 0.543944 0
M  V30 31 C 6.24083 1.92191 -0.359773 0
M  V30 32 C 2.09553 -1.88087 1.22435 0
M  V30 33 C 0.74058 -2.13445 1.19803 0
M  V30 34 H -6.02874 -3.26048 -1.0237 0
M  V30 35 H -5.9012 -3.67672 0.72045 0
M  V30 36 H -0.903679 -0.139308 -1.17528 0
M  V30 37 H -1.15851 0.0673413 0.547455 0
M  V30 38 H -2.72788 1.49282 1.346 0
M  V30 39 H -3.95826 0.262189 0.831837 0
M  V30 40 H -5.76576 0.823684 -0.527226 0
M  V30 41 H -7.40628 2.54996 -1.02569 0
M  V30 42 H -6.93748 4.94349 -0.572135 0
M  V30 43 H -4.78914 5.58429 0.392213 0
M  V30 44 H -3.07789 3.82141 0.913993 0
M  V30 45 H -0.882372 -5.76142 -0.242758 0
M  V30 46 H -0.150493 -4.7817 1.04815 0
M  V30 47 H 0.316354 -2.217 -2.09114 0
M  V30 48 H 2.75565 -1.76785 -2.04959 0
M  V30 49 H 4.68951 -1.54883 1.12123 0
M  V30 50 H 6.15823 -1.09906 -0.60888 0
M  V30 51 H 5.07157 -1.86667 -1.75837 0
M  V30 52 H 5.59216 0.376589 -2.33594 0
M  V30 53 H 3.80816 0.34215 -1.93014 0
M  V30 54 H 2.93643 1.38791 0.118485 0
M  V30 55 H 3.28387 3.16017 1.70949 0
M  V30 56 H 7.40837 3.406 0.706921 0
M  V30 57 H 7.08934 1.56862 -0.950655 0
M  V30 58 H 2.59781 -1.78608 2.17514 0
M  V30 59 H 0.131472 -2.24764 2.09737 0
M  V30 END ATOM
M  V30 BEGIN BOND
M  V30 1 1 1 2
M  V30 2 2 2 3
M  V30 3 1 3 4
M  V30 4 1 4 5
M  V30 5 1 5 6
M  V30 6 1 6 7
M  V30 7 1 7 8
M  V30 8 2 8 9
M  V30 9 1 9 10
M  V30 10 2 10 11
M  V30 11 1 11 12
M  V30 12 2 12 13
M  V30 13 2 4 14
M  V30 14 1 14 15
M  V30 15 1 15 16
M  V30 16 2 15 17
M  V30 17 1 14 18
M  V30 18 2 18 19
M  V30 19 1 19 20
M  V30 20 2 20 21
M  V30 21 1 21 22
M  V30 22 1 22 23
M  V30 23 1 23 24
M  V30 24 1 24 25
M  V30 25 2 25 26
M  V30 26 1 26 27
M  V30 27 2 27 28
M  V30 28 1 28 29
M  V30 29 1 28 30
M  V30 30 2 30 31
M  V30 31 1 21 32
M  V30 32 2 32 33
M  V30 33 1 17 2
M  V30 34 1 33 18
M  V30 35 1 13 8
M  V30 36 1 31 25
M  V30 37 1 1 34
M  V30 38 1 1 35
M  V30 39 1 5 36
M  V30 40 1 5 37
M  V30 41 1 7 38
M  V30 42 1 7 39
M  V30 43 1 9 40
M  V30 44 1 10 41
M  V30 45 1 11 42
M  V30 46 1 12 43
M  V30 47 1 13 44
M  V30 48 1 16 45
M  V30 49 1 16 46
M  V30 50 1 19 47
M  V30 51 1 20 48
M  V30 52 1 22 49
M  V30 53 1 23 50
M  V30 54 1 23 51
M  V30 55 1 24 52
M  V30 56 1 24 53
M  V30 57 1 26 54
M  V30 58 1 27 55
M  V30 59 1 30 56
M  V30 60 1 31 57
M  V30 61 1 32 58
M  V30 62 1 33 59
M  V30 END BOND
M  V30 END CTAB
M  END
