
     RDKit          3D

  0  0  0  0  0  0  0  0  0  0999 V3000
M  V30 BEGIN CTAB
M  V30 COUNTS 18 19 0 0 0
M  V30 BEGIN ATOM
M  V30 1 N -1.10324 -1.29297 -0.289865 0
M  V30 2 N -0.980219 -0.0152949 0.272812 0
M  V30 3 C -2.06253 0.761062 0.605394 0
M  V30 4 N -3.42374 0.400496 0.435919 0
M  V30 5 N -1.54759 1.88527 1.10377 0
M  V30 6 N -0.229234 1.81955 1.08549 0
M  V30 7 C 0.15354 0.614899 0.55899 0
M  V30 8 C 1.56913 0.167531 0.37374 0
M  V30 9 C 1.88991 -1.04655 -0.157399 0
M  V30 10 S 3.61813 -0.991237 -0.119125 0
M  V30 11 C 3.79942 0.55904 0.563864 0
M  V30 12 N 2.55553 0.947969 0.724797 0
M  V30 13 H -1.29943 -2.09392 0.345498 0
M  V30 14 H -1.00956 -1.48413 -1.30411 0
M  V30 15 H -4.052 0.347876 1.2674 0
M  V30 16 H -3.86283 0.176062 -0.483121 0
M  V30 17 H 1.256 -1.87026 -0.524632 0
M  V30 18 H 4.72872 1.1146 0.815606 0
M  V30 END ATOM
M  V30 BEGIN BOND
M  V30 1 1 1 2
M  V30 2 1 2 3
M  V30 3 1 3 4
M  V30 4 2 3 5
M  V30 5 1 5 6
M  V30 6 2 6 7
M  V30 7 1 7 8
M  V30 8 2 8 9
M  V30 9 1 9 10
M  V30 10 1 10 11
M  V30 11 2 11 12
M  V30 12 1 7 2
M  V30 13 1 12 8
M  V30 14 1 1 13
M  V30 15 1 1 14
M  V30 16 1 4 15
M  V30 17 1 4 16
M  V30 18 1 9 17
M  V30 19 1 11 18
M  V30 END BOND
M  V30 END CTAB
M  END
