
     RDKit          3D

  0  0  0  0  0  0  0  0  0  0999 V3000
M  V30 BEGIN CTAB
M  V30 COUNTS 43 44 0 0 0
M  V30 BEGIN ATOM
M  V30 1 C 3.75298 1.41561 -1.87466 0
M  V30 2 C 3.85609 -0.0318503 -1.47919 0
M  V30 3 C 3.58796 -0.279295 -0.0530702 0
M  V30 4 C 2.29534 -0.268279 0.426215 0
M  V30 5 C 1.16171 -0.0217683 -0.433195 0
M  V30 6 C 0.205076 0.165956 -1.14591 0
M  V30 7 C -0.967814 0.371444 -2.0167 0
M  V30 8 C -2.17185 0.186378 -1.16571 0
M  V30 9 C -2.60754 -1.0678 -0.775741 0
M  V30 10 O -1.87317 -2.15056 -1.21326 0
M  V30 11 C -2.16505 -3.49221 -0.917116 0
M  V30 12 C -3.72366 -1.23276 0.0136588 0
M  V30 13 C -4.40648 -0.0971655 0.411667 0
M  V30 14 C -3.99828 1.14589 0.0416617 0
M  V30 15 O -4.73314 2.25628 0.477959 0
M  V30 16 C -4.40173 3.57525 0.1563 0
M  V30 17 C -2.87873 1.28307 -0.748165 0
M  V30 18 C 2.12921 -0.507004 1.77481 0
M  V30 19 N 0.779487 -0.496476 2.28263 0
M  V30 20 N 3.17647 -0.739902 2.5869 0
M  V30 21 C 4.43614 -0.750191 2.11759 0
M  V30 22 N 5.5453 -1.0003 2.99514 0
M  V30 23 N 4.61528 -0.5196 0.806862 0
M  V30 24 H 2.80535 1.88504 -1.5483 0
M  V30 25 H 3.90422 1.45505 -2.97961 0
M  V30 26 H 4.59289 1.99666 -1.43111 0
M  V30 27 H 3.19161 -0.649826 -2.11714 0
M  V30 28 H 4.88975 -0.374185 -1.69865 0
M  V30 29 H -0.937007 1.41831 -2.35694 0
M  V30 30 H -0.961123 -0.331322 -2.87334 0
M  V30 31 H -2.52759 -3.65071 0.109147 0
M  V30 32 H -1.2174 -4.0697 -1.11831 0
M  V30 33 H -2.94745 -3.89064 -1.62547 0
M  V30 34 H -4.05608 -2.22323 0.314018 0
M  V30 35 H -5.2908 -0.185215 1.03341 0
M  V30 36 H -4.24876 3.62489 -0.947213 0
M  V30 37 H -5.28923 4.21398 0.390107 0
M  V30 38 H -3.52352 3.86644 0.73747 0
M  V30 39 H -2.56303 2.28659 -1.03719 0
M  V30 40 H 0.0500203 -1.06911 1.83861 0
M  V30 41 H 0.599075 0.125254 3.12092 0
M  V30 42 H 5.41734 -1.33717 3.96209 0
M  V30 43 H 6.49816 -0.835813 2.64 0
M  V30 END ATOM
M  V30 BEGIN BOND
M  V30 1 1 1 2
M  V30 2 1 2 3
M  V30 3 2 3 4
M  V30 4 1 4 5
M  V30 5 3 5 6
M  V30 6 1 6 7
M  V30 7 1 7 8
M  V30 8 2 8 9
M  V30 9 1 9 10
M  V30 10 1 10 11
M  V30 11 1 9 12
M  V30 12 2 12 13
M  V30 13 1 13 14
M  V30 14 1 14 15
M  V30 15 1 15 16
M  V30 16 2 14 17
M  V30 17 1 4 18
M  V30 18 1 18 19
M  V30 19 2 18 20
M  V30 20 1 20 21
M  V30 21 1 21 22
M  V30 22 2 21 23
M  V30 23 1 23 3
M  V30 24 1 17 8
M  V30 25 1 1 24
M  V30 26 1 1 25
M  V30 27 1 1 26
M  V30 28 1 2 27
M  V30 29 1 2 28
M  V30 30 1 7 29
M  V30 31 1 7 30
M  V30 32 1 11 31
M  V30 33 1 11 32
M  V30 34 1 11 33
M  V30 35 1 12 34
M  V30 36 1 13 35
M  V30 37 1 16 36
M  V30 38 1 16 37
M  V30 39 1 16 38
M  V30 40 1 17 39
M  V30 41 1 19 40
M  V30 42 1 19 41
M  V30 43 1 22 42
M  V30 44 1 22 43
M  V30 END BOND
M  V30 END CTAB
M  END
