
     RDKit          3D

  0  0  0  0  0  0  0  0  0  0999 V3000
M  V30 BEGIN CTAB
M  V30 COUNTS 50 52 0 0 0
M  V30 BEGIN ATOM
M  V30 1 C -1.45563 -0.496332 -2.53265 0
M  V30 2 O -1.95794 0.113486 -1.4103 0
M  V30 3 C -1.48324 -0.444397 -0.22852 0
M  V30 4 C -2.03291 0.222903 0.993186 0
M  V30 5 C -1.75712 1.65662 1.16086 0
M  V30 6 N -2.21202 2.54049 0.156584 0
M  V30 7 C -1.82583 3.89925 0.536754 0
M  V30 8 C -3.59511 2.53347 -0.133981 0
M  V30 9 C -0.00208099 -0.515469 -0.269535 0
M  V30 10 C 0.415813 -1.84317 -0.158011 0
M  V30 11 C 1.73931 -2.20887 -0.162755 0
M  V30 12 C 2.72801 -1.26294 -0.280482 0
M  V30 13 C 2.35701 0.0489468 -0.392566 0
M  V30 14 C 1.02361 0.40532 -0.386531 0
M  V30 15 C 3.35606 1.11799 -0.522446 0
M  V30 16 O 3.01118 2.3224 -0.625174 0
M  V30 17 N 4.73307 0.806396 -0.534063 0
M  V30 18 C 5.50879 1.08912 0.440817 0
M  V30 19 N 5.00034 1.73952 1.59162 0
M  V30 20 N 6.88541 0.762763 0.397374 0
M  V30 21 C -0.773141 -2.69302 -0.0571897 0
M  V30 22 C -1.89434 -1.89349 -0.106643 0
M  V30 23 C -3.13667 -2.47992 -0.0359206 0
M  V30 24 C -3.31411 -3.85024 0.0841889 0
M  V30 25 C -2.18954 -4.64785 0.133766 0
M  V30 26 C -0.942155 -4.06739 0.063301 0
M  V30 27 F 0.164918 -4.86437 0.11312 0
M  V30 28 H -1.75831 -1.57691 -2.50114 0
M  V30 29 H -1.92462 -0.0161683 -3.41641 0
M  V30 30 H -0.361067 -0.390279 -2.65393 0
M  V30 31 H -1.53698 -0.304748 1.86741 0
M  V30 32 H -3.10561 -0.0611753 1.11119 0
M  V30 33 H -0.67709 1.81374 1.33255 0
M  V30 34 H -2.23746 1.96808 2.13452 0
M  V30 35 H -1.11269 4.34696 -0.168366 0
M  V30 36 H -1.33984 3.91815 1.53587 0
M  V30 37 H -2.73392 4.56013 0.635562 0
M  V30 38 H -4.14428 1.631 0.138715 0
M  V30 39 H -3.72651 2.73361 -1.23723 0
M  V30 40 H -4.13208 3.39433 0.361922 0
M  V30 41 H 2.0507 -3.23692 -0.0756387 0
M  V30 42 H 3.76276 -1.53152 -0.285704 0
M  V30 43 H 0.791704 1.44746 -0.483259 0
M  V30 44 H 5.45372 1.56339 2.51079 0
M  V30 45 H 4.18584 2.39048 1.55194 0
M  V30 46 H 7.52958 1.13411 -0.347492 0
M  V30 47 H 7.32241 0.136351 1.10637 0
M  V30 48 H -4.05778 -1.89145 -0.0709862 0
M  V30 49 H -4.29963 -4.29467 0.138512 0
M  V30 50 H -2.30053 -5.72518 0.227867 0
M  V30 END ATOM
M  V30 BEGIN BOND
M  V30 1 1 1 2
M  V30 2 1 2 3
M  V30 3 1 3 4
M  V30 4 1 4 5
M  V30 5 1 5 6
M  V30 6 1 6 7
M  V30 7 1 6 8
M  V30 8 1 3 9
M  V30 9 2 9 10
M  V30 10 1 10 11
M  V30 11 2 11 12
M  V30 12 1 12 13
M  V30 13 2 13 14
M  V30 14 1 13 15
M  V30 15 2 15 16
M  V30 16 1 15 17
M  V30 17 2 17 18
M  V30 18 1 18 19
M  V30 19 1 18 20
M  V30 20 1 10 21
M  V30 21 2 21 22
M  V30 22 1 22 23
M  V30 23 2 23 24
M  V30 24 1 24 25
M  V30 25 2 25 26
M  V30 26 1 26 27
M  V30 27 1 22 3
M  V30 28 1 14 9
M  V30 29 1 26 21
M  V30 30 1 1 28
M  V30 31 1 1 29
M  V30 32 1 1 30
M  V30 33 1 4 31
M  V30 34 1 4 32
M  V30 35 1 5 33
M  V30 36 1 5 34
M  V30 37 1 7 35
M  V30 38 1 7 36
M  V30 39 1 7 37
M  V30 40 1 8 38
M  V30 41 1 8 39
M  V30 42 1 8 40
M  V30 43 1 11 41
M  V30 44 1 12 42
M  V30 45 1 14 43
M  V30 46 1 19 44
M  V30 47 1 19 45
M  V30 48 1 20 46
M  V30 49 1 20 47
M  V30 50 1 23 48
M  V30 51 1 24 49
M  V30 52 1 25 50
M  V30 END BOND
M  V30 END CTAB
M  END
