
     RDKit          3D

  0  0  0  0  0  0  0  0  0  0999 V3000
M  V30 BEGIN CTAB
M  V30 COUNTS 23 24 0 0 0
M  V30 BEGIN ATOM
M  V30 1 C 4.44549 -0.522984 0.366397 0
M  V30 2 C 3.12866 0.0586936 -0.0343684 0
M  V30 3 N 2.90646 1.16232 -0.780879 0
M  V30 4 N 1.60638 1.36177 -0.923487 0
M  V30 5 C 0.909479 0.39981 -0.278237 0
M  V30 6 C 1.8699 -0.416726 0.278943 0
M  V30 7 C -0.534471 0.246909 -0.183836 0
M  V30 8 N -1.42242 1.07657 -0.749466 0
M  V30 9 C -2.76651 0.883964 -0.627617 0
M  V30 10 N -3.70321 1.75246 -1.21973 0
M  V30 11 N -3.22028 -0.164174 0.0773521 0
M  V30 12 C -2.34788 -1.00432 0.649979 0
M  V30 13 N -1.02841 -0.791348 0.514222 0
M  V30 14 N -2.8171 -2.11097 1.39438 0
M  V30 15 H 4.23942 -1.33666 1.09946 0
M  V30 16 H 5.0487 -0.839382 -0.485688 0
M  V30 17 H 4.95532 0.279679 0.975352 0
M  V30 18 H 1.11428 2.13367 -1.44767 0
M  V30 19 H 1.6546 -1.28654 0.864909 0
M  V30 20 H -4.11617 2.50949 -0.661038 0
M  V30 21 H -3.97012 1.62773 -2.20395 0
M  V30 22 H -3.47715 -2.81495 0.992349 0
M  V30 23 H -2.475 -2.20502 2.38262 0
M  V30 END ATOM
M  V30 BEGIN BOND
M  V30 1 1 1 2
M  V30 2 2 2 3
M  V30 3 1 3 4
M  V30 4 1 4 5
M  V30 5 2 5 6
M  V30 6 1 5 7
M  V30 7 2 7 8
M  V30 8 1 8 9
M  V30 9 1 9 10
M  V30 10 2 9 11
M  V30 11 1 11 12
M  V30 12 2 12 13
M  V30 13 1 12 14
M  V30 14 1 6 2
M  V30 15 1 13 7
M  V30 16 1 1 15
M  V30 17 1 1 16
M  V30 18 1 1 17
M  V30 19 1 4 18
M  V30 20 1 6 19
M  V30 21 1 10 20
M  V30 22 1 10 21
M  V30 23 1 14 22
M  V30 24 1 14 23
M  V30 END BOND
M  V30 END CTAB
M  END
