
     RDKit          3D

  0  0  0  0  0  0  0  0  0  0999 V3000
M  V30 BEGIN CTAB
M  V30 COUNTS 18 18 0 0 0
M  V30 BEGIN ATOM
M  V30 1 N -2.13219 0.833467 -0.298981 0
M  V30 2 C -1.49714 -0.417605 -0.351469 0
M  V30 3 N -2.18645 -1.45687 -0.633465 0
M  V30 4 C -0.0823564 -0.558521 -0.0942197 0
M  V30 5 C 0.543844 -1.78909 -0.145476 0
M  V30 6 N 1.86386 -1.90772 0.0963816 0
M  V30 7 C 2.65432 -0.862014 0.399069 0
M  V30 8 C 2.0478 0.376138 0.455251 0
M  V30 9 C 0.70248 0.549833 0.216217 0
M  V30 10 N 0.0644941 1.81592 0.270192 0
M  V30 11 H -2.28871 1.36595 -1.16642 0
M  V30 12 H -2.43812 1.21075 0.611615 0
M  V30 13 H -3.20275 -1.35053 -0.817527 0
M  V30 14 H -0.0542486 -2.68088 -0.388716 0
M  V30 15 H 3.72204 -0.988224 0.590434 0
M  V30 16 H 2.64458 1.2476 0.695365 0
M  V30 17 H -0.0752643 2.38299 -0.59649 0
M  V30 18 H -0.286204 2.22881 1.15824 0
M  V30 END ATOM
M  V30 BEGIN BOND
M  V30 1 1 1 2
M  V30 2 2 2 3 CFG=2
M  V30 3 1 2 4
M  V30 4 2 4 5
M  V30 5 1 5 6
M  V30 6 2 6 7
M  V30 7 1 7 8
M  V30 8 2 8 9
M  V30 9 1 9 10
M  V30 10 1 9 4
M  V30 11 1 1 11
M  V30 12 1 1 12
M  V30 13 1 3 13
M  V30 14 1 5 14
M  V30 15 1 7 15
M  V30 16 1 8 16
M  V30 17 1 10 17
M  V30 18 1 10 18
M  V30 END BOND
M  V30 END CTAB
M  END
