
     RDKit          3D

  0  0  0  0  0  0  0  0  0  0999 V3000
M  V30 BEGIN CTAB
M  V30 COUNTS 30 31 0 0 0
M  V30 BEGIN ATOM
M  V30 1 C -1.70519 -1.29825 -0.160614 0
M  V30 2 C -1.59573 0.173034 -0.471079 0
M  V30 3 C -2.94223 0.828373 -0.456406 0
M  V30 4 C -3.79935 0.840627 0.729951 0
M  V30 5 C -4.1271 -0.105761 -0.365177 0
M  V30 6 N -0.682547 0.782428 0.443387 0
M  V30 7 C 0.7098 0.515184 0.451177 0
M  V30 8 C 1.50897 1.14799 1.4134 0
M  V30 9 C 2.86816 0.92533 1.44349 0
M  V30 10 C 3.39261 0.0681049 0.501208 0
M  V30 11 C 2.59387 -0.555069 -0.448995 0
M  V30 12 N 1.27452 -0.31131 -0.444045 0
M  V30 13 N 3.21217 -1.42634 -1.38755 0
M  V30 14 N 4.78015 -0.192583 0.490645 0
M  V30 15 H -2.28138 -1.8387 -0.946095 0
M  V30 16 H -2.2901 -1.44698 0.795897 0
M  V30 17 H -0.729485 -1.77144 -0.00868485 0
M  V30 18 H -1.11814 0.256705 -1.4924 0
M  V30 19 H -3.01092 1.6765 -1.20103 0
M  V30 20 H -3.46389 0.451084 1.70638 0
M  V30 21 H -4.48263 1.7155 0.831994 0
M  V30 22 H -4.95729 0.136168 -1.08275 0
M  V30 23 H -4.02845 -1.16879 -0.182875 0
M  V30 24 H -1.09396 1.45608 1.13059 0
M  V30 25 H 0.998892 1.79591 2.1002 0
M  V30 26 H 3.48061 1.41277 2.18396 0
M  V30 27 H 3.93391 -2.13904 -1.15322 0
M  V30 28 H 2.92547 -1.35037 -2.38585 0
M  V30 29 H 5.42818 0.339945 1.10327 0
M  V30 30 H 5.2011 -0.917099 -0.121789 0
M  V30 END ATOM
M  V30 BEGIN BOND
M  V30 1 1 1 2
M  V30 2 1 2 3
M  V30 3 1 3 4
M  V30 4 1 4 5
M  V30 5 1 2 6
M  V30 6 1 6 7
M  V30 7 2 7 8
M  V30 8 1 8 9
M  V30 9 2 9 10
M  V30 10 1 10 11
M  V30 11 2 11 12
M  V30 12 1 11 13
M  V30 13 1 10 14
M  V30 14 1 5 3
M  V30 15 1 12 7
M  V30 16 1 1 15
M  V30 17 1 1 16
M  V30 18 1 1 17
M  V30 19 1 2 18
M  V30 20 1 3 19
M  V30 21 1 4 20
M  V30 22 1 4 21
M  V30 23 1 5 22
M  V30 24 1 5 23
M  V30 25 1 6 24
M  V30 26 1 8 25
M  V30 27 1 9 26
M  V30 28 1 13 27
M  V30 29 1 13 28
M  V30 30 1 14 29
M  V30 31 1 14 30
M  V30 END BOND
M  V30 END CTAB
M  END
