
     RDKit          3D

  0  0  0  0  0  0  0  0  0  0999 V3000
M  V30 BEGIN CTAB
M  V30 COUNTS 41 42 0 0 0
M  V30 BEGIN ATOM
M  V30 1 N 6.06967 1.79507 0.908618 0
M  V30 2 C 5.67014 0.514002 1.47904 0
M  V30 3 C 4.76068 -0.141778 0.493175 0
M  V30 4 C 5.27606 -0.967995 -0.487017 0
M  V30 5 C 4.47258 -1.59919 -1.42468 0
M  V30 6 C 3.10766 -1.41483 -1.40311 0
M  V30 7 C 2.58996 -0.592974 -0.428858 0
M  V30 8 C 3.39189 0.0371025 0.50711 0
M  V30 9 C 1.12031 -0.367686 -0.371246 0
M  V30 10 N 0.456897 -1.33442 0.451773 0
M  V30 11 C -0.982717 -1.23473 0.61225 0
M  V30 12 S -1.71699 -2.36194 1.56329 0
M  V30 13 N -1.62672 -0.189349 -0.0546838 0
M  V30 14 C -2.9748 0.173827 -0.103926 0
M  V30 15 C -4.01166 -0.457684 0.533296 0
M  V30 16 C -5.34219 -0.0463411 0.445732 0
M  V30 17 C -6.42129 -0.774648 1.16115 0
M  V30 18 C -5.65008 1.05287 -0.31846 0
M  V30 19 C -4.65581 1.72908 -0.981838 0
M  V30 20 C -3.36708 1.29269 -0.868918 0
M  V30 21 N -2.34101 2.00195 -1.56251 0
M  V30 22 H 6.48375 1.63209 -0.0346185 0
M  V30 23 H 5.22311 2.39368 0.76372 0
M  V30 24 H 6.5923 -0.103024 1.60528 0
M  V30 25 H 5.11426 0.658396 2.41611 0
M  V30 26 H 6.36042 -1.11635 -0.50653 0
M  V30 27 H 4.88959 -2.23996 -2.18202 0
M  V30 28 H 2.41968 -1.87264 -2.09984 0
M  V30 29 H 2.98498 0.689546 1.28111 0
M  V30 30 H 0.679954 -0.409494 -1.39044 0
M  V30 31 H 0.919336 0.642693 0.045885 0
M  V30 32 H 0.914217 -2.11245 0.952858 0
M  V30 33 H -0.977378 0.448557 -0.629655 0
M  V30 34 H -3.84629 -1.31566 1.14254 0
M  V30 35 H -6.14501 -0.875754 2.23422 0
M  V30 36 H -7.34457 -0.185408 1.1278 0
M  V30 37 H -6.58028 -1.79012 0.74213 0
M  V30 38 H -6.68585 1.36224 -0.378571 0
M  V30 39 H -4.92118 2.58945 -1.57593 0
M  V30 40 H -1.76299 1.47584 -2.24165 0
M  V30 41 H -2.14356 3.01535 -1.4226 0
M  V30 END ATOM
M  V30 BEGIN BOND
M  V30 1 1 1 2
M  V30 2 1 2 3
M  V30 3 2 3 4
M  V30 4 1 4 5
M  V30 5 2 5 6
M  V30 6 1 6 7
M  V30 7 2 7 8
M  V30 8 1 7 9
M  V30 9 1 9 10
M  V30 10 1 10 11
M  V30 11 2 11 12
M  V30 12 1 11 13
M  V30 13 1 13 14
M  V30 14 2 14 15
M  V30 15 1 15 16
M  V30 16 1 16 17
M  V30 17 2 16 18
M  V30 18 1 18 19
M  V30 19 2 19 20
M  V30 20 1 20 21
M  V30 21 1 8 3
M  V30 22 1 20 14
M  V30 23 1 1 22
M  V30 24 1 1 23
M  V30 25 1 2 24
M  V30 26 1 2 25
M  V30 27 1 4 26
M  V30 28 1 5 27
M  V30 29 1 6 28
M  V30 30 1 8 29
M  V30 31 1 9 30
M  V30 32 1 9 31
M  V30 33 1 10 32
M  V30 34 1 13 33
M  V30 35 1 15 34
M  V30 36 1 17 35
M  V30 37 1 17 36
M  V30 38 1 17 37
M  V30 39 1 18 38
M  V30 40 1 19 39
M  V30 41 1 21 40
M  V30 42 1 21 41
M  V30 END BOND
M  V30 END CTAB
M  END
