
     RDKit          3D

  0  0  0  0  0  0  0  0  0  0999 V3000
M  V30 BEGIN CTAB
M  V30 COUNTS 22 22 0 0 0
M  V30 BEGIN ATOM
M  V30 1 N -2.44574 -1.47335 0.00363622 0
M  V30 2 C -1.03295 -1.17377 -0.0328183 0
M  V30 3 C -0.100986 -2.15841 -0.132286 0
M  V30 4 C 1.2196 -1.83254 -0.163406 0
M  V30 5 C 1.57576 -0.518658 -0.0935668 0
M  V30 6 N 2.97575 -0.223971 -0.129797 0
M  V30 7 C 0.673974 0.5456 0.00979472 0
M  V30 8 C 1.21287 1.87995 0.0738024 0
M  V30 9 O 0.651302 3.09491 0.173406 0
M  V30 10 O 2.51094 1.95271 0.0274662 0
M  V30 11 C -0.659547 0.189495 0.0394919 0
M  V30 12 C -1.69831 1.17516 0.143245 0
M  V30 13 O -3.03853 0.714122 0.166564 0
M  V30 14 O -1.58297 2.37749 0.21541 0
M  V30 15 H -3.00982 -1.51923 -0.884687 0
M  V30 16 H -2.86337 -1.63786 0.944345 0
M  V30 17 H -0.456251 -3.1843 -0.183778 0
M  V30 18 H 1.97633 -2.62144 -0.243504 0
M  V30 19 H 3.4256 -0.0686177 -1.04401 0
M  V30 20 H 3.46206 -0.185083 0.799488 0
M  V30 21 H 0.863065 3.76834 0.921799 0
M  V30 22 H -3.65878 0.899437 -0.610596 0
M  V30 END ATOM
M  V30 BEGIN BOND
M  V30 1 1 1 2
M  V30 2 2 2 3
M  V30 3 1 3 4
M  V30 4 2 4 5
M  V30 5 1 5 6
M  V30 6 1 5 7
M  V30 7 1 7 8
M  V30 8 1 8 9
M  V30 9 2 8 10
M  V30 10 2 7 11
M  V30 11 1 11 12
M  V30 12 1 12 13
M  V30 13 2 12 14
M  V30 14 1 11 2
M  V30 15 1 1 15
M  V30 16 1 1 16
M  V30 17 1 3 17
M  V30 18 1 4 18
M  V30 19 1 6 19
M  V30 20 1 6 20
M  V30 21 1 9 21
M  V30 22 1 13 22
M  V30 END BOND
M  V30 END CTAB
M  END
