
     RDKit          3D

  0  0  0  0  0  0  0  0  0  0999 V3000
M  V30 BEGIN CTAB
M  V30 COUNTS 55 56 0 0 0
M  V30 BEGIN ATOM
M  V30 1 N 10.4716 -0.803498 1.23788 0
M  V30 2 C 9.9844 -0.50204 -0.0600073 0
M  V30 3 N 10.8249 -0.232899 -0.966439 0
M  V30 4 C 8.5585 -0.503086 -0.332949 0
M  V30 5 C 7.64827 -0.806373 0.686022 0
M  V30 6 C 6.27221 -0.81668 0.463962 0
M  V30 7 C 5.72988 -0.531189 -0.761272 0
M  V30 8 N 4.34266 -0.509935 -1.06247 0
M  V30 9 C 3.2643 -0.637485 -0.183413 0
M  V30 10 O 3.37937 -0.791447 1.03318 0
M  V30 11 C 1.87877 -0.584209 -0.750657 0
M  V30 12 C 0.894024 -0.73588 0.358565 0
M  V30 13 C -0.52684 -0.698855 -0.15371 0
M  V30 14 C -0.861671 0.577507 -0.845352 0
M  V30 15 C -2.23448 0.706375 -1.3806 0
M  V30 16 C -3.33627 0.645434 -0.400216 0
M  V30 17 O -3.12472 0.552287 0.818709 0
M  V30 18 N -4.65054 0.697936 -0.90761 0
M  V30 19 C -5.81553 0.661072 -0.10488 0
M  V30 20 C -6.99512 0.248708 -0.722539 0
M  V30 21 C -8.17544 0.20239 -0.0397313 0
M  V30 22 C -8.23872 0.559693 1.27454 0
M  V30 23 C -7.11001 0.969796 1.91951 0
M  V30 24 C -5.90486 1.01271 1.20539 0
M  V30 25 C -9.5018 0.504311 1.98088 0
M  V30 26 N -10.6543 0.0626329 1.23457 0
M  V30 27 N -9.63408 0.828632 3.22777 0
M  V30 28 C 6.65423 -0.229577 -1.77179 0
M  V30 29 C 8.01127 -0.218295 -1.55769 0
M  V30 30 H 10.2693 -0.129766 2.00152 0
M  V30 31 H 11.0028 -1.66207 1.39418 0
M  V30 32 H 10.5849 -0.00425119 -1.92543 0
M  V30 33 H 8.05539 -1.03575 1.66566 0
M  V30 34 H 5.63327 -1.06121 1.28288 0
M  V30 35 H 4.0892 -0.382074 -2.0974 0
M  V30 36 H 1.74406 -1.3996 -1.47207 0
M  V30 37 H 1.76007 0.421709 -1.20814 0
M  V30 38 H 1.0324 -1.76952 0.791939 0
M  V30 39 H 1.05471 -0.0275084 1.19605 0
M  V30 40 H -0.662787 -1.59239 -0.804976 0
M  V30 41 H -1.17245 -0.814952 0.737531 0
M  V30 42 H -0.163524 0.665387 -1.7198 0
M  V30 43 H -0.634237 1.47648 -0.216956 0
M  V30 44 H -2.30229 1.73064 -1.85323 0
M  V30 45 H -2.4553 0.0038644 -2.22413 0
M  V30 46 H -4.81067 0.776073 -1.97046 0
M  V30 47 H -6.9816 -0.0401572 -1.75561 0
M  V30 48 H -9.05995 -0.129316 -0.581397 0
M  V30 49 H -7.07238 1.26926 2.95727 0
M  V30 50 H -5.02384 1.36189 1.74609 0
M  V30 51 H -10.7979 -0.951075 1.13773 0
M  V30 52 H -11.3012 0.739482 0.819465 0
M  V30 53 H -8.86709 1.14991 3.82145 0
M  V30 54 H 6.25331 0.00248489 -2.75808 0
M  V30 55 H 8.67584 0.0291397 -2.40373 0
M  V30 END ATOM
M  V30 BEGIN BOND
M  V30 1 1 1 2
M  V30 2 2 2 3 CFG=2
M  V30 3 1 2 4
M  V30 4 2 4 5
M  V30 5 1 5 6
M  V30 6 2 6 7
M  V30 7 1 7 8
M  V30 8 1 8 9
M  V30 9 2 9 10
M  V30 10 1 9 11
M  V30 11 1 11 12
M  V30 12 1 12 13
M  V30 13 1 13 14
M  V30 14 1 14 15
M  V30 15 1 15 16
M  V30 16 2 16 17
M  V30 17 1 16 18
M  V30 18 1 18 19
M  V30 19 2 19 20
M  V30 20 1 20 21
M  V30 21 2 21 22
M  V30 22 1 22 23
M  V30 23 2 23 24
M  V30 24 1 22 25
M  V30 25 1 25 26
M  V30 26 2 25 27 CFG=2
M  V30 27 1 7 28
M  V30 28 2 28 29
M  V30 29 1 29 4
M  V30 30 1 24 19
M  V30 31 1 1 30
M  V30 32 1 1 31
M  V30 33 1 3 32
M  V30 34 1 5 33
M  V30 35 1 6 34
M  V30 36 1 8 35
M  V30 37 1 11 36
M  V30 38 1 11 37
M  V30 39 1 12 38
M  V30 40 1 12 39
M  V30 41 1 13 40
M  V30 42 1 13 41
M  V30 43 1 14 42
M  V30 44 1 14 43
M  V30 45 1 15 44
M  V30 46 1 15 45
M  V30 47 1 18 46
M  V30 48 1 20 47
M  V30 49 1 21 48
M  V30 50 1 23 49
M  V30 51 1 24 50
M  V30 52 1 26 51
M  V30 53 1 26 52
M  V30 54 1 27 53
M  V30 55 1 28 54
M  V30 56 1 29 55
M  V30 END BOND
M  V30 END CTAB
M  END
