
     RDKit          3D

  0  0  0  0  0  0  0  0  0  0999 V3000
M  V30 BEGIN CTAB
M  V30 COUNTS 16 16 0 0 0
M  V30 BEGIN ATOM
M  V30 1 F 0.235689 -2.85425 -0.233638 0
M  V30 2 C 0.516798 -1.5246 -0.11679 0
M  V30 3 C 1.824 -1.09359 -0.0477979 0
M  V30 4 C 2.0338 0.269022 0.0699499 0
M  V30 5 C 0.980285 1.16182 0.116627 0
M  V30 6 C -0.327557 0.741277 0.0484807 0
M  V30 7 C -0.547518 -0.620203 -0.0694306 0
M  V30 8 N -1.88979 -1.06015 -0.140051 0
M  V30 9 N -1.41707 1.64904 0.0954649 0
M  V30 10 Cl 1.29374 2.87784 0.266169 0
M  V30 11 H 2.66574 -1.77139 -0.0821648 0
M  V30 12 H 3.04267 0.653301 0.127454 0
M  V30 13 H -2.38525 -1.2812 0.732807 0
M  V30 14 H -2.37316 -1.16067 -1.05284 0
M  V30 15 H -2.11669 1.78148 -0.664759 0
M  V30 16 H -1.53568 2.23227 0.950517 0
M  V30 END ATOM
M  V30 BEGIN BOND
M  V30 1 1 1 2
M  V30 2 2 2 3
M  V30 3 1 3 4
M  V30 4 2 4 5
M  V30 5 1 5 6
M  V30 6 2 6 7
M  V30 7 1 7 8
M  V30 8 1 6 9
M  V30 9 1 5 10
M  V30 10 1 7 2
M  V30 11 1 3 11
M  V30 12 1 4 12
M  V30 13 1 8 13
M  V30 14 1 8 14
M  V30 15 1 9 15
M  V30 16 1 9 16
M  V30 END BOND
M  V30 END CTAB
M  END
