
     RDKit          3D

  0  0  0  0  0  0  0  0  0  0999 V3000
M  V30 BEGIN CTAB
M  V30 COUNTS 28 28 0 0 0
M  V30 BEGIN ATOM
M  V30 1 C -2.69678 -0.221496 0.207545 0 CFG=1
M  V30 2 N -2.99939 -1.58843 0.12045 0
M  V30 3 C -1.30078 0.130287 -0.26619 0
M  V30 4 S -0.160021 -0.772208 0.765222 0
M  V30 5 O -0.473722 -2.22406 0.609269 0
M  V30 6 O -0.394021 -0.388888 2.19836 0
M  V30 7 C 1.49407 -0.451564 0.318532 0
M  V30 8 C 2.01092 0.817898 0.36498 0
M  V30 9 N 1.23792 1.92113 0.773074 0
M  V30 10 C 3.34227 1.04765 0.000936631 0
M  V30 11 C 4.13484 0.000163392 -0.4042 0
M  V30 12 C 3.60939 -1.2554 -0.445849 0
M  V30 13 C 2.29687 -1.48669 -0.0877141 0
M  V30 14 C -3.64455 0.583764 -0.561168 0
M  V30 15 O -3.58928 1.96668 -0.655657 0
M  V30 16 O -4.56737 -0.001769 -1.1762 0
M  V30 17 H -2.75474 0.1016 1.26236 0
M  V30 18 H -3.65622 -1.88424 -0.612882 0
M  V30 19 H -3.07179 -2.10484 1.01227 0
M  V30 20 H -1.18912 -0.15716 -1.31793 0
M  V30 21 H -1.14198 1.21263 -0.137659 0
M  V30 22 H 1.04521 2.69141 0.0777375 0
M  V30 23 H 0.855049 1.98517 1.75163 0
M  V30 24 H 3.77115 2.03728 0.0293279 0
M  V30 25 H 5.15796 0.167639 -0.685396 0
M  V30 26 H 4.22651 -2.08544 -0.763602 0
M  V30 27 H 1.9437 -2.52426 -0.146515 0
M  V30 28 H -3.48608 2.48315 0.221231 0
M  V30 END ATOM
M  V30 BEGIN BOND
M  V30 1 1 1 2
M  V30 2 1 1 3
M  V30 3 1 3 4
M  V30 4 2 4 5
M  V30 5 2 4 6
M  V30 6 1 4 7
M  V30 7 2 7 8
M  V30 8 1 8 9
M  V30 9 1 8 10
M  V30 10 2 10 11
M  V30 11 1 11 12
M  V30 12 2 12 13
M  V30 13 1 1 14
M  V30 14 1 14 15
M  V30 15 2 14 16
M  V30 16 1 13 7
M  V30 17 1 1 17 CFG=1
M  V30 18 1 2 18
M  V30 19 1 2 19
M  V30 20 1 3 20
M  V30 21 1 3 21
M  V30 22 1 9 22
M  V30 23 1 9 23
M  V30 24 1 10 24
M  V30 25 1 11 25
M  V30 26 1 12 26
M  V30 27 1 13 27
M  V30 28 1 15 28
M  V30 END BOND
M  V30 END CTAB
M  END
