
     RDKit          3D

  0  0  0  0  0  0  0  0  0  0999 V3000
M  V30 BEGIN CTAB
M  V30 COUNTS 25 25 0 0 0
M  V30 BEGIN ATOM
M  V30 1 N 3.81526 0.948597 0.425592 0
M  V30 2 C 2.40457 0.917043 0.14553 0
M  V30 3 C 1.96373 -0.489818 -0.231493 0
M  V30 4 C 0.504072 -0.473196 -0.511075 0
M  V30 5 C -0.0312009 -0.529786 -1.79948 0
M  V30 6 C -1.3979 -0.490242 -1.60758 0
M  V30 7 C -1.63611 -0.413563 -0.253927 0
M  V30 8 O -0.482975 -0.407612 0.327994 0
M  V30 9 C -3.0147 -0.352927 0.332066 0
M  V30 10 C -3.48167 1.07631 0.46905 0
M  V30 11 N 2.19823 -1.41518 0.861695 0
M  V30 12 H 4.0383 1.82964 0.941202 0
M  V30 13 H 4.17472 0.0928092 0.889235 0
M  V30 14 H 1.78659 1.29676 1.00759 0
M  V30 15 H 2.21768 1.55845 -0.740471 0
M  V30 16 H 2.53978 -0.800728 -1.10446 0
M  V30 17 H 0.52486 -0.591005 -2.73159 0
M  V30 18 H -2.09835 -0.518556 -2.42846 0
M  V30 19 H -3.74924 -0.891379 -0.32891 0
M  V30 20 H -3.06653 -0.874087 1.3123 0
M  V30 21 H -2.62363 1.76674 0.482324 0
M  V30 22 H -4.10494 1.33296 -0.431762 0
M  V30 23 H -4.12746 1.23284 1.36415 0
M  V30 24 H 2.22836 -2.37543 0.416776 0
M  V30 25 H 1.41857 -1.42864 1.55486 0
M  V30 END ATOM
M  V30 BEGIN BOND
M  V30 1 1 1 2
M  V30 2 1 2 3
M  V30 3 1 3 4
M  V30 4 2 4 5
M  V30 5 1 5 6
M  V30 6 2 6 7
M  V30 7 1 7 8
M  V30 8 1 7 9
M  V30 9 1 9 10
M  V30 10 1 3 11
M  V30 11 1 8 4
M  V30 12 1 1 12
M  V30 13 1 1 13
M  V30 14 1 2 14
M  V30 15 1 2 15
M  V30 16 1 3 16
M  V30 17 1 5 17
M  V30 18 1 6 18
M  V30 19 1 9 19
M  V30 20 1 9 20
M  V30 21 1 10 21
M  V30 22 1 10 22
M  V30 23 1 10 23
M  V30 24 1 11 24
M  V30 25 1 11 25
M  V30 END BOND
M  V30 END CTAB
M  END
