
     RDKit          3D

  0  0  0  0  0  0  0  0  0  0999 V3000
M  V30 BEGIN CTAB
M  V30 COUNTS 40 43 0 0 0
M  V30 BEGIN ATOM
M  V30 1 N -6.52097 0.884654 0.382014 0
M  V30 2 C -5.38122 1.08417 0.378893 0
M  V30 3 C -3.9502 1.3704 0.358477 0
M  V30 4 C -3.60858 2.67605 0.444736 0
M  V30 5 N -4.57422 3.72279 0.574658 0
M  V30 6 N -2.3053 2.96929 0.404023 0
M  V30 7 C -1.40122 1.98415 0.284778 0
M  V30 8 C -1.65453 0.635314 0.192815 0
M  V30 9 C -3.01461 0.335195 0.231271 0
M  V30 10 C -3.59824 -1.00711 0.194948 0
M  V30 11 C -3.47528 -2.02381 -0.706759 0
M  V30 12 C -4.24214 -3.11158 -0.544044 0
M  V30 13 C -5.10251 -3.13401 0.514889 0
M  V30 14 S -4.81753 -1.63007 1.25964 0
M  V30 15 C -0.584813 -0.175111 0.118007 0
M  V30 16 N -0.572516 -1.6329 0.0946175 0
M  V30 17 C 0.647701 0.413693 0.132375 0
M  V30 18 S 0.317757 2.06394 0.252576 0
M  V30 19 C 1.99755 -0.199597 0.061789 0
M  V30 20 O 2.13647 -1.42215 -0.0258396 0
M  V30 21 N 3.11216 0.659987 0.0983241 0
M  V30 22 C 4.46069 0.313248 0.0405026 0
M  V30 23 C 4.90748 -0.912 -0.35826 0
M  V30 24 C 6.28028 -1.17697 -0.364392 0
M  V30 25 C 7.19919 -0.238752 0.0195374 0
M  V30 26 C 6.76771 0.984084 0.417801 0
M  V30 27 C 5.42809 1.25156 0.427161 0
M  V30 28 Cl 8.91706 -0.630288 -0.00875313 0
M  V30 29 H -5.53876 3.49621 0.904026 0
M  V30 30 H -4.36621 4.71138 0.356188 0
M  V30 31 H -2.7762 -1.90734 -1.58074 0
M  V30 32 H -4.19097 -3.97811 -1.24149 0
M  V30 33 H -5.80308 -3.94884 0.794029 0
M  V30 34 H -0.32948 -2.15724 -0.756419 0
M  V30 35 H -0.824576 -2.09877 0.991722 0
M  V30 36 H 2.92612 1.71729 0.175675 0
M  V30 37 H 4.28241 -1.71858 -0.690414 0
M  V30 38 H 6.62619 -2.16961 -0.687971 0
M  V30 39 H 7.50054 1.74299 0.727446 0
M  V30 40 H 5.12578 2.25643 0.757865 0
M  V30 END ATOM
M  V30 BEGIN BOND
M  V30 1 3 1 2
M  V30 2 1 2 3
M  V30 3 2 3 4
M  V30 4 1 4 5
M  V30 5 1 4 6
M  V30 6 2 6 7
M  V30 7 1 7 8
M  V30 8 2 8 9
M  V30 9 1 9 10
M  V30 10 2 10 11
M  V30 11 1 11 12
M  V30 12 2 12 13
M  V30 13 1 13 14
M  V30 14 1 8 15
M  V30 15 1 15 16
M  V30 16 2 15 17
M  V30 17 1 17 18
M  V30 18 1 17 19
M  V30 19 2 19 20
M  V30 20 1 19 21
M  V30 21 1 21 22
M  V30 22 2 22 23
M  V30 23 1 23 24
M  V30 24 2 24 25
M  V30 25 1 25 26
M  V30 26 2 26 27
M  V30 27 1 25 28
M  V30 28 1 9 3
M  V30 29 1 14 10
M  V30 30 1 27 22
M  V30 31 1 18 7
M  V30 32 1 5 29
M  V30 33 1 5 30
M  V30 34 1 11 31
M  V30 35 1 12 32
M  V30 36 1 13 33
M  V30 37 1 16 34
M  V30 38 1 16 35
M  V30 39 1 21 36
M  V30 40 1 23 37
M  V30 41 1 24 38
M  V30 42 1 26 39
M  V30 43 1 27 40
M  V30 END BOND
M  V30 END CTAB
M  END
