
     RDKit          3D

  0  0  0  0  0  0  0  0  0  0999 V3000
M  V30 BEGIN CTAB
M  V30 COUNTS 30 30 0 0 0
M  V30 BEGIN ATOM
M  V30 1 N -1.59741 2.39239 0.170569 0
M  V30 2 C -2.22971 1.12139 -0.0884763 0
M  V30 3 C -1.31745 0.0420207 0.521577 0
M  V30 4 N -0.0620788 0.0194631 -0.000482093 0
M  V30 5 C 1.08162 -0.136255 0.810213 0
M  V30 6 C 2.23689 0.419356 -0.0326224 0
M  V30 7 C 2.19064 -0.388472 -1.31159 0
M  V30 8 S 0.385838 -0.449196 -1.51768 0
M  V30 9 O -0.00185111 -1.77899 -2.02191 0
M  V30 10 O 0.0709268 0.562626 -2.60826 0
M  V30 11 C 3.54642 0.2626 0.692209 0
M  V30 12 C -2.09048 -1.24079 0.704011 0
M  V30 13 N -2.58085 -1.67048 -0.588206 0
M  V30 14 H -1.18037 2.39007 1.12803 0
M  V30 15 H -2.29597 3.191 0.150127 0
M  V30 16 H -3.15893 1.09848 0.552226 0
M  V30 17 H -2.42788 0.931566 -1.14086 0
M  V30 18 H -1.21666 0.431141 1.60317 0
M  V30 19 H 1.0614 0.362808 1.78156 0
M  V30 20 H 1.32923 -1.22763 0.937693 0
M  V30 21 H 2.04603 1.47853 -0.317399 0
M  V30 22 H 2.56057 -1.3959 -1.09897 0
M  V30 23 H 2.66483 0.112717 -2.15472 0
M  V30 24 H 3.3103 -0.0202828 1.74803 0
M  V30 25 H 4.1754 -0.540899 0.27703 0
M  V30 26 H 4.05404 1.24832 0.737336 0
M  V30 27 H -3.00889 -1.06205 1.33139 0
M  V30 28 H -1.52524 -2.01498 1.22502 0
M  V30 29 H -3.58033 -1.44145 -0.747367 0
M  V30 30 H -2.44002 -2.69712 -0.741643 0
M  V30 END ATOM
M  V30 BEGIN BOND
M  V30 1 1 1 2
M  V30 2 1 2 3
M  V30 3 1 3 4
M  V30 4 1 4 5
M  V30 5 1 5 6
M  V30 6 1 6 7
M  V30 7 1 7 8
M  V30 8 2 8 9
M  V30 9 2 8 10
M  V30 10 1 6 11
M  V30 11 1 3 12
M  V30 12 1 12 13
M  V30 13 1 8 4
M  V30 14 1 1 14
M  V30 15 1 1 15
M  V30 16 1 2 16
M  V30 17 1 2 17
M  V30 18 1 3 18
M  V30 19 1 5 19
M  V30 20 1 5 20
M  V30 21 1 6 21
M  V30 22 1 7 22
M  V30 23 1 7 23
M  V30 24 1 11 24
M  V30 25 1 11 25
M  V30 26 1 11 26
M  V30 27 1 12 27
M  V30 28 1 12 28
M  V30 29 1 13 29
M  V30 30 1 13 30
M  V30 END BOND
M  V30 END CTAB
M  END
