
     RDKit          3D

  0  0  0  0  0  0  0  0  0  0999 V3000
M  V30 BEGIN CTAB
M  V30 COUNTS 43 43 0 0 0
M  V30 BEGIN ATOM
M  V30 1 N 6.55099 -1.11849 -0.0884135 0
M  V30 2 C 6.36767 0.319604 -0.0361588 0
M  V30 3 C 5.53995 0.684872 1.20467 0
M  V30 4 C 4.23578 0.00617474 1.09095 0
M  V30 5 N 3.40802 0.282998 -0.0160878 0
M  V30 6 C 2.82525 1.47294 -0.436841 0
M  V30 7 O 3.00918 2.53084 0.209819 0
M  V30 8 C 1.97689 1.57616 -1.63537 0
M  V30 9 S 1.63143 0.0338752 -2.46618 0
M  V30 10 C 0.584845 -1.09159 -1.54541 0
M  V30 11 C -0.822531 -0.551842 -1.36899 0
M  V30 12 O -1.62696 -1.45607 -0.638229 0
M  V30 13 C -2.94619 -1.07129 -0.405873 0
M  V30 14 C -3.47121 0.115265 -0.848393 0
M  V30 15 C -4.767 0.521465 -0.634517 0
M  V30 16 C -5.58121 -0.335228 0.0755522 0
M  V30 17 C -5.07879 -1.55199 0.540974 0
M  V30 18 C -3.77241 -1.9275 0.307714 0
M  V30 19 S -7.23441 0.137217 0.373133 0
M  V30 20 O -8.10846 -1.09347 0.486912 0
M  V30 21 O -7.77661 1.0073 -0.736296 0
M  V30 22 N -7.27479 1.01108 1.8565 0
M  V30 23 F 6.29336 0.153693 2.27112 0
M  V30 24 F 5.57171 2.02134 1.33929 0
M  V30 25 H 7.01016 -1.38062 -0.968113 0
M  V30 26 H 7.03264 -1.44612 0.771855 0
M  V30 27 H 7.328 0.852756 -0.0452613 0
M  V30 28 H 5.77758 0.649198 -0.914771 0
M  V30 29 H 3.63929 0.31889 2.01088 0
M  V30 30 H 4.32233 -1.10037 1.2294 0
M  V30 31 H 3.19962 -0.563269 -0.645578 0
M  V30 32 H 1.05666 2.17888 -1.42517 0
M  V30 33 H 2.54919 2.21635 -2.36878 0
M  V30 34 H 0.477043 -2.0186 -2.16383 0
M  V30 35 H 0.9712 -1.31893 -0.55399 0
M  V30 36 H -1.30933 -0.426155 -2.37939 0
M  V30 37 H -0.838055 0.434512 -0.883699 0
M  V30 38 H -2.82783 0.782975 -1.40423 0
M  V30 39 H -5.17286 1.45931 -0.987304 0
M  V30 40 H -5.75351 -2.18213 1.08864 0
M  V30 41 H -3.38162 -2.86518 0.664524 0
M  V30 42 H -7.13729 2.03586 1.6632 0
M  V30 43 H -6.47772 0.695298 2.45021 0
M  V30 END ATOM
M  V30 BEGIN BOND
M  V30 1 1 1 2
M  V30 2 1 2 3
M  V30 3 1 3 4
M  V30 4 1 4 5
M  V30 5 1 5 6
M  V30 6 2 6 7
M  V30 7 1 6 8
M  V30 8 1 8 9
M  V30 9 1 9 10
M  V30 10 1 10 11
M  V30 11 1 11 12
M  V30 12 1 12 13
M  V30 13 2 13 14
M  V30 14 1 14 15
M  V30 15 2 15 16
M  V30 16 1 16 17
M  V30 17 2 17 18
M  V30 18 1 16 19
M  V30 19 2 19 20
M  V30 20 2 19 21
M  V30 21 1 19 22
M  V30 22 1 3 23
M  V30 23 1 3 24
M  V30 24 1 18 13
M  V30 25 1 1 25
M  V30 26 1 1 26
M  V30 27 1 2 27
M  V30 28 1 2 28
M  V30 29 1 4 29
M  V30 30 1 4 30
M  V30 31 1 5 31
M  V30 32 1 8 32
M  V30 33 1 8 33
M  V30 34 1 10 34
M  V30 35 1 10 35
M  V30 36 1 11 36
M  V30 37 1 11 37
M  V30 38 1 14 38
M  V30 39 1 15 39
M  V30 40 1 17 40
M  V30 41 1 18 41
M  V30 42 1 22 42
M  V30 43 1 22 43
M  V30 END BOND
M  V30 END CTAB
M  END
