
     RDKit          3D

  0  0  0  0  0  0  0  0  0  0999 V3000
M  V30 BEGIN CTAB
M  V30 COUNTS 32 33 0 0 0
M  V30 BEGIN ATOM
M  V30 1 O -0.0152213 -0.399685 0.905487 0
M  V30 2 C 0.0259921 0.0287976 -0.257511 0
M  V30 3 N -1.16443 0.336221 -0.937929 0
M  V30 4 C -2.48968 0.228987 -0.491728 0
M  V30 5 C -2.91351 -0.395903 0.652703 0
M  V30 6 C -4.2709 -0.433425 1.02012 0
M  V30 7 C -5.24299 0.154786 0.249617 0
M  V30 8 C -4.83144 0.78423 -0.900474 0
M  V30 9 C -3.50495 0.81889 -1.2558 0
M  V30 10 Cl -6.05311 1.5428 -1.90182 0
M  V30 11 N -6.59947 0.100849 0.644501 0
M  V30 12 N 1.26201 0.219017 -0.927376 0
M  V30 13 C 2.5589 -0.0204131 -0.460147 0
M  V30 14 C 2.80184 -0.761966 0.648711 0
M  V30 15 C 4.12129 -0.946196 1.0736 0
M  V30 16 C 5.19466 -0.400194 0.404919 0
M  V30 17 C 4.92087 0.345538 -0.714558 0
M  V30 18 C 3.64138 0.541592 -1.15154 0
M  V30 19 Cl 6.2761 1.05594 -1.59005 0
M  V30 20 N 6.50166 -0.636413 0.904129 0
M  V30 21 H -1.0191 0.697777 -1.93867 0
M  V30 22 H -2.20993 -0.88391 1.29923 0
M  V30 23 H -4.57338 -0.935918 1.93239 0
M  V30 24 H -3.20114 1.32836 -2.17818 0
M  V30 25 H -7.09203 -0.792282 0.908644 0
M  V30 26 H -7.18967 0.959475 0.69437 0
M  V30 27 H 1.21697 0.59356 -1.93627 0
M  V30 28 H 2.06305 -1.25564 1.26155 0
M  V30 29 H 4.31073 -1.54478 1.96861 0
M  V30 30 H 3.48088 1.12816 -2.02497 0
M  V30 31 H 6.75172 -0.433867 1.88243 0
M  V30 32 H 7.2429 -1.02438 0.282183 0
M  V30 END ATOM
M  V30 BEGIN BOND
M  V30 1 2 1 2
M  V30 2 1 2 3
M  V30 3 1 3 4
M  V30 4 2 4 5
M  V30 5 1 5 6
M  V30 6 2 6 7
M  V30 7 1 7 8
M  V30 8 2 8 9
M  V30 9 1 8 10
M  V30 10 1 7 11
M  V30 11 1 2 12
M  V30 12 1 12 13
M  V30 13 2 13 14
M  V30 14 1 14 15
M  V30 15 2 15 16
M  V30 16 1 16 17
M  V30 17 2 17 18
M  V30 18 1 17 19
M  V30 19 1 16 20
M  V30 20 1 9 4
M  V30 21 1 18 13
M  V30 22 1 3 21
M  V30 23 1 5 22
M  V30 24 1 6 23
M  V30 25 1 9 24
M  V30 26 1 11 25
M  V30 27 1 11 26
M  V30 28 1 12 27
M  V30 29 1 14 28
M  V30 30 1 15 29
M  V30 31 1 18 30
M  V30 32 1 20 31
M  V30 33 1 20 32
M  V30 END BOND
M  V30 END CTAB
M  END
