
     RDKit          3D

  0  0  0  0  0  0  0  0  0  0999 V3000
M  V30 BEGIN CTAB
M  V30 COUNTS 50 52 0 0 0
M  V30 BEGIN ATOM
M  V30 1 N -5.17497 2.82592 1.16012 0
M  V30 2 C -4.191 1.78049 0.967202 0
M  V30 3 C -4.47646 1.04051 -0.322896 0
M  V30 4 C -5.87736 0.435996 -0.198227 0
M  V30 5 C -5.67907 -1.00179 0.233539 0
M  V30 6 C -4.17443 -1.15555 0.462083 0
M  V30 7 C -3.6321 -0.159022 -0.536292 0
M  V30 8 N -2.21226 0.0314055 -0.354531 0
M  V30 9 C -1.28427 -0.317972 -1.32755 0
M  V30 10 O -1.74708 -0.826456 -2.41322 0
M  V30 11 C 0.163909 -0.15638 -1.22209 0
M  V30 12 C 0.888374 -0.664252 -2.45715 0
M  V30 13 C 2.04557 -1.399 -1.88175 0
M  V30 14 O 2.82102 -2.2093 -2.48992 0
M  V30 15 N 2.17542 -1.05723 -0.489908 0
M  V30 16 C 0.807827 -0.804771 -0.0397827 0
M  V30 17 C 3.39949 -0.994798 0.239034 0
M  V30 18 C 3.5805 -1.74269 1.40593 0
M  V30 19 C 4.78333 -1.67285 2.09886 0
M  V30 20 C 5.82305 -0.879139 1.67098 0
M  V30 21 C 5.64563 -0.137217 0.515538 0
M  V30 22 C 4.46518 -0.218732 -0.14635 0
M  V30 23 S 6.92301 0.907119 -0.106932 0
M  V30 24 O 8.23542 0.294539 0.228244 0
M  V30 25 O 6.74441 0.94908 -1.60972 0
M  V30 26 N 6.69599 2.45029 0.600751 0
M  V30 27 H -5.93007 2.57806 1.80595 0
M  V30 28 H -4.73801 3.72649 1.46562 0
M  V30 29 H -3.14333 2.15706 0.990897 0
M  V30 30 H -4.28727 1.10926 1.84807 0
M  V30 31 H -4.43988 1.71922 -1.20119 0
M  V30 32 H -6.51518 1.00394 0.482493 0
M  V30 33 H -6.31834 0.405023 -1.23894 0
M  V30 34 H -5.9192 -1.72071 -0.596995 0
M  V30 35 H -6.25495 -1.2275 1.14122 0
M  V30 36 H -3.84524 -2.18832 0.219378 0
M  V30 37 H -3.92096 -0.852099 1.48381 0
M  V30 38 H -3.87575 -0.571142 -1.53797 0
M  V30 39 H -1.86826 0.445038 0.541412 0
M  V30 40 H 0.413878 0.944523 -1.15356 0
M  V30 41 H 0.293462 -1.37802 -3.03588 0
M  V30 42 H 1.30355 0.164056 -3.06679 0
M  V30 43 H 0.911253 -0.147181 0.848313 0
M  V30 44 H 0.30492 -1.74084 0.290621 0
M  V30 45 H 2.78449 -2.3775 1.77244 0
M  V30 46 H 4.92936 -2.25997 3.01925 0
M  V30 47 H 6.75985 -0.808768 2.18643 0
M  V30 48 H 4.30071 0.364615 -1.07067 0
M  V30 49 H 6.2516 2.32984 1.53191 0
M  V30 50 H 6.05423 3.00673 -0.00686528 0
M  V30 END ATOM
M  V30 BEGIN BOND
M  V30 1 1 1 2
M  V30 2 1 2 3
M  V30 3 1 3 4
M  V30 4 1 4 5
M  V30 5 1 5 6
M  V30 6 1 6 7
M  V30 7 1 7 8
M  V30 8 1 8 9
M  V30 9 2 9 10
M  V30 10 1 9 11
M  V30 11 1 11 12
M  V30 12 1 12 13
M  V30 13 2 13 14
M  V30 14 1 13 15
M  V30 15 1 15 16
M  V30 16 1 15 17
M  V30 17 2 17 18
M  V30 18 1 18 19
M  V30 19 2 19 20
M  V30 20 1 20 21
M  V30 21 2 21 22
M  V30 22 1 21 23
M  V30 23 2 23 24
M  V30 24 2 23 25
M  V30 25 1 23 26
M  V30 26 1 7 3
M  V30 27 1 16 11
M  V30 28 1 22 17
M  V30 29 1 1 27
M  V30 30 1 1 28
M  V30 31 1 2 29
M  V30 32 1 2 30
M  V30 33 1 3 31
M  V30 34 1 4 32
M  V30 35 1 4 33
M  V30 36 1 5 34
M  V30 37 1 5 35
M  V30 38 1 6 36
M  V30 39 1 6 37
M  V30 40 1 7 38
M  V30 41 1 8 39
M  V30 42 1 11 40
M  V30 43 1 12 41
M  V30 44 1 12 42
M  V30 45 1 16 43
M  V30 46 1 16 44
M  V30 47 1 18 45
M  V30 48 1 19 46
M  V30 49 1 20 47
M  V30 50 1 22 48
M  V30 51 1 26 49
M  V30 52 1 26 50
M  V30 END BOND
M  V30 END CTAB
M  END
