
     RDKit          3D

  0  0  0  0  0  0  0  0  0  0999 V3000
M  V30 BEGIN CTAB
M  V30 COUNTS 14 14 0 0 0
M  V30 BEGIN ATOM
M  V30 1 N 2.95984 0.196027 -0.0921021 0
M  V30 2 C 1.53636 0.11404 -0.0473092 0
M  V30 3 N 0.977889 -1.08009 0.215229 0
M  V30 4 C -0.350888 -1.20607 0.267478 0
M  V30 5 C -1.16403 -0.118542 0.0539331 0
M  V30 6 C -0.555374 1.07165 -0.208745 0
M  V30 7 N 0.774031 1.19375 -0.260189 0
M  V30 8 Cl -1.59752 2.46783 -0.482921 0
M  V30 9 N -2.57275 -0.262731 0.111547 0
M  V30 10 H 3.41474 0.239708 -1.01551 0
M  V30 11 H 3.5378 0.212573 0.760488 0
M  V30 12 H -0.791008 -2.19414 0.484286 0
M  V30 13 H -3.0846 -0.251436 0.993739 0
M  V30 14 H -3.08449 -0.382573 -0.77992 0
M  V30 END ATOM
M  V30 BEGIN BOND
M  V30 1 1 1 2
M  V30 2 2 2 3
M  V30 3 1 3 4
M  V30 4 2 4 5
M  V30 5 1 5 6
M  V30 6 2 6 7
M  V30 7 1 6 8
M  V30 8 1 5 9
M  V30 9 1 7 2
M  V30 10 1 1 10
M  V30 11 1 1 11
M  V30 12 1 4 12
M  V30 13 1 9 13
M  V30 14 1 9 14
M  V30 END BOND
M  V30 END CTAB
M  END
