
     RDKit          3D

  0  0  0  0  0  0  0  0  0  0999 V3000
M  V30 BEGIN CTAB
M  V30 COUNTS 23 24 0 0 0
M  V30 BEGIN ATOM
M  V30 1 N 5.42358 -0.266211 0.974106 0
M  V30 2 C 4.04813 -0.0989828 0.656275 0
M  V30 3 N 3.19263 0.794132 1.14941 0
M  V30 4 N 1.99793 0.808249 0.758512 0
M  V30 5 C 1.56768 -0.056996 -0.144214 0
M  V30 6 S 3.03091 -0.946931 -0.429432 0
M  V30 7 C 0.250536 -0.262293 -0.766558 0
M  V30 8 O 0.250903 -0.728382 -1.9628 0
M  V30 9 C -1.01032 0.0166306 -0.140962 0
M  V30 10 C -1.14424 0.49809 1.14296 0
M  V30 11 C -2.4125 0.739499 1.68615 0
M  V30 12 C -3.55365 0.502678 0.954064 0
M  V30 13 C -3.44354 0.0208356 -0.332343 0
M  V30 14 C -2.19478 -0.21289 -0.856763 0
M  V30 15 N -2.08209 -0.712043 -2.18993 0
M  V30 16 H 5.79993 -1.19611 1.20512 0
M  V30 17 H 6.0369 0.561448 0.968844 0
M  V30 18 H -0.288964 0.693916 1.75259 0
M  V30 19 H -2.5344 1.11957 2.69797 0
M  V30 20 H -4.52321 0.702123 1.40933 0
M  V30 21 H -4.33502 -0.163222 -0.901503 0
M  V30 22 H -2.05108 -0.0763693 -3.02009 0
M  V30 23 H -2.02533 -1.73673 -2.39786 0
M  V30 END ATOM
M  V30 BEGIN BOND
M  V30 1 1 1 2
M  V30 2 2 2 3
M  V30 3 1 3 4
M  V30 4 2 4 5
M  V30 5 1 5 6
M  V30 6 1 5 7
M  V30 7 2 7 8
M  V30 8 1 7 9
M  V30 9 2 9 10
M  V30 10 1 10 11
M  V30 11 2 11 12
M  V30 12 1 12 13
M  V30 13 2 13 14
M  V30 14 1 14 15
M  V30 15 1 6 2
M  V30 16 1 14 9
M  V30 17 1 1 16
M  V30 18 1 1 17
M  V30 19 1 10 18
M  V30 20 1 11 19
M  V30 21 1 12 20
M  V30 22 1 13 21
M  V30 23 1 15 22
M  V30 24 1 15 23
M  V30 END BOND
M  V30 END CTAB
M  END
