
     RDKit          3D

  0  0  0  0  0  0  0  0  0  0999 V3000
M  V30 BEGIN CTAB
M  V30 COUNTS 140 143 0 0 0
M  V30 BEGIN ATOM
M  V30 1 C 2.73589 -3.97445 -4.26558 0
M  V30 2 C 2.87651 -2.94495 -3.12375 0
M  V30 3 C 1.53939 -2.53312 -2.61048 0 CFG=2
M  V30 4 C 0.800909 -1.88346 -3.74038 0
M  V30 5 C 1.41725 -2.02135 -1.23747 0 CFG=2
M  V30 6 N 0.108183 -1.6397 -0.855974 0
M  V30 7 C -1.154 -1.27121 -0.495544 0
M  V30 8 O -2.0874 -0.94402 -1.2457 0
M  V30 9 C -1.51731 -1.22779 0.988805 0 CFG=2
M  V30 10 C -1.32148 -2.56498 1.64524 0
M  V30 11 C -2.12028 -3.67359 1.1454 0
M  V30 12 C -1.67314 -4.49242 0.1313 0
M  V30 13 C -2.49044 -5.55233 -0.28866 0
M  V30 14 C -3.70928 -5.78782 0.275271 0
M  V30 15 O -4.52229 -6.85066 -0.139025 0
M  V30 16 C -4.16657 -4.96792 1.29353 0
M  V30 17 C -3.35315 -3.9309 1.69792 0
M  V30 18 N -2.71146 -0.580203 1.31887 0
M  V30 19 C -4.01616 -0.503996 0.847476 0
M  V30 20 O -4.47491 -1.09746 -0.130304 0
M  V30 21 C -4.96367 0.371471 1.59727 0 CFG=2
M  V30 22 C -4.78744 0.139471 3.09142 0
M  V30 23 N -6.3298 0.260642 1.27802 0
M  V30 24 C -7.22409 1.35714 1.17643 0
M  V30 25 O -6.72513 2.52528 1.36407 0
M  V30 26 C -8.66261 1.28325 0.891156 0 CFG=2
M  V30 27 C -8.86769 0.589478 -0.441795 0
M  V30 28 C -10.3091 0.367228 -0.791606 0
M  V30 29 C -10.9572 -0.608311 0.193352 0
M  V30 30 N -12.3804 -0.787841 -0.105121 0
M  V30 31 C -13.2961 0.291165 0.14443 0
M  V30 32 N -13.616 0.565139 1.5072 0
M  V30 33 N -13.8269 1.00024 -0.771652 0
M  V30 34 N -9.2419 2.58521 0.987575 0
M  V30 35 C -9.53814 3.53347 -0.0224149 0
M  V30 36 O -9.27097 3.29664 -1.20368 0
M  V30 37 C -10.1894 4.82182 0.393175 0 CFG=1
M  V30 38 N -10.0363 5.0829 1.78367 0
M  V30 39 C -9.92072 5.94755 -0.530322 0
M  V30 40 C -10.4261 5.81542 -1.90071 0
M  V30 41 O -10.0451 6.78514 -2.86519 0
M  V30 42 O -11.1709 4.92465 -2.30703 0
M  V30 43 C 2.48075 -1.17135 -0.68649 0
M  V30 44 O 2.26951 0.0694961 -0.599604 0
M  V30 45 N 3.71127 -1.66047 -0.238143 0
M  V30 46 C 4.84121 -0.907657 0.354924 0 CFG=1
M  V30 47 C 4.94946 -1.22859 1.75641 0
M  V30 48 C 5.88776 -0.568023 2.64142 0
M  V30 49 C 7.07941 -0.918711 3.15227 0
M  V30 50 N 7.58747 0.0652186 3.89655 0
M  V30 51 C 6.68845 1.05923 3.84873 0
M  V30 52 N 5.65281 0.710516 3.10186 0
M  V30 53 C 5.87821 -0.665316 -0.607181 0
M  V30 54 O 5.4106 0.0348589 -1.65428 0
M  V30 55 N 7.20562 -0.960491 -0.763086 0
M  V30 56 C 8.05803 -1.92732 -0.123762 0
M  V30 57 C 9.03996 -2.40081 -1.22345 0
M  V30 58 C 8.71326 -1.50807 -2.41494 0
M  V30 59 C 8.16345 -0.28462 -1.68142 0 CFG=2
M  V30 60 C 9.23773 0.333614 -0.85034 0
M  V30 61 O 8.96017 0.679222 0.319143 0
M  V30 62 N 10.5216 0.503612 -1.36459 0
M  V30 63 C 11.7186 0.966976 -0.779038 0 CFG=1
M  V30 64 C 12.0387 2.40056 -0.792059 0
M  V30 65 C 11.1196 3.32058 -0.130213 0
M  V30 66 C 11.2176 3.62733 1.18315 0
M  V30 67 C 10.3713 4.49994 1.81164 0
M  V30 68 C 9.36419 5.10281 1.08468 0
M  V30 69 C 9.23987 4.81019 -0.256123 0
M  V30 70 C 10.1045 3.92079 -0.873794 0
M  V30 71 C 12.0234 0.417796 0.57911 0
M  V30 72 O 13.2733 0.814578 1.11098 0
M  V30 73 O 11.3502 -0.323324 1.2777 0
M  V30 74 H 1.79705 -4.52933 -4.01535 0
M  V30 75 H 2.77058 -3.48274 -5.2141 0
M  V30 76 H 3.53883 -4.72591 -4.16992 0
M  V30 77 H 3.49796 -2.08952 -3.46894 0
M  V30 78 H 3.43549 -3.48661 -2.34501 0
M  V30 79 H 1.00172 -3.60769 -2.53065 0
M  V30 80 H 1.2339 -2.30086 -4.70263 0
M  V30 81 H 1.01066 -0.812517 -3.76503 0
M  V30 82 H -0.282543 -2.15581 -3.80635 0
M  V30 83 H 1.54073 -3.02517 -0.562061 0
M  V30 84 H -0.10798 -1.17008 -2.12298 0
M  V30 85 H -0.653893 -0.567524 1.37256 0
M  V30 86 H -1.43671 -2.38847 2.74269 0
M  V30 87 H -0.224475 -2.79582 1.50761 0
M  V30 88 H -0.728026 -4.40054 -0.376048 0
M  V30 89 H -2.15215 -6.21039 -1.08408 0
M  V30 90 H -5.18594 -6.73007 -0.871912 0
M  V30 91 H -5.12644 -5.15911 1.72705 0
M  V30 92 H -3.71393 -3.28836 2.49272 0
M  V30 93 H -2.58563 0.048101 2.22841 0
M  V30 94 H -4.66932 1.46516 1.4677 0
M  V30 95 H -4.64036 -0.931923 3.2606 0
M  V30 96 H -5.76697 0.423479 3.56956 0
M  V30 97 H -3.99483 0.806006 3.48713 0
M  V30 98 H -6.78053 -0.689421 1.08677 0
M  V30 99 H -9.1534 0.65879 1.69636 0
M  V30 100 H -8.36346 1.11895 -1.23947 0
M  V30 101 H -8.41903 -0.448489 -0.342368 0
M  V30 102 H -10.3436 -0.12339 -1.78261 0
M  V30 103 H -10.9465 1.23759 -0.849518 0
M  V30 104 H -10.5006 -1.60743 0.0749171 0
M  V30 105 H -10.8237 -0.310277 1.24551 0
M  V30 106 H -12.7728 -1.66574 -0.491223 0
M  V30 107 H -14.1033 -0.153942 2.09099 0
M  V30 108 H -13.3833 1.46806 1.98141 0
M  V30 109 H -14.4838 1.77403 -0.592473 0
M  V30 110 H -9.48249 2.90124 1.97556 0
M  V30 111 H -11.3113 4.58477 0.259263 0
M  V30 112 H -9.55328 5.95361 2.03711 0
M  V30 113 H -10.9153 4.9217 2.29175 0
M  V30 114 H -10.2937 6.92333 -0.140724 0
M  V30 115 H -8.80113 6.10852 -0.627026 0
M  V30 116 H -9.10445 6.89985 -3.15191 0
M  V30 117 H 3.85027 -2.73228 -0.314497 0
M  V30 118 H 4.30699 0.174961 0.394178 0
M  V30 119 H 5.05582 -2.36365 1.87795 0
M  V30 120 H 3.9075 -1.08611 2.21755 0
M  V30 121 H 7.5694 -1.89395 2.98398 0
M  V30 122 H 6.8353 2.01528 4.36193 0
M  V30 123 H 4.78187 1.29964 2.88097 0
M  V30 124 H 7.45579 -2.82015 0.233725 0
M  V30 125 H 8.68546 -1.5818 0.677929 0
M  V30 126 H 8.81397 -3.46151 -1.40827 0
M  V30 127 H 10.0917 -2.29839 -0.926688 0
M  V30 128 H 7.84749 -2.02608 -2.90582 0
M  V30 129 H 9.56839 -1.32702 -3.02564 0
M  V30 130 H 7.68637 0.40337 -2.30796 0
M  V30 131 H 10.611 0.238906 -2.40978 0
M  V30 132 H 12.5642 0.456059 -1.38846 0
M  V30 133 H 12.265 2.72849 -1.85956 0
M  V30 134 H 13.0594 2.53181 -0.302706 0
M  V30 135 H 12.0049 3.18647 1.8357 0
M  V30 136 H 10.5082 4.7025 2.88287 0
M  V30 137 H 8.70365 5.79468 1.61138 0
M  V30 138 H 8.44902 5.29749 -0.813578 0
M  V30 139 H 9.98754 3.71664 -1.92154 0
M  V30 140 H 13.836 0.0912187 1.52379 0
M  V30 END ATOM
M  V30 BEGIN BOND
M  V30 1 1 1 2
M  V30 2 1 2 3
M  V30 3 1 3 4
M  V30 4 1 3 5
M  V30 5 1 5 6
M  V30 6 1 6 7
M  V30 7 2 7 8
M  V30 8 1 7 9
M  V30 9 1 9 10
M  V30 10 1 10 11
M  V30 11 2 11 12
M  V30 12 1 12 13
M  V30 13 2 13 14
M  V30 14 1 14 15
M  V30 15 1 14 16
M  V30 16 2 16 17
M  V30 17 1 9 18
M  V30 18 1 18 19
M  V30 19 2 19 20
M  V30 20 1 19 21
M  V30 21 1 21 22
M  V30 22 1 21 23
M  V30 23 1 23 24
M  V30 24 2 24 25
M  V30 25 1 24 26
M  V30 26 1 26 27
M  V30 27 1 27 28
M  V30 28 1 28 29
M  V30 29 1 29 30
M  V30 30 1 30 31
M  V30 31 1 31 32
M  V30 32 2 31 33 CFG=2
M  V30 33 1 26 34
M  V30 34 1 34 35
M  V30 35 2 35 36
M  V30 36 1 35 37
M  V30 37 1 37 38
M  V30 38 1 37 39
M  V30 39 1 39 40
M  V30 40 1 40 41
M  V30 41 2 40 42
M  V30 42 1 5 43
M  V30 43 2 43 44
M  V30 44 1 43 45
M  V30 45 1 45 46
M  V30 46 1 46 47
M  V30 47 1 47 48
M  V30 48 2 48 49
M  V30 49 1 49 50
M  V30 50 2 50 51
M  V30 51 1 51 52
M  V30 52 1 46 53
M  V30 53 2 53 54
M  V30 54 1 53 55
M  V30 55 1 55 56
M  V30 56 1 56 57
M  V30 57 1 57 58
M  V30 58 1 58 59
M  V30 59 1 59 60
M  V30 60 2 60 61
M  V30 61 1 60 62
M  V30 62 1 62 63
M  V30 63 1 63 64
M  V30 64 1 64 65
M  V30 65 2 65 66
M  V30 66 1 66 67
M  V30 67 2 67 68
M  V30 68 1 68 69
M  V30 69 2 69 70
M  V30 70 1 63 71
M  V30 71 1 71 72
M  V30 72 2 71 73
M  V30 73 1 17 11
M  V30 74 1 52 48
M  V30 75 1 59 55
M  V30 76 1 70 65
M  V30 77 1 1 74
M  V30 78 1 1 75
M  V30 79 1 1 76
M  V30 80 1 2 77
M  V30 81 1 2 78
M  V30 82 1 3 79 CFG=1
M  V30 83 1 4 80
M  V30 84 1 4 81
M  V30 85 1 4 82
M  V30 86 1 5 83 CFG=1
M  V30 87 1 6 84
M  V30 88 1 9 85 CFG=1
M  V30 89 1 10 86
M  V30 90 1 10 87
M  V30 91 1 12 88
M  V30 92 1 13 89
M  V30 93 1 15 90
M  V30 94 1 16 91
M  V30 95 1 17 92
M  V30 96 1 18 93
M  V30 97 1 21 94 CFG=1
M  V30 98 1 22 95
M  V30 99 1 22 96
M  V30 100 1 22 97
M  V30 101 1 23 98
M  V30 102 1 26 99 CFG=1
M  V30 103 1 27 100
M  V30 104 1 27 101
M  V30 105 1 28 102
M  V30 106 1 28 103
M  V30 107 1 29 104
M  V30 108 1 29 105
M  V30 109 1 30 106
M  V30 110 1 32 107
M  V30 111 1 32 108
M  V30 112 1 33 109
M  V30 113 1 34 110
M  V30 114 1 37 111 CFG=1
M  V30 115 1 38 112
M  V30 116 1 38 113
M  V30 117 1 39 114
M  V30 118 1 39 115
M  V30 119 1 41 116
M  V30 120 1 45 117
M  V30 121 1 46 118 CFG=1
M  V30 122 1 47 119
M  V30 123 1 47 120
M  V30 124 1 49 121
M  V30 125 1 51 122
M  V30 126 1 52 123
M  V30 127 1 56 124
M  V30 128 1 56 125
M  V30 129 1 57 126
M  V30 130 1 57 127
M  V30 131 1 58 128
M  V30 132 1 58 129
M  V30 133 1 59 130 CFG=3
M  V30 134 1 62 131
M  V30 135 1 63 132 CFG=3
M  V30 136 1 64 133
M  V30 137 1 64 134
M  V30 138 1 66 135
M  V30 139 1 67 136
M  V30 140 1 68 137
M  V30 141 1 69 138
M  V30 142 1 70 139
M  V30 143 1 72 140
M  V30 END BOND
M  V30 END CTAB
M  END
