
     RDKit          3D

  0  0  0  0  0  0  0  0  0  0999 V3000
M  V30 BEGIN CTAB
M  V30 COUNTS 58 61 0 0 0
M  V30 BEGIN ATOM
M  V30 1 N -2.05714 4.58732 0.583809 0
M  V30 2 C -1.65099 3.55387 0.281234 0
M  V30 3 C -1.1232 2.24772 -0.0981838 0
M  V30 4 C 0.162905 2.06271 0.0605409 0
M  V30 5 N 1.01755 3.08875 0.58122 0
M  V30 6 N 0.78891 0.841141 -0.271113 0
M  V30 7 C -0.0630541 -0.18343 -0.790666 0
M  V30 8 C -1.3547 -0.0221843 -0.95851 0
M  V30 9 C -2.02951 1.22649 -0.626093 0
M  V30 10 C -3.19415 1.05098 0.269087 0
M  V30 11 C -3.02179 0.557063 1.52597 0
M  V30 12 C -4.11292 0.39866 2.34835 0
M  V30 13 C -5.3571 0.745854 1.87554 0
M  V30 14 C -5.57834 1.25019 0.608669 0
M  V30 15 C -4.44065 1.38821 -0.176239 0
M  V30 16 N -6.87638 1.60283 0.141224 0 CHG=1
M  V30 17 O -7.89629 1.4862 0.82536 0
M  V30 18 O -6.94739 2.09726 -1.15323 0 CHG=-1
M  V30 19 C -2.09578 -1.17361 -1.50762 0
M  V30 20 O -3.0076 -0.904695 -2.33753 0
M  V30 21 C -1.73527 -2.52388 -1.06478 0
M  V30 22 C -0.297004 -2.66125 -0.673372 0
M  V30 23 C 0.541556 -1.50526 -1.17493 0
M  V30 24 C 0.230754 -3.93605 -1.28784 0
M  V30 25 C -0.101363 -2.73844 0.829956 0
M  V30 26 C 2.17487 0.58826 -0.119824 0
M  V30 27 C 2.70554 0.0702255 1.0337 0
M  V30 28 C 4.05596 -0.149306 1.11015 0
M  V30 29 C 4.87704 0.143321 0.0478576 0
M  V30 30 C 4.37095 0.666413 -1.12781 0
M  V30 31 C 3.00061 0.878914 -1.17865 0
M  V30 32 S 6.59661 -0.148963 0.177924 0
M  V30 33 O 7.1007 -0.474593 -1.20099 0
M  V30 34 O 6.78657 -1.36028 1.0236 0
M  V30 35 N 7.43739 1.20674 0.788346 0
M  V30 36 H 1.33647 3.82168 -0.0557486 0
M  V30 37 H 1.30813 3.09482 1.57239 0
M  V30 38 H -2.38375 1.65138 -1.63009 0
M  V30 39 H -2.03221 0.292867 1.87011 0
M  V30 40 H -4.00473 0.000415326 3.37305 0
M  V30 41 H -6.23061 0.628854 2.50773 0
M  V30 42 H -4.57762 1.77913 -1.1708 0
M  V30 43 H -2.37672 -2.80105 -0.182591 0
M  V30 44 H -2.03155 -3.27204 -1.85751 0
M  V30 45 H 0.593468 -1.56173 -2.263 0
M  V30 46 H 1.56756 -1.54663 -0.769722 0
M  V30 47 H -0.0434855 -4.80619 -0.657698 0
M  V30 48 H -0.268088 -4.09546 -2.28317 0
M  V30 49 H 1.32619 -3.88813 -1.47139 0
M  V30 50 H -0.128873 -1.73375 1.28471 0
M  V30 51 H 0.935065 -3.13284 0.985139 0
M  V30 52 H -0.809303 -3.44655 1.2961 0
M  V30 53 H 2.01803 -0.14452 1.84444 0
M  V30 54 H 4.49023 -0.561724 2.02417 0
M  V30 55 H 5.00281 0.903528 -1.97632 0
M  V30 56 H 2.62992 1.29552 -2.12674 0
M  V30 57 H 6.84956 1.8664 1.32567 0
M  V30 58 H 7.92217 1.69884 -0.00388982 0
M  V30 END ATOM
M  V30 BEGIN BOND
M  V30 1 3 1 2
M  V30 2 1 2 3
M  V30 3 2 3 4
M  V30 4 1 4 5
M  V30 5 1 4 6
M  V30 6 1 6 7
M  V30 7 2 7 8
M  V30 8 1 8 9
M  V30 9 1 9 10
M  V30 10 2 10 11
M  V30 11 1 11 12
M  V30 12 2 12 13
M  V30 13 1 13 14
M  V30 14 2 14 15
M  V30 15 1 14 16
M  V30 16 2 16 17
M  V30 17 1 16 18
M  V30 18 1 8 19
M  V30 19 2 19 20
M  V30 20 1 19 21
M  V30 21 1 21 22
M  V30 22 1 22 23
M  V30 23 1 22 24
M  V30 24 1 22 25
M  V30 25 1 6 26
M  V30 26 2 26 27
M  V30 27 1 27 28
M  V30 28 2 28 29
M  V30 29 1 29 30
M  V30 30 2 30 31
M  V30 31 1 29 32
M  V30 32 2 32 33
M  V30 33 2 32 34
M  V30 34 1 32 35
M  V30 35 1 9 3
M  V30 36 1 15 10
M  V30 37 1 31 26
M  V30 38 1 23 7
M  V30 39 1 5 36
M  V30 40 1 5 37
M  V30 41 1 9 38
M  V30 42 1 11 39
M  V30 43 1 12 40
M  V30 44 1 13 41
M  V30 45 1 15 42
M  V30 46 1 21 43
M  V30 47 1 21 44
M  V30 48 1 23 45
M  V30 49 1 23 46
M  V30 50 1 24 47
M  V30 51 1 24 48
M  V30 52 1 24 49
M  V30 53 1 25 50
M  V30 54 1 25 51
M  V30 55 1 25 52
M  V30 56 1 27 53
M  V30 57 1 28 54
M  V30 58 1 30 55
M  V30 59 1 31 56
M  V30 60 1 35 57
M  V30 61 1 35 58
M  V30 END BOND
M  V30 END CTAB
M  END
