
     RDKit          3D

  0  0  0  0  0  0  0  0  0  0999 V3000
M  V30 BEGIN CTAB
M  V30 COUNTS 41 43 0 0 0
M  V30 BEGIN ATOM
M  V30 1 N 7.73323 -0.438483 -1.11534 0
M  V30 2 C 7.0967 0.256879 -0.0715369 0
M  V30 3 N 7.791 0.889559 0.786226 0
M  V30 4 C 5.65367 0.247076 0.0184017 0
M  V30 5 C 4.94089 0.890597 0.991839 0
M  V30 6 C 3.55335 0.844136 1.02599 0
M  V30 7 C 2.81956 0.151623 0.0873983 0
M  V30 8 C 3.54296 -0.496113 -0.892889 0
M  V30 9 C 4.9201 -0.460879 -0.942396 0
M  V30 10 C 1.36221 0.0996835 0.119594 0
M  V30 11 C 0.669073 -1.0152 -0.349221 0
M  V30 12 C -0.70567 -1.06196 -0.317484 0
M  V30 13 C -1.44976 -0.00893024 0.178758 0
M  V30 14 C -0.803821 1.10557 0.649161 0
M  V30 15 C 0.590832 1.12559 0.604775 0
M  V30 16 C -2.89955 -0.0946037 0.197106 0
M  V30 17 C -3.73397 0.888963 0.665379 0
M  V30 18 C -5.12275 0.716994 0.643556 0
M  V30 19 C -5.65487 -0.450184 0.147442 0
M  V30 20 C -4.79147 -1.42027 -0.316026 0
M  V30 21 N -3.47003 -1.21456 -0.276613 0
M  V30 22 C -7.09785 -0.65916 0.111774 0
M  V30 23 N -7.97303 0.349889 0.593958 0
M  V30 24 N -7.62762 -1.73522 -0.344363 0
M  V30 25 H 8.49758 -1.097 -0.914474 0
M  V30 26 H 7.42428 -0.281137 -2.09295 0
M  V30 27 H 7.50312 1.43687 1.59247 0
M  V30 28 H 5.49636 1.44606 1.74709 0
M  V30 29 H 3.0355 1.37695 1.82658 0
M  V30 30 H 2.9745 -1.04038 -1.63111 0
M  V30 31 H 5.46093 -0.980966 -1.72648 0
M  V30 32 H 1.23816 -1.83195 -0.73385 0
M  V30 33 H -1.2355 -1.92905 -0.682525 0
M  V30 34 H -1.36361 1.9358 1.0393 0
M  V30 35 H 1.0976 2.00064 0.974147 0
M  V30 36 H -3.32569 1.81281 1.05849 0
M  V30 37 H -5.77376 1.50435 1.01779 0
M  V30 38 H -5.16971 -2.36712 -0.720546 0
M  V30 39 H -8.64939 0.789684 -0.0633635 0
M  V30 40 H -7.91311 0.617842 1.58171 0
M  V30 41 H -8.64042 -1.90441 -0.379378 0
M  V30 END ATOM
M  V30 BEGIN BOND
M  V30 1 1 1 2
M  V30 2 2 2 3 CFG=2
M  V30 3 1 2 4
M  V30 4 2 4 5
M  V30 5 1 5 6
M  V30 6 2 6 7
M  V30 7 1 7 8
M  V30 8 2 8 9
M  V30 9 1 7 10
M  V30 10 2 10 11
M  V30 11 1 11 12
M  V30 12 2 12 13
M  V30 13 1 13 14
M  V30 14 2 14 15
M  V30 15 1 13 16
M  V30 16 2 16 17
M  V30 17 1 17 18
M  V30 18 2 18 19
M  V30 19 1 19 20
M  V30 20 2 20 21
M  V30 21 1 19 22
M  V30 22 1 22 23
M  V30 23 2 22 24 CFG=2
M  V30 24 1 9 4
M  V30 25 1 15 10
M  V30 26 1 21 16
M  V30 27 1 1 25
M  V30 28 1 1 26
M  V30 29 1 3 27
M  V30 30 1 5 28
M  V30 31 1 6 29
M  V30 32 1 8 30
M  V30 33 1 9 31
M  V30 34 1 11 32
M  V30 35 1 12 33
M  V30 36 1 14 34
M  V30 37 1 15 35
M  V30 38 1 17 36
M  V30 39 1 18 37
M  V30 40 1 20 38
M  V30 41 1 23 39
M  V30 42 1 23 40
M  V30 43 1 24 41
M  V30 END BOND
M  V30 END CTAB
M  END
