
     RDKit          3D

  0  0  0  0  0  0  0  0  0  0999 V3000
M  V30 BEGIN CTAB
M  V30 COUNTS 31 31 0 0 0
M  V30 BEGIN ATOM
M  V30 1 N 4.4784 -1.20491 0.567779 0
M  V30 2 C 3.58643 -0.209762 0.0679067 0
M  V30 3 N 4.02349 1.04636 -0.20545 0
M  V30 4 C 3.18501 1.98225 -0.675465 0
M  V30 5 C 1.85693 1.72026 -0.901446 0
M  V30 6 C 1.39343 0.463024 -0.633803 0
M  V30 7 C 2.25128 -0.491131 -0.153939 0
M  V30 8 C -0.0198551 0.0537278 -0.835208 0
M  V30 9 C -0.871175 0.275 0.375264 0
M  V30 10 C -2.27369 -0.172881 0.0568332 0
M  V30 11 N -2.85761 0.479098 -1.06493 0
M  V30 12 C -3.19275 0.0520102 1.25809 0
M  V30 13 C -2.31109 -1.67738 -0.217905 0
M  V30 14 O -0.442904 -0.443087 1.48113 0
M  V30 15 H 4.7707 -1.20042 1.56161 0
M  V30 16 H 4.84419 -1.94396 -0.0581045 0
M  V30 17 H 3.56222 2.98267 -0.886545 0
M  V30 18 H 1.18194 2.47711 -1.28083 0
M  V30 19 H 1.9322 -1.51073 0.0761103 0
M  V30 20 H -0.0145878 -0.978342 -1.21222 0
M  V30 21 H -0.420603 0.703055 -1.64591 0
M  V30 22 H -0.901528 1.355 0.584266 0
M  V30 23 H -3.89106 0.60287 -1.00387 0
M  V30 24 H -2.35832 1.30088 -1.42466 0
M  V30 25 H -4.01824 -0.666874 1.25129 0
M  V30 26 H -2.54295 -0.0968452 2.15318 0
M  V30 27 H -3.52674 1.11547 1.29158 0
M  V30 28 H -3.38266 -1.96419 -0.192705 0
M  V30 29 H -1.91044 -1.90943 -1.22175 0
M  V30 30 H -1.80333 -2.22403 0.599821 0
M  V30 31 H -0.326681 0.0852063 2.28988 0
M  V30 END ATOM
M  V30 BEGIN BOND
M  V30 1 1 1 2
M  V30 2 2 2 3
M  V30 3 1 3 4
M  V30 4 2 4 5
M  V30 5 1 5 6
M  V30 6 2 6 7
M  V30 7 1 6 8
M  V30 8 1 8 9
M  V30 9 1 9 10
M  V30 10 1 10 11
M  V30 11 1 10 12
M  V30 12 1 10 13
M  V30 13 1 9 14
M  V30 14 1 7 2
M  V30 15 1 1 15
M  V30 16 1 1 16
M  V30 17 1 4 17
M  V30 18 1 5 18
M  V30 19 1 7 19
M  V30 20 1 8 20
M  V30 21 1 8 21
M  V30 22 1 9 22
M  V30 23 1 11 23
M  V30 24 1 11 24
M  V30 25 1 12 25
M  V30 26 1 12 26
M  V30 27 1 12 27
M  V30 28 1 13 28
M  V30 29 1 13 29
M  V30 30 1 13 30
M  V30 31 1 14 31
M  V30 END BOND
M  V30 END CTAB
M  END
