
     RDKit          3D

  0  0  0  0  0  0  0  0  0  0999 V3000
M  V30 BEGIN CTAB
M  V30 COUNTS 24 24 0 0 0
M  V30 BEGIN ATOM
M  V30 1 N -3.51652 1.69683 0.432446 0
M  V30 2 C -2.78017 0.495494 0.337899 0
M  V30 3 N -1.49463 0.576546 0.21502 0
M  V30 4 C -0.753543 -0.668943 0.119153 0
M  V30 5 C 0.714674 -0.382081 0.0304774 0
M  V30 6 C 1.13372 0.867614 0.0480987 0
M  V30 7 C 2.59271 1.1153 -0.041392 0
M  V30 8 C 3.35956 -0.0907125 -0.477 0
M  V30 9 O 2.93847 -1.26339 0.121288 0
M  V30 10 C 1.61745 -1.55656 -0.0736977 0
M  V30 11 N -3.47017 -0.740417 0.380719 0
M  V30 12 H -4.04647 2.03519 -0.381438 0
M  V30 13 H -3.51011 2.21653 1.32009 0
M  V30 14 H -1.10794 -1.18298 -0.79602 0
M  V30 15 H -0.968268 -1.35278 0.972506 0
M  V30 16 H 0.483256 1.71656 0.123265 0
M  V30 17 H 3.00363 1.50952 0.924433 0
M  V30 18 H 2.73402 1.91604 -0.801868 0
M  V30 19 H 3.35879 -0.166491 -1.59656 0
M  V30 20 H 4.42073 0.0609804 -0.187515 0
M  V30 21 H 1.3059 -2.26397 0.749206 0
M  V30 22 H 1.40799 -2.10516 -1.02104 0
M  V30 23 H -4.43406 -0.871538 0.0259949 0
M  V30 24 H -2.98903 -1.5616 0.788168 0
M  V30 END ATOM
M  V30 BEGIN BOND
M  V30 1 1 1 2
M  V30 2 2 2 3 CFG=2
M  V30 3 1 3 4
M  V30 4 1 4 5
M  V30 5 2 5 6
M  V30 6 1 6 7
M  V30 7 1 7 8
M  V30 8 1 8 9
M  V30 9 1 9 10
M  V30 10 1 2 11
M  V30 11 1 10 5
M  V30 12 1 1 12
M  V30 13 1 1 13
M  V30 14 1 4 14
M  V30 15 1 4 15
M  V30 16 1 6 16
M  V30 17 1 7 17
M  V30 18 1 7 18
M  V30 19 1 8 19
M  V30 20 1 8 20
M  V30 21 1 10 21
M  V30 22 1 10 22
M  V30 23 1 11 23
M  V30 24 1 11 24
M  V30 END BOND
M  V30 END CTAB
M  END
