
     RDKit          3D

  0  0  0  0  0  0  0  0  0  0999 V3000
M  V30 BEGIN CTAB
M  V30 COUNTS 27 27 0 0 0
M  V30 BEGIN ATOM
M  V30 1 N 3.53978 -0.522408 0.392275 0
M  V30 2 C 2.1786 -0.921115 0.731675 0
M  V30 3 C 1.16913 -0.319745 -0.232519 0
M  V30 4 C 1.25851 1.17676 -0.174146 0
M  V30 5 C 0.0807683 1.88464 -0.751314 0
M  V30 6 C -1.21499 1.12614 -0.579613 0
M  V30 7 N -1.1188 0.172727 0.50572 0
M  V30 8 C -0.177763 -0.858676 0.130128 0
M  V30 9 S -2.66694 -0.531596 0.762908 0
M  V30 10 O -3.63252 0.61993 0.998712 0
M  V30 11 O -2.65509 -1.40524 1.97997 0
M  V30 12 N -3.24035 -1.38915 -0.607651 0
M  V30 13 H 3.63166 0.537692 0.411515 0
M  V30 14 H 4.12654 -0.829489 1.22445 0
M  V30 15 H 1.92253 -0.68689 1.78045 0
M  V30 16 H 2.14332 -2.03105 0.538686 0
M  V30 17 H 1.47794 -0.639453 -1.2515 0
M  V30 18 H 2.15388 1.46837 -0.796649 0
M  V30 19 H 1.48284 1.55975 0.846603 0
M  V30 20 H 0.187189 2.1516 -1.82272 0
M  V30 21 H -0.0343582 2.8665 -0.21443 0
M  V30 22 H -2.03483 1.8308 -0.323381 0
M  V30 23 H -1.50923 0.632251 -1.53211 0
M  V30 24 H -0.140457 -1.58232 0.973019 0
M  V30 25 H -0.607461 -1.40945 -0.728229 0
M  V30 26 H -3.72819 -0.808526 -1.29398 0
M  V30 27 H -2.59171 -2.09204 -0.967858 0
M  V30 END ATOM
M  V30 BEGIN BOND
M  V30 1 1 1 2
M  V30 2 1 2 3
M  V30 3 1 3 4
M  V30 4 1 4 5
M  V30 5 1 5 6
M  V30 6 1 6 7
M  V30 7 1 7 8
M  V30 8 1 7 9
M  V30 9 2 9 10
M  V30 10 2 9 11
M  V30 11 1 9 12
M  V30 12 1 8 3
M  V30 13 1 1 13
M  V30 14 1 1 14
M  V30 15 1 2 15
M  V30 16 1 2 16
M  V30 17 1 3 17
M  V30 18 1 4 18
M  V30 19 1 4 19
M  V30 20 1 5 20
M  V30 21 1 5 21
M  V30 22 1 6 22
M  V30 23 1 6 23
M  V30 24 1 8 24
M  V30 25 1 8 25
M  V30 26 1 12 26
M  V30 27 1 12 27
M  V30 END BOND
M  V30 END CTAB
M  END
