
     RDKit          3D

  0  0  0  0  0  0  0  0  0  0999 V3000
M  V30 BEGIN CTAB
M  V30 COUNTS 33 34 0 0 0
M  V30 BEGIN ATOM
M  V30 1 N 5.68348 -1.0727 0.0023909 0
M  V30 2 N 4.28896 -1.34141 0.175711 0
M  V30 3 C 3.35917 -0.293501 0.0270522 0
M  V30 4 O 3.75056 0.864276 -0.254655 0
M  V30 5 C 1.94574 -0.52162 0.193205 0
M  V30 6 C 1.49235 -1.77863 0.501398 0
M  V30 7 N 0.163313 -1.973 0.653275 0
M  V30 8 C -0.743153 -1.01933 0.522974 0
M  V30 9 C -0.297458 0.263807 0.209795 0
M  V30 10 C 1.03559 0.542733 0.0393777 0
M  V30 11 N 1.50371 1.8463 -0.280068 0
M  V30 12 C -1.21612 1.29433 0.0639477 0
M  V30 13 O -0.730805 2.55564 -0.247809 0
M  V30 14 C -1.67885 3.60139 -0.394508 0
M  V30 15 C -2.55916 1.03219 0.231565 0
M  V30 16 C -2.99766 -0.26049 0.546204 0
M  V30 17 C -2.08244 -1.27367 0.688604 0
M  V30 18 O -2.4963 -2.55433 0.998615 0
M  V30 19 C -3.8738 -2.82787 1.17154 0
M  V30 20 H 5.99591 -0.446993 0.754822 0
M  V30 21 H 5.76548 -0.653833 -0.936128 0
M  V30 22 H 4.03792 -2.32755 0.408834 0
M  V30 23 H 2.10566 -2.64598 0.637383 0
M  V30 24 H 1.4953 2.22207 -1.25241 0
M  V30 25 H 1.86757 2.44375 0.490269 0
M  V30 26 H -1.12823 4.52538 -0.658991 0
M  V30 27 H -2.2677 3.69233 0.538513 0
M  V30 28 H -2.36194 3.37091 -1.26448 0
M  V30 29 H -3.25629 1.84719 0.113793 0
M  V30 30 H -4.04024 -0.441821 0.671548 0
M  V30 31 H -4.45927 -2.61465 0.249081 0
M  V30 32 H -4.04164 -3.89441 1.41529 0
M  V30 33 H -4.25966 -2.1605 1.99099 0
M  V30 END ATOM
M  V30 BEGIN BOND
M  V30 1 1 1 2
M  V30 2 1 2 3
M  V30 3 2 3 4
M  V30 4 1 3 5
M  V30 5 2 5 6
M  V30 6 1 6 7
M  V30 7 2 7 8
M  V30 8 1 8 9
M  V30 9 2 9 10
M  V30 10 1 10 11
M  V30 11 1 9 12
M  V30 12 1 12 13
M  V30 13 1 13 14
M  V30 14 2 12 15
M  V30 15 1 15 16
M  V30 16 2 16 17
M  V30 17 1 17 18
M  V30 18 1 18 19
M  V30 19 1 10 5
M  V30 20 1 17 8
M  V30 21 1 1 20
M  V30 22 1 1 21
M  V30 23 1 2 22
M  V30 24 1 6 23
M  V30 25 1 11 24
M  V30 26 1 11 25
M  V30 27 1 14 26
M  V30 28 1 14 27
M  V30 29 1 14 28
M  V30 30 1 15 29
M  V30 31 1 16 30
M  V30 32 1 19 31
M  V30 33 1 19 32
M  V30 34 1 19 33
M  V30 END BOND
M  V30 END CTAB
M  END
