
     RDKit          3D

  0  0  0  0  0  0  0  0  0  0999 V3000
M  V30 BEGIN CTAB
M  V30 COUNTS 55 56 0 0 0
M  V30 BEGIN ATOM
M  V30 1 C -2.52442 -2.25401 -1.66534 0
M  V30 2 C -2.8651 -0.814579 -1.49201 0
M  V30 3 C -2.26937 -0.183361 -0.265883 0
M  V30 4 C -2.64712 1.27513 -0.1425 0
M  V30 5 C -4.12577 1.46697 -0.0143953 0
M  V30 6 C -4.53806 0.93568 1.33117 0
M  V30 7 C -4.21404 -0.540575 1.31219 0
M  V30 8 C -2.8128 -0.855612 1.00873 0
M  V30 9 O -0.948196 -0.431185 -0.204666 0
M  V30 10 Si 0.155574 0.0439345 -1.32342 0 VAL=4
M  V30 11 N -0.112961 -0.546405 -3.00397 0
M  V30 12 N 0.183776 1.83401 -1.44663 0
M  V30 13 O 1.70942 -0.572196 -0.965249 0
M  V30 14 C 2.37995 -0.0262815 0.0583053 0
M  V30 15 C 1.66457 -0.141105 1.40217 0
M  V30 16 C 1.42964 -1.58525 1.77762 0
M  V30 17 C 2.86596 1.37056 -0.0996234 0
M  V30 18 C 4.14926 1.53748 0.691212 0
M  V30 19 C 5.262 0.912877 -0.116474 0
M  V30 20 C 4.73201 -0.376196 -0.70793 0
M  V30 21 C 3.65362 -0.87895 0.230703 0
M  V30 22 H -1.53423 -2.55194 -1.22959 0
M  V30 23 H -3.32994 -2.94244 -1.3072 0
M  V30 24 H -2.44721 -2.47385 -2.75006 0
M  V30 25 H -3.98132 -0.750508 -1.49918 0
M  V30 26 H -2.56021 -0.273648 -2.40401 0
M  V30 27 H -2.3515 1.86923 -1.02838 0
M  V30 28 H -2.19111 1.64495 0.800084 0
M  V30 29 H -4.73452 0.993642 -0.78292 0
M  V30 30 H -4.30843 2.57601 -0.0744322 0
M  V30 31 H -3.9772 1.48713 2.10222 0
M  V30 32 H -5.62119 1.06845 1.43716 0
M  V30 33 H -4.96613 -1.0201 0.653611 0
M  V30 34 H -4.43225 -0.911029 2.3373 0
M  V30 35 H -2.16972 -0.469171 1.82698 0
M  V30 36 H -2.67131 -1.93882 0.975582 0
M  V30 37 H 0.558457 0.00291322 -3.61373 0
M  V30 38 H 0.185143 -1.53973 -3.1055 0
M  V30 39 H -0.315486 2.17824 -2.28891 0
M  V30 40 H -0.0454768 2.31306 -0.575395 0
M  V30 41 H 2.29921 0.29357 2.20417 0
M  V30 42 H 0.710436 0.381345 1.42548 0
M  V30 43 H 1.32282 -2.23446 0.875111 0
M  V30 44 H 0.509563 -1.71569 2.39063 0
M  V30 45 H 2.26787 -1.99449 2.39937 0
M  V30 46 H 3.10283 1.65961 -1.14273 0
M  V30 47 H 2.13245 2.04897 0.376887 0
M  V30 48 H 4.30239 2.65056 0.77859 0
M  V30 49 H 4.08095 1.16392 1.71676 0
M  V30 50 H 5.53696 1.62388 -0.935366 0
M  V30 51 H 6.12628 0.744225 0.555171 0
M  V30 52 H 5.5348 -1.11255 -0.775942 0
M  V30 53 H 4.3499 -0.192469 -1.73387 0
M  V30 54 H 4.0473 -0.820444 1.2451 0
M  V30 55 H 3.44192 -1.92931 -0.069113 0
M  V30 END ATOM
M  V30 BEGIN BOND
M  V30 1 1 1 2
M  V30 2 1 2 3
M  V30 3 1 3 4
M  V30 4 1 4 5
M  V30 5 1 5 6
M  V30 6 1 6 7
M  V30 7 1 7 8
M  V30 8 1 3 9
M  V30 9 1 9 10
M  V30 10 1 10 11
M  V30 11 1 10 12
M  V30 12 1 10 13
M  V30 13 1 13 14
M  V30 14 1 14 15
M  V30 15 1 15 16
M  V30 16 1 14 17
M  V30 17 1 17 18
M  V30 18 1 18 19
M  V30 19 1 19 20
M  V30 20 1 20 21
M  V30 21 1 8 3
M  V30 22 1 21 14
M  V30 23 1 1 22
M  V30 24 1 1 23
M  V30 25 1 1 24
M  V30 26 1 2 25
M  V30 27 1 2 26
M  V30 28 1 4 27
M  V30 29 1 4 28
M  V30 30 1 5 29
M  V30 31 1 5 30
M  V30 32 1 6 31
M  V30 33 1 6 32
M  V30 34 1 7 33
M  V30 35 1 7 34
M  V30 36 1 8 35
M  V30 37 1 8 36
M  V30 38 1 11 37
M  V30 39 1 11 38
M  V30 40 1 12 39
M  V30 41 1 12 40
M  V30 42 1 15 41
M  V30 43 1 15 42
M  V30 44 1 16 43
M  V30 45 1 16 44
M  V30 46 1 16 45
M  V30 47 1 17 46
M  V30 48 1 17 47
M  V30 49 1 18 48
M  V30 50 1 18 49
M  V30 51 1 19 50
M  V30 52 1 19 51
M  V30 53 1 20 52
M  V30 54 1 20 53
M  V30 55 1 21 54
M  V30 56 1 21 55
M  V30 END BOND
M  V30 END CTAB
M  END
