
     RDKit          3D

  0  0  0  0  0  0  0  0  0  0999 V3000
M  V30 BEGIN CTAB
M  V30 COUNTS 33 34 0 0 0
M  V30 BEGIN ATOM
M  V30 1 Cl 7.73565 -0.776735 1.23534 0
M  V30 2 C 6.06022 -0.582677 0.715965 0
M  V30 3 C 5.00793 -0.653947 1.60555 0
M  V30 4 C 3.72749 -0.492036 1.12301 0
M  V30 5 C 3.43983 -0.261863 -0.205269 0
M  V30 6 C 4.48764 -0.190445 -1.09392 0
M  V30 7 C 5.77062 -0.351176 -0.619856 0
M  V30 8 C 2.01921 -0.100935 -0.62292 0
M  V30 9 O 1.21785 -0.224943 0.491141 0
M  V30 10 N -0.116991 -0.159643 0.63466 0
M  V30 11 C -0.991552 0.144736 -0.255677 0
M  V30 12 C -2.42608 0.191551 -0.0135576 0
M  V30 13 C -2.98884 -0.0922489 1.2183 0
M  V30 14 C -4.3489 -0.0458727 1.44035 0
M  V30 15 Cl -5.04729 -0.412354 3.02281 0
M  V30 16 C -5.21345 0.294371 0.412288 0
M  V30 17 C -4.66636 0.583373 -0.834566 0
M  V30 18 C -3.29814 0.527749 -1.02421 0
M  V30 19 Cl -5.73797 1.01813 -2.15789 0
M  V30 20 N -6.61113 0.352209 0.602178 0
M  V30 21 N -0.520739 0.453167 -1.55339 0
M  V30 22 H 5.21161 -0.834646 2.65762 0
M  V30 23 H 2.92488 -0.558535 1.87794 0
M  V30 24 H 4.25074 -0.00934976 -2.13458 0
M  V30 25 H 6.60261 -0.295918 -1.31638 0
M  V30 26 H 1.96851 0.947625 -1.042 0
M  V30 27 H 1.7575 -0.7778 -1.4607 0
M  V30 28 H -2.35774 -0.360892 2.04502 0
M  V30 29 H -2.88883 0.757199 -2.00684 0
M  V30 30 H -7.12257 1.23166 0.817728 0
M  V30 31 H -7.1704 -0.523137 0.525254 0
M  V30 32 H -0.2642 1.44064 -1.75898 0
M  V30 33 H -0.4111 -0.237263 -2.32443 0
M  V30 END ATOM
M  V30 BEGIN BOND
M  V30 1 1 1 2
M  V30 2 2 2 3
M  V30 3 1 3 4
M  V30 4 2 4 5
M  V30 5 1 5 6
M  V30 6 2 6 7
M  V30 7 1 5 8
M  V30 8 1 8 9
M  V30 9 1 9 10
M  V30 10 2 10 11
M  V30 11 1 11 12
M  V30 12 2 12 13
M  V30 13 1 13 14
M  V30 14 1 14 15
M  V30 15 2 14 16
M  V30 16 1 16 17
M  V30 17 2 17 18
M  V30 18 1 17 19
M  V30 19 1 16 20
M  V30 20 1 11 21
M  V30 21 1 7 2
M  V30 22 1 18 12
M  V30 23 1 3 22
M  V30 24 1 4 23
M  V30 25 1 6 24
M  V30 26 1 7 25
M  V30 27 1 8 26
M  V30 28 1 8 27
M  V30 29 1 13 28
M  V30 30 1 18 29
M  V30 31 1 20 30
M  V30 32 1 20 31
M  V30 33 1 21 32
M  V30 34 1 21 33
M  V30 END BOND
M  V30 END CTAB
M  END
