
     RDKit          3D

  0  0  0  0  0  0  0  0  0  0999 V3000
M  V30 BEGIN CTAB
M  V30 COUNTS 90 90 0 0 0
M  V30 BEGIN ATOM
M  V30 1 C 6.15803 -0.0826056 -1.13661 0 CFG=1
M  V30 2 N 7.14522 0.882082 -1.47996 0
M  V30 3 C 6.11963 -0.49163 0.28191 0
M  V30 4 C 7.34087 -1.17522 0.810416 0
M  V30 5 C 8.62209 -0.419454 0.851559 0
M  V30 6 N 9.71959 -1.26951 1.32122 0
M  V30 7 C 9.77692 -1.73582 2.64133 0
M  V30 8 N 10.3689 -0.932832 3.67584 0
M  V30 9 N 9.34448 -2.88844 3.01862 0
M  V30 10 C 4.94476 -0.0828913 -1.92064 0
M  V30 11 O 5.12103 -0.125951 -3.20624 0
M  V30 12 N 3.58222 -0.0503772 -1.50136 0
M  V30 13 C 2.5317 -0.130608 -2.4533 0
M  V30 14 C 1.13842 -0.0693285 -2.05692 0
M  V30 15 O 0.357231 -0.420466 -3.07663 0
M  V30 16 N 0.533353 0.273332 -0.855504 0
M  V30 17 C -0.0655275 0.606395 0.316713 0 CFG=1
M  V30 18 C 0.575434 1.58301 1.23881 0
M  V30 19 C 0.821993 2.93386 0.710612 0
M  V30 20 C -0.064679 3.95931 0.896785 0
M  V30 21 C 0.144024 5.24998 0.40724 0
M  V30 22 C 1.27748 5.51851 -0.296099 0
M  V30 23 O 1.53119 6.78263 -0.806684 0
M  V30 24 C 2.18521 4.49429 -0.497373 0
M  V30 25 C 1.97917 3.22486 -0.0113151 0
M  V30 26 C -1.5479 0.893339 0.208339 0
M  V30 27 O -2.07098 0.718856 -0.919742 0
M  V30 28 N -2.4082 1.3225 1.23525 0
M  V30 29 C -3.8465 1.47223 0.922735 0 CFG=1
M  V30 30 C -4.14184 2.49595 -0.0931424 0
M  V30 31 C -4.43896 0.157894 0.700033 0
M  V30 32 O -3.72523 -0.853721 1.00709 0
M  V30 33 N -5.7339 -0.124544 0.172707 0
M  V30 34 C -6.24993 -1.45577 0.00301563 0 CFG=1
M  V30 35 C -5.62187 -2.24146 -1.08098 0
M  V30 36 C -5.77611 -1.72352 -2.46635 0
M  V30 37 C -7.24258 -1.61925 -2.87816 0
M  V30 38 C -4.99888 -0.502659 -2.77822 0
M  V30 39 C -6.3076 -2.1281 1.32851 0
M  V30 40 O -6.06303 -1.50878 2.35336 0
M  V30 41 N -6.66065 -3.51114 1.3708 0
M  V30 42 C -6.73523 -4.20468 2.66293 0
M  V30 43 C -7.78397 -3.58612 3.49955 0
M  V30 44 O -7.9131 -4.08163 4.80917 0
M  V30 45 O -8.54285 -2.67116 3.11362 0
M  V30 46 H 6.70306 -1.07319 -1.61808 0
M  V30 47 H 7.03501 1.82514 -1.0466 0
M  V30 48 H 7.3867 0.917768 -2.49321 0
M  V30 49 H 5.94324 0.391251 0.972415 0
M  V30 50 H 5.20598 -1.134 0.448236 0
M  V30 51 H 7.48528 -2.10733 0.170493 0
M  V30 52 H 7.16933 -1.59541 1.8342 0
M  V30 53 H 8.55883 0.464487 1.54849 0
M  V30 54 H 8.93428 -0.0489008 -0.137611 0
M  V30 55 H 10.4661 -1.51903 0.636874 0
M  V30 56 H 9.93318 -0.88862 4.59133 0
M  V30 57 H 11.24 -0.430486 3.41023 0
M  V30 58 H 8.91639 -3.55846 2.35265 0
M  V30 59 H 3.37555 0.0281782 -0.48787 0
M  V30 60 H 2.72287 -1.01177 -3.13284 0
M  V30 61 H 2.73255 0.745136 -3.17989 0
M  V30 62 H -0.574223 -0.437747 -1.22692 0
M  V30 63 H -0.157309 -0.383168 0.950568 0
M  V30 64 H -0.0399291 1.66541 2.20384 0
M  V30 65 H 1.55862 1.1773 1.63989 0
M  V30 66 H -0.999839 3.86239 1.4665 0
M  V30 67 H -0.57812 6.04997 0.578797 0
M  V30 68 H 2.04448 7.51154 -0.286882 0
M  V30 69 H 3.07533 4.7361 -1.06257 0
M  V30 70 H 2.71296 2.46444 -0.17733 0
M  V30 71 H -2.04192 1.52901 2.17377 0
M  V30 72 H -4.3034 1.84457 1.89607 0
M  V30 73 H -3.91055 2.23917 -1.12684 0
M  V30 74 H -5.23829 2.76703 -0.0198932 0
M  V30 75 H -3.59731 3.46131 0.142106 0
M  V30 76 H -6.35033 0.689587 -0.121255 0
M  V30 77 H -7.38222 -1.3097 -0.284595 0
M  V30 78 H -5.8616 -3.31934 -1.05184 0
M  V30 79 H -4.49774 -2.23764 -0.879668 0
M  V30 80 H -5.37215 -2.55346 -3.14613 0
M  V30 81 H -7.26425 -1.26173 -3.91934 0
M  V30 82 H -7.81304 -0.898126 -2.25896 0
M  V30 83 H -7.72863 -2.6071 -2.90113 0
M  V30 84 H -5.11604 -0.32518 -3.89447 0
M  V30 85 H -5.37407 0.398779 -2.27533 0
M  V30 86 H -3.92484 -0.7278 -2.56342 0
M  V30 87 H -6.86375 -4.02614 0.509077 0
M  V30 88 H -6.99669 -5.26825 2.49481 0
M  V30 89 H -5.75218 -4.20272 3.18113 0
M  V30 90 H -8.84073 -4.32458 5.14 0
M  V30 END ATOM
M  V30 BEGIN BOND
M  V30 1 1 1 2
M  V30 2 1 1 3
M  V30 3 1 3 4
M  V30 4 1 4 5
M  V30 5 1 5 6
M  V30 6 1 6 7
M  V30 7 1 7 8
M  V30 8 2 7 9 CFG=2
M  V30 9 1 1 10
M  V30 10 2 10 11
M  V30 11 1 10 12
M  V30 12 1 12 13
M  V30 13 1 13 14
M  V30 14 2 14 15
M  V30 15 1 14 16
M  V30 16 1 16 17
M  V30 17 1 17 18
M  V30 18 1 18 19
M  V30 19 2 19 20
M  V30 20 1 20 21
M  V30 21 2 21 22
M  V30 22 1 22 23
M  V30 23 1 22 24
M  V30 24 2 24 25
M  V30 25 1 17 26
M  V30 26 2 26 27
M  V30 27 1 26 28
M  V30 28 1 28 29
M  V30 29 1 29 30
M  V30 30 1 29 31
M  V30 31 2 31 32
M  V30 32 1 31 33
M  V30 33 1 33 34
M  V30 34 1 34 35
M  V30 35 1 35 36
M  V30 36 1 36 37
M  V30 37 1 36 38
M  V30 38 1 34 39
M  V30 39 2 39 40
M  V30 40 1 39 41
M  V30 41 1 41 42
M  V30 42 1 42 43
M  V30 43 1 43 44
M  V30 44 2 43 45
M  V30 45 1 25 19
M  V30 46 1 1 46 CFG=3
M  V30 47 1 2 47
M  V30 48 1 2 48
M  V30 49 1 3 49
M  V30 50 1 3 50
M  V30 51 1 4 51
M  V30 52 1 4 52
M  V30 53 1 5 53
M  V30 54 1 5 54
M  V30 55 1 6 55
M  V30 56 1 8 56
M  V30 57 1 8 57
M  V30 58 1 9 58
M  V30 59 1 12 59
M  V30 60 1 13 60
M  V30 61 1 13 61
M  V30 62 1 16 62
M  V30 63 1 17 63 CFG=1
M  V30 64 1 18 64
M  V30 65 1 18 65
M  V30 66 1 20 66
M  V30 67 1 21 67
M  V30 68 1 23 68
M  V30 69 1 24 69
M  V30 70 1 25 70
M  V30 71 1 28 71
M  V30 72 1 29 72 CFG=1
M  V30 73 1 30 73
M  V30 74 1 30 74
M  V30 75 1 30 75
M  V30 76 1 33 76
M  V30 77 1 34 77 CFG=3
M  V30 78 1 35 78
M  V30 79 1 35 79
M  V30 80 1 36 80
M  V30 81 1 37 81
M  V30 82 1 37 82
M  V30 83 1 37 83
M  V30 84 1 38 84
M  V30 85 1 38 85
M  V30 86 1 38 86
M  V30 87 1 41 87
M  V30 88 1 42 88
M  V30 89 1 42 89
M  V30 90 1 44 90
M  V30 END BOND
M  V30 END CTAB
M  END
