
     RDKit          3D

  0  0  0  0  0  0  0  0  0  0999 V3000
M  V30 BEGIN CTAB
M  V30 COUNTS 35 35 0 0 0
M  V30 BEGIN ATOM
M  V30 1 N 3.29452 1.95756 -3.30511 0
M  V30 2 C 4.12702 1.7707 -2.12857 0
M  V30 3 C 4.2635 0.350804 -1.70874 0
M  V30 4 C 3.01368 -0.362978 -1.36359 0
M  V30 5 C 2.2573 0.238732 -0.203512 0
M  V30 6 O 2.88518 1.14236 0.382592 0
M  V30 7 N 0.998634 -0.197049 0.133494 0
M  V30 8 C -0.221363 -0.611973 0.468733 0
M  V30 9 C -0.536614 -1.95625 0.125431 0
M  V30 10 C -1.76268 -2.47917 0.350411 0
M  V30 11 C -2.7588 -1.68481 0.936777 0
M  V30 12 C -2.5111 -0.398289 1.28299 0
M  V30 13 C -1.24103 0.0966197 1.0346 0
M  V30 14 S -3.76616 0.570152 2.01975 0
M  V30 15 O -5.04143 0.568889 1.24009 0
M  V30 16 O -4.06193 -0.0283715 3.38089 0
M  V30 17 N -3.2184 2.18443 2.30762 0
M  V30 18 C -4.08324 -2.30433 1.15511 0
M  V30 19 H 3.57097 2.82074 -3.83712 0
M  V30 20 H 2.27556 1.96893 -3.06236 0
M  V30 21 H 3.87869 2.49379 -1.33048 0
M  V30 22 H 5.15667 2.09533 -2.47072 0
M  V30 23 H 5.00173 0.321699 -0.872789 0
M  V30 24 H 4.73468 -0.19647 -2.56571 0
M  V30 25 H 2.33968 -0.345301 -2.23267 0
M  V30 26 H 3.27077 -1.42424 -1.15194 0
M  V30 27 H 1.06904 0.534602 1.29209 0
M  V30 28 H 0.249834 -2.58222 -0.332257 0
M  V30 29 H -1.98052 -3.51696 0.0713303 0
M  V30 30 H -1.11512 1.14545 1.33158 0
M  V30 31 H -2.70816 2.53666 1.45586 0
M  V30 32 H -4.0894 2.75703 2.45095 0
M  V30 33 H -4.81795 -1.91847 0.400029 0
M  V30 34 H -4.43167 -2.14598 2.19259 0
M  V30 35 H -4.04187 -3.4016 0.960364 0
M  V30 END ATOM
M  V30 BEGIN BOND
M  V30 1 1 1 2
M  V30 2 1 2 3
M  V30 3 1 3 4
M  V30 4 1 4 5
M  V30 5 2 5 6
M  V30 6 1 5 7
M  V30 7 1 7 8
M  V30 8 2 8 9
M  V30 9 1 9 10
M  V30 10 2 10 11
M  V30 11 1 11 12
M  V30 12 2 12 13
M  V30 13 1 12 14
M  V30 14 2 14 15
M  V30 15 2 14 16
M  V30 16 1 14 17
M  V30 17 1 11 18
M  V30 18 1 13 8
M  V30 19 1 1 19
M  V30 20 1 1 20
M  V30 21 1 2 21
M  V30 22 1 2 22
M  V30 23 1 3 23
M  V30 24 1 3 24
M  V30 25 1 4 25
M  V30 26 1 4 26
M  V30 27 1 7 27
M  V30 28 1 9 28
M  V30 29 1 10 29
M  V30 30 1 13 30
M  V30 31 1 17 31
M  V30 32 1 17 32
M  V30 33 1 18 33
M  V30 34 1 18 34
M  V30 35 1 18 35
M  V30 END BOND
M  V30 END CTAB
M  END
