
     RDKit          3D

  0  0  0  0  0  0  0  0  0  0999 V3000
M  V30 BEGIN CTAB
M  V30 COUNTS 27 26 0 0 0
M  V30 BEGIN ATOM
M  V30 1 C 2.6403 -0.408163 0.759221 0
M  V30 2 C 1.3324 -0.840799 0.248458 0
M  V30 3 C 0.420833 0.121162 -0.375265 0
M  V30 4 C -0.861542 -0.557244 -0.837909 0
M  V30 5 C -1.63681 -1.21016 0.260962 0
M  V30 6 N -2.82602 -1.78971 -0.393858 0
M  V30 7 N -1.6663 0.332543 -1.64714 0
M  V30 8 C 0.104853 1.38958 0.324516 0
M  V30 9 C 1.27547 2.28796 0.602171 0
M  V30 10 H 2.69206 -0.144992 1.82972 0
M  V30 11 H 3.08838 0.393437 0.141423 0
M  V30 12 H 3.40293 -1.24825 0.672938 0
M  V30 13 H 0.795617 -1.31149 1.13268 0
M  V30 14 H 1.50258 -1.7308 -0.428953 0
M  V30 15 H 0.90031 0.451701 -1.35332 0
M  V30 16 H -0.545156 -1.38616 -1.53887 0
M  V30 17 H -1.98579 -0.534738 1.04334 0
M  V30 18 H -0.994941 -2.05177 0.655995 0
M  V30 19 H -3.23682 -2.50652 0.244469 0
M  V30 20 H -3.46165 -1.01476 -0.628606 0
M  V30 21 H -2.20311 1.02018 -1.11341 0
M  V30 22 H -2.25599 -0.270262 -2.27499 0
M  V30 23 H -0.559162 1.26562 1.2105 0
M  V30 24 H -0.547088 1.97758 -0.395672 0
M  V30 25 H 0.90507 3.35186 0.741196 0
M  V30 26 H 1.85165 2.36368 -0.35831 0
M  V30 27 H 1.86792 2.05052 1.47872 0
M  V30 END ATOM
M  V30 BEGIN BOND
M  V30 1 1 1 2
M  V30 2 1 2 3
M  V30 3 1 3 4
M  V30 4 1 4 5
M  V30 5 1 5 6
M  V30 6 1 4 7
M  V30 7 1 3 8
M  V30 8 1 8 9
M  V30 9 1 1 10
M  V30 10 1 1 11
M  V30 11 1 1 12
M  V30 12 1 2 13
M  V30 13 1 2 14
M  V30 14 1 3 15
M  V30 15 1 4 16
M  V30 16 1 5 17
M  V30 17 1 5 18
M  V30 18 1 6 19
M  V30 19 1 6 20
M  V30 20 1 7 21
M  V30 21 1 7 22
M  V30 22 1 8 23
M  V30 23 1 8 24
M  V30 24 1 9 25
M  V30 25 1 9 26
M  V30 26 1 9 27
M  V30 END BOND
M  V30 END CTAB
M  END
