
     RDKit          3D

  0  0  0  0  0  0  0  0  0  0999 V3000
M  V30 BEGIN CTAB
M  V30 COUNTS 39 40 0 0 0
M  V30 BEGIN ATOM
M  V30 1 O -1.03534 -1.29593 1.16389 0
M  V30 2 C -0.537555 -0.236754 1.58151 0
M  V30 3 N 0.695326 0.256067 1.14361 0
M  V30 4 C 1.57724 -0.30539 0.195794 0
M  V30 5 C 1.30917 -1.39289 -0.580021 0
M  V30 6 C 2.24671 -1.8934 -1.49221 0
M  V30 7 C 3.46291 -1.29348 -1.62359 0
M  V30 8 C 3.78312 -0.167183 -0.842618 0
M  V30 9 C 2.85123 0.284409 0.0254097 0
M  V30 10 N 5.05159 0.42298 -1.01804 0
M  V30 11 C 5.65332 1.4644 -0.30701 0
M  V30 12 O 5.12092 2.05269 0.641894 0
M  V30 13 C 7.03629 1.9427 -0.674355 0
M  V30 14 C -1.30828 0.533607 2.6008 0
M  V30 15 S -2.8807 -0.259171 3.00591 0
M  V30 16 C -3.94464 -0.181923 1.57735 0
M  V30 17 N -4.75203 0.909701 1.43809 0
M  V30 18 C -5.57195 1.003 0.378745 0
M  V30 19 N -6.42791 2.12714 0.202451 0
M  V30 20 C -5.60051 -0.014263 -0.580573 0
M  V30 21 C -4.78113 -1.10082 -0.419875 0
M  V30 22 N -3.9746 -1.158 0.653136 0
M  V30 23 N -4.73298 -2.18425 -1.33224 0
M  V30 24 H 0.986367 1.18437 1.59861 0
M  V30 25 H 0.378552 -1.90489 -0.530676 0
M  V30 26 H 1.95036 -2.77063 -2.07574 0
M  V30 27 H 4.17678 -1.7016 -2.34089 0
M  V30 28 H 3.04017 1.14383 0.645295 0
M  V30 29 H 5.67125 0.0231915 -1.82383 0
M  V30 30 H 7.02158 2.12702 -1.78113 0
M  V30 31 H 7.74132 1.11076 -0.505473 0
M  V30 32 H 7.30745 2.85945 -0.144836 0
M  V30 33 H -0.742623 0.652318 3.54946 0
M  V30 34 H -1.55108 1.5331 2.14021 0
M  V30 35 H -7.43046 2.01371 0.431764 0
M  V30 36 H -6.06919 3.03391 -0.143325 0
M  V30 37 H -6.26131 0.0488962 -1.44462 0
M  V30 38 H -5.37619 -2.98398 -1.17082 0
M  V30 39 H -4.0832 -2.19718 -2.14204 0
M  V30 END ATOM
M  V30 BEGIN BOND
M  V30 1 2 1 2
M  V30 2 1 2 3
M  V30 3 1 3 4
M  V30 4 2 4 5
M  V30 5 1 5 6
M  V30 6 2 6 7
M  V30 7 1 7 8
M  V30 8 2 8 9
M  V30 9 1 8 10
M  V30 10 1 10 11
M  V30 11 2 11 12
M  V30 12 1 11 13
M  V30 13 1 2 14
M  V30 14 1 14 15
M  V30 15 1 15 16
M  V30 16 2 16 17
M  V30 17 1 17 18
M  V30 18 1 18 19
M  V30 19 2 18 20
M  V30 20 1 20 21
M  V30 21 2 21 22
M  V30 22 1 21 23
M  V30 23 1 9 4
M  V30 24 1 22 16
M  V30 25 1 3 24
M  V30 26 1 5 25
M  V30 27 1 6 26
M  V30 28 1 7 27
M  V30 29 1 9 28
M  V30 30 1 10 29
M  V30 31 1 13 30
M  V30 32 1 13 31
M  V30 33 1 13 32
M  V30 34 1 14 33
M  V30 35 1 14 34
M  V30 36 1 19 35
M  V30 37 1 19 36
M  V30 38 1 20 37
M  V30 39 1 23 38
M  V30 40 1 23 39
M  V30 END BOND
M  V30 END CTAB
M  END
