
     RDKit          3D

  0  0  0  0  0  0  0  0  0  0999 V3000
M  V30 BEGIN CTAB
M  V30 COUNTS 34 36 0 0 0
M  V30 BEGIN ATOM
M  V30 1 C 4.8767 2.85935 -0.0286987 0
M  V30 2 N 3.83562 1.91509 -0.409836 0
M  V30 3 C 3.26545 1.017 0.439421 0
M  V30 4 C 2.31435 0.268163 -0.222691 0
M  V30 5 C 2.33558 0.758331 -1.52209 0
M  V30 6 N 3.25422 1.73423 -1.58344 0
M  V30 7 C 1.48255 -0.79104 0.332118 0
M  V30 8 C 0.11468 -0.981488 0.156616 0
M  V30 9 N -0.756561 -0.253289 -0.549984 0
M  V30 10 C -2.04246 -0.649619 -0.559794 0
M  V30 11 C -3.01495 0.157174 -1.3308 0
M  V30 12 C -3.82508 1.03466 -0.364768 0
M  V30 13 N -2.8158 1.87508 0.302918 0
M  V30 14 C -2.45173 -1.76685 0.132272 0
M  V30 15 Br -4.28629 -2.32871 0.109344 0
M  V30 16 C -1.53935 -2.51181 0.859715 0
M  V30 17 N -1.96072 -3.6652 1.57298 0
M  V30 18 N -0.26244 -2.08945 0.849724 0
M  V30 19 N 0.793399 -2.582 1.43468 0
M  V30 20 C 1.88857 -1.82229 1.14854 0
M  V30 21 H 4.84312 3.01773 1.07222 0
M  V30 22 H 4.7793 3.82773 -0.558158 0
M  V30 23 H 5.8346 2.37972 -0.310576 0
M  V30 24 H 3.51861 0.897543 1.50108 0
M  V30 25 H 1.71854 0.41485 -2.34409 0
M  V30 26 H -3.73947 -0.474044 -1.89525 0
M  V30 27 H -2.49119 0.863769 -2.01268 0
M  V30 28 H -4.45625 1.7142 -0.975702 0
M  V30 29 H -4.39882 0.44905 0.358702 0
M  V30 30 H -3.23797 2.59807 0.899652 0
M  V30 31 H -2.26352 2.31681 -0.482334 0
M  V30 32 H -2.38168 -3.59488 2.52227 0
M  V30 33 H -1.83625 -4.59289 1.11541 0
M  V30 34 H 2.90525 -1.99502 1.49985 0
M  V30 END ATOM
M  V30 BEGIN BOND
M  V30 1 1 1 2
M  V30 2 1 2 3
M  V30 3 2 3 4
M  V30 4 1 4 5
M  V30 5 2 5 6
M  V30 6 1 4 7
M  V30 7 2 7 8
M  V30 8 1 8 9
M  V30 9 2 9 10
M  V30 10 1 10 11
M  V30 11 1 11 12
M  V30 12 1 12 13
M  V30 13 1 10 14
M  V30 14 1 14 15
M  V30 15 2 14 16
M  V30 16 1 16 17
M  V30 17 1 16 18
M  V30 18 1 18 19
M  V30 19 2 19 20
M  V30 20 1 6 2
M  V30 21 1 20 7
M  V30 22 1 18 8
M  V30 23 1 1 21
M  V30 24 1 1 22
M  V30 25 1 1 23
M  V30 26 1 3 24
M  V30 27 1 5 25
M  V30 28 1 11 26
M  V30 29 1 11 27
M  V30 30 1 12 28
M  V30 31 1 12 29
M  V30 32 1 13 30
M  V30 33 1 13 31
M  V30 34 1 17 32
M  V30 35 1 17 33
M  V30 36 1 20 34
M  V30 END BOND
M  V30 END CTAB
M  END
