
     RDKit          3D

  0  0  0  0  0  0  0  0  0  0999 V3000
M  V30 BEGIN CTAB
M  V30 COUNTS 64 68 0 0 0
M  V30 BEGIN ATOM
M  V30 1 N -6.20295 4.84343 1.43905 0
M  V30 2 C -5.77326 3.62107 0.867695 0
M  V30 3 N -6.31313 2.43176 1.20311 0
M  V30 4 C -5.90629 1.27218 0.662325 0
M  V30 5 O -6.45333 0.200334 1.01939 0
M  V30 6 N -4.91493 1.18744 -0.271018 0
M  V30 7 C -4.36745 2.35933 -0.617192 0
M  V30 8 C -4.76737 3.57973 -0.0738346 0
M  V30 9 C -4.54366 -0.10767 -0.795352 0 CFG=2
M  V30 10 O -4.97993 -1.05234 0.128126 0
M  V30 11 C -3.96707 -1.89864 0.472519 0 CFG=2
M  V30 12 C -4.06947 -2.37069 1.90924 0
M  V30 13 O -3.05541 -3.22549 2.26453 0
M  V30 14 C -2.70392 -1.05151 0.29004 0 CFG=1
M  V30 15 O -1.57262 -1.80554 0.180906 0
M  V30 16 C -3.06398 -0.259338 -0.960421 0 CFG=1
M  V30 17 O -2.65015 -0.83031 -2.10381 0
M  V30 18 P -1.56725 -0.132299 -3.09722 0
M  V30 19 O -1.28495 1.51833 -2.86105 0
M  V30 20 O -1.85477 -0.309053 -4.57627 0
M  V30 21 O -0.0460476 -0.889574 -2.87383 0
M  V30 22 C 0.815253 -0.0489764 -2.19614 0
M  V30 23 C 2.16919 -0.645212 -1.97217 0 CFG=1
M  V30 24 O 2.99991 0.227213 -1.29119 0
M  V30 25 C 3.84889 -0.560345 -0.56329 0 CFG=2
M  V30 26 C 2.922 -1.58746 0.0317589 0 CFG=2
M  V30 27 O 3.64505 -2.67846 0.453697 0
M  V30 28 C 2.0815 -1.92532 -1.21124 0 CFG=2
M  V30 29 O 2.73285 -2.98014 -1.84375 0
M  V30 30 N 4.64955 0.128878 0.388807 0
M  V30 31 C 4.31258 1.36083 0.878873 0
M  V30 32 N 5.22716 1.76732 1.74273 0
M  V30 33 C 6.18768 0.826809 1.85 0
M  V30 34 C 5.78862 -0.182073 0.98656 0
M  V30 35 N 6.57221 -1.25268 0.897072 0
M  V30 36 C 7.71695 -1.37887 1.60718 0
M  V30 37 N 8.10404 -0.386057 2.45312 0
M  V30 38 C 7.35213 0.71421 2.58178 0
M  V30 39 N 7.72486 1.75924 3.44911 0
M  V30 40 H -5.60277 5.68009 1.33404 0
M  V30 41 H -7.09406 4.92928 1.95803 0
M  V30 42 H -3.58434 2.36307 -1.35526 0
M  V30 43 H -4.31605 4.50419 -0.364959 0
M  V30 44 H -5.10298 -0.343824 -1.73212 0
M  V30 45 H -3.91178 -2.82778 -0.14365 0
M  V30 46 H -4.10731 -1.46965 2.57957 0
M  V30 47 H -5.06226 -2.859 2.05504 0
M  V30 48 H -3.42643 -4.13866 2.32288 0
M  V30 49 H -2.6307 -0.421982 1.19672 0
M  V30 50 H -1.0488 -1.87182 1.01632 0
M  V30 51 H -2.58505 0.721557 -0.828681 0
M  V30 52 H -2.09599 1.97749 -3.17436 0
M  V30 53 H 0.383843 0.30006 -1.23734 0
M  V30 54 H 0.951269 0.857149 -2.84626 0
M  V30 55 H 2.69595 -0.870698 -2.93872 0
M  V30 56 H 4.50057 -1.11343 -1.29724 0
M  V30 57 H 2.22136 -1.18444 0.758967 0
M  V30 58 H 3.11834 -3.51282 0.532821 0
M  V30 59 H 1.0507 -2.20969 -0.943793 0
M  V30 60 H 3.35651 -2.68083 -2.55618 0
M  V30 61 H 3.42786 1.93266 0.608859 0
M  V30 62 H 8.32499 -2.27478 1.49912 0
M  V30 63 H 8.02125 1.52379 4.44214 0
M  V30 64 H 7.72339 2.75 3.16658 0
M  V30 END ATOM
M  V30 BEGIN BOND
M  V30 1 1 1 2
M  V30 2 2 2 3
M  V30 3 1 3 4
M  V30 4 2 4 5
M  V30 5 1 4 6
M  V30 6 1 6 7
M  V30 7 2 7 8
M  V30 8 1 6 9
M  V30 9 1 9 10
M  V30 10 1 10 11
M  V30 11 1 11 12
M  V30 12 1 12 13
M  V30 13 1 11 14
M  V30 14 1 14 15
M  V30 15 1 14 16
M  V30 16 1 16 17
M  V30 17 1 17 18
M  V30 18 1 18 19
M  V30 19 2 18 20
M  V30 20 1 18 21
M  V30 21 1 21 22
M  V30 22 1 22 23
M  V30 23 1 23 24
M  V30 24 1 24 25
M  V30 25 1 25 26
M  V30 26 1 26 27
M  V30 27 1 26 28
M  V30 28 1 28 29
M  V30 29 1 25 30
M  V30 30 1 30 31
M  V30 31 2 31 32
M  V30 32 1 32 33
M  V30 33 2 33 34
M  V30 34 1 34 35
M  V30 35 2 35 36
M  V30 36 1 36 37
M  V30 37 2 37 38
M  V30 38 1 38 39
M  V30 39 1 8 2
M  V30 40 1 16 9
M  V30 41 1 28 23
M  V30 42 1 34 30
M  V30 43 1 38 33
M  V30 44 1 1 40
M  V30 45 1 1 41
M  V30 46 1 7 42
M  V30 47 1 8 43
M  V30 48 1 9 44 CFG=3
M  V30 49 1 11 45 CFG=3
M  V30 50 1 12 46
M  V30 51 1 12 47
M  V30 52 1 13 48
M  V30 53 1 14 49 CFG=1
M  V30 54 1 15 50
M  V30 55 1 16 51 CFG=1
M  V30 56 1 19 52
M  V30 57 1 22 53
M  V30 58 1 22 54
M  V30 59 1 23 55 CFG=3
M  V30 60 1 25 56 CFG=3
M  V30 61 1 26 57 CFG=1
M  V30 62 1 27 58
M  V30 63 1 28 59 CFG=1
M  V30 64 1 29 60
M  V30 65 1 31 61
M  V30 66 1 36 62
M  V30 67 1 39 63
M  V30 68 1 39 64
M  V30 END BOND
M  V30 END CTAB
M  END
