
     RDKit          3D

  0  0  0  0  0  0  0  0  0  0999 V3000
M  V30 BEGIN CTAB
M  V30 COUNTS 66 71 0 0 0
M  V30 BEGIN ATOM
M  V30 1 N 9.4621 2.60764 -1.35373 0
M  V30 2 C 8.13046 2.13165 -1.21764 0
M  V30 3 N 7.05819 2.91343 -1.48577 0
M  V30 4 C 5.79711 2.44648 -1.35159 0
M  V30 5 N 5.51847 1.19383 -0.949255 0
M  V30 6 C 6.54562 0.374129 -0.669457 0
M  V30 7 C 7.84005 0.840587 -0.803018 0
M  V30 8 N 8.62782 -0.175552 -0.462786 0
M  V30 9 C 7.86002 -1.22806 -0.132002 0
M  V30 10 N 6.54577 -0.907414 -0.253914 0
M  V30 11 C 5.44451 -1.77613 0.0127218 0 CFG=2
M  V30 12 O 4.36964 -1.63135 -0.823472 0
M  V30 13 C 3.22097 -1.94837 -0.152013 0 CFG=2
M  V30 14 C 2.19102 -0.85168 -0.246242 0
M  V30 15 O 1.02173 -1.18237 0.441215 0
M  V30 16 P -0.130754 0.0324902 0.341999 0
M  V30 17 O 0.203466 1.14021 -0.885543 0
M  V30 18 O -0.312648 0.70441 1.67468 0
M  V30 19 O -1.62218 -0.705226 -0.0494002 0
M  V30 20 C -2.69036 -0.035238 0.498569 0 CFG=2
M  V30 21 C -3.548 -0.924094 1.37408 0 CFG=1
M  V30 22 C -3.32474 -0.674212 2.83292 0
M  V30 23 O -3.55287 0.674478 3.08628 0
M  V30 24 O -4.86567 -0.583848 1.06577 0
M  V30 25 C -4.84112 -0.549412 -0.315607 0 CFG=2
M  V30 26 C -3.63627 0.330861 -0.62146 0 CFG=2
M  V30 27 O -3.14833 -0.114227 -1.8668 0
M  V30 28 N -6.03757 0.00386717 -0.88501 0
M  V30 29 C -6.43413 -0.120032 -2.1622 0
M  V30 30 N -7.60008 0.530594 -2.32228 0
M  V30 31 C -7.96982 1.08397 -1.14378 0
M  V30 32 C -6.97959 0.743631 -0.256037 0
M  V30 33 N -7.11586 1.18307 1.01257 0
M  V30 34 C -8.18219 1.91917 1.36585 0
M  V30 35 N -9.14659 2.25026 0.499967 0
M  V30 36 C -9.07577 1.84512 -0.785491 0
M  V30 37 N -10.0608 2.1625 -1.74364 0
M  V30 38 C 3.55778 -2.30507 1.25989 0 CFG=1
M  V30 39 O 3.73359 -3.66934 1.45598 0
M  V30 40 C 4.91304 -1.64748 1.43249 0 CFG=1
M  V30 41 O 5.64765 -2.4163 2.32798 0
M  V30 42 H 10.2119 2.47223 -0.644179 0
M  V30 43 H 9.71598 3.12892 -2.21856 0
M  V30 44 H 5.00146 3.15793 -1.59315 0
M  V30 45 H 8.25868 -2.18024 0.18215 0
M  V30 46 H 5.79734 -2.84487 -0.0751389 0
M  V30 47 H 2.76787 -2.84342 -0.652922 0
M  V30 48 H 2.59587 0.140413 0.0593703 0
M  V30 49 H 1.90387 -0.741797 -1.31536 0
M  V30 50 H 0.960335 1.74394 -0.660336 0
M  V30 51 H -2.43105 0.849968 1.08952 0
M  V30 52 H -3.31664 -1.97438 1.08184 0
M  V30 53 H -4.12432 -1.23108 3.38616 0
M  V30 54 H -2.3599 -1.03419 3.21001 0
M  V30 55 H -2.71699 1.17132 3.29885 0
M  V30 56 H -4.60998 -1.57747 -0.708425 0
M  V30 57 H -3.87349 1.39547 -0.62103 0
M  V30 58 H -3.17306 -1.11981 -1.79609 0
M  V30 59 H -5.93799 -0.643342 -2.96709 0
M  V30 60 H -8.27709 2.26343 2.38458 0
M  V30 61 H -9.84101 2.7933 -2.5282 0
M  V30 62 H -11.006 1.76086 -1.65828 0
M  V30 63 H 2.87085 -1.85603 2.00406 0
M  V30 64 H 3.32336 -3.9707 2.30019 0
M  V30 65 H 4.75223 -0.618639 1.74465 0
M  V30 66 H 6.09418 -1.90881 3.02639 0
M  V30 END ATOM
M  V30 BEGIN BOND
M  V30 1 1 1 2
M  V30 2 2 2 3
M  V30 3 1 3 4
M  V30 4 2 4 5
M  V30 5 1 5 6
M  V30 6 2 6 7
M  V30 7 1 7 8
M  V30 8 2 8 9
M  V30 9 1 9 10
M  V30 10 1 10 11
M  V30 11 1 11 12
M  V30 12 1 12 13
M  V30 13 1 13 14
M  V30 14 1 14 15
M  V30 15 1 15 16
M  V30 16 1 16 17
M  V30 17 2 16 18
M  V30 18 1 16 19
M  V30 19 1 19 20
M  V30 20 1 20 21
M  V30 21 1 21 22
M  V30 22 1 22 23
M  V30 23 1 21 24
M  V30 24 1 24 25
M  V30 25 1 25 26
M  V30 26 1 26 27
M  V30 27 1 25 28
M  V30 28 1 28 29
M  V30 29 2 29 30
M  V30 30 1 30 31
M  V30 31 2 31 32
M  V30 32 1 32 33
M  V30 33 2 33 34
M  V30 34 1 34 35
M  V30 35 2 35 36
M  V30 36 1 36 37
M  V30 37 1 13 38
M  V30 38 1 38 39
M  V30 39 1 38 40
M  V30 40 1 40 41
M  V30 41 1 7 2
M  V30 42 1 40 11
M  V30 43 1 10 6
M  V30 44 1 26 20
M  V30 45 1 32 28
M  V30 46 1 36 31
M  V30 47 1 1 42
M  V30 48 1 1 43
M  V30 49 1 4 44
M  V30 50 1 9 45
M  V30 51 1 11 46 CFG=1
M  V30 52 1 13 47 CFG=3
M  V30 53 1 14 48
M  V30 54 1 14 49
M  V30 55 1 17 50
M  V30 56 1 20 51 CFG=1
M  V30 57 1 21 52 CFG=1
M  V30 58 1 22 53
M  V30 59 1 22 54
M  V30 60 1 23 55
M  V30 61 1 25 56 CFG=3
M  V30 62 1 26 57 CFG=3
M  V30 63 1 27 58
M  V30 64 1 29 59
M  V30 65 1 34 60
M  V30 66 1 37 61
M  V30 67 1 37 62
M  V30 68 1 38 63 CFG=1
M  V30 69 1 39 64
M  V30 70 1 40 65 CFG=1
M  V30 71 1 41 66
M  V30 END BOND
M  V30 END CTAB
M  END
