
     RDKit          3D

  0  0  0  0  0  0  0  0  0  0999 V3000
M  V30 BEGIN CTAB
M  V30 COUNTS 22 22 0 0 0
M  V30 BEGIN ATOM
M  V30 1 C 3.02244 0.217431 0.424599 0
M  V30 2 C 2.18276 0.605942 -0.786442 0
M  V30 3 N 0.83267 0.172378 -0.50901 0
M  V30 4 C 0.439505 -1.05932 -0.871594 0
M  V30 5 O 1.26152 -1.83055 -1.45576 0
M  V30 6 N -0.787264 -1.55264 -0.659324 0
M  V30 7 C -1.6798 -0.741154 -0.0354551 0
M  V30 8 N -3.00412 -1.17815 0.232045 0
M  V30 9 C -1.29747 0.533179 0.347853 0
M  V30 10 N -2.28706 1.34593 1.00463 0
M  V30 11 C -0.0353719 0.991951 0.109919 0
M  V30 12 O 0.275182 2.15747 0.473583 0
M  V30 13 H 2.85595 1.01057 1.18333 0
M  V30 14 H 4.09366 0.189503 0.187384 0
M  V30 15 H 2.63966 -0.735995 0.856868 0
M  V30 16 H 2.25488 1.70062 -0.938307 0
M  V30 17 H 2.54745 0.0778388 -1.69364 0
M  V30 18 H -1.09038 -2.51682 -0.944689 0
M  V30 19 H -3.55526 -1.62167 -0.514414 0
M  V30 20 H -3.39279 -1.04267 1.17519 0
M  V30 21 H -2.8605 1.94241 0.370468 0
M  V30 22 H -2.41568 1.33373 2.04276 0
M  V30 END ATOM
M  V30 BEGIN BOND
M  V30 1 1 1 2
M  V30 2 1 2 3
M  V30 3 1 3 4
M  V30 4 2 4 5
M  V30 5 1 4 6
M  V30 6 1 6 7
M  V30 7 1 7 8
M  V30 8 2 7 9
M  V30 9 1 9 10
M  V30 10 1 9 11
M  V30 11 2 11 12
M  V30 12 1 11 3
M  V30 13 1 1 13
M  V30 14 1 1 14
M  V30 15 1 1 15
M  V30 16 1 2 16
M  V30 17 1 2 17
M  V30 18 1 6 18
M  V30 19 1 8 19
M  V30 20 1 8 20
M  V30 21 1 10 21
M  V30 22 1 10 22
M  V30 END BOND
M  V30 END CTAB
M  END
