
     RDKit          3D

  0  0  0  0  0  0  0  0  0  0999 V3000
M  V30 BEGIN CTAB
M  V30 COUNTS 45 48 0 0 0
M  V30 BEGIN ATOM
M  V30 1 C -0.153806 3.22976 1.21753 0
M  V30 2 C -0.68097 3.04634 -0.159613 0
M  V30 3 C -0.441862 1.74466 -0.821635 0
M  V30 4 N -0.968603 0.580771 -0.172861 0
M  V30 5 C -0.180669 -0.122239 0.650502 0
M  V30 6 S 1.53158 0.277133 0.93315 0
M  V30 7 C 2.49493 -0.633795 -0.317298 0
M  V30 8 C 3.9356 -0.395587 -0.201301 0
M  V30 9 N 4.48507 0.61799 -0.881549 0
M  V30 10 C 5.79856 0.89605 -0.823755 0
M  V30 11 N 6.31811 1.97256 -1.55951 0
M  V30 12 N 6.5616 0.121864 -0.0555682 0
M  V30 13 C 6.07227 -0.911666 0.652976 0
M  V30 14 N 4.73423 -1.15216 0.560527 0
M  V30 15 N 6.94122 -1.68734 1.44457 0
M  V30 16 N -0.711518 -1.1924 1.26517 0
M  V30 17 C -2.01791 -1.56085 1.06067 0
M  V30 18 C -2.83902 -0.862798 0.227486 0
M  V30 19 C -2.24998 0.253124 -0.399564 0
M  V30 20 O -2.88423 0.983281 -1.18781 0
M  V30 21 C -4.12085 -1.31753 0.0966388 0
M  V30 22 C -5.39195 -0.922445 -0.659277 0
M  V30 23 C -6.10529 -2.24098 -0.818899 0
M  V30 24 C -5.89958 -2.82259 0.567082 0
M  V30 25 C -4.45613 -2.42613 0.811285 0
M  V30 26 S -3.02148 -2.81463 1.63788 0
M  V30 27 H -0.541048 4.25044 1.55088 0
M  V30 28 H 0.944981 3.36194 1.26118 0
M  V30 29 H -0.472529 2.48168 1.95917 0
M  V30 30 H -1.77917 3.31175 -0.234119 0
M  V30 31 H -0.201013 3.85987 -0.786827 0
M  V30 32 H 0.652655 1.64664 -1.01965 0
M  V30 33 H -0.8915 1.82118 -1.85601 0
M  V30 34 H 2.32774 -1.73433 -0.18861 0
M  V30 35 H 2.11278 -0.326898 -1.30263 0
M  V30 36 H 6.23786 2.97032 -1.23356 0
M  V30 37 H 6.80211 1.80803 -2.45783 0
M  V30 38 H 7.51935 -2.47322 1.03346 0
M  V30 39 H 7.05008 -1.52182 2.45688 0
M  V30 40 H -5.14941 -0.500568 -1.63287 0
M  V30 41 H -6.00341 -0.274522 -0.00286077 0
M  V30 42 H -5.61264 -2.9105 -1.53772 0
M  V30 43 H -7.17788 -2.11337 -0.989489 0
M  V30 44 H -6.57653 -2.39026 1.32602 0
M  V30 45 H -5.99174 -3.92678 0.587759 0
M  V30 END ATOM
M  V30 BEGIN BOND
M  V30 1 1 1 2
M  V30 2 1 2 3
M  V30 3 1 3 4
M  V30 4 1 4 5
M  V30 5 1 5 6
M  V30 6 1 6 7
M  V30 7 1 7 8
M  V30 8 2 8 9
M  V30 9 1 9 10
M  V30 10 1 10 11
M  V30 11 2 10 12
M  V30 12 1 12 13
M  V30 13 2 13 14
M  V30 14 1 13 15
M  V30 15 2 5 16
M  V30 16 1 16 17
M  V30 17 2 17 18
M  V30 18 1 18 19
M  V30 19 2 19 20
M  V30 20 1 18 21
M  V30 21 1 21 22
M  V30 22 1 22 23
M  V30 23 1 23 24
M  V30 24 1 24 25
M  V30 25 1 25 26
M  V30 26 1 19 4
M  V30 27 2 25 21
M  V30 28 1 14 8
M  V30 29 1 26 17
M  V30 30 1 1 27
M  V30 31 1 1 28
M  V30 32 1 1 29
M  V30 33 1 2 30
M  V30 34 1 2 31
M  V30 35 1 3 32
M  V30 36 1 3 33
M  V30 37 1 7 34
M  V30 38 1 7 35
M  V30 39 1 11 36
M  V30 40 1 11 37
M  V30 41 1 15 38
M  V30 42 1 15 39
M  V30 43 1 22 40
M  V30 44 1 22 41
M  V30 45 1 23 42
M  V30 46 1 23 43
M  V30 47 1 24 44
M  V30 48 1 24 45
M  V30 END BOND
M  V30 END CTAB
M  END
