
     RDKit          3D

  0  0  0  0  0  0  0  0  0  0999 V3000
M  V30 BEGIN CTAB
M  V30 COUNTS 30 31 0 0 0
M  V30 BEGIN ATOM
M  V30 1 N -4.62954 -0.844097 1.52441 0
M  V30 2 C -3.62585 -0.272894 0.702593 0
M  V30 3 C -3.52329 -0.54673 -0.648421 0
M  V30 4 C -2.54942 0.00616227 -1.45045 0
M  V30 5 C -1.61004 0.886499 -0.900406 0
M  V30 6 C -1.69064 1.17632 0.444903 0
M  V30 7 C -2.6917 0.596038 1.2242 0
M  V30 8 S -0.386289 1.58057 -1.95317 0
M  V30 9 O -1.05856 1.87884 -3.25663 0
M  V30 10 O 0.0156428 2.92681 -1.37446 0
M  V30 11 N 0.974595 0.574582 -2.13783 0
M  V30 12 C 1.82407 0.171141 -1.09739 0
M  V30 13 N 1.64945 0.543126 0.169809 0
M  V30 14 C 2.46003 0.158729 1.16596 0
M  V30 15 C 3.54628 -0.669697 0.895508 0
M  V30 16 N 4.40427 -1.08075 1.92862 0
M  V30 17 C 3.77683 -1.08697 -0.399171 0
M  V30 18 C 2.90752 -0.656559 -1.37442 0
M  V30 19 H -4.98079 -0.377045 2.3819 0
M  V30 20 H -5.03763 -1.76453 1.27051 0
M  V30 21 H -4.25833 -1.23132 -1.06262 0
M  V30 22 H -2.48048 -0.220075 -2.51944 0
M  V30 23 H -0.968863 1.86664 0.897172 0
M  V30 24 H -2.70497 0.863927 2.2856 0
M  V30 25 H 1.17692 0.239451 -3.11999 0
M  V30 26 H 2.33205 0.452308 2.20205 0
M  V30 27 H 4.08341 -1.06096 2.9101 0
M  V30 28 H 5.37102 -1.40734 1.69791 0
M  V30 29 H 4.61147 -1.7309 -0.644859 0
M  V30 30 H 3.06284 -0.971267 -2.41876 0
M  V30 END ATOM
M  V30 BEGIN BOND
M  V30 1 1 1 2
M  V30 2 2 2 3
M  V30 3 1 3 4
M  V30 4 2 4 5
M  V30 5 1 5 6
M  V30 6 2 6 7
M  V30 7 1 5 8
M  V30 8 2 8 9
M  V30 9 2 8 10
M  V30 10 1 8 11
M  V30 11 1 11 12
M  V30 12 2 12 13
M  V30 13 1 13 14
M  V30 14 2 14 15
M  V30 15 1 15 16
M  V30 16 1 15 17
M  V30 17 2 17 18
M  V30 18 1 7 2
M  V30 19 1 18 12
M  V30 20 1 1 19
M  V30 21 1 1 20
M  V30 22 1 3 21
M  V30 23 1 4 22
M  V30 24 1 6 23
M  V30 25 1 7 24
M  V30 26 1 11 25
M  V30 27 1 14 26
M  V30 28 1 16 27
M  V30 29 1 16 28
M  V30 30 1 17 29
M  V30 31 1 18 30
M  V30 END BOND
M  V30 END CTAB
M  END
