
     RDKit          3D

  0  0  0  0  0  0  0  0  0  0999 V3000
M  V30 BEGIN CTAB
M  V30 COUNTS 30 32 0 0 0
M  V30 BEGIN ATOM
M  V30 1 N -5.51713 1.108 0.221456 0
M  V30 2 C -4.26201 0.499654 -0.0407193 0
M  V30 3 C -4.14692 -0.640986 -0.811138 0
M  V30 4 C -2.87739 -1.14278 -0.998184 0
M  V30 5 C -1.74554 -0.564199 -0.459088 0
M  V30 6 C -0.489121 -1.09246 -0.665963 0
M  V30 7 C 0.596175 -0.449057 -0.0880659 0
M  V30 8 C 1.85606 -0.939508 -0.268547 0
M  V30 9 C 2.95519 -0.293971 0.312498 0
M  V30 10 C 2.78424 0.841506 1.07241 0
M  V30 11 C 1.52179 1.34812 1.26369 0
M  V30 12 C 0.436679 0.688621 0.674784 0
M  V30 13 N -0.799861 1.17268 0.85373 0
M  V30 14 C -1.88091 0.581685 0.31241 0
M  V30 15 C -3.14638 1.0956 0.508302 0
M  V30 16 S 4.57223 -0.903476 0.0946007 0
M  V30 17 N 5.25949 -0.176195 -1.31703 0
M  V30 18 O 4.54453 -2.40359 -0.155795 0
M  V30 19 O 5.40588 -0.569654 1.29586 0
M  V30 20 H -5.77145 2.01495 -0.219615 0
M  V30 21 H -6.16704 0.614872 0.866834 0
M  V30 22 H -5.03782 -1.08862 -1.2301 0
M  V30 23 H -2.78033 -2.036 -1.60063 0
M  V30 24 H -0.356802 -1.99248 -1.26871 0
M  V30 25 H 2.01165 -1.83219 -0.863319 0
M  V30 26 H 3.62931 1.33525 1.5174 0
M  V30 27 H 1.34522 2.24694 1.86009 0
M  V30 28 H -3.20282 1.99959 1.12319 0
M  V30 29 H 6.3024 -0.239025 -1.25287 0
M  V30 30 H 4.96069 0.816717 -1.43721 0
M  V30 END ATOM
M  V30 BEGIN BOND
M  V30 1 1 1 2
M  V30 2 2 2 3
M  V30 3 1 3 4
M  V30 4 2 4 5
M  V30 5 1 5 6
M  V30 6 2 6 7
M  V30 7 1 7 8
M  V30 8 2 8 9
M  V30 9 1 9 10
M  V30 10 2 10 11
M  V30 11 1 11 12
M  V30 12 2 12 13
M  V30 13 1 13 14
M  V30 14 2 14 15
M  V30 15 1 9 16
M  V30 16 1 16 17
M  V30 17 2 16 18
M  V30 18 2 16 19
M  V30 19 1 15 2
M  V30 20 1 14 5
M  V30 21 1 12 7
M  V30 22 1 1 20
M  V30 23 1 1 21
M  V30 24 1 3 22
M  V30 25 1 4 23
M  V30 26 1 6 24
M  V30 27 1 8 25
M  V30 28 1 10 26
M  V30 29 1 11 27
M  V30 30 1 15 28
M  V30 31 1 17 29
M  V30 32 1 17 30
M  V30 END BOND
M  V30 END CTAB
M  END
