
     RDKit          3D

  0  0  0  0  0  0  0  0  0  0999 V3000
M  V30 BEGIN CTAB
M  V30 COUNTS 50 53 0 0 0
M  V30 BEGIN ATOM
M  V30 1 C -7.11524 2.78237 -0.241245 0
M  V30 2 O -6.89543 1.44181 -0.0696732 0
M  V30 3 C -5.60148 1.08731 0.249204 0
M  V30 4 C -4.69051 1.52854 -0.845028 0
M  V30 5 O -3.33374 1.22342 -0.640996 0
M  V30 6 C -2.78064 -0.0142147 -0.484589 0
M  V30 7 O -3.55618 -1.00863 -0.524974 0
M  V30 8 C -1.37486 -0.284362 -0.275533 0
M  V30 9 C -0.39866 0.684433 -0.206188 0
M  V30 10 N -0.552884 2.09042 -0.319399 0
M  V30 11 N 0.803527 0.0971043 -0.00402449 0
M  V30 12 C 0.643985 -1.23386 0.06155 0
M  V30 13 C -0.725186 -1.47996 -0.108686 0
M  V30 14 N -1.20852 -2.7334 -0.0922607 0
M  V30 15 C -0.347699 -3.75574 0.0919793 0
M  V30 16 C -0.737298 -5.06996 0.125166 0
M  V30 17 C 0.161256 -6.102 0.315186 0
M  V30 18 C 1.50239 -5.82259 0.479411 0
M  V30 19 C 1.92614 -4.51034 0.451003 0
M  V30 20 C 1.00588 -3.48981 0.258787 0
M  V30 21 N 1.49767 -2.23222 0.243243 0
M  V30 22 C 2.03811 0.785785 0.118876 0
M  V30 23 C 2.66956 1.27792 -1.01314 0
M  V30 24 C 3.85651 1.95091 -0.987712 0
M  V30 25 C 4.45404 2.1456 0.256097 0
M  V30 26 C 3.85017 1.66788 1.39912 0
M  V30 27 C 2.65889 0.998605 1.32087 0
M  V30 28 S 5.97503 3.00963 0.274845 0
M  V30 29 O 6.0115 3.96467 -0.898849 0
M  V30 30 O 6.0901 3.83962 1.51517 0
M  V30 31 N 7.25186 1.87919 0.116762 0
M  V30 32 H -6.87428 3.38326 0.67488 0
M  V30 33 H -8.22585 2.89142 -0.41392 0
M  V30 34 H -6.64547 3.25869 -1.09841 0
M  V30 35 H -5.61243 -0.0244088 0.385683 0
M  V30 36 H -5.33382 1.5387 1.23416 0
M  V30 37 H -5.08902 1.20203 -1.80416 0
M  V30 38 H -4.72859 2.6591 -0.852517 0
M  V30 39 H -0.0978915 2.57986 -1.11208 0
M  V30 40 H -1.09931 2.65977 0.351454 0
M  V30 41 H -1.79022 -5.31951 -0.00178749 0
M  V30 42 H -0.178866 -7.14346 0.337221 0
M  V30 43 H 2.19773 -6.65124 0.628416 0
M  V30 44 H 2.98019 -4.2865 0.579789 0
M  V30 45 H 2.17019 1.10424 -1.95883 0
M  V30 46 H 4.29355 2.30703 -1.90357 0
M  V30 47 H 4.33987 1.83496 2.35415 0
M  V30 48 H 2.21784 0.641051 2.22949 0
M  V30 49 H 7.05725 1.03577 0.681275 0
M  V30 50 H 7.34086 1.61111 -0.876207 0
M  V30 END ATOM
M  V30 BEGIN BOND
M  V30 1 1 1 2
M  V30 2 1 2 3
M  V30 3 1 3 4
M  V30 4 1 4 5
M  V30 5 1 5 6
M  V30 6 2 6 7
M  V30 7 1 6 8
M  V30 8 2 8 9
M  V30 9 1 9 10
M  V30 10 1 9 11
M  V30 11 1 11 12
M  V30 12 2 12 13
M  V30 13 1 13 14
M  V30 14 2 14 15
M  V30 15 1 15 16
M  V30 16 2 16 17
M  V30 17 1 17 18
M  V30 18 2 18 19
M  V30 19 1 19 20
M  V30 20 2 20 21
M  V30 21 1 11 22
M  V30 22 2 22 23
M  V30 23 1 23 24
M  V30 24 2 24 25
M  V30 25 1 25 26
M  V30 26 2 26 27
M  V30 27 1 25 28
M  V30 28 2 28 29
M  V30 29 2 28 30
M  V30 30 1 28 31
M  V30 31 1 13 8
M  V30 32 1 20 15
M  V30 33 1 27 22
M  V30 34 1 21 12
M  V30 35 1 1 32
M  V30 36 1 1 33
M  V30 37 1 1 34
M  V30 38 1 3 35
M  V30 39 1 3 36
M  V30 40 1 4 37
M  V30 41 1 4 38
M  V30 42 1 10 39
M  V30 43 1 10 40
M  V30 44 1 16 41
M  V30 45 1 17 42
M  V30 46 1 18 43
M  V30 47 1 19 44
M  V30 48 1 23 45
M  V30 49 1 24 46
M  V30 50 1 26 47
M  V30 51 1 27 48
M  V30 52 1 31 49
M  V30 53 1 31 50
M  V30 END BOND
M  V30 END CTAB
M  END
