
     RDKit          3D

  0  0  0  0  0  0  0  0  0  0999 V3000
M  V30 BEGIN CTAB
M  V30 COUNTS 73 75 0 0 0
M  V30 BEGIN ATOM
M  V30 1 N 5.15171 -2.27975 1.92598 0
M  V30 2 C 4.5906 -1.31663 1.01549 0
M  V30 3 C 5.51399 -1.04834 -0.10209 0
M  V30 4 C 5.18708 -0.0940666 -1.15739 0
M  V30 5 C 4.1404 -0.255921 -2.15324 0
M  V30 6 C 2.71688 -0.468162 -1.86261 0 CFG=2
M  V30 7 C 2.03454 0.526141 -1.03648 0
M  V30 8 O 2.79326 1.47843 -0.61403 0
M  V30 9 N 0.702837 0.514193 -0.695567 0
M  V30 10 C -0.247128 -0.467758 -1.32714 0
M  V30 11 C -1.1096 -1.19284 -0.39389 0
M  V30 12 N -2.35284 -0.883333 0.0381639 0
M  V30 13 C -3.30026 0.0489255 -0.209037 0
M  V30 14 C -3.40184 1.24275 0.784904 0
M  V30 15 C -3.08402 2.51865 0.172749 0
M  V30 16 N -2.02909 3.41082 0.528136 0
M  V30 17 C -0.835879 3.26833 1.27517 0
M  V30 18 C 0.147467 2.25872 1.17508 0
M  V30 19 C -0.0519588 1.27724 0.197253 0
M  V30 20 C 1.23478 2.25104 2.01417 0
M  V30 21 C 1.41478 3.22165 2.97983 0
M  V30 22 C 0.477084 4.225 3.10651 0
M  V30 23 C -0.61623 4.23307 2.26667 0
M  V30 24 C -2.25316 4.73899 0.00623006 0
M  V30 25 O -1.45796 5.67196 0.170557 0
M  V30 26 C -3.48441 5.0278 -0.766323 0
M  V30 27 C -2.71969 -1.7613 1.16083 0
M  V30 28 C -2.72221 -3.19096 0.789091 0
M  V30 29 C -3.82232 -3.73545 0.177142 0
M  V30 30 C -3.84523 -5.06131 -0.172601 0
M  V30 31 C -2.76098 -5.8645 0.0870386 0
M  V30 32 C -1.63588 -5.35966 0.699585 0
M  V30 33 C -1.64929 -4.01261 1.03919 0
M  V30 34 F -2.83132 -7.17619 -0.279485 0
M  V30 35 N 2.39132 -1.83106 -1.64079 0
M  V30 36 H 6.08449 -2.50694 1.83755 0
M  V30 37 H 4.67492 -2.34839 2.7641 0
M  V30 38 H 3.59656 -1.6819 0.814074 0
M  V30 39 H 4.47783 -0.403668 1.67088 0
M  V30 40 H 5.77205 -2.08365 -0.544571 0
M  V30 41 H 6.51861 -0.79353 0.384688 0
M  V30 42 H 5.13547 0.959376 -0.661897 0
M  V30 43 H 6.18857 0.0337503 -1.7585 0
M  V30 44 H 4.24345 0.598566 -2.94194 0
M  V30 45 H 4.49663 -1.13164 -2.83643 0
M  V30 46 H 2.23127 -0.304598 -2.96568 0
M  V30 47 H -0.968966 0.256297 -1.8914 0
M  V30 48 H 0.244378 -0.969819 -2.13107 0
M  V30 49 H -0.462688 -1.51373 0.484895 0
M  V30 50 H -1.21548 -2.22392 -0.896568 0
M  V30 51 H -3.11885 0.546988 -1.21016 0
M  V30 52 H -4.31082 -0.418696 -0.351522 0
M  V30 53 H -2.77476 1.03761 1.69021 0
M  V30 54 H -4.44603 1.14372 1.21596 0
M  V30 55 H -3.0071 2.36782 -0.951184 0
M  V30 56 H -4.07093 3.09832 0.218989 0
M  V30 57 H -0.444258 0.452215 0.849237 0
M  V30 58 H -0.742638 1.75782 -0.532088 0
M  V30 59 H 1.94117 1.46092 1.94083 0
M  V30 60 H 2.29004 3.16312 3.60886 0
M  V30 61 H 0.634767 4.97469 3.86506 0
M  V30 62 H -1.30762 5.0727 2.44756 0
M  V30 63 H -4.37597 5.16747 -0.107095 0
M  V30 64 H -3.34209 5.92583 -1.40114 0
M  V30 65 H -3.74433 4.19993 -1.4625 0
M  V30 66 H -3.65508 -1.41981 1.63058 0
M  V30 67 H -1.91699 -1.59432 1.93733 0
M  V30 68 H -4.71143 -3.14495 -0.0532244 0
M  V30 69 H -4.72133 -5.51209 -0.664346 0
M  V30 70 H -0.771787 -5.98951 0.909116 0
M  V30 71 H -0.747403 -3.65018 1.52072 0
M  V30 72 H 1.87644 -2.04577 -0.770934 0
M  V30 73 H 2.16447 -2.39391 -2.46835 0
M  V30 END ATOM
M  V30 BEGIN BOND
M  V30 1 1 1 2
M  V30 2 1 2 3
M  V30 3 1 3 4
M  V30 4 1 4 5
M  V30 5 1 5 6
M  V30 6 1 6 7
M  V30 7 2 7 8
M  V30 8 1 7 9
M  V30 9 1 9 10
M  V30 10 1 10 11
M  V30 11 1 11 12
M  V30 12 1 12 13
M  V30 13 1 13 14
M  V30 14 1 14 15
M  V30 15 1 15 16
M  V30 16 1 16 17
M  V30 17 2 17 18
M  V30 18 1 18 19
M  V30 19 1 18 20
M  V30 20 2 20 21
M  V30 21 1 21 22
M  V30 22 2 22 23
M  V30 23 1 16 24
M  V30 24 2 24 25
M  V30 25 1 24 26
M  V30 26 1 12 27
M  V30 27 1 27 28
M  V30 28 2 28 29
M  V30 29 1 29 30
M  V30 30 2 30 31
M  V30 31 1 31 32
M  V30 32 2 32 33
M  V30 33 1 31 34
M  V30 34 1 6 35
M  V30 35 1 19 9
M  V30 36 1 33 28
M  V30 37 1 23 17
M  V30 38 1 1 36
M  V30 39 1 1 37
M  V30 40 1 2 38
M  V30 41 1 2 39
M  V30 42 1 3 40
M  V30 43 1 3 41
M  V30 44 1 4 42
M  V30 45 1 4 43
M  V30 46 1 5 44
M  V30 47 1 5 45
M  V30 48 1 6 46 CFG=3
M  V30 49 1 10 47
M  V30 50 1 10 48
M  V30 51 1 11 49
M  V30 52 1 11 50
M  V30 53 1 13 51
M  V30 54 1 13 52
M  V30 55 1 14 53
M  V30 56 1 14 54
M  V30 57 1 15 55
M  V30 58 1 15 56
M  V30 59 1 19 57
M  V30 60 1 19 58
M  V30 61 1 20 59
M  V30 62 1 21 60
M  V30 63 1 22 61
M  V30 64 1 23 62
M  V30 65 1 26 63
M  V30 66 1 26 64
M  V30 67 1 26 65
M  V30 68 1 27 66
M  V30 69 1 27 67
M  V30 70 1 29 68
M  V30 71 1 30 69
M  V30 72 1 32 70
M  V30 73 1 33 71
M  V30 74 1 35 72
M  V30 75 1 35 73
M  V30 END BOND
M  V30 END CTAB
M  END
