
     RDKit          3D

  0  0  0  0  0  0  0  0  0  0999 V3000
M  V30 BEGIN CTAB
M  V30 COUNTS 34 34 0 0 0
M  V30 BEGIN ATOM
M  V30 1 C -0.229099 0.252248 1.97766 0
M  V30 2 C -0.162529 -0.517593 0.691083 0
M  V30 3 C -0.193606 -1.99424 1.03979 0
M  V30 4 C -1.33525 -0.233165 -0.220592 0 CFG=1
M  V30 5 C -2.24543 0.834047 0.335318 0
M  V30 6 N -3.33499 1.05164 -0.581524 0
M  V30 7 C -0.778555 0.106699 -1.56417 0
M  V30 8 C 0.600811 -0.549261 -1.51437 0
M  V30 9 C 1.06078 -0.187188 -0.125644 0 CFG=2
M  V30 10 C 2.26452 -0.962328 0.322959 0
M  V30 11 C 1.40842 1.2784 -0.0763348 0
M  V30 12 N 2.57091 1.52834 -0.865602 0
M  V30 13 H -0.219853 1.3308 1.87482 0
M  V30 14 H -1.14971 -0.0443192 2.50583 0
M  V30 15 H 0.617037 -0.073505 2.61619 0
M  V30 16 H -0.808377 -2.11819 1.95199 0
M  V30 17 H -0.75139 -2.55424 0.233985 0
M  V30 18 H 0.798753 -2.44423 1.09428 0
M  V30 19 H -1.9838 -1.14769 -0.355764 0
M  V30 20 H -2.70743 0.400598 1.2682 0
M  V30 21 H -1.73488 1.76325 0.580681 0
M  V30 22 H -3.19987 1.8667 -1.20566 0
M  V30 23 H -3.54701 0.169231 -1.09216 0
M  V30 24 H -0.726554 1.177 -1.77801 0
M  V30 25 H -1.35773 -0.370705 -2.39186 0
M  V30 26 H 0.415518 -1.6453 -1.51543 0
M  V30 27 H 1.24965 -0.197613 -2.31121 0
M  V30 28 H 3.22864 -0.413618 0.12958 0
M  V30 29 H 2.36962 -1.9444 -0.136308 0
M  V30 30 H 2.20731 -1.01181 1.44977 0
M  V30 31 H 0.595288 1.93316 -0.408036 0
M  V30 32 H 1.67298 1.55769 0.982482 0
M  V30 33 H 2.85472 0.761817 -1.4959 0
M  V30 34 H 2.55111 2.39777 -1.41605 0
M  V30 END ATOM
M  V30 BEGIN BOND
M  V30 1 1 1 2
M  V30 2 1 2 3
M  V30 3 1 2 4
M  V30 4 1 4 5
M  V30 5 1 5 6
M  V30 6 1 4 7
M  V30 7 1 7 8
M  V30 8 1 8 9
M  V30 9 1 9 10 CFG=1
M  V30 10 1 9 11
M  V30 11 1 11 12
M  V30 12 1 9 2
M  V30 13 1 1 13
M  V30 14 1 1 14
M  V30 15 1 1 15
M  V30 16 1 3 16
M  V30 17 1 3 17
M  V30 18 1 3 18
M  V30 19 1 4 19 CFG=3
M  V30 20 1 5 20
M  V30 21 1 5 21
M  V30 22 1 6 22
M  V30 23 1 6 23
M  V30 24 1 7 24
M  V30 25 1 7 25
M  V30 26 1 8 26
M  V30 27 1 8 27
M  V30 28 1 10 28
M  V30 29 1 10 29
M  V30 30 1 10 30
M  V30 31 1 11 31
M  V30 32 1 11 32
M  V30 33 1 12 33
M  V30 34 1 12 34
M  V30 END BOND
M  V30 END CTAB
M  END
