
     RDKit          3D

  0  0  0  0  0  0  0  0  0  0999 V3000
M  V30 BEGIN CTAB
M  V30 COUNTS 19 19 0 0 0
M  V30 BEGIN ATOM
M  V30 1 N 3.13161 -0.238907 0.0652528 0
M  V30 2 C 1.75421 0.0621886 0.0338547 0
M  V30 3 C 1.28542 1.38137 0.0303817 0
M  V30 4 C -0.0624974 1.67487 -0.000322539 0
M  V30 5 Br -0.693144 3.47905 -0.00483813 0
M  V30 6 C -1.01453 0.678153 -0.0291353 0
M  V30 7 C -0.567348 -0.626559 -0.0260917 0
M  V30 8 C 0.78503 -0.920464 0.00471551 0
M  V30 9 C -1.5567 -1.73712 -0.056448 0
M  V30 10 F -1.30642 -2.57922 -1.12249 0
M  V30 11 F -1.32667 -2.47955 1.11007 0
M  V30 12 N -2.40864 0.963811 -0.061024 0
M  V30 13 H 3.5539 -0.781375 -0.698498 0
M  V30 14 H 3.7105 0.0844585 0.851365 0
M  V30 15 H 2.03333 2.18194 0.0531271 0
M  V30 16 H 1.12983 -1.94728 0.00692694 0
M  V30 17 H -2.56841 -1.33627 -0.0784615 0
M  V30 18 H -2.94993 1.1299 -0.932872 0
M  V30 19 H -2.92952 1.01101 0.854486 0
M  V30 END ATOM
M  V30 BEGIN BOND
M  V30 1 1 1 2
M  V30 2 2 2 3
M  V30 3 1 3 4
M  V30 4 1 4 5
M  V30 5 2 4 6
M  V30 6 1 6 7
M  V30 7 2 7 8
M  V30 8 1 7 9
M  V30 9 1 9 10
M  V30 10 1 9 11
M  V30 11 1 6 12
M  V30 12 1 8 2
M  V30 13 1 1 13
M  V30 14 1 1 14
M  V30 15 1 3 15
M  V30 16 1 8 16
M  V30 17 1 9 17
M  V30 18 1 12 18
M  V30 19 1 12 19
M  V30 END BOND
M  V30 END CTAB
M  END
