
     RDKit          3D

  0  0  0  0  0  0  0  0  0  0999 V3000
M  V30 BEGIN CTAB
M  V30 COUNTS 32 33 0 0 0
M  V30 BEGIN ATOM
M  V30 1 C 5.884 -0.0513712 0.401773 0
M  V30 2 O 4.79524 -0.859417 0.804992 0
M  V30 3 C 3.49994 -0.56141 0.362592 0
M  V30 4 C 3.30071 0.515579 -0.460606 0
M  V30 5 C 2.00122 0.802934 -0.895409 0
M  V30 6 C 0.931651 0.0273839 -0.512034 0
M  V30 7 C 1.15764 -1.03902 0.30699 0
M  V30 8 C 2.44971 -1.35493 0.761957 0
M  V30 9 Cl 2.73265 -2.70472 1.79944 0
M  V30 10 N -0.349731 0.313497 -1.00167 0
M  V30 11 C -1.59272 0.199535 -0.362328 0
M  V30 12 C -1.74857 -0.00540836 0.985601 0
M  V30 13 C -2.98397 -0.0809648 1.62272 0
M  V30 14 C -4.12378 0.0579809 0.864354 0
M  V30 15 C -4.01616 0.267252 -0.498971 0
M  V30 16 C -2.75757 0.334514 -1.089 0
M  V30 17 N -2.62954 0.547523 -2.49537 0
M  V30 18 N -5.39118 -0.0176347 1.50589 0
M  V30 19 H 6.79298 -0.278652 0.967577 0
M  V30 20 H 6.0785 -0.177629 -0.661748 0
M  V30 21 H 5.67025 1.04135 0.584994 0
M  V30 22 H 4.13855 1.11991 -0.758671 0
M  V30 23 H 1.91233 1.66819 -1.54448 0
M  V30 24 H 0.385393 -1.72913 0.654244 0
M  V30 25 H -0.374109 0.678149 -2.02225 0
M  V30 26 H -0.888176 -0.0967183 1.63099 0
M  V30 27 H -3.04632 -0.245293 2.69048 0
M  V30 28 H -4.89853 0.379505 -1.11364 0
M  V30 29 H -2.78315 -0.310058 -3.09953 0
M  V30 30 H -2.40233 1.47301 -2.90758 0
M  V30 31 H -5.65904 -0.797163 2.13266 0
M  V30 32 H -6.08589 0.736022 1.34604 0
M  V30 END ATOM
M  V30 BEGIN BOND
M  V30 1 1 1 2
M  V30 2 1 2 3
M  V30 3 2 3 4
M  V30 4 1 4 5
M  V30 5 2 5 6
M  V30 6 1 6 7
M  V30 7 2 7 8
M  V30 8 1 8 9
M  V30 9 1 6 10
M  V30 10 1 10 11
M  V30 11 2 11 12
M  V30 12 1 12 13
M  V30 13 2 13 14
M  V30 14 1 14 15
M  V30 15 2 15 16
M  V30 16 1 16 17
M  V30 17 1 14 18
M  V30 18 1 8 3
M  V30 19 1 16 11
M  V30 20 1 1 19
M  V30 21 1 1 20
M  V30 22 1 1 21
M  V30 23 1 4 22
M  V30 24 1 5 23
M  V30 25 1 7 24
M  V30 26 1 10 25
M  V30 27 1 12 26
M  V30 28 1 13 27
M  V30 29 1 15 28
M  V30 30 1 17 29
M  V30 31 1 17 30
M  V30 32 1 18 31
M  V30 33 1 18 32
M  V30 END BOND
M  V30 END CTAB
M  END
