
     RDKit          3D

  0  0  0  0  0  0  0  0  0  0999 V3000
M  V30 BEGIN CTAB
M  V30 COUNTS 34 34 0 0 0
M  V30 BEGIN ATOM
M  V30 1 C 3.06622 0.756829 -1.00844 0
M  V30 2 C 2.75396 -0.651091 -0.595158 0
M  V30 3 C 1.881 -0.821399 0.581982 0
M  V30 4 C 0.52217 -0.231275 0.482924 0
M  V30 5 N -0.623665 -0.885691 0.145028 0
M  V30 6 C -1.66046 -0.0469273 0.125972 0
M  V30 7 N -1.22119 1.17818 0.451142 0
M  V30 8 C 0.121395 1.06399 0.671111 0
M  V30 9 N 0.944237 2.18074 1.06583 0
M  V30 10 N -1.95082 2.36453 0.557398 0
M  V30 11 C -3.08979 -0.327123 -0.189454 0
M  V30 12 C -3.7083 -1.19436 0.9125 0
M  V30 13 C -3.25797 -1.06911 -1.47205 0
M  V30 14 C 4.11039 -1.28528 -0.234446 0
M  V30 15 H 3.51795 1.36019 -0.211006 0
M  V30 16 H 2.23321 1.26864 -1.50484 0
M  V30 17 H 3.86979 0.697767 -1.81186 0
M  V30 18 H 2.34046 -1.20626 -1.48608 0
M  V30 19 H 2.416 -0.414167 1.46901 0
M  V30 20 H 1.79256 -1.92641 0.809706 0
M  V30 21 H 1.15379 2.87623 0.321591 0
M  V30 22 H 1.28707 2.24408 2.05377 0
M  V30 23 H -2.72179 2.43753 1.2295 0
M  V30 24 H -1.70566 3.15807 -0.0445236 0
M  V30 25 H -3.67868 0.608368 -0.188699 0
M  V30 26 H -4.33917 -2.00074 0.482591 0
M  V30 27 H -4.35036 -0.568214 1.59601 0
M  V30 28 H -2.91141 -1.63897 1.54101 0
M  V30 29 H -4.31001 -0.902733 -1.83671 0
M  V30 30 H -2.59183 -0.740138 -2.2783 0
M  V30 31 H -3.16953 -2.15839 -1.24144 0
M  V30 32 H 4.05156 -2.38283 -0.23818 0
M  V30 33 H 4.34798 -0.873836 0.77061 0
M  V30 34 H 4.88088 -0.870207 -0.926499 0
M  V30 END ATOM
M  V30 BEGIN BOND
M  V30 1 1 1 2
M  V30 2 1 2 3
M  V30 3 1 3 4
M  V30 4 1 4 5
M  V30 5 2 5 6
M  V30 6 1 6 7
M  V30 7 1 7 8
M  V30 8 1 8 9
M  V30 9 1 7 10
M  V30 10 1 6 11
M  V30 11 1 11 12
M  V30 12 1 11 13
M  V30 13 1 2 14
M  V30 14 2 8 4
M  V30 15 1 1 15
M  V30 16 1 1 16
M  V30 17 1 1 17
M  V30 18 1 2 18
M  V30 19 1 3 19
M  V30 20 1 3 20
M  V30 21 1 9 21
M  V30 22 1 9 22
M  V30 23 1 10 23
M  V30 24 1 10 24
M  V30 25 1 11 25
M  V30 26 1 12 26
M  V30 27 1 12 27
M  V30 28 1 12 28
M  V30 29 1 13 29
M  V30 30 1 13 30
M  V30 31 1 13 31
M  V30 32 1 14 32
M  V30 33 1 14 33
M  V30 34 1 14 34
M  V30 END BOND
M  V30 END CTAB
M  END
