
     RDKit          3D

  0  0  0  0  0  0  0  0  0  0999 V3000
M  V30 BEGIN CTAB
M  V30 COUNTS 64 67 0 0 0
M  V30 BEGIN ATOM
M  V30 1 C -6.23286 1.99232 -0.761602 0
M  V30 2 C -4.91015 2.70944 -0.598839 0
M  V30 3 O -3.87833 1.73757 -0.612025 0
M  V30 4 C -2.55052 2.04914 -0.486016 0
M  V30 5 O -2.26928 3.28738 -0.352043 0
M  V30 6 C -1.49645 1.04554 -0.501123 0
M  V30 7 C -0.242148 1.42882 -0.378301 0
M  V30 8 N -0.00569748 2.84208 -0.234548 0
M  V30 9 N 0.839155 0.502949 -0.392803 0
M  V30 10 C 0.58203 -0.886329 -0.542493 0
M  V30 11 C -0.673523 -1.28075 -0.662821 0
M  V30 12 C -1.85451 -0.385976 -0.652611 0
M  V30 13 C -2.74831 -0.749495 0.505321 0
M  V30 14 C -2.2622 -0.675863 1.79441 0
M  V30 15 C -3.06099 -1.00787 2.89127 0
M  V30 16 C -4.36946 -1.41983 2.67856 0
M  V30 17 C -4.86223 -1.49617 1.3976 0
M  V30 18 C -4.05256 -1.16364 0.346841 0
M  V30 19 F -5.1185 -1.73549 3.77303 0
M  V30 20 C -0.896859 -2.71025 -0.822882 0
M  V30 21 O -1.94518 -3.26613 -0.412687 0
M  V30 22 C 0.178618 -3.51743 -1.5035 0
M  V30 23 C 1.45284 -3.21924 -0.79655 0
M  V30 24 C 1.73814 -1.7893 -0.552575 0
M  V30 25 C 1.52468 -4.01029 0.516186 0
M  V30 26 C 2.59213 -3.78112 -1.65788 0
M  V30 27 C 2.14401 1.04201 -0.252711 0
M  V30 28 C 2.94796 1.44899 -1.2916 0
M  V30 29 C 4.21379 1.96775 -1.09242 0
M  V30 30 C 4.67769 2.07679 0.199485 0
M  V30 31 C 3.89044 1.6758 1.25377 0
M  V30 32 C 2.64185 1.16631 1.02416 0
M  V30 33 S 6.26292 2.72112 0.549315 0
M  V30 34 O 7.22957 2.42534 -0.559822 0
M  V30 35 O 6.72955 2.12996 1.84335 0
M  V30 36 N 6.10036 4.41966 0.764334 0
M  V30 37 H -6.0376 1.06396 -1.33477 0
M  V30 38 H -6.99536 2.6271 -1.2682 0
M  V30 39 H -6.55078 1.68288 0.25779 0
M  V30 40 H -4.80703 3.3967 -1.46168 0
M  V30 41 H -4.91055 3.25449 0.372225 0
M  V30 42 H 0.0587152 3.29085 0.704947 0
M  V30 43 H 0.10912 3.46514 -1.05699 0
M  V30 44 H -2.46494 -0.478675 -1.57119 0
M  V30 45 H -1.24198 -0.35641 1.98699 0
M  V30 46 H -2.67918 -0.950537 3.91142 0
M  V30 47 H -5.88768 -1.82291 1.28997 0
M  V30 48 H -4.46201 -1.22999 -0.672972 0
M  V30 49 H -0.0331823 -4.60518 -1.38434 0
M  V30 50 H 0.26305 -3.27015 -2.56499 0
M  V30 51 H 2.49412 -1.35128 -1.25882 0
M  V30 52 H 2.23107 -1.69624 0.460068 0
M  V30 53 H 1.29912 -3.31354 1.34895 0
M  V30 54 H 2.56178 -4.38359 0.686749 0
M  V30 55 H 0.78994 -4.83616 0.436523 0
M  V30 56 H 2.75846 -4.8539 -1.42665 0
M  V30 57 H 3.51757 -3.21434 -1.536 0
M  V30 58 H 2.29414 -3.7096 -2.72262 0
M  V30 59 H 2.55838 1.35254 -2.30324 0
M  V30 60 H 4.82318 2.28085 -1.94922 0
M  V30 61 H 4.22638 1.7479 2.29246 0
M  V30 62 H 2.04134 0.856392 1.8893 0
M  V30 63 H 6.61399 4.75892 1.60558 0
M  V30 64 H 5.11397 4.72097 0.848939 0
M  V30 END ATOM
M  V30 BEGIN BOND
M  V30 1 1 1 2
M  V30 2 1 2 3
M  V30 3 1 3 4
M  V30 4 2 4 5
M  V30 5 1 4 6
M  V30 6 2 6 7
M  V30 7 1 7 8
M  V30 8 1 7 9
M  V30 9 1 9 10
M  V30 10 2 10 11
M  V30 11 1 11 12
M  V30 12 1 12 13
M  V30 13 2 13 14
M  V30 14 1 14 15
M  V30 15 2 15 16
M  V30 16 1 16 17
M  V30 17 2 17 18
M  V30 18 1 16 19
M  V30 19 1 11 20
M  V30 20 2 20 21
M  V30 21 1 20 22
M  V30 22 1 22 23
M  V30 23 1 23 24
M  V30 24 1 23 25
M  V30 25 1 23 26
M  V30 26 1 9 27
M  V30 27 2 27 28
M  V30 28 1 28 29
M  V30 29 2 29 30
M  V30 30 1 30 31
M  V30 31 2 31 32
M  V30 32 1 30 33
M  V30 33 2 33 34
M  V30 34 2 33 35
M  V30 35 1 33 36
M  V30 36 1 12 6
M  V30 37 1 18 13
M  V30 38 1 32 27
M  V30 39 1 24 10
M  V30 40 1 1 37
M  V30 41 1 1 38
M  V30 42 1 1 39
M  V30 43 1 2 40
M  V30 44 1 2 41
M  V30 45 1 8 42
M  V30 46 1 8 43
M  V30 47 1 12 44
M  V30 48 1 14 45
M  V30 49 1 15 46
M  V30 50 1 17 47
M  V30 51 1 18 48
M  V30 52 1 22 49
M  V30 53 1 22 50
M  V30 54 1 24 51
M  V30 55 1 24 52
M  V30 56 1 25 53
M  V30 57 1 25 54
M  V30 58 1 25 55
M  V30 59 1 26 56
M  V30 60 1 26 57
M  V30 61 1 26 58
M  V30 62 1 28 59
M  V30 63 1 29 60
M  V30 64 1 31 61
M  V30 65 1 32 62
M  V30 66 1 36 63
M  V30 67 1 36 64
M  V30 END BOND
M  V30 END CTAB
M  END
