
     RDKit          3D

  0  0  0  0  0  0  0  0  0  0999 V3000
M  V30 BEGIN CTAB
M  V30 COUNTS 25 26 0 0 0
M  V30 BEGIN ATOM
M  V30 1 N -3.48506 -1.26521 0.59539 0
M  V30 2 C -2.30876 -0.535388 0.994643 0
M  V30 3 C -1.4779 -0.252704 -0.267853 0
M  V30 4 C -0.27113 0.512026 0.0418976 0
M  V30 5 C -0.159303 1.8335 0.27535 0
M  V30 6 O 1.10782 2.1681 0.336082 0
M  V30 7 C 1.86569 1.14156 0.161547 0
M  V30 8 C 1.03817 0.0761889 -0.0332854 0
M  V30 9 C 1.55607 -1.23593 -0.223535 0
M  V30 10 C 2.92434 -1.34708 -0.211846 0
M  V30 11 C 3.75268 -0.257016 -0.0305416 0
M  V30 12 C 3.27105 1.00979 0.157272 0
M  V30 13 N -2.42242 0.721847 -0.988588 0
M  V30 14 H -3.98825 -0.664197 -0.0954642 0
M  V30 15 H -3.32317 -2.19695 0.203412 0
M  V30 16 H -1.65941 -1.19494 1.66816 0
M  V30 17 H -2.55723 0.358809 1.55642 0
M  V30 18 H -1.39536 -1.0927 -0.925767 0
M  V30 19 H -0.925117 2.58004 0.405594 0
M  V30 20 H 0.904785 -2.08516 -0.366099 0
M  V30 21 H 3.34675 -2.33212 -0.338569 0
M  V30 22 H 4.85253 -0.418077 -0.0203708 0
M  V30 23 H 3.89442 1.86057 0.294985 0
M  V30 24 H -2.68748 1.37914 -0.193252 0
M  V30 25 H -1.85373 1.23592 -1.66668 0
M  V30 END ATOM
M  V30 BEGIN BOND
M  V30 1 1 1 2
M  V30 2 1 2 3
M  V30 3 1 3 4
M  V30 4 2 4 5
M  V30 5 1 5 6
M  V30 6 1 6 7
M  V30 7 2 7 8
M  V30 8 1 8 9
M  V30 9 2 9 10
M  V30 10 1 10 11
M  V30 11 2 11 12
M  V30 12 1 3 13
M  V30 13 1 8 4
M  V30 14 1 12 7
M  V30 15 1 1 14
M  V30 16 1 1 15
M  V30 17 1 2 16
M  V30 18 1 2 17
M  V30 19 1 3 18
M  V30 20 1 5 19
M  V30 21 1 9 20
M  V30 22 1 10 21
M  V30 23 1 11 22
M  V30 24 1 12 23
M  V30 25 1 13 24
M  V30 26 1 13 25
M  V30 END BOND
M  V30 END CTAB
M  END
