
     RDKit          3D

  0  0  0  0  0  0  0  0  0  0999 V3000
M  V30 BEGIN CTAB
M  V30 COUNTS 27 28 0 0 0
M  V30 BEGIN ATOM
M  V30 1 N 3.27922 0.445674 0.190061 0
M  V30 2 C 1.91018 0.0468841 0.33918 0
M  V30 3 C 0.977644 1.2497 0.496269 0
M  V30 4 C -0.326045 0.6869 1.01039 0
M  V30 5 C -0.869536 -0.254541 -0.0386496 0
M  V30 6 C 0.0216178 -0.290505 -1.27069 0
M  V30 7 C 1.40769 -0.686563 -0.90065 0
M  V30 8 N -0.923285 -1.61735 0.421719 0
M  V30 9 C -2.26865 -2.04166 0.314589 0
M  V30 10 O -2.69106 -3.19986 0.634828 0
M  V30 11 N -3.01518 -0.955519 -0.201136 0
M  V30 12 C -2.25624 0.0558584 -0.407239 0
M  V30 13 N -2.65731 1.34148 -0.926715 0
M  V30 14 H 3.46787 1.39665 0.582799 0
M  V30 15 H 3.52739 0.490344 -0.83032 0
M  V30 16 H 1.77384 -0.568034 1.24599 0
M  V30 17 H 0.905714 1.73373 -0.480602 0
M  V30 18 H 1.42674 1.97806 1.20617 0
M  V30 19 H -1.07085 1.44932 1.24621 0
M  V30 20 H -0.0625231 0.0543505 1.89712 0
M  V30 21 H -0.398006 -1.13091 -1.90135 0
M  V30 22 H -0.0390912 0.603575 -1.88505 0
M  V30 23 H 2.13087 -0.463597 -1.7064 0
M  V30 24 H 1.4669 -1.76794 -0.652446 0
M  V30 25 H -0.105628 -2.20602 0.779075 0
M  V30 26 H -2.56116 1.55547 -1.94224 0
M  V30 27 H -3.05113 2.0945 -0.324727 0
M  V30 END ATOM
M  V30 BEGIN BOND
M  V30 1 1 1 2
M  V30 2 1 2 3
M  V30 3 1 3 4
M  V30 4 1 4 5
M  V30 5 1 5 6
M  V30 6 1 6 7
M  V30 7 1 5 8
M  V30 8 1 8 9
M  V30 9 2 9 10
M  V30 10 1 9 11
M  V30 11 2 11 12
M  V30 12 1 12 13
M  V30 13 1 7 2
M  V30 14 1 12 5
M  V30 15 1 1 14
M  V30 16 1 1 15
M  V30 17 1 2 16
M  V30 18 1 3 17
M  V30 19 1 3 18
M  V30 20 1 4 19
M  V30 21 1 4 20
M  V30 22 1 6 21
M  V30 23 1 6 22
M  V30 24 1 7 23
M  V30 25 1 7 24
M  V30 26 1 8 25
M  V30 27 1 13 26
M  V30 28 1 13 27
M  V30 END BOND
M  V30 END CTAB
M  END
