
     RDKit          3D

  0  0  0  0  0  0  0  0  0  0999 V3000
M  V30 BEGIN CTAB
M  V30 COUNTS 46 47 0 0 0
M  V30 BEGIN ATOM
M  V30 1 O -1.65971 1.55635 -0.463531 0
M  V30 2 C -1.25499 1.00041 -1.53808 0 CFG=1
M  V30 3 C -0.644653 -0.351917 -1.23326 0 CFG=1
M  V30 4 C 0.285126 -0.279796 -0.0433692 0
M  V30 5 O 1.35551 0.575049 -0.322816 0
M  V30 6 P 2.38267 0.642128 1.01863 0
M  V30 7 O 1.70805 1.53719 2.05636 0
M  V30 8 O 3.86495 1.31548 0.661176 0
M  V30 9 P 5.14849 0.228594 0.977339 0
M  V30 10 O 5.16447 -0.740375 -0.195867 0
M  V30 11 O 6.55076 1.13266 1.00337 0
M  V30 12 P 7.94335 0.206702 1.13742 0
M  V30 13 O 8.63749 0.507107 2.45796 0
M  V30 14 O 7.67414 -1.4322 0.919797 0
M  V30 15 O 9.01142 0.723826 -0.0854402 0
M  V30 16 O 4.8555 -0.591548 2.41044 0
M  V30 17 O 2.51573 -0.890369 1.71711 0
M  V30 18 O -1.69821 -1.18396 -0.978274 0
M  V30 19 C -2.81359 -0.737886 -1.62488 0 CFG=2
M  V30 20 C -2.48454 0.554802 -2.32086 0
M  V30 21 N -2.09544 0.232203 -3.69613 0
M  V30 22 N -3.87954 -0.471556 -0.647444 0
M  V30 23 C -3.65655 -0.53105 0.669214 0
M  V30 24 C -4.68549 -0.273808 1.55056 0
M  V30 25 C -5.93891 0.0433534 1.0962 0
M  V30 26 N -6.13747 0.0967192 -0.232883 0
M  V30 27 C -5.10526 -0.161443 -1.07648 0
M  V30 28 O -5.36078 -0.0939597 -2.30733 0
M  V30 29 N -7.00828 0.310692 2.01807 0
M  V30 30 H -1.40119 1.78812 0.210958 0
M  V30 31 H -0.585391 1.62458 -2.16317 0
M  V30 32 H -0.0720944 -0.706016 -2.12381 0
M  V30 33 H 0.67951 -1.28891 0.155342 0
M  V30 34 H -0.287242 0.0652727 0.82729 0
M  V30 35 H 6.84347 -1.75933 1.30488 0
M  V30 36 H 8.46201 1.03652 -0.860318 0
M  V30 37 H 4.39388 -0.0759723 3.09232 0
M  V30 38 H 2.53576 -1.58931 0.991647 0
M  V30 39 H -3.24446 -1.47125 -2.34493 0
M  V30 40 H -3.29149 1.28975 -2.27261 0
M  V30 41 H -2.87912 0.448534 -4.35673 0
M  V30 42 H -1.81161 -0.769429 -3.74723 0
M  V30 43 H -2.68387 -0.777223 1.04222 0
M  V30 44 H -4.54285 -0.312454 2.6323 0
M  V30 45 H -7.58751 1.14276 1.86212 0
M  V30 46 H -7.20204 -0.309621 2.82272 0
M  V30 END ATOM
M  V30 BEGIN BOND
M  V30 1 1 1 2
M  V30 2 1 2 3
M  V30 3 1 3 4
M  V30 4 1 4 5
M  V30 5 1 5 6
M  V30 6 2 6 7
M  V30 7 1 6 8
M  V30 8 1 8 9
M  V30 9 2 9 10
M  V30 10 1 9 11
M  V30 11 1 11 12
M  V30 12 2 12 13
M  V30 13 1 12 14
M  V30 14 1 12 15
M  V30 15 1 9 16
M  V30 16 1 6 17
M  V30 17 1 3 18
M  V30 18 1 18 19
M  V30 19 1 19 20
M  V30 20 1 20 21
M  V30 21 1 19 22
M  V30 22 1 22 23
M  V30 23 2 23 24
M  V30 24 1 24 25
M  V30 25 2 25 26
M  V30 26 1 26 27
M  V30 27 2 27 28
M  V30 28 1 25 29
M  V30 29 1 20 2
M  V30 30 1 27 22
M  V30 31 1 1 30
M  V30 32 1 2 31 CFG=3
M  V30 33 1 3 32 CFG=3
M  V30 34 1 4 33
M  V30 35 1 4 34
M  V30 36 1 14 35
M  V30 37 1 15 36
M  V30 38 1 16 37
M  V30 39 1 17 38
M  V30 40 1 19 39 CFG=3
M  V30 41 1 20 40
M  V30 42 1 21 41
M  V30 43 1 21 42
M  V30 44 1 23 43
M  V30 45 1 24 44
M  V30 46 1 29 45
M  V30 47 1 29 46
M  V30 END BOND
M  V30 END CTAB
M  END
