
     RDKit          3D

  0  0  0  0  0  0  0  0  0  0999 V3000
M  V30 BEGIN CTAB
M  V30 COUNTS 30 31 0 0 0
M  V30 BEGIN ATOM
M  V30 1 N 3.42173 1.36838 1.03911 0
M  V30 2 C 3.97006 0.176778 0.419486 0
M  V30 3 C 3.02467 -1.00022 0.537038 0
M  V30 4 C 1.72518 -0.732119 -0.114504 0
M  V30 5 O 1.49153 -0.662209 -1.39921 0
M  V30 6 N 0.224538 -0.409042 -1.59166 0
M  V30 7 C -0.390632 -0.309944 -0.403458 0
M  V30 8 N 0.557223 -0.513695 0.512698 0
M  V30 9 N -1.77127 -0.0429033 -0.138789 0
M  V30 10 C -2.73304 0.166098 -1.18755 0
M  V30 11 C -3.65473 1.29784 -0.894413 0
M  V30 12 O -3.99762 1.46136 0.412831 0
M  V30 13 C -3.69239 0.428757 1.2534 0
M  V30 14 C -2.24072 0.0241136 1.22937 0
M  V30 15 N 3.64202 -2.11009 -0.172701 0
M  V30 16 H 4.19646 2.04243 1.1419 0
M  V30 17 H 2.69668 1.77924 0.414739 0
M  V30 18 H 4.8816 -0.104531 1.00895 0
M  V30 19 H 4.26669 0.34843 -0.630318 0
M  V30 20 H 2.89423 -1.22818 1.61037 0
M  V30 21 H -2.17203 0.410208 -2.12304 0
M  V30 22 H -3.30926 -0.758579 -1.42791 0
M  V30 23 H -3.16983 2.25743 -1.239 0
M  V30 24 H -4.57079 1.19502 -1.54613 0
M  V30 25 H -4.33693 -0.479069 1.10681 0
M  V30 26 H -3.91195 0.764294 2.29719 0
M  V30 27 H -2.17021 -0.999348 1.66601 0
M  V30 28 H -1.6056 0.703594 1.83463 0
M  V30 29 H 3.38545 -3.03173 0.247336 0
M  V30 30 H 3.34893 -2.04231 -1.17328 0
M  V30 END ATOM
M  V30 BEGIN BOND
M  V30 1 1 1 2
M  V30 2 1 2 3
M  V30 3 1 3 4
M  V30 4 1 4 5
M  V30 5 1 5 6
M  V30 6 2 6 7
M  V30 7 1 7 8
M  V30 8 1 7 9
M  V30 9 1 9 10
M  V30 10 1 10 11
M  V30 11 1 11 12
M  V30 12 1 12 13
M  V30 13 1 13 14
M  V30 14 1 3 15
M  V30 15 2 8 4
M  V30 16 1 14 9
M  V30 17 1 1 16
M  V30 18 1 1 17
M  V30 19 1 2 18
M  V30 20 1 2 19
M  V30 21 1 3 20
M  V30 22 1 10 21
M  V30 23 1 10 22
M  V30 24 1 11 23
M  V30 25 1 11 24
M  V30 26 1 13 25
M  V30 27 1 13 26
M  V30 28 1 14 27
M  V30 29 1 14 28
M  V30 30 1 15 29
M  V30 31 1 15 30
M  V30 END BOND
M  V30 END CTAB
M  END
