
     RDKit          3D

  0  0  0  0  0  0  0  0  0  0999 V3000
M  V30 BEGIN CTAB
M  V30 COUNTS 60 63 0 0 0
M  V30 BEGIN ATOM
M  V30 1 C 3.43441 3.26336 0.861997 0
M  V30 2 C 3.31689 2.20058 -0.184949 0
M  V30 3 N 4.07824 1.11022 -0.209119 0
M  V30 4 N 3.7723 0.329908 -1.23864 0
M  V30 5 C 2.77131 0.952072 -1.899 0
M  V30 6 C 2.46749 2.13951 -1.24756 0
M  V30 7 C 4.44834 -0.882192 -1.50357 0
M  V30 8 C 4.37094 -2.02777 -0.733858 0
M  V30 9 C 5.13441 -3.10489 -1.15741 0
M  V30 10 C 5.94558 -3.0933 -2.27892 0
M  V30 11 C 6.00693 -1.94748 -3.0284 0
M  V30 12 C 5.26466 -0.856392 -2.64091 0
M  V30 13 C 3.49481 -2.03001 0.456129 0 CFG=1
M  V30 14 O 2.10807 -1.93084 0.121801 0
M  V30 15 C 1.27438 -1.16312 0.909419 0
M  V30 16 C -0.0795552 -1.0758 0.56109 0
M  V30 17 C -0.969357 -0.332252 1.29567 0
M  V30 18 N -0.478707 0.319997 2.38228 0
M  V30 19 C 0.797849 0.259266 2.74128 0
M  V30 20 N 1.24246 0.967848 3.89045 0
M  V30 21 N 1.63849 -0.477451 1.99909 0
M  V30 22 C -2.3843 -0.20815 0.976143 0
M  V30 23 C -2.95209 -0.840438 -0.100427 0
M  V30 24 C -4.31465 -0.713168 -0.398751 0
M  V30 25 C -5.13566 0.0571492 0.385151 0
M  V30 26 C -6.56834 0.237493 0.144568 0
M  V30 27 C -6.9385 1.3714 -0.753792 0 CFG=2
M  V30 28 N -6.34675 1.22232 -2.08849 0
M  V30 29 C -6.71318 2.71121 -0.204471 0
M  V30 30 O -5.9782 3.62403 -0.980348 0
M  V30 31 O -7.16175 3.01282 0.907244 0
M  V30 32 C -4.57943 0.699278 1.47143 0
M  V30 33 C -3.23039 0.565861 1.75646 0
M  V30 34 C 3.668 -3.30083 1.3108 0
M  V30 35 F 2.82965 -3.21159 2.42417 0
M  V30 36 F 4.93818 -3.47728 1.75399 0
M  V30 37 F 3.15612 -4.36081 0.581498 0
M  V30 38 H 2.40379 3.46133 1.23937 0
M  V30 39 H 3.87606 4.15245 0.361077 0
M  V30 40 H 4.0286 2.91695 1.71982 0
M  V30 41 H 2.30986 0.555225 -2.78681 0
M  V30 42 H 1.71563 2.86547 -1.5227 0
M  V30 43 H 5.12441 -4.0268 -0.595898 0
M  V30 44 H 6.52779 -3.98597 -2.56053 0
M  V30 45 H 6.64335 -1.95034 -3.90205 0
M  V30 46 H 5.33528 0.03987 -3.25802 0
M  V30 47 H 3.71547 -1.2099 1.16536 0
M  V30 48 H -0.397949 -1.61646 -0.308974 0
M  V30 49 H 0.690868 1.7424 4.29396 0
M  V30 50 H 2.14689 0.727119 4.36737 0
M  V30 51 H -2.34664 -1.45677 -0.745244 0
M  V30 52 H -4.7707 -1.20254 -1.23781 0
M  V30 53 H -7.14284 0.37777 1.09651 0
M  V30 54 H -6.96315 -0.695132 -0.310016 0
M  V30 55 H -8.04552 1.28308 -0.932676 0
M  V30 56 H -6.805 1.80866 -2.79195 0
M  V30 57 H -6.37874 0.193619 -2.34229 0
M  V30 58 H -6.07538 3.62275 -1.98104 0
M  V30 59 H -5.168 1.32741 2.14148 0
M  V30 60 H -2.75277 1.05927 2.60901 0
M  V30 END ATOM
M  V30 BEGIN BOND
M  V30 1 1 1 2
M  V30 2 2 2 3
M  V30 3 1 3 4
M  V30 4 1 4 5
M  V30 5 2 5 6
M  V30 6 1 4 7
M  V30 7 1 7 8
M  V30 8 2 8 9
M  V30 9 1 9 10
M  V30 10 2 10 11
M  V30 11 1 11 12
M  V30 12 1 8 13
M  V30 13 1 13 14
M  V30 14 1 14 15
M  V30 15 2 15 16
M  V30 16 1 16 17
M  V30 17 2 17 18
M  V30 18 1 18 19
M  V30 19 1 19 20
M  V30 20 2 19 21
M  V30 21 1 17 22
M  V30 22 2 22 23
M  V30 23 1 23 24
M  V30 24 2 24 25
M  V30 25 1 25 26
M  V30 26 1 26 27
M  V30 27 1 27 28
M  V30 28 1 27 29
M  V30 29 1 29 30
M  V30 30 2 29 31
M  V30 31 1 25 32
M  V30 32 2 32 33
M  V30 33 1 13 34
M  V30 34 1 34 35
M  V30 35 1 34 36
M  V30 36 1 34 37
M  V30 37 1 6 2
M  V30 38 2 12 7
M  V30 39 1 21 15
M  V30 40 1 33 22
M  V30 41 1 1 38
M  V30 42 1 1 39
M  V30 43 1 1 40
M  V30 44 1 5 41
M  V30 45 1 6 42
M  V30 46 1 9 43
M  V30 47 1 10 44
M  V30 48 1 11 45
M  V30 49 1 12 46
M  V30 50 1 13 47 CFG=1
M  V30 51 1 16 48
M  V30 52 1 20 49
M  V30 53 1 20 50
M  V30 54 1 23 51
M  V30 55 1 24 52
M  V30 56 1 26 53
M  V30 57 1 26 54
M  V30 58 1 27 55 CFG=3
M  V30 59 1 28 56
M  V30 60 1 28 57
M  V30 61 1 30 58
M  V30 62 1 32 59
M  V30 63 1 33 60
M  V30 END BOND
M  V30 END CTAB
M  END
