
     RDKit          3D

  0  0  0  0  0  0  0  0  0  0999 V3000
M  V30 BEGIN CTAB
M  V30 COUNTS 30 31 0 0 0
M  V30 BEGIN ATOM
M  V30 1 N -3.29933 0.904362 1.49724 0
M  V30 2 C -3.06154 0.658164 0.132183 0
M  V30 3 N -3.82758 0.89595 -0.918326 0
M  V30 4 N -3.15264 0.616011 -1.98388 0
M  V30 5 C -1.88649 0.183225 -1.67957 0
M  V30 6 C -1.80296 0.195598 -0.291212 0
M  V30 7 C -0.726469 -0.378927 0.595511 0 CFG=1
M  V30 8 N -0.537149 -1.79203 0.114763 0
M  V30 9 C 0.767367 -2.21825 0.453067 0
M  V30 10 C 1.74558 -1.46607 -0.476888 0
M  V30 11 N 1.65307 -0.130158 -0.124103 0
M  V30 12 C 0.532248 0.382893 0.445157 0
M  V30 13 S 3.07556 0.667584 0.252279 0
M  V30 14 O 3.05692 1.2088 1.66207 0
M  V30 15 O 4.30167 -0.217133 0.14782 0
M  V30 16 N 3.28219 2.0194 -0.834855 0
M  V30 17 H -2.51178 1.39444 2.01378 0
M  V30 18 H -4.12777 0.681608 2.0394 0
M  V30 19 H -3.53246 0.713562 -2.97302 0
M  V30 20 H -1.14166 -0.111211 -2.38244 0
M  V30 21 H -1.1012 -0.44842 1.59776 0
M  V30 22 H -1.24884 -2.40707 0.522555 0
M  V30 23 H 1.04779 -1.81316 1.48953 0
M  V30 24 H 0.925852 -3.28402 0.347242 0
M  V30 25 H 2.75315 -1.93173 -0.405534 0
M  V30 26 H 1.36837 -1.67767 -1.51946 0
M  V30 27 H 0.276819 1.37927 -0.0769437 0
M  V30 28 H 0.806623 0.782626 1.48911 0
M  V30 29 H 4.00705 2.6503 -0.374551 0
M  V30 30 H 2.35761 2.54205 -0.758682 0
M  V30 END ATOM
M  V30 BEGIN BOND
M  V30 1 1 1 2
M  V30 2 2 2 3
M  V30 3 1 3 4
M  V30 4 1 4 5
M  V30 5 2 5 6
M  V30 6 1 6 7
M  V30 7 1 7 8
M  V30 8 1 8 9
M  V30 9 1 9 10
M  V30 10 1 10 11
M  V30 11 1 11 12
M  V30 12 1 11 13
M  V30 13 2 13 14
M  V30 14 2 13 15
M  V30 15 1 13 16
M  V30 16 1 6 2
M  V30 17 1 12 7
M  V30 18 1 1 17
M  V30 19 1 1 18
M  V30 20 1 4 19
M  V30 21 1 5 20
M  V30 22 1 7 21 CFG=1
M  V30 23 1 8 22
M  V30 24 1 9 23
M  V30 25 1 9 24
M  V30 26 1 10 25
M  V30 27 1 10 26
M  V30 28 1 12 27
M  V30 29 1 12 28
M  V30 30 1 16 29
M  V30 31 1 16 30
M  V30 END BOND
M  V30 END CTAB
M  END
