
     RDKit          3D

  0  0  0  0  0  0  0  0  0  0999 V3000
M  V30 BEGIN CTAB
M  V30 COUNTS 41 42 0 0 0
M  V30 BEGIN ATOM
M  V30 1 C -0.492998 0.868011 -2.76983 0
M  V30 2 O -1.01466 1.03433 -1.46216 0
M  V30 3 C -0.135256 1.02029 -0.389752 0
M  V30 4 C 1.21857 0.85076 -0.554124 0
M  V30 5 C 2.09466 0.836141 0.505209 0
M  V30 6 C 3.50779 0.651241 0.255187 0
M  V30 7 N 4.38788 0.625499 1.19989 0
M  V30 8 N 5.75423 0.450959 1.01324 0
M  V30 9 C 6.2655 -0.679382 0.670112 0
M  V30 10 N 7.66083 -0.769301 0.502144 0
M  V30 11 N 5.3842 -1.77443 0.479975 0
M  V30 12 C 1.59524 0.997558 1.77653 0
M  V30 13 C 0.230936 1.17168 1.98137 0
M  V30 14 C -0.641602 1.18595 0.924299 0
M  V30 15 O -1.96964 1.35209 1.08364 0
M  V30 16 C -3.05112 0.626888 0.677569 0
M  V30 17 C -3.90382 1.2812 -0.259263 0
M  V30 18 C -5.01354 0.698229 -0.765515 0
M  V30 19 C -5.32655 -0.575666 -0.35726 0
M  V30 20 C -4.5235 -1.22135 0.541792 0
M  V30 21 C -3.3507 -0.623902 1.08874 0
M  V30 22 N -2.62622 -1.40035 2.02124 0 CHG=1
M  V30 23 O -2.09328 -0.958665 3.03323 0
M  V30 24 O -2.54765 -2.78795 1.86346 0 CHG=-1
M  V30 25 N -6.48973 -1.22951 -0.868507 0 CHG=1
M  V30 26 O -6.78947 -2.37579 -0.513493 0
M  V30 27 O -7.30453 -0.602495 -1.76619 0 CHG=-1
M  V30 28 H -1.25579 0.894528 -3.54462 0
M  V30 29 H 0.113966 -0.0768567 -2.77085 0
M  V30 30 H 0.280671 1.67792 -2.91441 0
M  V30 31 H 1.57432 0.726642 -1.58072 0
M  V30 32 H 3.86883 0.527688 -0.752179 0
M  V30 33 H 8.15024 -0.138535 -0.149615 0
M  V30 34 H 8.20177 -1.46926 1.03234 0
M  V30 35 H 4.68562 -1.77417 -0.283999 0
M  V30 36 H 5.42088 -2.60331 1.10642 0
M  V30 37 H 2.25428 0.992134 2.63833 0
M  V30 38 H -0.0992825 1.29346 3.00647 0
M  V30 39 H -3.61427 2.28769 -0.551572 0
M  V30 40 H -5.65649 1.21382 -1.48283 0
M  V30 41 H -4.75033 -2.2038 0.867065 0
M  V30 END ATOM
M  V30 BEGIN BOND
M  V30 1 1 1 2
M  V30 2 1 2 3
M  V30 3 2 3 4
M  V30 4 1 4 5
M  V30 5 1 5 6
M  V30 6 2 6 7
M  V30 7 1 7 8
M  V30 8 2 8 9
M  V30 9 1 9 10
M  V30 10 1 9 11
M  V30 11 2 5 12
M  V30 12 1 12 13
M  V30 13 2 13 14
M  V30 14 1 14 15
M  V30 15 1 15 16
M  V30 16 2 16 17
M  V30 17 1 17 18
M  V30 18 2 18 19
M  V30 19 1 19 20
M  V30 20 2 20 21
M  V30 21 1 21 22
M  V30 22 2 22 23
M  V30 23 1 22 24
M  V30 24 1 19 25
M  V30 25 2 25 26
M  V30 26 1 25 27
M  V30 27 1 14 3
M  V30 28 1 21 16
M  V30 29 1 1 28
M  V30 30 1 1 29
M  V30 31 1 1 30
M  V30 32 1 4 31
M  V30 33 1 6 32
M  V30 34 1 10 33
M  V30 35 1 10 34
M  V30 36 1 11 35
M  V30 37 1 11 36
M  V30 38 1 12 37
M  V30 39 1 13 38
M  V30 40 1 17 39
M  V30 41 1 18 40
M  V30 42 1 20 41
M  V30 END BOND
M  V30 END CTAB
M  END
