
     RDKit          3D

  0  0  0  0  0  0  0  0  0  0999 V3000
M  V30 BEGIN CTAB
M  V30 COUNTS 31 33 0 0 0
M  V30 BEGIN ATOM
M  V30 1 N 5.65735 0.277132 1.29045 0
M  V30 2 C 4.39139 0.0192266 0.686815 0
M  V30 3 C 4.26742 -0.70426 -0.482221 0
M  V30 4 C 3.01798 -0.928333 -1.02954 0
M  V30 5 C 1.87914 -0.439347 -0.426451 0
M  V30 6 C 2.03808 0.280547 0.742222 0
M  V30 7 C 3.27856 0.521128 1.31441 0
M  V30 8 N 0.817215 0.634824 1.11863 0
M  V30 9 C -0.0746525 0.148117 0.208519 0
M  V30 10 O 0.586542 -0.497947 -0.717335 0
M  V30 11 C -1.51518 0.361122 0.326766 0
M  V30 12 C -2.06083 1.0718 1.37299 0
M  V30 13 C -3.41729 1.28291 1.50103 0
M  V30 14 C -4.28745 0.774942 0.560417 0
M  V30 15 C -3.77643 0.0572059 -0.502328 0
M  V30 16 C -2.39377 -0.142306 -0.607925 0
M  V30 17 C -1.82217 -0.915236 -1.74916 0
M  V30 18 N -4.6273 -0.490877 -1.50372 0
M  V30 19 H 6.25763 1.07601 0.991444 0
M  V30 20 H 6.01669 -0.343298 2.06177 0
M  V30 21 H 5.16144 -1.07577 -0.936042 0
M  V30 22 H 2.93542 -1.50152 -1.95331 0
M  V30 23 H 3.38853 1.08865 2.23336 0
M  V30 24 H -1.38242 1.47577 2.11897 0
M  V30 25 H -3.85585 1.83844 2.31702 0
M  V30 26 H -5.36805 0.935421 0.650202 0
M  V30 27 H -1.35094 -1.85331 -1.3951 0
M  V30 28 H -2.69535 -1.26284 -2.376 0
M  V30 29 H -1.18949 -0.306161 -2.40828 0
M  V30 30 H -5.4069 -1.12573 -1.23607 0
M  V30 31 H -4.46931 -0.2563 -2.50407 0
M  V30 END ATOM
M  V30 BEGIN BOND
M  V30 1 1 1 2
M  V30 2 2 2 3
M  V30 3 1 3 4
M  V30 4 2 4 5
M  V30 5 1 5 6
M  V30 6 2 6 7
M  V30 7 1 6 8
M  V30 8 2 8 9
M  V30 9 1 9 10
M  V30 10 1 9 11
M  V30 11 2 11 12
M  V30 12 1 12 13
M  V30 13 2 13 14
M  V30 14 1 14 15
M  V30 15 2 15 16
M  V30 16 1 16 17
M  V30 17 1 15 18
M  V30 18 1 7 2
M  V30 19 1 16 11
M  V30 20 1 10 5
M  V30 21 1 1 19
M  V30 22 1 1 20
M  V30 23 1 3 21
M  V30 24 1 4 22
M  V30 25 1 7 23
M  V30 26 1 12 24
M  V30 27 1 13 25
M  V30 28 1 14 26
M  V30 29 1 17 27
M  V30 30 1 17 28
M  V30 31 1 17 29
M  V30 32 1 18 30
M  V30 33 1 18 31
M  V30 END BOND
M  V30 END CTAB
M  END
