
     RDKit          3D

  0  0  0  0  0  0  0  0  0  0999 V3000
M  V30 BEGIN CTAB
M  V30 COUNTS 33 35 0 0 0
M  V30 BEGIN ATOM
M  V30 1 N -6.69561 0.440959 -0.0281594 0
M  V30 2 C -5.29849 0.191963 -0.0540671 0
M  V30 3 N -4.53659 0.870462 -0.930567 0
M  V30 4 C -3.20706 0.624221 -0.945399 0
M  V30 5 C -2.66478 -0.30307 -0.075773 0
M  V30 6 N -1.34219 -0.5703 -0.0669509 0
M  V30 7 C -0.499523 0.049181 -0.897709 0
M  V30 8 C 0.969016 -0.262773 -0.871787 0
M  V30 9 S 1.78145 0.844785 0.29879 0
M  V30 10 C 3.54043 0.453172 0.313681 0
M  V30 11 C 4.06328 -0.545415 -0.478723 0
M  V30 12 C 5.40629 -0.863789 -0.484824 0
M  V30 13 C 6.28185 -0.169815 0.325523 0
M  V30 14 C 5.76171 0.832629 1.12198 0
M  V30 15 C 4.41387 1.14632 1.12284 0
M  V30 16 C -1.0275 0.977831 -1.77174 0
M  V30 17 C -2.36672 1.28259 -1.81685 0
M  V30 18 C -3.46629 -0.985038 0.812615 0
M  V30 19 N -2.88688 -1.94077 1.70468 0
M  V30 20 N -4.783 -0.715816 0.80045 0
M  V30 21 H -7.0837 1.19965 0.555052 0
M  V30 22 H -7.37693 -0.137694 -0.600355 0
M  V30 23 H 1.42677 -0.1591 -1.86123 0
M  V30 24 H 1.13331 -1.31401 -0.5388 0
M  V30 25 H 3.37182 -1.09632 -1.12126 0
M  V30 26 H 5.83084 -1.64465 -1.10117 0
M  V30 27 H 7.33428 -0.423407 0.317036 0
M  V30 28 H 6.4033 1.40481 1.77329 0
M  V30 29 H 4.01385 1.93574 1.75205 0
M  V30 30 H -0.361147 1.48123 -2.443 0
M  V30 31 H -2.80303 2.00575 -2.49225 0
M  V30 32 H -2.64656 -2.89914 1.38586 0
M  V30 33 H -2.68605 -1.71018 2.7026 0
M  V30 END ATOM
M  V30 BEGIN BOND
M  V30 1 1 1 2
M  V30 2 2 2 3
M  V30 3 1 3 4
M  V30 4 2 4 5
M  V30 5 1 5 6
M  V30 6 2 6 7
M  V30 7 1 7 8
M  V30 8 1 8 9
M  V30 9 1 9 10
M  V30 10 2 10 11
M  V30 11 1 11 12
M  V30 12 2 12 13
M  V30 13 1 13 14
M  V30 14 2 14 15
M  V30 15 1 7 16
M  V30 16 2 16 17
M  V30 17 1 5 18
M  V30 18 1 18 19
M  V30 19 2 18 20
M  V30 20 1 20 2
M  V30 21 1 17 4
M  V30 22 1 15 10
M  V30 23 1 1 21
M  V30 24 1 1 22
M  V30 25 1 8 23
M  V30 26 1 8 24
M  V30 27 1 11 25
M  V30 28 1 12 26
M  V30 29 1 13 27
M  V30 30 1 14 28
M  V30 31 1 15 29
M  V30 32 1 16 30
M  V30 33 1 17 31
M  V30 34 1 19 32
M  V30 35 1 19 33
M  V30 END BOND
M  V30 END CTAB
M  END
