
     RDKit          3D

  0  0  0  0  0  0  0  0  0  0999 V3000
M  V30 BEGIN CTAB
M  V30 COUNTS 32 34 0 0 0
M  V30 BEGIN ATOM
M  V30 1 C -0.430325 1.92609 1.28197 0
M  V30 2 C -0.824859 0.556616 0.880002 0
M  V30 3 C -0.128918 -0.603382 1.20059 0
M  V30 4 N -0.817833 -1.6077 0.649399 0
M  V30 5 C -1.90306 -1.13852 0.00395408 0
M  V30 6 C -1.93631 0.23989 0.132362 0
M  V30 7 C -2.9481 0.993427 -0.435075 0
M  V30 8 N -2.92776 2.39628 -0.269618 0
M  V30 9 N -3.89607 0.328615 -1.11563 0
M  V30 10 C -3.90628 -1.01782 -1.26845 0
M  V30 11 N -4.94346 -1.63943 -2.00157 0
M  V30 12 N -2.89778 -1.71267 -0.69675 0
M  V30 13 S 1.37632 -0.661864 2.1602 0
M  V30 14 C 2.75689 -0.525631 1.03496 0
M  V30 15 C 4.06163 -0.541938 1.50284 0
M  V30 16 C 5.13123 -0.437125 0.63859 0
M  V30 17 C 4.95464 -0.311875 -0.723879 0
M  V30 18 C 3.64665 -0.296412 -1.18359 0
M  V30 19 Cl 3.3304 -0.14136 -2.89234 0
M  V30 20 C 2.57144 -0.400848 -0.324603 0
M  V30 21 H 0.538925 1.91139 1.81856 0
M  V30 22 H -1.17767 2.32928 2.00295 0
M  V30 23 H -0.294948 2.59718 0.409771 0
M  V30 24 H -0.516757 -2.61118 0.733605 0
M  V30 25 H -2.53146 2.98002 -1.02593 0
M  V30 26 H -3.30055 2.83594 0.589004 0
M  V30 27 H -5.34841 -2.53492 -1.6762 0
M  V30 28 H -5.30711 -1.20759 -2.86739 0
M  V30 29 H 4.20033 -0.640379 2.57375 0
M  V30 30 H 6.14923 -0.451021 1.01614 0
M  V30 31 H 5.7704 -0.227678 -1.42807 0
M  V30 32 H 1.54957 -0.385396 -0.719541 0
M  V30 END ATOM
M  V30 BEGIN BOND
M  V30 1 1 1 2
M  V30 2 2 2 3
M  V30 3 1 3 4
M  V30 4 1 4 5
M  V30 5 2 5 6
M  V30 6 1 6 7
M  V30 7 1 7 8
M  V30 8 2 7 9
M  V30 9 1 9 10
M  V30 10 1 10 11
M  V30 11 2 10 12
M  V30 12 1 3 13
M  V30 13 1 13 14
M  V30 14 2 14 15
M  V30 15 1 15 16
M  V30 16 2 16 17
M  V30 17 1 17 18
M  V30 18 1 18 19
M  V30 19 2 18 20
M  V30 20 1 6 2
M  V30 21 1 20 14
M  V30 22 1 12 5
M  V30 23 1 1 21
M  V30 24 1 1 22
M  V30 25 1 1 23
M  V30 26 1 4 24
M  V30 27 1 8 25
M  V30 28 1 8 26
M  V30 29 1 11 27
M  V30 30 1 11 28
M  V30 31 1 15 29
M  V30 32 1 16 30
M  V30 33 1 17 31
M  V30 34 1 20 32
M  V30 END BOND
M  V30 END CTAB
M  END
