
     RDKit          3D

  0  0  0  0  0  0  0  0  0  0999 V3000
M  V30 BEGIN CTAB
M  V30 COUNTS 44 46 0 0 0
M  V30 BEGIN ATOM
M  V30 1 N 1.0065 0.485248 3.09145 0
M  V30 2 C 1.98664 0.489491 2.07028 0
M  V30 3 N 3.18926 1.00852 2.41076 0
M  V30 4 C 4.20695 1.07427 1.54136 0
M  V30 5 C 3.97272 0.585595 0.273773 0
M  V30 6 C 2.73914 0.0547741 -0.0705894 0
M  V30 7 N 1.75024 0.0106928 0.835532 0
M  V30 8 C 2.50102 -0.468275 -1.43867 0
M  V30 9 C 2.28028 -1.94527 -1.33982 0
M  V30 10 C 1.20222 -2.36607 -2.31259 0
M  V30 11 C -0.106617 -1.68832 -1.9126 0
M  V30 12 N 0.0632784 -0.263626 -1.80698 0
M  V30 13 C 1.3786 0.260362 -2.1361 0
M  V30 14 C -0.975886 0.573954 -1.41378 0
M  V30 15 O -0.701628 1.83115 -1.3525 0
M  V30 16 C -2.33391 0.203238 -1.06379 0
M  V30 17 C -2.70414 0.692442 0.314548 0
M  V30 18 C -3.35237 1.89709 0.462274 0
M  V30 19 C -3.71629 2.39014 1.71672 0
M  V30 20 C -3.41993 1.65265 2.84316 0
M  V30 21 C -2.77275 0.447342 2.71297 0
M  V30 22 C -2.42716 -0.0112305 1.4601 0
M  V30 23 N -2.68904 -1.16972 -1.12064 0
M  V30 24 H 0.986148 -0.286334 3.77195 0
M  V30 25 H 0.320343 1.24986 3.1501 0
M  V30 26 H 5.13713 1.50123 1.88395 0
M  V30 27 H 4.78174 0.627274 -0.450089 0
M  V30 28 H 3.45773 -0.333373 -2.01341 0
M  V30 29 H 2.0173 -2.22545 -0.299529 0
M  V30 30 H 3.20742 -2.53017 -1.57913 0
M  V30 31 H 1.52714 -2.10827 -3.32246 0
M  V30 32 H 1.04836 -3.45843 -2.25257 0
M  V30 33 H -0.374459 -2.16879 -0.941674 0
M  V30 34 H -0.858293 -1.97698 -2.67413 0
M  V30 35 H 1.44407 1.34884 -1.94578 0
M  V30 36 H 1.51398 0.0904066 -3.2249 0
M  V30 37 H -3.00775 0.729522 -1.81524 0
M  V30 38 H -3.61763 2.53031 -0.372915 0
M  V30 39 H -4.22648 3.3411 1.8148 0
M  V30 40 H -3.70432 2.03632 3.83303 0
M  V30 41 H -2.55077 -0.111517 3.59932 0
M  V30 42 H -1.90922 -0.970526 1.32239 0
M  V30 43 H -3.18861 -1.45224 -1.99163 0
M  V30 44 H -3.08096 -1.57723 -0.256907 0
M  V30 END ATOM
M  V30 BEGIN BOND
M  V30 1 1 1 2
M  V30 2 2 2 3
M  V30 3 1 3 4
M  V30 4 2 4 5
M  V30 5 1 5 6
M  V30 6 2 6 7
M  V30 7 1 6 8
M  V30 8 1 8 9
M  V30 9 1 9 10
M  V30 10 1 10 11
M  V30 11 1 11 12
M  V30 12 1 12 13
M  V30 13 1 12 14
M  V30 14 2 14 15
M  V30 15 1 14 16
M  V30 16 1 16 17
M  V30 17 2 17 18
M  V30 18 1 18 19
M  V30 19 2 19 20
M  V30 20 1 20 21
M  V30 21 2 21 22
M  V30 22 1 16 23
M  V30 23 1 7 2
M  V30 24 1 13 8
M  V30 25 1 22 17
M  V30 26 1 1 24
M  V30 27 1 1 25
M  V30 28 1 4 26
M  V30 29 1 5 27
M  V30 30 1 8 28
M  V30 31 1 9 29
M  V30 32 1 9 30
M  V30 33 1 10 31
M  V30 34 1 10 32
M  V30 35 1 11 33
M  V30 36 1 11 34
M  V30 37 1 13 35
M  V30 38 1 13 36
M  V30 39 1 16 37
M  V30 40 1 18 38
M  V30 41 1 19 39
M  V30 42 1 20 40
M  V30 43 1 21 41
M  V30 44 1 22 42
M  V30 45 1 23 43
M  V30 46 1 23 44
M  V30 END BOND
M  V30 END CTAB
M  END
