
     RDKit          3D

  0  0  0  0  0  0  0  0  0  0999 V3000
M  V30 BEGIN CTAB
M  V30 COUNTS 29 30 0 0 0
M  V30 BEGIN ATOM
M  V30 1 N 5.46108 0.406059 -1.2198 0
M  V30 2 C 4.28999 0.397287 -0.410589 0
M  V30 3 N 3.11575 0.333076 -0.897431 0
M  V30 4 C 1.99381 0.329378 -0.0119115 0
M  V30 5 S 1.94865 0.40042 1.69399 0
M  V30 6 C 0.257592 0.347182 1.9117 0
M  V30 7 C -0.183482 0.275569 0.614175 0
M  V30 8 N 0.704277 0.268331 -0.325631 0
M  V30 9 C -1.6794 0.207932 0.324625 0
M  V30 10 C -1.9952 -1.04212 -0.450431 0
M  V30 11 C -3.4904 -1.19667 -0.491299 0
M  V30 12 C -4.07768 0.21319 -0.374355 0
M  V30 13 O -3.31021 1.11546 -1.08649 0
M  V30 14 C -2.10415 1.42037 -0.480575 0
M  V30 15 N 4.48156 0.463921 0.983891 0
M  V30 16 H 6.01815 -0.436735 -1.44485 0
M  V30 17 H 5.77658 1.31241 -1.60844 0
M  V30 18 H -0.340847 0.364597 2.83933 0
M  V30 19 H -2.24944 0.226876 1.26555 0
M  V30 20 H -1.65408 -0.907326 -1.51571 0
M  V30 21 H -1.46319 -1.91784 -0.0594097 0
M  V30 22 H -3.87226 -1.79381 0.375124 0
M  V30 23 H -3.86296 -1.66904 -1.40898 0
M  V30 24 H -4.19173 0.461905 0.686517 0
M  V30 25 H -5.10341 0.226603 -0.82406 0
M  V30 26 H -2.20754 2.32614 0.162497 0
M  V30 27 H -1.36842 1.65898 -1.27409 0
M  V30 28 H 4.48149 1.40545 1.45603 0
M  V30 29 H 4.62546 -0.403842 1.57062 0
M  V30 END ATOM
M  V30 BEGIN BOND
M  V30 1 1 1 2
M  V30 2 2 2 3 CFG=2
M  V30 3 1 3 4
M  V30 4 1 4 5
M  V30 5 1 5 6
M  V30 6 2 6 7
M  V30 7 1 7 8
M  V30 8 1 7 9
M  V30 9 1 9 10
M  V30 10 1 10 11
M  V30 11 1 11 12
M  V30 12 1 12 13
M  V30 13 1 13 14
M  V30 14 1 2 15
M  V30 15 2 8 4
M  V30 16 1 14 9
M  V30 17 1 1 16
M  V30 18 1 1 17
M  V30 19 1 6 18
M  V30 20 1 9 19
M  V30 21 1 10 20
M  V30 22 1 10 21
M  V30 23 1 11 22
M  V30 24 1 11 23
M  V30 25 1 12 24
M  V30 26 1 12 25
M  V30 27 1 14 26
M  V30 28 1 14 27
M  V30 29 1 15 28
M  V30 30 1 15 29
M  V30 END BOND
M  V30 END CTAB
M  END
