
     RDKit          3D

  0  0  0  0  0  0  0  0  0  0999 V3000
M  V30 BEGIN CTAB
M  V30 COUNTS 23 23 0 0 0
M  V30 BEGIN ATOM
M  V30 1 C 3.94801 0.738993 0.119311 0
M  V30 2 O 2.55762 1.00814 0.0788062 0
M  V30 3 C 1.66335 -0.024304 0.0540861 0
M  V30 4 O 2.13009 -1.2138 0.0688902 0
M  V30 5 C 0.217198 0.157689 0.0120742 0
M  V30 6 C -0.266475 1.44812 -0.00329975 0
M  V30 7 C -1.63658 1.60745 -0.0430376 0
M  V30 8 O -2.14874 2.89866 -0.0592348 0
M  V30 9 C -2.49592 0.529833 -0.0666801 0
M  V30 10 C -2.027 -0.768035 -0.0517277 0
M  V30 11 C -0.641234 -0.911966 -0.0115545 0
M  V30 12 N -0.155051 -2.24645 0.00390364 0
M  V30 13 N -2.89012 -1.89518 -0.0754227 0
M  V30 14 H 4.13187 -0.314292 -0.238039 0
M  V30 15 H 4.42912 1.48316 -0.570587 0
M  V30 16 H 4.38101 0.888616 1.11444 0
M  V30 17 H 0.371964 2.32087 0.0141752 0
M  V30 18 H -1.57518 3.71013 -0.0435659 0
M  V30 19 H -3.57872 0.676644 -0.0980956 0
M  V30 20 H 0.00814625 -2.6938 -0.934777 0
M  V30 21 H 0.039138 -2.78003 0.878402 0
M  V30 22 H -2.63542 -2.80537 -0.507423 0
M  V30 23 H -3.82707 -1.81505 0.359356 0
M  V30 END ATOM
M  V30 BEGIN BOND
M  V30 1 1 1 2
M  V30 2 1 2 3
M  V30 3 2 3 4
M  V30 4 1 3 5
M  V30 5 2 5 6
M  V30 6 1 6 7
M  V30 7 1 7 8
M  V30 8 2 7 9
M  V30 9 1 9 10
M  V30 10 2 10 11
M  V30 11 1 11 12
M  V30 12 1 10 13
M  V30 13 1 11 5
M  V30 14 1 1 14
M  V30 15 1 1 15
M  V30 16 1 1 16
M  V30 17 1 6 17
M  V30 18 1 8 18
M  V30 19 1 9 19
M  V30 20 1 12 20
M  V30 21 1 12 21
M  V30 22 1 13 22
M  V30 23 1 13 23
M  V30 END BOND
M  V30 END CTAB
M  END
