
     RDKit          3D

  0  0  0  0  0  0  0  0  0  0999 V3000
M  V30 BEGIN CTAB
M  V30 COUNTS 34 36 0 0 0
M  V30 BEGIN ATOM
M  V30 1 C -6.89545 0.802261 -0.382962 0
M  V30 2 C -5.44693 0.643259 -0.544464 0
M  V30 3 C -4.79736 0.62346 -1.75812 0
M  V30 4 C -3.46714 0.479407 -1.95016 0
M  V30 5 C -2.62863 0.332478 -0.827713 0
M  V30 6 N -1.32909 0.184831 -0.862559 0
M  V30 7 C -0.651856 0.0564842 0.257951 0
M  V30 8 N 0.752546 -0.110296 0.380053 0
M  V30 9 C 1.32622 -0.234325 1.66798 0
M  V30 10 O 0.574288 -0.193047 2.66699 0
M  V30 11 C 2.79614 -0.410204 1.82385 0
M  V30 12 C 3.36651 -0.53208 3.06863 0
M  V30 13 S 5.01845 -0.704295 2.68187 0
M  V30 14 C 4.89283 -0.612808 0.980122 0
M  V30 15 N 5.93875 -0.687709 -0.0182575 0
M  V30 16 C 5.5795 -0.5908 -1.24546 0
M  V30 17 N 6.60091 -0.663004 -2.24123 0
M  V30 18 N 4.24063 -0.416922 -1.68758 0
M  V30 19 N 3.59436 -0.455558 0.800901 0
M  V30 20 S -1.884 0.144635 1.43934 0
M  V30 21 C -3.2341 0.346786 0.395377 0
M  V30 22 C -4.61746 0.497967 0.564695 0
M  V30 23 H -7.30881 -0.0455057 0.206042 0
M  V30 24 H -7.34149 0.824599 -1.41312 0
M  V30 25 H -7.20576 1.72396 0.110553 0
M  V30 26 H -5.4501 0.737947 -2.63473 0
M  V30 27 H -3.0874 0.481319 -2.95856 0
M  V30 28 H 1.3302 -0.138387 -0.467639 0
M  V30 29 H 2.84432 -0.516178 4.0418 0
M  V30 30 H 6.37869 -1.06186 -3.17009 0
M  V30 31 H 7.54689 -0.320966 -2.03356 0
M  V30 32 H 3.70598 -1.21883 -2.08741 0
M  V30 33 H 3.83467 0.5397 -1.59002 0
M  V30 34 H -4.9763 0.493678 1.57221 0
M  V30 END ATOM
M  V30 BEGIN BOND
M  V30 1 1 1 2
M  V30 2 2 2 3
M  V30 3 1 3 4
M  V30 4 2 4 5
M  V30 5 1 5 6
M  V30 6 2 6 7
M  V30 7 1 7 8
M  V30 8 1 8 9
M  V30 9 2 9 10
M  V30 10 1 9 11
M  V30 11 2 11 12
M  V30 12 1 12 13
M  V30 13 1 13 14
M  V30 14 1 14 15
M  V30 15 2 15 16
M  V30 16 1 16 17
M  V30 17 1 16 18
M  V30 18 2 14 19
M  V30 19 1 7 20
M  V30 20 1 20 21
M  V30 21 2 21 22
M  V30 22 1 22 2
M  V30 23 1 21 5
M  V30 24 1 19 11
M  V30 25 1 1 23
M  V30 26 1 1 24
M  V30 27 1 1 25
M  V30 28 1 3 26
M  V30 29 1 4 27
M  V30 30 1 8 28
M  V30 31 1 12 29
M  V30 32 1 17 30
M  V30 33 1 17 31
M  V30 34 1 18 32
M  V30 35 1 18 33
M  V30 36 1 22 34
M  V30 END BOND
M  V30 END CTAB
M  END
