
     RDKit          3D

  0  0  0  0  0  0  0  0  0  0999 V3000
M  V30 BEGIN CTAB
M  V30 COUNTS 24 24 0 0 0
M  V30 BEGIN ATOM
M  V30 1 N 1.69437 -0.153406 -2.42318 0
M  V30 2 C 2.21628 0.0712153 -1.11976 0
M  V30 3 N 3.51776 0.444376 -0.948949 0
M  V30 4 C 4.00344 0.654893 0.288014 0
M  V30 5 C 3.14437 0.480283 1.35573 0
M  V30 6 N 1.86143 0.111885 1.17829 0
M  V30 7 C 1.36305 -0.101733 -0.0514565 0
M  V30 8 C -0.0324747 -0.502266 -0.24086 0
M  V30 9 O -0.483944 -0.698436 -1.39838 0
M  V30 10 N -0.884089 -0.672115 0.871152 0
M  V30 11 C -2.25543 -1.05571 0.812575 0
M  V30 12 C -3.1351 -0.0915623 0.0417446 0
M  V30 13 N -3.11739 1.21752 0.616944 0
M  V30 14 H 1.06255 0.559054 -2.84918 0
M  V30 15 H 1.9038 -0.998951 -2.9951 0
M  V30 16 H 5.03085 0.952537 0.472987 0
M  V30 17 H 3.53747 0.650664 2.3566 0
M  V30 18 H -0.464526 -0.498931 1.81734 0
M  V30 19 H -2.64407 -1.20774 1.83896 0
M  V30 20 H -2.32567 -2.07353 0.329996 0
M  V30 21 H -2.78872 -0.0329163 -1.00167 0
M  V30 22 H -4.19276 -0.477614 -0.000689357 0
M  V30 23 H -3.01699 1.97175 -0.102222 0
M  V30 24 H -3.99422 1.45074 1.1511 0
M  V30 END ATOM
M  V30 BEGIN BOND
M  V30 1 1 1 2
M  V30 2 2 2 3
M  V30 3 1 3 4
M  V30 4 2 4 5
M  V30 5 1 5 6
M  V30 6 2 6 7
M  V30 7 1 7 8
M  V30 8 2 8 9
M  V30 9 1 8 10
M  V30 10 1 10 11
M  V30 11 1 11 12
M  V30 12 1 12 13
M  V30 13 1 7 2
M  V30 14 1 1 14
M  V30 15 1 1 15
M  V30 16 1 4 16
M  V30 17 1 5 17
M  V30 18 1 10 18
M  V30 19 1 11 19
M  V30 20 1 11 20
M  V30 21 1 12 21
M  V30 22 1 12 22
M  V30 23 1 13 23
M  V30 24 1 13 24
M  V30 END BOND
M  V30 END CTAB
M  END
