
     RDKit          3D

  0  0  0  0  0  0  0  0  0  0999 V3000
M  V30 BEGIN CTAB
M  V30 COUNTS 27 27 0 0 0
M  V30 BEGIN ATOM
M  V30 1 N 0.617809 2.90851 0.566451 0
M  V30 2 C -0.263475 1.80967 0.362785 0
M  V30 3 C -1.58239 2.0051 0.0936997 0
M  V30 4 C -2.46948 0.988047 -0.109565 0
M  V30 5 C -1.9925 -0.323847 -0.036312 0
M  V30 6 C -0.663917 -0.581197 0.233602 0
M  V30 7 C 0.181975 0.490695 0.429364 0
M  V30 8 N 1.56579 0.298001 0.710576 0
M  V30 9 S 2.77334 0.201011 -0.509665 0
M  V30 10 O 2.43104 1.05296 -1.69694 0
M  V30 11 O 4.0653 0.701475 0.0460713 0
M  V30 12 N 2.95244 -1.45595 -0.960846 0
M  V30 13 C -0.176847 -1.98485 0.308453 0
M  V30 14 C -2.93543 -1.44236 -0.253096 0
M  V30 15 H 1.44312 2.85267 1.20346 0
M  V30 16 H 0.439061 3.7882 0.0716148 0
M  V30 17 H -1.95706 3.01658 0.0358346 0
M  V30 18 H -3.50985 1.17889 -0.321131 0
M  V30 19 H 1.87783 0.209049 1.70203 0
M  V30 20 H 3.56314 -1.9042 -0.224709 0
M  V30 21 H 3.49486 -1.554 -1.8605 0
M  V30 22 H 0.705254 -2.05222 1.0095 0
M  V30 23 H 0.0728783 -2.41122 -0.67191 0
M  V30 24 H -0.971077 -2.59125 0.83528 0
M  V30 25 H -2.73717 -1.97407 -1.22012 0
M  V30 26 H -2.95151 -2.16603 0.595064 0
M  V30 27 H -3.97313 -1.05968 -0.338992 0
M  V30 END ATOM
M  V30 BEGIN BOND
M  V30 1 1 1 2
M  V30 2 2 2 3
M  V30 3 1 3 4
M  V30 4 2 4 5
M  V30 5 1 5 6
M  V30 6 2 6 7
M  V30 7 1 7 8
M  V30 8 1 8 9
M  V30 9 2 9 10
M  V30 10 2 9 11
M  V30 11 1 9 12
M  V30 12 1 6 13
M  V30 13 1 5 14
M  V30 14 1 7 2
M  V30 15 1 1 15
M  V30 16 1 1 16
M  V30 17 1 3 17
M  V30 18 1 4 18
M  V30 19 1 8 19
M  V30 20 1 12 20
M  V30 21 1 12 21
M  V30 22 1 13 22
M  V30 23 1 13 23
M  V30 24 1 13 24
M  V30 25 1 14 25
M  V30 26 1 14 26
M  V30 27 1 14 27
M  V30 END BOND
M  V30 END CTAB
M  END
