
     RDKit          3D

  0  0  0  0  0  0  0  0  0  0999 V3000
M  V30 BEGIN CTAB
M  V30 COUNTS 19 18 0 0 0
M  V30 BEGIN ATOM
M  V30 1 N 2.67794 -0.0445595 -0.734723 0
M  V30 2 C 1.7554 -0.90415 -0.0279615 0
M  V30 3 C 0.715524 0.00828962 0.573842 0
M  V30 4 C -0.561742 -0.0944516 0.271892 0
M  V30 5 C -1.53052 0.824137 0.890869 0
M  V30 6 N -2.24268 1.61815 -0.115473 0
M  V30 7 C -0.947303 -1.15024 -0.691259 0
M  V30 8 H 3.54658 -0.501583 -1.02431 0
M  V30 9 H 2.76269 0.883293 -0.313482 0
M  V30 10 H 2.32312 -1.34508 0.829772 0
M  V30 11 H 1.28008 -1.66455 -0.662952 0
M  V30 12 H 1.00962 0.778162 1.27846 0
M  V30 13 H -2.29654 0.201225 1.41253 0
M  V30 14 H -1.06411 1.45136 1.64937 0
M  V30 15 H -1.64142 1.91858 -0.887827 0
M  V30 16 H -2.67117 2.4122 0.414179 0
M  V30 17 H -0.391698 -1.04761 -1.65583 0
M  V30 18 H -2.03251 -1.16739 -0.899662 0
M  V30 19 H -0.691285 -2.17578 -0.307435 0
M  V30 END ATOM
M  V30 BEGIN BOND
M  V30 1 1 1 2
M  V30 2 1 2 3
M  V30 3 2 3 4 CFG=2
M  V30 4 1 4 5
M  V30 5 1 5 6
M  V30 6 1 4 7
M  V30 7 1 1 8
M  V30 8 1 1 9
M  V30 9 1 2 10
M  V30 10 1 2 11
M  V30 11 1 3 12
M  V30 12 1 5 13
M  V30 13 1 5 14
M  V30 14 1 6 15
M  V30 15 1 6 16
M  V30 16 1 7 17
M  V30 17 1 7 18
M  V30 18 1 7 19
M  V30 END BOND
M  V30 END CTAB
M  END
