
     RDKit          3D

  0  0  0  0  0  0  0  0  0  0999 V3000
M  V30 BEGIN CTAB
M  V30 COUNTS 26 26 0 0 0
M  V30 BEGIN ATOM
M  V30 1 C -3.69701 1.38265 0.0816723 0
M  V30 2 C -2.17152 1.27645 -0.00942079 0
M  V30 3 O -1.82889 -0.0666088 0.151904 0
M  V30 4 C -0.524555 -0.532488 0.125705 0
M  V30 5 C 0.528359 0.337247 -0.0671405 0
M  V30 6 C 1.81808 -0.153951 -0.0888386 0
M  V30 7 C 3.01476 0.699039 -0.289313 0
M  V30 8 N 2.68913 2.08622 -0.457677 0
M  V30 9 C 2.0557 -1.51468 0.0822221 0
M  V30 10 C 1.01083 -2.37808 0.273636 0
M  V30 11 C -0.274563 -1.88052 0.294154 0
M  V30 12 N -1.35429 -2.80344 0.496176 0
M  V30 13 H -4.0607 2.32499 -0.373056 0
M  V30 14 H -4.17661 0.508422 -0.422492 0
M  V30 15 H -4.02976 1.34274 1.13911 0
M  V30 16 H -1.88241 1.60377 -1.04671 0
M  V30 17 H -1.72538 1.95369 0.742594 0
M  V30 18 H 0.396774 1.39878 -0.204342 0
M  V30 19 H 3.65429 0.632879 0.638631 0
M  V30 20 H 3.58955 0.334097 -1.17805 0
M  V30 21 H 2.79799 2.63151 0.444534 0
M  V30 22 H 3.42938 2.49735 -1.09353 0
M  V30 23 H 3.07328 -1.92085 0.0676712 0
M  V30 24 H 1.17501 -3.4568 0.410917 0
M  V30 25 H -1.35751 -3.42622 1.33375 0
M  V30 26 H -2.14995 -2.87619 -0.174867 0
M  V30 END ATOM
M  V30 BEGIN BOND
M  V30 1 1 1 2
M  V30 2 1 2 3
M  V30 3 1 3 4
M  V30 4 2 4 5
M  V30 5 1 5 6
M  V30 6 1 6 7
M  V30 7 1 7 8
M  V30 8 2 6 9
M  V30 9 1 9 10
M  V30 10 2 10 11
M  V30 11 1 11 12
M  V30 12 1 11 4
M  V30 13 1 1 13
M  V30 14 1 1 14
M  V30 15 1 1 15
M  V30 16 1 2 16
M  V30 17 1 2 17
M  V30 18 1 5 18
M  V30 19 1 7 19
M  V30 20 1 7 20
M  V30 21 1 8 21
M  V30 22 1 8 22
M  V30 23 1 9 23
M  V30 24 1 10 24
M  V30 25 1 12 25
M  V30 26 1 12 26
M  V30 END BOND
M  V30 END CTAB
M  END
