
     RDKit          3D

  0  0  0  0  0  0  0  0  0  0999 V3000
M  V30 BEGIN CTAB
M  V30 COUNTS 44 44 0 0 0
M  V30 BEGIN ATOM
M  V30 1 N -2.61672 2.88218 -1.22956 0
M  V30 2 C -1.27063 3.04059 -0.651192 0
M  V30 3 C -0.320576 2.07773 -1.28518 0
M  V30 4 C -0.588816 0.620398 -1.10119 0
M  V30 5 N -0.506956 0.113518 0.237565 0
M  V30 6 C 0.693961 -0.343394 0.778045 0
M  V30 7 O 0.590576 -0.729754 2.02901 0
M  V30 8 C 2.04618 -0.495544 0.273651 0
M  V30 9 C 3.02219 0.188913 1.20326 0
M  V30 10 C 4.44998 0.113519 0.854912 0
M  V30 11 C 4.90639 0.706287 -0.424481 0
M  V30 12 N 2.33489 -0.205524 -1.06144 0
M  V30 13 C -1.75757 0.0237282 1.00823 0
M  V30 14 C -2.45682 -1.2452 0.736207 0
M  V30 15 C -1.95918 -2.18943 -0.135655 0
M  V30 16 C -2.62523 -3.38283 -0.385939 0
M  V30 17 C -3.81787 -3.63817 0.251136 0
M  V30 18 C -4.31581 -2.70443 1.11714 0
M  V30 19 C -3.64948 -1.50624 1.37 0
M  V30 20 H -2.6996 3.51371 -2.03791 0
M  V30 21 H -3.35602 2.99921 -0.521889 0
M  V30 22 H -1.34567 2.9899 0.438524 0
M  V30 23 H -0.904424 4.06386 -0.945035 0
M  V30 24 H -0.340129 2.27304 -2.39367 0
M  V30 25 H 0.724124 2.32692 -0.961336 0
M  V30 26 H -1.65935 0.475199 -1.49741 0
M  V30 27 H -0.0130655 -0.0108292 -1.83248 0
M  V30 28 H 2.28482 -1.61593 0.41979 0
M  V30 29 H 2.74167 1.2666 1.28661 0
M  V30 30 H 2.90439 -0.216062 2.24054 0
M  V30 31 H 4.85889 -0.935023 0.900426 0
M  V30 32 H 5.01355 0.650875 1.67314 0
M  V30 33 H 4.8608 -0.0425295 -1.2321 0
M  V30 34 H 6.01981 0.920812 -0.295616 0
M  V30 35 H 4.48346 1.69348 -0.672777 0
M  V30 36 H 2.45034 0.742538 -1.38628 0
M  V30 37 H 2.51547 -0.973453 -1.70891 0
M  V30 38 H -2.33765 0.913666 0.845875 0
M  V30 39 H -1.42109 0.0723568 2.08818 0
M  V30 40 H -1.02305 -2.00207 -0.643221 0
M  V30 41 H -2.2289 -4.1321 -1.07873 0
M  V30 42 H -4.33139 -4.5629 0.0555046 0
M  V30 43 H -5.25312 -2.92198 1.6081 0
M  V30 44 H -4.10237 -0.815628 2.06616 0
M  V30 END ATOM
M  V30 BEGIN BOND
M  V30 1 1 1 2
M  V30 2 1 2 3
M  V30 3 1 3 4
M  V30 4 1 4 5
M  V30 5 1 5 6
M  V30 6 2 6 7
M  V30 7 1 6 8
M  V30 8 1 8 9
M  V30 9 1 9 10
M  V30 10 1 10 11
M  V30 11 1 8 12
M  V30 12 1 5 13
M  V30 13 1 13 14
M  V30 14 2 14 15
M  V30 15 1 15 16
M  V30 16 2 16 17
M  V30 17 1 17 18
M  V30 18 2 18 19
M  V30 19 1 19 14
M  V30 20 1 1 20
M  V30 21 1 1 21
M  V30 22 1 2 22
M  V30 23 1 2 23
M  V30 24 1 3 24
M  V30 25 1 3 25
M  V30 26 1 4 26
M  V30 27 1 4 27
M  V30 28 1 8 28
M  V30 29 1 9 29
M  V30 30 1 9 30
M  V30 31 1 10 31
M  V30 32 1 10 32
M  V30 33 1 11 33
M  V30 34 1 11 34
M  V30 35 1 11 35
M  V30 36 1 12 36
M  V30 37 1 12 37
M  V30 38 1 13 38
M  V30 39 1 13 39
M  V30 40 1 15 40
M  V30 41 1 16 41
M  V30 42 1 17 42
M  V30 43 1 18 43
M  V30 44 1 19 44
M  V30 END BOND
M  V30 END CTAB
M  END
