
     RDKit          3D

  0  0  0  0  0  0  0  0  0  0999 V3000
M  V30 BEGIN CTAB
M  V30 COUNTS 31 34 0 0 0
M  V30 BEGIN ATOM
M  V30 1 N 5.80112 0.62391 1.21054 0
M  V30 2 C 4.4592 0.273767 0.909306 0
M  V30 3 N 3.31293 0.814569 1.34183 0
M  V30 4 C 2.26679 0.148453 0.784081 0
M  V30 5 C 2.84729 -0.817592 -0.00345814 0
M  V30 6 O 4.13928 -0.701228 0.105255 0
M  V30 7 C 2.03277 -1.67251 -0.713917 0
M  V30 8 C 0.676614 -1.5264 -0.608032 0
M  V30 9 C 0.0655744 -0.566743 0.173621 0
M  V30 10 C 0.8983 0.273469 0.872807 0
M  V30 11 C -1.37347 -0.576561 0.204936 0
M  V30 12 C -2.13076 0.50678 -0.186255 0
M  V30 13 C -3.52153 0.466578 -0.0980401 0
M  V30 14 N -3.99474 1.6326 -0.549435 0
M  V30 15 N -2.99951 2.40342 -0.916332 0
M  V30 16 C -1.86164 1.74555 -0.707319 0
M  V30 17 N -0.59785 2.27454 -1.00992 0
M  V30 18 C -4.16516 -0.644058 0.375282 0
M  V30 19 C -3.43251 -1.74152 0.771702 0
M  V30 20 C -2.06118 -1.69892 0.68426 0
M  V30 21 H 6.05594 0.69506 2.21315 0
M  V30 22 H 6.48599 0.798061 0.442271 0
M  V30 23 H 2.48733 -2.45153 -1.3489 0
M  V30 24 H 0.0816606 -2.23387 -1.19514 0
M  V30 25 H 0.463012 1.02728 1.50025 0
M  V30 26 H -5.03381 1.85357 -0.585246 0
M  V30 27 H -0.170559 2.97219 -0.372123 0
M  V30 28 H -0.101328 1.96591 -1.86558 0
M  V30 29 H -5.25316 -0.67343 0.443587 0
M  V30 30 H -3.92835 -2.63392 1.15024 0
M  V30 31 H -1.44825 -2.53743 0.984374 0
M  V30 END ATOM
M  V30 BEGIN BOND
M  V30 1 1 1 2
M  V30 2 2 2 3
M  V30 3 1 3 4
M  V30 4 2 4 5
M  V30 5 1 5 6
M  V30 6 1 5 7
M  V30 7 2 7 8
M  V30 8 1 8 9
M  V30 9 2 9 10
M  V30 10 1 9 11
M  V30 11 1 11 12
M  V30 12 2 12 13
M  V30 13 1 13 14
M  V30 14 1 14 15
M  V30 15 2 15 16
M  V30 16 1 16 17
M  V30 17 1 13 18
M  V30 18 2 18 19
M  V30 19 1 19 20
M  V30 20 1 6 2
M  V30 21 2 20 11
M  V30 22 1 10 4
M  V30 23 1 16 12
M  V30 24 1 1 21
M  V30 25 1 1 22
M  V30 26 1 7 23
M  V30 27 1 8 24
M  V30 28 1 10 25
M  V30 29 1 14 26
M  V30 30 1 17 27
M  V30 31 1 17 28
M  V30 32 1 18 29
M  V30 33 1 19 30
M  V30 34 1 20 31
M  V30 END BOND
M  V30 END CTAB
M  END
