
     RDKit          3D

  0  0  0  0  0  0  0  0  0  0999 V3000
M  V30 BEGIN CTAB
M  V30 COUNTS 17 17 0 0 0
M  V30 BEGIN ATOM
M  V30 1 N -2.86584 -0.532078 0.549469 0
M  V30 2 N -1.89728 -0.66444 -0.424791 0
M  V30 3 C -0.647851 -0.0224628 -0.259408 0
M  V30 4 C -0.551832 1.35844 -0.296902 0
M  V30 5 C 0.710121 1.90296 -0.162144 0
M  V30 6 N 1.80641 1.12636 0.00112383 0
M  V30 7 C 1.67967 -0.209587 0.0333097 0
M  V30 8 C 0.459509 -0.842445 -0.0931135 0
M  V30 9 N 2.8152 -1.062 0.185329 0
M  V30 10 H -3.26042 0.434062 0.488589 0
M  V30 11 H -2.42867 -0.617851 1.489 0
M  V30 12 H -2.02385 -1.2242 -1.30514 0
M  V30 13 H -1.40858 1.98954 -0.430068 0
M  V30 14 H 0.884955 2.97801 -0.183172 0
M  V30 15 H 0.325573 -1.91264 -0.0611404 0
M  V30 16 H 3.19949 -1.51728 -0.656528 0
M  V30 17 H 3.20339 -1.18441 1.12558 0
M  V30 END ATOM
M  V30 BEGIN BOND
M  V30 1 1 1 2
M  V30 2 1 2 3
M  V30 3 2 3 4
M  V30 4 1 4 5
M  V30 5 2 5 6
M  V30 6 1 6 7
M  V30 7 2 7 8
M  V30 8 1 7 9
M  V30 9 1 8 3
M  V30 10 1 1 10
M  V30 11 1 1 11
M  V30 12 1 2 12
M  V30 13 1 4 13
M  V30 14 1 5 14
M  V30 15 1 8 15
M  V30 16 1 9 16
M  V30 17 1 9 17
M  V30 END BOND
M  V30 END CTAB
M  END
