
     RDKit          3D

  0  0  0  0  0  0  0  0  0  0999 V3000
M  V30 BEGIN CTAB
M  V30 COUNTS 29 30 0 0 0
M  V30 BEGIN ATOM
M  V30 1 C -4.84323 -0.44037 0.204774 0
M  V30 2 C -3.69481 0.00721518 1.10882 0
M  V30 3 C -2.43628 -0.571985 0.639641 0
M  V30 4 N -1.88358 -1.73346 1.00883 0
M  V30 5 N -0.767933 -1.89916 0.356946 0
M  V30 6 C -0.580716 -0.824952 -0.459261 0
M  V30 7 N -1.6134 -0.00212178 -0.284726 0
M  V30 8 N -1.86284 1.2129 -0.901423 0
M  V30 9 S 0.821559 -0.69809 -1.52901 0
M  V30 10 C 2.22681 0.0678969 -0.779855 0
M  V30 11 C 3.06647 -0.755389 -0.0176798 0
M  V30 12 N 2.72675 -2.11668 0.155478 0
M  V30 13 C 4.19705 -0.211098 0.54968 0
M  V30 14 C 4.49851 1.12183 0.371276 0
M  V30 15 C 3.66849 1.91931 -0.377755 0
M  V30 16 C 2.50989 1.3907 -0.967816 0
M  V30 17 Cl 1.49263 2.4103 -1.94093 0
M  V30 18 H -5.70912 -0.634036 0.863335 0
M  V30 19 H -5.10515 0.395655 -0.510414 0
M  V30 20 H -4.53256 -1.33988 -0.372224 0
M  V30 21 H -3.90974 -0.284473 2.16357 0
M  V30 22 H -3.67953 1.11598 1.07342 0
M  V30 23 H -2.03954 2.0495 -0.31904 0
M  V30 24 H -1.87218 1.28285 -1.92522 0
M  V30 25 H 2.54626 -2.6852 -0.673507 0
M  V30 26 H 2.68461 -2.44853 1.15618 0
M  V30 27 H 4.84681 -0.83693 1.13555 0
M  V30 28 H 5.37953 1.53685 0.815046 0
M  V30 29 H 3.86523 2.97136 -0.543687 0
M  V30 END ATOM
M  V30 BEGIN BOND
M  V30 1 1 1 2
M  V30 2 1 2 3
M  V30 3 2 3 4
M  V30 4 1 4 5
M  V30 5 2 5 6
M  V30 6 1 6 7
M  V30 7 1 7 8
M  V30 8 1 6 9
M  V30 9 1 9 10
M  V30 10 2 10 11
M  V30 11 1 11 12
M  V30 12 1 11 13
M  V30 13 2 13 14
M  V30 14 1 14 15
M  V30 15 2 15 16
M  V30 16 1 16 17
M  V30 17 1 7 3
M  V30 18 1 16 10
M  V30 19 1 1 18
M  V30 20 1 1 19
M  V30 21 1 1 20
M  V30 22 1 2 21
M  V30 23 1 2 22
M  V30 24 1 8 23
M  V30 25 1 8 24
M  V30 26 1 12 25
M  V30 27 1 12 26
M  V30 28 1 13 27
M  V30 29 1 14 28
M  V30 30 1 15 29
M  V30 END BOND
M  V30 END CTAB
M  END
