
     RDKit          3D

  0  0  0  0  0  0  0  0  0  0999 V3000
M  V30 BEGIN CTAB
M  V30 COUNTS 47 49 0 0 0
M  V30 BEGIN ATOM
M  V30 1 C -3.91026 -1.61586 0.685335 0
M  V30 2 C -3.72709 -0.226366 1.20317 0
M  V30 3 C -3.55333 0.805286 0.154537 0
M  V30 4 N -4.59912 1.61153 -0.206521 0
M  V30 5 C -4.50257 2.5581 -1.14976 0
M  V30 6 N -5.60946 3.38645 -1.50876 0
M  V30 7 N -3.31508 2.70805 -1.75904 0
M  V30 8 C -2.25634 1.94962 -1.44879 0
M  V30 9 N -1.00204 2.10096 -2.08389 0
M  V30 10 C -2.33629 0.953405 -0.464483 0
M  V30 11 C -1.17023 0.144179 -0.143566 0
M  V30 12 C -0.953281 -1.03615 -0.798107 0
M  V30 13 C 0.152767 -1.86454 -0.539667 0
M  V30 14 C 1.07085 -1.49977 0.405815 0
M  V30 15 N 2.20139 -2.29025 0.783334 0
M  V30 16 C 3.22575 -1.8224 1.68884 0
M  V30 17 C 3.97793 -0.713468 1.0678 0
M  V30 18 C 3.91537 -0.446493 -0.277492 0
M  V30 19 C 4.60993 0.586688 -0.863773 0
M  V30 20 C 5.40691 1.4016 -0.0977253 0
M  V30 21 C 5.5028 1.17565 1.25061 0
M  V30 22 C 4.79671 0.134434 1.8118 0
M  V30 23 C 0.840175 -0.282807 1.07477 0
M  V30 24 C -0.249209 0.518578 0.809034 0
M  V30 25 N 0.264571 -3.05075 -1.27839 0 CHG=1
M  V30 26 O -0.875219 -3.72557 -1.66088 0 CHG=-1
M  V30 27 O 1.34218 -3.50758 -1.63631 0
M  V30 28 H -3.10755 -2.26299 1.09278 0
M  V30 29 H -4.85697 -2.08706 1.09585 0
M  V30 30 H -3.97905 -1.68647 -0.418221 0
M  V30 31 H -4.65055 0.051529 1.77245 0
M  V30 32 H -2.91052 -0.175768 1.96846 0
M  V30 33 H -5.6847 4.32777 -1.03263 0
M  V30 34 H -6.32873 3.1101 -2.2028 0
M  V30 35 H -0.853998 1.68963 -3.01932 0
M  V30 36 H -0.243634 2.62158 -1.60732 0
M  V30 37 H -1.6617 -1.35169 -1.54982 0
M  V30 38 H 2.29358 -3.24759 0.410002 0
M  V30 39 H 2.77991 -1.43735 2.64362 0
M  V30 40 H 3.94208 -2.65146 1.89874 0
M  V30 41 H 3.31177 -1.04778 -0.940264 0
M  V30 42 H 4.53282 0.764704 -1.93473 0
M  V30 43 H 5.94705 2.21565 -0.593591 0
M  V30 44 H 6.14062 1.83471 1.83707 0
M  V30 45 H 4.86882 -0.0483105 2.87648 0
M  V30 46 H 1.57687 -0.0105473 1.8282 0
M  V30 47 H -0.363944 1.43884 1.3596 0
M  V30 END ATOM
M  V30 BEGIN BOND
M  V30 1 1 1 2
M  V30 2 1 2 3
M  V30 3 2 3 4
M  V30 4 1 4 5
M  V30 5 1 5 6
M  V30 6 2 5 7
M  V30 7 1 7 8
M  V30 8 1 8 9
M  V30 9 2 8 10
M  V30 10 1 10 11
M  V30 11 2 11 12
M  V30 12 1 12 13
M  V30 13 2 13 14
M  V30 14 1 14 15
M  V30 15 1 15 16
M  V30 16 1 16 17
M  V30 17 2 17 18
M  V30 18 1 18 19
M  V30 19 2 19 20
M  V30 20 1 20 21
M  V30 21 2 21 22
M  V30 22 1 14 23
M  V30 23 2 23 24
M  V30 24 1 13 25
M  V30 25 1 25 26
M  V30 26 2 25 27
M  V30 27 1 10 3
M  V30 28 1 24 11
M  V30 29 1 22 17
M  V30 30 1 1 28
M  V30 31 1 1 29
M  V30 32 1 1 30
M  V30 33 1 2 31
M  V30 34 1 2 32
M  V30 35 1 6 33
M  V30 36 1 6 34
M  V30 37 1 9 35
M  V30 38 1 9 36
M  V30 39 1 12 37
M  V30 40 1 15 38
M  V30 41 1 16 39
M  V30 42 1 16 40
M  V30 43 1 18 41
M  V30 44 1 19 42
M  V30 45 1 20 43
M  V30 46 1 21 44
M  V30 47 1 22 45
M  V30 48 1 23 46
M  V30 49 1 24 47
M  V30 END BOND
M  V30 END CTAB
M  END
