
     RDKit          3D

  0  0  0  0  0  0  0  0  0  0999 V3000
M  V30 BEGIN CTAB
M  V30 COUNTS 56 60 0 0 0
M  V30 BEGIN ATOM
M  V30 1 N -2.93928 -2.75779 -1.60841 0
M  V30 2 C -2.76889 -1.76826 -0.987113 0
M  V30 3 C -2.62499 -0.564101 -0.214706 0
M  V30 4 C -3.81499 0.0166539 0.294308 0
M  V30 5 N -3.69736 1.13172 1.02814 0
M  V30 6 C -2.52557 1.71301 1.29823 0
M  V30 7 C -1.34841 1.18782 0.827367 0
M  V30 8 C -1.41933 0.0163341 0.0508399 0
M  V30 9 C -0.243627 -0.558365 -0.449548 0
M  V30 10 C 0.0396167 -1.73573 -1.28067 0
M  V30 11 C 1.51917 -1.73598 -1.3848 0
M  V30 12 O 2.17657 -2.61195 -1.99752 0
M  V30 13 N 2.02028 -0.630082 -0.704373 0
M  V30 14 C 0.931215 0.0876887 -0.132263 0
M  V30 15 N 0.968576 1.22838 0.626947 0
M  V30 16 C -0.145807 1.78048 1.10559 0
M  V30 17 N -0.120558 2.96847 1.89795 0
M  V30 18 C 3.40539 -0.221831 -0.562241 0
M  V30 19 C 4.4048 -1.1322 -0.262965 0
M  V30 20 C 5.70377 -0.732406 -0.128946 0
M  V30 21 O 6.68731 -1.66532 0.172078 0
M  V30 22 C 6.32356 -3.01167 0.33019 0
M  V30 23 C 6.03721 0.60836 -0.29431 0
M  V30 24 C 5.03084 1.49514 -0.590945 0
M  V30 25 C 3.7044 1.09066 -0.728178 0
M  V30 26 O 5.30465 2.84851 -0.767809 0
M  V30 27 C 6.62009 3.31107 -0.642644 0
M  V30 28 N -2.48761 2.88958 2.07856 0
M  V30 29 N -5.07753 -0.571582 0.0220033 0
M  V30 30 C -5.78517 -0.745061 -1.23111 0
M  V30 31 C -7.26278 -0.582098 -0.788217 0
M  V30 32 C -7.24124 -1.46937 0.434372 0
M  V30 33 C -5.9272 -1.13021 1.07751 0
M  V30 34 H -0.176326 -2.71468 -0.769549 0
M  V30 35 H -0.379647 -1.66127 -2.30605 0
M  V30 36 H -0.182219 3.88918 1.41948 0
M  V30 37 H -0.0388208 2.89655 2.93076 0
M  V30 38 H 4.09823 -2.18483 -0.140383 0
M  V30 39 H 5.73706 -3.31233 -0.567726 0
M  V30 40 H 5.7513 -3.11986 1.27863 0
M  V30 41 H 7.24133 -3.66025 0.372318 0
M  V30 42 H 7.06304 0.901513 -0.1858 0
M  V30 43 H 2.93813 1.80343 -0.959347 0
M  V30 44 H 6.67793 4.41094 -0.645126 0
M  V30 45 H 7.0536 2.92797 0.322121 0
M  V30 46 H 7.23063 2.94006 -1.50099 0
M  V30 47 H -2.40465 2.84401 3.10468 0
M  V30 48 H -2.54764 3.80612 1.61152 0
M  V30 49 H -5.77329 -1.80965 -1.59439 0
M  V30 50 H -5.51552 -0.0275424 -2.0043 0
M  V30 51 H -7.94655 -0.983704 -1.53849 0
M  V30 52 H -7.45621 0.449782 -0.484039 0
M  V30 53 H -8.10579 -1.27914 1.10326 0
M  V30 54 H -7.18706 -2.54432 0.142125 0
M  V30 55 H -6.08299 -0.311847 1.81202 0
M  V30 56 H -5.44164 -2.01001 1.5494 0
M  V30 END ATOM
M  V30 BEGIN BOND
M  V30 1 3 1 2
M  V30 2 1 2 3
M  V30 3 2 3 4
M  V30 4 1 4 5
M  V30 5 2 5 6
M  V30 6 1 6 7
M  V30 7 2 7 8
M  V30 8 1 8 9
M  V30 9 1 9 10
M  V30 10 1 10 11
M  V30 11 2 11 12
M  V30 12 1 11 13
M  V30 13 1 13 14
M  V30 14 1 14 15
M  V30 15 2 15 16
M  V30 16 1 16 17
M  V30 17 1 13 18
M  V30 18 2 18 19
M  V30 19 1 19 20
M  V30 20 1 20 21
M  V30 21 1 21 22
M  V30 22 2 20 23
M  V30 23 1 23 24
M  V30 24 2 24 25
M  V30 25 1 24 26
M  V30 26 1 26 27
M  V30 27 1 6 28
M  V30 28 1 4 29
M  V30 29 1 29 30
M  V30 30 1 30 31
M  V30 31 1 31 32
M  V30 32 1 32 33
M  V30 33 1 8 3
M  V30 34 2 14 9
M  V30 35 1 25 18
M  V30 36 1 33 29
M  V30 37 1 16 7
M  V30 38 1 10 34
M  V30 39 1 10 35
M  V30 40 1 17 36
M  V30 41 1 17 37
M  V30 42 1 19 38
M  V30 43 1 22 39
M  V30 44 1 22 40
M  V30 45 1 22 41
M  V30 46 1 23 42
M  V30 47 1 25 43
M  V30 48 1 27 44
M  V30 49 1 27 45
M  V30 50 1 27 46
M  V30 51 1 28 47
M  V30 52 1 28 48
M  V30 53 1 30 49
M  V30 54 1 30 50
M  V30 55 1 31 51
M  V30 56 1 31 52
M  V30 57 1 32 53
M  V30 58 1 32 54
M  V30 59 1 33 55
M  V30 60 1 33 56
M  V30 END BOND
M  V30 END CTAB
M  END
