
     RDKit          3D

  0  0  0  0  0  0  0  0  0  0999 V3000
M  V30 BEGIN CTAB
M  V30 COUNTS 26 27 0 0 0
M  V30 BEGIN ATOM
M  V30 1 O -4.79233 0.206264 0.0481843 0
M  V30 2 N -3.48577 0.641548 0.195211 0
M  V30 3 C -2.47101 -0.0789679 -0.112058 0
M  V30 4 C -1.08413 0.347014 0.0296555 0
M  V30 5 C -0.0264605 -0.467942 -0.316014 0
M  V30 6 C 1.2808 -0.0667163 -0.18255 0
M  V30 7 C 1.52921 1.19181 0.313467 0
M  V30 8 N 0.480899 1.98535 0.650429 0
M  V30 9 C -0.791066 1.61367 0.528018 0
M  V30 10 N -1.88429 2.47331 0.892147 0
M  V30 11 C 2.34906 -1.00192 -0.576309 0
M  V30 12 C 3.72534 -0.523745 -0.845574 0
M  V30 13 C 3.44369 -1.13018 0.495282 0
M  V30 14 N -2.71931 -1.37458 -0.622938 0
M  V30 15 H -5.14833 -0.490243 0.707118 0
M  V30 16 H -0.254847 -1.46855 -0.709751 0
M  V30 17 H 2.55926 1.49956 0.415289 0
M  V30 18 H -2.21358 2.56978 1.88018 0
M  V30 19 H -2.40257 3.04331 0.186487 0
M  V30 20 H 2.01804 -1.99112 -0.963386 0
M  V30 21 H 4.30393 -1.16126 -1.57303 0
M  V30 22 H 3.91907 0.544984 -0.956076 0
M  V30 23 H 3.82157 -2.14095 0.734183 0
M  V30 24 H 3.42804 -0.450222 1.35582 0
M  V30 25 H -2.31809 -2.17692 -0.0944817 0
M  V30 26 H -3.26714 -1.59329 -1.4793 0
M  V30 END ATOM
M  V30 BEGIN BOND
M  V30 1 1 1 2
M  V30 2 2 2 3
M  V30 3 1 3 4
M  V30 4 2 4 5
M  V30 5 1 5 6
M  V30 6 2 6 7
M  V30 7 1 7 8
M  V30 8 2 8 9
M  V30 9 1 9 10
M  V30 10 1 6 11
M  V30 11 1 11 12
M  V30 12 1 12 13
M  V30 13 1 3 14
M  V30 14 1 9 4
M  V30 15 1 13 11
M  V30 16 1 1 15
M  V30 17 1 5 16
M  V30 18 1 7 17
M  V30 19 1 10 18
M  V30 20 1 10 19
M  V30 21 1 11 20
M  V30 22 1 12 21
M  V30 23 1 12 22
M  V30 24 1 13 23
M  V30 25 1 13 24
M  V30 26 1 14 25
M  V30 27 1 14 26
M  V30 END BOND
M  V30 END CTAB
M  END
