
     RDKit          3D

  0  0  0  0  0  0  0  0  0  0999 V3000
M  V30 BEGIN CTAB
M  V30 COUNTS 50 52 0 0 0
M  V30 BEGIN ATOM
M  V30 1 N -6.08223 1.6726 3.10197 0
M  V30 2 C -5.53027 1.09613 1.92522 0
M  V30 3 C -5.32734 1.84456 0.772297 0
M  V30 4 C -4.79155 1.26381 -0.354042 0
M  V30 5 C -4.42504 -0.0637883 -0.426685 0
M  V30 6 C -4.63178 -0.814255 0.738862 0
M  V30 7 C -5.16794 -0.233959 1.86659 0
M  V30 8 S -3.78952 -0.766592 -1.88517 0
M  V30 9 O -4.66468 -0.259484 -3.0279 0
M  V30 10 O -3.96197 -2.26718 -1.88965 0
M  V30 11 N -2.15716 -0.375053 -2.15949 0
M  V30 12 C -1.06092 -0.685493 -1.34876 0
M  V30 13 C 0.0145337 -1.33244 -1.98093 0
M  V30 14 C 1.10214 -1.67367 -1.2187 0
M  V30 15 C 1.23196 -1.43236 0.133692 0
M  V30 16 N 2.36558 -1.80224 0.886938 0
M  V30 17 S 3.90651 -2.00176 0.182608 0
M  V30 18 O 4.93672 -2.37974 1.26005 0
M  V30 19 O 3.96457 -3.06336 -0.876184 0
M  V30 20 C 4.42202 -0.476553 -0.512214 0
M  V30 21 C 4.27019 -0.13979 -1.83245 0
M  V30 22 C 4.70362 1.08642 -2.27585 0
M  V30 23 C 5.29212 2.00504 -1.44185 0
M  V30 24 N 5.74398 3.27431 -1.88655 0
M  V30 25 C 5.43214 1.64188 -0.124103 0
M  V30 26 C 5.01154 0.431645 0.345759 0
M  V30 27 C 0.14952 -0.784589 0.755507 0
M  V30 28 C -0.951164 -0.435731 -0.00218641 0
M  V30 29 S 0.240623 -0.461913 2.46164 0
M  V30 30 O 0.354407 -1.85287 3.38773 0
M  V30 31 O -1.01457 0.254709 2.89231 0
M  V30 32 O 1.39271 0.454144 2.79461 0
M  V30 33 H -5.94448 2.65628 3.40874 0
M  V30 34 H -6.67063 1.06129 3.70365 0
M  V30 35 H -5.61267 2.89041 0.81969 0
M  V30 36 H -4.63442 1.86241 -1.26113 0
M  V30 37 H -4.35202 -1.85342 0.702778 0
M  V30 38 H -5.33213 -0.810601 2.7777 0
M  V30 39 H -1.91253 0.175394 -3.05393 0
M  V30 40 H -0.0197262 -1.55397 -3.04494 0
M  V30 41 H 1.917 -2.18372 -1.75585 0
M  V30 42 H 2.25962 -1.95943 1.91021 0
M  V30 43 H 3.81705 -0.84117 -2.50904 0
M  V30 44 H 4.59732 1.38563 -3.32145 0
M  V30 45 H 5.28637 4.12198 -1.51026 0
M  V30 46 H 6.52318 3.28482 -2.57777 0
M  V30 47 H 5.89294 2.33136 0.585842 0
M  V30 48 H 5.14544 0.1877 1.40697 0
M  V30 49 H -1.73666 0.0664912 0.508932 0
M  V30 50 H -0.202418 -2.54388 2.93194 0
M  V30 END ATOM
M  V30 BEGIN BOND
M  V30 1 1 1 2
M  V30 2 2 2 3
M  V30 3 1 3 4
M  V30 4 2 4 5
M  V30 5 1 5 6
M  V30 6 2 6 7
M  V30 7 1 5 8
M  V30 8 2 8 9
M  V30 9 2 8 10
M  V30 10 1 8 11
M  V30 11 1 11 12
M  V30 12 2 12 13
M  V30 13 1 13 14
M  V30 14 2 14 15
M  V30 15 1 15 16
M  V30 16 1 16 17
M  V30 17 2 17 18
M  V30 18 2 17 19
M  V30 19 1 17 20
M  V30 20 2 20 21
M  V30 21 1 21 22
M  V30 22 2 22 23
M  V30 23 1 23 24
M  V30 24 1 23 25
M  V30 25 2 25 26
M  V30 26 1 15 27
M  V30 27 2 27 28
M  V30 28 1 27 29
M  V30 29 1 29 30
M  V30 30 2 29 31
M  V30 31 2 29 32
M  V30 32 1 7 2
M  V30 33 1 28 12
M  V30 34 1 26 20
M  V30 35 1 1 33
M  V30 36 1 1 34
M  V30 37 1 3 35
M  V30 38 1 4 36
M  V30 39 1 6 37
M  V30 40 1 7 38
M  V30 41 1 11 39
M  V30 42 1 13 40
M  V30 43 1 14 41
M  V30 44 1 16 42
M  V30 45 1 21 43
M  V30 46 1 22 44
M  V30 47 1 24 45
M  V30 48 1 24 46
M  V30 49 1 25 47
M  V30 50 1 26 48
M  V30 51 1 28 49
M  V30 52 1 30 50
M  V30 END BOND
M  V30 END CTAB
M  END
