
     RDKit          3D

  0  0  0  0  0  0  0  0  0  0999 V3000
M  V30 BEGIN CTAB
M  V30 COUNTS 25 25 0 0 0
M  V30 BEGIN ATOM
M  V30 1 C 3.97589 0.0521652 -0.121619 0
M  V30 2 C 2.54247 -0.41196 0.156259 0
M  V30 3 C 1.63975 0.534025 -0.597786 0
M  V30 4 N 0.240054 0.212565 -0.425287 0
M  V30 5 C -0.410984 -0.629727 -1.24916 0
M  V30 6 O 0.211817 -1.15773 -2.20162 0
M  V30 7 N -1.71186 -0.938574 -1.10203 0
M  V30 8 C -2.45097 -0.418376 -0.110558 0
M  V30 9 N -3.83254 -0.762303 0.0249208 0
M  V30 10 C -1.82734 0.451672 0.761129 0
M  V30 11 N -2.5999 1.00185 1.80584 0
M  V30 12 C -0.480661 0.75178 0.58322 0
M  V30 13 O 0.0379713 1.55074 1.40654 0
M  V30 14 H 4.69818 -0.397132 0.560204 0
M  V30 15 H 3.93005 1.17362 -0.0452743 0
M  V30 16 H 4.18679 -0.168229 -1.18483 0
M  V30 17 H 2.42732 -1.42672 -0.302604 0
M  V30 18 H 2.32442 -0.489918 1.21883 0
M  V30 19 H 1.86145 1.59319 -0.306449 0
M  V30 20 H 1.92089 0.45818 -1.67 0
M  V30 21 H -2.20884 -1.6043 -1.76063 0
M  V30 22 H -4.37341 -0.530774 0.860964 0
M  V30 23 H -4.29856 -1.26299 -0.751963 0
M  V30 24 H -3.17409 1.87082 1.70637 0
M  V30 25 H -2.62789 0.548131 2.74551 0
M  V30 END ATOM
M  V30 BEGIN BOND
M  V30 1 1 1 2
M  V30 2 1 2 3
M  V30 3 1 3 4
M  V30 4 1 4 5
M  V30 5 2 5 6
M  V30 6 1 5 7
M  V30 7 1 7 8
M  V30 8 1 8 9
M  V30 9 2 8 10
M  V30 10 1 10 11
M  V30 11 1 10 12
M  V30 12 2 12 13
M  V30 13 1 12 4
M  V30 14 1 1 14
M  V30 15 1 1 15
M  V30 16 1 1 16
M  V30 17 1 2 17
M  V30 18 1 2 18
M  V30 19 1 3 19
M  V30 20 1 3 20
M  V30 21 1 7 21
M  V30 22 1 9 22
M  V30 23 1 9 23
M  V30 24 1 11 24
M  V30 25 1 11 25
M  V30 END BOND
M  V30 END CTAB
M  END
