
     RDKit          3D

  0  0  0  0  0  0  0  0  0  0999 V3000
M  V30 BEGIN CTAB
M  V30 COUNTS 31 31 0 0 0
M  V30 BEGIN ATOM
M  V30 1 N 3.38329 0.555629 0.885964 0
M  V30 2 C 3.3904 -0.120535 -0.369419 0
M  V30 3 C 2.24799 -1.06798 -0.54621 0
M  V30 4 N 0.946255 -0.515083 -0.49246 0
M  V30 5 C 0.600537 0.328502 -1.59941 0
M  V30 6 C -0.91043 0.528668 -1.5861 0
M  V30 7 O -1.32329 1.28661 -0.521046 0
M  V30 8 C -1.86797 0.588252 0.528935 0 CFG=2
M  V30 9 C -0.950278 -0.511166 0.947936 0
M  V30 10 C 0.480619 -0.0566929 0.774124 0
M  V30 11 C -3.25392 0.0522631 0.220334 0
M  V30 12 N -3.69977 -0.649864 1.41469 0
M  V30 13 H 3.65292 0.0607569 1.70559 0
M  V30 14 H 3.5513 1.52752 0.860139 0
M  V30 15 H 3.45552 0.637958 -1.18115 0
M  V30 16 H 4.32927 -0.700758 -0.406425 0
M  V30 17 H 2.31524 -1.86166 0.223828 0
M  V30 18 H 2.34749 -1.58711 -1.53035 0
M  V30 19 H 1.15076 1.27685 -1.66139 0
M  V30 20 H 0.822768 -0.242311 -2.53275 0
M  V30 21 H -1.40047 -0.468137 -1.64566 0
M  V30 22 H -1.16972 1.0566 -2.52501 0
M  V30 23 H -1.98544 1.30339 1.36841 0
M  V30 24 H -1.1452 -0.858532 1.98817 0
M  V30 25 H -1.1784 -1.40115 0.305537 0
M  V30 26 H 0.529481 1.04758 0.916678 0
M  V30 27 H 1.12547 -0.493938 1.56912 0
M  V30 28 H -3.23142 -0.714203 -0.587064 0
M  V30 29 H -3.89442 0.894916 -0.0655833 0
M  V30 30 H -3.64477 -0.0186028 2.25783 0
M  V30 31 H -4.67379 -1.01693 1.28275 0
M  V30 END ATOM
M  V30 BEGIN BOND
M  V30 1 1 1 2
M  V30 2 1 2 3
M  V30 3 1 3 4
M  V30 4 1 4 5
M  V30 5 1 5 6
M  V30 6 1 6 7
M  V30 7 1 7 8
M  V30 8 1 8 9
M  V30 9 1 9 10
M  V30 10 1 8 11
M  V30 11 1 11 12
M  V30 12 1 10 4
M  V30 13 1 1 13
M  V30 14 1 1 14
M  V30 15 1 2 15
M  V30 16 1 2 16
M  V30 17 1 3 17
M  V30 18 1 3 18
M  V30 19 1 5 19
M  V30 20 1 5 20
M  V30 21 1 6 21
M  V30 22 1 6 22
M  V30 23 1 8 23 CFG=1
M  V30 24 1 9 24
M  V30 25 1 9 25
M  V30 26 1 10 26
M  V30 27 1 10 27
M  V30 28 1 11 28
M  V30 29 1 11 29
M  V30 30 1 12 30
M  V30 31 1 12 31
M  V30 END BOND
M  V30 END CTAB
M  END
