
     RDKit          3D

  0  0  0  0  0  0  0  0  0  0999 V3000
M  V30 BEGIN CTAB
M  V30 COUNTS 38 40 0 0 0
M  V30 BEGIN ATOM
M  V30 1 N -7.1901 -0.454521 -0.0447285 0
M  V30 2 C -5.79215 -0.227853 -0.0206243 0
M  V30 3 N -4.90739 -1.19886 -0.309048 0
M  V30 4 C -3.57217 -0.978256 -0.284901 0
M  V30 5 C -3.09656 0.268116 0.0419143 0
M  V30 6 C -1.73653 0.45861 0.0571869 0
M  V30 7 C -0.826977 -0.539157 -0.239199 0
M  V30 8 C 0.581398 -0.186135 -0.180929 0
M  V30 9 N 1.52629 -1.19972 -0.483392 0
M  V30 10 C 2.91306 -0.845092 -0.424125 0
M  V30 11 C 3.34431 0.425373 -0.0889902 0
M  V30 12 C 4.67367 0.785841 -0.0265676 0
M  V30 13 C 5.61321 -0.181178 -0.315966 0
M  V30 14 Cl 7.30258 0.316407 -0.225859 0
M  V30 15 C 5.25057 -1.46686 -0.657109 0
M  V30 16 C 3.90566 -1.7682 -0.70297 0
M  V30 17 C 5.0812 2.17707 0.342148 0
M  V30 18 F 5.86105 2.14377 1.47843 0
M  V30 19 F 3.95006 2.92684 0.49444 0
M  V30 20 F 5.86379 2.70593 -0.67817 0
M  V30 21 C -1.3123 -1.7827 -0.56498 0
M  V30 22 C -2.67482 -1.99583 -0.586355 0
M  V30 23 C -3.98876 1.28684 0.34354 0
M  V30 24 N -3.46046 2.55254 0.674197 0
M  V30 25 N -5.29418 0.995128 0.299217 0
M  V30 26 H -7.66946 -0.800287 0.798977 0
M  V30 27 H -7.72049 -0.27137 -0.909363 0
M  V30 28 H -1.40427 1.47398 0.324916 0
M  V30 29 H 0.785104 0.15634 0.87805 0
M  V30 30 H 0.724509 0.742599 -0.800509 0
M  V30 31 H 1.29352 -2.15455 -0.737894 0
M  V30 32 H 2.59374 1.16853 0.134182 0
M  V30 33 H 6.02417 -2.1879 -0.874871 0
M  V30 34 H 3.60974 -2.7804 -0.971265 0
M  V30 35 H -0.636911 -2.61512 -0.809996 0
M  V30 36 H -3.07513 -2.97844 -0.843327 0
M  V30 37 H -3.61368 3.34908 0.0359416 0
M  V30 38 H -2.9253 2.67945 1.54758 0
M  V30 END ATOM
M  V30 BEGIN BOND
M  V30 1 1 1 2
M  V30 2 2 2 3
M  V30 3 1 3 4
M  V30 4 2 4 5
M  V30 5 1 5 6
M  V30 6 2 6 7
M  V30 7 1 7 8
M  V30 8 1 8 9
M  V30 9 1 9 10
M  V30 10 2 10 11
M  V30 11 1 11 12
M  V30 12 2 12 13
M  V30 13 1 13 14
M  V30 14 1 13 15
M  V30 15 2 15 16
M  V30 16 1 12 17
M  V30 17 1 17 18
M  V30 18 1 17 19
M  V30 19 1 17 20
M  V30 20 1 7 21
M  V30 21 2 21 22
M  V30 22 1 5 23
M  V30 23 1 23 24
M  V30 24 2 23 25
M  V30 25 1 25 2
M  V30 26 1 22 4
M  V30 27 1 16 10
M  V30 28 1 1 26
M  V30 29 1 1 27
M  V30 30 1 6 28
M  V30 31 1 8 29
M  V30 32 1 8 30
M  V30 33 1 9 31
M  V30 34 1 11 32
M  V30 35 1 15 33
M  V30 36 1 16 34
M  V30 37 1 21 35
M  V30 38 1 22 36
M  V30 39 1 24 37
M  V30 40 1 24 38
M  V30 END BOND
M  V30 END CTAB
M  END
