
     RDKit          3D

  0  0  0  0  0  0  0  0  0  0999 V3000
M  V30 BEGIN CTAB
M  V30 COUNTS 56 59 0 0 0
M  V30 BEGIN ATOM
M  V30 1 C 2.56934 3.24731 0.160984 0
M  V30 2 N 2.01604 2.13414 -0.560618 0
M  V30 3 C 2.74386 1.58042 -1.6678 0
M  V30 4 C 4.11282 1.12903 -1.25023 0
M  V30 5 N 4.34142 0.0190865 -0.536155 0
M  V30 6 C 5.61267 -0.341969 -0.181714 0
M  V30 7 C 5.85751 -1.47953 0.551842 0
M  V30 8 N 4.78279 -2.3116 0.961565 0
M  V30 9 N 7.14461 -1.79443 0.880859 0
M  V30 10 C 8.1897 -1.03747 0.516382 0
M  V30 11 N 9.52238 -1.41784 0.896642 0
M  V30 12 N 7.96088 0.0710008 -0.198373 0
M  V30 13 C 6.6892 0.433022 -0.554647 0
M  V30 14 N 6.44849 1.54618 -1.27192 0
M  V30 15 C 5.18544 1.90833 -1.6261 0
M  V30 16 C 0.785098 1.59175 -0.1676 0
M  V30 17 C -0.229192 1.27107 -1.0424 0
M  V30 18 C -1.42531 0.722616 -0.626767 0
M  V30 19 C -1.64499 0.474089 0.698997 0
M  V30 20 C -0.651137 0.779754 1.63022 0
M  V30 21 C 0.513574 1.32039 1.17547 0
M  V30 22 C -2.88546 -0.100184 1.14977 0
M  V30 23 O -2.97931 -0.440751 2.38142 0
M  V30 24 N -3.98197 -0.294727 0.29834 0
M  V30 25 C -5.2039 -0.881638 0.842058 0
M  V30 26 C -6.33014 0.0914998 0.587963 0
M  V30 27 C -6.95109 -0.235918 -0.747772 0
M  V30 28 C -7.78331 -1.50101 -0.562575 0
M  V30 29 C -6.97714 -2.52913 0.220587 0
M  V30 30 C -5.49411 -2.19341 0.147792 0
M  V30 31 H 2.63542 3.06533 1.25259 0
M  V30 32 H 3.59569 3.53634 -0.186545 0
M  V30 33 H 1.92468 4.14216 -0.0292886 0
M  V30 34 H 2.80868 2.34977 -2.45846 0
M  V30 35 H 2.19445 0.721847 -2.14989 0
M  V30 36 H 4.58252 -2.43223 1.96131 0
M  V30 37 H 4.17154 -2.82098 0.265811 0
M  V30 38 H 10.0368 -2.15479 0.380551 0
M  V30 39 H 9.94894 -0.932814 1.69849 0
M  V30 40 H 5.07414 2.82214 -2.20518 0
M  V30 41 H -0.030679 1.48555 -2.10763 0
M  V30 42 H -2.16525 0.497178 -1.35862 0
M  V30 43 H -0.857461 0.57309 2.65365 0
M  V30 44 H 1.28695 1.55411 1.92311 0
M  V30 45 H -3.93823 -0.0272541 -0.698103 0
M  V30 46 H -5.06503 -1.0342 1.94046 0
M  V30 47 H -5.91214 1.13253 0.579472 0
M  V30 48 H -7.11267 0.0258343 1.40136 0
M  V30 49 H -6.14898 -0.439054 -1.48753 0
M  V30 50 H -7.5895 0.618625 -1.05426 0
M  V30 51 H -8.645 -1.21524 0.0754627 0
M  V30 52 H -8.17997 -1.88469 -1.50654 0
M  V30 53 H -7.11294 -3.49935 -0.290889 0
M  V30 54 H -7.32192 -2.61552 1.25318 0
M  V30 55 H -4.98093 -2.99617 0.737332 0
M  V30 56 H -5.1379 -2.23229 -0.889324 0
M  V30 END ATOM
M  V30 BEGIN BOND
M  V30 1 1 1 2
M  V30 2 1 2 3
M  V30 3 1 3 4
M  V30 4 2 4 5
M  V30 5 1 5 6
M  V30 6 2 6 7
M  V30 7 1 7 8
M  V30 8 1 7 9
M  V30 9 2 9 10
M  V30 10 1 10 11
M  V30 11 1 10 12
M  V30 12 2 12 13
M  V30 13 1 13 14
M  V30 14 2 14 15
M  V30 15 1 2 16
M  V30 16 2 16 17
M  V30 17 1 17 18
M  V30 18 2 18 19
M  V30 19 1 19 20
M  V30 20 2 20 21
M  V30 21 1 19 22
M  V30 22 2 22 23
M  V30 23 1 22 24
M  V30 24 1 24 25
M  V30 25 1 25 26
M  V30 26 1 26 27
M  V30 27 1 27 28
M  V30 28 1 28 29
M  V30 29 1 29 30
M  V30 30 1 15 4
M  V30 31 1 21 16
M  V30 32 1 30 25
M  V30 33 1 13 6
M  V30 34 1 1 31
M  V30 35 1 1 32
M  V30 36 1 1 33
M  V30 37 1 3 34
M  V30 38 1 3 35
M  V30 39 1 8 36
M  V30 40 1 8 37
M  V30 41 1 11 38
M  V30 42 1 11 39
M  V30 43 1 15 40
M  V30 44 1 17 41
M  V30 45 1 18 42
M  V30 46 1 20 43
M  V30 47 1 21 44
M  V30 48 1 24 45
M  V30 49 1 25 46
M  V30 50 1 26 47
M  V30 51 1 26 48
M  V30 52 1 27 49
M  V30 53 1 27 50
M  V30 54 1 28 51
M  V30 55 1 28 52
M  V30 56 1 29 53
M  V30 57 1 29 54
M  V30 58 1 30 55
M  V30 59 1 30 56
M  V30 END BOND
M  V30 END CTAB
M  END
