
     RDKit          3D

  0  0  0  0  0  0  0  0  0  0999 V3000
M  V30 BEGIN CTAB
M  V30 COUNTS 28 28 0 0 0
M  V30 BEGIN ATOM
M  V30 1 C 2.71427 0.748792 2.51975 0
M  V30 2 O 3.17432 0.132354 1.34649 0
M  V30 3 C 2.37672 -0.234343 0.29211 0
M  V30 4 C 2.95751 -0.834148 -0.805152 0
M  V30 5 C 2.18242 -1.20642 -1.86404 0
M  V30 6 C 0.800555 -1.00749 -1.89583 0
M  V30 7 N 0.037124 -1.40853 -3.01272 0
M  V30 8 C 0.24839 -0.404075 -0.781284 0
M  V30 9 C 1.01882 -0.0223682 0.296344 0
M  V30 10 C -1.1721 -0.151296 -0.710153 0
M  V30 11 O -1.89134 -0.492368 -1.68343 0
M  V30 12 C -1.82062 0.494879 0.464393 0
M  V30 13 C -3.31793 0.616122 0.226917 0
M  V30 14 N -3.99255 1.2321 1.32729 0
M  V30 15 H 2.26067 -0.0264361 3.1517 0
M  V30 16 H 1.95911 1.54083 2.3152 0
M  V30 17 H 3.55151 1.23279 3.06184 0
M  V30 18 H 4.04242 -1.01771 -0.839092 0
M  V30 19 H 2.61413 -1.68216 -2.74394 0
M  V30 20 H -0.131361 -2.40536 -3.19016 0
M  V30 21 H -0.348761 -0.697266 -3.64674 0
M  V30 22 H 0.590309 0.457475 1.18618 0
M  V30 23 H -1.37173 1.44724 0.746272 0
M  V30 24 H -1.69913 -0.205913 1.32596 0
M  V30 25 H -3.4825 1.24667 -0.672178 0
M  V30 26 H -3.77462 -0.36744 0.00601142 0
M  V30 27 H -3.80959 0.765154 2.24185 0
M  V30 28 H -3.71604 2.24892 1.3364 0
M  V30 END ATOM
M  V30 BEGIN BOND
M  V30 1 1 1 2
M  V30 2 1 2 3
M  V30 3 2 3 4
M  V30 4 1 4 5
M  V30 5 2 5 6
M  V30 6 1 6 7
M  V30 7 1 6 8
M  V30 8 2 8 9
M  V30 9 1 8 10
M  V30 10 2 10 11
M  V30 11 1 10 12
M  V30 12 1 12 13
M  V30 13 1 13 14
M  V30 14 1 9 3
M  V30 15 1 1 15
M  V30 16 1 1 16
M  V30 17 1 1 17
M  V30 18 1 4 18
M  V30 19 1 5 19
M  V30 20 1 7 20
M  V30 21 1 7 21
M  V30 22 1 9 22
M  V30 23 1 12 23
M  V30 24 1 12 24
M  V30 25 1 13 25
M  V30 26 1 13 26
M  V30 27 1 14 27
M  V30 28 1 14 28
M  V30 END BOND
M  V30 END CTAB
M  END
