
     RDKit          3D

  0  0  0  0  0  0  0  0  0  0999 V3000
M  V30 BEGIN CTAB
M  V30 COUNTS 28 28 0 0 0
M  V30 BEGIN ATOM
M  V30 1 C -5.98355 1.2697 0.00721999 0
M  V30 2 O -4.58672 1.22596 0.166296 0
M  V30 3 C -3.81315 0.0961666 0.020547 0
M  V30 4 O -4.3975 -0.972047 -0.275811 0
M  V30 5 C -2.37284 0.0657628 0.187681 0
M  V30 6 C -1.62036 1.17234 0.512431 0
M  V30 7 C -0.253228 1.06477 0.654412 0
M  V30 8 C 0.416958 -0.128496 0.482753 0
M  V30 9 C -0.354603 -1.22087 0.158709 0
M  V30 10 C -1.70675 -1.12493 0.016072 0
M  V30 11 C 1.87396 -0.224398 0.638038 0
M  V30 12 N 2.50639 -1.33517 0.479273 0
M  V30 13 N 3.87341 -1.4856 0.612179 0
M  V30 14 C 4.77045 -0.797268 0.0406417 0
M  V30 15 N 4.38295 0.24716 -0.835513 0
M  V30 16 N 6.12607 -1.08754 0.290534 0
M  V30 17 H -6.18162 1.70332 -1.0113 0
M  V30 18 H -6.44934 0.255325 0.0550268 0
M  V30 19 H -6.48717 1.88953 0.766037 0
M  V30 20 H -2.14903 2.09919 0.644787 0
M  V30 21 H 0.346661 1.94948 0.913845 0
M  V30 22 H 0.13673 -2.17062 0.0170082 0
M  V30 23 H -2.25574 -2.03851 -0.243334 0
M  V30 24 H 2.45219 0.651065 0.892902 0
M  V30 25 H 3.99686 0.0472021 -1.7744 0
M  V30 26 H 4.50497 1.22588 -0.490163 0
M  V30 27 H 6.53774 -0.788527 1.18894 0
M  V30 28 H 6.68625 -1.58886 -0.416415 0
M  V30 END ATOM
M  V30 BEGIN BOND
M  V30 1 1 1 2
M  V30 2 1 2 3
M  V30 3 2 3 4
M  V30 4 1 3 5
M  V30 5 2 5 6
M  V30 6 1 6 7
M  V30 7 2 7 8
M  V30 8 1 8 9
M  V30 9 2 9 10
M  V30 10 1 8 11
M  V30 11 2 11 12
M  V30 12 1 12 13
M  V30 13 2 13 14
M  V30 14 1 14 15
M  V30 15 1 14 16
M  V30 16 1 10 5
M  V30 17 1 1 17
M  V30 18 1 1 18
M  V30 19 1 1 19
M  V30 20 1 6 20
M  V30 21 1 7 21
M  V30 22 1 9 22
M  V30 23 1 10 23
M  V30 24 1 11 24
M  V30 25 1 15 25
M  V30 26 1 15 26
M  V30 27 1 16 27
M  V30 28 1 16 28
M  V30 END BOND
M  V30 END CTAB
M  END
