
     RDKit          3D

  0  0  0  0  0  0  0  0  0  0999 V3000
M  V30 BEGIN CTAB
M  V30 COUNTS 54 58 0 0 0
M  V30 BEGIN ATOM
M  V30 1 C 8.40663 2.94078 -0.478003 0
M  V30 2 O 7.14529 3.42066 -0.858805 0
M  V30 3 C 5.97433 2.68518 -0.775038 0
M  V30 4 C 4.80085 3.28273 -1.18518 0
M  V30 5 C 3.58909 2.59124 -1.12428 0
M  V30 6 C 3.55285 1.29433 -0.64999 0
M  V30 7 C 4.69707 0.688166 -0.241372 0
M  V30 8 C 5.90299 1.39705 -0.309657 0
M  V30 9 C 4.67293 -0.609143 0.235015 0
M  V30 10 C 3.46169 -1.26717 0.283623 0
M  V30 11 C 2.2819 -0.680469 -0.123515 0
M  V30 12 C 2.33876 0.597283 -0.587393 0
M  V30 13 C 1.03647 -1.46696 -0.0328281 0
M  V30 14 N 1.08351 -2.73366 0.443561 0
M  V30 15 C -0.0290284 -3.47072 0.537346 0
M  V30 16 C 0.0820545 -4.76471 1.02827 0
M  V30 17 C -1.04063 -5.54423 1.12976 0
M  V30 18 C -2.26579 -5.0119 0.735061 0
M  V30 19 C -2.38191 -3.71956 0.244073 0
M  V30 20 C -1.26099 -2.93457 0.140902 0
M  V30 21 C -1.37442 -1.6598 -0.348524 0
M  V30 22 C -0.165865 -0.94272 -0.41996 0
M  V30 23 C -2.61328 -1.02049 -0.760184 0
M  V30 24 O -2.50823 0.140829 -1.32026 0
M  V30 25 O -3.8894 -1.44428 -0.652212 0
M  V30 26 C -5.07853 -0.841619 -1.03867 0
M  V30 27 C -5.36294 0.465281 -0.401879 0
M  V30 28 N -5.0741 1.65013 -0.96778 0
M  V30 29 C -5.35515 2.82298 -0.342331 0
M  V30 30 N -5.01853 4.02416 -1.00764 0
M  V30 31 N -5.92742 2.84214 0.855002 0
M  V30 32 C -6.22509 1.6672 1.43968 0
M  V30 33 N -5.94216 0.512117 0.810858 0
M  V30 34 N -6.8318 1.63369 2.70734 0
M  V30 35 H 9.07386 3.76462 -0.103261 0
M  V30 36 H 8.89406 2.30735 -1.22581 0
M  V30 37 H 8.24939 2.29188 0.433161 0
M  V30 38 H 4.81367 4.2837 -1.55368 0
M  V30 39 H 2.65436 3.03041 -1.43734 0
M  V30 40 H 6.80239 0.917949 0.0124503 0
M  V30 41 H 5.60507 -1.06544 0.554006 0
M  V30 42 H 3.46284 -2.29262 0.663436 0
M  V30 43 H 1.44469 1.09428 -0.915333 0
M  V30 44 H 1.03003 -5.17041 1.33128 0
M  V30 45 H -0.948827 -6.55808 1.51529 0
M  V30 46 H -3.14216 -5.63409 0.81905 0
M  V30 47 H -3.36655 -3.41144 -0.0358422 0
M  V30 48 H -0.2318 0.0592818 -0.800955 0
M  V30 49 H -5.16886 -0.743586 -2.16318 0
M  V30 50 H -5.89787 -1.58688 -0.798982 0
M  V30 51 H -4.84777 4.8916 -0.47708 0
M  V30 52 H -4.9392 4.04524 -2.04532 0
M  V30 53 H -6.40127 2.0644 3.56751 0
M  V30 54 H -7.76722 1.16789 2.87098 0
M  V30 END ATOM
M  V30 BEGIN BOND
M  V30 1 1 1 2
M  V30 2 1 2 3
M  V30 3 2 3 4
M  V30 4 1 4 5
M  V30 5 2 5 6
M  V30 6 1 6 7
M  V30 7 2 7 8
M  V30 8 1 7 9
M  V30 9 2 9 10
M  V30 10 1 10 11
M  V30 11 2 11 12
M  V30 12 1 11 13
M  V30 13 2 13 14
M  V30 14 1 14 15
M  V30 15 2 15 16
M  V30 16 1 16 17
M  V30 17 2 17 18
M  V30 18 1 18 19
M  V30 19 2 19 20
M  V30 20 1 20 21
M  V30 21 2 21 22
M  V30 22 1 21 23
M  V30 23 2 23 24
M  V30 24 1 23 25
M  V30 25 1 25 26
M  V30 26 1 26 27
M  V30 27 2 27 28
M  V30 28 1 28 29
M  V30 29 1 29 30
M  V30 30 2 29 31
M  V30 31 1 31 32
M  V30 32 2 32 33
M  V30 33 1 32 34
M  V30 34 1 8 3
M  V30 35 1 22 13
M  V30 36 1 33 27
M  V30 37 1 12 6
M  V30 38 1 20 15
M  V30 39 1 1 35
M  V30 40 1 1 36
M  V30 41 1 1 37
M  V30 42 1 4 38
M  V30 43 1 5 39
M  V30 44 1 8 40
M  V30 45 1 9 41
M  V30 46 1 10 42
M  V30 47 1 12 43
M  V30 48 1 16 44
M  V30 49 1 17 45
M  V30 50 1 18 46
M  V30 51 1 19 47
M  V30 52 1 22 48
M  V30 53 1 26 49
M  V30 54 1 26 50
M  V30 55 1 30 51
M  V30 56 1 30 52
M  V30 57 1 34 53
M  V30 58 1 34 54
M  V30 END BOND
M  V30 END CTAB
M  END
