
     RDKit          3D

  0  0  0  0  0  0  0  0  0  0999 V3000
M  V30 BEGIN CTAB
M  V30 COUNTS 43 42 0 0 0
M  V30 BEGIN ATOM
M  V30 1 C -4.86759 0.121657 -0.572602 0
M  V30 2 C -3.61149 0.472987 0.210648 0
M  V30 3 C -2.51128 -0.534145 -0.0491191 0
M  V30 4 C -1.31765 -0.124212 0.749872 0
M  V30 5 C -0.137986 -1.05795 0.576459 0
M  V30 6 N 0.955705 -0.573046 1.38721 0
M  V30 7 C 1.96067 0.323484 0.967718 0
M  V30 8 O 2.85407 0.761346 1.73632 0
M  V30 9 C 2.00218 0.797378 -0.428848 0 CFG=2
M  V30 10 C 3.1458 0.131476 -1.18531 0
M  V30 11 C 3.05958 -1.35931 -1.23496 0
M  V30 12 C 4.48047 0.498809 -0.566428 0
M  V30 13 N 2.31457 2.23635 -0.329691 0
M  V30 14 C 1.07878 -1.02906 2.7953 0
M  V30 15 N -3.01751 -1.83243 0.272207 0
M  V30 16 C -3.21611 1.86954 -0.154851 0
M  V30 17 H -5.38817 -0.760693 -0.154625 0
M  V30 18 H -4.65973 0.0600297 -1.64146 0
M  V30 19 H -5.5651 0.988516 -0.421786 0
M  V30 20 H -3.90048 0.421323 1.28436 0
M  V30 21 H -2.27032 -0.52774 -1.13607 0
M  V30 22 H -1.58034 -0.0215631 1.81986 0
M  V30 23 H -0.996674 0.877771 0.397488 0
M  V30 24 H 0.142343 -1.12273 -0.484755 0
M  V30 25 H -0.361206 -2.08566 0.919646 0
M  V30 26 H 1.08177 0.687972 -0.981421 0
M  V30 27 H 3.15907 0.507266 -2.22405 0
M  V30 28 H 2.83119 -1.74491 -0.205004 0
M  V30 29 H 2.29893 -1.72555 -1.95594 0
M  V30 30 H 4.04009 -1.78785 -1.5242 0
M  V30 31 H 4.6531 -0.139551 0.312303 0
M  V30 32 H 5.25537 0.329898 -1.35898 0
M  V30 33 H 4.51336 1.57704 -0.328501 0
M  V30 34 H 2.86497 2.42703 0.521074 0
M  V30 35 H 2.72483 2.57717 -1.20635 0
M  V30 36 H 1.16276 -0.113582 3.42139 0
M  V30 37 H 2.06118 -1.54143 2.84743 0
M  V30 38 H 0.243926 -1.67576 3.07618 0
M  V30 39 H -2.29217 -2.59055 0.198072 0
M  V30 40 H -3.73818 -2.07458 -0.458042 0
M  V30 41 H -2.65729 1.89671 -1.11068 0
M  V30 42 H -4.14114 2.46637 -0.323907 0
M  V30 43 H -2.65431 2.39217 0.639585 0
M  V30 END ATOM
M  V30 BEGIN BOND
M  V30 1 1 1 2
M  V30 2 1 2 3
M  V30 3 1 3 4
M  V30 4 1 4 5
M  V30 5 1 5 6
M  V30 6 1 6 7
M  V30 7 2 7 8
M  V30 8 1 7 9
M  V30 9 1 9 10
M  V30 10 1 10 11
M  V30 11 1 10 12
M  V30 12 1 9 13
M  V30 13 1 6 14
M  V30 14 1 3 15
M  V30 15 1 2 16
M  V30 16 1 1 17
M  V30 17 1 1 18
M  V30 18 1 1 19
M  V30 19 1 2 20
M  V30 20 1 3 21
M  V30 21 1 4 22
M  V30 22 1 4 23
M  V30 23 1 5 24
M  V30 24 1 5 25
M  V30 25 1 9 26 CFG=3
M  V30 26 1 10 27
M  V30 27 1 11 28
M  V30 28 1 11 29
M  V30 29 1 11 30
M  V30 30 1 12 31
M  V30 31 1 12 32
M  V30 32 1 12 33
M  V30 33 1 13 34
M  V30 34 1 13 35
M  V30 35 1 14 36
M  V30 36 1 14 37
M  V30 37 1 14 38
M  V30 38 1 15 39
M  V30 39 1 15 40
M  V30 40 1 16 41
M  V30 41 1 16 42
M  V30 42 1 16 43
M  V30 END BOND
M  V30 END CTAB
M  END
