
     RDKit          3D

  0  0  0  0  0  0  0  0  0  0999 V3000
M  V30 BEGIN CTAB
M  V30 COUNTS 70 71 0 0 0
M  V30 BEGIN ATOM
M  V30 1 N -7.11218 1.5785 -0.256753 0
M  V30 2 C -6.63469 0.217834 -0.251272 0 CFG=1
M  V30 3 C -7.36823 -0.547694 -1.33509 0
M  V30 4 C -8.81802 -0.499601 -1.03217 0
M  V30 5 C -9.41784 -1.47019 -0.252369 0
M  V30 6 C -10.7547 -1.44677 0.0391265 0
M  V30 7 C -11.573 -0.443111 -0.436878 0
M  V30 8 C -10.9843 0.536616 -1.2201 0
M  V30 9 C -9.63486 0.504554 -1.50878 0
M  V30 10 C -5.14882 0.239034 -0.564802 0
M  V30 11 O -4.61322 1.33598 -0.762355 0
M  V30 12 N -4.44551 -0.97561 -0.618281 0
M  V30 13 C -3.10253 -1.27303 -0.847821 0
M  V30 14 C -2.01153 -0.968895 0.119397 0
M  V30 15 C -1.83547 0.411064 0.482229 0
M  V30 16 C -0.807599 0.907948 1.39504 0
M  V30 17 C 0.623371 0.822706 1.22677 0
M  V30 18 C 1.2367 -0.537342 1.17873 0
M  V30 19 C 2.76124 -0.469516 1.01989 0
M  V30 20 C 3.461 0.235896 2.11267 0
M  V30 21 N 4.88744 0.231068 1.89214 0
M  V30 22 C 5.43125 0.869147 0.760934 0
M  V30 23 O 4.67434 1.45343 -0.0573568 0
M  V30 24 C 6.9083 0.835968 0.558683 0 CFG=1
M  V30 25 N 7.51417 0.102935 1.63528 0
M  V30 26 C 7.15085 0.201072 -0.783332 0
M  V30 27 C 8.6017 0.146508 -1.0271 0
M  V30 28 C 9.33521 -0.944633 -0.632409 0
M  V30 29 C 10.6992 -1.00555 -0.857047 0
M  V30 30 C 11.3001 0.0696492 -1.49272 0
M  V30 31 C 10.5728 1.1614 -1.88888 0
M  V30 32 C 9.20775 1.21123 -1.65867 0
M  V30 33 H -6.30207 2.1904 0.0367704 0
M  V30 34 H -7.82745 1.71032 0.510531 0
M  V30 35 H -6.77828 -0.301086 0.709439 0
M  V30 36 H -7.13901 -0.0873149 -2.32204 0
M  V30 37 H -7.07114 -1.62521 -1.33288 0
M  V30 38 H -8.76068 -2.25375 0.115078 0
M  V30 39 H -11.2074 -2.21846 0.653038 0
M  V30 40 H -12.638 -0.404429 -0.218019 0
M  V30 41 H -11.6408 1.32975 -1.59422 0
M  V30 42 H -9.20895 1.30149 -2.13315 0
M  V30 43 H -5.07185 -1.86941 -0.442558 0
M  V30 44 H -3.00172 -2.36613 -1.16589 0
M  V30 45 H -2.76528 -0.751639 -1.83716 0
M  V30 46 H -2.24167 -1.61637 1.02986 0
M  V30 47 H -1.11691 -1.496 -0.310775 0
M  V30 48 H -2.82098 0.711229 1.01808 0
M  V30 49 H -1.86099 1.06365 -0.445481 0
M  V30 50 H -1.05647 0.508129 2.45065 0
M  V30 51 H -1.07988 2.01717 1.56848 0
M  V30 52 H 1.11186 1.29998 2.1548 0
M  V30 53 H 1.05386 1.491 0.426011 0
M  V30 54 H 1.05844 -1.08114 2.15329 0
M  V30 55 H 0.894388 -1.20276 0.396363 0
M  V30 56 H 3.0803 -1.55724 1.08705 0
M  V30 57 H 2.94899 -0.14875 0.00252861 0
M  V30 58 H 3.08299 1.29819 2.16899 0
M  V30 59 H 3.25801 -0.172491 3.12308 0
M  V30 60 H 5.53411 -0.259349 2.59076 0
M  V30 61 H 7.27168 1.89083 0.549951 0
M  V30 62 H 7.23272 -0.894809 1.68885 0
M  V30 63 H 7.39523 0.537646 2.56597 0
M  V30 64 H 6.63039 0.805021 -1.55142 0
M  V30 65 H 6.71437 -0.82798 -0.766677 0
M  V30 66 H 8.81916 -1.7459 -0.146431 0
M  V30 67 H 11.3027 -1.84476 -0.561184 0
M  V30 68 H 12.355 0.0312539 -1.67092 0
M  V30 69 H 11.0937 1.97699 -2.3834 0
M  V30 70 H 8.64868 2.07135 -1.9738 0
M  V30 END ATOM
M  V30 BEGIN BOND
M  V30 1 1 1 2
M  V30 2 1 2 3
M  V30 3 1 3 4
M  V30 4 2 4 5
M  V30 5 1 5 6
M  V30 6 2 6 7
M  V30 7 1 7 8
M  V30 8 2 8 9
M  V30 9 1 2 10
M  V30 10 2 10 11
M  V30 11 1 10 12
M  V30 12 1 12 13
M  V30 13 1 13 14
M  V30 14 1 14 15
M  V30 15 1 15 16
M  V30 16 1 16 17
M  V30 17 1 17 18
M  V30 18 1 18 19
M  V30 19 1 19 20
M  V30 20 1 20 21
M  V30 21 1 21 22
M  V30 22 2 22 23
M  V30 23 1 22 24
M  V30 24 1 24 25
M  V30 25 1 24 26
M  V30 26 1 26 27
M  V30 27 2 27 28
M  V30 28 1 28 29
M  V30 29 2 29 30
M  V30 30 1 30 31
M  V30 31 2 31 32
M  V30 32 1 9 4
M  V30 33 1 32 27
M  V30 34 1 1 33
M  V30 35 1 1 34
M  V30 36 1 2 35 CFG=1
M  V30 37 1 3 36
M  V30 38 1 3 37
M  V30 39 1 5 38
M  V30 40 1 6 39
M  V30 41 1 7 40
M  V30 42 1 8 41
M  V30 43 1 9 42
M  V30 44 1 12 43
M  V30 45 1 13 44
M  V30 46 1 13 45
M  V30 47 1 14 46
M  V30 48 1 14 47
M  V30 49 1 15 48
M  V30 50 1 15 49
M  V30 51 1 16 50
M  V30 52 1 16 51
M  V30 53 1 17 52
M  V30 54 1 17 53
M  V30 55 1 18 54
M  V30 56 1 18 55
M  V30 57 1 19 56
M  V30 58 1 19 57
M  V30 59 1 20 58
M  V30 60 1 20 59
M  V30 61 1 21 60
M  V30 62 1 24 61 CFG=3
M  V30 63 1 25 62
M  V30 64 1 25 63
M  V30 65 1 26 64
M  V30 66 1 26 65
M  V30 67 1 28 66
M  V30 68 1 29 67
M  V30 69 1 30 68
M  V30 70 1 31 69
M  V30 71 1 32 70
M  V30 END BOND
M  V30 END CTAB
M  END
