
     RDKit          3D

  0  0  0  0  0  0  0  0  0  0999 V3000
M  V30 BEGIN CTAB
M  V30 COUNTS 36 38 0 0 0
M  V30 BEGIN ATOM
M  V30 1 N 0.545628 -4.14627 -0.750554 0
M  V30 2 C 0.358424 -2.76737 -0.476624 0
M  V30 3 N 1.36703 -1.94803 -0.21302 0
M  V30 4 C 1.24633 -0.626577 0.0547842 0
M  V30 5 N -0.0141601 -0.144005 0.0430551 0
M  V30 6 C -1.09667 -0.89854 -0.213536 0
M  V30 7 C -0.939602 -2.24059 -0.482411 0
M  V30 8 C -2.40084 -0.2534 -0.194919 0
M  V30 9 C -2.49748 1.09872 0.0815351 0
M  V30 10 C -3.7294 1.71524 0.100619 0
M  V30 11 C -4.91072 1.03698 -0.148805 0
M  V30 12 N -4.78217 -0.274697 -0.413857 0
M  V30 13 C -3.59059 -0.905912 -0.439671 0
M  V30 14 N -6.17539 1.68812 -0.125361 0
M  V30 15 N 2.36992 0.196393 0.329505 0
M  V30 16 C 2.16204 1.58714 0.604002 0
M  V30 17 C 3.43775 2.38974 0.581013 0
M  V30 18 O 4.41157 1.8242 -0.217369 0
M  V30 19 C 4.79563 0.600643 0.274794 0
M  V30 20 C 3.68313 -0.414865 0.318913 0
M  V30 21 H 0.0116301 -4.8375 -0.190123 0
M  V30 22 H 1.18972 -4.4846 -1.48253 0
M  V30 23 H -1.77813 -2.88325 -0.693434 0
M  V30 24 H -1.58661 1.68446 0.287087 0
M  V30 25 H -3.79427 2.76693 0.316575 0
M  V30 26 H -3.57322 -1.98141 -0.664927 0
M  V30 27 H -6.72154 1.90351 -0.985501 0
M  V30 28 H -6.5698 1.96032 0.795891 0
M  V30 29 H 1.75459 1.65998 1.64804 0
M  V30 30 H 1.43104 2.07297 -0.0523949 0
M  V30 31 H 3.26177 3.42672 0.22196 0
M  V30 32 H 3.85129 2.49317 1.62566 0
M  V30 33 H 5.2532 0.667769 1.27488 0
M  V30 34 H 5.58183 0.178446 -0.404996 0
M  V30 35 H 3.70586 -1.06216 -0.605987 0
M  V30 36 H 3.7422 -1.08227 1.20799 0
M  V30 END ATOM
M  V30 BEGIN BOND
M  V30 1 1 1 2
M  V30 2 2 2 3
M  V30 3 1 3 4
M  V30 4 2 4 5
M  V30 5 1 5 6
M  V30 6 2 6 7
M  V30 7 1 6 8
M  V30 8 2 8 9
M  V30 9 1 9 10
M  V30 10 2 10 11
M  V30 11 1 11 12
M  V30 12 2 12 13
M  V30 13 1 11 14
M  V30 14 1 4 15
M  V30 15 1 15 16
M  V30 16 1 16 17
M  V30 17 1 17 18
M  V30 18 1 18 19
M  V30 19 1 19 20
M  V30 20 1 7 2
M  V30 21 1 13 8
M  V30 22 1 20 15
M  V30 23 1 1 21
M  V30 24 1 1 22
M  V30 25 1 7 23
M  V30 26 1 9 24
M  V30 27 1 10 25
M  V30 28 1 13 26
M  V30 29 1 14 27
M  V30 30 1 14 28
M  V30 31 1 16 29
M  V30 32 1 16 30
M  V30 33 1 17 31
M  V30 34 1 17 32
M  V30 35 1 19 33
M  V30 36 1 19 34
M  V30 37 1 20 35
M  V30 38 1 20 36
M  V30 END BOND
M  V30 END CTAB
M  END
