
     RDKit          3D

  0  0  0  0  0  0  0  0  0  0999 V3000
M  V30 BEGIN CTAB
M  V30 COUNTS 34 34 0 0 0
M  V30 BEGIN ATOM
M  V30 1 N -2.7787 2.11763 -0.814439 0
M  V30 2 C -1.53101 1.53496 -0.498808 0
M  V30 3 C -1.39174 0.0635032 -0.460164 0
M  V30 4 C 0.0486182 -0.197035 -0.0991327 0
M  V30 5 C 0.989346 0.157896 -1.03416 0
M  V30 6 C 2.33197 -0.0555352 -0.767254 0
M  V30 7 C 2.74376 -0.614677 0.404795 0
M  V30 8 C 1.80479 -0.971252 1.34003 0
M  V30 9 C 0.455636 -0.756878 1.07689 0
M  V30 10 S 4.44604 -0.857085 0.700728 0
M  V30 11 O 4.68128 -2.1245 1.45713 0
M  V30 12 O 5.15098 -0.978478 -0.638283 0
M  V30 13 N 5.12318 0.517264 1.51509 0
M  V30 14 C -2.27207 -0.687117 0.451602 0
M  V30 15 C -3.7023 -0.652798 0.270975 0
M  V30 16 O -4.39383 -0.186083 -0.664967 0
M  V30 17 O -4.51124 -1.22886 1.29517 0
M  V30 18 C -1.48284 -0.529527 -1.88833 0
M  V30 19 H -2.90615 2.41985 -1.80038 0
M  V30 20 H -3.01857 2.91128 -0.205035 0
M  V30 21 H -1.15199 1.93455 0.501592 0
M  V30 22 H -0.779654 2.00949 -1.208 0
M  V30 23 H 0.753442 0.60634 -1.99824 0
M  V30 24 H 3.07187 0.235304 -1.51422 0
M  V30 25 H 2.12017 -1.40941 2.27743 0
M  V30 26 H -0.249475 -1.04592 1.83682 0
M  V30 27 H 5.28637 1.28449 0.85099 0
M  V30 28 H 4.58149 0.782144 2.36833 0
M  V30 29 H -2.10325 -0.235066 1.49043 0
M  V30 30 H -1.87099 -1.73009 0.582286 0
M  V30 31 H -4.97301 -0.528116 1.87411 0
M  V30 32 H -2.48835 -0.961515 -2.05234 0
M  V30 33 H -0.762432 -1.35009 -2.03712 0
M  V30 34 H -1.22132 0.263182 -2.61354 0
M  V30 END ATOM
M  V30 BEGIN BOND
M  V30 1 1 1 2
M  V30 2 1 2 3
M  V30 3 1 3 4
M  V30 4 2 4 5
M  V30 5 1 5 6
M  V30 6 2 6 7
M  V30 7 1 7 8
M  V30 8 2 8 9
M  V30 9 1 7 10
M  V30 10 2 10 11
M  V30 11 2 10 12
M  V30 12 1 10 13
M  V30 13 1 3 14
M  V30 14 1 14 15
M  V30 15 2 15 16
M  V30 16 1 15 17
M  V30 17 1 3 18
M  V30 18 1 9 4
M  V30 19 1 1 19
M  V30 20 1 1 20
M  V30 21 1 2 21
M  V30 22 1 2 22
M  V30 23 1 5 23
M  V30 24 1 6 24
M  V30 25 1 8 25
M  V30 26 1 9 26
M  V30 27 1 13 27
M  V30 28 1 13 28
M  V30 29 1 14 29
M  V30 30 1 14 30
M  V30 31 1 17 31
M  V30 32 1 18 32
M  V30 33 1 18 33
M  V30 34 1 18 34
M  V30 END BOND
M  V30 END CTAB
M  END
