
     RDKit          3D

  0  0  0  0  0  0  0  0  0  0999 V3000
M  V30 BEGIN CTAB
M  V30 COUNTS 22 23 0 0 0
M  V30 BEGIN ATOM
M  V30 1 C 4.44869 -0.686601 -0.0757454 0
M  V30 2 N 3.1545 0.0025643 0.0137828 0
M  V30 3 N 2.95207 1.28841 0.253325 0
M  V30 4 C 1.62997 1.53816 0.257815 0
M  V30 5 C 1.01064 0.350606 0.0101624 0
M  V30 6 N 1.96475 -0.563558 -0.133589 0
M  V30 7 C -0.44803 0.134784 -0.0789391 0
M  V30 8 N -1.28087 1.17543 0.092989 0
M  V30 9 C -2.60809 0.978001 0.0117515 0
M  V30 10 N -3.48522 2.09564 0.196972 0
M  V30 11 N -3.12714 -0.251182 -0.240523 0
M  V30 12 C -2.27384 -1.28817 -0.411082 0
M  V30 13 N -0.946967 -1.07394 -0.326638 0
M  V30 14 N -2.83477 -2.56895 -0.674597 0
M  V30 15 H 4.55845 -1.44934 0.710733 0
M  V30 16 H 5.24409 0.0735936 0.11002 0
M  V30 17 H 4.62735 -1.07567 -1.09075 0
M  V30 18 H 1.13398 2.4869 0.423199 0
M  V30 19 H -4.41383 1.88754 0.614085 0
M  V30 20 H -3.16607 3.04607 -0.0859998 0
M  V30 21 H -3.79866 -2.80037 -0.312115 0
M  V30 22 H -2.341 -3.29992 -1.21197 0
M  V30 END ATOM
M  V30 BEGIN BOND
M  V30 1 1 1 2
M  V30 2 1 2 3
M  V30 3 2 3 4
M  V30 4 1 4 5
M  V30 5 2 5 6
M  V30 6 1 5 7
M  V30 7 2 7 8
M  V30 8 1 8 9
M  V30 9 1 9 10
M  V30 10 2 9 11
M  V30 11 1 11 12
M  V30 12 2 12 13
M  V30 13 1 12 14
M  V30 14 1 6 2
M  V30 15 1 13 7
M  V30 16 1 1 15
M  V30 17 1 1 16
M  V30 18 1 1 17
M  V30 19 1 4 18
M  V30 20 1 10 19
M  V30 21 1 10 20
M  V30 22 1 14 21
M  V30 23 1 14 22
M  V30 END BOND
M  V30 END CTAB
M  END
