
     RDKit          3D

  0  0  0  0  0  0  0  0  0  0999 V3000
M  V30 BEGIN CTAB
M  V30 COUNTS 27 27 0 0 0
M  V30 BEGIN ATOM
M  V30 1 N -4.38805 0.822385 -0.447915 0
M  V30 2 C -2.9274 0.828635 -0.213015 0
M  V30 3 C -2.56253 -0.433971 0.494066 0
M  V30 4 C -1.0968 -0.495286 0.792733 0
M  V30 5 C -0.290905 -0.443997 -0.456511 0
M  V30 6 C 1.1844 -0.53091 -0.177538 0
M  V30 7 C 1.88394 -1.70584 -0.11522 0
M  V30 8 C 3.24869 -1.74882 0.145151 0
M  V30 9 N 3.89369 -0.596921 0.340543 0
M  V30 10 C 3.24737 0.594721 0.289513 0
M  V30 11 C 1.87367 0.641018 0.02762 0
M  V30 12 N 4.00777 1.76377 0.50821 0
M  V30 13 H -4.65674 -0.0548913 -0.953917 0
M  V30 14 H -4.64694 1.69067 -0.961584 0
M  V30 15 H -2.40615 0.885275 -1.19624 0
M  V30 16 H -2.6709 1.71738 0.362227 0
M  V30 17 H -3.19578 -0.608883 1.38789 0
M  V30 18 H -2.775 -1.28983 -0.21682 0
M  V30 19 H -0.862653 0.362685 1.48816 0
M  V30 20 H -0.873025 -1.4294 1.36209 0
M  V30 21 H -0.49394 0.551623 -0.951079 0
M  V30 22 H -0.620684 -1.20725 -1.18747 0
M  V30 23 H 1.37569 -2.62103 -0.269656 0
M  V30 24 H 3.80983 -2.66974 0.196467 0
M  V30 25 H 1.38194 1.60539 -0.00764379 0
M  V30 26 H 4.58001 1.84954 1.35918 0
M  V30 27 H 3.9805 2.52369 -0.192816 0
M  V30 END ATOM
M  V30 BEGIN BOND
M  V30 1 1 1 2
M  V30 2 1 2 3
M  V30 3 1 3 4
M  V30 4 1 4 5
M  V30 5 1 5 6
M  V30 6 2 6 7
M  V30 7 1 7 8
M  V30 8 2 8 9
M  V30 9 1 9 10
M  V30 10 2 10 11
M  V30 11 1 10 12
M  V30 12 1 11 6
M  V30 13 1 1 13
M  V30 14 1 1 14
M  V30 15 1 2 15
M  V30 16 1 2 16
M  V30 17 1 3 17
M  V30 18 1 3 18
M  V30 19 1 4 19
M  V30 20 1 4 20
M  V30 21 1 5 21
M  V30 22 1 5 22
M  V30 23 1 7 23
M  V30 24 1 8 24
M  V30 25 1 11 25
M  V30 26 1 12 26
M  V30 27 1 12 27
M  V30 END BOND
M  V30 END CTAB
M  END
