
     RDKit          3D

  0  0  0  0  0  0  0  0  0  0999 V3000
M  V30 BEGIN CTAB
M  V30 COUNTS 54 59 0 0 0
M  V30 BEGIN ATOM
M  V30 1 N -3.38435 2.48382 0.519347 0
M  V30 2 C -2.81405 1.20638 0.178446 0
M  V30 3 C -3.24665 0.840072 -1.20421 0
M  V30 4 C -2.80306 -0.564925 -1.52482 0
M  V30 5 C -3.28071 -1.57331 -0.534585 0
M  V30 6 C -2.78601 -1.14965 0.830004 0
M  V30 7 C -3.37379 0.186336 1.14233 0
M  V30 8 C -1.26906 -1.08354 0.871842 0
M  V30 9 C -0.739999 -0.0901406 -0.162363 0
M  V30 10 C -1.28258 -0.56403 -1.49447 0
M  V30 11 C -1.30291 1.25693 0.225836 0
M  V30 12 C 0.745813 -0.108176 -0.190016 0
M  V30 13 C 1.30903 -1.46842 -0.560679 0
M  V30 14 C 2.82577 -1.42466 -0.537752 0
M  V30 15 C 3.34494 -0.458105 -1.55143 0
M  V30 16 C 2.79597 0.906974 -1.21156 0
M  V30 17 C 3.29589 1.31293 0.133203 0
M  V30 18 C 2.82366 0.309705 1.15908 0
M  V30 19 N 3.23701 0.729726 2.48231 0
M  V30 20 C 3.33578 -1.08027 0.845305 0
M  V30 21 C 1.30786 0.212839 1.18046 0
M  V30 22 C 1.27408 0.897656 -1.18942 0
M  V30 23 H -2.92211 3.28516 0.0774455 0
M  V30 24 H -4.40997 2.42161 0.350571 0
M  V30 25 H -4.33063 0.892533 -1.36214 0
M  V30 26 H -2.72837 1.51557 -1.91893 0
M  V30 27 H -3.09267 -0.808763 -2.56534 0
M  V30 28 H -2.79128 -2.54061 -0.769049 0
M  V30 29 H -4.36829 -1.68482 -0.472694 0
M  V30 30 H -3.08532 -1.93982 1.5405 0
M  V30 31 H -3.21545 0.489533 2.1961 0
M  V30 32 H -4.47225 0.17142 0.985624 0
M  V30 33 H -0.914626 -2.10122 0.715954 0
M  V30 34 H -1.02406 -0.684168 1.89709 0
M  V30 35 H -0.959868 0.0239775 -2.35006 0
M  V30 36 H -0.993184 -1.6537 -1.56929 0
M  V30 37 H -0.994481 2.07662 -0.43451 0
M  V30 38 H -1.03106 1.43699 1.2898 0
M  V30 39 H 1.04208 -1.75355 -1.61269 0
M  V30 40 H 1.02803 -2.26082 0.158795 0
M  V30 41 H 3.16843 -2.44416 -0.81307 0
M  V30 42 H 4.44876 -0.396165 -1.4561 0
M  V30 43 H 3.08894 -0.787317 -2.57091 0
M  V30 44 H 3.09445 1.60106 -2.01674 0
M  V30 45 H 4.40317 1.28535 0.144475 0
M  V30 46 H 2.90009 2.29303 0.390646 0
M  V30 47 H 4.22983 0.462293 2.6729 0
M  V30 48 H 2.63428 0.181938 3.16627 0
M  V30 49 H 2.87751 -1.7816 1.57366 0
M  V30 50 H 4.42832 -1.12196 0.821745 0
M  V30 51 H 1.07957 -0.684868 1.81793 0
M  V30 52 H 0.95032 1.15044 1.60444 0
M  V30 53 H 0.96532 0.647929 -2.21412 0
M  V30 54 H 0.981909 1.92996 -0.889275 0
M  V30 END ATOM
M  V30 BEGIN BOND
M  V30 1 1 1 2
M  V30 2 1 2 3
M  V30 3 1 3 4
M  V30 4 1 4 5
M  V30 5 1 5 6
M  V30 6 1 6 7
M  V30 7 1 6 8
M  V30 8 1 8 9
M  V30 9 1 9 10
M  V30 10 1 9 11
M  V30 11 1 9 12
M  V30 12 1 12 13
M  V30 13 1 13 14
M  V30 14 1 14 15
M  V30 15 1 15 16
M  V30 16 1 16 17
M  V30 17 1 17 18
M  V30 18 1 18 19
M  V30 19 1 18 20
M  V30 20 1 18 21
M  V30 21 1 16 22
M  V30 22 1 7 2
M  V30 23 1 21 12
M  V30 24 1 11 2
M  V30 25 1 22 12
M  V30 26 1 10 4
M  V30 27 1 20 14
M  V30 28 1 1 23
M  V30 29 1 1 24
M  V30 30 1 3 25
M  V30 31 1 3 26
M  V30 32 1 4 27
M  V30 33 1 5 28
M  V30 34 1 5 29
M  V30 35 1 6 30
M  V30 36 1 7 31
M  V30 37 1 7 32
M  V30 38 1 8 33
M  V30 39 1 8 34
M  V30 40 1 10 35
M  V30 41 1 10 36
M  V30 42 1 11 37
M  V30 43 1 11 38
M  V30 44 1 13 39
M  V30 45 1 13 40
M  V30 46 1 14 41
M  V30 47 1 15 42
M  V30 48 1 15 43
M  V30 49 1 16 44
M  V30 50 1 17 45
M  V30 51 1 17 46
M  V30 52 1 19 47
M  V30 53 1 19 48
M  V30 54 1 20 49
M  V30 55 1 20 50
M  V30 56 1 21 51
M  V30 57 1 21 52
M  V30 58 1 22 53
M  V30 59 1 22 54
M  V30 END BOND
M  V30 END CTAB
M  END
