
     RDKit          3D

  0  0  0  0  0  0  0  0  0  0999 V3000
M  V30 BEGIN CTAB
M  V30 COUNTS 30 31 0 0 0
M  V30 BEGIN ATOM
M  V30 1 N 5.23089 0.601837 0.597111 0
M  V30 2 C 3.94495 0.219657 0.132472 0
M  V30 3 C 3.30508 -0.877576 0.64419 0
M  V30 4 C 2.05257 -1.26018 0.200135 0
M  V30 5 C 1.40225 -0.542813 -0.780667 0
M  V30 6 C 2.04706 0.563564 -1.29689 0
M  V30 7 C 3.29424 0.942543 -0.853089 0
M  V30 8 S -0.162274 -1.07078 -1.29423 0
M  V30 9 O -0.220048 -2.57701 -1.12925 0
M  V30 10 O -0.293235 -0.715259 -2.76746 0
M  V30 11 C -1.45336 -0.376919 -0.389479 0
M  V30 12 C -2.75306 -0.704078 -0.689956 0
M  V30 13 O -3.10029 -1.58998 -1.71512 0
M  V30 14 C -3.81014 -0.154435 0.0307279 0
M  V30 15 C -3.59557 0.732554 1.06575 0
M  V30 16 N -4.69541 1.27874 1.78523 0
M  V30 17 C -2.28308 1.05371 1.35821 0
M  V30 18 C -1.22873 0.506827 0.641 0
M  V30 19 H 5.40335 1.55502 0.980693 0
M  V30 20 H 6.03524 -0.0559984 0.568287 0
M  V30 21 H 3.78265 -1.46907 1.41745 0
M  V30 22 H 1.55905 -2.14716 0.628132 0
M  V30 23 H 1.52359 1.11518 -2.06524 0
M  V30 24 H 3.74679 1.8119 -1.29144 0
M  V30 25 H -2.3351 -1.99037 -2.24114 0
M  V30 26 H -4.82162 -0.424573 -0.221421 0
M  V30 27 H -5.49818 0.695166 2.11829 0
M  V30 28 H -4.73079 2.31151 2.00689 0
M  V30 29 H -2.10933 1.74914 2.16933 0
M  V30 30 H -0.237476 0.818842 0.944058 0
M  V30 END ATOM
M  V30 BEGIN BOND
M  V30 1 1 1 2
M  V30 2 2 2 3
M  V30 3 1 3 4
M  V30 4 2 4 5
M  V30 5 1 5 6
M  V30 6 2 6 7
M  V30 7 1 5 8
M  V30 8 2 8 9
M  V30 9 2 8 10
M  V30 10 1 8 11
M  V30 11 2 11 12
M  V30 12 1 12 13
M  V30 13 1 12 14
M  V30 14 2 14 15
M  V30 15 1 15 16
M  V30 16 1 15 17
M  V30 17 2 17 18
M  V30 18 1 7 2
M  V30 19 1 18 11
M  V30 20 1 1 19
M  V30 21 1 1 20
M  V30 22 1 3 21
M  V30 23 1 4 22
M  V30 24 1 6 23
M  V30 25 1 7 24
M  V30 26 1 13 25
M  V30 27 1 14 26
M  V30 28 1 16 27
M  V30 29 1 16 28
M  V30 30 1 17 29
M  V30 31 1 18 30
M  V30 END BOND
M  V30 END CTAB
M  END
