
     RDKit          3D

  0  0  0  0  0  0  0  0  0  0999 V3000
M  V30 BEGIN CTAB
M  V30 COUNTS 52 53 0 0 0
M  V30 BEGIN ATOM
M  V30 1 N -1.825 3.89969 -3.0088 0
M  V30 2 C -2.25228 4.10668 -1.64166 0
M  V30 3 C -1.61874 3.02566 -0.77626 0
M  V30 4 C -2.09858 1.68547 -1.30114 0
M  V30 5 N -1.5973 0.57935 -0.601615 0
M  V30 6 S -2.5444 0.0826752 0.693361 0
M  V30 7 O -1.84381 -1.01544 1.47045 0
M  V30 8 O -2.68718 1.21381 1.72094 0
M  V30 9 C -4.14457 -0.40778 0.179392 0
M  V30 10 C -4.24177 -1.55284 -0.740847 0
M  V30 11 C -3.74451 -2.86951 -0.213781 0
M  V30 12 N -4.56416 -3.1808 0.95886 0
M  V30 13 C -0.743543 -0.350803 -1.1381 0
M  V30 14 C 0.621925 -0.3964 -0.539222 0
M  V30 15 C 1.50384 -1.3142 -1.05661 0
M  V30 16 C 2.79605 -1.44861 -0.582685 0
M  V30 17 C 3.20797 -0.625946 0.449358 0
M  V30 18 C 2.32784 0.296185 0.971958 0
M  V30 19 C 1.02044 0.426534 0.486754 0
M  V30 20 C 4.57154 -0.776548 0.940427 0
M  V30 21 C 4.86983 -0.5205 2.27455 0
M  V30 22 C 6.14308 -0.651319 2.77359 0
M  V30 23 C 7.16452 -1.04332 1.9552 0
M  V30 24 C 6.90602 -1.30754 0.619283 0
M  V30 25 C 5.62656 -1.17103 0.139316 0
M  V30 26 H -1.69102 4.82815 -3.46589 0
M  V30 27 H -0.919874 3.39853 -2.98651 0
M  V30 28 H -1.92719 5.10259 -1.32589 0
M  V30 29 H -3.34123 4.07423 -1.61149 0
M  V30 30 H -1.98054 3.20725 0.255847 0
M  V30 31 H -0.534011 3.11232 -0.77991 0
M  V30 32 H -1.89194 1.63251 -2.39773 0
M  V30 33 H -3.22711 1.75626 -1.2472 0
M  V30 34 H -4.68493 0.460139 -0.2842 0
M  V30 35 H -4.73002 -0.647306 1.10753 0
M  V30 36 H -3.7562 -1.40311 -1.72598 0
M  V30 37 H -5.33246 -1.70096 -0.993968 0
M  V30 38 H -2.68382 -2.83491 0.0271351 0
M  V30 39 H -3.93741 -3.62535 -1.02215 0
M  V30 40 H -4.28631 -2.54167 1.71026 0
M  V30 41 H -5.57094 -3.09294 0.683525 0
M  V30 42 H -0.600293 -0.138131 -2.23443 0
M  V30 43 H -1.13459 -1.39784 -1.00966 0
M  V30 44 H 1.19835 -1.96464 -1.86321 0
M  V30 45 H 3.46962 -2.17933 -1.00814 0
M  V30 46 H 2.64253 0.932956 1.76885 0
M  V30 47 H 0.32145 1.13372 0.87611 0
M  V30 48 H 4.08453 -0.20818 2.95042 0
M  V30 49 H 6.31346 -0.440311 3.81043 0
M  V30 50 H 8.17375 -1.1489 2.3427 0
M  V30 51 H 7.7312 -1.61369 0.0031147 0
M  V30 52 H 5.44125 -1.38483 -0.921978 0
M  V30 END ATOM
M  V30 BEGIN BOND
M  V30 1 1 1 2
M  V30 2 1 2 3
M  V30 3 1 3 4
M  V30 4 1 4 5
M  V30 5 1 5 6
M  V30 6 2 6 7
M  V30 7 2 6 8
M  V30 8 1 6 9
M  V30 9 1 9 10
M  V30 10 1 10 11
M  V30 11 1 11 12
M  V30 12 1 5 13
M  V30 13 1 13 14
M  V30 14 2 14 15
M  V30 15 1 15 16
M  V30 16 2 16 17
M  V30 17 1 17 18
M  V30 18 2 18 19
M  V30 19 1 17 20
M  V30 20 2 20 21
M  V30 21 1 21 22
M  V30 22 2 22 23
M  V30 23 1 23 24
M  V30 24 2 24 25
M  V30 25 1 19 14
M  V30 26 1 25 20
M  V30 27 1 1 26
M  V30 28 1 1 27
M  V30 29 1 2 28
M  V30 30 1 2 29
M  V30 31 1 3 30
M  V30 32 1 3 31
M  V30 33 1 4 32
M  V30 34 1 4 33
M  V30 35 1 9 34
M  V30 36 1 9 35
M  V30 37 1 10 36
M  V30 38 1 10 37
M  V30 39 1 11 38
M  V30 40 1 11 39
M  V30 41 1 12 40
M  V30 42 1 12 41
M  V30 43 1 13 42
M  V30 44 1 13 43
M  V30 45 1 15 44
M  V30 46 1 16 45
M  V30 47 1 18 46
M  V30 48 1 19 47
M  V30 49 1 21 48
M  V30 50 1 22 49
M  V30 51 1 23 50
M  V30 52 1 24 51
M  V30 53 1 25 52
M  V30 END BOND
M  V30 END CTAB
M  END
