
     RDKit          3D

  0  0  0  0  0  0  0  0  0  0999 V3000
M  V30 BEGIN CTAB
M  V30 COUNTS 33 35 0 0 0
M  V30 BEGIN ATOM
M  V30 1 C 0.0839296 -2.41462 0.231613 0
M  V30 2 N 0.0771307 -1.02414 0.0557651 0
M  V30 3 C 1.25885 -0.269216 -0.0958573 0
M  V30 4 C 2.48614 -0.866983 -0.0706202 0
M  V30 5 C 3.64929 -0.126109 -0.217014 0
M  V30 6 N 4.88332 -0.817988 -0.179894 0
M  V30 7 C 3.54081 1.22434 -0.388205 0
M  V30 8 C 2.3166 1.85125 -0.417298 0
M  V30 9 C 1.15872 1.10437 -0.27039 0
M  V30 10 C -0.101856 1.84198 -0.312553 0
M  V30 11 C -0.111297 2.82007 0.801191 0
M  V30 12 N -0.100509 3.57763 1.67646 0
M  V30 13 C -1.30399 1.00623 -0.146107 0
M  V30 14 C -1.20063 -0.354337 0.0265743 0
M  V30 15 C -2.33001 -1.12103 0.180699 0
M  V30 16 C -3.57953 -0.519042 0.161762 0
M  V30 17 N -4.71802 -1.34285 0.323714 0
M  V30 18 C -3.64818 0.842944 -0.012804 0
M  V30 19 C -2.53611 1.63823 -0.169752 0
M  V30 20 H 0.97661 -3.00038 0.146049 0
M  V30 21 H -0.441878 -2.8036 1.12732 0
M  V30 22 H -0.567267 -2.82267 -0.616333 0
M  V30 23 H 2.57326 -1.93182 0.0659088 0
M  V30 24 H 5.06899 -1.62003 -0.817566 0
M  V30 25 H 5.66336 -0.559678 0.484711 0
M  V30 26 H 4.47316 1.79234 -0.502176 0
M  V30 27 H 2.31529 2.92539 -0.557084 0
M  V30 28 H -0.128193 2.4381 -1.25047 0
M  V30 29 H -2.24119 -2.17979 0.316452 0
M  V30 30 H -4.84607 -2.16456 -0.289521 0
M  V30 31 H -5.41113 -1.12533 1.04508 0
M  V30 32 H -4.63919 1.28008 -0.0225567 0
M  V30 33 H -2.62042 2.72122 -0.307105 0
M  V30 END ATOM
M  V30 BEGIN BOND
M  V30 1 1 1 2
M  V30 2 1 2 3
M  V30 3 2 3 4
M  V30 4 1 4 5
M  V30 5 1 5 6
M  V30 6 2 5 7
M  V30 7 1 7 8
M  V30 8 2 8 9
M  V30 9 1 9 10
M  V30 10 1 10 11
M  V30 11 3 11 12
M  V30 12 1 10 13
M  V30 13 2 13 14
M  V30 14 1 14 15
M  V30 15 2 15 16
M  V30 16 1 16 17
M  V30 17 1 16 18
M  V30 18 2 18 19
M  V30 19 1 14 2
M  V30 20 1 9 3
M  V30 21 1 19 13
M  V30 22 1 1 20
M  V30 23 1 1 21
M  V30 24 1 1 22
M  V30 25 1 4 23
M  V30 26 1 6 24
M  V30 27 1 6 25
M  V30 28 1 7 26
M  V30 29 1 8 27
M  V30 30 1 10 28
M  V30 31 1 15 29
M  V30 32 1 17 30
M  V30 33 1 17 31
M  V30 34 1 18 32
M  V30 35 1 19 33
M  V30 END BOND
M  V30 END CTAB
M  END
