
     RDKit          3D

  0  0  0  0  0  0  0  0  0  0999 V3000
M  V30 BEGIN CTAB
M  V30 COUNTS 38 40 0 0 0
M  V30 BEGIN ATOM
M  V30 1 N 1.04032 2.88064 1.96487 0
M  V30 2 C 1.80983 2.0954 1.60232 0
M  V30 3 C 2.7852 1.12436 1.12846 0
M  V30 4 C 4.01568 1.54322 0.966843 0
M  V30 5 N 4.38712 2.86043 1.23548 0
M  V30 6 S 5.22543 0.377246 0.368125 0
M  V30 7 C 4.25292 -0.792259 -0.595419 0
M  V30 8 C 3.00409 -0.952314 -0.240204 0
M  V30 9 C 2.32427 -0.262663 0.877212 0
M  V30 10 C 0.867066 -0.228615 0.596723 0
M  V30 11 C 0.355929 0.402395 -0.516421 0
M  V30 12 C -1.00914 0.39619 -0.71966 0
M  V30 13 C -1.8797 -0.22323 0.158674 0
M  V30 14 C -1.35478 -0.861016 1.28523 0
M  V30 15 C 0.0154641 -0.850219 1.48169 0
M  V30 16 C -3.31162 -0.226579 -0.0580609 0
M  V30 17 C -3.99621 0.810375 -0.680809 0
M  V30 18 C -5.35435 0.778189 -0.874099 0
M  V30 19 C -6.08645 -0.307356 -0.445237 0
M  V30 20 C -5.43918 -1.35989 0.17976 0
M  V30 21 C -4.08341 -1.30329 0.360414 0
M  V30 22 C 2.26421 -1.91114 -1.05744 0
M  V30 23 N 1.66539 -2.65822 -1.71633 0
M  V30 24 N 4.85122 -1.4729 -1.6656 0
M  V30 25 H 3.95735 3.47555 1.96115 0
M  V30 26 H 5.16712 3.33327 0.688524 0
M  V30 27 H 2.50233 -0.810257 1.8347 0
M  V30 28 H 1.04212 0.893035 -1.21239 0
M  V30 29 H -1.39828 0.898434 -1.60306 0
M  V30 30 H -2.03499 -1.34675 1.97483 0
M  V30 31 H 0.38524 -1.35804 2.37163 0
M  V30 32 H -3.43053 1.66746 -1.02095 0
M  V30 33 H -5.87827 1.58738 -1.35809 0
M  V30 34 H -7.15664 -0.308623 -0.609598 0
M  V30 35 H -6.02905 -2.22188 0.51881 0
M  V30 36 H -3.62641 -2.15687 0.856555 0
M  V30 37 H 4.28243 -1.81314 -2.49823 0
M  V30 38 H 5.86826 -1.69832 -1.73923 0
M  V30 END ATOM
M  V30 BEGIN BOND
M  V30 1 3 1 2
M  V30 2 1 2 3
M  V30 3 2 3 4
M  V30 4 1 4 5
M  V30 5 1 4 6
M  V30 6 1 6 7
M  V30 7 2 7 8
M  V30 8 1 8 9
M  V30 9 1 9 10
M  V30 10 2 10 11
M  V30 11 1 11 12
M  V30 12 2 12 13
M  V30 13 1 13 14
M  V30 14 2 14 15
M  V30 15 1 13 16
M  V30 16 2 16 17
M  V30 17 1 17 18
M  V30 18 2 18 19
M  V30 19 1 19 20
M  V30 20 2 20 21
M  V30 21 1 8 22
M  V30 22 3 22 23
M  V30 23 1 7 24
M  V30 24 1 9 3
M  V30 25 1 15 10
M  V30 26 1 21 16
M  V30 27 1 5 25
M  V30 28 1 5 26
M  V30 29 1 9 27
M  V30 30 1 11 28
M  V30 31 1 12 29
M  V30 32 1 14 30
M  V30 33 1 15 31
M  V30 34 1 17 32
M  V30 35 1 18 33
M  V30 36 1 19 34
M  V30 37 1 20 35
M  V30 38 1 21 36
M  V30 39 1 24 37
M  V30 40 1 24 38
M  V30 END BOND
M  V30 END CTAB
M  END
