
     RDKit          3D

  0  0  0  0  0  0  0  0  0  0999 V3000
M  V30 BEGIN CTAB
M  V30 COUNTS 36 37 0 0 0
M  V30 BEGIN ATOM
M  V30 1 C -2.88297 -2.30495 -0.327987 0
M  V30 2 O -3.7541 -1.24375 -0.105646 0
M  V30 3 C -3.46232 0.0854426 -0.278193 0
M  V30 4 C -4.3975 1.06769 -0.0304708 0
M  V30 5 N -5.70993 0.747762 0.416064 0
M  V30 6 C -4.02392 2.40034 -0.229871 0
M  V30 7 C -2.75739 2.73562 -0.662346 0
M  V30 8 C -1.82395 1.75492 -0.909593 0
M  V30 9 S -0.199303 2.23448 -1.46722 0
M  V30 10 S 1.02428 2.52262 0.249188 0
M  V30 11 C 1.79723 0.975095 0.627339 0
M  V30 12 C 3.02346 0.668161 0.0629897 0
M  V30 13 C 3.66208 -0.539636 0.337015 0
M  V30 14 O 4.89167 -0.86395 -0.219922 0
M  V30 15 C 5.51804 0.0662099 -1.09723 0
M  V30 16 C 3.085 -1.46727 1.18362 0
M  V30 17 N 3.75489 -2.69323 1.44886 0
M  V30 18 C 1.86115 -1.17466 1.75431 0
M  V30 19 C 1.24398 0.0267057 1.47099 0
M  V30 20 C -2.20516 0.44322 -0.708921 0
M  V30 21 H -2.07394 -2.38297 0.430766 0
M  V30 22 H -3.41186 -3.25923 -0.502468 0
M  V30 23 H -2.345 -2.09124 -1.29823 0
M  V30 24 H -5.91854 0.787203 1.43071 0
M  V30 25 H -6.41606 0.483653 -0.304961 0
M  V30 26 H -4.77445 3.14845 -0.028712 0
M  V30 27 H -2.49463 3.79363 -0.80963 0
M  V30 28 H 3.50131 1.37287 -0.603671 0
M  V30 29 H 5.51655 1.05501 -0.564507 0
M  V30 30 H 6.56759 -0.181221 -1.28413 0
M  V30 31 H 4.9136 0.151872 -2.00368 0
M  V30 32 H 4.25679 -3.23124 0.685543 0
M  V30 33 H 3.79225 -3.13199 2.40014 0
M  V30 34 H 1.3943 -1.9039 2.42771 0
M  V30 35 H 0.285897 0.253163 1.91917 0
M  V30 36 H -1.43906 -0.304896 -0.915074 0
M  V30 END ATOM
M  V30 BEGIN BOND
M  V30 1 1 1 2
M  V30 2 1 2 3
M  V30 3 2 3 4
M  V30 4 1 4 5
M  V30 5 1 4 6
M  V30 6 2 6 7
M  V30 7 1 7 8
M  V30 8 1 8 9
M  V30 9 1 9 10
M  V30 10 1 10 11
M  V30 11 2 11 12
M  V30 12 1 12 13
M  V30 13 1 13 14
M  V30 14 1 14 15
M  V30 15 2 13 16
M  V30 16 1 16 17
M  V30 17 1 16 18
M  V30 18 2 18 19
M  V30 19 2 8 20
M  V30 20 1 20 3
M  V30 21 1 19 11
M  V30 22 1 1 21
M  V30 23 1 1 22
M  V30 24 1 1 23
M  V30 25 1 5 24
M  V30 26 1 5 25
M  V30 27 1 6 26
M  V30 28 1 7 27
M  V30 29 1 12 28
M  V30 30 1 15 29
M  V30 31 1 15 30
M  V30 32 1 15 31
M  V30 33 1 17 32
M  V30 34 1 17 33
M  V30 35 1 18 34
M  V30 36 1 19 35
M  V30 37 1 20 36
M  V30 END BOND
M  V30 END CTAB
M  END
