
     RDKit          3D

  0  0  0  0  0  0  0  0  0  0999 V3000
M  V30 BEGIN CTAB
M  V30 COUNTS 27 27 0 0 0
M  V30 BEGIN ATOM
M  V30 1 N -0.516861 3.09753 -0.0886578 0
M  V30 2 C -1.44387 1.98493 -0.0831901 0
M  V30 3 C -0.664075 0.734375 -0.0307937 0
M  V30 4 C 0.738236 0.767494 0.00387216 0
M  V30 5 C 1.44131 -0.416423 0.0525375 0
M  V30 6 C 2.91506 -0.444864 0.0906308 0
M  V30 7 N 3.48999 0.887074 0.0704628 0
M  V30 8 C 0.760687 -1.60788 0.0663431 0
M  V30 9 C -0.635161 -1.64672 0.0319932 0
M  V30 10 C -1.34547 -0.465148 -0.016797 0
M  V30 11 O -2.72006 -0.44044 -0.0522695 0
M  V30 12 C -3.55144 -1.56576 -0.0440426 0
M  V30 13 O 1.46577 -2.78633 0.114913 0
M  V30 14 H 0.0860618 3.11127 -0.938403 0
M  V30 15 H -0.00591369 3.10498 0.802548 0
M  V30 16 H -2.15526 2.02406 -0.927018 0
M  V30 17 H -2.06711 2.11272 0.84671 0
M  V30 18 H 1.26232 1.7178 -0.00760749 0
M  V30 19 H 3.31892 -0.991065 0.963344 0
M  V30 20 H 3.34229 -0.969368 -0.810956 0
M  V30 21 H 3.17701 1.37186 -0.800335 0
M  V30 22 H 3.10547 1.42351 0.864992 0
M  V30 23 H -1.15048 -2.58107 0.0432696 0
M  V30 24 H -4.55141 -1.3204 -0.463037 0
M  V30 25 H -3.65219 -2.02933 0.942545 0
M  V30 26 H -3.11665 -2.31371 -0.770735 0
M  V30 27 H 2.4728 -2.75908 0.139681 0
M  V30 END ATOM
M  V30 BEGIN BOND
M  V30 1 1 1 2
M  V30 2 1 2 3
M  V30 3 2 3 4
M  V30 4 1 4 5
M  V30 5 1 5 6
M  V30 6 1 6 7
M  V30 7 2 5 8
M  V30 8 1 8 9
M  V30 9 2 9 10
M  V30 10 1 10 11
M  V30 11 1 11 12
M  V30 12 1 8 13
M  V30 13 1 10 3
M  V30 14 1 1 14
M  V30 15 1 1 15
M  V30 16 1 2 16
M  V30 17 1 2 17
M  V30 18 1 4 18
M  V30 19 1 6 19
M  V30 20 1 6 20
M  V30 21 1 7 21
M  V30 22 1 7 22
M  V30 23 1 9 23
M  V30 24 1 12 24
M  V30 25 1 12 25
M  V30 26 1 12 26
M  V30 27 1 13 27
M  V30 END BOND
M  V30 END CTAB
M  END
