
     RDKit          3D

  0  0  0  0  0  0  0  0  0  0999 V3000
M  V30 BEGIN CTAB
M  V30 COUNTS 25 26 0 0 0
M  V30 BEGIN ATOM
M  V30 1 N 1.0156 1.89906 -0.664958 0
M  V30 2 C 1.48172 0.706301 -0.0593441 0
M  V30 3 C 2.65136 0.726569 0.703671 0
M  V30 4 C 3.14572 -0.403223 1.30578 0
M  V30 5 N 2.45919 -1.55726 1.13839 0
M  V30 6 C 1.33996 -1.61638 0.418129 0
M  V30 7 C 0.806428 -0.491105 -0.208514 0
M  V30 8 C -0.452957 -0.578934 -1.00626 0
M  V30 9 C -1.58592 0.0305168 -0.258431 0
M  V30 10 C -2.21822 1.23154 -0.447347 0
M  V30 11 N -3.17819 1.31901 0.487255 0
M  V30 12 N -3.15054 0.229176 1.22558 0
M  V30 13 C -2.18676 -0.601147 0.809929 0
M  V30 14 N -0.782835 -1.96537 -1.2699 0
M  V30 15 H 1.11251 2.03507 -1.68328 0
M  V30 16 H 0.582856 2.62478 -0.0872546 0
M  V30 17 H 3.15343 1.67536 0.79998 0
M  V30 18 H 4.07037 -0.367527 1.90422 0
M  V30 19 H 0.795164 -2.54252 0.288373 0
M  V30 20 H -0.247439 -0.0243446 -1.95663 0
M  V30 21 H -1.9619 1.95725 -1.2261 0
M  V30 22 H -3.82831 2.15311 0.575641 0
M  V30 23 H -1.97384 -1.56385 1.26652 0
M  V30 24 H -1.11133 -2.41366 -0.413455 0
M  V30 25 H 0.0639369 -2.46242 -1.64201 0
M  V30 END ATOM
M  V30 BEGIN BOND
M  V30 1 1 1 2
M  V30 2 2 2 3
M  V30 3 1 3 4
M  V30 4 2 4 5
M  V30 5 1 5 6
M  V30 6 2 6 7
M  V30 7 1 7 8
M  V30 8 1 8 9
M  V30 9 2 9 10
M  V30 10 1 10 11
M  V30 11 1 11 12
M  V30 12 2 12 13
M  V30 13 1 8 14
M  V30 14 1 7 2
M  V30 15 1 13 9
M  V30 16 1 1 15
M  V30 17 1 1 16
M  V30 18 1 3 17
M  V30 19 1 4 18
M  V30 20 1 6 19
M  V30 21 1 8 20
M  V30 22 1 10 21
M  V30 23 1 11 22
M  V30 24 1 13 23
M  V30 25 1 14 24
M  V30 26 1 14 25
M  V30 END BOND
M  V30 END CTAB
M  END
