
     RDKit          3D

  0  0  0  0  0  0  0  0  0  0999 V3000
M  V30 BEGIN CTAB
M  V30 COUNTS 50 51 0 0 0
M  V30 BEGIN ATOM
M  V30 1 N 2.76932 -3.44693 0.745038 0
M  V30 2 C 1.5389 -3.36572 0.0129188 0
M  V30 3 C 1.39662 -2.07922 -0.761719 0
M  V30 4 N 1.42057 -0.908379 0.00458867 0
M  V30 5 C 0.372936 -0.60938 0.884277 0
M  V30 6 C -0.940408 -0.258316 0.207936 0
M  V30 7 O -0.948762 -0.259404 -1.04314 0
M  V30 8 N -2.02763 0.0355774 1.03767 0
M  V30 9 C -3.32943 0.38578 0.659031 0
M  V30 10 C -4.34254 0.519583 1.62204 0
M  V30 11 C -5.6334 0.865113 1.32064 0
M  V30 12 C -6.01646 1.10607 0.0239559 0
M  V30 13 C -5.04647 0.982744 -0.938688 0
M  V30 14 C -3.71974 0.627981 -0.631515 0
M  V30 15 S -7.66711 1.54503 -0.350046 0
M  V30 16 O -8.27078 2.30369 0.796199 0
M  V30 17 O -7.69282 2.35209 -1.61671 0
M  V30 18 N -8.55288 0.079726 -0.66102 0
M  V30 19 C 2.66707 -0.275817 0.246683 0
M  V30 20 C 3.23528 0.317056 -1.02325 0
M  V30 21 C 4.53154 0.952084 -0.673248 0
M  V30 22 C 4.64763 2.26467 -0.274108 0
M  V30 23 C 5.88615 2.80322 0.0391497 0
M  V30 24 C 7.00464 2.00894 -0.0529047 0
M  V30 25 C 6.91632 0.696271 -0.448502 0
M  V30 26 C 5.66872 0.179618 -0.756671 0
M  V30 27 H 2.75426 -4.33983 1.28449 0
M  V30 28 H 3.61676 -3.28643 0.191946 0
M  V30 29 H 1.53242 -4.19207 -0.727463 0
M  V30 30 H 0.698823 -3.55335 0.706273 0
M  V30 31 H 0.488344 -2.16779 -1.35507 0
M  V30 32 H 2.25664 -2.06991 -1.48114 0
M  V30 33 H 0.641193 0.327795 1.4447 0
M  V30 34 H 0.119814 -1.35715 1.64126 0
M  V30 35 H -1.83717 -0.012678 2.09075 0
M  V30 36 H -4.05466 0.332398 2.64628 0
M  V30 37 H -6.40821 0.965069 2.07413 0
M  V30 38 H -5.34628 1.17305 -1.96822 0
M  V30 39 H -3.03367 0.561804 -1.45426 0
M  V30 40 H -9.46239 0.382846 -1.09422 0
M  V30 41 H -8.78454 -0.330386 0.268152 0
M  V30 42 H 3.43049 -0.925368 0.724672 0
M  V30 43 H 2.4697 0.60214 0.926495 0
M  V30 44 H 2.53705 1.10024 -1.43862 0
M  V30 45 H 3.4312 -0.453665 -1.76964 0
M  V30 46 H 3.72869 2.85323 -0.217416 0
M  V30 47 H 5.91143 3.83181 0.343616 0
M  V30 48 H 7.96504 2.46682 0.201579 0
M  V30 49 H 7.82972 0.136248 -0.498028 0
M  V30 50 H 5.64809 -0.866896 -1.0658 0
M  V30 END ATOM
M  V30 BEGIN BOND
M  V30 1 1 1 2
M  V30 2 1 2 3
M  V30 3 1 3 4
M  V30 4 1 4 5
M  V30 5 1 5 6
M  V30 6 2 6 7
M  V30 7 1 6 8
M  V30 8 1 8 9
M  V30 9 2 9 10
M  V30 10 1 10 11
M  V30 11 2 11 12
M  V30 12 1 12 13
M  V30 13 2 13 14
M  V30 14 1 12 15
M  V30 15 2 15 16
M  V30 16 2 15 17
M  V30 17 1 15 18
M  V30 18 1 4 19
M  V30 19 1 19 20
M  V30 20 1 20 21
M  V30 21 2 21 22
M  V30 22 1 22 23
M  V30 23 2 23 24
M  V30 24 1 24 25
M  V30 25 2 25 26
M  V30 26 1 14 9
M  V30 27 1 26 21
M  V30 28 1 1 27
M  V30 29 1 1 28
M  V30 30 1 2 29
M  V30 31 1 2 30
M  V30 32 1 3 31
M  V30 33 1 3 32
M  V30 34 1 5 33
M  V30 35 1 5 34
M  V30 36 1 8 35
M  V30 37 1 10 36
M  V30 38 1 11 37
M  V30 39 1 13 38
M  V30 40 1 14 39
M  V30 41 1 18 40
M  V30 42 1 18 41
M  V30 43 1 19 42
M  V30 44 1 19 43
M  V30 45 1 20 44
M  V30 46 1 20 45
M  V30 47 1 22 46
M  V30 48 1 23 47
M  V30 49 1 24 48
M  V30 50 1 25 49
M  V30 51 1 26 50
M  V30 END BOND
M  V30 END CTAB
M  END
