
     RDKit          3D

  0  0  0  0  0  0  0  0  0  0999 V3000
M  V30 BEGIN CTAB
M  V30 COUNTS 20 20 0 0 0
M  V30 BEGIN ATOM
M  V30 1 N -0.819414 2.06054 0.545842 0
M  V30 2 C -0.0570101 0.876334 0.406535 0
M  V30 3 C 1.31379 0.931066 0.139021 0
M  V30 4 C 2.05251 -0.22472 0.0044869 0
M  V30 5 N 3.43811 -0.188155 -0.265763 0
M  V30 6 C 1.36617 -1.43251 0.148015 0
M  V30 7 C 0.0171257 -1.50266 0.411408 0
M  V30 8 C -0.71694 -0.326106 0.544862 0
M  V30 9 O -2.07054 -0.326139 0.80853 0
M  V30 10 C -3.09093 -0.335981 -0.137271 0
M  V30 11 F -3.08588 0.73448 -0.988647 0
M  V30 12 F -3.05865 -1.48578 -0.937829 0
M  V30 13 F -4.30433 -0.317052 0.564746 0
M  V30 14 F 2.07015 -2.57749 0.020168 0
M  V30 15 H -0.9725 2.65516 -0.281145 0
M  V30 16 H -1.21705 2.32847 1.45633 0
M  V30 17 H 1.77635 1.91878 0.0408746 0
M  V30 18 H 3.77103 -0.450037 -1.20076 0
M  V30 19 H 4.10187 0.0959235 0.461596 0
M  V30 20 H -0.513859 -2.43411 0.522414 0
M  V30 END ATOM
M  V30 BEGIN BOND
M  V30 1 1 1 2
M  V30 2 2 2 3
M  V30 3 1 3 4
M  V30 4 1 4 5
M  V30 5 2 4 6
M  V30 6 1 6 7
M  V30 7 2 7 8
M  V30 8 1 8 9
M  V30 9 1 9 10
M  V30 10 1 10 11
M  V30 11 1 10 12
M  V30 12 1 10 13
M  V30 13 1 6 14
M  V30 14 1 8 2
M  V30 15 1 1 15
M  V30 16 1 1 16
M  V30 17 1 3 17
M  V30 18 1 5 18
M  V30 19 1 5 19
M  V30 20 1 7 20
M  V30 END BOND
M  V30 END CTAB
M  END
