
     RDKit          3D

  0  0  0  0  0  0  0  0  0  0999 V3000
M  V30 BEGIN CTAB
M  V30 COUNTS 29 30 0 0 0
M  V30 BEGIN ATOM
M  V30 1 N -2.66633 1.68329 -0.43502 0
M  V30 2 C -2.83952 0.22611 -0.410252 0
M  V30 3 C -1.87867 -0.461247 -1.30091 0
M  V30 4 C -0.688281 -1.06976 -0.680592 0
M  V30 5 C -0.319297 -0.664786 0.689572 0
M  V30 6 C -1.38591 -0.182827 1.58389 0
M  V30 7 C -2.77771 -0.239197 1.02404 0
M  V30 8 S 1.04591 0.564161 0.665595 0
M  V30 9 C 2.54451 -0.201135 0.0422796 0
M  V30 10 N 2.64756 -1.48614 -0.354359 0
M  V30 11 N 3.88637 -1.67771 -0.740402 0
M  V30 12 C 4.58578 -0.53049 -0.597987 0
M  V30 13 N 3.73415 0.389639 -0.106267 0
M  V30 14 N 4.0658 1.71835 0.188799 0
M  V30 15 H -3.14689 2.02558 -1.28597 0
M  V30 16 H -3.20555 2.04952 0.380286 0
M  V30 17 H -3.89907 0.0622642 -0.743163 0
M  V30 18 H -1.62199 0.259852 -2.13395 0
M  V30 19 H -2.44675 -1.27559 -1.84283 0
M  V30 20 H 0.197363 -0.809582 -1.34194 0
M  V30 21 H -0.715396 -2.19942 -0.768532 0
M  V30 22 H 0.151175 -1.56267 1.19765 0
M  V30 23 H -1.41889 -0.712054 2.57513 0
M  V30 24 H -1.2075 0.896155 1.86692 0
M  V30 25 H -3.42257 0.444413 1.61792 0
M  V30 26 H -3.20203 -1.24159 1.119 0
M  V30 27 H 5.62436 -0.437023 -0.849436 0
M  V30 28 H 3.75334 2.11113 1.10553 0
M  V30 29 H 4.60605 2.32076 -0.465001 0
M  V30 END ATOM
M  V30 BEGIN BOND
M  V30 1 1 1 2
M  V30 2 1 2 3
M  V30 3 1 3 4
M  V30 4 1 4 5
M  V30 5 1 5 6
M  V30 6 1 6 7
M  V30 7 1 5 8
M  V30 8 1 8 9
M  V30 9 2 9 10
M  V30 10 1 10 11
M  V30 11 2 11 12
M  V30 12 1 12 13
M  V30 13 1 13 14
M  V30 14 1 7 2
M  V30 15 1 13 9
M  V30 16 1 1 15
M  V30 17 1 1 16
M  V30 18 1 2 17
M  V30 19 1 3 18
M  V30 20 1 3 19
M  V30 21 1 4 20
M  V30 22 1 4 21
M  V30 23 1 5 22
M  V30 24 1 6 23
M  V30 25 1 6 24
M  V30 26 1 7 25
M  V30 27 1 7 26
M  V30 28 1 12 27
M  V30 29 1 14 28
M  V30 30 1 14 29
M  V30 END BOND
M  V30 END CTAB
M  END
