
     RDKit          3D

  0  0  0  0  0  0  0  0  0  0999 V3000
M  V30 BEGIN CTAB
M  V30 COUNTS 19 19 0 0 0
M  V30 BEGIN ATOM
M  V30 1 C -2.12148 -1.08822 0.56541 0
M  V30 2 C -1.39416 -0.458072 -0.593272 0
M  V30 3 C -0.0672667 -0.00808693 -0.0908928 0
M  V30 4 C 0.249622 1.11294 0.628607 0
M  V30 5 N 1.56756 1.09742 0.855174 0
M  V30 6 C 2.10689 -0.0184008 0.291904 0
M  V30 7 N 1.08208 -0.674869 -0.279551 0
M  V30 8 N 3.46835 -0.410784 0.303438 0
M  V30 9 N -2.12613 0.63445 -1.1925 0
M  V30 10 H -3.17243 -1.36196 0.321549 0
M  V30 11 H -2.05341 -0.481977 1.49136 0
M  V30 12 H -1.5671 -2.04347 0.795795 0
M  V30 13 H -1.2372 -1.22178 -1.37975 0
M  V30 14 H -0.497655 1.84368 0.927018 0
M  V30 15 H 2.11425 1.80992 1.37424 0
M  V30 16 H 3.81172 -0.968869 1.10151 0
M  V30 17 H 4.12178 -0.158874 -0.45349 0
M  V30 18 H -2.83398 1.03241 -0.53944 0
M  V30 19 H -1.45145 1.36455 -1.48691 0
M  V30 END ATOM
M  V30 BEGIN BOND
M  V30 1 1 1 2
M  V30 2 1 2 3
M  V30 3 2 3 4
M  V30 4 1 4 5
M  V30 5 1 5 6
M  V30 6 2 6 7
M  V30 7 1 6 8
M  V30 8 1 2 9
M  V30 9 1 7 3
M  V30 10 1 1 10
M  V30 11 1 1 11
M  V30 12 1 1 12
M  V30 13 1 2 13
M  V30 14 1 4 14
M  V30 15 1 5 15
M  V30 16 1 8 16
M  V30 17 1 8 17
M  V30 18 1 9 18
M  V30 19 1 9 19
M  V30 END BOND
M  V30 END CTAB
M  END
