
     RDKit          3D

  0  0  0  0  0  0  0  0  0  0999 V3000
M  V30 BEGIN CTAB
M  V30 COUNTS 28 30 0 0 0
M  V30 BEGIN ATOM
M  V30 1 N 4.66658 0.938748 0.324727 0
M  V30 2 C 3.32075 0.445992 0.300048 0
M  V30 3 C 3.00656 -0.554723 -0.612487 0
M  V30 4 C 1.69973 -1.00975 -0.619387 0
M  V30 5 F 1.37074 -1.99977 -1.51529 0
M  V30 6 C 0.725248 -0.516389 0.22655 0
M  V30 7 C 1.10267 0.46934 1.10332 0
M  V30 8 C 2.38499 0.972245 1.16723 0
M  V30 9 C -0.65069 -1.09178 0.220698 0
M  V30 10 C -0.727553 -2.43386 0.53746 0
M  V30 11 S -2.39797 -2.73432 0.552156 0
M  V30 12 C -2.96602 -1.17939 0.159746 0
M  V30 13 C -4.24319 -0.678875 -0.0214648 0
M  V30 14 C -4.42066 0.650627 -0.368218 0
M  V30 15 N -3.29275 1.36215 -0.503421 0
M  V30 16 C -2.04991 0.896747 -0.332004 0
M  V30 17 N -1.03309 1.85205 -0.583993 0
M  V30 18 C -1.8105 -0.443378 0.0231709 0
M  V30 19 H 5.15568 1.10164 -0.571082 0
M  V30 20 H 5.08309 1.10849 1.27423 0
M  V30 21 H 3.75458 -0.960358 -1.28957 0
M  V30 22 H 0.410632 0.900248 1.81191 0
M  V30 23 H 2.65872 1.76116 1.87698 0
M  V30 24 H 0.0902788 -3.14716 0.734889 0
M  V30 25 H -5.12762 -1.28005 0.0945319 0
M  V30 26 H -5.39649 1.08535 -0.518019 0
M  V30 27 H -0.939345 2.67134 0.0866116 0
M  V30 28 H -0.374471 1.81367 -1.36833 0
M  V30 END ATOM
M  V30 BEGIN BOND
M  V30 1 1 1 2
M  V30 2 2 2 3
M  V30 3 1 3 4
M  V30 4 1 4 5
M  V30 5 2 4 6
M  V30 6 1 6 7
M  V30 7 2 7 8
M  V30 8 1 6 9
M  V30 9 2 9 10
M  V30 10 1 10 11
M  V30 11 1 11 12
M  V30 12 2 12 13
M  V30 13 1 13 14
M  V30 14 2 14 15
M  V30 15 1 15 16
M  V30 16 1 16 17
M  V30 17 2 16 18
M  V30 18 1 8 2
M  V30 19 1 18 9
M  V30 20 1 18 12
M  V30 21 1 1 19
M  V30 22 1 1 20
M  V30 23 1 3 21
M  V30 24 1 7 22
M  V30 25 1 8 23
M  V30 26 1 10 24
M  V30 27 1 13 25
M  V30 28 1 14 26
M  V30 29 1 17 27
M  V30 30 1 17 28
M  V30 END BOND
M  V30 END CTAB
M  END
