
     RDKit          3D

  0  0  0  0  0  0  0  0  0  0999 V3000
M  V30 BEGIN CTAB
M  V30 COUNTS 38 39 0 0 0
M  V30 BEGIN ATOM
M  V30 1 N 6.13198 0.34991 -0.366957 0
M  V30 2 C 4.73431 -0.0585823 -0.142051 0
M  V30 3 C 3.88815 0.998737 -0.799805 0
M  V30 4 N 2.46478 0.744714 -0.662146 0
M  V30 5 C 2.06476 -0.41394 -1.43388 0
M  V30 6 C 1.18677 -1.34334 -0.636552 0
M  V30 7 N 0.125523 -0.566696 0.0291115 0
M  V30 8 C 0.558931 0.534493 0.818916 0
M  V30 9 C 2.08772 0.632227 0.726075 0
M  V30 10 C -1.18496 -0.970523 -0.164949 0
M  V30 11 O -1.39484 -2.01655 -0.926919 0
M  V30 12 C -2.40968 -0.376924 0.377263 0
M  V30 13 C -2.56605 0.702457 1.19975 0
M  V30 14 C -3.93846 0.877223 1.43783 0
M  V30 15 C -4.54912 -0.12719 0.731498 0
M  V30 16 O -3.63374 -0.823841 0.137642 0
M  V30 17 S -6.3022 -0.376724 0.678369 0
M  V30 18 O -6.54439 -1.78448 1.16154 0
M  V30 19 O -6.98011 0.610889 1.55374 0
M  V30 20 N -6.89588 -0.261558 -0.922006 0
M  V30 21 H 6.72752 -0.210338 0.286189 0
M  V30 22 H 6.35301 0.141147 -1.35895 0
M  V30 23 H 4.57769 -1.01926 -0.65571 0
M  V30 24 H 4.59573 -0.1064 0.955496 0
M  V30 25 H 4.14118 0.994733 -1.87786 0
M  V30 26 H 4.12649 1.99123 -0.391375 0
M  V30 27 H 2.91853 -0.975128 -1.83778 0
M  V30 28 H 1.45993 -0.105033 -2.33737 0
M  V30 29 H 1.77118 -1.91175 0.115863 0
M  V30 30 H 0.766075 -2.08935 -1.34054 0
M  V30 31 H 0.171846 1.5184 0.452703 0
M  V30 32 H 0.300568 0.4412 1.88671 0
M  V30 33 H 2.57139 -0.229133 1.18668 0
M  V30 34 H 2.38374 1.5764 1.21631 0
M  V30 35 H -1.81131 1.34996 1.62372 0
M  V30 36 H -4.37033 1.66222 2.05646 0
M  V30 37 H -7.30995 0.657837 -1.15341 0
M  V30 38 H -6.2168 -0.611075 -1.62361 0
M  V30 END ATOM
M  V30 BEGIN BOND
M  V30 1 1 1 2
M  V30 2 1 2 3
M  V30 3 1 3 4
M  V30 4 1 4 5
M  V30 5 1 5 6
M  V30 6 1 6 7
M  V30 7 1 7 8
M  V30 8 1 8 9
M  V30 9 1 7 10
M  V30 10 2 10 11
M  V30 11 1 10 12
M  V30 12 2 12 13
M  V30 13 1 13 14
M  V30 14 2 14 15
M  V30 15 1 15 16
M  V30 16 1 15 17
M  V30 17 2 17 18
M  V30 18 2 17 19
M  V30 19 1 17 20
M  V30 20 1 9 4
M  V30 21 1 16 12
M  V30 22 1 1 21
M  V30 23 1 1 22
M  V30 24 1 2 23
M  V30 25 1 2 24
M  V30 26 1 3 25
M  V30 27 1 3 26
M  V30 28 1 5 27
M  V30 29 1 5 28
M  V30 30 1 6 29
M  V30 31 1 6 30
M  V30 32 1 8 31
M  V30 33 1 8 32
M  V30 34 1 9 33
M  V30 35 1 9 34
M  V30 36 1 13 35
M  V30 37 1 14 36
M  V30 38 1 20 37
M  V30 39 1 20 38
M  V30 END BOND
M  V30 END CTAB
M  END
