
     RDKit          3D

  0  0  0  0  0  0  0  0  0  0999 V3000
M  V30 BEGIN CTAB
M  V30 COUNTS 25 25 0 0 0
M  V30 BEGIN ATOM
M  V30 1 C -2.11726 1.28365 -1.22747 0
M  V30 2 C -0.717444 1.07434 -0.767913 0
M  V30 3 C 0.20928 2.08347 -0.911924 0
M  V30 4 C 1.51971 1.91598 -0.492799 0
M  V30 5 C 1.83699 0.71455 0.0621728 0
M  V30 6 C 0.916403 -0.329358 0.221499 0
M  V30 7 C -0.380465 -0.143755 -0.20119 0
M  V30 8 S -1.51298 -1.42741 -0.00334286 0
M  V30 9 O -0.795843 -2.7384 -0.148589 0
M  V30 10 O -2.47298 -1.36314 -1.18228 0
M  V30 11 N -2.3371 -1.42125 1.48283 0
M  V30 12 C 1.41063 -1.58218 0.847911 0
M  V30 13 N 3.18427 0.52233 0.500936 0
M  V30 14 H -2.30769 0.86322 -2.22747 0
M  V30 15 H -2.85371 0.96331 -0.460609 0
M  V30 16 H -2.28581 2.39636 -1.33717 0
M  V30 17 H -0.0528308 3.03204 -1.35318 0
M  V30 18 H 2.22739 2.72047 -0.61607 0
M  V30 19 H -3.36866 -1.56291 1.28045 0
M  V30 20 H -2.08399 -2.2204 2.11256 0
M  V30 21 H 0.714911 -1.97001 1.62347 0
M  V30 22 H 2.35693 -1.38169 1.39113 0
M  V30 23 H 1.61719 -2.34979 0.0859797 0
M  V30 24 H 3.42359 0.862267 1.44471 0
M  V30 25 H 3.86948 0.058317 -0.123635 0
M  V30 END ATOM
M  V30 BEGIN BOND
M  V30 1 1 1 2
M  V30 2 2 2 3
M  V30 3 1 3 4
M  V30 4 2 4 5
M  V30 5 1 5 6
M  V30 6 2 6 7
M  V30 7 1 7 8
M  V30 8 2 8 9
M  V30 9 2 8 10
M  V30 10 1 8 11
M  V30 11 1 6 12
M  V30 12 1 5 13
M  V30 13 1 7 2
M  V30 14 1 1 14
M  V30 15 1 1 15
M  V30 16 1 1 16
M  V30 17 1 3 17
M  V30 18 1 4 18
M  V30 19 1 11 19
M  V30 20 1 11 20
M  V30 21 1 12 21
M  V30 22 1 12 22
M  V30 23 1 12 23
M  V30 24 1 13 24
M  V30 25 1 13 25
M  V30 END BOND
M  V30 END CTAB
M  END
