
     RDKit          3D

  0  0  0  0  0  0  0  0  0  0999 V3000
M  V30 BEGIN CTAB
M  V30 COUNTS 125 132 0 0 0
M  V30 BEGIN ATOM
M  V30 1 N -3.77841 -3.75365 0.134466 0
M  V30 2 C -2.97069 -3.32008 1.22058 0
M  V30 3 C -2.15987 -2.08623 0.830511 0 CFG=1
M  V30 4 O -1.38262 -2.4591 -0.218183 0
M  V30 5 C -1.01048 -1.44367 -1.05024 0 CFG=2
M  V30 6 O -0.350674 -0.461986 -0.384745 0
M  V30 7 C 0.883992 -0.147321 -0.987146 0 CFG=1
M  V30 8 O 0.876035 1.19517 -1.2408 0
M  V30 9 C 2.04574 1.88326 -1.21221 0 CFG=2
M  V30 10 C 1.90353 2.99258 -2.27753 0
M  V30 11 N 0.754766 3.83491 -1.94056 0
M  V30 12 C 3.29433 1.15406 -1.50999 0 CFG=1
M  V30 13 O 4.39154 1.86474 -1.02385 0
M  V30 14 C 5.3089 2.2018 -1.9769 0
M  V30 15 C 6.42696 2.95106 -1.30384 0
M  V30 16 C 6.31628 4.29655 -1.14906 0
M  V30 17 C 7.31793 5.03705 -0.547753 0
M  V30 18 C 8.45843 4.37497 -0.0957657 0
M  V30 19 C 8.58835 3.02159 -0.242097 0
M  V30 20 C 7.55441 2.30918 -0.854748 0
M  V30 21 C 3.32406 -0.288346 -0.971561 0 CFG=2
M  V30 22 O 3.50479 -1.10824 -2.01757 0
M  V30 23 C 4.62661 -1.84246 -2.15401 0
M  V30 24 C 4.91227 -2.82833 -1.0757 0
M  V30 25 C 5.70451 -2.56858 -0.00324002 0
M  V30 26 C 5.90576 -3.54606 0.94252 0
M  V30 27 C 5.33449 -4.8045 0.859772 0
M  V30 28 C 4.53884 -5.02377 -0.243841 0
M  V30 29 C 4.32206 -4.06093 -1.20403 0
M  V30 30 C 2.0721 -0.500511 -0.143561 0 CFG=1
M  V30 31 O 2.15457 0.360796 0.936993 0
M  V30 32 C 2.24404 -0.354813 2.13844 0
M  V30 33 C 2.36228 0.532504 3.29508 0
M  V30 34 C 3.49702 1.25473 3.54879 0
M  V30 35 C 3.57369 2.07984 4.67466 0
M  V30 36 C 2.53181 2.20341 5.56457 0
M  V30 37 C 1.39272 1.46145 5.2854 0
M  V30 38 C 1.31448 0.657152 4.1905 0
M  V30 39 C -2.31707 -0.996309 -1.75101 0 CFG=2
M  V30 40 O -2.01509 -0.260636 -2.84839 0
M  V30 41 C -2.15091 -0.84964 -4.03997 0
M  V30 42 C -3.45011 -1.30965 -4.5297 0
M  V30 43 C -3.81123 -2.64811 -4.42806 0
M  V30 44 C -5.00322 -3.16665 -4.88415 0
M  V30 45 C -5.88971 -2.29481 -5.47938 0
M  V30 46 C -5.54441 -0.943327 -5.59171 0
M  V30 47 C -4.35996 -0.455232 -5.13242 0
M  V30 48 C -3.21554 -0.402981 -0.735972 0 CFG=1
M  V30 49 O -4.51988 -0.58343 -1.16225 0
M  V30 50 C -5.25779 0.450552 -1.55873 0
M  V30 51 C -5.53303 1.47802 -0.544225 0
M  V30 52 C -6.55009 1.32843 0.399432 0
M  V30 53 C -6.8547 2.27842 1.32445 0
M  V30 54 C -6.14718 3.4612 1.36605 0
M  V30 55 C -5.12418 3.65103 0.442926 0
M  V30 56 C -4.83378 2.67867 -0.482596 0
M  V30 57 C -2.99482 -0.865213 0.66197 0 CFG=2
M  V30 58 O -2.45579 0.13058 1.42707 0
M  V30 59 C -3.14429 0.661826 2.4489 0
M  V30 60 C -3.60424 -0.197751 3.5411 0
M  V30 61 C -4.85129 -0.786053 3.56816 0
M  V30 62 C -5.24964 -1.58369 4.64008 0
M  V30 63 C -4.42591 -1.82734 5.7269 0
M  V30 64 C -3.18423 -1.23925 5.69643 0
M  V30 65 C -2.78483 -0.454376 4.6463 0
M  V30 66 H -4.65464 -3.24568 0.0938014 0
M  V30 67 H -3.23737 -3.84786 -0.712934 0
M  V30 68 H -2.20383 -4.13678 1.38239 0
M  V30 69 H -3.49183 -3.22658 2.16812 0
M  V30 70 H -1.45932 -1.94222 1.70821 0
M  V30 71 H -0.317949 -1.80308 -1.87566 0
M  V30 72 H 0.974621 -0.74356 -1.94682 0
M  V30 73 H 2.08221 2.46849 -0.25276 0
M  V30 74 H 2.79436 3.66723 -2.1441 0
M  V30 75 H 1.89787 2.61356 -3.29012 0
M  V30 76 H -0.0670183 3.21694 -1.75041 0
M  V30 77 H 0.998341 4.29897 -1.03007 0
M  V30 78 H 3.46391 1.10494 -2.61712 0
M  V30 79 H 4.9245 2.86137 -2.74486 0
M  V30 80 H 5.79714 1.32397 -2.45864 0
M  V30 81 H 5.44126 4.80924 -1.4933 0
M  V30 82 H 7.26696 6.10123 -0.408209 0
M  V30 83 H 9.23229 4.96875 0.370459 0
M  V30 84 H 9.48057 2.5335 0.116269 0
M  V30 85 H 7.64323 1.24928 -0.974077 0
M  V30 86 H 4.19449 -0.323828 -0.28828 0
M  V30 87 H 4.75442 -2.31921 -3.15176 0
M  V30 88 H 5.49762 -1.11574 -2.10302 0
M  V30 89 H 6.17559 -1.57636 0.0875124 0
M  V30 90 H 6.54471 -3.32853 1.80519 0
M  V30 91 H 5.50632 -5.56466 1.61657 0
M  V30 92 H 4.07449 -6.01806 -0.330173 0
M  V30 93 H 3.67884 -4.33234 -2.03241 0
M  V30 94 H 2.03783 -1.53053 0.266565 0
M  V30 95 H 3.2048 -0.945432 2.0595 0
M  V30 96 H 1.4429 -1.11211 2.24904 0
M  V30 97 H 4.34136 1.19263 2.87807 0
M  V30 98 H 4.47776 2.65593 4.8795 0
M  V30 99 H 2.55749 2.83159 6.44799 0
M  V30 100 H 0.563829 1.53555 5.95994 0
M  V30 101 H 0.433607 0.0763862 3.96773 0
M  V30 102 H -2.75563 -1.97584 -2.12404 0
M  V30 103 H -1.77956 -0.116562 -4.8358 0
M  V30 104 H -1.44712 -1.72055 -4.20159 0
M  V30 105 H -3.11215 -3.35661 -3.96914 0
M  V30 106 H -5.2102 -4.22836 -4.7653 0
M  V30 107 H -6.82927 -2.67763 -5.84434 0
M  V30 108 H -6.2943 -0.326498 -6.06965 0
M  V30 109 H -4.12447 0.583888 -5.23257 0
M  V30 110 H -3.04364 0.711866 -0.771659 0
M  V30 111 H -6.25333 0.167121 -1.99876 0
M  V30 112 H -4.66042 0.999176 -2.36428 0
M  V30 113 H -7.08491 0.395491 0.342414 0
M  V30 114 H -7.66627 2.11961 2.04937 0
M  V30 115 H -6.37958 4.23739 2.10374 0
M  V30 116 H -4.59212 4.59633 0.508085 0
M  V30 117 H -4.02391 2.88024 -1.17932 0
M  V30 118 H -4.03042 -1.15776 1.03895 0
M  V30 119 H -2.42512 1.40197 2.95138 0
M  V30 120 H -3.99655 1.31767 2.18606 0
M  V30 121 H -5.55798 -0.628028 2.74445 0
M  V30 122 H -6.22681 -2.05264 4.67397 0
M  V30 123 H -4.73778 -2.44325 6.5529 0
M  V30 124 H -2.53142 -1.43238 6.56027 0
M  V30 125 H -1.80006 -0.0140696 4.67818 0
M  V30 END ATOM
M  V30 BEGIN BOND
M  V30 1 1 1 2
M  V30 2 1 2 3
M  V30 3 1 3 4
M  V30 4 1 4 5
M  V30 5 1 5 6
M  V30 6 1 6 7
M  V30 7 1 7 8
M  V30 8 1 8 9
M  V30 9 1 9 10
M  V30 10 1 10 11
M  V30 11 1 9 12
M  V30 12 1 12 13
M  V30 13 1 13 14
M  V30 14 1 14 15
M  V30 15 2 15 16
M  V30 16 1 16 17
M  V30 17 2 17 18
M  V30 18 1 18 19
M  V30 19 2 19 20
M  V30 20 1 12 21
M  V30 21 1 21 22
M  V30 22 1 22 23
M  V30 23 1 23 24
M  V30 24 2 24 25
M  V30 25 1 25 26
M  V30 26 2 26 27
M  V30 27 1 27 28
M  V30 28 2 28 29
M  V30 29 1 21 30
M  V30 30 1 30 31
M  V30 31 1 31 32
M  V30 32 1 32 33
M  V30 33 2 33 34
M  V30 34 1 34 35
M  V30 35 2 35 36
M  V30 36 1 36 37
M  V30 37 2 37 38
M  V30 38 1 5 39
M  V30 39 1 39 40
M  V30 40 1 40 41
M  V30 41 1 41 42
M  V30 42 2 42 43
M  V30 43 1 43 44
M  V30 44 2 44 45
M  V30 45 1 45 46
M  V30 46 2 46 47
M  V30 47 1 39 48
M  V30 48 1 48 49
M  V30 49 1 49 50
M  V30 50 1 50 51
M  V30 51 2 51 52
M  V30 52 1 52 53
M  V30 53 2 53 54
M  V30 54 1 54 55
M  V30 55 2 55 56
M  V30 56 1 48 57
M  V30 57 1 57 58
M  V30 58 1 58 59
M  V30 59 1 59 60
M  V30 60 2 60 61
M  V30 61 1 61 62
M  V30 62 2 62 63
M  V30 63 1 63 64
M  V30 64 2 64 65
M  V30 65 1 57 3
M  V30 66 1 65 60
M  V30 67 1 30 7
M  V30 68 1 38 33
M  V30 69 1 47 42
M  V30 70 1 56 51
M  V30 71 1 20 15
M  V30 72 1 29 24
M  V30 73 1 1 66
M  V30 74 1 1 67
M  V30 75 1 2 68
M  V30 76 1 2 69
M  V30 77 1 3 70 CFG=1
M  V30 78 1 5 71 CFG=3
M  V30 79 1 7 72 CFG=3
M  V30 80 1 9 73 CFG=1
M  V30 81 1 10 74
M  V30 82 1 10 75
M  V30 83 1 11 76
M  V30 84 1 11 77
M  V30 85 1 12 78 CFG=3
M  V30 86 1 14 79
M  V30 87 1 14 80
M  V30 88 1 16 81
M  V30 89 1 17 82
M  V30 90 1 18 83
M  V30 91 1 19 84
M  V30 92 1 20 85
M  V30 93 1 21 86 CFG=1
M  V30 94 1 23 87
M  V30 95 1 23 88
M  V30 96 1 25 89
M  V30 97 1 26 90
M  V30 98 1 27 91
M  V30 99 1 28 92
M  V30 100 1 29 93
M  V30 101 1 30 94 CFG=1
M  V30 102 1 32 95
M  V30 103 1 32 96
M  V30 104 1 34 97
M  V30 105 1 35 98
M  V30 106 1 36 99
M  V30 107 1 37 100
M  V30 108 1 38 101
M  V30 109 1 39 102 CFG=3
M  V30 110 1 41 103
M  V30 111 1 41 104
M  V30 112 1 43 105
M  V30 113 1 44 106
M  V30 114 1 45 107
M  V30 115 1 46 108
M  V30 116 1 47 109
M  V30 117 1 48 110 CFG=1
M  V30 118 1 50 111
M  V30 119 1 50 112
M  V30 120 1 52 113
M  V30 121 1 53 114
M  V30 122 1 54 115
M  V30 123 1 55 116
M  V30 124 1 56 117
M  V30 125 1 57 118 CFG=1
M  V30 126 1 59 119
M  V30 127 1 59 120
M  V30 128 1 61 121
M  V30 129 1 62 122
M  V30 130 1 63 123
M  V30 131 1 64 124
M  V30 132 1 65 125
M  V30 END BOND
M  V30 END CTAB
M  END
