
     RDKit          3D

  0  0  0  0  0  0  0  0  0  0999 V3000
M  V30 BEGIN CTAB
M  V30 COUNTS 28 28 0 0 0
M  V30 BEGIN ATOM
M  V30 1 O -2.26916 2.7197 0.956364 0
M  V30 2 C -2.30988 1.34343 0.920808 0
M  V30 3 O -2.48285 0.762256 2.01742 0
M  V30 4 C -2.14894 0.642511 -0.349534 0
M  V30 5 C -1.27276 -0.569 -0.422426 0
M  V30 6 C 0.151311 -0.314964 -0.130157 0
M  V30 7 C 1.09318 -0.363184 -1.19247 0
M  V30 8 C 2.41503 -0.109148 -1.00269 0
M  V30 9 C 2.91562 0.217655 0.260499 0
M  V30 10 C 2.01403 0.262732 1.27801 0
M  V30 11 C 0.652178 0.00273304 1.10364 0
M  V30 12 N 4.30166 0.486344 0.417322 0
M  V30 13 N -1.38918 -1.04077 -1.80453 0
M  V30 14 C -1.82629 -1.70697 0.426906 0
M  V30 15 H -3.16901 3.19745 0.92668 0
M  V30 16 H -3.13108 0.410491 -0.841576 0
M  V30 17 H -1.63686 1.39249 -1.07168 0
M  V30 18 H 0.757058 -0.608041 -2.17273 0
M  V30 19 H 3.08639 -0.168356 -1.84947 0
M  V30 20 H 2.3873 0.511024 2.25921 0
M  V30 21 H 0.0736822 0.0571112 1.99249 0
M  V30 22 H 4.66287 1.33205 0.899643 0
M  V30 23 H 5.0023 -0.181608 0.0305152 0
M  V30 24 H -1.21073 -0.297828 -2.47805 0
M  V30 25 H -0.876684 -1.93272 -1.90078 0
M  V30 26 H -1.55897 -1.64435 1.48195 0
M  V30 27 H -1.34093 -2.64138 0.0351907 0
M  V30 28 H -2.88929 -1.75966 0.209438 0
M  V30 END ATOM
M  V30 BEGIN BOND
M  V30 1 1 1 2
M  V30 2 2 2 3
M  V30 3 1 2 4
M  V30 4 1 4 5
M  V30 5 1 5 6
M  V30 6 2 6 7
M  V30 7 1 7 8
M  V30 8 2 8 9
M  V30 9 1 9 10
M  V30 10 2 10 11
M  V30 11 1 9 12
M  V30 12 1 5 13
M  V30 13 1 5 14
M  V30 14 1 11 6
M  V30 15 1 1 15
M  V30 16 1 4 16
M  V30 17 1 4 17
M  V30 18 1 7 18
M  V30 19 1 8 19
M  V30 20 1 10 20
M  V30 21 1 11 21
M  V30 22 1 12 22
M  V30 23 1 12 23
M  V30 24 1 13 24
M  V30 25 1 13 25
M  V30 26 1 14 26
M  V30 27 1 14 27
M  V30 28 1 14 28
M  V30 END BOND
M  V30 END CTAB
M  END
