
     RDKit          3D

  0  0  0  0  0  0  0  0  0  0999 V3000
M  V30 BEGIN CTAB
M  V30 COUNTS 27 27 0 0 0
M  V30 BEGIN ATOM
M  V30 1 C 3.58512 0.644894 0.0137254 0
M  V30 2 C 2.89684 -0.693431 -0.0490353 0
M  V30 3 C 1.42081 -0.612803 -0.22867 0
M  V30 4 C 0.683969 0.102504 0.877393 0
M  V30 5 C -0.768351 0.0850924 0.498602 0
M  V30 6 C -1.32051 0.943622 -0.410162 0
M  V30 7 N -0.5002 1.93256 -1.00723 0
M  V30 8 N -2.64574 0.848642 -0.719662 0
M  V30 9 C -3.39036 -0.0956194 -0.120193 0
M  V30 10 N -4.78934 -0.202712 -0.442969 0
M  V30 11 N -2.84342 -0.941135 0.777054 0
M  V30 12 C -1.54225 -0.890424 1.11835 0
M  V30 13 O -0.989144 -1.77316 2.04991 0
M  V30 14 H 3.29192 1.24035 -0.879034 0
M  V30 15 H 3.32668 1.13154 0.974301 0
M  V30 16 H 4.68701 0.453246 -0.034489 0
M  V30 17 H 3.1289 -1.21191 0.919578 0
M  V30 18 H 3.32076 -1.33381 -0.848803 0
M  V30 19 H 1.05404 -1.68125 -0.251569 0
M  V30 20 H 1.11924 -0.167234 -1.19361 0
M  V30 21 H 0.817357 -0.315664 1.87268 0
M  V30 22 H 1.06911 1.15139 0.874684 0
M  V30 23 H -0.171576 2.77071 -0.498137 0
M  V30 24 H -0.220484 1.8072 -1.99748 0
M  V30 25 H -5.42715 0.492215 -0.040532 0
M  V30 26 H -5.04506 -0.986762 -1.06502 0
M  V30 27 H -0.748178 -2.69806 1.69222 0
M  V30 END ATOM
M  V30 BEGIN BOND
M  V30 1 1 1 2
M  V30 2 1 2 3
M  V30 3 1 3 4
M  V30 4 1 4 5
M  V30 5 2 5 6
M  V30 6 1 6 7
M  V30 7 1 6 8
M  V30 8 2 8 9
M  V30 9 1 9 10
M  V30 10 1 9 11
M  V30 11 2 11 12
M  V30 12 1 12 13
M  V30 13 1 12 5
M  V30 14 1 1 14
M  V30 15 1 1 15
M  V30 16 1 1 16
M  V30 17 1 2 17
M  V30 18 1 2 18
M  V30 19 1 3 19
M  V30 20 1 3 20
M  V30 21 1 4 21
M  V30 22 1 4 22
M  V30 23 1 7 23
M  V30 24 1 7 24
M  V30 25 1 10 25
M  V30 26 1 10 26
M  V30 27 1 13 27
M  V30 END BOND
M  V30 END CTAB
M  END
