
     RDKit          3D

  0  0  0  0  0  0  0  0  0  0999 V3000
M  V30 BEGIN CTAB
M  V30 COUNTS 22 22 0 0 0
M  V30 BEGIN ATOM
M  V30 1 N 3.19357 1.19653 0.411162 0
M  V30 2 C 2.53128 0.360631 -0.592235 0
M  V30 3 C 2.1192 -0.932904 0.116656 0
M  V30 4 S 0.986099 -0.566498 1.4746 0
M  V30 5 C -0.589759 0.0520931 0.869189 0
M  V30 6 N -0.802996 1.36667 0.667648 0
M  V30 7 C -1.9712 1.86029 0.218813 0
M  V30 8 C -3.00294 0.983631 -0.0500129 0
M  V30 9 C -2.80374 -0.368401 0.149998 0
M  V30 10 C -1.60537 -0.878253 0.611184 0
M  V30 11 N -1.42102 -2.2721 0.809416 0
M  V30 12 H 2.47123 1.74725 0.914002 0
M  V30 13 H 3.89658 1.77081 -0.104053 0
M  V30 14 H 3.25246 0.167491 -1.38847 0
M  V30 15 H 1.61604 0.90001 -0.954706 0
M  V30 16 H 2.97096 -1.5196 0.453919 0
M  V30 17 H 1.57907 -1.53546 -0.659566 0
M  V30 18 H -2.14443 2.9294 0.0544232 0
M  V30 19 H -3.94473 1.37109 -0.411419 0
M  V30 20 H -3.62749 -1.03947 -0.067512 0
M  V30 21 H -0.905322 -2.84472 0.114359 0
M  V30 22 H -1.79749 -2.74848 1.65369 0
M  V30 END ATOM
M  V30 BEGIN BOND
M  V30 1 1 1 2
M  V30 2 1 2 3
M  V30 3 1 3 4
M  V30 4 1 4 5
M  V30 5 2 5 6
M  V30 6 1 6 7
M  V30 7 2 7 8
M  V30 8 1 8 9
M  V30 9 2 9 10
M  V30 10 1 10 11
M  V30 11 1 10 5
M  V30 12 1 1 12
M  V30 13 1 1 13
M  V30 14 1 2 14
M  V30 15 1 2 15
M  V30 16 1 3 16
M  V30 17 1 3 17
M  V30 18 1 7 18
M  V30 19 1 8 19
M  V30 20 1 9 20
M  V30 21 1 11 21
M  V30 22 1 11 22
M  V30 END BOND
M  V30 END CTAB
M  END
