
     RDKit          3D

  0  0  0  0  0  0  0  0  0  0999 V3000
M  V30 BEGIN CTAB
M  V30 COUNTS 28 29 0 0 0
M  V30 BEGIN ATOM
M  V30 1 N -0.453644 -3.32037 -0.371583 0
M  V30 2 C -0.823253 -2.22457 -0.402496 0
M  V30 3 C -1.30286 -0.883264 -0.440829 0
M  V30 4 C -2.61082 -0.656311 -0.477219 0
M  V30 5 N -3.60103 -1.64085 -0.485124 0
M  V30 6 S -3.14295 1.099 -0.474883 0
M  V30 7 C -1.91127 1.80671 0.665043 0
M  V30 8 C -0.696195 1.32045 0.53702 0
M  V30 9 C -0.408332 0.28282 -0.474472 0
M  V30 10 C 1.02773 -0.111899 -0.424353 0
M  V30 11 C 1.57828 -0.699945 0.694035 0
M  V30 12 C 2.90204 -1.04399 0.690564 0
M  V30 13 C 3.72602 -0.828852 -0.392004 0
M  V30 14 C 3.14995 -0.241962 -1.49073 0
M  V30 15 C 1.81276 0.120807 -1.52556 0
M  V30 16 Br 4.22103 0.089503 -3.02835 0
M  V30 17 C 0.386782 1.80216 1.39634 0
M  V30 18 N 1.23168 2.19879 2.07782 0
M  V30 19 N -2.23966 2.80031 1.61143 0
M  V30 20 H -4.34363 -1.62871 0.242049 0
M  V30 21 H -3.63318 -2.39369 -1.18956 0
M  V30 22 H -0.563623 0.733792 -1.50857 0
M  V30 23 H 0.91694 -0.867046 1.54885 0
M  V30 24 H 3.31137 -1.51224 1.60017 0
M  V30 25 H 4.77548 -1.10536 -0.385285 0
M  V30 26 H 1.41424 0.588651 -2.4413 0
M  V30 27 H -2.38369 2.5217 2.59882 0
M  V30 28 H -2.34014 3.79438 1.34822 0
M  V30 END ATOM
M  V30 BEGIN BOND
M  V30 1 3 1 2
M  V30 2 1 2 3
M  V30 3 2 3 4
M  V30 4 1 4 5
M  V30 5 1 4 6
M  V30 6 1 6 7
M  V30 7 2 7 8
M  V30 8 1 8 9
M  V30 9 1 9 10
M  V30 10 2 10 11
M  V30 11 1 11 12
M  V30 12 2 12 13
M  V30 13 1 13 14
M  V30 14 2 14 15
M  V30 15 1 14 16
M  V30 16 1 8 17
M  V30 17 3 17 18
M  V30 18 1 7 19
M  V30 19 1 9 3
M  V30 20 1 15 10
M  V30 21 1 5 20
M  V30 22 1 5 21
M  V30 23 1 9 22
M  V30 24 1 11 23
M  V30 25 1 12 24
M  V30 26 1 13 25
M  V30 27 1 15 26
M  V30 28 1 19 27
M  V30 29 1 19 28
M  V30 END BOND
M  V30 END CTAB
M  END
