
     RDKit          3D

  0  0  0  0  0  0  0  0  0  0999 V3000
M  V30 BEGIN CTAB
M  V30 COUNTS 29 31 0 0 0
M  V30 BEGIN ATOM
M  V30 1 N -4.56436 0.409195 -0.871848 0
M  V30 2 C -3.18669 0.0768067 -0.846875 0
M  V30 3 C -2.50957 -0.396534 -1.92785 0
M  V30 4 C -1.17316 -0.700703 -1.83961 0
M  V30 5 C -0.439914 -0.545999 -0.657177 0
M  V30 6 C -1.13976 -0.0664156 0.426668 0
M  V30 7 C -2.50281 0.244553 0.338967 0
M  V30 8 N -3.18215 0.73454 1.47665 0
M  V30 9 N 0.939444 -0.883109 -0.627319 0
M  V30 10 C 1.72679 -0.658941 0.542453 0
M  V30 11 C 1.88847 0.805198 1.01492 0
M  V30 12 C 2.9872 0.00675424 0.594232 0
M  V30 13 C 4.04638 0.19736 -0.323294 0
M  V30 14 C 4.25085 -0.310839 1.14018 0
M  V30 15 H -4.87023 1.2794 -1.3591 0
M  V30 16 H -5.27558 -0.187094 -0.420274 0
M  V30 17 H -3.04694 -0.531223 -2.86952 0
M  V30 18 H -0.627271 -1.08327 -2.71469 0
M  V30 19 H -0.628222 0.069439 1.36333 0
M  V30 20 H -4.22524 0.758939 1.49314 0
M  V30 21 H -2.68832 1.08407 2.32705 0
M  V30 22 H 1.36216 -1.30782 -1.50656 0
M  V30 23 H 1.46212 -1.35667 1.39098 0
M  V30 24 H 1.49544 1.58625 0.304384 0
M  V30 25 H 1.68468 1.02483 2.07219 0
M  V30 26 H 4.41485 -0.499493 -1.09194 0
M  V30 27 H 4.4446 1.24133 -0.485299 0
M  V30 28 H 4.59314 -1.3739 1.22891 0
M  V30 29 H 4.76409 0.383342 1.82732 0
M  V30 END ATOM
M  V30 BEGIN BOND
M  V30 1 1 1 2
M  V30 2 2 2 3
M  V30 3 1 3 4
M  V30 4 2 4 5
M  V30 5 1 5 6
M  V30 6 2 6 7
M  V30 7 1 7 8
M  V30 8 1 5 9
M  V30 9 1 9 10
M  V30 10 1 10 11
M  V30 11 1 11 12
M  V30 12 1 12 13
M  V30 13 1 13 14
M  V30 14 1 7 2
M  V30 15 1 12 10
M  V30 16 1 14 12
M  V30 17 1 1 15
M  V30 18 1 1 16
M  V30 19 1 3 17
M  V30 20 1 4 18
M  V30 21 1 6 19
M  V30 22 1 8 20
M  V30 23 1 8 21
M  V30 24 1 9 22
M  V30 25 1 10 23
M  V30 26 1 11 24
M  V30 27 1 11 25
M  V30 28 1 13 26
M  V30 29 1 13 27
M  V30 30 1 14 28
M  V30 31 1 14 29
M  V30 END BOND
M  V30 END CTAB
M  END
