
     RDKit          3D

  0  0  0  0  0  0  0  0  0  0999 V3000
M  V30 BEGIN CTAB
M  V30 COUNTS 35 35 0 0 0
M  V30 BEGIN ATOM
M  V30 1 C 6.5918 0.238933 0.0182662 0
M  V30 2 O 5.29422 0.742677 0.308791 0
M  V30 3 C 4.17983 -0.0737083 0.180369 0
M  V30 4 O 4.34359 -1.24376 -0.191091 0
M  V30 5 C 2.81876 0.437229 0.479812 0
M  V30 6 C 1.7655 -0.606073 0.276037 0
M  V30 7 C 0.388165 -0.0626984 0.586935 0
M  V30 8 C -0.686651 -1.09315 0.389261 0
M  V30 9 C -2.0306 -0.508148 0.709171 0 CFG=2
M  V30 10 O -3.06466 -1.42665 0.540927 0
M  V30 11 C -4.23596 -0.714769 0.467082 0
M  V30 12 C -3.90517 0.712173 0.138201 0 CFG=2
M  V30 13 N -4.70156 1.25995 -0.921213 0
M  V30 14 C -2.43692 0.576042 -0.268472 0 CFG=2
M  V30 15 N -2.42486 0.0764581 -1.62879 0
M  V30 16 H 6.51011 -0.677615 -0.585614 0
M  V30 17 H 7.14868 0.0042086 0.947168 0
M  V30 18 H 7.16017 1.01267 -0.551262 0
M  V30 19 H 2.61428 1.34624 -0.111105 0
M  V30 20 H 2.77584 0.747578 1.54895 0
M  V30 21 H 1.76324 -0.991606 -0.76744 0
M  V30 22 H 2.00738 -1.48811 0.917085 0
M  V30 23 H 0.200323 0.794975 -0.0726083 0
M  V30 24 H 0.39774 0.258458 1.66074 0
M  V30 25 H -0.500746 -1.9036 1.12781 0
M  V30 26 H -0.641501 -1.54511 -0.601012 0
M  V30 27 H -2.11191 -0.102766 1.71489 0
M  V30 28 H -4.91056 -1.12133 -0.332447 0
M  V30 29 H -4.78014 -0.824505 1.43167 0
M  V30 30 H -3.93373 1.35205 1.03374 0
M  V30 31 H -5.03786 0.578767 -1.60717 0
M  V30 32 H -4.17526 2.07141 -1.33095 0
M  V30 33 H -1.89356 1.51007 -0.142491 0
M  V30 34 H -3.03065 0.595994 -2.27326 0
M  V30 35 H -1.4573 0.0677178 -2.02498 0
M  V30 END ATOM
M  V30 BEGIN BOND
M  V30 1 1 1 2
M  V30 2 1 2 3
M  V30 3 2 3 4
M  V30 4 1 3 5
M  V30 5 1 5 6
M  V30 6 1 6 7
M  V30 7 1 7 8
M  V30 8 1 8 9
M  V30 9 1 9 10
M  V30 10 1 10 11
M  V30 11 1 11 12
M  V30 12 1 12 13
M  V30 13 1 12 14
M  V30 14 1 14 15
M  V30 15 1 14 9
M  V30 16 1 1 16
M  V30 17 1 1 17
M  V30 18 1 1 18
M  V30 19 1 5 19
M  V30 20 1 5 20
M  V30 21 1 6 21
M  V30 22 1 6 22
M  V30 23 1 7 23
M  V30 24 1 7 24
M  V30 25 1 8 25
M  V30 26 1 8 26
M  V30 27 1 9 27 CFG=1
M  V30 28 1 11 28
M  V30 29 1 11 29
M  V30 30 1 12 30 CFG=1
M  V30 31 1 13 31
M  V30 32 1 13 32
M  V30 33 1 14 33 CFG=3
M  V30 34 1 15 34
M  V30 35 1 15 35
M  V30 END BOND
M  V30 END CTAB
M  END
