
     RDKit          3D

  0  0  0  0  0  0  0  0  0  0999 V3000
M  V30 BEGIN CTAB
M  V30 COUNTS 78 80 0 0 0
M  V30 BEGIN ATOM
M  V30 1 C -5.17247 3.32792 0.327293 0
M  V30 2 C -3.82657 2.66852 0.653668 0
M  V30 3 C -3.86906 2.29953 2.12777 0
M  V30 4 C -2.62977 1.64699 2.60144 0
M  V30 5 C -2.19289 0.393793 1.95972 0
M  V30 6 O -2.89279 -0.763601 2.00198 0
M  V30 7 C -4.13908 -1.08639 1.61764 0
M  V30 8 C -5.20427 -1.12167 2.48232 0
M  V30 9 I -4.90876 -0.735558 4.52282 0
M  V30 10 C -6.45029 -1.45269 2.01636 0
M  V30 11 C -6.67136 -1.75662 0.692023 0
M  V30 12 C -8.04009 -2.11043 0.227782 0
M  V30 13 N -8.67777 -0.849373 -0.166838 0
M  V30 14 C -5.58544 -1.71553 -0.152511 0
M  V30 15 C -4.31124 -1.38966 0.257889 0
M  V30 16 C -3.19169 -1.37246 -0.632678 0
M  V30 17 C -2.24308 -1.38034 -1.41358 0
M  V30 18 C -1.14232 -1.38593 -2.3373 0
M  V30 19 C 0.141148 -1.29884 -1.87193 0
M  V30 20 C 1.22102 -1.30113 -2.72516 0
M  V30 21 C 0.989451 -1.395 -4.09683 0
M  V30 22 C -0.287448 -1.48448 -4.6065 0
M  V30 23 C -1.32725 -1.47762 -3.70799 0
M  V30 24 C 2.53161 -1.20629 -2.15274 0
M  V30 25 C 3.64278 -1.13451 -1.68476 0
M  V30 26 C 4.97968 -1.06532 -1.14005 0
M  V30 27 C 5.25227 -1.49517 0.165307 0
M  V30 28 O 4.23635 -1.95276 0.907527 0
M  V30 29 C 3.43939 -1.42438 1.85521 0
M  V30 30 C 2.59925 -0.230922 1.67348 0
M  V30 31 C 3.2428 1.08164 1.44025 0
M  V30 32 C 2.1817 2.1982 1.29741 0
M  V30 33 C 2.91404 3.49181 1.06415 0
M  V30 34 C 6.57295 -1.4289 0.646479 0
M  V30 35 I 6.89004 -2.09926 2.62444 0
M  V30 36 C 7.57973 -0.956681 -0.13118 0
M  V30 37 C 7.33098 -0.530197 -1.41314 0
M  V30 38 C 8.43392 -0.00889211 -2.2746 0
M  V30 39 N 8.97735 -1.15146 -2.98885 0
M  V30 40 C 6.03939 -0.597662 -1.87769 0
M  V30 41 H -5.9905 2.65212 0.598767 0
M  V30 42 H -5.25963 3.56457 -0.745626 0
M  V30 43 H -5.29563 4.27785 0.895505 0
M  V30 44 H -3.00312 3.38635 0.520983 0
M  V30 45 H -3.76837 1.77642 0.0178581 0
M  V30 46 H -4.82214 1.86455 2.37735 0
M  V30 47 H -3.88859 3.32746 2.64199 0
M  V30 48 H -2.68526 1.5958 3.71472 0
M  V30 49 H -1.78815 2.40315 2.43947 0
M  V30 50 H -2.01391 0.698634 0.851663 0
M  V30 51 H -1.10548 0.163598 2.24857 0
M  V30 52 H -7.29289 -1.47207 2.73676 0
M  V30 53 H -8.6124 -2.60847 1.03606 0
M  V30 54 H -8.00927 -2.81932 -0.622668 0
M  V30 55 H -8.05178 -0.460334 -0.924078 0
M  V30 56 H -8.58429 -0.191017 0.631881 0
M  V30 57 H -5.71628 -1.95001 -1.20909 0
M  V30 58 H 0.315188 -1.22736 -0.825804 0
M  V30 59 H 1.83126 -1.397 -4.76531 0
M  V30 60 H -0.512298 -1.55858 -5.6574 0
M  V30 61 H -2.35815 -1.54538 -4.04566 0
M  V30 62 H 2.70691 -2.28216 2.15247 0
M  V30 63 H 3.98412 -1.31959 2.86841 0
M  V30 64 H 1.80044 -0.446843 0.893655 0
M  V30 65 H 1.95872 -0.100082 2.60853 0
M  V30 66 H 3.77705 1.10655 0.488788 0
M  V30 67 H 3.8639 1.43177 2.29836 0
M  V30 68 H 1.65237 2.29369 2.27912 0
M  V30 69 H 1.46158 1.95281 0.516668 0
M  V30 70 H 3.92906 3.40109 1.50258 0
M  V30 71 H 3.0136 3.72979 -0.0201105 0
M  V30 72 H 2.37594 4.33178 1.59017 0
M  V30 73 H 8.6011 -0.914965 0.266835 0
M  V30 74 H 7.98288 0.72185 -2.97763 0
M  V30 75 H 9.19475 0.468656 -1.64004 0
M  V30 76 H 9.79416 -0.811004 -3.54814 0
M  V30 77 H 8.24538 -1.53192 -3.62179 0
M  V30 78 H 5.83753 -0.261046 -2.89225 0
M  V30 END ATOM
M  V30 BEGIN BOND
M  V30 1 1 1 2
M  V30 2 1 2 3
M  V30 3 1 3 4
M  V30 4 1 4 5
M  V30 5 1 5 6
M  V30 6 1 6 7
M  V30 7 2 7 8
M  V30 8 1 8 9
M  V30 9 1 8 10
M  V30 10 2 10 11
M  V30 11 1 11 12
M  V30 12 1 12 13
M  V30 13 1 11 14
M  V30 14 2 14 15
M  V30 15 1 15 16
M  V30 16 3 16 17
M  V30 17 1 17 18
M  V30 18 2 18 19
M  V30 19 1 19 20
M  V30 20 2 20 21
M  V30 21 1 21 22
M  V30 22 2 22 23
M  V30 23 1 20 24
M  V30 24 3 24 25
M  V30 25 1 25 26
M  V30 26 2 26 27
M  V30 27 1 27 28
M  V30 28 1 28 29
M  V30 29 1 29 30
M  V30 30 1 30 31
M  V30 31 1 31 32
M  V30 32 1 32 33
M  V30 33 1 27 34
M  V30 34 1 34 35
M  V30 35 2 34 36
M  V30 36 1 36 37
M  V30 37 1 37 38
M  V30 38 1 38 39
M  V30 39 2 37 40
M  V30 40 1 15 7
M  V30 41 1 23 18
M  V30 42 1 40 26
M  V30 43 1 1 41
M  V30 44 1 1 42
M  V30 45 1 1 43
M  V30 46 1 2 44
M  V30 47 1 2 45
M  V30 48 1 3 46
M  V30 49 1 3 47
M  V30 50 1 4 48
M  V30 51 1 4 49
M  V30 52 1 5 50
M  V30 53 1 5 51
M  V30 54 1 10 52
M  V30 55 1 12 53
M  V30 56 1 12 54
M  V30 57 1 13 55
M  V30 58 1 13 56
M  V30 59 1 14 57
M  V30 60 1 19 58
M  V30 61 1 21 59
M  V30 62 1 22 60
M  V30 63 1 23 61
M  V30 64 1 29 62
M  V30 65 1 29 63
M  V30 66 1 30 64
M  V30 67 1 30 65
M  V30 68 1 31 66
M  V30 69 1 31 67
M  V30 70 1 32 68
M  V30 71 1 32 69
M  V30 72 1 33 70
M  V30 73 1 33 71
M  V30 74 1 33 72
M  V30 75 1 36 73
M  V30 76 1 38 74
M  V30 77 1 38 75
M  V30 78 1 39 76
M  V30 79 1 39 77
M  V30 80 1 40 78
M  V30 END BOND
M  V30 END CTAB
M  END
