
     RDKit          3D

  0  0  0  0  0  0  0  0  0  0999 V3000
M  V30 BEGIN CTAB
M  V30 COUNTS 45 47 0 0 0
M  V30 BEGIN ATOM
M  V30 1 N 6.38289 0.398451 -0.092062 0
M  V30 2 C 5.14937 1.04422 0.10489 0 CFG=2
M  V30 3 C 4.24159 0.401109 1.13754 0
M  V30 4 C 3.08158 0.850173 0.239444 0 CFG=1
M  V30 5 C 4.05509 0.723379 -0.917967 0
M  V30 6 C 1.9617 -0.101616 0.183019 0
M  V30 7 C 0.641485 0.306239 0.440142 0
M  V30 8 C -0.387077 -0.59136 0.383329 0
M  V30 9 N -0.0315369 -1.87317 0.0661041 0
M  V30 10 C 1.20095 -2.27886 -0.179211 0
M  V30 11 N 2.19233 -1.37368 -0.115967 0
M  V30 12 N 1.54338 -3.62687 -0.508785 0
M  V30 13 N -1.7357 -0.293925 0.621465 0
M  V30 14 C -1.97436 1.07586 0.962157 0
M  V30 15 C -2.11708 1.98196 -0.238676 0
M  V30 16 C -3.12278 1.4528 -1.23234 0
M  V30 17 C -4.42959 1.05449 -0.632453 0
M  V30 18 C -4.57211 -0.458617 -0.666067 0
M  V30 19 C -4.06009 -1.07382 0.609101 0
M  V30 20 C -2.5918 -1.44894 0.467079 0
M  V30 21 H 7.00326 0.463462 0.677873 0
M  V30 22 H 6.29654 -0.504635 -0.544063 0
M  V30 23 H 5.16699 2.14249 0.278033 0
M  V30 24 H 4.2757 -0.695616 1.14365 0
M  V30 25 H 4.24378 0.898301 2.12645 0
M  V30 26 H 2.80317 1.89519 0.496071 0
M  V30 27 H 4.13421 -0.349136 -1.19885 0
M  V30 28 H 3.94508 1.44572 -1.72346 0
M  V30 29 H 0.468068 1.34585 0.682064 0
M  V30 30 H 1.34338 -4.34452 0.22081 0
M  V30 31 H 1.96662 -3.85473 -1.42948 0
M  V30 32 H -2.9374 1.15337 1.5402 0
M  V30 33 H -1.23095 1.53862 1.6379 0
M  V30 34 H -2.5167 2.94833 0.135998 0
M  V30 35 H -1.19698 2.18478 -0.775911 0
M  V30 36 H -3.29058 2.25491 -1.98225 0
M  V30 37 H -2.64866 0.614702 -1.78667 0
M  V30 38 H -5.29653 1.44724 -1.24168 0
M  V30 39 H -4.58761 1.44495 0.383764 0
M  V30 40 H -3.98197 -0.891919 -1.50578 0
M  V30 41 H -5.657 -0.72293 -0.73628 0
M  V30 42 H -4.23496 -0.4171 1.48915 0
M  V30 43 H -4.62734 -2.00472 0.814041 0
M  V30 44 H -2.39154 -2.24359 1.20911 0
M  V30 45 H -2.4768 -1.91686 -0.541421 0
M  V30 END ATOM
M  V30 BEGIN BOND
M  V30 1 1 1 2
M  V30 2 1 2 3
M  V30 3 1 3 4
M  V30 4 1 4 5
M  V30 5 1 4 6
M  V30 6 2 6 7
M  V30 7 1 7 8
M  V30 8 2 8 9
M  V30 9 1 9 10
M  V30 10 2 10 11
M  V30 11 1 10 12
M  V30 12 1 8 13
M  V30 13 1 13 14
M  V30 14 1 14 15
M  V30 15 1 15 16
M  V30 16 1 16 17
M  V30 17 1 17 18
M  V30 18 1 18 19
M  V30 19 1 19 20
M  V30 20 1 5 2
M  V30 21 1 11 6
M  V30 22 1 20 13
M  V30 23 1 1 21
M  V30 24 1 1 22
M  V30 25 1 2 23 CFG=1
M  V30 26 1 3 24
M  V30 27 1 3 25
M  V30 28 1 4 26 CFG=1
M  V30 29 1 5 27
M  V30 30 1 5 28
M  V30 31 1 7 29
M  V30 32 1 12 30
M  V30 33 1 12 31
M  V30 34 1 14 32
M  V30 35 1 14 33
M  V30 36 1 15 34
M  V30 37 1 15 35
M  V30 38 1 16 36
M  V30 39 1 16 37
M  V30 40 1 17 38
M  V30 41 1 17 39
M  V30 42 1 18 40
M  V30 43 1 18 41
M  V30 44 1 19 42
M  V30 45 1 19 43
M  V30 46 1 20 44
M  V30 47 1 20 45
M  V30 END BOND
M  V30 END CTAB
M  END
