
     RDKit          3D

  0  0  0  0  0  0  0  0  0  0999 V3000
M  V30 BEGIN CTAB
M  V30 COUNTS 26 27 0 0 0
M  V30 BEGIN ATOM
M  V30 1 N 4.04854 -0.370406 0.717549 0
M  V30 2 C 3.1657 -0.0686261 -0.358811 0
M  V30 3 C 2.74842 1.36854 -0.301606 0
M  V30 4 C 1.49516 1.48654 -0.722342 0
M  V30 5 C 0.956675 0.162605 -1.09714 0
M  V30 6 C 1.81239 -0.765512 -0.233137 0
M  V30 7 C -0.496441 0.0274345 -0.724496 0
M  V30 8 N -1.05143 0.246841 0.476426 0
M  V30 9 N -2.34089 0.0226526 0.399898 0
M  V30 10 C -2.62466 -0.343373 -0.853895 0
M  V30 11 N -1.48111 -0.339737 -1.54839 0
M  V30 12 N -3.94232 -0.677965 -1.34417 0
M  V30 13 C -3.35382 0.131024 1.45095 0
M  V30 14 H 4.75051 -1.09688 0.505515 0
M  V30 15 H 3.6372 -0.39465 1.65252 0
M  V30 16 H 3.61245 -0.347535 -1.31425 0
M  V30 17 H 3.34984 2.20351 0.0261352 0
M  V30 18 H 0.95868 2.419 -0.777971 0
M  V30 19 H 1.07764 -0.0890853 -2.15498 0
M  V30 20 H 1.45472 -0.660245 0.809258 0
M  V30 21 H 1.83013 -1.78827 -0.605609 0
M  V30 22 H -4.44948 -1.40013 -0.805564 0
M  V30 23 H -4.27921 -0.179039 -2.18589 0
M  V30 24 H -4.25109 0.669344 1.09563 0
M  V30 25 H -2.95572 0.668663 2.33128 0
M  V30 26 H -3.67189 -0.884697 1.74604 0
M  V30 END ATOM
M  V30 BEGIN BOND
M  V30 1 1 1 2
M  V30 2 1 2 3
M  V30 3 2 3 4
M  V30 4 1 4 5
M  V30 5 1 5 6
M  V30 6 1 5 7
M  V30 7 2 7 8
M  V30 8 1 8 9
M  V30 9 1 9 10
M  V30 10 2 10 11
M  V30 11 1 10 12
M  V30 12 1 9 13
M  V30 13 1 6 2
M  V30 14 1 11 7
M  V30 15 1 1 14
M  V30 16 1 1 15
M  V30 17 1 2 16
M  V30 18 1 3 17
M  V30 19 1 4 18
M  V30 20 1 5 19
M  V30 21 1 6 20
M  V30 22 1 6 21
M  V30 23 1 12 22
M  V30 24 1 12 23
M  V30 25 1 13 24
M  V30 26 1 13 25
M  V30 27 1 13 26
M  V30 END BOND
M  V30 END CTAB
M  END
