
     RDKit          3D

  0  0  0  0  0  0  0  0  0  0999 V3000
M  V30 BEGIN CTAB
M  V30 COUNTS 36 37 0 0 0
M  V30 BEGIN ATOM
M  V30 1 O -0.641642 -1.37606 1.72172 0
M  V30 2 C -0.421604 -2.13852 0.748436 0
M  V30 3 N 0.668266 -2.02416 -0.137466 0
M  V30 4 C 1.69911 -1.05845 -0.0834746 0
M  V30 5 C 2.03459 -0.299909 1.00954 0
M  V30 6 C 3.05811 0.660421 0.999711 0
M  V30 7 C 3.77927 0.873063 -0.149707 0
M  V30 8 C 3.45382 0.12158 -1.2482 0
M  V30 9 C 2.4549 -0.815767 -1.24172 0
M  V30 10 S 5.05627 2.06623 -0.143476 0
M  V30 11 O 6.14403 1.71344 -1.11401 0
M  V30 12 O 5.69267 2.20578 1.21636 0
M  V30 13 N 4.38556 3.59906 -0.559517 0
M  V30 14 C -1.4139 -3.2578 0.525772 0
M  V30 15 S -2.48966 -2.75116 -0.834822 0
M  V30 16 C -3.43453 -1.33669 -0.352429 0
M  V30 17 N -3.00676 -0.0664449 -0.576673 0
M  V30 18 C -3.69719 1.02419 -0.235646 0
M  V30 19 N -3.15939 2.30941 -0.520941 0
M  V30 20 C -4.91794 0.877651 0.38155 0
M  V30 21 C -5.34969 -0.41504 0.608717 0
M  V30 22 O -6.45332 -0.57797 1.16742 0
M  V30 23 N -4.61335 -1.48069 0.243867 0
M  V30 24 H 0.719052 -2.73605 -0.922477 0
M  V30 25 H 1.48542 -0.453174 1.94789 0
M  V30 26 H 3.26244 1.21792 1.90298 0
M  V30 27 H 4.02238 0.29327 -2.14761 0
M  V30 28 H 2.19926 -1.40756 -2.12091 0
M  V30 29 H 3.65487 3.53656 -1.28473 0
M  V30 30 H 5.10097 4.3216 -0.729852 0
M  V30 31 H -0.842964 -4.17159 0.329776 0
M  V30 32 H -2.04343 -3.39816 1.4565 0
M  V30 33 H -2.37987 2.44548 -1.20609 0
M  V30 34 H -3.50322 3.18189 -0.0715688 0
M  V30 35 H -5.48346 1.75495 0.65949 0
M  V30 36 H -5.01906 -2.43728 0.455685 0
M  V30 END ATOM
M  V30 BEGIN BOND
M  V30 1 2 1 2
M  V30 2 1 2 3
M  V30 3 1 3 4
M  V30 4 2 4 5
M  V30 5 1 5 6
M  V30 6 2 6 7
M  V30 7 1 7 8
M  V30 8 2 8 9
M  V30 9 1 7 10
M  V30 10 2 10 11
M  V30 11 2 10 12
M  V30 12 1 10 13
M  V30 13 1 2 14
M  V30 14 1 14 15
M  V30 15 1 15 16
M  V30 16 2 16 17
M  V30 17 1 17 18
M  V30 18 1 18 19
M  V30 19 2 18 20
M  V30 20 1 20 21
M  V30 21 2 21 22
M  V30 22 1 21 23
M  V30 23 1 9 4
M  V30 24 1 23 16
M  V30 25 1 3 24
M  V30 26 1 5 25
M  V30 27 1 6 26
M  V30 28 1 8 27
M  V30 29 1 9 28
M  V30 30 1 13 29
M  V30 31 1 13 30
M  V30 32 1 14 31
M  V30 33 1 14 32
M  V30 34 1 19 33
M  V30 35 1 19 34
M  V30 36 1 20 35
M  V30 37 1 23 36
M  V30 END BOND
M  V30 END CTAB
M  END
