
     RDKit          3D

  0  0  0  0  0  0  0  0  0  0999 V3000
M  V30 BEGIN CTAB
M  V30 COUNTS 29 31 0 0 0
M  V30 BEGIN ATOM
M  V30 1 N 5.32432 -0.471449 -0.0099166 0
M  V30 2 C 3.91328 -0.396837 0.00620183 0
M  V30 3 C 3.18014 -1.50427 0.396224 0
M  V30 4 C 1.80548 -1.46847 0.424181 0
M  V30 5 C 1.12509 -0.333856 0.0661187 0
M  V30 6 C 1.82259 0.791277 -0.328759 0
M  V30 7 C 3.19426 0.725171 -0.346538 0
M  V30 8 C 0.820292 1.80434 -0.637009 0
M  V30 9 O 1.09739 2.96046 -1.03001 0
M  V30 10 C -0.494024 1.22224 -0.405047 0
M  V30 11 C -0.318137 -0.077358 0.0225846 0
M  V30 12 C -1.4091 -0.872072 0.318855 0
M  V30 13 C -2.70218 -0.404094 0.200542 0
M  V30 14 C -2.86603 0.897148 -0.227987 0
M  V30 15 C -1.77632 1.69645 -0.525746 0
M  V30 16 N -4.18842 1.38975 -0.35367 0
M  V30 17 C -3.89131 -1.26408 0.521375 0
M  V30 18 H 5.87612 -0.126475 0.775637 0
M  V30 19 H 5.8015 -0.883593 -0.834217 0
M  V30 20 H 3.69435 -2.42552 0.688066 0
M  V30 21 H 1.26649 -2.34976 0.733272 0
M  V30 22 H 3.74795 1.59291 -0.651502 0
M  V30 23 H -1.29311 -1.90497 0.659435 0
M  V30 24 H -1.90749 2.72755 -0.865257 0
M  V30 25 H -4.82709 1.59755 0.42882 0
M  V30 26 H -4.5351 1.55253 -1.3291 0
M  V30 27 H -4.63806 -1.26134 -0.274483 0
M  V30 28 H -3.51067 -2.30228 0.629935 0
M  V30 29 H -4.31218 -0.910953 1.49801 0
M  V30 END ATOM
M  V30 BEGIN BOND
M  V30 1 1 1 2
M  V30 2 2 2 3
M  V30 3 1 3 4
M  V30 4 2 4 5
M  V30 5 1 5 6
M  V30 6 2 6 7
M  V30 7 1 6 8
M  V30 8 2 8 9
M  V30 9 1 8 10
M  V30 10 2 10 11
M  V30 11 1 11 12
M  V30 12 2 12 13
M  V30 13 1 13 14
M  V30 14 2 14 15
M  V30 15 1 14 16
M  V30 16 1 13 17
M  V30 17 1 7 2
M  V30 18 1 15 10
M  V30 19 1 11 5
M  V30 20 1 1 18
M  V30 21 1 1 19
M  V30 22 1 3 20
M  V30 23 1 4 21
M  V30 24 1 7 22
M  V30 25 1 12 23
M  V30 26 1 15 24
M  V30 27 1 16 25
M  V30 28 1 16 26
M  V30 29 1 17 27
M  V30 30 1 17 28
M  V30 31 1 17 29
M  V30 END BOND
M  V30 END CTAB
M  END
