
     RDKit          3D

  0  0  0  0  0  0  0  0  0  0999 V3000
M  V30 BEGIN CTAB
M  V30 COUNTS 27 28 0 0 0
M  V30 BEGIN ATOM
M  V30 1 C 3.99301 0.795601 0.399772 0
M  V30 2 C 3.33494 -0.144925 -0.557961 0
M  V30 3 C 1.85696 -0.234327 -0.297623 0
M  V30 4 C 1.35685 -1.17664 0.578962 0
M  V30 5 C -0.0104315 -1.20003 0.768505 0
M  V30 6 N -0.581356 -2.13483 1.64737 0
M  V30 7 C -0.856175 -0.312056 0.105561 0
M  V30 8 C -0.300241 0.609018 -0.759573 0
M  V30 9 N 1.02965 0.62318 -0.936507 0
M  V30 10 C -1.15944 1.48397 -1.40957 0
M  V30 11 C -2.52346 1.45097 -1.21212 0
M  V30 12 C -3.09322 0.524054 -0.340236 0
M  V30 13 C -2.22281 -0.336844 0.296236 0
M  V30 14 N -4.49383 0.488229 -0.135856 0
M  V30 15 H 3.24476 1.55939 0.690766 0
M  V30 16 H 4.36373 0.201551 1.26159 0
M  V30 17 H 4.83922 1.28521 -0.114117 0
M  V30 18 H 3.52548 0.203826 -1.59393 0
M  V30 19 H 3.81637 -1.13608 -0.468345 0
M  V30 20 H 2.0251 -1.85959 1.08664 0
M  V30 21 H -0.646297 -1.90813 2.66377 0
M  V30 22 H -0.932521 -3.04108 1.27635 0
M  V30 23 H -0.713231 2.19582 -2.08023 0
M  V30 24 H -3.17633 2.14486 -1.73114 0
M  V30 25 H -2.64138 -1.0623 0.975196 0
M  V30 26 H -5.04292 -0.386957 -0.20109 0
M  V30 27 H -4.99241 1.3681 0.0875704 0
M  V30 END ATOM
M  V30 BEGIN BOND
M  V30 1 1 1 2
M  V30 2 1 2 3
M  V30 3 2 3 4
M  V30 4 1 4 5
M  V30 5 1 5 6
M  V30 6 2 5 7
M  V30 7 1 7 8
M  V30 8 2 8 9
M  V30 9 1 8 10
M  V30 10 2 10 11
M  V30 11 1 11 12
M  V30 12 2 12 13
M  V30 13 1 12 14
M  V30 14 1 9 3
M  V30 15 1 13 7
M  V30 16 1 1 15
M  V30 17 1 1 16
M  V30 18 1 1 17
M  V30 19 1 2 18
M  V30 20 1 2 19
M  V30 21 1 4 20
M  V30 22 1 6 21
M  V30 23 1 6 22
M  V30 24 1 10 23
M  V30 25 1 11 24
M  V30 26 1 13 25
M  V30 27 1 14 26
M  V30 28 1 14 27
M  V30 END BOND
M  V30 END CTAB
M  END
