
     RDKit          3D

  0  0  0  0  0  0  0  0  0  0999 V3000
M  V30 BEGIN CTAB
M  V30 COUNTS 43 44 0 0 0
M  V30 BEGIN ATOM
M  V30 1 C 5.68152 1.66192 -1.3012 0
M  V30 2 O 5.08839 1.04336 -0.221027 0
M  V30 3 C 3.78462 0.599358 -0.0885688 0
M  V30 4 C 3.36008 -0.0115955 1.09578 0
M  V30 5 C 2.07303 -0.459754 1.24956 0
M  V30 6 C 1.09685 -0.343741 0.250203 0
M  V30 7 C 1.53148 0.257418 -0.902226 0
M  V30 8 C 2.84195 0.721241 -1.07727 0
M  V30 9 C -0.250795 -0.850648 0.508513 0
M  V30 10 N -0.383607 -0.762792 2.0117 0
M  V30 11 C -0.39919 -2.3478 0.288831 0
M  V30 12 C 0.528925 -3.10733 1.24676 0
M  V30 13 N -0.029703 -2.67794 -1.04696 0
M  V30 14 C -1.37089 -0.124887 -0.0755966 0
M  V30 15 C -1.73535 -0.15782 -1.39012 0
M  V30 16 C -2.80586 0.545442 -1.91522 0
M  V30 17 C -3.56524 1.32795 -1.10464 0
M  V30 18 O -4.66482 2.05921 -1.6064 0
M  V30 19 C -5.41561 2.85449 -0.71434 0
M  V30 20 C -3.2484 1.4031 0.231743 0
M  V30 21 C -2.17419 0.692061 0.735393 0
M  V30 22 H 6.07061 2.66029 -0.935411 0
M  V30 23 H 5.01318 1.804 -2.14105 0
M  V30 24 H 6.5722 1.03698 -1.60703 0
M  V30 25 H 4.10593 -0.104434 1.8694 0
M  V30 26 H 1.81237 -0.929298 2.20947 0
M  V30 27 H 0.842654 0.384905 -1.70945 0
M  V30 28 H 3.11686 1.19129 -2.02655 0
M  V30 29 H -0.104032 0.193588 2.29163 0
M  V30 30 H -1.31238 -1.05043 2.30609 0
M  V30 31 H -1.41699 -2.70833 0.493782 0
M  V30 32 H 0.332902 -2.81052 2.289 0
M  V30 33 H 1.56843 -3.0694 0.940228 0
M  V30 34 H 0.202403 -4.17648 1.16693 0
M  V30 35 H -0.763673 -3.25461 -1.54523 0
M  V30 36 H 0.891953 -3.12666 -1.06205 0
M  V30 37 H -1.14418 -0.780953 -2.08908 0
M  V30 38 H -3.02153 0.462615 -2.9578 0
M  V30 39 H -5.89097 2.19728 0.0620372 0
M  V30 40 H -6.21675 3.34286 -1.32499 0
M  V30 41 H -4.77818 3.60606 -0.237194 0
M  V30 42 H -3.86935 2.0355 0.863141 0
M  V30 43 H -1.95465 0.774503 1.77672 0
M  V30 END ATOM
M  V30 BEGIN BOND
M  V30 1 1 1 2
M  V30 2 1 2 3
M  V30 3 2 3 4
M  V30 4 1 4 5
M  V30 5 2 5 6
M  V30 6 1 6 7
M  V30 7 2 7 8
M  V30 8 1 6 9
M  V30 9 1 9 10
M  V30 10 1 9 11
M  V30 11 1 11 12
M  V30 12 1 11 13
M  V30 13 1 9 14
M  V30 14 2 14 15
M  V30 15 1 15 16
M  V30 16 2 16 17
M  V30 17 1 17 18
M  V30 18 1 18 19
M  V30 19 1 17 20
M  V30 20 2 20 21
M  V30 21 1 8 3
M  V30 22 1 21 14
M  V30 23 1 1 22
M  V30 24 1 1 23
M  V30 25 1 1 24
M  V30 26 1 4 25
M  V30 27 1 5 26
M  V30 28 1 7 27
M  V30 29 1 8 28
M  V30 30 1 10 29
M  V30 31 1 10 30
M  V30 32 1 11 31
M  V30 33 1 12 32
M  V30 34 1 12 33
M  V30 35 1 12 34
M  V30 36 1 13 35
M  V30 37 1 13 36
M  V30 38 1 15 37
M  V30 39 1 16 38
M  V30 40 1 19 39
M  V30 41 1 19 40
M  V30 42 1 19 41
M  V30 43 1 20 42
M  V30 44 1 21 43
M  V30 END BOND
M  V30 END CTAB
M  END
