
     RDKit          3D

  0  0  0  0  0  0  0  0  0  0999 V3000
M  V30 BEGIN CTAB
M  V30 COUNTS 45 46 0 0 0
M  V30 BEGIN ATOM
M  V30 1 N 7.60845 0.34958 0.262022 0
M  V30 2 C 6.26607 0.43954 0.745142 0
M  V30 3 C 5.28547 -0.0995457 -0.27111 0
M  V30 4 N 3.92223 0.00869851 0.257767 0
M  V30 5 C 2.81377 -0.433456 -0.513981 0
M  V30 6 O 3.03027 -0.918714 -1.65856 0
M  V30 7 C 1.4499 -0.308432 0.0524854 0
M  V30 8 C 1.40935 -1.11705 1.31665 0
M  V30 9 C 0.00294716 -1.11827 1.89072 0
M  V30 10 C -0.836508 -1.8126 0.799389 0
M  V30 11 N -0.905161 -0.874535 -0.265889 0
M  V30 12 C 0.429866 -0.748076 -0.958094 0
M  V30 13 C -1.94715 -0.0676039 -0.692862 0
M  V30 14 O -1.70097 0.643136 -1.77654 0
M  V30 15 C -3.26731 0.150794 -0.176815 0
M  V30 16 C -3.70896 -0.323721 1.02937 0
M  V30 17 C -4.99347 -0.0251938 1.4927 0
M  V30 18 C -5.84255 0.751174 0.751958 0
M  V30 19 C -5.39943 1.23155 -0.462876 0
M  V30 20 C -4.15585 0.94738 -0.921883 0
M  V30 21 N -3.75959 1.48487 -2.21255 0
M  V30 22 N -6.27132 2.05306 -1.26484 0 CHG=1
M  V30 23 O -7.13227 2.71735 -0.694271 0
M  V30 24 O -6.11259 2.065 -2.61109 0 CHG=-1
M  V30 25 H 7.70599 0.0722677 -0.726603 0
M  V30 26 H 8.17821 1.17757 0.483671 0
M  V30 27 H 6.03281 1.53411 0.857437 0
M  V30 28 H 6.09882 -0.0169019 1.73675 0
M  V30 29 H 5.53153 -1.14877 -0.539528 0
M  V30 30 H 5.32849 0.553701 -1.16461 0
M  V30 31 H 3.77269 0.413318 1.206 0
M  V30 32 H 1.27994 0.773867 0.230797 0
M  V30 33 H 2.11432 -0.74157 2.05588 0
M  V30 34 H 1.66182 -2.17426 1.02304 0
M  V30 35 H -0.331711 -0.064099 1.92494 0
M  V30 36 H -0.0682229 -1.64077 2.84146 0
M  V30 37 H -0.163299 -2.67587 0.390606 0
M  V30 38 H -1.70659 -2.31248 1.15449 0
M  V30 39 H 0.613196 -1.75429 -1.36137 0
M  V30 40 H 0.311342 -0.0192012 -1.7354 0
M  V30 41 H -3.11315 -0.913081 1.70182 0
M  V30 42 H -5.33954 -0.401765 2.44385 0
M  V30 43 H -6.83649 1.01756 1.04654 0
M  V30 44 H -3.35116 2.43167 -2.24806 0
M  V30 45 H -3.90421 0.894071 -3.04151 0
M  V30 END ATOM
M  V30 BEGIN BOND
M  V30 1 1 1 2
M  V30 2 1 2 3
M  V30 3 1 3 4
M  V30 4 1 4 5
M  V30 5 2 5 6
M  V30 6 1 5 7
M  V30 7 1 7 8
M  V30 8 1 8 9
M  V30 9 1 9 10
M  V30 10 1 10 11
M  V30 11 1 11 12
M  V30 12 1 11 13
M  V30 13 2 13 14
M  V30 14 1 13 15
M  V30 15 2 15 16
M  V30 16 1 16 17
M  V30 17 2 17 18
M  V30 18 1 18 19
M  V30 19 2 19 20
M  V30 20 1 20 21
M  V30 21 1 19 22
M  V30 22 2 22 23
M  V30 23 1 22 24
M  V30 24 1 12 7
M  V30 25 1 20 15
M  V30 26 1 1 25
M  V30 27 1 1 26
M  V30 28 1 2 27
M  V30 29 1 2 28
M  V30 30 1 3 29
M  V30 31 1 3 30
M  V30 32 1 4 31
M  V30 33 1 7 32
M  V30 34 1 8 33
M  V30 35 1 8 34
M  V30 36 1 9 35
M  V30 37 1 9 36
M  V30 38 1 10 37
M  V30 39 1 10 38
M  V30 40 1 12 39
M  V30 41 1 12 40
M  V30 42 1 16 41
M  V30 43 1 17 42
M  V30 44 1 18 43
M  V30 45 1 21 44
M  V30 46 1 21 45
M  V30 END BOND
M  V30 END CTAB
M  END
