
     RDKit          3D

  0  0  0  0  0  0  0  0  0  0999 V3000
M  V30 BEGIN CTAB
M  V30 COUNTS 35 36 0 0 0
M  V30 BEGIN ATOM
M  V30 1 N -3.09001 -2.0377 -0.235337 0
M  V30 2 C -2.28572 -0.862943 -0.297689 0
M  V30 3 C -1.2319 -0.935701 0.786537 0
M  V30 4 N -0.359916 0.234395 0.748235 0
M  V30 5 C -1.06233 1.42439 1.09873 0
M  V30 6 C -1.47998 2.3205 -0.0506668 0
M  V30 7 O -0.379665 3.17366 -0.280838 0
M  V30 8 C 0.382464 2.53307 -1.26219 0
M  V30 9 C 1.25905 1.46732 -0.700188 0
M  V30 10 C 0.603228 0.239364 -0.228942 0 CFG=1
M  V30 11 C 1.54761 -0.943182 -0.273567 0
M  V30 12 C 1.51122 -2.04169 -1.09212 0
M  V30 13 N 2.45985 -2.90504 -0.693612 0
M  V30 14 N 3.0684 -2.35986 0.340345 0
M  V30 15 C 2.56321 -1.15792 0.656482 0
M  V30 16 N 3.0112 -0.252819 1.64641 0
M  V30 17 H -3.33028 -2.49513 -1.08722 0
M  V30 18 H -3.65335 -2.20093 0.548999 0
M  V30 19 H -1.85658 -0.875128 -1.32576 0
M  V30 20 H -2.96031 -0.00142672 -0.1765 0
M  V30 21 H -0.688559 -1.8858 0.745332 0
M  V30 22 H -1.75967 -0.888753 1.75462 0
M  V30 23 H -0.598169 2.03694 1.89236 0
M  V30 24 H -2.05492 1.07213 1.53569 0
M  V30 25 H -2.36629 2.93707 0.195239 0
M  V30 26 H -1.64969 1.77946 -0.993538 0
M  V30 27 H 0.99537 3.34991 -1.7361 0
M  V30 28 H -0.290315 2.08092 -2.00817 0
M  V30 29 H 1.88901 1.97048 0.0875397 0
M  V30 30 H 1.93756 1.15351 -1.56142 0
M  V30 31 H -0.0578943 -0.0320105 -1.20464 0
M  V30 32 H 0.844524 -2.25102 -1.91852 0
M  V30 33 H 2.68238 -3.84412 -1.12619 0
M  V30 34 H 3.7701 0.413141 1.38018 0
M  V30 35 H 2.63035 -0.21508 2.59645 0
M  V30 END ATOM
M  V30 BEGIN BOND
M  V30 1 1 1 2
M  V30 2 1 2 3
M  V30 3 1 3 4
M  V30 4 1 4 5
M  V30 5 1 5 6
M  V30 6 1 6 7
M  V30 7 1 7 8
M  V30 8 1 8 9
M  V30 9 1 9 10
M  V30 10 1 10 11
M  V30 11 2 11 12
M  V30 12 1 12 13
M  V30 13 1 13 14
M  V30 14 2 14 15
M  V30 15 1 15 16
M  V30 16 1 10 4
M  V30 17 1 15 11
M  V30 18 1 1 17
M  V30 19 1 1 18
M  V30 20 1 2 19
M  V30 21 1 2 20
M  V30 22 1 3 21
M  V30 23 1 3 22
M  V30 24 1 5 23
M  V30 25 1 5 24
M  V30 26 1 6 25
M  V30 27 1 6 26
M  V30 28 1 8 27
M  V30 29 1 8 28
M  V30 30 1 9 29
M  V30 31 1 9 30
M  V30 32 1 10 31 CFG=3
M  V30 33 1 12 32
M  V30 34 1 13 33
M  V30 35 1 16 34
M  V30 36 1 16 35
M  V30 END BOND
M  V30 END CTAB
M  END
