
     RDKit          3D

  0  0  0  0  0  0  0  0  0  0999 V3000
M  V30 BEGIN CTAB
M  V30 COUNTS 48 51 0 0 0
M  V30 BEGIN ATOM
M  V30 1 C -1.00002 -2.69428 -0.0896144 0
M  V30 2 O -0.196341 -1.54256 0.0418652 0
M  V30 3 C -0.794758 -0.295987 0.0654057 0
M  V30 4 C -0.0140157 0.817286 0.192632 0
M  V30 5 C 1.43295 0.830599 0.309547 0
M  V30 6 C 2.14533 -0.466526 0.278105 0
M  V30 7 N 3.59726 -0.288145 0.407203 0
M  V30 8 C 4.14469 0.359117 -0.766087 0
M  V30 9 C 5.53948 -0.179263 -0.946697 0
M  V30 10 C 6.48812 -0.282498 0.182996 0
M  V30 11 N 6.29531 0.464645 1.40782 0
M  V30 12 C 5.60484 -1.42268 -0.155609 0
M  V30 13 C 4.25608 -1.57358 0.50965 0
M  V30 14 C -0.692555 2.04434 0.208675 0
M  V30 15 C -2.05925 2.12813 0.103163 0
M  V30 16 C -2.8301 1.00423 -0.0238716 0
M  V30 17 C -2.18927 -0.205448 -0.0419266 0
M  V30 18 C -4.30225 1.07196 -0.139242 0
M  V30 19 N -5.00769 -0.0748803 -0.261783 0
M  V30 20 C -6.33123 -0.134799 -0.372373 0
M  V30 21 N -7.06277 -1.33803 -0.500432 0
M  V30 22 C -7.07007 1.04583 -0.364736 0
M  V30 23 C -6.40955 2.24581 -0.24278 0
M  V30 24 C -5.02251 2.23374 -0.13121 0
M  V30 25 H -0.296882 -3.56071 -0.158474 0
M  V30 26 H -1.62511 -2.6874 -1.00144 0
M  V30 27 H -1.62014 -2.86349 0.825916 0
M  V30 28 H 1.66492 1.29928 1.31757 0
M  V30 29 H 1.86708 1.5163 -0.477192 0
M  V30 30 H 2.01902 -0.994186 -0.687249 0
M  V30 31 H 1.86854 -1.07761 1.16917 0
M  V30 32 H 4.23673 1.44456 -0.553579 0
M  V30 33 H 3.58195 0.136368 -1.68034 0
M  V30 34 H 5.93792 -0.180651 -1.99023 0
M  V30 35 H 7.55403 -0.405184 -0.099381 0
M  V30 36 H 5.59332 0.0555521 2.03827 0
M  V30 37 H 6.25552 1.4803 1.27448 0
M  V30 38 H 6.02271 -2.31767 -0.658802 0
M  V30 39 H 4.43279 -1.8952 1.54614 0
M  V30 40 H 3.7003 -2.38324 -0.022006 0
M  V30 41 H -0.0942279 2.93705 0.308508 0
M  V30 42 H -2.54344 3.09049 0.119483 0
M  V30 43 H -2.77247 -1.10321 -0.140865 0
M  V30 44 H -7.72967 -1.47414 -1.27705 0
M  V30 45 H -6.92644 -2.08991 0.193743 0
M  V30 46 H -8.15921 0.989475 -0.456277 0
M  V30 47 H -6.98065 3.16087 -0.236495 0
M  V30 48 H -4.50825 3.17535 -0.0358819 0
M  V30 END ATOM
M  V30 BEGIN BOND
M  V30 1 1 1 2
M  V30 2 1 2 3
M  V30 3 2 3 4
M  V30 4 1 4 5
M  V30 5 1 5 6
M  V30 6 1 6 7
M  V30 7 1 7 8
M  V30 8 1 8 9
M  V30 9 1 9 10
M  V30 10 1 10 11
M  V30 11 1 10 12
M  V30 12 1 12 13
M  V30 13 1 4 14
M  V30 14 2 14 15
M  V30 15 1 15 16
M  V30 16 2 16 17
M  V30 17 1 16 18
M  V30 18 2 18 19
M  V30 19 1 19 20
M  V30 20 1 20 21
M  V30 21 2 20 22
M  V30 22 1 22 23
M  V30 23 2 23 24
M  V30 24 1 17 3
M  V30 25 1 24 18
M  V30 26 1 13 7
M  V30 27 1 12 9
M  V30 28 1 1 25
M  V30 29 1 1 26
M  V30 30 1 1 27
M  V30 31 1 5 28
M  V30 32 1 5 29
M  V30 33 1 6 30
M  V30 34 1 6 31
M  V30 35 1 8 32
M  V30 36 1 8 33
M  V30 37 1 9 34
M  V30 38 1 10 35
M  V30 39 1 11 36
M  V30 40 1 11 37
M  V30 41 1 12 38
M  V30 42 1 13 39
M  V30 43 1 13 40
M  V30 44 1 14 41
M  V30 45 1 15 42
M  V30 46 1 17 43
M  V30 47 1 21 44
M  V30 48 1 21 45
M  V30 49 1 22 46
M  V30 50 1 23 47
M  V30 51 1 24 48
M  V30 END BOND
M  V30 END CTAB
M  END
