
     RDKit          3D

  0  0  0  0  0  0  0  0  0  0999 V3000
M  V30 BEGIN CTAB
M  V30 COUNTS 51 54 0 0 0
M  V30 BEGIN ATOM
M  V30 1 C -5.24135 -1.07477 0.825697 0
M  V30 2 C -3.82762 -1.48967 1.07599 0
M  V30 3 C -2.80095 -0.481982 0.575165 0
M  V30 4 C -3.04694 0.821522 1.29152 0
M  V30 5 C -2.76061 2.02252 0.424514 0
M  V30 6 C -3.61181 1.87298 -0.817656 0
M  V30 7 C -3.30475 0.609779 -1.53061 0
M  V30 8 N -2.68504 -0.425159 -0.808208 0
M  V30 9 C -1.66977 -1.15828 -1.46547 0
M  V30 10 C -0.282741 -0.821292 -1.09065 0
M  V30 11 N 0.34431 0.1793 -1.67626 0
M  V30 12 C 1.60309 0.551621 -1.40022 0
M  V30 13 N 2.09276 1.65368 -2.13446 0
M  V30 14 C 2.3438 -0.142248 -0.428166 0
M  V30 15 C 1.66649 -1.16001 0.148786 0
M  V30 16 N 0.379411 -1.50285 -0.166985 0
M  V30 17 S 2.78791 -1.81724 1.27749 0
M  V30 18 C 4.09878 -0.746364 0.960357 0
M  V30 19 C 3.61598 0.0641193 0.00454183 0
M  V30 20 C 4.61275 1.11098 -0.453332 0
M  V30 21 C 6.02448 0.508816 -0.350601 0
M  V30 22 C 6.29028 0.388282 1.14503 0
M  V30 23 C 5.43257 -0.738402 1.60685 0
M  V30 24 N -3.55282 -2.82989 0.599248 0
M  V30 25 H -5.61636 -0.480911 1.68826 0
M  V30 26 H -5.85938 -2.01355 0.839713 0
M  V30 27 H -5.43283 -0.603609 -0.13774 0
M  V30 28 H -3.69589 -1.54191 2.19715 0
M  V30 29 H -1.82446 -0.862777 1.00482 0
M  V30 30 H -4.11013 0.887784 1.59362 0
M  V30 31 H -2.44883 0.930158 2.21983 0
M  V30 32 H -1.70425 2.18733 0.221963 0
M  V30 33 H -3.14887 2.91658 0.965188 0
M  V30 34 H -4.67215 1.93181 -0.480853 0
M  V30 35 H -3.44155 2.7811 -1.44036 0
M  V30 36 H -4.23292 0.23952 -2.03156 0
M  V30 37 H -2.62665 0.877908 -2.39531 0
M  V30 38 H -1.82318 -1.04702 -2.57076 0
M  V30 39 H -1.86899 -2.25547 -1.28175 0
M  V30 40 H 2.19332 2.62391 -1.77101 0
M  V30 41 H 2.37871 1.48893 -3.12201 0
M  V30 42 H 4.52038 1.35207 -1.51237 0
M  V30 43 H 4.51905 1.98911 0.21788 0
M  V30 44 H 6.72842 1.2325 -0.766731 0
M  V30 45 H 5.97604 -0.457724 -0.8512 0
M  V30 46 H 6.04732 1.33866 1.6323 0
M  V30 47 H 7.36299 0.106179 1.23688 0
M  V30 48 H 5.96178 -1.68953 1.37317 0
M  V30 49 H 5.32301 -0.735983 2.73045 0
M  V30 50 H -4.34548 -3.424 0.851818 0
M  V30 51 H -2.66731 -3.16652 1.04043 0
M  V30 END ATOM
M  V30 BEGIN BOND
M  V30 1 1 1 2
M  V30 2 1 2 3
M  V30 3 1 3 4
M  V30 4 1 4 5
M  V30 5 1 5 6
M  V30 6 1 6 7
M  V30 7 1 7 8
M  V30 8 1 8 9
M  V30 9 1 9 10
M  V30 10 2 10 11
M  V30 11 1 11 12
M  V30 12 1 12 13
M  V30 13 2 12 14
M  V30 14 1 14 15
M  V30 15 2 15 16
M  V30 16 1 15 17
M  V30 17 1 17 18
M  V30 18 2 18 19
M  V30 19 1 19 20
M  V30 20 1 20 21
M  V30 21 1 21 22
M  V30 22 1 22 23
M  V30 23 1 2 24
M  V30 24 1 8 3
M  V30 25 1 16 10
M  V30 26 1 23 18
M  V30 27 1 19 14
M  V30 28 1 1 25
M  V30 29 1 1 26
M  V30 30 1 1 27
M  V30 31 1 2 28
M  V30 32 1 3 29
M  V30 33 1 4 30
M  V30 34 1 4 31
M  V30 35 1 5 32
M  V30 36 1 5 33
M  V30 37 1 6 34
M  V30 38 1 6 35
M  V30 39 1 7 36
M  V30 40 1 7 37
M  V30 41 1 9 38
M  V30 42 1 9 39
M  V30 43 1 13 40
M  V30 44 1 13 41
M  V30 45 1 20 42
M  V30 46 1 20 43
M  V30 47 1 21 44
M  V30 48 1 21 45
M  V30 49 1 22 46
M  V30 50 1 22 47
M  V30 51 1 23 48
M  V30 52 1 23 49
M  V30 53 1 24 50
M  V30 54 1 24 51
M  V30 END BOND
M  V30 END CTAB
M  END
