
     RDKit          3D

  0  0  0  0  0  0  0  0  0  0999 V3000
M  V30 BEGIN CTAB
M  V30 COUNTS 56 59 0 0 0
M  V30 BEGIN ATOM
M  V30 1 N 7.7349 -1.01777 0.413345 0
M  V30 2 C 7.35571 0.265617 -0.0110591 0 CFG=2
M  V30 3 C 6.41902 0.912925 0.981441 0
M  V30 4 C 5.34979 0.91994 -0.0872229 0 CFG=1
M  V30 5 C 6.32327 0.305126 -1.0964 0
M  V30 6 C 4.24197 -0.0254926 0.138516 0
M  V30 7 C 2.95098 0.441028 -0.0503578 0
M  V30 8 C 1.8332 -0.350863 0.131016 0
M  V30 9 N 2.11454 -1.63425 0.513204 0
M  V30 10 C 3.35199 -2.0857 0.695529 0
M  V30 11 N 4.43072 -1.3027 0.514953 0
M  V30 12 N 3.51353 -3.45635 1.09747 0
M  V30 13 N 0.504207 0.0918435 -0.0552684 0
M  V30 14 C -0.581359 -0.817126 0.206781 0
M  V30 15 C -1.75923 0.0721375 0.637598 0
M  V30 16 C -2.20911 0.756127 -0.610041 0
M  V30 17 C -1.11432 1.66413 -1.07563 0
M  V30 18 C 0.229288 1.41407 -0.49634 0
M  V30 19 C -3.52482 1.38866 -0.557422 0
M  V30 20 O -3.58505 2.63578 -0.711761 0
M  V30 21 N -4.74041 0.688206 -0.343052 0
M  V30 22 C -4.79359 -0.751537 -0.156702 0
M  V30 23 C -6.06143 -1.2369 -0.847415 0
M  V30 24 C -7.22324 -0.785381 0.0398191 0
M  V30 25 C -6.99345 0.61452 0.556698 0
M  V30 26 C -6.0135 1.38249 -0.297809 0
M  V30 27 H 7.64511 -1.17653 1.38128 0
M  V30 28 H 7.56693 -1.79519 -0.182181 0
M  V30 29 H 8.236 0.90123 -0.30297 0
M  V30 30 H 6.74922 1.94912 1.18798 0
M  V30 31 H 6.18811 0.298457 1.87441 0
M  V30 32 H 5.01052 1.93249 -0.383461 0
M  V30 33 H 6.02009 -0.655761 -1.51498 0
M  V30 34 H 6.53286 1.01982 -1.92518 0
M  V30 35 H 2.77055 1.48361 -0.357424 0
M  V30 36 H 3.39727 -3.78056 2.07142 0
M  V30 37 H 3.75927 -4.13836 0.356735 0
M  V30 38 H -0.847257 -1.35771 -0.733315 0
M  V30 39 H -0.343112 -1.55742 0.995345 0
M  V30 40 H -2.51095 -0.469139 1.20177 0
M  V30 41 H -1.32707 0.878324 1.30145 0
M  V30 42 H -2.28253 -0.0554257 -1.3959 0
M  V30 43 H -1.06398 1.71606 -2.19467 0
M  V30 44 H -1.41736 2.70856 -0.764854 0
M  V30 45 H 0.495607 2.15308 0.310588 0
M  V30 46 H 0.98622 1.64718 -1.30461 0
M  V30 47 H -4.90151 -0.943451 0.928031 0
M  V30 48 H -3.90646 -1.26918 -0.569647 0
M  V30 49 H -6.14769 -0.642028 -1.78901 0
M  V30 50 H -6.06553 -2.31602 -0.999476 0
M  V30 51 H -8.17775 -0.877472 -0.506202 0
M  V30 52 H -7.22522 -1.46417 0.917005 0
M  V30 53 H -6.689 0.626169 1.61561 0
M  V30 54 H -7.96865 1.14704 0.492742 0
M  V30 55 H -5.81739 2.34757 0.246053 0
M  V30 56 H -6.4199 1.60121 -1.29008 0
M  V30 END ATOM
M  V30 BEGIN BOND
M  V30 1 1 1 2
M  V30 2 1 2 3
M  V30 3 1 3 4
M  V30 4 1 4 5
M  V30 5 1 4 6
M  V30 6 2 6 7
M  V30 7 1 7 8
M  V30 8 2 8 9
M  V30 9 1 9 10
M  V30 10 2 10 11
M  V30 11 1 10 12
M  V30 12 1 8 13
M  V30 13 1 13 14
M  V30 14 1 14 15
M  V30 15 1 15 16
M  V30 16 1 16 17
M  V30 17 1 17 18
M  V30 18 1 16 19
M  V30 19 2 19 20
M  V30 20 1 19 21
M  V30 21 1 21 22
M  V30 22 1 22 23
M  V30 23 1 23 24
M  V30 24 1 24 25
M  V30 25 1 25 26
M  V30 26 1 5 2
M  V30 27 1 11 6
M  V30 28 1 18 13
M  V30 29 1 26 21
M  V30 30 1 1 27
M  V30 31 1 1 28
M  V30 32 1 2 29 CFG=3
M  V30 33 1 3 30
M  V30 34 1 3 31
M  V30 35 1 4 32 CFG=3
M  V30 36 1 5 33
M  V30 37 1 5 34
M  V30 38 1 7 35
M  V30 39 1 12 36
M  V30 40 1 12 37
M  V30 41 1 14 38
M  V30 42 1 14 39
M  V30 43 1 15 40
M  V30 44 1 15 41
M  V30 45 1 16 42
M  V30 46 1 17 43
M  V30 47 1 17 44
M  V30 48 1 18 45
M  V30 49 1 18 46
M  V30 50 1 22 47
M  V30 51 1 22 48
M  V30 52 1 23 49
M  V30 53 1 23 50
M  V30 54 1 24 51
M  V30 55 1 24 52
M  V30 56 1 25 53
M  V30 57 1 25 54
M  V30 58 1 26 55
M  V30 59 1 26 56
M  V30 END BOND
M  V30 END CTAB
M  END
