
     RDKit          3D

  0  0  0  0  0  0  0  0  0  0999 V3000
M  V30 BEGIN CTAB
M  V30 COUNTS 52 54 0 0 0
M  V30 BEGIN ATOM
M  V30 1 C -9.14349 -1.50611 0.219655 0
M  V30 2 O -7.76182 -1.2466 -0.00967505 0
M  V30 3 C -7.15792 -1.42533 -1.22341 0
M  V30 4 O -7.82022 -1.8368 -2.20765 0
M  V30 5 C -5.73739 -1.13705 -1.37737 0
M  V30 6 C -4.99888 -1.27426 -2.55166 0
M  V30 7 N -3.75936 -0.908645 -2.25128 0
M  V30 8 N -3.66932 -0.549963 -0.963541 0
M  V30 9 C -4.87851 -0.681586 -0.398795 0
M  V30 10 N -5.28541 -0.427084 0.930191 0
M  V30 11 C -2.5159 -0.101272 -0.270647 0
M  V30 12 C -2.22461 -0.555932 0.993093 0
M  V30 13 C -1.08269 -0.0761529 1.61096 0
M  V30 14 C -0.223251 0.838691 1.01448 0
M  V30 15 C -0.530346 1.27476 -0.234923 0
M  V30 16 C -1.67473 0.804629 -0.874592 0
M  V30 17 C 0.941203 1.26572 1.76378 0
M  V30 18 O 1.16229 0.811363 2.9318 0
M  V30 19 N 1.89878 2.19228 1.27766 0
M  V30 20 C 3.05392 2.61933 2.01264 0
M  V30 21 C 4.02428 1.55456 2.38513 0
M  V30 22 C 4.62549 0.830451 1.2389 0
M  V30 23 C 4.09662 -0.327765 0.72123 0
M  V30 24 C 4.69957 -0.969934 -0.367233 0
M  V30 25 C 5.83921 -0.477321 -0.964687 0
M  V30 26 C 6.3753 0.683825 -0.450586 0
M  V30 27 C 5.78156 1.31576 0.620702 0
M  V30 28 S 6.59687 -1.27623 -2.32559 0
M  V30 29 O 6.37491 -2.77637 -2.27252 0
M  V30 30 O 8.09014 -1.07658 -2.24411 0
M  V30 31 N 5.95382 -0.68603 -3.79689 0
M  V30 32 H -9.71197 -0.592868 0.451821 0
M  V30 33 H -9.17345 -2.18904 1.11404 0
M  V30 34 H -9.551 -2.03836 -0.646678 0
M  V30 35 H -5.40545 -1.61878 -3.50628 0
M  V30 36 H -5.55169 -1.24302 1.53477 0
M  V30 37 H -5.34003 0.530327 1.35775 0
M  V30 38 H -2.87666 -1.26819 1.48048 0
M  V30 39 H -0.881329 -0.45837 2.61476 0
M  V30 40 H 0.0930624 1.9766 -0.740894 0
M  V30 41 H -1.8803 1.17935 -1.8697 0
M  V30 42 H 1.71504 2.5737 0.301074 0
M  V30 43 H 3.55586 3.46913 1.47932 0
M  V30 44 H 2.65806 3.06926 2.96909 0
M  V30 45 H 4.8782 2.07293 2.91572 0
M  V30 46 H 3.60716 0.868217 3.14079 0
M  V30 47 H 3.20999 -0.769645 1.1441 0
M  V30 48 H 4.28264 -1.88242 -0.775142 0
M  V30 49 H 7.2819 1.09011 -0.91339 0
M  V30 50 H 6.20113 2.23345 1.03071 0
M  V30 51 H 5.1666 -1.27387 -4.16909 0
M  V30 52 H 6.67213 -0.602878 -4.55471 0
M  V30 END ATOM
M  V30 BEGIN BOND
M  V30 1 1 1 2
M  V30 2 1 2 3
M  V30 3 2 3 4
M  V30 4 1 3 5
M  V30 5 1 5 6
M  V30 6 2 6 7
M  V30 7 1 7 8
M  V30 8 1 8 9
M  V30 9 1 9 10
M  V30 10 1 8 11
M  V30 11 2 11 12
M  V30 12 1 12 13
M  V30 13 2 13 14
M  V30 14 1 14 15
M  V30 15 2 15 16
M  V30 16 1 14 17
M  V30 17 2 17 18
M  V30 18 1 17 19
M  V30 19 1 19 20
M  V30 20 1 20 21
M  V30 21 1 21 22
M  V30 22 2 22 23
M  V30 23 1 23 24
M  V30 24 2 24 25
M  V30 25 1 25 26
M  V30 26 2 26 27
M  V30 27 1 25 28
M  V30 28 2 28 29
M  V30 29 2 28 30
M  V30 30 1 28 31
M  V30 31 2 9 5
M  V30 32 1 16 11
M  V30 33 1 27 22
M  V30 34 1 1 32
M  V30 35 1 1 33
M  V30 36 1 1 34
M  V30 37 1 6 35
M  V30 38 1 10 36
M  V30 39 1 10 37
M  V30 40 1 12 38
M  V30 41 1 13 39
M  V30 42 1 15 40
M  V30 43 1 16 41
M  V30 44 1 19 42
M  V30 45 1 20 43
M  V30 46 1 20 44
M  V30 47 1 21 45
M  V30 48 1 21 46
M  V30 49 1 23 47
M  V30 50 1 24 48
M  V30 51 1 26 49
M  V30 52 1 27 50
M  V30 53 1 31 51
M  V30 54 1 31 52
M  V30 END BOND
M  V30 END CTAB
M  END
