
     RDKit          3D

  0  0  0  0  0  0  0  0  0  0999 V3000
M  V30 BEGIN CTAB
M  V30 COUNTS 49 50 0 0 0
M  V30 BEGIN ATOM
M  V30 1 C 0.69749 -1.02682 3.0742 0
M  V30 2 N 0.591397 -0.172724 1.86111 0
M  V30 3 C -0.741171 -0.30352 1.34358 0
M  V30 4 C -1.04033 0.40041 0.0851405 0
M  V30 5 O -2.3791 0.177152 -0.290678 0
M  V30 6 C -3.5034 0.540241 0.390724 0
M  V30 7 O -3.37707 1.14749 1.48315 0
M  V30 8 C -4.86207 0.249707 -0.103684 0
M  V30 9 C -5.95171 0.656809 0.629534 0
M  V30 10 C -7.25201 0.419141 0.224586 0
M  V30 11 C -7.49339 -0.246479 -0.950161 0
M  V30 12 N -8.84548 -0.470188 -1.32844 0
M  V30 13 C -6.40292 -0.655278 -1.68631 0
M  V30 14 C -5.10581 -0.413112 -1.27335 0
M  V30 15 C 1.05253 1.13488 2.12747 0
M  V30 16 C 2.52832 1.22268 2.27569 0
M  V30 17 O 3.35236 0.911266 1.25971 0
M  V30 18 C 3.6975 -0.0925775 0.464101 0
M  V30 19 O 3.13171 -1.1892 0.614984 0
M  V30 20 C 4.71894 -0.00858599 -0.607652 0
M  V30 21 C 5.39074 1.16348 -0.842091 0
M  V30 22 C 6.32991 1.18738 -1.86231 0
M  V30 23 C 6.57895 0.0596605 -2.61889 0
M  V30 24 N 7.53499 0.0773548 -3.66752 0
M  V30 25 C 5.90202 -1.13583 -2.38834 0
M  V30 26 C 4.96987 -1.12551 -1.3616 0
M  V30 27 H 0.271798 -0.534744 3.94694 0
M  V30 28 H 1.78281 -1.23312 3.1724 0
M  V30 29 H 0.211614 -1.9822 2.79476 0
M  V30 30 H -0.885064 -1.40875 1.14871 0
M  V30 31 H -1.43427 -0.0834836 2.17391 0
M  V30 32 H -0.777491 1.47821 0.0406869 0
M  V30 33 H -0.429021 -0.0528448 -0.757843 0
M  V30 34 H -5.78364 1.1836 1.55799 0
M  V30 35 H -8.09881 0.749223 0.818313 0
M  V30 36 H -9.25657 -0.0814509 -2.20416 0
M  V30 37 H -9.43256 -1.04931 -0.6902 0
M  V30 38 H -6.62611 -1.18764 -2.62498 0
M  V30 39 H -4.29726 -0.759368 -1.89549 0
M  V30 40 H 0.592626 1.43059 3.12735 0
M  V30 41 H 0.681452 1.82561 1.3372 0
M  V30 42 H 2.81138 0.737799 3.27287 0
M  V30 43 H 2.74826 2.31889 2.53027 0
M  V30 44 H 5.16315 2.00713 -0.23166 0
M  V30 45 H 6.88001 2.09878 -2.07536 0
M  V30 46 H 8.16487 -0.741882 -3.79447 0
M  V30 47 H 7.64976 0.872621 -4.33164 0
M  V30 48 H 6.09767 -2.01846 -2.98192 0
M  V30 49 H 4.44315 -2.06472 -1.18663 0
M  V30 END ATOM
M  V30 BEGIN BOND
M  V30 1 1 1 2
M  V30 2 1 2 3
M  V30 3 1 3 4
M  V30 4 1 4 5
M  V30 5 1 5 6
M  V30 6 2 6 7
M  V30 7 1 6 8
M  V30 8 2 8 9
M  V30 9 1 9 10
M  V30 10 2 10 11
M  V30 11 1 11 12
M  V30 12 1 11 13
M  V30 13 2 13 14
M  V30 14 1 2 15
M  V30 15 1 15 16
M  V30 16 1 16 17
M  V30 17 1 17 18
M  V30 18 2 18 19
M  V30 19 1 18 20
M  V30 20 2 20 21
M  V30 21 1 21 22
M  V30 22 2 22 23
M  V30 23 1 23 24
M  V30 24 1 23 25
M  V30 25 2 25 26
M  V30 26 1 14 8
M  V30 27 1 26 20
M  V30 28 1 1 27
M  V30 29 1 1 28
M  V30 30 1 1 29
M  V30 31 1 3 30
M  V30 32 1 3 31
M  V30 33 1 4 32
M  V30 34 1 4 33
M  V30 35 1 9 34
M  V30 36 1 10 35
M  V30 37 1 12 36
M  V30 38 1 12 37
M  V30 39 1 13 38
M  V30 40 1 14 39
M  V30 41 1 15 40
M  V30 42 1 15 41
M  V30 43 1 16 42
M  V30 44 1 16 43
M  V30 45 1 21 44
M  V30 46 1 22 45
M  V30 47 1 24 46
M  V30 48 1 24 47
M  V30 49 1 25 48
M  V30 50 1 26 49
M  V30 END BOND
M  V30 END CTAB
M  END
