
     RDKit          3D

  0  0  0  0  0  0  0  0  0  0999 V3000
M  V30 BEGIN CTAB
M  V30 COUNTS 56 57 0 0 0
M  V30 BEGIN ATOM
M  V30 1 C -8.00628 1.58838 1.21664 0
M  V30 2 C -7.63078 2.42827 0.0169693 0
M  V30 3 C -6.18523 2.1467 -0.321567 0
M  V30 4 C -6.03792 0.68123 -0.635159 0
M  V30 5 C -4.60135 0.398172 -0.991231 0
M  V30 6 N -3.58081 1.26783 -1.07597 0
M  V30 7 N -2.50833 0.593386 -1.41509 0
M  V30 8 C -2.74627 -0.716301 -1.56971 0
M  V30 9 N -4.10436 -0.80705 -1.28866 0
M  V30 10 N -4.82069 -1.99724 -1.323 0
M  V30 11 S -1.77337 -2.08911 -1.99931 0
M  V30 12 C -0.972033 -3.12283 -0.893436 0
M  V30 13 C 0.289375 -2.88311 -0.21079 0
M  V30 14 C 0.645911 -1.84653 0.732769 0
M  V30 15 C 0.669961 -0.409215 0.327592 0
M  V30 16 S 1.27156 0.636999 1.72423 0
M  V30 17 C 2.97449 0.197603 2.05631 0
M  V30 18 N 3.39743 -0.737935 2.91748 0
M  V30 19 N 4.69667 -0.806097 2.91055 0
M  V30 20 C 5.18252 0.104391 2.02201 0
M  V30 21 N 4.09775 0.70915 1.51179 0
M  V30 22 N 4.09153 1.7484 0.576059 0
M  V30 23 C 6.61482 0.29073 1.81777 0
M  V30 24 C 7.02622 0.968076 0.561493 0
M  V30 25 C 6.64782 0.103965 -0.618829 0
M  V30 26 C 7.01457 0.796003 -1.9307 0
M  V30 27 H -8.20527 0.542792 0.899082 0
M  V30 28 H -7.13813 1.57541 1.90565 0
M  V30 29 H -8.93664 1.95584 1.70308 0
M  V30 30 H -8.25062 2.08466 -0.84767 0
M  V30 31 H -7.78721 3.51197 0.215127 0
M  V30 32 H -5.56307 2.33273 0.604416 0
M  V30 33 H -5.85123 2.79248 -1.13358 0
M  V30 34 H -6.37504 0.0307831 0.177547 0
M  V30 35 H -6.62237 0.460747 -1.56274 0
M  V30 36 H -4.99036 -2.54477 -2.21173 0
M  V30 37 H -5.24582 -2.44217 -0.47539 0
M  V30 38 H -0.782797 -4.1407 -1.46646 0
M  V30 39 H -1.731 -3.57797 -0.106547 0
M  V30 40 H 1.09193 -2.84751 -1.09121 0
M  V30 41 H 0.675166 -3.92315 0.214522 0
M  V30 42 H 1.67493 -2.09023 1.1782 0
M  V30 43 H -0.0220992 -1.96969 1.65153 0
M  V30 44 H 1.28307 -0.271218 -0.567095 0
M  V30 45 H -0.384889 -0.0952383 0.236884 0
M  V30 46 H 4.34126 2.70407 0.923494 0
M  V30 47 H 3.85951 1.63399 -0.418324 0
M  V30 48 H 7.19508 -0.661815 1.99844 0
M  V30 49 H 6.96682 0.957553 2.66462 0
M  V30 50 H 6.66208 2.00167 0.462708 0
M  V30 51 H 8.15132 1.05724 0.501478 0
M  V30 52 H 7.39025 -0.779833 -0.598128 0
M  V30 53 H 5.68688 -0.368539 -0.603378 0
M  V30 54 H 8.06143 1.12363 -1.869 0
M  V30 55 H 6.87415 0.0570979 -2.73246 0
M  V30 56 H 6.31947 1.64632 -2.09208 0
M  V30 END ATOM
M  V30 BEGIN BOND
M  V30 1 1 1 2
M  V30 2 1 2 3
M  V30 3 1 3 4
M  V30 4 1 4 5
M  V30 5 2 5 6
M  V30 6 1 6 7
M  V30 7 2 7 8
M  V30 8 1 8 9
M  V30 9 1 9 10
M  V30 10 1 8 11
M  V30 11 1 11 12
M  V30 12 1 12 13
M  V30 13 1 13 14
M  V30 14 1 14 15
M  V30 15 1 15 16
M  V30 16 1 16 17
M  V30 17 2 17 18
M  V30 18 1 18 19
M  V30 19 2 19 20
M  V30 20 1 20 21
M  V30 21 1 21 22
M  V30 22 1 20 23
M  V30 23 1 23 24
M  V30 24 1 24 25
M  V30 25 1 25 26
M  V30 26 1 9 5
M  V30 27 1 21 17
M  V30 28 1 1 27
M  V30 29 1 1 28
M  V30 30 1 1 29
M  V30 31 1 2 30
M  V30 32 1 2 31
M  V30 33 1 3 32
M  V30 34 1 3 33
M  V30 35 1 4 34
M  V30 36 1 4 35
M  V30 37 1 10 36
M  V30 38 1 10 37
M  V30 39 1 12 38
M  V30 40 1 12 39
M  V30 41 1 13 40
M  V30 42 1 13 41
M  V30 43 1 14 42
M  V30 44 1 14 43
M  V30 45 1 15 44
M  V30 46 1 15 45
M  V30 47 1 22 46
M  V30 48 1 22 47
M  V30 49 1 23 48
M  V30 50 1 23 49
M  V30 51 1 24 50
M  V30 52 1 24 51
M  V30 53 1 25 52
M  V30 54 1 25 53
M  V30 55 1 26 54
M  V30 56 1 26 55
M  V30 57 1 26 56
M  V30 END BOND
M  V30 END CTAB
M  END
