
     RDKit          3D

  0  0  0  0  0  0  0  0  0  0999 V3000
M  V30 BEGIN CTAB
M  V30 COUNTS 120 122 0 0 0
M  V30 BEGIN ATOM
M  V30 1 C -2.11088 -2.54879 2.71155 0
M  V30 2 C -2.42782 -1.07897 2.82741 0
M  V30 3 C -1.61871 -0.259892 1.89898 0
M  V30 4 C -1.88647 -0.576582 0.391306 0
M  V30 5 C -3.28815 -0.27853 0.117688 0
M  V30 6 O -3.64003 0.915415 0.0395296 0
M  V30 7 N -4.20465 -1.34578 -0.0332527 0
M  V30 8 C -5.60604 -1.3342 -0.223917 0
M  V30 9 C -6.3292 -0.352317 0.614727 0
M  V30 10 O -5.82884 0.337927 1.4763 0
M  V30 11 N -7.78792 -0.180169 0.411341 0
M  V30 12 C -8.44731 0.787076 1.31057 0
M  V30 13 C -9.43475 -0.0449433 2.05529 0
M  V30 14 O -9.63638 -1.24488 1.83173 0
M  V30 15 O -10.2246 0.53714 3.10556 0
M  V30 16 C -9.26787 1.80114 0.572894 0
M  V30 17 C -8.66063 2.70521 -0.369649 0
M  V30 18 C -8.59645 2.42071 -1.70557 0
M  V30 19 C -8.03024 3.27597 -2.64842 0
M  V30 20 C -7.50614 4.48801 -2.19558 0
M  V30 21 C -7.57164 4.77268 -0.857513 0
M  V30 22 C -8.12394 3.93393 0.0706988 0
M  V30 23 C -6.11262 -1.42148 -1.60012 0
M  V30 24 C -5.71178 -2.65517 -2.37559 0
M  V30 25 C -5.97513 -3.92873 -1.66016 0
M  V30 26 N -7.24005 -4.20061 -1.1307 0
M  V30 27 C -8.50292 -4.4221 -1.65793 0
M  V30 28 N -9.08495 -3.64937 -2.38452 0
M  V30 29 N -9.20254 -5.65276 -1.28885 0
M  V30 30 N -0.943758 0.308661 -0.286652 0
M  V30 31 C 0.412144 -0.0348285 -0.417756 0
M  V30 32 O 0.706478 -1.20506 0.0847597 0
M  V30 33 C 1.4758 0.680462 -0.997126 0
M  V30 34 C 1.43887 2.07486 -1.46162 0
M  V30 35 C 1.23989 3.14734 -0.467224 0
M  V30 36 C 2.37345 3.57971 0.245109 0
M  V30 37 C 2.34895 4.57298 1.15905 0
M  V30 38 C 1.13161 5.19418 1.39925 0
M  V30 39 C 0.00335449 4.79079 0.71348 0
M  V30 40 C 0.0265879 3.77787 -0.219756 0
M  V30 41 N 2.46117 -0.133748 -1.71598 0
M  V30 42 C 3.76769 -0.297679 -1.20466 0
M  V30 43 O 4.05012 0.252221 -0.123325 0
M  V30 44 C 4.78665 -1.08479 -1.91997 0
M  V30 45 N 6.08783 -0.955888 -1.20494 0
M  V30 46 C 6.71265 0.295959 -1.14018 0
M  V30 47 O 6.05335 1.24699 -1.76045 0
M  V30 48 C 7.9259 0.736818 -0.538203 0
M  V30 49 N 8.7608 -0.0760202 0.227419 0
M  V30 50 C 9.44776 -1.27964 -0.12126 0
M  V30 51 O 9.33802 -1.75589 -1.24249 0
M  V30 52 C 10.2843 -1.8677 0.97634 0
M  V30 53 C 11.6589 -2.25891 0.541838 0
M  V30 54 C 12.4121 -1.13535 -0.0562975 0
M  V30 55 C 12.9609 -0.162716 0.719725 0
M  V30 56 C 13.6891 0.861189 0.0823443 0
M  V30 57 C 13.834 0.8523 -1.30409 0
M  V30 58 C 13.2657 -0.146216 -2.02763 0
M  V30 59 C 12.5467 -1.15201 -1.43425 0
M  V30 60 O 14.5664 1.88575 -1.86304 0
M  V30 61 N 10.2748 -1.04195 2.17921 0
M  V30 62 C -2.10196 -0.637291 4.25455 0
M  V30 63 H -2.73581 -3.07664 1.99065 0
M  V30 64 H -1.02534 -2.62691 2.43454 0
M  V30 65 H -2.19195 -2.98898 3.73095 0
M  V30 66 H -3.54145 -0.924842 2.65729 0
M  V30 67 H -0.554067 -0.492974 2.05443 0
M  V30 68 H -1.87124 0.819197 2.01012 0
M  V30 69 H -1.57289 -1.61836 0.302218 0
M  V30 70 H -3.7867 -2.36203 -0.00304023 0
M  V30 71 H -5.97675 -2.32224 0.364466 0
M  V30 72 H -8.26381 -0.697942 -0.265467 0
M  V30 73 H -7.73092 1.15658 2.02917 0
M  V30 74 H -9.75961 0.474077 4.0368 0
M  V30 75 H -10.0287 1.16432 -0.0100207 0
M  V30 76 H -9.93039 2.33026 1.30836 0
M  V30 77 H -8.98865 1.49602 -2.14716 0
M  V30 78 H -7.97669 3.06414 -3.69184 0
M  V30 79 H -7.05635 5.19034 -2.89875 0
M  V30 80 H -7.15845 5.74551 -0.557906 0
M  V30 81 H -8.16368 4.20023 1.11168 0
M  V30 82 H -7.17719 -1.16936 -1.74314 0
M  V30 83 H -5.59595 -0.5698 -2.17316 0
M  V30 84 H -4.61505 -2.62314 -2.55995 0
M  V30 85 H -6.21289 -2.59966 -3.36386 0
M  V30 86 H -5.12418 -4.09587 -0.937977 0
M  V30 87 H -5.76526 -4.7524 -2.43796 0
M  V30 88 H -7.24683 -4.26942 -0.0240893 0
M  V30 89 H -9.63872 -3.13461 -2.95435 0
M  V30 90 H -9.88781 -5.50451 -0.512649 0
M  V30 91 H -9.02233 -6.53428 -1.75174 0
M  V30 92 H -1.30853 1.19463 -0.726623 0
M  V30 93 H 2.1571 0.905153 0.040164 0
M  V30 94 H 2.44499 2.31465 -1.94992 0
M  V30 95 H 0.641954 2.24486 -2.25164 0
M  V30 96 H 3.30806 3.06444 0.0206803 0
M  V30 97 H 3.28063 4.86931 1.66155 0
M  V30 98 H 1.06398 5.97723 2.12267 0
M  V30 99 H -0.949497 5.29249 0.907136 0
M  V30 100 H -0.877929 3.46661 -0.761389 0
M  V30 101 H 2.20356 -0.565384 -2.60294 0
M  V30 102 H 4.9702 -0.510088 -2.88873 0
M  V30 103 H 4.55419 -2.12296 -2.09639 0
M  V30 104 H 6.47505 -1.80698 -0.792682 0
M  V30 105 H 8.61908 1.11337 -1.40888 0
M  V30 106 H 7.74872 1.71914 0.0162079 0
M  V30 107 H 8.92715 0.228326 1.23166 0
M  V30 108 H 9.73977 -2.81745 1.27153 0
M  V30 109 H 11.5943 -3.15524 -0.088698 0
M  V30 110 H 12.1952 -2.59368 1.48128 0
M  V30 111 H 12.8853 -0.102343 1.79987 0
M  V30 112 H 14.1402 1.65941 0.677665 0
M  V30 113 H 13.397 -0.145443 -3.11851 0
M  V30 114 H 12.1191 -1.93463 -1.99734 0
M  V30 115 H 14.02 2.72885 -2.1392 0
M  V30 116 H 9.31375 -1.12805 2.62955 0
M  V30 117 H 10.921 -1.47252 2.88517 0
M  V30 118 H -2.90315 -0.897216 4.96539 0
M  V30 119 H -1.89018 0.475531 4.24474 0
M  V30 120 H -1.12913 -1.11106 4.53433 0
M  V30 END ATOM
M  V30 BEGIN BOND
M  V30 1 1 1 2
M  V30 2 1 2 3
M  V30 3 1 3 4
M  V30 4 1 4 5
M  V30 5 2 5 6
M  V30 6 1 5 7
M  V30 7 1 7 8
M  V30 8 1 8 9
M  V30 9 2 9 10
M  V30 10 1 9 11
M  V30 11 1 11 12
M  V30 12 1 12 13
M  V30 13 2 13 14
M  V30 14 1 13 15
M  V30 15 1 12 16
M  V30 16 1 16 17
M  V30 17 2 17 18
M  V30 18 1 18 19
M  V30 19 2 19 20
M  V30 20 1 20 21
M  V30 21 2 21 22
M  V30 22 1 8 23
M  V30 23 1 23 24
M  V30 24 1 24 25
M  V30 25 1 25 26
M  V30 26 1 26 27
M  V30 27 2 27 28 CFG=2
M  V30 28 1 27 29
M  V30 29 1 4 30
M  V30 30 1 30 31
M  V30 31 2 31 32
M  V30 32 1 31 33
M  V30 33 1 33 34
M  V30 34 1 34 35
M  V30 35 2 35 36
M  V30 36 1 36 37
M  V30 37 2 37 38
M  V30 38 1 38 39
M  V30 39 2 39 40
M  V30 40 1 33 41
M  V30 41 1 41 42
M  V30 42 2 42 43
M  V30 43 1 42 44
M  V30 44 1 44 45
M  V30 45 1 45 46
M  V30 46 2 46 47
M  V30 47 1 46 48
M  V30 48 1 48 49
M  V30 49 1 49 50
M  V30 50 2 50 51
M  V30 51 1 50 52
M  V30 52 1 52 53
M  V30 53 1 53 54
M  V30 54 2 54 55
M  V30 55 1 55 56
M  V30 56 2 56 57
M  V30 57 1 57 58
M  V30 58 2 58 59
M  V30 59 1 57 60
M  V30 60 1 52 61
M  V30 61 1 2 62
M  V30 62 1 22 17
M  V30 63 1 40 35
M  V30 64 1 59 54
M  V30 65 1 1 63
M  V30 66 1 1 64
M  V30 67 1 1 65
M  V30 68 1 2 66
M  V30 69 1 3 67
M  V30 70 1 3 68
M  V30 71 1 4 69
M  V30 72 1 7 70
M  V30 73 1 8 71
M  V30 74 1 11 72
M  V30 75 1 12 73
M  V30 76 1 15 74
M  V30 77 1 16 75
M  V30 78 1 16 76
M  V30 79 1 18 77
M  V30 80 1 19 78
M  V30 81 1 20 79
M  V30 82 1 21 80
M  V30 83 1 22 81
M  V30 84 1 23 82
M  V30 85 1 23 83
M  V30 86 1 24 84
M  V30 87 1 24 85
M  V30 88 1 25 86
M  V30 89 1 25 87
M  V30 90 1 26 88
M  V30 91 1 28 89
M  V30 92 1 29 90
M  V30 93 1 29 91
M  V30 94 1 30 92
M  V30 95 1 33 93
M  V30 96 1 34 94
M  V30 97 1 34 95
M  V30 98 1 36 96
M  V30 99 1 37 97
M  V30 100 1 38 98
M  V30 101 1 39 99
M  V30 102 1 40 100
M  V30 103 1 41 101
M  V30 104 1 44 102
M  V30 105 1 44 103
M  V30 106 1 45 104
M  V30 107 1 48 105
M  V30 108 1 48 106
M  V30 109 1 49 107
M  V30 110 1 52 108
M  V30 111 1 53 109
M  V30 112 1 53 110
M  V30 113 1 55 111
M  V30 114 1 56 112
M  V30 115 1 58 113
M  V30 116 1 59 114
M  V30 117 1 60 115
M  V30 118 1 61 116
M  V30 119 1 61 117
M  V30 120 1 62 118
M  V30 121 1 62 119
M  V30 122 1 62 120
M  V30 END BOND
M  V30 END CTAB
M  END
