
     RDKit          3D

  0  0  0  0  0  0  0  0  0  0999 V3000
M  V30 BEGIN CTAB
M  V30 COUNTS 34 34 0 0 0
M  V30 BEGIN ATOM
M  V30 1 N -3.07114 -1.82543 -0.252332 0
M  V30 2 C -2.00397 -2.00388 0.660843 0
M  V30 3 C -1.34597 -0.726407 1.10937 0
M  V30 4 N -0.760626 0.0931088 0.156891 0
M  V30 5 C -1.65125 0.707864 -0.723489 0
M  V30 6 C -1.43175 2.15336 -1.04662 0
M  V30 7 C -0.0308619 2.63972 -0.911206 0
M  V30 8 O 0.375379 2.37479 0.40249 0
M  V30 9 C 1.31834 1.3236 0.326606 0
M  V30 10 C 0.615188 0.0482409 -0.139625 0 CFG=1
M  V30 11 C 1.35919 -1.11702 0.34708 0
M  V30 12 C 2.81038 -1.15047 -0.00428625 0
M  V30 13 N 3.63371 -0.100436 0.512001 0
M  V30 14 H -3.98699 -1.81597 0.134434 0
M  V30 15 H -2.97489 -2.39183 -1.06234 0
M  V30 16 H -1.32055 -2.78123 0.328198 0
M  V30 17 H -2.49612 -2.43964 1.59029 0
M  V30 18 H -0.66819 -0.902624 1.99134 0
M  V30 19 H -2.19609 -0.140294 1.58616 0
M  V30 20 H -1.82077 0.159615 -1.68083 0
M  V30 21 H -2.68057 0.687335 -0.234382 0
M  V30 22 H -1.7461 2.34072 -2.09593 0
M  V30 23 H -2.06666 2.83636 -0.422088 0
M  V30 24 H 0.676278 2.1901 -1.64206 0
M  V30 25 H -0.0205589 3.72039 -1.08859 0
M  V30 26 H 1.72066 1.25762 1.34628 0
M  V30 27 H 2.1254 1.64329 -0.353923 0
M  V30 28 H 0.707422 0.0693628 -1.268 0
M  V30 29 H 1.33241 -1.13463 1.48856 0
M  V30 30 H 0.914 -2.10421 0.0933622 0
M  V30 31 H 2.94966 -1.15169 -1.13411 0
M  V30 32 H 3.23985 -2.14345 0.296278 0
M  V30 33 H 4.07979 -0.438568 1.39549 0
M  V30 34 H 4.4154 0.122317 -0.165392 0
M  V30 END ATOM
M  V30 BEGIN BOND
M  V30 1 1 1 2
M  V30 2 1 2 3
M  V30 3 1 3 4
M  V30 4 1 4 5
M  V30 5 1 5 6
M  V30 6 1 6 7
M  V30 7 1 7 8
M  V30 8 1 8 9
M  V30 9 1 9 10
M  V30 10 1 10 11
M  V30 11 1 11 12
M  V30 12 1 12 13
M  V30 13 1 10 4
M  V30 14 1 1 14
M  V30 15 1 1 15
M  V30 16 1 2 16
M  V30 17 1 2 17
M  V30 18 1 3 18
M  V30 19 1 3 19
M  V30 20 1 5 20
M  V30 21 1 5 21
M  V30 22 1 6 22
M  V30 23 1 6 23
M  V30 24 1 7 24
M  V30 25 1 7 25
M  V30 26 1 9 26
M  V30 27 1 9 27
M  V30 28 1 10 28 CFG=3
M  V30 29 1 11 29
M  V30 30 1 11 30
M  V30 31 1 12 31
M  V30 32 1 12 32
M  V30 33 1 13 33
M  V30 34 1 13 34
M  V30 END BOND
M  V30 END CTAB
M  END
