
     RDKit          3D

  0  0  0  0  0  0  0  0  0  0999 V3000
M  V30 BEGIN CTAB
M  V30 COUNTS 29 30 0 0 0
M  V30 BEGIN ATOM
M  V30 1 C 1.1341 -2.62397 -1.26273 0
M  V30 2 O 0.378618 -2.11865 -0.215203 0
M  V30 3 C 0.342765 -0.711865 -0.201249 0
M  V30 4 C -1.01443 -0.244882 -0.615204 0
M  V30 5 N -1.58508 -0.714061 -1.75924 0
M  V30 6 N -2.77614 -0.189615 -1.93305 0
M  V30 7 C -2.97838 0.625087 -0.893814 0
M  V30 8 N -1.88655 0.591304 -0.0758781 0
M  V30 9 N -1.73098 1.30214 1.11336 0
M  V30 10 N -4.12703 1.42253 -0.632169 0
M  V30 11 C 0.864555 -0.0879726 1.03307 0
M  V30 12 C 2.32783 -0.504357 1.25747 0
M  V30 13 C 2.76537 0.656428 0.417766 0
M  V30 14 C 1.42219 1.29886 0.707271 0
M  V30 15 H 2.18083 -2.30844 -1.25934 0
M  V30 16 H 1.00477 -3.72605 -1.23499 0
M  V30 17 H 0.693982 -2.2019 -2.21355 0
M  V30 18 H 1.00458 -0.395285 -1.06214 0
M  V30 19 H -1.85102 0.809352 2.01025 0
M  V30 20 H -1.50543 2.30267 1.09547 0
M  V30 21 H -4.01622 2.45255 -0.50685 0
M  V30 22 H -5.08577 1.01852 -0.559264 0
M  V30 23 H 0.304153 -0.174233 1.96034 0
M  V30 24 H 2.60199 -1.49498 0.911422 0
M  V30 25 H 2.60705 -0.404445 2.34573 0
M  V30 26 H 2.95717 0.399761 -0.631918 0
M  V30 27 H 3.56167 1.26385 0.908185 0
M  V30 28 H 1.01281 1.7365 -0.226094 0
M  V30 29 H 1.3926 2.02115 1.52235 0
M  V30 END ATOM
M  V30 BEGIN BOND
M  V30 1 1 1 2
M  V30 2 1 2 3
M  V30 3 1 3 4
M  V30 4 2 4 5
M  V30 5 1 5 6
M  V30 6 2 6 7
M  V30 7 1 7 8
M  V30 8 1 8 9
M  V30 9 1 7 10
M  V30 10 1 3 11
M  V30 11 1 11 12
M  V30 12 1 12 13
M  V30 13 1 13 14
M  V30 14 1 8 4
M  V30 15 1 14 11
M  V30 16 1 1 15
M  V30 17 1 1 16
M  V30 18 1 1 17
M  V30 19 1 3 18
M  V30 20 1 9 19
M  V30 21 1 9 20
M  V30 22 1 10 21
M  V30 23 1 10 22
M  V30 24 1 11 23
M  V30 25 1 12 24
M  V30 26 1 12 25
M  V30 27 1 13 26
M  V30 28 1 13 27
M  V30 29 1 14 28
M  V30 30 1 14 29
M  V30 END BOND
M  V30 END CTAB
M  END
