
     RDKit          3D

  0  0  0  0  0  0  0  0  0  0999 V3000
M  V30 BEGIN CTAB
M  V30 COUNTS 66 66 0 0 0
M  V30 BEGIN ATOM
M  V30 1 N 6.10046 0.885552 0.733503 0
M  V30 2 C 5.47162 1.53491 -0.380882 0
M  V30 3 C 3.97574 1.65895 -0.0819577 0
M  V30 4 C 3.45321 0.263442 0.104935 0
M  V30 5 N 2.07175 0.181042 0.39395 0
M  V30 6 C 1.62459 -1.15959 0.68927 0
M  V30 7 C 1.8 -2.12445 -0.431377 0
M  V30 8 C 1.0729 -3.41619 -0.0324296 0
M  V30 9 N -0.310107 -3.37398 -0.468937 0
M  V30 10 C -0.489801 -4.08344 -1.72376 0
M  V30 11 C -1.16443 -4.01888 0.520159 0
M  V30 12 C -2.00306 -3.01687 1.27468 0
M  V30 13 N -2.6324 -2.03991 0.389495 0
M  V30 14 C -2.70828 -0.798064 1.10227 0
M  V30 15 C -3.04079 0.396336 0.227343 0
M  V30 16 C -1.79415 0.821834 -0.53726 0
M  V30 17 N -1.05109 1.85019 -0.00351155 0
M  V30 18 C 0.331014 1.8578 0.122098 0
M  V30 19 C 1.18216 0.849455 -0.540129 0
M  V30 20 C -1.67985 2.84553 0.773292 0
M  V30 21 C -2.60946 3.76993 0.0578618 0
M  V30 22 C -1.96055 4.58548 -1.03442 0
M  V30 23 N -0.894917 5.44876 -0.531311 0
M  V30 24 C -3.98462 -2.48375 0.113227 0
M  V30 25 H 5.57337 0.997764 1.61949 0
M  V30 26 H 6.11324 -0.156528 0.510789 0
M  V30 27 H 5.86625 2.54301 -0.575009 0
M  V30 28 H 5.5805 0.951184 -1.32691 0
M  V30 29 H 3.51565 2.2532 -0.857562 0
M  V30 30 H 3.8957 2.25473 0.868457 0
M  V30 31 H 3.78995 -0.417326 -0.707768 0
M  V30 32 H 3.98509 -0.140871 1.02167 0
M  V30 33 H 2.20263 -1.50896 1.56996 0
M  V30 34 H 0.570981 -1.10156 0.983533 0
M  V30 35 H 1.48392 -1.75895 -1.4115 0
M  V30 36 H 2.89063 -2.40602 -0.462565 0
M  V30 37 H 1.57304 -4.25572 -0.533589 0
M  V30 38 H 1.06433 -3.48941 1.06953 0
M  V30 39 H -1.30878 -4.82859 -1.68434 0
M  V30 40 H 0.450122 -4.66 -1.91008 0
M  V30 41 H -0.738844 -3.39142 -2.55067 0
M  V30 42 H -0.587769 -4.59794 1.26275 0
M  V30 43 H -1.8762 -4.73058 0.0326295 0
M  V30 44 H -1.33111 -2.53609 2.01723 0
M  V30 45 H -2.80532 -3.59028 1.78257 0
M  V30 46 H -3.41562 -0.824386 1.95497 0
M  V30 47 H -1.70793 -0.606466 1.54394 0
M  V30 48 H -3.79561 -0.00182702 -0.509398 0
M  V30 49 H -3.53439 1.19838 0.767679 0
M  V30 50 H -1.27839 -0.147108 -0.724876 0
M  V30 51 H -2.16451 1.12546 -1.56359 0
M  V30 52 H 0.692297 2.91027 -0.114741 0
M  V30 53 H 0.563154 1.80613 1.23347 0
M  V30 54 H 0.644938 0.103396 -1.18228 0
M  V30 55 H 1.846 1.3545 -1.26933 0
M  V30 56 H -0.881082 3.50752 1.21664 0
M  V30 57 H -2.22798 2.47087 1.66344 0
M  V30 58 H -3.48481 3.2716 -0.404892 0
M  V30 59 H -3.05747 4.53806 0.752999 0
M  V30 60 H -1.51447 3.97497 -1.83306 0
M  V30 61 H -2.69901 5.27194 -1.51002 0
M  V30 62 H -0.336505 5.74017 -1.37738 0
M  V30 63 H -1.30018 6.34714 -0.150057 0
M  V30 64 H -4.16708 -3.48262 0.566523 0
M  V30 65 H -4.76322 -1.79729 0.454148 0
M  V30 66 H -4.08543 -2.62443 -0.968901 0
M  V30 END ATOM
M  V30 BEGIN BOND
M  V30 1 1 1 2
M  V30 2 1 2 3
M  V30 3 1 3 4
M  V30 4 1 4 5
M  V30 5 1 5 6
M  V30 6 1 6 7
M  V30 7 1 7 8
M  V30 8 1 8 9
M  V30 9 1 9 10
M  V30 10 1 9 11
M  V30 11 1 11 12
M  V30 12 1 12 13
M  V30 13 1 13 14
M  V30 14 1 14 15
M  V30 15 1 15 16
M  V30 16 1 16 17
M  V30 17 1 17 18
M  V30 18 1 18 19
M  V30 19 1 17 20
M  V30 20 1 20 21
M  V30 21 1 21 22
M  V30 22 1 22 23
M  V30 23 1 13 24
M  V30 24 1 19 5
M  V30 25 1 1 25
M  V30 26 1 1 26
M  V30 27 1 2 27
M  V30 28 1 2 28
M  V30 29 1 3 29
M  V30 30 1 3 30
M  V30 31 1 4 31
M  V30 32 1 4 32
M  V30 33 1 6 33
M  V30 34 1 6 34
M  V30 35 1 7 35
M  V30 36 1 7 36
M  V30 37 1 8 37
M  V30 38 1 8 38
M  V30 39 1 10 39
M  V30 40 1 10 40
M  V30 41 1 10 41
M  V30 42 1 11 42
M  V30 43 1 11 43
M  V30 44 1 12 44
M  V30 45 1 12 45
M  V30 46 1 14 46
M  V30 47 1 14 47
M  V30 48 1 15 48
M  V30 49 1 15 49
M  V30 50 1 16 50
M  V30 51 1 16 51
M  V30 52 1 18 52
M  V30 53 1 18 53
M  V30 54 1 19 54
M  V30 55 1 19 55
M  V30 56 1 20 56
M  V30 57 1 20 57
M  V30 58 1 21 58
M  V30 59 1 21 59
M  V30 60 1 22 60
M  V30 61 1 22 61
M  V30 62 1 23 62
M  V30 63 1 23 63
M  V30 64 1 24 64
M  V30 65 1 24 65
M  V30 66 1 24 66
M  V30 END BOND
M  V30 END CTAB
M  END
