
     RDKit          3D

  0  0  0  0  0  0  0  0  0  0999 V3000
M  V30 BEGIN CTAB
M  V30 COUNTS 25 26 0 0 0
M  V30 BEGIN ATOM
M  V30 1 N -2.03246 0.67455 -1.52369 0
M  V30 2 N -1.80905 0.49574 -0.165368 0
M  V30 3 C -2.76323 0.611799 0.795698 0
M  V30 4 N -4.12942 0.932525 0.558847 0
M  V30 5 N -2.16918 0.368893 1.97857 0
M  V30 6 N -0.894159 0.113837 1.73786 0
M  V30 7 C -0.647747 0.186607 0.417267 0
M  V30 8 C 0.667941 -0.0358782 -0.255976 0
M  V30 9 C 1.07993 -1.45174 0.0479529 0
M  V30 10 C 2.49953 -1.60842 -0.455167 0
M  V30 11 S 3.21923 -0.0877548 0.184338 0
M  V30 12 O 4.1661 0.518339 -0.778491 0
M  V30 13 O 3.8026 -0.356583 1.52595 0
M  V30 14 C 1.70694 0.874776 0.334575 0
M  V30 15 H -1.88824 -0.0804819 -2.2456 0
M  V30 16 H -2.36769 1.59564 -1.93043 0
M  V30 17 H -4.92657 0.350386 0.898263 0
M  V30 18 H -4.37772 1.79096 0.0190096 0
M  V30 19 H 0.549283 0.0949226 -1.34745 0
M  V30 20 H 1.1046 -1.61992 1.1417 0
M  V30 21 H 0.379645 -2.12034 -0.474477 0
M  V30 22 H 2.92439 -2.48944 0.0578812 0
M  V30 23 H 2.57235 -1.64846 -1.54416 0
M  V30 24 H 1.82257 1.73366 -0.351356 0
M  V30 25 H 1.51036 1.15637 1.37425 0
M  V30 END ATOM
M  V30 BEGIN BOND
M  V30 1 1 1 2
M  V30 2 1 2 3
M  V30 3 1 3 4
M  V30 4 2 3 5
M  V30 5 1 5 6
M  V30 6 2 6 7
M  V30 7 1 7 8
M  V30 8 1 8 9
M  V30 9 1 9 10
M  V30 10 1 10 11
M  V30 11 2 11 12
M  V30 12 2 11 13
M  V30 13 1 11 14
M  V30 14 1 7 2
M  V30 15 1 14 8
M  V30 16 1 1 15
M  V30 17 1 1 16
M  V30 18 1 4 17
M  V30 19 1 4 18
M  V30 20 1 8 19
M  V30 21 1 9 20
M  V30 22 1 9 21
M  V30 23 1 10 22
M  V30 24 1 10 23
M  V30 25 1 14 24
M  V30 26 1 14 25
M  V30 END BOND
M  V30 END CTAB
M  END
