
     RDKit          3D

  0  0  0  0  0  0  0  0  0  0999 V3000
M  V30 BEGIN CTAB
M  V30 COUNTS 35 36 0 0 0
M  V30 BEGIN ATOM
M  V30 1 N -3.72738 -0.359568 -1.82031 0
M  V30 2 C -4.56509 0.0429231 -0.726825 0
M  V30 3 C -3.88384 1.05231 0.165787 0
M  V30 4 C -2.62957 0.51913 0.7614 0
M  V30 5 C -2.70618 -0.133041 1.97562 0
M  V30 6 C -1.56339 -0.65478 2.58489 0
M  V30 7 C -0.349258 -0.507078 1.94999 0
M  V30 8 C -0.233237 0.136793 0.739026 0
M  V30 9 C -1.39444 0.637624 0.173439 0
M  V30 10 C 1.07586 0.292924 0.0603403 0
M  V30 11 C 1.29925 1.39819 -0.723788 0
M  V30 12 C 2.48788 1.59952 -1.37682 0
M  V30 13 C 3.46953 0.627524 -1.21087 0
M  V30 14 C 3.27054 -0.48314 -0.434248 0
M  V30 15 C 2.06876 -0.63783 0.195731 0
M  V30 16 C 4.33687 -1.47946 -0.290601 0
M  V30 17 N 5.52968 -1.12925 -1.03006 0
M  V30 18 H -3.6056 0.497222 -2.43619 0
M  V30 19 H -4.22403 -1.13186 -2.32344 0
M  V30 20 H -4.85406 -0.883297 -0.165126 0
M  V30 21 H -5.462 0.541894 -1.14751 0
M  V30 22 H -4.62595 1.30355 0.974973 0
M  V30 23 H -3.74093 1.97242 -0.405643 0
M  V30 24 H -3.66051 -0.252952 2.48181 0
M  V30 25 H -1.64625 -1.15271 3.51959 0
M  V30 26 H 0.568523 -0.895102 2.38302 0
M  V30 27 H -1.33971 1.14861 -0.776468 0
M  V30 28 H 0.514704 2.12883 -0.827695 0
M  V30 29 H 2.6702 2.47818 -2.00212 0
M  V30 30 H 4.40085 0.829293 -1.74981 0
M  V30 31 H 1.86952 -1.51322 0.826712 0
M  V30 32 H 3.96265 -2.44143 -0.722272 0
M  V30 33 H 4.55564 -1.60358 0.796745 0
M  V30 34 H 6.28284 -1.78284 -0.718927 0
M  V30 35 H 5.84815 -0.165783 -0.712509 0
M  V30 END ATOM
M  V30 BEGIN BOND
M  V30 1 1 1 2
M  V30 2 1 2 3
M  V30 3 1 3 4
M  V30 4 2 4 5
M  V30 5 1 5 6
M  V30 6 2 6 7
M  V30 7 1 7 8
M  V30 8 2 8 9
M  V30 9 1 8 10
M  V30 10 2 10 11
M  V30 11 1 11 12
M  V30 12 2 12 13
M  V30 13 1 13 14
M  V30 14 2 14 15
M  V30 15 1 14 16
M  V30 16 1 16 17
M  V30 17 1 9 4
M  V30 18 1 15 10
M  V30 19 1 1 18
M  V30 20 1 1 19
M  V30 21 1 2 20
M  V30 22 1 2 21
M  V30 23 1 3 22
M  V30 24 1 3 23
M  V30 25 1 5 24
M  V30 26 1 6 25
M  V30 27 1 7 26
M  V30 28 1 9 27
M  V30 29 1 11 28
M  V30 30 1 12 29
M  V30 31 1 13 30
M  V30 32 1 15 31
M  V30 33 1 16 32
M  V30 34 1 16 33
M  V30 35 1 17 34
M  V30 36 1 17 35
M  V30 END BOND
M  V30 END CTAB
M  END
