
     RDKit          3D

  0  0  0  0  0  0  0  0  0  0999 V3000
M  V30 BEGIN CTAB
M  V30 COUNTS 25 26 0 0 0
M  V30 BEGIN ATOM
M  V30 1 N 2.17516 -1.34777 -0.115452 0
M  V30 2 N 1.97553 0.00485547 0.00838239 0
M  V30 3 C 2.99616 0.918485 0.0391277 0
M  V30 4 N 4.38197 0.667515 -0.0456005 0
M  V30 5 N 2.41901 2.10621 0.166287 0
M  V30 6 N 1.13061 1.94141 0.211312 0
M  V30 7 C 0.792594 0.611988 0.114039 0
M  V30 8 C -0.568068 0.15308 0.137421 0
M  V30 9 C -0.952247 -1.08897 0.0496548 0
M  V30 10 C -2.38197 -1.51477 0.0791668 0
M  V30 11 N -3.3076 -0.512121 -0.327801 0
M  V30 12 C -2.72971 0.727345 -0.752521 0
M  V30 13 C -1.70096 1.14703 0.27197 0
M  V30 14 H 2.42495 -1.75846 -1.03729 0
M  V30 15 H 2.08737 -2.00289 0.686857 0
M  V30 16 H 4.80836 -0.0651986 0.535419 0
M  V30 17 H 4.96353 1.2189 -0.689362 0
M  V30 18 H -0.24138 -1.86276 -0.0485505 0
M  V30 19 H -2.57327 -1.89541 1.10506 0
M  V30 20 H -2.51163 -2.41114 -0.591206 0
M  V30 21 H -3.94681 -0.302928 0.492388 0
M  V30 22 H -3.55726 1.47537 -0.807773 0
M  V30 23 H -2.22764 0.649912 -1.73349 0
M  V30 24 H -2.1401 0.983725 1.27759 0
M  V30 25 H -1.3166 2.1566 0.12991 0
M  V30 END ATOM
M  V30 BEGIN BOND
M  V30 1 1 1 2
M  V30 2 1 2 3
M  V30 3 1 3 4
M  V30 4 2 3 5
M  V30 5 1 5 6
M  V30 6 2 6 7
M  V30 7 1 7 8
M  V30 8 2 8 9
M  V30 9 1 9 10
M  V30 10 1 10 11
M  V30 11 1 11 12
M  V30 12 1 12 13
M  V30 13 1 7 2
M  V30 14 1 13 8
M  V30 15 1 1 14
M  V30 16 1 1 15
M  V30 17 1 4 16
M  V30 18 1 4 17
M  V30 19 1 9 18
M  V30 20 1 10 19
M  V30 21 1 10 20
M  V30 22 1 11 21
M  V30 23 1 12 22
M  V30 24 1 12 23
M  V30 25 1 13 24
M  V30 26 1 13 25
M  V30 END BOND
M  V30 END CTAB
M  END
