
     RDKit          3D

  0  0  0  0  0  0  0  0  0  0999 V3000
M  V30 BEGIN CTAB
M  V30 COUNTS 34 36 0 0 0
M  V30 BEGIN ATOM
M  V30 1 N -6.06478 -2.47123 -0.715251 0
M  V30 2 C -5.30096 -1.2932 -0.456739 0
M  V30 3 C -5.90963 -0.122816 -0.0492705 0
M  V30 4 C -5.12183 0.985884 0.186445 0
M  V30 5 N -5.76046 2.18517 0.605628 0
M  V30 6 N -3.77698 0.907012 0.015377 0
M  V30 7 C -3.19459 -0.230245 -0.379564 0
M  V30 8 N -3.98198 -1.28878 -0.600734 0
M  V30 9 S -1.44469 -0.422203 -0.628095 0
M  V30 10 C -0.540331 1.09931 -0.285109 0
M  V30 11 C 0.905493 0.823637 -0.524296 0
M  V30 12 C 1.54658 0.989954 -1.71911 0
M  V30 13 O 2.80231 0.651211 -1.55215 0
M  V30 14 C 2.9887 0.275288 -0.298672 0
M  V30 15 N 1.82715 0.369687 0.37297 0
M  V30 16 C 4.29056 -0.166828 0.217504 0
M  V30 17 C 4.4272 -0.547981 1.53478 0
M  V30 18 C 5.67179 -0.966969 2.01427 0
M  V30 19 C 6.78807 -1.01438 1.20523 0
M  V30 20 C 6.63778 -0.630242 -0.111204 0
M  V30 21 C 5.40567 -0.215212 -0.586813 0
M  V30 22 H -5.58894 -3.32194 -1.04755 0
M  V30 23 H -7.08668 -2.50759 -0.581739 0
M  V30 24 H -6.98817 -0.126846 0.0683577 0
M  V30 25 H -6.00325 2.27018 1.61581 0
M  V30 26 H -6.00166 2.97721 -0.0138059 0
M  V30 27 H -0.662552 1.32283 0.798553 0
M  V30 28 H -0.869147 1.95598 -0.885532 0
M  V30 29 H 1.1433 1.3341 -2.66078 0
M  V30 30 H 3.55868 -0.518008 2.19032 0
M  V30 31 H 5.77753 -1.26885 3.05978 0
M  V30 32 H 7.75432 -1.34429 1.59492 0
M  V30 33 H 7.50087 -0.66328 -0.750349 0
M  V30 34 H 5.27063 0.0937561 -1.63317 0
M  V30 END ATOM
M  V30 BEGIN BOND
M  V30 1 1 1 2
M  V30 2 2 2 3
M  V30 3 1 3 4
M  V30 4 1 4 5
M  V30 5 2 4 6
M  V30 6 1 6 7
M  V30 7 2 7 8
M  V30 8 1 7 9
M  V30 9 1 9 10
M  V30 10 1 10 11
M  V30 11 2 11 12
M  V30 12 1 12 13
M  V30 13 1 13 14
M  V30 14 2 14 15
M  V30 15 1 14 16
M  V30 16 2 16 17
M  V30 17 1 17 18
M  V30 18 2 18 19
M  V30 19 1 19 20
M  V30 20 2 20 21
M  V30 21 1 8 2
M  V30 22 1 15 11
M  V30 23 1 21 16
M  V30 24 1 1 22
M  V30 25 1 1 23
M  V30 26 1 3 24
M  V30 27 1 5 25
M  V30 28 1 5 26
M  V30 29 1 10 27
M  V30 30 1 10 28
M  V30 31 1 12 29
M  V30 32 1 17 30
M  V30 33 1 18 31
M  V30 34 1 19 32
M  V30 35 1 20 33
M  V30 36 1 21 34
M  V30 END BOND
M  V30 END CTAB
M  END
