
     RDKit          3D

  0  0  0  0  0  0  0  0  0  0999 V3000
M  V30 BEGIN CTAB
M  V30 COUNTS 44 46 0 0 0
M  V30 BEGIN ATOM
M  V30 1 C 5.09342 -0.299082 0.873456 0 CFG=1
M  V30 2 S 4.62883 1.09962 1.92303 0
M  V30 3 C 2.98218 1.55514 1.3166 0
M  V30 4 C 2.1351 0.264881 1.28782 0
M  V30 5 C 0.78611 0.513898 1.68915 0
M  V30 6 S -0.619994 -0.463637 1.33691 0
M  V30 7 C -1.14984 -0.401714 -0.383906 0
M  V30 8 N -0.794584 -1.1633 -1.42405 0
M  V30 9 N -1.43849 -0.755566 -2.50176 0
M  V30 10 N -2.1854 0.251079 -2.12533 0
M  V30 11 N -2.03579 0.496519 -0.838182 0
M  V30 12 C -2.71185 1.5472 -0.120059 0
M  V30 13 C -4.00228 1.04646 0.467532 0
M  V30 14 C -4.90123 0.563492 -0.621273 0
M  V30 15 S -6.46215 -0.0291708 0.0409135 0
M  V30 16 N -7.39531 -0.554557 -1.31375 0
M  V30 17 O -7.20026 1.09545 0.72016 0
M  V30 18 O -6.22585 -1.16501 0.97765 0
M  V30 19 C 2.6102 -0.816992 0.760574 0
M  V30 20 N 3.93012 -0.807796 0.178642 0
M  V30 21 C 4.80261 -1.0867 -0.9068 0
M  V30 22 O 4.83425 -1.98898 -1.76757 0
M  V30 23 C 5.5549 0.128916 -0.501742 0
M  V30 24 N 6.98191 -0.00361167 -0.714681 0
M  V30 25 C 2.01885 -2.12706 0.861339 0
M  V30 26 O 2.54786 -3.2363 0.153499 0
M  V30 27 O 1.04701 -2.41509 1.54913 0
M  V30 28 H 5.74169 -1.02952 1.33589 0
M  V30 29 H 2.55716 2.23718 2.0631 0
M  V30 30 H 3.02676 2.01199 0.334534 0
M  V30 31 H 0.554239 1.61465 1.36416 0
M  V30 32 H 0.778883 0.692733 2.83693 0
M  V30 33 H -2.05709 2.00743 0.656473 0
M  V30 34 H -2.89049 2.3838 -0.849796 0
M  V30 35 H -4.47902 1.9131 1.00204 0
M  V30 36 H -3.81958 0.298493 1.2558 0
M  V30 37 H -4.45736 -0.325953 -1.13144 0
M  V30 38 H -5.09225 1.33053 -1.3748 0
M  V30 39 H -8.39342 -0.690109 -1.0487 0
M  V30 40 H -7.27493 0.0762869 -2.14295 0
M  V30 41 H 5.1017 1.04703 -0.891013 0
M  V30 42 H 7.31346 -0.697505 0.00882986 0
M  V30 43 H 7.0979 -0.524262 -1.63079 0
M  V30 44 H 3.46204 -3.59396 0.407231 0
M  V30 END ATOM
M  V30 BEGIN BOND
M  V30 1 1 1 2
M  V30 2 1 2 3
M  V30 3 1 3 4
M  V30 4 1 4 5
M  V30 5 1 5 6
M  V30 6 1 6 7
M  V30 7 2 7 8
M  V30 8 1 8 9
M  V30 9 2 9 10
M  V30 10 1 10 11
M  V30 11 1 11 12
M  V30 12 1 12 13
M  V30 13 1 13 14
M  V30 14 1 14 15
M  V30 15 1 15 16
M  V30 16 2 15 17
M  V30 17 2 15 18
M  V30 18 2 4 19
M  V30 19 1 19 20
M  V30 20 1 20 21
M  V30 21 2 21 22
M  V30 22 1 21 23
M  V30 23 1 23 24
M  V30 24 1 19 25
M  V30 25 1 25 26
M  V30 26 2 25 27
M  V30 27 1 20 1
M  V30 28 1 23 1
M  V30 29 1 11 7
M  V30 30 1 1 28 CFG=1
M  V30 31 1 3 29
M  V30 32 1 3 30
M  V30 33 1 5 31
M  V30 34 1 5 32
M  V30 35 1 12 33
M  V30 36 1 12 34
M  V30 37 1 13 35
M  V30 38 1 13 36
M  V30 39 1 14 37
M  V30 40 1 14 38
M  V30 41 1 16 39
M  V30 42 1 16 40
M  V30 43 1 23 41
M  V30 44 1 24 42
M  V30 45 1 24 43
M  V30 46 1 26 44
M  V30 END BOND
M  V30 END CTAB
M  END
