
     RDKit          3D

  0  0  0  0  0  0  0  0  0  0999 V3000
M  V30 BEGIN CTAB
M  V30 COUNTS 31 31 0 0 0
M  V30 BEGIN ATOM
M  V30 1 C -2.67309 -2.08849 0.316463 0
M  V30 2 C -2.755 -0.625889 0.690976 0
M  V30 3 O -1.75883 0.111951 0.00514056 0
M  V30 4 C -1.65507 1.46922 0.20114 0
M  V30 5 O -2.47479 2.00602 1.00577 0
M  V30 6 C -0.659411 2.32112 -0.465809 0 CFG=2
M  V30 7 C 0.70468 2.09716 0.0830672 0
M  V30 8 C 1.21753 0.724725 -0.0519561 0
M  V30 9 C 1.87891 0.346543 -1.21327 0
M  V30 10 C 2.40259 -0.917563 -1.39309 0
M  V30 11 C 2.27224 -1.85188 -0.390605 0
M  V30 12 C 1.61914 -1.50686 0.777972 0
M  V30 13 C 1.10716 -0.235861 0.926827 0
M  V30 14 N 2.80006 -3.16473 -0.542121 0
M  V30 15 N -0.984393 3.736 -0.174561 0
M  V30 16 H -2.72203 -2.19848 -0.794208 0
M  V30 17 H -1.7243 -2.53484 0.638718 0
M  V30 18 H -3.54567 -2.62054 0.721702 0
M  V30 19 H -3.77874 -0.257637 0.46416 0
M  V30 20 H -2.62482 -0.57632 1.79655 0
M  V30 21 H -0.667789 2.19033 -1.57311 0
M  V30 22 H 0.657925 2.38341 1.17901 0
M  V30 23 H 1.44387 2.83192 -0.334961 0
M  V30 24 H 2.01617 1.04254 -2.04819 0
M  V30 25 H 2.91484 -1.19982 -2.30073 0
M  V30 26 H 1.53905 -2.273 1.54123 0
M  V30 27 H 0.595178 0.00295753 1.86725 0
M  V30 28 H 3.35535 -3.59097 0.223138 0
M  V30 29 H 2.64306 -3.71623 -1.40919 0
M  V30 30 H -0.924135 3.79887 0.880885 0
M  V30 31 H -0.219679 4.29635 -0.628196 0
M  V30 END ATOM
M  V30 BEGIN BOND
M  V30 1 1 1 2
M  V30 2 1 2 3
M  V30 3 1 3 4
M  V30 4 2 4 5
M  V30 5 1 4 6
M  V30 6 1 6 7
M  V30 7 1 7 8
M  V30 8 2 8 9
M  V30 9 1 9 10
M  V30 10 2 10 11
M  V30 11 1 11 12
M  V30 12 2 12 13
M  V30 13 1 11 14
M  V30 14 1 6 15
M  V30 15 1 13 8
M  V30 16 1 1 16
M  V30 17 1 1 17
M  V30 18 1 1 18
M  V30 19 1 2 19
M  V30 20 1 2 20
M  V30 21 1 6 21 CFG=3
M  V30 22 1 7 22
M  V30 23 1 7 23
M  V30 24 1 9 24
M  V30 25 1 10 25
M  V30 26 1 12 26
M  V30 27 1 13 27
M  V30 28 1 14 28
M  V30 29 1 14 29
M  V30 30 1 15 30
M  V30 31 1 15 31
M  V30 END BOND
M  V30 END CTAB
M  END
