
     RDKit          3D

  0  0  0  0  0  0  0  0  0  0999 V3000
M  V30 BEGIN CTAB
M  V30 COUNTS 29 30 0 0 0
M  V30 BEGIN ATOM
M  V30 1 N 0.514887 2.79493 1.65526 0
M  V30 2 C -0.226706 1.98736 1.29976 0
M  V30 3 C -1.13784 0.984382 0.854575 0
M  V30 4 C -2.42748 1.23349 0.930334 0
M  V30 5 N -2.88513 2.44534 1.43534 0
M  V30 6 S -3.55837 -0.0568907 0.320582 0
M  V30 7 C -2.60933 -0.722548 -1.08155 0
M  V30 8 C -1.30046 -0.77029 -0.909578 0
M  V30 9 C -0.685242 -0.311474 0.343166 0
M  V30 10 C 0.787456 -0.34018 0.151651 0
M  V30 11 C 1.54152 -1.16862 0.943952 0
M  V30 12 C 2.91881 -1.24674 0.821198 0
M  V30 13 C 3.48849 -0.445847 -0.141087 0
M  V30 14 C 2.74753 0.391412 -0.945014 0
M  V30 15 C 1.3847 0.456373 -0.810054 0
M  V30 16 O 4.88277 -0.506922 -0.28506 0
M  V30 17 C -0.468459 -1.29594 -2.00407 0
M  V30 18 N 0.169765 -1.72291 -2.86036 0
M  V30 19 N -3.24115 -1.15439 -2.26522 0
M  V30 20 H -2.97423 2.6017 2.45602 0
M  V30 21 H -3.14452 3.21286 0.786716 0
M  V30 22 H -0.896773 -1.04788 1.1862 0
M  V30 23 H 1.10111 -1.81253 1.71497 0
M  V30 24 H 3.5219 -1.90187 1.44672 0
M  V30 25 H 3.22942 1.01819 -1.70355 0
M  V30 26 H 0.752299 1.09582 -1.41397 0
M  V30 27 H 5.45247 -1.11068 0.289323 0
M  V30 28 H -3.48378 -0.439933 -2.98371 0
M  V30 29 H -3.45367 -2.16622 -2.40353 0
M  V30 END ATOM
M  V30 BEGIN BOND
M  V30 1 3 1 2
M  V30 2 1 2 3
M  V30 3 2 3 4
M  V30 4 1 4 5
M  V30 5 1 4 6
M  V30 6 1 6 7
M  V30 7 2 7 8
M  V30 8 1 8 9
M  V30 9 1 9 10
M  V30 10 2 10 11
M  V30 11 1 11 12
M  V30 12 2 12 13
M  V30 13 1 13 14
M  V30 14 2 14 15
M  V30 15 1 13 16
M  V30 16 1 8 17
M  V30 17 3 17 18
M  V30 18 1 7 19
M  V30 19 1 9 3
M  V30 20 1 15 10
M  V30 21 1 5 20
M  V30 22 1 5 21
M  V30 23 1 9 22
M  V30 24 1 11 23
M  V30 25 1 12 24
M  V30 26 1 14 25
M  V30 27 1 15 26
M  V30 28 1 16 27
M  V30 29 1 19 28
M  V30 30 1 19 29
M  V30 END BOND
M  V30 END CTAB
M  END
