
     RDKit          3D

  0  0  0  0  0  0  0  0  0  0999 V3000
M  V30 BEGIN CTAB
M  V30 COUNTS 49 52 0 0 0
M  V30 BEGIN ATOM
M  V30 1 N 8.11208 -2.29876 0.754814 0
M  V30 2 C 7.05524 -1.35547 0.530317 0
M  V30 3 N 5.77641 -1.78264 0.557244 0
M  V30 4 C 4.75257 -0.942081 0.353707 0
M  V30 5 C 3.33249 -1.38107 0.376882 0
M  V30 6 O 2.51034 -0.278254 0.13162 0
M  V30 7 C 1.13089 -0.327082 0.0821689 0
M  V30 8 C 0.404561 -1.47695 0.270448 0
M  V30 9 C -0.973262 -1.4372 0.20418 0
M  V30 10 C -1.66018 -0.269054 -0.0477819 0
M  V30 11 C -0.922431 0.881722 -0.235749 0
M  V30 12 C 0.453421 0.849406 -0.170982 0
M  V30 13 C -1.86982 1.8761 -0.465681 0
M  V30 14 C -1.54529 3.27484 -0.718513 0
M  V30 15 O -1.3518 3.71774 -1.87942 0
M  V30 16 C -1.43213 4.23376 0.410808 0
M  V30 17 C -3.14181 1.33238 -0.416205 0
M  V30 18 N -2.98661 0.020796 -0.159544 0
M  V30 19 C -4.00888 -0.965759 -0.0149856 0
M  V30 20 C -3.96659 -2.13438 -0.772216 0
M  V30 21 C -4.95608 -3.08392 -0.628938 0
M  V30 22 C -5.99154 -2.89823 0.253569 0
M  V30 23 C -6.06194 -1.75301 1.01709 0
M  V30 24 C -5.05963 -0.820791 0.853549 0
M  V30 25 C -4.44203 2.02765 -0.604144 0
M  V30 26 N 5.07122 0.347353 0.12182 0
M  V30 27 C 6.33896 0.792092 0.0910779 0
M  V30 28 N 7.35112 -0.0657286 0.297403 0
M  V30 29 N 6.54097 2.17479 -0.163517 0
M  V30 30 H 9.00395 -1.98888 1.14872 0
M  V30 31 H 7.9528 -3.28997 0.51145 0
M  V30 32 H 3.18526 -2.13489 -0.442436 0
M  V30 33 H 3.08517 -1.90132 1.31272 0
M  V30 34 H 0.95947 -2.39008 0.468163 0
M  V30 35 H -1.50531 -2.36533 0.358457 0
M  V30 36 H 0.987647 1.79549 -0.328594 0
M  V30 37 H -1.44459 5.27403 0.0673734 0
M  V30 38 H -0.494419 4.0233 0.970637 0
M  V30 39 H -2.34 4.09412 1.05052 0
M  V30 40 H -3.13494 -2.25301 -1.46207 0
M  V30 41 H -4.8958 -3.98654 -1.23427 0
M  V30 42 H -6.76109 -3.62715 0.370947 0
M  V30 43 H -6.87666 -1.57468 1.73149 0
M  V30 44 H -5.09924 0.0905879 1.44901 0
M  V30 45 H -4.81978 2.38315 0.379637 0
M  V30 46 H -4.31848 2.90875 -1.24578 0
M  V30 47 H -5.20502 1.36425 -1.06569 0
M  V30 48 H 7.42004 2.445 -0.655802 0
M  V30 49 H 5.84074 2.87494 0.130558 0
M  V30 END ATOM
M  V30 BEGIN BOND
M  V30 1 1 1 2
M  V30 2 2 2 3
M  V30 3 1 3 4
M  V30 4 1 4 5
M  V30 5 1 5 6
M  V30 6 1 6 7
M  V30 7 2 7 8
M  V30 8 1 8 9
M  V30 9 2 9 10
M  V30 10 1 10 11
M  V30 11 2 11 12
M  V30 12 1 11 13
M  V30 13 1 13 14
M  V30 14 2 14 15
M  V30 15 1 14 16
M  V30 16 2 13 17
M  V30 17 1 17 18
M  V30 18 1 18 19
M  V30 19 2 19 20
M  V30 20 1 20 21
M  V30 21 2 21 22
M  V30 22 1 22 23
M  V30 23 2 23 24
M  V30 24 1 17 25
M  V30 25 2 4 26
M  V30 26 1 26 27
M  V30 27 2 27 28
M  V30 28 1 27 29
M  V30 29 1 28 2
M  V30 30 1 12 7
M  V30 31 1 24 19
M  V30 32 1 18 10
M  V30 33 1 1 30
M  V30 34 1 1 31
M  V30 35 1 5 32
M  V30 36 1 5 33
M  V30 37 1 8 34
M  V30 38 1 9 35
M  V30 39 1 12 36
M  V30 40 1 16 37
M  V30 41 1 16 38
M  V30 42 1 16 39
M  V30 43 1 20 40
M  V30 44 1 21 41
M  V30 45 1 22 42
M  V30 46 1 23 43
M  V30 47 1 24 44
M  V30 48 1 25 45
M  V30 49 1 25 46
M  V30 50 1 25 47
M  V30 51 1 29 48
M  V30 52 1 29 49
M  V30 END BOND
M  V30 END CTAB
M  END
