
     RDKit          3D

  0  0  0  0  0  0  0  0  0  0999 V3000
M  V30 BEGIN CTAB
M  V30 COUNTS 17 17 0 0 0
M  V30 BEGIN ATOM
M  V30 1 N 2.80075 -0.577647 -0.229693 0
M  V30 2 C 1.47262 -0.0971737 -0.167245 0
M  V30 3 C 0.431986 -0.944245 0.177003 0
M  V30 4 C -0.885258 -0.509315 0.249014 0
M  V30 5 N -1.95301 -1.36284 0.598481 0
M  V30 6 C -1.17713 0.809129 -0.0299626 0
M  V30 7 C -0.155869 1.67074 -0.375116 0
M  V30 8 C 1.16188 1.2178 -0.442851 0
M  V30 9 F -0.459422 2.95637 -0.644603 0
M  V30 10 O -2.48906 1.24712 0.0405954 0
M  V30 11 H 3.21791 -0.774841 -1.15625 0
M  V30 12 H 3.38467 -0.744706 0.608746 0
M  V30 13 H 0.643052 -1.98032 0.398698 0
M  V30 14 H -2.51659 -1.77218 -0.180465 0
M  V30 15 H -2.22387 -1.61708 1.56938 0
M  V30 16 H 1.96001 1.86869 -0.70718 0
M  V30 17 H -3.21267 0.610486 0.291445 0
M  V30 END ATOM
M  V30 BEGIN BOND
M  V30 1 1 1 2
M  V30 2 2 2 3
M  V30 3 1 3 4
M  V30 4 1 4 5
M  V30 5 2 4 6
M  V30 6 1 6 7
M  V30 7 2 7 8
M  V30 8 1 7 9
M  V30 9 1 6 10
M  V30 10 1 8 2
M  V30 11 1 1 11
M  V30 12 1 1 12
M  V30 13 1 3 13
M  V30 14 1 5 14
M  V30 15 1 5 15
M  V30 16 1 8 16
M  V30 17 1 10 17
M  V30 END BOND
M  V30 END CTAB
M  END
