
     RDKit          3D

  0  0  0  0  0  0  0  0  0  0999 V3000
M  V30 BEGIN CTAB
M  V30 COUNTS 24 25 0 0 0
M  V30 BEGIN ATOM
M  V30 1 N 4.78051 -0.196528 -0.157628 0
M  V30 2 C 3.36631 -0.156325 -0.146435 0
M  V30 3 C 2.57449 -1.23795 0.177724 0
M  V30 4 C 1.17816 -1.15422 0.176096 0
M  V30 5 C 0.546385 0.00159941 -0.146509 0
M  V30 6 C 1.33742 1.08976 -0.472537 0
M  V30 7 C 2.71199 1.01447 -0.472992 0
M  V30 8 C -0.905411 0.14584 -0.16465 0
M  V30 9 C -1.76298 -0.880124 0.144609 0
M  V30 10 C -3.13407 -0.674101 0.107374 0
M  V30 11 C -3.63361 0.558686 -0.239577 0
M  V30 12 N -2.7588 1.53214 -0.533991 0
M  V30 13 N -1.45544 1.33028 -0.496862 0
M  V30 14 N -5.04216 0.825376 -0.293683 0
M  V30 15 H 5.27994 0.114457 -1.00994 0
M  V30 16 H 5.31696 -0.52764 0.662183 0
M  V30 17 H 3.0906 -2.15353 0.433021 0
M  V30 18 H 0.62637 -2.04344 0.440991 0
M  V30 19 H 0.874037 2.03221 -0.736421 0
M  V30 20 H 3.31288 1.88524 -0.733369 0
M  V30 21 H -1.38361 -1.85508 0.419255 0
M  V30 22 H -3.82974 -1.4672 0.346964 0
M  V30 23 H -5.56862 1.20376 0.512286 0
M  V30 24 H -5.52161 0.612334 -1.21274 0
M  V30 END ATOM
M  V30 BEGIN BOND
M  V30 1 1 1 2
M  V30 2 2 2 3
M  V30 3 1 3 4
M  V30 4 2 4 5
M  V30 5 1 5 6
M  V30 6 2 6 7
M  V30 7 1 5 8
M  V30 8 2 8 9
M  V30 9 1 9 10
M  V30 10 2 10 11
M  V30 11 1 11 12
M  V30 12 2 12 13
M  V30 13 1 11 14
M  V30 14 1 7 2
M  V30 15 1 13 8
M  V30 16 1 1 15
M  V30 17 1 1 16
M  V30 18 1 3 17
M  V30 19 1 4 18
M  V30 20 1 6 19
M  V30 21 1 7 20
M  V30 22 1 9 21
M  V30 23 1 10 22
M  V30 24 1 14 23
M  V30 25 1 14 24
M  V30 END BOND
M  V30 END CTAB
M  END
