
     RDKit          3D

  0  0  0  0  0  0  0  0  0  0999 V3000
M  V30 BEGIN CTAB
M  V30 COUNTS 36 37 0 0 0
M  V30 BEGIN ATOM
M  V30 1 N -7.05092 -0.0975142 0.729546 0
M  V30 2 C -5.65826 -0.211278 0.493143 0
M  V30 3 C -4.74342 -0.0755581 1.5425 0
M  V30 4 C -3.38366 -0.19011 1.29188 0
M  V30 5 C -2.91726 -0.433275 0.0389672 0
M  V30 6 C -3.78884 -0.572283 -1.01633 0
M  V30 7 C -5.13888 -0.457215 -0.759851 0
M  V30 8 C -1.49094 -0.549032 -0.198737 0
M  V30 9 N -0.650972 -0.425762 0.757202 0
M  V30 10 N 0.728885 -0.522622 0.61384 0
M  V30 11 C 1.50071 0.631208 0.389987 0
M  V30 12 O 0.922754 1.7493 0.32189 0
M  V30 13 C 2.95171 0.599911 0.230843 0
M  V30 14 C 3.66225 1.76779 0.0123651 0
M  V30 15 C 5.03147 1.78008 -0.142772 0
M  V30 16 C 5.7644 0.613036 -0.0864026 0
M  V30 17 C 5.06695 -0.5558 0.13072 0
M  V30 18 C 3.6785 -0.570091 0.288252 0
M  V30 19 N 7.18586 0.612485 -0.245868 0
M  V30 20 C -0.995271 -0.812087 -1.55702 0
M  V30 21 H -7.42602 0.691019 1.29161 0
M  V30 22 H -7.71828 -0.796144 0.347558 0
M  V30 23 H -5.10315 0.1161 2.53239 0
M  V30 24 H -2.7005 -0.0807782 2.12119 0
M  V30 25 H -3.41788 -0.769551 -2.03491 0
M  V30 26 H -5.81472 -0.572243 -1.61962 0
M  V30 27 H 1.1724 -1.45751 0.67524 0
M  V30 28 H 3.08183 2.70216 -0.0334785 0
M  V30 29 H 5.56008 2.71649 -0.313331 0
M  V30 30 H 5.63131 -1.47774 0.176891 0
M  V30 31 H 3.18248 -1.51936 0.456691 0
M  V30 32 H 7.58935 0.564716 -1.19966 0
M  V30 33 H 7.81288 0.660242 0.599541 0
M  V30 34 H -1.03444 0.083626 -2.22176 0
M  V30 35 H 0.068106 -1.1629 -1.52454 0
M  V30 36 H -1.55852 -1.60783 -2.08796 0
M  V30 END ATOM
M  V30 BEGIN BOND
M  V30 1 1 1 2
M  V30 2 2 2 3
M  V30 3 1 3 4
M  V30 4 2 4 5
M  V30 5 1 5 6
M  V30 6 2 6 7
M  V30 7 1 5 8
M  V30 8 2 8 9
M  V30 9 1 9 10
M  V30 10 1 10 11
M  V30 11 2 11 12
M  V30 12 1 11 13
M  V30 13 2 13 14
M  V30 14 1 14 15
M  V30 15 2 15 16
M  V30 16 1 16 17
M  V30 17 2 17 18
M  V30 18 1 16 19
M  V30 19 1 8 20
M  V30 20 1 7 2
M  V30 21 1 18 13
M  V30 22 1 1 21
M  V30 23 1 1 22
M  V30 24 1 3 23
M  V30 25 1 4 24
M  V30 26 1 6 25
M  V30 27 1 7 26
M  V30 28 1 10 27
M  V30 29 1 14 28
M  V30 30 1 15 29
M  V30 31 1 17 30
M  V30 32 1 18 31
M  V30 33 1 19 32
M  V30 34 1 19 33
M  V30 35 1 20 34
M  V30 36 1 20 35
M  V30 37 1 20 36
M  V30 END BOND
M  V30 END CTAB
M  END
