
     RDKit          3D

  0  0  0  0  0  0  0  0  0  0999 V3000
M  V30 BEGIN CTAB
M  V30 COUNTS 29 29 0 0 0
M  V30 BEGIN ATOM
M  V30 1 N 3.45287 0.317186 2.12754 0
M  V30 2 C 2.66474 0.150936 0.956338 0
M  V30 3 C 1.37639 -0.360737 1.00493 0
M  V30 4 C 0.618547 -0.51789 -0.143347 0
M  V30 5 N 1.20842 -0.145811 -1.29318 0
M  V30 6 C 2.47716 0.354961 -1.31551 0
M  V30 7 N 3.22431 0.513322 -0.2115 0
M  V30 8 N 2.97928 0.710067 -2.60822 0
M  V30 9 C -0.744526 -1.05437 -0.131686 0
M  V30 10 C -1.81407 -0.00949552 0.0283877 0
M  V30 11 C -1.8072 1.01238 -1.06891 0
M  V30 12 C -3.15673 -0.748338 -0.0697788 0
M  V30 13 C -1.79359 0.686226 1.34574 0
M  V30 14 H 4.0248 1.18322 2.20251 0
M  V30 15 H 3.47933 -0.372182 2.88929 0
M  V30 16 H 0.995951 -0.627303 1.96416 0
M  V30 17 H 3.30301 -0.0308042 -3.28526 0
M  V30 18 H 3.00108 1.73062 -2.82642 0
M  V30 19 H -0.904201 -1.79922 0.693377 0
M  V30 20 H -0.986151 -1.61249 -1.06667 0
M  V30 21 H -1.5217 0.603919 -2.04495 0
M  V30 22 H -2.84764 1.44286 -1.11002 0
M  V30 23 H -1.12991 1.86978 -0.796705 0
M  V30 24 H -3.52994 -1.03896 0.929375 0
M  V30 25 H -3.92599 -0.10849 -0.558864 0
M  V30 26 H -3.06083 -1.65203 -0.694716 0
M  V30 27 H -1.54112 0.0287907 2.20453 0
M  V30 28 H -2.85085 1.02894 1.55221 0
M  V30 29 H -1.19143 1.61409 1.32736 0
M  V30 END ATOM
M  V30 BEGIN BOND
M  V30 1 1 1 2
M  V30 2 2 2 3
M  V30 3 1 3 4
M  V30 4 2 4 5
M  V30 5 1 5 6
M  V30 6 2 6 7
M  V30 7 1 6 8
M  V30 8 1 4 9
M  V30 9 1 9 10
M  V30 10 1 10 11
M  V30 11 1 10 12
M  V30 12 1 10 13
M  V30 13 1 7 2
M  V30 14 1 1 14
M  V30 15 1 1 15
M  V30 16 1 3 16
M  V30 17 1 8 17
M  V30 18 1 8 18
M  V30 19 1 9 19
M  V30 20 1 9 20
M  V30 21 1 11 21
M  V30 22 1 11 22
M  V30 23 1 11 23
M  V30 24 1 12 24
M  V30 25 1 12 25
M  V30 26 1 12 26
M  V30 27 1 13 27
M  V30 28 1 13 28
M  V30 29 1 13 29
M  V30 END BOND
M  V30 END CTAB
M  END
