
     RDKit          3D

  0  0  0  0  0  0  0  0  0  0999 V3000
M  V30 BEGIN CTAB
M  V30 COUNTS 32 34 0 0 0
M  V30 BEGIN ATOM
M  V30 1 N -2.76768 2.79091 0.0439314 0
M  V30 2 C -2.60651 1.3856 -0.0980021 0
M  V30 3 N -1.43664 0.770494 0.174386 0
M  V30 4 C -1.30704 -0.559009 0.0331134 0
M  V30 5 C -2.38067 -1.33033 -0.398435 0
M  V30 6 N -1.95419 -2.59832 -0.441031 0
M  V30 7 C -0.647126 -2.61792 -0.0459758 0
M  V30 8 N -0.260702 -1.37646 0.240373 0
M  V30 9 C 1.02334 -0.966182 0.686839 0 CFG=1
M  V30 10 C 1.95727 -0.601849 -0.464188 0
M  V30 11 C 3.043 0.0910363 0.333839 0 CFG=1
M  V30 12 C 3.90328 0.986881 -0.510955 0
M  V30 13 O 3.19661 1.99413 -1.13166 0
M  V30 14 C 2.19671 0.892502 1.29335 0
M  V30 15 C 1.04116 0.262503 1.47889 0
M  V30 16 C -3.57636 -0.697919 -0.676331 0
M  V30 17 N -4.66325 -1.4942 -1.11531 0
M  V30 18 N -3.6373 0.630909 -0.514257 0
M  V30 19 H -2.27509 3.44066 -0.562356 0
M  V30 20 H -3.40099 3.14304 0.781999 0
M  V30 21 H -0.0656184 -3.5117 0.00945858 0
M  V30 22 H 1.56862 -1.7502 1.26665 0
M  V30 23 H 1.43612 0.100819 -1.14979 0
M  V30 24 H 2.32459 -1.50361 -0.987926 0
M  V30 25 H 3.65134 -0.661517 0.835937 0
M  V30 26 H 4.63337 1.46972 0.17233 0
M  V30 27 H 4.48128 0.365363 -1.2043 0
M  V30 28 H 3.8307 2.4228 -1.78456 0
M  V30 29 H 2.54434 1.83097 1.72598 0
M  V30 30 H 0.267666 0.647603 2.1292 0
M  V30 31 H -5.42293 -1.72927 -0.41952 0
M  V30 32 H -4.6973 -1.82744 -2.09045 0
M  V30 END ATOM
M  V30 BEGIN BOND
M  V30 1 1 1 2
M  V30 2 2 2 3
M  V30 3 1 3 4
M  V30 4 2 4 5
M  V30 5 1 5 6
M  V30 6 2 6 7
M  V30 7 1 7 8
M  V30 8 1 8 9
M  V30 9 1 9 10
M  V30 10 1 10 11
M  V30 11 1 11 12
M  V30 12 1 12 13
M  V30 13 1 11 14
M  V30 14 2 14 15
M  V30 15 1 5 16
M  V30 16 1 16 17
M  V30 17 2 16 18
M  V30 18 1 18 2
M  V30 19 1 8 4
M  V30 20 1 15 9
M  V30 21 1 1 19
M  V30 22 1 1 20
M  V30 23 1 7 21
M  V30 24 1 9 22 CFG=1
M  V30 25 1 10 23
M  V30 26 1 10 24
M  V30 27 1 11 25 CFG=1
M  V30 28 1 12 26
M  V30 29 1 12 27
M  V30 30 1 13 28
M  V30 31 1 14 29
M  V30 32 1 15 30
M  V30 33 1 17 31
M  V30 34 1 17 32
M  V30 END BOND
M  V30 END CTAB
M  END
