
     RDKit          3D

  0  0  0  0  0  0  0  0  0  0999 V3000
M  V30 BEGIN CTAB
M  V30 COUNTS 24 23 0 0 0
M  V30 BEGIN ATOM
M  V30 1 N 2.88735 -0.0278701 0.52273 0
M  V30 2 C 1.5401 0.467339 0.743526 0
M  V30 3 C 0.609672 -0.363448 -0.0843575 0 CFG=1
M  V30 4 C -0.834775 0.0397625 0.0455759 0
M  V30 5 C -1.25765 -0.101763 1.49353 0
M  V30 6 C -1.13286 1.40366 -0.474359 0
M  V30 7 C -1.66089 -0.958335 -0.746915 0
M  V30 8 N 0.944981 -0.394518 -1.47655 0
M  V30 9 H 3.29974 0.408687 -0.332852 0
M  V30 10 H 2.92794 -1.04878 0.431862 0
M  V30 11 H 1.54222 1.53102 0.486356 0
M  V30 12 H 1.26944 0.318445 1.81223 0
M  V30 13 H 0.675814 -1.41264 0.318271 0
M  V30 14 H -2.36471 0.0697132 1.56599 0
M  V30 15 H -0.726016 0.63558 2.09253 0
M  V30 16 H -1.01753 -1.11775 1.85857 0
M  V30 17 H -1.41404 2.05671 0.391181 0
M  V30 18 H -2.02871 1.423 -1.14578 0
M  V30 19 H -0.307912 1.87452 -1.03373 0
M  V30 20 H -1.28657 -1.08895 -1.78127 0
M  V30 21 H -1.66213 -1.94605 -0.225785 0
M  V30 22 H -2.6947 -0.56317 -0.832576 0
M  V30 23 H 0.894497 -1.34455 -1.90062 0
M  V30 24 H 1.79675 0.139391 -1.72755 0
M  V30 END ATOM
M  V30 BEGIN BOND
M  V30 1 1 1 2
M  V30 2 1 2 3
M  V30 3 1 3 4
M  V30 4 1 4 5
M  V30 5 1 4 6
M  V30 6 1 4 7
M  V30 7 1 3 8
M  V30 8 1 1 9
M  V30 9 1 1 10
M  V30 10 1 2 11
M  V30 11 1 2 12
M  V30 12 1 3 13 CFG=1
M  V30 13 1 5 14
M  V30 14 1 5 15
M  V30 15 1 5 16
M  V30 16 1 6 17
M  V30 17 1 6 18
M  V30 18 1 6 19
M  V30 19 1 7 20
M  V30 20 1 7 21
M  V30 21 1 7 22
M  V30 22 1 8 23
M  V30 23 1 8 24
M  V30 END BOND
M  V30 END CTAB
M  END
