
     RDKit          3D

  0  0  0  0  0  0  0  0  0  0999 V3000
M  V30 BEGIN CTAB
M  V30 COUNTS 31 31 0 0 0
M  V30 BEGIN ATOM
M  V30 1 C -1.75273 1.98822 0.331292 0
M  V30 2 C -1.29952 0.623679 -0.130572 0
M  V30 3 C -2.381 -0.417546 0.00907992 0
M  V30 4 C -2.85665 -0.601856 1.41398 0
M  V30 5 C -3.58028 -0.069075 -0.847609 0
M  V30 6 O -0.102225 0.230699 0.504634 0
M  V30 7 C 1.05427 0.0322941 -0.227173 0
M  V30 8 N 1.03142 0.219879 -1.57622 0
M  V30 9 C 2.12734 0.0405668 -2.33422 0
M  V30 10 C 3.32748 -0.342756 -1.77638 0
M  V30 11 C 3.40231 -0.542583 -0.435566 0
M  V30 12 C 2.24207 -0.346414 0.319931 0
M  V30 13 N 2.33372 -0.55774 1.71396 0
M  V30 14 N 4.61202 -0.937849 0.192511 0
M  V30 15 H -1.68926 2.75738 -0.468462 0
M  V30 16 H -1.09034 2.27933 1.19909 0
M  V30 17 H -2.77399 2.00502 0.71848 0
M  V30 18 H -1.08422 0.71403 -1.214 0
M  V30 19 H -1.99257 -1.3919 -0.345823 0
M  V30 20 H -3.43885 -1.56445 1.43851 0
M  V30 21 H -2.03606 -0.729002 2.14605 0
M  V30 22 H -3.57299 0.192071 1.68247 0
M  V30 23 H -3.63473 1.04744 -0.868981 0
M  V30 24 H -4.49358 -0.442585 -0.36189 0
M  V30 25 H -3.48773 -0.493648 -1.869 0
M  V30 26 H 2.08352 0.196184 -3.40601 0
M  V30 27 H 4.21116 -0.485197 -2.40356 0
M  V30 28 H 1.47104 -0.716519 2.27955 0
M  V30 29 H 3.23723 -0.566465 2.23675 0
M  V30 30 H 5.24056 -1.69968 -0.133824 0
M  V30 31 H 4.89259 -0.421522 1.05127 0
M  V30 END ATOM
M  V30 BEGIN BOND
M  V30 1 1 1 2
M  V30 2 1 2 3
M  V30 3 1 3 4
M  V30 4 1 3 5
M  V30 5 1 2 6
M  V30 6 1 6 7
M  V30 7 2 7 8
M  V30 8 1 8 9
M  V30 9 2 9 10
M  V30 10 1 10 11
M  V30 11 2 11 12
M  V30 12 1 12 13
M  V30 13 1 11 14
M  V30 14 1 12 7
M  V30 15 1 1 15
M  V30 16 1 1 16
M  V30 17 1 1 17
M  V30 18 1 2 18
M  V30 19 1 3 19
M  V30 20 1 4 20
M  V30 21 1 4 21
M  V30 22 1 4 22
M  V30 23 1 5 23
M  V30 24 1 5 24
M  V30 25 1 5 25
M  V30 26 1 9 26
M  V30 27 1 10 27
M  V30 28 1 13 28
M  V30 29 1 13 29
M  V30 30 1 14 30
M  V30 31 1 14 31
M  V30 END BOND
M  V30 END CTAB
M  END
