
     RDKit          3D

  0  0  0  0  0  0  0  0  0  0999 V3000
M  V30 BEGIN CTAB
M  V30 COUNTS 27 28 0 0 0
M  V30 BEGIN ATOM
M  V30 1 N -3.98386 2.01859 0.223063 0
M  V30 2 N -3.22106 0.868267 0.0220066 0
M  V30 3 C -1.79878 0.887565 0.0458638 0
M  V30 4 O -1.22756 1.98283 0.255259 0
M  V30 5 C -1.02427 -0.35981 -0.172971 0
M  V30 6 C -1.52278 -1.61806 0.542394 0
M  V30 7 C -1.66743 -1.45458 -0.903189 0
M  V30 8 C 0.444879 -0.220543 -0.100676 0
M  V30 9 C 1.24156 -0.783497 -1.07324 0
M  V30 10 C 2.59669 -0.641399 -0.971627 0
M  V30 11 C 3.13931 0.048754 0.0795698 0
M  V30 12 C 2.34216 0.609746 1.04841 0
M  V30 13 C 0.975783 0.480446 0.969202 0
M  V30 14 N 4.55477 0.192534 0.175644 0
M  V30 15 H -3.54913 2.80731 -0.296239 0
M  V30 16 H -4.1021 2.26068 1.22706 0
M  V30 17 H -3.71888 -0.0247229 -0.151548 0
M  V30 18 H -0.788412 -2.36972 0.896897 0
M  V30 19 H -2.33793 -1.4239 1.26919 0
M  V30 20 H -1.01731 -2.07256 -1.56655 0
M  V30 21 H -2.69038 -1.3526 -1.31513 0
M  V30 22 H 0.846614 -1.32228 -1.8952 0
M  V30 23 H 3.22041 -1.08009 -1.73016 0
M  V30 24 H 2.81064 1.15391 1.87244 0
M  V30 25 H 0.371233 0.929678 1.7505 0
M  V30 26 H 5.02829 -0.108299 1.05277 0
M  V30 27 H 5.07755 0.591743 -0.631795 0
M  V30 END ATOM
M  V30 BEGIN BOND
M  V30 1 1 1 2
M  V30 2 1 2 3
M  V30 3 2 3 4
M  V30 4 1 3 5
M  V30 5 1 5 6
M  V30 6 1 6 7
M  V30 7 1 5 8
M  V30 8 2 8 9
M  V30 9 1 9 10
M  V30 10 2 10 11
M  V30 11 1 11 12
M  V30 12 2 12 13
M  V30 13 1 11 14
M  V30 14 1 7 5
M  V30 15 1 13 8
M  V30 16 1 1 15
M  V30 17 1 1 16
M  V30 18 1 2 17
M  V30 19 1 6 18
M  V30 20 1 6 19
M  V30 21 1 7 20
M  V30 22 1 7 21
M  V30 23 1 9 22
M  V30 24 1 10 23
M  V30 25 1 12 24
M  V30 26 1 13 25
M  V30 27 1 14 26
M  V30 28 1 14 27
M  V30 END BOND
M  V30 END CTAB
M  END
