
     RDKit          3D

  0  0  0  0  0  0  0  0  0  0999 V3000
M  V30 BEGIN CTAB
M  V30 COUNTS 27 27 0 0 0
M  V30 BEGIN ATOM
M  V30 1 N 4.57774 0.0353695 1.06639 0
M  V30 2 C 3.22574 -0.145578 0.652302 0
M  V30 3 C 2.73361 0.598725 -0.403732 0
M  V30 4 C 1.43445 0.463241 -0.844402 0
M  V30 5 C 0.633242 -0.452559 -0.186137 0
M  V30 6 C 1.13192 -1.19223 0.86743 0
M  V30 7 C 2.43423 -1.06079 1.31418 0
M  V30 8 C -0.76513 -0.588349 -0.681033 0
M  V30 9 N -1.55987 0.601652 -0.477128 0
M  V30 10 S -2.40687 0.603318 1.02117 0
M  V30 11 O -2.64481 2.02478 1.50326 0
M  V30 12 O -1.65123 -0.137986 2.08051 0
M  V30 13 N -3.9675 -0.115357 0.877003 0
M  V30 14 C -2.48551 0.851985 -1.54138 0
M  V30 15 H 4.9966 -0.570696 1.79795 0
M  V30 16 H 5.16231 0.778479 0.63966 0
M  V30 17 H 3.36555 1.32714 -0.929726 0
M  V30 18 H 1.06736 1.05877 -1.67721 0
M  V30 19 H 0.502027 -1.91239 1.37879 0
M  V30 20 H 2.83564 -1.63672 2.14072 0
M  V30 21 H -0.804299 -0.946355 -1.73102 0
M  V30 22 H -1.24702 -1.40257 -0.0717939 0
M  V30 23 H -3.93892 -1.16078 0.985287 0
M  V30 24 H -4.44737 0.106363 -0.00365489 0
M  V30 25 H -3.16205 1.67403 -1.20448 0
M  V30 26 H -3.04139 -0.0503017 -1.86682 0
M  V30 27 H -1.97845 1.24881 -2.45863 0
M  V30 END ATOM
M  V30 BEGIN BOND
M  V30 1 1 1 2
M  V30 2 2 2 3
M  V30 3 1 3 4
M  V30 4 2 4 5
M  V30 5 1 5 6
M  V30 6 2 6 7
M  V30 7 1 5 8
M  V30 8 1 8 9
M  V30 9 1 9 10
M  V30 10 2 10 11
M  V30 11 2 10 12
M  V30 12 1 10 13
M  V30 13 1 9 14
M  V30 14 1 7 2
M  V30 15 1 1 15
M  V30 16 1 1 16
M  V30 17 1 3 17
M  V30 18 1 4 18
M  V30 19 1 6 19
M  V30 20 1 7 20
M  V30 21 1 8 21
M  V30 22 1 8 22
M  V30 23 1 13 23
M  V30 24 1 13 24
M  V30 25 1 14 25
M  V30 26 1 14 26
M  V30 27 1 14 27
M  V30 END BOND
M  V30 END CTAB
M  END
