
     RDKit          3D

  0  0  0  0  0  0  0  0  0  0999 V3000
M  V30 BEGIN CTAB
M  V30 COUNTS 20 20 0 0 0
M  V30 BEGIN ATOM
M  V30 1 N -1.75282 -1.21425 2.13194 0
M  V30 2 C -0.890404 -0.776352 1.10503 0
M  V30 3 C 0.419645 -1.20009 1.0634 0
M  V30 4 C 1.22441 -0.750136 0.0475413 0
M  V30 5 N 2.56445 -1.18545 0.00755048 0
M  V30 6 C 0.77272 0.106122 -0.928265 0
M  V30 7 S 1.91647 0.616127 -2.19146 0
M  V30 8 C 2.71387 2.0927 -1.61419 0
M  V30 9 N 3.23267 3.05131 -1.22007 0
M  V30 10 C -0.539302 0.525734 -0.879935 0
M  V30 11 C -1.37479 0.0806324 0.143998 0
M  V30 12 S -3.06335 0.624615 0.200577 0
M  V30 13 C -3.43454 1.70552 -1.12758 0
M  V30 14 N -3.6928 2.4261 -1.99154 0
M  V30 15 H -1.99541 -2.21341 2.25111 0
M  V30 16 H -2.15993 -0.526782 2.78993 0
M  V30 17 H 0.761926 -1.87041 1.83277 0
M  V30 18 H 3.25389 -0.802662 0.691373 0
M  V30 19 H 2.9379 -1.88296 -0.672501 0
M  V30 20 H -0.89459 1.19365 -1.63967 0
M  V30 END ATOM
M  V30 BEGIN BOND
M  V30 1 1 1 2
M  V30 2 2 2 3
M  V30 3 1 3 4
M  V30 4 1 4 5
M  V30 5 2 4 6
M  V30 6 1 6 7
M  V30 7 1 7 8
M  V30 8 3 8 9
M  V30 9 1 6 10
M  V30 10 2 10 11
M  V30 11 1 11 12
M  V30 12 1 12 13
M  V30 13 3 13 14
M  V30 14 1 11 2
M  V30 15 1 1 15
M  V30 16 1 1 16
M  V30 17 1 3 17
M  V30 18 1 5 18
M  V30 19 1 5 19
M  V30 20 1 10 20
M  V30 END BOND
M  V30 END CTAB
M  END
