
     RDKit          3D

  0  0  0  0  0  0  0  0  0  0999 V3000
M  V30 BEGIN CTAB
M  V30 COUNTS 29 28 0 0 0
M  V30 BEGIN ATOM
M  V30 1 C 4.38387 1.17076 -0.00448322 0
M  V30 2 N 3.05072 0.978335 0.484362 0
M  V30 3 C 2.63997 -0.202087 0.807504 0
M  V30 4 N 3.54116 -1.27525 0.662223 0
M  V30 5 N 1.29454 -0.372773 1.29713 0
M  V30 6 C 0.259544 -0.632857 0.322832 0
M  V30 7 C -1.05611 -0.777638 1.0359 0
M  V30 8 C -2.21183 -1.04663 0.144647 0
M  V30 9 C -2.41453 0.0533018 -0.857218 0
M  V30 10 N -3.57286 -0.302968 -1.72757 0
M  V30 11 C -2.72977 1.32057 -0.167417 0
M  V30 12 O -4.0114 1.89969 -0.267944 0
M  V30 13 O -1.91695 1.93665 0.521002 0
M  V30 14 H 4.42477 1.09878 -1.12667 0
M  V30 15 H 4.68013 2.22677 0.261228 0
M  V30 16 H 5.13932 0.517693 0.432252 0
M  V30 17 H 4.06804 -1.49751 -0.214624 0
M  V30 18 H 3.70842 -1.90527 1.47735 0
M  V30 19 H 1.0964 -0.307199 2.32078 0
M  V30 20 H 0.511638 -1.5252 -0.289849 0
M  V30 21 H 0.193447 0.219476 -0.371826 0
M  V30 22 H -0.901963 -1.67507 1.72848 0
M  V30 23 H -1.17786 0.0550894 1.74773 0
M  V30 24 H -2.13675 -2.05207 -0.353588 0
M  V30 25 H -3.14759 -1.10614 0.764998 0
M  V30 26 H -1.50744 0.148783 -1.47882 0
M  V30 27 H -3.65812 0.536543 -2.36702 0
M  V30 28 H -4.41661 -0.325779 -1.11224 0
M  V30 29 H -4.13217 2.84201 -0.609193 0
M  V30 END ATOM
M  V30 BEGIN BOND
M  V30 1 1 1 2
M  V30 2 2 2 3
M  V30 3 1 3 4
M  V30 4 1 3 5
M  V30 5 1 5 6
M  V30 6 1 6 7
M  V30 7 1 7 8
M  V30 8 1 8 9
M  V30 9 1 9 10
M  V30 10 1 9 11
M  V30 11 1 11 12
M  V30 12 2 11 13
M  V30 13 1 1 14
M  V30 14 1 1 15
M  V30 15 1 1 16
M  V30 16 1 4 17
M  V30 17 1 4 18
M  V30 18 1 5 19
M  V30 19 1 6 20
M  V30 20 1 6 21
M  V30 21 1 7 22
M  V30 22 1 7 23
M  V30 23 1 8 24
M  V30 24 1 8 25
M  V30 25 1 9 26
M  V30 26 1 10 27
M  V30 27 1 10 28
M  V30 28 1 12 29
M  V30 END BOND
M  V30 END CTAB
M  END
