
     RDKit          3D

  0  0  0  0  0  0  0  0  0  0999 V3000
M  V30 BEGIN CTAB
M  V30 COUNTS 28 28 0 0 0
M  V30 BEGIN ATOM
M  V30 1 N 1.55558 2.2874 0.647898 0
M  V30 2 C 1.91069 0.987082 0.19656 0
M  V30 3 C 3.19636 0.727559 -0.201985 0
M  V30 4 C 3.53761 -0.522037 -0.689036 0
M  V30 5 C 2.56237 -1.46933 -0.757191 0
M  V30 6 C 1.24749 -1.18719 -0.344629 0
M  V30 7 C 0.885574 0.0285444 0.138125 0
M  V30 8 C -0.415834 0.394334 0.651444 0
M  V30 9 C -1.6387 -0.278317 0.18084 0
M  V30 10 N -1.8513 -0.124979 -1.25214 0
M  V30 11 C -2.80427 0.559227 0.821444 0
M  V30 12 C -1.93164 -1.66186 0.605519 0
M  V30 13 F -0.361398 0.19482 2.07606 0
M  V30 14 H 1.52712 2.54441 1.65185 0
M  V30 15 H 1.30388 3.02993 -0.0502083 0
M  V30 16 H 3.96644 1.47137 -0.151695 0
M  V30 17 H 4.53362 -0.777601 -1.0197 0
M  V30 18 H 2.80679 -2.45636 -1.13658 0
M  V30 19 H 0.573771 -1.99624 -0.435743 0
M  V30 20 H -0.542789 1.52247 0.616838 0
M  V30 21 H -2.90693 -0.210099 -1.37071 0
M  V30 22 H -1.65398 0.887496 -1.50421 0
M  V30 23 H -2.543 0.671435 1.89676 0
M  V30 24 H -3.72126 -0.0397438 0.772167 0
M  V30 25 H -2.87071 1.53436 0.318132 0
M  V30 26 H -1.66728 -2.45204 -0.136156 0
M  V30 27 H -1.62308 -1.8817 1.62658 0
M  V30 28 H -3.07513 -1.78293 0.642936 0
M  V30 END ATOM
M  V30 BEGIN BOND
M  V30 1 1 1 2
M  V30 2 2 2 3
M  V30 3 1 3 4
M  V30 4 2 4 5
M  V30 5 1 5 6
M  V30 6 2 6 7
M  V30 7 1 7 8
M  V30 8 1 8 9
M  V30 9 1 9 10
M  V30 10 1 9 11
M  V30 11 1 9 12
M  V30 12 1 8 13
M  V30 13 1 7 2
M  V30 14 1 1 14
M  V30 15 1 1 15
M  V30 16 1 3 16
M  V30 17 1 4 17
M  V30 18 1 5 18
M  V30 19 1 6 19
M  V30 20 1 8 20
M  V30 21 1 10 21
M  V30 22 1 10 22
M  V30 23 1 11 23
M  V30 24 1 11 24
M  V30 25 1 11 25
M  V30 26 1 12 26
M  V30 27 1 12 27
M  V30 28 1 12 28
M  V30 END BOND
M  V30 END CTAB
M  END
