
     RDKit          3D

  0  0  0  0  0  0  0  0  0  0999 V3000
M  V30 BEGIN CTAB
M  V30 COUNTS 21 21 0 0 0
M  V30 BEGIN ATOM
M  V30 1 C -2.40874 1.27765 -0.172882 0
M  V30 2 C -1.16625 0.48043 -0.0797919 0
M  V30 3 C 0.0631934 1.10143 -0.0480691 0
M  V30 4 C 1.23891 0.393467 0.0380055 0
M  V30 5 C 2.5814 1.04121 0.0738958 0
M  V30 6 C 1.0881 -0.985248 0.0898887 0
M  V30 7 N -0.110441 -1.58902 0.0588984 0
M  V30 8 C -1.26172 -0.901606 -0.0251418 0
M  V30 9 N -2.53155 -1.55933 -0.0571636 0
M  V30 10 N 2.30605 -1.75035 0.180405 0
M  V30 11 H -2.557 1.83674 0.77948 0
M  V30 12 H -3.27831 0.633985 -0.323449 0
M  V30 13 H -2.37487 1.97727 -1.04428 0
M  V30 14 H 0.147179 2.19674 -0.0909824 0
M  V30 15 H 2.62831 1.79908 0.901006 0
M  V30 16 H 2.85194 1.45906 -0.893358 0
M  V30 17 H 3.31331 0.250829 0.377019 0
M  V30 18 H -2.67216 -2.29925 -0.768473 0
M  V30 19 H -3.31145 -1.33787 0.586757 0
M  V30 20 H 3.04457 -1.57225 -0.520324 0
M  V30 21 H 2.40952 -2.45297 0.938557 0
M  V30 END ATOM
M  V30 BEGIN BOND
M  V30 1 1 1 2
M  V30 2 2 2 3
M  V30 3 1 3 4
M  V30 4 1 4 5
M  V30 5 2 4 6
M  V30 6 1 6 7
M  V30 7 2 7 8
M  V30 8 1 8 9
M  V30 9 1 6 10
M  V30 10 1 8 2
M  V30 11 1 1 11
M  V30 12 1 1 12
M  V30 13 1 1 13
M  V30 14 1 3 14
M  V30 15 1 5 15
M  V30 16 1 5 16
M  V30 17 1 5 17
M  V30 18 1 9 18
M  V30 19 1 9 19
M  V30 20 1 10 20
M  V30 21 1 10 21
M  V30 END BOND
M  V30 END CTAB
M  END
