
     RDKit          3D

  0  0  0  0  0  0  0  0  0  0999 V3000
M  V30 BEGIN CTAB
M  V30 COUNTS 17 18 0 0 0
M  V30 BEGIN ATOM
M  V30 1 N -0.942392 -0.25318 -1.43533 0
M  V30 2 N -0.779324 0.046223 -0.083374 0
M  V30 3 C -1.78168 0.332556 0.763798 0
M  V30 4 N -3.17872 0.392632 0.484842 0
M  V30 5 N -1.19177 0.555666 1.95152 0
M  V30 6 N 0.119625 0.407463 1.81806 0
M  V30 7 C 0.410681 0.0869452 0.549939 0
M  V30 8 C 1.75711 -0.167497 -0.027556 0
M  V30 9 C 2.89349 -0.0907807 0.740099 0
M  V30 10 S 4.10225 -0.464477 -0.403824 0
M  V30 11 N 3.11512 -0.687671 -1.7448 0
M  V30 12 N 1.92644 -0.474336 -1.28364 0
M  V30 13 H -0.5246 -1.11214 -1.85465 0
M  V30 14 H -1.48516 0.366943 -2.07451 0
M  V30 15 H -3.73768 -0.410726 0.17791 0
M  V30 16 H -3.64754 1.31764 0.604832 0
M  V30 17 H 2.94414 0.154739 1.81669 0
M  V30 END ATOM
M  V30 BEGIN BOND
M  V30 1 1 1 2
M  V30 2 1 2 3
M  V30 3 1 3 4
M  V30 4 2 3 5
M  V30 5 1 5 6
M  V30 6 2 6 7
M  V30 7 1 7 8
M  V30 8 2 8 9
M  V30 9 1 9 10
M  V30 10 1 10 11
M  V30 11 2 11 12
M  V30 12 1 7 2
M  V30 13 1 12 8
M  V30 14 1 1 13
M  V30 15 1 1 14
M  V30 16 1 4 15
M  V30 17 1 4 16
M  V30 18 1 9 17
M  V30 END BOND
M  V30 END CTAB
M  END
