
     RDKit          3D

  0  0  0  0  0  0  0  0  0  0999 V3000
M  V30 BEGIN CTAB
M  V30 COUNTS 49 50 0 0 0
M  V30 BEGIN ATOM
M  V30 1 N -5.74721 2.59633 -0.263076 0
M  V30 2 C -6.00105 1.19044 -0.166456 0
M  V30 3 C -4.76026 0.352597 -0.255245 0
M  V30 4 C -5.09172 -1.10623 -0.14785 0
M  V30 5 C -3.95568 0.573571 -1.4966 0
M  V30 6 C -2.59813 0.0227123 -1.11524 0
M  V30 7 N -2.49965 0.112974 0.311683 0
M  V30 8 C -3.75099 0.674032 0.824228 0
M  V30 9 C -1.40589 -0.262808 1.13485 0
M  V30 10 O -1.45128 -0.129066 2.38088 0
M  V30 11 C -0.165882 -0.829532 0.545406 0
M  V30 12 C 0.795219 -1.14283 1.64695 0
M  V30 13 N 2.04998 -1.69798 1.18965 0
M  V30 14 C 3.03342 -0.978722 0.467977 0
M  V30 15 C 2.94139 0.401012 0.308465 0
M  V30 16 C 3.8913 1.14203 -0.342592 0
M  V30 17 C 4.98045 0.497027 -0.859128 0
M  V30 18 C 5.10068 -0.85979 -0.719069 0
M  V30 19 C 4.12156 -1.61799 -0.0498817 0
M  V30 20 N 4.37723 -3.01618 0.0157187 0 CHG=1
M  V30 21 O 3.53559 -3.9087 -0.0243502 0
M  V30 22 O 5.71239 -3.40685 0.106423 0 CHG=-1
M  V30 23 S 6.21455 1.41068 -1.69609 0
M  V30 24 O 6.80606 0.553233 -2.76118 0
M  V30 25 O 5.57507 2.62973 -2.29689 0
M  V30 26 N 7.38422 1.89636 -0.516082 0
M  V30 27 H -5.12813 2.9863 0.460629 0
M  V30 28 H -5.61196 2.95664 -1.21699 0
M  V30 29 H -6.68992 0.892447 -0.956431 0
M  V30 30 H -6.44065 0.997905 0.848114 0
M  V30 31 H -4.78185 -1.67623 -1.05737 0
M  V30 32 H -4.61582 -1.58657 0.74762 0
M  V30 33 H -6.18871 -1.29625 -0.0479567 0
M  V30 34 H -3.84672 1.65737 -1.70049 0
M  V30 35 H -4.38696 0.0200237 -2.37334 0
M  V30 36 H -1.8018 0.654674 -1.60371 0
M  V30 37 H -2.48439 -1.03741 -1.48335 0
M  V30 38 H -3.58311 1.7519 0.960093 0
M  V30 39 H -4.01582 0.219793 1.80101 0
M  V30 40 H -0.430375 -1.77105 -0.000322857 0
M  V30 41 H 0.247496 -0.150362 -0.21669 0
M  V30 42 H 1.08297 -0.216062 2.22154 0
M  V30 43 H 0.294162 -1.78984 2.371 0
M  V30 44 H 2.2186 -2.68637 1.43082 0
M  V30 45 H 2.0858 0.930375 0.72484 0
M  V30 46 H 3.80543 2.23247 -0.462051 0
M  V30 47 H 5.97584 -1.33584 -1.14046 0
M  V30 48 H 8.22631 1.27344 -0.581472 0
M  V30 49 H 6.97823 1.87661 0.454885 0
M  V30 END ATOM
M  V30 BEGIN BOND
M  V30 1 1 1 2
M  V30 2 1 2 3
M  V30 3 1 3 4
M  V30 4 1 3 5
M  V30 5 1 5 6
M  V30 6 1 6 7
M  V30 7 1 7 8
M  V30 8 1 7 9
M  V30 9 2 9 10
M  V30 10 1 9 11
M  V30 11 1 11 12
M  V30 12 1 12 13
M  V30 13 1 13 14
M  V30 14 2 14 15
M  V30 15 1 15 16
M  V30 16 2 16 17
M  V30 17 1 17 18
M  V30 18 2 18 19
M  V30 19 1 19 20
M  V30 20 2 20 21
M  V30 21 1 20 22
M  V30 22 1 17 23
M  V30 23 2 23 24
M  V30 24 2 23 25
M  V30 25 1 23 26
M  V30 26 1 8 3
M  V30 27 1 19 14
M  V30 28 1 1 27
M  V30 29 1 1 28
M  V30 30 1 2 29
M  V30 31 1 2 30
M  V30 32 1 4 31
M  V30 33 1 4 32
M  V30 34 1 4 33
M  V30 35 1 5 34
M  V30 36 1 5 35
M  V30 37 1 6 36
M  V30 38 1 6 37
M  V30 39 1 8 38
M  V30 40 1 8 39
M  V30 41 1 11 40
M  V30 42 1 11 41
M  V30 43 1 12 42
M  V30 44 1 12 43
M  V30 45 1 13 44
M  V30 46 1 15 45
M  V30 47 1 16 46
M  V30 48 1 18 47
M  V30 49 1 26 48
M  V30 50 1 26 49
M  V30 END BOND
M  V30 END CTAB
M  END
