
     RDKit          3D

  0  0  0  0  0  0  0  0  0  0999 V3000
M  V30 BEGIN CTAB
M  V30 COUNTS 44 45 0 0 0
M  V30 BEGIN ATOM
M  V30 1 C -5.87132 -0.420777 -0.760265 0
M  V30 2 C -5.08483 -0.154137 0.515023 0
M  V30 3 C -5.77787 0.830133 1.38652 0
M  V30 4 N -4.93403 -1.42318 1.19276 0
M  V30 5 C -3.72025 0.334009 0.195008 0
M  V30 6 C -3.57002 1.40777 -0.674788 0
M  V30 7 C -2.32358 1.85729 -1.04168 0
M  V30 8 C -1.17649 1.22529 -0.529074 0
M  V30 9 C -1.28007 0.18565 0.315635 0
M  V30 10 C -0.158626 -0.628118 0.830368 0
M  V30 11 S 1.2704 0.297379 1.37782 0
M  V30 12 C 2.32838 0.752363 -0.0413285 0
M  V30 13 C 3.02459 -0.463014 -0.594839 0
M  V30 14 N 4.1271 -0.970311 0.194898 0
M  V30 15 C 5.39794 -0.218958 0.0319602 0
M  V30 16 N 5.43073 1.04308 -0.0469509 0
M  V30 17 S 7.08679 1.47214 -0.236573 0
M  V30 18 O 7.56469 2.31001 0.876409 0
M  V30 19 O 7.33672 2.10782 -1.58722 0
M  V30 20 N 7.70433 -0.141541 -0.196259 0
M  V30 21 C 6.67532 -0.895491 -0.0484741 0
M  V30 22 N 6.78429 -2.35247 0.0197846 0
M  V30 23 C -2.58801 -0.255946 0.67607 0
M  V30 24 H -5.30078 -1.18189 -1.3174 0
M  V30 25 H -6.85169 -0.816234 -0.516077 0
M  V30 26 H -5.92243 0.461435 -1.42808 0
M  V30 27 H -5.05414 1.47061 1.92719 0
M  V30 28 H -6.44278 1.53685 0.802904 0
M  V30 29 H -6.40182 0.306909 2.16577 0
M  V30 30 H -5.69394 -1.66833 1.83838 0
M  V30 31 H -4.66267 -2.17543 0.529187 0
M  V30 32 H -4.45437 1.90787 -1.07629 0
M  V30 33 H -2.16746 2.70345 -1.71289 0
M  V30 34 H -0.222216 1.61418 -0.829203 0
M  V30 35 H -0.539029 -1.23889 1.70094 0
M  V30 36 H 0.0818184 -1.37022 0.0293179 0
M  V30 37 H 3.04493 1.50211 0.397719 0
M  V30 38 H 1.75438 1.19753 -0.82803 0
M  V30 39 H 2.24833 -1.27361 -0.652581 0
M  V30 40 H 3.35872 -0.331793 -1.64079 0
M  V30 41 H 4.05257 -1.77978 0.816784 0
M  V30 42 H 7.21726 -2.87188 -0.751402 0
M  V30 43 H 6.41505 -2.80308 0.880106 0
M  V30 44 H -2.7059 -1.08881 1.35392 0
M  V30 END ATOM
M  V30 BEGIN BOND
M  V30 1 1 1 2
M  V30 2 1 2 3
M  V30 3 1 2 4
M  V30 4 1 2 5
M  V30 5 2 5 6
M  V30 6 1 6 7
M  V30 7 2 7 8
M  V30 8 1 8 9
M  V30 9 1 9 10
M  V30 10 1 10 11
M  V30 11 1 11 12
M  V30 12 1 12 13
M  V30 13 1 13 14
M  V30 14 1 14 15
M  V30 15 2 15 16
M  V30 16 1 16 17
M  V30 17 2 17 18
M  V30 18 2 17 19
M  V30 19 1 17 20
M  V30 20 2 20 21
M  V30 21 1 21 22
M  V30 22 2 9 23
M  V30 23 1 23 5
M  V30 24 1 21 15
M  V30 25 1 1 24
M  V30 26 1 1 25
M  V30 27 1 1 26
M  V30 28 1 3 27
M  V30 29 1 3 28
M  V30 30 1 3 29
M  V30 31 1 4 30
M  V30 32 1 4 31
M  V30 33 1 6 32
M  V30 34 1 7 33
M  V30 35 1 8 34
M  V30 36 1 10 35
M  V30 37 1 10 36
M  V30 38 1 12 37
M  V30 39 1 12 38
M  V30 40 1 13 39
M  V30 41 1 13 40
M  V30 42 1 14 41
M  V30 43 1 22 42
M  V30 44 1 22 43
M  V30 45 1 23 44
M  V30 END BOND
M  V30 END CTAB
M  END
