
     RDKit          3D

  0  0  0  0  0  0  0  0  0  0999 V3000
M  V30 BEGIN CTAB
M  V30 COUNTS 40 41 0 0 0
M  V30 BEGIN ATOM
M  V30 1 C 0.842269 -3.72406 1.0339 0
M  V30 2 C 0.917961 -2.58455 0.0221367 0
M  V30 3 N 2.04078 -2.2531 -0.470408 0
M  V30 4 N 2.24428 -1.25185 -1.38405 0
M  V30 5 C 3.27977 -0.304278 -1.06005 0
M  V30 6 N 4.58776 -0.384796 -1.4268 0
M  V30 7 N 5.24852 0.641294 -0.961067 0
M  V30 8 C 4.38042 1.40185 -0.286056 0
M  V30 9 N 3.16228 0.813878 -0.349057 0
M  V30 10 N 2.01514 1.34112 0.253145 0
M  V30 11 C 4.71969 2.67063 0.405704 0
M  V30 12 C -0.315024 -1.9028 -0.353598 0
M  V30 13 N -0.455785 -0.955695 -1.15901 0
M  V30 14 N -1.50607 -0.232544 -1.60402 0
M  V30 15 C -2.72254 0.120597 -1.01618 0
M  V30 16 N -3.89312 -0.488942 -1.21525 0
M  V30 17 N -4.82566 0.107852 -0.502365 0
M  V30 18 C -4.24355 1.11655 0.164679 0
M  V30 19 N -2.94192 1.12195 -0.155349 0
M  V30 20 N -2.01895 2.04375 0.356791 0
M  V30 21 C -4.95965 2.05292 1.0972 0
M  V30 22 C -1.60253 -2.36691 0.285419 0
M  V30 23 H 0.16413 -4.51914 0.675684 0
M  V30 24 H 1.86535 -4.07089 1.23157 0
M  V30 25 H 0.486972 -3.23421 1.96276 0
M  V30 26 H 1.7317 -1.1385 -2.28037 0
M  V30 27 H 1.80028 1.02821 1.22579 0
M  V30 28 H 1.44059 2.00915 -0.289291 0
M  V30 29 H 5.39906 3.24507 -0.241022 0
M  V30 30 H 5.21284 2.38643 1.37149 0
M  V30 31 H 3.77201 3.23053 0.610729 0
M  V30 32 H -1.39699 0.155242 -2.61201 0
M  V30 33 H -2.11362 2.41285 1.32294 0
M  V30 34 H -1.23488 2.35738 -0.239543 0
M  V30 35 H -5.25009 2.99092 0.592294 0
M  V30 36 H -5.87357 1.55266 1.45479 0
M  V30 37 H -4.33485 2.25069 2.01345 0
M  V30 38 H -1.31956 -3.17453 1.02627 0
M  V30 39 H -2.24202 -2.87226 -0.435992 0
M  V30 40 H -2.06142 -1.59246 0.910063 0
M  V30 END ATOM
M  V30 BEGIN BOND
M  V30 1 1 1 2
M  V30 2 2 2 3
M  V30 3 1 3 4
M  V30 4 1 4 5
M  V30 5 2 5 6
M  V30 6 1 6 7
M  V30 7 2 7 8
M  V30 8 1 8 9
M  V30 9 1 9 10
M  V30 10 1 8 11
M  V30 11 1 2 12
M  V30 12 2 12 13
M  V30 13 1 13 14
M  V30 14 1 14 15
M  V30 15 2 15 16
M  V30 16 1 16 17
M  V30 17 2 17 18
M  V30 18 1 18 19
M  V30 19 1 19 20
M  V30 20 1 18 21
M  V30 21 1 12 22
M  V30 22 1 9 5
M  V30 23 1 19 15
M  V30 24 1 1 23
M  V30 25 1 1 24
M  V30 26 1 1 25
M  V30 27 1 4 26
M  V30 28 1 10 27
M  V30 29 1 10 28
M  V30 30 1 11 29
M  V30 31 1 11 30
M  V30 32 1 11 31
M  V30 33 1 14 32
M  V30 34 1 20 33
M  V30 35 1 20 34
M  V30 36 1 21 35
M  V30 37 1 21 36
M  V30 38 1 21 37
M  V30 39 1 22 38
M  V30 40 1 22 39
M  V30 41 1 22 40
M  V30 END BOND
M  V30 END CTAB
M  END
