
     RDKit          3D

  0  0  0  0  0  0  0  0  0  0999 V3000
M  V30 BEGIN CTAB
M  V30 COUNTS 45 47 0 0 0
M  V30 BEGIN ATOM
M  V30 1 N -4.41592 1.62856 3.32961 0
M  V30 2 C -3.6062 1.50241 2.15586 0
M  V30 3 C -3.82898 2.30286 1.05424 0
M  V30 4 C -3.0743 2.21493 -0.0948133 0
M  V30 5 C -2.05886 1.28371 -0.128591 0
M  V30 6 O -1.28778 1.18769 -1.28549 0
M  V30 7 C -0.289348 0.236496 -1.47493 0
M  V30 8 C 0.984359 0.424316 -0.98466 0
M  V30 9 N 1.31108 1.60573 -0.277093 0
M  V30 10 C 2.57456 1.90894 0.310579 0
M  V30 11 C 2.95579 0.995296 1.4308 0
M  V30 12 C 2.15824 0.119387 2.12876 0
M  V30 13 C 2.95194 -0.491066 3.05111 0
M  V30 14 C 4.20739 0.0273528 2.8911 0
M  V30 15 O 4.16416 0.891728 1.93415 0
M  V30 16 C 1.94847 -0.528536 -1.18703 0
M  V30 17 C 1.6978 -1.7117 -1.88329 0
M  V30 18 C 0.418116 -1.86369 -2.35704 0
M  V30 19 C -0.56929 -0.918272 -2.16654 0
M  V30 20 S -2.14075 -1.25357 -2.86303 0
M  V30 21 N -2.11672 -2.77179 -3.66276 0
M  V30 22 O -2.36569 -0.181766 -3.92117 0
M  V30 23 O -3.23623 -1.1342 -1.88422 0
M  V30 24 C 2.72789 -2.71062 -2.08863 0
M  V30 25 O 3.99215 -2.51663 -1.59771 0
M  V30 26 O 2.45147 -3.75037 -2.71778 0
M  V30 27 C -1.84594 0.482798 0.990849 0
M  V30 28 C -2.59271 0.567029 2.13311 0
M  V30 29 H -4.1027 1.37744 4.27871 0
M  V30 30 H -5.38112 2.00061 3.19145 0
M  V30 31 H -4.62874 3.04431 1.06596 0
M  V30 32 H -3.28046 2.87071 -0.956219 0
M  V30 33 H 0.536236 2.32853 -0.179704 0
M  V30 34 H 3.41055 1.89806 -0.421353 0
M  V30 35 H 2.5767 2.92551 0.74227 0
M  V30 36 H 1.10795 -0.0580579 1.98337 0
M  V30 37 H 2.69157 -1.24007 3.78412 0
M  V30 38 H 5.09971 -0.229196 3.45922 0
M  V30 39 H 2.98159 -0.431817 -0.826271 0
M  V30 40 H 0.222591 -2.79473 -2.90442 0
M  V30 41 H -1.76993 -3.50381 -2.97928 0
M  V30 42 H -1.3783 -2.7339 -4.40895 0
M  V30 43 H 4.28848 -2.69836 -0.647298 0
M  V30 44 H -1.05104 -0.253758 0.974321 0
M  V30 45 H -2.43776 -0.0484599 3.00869 0
M  V30 END ATOM
M  V30 BEGIN BOND
M  V30 1 1 1 2
M  V30 2 2 2 3
M  V30 3 1 3 4
M  V30 4 2 4 5
M  V30 5 1 5 6
M  V30 6 1 6 7
M  V30 7 1 7 8
M  V30 8 1 8 9
M  V30 9 1 9 10
M  V30 10 1 10 11
M  V30 11 2 11 12
M  V30 12 1 12 13
M  V30 13 2 13 14
M  V30 14 1 14 15
M  V30 15 2 8 16
M  V30 16 1 16 17
M  V30 17 2 17 18
M  V30 18 1 18 19
M  V30 19 1 19 20
M  V30 20 1 20 21
M  V30 21 2 20 22
M  V30 22 2 20 23
M  V30 23 1 17 24
M  V30 24 1 24 25
M  V30 25 2 24 26
M  V30 26 1 5 27
M  V30 27 2 27 28
M  V30 28 1 28 2
M  V30 29 2 19 7
M  V30 30 1 15 11
M  V30 31 1 1 29
M  V30 32 1 1 30
M  V30 33 1 3 31
M  V30 34 1 4 32
M  V30 35 1 9 33
M  V30 36 1 10 34
M  V30 37 1 10 35
M  V30 38 1 12 36
M  V30 39 1 13 37
M  V30 40 1 14 38
M  V30 41 1 16 39
M  V30 42 1 18 40
M  V30 43 1 21 41
M  V30 44 1 21 42
M  V30 45 1 25 43
M  V30 46 1 27 44
M  V30 47 1 28 45
M  V30 END BOND
M  V30 END CTAB
M  END
