
     RDKit          3D

  0  0  0  0  0  0  0  0  0  0999 V3000
M  V30 BEGIN CTAB
M  V30 COUNTS 25 26 0 0 0
M  V30 BEGIN ATOM
M  V30 1 N 4.13143 0.0132316 -1.20686 0
M  V30 2 C 2.81021 -0.495606 -1.05359 0
M  V30 3 N 2.19467 -1.38151 -1.85441 0
M  V30 4 N 0.976239 -1.59821 -1.3736 0
M  V30 5 C 0.778582 -0.867048 -0.265505 0
M  V30 6 N 1.93732 -0.188171 -0.0871985 0
M  V30 7 N 2.19878 0.708606 0.952607 0
M  V30 8 C -0.451112 -0.824186 0.571327 0
M  V30 9 C -1.31827 0.271427 0.00805759 0
M  V30 10 C -2.63166 0.48902 0.715833 0
M  V30 11 C -3.22943 0.747781 -0.655351 0
M  V30 12 C -2.15012 -0.168702 -1.20055 0
M  V30 13 H 4.62304 -0.044518 -2.1169 0
M  V30 14 H 4.63992 0.456908 -0.410211 0
M  V30 15 H 2.17123 1.74298 0.856119 0
M  V30 16 H 2.437 0.308782 1.88584 0
M  V30 17 H -0.143763 -0.5466 1.58563 0
M  V30 18 H -0.986627 -1.78885 0.525173 0
M  V30 19 H -0.80614 1.2079 -0.216344 0
M  V30 20 H -2.66083 1.36023 1.39803 0
M  V30 21 H -2.97245 -0.469417 1.1608 0
M  V30 22 H -3.05653 1.79064 -0.98339 0
M  V30 23 H -4.26095 0.371936 -0.789338 0
M  V30 24 H -2.49942 -1.2197 -1.12907 0
M  V30 25 H -1.73113 0.12308 -2.1746 0
M  V30 END ATOM
M  V30 BEGIN BOND
M  V30 1 1 1 2
M  V30 2 2 2 3
M  V30 3 1 3 4
M  V30 4 2 4 5
M  V30 5 1 5 6
M  V30 6 1 6 7
M  V30 7 1 5 8
M  V30 8 1 8 9
M  V30 9 1 9 10
M  V30 10 1 10 11
M  V30 11 1 11 12
M  V30 12 1 6 2
M  V30 13 1 12 9
M  V30 14 1 1 13
M  V30 15 1 1 14
M  V30 16 1 7 15
M  V30 17 1 7 16
M  V30 18 1 8 17
M  V30 19 1 8 18
M  V30 20 1 9 19
M  V30 21 1 10 20
M  V30 22 1 10 21
M  V30 23 1 11 22
M  V30 24 1 11 23
M  V30 25 1 12 24
M  V30 26 1 12 25
M  V30 END BOND
M  V30 END CTAB
M  END
