
     RDKit          3D

  0  0  0  0  0  0  0  0  0  0999 V3000
M  V30 BEGIN CTAB
M  V30 COUNTS 20 19 0 0 0
M  V30 BEGIN ATOM
M  V30 1 Cl 1.44516 2.26749 0.277223 0
M  V30 2 C 2.68912 1.08057 0.34023 0
M  V30 3 C 2.90471 0.0797495 -0.460708 0
M  V30 4 C 2.10817 -0.281405 -1.63465 0
M  V30 5 S 0.604081 0.656596 -1.79952 0
M  V30 6 C -0.619167 0.0277111 -0.657347 0
M  V30 7 N -1.78285 0.59131 -0.645659 0
M  V30 8 C -2.76872 0.103062 0.258494 0
M  V30 9 N -3.31004 -1.04661 0.0345207 0
M  V30 10 N -3.17522 0.833549 1.39494 0
M  V30 11 N -0.276628 -1.06172 0.172998 0
M  V30 12 Cl 3.84397 1.26735 1.70853 0
M  V30 13 H 3.80241 -0.57312 -0.217516 0
M  V30 14 H 2.72032 -0.240755 -2.58326 0
M  V30 15 H 1.81668 -1.36962 -1.58997 0
M  V30 16 H -3.03155 -1.62134 -0.803712 0
M  V30 17 H -3.83165 1.6313 1.26004 0
M  V30 18 H -2.82293 0.573584 2.33825 0
M  V30 19 H -0.524512 -1.0051 1.17829 0
M  V30 20 H 0.208619 -1.9126 -0.165316 0
M  V30 END ATOM
M  V30 BEGIN BOND
M  V30 1 1 1 2
M  V30 2 2 2 3 CFG=2
M  V30 3 1 3 4
M  V30 4 1 4 5
M  V30 5 1 5 6
M  V30 6 2 6 7 CFG=2
M  V30 7 1 7 8
M  V30 8 2 8 9 CFG=2
M  V30 9 1 8 10
M  V30 10 1 6 11
M  V30 11 1 2 12
M  V30 12 1 3 13
M  V30 13 1 4 14
M  V30 14 1 4 15
M  V30 15 1 9 16
M  V30 16 1 10 17
M  V30 17 1 10 18
M  V30 18 1 11 19
M  V30 19 1 11 20
M  V30 END BOND
M  V30 END CTAB
M  END
