
     RDKit          3D

  0  0  0  0  0  0  0  0  0  0999 V3000
M  V30 BEGIN CTAB
M  V30 COUNTS 48 51 0 0 0
M  V30 BEGIN ATOM
M  V30 1 N 7.08303 -1.96472 1.12694 0
M  V30 2 N 5.95156 -1.19926 0.86065 0
M  V30 3 C 4.73612 -1.78343 0.442439 0
M  V30 4 O 4.6856 -3.02892 0.310132 0
M  V30 5 C 3.52715 -1.02063 0.15282 0
M  V30 6 C 2.39808 -1.65892 -0.301686 0
M  V30 7 C 1.25203 -0.940136 -0.57606 0
M  V30 8 C 1.16913 0.41957 -0.416435 0
M  V30 9 C 2.30698 1.04957 0.0397566 0
M  V30 10 C 3.46431 0.350327 0.320247 0
M  V30 11 C -0.104873 1.09587 -0.733323 0
M  V30 12 O -0.0520371 1.41629 -2.09713 0
M  V30 13 C -0.254617 2.75502 -2.26555 0
M  V30 14 O -0.305603 3.43381 -3.34237 0
M  V30 15 C -0.417043 3.34825 -0.945945 0
M  V30 16 C -0.309074 2.34571 -0.0117539 0
M  V30 17 C -0.413094 2.66199 1.32076 0
M  V30 18 C -0.626962 3.98382 1.73125 0
M  V30 19 C -0.739072 5.00232 0.820526 0
M  V30 20 C -0.630268 4.65609 -0.506166 0
M  V30 21 C -1.20336 0.116562 -0.465791 0
M  V30 22 C -1.2848 -0.473456 0.760566 0
M  V30 23 C -2.28922 -1.37242 1.05075 0
M  V30 24 C -3.23437 -1.67519 0.0592235 0
M  V30 25 C -3.17277 -1.09907 -1.17146 0
M  V30 26 C -2.13711 -0.192729 -1.4224 0
M  V30 27 C -4.29496 -2.61832 0.379758 0
M  V30 28 O -4.51627 -2.98503 1.57325 0
M  V30 29 N -5.09889 -3.14214 -0.647621 0
M  V30 30 N -6.12174 -4.04815 -0.341419 0
M  V30 31 H 7.03526 -2.47557 2.02674 0
M  V30 32 H 7.28701 -2.61923 0.339167 0
M  V30 33 H 6.01255 -0.172767 0.974603 0
M  V30 34 H 2.43763 -2.75006 -0.438163 0
M  V30 35 H 0.417703 -1.55859 -0.938654 0
M  V30 36 H 2.22579 2.13325 0.162051 0
M  V30 37 H 4.31186 0.884103 0.669217 0
M  V30 38 H -0.341213 1.96223 2.13845 0
M  V30 39 H -0.709681 4.23879 2.77968 0
M  V30 40 H -0.903705 6.0276 1.10374 0
M  V30 41 H -0.710849 5.422 -1.28074 0
M  V30 42 H -0.58651 -0.301275 1.58554 0
M  V30 43 H -2.38248 -1.85546 2.008 0
M  V30 44 H -3.88368 -1.29956 -1.97139 0
M  V30 45 H -2.0551 0.290512 -2.40138 0
M  V30 46 H -4.98243 -2.90199 -1.64574 0
M  V30 47 H -5.70362 -4.84124 0.181297 0
M  V30 48 H -6.83643 -3.6154 0.294349 0
M  V30 END ATOM
M  V30 BEGIN BOND
M  V30 1 1 1 2
M  V30 2 1 2 3
M  V30 3 2 3 4
M  V30 4 1 3 5
M  V30 5 2 5 6
M  V30 6 1 6 7
M  V30 7 2 7 8
M  V30 8 1 8 9
M  V30 9 2 9 10
M  V30 10 1 8 11
M  V30 11 1 11 12
M  V30 12 1 12 13
M  V30 13 2 13 14
M  V30 14 1 13 15
M  V30 15 2 15 16
M  V30 16 1 16 17
M  V30 17 2 17 18
M  V30 18 1 18 19
M  V30 19 2 19 20
M  V30 20 1 11 21
M  V30 21 2 21 22
M  V30 22 1 22 23
M  V30 23 2 23 24
M  V30 24 1 24 25
M  V30 25 2 25 26
M  V30 26 1 24 27
M  V30 27 2 27 28
M  V30 28 1 27 29
M  V30 29 1 29 30
M  V30 30 1 10 5
M  V30 31 1 16 11
M  V30 32 1 26 21
M  V30 33 1 20 15
M  V30 34 1 1 31
M  V30 35 1 1 32
M  V30 36 1 2 33
M  V30 37 1 6 34
M  V30 38 1 7 35
M  V30 39 1 9 36
M  V30 40 1 10 37
M  V30 41 1 17 38
M  V30 42 1 18 39
M  V30 43 1 19 40
M  V30 44 1 20 41
M  V30 45 1 22 42
M  V30 46 1 23 43
M  V30 47 1 25 44
M  V30 48 1 26 45
M  V30 49 1 29 46
M  V30 50 1 30 47
M  V30 51 1 30 48
M  V30 END BOND
M  V30 END CTAB
M  END
