
     RDKit          3D

  0  0  0  0  0  0  0  0  0  0999 V3000
M  V30 BEGIN CTAB
M  V30 COUNTS 56 59 0 0 0
M  V30 BEGIN ATOM
M  V30 1 N 6.92759 3.45733 0.306223 0
M  V30 2 C 5.8696 2.65619 0.840556 0
M  V30 3 N 5.27158 3.09132 1.89879 0
M  V30 4 C 5.53756 1.37786 0.205618 0
M  V30 5 C 4.65346 0.457603 0.761078 0
M  V30 6 C 4.36478 -0.681788 0.107014 0
M  V30 7 C 4.98823 -0.898067 -1.15103 0
M  V30 8 C 5.84996 -0.0314462 -1.72976 0
M  V30 9 C 6.14202 1.13765 -1.04111 0
M  V30 10 N 3.51344 -1.75113 0.506021 0
M  V30 11 N 3.96558 -2.96398 0.898723 0
M  V30 12 C 2.9263 -3.75892 1.14137 0
M  V30 13 C 1.79287 -3.0165 0.892346 0
M  V30 14 C 2.22332 -1.70186 0.481596 0
M  V30 15 C 1.1539 -0.71989 0.29677 0
M  V30 16 O 1.24708 0.404302 0.788009 0
M  V30 17 N -0.0124448 -1.11345 -0.454687 0
M  V30 18 C -1.15077 -0.281397 -0.563969 0
M  V30 19 C -1.96875 -0.302828 -1.65796 0
M  V30 20 F -1.58183 -0.937169 -2.80374 0
M  V30 21 C -3.20888 0.358226 -1.56739 0
M  V30 22 C -3.5844 0.998719 -0.450468 0
M  V30 23 C -2.71549 1.01751 0.664306 0
M  V30 24 C -1.52873 0.391337 0.604424 0
M  V30 25 C -4.88875 1.58944 -0.197434 0
M  V30 26 C -4.88372 2.9592 -0.00428251 0
M  V30 27 C -6.05875 3.61349 0.340439 0
M  V30 28 C -7.21649 2.92891 0.494528 0
M  V30 29 C -7.19403 1.57172 0.294433 0
M  V30 30 C -6.04409 0.884936 -0.0533716 0
M  V30 31 S -6.09405 -0.817777 -0.264284 0
M  V30 32 N -5.08177 -1.70123 0.759513 0
M  V30 33 O -7.53905 -1.29875 0.0847998 0
M  V30 34 O -5.8497 -1.2629 -1.68045 0
M  V30 35 C 2.91177 -5.20534 1.59721 0
M  V30 36 F 2.61902 -5.24197 2.99496 0
M  V30 37 F 1.8557 -5.85578 0.927678 0
M  V30 38 F 4.07051 -5.82232 1.3104 0
M  V30 39 H 7.90088 3.09778 0.34503 0
M  V30 40 H 6.71653 4.3734 -0.127567 0
M  V30 41 H 4.50672 2.53113 2.30893 0
M  V30 42 H 4.17896 0.642346 1.71512 0
M  V30 43 H 4.79757 -1.81674 -1.65747 0
M  V30 44 H 6.32003 -0.240205 -2.68741 0
M  V30 45 H 6.80796 1.84418 -1.46079 0
M  V30 46 H 0.774118 -3.38665 0.981378 0
M  V30 47 H 0.0120938 -2.05081 -0.920325 0
M  V30 48 H -3.79293 0.350958 -2.46154 0
M  V30 49 H -3.02986 1.53482 1.58063 0
M  V30 50 H -0.892744 0.360215 1.45747 0
M  V30 51 H -3.97148 3.54169 -0.0966441 0
M  V30 52 H -6.05544 4.66997 0.506582 0
M  V30 53 H -8.13802 3.42604 0.769344 0
M  V30 54 H -8.13956 1.04603 0.418032 0
M  V30 55 H -4.17501 -1.99222 0.345597 0
M  V30 56 H -5.10237 -1.46318 1.74956 0
M  V30 END ATOM
M  V30 BEGIN BOND
M  V30 1 1 1 2
M  V30 2 2 2 3 CFG=2
M  V30 3 1 2 4
M  V30 4 2 4 5
M  V30 5 1 5 6
M  V30 6 2 6 7
M  V30 7 1 7 8
M  V30 8 2 8 9
M  V30 9 1 6 10
M  V30 10 1 10 11
M  V30 11 2 11 12
M  V30 12 1 12 13
M  V30 13 2 13 14
M  V30 14 1 14 15
M  V30 15 2 15 16
M  V30 16 1 15 17
M  V30 17 1 17 18
M  V30 18 2 18 19
M  V30 19 1 19 20
M  V30 20 1 19 21
M  V30 21 2 21 22
M  V30 22 1 22 23
M  V30 23 2 23 24
M  V30 24 1 22 25
M  V30 25 2 25 26
M  V30 26 1 26 27
M  V30 27 2 27 28
M  V30 28 1 28 29
M  V30 29 2 29 30
M  V30 30 1 30 31
M  V30 31 1 31 32
M  V30 32 2 31 33
M  V30 33 2 31 34
M  V30 34 1 12 35
M  V30 35 1 35 36
M  V30 36 1 35 37
M  V30 37 1 35 38
M  V30 38 1 9 4
M  V30 39 1 14 10
M  V30 40 1 24 18
M  V30 41 1 30 25
M  V30 42 1 1 39
M  V30 43 1 1 40
M  V30 44 1 3 41
M  V30 45 1 5 42
M  V30 46 1 7 43
M  V30 47 1 8 44
M  V30 48 1 9 45
M  V30 49 1 13 46
M  V30 50 1 17 47
M  V30 51 1 21 48
M  V30 52 1 23 49
M  V30 53 1 24 50
M  V30 54 1 26 51
M  V30 55 1 27 52
M  V30 56 1 28 53
M  V30 57 1 29 54
M  V30 58 1 32 55
M  V30 59 1 32 56
M  V30 END BOND
M  V30 END CTAB
M  END
