
     RDKit          3D

  0  0  0  0  0  0  0  0  0  0999 V3000
M  V30 BEGIN CTAB
M  V30 COUNTS 27 27 0 0 0
M  V30 BEGIN ATOM
M  V30 1 N -3.0224 1.80097 -0.989437 0
M  V30 2 S -2.70665 0.52556 0.0759615 0
M  V30 3 O -2.85053 0.986443 1.4981 0
M  V30 4 O -3.74755 -0.570006 -0.112654 0
M  V30 5 C -1.12845 -0.229489 -0.17425 0 CFG=2
M  V30 6 C -1.04283 -1.42042 0.775935 0
M  V30 7 C 0.123157 -2.25135 0.279433 0
M  V30 8 C 1.31812 -1.328 0.192296 0
M  V30 9 N 1.05797 -0.0231772 0.748807 0
M  V30 10 C 0.0201632 0.692275 0.084305 0
M  V30 11 S 2.53674 0.834279 0.856408 0
M  V30 12 O 3.50092 0.0547643 1.70466 0
M  V30 13 O 2.29303 2.14349 1.5555 0
M  V30 14 N 3.26735 1.07486 -0.68577 0
M  V30 15 H -3.88883 1.61876 -1.53182 0
M  V30 16 H -3.16172 2.6999 -0.493122 0
M  V30 17 H -1.03108 -0.650924 -1.19509 0
M  V30 18 H -1.99821 -1.97138 0.766892 0
M  V30 19 H -0.7905 -1.0964 1.80886 0
M  V30 20 H 0.303406 -3.11599 0.939152 0
M  V30 21 H -0.127145 -2.5622 -0.765861 0
M  V30 22 H 1.69845 -1.23741 -0.845759 0
M  V30 23 H 2.14625 -1.77483 0.782341 0
M  V30 24 H -0.245988 1.57868 0.685374 0
M  V30 25 H 0.445294 1.06821 -0.891264 0
M  V30 26 H 2.76536 1.81692 -1.23322 0
M  V30 27 H 4.26569 1.33646 -0.509055 0
M  V30 END ATOM
M  V30 BEGIN BOND
M  V30 1 1 1 2
M  V30 2 2 2 3
M  V30 3 2 2 4
M  V30 4 1 2 5
M  V30 5 1 5 6
M  V30 6 1 6 7
M  V30 7 1 7 8
M  V30 8 1 8 9
M  V30 9 1 9 10
M  V30 10 1 9 11
M  V30 11 2 11 12
M  V30 12 2 11 13
M  V30 13 1 11 14
M  V30 14 1 10 5
M  V30 15 1 1 15
M  V30 16 1 1 16
M  V30 17 1 5 17 CFG=3
M  V30 18 1 6 18
M  V30 19 1 6 19
M  V30 20 1 7 20
M  V30 21 1 7 21
M  V30 22 1 8 22
M  V30 23 1 8 23
M  V30 24 1 10 24
M  V30 25 1 10 25
M  V30 26 1 14 26
M  V30 27 1 14 27
M  V30 END BOND
M  V30 END CTAB
M  END
