
     RDKit          3D

  0  0  0  0  0  0  0  0  0  0999 V3000
M  V30 BEGIN CTAB
M  V30 COUNTS 16 16 0 0 0
M  V30 BEGIN ATOM
M  V30 1 N 2.75649 0.548425 0.614295 0
M  V30 2 P 1.34605 0.181458 -0.338662 0
M  V30 3 Cl 1.93082 -0.709662 -2.12477 0
M  V30 4 N 0.509023 1.45304 -0.700096 0
M  V30 5 P -0.914863 1.87364 0.204219 0
M  V30 6 Cl -2.09245 3.21865 -0.869775 0
M  V30 7 Cl -0.257468 2.75356 1.98106 0
M  V30 8 N -1.79594 0.603266 0.526181 0
M  V30 9 P -1.18483 -0.947461 0.0128998 0
M  V30 10 N -2.10467 -2.26586 0.629425 0
M  V30 11 Cl -1.13313 -0.914424 -2.06702 0
M  V30 12 N 0.337974 -0.990182 0.492449 0
M  V30 13 H 3.34954 -0.328328 0.619815 0
M  V30 14 H 3.32183 1.23842 0.0559094 0
M  V30 15 H -1.53942 -2.94026 1.16785 0
M  V30 16 H -2.52896 -2.77428 -0.203779 0
M  V30 END ATOM
M  V30 BEGIN BOND
M  V30 1 1 1 2
M  V30 2 1 2 3
M  V30 3 2 2 4
M  V30 4 1 4 5
M  V30 5 1 5 6
M  V30 6 1 5 7
M  V30 7 2 5 8
M  V30 8 1 8 9
M  V30 9 1 9 10
M  V30 10 1 9 11
M  V30 11 2 9 12
M  V30 12 1 12 2
M  V30 13 1 1 13
M  V30 14 1 1 14
M  V30 15 1 10 15
M  V30 16 1 10 16
M  V30 END BOND
M  V30 END CTAB
M  END
