
     RDKit          3D

  0  0  0  0  0  0  0  0  0  0999 V3000
M  V30 BEGIN CTAB
M  V30 COUNTS 60 63 0 0 0
M  V30 BEGIN ATOM
M  V30 1 N 7.64434 0.917922 0.154196 0
M  V30 2 C 7.72868 -0.393831 -0.297776 0 CFG=1
M  V30 3 C 6.75065 -1.33567 0.337056 0
M  V30 4 C 5.34264 -1.01611 0.160667 0
M  V30 5 C 4.60618 -0.229104 1.0254 0
M  V30 6 C 3.28292 0.0172481 0.778659 0
M  V30 7 C 2.616 -0.48599 -0.31363 0
M  V30 8 C 3.35428 -1.27335 -1.17838 0
M  V30 9 C 4.69628 -1.53979 -0.953369 0
M  V30 10 C 1.20638 -0.2469 -0.60043 0
M  V30 11 N 0.659493 -0.767253 -1.70237 0
M  V30 12 C -0.629655 -0.594338 -2.02941 0
M  V30 13 N -1.19559 -1.15531 -3.21342 0
M  V30 14 N -1.39158 0.132863 -1.2077 0
M  V30 15 C -0.942889 0.69748 -0.0791766 0
M  V30 16 O -1.76168 1.42382 0.715866 0
M  V30 17 C -3.16052 1.67681 0.505525 0
M  V30 18 C -3.94947 1.50311 1.71819 0
M  V30 19 C -4.41917 2.62188 2.42713 0
M  V30 20 C -5.07272 2.47459 3.63437 0
M  V30 21 C -5.28018 1.2302 4.17094 0
M  V30 22 C -4.8432 0.115835 3.51522 0
M  V30 23 C -4.18323 0.27265 2.29101 0
M  V30 24 O -3.78129 -0.917688 1.69498 0
M  V30 25 C -4.45867 -1.38903 0.553939 0
M  V30 26 C -5.69092 -0.850889 0.160503 0
M  V30 27 C -6.33861 -1.32488 -0.956971 0
M  V30 28 C -5.79201 -2.33607 -1.71143 0
M  V30 29 N -4.61355 -2.84705 -1.32957 0
M  V30 30 C -3.94624 -2.39336 -0.220994 0
M  V30 31 C -3.25984 3.06911 -0.124872 0
M  V30 32 F -2.57346 3.00293 -1.36241 0
M  V30 33 F -2.57699 4.0265 0.603468 0
M  V30 34 F -4.52677 3.47616 -0.374509 0
M  V30 35 C 0.405902 0.502745 0.239473 0
M  V30 36 C 7.80355 -0.525182 -1.78032 0
M  V30 37 O 7.72306 0.532737 -2.64461 0
M  V30 38 O 7.94933 -1.68267 -2.24633 0
M  V30 39 H 8.17452 1.63682 -0.219539 0
M  V30 40 H 7.12669 1.08854 0.942588 0
M  V30 41 H 8.74143 -0.769086 0.0468565 0
M  V30 42 H 6.94681 -2.35633 -0.066303 0
M  V30 43 H 6.9934 -1.37209 1.43404 0
M  V30 44 H 5.11954 0.169617 1.879 0
M  V30 45 H 2.7541 0.630352 1.47735 0
M  V30 46 H 2.84942 -1.67509 -2.03641 0
M  V30 47 H 5.16936 -2.1653 -1.69277 0
M  V30 48 H -0.886676 -2.08674 -3.54321 0
M  V30 49 H -1.91048 -0.599949 -3.71333 0
M  V30 50 H -3.44059 0.981721 -0.29486 0
M  V30 51 H -4.30558 3.62352 2.06803 0
M  V30 52 H -5.42853 3.33561 4.16691 0
M  V30 53 H -5.79244 1.06831 5.12452 0
M  V30 54 H -5.00701 -0.867005 3.93816 0
M  V30 55 H -6.07856 -0.0543577 0.794022 0
M  V30 56 H -7.29035 -0.902722 -1.25296 0
M  V30 57 H -6.31953 -2.70504 -2.60237 0
M  V30 58 H -2.9825 -2.82804 0.0705053 0
M  V30 59 H 0.789639 0.948356 1.13921 0
M  V30 60 H 7.39585 0.50877 -3.58815 0
M  V30 END ATOM
M  V30 BEGIN BOND
M  V30 1 1 1 2
M  V30 2 1 2 3
M  V30 3 1 3 4
M  V30 4 2 4 5
M  V30 5 1 5 6
M  V30 6 2 6 7
M  V30 7 1 7 8
M  V30 8 2 8 9
M  V30 9 1 7 10
M  V30 10 2 10 11
M  V30 11 1 11 12
M  V30 12 1 12 13
M  V30 13 2 12 14
M  V30 14 1 14 15
M  V30 15 1 15 16
M  V30 16 1 16 17
M  V30 17 1 17 18
M  V30 18 2 18 19
M  V30 19 1 19 20
M  V30 20 2 20 21
M  V30 21 1 21 22
M  V30 22 2 22 23
M  V30 23 1 23 24
M  V30 24 1 24 25
M  V30 25 2 25 26
M  V30 26 1 26 27
M  V30 27 2 27 28
M  V30 28 1 28 29
M  V30 29 2 29 30
M  V30 30 1 17 31
M  V30 31 1 31 32
M  V30 32 1 31 33
M  V30 33 1 31 34
M  V30 34 2 15 35
M  V30 35 1 2 36
M  V30 36 1 36 37
M  V30 37 2 36 38
M  V30 38 1 9 4
M  V30 39 1 35 10
M  V30 40 1 23 18
M  V30 41 1 30 25
M  V30 42 1 1 39
M  V30 43 1 1 40
M  V30 44 1 2 41 CFG=1
M  V30 45 1 3 42
M  V30 46 1 3 43
M  V30 47 1 5 44
M  V30 48 1 6 45
M  V30 49 1 8 46
M  V30 50 1 9 47
M  V30 51 1 13 48
M  V30 52 1 13 49
M  V30 53 1 17 50
M  V30 54 1 19 51
M  V30 55 1 20 52
M  V30 56 1 21 53
M  V30 57 1 22 54
M  V30 58 1 26 55
M  V30 59 1 27 56
M  V30 60 1 28 57
M  V30 61 1 30 58
M  V30 62 1 35 59
M  V30 63 1 37 60
M  V30 END BOND
M  V30 END CTAB
M  END
