
     RDKit          3D

  0  0  0  0  0  0  0  0  0  0999 V3000
M  V30 BEGIN CTAB
M  V30 COUNTS 25 26 0 0 0
M  V30 BEGIN ATOM
M  V30 1 N 5.02077 -0.200341 0.000363238 0
M  V30 2 C 3.59895 -0.131115 0.0596133 0
M  V30 3 C 2.81824 -1.27286 0.0159154 0
M  V30 4 C 1.44513 -1.22007 0.0722242 0
M  V30 5 C 0.785364 -0.019284 0.175226 0
M  V30 6 C 1.56597 1.11191 0.218247 0
M  V30 7 C 2.9358 1.0758 0.163145 0
M  V30 8 C -0.673584 0.0942673 0.238732 0
M  V30 9 N -1.38353 1.22435 0.339149 0
M  V30 10 C -2.67915 0.910569 0.368689 0
M  V30 11 N -2.74147 -0.435788 0.283989 0
M  V30 12 N -1.54429 -0.931637 0.205862 0
M  V30 13 C -3.96353 -1.21319 0.280705 0
M  V30 14 N -3.77328 1.80238 0.468467 0
M  V30 15 H 5.50848 0.173749 -0.825868 0
M  V30 16 H 5.56563 -0.617005 0.767945 0
M  V30 17 H 3.32009 -2.2265 -0.0650418 0
M  V30 18 H 0.81075 -2.11283 0.03899 0
M  V30 19 H 1.04578 2.07277 0.300352 0
M  V30 20 H 3.52553 1.97089 0.198252 0
M  V30 21 H -4.06358 -1.63109 -0.751451 0
M  V30 22 H -3.92396 -2.07832 0.962566 0
M  V30 23 H -4.86105 -0.599939 0.459672 0
M  V30 24 H -3.96582 2.26404 1.3647 0
M  V30 25 H -4.37323 1.98924 -0.347999 0
M  V30 END ATOM
M  V30 BEGIN BOND
M  V30 1 1 1 2
M  V30 2 2 2 3
M  V30 3 1 3 4
M  V30 4 2 4 5
M  V30 5 1 5 6
M  V30 6 2 6 7
M  V30 7 1 5 8
M  V30 8 1 8 9
M  V30 9 2 9 10
M  V30 10 1 10 11
M  V30 11 1 11 12
M  V30 12 1 11 13
M  V30 13 1 10 14
M  V30 14 1 7 2
M  V30 15 2 12 8
M  V30 16 1 1 15
M  V30 17 1 1 16
M  V30 18 1 3 17
M  V30 19 1 4 18
M  V30 20 1 6 19
M  V30 21 1 7 20
M  V30 22 1 13 21
M  V30 23 1 13 22
M  V30 24 1 13 23
M  V30 25 1 14 24
M  V30 26 1 14 25
M  V30 END BOND
M  V30 END CTAB
M  END
