
     RDKit          3D

  0  0  0  0  0  0  0  0  0  0999 V3000
M  V30 BEGIN CTAB
M  V30 COUNTS 55 58 0 0 0
M  V30 BEGIN ATOM
M  V30 1 N -8.02647 1.8473 1.39496 0
M  V30 2 C -6.94865 0.873897 1.38756 0
M  V30 3 C -5.56096 1.45901 1.50175 0
M  V30 4 C -5.23467 0.999012 0.0904648 0
M  V30 5 C -6.61577 0.415709 -0.0140182 0
M  V30 6 C -4.16185 -0.0238687 0.0351213 0
M  V30 7 N -4.19731 -1.20414 0.664909 0
M  V30 8 C -3.24032 -2.13604 0.657456 0
M  V30 9 N -3.33853 -3.37528 1.35388 0
M  V30 10 N -2.1119 -1.85455 -0.0652215 0
M  V30 11 C -1.98657 -0.700114 -0.727418 0
M  V30 12 C -2.98229 0.228794 -0.701131 0
M  V30 13 N -0.735367 -0.481552 -1.4264 0
M  V30 14 C 0.420889 -0.700876 -0.657698 0
M  V30 15 C 1.76303 -0.585279 -1.21399 0
M  V30 16 C 2.06681 -0.938572 -2.49505 0
M  V30 17 C 3.38786 -0.814857 -2.90693 0
M  V30 18 C 4.37569 -0.350142 -2.05446 0
M  V30 19 C 4.10013 0.0125696 -0.75668 0
M  V30 20 C 2.78924 -0.112716 -0.363944 0
M  V30 21 N 5.08445 0.462557 0.169243 0
M  V30 22 N 5.44937 1.68147 0.491376 0
M  V30 23 C 6.40024 1.71163 1.42278 0
M  V30 24 C 6.66918 0.378438 1.72635 0
M  V30 25 C 5.84307 -0.379728 0.938876 0
M  V30 26 C 5.79006 -1.86278 0.929425 0
M  V30 27 C 7.08626 2.88209 2.06602 0
M  V30 28 C -0.858403 -0.0710688 -2.78908 0
M  V30 29 H -7.69643 2.8251 1.17375 0
M  V30 30 H -8.45073 1.92656 2.35027 0
M  V30 31 H -7.12169 0.0503692 2.13016 0
M  V30 32 H -5.63334 2.57919 1.52101 0
M  V30 33 H -4.94641 1.00917 2.30545 0
M  V30 34 H -5.07101 1.83921 -0.611756 0
M  V30 35 H -7.25617 0.908604 -0.778708 0
M  V30 36 H -6.65717 -0.695694 -0.0464426 0
M  V30 37 H -2.98618 -3.50239 2.30448 0
M  V30 38 H -3.79343 -4.16545 0.85327 0
M  V30 39 H -2.89401 1.16221 -1.23145 0
M  V30 40 H 0.352801 -1.75882 -0.220969 0
M  V30 41 H 0.373981 -0.0906758 0.325506 0
M  V30 42 H 1.34015 -1.32491 -3.20799 0
M  V30 43 H 3.6146 -1.1042 -3.94236 0
M  V30 44 H 5.39844 -0.259385 -2.38474 0
M  V30 45 H 2.55032 0.167571 0.647743 0
M  V30 46 H 7.40816 0.0743077 2.4592 0
M  V30 47 H 4.72769 -2.165 0.855268 0
M  V30 48 H 6.37576 -2.25842 0.0531269 0
M  V30 49 H 6.27212 -2.26158 1.84139 0
M  V30 50 H 7.01934 3.71296 1.33482 0
M  V30 51 H 8.16217 2.63678 2.19165 0
M  V30 52 H 6.58345 3.17129 3.0142 0
M  V30 53 H -0.0882697 0.641318 -3.1118 0
M  V30 54 H -0.973751 -0.956835 -3.48353 0
M  V30 55 H -1.83758 0.477801 -2.97168 0
M  V30 END ATOM
M  V30 BEGIN BOND
M  V30 1 1 1 2
M  V30 2 1 2 3
M  V30 3 1 3 4
M  V30 4 1 4 5
M  V30 5 1 4 6
M  V30 6 2 6 7
M  V30 7 1 7 8
M  V30 8 1 8 9
M  V30 9 2 8 10
M  V30 10 1 10 11
M  V30 11 2 11 12
M  V30 12 1 11 13
M  V30 13 1 13 14
M  V30 14 1 14 15
M  V30 15 2 15 16
M  V30 16 1 16 17
M  V30 17 2 17 18
M  V30 18 1 18 19
M  V30 19 2 19 20
M  V30 20 1 19 21
M  V30 21 1 21 22
M  V30 22 2 22 23
M  V30 23 1 23 24
M  V30 24 2 24 25
M  V30 25 1 25 26
M  V30 26 1 23 27
M  V30 27 1 13 28
M  V30 28 1 5 2
M  V30 29 1 12 6
M  V30 30 1 20 15
M  V30 31 1 25 21
M  V30 32 1 1 29
M  V30 33 1 1 30
M  V30 34 1 2 31
M  V30 35 1 3 32
M  V30 36 1 3 33
M  V30 37 1 4 34
M  V30 38 1 5 35
M  V30 39 1 5 36
M  V30 40 1 9 37
M  V30 41 1 9 38
M  V30 42 1 12 39
M  V30 43 1 14 40
M  V30 44 1 14 41
M  V30 45 1 16 42
M  V30 46 1 17 43
M  V30 47 1 18 44
M  V30 48 1 20 45
M  V30 49 1 24 46
M  V30 50 1 26 47
M  V30 51 1 26 48
M  V30 52 1 26 49
M  V30 53 1 27 50
M  V30 54 1 27 51
M  V30 55 1 27 52
M  V30 56 1 28 53
M  V30 57 1 28 54
M  V30 58 1 28 55
M  V30 END BOND
M  V30 END CTAB
M  END
