
     RDKit          3D

  0  0  0  0  0  0  0  0  0  0999 V3000
M  V30 BEGIN CTAB
M  V30 COUNTS 48 50 0 0 0
M  V30 BEGIN ATOM
M  V30 1 C -9.28677 2.44567 -1.4406 0
M  V30 2 C -8.30196 1.36752 -1.1463 0
M  V30 3 O -7.64736 0.904453 -2.1199 0
M  V30 4 O -8.10888 0.885778 0.157969 0
M  V30 5 N -7.17372 -0.108601 0.301739 0
M  V30 6 C -5.94237 0.149875 0.197798 0
M  V30 7 N -5.49923 1.45868 -0.0670129 0
M  V30 8 C -4.94363 -0.929719 0.354651 0
M  V30 9 C -5.2108 -2.25512 0.614672 0
M  V30 10 C -3.99058 -2.88878 0.678096 0
M  V30 11 C -3.01554 -1.94608 0.457692 0
M  V30 12 O -3.64511 -0.820536 0.275569 0
M  V30 13 C -1.56841 -2.19985 0.439795 0
M  V30 14 C -0.949344 -3.4159 0.639408 0
M  V30 15 C 0.411521 -3.21585 0.540466 0
M  V30 16 C 0.577842 -1.87323 0.281674 0
M  V30 17 O -0.60066 -1.34313 0.235723 0
M  V30 18 C 1.88547 -1.20591 0.0976807 0
M  V30 19 C 3.05235 -1.91443 0.177496 0
M  V30 20 C 4.27238 -1.26367 0.000498709 0
M  V30 21 C 4.34597 0.0895586 -0.256105 0
M  V30 22 C 3.16249 0.779626 -0.331712 0
M  V30 23 C 1.94935 0.146733 -0.158371 0
M  V30 24 C 5.63627 0.745027 -0.437198 0
M  V30 25 N 5.6499 2.13112 -0.697235 0
M  V30 26 N 6.732 0.0983684 -0.365787 0
M  V30 27 O 7.92954 0.744364 -0.540907 0
M  V30 28 C 8.45422 1.64509 0.362462 0
M  V30 29 C 9.75834 2.33523 0.150562 0
M  V30 30 O 7.81582 1.89643 1.40104 0
M  V30 31 H -8.81089 3.43436 -1.29152 0
M  V30 32 H -9.64108 2.34348 -2.48454 0
M  V30 33 H -10.1737 2.31133 -0.78621 0
M  V30 34 H -5.63018 2.21182 0.62896 0
M  V30 35 H -5.03646 1.67702 -0.965901 0
M  V30 36 H -6.19483 -2.69762 0.741902 0
M  V30 37 H -3.85288 -3.94432 0.869345 0
M  V30 38 H -1.44115 -4.36263 0.838814 0
M  V30 39 H 1.2111 -3.9218 0.636457 0
M  V30 40 H 3.0014 -2.97676 0.378633 0
M  V30 41 H 5.16935 -1.89016 0.0771768 0
M  V30 42 H 3.14599 1.8603 -0.533231 0
M  V30 43 H 0.996854 0.670111 -0.213228 0
M  V30 44 H 5.97386 2.47964 -1.61458 0
M  V30 45 H 5.33945 2.80485 0.0191109 0
M  V30 46 H 10.0139 2.32437 -0.932279 0
M  V30 47 H 9.62004 3.39068 0.499432 0
M  V30 48 H 10.5602 1.8426 0.761138 0
M  V30 END ATOM
M  V30 BEGIN BOND
M  V30 1 1 1 2
M  V30 2 2 2 3
M  V30 3 1 2 4
M  V30 4 1 4 5
M  V30 5 2 5 6 CFG=2
M  V30 6 1 6 7
M  V30 7 1 6 8
M  V30 8 2 8 9
M  V30 9 1 9 10
M  V30 10 2 10 11
M  V30 11 1 11 12
M  V30 12 1 11 13
M  V30 13 2 13 14
M  V30 14 1 14 15
M  V30 15 2 15 16
M  V30 16 1 16 17
M  V30 17 1 16 18
M  V30 18 2 18 19
M  V30 19 1 19 20
M  V30 20 2 20 21
M  V30 21 1 21 22
M  V30 22 2 22 23
M  V30 23 1 21 24
M  V30 24 1 24 25
M  V30 25 2 24 26 CFG=2
M  V30 26 1 26 27
M  V30 27 1 27 28
M  V30 28 1 28 29
M  V30 29 2 28 30
M  V30 30 1 12 8
M  V30 31 1 17 13
M  V30 32 1 23 18
M  V30 33 1 1 31
M  V30 34 1 1 32
M  V30 35 1 1 33
M  V30 36 1 7 34
M  V30 37 1 7 35
M  V30 38 1 9 36
M  V30 39 1 10 37
M  V30 40 1 14 38
M  V30 41 1 15 39
M  V30 42 1 19 40
M  V30 43 1 20 41
M  V30 44 1 22 42
M  V30 45 1 23 43
M  V30 46 1 25 44
M  V30 47 1 25 45
M  V30 48 1 29 46
M  V30 49 1 29 47
M  V30 50 1 29 48
M  V30 END BOND
M  V30 END CTAB
M  END
