
     RDKit          3D

  0  0  0  0  0  0  0  0  0  0999 V3000
M  V30 BEGIN CTAB
M  V30 COUNTS 21 21 0 0 0
M  V30 BEGIN ATOM
M  V30 1 C 3.23475 0.520732 0.0931162 0
M  V30 2 N 2.39527 -0.660515 -0.0542137 0
M  V30 3 C 0.995438 -0.553573 -0.0574643 0
M  V30 4 C 0.236499 -1.69326 -0.198791 0
M  V30 5 C -1.1381 -1.62745 -0.206601 0
M  V30 6 C -1.82335 -0.430158 -0.07482 0
M  V30 7 C -1.04238 0.710068 0.0668234 0
M  V30 8 C 0.330592 0.662187 0.0767024 0
M  V30 9 N -1.69426 1.9618 0.205315 0
M  V30 10 N -3.23255 -0.381311 -0.0849959 0
M  V30 11 H 4.30208 0.265164 0.142981 0
M  V30 12 H 2.98585 1.03142 1.06533 0
M  V30 13 H 2.99623 1.20195 -0.727473 0
M  V30 14 H 2.84658 -1.57809 -0.156276 0
M  V30 15 H 0.756566 -2.65522 -0.305002 0
M  V30 16 H -1.73889 -2.51466 -0.316732 0
M  V30 17 H 0.932156 1.57253 0.189533 0
M  V30 18 H -2.68319 2.03359 0.480939 0
M  V30 19 H -1.17667 2.85249 0.0277639 0
M  V30 20 H -3.76923 -0.94194 -0.761975 0
M  V30 21 H -3.7134 0.224239 0.595836 0
M  V30 END ATOM
M  V30 BEGIN BOND
M  V30 1 1 1 2
M  V30 2 1 2 3
M  V30 3 2 3 4
M  V30 4 1 4 5
M  V30 5 2 5 6
M  V30 6 1 6 7
M  V30 7 2 7 8
M  V30 8 1 7 9
M  V30 9 1 6 10
M  V30 10 1 8 3
M  V30 11 1 1 11
M  V30 12 1 1 12
M  V30 13 1 1 13
M  V30 14 1 2 14
M  V30 15 1 4 15
M  V30 16 1 5 16
M  V30 17 1 8 17
M  V30 18 1 9 18
M  V30 19 1 9 19
M  V30 20 1 10 20
M  V30 21 1 10 21
M  V30 END BOND
M  V30 END CTAB
M  END
