
     RDKit          3D

  0  0  0  0  0  0  0  0  0  0999 V3000
M  V30 BEGIN CTAB
M  V30 COUNTS 32 33 0 0 0
M  V30 BEGIN ATOM
M  V30 1 O 2.07692 -0.517229 1.833 0
M  V30 2 C 1.43409 -0.229079 0.787675 0
M  V30 3 N 2.13857 0.062376 -0.40988 0
M  V30 4 C 3.55289 0.0242839 -0.436198 0
M  V30 5 C 4.1953 -1.18909 -0.513638 0
M  V30 6 C 5.57206 -1.30391 -0.531867 0
M  V30 7 C 6.34391 -0.144949 -0.468615 0
M  V30 8 C 5.7266 1.08332 -0.39084 0
M  V30 9 C 4.3365 1.16532 -0.374399 0
M  V30 10 F 6.50202 2.18957 -0.331003 0
M  V30 11 F 7.69712 -0.278598 -0.487853 0
M  V30 12 C -0.0369087 -0.215681 0.885912 0
M  V30 13 S -0.835043 0.115313 -0.687426 0
M  V30 14 C -2.60088 0.120345 -0.405162 0
M  V30 15 N -3.25425 1.24689 -0.0860495 0
M  V30 16 C -4.56987 1.28455 0.134452 0
M  V30 17 N -5.23457 2.49213 0.47323 0
M  V30 18 C -5.31358 0.130885 0.0369324 0
M  V30 19 C -4.66571 -1.03809 -0.289365 0
M  V30 20 N -3.33299 -1.00783 -0.499838 0
M  V30 21 N -5.41255 -2.24103 -0.395866 0
M  V30 22 H 1.59387 0.304274 -1.27232 0
M  V30 23 H 3.61328 -2.09835 -0.567241 0
M  V30 24 H 6.05987 -2.26388 -0.597435 0
M  V30 25 H 3.84615 2.12575 -0.309271 0
M  V30 26 H -0.356091 -1.15889 1.3617 0
M  V30 27 H -0.298967 0.667193 1.54635 0
M  V30 28 H -6.21177 2.65516 0.162973 0
M  V30 29 H -4.75607 3.22472 1.03199 0
M  V30 30 H -6.39221 0.155507 0.217412 0
M  V30 31 H -5.02369 -3.17767 -0.150609 0
M  V30 32 H -6.39396 -2.18332 -0.733584 0
M  V30 END ATOM
M  V30 BEGIN BOND
M  V30 1 2 1 2
M  V30 2 1 2 3
M  V30 3 1 3 4
M  V30 4 2 4 5
M  V30 5 1 5 6
M  V30 6 2 6 7
M  V30 7 1 7 8
M  V30 8 2 8 9
M  V30 9 1 8 10
M  V30 10 1 7 11
M  V30 11 1 2 12
M  V30 12 1 12 13
M  V30 13 1 13 14
M  V30 14 2 14 15
M  V30 15 1 15 16
M  V30 16 1 16 17
M  V30 17 2 16 18
M  V30 18 1 18 19
M  V30 19 2 19 20
M  V30 20 1 19 21
M  V30 21 1 9 4
M  V30 22 1 20 14
M  V30 23 1 3 22
M  V30 24 1 5 23
M  V30 25 1 6 24
M  V30 26 1 9 25
M  V30 27 1 12 26
M  V30 28 1 12 27
M  V30 29 1 17 28
M  V30 30 1 17 29
M  V30 31 1 18 30
M  V30 32 1 21 31
M  V30 33 1 21 32
M  V30 END BOND
M  V30 END CTAB
M  END
