
     RDKit          3D

  0  0  0  0  0  0  0  0  0  0999 V3000
M  V30 BEGIN CTAB
M  V30 COUNTS 47 51 0 0 0
M  V30 BEGIN ATOM
M  V30 1 N 8.80001 1.068 -1.11488 0
M  V30 2 C 7.78467 0.642979 -0.763262 0
M  V30 3 C 6.48878 0.123082 -0.332801 0
M  V30 4 C 5.32906 0.730938 -0.730671 0
M  V30 5 C 4.0637 0.256133 -0.334328 0
M  V30 6 C 4.11009 -0.848721 0.470091 0
M  V30 7 N 5.27649 -1.45188 0.864271 0
M  V30 8 C 6.47843 -0.989997 0.479853 0
M  V30 9 N 7.67437 -1.61608 0.88957 0
M  V30 10 S 2.45556 -1.16817 0.768375 0
M  V30 11 C 1.76944 0.104821 -0.133543 0
M  V30 12 C 2.84748 0.744051 -0.64247 0
M  V30 13 N 2.64852 1.91996 -1.49271 0
M  V30 14 C 0.332219 0.409479 -0.299354 0
M  V30 15 O 0.0298048 1.387 -1.00091 0
M  V30 16 N -0.622267 -0.42393 0.346466 0
M  V30 17 C -2.02754 -0.207279 0.243244 0
M  V30 18 C -2.4871 -0.287739 -1.19979 0
M  V30 19 C -3.99692 -0.237723 -1.30087 0
M  V30 20 C -4.43722 1.11531 -0.759304 0
M  V30 21 C -3.97431 1.23148 0.661219 0
M  V30 22 C -2.48269 1.12357 0.795775 0
M  V30 23 C -4.6512 0.147999 1.4637 0
M  V30 24 C -4.24039 -1.1918 0.912197 0
M  V30 25 C -2.76 -1.32432 0.975201 0
M  V30 26 C -4.66989 -1.34662 -0.540635 0
M  V30 27 H 5.44282 1.59625 -1.3666 0
M  V30 28 H 8.54614 -1.04358 0.885001 0
M  V30 29 H 7.71673 -2.61047 1.19061 0
M  V30 30 H 2.19087 1.84133 -2.41054 0
M  V30 31 H 2.97474 2.85342 -1.16563 0
M  V30 32 H -0.260386 -1.23944 0.928007 0
M  V30 33 H -2.12012 0.553615 -1.81825 0
M  V30 34 H -2.11643 -1.25827 -1.58914 0
M  V30 35 H -4.2479 -0.230287 -2.38234 0
M  V30 36 H -5.55125 1.08293 -0.740592 0
M  V30 37 H -4.04893 1.90209 -1.42176 0
M  V30 38 H -4.27439 2.22593 1.0586 0
M  V30 39 H -2.04356 1.92706 0.188302 0
M  V30 40 H -2.22201 1.24902 1.86014 0
M  V30 41 H -5.75108 0.269196 1.41649 0
M  V30 42 H -4.34779 0.174392 2.52671 0
M  V30 43 H -4.69489 -1.98738 1.514 0
M  V30 44 H -2.46268 -2.26949 0.47136 0
M  V30 45 H -2.41278 -1.40162 2.02711 0
M  V30 46 H -4.30155 -2.31776 -0.906821 0
M  V30 47 H -5.75464 -1.22749 -0.669852 0
M  V30 END ATOM
M  V30 BEGIN BOND
M  V30 1 3 1 2
M  V30 2 1 2 3
M  V30 3 2 3 4
M  V30 4 1 4 5
M  V30 5 2 5 6
M  V30 6 1 6 7
M  V30 7 2 7 8
M  V30 8 1 8 9
M  V30 9 1 6 10
M  V30 10 1 10 11
M  V30 11 2 11 12
M  V30 12 1 12 13
M  V30 13 1 11 14
M  V30 14 2 14 15
M  V30 15 1 14 16
M  V30 16 1 16 17
M  V30 17 1 17 18
M  V30 18 1 18 19
M  V30 19 1 19 20
M  V30 20 1 20 21
M  V30 21 1 21 22
M  V30 22 1 21 23
M  V30 23 1 23 24
M  V30 24 1 24 25
M  V30 25 1 24 26
M  V30 26 1 8 3
M  V30 27 1 25 17
M  V30 28 1 12 5
M  V30 29 1 22 17
M  V30 30 1 26 19
M  V30 31 1 4 27
M  V30 32 1 9 28
M  V30 33 1 9 29
M  V30 34 1 13 30
M  V30 35 1 13 31
M  V30 36 1 16 32
M  V30 37 1 18 33
M  V30 38 1 18 34
M  V30 39 1 19 35
M  V30 40 1 20 36
M  V30 41 1 20 37
M  V30 42 1 21 38
M  V30 43 1 22 39
M  V30 44 1 22 40
M  V30 45 1 23 41
M  V30 46 1 23 42
M  V30 47 1 24 43
M  V30 48 1 25 44
M  V30 49 1 25 45
M  V30 50 1 26 46
M  V30 51 1 26 47
M  V30 END BOND
M  V30 END CTAB
M  END
