
     RDKit          3D

  0  0  0  0  0  0  0  0  0  0999 V3000
M  V30 BEGIN CTAB
M  V30 COUNTS 26 26 0 0 0
M  V30 BEGIN ATOM
M  V30 1 C 4.08234 -0.0722909 0.436456 0
M  V30 2 C 3.31013 -0.905364 -0.565396 0
M  V30 3 O 1.9241 -0.695055 -0.381788 0
M  V30 4 C 1.30968 0.526073 -0.499383 0
M  V30 5 O 1.99214 1.53525 -0.786115 0
M  V30 6 C -0.128479 0.630448 -0.288753 0
M  V30 7 C -0.770115 1.84266 -0.400424 0
M  V30 8 C -2.13774 1.90962 -0.19441 0
M  V30 9 C -2.87403 0.789318 0.120508 0
M  V30 10 C -2.24273 -0.432396 0.235499 0
M  V30 11 C -0.867519 -0.4893 0.0265051 0
M  V30 12 N -0.248045 -1.75667 0.151456 0
M  V30 13 C -2.99782 -1.6256 0.566279 0
M  V30 14 N -3.58883 -2.58696 0.826748 0
M  V30 15 N -4.27694 0.810905 0.340148 0
M  V30 16 H 3.36888 0.366416 1.19255 0
M  V30 17 H 4.6571 0.742469 -0.0634038 0
M  V30 18 H 4.78908 -0.705631 1.03242 0
M  V30 19 H 3.60134 -0.593628 -1.59611 0
M  V30 20 H 3.58204 -1.96882 -0.451837 0
M  V30 21 H -0.230514 2.74977 -0.646404 0
M  V30 22 H -2.64742 2.85006 -0.279154 0
M  V30 23 H -0.381041 -2.48764 -0.603149 0
M  V30 24 H 0.350375 -2.0503 0.947425 0
M  V30 25 H -4.94086 1.22767 -0.334846 0
M  V30 26 H -4.63511 0.388982 1.21518 0
M  V30 END ATOM
M  V30 BEGIN BOND
M  V30 1 1 1 2
M  V30 2 1 2 3
M  V30 3 1 3 4
M  V30 4 2 4 5
M  V30 5 1 4 6
M  V30 6 2 6 7
M  V30 7 1 7 8
M  V30 8 2 8 9
M  V30 9 1 9 10
M  V30 10 2 10 11
M  V30 11 1 11 12
M  V30 12 1 10 13
M  V30 13 3 13 14
M  V30 14 1 9 15
M  V30 15 1 11 6
M  V30 16 1 1 16
M  V30 17 1 1 17
M  V30 18 1 1 18
M  V30 19 1 2 19
M  V30 20 1 2 20
M  V30 21 1 7 21
M  V30 22 1 8 22
M  V30 23 1 12 23
M  V30 24 1 12 24
M  V30 25 1 15 25
M  V30 26 1 15 26
M  V30 END BOND
M  V30 END CTAB
M  END
