
     RDKit          3D

  0  0  0  0  0  0  0  0  0  0999 V3000
M  V30 BEGIN CTAB
M  V30 COUNTS 26 27 0 0 0
M  V30 BEGIN ATOM
M  V30 1 O -2.21858 -1.52259 -0.840449 0
M  V30 2 C -2.63565 -0.324409 -1.07737 0 CFG=1
M  V30 3 C -3.10502 0.261317 0.26037 0
M  V30 4 N -1.81642 0.264727 0.97169 0
M  V30 5 C -0.969684 0.937793 0.0145852 0 CFG=2
M  V30 6 C -1.4544 0.581323 -1.35622 0
M  V30 7 C 0.449873 0.514409 0.122304 0
M  V30 8 N 1.46338 1.39778 0.103587 0
M  V30 9 C 2.76314 1.01101 0.20268 0
M  V30 10 N 3.83553 1.92336 0.184666 0
M  V30 11 N 3.0707 -0.305695 0.325374 0
M  V30 12 C 2.06862 -1.18655 0.344483 0
M  V30 13 N 0.797067 -0.785611 0.245713 0
M  V30 14 N 2.35567 -2.56144 0.470812 0
M  V30 15 H -2.29668 -2.04687 -0.215387 0
M  V30 16 H -3.41261 -0.238426 -1.85355 0
M  V30 17 H -3.84572 -0.364444 0.751952 0
M  V30 18 H -3.39953 1.30796 0.0929703 0
M  V30 19 H -1.51048 -0.718657 1.13294 0
M  V30 20 H -1.0894 2.02153 0.18827 0
M  V30 21 H -1.76775 1.4725 -1.94262 0
M  V30 22 H -0.669009 0.0422583 -1.95589 0
M  V30 23 H 4.35056 2.0876 -0.689944 0
M  V30 24 H 4.09901 2.42092 1.04452 0
M  V30 25 H 2.72178 -3.13018 -0.343825 0
M  V30 26 H 2.21561 -3.05964 1.37197 0
M  V30 END ATOM
M  V30 BEGIN BOND
M  V30 1 1 1 2
M  V30 2 1 2 3
M  V30 3 1 3 4
M  V30 4 1 4 5
M  V30 5 1 5 6
M  V30 6 1 5 7
M  V30 7 2 7 8
M  V30 8 1 8 9
M  V30 9 1 9 10
M  V30 10 2 9 11
M  V30 11 1 11 12
M  V30 12 2 12 13
M  V30 13 1 12 14
M  V30 14 1 6 2
M  V30 15 1 13 7
M  V30 16 1 1 15
M  V30 17 1 2 16 CFG=3
M  V30 18 1 3 17
M  V30 19 1 3 18
M  V30 20 1 4 19
M  V30 21 1 5 20 CFG=1
M  V30 22 1 6 21
M  V30 23 1 6 22
M  V30 24 1 10 23
M  V30 25 1 10 24
M  V30 26 1 14 25
M  V30 27 1 14 26
M  V30 END BOND
M  V30 END CTAB
M  END
