
     RDKit          3D

  0  0  0  0  0  0  0  0  0  0999 V3000
M  V30 BEGIN CTAB
M  V30 COUNTS 30 31 0 0 0
M  V30 BEGIN ATOM
M  V30 1 O -0.617612 -0.867347 -1.56783 0
M  V30 2 C -1.40696 -0.534795 -0.708233 0
M  V30 3 C -2.47561 -1.51089 -0.354759 0
M  V30 4 C -3.77765 -0.775422 -0.665929 0
M  V30 5 C -3.89264 0.36545 0.280203 0
M  V30 6 C -2.71091 1.20663 0.508115 0
M  V30 7 C -1.39766 0.737812 0.0067368 0
M  V30 8 S -0.259178 0.542784 1.42972 0
M  V30 9 C 1.38498 0.334282 0.760586 0
M  V30 10 N 1.82072 -0.926799 0.475264 0
M  V30 11 C 3.05822 -1.07527 -0.0270807 0
M  V30 12 N 3.56612 -2.36122 -0.34271 0
M  V30 13 C 3.89137 -0.00104824 -0.260001 0
M  V30 14 C 3.43758 1.28185 0.0344824 0
M  V30 15 N 2.20038 1.382 0.532512 0
M  V30 16 N 4.2889 2.37604 -0.203601 0
M  V30 17 H -2.38855 -2.46678 -0.873529 0
M  V30 18 H -2.41518 -1.62411 0.759724 0
M  V30 19 H -3.74318 -0.492612 -1.73799 0
M  V30 20 H -4.64252 -1.47141 -0.464578 0
M  V30 21 H -4.28437 -0.0602752 1.25327 0
M  V30 22 H -4.773 0.976844 -0.0868703 0
M  V30 23 H -2.65551 1.45083 1.61107 0
M  V30 24 H -2.90364 2.2196 0.0401948 0
M  V30 25 H -0.89392 1.49018 -0.659431 0
M  V30 26 H 2.97522 -3.02137 -0.873813 0
M  V30 27 H 4.51196 -2.65168 -0.0538216 0
M  V30 28 H 4.88892 -0.108792 -0.663158 0
M  V30 29 H 5.32078 2.26855 -0.200324 0
M  V30 30 H 3.89295 3.31696 -0.387847 0
M  V30 END ATOM
M  V30 BEGIN BOND
M  V30 1 2 1 2
M  V30 2 1 2 3
M  V30 3 1 3 4
M  V30 4 1 4 5
M  V30 5 1 5 6
M  V30 6 1 6 7
M  V30 7 1 7 8
M  V30 8 1 8 9
M  V30 9 2 9 10
M  V30 10 1 10 11
M  V30 11 1 11 12
M  V30 12 2 11 13
M  V30 13 1 13 14
M  V30 14 2 14 15
M  V30 15 1 14 16
M  V30 16 1 7 2
M  V30 17 1 15 9
M  V30 18 1 3 17
M  V30 19 1 3 18
M  V30 20 1 4 19
M  V30 21 1 4 20
M  V30 22 1 5 21
M  V30 23 1 5 22
M  V30 24 1 6 23
M  V30 25 1 6 24
M  V30 26 1 7 25
M  V30 27 1 12 26
M  V30 28 1 12 27
M  V30 29 1 13 28
M  V30 30 1 16 29
M  V30 31 1 16 30
M  V30 END BOND
M  V30 END CTAB
M  END
