
     RDKit          3D

  0  0  0  0  0  0  0  0  0  0999 V3000
M  V30 BEGIN CTAB
M  V30 COUNTS 38 38 0 0 0
M  V30 BEGIN ATOM
M  V30 1 C 3.53766 3.06287 0.143918 0
M  V30 2 C 3.03443 1.77662 0.32931 0
M  V30 3 O 2.55421 0.549209 0.506202 0
M  V30 4 C 1.18385 0.287184 0.29767 0
M  V30 5 C 0.328084 1.2789 -0.0916276 0
M  V30 6 C -1.01744 0.980367 -0.287111 0
M  V30 7 C -1.86144 2.08852 -0.706123 0
M  V30 8 O -1.31934 3.25698 -0.857906 0
M  V30 9 N -3.22189 2.03396 -0.969093 0
M  V30 10 N -3.91537 3.20624 -1.37121 0
M  V30 11 C -1.44799 -0.310451 -0.0812099 0
M  V30 12 C -0.567134 -1.29533 0.311717 0
M  V30 13 C 0.794678 -1.01365 0.513596 0
M  V30 14 C 1.7011 -2.05609 0.920508 0
M  V30 15 O 1.15474 -3.219 1.07588 0
M  V30 16 N 3.05235 -2.01838 1.17028 0
M  V30 17 N 3.73773 -3.20979 1.56723 0
M  V30 18 O -2.74628 -0.649372 -0.257437 0
M  V30 19 C -3.42837 -1.83873 -0.125099 0
M  V30 20 C -2.99902 -2.96857 -1.00387 0
M  V30 21 H 2.77755 3.85363 -0.173605 0
M  V30 22 H 4.38045 3.16689 -0.608052 0
M  V30 23 H 4.03029 3.50269 1.08321 0
M  V30 24 H 3.1235 1.55744 -1.03227 0
M  V30 25 H 4.31173 1.26191 0.273202 0
M  V30 26 H 0.74297 2.26876 -0.233447 0
M  V30 27 H -3.80493 1.20767 -0.901727 0
M  V30 28 H -4.41852 3.53667 -0.518398 0
M  V30 29 H -3.25873 3.96763 -1.63886 0
M  V30 30 H -0.922489 -2.31152 0.478106 0
M  V30 31 H 3.65714 -1.20716 1.10526 0
M  V30 32 H 4.32543 -3.0504 2.40305 0
M  V30 33 H 3.05742 -3.99704 1.70951 0
M  V30 34 H -4.54106 -1.70802 -0.182334 0
M  V30 35 H -3.27428 -2.1719 0.946124 0
M  V30 36 H -2.56396 -3.78487 -0.399902 0
M  V30 37 H -3.87407 -3.39969 -1.5694 0
M  V30 38 H -2.30302 -2.6342 -1.8261 0
M  V30 END ATOM
M  V30 BEGIN BOND
M  V30 1 1 1 2
M  V30 2 1 2 3
M  V30 3 1 3 4
M  V30 4 2 4 5
M  V30 5 1 5 6
M  V30 6 1 6 7
M  V30 7 2 7 8
M  V30 8 1 7 9
M  V30 9 1 9 10
M  V30 10 2 6 11
M  V30 11 1 11 12
M  V30 12 2 12 13
M  V30 13 1 13 14
M  V30 14 2 14 15
M  V30 15 1 14 16
M  V30 16 1 16 17
M  V30 17 1 11 18
M  V30 18 1 18 19
M  V30 19 1 19 20
M  V30 20 1 13 4
M  V30 21 1 1 21
M  V30 22 1 1 22
M  V30 23 1 1 23
M  V30 24 1 2 24
M  V30 25 1 2 25
M  V30 26 1 5 26
M  V30 27 1 9 27
M  V30 28 1 10 28
M  V30 29 1 10 29
M  V30 30 1 12 30
M  V30 31 1 16 31
M  V30 32 1 17 32
M  V30 33 1 17 33
M  V30 34 1 19 34
M  V30 35 1 19 35
M  V30 36 1 20 36
M  V30 37 1 20 37
M  V30 38 1 20 38
M  V30 END BOND
M  V30 END CTAB
M  END
