
     RDKit          3D

  0  0  0  0  0  0  0  0  0  0999 V3000
M  V30 BEGIN CTAB
M  V30 COUNTS 22 22 0 0 0
M  V30 BEGIN ATOM
M  V30 1 N -4.41058 -0.25742 0.63064 0
M  V30 2 C -2.99647 0.113051 0.694929 0
M  V30 3 C -2.36702 -0.306074 -0.588256 0
M  V30 4 N -0.959172 0.000277865 -0.664869 0
M  V30 5 C 0.00899133 -0.496691 0.223281 0
M  V30 6 O -0.332629 -1.25245 1.14784 0
M  V30 7 C 1.39955 -0.119466 0.0483864 0
M  V30 8 N 1.94484 0.67762 -0.88349 0
M  V30 9 N 3.23219 0.768782 -0.702174 0
M  V30 10 C 3.58991 0.0333247 0.35996 0
M  V30 11 N 2.45789 -0.512173 0.819362 0
M  V30 12 N 4.91656 -0.108643 0.860526 0
M  V30 13 H -5.0016 0.358909 1.23603 0
M  V30 14 H -4.70486 -0.129579 -0.377059 0
M  V30 15 H -2.58922 -0.363686 1.58674 0
M  V30 16 H -2.94333 1.23474 0.741148 0
M  V30 17 H -2.90971 0.156346 -1.42765 0
M  V30 18 H -2.43735 -1.43255 -0.635467 0
M  V30 19 H -0.655507 0.632938 -1.43434 0
M  V30 20 H 3.93349 1.32327 -1.27476 0
M  V30 21 H 5.70787 -0.375875 0.23961 0
M  V30 22 H 5.11616 0.0553519 1.86939 0
M  V30 END ATOM
M  V30 BEGIN BOND
M  V30 1 1 1 2
M  V30 2 1 2 3
M  V30 3 1 3 4
M  V30 4 1 4 5
M  V30 5 2 5 6
M  V30 6 1 5 7
M  V30 7 2 7 8
M  V30 8 1 8 9
M  V30 9 1 9 10
M  V30 10 2 10 11
M  V30 11 1 10 12
M  V30 12 1 11 7
M  V30 13 1 1 13
M  V30 14 1 1 14
M  V30 15 1 2 15
M  V30 16 1 2 16
M  V30 17 1 3 17
M  V30 18 1 3 18
M  V30 19 1 4 19
M  V30 20 1 9 20
M  V30 21 1 12 21
M  V30 22 1 12 22
M  V30 END BOND
M  V30 END CTAB
M  END
