
     RDKit          3D

  0  0  0  0  0  0  0  0  0  0999 V3000
M  V30 BEGIN CTAB
M  V30 COUNTS 41 43 0 0 0
M  V30 BEGIN ATOM
M  V30 1 N 4.89902 -0.734643 -0.623392 0
M  V30 2 C 4.0298 -0.873659 0.538614 0 CFG=2
M  V30 3 C 3.34966 -2.20285 0.506117 0
M  V30 4 C 1.87388 -1.85312 0.362662 0
M  V30 5 C 1.8435 -0.522735 -0.312424 0 CFG=2
M  V30 6 C 2.98897 0.193534 0.437109 0
M  V30 7 N 0.659219 0.237424 -0.0191473 0
M  V30 8 C 0.144319 1.13091 -0.987698 0
M  V30 9 O 0.674754 1.30866 -2.09609 0
M  V30 10 C -1.07648 1.90948 -0.696239 0
M  V30 11 C -1.03789 3.29106 -0.923586 0
M  V30 12 N -2.10464 4.01029 -0.556392 0
M  V30 13 C -3.20437 3.47617 0.0145972 0
M  V30 14 N -3.20487 2.16007 0.210378 0
M  V30 15 C -2.16604 1.32945 -0.128057 0
M  V30 16 C -2.32839 -0.115914 0.104735 0
M  V30 17 C -2.04255 -1.06495 -0.843358 0
M  V30 18 C -2.19474 -2.40543 -0.63356 0
M  V30 19 C -2.65754 -2.83584 0.583176 0
M  V30 20 C -2.95877 -1.91609 1.56333 0
M  V30 21 C -2.79782 -0.57725 1.33473 0
M  V30 22 N -4.31751 4.30771 0.389147 0
M  V30 23 H 5.35689 -1.6362 -0.862441 0
M  V30 24 H 5.65755 -0.0686837 -0.342557 0
M  V30 25 H 4.5986 -0.729809 1.48895 0
M  V30 26 H 3.52369 -2.80828 1.41616 0
M  V30 27 H 3.6853 -2.83338 -0.357626 0
M  V30 28 H 1.50149 -1.74385 1.40098 0
M  V30 29 H 1.4001 -2.65281 -0.195426 0
M  V30 30 H 2.13501 -0.515338 -1.37432 0
M  V30 31 H 2.5844 0.459897 1.41445 0
M  V30 32 H 3.31908 1.04472 -0.191638 0
M  V30 33 H 0.201665 0.140303 0.894858 0
M  V30 34 H -0.147212 3.68051 -1.37656 0
M  V30 35 H -1.67328 -0.729169 -1.81534 0
M  V30 36 H -1.96464 -3.11021 -1.39274 0
M  V30 37 H -2.79466 -3.90415 0.805062 0
M  V30 38 H -3.32041 -2.25447 2.5203 0
M  V30 39 H -3.01429 0.195757 2.0576 0
M  V30 40 H -5.15877 3.88786 0.804555 0
M  V30 41 H -4.26202 5.32503 0.236156 0
M  V30 END ATOM
M  V30 BEGIN BOND
M  V30 1 1 1 2
M  V30 2 1 2 3
M  V30 3 1 3 4
M  V30 4 1 4 5
M  V30 5 1 5 6
M  V30 6 1 5 7
M  V30 7 1 7 8
M  V30 8 2 8 9
M  V30 9 1 8 10
M  V30 10 2 10 11
M  V30 11 1 11 12
M  V30 12 2 12 13
M  V30 13 1 13 14
M  V30 14 2 14 15
M  V30 15 1 15 16
M  V30 16 2 16 17
M  V30 17 1 17 18
M  V30 18 2 18 19
M  V30 19 1 19 20
M  V30 20 2 20 21
M  V30 21 1 13 22
M  V30 22 1 6 2
M  V30 23 1 15 10
M  V30 24 1 21 16
M  V30 25 1 1 23
M  V30 26 1 1 24
M  V30 27 1 2 25 CFG=1
M  V30 28 1 3 26
M  V30 29 1 3 27
M  V30 30 1 4 28
M  V30 31 1 4 29
M  V30 32 1 5 30 CFG=3
M  V30 33 1 6 31
M  V30 34 1 6 32
M  V30 35 1 7 33
M  V30 36 1 11 34
M  V30 37 1 17 35
M  V30 38 1 18 36
M  V30 39 1 19 37
M  V30 40 1 20 38
M  V30 41 1 21 39
M  V30 42 1 22 40
M  V30 43 1 22 41
M  V30 END BOND
M  V30 END CTAB
M  END
