
     RDKit          3D

  0  0  0  0  0  0  0  0  0  0999 V3000
M  V30 BEGIN CTAB
M  V30 COUNTS 25 27 0 0 0
M  V30 BEGIN ATOM
M  V30 1 O -3.84945 -1.66733 -0.347713 0
M  V30 2 C -3.09794 -0.676761 -0.158097 0
M  V30 3 O -3.58886 0.604094 0.0725015 0
M  V30 4 C -2.73044 1.67083 0.277189 0
M  V30 5 O -3.13069 2.83576 0.487379 0
M  V30 6 C -1.29656 1.42703 0.246663 0
M  V30 7 C -0.821786 0.133795 0.0136291 0
M  V30 8 C -1.65326 -0.934365 -0.191049 0
M  V30 9 C -1.16782 -2.21273 -0.421249 0
M  V30 10 C 0.184435 -2.44147 -0.449827 0
M  V30 11 C 1.03099 -1.3715 -0.244675 0
M  V30 12 C 0.554411 -0.0949911 -0.0147249 0
M  V30 13 C 1.45043 0.928054 0.182292 0
M  V30 14 C 0.962855 2.19833 0.410981 0
M  V30 15 C -0.390245 2.45437 0.444577 0
M  V30 16 N 2.85455 0.729449 0.159831 0
M  V30 17 N 2.43008 -1.57989 -0.269154 0
M  V30 18 H -1.88873 -3.00828 -0.574682 0
M  V30 19 H 0.604393 -3.41726 -0.625023 0
M  V30 20 H 1.67357 3.00299 0.566014 0
M  V30 21 H -0.776442 3.43524 0.621043 0
M  V30 22 H 3.44981 0.797671 -0.687206 0
M  V30 23 H 3.31078 0.495442 1.0887 0
M  V30 24 H 2.92508 -1.48813 -1.17273 0
M  V30 25 H 2.96085 -1.82035 0.585333 0
M  V30 END ATOM
M  V30 BEGIN BOND
M  V30 1 2 1 2
M  V30 2 1 2 3
M  V30 3 1 3 4
M  V30 4 2 4 5
M  V30 5 1 4 6
M  V30 6 1 6 7
M  V30 7 2 7 8
M  V30 8 1 8 9
M  V30 9 2 9 10
M  V30 10 1 10 11
M  V30 11 2 11 12
M  V30 12 1 12 13
M  V30 13 2 13 14
M  V30 14 1 14 15
M  V30 15 1 13 16
M  V30 16 1 11 17
M  V30 17 1 8 2
M  V30 18 2 15 6
M  V30 19 1 12 7
M  V30 20 1 9 18
M  V30 21 1 10 19
M  V30 22 1 14 20
M  V30 23 1 15 21
M  V30 24 1 16 22
M  V30 25 1 16 23
M  V30 26 1 17 24
M  V30 27 1 17 25
M  V30 END BOND
M  V30 END CTAB
M  END
