
     RDKit          3D

  0  0  0  0  0  0  0  0  0  0999 V3000
M  V30 BEGIN CTAB
M  V30 COUNTS 34 36 0 0 0
M  V30 BEGIN ATOM
M  V30 1 N 3.66087 -1.44457 -0.136836 0
M  V30 2 C 2.3379 -1.51302 0.0744753 0
M  V30 3 C 1.17232 -0.674821 -0.185613 0
M  V30 4 C -0.0621252 -1.34138 -0.255135 0
M  V30 5 C 0.00933743 -2.72927 -0.388777 0
M  V30 6 C -1.14301 -3.45412 -0.483721 0
M  V30 7 C -2.37053 -2.82266 -0.452306 0
M  V30 8 C -2.46493 -1.42403 -0.321883 0
M  V30 9 C -1.27227 -0.734144 -0.228256 0
M  V30 10 C -1.31507 0.668902 -0.113206 0
M  V30 11 C -2.6381 1.26463 -0.124037 0
M  V30 12 N -2.82191 2.19725 1.05164 0
M  V30 13 C -0.143869 1.36885 -0.0468672 0
M  V30 14 C -0.12308 2.7402 -0.03929 0
M  V30 15 C 1.03569 3.46163 -0.0604617 0
M  V30 16 C 2.25254 2.79203 -0.0928814 0
M  V30 17 C 2.2799 1.42848 -0.102842 0
M  V30 18 C 1.10303 0.718515 -0.0827703 0
M  V30 19 H 4.01304 -2.51054 -0.195058 0
M  V30 20 H 4.4022 -1.02917 0.412782 0
M  V30 21 H 2.50123 -0.906661 1.31145 0
M  V30 22 H 2.02724 -2.44694 0.765006 0
M  V30 23 H 0.971893 -3.21597 -0.450652 0
M  V30 24 H -1.03664 -4.52662 -0.553906 0
M  V30 25 H -3.29046 -3.38606 -0.538377 0
M  V30 26 H -3.4354 -1.03932 -0.34677 0
M  V30 27 H -3.50969 0.737967 -0.328746 0
M  V30 28 H -2.60163 2.05177 -1.02729 0
M  V30 29 H -3.81898 1.90974 1.45213 0
M  V30 30 H -2.23554 1.68639 1.8374 0
M  V30 31 H -1.04151 3.34683 -0.0203492 0
M  V30 32 H 1.11465 4.54856 -0.0740099 0
M  V30 33 H 3.19885 3.36853 -0.119467 0
M  V30 34 H 3.24404 0.909047 -0.13537 0
M  V30 END ATOM
M  V30 BEGIN BOND
M  V30 1 1 1 2
M  V30 2 1 2 3
M  V30 3 2 3 4
M  V30 4 1 4 5
M  V30 5 2 5 6
M  V30 6 1 6 7
M  V30 7 2 7 8
M  V30 8 1 8 9
M  V30 9 2 9 10
M  V30 10 1 10 11
M  V30 11 1 11 12
M  V30 12 1 10 13
M  V30 13 2 13 14
M  V30 14 1 14 15
M  V30 15 2 15 16
M  V30 16 1 16 17
M  V30 17 2 17 18
M  V30 18 1 18 3
M  V30 19 1 9 4
M  V30 20 1 18 13
M  V30 21 1 1 19
M  V30 22 1 1 20
M  V30 23 1 2 21
M  V30 24 1 2 22
M  V30 25 1 5 23
M  V30 26 1 6 24
M  V30 27 1 7 25
M  V30 28 1 8 26
M  V30 29 1 11 27
M  V30 30 1 11 28
M  V30 31 1 12 29
M  V30 32 1 12 30
M  V30 33 1 14 31
M  V30 34 1 15 32
M  V30 35 1 16 33
M  V30 36 1 17 34
M  V30 END BOND
M  V30 END CTAB
M  END
