
     RDKit          3D

  0  0  0  0  0  0  0  0  0  0999 V3000
M  V30 BEGIN CTAB
M  V30 COUNTS 30 31 0 0 0
M  V30 BEGIN ATOM
M  V30 1 C 3.61508 -1.41681 0.840419 0
M  V30 2 C 2.72525 -0.337603 0.330029 0
M  V30 3 C 1.55247 -0.0246177 0.990687 0
M  V30 4 C 0.78192 1.00181 0.438284 0
M  V30 5 O -0.421463 1.35816 1.07388 0
M  V30 6 C -1.62356 0.729841 0.722268 0
M  V30 7 C -2.39577 1.28579 -0.300152 0
M  V30 8 C -3.58001 0.70197 -0.675733 0
M  V30 9 C -4.01221 -0.452899 -0.0309997 0
M  V30 10 N -5.23566 -1.05554 -0.419433 0
M  V30 11 C -3.22031 -0.974691 0.977379 0
M  V30 12 C -2.03208 -0.414332 1.37533 0
M  V30 13 C 1.15282 1.6705 -0.693296 0
M  V30 14 C 2.31825 1.34424 -1.33151 0
M  V30 15 C 3.12767 0.325664 -0.822896 0
M  V30 16 N 4.33539 -0.031944 -1.46079 0
M  V30 17 H 4.68822 -1.16692 0.719461 0
M  V30 18 H 3.36279 -1.65807 1.90594 0
M  V30 19 H 3.46103 -2.37686 0.280011 0
M  V30 20 H 1.24483 -0.533279 1.874 0
M  V30 21 H -2.02609 2.18618 -0.779055 0
M  V30 22 H -4.18715 1.13188 -1.47363 0
M  V30 23 H -5.32756 -1.36976 -1.40554 0
M  V30 24 H -6.01132 -1.18331 0.239088 0
M  V30 25 H -3.57282 -1.87787 1.47107 0
M  V30 26 H -1.42484 -0.854647 2.18192 0
M  V30 27 H 0.50909 2.46315 -1.07688 0
M  V30 28 H 2.63352 1.86302 -2.23373 0
M  V30 29 H 5.24435 0.0572514 -0.975325 0
M  V30 30 H 4.31817 -0.390303 -2.43105 0
M  V30 END ATOM
M  V30 BEGIN BOND
M  V30 1 1 1 2
M  V30 2 2 2 3
M  V30 3 1 3 4
M  V30 4 1 4 5
M  V30 5 1 5 6
M  V30 6 2 6 7
M  V30 7 1 7 8
M  V30 8 2 8 9
M  V30 9 1 9 10
M  V30 10 1 9 11
M  V30 11 2 11 12
M  V30 12 2 4 13
M  V30 13 1 13 14
M  V30 14 2 14 15
M  V30 15 1 15 16
M  V30 16 1 15 2
M  V30 17 1 12 6
M  V30 18 1 1 17
M  V30 19 1 1 18
M  V30 20 1 1 19
M  V30 21 1 3 20
M  V30 22 1 7 21
M  V30 23 1 8 22
M  V30 24 1 10 23
M  V30 25 1 10 24
M  V30 26 1 11 25
M  V30 27 1 12 26
M  V30 28 1 13 27
M  V30 29 1 14 28
M  V30 30 1 16 29
M  V30 31 1 16 30
M  V30 END BOND
M  V30 END CTAB
M  END
