
     RDKit          3D

  0  0  0  0  0  0  0  0  0  0999 V3000
M  V30 BEGIN CTAB
M  V30 COUNTS 32 33 0 0 0
M  V30 BEGIN ATOM
M  V30 1 Cl -2.99767 2.51851 -1.81344 0
M  V30 2 C -2.96664 0.947377 -1.0279 0
M  V30 3 C -2.11678 0.786941 0.0750264 0
M  V30 4 C -2.06621 -0.430817 0.715336 0
M  V30 5 N -1.21318 -0.636845 1.82824 0
M  V30 6 C -0.314767 0.336648 2.37378 0
M  V30 7 C 0.795146 0.710796 1.44798 0
M  V30 8 C 1.52906 1.85002 1.69975 0
M  V30 9 C 2.57752 2.25019 0.886592 0
M  V30 10 C 2.91917 1.50657 -0.213612 0
M  V30 11 C 2.19378 0.363186 -0.479076 0
M  V30 12 C 1.14098 -0.0386416 0.337452 0
M  V30 13 S 2.61631 -0.595478 -1.87703 0
M  V30 14 O 3.15677 0.297195 -2.95665 0
M  V30 15 O 1.39373 -1.31559 -2.3316 0
M  V30 16 N 3.79103 -1.77577 -1.41959 0
M  V30 17 N -2.85441 -1.41769 0.23342 0
M  V30 18 C -3.67219 -1.27364 -0.822689 0
M  V30 19 N -3.7199 -0.0837453 -1.44684 0
M  V30 20 N -4.47939 -2.38373 -1.26893 0
M  V30 21 H -1.50879 1.59255 0.437202 0
M  V30 22 H -1.24507 -1.5786 2.28625 0
M  V30 23 H 0.127264 -0.000796284 3.33196 0
M  V30 24 H -0.926664 1.22919 2.62887 0
M  V30 25 H 1.26779 2.44423 2.56551 0
M  V30 26 H 3.15227 3.14239 1.0838 0
M  V30 27 H 3.73862 1.7842 -0.882722 0
M  V30 28 H 0.572228 -0.948555 0.116473 0
M  V30 29 H 4.00611 -2.44127 -2.16824 0
M  V30 30 H 4.65472 -1.25045 -1.14371 0
M  V30 31 H -4.10206 -3.05519 -1.95204 0
M  V30 32 H -5.44878 -2.53317 -0.918122 0
M  V30 END ATOM
M  V30 BEGIN BOND
M  V30 1 1 1 2
M  V30 2 2 2 3
M  V30 3 1 3 4
M  V30 4 1 4 5
M  V30 5 1 5 6
M  V30 6 1 6 7
M  V30 7 2 7 8
M  V30 8 1 8 9
M  V30 9 2 9 10
M  V30 10 1 10 11
M  V30 11 2 11 12
M  V30 12 1 11 13
M  V30 13 2 13 14
M  V30 14 2 13 15
M  V30 15 1 13 16
M  V30 16 2 4 17
M  V30 17 1 17 18
M  V30 18 2 18 19
M  V30 19 1 18 20
M  V30 20 1 19 2
M  V30 21 1 12 7
M  V30 22 1 3 21
M  V30 23 1 5 22
M  V30 24 1 6 23
M  V30 25 1 6 24
M  V30 26 1 8 25
M  V30 27 1 9 26
M  V30 28 1 10 27
M  V30 29 1 12 28
M  V30 30 1 16 29
M  V30 31 1 16 30
M  V30 32 1 20 31
M  V30 33 1 20 32
M  V30 END BOND
M  V30 END CTAB
M  END
