
     RDKit          3D

  0  0  0  0  0  0  0  0  0  0999 V3000
M  V30 BEGIN CTAB
M  V30 COUNTS 40 41 0 0 0
M  V30 BEGIN ATOM
M  V30 1 C -1.39659 1.28391 -1.89345 0
M  V30 2 C -2.03638 1.44043 -0.537391 0
M  V30 3 C -3.46491 0.939298 -0.60915 0
M  V30 4 C -3.57971 -0.548005 -0.615939 0
M  V30 5 C -2.64274 -1.17925 0.393053 0
M  V30 6 C -2.11031 -0.126818 1.31661 0
M  V30 7 C -1.25663 0.932437 0.62422 0
M  V30 8 N 0.082008 0.596435 0.465461 0
M  V30 9 C 0.574448 -0.453408 -0.278603 0
M  V30 10 C 2.08853 -0.409376 -0.24323 0
M  V30 11 N 2.76005 -1.37237 -0.890278 0
M  V30 12 C 4.11457 -1.37097 -0.906427 0
M  V30 13 N 4.86907 -2.36437 -1.58215 0
M  V30 14 N 4.77562 -0.403562 -0.272914 0
M  V30 15 C 4.13655 0.55556 0.37201 0
M  V30 16 N 2.77571 0.545816 0.382825 0
M  V30 17 N 4.7948 1.59582 1.05195 0
M  V30 18 C -1.40582 -0.699609 2.50703 0
M  V30 19 H -1.57376 0.307399 -2.36773 0
M  V30 20 H -0.33647 1.61289 -1.86955 0
M  V30 21 H -1.88005 2.02145 -2.60692 0
M  V30 22 H -2.1897 2.57601 -0.460875 0
M  V30 23 H -4.01772 1.41616 0.228455 0
M  V30 24 H -3.90088 1.36114 -1.54948 0
M  V30 25 H -3.29748 -0.910804 -1.63007 0
M  V30 26 H -4.64015 -0.809896 -0.429725 0
M  V30 27 H -3.28681 -1.85069 1.03479 0
M  V30 28 H -1.92172 -1.83646 -0.0742831 0
M  V30 29 H -3.00482 0.418807 1.69232 0
M  V30 30 H -1.26798 1.77818 1.39225 0
M  V30 31 H 0.777386 1.06164 1.04791 0
M  V30 32 H 0.399049 -1.48579 0.205572 0
M  V30 33 H 0.352525 -0.579159 -1.33025 0
M  V30 34 H 5.48709 -2.07002 -2.35692 0
M  V30 35 H 4.80201 -3.35826 -1.31423 0
M  V30 36 H 5.34919 1.38966 1.89039 0
M  V30 37 H 4.71257 2.56497 0.702364 0
M  V30 38 H -0.493024 -0.0983172 2.70808 0
M  V30 39 H -2.00239 -0.683701 3.44781 0
M  V30 40 H -1.14516 -1.78718 2.35648 0
M  V30 END ATOM
M  V30 BEGIN BOND
M  V30 1 1 1 2
M  V30 2 1 2 3
M  V30 3 1 3 4
M  V30 4 1 4 5
M  V30 5 1 5 6
M  V30 6 1 6 7
M  V30 7 1 7 8
M  V30 8 1 8 9
M  V30 9 1 9 10
M  V30 10 2 10 11
M  V30 11 1 11 12
M  V30 12 1 12 13
M  V30 13 2 12 14
M  V30 14 1 14 15
M  V30 15 2 15 16
M  V30 16 1 15 17
M  V30 17 1 6 18
M  V30 18 1 7 2
M  V30 19 1 16 10
M  V30 20 1 1 19
M  V30 21 1 1 20
M  V30 22 1 1 21
M  V30 23 1 2 22
M  V30 24 1 3 23
M  V30 25 1 3 24
M  V30 26 1 4 25
M  V30 27 1 4 26
M  V30 28 1 5 27
M  V30 29 1 5 28
M  V30 30 1 6 29
M  V30 31 1 7 30
M  V30 32 1 8 31
M  V30 33 1 9 32
M  V30 34 1 9 33
M  V30 35 1 13 34
M  V30 36 1 13 35
M  V30 37 1 17 36
M  V30 38 1 17 37
M  V30 39 1 18 38
M  V30 40 1 18 39
M  V30 41 1 18 40
M  V30 END BOND
M  V30 END CTAB
M  END
