
     RDKit          3D

  0  0  0  0  0  0  0  0  0  0999 V3000
M  V30 BEGIN CTAB
M  V30 COUNTS 25 25 0 0 0
M  V30 BEGIN ATOM
M  V30 1 O 3.14158 1.50686 1.01541 0
M  V30 2 C 2.99166 0.386479 0.233177 0
M  V30 3 O 3.94792 -0.385827 0.0397845 0
M  V30 4 C 1.68424 0.0981965 -0.382432 0
M  V30 5 C 0.678216 -0.00407393 0.742426 0
M  V30 6 C -0.684169 -0.290264 0.297475 0
M  V30 7 C -1.23628 -1.54814 0.434424 0
M  V30 8 C -2.52506 -1.79201 0.00699593 0
M  V30 9 C -3.30672 -0.812219 -0.565192 0
M  V30 10 C -2.74454 0.440576 -0.696825 0
M  V30 11 C -1.44711 0.707476 -0.272394 0
M  V30 12 N -0.931289 2.02162 -0.438489 0
M  V30 13 N 1.75204 -1.11647 -1.16573 0
M  V30 14 H 3.81089 2.24742 0.832323 0
M  V30 15 H 1.40934 0.913155 -1.04903 0
M  V30 16 H 1.0296 -0.800643 1.46389 0
M  V30 17 H 0.748432 0.941444 1.31938 0
M  V30 18 H -0.662645 -2.37488 0.884233 0
M  V30 19 H -2.98935 -2.77548 0.101821 0
M  V30 20 H -4.32286 -0.993863 -0.905024 0
M  V30 21 H -3.30809 1.23131 -1.1326 0
M  V30 22 H -0.365202 2.49682 0.29665 0
M  V30 23 H -1.10709 2.55652 -1.31475 0
M  V30 24 H 1.88319 -0.932963 -2.18754 0
M  V30 25 H 2.55329 -1.72104 -0.875776 0
M  V30 END ATOM
M  V30 BEGIN BOND
M  V30 1 1 1 2
M  V30 2 2 2 3
M  V30 3 1 2 4
M  V30 4 1 4 5
M  V30 5 1 5 6
M  V30 6 2 6 7
M  V30 7 1 7 8
M  V30 8 2 8 9
M  V30 9 1 9 10
M  V30 10 2 10 11
M  V30 11 1 11 12
M  V30 12 1 4 13
M  V30 13 1 11 6
M  V30 14 1 1 14
M  V30 15 1 4 15
M  V30 16 1 5 16
M  V30 17 1 5 17
M  V30 18 1 7 18
M  V30 19 1 8 19
M  V30 20 1 9 20
M  V30 21 1 10 21
M  V30 22 1 12 22
M  V30 23 1 12 23
M  V30 24 1 13 24
M  V30 25 1 13 25
M  V30 END BOND
M  V30 END CTAB
M  END
