
     RDKit          3D

  0  0  0  0  0  0  0  0  0  0999 V3000
M  V30 BEGIN CTAB
M  V30 COUNTS 19 19 0 0 0
M  V30 BEGIN ATOM
M  V30 1 N -0.749021 2.81457 -0.0826998 0
M  V30 2 C -0.454892 1.43252 -0.0463433 0
M  V30 3 C 0.846808 0.993629 -0.0467577 0
M  V30 4 C 1.175 -0.353305 -0.0117387 0
M  V30 5 C 2.59441 -0.813713 -0.0127121 0
M  V30 6 C 0.127757 -1.27621 0.0248461 0
M  V30 7 C -1.18288 -0.88324 0.026654 0
M  V30 8 C -1.45296 0.460787 -0.00885652 0
M  V30 9 N -2.27454 -1.79434 0.063345 0
M  V30 10 F 0.388219 -2.60553 0.0600434 0
M  V30 11 H -1.19104 3.22279 -0.909771 0
M  V30 12 H -0.50777 3.39191 0.739102 0
M  V30 13 H 1.65887 1.68578 -0.0744606 0
M  V30 14 H 3.25042 -0.0106776 -0.351637 0
M  V30 15 H 2.84279 -1.0521 1.06001 0
M  V30 16 H 2.74058 -1.72603 -0.599612 0
M  V30 17 H -2.46885 0.826557 -0.00919713 0
M  V30 18 H -2.13603 -2.72943 0.505141 0
M  V30 19 H -3.20687 -1.58396 -0.325357 0
M  V30 END ATOM
M  V30 BEGIN BOND
M  V30 1 1 1 2
M  V30 2 2 2 3
M  V30 3 1 3 4
M  V30 4 1 4 5
M  V30 5 2 4 6
M  V30 6 1 6 7
M  V30 7 2 7 8
M  V30 8 1 7 9
M  V30 9 1 6 10
M  V30 10 1 8 2
M  V30 11 1 1 11
M  V30 12 1 1 12
M  V30 13 1 3 13
M  V30 14 1 5 14
M  V30 15 1 5 15
M  V30 16 1 5 16
M  V30 17 1 8 17
M  V30 18 1 9 18
M  V30 19 1 9 19
M  V30 END BOND
M  V30 END CTAB
M  END
