
     RDKit          3D

  0  0  0  0  0  0  0  0  0  0999 V3000
M  V30 BEGIN CTAB
M  V30 COUNTS 25 26 0 0 0
M  V30 BEGIN ATOM
M  V30 1 C -4.99835 0.54306 0.681143 0
M  V30 2 C -3.84822 -0.204169 0.078726 0
M  V30 3 N -3.86006 -1.27109 -0.708167 0
M  V30 4 C -2.58305 -1.57706 -0.990528 0
M  V30 5 C -1.74293 -0.684739 -0.369163 0
M  V30 6 N -2.57745 0.146177 0.281027 0
M  V30 7 C -0.257257 -0.660251 -0.416886 0
M  V30 8 C 0.442773 -1.5972 -1.1394 0
M  V30 9 S 2.05511 -1.10905 -0.850552 0
M  V30 10 C 1.74446 0.232602 0.153391 0
M  V30 11 N 2.62975 1.1585 0.797517 0
M  V30 12 C 3.89748 1.01265 0.633634 0
M  V30 13 N 4.84735 1.87651 1.22911 0
M  V30 14 N 4.40953 -0.0371516 -0.163964 0
M  V30 15 N 0.426123 0.236721 0.214832 0
M  V30 16 H -5.95677 0.110983 0.407563 0
M  V30 17 H -4.94227 1.61323 0.388138 0
M  V30 18 H -4.90082 0.514974 1.78687 0
M  V30 19 H -2.23839 -2.40169 -1.6144 0
M  V30 20 H -2.21321 0.957215 0.863463 0
M  V30 21 H 0.0320939 -2.43197 -1.73729 0
M  V30 22 H 5.01504 2.86015 0.90471 0
M  V30 23 H 5.42146 1.54899 2.02808 0
M  V30 24 H 4.73262 -0.942787 0.225153 0
M  V30 25 H 4.46498 0.10539 -1.19033 0
M  V30 END ATOM
M  V30 BEGIN BOND
M  V30 1 1 1 2
M  V30 2 2 2 3
M  V30 3 1 3 4
M  V30 4 2 4 5
M  V30 5 1 5 6
M  V30 6 1 5 7
M  V30 7 2 7 8
M  V30 8 1 8 9
M  V30 9 1 9 10
M  V30 10 1 10 11
M  V30 11 2 11 12
M  V30 12 1 12 13
M  V30 13 1 12 14
M  V30 14 2 10 15
M  V30 15 1 6 2
M  V30 16 1 15 7
M  V30 17 1 1 16
M  V30 18 1 1 17
M  V30 19 1 1 18
M  V30 20 1 4 19
M  V30 21 1 6 20
M  V30 22 1 8 21
M  V30 23 1 13 22
M  V30 24 1 13 23
M  V30 25 1 14 24
M  V30 26 1 14 25
M  V30 END BOND
M  V30 END CTAB
M  END
