
     RDKit          3D

  0  0  0  0  0  0  0  0  0  0999 V3000
M  V30 BEGIN CTAB
M  V30 COUNTS 50 53 0 0 0
M  V30 BEGIN ATOM
M  V30 1 N 9.52541 1.2231 0.0750378 0
M  V30 2 C 8.28281 1.10419 0.725546 0
M  V30 3 N 8.17654 1.43607 1.96665 0
M  V30 4 C 7.14069 0.60563 -0.0256147 0
M  V30 5 C 5.93112 0.49618 0.629656 0
M  V30 6 C 4.81772 0.0292812 -0.0362602 0
M  V30 7 C 4.93177 -0.325925 -1.36498 0
M  V30 8 C 3.66195 -0.739502 -1.71226 0
M  V30 9 C 2.83933 -0.622211 -0.602063 0
M  V30 10 C 1.37862 -0.960675 -0.525703 0
M  V30 11 C 0.627741 0.289138 -0.892422 0
M  V30 12 C -0.860102 0.130874 -0.868262 0
M  V30 13 C -1.29965 -0.265581 0.525194 0
M  V30 14 C -2.76987 -0.41357 0.516842 0
M  V30 15 C -3.49919 -1.54737 0.247319 0
M  V30 16 C -4.82498 -1.18645 0.363507 0
M  V30 17 C -4.85217 0.145765 0.697439 0
M  V30 18 O -3.61145 0.545695 0.773326 0
M  V30 19 C -6.06982 0.813402 0.888271 0
M  V30 20 C -7.27935 0.173229 0.751651 0
M  V30 21 C -7.22333 -1.18768 0.409974 0
M  V30 22 C -6.02349 -1.82814 0.226292 0
M  V30 23 C -8.56087 0.823319 0.939321 0
M  V30 24 N -9.75502 0.079836 0.776532 0
M  V30 25 N -8.63987 2.04954 1.24773 0
M  V30 26 O 3.59751 -0.150478 0.38444 0
M  V30 27 C 6.16033 -0.210023 -2.01413 0
M  V30 28 C 7.27244 0.255121 -1.35319 0
M  V30 29 H 10.1998 0.446152 0.101625 0
M  V30 30 H 9.76012 2.09091 -0.429195 0
M  V30 31 H 9.0004 1.79177 2.49489 0
M  V30 32 H 5.90103 0.788685 1.66922 0
M  V30 33 H 3.37154 -1.09183 -2.68502 0
M  V30 34 H 1.1456 -1.34373 0.481098 0
M  V30 35 H 1.19632 -1.78851 -1.23627 0
M  V30 36 H 1.0233 0.675208 -1.83601 0
M  V30 37 H 0.889578 1.05362 -0.105603 0
M  V30 38 H -1.25588 -0.553248 -1.61549 0
M  V30 39 H -1.30267 1.12959 -1.06387 0
M  V30 40 H -1.03089 0.513244 1.26563 0
M  V30 41 H -0.851976 -1.21537 0.866475 0
M  V30 42 H -3.12728 -2.53806 -0.00786284 0
M  V30 43 H -6.01971 1.86907 1.15149 0
M  V30 44 H -8.17911 -1.68224 0.304849 0
M  V30 45 H -6.00564 -2.88076 -0.0374831 0
M  V30 46 H -10.2062 -0.333093 1.61522 0
M  V30 47 H -10.1741 -0.0515322 -0.163765 0
M  V30 48 H -7.82608 2.63699 1.37887 0
M  V30 49 H 6.18285 -0.501498 -3.04365 0
M  V30 50 H 8.23416 0.347684 -1.85498 0
M  V30 END ATOM
M  V30 BEGIN BOND
M  V30 1 1 1 2
M  V30 2 2 2 3 CFG=2
M  V30 3 1 2 4
M  V30 4 2 4 5
M  V30 5 1 5 6
M  V30 6 2 6 7
M  V30 7 1 7 8
M  V30 8 2 8 9
M  V30 9 1 9 10
M  V30 10 1 10 11
M  V30 11 1 11 12
M  V30 12 1 12 13
M  V30 13 1 13 14
M  V30 14 2 14 15
M  V30 15 1 15 16
M  V30 16 2 16 17
M  V30 17 1 17 18
M  V30 18 1 17 19
M  V30 19 2 19 20
M  V30 20 1 20 21
M  V30 21 2 21 22
M  V30 22 1 20 23
M  V30 23 1 23 24
M  V30 24 2 23 25 CFG=2
M  V30 25 1 9 26
M  V30 26 1 7 27
M  V30 27 2 27 28
M  V30 28 1 28 4
M  V30 29 1 26 6
M  V30 30 1 18 14
M  V30 31 1 22 16
M  V30 32 1 1 29
M  V30 33 1 1 30
M  V30 34 1 3 31
M  V30 35 1 5 32
M  V30 36 1 8 33
M  V30 37 1 10 34
M  V30 38 1 10 35
M  V30 39 1 11 36
M  V30 40 1 11 37
M  V30 41 1 12 38
M  V30 42 1 12 39
M  V30 43 1 13 40
M  V30 44 1 13 41
M  V30 45 1 15 42
M  V30 46 1 19 43
M  V30 47 1 21 44
M  V30 48 1 22 45
M  V30 49 1 24 46
M  V30 50 1 24 47
M  V30 51 1 25 48
M  V30 52 1 27 49
M  V30 53 1 28 50
M  V30 END BOND
M  V30 END CTAB
M  END
