
     RDKit          3D

  0  0  0  0  0  0  0  0  0  0999 V3000
M  V30 BEGIN CTAB
M  V30 COUNTS 28 28 0 0 0
M  V30 BEGIN ATOM
M  V30 1 C 2.13952 -1.9801 -0.601436 0
M  V30 2 C 1.02835 -1.03626 -0.435748 0
M  V30 3 C -0.252462 -1.49093 -0.555932 0
M  V30 4 C -1.35587 -0.630523 -0.406867 0
M  V30 5 C -2.67905 -1.17856 -0.567185 0
M  V30 6 O -2.81128 -2.55874 -0.736368 0
M  V30 7 O -3.7033 -0.502358 -0.563559 0
M  V30 8 C -1.16071 0.702627 -0.132935 0
M  V30 9 C 0.175745 1.11552 -0.0203164 0
M  V30 10 C 1.25476 0.278951 -0.165418 0
M  V30 11 S 2.88553 0.856203 -0.0131352 0
M  V30 12 N 3.74076 0.0534047 1.26685 0
M  V30 13 O 2.8349 2.32542 0.384536 0
M  V30 14 O 3.64518 0.802647 -1.30362 0
M  V30 15 S -2.41513 1.88021 0.0964183 0
M  V30 16 N -3.4529 1.50866 1.43392 0
M  V30 17 O -1.73616 3.19457 0.491098 0
M  V30 18 O -3.13953 2.10064 -1.17911 0
M  V30 19 H 2.13883 -2.66305 0.297597 0
M  V30 20 H 3.12496 -1.53062 -0.702637 0
M  V30 21 H 1.87177 -2.65192 -1.46182 0
M  V30 22 H -0.45928 -2.52134 -0.76877 0
M  V30 23 H -2.38466 -2.93966 -1.57882 0
M  V30 24 H 0.386649 2.15956 0.194417 0
M  V30 25 H 3.20375 0.269243 2.14309 0
M  V30 26 H 4.65044 0.578041 1.36854 0
M  V30 27 H -4.39291 1.89904 1.19946 0
M  V30 28 H -3.13791 1.95931 2.31774 0
M  V30 END ATOM
M  V30 BEGIN BOND
M  V30 1 1 1 2
M  V30 2 2 2 3
M  V30 3 1 3 4
M  V30 4 1 4 5
M  V30 5 1 5 6
M  V30 6 2 5 7
M  V30 7 2 4 8
M  V30 8 1 8 9
M  V30 9 2 9 10
M  V30 10 1 10 11
M  V30 11 1 11 12
M  V30 12 2 11 13
M  V30 13 2 11 14
M  V30 14 1 8 15
M  V30 15 1 15 16
M  V30 16 2 15 17
M  V30 17 2 15 18
M  V30 18 1 10 2
M  V30 19 1 1 19
M  V30 20 1 1 20
M  V30 21 1 1 21
M  V30 22 1 3 22
M  V30 23 1 6 23
M  V30 24 1 9 24
M  V30 25 1 12 25
M  V30 26 1 12 26
M  V30 27 1 16 27
M  V30 28 1 16 28
M  V30 END BOND
M  V30 END CTAB
M  END
