
     RDKit          3D

  0  0  0  0  0  0  0  0  0  0999 V3000
M  V30 BEGIN CTAB
M  V30 COUNTS 64 68 0 0 0
M  V30 BEGIN ATOM
M  V30 1 N -7.40312 1.53908 1.97019 0
M  V30 2 C -6.95729 0.917313 0.74831 0
M  V30 3 N -7.86051 0.407041 -0.123597 0
M  V30 4 C -7.50399 -0.170133 -1.26002 0
M  V30 5 N -8.40208 -0.726169 -2.2179 0
M  V30 6 C -6.14451 -0.241491 -1.54426 0
M  V30 7 C -5.20034 0.278233 -0.658204 0
M  V30 8 N -5.65746 0.830644 0.442659 0
M  V30 9 N -3.95172 0.0925502 -1.15538 0
M  V30 10 C -4.15519 -0.534868 -2.33326 0
M  V30 11 N -5.44003 -0.728215 -2.55594 0
M  V30 12 C -2.67316 0.433262 -0.652227 0 CFG=2
M  V30 13 C -1.67351 -0.600313 -1.19636 0
M  V30 14 O -0.785584 -1.06568 -0.277366 0
M  V30 15 C -0.0458695 -0.130098 0.383349 0
M  V30 16 C -0.985977 0.77639 1.10268 0
M  V30 17 C -2.46806 0.528413 0.799724 0 CFG=2
M  V30 18 C -2.98375 -0.693084 1.49025 0
M  V30 19 O -3.01971 1.69781 1.39332 0
M  V30 20 C 0.768461 -0.839265 1.47889 0
M  V30 21 C 1.93216 0.0759289 1.89232 0
M  V30 22 N 2.92594 0.0241458 0.782132 0
M  V30 23 C 2.32073 -0.136241 -0.49187 0
M  V30 24 C 0.964263 0.609983 -0.433705 0
M  V30 25 C 4.25164 0.105595 1.11203 0
M  V30 26 O 4.46516 0.180661 2.4274 0
M  V30 27 C 5.51207 0.128109 0.349771 0 CFG=2
M  V30 28 C 5.4863 -0.251094 -1.05452 0
M  V30 29 C 6.82572 -0.366513 -1.69479 0
M  V30 30 C 7.98987 -0.690071 -0.841969 0
M  V30 31 C 7.84051 -0.145487 0.571786 0
M  V30 32 N 6.56028 -0.545538 1.10921 0
M  V30 33 H -7.16232 1.13816 2.8969 0
M  V30 34 H -7.97258 2.39934 1.94275 0
M  V30 35 H -8.81343 -1.67119 -2.10918 0
M  V30 36 H -8.681 -0.184374 -3.08121 0
M  V30 37 H -3.38679 -0.862702 -3.05685 0
M  V30 38 H -2.42251 1.44905 -1.08821 0
M  V30 39 H -2.22988 -1.52167 -1.55322 0
M  V30 40 H -1.23397 -0.166517 -2.11038 0
M  V30 41 H -0.814489 0.849368 2.19644 0
M  V30 42 H -0.782558 1.81664 0.70806 0
M  V30 43 H -3.63262 -0.404635 2.35382 0
M  V30 44 H -2.18649 -1.33347 1.91563 0
M  V30 45 H -3.57889 -1.36489 0.824717 0
M  V30 46 H -3.16209 1.54582 2.36254 0
M  V30 47 H 1.10814 -1.83146 1.16183 0
M  V30 48 H 0.169837 -0.963448 2.40387 0
M  V30 49 H 2.34135 -0.311201 2.82249 0
M  V30 50 H 1.51488 1.10171 1.96023 0
M  V30 51 H 2.04153 -1.24226 -0.558408 0
M  V30 52 H 2.84631 0.190762 -1.37353 0
M  V30 53 H 0.676524 0.771411 -1.47705 0
M  V30 54 H 1.19738 1.59987 -0.00190568 0
M  V30 55 H 5.84135 1.23053 0.40507 0
M  V30 56 H 4.93268 -1.22697 -1.15638 0
M  V30 57 H 4.94471 0.535482 -1.68232 0
M  V30 58 H 7.03397 0.532917 -2.35056 0
M  V30 59 H 6.74436 -1.19976 -2.46185 0
M  V30 60 H 8.89913 -0.198775 -1.2677 0
M  V30 61 H 8.21877 -1.77963 -0.802572 0
M  V30 62 H 7.89348 0.961454 0.531313 0
M  V30 63 H 8.68664 -0.549527 1.16118 0
M  V30 64 H 6.43729 -1.58227 0.921826 0
M  V30 END ATOM
M  V30 BEGIN BOND
M  V30 1 1 1 2
M  V30 2 2 2 3
M  V30 3 1 3 4
M  V30 4 1 4 5
M  V30 5 2 4 6
M  V30 6 1 6 7
M  V30 7 2 7 8
M  V30 8 1 7 9
M  V30 9 1 9 10
M  V30 10 2 10 11
M  V30 11 1 9 12
M  V30 12 1 12 13
M  V30 13 1 13 14
M  V30 14 1 14 15
M  V30 15 1 15 16
M  V30 16 1 16 17
M  V30 17 1 17 18
M  V30 18 1 17 19 CFG=1
M  V30 19 1 15 20
M  V30 20 1 20 21
M  V30 21 1 21 22
M  V30 22 1 22 23
M  V30 23 1 23 24
M  V30 24 1 22 25
M  V30 25 2 25 26
M  V30 26 1 25 27
M  V30 27 1 27 28
M  V30 28 1 28 29
M  V30 29 1 29 30
M  V30 30 1 30 31
M  V30 31 1 31 32
M  V30 32 1 8 2
M  V30 33 1 17 12
M  V30 34 1 32 27
M  V30 35 1 11 6
M  V30 36 1 24 15
M  V30 37 1 1 33
M  V30 38 1 1 34
M  V30 39 1 5 35
M  V30 40 1 5 36
M  V30 41 1 10 37
M  V30 42 1 12 38 CFG=3
M  V30 43 1 13 39
M  V30 44 1 13 40
M  V30 45 1 16 41
M  V30 46 1 16 42
M  V30 47 1 18 43
M  V30 48 1 18 44
M  V30 49 1 18 45
M  V30 50 1 19 46
M  V30 51 1 20 47
M  V30 52 1 20 48
M  V30 53 1 21 49
M  V30 54 1 21 50
M  V30 55 1 23 51
M  V30 56 1 23 52
M  V30 57 1 24 53
M  V30 58 1 24 54
M  V30 59 1 27 55 CFG=3
M  V30 60 1 28 56
M  V30 61 1 28 57
M  V30 62 1 29 58
M  V30 63 1 29 59
M  V30 64 1 30 60
M  V30 65 1 30 61
M  V30 66 1 31 62
M  V30 67 1 31 63
M  V30 68 1 32 64
M  V30 END BOND
M  V30 END CTAB
M  END
