
     RDKit          3D

  0  0  0  0  0  0  0  0  0  0999 V3000
M  V30 BEGIN CTAB
M  V30 COUNTS 26 26 0 0 0
M  V30 BEGIN ATOM
M  V30 1 N -4.15186 -0.831836 -0.713682 0
M  V30 2 C -3.8421 0.552557 -0.427249 0
M  V30 3 C -2.48567 0.621769 0.208368 0
M  V30 4 N -1.44267 0.0947495 -0.644188 0
M  V30 5 C -0.098394 0.0845916 -0.181847 0
M  V30 6 C 0.209387 0.573789 1.07084 0
M  V30 7 C 1.48605 0.595816 1.58379 0
M  V30 8 C 2.48427 0.0834391 0.74918 0
M  V30 9 C 2.18954 -0.409152 -0.506703 0
M  V30 10 N 0.916024 -0.396419 -0.937414 0
M  V30 11 C 3.26394 -0.948619 -1.37701 0
M  V30 12 N 3.8353 0.0428393 1.1429 0
M  V30 13 H -4.61446 -1.23134 0.132023 0
M  V30 14 H -3.24845 -1.3439 -0.809699 0
M  V30 15 H -4.61777 0.928779 0.269674 0
M  V30 16 H -3.84762 1.182 -1.34027 0
M  V30 17 H -2.49638 0.140716 1.20695 0
M  V30 18 H -2.24858 1.70258 0.365113 0
M  V30 19 H -1.7072 -0.265715 -1.58301 0
M  V30 20 H -0.617353 0.957102 1.66631 0
M  V30 21 H 1.72219 0.979207 2.56371 0
M  V30 22 H 3.01565 -1.94589 -1.7931 0
M  V30 23 H 4.21518 -1.01236 -0.847506 0
M  V30 24 H 3.40272 -0.228156 -2.22579 0
M  V30 25 H 4.3449 -0.853936 1.23508 0
M  V30 26 H 4.33337 0.927387 1.34554 0
M  V30 END ATOM
M  V30 BEGIN BOND
M  V30 1 1 1 2
M  V30 2 1 2 3
M  V30 3 1 3 4
M  V30 4 1 4 5
M  V30 5 2 5 6
M  V30 6 1 6 7
M  V30 7 2 7 8
M  V30 8 1 8 9
M  V30 9 2 9 10
M  V30 10 1 9 11
M  V30 11 1 8 12
M  V30 12 1 10 5
M  V30 13 1 1 13
M  V30 14 1 1 14
M  V30 15 1 2 15
M  V30 16 1 2 16
M  V30 17 1 3 17
M  V30 18 1 3 18
M  V30 19 1 4 19
M  V30 20 1 6 20
M  V30 21 1 7 21
M  V30 22 1 11 22
M  V30 23 1 11 23
M  V30 24 1 11 24
M  V30 25 1 12 25
M  V30 26 1 12 26
M  V30 END BOND
M  V30 END CTAB
M  END
