
     RDKit          3D

  0  0  0  0  0  0  0  0  0  0999 V3000
M  V30 BEGIN CTAB
M  V30 COUNTS 23 23 0 0 0
M  V30 BEGIN ATOM
M  V30 1 O -2.59277 1.32653 -0.93866 0
M  V30 2 C -2.60086 0.513558 0.204793 0
M  V30 3 O -3.69518 -0.155534 0.37771 0
M  V30 4 C -1.47985 0.390301 1.14702 0
M  V30 5 C -0.212028 -0.00512293 0.467706 0
M  V30 6 C -0.0965056 -1.30024 -0.0225171 0
M  V30 7 N -1.16216 -2.24138 0.110391 0
M  V30 8 C 1.05062 -1.70615 -0.688871 0
M  V30 9 C 2.06285 -0.778035 -0.839626 0
M  V30 10 C 1.97683 0.498718 -0.361932 0
M  V30 11 C 0.818525 0.928933 0.315099 0
M  V30 12 O 0.754208 2.21078 0.782474 0
M  V30 13 N 3.00947 1.45113 -0.487563 0
M  V30 14 H -2.58163 0.753412 -1.82359 0
M  V30 15 H -1.34043 1.32401 1.70129 0
M  V30 16 H -1.74315 -0.417372 1.87631 0
M  V30 17 H -1.84785 -2.1783 0.884751 0
M  V30 18 H -1.26486 -3.02138 -0.587946 0
M  V30 19 H 1.14775 -2.72455 -1.04659 0
M  V30 20 H 2.9836 -1.04066 -1.34644 0
M  V30 21 H -0.00691017 2.58373 1.27835 0
M  V30 22 H 3.2151 1.97388 -1.34882 0
M  V30 23 H 3.60522 1.61374 0.346665 0
M  V30 END ATOM
M  V30 BEGIN BOND
M  V30 1 1 1 2
M  V30 2 2 2 3
M  V30 3 1 2 4
M  V30 4 1 4 5
M  V30 5 2 5 6
M  V30 6 1 6 7
M  V30 7 1 6 8
M  V30 8 2 8 9
M  V30 9 1 9 10
M  V30 10 2 10 11
M  V30 11 1 11 12
M  V30 12 1 10 13
M  V30 13 1 11 5
M  V30 14 1 1 14
M  V30 15 1 4 15
M  V30 16 1 4 16
M  V30 17 1 7 17
M  V30 18 1 7 18
M  V30 19 1 8 19
M  V30 20 1 9 20
M  V30 21 1 12 21
M  V30 22 1 13 22
M  V30 23 1 13 23
M  V30 END BOND
M  V30 END CTAB
M  END
