
     RDKit          3D

  0  0  0  0  0  0  0  0  0  0999 V3000
M  V30 BEGIN CTAB
M  V30 COUNTS 27 28 0 0 0
M  V30 BEGIN ATOM
M  V30 1 N -4.34297 0.211668 -0.584936 0
M  V30 2 C -3.36142 -0.624033 0.109505 0
M  V30 3 C -2.06981 0.138824 0.115741 0
M  V30 4 C -0.911864 -0.561968 0.796573 0
M  V30 5 N -0.0678088 0.0212409 -0.212414 0
M  V30 6 C -1.1919 -0.0620569 -1.1094 0
M  V30 7 C 1.26254 0.464908 -0.265982 0
M  V30 8 N 1.62169 1.73085 -0.557037 0
M  V30 9 C 2.90169 2.1423 -0.604873 0
M  V30 10 N 3.8937 1.28835 -0.358927 0
M  V30 11 C 3.57721 0.0219331 -0.0660423 0
M  V30 12 O 4.52199 -0.781506 0.165819 0
M  V30 13 C 2.29259 -0.444546 -0.0051104 0
M  V30 14 N 1.99083 -1.79661 0.309031 0
M  V30 15 H -4.35022 1.18927 -0.20524 0
M  V30 16 H -4.11583 0.291565 -1.601 0
M  V30 17 H -3.73133 -0.781199 1.14265 0
M  V30 18 H -3.31648 -1.57791 -0.40873 0
M  V30 19 H -2.13952 1.19501 0.361098 0
M  V30 20 H -0.721364 -0.243701 1.83568 0
M  V30 21 H -0.914904 -1.65688 0.701165 0
M  V30 22 H -1.26817 0.731436 -1.87481 0
M  V30 23 H -1.29211 -1.10625 -1.50888 0
M  V30 24 H 3.07609 3.18171 -0.848694 0
M  V30 25 H 4.88461 1.645 -0.405148 0
M  V30 26 H 2.24849 -2.15788 1.25262 0
M  V30 27 H 1.52426 -2.45954 -0.346565 0
M  V30 END ATOM
M  V30 BEGIN BOND
M  V30 1 1 1 2
M  V30 2 1 2 3
M  V30 3 1 3 4
M  V30 4 1 4 5
M  V30 5 1 5 6
M  V30 6 1 5 7
M  V30 7 1 7 8
M  V30 8 2 8 9
M  V30 9 1 9 10
M  V30 10 1 10 11
M  V30 11 2 11 12
M  V30 12 1 11 13
M  V30 13 1 13 14
M  V30 14 1 6 3
M  V30 15 2 13 7
M  V30 16 1 1 15
M  V30 17 1 1 16
M  V30 18 1 2 17
M  V30 19 1 2 18
M  V30 20 1 3 19
M  V30 21 1 4 20
M  V30 22 1 4 21
M  V30 23 1 6 22
M  V30 24 1 6 23
M  V30 25 1 9 24
M  V30 26 1 10 25
M  V30 27 1 14 26
M  V30 28 1 14 27
M  V30 END BOND
M  V30 END CTAB
M  END
