
     RDKit          3D

  0  0  0  0  0  0  0  0  0  0999 V3000
M  V30 BEGIN CTAB
M  V30 COUNTS 51 53 0 0 0
M  V30 BEGIN ATOM
M  V30 1 C -3.54134 3.25881 1.32146 0
M  V30 2 C -3.80114 1.8523 1.72847 0
M  V30 3 N -3.55874 0.903792 0.628491 0
M  V30 4 C -2.26475 0.37716 0.507984 0
M  V30 5 O -1.39556 0.752559 1.36908 0
M  V30 6 C -1.80644 -0.581557 -0.538157 0 CFG=2
M  V30 7 C -2.39835 -1.89156 -0.299071 0
M  V30 8 C -1.2873 -2.88974 -0.452098 0 CFG=1
M  V30 9 C -0.024948 -2.07681 -0.216632 0
M  V30 10 N -0.349308 -0.711466 -0.492695 0
M  V30 11 C 0.53958 0.362521 -0.74043 0
M  V30 12 O -0.0706661 1.46216 -1.06831 0
M  V30 13 C 1.94857 0.436549 -0.693645 0
M  V30 14 C 2.79223 -0.51696 -0.217391 0
M  V30 15 C 4.18106 -0.431707 -0.229305 0
M  V30 16 C 4.98385 -1.56538 0.330897 0
M  V30 17 C 4.79628 0.709501 -0.7636 0
M  V30 18 C 3.97887 1.68471 -1.24806 0
M  V30 19 C 2.60799 1.57749 -1.22589 0
M  V30 20 S 5.12694 2.85321 -1.78415 0
M  V30 21 C 6.56575 2.02339 -1.35642 0
M  V30 22 N 6.09204 0.911275 -0.833281 0
M  V30 23 N 7.92917 2.43627 -1.52582 0
M  V30 24 N -1.38502 -3.99438 0.4756 0
M  V30 25 C -4.69497 0.607544 -0.215045 0
M  V30 26 C -5.55226 -0.51754 0.257109 0
M  V30 27 H -4.4529 3.87029 1.56241 0
M  V30 28 H -2.70793 3.74627 1.89067 0
M  V30 29 H -3.28328 3.37648 0.249126 0
M  V30 30 H -4.83251 1.67387 2.09381 0
M  V30 31 H -3.10706 1.57188 2.54043 0
M  V30 32 H -2.10709 -0.235469 -1.55518 0
M  V30 33 H -2.80995 -1.95079 0.762858 0
M  V30 34 H -3.24804 -2.14258 -0.997846 0
M  V30 35 H -1.29467 -3.24483 -1.51667 0
M  V30 36 H 0.776773 -2.45907 -0.91384 0
M  V30 37 H 0.279035 -2.28238 0.829683 0
M  V30 38 H 2.38144 -1.42018 0.243464 0
M  V30 39 H 5.25019 -2.24969 -0.492204 0
M  V30 40 H 4.39174 -2.09543 1.0934 0
M  V30 41 H 5.87531 -1.12861 0.804658 0
M  V30 42 H 2.03043 2.38074 -1.62315 0
M  V30 43 H 8.43063 2.16631 -2.35547 0
M  V30 44 H 8.35326 3.00305 -0.781016 0
M  V30 45 H -1.88648 -4.77427 -0.0372671 0
M  V30 46 H -0.393212 -4.3582 0.598692 0
M  V30 47 H -5.35958 1.51318 -0.328994 0
M  V30 48 H -4.31111 0.410755 -1.25578 0
M  V30 49 H -5.51071 -1.41769 -0.393679 0
M  V30 50 H -5.25267 -0.752916 1.30511 0
M  V30 51 H -6.62319 -0.232855 0.310045 0
M  V30 END ATOM
M  V30 BEGIN BOND
M  V30 1 1 1 2
M  V30 2 1 2 3
M  V30 3 1 3 4
M  V30 4 2 4 5
M  V30 5 1 4 6
M  V30 6 1 6 7
M  V30 7 1 7 8
M  V30 8 1 8 9
M  V30 9 1 9 10
M  V30 10 1 10 11
M  V30 11 2 11 12
M  V30 12 1 11 13
M  V30 13 2 13 14
M  V30 14 1 14 15
M  V30 15 1 15 16
M  V30 16 2 15 17
M  V30 17 1 17 18
M  V30 18 2 18 19
M  V30 19 1 18 20
M  V30 20 1 20 21
M  V30 21 2 21 22
M  V30 22 1 21 23
M  V30 23 1 8 24
M  V30 24 1 3 25
M  V30 25 1 25 26
M  V30 26 1 10 6
M  V30 27 1 19 13
M  V30 28 1 22 17
M  V30 29 1 1 27
M  V30 30 1 1 28
M  V30 31 1 1 29
M  V30 32 1 2 30
M  V30 33 1 2 31
M  V30 34 1 6 32 CFG=3
M  V30 35 1 7 33
M  V30 36 1 7 34
M  V30 37 1 8 35 CFG=3
M  V30 38 1 9 36
M  V30 39 1 9 37
M  V30 40 1 14 38
M  V30 41 1 16 39
M  V30 42 1 16 40
M  V30 43 1 16 41
M  V30 44 1 19 42
M  V30 45 1 23 43
M  V30 46 1 23 44
M  V30 47 1 24 45
M  V30 48 1 24 46
M  V30 49 1 25 47
M  V30 50 1 25 48
M  V30 51 1 26 49
M  V30 52 1 26 50
M  V30 53 1 26 51
M  V30 END BOND
M  V30 END CTAB
M  END
