
     RDKit          3D

  0  0  0  0  0  0  0  0  0  0999 V3000
M  V30 BEGIN CTAB
M  V30 COUNTS 48 50 0 0 0
M  V30 BEGIN ATOM
M  V30 1 O 4.98787 -2.18687 2.11825 0
M  V30 2 C 4.81514 -1.28822 1.15574 0
M  V30 3 C 6.01016 -0.749265 0.570645 0
M  V30 4 C 7.23442 -1.34488 0.953437 0
M  V30 5 C 8.43664 -0.891633 0.48145 0
M  V30 6 C 8.55013 0.165355 -0.391525 0
M  V30 7 C 7.37432 0.757494 -0.774971 0
M  V30 8 C 6.13555 0.297438 -0.293658 0
M  V30 9 N 9.79945 0.625042 -0.873433 0
M  V30 10 C 3.44441 -1.04388 0.899465 0
M  V30 11 C 2.79509 -0.295769 0.0577491 0
M  V30 12 C 1.32464 -0.195831 -0.0283052 0
M  V30 13 C 0.454237 -0.882034 0.769854 0
M  V30 14 C -0.911238 -0.770955 0.669932 0
M  V30 15 C -1.44412 0.0849353 -0.294143 0
M  V30 16 C -0.588345 0.774953 -1.09636 0
M  V30 17 C 0.807988 0.653134 -0.984812 0
M  V30 18 C -2.88361 0.221783 -0.421818 0
M  V30 19 C -3.46162 0.977852 -1.27021 0
M  V30 20 C -4.83642 1.21501 -1.50464 0
M  V30 21 O -5.12571 1.9996 -2.52194 0
M  V30 22 C -5.98048 0.724868 -0.798152 0
M  V30 23 C -7.21832 0.792553 -1.46358 0
M  V30 24 C -8.38994 0.414786 -0.86188 0
M  V30 25 C -8.44264 -0.055391 0.42817 0
M  V30 26 C -7.24277 -0.125025 1.08771 0
M  V30 27 C -6.03991 0.257731 0.487404 0
M  V30 28 N -9.67137 -0.440817 1.02568 0
M  V30 29 H 7.20378 -2.19665 1.64843 0
M  V30 30 H 9.37808 -1.35825 0.782901 0
M  V30 31 H 7.36963 1.60754 -1.46886 0
M  V30 32 H 5.25536 0.809877 -0.608021 0
M  V30 33 H 10.6499 0.0470885 -0.761384 0
M  V30 34 H 9.87397 1.54381 -1.3425 0
M  V30 35 H 2.74133 -1.61913 1.56881 0
M  V30 36 H 3.33166 0.285088 -0.645849 0
M  V30 37 H 0.820109 -1.54985 1.523 0
M  V30 38 H -1.58648 -1.33827 1.32896 0
M  V30 39 H -0.91236 1.47414 -1.88603 0
M  V30 40 H 1.42512 1.23089 -1.65453 0
M  V30 41 H -3.46849 -0.399255 0.226271 0
M  V30 42 H -2.76704 1.55106 -1.94073 0
M  V30 43 H -7.2439 1.1577 -2.50636 0
M  V30 44 H -9.32996 0.477532 -1.39868 0
M  V30 45 H -7.25066 -0.493381 2.11142 0
M  V30 46 H -5.15321 0.214508 1.0986 0
M  V30 47 H -9.71835 -1.03161 1.87274 0
M  V30 48 H -10.552 -0.104803 0.577952 0
M  V30 END ATOM
M  V30 BEGIN BOND
M  V30 1 2 1 2
M  V30 2 1 2 3
M  V30 3 2 3 4
M  V30 4 1 4 5
M  V30 5 2 5 6
M  V30 6 1 6 7
M  V30 7 2 7 8
M  V30 8 1 6 9
M  V30 9 1 2 10
M  V30 10 2 10 11
M  V30 11 1 11 12
M  V30 12 2 12 13
M  V30 13 1 13 14
M  V30 14 2 14 15
M  V30 15 1 15 16
M  V30 16 2 16 17
M  V30 17 1 15 18
M  V30 18 2 18 19
M  V30 19 1 19 20
M  V30 20 2 20 21
M  V30 21 1 20 22
M  V30 22 2 22 23
M  V30 23 1 23 24
M  V30 24 2 24 25
M  V30 25 1 25 26
M  V30 26 2 26 27
M  V30 27 1 25 28
M  V30 28 1 8 3
M  V30 29 1 17 12
M  V30 30 1 27 22
M  V30 31 1 4 29
M  V30 32 1 5 30
M  V30 33 1 7 31
M  V30 34 1 8 32
M  V30 35 1 9 33
M  V30 36 1 9 34
M  V30 37 1 10 35
M  V30 38 1 11 36
M  V30 39 1 13 37
M  V30 40 1 14 38
M  V30 41 1 16 39
M  V30 42 1 17 40
M  V30 43 1 18 41
M  V30 44 1 19 42
M  V30 45 1 23 43
M  V30 46 1 24 44
M  V30 47 1 26 45
M  V30 48 1 27 46
M  V30 49 1 28 47
M  V30 50 1 28 48
M  V30 END BOND
M  V30 END CTAB
M  END
