
     RDKit          3D

  0  0  0  0  0  0  0  0  0  0999 V3000
M  V30 BEGIN CTAB
M  V30 COUNTS 31 31 0 0 0
M  V30 BEGIN ATOM
M  V30 1 C 5.08683 0.042576 0.495247 0
M  V30 2 O 3.78207 0.0168117 0.997124 0
M  V30 3 C 2.68673 -0.0319736 0.128633 0
M  V30 4 C 2.91607 -0.0544187 -1.24031 0
M  V30 5 C 1.85115 -0.102474 -2.11456 0
M  V30 6 C 0.562728 -0.128099 -1.62807 0
M  V30 7 C 0.311924 -0.10638 -0.265192 0
M  V30 8 C -1.0505 -0.133892 0.230876 0
M  V30 9 O -1.26444 -0.114108 1.4574 0
M  V30 10 C -2.17898 -0.185195 -0.717313 0
M  V30 11 C -3.51224 -0.208294 -0.0435666 0
M  V30 12 N -3.63748 -1.37427 0.823881 0
M  V30 13 C -3.78367 1.04091 0.719628 0
M  V30 14 O -3.6996 2.2374 0.0153119 0
M  V30 15 O -4.07521 1.07612 1.92546 0
M  V30 16 C 1.39009 -0.0582654 0.594305 0
M  V30 17 N 1.14789 -0.0355668 1.99205 0
M  V30 18 H 5.33102 -0.967828 0.099351 0
M  V30 19 H 5.80879 0.25974 1.30214 0
M  V30 20 H 5.24547 0.810229 -0.285231 0
M  V30 21 H 3.95094 -0.0335559 -1.61691 0
M  V30 22 H 2.07898 -0.118577 -3.18031 0
M  V30 23 H -0.278014 -0.165895 -2.31153 0
M  V30 24 H -2.08484 -1.10952 -1.31677 0
M  V30 25 H -2.1594 0.707245 -1.39032 0
M  V30 26 H -4.28801 -0.303324 -0.83289 0
M  V30 27 H -4.14046 -2.15055 0.32845 0
M  V30 28 H -4.09798 -1.12923 1.72284 0
M  V30 29 H -4.02769 2.31923 -0.926283 0
M  V30 30 H 1.29313 0.862001 2.49702 0
M  V30 31 H 0.834722 -0.86085 2.53954 0
M  V30 END ATOM
M  V30 BEGIN BOND
M  V30 1 1 1 2
M  V30 2 1 2 3
M  V30 3 2 3 4
M  V30 4 1 4 5
M  V30 5 2 5 6
M  V30 6 1 6 7
M  V30 7 1 7 8
M  V30 8 2 8 9
M  V30 9 1 8 10
M  V30 10 1 10 11
M  V30 11 1 11 12
M  V30 12 1 11 13
M  V30 13 1 13 14
M  V30 14 2 13 15
M  V30 15 2 7 16
M  V30 16 1 16 17
M  V30 17 1 16 3
M  V30 18 1 1 18
M  V30 19 1 1 19
M  V30 20 1 1 20
M  V30 21 1 4 21
M  V30 22 1 5 22
M  V30 23 1 6 23
M  V30 24 1 10 24
M  V30 25 1 10 25
M  V30 26 1 11 26
M  V30 27 1 12 27
M  V30 28 1 12 28
M  V30 29 1 14 29
M  V30 30 1 17 30
M  V30 31 1 17 31
M  V30 END BOND
M  V30 END CTAB
M  END
