
     RDKit          3D

  0  0  0  0  0  0  0  0  0  0999 V3000
M  V30 BEGIN CTAB
M  V30 COUNTS 35 36 0 0 0
M  V30 BEGIN ATOM
M  V30 1 O 1.18282 0.325758 0.200802 0
M  V30 2 C 1.66409 -0.778848 0.520721 0
M  V30 3 N 3.02355 -1.04618 0.444598 0
M  V30 4 C 3.99768 -0.0956875 0.0107989 0
M  V30 5 C 3.82989 1.25535 0.138018 0
M  V30 6 C 4.79399 2.12899 -0.327998 0
M  V30 7 C 5.93207 1.64718 -0.923394 0
M  V30 8 C 6.10237 0.270554 -1.05153 0
M  V30 9 C 5.16473 -0.59939 -0.599461 0
M  V30 10 F 6.86002 2.53237 -1.37052 0
M  V30 11 C 0.745978 -1.87713 1.01136 0
M  V30 12 C -0.666358 -1.36349 1.00925 0
M  V30 13 S -1.13752 -0.877675 -0.678194 0
M  V30 14 C -2.81384 -0.276902 -0.631797 0
M  V30 15 N -3.13642 1.00598 -0.412786 0
M  V30 16 C -4.4181 1.44832 -0.380411 0
M  V30 17 N -4.72505 2.80685 -0.147218 0
M  V30 18 C -5.41915 0.516566 -0.585002 0
M  V30 19 C -5.11277 -0.813568 -0.813115 0
M  V30 20 N -3.80089 -1.15801 -0.826763 0
M  V30 21 N -6.08537 -1.80516 -1.0274 0
M  V30 22 H 3.39548 -1.99658 0.716961 0
M  V30 23 H 2.93287 1.68194 0.634267 0
M  V30 24 H 4.60885 3.20567 -0.201244 0
M  V30 25 H 7.02851 -0.0456166 -1.5333 0
M  V30 26 H 5.28935 -1.67611 -0.695325 0
M  V30 27 H 0.837201 -2.74575 0.336353 0
M  V30 28 H 1.01259 -2.17222 2.04522 0
M  V30 29 H -1.37254 -2.12398 1.3972 0
M  V30 30 H -0.740572 -0.49535 1.71579 0
M  V30 31 H -5.46754 3.29141 -0.675674 0
M  V30 32 H -4.19213 3.32658 0.570342 0
M  V30 33 H -6.42985 0.840146 -0.564022 0
M  V30 34 H -6.4236 -1.99596 -1.9828 0
M  V30 35 H -6.46035 -2.34005 -0.237433 0
M  V30 END ATOM
M  V30 BEGIN BOND
M  V30 1 2 1 2
M  V30 2 1 2 3
M  V30 3 1 3 4
M  V30 4 2 4 5
M  V30 5 1 5 6
M  V30 6 2 6 7
M  V30 7 1 7 8
M  V30 8 2 8 9
M  V30 9 1 7 10
M  V30 10 1 2 11
M  V30 11 1 11 12
M  V30 12 1 12 13
M  V30 13 1 13 14
M  V30 14 2 14 15
M  V30 15 1 15 16
M  V30 16 1 16 17
M  V30 17 2 16 18
M  V30 18 1 18 19
M  V30 19 2 19 20
M  V30 20 1 19 21
M  V30 21 1 9 4
M  V30 22 1 20 14
M  V30 23 1 3 22
M  V30 24 1 5 23
M  V30 25 1 6 24
M  V30 26 1 8 25
M  V30 27 1 9 26
M  V30 28 1 11 27
M  V30 29 1 11 28
M  V30 30 1 12 29
M  V30 31 1 12 30
M  V30 32 1 17 31
M  V30 33 1 17 32
M  V30 34 1 18 33
M  V30 35 1 21 34
M  V30 36 1 21 35
M  V30 END BOND
M  V30 END CTAB
M  END
