
     RDKit          3D

  0  0  0  0  0  0  0  0  0  0999 V3000
M  V30 BEGIN CTAB
M  V30 COUNTS 25 26 0 0 0
M  V30 BEGIN ATOM
M  V30 1 N -1.01014 -0.554743 1.67465 0
M  V30 2 C -1.56325 0.127936 0.573805 0
M  V30 3 C -2.71156 0.861585 0.776471 0
M  V30 4 C -3.30361 1.5562 -0.27061 0
M  V30 5 N -2.76596 1.52457 -1.50092 0
M  V30 6 C -1.65303 0.815811 -1.70583 0
M  V30 7 C -1.02293 0.100887 -0.679875 0
M  V30 8 C 0.202034 -0.679272 -0.903199 0
M  V30 9 C 1.39358 -0.0887694 -0.245584 0
M  V30 10 N 1.53966 1.05758 0.409351 0
M  V30 11 C 2.79962 1.18834 0.840519 0
M  V30 12 C 3.47423 0.0658287 0.4336 0
M  V30 13 N 2.59156 -0.69462 -0.226144 0
M  V30 14 N 0.0767875 -2.07327 -0.571649 0
M  V30 15 H -0.538669 -0.0179692 2.41575 0
M  V30 16 H -1.07562 -1.57955 1.73937 0
M  V30 17 H -3.15005 0.896543 1.74633 0
M  V30 18 H -4.21483 2.13288 -0.0899689 0
M  V30 19 H -1.2227 0.791016 -2.69266 0
M  V30 20 H 0.416803 -0.639905 -2.01037 0
M  V30 21 H 3.22999 2.01934 1.40832 0
M  V30 22 H 4.52793 -0.20856 0.58892 0
M  V30 23 H 2.82388 -1.6244 -0.656704 0
M  V30 24 H 0.459604 -2.70778 -1.32555 0
M  V30 25 H 0.696679 -2.26968 0.271988 0
M  V30 END ATOM
M  V30 BEGIN BOND
M  V30 1 1 1 2
M  V30 2 2 2 3
M  V30 3 1 3 4
M  V30 4 2 4 5
M  V30 5 1 5 6
M  V30 6 2 6 7
M  V30 7 1 7 8
M  V30 8 1 8 9
M  V30 9 2 9 10
M  V30 10 1 10 11
M  V30 11 2 11 12
M  V30 12 1 12 13
M  V30 13 1 8 14
M  V30 14 1 7 2
M  V30 15 1 13 9
M  V30 16 1 1 15
M  V30 17 1 1 16
M  V30 18 1 3 17
M  V30 19 1 4 18
M  V30 20 1 6 19
M  V30 21 1 8 20
M  V30 22 1 11 21
M  V30 23 1 12 22
M  V30 24 1 13 23
M  V30 25 1 14 24
M  V30 26 1 14 25
M  V30 END BOND
M  V30 END CTAB
M  END
