
     RDKit          3D

  0  0  0  0  0  0  0  0  0  0999 V3000
M  V30 BEGIN CTAB
M  V30 COUNTS 37 39 0 0 0
M  V30 BEGIN ATOM
M  V30 1 C 0.888303 -0.316215 -1.90338 0
M  V30 2 C 0.621598 0.559337 -0.718713 0
M  V30 3 C 0.437194 -0.165484 0.556189 0
M  V30 4 C 1.41846 -0.714356 1.33427 0
M  V30 5 C 0.805056 -1.29686 2.41915 0
M  V30 6 N -0.52893 -1.09035 2.27821 0
M  V30 7 N -0.757805 -0.416401 1.16988 0
M  V30 8 C -2.04278 -0.0326561 0.715048 0
M  V30 9 C -2.72404 0.96823 1.38062 0
M  V30 10 C -3.97762 1.36463 0.964695 0
M  V30 11 C -4.53322 0.733161 -0.136007 0
M  V30 12 C -5.75602 0.9381 -0.747518 0
M  V30 13 N -5.80369 0.0675156 -1.76858 0
M  V30 14 N -4.6947 -0.65268 -1.82047 0
M  V30 15 C -3.86079 -0.273946 -0.814782 0
M  V30 16 C -2.62578 -0.652535 -0.391468 0
M  V30 17 C 2.8474 -0.691219 1.08414 0
M  V30 18 O 3.655 -1.27717 1.89486 0
M  V30 19 N 3.4573 -0.0515211 -0.0226206 0
M  V30 20 C 4.66125 0.361955 -0.0330344 0
M  V30 21 N 5.17947 0.987588 -1.18428 0
M  V30 22 N 5.47878 0.197807 1.10012 0
M  V30 23 H 0.018967 -0.354091 -2.62204 0
M  V30 24 H 1.71505 0.152898 -2.51527 0
M  V30 25 H 1.18404 -1.3314 -1.60389 0
M  V30 26 H -0.338997 1.11039 -0.947697 0
M  V30 27 H 1.38336 1.36198 -0.64384 0
M  V30 28 H 1.29853 -1.81979 3.22903 0
M  V30 29 H -2.26982 1.44285 2.23346 0
M  V30 30 H -4.4638 2.14825 1.51847 0
M  V30 31 H -6.48332 1.66185 -0.428946 0
M  V30 32 H -4.42917 -1.41273 -2.50037 0
M  V30 33 H -2.09342 -1.43615 -0.914288 0
M  V30 34 H 5.37894 2.02472 -1.17145 0
M  V30 35 H 5.39357 0.499219 -2.08755 0
M  V30 36 H 6.22589 -0.529748 1.18973 0
M  V30 37 H 5.33572 0.841149 1.90832 0
M  V30 END ATOM
M  V30 BEGIN BOND
M  V30 1 1 1 2
M  V30 2 1 2 3
M  V30 3 2 3 4
M  V30 4 1 4 5
M  V30 5 2 5 6
M  V30 6 1 6 7
M  V30 7 1 7 8
M  V30 8 2 8 9
M  V30 9 1 9 10
M  V30 10 2 10 11
M  V30 11 1 11 12
M  V30 12 2 12 13
M  V30 13 1 13 14
M  V30 14 1 14 15
M  V30 15 2 15 16
M  V30 16 1 4 17
M  V30 17 2 17 18
M  V30 18 1 17 19
M  V30 19 2 19 20
M  V30 20 1 20 21
M  V30 21 1 20 22
M  V30 22 1 7 3
M  V30 23 1 16 8
M  V30 24 1 15 11
M  V30 25 1 1 23
M  V30 26 1 1 24
M  V30 27 1 1 25
M  V30 28 1 2 26
M  V30 29 1 2 27
M  V30 30 1 5 28
M  V30 31 1 9 29
M  V30 32 1 10 30
M  V30 33 1 12 31
M  V30 34 1 14 32
M  V30 35 1 16 33
M  V30 36 1 21 34
M  V30 37 1 21 35
M  V30 38 1 22 36
M  V30 39 1 22 37
M  V30 END BOND
M  V30 END CTAB
M  END
