
     RDKit          3D

  0  0  0  0  0  0  0  0  0  0999 V3000
M  V30 BEGIN CTAB
M  V30 COUNTS 116 118 0 0 0
M  V30 BEGIN ATOM
M  V30 1 C 7.20489 -1.19015 0.859113 0 CFG=1
M  V30 2 N 7.59683 -1.66774 -0.450846 0
M  V30 3 C 8.24172 -0.437319 1.59944 0
M  V30 4 C 8.79171 0.7941 0.999535 0
M  V30 5 C 9.84294 1.32528 1.99881 0
M  V30 6 C 7.82918 1.93312 0.814272 0
M  V30 7 C 5.84452 -0.663168 0.879095 0
M  V30 8 O 5.38864 -0.0967452 1.90244 0
M  V30 9 N 4.99563 -0.788816 -0.274245 0
M  V30 10 C 3.6444 -0.26942 -0.229727 0 CFG=1
M  V30 11 C 3.261 0.636916 -1.35447 0
M  V30 12 C 4.0173 1.8577 -1.55311 0
M  V30 13 C 3.70576 3.14166 -1.06641 0
M  V30 14 N 4.65805 4.00593 -1.43177 0
M  V30 15 C 5.59812 3.34829 -2.1478 0
M  V30 16 C 5.20354 2.01966 -2.22453 0
M  V30 17 C 6.02551 1.15484 -2.92868 0
M  V30 18 C 7.18612 1.58157 -3.53005 0
M  V30 19 C 7.53952 2.90741 -3.42838 0
M  V30 20 C 6.74943 3.79034 -2.73968 0
M  V30 21 C 2.67804 -1.45211 -0.289677 0
M  V30 22 O 2.96088 -2.38109 -1.08766 0
M  V30 23 N 1.52858 -1.51976 0.496131 0
M  V30 24 C 0.618353 -2.6701 0.377012 0 CFG=1
M  V30 25 C 1.08619 -3.63073 1.46492 0
M  V30 26 C 0.27965 -4.89494 1.51479 0
M  V30 27 S 0.32565 -5.85355 -0.0105001 0
M  V30 28 C 1.93575 -6.52575 -0.404014 0
M  V30 29 C -0.754579 -2.20372 0.606908 0
M  V30 30 O -0.984162 -1.27233 1.45828 0
M  V30 31 N -1.82599 -2.76533 -0.0978954 0
M  V30 32 C -3.23181 -2.30023 0.126115 0 CFG=1
M  V30 33 C -3.60316 -2.87929 1.40235 0
M  V30 34 C -4.84111 -2.71157 2.14246 0
M  V30 35 C -5.11113 -1.38272 2.76069 0
M  V30 36 N -4.01422 -1.11038 3.71629 0
M  V30 37 C -4.01009 0.0981658 4.47452 0
M  V30 38 N -4.15073 -0.00139283 5.88497 0
M  V30 39 N -3.88046 1.21511 3.88997 0
M  V30 40 C -3.42235 -0.949072 -0.32023 0
M  V30 41 O -2.3839 -0.225937 -0.567188 0
M  V30 42 N -4.68955 -0.279441 -0.549336 0
M  V30 43 C -4.72274 1.09017 -1.01774 0 CFG=1
M  V30 44 C -4.97207 1.13258 -2.52612 0
M  V30 45 C -6.22718 0.520222 -2.94215 0
M  V30 46 C -7.42504 1.19444 -3.04912 0
M  V30 47 C -8.58816 0.586813 -3.45236 0
M  V30 48 C -8.59628 -0.754787 -3.77283 0
M  V30 49 C -7.39996 -1.45952 -3.67312 0
M  V30 50 C -6.25312 -0.824756 -3.26681 0
M  V30 51 C -5.66018 1.96848 -0.304141 0
M  V30 52 O -6.41669 1.48082 0.570542 0
M  V30 53 N -5.75487 3.3647 -0.555313 0
M  V30 54 C -6.71272 4.14345 0.201707 0 CFG=1
M  V30 55 C -5.96385 5.0029 1.2123 0
M  V30 56 C -7.59428 4.95374 -0.646447 0
M  V30 57 O -8.57952 5.72723 -0.0740563 0
M  V30 58 O -7.4645 4.95363 -1.89555 0
M  V30 59 H 7.1132 -2.18776 1.45528 0
M  V30 60 H 7.69264 -0.903081 -1.14035 0
M  V30 61 H 8.36845 -2.34823 -0.422792 0
M  V30 62 H 9.09415 -1.11865 1.8269 0
M  V30 63 H 7.78782 -0.143917 2.59408 0
M  V30 64 H 9.37035 0.609017 0.0538638 0
M  V30 65 H 10.2626 0.522875 2.61858 0
M  V30 66 H 10.6626 1.81122 1.43256 0
M  V30 67 H 9.36905 2.08675 2.68067 0
M  V30 68 H 6.91229 1.70696 0.290006 0
M  V30 69 H 7.68058 2.39465 1.81175 0
M  V30 70 H 8.37931 2.71369 0.214214 0
M  V30 71 H 5.3042 -1.25815 -1.1493 0
M  V30 72 H 3.46884 0.195178 0.761223 0
M  V30 73 H 2.15885 0.888435 -1.22764 0
M  V30 74 H 3.2441 0.00867629 -2.30257 0
M  V30 75 H 2.83451 3.39062 -0.489256 0
M  V30 76 H 4.68369 5.04009 -1.20557 0
M  V30 77 H 5.78678 0.0996927 -3.04347 0
M  V30 78 H 7.8259 0.882578 -4.08304 0
M  V30 79 H 8.46011 3.22461 -3.9088 0
M  V30 80 H 7.05089 4.8496 -2.67002 0
M  V30 81 H 1.2835 -0.75854 1.1874 0
M  V30 82 H 0.744428 -3.08817 -0.611135 0
M  V30 83 H 2.15331 -3.81754 1.31825 0
M  V30 84 H 0.942008 -3.10178 2.4268 0
M  V30 85 H 0.591018 -5.57009 2.3278 0
M  V30 86 H -0.779841 -4.62878 1.71411 0
M  V30 87 H 2.20378 -6.22196 -1.44788 0
M  V30 88 H 1.84022 -7.64935 -0.460038 0
M  V30 89 H 2.72528 -6.31184 0.317037 0
M  V30 90 H -1.64446 -3.51534 -0.788108 0
M  V30 91 H -3.75775 -2.91329 -0.739262 0
M  V30 92 H -2.7073 -2.77186 2.11751 0
M  V30 93 H -3.49636 -4.04511 1.218 0
M  V30 94 H -5.75294 -3.10686 1.59839 0
M  V30 95 H -4.80125 -3.43931 3.03108 0
M  V30 96 H -6.0675 -1.40953 3.37196 0
M  V30 97 H -5.18489 -0.512225 2.15147 0
M  V30 98 H -3.26868 -1.82572 3.80852 0
M  V30 99 H -3.35059 -0.351088 6.48569 0
M  V30 100 H -5.02155 0.253421 6.39622 0
M  V30 101 H -3.77496 1.29303 2.85842 0
M  V30 102 H -5.51656 -0.870241 -0.345873 0
M  V30 103 H -3.69692 1.49638 -0.90346 0
M  V30 104 H -4.91682 2.17594 -2.85472 0
M  V30 105 H -4.11753 0.612275 -3.02566 0
M  V30 106 H -7.46437 2.22997 -2.81428 0
M  V30 107 H -9.51393 1.16828 -3.52179 0
M  V30 108 H -9.48962 -1.25518 -4.09045 0
M  V30 109 H -7.43566 -2.50599 -3.92944 0
M  V30 110 H -5.35473 -1.4533 -3.2173 0
M  V30 111 H -5.13555 3.83239 -1.28329 0
M  V30 112 H -7.30893 3.43541 0.813844 0
M  V30 113 H -6.61195 5.12218 2.08923 0
M  V30 114 H -5.05 4.45929 1.53954 0
M  V30 115 H -5.67232 5.96714 0.724898 0
M  V30 116 H -8.60504 5.84514 0.949485 0
M  V30 END ATOM
M  V30 BEGIN BOND
M  V30 1 1 1 2
M  V30 2 1 1 3
M  V30 3 1 3 4
M  V30 4 1 4 5
M  V30 5 1 4 6
M  V30 6 1 1 7
M  V30 7 2 7 8
M  V30 8 1 7 9
M  V30 9 1 9 10
M  V30 10 1 10 11
M  V30 11 1 11 12
M  V30 12 2 12 13
M  V30 13 1 13 14
M  V30 14 1 14 15
M  V30 15 2 15 16
M  V30 16 1 16 17
M  V30 17 2 17 18
M  V30 18 1 18 19
M  V30 19 2 19 20
M  V30 20 1 10 21
M  V30 21 2 21 22
M  V30 22 1 21 23
M  V30 23 1 23 24
M  V30 24 1 24 25
M  V30 25 1 25 26
M  V30 26 1 26 27
M  V30 27 1 27 28
M  V30 28 1 24 29
M  V30 29 2 29 30
M  V30 30 1 29 31
M  V30 31 1 31 32
M  V30 32 1 32 33
M  V30 33 1 33 34
M  V30 34 1 34 35
M  V30 35 1 35 36
M  V30 36 1 36 37
M  V30 37 1 37 38
M  V30 38 2 37 39 CFG=2
M  V30 39 1 32 40
M  V30 40 2 40 41
M  V30 41 1 40 42
M  V30 42 1 42 43
M  V30 43 1 43 44
M  V30 44 1 44 45
M  V30 45 2 45 46
M  V30 46 1 46 47
M  V30 47 2 47 48
M  V30 48 1 48 49
M  V30 49 2 49 50
M  V30 50 1 43 51
M  V30 51 2 51 52
M  V30 52 1 51 53
M  V30 53 1 53 54
M  V30 54 1 54 55
M  V30 55 1 54 56
M  V30 56 1 56 57
M  V30 57 2 56 58
M  V30 58 1 16 12
M  V30 59 1 50 45
M  V30 60 1 20 15
M  V30 61 1 1 59 CFG=1
M  V30 62 1 2 60
M  V30 63 1 2 61
M  V30 64 1 3 62
M  V30 65 1 3 63
M  V30 66 1 4 64
M  V30 67 1 5 65
M  V30 68 1 5 66
M  V30 69 1 5 67
M  V30 70 1 6 68
M  V30 71 1 6 69
M  V30 72 1 6 70
M  V30 73 1 9 71
M  V30 74 1 10 72 CFG=1
M  V30 75 1 11 73
M  V30 76 1 11 74
M  V30 77 1 13 75
M  V30 78 1 14 76
M  V30 79 1 17 77
M  V30 80 1 18 78
M  V30 81 1 19 79
M  V30 82 1 20 80
M  V30 83 1 23 81
M  V30 84 1 24 82 CFG=3
M  V30 85 1 25 83
M  V30 86 1 25 84
M  V30 87 1 26 85
M  V30 88 1 26 86
M  V30 89 1 28 87
M  V30 90 1 28 88
M  V30 91 1 28 89
M  V30 92 1 31 90
M  V30 93 1 32 91 CFG=3
M  V30 94 1 33 92
M  V30 95 1 33 93
M  V30 96 1 34 94
M  V30 97 1 34 95
M  V30 98 1 35 96
M  V30 99 1 35 97
M  V30 100 1 36 98
M  V30 101 1 38 99
M  V30 102 1 38 100
M  V30 103 1 39 101
M  V30 104 1 42 102
M  V30 105 1 43 103 CFG=3
M  V30 106 1 44 104
M  V30 107 1 44 105
M  V30 108 1 46 106
M  V30 109 1 47 107
M  V30 110 1 48 108
M  V30 111 1 49 109
M  V30 112 1 50 110
M  V30 113 1 53 111
M  V30 114 1 54 112 CFG=1
M  V30 115 1 55 113
M  V30 116 1 55 114
M  V30 117 1 55 115
M  V30 118 1 57 116
M  V30 END BOND
M  V30 END CTAB
M  END
