
     RDKit          3D

  0  0  0  0  0  0  0  0  0  0999 V3000
M  V30 BEGIN CTAB
M  V30 COUNTS 41 42 0 0 0
M  V30 BEGIN ATOM
M  V30 1 S 1.16396 -1.75451 1.99964 0
M  V30 2 C -0.0739076 -0.779711 1.46823 0
M  V30 3 N -1.1694 -1.35555 0.865277 0
M  V30 4 C -2.28798 -0.687722 0.341361 0
M  V30 5 C -3.56533 -1.19284 0.613451 0
M  V30 6 C -4.7244 -0.650658 0.117306 0
M  V30 7 C -4.64107 0.455606 -0.697531 0
M  V30 8 C -3.40202 0.978133 -0.986222 0
M  V30 9 C -2.24213 0.422461 -0.480558 0
M  V30 10 S -6.12286 1.13498 -1.32085 0
M  V30 11 O -7.19172 0.910467 -0.288457 0
M  V30 12 O -5.92496 2.6067 -1.56235 0
M  V30 13 N -6.53868 0.407311 -2.83914 0
M  V30 14 N 0.0847511 0.59848 1.68822 0
M  V30 15 C 1.29837 1.1485 2.32048 0
M  V30 16 C 2.44564 0.889685 1.41408 0
M  V30 17 C 3.74595 0.846827 1.91108 0
M  V30 18 C 4.83647 0.615029 1.06989 0
M  V30 19 C 4.61049 0.427018 -0.27195 0
M  V30 20 C 3.34057 0.465246 -0.780615 0
M  V30 21 C 2.28215 0.694201 0.0613776 0
M  V30 22 S 5.95235 0.137921 -1.33219 0
M  V30 23 O 5.6208 0.643848 -2.71933 0
M  V30 24 O 7.1423 0.873269 -0.782137 0
M  V30 25 N 6.27286 -1.54957 -1.45435 0
M  V30 26 H -1.20592 -2.42338 0.76873 0
M  V30 27 H -3.62241 -2.04472 1.24156 0
M  V30 28 H -5.71151 -1.0741 0.352137 0
M  V30 29 H -3.34482 1.83816 -1.62031 0
M  V30 30 H -1.28036 0.864834 -0.757163 0
M  V30 31 H -6.51996 -0.620971 -2.77059 0
M  V30 32 H -7.46254 0.752228 -3.12641 0
M  V30 33 H -0.682423 1.24842 1.41711 0
M  V30 34 H 1.45017 0.655263 3.32326 0
M  V30 35 H 1.13172 2.23347 2.43797 0
M  V30 36 H 3.86389 1.00122 2.97283 0
M  V30 37 H 5.82968 0.593085 1.51883 0
M  V30 38 H 3.18288 0.318238 -1.81852 0
M  V30 39 H 1.27797 0.725742 -0.332461 0
M  V30 40 H 6.83779 -1.82935 -0.598739 0
M  V30 41 H 5.34363 -2.05097 -1.36293 0
M  V30 END ATOM
M  V30 BEGIN BOND
M  V30 1 2 1 2
M  V30 2 1 2 3
M  V30 3 1 3 4
M  V30 4 2 4 5
M  V30 5 1 5 6
M  V30 6 2 6 7
M  V30 7 1 7 8
M  V30 8 2 8 9
M  V30 9 1 7 10
M  V30 10 2 10 11
M  V30 11 2 10 12
M  V30 12 1 10 13
M  V30 13 1 2 14
M  V30 14 1 14 15
M  V30 15 1 15 16
M  V30 16 2 16 17
M  V30 17 1 17 18
M  V30 18 2 18 19
M  V30 19 1 19 20
M  V30 20 2 20 21
M  V30 21 1 19 22
M  V30 22 2 22 23
M  V30 23 2 22 24
M  V30 24 1 22 25
M  V30 25 1 9 4
M  V30 26 1 21 16
M  V30 27 1 3 26
M  V30 28 1 5 27
M  V30 29 1 6 28
M  V30 30 1 8 29
M  V30 31 1 9 30
M  V30 32 1 13 31
M  V30 33 1 13 32
M  V30 34 1 14 33
M  V30 35 1 15 34
M  V30 36 1 15 35
M  V30 37 1 17 36
M  V30 38 1 18 37
M  V30 39 1 20 38
M  V30 40 1 21 39
M  V30 41 1 25 40
M  V30 42 1 25 41
M  V30 END BOND
M  V30 END CTAB
M  END
