
     RDKit          3D

  0  0  0  0  0  0  0  0  0  0999 V3000
M  V30 BEGIN CTAB
M  V30 COUNTS 27 28 0 0 0
M  V30 BEGIN ATOM
M  V30 1 N -4.69086 1.21377 -1.05243 0
M  V30 2 C -3.44175 0.67332 -0.639329 0
M  V30 3 N -3.43052 -0.508766 -0.00639504 0
M  V30 4 C -2.2949 -1.08961 0.416999 0
M  V30 5 N -2.32593 -2.36223 1.0942 0
M  V30 6 C -1.10538 -0.435777 0.185826 0
M  V30 7 C -1.09274 0.766716 -0.455638 0
M  V30 8 N -2.26255 1.29536 -0.854534 0
M  V30 9 S 0.360457 -1.18145 0.730147 0
M  V30 10 O 0.237017 -1.38959 2.22292 0
M  V30 11 O 0.518274 -2.53963 0.0747375 0
M  V30 12 C 1.77203 -0.237999 0.366235 0
M  V30 13 C 2.30158 0.718985 1.20755 0
M  V30 14 C 3.43575 1.44618 0.865094 0
M  V30 15 C 4.05136 1.20899 -0.345435 0
M  V30 16 Cl 5.4833 2.11646 -0.79508 0
M  V30 17 C 3.54469 0.268134 -1.1913 0
M  V30 18 C 2.40974 -0.449757 -0.832698 0
M  V30 19 H -4.80837 1.59509 -2.01642 0
M  V30 20 H -5.47057 1.21361 -0.365457 0
M  V30 21 H -2.21684 -3.26061 0.589576 0
M  V30 22 H -2.46234 -2.36307 2.11773 0
M  V30 23 H -0.166973 1.32473 -0.661808 0
M  V30 24 H 1.82397 0.906365 2.15215 0
M  V30 25 H 3.80827 2.18498 1.56327 0
M  V30 26 H 4.02063 0.0817899 -2.13196 0
M  V30 27 H 2.00268 -1.19598 -1.49658 0
M  V30 END ATOM
M  V30 BEGIN BOND
M  V30 1 1 1 2
M  V30 2 2 2 3
M  V30 3 1 3 4
M  V30 4 1 4 5
M  V30 5 2 4 6
M  V30 6 1 6 7
M  V30 7 2 7 8
M  V30 8 1 6 9
M  V30 9 2 9 10
M  V30 10 2 9 11
M  V30 11 1 9 12
M  V30 12 2 12 13
M  V30 13 1 13 14
M  V30 14 2 14 15
M  V30 15 1 15 16
M  V30 16 1 15 17
M  V30 17 2 17 18
M  V30 18 1 8 2
M  V30 19 1 18 12
M  V30 20 1 1 19
M  V30 21 1 1 20
M  V30 22 1 5 21
M  V30 23 1 5 22
M  V30 24 1 7 23
M  V30 25 1 13 24
M  V30 26 1 14 25
M  V30 27 1 17 26
M  V30 28 1 18 27
M  V30 END BOND
M  V30 END CTAB
M  END
