
     RDKit          3D

  0  0  0  0  0  0  0  0  0  0999 V3000
M  V30 BEGIN CTAB
M  V30 COUNTS 26 27 0 0 0
M  V30 BEGIN ATOM
M  V30 1 C 3.87045 0.471489 -0.62091 0
M  V30 2 C 2.42293 0.672166 -0.315931 0
M  V30 3 C 1.70879 -0.613175 0.0307573 0
M  V30 4 C 0.273897 -0.253976 0.310347 0
M  V30 5 N -0.202266 0.366429 1.3926 0
M  V30 6 C -1.53478 0.528155 1.31302 0
M  V30 7 C -1.91883 -0.0231838 0.109639 0
M  V30 8 N -0.788292 -0.492746 -0.478957 0
M  V30 9 C -3.24921 0.0165768 -0.210079 0
M  V30 10 N -3.64304 -0.55601 -1.45838 0
M  V30 11 N -4.13312 0.576711 0.631148 0
M  V30 12 C -3.77089 1.11828 1.80871 0
M  V30 13 N -2.46041 1.07703 2.11953 0
M  V30 14 N 2.31094 -1.19224 1.20393 0
M  V30 15 H 4.05874 -0.335569 -1.35791 0
M  V30 16 H 4.24112 1.41375 -1.1108 0
M  V30 17 H 4.41227 0.328156 0.315484 0
M  V30 18 H 1.87767 1.24101 -1.09949 0
M  V30 19 H 2.36887 1.31489 0.607513 0
M  V30 20 H 1.78208 -1.30323 -0.806537 0
M  V30 21 H -0.802998 -0.960859 -1.40749 0
M  V30 22 H -3.56625 -0.0164865 -2.34753 0
M  V30 23 H -4.01556 -1.525 -1.50774 0
M  V30 24 H -4.49562 1.56607 2.47579 0
M  V30 25 H 3.32926 -1.27759 1.04873 0
M  V30 26 H 1.92426 -2.14066 1.38928 0
M  V30 END ATOM
M  V30 BEGIN BOND
M  V30 1 1 1 2
M  V30 2 1 2 3
M  V30 3 1 3 4
M  V30 4 2 4 5
M  V30 5 1 5 6
M  V30 6 2 6 7
M  V30 7 1 7 8
M  V30 8 1 7 9
M  V30 9 1 9 10
M  V30 10 2 9 11
M  V30 11 1 11 12
M  V30 12 2 12 13
M  V30 13 1 3 14
M  V30 14 1 8 4
M  V30 15 1 13 6
M  V30 16 1 1 15
M  V30 17 1 1 16
M  V30 18 1 1 17
M  V30 19 1 2 18
M  V30 20 1 2 19
M  V30 21 1 3 20
M  V30 22 1 8 21
M  V30 23 1 10 22
M  V30 24 1 10 23
M  V30 25 1 12 24
M  V30 26 1 14 25
M  V30 27 1 14 26
M  V30 END BOND
M  V30 END CTAB
M  END
