
     RDKit          3D

  0  0  0  0  0  0  0  0  0  0999 V3000
M  V30 BEGIN CTAB
M  V30 COUNTS 53 56 0 0 0
M  V30 BEGIN ATOM
M  V30 1 N 7.11115 -3.13269 -0.577778 0
M  V30 2 N 5.74053 -3.02694 -0.465878 0
M  V30 3 C 5.17786 -1.73202 -0.274639 0
M  V30 4 O 5.85817 -0.69234 -0.203411 0
M  V30 5 C 3.70523 -1.60274 -0.152527 0
M  V30 6 S 2.52591 -2.8256 -0.208747 0
M  V30 7 C 1.12782 -1.8696 0.00406851 0
M  V30 8 C 1.62611 -0.598613 0.115285 0
M  V30 9 C 2.96253 -0.461206 0.0341431 0
M  V30 10 N 3.67277 0.813144 0.135219 0
M  V30 11 C 0.66562 0.41457 0.305323 0
M  V30 12 C 0.903193 1.82821 0.443752 0
M  V30 13 C -0.0793518 2.65122 -0.419119 0
M  V30 14 C 0.555019 2.87655 -1.7726 0
M  V30 15 C -0.186976 4.02523 0.246375 0
M  V30 16 N -1.38169 2.09241 -0.483269 0
M  V30 17 C -1.61647 1.19243 0.594025 0
M  V30 18 C -0.665046 0.0358633 0.361151 0
M  V30 19 C -1.13876 -1.24226 0.246332 0
M  V30 20 N -0.203121 -2.18795 0.0659889 0
M  V30 21 N -2.51419 -1.55417 0.292251 0
M  V30 22 C -3.50815 -1.16573 -0.685752 0
M  V30 23 C -4.20706 -2.4747 -1.07572 0
M  V30 24 O -4.82245 -3.07085 -0.0101491 0
M  V30 25 C -4.49704 -2.60813 1.23503 0
M  V30 26 C -3.01879 -2.33779 1.40666 0
M  V30 27 C -2.40611 3.06107 -0.695323 0
M  V30 28 H 7.41519 -4.12067 -0.427561 0
M  V30 29 H 7.3967 -2.89755 -1.56314 0
M  V30 30 H 5.12738 -3.84782 -0.516612 0
M  V30 31 H 3.91934 1.12067 1.08988 0
M  V30 32 H 3.90695 1.36047 -0.698265 0
M  V30 33 H 1.84338 2.29367 0.302905 0
M  V30 34 H 0.594782 2.10033 1.50641 0
M  V30 35 H 0.315852 2.06433 -2.48419 0
M  V30 36 H 1.62062 3.05371 -1.62351 0
M  V30 37 H 0.1097 3.82292 -2.17204 0
M  V30 38 H 0.835919 4.32518 0.542801 0
M  V30 39 H -0.576885 4.77864 -0.454775 0
M  V30 40 H -0.788941 3.96485 1.18728 0
M  V30 41 H -1.32998 1.64148 1.59194 0
M  V30 42 H -2.63472 0.845915 0.728968 0
M  V30 43 H -3.10001 -0.68968 -1.57485 0
M  V30 44 H -4.3288 -0.563786 -0.19645 0
M  V30 45 H -3.45915 -3.12148 -1.58351 0
M  V30 46 H -4.97213 -2.20156 -1.83116 0
M  V30 47 H -5.11178 -1.72145 1.54893 0
M  V30 48 H -4.75627 -3.40361 1.98556 0
M  V30 49 H -2.50292 -3.32045 1.35502 0
M  V30 50 H -2.83224 -1.87517 2.37639 0
M  V30 51 H -2.05802 3.74322 -1.51348 0
M  V30 52 H -2.68659 3.65403 0.175876 0
M  V30 53 H -3.33413 2.58645 -1.09478 0
M  V30 END ATOM
M  V30 BEGIN BOND
M  V30 1 1 1 2
M  V30 2 1 2 3
M  V30 3 2 3 4
M  V30 4 1 3 5
M  V30 5 1 5 6
M  V30 6 1 6 7
M  V30 7 2 7 8
M  V30 8 1 8 9
M  V30 9 1 9 10
M  V30 10 1 8 11
M  V30 11 1 11 12
M  V30 12 1 12 13
M  V30 13 1 13 14
M  V30 14 1 13 15
M  V30 15 1 13 16
M  V30 16 1 16 17
M  V30 17 1 17 18
M  V30 18 1 18 19
M  V30 19 2 19 20
M  V30 20 1 19 21
M  V30 21 1 21 22
M  V30 22 1 22 23
M  V30 23 1 23 24
M  V30 24 1 24 25
M  V30 25 1 25 26
M  V30 26 1 16 27
M  V30 27 2 9 5
M  V30 28 2 18 11
M  V30 29 1 26 21
M  V30 30 1 20 7
M  V30 31 1 1 28
M  V30 32 1 1 29
M  V30 33 1 2 30
M  V30 34 1 10 31
M  V30 35 1 10 32
M  V30 36 1 12 33
M  V30 37 1 12 34
M  V30 38 1 14 35
M  V30 39 1 14 36
M  V30 40 1 14 37
M  V30 41 1 15 38
M  V30 42 1 15 39
M  V30 43 1 15 40
M  V30 44 1 17 41
M  V30 45 1 17 42
M  V30 46 1 22 43
M  V30 47 1 22 44
M  V30 48 1 23 45
M  V30 49 1 23 46
M  V30 50 1 25 47
M  V30 51 1 25 48
M  V30 52 1 26 49
M  V30 53 1 26 50
M  V30 54 1 27 51
M  V30 55 1 27 52
M  V30 56 1 27 53
M  V30 END BOND
M  V30 END CTAB
M  END
