
     RDKit          3D

  0  0  0  0  0  0  0  0  0  0999 V3000
M  V30 BEGIN CTAB
M  V30 COUNTS 35 36 0 0 0
M  V30 BEGIN ATOM
M  V30 1 N 4.94414 0.263512 -0.135991 0
M  V30 2 C 3.93753 0.772657 -1.01793 0
M  V30 3 C 2.62374 0.87242 -0.363382 0
M  V30 4 N 2.00902 -0.309205 0.137197 0
M  V30 5 C 1.56739 -1.23586 -0.871946 0
M  V30 6 C 0.477215 -0.762098 -1.74455 0
M  V30 7 O -0.785151 -0.739456 -1.32886 0
M  V30 8 C -1.18661 -1.05895 -0.113318 0 CFG=1
M  V30 9 C -0.225562 -0.905028 1.02512 0
M  V30 10 C 0.797359 0.158298 0.819219 0
M  V30 11 N -2.41799 -0.313054 0.185002 0
M  V30 12 C -2.53314 1.02032 0.177009 0
M  V30 13 C -3.85151 1.33311 0.50839 0
M  V30 14 C -4.51221 0.137648 0.712123 0
M  V30 15 N -3.60869 -0.840391 0.507145 0
M  V30 16 N -5.8872 0.0288923 1.07629 0
M  V30 17 H 5.40993 0.995595 0.387055 0
M  V30 18 H 4.80441 -0.629092 0.251052 0
M  V30 19 H 4.26416 1.80274 -1.29957 0
M  V30 20 H 3.95639 0.188532 -1.96176 0
M  V30 21 H 2.77965 1.52763 0.554141 0
M  V30 22 H 1.88626 1.4644 -0.956175 0
M  V30 23 H 1.2799 -2.18366 -0.374599 0
M  V30 24 H 2.44545 -1.54682 -1.51868 0
M  V30 25 H 0.754041 0.269943 -2.12642 0
M  V30 26 H 0.513912 -1.3793 -2.69829 0
M  V30 27 H -1.49336 -2.14767 -0.115749 0
M  V30 28 H 0.216408 -1.88404 1.32998 0
M  V30 29 H -0.827887 -0.603684 1.93149 0
M  V30 30 H 0.38636 0.950397 0.15608 0
M  V30 31 H 1.07146 0.700907 1.76017 0
M  V30 32 H -1.78683 1.76615 -0.0354879 0
M  V30 33 H -4.25406 2.33446 0.580578 0
M  V30 34 H -6.50828 0.846844 1.02904 0
M  V30 35 H -6.24623 -0.89615 1.39048 0
M  V30 END ATOM
M  V30 BEGIN BOND
M  V30 1 1 1 2
M  V30 2 1 2 3
M  V30 3 1 3 4
M  V30 4 1 4 5
M  V30 5 1 5 6
M  V30 6 1 6 7
M  V30 7 1 7 8
M  V30 8 1 8 9
M  V30 9 1 9 10
M  V30 10 1 8 11
M  V30 11 1 11 12
M  V30 12 2 12 13
M  V30 13 1 13 14
M  V30 14 2 14 15
M  V30 15 1 14 16
M  V30 16 1 10 4
M  V30 17 1 15 11
M  V30 18 1 1 17
M  V30 19 1 1 18
M  V30 20 1 2 19
M  V30 21 1 2 20
M  V30 22 1 3 21
M  V30 23 1 3 22
M  V30 24 1 5 23
M  V30 25 1 5 24
M  V30 26 1 6 25
M  V30 27 1 6 26
M  V30 28 1 8 27 CFG=3
M  V30 29 1 9 28
M  V30 30 1 9 29
M  V30 31 1 10 30
M  V30 32 1 10 31
M  V30 33 1 12 32
M  V30 34 1 13 33
M  V30 35 1 16 34
M  V30 36 1 16 35
M  V30 END BOND
M  V30 END CTAB
M  END
