
     RDKit          3D

  0  0  0  0  0  0  0  0  0  0999 V3000
M  V30 BEGIN CTAB
M  V30 COUNTS 22 23 0 0 0
M  V30 BEGIN ATOM
M  V30 1 N -3.95458 -1.0392 -0.195407 0
M  V30 2 C -2.70526 -0.368835 -0.219403 0
M  V30 3 N -1.46439 -0.878072 -0.237498 0
M  V30 4 N -0.542602 0.0509004 -0.257262 0
M  V30 5 C -1.15839 1.23214 -0.252774 0
M  V30 6 C -2.52297 1.00692 -0.22908 0
M  V30 7 N -0.493759 2.48534 -0.269884 0
M  V30 8 C 0.883795 -0.191016 -0.279709 0
M  V30 9 C 1.35877 -1.47816 -0.171552 0
M  V30 10 C 2.71004 -1.78048 -0.185725 0
M  V30 11 C 3.58907 -0.752676 -0.312268 0
M  V30 12 C 3.09919 0.534803 -0.419985 0
M  V30 13 N 1.76172 0.798678 -0.402566 0
M  V30 14 H -4.69886 -0.80409 -0.872543 0
M  V30 15 H -4.12344 -1.77418 0.510077 0
M  V30 16 H -3.29936 1.77711 -0.21993 0
M  V30 17 H -0.694705 3.19445 -0.992969 0
M  V30 18 H 0.208592 2.69625 0.457303 0
M  V30 19 H 0.613327 -2.2654 -0.0723703 0
M  V30 20 H 2.97552 -2.8276 -0.0938795 0
M  V30 21 H 4.6514 -0.974651 -0.324932 0
M  V30 22 H 3.80689 1.35776 -0.521408 0
M  V30 END ATOM
M  V30 BEGIN BOND
M  V30 1 1 1 2
M  V30 2 2 2 3
M  V30 3 1 3 4
M  V30 4 1 4 5
M  V30 5 2 5 6
M  V30 6 1 5 7
M  V30 7 1 4 8
M  V30 8 2 8 9
M  V30 9 1 9 10
M  V30 10 2 10 11
M  V30 11 1 11 12
M  V30 12 2 12 13
M  V30 13 1 6 2
M  V30 14 1 13 8
M  V30 15 1 1 14
M  V30 16 1 1 15
M  V30 17 1 6 16
M  V30 18 1 7 17
M  V30 19 1 7 18
M  V30 20 1 9 19
M  V30 21 1 10 20
M  V30 22 1 11 21
M  V30 23 1 12 22
M  V30 END BOND
M  V30 END CTAB
M  END
