
     RDKit          3D

  0  0  0  0  0  0  0  0  0  0999 V3000
M  V30 BEGIN CTAB
M  V30 COUNTS 45 46 0 0 0
M  V30 BEGIN ATOM
M  V30 1 C -7.61816 2.28094 -1.67546 0
M  V30 2 C -7.28651 0.831376 -1.94379 0
M  V30 3 O -6.03988 0.535534 -1.33581 0
M  V30 4 C -5.49502 -0.75522 -1.43847 0
M  V30 5 O -6.11505 -1.65748 -2.07369 0
M  V30 6 C -4.21376 -0.999993 -0.794715 0
M  V30 7 C -3.60197 -0.0573185 -0.148568 0
M  V30 8 C -2.30829 -0.195357 0.536299 0
M  V30 9 C -1.60545 -1.37688 0.528492 0
M  V30 10 C -0.36708 -1.50341 1.18506 0
M  V30 11 C 0.197115 -0.460098 1.86097 0
M  V30 12 C -0.533645 0.733604 1.85798 0
M  V30 13 C -1.74421 0.86385 1.21881 0
M  V30 14 N 1.44708 -0.462521 2.52905 0
M  V30 15 C 2.48089 -1.38334 2.36507 0
M  V30 16 O 2.39554 -2.33484 1.56798 0
M  V30 17 C 3.72737 -1.24099 3.15375 0
M  V30 18 S 4.50688 0.327297 2.68452 0
M  V30 19 C 5.02141 0.284106 1.00283 0
M  V30 20 N 4.17248 0.68515 0.04495 0
M  V30 21 C 4.49301 0.683896 -1.25465 0
M  V30 22 N 3.5383 1.1284 -2.21092 0
M  V30 23 C 5.75389 0.247193 -1.58847 0
M  V30 24 C 6.64646 -0.169735 -0.632603 0
M  V30 25 N 6.24465 -0.138038 0.658753 0
M  V30 26 N 7.95333 -0.622382 -0.968689 0
M  V30 27 H -7.71592 2.49048 -0.582615 0
M  V30 28 H -8.54514 2.58431 -2.20549 0
M  V30 29 H -6.80496 2.92867 -2.06136 0
M  V30 30 H -8.04169 0.145093 -1.52291 0
M  V30 31 H -7.21811 0.731794 -3.05727 0
M  V30 32 H -3.80127 -1.98925 -0.879296 0
M  V30 33 H -4.08103 0.935455 -0.102319 0
M  V30 34 H -2.01939 -2.23512 0.000586352 0
M  V30 35 H 0.123362 -2.44963 1.15023 0
M  V30 36 H -0.0930518 1.58528 2.40082 0
M  V30 37 H -2.28159 1.80022 1.23651 0
M  V30 38 H 1.65417 0.311075 3.24932 0
M  V30 39 H 3.51295 -1.23753 4.24892 0
M  V30 40 H 4.38842 -2.10686 2.90159 0
M  V30 41 H 3.23757 0.517223 -2.99467 0
M  V30 42 H 3.12275 2.08557 -2.13821 0
M  V30 43 H 6.05945 0.227464 -2.62494 0
M  V30 44 H 8.2642 -0.581509 -1.97261 0
M  V30 45 H 8.5899 -0.986473 -0.238434 0
M  V30 END ATOM
M  V30 BEGIN BOND
M  V30 1 1 1 2
M  V30 2 1 2 3
M  V30 3 1 3 4
M  V30 4 2 4 5
M  V30 5 1 4 6
M  V30 6 2 6 7 CFG=2
M  V30 7 1 7 8
M  V30 8 2 8 9
M  V30 9 1 9 10
M  V30 10 2 10 11
M  V30 11 1 11 12
M  V30 12 2 12 13
M  V30 13 1 11 14
M  V30 14 1 14 15
M  V30 15 2 15 16
M  V30 16 1 15 17
M  V30 17 1 17 18
M  V30 18 1 18 19
M  V30 19 2 19 20
M  V30 20 1 20 21
M  V30 21 1 21 22
M  V30 22 2 21 23
M  V30 23 1 23 24
M  V30 24 2 24 25
M  V30 25 1 24 26
M  V30 26 1 13 8
M  V30 27 1 25 19
M  V30 28 1 1 27
M  V30 29 1 1 28
M  V30 30 1 1 29
M  V30 31 1 2 30
M  V30 32 1 2 31
M  V30 33 1 6 32
M  V30 34 1 7 33
M  V30 35 1 9 34
M  V30 36 1 10 35
M  V30 37 1 12 36
M  V30 38 1 13 37
M  V30 39 1 14 38
M  V30 40 1 17 39
M  V30 41 1 17 40
M  V30 42 1 22 41
M  V30 43 1 22 42
M  V30 44 1 23 43
M  V30 45 1 26 44
M  V30 46 1 26 45
M  V30 END BOND
M  V30 END CTAB
M  END
