
     RDKit          3D

  0  0  0  0  0  0  0  0  0  0999 V3000
M  V30 BEGIN CTAB
M  V30 COUNTS 76 80 0 0 0
M  V30 BEGIN ATOM
M  V30 1 N -5.64985 2.87104 -1.74595 0
M  V30 2 C -4.58369 2.77821 -0.79995 0
M  V30 3 C -3.32844 2.42024 -1.20306 0
M  V30 4 C -2.26272 2.33819 -0.317542 0
M  V30 5 C -0.978184 1.9822 -0.829516 0
M  V30 6 N -0.315512 0.772246 -0.526418 0
M  V30 7 C -0.797834 -0.405925 -1.21675 0 CFG=2
M  V30 8 C -1.20143 -1.55394 -0.378258 0
M  V30 9 C -2.30131 -1.32881 0.572462 0
M  V30 10 C -3.62832 -1.44847 0.229455 0
M  V30 11 C -4.65645 -1.27971 1.11818 0
M  V30 12 C -4.39153 -0.973773 2.43194 0
M  V30 13 C -3.07192 -0.847525 2.80814 0
M  V30 14 C -2.04494 -1.02295 1.8883 0
M  V30 15 C 0.292721 -0.765216 -2.21588 0 CFG=2
M  V30 16 O -0.342602 -1.5064 -3.2342 0
M  V30 17 C 1.40258 -1.54774 -1.65811 0 CFG=1
M  V30 18 O 2.03908 -2.20227 -2.75202 0
M  V30 19 C 2.38931 -0.964835 -0.758983 0 CFG=1
M  V30 20 C 3.57451 -0.393417 -1.48309 0
M  V30 21 C 3.39779 0.667956 -2.43312 0
M  V30 22 C 3.23532 1.9718 -2.01102 0
M  V30 23 C 3.10807 3.03831 -2.89179 0
M  V30 24 C 3.14294 2.8066 -4.24355 0
M  V30 25 C 3.30169 1.53352 -4.68529 0
M  V30 26 C 3.42755 0.479376 -3.79245 0
M  V30 27 N 1.9392 -0.126333 0.321074 0
M  V30 28 C 2.76364 -0.0865959 1.49144 0
M  V30 29 C 2.40523 -0.98051 2.60276 0
M  V30 30 C 2.77095 -2.30488 2.58898 0
M  V30 31 C 2.44812 -3.17038 3.6422 0
M  V30 32 N 2.84965 -4.52744 3.58767 0
M  V30 33 C 1.75124 -2.7019 4.71735 0
M  V30 34 C 1.36152 -1.38376 4.77625 0
M  V30 35 C 1.69774 -0.54748 3.71649 0
M  V30 36 C 0.792697 0.737879 0.390284 0
M  V30 37 O 0.752026 1.53795 1.32593 0
M  V30 38 C -2.53867 2.63357 0.976009 0
M  V30 39 C -3.79307 2.9986 1.42639 0
M  V30 40 C -4.84063 3.07783 0.544085 0
M  V30 41 H -5.55299 3.34085 -2.6636 0
M  V30 42 H -6.56144 2.44742 -1.49927 0
M  V30 43 H -3.15686 2.19827 -2.2328 0
M  V30 44 H -0.191231 2.8062 -0.606502 0
M  V30 45 H -0.970007 2.04621 -1.9785 0
M  V30 46 H -1.69373 -0.15436 -1.86225 0
M  V30 47 H -0.326241 -1.97347 0.211582 0
M  V30 48 H -1.55277 -2.3599 -1.08038 0
M  V30 49 H -3.85953 -1.69324 -0.819297 0
M  V30 50 H -5.68642 -1.38154 0.820881 0
M  V30 51 H -5.19995 -0.831663 3.16065 0
M  V30 52 H -2.89322 -0.609172 3.84988 0
M  V30 53 H -1.05684 -0.901925 2.29319 0
M  V30 54 H 0.559296 0.197935 -2.69726 0
M  V30 55 H -0.892186 -0.88386 -3.77423 0
M  V30 56 H 0.905049 -2.46862 -1.17246 0
M  V30 57 H 2.5694 -2.96154 -2.47308 0
M  V30 58 H 2.86314 -1.85551 -0.21944 0
M  V30 59 H 4.43523 -0.20214 -0.782849 0
M  V30 60 H 3.98303 -1.29052 -2.06322 0
M  V30 61 H 3.20885 2.1878 -0.974433 0
M  V30 62 H 2.98173 4.05371 -2.5564 0
M  V30 63 H 3.04658 3.60459 -4.97301 0
M  V30 64 H 3.33267 1.32398 -5.73162 0
M  V30 65 H 3.56907 -0.485658 -4.25907 0
M  V30 66 H 3.85506 -0.147059 1.2461 0
M  V30 67 H 2.69558 0.966922 1.92758 0
M  V30 68 H 3.33586 -2.7779 1.79648 0
M  V30 69 H 3.852 -4.7325 3.39207 0
M  V30 70 H 2.21039 -5.33093 3.72962 0
M  V30 71 H 1.49571 -3.35943 5.53946 0
M  V30 72 H 0.810534 -1.00875 5.62287 0
M  V30 73 H 1.37419 0.47889 3.8292 0
M  V30 74 H -1.77367 2.59836 1.73793 0
M  V30 75 H -4.00797 3.23064 2.46048 0
M  V30 76 H -5.82476 3.35265 0.823241 0
M  V30 END ATOM
M  V30 BEGIN BOND
M  V30 1 1 1 2
M  V30 2 2 2 3
M  V30 3 1 3 4
M  V30 4 1 4 5
M  V30 5 1 5 6
M  V30 6 1 6 7
M  V30 7 1 7 8
M  V30 8 1 8 9
M  V30 9 2 9 10
M  V30 10 1 10 11
M  V30 11 2 11 12
M  V30 12 1 12 13
M  V30 13 2 13 14
M  V30 14 1 7 15
M  V30 15 1 15 16
M  V30 16 1 15 17
M  V30 17 1 17 18
M  V30 18 1 17 19
M  V30 19 1 19 20
M  V30 20 1 20 21
M  V30 21 2 21 22
M  V30 22 1 22 23
M  V30 23 2 23 24
M  V30 24 1 24 25
M  V30 25 2 25 26
M  V30 26 1 19 27
M  V30 27 1 27 28
M  V30 28 1 28 29
M  V30 29 2 29 30
M  V30 30 1 30 31
M  V30 31 1 31 32
M  V30 32 2 31 33
M  V30 33 1 33 34
M  V30 34 2 34 35
M  V30 35 1 27 36
M  V30 36 2 36 37
M  V30 37 2 4 38
M  V30 38 1 38 39
M  V30 39 2 39 40
M  V30 40 1 40 2
M  V30 41 1 36 6
M  V30 42 1 14 9
M  V30 43 1 26 21
M  V30 44 1 35 29
M  V30 45 1 1 41
M  V30 46 1 1 42
M  V30 47 1 3 43
M  V30 48 1 5 44
M  V30 49 1 5 45
M  V30 50 1 7 46 CFG=3
M  V30 51 1 8 47
M  V30 52 1 8 48
M  V30 53 1 10 49
M  V30 54 1 11 50
M  V30 55 1 12 51
M  V30 56 1 13 52
M  V30 57 1 14 53
M  V30 58 1 15 54 CFG=3
M  V30 59 1 16 55
M  V30 60 1 17 56 CFG=1
M  V30 61 1 18 57
M  V30 62 1 19 58 CFG=1
M  V30 63 1 20 59
M  V30 64 1 20 60
M  V30 65 1 22 61
M  V30 66 1 23 62
M  V30 67 1 24 63
M  V30 68 1 25 64
M  V30 69 1 26 65
M  V30 70 1 28 66
M  V30 71 1 28 67
M  V30 72 1 30 68
M  V30 73 1 32 69
M  V30 74 1 32 70
M  V30 75 1 33 71
M  V30 76 1 34 72
M  V30 77 1 35 73
M  V30 78 1 38 74
M  V30 79 1 39 75
M  V30 80 1 40 76
M  V30 END BOND
M  V30 END CTAB
M  END
