
     RDKit          3D

  0  0  0  0  0  0  0  0  0  0999 V3000
M  V30 BEGIN CTAB
M  V30 COUNTS 26 27 0 0 0
M  V30 BEGIN ATOM
M  V30 1 C -3.53819 -1.37354 0.392283 0
M  V30 2 C -3.42953 -0.280026 -0.642972 0
M  V30 3 O -2.15295 0.247796 -0.779195 0
M  V30 4 C -1.41203 0.866804 0.190653 0
M  V30 5 O -1.92627 0.980047 1.33869 0
M  V30 6 C -0.076893 1.38088 -0.0791474 0
M  V30 7 C 0.305979 2.62841 -0.521011 0
M  V30 8 Br -0.903389 4.04798 -0.901282 0
M  V30 9 O 1.6119 2.65534 -0.627205 0
M  V30 10 C 2.15756 1.51275 -0.289271 0
M  V30 11 C 1.10464 0.679959 0.0650844 0
M  V30 12 C 1.37343 -0.617888 0.47508 0
M  V30 13 N 0.238717 -1.41469 0.823625 0
M  V30 14 N 2.6301 -1.07119 0.531669 0
M  V30 15 C 3.65546 -0.26336 0.187635 0
M  V30 16 N 3.38671 1.00415 -0.212313 0
M  V30 17 N 5.00211 -0.683178 0.226454 0
M  V30 18 H -3.62911 -0.995109 1.42279 0
M  V30 19 H -2.68442 -2.06113 0.239691 0
M  V30 20 H -4.50119 -1.93024 0.192865 0
M  V30 21 H -4.17988 0.51599 -0.405876 0
M  V30 22 H -3.70262 -0.76496 -1.62229 0
M  V30 23 H -0.197342 -1.35632 1.77151 0
M  V30 24 H -0.132298 -2.05513 0.0893549 0
M  V30 25 H 5.68226 -0.118821 0.755216 0
M  V30 26 H 5.31724 -1.53451 -0.258324 0
M  V30 END ATOM
M  V30 BEGIN BOND
M  V30 1 1 1 2
M  V30 2 1 2 3
M  V30 3 1 3 4
M  V30 4 2 4 5
M  V30 5 1 4 6
M  V30 6 2 6 7
M  V30 7 1 7 8
M  V30 8 1 7 9
M  V30 9 1 9 10
M  V30 10 2 10 11
M  V30 11 1 11 12
M  V30 12 1 12 13
M  V30 13 2 12 14
M  V30 14 1 14 15
M  V30 15 2 15 16
M  V30 16 1 15 17
M  V30 17 1 11 6
M  V30 18 1 16 10
M  V30 19 1 1 18
M  V30 20 1 1 19
M  V30 21 1 1 20
M  V30 22 1 2 21
M  V30 23 1 2 22
M  V30 24 1 13 23
M  V30 25 1 13 24
M  V30 26 1 17 25
M  V30 27 1 17 26
M  V30 END BOND
M  V30 END CTAB
M  END
