
     RDKit          3D

  0  0  0  0  0  0  0  0  0  0999 V3000
M  V30 BEGIN CTAB
M  V30 COUNTS 22 22 0 0 0
M  V30 BEGIN ATOM
M  V30 1 N 3.40482 0.181573 0.53377 0
M  V30 2 N 2.03788 0.433791 0.487893 0
M  V30 3 C 1.19775 -0.494505 0.272754 0
M  V30 4 C -0.245425 -0.312788 0.209726 0
M  V30 5 C -1.09348 -1.38504 -0.0308814 0
M  V30 6 C -2.45479 -1.29674 -0.104753 0
M  V30 7 C -2.99493 -0.0474699 0.0755387 0
M  V30 8 C -2.19112 1.03645 0.315265 0
M  V30 9 C -0.824029 0.921629 0.384939 0
M  V30 10 C -0.0310995 2.13417 0.64617 0
M  V30 11 N 1.70483 -1.80691 0.0794288 0
M  V30 12 H 3.75535 -0.808469 0.375338 0
M  V30 13 H 4.12122 0.892246 0.712836 0
M  V30 14 H -0.617074 -2.35695 -0.167465 0
M  V30 15 H -3.11051 -2.11812 -0.28947 0
M  V30 16 H -4.05887 0.113092 0.0336128 0
M  V30 17 H -2.67238 2.01707 0.453014 0
M  V30 18 H 0.628651 2.44755 -0.185336 0
M  V30 19 H 0.447518 2.06831 1.62761 0
M  V30 20 H -0.752033 2.99909 0.753428 0
M  V30 21 H 2.28592 -2.1011 -0.715446 0
M  V30 22 H 1.46181 -2.51687 0.80661 0
M  V30 END ATOM
M  V30 BEGIN BOND
M  V30 1 1 1 2
M  V30 2 2 2 3 CFG=2
M  V30 3 1 3 4
M  V30 4 2 4 5
M  V30 5 1 5 6
M  V30 6 2 6 7
M  V30 7 1 7 8
M  V30 8 2 8 9
M  V30 9 1 9 10
M  V30 10 1 3 11
M  V30 11 1 9 4
M  V30 12 1 1 12
M  V30 13 1 1 13
M  V30 14 1 5 14
M  V30 15 1 6 15
M  V30 16 1 7 16
M  V30 17 1 8 17
M  V30 18 1 10 18
M  V30 19 1 10 19
M  V30 20 1 10 20
M  V30 21 1 11 21
M  V30 22 1 11 22
M  V30 END BOND
M  V30 END CTAB
M  END
