
     RDKit          3D

  0  0  0  0  0  0  0  0  0  0999 V3000
M  V30 BEGIN CTAB
M  V30 COUNTS 19 19 0 0 0
M  V30 BEGIN ATOM
M  V30 1 N -3.25177 -0.580633 -0.605621 0
M  V30 2 C -1.90088 -0.291564 -0.86806 0
M  V30 3 C -1.16217 -0.26135 0.465235 0 CFG=1
M  V30 4 C 0.274711 0.0736062 0.217096 0
M  V30 5 N 0.747853 1.28839 -0.113831 0
M  V30 6 N 2.05564 1.21851 -0.255091 0
M  V30 7 C 2.4501 -0.0454338 -0.01725 0
M  V30 8 N 1.32814 -0.75938 0.278562 0
M  V30 9 N 3.78634 -0.500849 -0.0749033 0
M  V30 10 O -1.72397 0.721918 1.26837 0
M  V30 11 H -3.4697 -1.31491 0.00301623 0
M  V30 12 H -3.94723 -0.246352 -1.20799 0
M  V30 13 H -1.85422 0.709858 -1.34685 0
M  V30 14 H -1.43485 -1.07633 -1.47634 0
M  V30 15 H -1.27014 -1.22931 0.968354 0
M  V30 16 H 2.6595 2.04048 -0.513071 0
M  V30 17 H 4.36818 -0.421807 0.772765 0
M  V30 18 H 4.12522 -0.897446 -0.974157 0
M  V30 19 H -1.78073 1.57261 0.756381 0
M  V30 END ATOM
M  V30 BEGIN BOND
M  V30 1 1 1 2
M  V30 2 1 2 3
M  V30 3 1 3 4
M  V30 4 2 4 5
M  V30 5 1 5 6
M  V30 6 1 6 7
M  V30 7 2 7 8
M  V30 8 1 7 9
M  V30 9 1 3 10
M  V30 10 1 8 4
M  V30 11 1 1 11
M  V30 12 1 1 12
M  V30 13 1 2 13
M  V30 14 1 2 14
M  V30 15 1 3 15 CFG=1
M  V30 16 1 6 16
M  V30 17 1 9 17
M  V30 18 1 9 18
M  V30 19 1 10 19
M  V30 END BOND
M  V30 END CTAB
M  END
