
     RDKit          3D

  0  0  0  0  0  0  0  0  0  0999 V3000
M  V30 BEGIN CTAB
M  V30 COUNTS 39 40 0 0 0
M  V30 BEGIN ATOM
M  V30 1 C 8.34364 0.432334 0.701334 0
M  V30 2 C 6.83807 0.519238 0.753388 0
M  V30 3 O 6.2284 -0.57917 0.094245 0
M  V30 4 C 4.84378 -0.610443 0.0753753 0
M  V30 5 C 4.05886 0.355492 0.654924 0
M  V30 6 C 2.66373 0.295979 0.619112 0
M  V30 7 C 2.01361 -0.739251 -0.00287222 0
M  V30 8 C 2.81626 -1.73225 -0.598291 0
M  V30 9 C 4.17843 -1.66654 -0.558384 0
M  V30 10 N 0.61365 -0.848315 -0.0917728 0
M  V30 11 C -0.294143 0.184976 0.10855 0
M  V30 12 O 0.0471874 1.33939 0.386718 0
M  V30 13 C -1.77204 -0.151377 -0.0277732 0
M  V30 14 S -2.75629 1.33829 0.274139 0
M  V30 15 C -4.47374 0.891319 0.102873 0
M  V30 16 N -5.41927 1.8277 0.279573 0
M  V30 17 C -6.7254 1.52291 0.157369 0
M  V30 18 N -7.72856 2.51404 0.344319 0
M  V30 19 C -7.15004 0.242016 -0.153203 0
M  V30 20 C -6.16718 -0.705922 -0.331055 0
M  V30 21 N -4.87513 -0.355949 -0.199061 0
M  V30 22 N -6.566 -2.04525 -0.653994 0
M  V30 23 H 8.68884 -0.205099 1.52494 0
M  V30 24 H 8.70342 0.0820154 -0.273277 0
M  V30 25 H 8.75146 1.47005 0.838464 0
M  V30 26 H 6.48054 0.495806 1.80541 0
M  V30 27 H 6.4701 1.45932 0.299493 0
M  V30 28 H 4.52911 1.18047 1.14994 0
M  V30 29 H 2.1661 1.10254 1.12009 0
M  V30 30 H 2.2723 -2.53795 -1.08263 0
M  V30 31 H 4.75419 -2.45772 -1.03278 0
M  V30 32 H 0.211253 -1.80046 -0.328702 0
M  V30 33 H -1.95816 -0.486285 -1.0689 0
M  V30 34 H -1.9815 -0.962335 0.683042 0
M  V30 35 H -7.72623 3.41204 -0.168296 0
M  V30 36 H -8.49485 2.32232 1.02691 0
M  V30 37 H -8.19906 0.000675065 -0.250559 0
M  V30 38 H -7.36557 -2.2575 -1.26623 0
M  V30 39 H -6.01977 -2.84711 -0.249217 0
M  V30 END ATOM
M  V30 BEGIN BOND
M  V30 1 1 1 2
M  V30 2 1 2 3
M  V30 3 1 3 4
M  V30 4 2 4 5
M  V30 5 1 5 6
M  V30 6 2 6 7
M  V30 7 1 7 8
M  V30 8 2 8 9
M  V30 9 1 7 10
M  V30 10 1 10 11
M  V30 11 2 11 12
M  V30 12 1 11 13
M  V30 13 1 13 14
M  V30 14 1 14 15
M  V30 15 2 15 16
M  V30 16 1 16 17
M  V30 17 1 17 18
M  V30 18 2 17 19
M  V30 19 1 19 20
M  V30 20 2 20 21
M  V30 21 1 20 22
M  V30 22 1 9 4
M  V30 23 1 21 15
M  V30 24 1 1 23
M  V30 25 1 1 24
M  V30 26 1 1 25
M  V30 27 1 2 26
M  V30 28 1 2 27
M  V30 29 1 5 28
M  V30 30 1 6 29
M  V30 31 1 8 30
M  V30 32 1 9 31
M  V30 33 1 10 32
M  V30 34 1 13 33
M  V30 35 1 13 34
M  V30 36 1 18 35
M  V30 37 1 18 36
M  V30 38 1 19 37
M  V30 39 1 22 38
M  V30 40 1 22 39
M  V30 END BOND
M  V30 END CTAB
M  END
