
     RDKit          3D

  0  0  0  0  0  0  0  0  0  0999 V3000
M  V30 BEGIN CTAB
M  V30 COUNTS 49 49 0 0 0
M  V30 BEGIN ATOM
M  V30 1 N -3.87499 -2.18457 -1.36178 0
M  V30 2 C -2.49415 -1.73609 -1.45824 0
M  V30 3 C -2.02772 -1.27381 -0.110202 0
M  V30 4 N -0.668719 -0.82293 -0.189854 0
M  V30 5 C 0.460674 -1.55821 -0.590711 0
M  V30 6 O 0.337049 -2.75024 -0.928698 0
M  V30 7 C 1.81607 -0.962442 -0.628233 0
M  V30 8 C 1.89004 0.217844 -1.56696 0
M  V30 9 C 2.71607 1.31537 -0.898626 0
M  V30 10 N 3.89628 0.680045 -0.380235 0
M  V30 11 C 3.54509 0.0518579 0.8796 0
M  V30 12 C 2.18478 -0.591591 0.786546 0
M  V30 13 S 5.21731 1.76432 -0.2001 0
M  V30 14 O 4.9473 2.86071 0.769451 0
M  V30 15 O 6.38857 0.941421 0.318304 0
M  V30 16 N 5.63401 2.39963 -1.74173 0
M  V30 17 C -2.94817 -0.419225 0.637935 0
M  V30 18 C -3.44393 0.854249 0.124453 0
M  V30 19 C -4.40746 1.51386 1.14306 0
M  V30 20 C -2.41567 1.93149 -0.110974 0
M  V30 21 C -1.93445 -2.59419 0.707517 0
M  V30 22 H -4.17852 -2.77372 -2.13711 0
M  V30 23 H -4.15918 -2.44922 -0.421629 0
M  V30 24 H -2.30982 -1.04433 -2.27617 0
M  V30 25 H -1.93822 -2.66589 -1.68867 0
M  V30 26 H -0.483893 0.176857 0.0954443 0
M  V30 27 H 2.53405 -1.73491 -0.956806 0
M  V30 28 H 2.45509 -0.0639422 -2.47992 0
M  V30 29 H 0.906152 0.573941 -1.89497 0
M  V30 30 H 2.10686 1.69257 -0.0472406 0
M  V30 31 H 2.90909 2.15066 -1.58083 0
M  V30 32 H 3.52419 0.766859 1.72508 0
M  V30 33 H 4.34355 -0.679709 1.10719 0
M  V30 34 H 2.2336 -1.5425 1.36517 0
M  V30 35 H 1.44184 0.117789 1.15362 0
M  V30 36 H 6.03071 3.36275 -1.62625 0
M  V30 37 H 6.33812 1.77795 -2.16658 0
M  V30 38 H -3.85433 -1.00637 0.994182 0
M  V30 39 H -2.44463 -0.203131 1.63522 0
M  V30 40 H -4.05088 0.805151 -0.801927 0
M  V30 41 H -5.02033 0.708418 1.59745 0
M  V30 42 H -3.77927 2.03781 1.88615 0
M  V30 43 H -5.02074 2.25256 0.62988 0
M  V30 44 H -1.80076 1.78026 -1.0163 0
M  V30 45 H -2.94605 2.9302 -0.157745 0
M  V30 46 H -1.79497 2.0039 0.804991 0
M  V30 47 H -1.76706 -3.44386 0.0433711 0
M  V30 48 H -2.94095 -2.71553 1.19416 0
M  V30 49 H -1.15164 -2.45205 1.44308 0
M  V30 END ATOM
M  V30 BEGIN BOND
M  V30 1 1 1 2
M  V30 2 1 2 3
M  V30 3 1 3 4
M  V30 4 1 4 5
M  V30 5 2 5 6
M  V30 6 1 5 7
M  V30 7 1 7 8
M  V30 8 1 8 9
M  V30 9 1 9 10
M  V30 10 1 10 11
M  V30 11 1 11 12
M  V30 12 1 10 13
M  V30 13 2 13 14
M  V30 14 2 13 15
M  V30 15 1 13 16
M  V30 16 1 3 17
M  V30 17 1 17 18
M  V30 18 1 18 19
M  V30 19 1 18 20
M  V30 20 1 3 21
M  V30 21 1 12 7
M  V30 22 1 1 22
M  V30 23 1 1 23
M  V30 24 1 2 24
M  V30 25 1 2 25
M  V30 26 1 4 26
M  V30 27 1 7 27
M  V30 28 1 8 28
M  V30 29 1 8 29
M  V30 30 1 9 30
M  V30 31 1 9 31
M  V30 32 1 11 32
M  V30 33 1 11 33
M  V30 34 1 12 34
M  V30 35 1 12 35
M  V30 36 1 16 36
M  V30 37 1 16 37
M  V30 38 1 17 38
M  V30 39 1 17 39
M  V30 40 1 18 40
M  V30 41 1 19 41
M  V30 42 1 19 42
M  V30 43 1 19 43
M  V30 44 1 20 44
M  V30 45 1 20 45
M  V30 46 1 20 46
M  V30 47 1 21 47
M  V30 48 1 21 48
M  V30 49 1 21 49
M  V30 END BOND
M  V30 END CTAB
M  END
