
     RDKit          3D

  0  0  0  0  0  0  0  0  0  0999 V3000
M  V30 BEGIN CTAB
M  V30 COUNTS 39 41 0 0 0
M  V30 BEGIN ATOM
M  V30 1 N 8.34445 -1.21121 0.343776 0
M  V30 2 C 7.33354 -0.657966 0.232276 0
M  V30 3 C 6.07331 0.0606534 0.0947373 0
M  V30 4 C 4.91366 -0.656781 0.0265707 0
M  V30 5 C 3.65538 -0.0259314 -0.107072 0
M  V30 6 C 3.71988 1.33799 -0.159353 0
M  V30 7 N 4.89067 2.04908 -0.0899742 0
M  V30 8 C 6.08259 1.44042 0.037093 0
M  V30 9 N 7.32124 2.12646 0.11331 0
M  V30 10 S 2.07439 1.78653 -0.318158 0
M  V30 11 C 1.36691 0.237915 -0.312686 0
M  V30 12 C 2.44151 -0.592707 -0.186208 0
M  V30 13 N 2.21006 -2.03291 -0.144874 0
M  V30 14 C -0.065632 -0.141414 -0.418321 0
M  V30 15 O -0.410479 -1.32077 -0.397709 0
M  V30 16 N -0.979551 0.927277 -0.541161 0
M  V30 17 C -2.38811 0.66076 -0.641403 0
M  V30 18 C -2.99295 -0.0223145 0.551987 0
M  V30 19 C -4.43541 -0.260634 0.389737 0
M  V30 20 C -5.32457 0.699015 0.807864 0
M  V30 21 C -6.70315 0.51036 0.671121 0
M  V30 22 C -7.16712 -0.651845 0.110639 0
M  V30 23 C -6.26375 -1.5952 -0.299358 0
M  V30 24 C -4.91694 -1.40422 -0.162646 0
M  V30 25 Cl -8.89327 -0.901517 -0.0668813 0
M  V30 26 H 5.0051 -1.73964 0.0802055 0
M  V30 27 H 7.87767 2.23882 0.988777 0
M  V30 28 H 7.73068 2.56015 -0.750399 0
M  V30 29 H 2.0861 -2.53768 -1.05052 0
M  V30 30 H 2.17434 -2.51573 0.768734 0
M  V30 31 H -0.632215 1.9356 -0.560373 0
M  V30 32 H -2.93273 1.64982 -0.722059 0
M  V30 33 H -2.63556 0.11267 -1.58389 0
M  V30 34 H -2.42721 -0.947367 0.758942 0
M  V30 35 H -2.85754 0.695256 1.4201 0
M  V30 36 H -4.98878 1.6161 1.24907 0
M  V30 37 H -7.41476 1.24557 0.990386 0
M  V30 38 H -6.63013 -2.50904 -0.740126 0
M  V30 39 H -4.24159 -2.16557 -0.495422 0
M  V30 END ATOM
M  V30 BEGIN BOND
M  V30 1 3 1 2
M  V30 2 1 2 3
M  V30 3 2 3 4
M  V30 4 1 4 5
M  V30 5 2 5 6
M  V30 6 1 6 7
M  V30 7 2 7 8
M  V30 8 1 8 9
M  V30 9 1 6 10
M  V30 10 1 10 11
M  V30 11 2 11 12
M  V30 12 1 12 13
M  V30 13 1 11 14
M  V30 14 2 14 15
M  V30 15 1 14 16
M  V30 16 1 16 17
M  V30 17 1 17 18
M  V30 18 1 18 19
M  V30 19 2 19 20
M  V30 20 1 20 21
M  V30 21 2 21 22
M  V30 22 1 22 23
M  V30 23 2 23 24
M  V30 24 1 22 25
M  V30 25 1 8 3
M  V30 26 1 24 19
M  V30 27 1 12 5
M  V30 28 1 4 26
M  V30 29 1 9 27
M  V30 30 1 9 28
M  V30 31 1 13 29
M  V30 32 1 13 30
M  V30 33 1 16 31
M  V30 34 1 17 32
M  V30 35 1 17 33
M  V30 36 1 18 34
M  V30 37 1 18 35
M  V30 38 1 20 36
M  V30 39 1 21 37
M  V30 40 1 23 38
M  V30 41 1 24 39
M  V30 END BOND
M  V30 END CTAB
M  END
