
     RDKit          3D

  0  0  0  0  0  0  0  0  0  0999 V3000
M  V30 BEGIN CTAB
M  V30 COUNTS 28 28 0 0 0
M  V30 BEGIN ATOM
M  V30 1 O -4.10467 0.752607 0.295357 0
M  V30 2 C -3.09836 0.0894775 0.973306 0
M  V30 3 O -3.42235 -0.806893 1.76184 0
M  V30 4 C -1.70008 0.426364 0.777134 0
M  V30 5 C -0.950138 -0.500884 -0.156876 0
M  V30 6 C 0.424084 0.00488487 -0.234246 0
M  V30 7 C 0.843625 0.72054 -1.31991 0
M  V30 8 C 2.1573 1.20992 -1.43161 0
M  V30 9 C 3.01468 0.944504 -0.412778 0
M  V30 10 C 2.62862 0.228075 0.69941 0
M  V30 11 C 1.30469 -0.242626 0.773983 0
M  V30 12 N 3.55165 -0.0404176 1.74111 0
M  V30 13 N -0.988287 -1.83122 0.477845 0
M  V30 14 C -1.59523 -0.591182 -1.51738 0
M  V30 15 H -3.94998 1.35535 -0.500692 0
M  V30 16 H -1.55042 1.46845 0.320441 0
M  V30 17 H -1.08865 0.437853 1.71422 0
M  V30 18 H 0.146009 0.932136 -2.12613 0
M  V30 19 H 2.45742 1.76826 -2.27727 0
M  V30 20 H 4.04608 1.32326 -0.453802 0
M  V30 21 H 1.05669 -0.809036 1.66675 0
M  V30 22 H 3.37454 -0.823264 2.3842 0
M  V30 23 H 4.40419 0.568858 1.84519 0
M  V30 24 H -1.63755 -2.45896 -0.0374079 0
M  V30 25 H -0.0764692 -2.23085 0.617705 0
M  V30 26 H -0.893835 -1.05421 -2.23438 0
M  V30 27 H -2.47624 -1.24157 -1.44808 0
M  V30 28 H -1.87732 0.400578 -1.89794 0
M  V30 END ATOM
M  V30 BEGIN BOND
M  V30 1 1 1 2
M  V30 2 2 2 3
M  V30 3 1 2 4
M  V30 4 1 4 5
M  V30 5 1 5 6
M  V30 6 2 6 7
M  V30 7 1 7 8
M  V30 8 2 8 9
M  V30 9 1 9 10
M  V30 10 2 10 11
M  V30 11 1 10 12
M  V30 12 1 5 13
M  V30 13 1 5 14
M  V30 14 1 11 6
M  V30 15 1 1 15
M  V30 16 1 4 16
M  V30 17 1 4 17
M  V30 18 1 7 18
M  V30 19 1 8 19
M  V30 20 1 9 20
M  V30 21 1 11 21
M  V30 22 1 12 22
M  V30 23 1 12 23
M  V30 24 1 13 24
M  V30 25 1 13 25
M  V30 26 1 14 26
M  V30 27 1 14 27
M  V30 28 1 14 28
M  V30 END BOND
M  V30 END CTAB
M  END
