
     RDKit          3D

  0  0  0  0  0  0  0  0  0  0999 V3000
M  V30 BEGIN CTAB
M  V30 COUNTS 21 22 0 0 0
M  V30 BEGIN ATOM
M  V30 1 N 4.76679 0.673984 -0.528508 0
M  V30 2 C 3.52546 -0.0243054 -0.39983 0
M  V30 3 N 3.32124 -1.34984 -0.43192 0
M  V30 4 O 2.05078 -1.57831 -0.278836 0
M  V30 5 C 1.39873 -0.464142 -0.146099 0
M  V30 6 N 2.30867 0.519063 -0.219686 0
M  V30 7 C -0.0352863 -0.30197 0.0451645 0
M  V30 8 C -0.86863 -1.38813 0.104292 0
M  V30 9 C -2.22716 -1.25609 0.284594 0
M  V30 10 C -2.75417 0.0223403 0.408657 0
M  V30 11 C -1.92354 1.1221 0.350472 0
M  V30 12 C -0.573197 0.953778 0.169624 0
M  V30 13 Br -2.66645 2.89715 0.52411 0
M  V30 14 N -4.13375 0.257543 0.596248 0
M  V30 15 H 4.85777 1.65108 -0.18335 0
M  V30 16 H 5.58134 0.218249 -0.962961 0
M  V30 17 H -0.478814 -2.41442 0.00895527 0
M  V30 18 H -2.92316 -2.07527 0.337855 0
M  V30 19 H 0.0423586 1.85131 0.130134 0
M  V30 20 H -4.77446 0.217484 -0.207378 0
M  V30 21 H -4.49452 0.468396 1.53634 0
M  V30 END ATOM
M  V30 BEGIN BOND
M  V30 1 1 1 2
M  V30 2 2 2 3
M  V30 3 1 3 4
M  V30 4 1 4 5
M  V30 5 2 5 6
M  V30 6 1 5 7
M  V30 7 2 7 8
M  V30 8 1 8 9
M  V30 9 2 9 10
M  V30 10 1 10 11
M  V30 11 2 11 12
M  V30 12 1 11 13
M  V30 13 1 10 14
M  V30 14 1 6 2
M  V30 15 1 12 7
M  V30 16 1 1 15
M  V30 17 1 1 16
M  V30 18 1 8 17
M  V30 19 1 9 18
M  V30 20 1 12 19
M  V30 21 1 14 20
M  V30 22 1 14 21
M  V30 END BOND
M  V30 END CTAB
M  END
