
     RDKit          3D

  0  0  0  0  0  0  0  0  0  0999 V3000
M  V30 BEGIN CTAB
M  V30 COUNTS 41 43 0 0 0
M  V30 BEGIN ATOM
M  V30 1 Cl 6.72471 3.33941 0.740981 0
M  V30 2 C 5.27271 2.43624 0.323126 0
M  V30 3 C 4.88024 1.3262 1.03111 0
M  V30 4 C 3.74345 0.62467 0.698914 0
M  V30 5 C 2.93006 0.993918 -0.364609 0
M  V30 6 C 3.34181 2.11323 -1.06416 0
M  V30 7 C 4.4729 2.81823 -0.740362 0
M  V30 8 C 1.73374 0.227216 -0.69403 0
M  V30 9 O 0.861374 0.757975 -1.40475 0
M  V30 10 C 1.56663 -1.115 -0.206459 0
M  V30 11 C 2.57506 -2.04436 -0.516117 0
M  V30 12 C 2.50088 -3.36313 -0.157853 0
M  V30 13 C 1.41973 -3.83505 0.529391 0
M  V30 14 C 0.426106 -2.94357 0.841682 0
M  V30 15 C 0.488192 -1.59449 0.483777 0
M  V30 16 C -0.588133 -0.728233 0.920549 0
M  V30 17 O -0.648654 0.507646 0.766056 0
M  V30 18 O -1.67631 -1.28802 1.57828 0
M  V30 19 C -2.79368 -0.580855 2.05297 0
M  V30 20 C -3.50251 0.108183 0.950121 0
M  V30 21 N -3.47897 1.39721 0.672409 0
M  V30 22 C -4.16579 1.91689 -0.370945 0
M  V30 23 N -4.10739 3.30468 -0.637748 0
M  V30 24 N -4.8955 1.09971 -1.15006 0
M  V30 25 C -4.93276 -0.215309 -0.884072 0
M  V30 26 N -4.24751 -0.693785 0.146797 0
M  V30 27 N -5.71482 -1.06284 -1.72637 0
M  V30 28 H 5.48923 1.0136 1.86311 0
M  V30 29 H 3.43342 -0.260461 1.26899 0
M  V30 30 H 2.70928 2.40241 -1.89266 0
M  V30 31 H 4.77298 3.69352 -1.30636 0
M  V30 32 H 3.43186 -1.64013 -1.06732 0
M  V30 33 H 3.29006 -4.04123 -0.41203 0
M  V30 34 H 1.32982 -4.89206 0.832141 0
M  V30 35 H -0.428879 -3.34724 1.39264 0
M  V30 36 H -2.57504 0.0717883 2.89979 0
M  V30 37 H -3.49613 -1.36476 2.43963 0
M  V30 38 H -4.82212 3.95901 -0.30507 0
M  V30 39 H -3.30673 3.65858 -1.1906 0
M  V30 40 H -5.29209 -1.53509 -2.56174 0
M  V30 41 H -6.72123 -1.22471 -1.52111 0
M  V30 END ATOM
M  V30 BEGIN BOND
M  V30 1 1 1 2
M  V30 2 2 2 3
M  V30 3 1 3 4
M  V30 4 2 4 5
M  V30 5 1 5 6
M  V30 6 2 6 7
M  V30 7 1 5 8
M  V30 8 2 8 9
M  V30 9 1 8 10
M  V30 10 2 10 11
M  V30 11 1 11 12
M  V30 12 2 12 13
M  V30 13 1 13 14
M  V30 14 2 14 15
M  V30 15 1 15 16
M  V30 16 2 16 17
M  V30 17 1 16 18
M  V30 18 1 18 19
M  V30 19 1 19 20
M  V30 20 2 20 21
M  V30 21 1 21 22
M  V30 22 1 22 23
M  V30 23 2 22 24
M  V30 24 1 24 25
M  V30 25 2 25 26
M  V30 26 1 25 27
M  V30 27 1 7 2
M  V30 28 1 15 10
M  V30 29 1 26 20
M  V30 30 1 3 28
M  V30 31 1 4 29
M  V30 32 1 6 30
M  V30 33 1 7 31
M  V30 34 1 11 32
M  V30 35 1 12 33
M  V30 36 1 13 34
M  V30 37 1 14 35
M  V30 38 1 19 36
M  V30 39 1 19 37
M  V30 40 1 23 38
M  V30 41 1 23 39
M  V30 42 1 27 40
M  V30 43 1 27 41
M  V30 END BOND
M  V30 END CTAB
M  END
