
     RDKit          3D

  0  0  0  0  0  0  0  0  0  0999 V3000
M  V30 BEGIN CTAB
M  V30 COUNTS 55 57 0 0 0
M  V30 BEGIN ATOM
M  V30 1 C -2.11981 1.05829 5.49511 0
M  V30 2 O -2.59217 0.880743 4.19344 0
M  V30 3 C -1.8982 0.323276 3.13812 0
M  V30 4 C -2.56267 0.245712 1.93215 0
M  V30 5 C -1.94444 -0.297698 0.822498 0
M  V30 6 C -0.638855 -0.772455 0.918385 0
M  V30 7 C 0.032092 -0.703994 2.10026 0
M  V30 8 C -0.615894 -0.154698 3.1898 0
M  V30 9 C 1.41533 -1.17938 2.30577 0
M  V30 10 C 1.38477 -2.6939 2.06446 0
M  V30 11 C 2.25485 -0.523817 1.29009 0
M  V30 12 C 2.94006 -0.0080368 0.451413 0
M  V30 13 C 3.74841 0.599726 -0.570893 0
M  V30 14 C 4.58313 1.67347 -0.305355 0
M  V30 15 C 4.63396 2.20313 1.08417 0
M  V30 16 N 5.33197 2.23498 -1.25588 0
M  V30 17 C 5.27446 1.73838 -2.52503 0
M  V30 18 N 6.07759 2.34847 -3.52324 0
M  V30 19 N 4.46242 0.693374 -2.78462 0
M  V30 20 C 3.70914 0.122763 -1.84523 0
M  V30 21 N 2.84429 -0.987942 -2.11521 0
M  V30 22 C -2.64441 -0.383182 -0.46135 0
M  V30 23 C -2.01935 -0.30874 -1.68494 0
M  V30 24 C -2.7188 -0.394422 -2.87697 0
M  V30 25 C -2.02016 -0.310715 -4.19624 0
M  V30 26 C -4.07631 -0.558567 -2.83872 0
M  V30 27 C -4.74313 -0.638084 -1.63545 0
M  V30 28 C -6.21507 -0.816543 -1.62376 0
M  V30 29 C -4.0125 -0.548642 -0.462294 0
M  V30 30 H -2.97525 0.789627 6.18049 0
M  V30 31 H -1.30876 0.362863 5.74426 0
M  V30 32 H -1.88294 2.12038 5.73205 0
M  V30 33 H -3.58415 0.605736 1.81579 0
M  V30 34 H -0.129201 -1.20318 0.0655801 0
M  V30 35 H -0.109046 -0.0798757 4.16453 0
M  V30 36 H 1.75423 -1.02279 3.32582 0
M  V30 37 H 0.647562 -2.93891 1.24536 0
M  V30 38 H 1.11981 -3.16245 3.0116 0
M  V30 39 H 2.40251 -2.9995 1.75263 0
M  V30 40 H 5.19773 1.49903 1.73035 0
M  V30 41 H 3.64281 2.39328 1.49453 0
M  V30 42 H 5.18835 3.16229 1.09606 0
M  V30 43 H 6.09492 3.3835 -3.61077 0
M  V30 44 H 6.658 1.79292 -4.18042 0
M  V30 45 H 2.0149 -0.873354 -2.72456 0
M  V30 46 H 3.08839 -1.89146 -1.67751 0
M  V30 47 H -0.959922 -0.180818 -1.71901 0
M  V30 48 H -0.961932 -0.520222 -4.05029 0
M  V30 49 H -2.21072 0.7372 -4.55983 0
M  V30 50 H -2.52341 -0.975255 -4.91631 0
M  V30 51 H -4.63785 -0.627455 -3.78 0
M  V30 52 H -6.55504 -1.25551 -0.654522 0
M  V30 53 H -6.71952 0.175946 -1.80466 0
M  V30 54 H -6.55829 -1.51898 -2.42545 0
M  V30 55 H -4.56388 -0.614483 0.463805 0
M  V30 END ATOM
M  V30 BEGIN BOND
M  V30 1 1 1 2
M  V30 2 1 2 3
M  V30 3 2 3 4
M  V30 4 1 4 5
M  V30 5 2 5 6
M  V30 6 1 6 7
M  V30 7 2 7 8
M  V30 8 1 7 9
M  V30 9 1 9 10
M  V30 10 1 9 11
M  V30 11 3 11 12
M  V30 12 1 12 13
M  V30 13 2 13 14
M  V30 14 1 14 15
M  V30 15 1 14 16
M  V30 16 2 16 17
M  V30 17 1 17 18
M  V30 18 1 17 19
M  V30 19 2 19 20
M  V30 20 1 20 21
M  V30 21 1 5 22
M  V30 22 2 22 23
M  V30 23 1 23 24
M  V30 24 1 24 25
M  V30 25 2 24 26
M  V30 26 1 26 27
M  V30 27 1 27 28
M  V30 28 2 27 29
M  V30 29 1 8 3
M  V30 30 1 20 13
M  V30 31 1 29 22
M  V30 32 1 1 30
M  V30 33 1 1 31
M  V30 34 1 1 32
M  V30 35 1 4 33
M  V30 36 1 6 34
M  V30 37 1 8 35
M  V30 38 1 9 36
M  V30 39 1 10 37
M  V30 40 1 10 38
M  V30 41 1 10 39
M  V30 42 1 15 40
M  V30 43 1 15 41
M  V30 44 1 15 42
M  V30 45 1 18 43
M  V30 46 1 18 44
M  V30 47 1 21 45
M  V30 48 1 21 46
M  V30 49 1 23 47
M  V30 50 1 25 48
M  V30 51 1 25 49
M  V30 52 1 25 50
M  V30 53 1 26 51
M  V30 54 1 28 52
M  V30 55 1 28 53
M  V30 56 1 28 54
M  V30 57 1 29 55
M  V30 END BOND
M  V30 END CTAB
M  END
