
     RDKit          3D

  0  0  0  0  0  0  0  0  0  0999 V3000
M  V30 BEGIN CTAB
M  V30 COUNTS 18 17 0 0 0
M  V30 BEGIN ATOM
M  V30 1 N 1.481 1.64718 0.740083 0
M  V30 2 C 1.04119 0.489876 0.0398419 0
M  V30 3 N 1.91515 -0.329974 -0.483784 0
M  V30 4 N 3.26756 -0.0614741 -0.350415 0
M  V30 5 N -0.349559 0.255787 -0.0715135 0
M  V30 6 C -0.892026 -1.05979 0.0153059 0
M  V30 7 C -2.34367 -1.1969 -0.112624 0
M  V30 8 C -3.1538 -0.18036 -0.300415 0
M  V30 9 H 1.76222 1.53353 1.73247 0
M  V30 10 H 1.53042 2.60334 0.29164 0
M  V30 11 H 3.62687 0.920828 -0.361266 0
M  V30 12 H 3.99054 -0.824802 -0.233043 0
M  V30 13 H -0.950817 1.07666 -0.217755 0
M  V30 14 H -0.450363 -1.67654 -0.823559 0
M  V30 15 H -0.513349 -1.51451 0.98284 0
M  V30 16 H -2.83932 -2.19069 -0.0554335 0
M  V30 17 H -4.25362 -0.339112 -0.391507 0
M  V30 18 H -2.86844 0.846932 -0.381716 0
M  V30 END ATOM
M  V30 BEGIN BOND
M  V30 1 1 1 2
M  V30 2 2 2 3 CFG=2
M  V30 3 1 3 4
M  V30 4 1 2 5
M  V30 5 1 5 6
M  V30 6 1 6 7
M  V30 7 2 7 8 CFG=2
M  V30 8 1 1 9
M  V30 9 1 1 10
M  V30 10 1 4 11
M  V30 11 1 4 12
M  V30 12 1 5 13
M  V30 13 1 6 14
M  V30 14 1 6 15
M  V30 15 1 7 16
M  V30 16 1 8 17
M  V30 17 1 8 18
M  V30 END BOND
M  V30 END CTAB
M  END
