
     RDKit          3D

  0  0  0  0  0  0  0  0  0  0999 V3000
M  V30 BEGIN CTAB
M  V30 COUNTS 24 24 0 0 0
M  V30 BEGIN ATOM
M  V30 1 N 3.95064 -0.946616 0.0367158 0
M  V30 2 C 3.21346 0.16127 0.54927 0
M  V30 3 C 1.78182 0.147246 0.18713 0
M  V30 4 C 0.826349 -0.467101 0.976774 0
M  V30 5 C -0.508762 -0.46908 0.620143 0
M  V30 6 C -0.948959 0.138529 -0.53435 0
M  V30 7 N -2.33906 0.132435 -0.898651 0
M  V30 8 C -3.32975 -0.479141 -0.122328 0
M  V30 9 N -3.65287 -0.00312201 1.16948 0
M  V30 10 N -3.96729 -1.49417 -0.578311 0
M  V30 11 C -0.00729283 0.753122 -1.32814 0
M  V30 12 C 1.33068 0.755327 -0.971121 0
M  V30 13 H 4.28239 -0.832212 -0.936658 0
M  V30 14 H 4.65053 -1.34377 0.689457 0
M  V30 15 H 3.66277 1.09235 0.107197 0
M  V30 16 H 3.38406 0.222689 1.64397 0
M  V30 17 H 1.16698 -0.95472 1.89987 0
M  V30 18 H -1.24323 -0.955516 1.25132 0
M  V30 19 H -2.63399 0.603636 -1.78207 0
M  V30 20 H -3.71146 -0.708598 1.94777 0
M  V30 21 H -3.83639 1.00681 1.39501 0
M  V30 22 H -3.83704 -1.94056 -1.49042 0
M  V30 23 H -0.311064 1.24242 -2.2442 0
M  V30 24 H 2.07748 1.23523 -1.58785 0
M  V30 END ATOM
M  V30 BEGIN BOND
M  V30 1 1 1 2
M  V30 2 1 2 3
M  V30 3 2 3 4
M  V30 4 1 4 5
M  V30 5 2 5 6
M  V30 6 1 6 7
M  V30 7 1 7 8
M  V30 8 1 8 9
M  V30 9 2 8 10 CFG=2
M  V30 10 1 6 11
M  V30 11 2 11 12
M  V30 12 1 12 3
M  V30 13 1 1 13
M  V30 14 1 1 14
M  V30 15 1 2 15
M  V30 16 1 2 16
M  V30 17 1 4 17
M  V30 18 1 5 18
M  V30 19 1 7 19
M  V30 20 1 9 20
M  V30 21 1 9 21
M  V30 22 1 10 22
M  V30 23 1 11 23
M  V30 24 1 12 24
M  V30 END BOND
M  V30 END CTAB
M  END
