
     RDKit          3D

  0  0  0  0  0  0  0  0  0  0999 V3000
M  V30 BEGIN CTAB
M  V30 COUNTS 41 41 0 0 0
M  V30 BEGIN ATOM
M  V30 1 N -3.39528 -1.73208 1.74063 0
M  V30 2 C -2.19111 -1.04374 1.39596 0
M  V30 3 C -2.29908 -0.522472 -0.015524 0
M  V30 4 C -3.46183 0.439655 -0.170509 0
M  V30 5 C -3.14793 1.5752 -1.09429 0
M  V30 6 C -2.33026 1.21315 -2.27964 0
M  V30 7 C -1.15689 0.330662 -1.98567 0
M  V30 8 C -1.06177 0.208206 -0.462294 0
M  V30 9 N 0.154845 -0.427812 -0.0977562 0
M  V30 10 C 1.09658 0.284028 0.690028 0
M  V30 11 O 0.821707 1.46366 1.04263 0
M  V30 12 C 2.38832 -0.33629 1.10014 0
M  V30 13 C 3.20608 -0.724679 -0.114477 0
M  V30 14 N 4.44844 -1.32125 0.324812 0
M  V30 15 C 3.50508 0.446944 -1.00579 0
M  V30 16 C 3.1256 0.629746 1.9858 0
M  V30 17 H -3.77494 -2.24813 0.902943 0
M  V30 18 H -3.13893 -2.4952 2.43123 0
M  V30 19 H -2.0034 -0.199163 2.08349 0
M  V30 20 H -1.36295 -1.78085 1.40599 0
M  V30 21 H -2.48201 -1.36715 -0.708436 0
M  V30 22 H -3.61072 0.892412 0.854061 0
M  V30 23 H -4.39681 -0.0511435 -0.447826 0
M  V30 24 H -2.70776 2.43266 -0.540601 0
M  V30 25 H -4.1388 1.96149 -1.47397 0
M  V30 26 H -2.94849 0.805411 -3.13222 0
M  V30 27 H -1.9086 2.17365 -2.70093 0
M  V30 28 H -0.212805 0.667179 -2.43028 0
M  V30 29 H -1.39112 -0.677614 -2.41537 0
M  V30 30 H -1.10165 1.21904 -0.0586981 0
M  V30 31 H 0.421563 -1.4057 -0.369884 0
M  V30 32 H 2.16796 -1.24414 1.67157 0
M  V30 33 H 2.68245 -1.49082 -0.720439 0
M  V30 34 H 4.35205 -1.87005 1.19936 0
M  V30 35 H 5.20156 -0.610516 0.468268 0
M  V30 36 H 2.59853 0.985707 -1.31601 0
M  V30 37 H 3.98597 0.0486319 -1.92138 0
M  V30 38 H 4.24437 1.1271 -0.538694 0
M  V30 39 H 3.78005 1.31933 1.4383 0
M  V30 40 H 3.68883 0.0562702 2.7745 0
M  V30 41 H 2.35315 1.26867 2.49097 0
M  V30 END ATOM
M  V30 BEGIN BOND
M  V30 1 1 1 2
M  V30 2 1 2 3
M  V30 3 1 3 4
M  V30 4 1 4 5
M  V30 5 1 5 6
M  V30 6 1 6 7
M  V30 7 1 7 8
M  V30 8 1 8 9
M  V30 9 1 9 10
M  V30 10 2 10 11
M  V30 11 1 10 12
M  V30 12 1 12 13
M  V30 13 1 13 14
M  V30 14 1 13 15
M  V30 15 1 12 16
M  V30 16 1 8 3
M  V30 17 1 1 17
M  V30 18 1 1 18
M  V30 19 1 2 19
M  V30 20 1 2 20
M  V30 21 1 3 21
M  V30 22 1 4 22
M  V30 23 1 4 23
M  V30 24 1 5 24
M  V30 25 1 5 25
M  V30 26 1 6 26
M  V30 27 1 6 27
M  V30 28 1 7 28
M  V30 29 1 7 29
M  V30 30 1 8 30
M  V30 31 1 9 31
M  V30 32 1 12 32
M  V30 33 1 13 33
M  V30 34 1 14 34
M  V30 35 1 14 35
M  V30 36 1 15 36
M  V30 37 1 15 37
M  V30 38 1 15 38
M  V30 39 1 16 39
M  V30 40 1 16 40
M  V30 41 1 16 41
M  V30 END BOND
M  V30 END CTAB
M  END
