
     RDKit          3D

  0  0  0  0  0  0  0  0  0  0999 V3000
M  V30 BEGIN CTAB
M  V30 COUNTS 35 36 0 0 0
M  V30 BEGIN ATOM
M  V30 1 N -3.93212 -1.70769 -0.0557616 0
M  V30 2 C -3.82217 -0.305789 0.148329 0
M  V30 3 C -2.44091 0.130372 -0.274368 0
M  V30 4 C -2.35467 1.6307 -0.0446299 0
M  V30 5 C -1.44543 1.91405 1.13204 0
M  V30 6 C -0.035192 1.48306 0.687581 0
M  V30 7 N -0.0725537 0.0919158 0.354256 0
M  V30 8 C -1.37689 -0.590567 0.512525 0
M  V30 9 C 1.01098 -0.668405 -0.109456 0
M  V30 10 O 0.70773 -1.93321 -0.334592 0
M  V30 11 C 2.38387 -0.364886 -0.392663 0
M  V30 12 C 2.93417 0.89178 -0.255869 0
M  V30 13 C 4.29391 1.08062 -0.567867 0
M  V30 14 C 5.07485 0.0455005 -1.00211 0
M  V30 15 N 4.5009 -1.14507 -1.11817 0
M  V30 16 C 3.23349 -1.39209 -0.843098 0
M  V30 17 N 2.68354 -2.70492 -0.991813 0
M  V30 18 H -3.12781 -2.17035 -0.484905 0
M  V30 19 H -4.8617 -2.04225 -0.371825 0
M  V30 20 H -4.08499 0.039636 1.16278 0
M  V30 21 H -4.54049 0.203214 -0.55553 0
M  V30 22 H -2.33035 -0.0918884 -1.34843 0
M  V30 23 H -3.33127 2.092 0.16737 0
M  V30 24 H -1.92421 2.12501 -0.935122 0
M  V30 25 H -1.71257 1.30379 1.99543 0
M  V30 26 H -1.45865 3.00036 1.30889 0
M  V30 27 H 0.669072 1.69108 1.53192 0
M  V30 28 H 0.15402 2.07996 -0.221675 0
M  V30 29 H -1.25782 -1.60345 0.102653 0
M  V30 30 H -1.68594 -0.672693 1.56096 0
M  V30 31 H 2.38454 1.75444 0.0759685 0
M  V30 32 H 4.71592 2.06505 -0.458206 0
M  V30 33 H 6.10776 0.177969 -1.24157 0
M  V30 34 H 2.67104 -3.40754 -0.221286 0
M  V30 35 H 2.26995 -2.99971 -1.90442 0
M  V30 END ATOM
M  V30 BEGIN BOND
M  V30 1 1 1 2
M  V30 2 1 2 3
M  V30 3 1 3 4
M  V30 4 1 4 5
M  V30 5 1 5 6
M  V30 6 1 6 7
M  V30 7 1 7 8
M  V30 8 1 7 9
M  V30 9 2 9 10
M  V30 10 1 9 11
M  V30 11 2 11 12
M  V30 12 1 12 13
M  V30 13 2 13 14
M  V30 14 1 14 15
M  V30 15 2 15 16
M  V30 16 1 16 17
M  V30 17 1 8 3
M  V30 18 1 16 11
M  V30 19 1 1 18
M  V30 20 1 1 19
M  V30 21 1 2 20
M  V30 22 1 2 21
M  V30 23 1 3 22
M  V30 24 1 4 23
M  V30 25 1 4 24
M  V30 26 1 5 25
M  V30 27 1 5 26
M  V30 28 1 6 27
M  V30 29 1 6 28
M  V30 30 1 8 29
M  V30 31 1 8 30
M  V30 32 1 12 31
M  V30 33 1 13 32
M  V30 34 1 14 33
M  V30 35 1 17 34
M  V30 36 1 17 35
M  V30 END BOND
M  V30 END CTAB
M  END
