
     RDKit          3D

  0  0  0  0  0  0  0  0  0  0999 V3000
M  V30 BEGIN CTAB
M  V30 COUNTS 53 56 0 0 0
M  V30 BEGIN ATOM
M  V30 1 N 8.22837 0.0858014 0.361365 0
M  V30 2 C 6.89522 0.037881 -0.230023 0
M  V30 3 C 6.15082 1.31652 0.108774 0
M  V30 4 C 5.18201 0.960417 1.21922 0
M  V30 5 N 4.15493 0.0427364 0.639295 0
M  V30 6 C 4.69635 -1.15677 0.110067 0
M  V30 7 C 6.20524 -1.16958 0.311813 0
M  V30 8 C 2.82048 0.452535 0.679543 0
M  V30 9 O 2.63146 1.631 1.23802 0
M  V30 10 C 1.6224 -0.194161 0.215014 0
M  V30 11 C 1.53713 -1.41042 -0.38696 0
M  V30 12 C 0.322978 -1.97187 -0.814582 0
M  V30 13 C -0.843828 -1.29005 -0.631874 0
M  V30 14 C -0.794805 -0.0602708 -0.0278834 0
M  V30 15 C 0.378956 0.460949 0.375014 0
M  V30 16 C -2.08876 0.626485 0.140879 0
M  V30 17 C -2.18277 1.86443 0.730789 0
M  V30 18 C -3.4557 2.42974 0.843172 0
M  V30 19 N -3.55802 3.7207 1.45781 0
M  V30 20 N -4.56369 1.81845 0.404525 0
M  V30 21 C -4.44682 0.591032 -0.177351 0
M  V30 22 N -3.23545 0.0684693 -0.276805 0
M  V30 23 N -5.5893 -0.103124 -0.660722 0
M  V30 24 C -6.97326 0.298953 -0.642181 0
M  V30 25 C -7.77781 -1.00027 -0.655879 0
M  V30 26 C -6.73166 -2.09996 -0.630927 0
M  V30 27 C -5.55454 -1.4061 -1.28952 0
M  V30 28 H 8.89216 0.614204 -0.264597 0
M  V30 29 H 8.53882 -0.907124 0.468261 0
M  V30 30 H 7.02469 -0.0955038 -1.32541 0
M  V30 31 H 6.80593 2.10954 0.485949 0
M  V30 32 H 5.6292 1.65759 -0.790579 0
M  V30 33 H 4.66103 1.85598 1.54457 0
M  V30 34 H 5.67693 0.395485 2.00601 0
M  V30 35 H 4.3225 -2.0318 0.690704 0
M  V30 36 H 4.5387 -1.31281 -0.979265 0
M  V30 37 H 6.46237 -1.34259 1.35194 0
M  V30 38 H 6.61697 -2.05403 -0.257957 0
M  V30 39 H 2.39592 -2.00193 -0.563655 0
M  V30 40 H 0.321633 -2.96087 -1.29546 0
M  V30 41 H -1.77643 -1.73594 -0.967466 0
M  V30 42 H 0.391649 1.43133 0.848229 0
M  V30 43 H -1.32573 2.40537 1.1032 0
M  V30 44 H -4.242 3.92269 2.19373 0
M  V30 45 H -2.89657 4.46768 1.12325 0
M  V30 46 H -7.22597 0.912752 0.244455 0
M  V30 47 H -7.17131 0.853689 -1.58464 0
M  V30 48 H -8.42823 -1.04983 0.249085 0
M  V30 49 H -8.36851 -1.09586 -1.59123 0
M  V30 50 H -7.05739 -2.99044 -1.20363 0
M  V30 51 H -6.44045 -2.33472 0.402996 0
M  V30 52 H -5.77391 -1.31818 -2.38328 0
M  V30 53 H -4.60196 -1.93821 -1.10196 0
M  V30 END ATOM
M  V30 BEGIN BOND
M  V30 1 1 1 2
M  V30 2 1 2 3
M  V30 3 1 3 4
M  V30 4 1 4 5
M  V30 5 1 5 6
M  V30 6 1 6 7
M  V30 7 1 5 8
M  V30 8 2 8 9
M  V30 9 1 8 10
M  V30 10 2 10 11
M  V30 11 1 11 12
M  V30 12 2 12 13
M  V30 13 1 13 14
M  V30 14 2 14 15
M  V30 15 1 14 16
M  V30 16 2 16 17
M  V30 17 1 17 18
M  V30 18 1 18 19
M  V30 19 2 18 20
M  V30 20 1 20 21
M  V30 21 2 21 22
M  V30 22 1 21 23
M  V30 23 1 23 24
M  V30 24 1 24 25
M  V30 25 1 25 26
M  V30 26 1 26 27
M  V30 27 1 7 2
M  V30 28 1 15 10
M  V30 29 1 22 16
M  V30 30 1 27 23
M  V30 31 1 1 28
M  V30 32 1 1 29
M  V30 33 1 2 30
M  V30 34 1 3 31
M  V30 35 1 3 32
M  V30 36 1 4 33
M  V30 37 1 4 34
M  V30 38 1 6 35
M  V30 39 1 6 36
M  V30 40 1 7 37
M  V30 41 1 7 38
M  V30 42 1 11 39
M  V30 43 1 12 40
M  V30 44 1 13 41
M  V30 45 1 15 42
M  V30 46 1 17 43
M  V30 47 1 19 44
M  V30 48 1 19 45
M  V30 49 1 24 46
M  V30 50 1 24 47
M  V30 51 1 25 48
M  V30 52 1 25 49
M  V30 53 1 26 50
M  V30 54 1 26 51
M  V30 55 1 27 52
M  V30 56 1 27 53
M  V30 END BOND
M  V30 END CTAB
M  END
