
     RDKit          3D

  0  0  0  0  0  0  0  0  0  0999 V3000
M  V30 BEGIN CTAB
M  V30 COUNTS 33 35 0 0 0
M  V30 BEGIN ATOM
M  V30 1 N 7.23405 -1.43948 0.188375 0
M  V30 2 C 6.20391 -0.922698 0.0926305 0
M  V30 3 C 4.89363 -0.292902 -0.0208371 0
M  V30 4 C 3.754 -1.01175 0.21347 0
M  V30 5 C 2.50341 -0.377872 0.096564 0
M  V30 6 C 2.57159 0.934401 -0.251135 0
M  V30 7 N 3.72486 1.62541 -0.478662 0
M  V30 8 C 4.9319 1.03972 -0.372694 0
M  V30 9 N 6.14324 1.74541 -0.606399 0
M  V30 10 S 0.911769 1.39598 -0.306505 0
M  V30 11 C 0.219219 -0.0934341 0.112579 0
M  V30 12 C 1.28677 -0.919168 0.287229 0
M  V30 13 N 1.031 -2.30064 0.660572 0
M  V30 14 C -1.23739 -0.370671 0.243265 0
M  V30 15 O -1.59679 -1.53323 0.563118 0
M  V30 16 N -2.17328 0.62621 0.0183485 0
M  V30 17 C -3.55964 0.462509 0.107565 0
M  V30 18 C -4.32405 1.63566 0.279978 0
M  V30 19 C -5.68199 1.57796 0.355478 0
M  V30 20 C -6.35155 0.382977 0.267035 0
M  V30 21 C -5.62887 -0.755696 0.100521 0
M  V30 22 C -4.25229 -0.713758 0.0218503 0
M  V30 23 Br -6.56136 -2.42224 -0.0229163 0
M  V30 24 H 3.86295 -2.04815 0.481598 0
M  V30 25 H 6.31564 2.64865 -0.0845012 0
M  V30 26 H 6.87897 1.41206 -1.27525 0
M  V30 27 H 1.50345 -2.65306 1.51669 0
M  V30 28 H 0.424231 -2.93329 0.138663 0
M  V30 29 H -1.7907 1.58362 -0.247413 0
M  V30 30 H -3.78967 2.58078 0.350796 0
M  V30 31 H -6.25245 2.47667 0.486627 0
M  V30 32 H -7.44193 0.315649 0.325711 0
M  V30 33 H -3.7526 -1.65562 -0.12543 0
M  V30 END ATOM
M  V30 BEGIN BOND
M  V30 1 3 1 2
M  V30 2 1 2 3
M  V30 3 2 3 4
M  V30 4 1 4 5
M  V30 5 2 5 6
M  V30 6 1 6 7
M  V30 7 2 7 8
M  V30 8 1 8 9
M  V30 9 1 6 10
M  V30 10 1 10 11
M  V30 11 2 11 12
M  V30 12 1 12 13
M  V30 13 1 11 14
M  V30 14 2 14 15
M  V30 15 1 14 16
M  V30 16 1 16 17
M  V30 17 2 17 18
M  V30 18 1 18 19
M  V30 19 2 19 20
M  V30 20 1 20 21
M  V30 21 2 21 22
M  V30 22 1 21 23
M  V30 23 1 8 3
M  V30 24 1 22 17
M  V30 25 1 12 5
M  V30 26 1 4 24
M  V30 27 1 9 25
M  V30 28 1 9 26
M  V30 29 1 13 27
M  V30 30 1 13 28
M  V30 31 1 16 29
M  V30 32 1 18 30
M  V30 33 1 19 31
M  V30 34 1 20 32
M  V30 35 1 22 33
M  V30 END BOND
M  V30 END CTAB
M  END
