
     RDKit          3D

  0  0  0  0  0  0  0  0  0  0999 V3000
M  V30 BEGIN CTAB
M  V30 COUNTS 34 37 0 0 0
M  V30 BEGIN ATOM
M  V30 1 N 8.04067 0.0503033 -0.514103 0
M  V30 2 C 6.62409 0.0581575 -0.419361 0
M  V30 3 C 5.87574 -1.10355 -0.620271 0
M  V30 4 C 4.4909 -1.05982 -0.519889 0
M  V30 5 C 3.82598 0.10598 -0.225264 0
M  V30 6 C 4.53522 1.24441 -0.0267961 0
M  V30 7 C 5.93305 1.20842 -0.126366 0
M  V30 8 C 2.34298 0.0265675 -0.144925 0
M  V30 9 N 1.49184 0.971427 0.11435 0
M  V30 10 C 0.19092 0.705581 0.142604 0
M  V30 11 C -0.207832 -0.560677 -0.103726 0
M  V30 12 S 1.33741 -1.33169 -0.371186 0
M  V30 13 N -1.5074 -0.826471 -0.0755472 0
M  V30 14 C -2.3577 0.112136 0.182327 0
M  V30 15 S -1.35591 1.47372 0.409551 0
M  V30 16 C -3.84526 0.037589 0.264005 0
M  V30 17 C -4.58143 1.13938 0.549491 0
M  V30 18 C -5.95559 1.03219 0.616675 0
M  V30 19 C -6.61527 -0.167772 0.401744 0
M  V30 20 N -8.03647 -0.218518 0.484183 0
M  V30 21 C -5.86038 -1.27442 0.113984 0
M  V30 22 C -4.46632 -1.16618 0.045716 0
M  V30 23 H 8.56139 0.66961 -1.16616 0
M  V30 24 H 8.59241 -0.594331 0.085459 0
M  V30 25 H 6.40365 -2.01102 -0.850295 0
M  V30 26 H 3.95748 -1.97636 -0.682144 0
M  V30 27 H 4.02006 2.15101 0.202195 0
M  V30 28 H 6.5039 2.11997 0.0323498 0
M  V30 29 H -4.06161 2.07701 0.717152 0
M  V30 30 H -6.54698 1.88666 0.839427 0
M  V30 31 H -8.60175 0.601989 0.719122 0
M  V30 32 H -8.518 -1.12217 0.29897 0
M  V30 33 H -6.33912 -2.23192 -0.0606485 0
M  V30 34 H -3.87067 -2.02723 -0.178728 0
M  V30 END ATOM
M  V30 BEGIN BOND
M  V30 1 1 1 2
M  V30 2 2 2 3
M  V30 3 1 3 4
M  V30 4 2 4 5
M  V30 5 1 5 6
M  V30 6 2 6 7
M  V30 7 1 5 8
M  V30 8 2 8 9
M  V30 9 1 9 10
M  V30 10 2 10 11
M  V30 11 1 11 12
M  V30 12 1 11 13
M  V30 13 2 13 14
M  V30 14 1 14 15
M  V30 15 1 14 16
M  V30 16 2 16 17
M  V30 17 1 17 18
M  V30 18 2 18 19
M  V30 19 1 19 20
M  V30 20 1 19 21
M  V30 21 2 21 22
M  V30 22 1 7 2
M  V30 23 1 12 8
M  V30 24 1 22 16
M  V30 25 1 15 10
M  V30 26 1 1 23
M  V30 27 1 1 24
M  V30 28 1 3 25
M  V30 29 1 4 26
M  V30 30 1 6 27
M  V30 31 1 7 28
M  V30 32 1 17 29
M  V30 33 1 18 30
M  V30 34 1 20 31
M  V30 35 1 20 32
M  V30 36 1 21 33
M  V30 37 1 22 34
M  V30 END BOND
M  V30 END CTAB
M  END
