
     RDKit          3D

  0  0  0  0  0  0  0  0  0  0999 V3000
M  V30 BEGIN CTAB
M  V30 COUNTS 39 41 0 0 0
M  V30 BEGIN ATOM
M  V30 1 N -6.7247 -0.47599 -2.13152 0
M  V30 2 C -6.51335 0.00880203 -0.78136 0
M  V30 3 N -7.50231 0.329412 -0.110923 0
M  V30 4 O -7.70186 0.796766 1.11118 0
M  V30 5 C -5.09507 0.0592137 -0.36562 0
M  V30 6 C -4.10016 -0.335224 -1.23456 0
M  V30 7 C -2.79013 -0.291876 -0.859138 0
M  V30 8 C -2.46405 0.15556 0.413449 0
M  V30 9 N -3.44235 0.532674 1.23888 0
M  V30 10 C -4.75021 0.497077 0.884812 0
M  V30 11 C -1.06866 0.205838 0.824192 0
M  V30 12 C -0.642633 0.640392 2.08194 0
M  V30 13 C 0.72659 0.546748 2.09878 0
M  V30 14 C 1.10161 0.0634201 0.867108 0
M  V30 15 O 0.000632462 -0.12021 0.154168 0
M  V30 16 C 2.46925 -0.186975 0.460184 0
M  V30 17 N 2.70454 -0.668492 -0.793589 0
M  V30 18 C 3.95745 -0.908679 -1.19554 0
M  V30 19 C 5.06754 -0.677726 -0.353537 0
M  V30 20 C 4.81117 -0.195009 0.899333 0
M  V30 21 C 3.49569 0.0590485 1.32642 0
M  V30 22 C 6.39901 -0.945918 -0.815803 0
M  V30 23 N 6.48623 -1.46 -2.1871 0
M  V30 24 N 7.51403 -0.818568 -0.252358 0
M  V30 25 O 7.75498 -0.378482 0.983692 0
M  V30 26 H -6.56519 -1.46784 -2.31498 0
M  V30 27 H -7.02394 0.180002 -2.85424 0
M  V30 28 H -8.62538 0.756377 1.52954 0
M  V30 29 H -4.38074 -0.677062 -2.21306 0
M  V30 30 H -2.02776 -0.607426 -1.56088 0
M  V30 31 H -5.47058 0.825709 1.63018 0
M  V30 32 H -1.30383 0.980216 2.86961 0
M  V30 33 H 1.33 0.81812 2.9507 0
M  V30 34 H 4.12151 -1.29123 -2.19618 0
M  V30 35 H 5.59174 0.0104541 1.60765 0
M  V30 36 H 3.34726 0.444329 2.3374 0
M  V30 37 H 6.90005 -2.38861 -2.34003 0
M  V30 38 H 6.13543 -0.885475 -2.95194 0
M  V30 39 H 8.27819 0.450794 1.24314 0
M  V30 END ATOM
M  V30 BEGIN BOND
M  V30 1 1 1 2
M  V30 2 2 2 3 CFG=2
M  V30 3 1 3 4
M  V30 4 1 2 5
M  V30 5 2 5 6
M  V30 6 1 6 7
M  V30 7 2 7 8
M  V30 8 1 8 9
M  V30 9 2 9 10
M  V30 10 1 8 11
M  V30 11 2 11 12
M  V30 12 1 12 13
M  V30 13 2 13 14
M  V30 14 1 14 15
M  V30 15 1 14 16
M  V30 16 2 16 17
M  V30 17 1 17 18
M  V30 18 2 18 19
M  V30 19 1 19 20
M  V30 20 2 20 21
M  V30 21 1 19 22
M  V30 22 1 22 23
M  V30 23 2 22 24 CFG=2
M  V30 24 1 24 25
M  V30 25 1 10 5
M  V30 26 1 15 11
M  V30 27 1 21 16
M  V30 28 1 1 26
M  V30 29 1 1 27
M  V30 30 1 4 28
M  V30 31 1 6 29
M  V30 32 1 7 30
M  V30 33 1 10 31
M  V30 34 1 12 32
M  V30 35 1 13 33
M  V30 36 1 18 34
M  V30 37 1 20 35
M  V30 38 1 21 36
M  V30 39 1 23 37
M  V30 40 1 23 38
M  V30 41 1 25 39
M  V30 END BOND
M  V30 END CTAB
M  END
