
     RDKit          3D

  0  0  0  0  0  0  0  0  0  0999 V3000
M  V30 BEGIN CTAB
M  V30 COUNTS 25 25 0 0 0
M  V30 BEGIN ATOM
M  V30 1 C -1.45372 1.15366 0.689998 0
M  V30 2 C -0.721438 -0.172372 0.664375 0
M  V30 3 C 0.56052 -0.104567 -0.0316534 0
M  V30 4 C 0.859152 -0.925567 -1.08505 0
M  V30 5 C 2.11992 -0.842886 -1.69768 0
M  V30 6 C 3.05452 0.0571994 -1.24412 0
M  V30 7 N 2.70648 0.834781 -0.208825 0
M  V30 8 C 1.54235 0.80253 0.403975 0
M  V30 9 N 1.24026 1.64947 1.49023 0
M  V30 10 C -1.63461 -1.17513 0.0546711 0
M  V30 11 N -2.01576 -0.859717 -1.30789 0
M  V30 12 O -0.510177 -0.561784 2.01695 0
M  V30 13 H -1.33664 1.67272 1.68577 0
M  V30 14 H -1.16216 1.76674 -0.156074 0
M  V30 15 H -2.54326 0.959897 0.62146 0
M  V30 16 H 0.227883 -1.68086 -1.51984 0
M  V30 17 H 2.39614 -1.46775 -2.52771 0
M  V30 18 H 4.03228 0.128687 -1.71126 0
M  V30 19 H 0.861925 2.60623 1.32053 0
M  V30 20 H 1.37285 1.37808 2.49064 0
M  V30 21 H -2.60866 -1.2429 0.626324 0
M  V30 22 H -1.16568 -2.19005 0.00206141 0
M  V30 23 H -2.86771 -0.255141 -1.35712 0
M  V30 24 H -2.24222 -1.71787 -1.85278 0
M  V30 25 H -0.712245 0.186596 2.63302 0
M  V30 END ATOM
M  V30 BEGIN BOND
M  V30 1 1 1 2
M  V30 2 1 2 3
M  V30 3 2 3 4
M  V30 4 1 4 5
M  V30 5 2 5 6
M  V30 6 1 6 7
M  V30 7 2 7 8
M  V30 8 1 8 9
M  V30 9 1 2 10
M  V30 10 1 10 11
M  V30 11 1 2 12
M  V30 12 1 8 3
M  V30 13 1 1 13
M  V30 14 1 1 14
M  V30 15 1 1 15
M  V30 16 1 4 16
M  V30 17 1 5 17
M  V30 18 1 6 18
M  V30 19 1 9 19
M  V30 20 1 9 20
M  V30 21 1 10 21
M  V30 22 1 10 22
M  V30 23 1 11 23
M  V30 24 1 11 24
M  V30 25 1 12 25
M  V30 END BOND
M  V30 END CTAB
M  END
