
     RDKit          3D

  0  0  0  0  0  0  0  0  0  0999 V3000
M  V30 BEGIN CTAB
M  V30 COUNTS 36 38 0 0 0
M  V30 BEGIN ATOM
M  V30 1 N -1.30704 -2.0664 -0.665392 0
M  V30 2 C -2.19583 -0.936066 -0.588614 0
M  V30 3 N -3.33367 -0.974894 -1.29011 0
M  V30 4 C -4.28665 -0.0248413 -1.20902 0
M  V30 5 C -4.06059 1.05101 -0.344952 0
M  V30 6 C -2.91323 1.13311 0.391333 0
M  V30 7 C -1.92958 0.124172 0.284025 0
M  V30 8 C -0.646944 0.335132 0.908085 0 CFG=1
M  V30 9 C -0.185565 -0.488881 2.04936 0
M  V30 10 N 0.969861 -1.3059 1.76553 0
M  V30 11 C 1.69128 -1.26845 0.579756 0
M  V30 12 C 1.45696 -0.20353 -0.277629 0
M  V30 13 N 0.483843 0.790486 0.118631 0
M  V30 14 S 0.780624 2.44311 -0.268926 0
M  V30 15 O -0.237438 3.32537 0.485645 0
M  V30 16 O 0.8484 2.79851 -1.69026 0
M  V30 17 N 2.27154 2.98973 0.472611 0
M  V30 18 C 2.07997 -0.0472801 -1.50124 0
M  V30 19 C 2.99142 -1.04924 -1.86016 0
M  V30 20 C 3.24371 -2.12711 -1.02746 0
M  V30 21 C 2.61631 -2.2666 0.186195 0
M  V30 22 H -0.815155 -2.24604 -1.5262 0
M  V30 23 H -1.15318 -2.70811 0.16085 0
M  V30 24 H -5.20905 -0.0545397 -1.77663 0
M  V30 25 H -4.80639 1.85681 -0.252746 0
M  V30 26 H -2.79717 1.99622 1.03756 0
M  V30 27 H -0.846493 1.37224 1.53077 0
M  V30 28 H -0.959667 -1.22385 2.41339 0
M  V30 29 H 0.15918 0.14621 2.92522 0
M  V30 30 H 1.27986 -1.97552 2.52574 0
M  V30 31 H 2.45142 3.98309 0.338075 0
M  V30 32 H 2.30793 2.74101 1.46451 0
M  V30 33 H 1.85672 0.798119 -2.08987 0
M  V30 34 H 3.49686 -0.964674 -2.8156 0
M  V30 35 H 3.96421 -2.89634 -1.33481 0
M  V30 36 H 2.73355 -3.05603 0.882304 0
M  V30 END ATOM
M  V30 BEGIN BOND
M  V30 1 1 1 2
M  V30 2 2 2 3
M  V30 3 1 3 4
M  V30 4 2 4 5
M  V30 5 1 5 6
M  V30 6 2 6 7
M  V30 7 1 7 8
M  V30 8 1 8 9
M  V30 9 1 9 10
M  V30 10 1 10 11
M  V30 11 2 11 12
M  V30 12 1 12 13
M  V30 13 1 13 14
M  V30 14 2 14 15
M  V30 15 2 14 16
M  V30 16 1 14 17
M  V30 17 1 12 18
M  V30 18 2 18 19
M  V30 19 1 19 20
M  V30 20 2 20 21
M  V30 21 1 7 2
M  V30 22 1 13 8
M  V30 23 1 21 11
M  V30 24 1 1 22
M  V30 25 1 1 23
M  V30 26 1 4 24
M  V30 27 1 5 25
M  V30 28 1 6 26
M  V30 29 1 8 27 CFG=1
M  V30 30 1 9 28
M  V30 31 1 9 29
M  V30 32 1 10 30
M  V30 33 1 17 31
M  V30 34 1 17 32
M  V30 35 1 18 33
M  V30 36 1 19 34
M  V30 37 1 20 35
M  V30 38 1 21 36
M  V30 END BOND
M  V30 END CTAB
M  END
