
     RDKit          3D

  0  0  0  0  0  0  0  0  0  0999 V3000
M  V30 BEGIN CTAB
M  V30 COUNTS 33 34 0 0 0
M  V30 BEGIN ATOM
M  V30 1 C -3.24097 -2.56772 -0.833162 0
M  V30 2 O -2.30491 -1.52939 -0.890741 0
M  V30 3 C -2.59514 -0.208582 -0.455709 0
M  V30 4 C -3.78676 0.147241 0.0436161 0
M  V30 5 C -3.95046 1.44997 0.430629 0
M  V30 6 S -2.41374 2.13177 0.076376 0
M  V30 7 C -1.63511 0.756341 -0.540144 0
M  V30 8 C -0.270272 0.673997 -1.02945 0
M  V30 9 O 0.450472 1.7049 -1.01505 0
M  V30 10 O 0.297742 -0.475815 -1.51634 0
M  V30 11 C 1.58241 -0.667483 -2.00489 0
M  V30 12 C 2.67372 -0.386839 -1.04023 0
M  V30 13 N 3.30682 0.797628 -1.02234 0
M  V30 14 C 4.30391 1.082 -0.155794 0
M  V30 15 N 4.92798 2.3617 -0.197628 0
M  V30 16 N 4.68476 0.149474 0.727272 0
M  V30 17 C 4.07925 -1.05101 0.746031 0
M  V30 18 N 3.08595 -1.30271 -0.133975 0
M  V30 19 N 4.48205 -2.04362 1.68338 0
M  V30 20 C -5.17766 2.10098 1.01711 0
M  V30 21 H -2.68971 -3.5259 -0.888314 0
M  V30 22 H -3.79379 -2.53364 0.12743 0
M  V30 23 H -3.95955 -2.44963 -1.6749 0
M  V30 24 H -4.64474 -0.550251 0.160938 0
M  V30 25 H 1.64254 -1.74781 -2.33301 0
M  V30 26 H 1.77062 -0.101569 -2.96573 0
M  V30 27 H 4.34983 3.23423 -0.28083 0
M  V30 28 H 5.956 2.42863 -0.145593 0
M  V30 29 H 5.15746 -1.83306 2.42449 0
M  V30 30 H 4.085 -3.00434 1.61845 0
M  V30 31 H -5.10923 2.21115 2.09812 0
M  V30 32 H -5.18531 3.14032 0.591188 0
M  V30 33 H -6.07916 1.60906 0.639919 0
M  V30 END ATOM
M  V30 BEGIN BOND
M  V30 1 1 1 2
M  V30 2 1 2 3
M  V30 3 1 3 4
M  V30 4 2 4 5
M  V30 5 1 5 6
M  V30 6 1 6 7
M  V30 7 1 7 8
M  V30 8 2 8 9
M  V30 9 1 8 10
M  V30 10 1 10 11
M  V30 11 1 11 12
M  V30 12 2 12 13
M  V30 13 1 13 14
M  V30 14 1 14 15
M  V30 15 2 14 16
M  V30 16 1 16 17
M  V30 17 2 17 18
M  V30 18 1 17 19
M  V30 19 1 5 20
M  V30 20 2 7 3
M  V30 21 1 18 12
M  V30 22 1 1 21
M  V30 23 1 1 22
M  V30 24 1 1 23
M  V30 25 1 4 24
M  V30 26 1 11 25
M  V30 27 1 11 26
M  V30 28 1 15 27
M  V30 29 1 15 28
M  V30 30 1 19 29
M  V30 31 1 19 30
M  V30 32 1 20 31
M  V30 33 1 20 32
M  V30 34 1 20 33
M  V30 END BOND
M  V30 END CTAB
M  END
