
     RDKit          3D

  0  0  0  0  0  0  0  0  0  0999 V3000
M  V30 BEGIN CTAB
M  V30 COUNTS 30 31 0 0 0
M  V30 BEGIN ATOM
M  V30 1 N -1.62913 1.04917 -2.37536 0
M  V30 2 C -1.97085 0.914721 -0.988177 0
M  V30 3 N -3.08615 1.48306 -0.557444 0
M  V30 4 C -3.51845 1.35481 0.711166 0
M  V30 5 C -2.80529 0.623687 1.63276 0
M  V30 6 C -1.63491 0.0408969 1.14589 0
M  V30 7 C -1.19449 0.158814 -0.121392 0
M  V30 8 C 0.0839964 -0.409943 -0.585617 0 CFG=2
M  V30 9 C -0.116775 -1.94221 -0.337577 0
M  V30 10 C 1.29145 -2.4094 -0.118314 0
M  V30 11 C 1.72057 -1.32626 0.866141 0
M  V30 12 N 1.16771 -0.104614 0.32103 0
M  V30 13 S 2.4164 0.889558 -0.171195 0
M  V30 14 O 2.41662 1.26059 -1.62944 0
M  V30 15 O 3.77205 0.212557 0.0499739 0
M  V30 16 N 2.48253 2.32294 0.829433 0
M  V30 17 H -1.69711 1.95286 -2.82794 0
M  V30 18 H -1.3164 0.228824 -2.95654 0
M  V30 19 H -4.44258 1.78482 1.03222 0
M  V30 20 H -3.15251 0.553109 2.63956 0
M  V30 21 H -1.05671 -0.532915 1.89715 0
M  V30 22 H 0.228595 -0.202673 -1.62886 0
M  V30 23 H -0.751681 -2.07653 0.520336 0
M  V30 24 H -0.521159 -2.37572 -1.29091 0
M  V30 25 H 1.89238 -2.33527 -1.02669 0
M  V30 26 H 1.24719 -3.4179 0.31645 0
M  V30 27 H 1.21801 -1.52553 1.81986 0
M  V30 28 H 2.82055 -1.36895 0.892134 0
M  V30 29 H 2.98843 3.07682 0.2915 0
M  V30 30 H 3.14771 2.12068 1.64984 0
M  V30 END ATOM
M  V30 BEGIN BOND
M  V30 1 1 1 2
M  V30 2 2 2 3
M  V30 3 1 3 4
M  V30 4 2 4 5
M  V30 5 1 5 6
M  V30 6 2 6 7
M  V30 7 1 7 8
M  V30 8 1 8 9
M  V30 9 1 9 10
M  V30 10 1 10 11
M  V30 11 1 11 12
M  V30 12 1 12 13
M  V30 13 2 13 14
M  V30 14 2 13 15
M  V30 15 1 13 16
M  V30 16 1 7 2
M  V30 17 1 12 8
M  V30 18 1 1 17
M  V30 19 1 1 18
M  V30 20 1 4 19
M  V30 21 1 5 20
M  V30 22 1 6 21
M  V30 23 1 8 22 CFG=3
M  V30 24 1 9 23
M  V30 25 1 9 24
M  V30 26 1 10 25
M  V30 27 1 10 26
M  V30 28 1 11 27
M  V30 29 1 11 28
M  V30 30 1 16 29
M  V30 31 1 16 30
M  V30 END BOND
M  V30 END CTAB
M  END
