
     RDKit          3D

  0  0  0  0  0  0  0  0  0  0999 V3000
M  V30 BEGIN CTAB
M  V30 COUNTS 44 46 0 0 0
M  V30 BEGIN ATOM
M  V30 1 C 7.20722 -0.325421 2.37276 0
M  V30 2 C 7.0346 0.155524 0.935229 0
M  V30 3 O 5.65856 0.136937 0.588644 0
M  V30 4 C 5.23039 0.54567 -0.650223 0
M  V30 5 O 6.11659 0.931038 -1.47901 0
M  V30 6 C 3.8147 0.557087 -1.05127 0
M  V30 7 C 2.87297 0.125508 -0.146972 0
M  V30 8 C 1.51296 0.134958 -0.509057 0
M  V30 9 C 1.26064 0.589833 -1.7653 0
M  V30 10 N 2.22627 1.00955 -2.63374 0
M  V30 11 C 3.53317 1.01071 -2.31881 0
M  V30 12 N 4.51993 1.43185 -3.23032 0
M  V30 13 S -0.452135 0.473688 -1.86863 0
M  V30 14 C -0.769043 -0.145462 -0.324318 0
M  V30 15 C 0.47078 -0.249342 0.244986 0
M  V30 16 N 0.545098 -0.743618 1.60014 0
M  V30 17 C -2.08403 -0.498952 0.195853 0
M  V30 18 O -2.24656 -1.04953 1.31489 0
M  V30 19 N -3.26757 -0.230887 -0.545414 0
M  V30 20 C -4.53691 -0.580219 -0.0358095 0
M  V30 21 C -4.86999 -1.82609 0.442286 0
M  V30 22 C -6.11896 -2.07853 0.966189 0
M  V30 23 C -7.06325 -1.07166 1.02011 0
M  V30 24 C -6.75997 0.196638 0.549148 0
M  V30 25 C -5.50367 0.418575 0.0278385 0
M  V30 26 C -7.80958 1.24251 0.669291 0
M  V30 27 F -7.33763 2.45931 0.183261 0
M  V30 28 F -8.03657 1.40169 2.02636 0
M  V30 29 F -8.9504 0.826365 -0.00875224 0
M  V30 30 H 6.72276 0.436476 3.03444 0
M  V30 31 H 6.69302 -1.28239 2.50763 0
M  V30 32 H 8.27512 -0.378837 2.62355 0
M  V30 33 H 7.5164 1.11457 0.745242 0
M  V30 34 H 7.49792 -0.651504 0.311888 0
M  V30 35 H 3.20243 -0.203216 0.835614 0
M  V30 36 H 4.78298 2.45607 -3.23273 0
M  V30 37 H 5.01039 0.824412 -3.90237 0
M  V30 38 H 0.886742 -1.69387 1.75593 0
M  V30 39 H 0.256564 -0.144286 2.38283 0
M  V30 40 H -3.23791 0.221336 -1.48463 0
M  V30 41 H -4.12655 -2.59333 0.391974 0
M  V30 42 H -6.36137 -3.06084 1.33486 0
M  V30 43 H -8.05819 -1.28607 1.45054 0
M  V30 44 H -5.2579 1.39376 -0.342417 0
M  V30 END ATOM
M  V30 BEGIN BOND
M  V30 1 1 1 2
M  V30 2 1 2 3
M  V30 3 1 3 4
M  V30 4 2 4 5
M  V30 5 1 4 6
M  V30 6 2 6 7
M  V30 7 1 7 8
M  V30 8 2 8 9
M  V30 9 1 9 10
M  V30 10 2 10 11
M  V30 11 1 11 12
M  V30 12 1 9 13
M  V30 13 1 13 14
M  V30 14 2 14 15
M  V30 15 1 15 16
M  V30 16 1 14 17
M  V30 17 2 17 18
M  V30 18 1 17 19
M  V30 19 1 19 20
M  V30 20 2 20 21
M  V30 21 1 21 22
M  V30 22 2 22 23
M  V30 23 1 23 24
M  V30 24 2 24 25
M  V30 25 1 24 26
M  V30 26 1 26 27
M  V30 27 1 26 28
M  V30 28 1 26 29
M  V30 29 1 11 6
M  V30 30 1 25 20
M  V30 31 1 15 8
M  V30 32 1 1 30
M  V30 33 1 1 31
M  V30 34 1 1 32
M  V30 35 1 2 33
M  V30 36 1 2 34
M  V30 37 1 7 35
M  V30 38 1 12 36
M  V30 39 1 12 37
M  V30 40 1 16 38
M  V30 41 1 16 39
M  V30 42 1 19 40
M  V30 43 1 21 41
M  V30 44 1 22 42
M  V30 45 1 23 43
M  V30 46 1 25 44
M  V30 END BOND
M  V30 END CTAB
M  END
