
     RDKit          3D

  0  0  0  0  0  0  0  0  0  0999 V3000
M  V30 BEGIN CTAB
M  V30 COUNTS 24 23 0 0 0
M  V30 BEGIN ATOM
M  V30 1 C -0.527268 -0.957061 -1.77297 0
M  V30 2 N -0.3288 -0.656951 -0.345767 0
M  V30 3 C -1.43635 -0.1138 0.322066 0
M  V30 4 N -1.89697 1.01603 -0.0303044 0
M  V30 5 N -2.98437 1.65606 0.550141 0
M  V30 6 N -2.02709 -0.828504 1.3744 0
M  V30 7 C 0.952002 -0.938834 0.236078 0
M  V30 8 C 2.06256 -0.0613585 -0.267918 0
M  V30 9 C 3.32494 -0.436259 0.392638 0
M  V30 10 N 4.31977 -0.720862 0.932235 0
M  V30 11 C 1.8378 1.40594 -0.0377157 0
M  V30 12 H 0.402198 -0.76519 -2.3272 0
M  V30 13 H -1.30233 -0.281331 -2.20452 0
M  V30 14 H -0.917789 -1.98672 -1.88547 0
M  V30 15 H -3.15445 2.6553 0.31628 0
M  V30 16 H -3.6213 1.13022 1.21689 0
M  V30 17 H -2.49317 -1.73168 1.15003 0
M  V30 18 H -2.02517 -0.509755 2.35437 0
M  V30 19 H 1.22266 -1.99244 -0.0285304 0
M  V30 20 H 0.897795 -0.935135 1.35013 0
M  V30 21 H 2.16312 -0.249484 -1.36004 0
M  V30 22 H 2.80257 1.90565 -0.352918 0
M  V30 23 H 1.74167 1.61937 1.05379 0
M  V30 24 H 0.987963 1.77679 -0.635692 0
M  V30 END ATOM
M  V30 BEGIN BOND
M  V30 1 1 1 2
M  V30 2 1 2 3
M  V30 3 2 3 4 CFG=2
M  V30 4 1 4 5
M  V30 5 1 3 6
M  V30 6 1 2 7
M  V30 7 1 7 8
M  V30 8 1 8 9
M  V30 9 3 9 10
M  V30 10 1 8 11
M  V30 11 1 1 12
M  V30 12 1 1 13
M  V30 13 1 1 14
M  V30 14 1 5 15
M  V30 15 1 5 16
M  V30 16 1 6 17
M  V30 17 1 6 18
M  V30 18 1 7 19
M  V30 19 1 7 20
M  V30 20 1 8 21
M  V30 21 1 11 22
M  V30 22 1 11 23
M  V30 23 1 11 24
M  V30 END BOND
M  V30 END CTAB
M  END
