
     RDKit          3D

  0  0  0  0  0  0  0  0  0  0999 V3000
M  V30 BEGIN CTAB
M  V30 COUNTS 47 49 0 0 0
M  V30 BEGIN ATOM
M  V30 1 C -6.95126 -0.232999 0.108057 0 CFG=2
M  V30 2 C -7.76366 1.02629 0.317721 0
M  V30 3 N -6.69506 -0.932631 1.35002 0
M  V30 4 C -5.65962 0.12557 -0.526769 0
M  V30 5 O -5.66592 0.744529 -1.62546 0
M  V30 6 O -4.42648 -0.183477 0.0233902 0
M  V30 7 P -2.99017 0.261301 -0.764271 0
M  V30 8 O -2.43098 1.77191 -0.244639 0
M  V30 9 O -3.26419 0.373517 -2.24679 0
M  V30 10 O -1.7818 -0.933046 -0.58068 0
M  V30 11 C -0.576271 -0.289878 -0.718737 0
M  V30 12 C 0.621271 -1.17837 -0.588513 0 CFG=1
M  V30 13 O 1.75728 -0.356567 -0.756024 0
M  V30 14 C 2.78203 -1.253 -0.456818 0 CFG=2
M  V30 15 C 2.34043 -2.03971 0.746733 0 CFG=2
M  V30 16 O 2.46914 -3.39809 0.446321 0
M  V30 17 C 0.834389 -1.74064 0.76976 0 CFG=2
M  V30 18 O 0.134633 -2.93087 1.00089 0
M  V30 19 N 4.00436 -0.519182 -0.219168 0
M  V30 20 C 5.18275 -1.0069 0.197472 0
M  V30 21 N 6.08072 -0.0105106 0.300304 0
M  V30 22 C 5.47485 1.13951 -0.0550202 0
M  V30 23 C 4.18293 0.804854 -0.37539 0
M  V30 24 N 3.33178 1.76774 -0.772148 0
M  V30 25 C 3.72355 3.04053 -0.858801 0
M  V30 26 N 4.97948 3.36109 -0.546612 0
M  V30 27 C 5.90337 2.46384 -0.139154 0
M  V30 28 N 7.22717 2.81603 0.187676 0
M  V30 29 H -7.5219 -0.867135 -0.612379 0
M  V30 30 H -7.30677 1.55466 1.18706 0
M  V30 31 H -8.83687 0.82782 0.439576 0
M  V30 32 H -7.56745 1.6892 -0.569533 0
M  V30 33 H -5.81018 -0.544612 1.74586 0
M  V30 34 H -6.47988 -1.92663 1.09581 0
M  V30 35 H -2.86407 2.07111 0.587707 0
M  V30 36 H -0.493081 0.598914 -0.0644387 0
M  V30 37 H -0.551679 0.122911 -1.76979 0
M  V30 38 H 0.683461 -1.94647 -1.35558 0
M  V30 39 H 2.93545 -1.88381 -1.35704 0
M  V30 40 H 2.8317 -1.7485 1.67722 0
M  V30 41 H 3.4009 -3.7087 0.500875 0
M  V30 42 H 0.628791 -1.03179 1.581 0
M  V30 43 H 0.283028 -3.53093 0.224477 0
M  V30 44 H 5.40368 -2.06125 0.426684 0
M  V30 45 H 2.99806 3.77582 -1.18359 0
M  V30 46 H 7.42893 3.76889 0.540954 0
M  V30 47 H 8.01315 2.14965 0.0862533 0
M  V30 END ATOM
M  V30 BEGIN BOND
M  V30 1 1 1 2
M  V30 2 1 1 3
M  V30 3 1 1 4
M  V30 4 2 4 5
M  V30 5 1 4 6
M  V30 6 1 6 7
M  V30 7 1 7 8
M  V30 8 2 7 9
M  V30 9 1 7 10
M  V30 10 1 10 11
M  V30 11 1 11 12
M  V30 12 1 12 13
M  V30 13 1 13 14
M  V30 14 1 14 15
M  V30 15 1 15 16
M  V30 16 1 15 17
M  V30 17 1 17 18
M  V30 18 1 14 19
M  V30 19 1 19 20
M  V30 20 2 20 21
M  V30 21 1 21 22
M  V30 22 2 22 23
M  V30 23 1 23 24
M  V30 24 2 24 25
M  V30 25 1 25 26
M  V30 26 2 26 27
M  V30 27 1 27 28
M  V30 28 1 17 12
M  V30 29 1 23 19
M  V30 30 1 27 22
M  V30 31 1 1 29 CFG=3
M  V30 32 1 2 30
M  V30 33 1 2 31
M  V30 34 1 2 32
M  V30 35 1 3 33
M  V30 36 1 3 34
M  V30 37 1 8 35
M  V30 38 1 11 36
M  V30 39 1 11 37
M  V30 40 1 12 38 CFG=3
M  V30 41 1 14 39 CFG=3
M  V30 42 1 15 40 CFG=1
M  V30 43 1 16 41
M  V30 44 1 17 42 CFG=1
M  V30 45 1 18 43
M  V30 46 1 20 44
M  V30 47 1 25 45
M  V30 48 1 28 46
M  V30 49 1 28 47
M  V30 END BOND
M  V30 END CTAB
M  END
