
     RDKit          3D

  0  0  0  0  0  0  0  0  0  0999 V3000
M  V30 BEGIN CTAB
M  V30 COUNTS 21 21 0 0 0
M  V30 BEGIN ATOM
M  V30 1 N 2.82048 1.52587 -0.623009 0
M  V30 2 N 2.78233 0.664719 0.480065 0
M  V30 3 C 1.97246 -0.309523 0.599951 0
M  V30 4 N 1.03127 -0.590658 -0.406369 0
M  V30 5 C -0.35284 -0.293998 -0.279548 0
M  V30 6 C -0.88252 0.286498 0.825308 0
M  V30 7 C -2.24492 0.570856 0.932795 0
M  V30 8 C -3.09525 0.260173 -0.104406 0
M  V30 9 C -2.54993 -0.338881 -1.24509 0
M  V30 10 C -1.19878 -0.606834 -1.31989 0
M  V30 11 I -0.483762 -1.509 -3.07964 0
M  V30 12 Cl -4.81294 0.605139 0.00052768 0
M  V30 13 N 2.02137 -1.11171 1.75173 0
M  V30 14 H 3.07476 1.21239 -1.58894 0
M  V30 15 H 2.59035 2.55496 -0.535353 0
M  V30 16 H 1.40325 -1.04002 -1.27678 0
M  V30 17 H -0.232848 0.543726 1.66264 0
M  V30 18 H -2.67648 1.0322 1.80671 0
M  V30 19 H -3.25119 -0.56857 -2.04051 0
M  V30 20 H 2.26219 -2.13768 1.71906 0
M  V30 21 H 1.82299 -0.749661 2.72076 0
M  V30 END ATOM
M  V30 BEGIN BOND
M  V30 1 1 1 2
M  V30 2 2 2 3 CFG=2
M  V30 3 1 3 4
M  V30 4 1 4 5
M  V30 5 2 5 6
M  V30 6 1 6 7
M  V30 7 2 7 8
M  V30 8 1 8 9
M  V30 9 2 9 10
M  V30 10 1 10 11
M  V30 11 1 8 12
M  V30 12 1 3 13
M  V30 13 1 10 5
M  V30 14 1 1 14
M  V30 15 1 1 15
M  V30 16 1 4 16
M  V30 17 1 6 17
M  V30 18 1 7 18
M  V30 19 1 9 19
M  V30 20 1 13 20
M  V30 21 1 13 21
M  V30 END BOND
M  V30 END CTAB
M  END
