
     RDKit          3D

  0  0  0  0  0  0  0  0  0  0999 V3000
M  V30 BEGIN CTAB
M  V30 COUNTS 49 50 0 0 0
M  V30 BEGIN ATOM
M  V30 1 C -4.56482 -1.53089 -0.701111 0
M  V30 2 C -4.69847 -0.311861 -1.58302 0
M  V30 3 N -4.38157 0.860621 -0.902603 0
M  V30 4 S -2.83349 1.50021 -0.979586 0
M  V30 5 O -2.85423 2.83607 -0.238596 0
M  V30 6 O -2.48801 1.85214 -2.41253 0
M  V30 7 C -1.5486 0.532666 -0.368648 0
M  V30 8 C -1.20986 0.622127 0.955438 0
M  V30 9 C -0.145364 -0.138764 1.47445 0
M  V30 10 C 0.595399 -0.994088 0.69598 0
M  V30 11 C 0.201526 -1.0457 -0.658108 0
M  V30 12 C -0.83043 -0.312128 -1.17479 0
M  V30 13 N 1.66291 -1.79808 1.12486 0
M  V30 14 C 1.92525 -2.15881 2.43713 0
M  V30 15 O 1.21897 -1.80995 3.39366 0
M  V30 16 C 3.11423 -3.0173 2.77576 0
M  V30 17 S 4.40265 -1.82642 3.30937 0
M  V30 18 C 4.84355 -0.810879 1.91169 0
M  V30 19 N 5.82372 -1.14022 1.05736 0
M  V30 20 C 6.17713 -0.397537 -0.000968608 0
M  V30 21 N 7.212 -0.748794 -0.899571 0
M  V30 22 C 5.49602 0.783175 -0.236981 0
M  V30 23 C 4.48319 1.1492 0.622903 0
M  V30 24 N 4.18452 0.350226 1.667 0
M  V30 25 N 3.73583 2.34502 0.448848 0
M  V30 26 C -5.36254 1.84614 -0.672561 0
M  V30 27 C -5.91272 2.53354 -1.87774 0
M  V30 28 H -4.91688 -2.46756 -1.221 0
M  V30 29 H -5.22023 -1.44541 0.200005 0
M  V30 30 H -3.53702 -1.68188 -0.337973 0
M  V30 31 H -5.70614 -0.357278 -2.04433 0
M  V30 32 H -3.98109 -0.459643 -2.41993 0
M  V30 33 H -1.7282 1.26223 1.65271 0
M  V30 34 H 0.092648 -0.0247524 2.52031 0
M  V30 35 H 0.768227 -1.71125 -1.28336 0
M  V30 36 H -1.03781 -0.439064 -2.23435 0
M  V30 37 H 2.32479 -2.15632 0.378724 0
M  V30 38 H 2.80114 -3.67905 3.60132 0
M  V30 39 H 3.44331 -3.57723 1.8944 0
M  V30 40 H 7.07963 -1.53463 -1.56627 0
M  V30 41 H 8.11332 -0.239637 -0.91645 0
M  V30 42 H 5.75141 1.39657 -1.0686 0
M  V30 43 H 4.11285 3.15367 -0.080295 0
M  V30 44 H 2.78331 2.43176 0.855746 0
M  V30 45 H -4.88546 2.63609 -0.0220935 0
M  V30 46 H -6.19448 1.46255 -0.00858604 0
M  V30 47 H -6.05353 3.63772 -1.67391 0
M  V30 48 H -5.30267 2.46401 -2.7764 0
M  V30 49 H -6.95394 2.15942 -2.07362 0
M  V30 END ATOM
M  V30 BEGIN BOND
M  V30 1 1 1 2
M  V30 2 1 2 3
M  V30 3 1 3 4
M  V30 4 2 4 5
M  V30 5 2 4 6
M  V30 6 1 4 7
M  V30 7 2 7 8
M  V30 8 1 8 9
M  V30 9 2 9 10
M  V30 10 1 10 11
M  V30 11 2 11 12
M  V30 12 1 10 13
M  V30 13 1 13 14
M  V30 14 2 14 15
M  V30 15 1 14 16
M  V30 16 1 16 17
M  V30 17 1 17 18
M  V30 18 2 18 19
M  V30 19 1 19 20
M  V30 20 1 20 21
M  V30 21 2 20 22
M  V30 22 1 22 23
M  V30 23 2 23 24
M  V30 24 1 23 25
M  V30 25 1 3 26
M  V30 26 1 26 27
M  V30 27 1 12 7
M  V30 28 1 24 18
M  V30 29 1 1 28
M  V30 30 1 1 29
M  V30 31 1 1 30
M  V30 32 1 2 31
M  V30 33 1 2 32
M  V30 34 1 8 33
M  V30 35 1 9 34
M  V30 36 1 11 35
M  V30 37 1 12 36
M  V30 38 1 13 37
M  V30 39 1 16 38
M  V30 40 1 16 39
M  V30 41 1 21 40
M  V30 42 1 21 41
M  V30 43 1 22 42
M  V30 44 1 25 43
M  V30 45 1 25 44
M  V30 46 1 26 45
M  V30 47 1 26 46
M  V30 48 1 27 47
M  V30 49 1 27 48
M  V30 50 1 27 49
M  V30 END BOND
M  V30 END CTAB
M  END
