
     RDKit          3D

  0  0  0  0  0  0  0  0  0  0999 V3000
M  V30 BEGIN CTAB
M  V30 COUNTS 23 23 0 0 0
M  V30 BEGIN ATOM
M  V30 1 N 1.57974 3.31187 -0.694117 0
M  V30 2 C 0.973833 2.31684 -0.52905 0
M  V30 3 C 0.238046 1.10359 -0.311322 0
M  V30 4 C 0.87601 -0.0794323 0.0452054 0
M  V30 5 C 2.33436 -0.0363978 0.190689 0
M  V30 6 C 2.89915 -1.17702 0.975515 0
M  V30 7 N 0.16842 -1.20331 0.243323 0
M  V30 8 C -1.18391 -1.22596 0.104438 0
M  V30 9 C -1.81245 -0.0558348 -0.246636 0
M  V30 10 C -1.13686 1.1295 -0.463118 0
M  V30 11 N -1.80597 2.3271 -0.8266 0
M  V30 12 C -3.23962 -0.0854133 -0.383796 0
M  V30 13 N -4.3991 -0.1095 -0.511404 0
M  V30 14 N -1.87236 -2.44469 0.315818 0
M  V30 15 H 2.76726 -0.114474 -0.845952 0
M  V30 16 H 2.67809 0.904726 0.650987 0
M  V30 17 H 3.98333 -0.940453 1.14787 0
M  V30 18 H 2.88787 -2.07647 0.338792 0
M  V30 19 H 2.43201 -1.31783 1.96597 0
M  V30 20 H -2.78452 2.53511 -0.548916 0
M  V30 21 H -1.31229 3.04429 -1.39718 0
M  V30 22 H -1.65259 -3.06695 1.11656 0
M  V30 23 H -2.61846 -2.73928 -0.337073 0
M  V30 END ATOM
M  V30 BEGIN BOND
M  V30 1 3 1 2
M  V30 2 1 2 3
M  V30 3 2 3 4
M  V30 4 1 4 5
M  V30 5 1 5 6
M  V30 6 1 4 7
M  V30 7 2 7 8
M  V30 8 1 8 9
M  V30 9 2 9 10
M  V30 10 1 10 11
M  V30 11 1 9 12
M  V30 12 3 12 13
M  V30 13 1 8 14
M  V30 14 1 10 3
M  V30 15 1 5 15
M  V30 16 1 5 16
M  V30 17 1 6 17
M  V30 18 1 6 18
M  V30 19 1 6 19
M  V30 20 1 11 20
M  V30 21 1 11 21
M  V30 22 1 14 22
M  V30 23 1 14 23
M  V30 END BOND
M  V30 END CTAB
M  END
