
     RDKit          3D

  0  0  0  0  0  0  0  0  0  0999 V3000
M  V30 BEGIN CTAB
M  V30 COUNTS 46 49 0 0 0
M  V30 BEGIN ATOM
M  V30 1 N -4.89063 0.273389 0.433564 0
M  V30 2 C -3.48766 0.194118 0.357627 0
M  V30 3 C -2.71945 1.31596 0.559316 0
M  V30 4 C -1.34773 1.23886 0.487716 0
M  V30 5 C -0.677347 0.0395231 0.212173 0
M  V30 6 C -1.45069 -1.07544 0.0116819 0
M  V30 7 C -0.880842 -2.31603 -0.270175 0
M  V30 8 C -1.70297 -3.41095 -0.465034 0
M  V30 9 C -3.09259 -3.31974 -0.389584 0
M  V30 10 C -3.64476 -2.09468 -0.111594 0
M  V30 11 C -2.83296 -0.984742 0.086491 0
M  V30 12 C 0.769415 0.0145564 0.167645 0
M  V30 13 C 1.45731 -0.00242503 1.38659 0
M  V30 14 C 2.82799 0.0159235 1.40394 0
M  V30 15 C 3.53428 0.0509158 0.224126 0
M  V30 16 N 4.93806 0.0791533 0.24661 0
M  V30 17 C 2.8753 0.0672151 -1.00308 0
M  V30 18 C 3.59541 0.100635 -2.17076 0
M  V30 19 C 2.93007 0.114824 -3.37167 0
M  V30 20 C 1.54447 0.097359 -3.41558 0
M  V30 21 C 0.83016 0.064536 -2.24239 0
M  V30 22 C 1.48273 0.0488403 -1.00647 0
M  V30 23 S 3.72688 0.0133405 2.9041 0
M  V30 24 O 4.65985 1.41732 2.98116 0
M  V30 25 O 4.59104 -1.18653 3.075 0
M  V30 26 O 2.73413 0.0851573 4.04369 0
M  V30 27 S -3.46805 2.84609 0.906872 0
M  V30 28 O -4.42825 3.27134 -0.38485 0
M  V30 29 O -4.23528 2.77473 2.20103 0
M  V30 30 O -2.39324 3.89587 1.08317 0
M  V30 31 H -5.39832 0.651014 1.28718 0
M  V30 32 H -5.53669 -0.0361664 -0.348741 0
M  V30 33 H -0.771135 2.12328 0.648211 0
M  V30 34 H 0.182055 -2.35791 -0.324667 0
M  V30 35 H -1.2807 -4.35805 -0.678029 0
M  V30 36 H -3.74112 -4.16924 -0.539457 0
M  V30 37 H -4.71753 -2.01087 -0.049069 0
M  V30 38 H 0.916902 -0.0290948 2.34425 0
M  V30 39 H 5.47134 -0.651182 0.775727 0
M  V30 40 H 5.53358 0.79014 -0.234661 0
M  V30 41 H 4.66623 0.117825 -2.12649 0
M  V30 42 H 3.49286 0.137562 -4.29 0
M  V30 43 H 1.00779 0.108158 -4.37399 0
M  V30 44 H -0.260785 0.0484751 -2.23801 0
M  V30 45 H 4.32527 2.08632 2.35642 0
M  V30 46 H -5.13439 3.92063 -0.149989 0
M  V30 END ATOM
M  V30 BEGIN BOND
M  V30 1 1 1 2
M  V30 2 2 2 3
M  V30 3 1 3 4
M  V30 4 2 4 5
M  V30 5 1 5 6
M  V30 6 2 6 7
M  V30 7 1 7 8
M  V30 8 2 8 9
M  V30 9 1 9 10
M  V30 10 2 10 11
M  V30 11 1 5 12
M  V30 12 2 12 13
M  V30 13 1 13 14
M  V30 14 2 14 15
M  V30 15 1 15 16
M  V30 16 1 15 17
M  V30 17 2 17 18
M  V30 18 1 18 19
M  V30 19 2 19 20
M  V30 20 1 20 21
M  V30 21 2 21 22
M  V30 22 1 14 23
M  V30 23 1 23 24
M  V30 24 2 23 25
M  V30 25 2 23 26
M  V30 26 1 3 27
M  V30 27 1 27 28
M  V30 28 2 27 29
M  V30 29 2 27 30
M  V30 30 1 11 2
M  V30 31 1 22 12
M  V30 32 1 11 6
M  V30 33 1 22 17
M  V30 34 1 1 31
M  V30 35 1 1 32
M  V30 36 1 4 33
M  V30 37 1 7 34
M  V30 38 1 8 35
M  V30 39 1 9 36
M  V30 40 1 10 37
M  V30 41 1 13 38
M  V30 42 1 16 39
M  V30 43 1 16 40
M  V30 44 1 18 41
M  V30 45 1 19 42
M  V30 46 1 20 43
M  V30 47 1 21 44
M  V30 48 1 24 45
M  V30 49 1 28 46
M  V30 END BOND
M  V30 END CTAB
M  END
