
     RDKit          3D

  0  0  0  0  0  0  0  0  0  0999 V3000
M  V30 BEGIN CTAB
M  V30 COUNTS 45 47 0 0 0
M  V30 BEGIN ATOM
M  V30 1 C -1.88731 -3.85646 0.707591 0
M  V30 2 O -2.30994 -2.53837 0.414823 0
M  V30 3 C -1.32464 -1.58898 0.0911561 0
M  V30 4 C 0.00829429 -1.92918 0.0596867 0
M  V30 5 C 1.00436 -1.0309 -0.252138 0
M  V30 6 C 2.3898 -1.43352 -0.272614 0
M  V30 7 N 3.28494 -0.557386 -0.570122 0
M  V30 8 N 4.64012 -0.892362 -0.604873 0
M  V30 9 C 5.51812 -0.08091 -0.104378 0
M  V30 10 C 6.95004 -0.390764 -0.118678 0
M  V30 11 N 7.56316 -1.47626 -0.609341 0
M  V30 12 O 8.84095 -1.31536 -0.399677 0
M  V30 13 N 9.08756 -0.187224 0.198685 0
M  V30 14 C 7.91756 0.435776 0.398443 0
M  V30 15 N 7.76815 1.69407 1.02337 0
M  V30 16 N 5.02742 1.12579 0.460164 0
M  V30 17 C 0.633229 0.263455 -0.543473 0
M  V30 18 C -0.708899 0.627899 -0.517262 0
M  V30 19 C -1.69065 -0.283581 -0.203388 0
M  V30 20 O -3.03572 0.0163651 -0.160785 0
M  V30 21 C -3.53508 1.31034 -0.440798 0
M  V30 22 C -4.99356 1.39288 -0.333879 0
M  V30 23 C -5.65217 1.71689 0.845658 0
M  V30 24 C -7.02797 1.7897 0.926632 0
M  V30 25 C -7.80087 1.53642 -0.188528 0
M  V30 26 C -7.13963 1.21465 -1.35883 0
M  V30 27 C -5.76571 1.13985 -1.44795 0
M  V30 28 F -9.16663 1.60203 -0.13446 0
M  V30 29 H -2.70924 -4.52255 0.964766 0
M  V30 30 H -1.14101 -3.75561 1.54855 0
M  V30 31 H -1.2877 -4.24269 -0.149893 0
M  V30 32 H 0.272669 -2.97017 0.296978 0
M  V30 33 H 2.73304 -2.43143 -0.052972 0
M  V30 34 H 7.88853 1.8397 2.06118 0
M  V30 35 H 7.52604 2.54045 0.450722 0
M  V30 36 H 5.0704 2.05348 -0.0130147 0
M  V30 37 H 4.59723 1.0503 1.41985 0
M  V30 38 H 1.36821 1.03439 -0.80061 0
M  V30 39 H -0.976031 1.63989 -0.74706 0
M  V30 40 H -3.24998 1.5626 -1.47551 0
M  V30 41 H -3.08785 2.0448 0.268506 0
M  V30 42 H -5.02219 1.91034 1.70328 0
M  V30 43 H -7.5219 2.04486 1.85925 0
M  V30 44 H -7.7567 1.01845 -2.22542 0
M  V30 45 H -5.29842 0.878324 -2.40965 0
M  V30 END ATOM
M  V30 BEGIN BOND
M  V30 1 1 1 2
M  V30 2 1 2 3
M  V30 3 2 3 4
M  V30 4 1 4 5
M  V30 5 1 5 6
M  V30 6 2 6 7
M  V30 7 1 7 8
M  V30 8 2 8 9
M  V30 9 1 9 10
M  V30 10 2 10 11
M  V30 11 1 11 12
M  V30 12 1 12 13
M  V30 13 2 13 14
M  V30 14 1 14 15
M  V30 15 1 9 16
M  V30 16 2 5 17
M  V30 17 1 17 18
M  V30 18 2 18 19
M  V30 19 1 19 20
M  V30 20 1 20 21
M  V30 21 1 21 22
M  V30 22 2 22 23
M  V30 23 1 23 24
M  V30 24 2 24 25
M  V30 25 1 25 26
M  V30 26 2 26 27
M  V30 27 1 25 28
M  V30 28 1 19 3
M  V30 29 1 27 22
M  V30 30 1 14 10
M  V30 31 1 1 29
M  V30 32 1 1 30
M  V30 33 1 1 31
M  V30 34 1 4 32
M  V30 35 1 6 33
M  V30 36 1 15 34
M  V30 37 1 15 35
M  V30 38 1 16 36
M  V30 39 1 16 37
M  V30 40 1 17 38
M  V30 41 1 18 39
M  V30 42 1 21 40
M  V30 43 1 21 41
M  V30 44 1 23 42
M  V30 45 1 24 43
M  V30 46 1 26 44
M  V30 47 1 27 45
M  V30 END BOND
M  V30 END CTAB
M  END
