
     RDKit          3D

  0  0  0  0  0  0  0  0  0  0999 V3000
M  V30 BEGIN CTAB
M  V30 COUNTS 50 54 0 0 0
M  V30 BEGIN ATOM
M  V30 1 N 4.46059 1.69483 1.10635 0
M  V30 2 C 5.48626 0.929203 0.504114 0
M  V30 3 C 5.42186 -0.428925 0.349607 0
M  V30 4 S 4.04174 -1.43759 0.881107 0
M  V30 5 C 2.81591 -1.6144 -0.397829 0
M  V30 6 C 3.13448 -2.22037 -1.61323 0
M  V30 7 C 2.22222 -2.38372 -2.62889 0
M  V30 8 C 0.953634 -1.91049 -2.38167 0
M  V30 9 C 0.570703 -1.3045 -1.20578 0
M  V30 10 C 1.53567 -1.16171 -0.200432 0
M  V30 11 C 1.13261 -0.545602 1.06098 0
M  V30 12 O 1.93786 -0.391166 2.00979 0
M  V30 13 C -0.250142 -0.101971 1.21983 0
M  V30 14 C -1.20723 -0.23365 0.238398 0
M  V30 15 C -0.805303 -0.849122 -1.01442 0
M  V30 16 O -1.67438 -0.976032 -1.92195 0
M  V30 17 C -2.50984 0.18764 0.394749 0
M  V30 18 S -3.71987 -0.0129206 -0.930813 0
M  V30 19 C -5.29509 0.614135 -0.449167 0
M  V30 20 C -6.21258 -0.222917 0.176197 0
M  V30 21 N -5.86692 -1.57812 0.419729 0
M  V30 22 C -7.43819 0.302405 0.540197 0
M  V30 23 C -7.79929 1.61092 0.316527 0
M  V30 24 C -6.87801 2.42568 -0.304036 0
M  V30 25 C -5.64573 1.93507 -0.680792 0
M  V30 26 C -2.84328 0.765478 1.60271 0
M  V30 27 C -1.90835 0.917607 2.61992 0
M  V30 28 C -0.630378 0.487013 2.42355 0
M  V30 29 C 6.49898 -1.08151 -0.261543 0
M  V30 30 C 7.58946 -0.377401 -0.693668 0
M  V30 31 C 7.63725 0.989669 -0.52991 0
M  V30 32 C 6.59659 1.64903 0.0645086 0
M  V30 33 H 3.7978 2.30433 0.56184 0
M  V30 34 H 4.2991 1.69928 2.14587 0
M  V30 35 H 4.16059 -2.57506 -1.74586 0
M  V30 36 H 2.48807 -2.86163 -3.57811 0
M  V30 37 H 0.2011 -2.01964 -3.16206 0
M  V30 38 H -4.85768 -1.81956 0.521914 0
M  V30 39 H -6.55626 -2.35435 0.504162 0
M  V30 40 H -8.16607 -0.354754 1.03435 0
M  V30 41 H -8.77942 1.95949 0.628136 0
M  V30 42 H -7.15753 3.47147 -0.486616 0
M  V30 43 H -4.91711 2.58771 -1.17395 0
M  V30 44 H -3.84469 1.11247 1.78034 0
M  V30 45 H -2.17968 1.37302 3.56615 0
M  V30 46 H 0.0993557 0.595045 3.19091 0
M  V30 47 H 6.48679 -2.15124 -0.401894 0
M  V30 48 H 8.44588 -0.877712 -1.17705 0
M  V30 49 H 8.52593 1.53094 -0.886521 0
M  V30 50 H 6.60258 2.70366 0.205798 0
M  V30 END ATOM
M  V30 BEGIN BOND
M  V30 1 1 1 2
M  V30 2 2 2 3
M  V30 3 1 3 4
M  V30 4 1 4 5
M  V30 5 2 5 6
M  V30 6 1 6 7
M  V30 7 2 7 8
M  V30 8 1 8 9
M  V30 9 2 9 10
M  V30 10 1 10 11
M  V30 11 2 11 12
M  V30 12 1 11 13
M  V30 13 2 13 14
M  V30 14 1 14 15
M  V30 15 2 15 16
M  V30 16 1 14 17
M  V30 17 1 17 18
M  V30 18 1 18 19
M  V30 19 2 19 20
M  V30 20 1 20 21
M  V30 21 1 20 22
M  V30 22 2 22 23
M  V30 23 1 23 24
M  V30 24 2 24 25
M  V30 25 2 17 26
M  V30 26 1 26 27
M  V30 27 2 27 28
M  V30 28 1 3 29
M  V30 29 2 29 30
M  V30 30 1 30 31
M  V30 31 2 31 32
M  V30 32 1 32 2
M  V30 33 1 10 5
M  V30 34 1 28 13
M  V30 35 1 15 9
M  V30 36 1 25 19
M  V30 37 1 1 33
M  V30 38 1 1 34
M  V30 39 1 6 35
M  V30 40 1 7 36
M  V30 41 1 8 37
M  V30 42 1 21 38
M  V30 43 1 21 39
M  V30 44 1 22 40
M  V30 45 1 23 41
M  V30 46 1 24 42
M  V30 47 1 25 43
M  V30 48 1 26 44
M  V30 49 1 27 45
M  V30 50 1 28 46
M  V30 51 1 29 47
M  V30 52 1 30 48
M  V30 53 1 31 49
M  V30 54 1 32 50
M  V30 END BOND
M  V30 END CTAB
M  END
