
     RDKit          3D

  0  0  0  0  0  0  0  0  0  0999 V3000
M  V30 BEGIN CTAB
M  V30 COUNTS 54 56 0 0 0
M  V30 BEGIN ATOM
M  V30 1 N -7.45467 1.14283 0.8326 0
M  V30 2 C -6.67107 0.318434 -0.0571391 0
M  V30 3 C -5.29314 0.859332 -0.169829 0
M  V30 4 C -4.8731 -0.184903 0.954932 0
M  V30 5 C -6.08147 -0.927087 0.579723 0
M  V30 6 C -3.54902 -0.647587 0.422626 0
M  V30 7 N -3.58807 -1.58706 -0.518073 0
M  V30 8 C -2.48278 -1.87284 -1.24229 0
M  V30 9 N -2.45779 -2.80986 -2.31473 0
M  V30 10 N -1.39312 -1.19536 -0.986161 0
M  V30 11 C -1.26071 -0.239868 -0.057659 0
M  V30 12 C -2.41914 0.0399922 0.688975 0
M  V30 13 N -0.0465562 0.459958 0.0470906 0
M  V30 14 C 1.05199 -0.0711007 0.695863 0
M  V30 15 C 2.41513 0.432739 0.399568 0
M  V30 16 C 3.20753 1.04468 1.36975 0
M  V30 17 C 2.57024 1.76444 2.52377 0
M  V30 18 N 4.45492 0.982295 0.978518 0
M  V30 19 N 4.53309 0.375628 -0.188281 0
M  V30 20 C 3.30008 0.0411509 -0.576031 0
M  V30 21 C 2.97151 -0.529353 -1.88178 0
M  V30 22 C 5.83107 -0.0466732 -0.78588 0
M  V30 23 C 5.79496 -1.57499 -0.547877 0
M  V30 24 C 6.95343 0.437702 0.132491 0
M  V30 25 C -0.0604588 1.83428 -0.500529 0
M  V30 26 H -8.01033 0.624087 1.51343 0
M  V30 27 H -7.98389 1.83304 0.292986 0
M  V30 28 H -7.19518 0.148373 -1.0318 0
M  V30 29 H -5.06623 1.87601 0.123186 0
M  V30 30 H -4.79904 0.557142 -1.13932 0
M  V30 31 H -4.92538 0.296715 1.91847 0
M  V30 32 H -6.7547 -1.31834 1.39766 0
M  V30 33 H -5.92243 -1.77542 -0.137897 0
M  V30 34 H -3.25123 -3.41974 -2.53055 0
M  V30 35 H -1.61108 -2.87039 -2.92175 0
M  V30 36 H -2.35129 0.769307 1.46976 0
M  V30 37 H 0.878414 -0.389452 1.73385 0
M  V30 38 H 1.07306 -1.20678 0.198193 0
M  V30 39 H 1.92064 2.59894 2.08508 0
M  V30 40 H 3.31035 2.28973 3.11236 0
M  V30 41 H 1.97225 1.08279 3.13077 0
M  V30 42 H 3.83776 -0.956671 -2.43445 0
M  V30 43 H 2.07192 -1.14754 -1.86567 0
M  V30 44 H 2.67972 0.382326 -2.53266 0
M  V30 45 H 5.88568 0.259031 -1.79253 0
M  V30 46 H 4.77185 -1.97498 -0.615939 0
M  V30 47 H 6.56516 -2.12355 -1.05076 0
M  V30 48 H 6.01934 -1.67952 0.568332 0
M  V30 49 H 7.76646 0.823433 -0.492176 0
M  V30 50 H 7.3887 -0.408472 0.740108 0
M  V30 51 H 6.57113 1.1429 0.898472 0
M  V30 52 H -0.689233 1.88807 -1.39333 0
M  V30 53 H -0.582793 2.46185 0.296575 0
M  V30 54 H 0.977509 2.19033 -0.610856 0
M  V30 END ATOM
M  V30 BEGIN BOND
M  V30 1 1 1 2
M  V30 2 1 2 3
M  V30 3 1 3 4
M  V30 4 1 4 5
M  V30 5 1 4 6
M  V30 6 2 6 7
M  V30 7 1 7 8
M  V30 8 1 8 9
M  V30 9 2 8 10
M  V30 10 1 10 11
M  V30 11 2 11 12
M  V30 12 1 11 13
M  V30 13 1 13 14
M  V30 14 1 14 15
M  V30 15 1 15 16
M  V30 16 1 16 17
M  V30 17 2 16 18
M  V30 18 1 18 19
M  V30 19 1 19 20
M  V30 20 1 20 21
M  V30 21 1 19 22
M  V30 22 1 22 23
M  V30 23 1 22 24
M  V30 24 1 13 25
M  V30 25 1 5 2
M  V30 26 1 12 6
M  V30 27 2 20 15
M  V30 28 1 1 26
M  V30 29 1 1 27
M  V30 30 1 2 28
M  V30 31 1 3 29
M  V30 32 1 3 30
M  V30 33 1 4 31
M  V30 34 1 5 32
M  V30 35 1 5 33
M  V30 36 1 9 34
M  V30 37 1 9 35
M  V30 38 1 12 36
M  V30 39 1 14 37
M  V30 40 1 14 38
M  V30 41 1 17 39
M  V30 42 1 17 40
M  V30 43 1 17 41
M  V30 44 1 21 42
M  V30 45 1 21 43
M  V30 46 1 21 44
M  V30 47 1 22 45
M  V30 48 1 23 46
M  V30 49 1 23 47
M  V30 50 1 23 48
M  V30 51 1 24 49
M  V30 52 1 24 50
M  V30 53 1 24 51
M  V30 54 1 25 52
M  V30 55 1 25 53
M  V30 56 1 25 54
M  V30 END BOND
M  V30 END CTAB
M  END
