
     RDKit          3D

  0  0  0  0  0  0  0  0  0  0999 V3000
M  V30 BEGIN CTAB
M  V30 COUNTS 38 39 0 0 0
M  V30 BEGIN ATOM
M  V30 1 O -2.42422 -0.645309 -1.81061 0
M  V30 2 C -2.78834 -0.177395 -0.694525 0
M  V30 3 C -4.1956 -0.00474829 -0.42324 0
M  V30 4 C -4.68316 0.495416 0.758802 0
M  V30 5 C -6.04263 0.637686 0.960256 0
M  V30 6 C -6.95565 0.285788 -0.0100504 0
M  V30 7 N -6.45961 -0.206205 -1.17097 0
M  V30 8 C -5.14609 -0.352075 -1.38639 0
M  V30 9 N -4.64952 -0.873461 -2.61975 0
M  V30 10 N -1.80781 0.159664 0.246649 0
M  V30 11 C -0.387077 -0.0171117 -0.0333589 0
M  V30 12 C 0.449404 0.422773 1.14609 0
M  V30 13 C 1.90241 0.253364 0.887799 0
M  V30 14 C 2.64407 1.26948 0.320901 0
M  V30 15 C 3.99427 1.14762 0.0667124 0
M  V30 16 C 4.67292 -0.0134811 0.372853 0
M  V30 17 C 3.93229 -1.02949 0.939482 0
M  V30 18 C 2.58241 -0.906735 1.19324 0
M  V30 19 S 6.39105 -0.190974 0.058179 0
M  V30 20 O 7.02146 -1.14753 1.04652 0
M  V30 21 O 7.1158 1.11464 0.20469 0
M  V30 22 N 6.68649 -0.830679 -1.5139 0
M  V30 23 H -4.03112 0.785632 1.54787 0
M  V30 24 H -6.43709 1.02994 1.88594 0
M  V30 25 H -8.02911 0.39852 0.150009 0
M  V30 26 H -4.50434 -0.229063 -3.41663 0
M  V30 27 H -4.44787 -1.90215 -2.67332 0
M  V30 28 H -2.05823 0.54988 1.18328 0
M  V30 29 H -0.244907 -1.12578 -0.159333 0
M  V30 30 H -0.0866767 0.44731 -0.968652 0
M  V30 31 H 0.264637 1.51378 1.28889 0
M  V30 32 H 0.121101 -0.0852285 2.06562 0
M  V30 33 H 2.14492 2.20673 0.0628919 0
M  V30 34 H 4.57445 1.96039 -0.383808 0
M  V30 35 H 4.47391 -1.94915 1.18106 0
M  V30 36 H 2.00793 -1.71946 1.64248 0
M  V30 37 H 6.74324 -0.0303895 -2.19829 0
M  V30 38 H 7.65627 -1.24219 -1.50081 0
M  V30 END ATOM
M  V30 BEGIN BOND
M  V30 1 2 1 2
M  V30 2 1 2 3
M  V30 3 2 3 4
M  V30 4 1 4 5
M  V30 5 2 5 6
M  V30 6 1 6 7
M  V30 7 2 7 8
M  V30 8 1 8 9
M  V30 9 1 2 10
M  V30 10 1 10 11
M  V30 11 1 11 12
M  V30 12 1 12 13
M  V30 13 2 13 14
M  V30 14 1 14 15
M  V30 15 2 15 16
M  V30 16 1 16 17
M  V30 17 2 17 18
M  V30 18 1 16 19
M  V30 19 2 19 20
M  V30 20 2 19 21
M  V30 21 1 19 22
M  V30 22 1 8 3
M  V30 23 1 18 13
M  V30 24 1 4 23
M  V30 25 1 5 24
M  V30 26 1 6 25
M  V30 27 1 9 26
M  V30 28 1 9 27
M  V30 29 1 10 28
M  V30 30 1 11 29
M  V30 31 1 11 30
M  V30 32 1 12 31
M  V30 33 1 12 32
M  V30 34 1 14 33
M  V30 35 1 15 34
M  V30 36 1 17 35
M  V30 37 1 18 36
M  V30 38 1 22 37
M  V30 39 1 22 38
M  V30 END BOND
M  V30 END CTAB
M  END
