
     RDKit          3D

  0  0  0  0  0  0  0  0  0  0999 V3000
M  V30 BEGIN CTAB
M  V30 COUNTS 58 62 0 0 0
M  V30 BEGIN ATOM
M  V30 1 N -2.09791 2.38348 2.09869 0
M  V30 2 C -2.0379 1.40082 1.44666 0
M  V30 3 C -2.01509 0.226928 0.650845 0
M  V30 4 C -3.23972 -0.0811804 0.0240995 0
M  V30 5 N -3.25447 -1.18755 -0.738875 0
M  V30 6 C -2.21443 -1.97578 -0.92593 0
M  V30 7 C -1.0104 -1.71848 -0.34101 0
M  V30 8 C -0.915556 -0.576223 0.473814 0
M  V30 9 C 0.277805 -0.259091 1.09608 0
M  V30 10 C 0.659668 0.83082 1.97543 0
M  V30 11 C 2.10031 0.564753 2.27515 0
M  V30 12 O 2.85508 1.28464 3.0185 0
M  V30 13 N 2.46776 -0.606359 1.59881 0
M  V30 14 C 1.33552 -1.11476 0.868488 0
M  V30 15 N 1.21734 -2.20781 0.079411 0
M  V30 16 C 0.0693054 -2.5379 -0.53624 0
M  V30 17 N -0.0555909 -3.67933 -1.36117 0
M  V30 18 C 3.76913 -1.25315 1.59747 0
M  V30 19 C 4.64631 -0.757062 0.506918 0
M  V30 20 C 5.45536 0.329919 0.768561 0
M  V30 21 C 6.31254 0.865727 -0.193068 0
M  V30 22 C 6.35814 0.297503 -1.4447 0
M  V30 23 C 5.55471 -0.788865 -1.71857 0
M  V30 24 C 4.69742 -1.32094 -0.749144 0
M  V30 25 O 7.20504 0.811948 -2.42476 0
M  V30 26 C 8.04538 1.90683 -2.22145 0
M  V30 27 N -2.33935 -3.1204 -1.75191 0
M  V30 28 N -4.36406 0.706605 0.181497 0
M  V30 29 C -4.56579 2.07806 -0.146265 0
M  V30 30 C -5.84143 2.18902 -1.00397 0
M  V30 31 C -7.05212 1.7537 -0.253306 0
M  V30 32 C -6.63317 1.09548 1.02879 0
M  V30 33 C -5.55772 0.0841417 0.770246 0
M  V30 34 H 0.691928 1.8278 1.48824 0
M  V30 35 H 0.181553 0.809765 2.97514 0
M  V30 36 H -0.341648 -4.57522 -0.925111 0
M  V30 37 H 0.132023 -3.6433 -2.37913 0
M  V30 38 H 3.63402 -2.34342 1.41603 0
M  V30 39 H 4.26387 -1.15683 2.58381 0
M  V30 40 H 5.42549 0.781159 1.7474 0
M  V30 41 H 6.94046 1.71748 0.0261422 0
M  V30 42 H 5.60895 -1.21506 -2.70481 0
M  V30 43 H 4.07958 -2.16208 -0.971196 0
M  V30 44 H 8.75087 1.9462 -3.09205 0
M  V30 45 H 7.4817 2.86254 -2.13096 0
M  V30 46 H 8.63953 1.8049 -1.29258 0
M  V30 47 H -2.17292 -3.15891 -2.76237 0
M  V30 48 H -2.63699 -4.00965 -1.25505 0
M  V30 49 H -3.7795 2.43766 -0.80649 0
M  V30 50 H -4.79116 2.73496 0.717137 0
M  V30 51 H -5.71697 1.6272 -1.95123 0
M  V30 52 H -5.95074 3.25827 -1.2906 0
M  V30 53 H -7.75461 2.58843 -0.105109 0
M  V30 54 H -7.58797 0.997994 -0.863381 0
M  V30 55 H -6.25921 1.80652 1.78492 0
M  V30 56 H -7.48081 0.556398 1.49897 0
M  V30 57 H -5.3207 -0.41281 1.72534 0
M  V30 58 H -5.86883 -0.705508 0.0538047 0
M  V30 END ATOM
M  V30 BEGIN BOND
M  V30 1 3 1 2
M  V30 2 1 2 3
M  V30 3 2 3 4
M  V30 4 1 4 5
M  V30 5 2 5 6
M  V30 6 1 6 7
M  V30 7 2 7 8
M  V30 8 1 8 9
M  V30 9 1 9 10
M  V30 10 1 10 11
M  V30 11 2 11 12
M  V30 12 1 11 13
M  V30 13 1 13 14
M  V30 14 1 14 15
M  V30 15 2 15 16
M  V30 16 1 16 17
M  V30 17 1 13 18
M  V30 18 1 18 19
M  V30 19 2 19 20
M  V30 20 1 20 21
M  V30 21 2 21 22
M  V30 22 1 22 23
M  V30 23 2 23 24
M  V30 24 1 22 25
M  V30 25 1 25 26
M  V30 26 1 6 27
M  V30 27 1 4 28
M  V30 28 1 28 29
M  V30 29 1 29 30
M  V30 30 1 30 31
M  V30 31 1 31 32
M  V30 32 1 32 33
M  V30 33 1 8 3
M  V30 34 2 14 9
M  V30 35 1 24 19
M  V30 36 1 33 28
M  V30 37 1 16 7
M  V30 38 1 10 34
M  V30 39 1 10 35
M  V30 40 1 17 36
M  V30 41 1 17 37
M  V30 42 1 18 38
M  V30 43 1 18 39
M  V30 44 1 20 40
M  V30 45 1 21 41
M  V30 46 1 23 42
M  V30 47 1 24 43
M  V30 48 1 26 44
M  V30 49 1 26 45
M  V30 50 1 26 46
M  V30 51 1 27 47
M  V30 52 1 27 48
M  V30 53 1 29 49
M  V30 54 1 29 50
M  V30 55 1 30 51
M  V30 56 1 30 52
M  V30 57 1 31 53
M  V30 58 1 31 54
M  V30 59 1 32 55
M  V30 60 1 32 56
M  V30 61 1 33 57
M  V30 62 1 33 58
M  V30 END BOND
M  V30 END CTAB
M  END
