
     RDKit          3D

  0  0  0  0  0  0  0  0  0  0999 V3000
M  V30 BEGIN CTAB
M  V30 COUNTS 60 63 0 0 0
M  V30 BEGIN ATOM
M  V30 1 C -5.5832 -3.08058 -0.109962 0
M  V30 2 C -4.29796 -2.88685 0.608735 0
M  V30 3 C -3.10492 -2.58277 -0.192985 0
M  V30 4 C -3.03672 -1.33307 -0.98019 0
M  V30 5 N -3.08154 -0.10463 -0.221135 0
M  V30 6 C -1.95588 0.429589 0.355959 0
M  V30 7 S -0.31297 -0.290638 0.309501 0
M  V30 8 C 0.594203 0.308501 -1.16304 0
M  V30 9 C 1.94678 -0.269463 -1.22291 0
M  V30 10 N 2.0989 -1.43666 -1.88353 0
M  V30 11 C 3.32095 -2.02242 -1.9753 0
M  V30 12 N 3.53966 -3.24768 -2.65643 0
M  V30 13 N 4.32402 -1.38938 -1.38982 0
M  V30 14 C 4.27903 -0.240957 -0.717918 0
M  V30 15 N 3.01552 0.303665 -0.659241 0
M  V30 16 N 5.35298 0.420793 -0.100549 0
M  V30 17 C 6.67348 0.0515822 -0.0430576 0
M  V30 18 C 7.20265 -1.07731 -0.598361 0
M  V30 19 C 8.552 -1.42317 -0.520121 0
M  V30 20 C 9.41315 -0.594286 0.149046 0
M  V30 21 C 8.93676 0.557674 0.728995 0
M  V30 22 C 7.60651 0.864841 0.631907 0
M  V30 23 C 7.09298 2.10128 1.25388 0
M  V30 24 N -2.34358 1.56856 0.941102 0
M  V30 25 C -3.64896 1.79719 0.77349 0
M  V30 26 C -4.11056 0.721299 0.0285591 0
M  V30 27 C -5.45106 0.709406 -0.306282 0
M  V30 28 C -6.31317 1.70753 0.071526 0
M  V30 29 C -5.86675 2.77351 0.808876 0
M  V30 30 C -4.53558 2.78803 1.14163 0
M  V30 31 S -6.98962 4.0255 1.27367 0
M  V30 32 O -8.07843 4.0723 0.239594 0
M  V30 33 O -6.29413 5.35588 1.31133 0
M  V30 34 N -7.66587 3.5975 2.78727 0
M  V30 35 H -5.56024 -2.75646 -1.16971 0
M  V30 36 H -5.83319 -4.16033 -0.122077 0
M  V30 37 H -6.44398 -2.5813 0.409524 0
M  V30 38 H -4.46342 -2.03825 1.34004 0
M  V30 39 H -4.12472 -3.76898 1.29605 0
M  V30 40 H -2.96219 -3.46256 -0.904297 0
M  V30 41 H -2.17176 -2.67635 0.456158 0
M  V30 42 H -2.06327 -1.30881 -1.55861 0
M  V30 43 H -3.80869 -1.26602 -1.78195 0
M  V30 44 H 0.0111766 0.15916 -2.07919 0
M  V30 45 H 0.692907 1.41206 -1.02198 0
M  V30 46 H 3.68956 -4.10347 -2.07729 0
M  V30 47 H 3.55565 -3.32196 -3.7058 0
M  V30 48 H 5.10197 1.34877 0.397708 0
M  V30 49 H 6.60065 -1.78865 -1.14382 0
M  V30 50 H 8.9043 -2.32299 -0.977289 0
M  V30 51 H 10.4622 -0.881362 0.199148 0
M  V30 52 H 9.64457 1.18766 1.24875 0
M  V30 53 H 6.40833 1.90945 2.10784 0
M  V30 54 H 7.94921 2.69728 1.61165 0
M  V30 55 H 6.57441 2.75406 0.492047 0
M  V30 56 H -5.82277 -0.103247 -0.886797 0
M  V30 57 H -7.37387 1.65568 -0.218064 0
M  V30 58 H -4.14732 3.60667 1.71875 0
M  V30 59 H -8.66851 3.39381 2.69253 0
M  V30 60 H -7.42963 4.24134 3.55325 0
M  V30 END ATOM
M  V30 BEGIN BOND
M  V30 1 1 1 2
M  V30 2 1 2 3
M  V30 3 1 3 4
M  V30 4 1 4 5
M  V30 5 1 5 6
M  V30 6 1 6 7
M  V30 7 1 7 8
M  V30 8 1 8 9
M  V30 9 2 9 10
M  V30 10 1 10 11
M  V30 11 1 11 12
M  V30 12 2 11 13
M  V30 13 1 13 14
M  V30 14 2 14 15
M  V30 15 1 14 16
M  V30 16 1 16 17
M  V30 17 2 17 18
M  V30 18 1 18 19
M  V30 19 2 19 20
M  V30 20 1 20 21
M  V30 21 2 21 22
M  V30 22 1 22 23
M  V30 23 2 6 24
M  V30 24 1 24 25
M  V30 25 2 25 26
M  V30 26 1 26 27
M  V30 27 2 27 28
M  V30 28 1 28 29
M  V30 29 2 29 30
M  V30 30 1 29 31
M  V30 31 2 31 32
M  V30 32 2 31 33
M  V30 33 1 31 34
M  V30 34 1 26 5
M  V30 35 1 15 9
M  V30 36 1 22 17
M  V30 37 1 30 25
M  V30 38 1 1 35
M  V30 39 1 1 36
M  V30 40 1 1 37
M  V30 41 1 2 38
M  V30 42 1 2 39
M  V30 43 1 3 40
M  V30 44 1 3 41
M  V30 45 1 4 42
M  V30 46 1 4 43
M  V30 47 1 8 44
M  V30 48 1 8 45
M  V30 49 1 12 46
M  V30 50 1 12 47
M  V30 51 1 16 48
M  V30 52 1 18 49
M  V30 53 1 19 50
M  V30 54 1 20 51
M  V30 55 1 21 52
M  V30 56 1 23 53
M  V30 57 1 23 54
M  V30 58 1 23 55
M  V30 59 1 27 56
M  V30 60 1 28 57
M  V30 61 1 30 58
M  V30 62 1 34 59
M  V30 63 1 34 60
M  V30 END BOND
M  V30 END CTAB
M  END
