
     RDKit          3D

  0  0  0  0  0  0  0  0  0  0999 V3000
M  V30 BEGIN CTAB
M  V30 COUNTS 23 24 0 0 0
M  V30 BEGIN ATOM
M  V30 1 C -3.32576 0.918141 1.25783 0
M  V30 2 C -2.41362 0.153989 0.348568 0
M  V30 3 N -1.07072 0.302154 0.468948 0
M  V30 4 C -0.206679 -0.358938 -0.3205 0
M  V30 5 N -0.698078 -1.18752 -1.25203 0
M  V30 6 C -2.02831 -1.37836 -1.42178 0
M  V30 7 C -2.90692 -0.701789 -0.61405 0
M  V30 8 N 1.20598 -0.213447 -0.205777 0
M  V30 9 N 2.12267 -1.13532 -0.525115 0
M  V30 10 C 3.35563 -0.662969 -0.291123 0
M  V30 11 N 4.54244 -1.41044 -0.531702 0
M  V30 12 N 3.19353 0.573842 0.181437 0
M  V30 13 C 1.87491 0.867491 0.240733 0
M  V30 14 N 1.29242 2.08796 0.689643 0
M  V30 15 H -3.191 2.01476 1.15138 0
M  V30 16 H -4.37071 0.705427 0.942761 0
M  V30 17 H -3.18967 0.613979 2.32266 0
M  V30 18 H -2.3338 -2.06538 -2.19793 0
M  V30 19 H -3.98553 -0.843627 -0.736921 0
M  V30 20 H 4.80207 -1.73113 -1.49057 0
M  V30 21 H 5.20025 -1.66839 0.236366 0
M  V30 22 H 1.05338 2.23769 1.71221 0
M  V30 23 H 1.07751 2.88189 0.0349624 0
M  V30 END ATOM
M  V30 BEGIN BOND
M  V30 1 1 1 2
M  V30 2 2 2 3
M  V30 3 1 3 4
M  V30 4 2 4 5
M  V30 5 1 5 6
M  V30 6 2 6 7
M  V30 7 1 4 8
M  V30 8 1 8 9
M  V30 9 2 9 10
M  V30 10 1 10 11
M  V30 11 1 10 12
M  V30 12 2 12 13
M  V30 13 1 13 14
M  V30 14 1 7 2
M  V30 15 1 13 8
M  V30 16 1 1 15
M  V30 17 1 1 16
M  V30 18 1 1 17
M  V30 19 1 6 18
M  V30 20 1 7 19
M  V30 21 1 11 20
M  V30 22 1 11 21
M  V30 23 1 14 22
M  V30 24 1 14 23
M  V30 END BOND
M  V30 END CTAB
M  END
