
     RDKit          3D

  0  0  0  0  0  0  0  0  0  0999 V3000
M  V30 BEGIN CTAB
M  V30 COUNTS 34 35 0 0 0
M  V30 BEGIN ATOM
M  V30 1 C 3.91245 0.0186047 1.82078 0
M  V30 2 C 2.94814 -0.0202885 0.679325 0
M  V30 3 C 1.56739 -0.0889165 0.897429 0
M  V30 4 C 0.69461 -0.123069 -0.157202 0
M  V30 5 C 1.24247 -0.0862404 -1.4459 0
M  V30 6 C 2.60056 -0.0186318 -1.64652 0
M  V30 7 C 3.48248 0.0157363 -0.591539 0
M  V30 8 N 4.89736 0.0855547 -0.772629 0
M  V30 9 C -0.737541 -0.200286 0.0674038 0
M  V30 10 C -1.48042 0.970518 -0.178125 0
M  V30 11 C -2.83322 1.06095 0.0181251 0
M  V30 12 C -3.57591 2.32843 -0.256948 0
M  V30 13 C -3.47425 -0.0701353 0.480967 0
M  V30 14 N -4.87713 0.0263713 0.684306 0
M  V30 15 C -2.76242 -1.21834 0.723951 0
M  V30 16 C -1.37339 -1.31664 0.523508 0
M  V30 17 N -0.763097 -2.57281 0.769596 0 CHG=1
M  V30 18 O -1.49609 -3.75287 0.526211 0 CHG=-1
M  V30 19 O 0.357433 -2.74625 1.18803 0
M  V30 20 H 4.29765 1.0204 2.02123 0
M  V30 21 H 3.38818 -0.413113 2.69771 0
M  V30 22 H 4.73589 -0.71169 1.58566 0
M  V30 23 H 1.22265 -0.109256 1.9194 0
M  V30 24 H 0.515856 -0.114791 -2.25413 0
M  V30 25 H 2.9982 0.00873123 -2.64654 0
M  V30 26 H 5.48167 -0.630524 -0.323948 0
M  V30 27 H 5.37189 0.823772 -1.33638 0
M  V30 28 H -0.949787 1.83784 -0.539737 0
M  V30 29 H -4.65602 2.16236 -0.140712 0
M  V30 30 H -3.42402 2.62368 -1.33137 0
M  V30 31 H -3.22032 3.1621 0.363035 0
M  V30 32 H -5.59663 -0.23669 -0.0182598 0
M  V30 33 H -5.20734 0.385944 1.60265 0
M  V30 34 H -3.2873 -2.10043 1.08854 0
M  V30 END ATOM
M  V30 BEGIN BOND
M  V30 1 1 1 2
M  V30 2 2 2 3
M  V30 3 1 3 4
M  V30 4 2 4 5
M  V30 5 1 5 6
M  V30 6 2 6 7
M  V30 7 1 7 8
M  V30 8 1 4 9
M  V30 9 2 9 10
M  V30 10 1 10 11
M  V30 11 1 11 12
M  V30 12 2 11 13
M  V30 13 1 13 14
M  V30 14 1 13 15
M  V30 15 2 15 16
M  V30 16 1 16 17
M  V30 17 1 17 18
M  V30 18 2 17 19
M  V30 19 1 7 2
M  V30 20 1 16 9
M  V30 21 1 1 20
M  V30 22 1 1 21
M  V30 23 1 1 22
M  V30 24 1 3 23
M  V30 25 1 5 24
M  V30 26 1 6 25
M  V30 27 1 8 26
M  V30 28 1 8 27
M  V30 29 1 10 28
M  V30 30 1 12 29
M  V30 31 1 12 30
M  V30 32 1 12 31
M  V30 33 1 14 32
M  V30 34 1 14 33
M  V30 35 1 15 34
M  V30 END BOND
M  V30 END CTAB
M  END
