
     RDKit          3D

  0  0  0  0  0  0  0  0  0  0999 V3000
M  V30 BEGIN CTAB
M  V30 COUNTS 38 40 0 0 0
M  V30 BEGIN ATOM
M  V30 1 N 1.7764 -0.493621 -1.5552 0
M  V30 2 C 2.18742 -0.211189 -0.242555 0
M  V30 3 C 3.51787 -0.287121 0.101617 0
M  V30 4 C 3.88841 -0.00487414 1.39944 0
M  V30 5 C 2.9509 0.348879 2.3463 0
M  V30 6 C 1.62207 0.413908 1.95986 0
M  V30 7 C 1.21847 0.13749 0.668921 0
M  V30 8 C -0.208216 0.225911 0.33764 0 CFG=2
M  V30 9 C -0.863564 -1.04248 0.0701649 0
M  V30 10 C -0.43185 -2.2484 0.534902 0
M  V30 11 C -1.10829 -3.42516 0.244285 0
M  V30 12 C -2.23739 -3.41574 -0.522466 0
M  V30 13 C -2.69666 -2.20523 -1.00662 0
M  V30 14 C -2.02031 -1.04841 -0.713204 0
M  V30 15 C -2.55401 0.234906 -1.26136 0
M  V30 16 C -1.3631 1.04429 -1.65709 0
M  V30 17 N -0.395305 1.22521 -0.667216 0
M  V30 18 S -0.161359 2.82935 -0.130768 0
M  V30 19 O 1.25612 3.01766 0.326565 0
M  V30 20 O -0.386667 3.73207 -1.33745 0
M  V30 21 N -1.24145 3.30684 1.09889 0
M  V30 22 H 1.61688 -1.46973 -1.84111 0
M  V30 23 H 1.63338 0.267077 -2.23411 0
M  V30 24 H 4.28934 -0.56557 -0.627903 0
M  V30 25 H 4.92282 -0.0540177 1.70582 0
M  V30 26 H 3.28811 0.561517 3.35227 0
M  V30 27 H 0.916037 0.696202 2.73576 0
M  V30 28 H -0.720293 0.658319 1.25677 0
M  V30 29 H 0.456386 -2.28729 1.14273 0
M  V30 30 H -0.739397 -4.37242 0.629924 0
M  V30 31 H -2.78733 -4.31478 -0.766872 0
M  V30 32 H -3.6029 -2.22014 -1.61882 0
M  V30 33 H -3.21442 0.0291855 -2.10832 0
M  V30 34 H -3.1491 0.771989 -0.468535 0
M  V30 35 H -1.64173 2.04141 -2.06906 0
M  V30 36 H -0.900724 0.517741 -2.54515 0
M  V30 37 H -2.21594 3.4072 0.772576 0
M  V30 38 H -0.900584 4.19902 1.51283 0
M  V30 END ATOM
M  V30 BEGIN BOND
M  V30 1 1 1 2
M  V30 2 2 2 3
M  V30 3 1 3 4
M  V30 4 2 4 5
M  V30 5 1 5 6
M  V30 6 2 6 7
M  V30 7 1 7 8
M  V30 8 1 8 9
M  V30 9 2 9 10
M  V30 10 1 10 11
M  V30 11 2 11 12
M  V30 12 1 12 13
M  V30 13 2 13 14
M  V30 14 1 14 15
M  V30 15 1 15 16
M  V30 16 1 16 17
M  V30 17 1 17 18
M  V30 18 2 18 19
M  V30 19 2 18 20
M  V30 20 1 18 21
M  V30 21 1 7 2
M  V30 22 1 17 8
M  V30 23 1 14 9
M  V30 24 1 1 22
M  V30 25 1 1 23
M  V30 26 1 3 24
M  V30 27 1 4 25
M  V30 28 1 5 26
M  V30 29 1 6 27
M  V30 30 1 8 28 CFG=1
M  V30 31 1 10 29
M  V30 32 1 11 30
M  V30 33 1 12 31
M  V30 34 1 13 32
M  V30 35 1 15 33
M  V30 36 1 15 34
M  V30 37 1 16 35
M  V30 38 1 16 36
M  V30 39 1 21 37
M  V30 40 1 21 38
M  V30 END BOND
M  V30 END CTAB
M  END
