
     RDKit          3D

  0  0  0  0  0  0  0  0  0  0999 V3000
M  V30 BEGIN CTAB
M  V30 COUNTS 81 86 0 0 0
M  V30 BEGIN ATOM
M  V30 1 N 3.06809 -4.9964 1.93351 0
M  V30 2 C 4.16042 -4.31041 1.34486 0
M  V30 3 C 4.05428 -2.94996 1.03027 0
M  V30 4 N 3.06693 -2.08822 1.1732 0
M  V30 5 C 3.4642 -0.836597 0.695314 0
M  V30 6 N 2.59064 0.242082 0.787811 0
M  V30 7 C 2.53726 1.53064 0.244804 0
M  V30 8 C 1.91838 1.58087 -1.15116 0
M  V30 9 C 0.485022 1.07991 -1.12648 0
M  V30 10 C -0.38754 1.89182 -0.229884 0
M  V30 11 C -1.82804 1.38256 -0.221467 0
M  V30 12 N -1.90711 0.0339207 0.233336 0
M  V30 13 C -3.04177 -0.777386 0.4318 0
M  V30 14 N -2.89247 -2.0647 0.869182 0
M  V30 15 C -4.05991 -2.65991 1.00508 0
M  V30 16 C -4.47985 -3.90831 1.40137 0
M  V30 17 N -3.54342 -4.90362 1.78357 0
M  V30 18 N -5.78039 -4.25135 1.4485 0
M  V30 19 C -6.67587 -3.31097 1.08689 0
M  V30 20 N -6.2855 -2.08733 0.697307 0
M  V30 21 C -4.99749 -1.72648 0.643374 0
M  V30 22 N -4.33931 -0.567885 0.291978 0
M  V30 23 C -5.03189 0.585329 -0.125827 0 CFG=2
M  V30 24 O -5.69759 1.20155 0.94824 0
M  V30 25 C -6.60643 2.04428 0.311274 0 CFG=2
M  V30 26 C -7.5854 2.65406 1.2805 0
M  V30 27 O -6.88118 3.38465 2.21041 0
M  V30 28 C -7.29232 1.02285 -0.606635 0 CFG=1
M  V30 29 O -8.02191 1.68873 -1.59177 0
M  V30 30 C -6.08461 0.32226 -1.18194 0 CFG=1
M  V30 31 O -5.79848 1.00856 -2.38375 0
M  V30 32 N 4.70762 -0.930995 0.258177 0
M  V30 33 C 5.66977 -0.0159608 -0.277706 0 CFG=2
M  V30 34 O 5.87094 1.15332 0.431701 0
M  V30 35 C 6.73571 1.8717 -0.388451 0 CFG=2
M  V30 36 C 6.92065 3.30468 0.0744423 0
M  V30 37 O 5.68146 3.91973 0.0582006 0
M  V30 38 C 5.97128 1.82926 -1.70396 0 CFG=1
M  V30 39 O 6.83261 2.13491 -2.72737 0
M  V30 40 C 5.55696 0.346904 -1.70551 0 CFG=1
M  V30 41 O 6.58028 -0.278194 -2.46561 0
M  V30 42 C 5.08072 -2.2512 0.463302 0
M  V30 43 N 6.21873 -2.93217 0.213645 0
M  V30 44 C 6.34798 -4.23273 0.503927 0
M  V30 45 N 5.32555 -4.90852 1.06355 0
M  V30 46 H 2.77286 -4.86748 2.92061 0
M  V30 47 H 2.52617 -5.66826 1.35312 0
M  V30 48 H 1.72688 0.0350062 1.46896 0
M  V30 49 H 1.92814 2.22439 0.924335 0
M  V30 50 H 3.4896 2.03819 0.170583 0
M  V30 51 H 1.92964 2.62276 -1.47261 0
M  V30 52 H 2.48526 0.904863 -1.80412 0
M  V30 53 H 0.098919 1.20479 -2.17004 0
M  V30 54 H 0.455535 -0.00191015 -0.923091 0
M  V30 55 H -0.40353 2.93539 -0.571556 0
M  V30 56 H -0.0472558 1.81215 0.829184 0
M  V30 57 H -2.38844 2.08377 0.396717 0
M  V30 58 H -2.21156 1.42838 -1.27149 0
M  V30 59 H -0.957923 -0.44422 0.463879 0
M  V30 60 H -3.19849 -4.89224 2.76461 0
M  V30 61 H -3.18106 -5.64325 1.14345 0
M  V30 62 H -7.74097 -3.59043 1.12511 0
M  V30 63 H -4.3797 1.35435 -0.541914 0
M  V30 64 H -6.13697 2.78723 -0.344752 0
M  V30 65 H -8.1867 3.39875 0.681527 0
M  V30 66 H -8.29985 1.94017 1.68577 0
M  V30 67 H -7.5118 4.01622 2.64448 0
M  V30 68 H -7.95465 0.350642 -0.0325633 0
M  V30 69 H -8.92137 1.26369 -1.73319 0
M  V30 70 H -6.22561 -0.711459 -1.4603 0
M  V30 71 H -6.59984 0.862156 -2.95507 0
M  V30 72 H 6.72533 -0.504089 -0.193526 0
M  V30 73 H 7.69305 1.33554 -0.433768 0
M  V30 74 H 7.55854 3.83812 -0.658176 0
M  V30 75 H 7.35514 3.34089 1.09105 0
M  V30 76 H 5.79907 4.90374 0.235828 0
M  V30 77 H 5.10348 2.4898 -1.61672 0
M  V30 78 H 7.71508 2.46439 -2.39805 0
M  V30 79 H 4.60069 0.17063 -2.18997 0
M  V30 80 H 7.45184 0.0219556 -2.11728 0
M  V30 81 H 7.30347 -4.7299 0.274941 0
M  V30 END ATOM
M  V30 BEGIN BOND
M  V30 1 1 1 2
M  V30 2 2 2 3
M  V30 3 1 3 4
M  V30 4 2 4 5
M  V30 5 1 5 6
M  V30 6 1 6 7
M  V30 7 1 7 8
M  V30 8 1 8 9
M  V30 9 1 9 10
M  V30 10 1 10 11
M  V30 11 1 11 12
M  V30 12 1 12 13
M  V30 13 2 13 14
M  V30 14 1 14 15
M  V30 15 2 15 16
M  V30 16 1 16 17
M  V30 17 1 16 18
M  V30 18 2 18 19
M  V30 19 1 19 20
M  V30 20 2 20 21
M  V30 21 1 21 22
M  V30 22 1 22 23
M  V30 23 1 23 24
M  V30 24 1 24 25
M  V30 25 1 25 26
M  V30 26 1 26 27
M  V30 27 1 25 28
M  V30 28 1 28 29
M  V30 29 1 28 30
M  V30 30 1 30 31
M  V30 31 1 5 32
M  V30 32 1 32 33
M  V30 33 1 33 34
M  V30 34 1 34 35
M  V30 35 1 35 36
M  V30 36 1 36 37
M  V30 37 1 35 38
M  V30 38 1 38 39
M  V30 39 1 38 40
M  V30 40 1 40 41
M  V30 41 1 32 42
M  V30 42 2 42 43
M  V30 43 1 43 44
M  V30 44 2 44 45
M  V30 45 1 45 2
M  V30 46 1 42 3
M  V30 47 1 22 13
M  V30 48 1 30 23
M  V30 49 1 40 33
M  V30 50 1 21 15
M  V30 51 1 1 46
M  V30 52 1 1 47
M  V30 53 1 6 48
M  V30 54 1 7 49
M  V30 55 1 7 50
M  V30 56 1 8 51
M  V30 57 1 8 52
M  V30 58 1 9 53
M  V30 59 1 9 54
M  V30 60 1 10 55
M  V30 61 1 10 56
M  V30 62 1 11 57
M  V30 63 1 11 58
M  V30 64 1 12 59
M  V30 65 1 17 60
M  V30 66 1 17 61
M  V30 67 1 19 62
M  V30 68 1 23 63 CFG=3
M  V30 69 1 25 64 CFG=3
M  V30 70 1 26 65
M  V30 71 1 26 66
M  V30 72 1 27 67
M  V30 73 1 28 68 CFG=1
M  V30 74 1 29 69
M  V30 75 1 30 70 CFG=3
M  V30 76 1 31 71
M  V30 77 1 33 72 CFG=3
M  V30 78 1 35 73 CFG=3
M  V30 79 1 36 74
M  V30 80 1 36 75
M  V30 81 1 37 76
M  V30 82 1 38 77 CFG=1
M  V30 83 1 39 78
M  V30 84 1 40 79 CFG=3
M  V30 85 1 41 80
M  V30 86 1 44 81
M  V30 END BOND
M  V30 END CTAB
M  END
