
     RDKit          3D

  0  0  0  0  0  0  0  0  0  0999 V3000
M  V30 BEGIN CTAB
M  V30 COUNTS 48 49 0 0 0
M  V30 BEGIN ATOM
M  V30 1 N -1.38494 -2.91027 1.94631 0
M  V30 2 C -1.92291 -2.17906 0.73934 0
M  V30 3 C -0.654943 -1.81723 0.0239789 0
M  V30 4 O -0.727973 -1.73293 -1.22538 0
M  V30 5 N 0.518958 -1.59446 0.750619 0
M  V30 6 C 1.78973 -1.25002 0.286036 0
M  V30 7 C 2.10209 -1.00304 -1.01211 0
M  V30 8 C 3.40933 -0.664618 -1.40779 0
M  V30 9 C 4.38747 -0.584455 -0.449483 0
M  V30 10 C 4.11452 -0.82706 0.879768 0
M  V30 11 C 2.83085 -1.15253 1.21851 0
M  V30 12 C 5.76924 -0.221001 -0.908005 0
M  V30 13 S 5.90593 1.53057 -0.853074 0
M  V30 14 O 5.65149 1.99312 0.563661 0
M  V30 15 O 4.85056 2.12463 -1.72349 0
M  V30 16 N 7.43876 2.09183 -1.35357 0
M  V30 17 C -2.70667 -1.0499 1.22147 0
M  V30 18 C -3.41948 -0.078337 0.437571 0
M  V30 19 C -4.10537 0.862427 1.49457 0
M  V30 20 C -5.22405 1.62771 0.913399 0
M  V30 21 C -5.02908 2.12314 -0.473951 0
M  V30 22 C -3.93726 1.56115 -1.25802 0
M  V30 23 C -2.80032 0.892445 -0.463357 0
M  V30 24 H -2.00488 -3.7294 2.14214 0
M  V30 25 H -1.36641 -2.23243 2.74184 0
M  V30 26 H -2.41094 -2.95639 0.1661 0
M  V30 27 H 0.378451 -1.71556 1.82617 0
M  V30 28 H 1.36959 -1.05045 -1.80117 0
M  V30 29 H 3.63068 -0.471801 -2.45643 0
M  V30 30 H 4.92395 -0.748423 1.58447 0
M  V30 31 H 2.63665 -1.3387 2.26231 0
M  V30 32 H 6.53062 -0.733738 -0.280776 0
M  V30 33 H 5.88124 -0.612938 -1.93459 0
M  V30 34 H 8.23279 1.49075 -1.06693 0
M  V30 35 H 7.55423 3.0754 -1.02476 0
M  V30 36 H -3.47564 -1.49549 1.95603 0
M  V30 37 H -2.03962 -0.508946 1.99426 0
M  V30 38 H -4.32022 -0.519082 -0.085288 0
M  V30 39 H -4.39857 0.229881 2.33532 0
M  V30 40 H -3.28319 1.53507 1.81019 0
M  V30 41 H -5.41925 2.4948 1.59279 0
M  V30 42 H -6.15564 0.992979 1.00923 0
M  V30 43 H -5.99929 1.9438 -1.02836 0
M  V30 44 H -4.93897 3.24869 -0.471139 0
M  V30 45 H -4.29419 0.745885 -1.95254 0
M  V30 46 H -3.42523 2.29027 -1.92473 0
M  V30 47 H -2.11931 0.581884 -1.24012 0
M  V30 48 H -2.34283 1.74184 0.127252 0
M  V30 END ATOM
M  V30 BEGIN BOND
M  V30 1 1 1 2
M  V30 2 1 2 3
M  V30 3 2 3 4
M  V30 4 1 3 5
M  V30 5 1 5 6
M  V30 6 2 6 7
M  V30 7 1 7 8
M  V30 8 2 8 9
M  V30 9 1 9 10
M  V30 10 2 10 11
M  V30 11 1 9 12
M  V30 12 1 12 13
M  V30 13 2 13 14
M  V30 14 2 13 15
M  V30 15 1 13 16
M  V30 16 1 2 17
M  V30 17 1 17 18
M  V30 18 1 18 19
M  V30 19 1 19 20
M  V30 20 1 20 21
M  V30 21 1 21 22
M  V30 22 1 22 23
M  V30 23 1 11 6
M  V30 24 1 23 18
M  V30 25 1 1 24
M  V30 26 1 1 25
M  V30 27 1 2 26
M  V30 28 1 5 27
M  V30 29 1 7 28
M  V30 30 1 8 29
M  V30 31 1 10 30
M  V30 32 1 11 31
M  V30 33 1 12 32
M  V30 34 1 12 33
M  V30 35 1 16 34
M  V30 36 1 16 35
M  V30 37 1 17 36
M  V30 38 1 17 37
M  V30 39 1 18 38
M  V30 40 1 19 39
M  V30 41 1 19 40
M  V30 42 1 20 41
M  V30 43 1 20 42
M  V30 44 1 21 43
M  V30 45 1 21 44
M  V30 46 1 22 45
M  V30 47 1 22 46
M  V30 48 1 23 47
M  V30 49 1 23 48
M  V30 END BOND
M  V30 END CTAB
M  END
