
     RDKit          3D

  0  0  0  0  0  0  0  0  0  0999 V3000
M  V30 BEGIN CTAB
M  V30 COUNTS 29 29 0 0 0
M  V30 BEGIN ATOM
M  V30 1 O -2.80169 1.9099 -1.39304 0
M  V30 2 C -2.11037 0.725181 -1.48523 0
M  V30 3 C -1.12413 0.521134 -0.355331 0
M  V30 4 C -1.7997 0.507784 0.98867 0
M  V30 5 C -2.18608 -0.934838 1.1627 0
M  V30 6 C -0.938436 -1.65827 0.661131 0
M  V30 7 C -0.505537 -0.841477 -0.526945 0
M  V30 8 C 1.00152 -0.760135 -0.638729 0
M  V30 9 N 1.61102 -0.169058 0.533595 0
M  V30 10 C 2.81372 0.315413 0.41187 0
M  V30 11 N 3.47948 0.909614 1.50876 0
M  V30 12 N 3.51874 0.27156 -0.830202 0
M  V30 13 H -2.59566 2.44992 -0.596204 0
M  V30 14 H -1.49491 0.768015 -2.42366 0
M  V30 15 H -2.73265 -0.171815 -1.54904 0
M  V30 16 H -0.341807 1.31384 -0.379915 0
M  V30 17 H -1.07718 0.753668 1.78921 0
M  V30 18 H -2.66451 1.1946 1.03156 0
M  V30 19 H -3.04561 -1.16738 0.498814 0
M  V30 20 H -2.38607 -1.2122 2.21779 0
M  V30 21 H -0.210481 -1.61161 1.5018 0
M  V30 22 H -1.23814 -2.6894 0.402522 0
M  V30 23 H -0.858642 -1.35938 -1.446 0
M  V30 24 H 1.23655 -0.0691077 -1.48763 0
M  V30 25 H 1.45204 -1.73002 -0.91158 0
M  V30 26 H 3.28156 0.593425 2.47368 0
M  V30 27 H 4.17193 1.66628 1.36691 0
M  V30 28 H 4.0227 -0.619778 -1.04479 0
M  V30 29 H 3.52234 1.09414 -1.4807 0
M  V30 END ATOM
M  V30 BEGIN BOND
M  V30 1 1 1 2
M  V30 2 1 2 3
M  V30 3 1 3 4
M  V30 4 1 4 5
M  V30 5 1 5 6
M  V30 6 1 6 7
M  V30 7 1 7 8
M  V30 8 1 8 9
M  V30 9 2 9 10 CFG=2
M  V30 10 1 10 11
M  V30 11 1 10 12
M  V30 12 1 7 3
M  V30 13 1 1 13
M  V30 14 1 2 14
M  V30 15 1 2 15
M  V30 16 1 3 16
M  V30 17 1 4 17
M  V30 18 1 4 18
M  V30 19 1 5 19
M  V30 20 1 5 20
M  V30 21 1 6 21
M  V30 22 1 6 22
M  V30 23 1 7 23
M  V30 24 1 8 24
M  V30 25 1 8 25
M  V30 26 1 11 26
M  V30 27 1 11 27
M  V30 28 1 12 28
M  V30 29 1 12 29
M  V30 END BOND
M  V30 END CTAB
M  END
