
     RDKit          3D

  0  0  0  0  0  0  0  0  0  0999 V3000
M  V30 BEGIN CTAB
M  V30 COUNTS 27 27 0 0 0
M  V30 BEGIN ATOM
M  V30 1 O 4.85467 -1.0202 0.0531034 0
M  V30 2 N 3.65583 -0.341346 0.0663403 0
M  V30 3 C 2.51485 -0.894196 -0.0370812 0
M  V30 4 C 1.25894 -0.149211 -0.0199406 0
M  V30 5 C 1.2312 1.2305 0.112355 0
M  V30 6 C 0.075702 1.96642 0.133024 0
M  V30 7 C 0.13333 3.4446 0.278572 0
M  V30 8 C -1.1296 1.28404 0.014272 0
M  V30 9 C -1.13737 -0.0892161 -0.11895 0
M  V30 10 C 0.0467832 -0.795028 -0.135454 0
M  V30 11 C -2.41377 -0.793314 -0.242919 0
M  V30 12 N -2.49871 -2.06612 -0.369791 0
M  V30 13 O -3.74393 -2.67987 -0.483653 0
M  V30 14 N -3.63485 -0.0638138 -0.225744 0
M  V30 15 N 2.45968 -2.30856 -0.176363 0
M  V30 16 H 5.0438 -1.5975 0.86425 0
M  V30 17 H 2.19579 1.71302 0.201238 0
M  V30 18 H 0.82977 3.73796 1.09575 0
M  V30 19 H -0.85521 3.8632 0.465059 0
M  V30 20 H 0.561874 3.84771 -0.657315 0
M  V30 21 H -2.02623 1.87862 0.0325774 0
M  V30 22 H 0.0491859 -1.88085 -0.240416 0
M  V30 23 H -4.1747 -3.03409 0.372431 0
M  V30 24 H -4.02252 0.241407 -1.14559 0
M  V30 25 H -4.13392 0.164131 0.663778 0
M  V30 26 H 2.78794 -2.9634 0.568648 0
M  V30 27 H 2.07145 -2.69489 -1.06818 0
M  V30 END ATOM
M  V30 BEGIN BOND
M  V30 1 1 1 2
M  V30 2 2 2 3
M  V30 3 1 3 4
M  V30 4 2 4 5
M  V30 5 1 5 6
M  V30 6 1 6 7
M  V30 7 2 6 8
M  V30 8 1 8 9
M  V30 9 2 9 10
M  V30 10 1 9 11
M  V30 11 2 11 12
M  V30 12 1 12 13
M  V30 13 1 11 14
M  V30 14 1 3 15
M  V30 15 1 10 4
M  V30 16 1 1 16
M  V30 17 1 5 17
M  V30 18 1 7 18
M  V30 19 1 7 19
M  V30 20 1 7 20
M  V30 21 1 8 21
M  V30 22 1 10 22
M  V30 23 1 13 23
M  V30 24 1 14 24
M  V30 25 1 14 25
M  V30 26 1 15 26
M  V30 27 1 15 27
M  V30 END BOND
M  V30 END CTAB
M  END
