
     RDKit          3D

  0  0  0  0  0  0  0  0  0  0999 V3000
M  V30 BEGIN CTAB
M  V30 COUNTS 45 46 0 0 0
M  V30 BEGIN ATOM
M  V30 1 C -1.67808 -2.21916 -3.06399 0
M  V30 2 O -2.59669 -1.2447 -2.60749 0
M  V30 3 C -2.46376 -0.781669 -1.292 0
M  V30 4 C -1.46371 -1.266 -0.470345 0
M  V30 5 C -1.35825 -0.794473 0.811571 0
M  V30 6 C -2.23084 0.15817 1.30688 0
M  V30 7 C -3.22567 0.655192 0.524334 0
M  V30 8 O -4.09686 1.60687 1.02015 0
M  V30 9 C -3.92395 2.04264 2.35035 0
M  V30 10 C -3.32021 0.167764 -0.772866 0
M  V30 11 O -4.31624 0.648303 -1.59541 0
M  V30 12 C -5.55828 -0.0210013 -1.59887 0
M  V30 13 C -0.297442 -1.29703 1.70865 0
M  V30 14 O -0.177722 -2.6843 1.64895 0
M  V30 15 C 0.969136 -0.677206 1.25221 0
M  V30 16 C 1.99901 -0.184503 0.863341 0
M  V30 17 C 3.2302 0.381324 0.3872 0
M  V30 18 C 4.4681 -0.14151 0.688429 0
M  V30 19 C 4.55802 -1.3557 1.55066 0
M  V30 20 N 5.58757 0.449868 0.20054 0
M  V30 21 C 5.52597 1.5531 -0.584063 0
M  V30 22 N 6.72028 2.12763 -1.06429 0
M  V30 23 N 4.31789 2.08464 -0.893252 0
M  V30 24 C 3.19579 1.50104 -0.410761 0
M  V30 25 N 1.95153 2.0893 -0.758331 0
M  V30 26 H -0.621152 -1.8552 -2.9963 0
M  V30 27 H -1.75015 -3.06913 -2.32408 0
M  V30 28 H -1.90664 -2.56335 -4.07798 0
M  V30 29 H -0.773837 -2.0229 -0.870416 0
M  V30 30 H -2.10414 0.501755 2.33709 0
M  V30 31 H -2.9776 2.6146 2.48388 0
M  V30 32 H -4.73656 2.73338 2.66842 0
M  V30 33 H -3.88421 1.18059 3.06669 0
M  V30 34 H -6.37762 0.607959 -2.01556 0
M  V30 35 H -5.48435 -0.897837 -2.29194 0
M  V30 36 H -5.87677 -0.348105 -0.591173 0
M  V30 37 H -0.480113 -1.0293 2.76551 0
M  V30 38 H 0.159311 -3.07702 2.48768 0
M  V30 39 H 5.61436 -1.565 1.78726 0
M  V30 40 H 4.04628 -1.10513 2.50432 0
M  V30 41 H 4.03515 -2.19603 1.0573 0
M  V30 42 H 7.4058 1.55155 -1.57368 0
M  V30 43 H 6.90325 3.12858 -0.902308 0
M  V30 44 H 1.54438 1.91595 -1.71405 0
M  V30 45 H 1.44883 2.69608 -0.0492179 0
M  V30 END ATOM
M  V30 BEGIN BOND
M  V30 1 1 1 2
M  V30 2 1 2 3
M  V30 3 2 3 4
M  V30 4 1 4 5
M  V30 5 2 5 6
M  V30 6 1 6 7
M  V30 7 1 7 8
M  V30 8 1 8 9
M  V30 9 2 7 10
M  V30 10 1 10 11
M  V30 11 1 11 12
M  V30 12 1 5 13
M  V30 13 1 13 14
M  V30 14 1 13 15
M  V30 15 3 15 16
M  V30 16 1 16 17
M  V30 17 2 17 18
M  V30 18 1 18 19
M  V30 19 1 18 20
M  V30 20 2 20 21
M  V30 21 1 21 22
M  V30 22 1 21 23
M  V30 23 2 23 24
M  V30 24 1 24 25
M  V30 25 1 10 3
M  V30 26 1 24 17
M  V30 27 1 1 26
M  V30 28 1 1 27
M  V30 29 1 1 28
M  V30 30 1 4 29
M  V30 31 1 6 30
M  V30 32 1 9 31
M  V30 33 1 9 32
M  V30 34 1 9 33
M  V30 35 1 12 34
M  V30 36 1 12 35
M  V30 37 1 12 36
M  V30 38 1 13 37
M  V30 39 1 14 38
M  V30 40 1 19 39
M  V30 41 1 19 40
M  V30 42 1 19 41
M  V30 43 1 22 42
M  V30 44 1 22 43
M  V30 45 1 25 44
M  V30 46 1 25 45
M  V30 END BOND
M  V30 END CTAB
M  END
