
     RDKit          3D

  0  0  0  0  0  0  0  0  0  0999 V3000
M  V30 BEGIN CTAB
M  V30 COUNTS 35 36 0 0 0
M  V30 BEGIN ATOM
M  V30 1 O 1.96301 -2.06474 0.544436 0
M  V30 2 C 1.47268 -0.942214 0.344807 0
M  V30 3 C -0.00255001 -0.818362 0.541002 0
M  V30 4 S -0.804024 -0.274249 -0.9976 0
M  V30 5 C -2.55708 -0.156664 -0.663065 0
M  V30 6 N -3.06374 1.00428 -0.208074 0
M  V30 7 C -4.38375 1.1253 0.0541166 0
M  V30 8 N -4.9211 2.3455 0.533236 0
M  V30 9 C -5.2646 0.0632114 -0.134297 0
M  V30 10 C -4.72071 -1.1049 -0.597854 0
M  V30 11 N -3.40335 -1.19982 -0.851302 0
M  V30 12 N -5.54383 -2.22745 -0.815338 0
M  V30 13 C -0.357763 0.158406 1.61861 0
M  V30 14 N 2.24689 0.149799 -0.0413717 0
M  V30 15 C 3.64181 0.138101 -0.259943 0
M  V30 16 C 4.27177 1.39405 -0.26033 0
M  V30 17 C 5.61474 1.46197 -0.484866 0
M  V30 18 C 6.35537 0.338139 -0.708207 0
M  V30 19 C 5.77802 -0.885425 -0.714331 0
M  V30 20 C 4.40524 -0.987445 -0.487931 0
M  V30 21 H -0.400406 -1.81934 0.771027 0
M  V30 22 H -5.22031 2.4835 1.52347 0
M  V30 23 H -5.01175 3.12776 -0.156209 0
M  V30 24 H -6.31297 0.207417 0.0892753 0
M  V30 25 H -5.85953 -2.8012 -0.0212827 0
M  V30 26 H -5.83037 -2.47441 -1.77223 0
M  V30 27 H -1.0321 -0.308211 2.3831 0
M  V30 28 H -0.825101 1.08783 1.19319 0
M  V30 29 H 0.525373 0.517825 2.19715 0
M  V30 30 H 1.71538 1.0565 -0.182449 0
M  V30 31 H 3.6722 2.26871 -0.0812977 0
M  V30 32 H 6.07097 2.45456 -0.478072 0
M  V30 33 H 7.44163 0.442304 -0.885353 0
M  V30 34 H 6.36953 -1.79309 -0.893527 0
M  V30 35 H 3.97043 -1.96764 -0.510758 0
M  V30 END ATOM
M  V30 BEGIN BOND
M  V30 1 2 1 2
M  V30 2 1 2 3
M  V30 3 1 3 4
M  V30 4 1 4 5
M  V30 5 2 5 6
M  V30 6 1 6 7
M  V30 7 1 7 8
M  V30 8 2 7 9
M  V30 9 1 9 10
M  V30 10 2 10 11
M  V30 11 1 10 12
M  V30 12 1 3 13
M  V30 13 1 2 14
M  V30 14 1 14 15
M  V30 15 2 15 16
M  V30 16 1 16 17
M  V30 17 2 17 18
M  V30 18 1 18 19
M  V30 19 2 19 20
M  V30 20 1 11 5
M  V30 21 1 20 15
M  V30 22 1 3 21
M  V30 23 1 8 22
M  V30 24 1 8 23
M  V30 25 1 9 24
M  V30 26 1 12 25
M  V30 27 1 12 26
M  V30 28 1 13 27
M  V30 29 1 13 28
M  V30 30 1 13 29
M  V30 31 1 14 30
M  V30 32 1 16 31
M  V30 33 1 17 32
M  V30 34 1 18 33
M  V30 35 1 19 34
M  V30 36 1 20 35
M  V30 END BOND
M  V30 END CTAB
M  END
