
     RDKit          3D

  0  0  0  0  0  0  0  0  0  0999 V3000
M  V30 BEGIN CTAB
M  V30 COUNTS 33 34 0 0 0
M  V30 BEGIN ATOM
M  V30 1 C -0.149562 -2.24186 0.422896 0
M  V30 2 C -0.0443954 -0.738012 0.543752 0
M  V30 3 N 1.28493 -0.271592 0.212209 0
M  V30 4 N 2.05487 0.517431 0.944866 0
M  V30 5 C 3.22282 0.742111 0.323636 0
M  V30 6 C 3.19279 0.0553066 -0.874081 0
M  V30 7 C 1.96088 -0.571903 -0.914269 0
M  V30 8 N 1.54387 -1.38954 -2.00664 0
M  V30 9 N 4.29807 1.53982 0.804766 0
M  V30 10 C -1.1106 -0.049762 -0.313291 0
M  V30 11 C -1.04772 1.42728 -0.227837 0
M  V30 12 C -2.23216 2.05794 0.4721 0
M  V30 13 O -3.43276 1.44662 0.132087 0
M  V30 14 C -3.39277 0.183013 0.725513 0
M  V30 15 C -2.44279 -0.662194 -0.0688089 0
M  V30 16 H -0.755082 -2.64106 1.26096 0
M  V30 17 H 0.865051 -2.67771 0.508886 0
M  V30 18 H -0.664802 -2.54524 -0.510539 0
M  V30 19 H -0.245163 -0.488089 1.60518 0
M  V30 20 H 3.99955 0.0455884 -1.59714 0
M  V30 21 H 1.08173 -1.02728 -2.86024 0
M  V30 22 H 1.72251 -2.41291 -1.92525 0
M  V30 23 H 5.29943 1.28998 0.714319 0
M  V30 24 H 4.0756 2.43985 1.28296 0
M  V30 25 H -0.828999 -0.326014 -1.37524 0
M  V30 26 H -0.146101 1.82244 0.297973 0
M  V30 27 H -1.00834 1.92015 -1.245 0
M  V30 28 H -2.23059 3.1376 0.239679 0
M  V30 29 H -2.09499 1.92958 1.56347 0
M  V30 30 H -4.40145 -0.272363 0.650019 0
M  V30 31 H -3.05657 0.318426 1.77106 0
M  V30 32 H -2.33363 -1.62822 0.466544 0
M  V30 33 H -2.98363 -0.929401 -1.02454 0
M  V30 END ATOM
M  V30 BEGIN BOND
M  V30 1 1 1 2
M  V30 2 1 2 3
M  V30 3 1 3 4
M  V30 4 2 4 5
M  V30 5 1 5 6
M  V30 6 2 6 7
M  V30 7 1 7 8
M  V30 8 1 5 9
M  V30 9 1 2 10
M  V30 10 1 10 11
M  V30 11 1 11 12
M  V30 12 1 12 13
M  V30 13 1 13 14
M  V30 14 1 14 15
M  V30 15 1 7 3
M  V30 16 1 15 10
M  V30 17 1 1 16
M  V30 18 1 1 17
M  V30 19 1 1 18
M  V30 20 1 2 19
M  V30 21 1 6 20
M  V30 22 1 8 21
M  V30 23 1 8 22
M  V30 24 1 9 23
M  V30 25 1 9 24
M  V30 26 1 10 25
M  V30 27 1 11 26
M  V30 28 1 11 27
M  V30 29 1 12 28
M  V30 30 1 12 29
M  V30 31 1 14 30
M  V30 32 1 14 31
M  V30 33 1 15 32
M  V30 34 1 15 33
M  V30 END BOND
M  V30 END CTAB
M  END
