
     RDKit          3D

  0  0  0  0  0  0  0  0  0  0999 V3000
M  V30 BEGIN CTAB
M  V30 COUNTS 50 52 0 0 0
M  V30 BEGIN ATOM
M  V30 1 C 6.05769 1.37538 2.11459 0
M  V30 2 N 4.94512 0.678037 1.54701 0
M  V30 3 C 3.74901 1.49456 1.47992 0
M  V30 4 C 2.56928 0.704036 0.950457 0
M  V30 5 N 2.89044 0.30228 -0.402149 0
M  V30 6 C 4.27653 0.270641 -0.79986 0
M  V30 7 C 5.23986 0.0133159 0.315586 0
M  V30 8 C 1.85968 -0.0565091 -1.31373 0
M  V30 9 C 2.08836 -0.340237 -2.63941 0
M  V30 10 C 1.08132 -0.697394 -3.53314 0
M  V30 11 C -0.223821 -0.76302 -3.02707 0
M  V30 12 N -1.27771 -1.12321 -3.9034 0
M  V30 13 C -0.502929 -0.490794 -1.7199 0
M  V30 14 C 0.525694 -0.14389 -0.881825 0
M  V30 15 C -1.89244 -0.577591 -1.24746 0
M  V30 16 O -2.73742 -0.908515 -2.11674 0
M  V30 17 N -2.27383 -0.317306 0.0636216 0
M  V30 18 C -3.57475 -0.381718 0.577946 0
M  V30 19 C -4.70005 -0.716104 -0.114736 0
M  V30 20 C -5.97833 -0.762875 0.460565 0
M  V30 21 N -7.11692 -1.12149 -0.322709 0
M  V30 22 C -6.10095 -0.454805 1.79384 0
M  V30 23 C -4.98811 -0.11301 2.52439 0
M  V30 24 C -3.74849 -0.0730895 1.94439 0
M  V30 25 C -2.56382 0.293439 2.73409 0
M  V30 26 H 6.65471 0.778217 2.83765 0
M  V30 27 H 6.74541 1.7028 1.30499 0
M  V30 28 H 5.67006 2.2933 2.60101 0
M  V30 29 H 3.93206 2.41811 0.913177 0
M  V30 30 H 3.52281 1.79258 2.53339 0
M  V30 31 H 1.71381 1.4155 0.933253 0
M  V30 32 H 2.41536 -0.163269 1.60253 0
M  V30 33 H 4.56433 1.16575 -1.39029 0
M  V30 34 H 4.41098 -0.593274 -1.51857 0
M  V30 35 H 6.23788 0.413148 -0.0334209 0
M  V30 36 H 5.41824 -1.08064 0.439994 0
M  V30 37 H 3.10806 -0.284609 -3.02682 0
M  V30 38 H 1.27775 -0.918207 -4.57554 0
M  V30 39 H -1.51011 -2.12928 -4.08694 0
M  V30 40 H -1.87158 -0.422945 -4.40669 0
M  V30 41 H 0.386876 0.085816 0.167916 0
M  V30 42 H -1.46398 -0.0404618 0.726788 0
M  V30 43 H -4.68824 -0.968442 -1.15109 0
M  V30 44 H -7.61829 -2.02071 -0.192911 0
M  V30 45 H -7.49484 -0.481178 -1.06881 0
M  V30 46 H -7.09708 -0.493088 2.23511 0
M  V30 47 H -5.08975 0.129858 3.57824 0
M  V30 48 H -2.86839 0.503453 3.77983 0
M  V30 49 H -1.76246 -0.47098 2.69568 0
M  V30 50 H -2.19702 1.27841 2.33905 0
M  V30 END ATOM
M  V30 BEGIN BOND
M  V30 1 1 1 2
M  V30 2 1 2 3
M  V30 3 1 3 4
M  V30 4 1 4 5
M  V30 5 1 5 6
M  V30 6 1 6 7
M  V30 7 1 5 8
M  V30 8 2 8 9
M  V30 9 1 9 10
M  V30 10 2 10 11
M  V30 11 1 11 12
M  V30 12 1 11 13
M  V30 13 2 13 14
M  V30 14 1 13 15
M  V30 15 2 15 16
M  V30 16 1 15 17
M  V30 17 1 17 18
M  V30 18 2 18 19
M  V30 19 1 19 20
M  V30 20 1 20 21
M  V30 21 2 20 22
M  V30 22 1 22 23
M  V30 23 2 23 24
M  V30 24 1 24 25
M  V30 25 1 7 2
M  V30 26 1 14 8
M  V30 27 1 24 18
M  V30 28 1 1 26
M  V30 29 1 1 27
M  V30 30 1 1 28
M  V30 31 1 3 29
M  V30 32 1 3 30
M  V30 33 1 4 31
M  V30 34 1 4 32
M  V30 35 1 6 33
M  V30 36 1 6 34
M  V30 37 1 7 35
M  V30 38 1 7 36
M  V30 39 1 9 37
M  V30 40 1 10 38
M  V30 41 1 12 39
M  V30 42 1 12 40
M  V30 43 1 14 41
M  V30 44 1 17 42
M  V30 45 1 19 43
M  V30 46 1 21 44
M  V30 47 1 21 45
M  V30 48 1 22 46
M  V30 49 1 23 47
M  V30 50 1 25 48
M  V30 51 1 25 49
M  V30 52 1 25 50
M  V30 END BOND
M  V30 END CTAB
M  END
