
     RDKit          3D

  0  0  0  0  0  0  0  0  0  0999 V3000
M  V30 BEGIN CTAB
M  V30 COUNTS 24 25 0 0 0
M  V30 BEGIN ATOM
M  V30 1 N -3.8572 1.68999 1.11487 0
M  V30 2 C -2.86172 0.847625 0.558241 0
M  V30 3 N -1.56739 0.738022 0.976109 0
M  V30 4 N -0.925812 -0.142094 0.226791 0
M  V30 5 C -1.74487 -0.652896 -0.709592 0
M  V30 6 C -2.95981 -0.0336105 -0.503719 0
M  V30 7 N -1.40737 -1.63263 -1.70228 0
M  V30 8 C 0.437267 -0.501303 0.384506 0
M  V30 9 N 0.857761 -1.66841 0.872503 0
M  V30 10 C 2.18728 -1.91405 0.982763 0
M  V30 11 N 3.11871 -1.01573 0.614792 0
M  V30 12 C 2.72114 0.160025 0.123336 0
M  V30 13 C 1.38189 0.435159 0.000747331 0
M  V30 14 C 3.74328 1.15622 -0.284803 0
M  V30 15 H -4.86786 1.47883 1.03351 0
M  V30 16 H -3.57991 2.54948 1.62311 0
M  V30 17 H -3.86309 -0.189673 -1.06468 0
M  V30 18 H -1.43931 -2.657 -1.49895 0
M  V30 19 H -1.11549 -1.37295 -2.66914 0
M  V30 20 H 2.54342 -2.85202 1.37506 0
M  V30 21 H 1.11621 1.40106 -0.402627 0
M  V30 22 H 4.3079 0.732735 -1.11704 0
M  V30 23 H 3.29165 2.13684 -0.483808 0
M  V30 24 H 4.4833 1.30638 0.550292 0
M  V30 END ATOM
M  V30 BEGIN BOND
M  V30 1 1 1 2
M  V30 2 2 2 3
M  V30 3 1 3 4
M  V30 4 1 4 5
M  V30 5 2 5 6
M  V30 6 1 5 7
M  V30 7 1 4 8
M  V30 8 2 8 9
M  V30 9 1 9 10
M  V30 10 2 10 11
M  V30 11 1 11 12
M  V30 12 2 12 13
M  V30 13 1 12 14
M  V30 14 1 6 2
M  V30 15 1 13 8
M  V30 16 1 1 15
M  V30 17 1 1 16
M  V30 18 1 6 17
M  V30 19 1 7 18
M  V30 20 1 7 19
M  V30 21 1 10 20
M  V30 22 1 13 21
M  V30 23 1 14 22
M  V30 24 1 14 23
M  V30 25 1 14 24
M  V30 END BOND
M  V30 END CTAB
M  END
