
     RDKit          3D

  0  0  0  0  0  0  0  0  0  0999 V3000
M  V30 BEGIN CTAB
M  V30 COUNTS 27 28 0 0 0
M  V30 BEGIN ATOM
M  V30 1 N -3.67806 1.65815 -0.409612 0
M  V30 2 C -3.48682 0.38416 0.210145 0
M  V30 3 C -2.40936 -0.404269 -0.461049 0 CFG=1
M  V30 4 O -1.17549 0.289644 -0.406712 0
M  V30 5 C -0.297874 -0.75767 -0.584032 0 CFG=2
M  V30 6 C -0.817937 -1.82839 0.23439 0
M  V30 7 C -2.12384 -1.65207 0.338749 0
M  V30 8 N 1.03204 -0.309488 -0.275145 0
M  V30 9 C 1.67914 -0.502823 0.87501 0
M  V30 10 C 2.97677 -0.0290285 1.08775 0
M  V30 11 C 3.61226 0.664143 0.0712344 0
M  V30 12 N 4.93887 1.16492 0.248862 0
M  V30 13 N 2.93854 0.839538 -1.06332 0
M  V30 14 C 1.67104 0.367618 -1.24893 0
M  V30 15 O 1.1602 0.609494 -2.37381 0
M  V30 16 H -4.6856 1.93563 -0.411552 0
M  V30 17 H -3.15079 2.42569 0.0741423 0
M  V30 18 H -3.20739 0.494951 1.2768 0
M  V30 19 H -4.41365 -0.221128 0.185632 0
M  V30 20 H -2.58645 -0.623364 -1.52238 0
M  V30 21 H -0.312435 -1.09332 -1.65251 0
M  V30 22 H -0.279059 -2.63806 0.69308 0
M  V30 23 H -2.88515 -2.21302 0.851126 0
M  V30 24 H 1.16804 -1.04418 1.65337 0
M  V30 25 H 3.49306 -0.188562 2.01823 0
M  V30 26 H 5.19798 1.73281 1.06661 0
M  V30 27 H 5.64197 0.938634 -0.476078 0
M  V30 END ATOM
M  V30 BEGIN BOND
M  V30 1 1 1 2
M  V30 2 1 2 3
M  V30 3 1 3 4
M  V30 4 1 4 5
M  V30 5 1 5 6
M  V30 6 2 6 7
M  V30 7 1 5 8
M  V30 8 1 8 9
M  V30 9 2 9 10
M  V30 10 1 10 11
M  V30 11 1 11 12
M  V30 12 2 11 13
M  V30 13 1 13 14
M  V30 14 2 14 15
M  V30 15 1 7 3
M  V30 16 1 14 8
M  V30 17 1 1 16
M  V30 18 1 1 17
M  V30 19 1 2 18
M  V30 20 1 2 19
M  V30 21 1 3 20 CFG=3
M  V30 22 1 5 21 CFG=3
M  V30 23 1 6 22
M  V30 24 1 7 23
M  V30 25 1 9 24
M  V30 26 1 10 25
M  V30 27 1 12 26
M  V30 28 1 12 27
M  V30 END BOND
M  V30 END CTAB
M  END
