
     RDKit          3D

  0  0  0  0  0  0  0  0  0  0999 V3000
M  V30 BEGIN CTAB
M  V30 COUNTS 39 40 0 0 0
M  V30 BEGIN ATOM
M  V30 1 N 5.35604 0.362402 0.222308 0
M  V30 2 C 3.95375 0.588774 0.307306 0
M  V30 3 C 3.18378 -0.455273 1.01612 0
M  V30 4 C 1.73631 -0.553064 0.793004 0
M  V30 5 N 1.14298 0.199399 -0.252154 0
M  V30 6 C 2.01983 1.1499 -0.962902 0
M  V30 7 C 3.40877 0.632435 -1.12645 0
M  V30 8 C -0.197582 0.120705 -0.659227 0
M  V30 9 O -0.525253 0.880144 -1.64323 0
M  V30 10 C -1.27655 -0.705437 -0.121384 0
M  V30 11 C -2.5918 -0.037338 0.0140823 0
M  V30 12 C -3.26384 -0.109037 1.21612 0
M  V30 13 C -4.51345 0.49145 1.35623 0
M  V30 14 C -5.1311 1.16921 0.337419 0
M  V30 15 C -4.45798 1.23638 -0.855095 0
M  V30 16 C -3.20045 0.637881 -1.01365 0
M  V30 17 Br -6.84894 1.98294 0.565285 0
M  V30 18 N -0.982369 -1.4718 1.0457 0
M  V30 19 C -1.55844 -1.81326 -1.18826 0
M  V30 20 H 5.94243 1.11404 0.63967 0
M  V30 21 H 5.66822 -0.598097 0.438765 0
M  V30 22 H 3.77388 1.57773 0.774291 0
M  V30 23 H 3.67079 -1.44116 0.738476 0
M  V30 24 H 3.45857 -0.369591 2.11368 0
M  V30 25 H 1.48485 -1.63217 0.587983 0
M  V30 26 H 1.26149 -0.196622 1.75683 0
M  V30 27 H 2.06307 2.06524 -0.345971 0
M  V30 28 H 1.60192 1.35397 -1.9592 0
M  V30 29 H 3.99198 1.36898 -1.67379 0
M  V30 30 H 3.41835 -0.382591 -1.56657 0
M  V30 31 H -2.87394 -0.625871 2.10347 0
M  V30 32 H -5.0503 0.439108 2.30274 0
M  V30 33 H -4.93368 1.7667 -1.6637 0
M  V30 34 H -2.79792 0.750966 -1.99377 0
M  V30 35 H -1.26398 -2.45187 1.04352 0
M  V30 36 H -0.933503 -0.998695 1.93984 0
M  V30 37 H -2.03408 -1.29786 -2.02549 0
M  V30 38 H -0.54895 -2.13644 -1.51898 0
M  V30 39 H -2.15292 -2.61217 -0.743019 0
M  V30 END ATOM
M  V30 BEGIN BOND
M  V30 1 1 1 2
M  V30 2 1 2 3
M  V30 3 1 3 4
M  V30 4 1 4 5
M  V30 5 1 5 6
M  V30 6 1 6 7
M  V30 7 1 5 8
M  V30 8 2 8 9
M  V30 9 1 8 10
M  V30 10 1 10 11
M  V30 11 2 11 12
M  V30 12 1 12 13
M  V30 13 2 13 14
M  V30 14 1 14 15
M  V30 15 2 15 16
M  V30 16 1 14 17
M  V30 17 1 10 18
M  V30 18 1 10 19
M  V30 19 1 7 2
M  V30 20 1 16 11
M  V30 21 1 1 20
M  V30 22 1 1 21
M  V30 23 1 2 22
M  V30 24 1 3 23
M  V30 25 1 3 24
M  V30 26 1 4 25
M  V30 27 1 4 26
M  V30 28 1 6 27
M  V30 29 1 6 28
M  V30 30 1 7 29
M  V30 31 1 7 30
M  V30 32 1 12 31
M  V30 33 1 13 32
M  V30 34 1 15 33
M  V30 35 1 16 34
M  V30 36 1 18 35
M  V30 37 1 18 36
M  V30 38 1 19 37
M  V30 39 1 19 38
M  V30 40 1 19 39
M  V30 END BOND
M  V30 END CTAB
M  END
