
     RDKit          3D

  0  0  0  0  0  0  0  0  0  0999 V3000
M  V30 BEGIN CTAB
M  V30 COUNTS 18 18 0 0 0
M  V30 BEGIN ATOM
M  V30 1 N -3.86047 -0.215485 0.18546 0
M  V30 2 N -2.51704 0.100209 0.185745 0
M  V30 3 C -1.49507 -0.790756 -0.241556 0
M  V30 4 O -1.88317 -1.92729 -0.636734 0
M  V30 5 C -0.0966066 -0.371755 -0.207099 0
M  V30 6 N 0.732205 -1.24989 -0.612443 0
M  V30 7 N 2.07613 -1.15189 -0.694486 0
M  V30 8 C 2.73153 -0.129415 -0.366097 0
M  V30 9 S 1.9376 1.31459 0.250052 0
M  V30 10 C 0.175816 0.986959 0.28231 0
M  V30 11 N 4.13724 -0.161731 -0.502962 0
M  V30 12 H -4.40731 0.635802 -0.0695613 0
M  V30 13 H -4.18667 -0.535041 1.11969 0
M  V30 14 H -2.25477 1.07097 0.529415 0
M  V30 15 H -0.132882 1.00003 1.35654 0
M  V30 16 H -0.381861 1.76028 -0.290007 0
M  V30 17 H 4.68059 -1.02832 -0.7677 0
M  V30 18 H 4.74475 0.692724 -0.346734 0
M  V30 END ATOM
M  V30 BEGIN BOND
M  V30 1 1 1 2
M  V30 2 1 2 3
M  V30 3 2 3 4
M  V30 4 1 3 5
M  V30 5 2 5 6
M  V30 6 1 6 7
M  V30 7 2 7 8
M  V30 8 1 8 9
M  V30 9 1 9 10
M  V30 10 1 8 11
M  V30 11 1 10 5
M  V30 12 1 1 12
M  V30 13 1 1 13
M  V30 14 1 2 14
M  V30 15 1 10 15
M  V30 16 1 10 16
M  V30 17 1 11 17
M  V30 18 1 11 18
M  V30 END BOND
M  V30 END CTAB
M  END
