
     RDKit          3D

  0  0  0  0  0  0  0  0  0  0999 V3000
M  V30 BEGIN CTAB
M  V30 COUNTS 26 27 0 0 0
M  V30 BEGIN ATOM
M  V30 1 N 1.26936 -1.13394 1.87432 0
M  V30 2 C 1.63507 -0.49237 0.677373 0
M  V30 3 C 2.99579 -0.323792 0.46564 0
M  V30 4 Br 4.26097 -0.980983 1.7161 0
M  V30 5 C 3.42418 0.323451 -0.654905 0
M  V30 6 C 2.49632 0.796434 -1.55338 0
M  V30 7 Br 3.11364 1.71099 -3.13041 0
M  V30 8 C 1.14684 0.622174 -1.33266 0
M  V30 9 C 0.694185 -0.0356014 -0.196226 0
M  V30 10 C -0.718569 -0.242083 -0.0376935 0
M  V30 11 C -1.31933 -1.50108 0.0909792 0
M  V30 12 C -2.69004 -1.65522 0.19363 0
M  V30 13 Br -3.37823 -3.41781 0.36167 0
M  V30 14 C -3.5177 -0.565767 0.171631 0
M  V30 15 C -2.93538 0.678937 0.0445322 0
M  V30 16 Br -4.10971 2.18537 0.0129904 0
M  V30 17 C -1.57335 0.849394 -0.0585609 0
M  V30 18 N -1.02584 2.13 -0.177617 0
M  V30 19 H 1.68161 -0.764406 2.76287 0
M  V30 20 H 0.63402 -1.92743 1.89775 0
M  V30 21 H 4.46922 0.480343 -0.868587 0
M  V30 22 H 0.489656 1.02461 -2.08887 0
M  V30 23 H -0.713567 -2.3767 0.094341 0
M  V30 24 H -4.58022 -0.724431 0.252699 0
M  V30 25 H -0.100216 2.46842 0.109384 0
M  V30 26 H -1.64871 2.87149 -0.626998 0
M  V30 END ATOM
M  V30 BEGIN BOND
M  V30 1 1 1 2
M  V30 2 2 2 3
M  V30 3 1 3 4
M  V30 4 1 3 5
M  V30 5 2 5 6
M  V30 6 1 6 7
M  V30 7 1 6 8
M  V30 8 2 8 9
M  V30 9 1 9 10
M  V30 10 2 10 11
M  V30 11 1 11 12
M  V30 12 1 12 13
M  V30 13 2 12 14
M  V30 14 1 14 15
M  V30 15 1 15 16
M  V30 16 2 15 17
M  V30 17 1 17 18
M  V30 18 1 9 2
M  V30 19 1 17 10
M  V30 20 1 1 19
M  V30 21 1 1 20
M  V30 22 1 5 21
M  V30 23 1 8 22
M  V30 24 1 11 23
M  V30 25 1 14 24
M  V30 26 1 18 25
M  V30 27 1 18 26
M  V30 END BOND
M  V30 END CTAB
M  END
