
     RDKit          3D

  0  0  0  0  0  0  0  0  0  0999 V3000
M  V30 BEGIN CTAB
M  V30 COUNTS 22 22 0 0 0
M  V30 BEGIN ATOM
M  V30 1 C 3.91149 -0.195372 -0.0742003 0
M  V30 2 C 3.14337 0.958541 -0.667179 0
M  V30 3 O 1.78397 0.966393 -0.269072 0
M  V30 4 C 0.968428 -0.0881405 -0.56092 0
M  V30 5 O 1.43186 -1.07364 -1.189 0
M  V30 6 C -0.453658 -0.132834 -0.171011 0
M  V30 7 N -1.23225 -1.18179 -0.470748 0
M  V30 8 C -2.5407 -1.22296 -0.112062 0
M  V30 9 N -3.36833 -2.33614 -0.429775 0
M  V30 10 N -3.09199 -0.196901 0.561732 0
M  V30 11 C -2.3301 0.857805 0.869197 0
M  V30 12 N -1.02905 0.879084 0.50269 0
M  V30 13 N -2.87926 1.97043 1.58571 0
M  V30 14 H 4.98953 0.104903 -0.073036 0
M  V30 15 H 3.83942 -1.12183 -0.662421 0
M  V30 16 H 3.55234 -0.326314 0.975037 0
M  V30 17 H 3.59069 1.89163 -0.225269 0
M  V30 18 H 3.24596 1.01293 -1.77294 0
M  V30 19 H -4.35306 -2.25745 -0.753566 0
M  V30 20 H -2.98853 -3.30294 -0.341077 0
M  V30 21 H -3.45945 2.6808 1.07602 0
M  V30 22 H -2.73068 2.11381 2.6022 0
M  V30 END ATOM
M  V30 BEGIN BOND
M  V30 1 1 1 2
M  V30 2 1 2 3
M  V30 3 1 3 4
M  V30 4 2 4 5
M  V30 5 1 4 6
M  V30 6 2 6 7
M  V30 7 1 7 8
M  V30 8 1 8 9
M  V30 9 2 8 10
M  V30 10 1 10 11
M  V30 11 2 11 12
M  V30 12 1 11 13
M  V30 13 1 12 6
M  V30 14 1 1 14
M  V30 15 1 1 15
M  V30 16 1 1 16
M  V30 17 1 2 17
M  V30 18 1 2 18
M  V30 19 1 9 19
M  V30 20 1 9 20
M  V30 21 1 13 21
M  V30 22 1 13 22
M  V30 END BOND
M  V30 END CTAB
M  END
