
     RDKit          3D

  0  0  0  0  0  0  0  0  0  0999 V3000
M  V30 BEGIN CTAB
M  V30 COUNTS 23 23 0 0 0
M  V30 BEGIN ATOM
M  V30 1 O 2.1697 -2.26388 -1.2727 0
M  V30 2 N 2.12962 -1.01496 -1.0697 0
M  V30 3 C 1.66883 0.0539507 -0.719801 0
M  V30 4 C 0.359269 0.34625 -0.135276 0
M  V30 5 C -0.0803984 1.62889 0.238107 0
M  V30 6 N 0.665794 2.84054 0.110918 0
M  V30 7 O -1.27293 1.47982 0.708542 0
M  V30 8 C -1.66888 0.245843 0.687672 0
M  V30 9 C -0.647951 -0.548473 0.147085 0
M  V30 10 C -0.69359 -2.02303 -0.0549122 0
M  V30 11 C -2.97757 -0.324962 1.14312 0
M  V30 12 N 2.52814 1.21328 -0.901686 0
M  V30 13 H 2.55806 -2.99297 -0.688611 0
M  V30 14 H 0.415579 3.573 -0.584584 0
M  V30 15 H 1.49095 3.02756 0.717572 0
M  V30 16 H -1.73527 -2.35497 0.268742 0
M  V30 17 H 0.0387972 -2.57796 0.534593 0
M  V30 18 H -0.633358 -2.33249 -1.10864 0
M  V30 19 H -2.87476 -1.31133 1.60047 0
M  V30 20 H -3.32304 0.365994 1.96046 0
M  V30 21 H -3.75495 -0.256198 0.358581 0
M  V30 22 H 2.32921 1.84505 -1.67941 0
M  V30 23 H 3.30874 1.38105 -0.26055 0
M  V30 END ATOM
M  V30 BEGIN BOND
M  V30 1 1 1 2
M  V30 2 2 2 3 CFG=2
M  V30 3 1 3 4
M  V30 4 2 4 5
M  V30 5 1 5 6
M  V30 6 1 5 7
M  V30 7 1 7 8
M  V30 8 2 8 9
M  V30 9 1 9 10
M  V30 10 1 8 11
M  V30 11 1 3 12
M  V30 12 1 9 4
M  V30 13 1 1 13
M  V30 14 1 6 14
M  V30 15 1 6 15
M  V30 16 1 10 16
M  V30 17 1 10 17
M  V30 18 1 10 18
M  V30 19 1 11 19
M  V30 20 1 11 20
M  V30 21 1 11 21
M  V30 22 1 12 22
M  V30 23 1 12 23
M  V30 END BOND
M  V30 END CTAB
M  END
