
     RDKit          3D

  0  0  0  0  0  0  0  0  0  0999 V3000
M  V30 BEGIN CTAB
M  V30 COUNTS 26 27 0 0 0
M  V30 BEGIN ATOM
M  V30 1 C -1.68836 1.21923 1.38958 0
M  V30 2 C -1.28602 0.109332 0.43622 0
M  V30 3 C -2.06521 -1.17085 0.549109 0
M  V30 4 C -2.02228 -1.20715 -0.978708 0
M  V30 5 C -1.96488 0.326066 -0.92231 0
M  V30 6 C 0.163128 -0.00660291 0.240213 0
M  V30 7 N 0.835668 1.11314 0.0324031 0
M  V30 8 C 2.13592 1.21597 -0.199452 0
M  V30 9 N 2.79809 2.44491 -0.414363 0
M  V30 10 N 2.82238 0.0432191 -0.240996 0
M  V30 11 C 2.18198 -1.10447 -0.047861 0
M  V30 12 N 0.852432 -1.18106 0.2056 0
M  V30 13 N 2.97651 -2.28433 -0.103792 0
M  V30 14 H -1.66848 0.957002 2.44638 0
M  V30 15 H -2.65737 1.61382 1.03184 0
M  V30 16 H -0.949626 2.0582 1.22118 0
M  V30 17 H -3.1056 -0.953014 0.842564 0
M  V30 18 H -1.55766 -2.04076 0.98826 0
M  V30 19 H -2.96905 -1.48507 -1.46808 0
M  V30 20 H -1.09943 -1.63619 -1.40166 0
M  V30 21 H -2.95224 0.75486 -0.77789 0
M  V30 22 H -1.29235 0.812853 -1.61057 0
M  V30 23 H 2.73188 2.86045 -1.34368 0
M  V30 24 H 3.31021 2.8683 0.397917 0
M  V30 25 H 2.69948 -3.00595 -0.820827 0
M  V30 26 H 3.77087 -2.32192 0.54891 0
M  V30 END ATOM
M  V30 BEGIN BOND
M  V30 1 1 1 2
M  V30 2 1 2 3
M  V30 3 1 3 4
M  V30 4 1 4 5
M  V30 5 1 2 6
M  V30 6 2 6 7
M  V30 7 1 7 8
M  V30 8 1 8 9
M  V30 9 2 8 10
M  V30 10 1 10 11
M  V30 11 2 11 12
M  V30 12 1 11 13
M  V30 13 1 5 2
M  V30 14 1 12 6
M  V30 15 1 1 14
M  V30 16 1 1 15
M  V30 17 1 1 16
M  V30 18 1 3 17
M  V30 19 1 3 18
M  V30 20 1 4 19
M  V30 21 1 4 20
M  V30 22 1 5 21
M  V30 23 1 5 22
M  V30 24 1 9 23
M  V30 25 1 9 24
M  V30 26 1 13 25
M  V30 27 1 13 26
M  V30 END BOND
M  V30 END CTAB
M  END
