
     RDKit          3D

  0  0  0  0  0  0  0  0  0  0999 V3000
M  V30 BEGIN CTAB
M  V30 COUNTS 26 26 0 0 0
M  V30 BEGIN ATOM
M  V30 1 N -0.225529 2.39795 -0.871323 0
M  V30 2 C 0.726257 1.51793 -0.276982 0
M  V30 3 C 0.333184 0.0403953 -0.424407 0
M  V30 4 C 1.41186 -0.726066 0.236789 0
M  V30 5 O 1.10795 -1.46442 1.2005 0
M  V30 6 N 2.76228 -0.623091 -0.21601 0
M  V30 7 N 3.73944 -1.35557 0.428817 0
M  V30 8 C -0.936241 -0.204259 0.314595 0
M  V30 9 C -2.13513 0.615114 -0.154828 0
M  V30 10 C -2.96674 -0.625308 0.213434 0
M  V30 11 C -1.72018 -1.41866 -0.20853 0
M  V30 12 H -0.167412 3.32487 -0.37146 0
M  V30 13 H 0.00447922 2.58943 -1.86971 0
M  V30 14 H 0.865351 1.74202 0.783323 0
M  V30 15 H 1.71572 1.6207 -0.793623 0
M  V30 16 H 0.265085 -0.184561 -1.50816 0
M  V30 17 H 3.01682 -0.0209023 -1.00365 0
M  V30 18 H 3.29621 -2.18605 0.897779 0
M  V30 19 H 4.50193 -1.65976 -0.184643 0
M  V30 20 H -0.87106 -0.298786 1.40651 0
M  V30 21 H -2.35939 1.49951 0.434032 0
M  V30 22 H -2.15009 0.706144 -1.25693 0
M  V30 23 H -3.12019 -0.637456 1.30774 0
M  V30 24 H -3.84182 -0.790405 -0.418204 0
M  V30 25 H -1.55917 -2.337 0.366733 0
M  V30 26 H -1.69362 -1.52177 -1.31251 0
M  V30 END ATOM
M  V30 BEGIN BOND
M  V30 1 1 1 2
M  V30 2 1 2 3
M  V30 3 1 3 4
M  V30 4 2 4 5
M  V30 5 1 4 6
M  V30 6 1 6 7
M  V30 7 1 3 8
M  V30 8 1 8 9
M  V30 9 1 9 10
M  V30 10 1 10 11
M  V30 11 1 11 8
M  V30 12 1 1 12
M  V30 13 1 1 13
M  V30 14 1 2 14
M  V30 15 1 2 15
M  V30 16 1 3 16
M  V30 17 1 6 17
M  V30 18 1 7 18
M  V30 19 1 7 19
M  V30 20 1 8 20
M  V30 21 1 9 21
M  V30 22 1 9 22
M  V30 23 1 10 23
M  V30 24 1 10 24
M  V30 25 1 11 25
M  V30 26 1 11 26
M  V30 END BOND
M  V30 END CTAB
M  END
