
     RDKit          3D

  0  0  0  0  0  0  0  0  0  0999 V3000
M  V30 BEGIN CTAB
M  V30 COUNTS 29 30 0 0 0
M  V30 BEGIN ATOM
M  V30 1 N 5.67486 0.0105861 0.0936112 0
M  V30 2 C 4.27229 -0.12382 -0.103293 0
M  V30 3 C 3.56827 -1.23287 0.322635 0
M  V30 4 C 2.20119 -1.3253 0.111291 0
M  V30 5 C 1.51198 -0.313638 -0.528419 0
M  V30 6 O 0.14335 -0.397655 -0.744304 0
M  V30 7 C -0.753981 0.0891341 0.196704 0
M  V30 8 O -0.327482 0.60916 1.25053 0
M  V30 9 C -2.19053 -0.0039538 -0.0396162 0
M  V30 10 C -3.08011 0.476396 0.888841 0
M  V30 11 N -2.58801 1.06334 2.07856 0
M  V30 12 C -4.45724 0.405628 0.699321 0
M  V30 13 C -4.89411 -0.174685 -0.475224 0
M  V30 14 C -4.01455 -0.666037 -1.42601 0
M  V30 15 C -2.66806 -0.574789 -1.19665 0
M  V30 16 C 2.23448 0.780799 -0.943496 0
M  V30 17 C 3.59372 0.899015 -0.746624 0
M  V30 18 H 6.33171 -0.396605 -0.602217 0
M  V30 19 H 6.09945 0.502379 0.909346 0
M  V30 20 H 4.11264 -2.02041 0.822126 0
M  V30 21 H 1.63314 -2.2003 0.444949 0
M  V30 22 H -2.19858 2.03047 2.06254 0
M  V30 23 H -2.61198 0.542051 2.95919 0
M  V30 24 H -5.13316 0.789173 1.44187 0
M  V30 25 H -5.97163 -0.260074 -0.683503 0
M  V30 26 H -4.38749 -1.11972 -2.34535 0
M  V30 27 H -1.92434 -0.945697 -1.91156 0
M  V30 28 H 1.7084 1.57477 -1.44274 0
M  V30 29 H 4.11577 1.78109 -1.0925 0
M  V30 END ATOM
M  V30 BEGIN BOND
M  V30 1 1 1 2
M  V30 2 2 2 3
M  V30 3 1 3 4
M  V30 4 2 4 5
M  V30 5 1 5 6
M  V30 6 1 6 7
M  V30 7 2 7 8
M  V30 8 1 7 9
M  V30 9 2 9 10
M  V30 10 1 10 11
M  V30 11 1 10 12
M  V30 12 2 12 13
M  V30 13 1 13 14
M  V30 14 2 14 15
M  V30 15 1 5 16
M  V30 16 2 16 17
M  V30 17 1 17 2
M  V30 18 1 15 9
M  V30 19 1 1 18
M  V30 20 1 1 19
M  V30 21 1 3 20
M  V30 22 1 4 21
M  V30 23 1 11 22
M  V30 24 1 11 23
M  V30 25 1 12 24
M  V30 26 1 13 25
M  V30 27 1 14 26
M  V30 28 1 15 27
M  V30 29 1 16 28
M  V30 30 1 17 29
M  V30 END BOND
M  V30 END CTAB
M  END
