
     RDKit          3D

  0  0  0  0  0  0  0  0  0  0999 V3000
M  V30 BEGIN CTAB
M  V30 COUNTS 40 41 0 0 0
M  V30 BEGIN ATOM
M  V30 1 N 2.93358 -2.28884 0.637764 0
M  V30 2 C 3.85571 -1.37616 0.0771818 0
M  V30 3 C 5.21713 -1.60263 0.193124 0
M  V30 4 C 6.0643 -0.674542 -0.375584 0
M  V30 5 C 5.60357 0.45012 -1.04312 0
M  V30 6 C 4.24099 0.645364 -1.14034 0
M  V30 7 C 3.34557 -0.271337 -0.577753 0
M  V30 8 S 1.60295 0.0128109 -0.722825 0
M  V30 9 C 1.05358 0.98874 0.703077 0
M  V30 10 C -0.476622 1.19127 0.495932 0
M  V30 11 C -0.610684 1.90828 -0.785186 0
M  V30 12 C -1.92713 2.31002 -1.29111 0
M  V30 13 S -3.12174 1.08087 -1.69856 0
M  V30 14 C -3.7523 0.196334 -0.326315 0
M  V30 15 C -3.41995 -1.13198 -0.124613 0
M  V30 16 N -2.50008 -1.81733 -0.999543 0
M  V30 17 C -3.98474 -1.82101 0.920396 0
M  V30 18 C -4.87706 -1.2038 1.76706 0
M  V30 19 C -5.22271 0.116542 1.58521 0
M  V30 20 C -4.66011 0.799478 0.546289 0
M  V30 21 H 3.12124 -2.7581 1.57037 0
M  V30 22 H 2.03191 -2.55884 0.19135 0
M  V30 23 H 5.59415 -2.4858 0.717125 0
M  V30 24 H 7.14081 -0.802506 -0.314476 0
M  V30 25 H 6.28072 1.17969 -1.49039 0
M  V30 26 H 3.82525 1.51701 -1.6569 0
M  V30 27 H 1.47489 2.01288 0.672175 0
M  V30 28 H 1.25195 0.502962 1.65772 0
M  V30 29 H -0.852874 0.163407 0.544448 0
M  V30 30 H -0.861983 1.75865 1.37911 0
M  V30 31 H 0.0544728 2.83611 -0.698395 0
M  V30 32 H -0.0314351 1.30154 -1.5488 0
M  V30 33 H -1.70294 2.86892 -2.28161 0
M  V30 34 H -2.36571 3.12029 -0.608164 0
M  V30 35 H -2.45731 -1.46498 -1.97351 0
M  V30 36 H -1.96201 -2.59211 -0.603298 0
M  V30 37 H -3.73965 -2.85832 1.09692 0
M  V30 38 H -5.33029 -1.73298 2.59427 0
M  V30 39 H -5.92151 0.640532 2.22865 0
M  V30 40 H -4.91393 1.83944 0.37964 0
M  V30 END ATOM
M  V30 BEGIN BOND
M  V30 1 1 1 2
M  V30 2 2 2 3
M  V30 3 1 3 4
M  V30 4 2 4 5
M  V30 5 1 5 6
M  V30 6 2 6 7
M  V30 7 1 7 8
M  V30 8 1 8 9
M  V30 9 1 9 10
M  V30 10 1 10 11
M  V30 11 1 11 12
M  V30 12 1 12 13
M  V30 13 1 13 14
M  V30 14 2 14 15
M  V30 15 1 15 16
M  V30 16 1 15 17
M  V30 17 2 17 18
M  V30 18 1 18 19
M  V30 19 2 19 20
M  V30 20 1 7 2
M  V30 21 1 20 14
M  V30 22 1 1 21
M  V30 23 1 1 22
M  V30 24 1 3 23
M  V30 25 1 4 24
M  V30 26 1 5 25
M  V30 27 1 6 26
M  V30 28 1 9 27
M  V30 29 1 9 28
M  V30 30 1 10 29
M  V30 31 1 10 30
M  V30 32 1 11 31
M  V30 33 1 11 32
M  V30 34 1 12 33
M  V30 35 1 12 34
M  V30 36 1 16 35
M  V30 37 1 16 36
M  V30 38 1 17 37
M  V30 39 1 18 38
M  V30 40 1 19 39
M  V30 41 1 20 40
M  V30 END BOND
M  V30 END CTAB
M  END
