
     RDKit          3D

  0  0  0  0  0  0  0  0  0  0999 V3000
M  V30 BEGIN CTAB
M  V30 COUNTS 24 24 0 0 0
M  V30 BEGIN ATOM
M  V30 1 C 3.71658 0.13364 -0.408997 0
M  V30 2 C 2.2508 0.47095 -0.594669 0
M  V30 3 C 1.48325 -0.312478 0.438476 0 CFG=1
M  V30 4 C 0.00802631 -0.0517626 0.344313 0
M  V30 5 N -0.860159 -0.580509 -0.536701 0
M  V30 6 N -2.07683 -0.113786 -0.30975 0
M  V30 7 C -2.02843 0.749189 0.748089 0
M  V30 8 N -0.728208 0.760895 1.12336 0
M  V30 9 N -3.10589 1.46554 1.3158 0
M  V30 10 C -3.32484 -0.393147 -0.994431 0
M  V30 11 N 1.75772 -1.73709 0.324202 0
M  V30 12 H 3.9482 0.297595 0.666571 0
M  V30 13 H 3.86955 -0.957332 -0.640089 0
M  V30 14 H 4.37183 0.752779 -1.05903 0
M  V30 15 H 2.15843 1.56045 -0.315675 0
M  V30 16 H 1.90543 0.308084 -1.62089 0
M  V30 17 H 1.86989 -0.00590737 1.43262 0
M  V30 18 H -3.21747 2.47951 1.16632 0
M  V30 19 H -3.79439 0.95915 1.89224 0
M  V30 20 H -3.15889 -0.82094 -2.00209 0
M  V30 21 H -3.88364 -1.1566 -0.379464 0
M  V30 22 H -3.93103 0.536594 -1.03019 0
M  V30 23 H 1.23237 -2.23567 1.06777 0
M  V30 24 H 1.5377 -2.10915 -0.627803 0
M  V30 END ATOM
M  V30 BEGIN BOND
M  V30 1 1 1 2
M  V30 2 1 2 3
M  V30 3 1 3 4
M  V30 4 2 4 5
M  V30 5 1 5 6
M  V30 6 1 6 7
M  V30 7 2 7 8
M  V30 8 1 7 9
M  V30 9 1 6 10
M  V30 10 1 3 11
M  V30 11 1 8 4
M  V30 12 1 1 12
M  V30 13 1 1 13
M  V30 14 1 1 14
M  V30 15 1 2 15
M  V30 16 1 2 16
M  V30 17 1 3 17 CFG=1
M  V30 18 1 9 18
M  V30 19 1 9 19
M  V30 20 1 10 20
M  V30 21 1 10 21
M  V30 22 1 10 22
M  V30 23 1 11 23
M  V30 24 1 11 24
M  V30 END BOND
M  V30 END CTAB
M  END
