
     RDKit          3D

  0  0  0  0  0  0  0  0  0  0999 V3000
M  V30 BEGIN CTAB
M  V30 COUNTS 39 41 0 0 0
M  V30 BEGIN ATOM
M  V30 1 C -4.63626 -2.42927 0.240006 0
M  V30 2 C -3.47409 -1.52954 0.368571 0
M  V30 3 C -3.02516 -1.11186 1.6171 0
M  V30 4 C -1.93122 -0.260221 1.71139 0
M  V30 5 C -1.25721 0.196789 0.567068 0
M  V30 6 C -1.69991 -0.213584 -0.666861 0
M  V30 7 C -2.79418 -1.06299 -0.738981 0
M  V30 8 C -1.00354 0.208745 -1.87197 0
M  V30 9 C -0.241269 1.20334 0.734939 0
M  V30 10 N 1.02787 1.18955 0.214649 0
M  V30 11 C 1.73745 2.44642 0.144423 0
M  V30 12 N 3.07044 2.65493 0.348304 0
M  V30 13 O 3.31545 3.93125 0.122596 0
M  V30 14 N 2.24027 4.55031 -0.209546 0
M  V30 15 C 1.22544 3.67524 -0.211558 0
M  V30 16 N -0.0799357 4.10237 -0.540483 0
M  V30 17 N 1.76765 0.113744 -0.245892 0
M  V30 18 N 2.99789 -0.0282306 0.06332 0
M  V30 19 C 3.68127 -1.14678 -0.448545 0
M  V30 20 N 4.44217 -1.12968 -1.58544 0
M  V30 21 O 4.93602 -2.30853 -1.76233 0
M  V30 22 N 4.58285 -3.15102 -0.848686 0
M  V30 23 C 3.78599 -2.43428 -0.00548887 0
M  V30 24 N 3.17288 -2.97409 1.12751 0
M  V30 25 H -5.41582 -2.09357 0.969402 0
M  V30 26 H -4.34841 -3.4703 0.530668 0
M  V30 27 H -4.97091 -2.40394 -0.790797 0
M  V30 28 H -3.57942 -1.48962 2.45614 0
M  V30 29 H -1.66295 0.015644 2.71677 0
M  V30 30 H -3.12895 -1.36283 -1.72395 0
M  V30 31 H -0.342311 -0.609344 -2.27838 0
M  V30 32 H -0.538567 1.18684 -1.88659 0
M  V30 33 H -1.80659 0.265648 -2.67082 0
M  V30 34 H -0.768272 2.19739 0.862835 0
M  V30 35 H 0.0124249 1.09092 1.92487 0
M  V30 36 H -0.737824 4.45136 0.204676 0
M  V30 37 H -0.404395 4.08094 -1.52296 0
M  V30 38 H 2.12709 -3.09855 1.09437 0
M  V30 39 H 3.72405 -3.25319 1.98965 0
M  V30 END ATOM
M  V30 BEGIN BOND
M  V30 1 1 1 2
M  V30 2 2 2 3
M  V30 3 1 3 4
M  V30 4 2 4 5
M  V30 5 1 5 6
M  V30 6 2 6 7
M  V30 7 1 6 8
M  V30 8 1 5 9
M  V30 9 1 9 10
M  V30 10 1 10 11
M  V30 11 2 11 12
M  V30 12 1 12 13
M  V30 13 1 13 14
M  V30 14 2 14 15
M  V30 15 1 15 16
M  V30 16 1 10 17
M  V30 17 2 17 18
M  V30 18 1 18 19
M  V30 19 2 19 20
M  V30 20 1 20 21
M  V30 21 1 21 22
M  V30 22 2 22 23
M  V30 23 1 23 24
M  V30 24 1 7 2
M  V30 25 1 15 11
M  V30 26 1 23 19
M  V30 27 1 1 25
M  V30 28 1 1 26
M  V30 29 1 1 27
M  V30 30 1 3 28
M  V30 31 1 4 29
M  V30 32 1 7 30
M  V30 33 1 8 31
M  V30 34 1 8 32
M  V30 35 1 8 33
M  V30 36 1 9 34
M  V30 37 1 9 35
M  V30 38 1 16 36
M  V30 39 1 16 37
M  V30 40 1 24 38
M  V30 41 1 24 39
M  V30 END BOND
M  V30 END CTAB
M  END
