
     RDKit          3D

  0  0  0  0  0  0  0  0  0  0999 V3000
M  V30 BEGIN CTAB
M  V30 COUNTS 27 28 0 0 0
M  V30 BEGIN ATOM
M  V30 1 Cl 4.27662 3.46024 0.195186 0
M  V30 2 C 3.42078 1.92327 0.141401 0
M  V30 3 C 2.20846 1.78819 0.763957 0
M  V30 4 C 1.51534 0.591304 0.736753 0
M  V30 5 C 1.9989 -0.517575 0.090087 0
M  V30 6 C 3.23927 -0.352289 -0.537358 0
M  V30 7 C 3.92785 0.835891 -0.510412 0
M  V30 8 Br 3.97766 -1.85163 -1.45772 0
M  V30 9 O 1.34016 -1.72328 0.0421168 0
M  V30 10 C 0.111137 -2.02521 0.605318 0
M  V30 11 C -1.03266 -1.22424 0.077851 0
M  V30 12 N -0.975445 -0.541595 -1.0899 0
M  V30 13 C -2.0817 0.138055 -1.44382 0
M  V30 14 N -2.14212 0.898863 -2.65888 0
M  V30 15 N -3.19397 0.148543 -0.687859 0
M  V30 16 C -3.24147 -0.537681 0.479064 0
M  V30 17 N -2.14375 -1.21514 0.835296 0
M  V30 18 N -4.42755 -0.501223 1.24342 0
M  V30 19 H 1.81237 2.6513 1.27781 0
M  V30 20 H 0.565808 0.544397 1.25489 0
M  V30 21 H 4.89843 0.951187 -1.00617 0
M  V30 22 H 0.168714 -1.75376 1.70161 0
M  V30 23 H -0.174828 -3.08706 0.480587 0
M  V30 24 H -2.72605 1.76334 -2.74116 0
M  V30 25 H -1.60604 0.611986 -3.49408 0
M  V30 26 H -5.32859 -0.320289 0.779831 0
M  V30 27 H -4.38733 -0.655596 2.26104 0
M  V30 END ATOM
M  V30 BEGIN BOND
M  V30 1 1 1 2
M  V30 2 2 2 3
M  V30 3 1 3 4
M  V30 4 2 4 5
M  V30 5 1 5 6
M  V30 6 2 6 7
M  V30 7 1 6 8
M  V30 8 1 5 9
M  V30 9 1 9 10
M  V30 10 1 10 11
M  V30 11 2 11 12
M  V30 12 1 12 13
M  V30 13 1 13 14
M  V30 14 2 13 15
M  V30 15 1 15 16
M  V30 16 2 16 17
M  V30 17 1 16 18
M  V30 18 1 7 2
M  V30 19 1 17 11
M  V30 20 1 3 19
M  V30 21 1 4 20
M  V30 22 1 7 21
M  V30 23 1 10 22
M  V30 24 1 10 23
M  V30 25 1 14 24
M  V30 26 1 14 25
M  V30 27 1 18 26
M  V30 28 1 18 27
M  V30 END BOND
M  V30 END CTAB
M  END
