
     RDKit          3D

  0  0  0  0  0  0  0  0  0  0999 V3000
M  V30 BEGIN CTAB
M  V30 COUNTS 20 21 0 0 0
M  V30 BEGIN ATOM
M  V30 1 N -2.67608 -1.79215 -0.0999319 0
M  V30 2 C -1.765 -0.70261 -0.0849741 0
M  V30 3 C -2.22012 0.601475 -0.1726 0
M  V30 4 C -1.35691 1.67722 -0.160314 0
M  V30 5 C 0.00296819 1.48906 -0.0593091 0
M  V30 6 N 0.877109 2.52103 -0.0443802 0
M  V30 7 N 2.18351 2.33424 0.0529137 0
M  V30 8 C 2.73004 1.10411 0.143572 0
M  V30 9 C 1.84378 0.0412392 0.129155 0
M  V30 10 N 2.36691 -1.26927 0.221678 0
M  V30 11 C 0.476812 0.208208 0.0285853 0
M  V30 12 C -0.398112 -0.86973 0.0155957 0
M  V30 13 H -3.64692 -1.71677 0.269647 0
M  V30 14 H -2.39459 -2.71702 -0.488643 0
M  V30 15 H -3.27937 0.761965 -0.251887 0
M  V30 16 H -1.72473 2.69447 -0.229535 0
M  V30 17 H 3.81079 0.966389 0.223321 0
M  V30 18 H 2.26768 -1.86013 1.05654 0
M  V30 19 H 2.88081 -1.62237 -0.636156 0
M  V30 20 H 0.0214437 -1.84936 0.0867185 0
M  V30 END ATOM
M  V30 BEGIN BOND
M  V30 1 1 1 2
M  V30 2 2 2 3
M  V30 3 1 3 4
M  V30 4 2 4 5
M  V30 5 1 5 6
M  V30 6 2 6 7
M  V30 7 1 7 8
M  V30 8 2 8 9
M  V30 9 1 9 10
M  V30 10 1 9 11
M  V30 11 2 11 12
M  V30 12 1 12 2
M  V30 13 1 11 5
M  V30 14 1 1 13
M  V30 15 1 1 14
M  V30 16 1 3 15
M  V30 17 1 4 16
M  V30 18 1 8 17
M  V30 19 1 10 18
M  V30 20 1 10 19
M  V30 21 1 12 20
M  V30 END BOND
M  V30 END CTAB
M  END
