
     RDKit          3D

  0  0  0  0  0  0  0  0  0  0999 V3000
M  V30 BEGIN CTAB
M  V30 COUNTS 18 18 0 0 0
M  V30 BEGIN ATOM
M  V30 1 N -2.10079 -1.91972 -0.0842641 0
M  V30 2 C -1.9161 -0.5242 0.453307 0
M  V30 3 C -0.416928 -0.314326 0.297672 0
M  V30 4 S 0.902491 -1.40131 0.416573 0
M  V30 5 C 2.11602 -0.238473 -0.174436 0
M  V30 6 N 1.43108 0.842871 -0.43926 0
M  V30 7 C 0.13636 0.819374 -0.200183 0
M  V30 8 C -0.63914 2.12686 -0.29051 0
M  V30 9 F -1.49677 2.26101 0.784242 0
M  V30 10 F -1.15061 2.29618 -1.47983 0
M  V30 11 F 0.256694 3.21984 -0.0478487 0
M  V30 12 N 3.49195 -0.579052 -0.171485 0
M  V30 13 H -1.24713 -2.3998 -0.394268 0
M  V30 14 H -2.72764 -2.49728 0.45025 0
M  V30 15 H -2.13697 -0.633305 1.50385 0
M  V30 16 H -2.45345 0.14651 -0.142072 0
M  V30 17 H 4.13219 0.19741 0.185377 0
M  V30 18 H 3.81874 -1.40258 -0.667112 0
M  V30 END ATOM
M  V30 BEGIN BOND
M  V30 1 1 1 2
M  V30 2 1 2 3
M  V30 3 1 3 4
M  V30 4 1 4 5
M  V30 5 2 5 6
M  V30 6 1 6 7
M  V30 7 1 7 8
M  V30 8 1 8 9
M  V30 9 1 8 10
M  V30 10 1 8 11
M  V30 11 1 5 12
M  V30 12 2 7 3
M  V30 13 1 1 13
M  V30 14 1 1 14
M  V30 15 1 2 15
M  V30 16 1 2 16
M  V30 17 1 12 17
M  V30 18 1 12 18
M  V30 END BOND
M  V30 END CTAB
M  END
