
     RDKit          3D

  0  0  0  0  0  0  0  0  0  0999 V3000
M  V30 BEGIN CTAB
M  V30 COUNTS 22 22 0 0 0
M  V30 BEGIN ATOM
M  V30 1 O -3.58303 0.216808 -0.427484 0
M  V30 2 C -2.78755 -0.909913 -0.671025 0
M  V30 3 C -2.36768 -1.54145 0.653696 0
M  V30 4 S -1.43355 -0.301896 1.56478 0
M  V30 5 C 0.114653 0.0872708 0.773139 0
M  V30 6 C 0.920452 1.03184 1.36607 0
M  V30 7 C 2.14325 1.36334 0.780045 0
M  V30 8 N 2.9859 2.3391 1.38457 0
M  V30 9 N 2.46618 0.726645 -0.351641 0
M  V30 10 C 1.7036 -0.187436 -0.939004 0
M  V30 11 N 0.535401 -0.4897 -0.359226 0
M  V30 12 N 2.12269 -0.817647 -2.14086 0
M  V30 13 H -4.41209 0.198342 -0.985586 0
M  V30 14 H -1.88597 -0.621309 -1.2686 0
M  V30 15 H -3.36298 -1.63541 -1.28588 0
M  V30 16 H -1.71703 -2.39817 0.383846 0
M  V30 17 H -3.2375 -1.88335 1.21051 0
M  V30 18 H 0.677352 1.55823 2.28387 0
M  V30 19 H 2.98228 2.51435 2.41194 0
M  V30 20 H 3.62015 2.89251 0.797394 0
M  V30 21 H 1.56109 -1.62002 -2.52691 0
M  V30 22 H 2.95439 -0.522134 -2.65364 0
M  V30 END ATOM
M  V30 BEGIN BOND
M  V30 1 1 1 2
M  V30 2 1 2 3
M  V30 3 1 3 4
M  V30 4 1 4 5
M  V30 5 2 5 6
M  V30 6 1 6 7
M  V30 7 1 7 8
M  V30 8 2 7 9
M  V30 9 1 9 10
M  V30 10 2 10 11
M  V30 11 1 10 12
M  V30 12 1 11 5
M  V30 13 1 1 13
M  V30 14 1 2 14
M  V30 15 1 2 15
M  V30 16 1 3 16
M  V30 17 1 3 17
M  V30 18 1 6 18
M  V30 19 1 8 19
M  V30 20 1 8 20
M  V30 21 1 12 21
M  V30 22 1 12 22
M  V30 END BOND
M  V30 END CTAB
M  END
