
     RDKit          3D

  0  0  0  0  0  0  0  0  0  0999 V3000
M  V30 BEGIN CTAB
M  V30 COUNTS 27 28 0 0 0
M  V30 BEGIN ATOM
M  V30 1 C -0.777838 -1.99441 -0.566943 0
M  V30 2 N -1.04367 -0.637812 -0.129111 0
M  V30 3 N -0.151176 0.311939 0.0825916 0
M  V30 4 C -0.850031 1.40129 0.476827 0
M  V30 5 O -0.38764 2.54221 0.784741 0
M  V30 6 C -2.18444 1.10418 0.50336 0
M  V30 7 N -3.24433 1.98229 0.864796 0
M  V30 8 C -2.28654 -0.194038 0.115721 0
M  V30 9 N -3.50522 -0.921985 0.000454074 0
M  V30 10 C 1.25662 0.25419 -0.058811 0
M  V30 11 C 2.01118 1.19745 -0.71043 0
M  V30 12 C 3.38213 1.10952 -0.829406 0
M  V30 13 C 4.03461 0.0375689 -0.277177 0
M  V30 14 C 3.29584 -0.916958 0.379131 0
M  V30 15 C 1.92469 -0.813927 0.48921 0
M  V30 16 H -0.683957 -2.65809 0.33631 0
M  V30 17 H -1.63366 -2.38445 -1.14724 0
M  V30 18 H 0.12019 -2.06379 -1.21118 0
M  V30 19 H -3.37851 2.84431 0.29837 0
M  V30 20 H -3.82863 1.70797 1.68237 0
M  V30 21 H -4.24912 -0.525292 -0.595628 0
M  V30 22 H -3.63319 -1.82218 0.503268 0
M  V30 23 H 1.49386 2.03897 -1.14332 0
M  V30 24 H 3.98226 1.848 -1.34073 0
M  V30 25 H 5.11289 -0.0871686 -0.337897 0
M  V30 26 H 3.81494 -1.76914 0.818091 0
M  V30 27 H 1.40874 -1.59064 1.01263 0
M  V30 END ATOM
M  V30 BEGIN BOND
M  V30 1 1 1 2
M  V30 2 1 2 3
M  V30 3 1 3 4
M  V30 4 2 4 5
M  V30 5 1 4 6
M  V30 6 1 6 7
M  V30 7 2 6 8
M  V30 8 1 8 9
M  V30 9 1 3 10
M  V30 10 2 10 11
M  V30 11 1 11 12
M  V30 12 2 12 13
M  V30 13 1 13 14
M  V30 14 2 14 15
M  V30 15 1 8 2
M  V30 16 1 15 10
M  V30 17 1 1 16
M  V30 18 1 1 17
M  V30 19 1 1 18
M  V30 20 1 7 19
M  V30 21 1 7 20
M  V30 22 1 9 21
M  V30 23 1 9 22
M  V30 24 1 11 23
M  V30 25 1 12 24
M  V30 26 1 13 25
M  V30 27 1 14 26
M  V30 28 1 15 27
M  V30 END BOND
M  V30 END CTAB
M  END
