
     RDKit          3D

  0  0  0  0  0  0  0  0  0  0999 V3000
M  V30 BEGIN CTAB
M  V30 COUNTS 65 67 0 0 0
M  V30 BEGIN ATOM
M  V30 1 C 1.84974 -2.87336 2.49464 0
M  V30 2 O 0.679161 -2.15365 2.64482 0
M  V30 3 C 0.824026 -0.836696 2.26435 0
M  V30 4 C 1.21054 -0.692723 0.838739 0
M  V30 5 N 1.36022 0.693129 0.411672 0
M  V30 6 C 2.63036 1.32121 0.54671 0
M  V30 7 C 2.87383 2.29443 1.49954 0
M  V30 8 O 1.92462 2.61278 2.25712 0
M  V30 9 N 4.09609 2.84823 1.57186 0
M  V30 10 C 5.10625 2.47853 0.731755 0
M  V30 11 O 6.2497 2.99011 0.792124 0
M  V30 12 N 4.89035 1.53915 -0.196235 0
M  V30 13 C 3.68867 0.96465 -0.299846 0
M  V30 14 N 3.47386 -0.0178067 -1.27541 0
M  V30 15 C 5.94354 1.13665 -1.09257 0
M  V30 16 C 6.68026 -0.0185252 -0.410762 0
M  V30 17 C 7.81481 -0.517117 -1.2766 0
M  V30 18 C 8.47865 -1.65422 -0.519077 0
M  V30 19 C 0.279751 1.4367 -0.12717 0
M  V30 20 O 0.426936 2.63602 -0.475506 0
M  V30 21 C -1.04257 0.823591 -0.293335 0
M  V30 22 S -2.24824 1.98777 -1.014 0
M  V30 23 C -3.79779 1.08171 -1.15092 0
M  V30 24 N -4.22867 0.346099 -2.17713 0
M  V30 25 N -5.40206 -0.151039 -1.89245 0
M  V30 26 C -5.79126 0.236399 -0.669155 0
M  V30 27 N -4.79668 1.00012 -0.210515 0
M  V30 28 N -4.62789 1.67757 0.997508 0
M  V30 29 C -7.02064 -0.10771 0.0103907 0
M  V30 30 C -7.40247 0.367913 1.2544 0
M  V30 31 C -8.59309 0.00535946 1.8806 0
M  V30 32 C -9.44171 -0.859297 1.25782 0
M  V30 33 C -9.09459 -1.34755 0.0278495 0
M  V30 34 C -7.90287 -0.984487 -0.59803 0
M  V30 35 C -7.63021 -1.56606 -1.90533 0
M  V30 36 H 2.69953 -2.43648 3.09478 0
M  V30 37 H 2.21372 -2.97498 1.46073 0
M  V30 38 H 1.72507 -3.92844 2.85739 0
M  V30 39 H -0.185302 -0.363069 2.45937 0
M  V30 40 H 1.55647 -0.399171 2.97733 0
M  V30 41 H 2.22301 -1.15535 0.704856 0
M  V30 42 H 0.443797 -1.21331 0.224962 0
M  V30 43 H 4.31228 3.58219 2.27645 0
M  V30 44 H 2.486 -0.152966 -1.64633 0
M  V30 45 H 4.18856 -0.646548 -1.68897 0
M  V30 46 H 5.54682 0.8254 -2.06718 0
M  V30 47 H 6.68659 1.95326 -1.19275 0
M  V30 48 H 7.14305 0.358311 0.526626 0
M  V30 49 H 5.99737 -0.823321 -0.123107 0
M  V30 50 H 8.56046 0.269569 -1.42445 0
M  V30 51 H 7.44157 -0.955133 -2.23053 0
M  V30 52 H 9.27154 -2.13895 -1.0922 0
M  V30 53 H 8.8819 -1.29499 0.465967 0
M  V30 54 H 7.68457 -2.4007 -0.246217 0
M  V30 55 H -1.49939 0.485662 0.659483 0
M  V30 56 H -1.03866 -0.0604642 -0.961614 0
M  V30 57 H -4.14648 1.25772 1.80795 0
M  V30 58 H -5.00129 2.63991 1.0831 0
M  V30 59 H -6.76705 1.05296 1.77887 0
M  V30 60 H -8.83135 0.413508 2.85308 0
M  V30 61 H -10.3973 -1.17389 1.71938 0
M  V30 62 H -9.79588 -2.03972 -0.447207 0
M  V30 63 H -8.48804 -2.27564 -2.16745 0
M  V30 64 H -6.74782 -2.23552 -1.96356 0
M  V30 65 H -7.6244 -0.867737 -2.76001 0
M  V30 END ATOM
M  V30 BEGIN BOND
M  V30 1 1 1 2
M  V30 2 1 2 3
M  V30 3 1 3 4
M  V30 4 1 4 5
M  V30 5 1 5 6
M  V30 6 1 6 7
M  V30 7 2 7 8
M  V30 8 1 7 9
M  V30 9 1 9 10
M  V30 10 2 10 11
M  V30 11 1 10 12
M  V30 12 1 12 13
M  V30 13 1 13 14
M  V30 14 1 12 15
M  V30 15 1 15 16
M  V30 16 1 16 17
M  V30 17 1 17 18
M  V30 18 1 5 19
M  V30 19 2 19 20
M  V30 20 1 19 21
M  V30 21 1 21 22
M  V30 22 1 22 23
M  V30 23 2 23 24
M  V30 24 1 24 25
M  V30 25 2 25 26
M  V30 26 1 26 27
M  V30 27 1 27 28
M  V30 28 1 26 29
M  V30 29 2 29 30
M  V30 30 1 30 31
M  V30 31 2 31 32
M  V30 32 1 32 33
M  V30 33 2 33 34
M  V30 34 1 34 35
M  V30 35 2 13 6
M  V30 36 1 27 23
M  V30 37 1 34 29
M  V30 38 1 1 36
M  V30 39 1 1 37
M  V30 40 1 1 38
M  V30 41 1 3 39
M  V30 42 1 3 40
M  V30 43 1 4 41
M  V30 44 1 4 42
M  V30 45 1 9 43
M  V30 46 1 14 44
M  V30 47 1 14 45
M  V30 48 1 15 46
M  V30 49 1 15 47
M  V30 50 1 16 48
M  V30 51 1 16 49
M  V30 52 1 17 50
M  V30 53 1 17 51
M  V30 54 1 18 52
M  V30 55 1 18 53
M  V30 56 1 18 54
M  V30 57 1 21 55
M  V30 58 1 21 56
M  V30 59 1 28 57
M  V30 60 1 28 58
M  V30 61 1 30 59
M  V30 62 1 31 60
M  V30 63 1 32 61
M  V30 64 1 33 62
M  V30 65 1 35 63
M  V30 66 1 35 64
M  V30 67 1 35 65
M  V30 END BOND
M  V30 END CTAB
M  END
