
     RDKit          3D

  0  0  0  0  0  0  0  0  0  0999 V3000
M  V30 BEGIN CTAB
M  V30 COUNTS 42 43 0 0 0
M  V30 BEGIN ATOM
M  V30 1 N 3.14422 -2.02169 -0.117308 0
M  V30 2 C 3.7491 -0.731166 -0.0399395 0
M  V30 3 C 3.00496 0.373684 -0.725521 0
M  V30 4 C 3.84952 1.64037 -0.503599 0
M  V30 5 C 3.57639 1.91142 0.95744 0
M  V30 6 C 2.23344 1.28697 1.28271 0
M  V30 7 C 1.73618 0.800094 -0.0568655 0
M  V30 8 N 0.701894 -0.166707 0.00857522 0
M  V30 9 C -0.555934 0.100448 -0.603183 0
M  V30 10 O -0.765712 1.18068 -1.20141 0
M  V30 11 C -1.66655 -0.879151 -0.560998 0
M  V30 12 C -2.89878 -0.306756 0.0364346 0
M  V30 13 C -4.13948 -0.499314 -0.530476 0
M  V30 14 C -5.29769 0.0283536 0.0152624 0
M  V30 15 C -5.21066 0.776518 1.17136 0
M  V30 16 C -3.97445 0.981558 1.75624 0
M  V30 17 C -2.83242 0.442837 1.19014 0
M  V30 18 N -1.33913 -2.08117 0.140133 0
M  V30 19 C -1.97414 -1.25006 -2.00718 0
M  V30 20 H 3.32123 -2.47993 -1.03933 0
M  V30 21 H 3.58946 -2.62885 0.606544 0
M  V30 22 H 4.74598 -0.801478 -0.567916 0
M  V30 23 H 4.00993 -0.467911 1.00552 0
M  V30 24 H 2.82186 0.175823 -1.77782 0
M  V30 25 H 4.88006 1.35991 -0.718897 0
M  V30 26 H 3.43027 2.42064 -1.16657 0
M  V30 27 H 4.34548 1.45853 1.59319 0
M  V30 28 H 3.57295 3.00941 1.16022 0
M  V30 29 H 1.58188 2.07903 1.69929 0
M  V30 30 H 2.31813 0.476297 2.01859 0
M  V30 31 H 1.38989 1.70838 -0.606242 0
M  V30 32 H 0.822106 -1.08119 0.494806 0
M  V30 33 H -4.25882 -1.08091 -1.44055 0
M  V30 34 H -6.27471 -0.125689 -0.434803 0
M  V30 35 H -6.12563 1.18124 1.58407 0
M  V30 36 H -3.93023 1.5799 2.67518 0
M  V30 37 H -1.89041 0.646409 1.70778 0
M  V30 38 H -1.77499 -2.89108 -0.333436 0
M  V30 39 H -1.74388 -2.03848 1.10208 0
M  V30 40 H -1.03674 -1.4548 -2.56728 0
M  V30 41 H -2.52231 -0.456306 -2.52197 0
M  V30 42 H -2.61228 -2.17589 -1.94147 0
M  V30 END ATOM
M  V30 BEGIN BOND
M  V30 1 1 1 2
M  V30 2 1 2 3
M  V30 3 1 3 4
M  V30 4 1 4 5
M  V30 5 1 5 6
M  V30 6 1 6 7
M  V30 7 1 7 8
M  V30 8 1 8 9
M  V30 9 2 9 10
M  V30 10 1 9 11
M  V30 11 1 11 12
M  V30 12 2 12 13
M  V30 13 1 13 14
M  V30 14 2 14 15
M  V30 15 1 15 16
M  V30 16 2 16 17
M  V30 17 1 11 18
M  V30 18 1 11 19
M  V30 19 1 7 3
M  V30 20 1 17 12
M  V30 21 1 1 20
M  V30 22 1 1 21
M  V30 23 1 2 22
M  V30 24 1 2 23
M  V30 25 1 3 24
M  V30 26 1 4 25
M  V30 27 1 4 26
M  V30 28 1 5 27
M  V30 29 1 5 28
M  V30 30 1 6 29
M  V30 31 1 6 30
M  V30 32 1 7 31
M  V30 33 1 8 32
M  V30 34 1 13 33
M  V30 35 1 14 34
M  V30 36 1 15 35
M  V30 37 1 16 36
M  V30 38 1 17 37
M  V30 39 1 18 38
M  V30 40 1 18 39
M  V30 41 1 19 40
M  V30 42 1 19 41
M  V30 43 1 19 42
M  V30 END BOND
M  V30 END CTAB
M  END
