
     RDKit          3D

  0  0  0  0  0  0  0  0  0  0999 V3000
M  V30 BEGIN CTAB
M  V30 COUNTS 42 41 0 0 0
M  V30 BEGIN ATOM
M  V30 1 C 3.19453 0.186787 0.485276 0 CFG=1
M  V30 2 N 3.40848 -1.15214 0.123596 0
M  V30 3 C 3.68503 1.07637 -0.636998 0
M  V30 4 C 5.16564 0.776907 -0.801081 0
M  V30 5 C 5.76479 1.58394 -1.87195 0
M  V30 6 O 7.1045 1.45383 -2.17567 0
M  V30 7 O 5.06548 2.39417 -2.5159 0
M  V30 8 C 1.78138 0.43328 0.788773 0
M  V30 9 O 1.42029 1.5716 1.14069 0
M  V30 10 N 0.86066 -0.617463 0.677287 0
M  V30 11 C -0.58686 -0.289079 1.00828 0 CFG=1
M  V30 12 C -1.24885 -0.552247 -0.300046 0
M  V30 13 C -2.68675 -0.351451 -0.505369 0
M  V30 14 C -3.56549 -1.23743 0.314992 0
M  V30 15 N -4.94563 -0.90595 -0.0955675 0
M  V30 16 C -5.45477 0.355222 0.234141 0
M  V30 17 N -6.31999 1.10594 -0.618382 0
M  V30 18 N -5.16299 0.925295 1.36049 0
M  V30 19 C -0.957384 -1.19742 2.11185 0
M  V30 20 O -1.65411 -0.830408 3.25452 0
M  V30 21 O -0.620082 -2.42285 2.04978 0
M  V30 22 H 3.78294 0.451505 1.37889 0
M  V30 23 H 3.15853 -1.42331 -0.830496 0
M  V30 24 H 3.30087 -1.86792 0.844081 0
M  V30 25 H 3.13142 0.799224 -1.54959 0
M  V30 26 H 3.48095 2.11575 -0.379585 0
M  V30 27 H 5.66032 0.950419 0.195961 0
M  V30 28 H 5.24549 -0.318631 -0.963947 0
M  V30 29 H 7.45038 0.934943 -2.99233 0
M  V30 30 H 1.01033 -1.58508 0.40429 0
M  V30 31 H -0.667871 0.761297 1.29378 0
M  V30 32 H -0.636184 0.0357984 -1.07126 0
M  V30 33 H -0.950404 -1.64059 -0.555159 0
M  V30 34 H -2.98808 0.732765 -0.319047 0
M  V30 35 H -2.89424 -0.485655 -1.60865 0
M  V30 36 H -3.37365 -2.3279 0.100573 0
M  V30 37 H -3.50187 -1.08562 1.38825 0
M  V30 38 H -5.48292 -1.6061 -0.604777 0
M  V30 39 H -7.25097 1.37359 -0.248826 0
M  V30 40 H -5.99367 1.35659 -1.56872 0
M  V30 41 H -4.55209 0.514669 2.08716 0
M  V30 42 H -2.17714 0.00736269 3.3618 0
M  V30 END ATOM
M  V30 BEGIN BOND
M  V30 1 1 1 2
M  V30 2 1 1 3
M  V30 3 1 3 4
M  V30 4 1 4 5
M  V30 5 1 5 6
M  V30 6 2 5 7
M  V30 7 1 1 8
M  V30 8 2 8 9
M  V30 9 1 8 10
M  V30 10 1 10 11
M  V30 11 1 11 12
M  V30 12 1 12 13
M  V30 13 1 13 14
M  V30 14 1 14 15
M  V30 15 1 15 16
M  V30 16 1 16 17
M  V30 17 2 16 18 CFG=2
M  V30 18 1 11 19
M  V30 19 1 19 20
M  V30 20 2 19 21
M  V30 21 1 1 22 CFG=1
M  V30 22 1 2 23
M  V30 23 1 2 24
M  V30 24 1 3 25
M  V30 25 1 3 26
M  V30 26 1 4 27
M  V30 27 1 4 28
M  V30 28 1 6 29
M  V30 29 1 10 30
M  V30 30 1 11 31 CFG=1
M  V30 31 1 12 32
M  V30 32 1 12 33
M  V30 33 1 13 34
M  V30 34 1 13 35
M  V30 35 1 14 36
M  V30 36 1 14 37
M  V30 37 1 15 38
M  V30 38 1 17 39
M  V30 39 1 17 40
M  V30 40 1 18 41
M  V30 41 1 20 42
M  V30 END BOND
M  V30 END CTAB
M  END
