
     RDKit          3D

  0  0  0  0  0  0  0  0  0  0999 V3000
M  V30 BEGIN CTAB
M  V30 COUNTS 20 19 0 0 0
M  V30 BEGIN ATOM
M  V30 1 C 2.51072 -1.05474 -0.497014 0
M  V30 2 C 1.98855 0.116132 0.258696 0
M  V30 3 C 2.76063 0.642296 1.18895 0
M  V30 4 C 0.664376 0.694833 0.00612172 0
M  V30 5 S -0.680332 -0.491655 0.27389 0
M  V30 6 C -2.24538 0.295593 -0.0549938 0
M  V30 7 N -3.32365 -0.385443 0.0798761 0
M  V30 8 N -3.27257 -1.71418 0.475593 0
M  V30 9 N -2.33641 1.66152 -0.464145 0
M  V30 10 H 1.91766 -1.28907 -1.3962 0
M  V30 11 H 3.55217 -0.854404 -0.824194 0
M  V30 12 H 2.55933 -1.9064 0.21846 0
M  V30 13 H 3.74476 0.260318 1.41986 0
M  V30 14 H 2.40605 1.49014 1.75 0
M  V30 15 H 0.476931 1.62654 0.577668 0
M  V30 16 H 0.589099 1.00087 -1.07927 0
M  V30 17 H -3.86271 -2.01494 1.27285 0
M  V30 18 H -2.67331 -2.42131 0.0133508 0
M  V30 19 H -2.97201 2.28752 0.06912 0
M  V30 20 H -1.8039 2.05639 -1.26063 0
M  V30 END ATOM
M  V30 BEGIN BOND
M  V30 1 1 1 2
M  V30 2 2 2 3 CFG=2
M  V30 3 1 2 4
M  V30 4 1 4 5
M  V30 5 1 5 6
M  V30 6 2 6 7 CFG=2
M  V30 7 1 7 8
M  V30 8 1 6 9
M  V30 9 1 1 10
M  V30 10 1 1 11
M  V30 11 1 1 12
M  V30 12 1 3 13
M  V30 13 1 3 14
M  V30 14 1 4 15
M  V30 15 1 4 16
M  V30 16 1 8 17
M  V30 17 1 8 18
M  V30 18 1 9 19
M  V30 19 1 9 20
M  V30 END BOND
M  V30 END CTAB
M  END
