
     RDKit          3D

  0  0  0  0  0  0  0  0  0  0999 V3000
M  V30 BEGIN CTAB
M  V30 COUNTS 63 66 0 0 0
M  V30 BEGIN ATOM
M  V30 1 C -1.15904 5.54056 -0.606174 0
M  V30 2 O -1.03463 5.10562 0.695875 0
M  V30 3 C -1.35263 3.76785 0.83554 0
M  V30 4 C -0.47505 2.84605 0.0352837 0
M  V30 5 N -0.78364 1.43869 0.200295 0
M  V30 6 C -1.69795 0.736106 -0.616802 0
M  V30 7 C -1.37081 0.32249 -1.90784 0
M  V30 8 O -0.203869 0.604676 -2.30502 0
M  V30 9 N -2.26653 -0.335928 -2.66248 0
M  V30 10 C -3.49453 -0.610914 -2.19301 0
M  V30 11 O -4.31509 -1.2308 -2.9295 0
M  V30 12 N -3.85012 -0.222856 -0.93342 0
M  V30 13 C -2.96154 0.443229 -0.155917 0
M  V30 14 N -3.26034 0.905395 1.15988 0
M  V30 15 C -5.17208 -0.479407 -0.470803 0
M  V30 16 C -5.40028 -1.79548 0.118044 0
M  V30 17 C -5.06983 -2.0885 1.41712 0
M  V30 18 C -5.31534 -3.34795 1.9911 0
M  V30 19 C -5.90254 -4.29311 1.20772 0
M  V30 20 C -6.23842 -4.02237 -0.0831071 0
M  V30 21 C -6.002 -2.79915 -0.642692 0
M  V30 22 C -0.101803 0.743604 1.22871 0
M  V30 23 O -0.291312 -0.520444 1.26711 0
M  V30 24 C 0.785398 1.3292 2.23696 0
M  V30 25 S 2.40354 1.7428 1.57647 0
M  V30 26 C 3.31249 0.283842 1.09979 0
M  V30 27 N 2.97547 -1.00285 1.17206 0
M  V30 28 N 3.95949 -1.72509 0.702908 0
M  V30 29 C 4.98572 -0.92374 0.301969 0
M  V30 30 N 4.56852 0.310165 0.554746 0
M  V30 31 N 5.2744 1.50122 0.321706 0
M  V30 32 C 6.23753 -1.4265 -0.268159 0
M  V30 33 C 6.38647 -2.81678 -0.350484 0
M  V30 34 C 7.49496 -3.40862 -0.864854 0
M  V30 35 C 8.52184 -2.6194 -1.32946 0
M  V30 36 C 8.38968 -1.25446 -1.2548 0
M  V30 37 C 7.25232 -0.622993 -0.724972 0
M  V30 38 F 9.36268 -0.452033 -1.69453 0
M  V30 39 H -0.918047 6.6437 -0.604811 0
M  V30 40 H -0.45057 5.01371 -1.28789 0
M  V30 41 H -2.19669 5.3716 -0.927589 0
M  V30 42 H -1.41088 3.54618 1.90014 0
M  V30 43 H -2.42127 3.6872 0.463362 0
M  V30 44 H -0.577646 3.1102 -1.06907 0
M  V30 45 H 0.575499 3.11199 0.250968 0
M  V30 46 H -1.98873 -0.635311 -3.63829 0
M  V30 47 H -3.76616 1.80085 1.25717 0
M  V30 48 H -2.98991 0.375832 2.01683 0
M  V30 49 H -5.45775 0.296228 0.311319 0
M  V30 50 H -5.87132 -0.283873 -1.34539 0
M  V30 51 H -4.61697 -1.39081 2.1012 0
M  V30 52 H -5.0482 -3.56234 3.01834 0
M  V30 53 H -6.11547 -5.2947 1.60754 0
M  V30 54 H -6.71093 -4.79095 -0.700658 0
M  V30 55 H -6.30502 -2.63349 -1.65909 0
M  V30 56 H 0.965105 0.562705 3.05193 0
M  V30 57 H 0.32392 2.18013 2.78653 0
M  V30 58 H 5.84409 1.99549 1.03156 0
M  V30 59 H 5.21266 1.90745 -0.638296 0
M  V30 60 H 5.58999 -3.46883 0.0107195 0
M  V30 61 H 7.55603 -4.49457 -0.900474 0
M  V30 62 H 9.38836 -3.11898 -1.72954 0
M  V30 63 H 7.19876 0.448467 -0.6931 0
M  V30 END ATOM
M  V30 BEGIN BOND
M  V30 1 1 1 2
M  V30 2 1 2 3
M  V30 3 1 3 4
M  V30 4 1 4 5
M  V30 5 1 5 6
M  V30 6 1 6 7
M  V30 7 2 7 8
M  V30 8 1 7 9
M  V30 9 1 9 10
M  V30 10 2 10 11
M  V30 11 1 10 12
M  V30 12 1 12 13
M  V30 13 1 13 14
M  V30 14 1 12 15
M  V30 15 1 15 16
M  V30 16 2 16 17
M  V30 17 1 17 18
M  V30 18 2 18 19
M  V30 19 1 19 20
M  V30 20 2 20 21
M  V30 21 1 5 22
M  V30 22 2 22 23
M  V30 23 1 22 24
M  V30 24 1 24 25
M  V30 25 1 25 26
M  V30 26 2 26 27
M  V30 27 1 27 28
M  V30 28 2 28 29
M  V30 29 1 29 30
M  V30 30 1 30 31
M  V30 31 1 29 32
M  V30 32 2 32 33
M  V30 33 1 33 34
M  V30 34 2 34 35
M  V30 35 1 35 36
M  V30 36 2 36 37
M  V30 37 1 36 38
M  V30 38 2 13 6
M  V30 39 1 21 16
M  V30 40 1 30 26
M  V30 41 1 37 32
M  V30 42 1 1 39
M  V30 43 1 1 40
M  V30 44 1 1 41
M  V30 45 1 3 42
M  V30 46 1 3 43
M  V30 47 1 4 44
M  V30 48 1 4 45
M  V30 49 1 9 46
M  V30 50 1 14 47
M  V30 51 1 14 48
M  V30 52 1 15 49
M  V30 53 1 15 50
M  V30 54 1 17 51
M  V30 55 1 18 52
M  V30 56 1 19 53
M  V30 57 1 20 54
M  V30 58 1 21 55
M  V30 59 1 24 56
M  V30 60 1 24 57
M  V30 61 1 31 58
M  V30 62 1 31 59
M  V30 63 1 33 60
M  V30 64 1 34 61
M  V30 65 1 35 62
M  V30 66 1 37 63
M  V30 END BOND
M  V30 END CTAB
M  END
