
     RDKit          3D

  0  0  0  0  0  0  0  0  0  0999 V3000
M  V30 BEGIN CTAB
M  V30 COUNTS 30 30 0 0 0
M  V30 BEGIN ATOM
M  V30 1 N -2.30551 -2.6112 -0.706595 0
M  V30 2 C -2.1344 -1.19014 -0.774512 0
M  V30 3 C -1.35853 -0.616981 0.382592 0 CFG=1
M  V30 4 O -0.0671027 -1.15841 0.462859 0
M  V30 5 C 0.750538 -0.172985 -0.0310639 0
M  V30 6 O 0.194753 1.00926 0.456193 0
M  V30 7 C -1.12685 0.854919 0.0558508 0 CFG=2
M  V30 8 C -2.07092 1.74667 0.813576 0
M  V30 9 N -1.68303 3.11565 0.586393 0
M  V30 10 C 2.18829 -0.29604 0.384329 0
M  V30 11 C 2.9322 0.87872 -0.258203 0
M  V30 12 C 2.83094 -1.56681 -0.0440718 0
M  V30 13 H -1.75103 -3.10802 -1.44285 0
M  V30 14 H -2.15687 -3.00307 0.247976 0
M  V30 15 H -3.12766 -0.696508 -0.771756 0
M  V30 16 H -1.61757 -0.948312 -1.7128 0
M  V30 17 H -1.8754 -0.731929 1.34425 0
M  V30 18 H 0.634255 -0.140868 -1.13278 0
M  V30 19 H -1.19633 1.06164 -1.00985 0
M  V30 20 H -2.13608 1.49925 1.87693 0
M  V30 21 H -3.07796 1.6148 0.361097 0
M  V30 22 H -1.27708 3.56716 1.43969 0
M  V30 23 H -1.05022 3.21102 -0.228967 0
M  V30 24 H 2.31234 -0.172562 1.47523 0
M  V30 25 H 2.24447 1.74858 -0.180948 0
M  V30 26 H 3.03105 0.669077 -1.34535 0
M  V30 27 H 3.88297 1.08485 0.235312 0
M  V30 28 H 2.61301 -2.38193 0.661848 0
M  V30 29 H 3.93072 -1.39433 -0.0978672 0
M  V30 30 H 2.46703 -1.87152 -1.04651 0
M  V30 END ATOM
M  V30 BEGIN BOND
M  V30 1 1 1 2
M  V30 2 1 2 3
M  V30 3 1 3 4
M  V30 4 1 4 5
M  V30 5 1 5 6
M  V30 6 1 6 7
M  V30 7 1 7 8
M  V30 8 1 8 9
M  V30 9 1 5 10
M  V30 10 1 10 11
M  V30 11 1 10 12
M  V30 12 1 7 3
M  V30 13 1 1 13
M  V30 14 1 1 14
M  V30 15 1 2 15
M  V30 16 1 2 16
M  V30 17 1 3 17 CFG=1
M  V30 18 1 5 18
M  V30 19 1 7 19 CFG=3
M  V30 20 1 8 20
M  V30 21 1 8 21
M  V30 22 1 9 22
M  V30 23 1 9 23
M  V30 24 1 10 24
M  V30 25 1 11 25
M  V30 26 1 11 26
M  V30 27 1 11 27
M  V30 28 1 12 28
M  V30 29 1 12 29
M  V30 30 1 12 30
M  V30 END BOND
M  V30 END CTAB
M  END
