
     RDKit          3D

  0  0  0  0  0  0  0  0  0  0999 V3000
M  V30 BEGIN CTAB
M  V30 COUNTS 35 36 0 0 0
M  V30 BEGIN ATOM
M  V30 1 C -3.80775 -2.96879 1.04867 0
M  V30 2 O -2.8592 -1.96299 0.743659 0
M  V30 3 C -3.15865 -0.660701 0.509335 0
M  V30 4 O -4.42251 -0.398842 0.588762 0
M  V30 5 C -2.28682 0.443288 0.191864 0
M  V30 6 C -0.927927 0.26289 0.114332 0
M  V30 7 C -0.182644 1.40825 -0.208477 0
M  V30 8 C -0.764142 2.63188 -0.433337 0
M  V30 9 C -2.12737 2.81084 -0.354882 0
M  V30 10 N -2.7253 4.08679 -0.589983 0
M  V30 11 C -2.86537 1.70105 -0.0408309 0
M  V30 12 S -0.110243 -1.25678 0.392641 0
M  V30 13 O -0.476201 -2.29883 -0.614964 0
M  V30 14 O -0.309908 -1.81007 1.76397 0
M  V30 15 C 1.63012 -0.962662 0.157306 0
M  V30 16 C 2.43639 -0.57752 1.20271 0
M  V30 17 C 3.78289 -0.352228 1.01007 0
M  V30 18 C 4.3548 -0.506187 -0.229763 0
M  V30 19 N 5.73379 -0.281703 -0.45596 0
M  V30 20 C 3.56094 -0.89024 -1.28154 0
M  V30 21 C 2.21514 -1.11392 -1.08209 0
M  V30 22 H -4.81866 -2.72344 0.671576 0
M  V30 23 H -3.78304 -3.13879 2.14681 0
M  V30 24 H -3.42377 -3.91722 0.584014 0
M  V30 25 H 0.895668 1.27392 -0.272113 0
M  V30 26 H -0.162305 3.50243 -0.681778 0
M  V30 27 H -3.17356 4.36479 -1.47089 0
M  V30 28 H -2.71631 4.80924 0.183684 0
M  V30 29 H -3.94418 1.84702 0.0202397 0
M  V30 30 H 1.99041 -0.455117 2.1804 0
M  V30 31 H 4.41768 -0.0495838 1.83041 0
M  V30 32 H 6.42867 -0.46174 0.274204 0
M  V30 33 H 6.02631 0.0737258 -1.39028 0
M  V30 34 H 4.01015 -1.0113 -2.25597 0
M  V30 35 H 1.56293 -1.41745 -1.89047 0
M  V30 END ATOM
M  V30 BEGIN BOND
M  V30 1 1 1 2
M  V30 2 1 2 3
M  V30 3 2 3 4
M  V30 4 1 3 5
M  V30 5 2 5 6
M  V30 6 1 6 7
M  V30 7 2 7 8
M  V30 8 1 8 9
M  V30 9 1 9 10
M  V30 10 2 9 11
M  V30 11 1 6 12
M  V30 12 2 12 13
M  V30 13 2 12 14
M  V30 14 1 12 15
M  V30 15 2 15 16
M  V30 16 1 16 17
M  V30 17 2 17 18
M  V30 18 1 18 19
M  V30 19 1 18 20
M  V30 20 2 20 21
M  V30 21 1 11 5
M  V30 22 1 21 15
M  V30 23 1 1 22
M  V30 24 1 1 23
M  V30 25 1 1 24
M  V30 26 1 7 25
M  V30 27 1 8 26
M  V30 28 1 10 27
M  V30 29 1 10 28
M  V30 30 1 11 29
M  V30 31 1 16 30
M  V30 32 1 17 31
M  V30 33 1 19 32
M  V30 34 1 19 33
M  V30 35 1 20 34
M  V30 36 1 21 35
M  V30 END BOND
M  V30 END CTAB
M  END
