
     RDKit          3D

  0  0  0  0  0  0  0  0  0  0999 V3000
M  V30 BEGIN CTAB
M  V30 COUNTS 30 31 0 0 0
M  V30 BEGIN ATOM
M  V30 1 N 4.49208 0.628611 -0.609552 0
M  V30 2 C 3.11855 0.334203 -0.698576 0
M  V30 3 N 2.3796 0.218119 -1.79616 0
M  V30 4 N 1.12577 -0.0663657 -1.4874 0
M  V30 5 C 1.03824 -0.139027 -0.156027 0
M  V30 6 C 2.27582 0.10831 0.369315 0
M  V30 7 C -0.240863 -0.446057 0.575615 0 CFG=2
M  V30 8 C -0.418928 -1.93438 0.482808 0
M  V30 9 N -1.45208 -2.26904 -0.495365 0
M  V30 10 C -2.67675 -1.69492 0.0437968 0
M  V30 11 C -2.5855 -0.200514 0.0438852 0
M  V30 12 N -1.27062 0.326788 -0.00506583 0
M  V30 13 S -1.26559 1.91668 0.647171 0
M  V30 14 O -1.46294 1.89339 2.15203 0
M  V30 15 O -2.38712 2.74358 0.0791565 0
M  V30 16 N 0.201086 2.7538 0.328702 0
M  V30 17 H 5.13962 -0.0860935 -0.260795 0
M  V30 18 H 4.86721 1.56362 -0.892434 0
M  V30 19 H 0.369777 -0.201119 -2.21333 0
M  V30 20 H 2.51482 0.117215 1.43476 0
M  V30 21 H -0.0689139 -0.196773 1.64558 0
M  V30 22 H 0.498813 -2.46954 0.175402 0
M  V30 23 H -0.750784 -2.37846 1.44845 0
M  V30 24 H -1.55789 -3.29396 -0.530087 0
M  V30 25 H -2.77393 -2.06763 1.07682 0
M  V30 26 H -3.51126 -2.09057 -0.543786 0
M  V30 27 H -3.17419 0.213904 0.892092 0
M  V30 28 H -3.12591 0.15393 -0.883302 0
M  V30 29 H 0.249859 3.12856 -0.641169 0
M  V30 30 H 0.452013 3.43373 1.05707 0
M  V30 END ATOM
M  V30 BEGIN BOND
M  V30 1 1 1 2
M  V30 2 2 2 3
M  V30 3 1 3 4
M  V30 4 1 4 5
M  V30 5 2 5 6
M  V30 6 1 5 7
M  V30 7 1 7 8
M  V30 8 1 8 9
M  V30 9 1 9 10
M  V30 10 1 10 11
M  V30 11 1 11 12
M  V30 12 1 12 13
M  V30 13 2 13 14
M  V30 14 2 13 15
M  V30 15 1 13 16
M  V30 16 1 6 2
M  V30 17 1 12 7
M  V30 18 1 1 17
M  V30 19 1 1 18
M  V30 20 1 4 19
M  V30 21 1 6 20
M  V30 22 1 7 21 CFG=1
M  V30 23 1 8 22
M  V30 24 1 8 23
M  V30 25 1 9 24
M  V30 26 1 10 25
M  V30 27 1 10 26
M  V30 28 1 11 27
M  V30 29 1 11 28
M  V30 30 1 16 29
M  V30 31 1 16 30
M  V30 END BOND
M  V30 END CTAB
M  END
