
     RDKit          3D

  0  0  0  0  0  0  0  0  0  0999 V3000
M  V30 BEGIN CTAB
M  V30 COUNTS 46 49 0 0 0
M  V30 BEGIN ATOM
M  V30 1 C -7.30708 1.1394 -1.06427 0
M  V30 2 C -6.39331 0.582379 -0.0903901 0
M  V30 3 O -6.98606 0.129638 0.996496 0
M  V30 4 C -4.95373 0.44566 -0.118294 0
M  V30 5 C -4.12992 0.814629 -1.12255 0
M  V30 6 C -4.6688 1.43055 -2.3743 0
M  V30 7 N -2.75818 0.644854 -1.06344 0
M  V30 8 C -2.197 0.0924053 0.0264685 0
M  V30 9 N -2.99038 -0.262076 0.990354 0
M  V30 10 C -4.31395 -0.133178 1.01055 0
M  V30 11 N -5.12206 -0.543151 2.10088 0
M  V30 12 C -0.735413 -0.0422292 0.0458652 0
M  V30 13 S 0.321091 0.562758 -1.19725 0
M  V30 14 C 1.81212 0.111787 -0.524653 0
M  V30 15 C 1.46788 -0.496916 0.644682 0
M  V30 16 C 0.140608 -0.575953 0.936567 0
M  V30 17 C -0.375459 -1.26492 2.19796 0
M  V30 18 C 2.5537 -0.968491 1.42107 0
M  V30 19 N 2.40689 -1.61384 2.67478 0
M  V30 20 N 3.7935 -0.785009 0.95607 0
M  V30 21 C 4.13897 -0.196445 -0.178593 0
M  V30 22 N 3.11994 0.258708 -0.928456 0
M  V30 23 C 5.51448 -0.0369433 -0.613278 0
M  V30 24 C 6.57833 -0.490028 0.128251 0
M  V30 25 C 7.88955 -0.342491 -0.277693 0
M  V30 26 C 8.15408 0.280765 -1.46919 0
M  V30 27 C 7.0988 0.749333 -2.24051 0
M  V30 28 C 5.79504 0.585859 -1.80551 0
M  V30 29 H -7.48252 0.389033 -1.87767 0
M  V30 30 H -7.00692 2.09813 -1.47336 0
M  V30 31 H -8.29751 1.29703 -0.520595 0
M  V30 32 H -4.94385 2.48284 -2.26677 0
M  V30 33 H -3.84177 1.38288 -3.17109 0
M  V30 34 H -5.47457 0.863266 -2.84385 0
M  V30 35 H -5.32696 0.204803 2.82408 0
M  V30 36 H -5.50204 -1.49698 2.21446 0
M  V30 37 H 0.00906663 -0.772032 3.10733 0
M  V30 38 H 0.0839396 -2.3068 2.20667 0
M  V30 39 H -1.43454 -1.44391 2.18356 0
M  V30 40 H 2.36535 -2.65261 2.80286 0
M  V30 41 H 2.33456 -1.04305 3.55855 0
M  V30 42 H 6.40664 -0.985001 1.07069 0
M  V30 43 H 8.73148 -0.696569 0.300754 0
M  V30 44 H 9.17636 0.402501 -1.79823 0
M  V30 45 H 7.3395 1.23252 -3.16776 0
M  V30 46 H 5.01014 0.966873 -2.43998 0
M  V30 END ATOM
M  V30 BEGIN BOND
M  V30 1 1 1 2
M  V30 2 2 2 3
M  V30 3 1 2 4
M  V30 4 2 4 5
M  V30 5 1 5 6
M  V30 6 1 5 7
M  V30 7 2 7 8
M  V30 8 1 8 9
M  V30 9 2 9 10
M  V30 10 1 10 11
M  V30 11 1 8 12
M  V30 12 1 12 13
M  V30 13 1 13 14
M  V30 14 2 14 15
M  V30 15 1 15 16
M  V30 16 1 16 17
M  V30 17 1 15 18
M  V30 18 1 18 19
M  V30 19 2 18 20
M  V30 20 1 20 21
M  V30 21 2 21 22
M  V30 22 1 21 23
M  V30 23 2 23 24
M  V30 24 1 24 25
M  V30 25 2 25 26
M  V30 26 1 26 27
M  V30 27 2 27 28
M  V30 28 1 10 4
M  V30 29 2 16 12
M  V30 30 1 28 23
M  V30 31 1 22 14
M  V30 32 1 1 29
M  V30 33 1 1 30
M  V30 34 1 1 31
M  V30 35 1 6 32
M  V30 36 1 6 33
M  V30 37 1 6 34
M  V30 38 1 11 35
M  V30 39 1 11 36
M  V30 40 1 17 37
M  V30 41 1 17 38
M  V30 42 1 17 39
M  V30 43 1 19 40
M  V30 44 1 19 41
M  V30 45 1 24 42
M  V30 46 1 25 43
M  V30 47 1 26 44
M  V30 48 1 27 45
M  V30 49 1 28 46
M  V30 END BOND
M  V30 END CTAB
M  END
