
     RDKit          3D

  0  0  0  0  0  0  0  0  0  0999 V3000
M  V30 BEGIN CTAB
M  V30 COUNTS 56 61 0 0 0
M  V30 BEGIN ATOM
M  V30 1 C -8.37818 -1.49351 -0.246162 0
M  V30 2 N -8.08773 -0.264158 -0.912117 0
M  V30 3 C -7.78436 -0.373525 -2.29403 0
M  V30 4 C -6.40025 -0.0234651 -2.71277 0
M  V30 5 C -5.45624 0.180585 -1.60115 0
M  V30 6 C -5.86329 0.523048 -0.344761 0
M  V30 7 C -7.33822 0.677318 -0.153881 0
M  V30 8 C -5.00874 0.722798 0.7136 0
M  V30 9 C -3.61461 0.569498 0.512843 0
M  V30 10 C -3.24243 0.226791 -0.754617 0
M  V30 11 N -4.13894 0.0370976 -1.7852 0
M  V30 12 S -1.54055 0.127545 -0.645918 0
M  V30 13 C -1.35019 0.522886 1.00116 0
M  V30 14 C -2.62157 0.723555 1.42891 0
M  V30 15 N -2.87036 1.08957 2.82714 0
M  V30 16 C -0.115669 0.629653 1.7991 0
M  V30 17 O -0.17973 0.92927 2.98525 0
M  V30 18 C 1.1619 0.3662 1.1206 0
M  V30 19 S 1.42854 -0.0577327 -0.505224 0
M  V30 20 C 3.13624 -0.178257 -0.480572 0
M  V30 21 C 3.44273 0.121644 0.817371 0
M  V30 22 C 2.41813 0.403445 1.64532 0
M  V30 23 N 2.57807 0.743396 3.06077 0
M  V30 24 C 4.82061 0.097431 1.12924 0
M  V30 25 C 5.73689 -0.211713 0.15694 0
M  V30 26 C 5.38411 -0.507161 -1.13754 0
M  V30 27 N 4.08796 -0.483372 -1.42625 0
M  V30 28 C 6.42598 -0.822719 -2.11879 0
M  V30 29 C 7.54567 0.194774 -1.86122 0
M  V30 30 N 8.06408 0.140965 -0.540578 0
M  V30 31 C 7.18338 -0.234742 0.504479 0
M  V30 32 C 9.25087 -0.707762 -0.545888 0
M  V30 33 H -8.51825 -1.26438 0.837349 0
M  V30 34 H -9.37287 -1.89809 -0.581527 0
M  V30 35 H -7.57438 -2.25357 -0.340755 0
M  V30 36 H -7.94562 -1.45934 -2.56975 0
M  V30 37 H -8.53288 0.158181 -2.95097 0
M  V30 38 H -6.45682 0.958722 -3.25708 0
M  V30 39 H -5.99004 -0.775279 -3.43617 0
M  V30 40 H -7.54023 0.494847 0.921665 0
M  V30 41 H -7.66652 1.70581 -0.369768 0
M  V30 42 H -5.42025 0.993491 1.67965 0
M  V30 43 H -3.12079 2.07235 2.99835 0
M  V30 44 H -2.79364 0.387577 3.58159 0
M  V30 45 H 3.02035 1.66445 3.27336 0
M  V30 46 H 2.26146 0.0885966 3.80051 0
M  V30 47 H 5.19036 0.315679 2.11771 0
M  V30 48 H 6.10616 -0.693624 -3.16325 0
M  V30 49 H 6.80896 -1.8482 -1.98217 0
M  V30 50 H 8.34636 -0.00465253 -2.60476 0
M  V30 51 H 7.07785 1.19444 -2.08375 0
M  V30 52 H 7.42489 -1.24654 0.917496 0
M  V30 53 H 7.367 0.465126 1.37017 0
M  V30 54 H 9.402 -1.19016 -1.52558 0
M  V30 55 H 10.1185 -0.0362534 -0.357602 0
M  V30 56 H 9.13435 -1.49853 0.207677 0
M  V30 END ATOM
M  V30 BEGIN BOND
M  V30 1 1 1 2
M  V30 2 1 2 3
M  V30 3 1 3 4
M  V30 4 1 4 5
M  V30 5 2 5 6
M  V30 6 1 6 7
M  V30 7 1 6 8
M  V30 8 2 8 9
M  V30 9 1 9 10
M  V30 10 2 10 11
M  V30 11 1 10 12
M  V30 12 1 12 13
M  V30 13 2 13 14
M  V30 14 1 14 15
M  V30 15 1 13 16
M  V30 16 2 16 17
M  V30 17 1 16 18
M  V30 18 1 18 19
M  V30 19 1 19 20
M  V30 20 2 20 21
M  V30 21 1 21 22
M  V30 22 1 22 23
M  V30 23 1 21 24
M  V30 24 2 24 25
M  V30 25 1 25 26
M  V30 26 2 26 27
M  V30 27 1 26 28
M  V30 28 1 28 29
M  V30 29 1 29 30
M  V30 30 1 30 31
M  V30 31 1 30 32
M  V30 32 1 7 2
M  V30 33 1 14 9
M  V30 34 2 22 18
M  V30 35 1 31 25
M  V30 36 1 11 5
M  V30 37 1 27 20
M  V30 38 1 1 33
M  V30 39 1 1 34
M  V30 40 1 1 35
M  V30 41 1 3 36
M  V30 42 1 3 37
M  V30 43 1 4 38
M  V30 44 1 4 39
M  V30 45 1 7 40
M  V30 46 1 7 41
M  V30 47 1 8 42
M  V30 48 1 15 43
M  V30 49 1 15 44
M  V30 50 1 23 45
M  V30 51 1 23 46
M  V30 52 1 24 47
M  V30 53 1 28 48
M  V30 54 1 28 49
M  V30 55 1 29 50
M  V30 56 1 29 51
M  V30 57 1 31 52
M  V30 58 1 31 53
M  V30 59 1 32 54
M  V30 60 1 32 55
M  V30 61 1 32 56
M  V30 END BOND
M  V30 END CTAB
M  END
