
     RDKit          3D

  0  0  0  0  0  0  0  0  0  0999 V3000
M  V30 BEGIN CTAB
M  V30 COUNTS 45 48 0 0 0
M  V30 BEGIN ATOM
M  V30 1 N -3.95522 1.50079 -1.77545 0
M  V30 2 C -4.27188 0.462139 -0.838207 0
M  V30 3 C -5.52822 0.819751 -0.0326692 0
M  V30 4 C -5.48986 -0.265708 1.02232 0
M  V30 5 C -4.04916 -0.325987 1.39966 0
M  V30 6 C -3.25328 0.375824 0.290438 0
M  V30 7 O -2.18215 -0.447107 -0.0134256 0
M  V30 8 C -0.842948 -0.148519 -0.00313331 0
M  V30 9 C -0.415345 1.10368 0.340158 0
M  V30 10 C 0.944421 1.34664 0.331979 0
M  V30 11 C 1.861 0.360002 -0.0112674 0
M  V30 12 C 3.26668 0.696244 0.0396592 0
M  V30 13 C 3.65487 1.7483 0.892741 0
M  V30 14 C 4.96811 2.12353 1.03865 0
M  V30 15 C 5.95645 1.46852 0.342806 0
M  V30 16 C 5.54778 0.439864 -0.486312 0
M  V30 17 N 6.58141 -0.256158 -1.22285 0
M  V30 18 N 4.27252 0.116084 -0.593639 0
M  V30 19 C 1.39165 -0.907465 -0.355479 0
M  V30 20 C 0.0361196 -1.16776 -0.353536 0
M  V30 21 C -0.447135 -2.42487 -0.681758 0
M  V30 22 C 0.386684 -3.46423 -1.02033 0
M  V30 23 C 1.73455 -3.20955 -1.02152 0
M  V30 24 C 2.23461 -1.94892 -0.693576 0
M  V30 25 H -3.48176 1.19171 -2.6319 0
M  V30 26 H -3.5688 2.35758 -1.34435 0
M  V30 27 H -4.37757 -0.485584 -1.36577 0
M  V30 28 H -6.43465 0.763482 -0.66606 0
M  V30 29 H -5.35908 1.78733 0.440471 0
M  V30 30 H -5.80166 -1.21712 0.506145 0
M  V30 31 H -6.17122 -0.0670306 1.86871 0
M  V30 32 H -3.88282 0.248548 2.3331 0
M  V30 33 H -3.70596 -1.36035 1.55933 0
M  V30 34 H -3.03692 1.40219 0.579771 0
M  V30 35 H -1.09755 1.92328 0.621218 0
M  V30 36 H 1.25721 2.36683 0.593546 0
M  V30 37 H 2.90367 2.26385 1.46029 0
M  V30 38 H 5.18586 2.94712 1.7172 0
M  V30 39 H 6.99682 1.73803 0.43454 0
M  V30 40 H 6.78988 -1.24058 -0.950321 0
M  V30 41 H 7.10242 0.205051 -1.99921 0
M  V30 42 H -1.51337 -2.58134 -0.667791 0
M  V30 43 H 0.0599384 -4.45946 -1.28353 0
M  V30 44 H 2.45228 -3.96833 -1.27403 0
M  V30 45 H 3.2816 -1.81028 -0.694591 0
M  V30 END ATOM
M  V30 BEGIN BOND
M  V30 1 1 1 2
M  V30 2 1 2 3
M  V30 3 1 3 4
M  V30 4 1 4 5
M  V30 5 1 5 6
M  V30 6 1 6 7
M  V30 7 1 7 8
M  V30 8 2 8 9
M  V30 9 1 9 10
M  V30 10 2 10 11
M  V30 11 1 11 12
M  V30 12 2 12 13
M  V30 13 1 13 14
M  V30 14 2 14 15
M  V30 15 1 15 16
M  V30 16 1 16 17
M  V30 17 2 16 18
M  V30 18 1 11 19
M  V30 19 2 19 20
M  V30 20 1 20 21
M  V30 21 2 21 22
M  V30 22 1 22 23
M  V30 23 2 23 24
M  V30 24 1 6 2
M  V30 25 1 20 8
M  V30 26 1 18 12
M  V30 27 1 24 19
M  V30 28 1 1 25
M  V30 29 1 1 26
M  V30 30 1 2 27
M  V30 31 1 3 28
M  V30 32 1 3 29
M  V30 33 1 4 30
M  V30 34 1 4 31
M  V30 35 1 5 32
M  V30 36 1 5 33
M  V30 37 1 6 34
M  V30 38 1 9 35
M  V30 39 1 10 36
M  V30 40 1 13 37
M  V30 41 1 14 38
M  V30 42 1 15 39
M  V30 43 1 17 40
M  V30 44 1 17 41
M  V30 45 1 21 42
M  V30 46 1 22 43
M  V30 47 1 23 44
M  V30 48 1 24 45
M  V30 END BOND
M  V30 END CTAB
M  END
