
     RDKit          3D

  0  0  0  0  0  0  0  0  0  0999 V3000
M  V30 BEGIN CTAB
M  V30 COUNTS 19 19 0 0 0
M  V30 BEGIN ATOM
M  V30 1 N 2.71946 -1.35583 -0.41352 0
M  V30 2 C 1.6776 -0.405805 -0.144196 0
M  V30 3 C 2.03207 0.756213 0.506884 0
M  V30 4 C 1.02484 1.66341 0.761623 0
M  V30 5 F 1.38802 2.81255 1.40798 0
M  V30 6 C -0.283777 1.43062 0.386785 0
M  V30 7 C -0.641325 0.268092 -0.265157 0
M  V30 8 C 0.37104 -0.644668 -0.521664 0
M  V30 9 S -2.29111 -0.058038 -0.754027 0
M  V30 10 O -2.33624 -0.950633 -1.97198 0
M  V30 11 O -2.99989 1.23904 -1.03359 0
M  V30 12 N -3.14858 -0.887258 0.506411 0
M  V30 13 H 2.69407 -2.27716 0.0886218 0
M  V30 14 H 3.47464 -1.13928 -1.08368 0
M  V30 15 H 3.04939 0.973691 0.816549 0
M  V30 16 H -1.05456 2.16948 0.604042 0
M  V30 17 H 0.0933751 -1.55968 -1.03405 0
M  V30 18 H -2.57534 -1.735 0.762946 0
M  V30 19 H -3.19368 -0.299741 1.38003 0
M  V30 END ATOM
M  V30 BEGIN BOND
M  V30 1 1 1 2
M  V30 2 2 2 3
M  V30 3 1 3 4
M  V30 4 1 4 5
M  V30 5 2 4 6
M  V30 6 1 6 7
M  V30 7 2 7 8
M  V30 8 1 7 9
M  V30 9 2 9 10
M  V30 10 2 9 11
M  V30 11 1 9 12
M  V30 12 1 8 2
M  V30 13 1 1 13
M  V30 14 1 1 14
M  V30 15 1 3 15
M  V30 16 1 6 16
M  V30 17 1 8 17
M  V30 18 1 12 18
M  V30 19 1 12 19
M  V30 END BOND
M  V30 END CTAB
M  END
