
     RDKit          3D

  0  0  0  0  0  0  0  0  0  0999 V3000
M  V30 BEGIN CTAB
M  V30 COUNTS 31 32 0 0 0
M  V30 BEGIN ATOM
M  V30 1 N 3.43265 1.71522 1.97875 0
M  V30 2 C 2.986 0.76045 1.0339 0
M  V30 3 N 1.73924 0.751871 0.543345 0
M  V30 4 C 1.28249 -0.138097 -0.353021 0
M  V30 5 N -0.0484141 -0.116054 -0.851451 0
M  V30 6 C -1.02641 0.844653 -0.448587 0
M  V30 7 C -1.39973 0.798701 1.01062 0
M  V30 8 C -2.07993 -0.50334 1.37768 0
M  V30 9 C -2.90961 -1.0426 0.23521 0
M  V30 10 C -3.42491 0.135635 -0.559502 0
M  V30 11 C -2.27128 0.803474 -1.30707 0
M  V30 12 N 2.1753 -1.07156 -0.761049 0
M  V30 13 C 3.44202 -1.13165 -0.318246 0
M  V30 14 N 4.3462 -2.14013 -0.782497 0
M  V30 15 N 3.82647 -0.204123 0.580433 0
M  V30 16 H 2.96166 1.78243 2.89762 0
M  V30 17 H 4.22691 2.32889 1.72568 0
M  V30 18 H -0.28665 -0.875438 -1.56228 0
M  V30 19 H -0.567052 1.86214 -0.613312 0
M  V30 20 H -2.18224 1.6066 1.13399 0
M  V30 21 H -0.54949 0.947356 1.66531 0
M  V30 22 H -2.77497 -0.280666 2.21321 0
M  V30 23 H -1.37001 -1.26669 1.73092 0
M  V30 24 H -3.80003 -1.58216 0.63153 0
M  V30 25 H -2.31508 -1.71508 -0.387903 0
M  V30 26 H -4.16917 -0.235309 -1.28551 0
M  V30 27 H -3.89655 0.870178 0.135155 0
M  V30 28 H -2.12015 0.26973 -2.26097 0
M  V30 29 H -2.61954 1.83089 -1.54494 0
M  V30 30 H 4.16323 -3.15691 -0.681876 0
M  V30 31 H 5.22904 -1.8484 -1.24278 0
M  V30 END ATOM
M  V30 BEGIN BOND
M  V30 1 1 1 2
M  V30 2 2 2 3
M  V30 3 1 3 4
M  V30 4 1 4 5
M  V30 5 1 5 6
M  V30 6 1 6 7
M  V30 7 1 7 8
M  V30 8 1 8 9
M  V30 9 1 9 10
M  V30 10 1 10 11
M  V30 11 2 4 12
M  V30 12 1 12 13
M  V30 13 1 13 14
M  V30 14 2 13 15
M  V30 15 1 15 2
M  V30 16 1 11 6
M  V30 17 1 1 16
M  V30 18 1 1 17
M  V30 19 1 5 18
M  V30 20 1 6 19
M  V30 21 1 7 20
M  V30 22 1 7 21
M  V30 23 1 8 22
M  V30 24 1 8 23
M  V30 25 1 9 24
M  V30 26 1 9 25
M  V30 27 1 10 26
M  V30 28 1 10 27
M  V30 29 1 11 28
M  V30 30 1 11 29
M  V30 31 1 14 30
M  V30 32 1 14 31
M  V30 END BOND
M  V30 END CTAB
M  END
