
     RDKit          3D

  0  0  0  0  0  0  0  0  0  0999 V3000
M  V30 BEGIN CTAB
M  V30 COUNTS 30 30 0 0 0
M  V30 BEGIN ATOM
M  V30 1 C -1.13563 1.80533 0.791285 0
M  V30 2 N -0.805535 0.397853 0.627724 0
M  V30 3 C 0.489401 0.0655398 0.228943 0
M  V30 4 C 0.91376 -1.22383 0.0366791 0
M  V30 5 C 2.20063 -1.55804 -0.362732 0
M  V30 6 C 3.10515 -0.557667 -0.579673 0
M  V30 7 C 2.67938 0.740217 -0.386707 0
M  V30 8 N 1.42688 1.03496 0.000336832 0
M  V30 9 N 3.60241 1.79648 -0.607305 0
M  V30 10 N 4.42089 -0.899223 -0.985947 0
M  V30 11 C -1.81564 -0.563545 0.874415 0
M  V30 12 C -2.91156 -0.560912 -0.120258 0
M  V30 13 C -3.12657 -1.67182 -0.808487 0
M  V30 14 C -3.7863 0.608285 -0.399305 0
M  V30 15 H -0.310285 2.22629 1.43961 0
M  V30 16 H -1.09875 2.34988 -0.150995 0
M  V30 17 H -2.06095 1.94863 1.38357 0
M  V30 18 H 0.240926 -2.08213 0.190436 0
M  V30 19 H 2.46431 -2.59881 -0.493357 0
M  V30 20 H 3.67846 2.30822 -1.49316 0
M  V30 21 H 4.22577 2.04802 0.188927 0
M  V30 22 H 5.16312 -1.09777 -0.267334 0
M  V30 23 H 4.69024 -0.964299 -1.97319 0
M  V30 24 H -2.25872 -0.305272 1.89924 0
M  V30 25 H -1.47361 -1.60298 1.0151 0
M  V30 26 H -2.54689 -2.59045 -0.688525 0
M  V30 27 H -3.91815 -1.7543 -1.56087 0
M  V30 28 H -4.19016 0.963727 0.573549 0
M  V30 29 H -3.22244 1.42254 -0.925705 0
M  V30 30 H -4.64017 0.315079 -1.01659 0
M  V30 END ATOM
M  V30 BEGIN BOND
M  V30 1 1 1 2
M  V30 2 1 2 3
M  V30 3 2 3 4
M  V30 4 1 4 5
M  V30 5 2 5 6
M  V30 6 1 6 7
M  V30 7 2 7 8
M  V30 8 1 7 9
M  V30 9 1 6 10
M  V30 10 1 2 11
M  V30 11 1 11 12
M  V30 12 2 12 13 CFG=2
M  V30 13 1 12 14
M  V30 14 1 8 3
M  V30 15 1 1 15
M  V30 16 1 1 16
M  V30 17 1 1 17
M  V30 18 1 4 18
M  V30 19 1 5 19
M  V30 20 1 9 20
M  V30 21 1 9 21
M  V30 22 1 10 22
M  V30 23 1 10 23
M  V30 24 1 11 24
M  V30 25 1 11 25
M  V30 26 1 13 26
M  V30 27 1 13 27
M  V30 28 1 14 28
M  V30 29 1 14 29
M  V30 30 1 14 30
M  V30 END BOND
M  V30 END CTAB
M  END
