
     RDKit          3D

  0  0  0  0  0  0  0  0  0  0999 V3000
M  V30 BEGIN CTAB
M  V30 COUNTS 32 32 0 0 0
M  V30 BEGIN ATOM
M  V30 1 C 1.97897 0.824337 1.383 0
M  V30 2 C 1.73989 0.921527 -0.0863353 0
M  V30 3 C 2.44676 -0.0903173 -0.930814 0
M  V30 4 C 2.16359 -1.51484 -0.690183 0
M  V30 5 C 3.96398 0.104234 -0.78132 0
M  V30 6 N 0.409969 1.21995 -0.499404 0
M  V30 7 C -0.80649 0.620691 -0.158918 0
M  V30 8 C -0.909268 -0.401158 0.729432 0
M  V30 9 C -2.13307 -1.00671 1.05728 0
M  V30 10 C -3.25281 -0.519395 0.434637 0
M  V30 11 C -3.16253 0.520413 -0.471192 0
M  V30 12 N -1.95598 1.04705 -0.73234 0
M  V30 13 N -4.34585 1.00218 -1.09954 0
M  V30 14 N -4.5547 -1.06467 0.695763 0
M  V30 15 H 2.17798 -0.21165 1.73106 0
M  V30 16 H 1.0614 1.17616 1.91515 0
M  V30 17 H 2.77328 1.52617 1.69293 0
M  V30 18 H 2.32165 1.90206 -0.369554 0
M  V30 19 H 2.25829 0.171553 -2.014 0
M  V30 20 H 1.92529 -1.79499 0.33412 0
M  V30 21 H 3.06457 -2.13453 -0.974619 0
M  V30 22 H 1.34306 -1.93341 -1.34172 0
M  V30 23 H 4.21343 1.17232 -0.779935 0
M  V30 24 H 4.50485 -0.478662 -1.56607 0
M  V30 25 H 4.27501 -0.32146 0.195834 0
M  V30 26 H 0.3181 2.04978 -1.202 0
M  V30 27 H -0.0597324 -0.81985 1.25827 0
M  V30 28 H -2.20094 -1.8117 1.7589 0
M  V30 29 H -4.24606 1.79567 -1.76675 0
M  V30 30 H -5.25678 0.583671 -0.901671 0
M  V30 31 H -5.05317 -1.59909 -0.0662107 0
M  V30 32 H -5.0027 -0.935329 1.62467 0
M  V30 END ATOM
M  V30 BEGIN BOND
M  V30 1 1 1 2
M  V30 2 1 2 3
M  V30 3 1 3 4
M  V30 4 1 3 5
M  V30 5 1 2 6
M  V30 6 1 6 7
M  V30 7 2 7 8
M  V30 8 1 8 9
M  V30 9 2 9 10
M  V30 10 1 10 11
M  V30 11 2 11 12
M  V30 12 1 11 13
M  V30 13 1 10 14
M  V30 14 1 12 7
M  V30 15 1 1 15
M  V30 16 1 1 16
M  V30 17 1 1 17
M  V30 18 1 2 18
M  V30 19 1 3 19
M  V30 20 1 4 20
M  V30 21 1 4 21
M  V30 22 1 4 22
M  V30 23 1 5 23
M  V30 24 1 5 24
M  V30 25 1 5 25
M  V30 26 1 6 26
M  V30 27 1 8 27
M  V30 28 1 9 28
M  V30 29 1 13 29
M  V30 30 1 13 30
M  V30 31 1 14 31
M  V30 32 1 14 32
M  V30 END BOND
M  V30 END CTAB
M  END
