
     RDKit          3D

  0  0  0  0  0  0  0  0  0  0999 V3000
M  V30 BEGIN CTAB
M  V30 COUNTS 17 17 0 0 0
M  V30 BEGIN ATOM
M  V30 1 N -3.86413 -0.122967 0.13834 0
M  V30 2 N -2.5078 -0.377077 -0.0142399 0
M  V30 3 C -1.62347 0.485014 0.288465 0
M  V30 4 C -0.203035 0.238558 0.136361 0
M  V30 5 C 0.736065 1.19024 0.471954 0
M  V30 6 Cl 0.213984 2.74203 1.09965 0
M  V30 7 N 2.04361 0.883988 0.300878 0
M  V30 8 C 2.46317 -0.29705 -0.1777 0
M  V30 9 N 1.54198 -1.21457 -0.500626 0
M  V30 10 C 0.204104 -0.982891 -0.357547 0
M  V30 11 Cl -0.958876 -2.21208 -0.792962 0
M  V30 12 N 3.86257 -0.534503 -0.325427 0
M  V30 13 H -4.18389 0.491926 0.907697 0
M  V30 14 H -4.56632 -0.533823 -0.499436 0
M  V30 15 H -1.94139 1.44631 0.677103 0
M  V30 16 H 4.2499 -1.23921 -0.957344 0
M  V30 17 H 4.53353 0.0360948 0.236834 0
M  V30 END ATOM
M  V30 BEGIN BOND
M  V30 1 1 1 2
M  V30 2 2 2 3 CFG=2
M  V30 3 1 3 4
M  V30 4 2 4 5
M  V30 5 1 5 6
M  V30 6 1 5 7
M  V30 7 2 7 8
M  V30 8 1 8 9
M  V30 9 2 9 10
M  V30 10 1 10 11
M  V30 11 1 8 12
M  V30 12 1 10 4
M  V30 13 1 1 13
M  V30 14 1 1 14
M  V30 15 1 3 15
M  V30 16 1 12 16
M  V30 17 1 12 17
M  V30 END BOND
M  V30 END CTAB
M  END
