
     RDKit          3D

  0  0  0  0  0  0  0  0  0  0999 V3000
M  V30 BEGIN CTAB
M  V30 COUNTS 31 33 0 0 0
M  V30 BEGIN ATOM
M  V30 1 N 3.96218 1.19504 -0.911716 0
M  V30 2 C 3.93604 0.495224 0.352398 0
M  V30 3 C 2.65654 -0.289546 0.52427 0 CFG=2
M  V30 4 C 2.40476 -1.23951 -0.603522 0
M  V30 5 C 0.875907 -1.27451 -0.683778 0
M  V30 6 C 0.503631 -0.42446 0.505858 0 CFG=1
M  V30 7 O 1.5331 0.534302 0.486734 0
M  V30 8 N -0.757694 0.219766 0.381205 0
M  V30 9 C -0.995693 1.49088 0.740257 0
M  V30 10 N -2.26883 1.7648 0.489204 0
M  V30 11 C -2.88707 0.703567 -0.030151 0
M  V30 12 C -1.90483 -0.292079 -0.0974815 0
M  V30 13 N -2.28885 -1.47511 -0.594411 0
M  V30 14 C -3.56291 -1.67992 -1.00502 0
M  V30 15 N -4.50454 -0.7419 -0.945954 0
M  V30 16 C -4.18436 0.458564 -0.460387 0
M  V30 17 N -5.11716 1.53102 -0.354204 0
M  V30 18 H 4.40582 0.679075 -1.67342 0
M  V30 19 H 4.51106 2.07352 -0.767962 0
M  V30 20 H 4.77596 -0.224019 0.439279 0
M  V30 21 H 4.03493 1.18751 1.21346 0
M  V30 22 H 2.66188 -0.785737 1.50002 0
M  V30 23 H 2.85952 -0.9192 -1.54785 0
M  V30 24 H 2.78277 -2.24909 -0.285359 0
M  V30 25 H 0.520441 -0.861779 -1.63781 0
M  V30 26 H 0.529822 -2.3115 -0.496206 0
M  V30 27 H 0.639481 -1.01776 1.42671 0
M  V30 28 H -0.305471 2.2197 1.16833 0
M  V30 29 H -3.84054 -2.64976 -1.40242 0
M  V30 30 H -5.05454 2.38209 -0.940052 0
M  V30 31 H -5.92133 1.50084 0.335893 0
M  V30 END ATOM
M  V30 BEGIN BOND
M  V30 1 1 1 2
M  V30 2 1 2 3
M  V30 3 1 3 4
M  V30 4 1 4 5
M  V30 5 1 5 6
M  V30 6 1 6 7
M  V30 7 1 6 8
M  V30 8 1 8 9
M  V30 9 2 9 10
M  V30 10 1 10 11
M  V30 11 2 11 12
M  V30 12 1 12 13
M  V30 13 2 13 14
M  V30 14 1 14 15
M  V30 15 2 15 16
M  V30 16 1 16 17
M  V30 17 1 7 3
M  V30 18 1 12 8
M  V30 19 1 16 11
M  V30 20 1 1 18
M  V30 21 1 1 19
M  V30 22 1 2 20
M  V30 23 1 2 21
M  V30 24 1 3 22 CFG=1
M  V30 25 1 4 23
M  V30 26 1 4 24
M  V30 27 1 5 25
M  V30 28 1 5 26
M  V30 29 1 6 27 CFG=1
M  V30 30 1 9 28
M  V30 31 1 14 29
M  V30 32 1 17 30
M  V30 33 1 17 31
M  V30 END BOND
M  V30 END CTAB
M  END
