
     RDKit          3D

  0  0  0  0  0  0  0  0  0  0999 V3000
M  V30 BEGIN CTAB
M  V30 COUNTS 26 27 0 0 0
M  V30 BEGIN ATOM
M  V30 1 N -2.78784 1.5544 -0.226328 0
M  V30 2 C -1.85546 0.661002 0.44662 0
M  V30 3 C -2.14736 -0.732652 0.0400537 0
M  V30 4 C -1.11731 -1.38628 -0.834629 0
M  V30 5 C 0.271359 -1.10395 -0.466934 0
M  V30 6 C 0.55264 0.145146 0.0453908 0
M  V30 7 C -0.476185 1.16304 0.224993 0
M  V30 8 C 1.8628 0.485216 0.417548 0
M  V30 9 N 2.16136 1.77288 0.947242 0
M  V30 10 C 2.84036 -0.474817 0.249011 0
M  V30 11 C 2.56357 -1.73654 -0.267047 0
M  V30 12 C 1.26767 -2.04566 -0.625169 0
M  V30 13 H -2.36847 1.78259 -1.16694 0
M  V30 14 H -2.86417 2.43216 0.367598 0
M  V30 15 H -2.09321 0.769497 1.53289 0
M  V30 16 H -2.28052 -1.39845 0.922145 0
M  V30 17 H -3.11515 -0.80733 -0.522134 0
M  V30 18 H -1.29079 -2.48223 -0.861059 0
M  V30 19 H -1.25793 -1.02498 -1.89515 0
M  V30 20 H -0.448353 1.82253 -0.693827 0
M  V30 21 H -0.162564 1.83463 1.05255 0
M  V30 22 H 2.1213 2.00964 1.95906 0
M  V30 23 H 2.4391 2.52715 0.266883 0
M  V30 24 H 3.87905 -0.272365 0.51936 0
M  V30 25 H 3.32904 -2.48969 -0.399508 0
M  V30 26 H 0.977079 -3.00494 -1.03263 0
M  V30 END ATOM
M  V30 BEGIN BOND
M  V30 1 1 1 2
M  V30 2 1 2 3
M  V30 3 1 3 4
M  V30 4 1 4 5
M  V30 5 2 5 6
M  V30 6 1 6 7
M  V30 7 1 6 8
M  V30 8 1 8 9
M  V30 9 2 8 10
M  V30 10 1 10 11
M  V30 11 2 11 12
M  V30 12 1 7 2
M  V30 13 1 12 5
M  V30 14 1 1 13
M  V30 15 1 1 14
M  V30 16 1 2 15
M  V30 17 1 3 16
M  V30 18 1 3 17
M  V30 19 1 4 18
M  V30 20 1 4 19
M  V30 21 1 7 20
M  V30 22 1 7 21
M  V30 23 1 9 22
M  V30 24 1 9 23
M  V30 25 1 10 24
M  V30 26 1 11 25
M  V30 27 1 12 26
M  V30 END BOND
M  V30 END CTAB
M  END
