
     RDKit          3D

  0  0  0  0  0  0  0  0  0  0999 V3000
M  V30 BEGIN CTAB
M  V30 COUNTS 43 45 0 0 0
M  V30 BEGIN ATOM
M  V30 1 C -2.98209 2.88987 1.08094 0
M  V30 2 C -3.2005 1.43951 0.806784 0
M  V30 3 C -2.35196 0.712769 0.00236973 0
M  V30 4 C -2.55634 -0.625837 -0.248894 0
M  V30 5 N -1.67923 -1.37105 -1.09483 0
M  V30 6 C -0.501628 -0.777489 -1.6967 0
M  V30 7 C 0.559087 -0.656673 -0.690027 0
M  V30 8 C 1.76517 -0.0566797 -1.10441 0
M  V30 9 C 1.9492 0.408025 -2.4678 0
M  V30 10 C 2.76137 0.0383013 -0.129926 0
M  V30 11 C 2.54961 -0.438147 1.15685 0
M  V30 12 N 1.38176 -1.00247 1.49749 0
M  V30 13 C 0.410719 -1.10278 0.575014 0
M  V30 14 N 3.54386 -0.322113 2.06989 0
M  V30 15 C 4.73361 0.234546 1.79433 0
M  V30 16 N 5.74766 0.330914 2.79661 0
M  V30 17 N 4.91883 0.688456 0.549698 0
M  V30 18 C 3.97303 0.607001 -0.413741 0
M  V30 19 N 4.24278 1.12032 -1.70675 0
M  V30 20 C -3.62951 -1.27649 0.306988 0
M  V30 21 C -3.81578 -2.71825 0.0132193 0
M  V30 22 C -4.50356 -0.561021 1.12587 0
M  V30 23 C -4.27785 0.780647 1.36322 0
M  V30 24 H -2.6347 3.05135 2.11341 0
M  V30 25 H -2.26861 3.33045 0.339594 0
M  V30 26 H -3.9402 3.43244 0.923332 0
M  V30 27 H -1.50434 1.21361 -0.440506 0
M  V30 28 H -1.86774 -2.37435 -1.30074 0
M  V30 29 H -0.184823 -1.43608 -2.53053 0
M  V30 30 H -0.76139 0.203371 -2.16568 0
M  V30 31 H 0.977537 0.129275 -3.01714 0
M  V30 32 H 1.90862 1.49458 -2.64962 0
M  V30 33 H 2.64403 -0.174 -3.11107 0
M  V30 34 H -0.503409 -1.59608 0.930763 0
M  V30 35 H 5.52035 0.229408 3.80453 0
M  V30 36 H 6.73074 0.505205 2.52027 0
M  V30 37 H 3.99002 2.09425 -1.92104 0
M  V30 38 H 4.7088 0.541475 -2.43713 0
M  V30 39 H -2.898 -3.23859 0.343348 0
M  V30 40 H -3.91421 -2.85816 -1.09295 0
M  V30 41 H -4.73386 -3.12078 0.477992 0
M  V30 42 H -5.34267 -1.09433 1.55293 0
M  V30 43 H -4.96438 1.32562 2.00116 0
M  V30 END ATOM
M  V30 BEGIN BOND
M  V30 1 1 1 2
M  V30 2 2 2 3
M  V30 3 1 3 4
M  V30 4 1 4 5
M  V30 5 1 5 6
M  V30 6 1 6 7
M  V30 7 2 7 8
M  V30 8 1 8 9
M  V30 9 1 8 10
M  V30 10 2 10 11
M  V30 11 1 11 12
M  V30 12 2 12 13
M  V30 13 1 11 14
M  V30 14 2 14 15
M  V30 15 1 15 16
M  V30 16 1 15 17
M  V30 17 2 17 18
M  V30 18 1 18 19
M  V30 19 2 4 20
M  V30 20 1 20 21
M  V30 21 1 20 22
M  V30 22 2 22 23
M  V30 23 1 23 2
M  V30 24 1 13 7
M  V30 25 1 18 10
M  V30 26 1 1 24
M  V30 27 1 1 25
M  V30 28 1 1 26
M  V30 29 1 3 27
M  V30 30 1 5 28
M  V30 31 1 6 29
M  V30 32 1 6 30
M  V30 33 1 9 31
M  V30 34 1 9 32
M  V30 35 1 9 33
M  V30 36 1 13 34
M  V30 37 1 16 35
M  V30 38 1 16 36
M  V30 39 1 19 37
M  V30 40 1 19 38
M  V30 41 1 21 39
M  V30 42 1 21 40
M  V30 43 1 21 41
M  V30 44 1 22 42
M  V30 45 1 23 43
M  V30 END BOND
M  V30 END CTAB
M  END
