
     RDKit          3D

  0  0  0  0  0  0  0  0  0  0999 V3000
M  V30 BEGIN CTAB
M  V30 COUNTS 51 51 0 0 0
M  V30 BEGIN ATOM
M  V30 1 N -6.5902 1.16716 1.22273 0
M  V30 2 C -5.5327 0.506074 1.93126 0
M  V30 3 C -4.48832 -0.117493 1.00863 0
M  V30 4 C -3.89649 0.977066 0.189273 0
M  V30 5 N -2.88108 0.553778 -0.743109 0
M  V30 6 C -1.52481 0.545695 -0.351235 0
M  V30 7 O -1.23118 0.920213 0.808605 0
M  V30 8 C -0.427999 0.110566 -1.25842 0
M  V30 9 C 0.879577 0.229515 -0.536322 0
M  V30 10 N 2.00124 -0.191486 -1.39416 0
M  V30 11 C 3.28402 -0.127355 -0.845579 0
M  V30 12 C 3.43811 0.224387 0.477859 0
M  V30 13 C 4.67761 0.263616 1.06585 0
M  V30 14 C 5.80709 -0.0506423 0.341319 0
M  V30 15 C 5.6821 -0.403002 -0.9747 0
M  V30 16 C 4.39957 -0.439077 -1.57072 0
M  V30 17 N 4.40167 -0.814811 -2.93493 0 CHG=1
M  V30 18 O 5.28946 -1.59077 -3.4025 0
M  V30 19 O 3.47195 -0.376045 -3.80439 0 CHG=-1
M  V30 20 S 7.3737 0.0216876 1.14988 0
M  V30 21 O 8.4394 0.425797 0.169904 0
M  V30 22 O 7.25619 1.06087 2.23826 0
M  V30 23 N 7.70694 -1.49487 1.87538 0
M  V30 24 C -3.20297 0.125233 -2.09908 0
M  V30 25 C -3.52102 -0.854497 1.88647 0
M  V30 26 C -5.14831 -1.16696 0.108612 0
M  V30 27 H -6.59289 1.03014 0.205178 0
M  V30 28 H -6.79889 2.11362 1.56008 0
M  V30 29 H -5.91278 -0.331324 2.57338 0
M  V30 30 H -5.01921 1.24503 2.57088 0
M  V30 31 H -4.69888 1.45593 -0.412671 0
M  V30 32 H -3.43291 1.72787 0.873467 0
M  V30 33 H -0.630149 -0.933851 -1.5721 0
M  V30 34 H -0.417356 0.713153 -2.18913 0
M  V30 35 H 1.11063 1.27253 -0.243256 0
M  V30 36 H 0.84097 -0.418978 0.364203 0
M  V30 37 H 1.77085 -0.519961 -2.34218 0
M  V30 38 H 2.56088 0.482735 1.09287 0
M  V30 39 H 4.80706 0.542361 2.11549 0
M  V30 40 H 6.54109 -0.650655 -1.55696 0
M  V30 41 H 7.35084 -2.30739 1.35567 0
M  V30 42 H 8.69287 -1.55494 2.19055 0
M  V30 43 H -2.92252 -0.95406 -2.19128 0
M  V30 44 H -2.62274 0.657016 -2.86511 0
M  V30 45 H -4.27508 0.231399 -2.31911 0
M  V30 46 H -3.08814 -0.231483 2.69632 0
M  V30 47 H -4.1438 -1.62181 2.43891 0
M  V30 48 H -2.77947 -1.46106 1.33933 0
M  V30 49 H -4.40849 -1.83139 -0.343166 0
M  V30 50 H -5.75384 -0.62147 -0.632498 0
M  V30 51 H -5.84159 -1.79578 0.732239 0
M  V30 END ATOM
M  V30 BEGIN BOND
M  V30 1 1 1 2
M  V30 2 1 2 3
M  V30 3 1 3 4
M  V30 4 1 4 5
M  V30 5 1 5 6
M  V30 6 2 6 7
M  V30 7 1 6 8
M  V30 8 1 8 9
M  V30 9 1 9 10
M  V30 10 1 10 11
M  V30 11 2 11 12
M  V30 12 1 12 13
M  V30 13 2 13 14
M  V30 14 1 14 15
M  V30 15 2 15 16
M  V30 16 1 16 17
M  V30 17 2 17 18
M  V30 18 1 17 19
M  V30 19 1 14 20
M  V30 20 2 20 21
M  V30 21 2 20 22
M  V30 22 1 20 23
M  V30 23 1 5 24
M  V30 24 1 3 25
M  V30 25 1 3 26
M  V30 26 1 16 11
M  V30 27 1 1 27
M  V30 28 1 1 28
M  V30 29 1 2 29
M  V30 30 1 2 30
M  V30 31 1 4 31
M  V30 32 1 4 32
M  V30 33 1 8 33
M  V30 34 1 8 34
M  V30 35 1 9 35
M  V30 36 1 9 36
M  V30 37 1 10 37
M  V30 38 1 12 38
M  V30 39 1 13 39
M  V30 40 1 15 40
M  V30 41 1 23 41
M  V30 42 1 23 42
M  V30 43 1 24 43
M  V30 44 1 24 44
M  V30 45 1 24 45
M  V30 46 1 25 46
M  V30 47 1 25 47
M  V30 48 1 25 48
M  V30 49 1 26 49
M  V30 50 1 26 50
M  V30 51 1 26 51
M  V30 END BOND
M  V30 END CTAB
M  END
