
     RDKit          3D

  0  0  0  0  0  0  0  0  0  0999 V3000
M  V30 BEGIN CTAB
M  V30 COUNTS 13 13 0 0 0
M  V30 BEGIN ATOM
M  V30 1 N 0.696542 -1.68789 -0.175904 0
M  V30 2 C 0.630255 -0.245282 -0.0452634 0
M  V30 3 C 1.79025 0.486458 -0.0111235 0
M  V30 4 S 1.23261 2.08696 0.146842 0
M  V30 5 C -0.447052 1.79678 0.166131 0
M  V30 6 C -0.521543 0.4343 0.0464388 0
M  V30 7 N -1.83667 -0.202297 0.0249816 0
M  V30 8 H 1.36467 -2.20967 0.416012 0
M  V30 9 H 0.108695 -2.22711 -0.832625 0
M  V30 10 H 2.82699 0.109372 -0.0727066 0
M  V30 11 H -1.29343 2.5111 0.252718 0
M  V30 12 H -2.4503 -0.118446 -0.789491 0
M  V30 13 H -2.10101 -0.734269 0.873989 0
M  V30 END ATOM
M  V30 BEGIN BOND
M  V30 1 1 1 2
M  V30 2 2 2 3
M  V30 3 1 3 4
M  V30 4 1 4 5
M  V30 5 2 5 6
M  V30 6 1 6 7
M  V30 7 1 6 2
M  V30 8 1 1 8
M  V30 9 1 1 9
M  V30 10 1 3 10
M  V30 11 1 5 11
M  V30 12 1 7 12
M  V30 13 1 7 13
M  V30 END BOND
M  V30 END CTAB
M  END
