
     RDKit          3D

  0  0  0  0  0  0  0  0  0  0999 V3000
M  V30 BEGIN CTAB
M  V30 COUNTS 22 22 0 0 0
M  V30 BEGIN ATOM
M  V30 1 C -2.62356 -0.572347 -0.275421 0
M  V30 2 C -1.80218 -0.471694 0.994445 0
M  V30 3 C -0.499289 0.187488 0.655696 0
M  V30 4 C -0.334658 1.50619 0.958808 0
M  V30 5 C 0.812382 2.22515 0.677435 0
M  V30 6 C 1.82511 1.53621 0.0548786 0
M  V30 7 C 1.68852 0.187774 -0.268083 0
M  V30 8 N 2.78759 -0.433786 -0.912342 0
M  V30 9 C 0.519905 -0.491511 0.0342337 0
M  V30 10 N 0.400041 -1.85981 -0.290886 0
M  V30 11 H -3.19331 -1.50775 -0.280574 0
M  V30 12 H -1.97505 -0.448765 -1.18145 0
M  V30 13 H -3.32704 0.301005 -0.297922 0
M  V30 14 H -1.67885 -1.489 1.41258 0
M  V30 15 H -2.37361 0.121342 1.73262 0
M  V30 16 H -1.13288 2.05275 1.4523 0
M  V30 17 H 0.962057 3.26829 0.908598 0
M  V30 18 H 2.73872 2.04955 -0.186178 0
M  V30 19 H 3.16245 -0.0369372 -1.82375 0
M  V30 20 H 3.25185 -1.28165 -0.518681 0
M  V30 21 H -0.465719 -2.34564 -0.573792 0
M  V30 22 H 1.25751 -2.49687 -0.25539 0
M  V30 END ATOM
M  V30 BEGIN BOND
M  V30 1 1 1 2
M  V30 2 1 2 3
M  V30 3 2 3 4
M  V30 4 1 4 5
M  V30 5 2 5 6
M  V30 6 1 6 7
M  V30 7 1 7 8
M  V30 8 2 7 9
M  V30 9 1 9 10
M  V30 10 1 9 3
M  V30 11 1 1 11
M  V30 12 1 1 12
M  V30 13 1 1 13
M  V30 14 1 2 14
M  V30 15 1 2 15
M  V30 16 1 4 16
M  V30 17 1 5 17
M  V30 18 1 6 18
M  V30 19 1 8 19
M  V30 20 1 8 20
M  V30 21 1 10 21
M  V30 22 1 10 22
M  V30 END BOND
M  V30 END CTAB
M  END
