
     RDKit          3D

  0  0  0  0  0  0  0  0  0  0999 V3000
M  V30 BEGIN CTAB
M  V30 COUNTS 31 32 0 0 0
M  V30 BEGIN ATOM
M  V30 1 O 0.495901 -1.84641 0.122999 0
M  V30 2 C 0.840911 -0.676828 -0.00600557 0
M  V30 3 C 2.31491 -0.492076 -0.195913 0
M  V30 4 C 3.18412 -1.53678 -0.164779 0
M  V30 5 C 4.53258 -1.3176 -0.371774 0
M  V30 6 C 5.04464 -0.0736191 -0.611027 0
M  V30 7 C 4.16638 0.986578 -0.642681 0
M  V30 8 C 2.82475 0.754986 -0.43484 0
M  V30 9 C 0.000538919 0.478273 0.00917557 0
M  V30 10 C -1.44448 0.407271 0.049928 0
M  V30 11 C -2.1815 1.61375 0.250402 0
M  V30 12 N -1.6085 2.91109 0.436527 0
M  V30 13 N -3.4624 1.27366 0.22214 0
M  V30 14 N -3.66856 0.0190433 0.0326736 0
M  V30 15 C -2.41047 -0.535847 -0.0762479 0
M  V30 16 N -2.23262 -1.93675 -0.307107 0
M  V30 17 C -4.92224 -0.707765 -0.062643 0
M  V30 18 H 2.7805 -2.52363 0.028066 0
M  V30 19 H 5.16766 -2.17976 -0.335202 0
M  V30 20 H 6.11554 0.104673 -0.777274 0
M  V30 21 H 4.55119 1.98404 -0.835547 0
M  V30 22 H 2.1889 1.62989 -0.466708 0
M  V30 23 H 0.253566 1.11578 -0.917845 0
M  V30 24 H 0.335079 1.21278 0.850851 0
M  V30 25 H -0.69511 3.10843 -0.0130411 0
M  V30 26 H -2.05313 3.64857 0.992769 0
M  V30 27 H -2.08157 -2.32142 -1.25335 0
M  V30 28 H -2.25852 -2.58976 0.496337 0
M  V30 29 H -5.1613 -0.784736 -1.1584 0
M  V30 30 H -4.88326 -1.66627 0.450561 0
M  V30 31 H -5.7335 -0.0595535 0.331339 0
M  V30 END ATOM
M  V30 BEGIN BOND
M  V30 1 2 1 2
M  V30 2 1 2 3
M  V30 3 2 3 4
M  V30 4 1 4 5
M  V30 5 2 5 6
M  V30 6 1 6 7
M  V30 7 2 7 8
M  V30 8 1 2 9
M  V30 9 1 9 10
M  V30 10 1 10 11
M  V30 11 1 11 12
M  V30 12 2 11 13
M  V30 13 1 13 14
M  V30 14 1 14 15
M  V30 15 1 15 16
M  V30 16 1 14 17
M  V30 17 1 8 3
M  V30 18 2 15 10
M  V30 19 1 4 18
M  V30 20 1 5 19
M  V30 21 1 6 20
M  V30 22 1 7 21
M  V30 23 1 8 22
M  V30 24 1 9 23
M  V30 25 1 9 24
M  V30 26 1 12 25
M  V30 27 1 12 26
M  V30 28 1 16 27
M  V30 29 1 16 28
M  V30 30 1 17 29
M  V30 31 1 17 30
M  V30 32 1 17 31
M  V30 END BOND
M  V30 END CTAB
M  END
