
     RDKit          3D

  0  0  0  0  0  0  0  0  0  0999 V3000
M  V30 BEGIN CTAB
M  V30 COUNTS 23 23 0 0 0
M  V30 BEGIN ATOM
M  V30 1 N -2.24773 -3.62065 0.734644 0
M  V30 2 C -1.69585 -2.61187 0.469015 0
M  V30 3 C -1.0404 -1.36479 0.156555 0
M  V30 4 C 0.239524 -1.33259 -0.341765 0
M  V30 5 C 0.882115 -0.12728 -0.667269 0
M  V30 6 C 2.25449 -0.230654 -1.14662 0
M  V30 7 C 3.28001 0.396798 -0.284312 0
M  V30 8 O 4.22456 1.03142 -0.86031 0
M  V30 9 O 3.30622 0.347522 1.08603 0
M  V30 10 C 0.199568 1.04322 -0.475317 0
M  V30 11 C -1.10378 1.04217 0.0328103 0
M  V30 12 C -1.69286 -0.170997 0.334049 0
M  V30 13 N -3.02102 -0.225251 0.864404 0
M  V30 14 N -1.76432 2.25891 0.234009 0
M  V30 15 H 0.776778 -2.25381 -0.487681 0
M  V30 16 H 2.55176 -1.27187 -1.36797 0
M  V30 17 H 2.26935 0.326593 -2.14203 0
M  V30 18 H 3.03084 -0.324729 1.73363 0
M  V30 19 H 0.63765 1.99051 -0.710296 0
M  V30 20 H -3.15802 0.173195 1.81621 0
M  V30 21 H -3.82465 -0.620119 0.346341 0
M  V30 22 H -1.83804 3.05329 -0.472114 0
M  V30 23 H -2.26618 2.49099 1.14798 0
M  V30 END ATOM
M  V30 BEGIN BOND
M  V30 1 3 1 2
M  V30 2 1 2 3
M  V30 3 2 3 4
M  V30 4 1 4 5
M  V30 5 1 5 6
M  V30 6 1 6 7
M  V30 7 2 7 8
M  V30 8 1 7 9
M  V30 9 2 5 10
M  V30 10 1 10 11
M  V30 11 2 11 12
M  V30 12 1 12 13
M  V30 13 1 11 14
M  V30 14 1 12 3
M  V30 15 1 4 15
M  V30 16 1 6 16
M  V30 17 1 6 17
M  V30 18 1 9 18
M  V30 19 1 10 19
M  V30 20 1 13 20
M  V30 21 1 13 21
M  V30 22 1 14 22
M  V30 23 1 14 23
M  V30 END BOND
M  V30 END CTAB
M  END
