
     RDKit          3D

  0  0  0  0  0  0  0  0  0  0999 V3000
M  V30 BEGIN CTAB
M  V30 COUNTS 21 20 0 0 0
M  V30 BEGIN ATOM
M  V30 1 N 3.00013 -0.435694 -0.310814 0
M  V30 2 N 1.64537 -0.663376 -0.211808 0
M  V30 3 C 0.739828 0.222037 -0.0340601 0
M  V30 4 C -0.672458 -0.191834 0.0501716 0
M  V30 5 C -1.18728 0.241668 1.41464 0
M  V30 6 C -1.52367 0.541039 -0.991351 0
M  V30 7 C -0.86771 -1.65582 -0.178049 0
M  V30 8 N 1.11306 1.57398 0.0772338 0
M  V30 9 H 3.49115 0.222678 0.322421 0
M  V30 10 H 3.56025 -0.932176 -1.03797 0
M  V30 11 H -2.22303 -0.0642092 1.5907 0
M  V30 12 H -1.12555 1.35416 1.42344 0
M  V30 13 H -0.481715 -0.167446 2.15947 0
M  V30 14 H -1.24945 1.59505 -1.08669 0
M  V30 15 H -1.45025 -0.0118605 -1.96329 0
M  V30 16 H -2.58882 0.413708 -0.671724 0
M  V30 17 H 0.0893222 -2.22821 -0.145072 0
M  V30 18 H -1.5137 -2.12355 0.610442 0
M  V30 19 H -1.31622 -1.87087 -1.16466 0
M  V30 20 H 1.56275 1.87489 0.992072 0
M  V30 21 H 0.997977 2.30584 -0.63235 0
M  V30 END ATOM
M  V30 BEGIN BOND
M  V30 1 1 1 2
M  V30 2 2 2 3 CFG=2
M  V30 3 1 3 4
M  V30 4 1 4 5
M  V30 5 1 4 6
M  V30 6 1 4 7
M  V30 7 1 3 8
M  V30 8 1 1 9
M  V30 9 1 1 10
M  V30 10 1 5 11
M  V30 11 1 5 12
M  V30 12 1 5 13
M  V30 13 1 6 14
M  V30 14 1 6 15
M  V30 15 1 6 16
M  V30 16 1 7 17
M  V30 17 1 7 18
M  V30 18 1 7 19
M  V30 19 1 8 20
M  V30 20 1 8 21
M  V30 END BOND
M  V30 END CTAB
M  END
