
     RDKit          3D

  0  0  0  0  0  0  0  0  0  0999 V3000
M  V30 BEGIN CTAB
M  V30 COUNTS 42 44 0 0 0
M  V30 BEGIN ATOM
M  V30 1 N -2.98432 3.3851 -0.0169905 0
M  V30 2 C -3.66012 2.21833 -0.532543 0
M  V30 3 C -2.86204 1.4762 -1.60272 0
M  V30 4 C -3.49684 0.206113 -1.01945 0
M  V30 5 C -3.49122 0.963497 0.316692 0
M  V30 6 C -2.65025 -0.977208 -1.05469 0
M  V30 7 C -1.31984 -0.930647 -0.694843 0
M  V30 8 C -0.518557 -2.06332 -0.730942 0
M  V30 9 N 0.869078 -2.04444 -0.361981 0
M  V30 10 C 1.54161 -0.861193 0.0728173 0
M  V30 11 C 2.96969 -1.16495 0.381907 0
M  V30 12 C 3.68826 0.0677524 0.839672 0
M  V30 13 C 3.06263 1.27967 0.939972 0
M  V30 14 C 3.69378 2.42328 1.35539 0
M  V30 15 C 5.03559 2.32757 1.68684 0
M  V30 16 C 5.68906 1.10493 1.59151 0
M  V30 17 C 5.01909 -0.0244031 1.16902 0
M  V30 18 Cl 5.88875 -1.5449 1.06542 0
M  V30 19 N -1.1073 -3.19892 -1.13305 0
M  V30 20 C -2.40719 -3.28549 -1.49359 0
M  V30 21 N -3.14582 -2.15717 -1.44197 0
M  V30 22 N -2.95642 -4.53464 -1.91003 0
M  V30 23 H -2.95253 4.08022 -0.816182 0
M  V30 24 H -3.61663 3.81137 0.695791 0
M  V30 25 H -4.71702 2.3588 -0.816447 0
M  V30 26 H -1.79481 1.51302 -1.37458 0
M  V30 27 H -3.17149 1.69447 -2.64025 0
M  V30 28 H -4.53194 0.0521704 -1.32456 0
M  V30 29 H -2.50845 0.953771 0.786383 0
M  V30 30 H -4.36658 0.725367 0.953383 0
M  V30 31 H -0.847155 -0.00754721 -0.369535 0
M  V30 32 H 1.40681 -2.93621 -0.415022 0
M  V30 33 H 1.53193 -0.14067 -0.782947 0
M  V30 34 H 0.981013 -0.448954 0.93494 0
M  V30 35 H 3.10009 -1.99259 1.10061 0
M  V30 36 H 3.46497 -1.45596 -0.574149 0
M  V30 37 H 2.0094 1.35071 0.678916 0
M  V30 38 H 3.19315 3.39025 1.43503 0
M  V30 39 H 5.53209 3.23016 2.01429 0
M  V30 40 H 6.72977 1.08985 1.8615 0
M  V30 41 H -3.20877 -4.6233 -2.91879 0
M  V30 42 H -3.09147 -5.31008 -1.22355 0
M  V30 END ATOM
M  V30 BEGIN BOND
M  V30 1 1 1 2
M  V30 2 1 2 3
M  V30 3 1 3 4
M  V30 4 1 4 5
M  V30 5 1 4 6
M  V30 6 2 6 7
M  V30 7 1 7 8
M  V30 8 1 8 9
M  V30 9 1 9 10
M  V30 10 1 10 11
M  V30 11 1 11 12
M  V30 12 2 12 13
M  V30 13 1 13 14
M  V30 14 2 14 15
M  V30 15 1 15 16
M  V30 16 2 16 17
M  V30 17 1 17 18
M  V30 18 2 8 19
M  V30 19 1 19 20
M  V30 20 2 20 21
M  V30 21 1 20 22
M  V30 22 1 5 2
M  V30 23 1 21 6
M  V30 24 1 17 12
M  V30 25 1 1 23
M  V30 26 1 1 24
M  V30 27 1 2 25
M  V30 28 1 3 26
M  V30 29 1 3 27
M  V30 30 1 4 28
M  V30 31 1 5 29
M  V30 32 1 5 30
M  V30 33 1 7 31
M  V30 34 1 9 32
M  V30 35 1 10 33
M  V30 36 1 10 34
M  V30 37 1 11 35
M  V30 38 1 11 36
M  V30 39 1 13 37
M  V30 40 1 14 38
M  V30 41 1 15 39
M  V30 42 1 16 40
M  V30 43 1 22 41
M  V30 44 1 22 42
M  V30 END BOND
M  V30 END CTAB
M  END
