
     RDKit          3D

  0  0  0  0  0  0  0  0  0  0999 V3000
M  V30 BEGIN CTAB
M  V30 COUNTS 22 22 0 0 0
M  V30 BEGIN ATOM
M  V30 1 O -3.67887 0.0580276 -0.146935 0
M  V30 2 C -2.51127 -0.666229 -0.271783 0
M  V30 3 O -2.36323 -1.67312 0.500555 0
M  V30 4 C -1.44314 -0.323205 -1.25262 0
M  V30 5 C -0.166591 -0.0141197 -0.509667 0
M  V30 6 C 0.047042 1.2251 0.0511406 0
M  V30 7 N -0.896224 2.25443 -0.115691 0
M  V30 8 C 1.20504 1.48491 0.775433 0
M  V30 9 C 2.1134 0.472019 0.906165 0
M  V30 10 C 1.9592 -0.786222 0.369622 0
M  V30 11 C 0.787437 -1.00417 -0.34774 0
M  V30 12 Br 0.541724 -2.7501 -1.10305 0
M  V30 13 N 2.9492 -1.80581 0.555231 0
M  V30 14 H -4.13903 0.208276 0.75109 0
M  V30 15 H -1.75289 0.509571 -1.90567 0
M  V30 16 H -1.2391 -1.22543 -1.85503 0
M  V30 17 H -0.684743 3.08058 -0.706034 0
M  V30 18 H -1.82239 2.20887 0.348394 0
M  V30 19 H 1.389 2.45635 1.22427 0
M  V30 20 H 3.03125 0.634415 1.46326 0
M  V30 21 H 2.81022 -2.80613 0.306824 0
M  V30 22 H 3.86396 -1.53801 0.962243 0
M  V30 END ATOM
M  V30 BEGIN BOND
M  V30 1 1 1 2
M  V30 2 2 2 3
M  V30 3 1 2 4
M  V30 4 1 4 5
M  V30 5 2 5 6
M  V30 6 1 6 7
M  V30 7 1 6 8
M  V30 8 2 8 9
M  V30 9 1 9 10
M  V30 10 2 10 11
M  V30 11 1 11 12
M  V30 12 1 10 13
M  V30 13 1 11 5
M  V30 14 1 1 14
M  V30 15 1 4 15
M  V30 16 1 4 16
M  V30 17 1 7 17
M  V30 18 1 7 18
M  V30 19 1 8 19
M  V30 20 1 9 20
M  V30 21 1 13 21
M  V30 22 1 13 22
M  V30 END BOND
M  V30 END CTAB
M  END
