
     RDKit          3D

  0  0  0  0  0  0  0  0  0  0999 V3000
M  V30 BEGIN CTAB
M  V30 COUNTS 25 25 0 0 0
M  V30 BEGIN ATOM
M  V30 1 N -1.82374 2.22261 -0.60156 0
M  V30 2 C -2.1772 0.839021 -0.506481 0
M  V30 3 C -0.983103 0.0493783 -0.121359 0
M  V30 4 C 0.202026 0.724635 0.072248 0
M  V30 5 C 1.33204 0.019376 0.431251 0
M  V30 6 C 1.27636 -1.33486 0.593123 0
M  V30 7 C 0.0933452 -2.02027 0.401334 0
M  V30 8 C -1.04059 -1.32702 0.0429502 0
M  V30 9 C -2.33804 -2.02326 -0.174565 0
M  V30 10 S 2.80639 0.94876 0.660547 0
M  V30 11 O 3.60386 0.314738 1.74735 0
M  V30 12 O 2.4508 2.35047 1.0779 0
M  V30 13 N 3.65381 1.04746 -0.828695 0
M  V30 14 H -1.89122 2.72925 0.31072 0
M  V30 15 H -2.28779 2.72912 -1.38963 0
M  V30 16 H -2.93874 0.650313 0.304843 0
M  V30 17 H -2.64967 0.442677 -1.43019 0
M  V30 18 H 0.247523 1.81939 -0.0584775 0
M  V30 19 H 2.17847 -1.8663 0.875638 0
M  V30 20 H 0.0661487 -3.1086 0.53558 0
M  V30 21 H -2.20004 -3.1126 -0.253721 0
M  V30 22 H -3.02181 -1.86602 0.700897 0
M  V30 23 H -2.83447 -1.66856 -1.09525 0
M  V30 24 H 3.62535 0.0984662 -1.26846 0
M  V30 25 H 4.6503 1.34184 -0.655591 0
M  V30 END ATOM
M  V30 BEGIN BOND
M  V30 1 1 1 2
M  V30 2 1 2 3
M  V30 3 2 3 4
M  V30 4 1 4 5
M  V30 5 2 5 6
M  V30 6 1 6 7
M  V30 7 2 7 8
M  V30 8 1 8 9
M  V30 9 1 5 10
M  V30 10 2 10 11
M  V30 11 2 10 12
M  V30 12 1 10 13
M  V30 13 1 8 3
M  V30 14 1 1 14
M  V30 15 1 1 15
M  V30 16 1 2 16
M  V30 17 1 2 17
M  V30 18 1 4 18
M  V30 19 1 6 19
M  V30 20 1 7 20
M  V30 21 1 9 21
M  V30 22 1 9 22
M  V30 23 1 9 23
M  V30 24 1 13 24
M  V30 25 1 13 25
M  V30 END BOND
M  V30 END CTAB
M  END
