
     RDKit          3D

  0  0  0  0  0  0  0  0  0  0999 V3000
M  V30 BEGIN CTAB
M  V30 COUNTS 35 37 0 0 0
M  V30 BEGIN ATOM
M  V30 1 F 5.87419 1.22065 -2.35189 0
M  V30 2 C 5.2482 0.867273 -1.21642 0
M  V30 3 C 5.91103 1.06884 -0.00352201 0
M  V30 4 C 5.33372 0.73323 1.19874 0
M  V30 5 C 4.06374 0.180631 1.22586 0
M  V30 6 C 3.38192 -0.0322428 0.0549093 0
M  V30 7 C 3.99873 0.319608 -1.13688 0
M  V30 8 N 2.06851 -0.597517 0.0291922 0
M  V30 9 C 1.22899 -0.796092 1.05313 0
M  V30 10 C 0.0727536 -1.36581 0.538174 0
M  V30 11 C 0.245056 -1.50075 -0.814236 0
M  V30 12 N 1.47236 -1.02054 -1.07617 0
M  V30 13 C -0.686923 -2.04598 -1.84041 0
M  V30 14 S -1.71985 -0.755278 -2.56723 0
M  V30 15 C -2.82981 -0.134294 -1.31328 0
M  V30 16 N -2.49297 0.878476 -0.493345 0
M  V30 17 C -3.2721 1.39383 0.448279 0
M  V30 18 N -2.91053 2.45729 1.30977 0
M  V30 19 C -4.54132 0.836544 0.59458 0
M  V30 20 C -4.92448 -0.201669 -0.225029 0
M  V30 21 N -4.0696 -0.64873 -1.13998 0
M  V30 22 N -6.22182 -0.748496 -0.0613068 0
M  V30 23 H 6.89078 1.49424 -0.0126982 0
M  V30 24 H 5.82418 0.878966 2.15998 0
M  V30 25 H 3.62377 -0.0786439 2.17802 0
M  V30 26 H 3.4595 0.151716 -2.08285 0
M  V30 27 H 1.43305 -0.550478 2.08295 0
M  V30 28 H -0.801437 -1.64858 1.10957 0
M  V30 29 H -0.11952 -2.55627 -2.64762 0
M  V30 30 H -1.28729 -2.84295 -1.32168 0
M  V30 31 H -3.30048 2.54852 2.2662 0
M  V30 32 H -2.23601 3.16431 0.972991 0
M  V30 33 H -5.23407 1.19614 1.33241 0
M  V30 34 H -7.0491 -0.172603 -0.338812 0
M  V30 35 H -6.43315 -1.69333 0.318731 0
M  V30 END ATOM
M  V30 BEGIN BOND
M  V30 1 1 1 2
M  V30 2 2 2 3
M  V30 3 1 3 4
M  V30 4 2 4 5
M  V30 5 1 5 6
M  V30 6 2 6 7
M  V30 7 1 6 8
M  V30 8 1 8 9
M  V30 9 2 9 10
M  V30 10 1 10 11
M  V30 11 2 11 12
M  V30 12 1 11 13
M  V30 13 1 13 14
M  V30 14 1 14 15
M  V30 15 2 15 16
M  V30 16 1 16 17
M  V30 17 1 17 18
M  V30 18 2 17 19
M  V30 19 1 19 20
M  V30 20 2 20 21
M  V30 21 1 20 22
M  V30 22 1 7 2
M  V30 23 1 12 8
M  V30 24 1 21 15
M  V30 25 1 3 23
M  V30 26 1 4 24
M  V30 27 1 5 25
M  V30 28 1 7 26
M  V30 29 1 9 27
M  V30 30 1 10 28
M  V30 31 1 13 29
M  V30 32 1 13 30
M  V30 33 1 18 31
M  V30 34 1 18 32
M  V30 35 1 19 33
M  V30 36 1 22 34
M  V30 37 1 22 35
M  V30 END BOND
M  V30 END CTAB
M  END
