
     RDKit          3D

  0  0  0  0  0  0  0  0  0  0999 V3000
M  V30 BEGIN CTAB
M  V30 COUNTS 26 26 0 0 0
M  V30 BEGIN ATOM
M  V30 1 N 4.78592 -0.020896 0.105153 0
M  V30 2 C 3.35417 0.15349 -0.0654056 0
M  V30 3 C 2.55851 -0.849199 0.685647 0
M  V30 4 C 1.11806 -0.761064 0.581244 0
M  V30 5 C 0.541536 0.162211 -0.143666 0
M  V30 6 C -0.901733 0.320225 -0.301892 0
M  V30 7 C -1.8069 -0.50976 0.313706 0
M  V30 8 C -3.14993 -0.300678 0.118728 0
M  V30 9 N -4.0914 -1.16043 0.756344 0
M  V30 10 C -3.64654 0.712434 -0.673372 0
M  V30 11 C -2.70652 1.52585 -1.27534 0
M  V30 12 C -1.35918 1.33616 -1.09517 0
M  V30 13 H 5.05625 -0.23621 1.08513 0
M  V30 14 H 5.2914 0.783578 -0.311719 0
M  V30 15 H 3.12372 1.19204 0.116717 0
M  V30 16 H 3.16554 -0.0285601 -1.1658 0
M  V30 17 H 2.87487 -1.88346 0.43573 0
M  V30 18 H 2.82551 -0.729715 1.77864 0
M  V30 19 H 0.530551 -1.48618 1.12413 0
M  V30 20 H 1.19645 0.846428 -0.653381 0
M  V30 21 H -1.44882 -1.3343 0.957219 0
M  V30 22 H -4.6748 -1.76938 0.16484 0
M  V30 23 H -4.17422 -1.16169 1.77544 0
M  V30 24 H -4.71575 0.848168 -0.804955 0
M  V30 25 H -3.08844 2.32768 -1.90197 0
M  V30 26 H -0.658246 2.02326 -1.60601 0
M  V30 END ATOM
M  V30 BEGIN BOND
M  V30 1 1 1 2
M  V30 2 1 2 3
M  V30 3 1 3 4
M  V30 4 2 4 5
M  V30 5 1 5 6
M  V30 6 2 6 7
M  V30 7 1 7 8
M  V30 8 1 8 9
M  V30 9 2 8 10
M  V30 10 1 10 11
M  V30 11 2 11 12
M  V30 12 1 12 6
M  V30 13 1 1 13
M  V30 14 1 1 14
M  V30 15 1 2 15
M  V30 16 1 2 16
M  V30 17 1 3 17
M  V30 18 1 3 18
M  V30 19 1 4 19
M  V30 20 1 5 20
M  V30 21 1 7 21
M  V30 22 1 9 22
M  V30 23 1 9 23
M  V30 24 1 10 24
M  V30 25 1 11 25
M  V30 26 1 12 26
M  V30 END BOND
M  V30 END CTAB
M  END
