
     RDKit          3D

  0  0  0  0  0  0  0  0  0  0999 V3000
M  V30 BEGIN CTAB
M  V30 COUNTS 49 51 0 0 0
M  V30 BEGIN ATOM
M  V30 1 N -4.89839 2.56099 -2.28553 0
M  V30 2 C -4.44268 1.68267 -1.28633 0
M  V30 3 N -3.20904 1.67814 -0.774179 0
M  V30 4 C -2.83924 0.814761 0.179665 0
M  V30 5 N -3.73878 -0.0686966 0.628609 0
M  V30 6 C -4.97119 -0.0970272 0.146178 0
M  V30 7 N -5.33608 0.767238 -0.805268 0
M  V30 8 N -5.85234 -1.08777 0.626434 0
M  V30 9 C -5.97946 -2.32899 -0.0976969 0
M  V30 10 C -6.6125 -0.886474 1.81945 0
M  V30 11 C -1.45666 0.74995 0.71658 0
M  V30 12 C -0.363683 0.601428 -0.0238657 0
M  V30 13 N -0.408275 0.488843 -1.44687 0
M  V30 14 N 0.776096 0.571214 0.81096 0
M  V30 15 C 0.338895 0.721957 2.16971 0
M  V30 16 O 1.16202 0.729899 3.13306 0
M  V30 17 C -1.12138 0.850933 2.15054 0
M  V30 18 C 2.13641 0.374811 0.387024 0
M  V30 19 C 2.72033 1.09378 -0.60618 0
M  V30 20 C 4.0306 0.887983 -1.0194 0
M  V30 21 C 4.76865 -0.0845377 -0.394326 0
M  V30 22 C 4.19971 -0.832379 0.622295 0
M  V30 23 C 2.90191 -0.599641 1.00076 0
M  V30 24 C 6.17807 -0.359017 -0.793765 0
M  V30 25 C 6.36636 -1.84813 -0.906934 0
M  V30 26 C 7.03241 0.203494 0.357931 0
M  V30 27 H -4.58749 2.47322 -3.27456 0
M  V30 28 H -5.56605 3.32114 -2.00411 0
M  V30 29 H -6.51309 -3.08062 0.491868 0
M  V30 30 H -4.98704 -2.75642 -0.369938 0
M  V30 31 H -6.49768 -2.13664 -1.06263 0
M  V30 32 H -5.95447 -0.361045 2.56326 0
M  V30 33 H -7.47516 -0.206637 1.63362 0
M  V30 34 H -6.98115 -1.84659 2.25541 0
M  V30 35 H 0.228897 0.971697 -2.10828 0
M  V30 36 H -1.14573 -0.133134 -1.85622 0
M  V30 37 H -1.41415 1.8966 2.47333 0
M  V30 38 H -1.63882 0.09807 2.78449 0
M  V30 39 H 2.18518 1.87138 -1.12426 0
M  V30 40 H 4.45116 1.49795 -1.83292 0
M  V30 41 H 4.82138 -1.59271 1.09028 0
M  V30 42 H 2.48556 -1.19814 1.79859 0
M  V30 43 H 6.43648 0.209635 -1.68557 0
M  V30 44 H 7.14976 -2.14223 -1.63242 0
M  V30 45 H 5.39777 -2.28998 -1.24684 0
M  V30 46 H 6.61371 -2.25499 0.117123 0
M  V30 47 H 6.50762 1.11756 0.725238 0
M  V30 48 H 8.01848 0.528838 0.00550846 0
M  V30 49 H 7.08307 -0.572371 1.16553 0
M  V30 END ATOM
M  V30 BEGIN BOND
M  V30 1 1 1 2
M  V30 2 2 2 3
M  V30 3 1 3 4
M  V30 4 2 4 5
M  V30 5 1 5 6
M  V30 6 2 6 7
M  V30 7 1 6 8
M  V30 8 1 8 9
M  V30 9 1 8 10
M  V30 10 1 4 11
M  V30 11 2 11 12
M  V30 12 1 12 13
M  V30 13 1 12 14
M  V30 14 1 14 15
M  V30 15 2 15 16
M  V30 16 1 15 17
M  V30 17 1 14 18
M  V30 18 2 18 19
M  V30 19 1 19 20
M  V30 20 2 20 21
M  V30 21 1 21 22
M  V30 22 2 22 23
M  V30 23 1 21 24
M  V30 24 1 24 25
M  V30 25 1 24 26
M  V30 26 1 7 2
M  V30 27 1 17 11
M  V30 28 1 23 18
M  V30 29 1 1 27
M  V30 30 1 1 28
M  V30 31 1 9 29
M  V30 32 1 9 30
M  V30 33 1 9 31
M  V30 34 1 10 32
M  V30 35 1 10 33
M  V30 36 1 10 34
M  V30 37 1 13 35
M  V30 38 1 13 36
M  V30 39 1 17 37
M  V30 40 1 17 38
M  V30 41 1 19 39
M  V30 42 1 20 40
M  V30 43 1 22 41
M  V30 44 1 23 42
M  V30 45 1 24 43
M  V30 46 1 25 44
M  V30 47 1 25 45
M  V30 48 1 25 46
M  V30 49 1 26 47
M  V30 50 1 26 48
M  V30 51 1 26 49
M  V30 END BOND
M  V30 END CTAB
M  END
