
     RDKit          3D

  0  0  0  0  0  0  0  0  0  0999 V3000
M  V30 BEGIN CTAB
M  V30 COUNTS 47 48 0 0 0
M  V30 BEGIN ATOM
M  V30 1 C -3.61771 -1.83977 -0.678405 0
M  V30 2 C -3.27893 -1.00795 0.518184 0
M  V30 3 C -1.77212 -0.789236 0.590939 0
M  V30 4 C -1.41367 0.118692 -0.518997 0
M  V30 5 C -0.0891876 0.0911975 -1.1181 0
M  V30 6 C 1.14435 0.371299 -0.364373 0
M  V30 7 C 1.38733 -0.574826 0.742166 0
M  V30 8 C 2.69882 -0.124746 1.43726 0
M  V30 9 C 3.78815 -0.521328 0.466815 0
M  V30 10 N 3.79477 -1.9628 0.30122 0
M  V30 11 C 3.63562 0.184463 -0.85327 0
M  V30 12 C 4.31957 1.54223 -0.725483 0
M  V30 13 C 2.27303 0.25433 -1.38036 0
M  V30 14 C -1.90335 1.49761 -0.106586 0
M  V30 15 C -3.41366 1.43878 -0.131381 0
M  V30 16 C -4.02497 0.299363 0.586859 0
M  V30 17 N -4.28334 0.638847 1.99531 0
M  V30 18 H -4.35573 -2.64293 -0.474122 0
M  V30 19 H -4.03234 -1.24944 -1.51993 0
M  V30 20 H -2.69302 -2.37108 -1.03544 0
M  V30 21 H -3.55158 -1.5862 1.42469 0
M  V30 22 H -1.3077 -1.76817 0.571612 0
M  V30 23 H -1.63467 -0.22171 1.56191 0
M  V30 24 H -2.13532 -0.152809 -1.37362 0
M  V30 25 H 0.0272038 -0.932172 -1.60749 0
M  V30 26 H -0.141732 0.755 -2.05437 0
M  V30 27 H 1.1314 1.44498 -0.0262331 0
M  V30 28 H 1.62693 -1.5739 0.313136 0
M  V30 29 H 0.626682 -0.719803 1.49429 0
M  V30 30 H 2.8364 -0.641089 2.38493 0
M  V30 31 H 2.69929 0.970001 1.5476 0
M  V30 32 H 4.79665 -0.249864 0.862503 0
M  V30 33 H 4.08492 -2.35635 1.2442 0
M  V30 34 H 4.60563 -2.18039 -0.330637 0
M  V30 35 H 4.27227 -0.390869 -1.58692 0
M  V30 36 H 3.65761 2.29354 -0.265336 0
M  V30 37 H 4.7625 1.86755 -1.68486 0
M  V30 38 H 5.18466 1.41009 -0.0257708 0
M  V30 39 H 2.04406 -0.638737 -1.99918 0
M  V30 40 H 2.18138 1.14611 -2.05195 0
M  V30 41 H -1.58925 2.28478 -0.810617 0
M  V30 42 H -1.58086 1.72918 0.927511 0
M  V30 43 H -3.84388 2.38347 0.311339 0
M  V30 44 H -3.7551 1.40336 -1.19672 0
M  V30 45 H -5.03759 0.107528 0.149907 0
M  V30 46 H -4.77384 1.54094 2.03324 0
M  V30 47 H -3.34971 0.722816 2.45453 0
M  V30 END ATOM
M  V30 BEGIN BOND
M  V30 1 1 1 2
M  V30 2 1 2 3
M  V30 3 1 3 4
M  V30 4 1 4 5
M  V30 5 1 5 6
M  V30 6 1 6 7
M  V30 7 1 7 8
M  V30 8 1 8 9
M  V30 9 1 9 10
M  V30 10 1 9 11
M  V30 11 1 11 12
M  V30 12 1 11 13
M  V30 13 1 4 14
M  V30 14 1 14 15
M  V30 15 1 15 16
M  V30 16 1 16 17
M  V30 17 1 16 2
M  V30 18 1 13 6
M  V30 19 1 1 18
M  V30 20 1 1 19
M  V30 21 1 1 20
M  V30 22 1 2 21
M  V30 23 1 3 22
M  V30 24 1 3 23
M  V30 25 1 4 24
M  V30 26 1 5 25
M  V30 27 1 5 26
M  V30 28 1 6 27
M  V30 29 1 7 28
M  V30 30 1 7 29
M  V30 31 1 8 30
M  V30 32 1 8 31
M  V30 33 1 9 32
M  V30 34 1 10 33
M  V30 35 1 10 34
M  V30 36 1 11 35
M  V30 37 1 12 36
M  V30 38 1 12 37
M  V30 39 1 12 38
M  V30 40 1 13 39
M  V30 41 1 13 40
M  V30 42 1 14 41
M  V30 43 1 14 42
M  V30 44 1 15 43
M  V30 45 1 15 44
M  V30 46 1 16 45
M  V30 47 1 17 46
M  V30 48 1 17 47
M  V30 END BOND
M  V30 END CTAB
M  END
