
     RDKit          3D

  0  0  0  0  0  0  0  0  0  0999 V3000
M  V30 BEGIN CTAB
M  V30 COUNTS 17 17 0 0 0
M  V30 BEGIN ATOM
M  V30 1 N 2.55253 -0.552306 -0.0169113 0
M  V30 2 C 1.41466 0.302086 -0.0789959 0
M  V30 3 N 1.47126 1.61289 -0.226885 0
M  V30 4 C 0.376012 2.39272 -0.281908 0
M  V30 5 N -0.833618 1.79534 -0.179944 0
M  V30 6 C -0.977623 0.464316 -0.0272414 0
M  V30 7 C 0.166527 -0.30709 0.0254119 0
M  V30 8 N 0.0298578 -1.71047 0.185996 0
M  V30 9 C -2.29472 -0.201162 0.0854747 0
M  V30 10 F -2.5352 -1.11877 -0.887175 0
M  V30 11 F -3.27345 0.789498 -0.0305443 0
M  V30 12 F -2.46961 -0.729177 1.3697 0
M  V30 13 H 3.03341 -0.814081 0.861295 0
M  V30 14 H 2.91284 -0.929476 -0.912094 0
M  V30 15 H 0.458425 3.4808 -0.405703 0
M  V30 16 H 0.347829 -2.15516 1.07078 0
M  V30 17 H -0.379134 -2.31994 -0.551259 0
M  V30 END ATOM
M  V30 BEGIN BOND
M  V30 1 1 1 2
M  V30 2 2 2 3
M  V30 3 1 3 4
M  V30 4 2 4 5
M  V30 5 1 5 6
M  V30 6 2 6 7
M  V30 7 1 7 8
M  V30 8 1 6 9
M  V30 9 1 9 10
M  V30 10 1 9 11
M  V30 11 1 9 12
M  V30 12 1 7 2
M  V30 13 1 1 13
M  V30 14 1 1 14
M  V30 15 1 4 15
M  V30 16 1 8 16
M  V30 17 1 8 17
M  V30 END BOND
M  V30 END CTAB
M  END
