
     RDKit          3D

  0  0  0  0  0  0  0  0  0  0999 V3000
M  V30 BEGIN CTAB
M  V30 COUNTS 34 35 0 0 0
M  V30 BEGIN ATOM
M  V30 1 N 4.82564 0.0967582 -0.107766 0
M  V30 2 C 3.46335 -0.345109 -0.182265 0
M  V30 3 C 2.53575 0.752491 0.2856 0
M  V30 4 C 1.09136 0.322389 0.217811 0 CFG=1
M  V30 5 C 0.774944 -0.864404 1.05376 0
M  V30 6 C -0.611389 -1.30511 0.760623 0
M  V30 7 C -0.94627 -2.64883 0.7967 0
M  V30 8 C -2.23845 -3.02778 0.532586 0
M  V30 9 C -3.16908 -2.05366 0.23782 0
M  V30 10 C -2.85035 -0.712208 0.198129 0
M  V30 11 C -1.54268 -0.329413 0.465054 0
M  V30 12 N -1.18905 1.05043 0.424186 0
M  V30 13 C 0.182038 1.46024 0.704832 0
M  V30 14 S -2.371 2.22453 0.0331588 0
M  V30 15 O -3.4901 2.25857 1.05984 0
M  V30 16 O -1.74191 3.60955 0.10876 0
M  V30 17 N -3.03897 2.04671 -1.53283 0
M  V30 18 H 5.43025 -0.670079 0.147523 0
M  V30 19 H 5.101 0.576633 -0.933242 0
M  V30 20 H 3.35506 -1.27406 0.415175 0
M  V30 21 H 3.25089 -0.511303 -1.25853 0
M  V30 22 H 2.79973 1.07838 1.32378 0
M  V30 23 H 2.71835 1.6337 -0.358391 0
M  V30 24 H 0.82899 0.154867 -0.834151 0
M  V30 25 H 0.869393 -0.562303 2.12688 0
M  V30 26 H 1.44107 -1.73738 0.901435 0
M  V30 27 H -0.154847 -3.36712 1.03823 0
M  V30 28 H -2.52579 -4.07174 0.554335 0
M  V30 29 H -4.19962 -2.32819 0.0250242 0
M  V30 30 H -3.56797 0.0529337 -0.0265887 0
M  V30 31 H 0.314041 1.67219 1.76497 0
M  V30 32 H 0.402325 2.32383 0.0442825 0
M  V30 33 H -2.41078 1.52866 -2.18574 0
M  V30 34 H -3.33591 2.96581 -1.93273 0
M  V30 END ATOM
M  V30 BEGIN BOND
M  V30 1 1 1 2
M  V30 2 1 2 3
M  V30 3 1 3 4
M  V30 4 1 4 5
M  V30 5 1 5 6
M  V30 6 2 6 7
M  V30 7 1 7 8
M  V30 8 2 8 9
M  V30 9 1 9 10
M  V30 10 2 10 11
M  V30 11 1 11 12
M  V30 12 1 12 13
M  V30 13 1 12 14
M  V30 14 2 14 15
M  V30 15 2 14 16
M  V30 16 1 14 17
M  V30 17 1 13 4
M  V30 18 1 11 6
M  V30 19 1 1 18
M  V30 20 1 1 19
M  V30 21 1 2 20
M  V30 22 1 2 21
M  V30 23 1 3 22
M  V30 24 1 3 23
M  V30 25 1 4 24 CFG=3
M  V30 26 1 5 25
M  V30 27 1 5 26
M  V30 28 1 7 27
M  V30 29 1 8 28
M  V30 30 1 9 29
M  V30 31 1 10 30
M  V30 32 1 13 31
M  V30 33 1 13 32
M  V30 34 1 17 33
M  V30 35 1 17 34
M  V30 END BOND
M  V30 END CTAB
M  END
