
     RDKit          3D

  0  0  0  0  0  0  0  0  0  0999 V3000
M  V30 BEGIN CTAB
M  V30 COUNTS 25 26 0 0 0
M  V30 BEGIN ATOM
M  V30 1 C -3.23351 1.34803 -0.64144 0
M  V30 2 C -2.38152 0.257429 -0.090864 0
M  V30 3 C -2.93564 -0.860006 0.499061 0
M  V30 4 C -2.16896 -1.88241 1.01578 0
M  V30 5 C -0.798123 -1.75474 0.924735 0
M  V30 6 C -0.185784 -0.662755 0.346964 0
M  V30 7 C -1.00926 0.322871 -0.149645 0
M  V30 8 N -0.383283 1.45786 -0.749964 0
M  V30 9 C 1.26553 -0.546479 0.260381 0
M  V30 10 N 2.14847 -1.45178 0.714224 0
M  V30 11 N 3.38936 -1.03106 0.473452 0
M  V30 12 C 3.31041 0.160172 -0.143312 0
M  V30 13 N 2.0105 0.438734 -0.264371 0
M  V30 14 N 4.43954 0.948575 -0.572877 0
M  V30 15 H -2.68687 2.31316 -0.67141 0
M  V30 16 H -3.4875 1.05505 -1.69491 0
M  V30 17 H -4.14515 1.39849 -0.00186025 0
M  V30 18 H -4.00707 -0.927945 0.55371 0
M  V30 19 H -2.64098 -2.74142 1.47012 0
M  V30 20 H -0.178831 -2.55266 1.32762 0
M  V30 21 H -0.126256 1.47192 -1.76278 0
M  V30 22 H -0.202002 2.2684 -0.106864 0
M  V30 23 H 4.29281 -1.53059 0.716342 0
M  V30 24 H 5.11565 0.593831 -1.27682 0
M  V30 25 H 4.59845 1.90732 -0.175273 0
M  V30 END ATOM
M  V30 BEGIN BOND
M  V30 1 1 1 2
M  V30 2 2 2 3
M  V30 3 1 3 4
M  V30 4 2 4 5
M  V30 5 1 5 6
M  V30 6 2 6 7
M  V30 7 1 7 8
M  V30 8 1 6 9
M  V30 9 2 9 10
M  V30 10 1 10 11
M  V30 11 1 11 12
M  V30 12 2 12 13
M  V30 13 1 12 14
M  V30 14 1 7 2
M  V30 15 1 13 9
M  V30 16 1 1 15
M  V30 17 1 1 16
M  V30 18 1 1 17
M  V30 19 1 3 18
M  V30 20 1 4 19
M  V30 21 1 5 20
M  V30 22 1 8 21
M  V30 23 1 8 22
M  V30 24 1 11 23
M  V30 25 1 14 24
M  V30 26 1 14 25
M  V30 END BOND
M  V30 END CTAB
M  END
