
     RDKit          3D

  0  0  0  0  0  0  0  0  0  0999 V3000
M  V30 BEGIN CTAB
M  V30 COUNTS 74 77 0 0 0
M  V30 BEGIN ATOM
M  V30 1 C -8.96322 2.79999 -1.54058 0
M  V30 2 C -9.27002 1.31424 -1.4263 0
M  V30 3 N -8.049 0.595604 -1.17681 0
M  V30 4 C -8.07725 -0.824247 -1.03029 0
M  V30 5 O -9.16533 -1.44773 -1.11883 0
M  V30 6 C -6.79754 -1.57157 -0.769071 0 CFG=1
M  V30 7 O -5.76092 -0.677431 -0.718908 0
M  V30 8 C -4.82719 -1.08479 0.200017 0 CFG=2
M  V30 9 C -5.44967 -2.13818 1.07569 0 CFG=2
M  V30 10 O -4.8242 -3.3696 0.953338 0
M  V30 11 C -6.87007 -2.14458 0.608023 0 CFG=2
M  V30 12 O -7.35824 -3.45253 0.622352 0
M  V30 13 N -4.43195 0.0148309 1.08243 0
M  V30 14 C -5.26498 0.551366 1.98593 0
M  V30 15 N -4.54809 1.5309 2.60145 0
M  V30 16 C -3.31481 1.5735 2.07301 0
M  V30 17 C -3.2257 0.605672 1.09639 0
M  V30 18 N -2.06613 0.46186 0.420889 0
M  V30 19 C -0.986138 1.22356 0.657115 0
M  V30 20 N 0.245022 1.04967 -0.0819823 0
M  V30 21 C 0.353041 0.0407726 -1.10578 0
M  V30 22 C 1.66623 -0.0252591 -1.79954 0
M  V30 23 C 2.78978 -0.310164 -0.904412 0
M  V30 24 C 3.53013 0.704101 -0.350385 0
M  V30 25 C 4.57941 0.444003 0.497475 0
M  V30 26 C 4.96044 -0.807848 0.846164 0
M  V30 27 C 6.06374 -1.21924 1.70389 0
M  V30 28 C 7.31775 -1.67156 1.10062 0
M  V30 29 C 8.02112 -0.678608 0.260315 0
M  V30 30 O 7.62416 0.490304 0.084155 0
M  V30 31 N 9.23637 -1.05834 -0.403333 0
M  V30 32 C 9.95445 -0.125704 -1.2167 0
M  V30 33 C 10.4504 1.03572 -0.412597 0
M  V30 34 N 11.1768 1.92706 -1.31635 0
M  V30 35 C 4.21111 -1.8598 0.286524 0
M  V30 36 C 3.16135 -1.59922 -0.560813 0
M  V30 37 N -1.09037 2.16113 1.6115 0
M  V30 38 C -2.21346 2.37333 2.3364 0
M  V30 39 N -2.25313 3.38175 3.32939 0
M  V30 40 H -9.46487 3.26269 -2.40718 0
M  V30 41 H -9.30028 3.28844 -0.606977 0
M  V30 42 H -7.85871 2.95406 -1.58918 0
M  V30 43 H -9.99819 1.14332 -0.588147 0
M  V30 44 H -9.73171 0.940597 -2.3634 0
M  V30 45 H -7.13915 1.09967 -1.10123 0
M  V30 46 H -6.6979 -2.34427 -1.56228 0
M  V30 47 H -3.93036 -1.52894 -0.305764 0
M  V30 48 H -5.44504 -1.8669 2.15704 0
M  V30 49 H -4.95863 -3.76626 0.0446393 0
M  V30 50 H -7.5284 -1.53078 1.25237 0
M  V30 51 H -8.32223 -3.50062 0.816322 0
M  V30 52 H -6.29582 0.290767 2.21014 0
M  V30 53 H 1.05107 1.65884 0.131463 0
M  V30 54 H -0.511522 0.0599045 -1.8088 0
M  V30 55 H 0.228864 -0.94672 -0.566762 0
M  V30 56 H 1.81594 0.934106 -2.37043 0
M  V30 57 H 1.57929 -0.792807 -2.62406 0
M  V30 58 H 3.27733 1.74041 -0.602643 0
M  V30 59 H 5.10861 1.28767 0.919519 0
M  V30 60 H 6.28286 -0.333894 2.37995 0
M  V30 61 H 5.67687 -1.9843 2.44869 0
M  V30 62 H 7.25432 -2.66624 0.591534 0
M  V30 63 H 8.04484 -1.88597 1.94969 0
M  V30 64 H 9.56116 -2.05312 -0.255597 0
M  V30 65 H 10.8085 -0.649495 -1.72644 0
M  V30 66 H 9.22907 0.210767 -2.01033 0
M  V30 67 H 11.1695 0.61775 0.337938 0
M  V30 68 H 9.67151 1.59834 0.0746066 0
M  V30 69 H 11.306 2.8257 -0.829152 0
M  V30 70 H 12.1038 1.49635 -1.53507 0
M  V30 71 H 4.45027 -2.89836 0.515312 0
M  V30 72 H 2.55694 -2.3929 -1.01403 0
M  V30 73 H -1.8574 4.31321 3.12357 0
M  V30 74 H -2.6703 3.20602 4.25751 0
M  V30 END ATOM
M  V30 BEGIN BOND
M  V30 1 1 1 2
M  V30 2 1 2 3
M  V30 3 1 3 4
M  V30 4 2 4 5
M  V30 5 1 4 6
M  V30 6 1 6 7
M  V30 7 1 7 8
M  V30 8 1 8 9
M  V30 9 1 9 10
M  V30 10 1 9 11
M  V30 11 1 11 12
M  V30 12 1 8 13
M  V30 13 1 13 14
M  V30 14 2 14 15
M  V30 15 1 15 16
M  V30 16 2 16 17
M  V30 17 1 17 18
M  V30 18 2 18 19
M  V30 19 1 19 20
M  V30 20 1 20 21
M  V30 21 1 21 22
M  V30 22 1 22 23
M  V30 23 2 23 24
M  V30 24 1 24 25
M  V30 25 2 25 26
M  V30 26 1 26 27
M  V30 27 1 27 28
M  V30 28 1 28 29
M  V30 29 2 29 30
M  V30 30 1 29 31
M  V30 31 1 31 32
M  V30 32 1 32 33
M  V30 33 1 33 34
M  V30 34 1 26 35
M  V30 35 2 35 36
M  V30 36 1 19 37
M  V30 37 2 37 38
M  V30 38 1 38 39
M  V30 39 1 11 6
M  V30 40 1 17 13
M  V30 41 1 36 23
M  V30 42 1 38 16
M  V30 43 1 1 40
M  V30 44 1 1 41
M  V30 45 1 1 42
M  V30 46 1 2 43
M  V30 47 1 2 44
M  V30 48 1 3 45
M  V30 49 1 6 46 CFG=3
M  V30 50 1 8 47 CFG=3
M  V30 51 1 9 48 CFG=1
M  V30 52 1 10 49
M  V30 53 1 11 50 CFG=1
M  V30 54 1 12 51
M  V30 55 1 14 52
M  V30 56 1 20 53
M  V30 57 1 21 54
M  V30 58 1 21 55
M  V30 59 1 22 56
M  V30 60 1 22 57
M  V30 61 1 24 58
M  V30 62 1 25 59
M  V30 63 1 27 60
M  V30 64 1 27 61
M  V30 65 1 28 62
M  V30 66 1 28 63
M  V30 67 1 31 64
M  V30 68 1 32 65
M  V30 69 1 32 66
M  V30 70 1 33 67
M  V30 71 1 33 68
M  V30 72 1 34 69
M  V30 73 1 34 70
M  V30 74 1 35 71
M  V30 75 1 36 72
M  V30 76 1 39 73
M  V30 77 1 39 74
M  V30 END BOND
M  V30 END CTAB
M  END
