
     RDKit          3D

  0  0  0  0  0  0  0  0  0  0999 V3000
M  V30 BEGIN CTAB
M  V30 COUNTS 21 22 0 0 0
M  V30 BEGIN ATOM
M  V30 1 N -3.13986 2.87857 -0.184859 0
M  V30 2 C -2.27411 1.75537 -0.185767 0
M  V30 3 N -0.936646 1.85668 -0.184938 0
M  V30 4 C -0.193838 0.73434 -0.185889 0
M  V30 5 S 1.58484 0.948074 -0.184566 0
M  V30 6 C 2.38964 -0.698294 -0.186198 0
M  V30 7 C 3.86777 -0.755074 -0.185121 0
M  V30 8 C 3.19241 -1.02731 1.10362 0
M  V30 9 N -0.762706 -0.50525 -0.18768 0
M  V30 10 C -2.11013 -0.590344 -0.188501 0
M  V30 11 N -2.81836 0.533322 -0.187524 0
M  V30 12 N -2.76677 -1.86243 -0.190414 0
M  V30 13 H -3.69934 3.0648 -1.04258 0
M  V30 14 H -3.24175 3.51725 0.620817 0
M  V30 15 H 1.80721 -1.52928 -0.618715 0
M  V30 16 H 4.47054 0.176099 -0.246358 0
M  V30 17 H 4.36333 -1.59538 -0.751432 0
M  V30 18 H 3.22056 -0.233973 1.87836 0
M  V30 19 H 3.02813 -2.05161 1.48487 0
M  V30 20 H -2.23843 -2.66273 0.190575 0
M  V30 21 H -3.7425 -1.95284 -0.567703 0
M  V30 END ATOM
M  V30 BEGIN BOND
M  V30 1 1 1 2
M  V30 2 2 2 3
M  V30 3 1 3 4
M  V30 4 1 4 5
M  V30 5 1 5 6
M  V30 6 1 6 7
M  V30 7 1 7 8
M  V30 8 2 4 9
M  V30 9 1 9 10
M  V30 10 2 10 11
M  V30 11 1 10 12
M  V30 12 1 11 2
M  V30 13 1 8 6
M  V30 14 1 1 13
M  V30 15 1 1 14
M  V30 16 1 6 15
M  V30 17 1 7 16
M  V30 18 1 7 17
M  V30 19 1 8 18
M  V30 20 1 8 19
M  V30 21 1 12 20
M  V30 22 1 12 21
M  V30 END BOND
M  V30 END CTAB
M  END
