
     RDKit          3D

  0  0  0  0  0  0  0  0  0  0999 V3000
M  V30 BEGIN CTAB
M  V30 COUNTS 24 25 0 0 0
M  V30 BEGIN ATOM
M  V30 1 N 3.5388 -1.92237 0.127524 0
M  V30 2 C 2.60356 -0.861591 -0.00284151 0
M  V30 3 N 1.30182 -1.04384 0.290981 0
M  V30 4 C 0.393627 -0.0653183 0.179166 0
M  V30 5 N 0.808215 1.13658 -0.242158 0
M  V30 6 C 2.10911 1.37742 -0.552614 0
M  V30 7 N 2.98415 0.356675 -0.422547 0
M  V30 8 N 2.564 2.6353 -0.997462 0
M  V30 9 C -0.994805 -0.295735 0.502872 0
M  V30 10 C -1.94343 0.714808 -0.147365 0
M  V30 11 C -3.2639 0.0683117 0.237868 0
M  V30 12 C -2.87465 -1.36571 0.431071 0
M  V30 13 O -1.53176 -1.4742 0.00161514 0
M  V30 14 H 4.48927 -1.84827 -0.272433 0
M  V30 15 H 3.27454 -2.79435 0.632189 0
M  V30 16 H 1.99989 3.18323 -1.66408 0
M  V30 17 H 3.46159 3.01497 -0.660115 0
M  V30 18 H -1.2185 -0.262126 1.58557 0
M  V30 19 H -1.87458 0.666483 -1.2532 0
M  V30 20 H -1.82771 1.71683 0.271235 0
M  V30 21 H -3.57745 0.521364 1.20194 0
M  V30 22 H -4.01973 0.213064 -0.56035 0
M  V30 23 H -2.8643 -1.66041 1.49863 0
M  V30 24 H -3.53776 -2.01112 -0.185503 0
M  V30 END ATOM
M  V30 BEGIN BOND
M  V30 1 1 1 2
M  V30 2 2 2 3
M  V30 3 1 3 4
M  V30 4 2 4 5
M  V30 5 1 5 6
M  V30 6 2 6 7
M  V30 7 1 6 8
M  V30 8 1 4 9
M  V30 9 1 9 10
M  V30 10 1 10 11
M  V30 11 1 11 12
M  V30 12 1 12 13
M  V30 13 1 7 2
M  V30 14 1 13 9
M  V30 15 1 1 14
M  V30 16 1 1 15
M  V30 17 1 8 16
M  V30 18 1 8 17
M  V30 19 1 9 18
M  V30 20 1 10 19
M  V30 21 1 10 20
M  V30 22 1 11 21
M  V30 23 1 11 22
M  V30 24 1 12 23
M  V30 25 1 12 24
M  V30 END BOND
M  V30 END CTAB
M  END
