
     RDKit          3D

  0  0  0  0  0  0  0  0  0  0999 V3000
M  V30 BEGIN CTAB
M  V30 COUNTS 27 28 0 0 0
M  V30 BEGIN ATOM
M  V30 1 N 4.61643 -0.657388 0.118462 0
M  V30 2 C 3.2154 -0.450749 0.0750195 0
M  V30 3 N 2.45094 -1.42656 0.592435 0
M  V30 4 C 1.10899 -1.29863 0.587236 0
M  V30 5 N 0.234499 -2.28278 1.11281 0
M  V30 6 C 0.514038 -0.169634 0.0525765 0
M  V30 7 C -0.925135 -0.00337721 0.0246222 0
M  V30 8 C -1.62322 0.408478 1.14065 0
M  V30 9 C -2.99381 0.563018 1.11262 0
M  V30 10 C -3.65452 0.294783 -0.0658587 0
M  V30 11 Cl -5.38535 0.463694 -0.178576 0
M  V30 12 C -2.99954 -0.123152 -1.2223 0
M  V30 13 C -1.62765 -0.264042 -1.14475 0
M  V30 14 C 1.32221 0.807429 -0.467089 0
M  V30 15 C 0.733858 2.0175 -1.03779 0
M  V30 16 Br 0.131733 3.25108 0.344773 0
M  V30 17 N 2.65199 0.647159 -0.44535 0
M  V30 18 H 5.1401 -0.528464 1.005 0
M  V30 19 H 5.10348 -0.936316 -0.741282 0
M  V30 20 H -0.0880881 -2.22423 2.09413 0
M  V30 21 H -0.0908448 -3.07063 0.522038 0
M  V30 22 H -1.12666 0.625389 2.07762 0
M  V30 23 H -3.58483 0.881987 1.9589 0
M  V30 24 H -3.49756 -0.334644 -2.14458 0
M  V30 25 H -1.0552 -0.583811 -1.99999 0
M  V30 26 H -0.0844481 1.82933 -1.7644 0
M  V30 27 H 1.51319 2.56455 -1.60692 0
M  V30 END ATOM
M  V30 BEGIN BOND
M  V30 1 1 1 2
M  V30 2 2 2 3
M  V30 3 1 3 4
M  V30 4 1 4 5
M  V30 5 2 4 6
M  V30 6 1 6 7
M  V30 7 2 7 8
M  V30 8 1 8 9
M  V30 9 2 9 10
M  V30 10 1 10 11
M  V30 11 1 10 12
M  V30 12 2 12 13
M  V30 13 1 6 14
M  V30 14 1 14 15
M  V30 15 1 15 16
M  V30 16 2 14 17
M  V30 17 1 17 2
M  V30 18 1 13 7
M  V30 19 1 1 18
M  V30 20 1 1 19
M  V30 21 1 5 20
M  V30 22 1 5 21
M  V30 23 1 8 22
M  V30 24 1 9 23
M  V30 25 1 12 24
M  V30 26 1 13 25
M  V30 27 1 15 26
M  V30 28 1 15 27
M  V30 END BOND
M  V30 END CTAB
M  END
