
     RDKit          3D

  0  0  0  0  0  0  0  0  0  0999 V3000
M  V30 BEGIN CTAB
M  V30 COUNTS 31 32 0 0 0
M  V30 BEGIN ATOM
M  V30 1 N -2.33313 3.13398 0.213313 0
M  V30 2 C -2.66703 1.76973 -0.0550556 0
M  V30 3 N -4.03666 1.46987 -0.275075 0
M  V30 4 N -1.72629 0.930318 -0.0777984 0
M  V30 5 C -1.87597 -0.47708 -0.330461 0
M  V30 6 N -3.14798 -0.935799 -0.564756 0
M  V30 7 C -3.42887 -2.21165 -0.811809 0
M  V30 8 C -2.42968 -3.15831 -0.845104 0
M  V30 9 Cl -2.77456 -4.84578 -1.16859 0
M  V30 10 C -1.15841 -2.70604 -0.611972 0
M  V30 11 C -0.858666 -1.35071 -0.349364 0
M  V30 12 C 0.518817 -1.02198 -0.123659 0
M  V30 13 C 1.01054 0.145888 0.131294 0
M  V30 14 C 2.45285 0.410072 0.354346 0
M  V30 15 C 3.37771 -0.586723 0.303876 0
M  V30 16 C 4.71191 -0.254299 0.524805 0
M  V30 17 C 5.05042 1.05375 0.783889 0
M  V30 18 C 4.10133 2.04088 0.829742 0
M  V30 19 N 2.82591 1.67536 0.610625 0
M  V30 20 H -1.51489 3.58178 -0.232917 0
M  V30 21 H -2.9389 3.65786 0.869788 0
M  V30 22 H -4.53267 1.72191 -1.14767 0
M  V30 23 H -4.55552 0.977976 0.473299 0
M  V30 24 H -4.44567 -2.56517 -0.996918 0
M  V30 25 H -0.356608 -3.43229 -0.633139 0
M  V30 26 H 1.28284 -1.82592 -0.162178 0
M  V30 27 H 0.390582 1.016 0.198665 0
M  V30 28 H 3.14876 -1.61242 0.105254 0
M  V30 29 H 5.47593 -1.01811 0.493009 0
M  V30 30 H 6.07482 1.34475 0.959452 0
M  V30 31 H 4.35909 3.07216 1.03287 0
M  V30 END ATOM
M  V30 BEGIN BOND
M  V30 1 1 1 2
M  V30 2 1 2 3
M  V30 3 2 2 4
M  V30 4 1 4 5
M  V30 5 2 5 6
M  V30 6 1 6 7
M  V30 7 2 7 8
M  V30 8 1 8 9
M  V30 9 1 8 10
M  V30 10 2 10 11
M  V30 11 1 11 12
M  V30 12 2 12 13
M  V30 13 1 13 14
M  V30 14 2 14 15
M  V30 15 1 15 16
M  V30 16 2 16 17
M  V30 17 1 17 18
M  V30 18 2 18 19
M  V30 19 1 11 5
M  V30 20 1 19 14
M  V30 21 1 1 20
M  V30 22 1 1 21
M  V30 23 1 3 22
M  V30 24 1 3 23
M  V30 25 1 7 24
M  V30 26 1 10 25
M  V30 27 1 12 26
M  V30 28 1 13 27
M  V30 29 1 15 28
M  V30 30 1 16 29
M  V30 31 1 17 30
M  V30 32 1 18 31
M  V30 END BOND
M  V30 END CTAB
M  END
