
     RDKit          3D

  0  0  0  0  0  0  0  0  0  0999 V3000
M  V30 BEGIN CTAB
M  V30 COUNTS 54 53 0 0 0
M  V30 BEGIN ATOM
M  V30 1 N -3.89762 -4.423 -0.227723 0
M  V30 2 C -2.89857 -3.51851 -0.675578 0
M  V30 3 C -3.08301 -2.21824 0.103344 0
M  V30 4 C -2.03962 -1.20092 -0.330745 0
M  V30 5 C -2.27037 0.0556533 0.465513 0
M  V30 6 C -1.21957 1.09636 0.0334737 0 CFG=2
M  V30 7 N 0.0926733 0.539337 0.310838 0
M  V30 8 C 0.955324 0.218745 -0.755299 0
M  V30 9 O 0.538588 0.435619 -1.94836 0
M  V30 10 C 2.29018 -0.353141 -0.557137 0 CFG=2
M  V30 11 C 3.25308 0.648171 -0.0257687 0
M  V30 12 C 2.9007 1.26333 1.28962 0
M  V30 13 C 4.03568 2.19698 1.65848 0
M  V30 14 O 4.01677 2.92651 2.83488 0
M  V30 15 O 5.01706 2.31852 0.888796 0
M  V30 16 N 2.73188 -0.792214 -1.89458 0
M  V30 17 C 3.08561 -2.09925 -2.21471 0
M  V30 18 O 3.04229 -2.99598 -1.34305 0
M  V30 19 C 3.51655 -2.44918 -3.58362 0
M  V30 20 N 3.82463 -3.84145 -3.65962 0
M  V30 21 C -1.43889 2.26226 0.916322 0
M  V30 22 O -0.628275 2.66478 1.76029 0
M  V30 23 N -2.66968 2.96938 0.783116 0
M  V30 24 C -3.02144 4.11606 1.5776 0
M  V30 25 C -3.10099 3.75936 2.99452 0
M  V30 26 O -3.37369 4.7011 3.98773 0
M  V30 27 O -2.92506 2.5835 3.36789 0
M  V30 28 H -3.82937 -5.38214 -0.477987 0
M  V30 29 H -4.69162 -4.05248 0.172897 0
M  V30 30 H -3.01037 -3.34169 -1.75529 0
M  V30 31 H -1.90279 -3.94495 -0.480781 0
M  V30 32 H -2.99432 -2.39875 1.18789 0
M  V30 33 H -4.08765 -1.79716 -0.0971765 0
M  V30 34 H -1.02063 -1.59265 -0.143984 0
M  V30 35 H -2.12609 -0.980356 -1.39969 0
M  V30 36 H -2.10562 -0.112617 1.5401 0
M  V30 37 H -3.28927 0.446226 0.24932 0
M  V30 38 H -1.36962 1.30028 -1.03588 0
M  V30 39 H 0.391518 0.365095 1.2804 0
M  V30 40 H 2.30851 -1.24726 0.0735356 0
M  V30 41 H 3.44737 1.49113 -0.726298 0
M  V30 42 H 4.27069 0.17783 0.119101 0
M  V30 43 H 2.6486 0.576209 2.09342 0
M  V30 44 H 2.04837 1.98763 1.10813 0
M  V30 45 H 4.43175 2.60391 3.70203 0
M  V30 46 H 2.76664 -0.0434046 -2.61517 0
M  V30 47 H 4.3429 -1.79731 -3.94328 0
M  V30 48 H 2.67677 -2.26784 -4.31738 0
M  V30 49 H 4.78136 -4.10209 -3.40615 0
M  V30 50 H 3.06313 -4.39345 -3.25672 0
M  V30 51 H -3.39366 2.6606 0.0664684 0
M  V30 52 H -3.96759 4.58044 1.21849 0
M  V30 53 H -2.21099 4.89025 1.40966 0
M  V30 54 H -3.91222 5.51074 3.67813 0
M  V30 END ATOM
M  V30 BEGIN BOND
M  V30 1 1 1 2
M  V30 2 1 2 3
M  V30 3 1 3 4
M  V30 4 1 4 5
M  V30 5 1 5 6
M  V30 6 1 6 7
M  V30 7 1 7 8
M  V30 8 2 8 9
M  V30 9 1 8 10
M  V30 10 1 10 11
M  V30 11 1 11 12
M  V30 12 1 12 13
M  V30 13 1 13 14
M  V30 14 2 13 15
M  V30 15 1 10 16
M  V30 16 1 16 17
M  V30 17 2 17 18
M  V30 18 1 17 19
M  V30 19 1 19 20
M  V30 20 1 6 21
M  V30 21 2 21 22
M  V30 22 1 21 23
M  V30 23 1 23 24
M  V30 24 1 24 25
M  V30 25 1 25 26
M  V30 26 2 25 27
M  V30 27 1 1 28
M  V30 28 1 1 29
M  V30 29 1 2 30
M  V30 30 1 2 31
M  V30 31 1 3 32
M  V30 32 1 3 33
M  V30 33 1 4 34
M  V30 34 1 4 35
M  V30 35 1 5 36
M  V30 36 1 5 37
M  V30 37 1 6 38 CFG=3
M  V30 38 1 7 39
M  V30 39 1 10 40 CFG=1
M  V30 40 1 11 41
M  V30 41 1 11 42
M  V30 42 1 12 43
M  V30 43 1 12 44
M  V30 44 1 14 45
M  V30 45 1 16 46
M  V30 46 1 19 47
M  V30 47 1 19 48
M  V30 48 1 20 49
M  V30 49 1 20 50
M  V30 50 1 23 51
M  V30 51 1 24 52
M  V30 52 1 24 53
M  V30 53 1 26 54
M  V30 END BOND
M  V30 END CTAB
M  END
