
     RDKit          3D

  0  0  0  0  0  0  0  0  0  0999 V3000
M  V30 BEGIN CTAB
M  V30 COUNTS 43 44 0 0 0
M  V30 BEGIN ATOM
M  V30 1 N -6.95718 2.25181 -0.27495 0
M  V30 2 C -6.3726 1.25256 0.577657 0
M  V30 3 C -5.2311 0.551483 -0.0272098 0
M  V30 4 C -5.42864 -0.60038 -0.766664 0
M  V30 5 C -4.33931 -1.25672 -1.33545 0
M  V30 6 C -3.06624 -0.758038 -1.16101 0
M  V30 7 C -2.84302 0.386603 -0.429496 0
M  V30 8 C -3.93674 1.01351 0.120323 0
M  V30 9 C -1.45952 0.944417 -0.229399 0
M  V30 10 N -0.866195 0.386308 0.954825 0
M  V30 11 C -0.666414 -1.0143 1.08463 0
M  V30 12 C 0.509076 -1.57992 0.965387 0
M  V30 13 C 1.70764 -0.751154 0.682118 0
M  V30 14 O 1.53016 0.467704 0.569707 0
M  V30 15 N 2.9342 -1.39679 0.564112 0
M  V30 16 C 4.16646 -0.736133 0.303321 0
M  V30 17 C 4.38764 0.597999 0.494261 0
M  V30 18 C 5.61193 1.20644 0.201854 0
M  V30 19 C 6.63944 0.44396 -0.29624 0
M  V30 20 C 6.42383 -0.909759 -0.492147 0
M  V30 21 C 5.23037 -1.51581 -0.210045 0
M  V30 22 N 7.87762 1.05933 -0.591973 0
M  V30 23 C 0.609881 -3.00369 1.11336 0
M  V30 24 N 0.700319 -4.16821 1.24483 0
M  V30 25 H -6.26959 2.8326 -0.783991 0
M  V30 26 H -7.4974 2.9167 0.351153 0
M  V30 27 H -7.16864 0.492374 0.780887 0
M  V30 28 H -6.12253 1.68503 1.57975 0
M  V30 29 H -6.41453 -1.01919 -0.923389 0
M  V30 30 H -4.44242 -2.15769 -1.92015 0
M  V30 31 H -2.208 -1.25246 -1.5941 0
M  V30 32 H -3.83105 1.92603 0.712365 0
M  V30 33 H -1.52772 2.04173 -0.0998458 0
M  V30 34 H -0.845514 0.760042 -1.1409 0
M  V30 35 H -0.577174 1.00608 1.72938 0
M  V30 36 H -1.52536 -1.67541 1.29535 0
M  V30 37 H 2.94647 -2.46759 0.681678 0
M  V30 38 H 3.61293 1.26204 0.906287 0
M  V30 39 H 5.74093 2.28346 0.372081 0
M  V30 40 H 7.25661 -1.50337 -0.890689 0
M  V30 41 H 5.03967 -2.56922 -0.35495 0
M  V30 42 H 8.6638 0.962626 0.0697925 0
M  V30 43 H 8.00791 1.60501 -1.46132 0
M  V30 END ATOM
M  V30 BEGIN BOND
M  V30 1 1 1 2
M  V30 2 1 2 3
M  V30 3 2 3 4
M  V30 4 1 4 5
M  V30 5 2 5 6
M  V30 6 1 6 7
M  V30 7 2 7 8
M  V30 8 1 7 9
M  V30 9 1 9 10
M  V30 10 1 10 11
M  V30 11 2 11 12
M  V30 12 1 12 13
M  V30 13 2 13 14
M  V30 14 1 13 15
M  V30 15 1 15 16
M  V30 16 2 16 17
M  V30 17 1 17 18
M  V30 18 2 18 19
M  V30 19 1 19 20
M  V30 20 2 20 21
M  V30 21 1 19 22
M  V30 22 1 12 23
M  V30 23 3 23 24
M  V30 24 1 8 3
M  V30 25 1 21 16
M  V30 26 1 1 25
M  V30 27 1 1 26
M  V30 28 1 2 27
M  V30 29 1 2 28
M  V30 30 1 4 29
M  V30 31 1 5 30
M  V30 32 1 6 31
M  V30 33 1 8 32
M  V30 34 1 9 33
M  V30 35 1 9 34
M  V30 36 1 10 35
M  V30 37 1 11 36
M  V30 38 1 15 37
M  V30 39 1 17 38
M  V30 40 1 18 39
M  V30 41 1 20 40
M  V30 42 1 21 41
M  V30 43 1 22 42
M  V30 44 1 22 43
M  V30 END BOND
M  V30 END CTAB
M  END
