
     RDKit          3D

  0  0  0  0  0  0  0  0  0  0999 V3000
M  V30 BEGIN CTAB
M  V30 COUNTS 30 30 0 0 0
M  V30 BEGIN ATOM
M  V30 1 N -5.74018 1.28501 0.725573 0
M  V30 2 C -5.69151 -0.0970501 0.393606 0
M  V30 3 N -6.44105 -0.91442 1.04465 0
M  V30 4 N -4.83578 -0.565271 -0.632541 0
M  V30 5 N -3.52207 -0.108287 -0.652733 0
M  V30 6 C -2.4877 -0.874699 -0.590222 0
M  V30 7 C -1.15262 -0.268145 -0.620632 0
M  V30 8 C -0.866978 1.07705 -0.711757 0
M  V30 9 C 0.482042 1.24383 -0.711408 0
M  V30 10 C 1.0463 -0.0112717 -0.619019 0
M  V30 11 N 0.0424858 -0.889925 -0.566742 0
M  V30 12 C 2.4883 -0.258476 -0.589013 0
M  V30 13 N 3.36284 0.659526 -0.645143 0
M  V30 14 N 4.74492 0.456746 -0.618765 0
M  V30 15 C 5.44107 -0.0833608 0.491761 0
M  V30 16 N 4.90404 -1.12763 1.05486 0
M  V30 17 N 6.63703 0.49163 0.939034 0
M  V30 18 H -5.26073 1.68226 1.56048 0
M  V30 19 H -6.275 1.93269 0.113811 0
M  V30 20 H -6.41713 -1.94867 0.809854 0
M  V30 21 H -5.15576 -1.23006 -1.35967 0
M  V30 22 H -2.64541 -1.9236 -0.518604 0
M  V30 23 H -1.56944 1.90723 -0.775786 0
M  V30 24 H 1.03399 2.17007 -0.771002 0
M  V30 25 H 0.160495 -1.93669 -0.492821 0
M  V30 26 H 2.84634 -1.2902 -0.514022 0
M  V30 27 H 5.27792 0.724461 -1.4752 0
M  V30 28 H 5.39729 -1.53002 1.86085 0
M  V30 29 H 7.33059 0.869822 0.262244 0
M  V30 30 H 6.86574 0.557449 1.94806 0
M  V30 END ATOM
M  V30 BEGIN BOND
M  V30 1 1 1 2
M  V30 2 2 2 3 CFG=2
M  V30 3 1 2 4
M  V30 4 1 4 5
M  V30 5 2 5 6
M  V30 6 1 6 7
M  V30 7 2 7 8
M  V30 8 1 8 9
M  V30 9 2 9 10
M  V30 10 1 10 11
M  V30 11 1 10 12
M  V30 12 2 12 13
M  V30 13 1 13 14
M  V30 14 1 14 15
M  V30 15 2 15 16 CFG=2
M  V30 16 1 15 17
M  V30 17 1 11 7
M  V30 18 1 1 18
M  V30 19 1 1 19
M  V30 20 1 3 20
M  V30 21 1 4 21
M  V30 22 1 6 22
M  V30 23 1 8 23
M  V30 24 1 9 24
M  V30 25 1 11 25
M  V30 26 1 12 26
M  V30 27 1 14 27
M  V30 28 1 16 28
M  V30 29 1 17 29
M  V30 30 1 17 30
M  V30 END BOND
M  V30 END CTAB
M  END
