
     RDKit          3D

  0  0  0  0  0  0  0  0  0  0999 V3000
M  V30 BEGIN CTAB
M  V30 COUNTS 36 38 0 0 0
M  V30 BEGIN ATOM
M  V30 1 N 5.45375 -1.46158 -1.26223 0
M  V30 2 C 4.26779 -0.826568 -0.748854 0
M  V30 3 N 4.34045 0.396225 -0.213451 0
M  V30 4 C 3.19651 0.960175 0.264512 0
M  V30 5 C 3.26683 2.20111 0.833758 0
M  V30 6 C 2.14231 2.76176 1.32952 0
M  V30 7 C 0.948564 2.09261 1.25907 0
M  V30 8 C 0.793237 0.813285 0.687113 0
M  V30 9 C -0.533889 0.280235 0.587981 0
M  V30 10 C -1.31997 0.649661 -0.66696 0
M  V30 11 C -2.64993 -0.0434952 -0.504551 0
M  V30 12 C -2.93522 -1.26851 -1.01212 0
M  V30 13 C -4.15019 -1.87086 -0.804316 0
M  V30 14 C -5.12411 -1.25035 -0.069121 0
M  V30 15 C -4.84554 0.00600183 0.457498 0
M  V30 16 C -3.63421 0.599293 0.244754 0
M  V30 17 C 1.97879 0.278061 0.195266 0
M  V30 18 C 1.96809 -0.956738 -0.354587 0
M  V30 19 N 0.790805 -1.73074 -0.402851 0
M  V30 20 N 3.12414 -1.50952 -0.830188 0
M  V30 21 H 6.16892 -1.77019 -0.561475 0
M  V30 22 H 5.52915 -1.57163 -2.27714 0
M  V30 23 H 4.23283 2.69915 0.870777 0
M  V30 24 H 2.20415 3.74543 1.78405 0
M  V30 25 H 0.0900983 2.59006 1.66985 0
M  V30 26 H -0.850317 -0.639625 1.09168 0
M  V30 27 H -1.14246 0.930726 1.3229 0
M  V30 28 H -1.5653 1.74167 -0.686993 0
M  V30 29 H -0.857954 0.437966 -1.61126 0
M  V30 30 H -2.15639 -1.76748 -1.60581 0
M  V30 31 H -4.35077 -2.86582 -1.2345 0
M  V30 32 H -6.10525 -1.71622 0.114584 0
M  V30 33 H -5.5789 0.551506 1.05751 0
M  V30 34 H -3.4196 1.59628 0.668326 0
M  V30 35 H 0.202636 -1.81677 -1.25037 0
M  V30 36 H 0.520941 -2.26512 0.446422 0
M  V30 END ATOM
M  V30 BEGIN BOND
M  V30 1 1 1 2
M  V30 2 2 2 3
M  V30 3 1 3 4
M  V30 4 2 4 5
M  V30 5 1 5 6
M  V30 6 2 6 7
M  V30 7 1 7 8
M  V30 8 1 8 9
M  V30 9 1 9 10
M  V30 10 1 10 11
M  V30 11 2 11 12
M  V30 12 1 12 13
M  V30 13 2 13 14
M  V30 14 1 14 15
M  V30 15 2 15 16
M  V30 16 2 8 17
M  V30 17 1 17 18
M  V30 18 1 18 19
M  V30 19 2 18 20
M  V30 20 1 20 2
M  V30 21 1 17 4
M  V30 22 1 16 11
M  V30 23 1 1 21
M  V30 24 1 1 22
M  V30 25 1 5 23
M  V30 26 1 6 24
M  V30 27 1 7 25
M  V30 28 1 9 26
M  V30 29 1 9 27
M  V30 30 1 10 28
M  V30 31 1 10 29
M  V30 32 1 12 30
M  V30 33 1 13 31
M  V30 34 1 14 32
M  V30 35 1 15 33
M  V30 36 1 16 34
M  V30 37 1 19 35
M  V30 38 1 19 36
M  V30 END BOND
M  V30 END CTAB
M  END
