
     RDKit          3D

  0  0  0  0  0  0  0  0  0  0999 V3000
M  V30 BEGIN CTAB
M  V30 COUNTS 25 26 0 0 0
M  V30 BEGIN ATOM
M  V30 1 C 4.05798 0.882802 0.477018 0
M  V30 2 O 2.67396 1.07621 0.40305 0
M  V30 3 C 1.75796 0.0881986 0.150186 0
M  V30 4 C 2.13786 -1.21681 -0.058255 0
M  V30 5 C 1.16708 -2.16322 -0.307837 0
M  V30 6 C -0.170318 -1.83726 -0.353895 0
M  V30 7 C -0.572317 -0.516603 -0.144343 0
M  V30 8 C 0.407122 0.420851 0.104288 0
M  V30 9 N 0.0103709 1.69498 0.305767 0
M  V30 10 C -1.28763 2.01033 0.26089 0
M  V30 11 C -2.29209 1.09926 0.0151067 0
M  V30 12 C -1.92608 -0.213238 -0.195812 0
M  V30 13 N -2.90099 -1.21653 -0.456117 0
M  V30 14 N -3.6682 1.50377 -0.019611 0
M  V30 15 H 4.36975 0.416794 1.44761 0
M  V30 16 H 4.40538 0.207079 -0.342442 0
M  V30 17 H 4.60279 1.83503 0.395581 0
M  V30 18 H 3.19499 -1.51887 -0.0299601 0
M  V30 19 H 1.44573 -3.19731 -0.474782 0
M  V30 20 H -0.951685 -2.55006 -0.545837 0
M  V30 21 H -1.53096 3.0648 0.434333 0
M  V30 22 H -3.51568 -1.51445 0.336385 0
M  V30 23 H -3.04493 -1.67184 -1.37267 0
M  V30 24 H -4.15403 1.76161 0.863719 0
M  V30 25 H -4.21608 1.55447 -0.892372 0
M  V30 END ATOM
M  V30 BEGIN BOND
M  V30 1 1 1 2
M  V30 2 1 2 3
M  V30 3 2 3 4
M  V30 4 1 4 5
M  V30 5 2 5 6
M  V30 6 1 6 7
M  V30 7 2 7 8
M  V30 8 1 8 9
M  V30 9 2 9 10
M  V30 10 1 10 11
M  V30 11 2 11 12
M  V30 12 1 12 13
M  V30 13 1 11 14
M  V30 14 1 8 3
M  V30 15 1 12 7
M  V30 16 1 1 15
M  V30 17 1 1 16
M  V30 18 1 1 17
M  V30 19 1 4 18
M  V30 20 1 5 19
M  V30 21 1 6 20
M  V30 22 1 10 21
M  V30 23 1 13 22
M  V30 24 1 13 23
M  V30 25 1 14 24
M  V30 26 1 14 25
M  V30 END BOND
M  V30 END CTAB
M  END
