
     RDKit          3D

  0  0  0  0  0  0  0  0  0  0999 V3000
M  V30 BEGIN CTAB
M  V30 COUNTS 34 35 0 0 0
M  V30 BEGIN ATOM
M  V30 1 C -3.1316 -1.27986 -2.4471 0
M  V30 2 O -2.37919 -0.376103 -1.62284 0
M  V30 3 C -2.75715 -0.302424 -0.29083 0
M  V30 4 C -3.79706 -1.04797 0.238749 0
M  V30 5 C -4.12468 -0.922987 1.59357 0
M  V30 6 C -3.44386 -0.0734382 2.43965 0
M  V30 7 C -2.40926 0.666527 1.90664 0
M  V30 8 C -2.08009 0.542763 0.551919 0
M  V30 9 C -0.966795 1.32433 0.0220098 0
M  V30 10 O -0.622787 1.21321 -1.17879 0
M  V30 11 C -0.206563 2.27306 0.884665 0
M  V30 12 S 0.986461 1.40339 1.93955 0
M  V30 13 C 2.26613 0.652483 0.924775 0
M  V30 14 N 3.35246 1.38365 0.674302 0
M  V30 15 C 4.34714 0.856649 -0.0931104 0
M  V30 16 N 5.51264 1.61517 -0.368581 0
M  V30 17 C 4.20173 -0.406394 -0.583809 0
M  V30 18 C 3.07452 -1.12775 -0.307491 0
M  V30 19 N 2.08602 -0.605027 0.455101 0
M  V30 20 N 2.96901 -2.43432 -0.843049 0
M  V30 21 F -3.77957 0.0317762 3.76202 0
M  V30 22 H -4.21464 -0.972468 -2.33944 0
M  V30 23 H -3.07412 -2.28712 -1.98669 0
M  V30 24 H -2.80428 -1.2516 -3.49881 0
M  V30 25 H -4.34688 -1.72293 -0.402937 0
M  V30 26 H -4.93266 -1.49348 2.03391 0
M  V30 27 H -1.84761 1.35025 2.54324 0
M  V30 28 H 0.338001 2.96756 0.206874 0
M  V30 29 H -0.904659 2.8916 1.48805 0
M  V30 30 H 5.66075 1.98427 -1.32182 0
M  V30 31 H 6.19759 1.79067 0.378639 0
M  V30 32 H 5.00152 -0.816937 -1.19415 0
M  V30 33 H 3.76293 -3.10975 -0.813078 0
M  V30 34 H 2.06655 -2.71679 -1.27622 0
M  V30 END ATOM
M  V30 BEGIN BOND
M  V30 1 1 1 2
M  V30 2 1 2 3
M  V30 3 2 3 4
M  V30 4 1 4 5
M  V30 5 2 5 6
M  V30 6 1 6 7
M  V30 7 2 7 8
M  V30 8 1 8 9
M  V30 9 2 9 10
M  V30 10 1 9 11
M  V30 11 1 11 12
M  V30 12 1 12 13
M  V30 13 2 13 14
M  V30 14 1 14 15
M  V30 15 1 15 16
M  V30 16 2 15 17
M  V30 17 1 17 18
M  V30 18 2 18 19
M  V30 19 1 18 20
M  V30 20 1 6 21
M  V30 21 1 8 3
M  V30 22 1 19 13
M  V30 23 1 1 22
M  V30 24 1 1 23
M  V30 25 1 1 24
M  V30 26 1 4 25
M  V30 27 1 5 26
M  V30 28 1 7 27
M  V30 29 1 11 28
M  V30 30 1 11 29
M  V30 31 1 16 30
M  V30 32 1 16 31
M  V30 33 1 17 32
M  V30 34 1 20 33
M  V30 35 1 20 34
M  V30 END BOND
M  V30 END CTAB
M  END
