
     RDKit          3D

  0  0  0  0  0  0  0  0  0  0999 V3000
M  V30 BEGIN CTAB
M  V30 COUNTS 44 44 0 0 0
M  V30 BEGIN ATOM
M  V30 1 N -4.35881 -0.828034 1.64059 0
M  V30 2 C -4.23896 0.412216 0.874022 0
M  V30 3 C -2.83289 0.511881 0.265286 0
M  V30 4 C -2.5873 -0.640604 -0.635993 0
M  V30 5 N -1.25697 -0.631845 -1.26974 0
M  V30 6 C -0.160822 -1.28502 -0.692288 0
M  V30 7 O -0.398319 -1.89659 0.415981 0
M  V30 8 C 1.18802 -1.35635 -1.18316 0
M  V30 9 C 2.24916 -0.796298 -0.313032 0
M  V30 10 C 2.09564 -0.320262 0.958399 0
M  V30 11 C 3.14303 0.186161 1.70509 0
M  V30 12 C 4.39982 0.224816 1.173 0
M  V30 13 C 4.58186 -0.249768 -0.109204 0
M  V30 14 C 3.52765 -0.755263 -0.850082 0
M  V30 15 C 5.53941 0.764885 1.95801 0
M  V30 16 N 1.37723 -0.740927 -2.47731 0
M  V30 17 C -1.17477 0.0932802 -2.51218 0
M  V30 18 C -1.8922 0.638996 1.43174 0
M  V30 19 C -2.85517 1.83749 -0.509227 0
M  V30 20 H -5.00854 -0.714566 2.44519 0
M  V30 21 H -4.81314 -1.51747 0.995308 0
M  V30 22 H -4.37178 1.29877 1.52571 0
M  V30 23 H -4.97653 0.444923 0.0390762 0
M  V30 24 H -2.71688 -1.58917 -0.0762276 0
M  V30 25 H -3.3804 -0.641104 -1.41386 0
M  V30 26 H 1.49555 -2.4492 -1.36115 0
M  V30 27 H 1.13716 -0.331551 1.40646 0
M  V30 28 H 2.9449 0.544479 2.70359 0
M  V30 29 H 5.58172 -0.211822 -0.514533 0
M  V30 30 H 3.71882 -1.11329 -1.84434 0
M  V30 31 H 5.85436 1.72932 1.51731 0
M  V30 32 H 6.37015 0.0280677 1.91001 0
M  V30 33 H 5.2611 0.861504 3.02188 0
M  V30 34 H 2.0609 -1.25713 -3.07301 0
M  V30 35 H 1.81034 0.224791 -2.36282 0
M  V30 36 H -2.21623 0.472995 -2.768 0
M  V30 37 H -0.470738 0.951564 -2.494 0
M  V30 38 H -0.967655 -0.614477 -3.34607 0
M  V30 39 H -1.95362 -0.201628 2.13258 0
M  V30 40 H -0.88385 0.874044 1.05081 0
M  V30 41 H -2.15489 1.54282 2.06324 0
M  V30 42 H -1.87527 2.11015 -0.897819 0
M  V30 43 H -3.18111 2.61082 0.243432 0
M  V30 44 H -3.61 1.7784 -1.3156 0
M  V30 END ATOM
M  V30 BEGIN BOND
M  V30 1 1 1 2
M  V30 2 1 2 3
M  V30 3 1 3 4
M  V30 4 1 4 5
M  V30 5 1 5 6
M  V30 6 2 6 7
M  V30 7 1 6 8
M  V30 8 1 8 9
M  V30 9 2 9 10
M  V30 10 1 10 11
M  V30 11 2 11 12
M  V30 12 1 12 13
M  V30 13 2 13 14
M  V30 14 1 12 15
M  V30 15 1 8 16
M  V30 16 1 5 17
M  V30 17 1 3 18
M  V30 18 1 3 19
M  V30 19 1 14 9
M  V30 20 1 1 20
M  V30 21 1 1 21
M  V30 22 1 2 22
M  V30 23 1 2 23
M  V30 24 1 4 24
M  V30 25 1 4 25
M  V30 26 1 8 26
M  V30 27 1 10 27
M  V30 28 1 11 28
M  V30 29 1 13 29
M  V30 30 1 14 30
M  V30 31 1 15 31
M  V30 32 1 15 32
M  V30 33 1 15 33
M  V30 34 1 16 34
M  V30 35 1 16 35
M  V30 36 1 17 36
M  V30 37 1 17 37
M  V30 38 1 17 38
M  V30 39 1 18 39
M  V30 40 1 18 40
M  V30 41 1 18 41
M  V30 42 1 19 42
M  V30 43 1 19 43
M  V30 44 1 19 44
M  V30 END BOND
M  V30 END CTAB
M  END
