
     RDKit          3D

  0  0  0  0  0  0  0  0  0  0999 V3000
M  V30 BEGIN CTAB
M  V30 COUNTS 58 58 0 0 0
M  V30 BEGIN ATOM
M  V30 1 N -6.99788 -0.543394 0.560318 0
M  V30 2 C -5.63306 -0.99219 0.591107 0
M  V30 3 C -4.69602 0.137809 0.319607 0
M  V30 4 O -5.20591 1.27686 0.110574 0
M  V30 5 N -3.29053 -0.0601232 0.297362 0
M  V30 6 C -2.4482 1.09982 0.0235784 0
M  V30 7 C -1.65175 1.43096 1.25259 0
M  V30 8 O -1.19982 2.74629 1.27825 0
M  V30 9 C -0.57344 3.13207 0.106844 0
M  V30 10 C 0.757031 3.81998 0.3825 0
M  V30 11 O 1.66883 2.95746 0.988644 0
M  V30 12 C 2.11031 1.99913 0.0477747 0
M  V30 13 C 3.39809 1.36001 0.575869 0
M  V30 14 N 3.64121 0.138991 -0.12434 0
M  V30 15 C 2.73929 -0.351153 -1.16928 0
M  V30 16 C 1.73062 -1.32568 -0.678941 0
M  V30 17 O 1.85095 -2.50008 -1.41864 0
M  V30 18 C 0.647967 -2.95441 -1.90399 0
M  V30 19 C -0.476871 -2.9106 -0.912992 0
M  V30 20 O -1.46262 -2.02696 -1.38162 0
M  V30 21 C -2.66694 -2.21643 -0.705216 0
M  V30 22 C -2.76967 -1.36791 0.54041 0
M  V30 23 C 4.75051 -0.6652 0.140624 0
M  V30 24 O 4.91645 -1.7613 -0.525699 0
M  V30 25 C 5.78702 -0.396571 1.12613 0
M  V30 26 N 5.67159 0.792726 1.89712 0
M  V30 27 H -7.04232 0.48896 0.487422 0
M  V30 28 H -7.58735 -1.04779 -0.13132 0
M  V30 29 H -5.4279 -1.42059 1.59509 0
M  V30 30 H -5.51066 -1.78932 -0.167996 0
M  V30 31 H -3.02839 1.95613 -0.331301 0
M  V30 32 H -1.71267 0.735864 -0.751577 0
M  V30 33 H -0.843703 0.686897 1.33749 0
M  V30 34 H -2.29797 1.29159 2.1482 0
M  V30 35 H -0.434387 2.31732 -0.615581 0
M  V30 36 H -1.22423 3.90251 -0.366472 0
M  V30 37 H 0.605444 4.745 0.96982 0
M  V30 38 H 1.18556 4.10514 -0.606675 0
M  V30 39 H 2.20163 2.41601 -0.949134 0
M  V30 40 H 1.33868 1.208 0.0628315 0
M  V30 41 H 4.16551 2.14653 0.429325 0
M  V30 42 H 3.22851 1.25507 1.66781 0
M  V30 43 H 3.38389 -0.791323 -1.97605 0
M  V30 44 H 2.21609 0.509221 -1.62646 0
M  V30 45 H 0.68878 -0.959886 -0.827209 0
M  V30 46 H 1.85112 -1.60595 0.386777 0
M  V30 47 H 0.806468 -4.01055 -2.24024 0
M  V30 48 H 0.381056 -2.3911 -2.84323 0
M  V30 49 H -0.923747 -3.93222 -0.795048 0
M  V30 50 H -0.0863609 -2.61659 0.0783002 0
M  V30 51 H -2.73456 -3.29992 -0.484397 0
M  V30 52 H -3.4833 -1.99673 -1.43624 0
M  V30 53 H -3.45853 -1.89305 1.23729 0
M  V30 54 H -1.77201 -1.36964 1.01617 0
M  V30 55 H 5.83974 -1.24817 1.88232 0
M  V30 56 H 6.82126 -0.414283 0.679321 0
M  V30 57 H 5.96638 0.670536 2.87866 0
M  V30 58 H 6.2908 1.53225 1.48296 0
M  V30 END ATOM
M  V30 BEGIN BOND
M  V30 1 1 1 2
M  V30 2 1 2 3
M  V30 3 2 3 4
M  V30 4 1 3 5
M  V30 5 1 5 6
M  V30 6 1 6 7
M  V30 7 1 7 8
M  V30 8 1 8 9
M  V30 9 1 9 10
M  V30 10 1 10 11
M  V30 11 1 11 12
M  V30 12 1 12 13
M  V30 13 1 13 14
M  V30 14 1 14 15
M  V30 15 1 15 16
M  V30 16 1 16 17
M  V30 17 1 17 18
M  V30 18 1 18 19
M  V30 19 1 19 20
M  V30 20 1 20 21
M  V30 21 1 21 22
M  V30 22 1 14 23
M  V30 23 2 23 24
M  V30 24 1 23 25
M  V30 25 1 25 26
M  V30 26 1 22 5
M  V30 27 1 1 27
M  V30 28 1 1 28
M  V30 29 1 2 29
M  V30 30 1 2 30
M  V30 31 1 6 31
M  V30 32 1 6 32
M  V30 33 1 7 33
M  V30 34 1 7 34
M  V30 35 1 9 35
M  V30 36 1 9 36
M  V30 37 1 10 37
M  V30 38 1 10 38
M  V30 39 1 12 39
M  V30 40 1 12 40
M  V30 41 1 13 41
M  V30 42 1 13 42
M  V30 43 1 15 43
M  V30 44 1 15 44
M  V30 45 1 16 45
M  V30 46 1 16 46
M  V30 47 1 18 47
M  V30 48 1 18 48
M  V30 49 1 19 49
M  V30 50 1 19 50
M  V30 51 1 21 51
M  V30 52 1 21 52
M  V30 53 1 22 53
M  V30 54 1 22 54
M  V30 55 1 25 55
M  V30 56 1 25 56
M  V30 57 1 26 57
M  V30 58 1 26 58
M  V30 END BOND
M  V30 END CTAB
M  END
