
     RDKit          3D

  0  0  0  0  0  0  0  0  0  0999 V3000
M  V30 BEGIN CTAB
M  V30 COUNTS 37 38 0 0 0
M  V30 BEGIN ATOM
M  V30 1 N 3.86541 1.00311 1.18166 0
M  V30 2 C 2.71429 0.336929 1.82934 0
M  V30 3 C 2.19677 -0.624461 0.779721 0
M  V30 4 N 1.74761 0.108185 -0.351997 0
M  V30 5 C 1.84584 -0.608054 -1.58594 0
M  V30 6 C 1.13312 -1.8709 -1.78561 0
M  V30 7 O -0.201184 -1.72573 -2.18781 0
M  V30 8 C -0.695292 -0.500317 -1.92352 0
M  V30 9 C -0.64297 -0.0391415 -0.523196 0 CFG=1
M  V30 10 C 0.479645 0.822802 -0.17828 0
M  V30 11 C -1.97216 0.0762121 0.114303 0
M  V30 12 C -2.68075 -1.00676 0.56699 0
M  V30 13 C -3.83989 -0.951651 1.29821 0
M  V30 14 C -4.32417 0.300449 1.58687 0
M  V30 15 N -3.66609 1.41698 1.16123 0
M  V30 16 C -2.52989 1.33534 0.44817 0
M  V30 17 N -1.96891 2.48509 -0.0927996 0
M  V30 18 H 4.60747 1.26399 1.80481 0
M  V30 19 H 3.58935 1.65958 0.45161 0
M  V30 20 H 2.01123 1.1243 2.11189 0
M  V30 21 H 3.17159 -0.197362 2.70606 0
M  V30 22 H 1.31476 -1.1229 1.21971 0
M  V30 23 H 2.95859 -1.39408 0.533072 0
M  V30 24 H 1.72679 0.0617981 -2.44011 0
M  V30 25 H 2.97013 -0.891247 -1.62714 0
M  V30 26 H 1.58964 -2.36356 -2.7093 0
M  V30 27 H 1.23339 -2.63855 -1.00047 0
M  V30 28 H -0.169485 0.25448 -2.62411 0
M  V30 29 H -1.75179 -0.421716 -2.30189 0
M  V30 30 H -0.290999 -1.08465 0.0238216 0
M  V30 31 H 0.47725 1.11914 0.913184 0
M  V30 32 H 0.60374 1.75418 -0.765832 0
M  V30 33 H -2.3057 -2.00633 0.317818 0
M  V30 34 H -4.32042 -1.87693 1.64063 0
M  V30 35 H -5.25598 0.379398 2.15286 0
M  V30 36 H -2.41613 2.81078 -1.0208 0
M  V30 37 H -1.20481 3.01158 0.276829 0
M  V30 END ATOM
M  V30 BEGIN BOND
M  V30 1 1 1 2
M  V30 2 1 2 3
M  V30 3 1 3 4
M  V30 4 1 4 5
M  V30 5 1 5 6
M  V30 6 1 6 7
M  V30 7 1 7 8
M  V30 8 1 8 9
M  V30 9 1 9 10
M  V30 10 1 9 11
M  V30 11 2 11 12
M  V30 12 1 12 13
M  V30 13 2 13 14
M  V30 14 1 14 15
M  V30 15 2 15 16
M  V30 16 1 16 17
M  V30 17 1 10 4
M  V30 18 1 16 11
M  V30 19 1 1 18
M  V30 20 1 1 19
M  V30 21 1 2 20
M  V30 22 1 2 21
M  V30 23 1 3 22
M  V30 24 1 3 23
M  V30 25 1 5 24
M  V30 26 1 5 25
M  V30 27 1 6 26
M  V30 28 1 6 27
M  V30 29 1 8 28
M  V30 30 1 8 29
M  V30 31 1 9 30 CFG=1
M  V30 32 1 10 31
M  V30 33 1 10 32
M  V30 34 1 12 33
M  V30 35 1 13 34
M  V30 36 1 14 35
M  V30 37 1 17 36
M  V30 38 1 17 37
M  V30 END BOND
M  V30 END CTAB
M  END
