
     RDKit          3D

  0  0  0  0  0  0  0  0  0  0999 V3000
M  V30 BEGIN CTAB
M  V30 COUNTS 40 43 0 0 0
M  V30 BEGIN ATOM
M  V30 1 N 5.55117 -2.26506 0.0531687 0
M  V30 2 C 5.12954 -0.945055 0.330117 0
M  V30 3 N 5.82293 -0.0728174 1.04832 0
M  V30 4 C 5.38287 1.16923 1.28506 0
M  V30 5 N 4.17973 1.54106 0.765998 0
M  V30 6 C 3.46171 0.687104 0.0412797 0
M  V30 7 C 3.89488 -0.584903 -0.210803 0
M  V30 8 N 2.99417 -1.22729 -0.954517 0
M  V30 9 C 1.98194 -0.349737 -1.17341 0
M  V30 10 N 2.2503 0.804693 -0.58039 0
M  V30 11 C 1.47848 2.0179 -0.549657 0
M  V30 12 C 0.572449 2.04433 0.629209 0
M  V30 13 C -0.418717 0.919997 0.593249 0
M  V30 14 C -1.29672 1.05759 -0.620805 0
M  V30 15 N -2.22544 -0.0609854 -0.587787 0
M  V30 16 C -1.98914 -1.25229 -1.15874 0
M  V30 17 N -3.09497 -1.9933 -0.894236 0
M  V30 18 C -3.97725 -1.26478 -0.180168 0
M  V30 19 C -3.42164 -0.0196312 0.0196223 0
M  V30 20 N -4.10561 0.895477 0.706747 0
M  V30 21 C -5.31065 0.640172 1.20548 0
M  V30 22 N -5.85271 -0.568598 1.01285 0
M  V30 23 C -5.24087 -1.55143 0.335591 0
M  V30 24 N -5.81584 -2.82236 0.135566 0
M  V30 25 H 5.55584 -2.60631 -0.917203 0
M  V30 26 H 5.85149 -2.8787 0.823032 0
M  V30 27 H 5.92111 1.90558 1.86543 0
M  V30 28 H 1.10884 -0.624818 -1.76038 0
M  V30 29 H 2.17774 2.91019 -0.432761 0
M  V30 30 H 0.956387 2.14171 -1.51054 0
M  V30 31 H 1.14445 2.0614 1.59263 0
M  V30 32 H -0.0321857 2.99883 0.659061 0
M  V30 33 H -1.06736 1.05604 1.51667 0
M  V30 34 H 0.0751472 -0.0890141 0.647443 0
M  V30 35 H -0.729089 1.06868 -1.54897 0
M  V30 36 H -1.85916 2.0113 -0.495965 0
M  V30 37 H -1.1096 -1.56156 -1.71165 0
M  V30 38 H -5.89534 1.37596 1.77516 0
M  V30 39 H -6.29252 -3.29951 0.914006 0
M  V30 40 H -5.75637 -3.2691 -0.790701 0
M  V30 END ATOM
M  V30 BEGIN BOND
M  V30 1 1 1 2
M  V30 2 2 2 3
M  V30 3 1 3 4
M  V30 4 2 4 5
M  V30 5 1 5 6
M  V30 6 2 6 7
M  V30 7 1 7 8
M  V30 8 2 8 9
M  V30 9 1 9 10
M  V30 10 1 10 11
M  V30 11 1 11 12
M  V30 12 1 12 13
M  V30 13 1 13 14
M  V30 14 1 14 15
M  V30 15 1 15 16
M  V30 16 2 16 17
M  V30 17 1 17 18
M  V30 18 2 18 19
M  V30 19 1 19 20
M  V30 20 2 20 21
M  V30 21 1 21 22
M  V30 22 2 22 23
M  V30 23 1 23 24
M  V30 24 1 7 2
M  V30 25 1 19 15
M  V30 26 1 10 6
M  V30 27 1 23 18
M  V30 28 1 1 25
M  V30 29 1 1 26
M  V30 30 1 4 27
M  V30 31 1 9 28
M  V30 32 1 11 29
M  V30 33 1 11 30
M  V30 34 1 12 31
M  V30 35 1 12 32
M  V30 36 1 13 33
M  V30 37 1 13 34
M  V30 38 1 14 35
M  V30 39 1 14 36
M  V30 40 1 16 37
M  V30 41 1 21 38
M  V30 42 1 24 39
M  V30 43 1 24 40
M  V30 END BOND
M  V30 END CTAB
M  END
