
     RDKit          3D

  0  0  0  0  0  0  0  0  0  0999 V3000
M  V30 BEGIN CTAB
M  V30 COUNTS 25 25 0 0 0
M  V30 BEGIN ATOM
M  V30 1 N -2.73575 -0.620269 -0.0291557 0
M  V30 2 C -1.37794 -0.265027 -0.357368 0 CFG=1
M  V30 3 C -0.943889 1.01716 0.354793 0
M  V30 4 C 0.415415 1.37498 -0.231081 0 CFG=1
M  V30 5 N 0.874781 2.66387 0.151171 0
M  V30 6 C 1.36502 0.285888 0.274345 0 CFG=2
M  V30 7 O 2.68045 0.607843 0.110812 0
M  V30 8 C 0.954143 -0.968971 -0.496873 0 CFG=1
M  V30 9 O 1.88405 -1.96874 -0.420471 0
M  V30 10 C -0.401163 -1.35418 0.0658853 0 CFG=2
M  V30 11 O -0.806417 -2.61014 -0.292017 0
M  V30 12 H -3.33116 0.198947 0.189461 0
M  V30 13 H -2.80897 -1.32147 0.736396 0
M  V30 14 H -1.27327 -0.155268 -1.45008 0
M  V30 15 H -1.67597 1.81816 0.265447 0
M  V30 16 H -0.853429 0.73851 1.42927 0
M  V30 17 H 0.294301 1.26775 -1.34175 0
M  V30 18 H 0.359153 3.11688 0.920775 0
M  V30 19 H 0.906378 3.27517 -0.704046 0
M  V30 20 H 1.0882 0.11688 1.34429 0
M  V30 21 H 3.19935 0.116192 0.818947 0
M  V30 22 H 0.782217 -0.627162 -1.55185 0
M  V30 23 H 2.20788 -2.15935 -1.35097 0
M  V30 24 H -0.34223 -1.27751 1.18403 0
M  V30 25 H -0.461151 -3.27015 0.380047 0
M  V30 END ATOM
M  V30 BEGIN BOND
M  V30 1 1 1 2
M  V30 2 1 2 3
M  V30 3 1 3 4
M  V30 4 1 4 5
M  V30 5 1 4 6
M  V30 6 1 6 7
M  V30 7 1 6 8
M  V30 8 1 8 9
M  V30 9 1 8 10
M  V30 10 1 10 11
M  V30 11 1 10 2
M  V30 12 1 1 12
M  V30 13 1 1 13
M  V30 14 1 2 14 CFG=3
M  V30 15 1 3 15
M  V30 16 1 3 16
M  V30 17 1 4 17 CFG=3
M  V30 18 1 5 18
M  V30 19 1 5 19
M  V30 20 1 6 20 CFG=1
M  V30 21 1 7 21
M  V30 22 1 8 22 CFG=3
M  V30 23 1 9 23
M  V30 24 1 10 24 CFG=1
M  V30 25 1 11 25
M  V30 END BOND
M  V30 END CTAB
M  END
