
     RDKit          3D

  0  0  0  0  0  0  0  0  0  0999 V3000
M  V30 BEGIN CTAB
M  V30 COUNTS 36 38 0 0 0
M  V30 BEGIN ATOM
M  V30 1 C 5.01474 1.64619 1.00485 0
M  V30 2 C 3.54048 1.46485 0.909699 0
M  V30 3 C 2.64513 2.36247 1.4515 0
M  V30 4 C 1.27758 2.19045 1.36099 0
M  V30 5 C 0.743265 1.08914 0.710392 0
M  V30 6 C 1.62922 0.181816 0.162904 0
M  V30 7 C 3.01382 0.3688 0.262159 0
M  V30 8 C 0.888038 -0.790491 -0.409051 0
M  V30 9 C 1.191 -2.05664 -1.15063 0
M  V30 10 C 0.230817 -3.08615 -0.537321 0
M  V30 11 C -1.19109 -2.78295 -0.90702 0
M  V30 12 C -1.45972 -1.34344 -0.729047 0
M  V30 13 N -2.60353 -0.842718 -1.05299 0
M  V30 14 N -2.96778 0.471984 -0.934963 0
M  V30 15 C -4.15647 0.773131 -0.557438 0
M  V30 16 N -5.08517 -0.229394 -0.264853 0
M  V30 17 N -4.51049 2.13074 -0.442527 0
M  V30 18 C -0.462489 -0.449856 -0.195522 0
M  V30 19 N -0.533481 0.68374 0.480186 0
M  V30 20 H 5.48532 1.74192 -0.00534282 0
M  V30 21 H 5.49609 0.828593 1.58616 0
M  V30 22 H 5.24692 2.59193 1.53534 0
M  V30 23 H 3.0722 3.2308 1.96444 0
M  V30 24 H 0.589684 2.90241 1.79053 0
M  V30 25 H 3.69188 -0.356293 -0.175107 0
M  V30 26 H 0.976416 -1.97728 -2.21724 0
M  V30 27 H 2.20051 -2.42214 -0.936571 0
M  V30 28 H 0.485732 -4.10571 -0.868902 0
M  V30 29 H 0.30613 -3.06868 0.568625 0
M  V30 30 H -1.86283 -3.39889 -0.262826 0
M  V30 31 H -1.34385 -3.03832 -1.98006 0
M  V30 32 H -5.46604 -0.927038 -0.940166 0
M  V30 33 H -5.4482 -0.30617 0.724327 0
M  V30 34 H -4.35757 2.60714 0.459601 0
M  V30 35 H -4.92309 2.70229 -1.21367 0
M  V30 36 H -1.35316 1.21375 0.809534 0
M  V30 END ATOM
M  V30 BEGIN BOND
M  V30 1 1 1 2
M  V30 2 2 2 3
M  V30 3 1 3 4
M  V30 4 2 4 5
M  V30 5 1 5 6
M  V30 6 2 6 7
M  V30 7 1 6 8
M  V30 8 1 8 9
M  V30 9 1 9 10
M  V30 10 1 10 11
M  V30 11 1 11 12
M  V30 12 2 12 13
M  V30 13 1 13 14
M  V30 14 2 14 15
M  V30 15 1 15 16
M  V30 16 1 15 17
M  V30 17 1 12 18
M  V30 18 1 18 19
M  V30 19 1 7 2
M  V30 20 2 18 8
M  V30 21 1 19 5
M  V30 22 1 1 20
M  V30 23 1 1 21
M  V30 24 1 1 22
M  V30 25 1 3 23
M  V30 26 1 4 24
M  V30 27 1 7 25
M  V30 28 1 9 26
M  V30 29 1 9 27
M  V30 30 1 10 28
M  V30 31 1 10 29
M  V30 32 1 11 30
M  V30 33 1 11 31
M  V30 34 1 16 32
M  V30 35 1 16 33
M  V30 36 1 17 34
M  V30 37 1 17 35
M  V30 38 1 19 36
M  V30 END BOND
M  V30 END CTAB
M  END
