
     RDKit          3D

  0  0  0  0  0  0  0  0  0  0999 V3000
M  V30 BEGIN CTAB
M  V30 COUNTS 45 47 0 0 0
M  V30 BEGIN ATOM
M  V30 1 C 5.67913 -1.82012 2.18067 0
M  V30 2 C 4.27837 -1.20609 2.09959 0
M  V30 3 C 4.46885 0.225938 1.71718 0
M  V30 4 O 3.34794 0.993533 1.58015 0
M  V30 5 C 2.27067 0.946631 0.747938 0
M  V30 6 C 2.03656 0.0423912 -0.258573 0
M  V30 7 C 0.882541 0.0948303 -1.0508 0
M  V30 8 C -0.0690495 1.06372 -0.849199 0
M  V30 9 C 0.150944 1.97752 0.154945 0
M  V30 10 C 1.28336 1.9311 0.937405 0
M  V30 11 C -1.30715 1.11514 -1.70675 0
M  V30 12 N -1.59664 2.4302 -2.12041 0
M  V30 13 C -2.70647 3.0308 -1.93392 0
M  V30 14 N -2.79528 4.36216 -2.43078 0
M  V30 15 N -3.81145 2.41092 -1.26557 0
M  V30 16 C -3.6222 1.20464 -0.860382 0
M  V30 17 N -4.69136 0.499178 -0.171456 0
M  V30 18 N -2.41665 0.48324 -1.03985 0
M  V30 19 C -2.329 -0.860387 -0.556289 0
M  V30 20 C -1.89876 -1.10728 0.719746 0
M  V30 21 C -1.80674 -2.41878 1.20802 0
M  V30 22 C -2.14732 -3.49304 0.415226 0
M  V30 23 C -2.57921 -3.24148 -0.866262 0
M  V30 24 Cl -3.01046 -4.61618 -1.86763 0
M  V30 25 C -2.66304 -1.94151 -1.32913 0
M  V30 26 H 6.1418 -1.68003 1.1783 0
M  V30 27 H 5.61918 -2.8852 2.47634 0
M  V30 28 H 6.2506 -1.20041 2.90874 0
M  V30 29 H 3.64698 -1.75096 1.40676 0
M  V30 30 H 3.89135 -1.23612 3.15216 0
M  V30 31 H 5.0731 0.681675 2.56571 0
M  V30 32 H 5.18606 0.330332 0.846036 0
M  V30 33 H 2.76668 -0.717883 -0.44866 0
M  V30 34 H 0.716562 -0.626864 -1.8382 0
M  V30 35 H -0.614452 2.74376 0.304659 0
M  V30 36 H 1.43296 2.66356 1.72276 0
M  V30 37 H -1.13767 0.5075 -2.63509 0
M  V30 38 H -3.34123 5.05213 -1.8885 0
M  V30 39 H -2.33148 4.64621 -3.30908 0
M  V30 40 H -4.85616 -0.46717 -0.471329 0
M  V30 41 H -5.23755 0.97756 0.577622 0
M  V30 42 H -1.61782 -0.310727 1.3909 0
M  V30 43 H -1.46125 -2.56557 2.22383 0
M  V30 44 H -2.07343 -4.51866 0.802578 0
M  V30 45 H -3.00181 -1.7502 -2.33331 0
M  V30 END ATOM
M  V30 BEGIN BOND
M  V30 1 1 1 2
M  V30 2 1 2 3
M  V30 3 1 3 4
M  V30 4 1 4 5
M  V30 5 2 5 6
M  V30 6 1 6 7
M  V30 7 2 7 8
M  V30 8 1 8 9
M  V30 9 2 9 10
M  V30 10 1 8 11
M  V30 11 1 11 12
M  V30 12 2 12 13
M  V30 13 1 13 14
M  V30 14 1 13 15
M  V30 15 2 15 16
M  V30 16 1 16 17
M  V30 17 1 16 18
M  V30 18 1 18 19
M  V30 19 2 19 20
M  V30 20 1 20 21
M  V30 21 2 21 22
M  V30 22 1 22 23
M  V30 23 1 23 24
M  V30 24 2 23 25
M  V30 25 1 10 5
M  V30 26 1 18 11
M  V30 27 1 25 19
M  V30 28 1 1 26
M  V30 29 1 1 27
M  V30 30 1 1 28
M  V30 31 1 2 29
M  V30 32 1 2 30
M  V30 33 1 3 31
M  V30 34 1 3 32
M  V30 35 1 6 33
M  V30 36 1 7 34
M  V30 37 1 9 35
M  V30 38 1 10 36
M  V30 39 1 11 37
M  V30 40 1 14 38
M  V30 41 1 14 39
M  V30 42 1 17 40
M  V30 43 1 17 41
M  V30 44 1 20 42
M  V30 45 1 21 43
M  V30 46 1 22 44
M  V30 47 1 25 45
M  V30 END BOND
M  V30 END CTAB
M  END
