
     RDKit          3D

  0  0  0  0  0  0  0  0  0  0999 V3000
M  V30 BEGIN CTAB
M  V30 COUNTS 24 24 0 0 0
M  V30 BEGIN ATOM
M  V30 1 C -2.9244 -0.285693 -0.949303 0
M  V30 2 C -1.60711 -0.774683 -0.319814 0
M  V30 3 C -0.604662 0.279461 -0.559503 0
M  V30 4 C 0.747509 0.0473665 -0.0610863 0
M  V30 5 C 1.23548 -1.15229 0.376158 0
M  V30 6 C 2.52794 -1.2279 0.811171 0
M  V30 7 C 3.35634 -0.127681 0.822114 0
M  V30 8 N 2.8653 1.03354 0.39257 0
M  V30 9 C 1.60185 1.15496 -0.0435601 0
M  V30 10 N 1.11578 2.43747 -0.498509 0
M  V30 11 N -1.94411 -0.844891 1.11552 0
M  V30 12 H -3.70923 -1.06632 -0.836458 0
M  V30 13 H -2.75164 0.0281352 -1.98336 0
M  V30 14 H -3.27319 0.585033 -0.34129 0
M  V30 15 H -1.42254 -1.75858 -0.731136 0
M  V30 16 H -0.533826 0.542298 -1.65096 0
M  V30 17 H -0.977729 1.22362 -0.0803316 0
M  V30 18 H 0.572343 -2.00577 0.356082 0
M  V30 19 H 2.90352 -2.18663 1.15609 0
M  V30 20 H 4.38282 -0.240034 1.18027 0
M  V30 21 H 0.285881 2.46571 -1.12403 0
M  V30 22 H 1.62104 3.28522 -0.176938 0
M  V30 23 H -2.1025 0.0879666 1.50639 0
M  V30 24 H -1.36487 -1.50031 1.6399 0
M  V30 END ATOM
M  V30 BEGIN BOND
M  V30 1 1 1 2
M  V30 2 1 2 3
M  V30 3 1 3 4
M  V30 4 2 4 5
M  V30 5 1 5 6
M  V30 6 2 6 7
M  V30 7 1 7 8
M  V30 8 2 8 9
M  V30 9 1 9 10
M  V30 10 1 2 11
M  V30 11 1 9 4
M  V30 12 1 1 12
M  V30 13 1 1 13
M  V30 14 1 1 14
M  V30 15 1 2 15
M  V30 16 1 3 16
M  V30 17 1 3 17
M  V30 18 1 5 18
M  V30 19 1 6 19
M  V30 20 1 7 20
M  V30 21 1 10 21
M  V30 22 1 10 22
M  V30 23 1 11 23
M  V30 24 1 11 24
M  V30 END BOND
M  V30 END CTAB
M  END
