
     RDKit          3D

  0  0  0  0  0  0  0  0  0  0999 V3000
M  V30 BEGIN CTAB
M  V30 COUNTS 42 43 0 0 0
M  V30 BEGIN ATOM
M  V30 1 C -1.83539 4.27826 -0.551847 0
M  V30 2 C -0.486908 3.64541 -0.284382 0
M  V30 3 O -0.668681 2.26258 0.00302567 0
M  V30 4 C 0.45762 1.56492 0.40095 0
M  V30 5 O 1.60096 2.12297 0.526692 0
M  V30 6 N 0.319703 0.171724 0.673914 0
M  V30 7 C 1.3904 -0.505883 1.32195 0
M  V30 8 C 2.56056 -0.828822 0.515664 0
M  V30 9 C 2.59335 -1.64221 -0.572813 0
M  V30 10 C 3.79859 -1.89058 -1.2638 0
M  V30 11 C 4.9715 -1.31697 -0.851126 0
M  V30 12 C 4.97543 -0.488555 0.25131 0
M  V30 13 C 3.7808 -0.261688 0.90583 0
M  V30 14 C -0.899467 -0.505109 0.390073 0
M  V30 15 C -1.41347 -0.561631 -0.868047 0
M  V30 16 N -0.777758 0.0297308 -1.98109 0
M  V30 17 C -2.6375 -1.22775 -1.02757 0
M  V30 18 N -3.15438 -1.2708 -2.36597 0
M  V30 19 N -3.29375 -1.79328 -0.00719828 0
M  V30 20 C -2.8085 -1.75532 1.25944 0
M  V30 21 C -1.62043 -1.11249 1.43315 0
M  V30 22 C -3.55764 -2.35646 2.38757 0
M  V30 23 F -2.83927 -2.2749 3.55299 0
M  V30 24 F -3.86362 -3.69671 2.16914 0
M  V30 25 F -4.75131 -1.65122 2.60687 0
M  V30 26 H -2.58024 3.99925 0.242965 0
M  V30 27 H -2.27089 3.97738 -1.52614 0
M  V30 28 H -1.75724 5.39893 -0.568982 0
M  V30 29 H 0.115936 3.72586 -1.22422 0
M  V30 30 H 0.00234252 4.14346 0.559265 0
M  V30 31 H 1.65672 0.108572 2.22436 0
M  V30 32 H 0.934962 -1.43713 1.79872 0
M  V30 33 H 1.67415 -2.09901 -0.911149 0
M  V30 34 H 3.82117 -2.53526 -2.12939 0
M  V30 35 H 5.918 -1.48752 -1.35477 0
M  V30 36 H 5.89926 -0.0429481 0.580078 0
M  V30 37 H 3.75818 0.389574 1.76619 0
M  V30 38 H 0.154073 -0.26503 -2.37733 0
M  V30 39 H -1.27836 0.831033 -2.46081 0
M  V30 40 H -2.89935 -0.555237 -3.07246 0
M  V30 41 H -3.79308 -2.02025 -2.63657 0
M  V30 42 H -1.19645 -1.0669 2.42876 0
M  V30 END ATOM
M  V30 BEGIN BOND
M  V30 1 1 1 2
M  V30 2 1 2 3
M  V30 3 1 3 4
M  V30 4 2 4 5
M  V30 5 1 4 6
M  V30 6 1 6 7
M  V30 7 1 7 8
M  V30 8 2 8 9
M  V30 9 1 9 10
M  V30 10 2 10 11
M  V30 11 1 11 12
M  V30 12 2 12 13
M  V30 13 1 6 14
M  V30 14 2 14 15
M  V30 15 1 15 16
M  V30 16 1 15 17
M  V30 17 1 17 18
M  V30 18 2 17 19
M  V30 19 1 19 20
M  V30 20 2 20 21
M  V30 21 1 20 22
M  V30 22 1 22 23
M  V30 23 1 22 24
M  V30 24 1 22 25
M  V30 25 1 13 8
M  V30 26 1 21 14
M  V30 27 1 1 26
M  V30 28 1 1 27
M  V30 29 1 1 28
M  V30 30 1 2 29
M  V30 31 1 2 30
M  V30 32 1 7 31
M  V30 33 1 7 32
M  V30 34 1 9 33
M  V30 35 1 10 34
M  V30 36 1 11 35
M  V30 37 1 12 36
M  V30 38 1 13 37
M  V30 39 1 16 38
M  V30 40 1 16 39
M  V30 41 1 18 40
M  V30 42 1 18 41
M  V30 43 1 21 42
M  V30 END BOND
M  V30 END CTAB
M  END
