
     RDKit          3D

  0  0  0  0  0  0  0  0  0  0999 V3000
M  V30 BEGIN CTAB
M  V30 COUNTS 10 9 0 0 0
M  V30 BEGIN ATOM
M  V30 1 N 1.72423 0.60889 -0.373099 0
M  V30 2 N 0.631542 -0.0952344 0.164947 0
M  V30 3 C -0.691848 0.207772 -0.199565 0
M  V30 4 N -1.76289 -0.514577 0.35612 0
M  V30 5 S -0.98203 1.39114 -1.26146 0
M  V30 6 H 2.18527 0.0522372 -1.12579 0
M  V30 7 H 2.40108 0.790757 0.419449 0
M  V30 8 H 0.844123 -0.858503 0.851756 0
M  V30 9 H -1.89063 -0.524095 1.38969 0
M  V30 10 H -2.45885 -1.05838 -0.222046 0
M  V30 END ATOM
M  V30 BEGIN BOND
M  V30 1 1 1 2
M  V30 2 1 2 3
M  V30 3 1 3 4
M  V30 4 2 3 5
M  V30 5 1 1 6
M  V30 6 1 1 7
M  V30 7 1 2 8
M  V30 8 1 4 9
M  V30 9 1 4 10
M  V30 END BOND
M  V30 END CTAB
M  END
