
     RDKit          3D

  0  0  0  0  0  0  0  0  0  0999 V3000
M  V30 BEGIN CTAB
M  V30 COUNTS 40 42 0 0 0
M  V30 BEGIN ATOM
M  V30 1 N 5.29333 -1.77131 0.524424 0
M  V30 2 C 5.06238 -0.36637 0.359496 0
M  V30 3 C 6.13079 0.468625 0.434447 0
M  V30 4 C 5.97047 1.82335 0.283868 0
M  V30 5 C 4.69922 2.29289 0.0574935 0
M  V30 6 C 3.60642 1.41981 -0.0168656 0
M  V30 7 C 3.74441 0.0611703 0.129826 0
M  V30 8 N 2.70435 -0.869734 0.104292 0
M  V30 9 C 1.36565 -0.643688 -0.294546 0
M  V30 10 C 0.933359 0.180458 -1.28104 0
M  V30 11 C -0.401005 0.351107 -1.56177 0
M  V30 12 C -1.40349 -0.319014 -0.844567 0
M  V30 13 N -2.75811 -0.162416 -1.19383 0
M  V30 14 C -3.78154 -0.022929 -0.23878 0
M  V30 15 C -5.08399 -0.117018 -0.731652 0
M  V30 16 N -5.33017 -0.379528 -2.11172 0
M  V30 17 C -6.12174 0.0493956 0.145836 0
M  V30 18 C -5.92322 0.304342 1.48709 0
M  V30 19 C -4.63375 0.391468 1.94029 0
M  V30 20 C -3.54438 0.229545 1.08333 0
M  V30 21 C -0.974867 -1.15832 0.156399 0
M  V30 22 C 0.361776 -1.31502 0.422369 0
M  V30 23 H 4.82128 -2.49122 -0.0551844 0
M  V30 24 H 5.95899 -2.10484 1.2507 0
M  V30 25 H 7.13461 0.106429 0.612823 0
M  V30 26 H 6.82964 2.49088 0.344089 0
M  V30 27 H 4.56506 3.35716 -0.0619635 0
M  V30 28 H 2.64645 1.86166 -0.172677 0
M  V30 29 H 2.93941 -1.85326 0.417751 0
M  V30 30 H 1.69921 0.695139 -1.87008 0
M  V30 31 H -0.732807 1.01108 -2.34952 0
M  V30 32 H -2.97816 -0.15129 -2.24581 0
M  V30 33 H -5.87754 -1.23509 -2.33998 0
M  V30 34 H -5.00011 0.222189 -2.8706 0
M  V30 35 H -7.15872 -0.0202165 -0.218685 0
M  V30 36 H -6.73606 0.431701 2.16095 0
M  V30 37 H -4.40416 0.592228 2.99617 0
M  V30 38 H -2.54102 0.335841 1.50609 0
M  V30 39 H -1.74336 -1.70261 0.716916 0
M  V30 40 H 0.661375 -1.9926 1.22839 0
M  V30 END ATOM
M  V30 BEGIN BOND
M  V30 1 1 1 2
M  V30 2 2 2 3
M  V30 3 1 3 4
M  V30 4 2 4 5
M  V30 5 1 5 6
M  V30 6 2 6 7
M  V30 7 1 7 8
M  V30 8 1 8 9
M  V30 9 2 9 10
M  V30 10 1 10 11
M  V30 11 2 11 12
M  V30 12 1 12 13
M  V30 13 1 13 14
M  V30 14 2 14 15
M  V30 15 1 15 16
M  V30 16 1 15 17
M  V30 17 2 17 18
M  V30 18 1 18 19
M  V30 19 2 19 20
M  V30 20 1 12 21
M  V30 21 2 21 22
M  V30 22 1 7 2
M  V30 23 1 22 9
M  V30 24 1 20 14
M  V30 25 1 1 23
M  V30 26 1 1 24
M  V30 27 1 3 25
M  V30 28 1 4 26
M  V30 29 1 5 27
M  V30 30 1 6 28
M  V30 31 1 8 29
M  V30 32 1 10 30
M  V30 33 1 11 31
M  V30 34 1 13 32
M  V30 35 1 16 33
M  V30 36 1 16 34
M  V30 37 1 17 35
M  V30 38 1 18 36
M  V30 39 1 19 37
M  V30 40 1 20 38
M  V30 41 1 21 39
M  V30 42 1 22 40
M  V30 END BOND
M  V30 END CTAB
M  END
