
     RDKit          3D

  0  0  0  0  0  0  0  0  0  0999 V3000
M  V30 BEGIN CTAB
M  V30 COUNTS 50 52 0 0 0
M  V30 BEGIN ATOM
M  V30 1 C -4.17762 -2.68405 -1.75248 0
M  V30 2 N -3.60833 -1.54742 -0.935137 0
M  V30 3 C -2.21904 -1.52382 -0.843022 0
M  V30 4 O -1.59417 -2.30951 -1.69064 0
M  V30 5 C -1.32438 -0.781892 0.0232346 0
M  V30 6 C -1.75656 -0.0930945 1.12061 0
M  V30 7 C -0.855004 0.629185 1.86471 0
M  V30 8 C 0.49137 0.679728 1.53416 0
M  V30 9 C 0.976793 0.00320449 0.440398 0
M  V30 10 C 0.0280786 -0.70941 -0.277385 0
M  V30 11 C 2.37205 -0.039916 0.0280962 0
M  V30 12 O 2.53991 -0.606737 -1.13623 0
M  V30 13 N 3.51815 0.419666 0.674444 0
M  V30 14 C 4.76574 0.380901 -0.0750242 0
M  V30 15 C 5.46395 1.54857 -0.233084 0
M  V30 16 C 6.6523 1.53194 -0.947112 0
M  V30 17 C 7.13432 0.368588 -1.49333 0
M  V30 18 C 6.40407 -0.808106 -1.31761 0
M  V30 19 C 5.21718 -0.799293 -0.606218 0
M  V30 20 N 8.3626 0.346377 -2.23349 0
M  V30 21 C 3.64221 0.889906 2.01156 0
M  V30 22 C -4.57324 -0.6927 -0.365169 0
M  V30 23 C -4.65716 0.627939 -0.752127 0
M  V30 24 C -5.64229 1.46681 -0.216376 0
M  V30 25 C -6.54201 0.990416 0.703739 0
M  V30 26 C -6.44914 -0.341853 1.08649 0
M  V30 27 C -5.46553 -1.18316 0.552529 0
M  V30 28 N -7.55448 1.83292 1.26247 0
M  V30 29 H -3.47745 -2.96742 -2.54758 0
M  V30 30 H -4.3839 -3.52749 -1.0333 0
M  V30 31 H -5.14301 -2.3519 -2.15269 0
M  V30 32 H -2.78908 -0.106174 1.46584 0
M  V30 33 H -1.21547 1.18067 2.74634 0
M  V30 34 H 1.15416 1.27803 2.13472 0
M  V30 35 H 0.37943 -1.25378 -1.14807 0
M  V30 36 H 5.10197 2.50132 0.193714 0
M  V30 37 H 7.20787 2.46704 -1.07168 0
M  V30 38 H 6.7937 -1.71792 -1.75235 0
M  V30 39 H 4.64911 -1.73902 -0.47592 0
M  V30 40 H 9.28406 0.289362 -1.75858 0
M  V30 41 H 8.27439 0.390713 -3.27604 0
M  V30 42 H 3.09898 0.243398 2.74353 0
M  V30 43 H 3.34806 1.95541 2.0585 0
M  V30 44 H 4.74108 0.900133 2.30978 0
M  V30 45 H -3.98526 1.08448 -1.47216 0
M  V30 46 H -5.70143 2.49343 -0.523922 0
M  V30 47 H -7.14744 -0.715 1.80022 0
M  V30 48 H -5.45816 -2.22751 0.906609 0
M  V30 49 H -7.59617 2.84323 1.11143 0
M  V30 50 H -8.28519 1.38379 1.85445 0
M  V30 END ATOM
M  V30 BEGIN BOND
M  V30 1 1 1 2
M  V30 2 1 2 3
M  V30 3 2 3 4
M  V30 4 1 3 5
M  V30 5 2 5 6
M  V30 6 1 6 7
M  V30 7 2 7 8
M  V30 8 1 8 9
M  V30 9 2 9 10
M  V30 10 1 9 11
M  V30 11 2 11 12
M  V30 12 1 11 13
M  V30 13 1 13 14
M  V30 14 2 14 15
M  V30 15 1 15 16
M  V30 16 2 16 17
M  V30 17 1 17 18
M  V30 18 2 18 19
M  V30 19 1 17 20
M  V30 20 1 13 21
M  V30 21 1 2 22
M  V30 22 2 22 23
M  V30 23 1 23 24
M  V30 24 2 24 25
M  V30 25 1 25 26
M  V30 26 2 26 27
M  V30 27 1 25 28
M  V30 28 1 10 5
M  V30 29 1 19 14
M  V30 30 1 27 22
M  V30 31 1 1 29
M  V30 32 1 1 30
M  V30 33 1 1 31
M  V30 34 1 6 32
M  V30 35 1 7 33
M  V30 36 1 8 34
M  V30 37 1 10 35
M  V30 38 1 15 36
M  V30 39 1 16 37
M  V30 40 1 18 38
M  V30 41 1 19 39
M  V30 42 1 20 40
M  V30 43 1 20 41
M  V30 44 1 21 42
M  V30 45 1 21 43
M  V30 46 1 21 44
M  V30 47 1 23 45
M  V30 48 1 24 46
M  V30 49 1 26 47
M  V30 50 1 27 48
M  V30 51 1 28 49
M  V30 52 1 28 50
M  V30 END BOND
M  V30 END CTAB
M  END
