
     RDKit          3D

  0  0  0  0  0  0  0  0  0  0999 V3000
M  V30 BEGIN CTAB
M  V30 COUNTS 28 29 0 0 0
M  V30 BEGIN ATOM
M  V30 1 N -4.58952 -0.755118 -0.834125 0
M  V30 2 C -4.08072 -0.523936 0.489817 0
M  V30 3 C -2.74592 0.153666 0.422922 0
M  V30 4 C -2.76126 1.54331 0.417866 0
M  V30 5 C -1.54798 2.19318 0.356935 0
M  V30 6 C -0.360235 1.50171 0.302823 0
M  V30 7 C -0.381471 0.126411 0.309574 0
M  V30 8 C -1.57484 -0.569774 0.369742 0
M  V30 9 C 0.879543 -0.609102 0.252135 0
M  V30 10 S 1.20626 -2.28183 0.243373 0
M  V30 11 C 2.92692 -2.20487 0.160523 0
M  V30 12 C 3.12992 -0.847955 0.145185 0
M  V30 13 N 2.08808 -0.0821381 0.191993 0
M  V30 14 C 4.53766 -0.29158 0.0753654 0
M  V30 15 N 4.56415 1.14112 0.0682536 0
M  V30 16 H -4.36928 -1.70772 -1.19591 0
M  V30 17 H -4.29332 -0.053014 -1.53662 0
M  V30 18 H -3.90398 -1.51126 0.974835 0
M  V30 19 H -4.7514 0.105005 1.10827 0
M  V30 20 H -3.69874 2.08586 0.460589 0
M  V30 21 H -1.53259 3.28107 0.351658 0
M  V30 22 H 0.553088 2.06811 0.256643 0
M  V30 23 H -1.63337 -1.63778 0.377003 0
M  V30 24 H 3.6879 -3.00257 0.127319 0
M  V30 25 H 5.07546 -0.657658 -0.798162 0
M  V30 26 H 5.03317 -0.630947 1.01778 0
M  V30 27 H 4.5627 1.58994 0.988144 0
M  V30 28 H 3.97976 1.57785 -0.654277 0
M  V30 END ATOM
M  V30 BEGIN BOND
M  V30 1 1 1 2
M  V30 2 1 2 3
M  V30 3 2 3 4
M  V30 4 1 4 5
M  V30 5 2 5 6
M  V30 6 1 6 7
M  V30 7 2 7 8
M  V30 8 1 7 9
M  V30 9 1 9 10
M  V30 10 1 10 11
M  V30 11 2 11 12
M  V30 12 1 12 13
M  V30 13 1 12 14
M  V30 14 1 14 15
M  V30 15 1 8 3
M  V30 16 2 13 9
M  V30 17 1 1 16
M  V30 18 1 1 17
M  V30 19 1 2 18
M  V30 20 1 2 19
M  V30 21 1 4 20
M  V30 22 1 5 21
M  V30 23 1 6 22
M  V30 24 1 8 23
M  V30 25 1 11 24
M  V30 26 1 14 25
M  V30 27 1 14 26
M  V30 28 1 15 27
M  V30 29 1 15 28
M  V30 END BOND
M  V30 END CTAB
M  END
