
     RDKit          3D

  0  0  0  0  0  0  0  0  0  0999 V3000
M  V30 BEGIN CTAB
M  V30 COUNTS 32 33 0 0 0
M  V30 BEGIN ATOM
M  V30 1 C -4.27406 1.52222 -1.00737 0
M  V30 2 O -3.49063 0.362992 -0.810057 0
M  V30 3 C -2.12052 0.519389 -0.631305 0
M  V30 4 C -1.55671 1.75581 -0.647023 0
M  V30 5 C -0.22612 1.93741 -0.475507 0
M  V30 6 C 0.560339 0.817386 -0.279826 0
M  V30 7 C 0.00741415 -0.462754 -0.258932 0
M  V30 8 C -1.33105 -0.632575 -0.433697 0
M  V30 9 S -2.07885 -2.1924 -0.411529 0
M  V30 10 O -3.48144 -2.10524 -1.02973 0
M  V30 11 O -1.32258 -3.27588 -1.10463 0
M  V30 12 N -2.35678 -2.67286 1.22269 0
M  V30 13 C 0.884233 -1.49305 -0.0441862 0
M  V30 14 C 2.23717 -1.29215 0.140072 0
M  V30 15 C 2.75885 -0.0340434 0.114806 0
M  V30 16 C 1.903 1.02105 -0.0975758 0
M  V30 17 S 4.45908 0.305997 0.338516 0
M  V30 18 O 4.83035 1.4919 -0.504161 0
M  V30 19 O 5.27338 -0.881058 -0.126011 0
M  V30 20 N 4.82736 0.554945 1.99607 0
M  V30 21 H -5.33649 1.27864 -1.15729 0
M  V30 22 H -4.21265 2.20785 -0.111688 0
M  V30 23 H -3.94866 2.12245 -1.87736 0
M  V30 24 H -2.20735 2.60686 -0.802546 0
M  V30 25 H 0.212441 2.90982 -0.489093 0
M  V30 26 H -3.31431 -2.48007 1.55133 0
M  V30 27 H -1.97947 -3.59995 1.44118 0
M  V30 28 H 0.500855 -2.47845 -0.00620119 0
M  V30 29 H 2.88288 -2.12746 0.303977 0
M  V30 30 H 2.31146 2.03033 -0.119061 0
M  V30 31 H 5.57295 1.31094 2.02764 0
M  V30 32 H 4.01588 0.971941 2.52032 0
M  V30 END ATOM
M  V30 BEGIN BOND
M  V30 1 1 1 2
M  V30 2 1 2 3
M  V30 3 2 3 4
M  V30 4 1 4 5
M  V30 5 2 5 6
M  V30 6 1 6 7
M  V30 7 2 7 8
M  V30 8 1 8 9
M  V30 9 2 9 10
M  V30 10 2 9 11
M  V30 11 1 9 12
M  V30 12 1 7 13
M  V30 13 2 13 14
M  V30 14 1 14 15
M  V30 15 2 15 16
M  V30 16 1 15 17
M  V30 17 2 17 18
M  V30 18 2 17 19
M  V30 19 1 17 20
M  V30 20 1 8 3
M  V30 21 1 16 6
M  V30 22 1 1 21
M  V30 23 1 1 22
M  V30 24 1 1 23
M  V30 25 1 4 24
M  V30 26 1 5 25
M  V30 27 1 12 26
M  V30 28 1 12 27
M  V30 29 1 13 28
M  V30 30 1 14 29
M  V30 31 1 16 30
M  V30 32 1 20 31
M  V30 33 1 20 32
M  V30 END BOND
M  V30 END CTAB
M  END
