
     RDKit          3D

  0  0  0  0  0  0  0  0  0  0999 V3000
M  V30 BEGIN CTAB
M  V30 COUNTS 37 38 0 0 0
M  V30 BEGIN ATOM
M  V30 1 C -4.73812 1.97875 0.0667232 0
M  V30 2 O -4.81454 0.708187 0.573554 0
M  V30 3 C -3.65972 -0.014009 0.612862 0
M  V30 4 C -3.02023 -0.244814 -0.753303 0
M  V30 5 C -1.88767 -1.17902 -0.50098 0
M  V30 6 O -2.13506 -2.41395 -0.661368 0
M  V30 7 N -0.593927 -0.822358 -0.110654 0
M  V30 8 C 0.369821 -1.87742 0.166786 0
M  V30 9 C 1.64451 -1.49103 -0.559116 0
M  V30 10 N 2.13582 -0.282523 0.0630272 0
M  V30 11 C 1.24185 0.734942 0.472069 0
M  V30 12 C -0.185964 0.556474 -0.0187517 0
M  V30 13 C 3.54878 -0.209022 0.244589 0
M  V30 14 S 4.61215 -1.40584 0.918927 0
M  V30 15 N 6.0586 -0.569221 0.739361 0
M  V30 16 C 5.6695 0.580151 0.17563 0
M  V30 17 N 4.40931 0.745191 -0.0652205 0
M  V30 18 N 6.66577 1.58921 -0.151841 0
M  V30 19 N -4.00969 -0.962145 -1.57026 0
M  V30 20 H -4.03533 2.6502 0.628611 0
M  V30 21 H -5.7708 2.42848 0.17724 0
M  V30 22 H -4.52978 2.00985 -1.03114 0
M  V30 23 H -3.94604 -1.0541 0.960779 0
M  V30 24 H -2.90389 0.344312 1.30264 0
M  V30 25 H -2.68388 0.680908 -1.20933 0
M  V30 26 H 0.614989 -1.78832 1.26314 0
M  V30 27 H 0.0141162 -2.87925 -0.0939374 0
M  V30 28 H 2.38394 -2.31839 -0.552256 0
M  V30 29 H 1.39397 -1.21896 -1.61461 0
M  V30 30 H 1.25594 0.931097 1.56801 0
M  V30 31 H 1.60427 1.69689 0.00732149 0
M  V30 32 H -0.85159 1.19586 0.556077 0
M  V30 33 H -0.2089 0.950665 -1.08448 0
M  V30 34 H 6.58604 2.19142 -0.984126 0
M  V30 35 H 7.50141 1.74229 0.450557 0
M  V30 36 H -4.19096 -1.86334 -1.07239 0
M  V30 37 H -3.54468 -1.12115 -2.49799 0
M  V30 END ATOM
M  V30 BEGIN BOND
M  V30 1 1 1 2
M  V30 2 1 2 3
M  V30 3 1 3 4
M  V30 4 1 4 5
M  V30 5 2 5 6
M  V30 6 1 5 7
M  V30 7 1 7 8
M  V30 8 1 8 9
M  V30 9 1 9 10
M  V30 10 1 10 11
M  V30 11 1 11 12
M  V30 12 1 10 13
M  V30 13 1 13 14
M  V30 14 1 14 15
M  V30 15 2 15 16
M  V30 16 1 16 17
M  V30 17 1 16 18
M  V30 18 1 4 19
M  V30 19 1 12 7
M  V30 20 2 17 13
M  V30 21 1 1 20
M  V30 22 1 1 21
M  V30 23 1 1 22
M  V30 24 1 3 23
M  V30 25 1 3 24
M  V30 26 1 4 25
M  V30 27 1 8 26
M  V30 28 1 8 27
M  V30 29 1 9 28
M  V30 30 1 9 29
M  V30 31 1 11 30
M  V30 32 1 11 31
M  V30 33 1 12 32
M  V30 34 1 12 33
M  V30 35 1 18 34
M  V30 36 1 18 35
M  V30 37 1 19 36
M  V30 38 1 19 37
M  V30 END BOND
M  V30 END CTAB
M  END
