
     RDKit          3D

  0  0  0  0  0  0  0  0  0  0999 V3000
M  V30 BEGIN CTAB
M  V30 COUNTS 27 28 0 0 0
M  V30 BEGIN ATOM
M  V30 1 N 5.21419 -0.257143 -0.409188 0
M  V30 2 N 3.9669 0.350036 -0.275048 0
M  V30 3 C 2.76585 -0.364271 -0.270919 0
M  V30 4 O 2.82312 -1.63462 -0.396683 0
M  V30 5 C 1.44885 0.2326 -0.13354 0
M  V30 6 C 1.24737 1.58684 0.00905376 0
M  V30 7 N 0.0040103 2.136 0.137375 0
M  V30 8 C -1.10311 1.34308 0.128234 0
M  V30 9 C -0.950186 -0.0134831 -0.0116391 0
M  V30 10 C 0.298834 -0.568587 -0.140877 0
M  V30 11 N 0.459227 -1.95146 -0.28373 0
M  V30 12 C -2.0602 -0.814441 -0.0213862 0
M  V30 13 C -3.34139 -0.320446 0.103917 0
M  V30 14 C -3.50749 1.04546 0.245486 0
M  V30 15 C -2.38393 1.84089 0.253879 0
M  V30 16 Cl -2.60042 3.58865 0.435265 0
M  V30 17 N -4.46143 -1.19873 0.0873299 0 CHG=1
M  V30 18 O -4.24437 -2.41337 -0.0427631 0
M  V30 19 O -5.72762 -0.688416 0.213273 0 CHG=-1
M  V30 20 H 5.73951 -0.354316 0.463022 0
M  V30 21 H 5.72856 0.285694 -1.14531 0
M  V30 22 H 3.95705 1.38534 -0.174785 0
M  V30 23 H 2.13114 2.22907 0.0172469 0
M  V30 24 H 0.610188 -2.31925 -1.26886 0
M  V30 25 H 0.448799 -2.6624 0.455272 0
M  V30 26 H -1.95279 -1.90073 -0.132466 0
M  V30 27 H -4.51066 1.43798 0.344143 0
M  V30 END ATOM
M  V30 BEGIN BOND
M  V30 1 1 1 2
M  V30 2 1 2 3
M  V30 3 2 3 4
M  V30 4 1 3 5
M  V30 5 2 5 6
M  V30 6 1 6 7
M  V30 7 2 7 8
M  V30 8 1 8 9
M  V30 9 2 9 10
M  V30 10 1 10 11
M  V30 11 1 9 12
M  V30 12 2 12 13
M  V30 13 1 13 14
M  V30 14 2 14 15
M  V30 15 1 15 16
M  V30 16 1 13 17
M  V30 17 2 17 18
M  V30 18 1 17 19
M  V30 19 1 10 5
M  V30 20 1 15 8
M  V30 21 1 1 20
M  V30 22 1 1 21
M  V30 23 1 2 22
M  V30 24 1 6 23
M  V30 25 1 11 24
M  V30 26 1 11 25
M  V30 27 1 12 26
M  V30 28 1 14 27
M  V30 END BOND
M  V30 END CTAB
M  END
