
     RDKit          3D

  0  0  0  0  0  0  0  0  0  0999 V3000
M  V30 BEGIN CTAB
M  V30 COUNTS 58 61 0 0 0
M  V30 BEGIN ATOM
M  V30 1 N 3.99762 1.01518 -1.03088 0
M  V30 2 C 4.13262 -0.364409 -1.27696 0 CFG=1
M  V30 3 C 4.68589 -1.02498 -0.0338488 0
M  V30 4 C 5.98627 -0.384066 0.235667 0
M  V30 5 C 6.13021 0.679776 1.08832 0
M  V30 6 C 7.32222 1.30385 1.33826 0
M  V30 7 C 8.46367 0.833079 0.690456 0
M  V30 8 O 9.66415 1.46104 0.94386 0
M  V30 9 C 8.34443 -0.225338 -0.163203 0
M  V30 10 C 7.11749 -0.852158 -0.407901 0
M  V30 11 C 2.81253 -0.920351 -1.65442 0
M  V30 12 O 2.6327 -2.17872 -1.68511 0
M  V30 13 N 1.76313 -0.0474887 -1.97768 0
M  V30 14 S 0.217426 -0.674527 -2.39949 0
M  V30 15 O -0.662478 0.454775 -2.89828 0
M  V30 16 O 0.292768 -1.69137 -3.49407 0
M  V30 17 O -0.536752 -1.32094 -1.03529 0
M  V30 18 C -1.54606 -0.489883 -0.574967 0
M  V30 19 C -2.1364 -1.1463 0.67515 0 CFG=1
M  V30 20 O -3.13063 -0.348589 1.16314 0
M  V30 21 C -4.3441 -1.02771 1.11911 0 CFG=2
M  V30 22 C -4.19398 -2.19496 0.201961 0 CFG=2
M  V30 23 O -4.95251 -3.29637 0.513085 0
M  V30 24 C -2.70821 -2.47824 0.33203 0 CFG=2
M  V30 25 O -2.44364 -3.37524 1.35639 0
M  V30 26 N -5.34501 -0.0844472 0.684255 0
M  V30 27 C -6.62226 -0.375324 0.338173 0
M  V30 28 N -7.2868 0.748369 -0.0174693 0
M  V30 29 C -6.41186 1.78946 0.103426 0
M  V30 30 C -5.22927 1.25165 0.534589 0
M  V30 31 N -4.19587 2.1156 0.727364 0
M  V30 32 C -4.27615 3.43335 0.522479 0
M  V30 33 N -5.43271 3.9505 0.10198 0
M  V30 34 C -6.49177 3.1474 -0.107745 0
M  V30 35 N -7.70151 3.74343 -0.550332 0
M  V30 36 H 3.39216 1.24738 -0.264603 0
M  V30 37 H 4.02386 1.59287 -1.82467 0
M  V30 38 H 4.82716 -0.538385 -2.13369 0
M  V30 39 H 4.8167 -2.1216 -0.267071 0
M  V30 40 H 4.01551 -0.869885 0.815557 0
M  V30 41 H 5.24702 1.07067 1.61518 0
M  V30 42 H 7.43861 2.14714 2.01141 0
M  V30 43 H 9.72375 2.25208 1.58686 0
M  V30 44 H 9.20791 -0.632489 -0.696553 0
M  V30 45 H 7.10173 -1.68073 -1.09129 0
M  V30 46 H 1.90768 0.976913 -1.97256 0
M  V30 47 H -1.23306 0.543874 -0.39287 0
M  V30 48 H -2.34211 -0.45509 -1.38053 0
M  V30 49 H -1.31811 -1.17608 1.41834 0
M  V30 50 H -4.56281 -1.35775 2.17685 0
M  V30 51 H -4.47314 -1.90068 -0.843131 0
M  V30 52 H -4.50282 -4.15731 0.27089 0
M  V30 53 H -2.36112 -2.87931 -0.645919 0
M  V30 54 H -1.99533 -4.19734 1.02792 0
M  V30 55 H -7.12351 -1.34445 0.318283 0
M  V30 56 H -3.43822 4.11113 0.681676 0
M  V30 57 H -7.98219 4.68289 -0.1476 0
M  V30 58 H -8.28479 3.26013 -1.25066 0
M  V30 END ATOM
M  V30 BEGIN BOND
M  V30 1 1 1 2
M  V30 2 1 2 3
M  V30 3 1 3 4
M  V30 4 2 4 5
M  V30 5 1 5 6
M  V30 6 2 6 7
M  V30 7 1 7 8
M  V30 8 1 7 9
M  V30 9 2 9 10
M  V30 10 1 2 11
M  V30 11 2 11 12
M  V30 12 1 11 13
M  V30 13 1 13 14
M  V30 14 2 14 15
M  V30 15 2 14 16
M  V30 16 1 14 17
M  V30 17 1 17 18
M  V30 18 1 18 19
M  V30 19 1 19 20
M  V30 20 1 20 21
M  V30 21 1 21 22
M  V30 22 1 22 23
M  V30 23 1 22 24
M  V30 24 1 24 25
M  V30 25 1 21 26
M  V30 26 1 26 27
M  V30 27 2 27 28
M  V30 28 1 28 29
M  V30 29 2 29 30
M  V30 30 1 30 31
M  V30 31 2 31 32
M  V30 32 1 32 33
M  V30 33 2 33 34
M  V30 34 1 34 35
M  V30 35 1 10 4
M  V30 36 1 24 19
M  V30 37 1 30 26
M  V30 38 1 34 29
M  V30 39 1 1 36
M  V30 40 1 1 37
M  V30 41 1 2 38 CFG=3
M  V30 42 1 3 39
M  V30 43 1 3 40
M  V30 44 1 5 41
M  V30 45 1 6 42
M  V30 46 1 8 43
M  V30 47 1 9 44
M  V30 48 1 10 45
M  V30 49 1 13 46
M  V30 50 1 18 47
M  V30 51 1 18 48
M  V30 52 1 19 49 CFG=1
M  V30 53 1 21 50 CFG=1
M  V30 54 1 22 51 CFG=3
M  V30 55 1 23 52
M  V30 56 1 24 53 CFG=3
M  V30 57 1 25 54
M  V30 58 1 27 55
M  V30 59 1 32 56
M  V30 60 1 35 57
M  V30 61 1 35 58
M  V30 END BOND
M  V30 END CTAB
M  END
