
     RDKit          3D

  0  0  0  0  0  0  0  0  0  0999 V3000
M  V30 BEGIN CTAB
M  V30 COUNTS 20 20 0 0 0
M  V30 BEGIN ATOM
M  V30 1 F 3.12824 0.416012 0.443895 0
M  V30 2 C 2.78076 -0.340846 -0.63817 0
M  V30 3 O 1.59799 0.0768595 -1.28655 0
M  V30 4 C 0.387196 0.0999008 -0.570178 0
M  V30 5 C -0.43337 -1.00469 -0.526517 0
M  V30 6 C -1.62782 -1.02997 0.160894 0
M  V30 7 N -2.48003 -2.1681 0.209789 0
M  V30 8 C -1.95641 0.140427 0.81412 0
M  V30 9 C -1.15878 1.254 0.787307 0
M  V30 10 C 0.0355875 1.26102 0.0926485 0
M  V30 11 N 0.87663 2.39832 0.0453323 0
M  V30 12 F 3.8418 -0.328973 -1.51542 0
M  V30 13 F 2.66225 -1.65852 -0.174048 0
M  V30 14 H -0.122655 -1.89915 -1.06051 0
M  V30 15 H -3.51208 -2.09023 0.298896 0
M  V30 16 H -2.09292 -3.13931 0.157055 0
M  V30 17 H -2.88572 0.167323 1.36737 0
M  V30 18 H -1.42198 2.18115 1.30644 0
M  V30 19 H 0.959206 3.00187 0.88445 0
M  V30 20 H 1.42212 2.66291 -0.796802 0
M  V30 END ATOM
M  V30 BEGIN BOND
M  V30 1 1 1 2
M  V30 2 1 2 3
M  V30 3 1 3 4
M  V30 4 2 4 5
M  V30 5 1 5 6
M  V30 6 1 6 7
M  V30 7 2 6 8
M  V30 8 1 8 9
M  V30 9 2 9 10
M  V30 10 1 10 11
M  V30 11 1 2 12
M  V30 12 1 2 13
M  V30 13 1 10 4
M  V30 14 1 5 14
M  V30 15 1 7 15
M  V30 16 1 7 16
M  V30 17 1 8 17
M  V30 18 1 9 18
M  V30 19 1 11 19
M  V30 20 1 11 20
M  V30 END BOND
M  V30 END CTAB
M  END
