
     RDKit          3D

  0  0  0  0  0  0  0  0  0  0999 V3000
M  V30 BEGIN CTAB
M  V30 COUNTS 25 26 0 0 0
M  V30 BEGIN ATOM
M  V30 1 N 2.74657 2.26113 0.265939 0
M  V30 2 C 2.17221 0.964746 0.170053 0
M  V30 3 N 0.823766 0.795292 0.135968 0
M  V30 4 C 0.25739 -0.405771 0.0465537 0
M  V30 5 N 1.05841 -1.48528 -0.0116383 0
M  V30 6 C 2.40064 -1.37225 0.0185918 0
M  V30 7 N 2.94334 -0.135678 0.109963 0
M  V30 8 N 3.19518 -2.53685 -0.0453663 0
M  V30 9 C -1.19755 -0.613727 0.0080977 0
M  V30 10 C -1.85361 0.0810662 1.18054 0
M  V30 11 N -2.72021 1.10671 0.632251 0
M  V30 12 C -3.17518 0.489041 -0.600682 0
M  V30 13 C -1.83123 0.0678961 -1.21034 0
M  V30 14 H 2.22789 3.0695 0.663817 0
M  V30 15 H 3.72214 2.43311 -0.0681177 0
M  V30 16 H 3.87852 -2.64144 -0.825769 0
M  V30 17 H 3.12497 -3.29918 0.659997 0
M  V30 18 H -1.4605 -1.6701 -0.0661212 0
M  V30 19 H -1.0834 0.53871 1.85743 0
M  V30 20 H -2.44676 -0.602563 1.81161 0
M  V30 21 H -2.10094 1.92283 0.393451 0
M  V30 22 H -3.73346 1.16175 -1.2457 0
M  V30 23 H -3.701 -0.434256 -0.321954 0
M  V30 24 H -1.26229 0.947939 -1.52341 0
M  V30 25 H -1.98492 -0.642621 -2.03517 0
M  V30 END ATOM
M  V30 BEGIN BOND
M  V30 1 1 1 2
M  V30 2 2 2 3
M  V30 3 1 3 4
M  V30 4 2 4 5
M  V30 5 1 5 6
M  V30 6 2 6 7
M  V30 7 1 6 8
M  V30 8 1 4 9
M  V30 9 1 9 10
M  V30 10 1 10 11
M  V30 11 1 11 12
M  V30 12 1 12 13
M  V30 13 1 7 2
M  V30 14 1 13 9
M  V30 15 1 1 14
M  V30 16 1 1 15
M  V30 17 1 8 16
M  V30 18 1 8 17
M  V30 19 1 9 18
M  V30 20 1 10 19
M  V30 21 1 10 20
M  V30 22 1 11 21
M  V30 23 1 12 22
M  V30 24 1 12 23
M  V30 25 1 13 24
M  V30 26 1 13 25
M  V30 END BOND
M  V30 END CTAB
M  END
