
     RDKit          3D

  0  0  0  0  0  0  0  0  0  0999 V3000
M  V30 BEGIN CTAB
M  V30 COUNTS 24 24 0 0 0
M  V30 BEGIN ATOM
M  V30 1 N 0.0777144 -1.94181 -1.08741 0
M  V30 2 C -0.195126 -0.54929 -0.782312 0
M  V30 3 C -1.70718 -0.400827 -0.655685 0
M  V30 4 C -2.09377 0.925991 -0.0700172 0
M  V30 5 C -1.29326 1.28717 1.15882 0
M  V30 6 C 0.17997 1.17014 0.772396 0
M  V30 7 N 0.379479 -0.234051 0.480664 0
M  V30 8 S 2.00779 -0.724615 0.660332 0
M  V30 9 O 2.15177 -2.21271 0.618536 0
M  V30 10 O 2.4651 -0.293808 2.04703 0
M  V30 11 N 2.95338 0.0869447 -0.510942 0
M  V30 12 H -0.208485 -2.50054 -0.252321 0
M  V30 13 H -0.528923 -2.18865 -1.91349 0
M  V30 14 H 0.113148 0.123519 -1.60623 0
M  V30 15 H -2.14865 -0.459275 -1.6769 0
M  V30 16 H -2.1148 -1.24546 -0.0550931 0
M  V30 17 H -1.92267 1.72723 -0.814394 0
M  V30 18 H -3.15071 0.910271 0.194182 0
M  V30 19 H -1.56074 2.30842 1.45575 0
M  V30 20 H -1.4819 0.519001 1.92084 0
M  V30 21 H 0.282535 1.78749 -0.165382 0
M  V30 22 H 0.847263 1.55272 1.56123 0
M  V30 23 H 3.4778 -0.546105 -1.12459 0
M  V30 24 H 3.47027 0.898258 -0.155018 0
M  V30 END ATOM
M  V30 BEGIN BOND
M  V30 1 1 1 2
M  V30 2 1 2 3
M  V30 3 1 3 4
M  V30 4 1 4 5
M  V30 5 1 5 6
M  V30 6 1 6 7
M  V30 7 1 7 8
M  V30 8 2 8 9
M  V30 9 2 8 10
M  V30 10 1 8 11
M  V30 11 1 7 2
M  V30 12 1 1 12
M  V30 13 1 1 13
M  V30 14 1 2 14
M  V30 15 1 3 15
M  V30 16 1 3 16
M  V30 17 1 4 17
M  V30 18 1 4 18
M  V30 19 1 5 19
M  V30 20 1 5 20
M  V30 21 1 6 21
M  V30 22 1 6 22
M  V30 23 1 11 23
M  V30 24 1 11 24
M  V30 END BOND
M  V30 END CTAB
M  END
