
     RDKit          3D

  0  0  0  0  0  0  0  0  0  0999 V3000
M  V30 BEGIN CTAB
M  V30 COUNTS 32 32 0 0 0
M  V30 BEGIN ATOM
M  V30 1 C -5.93527 -0.319206 -0.633421 0
M  V30 2 C -4.81391 0.594786 -0.264449 0
M  V30 3 C -3.46423 -0.047612 -0.387604 0
M  V30 4 N -2.42327 0.891597 -0.0155019 0
M  V30 5 C -1.04578 0.550401 -0.0386517 0
M  V30 6 N -0.61309 -0.674871 -0.409747 0
M  V30 7 C 0.694136 -0.984724 -0.427122 0
M  V30 8 N 1.15334 -2.28722 -0.821669 0
M  V30 9 C 1.61508 -0.0470628 -0.063201 0
M  V30 10 N 1.18176 1.17069 0.305404 0
M  V30 11 C -0.108598 1.49179 0.327515 0
M  V30 12 Cl -0.62322 3.11202 0.821922 0
M  V30 13 C 3.03711 -0.328097 -0.0637869 0
M  V30 14 O 3.45731 -1.46161 -0.405681 0
M  V30 15 N 3.98767 0.650984 0.315423 0
M  V30 16 C 5.3708 0.375293 0.314109 0
M  V30 17 N 5.85297 -0.899555 -0.0697502 0
M  V30 18 N 6.2117 1.27599 0.660781 0
M  V30 19 H -5.92552 -0.581454 -1.72196 0
M  V30 20 H -6.88957 0.212273 -0.41402 0
M  V30 21 H -5.92517 -1.25224 -0.0240246 0
M  V30 22 H -4.86165 1.48792 -0.918389 0
M  V30 23 H -4.94757 0.884761 0.798282 0
M  V30 24 H -3.25458 -0.367888 -1.42749 0
M  V30 25 H -3.40516 -0.90464 0.325725 0
M  V30 26 H -2.69822 1.85215 0.279588 0
M  V30 27 H 1.5557 -2.48093 -1.74397 0
M  V30 28 H 1.068 -3.05641 -0.132988 0
M  V30 29 H 3.68662 1.61743 0.610566 0
M  V30 30 H 6.32931 -0.967999 -1.00593 0
M  V30 31 H 5.73715 -1.74116 0.559212 0
M  V30 32 H 5.99615 2.2346 0.958801 0
M  V30 END ATOM
M  V30 BEGIN BOND
M  V30 1 1 1 2
M  V30 2 1 2 3
M  V30 3 1 3 4
M  V30 4 1 4 5
M  V30 5 2 5 6
M  V30 6 1 6 7
M  V30 7 1 7 8
M  V30 8 2 7 9
M  V30 9 1 9 10
M  V30 10 2 10 11
M  V30 11 1 11 12
M  V30 12 1 9 13
M  V30 13 2 13 14
M  V30 14 1 13 15
M  V30 15 1 15 16
M  V30 16 1 16 17
M  V30 17 2 16 18 CFG=2
M  V30 18 1 11 5
M  V30 19 1 1 19
M  V30 20 1 1 20
M  V30 21 1 1 21
M  V30 22 1 2 22
M  V30 23 1 2 23
M  V30 24 1 3 24
M  V30 25 1 3 25
M  V30 26 1 4 26
M  V30 27 1 8 27
M  V30 28 1 8 28
M  V30 29 1 15 29
M  V30 30 1 17 30
M  V30 31 1 17 31
M  V30 32 1 18 32
M  V30 END BOND
M  V30 END CTAB
M  END
