
     RDKit          3D

  0  0  0  0  0  0  0  0  0  0999 V3000
M  V30 BEGIN CTAB
M  V30 COUNTS 28 28 0 0 0
M  V30 BEGIN ATOM
M  V30 1 C 5.40212 -0.815491 0.230189 0
M  V30 2 O 4.16064 -1.36821 0.585678 0
M  V30 3 C 2.94817 -0.738532 0.34209 0
M  V30 4 C 2.89102 0.485846 -0.272905 0
M  V30 5 C 1.68927 1.10555 -0.512103 0
M  V30 6 C 0.477713 0.550084 -0.157053 0
M  V30 7 C 0.529044 -0.686683 0.464555 0
M  V30 8 C 1.75019 -1.31704 0.707949 0
M  V30 9 N -0.747889 1.21505 -0.417637 0
M  V30 10 C -2.01643 0.683919 -0.0712128 0
M  V30 11 N -2.91694 0.349865 -0.922813 0
M  V30 12 C -4.19341 -0.186184 -0.533468 0
M  V30 13 N -4.41547 -1.4458 -0.487194 0
M  V30 14 N -5.22654 0.714261 -0.193786 0
M  V30 15 N -2.32036 0.505813 1.30982 0
M  V30 16 H 6.1859 -1.56654 0.52612 0
M  V30 17 H 5.51134 -0.598492 -0.838863 0
M  V30 18 H 5.57731 0.159689 0.763711 0
M  V30 19 H 3.80603 0.959022 -0.568162 0
M  V30 20 H 1.65628 2.08576 -1.00525 0
M  V30 21 H -0.40508 -1.15198 0.756998 0
M  V30 22 H 1.73335 -2.29823 1.20463 0
M  V30 23 H -0.706084 2.14029 -0.88771 0
M  V30 24 H -5.32396 -1.82292 -0.210009 0
M  V30 25 H -5.32303 1.07017 0.7712 0
M  V30 26 H -5.89409 1.0216 -0.916692 0
M  V30 27 H -2.04352 1.30622 1.94259 0
M  V30 28 H -2.78557 -0.35702 1.67521 0
M  V30 END ATOM
M  V30 BEGIN BOND
M  V30 1 1 1 2
M  V30 2 1 2 3
M  V30 3 2 3 4
M  V30 4 1 4 5
M  V30 5 2 5 6
M  V30 6 1 6 7
M  V30 7 2 7 8
M  V30 8 1 6 9
M  V30 9 1 9 10
M  V30 10 2 10 11
M  V30 11 1 11 12
M  V30 12 2 12 13
M  V30 13 1 12 14
M  V30 14 1 10 15
M  V30 15 1 8 3
M  V30 16 1 1 16
M  V30 17 1 1 17
M  V30 18 1 1 18
M  V30 19 1 4 19
M  V30 20 1 5 20
M  V30 21 1 7 21
M  V30 22 1 8 22
M  V30 23 1 9 23
M  V30 24 1 13 24
M  V30 25 1 14 25
M  V30 26 1 14 26
M  V30 27 1 15 27
M  V30 28 1 15 28
M  V30 END BOND
M  V30 END CTAB
M  END
