
     RDKit          3D

  0  0  0  0  0  0  0  0  0  0999 V3000
M  V30 BEGIN CTAB
M  V30 COUNTS 32 33 0 0 0
M  V30 BEGIN ATOM
M  V30 1 C 6.17263 0.31391 -0.154773 0
M  V30 2 C 4.80433 0.679326 0.362201 0
M  V30 3 O 4.70061 1.62959 1.16524 0
M  V30 4 N 3.69525 -0.0452761 -0.0639347 0
M  V30 5 C 2.35548 0.123397 0.281996 0
M  V30 6 C 1.82399 1.14357 1.01807 0
M  V30 7 C 0.449108 1.21822 1.3246 0
M  V30 8 C -0.408592 0.240077 0.877118 0
M  V30 9 N -1.80096 0.255198 1.14993 0
M  V30 10 N -2.62602 -0.740425 0.685575 0
M  V30 11 C -3.59683 -0.569457 -0.141406 0
M  V30 12 C -4.53412 -1.52964 -0.704632 0
M  V30 13 N -4.5381 -2.91196 -0.418871 0
M  V30 14 N -5.33013 -0.858398 -1.49377 0
M  V30 15 N -4.995 0.497186 -1.504 0
M  V30 16 C -3.97277 0.715321 -0.716408 0
M  V30 17 N -3.34489 1.96703 -0.4663 0
M  V30 18 C 0.0985683 -0.800178 0.132794 0
M  V30 19 C 1.43039 -0.842499 -0.145277 0
M  V30 20 H 6.92135 0.689843 0.562539 0
M  V30 21 H 6.36064 0.759457 -1.13855 0
M  V30 22 H 6.20126 -0.805258 -0.198202 0
M  V30 23 H 3.93415 -0.83873 -0.759955 0
M  V30 24 H 2.45796 1.93166 1.38205 0
M  V30 25 H 0.0923387 2.04857 1.90964 0
M  V30 26 H -2.24986 1.01881 1.71072 0
M  V30 27 H -4.53949 -3.64322 -1.16292 0
M  V30 28 H -4.5398 -3.24373 0.569993 0
M  V30 29 H -2.54705 2.33595 -1.01 0
M  V30 30 H -3.74296 2.53089 0.332468 0
M  V30 31 H -0.529877 -1.60426 -0.249691 0
M  V30 32 H 1.79842 -1.66496 -0.726781 0
M  V30 END ATOM
M  V30 BEGIN BOND
M  V30 1 1 1 2
M  V30 2 2 2 3
M  V30 3 1 2 4
M  V30 4 1 4 5
M  V30 5 2 5 6
M  V30 6 1 6 7
M  V30 7 2 7 8
M  V30 8 1 8 9
M  V30 9 1 9 10
M  V30 10 2 10 11
M  V30 11 1 11 12
M  V30 12 1 12 13
M  V30 13 2 12 14
M  V30 14 1 14 15
M  V30 15 2 15 16
M  V30 16 1 16 17
M  V30 17 1 8 18
M  V30 18 2 18 19
M  V30 19 1 19 5
M  V30 20 1 16 11
M  V30 21 1 1 20
M  V30 22 1 1 21
M  V30 23 1 1 22
M  V30 24 1 4 23
M  V30 25 1 6 24
M  V30 26 1 7 25
M  V30 27 1 9 26
M  V30 28 1 13 27
M  V30 29 1 13 28
M  V30 30 1 17 29
M  V30 31 1 17 30
M  V30 32 1 18 31
M  V30 33 1 19 32
M  V30 END BOND
M  V30 END CTAB
M  END
