
     RDKit          3D

  0  0  0  0  0  0  0  0  0  0999 V3000
M  V30 BEGIN CTAB
M  V30 COUNTS 23 23 0 0 0
M  V30 BEGIN ATOM
M  V30 1 N 4.03836 0.0149725 -0.522938 0
M  V30 2 N 2.806 0.0212592 0.142663 0
M  V30 3 C 1.62921 -0.487006 -0.45924 0
M  V30 4 O 1.70108 -0.954464 -1.62204 0
M  V30 5 C 0.369732 -0.443835 0.309469 0
M  V30 6 C -0.602682 0.421732 -0.485023 0
M  V30 7 C -1.93212 0.539796 0.205426 0
M  V30 8 C -2.6895 -0.697509 0.457148 0
M  V30 9 C -3.19857 0.252004 -0.560241 0
M  V30 10 N 0.555124 0.122566 1.5746 0
M  V30 11 H 4.40508 0.990097 -0.497898 0
M  V30 12 H 4.70111 -0.686864 -0.145514 0
M  V30 13 H 2.81207 0.424119 1.10887 0
M  V30 14 H 0.00035593 -1.48041 0.40616 0
M  V30 15 H -0.677172 0.0999481 -1.53985 0
M  V30 16 H -0.135013 1.44456 -0.508689 0
M  V30 17 H -2.03522 1.35465 0.949298 0
M  V30 18 H -3.16712 -0.801016 1.45464 0
M  V30 19 H -2.3454 -1.69286 0.0677717 0
M  V30 20 H -3.04507 -0.000297967 -1.61506 0
M  V30 21 H -4.12316 0.805089 -0.301345 0
M  V30 22 H 0.819958 1.08771 1.65811 0
M  V30 23 H 0.112935 -0.334237 2.38261 0
M  V30 END ATOM
M  V30 BEGIN BOND
M  V30 1 1 1 2
M  V30 2 1 2 3
M  V30 3 2 3 4
M  V30 4 1 3 5
M  V30 5 1 5 6
M  V30 6 1 6 7
M  V30 7 1 7 8
M  V30 8 1 8 9
M  V30 9 1 5 10
M  V30 10 1 9 7
M  V30 11 1 1 11
M  V30 12 1 1 12
M  V30 13 1 2 13
M  V30 14 1 5 14
M  V30 15 1 6 15
M  V30 16 1 6 16
M  V30 17 1 7 17
M  V30 18 1 8 18
M  V30 19 1 8 19
M  V30 20 1 9 20
M  V30 21 1 9 21
M  V30 22 1 10 22
M  V30 23 1 10 23
M  V30 END BOND
M  V30 END CTAB
M  END
