
     RDKit          3D

  0  0  0  0  0  0  0  0  0  0999 V3000
M  V30 BEGIN CTAB
M  V30 COUNTS 22 22 0 0 0
M  V30 BEGIN ATOM
M  V30 1 N 2.51413 -0.713576 0.202417 0
M  V30 2 C 1.20517 -0.162476 0.0507955 0
M  V30 3 C 0.150237 -1.03662 0.253689 0
M  V30 4 C -1.1252 -0.534334 0.1197 0
M  V30 5 N -2.25545 -1.37182 0.305909 0
M  V30 6 C -1.31099 0.791718 -0.206095 0
M  V30 7 C -0.267371 1.67399 -0.411488 0
M  V30 8 C 1.01002 1.15521 -0.272524 0
M  V30 9 N 2.11764 2.02043 -0.476078 0 CHG=1
M  V30 10 O 3.29746 1.78628 0.207947 0 CHG=-1
M  V30 11 O 2.01683 2.96208 -1.26721 0
M  V30 12 N -2.6091 1.32128 -0.350721 0 CHG=1
M  V30 13 O -3.63105 0.769689 0.357056 0 CHG=-1
M  V30 14 O -2.82847 2.27014 -1.09633 0
M  V30 15 N 0.418966 -2.39759 0.569763 0 CHG=1
M  V30 16 O 0.261801 -3.39293 -0.383983 0 CHG=-1
M  V30 17 O 0.819526 -2.73394 1.72925 0
M  V30 18 H 3.19212 -0.528671 -0.557033 0
M  V30 19 H 2.79146 -1.27369 1.00846 0
M  V30 20 H -2.75385 -1.90012 -0.425686 0
M  V30 21 H -2.58382 -1.42122 1.31778 0
M  V30 22 H -0.430039 2.71618 -0.675622 0
M  V30 END ATOM
M  V30 BEGIN BOND
M  V30 1 1 1 2
M  V30 2 2 2 3
M  V30 3 1 3 4
M  V30 4 1 4 5
M  V30 5 2 4 6
M  V30 6 1 6 7
M  V30 7 2 7 8
M  V30 8 1 8 9
M  V30 9 1 9 10
M  V30 10 2 9 11
M  V30 11 1 6 12
M  V30 12 1 12 13
M  V30 13 2 12 14
M  V30 14 1 3 15
M  V30 15 1 15 16
M  V30 16 2 15 17
M  V30 17 1 8 2
M  V30 18 1 1 18
M  V30 19 1 1 19
M  V30 20 1 5 20
M  V30 21 1 5 21
M  V30 22 1 7 22
M  V30 END BOND
M  V30 END CTAB
M  END
