
     RDKit          3D

  0  0  0  0  0  0  0  0  0  0999 V3000
M  V30 BEGIN CTAB
M  V30 COUNTS 20 20 0 0 0
M  V30 BEGIN ATOM
M  V30 1 N -3.06389 -1.61377 0.391924 0
M  V30 2 N -2.16559 -1.05637 -0.510611 0
M  V30 3 C -1.08644 -0.193739 -0.186751 0
M  V30 4 C 0.200162 -0.629849 0.0348881 0
M  V30 5 F 0.49989 -1.94971 -0.0318313 0
M  V30 6 C 1.23477 0.250576 0.329649 0
M  V30 7 N 2.56869 -0.224553 0.529789 0
M  V30 8 N 3.2926 -0.495359 -0.621211 0
M  V30 9 C 0.982291 1.58259 0.404791 0
M  V30 10 F 1.95639 2.4982 0.687366 0
M  V30 11 C -0.304067 2.02961 0.18668 0
M  V30 12 F -0.56309 3.37738 0.274876 0
M  V30 13 C -1.34002 1.15736 -0.108794 0
M  V30 14 F -2.57605 1.71174 -0.312136 0
M  V30 15 H -3.647 -0.895877 0.901424 0
M  V30 16 H -3.75133 -2.1642 -0.172498 0
M  V30 17 H -2.24706 -1.24741 -1.55624 0
M  V30 18 H 2.9018 -0.337387 1.50328 0
M  V30 19 H 2.81694 -1.1738 -1.23819 0
M  V30 20 H 4.29102 -0.625436 -0.506402 0
M  V30 END ATOM
M  V30 BEGIN BOND
M  V30 1 1 1 2
M  V30 2 1 2 3
M  V30 3 2 3 4
M  V30 4 1 4 5
M  V30 5 1 4 6
M  V30 6 1 6 7
M  V30 7 1 7 8
M  V30 8 2 6 9
M  V30 9 1 9 10
M  V30 10 1 9 11
M  V30 11 1 11 12
M  V30 12 2 11 13
M  V30 13 1 13 14
M  V30 14 1 13 3
M  V30 15 1 1 15
M  V30 16 1 1 16
M  V30 17 1 2 17
M  V30 18 1 7 18
M  V30 19 1 8 19
M  V30 20 1 8 20
M  V30 END BOND
M  V30 END CTAB
M  END
