
     RDKit          3D

  0  0  0  0  0  0  0  0  0  0999 V3000
M  V30 BEGIN CTAB
M  V30 COUNTS 33 34 0 0 0
M  V30 BEGIN ATOM
M  V30 1 N 0.999278 3.75342 -0.919727 0
M  V30 2 C 0.610482 2.66523 -0.0397721 0
M  V30 3 C 0.370362 1.44165 -0.895978 0
M  V30 4 N -0.0251479 0.274402 -0.179547 0
M  V30 5 C 1.00262 -0.745598 -0.0822321 0
M  V30 6 C 2.334 -0.440947 -0.24165 0
M  V30 7 C 3.31992 -1.40807 -0.147621 0
M  V30 8 C 2.99285 -2.71874 0.112295 0
M  V30 9 C 1.67151 -3.06307 0.278399 0
M  V30 10 C 0.702868 -2.07062 0.178123 0
M  V30 11 N -0.680095 -2.40816 0.351901 0
M  V30 12 C -1.61853 -1.44268 -0.168296 0
M  V30 13 C -1.22467 -0.066747 0.469521 0 CFG=2
M  V30 14 S -2.64842 0.867901 0.343442 0
M  V30 15 O -2.97947 1.15579 -1.09315 0
M  V30 16 O -2.83855 2.07696 1.14228 0
M  V30 17 N -3.96311 -0.185621 0.889334 0
M  V30 18 H 2.00921 3.77947 -1.11535 0
M  V30 19 H 0.743271 4.65153 -0.497978 0
M  V30 20 H 1.46817 2.52767 0.650112 0
M  V30 21 H -0.27947 2.96041 0.49209 0
M  V30 22 H 1.21589 1.26218 -1.60169 0
M  V30 23 H -0.427024 1.78392 -1.62218 0
M  V30 24 H 2.66071 0.545457 -0.436647 0
M  V30 25 H 4.36388 -1.12605 -0.280408 0
M  V30 26 H 3.73112 -3.50579 0.193926 0
M  V30 27 H 1.33333 -4.0691 0.484701 0
M  V30 28 H -0.953967 -3.28006 0.819052 0
M  V30 29 H -2.67151 -1.68276 0.0799652 0
M  V30 30 H -1.43743 -1.31563 -1.25478 0
M  V30 31 H -1.02333 -0.359632 1.52185 0
M  V30 32 H -4.85392 0.286478 0.640305 0
M  V30 33 H -3.90481 -0.14317 1.92972 0
M  V30 END ATOM
M  V30 BEGIN BOND
M  V30 1 1 1 2
M  V30 2 1 2 3
M  V30 3 1 3 4
M  V30 4 1 4 5
M  V30 5 2 5 6
M  V30 6 1 6 7
M  V30 7 2 7 8
M  V30 8 1 8 9
M  V30 9 2 9 10
M  V30 10 1 10 11
M  V30 11 1 11 12
M  V30 12 1 12 13
M  V30 13 1 13 14
M  V30 14 2 14 15
M  V30 15 2 14 16
M  V30 16 1 14 17
M  V30 17 1 13 4
M  V30 18 1 10 5
M  V30 19 1 1 18
M  V30 20 1 1 19
M  V30 21 1 2 20
M  V30 22 1 2 21
M  V30 23 1 3 22
M  V30 24 1 3 23
M  V30 25 1 6 24
M  V30 26 1 7 25
M  V30 27 1 8 26
M  V30 28 1 9 27
M  V30 29 1 11 28
M  V30 30 1 12 29
M  V30 31 1 12 30
M  V30 32 1 13 31 CFG=1
M  V30 33 1 17 32
M  V30 34 1 17 33
M  V30 END BOND
M  V30 END CTAB
M  END
