
     RDKit          3D

  0  0  0  0  0  0  0  0  0  0999 V3000
M  V30 BEGIN CTAB
M  V30 COUNTS 36 35 0 0 0
M  V30 BEGIN ATOM
M  V30 1 N 5.33628 -1.65358 0.746708 0
M  V30 2 C 4.39278 -0.565085 0.924823 0
M  V30 3 C 3.13942 -0.917975 0.167772 0
M  V30 4 N 2.12567 0.109815 0.28036 0
M  V30 5 C 0.881097 -0.0760756 -0.380613 0
M  V30 6 O 0.653889 -1.10675 -1.05151 0
M  V30 7 C -0.208424 0.939985 -0.308879 0
M  V30 8 C 0.172325 2.25557 -0.865855 0
M  V30 9 C -0.961525 3.23229 -0.727592 0
M  V30 10 C -0.600517 4.54688 -1.27256 0
M  V30 11 N -0.326878 5.58147 -1.69112 0
M  V30 12 C -1.41583 0.343139 -0.928903 0
M  V30 13 O -1.92006 0.706695 -2.02137 0
M  V30 14 N -2.08736 -0.73713 -0.261897 0
M  V30 15 C -3.26093 -1.36992 -0.79823 0
M  V30 16 C -3.71326 -2.46206 0.145286 0
M  V30 17 N -4.01859 -1.88137 1.43678 0
M  V30 18 H 5.35271 -1.99266 -0.240985 0
M  V30 19 H 5.06624 -2.46752 1.34075 0
M  V30 20 H 4.11421 -0.580537 2.01422 0
M  V30 21 H 4.79107 0.417087 0.679516 0
M  V30 22 H 2.68524 -1.85795 0.498525 0
M  V30 23 H 3.35812 -1.02728 -0.925599 0
M  V30 24 H 2.34359 0.942898 0.838024 0
M  V30 25 H -0.450709 1.00879 0.794048 0
M  V30 26 H 0.320643 2.13048 -1.98085 0
M  V30 27 H 1.08368 2.69562 -0.430887 0
M  V30 28 H -1.16826 3.38543 0.361692 0
M  V30 29 H -1.89829 2.91418 -1.17323 0
M  V30 30 H -1.68287 -1.05055 0.643771 0
M  V30 31 H -3.06912 -1.86798 -1.78394 0
M  V30 32 H -4.05602 -0.627237 -0.992183 0
M  V30 33 H -2.83686 -3.16315 0.240028 0
M  V30 34 H -4.55546 -3.03599 -0.28347 0
M  V30 35 H -3.15086 -1.84612 2.01858 0
M  V30 36 H -4.43515 -0.923427 1.3048 0
M  V30 END ATOM
M  V30 BEGIN BOND
M  V30 1 1 1 2
M  V30 2 1 2 3
M  V30 3 1 3 4
M  V30 4 1 4 5
M  V30 5 2 5 6
M  V30 6 1 5 7
M  V30 7 1 7 8
M  V30 8 1 8 9
M  V30 9 1 9 10
M  V30 10 3 10 11
M  V30 11 1 7 12
M  V30 12 2 12 13
M  V30 13 1 12 14
M  V30 14 1 14 15
M  V30 15 1 15 16
M  V30 16 1 16 17
M  V30 17 1 1 18
M  V30 18 1 1 19
M  V30 19 1 2 20
M  V30 20 1 2 21
M  V30 21 1 3 22
M  V30 22 1 3 23
M  V30 23 1 4 24
M  V30 24 1 7 25
M  V30 25 1 8 26
M  V30 26 1 8 27
M  V30 27 1 9 28
M  V30 28 1 9 29
M  V30 29 1 14 30
M  V30 30 1 15 31
M  V30 31 1 15 32
M  V30 32 1 16 33
M  V30 33 1 16 34
M  V30 34 1 17 35
M  V30 35 1 17 36
M  V30 END BOND
M  V30 END CTAB
M  END
