
     RDKit          3D

  0  0  0  0  0  0  0  0  0  0999 V3000
M  V30 BEGIN CTAB
M  V30 COUNTS 52 56 0 0 0
M  V30 BEGIN ATOM
M  V30 1 N 2.99764 -0.941203 -0.706932 0
M  V30 2 C 2.37586 -0.463993 0.428487 0 CFG=2
M  V30 3 C 0.869735 -0.477592 0.208184 0
M  V30 4 O 0.500813 -1.82235 -0.042773 0
M  V30 5 C -0.808938 -2.20548 -0.286339 0
M  V30 6 C -1.03859 -3.54347 -0.516407 0
M  V30 7 N -2.28861 -3.96771 -0.757318 0
M  V30 8 C -3.30603 -3.10481 -0.77533 0
M  V30 9 C -3.15375 -1.74993 -0.554029 0
M  V30 10 C -1.865 -1.30654 -0.30467 0
M  V30 11 C -4.30332 -0.831171 -0.581023 0
M  V30 12 C -5.38847 -1.05995 -1.4006 0
M  V30 13 C -6.4708 -0.204259 -1.4349 0
M  V30 14 C -6.51779 0.928223 -0.645067 0
M  V30 15 C -7.45422 1.94182 -0.477954 0
M  V30 16 N -8.70594 2.0663 -1.14293 0
M  V30 17 N -6.9082 2.76214 0.443434 0
M  V30 18 N -5.73178 2.30503 0.822588 0
M  V30 19 C -5.43183 1.16318 0.179198 0
M  V30 20 C -4.3449 0.297278 0.209051 0
M  V30 21 C 2.87161 0.863007 0.869178 0
M  V30 22 C 4.3193 0.798887 1.16705 0
M  V30 23 C 4.89785 0.55913 2.42217 0
M  V30 24 N 6.22298 0.51612 2.34694 0
M  V30 25 C 6.51743 0.727471 1.04888 0
M  V30 26 C 7.7922 0.782203 0.486729 0
M  V30 27 C 7.8595 1.02433 -0.857262 0
M  V30 28 C 6.75243 1.2109 -1.65194 0
M  V30 29 C 5.48942 1.15087 -1.0648 0
M  V30 30 C 5.38459 0.905325 0.29599 0
M  V30 31 H 3.40601 -1.84761 -0.660328 0
M  V30 32 H 2.79744 -0.483191 -1.55187 0
M  V30 33 H 2.53748 -1.16497 1.30636 0
M  V30 34 H 0.315386 -0.0703108 1.06669 0
M  V30 35 H 0.612577 0.0947847 -0.721648 0
M  V30 36 H -0.233732 -4.26778 -0.508208 0
M  V30 37 H -4.32525 -3.46 -0.973278 0
M  V30 38 H -1.67274 -0.268331 -0.123916 0
M  V30 39 H -5.38518 -1.93428 -2.03002 0
M  V30 40 H -7.32995 -0.381785 -2.08112 0
M  V30 41 H -9.24155 1.17538 -1.33115 0
M  V30 42 H -9.12201 2.95695 -1.45022 0
M  V30 43 H -5.1248 2.77237 1.525 0
M  V30 44 H -3.5149 0.503911 0.85804 0
M  V30 45 H 2.37651 1.22336 1.80863 0
M  V30 46 H 2.63554 1.63199 0.101493 0
M  V30 47 H 4.30516 0.426758 3.34059 0
M  V30 48 H 6.85777 0.349919 3.15822 0
M  V30 49 H 8.6849 0.636072 1.11051 0
M  V30 50 H 8.85222 1.07085 -1.31834 0
M  V30 51 H 6.83055 1.40382 -2.72273 0
M  V30 52 H 4.60538 1.30836 -1.6409 0
M  V30 END ATOM
M  V30 BEGIN BOND
M  V30 1 1 1 2
M  V30 2 1 2 3
M  V30 3 1 3 4
M  V30 4 1 4 5
M  V30 5 2 5 6
M  V30 6 1 6 7
M  V30 7 2 7 8
M  V30 8 1 8 9
M  V30 9 2 9 10
M  V30 10 1 9 11
M  V30 11 2 11 12
M  V30 12 1 12 13
M  V30 13 2 13 14
M  V30 14 1 14 15
M  V30 15 1 15 16
M  V30 16 2 15 17
M  V30 17 1 17 18
M  V30 18 1 18 19
M  V30 19 2 19 20
M  V30 20 1 2 21
M  V30 21 1 21 22
M  V30 22 2 22 23
M  V30 23 1 23 24
M  V30 24 1 24 25
M  V30 25 2 25 26
M  V30 26 1 26 27
M  V30 27 2 27 28
M  V30 28 1 28 29
M  V30 29 2 29 30
M  V30 30 1 10 5
M  V30 31 1 20 11
M  V30 32 1 30 22
M  V30 33 1 19 14
M  V30 34 1 30 25
M  V30 35 1 1 31
M  V30 36 1 1 32
M  V30 37 1 2 33 CFG=1
M  V30 38 1 3 34
M  V30 39 1 3 35
M  V30 40 1 6 36
M  V30 41 1 8 37
M  V30 42 1 10 38
M  V30 43 1 12 39
M  V30 44 1 13 40
M  V30 45 1 16 41
M  V30 46 1 16 42
M  V30 47 1 18 43
M  V30 48 1 20 44
M  V30 49 1 21 45
M  V30 50 1 21 46
M  V30 51 1 23 47
M  V30 52 1 24 48
M  V30 53 1 26 49
M  V30 54 1 27 50
M  V30 55 1 28 51
M  V30 56 1 29 52
M  V30 END BOND
M  V30 END CTAB
M  END
