
     RDKit          3D

  0  0  0  0  0  0  0  0  0  0999 V3000
M  V30 BEGIN CTAB
M  V30 COUNTS 18 17 0 0 0
M  V30 BEGIN ATOM
M  V30 1 C 2.20761 -0.474751 -0.108684 0
M  V30 2 C 0.879739 -0.313024 0.58438 0
M  V30 3 C -0.175456 0.120188 -0.412893 0 CFG=2
M  V30 4 C -1.5226 0.296953 0.225973 0
M  V30 5 N -1.51499 1.29386 1.26884 0
M  V30 6 N -0.287986 -0.865452 -1.46076 0
M  V30 7 H 2.0153 -0.972319 -1.08021 0
M  V30 8 H 2.88545 -1.11848 0.481533 0
M  V30 9 H 2.71417 0.506783 -0.255389 0
M  V30 10 H 0.966461 0.427923 1.40177 0
M  V30 11 H 0.604784 -1.3048 1.00142 0
M  V30 12 H 0.167021 1.0696 -0.868994 0
M  V30 13 H -2.22231 0.63076 -0.561036 0
M  V30 14 H -1.87569 -0.672641 0.630685 0
M  V30 15 H -0.801541 2.01934 0.995501 0
M  V30 16 H -2.45703 1.72928 1.29653 0
M  V30 17 H -0.491277 -1.80837 -1.06276 0
M  V30 18 H -1.09164 -0.564853 -2.0759 0
M  V30 END ATOM
M  V30 BEGIN BOND
M  V30 1 1 1 2
M  V30 2 1 2 3
M  V30 3 1 3 4
M  V30 4 1 4 5
M  V30 5 1 3 6
M  V30 6 1 1 7
M  V30 7 1 1 8
M  V30 8 1 1 9
M  V30 9 1 2 10
M  V30 10 1 2 11
M  V30 11 1 3 12 CFG=3
M  V30 12 1 4 13
M  V30 13 1 4 14
M  V30 14 1 5 15
M  V30 15 1 5 16
M  V30 16 1 6 17
M  V30 17 1 6 18
M  V30 END BOND
M  V30 END CTAB
M  END
