
     RDKit          3D

  0  0  0  0  0  0  0  0  0  0999 V3000
M  V30 BEGIN CTAB
M  V30 COUNTS 32 33 0 0 0
M  V30 BEGIN ATOM
M  V30 1 C 4.90224 0.91724 -0.781514 0
M  V30 2 C 3.60496 0.177137 -0.374342 0
M  V30 3 C 2.40213 0.850595 -0.994146 0
M  V30 4 C 1.12811 0.264773 -0.531868 0
M  V30 5 N -0.0829993 0.910632 -0.639005 0
M  V30 6 C -1.03906 0.142252 -0.0458256 0
M  V30 7 C -0.393642 -0.97657 0.402898 0
M  V30 8 N 0.929468 -0.879285 0.0951237 0
M  V30 9 N 1.79793 -1.90792 0.406488 0
M  V30 10 N -1.0485 -2.06077 0.976565 0
M  V30 11 C -2.35373 0.64199 0.260573 0
M  V30 12 C -3.3238 0.728074 -0.91806 0
M  V30 13 C -3.63388 0.0118796 0.427236 0
M  V30 14 C -4.68995 0.791007 1.25348 0
M  V30 15 H 5.08133 1.70312 0.0248162 0
M  V30 16 H 4.87156 1.30894 -1.77671 0
M  V30 17 H 5.72011 0.170546 -0.552944 0
M  V30 18 H 3.76235 -0.838829 -0.77796 0
M  V30 19 H 3.57313 0.149968 0.714568 0
M  V30 20 H 2.49727 1.95324 -0.779612 0
M  V30 21 H 2.48865 0.797576 -2.11844 0
M  V30 22 H 2.07153 -2.2099 1.36564 0
M  V30 23 H 2.24287 -2.4913 -0.382148 0
M  V30 24 H -1.2593 -2.88412 0.325122 0
M  V30 25 H -1.32566 -2.19903 1.92825 0
M  V30 26 H -2.29511 1.71454 0.749182 0
M  V30 27 H -3.14463 0.017344 -1.76988 0
M  V30 28 H -3.86962 1.62938 -1.18781 0
M  V30 29 H -3.8597 -1.04569 0.34471 0
M  V30 30 H -4.27297 0.905735 2.28439 0
M  V30 31 H -4.89546 1.75108 0.787987 0
M  V30 32 H -5.58563 0.170969 1.28324 0
M  V30 END ATOM
M  V30 BEGIN BOND
M  V30 1 1 1 2
M  V30 2 1 2 3
M  V30 3 1 3 4
M  V30 4 2 4 5
M  V30 5 1 5 6
M  V30 6 2 6 7
M  V30 7 1 7 8
M  V30 8 1 8 9
M  V30 9 1 7 10
M  V30 10 1 6 11
M  V30 11 1 11 12
M  V30 12 1 12 13
M  V30 13 1 13 14
M  V30 14 1 8 4
M  V30 15 1 13 11
M  V30 16 1 1 15
M  V30 17 1 1 16
M  V30 18 1 1 17
M  V30 19 1 2 18
M  V30 20 1 2 19
M  V30 21 1 3 20
M  V30 22 1 3 21
M  V30 23 1 9 22
M  V30 24 1 9 23
M  V30 25 1 10 24
M  V30 26 1 10 25
M  V30 27 1 11 26
M  V30 28 1 12 27
M  V30 29 1 12 28
M  V30 30 1 13 29
M  V30 31 1 14 30
M  V30 32 1 14 31
M  V30 33 1 14 32
M  V30 END BOND
M  V30 END CTAB
M  END
