
     RDKit          3D

  0  0  0  0  0  0  0  0  0  0999 V3000
M  V30 BEGIN CTAB
M  V30 COUNTS 16 16 0 0 0
M  V30 BEGIN ATOM
M  V30 1 N 2.62856 -0.479058 0.0153114 0
M  V30 2 C 1.25723 -0.0352811 -0.00694416 0
M  V30 3 C 0.208786 -0.940312 0.0713624 0
M  V30 4 C -1.1126 -0.525737 0.0508929 0
M  V30 5 N -2.15553 -1.47626 0.132641 0
M  V30 6 C -1.3363 0.834325 -0.0514034 0
M  V30 7 C -0.319061 1.76275 -0.13124 0
M  V30 8 C 0.989321 1.30998 -0.107733 0
M  V30 9 F -0.550429 3.0959 -0.231433 0
M  V30 10 Cl -3.00112 1.38622 -0.0794735 0
M  V30 11 H 2.91445 -1.30914 0.585981 0
M  V30 12 H 3.34373 0.0452238 -0.55303 0
M  V30 13 H 0.393618 -1.99813 0.150826 0
M  V30 14 H -3.0803 -1.23442 0.534098 0
M  V30 15 H -2.01655 -2.44727 -0.211166 0
M  V30 16 H 1.8362 2.01122 -0.16869 0
M  V30 END ATOM
M  V30 BEGIN BOND
M  V30 1 1 1 2
M  V30 2 2 2 3
M  V30 3 1 3 4
M  V30 4 1 4 5
M  V30 5 2 4 6
M  V30 6 1 6 7
M  V30 7 2 7 8
M  V30 8 1 7 9
M  V30 9 1 6 10
M  V30 10 1 8 2
M  V30 11 1 1 11
M  V30 12 1 1 12
M  V30 13 1 3 13
M  V30 14 1 5 14
M  V30 15 1 5 15
M  V30 16 1 8 16
M  V30 END BOND
M  V30 END CTAB
M  END
