
     RDKit          3D

  0  0  0  0  0  0  0  0  0  0999 V3000
M  V30 BEGIN CTAB
M  V30 COUNTS 40 42 0 0 0
M  V30 BEGIN ATOM
M  V30 1 N -7.08137 -1.36442 -1.97036 0
M  V30 2 C -6.15191 -0.530384 -1.27727 0
M  V30 3 N -4.88409 -0.956925 -1.08467 0
M  V30 4 C -3.97984 -0.200413 -0.436792 0
M  V30 5 C -2.58602 -0.688192 -0.234136 0
M  V30 6 O -1.85259 0.295569 0.469697 0
M  V30 7 C -0.506493 0.0379411 0.768143 0
M  V30 8 C 0.265269 0.9535 1.45117 0
M  V30 9 C 1.60221 0.68894 1.74341 0
M  V30 10 C 2.19778 -0.493387 1.36109 0
M  V30 11 C 1.42718 -1.40892 0.678442 0
M  V30 12 C 0.0879998 -1.14489 0.385245 0
M  V30 13 C 3.60319 -0.740665 1.68311 0
M  V30 14 C 4.54138 -0.275751 0.639443 0
M  V30 15 C 5.08558 0.987581 0.616928 0
M  V30 16 C 5.96688 1.38623 -0.385817 0
M  V30 17 C 6.31661 0.510044 -1.39051 0
M  V30 18 C 5.78259 -0.748012 -1.3792 0
M  V30 19 C 4.90975 -1.12854 -0.37769 0
M  V30 20 N -4.37927 1.00762 0.0192435 0
M  V30 21 C -5.63619 1.45971 -0.157639 0
M  V30 22 N -6.5062 0.669444 -0.811013 0
M  V30 23 N -6.08687 2.72007 0.307492 0
M  V30 24 H -6.82785 -1.65056 -2.94025 0
M  V30 25 H -7.96986 -1.66263 -1.50684 0
M  V30 26 H -2.09188 -0.834174 -1.23207 0
M  V30 27 H -2.61452 -1.6333 0.345871 0
M  V30 28 H -0.180127 1.89051 1.76251 0
M  V30 29 H 2.19512 1.41659 2.27983 0
M  V30 30 H 1.88569 -2.35106 0.368745 0
M  V30 31 H -0.513301 -1.85429 -0.145026 0
M  V30 32 H 3.92058 -0.221955 2.6351 0
M  V30 33 H 3.78993 -1.81743 1.87521 0
M  V30 34 H 4.82108 1.69614 1.40371 0
M  V30 35 H 6.40421 2.37467 -0.419629 0
M  V30 36 H 7.0028 0.787568 -2.19053 0
M  V30 37 H 6.04757 -1.45473 -2.16556 0
M  V30 38 H 4.50534 -2.12087 -0.392381 0
M  V30 39 H -6.78285 3.28673 -0.241745 0
M  V30 40 H -5.72753 3.11265 1.22051 0
M  V30 END ATOM
M  V30 BEGIN BOND
M  V30 1 1 1 2
M  V30 2 2 2 3
M  V30 3 1 3 4
M  V30 4 1 4 5
M  V30 5 1 5 6
M  V30 6 1 6 7
M  V30 7 2 7 8
M  V30 8 1 8 9
M  V30 9 2 9 10
M  V30 10 1 10 11
M  V30 11 2 11 12
M  V30 12 1 10 13
M  V30 13 1 13 14
M  V30 14 2 14 15
M  V30 15 1 15 16
M  V30 16 2 16 17
M  V30 17 1 17 18
M  V30 18 2 18 19
M  V30 19 2 4 20
M  V30 20 1 20 21
M  V30 21 2 21 22
M  V30 22 1 21 23
M  V30 23 1 22 2
M  V30 24 1 12 7
M  V30 25 1 19 14
M  V30 26 1 1 24
M  V30 27 1 1 25
M  V30 28 1 5 26
M  V30 29 1 5 27
M  V30 30 1 8 28
M  V30 31 1 9 29
M  V30 32 1 11 30
M  V30 33 1 12 31
M  V30 34 1 13 32
M  V30 35 1 13 33
M  V30 36 1 15 34
M  V30 37 1 16 35
M  V30 38 1 17 36
M  V30 39 1 18 37
M  V30 40 1 19 38
M  V30 41 1 23 39
M  V30 42 1 23 40
M  V30 END BOND
M  V30 END CTAB
M  END
