
     RDKit          3D

  0  0  0  0  0  0  0  0  0  0999 V3000
M  V30 BEGIN CTAB
M  V30 COUNTS 30 30 0 0 0
M  V30 BEGIN ATOM
M  V30 1 C -5.07655 0.335347 -0.424922 0
M  V30 2 C -3.75392 0.0626895 -1.04753 0
M  V30 3 C -2.67118 0.237686 -0.00571264 0
M  V30 4 C -2.98591 0.576395 1.2077 0
M  V30 5 C -1.27795 0.00362143 -0.452269 0
M  V30 6 N -0.311432 0.180962 0.560291 0
M  V30 7 C 1.10634 -0.00839862 0.295883 0
M  V30 8 C 1.53835 -0.367472 -0.958053 0
M  V30 9 C 2.87914 -0.553868 -1.23648 0
M  V30 10 C 3.79437 -0.371 -0.219156 0
M  V30 11 C 3.34499 -0.00701432 1.0481 0
M  V30 12 N 2.02598 0.159299 1.25562 0
M  V30 13 N 4.31145 0.17345 2.07317 0
M  V30 14 N 5.17712 -0.561728 -0.500456 0
M  V30 15 H -5.3192 -0.335951 0.404705 0
M  V30 16 H -5.14507 1.38484 -0.040489 0
M  V30 17 H -5.91557 0.207446 -1.17633 0
M  V30 18 H -3.72695 -0.945581 -1.4625 0
M  V30 19 H -3.55844 0.864736 -1.79909 0
M  V30 20 H -2.29813 0.723204 2.00824 0
M  V30 21 H -4.04572 0.736645 1.47815 0
M  V30 22 H -1.27685 -1.08276 -0.794607 0
M  V30 23 H -1.05977 0.5902 -1.38425 0
M  V30 24 H -0.550857 0.447776 1.51906 0
M  V30 25 H 0.815215 -0.513263 -1.76693 0
M  V30 26 H 3.23701 -0.835901 -2.21519 0
M  V30 27 H 4.20742 0.890984 2.81923 0
M  V30 28 H 5.15659 -0.43507 2.07902 0
M  V30 29 H 5.60441 0.00961759 -1.28435 0
M  V30 30 H 5.77513 -1.22412 0.0191451 0
M  V30 END ATOM
M  V30 BEGIN BOND
M  V30 1 1 1 2
M  V30 2 1 2 3
M  V30 3 2 3 4 CFG=2
M  V30 4 1 3 5
M  V30 5 1 5 6
M  V30 6 1 6 7
M  V30 7 2 7 8
M  V30 8 1 8 9
M  V30 9 2 9 10
M  V30 10 1 10 11
M  V30 11 2 11 12
M  V30 12 1 11 13
M  V30 13 1 10 14
M  V30 14 1 12 7
M  V30 15 1 1 15
M  V30 16 1 1 16
M  V30 17 1 1 17
M  V30 18 1 2 18
M  V30 19 1 2 19
M  V30 20 1 4 20
M  V30 21 1 4 21
M  V30 22 1 5 22
M  V30 23 1 5 23
M  V30 24 1 6 24
M  V30 25 1 8 25
M  V30 26 1 9 26
M  V30 27 1 13 27
M  V30 28 1 13 28
M  V30 29 1 14 29
M  V30 30 1 14 30
M  V30 END BOND
M  V30 END CTAB
M  END
