
     RDKit          3D

  0  0  0  0  0  0  0  0  0  0999 V3000
M  V30 BEGIN CTAB
M  V30 COUNTS 21 20 0 0 0
M  V30 BEGIN ATOM
M  V30 1 N 4.1215 0.419011 -0.355649 0
M  V30 2 N 2.77577 0.758645 -0.304404 0
M  V30 3 C 1.7972 -0.242045 -0.164785 0
M  V30 4 O 2.13362 -1.45578 -0.084969 0
M  V30 5 C 0.368192 0.17028 -0.114623 0
M  V30 6 C -0.546592 -1.04074 0.038645 0
M  V30 7 O -0.316507 -1.84227 -1.06459 0
M  V30 8 C -1.94795 -0.489293 -0.00782801 0
M  V30 9 O -2.7217 -0.77337 -0.953008 0
M  V30 10 N -2.42556 0.366689 1.02004 0
M  V30 11 N -3.7142 0.859455 0.954903 0
M  V30 12 H 4.71682 1.17495 -0.751146 0
M  V30 13 H 4.44936 0.191112 0.622405 0
M  V30 14 H 2.50609 1.74915 -0.369805 0
M  V30 15 H 0.0895607 0.7275 -1.01103 0
M  V30 16 H 0.218309 0.793115 0.793741 0
M  V30 17 H -0.347275 -1.58952 0.960617 0
M  V30 18 H -1.20236 -2.0907 -1.43218 0
M  V30 19 H -1.76329 0.604722 1.82106 0
M  V30 20 H -3.83096 1.64644 0.291626 0
M  V30 21 H -4.36003 0.0626553 0.80168 0
M  V30 END ATOM
M  V30 BEGIN BOND
M  V30 1 1 1 2
M  V30 2 1 2 3
M  V30 3 2 3 4
M  V30 4 1 3 5
M  V30 5 1 5 6
M  V30 6 1 6 7
M  V30 7 1 6 8
M  V30 8 2 8 9
M  V30 9 1 8 10
M  V30 10 1 10 11
M  V30 11 1 1 12
M  V30 12 1 1 13
M  V30 13 1 2 14
M  V30 14 1 5 15
M  V30 15 1 5 16
M  V30 16 1 6 17
M  V30 17 1 7 18
M  V30 18 1 10 19
M  V30 19 1 11 20
M  V30 20 1 11 21
M  V30 END BOND
M  V30 END CTAB
M  END
