
     RDKit          3D

  0  0  0  0  0  0  0  0  0  0999 V3000
M  V30 BEGIN CTAB
M  V30 COUNTS 44 45 0 0 0
M  V30 BEGIN ATOM
M  V30 1 N -3.12234 2.0211 2.09835 0
M  V30 2 C -3.07768 1.62553 0.700845 0
M  V30 3 C -4.47054 1.28297 0.277458 0
M  V30 4 C -4.45607 -0.00749662 -0.503402 0
M  V30 5 C -3.36285 0.102207 -1.54239 0
M  V30 6 N -2.08935 0.0565819 -0.84908 0
M  V30 7 C -2.09958 0.472495 0.537985 0
M  V30 8 C -0.91149 -0.382228 -1.53638 0
M  V30 9 O -1.02259 -0.718481 -2.73996 0
M  V30 10 N 0.354707 -0.448931 -0.915288 0
M  V30 11 C 1.49303 -0.889634 -1.63709 0
M  V30 12 C 2.76669 -0.885777 -0.781441 0
M  V30 13 N 3.80414 -1.37062 -1.71905 0
M  V30 14 C 2.67669 -1.87408 0.305053 0
M  V30 15 C 2.50445 -1.37408 1.68579 0
M  V30 16 C 3.28698 -0.145683 2.01859 0
M  V30 17 C 2.98235 0.893681 0.998426 0
M  V30 18 C 3.16183 0.499329 -0.410747 0
M  V30 19 H -3.29829 3.04504 2.12882 0
M  V30 20 H -2.21889 1.7871 2.55192 0
M  V30 21 H -2.72857 2.49022 0.110862 0
M  V30 22 H -5.17415 1.17344 1.13152 0
M  V30 23 H -4.92583 2.09015 -0.367659 0
M  V30 24 H -4.33235 -0.880324 0.160391 0
M  V30 25 H -5.41774 -0.0983758 -1.02573 0
M  V30 26 H -3.51849 1.01621 -2.11652 0
M  V30 27 H -3.46156 -0.795171 -2.20869 0
M  V30 28 H -1.12394 0.845886 0.874768 0
M  V30 29 H -2.46197 -0.3969 1.12531 0
M  V30 30 H 0.433588 -0.169502 0.0793346 0
M  V30 31 H 1.70036 -0.124991 -2.44002 0
M  V30 32 H 1.37769 -1.89806 -2.07733 0
M  V30 33 H 3.7029 -0.855198 -2.62678 0
M  V30 34 H 3.74458 -2.39628 -1.80916 0
M  V30 35 H 3.55169 -2.59068 0.308907 0
M  V30 36 H 1.80155 -2.55609 0.0846738 0
M  V30 37 H 1.42167 -1.24013 1.98058 0
M  V30 38 H 2.85638 -2.17493 2.40233 0
M  V30 39 H 4.34871 -0.390901 2.09866 0
M  V30 40 H 2.90768 0.232756 3.00494 0
M  V30 41 H 1.96346 1.3055 1.18652 0
M  V30 42 H 3.66736 1.76662 1.21541 0
M  V30 43 H 4.2211 0.753534 -0.715744 0
M  V30 44 H 2.54471 1.2042 -1.04498 0
M  V30 END ATOM
M  V30 BEGIN BOND
M  V30 1 1 1 2
M  V30 2 1 2 3
M  V30 3 1 3 4
M  V30 4 1 4 5
M  V30 5 1 5 6
M  V30 6 1 6 7
M  V30 7 1 6 8
M  V30 8 2 8 9
M  V30 9 1 8 10
M  V30 10 1 10 11
M  V30 11 1 11 12
M  V30 12 1 12 13
M  V30 13 1 12 14
M  V30 14 1 14 15
M  V30 15 1 15 16
M  V30 16 1 16 17
M  V30 17 1 17 18
M  V30 18 1 7 2
M  V30 19 1 18 12
M  V30 20 1 1 19
M  V30 21 1 1 20
M  V30 22 1 2 21
M  V30 23 1 3 22
M  V30 24 1 3 23
M  V30 25 1 4 24
M  V30 26 1 4 25
M  V30 27 1 5 26
M  V30 28 1 5 27
M  V30 29 1 7 28
M  V30 30 1 7 29
M  V30 31 1 10 30
M  V30 32 1 11 31
M  V30 33 1 11 32
M  V30 34 1 13 33
M  V30 35 1 13 34
M  V30 36 1 14 35
M  V30 37 1 14 36
M  V30 38 1 15 37
M  V30 39 1 15 38
M  V30 40 1 16 39
M  V30 41 1 16 40
M  V30 42 1 17 41
M  V30 43 1 17 42
M  V30 44 1 18 43
M  V30 45 1 18 44
M  V30 END BOND
M  V30 END CTAB
M  END
