
     RDKit          3D

  0  0  0  0  0  0  0  0  0  0999 V3000
M  V30 BEGIN CTAB
M  V30 COUNTS 47 49 0 0 0
M  V30 BEGIN ATOM
M  V30 1 C -3.32677 0.175242 -2.45453 0
M  V30 2 C -3.512 1.2467 -1.40972 0
M  V30 3 C -4.04746 0.609428 -0.188504 0
M  V30 4 N -5.35793 0.695361 0.116167 0
M  V30 5 C -5.88208 0.128685 1.2212 0
M  V30 6 N -7.2864 0.246545 1.50098 0
M  V30 7 N -5.06105 -0.548575 2.04947 0
M  V30 8 C -3.74318 -0.681634 1.81837 0
M  V30 9 N -2.83761 -1.37357 2.65819 0
M  V30 10 C -3.22994 -0.0817595 0.662727 0
M  V30 11 C -1.81316 -0.230365 0.410194 0
M  V30 12 C -1.23587 -1.29377 -0.216935 0
M  V30 13 C 0.151825 -1.39736 -0.446267 0
M  V30 14 C 0.98258 -0.396652 -0.028604 0
M  V30 15 N 2.41861 -0.420331 -0.180599 0
M  V30 16 C 3.15443 0.750546 0.262592 0
M  V30 17 C 4.59885 0.652105 0.0874352 0
M  V30 18 C 5.17443 -0.147879 -0.86361 0
M  V30 19 C 6.5567 -0.215485 -0.990434 0
M  V30 20 C 7.36289 0.513391 -0.170448 0
M  V30 21 Cl 9.10147 0.444576 -0.311245 0
M  V30 22 C 6.82539 1.34014 0.810346 0
M  V30 23 Cl 7.76459 2.30511 1.90139 0
M  V30 24 C 5.4357 1.37868 0.903132 0
M  V30 25 C 0.404531 0.700402 0.615587 0
M  V30 26 C -0.950266 0.78187 0.828522 0
M  V30 27 N 0.652434 -2.53787 -1.09629 0 CHG=1
M  V30 28 O 1.7597 -2.63197 -1.87848 0 CHG=-1
M  V30 29 O -0.0170856 -3.60749 -0.921465 0
M  V30 30 H -2.28143 0.113592 -2.84682 0
M  V30 31 H -3.92643 0.50311 -3.34668 0
M  V30 32 H -3.65069 -0.800185 -2.08695 0
M  V30 33 H -4.18977 2.06423 -1.74763 0
M  V30 34 H -2.50208 1.69818 -1.2427 0
M  V30 35 H -7.92542 0.0764191 0.695983 0
M  V30 36 H -7.686 0.479236 2.41214 0
M  V30 37 H -2.31357 -2.20104 2.30092 0
M  V30 38 H -2.65646 -1.09665 3.64736 0
M  V30 39 H -1.86116 -2.10581 -0.561074 0
M  V30 40 H 2.95462 -1.20125 -0.560029 0
M  V30 41 H 2.97617 0.808065 1.37994 0
M  V30 42 H 2.72312 1.68697 -0.160059 0
M  V30 43 H 4.60477 -0.748206 -1.55138 0
M  V30 44 H 6.97318 -0.854031 -1.74624 0
M  V30 45 H 4.9861 2.01149 1.65637 0
M  V30 46 H 1.0592 1.50699 0.958986 0
M  V30 47 H -1.32747 1.65482 1.3287 0
M  V30 END ATOM
M  V30 BEGIN BOND
M  V30 1 1 1 2
M  V30 2 1 2 3
M  V30 3 2 3 4
M  V30 4 1 4 5
M  V30 5 1 5 6
M  V30 6 2 5 7
M  V30 7 1 7 8
M  V30 8 1 8 9
M  V30 9 2 8 10
M  V30 10 1 10 11
M  V30 11 2 11 12
M  V30 12 1 12 13
M  V30 13 2 13 14
M  V30 14 1 14 15
M  V30 15 1 15 16
M  V30 16 1 16 17
M  V30 17 2 17 18
M  V30 18 1 18 19
M  V30 19 2 19 20
M  V30 20 1 20 21
M  V30 21 1 20 22
M  V30 22 1 22 23
M  V30 23 2 22 24
M  V30 24 1 14 25
M  V30 25 2 25 26
M  V30 26 1 13 27
M  V30 27 1 27 28
M  V30 28 2 27 29
M  V30 29 1 10 3
M  V30 30 1 26 11
M  V30 31 1 24 17
M  V30 32 1 1 30
M  V30 33 1 1 31
M  V30 34 1 1 32
M  V30 35 1 2 33
M  V30 36 1 2 34
M  V30 37 1 6 35
M  V30 38 1 6 36
M  V30 39 1 9 37
M  V30 40 1 9 38
M  V30 41 1 12 39
M  V30 42 1 15 40
M  V30 43 1 16 41
M  V30 44 1 16 42
M  V30 45 1 18 43
M  V30 46 1 19 44
M  V30 47 1 24 45
M  V30 48 1 25 46
M  V30 49 1 26 47
M  V30 END BOND
M  V30 END CTAB
M  END
