
     RDKit          3D

  0  0  0  0  0  0  0  0  0  0999 V3000
M  V30 BEGIN CTAB
M  V30 COUNTS 38 39 0 0 0
M  V30 BEGIN ATOM
M  V30 1 N -6.56591 -2.0038 0.302881 0
M  V30 2 N -6.16689 -0.876623 -0.412831 0
M  V30 3 C -4.86835 -0.679785 -0.910118 0
M  V30 4 O -4.01387 -1.57236 -0.697981 0
M  V30 5 C -4.46797 0.527804 -1.66862 0
M  V30 6 O -3.11006 0.598208 -1.98224 0
M  V30 7 C -2.04885 0.689635 -1.09624 0
M  V30 8 C -0.745577 0.724022 -1.54648 0
M  V30 9 C 0.322353 0.818701 -0.656071 0
M  V30 10 C 1.58639 0.846253 -1.19203 0
M  V30 11 C 2.70901 0.939903 -0.360192 0
M  V30 12 O 3.97073 0.969484 -0.930434 0
M  V30 13 C 5.14051 1.02963 -0.175003 0
M  V30 14 C 5.41023 -0.151844 0.674387 0
M  V30 15 O 6.36854 -0.0618056 1.48793 0
M  V30 16 N 4.67894 -1.3605 0.633849 0
M  V30 17 N 5.06507 -2.3993 1.51752 0
M  V30 18 C 2.46087 1.0013 0.994907 0
M  V30 19 C 1.19464 0.974139 1.54774 0
M  V30 20 C 0.117937 0.881518 0.705541 0
M  V30 21 C -1.17945 0.848431 1.16753 0
M  V30 22 C -2.22645 0.754574 0.268111 0
M  V30 23 H -6.47456 -1.85844 1.32192 0
M  V30 24 H -7.55266 -2.22759 0.0950028 0
M  V30 25 H -6.9222 -0.146436 -0.569318 0
M  V30 26 H -4.81662 1.45809 -1.12427 0
M  V30 27 H -5.03885 0.482981 -2.62415 0
M  V30 28 H -0.566922 0.675636 -2.6137 0
M  V30 29 H 1.74257 0.796797 -2.2575 0
M  V30 30 H 6.03686 1.27082 -0.824501 0
M  V30 31 H 5.12639 1.90852 0.543106 0
M  V30 32 H 3.86865 -1.54777 -0.0172547 0
M  V30 33 H 5.54265 -3.13314 0.947351 0
M  V30 34 H 5.64054 -2.04374 2.29126 0
M  V30 35 H 3.31701 1.09129 1.67435 0
M  V30 36 H 1.04392 1.02308 2.59837 0
M  V30 37 H -1.32943 0.897462 2.22231 0
M  V30 38 H -3.2492 0.748675 0.664858 0
M  V30 END ATOM
M  V30 BEGIN BOND
M  V30 1 1 1 2
M  V30 2 1 2 3
M  V30 3 2 3 4
M  V30 4 1 3 5
M  V30 5 1 5 6
M  V30 6 1 6 7
M  V30 7 2 7 8
M  V30 8 1 8 9
M  V30 9 2 9 10
M  V30 10 1 10 11
M  V30 11 1 11 12
M  V30 12 1 12 13
M  V30 13 1 13 14
M  V30 14 2 14 15
M  V30 15 1 14 16
M  V30 16 1 16 17
M  V30 17 2 11 18
M  V30 18 1 18 19
M  V30 19 2 19 20
M  V30 20 1 20 21
M  V30 21 2 21 22
M  V30 22 1 22 7
M  V30 23 1 20 9
M  V30 24 1 1 23
M  V30 25 1 1 24
M  V30 26 1 2 25
M  V30 27 1 5 26
M  V30 28 1 5 27
M  V30 29 1 8 28
M  V30 30 1 10 29
M  V30 31 1 13 30
M  V30 32 1 13 31
M  V30 33 1 16 32
M  V30 34 1 17 33
M  V30 35 1 17 34
M  V30 36 1 18 35
M  V30 37 1 19 36
M  V30 38 1 21 37
M  V30 39 1 22 38
M  V30 END BOND
M  V30 END CTAB
M  END
