
     RDKit          3D

  0  0  0  0  0  0  0  0  0  0999 V3000
M  V30 BEGIN CTAB
M  V30 COUNTS 58 61 0 0 0
M  V30 BEGIN ATOM
M  V30 1 C 8.25145 0.460387 -1.01927 0
M  V30 2 C 8.17447 1.16342 0.29412 0
M  V30 3 N 6.94907 0.847224 1.00526 0
M  V30 4 C 5.66484 1.12685 0.471752 0
M  V30 5 O 5.61748 1.66949 -0.662021 0
M  V30 6 C 4.44307 0.784523 1.23745 0 CFG=1
M  V30 7 O 3.30445 1.12562 0.569473 0
M  V30 8 C 2.34737 0.169925 0.746047 0 CFG=2
M  V30 9 C 2.8841 -0.922598 1.60773 0 CFG=2
M  V30 10 O 2.46816 -0.748423 2.93373 0
M  V30 11 C 4.3733 -0.683096 1.57148 0 CFG=2
M  V30 12 O 4.94036 -0.911385 2.84299 0
M  V30 13 N 1.84013 -0.363832 -0.514957 0
M  V30 14 C 2.52478 -0.849736 -1.54964 0
M  V30 15 N 1.71939 -1.25435 -2.54719 0
M  V30 16 C 0.466231 -1.01384 -2.12542 0
M  V30 17 C 0.535849 -0.464389 -0.87201 0
M  V30 18 N -0.618104 -0.143412 -0.257889 0
M  V30 19 C -1.81272 -0.349332 -0.843155 0
M  V30 20 N -1.85435 -0.895257 -2.08581 0
M  V30 21 C -0.74607 -1.24127 -2.76125 0
M  V30 22 N -0.777676 -1.81218 -4.05963 0
M  V30 23 C -3.0465 -0.00533301 -0.184679 0
M  V30 24 C -4.09338 0.270587 0.362848 0
M  V30 25 C -5.37321 0.585201 1.02274 0
M  V30 26 N -5.06826 1.07243 2.34894 0
M  V30 27 C -6.1236 1.67294 0.274418 0
M  V30 28 C -6.8536 1.09439 -0.914688 0
M  V30 29 C -7.87986 0.0740664 -0.496505 0
M  V30 30 C -7.6721 -0.406847 0.926718 0
M  V30 31 C -6.19041 -0.671091 1.11892 0
M  V30 32 H 9.12588 -0.185773 -1.03935 0
M  V30 33 H 7.28936 -0.0844606 -1.16928 0
M  V30 34 H 8.32005 1.16658 -1.88521 0
M  V30 35 H 8.17426 2.26655 0.127665 0
M  V30 36 H 9.03821 0.903707 0.93283 0
M  V30 37 H 6.98911 0.395667 1.94868 0
M  V30 38 H 4.43856 1.33512 2.22245 0
M  V30 39 H 1.49057 0.643791 1.29109 0
M  V30 40 H 2.61512 -1.92933 1.22619 0
M  V30 41 H 2.79642 -1.44686 3.52239 0
M  V30 42 H 4.90472 -1.32317 0.869122 0
M  V30 43 H 5.74645 -1.47795 2.78862 0
M  V30 44 H 3.60132 -0.920763 -1.60438 0
M  V30 45 H -1.2854 -1.37442 -4.85701 0
M  V30 46 H -0.279528 -2.69757 -4.22901 0
M  V30 47 H -5.20083 0.278922 3.04439 0
M  V30 48 H -5.80554 1.77472 2.59776 0
M  V30 49 H -6.78662 2.25189 0.937171 0
M  V30 50 H -5.36194 2.38099 -0.115984 0
M  V30 51 H -7.35988 1.91426 -1.44883 0
M  V30 52 H -6.07566 0.650311 -1.5891 0
M  V30 53 H -8.90524 0.47148 -0.651885 0
M  V30 54 H -7.77168 -0.792081 -1.18451 0
M  V30 55 H -8.1731 -1.40154 1.00206 0
M  V30 56 H -8.04533 0.297265 1.67412 0
M  V30 57 H -5.86355 -1.35324 0.299973 0
M  V30 58 H -6.0104 -1.12476 2.11847 0
M  V30 END ATOM
M  V30 BEGIN BOND
M  V30 1 1 1 2
M  V30 2 1 2 3
M  V30 3 1 3 4
M  V30 4 2 4 5
M  V30 5 1 4 6
M  V30 6 1 6 7
M  V30 7 1 7 8
M  V30 8 1 8 9
M  V30 9 1 9 10
M  V30 10 1 9 11
M  V30 11 1 11 12
M  V30 12 1 8 13
M  V30 13 1 13 14
M  V30 14 2 14 15
M  V30 15 1 15 16
M  V30 16 2 16 17
M  V30 17 1 17 18
M  V30 18 2 18 19
M  V30 19 1 19 20
M  V30 20 2 20 21
M  V30 21 1 21 22
M  V30 22 1 19 23
M  V30 23 3 23 24
M  V30 24 1 24 25
M  V30 25 1 25 26
M  V30 26 1 25 27
M  V30 27 1 27 28
M  V30 28 1 28 29
M  V30 29 1 29 30
M  V30 30 1 30 31
M  V30 31 1 11 6
M  V30 32 1 17 13
M  V30 33 1 31 25
M  V30 34 1 21 16
M  V30 35 1 1 32
M  V30 36 1 1 33
M  V30 37 1 1 34
M  V30 38 1 2 35
M  V30 39 1 2 36
M  V30 40 1 3 37
M  V30 41 1 6 38 CFG=1
M  V30 42 1 8 39 CFG=1
M  V30 43 1 9 40 CFG=3
M  V30 44 1 10 41
M  V30 45 1 11 42 CFG=3
M  V30 46 1 12 43
M  V30 47 1 14 44
M  V30 48 1 22 45
M  V30 49 1 22 46
M  V30 50 1 26 47
M  V30 51 1 26 48
M  V30 52 1 27 49
M  V30 53 1 27 50
M  V30 54 1 28 51
M  V30 55 1 28 52
M  V30 56 1 29 53
M  V30 57 1 29 54
M  V30 58 1 30 55
M  V30 59 1 30 56
M  V30 60 1 31 57
M  V30 61 1 31 58
M  V30 END BOND
M  V30 END CTAB
M  END
