
     RDKit          3D

  0  0  0  0  0  0  0  0  0  0999 V3000
M  V30 BEGIN CTAB
M  V30 COUNTS 22 22 0 0 0
M  V30 BEGIN ATOM
M  V30 1 N 3.52652 -0.313748 0.915322 0
M  V30 2 C 3.10898 0.449363 -0.246395 0
M  V30 3 C 1.63439 0.710555 -0.172829 0
M  V30 4 N 0.84956 -0.499514 -0.139566 0
M  V30 5 C -0.554343 -0.405553 -0.07012 0
M  V30 6 C -1.16931 0.821655 -0.03448 0
M  V30 7 N -2.5149 0.924752 0.0321143 0
M  V30 8 C -3.27255 -0.184206 0.0644636 0
M  V30 9 N -2.70528 -1.38243 0.0313027 0
M  V30 10 C -1.35258 -1.52597 -0.0358194 0
M  V30 11 N -4.70474 -0.0342271 0.135489 0
M  V30 12 H 4.48468 -0.697672 0.814005 0
M  V30 13 H 3.48394 0.341785 1.72787 0
M  V30 14 H 3.40828 -0.0184848 -1.1925 0
M  V30 15 H 3.62441 1.43014 -0.195569 0
M  V30 16 H 1.31394 1.26942 -1.08625 0
M  V30 17 H 1.41906 1.29007 0.752841 0
M  V30 18 H 1.30157 -1.44352 -0.165964 0
M  V30 19 H -0.542379 1.72463 -0.0613044 0
M  V30 20 H -0.887818 -2.50046 -0.0629385 0
M  V30 21 H -5.30506 -0.469621 -0.571595 0
M  V30 22 H -5.14637 0.513034 0.89829 0
M  V30 END ATOM
M  V30 BEGIN BOND
M  V30 1 1 1 2
M  V30 2 1 2 3
M  V30 3 1 3 4
M  V30 4 1 4 5
M  V30 5 2 5 6
M  V30 6 1 6 7
M  V30 7 2 7 8
M  V30 8 1 8 9
M  V30 9 2 9 10
M  V30 10 1 8 11
M  V30 11 1 10 5
M  V30 12 1 1 12
M  V30 13 1 1 13
M  V30 14 1 2 14
M  V30 15 1 2 15
M  V30 16 1 3 16
M  V30 17 1 3 17
M  V30 18 1 4 18
M  V30 19 1 6 19
M  V30 20 1 10 20
M  V30 21 1 11 21
M  V30 22 1 11 22
M  V30 END BOND
M  V30 END CTAB
M  END
