
     RDKit          3D

  0  0  0  0  0  0  0  0  0  0999 V3000
M  V30 BEGIN CTAB
M  V30 COUNTS 34 34 0 0 0
M  V30 BEGIN ATOM
M  V30 1 N 2.52327 -0.611107 1.50452 0
M  V30 2 C 2.57189 -0.567126 0.0808094 0
M  V30 3 C 1.22686 -0.144739 -0.535859 0
M  V30 4 N 1.49154 -0.163386 -1.99194 0
M  V30 5 C 0.872256 1.24465 -0.197617 0
M  V30 6 C -0.47896 1.47708 0.379197 0
M  V30 7 C -0.907592 2.9149 0.123327 0
M  V30 8 C -1.48074 0.6103 -0.308634 0
M  V30 9 C -1.15021 -0.822501 0.018484 0
M  V30 10 C 0.24662 -1.21215 -0.268114 0
M  V30 11 C -1.48349 -1.01611 1.50028 0
M  V30 12 C -2.16305 -1.67876 -0.738109 0
M  V30 13 H 2.78427 0.355532 1.86576 0
M  V30 14 H 3.27716 -1.23736 1.85721 0
M  V30 15 H 2.86287 -1.57216 -0.288317 0
M  V30 16 H 3.38127 0.121801 -0.219749 0
M  V30 17 H 0.608936 0.0902298 -2.44455 0
M  V30 18 H 1.84256 -1.11625 -2.265 0
M  V30 19 H 0.982747 1.97399 -1.0572 0
M  V30 20 H 1.6107 1.65034 0.558579 0
M  V30 21 H -0.465581 1.35388 1.47994 0
M  V30 22 H -1.89991 3.03663 0.605654 0
M  V30 23 H -0.15653 3.63837 0.47991 0
M  V30 24 H -1.05921 2.99646 -0.973531 0
M  V30 25 H -1.43194 0.768965 -1.38247 0
M  V30 26 H -2.49398 0.809913 0.104437 0
M  V30 27 H 0.209031 -1.97075 -1.11 0
M  V30 28 H 0.592161 -1.84903 0.602978 0
M  V30 29 H -1.47775 -2.12836 1.6789 0
M  V30 30 H -0.748468 -0.560237 2.15958 0
M  V30 31 H -2.51039 -0.653324 1.6557 0
M  V30 32 H -2.87912 -1.08724 -1.31309 0
M  V30 33 H -2.71044 -2.36227 -0.0929948 0
M  V30 34 H -1.58679 -2.29017 -1.4681 0
M  V30 END ATOM
M  V30 BEGIN BOND
M  V30 1 1 1 2
M  V30 2 1 2 3
M  V30 3 1 3 4
M  V30 4 1 3 5
M  V30 5 1 5 6
M  V30 6 1 6 7
M  V30 7 1 6 8
M  V30 8 1 8 9
M  V30 9 1 9 10
M  V30 10 1 9 11
M  V30 11 1 9 12
M  V30 12 1 10 3
M  V30 13 1 1 13
M  V30 14 1 1 14
M  V30 15 1 2 15
M  V30 16 1 2 16
M  V30 17 1 4 17
M  V30 18 1 4 18
M  V30 19 1 5 19
M  V30 20 1 5 20
M  V30 21 1 6 21
M  V30 22 1 7 22
M  V30 23 1 7 23
M  V30 24 1 7 24
M  V30 25 1 8 25
M  V30 26 1 8 26
M  V30 27 1 10 27
M  V30 28 1 10 28
M  V30 29 1 11 29
M  V30 30 1 11 30
M  V30 31 1 11 31
M  V30 32 1 12 32
M  V30 33 1 12 33
M  V30 34 1 12 34
M  V30 END BOND
M  V30 END CTAB
M  END
