
     RDKit          3D

  0  0  0  0  0  0  0  0  0  0999 V3000
M  V30 BEGIN CTAB
M  V30 COUNTS 40 43 0 0 0
M  V30 BEGIN ATOM
M  V30 1 N 6.08007 -0.151898 -0.326043 0
M  V30 2 C 4.88497 -0.917132 -0.482013 0
M  V30 3 C 3.97831 -0.946034 0.754482 0
M  V30 4 C 2.80739 -0.877945 -0.204773 0
M  V30 5 C 3.74797 -0.234722 -1.20587 0
M  V30 6 C 1.68665 -0.0213902 0.226317 0
M  V30 7 C 0.393644 -0.47171 0.208057 0
M  V30 8 C -0.633616 0.358758 0.619458 0
M  V30 9 N -0.328614 1.59893 1.03022 0
M  V30 10 C 0.957064 2.02477 1.04051 0
M  V30 11 N 1.94873 1.21351 0.639936 0
M  V30 12 N 1.22043 3.35347 1.48762 0
M  V30 13 N -1.99366 -0.104444 0.603991 0
M  V30 14 C -2.34687 -1.43099 0.167556 0
M  V30 15 C -3.80643 -1.53809 -0.119418 0
M  V30 16 C -4.39997 -0.292489 -0.670081 0
M  V30 17 C -4.00826 0.90531 -0.0780578 0
M  V30 18 C -3.03662 0.792308 1.04078 0
M  V30 19 N -4.66136 1.86687 -0.729965 0
M  V30 20 C -5.42858 1.33168 -1.68439 0
M  V30 21 N -5.2697 0.000705675 -1.65009 0
M  V30 22 H 6.41524 0.309381 -1.18591 0
M  V30 23 H 6.08896 0.454399 0.518407 0
M  V30 24 H 5.06092 -1.96296 -0.79771 0
M  V30 25 H 4.12146 -0.00292425 1.34172 0
M  V30 26 H 4.03375 -1.86973 1.34163 0
M  V30 27 H 2.51129 -1.87892 -0.530638 0
M  V30 28 H 3.83797 0.85452 -1.14051 0
M  V30 29 H 3.63894 -0.659516 -2.2271 0
M  V30 30 H 0.139959 -1.49176 -0.129482 0
M  V30 31 H 0.933431 4.15317 0.90349 0
M  V30 32 H 1.69379 3.51795 2.38712 0
M  V30 33 H -2.06547 -2.16309 0.97954 0
M  V30 34 H -1.79478 -1.74157 -0.750232 0
M  V30 35 H -4.05993 -2.36688 -0.825054 0
M  V30 36 H -4.32359 -1.70788 0.867334 0
M  V30 37 H -2.64534 1.78717 1.30114 0
M  V30 38 H -3.59186 0.342156 1.89417 0
M  V30 39 H -6.05365 1.90374 -2.34777 0
M  V30 40 H -5.73264 -0.696268 -2.26837 0
M  V30 END ATOM
M  V30 BEGIN BOND
M  V30 1 1 1 2
M  V30 2 1 2 3
M  V30 3 1 3 4
M  V30 4 1 4 5
M  V30 5 1 4 6
M  V30 6 2 6 7
M  V30 7 1 7 8
M  V30 8 2 8 9
M  V30 9 1 9 10
M  V30 10 2 10 11
M  V30 11 1 10 12
M  V30 12 1 8 13
M  V30 13 1 13 14
M  V30 14 1 14 15
M  V30 15 1 15 16
M  V30 16 2 16 17
M  V30 17 1 17 18
M  V30 18 1 17 19
M  V30 19 2 19 20
M  V30 20 1 20 21
M  V30 21 1 5 2
M  V30 22 1 11 6
M  V30 23 1 18 13
M  V30 24 1 21 16
M  V30 25 1 1 22
M  V30 26 1 1 23
M  V30 27 1 2 24
M  V30 28 1 3 25
M  V30 29 1 3 26
M  V30 30 1 4 27
M  V30 31 1 5 28
M  V30 32 1 5 29
M  V30 33 1 7 30
M  V30 34 1 12 31
M  V30 35 1 12 32
M  V30 36 1 14 33
M  V30 37 1 14 34
M  V30 38 1 15 35
M  V30 39 1 15 36
M  V30 40 1 18 37
M  V30 41 1 18 38
M  V30 42 1 20 39
M  V30 43 1 21 40
M  V30 END BOND
M  V30 END CTAB
M  END
