
     RDKit          3D

  0  0  0  0  0  0  0  0  0  0999 V3000
M  V30 BEGIN CTAB
M  V30 COUNTS 39 41 0 0 0
M  V30 BEGIN ATOM
M  V30 1 C -6.94488 1.24437 -0.756564 0
M  V30 2 C -6.25826 1.63522 0.505171 0
M  V30 3 O -4.8473 1.49114 0.451933 0
M  V30 4 C -4.26033 0.277882 0.216254 0
M  V30 5 O -5.01483 -0.716703 0.0464079 0
M  V30 6 C -2.80372 0.0907094 0.154069 0
M  V30 7 C -1.95058 1.13852 0.331892 0
M  V30 8 N -0.62033 0.922585 0.266758 0
M  V30 9 C -0.0877287 -0.281225 0.0338438 0
M  V30 10 N -0.926049 -1.33803 -0.145926 0
M  V30 11 C -2.27727 -1.15193 -0.0859158 0
M  V30 12 N -3.14321 -2.25699 -0.274092 0
M  V30 13 N -0.2118 -2.41521 -0.358849 0
M  V30 14 C 1.1115 -2.14379 -0.333646 0
M  V30 15 C 1.18893 -0.789617 -0.0844292 0
M  V30 16 N 2.38709 -0.0185363 0.0356444 0
M  V30 17 N 3.5367 -0.535797 -0.0777106 0
M  V30 18 C 4.74496 0.202386 0.0362171 0
M  V30 19 C 4.85735 1.44735 -0.559364 0
M  V30 20 C 6.05616 2.14172 -0.426704 0
M  V30 21 C 7.09494 1.57809 0.288763 0
M  V30 22 C 6.96829 0.332755 0.878706 0
M  V30 23 C 5.80115 -0.353846 0.755 0
M  V30 24 Cl 8.30503 -0.377636 1.79171 0
M  V30 25 N 2.17544 -3.06319 -0.523999 0
M  V30 26 H -7.41919 2.09955 -1.28744 0
M  V30 27 H -7.7682 0.541952 -0.52034 0
M  V30 28 H -6.29616 0.721186 -1.49059 0
M  V30 29 H -6.49374 2.72566 0.683407 0
M  V30 30 H -6.70111 1.09924 1.35414 0
M  V30 31 H -2.3163 2.13697 0.523646 0
M  V30 32 H -3.34482 -2.94406 0.475608 0
M  V30 33 H -3.59205 -2.38069 -1.20083 0
M  V30 34 H 4.01516 1.84872 -1.11077 0
M  V30 35 H 6.12334 3.10621 -0.89625 0
M  V30 36 H 8.02988 2.13834 0.382574 0
M  V30 37 H 5.72251 -1.3294 1.22556 0
M  V30 38 H 2.51601 -3.28506 -1.48119 0
M  V30 39 H 2.64339 -3.53882 0.273699 0
M  V30 END ATOM
M  V30 BEGIN BOND
M  V30 1 1 1 2
M  V30 2 1 2 3
M  V30 3 1 3 4
M  V30 4 2 4 5
M  V30 5 1 4 6
M  V30 6 1 6 7
M  V30 7 2 7 8
M  V30 8 1 8 9
M  V30 9 1 9 10
M  V30 10 1 10 11
M  V30 11 1 11 12
M  V30 12 1 10 13
M  V30 13 2 13 14
M  V30 14 1 14 15
M  V30 15 1 15 16
M  V30 16 2 16 17
M  V30 17 1 17 18
M  V30 18 2 18 19
M  V30 19 1 19 20
M  V30 20 2 20 21
M  V30 21 1 21 22
M  V30 22 2 22 23
M  V30 23 1 22 24
M  V30 24 1 14 25
M  V30 25 2 11 6
M  V30 26 1 23 18
M  V30 27 2 15 9
M  V30 28 1 1 26
M  V30 29 1 1 27
M  V30 30 1 1 28
M  V30 31 1 2 29
M  V30 32 1 2 30
M  V30 33 1 7 31
M  V30 34 1 12 32
M  V30 35 1 12 33
M  V30 36 1 19 34
M  V30 37 1 20 35
M  V30 38 1 21 36
M  V30 39 1 23 37
M  V30 40 1 25 38
M  V30 41 1 25 39
M  V30 END BOND
M  V30 END CTAB
M  END
