
     RDKit          3D

  0  0  0  0  0  0  0  0  0  0999 V3000
M  V30 BEGIN CTAB
M  V30 COUNTS 33 34 0 0 0
M  V30 BEGIN ATOM
M  V30 1 N 5.13358 0.319308 0.445354 0
M  V30 2 C 3.85916 0.831476 0.106915 0
M  V30 3 C 2.7967 -0.234031 0.0464076 0
M  V30 4 N 1.51589 0.294435 -0.294446 0
M  V30 5 C 0.91718 1.13302 0.697698 0
M  V30 6 C -0.0273844 0.256499 1.44109 0
M  V30 7 C -0.438566 -0.795284 0.48308 0 CFG=2
M  V30 8 C 0.546462 -0.689336 -0.658651 0
M  V30 9 C -1.83045 -0.727385 0.0439179 0
M  V30 10 C -2.69043 -1.8073 0.222527 0
M  V30 11 C -4.00784 -1.76625 -0.181424 0
M  V30 12 N -4.51784 -0.689562 -0.761072 0
M  V30 13 C -3.72012 0.399084 -0.960358 0
M  V30 14 C -2.39246 0.385511 -0.565077 0
M  V30 15 N -4.33621 1.51553 -1.58525 0
M  V30 16 H 5.85765 0.919237 0.675447 0
M  V30 17 H 5.31523 -0.641757 0.400132 0
M  V30 18 H 3.9512 1.25684 -0.930816 0
M  V30 19 H 3.62727 1.61166 0.863257 0
M  V30 20 H 2.81698 -0.834854 0.979046 0
M  V30 21 H 3.09561 -0.934333 -0.77995 0
M  V30 22 H 0.376388 1.96024 0.149935 0
M  V30 23 H 1.63086 1.59328 1.40995 0
M  V30 24 H 0.545844 -0.19042 2.29647 0
M  V30 25 H -0.868304 0.800859 1.9162 0
M  V30 26 H -0.276201 -1.80018 0.967762 0
M  V30 27 H 0.974927 -1.65614 -0.954161 0
M  V30 28 H 0.00431332 -0.29466 -1.56409 0
M  V30 29 H -2.32456 -2.70592 0.687444 0
M  V30 30 H -4.65256 -2.63013 -0.0250294 0
M  V30 31 H -1.79375 1.24281 -0.73101 0
M  V30 32 H -3.75705 2.09878 -2.22483 0
M  V30 33 H -5.33151 1.77897 -1.44023 0
M  V30 END ATOM
M  V30 BEGIN BOND
M  V30 1 1 1 2
M  V30 2 1 2 3
M  V30 3 1 3 4
M  V30 4 1 4 5
M  V30 5 1 5 6
M  V30 6 1 6 7
M  V30 7 1 7 8
M  V30 8 1 7 9
M  V30 9 2 9 10
M  V30 10 1 10 11
M  V30 11 2 11 12
M  V30 12 1 12 13
M  V30 13 2 13 14
M  V30 14 1 13 15
M  V30 15 1 8 4
M  V30 16 1 14 9
M  V30 17 1 1 16
M  V30 18 1 1 17
M  V30 19 1 2 18
M  V30 20 1 2 19
M  V30 21 1 3 20
M  V30 22 1 3 21
M  V30 23 1 5 22
M  V30 24 1 5 23
M  V30 25 1 6 24
M  V30 26 1 6 25
M  V30 27 1 7 26 CFG=1
M  V30 28 1 8 27
M  V30 29 1 8 28
M  V30 30 1 10 29
M  V30 31 1 11 30
M  V30 32 1 14 31
M  V30 33 1 15 32
M  V30 34 1 15 33
M  V30 END BOND
M  V30 END CTAB
M  END
