
     RDKit          3D

  0  0  0  0  0  0  0  0  0  0999 V3000
M  V30 BEGIN CTAB
M  V30 COUNTS 25 26 0 0 0
M  V30 BEGIN ATOM
M  V30 1 N 5.39536 0.646694 -0.0330385 0
M  V30 2 S 4.4409 -0.257158 -1.2155 0
M  V30 3 C 2.74244 -0.407721 -0.70173 0
M  V30 4 N 2.41104 -1.47415 0.0511631 0
M  V30 5 C 1.15814 -1.69264 0.497657 0
M  V30 6 N 0.834949 -2.82859 1.2923 0
M  V30 7 C 0.208253 -0.751815 0.139792 0
M  V30 8 C 0.50961 0.351343 -0.628809 0
M  V30 9 N 1.79021 0.490741 -1.03235 0
M  V30 10 N -0.427805 1.2666 -0.97368 0
M  V30 11 C -1.70302 1.12509 -0.570163 0
M  V30 12 C -2.00017 0.0194041 0.198978 0
M  V30 13 N -1.06708 -0.893664 0.543519 0
M  V30 14 C -3.38932 -0.205457 0.68291 0
M  V30 15 C -2.7564 2.12582 -0.940015 0
M  V30 16 H 4.74753 1.13955 0.64905 0
M  V30 17 H 5.86447 1.41833 -0.556279 0
M  V30 18 H 1.17976 -3.76996 1.0413 0
M  V30 19 H 0.244209 -2.7286 2.14158 0
M  V30 20 H -3.38417 0.0752799 1.76921 0
M  V30 21 H -4.12869 0.384158 0.103245 0
M  V30 22 H -3.6765 -1.28045 0.559449 0
M  V30 23 H -3.63639 1.66967 -1.40083 0
M  V30 24 H -3.08686 2.68908 -0.0269087 0
M  V30 25 H -2.27049 2.88844 -1.59084 0
M  V30 END ATOM
M  V30 BEGIN BOND
M  V30 1 1 1 2
M  V30 2 1 2 3
M  V30 3 2 3 4
M  V30 4 1 4 5
M  V30 5 1 5 6
M  V30 6 2 5 7
M  V30 7 1 7 8
M  V30 8 2 8 9
M  V30 9 1 8 10
M  V30 10 2 10 11
M  V30 11 1 11 12
M  V30 12 2 12 13
M  V30 13 1 12 14
M  V30 14 1 11 15
M  V30 15 1 9 3
M  V30 16 1 13 7
M  V30 17 1 1 16
M  V30 18 1 1 17
M  V30 19 1 6 18
M  V30 20 1 6 19
M  V30 21 1 14 20
M  V30 22 1 14 21
M  V30 23 1 14 22
M  V30 24 1 15 23
M  V30 25 1 15 24
M  V30 26 1 15 25
M  V30 END BOND
M  V30 END CTAB
M  END
