
     RDKit          3D

  0  0  0  0  0  0  0  0  0  0999 V3000
M  V30 BEGIN CTAB
M  V30 COUNTS 16 16 0 0 0
M  V30 BEGIN ATOM
M  V30 1 N -2.23279 -1.42614 0.0657726 0
M  V30 2 C -1.13628 -0.519544 0.0459864 0
M  V30 3 C -1.34087 0.847646 0.14381 0
M  V30 4 C -0.307991 1.75632 0.128524 0
M  V30 5 Cl -0.548282 3.48243 0.250781 0
M  V30 6 C 0.98048 1.25643 0.00937243 0
M  V30 7 C 1.24015 -0.0869074 -0.0907739 0
M  V30 8 N 2.57197 -0.567271 -0.211723 0
M  V30 9 C 0.161115 -0.944381 -0.0691796 0
M  V30 10 H -2.87474 -1.40515 -0.754143 0
M  V30 11 H -2.43904 -2.09582 0.82165 0
M  V30 12 H -2.35907 1.21409 0.236217 0
M  V30 13 H 1.79051 1.96365 -0.00293281 0
M  V30 14 H 3.1606 -0.530293 0.652615 0
M  V30 15 H 2.98928 -0.943172 -1.07938 0
M  V30 16 H 0.344965 -2.00188 -0.146601 0
M  V30 END ATOM
M  V30 BEGIN BOND
M  V30 1 1 1 2
M  V30 2 2 2 3
M  V30 3 1 3 4
M  V30 4 1 4 5
M  V30 5 2 4 6
M  V30 6 1 6 7
M  V30 7 1 7 8
M  V30 8 2 7 9
M  V30 9 1 9 2
M  V30 10 1 1 10
M  V30 11 1 1 11
M  V30 12 1 3 12
M  V30 13 1 6 13
M  V30 14 1 8 14
M  V30 15 1 8 15
M  V30 16 1 9 16
M  V30 END BOND
M  V30 END CTAB
M  END
