
     RDKit          3D

  0  0  0  0  0  0  0  0  0  0999 V3000
M  V30 BEGIN CTAB
M  V30 COUNTS 24 24 0 0 0
M  V30 BEGIN ATOM
M  V30 1 N 3.95989 1.60895 0.57428 0
M  V30 2 C 3.26867 0.546781 -0.047601 0
M  V30 3 N 3.8607 -0.287504 -1.03403 0
M  V30 4 N 2.03143 0.319575 0.297356 0
M  V30 5 N 1.28913 -0.714338 -0.277503 0
M  V30 6 S -0.0176271 -1.39718 0.603109 0
M  V30 7 O 0.332973 -1.30871 2.06679 0
M  V30 8 O -0.0799949 -2.85748 0.259857 0
M  V30 9 C -1.52423 -0.578767 0.292729 0
M  V30 10 C -1.90687 0.494702 1.07281 0
M  V30 11 C -3.08959 1.1316 0.823638 0
M  V30 12 C -3.93639 0.742238 -0.19357 0
M  V30 13 Cl -5.45554 1.55018 -0.52365 0
M  V30 14 C -3.5375 -0.340307 -0.97056 0
M  V30 15 C -2.34585 -1.00291 -0.740248 0
M  V30 16 H 3.67549 2.58282 0.35276 0
M  V30 17 H 4.72155 1.39603 1.22584 0
M  V30 18 H 4.40945 -1.11056 -0.707369 0
M  V30 19 H 3.70817 -0.022448 -2.03034 0
M  V30 20 H 1.54014 -1.05385 -1.2299 0
M  V30 21 H -1.27055 0.830969 1.88057 0
M  V30 22 H -3.38958 1.96801 1.43007 0
M  V30 23 H -4.19221 -0.642479 -1.75817 0
M  V30 24 H -2.05165 -1.85532 -1.36687 0
M  V30 END ATOM
M  V30 BEGIN BOND
M  V30 1 1 1 2
M  V30 2 1 2 3
M  V30 3 2 2 4
M  V30 4 1 4 5
M  V30 5 1 5 6
M  V30 6 2 6 7
M  V30 7 2 6 8
M  V30 8 1 6 9
M  V30 9 2 9 10
M  V30 10 1 10 11
M  V30 11 2 11 12
M  V30 12 1 12 13
M  V30 13 1 12 14
M  V30 14 2 14 15
M  V30 15 1 15 9
M  V30 16 1 1 16
M  V30 17 1 1 17
M  V30 18 1 3 18
M  V30 19 1 3 19
M  V30 20 1 5 20
M  V30 21 1 10 21
M  V30 22 1 11 22
M  V30 23 1 14 23
M  V30 24 1 15 24
M  V30 END BOND
M  V30 END CTAB
M  END
