
     RDKit          3D

  0  0  0  0  0  0  0  0  0  0999 V3000
M  V30 BEGIN CTAB
M  V30 COUNTS 43 42 0 0 0
M  V30 BEGIN ATOM
M  V30 1 C 1.47746 -1.40622 0.450546 0 CFG=1
M  V30 2 N 1.3724 -1.9912 -0.863214 0
M  V30 3 C 2.54638 -0.318617 0.416408 0
M  V30 4 C 3.85639 -0.94814 0.0157054 0
M  V30 5 C 4.99012 0.0477414 -0.0435261 0
M  V30 6 C 4.68457 1.11779 -1.04142 0
M  V30 7 N 5.83041 2.03653 -1.04177 0
M  V30 8 C 0.179903 -0.854472 0.905202 0
M  V30 9 O 0.0783977 -0.299189 2.02077 0
M  V30 10 N -0.935932 -0.967575 0.0571332 0
M  V30 11 C -2.24277 -0.421413 0.494188 0 CFG=1
M  V30 12 C -2.69063 0.513791 -0.558663 0
M  V30 13 C -3.96577 1.23811 -0.409981 0
M  V30 14 C -5.20416 0.399028 -0.326968 0
M  V30 15 C -3.97626 2.13735 0.828963 0
M  V30 16 C -3.11457 -1.59859 0.632823 0
M  V30 17 O -4.06731 -1.7049 1.63717 0
M  V30 18 O -3.03519 -2.58901 -0.164555 0
M  V30 19 H 1.82078 -2.18459 1.16354 0
M  V30 20 H 0.697102 -2.80127 -0.813564 0
M  V30 21 H 1.1024 -1.29682 -1.57956 0
M  V30 22 H 2.27219 0.456705 -0.344293 0
M  V30 23 H 2.65811 0.143092 1.41325 0
M  V30 24 H 4.14013 -1.75258 0.72903 0
M  V30 25 H 3.77123 -1.43324 -0.985963 0
M  V30 26 H 5.07046 0.474232 0.997638 0
M  V30 27 H 5.91705 -0.502705 -0.25496 0
M  V30 28 H 4.52537 0.694352 -2.03291 0
M  V30 29 H 3.8174 1.71723 -0.705579 0
M  V30 30 H 6.15947 2.123 -2.01781 0
M  V30 31 H 6.56794 1.75338 -0.387447 0
M  V30 32 H -0.925836 -1.41269 -0.875389 0
M  V30 33 H -2.12538 0.0299593 1.49322 0
M  V30 34 H -2.69592 -0.0147981 -1.57089 0
M  V30 35 H -1.87331 1.29943 -0.70771 0
M  V30 36 H -4.12118 1.97099 -1.26256 0
M  V30 37 H -5.65118 0.407025 0.690702 0
M  V30 38 H -5.07472 -0.58118 -0.7863 0
M  V30 39 H -6.00754 0.907003 -0.972448 0
M  V30 40 H -3.93927 1.55406 1.75836 0
M  V30 41 H -4.92439 2.70848 0.825036 0
M  V30 42 H -3.15604 2.87071 0.722516 0
M  V30 43 H -3.80831 -1.52076 2.59474 0
M  V30 END ATOM
M  V30 BEGIN BOND
M  V30 1 1 1 2
M  V30 2 1 1 3
M  V30 3 1 3 4
M  V30 4 1 4 5
M  V30 5 1 5 6
M  V30 6 1 6 7
M  V30 7 1 1 8
M  V30 8 2 8 9
M  V30 9 1 8 10
M  V30 10 1 10 11
M  V30 11 1 11 12
M  V30 12 1 12 13
M  V30 13 1 13 14
M  V30 14 1 13 15
M  V30 15 1 11 16
M  V30 16 1 16 17
M  V30 17 2 16 18
M  V30 18 1 1 19 CFG=1
M  V30 19 1 2 20
M  V30 20 1 2 21
M  V30 21 1 3 22
M  V30 22 1 3 23
M  V30 23 1 4 24
M  V30 24 1 4 25
M  V30 25 1 5 26
M  V30 26 1 5 27
M  V30 27 1 6 28
M  V30 28 1 6 29
M  V30 29 1 7 30
M  V30 30 1 7 31
M  V30 31 1 10 32
M  V30 32 1 11 33 CFG=1
M  V30 33 1 12 34
M  V30 34 1 12 35
M  V30 35 1 13 36
M  V30 36 1 14 37
M  V30 37 1 14 38
M  V30 38 1 14 39
M  V30 39 1 15 40
M  V30 40 1 15 41
M  V30 41 1 15 42
M  V30 42 1 17 43
M  V30 END BOND
M  V30 END CTAB
M  END
