
     RDKit          3D

  0  0  0  0  0  0  0  0  0  0999 V3000
M  V30 BEGIN CTAB
M  V30 COUNTS 47 49 0 0 0
M  V30 BEGIN ATOM
M  V30 1 N 7.08778 -0.884667 -1.31643 0
M  V30 2 C 5.74761 -1.36214 -1.53018 0 CFG=2
M  V30 3 C 4.81069 -0.155189 -1.64788 0
M  V30 4 C 4.74742 -0.181437 -0.116391 0 CFG=2
M  V30 5 C 5.04804 -1.64133 -0.192221 0
M  V30 6 C 3.39254 0.181487 0.373141 0
M  V30 7 C 2.24984 -0.436045 -0.0845493 0
M  V30 8 C 1.01739 -0.0374164 0.42529 0
M  V30 9 N -0.19161 -0.670649 -0.02949 0
M  V30 10 C -1.48885 -0.28585 0.45548 0
M  V30 11 C -1.90047 1.11064 0.123977 0
M  V30 12 S -3.49318 1.53612 0.753655 0
M  V30 13 O -3.44139 1.4511 2.27519 0
M  V30 14 O -3.81249 3.00056 0.475585 0
M  V30 15 N -4.77629 0.619634 0.22494 0
M  V30 16 C -5.10631 0.578279 -1.14419 0
M  V30 17 C -5.83302 -0.766154 -1.3468 0
M  V30 18 C -6.34331 -1.0405 0.0638833 0
M  V30 19 C -5.16782 -0.54012 0.910685 0
M  V30 20 N 1.04082 0.935077 1.33934 0
M  V30 21 C 2.12167 1.55227 1.80345 0
M  V30 22 N 3.32545 1.15593 1.29888 0
M  V30 23 N 2.10577 2.57901 2.77289 0
M  V30 24 H 7.19536 0.12971 -1.39665 0
M  V30 25 H 7.5672 -1.25436 -0.524907 0
M  V30 26 H 5.6111 -2.13084 -2.28903 0
M  V30 27 H 5.27554 0.738598 -2.06473 0
M  V30 28 H 3.85049 -0.477946 -2.05853 0
M  V30 29 H 5.57371 0.384758 0.32785 0
M  V30 30 H 5.7583 -2.05834 0.521126 0
M  V30 31 H 4.15377 -2.28467 -0.423275 0
M  V30 32 H 2.32698 -1.20166 -0.814566 0
M  V30 33 H -0.108655 -1.44267 -0.744327 0
M  V30 34 H -2.23539 -1.02348 0.0500906 0
M  V30 35 H -1.49794 -0.434006 1.57112 0
M  V30 36 H -1.12938 1.85759 0.365229 0
M  V30 37 H -2.0013 1.1638 -1.00308 0
M  V30 38 H -4.27755 0.696802 -1.84545 0
M  V30 39 H -5.87797 1.34964 -1.37921 0
M  V30 40 H -5.10779 -1.50245 -1.69083 0
M  V30 41 H -6.65949 -0.662529 -2.07543 0
M  V30 42 H -7.25339 -0.456736 0.248462 0
M  V30 43 H -6.50861 -2.12075 0.236508 0
M  V30 44 H -5.57301 -0.32368 1.93409 0
M  V30 45 H -4.41491 -1.32523 0.913412 0
M  V30 46 H 1.53942 2.46041 3.62678 0
M  V30 47 H 2.65324 3.43409 2.62708 0
M  V30 END ATOM
M  V30 BEGIN BOND
M  V30 1 1 1 2
M  V30 2 1 2 3
M  V30 3 1 3 4
M  V30 4 1 4 5
M  V30 5 1 4 6
M  V30 6 2 6 7
M  V30 7 1 7 8
M  V30 8 1 8 9
M  V30 9 1 9 10
M  V30 10 1 10 11
M  V30 11 1 11 12
M  V30 12 2 12 13
M  V30 13 2 12 14
M  V30 14 1 12 15
M  V30 15 1 15 16
M  V30 16 1 16 17
M  V30 17 1 17 18
M  V30 18 1 18 19
M  V30 19 2 8 20
M  V30 20 1 20 21
M  V30 21 2 21 22
M  V30 22 1 21 23
M  V30 23 1 5 2
M  V30 24 1 22 6
M  V30 25 1 19 15
M  V30 26 1 1 24
M  V30 27 1 1 25
M  V30 28 1 2 26 CFG=3
M  V30 29 1 3 27
M  V30 30 1 3 28
M  V30 31 1 4 29 CFG=1
M  V30 32 1 5 30
M  V30 33 1 5 31
M  V30 34 1 7 32
M  V30 35 1 9 33
M  V30 36 1 10 34
M  V30 37 1 10 35
M  V30 38 1 11 36
M  V30 39 1 11 37
M  V30 40 1 16 38
M  V30 41 1 16 39
M  V30 42 1 17 40
M  V30 43 1 17 41
M  V30 44 1 18 42
M  V30 45 1 18 43
M  V30 46 1 19 44
M  V30 47 1 19 45
M  V30 48 1 23 46
M  V30 49 1 23 47
M  V30 END BOND
M  V30 END CTAB
M  END
