
     RDKit          3D

  0  0  0  0  0  0  0  0  0  0999 V3000
M  V30 BEGIN CTAB
M  V30 COUNTS 59 62 0 0 0
M  V30 BEGIN ATOM
M  V30 1 N -9.60206 0.153462 -0.711717 0
M  V30 2 C -9.09188 -1.06933 -0.165556 0
M  V30 3 C -7.57951 -1.00746 -0.0625638 0
M  V30 4 C -7.12201 0.106368 0.814409 0
M  V30 5 O -5.75852 0.225917 0.960527 0
M  V30 6 C -4.72146 0.48178 0.160969 0
M  V30 7 C -4.81045 0.736548 -1.17557 0
M  V30 8 C -3.64676 0.989401 -1.91583 0
M  V30 9 C -2.40839 0.986344 -1.31701 0
M  V30 10 C -2.29785 0.73228 0.0295889 0
M  V30 11 C -3.44294 0.487081 0.737882 0
M  V30 12 C -1.01545 0.716075 0.71788 0
M  V30 13 O -0.962136 0.477022 1.96062 0
M  V30 14 N 0.210625 0.960511 0.0520564 0
M  V30 15 C 1.48804 0.940466 0.75752 0 CFG=2
M  V30 16 C 2.04094 2.34626 0.695821 0
M  V30 17 C 3.36955 2.47124 1.3985 0
M  V30 18 C 4.18751 1.21884 1.18075 0 CFG=1
M  V30 19 C 3.72928 0.620488 -0.138898 0 CFG=2
M  V30 20 C 2.41703 -0.0577301 0.103453 0 CFG=2
M  V30 21 O 1.84872 -0.538127 -1.08138 0
M  V30 22 N 4.72391 -0.267733 -0.704514 0
M  V30 23 C 5.13915 -0.324921 -1.98018 0
M  V30 24 N 6.07493 -1.27994 -2.11675 0
M  V30 25 C 6.285 -1.85924 -0.937949 0
M  V30 26 C 5.43713 -1.22302 -0.0549164 0
M  V30 27 N 5.43683 -1.60652 1.21725 0
M  V30 28 C 6.23673 -2.59148 1.65937 0
M  V30 29 N 7.0551 -3.19766 0.780844 0
M  V30 30 C 7.12691 -2.88021 -0.524717 0
M  V30 31 N 8.00421 -3.54939 -1.40235 0
M  V30 32 O 5.54598 1.47062 1.11697 0
M  V30 33 H -9.015 0.520784 -1.46177 0
M  V30 34 H -9.93934 0.821486 -0.0190242 0
M  V30 35 H -9.57423 -1.26176 0.814732 0
M  V30 36 H -9.33996 -1.93605 -0.810618 0
M  V30 37 H -7.21082 -0.878258 -1.08236 0
M  V30 38 H -7.25315 -1.97266 0.384626 0
M  V30 39 H -7.5371 -0.106703 1.85029 0
M  V30 40 H -7.59786 1.09221 0.519228 0
M  V30 41 H -5.76488 0.768784 -1.71247 0
M  V30 42 H -3.76117 1.18696 -2.97632 0
M  V30 43 H -1.51027 1.18614 -1.91205 0
M  V30 44 H -3.33943 0.287235 1.80493 0
M  V30 45 H 0.280115 1.1675 -0.969361 0
M  V30 46 H 1.27368 0.714063 1.80921 0
M  V30 47 H 1.32342 2.98901 1.26003 0
M  V30 48 H 2.06143 2.70276 -0.336999 0
M  V30 49 H 3.28277 2.72759 2.46504 0
M  V30 50 H 3.91846 3.30765 0.909881 0
M  V30 51 H 3.93995 0.477111 1.97212 0
M  V30 52 H 3.58808 1.45787 -0.867337 0
M  V30 53 H 2.56266 -0.880329 0.837711 0
M  V30 54 H 2.40086 -1.26949 -1.41552 0
M  V30 55 H 4.76686 0.309524 -2.76939 0
M  V30 56 H 6.21905 -2.89284 2.72061 0
M  V30 57 H 7.6588 -3.91086 -2.30198 0
M  V30 58 H 8.99316 -3.67672 -1.14235 0
M  V30 59 H 5.67576 2.40105 0.823326 0
M  V30 END ATOM
M  V30 BEGIN BOND
M  V30 1 1 1 2
M  V30 2 1 2 3
M  V30 3 1 3 4
M  V30 4 1 4 5
M  V30 5 1 5 6
M  V30 6 2 6 7
M  V30 7 1 7 8
M  V30 8 2 8 9
M  V30 9 1 9 10
M  V30 10 2 10 11
M  V30 11 1 10 12
M  V30 12 2 12 13
M  V30 13 1 12 14
M  V30 14 1 14 15
M  V30 15 1 15 16
M  V30 16 1 16 17
M  V30 17 1 17 18
M  V30 18 1 18 19
M  V30 19 1 19 20
M  V30 20 1 20 21
M  V30 21 1 19 22
M  V30 22 1 22 23
M  V30 23 2 23 24
M  V30 24 1 24 25
M  V30 25 2 25 26
M  V30 26 1 26 27
M  V30 27 2 27 28
M  V30 28 1 28 29
M  V30 29 2 29 30
M  V30 30 1 30 31
M  V30 31 1 18 32
M  V30 32 1 11 6
M  V30 33 1 20 15
M  V30 34 1 26 22
M  V30 35 1 30 25
M  V30 36 1 1 33
M  V30 37 1 1 34
M  V30 38 1 2 35
M  V30 39 1 2 36
M  V30 40 1 3 37
M  V30 41 1 3 38
M  V30 42 1 4 39
M  V30 43 1 4 40
M  V30 44 1 7 41
M  V30 45 1 8 42
M  V30 46 1 9 43
M  V30 47 1 11 44
M  V30 48 1 14 45
M  V30 49 1 15 46 CFG=1
M  V30 50 1 16 47
M  V30 51 1 16 48
M  V30 52 1 17 49
M  V30 53 1 17 50
M  V30 54 1 18 51 CFG=1
M  V30 55 1 19 52 CFG=3
M  V30 56 1 20 53 CFG=1
M  V30 57 1 21 54
M  V30 58 1 23 55
M  V30 59 1 28 56
M  V30 60 1 31 57
M  V30 61 1 31 58
M  V30 62 1 32 59
M  V30 END BOND
M  V30 END CTAB
M  END
