
     RDKit          3D

  0  0  0  0  0  0  0  0  0  0999 V3000
M  V30 BEGIN CTAB
M  V30 COUNTS 28 28 0 0 0
M  V30 BEGIN ATOM
M  V30 1 N 3.3121 0.69957 1.40399 0
M  V30 2 N 2.1678 0.385028 0.686519 0
M  V30 3 C 1.93364 -0.818746 0.332495 0
M  V30 4 N 0.797129 -1.24715 -0.400987 0
M  V30 5 C 0.0123501 -0.556419 -1.34164 0
M  V30 6 C -0.891764 0.541082 -0.873395 0
M  V30 7 C -2.01634 0.0231034 -0.00841013 0
M  V30 8 C -1.81925 -0.684103 1.2551 0
M  V30 9 C -2.18885 0.781289 1.29244 0
M  V30 10 O -0.246404 1.57977 -0.260959 0
M  V30 11 C -1.57264 1.16415 -2.11795 0
M  V30 12 N 2.93374 -1.78493 0.729062 0
M  V30 13 H 3.44311 0.217564 2.33652 0
M  V30 14 H 4.02424 1.37056 1.06842 0
M  V30 15 H 0.505375 -2.25565 -0.19006 0
M  V30 16 H -0.547169 -1.30943 -1.97003 0
M  V30 17 H 0.725649 -0.088649 -2.104 0
M  V30 18 H -2.93634 -0.237075 -0.599652 0
M  V30 19 H -0.876992 -1.01471 1.68296 0
M  V30 20 H -2.67462 -1.33917 1.59434 0
M  V30 21 H -3.23685 1.08735 1.48201 0
M  V30 22 H -1.42392 1.46794 1.65688 0
M  V30 23 H -0.769215 2.36808 -0.0592952 0
M  V30 24 H -2.66441 1.21641 -2.00329 0
M  V30 25 H -1.37727 0.520433 -3.00247 0
M  V30 26 H -1.19498 2.17285 -2.32962 0
M  V30 27 H 3.40485 -1.69654 1.64181 0
M  V30 28 H 3.17703 -2.56261 0.0992164 0
M  V30 END ATOM
M  V30 BEGIN BOND
M  V30 1 1 1 2
M  V30 2 2 2 3 CFG=2
M  V30 3 1 3 4
M  V30 4 1 4 5
M  V30 5 1 5 6
M  V30 6 1 6 7
M  V30 7 1 7 8
M  V30 8 1 8 9
M  V30 9 1 6 10
M  V30 10 1 6 11
M  V30 11 1 3 12
M  V30 12 1 9 7
M  V30 13 1 1 13
M  V30 14 1 1 14
M  V30 15 1 4 15
M  V30 16 1 5 16
M  V30 17 1 5 17
M  V30 18 1 7 18
M  V30 19 1 8 19
M  V30 20 1 8 20
M  V30 21 1 9 21
M  V30 22 1 9 22
M  V30 23 1 10 23
M  V30 24 1 11 24
M  V30 25 1 11 25
M  V30 26 1 11 26
M  V30 27 1 12 27
M  V30 28 1 12 28
M  V30 END BOND
M  V30 END CTAB
M  END
