
     RDKit          3D

  0  0  0  0  0  0  0  0  0  0999 V3000
M  V30 BEGIN CTAB
M  V30 COUNTS 31 32 0 0 0
M  V30 BEGIN ATOM
M  V30 1 N 5.66651 0.0722948 2.03554 0
M  V30 2 C 4.57409 -0.1172 1.12629 0
M  V30 3 N 3.69911 0.817141 0.966729 0
M  V30 4 C 2.58775 0.72597 0.0949226 0
M  V30 5 O 1.74243 1.64494 -0.0506918 0
M  V30 6 C 2.42368 -0.505573 -0.671587 0
M  V30 7 N 1.43591 -0.628715 -1.46844 0
M  V30 8 N 0.470031 0.357333 -1.66825 0
M  V30 9 C -0.840168 0.306134 -1.12796 0
M  V30 10 C -1.7468 1.29983 -1.35536 0
M  V30 11 C -3.02512 1.20805 -0.803802 0
M  V30 12 C -3.41786 0.150108 -0.0327352 0
M  V30 13 C -2.48553 -0.853575 0.190487 0
M  V30 14 C -1.20147 -0.780533 -0.352357 0
M  V30 15 S -5.01164 0.00685119 0.671729 0
M  V30 16 O -5.9698 0.802147 -0.204092 0
M  V30 17 O -5.49304 -1.3977 0.671551 0
M  V30 18 N -5.05638 0.725559 2.23355 0
M  V30 19 C 3.43356 -1.5433 -0.466131 0
M  V30 20 O 3.29198 -2.60559 -1.12734 0
M  V30 21 N 4.52102 -1.36359 0.434309 0
M  V30 22 H 6.15713 -0.728726 2.46083 0
M  V30 23 H 5.9895 1.04096 2.28693 0
M  V30 24 H 0.732853 1.17737 -2.2498 0
M  V30 25 H -1.49485 2.17421 -1.96433 0
M  V30 26 H -3.70354 1.99908 -1.0017 0
M  V30 27 H -2.75798 -1.70653 0.794945 0
M  V30 28 H -0.466412 -1.5489 -0.189765 0
M  V30 29 H -4.24483 1.36885 2.37684 0
M  V30 30 H -5.05209 0.0174637 2.9999 0
M  V30 31 H 5.24194 -2.11434 0.575754 0
M  V30 END ATOM
M  V30 BEGIN BOND
M  V30 1 1 1 2
M  V30 2 2 2 3
M  V30 3 1 3 4
M  V30 4 2 4 5
M  V30 5 1 4 6
M  V30 6 2 6 7
M  V30 7 1 7 8
M  V30 8 1 8 9
M  V30 9 2 9 10
M  V30 10 1 10 11
M  V30 11 2 11 12
M  V30 12 1 12 13
M  V30 13 2 13 14
M  V30 14 1 12 15
M  V30 15 2 15 16
M  V30 16 2 15 17
M  V30 17 1 15 18
M  V30 18 1 6 19
M  V30 19 2 19 20
M  V30 20 1 19 21
M  V30 21 1 21 2
M  V30 22 1 14 9
M  V30 23 1 1 22
M  V30 24 1 1 23
M  V30 25 1 8 24
M  V30 26 1 10 25
M  V30 27 1 11 26
M  V30 28 1 13 27
M  V30 29 1 14 28
M  V30 30 1 18 29
M  V30 31 1 18 30
M  V30 32 1 21 31
M  V30 END BOND
M  V30 END CTAB
M  END
