
     RDKit          3D

  0  0  0  0  0  0  0  0  0  0999 V3000
M  V30 BEGIN CTAB
M  V30 COUNTS 34 35 0 0 0
M  V30 BEGIN ATOM
M  V30 1 N -1.59673 -3.68238 1.19514 0
M  V30 2 N -1.34276 -2.35321 0.79701 0
M  V30 3 C -2.35548 -1.39573 0.667225 0
M  V30 4 O -3.53537 -1.84737 0.945745 0
M  V30 5 C -2.22669 -0.0106871 0.270675 0
M  V30 6 C -3.41881 0.736893 0.217771 0
M  V30 7 C -3.46935 2.05632 -0.140014 0
M  V30 8 N -4.70871 2.77622 -0.179294 0
M  V30 9 C -2.29251 2.68871 -0.466041 0
M  V30 10 C -1.12078 1.97374 -0.419374 0
M  V30 11 C -1.06394 0.632667 -0.0565952 0
M  V30 12 O 0.151576 -0.0490903 -0.0238782 0
M  V30 13 C 1.29635 0.673449 -0.377244 0
M  V30 14 C 2.5678 -0.0435668 -0.321581 0
M  V30 15 C 2.76989 -1.34774 0.039966 0
M  V30 16 C 4.03555 -1.90991 0.0510547 0
M  V30 17 C 5.11914 -1.14422 -0.308851 0
M  V30 18 C 4.96673 0.159074 -0.676215 0
M  V30 19 C 3.70333 0.700349 -0.681405 0
M  V30 20 F 3.59398 2.00133 -1.05337 0
M  V30 21 H -1.55169 -3.81023 2.21289 0
M  V30 22 H -2.42623 -4.08582 0.734341 0
M  V30 23 H -0.362384 -2.13736 0.608371 0
M  V30 24 H -4.37892 0.277898 0.46813 0
M  V30 25 H -5.0559 3.05253 -1.11809 0
M  V30 26 H -5.24025 3.01634 0.65696 0
M  V30 27 H -2.32997 3.72321 -0.746873 0
M  V30 28 H -0.17707 2.46503 -0.671559 0
M  V30 29 H 1.10003 1.1141 -1.38792 0
M  V30 30 H 1.35485 1.54461 0.338149 0
M  V30 31 H 1.91601 -1.92218 0.315429 0
M  V30 32 H 4.12989 -2.94467 0.346006 0
M  V30 33 H 6.09518 -1.6209 -0.287518 0
M  V30 34 H 5.85324 0.712583 -0.949053 0
M  V30 END ATOM
M  V30 BEGIN BOND
M  V30 1 1 1 2
M  V30 2 1 2 3
M  V30 3 2 3 4
M  V30 4 1 3 5
M  V30 5 2 5 6
M  V30 6 1 6 7
M  V30 7 1 7 8
M  V30 8 2 7 9
M  V30 9 1 9 10
M  V30 10 2 10 11
M  V30 11 1 11 12
M  V30 12 1 12 13
M  V30 13 1 13 14
M  V30 14 2 14 15
M  V30 15 1 15 16
M  V30 16 2 16 17
M  V30 17 1 17 18
M  V30 18 2 18 19
M  V30 19 1 19 20
M  V30 20 1 11 5
M  V30 21 1 19 14
M  V30 22 1 1 21
M  V30 23 1 1 22
M  V30 24 1 2 23
M  V30 25 1 6 24
M  V30 26 1 8 25
M  V30 27 1 8 26
M  V30 28 1 9 27
M  V30 29 1 10 28
M  V30 30 1 13 29
M  V30 31 1 13 30
M  V30 32 1 15 31
M  V30 33 1 16 32
M  V30 34 1 17 33
M  V30 35 1 18 34
M  V30 END BOND
M  V30 END CTAB
M  END
