
     RDKit          3D

  0  0  0  0  0  0  0  0  0  0999 V3000
M  V30 BEGIN CTAB
M  V30 COUNTS 22 23 0 0 0
M  V30 BEGIN ATOM
M  V30 1 N -3.69626 0.432121 0.75936 0
M  V30 2 C -2.72318 0.690774 -0.28775 0
M  V30 3 C -1.41001 0.0969932 0.135932 0
M  V30 4 C -0.212638 0.182934 -0.699931 0
M  V30 5 C -1.00383 -1.12039 -0.655616 0
M  V30 6 F -1.70082 -1.40583 -1.81088 0
M  V30 7 F -0.571168 -2.17593 0.077861 0
M  V30 8 C 1.12098 0.0757755 -0.0682361 0
M  V30 9 N 1.34291 -0.479326 1.13109 0
M  V30 10 N 2.6516 -0.421943 1.41445 0
M  V30 11 C 3.27524 0.170868 0.397133 0
M  V30 12 N 2.32056 0.474945 -0.514628 0
M  V30 13 N 4.66455 0.455814 0.241444 0
M  V30 14 H -4.51388 -0.094718 0.437634 0
M  V30 15 H -3.28296 0.022421 1.61093 0
M  V30 16 H -2.64371 1.78459 -0.391198 0
M  V30 17 H -3.11374 0.233526 -1.2299 0
M  V30 18 H -1.24695 0.10651 1.23515 0
M  V30 19 H -0.266341 0.752129 -1.66633 0
M  V30 20 H 0.669834 -0.906341 1.79959 0
M  V30 21 H 5.38182 -0.24958 0.483023 0
M  V30 22 H 4.95798 1.37465 -0.115715 0
M  V30 END ATOM
M  V30 BEGIN BOND
M  V30 1 1 1 2
M  V30 2 1 2 3
M  V30 3 1 3 4
M  V30 4 1 4 5
M  V30 5 1 5 6
M  V30 6 1 5 7
M  V30 7 1 4 8
M  V30 8 1 8 9
M  V30 9 1 9 10
M  V30 10 2 10 11
M  V30 11 1 11 12
M  V30 12 1 11 13
M  V30 13 1 5 3
M  V30 14 2 12 8
M  V30 15 1 1 14
M  V30 16 1 1 15
M  V30 17 1 2 16
M  V30 18 1 2 17
M  V30 19 1 3 18
M  V30 20 1 4 19
M  V30 21 1 9 20
M  V30 22 1 13 21
M  V30 23 1 13 22
M  V30 END BOND
M  V30 END CTAB
M  END
