
     RDKit          3D

  0  0  0  0  0  0  0  0  0  0999 V3000
M  V30 BEGIN CTAB
M  V30 COUNTS 9 8 0 0 0
M  V30 BEGIN ATOM
M  V30 1 H -1.23465 1.82508 0.0396967 0 MASS=2
M  V30 2 N -0.230035 1.54038 0.0572843 0
M  V30 3 C 0.0164604 0.277293 0.0128009 0
M  V30 4 N 1.37649 -0.163294 0.034348 0
M  V30 5 H 2.15265 0.506395 -0.158796 0 MASS=2
M  V30 6 H 1.65331 -1.14489 0.237672 0 MASS=2
M  V30 7 N -0.998438 -0.708782 -0.0570426 0
M  V30 8 H -0.821945 -1.66418 0.309389 0 MASS=2
M  V30 9 H -1.91384 -0.468012 -0.475353 0 MASS=2
M  V30 END ATOM
M  V30 BEGIN BOND
M  V30 1 1 1 2
M  V30 2 2 2 3
M  V30 3 1 3 4
M  V30 4 1 4 5
M  V30 5 1 4 6
M  V30 6 1 3 7
M  V30 7 1 7 8
M  V30 8 1 7 9
M  V30 END BOND
M  V30 END CTAB
M  END
