
     RDKit          3D

  0  0  0  0  0  0  0  0  0  0999 V3000
M  V30 BEGIN CTAB
M  V30 COUNTS 36 37 0 0 0
M  V30 BEGIN ATOM
M  V30 1 C 6.30511 2.66798 0.691264 0
M  V30 2 O 5.21885 1.7606 0.713382 0
M  V30 3 C 4.19946 1.80974 -0.199864 0
M  V30 4 O 4.18953 2.6653 -1.09532 0
M  V30 5 C 3.10374 0.842415 -0.123836 0
M  V30 6 C 2.00425 0.725517 -0.932708 0
M  V30 7 C 1.12084 -0.247938 -0.670821 0
M  V30 8 C 1.39195 -1.05837 0.398559 0
M  V30 9 S 0.505215 -2.45067 1.08633 0
M  V30 10 C 1.03263 -4.00628 0.319125 0
M  V30 11 S 2.86309 -0.439224 1.00129 0
M  V30 12 S -0.355313 -0.513532 -1.63736 0
M  V30 13 O -0.405578 0.43733 -2.79759 0
M  V30 14 O -0.281197 -1.89965 -2.26697 0
M  V30 15 C -1.79775 -0.341081 -0.690408 0
M  V30 16 C -2.32429 0.87304 -0.309146 0
M  V30 17 C -3.49019 0.974795 0.429438 0
M  V30 18 N -4.01818 2.24632 0.813849 0
M  V30 19 C -4.16726 -0.163327 0.809476 0
M  V30 20 N -5.38077 -0.0745278 1.57787 0
M  V30 21 C -3.66071 -1.38372 0.44016 0
M  V30 22 Cl -4.52629 -2.824 0.926572 0
M  V30 23 C -2.49933 -1.451 -0.294509 0
M  V30 24 H 6.76362 2.69 1.6929 0
M  V30 25 H 7.05544 2.35363 -0.0637346 0
M  V30 26 H 5.91314 3.66082 0.37947 0
M  V30 27 H 1.89147 1.44479 -1.77351 0
M  V30 28 H 1.81918 -4.44705 0.97179 0
M  V30 29 H 1.37547 -3.87696 -0.720371 0
M  V30 30 H 0.167058 -4.68636 0.316732 0
M  V30 31 H -1.80027 1.79388 -0.601587 0
M  V30 32 H -5.0288 2.4587 0.757669 0
M  V30 33 H -3.37518 2.98239 1.16024 0
M  V30 34 H -6.18578 -0.692259 1.35778 0
M  V30 35 H -5.47603 0.597707 2.35577 0
M  V30 36 H -2.14714 -2.42899 -0.572887 0
M  V30 END ATOM
M  V30 BEGIN BOND
M  V30 1 1 1 2
M  V30 2 1 2 3
M  V30 3 2 3 4
M  V30 4 1 3 5
M  V30 5 2 5 6
M  V30 6 1 6 7
M  V30 7 2 7 8
M  V30 8 1 8 9
M  V30 9 1 9 10
M  V30 10 1 8 11
M  V30 11 1 7 12
M  V30 12 2 12 13
M  V30 13 2 12 14
M  V30 14 1 12 15
M  V30 15 2 15 16
M  V30 16 1 16 17
M  V30 17 1 17 18
M  V30 18 2 17 19
M  V30 19 1 19 20
M  V30 20 1 19 21
M  V30 21 1 21 22
M  V30 22 2 21 23
M  V30 23 1 11 5
M  V30 24 1 23 15
M  V30 25 1 1 24
M  V30 26 1 1 25
M  V30 27 1 1 26
M  V30 28 1 6 27
M  V30 29 1 10 28
M  V30 30 1 10 29
M  V30 31 1 10 30
M  V30 32 1 16 31
M  V30 33 1 18 32
M  V30 34 1 18 33
M  V30 35 1 20 34
M  V30 36 1 20 35
M  V30 37 1 23 36
M  V30 END BOND
M  V30 END CTAB
M  END
