
     RDKit          3D

  0  0  0  0  0  0  0  0  0  0999 V3000
M  V30 BEGIN CTAB
M  V30 COUNTS 29 30 0 0 0
M  V30 BEGIN ATOM
M  V30 1 N -4.42982 1.45593 -0.140178 0
M  V30 2 C -3.23157 0.72659 -0.0358987 0
M  V30 3 C -3.21641 -0.615764 -0.363818 0
M  V30 4 N -4.39671 -1.27444 -0.806604 0
M  V30 5 C -2.00588 -1.26753 -0.237463 0
M  V30 6 C -0.860775 -0.637282 0.189983 0
M  V30 7 O 0.295474 -1.34164 0.290472 0
M  V30 8 C 1.51725 -0.884408 0.693342 0
M  V30 9 C 2.38284 -0.37609 -0.280174 0
M  V30 10 C 3.62801 0.106788 0.0150541 0
M  V30 11 C 4.04475 0.0903307 1.32975 0
M  V30 12 C 3.21209 -0.408556 2.33386 0
M  V30 13 C 1.96062 -0.888352 1.99941 0
M  V30 14 C 4.5149 0.628504 -0.988596 0
M  V30 15 C 5.26679 1.05114 -1.84523 0
M  V30 16 C -0.883396 0.697701 0.514314 0
M  V30 17 C -2.09127 1.37322 0.394451 0
M  V30 18 H -5.28442 1.02971 -0.5542 0
M  V30 19 H -4.51806 2.44065 0.186252 0
M  V30 20 H -4.35339 -1.95953 -1.59138 0
M  V30 21 H -5.3374 -1.1131 -0.384408 0
M  V30 22 H -2.00399 -2.33588 -0.50088 0
M  V30 23 H 2.07746 -0.352899 -1.31949 0
M  V30 24 H 5.04263 0.477399 1.56586 0
M  V30 25 H 3.5426 -0.419393 3.36145 0
M  V30 26 H 1.30143 -1.28092 2.77802 0
M  V30 27 H 5.93529 1.41886 -2.58983 0
M  V30 28 H 0.00631592 1.2328 0.857654 0
M  V30 29 H -2.11536 2.42616 0.648773 0
M  V30 END ATOM
M  V30 BEGIN BOND
M  V30 1 1 1 2
M  V30 2 2 2 3
M  V30 3 1 3 4
M  V30 4 1 3 5
M  V30 5 2 5 6
M  V30 6 1 6 7
M  V30 7 1 7 8
M  V30 8 2 8 9
M  V30 9 1 9 10
M  V30 10 2 10 11
M  V30 11 1 11 12
M  V30 12 2 12 13
M  V30 13 1 10 14
M  V30 14 3 14 15
M  V30 15 1 6 16
M  V30 16 2 16 17
M  V30 17 1 17 2
M  V30 18 1 13 8
M  V30 19 1 1 18
M  V30 20 1 1 19
M  V30 21 1 4 20
M  V30 22 1 4 21
M  V30 23 1 5 22
M  V30 24 1 9 23
M  V30 25 1 11 24
M  V30 26 1 12 25
M  V30 27 1 13 26
M  V30 28 1 15 27
M  V30 29 1 16 28
M  V30 30 1 17 29
M  V30 END BOND
M  V30 END CTAB
M  END
