
     RDKit          3D

  0  0  0  0  0  0  0  0  0  0999 V3000
M  V30 BEGIN CTAB
M  V30 COUNTS 30 32 0 0 0
M  V30 BEGIN ATOM
M  V30 1 N 0.529551 -2.57827 -1.0238 0
M  V30 2 C -0.0853646 -1.32509 -0.761122 0
M  V30 3 C 0.560556 -0.151825 -0.492197 0
M  V30 4 C 2.02514 0.119445 -0.400732 0
M  V30 5 C 2.59621 -0.384857 0.910341 0
M  V30 6 C 4.03292 -0.202254 1.17437 0
M  V30 7 C 3.04252 0.654981 1.9271 0
M  V30 8 N -0.398698 0.767462 -0.309417 0
M  V30 9 C -1.62712 0.229508 -0.450431 0
M  V30 10 N -1.41312 -1.07019 -0.730748 0
M  V30 11 N -2.4151 -2.01485 -0.956615 0
M  V30 12 C -2.94544 0.946743 -0.314721 0
M  V30 13 C -3.01828 2.15269 0.547438 0
M  V30 14 C -2.94911 2.34526 -0.924534 0
M  V30 15 H 1.29019 -2.67062 -1.75412 0
M  V30 16 H 0.288719 -3.46743 -0.538207 0
M  V30 17 H 2.55362 -0.387072 -1.23518 0
M  V30 18 H 2.23275 1.20803 -0.441257 0
M  V30 19 H 2.05041 -1.24334 1.37124 0
M  V30 20 H 4.67105 0.249761 0.388452 0
M  V30 21 H 4.54191 -1.0267 1.71292 0
M  V30 22 H 2.87945 0.446411 3.00906 0
M  V30 23 H 2.99654 1.72222 1.63856 0
M  V30 24 H -2.44231 -2.5545 -1.84855 0
M  V30 25 H -3.16131 -2.21546 -0.257303 0
M  V30 26 H -3.83865 0.327192 -0.513815 0
M  V30 27 H -3.99831 2.32498 1.05982 0
M  V30 28 H -2.16398 2.32814 1.21165 0
M  V30 29 H -1.97849 2.75904 -1.29801 0
M  V30 30 H -3.85625 2.7106 -1.43105 0
M  V30 END ATOM
M  V30 BEGIN BOND
M  V30 1 1 1 2
M  V30 2 2 2 3
M  V30 3 1 3 4
M  V30 4 1 4 5
M  V30 5 1 5 6
M  V30 6 1 6 7
M  V30 7 1 3 8
M  V30 8 2 8 9
M  V30 9 1 9 10
M  V30 10 1 10 11
M  V30 11 1 9 12
M  V30 12 1 12 13
M  V30 13 1 13 14
M  V30 14 1 10 2
M  V30 15 1 14 12
M  V30 16 1 7 5
M  V30 17 1 1 15
M  V30 18 1 1 16
M  V30 19 1 4 17
M  V30 20 1 4 18
M  V30 21 1 5 19
M  V30 22 1 6 20
M  V30 23 1 6 21
M  V30 24 1 7 22
M  V30 25 1 7 23
M  V30 26 1 11 24
M  V30 27 1 11 25
M  V30 28 1 12 26
M  V30 29 1 13 27
M  V30 30 1 13 28
M  V30 31 1 14 29
M  V30 32 1 14 30
M  V30 END BOND
M  V30 END CTAB
M  END
