
     RDKit          3D

  0  0  0  0  0  0  0  0  0  0999 V3000
M  V30 BEGIN CTAB
M  V30 COUNTS 79 82 0 0 0
M  V30 BEGIN ATOM
M  V30 1 C 0.953456 -3.25261 -0.484076 0
M  V30 2 C 0.416128 -1.83391 -0.413755 0 CFG=2
M  V30 3 C -0.85252 -1.80745 -1.23644 0
M  V30 4 N -1.33409 -0.430715 -1.3553 0
M  V30 5 C -0.380199 0.455638 -1.98849 0 CFG=1
M  V30 6 C -0.286521 1.83723 -1.48142 0
M  V30 7 C 0.0532998 2.03543 -0.0480821 0
M  V30 8 C 0.115174 3.53004 0.304195 0
M  V30 9 N -1.1117 4.21606 0.0835088 0
M  V30 10 C -1.15112 5.60687 0.383124 0
M  V30 11 N -0.0180926 6.45481 0.151795 0
M  V30 12 N -2.22935 6.10741 0.871612 0
M  V30 13 C 0.904488 -0.231865 -2.2498 0
M  V30 14 N 1.35861 -0.937779 -1.07778 0
M  V30 15 C 2.68609 -0.766715 -0.606704 0
M  V30 16 O 3.41632 0.0511406 -1.27049 0
M  V30 17 C 3.25563 -1.45685 0.57352 0
M  V30 18 C 4.66141 -1.01786 0.826499 0
M  V30 19 C 5.76407 -1.61702 0.264787 0
M  V30 20 C 7.06295 -1.21271 0.494591 0
M  V30 21 C 8.14984 -1.82809 -0.0783547 0
M  V30 22 C 9.43564 -1.42212 0.152466 0
M  V30 23 C 9.6187 -0.340042 1.00741 0
M  V30 24 C 8.54163 0.284373 1.58846 0
M  V30 25 C 7.23635 -0.127326 1.35385 0
M  V30 26 C 6.15808 0.492911 1.93077 0
M  V30 27 C 4.87995 0.0602709 1.6758 0
M  V30 28 C -2.58854 -0.0132504 -0.887223 0
M  V30 29 O -2.88508 1.21955 -1.15658 0
M  V30 30 C -3.63293 -0.692645 -0.150883 0 CFG=2
M  V30 31 N -3.42287 -1.97485 0.377503 0
M  V30 32 C -4.92121 -0.688654 -0.963234 0
M  V30 33 C -6.03849 -1.36359 -0.264234 0
M  V30 34 C -6.71992 -0.737145 0.756132 0
M  V30 35 C -6.39328 0.650816 1.20776 0
M  V30 36 C -7.75094 -1.42759 1.37317 0
M  V30 37 C -8.11638 -2.70385 1.00612 0
M  V30 38 Cl -9.42252 -3.53671 1.80777 0
M  V30 39 C -7.44088 -3.31956 -0.00293819 0
M  V30 40 C -6.39584 -2.64971 -0.644502 0
M  V30 41 H 1.23055 -3.65547 0.512844 0
M  V30 42 H 0.139972 -3.90887 -0.846534 0
M  V30 43 H 1.76563 -3.34388 -1.23535 0
M  V30 44 H 0.242615 -1.59073 0.641801 0
M  V30 45 H -0.489198 -2.04587 -2.29873 0
M  V30 46 H -1.57774 -2.56063 -1.02452 0
M  V30 47 H -0.843507 0.573036 -3.05395 0
M  V30 48 H 0.616696 2.31937 -2.03759 0
M  V30 49 H -1.09228 2.536 -1.76948 0
M  V30 50 H -0.689079 1.60958 0.661507 0
M  V30 51 H 1.02951 1.64487 0.280676 0
M  V30 52 H 0.894744 4.03132 -0.334081 0
M  V30 53 H 0.416528 3.63777 1.36665 0
M  V30 54 H -1.98331 3.79106 -0.277302 0
M  V30 55 H 0.705616 6.23872 -0.547297 0
M  V30 56 H 0.0827323 7.33037 0.710339 0
M  V30 57 H -2.27935 7.12287 1.09807 0
M  V30 58 H 0.892387 -0.888304 -3.14898 0
M  V30 59 H 1.73245 0.508163 -2.49817 0
M  V30 60 H 2.66154 -1.2439 1.48039 0
M  V30 61 H 3.3556 -2.56834 0.379498 0
M  V30 62 H 5.60744 -2.45816 -0.398469 0
M  V30 63 H 7.97751 -2.66142 -0.735896 0
M  V30 64 H 10.3045 -1.90551 -0.298837 0
M  V30 65 H 10.6184 0.0133923 1.21764 0
M  V30 66 H 8.63575 1.14059 2.26825 0
M  V30 67 H 6.33528 1.32517 2.58757 0
M  V30 68 H 4.0319 0.557691 2.13766 0
M  V30 69 H -3.87722 -0.0175661 0.738033 0
M  V30 70 H -3.27768 -2.07038 1.38736 0
M  V30 71 H -3.78367 -2.79085 -0.11945 0
M  V30 72 H -5.13125 0.383263 -1.18879 0
M  V30 73 H -4.80083 -1.17277 -1.95037 0
M  V30 74 H -6.00117 1.28865 0.411273 0
M  V30 75 H -7.37172 1.09615 1.51949 0
M  V30 76 H -5.75366 0.578038 2.10317 0
M  V30 77 H -8.30683 -0.952391 2.18696 0
M  V30 78 H -7.69289 -4.31271 -0.319725 0
M  V30 79 H -5.90132 -3.19024 -1.43621 0
M  V30 END ATOM
M  V30 BEGIN BOND
M  V30 1 1 1 2
M  V30 2 1 2 3
M  V30 3 1 3 4
M  V30 4 1 4 5
M  V30 5 1 5 6
M  V30 6 1 6 7
M  V30 7 1 7 8
M  V30 8 1 8 9
M  V30 9 1 9 10
M  V30 10 1 10 11
M  V30 11 2 10 12 CFG=2
M  V30 12 1 5 13
M  V30 13 1 13 14
M  V30 14 1 14 15
M  V30 15 2 15 16
M  V30 16 1 15 17
M  V30 17 1 17 18
M  V30 18 2 18 19
M  V30 19 1 19 20
M  V30 20 2 20 21
M  V30 21 1 21 22
M  V30 22 2 22 23
M  V30 23 1 23 24
M  V30 24 2 24 25
M  V30 25 1 25 26
M  V30 26 2 26 27
M  V30 27 1 4 28
M  V30 28 2 28 29
M  V30 29 1 28 30
M  V30 30 1 30 31
M  V30 31 1 30 32
M  V30 32 1 32 33
M  V30 33 2 33 34
M  V30 34 1 34 35
M  V30 35 1 34 36
M  V30 36 2 36 37
M  V30 37 1 37 38
M  V30 38 1 37 39
M  V30 39 2 39 40
M  V30 40 1 14 2
M  V30 41 1 27 18
M  V30 42 1 40 33
M  V30 43 1 25 20
M  V30 44 1 1 41
M  V30 45 1 1 42
M  V30 46 1 1 43
M  V30 47 1 2 44 CFG=1
M  V30 48 1 3 45
M  V30 49 1 3 46
M  V30 50 1 5 47 CFG=3
M  V30 51 1 6 48
M  V30 52 1 6 49
M  V30 53 1 7 50
M  V30 54 1 7 51
M  V30 55 1 8 52
M  V30 56 1 8 53
M  V30 57 1 9 54
M  V30 58 1 11 55
M  V30 59 1 11 56
M  V30 60 1 12 57
M  V30 61 1 13 58
M  V30 62 1 13 59
M  V30 63 1 17 60
M  V30 64 1 17 61
M  V30 65 1 19 62
M  V30 66 1 21 63
M  V30 67 1 22 64
M  V30 68 1 23 65
M  V30 69 1 24 66
M  V30 70 1 26 67
M  V30 71 1 27 68
M  V30 72 1 30 69 CFG=1
M  V30 73 1 31 70
M  V30 74 1 31 71
M  V30 75 1 32 72
M  V30 76 1 32 73
M  V30 77 1 35 74
M  V30 78 1 35 75
M  V30 79 1 35 76
M  V30 80 1 36 77
M  V30 81 1 39 78
M  V30 82 1 40 79
M  V30 END BOND
M  V30 END CTAB
M  END
