
     RDKit          3D

  0  0  0  0  0  0  0  0  0  0999 V3000
M  V30 BEGIN CTAB
M  V30 COUNTS 21 20 0 0 0
M  V30 BEGIN ATOM
M  V30 1 C 2.19679 -0.480912 -0.454889 0
M  V30 2 C 1.48153 -0.0870984 0.797351 0
M  V30 3 C 0.00952055 0.138882 0.620186 0
M  V30 4 C -0.647627 -1.11325 0.1246 0
M  V30 5 N -2.06322 -0.968091 -0.06792 0
M  V30 6 C -0.286824 1.32975 -0.25984 0
M  V30 7 N -1.67325 1.56406 -0.442211 0
M  V30 8 H 2.03741 -1.5803 -0.646805 0
M  V30 9 H 1.87725 0.0666535 -1.33398 0
M  V30 10 H 3.28892 -0.290971 -0.324713 0
M  V30 11 H 1.60473 -0.866325 1.58703 0
M  V30 12 H 1.95833 0.83699 1.22262 0
M  V30 13 H -0.4117 0.359741 1.62455 0
M  V30 14 H -0.48479 -1.91671 0.870512 0
M  V30 15 H -0.173956 -1.43866 -0.842661 0
M  V30 16 H -2.3633 -1.65056 -0.807458 0
M  V30 17 H -2.61926 -1.07087 0.800066 0
M  V30 18 H 0.184565 1.19968 -1.25243 0
M  V30 19 H 0.173787 2.22113 0.22687 0
M  V30 20 H -2.03931 2.4432 -0.0653894 0
M  V30 21 H -2.04958 1.30367 -1.37548 0
M  V30 END ATOM
M  V30 BEGIN BOND
M  V30 1 1 1 2
M  V30 2 1 2 3
M  V30 3 1 3 4
M  V30 4 1 4 5
M  V30 5 1 3 6
M  V30 6 1 6 7
M  V30 7 1 1 8
M  V30 8 1 1 9
M  V30 9 1 1 10
M  V30 10 1 2 11
M  V30 11 1 2 12
M  V30 12 1 3 13
M  V30 13 1 4 14
M  V30 14 1 4 15
M  V30 15 1 5 16
M  V30 16 1 5 17
M  V30 17 1 6 18
M  V30 18 1 6 19
M  V30 19 1 7 20
M  V30 20 1 7 21
M  V30 END BOND
M  V30 END CTAB
M  END
