
     RDKit          3D

  0  0  0  0  0  0  0  0  0  0999 V3000
M  V30 BEGIN CTAB
M  V30 COUNTS 29 29 0 0 0
M  V30 BEGIN ATOM
M  V30 1 N -2.41893 2.1669 0.816196 0
M  V30 2 C -1.20218 1.3878 1.10342 0
M  V30 3 C -0.784129 0.781219 -0.214663 0
M  V30 4 C -1.93661 -0.0915438 -0.680576 0
M  V30 5 C -2.05496 -1.33808 0.136431 0
M  V30 6 C -0.773252 -2.0942 0.133652 0
M  V30 7 C 0.399436 -1.37682 -0.437118 0
M  V30 8 N 0.439389 0.0312256 -0.135142 0
M  V30 9 C 1.66139 0.624886 0.223341 0
M  V30 10 O 1.76567 1.86794 0.500332 0
M  V30 11 C 2.94243 -0.142816 0.311856 0
M  V30 12 N 4.05889 0.689506 0.697639 0
M  V30 13 H -2.17984 2.68433 -0.0837716 0
M  V30 14 H -2.5398 2.94014 1.52323 0
M  V30 15 H -0.440413 1.98732 1.5898 0
M  V30 16 H -1.5285 0.601654 1.81515 0
M  V30 17 H -0.650507 1.56163 -0.99187 0
M  V30 18 H -2.88763 0.485201 -0.537504 0
M  V30 19 H -1.8706 -0.325467 -1.74948 0
M  V30 20 H -2.39877 -1.12444 1.16778 0
M  V30 21 H -2.87015 -1.95255 -0.323871 0
M  V30 22 H -0.581746 -2.45835 1.1823 0
M  V30 23 H -0.902371 -3.04147 -0.467464 0
M  V30 24 H 0.374674 -1.44887 -1.56296 0
M  V30 25 H 1.32002 -1.90564 -0.0504809 0
M  V30 26 H 3.20989 -0.575507 -0.693934 0
M  V30 27 H 2.83333 -1.0241 0.984747 0
M  V30 28 H 4.08556 0.891212 1.72015 0
M  V30 29 H 4.9297 0.19889 0.439602 0
M  V30 END ATOM
M  V30 BEGIN BOND
M  V30 1 1 1 2
M  V30 2 1 2 3
M  V30 3 1 3 4
M  V30 4 1 4 5
M  V30 5 1 5 6
M  V30 6 1 6 7
M  V30 7 1 7 8
M  V30 8 1 8 9
M  V30 9 2 9 10
M  V30 10 1 9 11
M  V30 11 1 11 12
M  V30 12 1 8 3
M  V30 13 1 1 13
M  V30 14 1 1 14
M  V30 15 1 2 15
M  V30 16 1 2 16
M  V30 17 1 3 17
M  V30 18 1 4 18
M  V30 19 1 4 19
M  V30 20 1 5 20
M  V30 21 1 5 21
M  V30 22 1 6 22
M  V30 23 1 6 23
M  V30 24 1 7 24
M  V30 25 1 7 25
M  V30 26 1 11 26
M  V30 27 1 11 27
M  V30 28 1 12 28
M  V30 29 1 12 29
M  V30 END BOND
M  V30 END CTAB
M  END
