
     RDKit          3D

  0  0  0  0  0  0  0  0  0  0999 V3000
M  V30 BEGIN CTAB
M  V30 COUNTS 20 20 0 0 0
M  V30 BEGIN ATOM
M  V30 1 N -3.32489 -0.239807 2.05395 0
M  V30 2 C -2.9002 -0.268939 0.970413 0
M  V30 3 C -2.34614 -0.327603 -0.39485 0
M  V30 4 C -0.848407 -0.283318 -0.276281 0
M  V30 5 C -0.158562 -1.45599 -0.410927 0
M  V30 6 C 1.21035 -1.49096 -0.300692 0
M  V30 7 C 1.9262 -0.325084 -0.0477691 0
M  V30 8 C 1.1987 0.835839 0.0810752 0
M  V30 9 C -0.183394 0.90067 -0.0262274 0
M  V30 10 N -0.901907 2.12404 0.104923 0
M  V30 11 F 1.84916 1.99092 0.325985 0
M  V30 12 N 3.34241 -0.368301 0.0719994 0
M  V30 13 H -2.71586 0.569503 -0.923042 0
M  V30 14 H -2.65079 -1.27869 -0.86801 0
M  V30 15 H -0.652273 -2.41363 -0.611725 0
M  V30 16 H 1.74993 -2.42778 -0.408877 0
M  V30 17 H -1.1706 2.72209 -0.71457 0
M  V30 18 H -1.1755 2.44829 1.0558 0
M  V30 19 H 3.76344 0.138077 0.889754 0
M  V30 20 H 3.98833 -0.849328 -0.570931 0
M  V30 END ATOM
M  V30 BEGIN BOND
M  V30 1 3 1 2
M  V30 2 1 2 3
M  V30 3 1 3 4
M  V30 4 2 4 5
M  V30 5 1 5 6
M  V30 6 2 6 7
M  V30 7 1 7 8
M  V30 8 2 8 9
M  V30 9 1 9 10
M  V30 10 1 8 11
M  V30 11 1 7 12
M  V30 12 1 9 4
M  V30 13 1 3 13
M  V30 14 1 3 14
M  V30 15 1 5 15
M  V30 16 1 6 16
M  V30 17 1 10 17
M  V30 18 1 10 18
M  V30 19 1 12 19
M  V30 20 1 12 20
M  V30 END BOND
M  V30 END CTAB
M  END
