
     RDKit          3D

  0  0  0  0  0  0  0  0  0  0999 V3000
M  V30 BEGIN CTAB
M  V30 COUNTS 20 20 0 0 0
M  V30 BEGIN ATOM
M  V30 1 C 3.56379 -0.255448 0.0641805 0
M  V30 2 C 2.07565 -0.251753 0.0391621 0
M  V30 3 N 1.42401 -1.41658 0.0259271 0
M  V30 4 C 0.0797887 -1.52681 0.00313105 0
M  V30 5 C -0.686588 -0.385644 -0.00749967 0
M  V30 6 C -0.0137052 0.83043 0.00618895 0
M  V30 7 N 1.33721 0.858097 0.0289358 0
M  V30 8 N -0.760949 2.0357 -0.00401986 0
M  V30 9 C -2.13775 -0.45178 -0.0319388 0
M  V30 10 N -2.75301 -1.57427 -0.0445102 0
M  V30 11 N -2.90925 0.735274 -0.0424135 0
M  V30 12 H 3.97771 -1.10107 0.619309 0
M  V30 13 H 3.98228 0.670634 0.494006 0
M  V30 14 H 3.94554 -0.337986 -0.990162 0
M  V30 15 H -0.351974 -2.53228 -0.0060975 0
M  V30 16 H -0.896454 2.51928 -0.910063 0
M  V30 17 H -1.14033 2.3826 0.894928 0
M  V30 18 H -2.36784 -2.51653 -0.0399643 0
M  V30 19 H -3.30603 1.09582 0.845106 0
M  V30 20 H -3.06209 1.22231 -0.944205 0
M  V30 END ATOM
M  V30 BEGIN BOND
M  V30 1 1 1 2
M  V30 2 2 2 3
M  V30 3 1 3 4
M  V30 4 2 4 5
M  V30 5 1 5 6
M  V30 6 2 6 7
M  V30 7 1 6 8
M  V30 8 1 5 9
M  V30 9 2 9 10 CFG=2
M  V30 10 1 9 11
M  V30 11 1 7 2
M  V30 12 1 1 12
M  V30 13 1 1 13
M  V30 14 1 1 14
M  V30 15 1 4 15
M  V30 16 1 8 16
M  V30 17 1 8 17
M  V30 18 1 10 18
M  V30 19 1 11 19
M  V30 20 1 11 20
M  V30 END BOND
M  V30 END CTAB
M  END
