
     RDKit          3D

  0  0  0  0  0  0  0  0  0  0999 V3000
M  V30 BEGIN CTAB
M  V30 COUNTS 21 21 0 0 0
M  V30 BEGIN ATOM
M  V30 1 N 3.69604 -0.0337434 0.514864 0
M  V30 2 C 2.38013 -0.335997 0.103501 0
M  V30 3 N 1.99625 -1.14891 -0.869899 0
M  V30 4 N 0.671386 -1.12989 -0.937907 0
M  V30 5 C 0.181759 -0.305241 -0.016992 0
M  V30 6 N 1.2701 0.199669 0.64455 0
M  V30 7 C -1.19335 0.0969251 0.286372 0
M  V30 8 C -1.19202 1.62507 0.249703 0
M  V30 9 F -0.319714 2.0672 1.21665 0
M  V30 10 F -0.653186 2.00719 -0.957992 0
M  V30 11 F -2.41884 2.14748 0.483223 0
M  V30 12 N -1.54963 -0.322998 1.63494 0
M  V30 13 C -2.19732 -0.49223 -0.669987 0
M  V30 14 H 4.05141 -0.33012 1.45503 0
M  V30 15 H 4.35536 0.489118 -0.113643 0
M  V30 16 H 2.66249 -1.70971 -1.49031 0
M  V30 17 H -2.26903 0.379227 1.9903 0
M  V30 18 H -2.06117 -1.22532 1.56891 0
M  V30 19 H -2.04694 -0.169635 -1.71173 0
M  V30 20 H -2.13981 -1.60192 -0.540624 0
M  V30 21 H -3.22391 -0.206162 -0.296269 0
M  V30 END ATOM
M  V30 BEGIN BOND
M  V30 1 1 1 2
M  V30 2 1 2 3
M  V30 3 1 3 4
M  V30 4 2 4 5
M  V30 5 1 5 6
M  V30 6 1 5 7
M  V30 7 1 7 8
M  V30 8 1 8 9
M  V30 9 1 8 10
M  V30 10 1 8 11
M  V30 11 1 7 12
M  V30 12 1 7 13
M  V30 13 2 6 2
M  V30 14 1 1 14
M  V30 15 1 1 15
M  V30 16 1 3 16
M  V30 17 1 12 17
M  V30 18 1 12 18
M  V30 19 1 13 19
M  V30 20 1 13 20
M  V30 21 1 13 21
M  V30 END BOND
M  V30 END CTAB
M  END
