
     RDKit          3D

  0  0  0  0  0  0  0  0  0  0999 V3000
M  V30 BEGIN CTAB
M  V30 COUNTS 23 22 0 0 0
M  V30 BEGIN ATOM
M  V30 1 N 3.52276 0.625018 0.271337 0
M  V30 2 C 2.67369 -0.454121 0.611178 0
M  V30 3 N 3.22414 -1.59571 0.845562 0
M  V30 4 N 1.26548 -0.255886 0.685638 0
M  V30 5 C 0.589776 0.683616 -0.160669 0
M  V30 6 C -0.873533 0.771767 -0.0606643 0
M  V30 7 C -1.68385 -0.424507 -0.404697 0 CFG=2
M  V30 8 C -3.15047 -0.110653 -0.241164 0
M  V30 9 O -3.87155 -0.783744 0.513928 0
M  V30 10 O -3.66152 0.961673 -0.969191 0
M  V30 11 N -1.42469 -1.55392 0.453538 0
M  V30 12 H 3.66989 0.929319 -0.724482 0
M  V30 13 H 4.04899 1.17545 0.99706 0
M  V30 14 H 4.23604 -1.74932 0.796369 0
M  V30 15 H 0.73158 -0.798282 1.38049 0
M  V30 16 H 0.955756 0.501585 -1.20417 0
M  V30 17 H 0.998755 1.69908 0.148157 0
M  V30 18 H -1.14903 1.14183 0.969893 0
M  V30 19 H -1.21614 1.61099 -0.741639 0
M  V30 20 H -1.53972 -0.738898 -1.47704 0
M  V30 21 H -3.5633 1.90326 -0.586098 0
M  V30 22 H -1.6341 -1.24195 1.43093 0
M  V30 23 H -2.14897 -2.29659 0.236481 0
M  V30 END ATOM
M  V30 BEGIN BOND
M  V30 1 1 1 2
M  V30 2 2 2 3 CFG=2
M  V30 3 1 2 4
M  V30 4 1 4 5
M  V30 5 1 5 6
M  V30 6 1 6 7
M  V30 7 1 7 8
M  V30 8 2 8 9
M  V30 9 1 8 10
M  V30 10 1 7 11
M  V30 11 1 1 12
M  V30 12 1 1 13
M  V30 13 1 3 14
M  V30 14 1 4 15
M  V30 15 1 5 16
M  V30 16 1 5 17
M  V30 17 1 6 18
M  V30 18 1 6 19
M  V30 19 1 7 20 CFG=3
M  V30 20 1 10 21
M  V30 21 1 11 22
M  V30 22 1 11 23
M  V30 END BOND
M  V30 END CTAB
M  END
