
     RDKit          3D

  0  0  0  0  0  0  0  0  0  0999 V3000
M  V30 BEGIN CTAB
M  V30 COUNTS 44 44 0 0 0
M  V30 BEGIN ATOM
M  V30 1 C -5.48191 0.095557 1.01976 0
M  V30 2 C -4.51346 1.16017 0.549113 0
M  V30 3 C -3.3224 0.471654 -0.0309676 0
M  V30 4 C -2.27841 1.45713 -0.538474 0
M  V30 5 C -1.10652 0.742909 -1.10925 0
M  V30 6 O -0.844936 0.92706 -2.32526 0
M  V30 7 N -0.282806 -0.12037 -0.365775 0
M  V30 8 C 0.831152 -0.775944 -0.982181 0
M  V30 9 C 2.15381 -0.415592 -0.350739 0
M  V30 10 C 2.43532 1.06643 -0.437582 0
M  V30 11 C 3.7639 1.31168 0.232367 0
M  V30 12 C 4.50066 0.0216162 0.515654 0
M  V30 13 C 3.75935 -0.904724 1.41745 0
M  V30 14 C 2.26765 -0.815504 1.08032 0
M  V30 15 C 0.574288 -2.25834 -0.956658 0
M  V30 16 N 1.62782 -3.03467 -1.54962 0
M  V30 17 N -2.92773 2.27103 -1.54665 0
M  V30 18 H -6.53512 0.424467 0.883975 0
M  V30 19 H -5.37131 -0.82703 0.415021 0
M  V30 20 H -5.33485 -0.158494 2.08884 0
M  V30 21 H -4.27981 1.78778 1.42793 0
M  V30 22 H -5.07016 1.76412 -0.215908 0
M  V30 23 H -3.66424 -0.129984 -0.896132 0
M  V30 24 H -2.88405 -0.175197 0.741947 0
M  V30 25 H -1.97361 2.15294 0.275744 0
M  V30 26 H -0.491792 -0.27672 0.634923 0
M  V30 27 H 0.862491 -0.460642 -2.05724 0
M  V30 28 H 2.94013 -0.929627 -0.941243 0
M  V30 29 H 1.67593 1.66652 0.115405 0
M  V30 30 H 2.53275 1.37937 -1.5004 0
M  V30 31 H 3.66296 1.86137 1.17073 0
M  V30 32 H 4.44748 1.91093 -0.433534 0
M  V30 33 H 4.8518 -0.443665 -0.421628 0
M  V30 34 H 5.44144 0.326494 1.06101 0
M  V30 35 H 3.94086 -0.660697 2.48188 0
M  V30 36 H 4.1139 -1.94721 1.24667 0
M  V30 37 H 1.72915 -1.71424 1.3707 0
M  V30 38 H 1.89254 0.048574 1.69729 0
M  V30 39 H 0.431874 -2.60583 0.0853205 0
M  V30 40 H -0.345497 -2.45757 -1.54271 0
M  V30 41 H 1.2913 -4.01276 -1.64686 0
M  V30 42 H 1.98507 -2.64063 -2.44511 0
M  V30 43 H -3.3021 3.15196 -1.16935 0
M  V30 44 H -3.70289 1.7657 -2.03357 0
M  V30 END ATOM
M  V30 BEGIN BOND
M  V30 1 1 1 2
M  V30 2 1 2 3
M  V30 3 1 3 4
M  V30 4 1 4 5
M  V30 5 2 5 6
M  V30 6 1 5 7
M  V30 7 1 7 8
M  V30 8 1 8 9
M  V30 9 1 9 10
M  V30 10 1 10 11
M  V30 11 1 11 12
M  V30 12 1 12 13
M  V30 13 1 13 14
M  V30 14 1 8 15
M  V30 15 1 15 16
M  V30 16 1 4 17
M  V30 17 1 14 9
M  V30 18 1 1 18
M  V30 19 1 1 19
M  V30 20 1 1 20
M  V30 21 1 2 21
M  V30 22 1 2 22
M  V30 23 1 3 23
M  V30 24 1 3 24
M  V30 25 1 4 25
M  V30 26 1 7 26
M  V30 27 1 8 27
M  V30 28 1 9 28
M  V30 29 1 10 29
M  V30 30 1 10 30
M  V30 31 1 11 31
M  V30 32 1 11 32
M  V30 33 1 12 33
M  V30 34 1 12 34
M  V30 35 1 13 35
M  V30 36 1 13 36
M  V30 37 1 14 37
M  V30 38 1 14 38
M  V30 39 1 15 39
M  V30 40 1 15 40
M  V30 41 1 16 41
M  V30 42 1 16 42
M  V30 43 1 17 43
M  V30 44 1 17 44
M  V30 END BOND
M  V30 END CTAB
M  END
