
     RDKit          3D

  0  0  0  0  0  0  0  0  0  0999 V3000
M  V30 BEGIN CTAB
M  V30 COUNTS 21 22 0 0 0
M  V30 BEGIN ATOM
M  V30 1 N -0.786029 -2.02093 -0.258018 0
M  V30 2 C -0.533124 -0.592722 -0.40625 0
M  V30 3 C 0.877364 -0.371214 0.0248065 0
M  V30 4 O 1.45179 -0.87313 1.09451 0
M  V30 5 N 2.6748 -0.45633 1.1289 0
M  V30 6 C 2.9154 0.325837 0.0783579 0
M  V30 7 N 1.78155 0.39467 -0.640989 0
M  V30 8 N 4.13846 0.983463 -0.250886 0
M  V30 9 C -1.43778 0.182482 0.509042 0
M  V30 10 C -2.90298 0.0167328 0.306762 0
M  V30 11 C -2.20686 1.34582 0.0491714 0
M  V30 12 H -1.81158 -2.2116 -0.15736 0
M  V30 13 H -0.267498 -2.37759 0.593081 0
M  V30 14 H -0.637634 -0.302883 -1.4691 0
M  V30 15 H 4.82466 0.647006 -0.931662 0
M  V30 16 H 4.32854 1.87652 0.254083 0
M  V30 17 H -1.05437 0.229033 1.55899 0
M  V30 18 H -3.51311 -0.118288 1.19738 0
M  V30 19 H -3.28203 -0.471217 -0.610106 0
M  V30 20 H -2.07417 1.6775 -0.998136 0
M  V30 21 H -2.48539 2.11684 0.791767 0
M  V30 END ATOM
M  V30 BEGIN BOND
M  V30 1 1 1 2
M  V30 2 1 2 3
M  V30 3 1 3 4
M  V30 4 1 4 5
M  V30 5 2 5 6
M  V30 6 1 6 7
M  V30 7 1 6 8
M  V30 8 1 2 9
M  V30 9 1 9 10
M  V30 10 1 10 11
M  V30 11 2 7 3
M  V30 12 1 11 9
M  V30 13 1 1 12
M  V30 14 1 1 13
M  V30 15 1 2 14
M  V30 16 1 8 15
M  V30 17 1 8 16
M  V30 18 1 9 17
M  V30 19 1 10 18
M  V30 20 1 10 19
M  V30 21 1 11 20
M  V30 22 1 11 21
M  V30 END BOND
M  V30 END CTAB
M  END
