
     RDKit          3D

  0  0  0  0  0  0  0  0  0  0999 V3000
M  V30 BEGIN CTAB
M  V30 COUNTS 57 59 0 0 0
M  V30 BEGIN ATOM
M  V30 1 C -4.56291 -4.88423 0.684933 0
M  V30 2 C -5.36842 -4.13944 -0.360862 0
M  V30 3 C -5.15972 -2.64424 -0.137147 0
M  V30 4 O -3.7572 -2.42014 -0.234307 0
M  V30 5 C -3.20425 -1.17471 -0.0767869 0
M  V30 6 C -1.84452 -0.998263 -0.126493 0
M  V30 7 C -1.32982 0.230643 0.0618893 0
M  V30 8 N -0.027367 0.676148 0.0866048 0
M  V30 9 C 1.16553 0.659821 -0.638783 0
M  V30 10 C 2.17657 -0.347885 -0.498617 0
M  V30 11 C 3.46509 0.223161 -0.237646 0
M  V30 12 C 3.64792 1.68642 -0.353074 0
M  V30 13 C 4.51199 -0.645886 -0.0908959 0
M  V30 14 C 4.31639 -2.03433 -0.216743 0
M  V30 15 N 3.10027 -2.51935 -0.463853 0
M  V30 16 C 2.04332 -1.66672 -0.601423 0
M  V30 17 N 5.43464 -2.78363 -0.0356364 0
M  V30 18 C 6.62818 -2.27205 0.261533 0
M  V30 19 N 7.78775 -3.16882 0.365357 0
M  V30 20 N 6.79442 -0.964292 0.409595 0
M  V30 21 C 5.73571 -0.149842 0.237315 0
M  V30 22 N 5.82499 1.19352 0.724117 0
M  V30 23 C -2.21913 1.36309 0.309145 0
M  V30 24 O -1.70798 2.53677 0.514348 0
M  V30 25 C -1.23244 3.6986 0.717911 0
M  V30 26 C -2.19585 4.85293 1.03653 0
M  V30 27 C -3.02104 5.2804 -0.151689 0
M  V30 28 C -3.5777 1.14228 0.34521 0
M  V30 29 C -4.04709 -0.117545 0.156226 0
M  V30 30 H -5.23101 -5.54909 1.25483 0
M  V30 31 H -4.03948 -4.21595 1.38898 0
M  V30 32 H -3.76264 -5.52783 0.238512 0
M  V30 33 H -6.44282 -4.34509 -0.258582 0
M  V30 34 H -4.95107 -4.36278 -1.3707 0
M  V30 35 H -5.72284 -1.99227 -0.781081 0
M  V30 36 H -5.40576 -2.4938 0.965553 0
M  V30 37 H -1.19263 -1.86697 -0.319006 0
M  V30 38 H 0.187163 1.18075 1.13259 0
M  V30 39 H 0.682312 0.275175 -1.73636 0
M  V30 40 H 1.40498 1.66962 -0.966173 0
M  V30 41 H 2.90702 1.99368 -1.19368 0
M  V30 42 H 3.38322 2.33097 0.448091 0
M  V30 43 H 4.55517 1.98808 -0.98755 0
M  V30 44 H 1.08369 -2.07641 -0.834411 0
M  V30 45 H 8.65055 -2.74412 -0.0746822 0
M  V30 46 H 7.74588 -4.09107 0.775441 0
M  V30 47 H 6.37576 1.95595 0.370148 0
M  V30 48 H 5.2159 1.37176 1.60459 0
M  V30 49 H -0.570777 4.0552 -0.152797 0
M  V30 50 H -0.506902 3.72173 1.6101 0
M  V30 51 H -1.68693 5.6727 1.51111 0
M  V30 52 H -2.94101 4.3751 1.77427 0
M  V30 53 H -3.81273 5.98375 0.205967 0
M  V30 54 H -3.50862 4.48534 -0.692174 0
M  V30 55 H -2.36707 5.91094 -0.822028 0
M  V30 56 H -4.31265 1.94809 0.502499 0
M  V30 57 H -5.11404 -0.265868 0.198088 0
M  V30 END ATOM
M  V30 BEGIN BOND
M  V30 1 1 1 2
M  V30 2 1 2 3
M  V30 3 1 3 4
M  V30 4 1 4 5
M  V30 5 2 5 6
M  V30 6 1 6 7
M  V30 7 1 7 8
M  V30 8 1 8 9
M  V30 9 1 9 10
M  V30 10 2 10 11
M  V30 11 1 11 12
M  V30 12 1 11 13
M  V30 13 2 13 14
M  V30 14 1 14 15
M  V30 15 2 15 16
M  V30 16 1 14 17
M  V30 17 2 17 18
M  V30 18 1 18 19
M  V30 19 1 18 20
M  V30 20 2 20 21
M  V30 21 1 21 22
M  V30 22 2 7 23
M  V30 23 1 23 24
M  V30 24 1 24 25
M  V30 25 1 25 26
M  V30 26 1 26 27
M  V30 27 1 23 28
M  V30 28 2 28 29
M  V30 29 1 29 5
M  V30 30 1 16 10
M  V30 31 1 21 13
M  V30 32 1 1 30
M  V30 33 1 1 31
M  V30 34 1 1 32
M  V30 35 1 2 33
M  V30 36 1 2 34
M  V30 37 1 3 35
M  V30 38 1 3 36
M  V30 39 1 6 37
M  V30 40 1 8 38
M  V30 41 1 9 39
M  V30 42 1 9 40
M  V30 43 1 12 41
M  V30 44 1 12 42
M  V30 45 1 12 43
M  V30 46 1 16 44
M  V30 47 1 19 45
M  V30 48 1 19 46
M  V30 49 1 22 47
M  V30 50 1 22 48
M  V30 51 1 25 49
M  V30 52 1 25 50
M  V30 53 1 26 51
M  V30 54 1 26 52
M  V30 55 1 27 53
M  V30 56 1 27 54
M  V30 57 1 27 55
M  V30 58 1 28 56
M  V30 59 1 29 57
M  V30 END BOND
M  V30 END CTAB
M  END
