
     RDKit          3D

  0  0  0  0  0  0  0  0  0  0999 V3000
M  V30 BEGIN CTAB
M  V30 COUNTS 39 41 0 0 0
M  V30 BEGIN ATOM
M  V30 1 C -3.83278 -2.27489 -1.21073 0
M  V30 2 C -3.53066 -1.64507 0.126521 0
M  V30 3 C -3.19136 -0.19766 0.0243519 0
M  V30 4 C -4.22448 0.70891 -0.0803141 0
M  V30 5 C -5.60165 0.235795 -0.0801407 0
M  V30 6 N -6.68652 -0.154215 -0.0919092 0
M  V30 7 C -4.06852 2.06078 -0.188105 0
M  V30 8 N -5.15717 2.96385 -0.293947 0
M  V30 9 N -2.79439 2.49406 -0.188046 0
M  V30 10 C -1.74012 1.62641 -0.0869086 0
M  V30 11 C -1.85888 0.268441 0.0220637 0
M  V30 12 C -0.696937 -0.437088 0.101698 0
M  V30 13 N -0.612443 -1.89253 0.199285 0
M  V30 14 C 0.463915 0.275052 0.0671264 0
M  V30 15 S -0.0521544 1.88384 -0.0738104 0
M  V30 16 C 1.86435 -0.254116 0.142244 0
M  V30 17 O 2.0311 -1.45499 0.254499 0
M  V30 18 N 2.87213 0.726697 0.072315 0
M  V30 19 C 4.23738 0.436598 0.123732 0
M  V30 20 C 4.8115 -0.806201 0.158781 0
M  V30 21 C 6.2034 -0.954721 0.216996 0
M  V30 22 C 7.05119 0.125823 0.241125 0
M  V30 23 C 6.47322 1.36967 0.205669 0
M  V30 24 C 5.11617 1.53551 0.148839 0
M  V30 25 Br 8.94235 -0.0988152 0.320344 0
M  V30 26 H -4.86579 -2.17372 -1.53935 0
M  V30 27 H -3.1745 -1.78969 -1.97857 0
M  V30 28 H -3.57483 -3.3561 -1.19359 0
M  V30 29 H -4.55082 -1.66938 0.652674 0
M  V30 30 H -2.88349 -2.18144 0.791507 0
M  V30 31 H -5.55489 3.37717 0.55987 0
M  V30 32 H -5.54084 3.20001 -1.21829 0
M  V30 33 H -0.449061 -2.34254 1.11917 0
M  V30 34 H -0.712358 -2.49497 -0.635945 0
M  V30 35 H 2.5787 1.7629 -0.0301975 0
M  V30 36 H 4.21676 -1.70324 0.138358 0
M  V30 37 H 6.62663 -1.94712 0.24406 0
M  V30 38 H 7.15142 2.2222 0.224424 0
M  V30 39 H 4.71443 2.55478 0.122507 0
M  V30 END ATOM
M  V30 BEGIN BOND
M  V30 1 1 1 2
M  V30 2 1 2 3
M  V30 3 2 3 4
M  V30 4 1 4 5
M  V30 5 3 5 6
M  V30 6 1 4 7
M  V30 7 1 7 8
M  V30 8 2 7 9
M  V30 9 1 9 10
M  V30 10 2 10 11
M  V30 11 1 11 12
M  V30 12 1 12 13
M  V30 13 2 12 14
M  V30 14 1 14 15
M  V30 15 1 14 16
M  V30 16 2 16 17
M  V30 17 1 16 18
M  V30 18 1 18 19
M  V30 19 2 19 20
M  V30 20 1 20 21
M  V30 21 2 21 22
M  V30 22 1 22 23
M  V30 23 2 23 24
M  V30 24 1 22 25
M  V30 25 1 11 3
M  V30 26 1 24 19
M  V30 27 1 15 10
M  V30 28 1 1 26
M  V30 29 1 1 27
M  V30 30 1 1 28
M  V30 31 1 2 29
M  V30 32 1 2 30
M  V30 33 1 8 31
M  V30 34 1 8 32
M  V30 35 1 13 33
M  V30 36 1 13 34
M  V30 37 1 18 35
M  V30 38 1 20 36
M  V30 39 1 21 37
M  V30 40 1 23 38
M  V30 41 1 24 39
M  V30 END BOND
M  V30 END CTAB
M  END
