
     RDKit          3D

  0  0  0  0  0  0  0  0  0  0999 V3000
M  V30 BEGIN CTAB
M  V30 COUNTS 78 77 0 0 0
M  V30 BEGIN ATOM
M  V30 1 N -9.18897 4.44221 -1.8117 0
M  V30 2 C -9.67685 3.28057 -1.09675 0
M  V30 3 C -8.69159 2.14318 -1.27079 0
M  V30 4 C -7.36985 2.55925 -0.724872 0
M  V30 5 C -6.31499 1.47562 -0.844959 0
M  V30 6 C -6.67733 0.234425 -0.112954 0
M  V30 7 C -5.60447 -0.811469 -0.288466 0
M  V30 8 C -4.25946 -0.394453 0.232489 0
M  V30 9 C -3.18983 -1.41305 0.0650824 0
M  V30 10 C -3.45108 -2.70521 0.765469 0
M  V30 11 N -3.59241 -2.53323 2.14554 0
M  V30 12 C -2.54133 -2.14287 2.97634 0
M  V30 13 C -1.46945 -3.15207 3.15969 0
M  V30 14 S -0.546574 -3.63048 1.71082 0
M  V30 15 S 0.694894 -2.07625 0.948173 0
M  V30 16 C 2.35979 -2.17815 1.71752 0
M  V30 17 C 3.05622 -3.42678 1.29413 0
M  V30 18 N 3.2861 -3.67158 -0.0580089 0
M  V30 19 C 4.24065 -2.97286 -0.799598 0
M  V30 20 C 3.99084 -1.53112 -1.08866 0
M  V30 21 C 5.11831 -1.00989 -1.97676 0
M  V30 22 C 6.4628 -1.14509 -1.36178 0
M  V30 23 C 6.64937 -0.441826 -0.0762501 0
M  V30 24 C 6.44242 1.05535 -0.162 0
M  V30 25 C 7.42503 1.64436 -1.10392 0
M  V30 26 C 7.40614 3.11018 -1.32044 0
M  V30 27 C 7.65756 3.98742 -0.15074 0
M  V30 28 N 6.6819 3.85664 0.897973 0
M  V30 29 H -8.47529 4.21473 -2.52831 0
M  V30 30 H -8.73213 5.123 -1.15785 0
M  V30 31 H -9.67437 3.55568 -0.000792307 0
M  V30 32 H -10.7029 2.98141 -1.41405 0
M  V30 33 H -9.09891 1.22698 -0.798384 0
M  V30 34 H -8.63833 1.94544 -2.38016 0
M  V30 35 H -7.4406 2.88725 0.333311 0
M  V30 36 H -6.99281 3.42162 -1.30838 0
M  V30 37 H -6.05602 1.25568 -1.87657 0
M  V30 38 H -5.39346 1.91084 -0.352269 0
M  V30 39 H -6.76599 0.386195 0.991161 0
M  V30 40 H -7.62756 -0.217996 -0.44613 0
M  V30 41 H -5.93319 -1.79359 0.143565 0
M  V30 42 H -5.4443 -1.048 -1.37957 0
M  V30 43 H -4.40882 -0.0996654 1.2971 0
M  V30 44 H -3.955 0.539374 -0.301347 0
M  V30 45 H -3.07518 -1.61235 -1.02267 0
M  V30 46 H -2.24173 -0.992751 0.441761 0
M  V30 47 H -4.46068 -3.09112 0.382077 0
M  V30 48 H -2.73801 -3.46598 0.397492 0
M  V30 49 H -4.22154 -3.21852 2.57932 0
M  V30 50 H -2.98137 -1.97254 4.01495 0
M  V30 51 H -2.1294 -1.12327 2.7337 0
M  V30 52 H -1.89549 -4.08822 3.60448 0
M  V30 53 H -0.722079 -2.8031 3.94019 0
M  V30 54 H 2.91465 -1.26438 1.69737 0
M  V30 55 H 2.1006 -2.35357 2.82797 0
M  V30 56 H 4.08953 -3.42828 1.80306 0
M  V30 57 H 2.58375 -4.33997 1.76001 0
M  V30 58 H 3.04586 -4.63045 -0.398028 0
M  V30 59 H 4.44178 -3.52145 -1.77342 0
M  V30 60 H 5.23397 -3.01152 -0.23968 0
M  V30 61 H 3.06122 -1.36784 -1.67661 0
M  V30 62 H 3.95185 -0.868811 -0.226326 0
M  V30 63 H 4.86637 0.0558104 -2.18529 0
M  V30 64 H 5.08895 -1.61714 -2.91583 0
M  V30 65 H 7.2173 -0.784805 -2.10675 0
M  V30 66 H 6.6803 -2.25032 -1.26361 0
M  V30 67 H 7.72318 -0.573463 0.251865 0
M  V30 68 H 6.05888 -0.874342 0.764725 0
M  V30 69 H 5.39167 1.29834 -0.476106 0
M  V30 70 H 6.50544 1.43874 0.888748 0
M  V30 71 H 7.28219 1.10434 -2.09011 0
M  V30 72 H 8.48595 1.35795 -0.830042 0
M  V30 73 H 8.22126 3.34064 -2.06694 0
M  V30 74 H 6.47209 3.46923 -1.8244 0
M  V30 75 H 7.61579 5.05271 -0.54801 0
M  V30 76 H 8.66992 3.82963 0.305014 0
M  V30 77 H 6.05397 4.70272 0.91979 0
M  V30 78 H 7.15077 3.86604 1.84537 0
M  V30 END ATOM
M  V30 BEGIN BOND
M  V30 1 1 1 2
M  V30 2 1 2 3
M  V30 3 1 3 4
M  V30 4 1 4 5
M  V30 5 1 5 6
M  V30 6 1 6 7
M  V30 7 1 7 8
M  V30 8 1 8 9
M  V30 9 1 9 10
M  V30 10 1 10 11
M  V30 11 1 11 12
M  V30 12 1 12 13
M  V30 13 1 13 14
M  V30 14 1 14 15
M  V30 15 1 15 16
M  V30 16 1 16 17
M  V30 17 1 17 18
M  V30 18 1 18 19
M  V30 19 1 19 20
M  V30 20 1 20 21
M  V30 21 1 21 22
M  V30 22 1 22 23
M  V30 23 1 23 24
M  V30 24 1 24 25
M  V30 25 1 25 26
M  V30 26 1 26 27
M  V30 27 1 27 28
M  V30 28 1 1 29
M  V30 29 1 1 30
M  V30 30 1 2 31
M  V30 31 1 2 32
M  V30 32 1 3 33
M  V30 33 1 3 34
M  V30 34 1 4 35
M  V30 35 1 4 36
M  V30 36 1 5 37
M  V30 37 1 5 38
M  V30 38 1 6 39
M  V30 39 1 6 40
M  V30 40 1 7 41
M  V30 41 1 7 42
M  V30 42 1 8 43
M  V30 43 1 8 44
M  V30 44 1 9 45
M  V30 45 1 9 46
M  V30 46 1 10 47
M  V30 47 1 10 48
M  V30 48 1 11 49
M  V30 49 1 12 50
M  V30 50 1 12 51
M  V30 51 1 13 52
M  V30 52 1 13 53
M  V30 53 1 16 54
M  V30 54 1 16 55
M  V30 55 1 17 56
M  V30 56 1 17 57
M  V30 57 1 18 58
M  V30 58 1 19 59
M  V30 59 1 19 60
M  V30 60 1 20 61
M  V30 61 1 20 62
M  V30 62 1 21 63
M  V30 63 1 21 64
M  V30 64 1 22 65
M  V30 65 1 22 66
M  V30 66 1 23 67
M  V30 67 1 23 68
M  V30 68 1 24 69
M  V30 69 1 24 70
M  V30 70 1 25 71
M  V30 71 1 25 72
M  V30 72 1 26 73
M  V30 73 1 26 74
M  V30 74 1 27 75
M  V30 75 1 27 76
M  V30 76 1 28 77
M  V30 77 1 28 78
M  V30 END BOND
M  V30 END CTAB
M  END
