
     RDKit          3D

  0  0  0  0  0  0  0  0  0  0999 V3000
M  V30 BEGIN CTAB
M  V30 COUNTS 37 38 0 0 0
M  V30 BEGIN ATOM
M  V30 1 C -2.10012 2.18014 0.134379 0
M  V30 2 O -2.64151 0.953267 0.560514 0
M  V30 3 C -2.12084 -0.260601 0.144875 0
M  V30 4 C -1.03438 -0.251714 -0.723396 0
M  V30 5 C -0.445862 -1.41664 -1.19054 0
M  V30 6 C 0.698069 -1.38033 -2.13077 0
M  V30 7 S 1.30776 0.254596 -2.54323 0
M  V30 8 C 2.2617 0.886722 -1.1856 0
M  V30 9 N 3.60535 0.581887 -1.15791 0
M  V30 10 C 4.41826 1.02433 -0.189626 0
M  V30 11 N 5.81114 0.689055 -0.187309 0
M  V30 12 N 3.90347 1.78533 0.776301 0
M  V30 13 C 2.5826 2.13222 0.82015 0
M  V30 14 N 1.83888 1.65012 -0.182285 0
M  V30 15 N 2.07284 2.9397 1.86104 0
M  V30 16 C -0.944948 -2.63498 -0.79288 0
M  V30 17 C -2.04256 -2.66505 0.0838596 0
M  V30 18 C -2.6136 -1.47555 0.539854 0
M  V30 19 O -3.66756 -1.57382 1.38443 0
M  V30 20 C -4.51062 -0.747903 2.04522 0
M  V30 21 F -4.40092 -0.865014 3.45277 0
M  V30 22 F -5.83067 -1.1789 1.78459 0
M  V30 23 N -0.422707 -3.85218 -1.26573 0 CHG=1
M  V30 24 O 0.735565 -4.08486 -1.52076 0
M  V30 25 O -1.33187 -4.89704 -1.44195 0 CHG=-1
M  V30 26 H -1.92138 2.26889 -0.940023 0
M  V30 27 H -1.13507 2.36947 0.664053 0
M  V30 28 H -2.83713 2.96602 0.474144 0
M  V30 29 H -0.675249 0.685135 -1.05584 0
M  V30 30 H 0.388538 -1.89416 -3.06187 0
M  V30 31 H 1.52418 -1.9764 -1.62704 0
M  V30 32 H 6.28666 0.666624 0.756588 0
M  V30 33 H 6.34947 0.474677 -1.05148 0
M  V30 34 H 2.51749 2.92232 2.7934 0
M  V30 35 H 1.25671 3.55056 1.7002 0
M  V30 36 H -2.42785 -3.63561 0.392012 0
M  V30 37 H -4.4538 0.337806 1.87985 0
M  V30 END ATOM
M  V30 BEGIN BOND
M  V30 1 1 1 2
M  V30 2 1 2 3
M  V30 3 2 3 4
M  V30 4 1 4 5
M  V30 5 1 5 6
M  V30 6 1 6 7
M  V30 7 1 7 8
M  V30 8 2 8 9
M  V30 9 1 9 10
M  V30 10 1 10 11
M  V30 11 2 10 12
M  V30 12 1 12 13
M  V30 13 2 13 14
M  V30 14 1 13 15
M  V30 15 2 5 16
M  V30 16 1 16 17
M  V30 17 2 17 18
M  V30 18 1 18 19
M  V30 19 1 19 20
M  V30 20 1 20 21
M  V30 21 1 20 22
M  V30 22 1 16 23
M  V30 23 2 23 24
M  V30 24 1 23 25
M  V30 25 1 18 3
M  V30 26 1 14 8
M  V30 27 1 1 26
M  V30 28 1 1 27
M  V30 29 1 1 28
M  V30 30 1 4 29
M  V30 31 1 6 30
M  V30 32 1 6 31
M  V30 33 1 11 32
M  V30 34 1 11 33
M  V30 35 1 15 34
M  V30 36 1 15 35
M  V30 37 1 17 36
M  V30 38 1 20 37
M  V30 END BOND
M  V30 END CTAB
M  END
