
     RDKit          3D

  0  0  0  0  0  0  0  0  0  0999 V3000
M  V30 BEGIN CTAB
M  V30 COUNTS 26 26 0 0 0
M  V30 BEGIN ATOM
M  V30 1 N 3.51373 2.18012 -0.0487891 0
M  V30 2 C 2.57021 1.11339 0.0767127 0
M  V30 3 N 1.25062 1.37026 0.00286899 0
M  V30 4 C 0.33497 0.384554 0.117552 0
M  V30 5 N -1.05375 0.659096 0.0392988 0
M  V30 6 C -2.02903 -0.404152 0.163258 0
M  V30 7 C -3.39217 0.187945 0.0407069 0
M  V30 8 C -4.50055 -0.827911 0.154187 0
M  V30 9 F -5.69659 -0.147001 0.0237033 0
M  V30 10 C 0.725568 -0.921914 0.314808 0
M  V30 11 C 2.05671 -1.2057 0.392817 0
M  V30 12 C 2.98849 -0.181007 0.273034 0
M  V30 13 N 4.37059 -0.504288 0.358156 0
M  V30 14 H 3.1883 3.16693 -0.0222075 0
M  V30 15 H 4.51637 1.99261 -0.16587 0
M  V30 16 H -1.34434 1.6538 -0.110556 0
M  V30 17 H -1.83255 -1.22245 -0.553858 0
M  V30 18 H -1.88577 -0.829231 1.19819 0
M  V30 19 H -3.51096 0.939388 0.849627 0
M  V30 20 H -3.46761 0.697655 -0.929811 0
M  V30 21 H -4.46135 -1.54749 -0.692971 0
M  V30 22 H -4.50902 -1.35868 1.10731 0
M  V30 23 H -0.0139083 -1.7176 0.407372 0
M  V30 24 H 2.39401 -2.24144 0.54998 0
M  V30 25 H 4.72656 -1.44868 0.119075 0
M  V30 26 H 5.06145 0.211788 0.666723 0
M  V30 END ATOM
M  V30 BEGIN BOND
M  V30 1 1 1 2
M  V30 2 2 2 3
M  V30 3 1 3 4
M  V30 4 1 4 5
M  V30 5 1 5 6
M  V30 6 1 6 7
M  V30 7 1 7 8
M  V30 8 1 8 9
M  V30 9 2 4 10
M  V30 10 1 10 11
M  V30 11 2 11 12
M  V30 12 1 12 13
M  V30 13 1 12 2
M  V30 14 1 1 14
M  V30 15 1 1 15
M  V30 16 1 5 16
M  V30 17 1 6 17
M  V30 18 1 6 18
M  V30 19 1 7 19
M  V30 20 1 7 20
M  V30 21 1 8 21
M  V30 22 1 8 22
M  V30 23 1 10 23
M  V30 24 1 11 24
M  V30 25 1 13 25
M  V30 26 1 13 26
M  V30 END BOND
M  V30 END CTAB
M  END
