
     RDKit          3D

  0  0  0  0  0  0  0  0  0  0999 V3000
M  V30 BEGIN CTAB
M  V30 COUNTS 23 23 0 0 0
M  V30 BEGIN ATOM
M  V30 1 N 4.47144 -0.658991 -0.188626 0
M  V30 2 N 3.083 -0.461992 -0.127864 0
M  V30 3 C 2.59085 0.746368 -0.178493 0
M  V30 4 S 0.833439 0.946121 -0.0984425 0
M  V30 5 C 0.00143671 -0.634953 0.0456305 0
M  V30 6 C -1.45448 -0.419299 0.108742 0
M  V30 7 C -2.30238 -1.49865 0.221855 0
M  V30 8 Cl -1.66338 -3.14224 0.292343 0
M  V30 9 C -3.6698 -1.34378 0.284135 0
M  V30 10 C -4.15856 -0.049174 0.227852 0
M  V30 11 C -3.31279 1.03167 0.114755 0
M  V30 12 C -1.94852 0.862382 0.0535584 0
M  V30 13 Cl -0.869736 2.25258 -0.0914126 0
M  V30 14 N 3.46754 1.84579 -0.294427 0
M  V30 15 H 5.15148 0.0776539 0.102098 0
M  V30 16 H 4.86889 -1.56629 -0.533341 0
M  V30 17 H 0.380052 -1.16052 0.950879 0
M  V30 18 H 0.238773 -1.29461 -0.831363 0
M  V30 19 H -4.35998 -2.18575 0.373885 0
M  V30 20 H -5.23328 0.112217 0.274281 0
M  V30 21 H -3.70607 2.04793 0.0710773 0
M  V30 22 H 3.23475 2.76058 0.122513 0
M  V30 23 H 4.35734 1.73294 -0.805291 0
M  V30 END ATOM
M  V30 BEGIN BOND
M  V30 1 1 1 2
M  V30 2 2 2 3 CFG=2
M  V30 3 1 3 4
M  V30 4 1 4 5
M  V30 5 1 5 6
M  V30 6 2 6 7
M  V30 7 1 7 8
M  V30 8 1 7 9
M  V30 9 2 9 10
M  V30 10 1 10 11
M  V30 11 2 11 12
M  V30 12 1 12 13
M  V30 13 1 3 14
M  V30 14 1 12 6
M  V30 15 1 1 15
M  V30 16 1 1 16
M  V30 17 1 5 17
M  V30 18 1 5 18
M  V30 19 1 9 19
M  V30 20 1 10 20
M  V30 21 1 11 21
M  V30 22 1 14 22
M  V30 23 1 14 23
M  V30 END BOND
M  V30 END CTAB
M  END
