
     RDKit          3D

  0  0  0  0  0  0  0  0  0  0999 V3000
M  V30 BEGIN CTAB
M  V30 COUNTS 30 31 0 0 0
M  V30 BEGIN ATOM
M  V30 1 F 6.34942 1.53182 -0.504035 0
M  V30 2 C 5.23732 0.786675 -0.2861 0
M  V30 3 C 5.35628 -0.575633 -0.267411 0
M  V30 4 C 4.23354 -1.33734 -0.0470359 0
M  V30 5 C 2.98514 -0.75934 0.156522 0
M  V30 6 C 2.90055 0.607965 0.131474 0
M  V30 7 C 4.01889 1.38463 -0.0884864 0
M  V30 8 C 1.86894 -1.65252 0.398128 0
M  V30 9 O 2.03301 -2.89343 0.421369 0
M  V30 10 C 0.521238 -1.11006 0.623385 0
M  V30 11 S -0.481579 -1.30847 -0.899531 0
M  V30 12 C -2.04243 -0.481046 -0.673285 0
M  V30 13 N -2.2048 0.820331 -1.0351 0
M  V30 14 C -3.37527 1.45435 -0.846858 0
M  V30 15 N -3.53031 2.81243 -1.23265 0
M  V30 16 C -4.40681 0.750704 -0.2766 0
M  V30 17 C -4.26483 -0.58437 0.103105 0
M  V30 18 N -3.06322 -1.14869 -0.11856 0
M  V30 19 N -5.31687 -1.31952 0.694727 0
M  V30 20 H 6.34765 -1.00593 -0.426009 0
M  V30 21 H 4.34981 -2.4198 -0.0378175 0
M  V30 22 H 1.95695 1.10566 0.27893 0
M  V30 23 H 3.89431 2.47587 -0.10319 0
M  V30 24 H 0.490247 -0.0598406 0.901127 0
M  V30 25 H 0.0534616 -1.69907 1.45952 0
M  V30 26 H -2.8581 3.50678 -0.850424 0
M  V30 27 H -4.26881 3.12238 -1.86299 0
M  V30 28 H -5.36917 1.19789 -0.101443 0
M  V30 29 H -5.23197 -1.57416 1.70176 0
M  V30 30 H -6.18258 -1.62828 0.201513 0
M  V30 END ATOM
M  V30 BEGIN BOND
M  V30 1 1 1 2
M  V30 2 2 2 3
M  V30 3 1 3 4
M  V30 4 2 4 5
M  V30 5 1 5 6
M  V30 6 2 6 7
M  V30 7 1 5 8
M  V30 8 2 8 9
M  V30 9 1 8 10
M  V30 10 1 10 11
M  V30 11 1 11 12
M  V30 12 2 12 13
M  V30 13 1 13 14
M  V30 14 1 14 15
M  V30 15 2 14 16
M  V30 16 1 16 17
M  V30 17 2 17 18
M  V30 18 1 17 19
M  V30 19 1 7 2
M  V30 20 1 18 12
M  V30 21 1 3 20
M  V30 22 1 4 21
M  V30 23 1 6 22
M  V30 24 1 7 23
M  V30 25 1 10 24
M  V30 26 1 10 25
M  V30 27 1 15 26
M  V30 28 1 15 27
M  V30 29 1 16 28
M  V30 30 1 19 29
M  V30 31 1 19 30
M  V30 END BOND
M  V30 END CTAB
M  END
