
     RDKit          3D

  0  0  0  0  0  0  0  0  0  0999 V3000
M  V30 BEGIN CTAB
M  V30 COUNTS 28 28 0 0 0
M  V30 BEGIN ATOM
M  V30 1 O 4.09487 0.600346 1.50583 0
M  V30 2 C 3.97048 -0.140918 0.341666 0
M  V30 3 O 4.94827 -0.190196 -0.428228 0
M  V30 4 C 2.67439 -0.818946 0.107149 0 CFG=1
M  V30 5 C 1.58742 0.213026 0.228509 0
M  V30 6 C 0.285211 -0.468476 -0.00715353 0
M  V30 7 O 0.220219 -1.69862 -0.256551 0
M  V30 8 C -0.965096 0.276877 0.0446557 0
M  V30 9 C -0.969814 1.64359 0.315789 0
M  V30 10 C -2.15209 2.35627 0.366329 0
M  V30 11 C -3.36048 1.69399 0.141725 0
M  V30 12 C -3.37888 0.341856 -0.128293 0
M  V30 13 C -2.17054 -0.332538 -0.169221 0
M  V30 14 N -2.1842 -1.71278 -0.444417 0
M  V30 15 O -4.59254 -0.316178 -0.352463 0
M  V30 16 N 2.60844 -1.55955 -1.09701 0
M  V30 17 H 4.29318 1.59711 1.42061 0
M  V30 18 H 2.5357 -1.52958 0.963994 0
M  V30 19 H 1.71853 1.06979 -0.460482 0
M  V30 20 H 1.61432 0.593836 1.27238 0
M  V30 21 H -0.0129184 2.11537 0.483189 0
M  V30 22 H -2.12401 3.4144 0.57869 0
M  V30 23 H -4.28316 2.27244 0.185592 0
M  V30 24 H -1.95357 -2.07179 -1.39668 0
M  V30 25 H -2.4213 -2.4263 0.278471 0
M  V30 26 H -4.64486 -1.28891 -0.549728 0
M  V30 27 H 2.40206 -2.55889 -1.01874 0
M  V30 28 H 2.26037 -1.07522 -1.92562 0
M  V30 END ATOM
M  V30 BEGIN BOND
M  V30 1 1 1 2
M  V30 2 2 2 3
M  V30 3 1 2 4
M  V30 4 1 4 5
M  V30 5 1 5 6
M  V30 6 2 6 7
M  V30 7 1 6 8
M  V30 8 2 8 9
M  V30 9 1 9 10
M  V30 10 2 10 11
M  V30 11 1 11 12
M  V30 12 2 12 13
M  V30 13 1 13 14
M  V30 14 1 12 15
M  V30 15 1 4 16
M  V30 16 1 13 8
M  V30 17 1 1 17
M  V30 18 1 4 18 CFG=1
M  V30 19 1 5 19
M  V30 20 1 5 20
M  V30 21 1 9 21
M  V30 22 1 10 22
M  V30 23 1 11 23
M  V30 24 1 14 24
M  V30 25 1 14 25
M  V30 26 1 15 26
M  V30 27 1 16 27
M  V30 28 1 16 28
M  V30 END BOND
M  V30 END CTAB
M  END
