
     RDKit          3D

  0  0  0  0  0  0  0  0  0  0999 V3000
M  V30 BEGIN CTAB
M  V30 COUNTS 25 26 0 0 0
M  V30 BEGIN ATOM
M  V30 1 N 2.45655 2.25029 0.452974 0
M  V30 2 N 3.30987 1.24366 0.0841271 0
M  V30 3 C 2.99547 0.0163314 -0.118744 0
M  V30 4 C 1.6326 -0.49009 0.0222227 0
M  V30 5 C 1.26178 -1.81043 -0.190174 0
M  V30 6 C -0.10008 -1.93416 0.0317624 0
M  V30 7 C -0.500993 -0.659065 0.375192 0
M  V30 8 O 0.546539 0.129186 0.351444 0
M  V30 9 C -1.9172 -0.318745 0.705424 0
M  V30 10 O -2.78964 -0.879382 -0.191837 0
M  V30 11 C -3.37266 0.109778 -0.939297 0
M  V30 12 C -3.20715 1.34369 -0.0538881 0
M  V30 13 O -2.13981 1.03379 0.770212 0
M  V30 14 N 4.05857 -0.845861 -0.495189 0
M  V30 15 H 2.4701 3.13795 -0.101918 0
M  V30 16 H 1.80556 2.17693 1.2455 0
M  V30 17 H 1.90242 -2.62734 -0.480141 0
M  V30 18 H -0.708554 -2.82254 -0.0457309 0
M  V30 19 H -2.10461 -0.735913 1.72379 0
M  V30 20 H -2.8677 0.254991 -1.91782 0
M  V30 21 H -4.4741 -0.0207386 -1.083 0
M  V30 22 H -4.14899 1.55297 0.5212 0
M  V30 23 H -3.00007 2.18943 -0.731607 0
M  V30 24 H 4.25287 -1.71637 0.0295672 0
M  V30 25 H 4.63923 -0.578358 -1.31558 0
M  V30 END ATOM
M  V30 BEGIN BOND
M  V30 1 1 1 2
M  V30 2 2 2 3 CFG=2
M  V30 3 1 3 4
M  V30 4 2 4 5
M  V30 5 1 5 6
M  V30 6 2 6 7
M  V30 7 1 7 8
M  V30 8 1 7 9
M  V30 9 1 9 10
M  V30 10 1 10 11
M  V30 11 1 11 12
M  V30 12 1 12 13
M  V30 13 1 3 14
M  V30 14 1 8 4
M  V30 15 1 13 9
M  V30 16 1 1 15
M  V30 17 1 1 16
M  V30 18 1 5 17
M  V30 19 1 6 18
M  V30 20 1 9 19
M  V30 21 1 11 20
M  V30 22 1 11 21
M  V30 23 1 12 22
M  V30 24 1 12 23
M  V30 25 1 14 24
M  V30 26 1 14 25
M  V30 END BOND
M  V30 END CTAB
M  END
