
     RDKit          3D

  0  0  0  0  0  0  0  0  0  0999 V3000
M  V30 BEGIN CTAB
M  V30 COUNTS 39 40 0 0 0
M  V30 BEGIN ATOM
M  V30 1 C 2.30365 -1.82163 -1.23211 0
M  V30 2 C 2.81503 -0.585086 -0.580999 0
M  V30 3 N 4.03513 -0.0940511 -0.923471 0
M  V30 4 C 4.56325 1.01472 -0.376734 0
M  V30 5 N 5.84714 1.44199 -0.809018 0
M  V30 6 N 3.85108 1.67495 0.557141 0
M  V30 7 C 2.63185 1.26888 0.964871 0
M  V30 8 N 1.90694 1.992 1.95361 0
M  V30 9 C 2.12451 0.123851 0.37811 0
M  V30 10 C 0.788428 -0.351756 0.799214 0
M  V30 11 C -0.20963 0.0192235 -0.24577 0
M  V30 12 C -1.61868 -0.402925 0.0377122 0
M  V30 13 C -2.51037 0.050484 -1.11556 0
M  V30 14 C -3.82223 -0.66592 -0.978613 0
M  V30 15 C -4.47522 -0.288776 0.33425 0
M  V30 16 C -3.55293 -0.545754 1.50858 0
M  V30 17 C -2.20306 0.114063 1.30488 0
M  V30 18 H 3.15693 -2.5659 -1.24675 0
M  V30 19 H 1.97699 -1.5858 -2.26625 0
M  V30 20 H 1.51046 -2.30397 -0.658779 0
M  V30 21 H 6.59479 0.763465 -1.11213 0
M  V30 22 H 6.12817 2.44627 -0.854066 0
M  V30 23 H 1.97595 1.64811 2.93029 0
M  V30 24 H 1.3297 2.83082 1.7296 0
M  V30 25 H 0.774486 -1.44586 1.03318 0
M  V30 26 H 0.484243 0.144983 1.74821 0
M  V30 27 H 0.0471113 -0.401571 -1.25278 0
M  V30 28 H -0.168828 1.11959 -0.371693 0
M  V30 29 H -1.71471 -1.51971 0.0505235 0
M  V30 30 H -2.03428 -0.170594 -2.09243 0
M  V30 31 H -2.70898 1.12927 -0.964223 0
M  V30 32 H -4.53348 -0.307278 -1.77928 0
M  V30 33 H -3.76607 -1.75467 -1.10309 0
M  V30 34 H -4.83537 0.747454 0.288001 0
M  V30 35 H -5.36134 -0.942218 0.461385 0
M  V30 36 H -4.04988 -0.121797 2.40512 0
M  V30 37 H -3.41433 -1.63023 1.6286 0
M  V30 38 H -1.58048 -0.231257 2.18117 0
M  V30 39 H -2.28596 1.20664 1.35174 0
M  V30 END ATOM
M  V30 BEGIN BOND
M  V30 1 1 1 2
M  V30 2 2 2 3
M  V30 3 1 3 4
M  V30 4 1 4 5
M  V30 5 2 4 6
M  V30 6 1 6 7
M  V30 7 1 7 8
M  V30 8 2 7 9
M  V30 9 1 9 10
M  V30 10 1 10 11
M  V30 11 1 11 12
M  V30 12 1 12 13
M  V30 13 1 13 14
M  V30 14 1 14 15
M  V30 15 1 15 16
M  V30 16 1 16 17
M  V30 17 1 9 2
M  V30 18 1 17 12
M  V30 19 1 1 18
M  V30 20 1 1 19
M  V30 21 1 1 20
M  V30 22 1 5 21
M  V30 23 1 5 22
M  V30 24 1 8 23
M  V30 25 1 8 24
M  V30 26 1 10 25
M  V30 27 1 10 26
M  V30 28 1 11 27
M  V30 29 1 11 28
M  V30 30 1 12 29
M  V30 31 1 13 30
M  V30 32 1 13 31
M  V30 33 1 14 32
M  V30 34 1 14 33
M  V30 35 1 15 34
M  V30 36 1 15 35
M  V30 37 1 16 36
M  V30 38 1 16 37
M  V30 39 1 17 38
M  V30 40 1 17 39
M  V30 END BOND
M  V30 END CTAB
M  END
