
     RDKit          3D

  0  0  0  0  0  0  0  0  0  0999 V3000
M  V30 BEGIN CTAB
M  V30 COUNTS 91 93 0 0 0
M  V30 BEGIN ATOM
M  V30 1 C -6.34404 -2.13205 -1.47995 0
M  V30 2 C -5.47783 -0.984445 -1.96152 0
M  V30 3 C -4.86583 -1.29649 -3.31311 0
M  V30 4 C -4.44605 -0.633207 -0.949443 0
M  V30 5 C -4.49661 0.562594 -0.263162 0
M  V30 6 C -3.54689 0.919719 0.690086 0
M  V30 7 C -3.68892 2.20714 1.30976 0
M  V30 8 C -5.11546 2.7663 1.01762 0
M  V30 9 C -2.81319 3.18379 0.48356 0
M  V30 10 C -2.4962 0.0252448 0.963086 0
M  V30 11 C -2.41642 -1.16747 0.294565 0
M  V30 12 C -3.40298 -1.48424 -0.659799 0
M  V30 13 C -1.32551 -2.11157 0.366837 0
M  V30 14 C -1.86856 -3.53147 0.0565223 0
M  V30 15 C -0.540091 -1.84241 -0.989847 0
M  V30 16 S -1.46503 0.350337 2.27604 0
M  V30 17 O -1.16302 -1.02517 3.02556 0
M  V30 18 O -2.30151 0.946425 3.45622 0
M  V30 19 N -0.08416 1.24028 2.19844 0
M  V30 20 C 1.0453 0.886038 1.42456 0 CFG=1
M  V30 21 C 1.84336 1.98932 0.832065 0
M  V30 22 C 1.20783 2.92425 -0.0916405 0
M  V30 23 C 0.997548 2.6568 -1.4279 0
M  V30 24 C 0.459316 3.61494 -2.25912 0
M  V30 25 C 0.10739 4.86312 -1.82397 0
M  V30 26 C 0.309358 5.16385 -0.472138 0
M  V30 27 C 0.838957 4.21014 0.332127 0
M  V30 28 C -0.0732966 6.49934 -0.0301319 0
M  V30 29 N -0.631526 7.4573 -0.920429 0
M  V30 30 N 0.0815803 6.85395 1.17947 0
M  V30 31 C 2.02346 0.149406 2.37388 0
M  V30 32 O 1.84014 0.314963 3.58023 0
M  V30 33 N 3.03671 -0.643407 1.87559 0
M  V30 34 C 3.23486 -0.937968 0.494712 0
M  V30 35 C 3.42923 -2.40277 0.216859 0
M  V30 36 N 4.33337 -2.96574 1.16799 0
M  V30 37 C 4.09462 -2.69552 2.57133 0
M  V30 38 C 4.0382 -1.21527 2.81848 0
M  V30 39 C 5.45171 -3.77518 0.793523 0
M  V30 40 O 6.21222 -4.24487 1.67214 0
M  V30 41 C 5.73968 -4.07827 -0.629435 0
M  V30 42 C 6.95273 -4.9764 -0.699819 0
M  V30 43 N 7.20419 -5.25293 -2.1103 0
M  V30 44 H -6.6783 -2.67872 -2.385 0
M  V30 45 H -5.81504 -2.79902 -0.772453 0
M  V30 46 H -7.25747 -1.72854 -0.986393 0
M  V30 47 H -6.16443 -0.120426 -2.09794 0
M  V30 48 H -3.84747 -0.814713 -3.34709 0
M  V30 49 H -5.42841 -0.900387 -4.16355 0
M  V30 50 H -4.76912 -2.41718 -3.39175 0
M  V30 51 H -5.30911 1.2356 -0.487069 0
M  V30 52 H -3.55847 2.36596 2.35577 0
M  V30 53 H -5.18648 3.67304 1.68324 0
M  V30 54 H -5.17653 3.17402 -0.00296859 0
M  V30 55 H -5.86351 2.02638 1.29094 0
M  V30 56 H -1.90502 2.62296 0.145376 0
M  V30 57 H -3.34826 3.59061 -0.375784 0
M  V30 58 H -2.46041 3.95455 1.19529 0
M  V30 59 H -3.34416 -2.42901 -1.18731 0
M  V30 60 H -0.56507 -2.07659 1.08899 0
M  V30 61 H -1.82764 -3.73834 -1.01552 0
M  V30 62 H -2.86675 -3.65947 0.511525 0
M  V30 63 H -1.15611 -4.24966 0.545984 0
M  V30 64 H 0.384099 -2.39268 -0.891519 0
M  V30 65 H -1.16399 -2.25452 -1.79773 0
M  V30 66 H -0.456092 -0.747617 -1.03881 0
M  V30 67 H 0.21896 1.61682 3.11338 0
M  V30 68 H 0.81922 0.0957919 0.733207 0
M  V30 69 H 2.81556 1.63629 0.383058 0
M  V30 70 H 2.25388 2.63731 1.69164 0
M  V30 71 H 1.24667 1.7075 -1.83937 0
M  V30 72 H 0.284967 3.41823 -3.32418 0
M  V30 73 H -0.317178 5.62501 -2.46747 0
M  V30 74 H 1.00482 4.4128 1.37388 0
M  V30 75 H -1.49091 7.29487 -1.45088 0
M  V30 76 H -0.103633 8.36456 -1.00919 0
M  V30 77 H 0.46953 6.24135 1.88446 0
M  V30 78 H 2.43365 -0.520322 -0.1554 0
M  V30 79 H 4.20655 -0.430845 0.207665 0
M  V30 80 H 3.89522 -2.4802 -0.790621 0
M  V30 81 H 2.46846 -2.94686 0.139814 0
M  V30 82 H 3.07581 -3.11301 2.78977 0
M  V30 83 H 4.86289 -3.19034 3.20426 0
M  V30 84 H 5.01554 -0.741884 2.51901 0
M  V30 85 H 3.76882 -1.01805 3.85456 0
M  V30 86 H 4.89987 -4.61757 -1.12996 0
M  V30 87 H 5.91643 -3.13735 -1.21452 0
M  V30 88 H 6.7704 -5.93147 -0.147612 0
M  V30 89 H 7.85373 -4.49517 -0.265171 0
M  V30 90 H 7.84574 -6.06648 -2.23832 0
M  V30 91 H 7.63011 -4.38563 -2.51849 0
M  V30 END ATOM
M  V30 BEGIN BOND
M  V30 1 1 1 2
M  V30 2 1 2 3
M  V30 3 1 2 4
M  V30 4 2 4 5
M  V30 5 1 5 6
M  V30 6 1 6 7
M  V30 7 1 7 8
M  V30 8 1 7 9
M  V30 9 2 6 10
M  V30 10 1 10 11
M  V30 11 2 11 12
M  V30 12 1 11 13
M  V30 13 1 13 14
M  V30 14 1 13 15
M  V30 15 1 10 16
M  V30 16 2 16 17
M  V30 17 2 16 18
M  V30 18 1 16 19
M  V30 19 1 19 20
M  V30 20 1 20 21
M  V30 21 1 21 22
M  V30 22 2 22 23
M  V30 23 1 23 24
M  V30 24 2 24 25
M  V30 25 1 25 26
M  V30 26 2 26 27
M  V30 27 1 26 28
M  V30 28 1 28 29
M  V30 29 2 28 30 CFG=2
M  V30 30 1 20 31
M  V30 31 2 31 32
M  V30 32 1 31 33
M  V30 33 1 33 34
M  V30 34 1 34 35
M  V30 35 1 35 36
M  V30 36 1 36 37
M  V30 37 1 37 38
M  V30 38 1 36 39
M  V30 39 2 39 40
M  V30 40 1 39 41
M  V30 41 1 41 42
M  V30 42 1 42 43
M  V30 43 1 12 4
M  V30 44 1 27 22
M  V30 45 1 38 33
M  V30 46 1 1 44
M  V30 47 1 1 45
M  V30 48 1 1 46
M  V30 49 1 2 47
M  V30 50 1 3 48
M  V30 51 1 3 49
M  V30 52 1 3 50
M  V30 53 1 5 51
M  V30 54 1 7 52
M  V30 55 1 8 53
M  V30 56 1 8 54
M  V30 57 1 8 55
M  V30 58 1 9 56
M  V30 59 1 9 57
M  V30 60 1 9 58
M  V30 61 1 12 59
M  V30 62 1 13 60
M  V30 63 1 14 61
M  V30 64 1 14 62
M  V30 65 1 14 63
M  V30 66 1 15 64
M  V30 67 1 15 65
M  V30 68 1 15 66
M  V30 69 1 19 67
M  V30 70 1 20 68 CFG=3
M  V30 71 1 21 69
M  V30 72 1 21 70
M  V30 73 1 23 71
M  V30 74 1 24 72
M  V30 75 1 25 73
M  V30 76 1 27 74
M  V30 77 1 29 75
M  V30 78 1 29 76
M  V30 79 1 30 77
M  V30 80 1 34 78
M  V30 81 1 34 79
M  V30 82 1 35 80
M  V30 83 1 35 81
M  V30 84 1 37 82
M  V30 85 1 37 83
M  V30 86 1 38 84
M  V30 87 1 38 85
M  V30 88 1 41 86
M  V30 89 1 41 87
M  V30 90 1 42 88
M  V30 91 1 42 89
M  V30 92 1 43 90
M  V30 93 1 43 91
M  V30 END BOND
M  V30 END CTAB
M  END
