
     RDKit          3D

  0  0  0  0  0  0  0  0  0  0999 V3000
M  V30 BEGIN CTAB
M  V30 COUNTS 31 31 0 0 0
M  V30 BEGIN ATOM
M  V30 1 N 4.70266 1.53242 0.123188 0
M  V30 2 N 3.44168 1.04974 -0.0892867 0
M  V30 3 C 3.06034 -0.175615 -0.0133996 0
M  V30 4 N 1.67889 -0.455552 -0.277368 0
M  V30 5 C 0.678819 -0.67368 0.730828 0
M  V30 6 C -0.678209 -0.704615 0.0332985 0
M  V30 7 C -0.874968 0.630401 -0.645568 0
M  V30 8 C -2.08781 0.567215 -1.50818 0
M  V30 9 C -3.29069 0.204162 -0.681927 0
M  V30 10 C -2.99265 -0.0239828 0.75848 0
M  V30 11 C -1.81082 -0.913705 1.0057 0
M  V30 12 O -2.87814 1.16534 1.50755 0
M  V30 13 N 3.9088 -1.25282 0.307856 0
M  V30 14 H 5.54949 0.946409 0.318373 0
M  V30 15 H 4.85278 2.56776 0.0895778 0
M  V30 16 H 1.41495 -0.510497 -1.28037 0
M  V30 17 H 0.823672 -1.7355 1.09284 0
M  V30 18 H 0.703445 0.0094506 1.57678 0
M  V30 19 H -0.691435 -1.50622 -0.698637 0
M  V30 20 H -0.942856 1.47967 0.0583151 0
M  V30 21 H -0.0145238 0.871405 -1.30477 0
M  V30 22 H -1.93923 -0.212242 -2.27987 0
M  V30 23 H -2.25128 1.51756 -2.08165 0
M  V30 24 H -4.00482 1.07825 -0.748372 0
M  V30 25 H -3.83905 -0.652599 -1.1084 0
M  V30 26 H -3.87236 -0.56486 1.19892 0
M  V30 27 H -2.07798 -2.00154 0.983709 0
M  V30 28 H -1.46449 -0.734372 2.07084 0
M  V30 29 H -3.53773 1.78795 1.10568 0
M  V30 30 H 4.47301 -1.69538 -0.436361 0
M  V30 31 H 3.9605 -1.59455 1.27691 0
M  V30 END ATOM
M  V30 BEGIN BOND
M  V30 1 1 1 2
M  V30 2 2 2 3 CFG=2
M  V30 3 1 3 4
M  V30 4 1 4 5
M  V30 5 1 5 6
M  V30 6 1 6 7
M  V30 7 1 7 8
M  V30 8 1 8 9
M  V30 9 1 9 10
M  V30 10 1 10 11
M  V30 11 1 10 12
M  V30 12 1 3 13
M  V30 13 1 11 6
M  V30 14 1 1 14
M  V30 15 1 1 15
M  V30 16 1 4 16
M  V30 17 1 5 17
M  V30 18 1 5 18
M  V30 19 1 6 19
M  V30 20 1 7 20
M  V30 21 1 7 21
M  V30 22 1 8 22
M  V30 23 1 8 23
M  V30 24 1 9 24
M  V30 25 1 9 25
M  V30 26 1 10 26
M  V30 27 1 11 27
M  V30 28 1 11 28
M  V30 29 1 12 29
M  V30 30 1 13 30
M  V30 31 1 13 31
M  V30 END BOND
M  V30 END CTAB
M  END
