
     RDKit          3D

  0  0  0  0  0  0  0  0  0  0999 V3000
M  V30 BEGIN CTAB
M  V30 COUNTS 50 51 0 0 0
M  V30 BEGIN ATOM
M  V30 1 C -3.55912 -2.13126 -1.07412 0
M  V30 2 C -2.83006 -1.02558 -0.419691 0
M  V30 3 C -1.44794 -1.03969 -0.456665 0
M  V30 4 C -0.754065 -2.14684 -1.14121 0
M  V30 5 C -0.728941 -0.00688864 0.153841 0
M  V30 6 C -1.43264 1.01283 0.78569 0
M  V30 7 C -0.703664 2.11444 1.43767 0
M  V30 8 C -2.8134 1.02537 0.821691 0
M  V30 9 C -3.53202 2.13408 1.50774 0
M  V30 10 C -3.51081 -0.00280358 0.213541 0
M  V30 11 N -4.92313 -0.0147904 0.235345 0
M  V30 12 C 0.732254 -0.0127132 0.120205 0
M  V30 13 C 1.49392 -0.619207 1.09997 0
M  V30 14 C 0.838128 -1.29771 2.24071 0
M  V30 15 C 2.86634 -0.608652 1.04187 0
M  V30 16 C 3.66179 -1.26918 2.10988 0
M  V30 17 C 3.48185 0.0186463 -0.0130643 0
M  V30 18 N 4.9003 0.0264862 -0.0680196 0
M  V30 19 C 2.75931 0.644498 -1.02597 0
M  V30 20 C 3.41949 1.324 -2.1685 0
M  V30 21 C 1.38768 0.610532 -0.929213 0
M  V30 22 C 0.602961 1.26621 -1.98954 0
M  V30 23 H -3.10902 -3.1213 -0.860241 0
M  V30 24 H -3.56191 -2.02051 -2.18066 0
M  V30 25 H -4.58429 -2.16203 -0.651592 0
M  V30 26 H 0.241652 -1.83728 -1.4721 0
M  V30 27 H -0.663336 -3.05398 -0.503587 0
M  V30 28 H -1.32038 -2.45723 -2.04798 0
M  V30 29 H -0.972507 3.10475 1.03518 0
M  V30 30 H -0.928702 2.14212 2.53942 0
M  V30 31 H 0.400934 1.91704 1.39003 0
M  V30 32 H -2.80508 2.76436 2.03168 0
M  V30 33 H -3.95478 2.77428 0.678765 0
M  V30 34 H -4.36449 1.77142 2.13318 0
M  V30 35 H -5.43522 0.260949 -0.620015 0
M  V30 36 H -5.42336 -0.293208 1.08811 0
M  V30 37 H 1.09123 -2.3861 2.28781 0
M  V30 38 H -0.256242 -1.1993 2.22617 0
M  V30 39 H 1.16847 -0.826346 3.21153 0
M  V30 40 H 3.99439 -2.25236 1.67587 0
M  V30 41 H 4.60368 -0.678897 2.2171 0
M  V30 42 H 3.12319 -1.38757 3.05168 0
M  V30 43 H 5.41437 0.572049 0.655039 0
M  V30 44 H 5.44433 -0.487122 -0.796349 0
M  V30 45 H 2.86527 2.28329 -2.37599 0
M  V30 46 H 3.42303 0.705608 -3.0828 0
M  V30 47 H 4.4355 1.6244 -1.84437 0
M  V30 48 H 0.609892 2.371 -1.91671 0
M  V30 49 H -0.430462 0.89586 -2.05424 0
M  V30 50 H 1.08557 0.974328 -2.96829 0
M  V30 END ATOM
M  V30 BEGIN BOND
M  V30 1 1 1 2
M  V30 2 2 2 3
M  V30 3 1 3 4
M  V30 4 1 3 5
M  V30 5 2 5 6
M  V30 6 1 6 7
M  V30 7 1 6 8
M  V30 8 1 8 9
M  V30 9 2 8 10
M  V30 10 1 10 11
M  V30 11 1 5 12
M  V30 12 2 12 13
M  V30 13 1 13 14
M  V30 14 1 13 15
M  V30 15 1 15 16
M  V30 16 2 15 17
M  V30 17 1 17 18
M  V30 18 1 17 19
M  V30 19 1 19 20
M  V30 20 2 19 21
M  V30 21 1 21 22
M  V30 22 1 10 2
M  V30 23 1 21 12
M  V30 24 1 1 23
M  V30 25 1 1 24
M  V30 26 1 1 25
M  V30 27 1 4 26
M  V30 28 1 4 27
M  V30 29 1 4 28
M  V30 30 1 7 29
M  V30 31 1 7 30
M  V30 32 1 7 31
M  V30 33 1 9 32
M  V30 34 1 9 33
M  V30 35 1 9 34
M  V30 36 1 11 35
M  V30 37 1 11 36
M  V30 38 1 14 37
M  V30 39 1 14 38
M  V30 40 1 14 39
M  V30 41 1 16 40
M  V30 42 1 16 41
M  V30 43 1 16 42
M  V30 44 1 18 43
M  V30 45 1 18 44
M  V30 46 1 20 45
M  V30 47 1 20 46
M  V30 48 1 20 47
M  V30 49 1 22 48
M  V30 50 1 22 49
M  V30 51 1 22 50
M  V30 END BOND
M  V30 END CTAB
M  END
