
     RDKit          3D

  0  0  0  0  0  0  0  0  0  0999 V3000
M  V30 BEGIN CTAB
M  V30 COUNTS 27 28 0 0 0
M  V30 BEGIN ATOM
M  V30 1 N -4.82708 0.214837 0.599308 0
M  V30 2 C -3.52206 -0.059789 0.0820897 0
M  V30 3 N -2.94182 -1.26525 0.235114 0
M  V30 4 C -1.71835 -1.54329 -0.242034 0
M  V30 5 C -0.972119 -0.577827 -0.934137 0
M  V30 6 C 0.372215 -0.941754 -1.43038 0
M  V30 7 C 1.48873 -0.427886 -0.616306 0
M  V30 8 C 1.83705 -1.04312 0.592269 0
M  V30 9 C 2.87627 -0.621483 1.38737 0
M  V30 10 C 3.63433 0.467683 0.994067 0
M  V30 11 I 5.23465 1.14629 2.18588 0
M  V30 12 C 3.31536 1.09306 -0.190223 0
M  V30 13 C 2.25402 0.654486 -0.992549 0
M  V30 14 C -1.57362 0.643436 -1.08306 0
M  V30 15 N -0.882288 1.67936 -1.78071 0
M  V30 16 N -2.81367 0.870706 -0.580014 0
M  V30 17 H -5.67505 0.211363 -0.000270688 0
M  V30 18 H -4.94349 0.426323 1.60873 0
M  V30 19 H -1.25517 -2.52359 -0.115218 0
M  V30 20 H 0.528623 -0.58935 -2.48844 0
M  V30 21 H 0.490403 -2.05833 -1.50364 0
M  V30 22 H 1.23734 -1.89474 0.893174 0
M  V30 23 H 3.11986 -1.11998 2.31643 0
M  V30 24 H 3.91914 1.94671 -0.487574 0
M  V30 25 H 2.06487 1.19218 -1.92318 0
M  V30 26 H -0.597597 2.5744 -1.32758 0
M  V30 27 H -0.650514 1.54555 -2.77494 0
M  V30 END ATOM
M  V30 BEGIN BOND
M  V30 1 1 1 2
M  V30 2 2 2 3
M  V30 3 1 3 4
M  V30 4 2 4 5
M  V30 5 1 5 6
M  V30 6 1 6 7
M  V30 7 2 7 8
M  V30 8 1 8 9
M  V30 9 2 9 10
M  V30 10 1 10 11
M  V30 11 1 10 12
M  V30 12 2 12 13
M  V30 13 1 5 14
M  V30 14 1 14 15
M  V30 15 2 14 16
M  V30 16 1 16 2
M  V30 17 1 13 7
M  V30 18 1 1 17
M  V30 19 1 1 18
M  V30 20 1 4 19
M  V30 21 1 6 20
M  V30 22 1 6 21
M  V30 23 1 8 22
M  V30 24 1 9 23
M  V30 25 1 12 24
M  V30 26 1 13 25
M  V30 27 1 15 26
M  V30 28 1 15 27
M  V30 END BOND
M  V30 END CTAB
M  END
