
     RDKit          3D

  0  0  0  0  0  0  0  0  0  0999 V3000
M  V30 BEGIN CTAB
M  V30 COUNTS 44 45 0 0 0
M  V30 BEGIN ATOM
M  V30 1 C 7.35078 1.04115 -0.181404 0
M  V30 2 C 6.6276 1.12923 1.14577 0
M  V30 3 C 5.17197 0.728345 0.974096 0
M  V30 4 C 5.04047 -0.667633 0.470181 0
M  V30 5 O 3.70388 -1.02562 0.318834 0
M  V30 6 C 2.85329 -0.397533 -0.545297 0
M  V30 7 O 3.23982 0.546061 -1.26172 0
M  V30 8 C 1.43674 -0.800884 -0.676591 0
M  V30 9 C 0.628069 -0.13607 -1.56235 0
M  V30 10 C -0.701057 -0.502706 -1.69599 0
M  V30 11 C -1.25886 -1.53542 -0.95582 0
M  V30 12 C -0.442783 -2.18967 -0.0770387 0
M  V30 13 C 0.897349 -1.82268 0.0601455 0
M  V30 14 N -0.946363 -3.25329 0.709917 0
M  V30 15 S -2.96006 -1.96162 -1.16737 0
M  V30 16 C -4.04037 -1.05153 -0.0715662 0
M  V30 17 N -4.45143 -1.36099 1.17114 0
M  V30 18 N -5.24102 -0.410821 1.61162 0
M  V30 19 C -5.36652 0.540769 0.672677 0
M  V30 20 N -4.62393 0.146767 -0.37121 0
M  V30 21 N -4.48275 0.860005 -1.56303 0
M  V30 22 C -6.16439 1.76089 0.789997 0
M  V30 23 C -7.57702 1.59469 0.313781 0
M  V30 24 H 7.55392 0.0111775 -0.500586 0
M  V30 25 H 8.33684 1.55287 -0.0749849 0
M  V30 26 H 6.72881 1.51973 -0.967722 0
M  V30 27 H 7.152 0.510298 1.88934 0
M  V30 28 H 6.63621 2.18462 1.47379 0
M  V30 29 H 4.72898 0.800759 2.00881 0
M  V30 30 H 4.69296 1.507 0.384949 0
M  V30 31 H 5.48563 -1.37067 1.23381 0
M  V30 32 H 5.65142 -0.849304 -0.442306 0
M  V30 33 H 1.03197 0.677481 -2.15791 0
M  V30 34 H -1.2867 0.06054 -2.41163 0
M  V30 35 H 1.53547 -2.34967 0.761232 0
M  V30 36 H -0.804895 -3.22123 1.73897 0
M  V30 37 H -1.44942 -4.05893 0.291949 0
M  V30 38 H -3.8934 1.69402 -1.65944 0
M  V30 39 H -4.9957 0.55789 -2.44408 0
M  V30 40 H -6.21038 2.10904 1.84953 0
M  V30 41 H -5.72643 2.62477 0.223322 0
M  V30 42 H -7.69434 1.74282 -0.779743 0
M  V30 43 H -7.98291 0.646238 0.684361 0
M  V30 44 H -8.18346 2.4191 0.789552 0
M  V30 END ATOM
M  V30 BEGIN BOND
M  V30 1 1 1 2
M  V30 2 1 2 3
M  V30 3 1 3 4
M  V30 4 1 4 5
M  V30 5 1 5 6
M  V30 6 2 6 7
M  V30 7 1 6 8
M  V30 8 2 8 9
M  V30 9 1 9 10
M  V30 10 2 10 11
M  V30 11 1 11 12
M  V30 12 2 12 13
M  V30 13 1 12 14
M  V30 14 1 11 15
M  V30 15 1 15 16
M  V30 16 2 16 17
M  V30 17 1 17 18
M  V30 18 2 18 19
M  V30 19 1 19 20
M  V30 20 1 20 21
M  V30 21 1 19 22
M  V30 22 1 22 23
M  V30 23 1 13 8
M  V30 24 1 20 16
M  V30 25 1 1 24
M  V30 26 1 1 25
M  V30 27 1 1 26
M  V30 28 1 2 27
M  V30 29 1 2 28
M  V30 30 1 3 29
M  V30 31 1 3 30
M  V30 32 1 4 31
M  V30 33 1 4 32
M  V30 34 1 9 33
M  V30 35 1 10 34
M  V30 36 1 13 35
M  V30 37 1 14 36
M  V30 38 1 14 37
M  V30 39 1 21 38
M  V30 40 1 21 39
M  V30 41 1 22 40
M  V30 42 1 22 41
M  V30 43 1 23 42
M  V30 44 1 23 43
M  V30 45 1 23 44
M  V30 END BOND
M  V30 END CTAB
M  END
