
     RDKit          3D

  0  0  0  0  0  0  0  0  0  0999 V3000
M  V30 BEGIN CTAB
M  V30 COUNTS 42 42 0 0 0
M  V30 BEGIN ATOM
M  V30 1 C 4.87884 -1.97286 -0.766778 0
M  V30 2 O 4.49535 -0.683801 -0.991099 0
M  V30 3 C 4.2653 0.105391 0.103786 0
M  V30 4 C 3.02679 0.915198 0.121056 0
M  V30 5 C 1.74576 0.162191 0.0415171 0
M  V30 6 O 1.82219 -1.07766 -0.0524726 0
M  V30 7 N 0.522491 0.822107 0.071795 0
M  V30 8 C -0.735999 0.237378 -0.00247271 0
M  V30 9 C -0.938601 -1.00571 -0.510143 0
M  V30 10 C -2.21187 -1.53037 -0.528391 0
M  V30 11 C -3.33082 -0.852656 -0.0489444 0
M  V30 12 C -3.14935 0.406916 0.469338 0
M  V30 13 C -1.87159 0.910646 0.47752 0
M  V30 14 S -4.39661 1.39272 1.12893 0
M  V30 15 O -3.79166 2.68355 1.61347 0
M  V30 16 O -5.04887 0.813033 2.34956 0
M  V30 17 N -5.61452 1.86462 0.00334117 0
M  V30 18 C -4.65782 -1.45759 -0.112147 0
M  V30 19 C -5.51268 -1.0726 -1.26989 0
M  V30 20 C 5.421 1.12752 0.257399 0
M  V30 21 N 6.67791 0.469858 0.434822 0
M  V30 22 H 4.17222 -2.58458 -0.19036 0
M  V30 23 H 4.96865 -2.47142 -1.77726 0
M  V30 24 H 5.90437 -2.02502 -0.328301 0
M  V30 25 H 4.36562 -0.545031 1.02083 0
M  V30 26 H 3.00515 1.47783 1.08967 0
M  V30 27 H 3.04937 1.62161 -0.731832 0
M  V30 28 H 0.54819 1.88366 0.157205 0
M  V30 29 H -0.181763 -1.65875 -0.936304 0
M  V30 30 H -2.40586 -2.52659 -0.929899 0
M  V30 31 H -1.65252 1.91559 0.878644 0
M  V30 32 H -5.24726 2.07613 -0.929385 0
M  V30 33 H -6.18368 2.61153 0.44087 0
M  V30 34 H -5.20805 -1.39708 0.86957 0
M  V30 35 H -4.49544 -2.57699 -0.198656 0
M  V30 36 H -5.66919 -1.95151 -1.98447 0
M  V30 37 H -5.03501 -0.323669 -1.95012 0
M  V30 38 H -6.55587 -0.789721 -1.01814 0
M  V30 39 H 5.1617 1.71983 1.1549 0
M  V30 40 H 5.36372 1.78301 -0.61631 0
M  V30 41 H 7.19733 0.766646 1.29484 0
M  V30 42 H 7.30309 0.736626 -0.36641 0
M  V30 END ATOM
M  V30 BEGIN BOND
M  V30 1 1 1 2
M  V30 2 1 2 3
M  V30 3 1 3 4
M  V30 4 1 4 5
M  V30 5 2 5 6
M  V30 6 1 5 7
M  V30 7 1 7 8
M  V30 8 2 8 9
M  V30 9 1 9 10
M  V30 10 2 10 11
M  V30 11 1 11 12
M  V30 12 2 12 13
M  V30 13 1 12 14
M  V30 14 2 14 15
M  V30 15 2 14 16
M  V30 16 1 14 17
M  V30 17 1 11 18
M  V30 18 1 18 19
M  V30 19 1 3 20
M  V30 20 1 20 21
M  V30 21 1 13 8
M  V30 22 1 1 22
M  V30 23 1 1 23
M  V30 24 1 1 24
M  V30 25 1 3 25
M  V30 26 1 4 26
M  V30 27 1 4 27
M  V30 28 1 7 28
M  V30 29 1 9 29
M  V30 30 1 10 30
M  V30 31 1 13 31
M  V30 32 1 17 32
M  V30 33 1 17 33
M  V30 34 1 18 34
M  V30 35 1 18 35
M  V30 36 1 19 36
M  V30 37 1 19 37
M  V30 38 1 19 38
M  V30 39 1 20 39
M  V30 40 1 20 40
M  V30 41 1 21 41
M  V30 42 1 21 42
M  V30 END BOND
M  V30 END CTAB
M  END
