
     RDKit          3D

  0  0  0  0  0  0  0  0  0  0999 V3000
M  V30 BEGIN CTAB
M  V30 COUNTS 22 22 0 0 0
M  V30 BEGIN ATOM
M  V30 1 C -2.7257 -0.911887 -0.0589161 0
M  V30 2 O -1.6975 -0.271784 -0.792482 0
M  V30 3 C -0.524412 0.201939 -0.259098 0
M  V30 4 C -0.347646 1.48761 0.209212 0
M  V30 5 C 0.901368 1.84647 0.732524 0
M  V30 6 C 1.95169 0.963503 0.793986 0
M  V30 7 C 1.76201 -0.318401 0.322234 0
M  V30 8 C 0.535519 -0.678984 -0.194055 0
M  V30 9 N 0.363416 -2.00421 -0.674013 0
M  V30 10 N 2.84958 -1.23986 0.383351 0
M  V30 11 N -1.39684 2.44069 0.157758 0 CHG=1
M  V30 12 O -1.09297 3.66203 0.0739587 0
M  V30 13 O -2.72286 2.12639 0.19269 0 CHG=-1
M  V30 14 H -3.68991 -0.531777 -0.442552 0
M  V30 15 H -2.67377 -2.02929 -0.200752 0
M  V30 16 H -2.57213 -0.66189 1.01098 0
M  V30 17 H 1.05872 2.84589 1.10342 0
M  V30 18 H 2.93038 1.26369 1.21017 0
M  V30 19 H -0.355281 -2.26219 -1.38502 0
M  V30 20 H 0.97081 -2.77168 -0.314623 0
M  V30 21 H 3.76913 -0.96955 0.0246256 0
M  V30 22 H 2.70638 -2.18669 0.793147 0
M  V30 END ATOM
M  V30 BEGIN BOND
M  V30 1 1 1 2
M  V30 2 1 2 3
M  V30 3 2 3 4
M  V30 4 1 4 5
M  V30 5 2 5 6
M  V30 6 1 6 7
M  V30 7 2 7 8
M  V30 8 1 8 9
M  V30 9 1 7 10
M  V30 10 1 4 11
M  V30 11 2 11 12
M  V30 12 1 11 13
M  V30 13 1 8 3
M  V30 14 1 1 14
M  V30 15 1 1 15
M  V30 16 1 1 16
M  V30 17 1 5 17
M  V30 18 1 6 18
M  V30 19 1 9 19
M  V30 20 1 9 20
M  V30 21 1 10 21
M  V30 22 1 10 22
M  V30 END BOND
M  V30 END CTAB
M  END
