
     RDKit          3D

  0  0  0  0  0  0  0  0  0  0999 V3000
M  V30 BEGIN CTAB
M  V30 COUNTS 48 51 0 0 0
M  V30 BEGIN ATOM
M  V30 1 N -5.31625 2.64006 -1.1185 0
M  V30 2 C -5.18446 1.34046 -0.581113 0
M  V30 3 N -4.0199 0.957479 0.00411583 0
M  V30 4 C -3.95716 -0.286567 0.495877 0
M  V30 5 C -2.7285 -0.793444 1.15338 0
M  V30 6 N -1.66109 0.186698 1.12756 0
M  V30 7 C -1.27529 0.556636 -0.200452 0
M  V30 8 C 0.206514 0.306221 -0.460339 0
M  V30 9 N 0.489656 -1.04044 -0.0962443 0
M  V30 10 C 0.14401 -1.43003 1.22297 0
M  V30 11 C -0.574466 -0.313557 1.94176 0
M  V30 12 C 1.73221 -1.5486 -0.583759 0
M  V30 13 C 2.90057 -0.725941 -0.116398 0
M  V30 14 N 3.91589 -0.324341 -0.853418 0
M  V30 15 C 4.87044 0.391742 -0.322037 0
M  V30 16 C 4.76296 0.695406 1.00807 0
M  V30 17 S 3.28945 -0.0725247 1.40904 0
M  V30 18 C 5.72495 1.45448 1.67795 0
M  V30 19 C 6.83835 1.93906 1.02835 0
M  V30 20 C 6.92706 1.61974 -0.317053 0
M  V30 21 C 6.00736 0.885452 -0.9886 0
M  V30 22 C 1.68125 -1.54803 -2.09357 0
M  V30 23 N -5.01102 -1.11069 0.406691 0
M  V30 24 C -6.16386 -0.716771 -0.178391 0
M  V30 25 N -6.2383 0.515424 -0.66992 0
M  V30 26 N -7.28221 -1.58769 -0.274354 0
M  V30 27 H -5.0603 3.47206 -0.551204 0
M  V30 28 H -5.66824 2.80244 -2.08357 0
M  V30 29 H -2.38102 -1.6971 0.576045 0
M  V30 30 H -2.95176 -1.07462 2.20499 0
M  V30 31 H -1.5474 1.61124 -0.411232 0
M  V30 32 H -1.81981 -0.133195 -0.909214 0
M  V30 33 H 0.851699 1.02678 0.0750485 0
M  V30 34 H 0.38591 0.442624 -1.53132 0
M  V30 35 H -0.539402 -2.30248 1.19433 0
M  V30 36 H 1.00189 -1.74212 1.85005 0
M  V30 37 H 0.108767 0.511455 2.22229 0
M  V30 38 H -1.05811 -0.702164 2.88276 0
M  V30 39 H 1.84418 -2.59505 -0.248969 0
M  V30 40 H 5.576 1.65408 2.72114 0
M  V30 41 H 7.61412 2.52707 1.47933 0
M  V30 42 H 7.79878 1.9913 -0.852309 0
M  V30 43 H 6.17399 0.691088 -2.05015 0
M  V30 44 H 2.03009 -0.571969 -2.5162 0
M  V30 45 H 2.28067 -2.40407 -2.4779 0
M  V30 46 H 0.627633 -1.71337 -2.41515 0
M  V30 47 H -7.22573 -2.39044 -0.914779 0
M  V30 48 H -8.12016 -1.39378 0.298264 0
M  V30 END ATOM
M  V30 BEGIN BOND
M  V30 1 1 1 2
M  V30 2 2 2 3
M  V30 3 1 3 4
M  V30 4 1 4 5
M  V30 5 1 5 6
M  V30 6 1 6 7
M  V30 7 1 7 8
M  V30 8 1 8 9
M  V30 9 1 9 10
M  V30 10 1 10 11
M  V30 11 1 9 12
M  V30 12 1 12 13
M  V30 13 2 13 14
M  V30 14 1 14 15
M  V30 15 2 15 16
M  V30 16 1 16 17
M  V30 17 1 16 18
M  V30 18 2 18 19
M  V30 19 1 19 20
M  V30 20 2 20 21
M  V30 21 1 12 22
M  V30 22 2 4 23
M  V30 23 1 23 24
M  V30 24 2 24 25
M  V30 25 1 24 26
M  V30 26 1 25 2
M  V30 27 1 11 6
M  V30 28 1 17 13
M  V30 29 1 21 15
M  V30 30 1 1 27
M  V30 31 1 1 28
M  V30 32 1 5 29
M  V30 33 1 5 30
M  V30 34 1 7 31
M  V30 35 1 7 32
M  V30 36 1 8 33
M  V30 37 1 8 34
M  V30 38 1 10 35
M  V30 39 1 10 36
M  V30 40 1 11 37
M  V30 41 1 11 38
M  V30 42 1 12 39
M  V30 43 1 18 40
M  V30 44 1 19 41
M  V30 45 1 20 42
M  V30 46 1 21 43
M  V30 47 1 22 44
M  V30 48 1 22 45
M  V30 49 1 22 46
M  V30 50 1 26 47
M  V30 51 1 26 48
M  V30 END BOND
M  V30 END CTAB
M  END
