
     RDKit          3D

  0  0  0  0  0  0  0  0  0  0999 V3000
M  V30 BEGIN CTAB
M  V30 COUNTS 22 22 0 0 0
M  V30 BEGIN ATOM
M  V30 1 N -0.351365 3.84408 -0.524179 0
M  V30 2 C -0.543761 2.70925 -0.333624 0
M  V30 3 C -0.799479 1.30341 -0.114015 0
M  V30 4 C -2.10586 0.920821 0.178644 0
M  V30 5 C -2.42375 -0.387391 0.398056 0
M  V30 6 N -3.75846 -0.759975 0.694761 0
M  V30 7 C -1.40083 -1.32108 0.319365 0
M  V30 8 C -0.0978926 -0.940053 0.027595 0
M  V30 9 C 0.218032 0.377445 -0.192685 0
M  V30 10 N 1.5184 0.802765 -0.485893 0
M  V30 11 S 2.85759 -0.210348 -0.815232 0
M  V30 12 O 3.88926 0.567246 -1.62714 0
M  V30 13 O 2.54214 -1.41894 -1.60818 0
M  V30 14 N 3.68966 -0.657687 0.644964 0
M  V30 15 H -2.86458 1.6926 0.227388 0
M  V30 16 H -4.24643 -1.39488 0.00207803 0
M  V30 17 H -4.28366 -0.460732 1.52781 0
M  V30 18 H -1.61591 -2.34929 0.485255 0
M  V30 19 H 0.694854 -1.6667 -0.0306801 0
M  V30 20 H 1.71662 1.85037 -0.509653 0
M  V30 21 H 4.34037 -1.43832 0.390954 0
M  V30 22 H 3.02504 -1.06259 1.34441 0
M  V30 END ATOM
M  V30 BEGIN BOND
M  V30 1 3 1 2
M  V30 2 1 2 3
M  V30 3 2 3 4
M  V30 4 1 4 5
M  V30 5 1 5 6
M  V30 6 2 5 7
M  V30 7 1 7 8
M  V30 8 2 8 9
M  V30 9 1 9 10
M  V30 10 1 10 11
M  V30 11 2 11 12
M  V30 12 2 11 13
M  V30 13 1 11 14
M  V30 14 1 9 3
M  V30 15 1 4 15
M  V30 16 1 6 16
M  V30 17 1 6 17
M  V30 18 1 7 18
M  V30 19 1 8 19
M  V30 20 1 10 20
M  V30 21 1 14 21
M  V30 22 1 14 22
M  V30 END BOND
M  V30 END CTAB
M  END
