
     RDKit          3D

  0  0  0  0  0  0  0  0  0  0999 V3000
M  V30 BEGIN CTAB
M  V30 COUNTS 28 29 0 0 0
M  V30 BEGIN ATOM
M  V30 1 N -0.0110992 2.15742 -1.98886 0
M  V30 2 C -0.175319 1.18682 -0.974236 0
M  V30 3 N 0.86505 0.461877 -0.528957 0
M  V30 4 C 0.76306 -0.461013 0.421254 0
M  V30 5 N 1.8876 -1.18802 0.845865 0
M  V30 6 C 3.21489 -1.07556 0.367006 0
M  V30 7 C 3.95653 0.208107 0.363818 0
M  V30 8 C 3.61249 -0.535579 -0.921135 0
M  V30 9 N -0.482888 -0.640524 0.935601 0
M  V30 10 C -1.53783 0.0682336 0.510427 0
M  V30 11 N -1.37522 0.98888 -0.453839 0
M  V30 12 C -2.88747 -0.136938 1.07832 0
M  V30 13 N -3.15628 -1.5612 1.17967 0
M  V30 14 C -3.93183 0.458583 0.177277 0
M  V30 15 H -0.404551 2.02862 -2.93714 0
M  V30 16 H 0.520574 3.02095 -1.76812 0
M  V30 17 H 1.67125 -1.90363 1.63058 0
M  V30 18 H 3.86056 -1.95033 0.729925 0
M  V30 19 H 5.03736 0.20261 0.597117 0
M  V30 20 H 3.45567 1.16813 0.580075 0
M  V30 21 H 3.04801 0.0742989 -1.61474 0
M  V30 22 H 4.47996 -1.04583 -1.45671 0
M  V30 23 H -2.9758 0.341852 2.09388 0
M  V30 24 H -2.6576 -2.07611 0.401429 0
M  V30 25 H -4.18382 -1.73687 0.996567 0
M  V30 26 H -4.75824 -0.209894 -0.0591251 0
M  V30 27 H -3.4697 0.757153 -0.806301 0
M  V30 28 H -4.36534 1.39795 0.600357 0
M  V30 END ATOM
M  V30 BEGIN BOND
M  V30 1 1 1 2
M  V30 2 2 2 3
M  V30 3 1 3 4
M  V30 4 1 4 5
M  V30 5 1 5 6
M  V30 6 1 6 7
M  V30 7 1 7 8
M  V30 8 2 4 9
M  V30 9 1 9 10
M  V30 10 2 10 11
M  V30 11 1 10 12
M  V30 12 1 12 13
M  V30 13 1 12 14
M  V30 14 1 11 2
M  V30 15 1 8 6
M  V30 16 1 1 15
M  V30 17 1 1 16
M  V30 18 1 5 17
M  V30 19 1 6 18
M  V30 20 1 7 19
M  V30 21 1 7 20
M  V30 22 1 8 21
M  V30 23 1 8 22
M  V30 24 1 12 23
M  V30 25 1 13 24
M  V30 26 1 13 25
M  V30 27 1 14 26
M  V30 28 1 14 27
M  V30 29 1 14 28
M  V30 END BOND
M  V30 END CTAB
M  END
