
     RDKit          3D

  0  0  0  0  0  0  0  0  0  0999 V3000
M  V30 BEGIN CTAB
M  V30 COUNTS 26 26 0 0 0
M  V30 BEGIN ATOM
M  V30 1 C 0.189677 -0.774582 -1.92843 0
M  V30 2 C 0.426628 -0.205793 -0.584999 0
M  V30 3 N 1.61073 -0.213017 -0.0900424 0
M  V30 4 N 2.7191 -0.736114 -0.7535 0
M  V30 5 C 3.63557 -1.62475 -0.138656 0
M  V30 6 N 4.73535 -2.11157 -0.87918 0
M  V30 7 S 3.45747 -2.10306 1.40242 0
M  V30 8 C -0.680671 0.360066 0.172184 0
M  V30 9 C -1.96095 0.385091 -0.325209 0
M  V30 10 C -3.02907 0.91465 0.369703 0
M  V30 11 C -2.835 1.45184 1.62544 0
M  V30 12 N -3.9246 2.0084 2.37006 0
M  V30 13 C -1.54314 1.43177 2.13863 0
M  V30 14 C -0.487281 0.898342 1.43001 0
M  V30 15 H -0.6274 -1.53581 -1.88074 0
M  V30 16 H 1.08456 -1.24158 -2.33995 0
M  V30 17 H -0.216177 0.0539352 -2.55739 0
M  V30 18 H 2.86964 -0.454407 -1.7434 0
M  V30 19 H 5.67511 -2.24125 -0.455137 0
M  V30 20 H 4.59693 -2.34969 -1.89107 0
M  V30 21 H -2.13124 -0.0354391 -1.3162 0
M  V30 22 H -4.03323 0.928645 -0.0326812 0
M  V30 23 H -4.03308 1.79707 3.37561 0
M  V30 24 H -4.58155 2.62741 1.82922 0
M  V30 25 H -1.42126 1.86234 3.13058 0
M  V30 26 H 0.50387 0.907511 1.87737 0
M  V30 END ATOM
M  V30 BEGIN BOND
M  V30 1 1 1 2
M  V30 2 2 2 3 CFG=2
M  V30 3 1 3 4
M  V30 4 1 4 5
M  V30 5 1 5 6
M  V30 6 2 5 7
M  V30 7 1 2 8
M  V30 8 2 8 9
M  V30 9 1 9 10
M  V30 10 2 10 11
M  V30 11 1 11 12
M  V30 12 1 11 13
M  V30 13 2 13 14
M  V30 14 1 14 8
M  V30 15 1 1 15
M  V30 16 1 1 16
M  V30 17 1 1 17
M  V30 18 1 4 18
M  V30 19 1 6 19
M  V30 20 1 6 20
M  V30 21 1 9 21
M  V30 22 1 10 22
M  V30 23 1 12 23
M  V30 24 1 12 24
M  V30 25 1 13 25
M  V30 26 1 14 26
M  V30 END BOND
M  V30 END CTAB
M  END
