
     RDKit          3D

  0  0  0  0  0  0  0  0  0  0999 V3000
M  V30 BEGIN CTAB
M  V30 COUNTS 32 32 0 0 0
M  V30 BEGIN ATOM
M  V30 1 N -5.17949 -2.25275 -1.18049 0
M  V30 2 C -4.02684 -1.8176 -0.370091 0
M  V30 3 C -4.14893 -0.344263 -0.208969 0
M  V30 4 C -3.07892 0.328554 0.592092 0
M  V30 5 C -1.71509 0.216027 0.0427184 0
M  V30 6 O -1.58156 -0.337177 -1.05441 0
M  V30 7 N -0.624965 0.721821 0.750375 0
M  V30 8 C 0.73896 0.720513 0.41579 0
M  V30 9 C 1.65761 1.29781 1.30526 0
M  V30 10 F 1.22976 1.85152 2.47702 0
M  V30 11 C 3.00029 1.33354 1.04724 0
M  V30 12 C 3.50788 0.795913 -0.112988 0
M  V30 13 C 2.63834 0.233454 -0.985803 0
M  V30 14 C 1.26589 0.197666 -0.720653 0
M  V30 15 S 5.2255 0.82343 -0.47812 0
M  V30 16 N 5.94088 -0.597389 0.149103 0
M  V30 17 O 5.85278 2.06756 0.0446868 0
M  V30 18 O 5.38304 0.8071 -1.96656 0
M  V30 19 H -6.02328 -2.09022 -0.574383 0
M  V30 20 H -5.21944 -1.58026 -1.9754 0
M  V30 21 H -3.10332 -2.15497 -0.831162 0
M  V30 22 H -4.12945 -2.31535 0.619235 0
M  V30 23 H -5.1203 -0.0677681 0.303789 0
M  V30 24 H -4.26734 0.12494 -1.22418 0
M  V30 25 H -3.39851 1.38567 0.723792 0
M  V30 26 H -3.13598 -0.13118 1.6229 0
M  V30 27 H -0.903923 1.18068 1.701 0
M  V30 28 H 3.7068 1.78621 1.74807 0
M  V30 29 H 2.9821 -0.202947 -1.91095 0
M  V30 30 H 0.645314 -0.266734 -1.46514 0
M  V30 31 H 6.65872 -0.421529 0.870687 0
M  V30 32 H 5.22349 -1.29227 0.456884 0
M  V30 END ATOM
M  V30 BEGIN BOND
M  V30 1 1 1 2
M  V30 2 1 2 3
M  V30 3 1 3 4
M  V30 4 1 4 5
M  V30 5 2 5 6
M  V30 6 1 5 7
M  V30 7 1 7 8
M  V30 8 2 8 9
M  V30 9 1 9 10
M  V30 10 1 9 11
M  V30 11 2 11 12
M  V30 12 1 12 13
M  V30 13 2 13 14
M  V30 14 1 12 15
M  V30 15 1 15 16
M  V30 16 2 15 17
M  V30 17 2 15 18
M  V30 18 1 14 8
M  V30 19 1 1 19
M  V30 20 1 1 20
M  V30 21 1 2 21
M  V30 22 1 2 22
M  V30 23 1 3 23
M  V30 24 1 3 24
M  V30 25 1 4 25
M  V30 26 1 4 26
M  V30 27 1 7 27
M  V30 28 1 11 28
M  V30 29 1 13 29
M  V30 30 1 14 30
M  V30 31 1 16 31
M  V30 32 1 16 32
M  V30 END BOND
M  V30 END CTAB
M  END
