
     RDKit          3D

  0  0  0  0  0  0  0  0  0  0999 V3000
M  V30 BEGIN CTAB
M  V30 COUNTS 27 28 0 0 0
M  V30 BEGIN ATOM
M  V30 1 N 4.77823 0.285913 0.352724 0
M  V30 2 C 4.17761 -0.824531 -0.36616 0
M  V30 3 C 2.70466 -0.757449 -0.235147 0
M  V30 4 O 1.81597 -1.55449 -0.773895 0
M  V30 5 N 0.606119 -1.19293 -0.440249 0
M  V30 6 C 0.693821 -0.120665 0.345823 0
M  V30 7 N 2.00606 0.151381 0.473922 0
M  V30 8 C -0.450178 0.601496 0.940725 0
M  V30 9 C -1.70469 0.20137 0.236962 0
M  V30 10 C -2.66011 -0.566366 0.875624 0
M  V30 11 C -3.82529 -0.950549 0.249431 0
M  V30 12 Br -5.15799 -2.01299 1.1195 0
M  V30 13 C -3.99981 -0.531814 -1.05688 0
M  V30 14 C -3.05059 0.235642 -1.70363 0
M  V30 15 C -1.88724 0.61469 -1.06653 0
M  V30 16 F -0.948383 1.3702 -1.69649 0
M  V30 17 N -0.244076 2.03094 0.787134 0
M  V30 18 H 5.66557 0.585073 -0.133457 0
M  V30 19 H 4.1273 1.09257 0.467911 0
M  V30 20 H 4.59897 -1.75467 0.10502 0
M  V30 21 H 4.44764 -0.812051 -1.43305 0
M  V30 22 H -0.54128 0.300839 2.00265 0
M  V30 23 H -2.52737 -0.899852 1.90674 0
M  V30 24 H -4.92984 -0.841951 -1.55001 0
M  V30 25 H -3.20958 0.552244 -2.72777 0
M  V30 26 H -1.10052 2.53349 0.50083 0
M  V30 27 H 0.614984 2.26445 0.275512 0
M  V30 END ATOM
M  V30 BEGIN BOND
M  V30 1 1 1 2
M  V30 2 1 2 3
M  V30 3 1 3 4
M  V30 4 1 4 5
M  V30 5 2 5 6
M  V30 6 1 6 7
M  V30 7 1 6 8
M  V30 8 1 8 9
M  V30 9 2 9 10
M  V30 10 1 10 11
M  V30 11 1 11 12
M  V30 12 2 11 13
M  V30 13 1 13 14
M  V30 14 2 14 15
M  V30 15 1 15 16
M  V30 16 1 8 17
M  V30 17 2 7 3
M  V30 18 1 15 9
M  V30 19 1 1 18
M  V30 20 1 1 19
M  V30 21 1 2 20
M  V30 22 1 2 21
M  V30 23 1 8 22
M  V30 24 1 10 23
M  V30 25 1 13 24
M  V30 26 1 14 25
M  V30 27 1 17 26
M  V30 28 1 17 27
M  V30 END BOND
M  V30 END CTAB
M  END
