
     RDKit          3D

  0  0  0  0  0  0  0  0  0  0999 V3000
M  V30 BEGIN CTAB
M  V30 COUNTS 52 53 0 0 0
M  V30 BEGIN ATOM
M  V30 1 O 0.883962 0.303836 -1.86014 0
M  V30 2 C 1.21353 -0.922993 -1.88082 0
M  V30 3 N 2.38412 -1.41273 -1.29275 0
M  V30 4 N 3.32475 -0.629467 -0.618874 0
M  V30 5 C 4.59585 -0.757934 -0.723197 0
M  V30 6 C 5.54403 0.0889323 0.00521156 0
M  V30 7 C 6.89831 -0.10866 -0.15632 0
M  V30 8 C 7.83582 0.674823 0.517783 0
M  V30 9 C 7.40083 1.66847 1.36407 0
M  V30 10 C 6.04147 1.85877 1.51935 0
M  V30 11 C 5.11749 1.07884 0.848348 0
M  V30 12 N 5.58957 2.87468 2.38469 0
M  V30 13 C 5.09654 -1.8206 -1.63023 0
M  V30 14 C 0.295228 -1.85621 -2.56736 0
M  V30 15 C -0.974998 -1.25634 -3.04304 0
M  V30 16 C -1.7755 -0.741628 -1.91251 0
M  V30 17 O -1.36615 -0.95245 -0.745796 0
M  V30 18 N -2.9964 -0.0161579 -2.17055 0
M  V30 19 N -3.69975 0.439838 -1.05107 0
M  V30 20 C -4.64676 -0.236806 -0.544129 0
M  V30 21 C -5.41711 0.192699 0.627649 0
M  V30 22 C -6.43794 -0.56878 1.14859 0
M  V30 23 C -7.15189 -0.134498 2.26151 0
M  V30 24 C -6.83989 1.0681 2.8532 0
M  V30 25 C -5.81591 1.86025 2.35264 0
M  V30 26 C -5.14372 1.38732 1.25524 0
M  V30 27 N -5.47489 3.10067 2.94162 0
M  V30 28 C -4.99962 -1.5309 -1.16262 0
M  V30 29 H 2.59589 -2.4303 -1.34487 0
M  V30 30 H 7.28665 -0.877249 -0.810534 0
M  V30 31 H 8.90043 0.520751 0.391988 0
M  V30 32 H 8.08323 2.29748 1.90485 0
M  V30 33 H 4.06407 1.22387 0.966572 0
M  V30 34 H 5.97847 2.99368 3.32273 0
M  V30 35 H 4.8265 3.51545 2.02519 0
M  V30 36 H 4.33015 -2.1232 -2.37186 0
M  V30 37 H 5.56648 -2.66268 -1.10311 0
M  V30 38 H 5.91684 -1.34721 -2.24626 0
M  V30 39 H 0.847308 -2.2136 -3.48729 0
M  V30 40 H 0.128628 -2.78492 -1.96912 0
M  V30 41 H -0.758371 -0.425467 -3.7492 0
M  V30 42 H -1.58448 -2.05215 -3.55824 0
M  V30 43 H -3.29307 0.132902 -3.14066 0
M  V30 44 H -6.69582 -1.52117 0.691905 0
M  V30 45 H -7.95959 -0.749702 2.66382 0
M  V30 46 H -7.3737 1.45451 3.73296 0
M  V30 47 H -4.34359 1.98769 0.849639 0
M  V30 48 H -6.1659 3.61911 3.5107 0
M  V30 49 H -4.52795 3.48686 2.79909 0
M  V30 50 H -5.06488 -2.27389 -0.313925 0
M  V30 51 H -4.22488 -1.92035 -1.83317 0
M  V30 52 H -6.01339 -1.50147 -1.60016 0
M  V30 END ATOM
M  V30 BEGIN BOND
M  V30 1 2 1 2
M  V30 2 1 2 3
M  V30 3 1 3 4
M  V30 4 2 4 5
M  V30 5 1 5 6
M  V30 6 2 6 7
M  V30 7 1 7 8
M  V30 8 2 8 9
M  V30 9 1 9 10
M  V30 10 2 10 11
M  V30 11 1 10 12
M  V30 12 1 5 13
M  V30 13 1 2 14
M  V30 14 1 14 15
M  V30 15 1 15 16
M  V30 16 2 16 17
M  V30 17 1 16 18
M  V30 18 1 18 19
M  V30 19 2 19 20
M  V30 20 1 20 21
M  V30 21 2 21 22
M  V30 22 1 22 23
M  V30 23 2 23 24
M  V30 24 1 24 25
M  V30 25 2 25 26
M  V30 26 1 25 27
M  V30 27 1 20 28
M  V30 28 1 11 6
M  V30 29 1 26 21
M  V30 30 1 3 29
M  V30 31 1 7 30
M  V30 32 1 8 31
M  V30 33 1 9 32
M  V30 34 1 11 33
M  V30 35 1 12 34
M  V30 36 1 12 35
M  V30 37 1 13 36
M  V30 38 1 13 37
M  V30 39 1 13 38
M  V30 40 1 14 39
M  V30 41 1 14 40
M  V30 42 1 15 41
M  V30 43 1 15 42
M  V30 44 1 18 43
M  V30 45 1 22 44
M  V30 46 1 23 45
M  V30 47 1 24 46
M  V30 48 1 26 47
M  V30 49 1 27 48
M  V30 50 1 27 49
M  V30 51 1 28 50
M  V30 52 1 28 51
M  V30 53 1 28 52
M  V30 END BOND
M  V30 END CTAB
M  END
