
     RDKit          3D

  0  0  0  0  0  0  0  0  0  0999 V3000
M  V30 BEGIN CTAB
M  V30 COUNTS 53 56 0 0 0
M  V30 BEGIN ATOM
M  V30 1 N 8.28119 1.05182 0.334116 0
M  V30 2 C 6.93368 0.804042 -0.220863 0 CFG=1
M  V30 3 C 6.16014 0.163298 0.882061 0
M  V30 4 C 4.77217 -0.190871 0.582739 0
M  V30 5 C 3.77659 0.714943 0.865905 0
M  V30 6 C 2.42941 0.427443 0.599663 0
M  V30 7 C 2.05776 -0.768063 0.0471998 0
M  V30 8 C 3.0731 -1.65876 -0.227383 0
M  V30 9 C 4.39797 -1.39611 0.0258193 0
M  V30 10 C 0.685938 -1.13044 -0.253404 0
M  V30 11 N 0.378676 -2.32654 -0.799406 0
M  V30 12 C -0.888738 -2.71035 -1.0978 0
M  V30 13 N -1.12359 -3.98762 -1.67105 0
M  V30 14 N -1.9035 -1.86771 -0.842912 0
M  V30 15 C -1.67119 -0.675394 -0.306464 0
M  V30 16 O -2.72514 0.187738 -0.0469182 0
M  V30 17 C -4.06268 -0.100282 -0.31102 0
M  V30 18 C -4.62541 0.808542 -1.37319 0
M  V30 19 N -4.02446 1.13766 -2.52922 0
M  V30 20 C -4.82544 1.97339 -3.23418 0
M  V30 21 C -5.94157 2.13812 -2.4546 0
M  V30 22 O -5.77933 1.43057 -1.36324 0
M  V30 23 C -4.91893 -0.119869 0.88031 0
M  V30 24 C -4.79715 0.886674 1.8107 0
M  V30 25 C -5.56197 0.937085 2.94909 0
M  V30 26 C -6.4805 -0.0756936 3.14022 0
M  V30 27 C -6.63115 -1.10091 2.23025 0
M  V30 28 C -5.84333 -1.11054 1.10397 0
M  V30 29 C -0.379908 -0.297068 -0.00791863 0
M  V30 30 C 6.42364 2.13153 -0.623497 0
M  V30 31 O 7.12162 3.31721 -0.360016 0
M  V30 32 O 5.33151 2.28606 -1.22815 0
M  V30 33 H 8.75408 0.144505 0.544485 0
M  V30 34 H 8.14869 1.656 1.15189 0
M  V30 35 H 7.01856 0.165747 -1.12643 0
M  V30 36 H 6.15981 0.890032 1.73495 0
M  V30 37 H 6.65439 -0.76225 1.27046 0
M  V30 38 H 3.99432 1.6886 1.30693 0
M  V30 39 H 1.69592 1.16831 0.839791 0
M  V30 40 H 2.79175 -2.61453 -0.667437 0
M  V30 41 H 5.14874 -2.1283 -0.208762 0
M  V30 42 H -0.648425 -4.24251 -2.54353 0
M  V30 43 H -1.76471 -4.63843 -1.2059 0
M  V30 44 H -4.09427 -1.13223 -0.756924 0
M  V30 45 H -4.61852 2.40148 -4.18696 0
M  V30 46 H -6.77675 2.76658 -2.76152 0
M  V30 47 H -4.08115 1.70358 1.69176 0
M  V30 48 H -5.44399 1.75242 3.67542 0
M  V30 49 H -7.09168 -0.0341333 4.05132 0
M  V30 50 H -7.37689 -1.88076 2.43188 0
M  V30 51 H -5.98329 -1.92729 0.407261 0
M  V30 52 H -0.189618 0.69741 0.439157 0
M  V30 53 H 8.06364 3.44586 -0.726292 0
M  V30 END ATOM
M  V30 BEGIN BOND
M  V30 1 1 1 2
M  V30 2 1 2 3
M  V30 3 1 3 4
M  V30 4 2 4 5
M  V30 5 1 5 6
M  V30 6 2 6 7
M  V30 7 1 7 8
M  V30 8 2 8 9
M  V30 9 1 7 10
M  V30 10 2 10 11
M  V30 11 1 11 12
M  V30 12 1 12 13
M  V30 13 2 12 14
M  V30 14 1 14 15
M  V30 15 1 15 16
M  V30 16 1 16 17
M  V30 17 1 17 18
M  V30 18 2 18 19
M  V30 19 1 19 20
M  V30 20 2 20 21
M  V30 21 1 21 22
M  V30 22 1 17 23
M  V30 23 2 23 24
M  V30 24 1 24 25
M  V30 25 2 25 26
M  V30 26 1 26 27
M  V30 27 2 27 28
M  V30 28 2 15 29
M  V30 29 1 2 30
M  V30 30 1 30 31
M  V30 31 2 30 32
M  V30 32 1 9 4
M  V30 33 1 29 10
M  V30 34 1 22 18
M  V30 35 1 28 23
M  V30 36 1 1 33
M  V30 37 1 1 34
M  V30 38 1 2 35 CFG=3
M  V30 39 1 3 36
M  V30 40 1 3 37
M  V30 41 1 5 38
M  V30 42 1 6 39
M  V30 43 1 8 40
M  V30 44 1 9 41
M  V30 45 1 13 42
M  V30 46 1 13 43
M  V30 47 1 17 44
M  V30 48 1 20 45
M  V30 49 1 21 46
M  V30 50 1 24 47
M  V30 51 1 25 48
M  V30 52 1 26 49
M  V30 53 1 27 50
M  V30 54 1 28 51
M  V30 55 1 29 52
M  V30 56 1 31 53
M  V30 END BOND
M  V30 END CTAB
M  END
