
     RDKit          3D

  0  0  0  0  0  0  0  0  0  0999 V3000
M  V30 BEGIN CTAB
M  V30 COUNTS 25 27 0 0 0
M  V30 BEGIN ATOM
M  V30 1 N -4.68391 0.648188 -0.132298 0
M  V30 2 C -3.2627 0.506197 -0.0334208 0
M  V30 3 C -2.50186 1.59796 0.327538 0
M  V30 4 C -1.13089 1.48248 0.428603 0
M  V30 5 C -0.534043 0.272392 0.166685 0
M  V30 6 C -1.26015 -0.842664 -0.197085 0
M  V30 7 O -0.453038 -1.8555 -0.386802 0
M  V30 8 C 0.800916 -1.45762 -0.161558 0
M  V30 9 C 0.777312 -0.125897 0.187437 0
M  V30 10 C 1.91647 0.589317 0.485368 0
M  V30 11 C 3.10841 -0.110002 0.415265 0
M  V30 12 N 4.30823 0.588697 0.714677 0
M  V30 13 C 3.17518 -1.44537 0.0694532 0
M  V30 14 C 2.00605 -2.11185 -0.218503 0
M  V30 15 C -2.64642 -0.68144 -0.287552 0
M  V30 16 H -5.22098 1.3955 0.344408 0
M  V30 17 H -5.22241 -0.0306917 -0.712752 0
M  V30 18 H -3.02645 2.54115 0.525978 0
M  V30 19 H -0.5615 2.3582 0.714226 0
M  V30 20 H 1.88607 1.64561 0.761066 0
M  V30 21 H 4.37066 1.24698 1.51943 0
M  V30 22 H 5.17004 0.47002 0.142302 0
M  V30 23 H 4.14264 -1.96666 0.0247639 0
M  V30 24 H 2.05316 -3.1566 -0.489573 0
M  V30 25 H -3.21079 -1.5584 -0.573006 0
M  V30 END ATOM
M  V30 BEGIN BOND
M  V30 1 1 1 2
M  V30 2 2 2 3
M  V30 3 1 3 4
M  V30 4 2 4 5
M  V30 5 1 5 6
M  V30 6 1 6 7
M  V30 7 1 7 8
M  V30 8 2 8 9
M  V30 9 1 9 10
M  V30 10 2 10 11
M  V30 11 1 11 12
M  V30 12 1 11 13
M  V30 13 2 13 14
M  V30 14 2 6 15
M  V30 15 1 15 2
M  V30 16 1 9 5
M  V30 17 1 14 8
M  V30 18 1 1 16
M  V30 19 1 1 17
M  V30 20 1 3 18
M  V30 21 1 4 19
M  V30 22 1 10 20
M  V30 23 1 12 21
M  V30 24 1 12 22
M  V30 25 1 13 23
M  V30 26 1 14 24
M  V30 27 1 15 25
M  V30 END BOND
M  V30 END CTAB
M  END
