
     RDKit          3D

  0  0  0  0  0  0  0  0  0  0999 V3000
M  V30 BEGIN CTAB
M  V30 COUNTS 60 63 0 0 0
M  V30 BEGIN ATOM
M  V30 1 C -2.94801 2.69725 -3.0152 0
M  V30 2 C -3.47382 2.3985 -1.61589 0
M  V30 3 C -3.62455 3.42475 -0.735226 0
M  V30 4 S -4.21512 2.63302 0.638155 0
M  V30 5 C -4.25856 0.978641 0.0528963 0
M  V30 6 C -3.8048 1.15955 -1.18946 0
M  V30 7 C -4.77951 -0.106851 0.871952 0
M  V30 8 C -5.62561 0.288111 1.95709 0
M  V30 9 C -6.14019 -0.644996 2.80414 0
M  V30 10 F -6.94002 -0.17671 3.81445 0
M  V30 11 C -5.86708 -1.97037 2.64486 0
M  V30 12 C -5.03897 -2.35797 1.5849 0
M  V30 13 C -4.48812 -1.43174 0.692027 0
M  V30 14 C -3.56799 -1.88632 -0.357934 0
M  V30 15 O -2.23104 -1.60368 0.000398802 0
M  V30 16 C -1.14211 -1.37397 -0.765867 0
M  V30 17 C 0.0986791 -1.11078 -0.171302 0
M  V30 18 C 1.19837 -0.878904 -0.946439 0
M  V30 19 N 1.04262 -0.91326 -2.29335 0
M  V30 20 C -0.131139 -1.1623 -2.89274 0
M  V30 21 N -0.201855 -1.17924 -4.30478 0
M  V30 22 N -1.18377 -1.38426 -2.09831 0
M  V30 23 C 2.51855 -0.59856 -0.366337 0
M  V30 24 C 3.58727 -0.372306 -1.2226 0
M  V30 25 C 4.84464 -0.105062 -0.732777 0
M  V30 26 C 5.11429 -0.046828 0.641625 0
M  V30 27 C 6.474 0.203733 1.14357 0
M  V30 28 C 6.8062 1.66116 1.22171 0 CFG=2
M  V30 29 N 8.18334 1.81183 1.7305 0
M  V30 30 C 5.87584 2.36238 2.1174 0
M  V30 31 O 4.56128 2.63909 1.82076 0
M  V30 32 O 6.28802 2.75725 3.25489 0
M  V30 33 C 4.04048 -0.274125 1.47367 0
M  V30 34 C 2.76382 -0.545565 0.977076 0
M  V30 35 C -3.6282 -3.44517 -0.437122 0
M  V30 36 F -4.88415 -3.86757 -0.700106 0
M  V30 37 F -3.04373 -4.06674 0.59828 0
M  V30 38 F -2.92089 -3.77697 -1.64238 0
M  V30 39 H -2.15934 3.46561 -2.95882 0
M  V30 40 H -2.57696 1.79047 -3.51048 0
M  V30 41 H -3.76952 3.10909 -3.63345 0
M  V30 42 H -3.40505 4.50219 -0.908288 0
M  V30 43 H -3.70849 0.297126 -1.89964 0
M  V30 44 H -5.84853 1.33132 2.08592 0
M  V30 45 H -6.28607 -2.68001 3.32528 0
M  V30 46 H -4.8761 -3.41253 1.53038 0
M  V30 47 H -3.83023 -1.5927 -1.35939 0
M  V30 48 H 0.151187 -1.09865 0.929917 0
M  V30 49 H -1.11796 -1.25401 -4.76552 0
M  V30 50 H 0.658964 -1.11699 -4.86833 0
M  V30 51 H 3.42347 -0.407884 -2.3044 0
M  V30 52 H 5.69316 0.0745678 -1.3832 0
M  V30 53 H 7.25155 -0.330245 0.532313 0
M  V30 54 H 6.55676 -0.262515 2.15224 0
M  V30 55 H 6.80732 2.06218 0.179185 0
M  V30 56 H 8.80085 1.08716 1.33801 0
M  V30 57 H 8.52231 2.77162 1.48636 0
M  V30 58 H 4.29365 2.88447 0.868722 0
M  V30 59 H 4.20439 -0.238491 2.55138 0
M  V30 60 H 1.95645 -0.716793 1.67338 0
M  V30 END ATOM
M  V30 BEGIN BOND
M  V30 1 1 1 2
M  V30 2 2 2 3
M  V30 3 1 3 4
M  V30 4 1 4 5
M  V30 5 2 5 6
M  V30 6 1 5 7
M  V30 7 2 7 8
M  V30 8 1 8 9
M  V30 9 1 9 10
M  V30 10 2 9 11
M  V30 11 1 11 12
M  V30 12 2 12 13
M  V30 13 1 13 14
M  V30 14 1 14 15
M  V30 15 1 15 16
M  V30 16 2 16 17
M  V30 17 1 17 18
M  V30 18 2 18 19
M  V30 19 1 19 20
M  V30 20 1 20 21
M  V30 21 2 20 22
M  V30 22 1 18 23
M  V30 23 2 23 24
M  V30 24 1 24 25
M  V30 25 2 25 26
M  V30 26 1 26 27
M  V30 27 1 27 28
M  V30 28 1 28 29
M  V30 29 1 28 30
M  V30 30 1 30 31
M  V30 31 2 30 32
M  V30 32 1 26 33
M  V30 33 2 33 34
M  V30 34 1 14 35
M  V30 35 1 35 36
M  V30 36 1 35 37
M  V30 37 1 35 38
M  V30 38 1 6 2
M  V30 39 1 13 7
M  V30 40 1 22 16
M  V30 41 1 34 23
M  V30 42 1 1 39
M  V30 43 1 1 40
M  V30 44 1 1 41
M  V30 45 1 3 42
M  V30 46 1 6 43
M  V30 47 1 8 44
M  V30 48 1 11 45
M  V30 49 1 12 46
M  V30 50 1 14 47
M  V30 51 1 17 48
M  V30 52 1 21 49
M  V30 53 1 21 50
M  V30 54 1 24 51
M  V30 55 1 25 52
M  V30 56 1 27 53
M  V30 57 1 27 54
M  V30 58 1 28 55 CFG=3
M  V30 59 1 29 56
M  V30 60 1 29 57
M  V30 61 1 31 58
M  V30 62 1 33 59
M  V30 63 1 34 60
M  V30 END BOND
M  V30 END CTAB
M  END
