
     RDKit          3D

  0  0  0  0  0  0  0  0  0  0999 V3000
M  V30 BEGIN CTAB
M  V30 COUNTS 51 54 0 0 0
M  V30 BEGIN ATOM
M  V30 1 N 1.53345 3.80025 -0.248636 0
M  V30 2 C 0.276218 3.11091 -0.18292 0
M  V30 3 C -0.86568 3.80916 0.116678 0
M  V30 4 C -2.03571 3.09247 0.164238 0
M  V30 5 C -2.0858 1.7283 -0.0752803 0
M  V30 6 C -0.870591 1.09436 -0.374366 0
M  V30 7 N 0.251458 1.79119 -0.418231 0
M  V30 8 N -0.905775 -0.289427 -0.653969 0
M  V30 9 C 0.214486 -1.08007 -1.01044 0
M  V30 10 C 0.929133 -1.81525 0.0567949 0
M  V30 11 C 1.5955 -1.06807 1.13839 0
M  V30 12 O 2.63198 -0.227404 0.844879 0
M  V30 13 C 3.85969 -0.3862 0.305811 0
M  V30 14 C 4.44383 -1.55941 -0.118794 0
M  V30 15 C 5.71883 -1.55358 -0.654698 0
M  V30 16 C 6.45076 -0.397067 -0.786276 0
M  V30 17 C 5.88732 0.803967 -0.365675 0
M  V30 18 C 4.62979 0.77964 0.159827 0
M  V30 19 N 6.64568 2.00999 -0.500572 0
M  V30 20 C -2.20018 -0.940367 -0.611917 0
M  V30 21 O -2.45764 -1.92985 -1.34638 0
M  V30 22 C -3.17995 -0.363439 0.343817 0
M  V30 23 O -3.28017 1.02117 -0.022202 0
M  V30 24 C -4.50805 -1.01257 0.212521 0
M  V30 25 C -4.9458 -1.84494 1.21973 0
M  V30 26 C -6.16386 -2.47407 1.15671 0
M  V30 27 C -7.00194 -2.29216 0.0690565 0
M  V30 28 C -6.53981 -1.45699 -0.920245 0
M  V30 29 C -5.32542 -0.82091 -0.87245 0
M  V30 30 H 1.57675 4.8308 -0.170433 0
M  V30 31 H 2.41582 3.28371 -0.374704 0
M  V30 32 H -0.831352 4.86196 0.302176 0
M  V30 33 H -2.9713 3.59682 0.397445 0
M  V30 34 H 0.968951 -0.374084 -1.47431 0
M  V30 35 H -0.0952811 -1.76399 -1.83647 0
M  V30 36 H 1.61679 -2.55512 -0.465836 0
M  V30 37 H 0.208908 -2.5377 0.590682 0
M  V30 38 H 0.791498 -0.468889 1.66137 0
M  V30 39 H 1.91771 -1.84098 1.90868 0
M  V30 40 H 3.89184 -2.46948 -0.0157948 0
M  V30 41 H 6.16045 -2.48954 -0.983523 0
M  V30 42 H 7.44829 -0.383123 -1.20413 0
M  V30 43 H 4.21071 1.74083 0.48304 0
M  V30 44 H 7.21044 2.13648 -1.34613 0
M  V30 45 H 6.59893 2.70634 0.251909 0
M  V30 46 H -2.84662 -0.427408 1.39878 0
M  V30 47 H -4.34934 -2.04405 2.11207 0
M  V30 48 H -6.54264 -3.13745 1.93165 0
M  V30 49 H -7.96726 -2.76927 -0.0173558 0
M  V30 50 H -7.14567 -1.26139 -1.81544 0
M  V30 51 H -4.96935 -0.164075 -1.65738 0
M  V30 END ATOM
M  V30 BEGIN BOND
M  V30 1 1 1 2
M  V30 2 2 2 3
M  V30 3 1 3 4
M  V30 4 2 4 5
M  V30 5 1 5 6
M  V30 6 2 6 7
M  V30 7 1 6 8
M  V30 8 1 8 9
M  V30 9 1 9 10
M  V30 10 1 10 11
M  V30 11 1 11 12
M  V30 12 1 12 13
M  V30 13 2 13 14
M  V30 14 1 14 15
M  V30 15 2 15 16
M  V30 16 1 16 17
M  V30 17 2 17 18
M  V30 18 1 17 19
M  V30 19 1 8 20
M  V30 20 2 20 21
M  V30 21 1 20 22
M  V30 22 1 22 23
M  V30 23 1 22 24
M  V30 24 2 24 25
M  V30 25 1 25 26
M  V30 26 2 26 27
M  V30 27 1 27 28
M  V30 28 2 28 29
M  V30 29 1 7 2
M  V30 30 1 18 13
M  V30 31 1 29 24
M  V30 32 1 23 5
M  V30 33 1 1 30
M  V30 34 1 1 31
M  V30 35 1 3 32
M  V30 36 1 4 33
M  V30 37 1 9 34
M  V30 38 1 9 35
M  V30 39 1 10 36
M  V30 40 1 10 37
M  V30 41 1 11 38
M  V30 42 1 11 39
M  V30 43 1 14 40
M  V30 44 1 15 41
M  V30 45 1 16 42
M  V30 46 1 18 43
M  V30 47 1 19 44
M  V30 48 1 19 45
M  V30 49 1 22 46
M  V30 50 1 25 47
M  V30 51 1 26 48
M  V30 52 1 27 49
M  V30 53 1 28 50
M  V30 54 1 29 51
M  V30 END BOND
M  V30 END CTAB
M  END
