
     RDKit          3D

  0  0  0  0  0  0  0  0  0  0999 V3000
M  V30 BEGIN CTAB
M  V30 COUNTS 36 37 0 0 0
M  V30 BEGIN ATOM
M  V30 1 N 2.97251 -0.896106 -1.40169 0
M  V30 2 C 1.59325 -1.13377 -0.94926 0
M  V30 3 C 1.19064 0.0222963 -0.0743051 0
M  V30 4 C 2.14466 0.0939383 1.12061 0
M  V30 5 C 2.60416 1.47354 0.706703 0
M  V30 6 C 1.80257 1.29657 -0.565418 0
M  V30 7 C -0.254155 0.0849692 0.311309 0
M  V30 8 O -0.400986 1.23494 1.12316 0
M  V30 9 C -0.69877 -1.08692 1.1197 0
M  V30 10 C -1.88077 -1.74914 0.425041 0
M  V30 11 C -2.97427 -0.694968 0.40621 0
M  V30 12 C -2.57465 0.329649 -0.626496 0
M  V30 13 C -1.09998 0.339411 -0.913413 0
M  V30 14 N -3.08098 1.60137 -0.197209 0
M  V30 15 H 3.6536 -1.27122 -0.710057 0
M  V30 16 H 3.14392 -1.4541 -2.28741 0
M  V30 17 H 0.971978 -1.26347 -1.84115 0
M  V30 18 H 1.65311 -2.05934 -0.326297 0
M  V30 19 H 2.97444 -0.616375 1.09866 0
M  V30 20 H 1.60001 0.0717189 2.08423 0
M  V30 21 H 3.70071 1.57073 0.523766 0
M  V30 22 H 2.22628 2.27832 1.38685 0
M  V30 23 H 1.15083 2.1509 -0.726089 0
M  V30 24 H 2.49012 1.18696 -1.45212 0
M  V30 25 H -0.454256 2.0485 0.570554 0
M  V30 26 H 0.0979789 -1.82848 1.3124 0
M  V30 27 H -1.08018 -0.790191 2.13023 0
M  V30 28 H -1.67299 -2.03043 -0.607043 0
M  V30 29 H -2.17652 -2.60024 1.07005 0
M  V30 30 H -3.06071 -0.258911 1.41269 0
M  V30 31 H -3.90355 -1.23053 0.0862061 0
M  V30 32 H -3.08641 0.0592664 -1.57398 0
M  V30 33 H -0.885587 -0.454506 -1.63491 0
M  V30 34 H -0.846311 1.35681 -1.28147 0
M  V30 35 H -2.83883 1.85971 0.766728 0
M  V30 36 H -3.00087 2.3591 -0.898356 0
M  V30 END ATOM
M  V30 BEGIN BOND
M  V30 1 1 1 2
M  V30 2 1 2 3
M  V30 3 1 3 4
M  V30 4 1 4 5
M  V30 5 1 5 6
M  V30 6 1 3 7
M  V30 7 1 7 8
M  V30 8 1 7 9
M  V30 9 1 9 10
M  V30 10 1 10 11
M  V30 11 1 11 12
M  V30 12 1 12 13
M  V30 13 1 12 14
M  V30 14 1 6 3
M  V30 15 1 13 7
M  V30 16 1 1 15
M  V30 17 1 1 16
M  V30 18 1 2 17
M  V30 19 1 2 18
M  V30 20 1 4 19
M  V30 21 1 4 20
M  V30 22 1 5 21
M  V30 23 1 5 22
M  V30 24 1 6 23
M  V30 25 1 6 24
M  V30 26 1 8 25
M  V30 27 1 9 26
M  V30 28 1 9 27
M  V30 29 1 10 28
M  V30 30 1 10 29
M  V30 31 1 11 30
M  V30 32 1 11 31
M  V30 33 1 12 32
M  V30 34 1 13 33
M  V30 35 1 13 34
M  V30 36 1 14 35
M  V30 37 1 14 36
M  V30 END BOND
M  V30 END CTAB
M  END
