
     RDKit          3D

  0  0  0  0  0  0  0  0  0  0999 V3000
M  V30 BEGIN CTAB
M  V30 COUNTS 40 41 0 0 0
M  V30 BEGIN ATOM
M  V30 1 C -7.60007 0.25767 0.0835764 0
M  V30 2 C -6.7694 -0.9012 0.62289 0
M  V30 3 O -5.41928 -0.741969 0.250103 0
M  V30 4 C -4.70089 0.343686 0.629777 0
M  V30 5 O -5.30809 1.21042 1.33987 0
M  V30 6 C -3.3096 0.598377 0.297568 0
M  V30 7 S -2.36757 1.94506 0.75082 0
M  V30 8 C -0.878713 1.5001 -0.0221084 0
M  V30 9 N -1.21693 0.3551 -0.567579 0
M  V30 10 C -2.41065 -0.129591 -0.434762 0
M  V30 11 C -2.81885 -1.44106 -1.05117 0
M  V30 12 N 0.326835 2.25117 -0.00483166 0
M  V30 13 C 1.46836 1.78424 -0.67251 0
M  V30 14 O 2.56185 2.44994 -0.66728 0
M  V30 15 C 1.46087 0.514039 -1.4061 0
M  V30 16 S 3.06566 0.163316 -2.18041 0
M  V30 17 C 4.34702 -0.128077 -0.976807 0
M  V30 18 N 4.60004 -1.37629 -0.498878 0
M  V30 19 C 5.56159 -1.61961 0.409154 0
M  V30 20 N 5.75439 -2.96037 0.852358 0
M  V30 21 C 6.33774 -0.593783 0.895489 0
M  V30 22 C 6.08416 0.675684 0.412738 0
M  V30 23 N 5.11442 0.863732 -0.491537 0
M  V30 24 N 6.89054 1.73546 0.919586 0
M  V30 25 H -7.72739 0.97763 0.930659 0
M  V30 26 H -8.59846 -0.106305 -0.273778 0
M  V30 27 H -7.0487 0.729551 -0.75591 0
M  V30 28 H -6.89434 -0.964608 1.73032 0
M  V30 29 H -7.16176 -1.8757 0.227618 0
M  V30 30 H -3.42539 -2.03995 -0.361954 0
M  V30 31 H -1.92264 -2.01339 -1.31894 0
M  V30 32 H -3.41158 -1.29475 -1.9763 0
M  V30 33 H 0.327642 3.17604 0.530921 0
M  V30 34 H 1.22546 -0.337069 -0.710883 0
M  V30 35 H 0.716972 0.478973 -2.22704 0
M  V30 36 H 5.02362 -3.4523 1.40618 0
M  V30 37 H 6.61907 -3.50194 0.647274 0
M  V30 38 H 7.11185 -0.751335 1.61903 0
M  V30 39 H 6.65976 2.22386 1.79043 0
M  V30 40 H 7.73245 1.99523 0.36217 0
M  V30 END ATOM
M  V30 BEGIN BOND
M  V30 1 1 1 2
M  V30 2 1 2 3
M  V30 3 1 3 4
M  V30 4 2 4 5
M  V30 5 1 4 6
M  V30 6 1 6 7
M  V30 7 1 7 8
M  V30 8 2 8 9
M  V30 9 1 9 10
M  V30 10 1 10 11
M  V30 11 1 8 12
M  V30 12 1 12 13
M  V30 13 2 13 14
M  V30 14 1 13 15
M  V30 15 1 15 16
M  V30 16 1 16 17
M  V30 17 2 17 18
M  V30 18 1 18 19
M  V30 19 1 19 20
M  V30 20 2 19 21
M  V30 21 1 21 22
M  V30 22 2 22 23
M  V30 23 1 22 24
M  V30 24 2 10 6
M  V30 25 1 23 17
M  V30 26 1 1 25
M  V30 27 1 1 26
M  V30 28 1 1 27
M  V30 29 1 2 28
M  V30 30 1 2 29
M  V30 31 1 11 30
M  V30 32 1 11 31
M  V30 33 1 11 32
M  V30 34 1 12 33
M  V30 35 1 15 34
M  V30 36 1 15 35
M  V30 37 1 20 36
M  V30 38 1 20 37
M  V30 39 1 21 38
M  V30 40 1 24 39
M  V30 41 1 24 40
M  V30 END BOND
M  V30 END CTAB
M  END
