
     RDKit          3D

  0  0  0  0  0  0  0  0  0  0999 V3000
M  V30 BEGIN CTAB
M  V30 COUNTS 49 51 0 0 0
M  V30 BEGIN ATOM
M  V30 1 C -3.58401 -1.47812 -1.79057 0
M  V30 2 C -3.48239 -0.689355 -0.554794 0
M  V30 3 C -4.68193 -0.50222 0.148847 0
M  V30 4 C -4.69788 0.186947 1.33627 0
M  V30 5 N -5.93772 0.347479 2.00696 0
M  V30 6 C -7.13884 -0.182729 1.48034 0
M  V30 7 N -7.77107 -1.35163 1.9708 0
M  V30 8 N -7.72752 0.416393 0.481179 0
M  V30 9 C -3.50573 0.679948 1.80197 0
M  V30 10 C -2.33504 0.490516 1.1022 0
M  V30 11 C -2.3027 -0.211453 -0.114313 0
M  V30 12 C -1.007 -0.291093 -0.782797 0
M  V30 13 C -0.692277 -0.679462 -2.0441 0
M  V30 14 C 0.710212 -0.566402 -2.18813 0
M  V30 15 C 1.16093 -0.113182 -1.00328 0
M  V30 16 O 0.134819 0.030163 -0.224076 0
M  V30 17 C 2.5444 0.184006 -0.58215 0
M  V30 18 C 3.58906 0.290547 -1.44586 0
M  V30 19 C 3.47142 0.250071 -2.91058 0
M  V30 20 C 4.89157 0.504581 -0.957805 0
M  V30 21 C 5.13663 0.611953 0.385144 0
M  V30 22 N 6.4523 0.827384 0.865201 0
M  V30 23 C 6.65808 0.931858 2.25976 0
M  V30 24 N 7.13889 -0.180508 2.99845 0
M  V30 25 N 6.40576 2.04485 2.85509 0
M  V30 26 C 4.07221 0.505349 1.25877 0
M  V30 27 C 2.80213 0.295846 0.787065 0
M  V30 28 H -2.79617 -2.2822 -1.79039 0
M  V30 29 H -4.57836 -2.00004 -1.79657 0
M  V30 30 H -3.52869 -0.809375 -2.66612 0
M  V30 31 H -5.60831 -0.895464 -0.232194 0
M  V30 32 H -6.02174 0.864975 2.92152 0
M  V30 33 H -7.72495 -2.21034 1.38861 0
M  V30 34 H -8.27809 -1.4043 2.87626 0
M  V30 35 H -7.31716 1.27203 0.0792061 0
M  V30 36 H -3.50436 1.22226 2.73174 0
M  V30 37 H -1.40448 0.88365 1.47882 0
M  V30 38 H -1.28597 -1.0084 -2.86552 0
M  V30 39 H 1.22447 -0.846663 -3.11997 0
M  V30 40 H 3.51831 -0.756246 -3.35933 0
M  V30 41 H 4.39139 0.764385 -3.33913 0
M  V30 42 H 2.65211 0.901597 -3.29586 0
M  V30 43 H 5.71961 0.586156 -1.63729 0
M  V30 44 H 7.26416 0.910057 0.224444 0
M  V30 45 H 6.58599 -1.06259 3.08914 0
M  V30 46 H 8.06765 -0.179174 3.49008 0
M  V30 47 H 6.05232 2.89134 2.36552 0
M  V30 48 H 4.2989 0.595087 2.32055 0
M  V30 49 H 1.96906 0.211506 1.46041 0
M  V30 END ATOM
M  V30 BEGIN BOND
M  V30 1 1 1 2
M  V30 2 2 2 3
M  V30 3 1 3 4
M  V30 4 1 4 5
M  V30 5 1 5 6
M  V30 6 1 6 7
M  V30 7 2 6 8 CFG=2
M  V30 8 2 4 9
M  V30 9 1 9 10
M  V30 10 2 10 11
M  V30 11 1 11 12
M  V30 12 2 12 13
M  V30 13 1 13 14
M  V30 14 2 14 15
M  V30 15 1 15 16
M  V30 16 1 15 17
M  V30 17 2 17 18
M  V30 18 1 18 19
M  V30 19 1 18 20
M  V30 20 2 20 21
M  V30 21 1 21 22
M  V30 22 1 22 23
M  V30 23 1 23 24
M  V30 24 2 23 25 CFG=2
M  V30 25 1 21 26
M  V30 26 2 26 27
M  V30 27 1 11 2
M  V30 28 1 16 12
M  V30 29 1 27 17
M  V30 30 1 1 28
M  V30 31 1 1 29
M  V30 32 1 1 30
M  V30 33 1 3 31
M  V30 34 1 5 32
M  V30 35 1 7 33
M  V30 36 1 7 34
M  V30 37 1 8 35
M  V30 38 1 9 36
M  V30 39 1 10 37
M  V30 40 1 13 38
M  V30 41 1 14 39
M  V30 42 1 19 40
M  V30 43 1 19 41
M  V30 44 1 19 42
M  V30 45 1 20 43
M  V30 46 1 22 44
M  V30 47 1 24 45
M  V30 48 1 24 46
M  V30 49 1 25 47
M  V30 50 1 26 48
M  V30 51 1 27 49
M  V30 END BOND
M  V30 END CTAB
M  END
