
     RDKit          3D

  0  0  0  0  0  0  0  0  0  0999 V3000
M  V30 BEGIN CTAB
M  V30 COUNTS 31 32 0 0 0
M  V30 BEGIN ATOM
M  V30 1 N -3.57304 0.61487 1.67239 0
M  V30 2 C -3.48089 1.08995 0.32054 0
M  V30 3 C -2.70036 0.214491 -0.600886 0
M  V30 4 N -1.33726 -0.00364351 -0.254422 0
M  V30 5 C -0.779625 -0.865006 -1.31482 0
M  V30 6 C 0.725252 -0.732221 -1.30395 0
M  V30 7 N 1.13939 -0.737335 0.0722484 0
M  V30 8 C 0.270534 -1.30292 1.06657 0
M  V30 9 C -1.08631 -0.587676 1.01983 0
M  V30 10 C 2.40369 -0.179362 0.405383 0
M  V30 11 S 3.20166 -0.0166196 1.91214 0
M  V30 12 N 4.60837 0.736098 1.37215 0
M  V30 13 C 4.40528 0.829924 0.0604626 0
M  V30 14 N 3.28471 0.363036 -0.419695 0
M  V30 15 N 5.39915 1.43232 -0.808045 0
M  V30 16 H -3.95877 1.33774 2.31752 0
M  V30 17 H -4.15889 -0.234744 1.77667 0
M  V30 18 H -3.08344 2.13475 0.327037 0
M  V30 19 H -4.53746 1.19066 -0.0509242 0
M  V30 20 H -3.26575 -0.744112 -0.77559 0
M  V30 21 H -2.6952 0.699506 -1.61864 0
M  V30 22 H -1.16012 -0.491082 -2.28631 0
M  V30 23 H -1.10807 -1.90672 -1.13513 0
M  V30 24 H 1.1359 -1.61687 -1.87166 0
M  V30 25 H 0.981386 0.225231 -1.79837 0
M  V30 26 H 0.0920332 -2.39353 0.834249 0
M  V30 27 H 0.661002 -1.2208 2.09041 0
M  V30 28 H -1.87032 -1.29198 1.37018 0
M  V30 29 H -1.02811 0.221654 1.77621 0
M  V30 30 H 5.80457 0.83378 -1.56014 0
M  V30 31 H 5.71068 2.40061 -0.713 0
M  V30 END ATOM
M  V30 BEGIN BOND
M  V30 1 1 1 2
M  V30 2 1 2 3
M  V30 3 1 3 4
M  V30 4 1 4 5
M  V30 5 1 5 6
M  V30 6 1 6 7
M  V30 7 1 7 8
M  V30 8 1 8 9
M  V30 9 1 7 10
M  V30 10 1 10 11
M  V30 11 1 11 12
M  V30 12 2 12 13
M  V30 13 1 13 14
M  V30 14 1 13 15
M  V30 15 1 9 4
M  V30 16 2 14 10
M  V30 17 1 1 16
M  V30 18 1 1 17
M  V30 19 1 2 18
M  V30 20 1 2 19
M  V30 21 1 3 20
M  V30 22 1 3 21
M  V30 23 1 5 22
M  V30 24 1 5 23
M  V30 25 1 6 24
M  V30 26 1 6 25
M  V30 27 1 8 26
M  V30 28 1 8 27
M  V30 29 1 9 28
M  V30 30 1 9 29
M  V30 31 1 15 30
M  V30 32 1 15 31
M  V30 END BOND
M  V30 END CTAB
M  END
