
     RDKit          3D

  0  0  0  0  0  0  0  0  0  0999 V3000
M  V30 BEGIN CTAB
M  V30 COUNTS 39 40 0 0 0
M  V30 BEGIN ATOM
M  V30 1 C -3.42943 -3.96323 -0.201012 0
M  V30 2 O -2.82838 -2.70651 -0.250873 0
M  V30 3 C -3.39998 -1.50675 0.0650076 0
M  V30 4 C -4.68523 -1.43009 0.477685 0
M  V30 5 C -5.23407 -0.197083 0.79325 0
M  V30 6 C -4.5282 0.95569 0.704869 0
M  V30 7 C -3.18482 0.878397 0.274338 0
M  V30 8 C -2.63427 -0.338093 -0.0401023 0
M  V30 9 N -1.32788 -0.433808 -0.542863 0
M  V30 10 C -0.332374 0.52539 -0.416228 0
M  V30 11 O -0.421639 1.59064 0.176079 0
M  V30 12 C 1.00798 0.260451 -1.07382 0
M  V30 13 S 2.05733 -0.630243 0.0759374 0
M  V30 14 C 3.70348 -0.0186936 -0.00692509 0
M  V30 15 N 4.13171 0.995677 0.783634 0
M  V30 16 C 5.36749 1.47011 0.734584 0
M  V30 17 N 5.74293 2.54379 1.59961 0
M  V30 18 C 6.27742 0.926658 -0.148057 0
M  V30 19 C 5.855 -0.116639 -0.96792 0
M  V30 20 N 4.5972 -0.530062 -0.852184 0
M  V30 21 N 6.73827 -0.723403 -1.90559 0
M  V30 22 C -5.08145 2.27849 1.0052 0
M  V30 23 O -4.38529 3.31698 0.915432 0
M  V30 24 O -6.39656 2.37768 1.39362 0
M  V30 25 H -3.93021 -4.26801 -1.13931 0
M  V30 26 H -4.20275 -3.97202 0.599336 0
M  V30 27 H -2.71124 -4.77781 0.0568631 0
M  V30 28 H -5.33945 -2.30845 0.580401 0
M  V30 29 H -6.25704 -0.149263 1.11893 0
M  V30 30 H -2.6607 1.81885 0.207017 0
M  V30 31 H -1.11766 -1.35322 -1.08095 0
M  V30 32 H 1.45625 1.2435 -1.38256 0
M  V30 33 H 0.817379 -0.28874 -2.00907 0
M  V30 34 H 6.4635 3.20472 1.24265 0
M  V30 35 H 5.33095 2.67585 2.53957 0
M  V30 36 H 7.27629 1.28591 -0.211475 0
M  V30 37 H 7.76013 -0.580457 -1.77128 0
M  V30 38 H 6.43235 -1.29939 -2.71299 0
M  V30 39 H -6.92703 3.24316 1.3692 0
M  V30 END ATOM
M  V30 BEGIN BOND
M  V30 1 1 1 2
M  V30 2 1 2 3
M  V30 3 2 3 4
M  V30 4 1 4 5
M  V30 5 2 5 6
M  V30 6 1 6 7
M  V30 7 2 7 8
M  V30 8 1 8 9
M  V30 9 1 9 10
M  V30 10 2 10 11
M  V30 11 1 10 12
M  V30 12 1 12 13
M  V30 13 1 13 14
M  V30 14 2 14 15
M  V30 15 1 15 16
M  V30 16 1 16 17
M  V30 17 2 16 18
M  V30 18 1 18 19
M  V30 19 2 19 20
M  V30 20 1 19 21
M  V30 21 1 6 22
M  V30 22 2 22 23
M  V30 23 1 22 24
M  V30 24 1 8 3
M  V30 25 1 20 14
M  V30 26 1 1 25
M  V30 27 1 1 26
M  V30 28 1 1 27
M  V30 29 1 4 28
M  V30 30 1 5 29
M  V30 31 1 7 30
M  V30 32 1 9 31
M  V30 33 1 12 32
M  V30 34 1 12 33
M  V30 35 1 17 34
M  V30 36 1 17 35
M  V30 37 1 18 36
M  V30 38 1 21 37
M  V30 39 1 21 38
M  V30 40 1 24 39
M  V30 END BOND
M  V30 END CTAB
M  END
