
     RDKit          3D

  0  0  0  0  0  0  0  0  0  0999 V3000
M  V30 BEGIN CTAB
M  V30 COUNTS 31 32 0 0 0
M  V30 BEGIN ATOM
M  V30 1 O -4.37478 1.14872 0.598313 0
M  V30 2 C -3.0635 1.24905 1.06032 0
M  V30 3 C -2.1287 0.826877 -0.0470132 0 CFG=1
M  V30 4 O -0.807491 0.929591 0.424948 0
M  V30 5 C -0.125234 0.294793 -0.637993 0 CFG=2
M  V30 6 C -0.818263 -1.03391 -0.677584 0
M  V30 7 C -2.27138 -0.610091 -0.422767 0 CFG=1
M  V30 8 N -2.90314 -1.4083 0.577273 0
M  V30 9 O -0.378981 -1.926 0.276721 0
M  V30 10 N 1.25239 0.247068 -0.303315 0
M  V30 11 C 2.05508 -0.789397 -0.588965 0
M  V30 12 C 3.40169 -0.790807 -0.240285 0
M  V30 13 C 3.92803 0.300464 0.416274 0
M  V30 14 N 3.0949 1.32138 0.68662 0
M  V30 15 C 1.78207 1.3038 0.337652 0
M  V30 16 O 1.09818 2.31742 0.643232 0
M  V30 17 N 5.31178 0.337343 0.792846 0
M  V30 18 H -4.38347 1.00168 -0.379007 0
M  V30 19 H -2.92421 0.688426 1.98359 0
M  V30 20 H -2.88896 2.34538 1.23163 0
M  V30 21 H -2.19464 1.50306 -0.911865 0
M  V30 22 H -0.34527 0.847542 -1.56083 0
M  V30 23 H -0.707926 -1.49682 -1.67604 0
M  V30 24 H -2.82958 -0.72416 -1.38382 0
M  V30 25 H -3.08289 -2.35568 0.231922 0
M  V30 26 H -2.46888 -1.32652 1.50151 0
M  V30 27 H -0.474106 -1.62343 1.19359 0
M  V30 28 H 1.64388 -1.65003 -1.10574 0
M  V30 29 H 4.05215 -1.61989 -0.46661 0
M  V30 30 H 5.55291 0.54694 1.77462 0
M  V30 31 H 5.99834 0.145491 0.0320599 0
M  V30 END ATOM
M  V30 BEGIN BOND
M  V30 1 1 1 2
M  V30 2 1 2 3
M  V30 3 1 3 4
M  V30 4 1 4 5
M  V30 5 1 5 6
M  V30 6 1 6 7
M  V30 7 1 7 8
M  V30 8 1 6 9
M  V30 9 1 5 10
M  V30 10 1 10 11
M  V30 11 2 11 12
M  V30 12 1 12 13
M  V30 13 2 13 14
M  V30 14 1 14 15
M  V30 15 2 15 16
M  V30 16 1 13 17
M  V30 17 1 7 3
M  V30 18 1 15 10
M  V30 19 1 1 18
M  V30 20 1 2 19
M  V30 21 1 2 20
M  V30 22 1 3 21 CFG=3
M  V30 23 1 5 22 CFG=3
M  V30 24 1 6 23
M  V30 25 1 7 24 CFG=3
M  V30 26 1 8 25
M  V30 27 1 8 26
M  V30 28 1 9 27
M  V30 29 1 11 28
M  V30 30 1 12 29
M  V30 31 1 17 30
M  V30 32 1 17 31
M  V30 END BOND
M  V30 END CTAB
M  END
