
     RDKit          3D

  0  0  0  0  0  0  0  0  0  0999 V3000
M  V30 BEGIN CTAB
M  V30 COUNTS 38 40 0 0 0
M  V30 BEGIN ATOM
M  V30 1 N 4.46747 2.1281 2.12446 0
M  V30 2 C 3.95461 1.07277 1.30229 0
M  V30 3 C 4.70298 -0.0838302 1.14685 0
M  V30 4 C 4.19202 -1.09163 0.349625 0
M  V30 5 N 4.98027 -2.26278 0.209558 0
M  V30 6 N 2.99575 -0.946513 -0.258128 0
M  V30 7 C 2.2736 0.175108 -0.105339 0
M  V30 8 N 2.78812 1.14382 0.674253 0
M  V30 9 N 1.01211 0.363624 -0.728306 0
M  V30 10 C 0.239632 1.57739 -0.55738 0
M  V30 11 C -1.01933 1.19669 0.188275 0
M  V30 12 N -1.66659 0.127032 -0.543801 0
M  V30 13 C -1.03668 -0.709582 -1.52591 0
M  V30 14 C 0.447257 -0.656645 -1.5628 0
M  V30 15 C -3.05162 -0.120702 -0.263792 0
M  V30 16 C -3.74604 0.574348 0.707569 0
M  V30 17 C -5.07134 0.345733 0.980123 0
M  V30 18 C -5.76994 -0.605568 0.279096 0
M  V30 19 C -5.11549 -1.31936 -0.696043 0
M  V30 20 C -3.7867 -1.06787 -0.946732 0
M  V30 21 H 4.71363 3.01139 1.63203 0
M  V30 22 H 4.59905 2.056 3.14272 0
M  V30 23 H 5.66276 -0.180125 1.64456 0
M  V30 24 H 5.58879 -2.60384 0.992644 0
M  V30 25 H 4.99442 -2.8342 -0.66411 0
M  V30 26 H -0.087182 1.87801 -1.58761 0
M  V30 27 H 0.804173 2.37609 -0.0526749 0
M  V30 28 H -0.728666 0.890064 1.21375 0
M  V30 29 H -1.64879 2.12735 0.186854 0
M  V30 30 H -1.31107 -1.77372 -1.27091 0
M  V30 31 H -1.50655 -0.444491 -2.51821 0
M  V30 32 H 0.937293 -1.66021 -1.38932 0
M  V30 33 H 0.745053 -0.403225 -2.62321 0
M  V30 34 H -3.1736 1.33522 1.26472 0
M  V30 35 H -5.57259 0.902448 1.73716 0
M  V30 36 H -6.83953 -0.796418 0.492641 0
M  V30 37 H -5.68191 -2.07258 -1.24602 0
M  V30 38 H -3.28538 -1.6479 -1.72888 0
M  V30 END ATOM
M  V30 BEGIN BOND
M  V30 1 1 1 2
M  V30 2 2 2 3
M  V30 3 1 3 4
M  V30 4 1 4 5
M  V30 5 2 4 6
M  V30 6 1 6 7
M  V30 7 2 7 8
M  V30 8 1 7 9
M  V30 9 1 9 10
M  V30 10 1 10 11
M  V30 11 1 11 12
M  V30 12 1 12 13
M  V30 13 1 13 14
M  V30 14 1 12 15
M  V30 15 2 15 16
M  V30 16 1 16 17
M  V30 17 2 17 18
M  V30 18 1 18 19
M  V30 19 2 19 20
M  V30 20 1 8 2
M  V30 21 1 14 9
M  V30 22 1 20 15
M  V30 23 1 1 21
M  V30 24 1 1 22
M  V30 25 1 3 23
M  V30 26 1 5 24
M  V30 27 1 5 25
M  V30 28 1 10 26
M  V30 29 1 10 27
M  V30 30 1 11 28
M  V30 31 1 11 29
M  V30 32 1 13 30
M  V30 33 1 13 31
M  V30 34 1 14 32
M  V30 35 1 14 33
M  V30 36 1 16 34
M  V30 37 1 17 35
M  V30 38 1 18 36
M  V30 39 1 19 37
M  V30 40 1 20 38
M  V30 END BOND
M  V30 END CTAB
M  END
