
     RDKit          3D

  0  0  0  0  0  0  0  0  0  0999 V3000
M  V30 BEGIN CTAB
M  V30 COUNTS 19 19 0 0 0
M  V30 BEGIN ATOM
M  V30 1 O -3.45067 0.498329 -0.492965 0
M  V30 2 C -2.62031 -0.534697 -0.121067 0
M  V30 3 O -3.12612 -1.64523 0.153818 0
M  V30 4 C -1.18701 -0.301578 -0.0602291 0
M  V30 5 C -0.30713 -1.31072 0.309183 0
M  V30 6 C 1.05977 -1.0898 0.367625 0
M  V30 7 N 1.9158 -2.1489 0.749308 0
M  V30 8 C 1.57303 0.161356 0.0529167 0
M  V30 9 C 0.712243 1.1798 -0.317473 0
M  V30 10 C -0.629281 0.922506 -0.363166 0
M  V30 11 N 1.24059 2.47642 -0.643926 0
M  V30 12 I 3.63563 0.508497 0.137117 0
M  V30 13 H -4.07947 0.981817 0.136796 0
M  V30 14 H -0.727255 -2.27619 0.549879 0
M  V30 15 H 2.76325 -2.36409 0.188725 0
M  V30 16 H 1.68235 -2.70398 1.59561 0
M  V30 17 H -1.33722 1.71443 -0.654627 0
M  V30 18 H 1.49963 3.1783 0.0639087 0
M  V30 19 H 1.38216 2.75372 -1.65143 0
M  V30 END ATOM
M  V30 BEGIN BOND
M  V30 1 1 1 2
M  V30 2 2 2 3
M  V30 3 1 2 4
M  V30 4 2 4 5
M  V30 5 1 5 6
M  V30 6 1 6 7
M  V30 7 2 6 8
M  V30 8 1 8 9
M  V30 9 2 9 10
M  V30 10 1 9 11
M  V30 11 1 8 12
M  V30 12 1 10 4
M  V30 13 1 1 13
M  V30 14 1 5 14
M  V30 15 1 7 15
M  V30 16 1 7 16
M  V30 17 1 10 17
M  V30 18 1 11 18
M  V30 19 1 11 19
M  V30 END BOND
M  V30 END CTAB
M  END
