
     RDKit          3D

  0  0  0  0  0  0  0  0  0  0999 V3000
M  V30 BEGIN CTAB
M  V30 COUNTS 46 48 0 0 0
M  V30 BEGIN ATOM
M  V30 1 C -5.73653 0.85648 -1.8622 0
M  V30 2 N -5.31277 0.637991 -0.550066 0
M  V30 3 C -6.31627 0.585927 0.420891 0
M  V30 4 S -3.80613 1.24468 -0.163377 0
M  V30 5 O -3.91754 2.12044 1.0966 0
M  V30 6 O -3.28758 2.10692 -1.24951 0
M  V30 7 C -2.62878 -0.016086 0.235217 0
M  V30 8 C -3.08261 -1.23267 0.72031 0
M  V30 9 C -2.16976 -2.17358 1.17613 0
M  V30 10 C -0.820237 -1.93406 1.16208 0
M  V30 11 Cl 0.272391 -3.13732 1.85276 0
M  V30 12 C -0.368593 -0.72085 0.672789 0
M  V30 13 C -1.30884 0.222988 0.212339 0
M  V30 14 N 1.00415 -0.354097 0.756501 0
M  V30 15 N 1.25895 0.605921 1.72168 0
M  V30 16 C 2.57157 0.772055 1.82922 0
M  V30 17 C 3.15802 -0.0914387 0.926543 0
M  V30 18 C 4.55692 -0.3158 0.70868 0
M  V30 19 O 5.06232 -1.25575 0.0620549 0
M  V30 20 N 5.45563 0.642438 1.28922 0
M  V30 21 C 5.55522 1.77992 0.671073 0
M  V30 22 N 6.43321 2.74971 1.20412 0
M  V30 23 N 4.80333 2.01874 -0.522672 0
M  V30 24 C 2.11517 -0.800981 0.244127 0
M  V30 25 C 2.42631 -1.86062 -0.729734 0
M  V30 26 C 2.50206 -1.88058 -2.16368 0
M  V30 27 C 1.18327 -2.27239 -1.59917 0
M  V30 28 H -6.50097 1.68925 -1.96619 0
M  V30 29 H -6.19319 -0.0299453 -2.3714 0
M  V30 30 H -4.92618 1.20117 -2.56706 0
M  V30 31 H -5.85335 0.479309 1.44713 0
M  V30 32 H -6.98847 1.47472 0.513837 0
M  V30 33 H -7.00562 -0.297416 0.283799 0
M  V30 34 H -4.1532 -1.3826 0.703972 0
M  V30 35 H -2.50336 -3.11036 1.55528 0
M  V30 36 H -0.909934 1.15859 -0.16624 0
M  V30 37 H 3.12254 1.44521 2.4979 0
M  V30 38 H 6.48154 3.70687 0.815081 0
M  V30 39 H 7.06529 2.53011 2.00028 0
M  V30 40 H 4.42531 2.96978 -0.677346 0
M  V30 41 H 4.6415 1.25534 -1.21086 0
M  V30 42 H 2.77116 -2.81307 -0.198393 0
M  V30 43 H 2.49815 -1.0072 -2.83709 0
M  V30 44 H 3.17042 -2.6885 -2.64667 0
M  V30 45 H 0.352851 -1.56481 -1.65332 0
M  V30 46 H 0.902655 -3.31443 -1.64464 0
M  V30 END ATOM
M  V30 BEGIN BOND
M  V30 1 1 1 2
M  V30 2 1 2 3
M  V30 3 1 2 4
M  V30 4 2 4 5
M  V30 5 2 4 6
M  V30 6 1 4 7
M  V30 7 2 7 8
M  V30 8 1 8 9
M  V30 9 2 9 10
M  V30 10 1 10 11
M  V30 11 1 10 12
M  V30 12 2 12 13
M  V30 13 1 12 14
M  V30 14 1 14 15
M  V30 15 2 15 16
M  V30 16 1 16 17
M  V30 17 1 17 18
M  V30 18 2 18 19
M  V30 19 1 18 20
M  V30 20 2 20 21
M  V30 21 1 21 22
M  V30 22 1 21 23
M  V30 23 2 17 24
M  V30 24 1 24 25
M  V30 25 1 25 26
M  V30 26 1 26 27
M  V30 27 1 13 7
M  V30 28 1 24 14
M  V30 29 1 27 25
M  V30 30 1 1 28
M  V30 31 1 1 29
M  V30 32 1 1 30
M  V30 33 1 3 31
M  V30 34 1 3 32
M  V30 35 1 3 33
M  V30 36 1 8 34
M  V30 37 1 9 35
M  V30 38 1 13 36
M  V30 39 1 16 37
M  V30 40 1 22 38
M  V30 41 1 22 39
M  V30 42 1 23 40
M  V30 43 1 23 41
M  V30 44 1 25 42
M  V30 45 1 26 43
M  V30 46 1 26 44
M  V30 47 1 27 45
M  V30 48 1 27 46
M  V30 END BOND
M  V30 END CTAB
M  END
