
     RDKit          3D

  0  0  0  0  0  0  0  0  0  0999 V3000
M  V30 BEGIN CTAB
M  V30 COUNTS 14 14 0 0 0
M  V30 BEGIN ATOM
M  V30 1 N -2.4554 -0.630593 0.10738 0
M  V30 2 C -1.21121 0.0307791 0.0842628 0
M  V30 3 C -0.0368513 -0.692928 -0.0625444 0
M  V30 4 C 1.18739 -0.0616038 -0.0870996 0
M  V30 5 N 2.41189 -0.779107 -0.236722 0
M  V30 6 N 1.18489 1.28164 0.0376124 0
M  V30 7 C 0.0568758 1.99516 0.180326 0
M  V30 8 N -1.1427 1.38822 0.205471 0
M  V30 9 H -2.74553 -1.14067 0.954556 0
M  V30 10 H -3.07097 -0.603768 -0.718663 0
M  V30 11 H -0.0225438 -1.77387 -0.163736 0
M  V30 12 H 2.48025 -1.55807 -0.897238 0
M  V30 13 H 3.25611 -0.526405 0.319762 0
M  V30 14 H 0.107815 3.07123 0.276633 0
M  V30 END ATOM
M  V30 BEGIN BOND
M  V30 1 1 1 2
M  V30 2 2 2 3
M  V30 3 1 3 4
M  V30 4 1 4 5
M  V30 5 2 4 6
M  V30 6 1 6 7
M  V30 7 2 7 8
M  V30 8 1 8 2
M  V30 9 1 1 9
M  V30 10 1 1 10
M  V30 11 1 3 11
M  V30 12 1 5 12
M  V30 13 1 5 13
M  V30 14 1 7 14
M  V30 END BOND
M  V30 END CTAB
M  END
