
     RDKit          3D

  0  0  0  0  0  0  0  0  0  0999 V3000
M  V30 BEGIN CTAB
M  V30 COUNTS 46 47 0 0 0
M  V30 BEGIN ATOM
M  V30 1 N 6.74182 -1.27804 2.88943 0
M  V30 2 C 6.6962 -1.48701 1.4897 0
M  V30 3 N 7.61777 -2.23809 0.938466 0
M  V30 4 C 5.65577 -0.889892 0.657854 0
M  V30 5 C 4.66147 -0.0953139 1.16129 0
M  V30 6 C 3.67873 0.459076 0.32074 0
M  V30 7 C 3.65419 0.24224 -1.03452 0
M  V30 8 N 2.69897 0.750103 -1.93237 0
M  V30 9 C 1.51114 1.41221 -1.65226 0
M  V30 10 O 1.11775 1.65135 -0.50041 0
M  V30 11 C 0.646593 1.86911 -2.77353 0
M  V30 12 C -0.665782 2.44685 -2.33526 0
M  V30 13 C -1.50326 1.44167 -1.62422 0
M  V30 14 O -1.06457 0.276057 -1.59524 0
M  V30 15 N -2.70465 1.8358 -1.03977 0
M  V30 16 C -3.64157 1.04722 -0.323975 0
M  V30 17 C -4.79516 1.66286 0.18492 0
M  V30 18 C -5.73833 0.955322 0.885 0
M  V30 19 C -5.62192 -0.396541 1.13616 0
M  V30 20 C -4.49909 -1.01195 0.644629 0
M  V30 21 C -3.52829 -0.293201 -0.0737323 0
M  V30 22 C -6.65367 -1.11126 1.88807 0
M  V30 23 N -7.78129 -0.370019 2.35274 0
M  V30 24 N -6.63268 -2.35917 2.16891 0
M  V30 25 C 4.68989 -0.578207 -1.51843 0
M  V30 26 C 5.6488 -1.11872 -0.696891 0
M  V30 27 H 6.59102 -0.343786 3.30727 0
M  V30 28 H 6.93112 -2.08263 3.50797 0
M  V30 29 H 8.3624 -2.66696 1.52496 0
M  V30 30 H 4.65097 0.0943494 2.21695 0
M  V30 31 H 2.92135 1.08454 0.769945 0
M  V30 32 H 2.92632 0.606583 -2.97004 0
M  V30 33 H 1.19173 2.68242 -3.3158 0
M  V30 34 H 0.461456 1.00402 -3.47659 0
M  V30 35 H -0.45407 3.3264 -1.6924 0
M  V30 36 H -1.19224 2.83387 -3.22252 0
M  V30 37 H -2.93573 2.88575 -1.15855 0
M  V30 38 H -4.90245 2.73727 -0.00629599 0
M  V30 39 H -6.61886 1.45589 1.26624 0
M  V30 40 H -4.36112 -2.07892 0.816753 0
M  V30 41 H -2.68127 -0.83787 -0.425796 0
M  V30 42 H -7.73911 0.0916214 3.28232 0
M  V30 43 H -8.64685 -0.276422 1.78951 0
M  V30 44 H -5.83536 -2.93872 1.85335 0
M  V30 45 H 4.70042 -0.771387 -2.58792 0
M  V30 46 H 6.44145 -1.75171 -1.09665 0
M  V30 END ATOM
M  V30 BEGIN BOND
M  V30 1 1 1 2
M  V30 2 2 2 3 CFG=2
M  V30 3 1 2 4
M  V30 4 2 4 5
M  V30 5 1 5 6
M  V30 6 2 6 7
M  V30 7 1 7 8
M  V30 8 1 8 9
M  V30 9 2 9 10
M  V30 10 1 9 11
M  V30 11 1 11 12
M  V30 12 1 12 13
M  V30 13 2 13 14
M  V30 14 1 13 15
M  V30 15 1 15 16
M  V30 16 2 16 17
M  V30 17 1 17 18
M  V30 18 2 18 19
M  V30 19 1 19 20
M  V30 20 2 20 21
M  V30 21 1 19 22
M  V30 22 1 22 23
M  V30 23 2 22 24 CFG=2
M  V30 24 1 7 25
M  V30 25 2 25 26
M  V30 26 1 26 4
M  V30 27 1 21 16
M  V30 28 1 1 27
M  V30 29 1 1 28
M  V30 30 1 3 29
M  V30 31 1 5 30
M  V30 32 1 6 31
M  V30 33 1 8 32
M  V30 34 1 11 33
M  V30 35 1 11 34
M  V30 36 1 12 35
M  V30 37 1 12 36
M  V30 38 1 15 37
M  V30 39 1 17 38
M  V30 40 1 18 39
M  V30 41 1 20 40
M  V30 42 1 21 41
M  V30 43 1 23 42
M  V30 44 1 23 43
M  V30 45 1 24 44
M  V30 46 1 25 45
M  V30 47 1 26 46
M  V30 END BOND
M  V30 END CTAB
M  END
