
     RDKit          3D

  0  0  0  0  0  0  0  0  0  0999 V3000
M  V30 BEGIN CTAB
M  V30 COUNTS 35 35 0 0 0
M  V30 BEGIN ATOM
M  V30 1 N -2.97359 1.93584 -0.844441 0
M  V30 2 C -1.99986 0.926798 -0.97467 0
M  V30 3 C -1.9808 0.0143624 0.21025 0
M  V30 4 C -0.943774 -1.02017 0.0163873 0
M  V30 5 O -1.37634 -2.22032 -0.0461169 0
M  V30 6 N 0.434853 -0.792484 -0.100903 0
M  V30 7 C 1.29883 -1.96891 -0.295904 0
M  V30 8 C 2.52678 -1.4888 -1.0405 0
M  V30 9 C 3.35522 -0.666029 -0.0989364 0
M  V30 10 C 2.48105 0.318234 0.616108 0 CFG=2
M  V30 11 C 1.12045 0.467308 -0.0507508 0
M  V30 12 N 3.16954 1.58336 0.693018 0
M  V30 13 C -3.38205 -0.611576 0.290767 0
M  V30 14 C -1.77495 0.721596 1.50981 0
M  V30 15 H -3.86093 1.60157 -0.608663 0
M  V30 16 H -2.62064 2.82657 -0.687677 0
M  V30 17 H -1.05191 1.38016 -1.25391 0
M  V30 18 H -2.32864 0.289692 -1.85012 0
M  V30 19 H 1.62346 -2.28009 0.711514 0
M  V30 20 H 0.727977 -2.71531 -0.85 0
M  V30 21 H 3.04716 -2.38605 -1.42136 0
M  V30 22 H 2.19584 -0.877566 -1.9075 0
M  V30 23 H 3.78989 -1.36646 0.664098 0
M  V30 24 H 4.19511 -0.183756 -0.638766 0
M  V30 25 H 2.28788 -0.0168188 1.66689 0
M  V30 26 H 0.607354 1.27275 0.470924 0
M  V30 27 H 1.30755 0.837543 -1.09716 0
M  V30 28 H 3.77394 1.56754 1.52931 0
M  V30 29 H 2.49341 2.37026 0.803056 0
M  V30 30 H -4.03948 0.0919288 0.81752 0
M  V30 31 H -3.76312 -0.757534 -0.746119 0
M  V30 32 H -3.25725 -1.56369 0.839076 0
M  V30 33 H -2.62882 0.645236 2.21017 0
M  V30 34 H -0.910655 0.260182 2.02944 0
M  V30 35 H -1.5435 1.80463 1.39138 0
M  V30 END ATOM
M  V30 BEGIN BOND
M  V30 1 1 1 2
M  V30 2 1 2 3
M  V30 3 1 3 4
M  V30 4 2 4 5
M  V30 5 1 4 6
M  V30 6 1 6 7
M  V30 7 1 7 8
M  V30 8 1 8 9
M  V30 9 1 9 10
M  V30 10 1 10 11
M  V30 11 1 10 12
M  V30 12 1 3 13
M  V30 13 1 3 14
M  V30 14 1 11 6
M  V30 15 1 1 15
M  V30 16 1 1 16
M  V30 17 1 2 17
M  V30 18 1 2 18
M  V30 19 1 7 19
M  V30 20 1 7 20
M  V30 21 1 8 21
M  V30 22 1 8 22
M  V30 23 1 9 23
M  V30 24 1 9 24
M  V30 25 1 10 25 CFG=1
M  V30 26 1 11 26
M  V30 27 1 11 27
M  V30 28 1 12 28
M  V30 29 1 12 29
M  V30 30 1 13 30
M  V30 31 1 13 31
M  V30 32 1 13 32
M  V30 33 1 14 33
M  V30 34 1 14 34
M  V30 35 1 14 35
M  V30 END BOND
M  V30 END CTAB
M  END
