
     RDKit          3D

  0  0  0  0  0  0  0  0  0  0999 V3000
M  V30 BEGIN CTAB
M  V30 COUNTS 98 100 0 0 0
M  V30 BEGIN ATOM
M  V30 1 C -7.03241 4.2444 -0.223955 0
M  V30 2 C -7.43534 3.39874 -1.41293 0
M  V30 3 C -8.08961 2.13491 -0.884121 0
M  V30 4 C -8.53058 1.20764 -1.91902 0
M  V30 5 C -7.70596 0.613386 -2.94286 0
M  V30 6 C -6.59688 -0.293146 -2.74435 0
M  V30 7 C -5.31828 -0.0692757 -2.11173 0
M  V30 8 C -5.13354 0.273054 -0.692438 0
M  V30 9 C -5.73613 -0.75021 0.255715 0
M  V30 10 C -5.53654 -0.356296 1.69148 0
M  V30 11 O -4.25116 -0.201508 2.13609 0
M  V30 12 C -3.22231 -1.10676 2.24394 0
M  V30 13 C -1.97522 -0.648594 2.72525 0
M  V30 14 C -0.907244 -1.51084 2.85645 0
M  V30 15 C -0.999025 -2.8385 2.5301 0
M  V30 16 C -2.20588 -3.28604 2.0638 0
M  V30 17 C -3.29289 -2.44338 1.92351 0
M  V30 18 C 0.106584 -3.7317 2.67031 0
M  V30 19 C 0.00543764 -4.82367 3.54009 0
M  V30 20 C 1.02123 -5.72841 3.7183 0
M  V30 21 N 0.848618 -6.82241 4.62525 0
M  V30 22 C 2.19998 -5.56407 3.01366 0
M  V30 23 N 3.26459 -6.49039 3.18422 0
M  V30 24 C 2.30953 -4.492 2.15491 0
M  V30 25 C 1.26679 -3.56849 1.97641 0
M  V30 26 C 1.42167 -2.44423 1.07613 0
M  V30 27 C 0.662052 -2.15637 -0.0140824 0
M  V30 28 C 0.932962 -1.05487 -0.795224 0
M  V30 29 C 1.99255 -0.170448 -0.524385 0
M  V30 30 O 2.15931 0.883717 -1.37683 0
M  V30 31 C 3.07161 1.93414 -1.37754 0
M  V30 32 C 2.97473 2.86842 -0.241387 0
M  V30 33 C 3.94852 3.97021 -0.207022 0
M  V30 34 C 5.34288 3.68539 0.0611123 0
M  V30 35 C 6.15682 2.76587 -0.802904 0
M  V30 36 C 7.59433 2.7758 -0.300195 0
M  V30 37 C 8.56334 1.92278 -0.966547 0
M  V30 38 C 8.94957 2.11881 -2.35758 0
M  V30 39 C 7.95749 1.98749 -3.4487 0
M  V30 40 C 7.30402 0.615454 -3.46695 0
M  V30 41 C 2.75377 -0.469896 0.577005 0
M  V30 42 C 2.47301 -1.58122 1.35822 0
M  V30 43 H -6.23622 4.97962 -0.537349 0
M  V30 44 H -7.87334 4.85098 0.159011 0
M  V30 45 H -6.61336 3.57734 0.557202 0
M  V30 46 H -8.23333 3.96888 -1.96462 0
M  V30 47 H -6.55817 3.21884 -2.03512 0
M  V30 48 H -7.58314 1.74906 0.000750884 0
M  V30 49 H -9.08442 2.5558 -0.424756 0
M  V30 50 H -9.01666 0.315892 -1.34339 0
M  V30 51 H -9.49302 1.64633 -2.39749 0
M  V30 52 H -8.46929 0.0671203 -3.66868 0
M  V30 53 H -7.40488 1.44684 -3.71826 0
M  V30 54 H -6.3164 -0.736992 -3.8091 0
M  V30 55 H -7.06688 -1.29806 -2.32336 0
M  V30 56 H -4.80867 0.801203 -2.68795 0
M  V30 57 H -4.57243 -0.919152 -2.3682 0
M  V30 58 H -3.98296 0.164666 -0.519932 0
M  V30 59 H -5.29021 1.31145 -0.430843 0
M  V30 60 H -5.3777 -1.73342 -0.040279 0
M  V30 61 H -6.85336 -0.78177 0.039436 0
M  V30 62 H -6.13861 -1.08685 2.30912 0
M  V30 63 H -6.06648 0.627334 1.90639 0
M  V30 64 H -1.90771 0.411609 2.98281 0
M  V30 65 H 0.035516 -1.13086 3.23598 0
M  V30 66 H -2.30785 -4.32409 1.79972 0
M  V30 67 H -4.2514 -2.83914 1.56608 0
M  V30 68 H -0.93362 -4.95268 4.1004 0
M  V30 69 H 1.65452 -7.41503 4.92767 0
M  V30 70 H -0.108335 -7.01446 4.97928 0
M  V30 71 H 3.5973 -6.72349 4.14065 0
M  V30 72 H 3.69971 -6.92347 2.36229 0
M  V30 73 H 3.21842 -4.33708 1.5904 0
M  V30 74 H -0.168356 -2.82313 -0.259122 0
M  V30 75 H 0.327319 -0.829524 -1.66055 0
M  V30 76 H 2.75119 2.54453 -2.32637 0
M  V30 77 H 4.04739 1.54898 -1.63534 0
M  V30 78 H 3.01852 2.29904 0.719859 0
M  V30 79 H 1.90825 3.29805 -0.256445 0
M  V30 80 H 3.53572 4.7714 0.503221 0
M  V30 81 H 3.91747 4.51508 -1.22539 0
M  V30 82 H 5.89883 4.69041 0.129647 0
M  V30 83 H 5.49909 3.30204 1.13767 0
M  V30 84 H 5.85325 1.68654 -0.574374 0
M  V30 85 H 6.07804 2.96892 -1.84899 0
M  V30 86 H 7.88548 3.87339 -0.315023 0
M  V30 87 H 7.49638 2.56344 0.80772 0
M  V30 88 H 9.49246 1.85501 -0.286679 0
M  V30 89 H 8.17803 0.831407 -0.877346 0
M  V30 90 H 9.39948 3.17125 -2.47111 0
M  V30 91 H 9.8556 1.48121 -2.64348 0
M  V30 92 H 8.57839 1.95026 -4.44685 0
M  V30 93 H 7.28981 2.82636 -3.63064 0
M  V30 94 H 7.04521 0.268936 -2.47034 0
M  V30 95 H 7.98939 -0.151494 -3.91122 0
M  V30 96 H 6.43177 0.691385 -4.17037 0
M  V30 97 H 3.59875 0.146515 0.838784 0
M  V30 98 H 3.12317 -1.75389 2.22115 0
M  V30 END ATOM
M  V30 BEGIN BOND
M  V30 1 1 1 2
M  V30 2 1 2 3
M  V30 3 1 3 4
M  V30 4 1 4 5
M  V30 5 1 5 6
M  V30 6 1 6 7
M  V30 7 1 7 8
M  V30 8 1 8 9
M  V30 9 1 9 10
M  V30 10 1 10 11
M  V30 11 1 11 12
M  V30 12 2 12 13
M  V30 13 1 13 14
M  V30 14 2 14 15
M  V30 15 1 15 16
M  V30 16 2 16 17
M  V30 17 1 15 18
M  V30 18 2 18 19
M  V30 19 1 19 20
M  V30 20 1 20 21
M  V30 21 2 20 22
M  V30 22 1 22 23
M  V30 23 1 22 24
M  V30 24 2 24 25
M  V30 25 1 25 26
M  V30 26 2 26 27
M  V30 27 1 27 28
M  V30 28 2 28 29
M  V30 29 1 29 30
M  V30 30 1 30 31
M  V30 31 1 31 32
M  V30 32 1 32 33
M  V30 33 1 33 34
M  V30 34 1 34 35
M  V30 35 1 35 36
M  V30 36 1 36 37
M  V30 37 1 37 38
M  V30 38 1 38 39
M  V30 39 1 39 40
M  V30 40 1 29 41
M  V30 41 2 41 42
M  V30 42 1 17 12
M  V30 43 1 25 18
M  V30 44 1 42 26
M  V30 45 1 1 43
M  V30 46 1 1 44
M  V30 47 1 1 45
M  V30 48 1 2 46
M  V30 49 1 2 47
M  V30 50 1 3 48
M  V30 51 1 3 49
M  V30 52 1 4 50
M  V30 53 1 4 51
M  V30 54 1 5 52
M  V30 55 1 5 53
M  V30 56 1 6 54
M  V30 57 1 6 55
M  V30 58 1 7 56
M  V30 59 1 7 57
M  V30 60 1 8 58
M  V30 61 1 8 59
M  V30 62 1 9 60
M  V30 63 1 9 61
M  V30 64 1 10 62
M  V30 65 1 10 63
M  V30 66 1 13 64
M  V30 67 1 14 65
M  V30 68 1 16 66
M  V30 69 1 17 67
M  V30 70 1 19 68
M  V30 71 1 21 69
M  V30 72 1 21 70
M  V30 73 1 23 71
M  V30 74 1 23 72
M  V30 75 1 24 73
M  V30 76 1 27 74
M  V30 77 1 28 75
M  V30 78 1 31 76
M  V30 79 1 31 77
M  V30 80 1 32 78
M  V30 81 1 32 79
M  V30 82 1 33 80
M  V30 83 1 33 81
M  V30 84 1 34 82
M  V30 85 1 34 83
M  V30 86 1 35 84
M  V30 87 1 35 85
M  V30 88 1 36 86
M  V30 89 1 36 87
M  V30 90 1 37 88
M  V30 91 1 37 89
M  V30 92 1 38 90
M  V30 93 1 38 91
M  V30 94 1 39 92
M  V30 95 1 39 93
M  V30 96 1 40 94
M  V30 97 1 40 95
M  V30 98 1 40 96
M  V30 99 1 41 97
M  V30 100 1 42 98
M  V30 END BOND
M  V30 END CTAB
M  END
