
     RDKit          3D

  0  0  0  0  0  0  0  0  0  0999 V3000
M  V30 BEGIN CTAB
M  V30 COUNTS 45 46 0 0 0
M  V30 BEGIN ATOM
M  V30 1 C -2.51464 -1.69163 1.98689 0
M  V30 2 C -1.30201 -0.96799 1.52122 0
M  V30 3 C -1.37434 -0.321473 0.187885 0
M  V30 4 C -0.0199691 0.321247 -0.0572103 0
M  V30 5 O 0.044433 1.55417 -0.200641 0
M  V30 6 N 1.10185 -0.522063 -0.110216 0
M  V30 7 C 2.44838 -0.170953 -0.332119 0
M  V30 8 C 2.81031 1.01551 -0.88096 0
M  V30 9 C 4.16877 1.34391 -1.06982 0
M  V30 10 C 5.18435 0.49896 -0.716493 0
M  V30 11 C 4.79813 -0.733828 -0.14683 0
M  V30 12 C 3.48394 -1.04458 0.0329024 0
M  V30 13 N 6.54935 0.772734 -0.867744 0
M  V30 14 C 7.10386 2.00285 -1.18324 0
M  V30 15 O 6.45689 3.05568 -1.37539 0
M  V30 16 C 8.6257 2.10286 -1.31194 0
M  V30 17 S -2.61353 0.926524 -0.0475 0
M  V30 18 C -4.29646 0.360123 -0.0238541 0
M  V30 19 N -5.03095 0.326109 1.12125 0
M  V30 20 C -6.30357 -0.098344 1.13544 0
M  V30 21 N -7.05787 -0.128594 2.33988 0
M  V30 22 C -6.92127 -0.520137 -0.0198021 0
M  V30 23 C -6.19608 -0.4946 -1.19311 0
M  V30 24 N -4.93122 -0.059866 -1.13792 0
M  V30 25 N -6.79372 -0.925888 -2.43132 0
M  V30 26 H -3.17688 -2.03923 1.173 0
M  V30 27 H -2.14421 -2.6662 2.4451 0
M  V30 28 H -3.01527 -1.14014 2.79798 0
M  V30 29 H -1.05271 -0.197777 2.31445 0
M  V30 30 H -0.392959 -1.63292 1.5363 0
M  V30 31 H -1.48057 -1.09331 -0.605375 0
M  V30 32 H 0.947647 -1.57778 0.0280762 0
M  V30 33 H 2.09046 1.73347 -1.19865 0
M  V30 34 H 4.33541 2.30571 -1.52218 0
M  V30 35 H 5.61408 -1.39288 0.128261 0
M  V30 36 H 3.22155 -1.99079 0.468529 0
M  V30 37 H 7.23746 -0.0367172 -0.734547 0
M  V30 38 H 9.08872 1.55208 -0.482635 0
M  V30 39 H 8.93871 1.66633 -2.2838 0
M  V30 40 H 8.94407 3.14528 -1.29898 0
M  V30 41 H -7.89415 -0.739823 2.46436 0
M  V30 42 H -6.75537 0.486917 3.1227 0
M  V30 43 H -7.94118 -0.872122 -0.0781543 0
M  V30 44 H -7.29347 -1.84296 -2.5021 0
M  V30 45 H -6.69164 -0.267875 -3.23564 0
M  V30 END ATOM
M  V30 BEGIN BOND
M  V30 1 1 1 2
M  V30 2 1 2 3
M  V30 3 1 3 4
M  V30 4 2 4 5
M  V30 5 1 4 6
M  V30 6 1 6 7
M  V30 7 2 7 8
M  V30 8 1 8 9
M  V30 9 2 9 10
M  V30 10 1 10 11
M  V30 11 2 11 12
M  V30 12 1 10 13
M  V30 13 1 13 14
M  V30 14 2 14 15
M  V30 15 1 14 16
M  V30 16 1 3 17
M  V30 17 1 17 18
M  V30 18 2 18 19
M  V30 19 1 19 20
M  V30 20 1 20 21
M  V30 21 2 20 22
M  V30 22 1 22 23
M  V30 23 2 23 24
M  V30 24 1 23 25
M  V30 25 1 12 7
M  V30 26 1 24 18
M  V30 27 1 1 26
M  V30 28 1 1 27
M  V30 29 1 1 28
M  V30 30 1 2 29
M  V30 31 1 2 30
M  V30 32 1 3 31
M  V30 33 1 6 32
M  V30 34 1 8 33
M  V30 35 1 9 34
M  V30 36 1 11 35
M  V30 37 1 12 36
M  V30 38 1 13 37
M  V30 39 1 16 38
M  V30 40 1 16 39
M  V30 41 1 16 40
M  V30 42 1 21 41
M  V30 43 1 21 42
M  V30 44 1 22 43
M  V30 45 1 25 44
M  V30 46 1 25 45
M  V30 END BOND
M  V30 END CTAB
M  END
