
     RDKit          3D

  0  0  0  0  0  0  0  0  0  0999 V3000
M  V30 BEGIN CTAB
M  V30 COUNTS 46 48 0 0 0
M  V30 BEGIN ATOM
M  V30 1 N 4.20626 3.89853 1.85959 0
M  V30 2 C 4.50867 2.86859 1.37761 0
M  V30 3 C 4.85815 1.63069 0.766981 0
M  V30 4 C 3.94115 0.602164 0.808992 0
M  V30 5 S 2.37714 0.717717 1.66369 0
M  V30 6 C 1.4096 -0.795912 1.47955 0
M  V30 7 C 0.814939 -0.929522 0.131682 0
M  V30 8 O 1.52164 -1.36891 -0.805213 0
M  V30 9 N -0.535649 -0.546901 -0.0307703 0
M  V30 10 C -1.30506 -0.0590468 1.08203 0
M  V30 11 C -2.57962 -0.884825 1.23188 0
M  V30 12 N -3.23252 -0.859989 -0.0885763 0
M  V30 13 C -2.4878 -1.41533 -1.18809 0
M  V30 14 C -1.17497 -0.663218 -1.33025 0
M  V30 15 C -4.53735 -0.303627 -0.183682 0
M  V30 16 O -4.9386 0.861297 -0.627215 0
M  V30 17 C -6.2395 0.983633 -0.534957 0
M  V30 18 N -6.75228 -0.155475 -0.000183252 0
M  V30 19 C -5.68907 -0.964107 0.220286 0
M  V30 20 C -5.8015 -2.27453 0.792229 0
M  V30 21 N -5.89462 -3.34145 1.28479 0
M  V30 22 C -7.03659 2.16775 -0.941271 0
M  V30 23 N 4.26625 -0.560542 0.222293 0
M  V30 24 C 5.46417 -0.759806 -0.407349 0
M  V30 25 C 6.36632 0.278656 -0.438101 0
M  V30 26 C 6.08206 1.49354 0.147679 0
M  V30 27 N 7.02361 2.5483 0.120911 0
M  V30 28 N 5.75217 -2.01423 -0.996551 0
M  V30 29 H 2.17947 -1.65249 1.52771 0
M  V30 30 H 0.756613 -1.02599 2.31654 0
M  V30 31 H -0.824621 -0.0154123 2.04975 0
M  V30 32 H -1.62299 0.977285 0.835692 0
M  V30 33 H -3.22256 -0.395834 1.95004 0
M  V30 34 H -2.32554 -1.95206 1.49452 0
M  V30 35 H -3.06891 -1.39379 -2.13352 0
M  V30 36 H -2.20486 -2.4712 -0.902476 0
M  V30 37 H -1.44732 0.353698 -1.73589 0
M  V30 38 H -0.553676 -1.15664 -2.07164 0
M  V30 39 H -8.11209 2.0205 -0.62268 0
M  V30 40 H -7.08467 2.28351 -2.03931 0
M  V30 41 H -6.67998 3.11152 -0.460527 0
M  V30 42 H 7.33433 0.17208 -0.918411 0
M  V30 43 H 6.7266 3.54316 0.0443302 0
M  V30 44 H 8.07625 2.40464 0.180072 0
M  V30 45 H 6.20524 -2.06438 -1.91586 0
M  V30 46 H 5.4817 -2.89206 -0.456407 0
M  V30 END ATOM
M  V30 BEGIN BOND
M  V30 1 3 1 2
M  V30 2 1 2 3
M  V30 3 2 3 4
M  V30 4 1 4 5
M  V30 5 1 5 6
M  V30 6 1 6 7
M  V30 7 2 7 8
M  V30 8 1 7 9
M  V30 9 1 9 10
M  V30 10 1 10 11
M  V30 11 1 11 12
M  V30 12 1 12 13
M  V30 13 1 13 14
M  V30 14 1 12 15
M  V30 15 1 15 16
M  V30 16 1 16 17
M  V30 17 2 17 18
M  V30 18 1 18 19
M  V30 19 1 19 20
M  V30 20 3 20 21
M  V30 21 1 17 22
M  V30 22 1 4 23
M  V30 23 2 23 24
M  V30 24 1 24 25
M  V30 25 2 25 26
M  V30 26 1 26 27
M  V30 27 1 24 28
M  V30 28 1 26 3
M  V30 29 1 14 9
M  V30 30 2 19 15
M  V30 31 1 6 29
M  V30 32 1 6 30
M  V30 33 1 10 31
M  V30 34 1 10 32
M  V30 35 1 11 33
M  V30 36 1 11 34
M  V30 37 1 13 35
M  V30 38 1 13 36
M  V30 39 1 14 37
M  V30 40 1 14 38
M  V30 41 1 22 39
M  V30 42 1 22 40
M  V30 43 1 22 41
M  V30 44 1 25 42
M  V30 45 1 27 43
M  V30 46 1 27 44
M  V30 47 1 28 45
M  V30 48 1 28 46
M  V30 END BOND
M  V30 END CTAB
M  END
