
     RDKit          3D

  0  0  0  0  0  0  0  0  0  0999 V3000
M  V30 BEGIN CTAB
M  V30 COUNTS 27 27 0 0 0
M  V30 BEGIN ATOM
M  V30 1 C -1.22964 2.10986 -0.659224 0
M  V30 2 C -1.45351 0.657813 -0.661825 0
M  V30 3 C -0.73259 -0.280134 0.200081 0
M  V30 4 C 0.719781 -0.422372 0.11899 0
M  V30 5 C 1.21825 -1.63456 -0.414866 0
M  V30 6 N 2.5265 -1.83913 -0.612421 0
M  V30 7 C 3.44318 -0.903983 -0.314851 0
M  V30 8 C 3.00526 0.283638 0.20549 0
M  V30 9 C 1.65656 0.5115 0.417754 0
M  V30 10 N 1.30784 1.76311 1.06056 0
M  V30 11 C -1.40829 -1.65611 0.0190125 0
M  V30 12 N -2.76503 -1.50953 0.412588 0
M  V30 13 F -1.02993 0.00417973 1.5711 0
M  V30 14 H -0.350487 2.48091 -1.22915 0
M  V30 15 H -2.10993 2.54463 -1.27811 0
M  V30 16 H -1.39172 2.62297 0.31335 0
M  V30 17 H -2.59633 0.510619 -0.539651 0
M  V30 18 H -1.34899 0.28914 -1.75037 0
M  V30 19 H 0.546824 -2.43262 -0.680566 0
M  V30 20 H 4.51762 -1.07967 -0.481586 0
M  V30 21 H 3.71563 1.087 0.467838 0
M  V30 22 H 0.77518 1.67726 1.94639 0
M  V30 23 H 1.56037 2.68574 0.683238 0
M  V30 24 H -1.35586 -1.95054 -1.03586 0
M  V30 25 H -0.943024 -2.41447 0.648155 0
M  V30 26 H -3.29328 -2.37808 0.559211 0
M  V30 27 H -2.98439 -0.727167 1.03472 0
M  V30 END ATOM
M  V30 BEGIN BOND
M  V30 1 1 1 2
M  V30 2 1 2 3
M  V30 3 1 3 4
M  V30 4 2 4 5
M  V30 5 1 5 6
M  V30 6 2 6 7
M  V30 7 1 7 8
M  V30 8 2 8 9
M  V30 9 1 9 10
M  V30 10 1 3 11
M  V30 11 1 11 12
M  V30 12 1 3 13
M  V30 13 1 9 4
M  V30 14 1 1 14
M  V30 15 1 1 15
M  V30 16 1 1 16
M  V30 17 1 2 17
M  V30 18 1 2 18
M  V30 19 1 5 19
M  V30 20 1 7 20
M  V30 21 1 8 21
M  V30 22 1 10 22
M  V30 23 1 10 23
M  V30 24 1 11 24
M  V30 25 1 11 25
M  V30 26 1 12 26
M  V30 27 1 12 27
M  V30 END BOND
M  V30 END CTAB
M  END
