
     RDKit          3D

  0  0  0  0  0  0  0  0  0  0999 V3000
M  V30 BEGIN CTAB
M  V30 COUNTS 57 60 0 0 0
M  V30 BEGIN ATOM
M  V30 1 C 3.1825 -0.597561 0.548574 0 CFG=2
M  V30 2 N 3.98596 0.0983336 -0.309343 0
M  V30 3 C 4.77566 0.782376 -1.15266 0
M  V30 4 O 4.21689 1.40863 -2.17793 0
M  V30 5 C 6.19387 0.971336 -1.14141 0
M  V30 6 N 6.72747 1.62973 -2.15734 0
M  V30 7 O 5.94741 2.10433 -3.17036 0
M  V30 8 C 7.11318 0.455844 -0.102961 0
M  V30 9 C 6.72053 0.0291871 1.12303 0
M  V30 10 S 8.23035 -0.508122 1.80814 0
M  V30 11 C 9.23432 -0.148047 0.49044 0
M  V30 12 N 10.66 -0.324951 0.317846 0
M  V30 13 N 8.39866 0.34702 -0.380248 0
M  V30 14 C 2.52468 -1.81576 -0.0374257 0
M  V30 15 O 2.98985 -2.88864 -0.460376 0
M  V30 16 N 1.27732 -1.1623 0.134987 0
M  V30 17 C -0.108369 -1.19249 -0.157006 0
M  V30 18 C -0.84938 -2.42433 0.0309868 0
M  V30 19 O -0.249453 -3.55069 0.515063 0
M  V30 20 O -2.07308 -2.4649 -0.255144 0
M  V30 21 C -0.735795 -0.0996063 -0.643918 0
M  V30 22 C -0.0169039 1.14587 -0.900021 0
M  V30 23 S 1.3422 1.47947 0.219197 0
M  V30 24 C 1.85048 -0.0732871 0.958902 0 CFG=2
M  V30 25 S -2.47115 -0.233815 -0.843557 0
M  V30 26 C -3.37676 1.06779 -0.119988 0
M  V30 27 C -2.79652 2.0018 0.68708 0
M  V30 28 C -3.59094 3.00651 1.24912 0
M  V30 29 N -4.90103 3.03788 0.99216 0
M  V30 30 C -5.48624 2.10633 0.187075 0
M  V30 31 C -4.75826 1.10563 -0.388175 0
M  V30 32 C -5.35206 0.104617 -1.29913 0
M  V30 33 S -7.15856 0.301778 -1.38333 0
M  V30 34 C -7.89693 -0.231827 0.207178 0
M  V30 35 C -7.68238 -1.74467 0.370748 0
M  V30 36 N -8.2396 -2.17658 1.62415 0
M  V30 37 H 3.70508 -0.974524 1.51 0
M  V30 38 H 2.84735 0.390646 -1.0713 0
M  V30 39 H 5.76145 3.07981 -3.27368 0
M  V30 40 H 5.75628 0.0225918 1.63172 0
M  V30 41 H 11.0841 -1.16975 0.758215 0
M  V30 42 H 11.145 0.394757 -0.224521 0
M  V30 43 H -0.622234 -4.45976 0.263709 0
M  V30 44 H -0.698241 1.99401 -0.940475 0
M  V30 45 H 0.406827 1.11247 -1.96565 0
M  V30 46 H 1.61643 -0.165729 2.04447 0
M  V30 47 H -1.74701 2.02728 0.968823 0
M  V30 48 H -3.1092 3.75658 1.89545 0
M  V30 49 H -6.5627 2.16078 -0.0164924 0
M  V30 50 H -5.05732 -0.926765 -1.04717 0
M  V30 51 H -4.96948 0.350968 -2.32965 0
M  V30 52 H -7.51659 0.314037 1.06856 0
M  V30 53 H -8.98742 -0.0784608 0.139401 0
M  V30 54 H -8.26003 -2.27352 -0.451025 0
M  V30 55 H -6.6102 -1.96491 0.270794 0
M  V30 56 H -8.25144 -3.2331 1.64812 0
M  V30 57 H -7.55846 -1.90429 2.38504 0
M  V30 END ATOM
M  V30 BEGIN BOND
M  V30 1 1 1 2
M  V30 2 1 2 3
M  V30 3 2 3 4
M  V30 4 1 3 5
M  V30 5 2 5 6
M  V30 6 1 6 7
M  V30 7 1 5 8
M  V30 8 2 8 9
M  V30 9 1 9 10
M  V30 10 1 10 11
M  V30 11 1 11 12
M  V30 12 2 11 13
M  V30 13 1 1 14
M  V30 14 2 14 15
M  V30 15 1 14 16
M  V30 16 1 16 17
M  V30 17 1 17 18
M  V30 18 1 18 19
M  V30 19 2 18 20
M  V30 20 2 17 21
M  V30 21 1 21 22
M  V30 22 1 22 23
M  V30 23 1 23 24
M  V30 24 1 21 25
M  V30 25 1 25 26
M  V30 26 2 26 27
M  V30 27 1 27 28
M  V30 28 2 28 29
M  V30 29 1 29 30
M  V30 30 2 30 31
M  V30 31 1 31 32
M  V30 32 1 32 33
M  V30 33 1 33 34
M  V30 34 1 34 35
M  V30 35 1 35 36
M  V30 36 1 24 1
M  V30 37 1 31 26
M  V30 38 1 13 8
M  V30 39 1 24 16
M  V30 40 1 1 37 CFG=1
M  V30 41 1 2 38
M  V30 42 1 7 39
M  V30 43 1 9 40
M  V30 44 1 12 41
M  V30 45 1 12 42
M  V30 46 1 19 43
M  V30 47 1 22 44
M  V30 48 1 22 45
M  V30 49 1 24 46 CFG=1
M  V30 50 1 27 47
M  V30 51 1 28 48
M  V30 52 1 30 49
M  V30 53 1 32 50
M  V30 54 1 32 51
M  V30 55 1 34 52
M  V30 56 1 34 53
M  V30 57 1 35 54
M  V30 58 1 35 55
M  V30 59 1 36 56
M  V30 60 1 36 57
M  V30 END BOND
M  V30 END CTAB
M  END
