
     RDKit          3D

  0  0  0  0  0  0  0  0  0  0999 V3000
M  V30 BEGIN CTAB
M  V30 COUNTS 35 35 0 0 0
M  V30 BEGIN ATOM
M  V30 1 C -3.73975 1.75997 0.161102 0
M  V30 2 C -2.77128 1.1272 -0.783517 0
M  V30 3 C -2.58664 -0.344493 -0.579866 0
M  V30 4 C -2.05217 -0.689312 0.784555 0
M  V30 5 N -1.90964 -2.15233 0.908271 0
M  V30 6 P -0.416564 0.0865296 1.04025 0
M  V30 7 O 0.399002 -0.76504 2.28725 0
M  V30 8 O -0.61104 1.48461 1.50472 0
M  V30 9 C 0.583662 -0.0917486 -0.433098 0
M  V30 10 N 0.481483 -1.49252 -0.861044 0
M  V30 11 C 2.02888 0.13012 -0.182167 0
M  V30 12 C 2.99012 -0.322456 -1.08606 0
M  V30 13 C 4.3404 -0.133206 -0.882017 0
M  V30 14 C 4.78322 0.526709 0.252885 0
M  V30 15 C 3.84256 0.977826 1.15215 0
M  V30 16 C 2.47565 0.784629 0.942735 0
M  V30 17 H -4.75649 1.40537 -0.111777 0
M  V30 18 H -3.46476 1.51242 1.19015 0
M  V30 19 H -3.65655 2.87063 0.059527 0
M  V30 20 H -1.77363 1.62786 -0.632738 0
M  V30 21 H -3.04029 1.36245 -1.85618 0
M  V30 22 H -3.57506 -0.87402 -0.736165 0
M  V30 23 H -1.9203 -0.730158 -1.38523 0
M  V30 24 H -2.71088 -0.305491 1.58285 0
M  V30 25 H -2.32273 -2.59917 0.0424322 0
M  V30 26 H -2.51369 -2.47493 1.69493 0
M  V30 27 H 0.13548 -1.7112 2.16293 0
M  V30 28 H 0.297248 0.595754 -1.24896 0
M  V30 29 H 1.20642 -2.04863 -0.351536 0
M  V30 30 H 0.725427 -1.53616 -1.87063 0
M  V30 31 H 2.65455 -0.832769 -1.96438 0
M  V30 32 H 5.07075 -0.486291 -1.58525 0
M  V30 33 H 5.84111 0.678845 0.419636 0
M  V30 34 H 4.16029 1.4897 2.03502 0
M  V30 35 H 1.80519 1.16931 1.6976 0
M  V30 END ATOM
M  V30 BEGIN BOND
M  V30 1 1 1 2
M  V30 2 1 2 3
M  V30 3 1 3 4
M  V30 4 1 4 5
M  V30 5 1 4 6
M  V30 6 1 6 7
M  V30 7 2 6 8
M  V30 8 1 6 9
M  V30 9 1 9 10
M  V30 10 1 9 11
M  V30 11 2 11 12
M  V30 12 1 12 13
M  V30 13 2 13 14
M  V30 14 1 14 15
M  V30 15 2 15 16
M  V30 16 1 16 11
M  V30 17 1 1 17
M  V30 18 1 1 18
M  V30 19 1 1 19
M  V30 20 1 2 20
M  V30 21 1 2 21
M  V30 22 1 3 22
M  V30 23 1 3 23
M  V30 24 1 4 24
M  V30 25 1 5 25
M  V30 26 1 5 26
M  V30 27 1 7 27
M  V30 28 1 9 28
M  V30 29 1 10 29
M  V30 30 1 10 30
M  V30 31 1 12 31
M  V30 32 1 13 32
M  V30 33 1 14 33
M  V30 34 1 15 34
M  V30 35 1 16 35
M  V30 END BOND
M  V30 END CTAB
M  END
