
     RDKit          3D

  0  0  0  0  0  0  0  0  0  0999 V3000
M  V30 BEGIN CTAB
M  V30 COUNTS 26 26 0 0 0
M  V30 BEGIN ATOM
M  V30 1 N -1.76385 -1.17678 -1.6432 0
M  V30 2 C -0.973143 -1.11897 -0.465061 0
M  V30 3 C -1.8623 -0.756652 0.696301 0
M  V30 4 C -2.11306 0.712115 0.853154 0
M  V30 5 O -0.842939 1.30856 1.02823 0
M  V30 6 C -0.246465 1.23441 -0.232379 0
M  V30 7 C 0.212692 -0.146465 -0.563735 0
M  V30 8 C 1.34076 -0.665207 0.272128 0
M  V30 9 C 2.59475 0.104043 0.325474 0
M  V30 10 N 2.52204 1.43282 0.871555 0
M  V30 11 H -1.65247 -2.03829 -2.21107 0
M  V30 12 H -1.8157 -0.307973 -2.19437 0
M  V30 13 H -0.536548 -2.10988 -0.26172 0
M  V30 14 H -1.42433 -1.12002 1.65335 0
M  V30 15 H -2.84525 -1.26171 0.60543 0
M  V30 16 H -2.76499 0.873023 1.70997 0
M  V30 17 H -2.54122 1.16708 -0.0707397 0
M  V30 18 H 0.487506 2.0209 -0.328668 0
M  V30 19 H -1.08594 1.54793 -0.942643 0
M  V30 20 H 0.529257 -0.166647 -1.62291 0
M  V30 21 H 0.963745 -0.903661 1.31223 0
M  V30 22 H 1.5536 -1.70267 -0.135652 0
M  V30 23 H 3.29073 -0.453114 1.03022 0
M  V30 24 H 3.16325 0.0785186 -0.638313 0
M  V30 25 H 2.5861 1.40601 1.90192 0
M  V30 26 H 3.22377 2.04264 0.438104 0
M  V30 END ATOM
M  V30 BEGIN BOND
M  V30 1 1 1 2
M  V30 2 1 2 3
M  V30 3 1 3 4
M  V30 4 1 4 5
M  V30 5 1 5 6
M  V30 6 1 6 7
M  V30 7 1 7 8
M  V30 8 1 8 9
M  V30 9 1 9 10
M  V30 10 1 7 2
M  V30 11 1 1 11
M  V30 12 1 1 12
M  V30 13 1 2 13
M  V30 14 1 3 14
M  V30 15 1 3 15
M  V30 16 1 4 16
M  V30 17 1 4 17
M  V30 18 1 6 18
M  V30 19 1 6 19
M  V30 20 1 7 20
M  V30 21 1 8 21
M  V30 22 1 8 22
M  V30 23 1 9 23
M  V30 24 1 9 24
M  V30 25 1 10 25
M  V30 26 1 10 26
M  V30 END BOND
M  V30 END CTAB
M  END
