
     RDKit          3D

  0  0  0  0  0  0  0  0  0  0999 V3000
M  V30 BEGIN CTAB
M  V30 COUNTS 37 36 0 0 0
M  V30 BEGIN ATOM
M  V30 1 N 4.71188 1.59118 0.284742 0
M  V30 2 C 5.13583 0.246074 0.637597 0
M  V30 3 C 4.29025 -0.79724 -0.0435893 0
M  V30 4 C 2.80464 -0.655186 0.351895 0
M  V30 5 N 2.29561 0.597193 -6.83665e-05 0
M  V30 6 C 1.06903 1.10845 0.357682 0
M  V30 7 C -0.211124 0.57524 -0.147861 0
M  V30 8 C -0.557688 -0.810037 0.25006 0
M  V30 9 N -1.83911 -1.20488 -0.321429 0
M  V30 10 C -2.96395 -0.505561 0.216859 0
M  V30 11 C -4.21182 -1.06947 -0.450902 0
M  V30 12 C -5.46555 -0.382313 0.0526005 0
M  V30 13 N -5.35415 1.05303 -0.262724 0
M  V30 14 H 5.21804 1.83507 -0.595267 0
M  V30 15 H 5.04681 2.26458 1.01153 0
M  V30 16 H 6.17838 0.0817148 0.287449 0
M  V30 17 H 5.11414 0.139883 1.73063 0
M  V30 18 H 4.31702 -0.742932 -1.14119 0
M  V30 19 H 4.62447 -1.80368 0.261661 0
M  V30 20 H 2.33957 -1.43614 -0.337215 0
M  V30 21 H 2.63632 -0.999512 1.36809 0
M  V30 22 H 2.52636 0.890777 -0.997694 0
M  V30 23 H 1.05458 2.22878 0.0650946 0
M  V30 24 H 1.01427 1.09986 1.503 0
M  V30 25 H -0.28655 0.639426 -1.272 0
M  V30 26 H -1.0898 1.22302 0.182909 0
M  V30 27 H -0.670562 -0.843678 1.37063 0
M  V30 28 H 0.222323 -1.52152 0.0144251 0
M  V30 29 H -1.85833 -1.18039 -1.35224 0
M  V30 30 H -2.96948 0.587886 -0.0391196 0
M  V30 31 H -3.08275 -0.57655 1.30444 0
M  V30 32 H -4.17569 -0.87893 -1.54891 0
M  V30 33 H -4.30364 -2.16132 -0.303815 0
M  V30 34 H -6.30264 -0.747349 -0.590324 0
M  V30 35 H -5.63851 -0.521504 1.12869 0
M  V30 36 H -4.87615 1.19491 -1.1791 0
M  V30 37 H -4.74202 1.48111 0.469904 0
M  V30 END ATOM
M  V30 BEGIN BOND
M  V30 1 1 1 2
M  V30 2 1 2 3
M  V30 3 1 3 4
M  V30 4 1 4 5
M  V30 5 1 5 6
M  V30 6 1 6 7
M  V30 7 1 7 8
M  V30 8 1 8 9
M  V30 9 1 9 10
M  V30 10 1 10 11
M  V30 11 1 11 12
M  V30 12 1 12 13
M  V30 13 1 1 14
M  V30 14 1 1 15
M  V30 15 1 2 16
M  V30 16 1 2 17
M  V30 17 1 3 18
M  V30 18 1 3 19
M  V30 19 1 4 20
M  V30 20 1 4 21
M  V30 21 1 5 22
M  V30 22 1 6 23
M  V30 23 1 6 24
M  V30 24 1 7 25
M  V30 25 1 7 26
M  V30 26 1 8 27
M  V30 27 1 8 28
M  V30 28 1 9 29
M  V30 29 1 10 30
M  V30 30 1 10 31
M  V30 31 1 11 32
M  V30 32 1 11 33
M  V30 33 1 12 34
M  V30 34 1 12 35
M  V30 35 1 13 36
M  V30 36 1 13 37
M  V30 END BOND
M  V30 END CTAB
M  END
