
     RDKit          3D

  0  0  0  0  0  0  0  0  0  0999 V3000
M  V30 BEGIN CTAB
M  V30 COUNTS 23 23 0 0 0
M  V30 BEGIN ATOM
M  V30 1 C -4.30312 -0.131118 0.785677 0
M  V30 2 O -3.43802 -0.244086 -0.314307 0
M  V30 3 C -2.06749 -0.153181 -0.220841 0
M  V30 4 C -1.38999 0.0587708 0.96157 0
M  V30 5 C -0.00432251 0.141551 0.993955 0
M  V30 6 C 0.738661 0.0136716 -0.160611 0
M  V30 7 C 0.0673168 -0.197497 -1.34006 0
M  V30 8 C -1.30307 -0.279838 -1.37531 0
M  V30 9 C 2.19511 0.0953031 -0.163237 0
M  V30 10 N 2.86619 0.2953 0.939755 0
M  V30 11 N 4.25859 0.359184 0.841086 0
M  V30 12 N 2.90781 -0.0433413 -1.37879 0
M  V30 13 H -4.6181 0.923845 0.977467 0
M  V30 14 H -3.89995 -0.604404 1.70244 0
M  V30 15 H -5.23888 -0.681218 0.539768 0
M  V30 16 H -1.94056 0.163512 1.88507 0
M  V30 17 H 0.478583 0.307958 1.94102 0
M  V30 18 H 0.637522 -0.298943 -2.24862 0
M  V30 19 H -1.83206 -0.446541 -2.30686 0
M  V30 20 H 4.81082 0.180137 1.70629 0
M  V30 21 H 4.7534 0.574843 -0.0477532 0
M  V30 22 H 2.54718 0.445033 -2.22642 0
M  V30 23 H 3.77439 -0.602337 -1.4913 0
M  V30 END ATOM
M  V30 BEGIN BOND
M  V30 1 1 1 2
M  V30 2 1 2 3
M  V30 3 2 3 4
M  V30 4 1 4 5
M  V30 5 2 5 6
M  V30 6 1 6 7
M  V30 7 2 7 8
M  V30 8 1 6 9
M  V30 9 2 9 10
M  V30 10 1 10 11
M  V30 11 1 9 12
M  V30 12 1 8 3
M  V30 13 1 1 13
M  V30 14 1 1 14
M  V30 15 1 1 15
M  V30 16 1 4 16
M  V30 17 1 5 17
M  V30 18 1 7 18
M  V30 19 1 8 19
M  V30 20 1 11 20
M  V30 21 1 11 21
M  V30 22 1 12 22
M  V30 23 1 12 23
M  V30 END BOND
M  V30 END CTAB
M  END
