
     RDKit          3D

  0  0  0  0  0  0  0  0  0  0999 V3000
M  V30 BEGIN CTAB
M  V30 COUNTS 19 19 0 0 0
M  V30 BEGIN ATOM
M  V30 1 C 3.4283 0.785994 -0.190876 0
M  V30 2 C 2.07931 0.109099 -0.186805 0
M  V30 3 C 1.86435 -1.24939 -0.268648 0
M  V30 4 C 0.500071 -1.44733 -0.232425 0
M  V30 5 C -0.0774448 -0.203285 -0.129505 0
M  V30 6 O 0.908144 0.654327 -0.108537 0
M  V30 7 C -1.52553 0.0876239 -0.0580104 0
M  V30 8 N -1.96437 1.29245 0.0373187 0
M  V30 9 N -3.32228 1.61786 0.107839 0
M  V30 10 N -2.45334 -0.958534 -0.0935276 0
M  V30 11 H 3.91294 0.595034 -1.18119 0
M  V30 12 H 3.29122 1.87818 -0.0525463 0
M  V30 13 H 4.04051 0.435385 0.652044 0
M  V30 14 H 2.62184 -2.04385 -0.348404 0
M  V30 15 H -0.06185 -2.37239 -0.273151 0
M  V30 16 H -4.09147 1.09071 -0.321782 0
M  V30 17 H -3.55662 2.47803 0.650662 0
M  V30 18 H -3.18191 -1.12985 0.638171 0
M  V30 19 H -2.41186 -1.62007 -0.919474 0
M  V30 END ATOM
M  V30 BEGIN BOND
M  V30 1 1 1 2
M  V30 2 2 2 3
M  V30 3 1 3 4
M  V30 4 2 4 5
M  V30 5 1 5 6
M  V30 6 1 5 7
M  V30 7 2 7 8
M  V30 8 1 8 9
M  V30 9 1 7 10
M  V30 10 1 6 2
M  V30 11 1 1 11
M  V30 12 1 1 12
M  V30 13 1 1 13
M  V30 14 1 3 14
M  V30 15 1 4 15
M  V30 16 1 9 16
M  V30 17 1 9 17
M  V30 18 1 10 18
M  V30 19 1 10 19
M  V30 END BOND
M  V30 END CTAB
M  END
