
     RDKit          3D

  0  0  0  0  0  0  0  0  0  0999 V3000
M  V30 BEGIN CTAB
M  V30 COUNTS 143 146 0 0 0
M  V30 BEGIN ATOM
M  V30 1 C 10.4038 0.512372 -1.54306 0 CFG=1
M  V30 2 N 10.5108 1.9073 -1.79375 0
M  V30 3 C 11.8436 0.00232393 -1.35663 0
M  V30 4 C 12.6439 0.24037 -2.55537 0
M  V30 5 O 13.9333 -0.270603 -2.61475 0
M  V30 6 O 12.1895 0.883114 -3.51524 0
M  V30 7 C 9.57431 0.182174 -0.334231 0
M  V30 8 O 9.3118 1.16961 0.378407 0
M  V30 9 N 9.1815 -1.12227 -0.117019 0
M  V30 10 C 8.36458 -1.70971 0.938978 0 CFG=2
M  V30 11 C 7.01562 -1.10416 0.967575 0
M  V30 12 O 6.87293 -0.0494974 0.328911 0
M  V30 13 N 5.91896 -1.64195 1.6533 0
M  V30 14 C 4.60916 -1.19559 1.82379 0 CFG=1
M  V30 15 C 4.14011 0.188717 1.77134 0
M  V30 16 C 4.64505 1.17375 2.71619 0
M  V30 17 C 4.25088 1.09792 4.03186 0
M  V30 18 C 4.66559 2.07435 4.91166 0
M  V30 19 C 5.46133 3.12137 4.50627 0
M  V30 20 C 5.86319 3.21145 3.18983 0
M  V30 21 C 5.43686 2.2205 2.32756 0
M  V30 22 C 3.52801 -2.13772 1.31545 0
M  V30 23 O 3.63176 -3.33249 1.63967 0
M  V30 24 N 2.49878 -1.65346 0.536395 0
M  V30 25 C 1.32811 -2.24854 -0.0558018 0 CFG=2
M  V30 26 C 1.4217 -2.59217 -1.4987 0
M  V30 27 C 1.71485 -1.53159 -2.46594 0
M  V30 28 C 0.786416 -0.84514 -3.24776 0
M  V30 29 N 1.43042 0.0588736 -3.98389 0
M  V30 30 C 2.75974 -0.00164034 -3.71912 0
M  V30 31 C 2.96211 -0.987917 -2.77868 0
M  V30 32 C 4.26701 -1.23564 -2.37367 0
M  V30 33 C 5.34269 -0.538369 -2.87016 0
M  V30 34 C 5.09808 0.452699 -3.82199 0
M  V30 35 C 3.81829 0.702099 -4.2249 0
M  V30 36 C 0.204286 -1.3647 0.329702 0
M  V30 37 O 0.373203 -0.726267 1.41501 0
M  V30 38 N -0.984201 -1.14261 -0.353861 0
M  V30 39 C -2.01915 -0.206492 -0.000218368 0 CFG=1
M  V30 40 C -2.04675 1.02993 -0.821654 0
M  V30 41 C -0.842937 1.93282 -0.761409 0
M  V30 42 C -0.612358 2.57195 0.586105 0
M  V30 43 N -1.75299 3.42486 0.982001 0
M  V30 44 C -3.32399 -0.788988 0.188991 0
M  V30 45 O -3.47576 -1.86077 0.87289 0
M  V30 46 N -4.50949 -0.172577 -0.383483 0
M  V30 47 C -5.80615 -0.641131 -0.180483 0 CFG=1
M  V30 48 C -6.6227 0.472433 0.587607 0
M  V30 49 C -6.61781 1.74452 -0.199207 0
M  V30 50 C -5.66957 2.71702 0.0658815 0
M  V30 51 C -5.6311 3.86807 -0.659683 0
M  V30 52 C -6.51927 4.14247 -1.69167 0
M  V30 53 O -6.47231 5.32548 -2.43685 0
M  V30 54 C -7.45319 3.17031 -1.93888 0
M  V30 55 C -7.50384 1.99337 -1.20805 0
M  V30 56 C -6.69115 -0.908892 -1.33902 0
M  V30 57 O -6.45863 -0.6003 -2.52543 0
M  V30 58 N -7.94007 -1.56968 -1.05003 0
M  V30 59 C -8.99386 -1.81152 -1.98577 0 CFG=1
M  V30 60 C -8.87148 -3.21741 -2.58514 0
M  V30 61 S -8.93509 -4.49701 -1.31834 0
M  V30 62 C -10.2896 -1.81914 -1.19118 0
M  V30 63 O -10.8633 -2.90106 -1.00654 0
M  V30 64 N -10.7513 -0.609011 -0.683403 0
M  V30 65 C -11.9209 -0.341721 0.132414 0 CFG=1
M  V30 66 C -11.4679 -0.451047 1.61809 0
M  V30 67 C -10.96 -1.83614 1.92411 0
M  V30 68 C -12.6404 -0.146159 2.50467 0
M  V30 69 C -12.2912 1.07593 -0.0540243 0
M  V30 70 O -13.3504 1.62078 0.630676 0
M  V30 71 O -11.6352 1.81068 -0.849772 0
M  V30 72 C 9.10047 -1.83881 2.21447 0
M  V30 73 C 10.3147 -2.74479 1.90976 0
M  V30 74 C 9.62218 -0.601874 2.85732 0
M  V30 75 S 8.17165 -2.73742 3.47639 0
M  V30 76 H 10.0005 -0.0493736 -2.4066 0
M  V30 77 H 10.505 2.51657 -0.95205 0
M  V30 78 H 9.85205 2.24477 -2.5395 0
M  V30 79 H 11.8814 -1.0052 -0.948149 0
M  V30 80 H 12.2802 0.678537 -0.563322 0
M  V30 81 H 14.7618 0.304899 -2.83686 0
M  V30 82 H 9.54483 -1.82409 -0.860838 0
M  V30 83 H 8.15506 -2.7742 0.597662 0
M  V30 84 H 6.09046 -2.62252 2.11959 0
M  V30 85 H 4.45756 -1.41183 3.01922 0
M  V30 86 H 4.18084 0.567183 0.712537 0
M  V30 87 H 3.00936 0.159099 1.99494 0
M  V30 88 H 3.62869 0.316778 4.43824 0
M  V30 89 H 4.39221 2.07906 5.97799 0
M  V30 90 H 5.81447 3.91771 5.17059 0
M  V30 91 H 6.49478 4.01387 2.7985 0
M  V30 92 H 5.77519 2.35307 1.28506 0
M  V30 93 H 2.57213 -0.59504 0.28341 0
M  V30 94 H 1.20819 -3.24184 0.507446 0
M  V30 95 H 2.09172 -3.49329 -1.67189 0
M  V30 96 H 0.406226 -3.0248 -1.78729 0
M  V30 97 H -0.260294 -1.02519 -3.25983 0
M  V30 98 H 1.02508 0.733284 -4.66542 0
M  V30 99 H 4.45051 -2.03635 -1.64358 0
M  V30 100 H 6.35892 -0.744355 -2.53932 0
M  V30 101 H 5.96331 0.989905 -4.19641 0
M  V30 102 H 3.60721 1.47011 -4.96138 0
M  V30 103 H -1.20637 -1.73317 -1.21257 0
M  V30 104 H -1.71256 0.107874 1.08901 0
M  V30 105 H -2.35952 0.791272 -1.84579 0
M  V30 106 H -2.87424 1.68233 -0.38895 0
M  V30 107 H 0.0496892 1.33685 -1.02438 0
M  V30 108 H -0.90534 2.76566 -1.48897 0
M  V30 109 H -0.336721 1.90684 1.39662 0
M  V30 110 H 0.238157 3.26675 0.461344 0
M  V30 111 H -2.46217 2.855 1.49933 0
M  V30 112 H -1.33494 4.16367 1.61379 0
M  V30 113 H -4.3706 0.666022 -1.00309 0
M  V30 114 H -5.86162 -1.51201 0.487166 0
M  V30 115 H -7.61804 0.0717368 0.728102 0
M  V30 116 H -6.12221 0.639037 1.52532 0
M  V30 117 H -4.95227 2.52672 0.884389 0
M  V30 118 H -4.8881 4.64706 -0.456493 0
M  V30 119 H -5.87605 5.30195 -3.28084 0
M  V30 120 H -8.18819 3.32574 -2.74331 0
M  V30 121 H -8.29139 1.27174 -1.48359 0
M  V30 122 H -8.09658 -1.90783 -0.0593688 0
M  V30 123 H -9.05758 -1.12922 -2.79708 0
M  V30 124 H -7.9994 -3.30552 -3.25953 0
M  V30 125 H -9.7821 -3.34949 -3.21477 0
M  V30 126 H -8.53335 -3.95831 -0.0603915 0
M  V30 127 H -10.1662 0.279263 -0.922765 0
M  V30 128 H -12.7317 -1.055 0.0517749 0
M  V30 129 H -10.6708 0.322128 1.77898 0
M  V30 130 H -9.96749 -1.96687 1.46065 0
M  V30 131 H -10.8132 -1.87275 3.05155 0
M  V30 132 H -11.729 -2.56408 1.64142 0
M  V30 133 H -12.5661 -0.813815 3.4262 0
M  V30 134 H -13.6122 -0.323164 2.05088 0
M  V30 135 H -12.6025 0.883209 2.93014 0
M  V30 136 H -13.2493 2.43847 1.246 0
M  V30 137 H 9.85413 -3.74755 1.66962 0
M  V30 138 H 10.8651 -2.42325 1.0365 0
M  V30 139 H 10.8873 -2.89119 2.83789 0
M  V30 140 H 9.86607 -0.905238 3.9321 0
M  V30 141 H 8.88919 0.194967 2.98256 0
M  V30 142 H 10.6213 -0.289952 2.48008 0
M  V30 143 H 8.13228 -2.01349 4.66923 0
M  V30 END ATOM
M  V30 BEGIN BOND
M  V30 1 1 1 2
M  V30 2 1 1 3
M  V30 3 1 3 4
M  V30 4 1 4 5
M  V30 5 2 4 6
M  V30 6 1 1 7
M  V30 7 2 7 8
M  V30 8 1 7 9
M  V30 9 1 9 10
M  V30 10 1 10 11
M  V30 11 2 11 12
M  V30 12 1 11 13
M  V30 13 1 13 14
M  V30 14 1 14 15
M  V30 15 1 15 16
M  V30 16 2 16 17
M  V30 17 1 17 18
M  V30 18 2 18 19
M  V30 19 1 19 20
M  V30 20 2 20 21
M  V30 21 1 14 22
M  V30 22 2 22 23
M  V30 23 1 22 24
M  V30 24 1 24 25
M  V30 25 1 25 26
M  V30 26 1 26 27
M  V30 27 2 27 28
M  V30 28 1 28 29
M  V30 29 1 29 30
M  V30 30 2 30 31
M  V30 31 1 31 32
M  V30 32 2 32 33
M  V30 33 1 33 34
M  V30 34 2 34 35
M  V30 35 1 25 36
M  V30 36 2 36 37
M  V30 37 1 36 38
M  V30 38 1 38 39
M  V30 39 1 39 40
M  V30 40 1 40 41
M  V30 41 1 41 42
M  V30 42 1 42 43
M  V30 43 1 39 44
M  V30 44 2 44 45
M  V30 45 1 44 46
M  V30 46 1 46 47
M  V30 47 1 47 48
M  V30 48 1 48 49
M  V30 49 2 49 50
M  V30 50 1 50 51
M  V30 51 2 51 52
M  V30 52 1 52 53
M  V30 53 1 52 54
M  V30 54 2 54 55
M  V30 55 1 47 56
M  V30 56 2 56 57
M  V30 57 1 56 58
M  V30 58 1 58 59
M  V30 59 1 59 60
M  V30 60 1 60 61
M  V30 61 1 59 62
M  V30 62 2 62 63
M  V30 63 1 62 64
M  V30 64 1 64 65
M  V30 65 1 65 66
M  V30 66 1 66 67
M  V30 67 1 66 68
M  V30 68 1 65 69
M  V30 69 1 69 70
M  V30 70 2 69 71
M  V30 71 1 10 72
M  V30 72 1 72 73
M  V30 73 1 72 74
M  V30 74 1 72 75
M  V30 75 1 21 16
M  V30 76 1 31 27
M  V30 77 1 55 49
M  V30 78 1 35 30
M  V30 79 1 1 76 CFG=3
M  V30 80 1 2 77
M  V30 81 1 2 78
M  V30 82 1 3 79
M  V30 83 1 3 80
M  V30 84 1 5 81
M  V30 85 1 9 82
M  V30 86 1 10 83 CFG=3
M  V30 87 1 13 84
M  V30 88 1 14 85 CFG=1
M  V30 89 1 15 86
M  V30 90 1 15 87
M  V30 91 1 17 88
M  V30 92 1 18 89
M  V30 93 1 19 90
M  V30 94 1 20 91
M  V30 95 1 21 92
M  V30 96 1 24 93
M  V30 97 1 25 94 CFG=1
M  V30 98 1 26 95
M  V30 99 1 26 96
M  V30 100 1 28 97
M  V30 101 1 29 98
M  V30 102 1 32 99
M  V30 103 1 33 100
M  V30 104 1 34 101
M  V30 105 1 35 102
M  V30 106 1 38 103
M  V30 107 1 39 104 CFG=1
M  V30 108 1 40 105
M  V30 109 1 40 106
M  V30 110 1 41 107
M  V30 111 1 41 108
M  V30 112 1 42 109
M  V30 113 1 42 110
M  V30 114 1 43 111
M  V30 115 1 43 112
M  V30 116 1 46 113
M  V30 117 1 47 114 CFG=1
M  V30 118 1 48 115
M  V30 119 1 48 116
M  V30 120 1 50 117
M  V30 121 1 51 118
M  V30 122 1 53 119
M  V30 123 1 54 120
M  V30 124 1 55 121
M  V30 125 1 58 122
M  V30 126 1 59 123 CFG=3
M  V30 127 1 60 124
M  V30 128 1 60 125
M  V30 129 1 61 126
M  V30 130 1 64 127
M  V30 131 1 65 128 CFG=3
M  V30 132 1 66 129
M  V30 133 1 67 130
M  V30 134 1 67 131
M  V30 135 1 67 132
M  V30 136 1 68 133
M  V30 137 1 68 134
M  V30 138 1 68 135
M  V30 139 1 70 136
M  V30 140 1 73 137
M  V30 141 1 73 138
M  V30 142 1 73 139
M  V30 143 1 74 140
M  V30 144 1 74 141
M  V30 145 1 74 142
M  V30 146 1 75 143
M  V30 END BOND
M  V30 END CTAB
M  END
