
     RDKit          3D

  0  0  0  0  0  0  0  0  0  0999 V3000
M  V30 BEGIN CTAB
M  V30 COUNTS 21 22 0 0 0
M  V30 BEGIN ATOM
M  V30 1 N 4.80402 0.62683 0.0892639 0
M  V30 2 C 3.51558 0.00293718 0.0544665 0
M  V30 3 N 3.25793 -1.31336 -0.0966124 0
M  V30 4 N 1.94568 -1.48941 -0.0764785 0
M  V30 5 C 1.32146 -0.309397 0.0859556 0
M  V30 6 N 2.30875 0.601121 0.164918 0
M  V30 7 C -0.117408 -0.0637866 0.161058 0
M  V30 8 N -0.760339 1.10325 0.322518 0
M  V30 9 C -2.103 0.922378 0.342964 0
M  V30 10 N -2.26895 -0.424302 0.18527 0
M  V30 11 N -1.08456 -0.993825 0.0790298 0
M  V30 12 C -3.57201 -1.0735 0.147797 0
M  V30 13 N -3.12044 1.89506 0.4927 0
M  V30 14 H 5.30153 0.937587 -0.774504 0
M  V30 15 H 5.24545 0.767492 1.01901 0
M  V30 16 H 4.02353 -2.0203 -0.206294 0
M  V30 17 H -3.61342 -1.83722 -0.642917 0
M  V30 18 H -3.73566 -1.49179 1.1697 0
M  V30 19 H -4.36117 -0.323686 -0.0884948 0
M  V30 20 H -3.11046 2.76365 -0.0670196 0
M  V30 21 H -3.87652 1.72027 1.17459 0
M  V30 END ATOM
M  V30 BEGIN BOND
M  V30 1 1 1 2
M  V30 2 1 2 3
M  V30 3 1 3 4
M  V30 4 2 4 5
M  V30 5 1 5 6
M  V30 6 1 5 7
M  V30 7 1 7 8
M  V30 8 2 8 9
M  V30 9 1 9 10
M  V30 10 1 10 11
M  V30 11 1 10 12
M  V30 12 1 9 13
M  V30 13 2 6 2
M  V30 14 2 11 7
M  V30 15 1 1 14
M  V30 16 1 1 15
M  V30 17 1 3 16
M  V30 18 1 12 17
M  V30 19 1 12 18
M  V30 20 1 12 19
M  V30 21 1 13 20
M  V30 22 1 13 21
M  V30 END BOND
M  V30 END CTAB
M  END
