
     RDKit          3D

  0  0  0  0  0  0  0  0  0  0999 V3000
M  V30 BEGIN CTAB
M  V30 COUNTS 39 42 0 0 0
M  V30 BEGIN ATOM
M  V30 1 N -4.16711 -1.96895 0.314883 0
M  V30 2 C -2.80571 -1.90106 0.0227296 0
M  V30 3 N -2.16216 -3.10691 -0.178648 0
M  V30 4 C -0.865378 -3.19082 -0.464508 0
M  V30 5 N -0.123802 -2.0822 -0.568855 0
M  V30 6 C -0.683988 -0.869108 -0.385212 0
M  V30 7 C -2.04058 -0.774513 -0.0858177 0
M  V30 8 C -2.3265 0.578225 0.0453922 0
M  V30 9 C -1.12906 1.26431 -0.179549 0
M  V30 10 N -1.10838 2.60749 -0.115404 0
M  V30 11 C -2.22227 3.29369 0.161519 0
M  V30 12 N -3.36568 2.64626 0.376707 0
M  V30 13 C -3.47018 1.27002 0.329071 0
M  V30 14 N -4.73398 0.731016 0.575961 0
M  V30 15 N -0.175176 0.363897 -0.432679 0
M  V30 16 C 1.23173 0.659315 -0.723055 0 CFG=2
M  V30 17 O 1.91517 -0.477817 -1.06722 0
M  V30 18 C 3.18533 -0.420999 -0.57453 0 CFG=2
M  V30 19 C 3.54138 -1.6065 0.316975 0
M  V30 20 O 4.84174 -1.45789 0.764689 0
M  V30 21 C 3.3561 0.817678 0.233078 0 CFG=1
M  V30 22 O 4.06035 1.77722 -0.495012 0
M  V30 23 C 1.93055 1.28137 0.447658 0 CFG=1
M  V30 24 O 1.85698 2.68286 0.437644 0
M  V30 25 H -4.50167 -2.05406 1.31756 0
M  V30 26 H -4.95428 -1.97326 -0.399474 0
M  V30 27 H -0.408674 -4.17299 -0.613874 0
M  V30 28 H -2.20998 4.3693 0.213804 0
M  V30 29 H -5.11326 0.465226 1.53381 0
M  V30 30 H -5.41551 0.582575 -0.209645 0
M  V30 31 H 1.27597 1.38663 -1.57515 0
M  V30 32 H 3.8873 -0.412027 -1.45474 0
M  V30 33 H 2.8731 -1.58879 1.1988 0
M  V30 34 H 3.48214 -2.555 -0.253957 0
M  V30 35 H 5.31613 -2.32422 0.822542 0
M  V30 36 H 3.87498 0.639654 1.20002 0
M  V30 37 H 3.74346 1.72197 -1.44013 0
M  V30 38 H 1.59846 0.854771 1.41611 0
M  V30 39 H 2.01245 2.94363 -0.511502 0
M  V30 END ATOM
M  V30 BEGIN BOND
M  V30 1 1 1 2
M  V30 2 2 2 3
M  V30 3 1 3 4
M  V30 4 2 4 5
M  V30 5 1 5 6
M  V30 6 2 6 7
M  V30 7 1 7 8
M  V30 8 2 8 9
M  V30 9 1 9 10
M  V30 10 2 10 11
M  V30 11 1 11 12
M  V30 12 2 12 13
M  V30 13 1 13 14
M  V30 14 1 9 15
M  V30 15 1 15 16
M  V30 16 1 16 17
M  V30 17 1 17 18
M  V30 18 1 18 19
M  V30 19 1 19 20
M  V30 20 1 18 21
M  V30 21 1 21 22
M  V30 22 1 21 23
M  V30 23 1 23 24
M  V30 24 1 7 2
M  V30 25 1 13 8
M  V30 26 1 23 16
M  V30 27 1 15 6
M  V30 28 1 1 25
M  V30 29 1 1 26
M  V30 30 1 4 27
M  V30 31 1 11 28
M  V30 32 1 14 29
M  V30 33 1 14 30
M  V30 34 1 16 31 CFG=3
M  V30 35 1 18 32 CFG=3
M  V30 36 1 19 33
M  V30 37 1 19 34
M  V30 38 1 20 35
M  V30 39 1 21 36 CFG=1
M  V30 40 1 22 37
M  V30 41 1 23 38 CFG=1
M  V30 42 1 24 39
M  V30 END BOND
M  V30 END CTAB
M  END
