
     RDKit          3D

  0  0  0  0  0  0  0  0  0  0999 V3000
M  V30 BEGIN CTAB
M  V30 COUNTS 29 30 0 0 0
M  V30 BEGIN ATOM
M  V30 1 N 3.41505 1.07206 -0.897768 0
M  V30 2 C 2.4514 0.479595 0.0145287 0
M  V30 3 C 2.35635 -1.00473 -0.141947 0
M  V30 4 C 0.863993 -1.33525 -0.29651 0
M  V30 5 C 0.209555 -0.125797 0.302341 0
M  V30 6 C 1.04338 0.996447 -0.304805 0
M  V30 7 O 0.489514 -0.134934 1.66935 0
M  V30 8 C -1.19036 0.0528723 -0.0105992 0
M  V30 9 C -1.62403 1.12312 -0.759501 0
M  V30 10 C -2.98375 1.28925 -1.05833 0
M  V30 11 C -3.91128 0.379432 -0.604796 0
M  V30 12 N -3.46616 -0.657471 0.12432 0
M  V30 13 C -2.14351 -0.836701 0.426326 0
M  V30 14 N -1.69227 -1.9351 1.19601 0
M  V30 15 H 4.24165 1.38465 -0.369801 0
M  V30 16 H 2.96185 1.92068 -1.30701 0
M  V30 17 H 2.66449 0.803701 1.05928 0
M  V30 18 H 2.75303 -1.45373 0.816314 0
M  V30 19 H 2.94826 -1.41219 -0.979549 0
M  V30 20 H 0.714852 -2.263 0.294189 0
M  V30 21 H 0.680613 -1.4526 -1.36934 0
M  V30 22 H 0.819955 1.93837 0.199751 0
M  V30 23 H 0.914289 1.04851 -1.41411 0
M  V30 24 H -0.223223 0.332298 2.1982 0
M  V30 25 H -0.932519 1.86128 -1.13576 0
M  V30 26 H -3.34214 2.12231 -1.64422 0
M  V30 27 H -4.97441 0.480961 -0.820191 0
M  V30 28 H -1.42471 -1.78322 2.18645 0
M  V30 29 H -1.61988 -2.89081 0.801313 0
M  V30 END ATOM
M  V30 BEGIN BOND
M  V30 1 1 1 2
M  V30 2 1 2 3
M  V30 3 1 3 4
M  V30 4 1 4 5
M  V30 5 1 5 6
M  V30 6 1 5 7
M  V30 7 1 5 8
M  V30 8 2 8 9
M  V30 9 1 9 10
M  V30 10 2 10 11
M  V30 11 1 11 12
M  V30 12 2 12 13
M  V30 13 1 13 14
M  V30 14 1 6 2
M  V30 15 1 13 8
M  V30 16 1 1 15
M  V30 17 1 1 16
M  V30 18 1 2 17
M  V30 19 1 3 18
M  V30 20 1 3 19
M  V30 21 1 4 20
M  V30 22 1 4 21
M  V30 23 1 6 22
M  V30 24 1 6 23
M  V30 25 1 7 24
M  V30 26 1 9 25
M  V30 27 1 10 26
M  V30 28 1 11 27
M  V30 29 1 14 28
M  V30 30 1 14 29
M  V30 END BOND
M  V30 END CTAB
M  END
