
     RDKit          3D

  0  0  0  0  0  0  0  0  0  0999 V3000
M  V30 BEGIN CTAB
M  V30 COUNTS 42 44 0 0 0
M  V30 BEGIN ATOM
M  V30 1 N -3.85441 -4.12804 0.383567 0
M  V30 2 C -3.13585 -2.91107 0.242413 0
M  V30 3 C -2.26804 -2.71485 -0.809133 0
M  V30 4 C -1.55739 -1.53001 -0.955793 0
M  V30 5 C -1.68186 -0.491946 -0.0607786 0
M  V30 6 C -2.55821 -0.686353 1.00378 0
M  V30 7 C -3.26309 -1.85937 1.15081 0
M  V30 8 N -0.977434 0.731833 -0.173113 0
M  V30 9 C 0.447036 0.8073 -0.0835722 0
M  V30 10 O 0.933934 1.94927 -0.203456 0
M  V30 11 N 1.25485 -0.319227 0.124466 0
M  V30 12 C 2.65148 -0.376735 0.232728 0
M  V30 13 C 3.41882 0.713269 0.510527 0
M  V30 14 C 4.81324 0.617947 0.584196 0
M  V30 15 C 5.42207 -0.585583 0.375332 0
M  V30 16 C 4.66439 -1.70353 0.0931404 0
M  V30 17 C 3.29771 -1.59239 0.0243606 0
M  V30 18 Cl 5.46851 -3.26278 -0.175233 0
M  V30 19 N 6.8415 -0.714103 0.442528 0
M  V30 20 C -1.7506 1.92324 -0.381915 0
M  V30 21 C -2.57253 2.07502 -1.47034 0
M  V30 22 C -3.28306 3.23601 -1.62544 0
M  V30 23 C -3.22312 4.29324 -0.731241 0
M  V30 24 C -2.39212 4.11845 0.352764 0
M  V30 25 C -1.67158 2.95878 0.523853 0
M  V30 26 H -4.4964 -4.4969 -0.351892 0
M  V30 27 H -3.74595 -4.68661 1.25786 0
M  V30 28 H -2.12295 -3.507 -1.55716 0
M  V30 29 H -0.864863 -1.36679 -1.78983 0
M  V30 30 H -2.68663 0.122938 1.74218 0
M  V30 31 H -3.95144 -2.02932 1.97506 0
M  V30 32 H 0.778365 -1.29219 0.228232 0
M  V30 33 H 2.999 1.69279 0.700336 0
M  V30 34 H 5.41449 1.49721 0.80656 0
M  V30 35 H 2.72611 -2.5 -0.201712 0
M  V30 36 H 7.21727 -1.55806 0.906057 0
M  V30 37 H 7.40573 0.0395808 0.0265925 0
M  V30 38 H -2.64176 1.25454 -2.19766 0
M  V30 39 H -3.91589 3.30463 -2.50379 0
M  V30 40 H -3.80745 5.19008 -0.903632 0
M  V30 41 H -2.30994 4.92317 1.08531 0
M  V30 42 H -1.02195 2.86357 1.40304 0
M  V30 END ATOM
M  V30 BEGIN BOND
M  V30 1 1 1 2
M  V30 2 2 2 3
M  V30 3 1 3 4
M  V30 4 2 4 5
M  V30 5 1 5 6
M  V30 6 2 6 7
M  V30 7 1 5 8
M  V30 8 1 8 9
M  V30 9 2 9 10
M  V30 10 1 9 11
M  V30 11 1 11 12
M  V30 12 2 12 13
M  V30 13 1 13 14
M  V30 14 2 14 15
M  V30 15 1 15 16
M  V30 16 2 16 17
M  V30 17 1 16 18
M  V30 18 1 15 19
M  V30 19 1 8 20
M  V30 20 2 20 21
M  V30 21 1 21 22
M  V30 22 2 22 23
M  V30 23 1 23 24
M  V30 24 2 24 25
M  V30 25 1 7 2
M  V30 26 1 17 12
M  V30 27 1 25 20
M  V30 28 1 1 26
M  V30 29 1 1 27
M  V30 30 1 3 28
M  V30 31 1 4 29
M  V30 32 1 6 30
M  V30 33 1 7 31
M  V30 34 1 11 32
M  V30 35 1 13 33
M  V30 36 1 14 34
M  V30 37 1 17 35
M  V30 38 1 19 36
M  V30 39 1 19 37
M  V30 40 1 21 38
M  V30 41 1 22 39
M  V30 42 1 23 40
M  V30 43 1 24 41
M  V30 44 1 25 42
M  V30 END BOND
M  V30 END CTAB
M  END
