
     RDKit          3D

  0  0  0  0  0  0  0  0  0  0999 V3000
M  V30 BEGIN CTAB
M  V30 COUNTS 34 35 0 0 0
M  V30 BEGIN ATOM
M  V30 1 C -4.9368 1.80569 0.603176 0
M  V30 2 C -4.04854 0.77346 -0.155481 0
M  V30 3 C -2.68522 0.960413 0.367722 0
M  V30 4 C -1.60194 0.120118 -0.148051 0
M  V30 5 N -0.369978 0.402033 0.38882 0
M  V30 6 C 0.747025 -0.241912 0.0630045 0
M  V30 7 C 1.98137 0.0834593 0.639553 0
M  V30 8 C 3.1142 -0.601058 0.280582 0
M  V30 9 C 2.98957 -1.60747 -0.657087 0
M  V30 10 C 1.77823 -1.93492 -1.23024 0
M  V30 11 C 0.628382 -1.24679 -0.871908 0
M  V30 12 C -0.600504 -1.53227 -1.41117 0
M  V30 13 O -0.721147 -2.44393 -2.26232 0
M  V30 14 N -1.73083 -0.847666 -1.05157 0
M  V30 15 N -2.95076 -1.21644 -1.65784 0
M  V30 16 C 4.44277 -0.300724 0.856086 0
M  V30 17 O 5.44982 -0.984674 0.468743 0
M  V30 18 N 4.65531 0.699696 1.80857 0
M  V30 19 N 5.92834 0.941419 2.31842 0
M  V30 20 H -5.78731 2.10249 -0.0389989 0
M  V30 21 H -5.34678 1.3349 1.52 0
M  V30 22 H -4.31316 2.66039 0.933376 0
M  V30 23 H -4.51522 -0.200272 0.0796295 0
M  V30 24 H -4.18313 0.949159 -1.24466 0
M  V30 25 H -2.33394 2.02681 0.311548 0
M  V30 26 H -2.73594 0.786494 1.49379 0
M  V30 27 H 2.02875 0.877778 1.36795 0
M  V30 28 H 3.87128 -2.15834 -0.952817 0
M  V30 29 H 1.70316 -2.72722 -1.96314 0
M  V30 30 H -3.50749 -1.94395 -1.15982 0
M  V30 31 H -3.28737 -0.802458 -2.55183 0
M  V30 32 H 3.85395 1.27068 2.14093 0
M  V30 33 H 5.90619 1.6833 3.06105 0
M  V30 34 H 6.5777 1.3118 1.58041 0
M  V30 END ATOM
M  V30 BEGIN BOND
M  V30 1 1 1 2
M  V30 2 1 2 3
M  V30 3 1 3 4
M  V30 4 2 4 5
M  V30 5 1 5 6
M  V30 6 2 6 7
M  V30 7 1 7 8
M  V30 8 2 8 9
M  V30 9 1 9 10
M  V30 10 2 10 11
M  V30 11 1 11 12
M  V30 12 2 12 13
M  V30 13 1 12 14
M  V30 14 1 14 15
M  V30 15 1 8 16
M  V30 16 2 16 17
M  V30 17 1 16 18
M  V30 18 1 18 19
M  V30 19 1 14 4
M  V30 20 1 11 6
M  V30 21 1 1 20
M  V30 22 1 1 21
M  V30 23 1 1 22
M  V30 24 1 2 23
M  V30 25 1 2 24
M  V30 26 1 3 25
M  V30 27 1 3 26
M  V30 28 1 7 27
M  V30 29 1 9 28
M  V30 30 1 10 29
M  V30 31 1 15 30
M  V30 32 1 15 31
M  V30 33 1 18 32
M  V30 34 1 19 33
M  V30 35 1 19 34
M  V30 END BOND
M  V30 END CTAB
M  END
