
     RDKit          3D

  0  0  0  0  0  0  0  0  0  0999 V3000
M  V30 BEGIN CTAB
M  V30 COUNTS 25 26 0 0 0
M  V30 BEGIN ATOM
M  V30 1 N -1.27101 -1.20896 -0.63864 0
M  V30 2 C -0.88383 -0.715812 0.6542 0
M  V30 3 C -2.13934 -0.243255 1.40673 0
M  V30 4 C -2.47082 1.07602 0.706868 0
M  V30 5 C -1.21798 1.50104 -0.029947 0
M  V30 6 C -0.16943 0.613577 0.532395 0
M  V30 7 C 1.0447 0.504467 -0.376229 0
M  V30 8 C 0.904328 0.328721 -1.73138 0
M  V30 9 S 2.53421 0.267424 -2.24155 0
M  V30 10 C 3.28524 0.466479 -0.722343 0
M  V30 11 N 2.25157 0.569011 0.0937767 0
M  V30 12 N 4.69646 0.513881 -0.389708 0
M  V30 13 H -1.2365 -2.25507 -0.603387 0
M  V30 14 H -2.25923 -0.935009 -0.836622 0
M  V30 15 H -0.313718 -1.44041 1.26153 0
M  V30 16 H -1.82854 -0.0735117 2.45373 0
M  V30 17 H -2.95292 -0.971036 1.31631 0
M  V30 18 H -3.32328 0.899893 0.0387709 0
M  V30 19 H -2.66237 1.86206 1.47267 0
M  V30 20 H -1.02534 2.58384 0.0980344 0
M  V30 21 H -1.37278 1.3158 -1.12223 0
M  V30 22 H 0.118434 0.982395 1.54175 0
M  V30 23 H -0.0307167 0.254632 -2.31571 0
M  V30 24 H 5.29677 -0.215756 -0.813694 0
M  V30 25 H 5.02608 1.26306 0.244654 0
M  V30 END ATOM
M  V30 BEGIN BOND
M  V30 1 1 1 2
M  V30 2 1 2 3
M  V30 3 1 3 4
M  V30 4 1 4 5
M  V30 5 1 5 6
M  V30 6 1 6 7
M  V30 7 2 7 8
M  V30 8 1 8 9
M  V30 9 1 9 10
M  V30 10 2 10 11
M  V30 11 1 10 12
M  V30 12 1 6 2
M  V30 13 1 11 7
M  V30 14 1 1 13
M  V30 15 1 1 14
M  V30 16 1 2 15
M  V30 17 1 3 16
M  V30 18 1 3 17
M  V30 19 1 4 18
M  V30 20 1 4 19
M  V30 21 1 5 20
M  V30 22 1 5 21
M  V30 23 1 6 22
M  V30 24 1 8 23
M  V30 25 1 12 24
M  V30 26 1 12 25
M  V30 END BOND
M  V30 END CTAB
M  END
