
     RDKit          3D

  0  0  0  0  0  0  0  0  0  0999 V3000
M  V30 BEGIN CTAB
M  V30 COUNTS 25 26 0 0 0
M  V30 BEGIN ATOM
M  V30 1 N 2.18765 1.23862 0.177282 0
M  V30 2 N 2.19418 -0.145096 0.264689 0
M  V30 3 C 1.10305 -0.892047 0.590662 0
M  V30 4 C -0.249995 -0.359013 0.900974 0
M  V30 5 C -1.04864 -0.272987 -0.384802 0
M  V30 6 C -2.39884 0.263523 -0.0455842 0
M  V30 7 C -3.53393 -0.42218 0.304924 0
M  V30 8 N -4.48619 0.503319 0.512686 0
M  V30 9 N -3.992 1.71114 0.307804 0
M  V30 10 C -2.70036 1.6024 -0.039927 0
M  V30 11 N 1.48987 -2.16024 0.573782 0
M  V30 12 N 2.77571 -2.20601 0.249248 0
M  V30 13 C 3.24765 -0.953607 0.0484348 0
M  V30 14 N 4.57705 -0.599414 -0.312918 0
M  V30 15 H 2.65481 1.72176 -0.610756 0
M  V30 16 H 1.71139 1.79976 0.906079 0
M  V30 17 H -0.191717 0.642236 1.37094 0
M  V30 18 H -0.73567 -1.02895 1.63573 0
M  V30 19 H -1.12724 -1.2378 -0.891196 0
M  V30 20 H -0.515272 0.42881 -1.06364 0
M  V30 21 H -3.62292 -1.49055 0.39074 0
M  V30 22 H -5.48636 0.299235 0.798522 0
M  V30 23 H -2.02147 2.44295 -0.274314 0
M  V30 24 H 5.18603 -1.1712 -0.936318 0
M  V30 25 H 4.98322 0.285341 0.061047 0
M  V30 END ATOM
M  V30 BEGIN BOND
M  V30 1 1 1 2
M  V30 2 1 2 3
M  V30 3 1 3 4
M  V30 4 1 4 5
M  V30 5 1 5 6
M  V30 6 2 6 7
M  V30 7 1 7 8
M  V30 8 1 8 9
M  V30 9 2 9 10
M  V30 10 2 3 11
M  V30 11 1 11 12
M  V30 12 2 12 13
M  V30 13 1 13 14
M  V30 14 1 13 2
M  V30 15 1 10 6
M  V30 16 1 1 15
M  V30 17 1 1 16
M  V30 18 1 4 17
M  V30 19 1 4 18
M  V30 20 1 5 19
M  V30 21 1 5 20
M  V30 22 1 7 21
M  V30 23 1 8 22
M  V30 24 1 10 23
M  V30 25 1 14 24
M  V30 26 1 14 25
M  V30 END BOND
M  V30 END CTAB
M  END
