
     RDKit          3D

  0  0  0  0  0  0  0  0  0  0999 V3000
M  V30 BEGIN CTAB
M  V30 COUNTS 26 26 0 0 0
M  V30 BEGIN ATOM
M  V30 1 C -3.05395 1.03621 0.0164958 0
M  V30 2 C -1.70665 0.417163 -0.30656 0
M  V30 3 S -0.549511 0.941821 0.962683 0
M  V30 4 C 1.08551 0.314789 0.752748 0
M  V30 5 C 1.49407 -0.882357 1.30295 0
M  V30 6 C 2.80166 -1.34367 1.11176 0
M  V30 7 Cl 3.30073 -2.86124 1.81579 0
M  V30 8 C 3.69453 -0.603073 0.369761 0
M  V30 9 C 3.31253 0.594288 -0.189875 0
M  V30 10 C 2.00841 1.027 0.0166728 0
M  V30 11 N 1.59041 2.26595 -0.554443 0
M  V30 12 C -1.93416 -1.0844 -0.290019 0
M  V30 13 N -2.92913 -1.41306 -1.28923 0
M  V30 14 H -3.84815 0.49582 -0.539473 0
M  V30 15 H -3.26329 0.816352 1.10333 0
M  V30 16 H -3.06941 2.12497 -0.170351 0
M  V30 17 H -1.40143 0.789065 -1.27852 0
M  V30 18 H 0.788182 -1.44254 1.87486 0
M  V30 19 H 4.68761 -0.995762 0.24907 0
M  V30 20 H 4.01516 1.18396 -0.777749 0
M  V30 21 H 1.72976 2.37246 -1.58955 0
M  V30 22 H 1.16812 3.03065 0.017125 0
M  V30 23 H -2.35482 -1.40966 0.683931 0
M  V30 24 H -1.03547 -1.66506 -0.48058 0
M  V30 25 H -2.64291 -2.19792 -1.90861 0
M  V30 26 H -3.8878 -1.51176 -0.90221 0
M  V30 END ATOM
M  V30 BEGIN BOND
M  V30 1 1 1 2
M  V30 2 1 2 3
M  V30 3 1 3 4
M  V30 4 2 4 5
M  V30 5 1 5 6
M  V30 6 1 6 7
M  V30 7 2 6 8
M  V30 8 1 8 9
M  V30 9 2 9 10
M  V30 10 1 10 11
M  V30 11 1 2 12
M  V30 12 1 12 13
M  V30 13 1 10 4
M  V30 14 1 1 14
M  V30 15 1 1 15
M  V30 16 1 1 16
M  V30 17 1 2 17
M  V30 18 1 5 18
M  V30 19 1 8 19
M  V30 20 1 9 20
M  V30 21 1 11 21
M  V30 22 1 11 22
M  V30 23 1 12 23
M  V30 24 1 12 24
M  V30 25 1 13 25
M  V30 26 1 13 26
M  V30 END BOND
M  V30 END CTAB
M  END
