
     RDKit          3D

  0  0  0  0  0  0  0  0  0  0999 V3000
M  V30 BEGIN CTAB
M  V30 COUNTS 31 32 0 0 0
M  V30 BEGIN ATOM
M  V30 1 N 3.65827 -2.44686 0.86108 0
M  V30 2 C 3.34567 -1.08788 0.582755 0
M  V30 3 C 4.1071 -0.45418 -0.379213 0
M  V30 4 C 3.81856 0.859753 -0.662804 0
M  V30 5 N 4.59773 1.5178 -1.65331 0
M  V30 6 N 2.81596 1.49904 -0.0111439 0
M  V30 7 C 2.07489 0.874449 0.927907 0
M  V30 8 N 2.34998 -0.409612 1.21158 0
M  V30 9 S 0.752527 1.71793 1.78346 0
M  V30 10 C -0.816736 1.54678 0.912963 0
M  V30 11 C -1.2503 0.102337 0.954074 0
M  V30 12 C -2.53983 -0.10678 0.247016 0
M  V30 13 C -3.72498 0.0125408 0.944146 0
M  V30 14 C -4.92128 -0.18039 0.279673 0
M  V30 15 C -4.95299 -0.48653 -1.05175 0
M  V30 16 C -3.78261 -0.615366 -1.78738 0
M  V30 17 C -2.60957 -0.416344 -1.09291 0
M  V30 18 H 3.82722 -2.78212 1.84107 0
M  V30 19 H 3.73081 -3.1494 0.109216 0
M  V30 20 H 4.90013 -0.992748 -0.881241 0
M  V30 21 H 5.53637 1.85502 -1.38015 0
M  V30 22 H 4.23344 1.64933 -2.60872 0
M  V30 23 H -1.57572 2.11293 1.52091 0
M  V30 24 H -0.821141 1.9803 -0.0900464 0
M  V30 25 H -1.40799 -0.186956 2.01677 0
M  V30 26 H -0.481775 -0.597965 0.57101 0
M  V30 27 H -3.68506 0.253974 1.98954 0
M  V30 28 H -5.83047 -0.0770428 0.861072 0
M  V30 29 H -5.8967 -0.631636 -1.55404 0
M  V30 30 H -3.79473 -0.858668 -2.85403 0
M  V30 31 H -1.65676 -0.501698 -1.60749 0
M  V30 END ATOM
M  V30 BEGIN BOND
M  V30 1 1 1 2
M  V30 2 2 2 3
M  V30 3 1 3 4
M  V30 4 1 4 5
M  V30 5 2 4 6
M  V30 6 1 6 7
M  V30 7 2 7 8
M  V30 8 1 7 9
M  V30 9 1 9 10
M  V30 10 1 10 11
M  V30 11 1 11 12
M  V30 12 2 12 13
M  V30 13 1 13 14
M  V30 14 2 14 15
M  V30 15 1 15 16
M  V30 16 2 16 17
M  V30 17 1 8 2
M  V30 18 1 17 12
M  V30 19 1 1 18
M  V30 20 1 1 19
M  V30 21 1 3 20
M  V30 22 1 5 21
M  V30 23 1 5 22
M  V30 24 1 10 23
M  V30 25 1 10 24
M  V30 26 1 11 25
M  V30 27 1 11 26
M  V30 28 1 13 27
M  V30 29 1 14 28
M  V30 30 1 15 29
M  V30 31 1 16 30
M  V30 32 1 17 31
M  V30 END BOND
M  V30 END CTAB
M  END
