
     RDKit          3D

  0  0  0  0  0  0  0  0  0  0999 V3000
M  V30 BEGIN CTAB
M  V30 COUNTS 41 40 0 0 0
M  V30 BEGIN ATOM
M  V30 1 C 2.43531 0.239277 -1.15383 0 CFG=1
M  V30 2 N 3.1127 0.512373 -2.39922 0
M  V30 3 C 3.20622 0.902877 -0.0275245 0
M  V30 4 C 4.61135 0.382153 0.0594409 0
M  V30 5 S 4.59074 -1.4071 0.36412 0
M  V30 6 C 6.2621 -2.06768 0.474924 0
M  V30 7 C 1.06722 0.775224 -1.19729 0
M  V30 8 O 0.640075 1.37628 -2.23652 0
M  V30 9 N 0.163278 0.657779 -0.110982 0
M  V30 10 C -1.21177 1.21067 -0.188855 0 CFG=1
M  V30 11 C -2.19046 0.0770733 -0.0441835 0
M  V30 12 C -3.58742 0.543851 -0.128234 0
M  V30 13 C -4.59792 -0.594003 -0.018482 0
M  V30 14 C -4.48365 -1.3358 1.27552 0
M  V30 15 N -5.4885 -2.38592 1.26296 0
M  V30 16 C -1.32457 2.27777 0.815298 0
M  V30 17 O -2.42205 3.09498 1.00913 0
M  V30 18 O -0.327115 2.49794 1.59801 0
M  V30 19 H 2.45773 -0.859547 -1.00932 0
M  V30 20 H 3.31029 1.53951 -2.49687 0
M  V30 21 H 2.6453 0.110863 -3.21986 0
M  V30 22 H 3.27252 1.99323 -0.29999 0
M  V30 23 H 2.72053 0.749396 0.945267 0
M  V30 24 H 5.08188 0.850783 0.955402 0
M  V30 25 H 5.21851 0.618132 -0.829948 0
M  V30 26 H 6.51568 -2.57578 -0.4804 0
M  V30 27 H 7.01695 -1.26935 0.67739 0
M  V30 28 H 6.27413 -2.85682 1.25775 0
M  V30 29 H 0.480884 0.171342 0.755542 0
M  V30 30 H -1.29434 1.66757 -1.19453 0
M  V30 31 H -1.92795 -0.43054 0.908818 0
M  V30 32 H -1.91814 -0.661952 -0.838285 0
M  V30 33 H -3.75003 0.991632 -1.13099 0
M  V30 34 H -3.85657 1.31735 0.608111 0
M  V30 35 H -4.5213 -1.27342 -0.863403 0
M  V30 36 H -5.59716 -0.113269 -0.0487939 0
M  V30 37 H -4.72403 -0.692804 2.15532 0
M  V30 38 H -3.51175 -1.83044 1.42261 0
M  V30 39 H -6.35871 -2.04708 0.759781 0
M  V30 40 H -5.11265 -3.19041 0.690807 0
M  V30 41 H -2.87733 3.1874 1.92131 0
M  V30 END ATOM
M  V30 BEGIN BOND
M  V30 1 1 1 2
M  V30 2 1 1 3
M  V30 3 1 3 4
M  V30 4 1 4 5
M  V30 5 1 5 6
M  V30 6 1 1 7
M  V30 7 2 7 8
M  V30 8 1 7 9
M  V30 9 1 9 10
M  V30 10 1 10 11
M  V30 11 1 11 12
M  V30 12 1 12 13
M  V30 13 1 13 14
M  V30 14 1 14 15
M  V30 15 1 10 16
M  V30 16 1 16 17
M  V30 17 2 16 18
M  V30 18 1 1 19 CFG=1
M  V30 19 1 2 20
M  V30 20 1 2 21
M  V30 21 1 3 22
M  V30 22 1 3 23
M  V30 23 1 4 24
M  V30 24 1 4 25
M  V30 25 1 6 26
M  V30 26 1 6 27
M  V30 27 1 6 28
M  V30 28 1 9 29
M  V30 29 1 10 30 CFG=3
M  V30 30 1 11 31
M  V30 31 1 11 32
M  V30 32 1 12 33
M  V30 33 1 12 34
M  V30 34 1 13 35
M  V30 35 1 13 36
M  V30 36 1 14 37
M  V30 37 1 14 38
M  V30 38 1 15 39
M  V30 39 1 15 40
M  V30 40 1 17 41
M  V30 END BOND
M  V30 END CTAB
M  END
