
     RDKit          3D

  0  0  0  0  0  0  0  0  0  0999 V3000
M  V30 BEGIN CTAB
M  V30 COUNTS 22 22 0 0 0
M  V30 BEGIN ATOM
M  V30 1 C -3.3298 -0.529633 0.694214 0
M  V30 2 C -1.87128 -0.843607 0.566753 0
M  V30 3 N -1.11275 0.306632 0.0750581 0
M  V30 4 C 0.286501 0.225804 -0.118602 0
M  V30 5 N 0.980468 -0.91164 0.140796 0
M  V30 6 C 2.30955 -1.01337 -0.035056 0
M  V30 7 N 3.00529 -2.22721 0.248842 0
M  V30 8 N 2.95649 0.0767282 -0.489778 0
M  V30 9 C 2.31742 1.22674 -0.76187 0
M  V30 10 C 0.954486 1.34596 -0.586367 0
M  V30 11 N 0.251317 2.5498 -0.865832 0
M  V30 12 H -3.63165 -0.348313 1.75917 0
M  V30 13 H -3.9804 -1.31792 0.234198 0
M  V30 14 H -3.5698 0.419207 0.153541 0
M  V30 15 H -1.48224 -1.09682 1.57906 0
M  V30 16 H -1.75267 -1.72014 -0.0728429 0
M  V30 17 H -1.63634 1.16755 -0.121491 0
M  V30 18 H 2.68297 -3.1363 -0.151984 0
M  V30 19 H 3.85153 -2.2564 0.859017 0
M  V30 20 H 2.85171 2.11383 -1.13314 0
M  V30 21 H 0.580641 3.50442 -0.615907 0
M  V30 22 H -0.661437 2.46468 -1.35777 0
M  V30 END ATOM
M  V30 BEGIN BOND
M  V30 1 1 1 2
M  V30 2 1 2 3
M  V30 3 1 3 4
M  V30 4 2 4 5
M  V30 5 1 5 6
M  V30 6 1 6 7
M  V30 7 2 6 8
M  V30 8 1 8 9
M  V30 9 2 9 10
M  V30 10 1 10 11
M  V30 11 1 10 4
M  V30 12 1 1 12
M  V30 13 1 1 13
M  V30 14 1 1 14
M  V30 15 1 2 15
M  V30 16 1 2 16
M  V30 17 1 3 17
M  V30 18 1 7 18
M  V30 19 1 7 19
M  V30 20 1 9 20
M  V30 21 1 11 21
M  V30 22 1 11 22
M  V30 END BOND
M  V30 END CTAB
M  END
