
     RDKit          3D

  0  0  0  0  0  0  0  0  0  0999 V3000
M  V30 BEGIN CTAB
M  V30 COUNTS 51 52 0 0 0
M  V30 BEGIN ATOM
M  V30 1 C -6.05413 -1.12826 -2.13849 0
M  V30 2 C -4.76679 -1.58138 -1.51737 0
M  V30 3 C -3.956 -0.518835 -0.86562 0
M  V30 4 C -4.66552 0.185116 0.265039 0 CFG=1
M  V30 5 C -3.72841 1.22296 0.842591 0
M  V30 6 O -4.04527 2.39272 0.695307 0
M  V30 7 N -2.55039 0.775719 1.51674 0
M  V30 8 C -1.46397 0.372684 2.1387 0
M  V30 9 C -0.167671 0.867209 1.42615 0
M  V30 10 C 0.951896 0.330871 2.24664 0
M  V30 11 C 2.32129 0.680418 1.72731 0
M  V30 12 N 3.05896 -0.0680961 0.876392 0
M  V30 13 N 4.2181 0.486981 0.593041 0
M  V30 14 C 4.25049 1.6579 1.28543 0
M  V30 15 C 3.07863 1.79598 1.99779 0
M  V30 16 N 5.36116 2.55136 1.23776 0
M  V30 17 C 5.26124 -0.01716 -0.24033 0
M  V30 18 C 6.48848 -0.386655 0.266197 0
M  V30 19 C 7.49869 -0.906634 -0.528387 0
M  V30 20 C 7.29522 -1.07216 -1.88583 0
M  V30 21 C 6.08211 -0.708218 -2.40661 0
M  V30 22 C 5.06751 -0.184266 -1.59074 0
M  V30 23 N -5.86882 0.823064 -0.137424 0
M  V30 24 C -5.00126 -2.77553 -0.603599 0
M  V30 25 H -5.96877 -0.0974417 -2.54758 0
M  V30 26 H -6.27346 -1.78991 -3.03545 0
M  V30 27 H -6.95146 -1.27324 -1.49477 0
M  V30 28 H -4.13489 -1.97842 -2.37756 0
M  V30 29 H -3.01132 -0.955313 -0.486802 0
M  V30 30 H -3.68209 0.219153 -1.65041 0
M  V30 31 H -4.85773 -0.537706 1.08715 0
M  V30 32 H -2.24678 2.07719 1.76237 0
M  V30 33 H -1.27458 0.690795 3.21622 0
M  V30 34 H -1.3094 -0.760401 2.23665 0
M  V30 35 H -0.1855 0.334532 0.4358 0
M  V30 36 H -0.223961 1.94956 1.3503 0
M  V30 37 H 0.903356 0.569814 3.30914 0
M  V30 38 H 0.902572 -0.800894 2.19676 0
M  V30 39 H 2.79358 2.61232 2.64297 0
M  V30 40 H 5.52829 3.25387 2.00961 0
M  V30 41 H 6.03934 2.5397 0.441629 0
M  V30 42 H 6.66522 -0.251478 1.33037 0
M  V30 43 H 8.46249 -1.19331 -0.116931 0
M  V30 44 H 8.11117 -1.49268 -2.47726 0
M  V30 45 H 5.91358 -0.834224 -3.46078 0
M  V30 46 H 4.1218 0.0979643 -2.02387 0
M  V30 47 H -5.93196 1.82908 0.156866 0
M  V30 48 H -6.72818 0.362697 0.243753 0
M  V30 49 H -4.06859 -3.31737 -0.36499 0
M  V30 50 H -5.62268 -2.50533 0.270836 0
M  V30 51 H -5.63558 -3.54475 -1.14424 0
M  V30 END ATOM
M  V30 BEGIN BOND
M  V30 1 1 1 2
M  V30 2 1 2 3
M  V30 3 1 3 4
M  V30 4 1 4 5
M  V30 5 2 5 6
M  V30 6 1 5 7
M  V30 7 1 7 8
M  V30 8 1 8 9
M  V30 9 1 9 10
M  V30 10 1 10 11
M  V30 11 2 11 12
M  V30 12 1 12 13
M  V30 13 1 13 14
M  V30 14 2 14 15
M  V30 15 1 14 16
M  V30 16 1 13 17
M  V30 17 2 17 18
M  V30 18 1 18 19
M  V30 19 2 19 20
M  V30 20 1 20 21
M  V30 21 2 21 22
M  V30 22 1 4 23
M  V30 23 1 2 24
M  V30 24 1 15 11
M  V30 25 1 22 17
M  V30 26 1 1 25
M  V30 27 1 1 26
M  V30 28 1 1 27
M  V30 29 1 2 28
M  V30 30 1 3 29
M  V30 31 1 3 30
M  V30 32 1 4 31 CFG=1
M  V30 33 1 7 32
M  V30 34 1 8 33
M  V30 35 1 8 34
M  V30 36 1 9 35
M  V30 37 1 9 36
M  V30 38 1 10 37
M  V30 39 1 10 38
M  V30 40 1 15 39
M  V30 41 1 16 40
M  V30 42 1 16 41
M  V30 43 1 18 42
M  V30 44 1 19 43
M  V30 45 1 20 44
M  V30 46 1 21 45
M  V30 47 1 22 46
M  V30 48 1 23 47
M  V30 49 1 23 48
M  V30 50 1 24 49
M  V30 51 1 24 50
M  V30 52 1 24 51
M  V30 END BOND
M  V30 END CTAB
M  END
