
     RDKit          3D

  0  0  0  0  0  0  0  0  0  0999 V3000
M  V30 BEGIN CTAB
M  V30 COUNTS 31 32 0 0 0
M  V30 BEGIN ATOM
M  V30 1 N 4.61217 -0.623256 -1.00693 0
M  V30 2 C 3.43358 -0.154244 -0.337009 0
M  V30 3 N 3.32825 0.895777 0.489691 0
M  V30 4 N 2.08603 1.02641 0.919164 0
M  V30 5 C 1.34631 0.0466209 0.370329 0
M  V30 6 C 2.17898 -0.717669 -0.432248 0
M  V30 7 C -0.10961 -0.180345 0.579493 0 CFG=1
M  V30 8 C -0.738836 0.98217 1.28859 0
M  V30 9 C -0.928073 2.19734 0.440541 0
M  V30 10 C -1.56975 1.82524 -0.868762 0
M  V30 11 C -1.9245 0.378015 -0.810368 0
M  V30 12 N -0.808796 -0.504683 -0.627826 0
M  V30 13 S -1.47889 -2.1185 -0.564854 0
M  V30 14 O -0.424385 -3.14514 -0.285705 0
M  V30 15 O -2.15548 -2.35896 -1.88152 0
M  V30 16 N -2.60583 -2.17505 0.73315 0
M  V30 17 H 5.49653 -0.147268 -0.818947 0
M  V30 18 H 4.55405 -1.41723 -1.65554 0
M  V30 19 H 1.73509 1.77623 1.58523 0
M  V30 20 H 1.8991 -1.58734 -1.01993 0
M  V30 21 H -0.222195 -1.06468 1.27314 0
M  V30 22 H -1.73934 0.679574 1.71707 0
M  V30 23 H -0.15223 1.2954 2.18394 0
M  V30 24 H 0.018093 2.70112 0.212939 0
M  V30 25 H -1.62821 2.87146 0.983548 0
M  V30 26 H -2.49329 2.4001 -1.04113 0
M  V30 27 H -0.871953 1.96592 -1.72256 0
M  V30 28 H -2.42911 0.0838489 -1.77539 0
M  V30 29 H -2.67377 0.146983 -0.0133724 0
M  V30 30 H -3.52495 -2.56651 0.4698 0
M  V30 31 H -2.209 -2.51132 1.61545 0
M  V30 END ATOM
M  V30 BEGIN BOND
M  V30 1 1 1 2
M  V30 2 2 2 3
M  V30 3 1 3 4
M  V30 4 1 4 5
M  V30 5 2 5 6
M  V30 6 1 5 7
M  V30 7 1 7 8
M  V30 8 1 8 9
M  V30 9 1 9 10
M  V30 10 1 10 11
M  V30 11 1 11 12
M  V30 12 1 12 13
M  V30 13 2 13 14
M  V30 14 2 13 15
M  V30 15 1 13 16
M  V30 16 1 6 2
M  V30 17 1 12 7
M  V30 18 1 1 17
M  V30 19 1 1 18
M  V30 20 1 4 19
M  V30 21 1 6 20
M  V30 22 1 7 21 CFG=1
M  V30 23 1 8 22
M  V30 24 1 8 23
M  V30 25 1 9 24
M  V30 26 1 9 25
M  V30 27 1 10 26
M  V30 28 1 10 27
M  V30 29 1 11 28
M  V30 30 1 11 29
M  V30 31 1 16 30
M  V30 32 1 16 31
M  V30 END BOND
M  V30 END CTAB
M  END
