
     RDKit          3D

  0  0  0  0  0  0  0  0  0  0999 V3000
M  V30 BEGIN CTAB
M  V30 COUNTS 46 47 0 0 0
M  V30 BEGIN ATOM
M  V30 1 C -2.82918 -1.87866 1.9987 0
M  V30 2 C -2.05976 -0.861103 1.1995 0
M  V30 3 N -2.42337 -0.81572 -0.132536 0
M  V30 4 C -1.72633 0.0571222 -1.05008 0
M  V30 5 C -1.75021 1.47955 -0.611437 0
M  V30 6 C -2.50828 2.42532 -1.29833 0
M  V30 7 C -2.55217 3.75619 -0.956177 0
M  V30 8 C -1.80512 4.17152 0.120477 0
M  V30 9 C -1.03934 3.29186 0.835847 0
M  V30 10 C -1.03178 1.96915 0.452158 0
M  V30 11 C -0.356018 -0.383846 -1.36795 0
M  V30 12 O -0.150845 -1.0771 -2.45226 0
M  V30 13 O 0.802837 -0.164481 -0.655367 0
M  V30 14 C 2.01387 -0.693436 -1.17194 0
M  V30 15 C 3.20682 -0.428975 -0.398211 0
M  V30 16 N 3.2947 -0.141273 0.909533 0
M  V30 17 C 4.48316 0.0905113 1.52094 0
M  V30 18 N 4.57586 0.396054 2.90537 0
M  V30 19 N 5.62829 0.0275712 0.781234 0
M  V30 20 C 5.58338 -0.254885 -0.518914 0
M  V30 21 N 4.39867 -0.475156 -1.0799 0
M  V30 22 N 6.77412 -0.329748 -1.30112 0
M  V30 23 C -2.69941 -2.05373 -0.825661 0
M  V30 24 C -4.02054 -2.65497 -0.506287 0
M  V30 25 H -3.9121 -1.76012 1.95836 0
M  V30 26 H -2.57579 -1.64525 3.09288 0
M  V30 27 H -2.46833 -2.90275 1.85821 0
M  V30 28 H -0.982549 -1.03327 1.41576 0
M  V30 29 H -2.3804 0.12811 1.70243 0
M  V30 30 H -2.31623 0.0106258 -1.98771 0
M  V30 31 H -3.09776 2.07814 -2.14878 0
M  V30 32 H -3.17434 4.46052 -1.5348 0
M  V30 33 H -1.84563 5.23167 0.372735 0
M  V30 34 H -0.457801 3.65305 1.68732 0
M  V30 35 H -0.419768 1.3007 1.03771 0
M  V30 36 H 1.85486 -1.78252 -1.35072 0
M  V30 37 H 2.14111 -0.25375 -2.18584 0
M  V30 38 H 5.23525 1.04756 3.33693 0
M  V30 39 H 3.87924 -0.128863 3.50734 0
M  V30 40 H 7.58876 -0.911957 -1.03815 0
M  V30 41 H 6.86767 0.216192 -2.18023 0
M  V30 42 H -2.60327 -1.8931 -1.91317 0
M  V30 43 H -1.85532 -2.792 -0.601575 0
M  V30 44 H -4.01656 -3.45343 0.234785 0
M  V30 45 H -4.79303 -1.9063 -0.203721 0
M  V30 46 H -4.47738 -3.11502 -1.45732 0
M  V30 END ATOM
M  V30 BEGIN BOND
M  V30 1 1 1 2
M  V30 2 1 2 3
M  V30 3 1 3 4
M  V30 4 1 4 5
M  V30 5 2 5 6
M  V30 6 1 6 7
M  V30 7 2 7 8
M  V30 8 1 8 9
M  V30 9 2 9 10
M  V30 10 1 4 11
M  V30 11 2 11 12
M  V30 12 1 11 13
M  V30 13 1 13 14
M  V30 14 1 14 15
M  V30 15 2 15 16
M  V30 16 1 16 17
M  V30 17 1 17 18
M  V30 18 2 17 19
M  V30 19 1 19 20
M  V30 20 2 20 21
M  V30 21 1 20 22
M  V30 22 1 3 23
M  V30 23 1 23 24
M  V30 24 1 10 5
M  V30 25 1 21 15
M  V30 26 1 1 25
M  V30 27 1 1 26
M  V30 28 1 1 27
M  V30 29 1 2 28
M  V30 30 1 2 29
M  V30 31 1 4 30
M  V30 32 1 6 31
M  V30 33 1 7 32
M  V30 34 1 8 33
M  V30 35 1 9 34
M  V30 36 1 10 35
M  V30 37 1 14 36
M  V30 38 1 14 37
M  V30 39 1 18 38
M  V30 40 1 18 39
M  V30 41 1 22 40
M  V30 42 1 22 41
M  V30 43 1 23 42
M  V30 44 1 23 43
M  V30 45 1 24 44
M  V30 46 1 24 45
M  V30 47 1 24 46
M  V30 END BOND
M  V30 END CTAB
M  END
