
     RDKit          3D

  0  0  0  0  0  0  0  0  0  0999 V3000
M  V30 BEGIN CTAB
M  V30 COUNTS 26 26 0 0 0
M  V30 BEGIN ATOM
M  V30 1 C -2.71994 1.27273 -0.575723 0
M  V30 2 C -1.54359 0.518797 0.0740438 0
M  V30 3 N -1.98404 -0.830053 0.188842 0
M  V30 4 N -1.1398 -1.72287 0.784388 0
M  V30 5 C -0.366527 0.763785 -0.809636 0
M  V30 6 C 0.89412 0.135135 -0.388256 0
M  V30 7 C 1.38107 -0.977778 -1.03633 0
M  V30 8 C 2.5738 -1.55748 -0.635532 0
M  V30 9 C 3.30658 -1.03402 0.42581 0
M  V30 10 N 2.80997 0.0495175 1.03934 0
M  V30 11 C 1.64796 0.627999 0.661197 0
M  V30 12 N 1.2325 1.77684 1.39906 0
M  V30 13 H -2.72172 0.946631 -1.63492 0
M  V30 14 H -2.62067 2.35967 -0.450926 0
M  V30 15 H -3.64403 0.854754 -0.111793 0
M  V30 16 H -1.37556 0.9308 1.082 0
M  V30 17 H -2.54983 -1.189 -0.599717 0
M  V30 18 H -1.3918 -2.68895 0.50604 0
M  V30 19 H -1.20371 -1.6114 1.82332 0
M  V30 20 H -0.222928 1.87482 -0.852419 0
M  V30 21 H -0.565579 0.448985 -1.8517 0
M  V30 22 H 0.858492 -1.44719 -1.88247 0
M  V30 23 H 2.954 -2.43441 -1.14938 0
M  V30 24 H 4.24181 -1.49189 0.737988 0
M  V30 25 H 0.928735 2.59985 0.823756 0
M  V30 26 H 1.22069 1.82472 2.43302 0
M  V30 END ATOM
M  V30 BEGIN BOND
M  V30 1 1 1 2
M  V30 2 1 2 3
M  V30 3 1 3 4
M  V30 4 1 2 5
M  V30 5 1 5 6
M  V30 6 2 6 7
M  V30 7 1 7 8
M  V30 8 2 8 9
M  V30 9 1 9 10
M  V30 10 2 10 11
M  V30 11 1 11 12
M  V30 12 1 11 6
M  V30 13 1 1 13
M  V30 14 1 1 14
M  V30 15 1 1 15
M  V30 16 1 2 16
M  V30 17 1 3 17
M  V30 18 1 4 18
M  V30 19 1 4 19
M  V30 20 1 5 20
M  V30 21 1 5 21
M  V30 22 1 7 22
M  V30 23 1 8 23
M  V30 24 1 9 24
M  V30 25 1 12 25
M  V30 26 1 12 26
M  V30 END BOND
M  V30 END CTAB
M  END
