
     RDKit          3D

  0  0  0  0  0  0  0  0  0  0999 V3000
M  V30 BEGIN CTAB
M  V30 COUNTS 29 29 0 0 0
M  V30 BEGIN ATOM
M  V30 1 C -3.85032 -0.321042 0.592954 0
M  V30 2 C -3.15177 -0.512003 -0.714427 0
M  V30 3 N -1.84113 0.203626 -0.740496 0
M  V30 4 C -0.756131 -0.519928 -0.307956 0
M  V30 5 O -1.00832 -1.74969 0.0727888 0
M  V30 6 C 0.636731 -0.12873 -0.207151 0
M  V30 7 C 1.14517 1.08806 -0.537514 0
M  V30 8 C 2.50748 1.3834 -0.408256 0
M  V30 9 C 3.39794 0.460579 0.0580412 0
M  V30 10 C 2.87844 -0.770964 0.391599 0
M  V30 11 C 1.56159 -1.08755 0.277285 0
M  V30 12 N 1.10315 -2.36651 0.637304 0
M  V30 13 N 4.77055 0.784336 0.179318 0
M  V30 14 C -1.89422 1.54051 -1.20879 0
M  V30 15 H -3.54462 0.56192 1.15761 0
M  V30 16 H -3.81099 -1.25907 1.22145 0
M  V30 17 H -4.94807 -0.19096 0.380088 0
M  V30 18 H -2.9922 -1.59432 -0.876781 0
M  V30 19 H -3.76662 -0.112863 -1.53871 0
M  V30 20 H 0.543739 1.88948 -0.912912 0
M  V30 21 H 2.88616 2.37793 -0.684537 0
M  V30 22 H 3.61045 -1.50437 0.766314 0
M  V30 23 H 0.816423 -2.61276 1.6135 0
M  V30 24 H 1.04583 -3.1046 -0.101932 0
M  V30 25 H 5.32358 0.973126 -0.691034 0
M  V30 26 H 5.27547 0.848556 1.08859 0
M  V30 27 H -2.9783 1.75487 -1.51595 0
M  V30 28 H -1.32664 1.68014 -2.1718 0
M  V30 29 H -1.63336 2.28883 -0.431128 0
M  V30 END ATOM
M  V30 BEGIN BOND
M  V30 1 1 1 2
M  V30 2 1 2 3
M  V30 3 1 3 4
M  V30 4 2 4 5
M  V30 5 1 4 6
M  V30 6 2 6 7
M  V30 7 1 7 8
M  V30 8 2 8 9
M  V30 9 1 9 10
M  V30 10 2 10 11
M  V30 11 1 11 12
M  V30 12 1 9 13
M  V30 13 1 3 14
M  V30 14 1 11 6
M  V30 15 1 1 15
M  V30 16 1 1 16
M  V30 17 1 1 17
M  V30 18 1 2 18
M  V30 19 1 2 19
M  V30 20 1 7 20
M  V30 21 1 8 21
M  V30 22 1 10 22
M  V30 23 1 12 23
M  V30 24 1 12 24
M  V30 25 1 13 25
M  V30 26 1 13 26
M  V30 27 1 14 27
M  V30 28 1 14 28
M  V30 29 1 14 29
M  V30 END BOND
M  V30 END CTAB
M  END
