
     RDKit          3D

  0  0  0  0  0  0  0  0  0  0999 V3000
M  V30 BEGIN CTAB
M  V30 COUNTS 21 21 0 0 0
M  V30 BEGIN ATOM
M  V30 1 C -2.02061 -0.718073 -0.592163 0
M  V30 2 C -1.04221 0.134896 0.10716 0
M  V30 3 C -1.1726 -0.072673 1.58611 0
M  V30 4 F -2.46058 0.255003 1.96834 0
M  V30 5 F -0.319742 0.709248 2.32103 0
M  V30 6 F -1.01999 -1.4138 1.90738 0
M  V30 7 C 0.368568 -0.0825615 -0.398723 0
M  V30 8 C 0.620523 -0.53539 -1.6717 0
M  V30 9 S 2.32452 -0.5788 -1.69986 0
M  V30 10 C 2.61557 -0.0274638 -0.107561 0
M  V30 11 N 1.40623 0.15872 0.35864 0
M  V30 12 N 3.85592 0.168369 0.583787 0
M  V30 13 N -1.30131 1.56238 -0.164823 0
M  V30 14 H -3.04184 -0.279448 -0.430154 0
M  V30 15 H -1.92184 -0.738617 -1.70278 0
M  V30 16 H -2.0535 -1.74751 -0.17696 0
M  V30 17 H -0.0873039 -0.810771 -2.47236 0
M  V30 18 H 3.9598 0.972375 1.20043 0
M  V30 19 H 4.60864 -0.498145 0.419132 0
M  V30 20 H -2.21876 1.87942 0.138552 0
M  V30 21 H -1.09947 1.66284 -1.17348 0
M  V30 END ATOM
M  V30 BEGIN BOND
M  V30 1 1 1 2
M  V30 2 1 2 3
M  V30 3 1 3 4
M  V30 4 1 3 5
M  V30 5 1 3 6
M  V30 6 1 2 7
M  V30 7 2 7 8
M  V30 8 1 8 9
M  V30 9 1 9 10
M  V30 10 2 10 11
M  V30 11 1 10 12
M  V30 12 1 2 13
M  V30 13 1 11 7
M  V30 14 1 1 14
M  V30 15 1 1 15
M  V30 16 1 1 16
M  V30 17 1 8 17
M  V30 18 1 12 18
M  V30 19 1 12 19
M  V30 20 1 13 20
M  V30 21 1 13 21
M  V30 END BOND
M  V30 END CTAB
M  END
