
     RDKit          3D

  0  0  0  0  0  0  0  0  0  0999 V3000
M  V30 BEGIN CTAB
M  V30 COUNTS 46 47 0 0 0
M  V30 BEGIN ATOM
M  V30 1 N -2.6435 4.81293 1.94707 0
M  V30 2 C -2.1819 4.04613 1.21327 0
M  V30 3 C -1.57838 3.08743 0.299391 0
M  V30 4 C -0.440736 3.30397 -0.300391 0
M  V30 5 N 0.143763 2.36815 -1.18955 0
M  V30 6 C 1.27606 1.62715 -0.666282 0
M  V30 7 C 1.84074 0.647844 -1.6587 0
M  V30 8 C 2.98926 -0.033211 -0.982414 0
M  V30 9 C 2.78027 -1.18639 -0.261842 0
M  V30 10 C 3.83735 -1.81281 0.360231 0
M  V30 11 C 5.13199 -1.33837 0.301935 0
M  V30 12 C 5.31971 -0.180921 -0.425633 0
M  V30 13 C 4.2725 0.456953 -1.05334 0
M  V30 14 S 6.46844 -2.15192 1.10246 0
M  V30 15 O 7.56365 -1.18358 1.44629 0
M  V30 16 O 6.02041 -2.8399 2.36129 0
M  V30 17 N 7.14849 -3.30602 -0.0184558 0
M  V30 18 C -2.27027 1.80641 0.0264349 0
M  V30 19 O -1.7571 0.983691 -0.754856 0
M  V30 20 N -3.49705 1.526 0.647243 0
M  V30 21 C -4.29918 0.3783 0.518131 0
M  V30 22 C -4.03343 -0.720874 -0.259058 0
M  V30 23 C -4.89168 -1.82649 -0.329031 0
M  V30 24 C -6.06121 -1.8618 0.390958 0
M  V30 25 C -6.35039 -0.771089 1.17827 0
M  V30 26 C -5.50458 0.304809 1.23965 0
M  V30 27 Cl -5.91929 1.68255 2.26565 0
M  V30 28 N -6.94543 -2.98415 0.328266 0
M  V30 29 H 0.0865259 4.25221 -0.107913 0
M  V30 30 H -0.202311 2.20686 -2.1759 0
M  V30 31 H 2.0458 2.3991 -0.408903 0
M  V30 32 H 0.941844 1.11849 0.257507 0
M  V30 33 H 1.14615 -0.125289 -1.96487 0
M  V30 34 H 2.27812 1.17708 -2.52956 0
M  V30 35 H 1.78277 -1.5845 -0.195484 0
M  V30 36 H 3.68807 -2.7362 0.94075 0
M  V30 37 H 6.34907 0.204225 -0.47715 0
M  V30 38 H 4.46706 1.3625 -1.61317 0
M  V30 39 H 7.96827 -2.881 -0.533115 0
M  V30 40 H 6.42784 -3.52047 -0.766114 0
M  V30 41 H -3.84528 2.30291 1.29866 0
M  V30 42 H -3.13492 -0.768796 -0.853829 0
M  V30 43 H -4.64234 -2.67501 -0.956839 0
M  V30 44 H -7.28152 -0.789524 1.75691 0
M  V30 45 H -6.51532 -3.91994 0.201521 0
M  V30 46 H -7.97837 -2.92511 0.400482 0
M  V30 END ATOM
M  V30 BEGIN BOND
M  V30 1 3 1 2
M  V30 2 1 2 3
M  V30 3 2 3 4
M  V30 4 1 4 5
M  V30 5 1 5 6
M  V30 6 1 6 7
M  V30 7 1 7 8
M  V30 8 2 8 9
M  V30 9 1 9 10
M  V30 10 2 10 11
M  V30 11 1 11 12
M  V30 12 2 12 13
M  V30 13 1 11 14
M  V30 14 2 14 15
M  V30 15 2 14 16
M  V30 16 1 14 17
M  V30 17 1 3 18
M  V30 18 2 18 19
M  V30 19 1 18 20
M  V30 20 1 20 21
M  V30 21 2 21 22
M  V30 22 1 22 23
M  V30 23 2 23 24
M  V30 24 1 24 25
M  V30 25 2 25 26
M  V30 26 1 26 27
M  V30 27 1 24 28
M  V30 28 1 13 8
M  V30 29 1 26 21
M  V30 30 1 4 29
M  V30 31 1 5 30
M  V30 32 1 6 31
M  V30 33 1 6 32
M  V30 34 1 7 33
M  V30 35 1 7 34
M  V30 36 1 9 35
M  V30 37 1 10 36
M  V30 38 1 12 37
M  V30 39 1 13 38
M  V30 40 1 17 39
M  V30 41 1 17 40
M  V30 42 1 20 41
M  V30 43 1 22 42
M  V30 44 1 23 43
M  V30 45 1 25 44
M  V30 46 1 28 45
M  V30 47 1 28 46
M  V30 END BOND
M  V30 END CTAB
M  END
