
     RDKit          3D

  0  0  0  0  0  0  0  0  0  0999 V3000
M  V30 BEGIN CTAB
M  V30 COUNTS 38 41 0 0 0
M  V30 BEGIN ATOM
M  V30 1 C 1.67958 -1.70883 -1.78233 0
M  V30 2 C 1.96848 -1.137 -0.433821 0
M  V30 3 C 1.19465 -1.15916 0.703434 0
M  V30 4 N 1.84753 -0.521478 1.69141 0
M  V30 5 C 3.03963 -0.0690977 1.25537 0
M  V30 6 N 4.04949 0.61653 1.83746 0
M  V30 7 C 5.16593 0.957962 1.17038 0
M  V30 8 N 6.22424 1.68376 1.80331 0
M  V30 9 N 5.24713 0.588185 -0.119667 0
M  V30 10 C 4.26555 -0.0990436 -0.750883 0
M  V30 11 N 4.35575 -0.485167 -2.10641 0
M  V30 12 C 3.11926 -0.450252 -0.0680098 0
M  V30 13 S -0.402643 -1.90818 0.838139 0
M  V30 14 C -1.70561 -0.757718 0.433936 0
M  V30 15 C -1.46562 0.54747 0.0656534 0
M  V30 16 C -2.51258 1.40674 -0.240141 0
M  V30 17 C -3.79384 0.94881 -0.173847 0
M  V30 18 C -4.85571 1.78131 -0.472619 0
M  V30 19 C -6.16524 1.35343 -0.416588 0
M  V30 20 C -6.44907 0.0529846 -0.051994 0
M  V30 21 C -5.38697 -0.77382 0.245128 0
M  V30 22 C -4.07153 -0.334847 0.18617 0
M  V30 23 C -3.01329 -1.18565 0.490089 0
M  V30 24 H 1.82436 -0.876314 -2.51054 0
M  V30 25 H 0.627746 -2.05918 -1.78664 0
M  V30 26 H 2.31964 -2.57487 -1.96346 0
M  V30 27 H 1.51621 -0.371094 2.68131 0
M  V30 28 H 7.09589 1.23385 2.14916 0
M  V30 29 H 6.15347 2.71553 1.94191 0
M  V30 30 H 4.33672 0.263007 -2.83211 0
M  V30 31 H 4.43969 -1.46328 -2.42922 0
M  V30 32 H -0.458313 0.897295 0.0165093 0
M  V30 33 H -2.26334 2.40846 -0.519374 0
M  V30 34 H -4.60792 2.79367 -0.755037 0
M  V30 35 H -6.99015 2.00809 -0.651003 0
M  V30 36 H -7.47617 -0.321495 0.00330242 0
M  V30 37 H -5.57332 -1.80602 0.536564 0
M  V30 38 H -3.27962 -2.19458 0.77053 0
M  V30 END ATOM
M  V30 BEGIN BOND
M  V30 1 1 1 2
M  V30 2 2 2 3
M  V30 3 1 3 4
M  V30 4 1 4 5
M  V30 5 2 5 6
M  V30 6 1 6 7
M  V30 7 1 7 8
M  V30 8 2 7 9
M  V30 9 1 9 10
M  V30 10 1 10 11
M  V30 11 2 10 12
M  V30 12 1 3 13
M  V30 13 1 13 14
M  V30 14 2 14 15
M  V30 15 1 15 16
M  V30 16 2 16 17
M  V30 17 1 17 18
M  V30 18 2 18 19
M  V30 19 1 19 20
M  V30 20 2 20 21
M  V30 21 1 21 22
M  V30 22 2 22 23
M  V30 23 1 12 2
M  V30 24 1 23 14
M  V30 25 1 12 5
M  V30 26 1 22 17
M  V30 27 1 1 24
M  V30 28 1 1 25
M  V30 29 1 1 26
M  V30 30 1 4 27
M  V30 31 1 8 28
M  V30 32 1 8 29
M  V30 33 1 11 30
M  V30 34 1 11 31
M  V30 35 1 15 32
M  V30 36 1 16 33
M  V30 37 1 18 34
M  V30 38 1 19 35
M  V30 39 1 20 36
M  V30 40 1 21 37
M  V30 41 1 23 38
M  V30 END BOND
M  V30 END CTAB
M  END
