
     RDKit          3D

  0  0  0  0  0  0  0  0  0  0999 V3000
M  V30 BEGIN CTAB
M  V30 COUNTS 27 28 0 0 0
M  V30 BEGIN ATOM
M  V30 1 N 3.88205 2.11263 0.40088 0
M  V30 2 C 3.29231 0.860912 0.118292 0
M  V30 3 N 1.94 0.696889 0.0396785 0
M  V30 4 C 1.4077 -0.508986 -0.231374 0
M  V30 5 C -0.0725261 -0.715033 -0.322973 0
M  V30 6 O -0.78099 0.462843 -0.0979821 0
M  V30 7 C -2.14526 0.499609 -0.13465 0
M  V30 8 C -2.85671 -0.65281 -0.400502 0
M  V30 9 C -4.23201 -0.632327 -0.440957 0
M  V30 10 C -4.88395 0.577724 -0.207349 0
M  V30 11 C -4.17959 1.73598 0.0595008 0
M  V30 12 C -2.80033 1.7131 0.0995798 0
M  V30 13 N 2.26657 -1.52596 -0.417314 0
M  V30 14 C 3.59567 -1.39347 -0.346092 0
M  V30 15 N 4.11326 -0.187527 -0.0755049 0
M  V30 16 N 4.49346 -2.47941 -0.545267 0
M  V30 17 H 3.95012 2.42674 1.38483 0
M  V30 18 H 4.23441 2.69082 -0.381816 0
M  V30 19 H -0.353218 -1.08963 -1.34066 0
M  V30 20 H -0.324542 -1.50496 0.425461 0
M  V30 21 H -2.34878 -1.58615 -0.580524 0
M  V30 22 H -4.80809 -1.54633 -0.652192 0
M  V30 23 H -5.96521 0.568114 -0.244565 0
M  V30 24 H -4.76104 2.63346 0.229577 0
M  V30 25 H -2.2464 2.61871 0.308324 0
M  V30 26 H 4.11295 -3.34055 -1.03463 0
M  V30 27 H 5.47015 -2.43438 -0.229409 0
M  V30 END ATOM
M  V30 BEGIN BOND
M  V30 1 1 1 2
M  V30 2 2 2 3
M  V30 3 1 3 4
M  V30 4 1 4 5
M  V30 5 1 5 6
M  V30 6 1 6 7
M  V30 7 2 7 8
M  V30 8 1 8 9
M  V30 9 2 9 10
M  V30 10 1 10 11
M  V30 11 2 11 12
M  V30 12 2 4 13
M  V30 13 1 13 14
M  V30 14 2 14 15
M  V30 15 1 14 16
M  V30 16 1 15 2
M  V30 17 1 12 7
M  V30 18 1 1 17
M  V30 19 1 1 18
M  V30 20 1 5 19
M  V30 21 1 5 20
M  V30 22 1 8 21
M  V30 23 1 9 22
M  V30 24 1 10 23
M  V30 25 1 11 24
M  V30 26 1 12 25
M  V30 27 1 16 26
M  V30 28 1 16 27
M  V30 END BOND
M  V30 END CTAB
M  END
