
     RDKit          3D

  0  0  0  0  0  0  0  0  0  0999 V3000
M  V30 BEGIN CTAB
M  V30 COUNTS 39 39 0 0 0
M  V30 BEGIN ATOM
M  V30 1 C 1.56773 4.14082 -0.920051 0
M  V30 2 O 0.91981 2.92513 -0.654067 0
M  V30 3 C 1.65979 1.76847 -0.504803 0
M  V30 4 C 3.02946 1.84123 -0.622547 0
M  V30 5 C 3.81201 0.722019 -0.483208 0
M  V30 6 C 3.18339 -0.462071 -0.224356 0
M  V30 7 C 1.79641 -0.532875 -0.105631 0
M  V30 8 C 0.997162 0.564565 -0.239817 0
M  V30 9 N -0.406533 0.574497 -0.134215 0
M  V30 10 C -1.26826 -0.505639 0.123885 0
M  V30 11 O -0.905354 -1.67924 0.30545 0
M  V30 12 C -2.74374 -0.26721 0.19346 0
M  V30 13 C -3.46801 -1.53424 0.502112 0
M  V30 14 N -3.08918 -2.12873 1.75409 0
M  V30 15 C -4.95643 -1.2771 0.546711 0
M  V30 16 C -3.16186 0.224081 -1.17363 0
M  V30 17 S 4.14627 -1.90407 -0.0413824 0
M  V30 18 O 3.35292 -3.11498 -0.479534 0
M  V30 19 O 5.38004 -1.74323 -0.881084 0
M  V30 20 N 4.59598 -2.10957 1.61838 0
M  V30 21 H 0.768456 4.91832 -1.06749 0
M  V30 22 H 2.21213 4.38369 -0.0471164 0
M  V30 23 H 2.20149 4.11468 -1.82472 0
M  V30 24 H 3.51578 2.79527 -0.82956 0
M  V30 25 H 4.89904 0.787822 -0.578066 0
M  V30 26 H 1.3692 -1.49342 0.0980309 0
M  V30 27 H -0.897977 1.53194 -0.26591 0
M  V30 28 H -2.93925 0.540912 0.914179 0
M  V30 29 H -3.29735 -2.23134 -0.358745 0
M  V30 30 H -2.69129 -1.46273 2.43313 0
M  V30 31 H -2.60411 -3.02779 1.67899 0
M  V30 32 H -5.19451 -0.343073 1.09563 0
M  V30 33 H -5.42345 -2.15873 1.04437 0
M  V30 34 H -5.32681 -1.24388 -0.486458 0
M  V30 35 H -4.17456 0.634817 -1.20401 0
M  V30 36 H -2.45987 1.0308 -1.46729 0
M  V30 37 H -3.05314 -0.578987 -1.9295 0
M  V30 38 H 3.8241 -2.51341 2.18023 0
M  V30 39 H 4.83051 -1.18674 2.03456 0
M  V30 END ATOM
M  V30 BEGIN BOND
M  V30 1 1 1 2
M  V30 2 1 2 3
M  V30 3 2 3 4
M  V30 4 1 4 5
M  V30 5 2 5 6
M  V30 6 1 6 7
M  V30 7 2 7 8
M  V30 8 1 8 9
M  V30 9 1 9 10
M  V30 10 2 10 11
M  V30 11 1 10 12
M  V30 12 1 12 13
M  V30 13 1 13 14
M  V30 14 1 13 15
M  V30 15 1 12 16
M  V30 16 1 6 17
M  V30 17 2 17 18
M  V30 18 2 17 19
M  V30 19 1 17 20
M  V30 20 1 8 3
M  V30 21 1 1 21
M  V30 22 1 1 22
M  V30 23 1 1 23
M  V30 24 1 4 24
M  V30 25 1 5 25
M  V30 26 1 7 26
M  V30 27 1 9 27
M  V30 28 1 12 28
M  V30 29 1 13 29
M  V30 30 1 14 30
M  V30 31 1 14 31
M  V30 32 1 15 32
M  V30 33 1 15 33
M  V30 34 1 15 34
M  V30 35 1 16 35
M  V30 36 1 16 36
M  V30 37 1 16 37
M  V30 38 1 20 38
M  V30 39 1 20 39
M  V30 END BOND
M  V30 END CTAB
M  END
