
     RDKit          3D

  0  0  0  0  0  0  0  0  0  0999 V3000
M  V30 BEGIN CTAB
M  V30 COUNTS 16 16 0 0 0
M  V30 BEGIN ATOM
M  V30 1 N -1.93485 1.06901 -0.0740986 0
M  V30 2 C -0.615282 0.578009 -0.0378209 0
M  V30 3 C -0.416505 -0.786718 0.0325765 0
M  V30 4 N -1.544 -1.64212 0.0656967 0
M  V30 5 C 0.880803 -1.25476 0.0675193 0
M  V30 6 C 1.93462 -0.362744 0.0319082 0
M  V30 7 Br 3.72585 -1.02543 0.0809668 0
M  V30 8 C 1.75823 1.00484 -0.0384332 0
M  V30 9 Br 3.24489 2.2061 -0.0858139 0
M  V30 10 C 0.455998 1.46201 -0.0728751 0
M  V30 11 H -2.41341 1.47492 0.750225 0
M  V30 12 H -2.46148 1.02386 -0.974907 0
M  V30 13 H -1.70029 -2.16173 0.975844 0
M  V30 14 H -2.20414 -1.78849 -0.715255 0
M  V30 15 H 1.01204 -2.3312 0.122831 0
M  V30 16 H 0.277524 2.53445 -0.128363 0
M  V30 END ATOM
M  V30 BEGIN BOND
M  V30 1 1 1 2
M  V30 2 2 2 3
M  V30 3 1 3 4
M  V30 4 1 3 5
M  V30 5 2 5 6
M  V30 6 1 6 7
M  V30 7 1 6 8
M  V30 8 1 8 9
M  V30 9 2 8 10
M  V30 10 1 10 2
M  V30 11 1 1 11
M  V30 12 1 1 12
M  V30 13 1 4 13
M  V30 14 1 4 14
M  V30 15 1 5 15
M  V30 16 1 10 16
M  V30 END BOND
M  V30 END CTAB
M  END
