
     RDKit          3D

  0  0  0  0  0  0  0  0  0  0999 V3000
M  V30 BEGIN CTAB
M  V30 COUNTS 22 23 0 0 0
M  V30 BEGIN ATOM
M  V30 1 N -1.76018 -1.8622 -0.0436706 0
M  V30 2 C -1.53904 -0.48998 0.376039 0
M  V30 3 C -2.79076 0.330019 0.0339639 0
M  V30 4 O -2.25504 1.61661 0.0238554 0
M  V30 5 C -1.08995 1.52939 -0.731182 0
M  V30 6 C -0.528938 0.150718 -0.536015 0
M  V30 7 C 0.822271 0.230336 0.0532281 0
M  V30 8 O 1.1691 0.783752 1.16952 0
M  V30 9 N 2.46323 0.655106 1.36286 0
M  V30 10 C 3.00274 -0.023023 0.312715 0
M  V30 11 N 1.94043 -0.272794 -0.48946 0
M  V30 12 N 4.3613 -0.370571 0.131004 0
M  V30 13 H -2.47375 -2.34953 0.502151 0
M  V30 14 H -0.857359 -2.38596 -0.0662605 0
M  V30 15 H -1.29644 -0.442906 1.43287 0
M  V30 16 H -3.57341 0.225089 0.779935 0
M  V30 17 H -3.09717 0.00418531 -0.984389 0
M  V30 18 H -0.350236 2.30021 -0.436124 0
M  V30 19 H -1.33531 1.74279 -1.80767 0
M  V30 20 H -0.550052 -0.377742 -1.49989 0
M  V30 21 H 4.89217 0.0161379 -0.668638 0
M  V30 22 H 4.84638 -1.00963 0.784225 0
M  V30 END ATOM
M  V30 BEGIN BOND
M  V30 1 1 1 2
M  V30 2 1 2 3
M  V30 3 1 3 4
M  V30 4 1 4 5
M  V30 5 1 5 6
M  V30 6 1 6 7
M  V30 7 1 7 8
M  V30 8 1 8 9
M  V30 9 2 9 10
M  V30 10 1 10 11
M  V30 11 1 10 12
M  V30 12 1 6 2
M  V30 13 2 11 7
M  V30 14 1 1 13
M  V30 15 1 1 14
M  V30 16 1 2 15
M  V30 17 1 3 16
M  V30 18 1 3 17
M  V30 19 1 5 18
M  V30 20 1 5 19
M  V30 21 1 6 20
M  V30 22 1 12 21
M  V30 23 1 12 22
M  V30 END BOND
M  V30 END CTAB
M  END
