
     RDKit          3D

  0  0  0  0  0  0  0  0  0  0999 V3000
M  V30 BEGIN CTAB
M  V30 COUNTS 26 27 0 0 0
M  V30 BEGIN ATOM
M  V30 1 N 3.49569 -1.93913 0.0870022 0
M  V30 2 C 3.24217 -0.586371 -0.277041 0
M  V30 3 N 4.19971 0.0632506 -0.830622 0
M  V30 4 N 1.97085 0.00666932 -0.0294927 0
M  V30 5 N 0.825237 -0.613769 -0.279184 0
M  V30 6 C -0.219291 0.170193 0.0456579 0
M  V30 7 C 0.352262 1.33374 0.519832 0
M  V30 8 C 1.7416 1.22921 0.471829 0
M  V30 9 N 2.71571 2.17821 0.856644 0
M  V30 10 C -1.64689 -0.137704 -0.075067 0
M  V30 11 C -2.08582 -1.34566 -0.567999 0
M  V30 12 C -3.42905 -1.64235 -0.684508 0
M  V30 13 C -4.37552 -0.703422 -0.296607 0
M  V30 14 C -3.9597 0.51406 0.200313 0
M  V30 15 C -2.60389 0.777124 0.303012 0
M  V30 16 H 2.80231 -2.69647 -0.148439 0
M  V30 17 H 4.37795 -2.22268 0.599299 0
M  V30 18 H 4.12649 1.05584 -1.13733 0
M  V30 19 H -0.163559 2.20926 0.880174 0
M  V30 20 H 2.99323 2.9526 0.233248 0
M  V30 21 H 3.15859 2.09052 1.78663 0
M  V30 22 H -1.31226 -2.05592 -0.86163 0
M  V30 23 H -3.74525 -2.59876 -1.07493 0
M  V30 24 H -5.41659 -0.972849 -0.403086 0
M  V30 25 H -4.73509 1.20915 0.487759 0
M  V30 26 H -2.30887 1.72524 0.6901 0
M  V30 END ATOM
M  V30 BEGIN BOND
M  V30 1 1 1 2
M  V30 2 2 2 3 CFG=2
M  V30 3 1 2 4
M  V30 4 1 4 5
M  V30 5 2 5 6
M  V30 6 1 6 7
M  V30 7 2 7 8
M  V30 8 1 8 9
M  V30 9 1 6 10
M  V30 10 2 10 11
M  V30 11 1 11 12
M  V30 12 2 12 13
M  V30 13 1 13 14
M  V30 14 2 14 15
M  V30 15 1 8 4
M  V30 16 1 15 10
M  V30 17 1 1 16
M  V30 18 1 1 17
M  V30 19 1 3 18
M  V30 20 1 7 19
M  V30 21 1 9 20
M  V30 22 1 9 21
M  V30 23 1 11 22
M  V30 24 1 12 23
M  V30 25 1 13 24
M  V30 26 1 14 25
M  V30 27 1 15 26
M  V30 END BOND
M  V30 END CTAB
M  END
