
     RDKit          3D

  0  0  0  0  0  0  0  0  0  0999 V3000
M  V30 BEGIN CTAB
M  V30 COUNTS 51 54 0 0 0
M  V30 BEGIN ATOM
M  V30 1 N 7.01725 -2.28247 -0.165004 0
M  V30 2 C 6.93435 -0.930433 -0.6575 0
M  V30 3 C 5.63094 -0.335704 -0.282387 0
M  V30 4 C 5.48227 0.34489 0.904308 0
M  V30 5 C 4.28915 0.900818 1.26836 0
M  V30 6 C 3.15095 0.81463 0.464604 0
M  V30 7 C 3.30621 0.131827 -0.722486 0
M  V30 8 C 4.52948 -0.43499 -1.08981 0
M  V30 9 C 1.92044 1.42057 0.899682 0
M  V30 10 O 1.88332 2.02846 1.99042 0
M  V30 11 N 0.754462 1.34128 0.117599 0
M  V30 12 C -0.51007 1.95227 0.542685 0 CFG=1
M  V30 13 C -0.978185 2.89474 -0.543725 0
M  V30 14 C -1.20196 2.1311 -1.82663 0
M  V30 15 C -2.00357 0.893161 -1.65702 0
M  V30 16 C -1.67208 0.0609501 -0.446077 0 CFG=1
M  V30 17 C -1.60357 0.936338 0.751596 0 CFG=1
M  V30 18 O -1.45228 0.239022 1.94649 0
M  V30 19 N -2.71695 -0.944243 -0.3496 0
M  V30 20 C -2.51739 -2.2472 -0.580743 0
M  V30 21 N -3.68637 -2.88222 -0.404175 0
M  V30 22 C -4.6482 -2.01504 -0.0609884 0
M  V30 23 C -4.01262 -0.776241 -0.0297412 0
M  V30 24 N -4.75726 0.284295 0.291028 0
M  V30 25 C -6.07154 0.136602 0.569881 0
M  V30 26 N -6.68085 -1.04733 0.540479 0
M  V30 27 C -5.99956 -2.15142 0.227965 0
M  V30 28 N -6.62557 -3.42583 0.189689 0
M  V30 29 H 6.85337 -2.98182 -0.913134 0
M  V30 30 H 7.9653 -2.4644 0.230875 0
M  V30 31 H 7.06976 -0.914575 -1.77165 0
M  V30 32 H 7.75276 -0.344634 -0.236222 0
M  V30 33 H 6.34988 0.421342 1.53716 0
M  V30 34 H 4.24135 1.41994 2.21057 0
M  V30 35 H 2.49455 0.00673389 -1.41477 0
M  V30 36 H 4.64944 -0.972302 -2.0252 0
M  V30 37 H 0.790813 0.840853 -0.78938 0
M  V30 38 H -0.372322 2.50401 1.49595 0
M  V30 39 H -1.98727 3.2695 -0.225909 0
M  V30 40 H -0.266131 3.70471 -0.752358 0
M  V30 41 H -1.75898 2.81372 -2.50599 0
M  V30 42 H -0.228894 1.9238 -2.35123 0
M  V30 43 H -1.84894 0.24238 -2.5493 0
M  V30 44 H -3.0904 1.11181 -1.62945 0
M  V30 45 H -0.708768 -0.46036 -0.543495 0
M  V30 46 H -2.55629 1.53831 0.813967 0
M  V30 47 H -1.15065 0.908728 2.63307 0
M  V30 48 H -1.60335 -2.75804 -0.862277 0
M  V30 49 H -6.67495 1.01329 0.832241 0
M  V30 50 H -6.17418 -4.22897 0.71032 0
M  V30 51 H -7.50688 -3.63186 -0.318906 0
M  V30 END ATOM
M  V30 BEGIN BOND
M  V30 1 1 1 2
M  V30 2 1 2 3
M  V30 3 2 3 4
M  V30 4 1 4 5
M  V30 5 2 5 6
M  V30 6 1 6 7
M  V30 7 2 7 8
M  V30 8 1 6 9
M  V30 9 2 9 10
M  V30 10 1 9 11
M  V30 11 1 11 12
M  V30 12 1 12 13
M  V30 13 1 13 14
M  V30 14 1 14 15
M  V30 15 1 15 16
M  V30 16 1 16 17
M  V30 17 1 17 18
M  V30 18 1 16 19
M  V30 19 1 19 20
M  V30 20 2 20 21
M  V30 21 1 21 22
M  V30 22 2 22 23
M  V30 23 1 23 24
M  V30 24 2 24 25
M  V30 25 1 25 26
M  V30 26 2 26 27
M  V30 27 1 27 28
M  V30 28 1 8 3
M  V30 29 1 17 12
M  V30 30 1 23 19
M  V30 31 1 27 22
M  V30 32 1 1 29
M  V30 33 1 1 30
M  V30 34 1 2 31
M  V30 35 1 2 32
M  V30 36 1 4 33
M  V30 37 1 5 34
M  V30 38 1 7 35
M  V30 39 1 8 36
M  V30 40 1 11 37
M  V30 41 1 12 38 CFG=1
M  V30 42 1 13 39
M  V30 43 1 13 40
M  V30 44 1 14 41
M  V30 45 1 14 42
M  V30 46 1 15 43
M  V30 47 1 15 44
M  V30 48 1 16 45 CFG=3
M  V30 49 1 17 46 CFG=1
M  V30 50 1 18 47
M  V30 51 1 20 48
M  V30 52 1 25 49
M  V30 53 1 28 50
M  V30 54 1 28 51
M  V30 END BOND
M  V30 END CTAB
M  END
