
     RDKit          3D

  0  0  0  0  0  0  0  0  0  0999 V3000
M  V30 BEGIN CTAB
M  V30 COUNTS 35 35 0 0 0
M  V30 BEGIN ATOM
M  V30 1 N 4.11797 0.816656 -0.356519 0
M  V30 2 C 2.81156 0.809613 0.268144 0
M  V30 3 C 1.88944 -0.166959 -0.431227 0
M  V30 4 C 0.559355 -0.110883 0.279014 0
M  V30 5 O 0.782306 -0.475763 1.60722 0
M  V30 6 C -0.403307 -1.16863 -0.278321 0
M  V30 7 C -1.62881 -1.05911 0.64197 0
M  V30 8 C -2.39685 0.164601 0.124658 0
M  V30 9 C -1.46765 1.14143 -0.517914 0
M  V30 10 C -0.111293 1.21027 0.134067 0
M  V30 11 C -3.42531 -0.379201 -0.847205 0
M  V30 12 N -3.08935 0.78091 1.25308 0
M  V30 13 C 2.51043 -1.52055 -0.363401 0
M  V30 14 H 4.77148 1.33138 0.249785 0
M  V30 15 H 4.09972 1.1687 -1.3286 0
M  V30 16 H 2.97141 0.397193 1.30532 0
M  V30 17 H 2.35587 1.79257 0.366986 0
M  V30 18 H 1.75264 0.185571 -1.47487 0
M  V30 19 H 0.718956 -1.45253 1.73652 0
M  V30 20 H -0.668726 -0.858787 -1.3064 0
M  V30 21 H 0.0239687 -2.17492 -0.208808 0
M  V30 22 H -1.30869 -0.776038 1.67908 0
M  V30 23 H -2.23573 -1.96679 0.624247 0
M  V30 24 H -1.40212 1.01937 -1.62729 0
M  V30 25 H -1.92773 2.16374 -0.380786 0
M  V30 26 H -0.261267 1.67474 1.14116 0
M  V30 27 H 0.505364 1.90207 -0.48406 0
M  V30 28 H -4.36013 -0.577789 -0.287157 0
M  V30 29 H -3.63099 0.295436 -1.6849 0
M  V30 30 H -3.09143 -1.3688 -1.26146 0
M  V30 31 H -2.56991 1.64998 1.51491 0
M  V30 32 H -4.02039 1.10327 0.872616 0
M  V30 33 H 3.62251 -1.37985 -0.494017 0
M  V30 34 H 2.12881 -2.23471 -1.11813 0
M  V30 35 H 2.37792 -1.93618 0.65228 0
M  V30 END ATOM
M  V30 BEGIN BOND
M  V30 1 1 1 2
M  V30 2 1 2 3
M  V30 3 1 3 4
M  V30 4 1 4 5
M  V30 5 1 4 6
M  V30 6 1 6 7
M  V30 7 1 7 8
M  V30 8 1 8 9
M  V30 9 1 9 10
M  V30 10 1 8 11
M  V30 11 1 8 12
M  V30 12 1 3 13
M  V30 13 1 10 4
M  V30 14 1 1 14
M  V30 15 1 1 15
M  V30 16 1 2 16
M  V30 17 1 2 17
M  V30 18 1 3 18
M  V30 19 1 5 19
M  V30 20 1 6 20
M  V30 21 1 6 21
M  V30 22 1 7 22
M  V30 23 1 7 23
M  V30 24 1 9 24
M  V30 25 1 9 25
M  V30 26 1 10 26
M  V30 27 1 10 27
M  V30 28 1 11 28
M  V30 29 1 11 29
M  V30 30 1 11 30
M  V30 31 1 12 31
M  V30 32 1 12 32
M  V30 33 1 13 33
M  V30 34 1 13 34
M  V30 35 1 13 35
M  V30 END BOND
M  V30 END CTAB
M  END
