
     RDKit          3D

  0  0  0  0  0  0  0  0  0  0999 V3000
M  V30 BEGIN CTAB
M  V30 COUNTS 59 62 0 0 0
M  V30 BEGIN ATOM
M  V30 1 C -7.62072 -0.0636751 2.44739 0
M  V30 2 O -7.04342 -0.618821 1.28013 0
M  V30 3 C -5.76263 -0.204242 0.93927 0
M  V30 4 C -5.05432 0.717587 1.69681 0
M  V30 5 C -3.77152 1.08987 1.29675 0
M  V30 6 C -3.19557 0.557142 0.161078 0
M  V30 7 C -3.92549 -0.358797 -0.573111 0
M  V30 8 O -3.38874 -0.934245 -1.73937 0
M  V30 9 C -5.19236 -0.752322 -0.213344 0
M  V30 10 O -5.92607 -1.67182 -0.949716 0
M  V30 11 C -5.82201 -3.05254 -0.651544 0
M  V30 12 C -1.85579 0.937005 -0.268933 0
M  V30 13 C -0.726833 0.227235 0.175411 0
M  V30 14 N -1.00015 -0.83966 1.03818 0
M  V30 15 C 0.534106 0.539086 -0.193548 0
M  V30 16 N 0.656759 1.60551 -1.041 0
M  V30 17 C -0.344439 2.3366 -1.51466 0
M  V30 18 C -0.0815641 3.4587 -2.419 0
M  V30 19 O 1.2306 3.72447 -2.75714 0
M  V30 20 O -0.990756 4.17168 -2.88692 0
M  V30 21 C -1.62391 1.99352 -1.11944 0
M  V30 22 C -2.79828 2.75658 -1.60142 0
M  V30 23 C 1.76697 -0.132244 0.21033 0
M  V30 24 N 2.95902 0.335944 -0.274334 0
M  V30 25 C 4.13777 -0.185215 0.017243 0
M  V30 26 C 4.26769 -1.26644 0.851275 0
M  V30 27 C 3.10827 -1.7933 1.37867 0
M  V30 28 C 1.88064 -1.2037 1.03832 0
M  V30 29 C 5.58539 -1.79758 1.13689 0
M  V30 30 O 5.68989 -2.7868 1.90137 0
M  V30 31 C 6.80313 -1.22008 0.564019 0
M  V30 32 O 8.05042 -1.72469 0.835813 0
M  V30 33 C 9.03659 -1.07507 1.60272 0
M  V30 34 C 6.68653 -0.180292 -0.238873 0
M  V30 35 N 7.83853 0.422463 -0.825015 0
M  V30 36 C 5.39241 0.359446 -0.533548 0
M  V30 37 O 5.29405 1.35984 -1.30739 0
M  V30 38 H -7.58092 1.02874 2.37247 0
M  V30 39 H -8.63194 -0.454825 2.64413 0
M  V30 40 H -6.9796 -0.391167 3.30939 0
M  V30 41 H -5.52746 1.11976 2.58132 0
M  V30 42 H -3.23945 1.80115 1.89149 0
M  V30 43 H -3.88398 -1.59426 -2.29019 0
M  V30 44 H -6.79228 -3.56776 -0.875633 0
M  V30 45 H -4.96979 -3.52987 -1.17423 0
M  V30 46 H -5.64267 -3.21134 0.447704 0
M  V30 47 H -1.0647 -0.774391 2.08569 0
M  V30 48 H -1.16565 -1.79719 0.637846 0
M  V30 49 H 1.44369 3.7257 -3.75998 0
M  V30 50 H -2.85432 2.6387 -2.70295 0
M  V30 51 H -2.77521 3.81477 -1.28946 0
M  V30 52 H -3.74757 2.25801 -1.23502 0
M  V30 53 H 3.15726 -2.6389 2.03616 0
M  V30 54 H 1.03691 -1.67074 1.48763 0
M  V30 55 H 8.64071 -0.896507 2.63082 0
M  V30 56 H 9.90376 -1.76235 1.70309 0
M  V30 57 H 9.36713 -0.11679 1.19822 0
M  V30 58 H 8.2226 1.30699 -0.425572 0
M  V30 59 H 8.28932 -0.0188433 -1.64366 0
M  V30 END ATOM
M  V30 BEGIN BOND
M  V30 1 1 1 2
M  V30 2 1 2 3
M  V30 3 2 3 4
M  V30 4 1 4 5
M  V30 5 2 5 6
M  V30 6 1 6 7
M  V30 7 1 7 8
M  V30 8 2 7 9
M  V30 9 1 9 10
M  V30 10 1 10 11
M  V30 11 1 6 12
M  V30 12 2 12 13
M  V30 13 1 13 14
M  V30 14 1 13 15
M  V30 15 2 15 16
M  V30 16 1 16 17
M  V30 17 1 17 18
M  V30 18 1 18 19
M  V30 19 2 18 20
M  V30 20 2 17 21
M  V30 21 1 21 22
M  V30 22 1 15 23
M  V30 23 2 23 24
M  V30 24 1 24 25
M  V30 25 2 25 26
M  V30 26 1 26 27
M  V30 27 2 27 28
M  V30 28 1 26 29
M  V30 29 2 29 30
M  V30 30 1 29 31
M  V30 31 1 31 32
M  V30 32 1 32 33
M  V30 33 2 31 34
M  V30 34 1 34 35
M  V30 35 1 34 36
M  V30 36 2 36 37
M  V30 37 1 9 3
M  V30 38 1 21 12
M  V30 39 1 28 23
M  V30 40 1 36 25
M  V30 41 1 1 38
M  V30 42 1 1 39
M  V30 43 1 1 40
M  V30 44 1 4 41
M  V30 45 1 5 42
M  V30 46 1 8 43
M  V30 47 1 11 44
M  V30 48 1 11 45
M  V30 49 1 11 46
M  V30 50 1 14 47
M  V30 51 1 14 48
M  V30 52 1 19 49
M  V30 53 1 22 50
M  V30 54 1 22 51
M  V30 55 1 22 52
M  V30 56 1 27 53
M  V30 57 1 28 54
M  V30 58 1 33 55
M  V30 59 1 33 56
M  V30 60 1 33 57
M  V30 61 1 35 58
M  V30 62 1 35 59
M  V30 END BOND
M  V30 END CTAB
M  END
