
     RDKit          3D

  0  0  0  0  0  0  0  0  0  0999 V3000
M  V30 BEGIN CTAB
M  V30 COUNTS 40 42 0 0 0
M  V30 BEGIN ATOM
M  V30 1 N 6.88755 0.937468 0.426564 0
M  V30 2 C 6.35316 0.0543912 -0.561704 0
M  V30 3 C 4.85614 -0.025256 -0.322922 0
M  V30 4 C 4.29092 -1.09771 0.310723 0
M  V30 5 C 2.91132 -1.11297 0.506985 0
M  V30 6 C 2.07746 -0.113264 0.0939522 0
M  V30 7 C 2.70127 0.964319 -0.558391 0
M  V30 8 C 4.06329 0.995412 -0.753161 0
M  V30 9 C 0.674221 -0.031807 0.394545 0
M  V30 10 N 0.158877 -0.103551 1.66236 0
M  V30 11 O -1.12664 -0.0787756 1.58713 0
M  V30 12 C -1.53576 -0.00526878 0.3729 0
M  V30 13 N -0.407415 0.0318841 -0.421242 0
M  V30 14 C -2.91828 0.040292 -0.153884 0
M  V30 15 C -3.64043 1.31364 0.162466 0
M  V30 16 N -3.78908 1.54837 1.58197 0
M  V30 17 C -3.63417 -1.17945 0.424045 0
M  V30 18 C -4.78974 -1.31675 -0.563946 0
M  V30 19 C -4.17421 -0.993987 -1.90616 0
M  V30 20 C -2.90478 -0.215355 -1.63184 0
M  V30 21 H 6.14642 1.44659 0.970843 0
M  V30 22 H 7.56274 0.450327 1.0776 0
M  V30 23 H 6.45751 0.557835 -1.5604 0
M  V30 24 H 6.81872 -0.915693 -0.663263 0
M  V30 25 H 4.94736 -1.90967 0.661856 0
M  V30 26 H 2.4672 -1.96006 1.0003 0
M  V30 27 H 2.02367 1.75806 -0.860527 0
M  V30 28 H 4.49937 1.8713 -1.23051 0
M  V30 29 H -4.64498 1.27524 -0.333157 0
M  V30 30 H -3.11096 2.1378 -0.3617 0
M  V30 31 H -3.12407 2.28525 1.91109 0
M  V30 32 H -4.74085 1.73153 1.90605 0
M  V30 33 H -3.97605 -1.00042 1.45265 0
M  V30 34 H -2.94665 -2.04804 0.365568 0
M  V30 35 H -5.22715 -2.32806 -0.539752 0
M  V30 36 H -5.55394 -0.56302 -0.256304 0
M  V30 37 H -4.84665 -0.395226 -2.53079 0
M  V30 38 H -3.92981 -1.93624 -2.41747 0
M  V30 39 H -1.99594 -0.799207 -1.94757 0
M  V30 40 H -2.87964 0.730065 -2.24487 0
M  V30 END ATOM
M  V30 BEGIN BOND
M  V30 1 1 1 2
M  V30 2 1 2 3
M  V30 3 2 3 4
M  V30 4 1 4 5
M  V30 5 2 5 6
M  V30 6 1 6 7
M  V30 7 2 7 8
M  V30 8 1 6 9
M  V30 9 2 9 10
M  V30 10 1 10 11
M  V30 11 1 11 12
M  V30 12 2 12 13
M  V30 13 1 12 14
M  V30 14 1 14 15
M  V30 15 1 15 16
M  V30 16 1 14 17
M  V30 17 1 17 18
M  V30 18 1 18 19
M  V30 19 1 19 20
M  V30 20 1 8 3
M  V30 21 1 13 9
M  V30 22 1 20 14
M  V30 23 1 1 21
M  V30 24 1 1 22
M  V30 25 1 2 23
M  V30 26 1 2 24
M  V30 27 1 4 25
M  V30 28 1 5 26
M  V30 29 1 7 27
M  V30 30 1 8 28
M  V30 31 1 15 29
M  V30 32 1 15 30
M  V30 33 1 16 31
M  V30 34 1 16 32
M  V30 35 1 17 33
M  V30 36 1 17 34
M  V30 37 1 18 35
M  V30 38 1 18 36
M  V30 39 1 19 37
M  V30 40 1 19 38
M  V30 41 1 20 39
M  V30 42 1 20 40
M  V30 END BOND
M  V30 END CTAB
M  END
