
     RDKit          3D

  0  0  0  0  0  0  0  0  0  0999 V3000
M  V30 BEGIN CTAB
M  V30 COUNTS 62 66 0 0 0
M  V30 BEGIN ATOM
M  V30 1 N 6.77678 -1.99862 -2.31179 0
M  V30 2 C 7.0912 -2.13606 -0.936116 0
M  V30 3 N 8.28404 -2.67652 -0.548306 0
M  V30 4 C 8.56363 -2.8012 0.752337 0
M  V30 5 C 7.71033 -2.41139 1.74433 0
M  V30 6 C 6.51875 -1.86881 1.39525 0
M  V30 7 C 6.20357 -1.72953 0.0411938 0
M  V30 8 C 4.98414 -1.18472 -0.30945 0
M  V30 9 C 4.04209 -0.765344 0.581304 0
M  V30 10 O 2.8186 -0.220994 0.231324 0
M  V30 11 C 2.6706 1.15765 0.0246933 0
M  V30 12 C 1.45688 1.6947 -0.256405 0
M  V30 13 N 0.233691 0.926252 -0.199715 0
M  V30 14 C -0.9465 1.34061 -0.807389 0
M  V30 15 O -0.986234 2.37623 -1.52763 0
M  V30 16 C -2.23268 0.67655 -0.687664 0
M  V30 17 C -2.65892 -0.523 -1.08607 0
M  V30 18 C -3.98719 -0.953506 -0.924493 0
M  V30 19 C -4.92178 -0.172293 -0.346505 0
M  V30 20 C -4.47249 1.093 0.0814499 0
M  V30 21 C -3.20453 1.52009 -0.0701214 0
M  V30 22 C -6.33945 -0.373566 -0.152179 0
M  V30 23 C -7.19411 0.489587 -0.900047 0
M  V30 24 C -8.55663 0.478727 -0.740888 0
M  V30 25 C -9.15344 -0.371726 0.150676 0
M  V30 26 C -8.35125 -1.208 0.8745 0
M  V30 27 C -6.94137 -1.20043 0.711952 0
M  V30 28 S -6.08361 -2.38328 1.65643 0
M  V30 29 N -5.70163 -3.77636 0.742382 0
M  V30 30 O -4.86241 -1.77761 2.30593 0
M  V30 31 O -6.95112 -2.85938 2.81006 0
M  V30 32 C 1.37958 3.07916 -0.449701 0
M  V30 33 C 2.53206 3.87699 -0.347753 0
M  V30 34 C 3.74696 3.3355 -0.0656532 0
M  V30 35 C 3.78818 1.97136 0.113955 0
M  V30 36 C 2.37222 5.32096 -0.558851 0
M  V30 37 F 1.38875 5.85579 0.267945 0
M  V30 38 F 1.97891 5.53242 -1.8876 0
M  V30 39 F 3.56022 6.01431 -0.397031 0
M  V30 40 C 4.37192 -0.913341 1.93066 0
M  V30 41 C 5.57901 -1.44963 2.30217 0
M  V30 42 H 6.00498 -2.53568 -2.7611 0
M  V30 43 H 7.31647 -1.34277 -2.93761 0
M  V30 44 H 9.53857 -3.24348 1.01534 0
M  V30 45 H 8.00169 -2.53249 2.76407 0
M  V30 46 H 4.75967 -1.08616 -1.35915 0
M  V30 47 H 0.328022 0.0229188 0.332034 0
M  V30 48 H -1.9307 -1.18912 -1.55695 0
M  V30 49 H -4.24032 -1.93622 -1.28647 0
M  V30 50 H -5.16996 1.77326 0.559243 0
M  V30 51 H -2.84496 2.4966 0.259251 0
M  V30 52 H -6.69297 1.14739 -1.6057 0
M  V30 53 H -9.20943 1.12139 -1.31168 0
M  V30 54 H -10.2507 -0.381355 0.283503 0
M  V30 55 H -8.82813 -1.88726 1.57231 0
M  V30 56 H -5.62144 -4.63279 1.32536 0
M  V30 57 H -4.973 -3.6892 0.0528392 0
M  V30 58 H 0.463719 3.55833 -0.642112 0
M  V30 59 H 4.66169 3.95438 0.0147914 0
M  V30 60 H 4.74618 1.52911 0.332198 0
M  V30 61 H 3.62867 -0.585941 2.64348 0
M  V30 62 H 5.80511 -1.54549 3.37287 0
M  V30 END ATOM
M  V30 BEGIN BOND
M  V30 1 1 1 2
M  V30 2 2 2 3
M  V30 3 1 3 4
M  V30 4 2 4 5
M  V30 5 1 5 6
M  V30 6 2 6 7
M  V30 7 1 7 8
M  V30 8 2 8 9
M  V30 9 1 9 10
M  V30 10 1 10 11
M  V30 11 1 11 12
M  V30 12 1 12 13
M  V30 13 1 13 14
M  V30 14 2 14 15
M  V30 15 1 14 16
M  V30 16 2 16 17
M  V30 17 1 17 18
M  V30 18 2 18 19
M  V30 19 1 19 20
M  V30 20 2 20 21
M  V30 21 1 19 22
M  V30 22 2 22 23
M  V30 23 1 23 24
M  V30 24 2 24 25
M  V30 25 1 25 26
M  V30 26 2 26 27
M  V30 27 1 27 28
M  V30 28 1 28 29
M  V30 29 2 28 30
M  V30 30 2 28 31
M  V30 31 2 12 32
M  V30 32 1 32 33
M  V30 33 2 33 34
M  V30 34 1 34 35
M  V30 35 1 33 36
M  V30 36 1 36 37
M  V30 37 1 36 38
M  V30 38 1 36 39
M  V30 39 1 9 40
M  V30 40 2 40 41
M  V30 41 1 7 2
M  V30 42 2 35 11
M  V30 43 1 41 6
M  V30 44 1 21 16
M  V30 45 1 27 22
M  V30 46 1 1 42
M  V30 47 1 1 43
M  V30 48 1 4 44
M  V30 49 1 5 45
M  V30 50 1 8 46
M  V30 51 1 13 47
M  V30 52 1 17 48
M  V30 53 1 18 49
M  V30 54 1 20 50
M  V30 55 1 21 51
M  V30 56 1 23 52
M  V30 57 1 24 53
M  V30 58 1 25 54
M  V30 59 1 26 55
M  V30 60 1 29 56
M  V30 61 1 29 57
M  V30 62 1 32 58
M  V30 63 1 34 59
M  V30 64 1 35 60
M  V30 65 1 40 61
M  V30 66 1 41 62
M  V30 END BOND
M  V30 END CTAB
M  END
