
     RDKit          3D

  0  0  0  0  0  0  0  0  0  0999 V3000
M  V30 BEGIN CTAB
M  V30 COUNTS 15 15 0 0 0
M  V30 BEGIN ATOM
M  V30 1 N -1.84644 0.826101 0.189711 0
M  V30 2 C -0.509324 0.422709 0.0904552 0
M  V30 3 C 0.483449 1.3822 0.242742 0
M  V30 4 C 1.79099 0.934891 0.136238 0
M  V30 5 C 2.08613 -0.390692 -0.107586 0
M  V30 6 Cl 3.76609 -0.87025 -0.227378 0
M  V30 7 N 1.07452 -1.27988 -0.246878 0
M  V30 8 C -0.215132 -0.904364 -0.153616 0
M  V30 9 N -1.29813 -1.81608 -0.295459 0
M  V30 10 H -2.33169 1.09658 -0.715869 0
M  V30 11 H -2.41063 0.887286 1.05895 0
M  V30 12 H 0.231208 2.41653 0.433427 0
M  V30 13 H 2.62218 1.64388 0.246825 0
M  V30 14 H -1.73596 -2.25223 0.560891 0
M  V30 15 H -1.70726 -2.09667 -1.21245 0
M  V30 END ATOM
M  V30 BEGIN BOND
M  V30 1 1 1 2
M  V30 2 2 2 3
M  V30 3 1 3 4
M  V30 4 2 4 5
M  V30 5 1 5 6
M  V30 6 1 5 7
M  V30 7 2 7 8
M  V30 8 1 8 9
M  V30 9 1 8 2
M  V30 10 1 1 10
M  V30 11 1 1 11
M  V30 12 1 3 12
M  V30 13 1 4 13
M  V30 14 1 9 14
M  V30 15 1 9 15
M  V30 END BOND
M  V30 END CTAB
M  END
