
     RDKit          3D

  0  0  0  0  0  0  0  0  0  0999 V3000
M  V30 BEGIN CTAB
M  V30 COUNTS 45 47 0 0 0
M  V30 BEGIN ATOM
M  V30 1 C -4.5392 1.34839 -0.84394 0
M  V30 2 O -3.71083 0.26799 -0.616872 0
M  V30 3 C -2.41235 0.186143 -0.230927 0
M  V30 4 C -1.67288 1.32442 0.000813956 0
M  V30 5 C -0.321724 1.26485 0.389317 0
M  V30 6 C 0.36058 2.55534 0.58027 0
M  V30 7 C -0.662912 3.58848 1.15507 0
M  V30 8 C 0.741993 3.23186 -0.746414 0
M  V30 9 C 0.26982 0.0333 0.539601 0
M  V30 10 O 1.50955 -0.193547 0.916052 0
M  V30 11 C 2.74239 -0.559851 0.653216 0
M  V30 12 C 3.19133 -1.68186 1.45065 0
M  V30 13 N 4.3966 -2.18888 1.32269 0
M  V30 14 C 5.3069 -1.72122 0.456409 0
M  V30 15 N 6.57145 -2.33913 0.382811 0
M  V30 16 N 4.94825 -0.698634 -0.295891 0
M  V30 17 C 3.7014 -0.121164 -0.210825 0
M  V30 18 N 3.4079 0.954432 -1.06867 0
M  V30 19 C -0.549156 -1.12274 0.285189 0
M  V30 20 C -1.84602 -1.06527 -0.0852576 0
M  V30 21 C -2.60819 -2.317 -0.239549 0
M  V30 22 N -2.10673 -3.56349 -0.410829 0
M  V30 23 C -3.09857 -4.45535 -0.566969 0
M  V30 24 C -4.28459 -3.76014 -0.492908 0
M  V30 25 N -3.95063 -2.46829 -0.295712 0
M  V30 26 H -5.47178 1.38796 -0.229569 0
M  V30 27 H -4.02014 2.33239 -0.838795 0
M  V30 28 H -4.96312 1.2478 -1.908 0
M  V30 29 H -2.15181 2.28199 -0.121087 0
M  V30 30 H 1.19826 2.54286 1.23571 0
M  V30 31 H 0.0192591 4.42315 1.53527 0
M  V30 32 H -1.38038 3.93393 0.424326 0
M  V30 33 H -1.10945 3.13535 2.04121 0
M  V30 34 H -0.131504 3.81086 -1.15714 0
M  V30 35 H 0.972822 2.47348 -1.47525 0
M  V30 36 H 1.53822 3.9728 -0.508719 0
M  V30 37 H 2.48389 -2.06915 2.15372 0
M  V30 38 H 6.81961 -3.16933 0.927485 0
M  V30 39 H 7.32543 -1.95304 -0.259311 0
M  V30 40 H 2.64961 0.765018 -1.79121 0
M  V30 41 H 3.90485 1.86097 -0.98807 0
M  V30 42 H -0.0451642 -2.09049 0.41924 0
M  V30 43 H -3.05222 -5.52783 -0.725207 0
M  V30 44 H -5.29892 -4.12777 -0.573262 0
M  V30 45 H -4.67183 -1.72957 -0.188663 0
M  V30 END ATOM
M  V30 BEGIN BOND
M  V30 1 1 1 2
M  V30 2 1 2 3
M  V30 3 2 3 4
M  V30 4 1 4 5
M  V30 5 1 5 6
M  V30 6 1 6 7
M  V30 7 1 6 8
M  V30 8 2 5 9
M  V30 9 1 9 10
M  V30 10 1 10 11
M  V30 11 2 11 12
M  V30 12 1 12 13
M  V30 13 2 13 14
M  V30 14 1 14 15
M  V30 15 1 14 16
M  V30 16 2 16 17
M  V30 17 1 17 18
M  V30 18 1 9 19
M  V30 19 2 19 20
M  V30 20 1 20 21
M  V30 21 2 21 22
M  V30 22 1 22 23
M  V30 23 2 23 24
M  V30 24 1 24 25
M  V30 25 1 20 3
M  V30 26 1 25 21
M  V30 27 1 17 11
M  V30 28 1 1 26
M  V30 29 1 1 27
M  V30 30 1 1 28
M  V30 31 1 4 29
M  V30 32 1 6 30
M  V30 33 1 7 31
M  V30 34 1 7 32
M  V30 35 1 7 33
M  V30 36 1 8 34
M  V30 37 1 8 35
M  V30 38 1 8 36
M  V30 39 1 12 37
M  V30 40 1 15 38
M  V30 41 1 15 39
M  V30 42 1 18 40
M  V30 43 1 18 41
M  V30 44 1 19 42
M  V30 45 1 23 43
M  V30 46 1 24 44
M  V30 47 1 25 45
M  V30 END BOND
M  V30 END CTAB
M  END
