
     RDKit          3D

  0  0  0  0  0  0  0  0  0  0999 V3000
M  V30 BEGIN CTAB
M  V30 COUNTS 19 19 0 0 0
M  V30 BEGIN ATOM
M  V30 1 C 2.53561 -0.989267 0.0641076 0
M  V30 2 N 1.12 -0.666537 0.0476472 0
M  V30 3 N 0.0955276 -1.49524 0.117909 0
M  V30 4 C -1.07327 -0.813176 0.0721779 0
M  V30 5 C -2.45879 -1.38159 0.124483 0
M  V30 6 C -0.69928 0.512424 -0.0326147 0
M  V30 7 N -1.62504 1.59538 -0.110823 0
M  V30 8 C 0.686229 0.614908 -0.0488718 0
M  V30 9 N 1.47476 1.78166 -0.143866 0
M  V30 10 H 2.96138 -0.641568 -0.898478 0
M  V30 11 H 3.02709 -0.400902 0.872873 0
M  V30 12 H 2.73003 -2.0592 0.159282 0
M  V30 13 H -2.8782 -1.44234 -0.915693 0
M  V30 14 H -3.08255 -0.626657 0.644698 0
M  V30 15 H -2.43703 -2.3615 0.626142 0
M  V30 16 H -1.90157 2.06026 0.789129 0
M  V30 17 H -1.99603 1.89557 -1.01593 0
M  V30 18 H 2.26211 1.82677 -0.806151 0
M  V30 19 H 1.25904 2.59101 0.453974 0
M  V30 END ATOM
M  V30 BEGIN BOND
M  V30 1 1 1 2
M  V30 2 1 2 3
M  V30 3 2 3 4
M  V30 4 1 4 5
M  V30 5 1 4 6
M  V30 6 1 6 7
M  V30 7 2 6 8
M  V30 8 1 8 9
M  V30 9 1 8 2
M  V30 10 1 1 10
M  V30 11 1 1 11
M  V30 12 1 1 12
M  V30 13 1 5 13
M  V30 14 1 5 14
M  V30 15 1 5 15
M  V30 16 1 7 16
M  V30 17 1 7 17
M  V30 18 1 9 18
M  V30 19 1 9 19
M  V30 END BOND
M  V30 END CTAB
M  END
