
     RDKit          3D

  0  0  0  0  0  0  0  0  0  0999 V3000
M  V30 BEGIN CTAB
M  V30 COUNTS 22 22 0 0 0
M  V30 BEGIN ATOM
M  V30 1 N 4.22517 -0.68139 -1.11791 0
M  V30 2 C 2.8203 -0.831379 -0.719989 0
M  V30 3 C 2.25783 0.566821 -0.561129 0
M  V30 4 C 0.809847 0.459672 -0.15079 0
M  V30 5 C 0.29479 0.400289 1.11444 0
M  V30 6 C -1.04674 0.306116 1.2298 0
M  V30 7 C -1.77123 0.27841 0.0747625 0
M  V30 8 S -0.580133 0.383091 -1.13526 0
M  V30 9 S -3.51664 0.162937 -0.147644 0
M  V30 10 O -3.98993 1.39944 -0.874567 0
M  V30 11 O -3.82088 -1.00646 -1.05103 0
M  V30 12 N -4.33661 0.0785382 1.34151 0
M  V30 13 H 4.79585 -0.319015 -0.323619 0
M  V30 14 H 4.24553 -0.0481199 -1.94737 0
M  V30 15 H 2.32853 -1.38199 -1.54202 0
M  V30 16 H 2.74228 -1.41296 0.196574 0
M  V30 17 H 2.24952 1.03763 -1.56608 0
M  V30 18 H 2.84923 1.12793 0.175097 0
M  V30 19 H 0.978234 0.430395 1.99477 0
M  V30 20 H -1.57533 0.251283 2.20631 0
M  V30 21 H -4.86583 -0.840654 1.36544 0
M  V30 22 H -5.09379 0.811431 1.43869 0
M  V30 END ATOM
M  V30 BEGIN BOND
M  V30 1 1 1 2
M  V30 2 1 2 3
M  V30 3 1 3 4
M  V30 4 2 4 5
M  V30 5 1 5 6
M  V30 6 2 6 7
M  V30 7 1 7 8
M  V30 8 1 7 9
M  V30 9 2 9 10
M  V30 10 2 9 11
M  V30 11 1 9 12
M  V30 12 1 8 4
M  V30 13 1 1 13
M  V30 14 1 1 14
M  V30 15 1 2 15
M  V30 16 1 2 16
M  V30 17 1 3 17
M  V30 18 1 3 18
M  V30 19 1 5 19
M  V30 20 1 6 20
M  V30 21 1 12 21
M  V30 22 1 12 22
M  V30 END BOND
M  V30 END CTAB
M  END
