
     RDKit          3D

  0  0  0  0  0  0  0  0  0  0999 V3000
M  V30 BEGIN CTAB
M  V30 COUNTS 29 31 0 0 0
M  V30 BEGIN ATOM
M  V30 1 N 5.71536 -0.30119 -0.803651 0
M  V30 2 C 4.32365 -0.208405 -0.523203 0
M  V30 3 C 3.41378 -0.569824 -1.50258 0
M  V30 4 C 2.05125 -0.466703 -1.1942 0
M  V30 5 C 1.65184 -0.0210901 0.0404846 0
M  V30 6 C 2.55189 0.338073 1.01383 0
M  V30 7 C 3.91076 0.235105 0.705925 0
M  V30 8 O 2.20241 0.789485 2.2636 0
M  V30 9 C 0.223757 0.0847282 0.357452 0
M  V30 10 S -0.529349 0.605861 1.80638 0
M  V30 11 C -2.16271 0.425005 1.33737 0
M  V30 12 C -2.02412 -0.0392951 0.0559583 0
M  V30 13 N -0.819067 -0.196556 -0.398735 0
M  V30 14 C -3.22493 -0.294941 -0.62677 0
M  V30 15 C -4.45529 -0.100472 -0.0691146 0
M  V30 16 C -4.57806 0.368559 1.22504 0
M  V30 17 C -3.4191 0.629815 1.92397 0
M  V30 18 N -5.65043 -0.386771 -0.836324 0
M  V30 19 H 6.35478 0.531672 -0.674046 0
M  V30 20 H 6.1292 -1.20843 -1.14673 0
M  V30 21 H 3.7379 -0.920188 -2.47355 0
M  V30 22 H 1.37073 -0.756229 -1.97961 0
M  V30 23 H 4.66321 0.504512 1.43466 0
M  V30 24 H 2.89666 1.03423 2.92545 0
M  V30 25 H -3.20464 -0.671065 -1.66318 0
M  V30 26 H -5.54252 0.523281 1.66844 0
M  V30 27 H -3.4129 0.998787 2.94021 0
M  V30 28 H -5.70183 -1.12756 -1.54719 0
M  V30 29 H -6.47222 0.199604 -0.63503 0
M  V30 END ATOM
M  V30 BEGIN BOND
M  V30 1 1 1 2
M  V30 2 2 2 3
M  V30 3 1 3 4
M  V30 4 2 4 5
M  V30 5 1 5 6
M  V30 6 2 6 7
M  V30 7 1 6 8
M  V30 8 1 5 9
M  V30 9 1 9 10
M  V30 10 1 10 11
M  V30 11 2 11 12
M  V30 12 1 12 13
M  V30 13 1 12 14
M  V30 14 2 14 15
M  V30 15 1 15 16
M  V30 16 2 16 17
M  V30 17 1 15 18
M  V30 18 1 7 2
M  V30 19 2 13 9
M  V30 20 1 17 11
M  V30 21 1 1 19
M  V30 22 1 1 20
M  V30 23 1 3 21
M  V30 24 1 4 22
M  V30 25 1 7 23
M  V30 26 1 8 24
M  V30 27 1 14 25
M  V30 28 1 16 26
M  V30 29 1 17 27
M  V30 30 1 18 28
M  V30 31 1 18 29
M  V30 END BOND
M  V30 END CTAB
M  END
