
     RDKit          3D

  0  0  0  0  0  0  0  0  0  0999 V3000
M  V30 BEGIN CTAB
M  V30 COUNTS 28 28 0 0 0
M  V30 BEGIN ATOM
M  V30 1 N 4.03823 0.61376 0.474021 0
M  V30 2 C 2.69288 0.898041 0.0175545 0
M  V30 3 C 2.00073 -0.403593 -0.240006 0
M  V30 4 N 0.642304 -0.137124 -0.697004 0
M  V30 5 C 0.0311081 -1.38167 -1.03139 0
M  V30 6 C -0.897893 -1.94775 -0.0367773 0
M  V30 7 O -1.73958 -1.10885 0.60137 0
M  V30 8 C -1.49759 0.226108 0.508307 0 CFG=1
M  V30 9 C -0.0937692 0.634901 0.264092 0
M  V30 10 S -2.68077 1.08931 -0.538037 0
M  V30 11 O -2.61555 0.582994 -1.96407 0
M  V30 12 O -2.37798 2.53848 -0.421317 0
M  V30 13 N -4.30246 0.707552 -0.00830308 0
M  V30 14 H 4.68964 1.31277 0.102866 0
M  V30 15 H 4.32838 -0.324013 0.189897 0
M  V30 16 H 2.7808 1.47909 -0.923651 0
M  V30 17 H 2.15759 1.46615 0.775406 0
M  V30 18 H 1.97895 -1.0525 0.664907 0
M  V30 19 H 2.5666 -0.945342 -1.03137 0
M  V30 20 H 0.852117 -2.145 -1.17755 0
M  V30 21 H -0.388845 -1.28221 -2.05688 0
M  V30 22 H -1.51228 -2.74688 -0.535093 0
M  V30 23 H -0.287764 -2.50286 0.737386 0
M  V30 24 H -1.74582 0.633096 1.54263 0
M  V30 25 H 0.471431 0.54413 1.23703 0
M  V30 26 H -0.0742727 1.71315 0.00731629 0
M  V30 27 H -4.78847 1.56409 0.32937 0
M  V30 28 H -4.22774 -0.0258428 0.734834 0
M  V30 END ATOM
M  V30 BEGIN BOND
M  V30 1 1 1 2
M  V30 2 1 2 3
M  V30 3 1 3 4
M  V30 4 1 4 5
M  V30 5 1 5 6
M  V30 6 1 6 7
M  V30 7 1 7 8
M  V30 8 1 8 9
M  V30 9 1 8 10
M  V30 10 2 10 11
M  V30 11 2 10 12
M  V30 12 1 10 13
M  V30 13 1 9 4
M  V30 14 1 1 14
M  V30 15 1 1 15
M  V30 16 1 2 16
M  V30 17 1 2 17
M  V30 18 1 3 18
M  V30 19 1 3 19
M  V30 20 1 5 20
M  V30 21 1 5 21
M  V30 22 1 6 22
M  V30 23 1 6 23
M  V30 24 1 8 24 CFG=1
M  V30 25 1 9 25
M  V30 26 1 9 26
M  V30 27 1 13 27
M  V30 28 1 13 28
M  V30 END BOND
M  V30 END CTAB
M  END
