
     RDKit          3D

  0  0  0  0  0  0  0  0  0  0999 V3000
M  V30 BEGIN CTAB
M  V30 COUNTS 26 25 0 0 0
M  V30 BEGIN ATOM
M  V30 1 C -1.16975 0.605731 -0.103766 0 CFG=2
M  V30 2 N -1.14515 -0.314304 -1.18019 0
M  V30 3 C -0.322508 0.236646 1.0488 0
M  V30 4 C 1.13937 0.116167 0.810691 0
M  V30 5 C 1.54291 -0.915218 -0.186826 0
M  V30 6 C 3.09155 -0.900558 -0.226149 0
M  V30 7 N 3.55232 0.407229 -0.62082 0
M  V30 8 C -2.58457 0.805797 0.373321 0
M  V30 9 O -2.81435 1.58838 1.3249 0
M  V30 10 N -3.63524 0.105897 -0.261132 0
M  V30 11 O -4.91543 0.24263 0.118944 0
M  V30 12 H -0.825981 1.59761 -0.523133 0
M  V30 13 H -1.42656 0.0544705 -2.09438 0
M  V30 14 H -1.41705 -1.27983 -0.968396 0
M  V30 15 H -0.441565 0.996775 1.8921 0
M  V30 16 H -0.657847 -0.756388 1.50389 0
M  V30 17 H 1.58863 -0.19893 1.80411 0
M  V30 18 H 1.59833 1.11085 0.556149 0
M  V30 19 H 1.26634 -1.92788 0.137531 0
M  V30 20 H 1.23308 -0.706555 -1.23486 0
M  V30 21 H 3.404 -1.19196 0.782213 0
M  V30 22 H 3.41183 -1.62297 -1.0028 0
M  V30 23 H 3.65378 1.03878 0.197063 0
M  V30 24 H 4.44471 0.281288 -1.14341 0
M  V30 25 H -3.43927 -0.542263 -1.05025 0
M  V30 26 H -5.13157 1.16861 0.380689 0
M  V30 END ATOM
M  V30 BEGIN BOND
M  V30 1 1 1 2
M  V30 2 1 1 3
M  V30 3 1 3 4
M  V30 4 1 4 5
M  V30 5 1 5 6
M  V30 6 1 6 7
M  V30 7 1 1 8
M  V30 8 2 8 9
M  V30 9 1 8 10
M  V30 10 1 10 11
M  V30 11 1 1 12 CFG=3
M  V30 12 1 2 13
M  V30 13 1 2 14
M  V30 14 1 3 15
M  V30 15 1 3 16
M  V30 16 1 4 17
M  V30 17 1 4 18
M  V30 18 1 5 19
M  V30 19 1 5 20
M  V30 20 1 6 21
M  V30 21 1 6 22
M  V30 22 1 7 23
M  V30 23 1 7 24
M  V30 24 1 10 25
M  V30 25 1 11 26
M  V30 END BOND
M  V30 END CTAB
M  END
