
     RDKit          3D

  0  0  0  0  0  0  0  0  0  0999 V3000
M  V30 BEGIN CTAB
M  V30 COUNTS 42 43 0 0 0
M  V30 BEGIN ATOM
M  V30 1 N -6.85813 1.28336 0.918739 0
M  V30 2 C -6.81273 -0.0902811 0.58912 0
M  V30 3 N -7.66105 -0.557171 -0.248791 0
M  V30 4 N -5.85452 -0.951619 1.16376 0
M  V30 5 C -4.48962 -0.875533 0.75624 0
M  V30 6 C -3.51642 -1.6953 1.28826 0
M  V30 7 C -2.20277 -1.59425 0.869843 0
M  V30 8 C -1.80774 -0.683756 -0.08429 0
M  V30 9 C -0.394933 -0.603728 -0.50733 0
M  V30 10 C 0.31425 0.391171 0.385897 0
M  V30 11 C 1.75684 0.512883 0.000260697 0
M  V30 12 C 2.7291 -0.288423 0.555818 0
M  V30 13 C 4.05713 -0.179333 0.203542 0
M  V30 14 C 4.46424 0.747999 -0.729652 0
M  V30 15 N 5.82158 0.843843 -1.07526 0
M  V30 16 C 6.76418 -0.012138 -0.463753 0
M  V30 17 N 6.99191 -1.28861 -1.02826 0
M  V30 18 N 7.41525 0.332643 0.581887 0
M  V30 19 C 3.48484 1.55989 -1.29363 0
M  V30 20 C 2.16426 1.43685 -0.929884 0
M  V30 21 C -2.7684 0.144273 -0.627167 0
M  V30 22 C -4.0775 0.0393907 -0.206276 0
M  V30 23 H -6.90103 1.54948 1.91386 0
M  V30 24 H -6.84986 2.03809 0.19262 0
M  V30 25 H -7.66 -1.55492 -0.51504 0
M  V30 26 H -6.13438 -1.63666 1.87722 0
M  V30 27 H -3.79643 -2.42038 2.03957 0
M  V30 28 H -1.49931 -2.28177 1.34378 0
M  V30 29 H 0.106126 -1.5807 -0.379415 0
M  V30 30 H -0.267859 -0.272815 -1.55277 0
M  V30 31 H 0.237735 0.150031 1.45073 0
M  V30 32 H -0.129099 1.39254 0.213329 0
M  V30 33 H 2.4065 -1.01849 1.2909 0
M  V30 34 H 4.80632 -0.82707 0.659593 0
M  V30 35 H 6.15101 1.5537 -1.79289 0
M  V30 36 H 7.91863 -1.61642 -1.38712 0
M  V30 37 H 6.17803 -1.95241 -1.09216 0
M  V30 38 H 8.1036 -0.314304 1.01391 0
M  V30 39 H 3.78216 2.28757 -2.02171 0
M  V30 40 H 1.37958 2.07286 -1.36838 0
M  V30 41 H -2.49687 0.871497 -1.37843 0
M  V30 42 H -4.85464 0.689318 -0.626695 0
M  V30 END ATOM
M  V30 BEGIN BOND
M  V30 1 1 1 2
M  V30 2 2 2 3 CFG=2
M  V30 3 1 2 4
M  V30 4 1 4 5
M  V30 5 2 5 6
M  V30 6 1 6 7
M  V30 7 2 7 8
M  V30 8 1 8 9
M  V30 9 1 9 10
M  V30 10 1 10 11
M  V30 11 2 11 12
M  V30 12 1 12 13
M  V30 13 2 13 14
M  V30 14 1 14 15
M  V30 15 1 15 16
M  V30 16 1 16 17
M  V30 17 2 16 18 CFG=2
M  V30 18 1 14 19
M  V30 19 2 19 20
M  V30 20 1 8 21
M  V30 21 2 21 22
M  V30 22 1 22 5
M  V30 23 1 20 11
M  V30 24 1 1 23
M  V30 25 1 1 24
M  V30 26 1 3 25
M  V30 27 1 4 26
M  V30 28 1 6 27
M  V30 29 1 7 28
M  V30 30 1 9 29
M  V30 31 1 9 30
M  V30 32 1 10 31
M  V30 33 1 10 32
M  V30 34 1 12 33
M  V30 35 1 13 34
M  V30 36 1 15 35
M  V30 37 1 17 36
M  V30 38 1 17 37
M  V30 39 1 18 38
M  V30 40 1 19 39
M  V30 41 1 20 40
M  V30 42 1 21 41
M  V30 43 1 22 42
M  V30 END BOND
M  V30 END CTAB
M  END
