
     RDKit          3D

  0  0  0  0  0  0  0  0  0  0999 V3000
M  V30 BEGIN CTAB
M  V30 COUNTS 28 29 0 0 0
M  V30 BEGIN ATOM
M  V30 1 N -2.24684 -1.09355 -1.7468 0
M  V30 2 C -2.13911 0.0976535 -0.929183 0
M  V30 3 C -2.94283 -0.0306629 0.333272 0
M  V30 4 C -2.35195 1.09576 1.18098 0
M  V30 5 C -0.858183 0.938029 0.904391 0
M  V30 6 C -0.749183 0.388182 -0.487985 0
M  V30 7 C 0.155552 -0.81511 -0.501942 0
M  V30 8 C 1.51447 -0.361614 -0.0350929 0
M  V30 9 N 1.99191 -0.328297 1.22037 0
M  V30 10 N 3.22578 0.132663 1.21793 0
M  V30 11 C 3.56382 0.403802 -0.0373786 0
M  V30 12 N 2.51792 0.102703 -0.811753 0
M  V30 13 N 4.82746 0.928389 -0.494849 0
M  V30 14 H -1.84756 -1.87385 -1.20425 0
M  V30 15 H -3.26484 -1.24581 -1.92196 0
M  V30 16 H -2.54564 0.990963 -1.48167 0
M  V30 17 H -2.80872 -1.01064 0.825253 0
M  V30 18 H -4.01347 0.150283 0.135623 0
M  V30 19 H -2.73898 2.05148 0.790942 0
M  V30 20 H -2.5922 0.979214 2.24781 0
M  V30 21 H -0.388744 1.92402 0.927061 0
M  V30 22 H -0.490353 0.240072 1.6875 0
M  V30 23 H -0.311472 1.12428 -1.20045 0
M  V30 24 H -0.244465 -1.60681 0.158093 0
M  V30 25 H 0.296232 -1.23346 -1.50171 0
M  V30 26 H 3.86907 0.276722 2.05062 0
M  V30 27 H 5.27005 1.75457 -0.0366165 0
M  V30 28 H 5.30227 0.479934 -1.28821 0
M  V30 END ATOM
M  V30 BEGIN BOND
M  V30 1 1 1 2
M  V30 2 1 2 3
M  V30 3 1 3 4
M  V30 4 1 4 5
M  V30 5 1 5 6
M  V30 6 1 6 7
M  V30 7 1 7 8
M  V30 8 2 8 9
M  V30 9 1 9 10
M  V30 10 1 10 11
M  V30 11 2 11 12
M  V30 12 1 11 13
M  V30 13 1 6 2
M  V30 14 1 12 8
M  V30 15 1 1 14
M  V30 16 1 1 15
M  V30 17 1 2 16
M  V30 18 1 3 17
M  V30 19 1 3 18
M  V30 20 1 4 19
M  V30 21 1 4 20
M  V30 22 1 5 21
M  V30 23 1 5 22
M  V30 24 1 6 23
M  V30 25 1 7 24
M  V30 26 1 7 25
M  V30 27 1 10 26
M  V30 28 1 13 27
M  V30 29 1 13 28
M  V30 END BOND
M  V30 END CTAB
M  END
