
     RDKit          3D

  0  0  0  0  0  0  0  0  0  0999 V3000
M  V30 BEGIN CTAB
M  V30 COUNTS 44 47 0 0 0
M  V30 BEGIN ATOM
M  V30 1 N 4.76879 0.153591 1.56615 0
M  V30 2 C 4.48181 1.22672 0.677005 0 CFG=1
M  V30 3 C 4.80987 0.765069 -0.716583 0
M  V30 4 C 3.70067 -0.27558 -0.934934 0
M  V30 5 N 2.53009 0.267456 -0.244908 0
M  V30 6 C 2.9552 1.3851 0.581968 0
M  V30 7 C 1.22681 -0.290122 -0.396793 0
M  V30 8 C 0.999165 -1.41598 -1.14107 0
M  V30 9 F 2.01669 -2.07794 -1.73863 0
M  V30 10 C -0.286364 -1.89631 -1.27747 0
M  V30 11 N -0.505997 -3.06121 -2.05012 0
M  V30 12 C -1.38543 -1.28205 -0.684796 0
M  V30 13 C -1.12648 -0.130008 0.0722162 0
M  V30 14 C 0.15445 0.350018 0.209609 0
M  V30 15 F 0.357449 1.4625 0.955603 0
M  V30 16 N -2.18736 0.459618 0.650941 0
M  V30 17 C -3.4225 -0.0685758 0.486416 0
M  V30 18 C -3.69898 -1.19206 -0.247036 0
M  V30 19 C -2.64475 -1.81789 -0.852152 0
M  V30 20 O -2.79415 -2.85345 -1.54619 0
M  V30 21 C -5.08107 -1.70748 -0.379357 0
M  V30 22 O -6.04653 -1.14334 0.168745 0
M  V30 23 O -5.3149 -2.84778 -1.13164 0
M  V30 24 C -1.99306 1.66686 1.43025 0 CFG=2
M  V30 25 C -3.28908 2.47458 1.632 0
M  V30 26 C -2.14057 3.02719 0.878121 0 CFG=2
M  V30 27 F -2.20919 3.24214 -0.470147 0
M  V30 28 H 5.16914 -0.658915 1.13388 0
M  V30 29 H 4.18379 0.00882724 2.34814 0
M  V30 30 H 4.96431 2.17411 0.951273 0
M  V30 31 H 5.80451 0.286605 -0.78342 0
M  V30 32 H 4.67972 1.58103 -1.45465 0
M  V30 33 H 3.57157 -0.283324 -2.04038 0
M  V30 34 H 3.99248 -1.22424 -0.495433 0
M  V30 35 H 2.62953 1.2909 1.64599 0
M  V30 36 H 2.71772 2.36225 0.167391 0
M  V30 37 H -0.377828 -4.01895 -1.63825 0
M  V30 38 H -0.798805 -3.02959 -3.04246 0
M  V30 39 H -4.27271 0.397618 0.966007 0
M  V30 40 H -5.37791 -3.7749 -0.759305 0
M  V30 41 H -1.54121 1.45067 2.42907 0
M  V30 42 H -4.176 2.30657 1.03436 0
M  V30 43 H -3.51121 2.89807 2.63162 0
M  V30 44 H -1.53166 3.81223 1.40896 0
M  V30 END ATOM
M  V30 BEGIN BOND
M  V30 1 1 1 2
M  V30 2 1 2 3
M  V30 3 1 3 4
M  V30 4 1 4 5
M  V30 5 1 5 6
M  V30 6 1 5 7
M  V30 7 2 7 8
M  V30 8 1 8 9
M  V30 9 1 8 10
M  V30 10 1 10 11
M  V30 11 2 10 12
M  V30 12 1 12 13
M  V30 13 2 13 14
M  V30 14 1 14 15
M  V30 15 1 13 16
M  V30 16 1 16 17
M  V30 17 2 17 18
M  V30 18 1 18 19
M  V30 19 2 19 20
M  V30 20 1 18 21
M  V30 21 2 21 22
M  V30 22 1 21 23
M  V30 23 1 16 24
M  V30 24 1 24 25
M  V30 25 1 25 26
M  V30 26 1 26 27
M  V30 27 1 6 2
M  V30 28 1 14 7
M  V30 29 1 26 24
M  V30 30 1 19 12
M  V30 31 1 1 28
M  V30 32 1 1 29
M  V30 33 1 2 30 CFG=1
M  V30 34 1 3 31
M  V30 35 1 3 32
M  V30 36 1 4 33
M  V30 37 1 4 34
M  V30 38 1 6 35
M  V30 39 1 6 36
M  V30 40 1 11 37
M  V30 41 1 11 38
M  V30 42 1 17 39
M  V30 43 1 23 40
M  V30 44 1 24 41 CFG=1
M  V30 45 1 25 42
M  V30 46 1 25 43
M  V30 47 1 26 44 CFG=1
M  V30 END BOND
M  V30 END CTAB
M  END
