
     RDKit          3D

  0  0  0  0  0  0  0  0  0  0999 V3000
M  V30 BEGIN CTAB
M  V30 COUNTS 45 48 0 0 0
M  V30 BEGIN ATOM
M  V30 1 N -0.0769745 -2.62947 -0.689377 0
M  V30 2 C -0.381256 -1.24849 -0.406866 0
M  V30 3 N 0.576692 -0.319123 -0.27934 0
M  V30 4 C 0.330744 0.975622 -0.0165952 0
M  V30 5 N -0.946136 1.3528 0.124831 0
M  V30 6 C -1.97886 0.43739 0.00402161 0
M  V30 7 N -1.64267 -0.822825 -0.25693 0
M  V30 8 N -3.29948 0.836721 0.152034 0
M  V30 9 C -4.50377 0.140803 0.0827985 0
M  V30 10 C -4.57322 -1.20943 -0.172883 0
M  V30 11 C -5.80933 -1.86878 -0.233195 0
M  V30 12 C -6.96907 -1.15175 -0.0331699 0
M  V30 13 C -6.92974 0.198792 0.224186 0
M  V30 14 C -5.72363 0.810921 0.277034 0
M  V30 15 C -5.66047 2.27657 0.555108 0
M  V30 16 C 1.45445 1.96616 0.113821 0
M  V30 17 N 2.71395 1.27611 -0.0872863 0
M  V30 18 C 3.40327 1.08095 -1.32368 0
M  V30 19 O 2.98405 1.50384 -2.44896 0
M  V30 20 C 4.63727 0.334072 -1.08403 0
M  V30 21 C 4.7177 0.0683166 0.271157 0
M  V30 22 C 3.53038 0.64799 0.898043 0
M  V30 23 O 3.31208 0.572937 2.13414 0
M  V30 24 C 5.8112 -0.632206 0.722204 0
M  V30 25 N 5.93106 -0.925855 2.10981 0
M  V30 26 C 6.82463 -1.08068 -0.0986624 0
M  V30 27 C 6.71572 -0.799829 -1.44615 0
M  V30 28 C 5.63928 -0.102033 -1.94075 0
M  V30 29 H -0.521944 -3.41737 -0.211312 0
M  V30 30 H 0.638629 -2.84903 -1.42382 0
M  V30 31 H -3.40734 1.90601 0.363903 0
M  V30 32 H -3.71517 -1.84452 -0.340943 0
M  V30 33 H -5.83184 -2.93218 -0.436283 0
M  V30 34 H -7.90469 -1.6909 -0.0865177 0
M  V30 35 H -7.86707 0.698016 0.370425 0
M  V30 36 H -5.17463 2.47553 1.52632 0
M  V30 37 H -6.67654 2.70704 0.5976 0
M  V30 38 H -5.13106 2.78378 -0.282802 0
M  V30 39 H 1.41521 2.44353 1.13384 0
M  V30 40 H 1.31566 2.7191 -0.684295 0
M  V30 41 H 5.56807 -1.80406 2.5429 0
M  V30 42 H 6.41775 -0.198663 2.71006 0
M  V30 43 H 7.6777 -1.62841 0.260815 0
M  V30 44 H 7.52257 -1.15703 -2.09877 0
M  V30 45 H 5.58682 0.0996423 -2.99954 0
M  V30 END ATOM
M  V30 BEGIN BOND
M  V30 1 1 1 2
M  V30 2 2 2 3
M  V30 3 1 3 4
M  V30 4 2 4 5
M  V30 5 1 5 6
M  V30 6 2 6 7
M  V30 7 1 6 8
M  V30 8 1 8 9
M  V30 9 2 9 10
M  V30 10 1 10 11
M  V30 11 2 11 12
M  V30 12 1 12 13
M  V30 13 2 13 14
M  V30 14 1 14 15
M  V30 15 1 4 16
M  V30 16 1 16 17
M  V30 17 1 17 18
M  V30 18 2 18 19
M  V30 19 1 18 20
M  V30 20 2 20 21
M  V30 21 1 21 22
M  V30 22 2 22 23
M  V30 23 1 21 24
M  V30 24 1 24 25
M  V30 25 2 24 26
M  V30 26 1 26 27
M  V30 27 2 27 28
M  V30 28 1 7 2
M  V30 29 1 14 9
M  V30 30 1 22 17
M  V30 31 1 28 20
M  V30 32 1 1 29
M  V30 33 1 1 30
M  V30 34 1 8 31
M  V30 35 1 10 32
M  V30 36 1 11 33
M  V30 37 1 12 34
M  V30 38 1 13 35
M  V30 39 1 15 36
M  V30 40 1 15 37
M  V30 41 1 15 38
M  V30 42 1 16 39
M  V30 43 1 16 40
M  V30 44 1 25 41
M  V30 45 1 25 42
M  V30 46 1 26 43
M  V30 47 1 27 44
M  V30 48 1 28 45
M  V30 END BOND
M  V30 END CTAB
M  END
