
     RDKit          3D

  0  0  0  0  0  0  0  0  0  0999 V3000
M  V30 BEGIN CTAB
M  V30 COUNTS 58 60 0 0 0
M  V30 BEGIN ATOM
M  V30 1 C 1.84108 -4.33769 -1.77362 0
M  V30 2 C 1.72959 -2.82377 -1.56067 0
M  V30 3 C 0.783835 -2.53451 -0.449106 0
M  V30 4 N 0.572282 -1.17737 -0.0847022 0
M  V30 5 C -0.415438 -0.352442 -0.684253 0
M  V30 6 C -0.0805873 0.749575 -1.44139 0
M  V30 7 O 1.12968 1.06655 -1.62755 0
M  V30 8 N -1.06694 1.48487 -1.97831 0
M  V30 9 C -2.37558 1.22336 -1.82927 0
M  V30 10 O -3.19877 2.00487 -2.39669 0
M  V30 11 N -2.74837 0.156286 -1.09458 0
M  V30 12 C -1.78576 -0.599532 -0.545954 0
M  V30 13 N -2.07805 -1.77348 0.235772 0
M  V30 14 C -4.1419 -0.184914 -0.923167 0
M  V30 15 C -4.83543 0.510347 0.167928 0
M  V30 16 C -5.63583 1.59564 -0.201339 0
M  V30 17 C -6.33598 2.34533 0.711664 0
M  V30 18 C -6.25282 2.02229 2.04167 0
M  V30 19 C -5.47045 0.957387 2.41586 0
M  V30 20 C -4.76788 0.205847 1.49739 0
M  V30 21 C 1.38868 -0.562762 0.947096 0
M  V30 22 O 1.19167 0.648894 1.19456 0
M  V30 23 C 2.39324 -1.36178 1.65425 0
M  V30 24 S 3.36981 -0.478564 2.83451 0
M  V30 25 C 4.54202 0.678668 2.19232 0
M  V30 26 N 5.79079 0.280346 1.79203 0
M  V30 27 N 6.45484 1.33409 1.40548 0
M  V30 28 C 5.67461 2.39151 1.54504 0
M  V30 29 N 4.48849 1.99273 2.03279 0
M  V30 30 N 3.4596 2.87286 2.32002 0
M  V30 31 C 6.04827 3.78427 1.21672 0
M  V30 32 C 1.27329 -2.25343 -2.89033 0
M  V30 33 H 2.3907 -4.83278 -0.964335 0
M  V30 34 H 0.80315 -4.74476 -1.85601 0
M  V30 35 H 2.36046 -4.57185 -2.72156 0
M  V30 36 H 2.72533 -2.44139 -1.34379 0
M  V30 37 H -0.17916 -3.06739 -0.738731 0
M  V30 38 H 1.08558 -3.11989 0.481186 0
M  V30 39 H -0.800695 2.33233 -2.5618 0
M  V30 40 H -1.83393 -1.69712 1.26795 0
M  V30 41 H -2.48953 -2.62347 -0.160414 0
M  V30 42 H -4.22328 -1.3081 -0.815873 0
M  V30 43 H -4.68016 0.00219378 -1.89749 0
M  V30 44 H -5.73453 1.86374 -1.26651 0
M  V30 45 H -6.9322 3.17104 0.337867 0
M  V30 46 H -6.8186 2.63498 2.7417 0
M  V30 47 H -5.42299 0.72046 3.49364 0
M  V30 48 H -4.17528 -0.626604 1.84253 0
M  V30 49 H 3.04886 -1.86682 0.875883 0
M  V30 50 H 1.85957 -2.18836 2.20791 0
M  V30 51 H 3.33684 3.3421 3.25762 0
M  V30 52 H 2.73263 3.12701 1.61062 0
M  V30 53 H 5.48575 4.12796 0.337481 0
M  V30 54 H 5.83028 4.41935 2.11389 0
M  V30 55 H 7.13144 3.86917 1.00995 0
M  V30 56 H 1.81806 -1.30065 -3.13285 0
M  V30 57 H 1.54754 -2.9505 -3.7119 0
M  V30 58 H 0.192176 -2.13612 -2.91753 0
M  V30 END ATOM
M  V30 BEGIN BOND
M  V30 1 1 1 2
M  V30 2 1 2 3
M  V30 3 1 3 4
M  V30 4 1 4 5
M  V30 5 1 5 6
M  V30 6 2 6 7
M  V30 7 1 6 8
M  V30 8 1 8 9
M  V30 9 2 9 10
M  V30 10 1 9 11
M  V30 11 1 11 12
M  V30 12 1 12 13
M  V30 13 1 11 14
M  V30 14 1 14 15
M  V30 15 2 15 16
M  V30 16 1 16 17
M  V30 17 2 17 18
M  V30 18 1 18 19
M  V30 19 2 19 20
M  V30 20 1 4 21
M  V30 21 2 21 22
M  V30 22 1 21 23
M  V30 23 1 23 24
M  V30 24 1 24 25
M  V30 25 2 25 26
M  V30 26 1 26 27
M  V30 27 2 27 28
M  V30 28 1 28 29
M  V30 29 1 29 30
M  V30 30 1 28 31
M  V30 31 1 2 32
M  V30 32 2 12 5
M  V30 33 1 20 15
M  V30 34 1 29 25
M  V30 35 1 1 33
M  V30 36 1 1 34
M  V30 37 1 1 35
M  V30 38 1 2 36
M  V30 39 1 3 37
M  V30 40 1 3 38
M  V30 41 1 8 39
M  V30 42 1 13 40
M  V30 43 1 13 41
M  V30 44 1 14 42
M  V30 45 1 14 43
M  V30 46 1 16 44
M  V30 47 1 17 45
M  V30 48 1 18 46
M  V30 49 1 19 47
M  V30 50 1 20 48
M  V30 51 1 23 49
M  V30 52 1 23 50
M  V30 53 1 30 51
M  V30 54 1 30 52
M  V30 55 1 31 53
M  V30 56 1 31 54
M  V30 57 1 31 55
M  V30 58 1 32 56
M  V30 59 1 32 57
M  V30 60 1 32 58
M  V30 END BOND
M  V30 END CTAB
M  END
