
     RDKit          3D

  0  0  0  0  0  0  0  0  0  0999 V3000
M  V30 BEGIN CTAB
M  V30 COUNTS 25 26 0 0 0
M  V30 BEGIN ATOM
M  V30 1 N -1.88471 2.37801 -0.645725 0
M  V30 2 C -2.40114 1.05135 -0.757912 0
M  V30 3 C -1.29814 0.0952922 -0.411699 0
M  V30 4 C -1.77837 -1.33865 -0.293297 0
M  V30 5 C -0.605055 -1.94857 0.444755 0
M  V30 6 C -0.116585 -0.791882 1.27767 0
M  V30 7 O -0.869036 0.338339 0.891439 0
M  V30 8 C 1.29365 -0.443918 0.999111 0
M  V30 9 O 2.26462 -0.687107 1.83594 0
M  V30 10 N 3.38057 -0.287951 1.35171 0
M  V30 11 C 3.18349 0.249452 0.141998 0
M  V30 12 N 1.84947 0.143657 -0.0704025 0
M  V30 13 N 4.17402 0.801445 -0.708998 0
M  V30 14 H -2.07495 2.98878 -1.46124 0
M  V30 15 H -2.04309 2.82969 0.273126 0
M  V30 16 H -2.69025 0.890708 -1.81782 0
M  V30 17 H -3.26622 0.845993 -0.0967585 0
M  V30 18 H -0.50391 0.113787 -1.1559 0
M  V30 19 H -2.68863 -1.3084 0.342719 0
M  V30 20 H -1.97979 -1.80994 -1.2602 0
M  V30 21 H 0.143379 -2.30496 -0.285433 0
M  V30 22 H -0.943423 -2.76614 1.11774 0
M  V30 23 H -0.245912 -1.00281 2.34014 0
M  V30 24 H 4.20762 1.80906 -0.9602 0
M  V30 25 H 4.89237 0.154767 -1.09075 0
M  V30 END ATOM
M  V30 BEGIN BOND
M  V30 1 1 1 2
M  V30 2 1 2 3
M  V30 3 1 3 4
M  V30 4 1 4 5
M  V30 5 1 5 6
M  V30 6 1 6 7
M  V30 7 1 6 8
M  V30 8 1 8 9
M  V30 9 1 9 10
M  V30 10 2 10 11
M  V30 11 1 11 12
M  V30 12 1 11 13
M  V30 13 1 7 3
M  V30 14 2 12 8
M  V30 15 1 1 14
M  V30 16 1 1 15
M  V30 17 1 2 16
M  V30 18 1 2 17
M  V30 19 1 3 18
M  V30 20 1 4 19
M  V30 21 1 4 20
M  V30 22 1 5 21
M  V30 23 1 5 22
M  V30 24 1 6 23
M  V30 25 1 13 24
M  V30 26 1 13 25
M  V30 END BOND
M  V30 END CTAB
M  END
