
     RDKit          3D

  0  0  0  0  0  0  0  0  0  0999 V3000
M  V30 BEGIN CTAB
M  V30 COUNTS 34 35 0 0 0
M  V30 BEGIN ATOM
M  V30 1 N 7.39295 0.349401 0.133026 0
M  V30 2 C 5.98001 0.189289 0.000800603 0
M  V30 3 C 5.09935 0.941178 0.738567 0
M  V30 4 C 3.70747 0.781158 0.606094 0
M  V30 5 C 3.16509 -0.130313 -0.263245 0
M  V30 6 C 4.08283 -0.881445 -1.00086 0
M  V30 7 C 5.44667 -0.727142 -0.873453 0
M  V30 8 Cl 3.4404 -2.06287 -2.12863 0
M  V30 9 N 1.78369 -0.363111 -0.466022 0
M  V30 10 C 0.692503 0.255987 0.147212 0
M  V30 11 O 0.822207 1.14365 1.0002 0
M  V30 12 C -0.666021 -0.137537 -0.210772 0
M  V30 13 O -0.789383 -1.04472 -1.08264 0
M  V30 14 N -1.75272 0.491824 0.412253 0
M  V30 15 C -3.1234 0.277523 0.227079 0
M  V30 16 C -3.7061 -0.612855 -0.620723 0
M  V30 17 C -5.09589 -0.72873 -0.711004 0
M  V30 18 C -5.93406 0.0519009 0.052888 0
M  V30 19 C -5.36524 0.944145 0.902699 0
M  V30 20 C -4.00909 1.05369 0.987406 0
M  V30 21 Cl -6.44559 1.94579 1.88293 0
M  V30 22 N -7.33117 -0.0958746 -0.0679928 0
M  V30 23 H 7.84671 1.27915 0.278834 0
M  V30 24 H 8.05632 -0.469147 0.0899425 0
M  V30 25 H 5.49523 1.67029 1.43456 0
M  V30 26 H 3.06591 1.39267 1.20496 0
M  V30 27 H 6.13538 -1.33533 -1.46989 0
M  V30 28 H 1.49459 -1.11848 -1.18907 0
M  V30 29 H -1.47404 1.23925 1.12787 0
M  V30 30 H -3.10725 -1.23864 -1.23196 0
M  V30 31 H -5.55055 -1.43958 -1.38802 0
M  V30 32 H -3.63937 1.8046 1.70428 0
M  V30 33 H -7.7759 -1.03664 -0.0456966 0
M  V30 34 H -7.94152 0.733996 -0.181631 0
M  V30 END ATOM
M  V30 BEGIN BOND
M  V30 1 1 1 2
M  V30 2 2 2 3
M  V30 3 1 3 4
M  V30 4 2 4 5
M  V30 5 1 5 6
M  V30 6 2 6 7
M  V30 7 1 6 8
M  V30 8 1 5 9
M  V30 9 1 9 10
M  V30 10 2 10 11
M  V30 11 1 10 12
M  V30 12 2 12 13
M  V30 13 1 12 14
M  V30 14 1 14 15
M  V30 15 2 15 16
M  V30 16 1 16 17
M  V30 17 2 17 18
M  V30 18 1 18 19
M  V30 19 2 19 20
M  V30 20 1 19 21
M  V30 21 1 18 22
M  V30 22 1 7 2
M  V30 23 1 20 15
M  V30 24 1 1 23
M  V30 25 1 1 24
M  V30 26 1 3 25
M  V30 27 1 4 26
M  V30 28 1 7 27
M  V30 29 1 9 28
M  V30 30 1 14 29
M  V30 31 1 16 30
M  V30 32 1 17 31
M  V30 33 1 20 32
M  V30 34 1 22 33
M  V30 35 1 22 34
M  V30 END BOND
M  V30 END CTAB
M  END
