
     RDKit          3D

  0  0  0  0  0  0  0  0  0  0999 V3000
M  V30 BEGIN CTAB
M  V30 COUNTS 24 24 0 0 0
M  V30 BEGIN ATOM
M  V30 1 C 3.81356 -0.355307 -0.124327 0
M  V30 2 C 2.37895 -0.171715 -0.569092 0
M  V30 3 S 1.43592 0.53309 0.760948 0
M  V30 4 O 1.57648 -0.317131 1.99048 0
M  V30 5 O 2.02869 1.88787 1.06179 0
M  V30 6 C -0.232515 0.769142 0.306702 0
M  V30 7 N -0.677087 1.90986 -0.257578 0
M  V30 8 C -1.95563 2.11846 -0.617178 0
M  V30 9 C -2.84742 1.09125 -0.385771 0
M  V30 10 C -2.45848 -0.110467 0.191682 0
M  V30 11 C -1.13061 -0.252797 0.534592 0
M  V30 12 N -0.668771 -1.45861 1.12938 0
M  V30 13 N -3.39678 -1.16188 0.423038 0
M  V30 14 H 4.31378 -1.16822 -0.684457 0
M  V30 15 H 4.3749 0.596205 -0.237705 0
M  V30 16 H 3.79506 -0.64472 0.950228 0
M  V30 17 H 2.37569 0.468801 -1.46411 0
M  V30 18 H 1.96433 -1.194 -0.768175 0
M  V30 19 H -2.26721 3.05941 -1.0708 0
M  V30 20 H -3.87981 1.25735 -0.675173 0
M  V30 21 H -0.390611 -2.22357 0.471153 0
M  V30 22 H -0.617167 -1.55711 2.1474 0
M  V30 23 H -4.38407 -0.903525 0.64185 0
M  V30 24 H -3.15121 -2.17239 0.385663 0
M  V30 END ATOM
M  V30 BEGIN BOND
M  V30 1 1 1 2
M  V30 2 1 2 3
M  V30 3 2 3 4
M  V30 4 2 3 5
M  V30 5 1 3 6
M  V30 6 2 6 7
M  V30 7 1 7 8
M  V30 8 2 8 9
M  V30 9 1 9 10
M  V30 10 2 10 11
M  V30 11 1 11 12
M  V30 12 1 10 13
M  V30 13 1 11 6
M  V30 14 1 1 14
M  V30 15 1 1 15
M  V30 16 1 1 16
M  V30 17 1 2 17
M  V30 18 1 2 18
M  V30 19 1 8 19
M  V30 20 1 9 20
M  V30 21 1 12 21
M  V30 22 1 12 22
M  V30 23 1 13 23
M  V30 24 1 13 24
M  V30 END BOND
M  V30 END CTAB
M  END
