
     RDKit          3D

  0  0  0  0  0  0  0  0  0  0999 V3000
M  V30 BEGIN CTAB
M  V30 COUNTS 124 127 0 0 0
M  V30 BEGIN ATOM
M  V30 1 C -6.4447 4.57458 -0.067829 0
M  V30 2 C -6.51083 3.84221 -1.35565 0
M  V30 3 C -5.79072 4.60559 -2.43587 0
M  V30 4 C -6.12553 2.42012 -1.36584 0 CFG=2
M  V30 5 N -6.89982 1.52317 -0.562591 0
M  V30 6 C -7.74703 0.476552 -0.98855 0
M  V30 7 O -7.86191 0.257537 -2.21223 0
M  V30 8 C -8.50587 -0.362067 -0.0509518 0 CFG=1
M  V30 9 N -9.42542 -1.25811 -0.706575 0
M  V30 10 C -7.75073 -1.05014 1.0146 0
M  V30 11 C -6.70906 -2.02941 0.647421 0
M  V30 12 C -7.1645 -3.24416 -0.100036 0
M  V30 13 N -6.0537 -4.12753 -0.381702 0
M  V30 14 C -6.28343 -5.33815 -1.04782 0
M  V30 15 N -5.16578 -6.09377 -1.51019 0
M  V30 16 N -7.46431 -5.7862 -1.24671 0
M  V30 17 C -4.69005 2.12599 -1.18262 0
M  V30 18 O -4.31266 0.884841 -1.28307 0
M  V30 19 N -3.66979 3.04517 -0.89638 0
M  V30 20 C -2.31681 2.53749 -0.767617 0 CFG=1
M  V30 21 C -1.26464 3.5825 -0.822107 0
M  V30 22 C -1.15802 4.39598 -2.0303 0
M  V30 23 C -0.315978 3.99614 -3.07758 0
M  V30 24 C -0.219099 4.81361 -4.17474 0
M  V30 25 C -0.902453 6.01337 -4.31598 0
M  V30 26 O -0.7503 6.79222 -5.46733 0
M  V30 27 C -1.72577 6.39744 -3.2885 0
M  V30 28 C -1.84903 5.59707 -2.16419 0
M  V30 29 C -2.17097 1.79119 0.551891 0
M  V30 30 O -2.87733 2.10226 1.51407 0
M  V30 31 N -1.22187 0.767552 0.614951 0
M  V30 32 C -0.931314 -0.021123 1.81471 0 CFG=1
M  V30 33 C -1.74177 -1.31596 1.76 0
M  V30 34 C 0.511115 -0.322024 1.76156 0
M  V30 35 O 1.19024 0.117793 0.769656 0
M  V30 36 N 1.16587 -1.07229 2.75493 0
M  V30 37 C 2.63961 -1.325 2.56472 0 CFG=1
M  V30 38 C 3.24002 -0.710507 3.83437 0
M  V30 39 C 2.90856 0.735486 3.94976 0
M  V30 40 C 1.81662 1.24154 4.59684 0
M  V30 41 N 1.87702 2.57644 4.47182 0
M  V30 42 C 2.96809 2.92146 3.7686 0
M  V30 43 N 3.59397 1.7666 3.45287 0
M  V30 44 C 2.80776 -2.77235 2.64598 0
M  V30 45 O 1.77055 -3.37818 3.16948 0
M  V30 46 N 3.83846 -3.6314 2.2791 0
M  V30 47 C 3.71706 -5.13969 2.60657 0
M  V30 48 C 3.93931 -5.71794 1.2488 0
M  V30 49 C 4.68742 -4.648 0.439785 0
M  V30 50 C 5.07428 -3.67233 1.60031 0 CFG=1
M  V30 51 C 5.76156 -2.52182 1.08981 0
M  V30 52 O 5.57017 -1.31312 1.26299 0
M  V30 53 N 6.88886 -2.79774 0.202048 0
M  V30 54 C 7.6368 -1.68997 -0.372154 0 CFG=1
M  V30 55 C 9.03841 -1.80265 0.168888 0
M  V30 56 C 9.9094 -0.744825 -0.337068 0
M  V30 57 C 9.99038 0.504696 0.213479 0
M  V30 58 C 10.8573 1.44135 -0.278773 0
M  V30 59 C 11.6805 1.17618 -1.33614 0
M  V30 60 C 11.6252 -0.0669827 -1.9133 0
M  V30 61 C 10.7392 -1.02157 -1.41059 0
M  V30 62 C 7.52507 -1.75885 -1.83054 0
M  V30 63 O 8.03863 -0.864325 -2.73956 0
M  V30 64 O 6.88583 -2.74064 -2.33399 0
M  V30 65 H -5.69879 5.41619 -0.0517274 0
M  V30 66 H -6.26478 3.97812 0.831516 0
M  V30 67 H -7.4372 5.08907 0.104558 0
M  V30 68 H -7.61224 3.87382 -1.71556 0
M  V30 69 H -5.31841 5.50447 -1.97799 0
M  V30 70 H -4.96452 4.00164 -2.87694 0
M  V30 71 H -6.44978 4.88715 -3.29322 0
M  V30 72 H -6.33245 2.06748 -2.44534 0
M  V30 73 H -6.81764 1.66712 0.484021 0
M  V30 74 H -9.18187 0.387217 0.500572 0
M  V30 75 H -9.47611 -1.08593 -1.74058 0
M  V30 76 H -10.4004 -1.19565 -0.291828 0
M  V30 77 H -8.50851 -1.5607 1.67221 0
M  V30 78 H -7.27732 -0.284646 1.67938 0
M  V30 79 H -5.84535 -1.55979 0.125072 0
M  V30 80 H -6.27882 -2.42055 1.62229 0
M  V30 81 H -7.62012 -2.97751 -1.06917 0
M  V30 82 H -7.86645 -3.85419 0.530073 0
M  V30 83 H -5.10701 -3.85309 -0.0846045 0
M  V30 84 H -4.42857 -5.71316 -2.12907 0
M  V30 85 H -5.05392 -7.11543 -1.21393 0
M  V30 86 H -8.28901 -5.24313 -0.910485 0
M  V30 87 H -3.85933 4.0419 -0.769545 0
M  V30 88 H -2.16559 1.76744 -1.54199 0
M  V30 89 H -1.51098 4.30967 0.0264254 0
M  V30 90 H -0.270672 3.17371 -0.500987 0
M  V30 91 H 0.256916 3.05868 -3.0265 0
M  V30 92 H 0.447081 4.50085 -4.98345 0
M  V30 93 H -0.110286 6.41578 -6.17952 0
M  V30 94 H -2.26851 7.33424 -3.37742 0
M  V30 95 H -2.51016 5.93481 -1.3799 0
M  V30 96 H -0.638355 0.496893 -0.242512 0
M  V30 97 H -1.20994 0.520208 2.7152 0
M  V30 98 H -1.15131 -2.08853 2.29774 0
M  V30 99 H -1.84437 -1.59184 0.705046 0
M  V30 100 H -2.67641 -1.18049 2.30172 0
M  V30 101 H 0.769626 -1.47509 3.60776 0
M  V30 102 H 2.96593 -0.820557 1.66661 0
M  V30 103 H 4.35632 -0.782421 3.8258 0
M  V30 104 H 2.9209 -1.28375 4.72438 0
M  V30 105 H 1.03684 0.657906 5.1163 0
M  V30 106 H 3.27411 3.92611 3.50881 0
M  V30 107 H 4.48724 1.7585 2.90032 0
M  V30 108 H 2.76008 -5.32563 3.07284 0
M  V30 109 H 4.54286 -5.28299 3.31803 0
M  V30 110 H 4.67652 -6.55811 1.37293 0
M  V30 111 H 3.01169 -6.02392 0.741043 0
M  V30 112 H 3.94627 -4.15831 -0.205365 0
M  V30 113 H 5.56327 -5.05039 -0.0514331 0
M  V30 114 H 5.79791 -4.33969 2.18809 0
M  V30 115 H 7.11461 -3.77565 0.0140829 0
M  V30 116 H 7.14085 -0.747646 0.0303982 0
M  V30 117 H 9.00347 -1.78421 1.29297 0
M  V30 118 H 9.42074 -2.81069 -0.0865121 0
M  V30 119 H 9.34109 0.727798 1.0551 0
M  V30 120 H 10.8787 2.41575 0.193841 0
M  V30 121 H 12.3612 1.93736 -1.70864 0
M  V30 122 H 12.2835 -0.279527 -2.75864 0
M  V30 123 H 10.6891 -2.00148 -1.86055 0
M  V30 124 H 7.52635 -0.31049 -3.3883 0
M  V30 END ATOM
M  V30 BEGIN BOND
M  V30 1 1 1 2
M  V30 2 1 2 3
M  V30 3 1 2 4
M  V30 4 1 4 5
M  V30 5 1 5 6
M  V30 6 2 6 7
M  V30 7 1 6 8
M  V30 8 1 8 9
M  V30 9 1 8 10
M  V30 10 1 10 11
M  V30 11 1 11 12
M  V30 12 1 12 13
M  V30 13 1 13 14
M  V30 14 1 14 15
M  V30 15 2 14 16 CFG=2
M  V30 16 1 4 17
M  V30 17 2 17 18
M  V30 18 1 17 19
M  V30 19 1 19 20
M  V30 20 1 20 21
M  V30 21 1 21 22
M  V30 22 2 22 23
M  V30 23 1 23 24
M  V30 24 2 24 25
M  V30 25 1 25 26
M  V30 26 1 25 27
M  V30 27 2 27 28
M  V30 28 1 20 29
M  V30 29 2 29 30
M  V30 30 1 29 31
M  V30 31 1 31 32
M  V30 32 1 32 33
M  V30 33 1 32 34
M  V30 34 2 34 35
M  V30 35 1 34 36
M  V30 36 1 36 37
M  V30 37 1 37 38
M  V30 38 1 38 39
M  V30 39 2 39 40
M  V30 40 1 40 41
M  V30 41 2 41 42
M  V30 42 1 42 43
M  V30 43 1 37 44
M  V30 44 2 44 45
M  V30 45 1 44 46
M  V30 46 1 46 47
M  V30 47 1 47 48
M  V30 48 1 48 49
M  V30 49 1 49 50
M  V30 50 1 50 51
M  V30 51 2 51 52
M  V30 52 1 51 53
M  V30 53 1 53 54
M  V30 54 1 54 55
M  V30 55 1 55 56
M  V30 56 2 56 57
M  V30 57 1 57 58
M  V30 58 2 58 59
M  V30 59 1 59 60
M  V30 60 2 60 61
M  V30 61 1 54 62
M  V30 62 1 62 63
M  V30 63 2 62 64
M  V30 64 1 28 22
M  V30 65 1 43 39
M  V30 66 1 50 46
M  V30 67 1 61 56
M  V30 68 1 1 65
M  V30 69 1 1 66
M  V30 70 1 1 67
M  V30 71 1 2 68
M  V30 72 1 3 69
M  V30 73 1 3 70
M  V30 74 1 3 71
M  V30 75 1 4 72 CFG=3
M  V30 76 1 5 73
M  V30 77 1 8 74 CFG=1
M  V30 78 1 9 75
M  V30 79 1 9 76
M  V30 80 1 10 77
M  V30 81 1 10 78
M  V30 82 1 11 79
M  V30 83 1 11 80
M  V30 84 1 12 81
M  V30 85 1 12 82
M  V30 86 1 13 83
M  V30 87 1 15 84
M  V30 88 1 15 85
M  V30 89 1 16 86
M  V30 90 1 19 87
M  V30 91 1 20 88 CFG=3
M  V30 92 1 21 89
M  V30 93 1 21 90
M  V30 94 1 23 91
M  V30 95 1 24 92
M  V30 96 1 26 93
M  V30 97 1 27 94
M  V30 98 1 28 95
M  V30 99 1 31 96
M  V30 100 1 32 97 CFG=1
M  V30 101 1 33 98
M  V30 102 1 33 99
M  V30 103 1 33 100
M  V30 104 1 36 101
M  V30 105 1 37 102 CFG=3
M  V30 106 1 38 103
M  V30 107 1 38 104
M  V30 108 1 40 105
M  V30 109 1 42 106
M  V30 110 1 43 107
M  V30 111 1 47 108
M  V30 112 1 47 109
M  V30 113 1 48 110
M  V30 114 1 48 111
M  V30 115 1 49 112
M  V30 116 1 49 113
M  V30 117 1 50 114 CFG=1
M  V30 118 1 53 115
M  V30 119 1 54 116 CFG=1
M  V30 120 1 55 117
M  V30 121 1 55 118
M  V30 122 1 57 119
M  V30 123 1 58 120
M  V30 124 1 59 121
M  V30 125 1 60 122
M  V30 126 1 61 123
M  V30 127 1 63 124
M  V30 END BOND
M  V30 END CTAB
M  END
