
     RDKit          3D

  0  0  0  0  0  0  0  0  0  0999 V3000
M  V30 BEGIN CTAB
M  V30 COUNTS 47 48 0 0 0
M  V30 BEGIN ATOM
M  V30 1 N 5.23104 2.47332 -1.1719 0
M  V30 2 C 4.14416 2.80934 -0.285024 0
M  V30 3 C 3.12363 1.72339 -0.16732 0
M  V30 4 O 3.66768 0.516134 0.329642 0
M  V30 5 C 2.94715 -0.626405 0.530564 0
M  V30 6 C 1.57807 -0.617595 0.229322 0
M  V30 7 C 0.78916 -1.73037 0.406756 0
M  V30 8 C 1.46435 -2.85663 0.906404 0
M  V30 9 C 2.79559 -2.85995 1.19733 0
M  V30 10 C 3.56885 -1.74283 1.01592 0
M  V30 11 O 4.92671 -1.71173 1.30227 0
M  V30 12 C 5.59152 -2.84241 1.8015 0
M  V30 13 C -0.631712 -1.80747 0.148966 0
M  V30 14 O -1.12707 -3.00591 0.302717 0
M  V30 15 N -1.54372 -0.807666 -0.233758 0
M  V30 16 C -1.36846 0.564555 -0.462411 0
M  V30 17 C -2.71793 1.21484 -0.576958 0
M  V30 18 C -3.66254 0.183366 -0.0282661 0
M  V30 19 C -2.97775 -1.11427 -0.491648 0
M  V30 20 C -5.04134 0.284735 -0.642696 0
M  V30 21 S -5.73895 1.88312 -0.317103 0
M  V30 22 O -5.81349 2.14922 1.15841 0
M  V30 23 O -4.90889 2.97536 -0.937482 0
M  V30 24 N -7.3235 1.96923 -1.03053 0
M  V30 25 H 5.5519 1.47894 -0.973192 0
M  V30 26 H 4.96021 2.55723 -2.17575 0
M  V30 27 H 4.52836 3.12095 0.705324 0
M  V30 28 H 3.63678 3.69832 -0.719852 0
M  V30 29 H 2.36611 2.05458 0.576032 0
M  V30 30 H 2.58911 1.58297 -1.12016 0
M  V30 31 H 1.15278 0.285816 -0.162595 0
M  V30 32 H 0.872939 -3.74924 1.05806 0
M  V30 33 H 3.31193 -3.74576 1.58731 0
M  V30 34 H 5.06947 -3.30376 2.66175 0
M  V30 35 H 6.59722 -2.48196 2.16477 0
M  V30 36 H 5.76903 -3.54124 0.967519 0
M  V30 37 H -0.869409 1.06887 0.444744 0
M  V30 38 H -0.744699 0.796968 -1.37164 0
M  V30 39 H -2.9198 1.34271 -1.66076 0
M  V30 40 H -2.77394 2.17902 -0.0273941 0
M  V30 41 H -3.71285 0.237822 1.05637 0
M  V30 42 H -3.14673 -1.30521 -1.55075 0
M  V30 43 H -3.32001 -1.92306 0.185186 0
M  V30 44 H -4.99105 0.171929 -1.74566 0
M  V30 45 H -5.7368 -0.459491 -0.218399 0
M  V30 46 H -7.95446 1.25173 -0.61465 0
M  V30 47 H -7.20868 1.76168 -2.05097 0
M  V30 END ATOM
M  V30 BEGIN BOND
M  V30 1 1 1 2
M  V30 2 1 2 3
M  V30 3 1 3 4
M  V30 4 1 4 5
M  V30 5 2 5 6
M  V30 6 1 6 7
M  V30 7 2 7 8
M  V30 8 1 8 9
M  V30 9 2 9 10
M  V30 10 1 10 11
M  V30 11 1 11 12
M  V30 12 1 7 13
M  V30 13 2 13 14
M  V30 14 1 13 15
M  V30 15 1 15 16
M  V30 16 1 16 17
M  V30 17 1 17 18
M  V30 18 1 18 19
M  V30 19 1 18 20
M  V30 20 1 20 21
M  V30 21 2 21 22
M  V30 22 2 21 23
M  V30 23 1 21 24
M  V30 24 1 10 5
M  V30 25 1 19 15
M  V30 26 1 1 25
M  V30 27 1 1 26
M  V30 28 1 2 27
M  V30 29 1 2 28
M  V30 30 1 3 29
M  V30 31 1 3 30
M  V30 32 1 6 31
M  V30 33 1 8 32
M  V30 34 1 9 33
M  V30 35 1 12 34
M  V30 36 1 12 35
M  V30 37 1 12 36
M  V30 38 1 16 37
M  V30 39 1 16 38
M  V30 40 1 17 39
M  V30 41 1 17 40
M  V30 42 1 18 41
M  V30 43 1 19 42
M  V30 44 1 19 43
M  V30 45 1 20 44
M  V30 46 1 20 45
M  V30 47 1 24 46
M  V30 48 1 24 47
M  V30 END BOND
M  V30 END CTAB
M  END
