
     RDKit          3D

  0  0  0  0  0  0  0  0  0  0999 V3000
M  V30 BEGIN CTAB
M  V30 COUNTS 23 23 0 0 0
M  V30 BEGIN ATOM
M  V30 1 N -1.10908 -1.12113 -1.66673 0
M  V30 2 C -1.57489 -0.214262 -0.680383 0
M  V30 3 N -2.71813 0.507946 -0.858041 0
M  V30 4 C -3.17886 1.36714 0.0593495 0
M  V30 5 C -2.47307 1.53166 1.23251 0
M  V30 6 C -1.30345 0.826723 1.47346 0
M  V30 7 C -0.872104 -0.0461037 0.493957 0
M  V30 8 C 0.379494 -0.813554 0.703782 0
M  V30 9 C 1.46661 -0.141118 -0.101311 0
M  V30 10 N 2.7408 -0.81975 0.02742 0
M  V30 11 N 3.68823 -0.130747 -0.745034 0
M  V30 12 H -0.886492 -0.844372 -2.64334 0
M  V30 13 H -0.984009 -2.11727 -1.39618 0
M  V30 14 H -4.09472 1.92742 -0.118119 0
M  V30 15 H -2.84779 2.22051 1.95786 0
M  V30 16 H -0.72626 0.935038 2.38343 0
M  V30 17 H 0.312317 -1.85649 0.318325 0
M  V30 18 H 0.66614 -0.861309 1.76788 0
M  V30 19 H 1.55791 0.935993 0.206563 0
M  V30 20 H 1.19887 -0.112023 -1.17287 0
M  V30 21 H 2.66991 -1.8208 -0.235552 0
M  V30 22 H 4.64637 -0.236772 -0.348203 0
M  V30 23 H 3.4422 0.883279 -0.658784 0
M  V30 END ATOM
M  V30 BEGIN BOND
M  V30 1 1 1 2
M  V30 2 2 2 3
M  V30 3 1 3 4
M  V30 4 2 4 5
M  V30 5 1 5 6
M  V30 6 2 6 7
M  V30 7 1 7 8
M  V30 8 1 8 9
M  V30 9 1 9 10
M  V30 10 1 10 11
M  V30 11 1 7 2
M  V30 12 1 1 12
M  V30 13 1 1 13
M  V30 14 1 4 14
M  V30 15 1 5 15
M  V30 16 1 6 16
M  V30 17 1 8 17
M  V30 18 1 8 18
M  V30 19 1 9 19
M  V30 20 1 9 20
M  V30 21 1 10 21
M  V30 22 1 11 22
M  V30 23 1 11 23
M  V30 END BOND
M  V30 END CTAB
M  END
