
     RDKit          3D

  0  0  0  0  0  0  0  0  0  0999 V3000
M  V30 BEGIN CTAB
M  V30 COUNTS 21 21 0 0 0
M  V30 BEGIN ATOM
M  V30 1 N -1.6519 2.6626 -0.319136 0
M  V30 2 C -1.12226 1.36131 -0.22995 0
M  V30 3 C -2.00558 0.298207 -0.0303102 0
M  V30 4 C -1.48589 -0.976946 0.0569732 0
M  V30 5 C -0.129105 -1.1927 -0.0505343 0
M  V30 6 C 0.753476 -0.149671 -0.247945 0
M  V30 7 C 0.243073 1.12819 -0.336412 0
M  V30 8 S 2.46459 -0.484723 -0.376787 0
M  V30 9 O 3.11009 0.572508 -1.23531 0
M  V30 10 O 2.72303 -1.84161 -0.968582 0
M  V30 11 N 3.22642 -0.431494 1.17438 0
M  V30 12 N -2.36572 -2.08594 0.261187 0 CHG=1
M  V30 13 O -3.60907 -1.91797 0.362918 0
M  V30 14 O -1.84589 -3.35535 0.347817 0 CHG=-1
M  V30 15 H -1.70562 3.13185 -1.24485 0
M  V30 16 H -1.9817 3.1343 0.545773 0
M  V30 17 H -3.07855 0.483079 0.0531627 0
M  V30 18 H 0.233603 -2.22997 0.0262639 0
M  V30 19 H 0.911726 1.96769 -0.491284 0
M  V30 20 H 4.24739 -0.541425 1.03505 0
M  V30 21 H 3.06788 0.46808 1.66758 0
M  V30 END ATOM
M  V30 BEGIN BOND
M  V30 1 1 1 2
M  V30 2 2 2 3
M  V30 3 1 3 4
M  V30 4 2 4 5
M  V30 5 1 5 6
M  V30 6 2 6 7
M  V30 7 1 6 8
M  V30 8 2 8 9
M  V30 9 2 8 10
M  V30 10 1 8 11
M  V30 11 1 4 12
M  V30 12 2 12 13
M  V30 13 1 12 14
M  V30 14 1 7 2
M  V30 15 1 1 15
M  V30 16 1 1 16
M  V30 17 1 3 17
M  V30 18 1 5 18
M  V30 19 1 7 19
M  V30 20 1 11 20
M  V30 21 1 11 21
M  V30 END BOND
M  V30 END CTAB
M  END
