
     RDKit          3D

  0  0  0  0  0  0  0  0  0  0999 V3000
M  V30 BEGIN CTAB
M  V30 COUNTS 28 28 0 0 0
M  V30 BEGIN ATOM
M  V30 1 N 3.78169 -0.0190619 0.990039 0
M  V30 2 C 2.39477 -0.370658 1.30961 0
M  V30 3 C 1.5793 0.0162174 0.0992727 0
M  V30 4 C 0.0969919 -0.273132 0.254682 0 CFG=2
M  V30 5 C -0.17333 -1.70477 0.463463 0
M  V30 6 O -0.854326 -2.38921 -0.495446 0
M  V30 7 C -1.68564 -1.68255 -1.31171 0
M  V30 8 C -2.00573 -0.335012 -0.661611 0
M  V30 9 N -0.703243 0.35783 -0.739212 0
M  V30 10 S -1.05381 2.00378 -0.442978 0
M  V30 11 O 0.179114 2.80604 -0.256555 0
M  V30 12 O -1.9254 2.60608 -1.4852 0
M  V30 13 N -1.95486 2.07253 1.05439 0
M  V30 14 H 3.95125 -0.157453 -0.0140133 0
M  V30 15 H 3.93896 0.971542 1.27376 0
M  V30 16 H 2.34009 -1.44457 1.52747 0
M  V30 17 H 2.08264 0.188622 2.21271 0
M  V30 18 H 1.81434 1.00665 -0.280244 0
M  V30 19 H 1.94414 -0.688164 -0.714352 0
M  V30 20 H -0.173844 0.264236 1.22222 0
M  V30 21 H -0.66952 -1.90315 1.43827 0
M  V30 22 H 0.818502 -2.24562 0.548607 0
M  V30 23 H -1.1407 -1.44164 -2.24832 0
M  V30 24 H -2.61098 -2.20448 -1.59828 0
M  V30 25 H -2.78303 0.214464 -1.19826 0
M  V30 26 H -2.26782 -0.535601 0.399748 0
M  V30 27 H -1.95438 3.04848 1.43387 0
M  V30 28 H -2.96516 1.83858 0.880992 0
M  V30 END ATOM
M  V30 BEGIN BOND
M  V30 1 1 1 2
M  V30 2 1 2 3
M  V30 3 1 3 4
M  V30 4 1 4 5
M  V30 5 1 5 6
M  V30 6 1 6 7
M  V30 7 1 7 8
M  V30 8 1 8 9
M  V30 9 1 9 10
M  V30 10 2 10 11
M  V30 11 2 10 12
M  V30 12 1 10 13
M  V30 13 1 9 4
M  V30 14 1 1 14
M  V30 15 1 1 15
M  V30 16 1 2 16
M  V30 17 1 2 17
M  V30 18 1 3 18
M  V30 19 1 3 19
M  V30 20 1 4 20 CFG=1
M  V30 21 1 5 21
M  V30 22 1 5 22
M  V30 23 1 7 23
M  V30 24 1 7 24
M  V30 25 1 8 25
M  V30 26 1 8 26
M  V30 27 1 13 27
M  V30 28 1 13 28
M  V30 END BOND
M  V30 END CTAB
M  END
