
     RDKit          3D

  0  0  0  0  0  0  0  0  0  0999 V3000
M  V30 BEGIN CTAB
M  V30 COUNTS 45 47 0 0 0
M  V30 BEGIN ATOM
M  V30 1 C -3.28579 -1.02513 1.9733 0
M  V30 2 C -2.63017 0.28563 1.6965 0
M  V30 3 C -3.16186 0.889459 0.473807 0
M  V30 4 C -2.76791 0.447797 -0.758274 0
M  V30 5 C -3.31759 1.06686 -1.88827 0
M  V30 6 N -2.90403 0.603715 -3.16383 0
M  V30 7 N -4.20283 2.06192 -1.70134 0
M  V30 8 C -4.59927 2.5063 -0.491355 0
M  V30 9 N -5.5496 3.57186 -0.362564 0
M  V30 10 N -4.06776 1.9077 0.584013 0
M  V30 11 C -1.80651 -0.630761 -0.866689 0
M  V30 12 C -0.45525 -0.324935 -0.668521 0
M  V30 13 C 0.540733 -1.27431 -0.759343 0
M  V30 14 N 1.87699 -0.92326 -0.553772 0
M  V30 15 N 2.41898 -0.418143 0.445915 0
M  V30 16 N 3.8182 -0.187212 0.316385 0
M  V30 17 C 4.34331 0.799268 -0.577648 0
M  V30 18 C 5.79515 1.05067 -0.234371 0
M  V30 19 O 5.88104 1.109 1.17374 0
M  V30 20 C 5.81533 -0.183569 1.66695 0
M  V30 21 C 4.67998 -0.994494 1.12183 0
M  V30 22 C 0.149361 -2.56826 -1.06014 0
M  V30 23 Cl 1.41738 -3.76793 -1.17274 0
M  V30 24 C -1.19289 -2.88066 -1.25901 0
M  V30 25 C -2.17708 -1.9234 -1.16481 0
M  V30 26 H -2.57166 -1.87367 1.94258 0
M  V30 27 H -3.7707 -1.00311 2.98256 0
M  V30 28 H -4.07055 -1.20617 1.21777 0
M  V30 29 H -1.51729 0.226681 1.70973 0
M  V30 30 H -2.86412 0.97473 2.56163 0
M  V30 31 H -3.12366 -0.38255 -3.42037 0
M  V30 32 H -2.40123 1.28425 -3.7722 0
M  V30 33 H -6.56202 3.34684 -0.297329 0
M  V30 34 H -5.26958 4.57261 -0.331657 0
M  V30 35 H -0.191665 0.697431 -0.435438 0
M  V30 36 H 4.31813 0.464256 -1.65551 0
M  V30 37 H 3.74607 1.74049 -0.557922 0
M  V30 38 H 6.41457 0.211585 -0.631858 0
M  V30 39 H 6.19372 1.97325 -0.666322 0
M  V30 40 H 5.71616 -0.111687 2.77583 0
M  V30 41 H 6.78396 -0.682554 1.45654 0
M  V30 42 H 4.13605 -1.49544 1.95535 0
M  V30 43 H 5.05839 -1.83571 0.472823 0
M  V30 44 H -1.42839 -3.91795 -1.49198 0
M  V30 45 H -3.21412 -2.1814 -1.3209 0
M  V30 END ATOM
M  V30 BEGIN BOND
M  V30 1 1 1 2
M  V30 2 1 2 3
M  V30 3 2 3 4
M  V30 4 1 4 5
M  V30 5 1 5 6
M  V30 6 2 5 7
M  V30 7 1 7 8
M  V30 8 1 8 9
M  V30 9 2 8 10
M  V30 10 1 4 11
M  V30 11 2 11 12
M  V30 12 1 12 13
M  V30 13 1 13 14
M  V30 14 2 14 15
M  V30 15 1 15 16
M  V30 16 1 16 17
M  V30 17 1 17 18
M  V30 18 1 18 19
M  V30 19 1 19 20
M  V30 20 1 20 21
M  V30 21 2 13 22
M  V30 22 1 22 23
M  V30 23 1 22 24
M  V30 24 2 24 25
M  V30 25 1 10 3
M  V30 26 1 25 11
M  V30 27 1 21 16
M  V30 28 1 1 26
M  V30 29 1 1 27
M  V30 30 1 1 28
M  V30 31 1 2 29
M  V30 32 1 2 30
M  V30 33 1 6 31
M  V30 34 1 6 32
M  V30 35 1 9 33
M  V30 36 1 9 34
M  V30 37 1 12 35
M  V30 38 1 17 36
M  V30 39 1 17 37
M  V30 40 1 18 38
M  V30 41 1 18 39
M  V30 42 1 20 40
M  V30 43 1 20 41
M  V30 44 1 21 42
M  V30 45 1 21 43
M  V30 46 1 24 44
M  V30 47 1 25 45
M  V30 END BOND
M  V30 END CTAB
M  END
