
     RDKit          3D

  0  0  0  0  0  0  0  0  0  0999 V3000
M  V30 BEGIN CTAB
M  V30 COUNTS 22 22 0 0 0
M  V30 BEGIN ATOM
M  V30 1 C -1.30386 2.19287 0.251647 0
M  V30 2 C -0.174969 1.20976 0.0893034 0
M  V30 3 C 1.11592 1.6938 0.024894 0
M  V30 4 C 2.18976 0.849285 -0.122823 0
M  V30 5 Br 3.98734 1.5415 -0.211124 0
M  V30 6 C 1.95137 -0.506136 -0.206492 0
M  V30 7 C 0.661985 -0.999888 -0.142927 0
M  V30 8 C -0.419915 -0.134423 0.00700424 0
M  V30 9 S -2.07042 -0.698884 0.0936945 0
M  V30 10 O -2.93724 -0.103608 -0.970834 0
M  V30 11 O -2.62743 -0.297575 1.44134 0
M  V30 12 N -2.1418 -2.4238 -0.0315511 0
M  V30 13 N 3.03996 -1.38757 -0.358158 0
M  V30 14 H -1.83339 2.01864 1.18708 0
M  V30 15 H -0.90574 3.21332 0.263809 0
M  V30 16 H -1.96082 2.13465 -0.657966 0
M  V30 17 H 1.26256 2.77181 0.0948 0
M  V30 18 H 0.428522 -2.0482 -0.203792 0
M  V30 19 H -2.30641 -2.86574 0.890201 0
M  V30 20 H -2.90759 -2.71958 -0.669231 0
M  V30 21 H 3.1955 -1.99891 -1.19242 0
M  V30 22 H 3.75667 -1.44132 0.423544 0
M  V30 END ATOM
M  V30 BEGIN BOND
M  V30 1 1 1 2
M  V30 2 2 2 3
M  V30 3 1 3 4
M  V30 4 1 4 5
M  V30 5 2 4 6
M  V30 6 1 6 7
M  V30 7 2 7 8
M  V30 8 1 8 9
M  V30 9 2 9 10
M  V30 10 2 9 11
M  V30 11 1 9 12
M  V30 12 1 6 13
M  V30 13 1 8 2
M  V30 14 1 1 14
M  V30 15 1 1 15
M  V30 16 1 1 16
M  V30 17 1 3 17
M  V30 18 1 7 18
M  V30 19 1 12 19
M  V30 20 1 12 20
M  V30 21 1 13 21
M  V30 22 1 13 22
M  V30 END BOND
M  V30 END CTAB
M  END
