
     RDKit          3D

  0  0  0  0  0  0  0  0  0  0999 V3000
M  V30 BEGIN CTAB
M  V30 COUNTS 37 38 0 0 0
M  V30 BEGIN ATOM
M  V30 1 N 3.03573 -1.21941 0.991127 0
M  V30 2 C 2.65023 -1.20021 -0.404876 0
M  V30 3 C 1.50394 -0.244482 -0.69376 0
M  V30 4 N 0.333346 -0.543968 0.0386975 0
M  V30 5 C -0.272118 -1.78615 -0.363955 0
M  V30 6 C -1.14526 -2.30278 0.743746 0
M  V30 7 C -2.60001 -2.02057 0.322915 0
M  V30 8 C -2.8089 -0.55554 0.605641 0
M  V30 9 C -1.92914 0.258852 -0.315591 0
M  V30 10 C -0.574619 0.509355 0.35267 0 CFG=2
M  V30 11 C -0.0709463 1.76826 -0.233833 0
M  V30 12 C -0.143838 2.10521 -1.56336 0
M  V30 13 N 0.522347 3.24491 -1.77242 0
M  V30 14 N 1.01194 3.61957 -0.590289 0
M  V30 15 C 0.677184 2.76584 0.354515 0
M  V30 16 N 0.948497 2.82688 1.77314 0
M  V30 17 H 3.52544 -2.13703 1.16612 0
M  V30 18 H 3.54101 -0.380338 1.24448 0
M  V30 19 H 3.54996 -0.87579 -1.01163 0
M  V30 20 H 2.46103 -2.23634 -0.717104 0
M  V30 21 H 1.87778 0.752872 -0.45303 0
M  V30 22 H 1.30682 -0.297868 -1.78589 0
M  V30 23 H 0.532601 -2.54182 -0.53703 0
M  V30 24 H -0.762421 -1.67813 -1.33923 0
M  V30 25 H -0.935158 -1.81984 1.71595 0
M  V30 26 H -1.00602 -3.38802 0.918285 0
M  V30 27 H -3.2874 -2.67658 0.895652 0
M  V30 28 H -2.69793 -2.17467 -0.760412 0
M  V30 29 H -2.43845 -0.347394 1.65339 0
M  V30 30 H -3.85714 -0.260045 0.511442 0
M  V30 31 H -1.86833 -0.156993 -1.29467 0
M  V30 32 H -2.44246 1.27291 -0.353455 0
M  V30 33 H -0.739614 0.678932 1.41016 0
M  V30 34 H -0.661583 1.52596 -2.33016 0
M  V30 35 H 0.65932 3.76974 -2.69479 0
M  V30 36 H 1.5702 3.60299 2.09012 0
M  V30 37 H 0.53399 2.14169 2.42745 0
M  V30 END ATOM
M  V30 BEGIN BOND
M  V30 1 1 1 2
M  V30 2 1 2 3
M  V30 3 1 3 4
M  V30 4 1 4 5
M  V30 5 1 5 6
M  V30 6 1 6 7
M  V30 7 1 7 8
M  V30 8 1 8 9
M  V30 9 1 9 10
M  V30 10 1 10 11
M  V30 11 2 11 12
M  V30 12 1 12 13
M  V30 13 1 13 14
M  V30 14 2 14 15
M  V30 15 1 15 16
M  V30 16 1 10 4
M  V30 17 1 15 11
M  V30 18 1 1 17
M  V30 19 1 1 18
M  V30 20 1 2 19
M  V30 21 1 2 20
M  V30 22 1 3 21
M  V30 23 1 3 22
M  V30 24 1 5 23
M  V30 25 1 5 24
M  V30 26 1 6 25
M  V30 27 1 6 26
M  V30 28 1 7 27
M  V30 29 1 7 28
M  V30 30 1 8 29
M  V30 31 1 8 30
M  V30 32 1 9 31
M  V30 33 1 9 32
M  V30 34 1 10 33 CFG=1
M  V30 35 1 12 34
M  V30 36 1 13 35
M  V30 37 1 16 36
M  V30 38 1 16 37
M  V30 END BOND
M  V30 END CTAB
M  END
