
     RDKit          3D

  0  0  0  0  0  0  0  0  0  0999 V3000
M  V30 BEGIN CTAB
M  V30 COUNTS 40 42 0 0 0
M  V30 BEGIN ATOM
M  V30 1 N -7.49443 -0.245737 0.112232 0
M  V30 2 C -6.50206 0.491173 -0.632778 0
M  V30 3 N -6.94133 1.30417 -1.475 0
M  V30 4 O -6.44075 2.15788 -2.34668 0
M  V30 5 C -5.09967 0.251665 -0.367797 0
M  V30 6 C -4.77572 -0.690115 0.605286 0
M  V30 7 C -3.46995 -0.964073 0.904444 0
M  V30 8 C -2.40931 -0.33361 0.270003 0
M  V30 9 C -2.73806 0.589502 -0.683941 0
M  V30 10 C -4.06369 0.88198 -1.00242 0
M  V30 11 C -1.02801 -0.647128 0.610847 0
M  V30 12 C -0.653053 -1.56924 1.56443 0
M  V30 13 C 0.705518 -1.56945 1.58266 0
M  V30 14 C 1.13966 -0.643155 0.6355 0
M  V30 15 O 0.0609089 -0.124988 0.0881447 0
M  V30 16 C 2.53338 -0.348903 0.351269 0
M  V30 17 C 3.54329 -0.990898 1.025 0
M  V30 18 C 4.8776 -0.736586 0.781031 0
M  V30 19 C 5.22623 0.205414 -0.183359 0
M  V30 20 C 4.19908 0.833379 -0.842888 0
M  V30 21 N 2.89163 0.552294 -0.571019 0
M  V30 22 C 6.63953 0.457163 -0.423714 0
M  V30 23 N 7.56712 -0.328598 0.396603 0
M  V30 24 N 7.13098 1.27377 -1.25716 0
M  V30 25 O 6.59445 2.12052 -2.13513 0
M  V30 26 H -7.43053 -1.27683 0.156325 0
M  V30 27 H -8.27094 0.225078 0.605784 0
M  V30 28 H -6.56997 3.15225 -2.41597 0
M  V30 29 H -5.57537 -1.19044 1.10932 0
M  V30 30 H -3.22315 -1.6963 1.66094 0
M  V30 31 H -1.92806 1.09857 -1.19684 0
M  V30 32 H -4.24325 1.61894 -1.76288 0
M  V30 33 H -1.29762 -2.17633 2.18041 0
M  V30 34 H 1.30125 -2.19558 2.23467 0
M  V30 35 H 3.26445 -1.72285 1.77425 0
M  V30 36 H 5.64486 -1.26238 1.33203 0
M  V30 37 H 4.42436 1.56731 -1.59488 0
M  V30 38 H 8.21068 -0.936677 -0.139868 0
M  V30 39 H 7.57117 -0.27429 1.41489 0
M  V30 40 H 6.62875 3.14309 -2.08481 0
M  V30 END ATOM
M  V30 BEGIN BOND
M  V30 1 1 1 2
M  V30 2 2 2 3 CFG=2
M  V30 3 1 3 4
M  V30 4 1 2 5
M  V30 5 2 5 6
M  V30 6 1 6 7
M  V30 7 2 7 8
M  V30 8 1 8 9
M  V30 9 2 9 10
M  V30 10 1 8 11
M  V30 11 2 11 12
M  V30 12 1 12 13
M  V30 13 2 13 14
M  V30 14 1 14 15
M  V30 15 1 14 16
M  V30 16 2 16 17
M  V30 17 1 17 18
M  V30 18 2 18 19
M  V30 19 1 19 20
M  V30 20 2 20 21
M  V30 21 1 19 22
M  V30 22 1 22 23
M  V30 23 2 22 24 CFG=2
M  V30 24 1 24 25
M  V30 25 1 10 5
M  V30 26 1 15 11
M  V30 27 1 21 16
M  V30 28 1 1 26
M  V30 29 1 1 27
M  V30 30 1 4 28
M  V30 31 1 6 29
M  V30 32 1 7 30
M  V30 33 1 9 31
M  V30 34 1 10 32
M  V30 35 1 12 33
M  V30 36 1 13 34
M  V30 37 1 17 35
M  V30 38 1 18 36
M  V30 39 1 20 37
M  V30 40 1 23 38
M  V30 41 1 23 39
M  V30 42 1 25 40
M  V30 END BOND
M  V30 END CTAB
M  END
