
     RDKit          3D

  0  0  0  0  0  0  0  0  0  0999 V3000
M  V30 BEGIN CTAB
M  V30 COUNTS 37 38 0 0 0
M  V30 BEGIN ATOM
M  V30 1 N -5.03993 -0.172094 -0.0291326 0
M  V30 2 C -4.07184 0.849104 -0.129923 0
M  V30 3 C -2.72924 0.405273 -0.577021 0
M  V30 4 N -2.08977 -0.553817 0.247132 0
M  V30 5 C -1.67729 -0.132403 1.52865 0
M  V30 6 C -0.472146 -0.819591 2.04829 0
M  V30 7 O 0.568673 -0.959567 1.17437 0
M  V30 8 C 0.580745 -0.0256258 0.14724 0 CFG=2
M  V30 9 C -0.126726 -0.672119 -1.05292 0
M  V30 10 C -1.26104 -1.49064 -0.421464 0
M  V30 11 C 1.98505 0.21138 -0.279103 0
M  V30 12 C 2.31405 0.309091 -1.60944 0
M  V30 13 C 3.60702 0.521961 -2.04711 0
M  V30 14 C 4.59664 0.639144 -1.10519 0
M  V30 15 C 4.27853 0.542656 0.25545 0
M  V30 16 N 2.99659 0.334803 0.598673 0
M  V30 17 N 5.32064 0.665932 1.20846 0
M  V30 18 H -4.77869 -1.10656 -0.066475 0
M  V30 19 H -5.74891 0.053961 0.631348 0
M  V30 20 H -3.98408 1.46622 0.787262 0
M  V30 21 H -4.45687 1.55368 -0.925569 0
M  V30 22 H -2.07049 1.29846 -0.655422 0
M  V30 23 H -2.80187 -0.0065608 -1.62043 0
M  V30 24 H -1.56324 0.978633 1.57826 0
M  V30 25 H -2.51699 -0.34759 2.25014 0
M  V30 26 H -0.0946865 -0.204933 2.91855 0
M  V30 27 H -0.729935 -1.80668 2.45887 0
M  V30 28 H 0.128114 0.932916 0.389452 0
M  V30 29 H 0.523723 -1.34159 -1.6105 0
M  V30 30 H -0.561768 0.117533 -1.70342 0
M  V30 31 H -1.78771 -2.09987 -1.15861 0
M  V30 32 H -0.78472 -2.17658 0.29987 0
M  V30 33 H 1.56652 0.22234 -2.38929 0
M  V30 34 H 3.83796 0.59618 -3.11938 0
M  V30 35 H 5.64255 0.80843 -1.37025 0
M  V30 36 H 5.55881 1.58682 1.61024 0
M  V30 37 H 5.84233 -0.178298 1.49888 0
M  V30 END ATOM
M  V30 BEGIN BOND
M  V30 1 1 1 2
M  V30 2 1 2 3
M  V30 3 1 3 4
M  V30 4 1 4 5
M  V30 5 1 5 6
M  V30 6 1 6 7
M  V30 7 1 7 8
M  V30 8 1 8 9
M  V30 9 1 9 10
M  V30 10 1 8 11
M  V30 11 2 11 12
M  V30 12 1 12 13
M  V30 13 2 13 14
M  V30 14 1 14 15
M  V30 15 2 15 16
M  V30 16 1 15 17
M  V30 17 1 10 4
M  V30 18 1 16 11
M  V30 19 1 1 18
M  V30 20 1 1 19
M  V30 21 1 2 20
M  V30 22 1 2 21
M  V30 23 1 3 22
M  V30 24 1 3 23
M  V30 25 1 5 24
M  V30 26 1 5 25
M  V30 27 1 6 26
M  V30 28 1 6 27
M  V30 29 1 8 28 CFG=1
M  V30 30 1 9 29
M  V30 31 1 9 30
M  V30 32 1 10 31
M  V30 33 1 10 32
M  V30 34 1 12 33
M  V30 35 1 13 34
M  V30 36 1 14 35
M  V30 37 1 17 36
M  V30 38 1 17 37
M  V30 END BOND
M  V30 END CTAB
M  END
