
     RDKit          3D

  0  0  0  0  0  0  0  0  0  0999 V3000
M  V30 BEGIN CTAB
M  V30 COUNTS 26 27 0 0 0
M  V30 BEGIN ATOM
M  V30 1 N -3.57759 1.39268 1.34176 0
M  V30 2 C -2.85087 0.516706 0.488363 0
M  V30 3 C -3.52682 -0.280578 -0.409403 0
M  V30 4 C -2.8084 -1.13854 -1.24696 0
M  V30 5 C -1.43193 -1.19317 -1.18188 0
M  V30 6 C -0.743904 -0.398011 -0.285006 0
M  V30 7 C -1.47695 0.428438 0.517716 0
M  V30 8 C 0.724052 -0.439113 -0.188917 0
M  V30 9 C 1.40835 -1.64136 -0.128232 0
M  V30 10 C 2.79125 -1.65063 -0.0348266 0
M  V30 11 C 3.52565 -0.486504 0.00085831 0
M  V30 12 C 2.84451 0.697894 -0.0602252 0
M  V30 13 C 1.47753 0.715336 -0.15248 0
M  V30 14 F 0.839863 1.90141 -0.215006 0
M  V30 15 N 3.54084 1.93236 -0.0252718 0
M  V30 16 F 4.87813 -0.456093 0.0942058 0
M  V30 17 F -0.786217 -2.03321 -2.00342 0
M  V30 18 H -3.54197 1.27978 2.37398 0
M  V30 19 H -4.16675 2.16914 0.960505 0
M  V30 20 H -4.59352 -0.240481 -0.456719 0
M  V30 21 H -3.35542 -1.76961 -1.95229 0
M  V30 22 H -0.974049 1.07 1.24112 0
M  V30 23 H 0.838375 -2.54185 -0.159498 0
M  V30 24 H 3.34662 -2.59614 0.00960305 0
M  V30 25 H 3.09332 2.82308 -0.329349 0
M  V30 26 H 4.52587 1.93845 0.316023 0
M  V30 END ATOM
M  V30 BEGIN BOND
M  V30 1 1 1 2
M  V30 2 2 2 3
M  V30 3 1 3 4
M  V30 4 2 4 5
M  V30 5 1 5 6
M  V30 6 2 6 7
M  V30 7 1 6 8
M  V30 8 2 8 9
M  V30 9 1 9 10
M  V30 10 2 10 11
M  V30 11 1 11 12
M  V30 12 2 12 13
M  V30 13 1 13 14
M  V30 14 1 12 15
M  V30 15 1 11 16
M  V30 16 1 5 17
M  V30 17 1 7 2
M  V30 18 1 13 8
M  V30 19 1 1 18
M  V30 20 1 1 19
M  V30 21 1 3 20
M  V30 22 1 4 21
M  V30 23 1 7 22
M  V30 24 1 9 23
M  V30 25 1 10 24
M  V30 26 1 15 25
M  V30 27 1 15 26
M  V30 END BOND
M  V30 END CTAB
M  END
