
     RDKit          3D

  0  0  0  0  0  0  0  0  0  0999 V3000
M  V30 BEGIN CTAB
M  V30 COUNTS 76 80 0 0 0
M  V30 BEGIN ATOM
M  V30 1 N 0.882231 3.06022 2.59131 0
M  V30 2 C 0.21938 2.33324 1.97586 0
M  V30 3 C -0.617177 1.45218 1.20087 0
M  V30 4 C -1.93171 1.44777 1.5238 0
M  V30 5 N -2.41462 2.30019 2.57042 0
M  V30 6 N -2.85563 0.533052 0.97669 0
M  V30 7 C -4.25646 0.617089 1.21604 0
M  V30 8 C -4.91283 1.43222 0.254405 0
M  V30 9 C -6.24358 1.59207 0.293926 0
M  V30 10 C -7.02149 0.978594 1.25089 0
M  V30 11 C -6.38156 0.192096 2.17826 0
M  V30 12 C -5.00167 0.00901797 2.16635 0
M  V30 13 S -8.74372 1.24203 1.15419 0
M  V30 14 O -9.53106 0.25143 1.96679 0
M  V30 15 O -9.09738 1.12678 -0.321807 0
M  V30 16 N -9.10869 2.85483 1.63383 0
M  V30 17 C -2.32374 -0.40689 0.0214468 0
M  V30 18 C -1.04782 -0.386482 -0.395754 0
M  V30 19 C -0.156331 0.668663 0.0838837 0
M  V30 20 C 1.15522 0.840802 -0.505752 0
M  V30 21 C 1.3207 1.66335 -1.64749 0
M  V30 22 C 2.46103 1.85432 -2.33743 0
M  V30 23 C 3.59414 1.22498 -1.95356 0
M  V30 24 C 3.54302 0.367749 -0.805671 0
M  V30 25 C 2.3414 0.220254 -0.142592 0
M  V30 26 C 4.79138 -0.380514 -0.633812 0
M  V30 27 O 5.65806 0.022544 0.380965 0
M  V30 28 C 6.85952 -0.607483 0.675157 0
M  V30 29 C 7.33964 -1.75517 0.144822 0
M  V30 30 C 8.56771 -2.28512 0.555455 0
M  V30 31 C 9.35306 -1.66695 1.51763 0
M  V30 32 C 8.88429 -0.506413 2.05872 0
M  V30 33 C 7.6646 0.0122672 1.64447 0
M  V30 34 N 7.31963 1.27691 2.20019 0 CHG=1
M  V30 35 O 8.26857 2.07107 2.52301 0
M  V30 36 O 6.05317 1.73867 2.4225 0 CHG=-1
M  V30 37 O 4.8001 1.38554 -2.63549 0
M  V30 38 C 5.05717 2.15491 -3.73834 0
M  V30 39 C -0.63122 -1.45814 -1.29599 0
M  V30 40 O 0.520294 -1.48112 -1.80059 0
M  V30 41 C -1.51288 -2.60126 -1.6943 0
M  V30 42 C -2.74349 -2.71958 -0.847345 0
M  V30 43 C -3.32375 -1.39817 -0.46831 0
M  V30 44 C -3.80622 -3.41264 -1.71449 0
M  V30 45 C -2.56739 -3.63661 0.349743 0
M  V30 46 H -2.16179 2.07406 3.53987 0
M  V30 47 H -3.02114 3.12361 2.35153 0
M  V30 48 H -4.34036 1.93198 -0.509068 0
M  V30 49 H -6.74334 2.2383 -0.457691 0
M  V30 50 H -6.99786 -0.299781 2.94234 0
M  V30 51 H -4.48741 -0.615188 2.90191 0
M  V30 52 H -8.5639 3.0466 2.49129 0
M  V30 53 H -8.81749 3.50556 0.8758 0
M  V30 54 H -0.766809 1.52837 -0.734031 0
M  V30 55 H 0.415051 2.19481 -1.98613 0
M  V30 56 H 2.46205 2.53195 -3.20259 0
M  V30 57 H 2.31454 -0.443221 0.723594 0
M  V30 58 H 4.52896 -1.46431 -0.380733 0
M  V30 59 H 5.34539 -0.425532 -1.59238 0
M  V30 60 H 6.74178 -2.28496 -0.591322 0
M  V30 61 H 8.92066 -3.21718 0.129451 0
M  V30 62 H 10.3295 -2.08347 1.81334 0
M  V30 63 H 9.4811 0.00555162 2.80577 0
M  V30 64 H 6.1801 2.27541 -3.86354 0
M  V30 65 H 4.67759 1.78308 -4.69975 0
M  V30 66 H 4.72598 3.21804 -3.64761 0
M  V30 67 H -0.95697 -3.55017 -1.59912 0
M  V30 68 H -1.81923 -2.44191 -2.76108 0
M  V30 69 H -4.07215 -1.60492 0.33771 0
M  V30 70 H -3.91398 -0.968402 -1.31022 0
M  V30 71 H -3.62926 -4.51191 -1.71151 0
M  V30 72 H -3.70101 -2.9895 -2.74149 0
M  V30 73 H -4.82803 -3.13886 -1.36321 0
M  V30 74 H -2.15808 -3.12297 1.22232 0
M  V30 75 H -3.58835 -3.99566 0.616631 0
M  V30 76 H -1.97943 -4.52164 0.00447581 0
M  V30 END ATOM
M  V30 BEGIN BOND
M  V30 1 3 1 2
M  V30 2 1 2 3
M  V30 3 2 3 4
M  V30 4 1 4 5
M  V30 5 1 4 6
M  V30 6 1 6 7
M  V30 7 2 7 8
M  V30 8 1 8 9
M  V30 9 2 9 10
M  V30 10 1 10 11
M  V30 11 2 11 12
M  V30 12 1 10 13
M  V30 13 2 13 14
M  V30 14 2 13 15
M  V30 15 1 13 16
M  V30 16 1 6 17
M  V30 17 2 17 18
M  V30 18 1 18 19
M  V30 19 1 19 20
M  V30 20 2 20 21
M  V30 21 1 21 22
M  V30 22 2 22 23
M  V30 23 1 23 24
M  V30 24 2 24 25
M  V30 25 1 24 26
M  V30 26 1 26 27
M  V30 27 1 27 28
M  V30 28 2 28 29
M  V30 29 1 29 30
M  V30 30 2 30 31
M  V30 31 1 31 32
M  V30 32 2 32 33
M  V30 33 1 33 34
M  V30 34 2 34 35
M  V30 35 1 34 36
M  V30 36 1 23 37
M  V30 37 1 37 38
M  V30 38 1 18 39
M  V30 39 2 39 40
M  V30 40 1 39 41
M  V30 41 1 41 42
M  V30 42 1 42 43
M  V30 43 1 42 44
M  V30 44 1 42 45
M  V30 45 1 19 3
M  V30 46 1 25 20
M  V30 47 1 33 28
M  V30 48 1 12 7
M  V30 49 1 43 17
M  V30 50 1 5 46
M  V30 51 1 5 47
M  V30 52 1 8 48
M  V30 53 1 9 49
M  V30 54 1 11 50
M  V30 55 1 12 51
M  V30 56 1 16 52
M  V30 57 1 16 53
M  V30 58 1 19 54
M  V30 59 1 21 55
M  V30 60 1 22 56
M  V30 61 1 25 57
M  V30 62 1 26 58
M  V30 63 1 26 59
M  V30 64 1 29 60
M  V30 65 1 30 61
M  V30 66 1 31 62
M  V30 67 1 32 63
M  V30 68 1 38 64
M  V30 69 1 38 65
M  V30 70 1 38 66
M  V30 71 1 41 67
M  V30 72 1 41 68
M  V30 73 1 43 69
M  V30 74 1 43 70
M  V30 75 1 44 71
M  V30 76 1 44 72
M  V30 77 1 44 73
M  V30 78 1 45 74
M  V30 79 1 45 75
M  V30 80 1 45 76
M  V30 END BOND
M  V30 END CTAB
M  END
