
     RDKit          3D

  0  0  0  0  0  0  0  0  0  0999 V3000
M  V30 BEGIN CTAB
M  V30 COUNTS 29 29 0 0 0
M  V30 BEGIN ATOM
M  V30 1 N 4.31863 -2.51819 -0.54898 0
M  V30 2 C 3.71661 -1.23909 -0.436406 0
M  V30 3 N 2.38851 -1.11335 -0.636596 0
M  V30 4 C 1.75469 0.0590359 -0.547497 0
M  V30 5 S 0.0130688 0.145676 -0.823327 0
M  V30 6 C -0.951815 -0.10102 0.683111 0
M  V30 7 Si -2.76852 0.0196009 0.204943 0 VAL=4
M  V30 8 C -3.30045 -1.63297 -0.449421 0
M  V30 9 C -2.86435 1.33217 -1.14316 0
M  V30 10 C -3.8044 0.589585 1.625 0
M  V30 11 N 2.46798 1.15094 -0.247521 0
M  V30 12 C 3.82004 1.06148 -0.0373141 0
M  V30 13 N 4.42169 -0.13674 -0.136029 0
M  V30 14 N 4.48587 2.2679 0.273923 0
M  V30 15 H 3.76228 -3.39754 -0.538212 0
M  V30 16 H 5.3516 -2.61592 -0.647164 0
M  V30 17 H -0.750784 -1.10544 1.12864 0
M  V30 18 H -0.703572 0.63065 1.48203 0
M  V30 19 H -4.34949 -1.51296 -0.818624 0
M  V30 20 H -2.64514 -1.91261 -1.28141 0
M  V30 21 H -3.24382 -2.35731 0.371389 0
M  V30 22 H -3.82075 1.31733 -1.66753 0
M  V30 23 H -1.97906 1.1673 -1.79929 0
M  V30 24 H -2.67376 2.31741 -0.627508 0
M  V30 25 H -4.15518 1.64673 1.49665 0
M  V30 26 H -3.24764 0.568264 2.59564 0
M  V30 27 H -4.70294 -0.0408943 1.7095 0
M  V30 28 H 4.72123 2.95434 -0.446684 0
M  V30 29 H 4.73945 2.45562 1.26186 0
M  V30 END ATOM
M  V30 BEGIN BOND
M  V30 1 1 1 2
M  V30 2 2 2 3
M  V30 3 1 3 4
M  V30 4 1 4 5
M  V30 5 1 5 6
M  V30 6 1 6 7
M  V30 7 1 7 8
M  V30 8 1 7 9
M  V30 9 1 7 10
M  V30 10 2 4 11
M  V30 11 1 11 12
M  V30 12 2 12 13
M  V30 13 1 12 14
M  V30 14 1 13 2
M  V30 15 1 1 15
M  V30 16 1 1 16
M  V30 17 1 6 17
M  V30 18 1 6 18
M  V30 19 1 8 19
M  V30 20 1 8 20
M  V30 21 1 8 21
M  V30 22 1 9 22
M  V30 23 1 9 23
M  V30 24 1 9 24
M  V30 25 1 10 25
M  V30 26 1 10 26
M  V30 27 1 10 27
M  V30 28 1 14 28
M  V30 29 1 14 29
M  V30 END BOND
M  V30 END CTAB
M  END
