
     RDKit          3D

  0  0  0  0  0  0  0  0  0  0999 V3000
M  V30 BEGIN CTAB
M  V30 COUNTS 28 28 0 0 0
M  V30 BEGIN ATOM
M  V30 1 C 3.9917 1.49725 0.836566 0
M  V30 2 C 3.38169 0.429803 -0.0524467 0
M  V30 3 O 2.22398 -0.101767 0.503808 0
M  V30 4 C 1.42307 -1.03466 -0.186018 0
M  V30 5 O 1.76702 -1.39653 -1.33761 0
M  V30 6 C 0.197461 -1.53661 0.495161 0
M  V30 7 C -0.993881 -0.815095 -0.0492689 0
M  V30 8 C -1.53942 0.249891 0.688001 0
M  V30 9 C -2.60372 0.9711 0.209075 0
M  V30 10 N -3.13004 2.07965 0.984853 0
M  V30 11 C -3.12172 0.617545 -1.01824 0
M  V30 12 C -2.59727 -0.421275 -1.74609 0
M  V30 13 C -1.50585 -1.16991 -1.26811 0
M  V30 14 N -0.999591 -2.2453 -2.0502 0
M  V30 15 F -4.17963 1.35197 -1.47287 0
M  V30 16 H 5.07656 1.51769 0.63078 0
M  V30 17 H 3.7282 1.38051 1.91285 0
M  V30 18 H 3.57306 2.48458 0.459228 0
M  V30 19 H 4.15328 -0.353442 -0.212141 0
M  V30 20 H 3.16256 0.907761 -1.04694 0
M  V30 21 H 0.0823756 -2.64029 0.392229 0
M  V30 22 H 0.263319 -1.30349 1.56997 0
M  V30 23 H -1.09169 0.485314 1.6443 0
M  V30 24 H -2.7501 3.02712 0.824698 0
M  V30 25 H -3.86653 1.95784 1.69044 0
M  V30 26 H -3.01109 -0.691146 -2.72388 0
M  V30 27 H -0.755461 -2.06299 -3.04178 0
M  V30 28 H -0.878322 -3.18552 -1.66206 0
M  V30 END ATOM
M  V30 BEGIN BOND
M  V30 1 1 1 2
M  V30 2 1 2 3
M  V30 3 1 3 4
M  V30 4 2 4 5
M  V30 5 1 4 6
M  V30 6 1 6 7
M  V30 7 2 7 8
M  V30 8 1 8 9
M  V30 9 1 9 10
M  V30 10 2 9 11
M  V30 11 1 11 12
M  V30 12 2 12 13
M  V30 13 1 13 14
M  V30 14 1 11 15
M  V30 15 1 13 7
M  V30 16 1 1 16
M  V30 17 1 1 17
M  V30 18 1 1 18
M  V30 19 1 2 19
M  V30 20 1 2 20
M  V30 21 1 6 21
M  V30 22 1 6 22
M  V30 23 1 8 23
M  V30 24 1 10 24
M  V30 25 1 10 25
M  V30 26 1 12 26
M  V30 27 1 14 27
M  V30 28 1 14 28
M  V30 END BOND
M  V30 END CTAB
M  END
