
     RDKit          3D

  0  0  0  0  0  0  0  0  0  0999 V3000
M  V30 BEGIN CTAB
M  V30 COUNTS 24 25 0 0 0
M  V30 BEGIN ATOM
M  V30 1 N -3.07753 -1.70378 0.42891 0
M  V30 2 C -2.85424 -0.275029 0.274903 0
M  V30 3 C -1.3863 -0.00178492 0.130263 0
M  V30 4 N -0.467842 -0.984963 0.149583 0
M  V30 5 C 0.847596 -0.766855 0.0225113 0
M  V30 6 C 1.78713 -1.78596 0.0435409 0
M  V30 7 C 3.12825 -1.53455 -0.0887816 0
M  V30 8 C 3.58427 -0.241979 -0.248631 0
M  V30 9 C 2.65018 0.766288 -0.26907 0
M  V30 10 C 1.3008 0.541014 -0.138568 0
M  V30 11 C 0.380043 1.5673 -0.161807 0
M  V30 12 C -0.984316 1.30521 -0.0265942 0
M  V30 13 N -1.89268 2.39553 -0.0569188 0
M  V30 14 H -3.16018 -2.18986 -0.487325 0
M  V30 15 H -2.34653 -2.14391 1.03941 0
M  V30 16 H -3.40837 0.031832 -0.640164 0
M  V30 17 H -3.29101 0.22569 1.1424 0
M  V30 18 H 1.45629 -2.8084 0.167572 0
M  V30 19 H 3.86823 -2.33917 -0.0720411 0
M  V30 20 H 4.65748 -0.0346456 -0.355099 0
M  V30 21 H 2.97423 1.79546 -0.393191 0
M  V30 22 H 0.69021 2.5962 -0.284794 0
M  V30 23 H -2.15664 2.91191 0.792854 0
M  V30 24 H -2.29906 2.67447 -0.968964 0
M  V30 END ATOM
M  V30 BEGIN BOND
M  V30 1 1 1 2
M  V30 2 1 2 3
M  V30 3 2 3 4
M  V30 4 1 4 5
M  V30 5 2 5 6
M  V30 6 1 6 7
M  V30 7 2 7 8
M  V30 8 1 8 9
M  V30 9 2 9 10
M  V30 10 1 10 11
M  V30 11 2 11 12
M  V30 12 1 12 13
M  V30 13 1 12 3
M  V30 14 1 10 5
M  V30 15 1 1 14
M  V30 16 1 1 15
M  V30 17 1 2 16
M  V30 18 1 2 17
M  V30 19 1 6 18
M  V30 20 1 7 19
M  V30 21 1 8 20
M  V30 22 1 9 21
M  V30 23 1 11 22
M  V30 24 1 13 23
M  V30 25 1 13 24
M  V30 END BOND
M  V30 END CTAB
M  END
