
     RDKit          3D

  0  0  0  0  0  0  0  0  0  0999 V3000
M  V30 BEGIN CTAB
M  V30 COUNTS 28 27 0 0 0
M  V30 BEGIN ATOM
M  V30 1 N -4.03189 -0.88268 -0.161902 0
M  V30 2 C -2.63697 -0.445306 -0.208514 0
M  V30 3 C -2.01458 -0.934473 1.07503 0
M  V30 4 C -0.562752 -0.59723 1.23235 0
M  V30 5 S 0.336266 -1.35655 -0.153401 0
M  V30 6 C 2.10324 -1.02402 -0.0526854 0
M  V30 7 C 2.34527 0.439722 -0.252045 0
M  V30 8 N 1.88007 0.885963 -1.52215 0
M  V30 9 C 3.75395 0.808231 -0.0661451 0
M  V30 10 O 4.42936 0.470655 1.11793 0
M  V30 11 O 4.34783 1.43097 -0.98291 0
M  V30 12 C -2.59225 1.02523 -0.366 0
M  V30 13 O -1.41158 1.71763 -0.51911 0
M  V30 14 O -3.66758 1.69736 -0.364432 0
M  V30 15 H -4.07909 -1.91213 -0.35527 0
M  V30 16 H -4.57352 -0.425112 -0.943322 0
M  V30 17 H -2.10917 -0.914603 -1.05017 0
M  V30 18 H -2.17116 -2.04529 1.0819 0
M  V30 19 H -2.6055 -0.493114 1.91633 0
M  V30 20 H -0.39879 0.491627 1.30138 0
M  V30 21 H -0.177471 -1.03611 2.1894 0
M  V30 22 H 2.48528 -1.33166 0.951243 0
M  V30 23 H 2.66372 -1.58039 -0.824748 0
M  V30 24 H 1.76227 0.979052 0.526908 0
M  V30 25 H 2.56841 0.760236 -2.29756 0
M  V30 26 H 0.927636 0.550811 -1.77455 0
M  V30 27 H 4.81853 1.22543 1.65837 0
M  V30 28 H -1.38952 2.49576 -1.15593 0
M  V30 END ATOM
M  V30 BEGIN BOND
M  V30 1 1 1 2
M  V30 2 1 2 3
M  V30 3 1 3 4
M  V30 4 1 4 5
M  V30 5 1 5 6
M  V30 6 1 6 7
M  V30 7 1 7 8
M  V30 8 1 7 9
M  V30 9 1 9 10
M  V30 10 2 9 11
M  V30 11 1 2 12
M  V30 12 1 12 13
M  V30 13 2 12 14
M  V30 14 1 1 15
M  V30 15 1 1 16
M  V30 16 1 2 17
M  V30 17 1 3 18
M  V30 18 1 3 19
M  V30 19 1 4 20
M  V30 20 1 4 21
M  V30 21 1 6 22
M  V30 22 1 6 23
M  V30 23 1 7 24
M  V30 24 1 8 25
M  V30 25 1 8 26
M  V30 26 1 10 27
M  V30 27 1 13 28
M  V30 END BOND
M  V30 END CTAB
M  END
