
     RDKit          3D

  0  0  0  0  0  0  0  0  0  0999 V3000
M  V30 BEGIN CTAB
M  V30 COUNTS 40 41 0 0 0
M  V30 BEGIN ATOM
M  V30 1 C 5.71933 -0.406306 -1.98305 0
M  V30 2 C 4.56084 -1.2577 -1.54441 0
M  V30 3 C 3.77555 -0.567018 -0.486622 0
M  V30 4 C 4.09 -0.74252 0.847125 0
M  V30 5 C 3.38135 -0.115617 1.85037 0
M  V30 6 C 2.32689 0.712229 1.5243 0
M  V30 7 C 1.98635 0.908075 0.211748 0
M  V30 8 C 2.71336 0.269136 -0.759806 0
M  V30 9 S 0.680832 1.99698 -0.263605 0
M  V30 10 S -0.812631 1.97617 1.20731 0
M  V30 11 C -2.1008 0.815951 0.900689 0
M  V30 12 C -3.19236 1.25652 0.141038 0
M  V30 13 C -4.2547 0.422942 -0.151696 0
M  V30 14 C -5.42103 0.903165 -0.966742 0
M  V30 15 C -5.20673 0.668213 -2.43064 0
M  V30 16 C -4.24656 -0.875932 0.312305 0
M  V30 17 C -3.18551 -1.33356 1.06119 0
M  V30 18 C -2.11454 -0.453586 1.34236 0
M  V30 19 N -1.03154 -0.938544 2.1175 0
M  V30 20 N 1.66962 1.35554 2.60681 0
M  V30 21 H 6.64235 -0.610518 -1.40787 0
M  V30 22 H 5.85284 -0.500665 -3.07079 0
M  V30 23 H 5.43196 0.66562 -1.78701 0
M  V30 24 H 3.86526 -1.34581 -2.42457 0
M  V30 25 H 4.86166 -2.27626 -1.24505 0
M  V30 26 H 4.93132 -1.40374 1.09472 0
M  V30 27 H 3.6563 -0.275588 2.90351 0
M  V30 28 H 2.48094 0.394021 -1.82937 0
M  V30 29 H -3.21558 2.2687 -0.229882 0
M  V30 30 H -6.36323 0.417538 -0.662671 0
M  V30 31 H -5.51673 2.0205 -0.834744 0
M  V30 32 H -5.83936 -0.176228 -2.77355 0
M  V30 33 H -5.36747 1.57705 -3.0456 0
M  V30 34 H -4.14578 0.303604 -2.56147 0
M  V30 35 H -5.09659 -1.53045 0.0735981 0
M  V30 36 H -3.16324 -2.34887 1.43269 0
M  V30 37 H -0.151704 -1.2545 1.6403 0
M  V30 38 H -1.04142 -1.00792 3.15733 0
M  V30 39 H 1.22899 0.742206 3.3271 0
M  V30 40 H 1.61176 2.38161 2.70714 0
M  V30 END ATOM
M  V30 BEGIN BOND
M  V30 1 1 1 2
M  V30 2 1 2 3
M  V30 3 2 3 4
M  V30 4 1 4 5
M  V30 5 2 5 6
M  V30 6 1 6 7
M  V30 7 2 7 8
M  V30 8 1 7 9
M  V30 9 1 9 10
M  V30 10 1 10 11
M  V30 11 2 11 12
M  V30 12 1 12 13
M  V30 13 1 13 14
M  V30 14 1 14 15
M  V30 15 2 13 16
M  V30 16 1 16 17
M  V30 17 2 17 18
M  V30 18 1 18 19
M  V30 19 1 6 20
M  V30 20 1 8 3
M  V30 21 1 18 11
M  V30 22 1 1 21
M  V30 23 1 1 22
M  V30 24 1 1 23
M  V30 25 1 2 24
M  V30 26 1 2 25
M  V30 27 1 4 26
M  V30 28 1 5 27
M  V30 29 1 8 28
M  V30 30 1 12 29
M  V30 31 1 14 30
M  V30 32 1 14 31
M  V30 33 1 15 32
M  V30 34 1 15 33
M  V30 35 1 15 34
M  V30 36 1 16 35
M  V30 37 1 17 36
M  V30 38 1 19 37
M  V30 39 1 19 38
M  V30 40 1 20 39
M  V30 41 1 20 40
M  V30 END BOND
M  V30 END CTAB
M  END
