
     RDKit          3D

  0  0  0  0  0  0  0  0  0  0999 V3000
M  V30 BEGIN CTAB
M  V30 COUNTS 37 38 0 0 0
M  V30 BEGIN ATOM
M  V30 1 C 5.49535 -0.0860303 0.415968 0
M  V30 2 C 4.02967 -0.423833 0.270881 0
M  V30 3 C 3.21663 0.812953 -0.0595849 0
M  V30 4 C 1.76907 0.466903 -0.0987555 0
M  V30 5 C 1.09979 0.0358544 -1.21518 0
M  V30 6 N 1.71773 -0.0492445 -2.48157 0
M  V30 7 N -0.225276 -0.284466 -1.07441 0
M  V30 8 C -0.912479 -0.212703 0.0669249 0
M  V30 9 N -0.242387 0.2078 1.14797 0
M  V30 10 C 1.0453 0.541362 1.09323 0
M  V30 11 O 1.69837 0.941084 2.08953 0
M  V30 12 C -2.33964 -0.544668 0.0391507 0
M  V30 13 N -2.56433 -1.69788 -0.799996 0
M  V30 14 C -2.9096 -0.806145 1.40319 0
M  V30 15 C -4.35017 -0.364226 1.26415 0
M  V30 16 C -4.11674 1.02089 0.650122 0
M  V30 17 C -3.11476 0.690637 -0.461742 0
M  V30 18 H 6.0027 -1.02271 0.769094 0
M  V30 19 H 5.58809 0.651911 1.25593 0
M  V30 20 H 5.8974 0.311833 -0.516024 0
M  V30 21 H 3.92402 -1.19766 -0.515843 0
M  V30 22 H 3.68977 -0.839084 1.26388 0
M  V30 23 H 3.50891 1.08478 -1.10668 0
M  V30 24 H 3.45813 1.67588 0.551754 0
M  V30 25 H 1.44043 -0.78037 -3.15233 0
M  V30 26 H 2.43204 0.639121 -2.73964 0
M  V30 27 H -0.698888 -0.619797 -1.97304 0
M  V30 28 H -1.87874 -2.43719 -0.601505 0
M  V30 29 H -2.73652 -1.45406 -1.78437 0
M  V30 30 H -2.43628 -0.28188 2.22928 0
M  V30 31 H -2.96531 -1.93331 1.64057 0
M  V30 32 H -4.88819 -0.326189 2.206 0
M  V30 33 H -4.90066 -0.954673 0.505412 0
M  V30 34 H -3.60893 1.63541 1.44691 0
M  V30 35 H -5.03408 1.48277 0.260018 0
M  V30 36 H -2.39536 1.52215 -0.633922 0
M  V30 37 H -3.69508 0.395759 -1.35539 0
M  V30 END ATOM
M  V30 BEGIN BOND
M  V30 1 1 1 2
M  V30 2 1 2 3
M  V30 3 1 3 4
M  V30 4 2 4 5
M  V30 5 1 5 6
M  V30 6 1 5 7
M  V30 7 1 7 8
M  V30 8 2 8 9
M  V30 9 1 9 10
M  V30 10 2 10 11
M  V30 11 1 8 12
M  V30 12 1 12 13
M  V30 13 1 12 14
M  V30 14 1 14 15
M  V30 15 1 15 16
M  V30 16 1 16 17
M  V30 17 1 10 4
M  V30 18 1 17 12
M  V30 19 1 1 18
M  V30 20 1 1 19
M  V30 21 1 1 20
M  V30 22 1 2 21
M  V30 23 1 2 22
M  V30 24 1 3 23
M  V30 25 1 3 24
M  V30 26 1 6 25
M  V30 27 1 6 26
M  V30 28 1 7 27
M  V30 29 1 13 28
M  V30 30 1 13 29
M  V30 31 1 14 30
M  V30 32 1 14 31
M  V30 33 1 15 32
M  V30 34 1 15 33
M  V30 35 1 16 34
M  V30 36 1 16 35
M  V30 37 1 17 36
M  V30 38 1 17 37
M  V30 END BOND
M  V30 END CTAB
M  END
