
     RDKit          3D

  0  0  0  0  0  0  0  0  0  0999 V3000
M  V30 BEGIN CTAB
M  V30 COUNTS 51 53 0 0 0
M  V30 BEGIN ATOM
M  V30 1 C 0.0294707 -0.306974 -4.51315 0
M  V30 2 C 0.0454014 -0.562941 -3.01633 0
M  V30 3 C 0.939232 0.458004 -2.38898 0
M  V30 4 N 1.04655 0.325908 -0.949373 0
M  V30 5 C 0.114805 1.02382 -0.135358 0
M  V30 6 C 0.0934327 2.39765 -0.10337 0
M  V30 7 O 0.918921 3.06377 -0.807333 0
M  V30 8 N -0.803524 3.0192 0.674991 0
M  V30 9 C -1.69343 2.35792 1.43444 0
M  V30 10 O -2.49236 3.05581 2.13419 0
M  V30 11 N -1.6991 1.01881 1.42451 0
M  V30 12 C -0.815053 0.371908 0.658052 0
M  V30 13 N -0.761088 -1.05985 0.610805 0
M  V30 14 C -2.64798 0.303819 2.21206 0
M  V30 15 C -3.89942 -0.0883232 1.5637 0
M  V30 16 C -4.93762 0.766735 1.23387 0
M  V30 17 C -6.10372 0.307417 0.635478 0
M  V30 18 C -6.26304 -1.03233 0.348863 0
M  V30 19 C -5.24552 -1.91108 0.666306 0
M  V30 20 C -4.09426 -1.43686 1.26072 0
M  V30 21 C 2.07933 -0.499422 -0.407051 0
M  V30 22 O 2.20568 -0.631028 0.8393 0
M  V30 23 C 3.03539 -1.22883 -1.26603 0
M  V30 24 S 4.49567 -0.19303 -1.52064 0
M  V30 25 C 5.35038 -0.00969515 0.0472333 0
M  V30 26 N 5.19244 0.905766 0.994657 0
M  V30 27 N 5.89936 0.866187 2.03934 0
M  V30 28 C 6.80436 -0.0951037 2.19079 0
M  V30 29 S 6.60121 -0.96908 0.73733 0
M  V30 30 N 7.70165 -0.308149 3.30281 0
M  V30 31 H -0.987415 -0.521077 -4.9087 0
M  V30 32 H 0.707329 -1.01714 -5.05661 0
M  V30 33 H 0.288276 0.745379 -4.74901 0
M  V30 34 H 0.321076 -1.60455 -2.85986 0
M  V30 35 H -0.990807 -0.433535 -2.58623 0
M  V30 36 H 1.9679 0.371159 -2.83477 0
M  V30 37 H 0.55352 1.46074 -2.67633 0
M  V30 38 H -0.797899 4.09088 0.681151 0
M  V30 39 H -1.01457 -1.57588 -0.233643 0
M  V30 40 H -0.457326 -1.56981 1.45935 0
M  V30 41 H -2.89257 0.880776 3.15865 0
M  V30 42 H -2.15813 -0.627092 2.62691 0
M  V30 43 H -4.87851 1.82087 1.4354 0
M  V30 44 H -6.89546 0.998299 0.39001 0
M  V30 45 H -7.1959 -1.35362 -0.123519 0
M  V30 46 H -5.36645 -2.96803 0.44251 0
M  V30 47 H -3.33376 -2.13115 1.51179 0
M  V30 48 H 3.40722 -2.14037 -0.710152 0
M  V30 49 H 2.61927 -1.55883 -2.21983 0
M  V30 50 H 8.00214 -1.28396 3.48492 0
M  V30 51 H 8.00489 0.514166 3.86615 0
M  V30 END ATOM
M  V30 BEGIN BOND
M  V30 1 1 1 2
M  V30 2 1 2 3
M  V30 3 1 3 4
M  V30 4 1 4 5
M  V30 5 1 5 6
M  V30 6 2 6 7
M  V30 7 1 6 8
M  V30 8 1 8 9
M  V30 9 2 9 10
M  V30 10 1 9 11
M  V30 11 1 11 12
M  V30 12 1 12 13
M  V30 13 1 11 14
M  V30 14 1 14 15
M  V30 15 2 15 16
M  V30 16 1 16 17
M  V30 17 2 17 18
M  V30 18 1 18 19
M  V30 19 2 19 20
M  V30 20 1 4 21
M  V30 21 2 21 22
M  V30 22 1 21 23
M  V30 23 1 23 24
M  V30 24 1 24 25
M  V30 25 2 25 26
M  V30 26 1 26 27
M  V30 27 2 27 28
M  V30 28 1 28 29
M  V30 29 1 28 30
M  V30 30 2 12 5
M  V30 31 1 20 15
M  V30 32 1 29 25
M  V30 33 1 1 31
M  V30 34 1 1 32
M  V30 35 1 1 33
M  V30 36 1 2 34
M  V30 37 1 2 35
M  V30 38 1 3 36
M  V30 39 1 3 37
M  V30 40 1 8 38
M  V30 41 1 13 39
M  V30 42 1 13 40
M  V30 43 1 14 41
M  V30 44 1 14 42
M  V30 45 1 16 43
M  V30 46 1 17 44
M  V30 47 1 18 45
M  V30 48 1 19 46
M  V30 49 1 20 47
M  V30 50 1 23 48
M  V30 51 1 23 49
M  V30 52 1 30 50
M  V30 53 1 30 51
M  V30 END BOND
M  V30 END CTAB
M  END
