
     RDKit          3D

  0  0  0  0  0  0  0  0  0  0999 V3000
M  V30 BEGIN CTAB
M  V30 COUNTS 54 58 0 0 0
M  V30 BEGIN ATOM
M  V30 1 N 7.67462 1.81029 -0.308845 0
M  V30 2 C 6.54298 1.01779 0.0333446 0
M  V30 3 N 5.35479 1.6305 0.0155506 0
M  V30 4 C 4.19465 0.999273 0.328091 0
M  V30 5 O 2.86055 1.44606 0.370909 0
M  V30 6 C 2.0731 0.288628 0.340477 0
M  V30 7 C 2.87157 -0.797812 1.0141 0
M  V30 8 C 4.26951 -0.333549 0.677198 0
M  V30 9 C 5.47875 -0.990932 0.702558 0
M  V30 10 N 6.58764 -0.264608 0.370475 0
M  V30 11 N 5.58188 -2.36643 1.03763 0
M  V30 12 C 1.79729 -0.062414 -1.11658 0
M  V30 13 C 0.724362 0.947052 -1.42593 0
M  V30 14 N -0.156279 0.894541 -0.289712 0
M  V30 15 C 0.694327 0.493607 0.855262 0
M  V30 16 C -1.09823 -0.205132 -0.555329 0
M  V30 17 C -2.24113 -0.160528 0.436426 0
M  V30 18 C -3.14947 -1.30314 0.179233 0
M  V30 19 C -3.89554 -1.85367 1.23812 0
M  V30 20 C -4.7267 -2.92971 1.04325 0
M  V30 21 C -4.87532 -3.52436 -0.182599 0
M  V30 22 C -4.14342 -2.98488 -1.22433 0
M  V30 23 C -3.29923 -1.89734 -1.04696 0
M  V30 24 C -3.03059 1.08828 0.272084 0
M  V30 25 C -3.78028 1.5592 1.32011 0
M  V30 26 C -4.52641 2.74208 1.20007 0
M  V30 27 C -4.51193 3.44532 0.0226779 0
M  V30 28 C -3.76299 2.97851 -1.02925 0
M  V30 29 C -3.03369 1.81085 -0.897497 0
M  V30 30 H 8.13413 2.37578 0.422049 0
M  V30 31 H 8.0162 1.80653 -1.28793 0
M  V30 32 H 2.72211 -0.849417 2.09193 0
M  V30 33 H 2.74193 -1.79855 0.580489 0
M  V30 34 H 5.81832 -2.61492 2.01497 0
M  V30 35 H 5.42419 -3.11839 0.333106 0
M  V30 36 H 1.32725 -1.08018 -1.19515 0
M  V30 37 H 2.70923 0.0321179 -1.73832 0
M  V30 38 H 0.191605 0.736369 -2.37948 0
M  V30 39 H 1.18071 1.9816 -1.45314 0
M  V30 40 H 0.696481 1.34842 1.58013 0
M  V30 41 H 0.280719 -0.37848 1.37834 0
M  V30 42 H -0.536862 -1.13657 -0.368628 0
M  V30 43 H -1.4236 -0.198234 -1.60159 0
M  V30 44 H -1.83402 -0.159363 1.44744 0
M  V30 45 H -3.78479 -1.39649 2.20413 0
M  V30 46 H -5.28481 -3.32628 1.88027 0
M  V30 47 H -5.52233 -4.37356 -0.360189 0
M  V30 48 H -4.2172 -3.4067 -2.20708 0
M  V30 49 H -2.77852 -1.55845 -1.92133 0
M  V30 50 H -3.86093 1.08155 2.28969 0
M  V30 51 H -5.12914 3.13019 2.03547 0
M  V30 52 H -5.09995 4.37417 -0.0600159 0
M  V30 53 H -3.76859 3.54715 -1.94464 0
M  V30 54 H -2.47693 1.50424 -1.7464 0
M  V30 END ATOM
M  V30 BEGIN BOND
M  V30 1 1 1 2
M  V30 2 2 2 3
M  V30 3 1 3 4
M  V30 4 1 4 5
M  V30 5 1 5 6
M  V30 6 1 6 7
M  V30 7 1 7 8
M  V30 8 1 8 9
M  V30 9 2 9 10
M  V30 10 1 9 11
M  V30 11 1 6 12
M  V30 12 1 12 13
M  V30 13 1 13 14
M  V30 14 1 14 15
M  V30 15 1 14 16
M  V30 16 1 16 17
M  V30 17 1 17 18
M  V30 18 2 18 19
M  V30 19 1 19 20
M  V30 20 2 20 21
M  V30 21 1 21 22
M  V30 22 2 22 23
M  V30 23 1 17 24
M  V30 24 2 24 25
M  V30 25 1 25 26
M  V30 26 2 26 27
M  V30 27 1 27 28
M  V30 28 2 28 29
M  V30 29 1 10 2
M  V30 30 1 23 18
M  V30 31 1 29 24
M  V30 32 2 8 4
M  V30 33 1 15 6
M  V30 34 1 1 30
M  V30 35 1 1 31
M  V30 36 1 7 32
M  V30 37 1 7 33
M  V30 38 1 11 34
M  V30 39 1 11 35
M  V30 40 1 12 36
M  V30 41 1 12 37
M  V30 42 1 13 38
M  V30 43 1 13 39
M  V30 44 1 15 40
M  V30 45 1 15 41
M  V30 46 1 16 42
M  V30 47 1 16 43
M  V30 48 1 17 44
M  V30 49 1 19 45
M  V30 50 1 20 46
M  V30 51 1 21 47
M  V30 52 1 22 48
M  V30 53 1 23 49
M  V30 54 1 25 50
M  V30 55 1 26 51
M  V30 56 1 27 52
M  V30 57 1 28 53
M  V30 58 1 29 54
M  V30 END BOND
M  V30 END CTAB
M  END
