
     RDKit          3D

  0  0  0  0  0  0  0  0  0  0999 V3000
M  V30 BEGIN CTAB
M  V30 COUNTS 37 39 0 0 0
M  V30 BEGIN ATOM
M  V30 1 N 5.91052 0.633215 -0.727702 0
M  V30 2 C 4.56549 0.324256 -0.366077 0
M  V30 3 C 4.25217 -0.148706 0.882557 0
M  V30 4 C 2.9343 -0.437695 1.19702 0
M  V30 5 C 1.90918 -0.266525 0.291822 0
M  V30 6 C 2.22688 0.208928 -0.9623 0
M  V30 7 C 3.54837 0.498986 -1.27842 0
M  V30 8 C 0.497376 -0.590724 0.670769 0 CFG=2
M  V30 9 N -0.0916391 -1.3304 -0.414321 0
M  V30 10 C -1.50999 -1.39041 -0.595078 0
M  V30 11 C -2.08957 -2.37015 -1.36697 0
M  V30 12 C -3.45781 -2.37798 -1.50094 0
M  V30 13 C -4.24419 -1.42068 -0.873438 0
M  V30 14 C -3.66259 -0.428897 -0.0926748 0
M  V30 15 C -2.27164 -0.421618 0.042616 0
M  V30 16 N -1.69292 0.583218 0.834753 0
M  V30 17 C -0.26821 0.606256 1.07323 0
M  V30 18 S -2.72031 1.81063 1.51923 0
M  V30 19 O -1.80128 2.75446 2.28713 0
M  V30 20 O -3.64479 1.24279 2.55675 0
M  V30 21 N -3.52156 2.74048 0.334434 0
M  V30 22 H 6.69027 0.323944 -0.136458 0
M  V30 23 H 6.09775 1.16615 -1.58147 0
M  V30 24 H 5.05016 -0.285275 1.59685 0
M  V30 25 H 2.68054 -0.810957 2.17989 0
M  V30 26 H 1.45256 0.352308 -1.68696 0
M  V30 27 H 3.77877 0.875046 -2.27871 0
M  V30 28 H 0.517549 -1.29983 1.55029 0
M  V30 29 H 0.535968 -1.82989 -1.07427 0
M  V30 30 H -1.48932 -3.11533 -1.85693 0
M  V30 31 H -3.94454 -3.11764 -2.08835 0
M  V30 32 H -5.31899 -1.4308 -0.981413 0
M  V30 33 H -4.27249 0.314588 0.398708 0
M  V30 34 H -0.125017 0.869687 2.14577 0
M  V30 35 H 0.107219 1.47398 0.448606 0
M  V30 36 H -3.18662 2.52313 -0.620102 0
M  V30 37 H -3.44161 3.77147 0.472169 0
M  V30 END ATOM
M  V30 BEGIN BOND
M  V30 1 1 1 2
M  V30 2 2 2 3
M  V30 3 1 3 4
M  V30 4 2 4 5
M  V30 5 1 5 6
M  V30 6 2 6 7
M  V30 7 1 5 8
M  V30 8 1 8 9
M  V30 9 1 9 10
M  V30 10 2 10 11
M  V30 11 1 11 12
M  V30 12 2 12 13
M  V30 13 1 13 14
M  V30 14 2 14 15
M  V30 15 1 15 16
M  V30 16 1 16 17
M  V30 17 1 16 18
M  V30 18 2 18 19
M  V30 19 2 18 20
M  V30 20 1 18 21
M  V30 21 1 7 2
M  V30 22 1 17 8
M  V30 23 1 15 10
M  V30 24 1 1 22
M  V30 25 1 1 23
M  V30 26 1 3 24
M  V30 27 1 4 25
M  V30 28 1 6 26
M  V30 29 1 7 27
M  V30 30 1 8 28 CFG=1
M  V30 31 1 9 29
M  V30 32 1 11 30
M  V30 33 1 12 31
M  V30 34 1 13 32
M  V30 35 1 14 33
M  V30 36 1 17 34
M  V30 37 1 17 35
M  V30 38 1 21 36
M  V30 39 1 21 37
M  V30 END BOND
M  V30 END CTAB
M  END
