
     RDKit          3D

  0  0  0  0  0  0  0  0  0  0999 V3000
M  V30 BEGIN CTAB
M  V30 COUNTS 26 26 0 0 0
M  V30 BEGIN ATOM
M  V30 1 C -2.01736 -0.993367 0.538197 0
M  V30 2 C -1.88803 0.536685 0.527437 0
M  V30 3 O -1.67927 0.907485 -0.767135 0
M  V30 4 C -0.509671 1.55205 -1.0565 0
M  V30 5 C 0.647395 0.684776 -0.734709 0
M  V30 6 N 1.39083 0.757258 0.374637 0
M  V30 7 C 2.43308 -0.044624 0.634869 0
M  V30 8 N 3.1869 0.0798532 1.83282 0
M  V30 9 N 2.7616 -0.988245 -0.273331 0
M  V30 10 C 2.0404 -1.10564 -1.41698 0
M  V30 11 N 0.990588 -0.270191 -1.63932 0
M  V30 12 N 2.40701 -2.10346 -2.35143 0
M  V30 13 C -3.18655 1.05888 1.10512 0
M  V30 14 H -2.82743 -1.33201 1.19682 0
M  V30 15 H -1.02136 -1.44426 0.823388 0
M  V30 16 H -2.22278 -1.37913 -0.48184 0
M  V30 17 H -1.04091 0.837303 1.17301 0
M  V30 18 H -0.449879 1.85878 -2.12469 0
M  V30 19 H -0.43206 2.46394 -0.398684 0
M  V30 20 H 4.21498 -0.0418249 1.90237 0
M  V30 21 H 2.67021 0.310414 2.70712 0
M  V30 22 H 1.85391 -2.98401 -2.35133 0
M  V30 23 H 3.18909 -2.0082 -3.03092 0
M  V30 24 H -3.55037 0.380561 1.90447 0
M  V30 25 H -3.0453 2.05673 1.60787 0
M  V30 26 H -3.91502 1.21024 0.298749 0
M  V30 END ATOM
M  V30 BEGIN BOND
M  V30 1 1 1 2
M  V30 2 1 2 3
M  V30 3 1 3 4
M  V30 4 1 4 5
M  V30 5 2 5 6
M  V30 6 1 6 7
M  V30 7 1 7 8
M  V30 8 2 7 9
M  V30 9 1 9 10
M  V30 10 2 10 11
M  V30 11 1 10 12
M  V30 12 1 2 13
M  V30 13 1 11 5
M  V30 14 1 1 14
M  V30 15 1 1 15
M  V30 16 1 1 16
M  V30 17 1 2 17
M  V30 18 1 4 18
M  V30 19 1 4 19
M  V30 20 1 8 20
M  V30 21 1 8 21
M  V30 22 1 12 22
M  V30 23 1 12 23
M  V30 24 1 13 24
M  V30 25 1 13 25
M  V30 26 1 13 26
M  V30 END BOND
M  V30 END CTAB
M  END
