
     RDKit          3D

  0  0  0  0  0  0  0  0  0  0999 V3000
M  V30 BEGIN CTAB
M  V30 COUNTS 27 27 0 0 0
M  V30 BEGIN ATOM
M  V30 1 N -1.22851 -1.98318 -0.709607 0
M  V30 2 C -1.33011 -0.982077 0.301188 0 CFG=2
M  V30 3 C -1.9005 0.297322 -0.233145 0
M  V30 4 C -1.08775 0.875872 -1.35667 0
M  V30 5 C -2.00735 1.3361 0.887224 0
M  V30 6 C -0.17602 -0.829728 1.20292 0
M  V30 7 C 1.12278 -0.488175 0.594206 0
M  V30 8 N 2.00976 -1.4166 0.120165 0
M  V30 9 N 3.09041 -0.813265 -0.341122 0
M  V30 10 C 2.95091 0.522033 -0.186844 0
M  V30 11 N 1.74591 0.678366 0.383091 0
M  V30 12 N 3.88347 1.53317 -0.552031 0
M  V30 13 H -0.648614 -2.78026 -0.430469 0
M  V30 14 H -2.16623 -2.21086 -1.06369 0
M  V30 15 H -2.19824 -1.38455 0.96965 0
M  V30 16 H -2.93082 0.067044 -0.623387 0
M  V30 17 H -1.79471 1.1182 -2.20998 0
M  V30 18 H -0.616908 1.83331 -1.0493 0
M  V30 19 H -0.317891 0.175864 -1.73218 0
M  V30 20 H -2.88267 2.005 0.640417 0
M  V30 21 H -2.24313 0.883732 1.85433 0
M  V30 22 H -1.10568 1.95402 0.965436 0
M  V30 23 H -0.418014 -0.0270627 1.97136 0
M  V30 24 H -0.073225 -1.75041 1.85853 0
M  V30 25 H 1.85345 -2.45457 0.123152 0
M  V30 26 H 4.9077 1.36011 -0.53964 0
M  V30 27 H 3.56198 2.48059 -0.843604 0
M  V30 END ATOM
M  V30 BEGIN BOND
M  V30 1 1 1 2
M  V30 2 1 2 3
M  V30 3 1 3 4
M  V30 4 1 3 5
M  V30 5 1 2 6
M  V30 6 1 6 7
M  V30 7 1 7 8
M  V30 8 1 8 9
M  V30 9 2 9 10
M  V30 10 1 10 11
M  V30 11 1 10 12
M  V30 12 2 11 7
M  V30 13 1 1 13
M  V30 14 1 1 14
M  V30 15 1 2 15 CFG=1
M  V30 16 1 3 16
M  V30 17 1 4 17
M  V30 18 1 4 18
M  V30 19 1 4 19
M  V30 20 1 5 20
M  V30 21 1 5 21
M  V30 22 1 5 22
M  V30 23 1 6 23
M  V30 24 1 6 24
M  V30 25 1 8 25
M  V30 26 1 12 26
M  V30 27 1 12 27
M  V30 END BOND
M  V30 END CTAB
M  END
