
     RDKit          3D

  0  0  0  0  0  0  0  0  0  0999 V3000
M  V30 BEGIN CTAB
M  V30 COUNTS 25 25 0 0 0
M  V30 BEGIN ATOM
M  V30 1 C -2.64799 1.1759 0.537332 0
M  V30 2 C -2.5934 0.137054 -0.560993 0
M  V30 3 S -1.56949 -1.26829 -0.140281 0
M  V30 4 C 0.144716 -0.885077 0.0115559 0
M  V30 5 C 1.02074 -1.89337 0.336327 0
M  V30 6 C 2.36731 -1.69176 0.47214 0
M  V30 7 C 2.86815 -0.423825 0.275119 0
M  V30 8 C 1.98912 0.583177 -0.0496657 0
M  V30 9 N 0.656064 0.33827 -0.174458 0
M  V30 10 N 2.49413 1.91749 -0.259351 0
M  V30 11 N 4.25945 -0.200772 0.4115 0
M  V30 12 C -4.02069 -0.372466 -0.752877 0
M  V30 13 H -1.74152 1.80797 0.586449 0
M  V30 14 H -2.86018 0.648649 1.48935 0
M  V30 15 H -3.50147 1.8558 0.297234 0
M  V30 16 H -2.25269 0.637349 -1.49798 0
M  V30 17 H 0.642534 -2.88859 0.492909 0
M  V30 18 H 3.04472 -2.50661 0.730733 0
M  V30 19 H 1.95983 2.77375 -0.00770907 0
M  V30 20 H 3.44532 1.99239 -0.686102 0
M  V30 21 H 4.60561 0.155393 1.32428 0
M  V30 22 H 4.87803 -0.402278 -0.406578 0
M  V30 23 H -4.07947 -1.47819 -0.67018 0
M  V30 24 H -4.72008 0.0404824 -0.0013892 0
M  V30 25 H -4.38875 -0.0524579 -1.75736 0
M  V30 END ATOM
M  V30 BEGIN BOND
M  V30 1 1 1 2
M  V30 2 1 2 3
M  V30 3 1 3 4
M  V30 4 2 4 5
M  V30 5 1 5 6
M  V30 6 2 6 7
M  V30 7 1 7 8
M  V30 8 2 8 9
M  V30 9 1 8 10
M  V30 10 1 7 11
M  V30 11 1 2 12
M  V30 12 1 9 4
M  V30 13 1 1 13
M  V30 14 1 1 14
M  V30 15 1 1 15
M  V30 16 1 2 16
M  V30 17 1 5 17
M  V30 18 1 6 18
M  V30 19 1 10 19
M  V30 20 1 10 20
M  V30 21 1 11 21
M  V30 22 1 11 22
M  V30 23 1 12 23
M  V30 24 1 12 24
M  V30 25 1 12 25
M  V30 END BOND
M  V30 END CTAB
M  END
