
     RDKit          3D

  0  0  0  0  0  0  0  0  0  0999 V3000
M  V30 BEGIN CTAB
M  V30 COUNTS 30 30 0 0 0
M  V30 BEGIN ATOM
M  V30 1 N -3.4776 0.574028 0.0921353 0
M  V30 2 C -2.54506 -0.437574 -0.267889 0
M  V30 3 S -3.06588 -1.75717 -1.07617 0
M  V30 4 C -1.10341 -0.327373 0.0723353 0
M  V30 5 N -1.03129 -0.245098 1.53008 0
M  V30 6 C -0.359433 -1.4987 -0.46867 0
M  V30 7 C 1.03011 -1.63916 0.0570467 0
M  V30 8 C 2.05979 -0.944336 -0.811241 0
M  V30 9 C 2.57994 0.313649 -0.176187 0
M  V30 10 C 1.77649 1.53394 -0.505425 0
M  V30 11 C 0.495964 1.57861 0.294774 0
M  V30 12 C -0.616406 0.985996 -0.50783 0
M  V30 13 H -3.66792 1.34861 -0.568256 0
M  V30 14 H -3.95599 0.529071 1.00524 0
M  V30 15 H -1.4016 -1.1578 1.92178 0
M  V30 16 H -1.76488 0.468074 1.80227 0
M  V30 17 H -0.31922 -1.4132 -1.56356 0
M  V30 18 H -0.933998 -2.42853 -0.24807 0
M  V30 19 H 1.12499 -1.31362 1.12768 0
M  V30 20 H 1.29234 -2.72813 0.0522885 0
M  V30 21 H 1.59074 -0.752513 -1.81237 0
M  V30 22 H 2.93759 -1.596 -1.01211 0
M  V30 23 H 3.64892 0.520329 -0.474568 0
M  V30 24 H 2.61232 0.167015 0.919063 0
M  V30 25 H 1.53122 1.62068 -1.56609 0
M  V30 26 H 2.39539 2.42891 -0.240063 0
M  V30 27 H 0.298037 2.64301 0.558664 0
M  V30 28 H 0.645195 1.04447 1.23977 0
M  V30 29 H -1.45493 1.71318 -0.566406 0
M  V30 30 H -0.321436 0.76963 -1.55812 0
M  V30 END ATOM
M  V30 BEGIN BOND
M  V30 1 1 1 2
M  V30 2 2 2 3
M  V30 3 1 2 4
M  V30 4 1 4 5
M  V30 5 1 4 6
M  V30 6 1 6 7
M  V30 7 1 7 8
M  V30 8 1 8 9
M  V30 9 1 9 10
M  V30 10 1 10 11
M  V30 11 1 11 12
M  V30 12 1 12 4
M  V30 13 1 1 13
M  V30 14 1 1 14
M  V30 15 1 5 15
M  V30 16 1 5 16
M  V30 17 1 6 17
M  V30 18 1 6 18
M  V30 19 1 7 19
M  V30 20 1 7 20
M  V30 21 1 8 21
M  V30 22 1 8 22
M  V30 23 1 9 23
M  V30 24 1 9 24
M  V30 25 1 10 25
M  V30 26 1 10 26
M  V30 27 1 11 27
M  V30 28 1 11 28
M  V30 29 1 12 29
M  V30 30 1 12 30
M  V30 END BOND
M  V30 END CTAB
M  END
