
     RDKit          3D

  0  0  0  0  0  0  0  0  0  0999 V3000
M  V30 BEGIN CTAB
M  V30 COUNTS 26 28 0 0 0
M  V30 BEGIN ATOM
M  V30 1 N -2.72443 -2.20732 0.566201 0
M  V30 2 C -1.44106 -1.61613 0.360219 0
M  V30 3 C -1.2901 -0.250167 0.162598 0
M  V30 4 C -2.28418 0.852413 0.113402 0
M  V30 5 C -1.46942 2.0973 -0.133612 0
M  V30 6 C -0.0583651 1.64603 -0.212786 0
M  V30 7 C -0.0501791 0.300553 -0.0336631 0
M  V30 8 C 1.11551 -0.435515 -0.050481 0
M  V30 9 C 0.979006 -1.78918 0.144064 0
M  V30 10 C -0.282177 -2.36558 0.345861 0
M  V30 11 C 2.30799 0.221233 -0.256211 0
M  V30 12 N 3.4873 -0.549594 -0.26972 0
M  V30 13 C 2.32177 1.61354 -0.443766 0
M  V30 14 C 1.14733 2.32318 -0.422547 0
M  V30 15 H -2.93762 -2.78404 1.43044 0
M  V30 16 H -3.49099 -2.1009 -0.107909 0
M  V30 17 H -2.81578 0.968177 1.07889 0
M  V30 18 H -2.97689 0.719143 -0.739938 0
M  V30 19 H -1.6255 2.86973 0.65485 0
M  V30 20 H -1.73413 2.5704 -1.10486 0
M  V30 21 H 1.86674 -2.40095 0.138111 0
M  V30 22 H -0.360988 -3.42817 0.495752 0
M  V30 23 H 4.16699 -0.496904 0.510179 0
M  V30 24 H 3.69594 -1.1844 -1.06214 0
M  V30 25 H 3.29861 2.04478 -0.598013 0
M  V30 26 H 1.15463 3.38237 -0.564916 0
M  V30 END ATOM
M  V30 BEGIN BOND
M  V30 1 1 1 2
M  V30 2 2 2 3
M  V30 3 1 3 4
M  V30 4 1 4 5
M  V30 5 1 5 6
M  V30 6 2 6 7
M  V30 7 1 7 8
M  V30 8 1 8 9
M  V30 9 2 9 10
M  V30 10 2 8 11
M  V30 11 1 11 12
M  V30 12 1 11 13
M  V30 13 2 13 14
M  V30 14 1 10 2
M  V30 15 1 7 3
M  V30 16 1 14 6
M  V30 17 1 1 15
M  V30 18 1 1 16
M  V30 19 1 4 17
M  V30 20 1 4 18
M  V30 21 1 5 19
M  V30 22 1 5 20
M  V30 23 1 9 21
M  V30 24 1 10 22
M  V30 25 1 12 23
M  V30 26 1 12 24
M  V30 27 1 13 25
M  V30 28 1 14 26
M  V30 END BOND
M  V30 END CTAB
M  END
