
     RDKit          3D

  0  0  0  0  0  0  0  0  0  0999 V3000
M  V30 BEGIN CTAB
M  V30 COUNTS 13 13 0 0 0
M  V30 BEGIN ATOM
M  V30 1 N -1.56858 -0.357069 0.653844 0
M  V30 2 C -0.700676 -0.227046 -0.489783 0 CFG=1
M  V30 3 C 0.203781 0.952572 -0.560595 0
M  V30 4 C 0.759175 -0.417434 -0.362773 0 CFG=1
M  V30 5 N 1.39164 -0.640525 0.915282 0
M  V30 6 H -2.29975 -1.07141 0.518979 0
M  V30 7 H -2.0214 0.536231 0.862334 0
M  V30 8 H -1.18138 -0.522346 -1.45276 0
M  V30 9 H 0.431843 1.42681 -1.52757 0
M  V30 10 H 0.153211 1.66286 0.290102 0
M  V30 11 H 1.2681 -0.898065 -1.22818 0
M  V30 12 H 1.13559 0.0918747 1.62759 0
M  V30 13 H 2.42845 -0.536464 0.753528 0
M  V30 END ATOM
M  V30 BEGIN BOND
M  V30 1 1 1 2
M  V30 2 1 2 3
M  V30 3 1 3 4
M  V30 4 1 4 5
M  V30 5 1 4 2
M  V30 6 1 1 6
M  V30 7 1 1 7
M  V30 8 1 2 8 CFG=3
M  V30 9 1 3 9
M  V30 10 1 3 10
M  V30 11 1 4 11 CFG=3
M  V30 12 1 5 12
M  V30 13 1 5 13
M  V30 END BOND
M  V30 END CTAB
M  END
