
     RDKit          3D

  0  0  0  0  0  0  0  0  0  0999 V3000
M  V30 BEGIN CTAB
M  V30 COUNTS 40 43 0 0 0
M  V30 BEGIN ATOM
M  V30 1 N 5.31984 2.55157 -0.503972 0
M  V30 2 C 4.85227 1.22475 -0.401958 0
M  V30 3 N 5.66102 0.150975 -0.405242 0
M  V30 4 C 5.18192 -1.10049 -0.306364 0
M  V30 5 N 6.10402 -2.18175 -0.31755 0
M  V30 6 C 3.81297 -1.34062 -0.195142 0
M  V30 7 F 3.34726 -2.59193 -0.0972261 0
M  V30 8 C 2.97899 -0.272195 -0.189759 0
M  V30 9 C 1.5081 -0.419131 -0.0758562 0
M  V30 10 N 0.58433 0.521431 -0.0574201 0
M  V30 11 C -0.663789 0.213465 0.0487229 0
M  V30 12 C -0.990387 -1.12769 0.141359 0
M  V30 13 S 0.57765 -1.8463 0.0648884 0
M  V30 14 C -2.29532 -1.74411 0.267537 0
M  V30 15 C -2.76971 -2.60747 -0.683267 0
M  V30 16 C -4.03962 -3.19596 -0.542539 0
M  V30 17 N -4.78997 -2.90298 0.539526 0
M  V30 18 C -4.35276 -2.0643 1.48282 0
M  V30 19 C -3.08528 -1.47064 1.35221 0
M  V30 20 C -1.75128 1.23227 0.0750216 0
M  V30 21 C -2.67304 1.21474 -0.930872 0
M  V30 22 C -3.72021 2.14425 -0.965826 0
M  V30 23 C -3.79151 3.07686 0.0461084 0
M  V30 24 F -4.81299 3.98076 0.00868127 0
M  V30 25 C -2.85339 3.09374 1.06872 0
M  V30 26 C -1.81666 2.15393 1.0805 0
M  V30 27 C 3.48118 0.99809 -0.291271 0
M  V30 28 F 2.66097 2.10164 -0.288707 0
M  V30 29 H 5.65334 3.06275 0.331402 0
M  V30 30 H 5.33106 3.02335 -1.42441 0
M  V30 31 H 6.9521 -2.08178 -0.910839 0
M  V30 32 H 5.90291 -3.02806 0.261229 0
M  V30 33 H -2.21032 -2.87457 -1.56588 0
M  V30 34 H -4.44468 -3.87066 -1.25694 0
M  V30 35 H -4.98669 -1.85816 2.33251 0
M  V30 36 H -2.72856 -0.799979 2.10055 0
M  V30 37 H -2.65292 0.497231 -1.74659 0
M  V30 38 H -4.43083 2.09989 -1.77725 0
M  V30 39 H -2.95942 3.84593 1.83298 0
M  V30 40 H -1.09059 2.19115 1.90012 0
M  V30 END ATOM
M  V30 BEGIN BOND
M  V30 1 1 1 2
M  V30 2 2 2 3
M  V30 3 1 3 4
M  V30 4 1 4 5
M  V30 5 2 4 6
M  V30 6 1 6 7
M  V30 7 1 6 8
M  V30 8 1 8 9
M  V30 9 2 9 10
M  V30 10 1 10 11
M  V30 11 2 11 12
M  V30 12 1 12 13
M  V30 13 1 12 14
M  V30 14 2 14 15
M  V30 15 1 15 16
M  V30 16 2 16 17
M  V30 17 1 17 18
M  V30 18 2 18 19
M  V30 19 1 11 20
M  V30 20 2 20 21
M  V30 21 1 21 22
M  V30 22 2 22 23
M  V30 23 1 23 24
M  V30 24 1 23 25
M  V30 25 2 25 26
M  V30 26 2 8 27
M  V30 27 1 27 28
M  V30 28 1 27 2
M  V30 29 1 13 9
M  V30 30 1 19 14
M  V30 31 1 26 20
M  V30 32 1 1 29
M  V30 33 1 1 30
M  V30 34 1 5 31
M  V30 35 1 5 32
M  V30 36 1 15 33
M  V30 37 1 16 34
M  V30 38 1 18 35
M  V30 39 1 19 36
M  V30 40 1 21 37
M  V30 41 1 22 38
M  V30 42 1 25 39
M  V30 43 1 26 40
M  V30 END BOND
M  V30 END CTAB
M  END
