
     RDKit          3D

  0  0  0  0  0  0  0  0  0  0999 V3000
M  V30 BEGIN CTAB
M  V30 COUNTS 22 22 0 0 0
M  V30 BEGIN ATOM
M  V30 1 N 3.56522 0.18237 -0.226785 0
M  V30 2 C 2.14897 -0.0171228 -0.200388 0
M  V30 3 C 1.6424 -1.18856 -0.704636 0
M  V30 4 C 0.291483 -1.41927 -0.697737 0
M  V30 5 C -0.606231 -0.461369 -0.174138 0
M  V30 6 C -0.069981 0.712664 0.327649 0
M  V30 7 C 1.3189 0.939995 0.316619 0
M  V30 8 C -0.869813 1.80454 0.879474 0
M  V30 9 F -1.78029 2.37606 0.0132257 0
M  V30 10 F -1.47592 1.55723 2.08831 0
M  V30 11 F 0.0486837 2.87792 1.15742 0
M  V30 12 C -1.96873 -0.825444 -0.190864 0
M  V30 13 N -2.32929 -1.95358 -0.738716 0
M  V30 14 N -3.07611 -0.151041 0.333819 0
M  V30 15 H 4.05743 0.12157 -1.13023 0
M  V30 16 H 4.06186 0.383879 0.66796 0
M  V30 17 H 2.29166 -1.96548 -1.1227 0
M  V30 18 H -0.0786577 -2.37021 -1.10828 0
M  V30 19 H 1.781 1.83188 0.695701 0
M  V30 20 H -1.86204 -2.68573 -1.18459 0
M  V30 21 H -3.6748 0.426862 -0.316767 0
M  V30 22 H -3.41575 -0.177172 1.31565 0
M  V30 END ATOM
M  V30 BEGIN BOND
M  V30 1 1 1 2
M  V30 2 2 2 3
M  V30 3 1 3 4
M  V30 4 2 4 5
M  V30 5 1 5 6
M  V30 6 2 6 7
M  V30 7 1 6 8
M  V30 8 1 8 9
M  V30 9 1 8 10
M  V30 10 1 8 11
M  V30 11 1 5 12
M  V30 12 2 12 13 CFG=2
M  V30 13 1 12 14
M  V30 14 1 7 2
M  V30 15 1 1 15
M  V30 16 1 1 16
M  V30 17 1 3 17
M  V30 18 1 4 18
M  V30 19 1 7 19
M  V30 20 1 13 20
M  V30 21 1 14 21
M  V30 22 1 14 22
M  V30 END BOND
M  V30 END CTAB
M  END
