
     RDKit          3D

  0  0  0  0  0  0  0  0  0  0999 V3000
M  V30 BEGIN CTAB
M  V30 COUNTS 63 66 0 0 0
M  V30 BEGIN ATOM
M  V30 1 N -6.36442 4.33712 2.02818 0
M  V30 2 C -5.4828 3.23368 2.03214 0
M  V30 3 N -4.98998 2.80498 3.13117 0
M  V30 4 C -5.145 2.59463 0.77393 0
M  V30 5 C -4.27635 1.5062 0.77429 0
M  V30 6 C -3.89854 0.83758 -0.364476 0
M  V30 7 O -3.02319 -0.252952 -0.3274 0
M  V30 8 C -2.69966 -0.866653 -1.54369 0
M  V30 9 C -1.74903 -2.02954 -1.37465 0
M  V30 10 N -0.533126 -1.5607 -0.777005 0
M  V30 11 C 0.694166 -1.56272 -1.45218 0
M  V30 12 O 0.694898 -2.00883 -2.65281 0
M  V30 13 C 1.95888 -1.09206 -0.876259 0
M  V30 14 C 2.04374 -0.615935 0.410191 0
M  V30 15 C 3.25828 -0.167576 0.950667 0
M  V30 16 C 4.4133 -0.187251 0.209165 0
M  V30 17 C 4.33188 -0.672123 -1.10212 0
M  V30 18 C 3.12855 -1.10773 -1.61186 0
M  V30 19 C 5.69821 0.289478 0.691774 0
M  V30 20 C 6.69917 -0.661976 0.925724 0
M  V30 21 C 7.92553 -0.311013 1.40291 0
M  V30 22 C 8.19723 1.01625 1.66565 0
M  V30 23 C 7.23241 1.95573 1.44241 0
M  V30 24 C 5.97126 1.61103 0.953167 0
M  V30 25 S 4.81717 2.8796 0.668323 0
M  V30 26 N 4.30382 2.86653 -1.00342 0
M  V30 27 O 3.64432 2.89136 1.55343 0
M  V30 28 O 5.5146 4.22735 0.848014 0
M  V30 29 C -2.36675 -3.16698 -0.676042 0
M  V30 30 C -2.86128 -4.28261 -1.34413 0
M  V30 31 C -3.43805 -5.34517 -0.702643 0
M  V30 32 C -3.55014 -5.3418 0.671663 0
M  V30 33 C -3.07718 -4.26527 1.36768 0
M  V30 34 C -2.49828 -3.20123 0.709072 0
M  V30 35 C -4.43323 1.30055 -1.57238 0
M  V30 36 C -5.28819 2.37151 -1.57442 0
M  V30 37 C -5.65133 3.02211 -0.433514 0
M  V30 38 H -6.11219 5.21027 2.53507 0
M  V30 39 H -7.26196 4.26182 1.51435 0
M  V30 40 H -5.23293 3.26387 4.03265 0
M  V30 41 H -3.86784 1.15724 1.72426 0
M  V30 42 H -3.58542 -1.18611 -2.12078 0
M  V30 43 H -2.17744 -0.106852 -2.16733 0
M  V30 44 H -1.50697 -2.37361 -2.42304 0
M  V30 45 H -0.576399 -1.20665 0.198655 0
M  V30 46 H 1.15247 -0.585428 1.02329 0
M  V30 47 H 3.26819 0.174123 1.97665 0
M  V30 48 H 5.24939 -0.677385 -1.65886 0
M  V30 49 H 3.09267 -1.47747 -2.62703 0
M  V30 50 H 6.48579 -1.69729 0.720302 0
M  V30 51 H 8.69289 -1.0453 1.58162 0
M  V30 52 H 9.17691 1.30329 2.04811 0
M  V30 53 H 7.44482 3.01668 1.65095 0
M  V30 54 H 3.51716 3.57212 -1.05704 0
M  V30 55 H 5.07971 3.29225 -1.56236 0
M  V30 56 H -2.76709 -4.2725 -2.42216 0
M  V30 57 H -3.79307 -6.16894 -1.31846 0
M  V30 58 H -4.01404 -6.20512 1.13538 0
M  V30 59 H -3.1684 -4.26873 2.44986 0
M  V30 60 H -2.14092 -2.37652 1.30128 0
M  V30 61 H -4.15451 0.794797 -2.48569 0
M  V30 62 H -5.67647 2.69468 -2.52701 0
M  V30 63 H -6.32525 3.86121 -0.465159 0
M  V30 END ATOM
M  V30 BEGIN BOND
M  V30 1 1 1 2
M  V30 2 2 2 3 CFG=2
M  V30 3 1 2 4
M  V30 4 2 4 5
M  V30 5 1 5 6
M  V30 6 1 6 7
M  V30 7 1 7 8
M  V30 8 1 8 9
M  V30 9 1 9 10
M  V30 10 1 10 11
M  V30 11 2 11 12
M  V30 12 1 11 13
M  V30 13 2 13 14
M  V30 14 1 14 15
M  V30 15 2 15 16
M  V30 16 1 16 17
M  V30 17 2 17 18
M  V30 18 1 16 19
M  V30 19 2 19 20
M  V30 20 1 20 21
M  V30 21 2 21 22
M  V30 22 1 22 23
M  V30 23 2 23 24
M  V30 24 1 24 25
M  V30 25 1 25 26
M  V30 26 2 25 27
M  V30 27 2 25 28
M  V30 28 1 9 29
M  V30 29 2 29 30
M  V30 30 1 30 31
M  V30 31 2 31 32
M  V30 32 1 32 33
M  V30 33 2 33 34
M  V30 34 2 6 35
M  V30 35 1 35 36
M  V30 36 2 36 37
M  V30 37 1 37 4
M  V30 38 1 18 13
M  V30 39 1 24 19
M  V30 40 1 34 29
M  V30 41 1 1 38
M  V30 42 1 1 39
M  V30 43 1 3 40
M  V30 44 1 5 41
M  V30 45 1 8 42
M  V30 46 1 8 43
M  V30 47 1 9 44
M  V30 48 1 10 45
M  V30 49 1 14 46
M  V30 50 1 15 47
M  V30 51 1 17 48
M  V30 52 1 18 49
M  V30 53 1 20 50
M  V30 54 1 21 51
M  V30 55 1 22 52
M  V30 56 1 23 53
M  V30 57 1 26 54
M  V30 58 1 26 55
M  V30 59 1 30 56
M  V30 60 1 31 57
M  V30 61 1 32 58
M  V30 62 1 33 59
M  V30 63 1 34 60
M  V30 64 1 35 61
M  V30 65 1 36 62
M  V30 66 1 37 63
M  V30 END BOND
M  V30 END CTAB
M  END
