
     RDKit          3D

  0  0  0  0  0  0  0  0  0  0999 V3000
M  V30 BEGIN CTAB
M  V30 COUNTS 42 42 0 0 0
M  V30 BEGIN ATOM
M  V30 1 N -4.88366 0.278577 -2.68802 0
M  V30 2 C -4.25752 0.343833 -1.40096 0
M  V30 3 C -3.44562 -0.901505 -1.13616 0
M  V30 4 N -2.83753 -0.761175 0.196154 0
M  V30 5 C -1.5727 -0.125681 0.245069 0
M  V30 6 O -1.17184 0.159142 -0.975423 0
M  V30 7 N -0.829468 0.176951 1.34294 0
M  V30 8 C -0.0853657 0.479943 2.44203 0
M  V30 9 C 1.27399 -0.201401 2.44379 0
M  V30 10 C 2.11997 0.132845 1.28383 0
M  V30 11 C 2.16711 -0.655477 0.15911 0
M  V30 12 C 2.95624 -0.341414 -0.954464 0
M  V30 13 C 3.71036 0.788191 -0.929306 0
M  V30 14 C 3.69006 1.60098 0.177981 0
M  V30 15 C 2.91169 1.27457 1.25331 0
M  V30 16 S 4.70805 1.17991 -2.32988 0
M  V30 17 O 3.98164 0.748261 -3.55553 0
M  V30 18 O 4.88035 2.67524 -2.3401 0
M  V30 19 N 6.26282 0.471453 -2.23098 0
M  V30 20 C -3.51597 -1.27702 1.28088 0
M  V30 21 O -4.67804 -1.81425 0.97313 0
M  V30 22 C -3.16172 -1.33403 2.697 0
M  V30 23 H -4.54102 -0.580396 -3.19002 0
M  V30 24 H -5.92032 0.344296 -2.64602 0
M  V30 25 H -3.61179 1.24204 -1.29441 0
M  V30 26 H -5.07489 0.373005 -0.640236 0
M  V30 27 H -4.12889 -1.79089 -1.08268 0
M  V30 28 H -2.69569 -1.12966 -1.89318 0
M  V30 29 H 0.0689381 0.83184 0.567214 0
M  V30 30 H -0.55017 0.142088 3.43769 0
M  V30 31 H 0.124626 1.59658 2.58069 0
M  V30 32 H 1.81142 -0.00270051 3.40162 0
M  V30 33 H 1.05018 -1.31048 2.41563 0
M  V30 34 H 1.56284 -1.55391 0.147614 0
M  V30 35 H 2.9207 -1.02228 -1.76679 0
M  V30 36 H 4.31063 2.48243 0.127646 0
M  V30 37 H 2.90715 1.93656 2.12648 0
M  V30 38 H 6.36584 -0.367935 -2.85673 0
M  V30 39 H 6.49737 0.24812 -1.24605 0
M  V30 40 H -2.11967 -1.70833 2.83641 0
M  V30 41 H -3.39254 -0.460333 3.31024 0
M  V30 42 H -3.80757 -2.168 3.14404 0
M  V30 END ATOM
M  V30 BEGIN BOND
M  V30 1 1 1 2
M  V30 2 1 2 3
M  V30 3 1 3 4
M  V30 4 1 4 5
M  V30 5 2 5 6
M  V30 6 1 5 7
M  V30 7 1 7 8
M  V30 8 1 8 9
M  V30 9 1 9 10
M  V30 10 2 10 11
M  V30 11 1 11 12
M  V30 12 2 12 13
M  V30 13 1 13 14
M  V30 14 2 14 15
M  V30 15 1 13 16
M  V30 16 2 16 17
M  V30 17 2 16 18
M  V30 18 1 16 19
M  V30 19 1 4 20
M  V30 20 2 20 21
M  V30 21 1 20 22
M  V30 22 1 15 10
M  V30 23 1 1 23
M  V30 24 1 1 24
M  V30 25 1 2 25
M  V30 26 1 2 26
M  V30 27 1 3 27
M  V30 28 1 3 28
M  V30 29 1 7 29
M  V30 30 1 8 30
M  V30 31 1 8 31
M  V30 32 1 9 32
M  V30 33 1 9 33
M  V30 34 1 11 34
M  V30 35 1 12 35
M  V30 36 1 14 36
M  V30 37 1 15 37
M  V30 38 1 19 38
M  V30 39 1 19 39
M  V30 40 1 22 40
M  V30 41 1 22 41
M  V30 42 1 22 42
M  V30 END BOND
M  V30 END CTAB
M  END
