
     RDKit          3D

  0  0  0  0  0  0  0  0  0  0999 V3000
M  V30 BEGIN CTAB
M  V30 COUNTS 65 67 0 0 0
M  V30 BEGIN ATOM
M  V30 1 C -2.23306 -1.80558 1.83027 0 CFG=2
M  V30 2 C -2.8474 -2.72847 2.88837 0
M  V30 3 C -3.0737 -4.00405 2.10824 0
M  V30 4 C -3.21449 -3.6207 0.673826 0
M  V30 5 N -2.89984 -2.22056 0.599399 0
M  V30 6 C -3.16573 -1.31514 -0.466616 0
M  V30 7 O -3.73585 -1.74596 -1.4858 0
M  V30 8 N -2.79368 0.0296367 -0.367639 0
M  V30 9 S -3.12867 1.11977 -1.67443 0
M  V30 10 O -2.27838 2.33154 -1.59704 0
M  V30 11 O -2.83658 0.429527 -2.96611 0
M  V30 12 C -4.84408 1.49496 -1.57847 0
M  V30 13 C -5.27571 2.53677 -0.763233 0
M  V30 14 C -6.60775 2.87514 -0.645115 0
M  V30 15 C -7.58059 2.17791 -1.34587 0
M  V30 16 C -9.02278 2.53755 -1.21977 0
M  V30 17 C -7.1553 1.1468 -2.15364 0
M  V30 18 C -5.80876 0.804474 -2.27351 0
M  V30 19 C -0.783107 -2.09035 1.67402 0
M  V30 20 O -0.347247 -2.59341 0.607126 0
M  V30 21 N 0.0822084 -1.78607 2.74158 0
M  V30 22 C 1.49155 -2.03477 2.63683 0
M  V30 23 C 2.06537 -1.19636 1.55537 0
M  V30 24 O 1.33891 -0.406906 0.914436 0
M  V30 25 N 3.42492 -1.3114 1.27627 0
M  V30 26 C 4.20365 -0.624777 0.305276 0
M  V30 27 C 3.77998 0.4367 -0.446549 0
M  V30 28 C 4.61239 1.05122 -1.39529 0
M  V30 29 C 5.89908 0.626227 -1.62557 0
M  V30 30 C 6.32571 -0.443167 -0.867829 0
M  V30 31 C 5.5211 -1.0522 0.0625862 0
M  V30 32 S 6.93035 1.38262 -2.81713 0
M  V30 33 O 8.00585 0.409829 -3.2833 0
M  V30 34 O 6.15388 1.72587 -4.06518 0
M  V30 35 N 7.72378 2.75494 -2.21002 0
M  V30 36 C 8.34617 2.89098 -1.10998 0
M  V30 37 N 8.93776 4.15874 -0.820748 0
M  V30 38 N 8.47966 1.85121 -0.160743 0
M  V30 39 H -2.46871 -0.781205 2.09868 0
M  V30 40 H -3.81896 -2.31746 3.23544 0
M  V30 41 H -2.1793 -2.87411 3.74513 0
M  V30 42 H -3.97611 -4.55984 2.45982 0
M  V30 43 H -2.18515 -4.66294 2.24408 0
M  V30 44 H -2.49541 -4.21809 0.0619911 0
M  V30 45 H -4.26312 -3.7922 0.322916 0
M  V30 46 H -2.31502 0.42688 0.463201 0
M  V30 47 H -4.51074 3.07515 -0.221738 0
M  V30 48 H -6.93318 3.69325 -0.00465595 0
M  V30 49 H -9.23019 3.01445 -0.239811 0
M  V30 50 H -9.605 1.57751 -1.26117 0
M  V30 51 H -9.3824 3.19277 -2.0304 0
M  V30 52 H -7.87719 0.588077 -2.70706 0
M  V30 53 H -5.51693 -0.00517253 -2.92035 0
M  V30 54 H -0.307039 -1.37272 3.62449 0
M  V30 55 H 1.72422 -3.10191 2.42633 0
M  V30 56 H 2.01995 -1.79314 3.58503 0
M  V30 57 H 3.94721 -2.02894 1.89919 0
M  V30 58 H 2.78089 0.833906 -0.317981 0
M  V30 59 H 4.24728 1.9004 -1.98532 0
M  V30 60 H 7.35409 -0.803322 -1.04322 0
M  V30 61 H 5.87813 -1.89153 0.646281 0
M  V30 62 H 8.5115 5.03269 -1.13998 0
M  V30 63 H 9.83338 4.16429 -0.264442 0
M  V30 64 H 9.1602 1.06051 -0.332431 0
M  V30 65 H 7.91798 1.85017 0.707977 0
M  V30 END ATOM
M  V30 BEGIN BOND
M  V30 1 1 1 2
M  V30 2 1 2 3
M  V30 3 1 3 4
M  V30 4 1 4 5
M  V30 5 1 5 6
M  V30 6 2 6 7
M  V30 7 1 6 8
M  V30 8 1 8 9
M  V30 9 2 9 10
M  V30 10 2 9 11
M  V30 11 1 9 12
M  V30 12 2 12 13
M  V30 13 1 13 14
M  V30 14 2 14 15
M  V30 15 1 15 16
M  V30 16 1 15 17
M  V30 17 2 17 18
M  V30 18 1 1 19
M  V30 19 2 19 20
M  V30 20 1 19 21
M  V30 21 1 21 22
M  V30 22 1 22 23
M  V30 23 2 23 24
M  V30 24 1 23 25
M  V30 25 1 25 26
M  V30 26 2 26 27
M  V30 27 1 27 28
M  V30 28 2 28 29
M  V30 29 1 29 30
M  V30 30 2 30 31
M  V30 31 1 29 32
M  V30 32 2 32 33
M  V30 33 2 32 34
M  V30 34 1 32 35
M  V30 35 2 35 36
M  V30 36 1 36 37
M  V30 37 1 36 38
M  V30 38 1 5 1
M  V30 39 1 18 12
M  V30 40 1 31 26
M  V30 41 1 1 39 CFG=1
M  V30 42 1 2 40
M  V30 43 1 2 41
M  V30 44 1 3 42
M  V30 45 1 3 43
M  V30 46 1 4 44
M  V30 47 1 4 45
M  V30 48 1 8 46
M  V30 49 1 13 47
M  V30 50 1 14 48
M  V30 51 1 16 49
M  V30 52 1 16 50
M  V30 53 1 16 51
M  V30 54 1 17 52
M  V30 55 1 18 53
M  V30 56 1 21 54
M  V30 57 1 22 55
M  V30 58 1 22 56
M  V30 59 1 25 57
M  V30 60 1 27 58
M  V30 61 1 28 59
M  V30 62 1 30 60
M  V30 63 1 31 61
M  V30 64 1 37 62
M  V30 65 1 37 63
M  V30 66 1 38 64
M  V30 67 1 38 65
M  V30 END BOND
M  V30 END CTAB
M  END
