
     RDKit          3D

  0  0  0  0  0  0  0  0  0  0999 V3000
M  V30 BEGIN CTAB
M  V30 COUNTS 43 44 0 0 0
M  V30 BEGIN ATOM
M  V30 1 N 3.52899 3.18482 0.829916 0
M  V30 2 C 3.19034 1.81492 0.676839 0
M  V30 3 C 3.46575 1.11463 -0.48628 0
M  V30 4 C 3.13967 -0.218999 -0.64057 0
M  V30 5 C 2.51897 -0.909865 0.373469 0
M  V30 6 C 2.23568 -0.233658 1.53909 0
M  V30 7 C 2.56561 1.10289 1.6861 0
M  V30 8 N 2.20989 -2.27603 0.150876 0
M  V30 9 C 0.874196 -2.6295 -0.159879 0
M  V30 10 S 0.458282 -4.16814 -0.435202 0
M  V30 11 N -0.105531 -1.6093 -0.223913 0
M  V30 12 C -1.46379 -1.94302 -0.541793 0
M  V30 13 C -2.28882 -0.702347 -0.476601 0
M  V30 14 C -2.19625 0.306761 -1.40397 0
M  V30 15 C -2.94988 1.46778 -1.36297 0
M  V30 16 C -3.85268 1.63474 -0.333701 0
M  V30 17 C -3.95707 0.62549 0.608887 0
M  V30 18 C -3.20688 -0.528493 0.567069 0
M  V30 19 S -4.85767 3.06987 -0.183478 0
M  V30 20 O -4.19866 4.28659 -0.719198 0
M  V30 21 O -5.24354 3.27059 1.27552 0
M  V30 22 N -6.31068 2.73068 -1.09188 0
M  V30 23 C 3.23295 -3.26778 0.234072 0
M  V30 24 O 2.97231 -4.49472 0.0476745 0
M  V30 25 C 4.62782 -2.90708 0.537941 0
M  V30 26 H 3.71841 3.53028 1.79485 0
M  V30 27 H 3.60076 3.86552 0.0461568 0
M  V30 28 H 3.95628 1.63524 -1.30525 0
M  V30 29 H 3.3793 -0.733438 -1.58396 0
M  V30 30 H 1.74479 -0.767361 2.34723 0
M  V30 31 H 2.3335 1.61562 2.61249 0
M  V30 32 H 0.128413 -0.598972 -0.0466986 0
M  V30 33 H -1.54587 -2.39429 -1.55839 0
M  V30 34 H -1.83205 -2.68995 0.195289 0
M  V30 35 H -1.48952 0.195669 -2.22416 0
M  V30 36 H -2.86404 2.25391 -2.10237 0
M  V30 37 H -4.68323 0.775701 1.42277 0
M  V30 38 H -3.30447 -1.30501 1.31396 0
M  V30 39 H -5.97333 2.57603 -2.08964 0
M  V30 40 H -6.58186 1.74633 -0.789559 0
M  V30 41 H 4.68373 -1.84414 0.85129 0
M  V30 42 H 5.03304 -3.51283 1.37505 0
M  V30 43 H 5.30715 -3.06913 -0.325435 0
M  V30 END ATOM
M  V30 BEGIN BOND
M  V30 1 1 1 2
M  V30 2 2 2 3
M  V30 3 1 3 4
M  V30 4 2 4 5
M  V30 5 1 5 6
M  V30 6 2 6 7
M  V30 7 1 5 8
M  V30 8 1 8 9
M  V30 9 2 9 10
M  V30 10 1 9 11
M  V30 11 1 11 12
M  V30 12 1 12 13
M  V30 13 2 13 14
M  V30 14 1 14 15
M  V30 15 2 15 16
M  V30 16 1 16 17
M  V30 17 2 17 18
M  V30 18 1 16 19
M  V30 19 2 19 20
M  V30 20 2 19 21
M  V30 21 1 19 22
M  V30 22 1 8 23
M  V30 23 2 23 24
M  V30 24 1 23 25
M  V30 25 1 7 2
M  V30 26 1 18 13
M  V30 27 1 1 26
M  V30 28 1 1 27
M  V30 29 1 3 28
M  V30 30 1 4 29
M  V30 31 1 6 30
M  V30 32 1 7 31
M  V30 33 1 11 32
M  V30 34 1 12 33
M  V30 35 1 12 34
M  V30 36 1 14 35
M  V30 37 1 15 36
M  V30 38 1 17 37
M  V30 39 1 18 38
M  V30 40 1 22 39
M  V30 41 1 22 40
M  V30 42 1 25 41
M  V30 43 1 25 42
M  V30 44 1 25 43
M  V30 END BOND
M  V30 END CTAB
M  END
