
     RDKit          3D

  0  0  0  0  0  0  0  0  0  0999 V3000
M  V30 BEGIN CTAB
M  V30 COUNTS 46 47 0 0 0
M  V30 BEGIN ATOM
M  V30 1 C -2.29867 4.85232 -0.897868 0
M  V30 2 C -1.41262 4.66145 0.289199 0
M  V30 3 C -0.880561 3.3067 0.473823 0
M  V30 4 C -1.45392 2.429 1.40815 0
M  V30 5 C -0.988458 1.14409 1.60019 0
M  V30 6 C 0.0677967 0.66352 0.876176 0
M  V30 7 C 0.627735 1.55079 -0.0499902 0
M  V30 8 C 0.175577 2.84181 -0.256202 0
M  V30 9 S 0.964848 3.86466 -1.43442 0
M  V30 10 O 2.18768 3.097 -1.96017 0
M  V30 11 O 0.132655 4.10732 -2.65741 0
M  V30 12 N 1.61718 5.30232 -0.753377 0
M  V30 13 N 0.622067 -0.628073 0.957565 0
M  V30 14 C 0.084595 -1.78202 1.54738 0
M  V30 15 O -1.04187 -1.73605 2.09805 0
M  V30 16 C 0.770847 -3.08223 1.56836 0
M  V30 17 C 0.746491 -3.84357 0.274108 0
M  V30 18 C -0.646549 -4.1452 -0.203571 0
M  V30 19 C -0.591468 -4.19814 -1.72834 0
M  V30 20 O -0.368552 -2.87882 -2.12362 0
M  V30 21 C 0.978108 -2.59875 -1.91854 0
M  V30 22 C 1.61909 -3.37533 -0.815779 0
M  V30 23 N 0.089082 -3.9739 2.541 0
M  V30 24 H -2.4789 3.92255 -1.49417 0
M  V30 25 H -3.35146 5.16255 -0.602043 0
M  V30 26 H -1.95222 5.70778 -1.51469 0
M  V30 27 H -0.659656 5.47553 0.361426 0
M  V30 28 H -2.0712 4.85812 1.19543 0
M  V30 29 H -2.29332 2.81029 1.98349 0
M  V30 30 H -1.45461 0.497724 2.34378 0
M  V30 31 H 1.48191 1.19924 -0.655066 0
M  V30 32 H 1.11527 6.14903 -1.1036 0
M  V30 33 H 1.7364 5.25451 0.26494 0
M  V30 34 H 1.59055 -0.751823 0.527106 0
M  V30 35 H 1.81755 -3.02404 1.91265 0
M  V30 36 H 1.15535 -4.87873 0.57162 0
M  V30 37 H -1.36453 -3.32821 0.0265305 0
M  V30 38 H -1.07801 -5.07227 0.228924 0
M  V30 39 H 0.248384 -4.82084 -2.06443 0
M  V30 40 H -1.58408 -4.55748 -2.06718 0
M  V30 41 H 1.47644 -2.91831 -2.88608 0
M  V30 42 H 1.17839 -1.50438 -1.88013 0
M  V30 43 H 2.43912 -2.72883 -0.38494 0
M  V30 44 H 2.22439 -4.23505 -1.2592 0
M  V30 45 H 0.488486 -3.82253 3.494 0
M  V30 46 H 0.334656 -4.97374 2.28775 0
M  V30 END ATOM
M  V30 BEGIN BOND
M  V30 1 1 1 2
M  V30 2 1 2 3
M  V30 3 2 3 4
M  V30 4 1 4 5
M  V30 5 2 5 6
M  V30 6 1 6 7
M  V30 7 2 7 8
M  V30 8 1 8 9
M  V30 9 2 9 10
M  V30 10 2 9 11
M  V30 11 1 9 12
M  V30 12 1 6 13
M  V30 13 1 13 14
M  V30 14 2 14 15
M  V30 15 1 14 16
M  V30 16 1 16 17
M  V30 17 1 17 18
M  V30 18 1 18 19
M  V30 19 1 19 20
M  V30 20 1 20 21
M  V30 21 1 21 22
M  V30 22 1 16 23
M  V30 23 1 8 3
M  V30 24 1 22 17
M  V30 25 1 1 24
M  V30 26 1 1 25
M  V30 27 1 1 26
M  V30 28 1 2 27
M  V30 29 1 2 28
M  V30 30 1 4 29
M  V30 31 1 5 30
M  V30 32 1 7 31
M  V30 33 1 12 32
M  V30 34 1 12 33
M  V30 35 1 13 34
M  V30 36 1 16 35
M  V30 37 1 17 36
M  V30 38 1 18 37
M  V30 39 1 18 38
M  V30 40 1 19 39
M  V30 41 1 19 40
M  V30 42 1 21 41
M  V30 43 1 21 42
M  V30 44 1 22 43
M  V30 45 1 22 44
M  V30 46 1 23 45
M  V30 47 1 23 46
M  V30 END BOND
M  V30 END CTAB
M  END
