
     RDKit          3D

  0  0  0  0  0  0  0  0  0  0999 V3000
M  V30 BEGIN CTAB
M  V30 COUNTS 49 50 0 0 0
M  V30 BEGIN ATOM
M  V30 1 C -4.55335 1.70543 -1.46193 0
M  V30 2 N -3.28683 1.55125 -0.833191 0
M  V30 3 C -3.2291 0.565384 0.216933 0
M  V30 4 C -1.80591 0.657907 0.79034 0
M  V30 5 O -1.62031 -0.170593 1.86295 0
M  V30 6 C -0.80288 0.514164 -0.303069 0 CFG=2
M  V30 7 O -1.42586 0.0307831 -1.45525 0
M  V30 8 C -2.17844 -1.11533 -1.20759 0
M  V30 9 C -3.38138 -0.823563 -0.361334 0 CFG=1
M  V30 10 C -3.59021 -1.85962 0.7218 0
M  V30 11 O -4.52623 -0.841673 -1.15511 0
M  V30 12 O 0.240329 -0.350051 -0.00739754 0
M  V30 13 C 1.48352 0.21758 -0.155858 0
M  V30 14 C 2.23175 0.217913 1.14292 0 CFG=2
M  V30 15 N 2.43352 1.59401 1.60076 0
M  V30 16 C 3.52041 -0.515179 1.14207 0
M  V30 17 C 4.35596 -0.415137 -0.0668071 0
M  V30 18 C 3.66196 0.277448 -1.20272 0 CFG=2
M  V30 19 C 2.28831 -0.405235 -1.29011 0
M  V30 20 O 2.41035 -1.76966 -1.16205 0
M  V30 21 O 4.34575 0.167468 -2.39869 0
M  V30 22 N 5.64783 0.227785 0.22442 0
M  V30 23 H -4.69057 2.80588 -1.66621 0
M  V30 24 H -5.42715 1.42475 -0.849457 0
M  V30 25 H -4.52821 1.24 -2.46357 0
M  V30 26 H -2.81436 2.45104 -0.586455 0
M  V30 27 H -3.94165 0.760064 1.03351 0
M  V30 28 H -1.73082 1.71645 1.17265 0
M  V30 29 H -0.782649 -0.694942 1.8498 0
M  V30 30 H -0.347957 1.49641 -0.600098 0
M  V30 31 H -2.50037 -1.48867 -2.21451 0
M  V30 32 H -1.53198 -1.91111 -0.782254 0
M  V30 33 H -4.22659 -1.4182 1.4935 0
M  V30 34 H -4.1374 -2.70537 0.24587 0
M  V30 35 H -2.64317 -2.27754 1.09602 0
M  V30 36 H -4.99617 -1.70609 -1.0715 0
M  V30 37 H 1.32278 1.27524 -0.491307 0
M  V30 38 H 1.59087 -0.256703 1.93086 0
M  V30 39 H 2.48088 1.62732 2.66299 0
M  V30 40 H 1.56197 2.16221 1.37947 0
M  V30 41 H 4.11957 -0.150141 2.02048 0
M  V30 42 H 3.3475 -1.60728 1.37485 0
M  V30 43 H 4.64722 -1.43571 -0.457302 0
M  V30 44 H 3.54414 1.33577 -0.96356 0
M  V30 45 H 1.87401 -0.0776418 -2.26599 0
M  V30 46 H 1.53212 -2.16344 -0.976511 0
M  V30 47 H 3.77456 0.20582 -3.19125 0
M  V30 48 H 5.88478 0.0605363 1.2196 0
M  V30 49 H 6.39948 -0.129735 -0.40581 0
M  V30 END ATOM
M  V30 BEGIN BOND
M  V30 1 1 1 2
M  V30 2 1 2 3
M  V30 3 1 3 4
M  V30 4 1 4 5
M  V30 5 1 4 6
M  V30 6 1 6 7
M  V30 7 1 7 8
M  V30 8 1 8 9
M  V30 9 1 9 10
M  V30 10 1 9 11 CFG=3
M  V30 11 1 6 12
M  V30 12 1 12 13
M  V30 13 1 13 14
M  V30 14 1 14 15
M  V30 15 1 14 16
M  V30 16 1 16 17
M  V30 17 1 17 18
M  V30 18 1 18 19
M  V30 19 1 19 20
M  V30 20 1 18 21
M  V30 21 1 17 22
M  V30 22 1 9 3
M  V30 23 1 19 13
M  V30 24 1 1 23
M  V30 25 1 1 24
M  V30 26 1 1 25
M  V30 27 1 2 26
M  V30 28 1 3 27
M  V30 29 1 4 28
M  V30 30 1 5 29
M  V30 31 1 6 30 CFG=3
M  V30 32 1 8 31
M  V30 33 1 8 32
M  V30 34 1 10 33
M  V30 35 1 10 34
M  V30 36 1 10 35
M  V30 37 1 11 36
M  V30 38 1 13 37
M  V30 39 1 14 38 CFG=1
M  V30 40 1 15 39
M  V30 41 1 15 40
M  V30 42 1 16 41
M  V30 43 1 16 42
M  V30 44 1 17 43
M  V30 45 1 18 44 CFG=1
M  V30 46 1 19 45
M  V30 47 1 20 46
M  V30 48 1 21 47
M  V30 49 1 22 48
M  V30 50 1 22 49
M  V30 END BOND
M  V30 END CTAB
M  END
