
     RDKit          3D

  0  0  0  0  0  0  0  0  0  0999 V3000
M  V30 BEGIN CTAB
M  V30 COUNTS 21 22 0 0 0
M  V30 BEGIN ATOM
M  V30 1 N 4.1963 1.10985 0.335503 0
M  V30 2 C 3.04189 0.295661 0.530921 0
M  V30 3 N 2.16277 -0.132723 -0.398612 0
M  V30 4 C 1.20183 -0.884099 0.178395 0
M  V30 5 C 0.0385332 -1.56553 -0.406836 0
M  V30 6 C -1.1734 -0.703873 -0.433728 0
M  V30 7 N -1.51222 0.110357 -1.4464 0
M  V30 8 N -2.64585 0.733408 -1.15087 0
M  V30 9 C -3.06353 0.333803 0.0610472 0
M  V30 10 N -4.22942 0.744915 0.7676 0
M  V30 11 N -2.13333 -0.565016 0.498034 0
M  V30 12 N 1.5166 -0.904117 1.48689 0
M  V30 13 N 2.61494 -0.19885 1.6913 0
M  V30 14 H 4.10903 2.14297 0.153103 0
M  V30 15 H 5.16558 0.731314 0.362737 0
M  V30 16 H 0.302427 -1.92962 -1.4384 0
M  V30 17 H -0.139589 -2.50328 0.180225 0
M  V30 18 H -3.16991 1.43405 -1.73761 0
M  V30 19 H -4.64387 0.174431 1.5231 0
M  V30 20 H -4.67458 1.659 0.504521 0
M  V30 21 H 3.03579 -0.082645 2.63635 0
M  V30 END ATOM
M  V30 BEGIN BOND
M  V30 1 1 1 2
M  V30 2 2 2 3
M  V30 3 1 3 4
M  V30 4 1 4 5
M  V30 5 1 5 6
M  V30 6 2 6 7
M  V30 7 1 7 8
M  V30 8 1 8 9
M  V30 9 1 9 10
M  V30 10 2 9 11
M  V30 11 2 4 12
M  V30 12 1 12 13
M  V30 13 1 13 2
M  V30 14 1 11 6
M  V30 15 1 1 14
M  V30 16 1 1 15
M  V30 17 1 5 16
M  V30 18 1 5 17
M  V30 19 1 8 18
M  V30 20 1 10 19
M  V30 21 1 10 20
M  V30 22 1 13 21
M  V30 END BOND
M  V30 END CTAB
M  END
