
     RDKit          3D

  0  0  0  0  0  0  0  0  0  0999 V3000
M  V30 BEGIN CTAB
M  V30 COUNTS 38 39 0 0 0
M  V30 BEGIN ATOM
M  V30 1 N -4.43514 -1.0975 0.252289 0
M  V30 2 C -3.28142 -1.88593 0.000233215 0
M  V30 3 C -2.16337 -1.14696 -0.677039 0
M  V30 4 N -1.63479 -0.0348278 -0.0748028 0
M  V30 5 C -2.26286 1.19819 0.0236244 0
M  V30 6 C -1.26662 2.3605 -0.0845257 0
M  V30 7 C -0.183914 2.15479 -1.07256 0
M  V30 8 O 0.369405 0.85192 -1.09787 0
M  V30 9 C 0.674899 0.422703 0.160261 0 CFG=1
M  V30 10 C -0.504281 -0.21572 0.838079 0
M  V30 11 C 2.01837 -0.0558849 0.463704 0
M  V30 12 C 2.74337 0.267328 1.60776 0
M  V30 13 C 4.09969 -0.0579452 1.71984 0
M  V30 14 C 4.77807 -0.705153 0.719139 0
M  V30 15 C 4.07068 -1.0417 -0.432868 0
M  V30 16 C 2.7475 -0.719813 -0.526816 0
M  V30 17 N 1.9736 -1.16776 -1.62921 0
M  V30 18 H -4.32009 -0.429094 1.00056 0
M  V30 19 H -4.91015 -0.75901 -0.580628 0
M  V30 20 H -3.52054 -2.77253 -0.670922 0
M  V30 21 H -2.88913 -2.28602 0.963846 0
M  V30 22 H -2.64617 -0.793927 -1.66984 0
M  V30 23 H -1.35375 -1.8497 -1.03954 0
M  V30 24 H -2.94167 1.33041 -0.841309 0
M  V30 25 H -2.83996 1.39593 0.947768 0
M  V30 26 H -1.8482 3.2598 -0.411825 0
M  V30 27 H -0.918433 2.64824 0.947343 0
M  V30 28 H 0.619151 2.88336 -0.850684 0
M  V30 29 H -0.547572 2.37016 -2.0887 0
M  V30 30 H 0.697534 1.47025 0.789554 0
M  V30 31 H -0.669359 0.0682182 1.86161 0
M  V30 32 H -0.334246 -1.33054 0.797203 0
M  V30 33 H 2.25189 0.775269 2.40059 0
M  V30 34 H 4.67488 0.195211 2.60597 0
M  V30 35 H 5.83948 -0.949568 0.823582 0
M  V30 36 H 4.62324 -1.55332 -1.19903 0
M  V30 37 H 1.41017 -2.04601 -1.43207 0
M  V30 38 H 1.87977 -0.753348 -2.54271 0
M  V30 END ATOM
M  V30 BEGIN BOND
M  V30 1 1 1 2
M  V30 2 1 2 3
M  V30 3 1 3 4
M  V30 4 1 4 5
M  V30 5 1 5 6
M  V30 6 1 6 7
M  V30 7 1 7 8
M  V30 8 1 8 9
M  V30 9 1 9 10
M  V30 10 1 9 11
M  V30 11 2 11 12
M  V30 12 1 12 13
M  V30 13 2 13 14
M  V30 14 1 14 15
M  V30 15 2 15 16
M  V30 16 1 16 17
M  V30 17 1 10 4
M  V30 18 1 16 11
M  V30 19 1 1 18
M  V30 20 1 1 19
M  V30 21 1 2 20
M  V30 22 1 2 21
M  V30 23 1 3 22
M  V30 24 1 3 23
M  V30 25 1 5 24
M  V30 26 1 5 25
M  V30 27 1 6 26
M  V30 28 1 6 27
M  V30 29 1 7 28
M  V30 30 1 7 29
M  V30 31 1 9 30 CFG=1
M  V30 32 1 10 31
M  V30 33 1 10 32
M  V30 34 1 12 33
M  V30 35 1 13 34
M  V30 36 1 14 35
M  V30 37 1 15 36
M  V30 38 1 17 37
M  V30 39 1 17 38
M  V30 END BOND
M  V30 END CTAB
M  END
