
     RDKit          3D

  0  0  0  0  0  0  0  0  0  0999 V3000
M  V30 BEGIN CTAB
M  V30 COUNTS 39 41 0 0 0
M  V30 BEGIN ATOM
M  V30 1 C 0.96945 -3.15521 -0.34695 0
M  V30 2 C -0.198907 -2.2209 -0.325584 0
M  V30 3 N -1.43782 -2.59587 -0.539364 0
M  V30 4 C -2.21574 -1.49918 -0.446176 0
M  V30 5 C -3.56652 -1.30632 -0.573026 0
M  V30 6 N -4.39425 -2.45776 -0.869718 0
M  V30 7 N -4.09263 -0.0957112 -0.426607 0
M  V30 8 C -3.29414 0.948171 -0.152121 0
M  V30 9 C -3.86269 2.21725 0.000270428 0
M  V30 10 C -3.08871 3.31288 0.281314 0
M  V30 11 C -1.73367 3.17164 0.416788 0
M  V30 12 C -1.12082 1.92118 0.272852 0
M  V30 13 C -1.90885 0.842565 -0.0064045 0
M  V30 14 C -1.36877 -0.428245 -0.161178 0
M  V30 15 N -0.116755 -0.865762 -0.0842933 0
M  V30 16 C 1.11233 -0.229269 0.181242 0
M  V30 17 C 1.85459 0.250053 -1.04927 0
M  V30 18 C 3.11046 0.933865 -0.657192 0
M  V30 19 C 4.0082 -0.00563221 0.105102 0
M  V30 20 N 5.26516 0.645664 0.469781 0
M  V30 21 H 1.65286 -2.94025 -1.20756 0
M  V30 22 H 0.635935 -4.18199 -0.471992 0
M  V30 23 H 1.56686 -3.07661 0.585907 0
M  V30 24 H -4.30401 -3.01633 -1.71705 0
M  V30 25 H -5.10716 -2.69938 -0.16074 0
M  V30 26 H -4.94097 2.29564 -0.113598 0
M  V30 27 H -3.5729 4.29352 0.39463 0
M  V30 28 H -1.13613 4.03853 0.637224 0
M  V30 29 H -0.0745178 1.91313 0.390335 0
M  V30 30 H 1.21548 0.466273 0.99797 0
M  V30 31 H 1.83681 -1.06383 0.563993 0
M  V30 32 H 2.14962 -0.644817 -1.67335 0
M  V30 33 H 1.20315 0.844837 -1.72036 0
M  V30 34 H 2.8292 1.75288 0.0708517 0
M  V30 35 H 3.63971 1.40239 -1.51798 0
M  V30 36 H 3.51277 -0.231706 1.08991 0
M  V30 37 H 4.16776 -0.904781 -0.495845 0
M  V30 38 H 5.63109 1.22719 -0.313009 0
M  V30 39 H 5.17452 1.1419 1.36987 0
M  V30 END ATOM
M  V30 BEGIN BOND
M  V30 1 1 1 2
M  V30 2 2 2 3
M  V30 3 1 3 4
M  V30 4 2 4 5
M  V30 5 1 5 6
M  V30 6 1 5 7
M  V30 7 2 7 8
M  V30 8 1 8 9
M  V30 9 2 9 10
M  V30 10 1 10 11
M  V30 11 2 11 12
M  V30 12 1 12 13
M  V30 13 2 13 14
M  V30 14 1 14 15
M  V30 15 1 15 16
M  V30 16 1 16 17
M  V30 17 1 17 18
M  V30 18 1 18 19
M  V30 19 1 19 20
M  V30 20 1 15 2
M  V30 21 1 14 4
M  V30 22 1 13 8
M  V30 23 1 1 21
M  V30 24 1 1 22
M  V30 25 1 1 23
M  V30 26 1 6 24
M  V30 27 1 6 25
M  V30 28 1 9 26
M  V30 29 1 10 27
M  V30 30 1 11 28
M  V30 31 1 12 29
M  V30 32 1 16 30
M  V30 33 1 16 31
M  V30 34 1 17 32
M  V30 35 1 17 33
M  V30 36 1 18 34
M  V30 37 1 18 35
M  V30 38 1 19 36
M  V30 39 1 19 37
M  V30 40 1 20 38
M  V30 41 1 20 39
M  V30 END BOND
M  V30 END CTAB
M  END
