
     RDKit          3D

  0  0  0  0  0  0  0  0  0  0999 V3000
M  V30 BEGIN CTAB
M  V30 COUNTS 20 20 0 0 0
M  V30 BEGIN ATOM
M  V30 1 C -2.08255 1.08565 -0.267696 0
M  V30 2 C -1.07831 0.119763 0.251824 0
M  V30 3 C -1.59885 -1.29579 0.436589 0
M  V30 4 F -0.509171 -2.03249 0.898556 0
M  V30 5 F -2.15773 -1.80772 -0.661596 0
M  V30 6 F -2.44939 -1.21104 1.55713 0
M  V30 7 C 0.188255 0.0612493 -0.513318 0
M  V30 8 O 0.44317 0.0915219 -1.80503 0
M  V30 9 N 1.72525 -0.0133195 -1.98932 0
M  V30 10 C 2.39384 -0.0968853 -0.84108 0
M  V30 11 N 1.41199 -0.0559245 0.0931988 0
M  V30 12 N 3.74918 -0.303404 -0.540667 0
M  V30 13 N -0.743786 0.55295 1.61645 0
M  V30 14 H -2.63403 0.695676 -1.15457 0
M  V30 15 H -1.59911 2.01262 -0.578316 0
M  V30 16 H -2.82374 1.32739 0.529143 0
M  V30 17 H 4.54428 -0.00415904 -1.16018 0
M  V30 18 H 4.05137 -0.775296 0.346165 0
M  V30 19 H 0.0853597 0.110351 1.99431 0
M  V30 20 H -0.916045 1.53885 1.7884 0
M  V30 END ATOM
M  V30 BEGIN BOND
M  V30 1 1 1 2
M  V30 2 1 2 3
M  V30 3 1 3 4
M  V30 4 1 3 5
M  V30 5 1 3 6
M  V30 6 1 2 7
M  V30 7 1 7 8
M  V30 8 1 8 9
M  V30 9 2 9 10
M  V30 10 1 10 11
M  V30 11 1 10 12
M  V30 12 1 2 13
M  V30 13 2 11 7
M  V30 14 1 1 14
M  V30 15 1 1 15
M  V30 16 1 1 16
M  V30 17 1 12 17
M  V30 18 1 12 18
M  V30 19 1 13 19
M  V30 20 1 13 20
M  V30 END BOND
M  V30 END CTAB
M  END
