
     RDKit          3D

  0  0  0  0  0  0  0  0  0  0999 V3000
M  V30 BEGIN CTAB
M  V30 COUNTS 36 38 0 0 0
M  V30 BEGIN ATOM
M  V30 1 C -4.90564 1.13567 0.336202 0
M  V30 2 O -3.51719 1.01634 0.272791 0
M  V30 3 C -2.82573 -0.16743 0.136984 0
M  V30 4 C -3.43431 -1.40019 0.0456547 0
M  V30 5 C -2.68949 -2.55249 -0.0892564 0
M  V30 6 C -1.29953 -2.53195 -0.139769 0
M  V30 7 N -0.535263 -3.7157 -0.278341 0
M  V30 8 C -0.695882 -1.29054 -0.0474493 0
M  V30 9 C -1.44809 -0.129351 0.0885626 0
M  V30 10 C -0.76902 1.17585 0.183949 0
M  V30 11 O -1.46428 2.21763 0.306743 0
M  V30 12 C 0.696055 1.28062 0.138411 0
M  V30 13 C 1.40698 0.106519 0.0027556 0
M  V30 14 C 0.761653 -1.19568 -0.093625 0
M  V30 15 O 1.43542 -2.24674 -0.216476 0
M  V30 16 C 2.79019 0.180229 -0.0425816 0
M  V30 17 O 3.49465 -0.988534 -0.177495 0
M  V30 18 C 4.88596 -1.0994 -0.240257 0
M  V30 19 C 3.43591 1.38261 0.0445268 0
M  V30 20 C 2.71738 2.54231 0.179134 0
M  V30 21 C 1.33197 2.5112 0.228503 0
M  V30 22 N 0.579533 3.70769 0.367799 0
M  V30 23 H -5.17283 2.1607 -0.0156689 0
M  V30 24 H -5.41979 0.431187 -0.374855 0
M  V30 25 H -5.32654 1.0073 1.35472 0
M  V30 26 H -4.51179 -1.44521 0.0821311 0
M  V30 27 H -3.15051 -3.54518 -0.163908 0
M  V30 28 H -0.153791 -4.16258 0.57997 0
M  V30 29 H -0.3333 -4.165 -1.19446 0
M  V30 30 H 5.32167 -0.695556 -1.18516 0
M  V30 31 H 5.31834 -0.563096 0.628445 0
M  V30 32 H 5.13392 -2.18485 -0.136025 0
M  V30 33 H 4.50856 1.4324 0.0087012 0
M  V30 34 H 3.22983 3.50937 0.24946 0
M  V30 35 H 0.486794 4.38277 -0.414469 0
M  V30 36 H 0.118134 3.89911 1.27484 0
M  V30 END ATOM
M  V30 BEGIN BOND
M  V30 1 1 1 2
M  V30 2 1 2 3
M  V30 3 2 3 4
M  V30 4 1 4 5
M  V30 5 2 5 6
M  V30 6 1 6 7
M  V30 7 1 6 8
M  V30 8 2 8 9
M  V30 9 1 9 10
M  V30 10 2 10 11
M  V30 11 1 10 12
M  V30 12 2 12 13
M  V30 13 1 13 14
M  V30 14 2 14 15
M  V30 15 1 13 16
M  V30 16 1 16 17
M  V30 17 1 17 18
M  V30 18 2 16 19
M  V30 19 1 19 20
M  V30 20 2 20 21
M  V30 21 1 21 22
M  V30 22 1 9 3
M  V30 23 1 21 12
M  V30 24 1 14 8
M  V30 25 1 1 23
M  V30 26 1 1 24
M  V30 27 1 1 25
M  V30 28 1 4 26
M  V30 29 1 5 27
M  V30 30 1 7 28
M  V30 31 1 7 29
M  V30 32 1 18 30
M  V30 33 1 18 31
M  V30 34 1 18 32
M  V30 35 1 19 33
M  V30 36 1 20 34
M  V30 37 1 22 35
M  V30 38 1 22 36
M  V30 END BOND
M  V30 END CTAB
M  END
