
     RDKit          3D

  0  0  0  0  0  0  0  0  0  0999 V3000
M  V30 BEGIN CTAB
M  V30 COUNTS 42 44 0 0 0
M  V30 BEGIN ATOM
M  V30 1 C -0.197599 -3.72871 1.02888 0
M  V30 2 C 0.0657027 -2.23747 1.16696 0
M  V30 3 C 0.326003 -1.69545 -0.218958 0
M  V30 4 C 0.607361 -0.249232 -0.250731 0
M  V30 5 C 1.78895 0.371278 0.0567291 0
M  V30 6 C 1.55207 1.73062 -0.0996224 0
M  V30 7 N 0.292715 1.85056 -0.478085 0
M  V30 8 N -0.304106 0.679014 -0.578817 0
M  V30 9 C -1.66418 0.468908 -0.966565 0
M  V30 10 C -2.03225 0.0363154 -2.21689 0
M  V30 11 C -3.3549 -0.153753 -2.55259 0
M  V30 12 C -4.37129 0.0821079 -1.64549 0
M  V30 13 C -4.01736 0.516279 -0.388112 0
M  V30 14 N -4.99688 0.749183 0.501108 0
M  V30 15 C -4.69396 1.17479 1.74125 0
M  V30 16 C -3.38719 1.38752 2.14711 0
M  V30 17 C -2.3957 1.14299 1.221 0
M  V30 18 C -2.68262 0.705859 -0.0568743 0
M  V30 19 C 3.05991 -0.176404 0.443563 0
M  V30 20 O 3.23129 -1.41881 0.489538 0
M  V30 21 N 4.13359 0.686513 0.777843 0
M  V30 22 C 4.8589 1.31545 -0.0553354 0
M  V30 23 N 5.89738 2.1416 0.452038 0
M  V30 24 N 4.70883 1.25253 -1.47243 0
M  V30 25 H 0.283726 -4.08492 0.0830006 0
M  V30 26 H -1.2789 -3.97307 1.0279 0
M  V30 27 H 0.228565 -4.26535 1.91182 0
M  V30 28 H 0.840097 -2.02476 1.90425 0
M  V30 29 H -0.930701 -1.80037 1.46552 0
M  V30 30 H -0.56828 -1.96001 -0.826434 0
M  V30 31 H 1.20759 -2.21669 -0.656104 0
M  V30 32 H 2.22803 2.54896 0.0470384 0
M  V30 33 H -1.25703 -0.157965 -2.95224 0
M  V30 34 H -3.62311 -0.498237 -3.55237 0
M  V30 35 H -5.41373 -0.0784412 -1.94201 0
M  V30 36 H -5.46956 1.37316 2.48871 0
M  V30 37 H -3.13605 1.73235 3.14882 0
M  V30 38 H -1.33876 1.28226 1.45221 0
M  V30 39 H 5.62112 3.06108 0.85732 0
M  V30 40 H 6.91115 1.90476 0.453028 0
M  V30 41 H 4.16625 2.04309 -1.922 0
M  V30 42 H 5.10493 0.482462 -2.03397 0
M  V30 END ATOM
M  V30 BEGIN BOND
M  V30 1 1 1 2
M  V30 2 1 2 3
M  V30 3 1 3 4
M  V30 4 2 4 5
M  V30 5 1 5 6
M  V30 6 2 6 7
M  V30 7 1 7 8
M  V30 8 1 8 9
M  V30 9 2 9 10
M  V30 10 1 10 11
M  V30 11 2 11 12
M  V30 12 1 12 13
M  V30 13 2 13 14
M  V30 14 1 14 15
M  V30 15 2 15 16
M  V30 16 1 16 17
M  V30 17 2 17 18
M  V30 18 1 5 19
M  V30 19 2 19 20
M  V30 20 1 19 21
M  V30 21 2 21 22
M  V30 22 1 22 23
M  V30 23 1 22 24
M  V30 24 1 8 4
M  V30 25 1 18 9
M  V30 26 1 18 13
M  V30 27 1 1 25
M  V30 28 1 1 26
M  V30 29 1 1 27
M  V30 30 1 2 28
M  V30 31 1 2 29
M  V30 32 1 3 30
M  V30 33 1 3 31
M  V30 34 1 6 32
M  V30 35 1 10 33
M  V30 36 1 11 34
M  V30 37 1 12 35
M  V30 38 1 15 36
M  V30 39 1 16 37
M  V30 40 1 17 38
M  V30 41 1 23 39
M  V30 42 1 23 40
M  V30 43 1 24 41
M  V30 44 1 24 42
M  V30 END BOND
M  V30 END CTAB
M  END
