
     RDKit          3D

  0  0  0  0  0  0  0  0  0  0999 V3000
M  V30 BEGIN CTAB
M  V30 COUNTS 55 58 0 0 0
M  V30 BEGIN ATOM
M  V30 1 N 1.67793 0.730397 -2.88973 0
M  V30 2 C 1.95663 0.309709 -1.85416 0
M  V30 3 C 2.31658 -0.236753 -0.576526 0
M  V30 4 C 1.38267 -0.637738 0.344179 0
M  V30 5 N 1.79657 -1.15178 1.51097 0
M  V30 6 C 3.1119 -1.28823 1.81153 0
M  V30 7 C 4.06681 -0.889888 0.898434 0
M  V30 8 C 3.68857 -0.354875 -0.317064 0
M  V30 9 C 4.64332 0.0411759 -1.2243 0
M  V30 10 C 5.97468 -0.0848131 -0.945836 0
M  V30 11 O 6.96332 0.315254 -1.86226 0
M  V30 12 C 8.31537 0.152481 -1.5028 0
M  V30 13 N 6.31537 -0.609009 0.245143 0
M  V30 14 C 5.4095 -1.00578 1.15358 0
M  V30 15 N 5.79515 -1.55503 2.40268 0
M  V30 16 N 3.50612 -1.83969 3.06418 0
M  V30 17 N -0.000371338 -0.506351 0.0934957 0
M  V30 18 C -0.639291 0.785987 -0.0340697 0
M  V30 19 C -2.01065 0.496671 -0.658096 0
M  V30 20 N -2.76006 -0.163653 0.426345 0
M  V30 21 C -2.11979 -1.41995 0.743574 0
M  V30 22 C -0.8759 -1.67515 -0.0548807 0
M  V30 23 S -4.32581 -0.482021 -0.185905 0
M  V30 24 O -5.06917 -1.52359 0.612219 0
M  V30 25 O -4.02279 -1.273 -1.48401 0
M  V30 26 C -5.25137 0.882371 -0.647302 0
M  V30 27 C -5.64948 1.06053 -1.98854 0
M  V30 28 C -6.38479 2.13518 -2.42423 0
M  V30 29 C -6.76155 3.09569 -1.52436 0
M  V30 30 C -6.38476 2.94038 -0.217486 0
M  V30 31 C -5.62907 1.84002 0.242146 0
M  V30 32 C -5.30947 1.80381 1.65541 0
M  V30 33 F -5.83062 0.646025 2.20825 0
M  V30 34 F -6.05839 2.80158 2.3611 0
M  V30 35 F -4.0208 1.89787 2.03888 0
M  V30 36 H 4.34319 0.46183 -2.17997 0
M  V30 37 H 8.96152 0.887983 -2.06511 0
M  V30 38 H 8.69648 -0.882096 -1.72741 0
M  V30 39 H 8.47013 0.295482 -0.422369 0
M  V30 40 H 5.93143 -2.58517 2.4673 0
M  V30 41 H 5.93065 -0.93105 3.20934 0
M  V30 42 H 3.66883 -2.87894 3.20811 0
M  V30 43 H 3.64637 -1.2136 3.88881 0
M  V30 44 H -0.842194 1.10913 1.0336 0
M  V30 45 H -0.0692098 1.53853 -0.57435 0
M  V30 46 H -1.94054 -0.108949 -1.56032 0
M  V30 47 H -2.55895 1.44294 -0.879202 0
M  V30 48 H -1.81634 -1.46351 1.82565 0
M  V30 49 H -2.80104 -2.30097 0.556707 0
M  V30 50 H -1.05396 -1.88717 -1.11971 0
M  V30 51 H -0.376885 -2.55287 0.409641 0
M  V30 52 H -5.33552 0.281975 -2.67715 0
M  V30 53 H -6.66138 2.2122 -3.48588 0
M  V30 54 H -7.33316 3.93532 -1.85133 0
M  V30 55 H -6.6758 3.70143 0.52307 0
M  V30 END ATOM
M  V30 BEGIN BOND
M  V30 1 3 1 2
M  V30 2 1 2 3
M  V30 3 2 3 4
M  V30 4 1 4 5
M  V30 5 2 5 6
M  V30 6 1 6 7
M  V30 7 2 7 8
M  V30 8 1 8 9
M  V30 9 2 9 10
M  V30 10 1 10 11
M  V30 11 1 11 12
M  V30 12 1 10 13
M  V30 13 2 13 14
M  V30 14 1 14 15
M  V30 15 1 6 16
M  V30 16 1 4 17
M  V30 17 1 17 18
M  V30 18 1 18 19
M  V30 19 1 19 20
M  V30 20 1 20 21
M  V30 21 1 21 22
M  V30 22 1 20 23
M  V30 23 2 23 24
M  V30 24 2 23 25
M  V30 25 1 23 26
M  V30 26 2 26 27
M  V30 27 1 27 28
M  V30 28 2 28 29
M  V30 29 1 29 30
M  V30 30 2 30 31
M  V30 31 1 31 32
M  V30 32 1 32 33
M  V30 33 1 32 34
M  V30 34 1 32 35
M  V30 35 1 8 3
M  V30 36 1 22 17
M  V30 37 1 31 26
M  V30 38 1 14 7
M  V30 39 1 9 36
M  V30 40 1 12 37
M  V30 41 1 12 38
M  V30 42 1 12 39
M  V30 43 1 15 40
M  V30 44 1 15 41
M  V30 45 1 16 42
M  V30 46 1 16 43
M  V30 47 1 18 44
M  V30 48 1 18 45
M  V30 49 1 19 46
M  V30 50 1 19 47
M  V30 51 1 21 48
M  V30 52 1 21 49
M  V30 53 1 22 50
M  V30 54 1 22 51
M  V30 55 1 27 52
M  V30 56 1 28 53
M  V30 57 1 29 54
M  V30 58 1 30 55
M  V30 END BOND
M  V30 END CTAB
M  END
