
     RDKit          3D

  0  0  0  0  0  0  0  0  0  0999 V3000
M  V30 BEGIN CTAB
M  V30 COUNTS 28 29 0 0 0
M  V30 BEGIN ATOM
M  V30 1 C -0.0215093 -2.53104 1.32689 0
M  V30 2 C 0.744498 -1.46236 0.649316 0
M  V30 3 N 2.08176 -1.3732 0.457804 0
M  V30 4 N 2.38043 -0.259162 -0.194612 0
M  V30 5 C 1.21895 0.396066 -0.436376 0
M  V30 6 C 0.179186 -0.342064 0.0851563 0
M  V30 7 C -1.24234 0.0394707 0.0204076 0
M  V30 8 C -2.0419 -0.503245 -0.980139 0
M  V30 9 C -3.37521 -0.195424 -1.10746 0
M  V30 10 C -3.90432 0.691588 -0.186085 0
M  V30 11 C -3.12403 1.2378 0.811587 0
M  V30 12 C -1.79371 0.917291 0.921625 0
M  V30 13 N 1.07006 1.64639 -1.11677 0
M  V30 14 C 3.66496 0.209126 -0.59365 0
M  V30 15 S 4.16189 -0.20968 -2.09721 0
M  V30 16 N 4.48901 1.00105 0.252978 0
M  V30 17 H -0.687229 -3.05335 0.60897 0
M  V30 18 H -0.699897 -2.10529 2.11136 0
M  V30 19 H 0.658482 -3.29448 1.74264 0
M  V30 20 H -1.6072 -1.20009 -1.69636 0
M  V30 21 H -3.98726 -0.62772 -1.89492 0
M  V30 22 H -4.95365 0.927804 -0.294539 0
M  V30 23 H -3.55807 1.9368 1.53152 0
M  V30 24 H -1.19043 1.34443 1.69859 0
M  V30 25 H 0.143667 1.89716 -1.52552 0
M  V30 26 H 1.83404 2.31601 -1.22473 0
M  V30 27 H 5.49654 0.768805 0.401644 0
M  V30 28 H 4.06331 1.8273 0.727869 0
M  V30 END ATOM
M  V30 BEGIN BOND
M  V30 1 1 1 2
M  V30 2 2 2 3
M  V30 3 1 3 4
M  V30 4 1 4 5
M  V30 5 2 5 6
M  V30 6 1 6 7
M  V30 7 2 7 8
M  V30 8 1 8 9
M  V30 9 2 9 10
M  V30 10 1 10 11
M  V30 11 2 11 12
M  V30 12 1 5 13
M  V30 13 1 4 14
M  V30 14 2 14 15
M  V30 15 1 14 16
M  V30 16 1 6 2
M  V30 17 1 12 7
M  V30 18 1 1 17
M  V30 19 1 1 18
M  V30 20 1 1 19
M  V30 21 1 8 20
M  V30 22 1 9 21
M  V30 23 1 10 22
M  V30 24 1 11 23
M  V30 25 1 12 24
M  V30 26 1 13 25
M  V30 27 1 13 26
M  V30 28 1 16 27
M  V30 29 1 16 28
M  V30 END BOND
M  V30 END CTAB
M  END
