
     RDKit          3D

  0  0  0  0  0  0  0  0  0  0999 V3000
M  V30 BEGIN CTAB
M  V30 COUNTS 39 42 0 0 0
M  V30 BEGIN ATOM
M  V30 1 N 7.42453 1.4874 0.698791 0
M  V30 2 C 6.02271 1.40795 0.52006 0
M  V30 3 C 5.31422 2.47376 0.00516434 0
M  V30 4 C 3.93659 2.3989 -0.171716 0
M  V30 5 C 3.31595 1.22286 0.18712 0
M  V30 6 C 3.97967 0.13365 0.704316 0
M  V30 7 C 5.34782 0.255763 0.861638 0
M  V30 8 O 3.08613 -0.797481 0.928404 0
M  V30 9 C 1.89253 -0.414402 0.603196 0
M  V30 10 N 2.02131 0.856445 0.134555 0
M  V30 11 C 0.588289 -1.14953 0.690739 0
M  V30 12 C 0.389774 -1.87429 -0.592492 0
M  V30 13 C -0.861492 -2.66513 -0.689323 0
M  V30 14 C -2.09024 -1.862 -0.545401 0
M  V30 15 N -3.32613 -2.4038 -0.604301 0
M  V30 16 C -4.23841 -1.42942 -0.440408 0
M  V30 17 C -3.53069 -0.274431 -0.279222 0
M  V30 18 O -2.26426 -0.598689 -0.351566 0
M  V30 19 C -4.23668 0.893029 -0.0900126 0
M  V30 20 C -5.61892 0.949545 -0.0559269 0
M  V30 21 C -6.32234 -0.242202 -0.222739 0
M  V30 22 C -5.62651 -1.41613 -0.412733 0
M  V30 23 N -6.3191 2.16505 0.140407 0
M  V30 24 H 7.89469 2.41063 0.685244 0
M  V30 25 H 7.99991 0.636665 0.844568 0
M  V30 26 H 5.82133 3.39894 -0.274307 0
M  V30 27 H 3.3843 3.23563 -0.575356 0
M  V30 28 H 5.88869 -0.57834 1.26256 0
M  V30 29 H -0.188684 -0.44003 0.966311 0
M  V30 30 H 0.735167 -1.90886 1.50985 0
M  V30 31 H 0.449325 -1.14205 -1.42841 0
M  V30 32 H 1.24799 -2.563 -0.735212 0
M  V30 33 H -0.830877 -3.46757 0.0753453 0
M  V30 34 H -0.873098 -3.17987 -1.67256 0
M  V30 35 H -3.67808 1.80515 0.0372794 0
M  V30 36 H -7.40282 -0.199541 -0.19632 0
M  V30 37 H -6.16073 -2.34032 -0.542303 0
M  V30 38 H -7.1313 2.37931 -0.46501 0
M  V30 39 H -6.04055 2.83638 0.867005 0
M  V30 END ATOM
M  V30 BEGIN BOND
M  V30 1 1 1 2
M  V30 2 2 2 3
M  V30 3 1 3 4
M  V30 4 2 4 5
M  V30 5 1 5 6
M  V30 6 2 6 7
M  V30 7 1 6 8
M  V30 8 1 8 9
M  V30 9 2 9 10
M  V30 10 1 9 11
M  V30 11 1 11 12
M  V30 12 1 12 13
M  V30 13 1 13 14
M  V30 14 2 14 15
M  V30 15 1 15 16
M  V30 16 2 16 17
M  V30 17 1 17 18
M  V30 18 1 17 19
M  V30 19 2 19 20
M  V30 20 1 20 21
M  V30 21 2 21 22
M  V30 22 1 20 23
M  V30 23 1 7 2
M  V30 24 1 18 14
M  V30 25 1 10 5
M  V30 26 1 22 16
M  V30 27 1 1 24
M  V30 28 1 1 25
M  V30 29 1 3 26
M  V30 30 1 4 27
M  V30 31 1 7 28
M  V30 32 1 11 29
M  V30 33 1 11 30
M  V30 34 1 12 31
M  V30 35 1 12 32
M  V30 36 1 13 33
M  V30 37 1 13 34
M  V30 38 1 19 35
M  V30 39 1 21 36
M  V30 40 1 22 37
M  V30 41 1 23 38
M  V30 42 1 23 39
M  V30 END BOND
M  V30 END CTAB
M  END
