
     RDKit          3D

  0  0  0  0  0  0  0  0  0  0999 V3000
M  V30 BEGIN CTAB
M  V30 COUNTS 52 54 0 0 0
M  V30 BEGIN ATOM
M  V30 1 C -4.62608 0.17711 -3.75525 0
M  V30 2 O -4.67781 0.65695 -2.45813 0
M  V30 3 C -3.81323 0.421186 -1.41782 0
M  V30 4 C -2.71318 -0.381521 -1.5629 0
M  V30 5 C -1.81487 -0.645453 -0.532953 0
M  V30 6 C -2.10352 -0.0397448 0.661928 0
M  V30 7 C -3.2079 0.779294 0.844324 0
M  V30 8 O -3.46556 1.37568 2.06959 0
M  V30 9 C -2.6343 1.19225 3.18828 0
M  V30 10 C -4.08847 1.02478 -0.20219 0
M  V30 11 O -5.19624 1.84439 -0.0233108 0
M  V30 12 C -5.21704 3.22388 -0.23155 0
M  V30 13 N -0.712283 -1.49267 -0.805118 0
M  V30 14 C -0.957416 -2.94153 -0.715124 0
M  V30 15 C 0.611152 -1.08328 -1.14531 0
M  V30 16 C 1.60393 -1.09454 -0.0659316 0
M  V30 17 C 2.90655 -0.66861 -0.383622 0
M  V30 18 C 3.29092 -0.233416 -1.72297 0
M  V30 19 C 3.84425 -0.695806 0.641329 0
M  V30 20 C 3.44203 -1.14108 1.91165 0
M  V30 21 N 2.18241 -1.53778 2.15831 0
M  V30 22 C 1.26896 -1.51635 1.18111 0
M  V30 23 N 4.35943 -1.16297 2.905 0
M  V30 24 C 5.64215 -0.783456 2.75575 0
M  V30 25 N 6.52658 -0.841801 3.86058 0
M  V30 26 N 6.00168 -0.363784 1.54066 0
M  V30 27 C 5.14643 -0.308714 0.485828 0
M  V30 28 N 5.61365 0.15569 -0.753929 0
M  V30 29 H -5.64571 -0.10725 -4.15583 0
M  V30 30 H -3.92419 -0.650854 -3.93981 0
M  V30 31 H -4.2886 1.03133 -4.4112 0
M  V30 32 H -2.5137 -0.841677 -2.51985 0
M  V30 33 H -1.48298 -0.176413 1.51592 0
M  V30 34 H -2.61713 0.130197 3.51005 0
M  V30 35 H -1.57543 1.48142 3.01225 0
M  V30 36 H -3.03708 1.77977 4.0554 0
M  V30 37 H -6.28775 3.5475 -0.0957336 0
M  V30 38 H -4.64383 3.75515 0.560102 0
M  V30 39 H -4.8698 3.53271 -1.23239 0
M  V30 40 H -1.63876 -3.1816 0.107272 0
M  V30 41 H -1.46235 -3.23946 -1.65872 0
M  V30 42 H -0.0146174 -3.48465 -0.539522 0
M  V30 43 H 0.54646 -0.0857214 -1.65587 0
M  V30 44 H 0.978473 -1.79026 -1.93867 0
M  V30 45 H 3.44756 0.834619 -1.88831 0
M  V30 46 H 2.3387 -0.362473 -2.35019 0
M  V30 47 H 3.93815 -0.933489 -2.29594 0
M  V30 48 H 0.274162 -1.84603 1.39593 0
M  V30 49 H 7.35523 -1.45283 3.85365 0
M  V30 50 H 6.33212 -0.2577 4.68764 0
M  V30 51 H 6.04011 -0.406779 -1.49873 0
M  V30 52 H 5.53873 1.19293 -0.945671 0
M  V30 END ATOM
M  V30 BEGIN BOND
M  V30 1 1 1 2
M  V30 2 1 2 3
M  V30 3 2 3 4
M  V30 4 1 4 5
M  V30 5 2 5 6
M  V30 6 1 6 7
M  V30 7 1 7 8
M  V30 8 1 8 9
M  V30 9 2 7 10
M  V30 10 1 10 11
M  V30 11 1 11 12
M  V30 12 1 5 13
M  V30 13 1 13 14
M  V30 14 1 13 15
M  V30 15 1 15 16
M  V30 16 2 16 17
M  V30 17 1 17 18
M  V30 18 1 17 19
M  V30 19 2 19 20
M  V30 20 1 20 21
M  V30 21 2 21 22
M  V30 22 1 20 23
M  V30 23 2 23 24
M  V30 24 1 24 25
M  V30 25 1 24 26
M  V30 26 2 26 27
M  V30 27 1 27 28
M  V30 28 1 10 3
M  V30 29 1 22 16
M  V30 30 1 27 19
M  V30 31 1 1 29
M  V30 32 1 1 30
M  V30 33 1 1 31
M  V30 34 1 4 32
M  V30 35 1 6 33
M  V30 36 1 9 34
M  V30 37 1 9 35
M  V30 38 1 9 36
M  V30 39 1 12 37
M  V30 40 1 12 38
M  V30 41 1 12 39
M  V30 42 1 14 40
M  V30 43 1 14 41
M  V30 44 1 14 42
M  V30 45 1 15 43
M  V30 46 1 15 44
M  V30 47 1 18 45
M  V30 48 1 18 46
M  V30 49 1 18 47
M  V30 50 1 22 48
M  V30 51 1 25 49
M  V30 52 1 25 50
M  V30 53 1 28 51
M  V30 54 1 28 52
M  V30 END BOND
M  V30 END CTAB
M  END
