
     RDKit          3D

  0  0  0  0  0  0  0  0  0  0999 V3000
M  V30 BEGIN CTAB
M  V30 COUNTS 28 29 0 0 0
M  V30 BEGIN ATOM
M  V30 1 N -5.08911 -0.95482 -0.108341 0
M  V30 2 N -3.713 -1.14863 -0.0211649 0
M  V30 3 C -2.82556 -0.0658182 -0.11815 0
M  V30 4 O -3.29042 1.09719 -0.286817 0
M  V30 5 C -1.38087 -0.201587 -0.0352099 0
M  V30 6 C -0.758974 -1.42011 0.14766 0
M  V30 7 N 0.590817 -1.4703 0.215422 0
M  V30 8 C 1.3831 -0.406105 0.116454 0
M  V30 9 C 0.808599 0.843423 -0.0681911 0
M  V30 10 C -0.56666 0.931865 -0.141964 0
M  V30 11 N -1.18068 2.19096 -0.329631 0
M  V30 12 C 1.58497 1.97816 -0.176833 0
M  V30 13 C 2.95364 1.82477 -0.0951283 0
M  V30 14 C 3.54084 0.575722 0.0900345 0
M  V30 15 C 2.7651 -0.538949 0.19616 0
M  V30 16 C 3.37582 -1.8856 0.394769 0
M  V30 17 F 3.75771 2.9104 -0.196295 0
M  V30 18 H -5.52398 -1.7812 -0.562405 0
M  V30 19 H -5.25835 -0.0908475 -0.673892 0
M  V30 20 H -3.38113 -2.11146 0.11606 0
M  V30 21 H -1.37328 -2.30236 0.231637 0
M  V30 22 H -1.57684 2.68956 0.490144 0
M  V30 23 H -1.24313 2.62671 -1.27141 0
M  V30 24 H 1.16371 2.96406 -0.321069 0
M  V30 25 H 4.61487 0.45626 0.154051 0
M  V30 26 H 4.46803 -1.80394 0.275422 0
M  V30 27 H 3.00449 -2.61047 -0.367928 0
M  V30 28 H 3.1503 -2.29686 1.402 0
M  V30 END ATOM
M  V30 BEGIN BOND
M  V30 1 1 1 2
M  V30 2 1 2 3
M  V30 3 2 3 4
M  V30 4 1 3 5
M  V30 5 2 5 6
M  V30 6 1 6 7
M  V30 7 2 7 8
M  V30 8 1 8 9
M  V30 9 2 9 10
M  V30 10 1 10 11
M  V30 11 1 9 12
M  V30 12 2 12 13
M  V30 13 1 13 14
M  V30 14 2 14 15
M  V30 15 1 15 16
M  V30 16 1 13 17
M  V30 17 1 10 5
M  V30 18 1 15 8
M  V30 19 1 1 18
M  V30 20 1 1 19
M  V30 21 1 2 20
M  V30 22 1 6 21
M  V30 23 1 11 22
M  V30 24 1 11 23
M  V30 25 1 12 24
M  V30 26 1 14 25
M  V30 27 1 16 26
M  V30 28 1 16 27
M  V30 29 1 16 28
M  V30 END BOND
M  V30 END CTAB
M  END
