
     RDKit          3D

  0  0  0  0  0  0  0  0  0  0999 V3000
M  V30 BEGIN CTAB
M  V30 COUNTS 35 37 0 0 0
M  V30 BEGIN ATOM
M  V30 1 C 6.62129 0.456001 0.716045 0
M  V30 2 C 5.17134 0.539232 0.323956 0
M  V30 3 C 4.73319 -0.0674913 -0.827582 0
M  V30 4 C 3.39687 0.0301344 -1.15288 0
M  V30 5 C 2.47945 0.708276 -0.376603 0
M  V30 6 C 2.92628 1.31129 0.771791 0
M  V30 7 C 4.26092 1.22021 1.10723 0
M  V30 8 C 1.08656 0.767631 -0.783738 0
M  V30 9 N 0.123719 1.40092 -0.0970668 0
M  V30 10 O -1.00144 1.26794 -0.721302 0
M  V30 11 C -0.839172 0.563458 -1.8139 0
M  V30 12 N 0.487057 0.240964 -1.86119 0
M  V30 13 C -1.86639 0.173586 -2.82262 0
M  V30 14 S -2.66203 -1.38772 -2.45055 0
M  V30 15 C -3.6352 -1.23847 -0.95166 0
M  V30 16 N -3.67752 -0.0535527 -0.288805 0
M  V30 17 C -4.39138 0.115062 0.838904 0
M  V30 18 N -4.40604 1.37455 1.49842 0
M  V30 19 N -5.0685 -0.959863 1.2823 0
M  V30 20 C -5.04085 -2.13614 0.645387 0
M  V30 21 N -4.32156 -2.27457 -0.475045 0
M  V30 22 N -5.76791 -3.2661 1.13324 0
M  V30 23 H 7.19526 0.111732 -0.178885 0
M  V30 24 H 6.69287 -0.303504 1.51948 0
M  V30 25 H 7.00245 1.45255 1.02219 0
M  V30 26 H 5.45676 -0.600234 -1.43644 0
M  V30 27 H 3.03695 -0.44765 -2.06475 0
M  V30 28 H 2.25918 1.8577 1.42335 0
M  V30 29 H 4.66748 1.68465 2.01435 0
M  V30 30 H -2.58953 1.02406 -2.8608 0
M  V30 31 H -1.37615 0.0840643 -3.81629 0
M  V30 32 H -5.17792 2.04135 1.28143 0
M  V30 33 H -3.69204 1.68348 2.19185 0
M  V30 34 H -6.27787 -3.21999 2.04023 0
M  V30 35 H -5.80613 -4.15357 0.601109 0
M  V30 END ATOM
M  V30 BEGIN BOND
M  V30 1 1 1 2
M  V30 2 2 2 3
M  V30 3 1 3 4
M  V30 4 2 4 5
M  V30 5 1 5 6
M  V30 6 2 6 7
M  V30 7 1 5 8
M  V30 8 2 8 9
M  V30 9 1 9 10
M  V30 10 1 10 11
M  V30 11 2 11 12
M  V30 12 1 11 13
M  V30 13 1 13 14
M  V30 14 1 14 15
M  V30 15 2 15 16
M  V30 16 1 16 17
M  V30 17 1 17 18
M  V30 18 2 17 19
M  V30 19 1 19 20
M  V30 20 2 20 21
M  V30 21 1 20 22
M  V30 22 1 7 2
M  V30 23 1 12 8
M  V30 24 1 21 15
M  V30 25 1 1 23
M  V30 26 1 1 24
M  V30 27 1 1 25
M  V30 28 1 3 26
M  V30 29 1 4 27
M  V30 30 1 6 28
M  V30 31 1 7 29
M  V30 32 1 13 30
M  V30 33 1 13 31
M  V30 34 1 18 32
M  V30 35 1 18 33
M  V30 36 1 22 34
M  V30 37 1 22 35
M  V30 END BOND
M  V30 END CTAB
M  END
