
     RDKit          3D

  0  0  0  0  0  0  0  0  0  0999 V3000
M  V30 BEGIN CTAB
M  V30 COUNTS 26 27 0 0 0
M  V30 BEGIN ATOM
M  V30 1 N -0.812968 -1.59819 -0.678219 0
M  V30 2 C -1.23212 -0.379501 -0.0997344 0
M  V30 3 N -0.29416 0.513853 0.253887 0
M  V30 4 C 1.0766 0.212857 0.0393334 0
M  V30 5 C 1.64513 -0.933131 0.555654 0
M  V30 6 C 2.98417 -1.19915 0.329533 0
M  V30 7 C 3.79371 -0.352516 -0.404344 0
M  V30 8 C 3.22541 0.793254 -0.9206 0
M  V30 9 C 1.88873 1.0677 -0.700156 0
M  V30 10 F 5.11596 -0.644636 -0.610198 0
M  V30 11 C -0.697978 1.69108 0.812617 0
M  V30 12 O 0.178592 2.53177 1.14574 0
M  V30 13 N -2.02451 1.92644 0.994775 0
M  V30 14 C -2.96646 1.03766 0.643462 0
M  V30 15 O -4.16739 1.33256 0.845623 0
M  V30 16 C -2.57734 -0.159823 0.0763463 0
M  V30 17 N -3.51443 -1.14366 -0.318511 0
M  V30 18 H -0.498415 -1.67073 -1.67068 0
M  V30 19 H -0.805351 -2.47421 -0.122518 0
M  V30 20 H 1.0588 -1.63194 1.13793 0
M  V30 21 H 3.44456 -2.10647 0.735392 0
M  V30 22 H 3.82352 1.48249 -1.50059 0
M  V30 23 H 1.4016 1.95213 -1.08475 0
M  V30 24 H -2.31059 2.8307 1.42258 0
M  V30 25 H -3.66197 -1.96226 0.312382 0
M  V30 26 H -4.07307 -1.11628 -1.19496 0
M  V30 END ATOM
M  V30 BEGIN BOND
M  V30 1 1 1 2
M  V30 2 1 2 3
M  V30 3 1 3 4
M  V30 4 2 4 5
M  V30 5 1 5 6
M  V30 6 2 6 7
M  V30 7 1 7 8
M  V30 8 2 8 9
M  V30 9 1 7 10
M  V30 10 1 3 11
M  V30 11 2 11 12
M  V30 12 1 11 13
M  V30 13 1 13 14
M  V30 14 2 14 15
M  V30 15 1 14 16
M  V30 16 1 16 17
M  V30 17 2 16 2
M  V30 18 1 9 4
M  V30 19 1 1 18
M  V30 20 1 1 19
M  V30 21 1 5 20
M  V30 22 1 6 21
M  V30 23 1 8 22
M  V30 24 1 9 23
M  V30 25 1 13 24
M  V30 26 1 17 25
M  V30 27 1 17 26
M  V30 END BOND
M  V30 END CTAB
M  END
