
     RDKit          3D

  0  0  0  0  0  0  0  0  0  0999 V3000
M  V30 BEGIN CTAB
M  V30 COUNTS 42 43 0 0 0
M  V30 BEGIN ATOM
M  V30 1 N 3.20031 3.39241 0.00332448 0
M  V30 2 N 1.87009 3.01882 -0.375282 0
M  V30 3 C 1.02605 3.93479 -1.03039 0
M  V30 4 O 1.60675 5.10327 -1.22921 0
M  V30 5 C -0.306266 3.80181 -1.48864 0
M  V30 6 C -0.863294 4.90802 -2.13643 0
M  V30 7 C -2.14335 4.91908 -2.63147 0
M  V30 8 C -2.89479 3.77638 -2.47267 0
M  V30 9 C -2.35656 2.67352 -1.83372 0
M  V30 10 C -1.07085 2.63142 -1.32379 0
M  V30 11 O -0.6081 1.54686 -0.726777 0
M  V30 12 C -0.974116 0.294362 -0.364092 0
M  V30 13 C 0.223142 -0.412676 0.264429 0
M  V30 14 O 0.238462 -1.61413 0.726843 0
M  V30 15 C -0.176692 -2.56907 1.55227 0
M  V30 16 C -1.14711 -2.23233 2.46021 0
M  V30 17 C -1.63694 -3.13357 3.36315 0
M  V30 18 C -1.12876 -4.44468 3.35961 0
M  V30 19 C -0.159589 -4.76023 2.43966 0
M  V30 20 C 0.360862 -3.86774 1.50647 0
M  V30 21 C 1.34225 -4.307 0.553874 0
M  V30 22 O 1.80037 -5.50631 0.693475 0
M  V30 23 N 1.88358 -3.59483 -0.521529 0
M  V30 24 N 2.88326 -4.23537 -1.33461 0
M  V30 25 H 3.61114 3.95952 -0.770722 0
M  V30 26 H 3.06043 4.05412 0.816127 0
M  V30 27 H 1.60902 2.08339 -0.137186 0
M  V30 28 H -0.305426 5.82713 -2.28817 0
M  V30 29 H -2.56888 5.79228 -3.13987 0
M  V30 30 H -3.90666 3.78647 -2.87255 0
M  V30 31 H -3.05883 1.82257 -1.77143 0
M  V30 32 H -1.25686 -0.30814 -1.25262 0
M  V30 33 H -1.81628 0.205573 0.366217 0
M  V30 34 H 0.647491 0.315025 1.04783 0
M  V30 35 H 1.01046 -0.290006 -0.588487 0
M  V30 36 H -1.56811 -1.20224 2.4755 0
M  V30 37 H -2.39956 -2.87485 4.07896 0
M  V30 38 H -1.52486 -5.14017 4.08421 0
M  V30 39 H 0.241312 -5.79195 2.43062 0
M  V30 40 H 1.64467 -2.65542 -0.824398 0
M  V30 41 H 2.54411 -5.21613 -1.48817 0
M  V30 42 H 3.06811 -3.68995 -2.17678 0
M  V30 END ATOM
M  V30 BEGIN BOND
M  V30 1 1 1 2
M  V30 2 1 2 3
M  V30 3 2 3 4
M  V30 4 1 3 5
M  V30 5 2 5 6
M  V30 6 1 6 7
M  V30 7 2 7 8
M  V30 8 1 8 9
M  V30 9 2 9 10
M  V30 10 1 10 11
M  V30 11 1 11 12
M  V30 12 1 12 13
M  V30 13 1 13 14
M  V30 14 1 14 15
M  V30 15 2 15 16
M  V30 16 1 16 17
M  V30 17 2 17 18
M  V30 18 1 18 19
M  V30 19 2 19 20
M  V30 20 1 20 21
M  V30 21 2 21 22
M  V30 22 1 21 23
M  V30 23 1 23 24
M  V30 24 1 10 5
M  V30 25 1 20 15
M  V30 26 1 1 25
M  V30 27 1 1 26
M  V30 28 1 2 27
M  V30 29 1 6 28
M  V30 30 1 7 29
M  V30 31 1 8 30
M  V30 32 1 9 31
M  V30 33 1 12 32
M  V30 34 1 12 33
M  V30 35 1 13 34
M  V30 36 1 13 35
M  V30 37 1 16 36
M  V30 38 1 17 37
M  V30 39 1 18 38
M  V30 40 1 19 39
M  V30 41 1 23 40
M  V30 42 1 24 41
M  V30 43 1 24 42
M  V30 END BOND
M  V30 END CTAB
M  END
