
     RDKit          3D

  0  0  0  0  0  0  0  0  0  0999 V3000
M  V30 BEGIN CTAB
M  V30 COUNTS 25 25 0 0 0
M  V30 BEGIN ATOM
M  V30 1 N 3.90989 0.310528 0.584625 0
M  V30 2 C 2.52093 0.467431 0.817211 0
M  V30 3 C 1.73281 -0.0353495 -0.392766 0
M  V30 4 C 0.272484 0.107788 -0.19712 0
M  V30 5 C -0.314798 0.903302 0.738439 0
M  V30 6 C -1.70599 0.968139 0.841652 0
M  V30 7 C -2.52267 0.238166 0.0103805 0
M  V30 8 C -1.926 -0.564425 -0.933586 0
M  V30 9 C -0.54324 -0.632081 -1.0399 0
M  V30 10 Br -3.03153 -1.58755 -2.09946 0
M  V30 11 C -4.00158 0.270088 0.0771773 0
M  V30 12 N 2.02675 -1.45131 -0.542666 0
M  V30 13 H 4.22641 0.389319 -0.388062 0
M  V30 14 H 4.43975 -0.269313 1.21462 0
M  V30 15 H 2.20744 -0.0907034 1.70613 0
M  V30 16 H 2.29849 1.55196 0.923008 0
M  V30 17 H 2.00591 0.528406 -1.30545 0
M  V30 18 H 0.318352 1.48722 1.40386 0
M  V30 19 H -2.15275 1.6106 1.59667 0
M  V30 20 H -0.108053 -1.28023 -1.80127 0
M  V30 21 H -4.42356 -0.0351221 -0.898061 0
M  V30 22 H -4.30541 -0.432681 0.884647 0
M  V30 23 H -4.31716 1.2869 0.390686 0
M  V30 24 H 2.11869 -1.73262 -1.5382 0
M  V30 25 H 1.27484 -2.00847 -0.0525499 0
M  V30 END ATOM
M  V30 BEGIN BOND
M  V30 1 1 1 2
M  V30 2 1 2 3
M  V30 3 1 3 4
M  V30 4 2 4 5
M  V30 5 1 5 6
M  V30 6 2 6 7
M  V30 7 1 7 8
M  V30 8 2 8 9
M  V30 9 1 8 10
M  V30 10 1 7 11
M  V30 11 1 3 12
M  V30 12 1 9 4
M  V30 13 1 1 13
M  V30 14 1 1 14
M  V30 15 1 2 15
M  V30 16 1 2 16
M  V30 17 1 3 17
M  V30 18 1 5 18
M  V30 19 1 6 19
M  V30 20 1 9 20
M  V30 21 1 11 21
M  V30 22 1 11 22
M  V30 23 1 11 23
M  V30 24 1 12 24
M  V30 25 1 12 25
M  V30 END BOND
M  V30 END CTAB
M  END
