
     RDKit          3D

  0  0  0  0  0  0  0  0  0  0999 V3000
M  V30 BEGIN CTAB
M  V30 COUNTS 23 24 0 0 0
M  V30 BEGIN ATOM
M  V30 1 N -3.49054 1.6139 0.277842 0
M  V30 2 C -2.67794 0.449299 0.279768 0
M  V30 3 C -3.28759 -0.784362 0.35004 0
M  V30 4 C -2.50459 -1.93413 0.352841 0
M  V30 5 N -1.16327 -1.83235 0.287141 0
M  V30 6 C -0.521152 -0.65153 0.217166 0
M  V30 7 C -1.29917 0.48025 0.214747 0
M  V30 8 C 0.937098 -0.613427 0.148212 0
M  V30 9 C 1.71256 -1.73824 0.1505 0
M  V30 10 N 3.05945 -1.64432 0.0848041 0
M  V30 11 C 3.63785 -0.431127 0.0166895 0
M  V30 12 C 2.88784 0.726341 0.0121112 0
M  V30 13 N 1.55107 0.588359 0.0788343 0
M  V30 14 N 3.49005 2.02136 -0.0598869 0
M  V30 15 H -4.4056 1.68875 -0.213951 0
M  V30 16 H -3.17074 2.46141 0.795641 0
M  V30 17 H -4.36555 -0.845284 0.402131 0
M  V30 18 H -2.98066 -2.90376 0.407923 0
M  V30 19 H -0.804006 1.42484 0.159642 0
M  V30 20 H 1.19542 -2.69444 0.207039 0
M  V30 21 H 4.7164 -0.334938 -0.0366248 0
M  V30 22 H 4.41367 2.07963 -0.529073 0
M  V30 23 H 3.06943 2.87377 0.317345 0
M  V30 END ATOM
M  V30 BEGIN BOND
M  V30 1 1 1 2
M  V30 2 2 2 3
M  V30 3 1 3 4
M  V30 4 2 4 5
M  V30 5 1 5 6
M  V30 6 2 6 7
M  V30 7 1 6 8
M  V30 8 2 8 9
M  V30 9 1 9 10
M  V30 10 2 10 11
M  V30 11 1 11 12
M  V30 12 2 12 13
M  V30 13 1 12 14
M  V30 14 1 7 2
M  V30 15 1 13 8
M  V30 16 1 1 15
M  V30 17 1 1 16
M  V30 18 1 3 17
M  V30 19 1 4 18
M  V30 20 1 7 19
M  V30 21 1 9 20
M  V30 22 1 11 21
M  V30 23 1 14 22
M  V30 24 1 14 23
M  V30 END BOND
M  V30 END CTAB
M  END
