
     RDKit          3D

  0  0  0  0  0  0  0  0  0  0999 V3000
M  V30 BEGIN CTAB
M  V30 COUNTS 23 24 0 0 0
M  V30 BEGIN ATOM
M  V30 1 C -3.78932 0.440024 -1.13706 0
M  V30 2 C -2.50216 0.0902865 -0.460268 0
M  V30 3 C -2.45907 -0.672176 0.689203 0
M  V30 4 C -1.246 -0.971248 1.28121 0
M  V30 5 C -0.0432686 -0.534201 0.767148 0
M  V30 6 N 1.13596 -0.8314 1.35235 0
M  V30 7 C 2.2927 -0.373485 0.801536 0
M  V30 8 N 3.56596 -0.651789 1.36954 0
M  V30 9 C 2.25002 0.386853 -0.344708 0
M  V30 10 N 3.47216 0.850966 -0.897155 0
M  V30 11 N 1.07291 0.681314 -0.92554 0
M  V30 12 C -0.0854667 0.228605 -0.382732 0
M  V30 13 C -1.3066 0.52786 -0.975968 0
M  V30 14 H -4.19082 1.38527 -0.6755 0
M  V30 15 H -3.57408 0.677742 -2.19161 0
M  V30 16 H -4.56165 -0.324281 -1.00065 0
M  V30 17 H -3.40938 -1.0261 1.10828 0
M  V30 18 H -1.2117 -1.5656 2.17734 0
M  V30 19 H 3.86096 -0.0458353 2.16854 0
M  V30 20 H 4.19866 -1.41048 1.03421 0
M  V30 21 H 3.97989 1.69804 -0.545957 0
M  V30 22 H 3.8808 0.313555 -1.69663 0
M  V30 23 H -1.33052 1.12608 -1.87666 0
M  V30 END ATOM
M  V30 BEGIN BOND
M  V30 1 1 1 2
M  V30 2 2 2 3
M  V30 3 1 3 4
M  V30 4 2 4 5
M  V30 5 1 5 6
M  V30 6 2 6 7
M  V30 7 1 7 8
M  V30 8 1 7 9
M  V30 9 1 9 10
M  V30 10 2 9 11
M  V30 11 1 11 12
M  V30 12 2 12 13
M  V30 13 1 13 2
M  V30 14 1 12 5
M  V30 15 1 1 14
M  V30 16 1 1 15
M  V30 17 1 1 16
M  V30 18 1 3 17
M  V30 19 1 4 18
M  V30 20 1 8 19
M  V30 21 1 8 20
M  V30 22 1 10 21
M  V30 23 1 10 22
M  V30 24 1 13 23
M  V30 END BOND
M  V30 END CTAB
M  END
