
     RDKit          3D

  0  0  0  0  0  0  0  0  0  0999 V3000
M  V30 BEGIN CTAB
M  V30 COUNTS 39 41 0 0 0
M  V30 BEGIN ATOM
M  V30 1 N 6.00727 -1.46168 -2.50161 0
M  V30 2 C 5.26348 -0.634159 -1.61771 0
M  V30 3 N 3.93928 -0.426767 -1.85046 0
M  V30 4 C 3.17932 0.323713 -1.06824 0
M  V30 5 S 1.4638 0.571964 -1.43441 0
M  V30 6 C 0.509204 -0.782339 -0.678903 0
M  V30 7 C -0.943409 -0.606094 -0.920801 0
M  V30 8 O -1.33986 -0.884754 -2.07183 0
M  V30 9 N -1.79719 -0.153462 0.0854916 0
M  V30 10 C -1.42615 -0.181806 1.51566 0
M  V30 11 C -2.61913 -0.398829 2.41393 0
M  V30 12 C -3.7967 -0.996197 1.67543 0
M  V30 13 C -4.16857 -0.100525 0.530584 0
M  V30 14 C -3.08008 0.304962 -0.2356 0
M  V30 15 C -3.34 1.15488 -1.29637 0
M  V30 16 F -2.26357 1.57252 -2.02176 0
M  V30 17 C -4.61708 1.57309 -1.57661 0
M  V30 18 C -5.68276 1.16414 -0.81391 0
M  V30 19 C -5.45955 0.30462 0.270866 0
M  V30 20 N 3.71343 0.917814 0.00716801 0
M  V30 21 C 5.03751 0.754743 0.302315 0
M  V30 22 C 5.80911 -0.0274346 -0.519194 0
M  V30 23 N 5.61888 1.37604 1.42693 0
M  V30 24 H 5.91021 -2.49051 -2.39758 0
M  V30 25 H 6.63681 -1.10118 -3.23983 0
M  V30 26 H 0.834963 -1.70201 -1.25232 0
M  V30 27 H 0.740209 -0.931738 0.359768 0
M  V30 28 H -0.987213 0.800072 1.76746 0
M  V30 29 H -0.663531 -0.957177 1.66274 0
M  V30 30 H -2.96711 0.55584 2.85649 0
M  V30 31 H -2.30251 -1.08326 3.22428 0
M  V30 32 H -4.62349 -1.21163 2.35125 0
M  V30 33 H -3.43732 -1.94562 1.23524 0
M  V30 34 H -4.78554 2.22401 -2.39779 0
M  V30 35 H -6.71159 1.45214 -0.974077 0
M  V30 36 H -6.26929 -0.0420604 0.892943 0
M  V30 37 H 6.86043 -0.179736 -0.315162 0
M  V30 38 H 6.6471 1.62256 1.41019 0
M  V30 39 H 5.11065 1.62587 2.30363 0
M  V30 END ATOM
M  V30 BEGIN BOND
M  V30 1 1 1 2
M  V30 2 2 2 3
M  V30 3 1 3 4
M  V30 4 1 4 5
M  V30 5 1 5 6
M  V30 6 1 6 7
M  V30 7 2 7 8
M  V30 8 1 7 9
M  V30 9 1 9 10
M  V30 10 1 10 11
M  V30 11 1 11 12
M  V30 12 1 12 13
M  V30 13 2 13 14
M  V30 14 1 14 15
M  V30 15 1 15 16
M  V30 16 2 15 17
M  V30 17 1 17 18
M  V30 18 2 18 19
M  V30 19 2 4 20
M  V30 20 1 20 21
M  V30 21 2 21 22
M  V30 22 1 21 23
M  V30 23 1 22 2
M  V30 24 1 14 9
M  V30 25 1 19 13
M  V30 26 1 1 24
M  V30 27 1 1 25
M  V30 28 1 6 26
M  V30 29 1 6 27
M  V30 30 1 10 28
M  V30 31 1 10 29
M  V30 32 1 11 30
M  V30 33 1 11 31
M  V30 34 1 12 32
M  V30 35 1 12 33
M  V30 36 1 17 34
M  V30 37 1 18 35
M  V30 38 1 19 36
M  V30 39 1 22 37
M  V30 40 1 23 38
M  V30 41 1 23 39
M  V30 END BOND
M  V30 END CTAB
M  END
