
     RDKit          3D

  0  0  0  0  0  0  0  0  0  0999 V3000
M  V30 BEGIN CTAB
M  V30 COUNTS 42 44 0 0 0
M  V30 BEGIN ATOM
M  V30 1 N -8.30482 0.399533 0.201133 0
M  V30 2 C -7.12109 -0.307391 -0.1506 0
M  V30 3 C -7.271 -1.42204 -0.954132 0
M  V30 4 C -6.1441 -2.12686 -1.31131 0
M  V30 5 C -4.91443 -1.6825 -0.846471 0
M  V30 6 C -4.75387 -0.580952 -0.0508574 0
M  V30 7 N -3.51343 -0.100548 0.440492 0
M  V30 8 C -2.24159 -0.605974 0.241005 0
M  V30 9 O -1.92769 -1.6315 -0.444864 0
M  V30 10 C -1.08067 0.0622629 0.856037 0
M  V30 11 C -1.21636 0.860256 1.96469 0
M  V30 12 C -0.116385 1.49699 2.53497 0
M  V30 13 C 1.14941 1.35062 2.00921 0
M  V30 14 C 1.28502 0.546158 0.892297 0
M  V30 15 C 0.180289 -0.0834297 0.332673 0
M  V30 16 C 2.59277 0.348048 0.285698 0
M  V30 17 O 2.66491 -0.401353 -0.726099 0
M  V30 18 N 3.79572 0.938759 0.751643 0
M  V30 19 C 5.02538 0.706634 0.120561 0
M  V30 20 C 6.16503 1.30528 0.613013 0
M  V30 21 C 7.354 1.0521 -0.0350608 0
M  V30 22 C 7.39987 0.215813 -1.15413 0
M  V30 23 C 6.23349 -0.36328 -1.61367 0
M  V30 24 N 6.25088 -1.21817 -2.75002 0
M  V30 25 N 5.08837 -0.107222 -0.973357 0
M  V30 26 N -5.91346 0.0744531 0.267482 0
M  V30 27 H -8.61369 1.23622 -0.324828 0
M  V30 28 H -8.84745 0.0246693 1.0242 0
M  V30 29 H -8.25629 -1.72542 -1.28953 0
M  V30 30 H -6.22462 -3.01192 -1.94454 0
M  V30 31 H -4.05302 -2.26432 -1.14977 0
M  V30 32 H -3.58325 0.779846 1.05238 0
M  V30 33 H -2.18051 1.0041 2.41896 0
M  V30 34 H -0.218439 2.13127 3.41431 0
M  V30 35 H 2.00835 1.85236 2.46074 0
M  V30 36 H 0.277019 -0.722449 -0.551593 0
M  V30 37 H 3.78438 1.5686 1.58904 0
M  V30 38 H 6.12746 1.95195 1.47866 0
M  V30 39 H 8.27828 1.50751 0.324527 0
M  V30 40 H 8.31437 0.0101789 -1.66711 0
M  V30 41 H 5.70104 -2.11849 -2.78414 0
M  V30 42 H 6.82015 -0.949756 -3.56944 0
M  V30 END ATOM
M  V30 BEGIN BOND
M  V30 1 1 1 2
M  V30 2 2 2 3
M  V30 3 1 3 4
M  V30 4 2 4 5
M  V30 5 1 5 6
M  V30 6 1 6 7
M  V30 7 1 7 8
M  V30 8 2 8 9
M  V30 9 1 8 10
M  V30 10 2 10 11
M  V30 11 1 11 12
M  V30 12 2 12 13
M  V30 13 1 13 14
M  V30 14 2 14 15
M  V30 15 1 14 16
M  V30 16 2 16 17
M  V30 17 1 16 18
M  V30 18 1 18 19
M  V30 19 2 19 20
M  V30 20 1 20 21
M  V30 21 2 21 22
M  V30 22 1 22 23
M  V30 23 1 23 24
M  V30 24 2 23 25
M  V30 25 2 6 26
M  V30 26 1 26 2
M  V30 27 1 15 10
M  V30 28 1 25 19
M  V30 29 1 1 27
M  V30 30 1 1 28
M  V30 31 1 3 29
M  V30 32 1 4 30
M  V30 33 1 5 31
M  V30 34 1 7 32
M  V30 35 1 11 33
M  V30 36 1 12 34
M  V30 37 1 13 35
M  V30 38 1 15 36
M  V30 39 1 18 37
M  V30 40 1 20 38
M  V30 41 1 21 39
M  V30 42 1 22 40
M  V30 43 1 24 41
M  V30 44 1 24 42
M  V30 END BOND
M  V30 END CTAB
M  END
