
     RDKit          3D

  0  0  0  0  0  0  0  0  0  0999 V3000
M  V30 BEGIN CTAB
M  V30 COUNTS 35 36 0 0 0
M  V30 BEGIN ATOM
M  V30 1 O 1.07322 1.40154 0.543501 0
M  V30 2 C 0.795844 0.334097 -0.0427377 0
M  V30 3 N 1.72659 -0.613949 -0.464164 0
M  V30 4 C 3.10804 -0.514927 -0.312701 0
M  V30 5 C 3.80161 0.569015 0.112415 0
M  V30 6 C 5.20158 0.610076 0.21534 0
M  V30 7 C 5.82721 1.86628 0.67978 0
M  V30 8 C 5.91547 -0.50423 -0.133196 0
M  V30 9 C 5.25276 -1.63607 -0.574222 0
M  V30 10 C 3.88128 -1.63854 -0.659433 0
M  V30 11 Cl 3.05571 -3.08018 -1.21582 0
M  V30 12 C -0.669523 0.0858525 -0.296157 0
M  V30 13 S -1.5458 0.371124 1.25207 0
M  V30 14 C -3.29934 0.191167 0.901048 0
M  V30 15 N -3.89211 -0.994954 0.994458 0
M  V30 16 C -5.21123 -1.1665 0.72544 0
M  V30 17 N -5.71843 -2.47155 0.854603 0
M  V30 18 C -5.95005 -0.0691641 0.343409 0
M  V30 19 C -5.33611 1.14925 0.248514 0
M  V30 20 N -4.01516 1.2599 0.530097 0
M  V30 21 N -6.07636 2.29254 -0.148507 0
M  V30 22 H 1.33106 -1.50979 -0.965812 0
M  V30 23 H 3.28769 1.46425 0.388126 0
M  V30 24 H 6.18135 1.6913 1.72377 0
M  V30 25 H 5.06621 2.66647 0.756399 0
M  V30 26 H 6.67845 2.15684 0.0151178 0
M  V30 27 H 6.99914 -0.47091 -0.0523416 0
M  V30 28 H 5.85369 -2.50078 -0.843142 0
M  V30 29 H -0.789438 -0.950872 -0.640622 0
M  V30 30 H -1.02731 0.761287 -1.08993 0
M  V30 31 H -6.19708 -2.75787 1.72071 0
M  V30 32 H -5.61628 -3.14897 0.0826628 0
M  V30 33 H -7.01542 -0.226344 0.124057 0
M  V30 34 H -5.68109 2.91963 -0.864671 0
M  V30 35 H -6.99617 2.465 0.292978 0
M  V30 END ATOM
M  V30 BEGIN BOND
M  V30 1 2 1 2
M  V30 2 1 2 3
M  V30 3 1 3 4
M  V30 4 2 4 5
M  V30 5 1 5 6
M  V30 6 1 6 7
M  V30 7 2 6 8
M  V30 8 1 8 9
M  V30 9 2 9 10
M  V30 10 1 10 11
M  V30 11 1 2 12
M  V30 12 1 12 13
M  V30 13 1 13 14
M  V30 14 2 14 15
M  V30 15 1 15 16
M  V30 16 1 16 17
M  V30 17 2 16 18
M  V30 18 1 18 19
M  V30 19 2 19 20
M  V30 20 1 19 21
M  V30 21 1 10 4
M  V30 22 1 20 14
M  V30 23 1 3 22
M  V30 24 1 5 23
M  V30 25 1 7 24
M  V30 26 1 7 25
M  V30 27 1 7 26
M  V30 28 1 8 27
M  V30 29 1 9 28
M  V30 30 1 12 29
M  V30 31 1 12 30
M  V30 32 1 17 31
M  V30 33 1 17 32
M  V30 34 1 18 33
M  V30 35 1 21 34
M  V30 36 1 21 35
M  V30 END BOND
M  V30 END CTAB
M  END
