
     RDKit          3D

  0  0  0  0  0  0  0  0  0  0999 V3000
M  V30 BEGIN CTAB
M  V30 COUNTS 55 57 0 0 0
M  V30 BEGIN ATOM
M  V30 1 C -1.03577 -1.58258 4.55306 0
M  V30 2 O 0.15337 -1.23318 3.82157 0
M  V30 3 C 0.0772938 -0.852961 2.49214 0
M  V30 4 N 1.22593 -0.540404 1.87162 0
M  V30 5 C 1.25012 -0.1655 0.58685 0
M  V30 6 N 0.103236 -0.10041 -0.101579 0
M  V30 7 C -1.06647 -0.401101 0.467512 0
M  V30 8 N -1.05344 -0.778086 1.78363 0
M  V30 9 N -2.3312 -0.354527 -0.181138 0
M  V30 10 N -3.39247 0.265565 0.300912 0
M  V30 11 C -4.45492 0.162198 -0.52412 0
M  V30 12 C -4.0263 -0.56878 -1.58908 0
M  V30 13 C -2.68623 -0.888858 -1.35586 0
M  V30 14 N -1.91781 -1.64242 -2.27336 0
M  V30 15 C -5.79052 0.738239 -0.263741 0
M  V30 16 C -6.63697 -0.117679 0.653252 0
M  V30 17 C -6.47346 1.11888 -1.54251 0
M  V30 18 C -5.60458 2.0795 0.522981 0
M  V30 19 N 2.5339 0.154388 0.0538424 0
M  V30 20 N 3.69703 -0.399512 0.351411 0
M  V30 21 C 4.69365 0.171463 -0.348432 0
M  V30 22 C 4.14602 1.13442 -1.12982 0
M  V30 23 C 2.78342 1.09927 -0.855154 0
M  V30 24 N 1.80896 1.95438 -1.47089 0
M  V30 25 C 6.1151 -0.267658 -0.182207 0
M  V30 26 C 6.54633 -0.104912 1.25945 0
M  V30 27 C 6.1435 -1.7625 -0.462828 0
M  V30 28 C 6.97757 0.515641 -1.11185 0
M  V30 29 H -0.808068 -2.0513 5.5144 0
M  V30 30 H -1.59824 -2.26843 3.87922 0
M  V30 31 H -1.67894 -0.673836 4.64513 0
M  V30 32 H -4.61177 -0.859428 -2.4444 0
M  V30 33 H -1.53246 -2.5801 -2.02152 0
M  V30 34 H -1.7235 -1.295 -3.23838 0
M  V30 35 H -7.19907 0.483576 1.39462 0
M  V30 36 H -6.02302 -0.816698 1.24778 0
M  V30 37 H -7.42128 -0.683576 0.0934331 0
M  V30 38 H -6.79581 0.225818 -2.12303 0
M  V30 39 H -5.7706 1.7525 -2.11027 0
M  V30 40 H -7.35003 1.75535 -1.30471 0
M  V30 41 H -5.59754 1.9095 1.6197 0
M  V30 42 H -6.42105 2.80728 0.285242 0
M  V30 43 H -4.66027 2.56648 0.188476 0
M  V30 44 H 4.69116 1.77112 -1.80764 0
M  V30 45 H 1.53299 2.81518 -0.990239 0
M  V30 46 H 1.39279 1.71253 -2.39184 0
M  V30 47 H 5.68771 0.291354 1.90274 0
M  V30 48 H 6.87389 -1.06178 1.72252 0
M  V30 49 H 7.36605 0.644042 1.2909 0
M  V30 50 H 5.66666 -1.90865 -1.44532 0
M  V30 51 H 5.4454 -2.20557 0.292229 0
M  V30 52 H 7.14913 -2.17898 -0.367123 0
M  V30 53 H 7.97171 0.0020564 -1.19848 0
M  V30 54 H 6.46091 0.692904 -2.07036 0
M  V30 55 H 7.16795 1.52079 -0.650119 0
M  V30 END ATOM
M  V30 BEGIN BOND
M  V30 1 1 1 2
M  V30 2 1 2 3
M  V30 3 2 3 4
M  V30 4 1 4 5
M  V30 5 2 5 6
M  V30 6 1 6 7
M  V30 7 2 7 8
M  V30 8 1 7 9
M  V30 9 1 9 10
M  V30 10 2 10 11
M  V30 11 1 11 12
M  V30 12 2 12 13
M  V30 13 1 13 14
M  V30 14 1 11 15
M  V30 15 1 15 16
M  V30 16 1 15 17
M  V30 17 1 15 18
M  V30 18 1 5 19
M  V30 19 1 19 20
M  V30 20 2 20 21
M  V30 21 1 21 22
M  V30 22 2 22 23
M  V30 23 1 23 24
M  V30 24 1 21 25
M  V30 25 1 25 26
M  V30 26 1 25 27
M  V30 27 1 25 28
M  V30 28 1 8 3
M  V30 29 1 13 9
M  V30 30 1 23 19
M  V30 31 1 1 29
M  V30 32 1 1 30
M  V30 33 1 1 31
M  V30 34 1 12 32
M  V30 35 1 14 33
M  V30 36 1 14 34
M  V30 37 1 16 35
M  V30 38 1 16 36
M  V30 39 1 16 37
M  V30 40 1 17 38
M  V30 41 1 17 39
M  V30 42 1 17 40
M  V30 43 1 18 41
M  V30 44 1 18 42
M  V30 45 1 18 43
M  V30 46 1 22 44
M  V30 47 1 24 45
M  V30 48 1 24 46
M  V30 49 1 26 47
M  V30 50 1 26 48
M  V30 51 1 26 49
M  V30 52 1 27 50
M  V30 53 1 27 51
M  V30 54 1 27 52
M  V30 55 1 28 53
M  V30 56 1 28 54
M  V30 57 1 28 55
M  V30 END BOND
M  V30 END CTAB
M  END
