
     RDKit          3D

  0  0  0  0  0  0  0  0  0  0999 V3000
M  V30 BEGIN CTAB
M  V30 COUNTS 21 21 0 0 0
M  V30 BEGIN ATOM
M  V30 1 C -2.73387 0.480617 0.15422 0
M  V30 2 N -1.28198 0.671484 0.0715613 0
M  V30 3 C -0.760966 1.91575 0.052517 0
M  V30 4 S -1.73392 3.22968 0.120897 0
M  V30 5 N 0.577398 2.03159 -0.0242084 0
M  V30 6 C 1.39959 0.969279 -0.0815748 0
M  V30 7 N 2.82327 1.09953 -0.163127 0
M  V30 8 C 0.87759 -0.306889 -0.0627679 0
M  V30 9 C 1.71676 -1.53302 -0.122609 0
M  V30 10 C -0.493718 -0.421031 0.0158883 0
M  V30 11 N -1.04459 -1.74396 0.035954 0
M  V30 12 H -3.10432 -0.212277 -0.617988 0
M  V30 13 H -2.99322 0.033755 1.13901 0
M  V30 14 H -3.24994 1.44589 0.0943236 0
M  V30 15 H 3.29029 1.60234 -0.947957 0
M  V30 16 H 3.39992 0.670662 0.597471 0
M  V30 17 H 1.08891 -2.36177 -0.4684 0
M  V30 18 H 2.64592 -1.38632 -0.698638 0
M  V30 19 H 2.05404 -1.74622 0.934319 0
M  V30 20 H -1.16283 -2.18934 -0.910923 0
M  V30 21 H -1.31431 -2.24976 0.882033 0
M  V30 END ATOM
M  V30 BEGIN BOND
M  V30 1 1 1 2
M  V30 2 1 2 3
M  V30 3 2 3 4
M  V30 4 1 3 5
M  V30 5 2 5 6
M  V30 6 1 6 7
M  V30 7 1 6 8
M  V30 8 1 8 9
M  V30 9 2 8 10
M  V30 10 1 10 11
M  V30 11 1 10 2
M  V30 12 1 1 12
M  V30 13 1 1 13
M  V30 14 1 1 14
M  V30 15 1 7 15
M  V30 16 1 7 16
M  V30 17 1 9 17
M  V30 18 1 9 18
M  V30 19 1 9 19
M  V30 20 1 11 20
M  V30 21 1 11 21
M  V30 END BOND
M  V30 END CTAB
M  END
