
     RDKit          3D

  0  0  0  0  0  0  0  0  0  0999 V3000
M  V30 BEGIN CTAB
M  V30 COUNTS 28 28 0 0 0
M  V30 BEGIN ATOM
M  V30 1 C -2.3658 -1.3213 1.27226 0
M  V30 2 C -1.68448 -0.733061 0.0475603 0
M  V30 3 O -0.626272 0.119993 0.394993 0
M  V30 4 C 0.671069 -0.195663 0.00311375 0
M  V30 5 N 0.943203 -1.30669 -0.706745 0
M  V30 6 C 2.17337 -1.66233 -1.11216 0
M  V30 7 C 3.2505 -0.869163 -0.803589 0
M  V30 8 C 3.04395 0.280818 -0.0805626 0
M  V30 9 C 1.74782 0.609982 0.319233 0
M  V30 10 N 1.56642 1.80132 1.06318 0
M  V30 11 N 4.12799 1.12314 0.25646 0
M  V30 12 C -2.69834 -0.045984 -0.852789 0
M  V30 13 C -3.414 1.07739 -0.153787 0
M  V30 14 H -1.63685 -1.49871 2.07347 0
M  V30 15 H -3.19379 -0.636916 1.57477 0
M  V30 16 H -2.79909 -2.32836 1.02114 0
M  V30 17 H -1.29768 -1.59702 -0.531707 0
M  V30 18 H 2.35465 -2.5752 -1.68882 0
M  V30 19 H 4.25334 -1.17155 -1.14157 0
M  V30 20 H 1.96731 1.83653 2.02415 0
M  V30 21 H 1.06373 2.64556 0.725628 0
M  V30 22 H 4.59508 1.72076 -0.449629 0
M  V30 23 H 4.44986 1.12918 1.24189 0
M  V30 24 H -3.43282 -0.797021 -1.15819 0
M  V30 25 H -2.13164 0.324124 -1.72911 0
M  V30 26 H -3.83485 1.73667 -0.968932 0
M  V30 27 H -4.33014 0.70418 0.387607 0
M  V30 28 H -2.76253 1.62933 0.533566 0
M  V30 END ATOM
M  V30 BEGIN BOND
M  V30 1 1 1 2
M  V30 2 1 2 3
M  V30 3 1 3 4
M  V30 4 2 4 5
M  V30 5 1 5 6
M  V30 6 2 6 7
M  V30 7 1 7 8
M  V30 8 2 8 9
M  V30 9 1 9 10
M  V30 10 1 8 11
M  V30 11 1 2 12
M  V30 12 1 12 13
M  V30 13 1 9 4
M  V30 14 1 1 14
M  V30 15 1 1 15
M  V30 16 1 1 16
M  V30 17 1 2 17
M  V30 18 1 6 18
M  V30 19 1 7 19
M  V30 20 1 10 20
M  V30 21 1 10 21
M  V30 22 1 11 22
M  V30 23 1 11 23
M  V30 24 1 12 24
M  V30 25 1 12 25
M  V30 26 1 13 26
M  V30 27 1 13 27
M  V30 28 1 13 28
M  V30 END BOND
M  V30 END CTAB
M  END
