
     RDKit          3D

  0  0  0  0  0  0  0  0  0  0999 V3000
M  V30 BEGIN CTAB
M  V30 COUNTS 27 27 0 0 0
M  V30 BEGIN ATOM
M  V30 1 N 4.40452 -1.65867 0.242046 0
M  V30 2 N 4.4444 -0.269477 0.34849 0
M  V30 3 C 3.35875 0.394819 0.1848 0
M  V30 4 S 1.84406 -0.461522 -0.170263 0
M  V30 5 C 0.522264 0.728586 -0.342132 0
M  V30 6 C -0.817726 0.0886687 -0.647755 0
M  V30 7 C -1.15596 -0.830196 0.471222 0
M  V30 8 C -2.57763 -0.711172 0.957679 0
M  V30 9 C -3.39789 -0.499972 -0.323872 0
M  V30 10 C -3.00917 0.882089 -0.771096 0
M  V30 11 O -1.6962 1.06283 -0.955488 0
M  V30 12 N 3.35724 1.80529 0.284744 0
M  V30 13 H 4.93328 -2.15549 -0.497788 0
M  V30 14 H 3.83657 -2.24112 0.909779 0
M  V30 15 H 0.817112 1.45294 -1.14798 0
M  V30 16 H 0.483006 1.33928 0.588149 0
M  V30 17 H -0.643877 -0.529742 -1.57851 0
M  V30 18 H -1.01947 -1.89477 0.176009 0
M  V30 19 H -0.467518 -0.692687 1.35662 0
M  V30 20 H -2.62585 0.173724 1.61707 0
M  V30 21 H -2.89087 -1.62576 1.48404 0
M  V30 22 H -2.9993 -1.21263 -1.10048 0
M  V30 23 H -4.46214 -0.60637 -0.146764 0
M  V30 24 H -3.36712 1.5913 0.031672 0
M  V30 25 H -3.57184 1.19051 -1.68264 0
M  V30 26 H 3.56678 2.31951 1.16118 0
M  V30 27 H 3.13458 2.36003 -0.56377 0
M  V30 END ATOM
M  V30 BEGIN BOND
M  V30 1 1 1 2
M  V30 2 2 2 3 CFG=2
M  V30 3 1 3 4
M  V30 4 1 4 5
M  V30 5 1 5 6
M  V30 6 1 6 7
M  V30 7 1 7 8
M  V30 8 1 8 9
M  V30 9 1 9 10
M  V30 10 1 10 11
M  V30 11 1 3 12
M  V30 12 1 11 6
M  V30 13 1 1 13
M  V30 14 1 1 14
M  V30 15 1 5 15
M  V30 16 1 5 16
M  V30 17 1 6 17
M  V30 18 1 7 18
M  V30 19 1 7 19
M  V30 20 1 8 20
M  V30 21 1 8 21
M  V30 22 1 9 22
M  V30 23 1 9 23
M  V30 24 1 10 24
M  V30 25 1 10 25
M  V30 26 1 12 26
M  V30 27 1 12 27
M  V30 END BOND
M  V30 END CTAB
M  END
