
     RDKit          3D

  0  0  0  0  0  0  0  0  0  0999 V3000
M  V30 BEGIN CTAB
M  V30 COUNTS 35 36 0 0 0
M  V30 BEGIN ATOM
M  V30 1 C -0.254221 -1.36344 1.53472 0
M  V30 2 C -0.439789 -0.898873 0.109287 0 CFG=2
M  V30 3 N -0.559446 -1.97402 -0.839844 0
M  V30 4 C 0.40005 0.253602 -0.297112 0 CFG=1
M  V30 5 N 0.0140675 1.39038 0.582507 0
M  V30 6 C 1.84202 0.183953 -0.184707 0
M  V30 7 C 2.65457 -0.870256 0.0421366 0
M  V30 8 C 4.03387 -0.755196 0.124956 0
M  V30 9 C 4.65281 0.458148 -0.0224457 0
M  V30 10 Cl 6.39905 0.647448 0.0656851 0
M  V30 11 C 3.86655 1.54662 -0.253091 0
M  V30 12 C 2.5052 1.41767 -0.332837 0
M  V30 13 C -1.84221 -0.294742 0.128817 0
M  V30 14 C -2.42335 0.198454 1.24444 0
M  V30 15 C -3.69784 0.74148 1.16367 0
M  V30 16 C -4.38946 0.791593 -0.0345021 0
M  V30 17 Cl -6.00239 1.47194 -0.152613 0
M  V30 18 C -3.78702 0.28641 -1.16502 0
M  V30 19 C -2.49602 -0.262053 -1.07513 0
M  V30 20 H 0.128916 -0.555603 2.17146 0
M  V30 21 H -1.21621 -1.6941 1.98692 0
M  V30 22 H 0.384245 -2.29457 1.59894 0
M  V30 23 H 0.263999 -2.55106 -0.979783 0
M  V30 24 H -1.32428 -2.62199 -0.478624 0
M  V30 25 H 0.0759246 0.566534 -1.31377 0
M  V30 26 H -0.23328 2.22567 0.0550758 0
M  V30 27 H 0.73092 1.54715 1.31207 0
M  V30 28 H 2.22923 -1.83745 0.155057 0
M  V30 29 H 4.67804 -1.61099 0.321226 0
M  V30 30 H 4.36158 2.52176 -0.365283 0
M  V30 31 H 1.9505 2.33478 -0.522845 0
M  V30 32 H -1.92592 0.187832 2.19673 0
M  V30 33 H -4.18831 1.13761 2.03326 0
M  V30 34 H -4.295 0.316163 -2.11357 0
M  V30 35 H -2.0968 -0.640844 -2.01166 0
M  V30 END ATOM
M  V30 BEGIN BOND
M  V30 1 1 1 2
M  V30 2 1 2 3 CFG=3
M  V30 3 1 2 4
M  V30 4 1 4 5
M  V30 5 1 4 6
M  V30 6 2 6 7
M  V30 7 1 7 8
M  V30 8 2 8 9
M  V30 9 1 9 10
M  V30 10 1 9 11
M  V30 11 2 11 12
M  V30 12 1 2 13
M  V30 13 2 13 14
M  V30 14 1 14 15
M  V30 15 2 15 16
M  V30 16 1 16 17
M  V30 17 1 16 18
M  V30 18 2 18 19
M  V30 19 1 12 6
M  V30 20 1 19 13
M  V30 21 1 1 20
M  V30 22 1 1 21
M  V30 23 1 1 22
M  V30 24 1 3 23
M  V30 25 1 3 24
M  V30 26 1 4 25 CFG=3
M  V30 27 1 5 26
M  V30 28 1 5 27
M  V30 29 1 7 28
M  V30 30 1 8 29
M  V30 31 1 11 30
M  V30 32 1 12 31
M  V30 33 1 14 32
M  V30 34 1 15 33
M  V30 35 1 18 34
M  V30 36 1 19 35
M  V30 END BOND
M  V30 END CTAB
M  END
