
     RDKit          3D

  0  0  0  0  0  0  0  0  0  0999 V3000
M  V30 BEGIN CTAB
M  V30 COUNTS 23 24 0 0 0
M  V30 BEGIN ATOM
M  V30 1 N 3.38375 1.47357 0.416847 0
M  V30 2 N 3.45205 0.127765 0.314786 0
M  V30 3 C 2.6388 -0.796971 0.182865 0
M  V30 4 C 1.1826 -0.615116 0.0927127 0
M  V30 5 S -0.0224709 -1.84308 -0.0915315 0
M  V30 6 C -1.41225 -0.87619 -0.114537 0
M  V30 7 C -0.922068 0.384642 0.0209653 0
M  V30 8 C 0.427147 0.520272 0.128744 0
M  V30 9 C -2.13675 1.31461 0.0095203 0
M  V30 10 C -3.0974 0.514713 -0.839965 0
M  V30 11 C -2.92007 -0.857769 -0.222165 0
M  V30 12 N 3.09441 -2.15778 0.107431 0
M  V30 13 H 3.54743 1.96923 1.32464 0
M  V30 14 H 3.16206 2.06826 -0.420633 0
M  V30 15 H 0.905433 1.53427 0.244801 0
M  V30 16 H -2.44472 1.42749 1.04665 0
M  V30 17 H -1.90385 2.29007 -0.4062 0
M  V30 18 H -2.68791 0.464798 -1.86293 0
M  V30 19 H -4.12955 0.874739 -0.791128 0
M  V30 20 H -3.28387 -1.67035 -0.874436 0
M  V30 21 H -3.4009 -0.855591 0.7711 0
M  V30 22 H 2.50463 -2.94929 0.373498 0
M  V30 23 H 4.06351 -2.3423 -0.231796 0
M  V30 END ATOM
M  V30 BEGIN BOND
M  V30 1 1 1 2
M  V30 2 2 2 3 CFG=2
M  V30 3 1 3 4
M  V30 4 1 4 5
M  V30 5 1 5 6
M  V30 6 2 6 7
M  V30 7 1 7 8
M  V30 8 1 7 9
M  V30 9 1 9 10
M  V30 10 1 10 11
M  V30 11 1 3 12
M  V30 12 2 8 4
M  V30 13 1 11 6
M  V30 14 1 1 13
M  V30 15 1 1 14
M  V30 16 1 8 15
M  V30 17 1 9 16
M  V30 18 1 9 17
M  V30 19 1 10 18
M  V30 20 1 10 19
M  V30 21 1 11 20
M  V30 22 1 11 21
M  V30 23 1 12 22
M  V30 24 1 12 23
M  V30 END BOND
M  V30 END CTAB
M  END
