
     RDKit          3D

  0  0  0  0  0  0  0  0  0  0999 V3000
M  V30 BEGIN CTAB
M  V30 COUNTS 48 50 0 0 0
M  V30 BEGIN ATOM
M  V30 1 N 4.25353 2.69481 -0.818726 0
M  V30 2 C 4.70758 1.53891 -0.152917 0 CFG=2
M  V30 3 C 4.29358 0.240614 -0.844774 0
M  V30 4 C 3.7896 -0.238933 0.497136 0 CFG=1
M  V30 5 C 3.78718 1.17275 1.01819 0
M  V30 6 C 2.50786 -0.933492 0.48748 0
M  V30 7 C 1.35183 -0.392063 -0.0815852 0
M  V30 8 C 0.178449 -1.10751 -0.0523256 0
M  V30 9 N 0.182987 -2.31162 0.526614 0
M  V30 10 C 1.28441 -2.85434 1.08171 0
M  V30 11 N 2.41081 -2.15199 1.04611 0
M  V30 12 N 1.26849 -4.13624 1.69248 0
M  V30 13 N -1.02425 -0.621872 -0.609759 0
M  V30 14 C -0.982966 0.675162 -1.27722 0
M  V30 15 C -2.1248 0.964742 -2.16076 0
M  V30 16 C -3.35365 1.52657 -1.59089 0
M  V30 17 C -3.41572 1.77733 -0.132276 0
M  V30 18 C -4.06906 0.626063 0.623255 0
M  V30 19 C -3.07363 -0.11936 1.48297 0
M  V30 20 C -2.75313 -1.47691 0.914632 0
M  V30 21 C -2.21384 -1.41708 -0.492133 0
M  V30 22 H 4.42892 2.76267 -1.76545 0
M  V30 23 H 3.99454 3.41878 -0.21638 0
M  V30 24 H 5.77652 1.50201 0.0771738 0
M  V30 25 H 3.45439 0.39901 -1.5482 0
M  V30 26 H 5.13326 -0.33494 -1.26899 0
M  V30 27 H 4.58079 -0.830329 0.9924 0
M  V30 28 H 2.82789 1.69991 1.0027 0
M  V30 29 H 4.36578 1.29889 1.96578 0
M  V30 30 H 1.42666 0.588869 -0.53128 0
M  V30 31 H 1.50466 -4.23021 2.6926 0
M  V30 32 H 1.024 -4.97682 1.15077 0
M  V30 33 H -0.765416 1.41711 -0.493883 0
M  V30 34 H -0.0476774 0.703595 -1.9222 0
M  V30 35 H -2.35948 0.00598417 -2.71751 0
M  V30 36 H -1.77059 1.62717 -3.01371 0
M  V30 37 H -4.23882 0.856496 -1.82842 0
M  V30 38 H -3.63997 2.47621 -2.14145 0
M  V30 39 H -4.1184 2.65308 0.027724 0
M  V30 40 H -2.48273 2.10527 0.345356 0
M  V30 41 H -4.95752 0.939533 1.20976 0
M  V30 42 H -4.48421 -0.0704179 -0.161487 0
M  V30 43 H -2.1687 0.479203 1.69887 0
M  V30 44 H -3.55724 -0.300406 2.46741 0
M  V30 45 H -2.1475 -2.04046 1.61981 0
M  V30 46 H -3.74065 -2.01805 0.83342 0
M  V30 47 H -3.018 -1.08964 -1.14777 0
M  V30 48 H -2.02579 -2.49807 -0.775219 0
M  V30 END ATOM
M  V30 BEGIN BOND
M  V30 1 1 1 2
M  V30 2 1 2 3
M  V30 3 1 3 4
M  V30 4 1 4 5
M  V30 5 1 4 6
M  V30 6 2 6 7
M  V30 7 1 7 8
M  V30 8 2 8 9
M  V30 9 1 9 10
M  V30 10 2 10 11
M  V30 11 1 10 12
M  V30 12 1 8 13
M  V30 13 1 13 14
M  V30 14 1 14 15
M  V30 15 1 15 16
M  V30 16 1 16 17
M  V30 17 1 17 18
M  V30 18 1 18 19
M  V30 19 1 19 20
M  V30 20 1 20 21
M  V30 21 1 5 2
M  V30 22 1 11 6
M  V30 23 1 21 13
M  V30 24 1 1 22
M  V30 25 1 1 23
M  V30 26 1 2 24 CFG=1
M  V30 27 1 3 25
M  V30 28 1 3 26
M  V30 29 1 4 27 CFG=1
M  V30 30 1 5 28
M  V30 31 1 5 29
M  V30 32 1 7 30
M  V30 33 1 12 31
M  V30 34 1 12 32
M  V30 35 1 14 33
M  V30 36 1 14 34
M  V30 37 1 15 35
M  V30 38 1 15 36
M  V30 39 1 16 37
M  V30 40 1 16 38
M  V30 41 1 17 39
M  V30 42 1 17 40
M  V30 43 1 18 41
M  V30 44 1 18 42
M  V30 45 1 19 43
M  V30 46 1 19 44
M  V30 47 1 20 45
M  V30 48 1 20 46
M  V30 49 1 21 47
M  V30 50 1 21 48
M  V30 END BOND
M  V30 END CTAB
M  END
