
     RDKit          3D

  0  0  0  0  0  0  0  0  0  0999 V3000
M  V30 BEGIN CTAB
M  V30 COUNTS 32 32 0 0 0
M  V30 BEGIN ATOM
M  V30 1 N -4.26732 0.936261 -0.925285 0
M  V30 2 C -2.88332 0.980262 -0.434859 0
M  V30 3 C -2.43424 -0.368834 0.0429933 0
M  V30 4 N -1.10322 -0.334139 0.519245 0
M  V30 5 C -0.00538404 -0.0139906 -0.307534 0
M  V30 6 O -0.151231 0.256788 -1.53452 0
M  V30 7 C 1.38761 0.017513 0.237313 0
M  V30 8 C 1.56129 0.0992866 1.59596 0
M  V30 9 S 3.25399 0.0955389 1.7752 0
M  V30 10 C 3.70198 -0.00883082 0.134729 0
M  V30 11 C 2.49966 -0.0381154 -0.513692 0
M  V30 12 S 5.32291 -0.0673869 -0.584964 0
M  V30 13 O 6.02367 -1.2824 -0.0823048 0
M  V30 14 O 5.14482 -0.0538202 -2.06635 0
M  V30 15 N 6.14885 1.37642 -0.134408 0
M  V30 16 C -2.50137 -1.35549 -1.11412 0
M  V30 17 C -3.42814 -0.850855 1.08119 0
M  V30 18 H -4.92631 0.950866 -0.112387 0
M  V30 19 H -4.43246 1.71749 -1.59312 0
M  V30 20 H -2.92828 1.7094 0.427619 0
M  V30 21 H -2.21058 1.40585 -1.19603 0
M  V30 22 H -0.894008 -0.55418 1.53184 0
M  V30 23 H 0.79239 0.155837 2.39043 0
M  V30 24 H 2.45521 -0.107575 -1.62855 0
M  V30 25 H 6.98352 1.11509 0.409041 0
M  V30 26 H 5.55139 2.06351 0.333884 0
M  V30 27 H -1.51031 -1.86059 -1.27543 0
M  V30 28 H -2.82627 -0.850493 -2.0529 0
M  V30 29 H -3.22025 -2.1728 -0.933659 0
M  V30 30 H -4.38749 -1.01506 0.540544 0
M  V30 31 H -3.10114 -1.83909 1.47131 0
M  V30 32 H -3.61597 -0.106459 1.86313 0
M  V30 END ATOM
M  V30 BEGIN BOND
M  V30 1 1 1 2
M  V30 2 1 2 3
M  V30 3 1 3 4
M  V30 4 1 4 5
M  V30 5 2 5 6
M  V30 6 1 5 7
M  V30 7 2 7 8
M  V30 8 1 8 9
M  V30 9 1 9 10
M  V30 10 2 10 11
M  V30 11 1 10 12
M  V30 12 2 12 13
M  V30 13 2 12 14
M  V30 14 1 12 15
M  V30 15 1 3 16
M  V30 16 1 3 17
M  V30 17 1 11 7
M  V30 18 1 1 18
M  V30 19 1 1 19
M  V30 20 1 2 20
M  V30 21 1 2 21
M  V30 22 1 4 22
M  V30 23 1 8 23
M  V30 24 1 11 24
M  V30 25 1 15 25
M  V30 26 1 15 26
M  V30 27 1 16 27
M  V30 28 1 16 28
M  V30 29 1 16 29
M  V30 30 1 17 30
M  V30 31 1 17 31
M  V30 32 1 17 32
M  V30 END BOND
M  V30 END CTAB
M  END
