
     RDKit          3D

  0  0  0  0  0  0  0  0  0  0999 V3000
M  V30 BEGIN CTAB
M  V30 COUNTS 45 48 0 0 0
M  V30 BEGIN ATOM
M  V30 1 N 6.56964 1.69855 -0.388389 0
M  V30 2 C 5.24706 1.19449 -0.575169 0
M  V30 3 C 4.31704 1.40044 0.583585 0
M  V30 4 C 3.95919 -0.0505261 0.482711 0
M  V30 5 C 5.14126 -0.328266 -0.365249 0
M  V30 6 C 2.62321 -0.370371 -0.0781088 0
M  V30 7 C 1.45797 0.308787 0.351161 0
M  V30 8 C 0.246804 -0.0707248 -0.0965816 0
M  V30 9 N -0.955074 0.57203 0.402249 0
M  V30 10 C -1.84406 -0.424656 0.900226 0
M  V30 11 C -3.21001 -0.347799 1.31388 0
M  V30 12 C -3.54495 -0.857589 2.57373 0
M  V30 13 C -4.86479 -1.06168 2.92392 0
M  V30 14 C -5.86529 -0.766508 2.0387 0
M  V30 15 C -5.57353 -0.265567 0.798981 0
M  V30 16 C -4.22187 -0.0556967 0.44563 0
M  V30 17 N -3.92651 0.555719 -0.785162 0
M  V30 18 C -4.03361 1.89681 -1.01208 0
M  V30 19 N -3.68542 2.15262 -2.30781 0
M  V30 20 C -3.35857 0.975001 -2.87077 0
M  V30 21 N -3.51391 0.0262211 -1.9112 0
M  V30 22 N 0.149488 -1.11232 -0.97907 0
M  V30 23 C 1.23377 -1.73621 -1.38817 0
M  V30 24 N 2.46122 -1.38628 -0.955981 0
M  V30 25 N 1.27057 -2.79741 -2.38364 0
M  V30 26 H 6.78354 2.49627 -0.983395 0
M  V30 27 H 7.25903 0.92739 -0.605439 0
M  V30 28 H 4.75344 1.44093 -1.56082 0
M  V30 29 H 3.45059 2.05148 0.3571 0
M  V30 30 H 4.80704 1.65763 1.56544 0
M  V30 31 H 4.11725 -0.555011 1.51258 0
M  V30 32 H 6.0449 -0.675929 0.187747 0
M  V30 33 H 5.01366 -0.905216 -1.29871 0
M  V30 34 H 1.61627 1.11668 1.01301 0
M  V30 35 H -1.08591 1.54355 0.33187 0
M  V30 36 H -1.27289 -0.396918 2.09891 0
M  V30 37 H -1.55881 -1.5009 0.703178 0
M  V30 38 H -2.74645 -1.10785 3.25607 0
M  V30 39 H -5.12308 -1.47956 3.91486 0
M  V30 40 H -6.93714 -0.889309 2.30354 0
M  V30 41 H -6.33769 -0.0735794 0.0495852 0
M  V30 42 H -4.33533 2.66026 -0.327541 0
M  V30 43 H -3.04334 0.817742 -3.87495 0
M  V30 44 H 1.4936 -3.76141 -2.08922 0
M  V30 45 H 1.0217 -2.5153 -3.33216 0
M  V30 END ATOM
M  V30 BEGIN BOND
M  V30 1 1 1 2
M  V30 2 1 2 3
M  V30 3 1 3 4
M  V30 4 1 4 5
M  V30 5 1 4 6
M  V30 6 2 6 7
M  V30 7 1 7 8
M  V30 8 1 8 9
M  V30 9 1 9 10
M  V30 10 1 10 11
M  V30 11 2 11 12
M  V30 12 1 12 13
M  V30 13 2 13 14
M  V30 14 1 14 15
M  V30 15 2 15 16
M  V30 16 1 16 17
M  V30 17 1 17 18
M  V30 18 2 18 19
M  V30 19 1 19 20
M  V30 20 2 20 21
M  V30 21 2 8 22
M  V30 22 1 22 23
M  V30 23 2 23 24
M  V30 24 1 23 25
M  V30 25 1 5 2
M  V30 26 1 24 6
M  V30 27 1 16 11
M  V30 28 1 21 17
M  V30 29 1 1 26
M  V30 30 1 1 27
M  V30 31 1 2 28
M  V30 32 1 3 29
M  V30 33 1 3 30
M  V30 34 1 4 31
M  V30 35 1 5 32
M  V30 36 1 5 33
M  V30 37 1 7 34
M  V30 38 1 9 35
M  V30 39 1 10 36
M  V30 40 1 10 37
M  V30 41 1 12 38
M  V30 42 1 13 39
M  V30 43 1 14 40
M  V30 44 1 15 41
M  V30 45 1 18 42
M  V30 46 1 20 43
M  V30 47 1 25 44
M  V30 48 1 25 45
M  V30 END BOND
M  V30 END CTAB
M  END
