
     RDKit          3D

  0  0  0  0  0  0  0  0  0  0999 V3000
M  V30 BEGIN CTAB
M  V30 COUNTS 28 28 0 0 0
M  V30 BEGIN ATOM
M  V30 1 C 3.54684 0.548744 0.701862 0
M  V30 2 C 2.436 -0.277089 0.114414 0
M  V30 3 C 1.0605 0.269835 0.484155 0
M  V30 4 C -0.0322397 -0.565781 -0.082052 0
M  V30 5 C -1.38343 -0.0672813 0.269772 0
M  V30 6 C -1.61233 1.22171 0.621852 0
M  V30 7 C -2.87442 1.6863 0.890312 0
M  V30 8 Cl -3.13906 3.37734 1.35182 0
M  V30 9 C -3.93943 0.794235 0.792716 0
M  V30 10 N -3.72523 -0.484508 0.445135 0
M  V30 11 C -2.49326 -0.926955 0.186228 0
M  V30 12 N -2.23971 -2.29602 -0.174864 0
M  V30 13 O -0.00900941 -0.520024 -1.50335 0
M  V30 14 N 2.60044 -0.183039 -1.34782 0
M  V30 15 H 4.4867 0.0243466 0.48333 0
M  V30 16 H 3.4485 0.614225 1.79283 0
M  V30 17 H 3.54275 1.5938 0.304963 0
M  V30 18 H 2.48624 -1.34647 0.36845 0
M  V30 19 H 1.01635 0.257484 1.59071 0
M  V30 20 H 0.994582 1.35557 0.192578 0
M  V30 21 H 0.0327112 -1.6185 0.238132 0
M  V30 22 H -0.808365 1.97687 0.711998 0
M  V30 23 H -4.93845 1.18869 1.01026 0
M  V30 24 H -2.37267 -3.00718 0.609239 0
M  V30 25 H -1.94694 -2.60044 -1.11581 0
M  V30 26 H -0.00405863 -1.43788 -1.8422 0
M  V30 27 H 3.60095 -0.333956 -1.59613 0
M  V30 28 H 2.26603 0.755984 -1.7025 0
M  V30 END ATOM
M  V30 BEGIN BOND
M  V30 1 1 1 2
M  V30 2 1 2 3
M  V30 3 1 3 4
M  V30 4 1 4 5
M  V30 5 2 5 6
M  V30 6 1 6 7
M  V30 7 1 7 8
M  V30 8 2 7 9
M  V30 9 1 9 10
M  V30 10 2 10 11
M  V30 11 1 11 12
M  V30 12 1 4 13
M  V30 13 1 2 14
M  V30 14 1 11 5
M  V30 15 1 1 15
M  V30 16 1 1 16
M  V30 17 1 1 17
M  V30 18 1 2 18
M  V30 19 1 3 19
M  V30 20 1 3 20
M  V30 21 1 4 21
M  V30 22 1 6 22
M  V30 23 1 9 23
M  V30 24 1 12 24
M  V30 25 1 12 25
M  V30 26 1 13 26
M  V30 27 1 14 27
M  V30 28 1 14 28
M  V30 END BOND
M  V30 END CTAB
M  END
