
     RDKit          3D

  0  0  0  0  0  0  0  0  0  0999 V3000
M  V30 BEGIN CTAB
M  V30 COUNTS 26 26 0 0 0
M  V30 BEGIN ATOM
M  V30 1 N -1.2658 2.22957 0.639911 0
M  V30 2 C -0.824195 1.479 -0.490627 0
M  V30 3 C -0.376859 0.0760664 -0.155319 0
M  V30 4 C -1.57307 -0.647924 0.46849 0
M  V30 5 N -1.23234 -2.00825 0.823033 0
M  V30 6 C 0.702097 0.102898 0.9045 0
M  V30 7 C 2.04133 0.480342 0.276902 0
M  V30 8 C 2.28221 -0.573741 -0.797694 0
M  V30 9 O 1.34986 -0.365741 -1.78332 0
M  V30 10 C 0.0502056 -0.597581 -1.4098 0
M  V30 11 H -2.10371 1.86342 1.09738 0
M  V30 12 H -0.511511 2.56303 1.2503 0
M  V30 13 H -1.66782 1.38246 -1.20445 0
M  V30 14 H 0.0385209 1.98818 -0.95786 0
M  V30 15 H -1.89817 -0.143928 1.39851 0
M  V30 16 H -2.43822 -0.672507 -0.215146 0
M  V30 17 H -1.98035 -2.32984 1.50694 0
M  V30 18 H -1.38408 -2.59315 -0.0396438 0
M  V30 19 H 0.443594 0.792124 1.70765 0
M  V30 20 H 0.833603 -0.928696 1.31385 0
M  V30 21 H 2.81812 0.446648 1.06011 0
M  V30 22 H 1.94129 1.44649 -0.226364 0
M  V30 23 H 3.28555 -0.479043 -1.25066 0
M  V30 24 H 2.18091 -1.55846 -0.285545 0
M  V30 25 H -0.602155 -0.243821 -2.25099 0
M  V30 26 H -0.109001 -1.70755 -1.38016 0
M  V30 END ATOM
M  V30 BEGIN BOND
M  V30 1 1 1 2
M  V30 2 1 2 3
M  V30 3 1 3 4
M  V30 4 1 4 5
M  V30 5 1 3 6
M  V30 6 1 6 7
M  V30 7 1 7 8
M  V30 8 1 8 9
M  V30 9 1 9 10
M  V30 10 1 10 3
M  V30 11 1 1 11
M  V30 12 1 1 12
M  V30 13 1 2 13
M  V30 14 1 2 14
M  V30 15 1 4 15
M  V30 16 1 4 16
M  V30 17 1 5 17
M  V30 18 1 5 18
M  V30 19 1 6 19
M  V30 20 1 6 20
M  V30 21 1 7 21
M  V30 22 1 7 22
M  V30 23 1 8 23
M  V30 24 1 8 24
M  V30 25 1 10 25
M  V30 26 1 10 26
M  V30 END BOND
M  V30 END CTAB
M  END
