
     RDKit          3D

  0  0  0  0  0  0  0  0  0  0999 V3000
M  V30 BEGIN CTAB
M  V30 COUNTS 25 25 0 0 0
M  V30 BEGIN ATOM
M  V30 1 N -1.08475 0.597474 1.69668 0
M  V30 2 C -1.41219 -0.0222385 0.446108 0
M  V30 3 C -2.83272 0.40803 0.0822225 0
M  V30 4 N -3.68563 -0.0599945 1.16631 0
M  V30 5 C -0.471671 0.396378 -0.644943 0
M  V30 6 C 0.931688 0.0611129 -0.389367 0
M  V30 7 C 1.85194 1.01133 0.00840222 0
M  V30 8 C 3.18274 0.654608 0.241905 0
M  V30 9 C 3.60509 -0.626713 0.0864758 0
M  V30 10 C 2.70155 -1.58914 -0.309773 0
M  V30 11 C 1.37706 -1.22033 -0.540009 0
M  V30 12 F 0.560072 -2.24404 -0.933318 0
M  V30 13 F 3.1411 -2.8545 -0.463127 0
M  V30 14 Cl 5.30002 -1.01643 0.397059 0
M  V30 15 H -0.0731697 0.557461 1.95373 0
M  V30 16 H -1.31882 1.61878 1.61819 0
M  V30 17 H -1.46708 -1.14666 0.53273 0
M  V30 18 H -2.89332 1.50589 -0.0532446 0
M  V30 19 H -3.103 -0.120867 -0.854728 0
M  V30 20 H -3.6491 -1.11531 1.10604 0
M  V30 21 H -4.66299 0.295526 1.09035 0
M  V30 22 H -0.598376 1.50956 -0.763054 0
M  V30 23 H -0.843892 -0.0515268 -1.58814 0
M  V30 24 H 1.53947 2.04371 0.141234 0
M  V30 25 H 3.90598 1.40788 0.551046 0
M  V30 END ATOM
M  V30 BEGIN BOND
M  V30 1 1 1 2
M  V30 2 1 2 3
M  V30 3 1 3 4
M  V30 4 1 2 5
M  V30 5 1 5 6
M  V30 6 2 6 7
M  V30 7 1 7 8
M  V30 8 2 8 9
M  V30 9 1 9 10
M  V30 10 2 10 11
M  V30 11 1 11 12
M  V30 12 1 10 13
M  V30 13 1 9 14
M  V30 14 1 11 6
M  V30 15 1 1 15
M  V30 16 1 1 16
M  V30 17 1 2 17
M  V30 18 1 3 18
M  V30 19 1 3 19
M  V30 20 1 4 20
M  V30 21 1 4 21
M  V30 22 1 5 22
M  V30 23 1 5 23
M  V30 24 1 7 24
M  V30 25 1 8 25
M  V30 END BOND
M  V30 END CTAB
M  END
