
     RDKit          3D

  0  0  0  0  0  0  0  0  0  0999 V3000
M  V30 BEGIN CTAB
M  V30 COUNTS 20 19 0 0 0
M  V30 BEGIN ATOM
M  V30 1 N 4.19634 0.629709 0.673782 0
M  V30 2 N 2.88513 1.02255 0.427648 0
M  V30 3 C 1.90872 0.00952092 0.202053 0
M  V30 4 O 2.22664 -1.22287 0.224858 0
M  V30 5 O 0.574447 0.311761 -0.051551 0
M  V30 6 C -0.341833 -0.745767 -0.266741 0
M  V30 7 C -1.74005 -0.219738 -0.525726 0
M  V30 8 N -2.67347 -1.28807 -0.744746 0
M  V30 9 C -2.15392 0.712963 0.527395 0
M  V30 10 O -3.33844 0.520682 1.20041 0
M  V30 11 O -1.43287 1.68739 0.819088 0
M  V30 12 H 4.82786 1.46463 0.732964 0
M  V30 13 H 4.54933 -0.0895893 0.00771942 0
M  V30 14 H 2.6122 2.00966 0.405729 0
M  V30 15 H 0.00844532 -1.28132 -1.18596 0
M  V30 16 H -0.351435 -1.46472 0.577782 0
M  V30 17 H -1.70727 0.373565 -1.48624 0
M  V30 18 H -2.25222 -2.22278 -0.718264 0
M  V30 19 H -3.57955 -1.17657 -0.280482 0
M  V30 20 H -4.21804 0.969001 0.923866 0
M  V30 END ATOM
M  V30 BEGIN BOND
M  V30 1 1 1 2
M  V30 2 1 2 3
M  V30 3 2 3 4
M  V30 4 1 3 5
M  V30 5 1 5 6
M  V30 6 1 6 7
M  V30 7 1 7 8
M  V30 8 1 7 9
M  V30 9 1 9 10
M  V30 10 2 9 11
M  V30 11 1 1 12
M  V30 12 1 1 13
M  V30 13 1 2 14
M  V30 14 1 6 15
M  V30 15 1 6 16
M  V30 16 1 7 17
M  V30 17 1 8 18
M  V30 18 1 8 19
M  V30 19 1 10 20
M  V30 END BOND
M  V30 END CTAB
M  END
