
     RDKit          3D

  0  0  0  0  0  0  0  0  0  0999 V3000
M  V30 BEGIN CTAB
M  V30 COUNTS 38 39 0 0 0
M  V30 BEGIN ATOM
M  V30 1 N 3.4508 1.88619 0.641116 0
M  V30 2 C 2.04434 2.12131 0.82515 0
M  V30 3 C 1.1181 1.47067 -0.123402 0
M  V30 4 N 0.981293 0.0936909 -0.217601 0
M  V30 5 C 2.07507 -0.684128 -0.66231 0
M  V30 6 C 2.10873 -2.13651 -0.340775 0
M  V30 7 O 1.51469 -2.50015 0.871253 0
M  V30 8 C 0.257247 -2.9808 0.514047 0
M  V30 9 C -0.343234 -1.94717 -0.382013 0
M  V30 10 C -0.155526 -0.553137 0.216266 0 CFG=2
M  V30 11 C -1.47662 0.0367628 0.22793 0
M  V30 12 C -2.23953 -0.0389878 1.37959 0
M  V30 13 C -3.46759 0.544481 1.54715 0
M  V30 14 C -3.99769 1.26053 0.513234 0
M  V30 15 C -3.28118 1.36966 -0.659727 0
M  V30 16 C -2.02181 0.749722 -0.796659 0
M  V30 17 N -1.41611 0.827187 -2.08884 0
M  V30 18 H 4.03902 2.54835 1.20022 0
M  V30 19 H 3.72736 1.9051 -0.374125 0
M  V30 20 H 1.89148 3.24047 0.75362 0
M  V30 21 H 1.79164 1.91905 1.9012 0
M  V30 22 H 1.33239 1.91944 -1.13981 0
M  V30 23 H 0.0972819 1.9141 0.132654 0
M  V30 24 H 2.19283 -0.555161 -1.76063 0
M  V30 25 H 3.06766 -0.31081 -0.244723 0
M  V30 26 H 1.80481 -2.81805 -1.15995 0
M  V30 27 H 3.1974 -2.43683 -0.178549 0
M  V30 28 H 0.358855 -3.93832 -0.0778789 0
M  V30 29 H -0.410901 -3.18036 1.37955 0
M  V30 30 H -1.42382 -2.16866 -0.598054 0
M  V30 31 H 0.100937 -1.94611 -1.42471 0
M  V30 32 H 0.0797222 -0.76077 1.36176 0
M  V30 33 H -1.87629 -0.587613 2.2592 0
M  V30 34 H -4.01044 0.45792 2.47706 0
M  V30 35 H -4.94784 1.72077 0.614736 0
M  V30 36 H -3.72404 1.93557 -1.45722 0
M  V30 37 H -0.891432 1.63144 -2.44587 0
M  V30 38 H -1.5476 -0.00885078 -2.6829 0
M  V30 END ATOM
M  V30 BEGIN BOND
M  V30 1 1 1 2
M  V30 2 1 2 3
M  V30 3 1 3 4
M  V30 4 1 4 5
M  V30 5 1 5 6
M  V30 6 1 6 7
M  V30 7 1 7 8
M  V30 8 1 8 9
M  V30 9 1 9 10
M  V30 10 1 10 11
M  V30 11 2 11 12
M  V30 12 1 12 13
M  V30 13 2 13 14
M  V30 14 1 14 15
M  V30 15 2 15 16
M  V30 16 1 16 17
M  V30 17 1 10 4
M  V30 18 1 16 11
M  V30 19 1 1 18
M  V30 20 1 1 19
M  V30 21 1 2 20
M  V30 22 1 2 21
M  V30 23 1 3 22
M  V30 24 1 3 23
M  V30 25 1 5 24
M  V30 26 1 5 25
M  V30 27 1 6 26
M  V30 28 1 6 27
M  V30 29 1 8 28
M  V30 30 1 8 29
M  V30 31 1 9 30
M  V30 32 1 9 31
M  V30 33 1 10 32 CFG=1
M  V30 34 1 12 33
M  V30 35 1 13 34
M  V30 36 1 14 35
M  V30 37 1 15 36
M  V30 38 1 17 37
M  V30 39 1 17 38
M  V30 END BOND
M  V30 END CTAB
M  END
