
     RDKit          3D

  0  0  0  0  0  0  0  0  0  0999 V3000
M  V30 BEGIN CTAB
M  V30 COUNTS 43 42 0 0 0
M  V30 BEGIN ATOM
M  V30 1 N -6.42098 0.488042 1.05624 0
M  V30 2 C -5.07454 0.736436 1.40627 0
M  V30 3 C -4.20994 -0.250111 0.634761 0
M  V30 4 C -2.77238 0.037032 1.04332 0
M  V30 5 N -1.90717 -0.858379 0.359254 0
M  V30 6 C -1.83014 -0.608492 -1.0437 0
M  V30 7 C -1.10205 0.701306 -1.27691 0
M  V30 8 C 0.23689 0.581262 -0.636533 0
M  V30 9 C 1.14284 -0.496776 -1.15716 0 CFG=2
M  V30 10 N 2.34081 -0.453535 -0.368163 0
M  V30 11 C 3.1493 0.692067 -0.398791 0
M  V30 12 C 4.25204 0.540697 0.672169 0
M  V30 13 C 5.07803 -0.68516 0.405926 0
M  V30 14 N 6.11346 -0.838649 1.42469 0
M  V30 15 C 1.37731 -0.485106 -2.59515 0
M  V30 16 O 0.420023 -0.508718 -3.59064 0
M  V30 17 O 2.58364 -0.45054 -3.06276 0
M  V30 18 H -6.66008 0.859939 0.157177 0
M  V30 19 H -6.68303 -0.466591 1.26025 0
M  V30 20 H -4.85982 0.568376 2.4782 0
M  V30 21 H -4.74102 1.74045 1.06794 0
M  V30 22 H -4.37946 -0.0547968 -0.422626 0
M  V30 23 H -4.42375 -1.27462 0.964853 0
M  V30 24 H -2.51876 1.08816 0.870061 0
M  V30 25 H -2.6627 -0.117806 2.15865 0
M  V30 26 H -1.9504 -1.84161 0.645346 0
M  V30 27 H -1.24264 -1.45369 -1.49461 0
M  V30 28 H -2.82143 -0.585144 -1.55402 0
M  V30 29 H -1.07858 0.918999 -2.37182 0
M  V30 30 H -1.63329 1.53791 -0.78033 0
M  V30 31 H 0.745417 1.56924 -0.556969 0
M  V30 32 H 0.055825 0.296017 0.454123 0
M  V30 33 H 0.683176 -1.51103 -0.921574 0
M  V30 34 H 2.25016 -0.92088 0.563328 0
M  V30 35 H 3.71531 0.733814 -1.37095 0
M  V30 36 H 2.69669 1.67076 -0.277776 0
M  V30 37 H 3.78584 0.522086 1.67348 0
M  V30 38 H 4.87797 1.45808 0.566178 0
M  V30 39 H 5.57179 -0.629421 -0.580684 0
M  V30 40 H 4.45967 -1.58989 0.467503 0
M  V30 41 H 6.08598 0.0192041 2.02273 0
M  V30 42 H 7.04713 -0.964467 0.969913 0
M  V30 43 H 0.302843 0.285524 -4.22449 0
M  V30 END ATOM
M  V30 BEGIN BOND
M  V30 1 1 1 2
M  V30 2 1 2 3
M  V30 3 1 3 4
M  V30 4 1 4 5
M  V30 5 1 5 6
M  V30 6 1 6 7
M  V30 7 1 7 8
M  V30 8 1 8 9
M  V30 9 1 9 10
M  V30 10 1 10 11
M  V30 11 1 11 12
M  V30 12 1 12 13
M  V30 13 1 13 14
M  V30 14 1 9 15
M  V30 15 1 15 16
M  V30 16 2 15 17
M  V30 17 1 1 18
M  V30 18 1 1 19
M  V30 19 1 2 20
M  V30 20 1 2 21
M  V30 21 1 3 22
M  V30 22 1 3 23
M  V30 23 1 4 24
M  V30 24 1 4 25
M  V30 25 1 5 26
M  V30 26 1 6 27
M  V30 27 1 6 28
M  V30 28 1 7 29
M  V30 29 1 7 30
M  V30 30 1 8 31
M  V30 31 1 8 32
M  V30 32 1 9 33 CFG=3
M  V30 33 1 10 34
M  V30 34 1 11 35
M  V30 35 1 11 36
M  V30 36 1 12 37
M  V30 37 1 12 38
M  V30 38 1 13 39
M  V30 39 1 13 40
M  V30 40 1 14 41
M  V30 41 1 14 42
M  V30 42 1 16 43
M  V30 END BOND
M  V30 END CTAB
M  END
