
     RDKit          3D

  0  0  0  0  0  0  0  0  0  0999 V3000
M  V30 BEGIN CTAB
M  V30 COUNTS 20 20 0 0 0
M  V30 BEGIN ATOM
M  V30 1 F 3.92106 -0.0693724 -0.244001 0
M  V30 2 C 2.81399 0.748221 -0.119429 0
M  V30 3 O 1.73591 0.354813 -0.913419 0
M  V30 4 C 0.471897 0.0439582 -0.449371 0
M  V30 5 C 0.176985 -1.24898 -0.0987097 0
M  V30 6 N 1.14254 -2.29445 -0.19835 0
M  V30 7 C -1.09774 -1.57835 0.372419 0
M  V30 8 C -2.03132 -0.561876 0.467672 0
M  V30 9 C -1.76916 0.745258 0.124615 0
M  V30 10 C -0.479491 1.02888 -0.34219 0
M  V30 11 Br -0.139241 2.84549 -0.811277 0
M  V30 12 N -2.78409 1.72662 0.252746 0
M  V30 13 F 3.21987 2.00637 -0.579483 0
M  V30 14 H 2.57948 0.798425 0.968608 0
M  V30 15 H 1.01389 -3.17929 0.352825 0
M  V30 16 H 1.98067 -2.19046 -0.816085 0
M  V30 17 H -1.34364 -2.60059 0.653714 0
M  V30 18 H -3.03923 -0.793656 0.8345 0
M  V30 19 H -3.30198 2.05096 -0.601838 0
M  V30 20 H -3.07041 2.16803 1.14705 0
M  V30 END ATOM
M  V30 BEGIN BOND
M  V30 1 1 1 2
M  V30 2 1 2 3
M  V30 3 1 3 4
M  V30 4 2 4 5
M  V30 5 1 5 6
M  V30 6 1 5 7
M  V30 7 2 7 8
M  V30 8 1 8 9
M  V30 9 2 9 10
M  V30 10 1 10 11
M  V30 11 1 9 12
M  V30 12 1 2 13
M  V30 13 1 10 4
M  V30 14 1 2 14
M  V30 15 1 6 15
M  V30 16 1 6 16
M  V30 17 1 7 17
M  V30 18 1 8 18
M  V30 19 1 12 19
M  V30 20 1 12 20
M  V30 END BOND
M  V30 END CTAB
M  END
