
     RDKit          3D

  0  0  0  0  0  0  0  0  0  0999 V3000
M  V30 BEGIN CTAB
M  V30 COUNTS 31 32 0 0 0
M  V30 BEGIN ATOM
M  V30 1 N 6.1991 -0.345951 1.68762 0
M  V30 2 C 4.86452 -0.151557 1.19702 0
M  V30 3 C 4.11248 -1.23778 0.801802 0
M  V30 4 C 2.84335 -1.05501 0.335052 0
M  V30 5 C 2.24702 0.184608 0.230326 0
M  V30 6 C 2.99631 1.27418 0.62483 0
M  V30 7 C 4.29094 1.09871 1.10205 0
M  V30 8 N 0.92466 0.380788 -0.255379 0
M  V30 9 N 0.106377 -0.541109 -0.456734 0
M  V30 10 C -1.21801 -0.355638 -0.942119 0
M  V30 11 C -1.51188 -0.880155 -2.18105 0
M  V30 12 C -2.79208 -0.707375 -2.66316 0
M  V30 13 C -3.75505 -0.0243273 -1.91973 0
M  V30 14 C -3.45361 0.496153 -0.68398 0
M  V30 15 C -2.17719 0.321654 -0.207751 0
M  V30 16 S -4.61584 1.35804 0.288343 0
M  V30 17 N -5.42146 0.201685 1.28726 0
M  V30 18 O -3.91639 2.40638 1.07599 0
M  V30 19 O -5.66699 2.018 -0.55898 0
M  V30 20 H 7.04515 -0.196664 1.12292 0
M  V30 21 H 6.30909 -0.662357 2.69327 0
M  V30 22 H 4.52726 -2.23346 0.861384 0
M  V30 23 H 2.21814 -1.90136 0.0121134 0
M  V30 24 H 2.58466 2.28453 0.567884 0
M  V30 25 H 4.86034 1.96694 1.40583 0
M  V30 26 H -0.769152 -1.4195 -2.77949 0
M  V30 27 H -3.03863 -1.10931 -3.62638 0
M  V30 28 H -4.75418 0.109412 -2.29819 0
M  V30 29 H -1.92824 0.728977 0.767761 0
M  V30 30 H -6.32586 -0.106816 0.913934 0
M  V30 31 H -4.78484 -0.557527 1.59755 0
M  V30 END ATOM
M  V30 BEGIN BOND
M  V30 1 1 1 2
M  V30 2 2 2 3
M  V30 3 1 3 4
M  V30 4 2 4 5
M  V30 5 1 5 6
M  V30 6 2 6 7
M  V30 7 1 5 8
M  V30 8 2 8 9
M  V30 9 1 9 10
M  V30 10 2 10 11
M  V30 11 1 11 12
M  V30 12 2 12 13
M  V30 13 1 13 14
M  V30 14 2 14 15
M  V30 15 1 14 16
M  V30 16 1 16 17
M  V30 17 2 16 18
M  V30 18 2 16 19
M  V30 19 1 7 2
M  V30 20 1 15 10
M  V30 21 1 1 20
M  V30 22 1 1 21
M  V30 23 1 3 22
M  V30 24 1 4 23
M  V30 25 1 6 24
M  V30 26 1 7 25
M  V30 27 1 11 26
M  V30 28 1 12 27
M  V30 29 1 13 28
M  V30 30 1 15 29
M  V30 31 1 17 30
M  V30 32 1 17 31
M  V30 END BOND
M  V30 END CTAB
M  END
