
     RDKit          3D

  0  0  0  0  0  0  0  0  0  0999 V3000
M  V30 BEGIN CTAB
M  V30 COUNTS 24 24 0 0 0
M  V30 BEGIN ATOM
M  V30 1 C -2.8472 -1.05304 -0.262346 0
M  V30 2 C -1.61613 -0.217667 0.0673869 0
M  V30 3 C -0.416737 -1.00702 -0.355875 0
M  V30 4 N 0.822379 -0.293124 -0.0829106 0
M  V30 5 N 1.44076 0.545781 -0.918119 0
M  V30 6 C 2.55305 1.03324 -0.364465 0
M  V30 7 N 2.62106 0.465256 0.872566 0
M  V30 8 C 1.56118 -0.346144 1.04322 0
M  V30 9 N 1.30859 -1.09887 2.20978 0
M  V30 10 N 3.50682 1.94695 -0.887449 0
M  V30 11 C -1.74479 1.08614 -0.657787 0
M  V30 12 H -3.75668 -0.431284 -0.106484 0
M  V30 13 H -2.79117 -1.23625 -1.36767 0
M  V30 14 H -2.87263 -1.99081 0.313695 0
M  V30 15 H -1.54573 -0.0803262 1.1759 0
M  V30 16 H -0.490384 -1.30075 -1.41251 0
M  V30 17 H -0.441947 -1.96938 0.232467 0
M  V30 18 H 1.19403 -0.705791 3.1636 0
M  V30 19 H 1.22826 -2.13608 2.11944 0
M  V30 20 H 3.20464 2.66665 -1.57674 0
M  V30 21 H 4.51073 1.93373 -0.611946 0
M  V30 22 H -2.64676 1.60798 -0.283073 0
M  V30 23 H -1.93284 0.854958 -1.72778 0
M  V30 24 H -0.848519 1.72585 -0.582901 0
M  V30 END ATOM
M  V30 BEGIN BOND
M  V30 1 1 1 2
M  V30 2 1 2 3
M  V30 3 1 3 4
M  V30 4 1 4 5
M  V30 5 2 5 6
M  V30 6 1 6 7
M  V30 7 2 7 8
M  V30 8 1 8 9
M  V30 9 1 6 10
M  V30 10 1 2 11
M  V30 11 1 8 4
M  V30 12 1 1 12
M  V30 13 1 1 13
M  V30 14 1 1 14
M  V30 15 1 2 15
M  V30 16 1 3 16
M  V30 17 1 3 17
M  V30 18 1 9 18
M  V30 19 1 9 19
M  V30 20 1 10 20
M  V30 21 1 10 21
M  V30 22 1 11 22
M  V30 23 1 11 23
M  V30 24 1 11 24
M  V30 END BOND
M  V30 END CTAB
M  END
