
     RDKit          3D

  0  0  0  0  0  0  0  0  0  0999 V3000
M  V30 BEGIN CTAB
M  V30 COUNTS 27 27 0 0 0
M  V30 BEGIN ATOM
M  V30 1 N -3.29531 0.644534 -1.25456 0
M  V30 2 C -2.54717 0.682484 -0.037999 0
M  V30 3 C -1.59958 -0.516417 0.0183926 0
M  V30 4 C -0.813904 -0.491755 1.27793 0
M  V30 5 C 0.564419 0.0263241 1.20968 0
M  V30 6 N 1.15428 0.0816362 -0.0854626 0
M  V30 7 C 0.630783 -1.01496 -0.874577 0
M  V30 8 C -0.783625 -0.546861 -1.24211 0
M  V30 9 S 2.87322 0.0163668 0.0372777 0
M  V30 10 O 3.21132 -1.24722 0.788958 0
M  V30 11 O 3.52483 -0.0632177 -1.30725 0
M  V30 12 N 3.49903 1.3374 0.913413 0
M  V30 13 H -3.66523 1.55034 -1.5752 0
M  V30 14 H -2.94081 0.0141333 -1.97916 0
M  V30 15 H -1.90134 1.58258 -0.0637419 0
M  V30 16 H -3.14915 0.742794 0.878059 0
M  V30 17 H -2.25592 -1.41288 -0.00877263 0
M  V30 18 H -1.38297 0.125185 2.03274 0
M  V30 19 H -0.795266 -1.51214 1.72677 0
M  V30 20 H 1.2565 -0.582779 1.86277 0
M  V30 21 H 0.640118 1.06527 1.65054 0
M  V30 22 H 0.539152 -1.93663 -0.249348 0
M  V30 23 H 1.22659 -1.21641 -1.78234 0
M  V30 24 H -1.1609 -1.22569 -2.01213 0
M  V30 25 H -0.666606 0.504073 -1.60158 0
M  V30 26 H 4.47978 1.141 1.21072 0
M  V30 27 H 3.35777 2.25285 0.466974 0
M  V30 END ATOM
M  V30 BEGIN BOND
M  V30 1 1 1 2
M  V30 2 1 2 3
M  V30 3 1 3 4
M  V30 4 1 4 5
M  V30 5 1 5 6
M  V30 6 1 6 7
M  V30 7 1 7 8
M  V30 8 1 6 9
M  V30 9 2 9 10
M  V30 10 2 9 11
M  V30 11 1 9 12
M  V30 12 1 8 3
M  V30 13 1 1 13
M  V30 14 1 1 14
M  V30 15 1 2 15
M  V30 16 1 2 16
M  V30 17 1 3 17
M  V30 18 1 4 18
M  V30 19 1 4 19
M  V30 20 1 5 20
M  V30 21 1 5 21
M  V30 22 1 7 22
M  V30 23 1 7 23
M  V30 24 1 8 24
M  V30 25 1 8 25
M  V30 26 1 12 26
M  V30 27 1 12 27
M  V30 END BOND
M  V30 END CTAB
M  END
