
     RDKit          3D

  0  0  0  0  0  0  0  0  0  0999 V3000
M  V30 BEGIN CTAB
M  V30 COUNTS 26 27 0 0 0
M  V30 BEGIN ATOM
M  V30 1 C 2.39565 -1.5771 0.644871 0
M  V30 2 N 2.54785 -0.175276 0.248023 0
M  V30 3 C 3.69501 0.503312 0.0807038 0
M  V30 4 N 3.44074 1.76954 -0.286835 0
M  V30 5 C 2.11059 1.91028 -0.357762 0
M  V30 6 C 1.56065 0.693955 -0.0230559 0
M  V30 7 C 0.152978 0.342723 0.0448061 0
M  V30 8 N -0.409595 -0.361978 1.0578 0
M  V30 9 C -1.72687 -0.526703 0.835008 0
M  V30 10 N -1.98166 0.0883133 -0.338101 0
M  V30 11 C -0.858776 0.627427 -0.844662 0
M  V30 12 N -0.72355 1.35428 -2.06198 0
M  V30 13 N -3.24296 0.156204 -0.945484 0
M  V30 14 C -2.70493 -1.24157 1.70463 0
M  V30 15 H 2.1985 -1.58047 1.75373 0
M  V30 16 H 1.54587 -2.03064 0.0846974 0
M  V30 17 H 3.33521 -2.12631 0.469981 0
M  V30 18 H 4.66917 0.0494362 0.232873 0
M  V30 19 H 1.56845 2.82211 -0.630732 0
M  V30 20 H -0.232935 0.899347 -2.86208 0
M  V30 21 H -1.08805 2.32085 -2.20285 0
M  V30 22 H -3.72907 -0.725428 -1.27647 0
M  V30 23 H -3.75892 1.04638 -1.10188 0
M  V30 24 H -3.7044 -1.16418 1.2681 0
M  V30 25 H -2.69044 -0.760919 2.70472 0
M  V30 26 H -2.36853 -2.31357 1.80194 0
M  V30 END ATOM
M  V30 BEGIN BOND
M  V30 1 1 1 2
M  V30 2 1 2 3
M  V30 3 2 3 4
M  V30 4 1 4 5
M  V30 5 2 5 6
M  V30 6 1 6 7
M  V30 7 1 7 8
M  V30 8 2 8 9
M  V30 9 1 9 10
M  V30 10 1 10 11
M  V30 11 1 11 12
M  V30 12 1 10 13
M  V30 13 1 9 14
M  V30 14 1 6 2
M  V30 15 2 11 7
M  V30 16 1 1 15
M  V30 17 1 1 16
M  V30 18 1 1 17
M  V30 19 1 3 18
M  V30 20 1 5 19
M  V30 21 1 12 20
M  V30 22 1 12 21
M  V30 23 1 13 22
M  V30 24 1 13 23
M  V30 25 1 14 24
M  V30 26 1 14 25
M  V30 27 1 14 26
M  V30 END BOND
M  V30 END CTAB
M  END
