
     RDKit          3D

  0  0  0  0  0  0  0  0  0  0999 V3000
M  V30 BEGIN CTAB
M  V30 COUNTS 34 35 0 0 0
M  V30 BEGIN ATOM
M  V30 1 N -2.27109 0.0574727 -2.20371 0
M  V30 2 C -2.71016 0.172356 -0.857793 0
M  V30 3 C -4.06324 0.0632217 -0.547552 0
M  V30 4 C -4.52646 0.170703 0.744971 0
M  V30 5 C -3.59761 0.39288 1.73853 0
M  V30 6 C -2.25698 0.501365 1.43369 0
M  V30 7 C -1.78474 0.396728 0.156768 0
M  V30 8 C -0.353413 0.501522 -0.22771 0
M  V30 9 C 0.535518 0.861539 0.91785 0
M  V30 10 C 1.97234 0.871489 0.43513 0
M  V30 11 N 2.30279 -0.278892 -0.341673 0
M  V30 12 C 1.32985 -1.32301 -0.296081 0
M  V30 13 C 0.0178104 -0.821078 -0.861636 0
M  V30 14 S 3.87072 -0.884286 -0.0336348 0
M  V30 15 O 4.16172 -2.12789 -0.81214 0
M  V30 16 O 3.99215 -1.20162 1.45211 0
M  V30 17 N 5.04912 0.337983 -0.442399 0
M  V30 18 H -1.94047 0.864073 -2.76409 0
M  V30 19 H -2.28215 -0.880225 -2.64621 0
M  V30 20 H -4.75756 -0.112312 -1.37047 0
M  V30 21 H -5.5952 0.0802627 0.957618 0
M  V30 22 H -3.94762 0.479687 2.76529 0
M  V30 23 H -1.51868 0.677634 2.22145 0
M  V30 24 H -0.255999 1.2883 -1.00247 0
M  V30 25 H 0.307389 1.92445 1.18469 0
M  V30 26 H 0.47769 0.218505 1.79309 0
M  V30 27 H 2.19317 1.80143 -0.155062 0
M  V30 28 H 2.60773 0.947359 1.34235 0
M  V30 29 H 1.66462 -2.13209 -0.987402 0
M  V30 30 H 1.2337 -1.78671 0.697452 0
M  V30 31 H -0.768837 -1.59209 -0.732353 0
M  V30 32 H 0.18378 -0.727238 -1.96695 0
M  V30 33 H 4.7388 1.23772 -0.0589739 0
M  V30 34 H 5.99131 0.0207522 -0.121909 0
M  V30 END ATOM
M  V30 BEGIN BOND
M  V30 1 1 1 2
M  V30 2 2 2 3
M  V30 3 1 3 4
M  V30 4 2 4 5
M  V30 5 1 5 6
M  V30 6 2 6 7
M  V30 7 1 7 8
M  V30 8 1 8 9
M  V30 9 1 9 10
M  V30 10 1 10 11
M  V30 11 1 11 12
M  V30 12 1 12 13
M  V30 13 1 11 14
M  V30 14 2 14 15
M  V30 15 2 14 16
M  V30 16 1 14 17
M  V30 17 1 7 2
M  V30 18 1 13 8
M  V30 19 1 1 18
M  V30 20 1 1 19
M  V30 21 1 3 20
M  V30 22 1 4 21
M  V30 23 1 5 22
M  V30 24 1 6 23
M  V30 25 1 8 24
M  V30 26 1 9 25
M  V30 27 1 9 26
M  V30 28 1 10 27
M  V30 29 1 10 28
M  V30 30 1 12 29
M  V30 31 1 12 30
M  V30 32 1 13 31
M  V30 33 1 13 32
M  V30 34 1 17 33
M  V30 35 1 17 34
M  V30 END BOND
M  V30 END CTAB
M  END
