
     RDKit          3D

  0  0  0  0  0  0  0  0  0  0999 V3000
M  V30 BEGIN CTAB
M  V30 COUNTS 37 36 0 0 0
M  V30 BEGIN ATOM
M  V30 1 N -5.04086 -0.84789 0.953646 0
M  V30 2 C -4.44629 -0.337011 -0.269173 0
M  V30 3 C -3.05766 -0.891796 -0.395965 0
M  V30 4 C -2.17018 -0.513904 0.759476 0
M  V30 5 C -2.05154 0.961415 0.872687 0
M  V30 6 C -1.46422 1.56498 -0.37404 0
M  V30 7 O -0.215348 1.08634 -0.712571 0
M  V30 8 C 0.692037 1.33522 0.270654 0
M  V30 9 C 2.09639 0.832048 -0.114701 0
M  V30 10 C 2.0971 -0.627869 -0.359586 0
M  V30 11 C 3.42187 -1.15267 -0.79459 0
M  V30 12 C 4.57549 -0.989815 0.113931 0
M  V30 13 N 4.9549 0.357539 0.408583 0
M  V30 14 H -4.76608 -0.285962 1.76681 0
M  V30 15 H -4.82053 -1.86158 1.04823 0
M  V30 16 H -4.51233 0.759478 -0.261915 0
M  V30 17 H -5.04365 -0.677436 -1.16602 0
M  V30 18 H -2.60535 -0.48721 -1.32101 0
M  V30 19 H -3.175 -2.0061 -0.467979 0
M  V30 20 H -2.53493 -0.961079 1.71779 0
M  V30 21 H -1.16038 -0.962927 0.601014 0
M  V30 22 H -3.08907 1.39641 1.00938 0
M  V30 23 H -1.46753 1.29464 1.76257 0
M  V30 24 H -1.40518 2.68679 -0.143989 0
M  V30 25 H -2.19812 1.44963 -1.22487 0
M  V30 26 H 0.793689 2.42851 0.410819 0
M  V30 27 H 0.379834 0.8836 1.22074 0
M  V30 28 H 2.42502 1.39147 -0.987327 0
M  V30 29 H 2.67765 1.06155 0.830722 0
M  V30 30 H 1.85711 -1.17439 0.611204 0
M  V30 31 H 1.28078 -0.957609 -1.04919 0
M  V30 32 H 3.36887 -2.24887 -1.05615 0
M  V30 33 H 3.69268 -0.647903 -1.78332 0
M  V30 34 H 4.42077 -1.49965 1.11097 0
M  V30 35 H 5.47754 -1.50897 -0.295369 0
M  V30 36 H 5.23158 0.51305 1.39514 0
M  V30 37 H 5.78093 0.637974 -0.179939 0
M  V30 END ATOM
M  V30 BEGIN BOND
M  V30 1 1 1 2
M  V30 2 1 2 3
M  V30 3 1 3 4
M  V30 4 1 4 5
M  V30 5 1 5 6
M  V30 6 1 6 7
M  V30 7 1 7 8
M  V30 8 1 8 9
M  V30 9 1 9 10
M  V30 10 1 10 11
M  V30 11 1 11 12
M  V30 12 1 12 13
M  V30 13 1 1 14
M  V30 14 1 1 15
M  V30 15 1 2 16
M  V30 16 1 2 17
M  V30 17 1 3 18
M  V30 18 1 3 19
M  V30 19 1 4 20
M  V30 20 1 4 21
M  V30 21 1 5 22
M  V30 22 1 5 23
M  V30 23 1 6 24
M  V30 24 1 6 25
M  V30 25 1 8 26
M  V30 26 1 8 27
M  V30 27 1 9 28
M  V30 28 1 9 29
M  V30 29 1 10 30
M  V30 30 1 10 31
M  V30 31 1 11 32
M  V30 32 1 11 33
M  V30 33 1 12 34
M  V30 34 1 12 35
M  V30 35 1 13 36
M  V30 36 1 13 37
M  V30 END BOND
M  V30 END CTAB
M  END
