
     RDKit          3D

  0  0  0  0  0  0  0  0  0  0999 V3000
M  V30 BEGIN CTAB
M  V30 COUNTS 47 46 0 0 0
M  V30 BEGIN ATOM
M  V30 1 N -7.55157 0.353893 -0.817836 0
M  V30 2 C -6.34573 0.66508 -0.08601 0
M  V30 3 C -5.55403 -0.577289 0.28388 0
M  V30 4 C -4.32271 -0.106139 1.02959 0
M  V30 5 N -3.45452 -1.16728 1.43102 0
M  V30 6 C -2.80836 -1.8735 0.355707 0
M  V30 7 C -1.87533 -0.974035 -0.37296 0
M  V30 8 C -0.767476 -0.386487 0.507211 0
M  V30 9 C 0.0394102 0.584721 -0.360056 0
M  V30 10 N 0.648045 -0.00591682 -1.48285 0
M  V30 11 C 1.77341 -0.869195 -1.25383 0
M  V30 12 C 2.90095 0.0333145 -0.817323 0
M  V30 13 C 4.19471 -0.637073 -0.523579 0
M  V30 14 N 5.14181 0.414852 -0.148863 0
M  V30 15 C 6.47235 0.118368 0.202696 0
M  V30 16 O 6.92868 -1.04734 0.223611 0
M  V30 17 C 7.39896 1.22938 0.571586 0
M  V30 18 N 6.72215 2.51065 0.476823 0
M  V30 19 H -7.3739 0.482308 -1.85544 0
M  V30 20 H -8.24811 1.09417 -0.572336 0
M  V30 21 H -5.68867 1.38882 -0.666312 0
M  V30 22 H -6.62304 1.19361 0.850158 0
M  V30 23 H -6.18824 -1.24455 0.871131 0
M  V30 24 H -5.26959 -1.09521 -0.648559 0
M  V30 25 H -3.77071 0.61319 0.402858 0
M  V30 26 H -4.64836 0.390803 1.99743 0
M  V30 27 H -2.86905 -0.992538 2.25592 0
M  V30 28 H -2.31387 -2.80083 0.728945 0
M  V30 29 H -3.60498 -2.22044 -0.328493 0
M  V30 30 H -1.33929 -1.50971 -1.20684 0
M  V30 31 H -2.42546 -0.131004 -0.816489 0
M  V30 32 H -1.1644 0.183581 1.36169 0
M  V30 33 H -0.167118 -1.20253 0.904901 0
M  V30 34 H 0.717284 1.10734 0.332524 0
M  V30 35 H -0.684786 1.34527 -0.719357 0
M  V30 36 H -0.0067228 -0.29544 -2.20333 0
M  V30 37 H 1.53956 -1.65997 -0.557158 0
M  V30 38 H 2.07183 -1.27041 -2.26058 0
M  V30 39 H 3.052 0.752468 -1.65949 0
M  V30 40 H 2.64171 0.655716 0.0610657 0
M  V30 41 H 4.54589 -1.22149 -1.37929 0
M  V30 42 H 4.07242 -1.36832 0.32741 0
M  V30 43 H 4.81004 1.41256 -0.14729 0
M  V30 44 H 7.79867 1.08598 1.60334 0
M  V30 45 H 8.27573 1.27592 -0.104909 0
M  V30 46 H 5.91729 2.5306 1.14289 0
M  V30 47 H 7.4031 3.23413 0.818918 0
M  V30 END ATOM
M  V30 BEGIN BOND
M  V30 1 1 1 2
M  V30 2 1 2 3
M  V30 3 1 3 4
M  V30 4 1 4 5
M  V30 5 1 5 6
M  V30 6 1 6 7
M  V30 7 1 7 8
M  V30 8 1 8 9
M  V30 9 1 9 10
M  V30 10 1 10 11
M  V30 11 1 11 12
M  V30 12 1 12 13
M  V30 13 1 13 14
M  V30 14 1 14 15
M  V30 15 2 15 16
M  V30 16 1 15 17
M  V30 17 1 17 18
M  V30 18 1 1 19
M  V30 19 1 1 20
M  V30 20 1 2 21
M  V30 21 1 2 22
M  V30 22 1 3 23
M  V30 23 1 3 24
M  V30 24 1 4 25
M  V30 25 1 4 26
M  V30 26 1 5 27
M  V30 27 1 6 28
M  V30 28 1 6 29
M  V30 29 1 7 30
M  V30 30 1 7 31
M  V30 31 1 8 32
M  V30 32 1 8 33
M  V30 33 1 9 34
M  V30 34 1 9 35
M  V30 35 1 10 36
M  V30 36 1 11 37
M  V30 37 1 11 38
M  V30 38 1 12 39
M  V30 39 1 12 40
M  V30 40 1 13 41
M  V30 41 1 13 42
M  V30 42 1 14 43
M  V30 43 1 17 44
M  V30 44 1 17 45
M  V30 45 1 18 46
M  V30 46 1 18 47
M  V30 END BOND
M  V30 END CTAB
M  END
