
     RDKit          3D

  0  0  0  0  0  0  0  0  0  0999 V3000
M  V30 BEGIN CTAB
M  V30 COUNTS 35 35 0 0 0
M  V30 BEGIN ATOM
M  V30 1 N 6.12808 -0.0391961 -0.267616 0
M  V30 2 C 4.97206 0.570639 0.31781 0
M  V30 3 C 3.69082 -0.20432 -0.103982 0
M  V30 4 C 2.56484 0.528103 0.549882 0
M  V30 5 N 1.25317 0.0183966 0.375316 0
M  V30 6 C 0.518034 -0.198089 -0.780262 0
M  V30 7 O 0.945272 0.0434334 -1.93317 0
M  V30 8 C -0.858504 -0.749356 -0.769953 0
M  V30 9 C -1.08494 -2.09469 -1.01166 0
M  V30 10 C -2.39935 -2.57223 -0.937575 0
M  V30 11 Br -2.75285 -4.42341 -1.25179 0
M  V30 12 C -3.43068 -1.70102 -0.630564 0
M  V30 13 C -3.20812 -0.362558 -0.391688 0
M  V30 14 C -1.89078 0.0861889 -0.469836 0
M  V30 15 C -1.66858 1.51201 -0.230419 0
M  V30 16 S -4.52502 0.68256 -0.0506086 0
M  V30 17 O -4.64571 1.71131 -1.15922 0
M  V30 18 O -5.82094 -0.139706 -0.100891 0
M  V30 19 N -4.4981 1.47658 1.44362 0
M  V30 20 F 3.64657 -0.137082 -1.48714 0
M  V30 21 F 3.71993 -1.4942 0.337931 0
M  V30 22 H 5.80414 -0.812899 -0.913126 0
M  V30 23 H 6.70734 -0.485864 0.465458 0
M  V30 24 H 4.85222 1.64265 0.119195 0
M  V30 25 H 5.06631 0.459024 1.44194 0
M  V30 26 H 2.82557 0.684266 1.63251 0
M  V30 27 H 2.57671 1.59105 0.137906 0
M  V30 28 H 0.753905 -0.245575 1.3022 0
M  V30 29 H -0.270153 -2.72996 -1.24522 0
M  V30 30 H -4.44743 -2.12259 -0.583337 0
M  V30 31 H -2.1909 2.15417 -0.97282 0
M  V30 32 H -0.59656 1.81567 -0.310717 0
M  V30 33 H -1.95775 1.78591 0.817758 0
M  V30 34 H -5.31967 1.22767 2.04538 0
M  V30 35 H -4.45895 2.52311 1.27937 0
M  V30 END ATOM
M  V30 BEGIN BOND
M  V30 1 1 1 2
M  V30 2 1 2 3
M  V30 3 1 3 4
M  V30 4 1 4 5
M  V30 5 1 5 6
M  V30 6 2 6 7
M  V30 7 1 6 8
M  V30 8 2 8 9
M  V30 9 1 9 10
M  V30 10 1 10 11
M  V30 11 2 10 12
M  V30 12 1 12 13
M  V30 13 2 13 14
M  V30 14 1 14 15
M  V30 15 1 13 16
M  V30 16 2 16 17
M  V30 17 2 16 18
M  V30 18 1 16 19
M  V30 19 1 3 20
M  V30 20 1 3 21
M  V30 21 1 14 8
M  V30 22 1 1 22
M  V30 23 1 1 23
M  V30 24 1 2 24
M  V30 25 1 2 25
M  V30 26 1 4 26
M  V30 27 1 4 27
M  V30 28 1 5 28
M  V30 29 1 9 29
M  V30 30 1 12 30
M  V30 31 1 15 31
M  V30 32 1 15 32
M  V30 33 1 15 33
M  V30 34 1 19 34
M  V30 35 1 19 35
M  V30 END BOND
M  V30 END CTAB
M  END
