
     RDKit          3D

  0  0  0  0  0  0  0  0  0  0999 V3000
M  V30 BEGIN CTAB
M  V30 COUNTS 146 149 0 0 0
M  V30 BEGIN ATOM
M  V30 1 C 3.16738 -5.26334 0.259288 0
M  V30 2 C 1.80044 -4.98378 0.814202 0
M  V30 3 C 1.62336 -3.6579 1.4711 0 CFG=1
M  V30 4 C 2.58272 -3.46313 2.62854 0
M  V30 5 C 1.44071 -2.48128 0.605877 0 CFG=2
M  V30 6 N 0.239534 -2.60817 -0.260856 0
M  V30 7 C -0.661138 -1.55702 -0.377674 0
M  V30 8 O -0.257473 -0.512479 0.383926 0
M  V30 9 C -1.8708 -1.27992 -1.06712 0 CFG=2
M  V30 10 C -2.16975 -1.70031 -2.44872 0
M  V30 11 C -2.25413 -3.15897 -2.70515 0
M  V30 12 C -1.32962 -3.91825 -3.32071 0
M  V30 13 C -1.47756 -5.30049 -3.52227 0
M  V30 14 C -2.62023 -5.93012 -3.07433 0
M  V30 15 O -2.85256 -7.2986 -3.2359 0
M  V30 16 C -3.582 -5.15261 -2.4352 0
M  V30 17 C -3.42975 -3.81781 -2.24484 0
M  V30 18 N -2.30809 0.109444 -0.830727 0
M  V30 19 C -3.57595 0.373699 -0.276451 0
M  V30 20 O -4.30757 -0.623743 -0.00127966 0
M  V30 21 C -4.09631 1.76908 0.000408063 0 CFG=1
M  V30 22 N -5.42392 1.55179 0.563634 0
M  V30 23 C -6.51367 1.37814 -0.264817 0
M  V30 24 O -6.2561 1.43272 -1.54953 0
M  V30 25 C -7.91951 1.13048 0.0130329 0 CFG=2
M  V30 26 C -8.33846 0.740232 1.37923 0
M  V30 27 C -8.11712 1.70362 2.48708 0
M  V30 28 C -8.7854 3.04312 2.22963 0
M  V30 29 N -8.49598 3.9087 3.35399 0
M  V30 30 C -8.98103 5.22845 3.46151 0
M  V30 31 N -8.15307 6.37974 3.26858 0
M  V30 32 N -10.2181 5.42154 3.74219 0
M  V30 33 N -8.38512 0.105532 -0.902969 0
M  V30 34 C -9.66651 0.192515 -1.44658 0
M  V30 35 O -10.402 1.15342 -1.12649 0
M  V30 36 C -10.2461 -0.78831 -2.39612 0 CFG=1
M  V30 37 N -11.5182 -1.19276 -1.86752 0
M  V30 38 C -10.3834 -0.273979 -3.78865 0
M  V30 39 C -11.2514 0.924426 -3.8995 0
M  V30 40 O -10.7228 2.20652 -3.90101 0
M  V30 41 O -12.5091 0.820573 -3.99464 0
M  V30 42 C -3.17916 2.51656 0.891232 0
M  V30 43 C -3.65173 3.90678 1.22283 0
M  V30 44 C -2.81586 1.75939 2.14754 0
M  V30 45 C 2.60514 -2.05078 -0.206219 0
M  V30 46 O 2.83223 -2.56277 -1.32109 0
M  V30 47 N 3.44089 -1.05855 0.299455 0
M  V30 48 C 4.63535 -0.47815 -0.294951 0 CFG=1
M  V30 49 C 4.42738 0.837769 -0.952605 0
M  V30 50 C 3.41586 0.722098 -2.06857 0
M  V30 51 C 2.05682 0.893359 -2.0261 0
M  V30 52 N 1.55137 0.685438 -3.2655 0
M  V30 53 C 2.58788 0.394607 -4.04619 0
M  V30 54 N 3.75469 0.410145 -3.33101 0
M  V30 55 C 5.65524 -0.529121 0.754714 0
M  V30 56 O 5.68407 -1.70038 1.35527 0
M  V30 57 N 6.55949 0.403271 1.21738 0
M  V30 58 C 7.52707 0.075913 2.30771 0
M  V30 59 C 7.16255 1.19293 3.2724 0
M  V30 60 C 7.07023 2.37925 2.36559 0
M  V30 61 C 6.83416 1.76234 0.960863 0 CFG=1
M  V30 62 C 7.96573 2.10411 0.111353 0
M  V30 63 O 8.31381 3.34924 0.114351 0
M  V30 64 N 8.74558 1.27669 -0.726487 0
M  V30 65 C 9.849 1.79515 -1.50227 0 CFG=1
M  V30 66 C 11.0022 0.866384 -1.48612 0
M  V30 67 C 11.5713 0.542819 -0.174503 0
M  V30 68 C 11.1268 -0.598115 0.445622 0
M  V30 69 C 11.6259 -0.961036 1.67306 0
M  V30 70 C 12.5904 -0.164808 2.29232 0
M  V30 71 C 13.0147 0.967635 1.64843 0
M  V30 72 C 12.5288 1.35329 0.414518 0
M  V30 73 C 9.4142 2.12238 -2.89785 0
M  V30 74 O 10.311 2.63776 -3.8167 0
M  V30 75 O 8.23317 1.93029 -3.24193 0
M  V30 76 H 3.54216 -6.25572 0.632195 0
M  V30 77 H 3.9193 -4.47678 0.497185 0
M  V30 78 H 3.16972 -5.3818 -0.843687 0
M  V30 79 H 1.53971 -5.82861 1.51676 0
M  V30 80 H 1.08524 -5.13898 -0.0408171 0
M  V30 81 H 0.601576 -3.76801 2.01506 0
M  V30 82 H 3.45065 -4.13039 2.44476 0
M  V30 83 H 2.8657 -2.42885 2.8182 0
M  V30 84 H 2.10702 -3.83985 3.56708 0
M  V30 85 H 1.15619 -1.61692 1.30847 0
M  V30 86 H 0.115858 -3.51055 -0.753444 0
M  V30 87 H -2.68976 -1.89723 -0.446904 0
M  V30 88 H -1.39881 -1.25289 -3.14651 0
M  V30 89 H -3.1546 -1.22587 -2.7424 0
M  V30 90 H -0.40713 -3.43409 -3.69229 0
M  V30 91 H -0.717905 -5.85878 -4.01454 0
M  V30 92 H -2.46157 -7.88916 -2.47067 0
M  V30 93 H -4.47491 -5.69832 -2.08706 0
M  V30 94 H -4.16209 -3.22658 -1.76803 0
M  V30 95 H -1.68067 0.893001 -1.07321 0
M  V30 96 H -4.18219 2.23265 -0.994609 0
M  V30 97 H -5.46247 1.53117 1.57989 0
M  V30 98 H -8.45552 2.11451 -0.259954 0
M  V30 99 H -7.752 -0.191081 1.65588 0
M  V30 100 H -9.41638 0.413377 1.41791 0
M  V30 101 H -7.12607 1.76746 2.90791 0
M  V30 102 H -8.74037 1.27069 3.3661 0
M  V30 103 H -9.88543 2.94888 2.14786 0
M  V30 104 H -8.42886 3.4886 1.27353 0
M  V30 105 H -7.90143 3.57672 4.13973 0
M  V30 106 H -7.85321 7.00244 4.02783 0
M  V30 107 H -7.83909 6.58341 2.29904 0
M  V30 108 H -10.837 4.59919 3.88374 0
M  V30 109 H -7.75411 -0.673172 -1.13467 0
M  V30 110 H -9.57302 -1.6645 -2.40544 0
M  V30 111 H -11.4839 -1.76397 -1.0347 0
M  V30 112 H -12.3574 -0.764328 -2.19908 0
M  V30 113 H -10.8637 -1.08019 -4.37943 0
M  V30 114 H -9.41429 -0.070654 -4.28003 0
M  V30 115 H -11.1669 2.98426 -3.43058 0
M  V30 116 H -2.20722 2.65307 0.343319 0
M  V30 117 H -3.80453 4.46257 0.275039 0
M  V30 118 H -2.94874 4.45984 1.84856 0
M  V30 119 H -4.63365 3.83523 1.77723 0
M  V30 120 H -2.16666 0.905906 1.9636 0
M  V30 121 H -2.30442 2.41638 2.87899 0
M  V30 122 H -3.73288 1.36624 2.63893 0
M  V30 123 H 3.15317 -0.660185 1.26425 0
M  V30 124 H 4.94527 -1.20307 -1.11343 0
M  V30 125 H 3.95692 1.51284 -0.223265 0
M  V30 126 H 5.3496 1.28426 -1.34854 0
M  V30 127 H 1.49674 1.16279 -1.13093 0
M  V30 128 H 2.47387 0.172419 -5.10501 0
M  V30 129 H 4.67655 0.214456 -3.73843 0
M  V30 130 H 7.32285 -0.886619 2.76902 0
M  V30 131 H 8.54441 0.129199 1.95519 0
M  V30 132 H 7.90014 1.32181 4.06623 0
M  V30 133 H 6.17585 0.902661 3.71169 0
M  V30 134 H 6.20639 2.98872 2.68902 0
M  V30 135 H 7.97083 2.98972 2.36255 0
M  V30 136 H 5.96752 2.37717 0.589117 0
M  V30 137 H 8.52169 0.273412 -0.784269 0
M  V30 138 H 10.1566 2.804 -1.07449 0
M  V30 139 H 11.8621 1.23952 -2.12295 0
M  V30 140 H 10.7499 -0.119348 -1.98257 0
M  V30 141 H 10.3714 -1.26587 0.00937784 0
M  V30 142 H 11.3013 -1.86919 2.20315 0
M  V30 143 H 12.9717 -0.460026 3.254 0
M  V30 144 H 13.7766 1.62909 2.09678 0
M  V30 145 H 12.8817 2.26735 -0.0713437 0
M  V30 146 H 10.9322 3.36392 -3.44373 0
M  V30 END ATOM
M  V30 BEGIN BOND
M  V30 1 1 1 2
M  V30 2 1 2 3
M  V30 3 1 3 4
M  V30 4 1 3 5
M  V30 5 1 5 6
M  V30 6 1 6 7
M  V30 7 2 7 8
M  V30 8 1 7 9
M  V30 9 1 9 10
M  V30 10 1 10 11
M  V30 11 2 11 12
M  V30 12 1 12 13
M  V30 13 2 13 14
M  V30 14 1 14 15
M  V30 15 1 14 16
M  V30 16 2 16 17
M  V30 17 1 9 18
M  V30 18 1 18 19
M  V30 19 2 19 20
M  V30 20 1 19 21
M  V30 21 1 21 22
M  V30 22 1 22 23
M  V30 23 2 23 24
M  V30 24 1 23 25
M  V30 25 1 25 26
M  V30 26 1 26 27
M  V30 27 1 27 28
M  V30 28 1 28 29
M  V30 29 1 29 30
M  V30 30 1 30 31
M  V30 31 2 30 32 CFG=2
M  V30 32 1 25 33
M  V30 33 1 33 34
M  V30 34 2 34 35
M  V30 35 1 34 36
M  V30 36 1 36 37
M  V30 37 1 36 38
M  V30 38 1 38 39
M  V30 39 1 39 40
M  V30 40 2 39 41
M  V30 41 1 21 42
M  V30 42 1 42 43
M  V30 43 1 42 44
M  V30 44 1 5 45
M  V30 45 2 45 46
M  V30 46 1 45 47
M  V30 47 1 47 48
M  V30 48 1 48 49
M  V30 49 1 49 50
M  V30 50 2 50 51
M  V30 51 1 51 52
M  V30 52 2 52 53
M  V30 53 1 53 54
M  V30 54 1 48 55
M  V30 55 2 55 56
M  V30 56 1 55 57
M  V30 57 1 57 58
M  V30 58 1 58 59
M  V30 59 1 59 60
M  V30 60 1 60 61
M  V30 61 1 61 62
M  V30 62 2 62 63
M  V30 63 1 62 64
M  V30 64 1 64 65
M  V30 65 1 65 66
M  V30 66 1 66 67
M  V30 67 2 67 68
M  V30 68 1 68 69
M  V30 69 2 69 70
M  V30 70 1 70 71
M  V30 71 2 71 72
M  V30 72 1 65 73
M  V30 73 1 73 74
M  V30 74 2 73 75
M  V30 75 1 17 11
M  V30 76 1 54 50
M  V30 77 1 61 57
M  V30 78 1 72 67
M  V30 79 1 1 76
M  V30 80 1 1 77
M  V30 81 1 1 78
M  V30 82 1 2 79
M  V30 83 1 2 80
M  V30 84 1 3 81 CFG=1
M  V30 85 1 4 82
M  V30 86 1 4 83
M  V30 87 1 4 84
M  V30 88 1 5 85 CFG=1
M  V30 89 1 6 86
M  V30 90 1 9 87 CFG=1
M  V30 91 1 10 88
M  V30 92 1 10 89
M  V30 93 1 12 90
M  V30 94 1 13 91
M  V30 95 1 15 92
M  V30 96 1 16 93
M  V30 97 1 17 94
M  V30 98 1 18 95
M  V30 99 1 21 96 CFG=3
M  V30 100 1 22 97
M  V30 101 1 25 98 CFG=3
M  V30 102 1 26 99
M  V30 103 1 26 100
M  V30 104 1 27 101
M  V30 105 1 27 102
M  V30 106 1 28 103
M  V30 107 1 28 104
M  V30 108 1 29 105
M  V30 109 1 31 106
M  V30 110 1 31 107
M  V30 111 1 32 108
M  V30 112 1 33 109
M  V30 113 1 36 110 CFG=3
M  V30 114 1 37 111
M  V30 115 1 37 112
M  V30 116 1 38 113
M  V30 117 1 38 114
M  V30 118 1 40 115
M  V30 119 1 42 116
M  V30 120 1 43 117
M  V30 121 1 43 118
M  V30 122 1 43 119
M  V30 123 1 44 120
M  V30 124 1 44 121
M  V30 125 1 44 122
M  V30 126 1 47 123
M  V30 127 1 48 124 CFG=3
M  V30 128 1 49 125
M  V30 129 1 49 126
M  V30 130 1 51 127
M  V30 131 1 53 128
M  V30 132 1 54 129
M  V30 133 1 58 130
M  V30 134 1 58 131
M  V30 135 1 59 132
M  V30 136 1 59 133
M  V30 137 1 60 134
M  V30 138 1 60 135
M  V30 139 1 61 136 CFG=3
M  V30 140 1 64 137
M  V30 141 1 65 138 CFG=1
M  V30 142 1 66 139
M  V30 143 1 66 140
M  V30 144 1 68 141
M  V30 145 1 69 142
M  V30 146 1 70 143
M  V30 147 1 71 144
M  V30 148 1 72 145
M  V30 149 1 74 146
M  V30 END BOND
M  V30 END CTAB
M  END
