
     RDKit          3D

  0  0  0  0  0  0  0  0  0  0999 V3000
M  V30 BEGIN CTAB
M  V30 COUNTS 32 32 0 0 0
M  V30 BEGIN ATOM
M  V30 1 C -0.593806 -0.919828 1.84342 0
M  V30 2 N -0.575099 -0.496626 0.460728 0
M  V30 3 C -1.8569 -0.236089 -0.158077 0
M  V30 4 C -2.61142 0.851258 0.550714 0
M  V30 5 C -1.74346 0.0922705 -1.61081 0
M  V30 6 C -2.67343 -1.52427 0.00336263 0
M  V30 7 C 0.660832 -0.352212 -0.232113 0
M  V30 8 N 0.922664 -1.08535 -1.33918 0
M  V30 9 C 2.07801 -0.97899 -2.02205 0
M  V30 10 C 3.08562 -0.112268 -1.64424 0
M  V30 11 C 2.85193 0.651977 -0.517951 0
M  V30 12 C 1.64461 0.525926 0.176869 0
M  V30 13 N 1.4516 1.33133 1.32522 0
M  V30 14 N 3.86517 1.55999 -0.0921309 0
M  V30 15 H 0.444631 -0.87843 2.22728 0
M  V30 16 H -0.880862 -1.99535 1.85994 0
M  V30 17 H -1.30324 -0.322097 2.45025 0
M  V30 18 H -1.94401 1.27195 1.34435 0
M  V30 19 H -3.51427 0.481081 1.08271 0
M  V30 20 H -2.95851 1.66185 -0.119683 0
M  V30 21 H -1.51155 -0.787072 -2.24605 0
M  V30 22 H -1.01761 0.874181 -1.82066 0
M  V30 23 H -2.74312 0.455005 -1.9499 0
M  V30 24 H -2.01668 -2.39001 -0.216854 0
M  V30 25 H -2.94416 -1.63113 1.08845 0
M  V30 26 H -3.60024 -1.50081 -0.571464 0
M  V30 27 H 2.26808 -1.57952 -2.91161 0
M  V30 28 H 4.02015 -0.028995 -2.20007 0
M  V30 29 H 0.782775 2.11914 1.28124 0
M  V30 30 H 1.97235 1.13533 2.19785 0
M  V30 31 H 3.66439 2.56868 -0.168626 0
M  V30 32 H 4.77556 1.23908 0.282922 0
M  V30 END ATOM
M  V30 BEGIN BOND
M  V30 1 1 1 2
M  V30 2 1 2 3
M  V30 3 1 3 4
M  V30 4 1 3 5
M  V30 5 1 3 6
M  V30 6 1 2 7
M  V30 7 2 7 8
M  V30 8 1 8 9
M  V30 9 2 9 10
M  V30 10 1 10 11
M  V30 11 2 11 12
M  V30 12 1 12 13
M  V30 13 1 11 14
M  V30 14 1 12 7
M  V30 15 1 1 15
M  V30 16 1 1 16
M  V30 17 1 1 17
M  V30 18 1 4 18
M  V30 19 1 4 19
M  V30 20 1 4 20
M  V30 21 1 5 21
M  V30 22 1 5 22
M  V30 23 1 5 23
M  V30 24 1 6 24
M  V30 25 1 6 25
M  V30 26 1 6 26
M  V30 27 1 9 27
M  V30 28 1 10 28
M  V30 29 1 13 29
M  V30 30 1 13 30
M  V30 31 1 14 31
M  V30 32 1 14 32
M  V30 END BOND
M  V30 END CTAB
M  END
