
     RDKit          3D

  0  0  0  0  0  0  0  0  0  0999 V3000
M  V30 BEGIN CTAB
M  V30 COUNTS 34 35 0 0 0
M  V30 BEGIN ATOM
M  V30 1 O -0.146186 0.0725325 1.43161 0
M  V30 2 C -0.444777 1.03836 0.725789 0
M  V30 3 C 0.539556 2.13738 0.589425 0
M  V30 4 S 2.04439 1.8112 1.54142 0
M  V30 5 C 2.85195 0.384425 0.780146 0
M  V30 6 N 4.01364 -0.092793 1.28649 0
M  V30 7 C 4.66274 -1.14734 0.768035 0
M  V30 8 N 5.88932 -1.62716 1.32776 0
M  V30 9 N 4.10421 -1.73662 -0.308202 0
M  V30 10 C 2.96856 -1.31344 -0.84724 0
M  V30 11 N 2.34774 -0.238945 -0.284357 0
M  V30 12 N 2.37718 -1.93727 -1.98686 0
M  V30 13 C -0.04817 3.43985 1.04659 0
M  V30 14 N -1.6721 1.13506 0.0520852 0
M  V30 15 C -2.73492 0.203846 0.0469469 0
M  V30 16 C -2.65859 -1.10014 0.474747 0
M  V30 17 C -3.74045 -1.97756 0.472081 0
M  V30 18 C -4.96936 -1.55953 0.0254499 0
M  V30 19 C -5.08546 -0.262977 -0.41087 0
M  V30 20 C -4.00698 0.589281 -0.400752 0
M  V30 21 F -6.03294 -2.41633 0.0207153 0
M  V30 22 H 0.791181 2.20658 -0.477989 0
M  V30 23 H 5.79768 -2.33126 2.09952 0
M  V30 24 H 6.82699 -1.31585 1.0102 0
M  V30 25 H 2.2278 -1.48104 -2.89484 0
M  V30 26 H 2.08221 -2.94694 -1.85014 0
M  V30 27 H -0.0367643 4.16329 0.217436 0
M  V30 28 H -1.07464 3.23708 1.42456 0
M  V30 29 H 0.512433 3.84562 1.91131 0
M  V30 30 H -1.87431 2.01102 -0.557821 0
M  V30 31 H -1.71546 -1.48986 0.828013 0
M  V30 32 H -3.6486 -2.99642 0.814923 0
M  V30 33 H -6.04864 0.0723226 -0.76345 0
M  V30 34 H -4.09924 1.62361 -0.746687 0
M  V30 END ATOM
M  V30 BEGIN BOND
M  V30 1 2 1 2
M  V30 2 1 2 3
M  V30 3 1 3 4
M  V30 4 1 4 5
M  V30 5 2 5 6
M  V30 6 1 6 7
M  V30 7 1 7 8
M  V30 8 2 7 9
M  V30 9 1 9 10
M  V30 10 2 10 11
M  V30 11 1 10 12
M  V30 12 1 3 13
M  V30 13 1 2 14
M  V30 14 1 14 15
M  V30 15 2 15 16
M  V30 16 1 16 17
M  V30 17 2 17 18
M  V30 18 1 18 19
M  V30 19 2 19 20
M  V30 20 1 18 21
M  V30 21 1 11 5
M  V30 22 1 20 15
M  V30 23 1 3 22
M  V30 24 1 8 23
M  V30 25 1 8 24
M  V30 26 1 12 25
M  V30 27 1 12 26
M  V30 28 1 13 27
M  V30 29 1 13 28
M  V30 30 1 13 29
M  V30 31 1 14 30
M  V30 32 1 16 31
M  V30 33 1 17 32
M  V30 34 1 19 33
M  V30 35 1 20 34
M  V30 END BOND
M  V30 END CTAB
M  END
