
     RDKit          3D

  0  0  0  0  0  0  0  0  0  0999 V3000
M  V30 BEGIN CTAB
M  V30 COUNTS 20 21 0 0 0
M  V30 BEGIN ATOM
M  V30 1 N -2.66589 -2.24675 -0.192182 0
M  V30 2 C -1.88917 -1.06126 -0.0675015 0
M  V30 3 N -2.49267 0.128745 0.113374 0
M  V30 4 C -1.75426 1.26899 0.233667 0
M  V30 5 N -2.39039 2.53809 0.426259 0
M  V30 6 N -0.411262 1.19783 0.17023 0
M  V30 7 C 0.21262 0.0208761 -0.0097438 0
M  V30 8 N -0.54144 -1.07846 -0.124028 0
M  V30 9 C 1.68218 -0.0356882 -0.0763402 0
M  V30 10 C 2.45571 -1.16239 -0.255687 0
M  V30 11 C 3.76025 -0.769776 -0.256541 0
M  V30 12 O 3.7873 0.511681 -0.0890519 0
M  V30 13 C 2.56433 1.01046 0.0257812 0
M  V30 14 Cl 2.16837 2.7007 0.264064 0
M  V30 15 H -3.65817 -2.20801 -0.473414 0
M  V30 16 H -2.24354 -3.19525 0.000698947 0
M  V30 17 H -3.03566 2.96274 -0.24661 0
M  V30 18 H -2.18069 3.06222 1.3113 0
M  V30 19 H 2.04837 -2.16515 -0.371209 0
M  V30 20 H 4.58401 -1.4796 -0.383069 0
M  V30 END ATOM
M  V30 BEGIN BOND
M  V30 1 1 1 2
M  V30 2 2 2 3
M  V30 3 1 3 4
M  V30 4 1 4 5
M  V30 5 2 4 6
M  V30 6 1 6 7
M  V30 7 2 7 8
M  V30 8 1 7 9
M  V30 9 1 9 10
M  V30 10 2 10 11
M  V30 11 1 11 12
M  V30 12 1 12 13
M  V30 13 1 13 14
M  V30 14 1 8 2
M  V30 15 2 13 9
M  V30 16 1 1 15
M  V30 17 1 1 16
M  V30 18 1 5 17
M  V30 19 1 5 18
M  V30 20 1 10 19
M  V30 21 1 11 20
M  V30 END BOND
M  V30 END CTAB
M  END
