
     RDKit          3D

  0  0  0  0  0  0  0  0  0  0999 V3000
M  V30 BEGIN CTAB
M  V30 COUNTS 17 16 0 0 0
M  V30 BEGIN ATOM
M  V30 1 N 2.36052 0.70183 -0.26105 0
M  V30 2 C 1.80915 -0.568402 0.0949647 0
M  V30 3 C 0.318186 -0.634808 -0.204911 0
M  V30 4 C -0.408313 0.413034 0.561566 0
M  V30 5 O 0.212228 1.15694 1.29166 0
M  V30 6 C -1.87232 0.535501 0.425468 0
M  V30 7 N -2.37948 -0.461569 -0.500262 0
M  V30 8 H 3.14686 0.65545 -0.94646 0
M  V30 9 H 2.57107 1.31927 0.553115 0
M  V30 10 H 2.2881 -1.4146 -0.441763 0
M  V30 11 H 1.93778 -0.786712 1.17903 0
M  V30 12 H -0.0465047 -1.65075 0.056957 0
M  V30 13 H 0.126036 -0.507709 -1.28661 0
M  V30 14 H -2.17357 1.54775 0.0315847 0
M  V30 15 H -2.38932 0.336041 1.39945 0
M  V30 16 H -2.07923 -0.260398 -1.47097 0
M  V30 17 H -3.42119 -0.380873 -0.481775 0
M  V30 END ATOM
M  V30 BEGIN BOND
M  V30 1 1 1 2
M  V30 2 1 2 3
M  V30 3 1 3 4
M  V30 4 2 4 5
M  V30 5 1 4 6
M  V30 6 1 6 7
M  V30 7 1 1 8
M  V30 8 1 1 9
M  V30 9 1 2 10
M  V30 10 1 2 11
M  V30 11 1 3 12
M  V30 12 1 3 13
M  V30 13 1 6 14
M  V30 14 1 6 15
M  V30 15 1 7 16
M  V30 16 1 7 17
M  V30 END BOND
M  V30 END CTAB
M  END
