
     RDKit          3D

  0  0  0  0  0  0  0  0  0  0999 V3000
M  V30 BEGIN CTAB
M  V30 COUNTS 27 28 0 0 0
M  V30 BEGIN ATOM
M  V30 1 N 5.3455 0.000496633 -0.594026 0
M  V30 2 N 4.41149 0.965857 -0.259169 0
M  V30 3 C 3.04087 0.659405 -0.242084 0
M  V30 4 C 2.63386 -0.612256 -0.563267 0
M  V30 5 C 1.26708 -0.865942 -0.531706 0
M  V30 6 C 0.301932 0.0432885 -0.208603 0
M  V30 7 N 0.816325 1.29184 0.0982044 0
M  V30 8 N 2.09093 1.57005 0.0802707 0
M  V30 9 C -1.12053 -0.151853 -0.156672 0
M  V30 10 C -1.8963 0.949076 0.205282 0
M  V30 11 C -3.26713 0.864445 0.28396 0
M  V30 12 N -4.04219 1.9969 0.65462 0
M  V30 13 C -3.87311 -0.337155 -0.00292273 0
M  V30 14 C -3.1528 -1.44534 -0.36274 0
M  V30 15 C -1.75171 -1.31419 -0.43083 0
M  V30 16 O -1.07633 -2.45595 -0.796573 0
M  V30 17 H 6.29583 0.355364 -0.426537 0
M  V30 18 H 5.17584 -0.909886 -0.088381 0
M  V30 19 H 4.7295 1.91673 -0.0212164 0
M  V30 20 H 3.34296 -1.39994 -0.833815 0
M  V30 21 H 0.986202 -1.86639 -0.787351 0
M  V30 22 H -1.4483 1.92363 0.44118 0
M  V30 23 H -3.57195 2.90921 0.839675 0
M  V30 24 H -5.07614 1.97489 0.756257 0
M  V30 25 H -4.96923 -0.369568 0.0697269 0
M  V30 26 H -3.63929 -2.3848 -0.586097 0
M  V30 27 H -1.5533 -3.30789 -0.996446 0
M  V30 END ATOM
M  V30 BEGIN BOND
M  V30 1 1 1 2
M  V30 2 1 2 3
M  V30 3 2 3 4
M  V30 4 1 4 5
M  V30 5 2 5 6
M  V30 6 1 6 7
M  V30 7 2 7 8
M  V30 8 1 6 9
M  V30 9 2 9 10
M  V30 10 1 10 11
M  V30 11 1 11 12
M  V30 12 2 11 13
M  V30 13 1 13 14
M  V30 14 2 14 15
M  V30 15 1 15 16
M  V30 16 1 8 3
M  V30 17 1 15 9
M  V30 18 1 1 17
M  V30 19 1 1 18
M  V30 20 1 2 19
M  V30 21 1 4 20
M  V30 22 1 5 21
M  V30 23 1 10 22
M  V30 24 1 12 23
M  V30 25 1 12 24
M  V30 26 1 13 25
M  V30 27 1 14 26
M  V30 28 1 16 27
M  V30 END BOND
M  V30 END CTAB
M  END
