
     RDKit          3D

  0  0  0  0  0  0  0  0  0  0999 V3000
M  V30 BEGIN CTAB
M  V30 COUNTS 27 27 0 0 0
M  V30 BEGIN ATOM
M  V30 1 N 1.81698 1.40804 1.69212 0
M  V30 2 C 1.99478 0.211625 0.964994 0
M  V30 3 N 3.07327 -0.449341 1.19677 0
M  V30 4 C 1.04297 -0.317145 -0.0221067 0
M  V30 5 C 1.49119 -1.59811 -0.636937 0
M  V30 6 C 0.720435 0.676279 -1.11544 0
M  V30 7 C -0.621545 0.163052 -1.59006 0
M  V30 8 N -1.16916 -0.648061 -0.53888 0
M  V30 9 C -0.319932 -0.445958 0.632154 0
M  V30 10 S -2.79318 -0.28198 -0.166383 0
M  V30 11 O -3.61275 -0.431977 -1.43423 0
M  V30 12 O -3.3029 -1.25898 0.838985 0
M  V30 13 N -2.99098 1.34351 0.392557 0
M  V30 14 H 2.11963 2.31937 1.29756 0
M  V30 15 H 1.38291 1.41809 2.63467 0
M  V30 16 H 3.26507 -1.3279 0.702411 0
M  V30 17 H 1.62827 -2.38821 0.125554 0
M  V30 18 H 0.791522 -1.96385 -1.43255 0
M  V30 19 H 2.45093 -1.43031 -1.15785 0
M  V30 20 H 0.537853 1.65699 -0.634928 0
M  V30 21 H 1.47637 0.70598 -1.91323 0
M  V30 22 H -0.476795 -0.496161 -2.47719 0
M  V30 23 H -1.28935 1.01612 -1.80867 0
M  V30 24 H -0.532921 0.540652 1.09817 0
M  V30 25 H -0.38044 -1.28308 1.33458 0
M  V30 26 H -3.9623 1.37905 0.824193 0
M  V30 27 H -2.33992 1.48232 1.19375 0
M  V30 END ATOM
M  V30 BEGIN BOND
M  V30 1 1 1 2
M  V30 2 2 2 3 CFG=2
M  V30 3 1 2 4
M  V30 4 1 4 5
M  V30 5 1 4 6
M  V30 6 1 6 7
M  V30 7 1 7 8
M  V30 8 1 8 9
M  V30 9 1 8 10
M  V30 10 2 10 11
M  V30 11 2 10 12
M  V30 12 1 10 13
M  V30 13 1 9 4
M  V30 14 1 1 14
M  V30 15 1 1 15
M  V30 16 1 3 16
M  V30 17 1 5 17
M  V30 18 1 5 18
M  V30 19 1 5 19
M  V30 20 1 6 20
M  V30 21 1 6 21
M  V30 22 1 7 22
M  V30 23 1 7 23
M  V30 24 1 9 24
M  V30 25 1 9 25
M  V30 26 1 13 26
M  V30 27 1 13 27
M  V30 END BOND
M  V30 END CTAB
M  END
