
     RDKit          3D

  0  0  0  0  0  0  0  0  0  0999 V3000
M  V30 BEGIN CTAB
M  V30 COUNTS 39 42 0 0 0
M  V30 BEGIN ATOM
M  V30 1 C -5.22689 0.479894 0.725874 0
M  V30 2 C -4.45613 -0.771115 1.09163 0
M  V30 3 C -3.07993 -0.617861 0.551924 0
M  V30 4 C -2.05691 -0.0481225 1.26794 0
M  V30 5 C -0.789034 0.0632683 0.697315 0
M  V30 6 C -0.53783 -0.388883 -0.578333 0
M  V30 7 C -1.56172 -0.960106 -1.29739 0
M  V30 8 C -2.82232 -1.06499 -0.715673 0
M  V30 9 C 0.789602 -0.274043 -1.18012 0
M  V30 10 C 1.56073 -1.48201 -0.868315 0
M  V30 11 N 1.63214 -2.83176 -0.949505 0
M  V30 12 C 2.7694 -3.27047 -0.370248 0
M  V30 13 O 3.39852 -2.18139 0.0686083 0
M  V30 14 C 2.70524 -1.10208 -0.212325 0
M  V30 15 C 2.72179 0.352301 -0.0740144 0
M  V30 16 C 1.58339 0.850278 -0.64863 0
M  V30 17 C 1.35516 2.23271 -0.649824 0
M  V30 18 C 2.24957 3.1111 -0.0855099 0
M  V30 19 N 2.02507 4.5177 -0.0825639 0
M  V30 20 C 3.37742 2.56037 0.478693 0
M  V30 21 C 3.64772 1.22499 0.506939 0
M  V30 22 N 3.19846 -4.61589 -0.256633 0
M  V30 23 H -6.25306 0.26395 0.388048 0
M  V30 24 H -5.2851 1.09794 1.64659 0
M  V30 25 H -4.73468 1.0606 -0.079774 0
M  V30 26 H -4.45795 -0.944762 2.18939 0
M  V30 27 H -4.9304 -1.64009 0.595529 0
M  V30 28 H -2.26321 0.305921 2.2732 0
M  V30 29 H 0.0280534 0.515336 1.2619 0
M  V30 30 H -1.39271 -1.32634 -2.30772 0
M  V30 31 H -3.59478 -1.51896 -1.3146 0
M  V30 32 H 0.759753 -0.145608 -2.28743 0
M  V30 33 H 0.45173 2.60928 -1.1075 0
M  V30 34 H 2.20737 5.13665 -0.899362 0
M  V30 35 H 1.65742 4.94656 0.789188 0
M  V30 36 H 4.08561 3.27077 0.926839 0
M  V30 37 H 4.52692 0.788552 0.94613 0
M  V30 38 H 3.74951 -5.03753 -1.01933 0
M  V30 39 H 2.96209 -5.16618 0.579056 0
M  V30 END ATOM
M  V30 BEGIN BOND
M  V30 1 1 1 2
M  V30 2 1 2 3
M  V30 3 2 3 4
M  V30 4 1 4 5
M  V30 5 2 5 6
M  V30 6 1 6 7
M  V30 7 2 7 8
M  V30 8 1 6 9
M  V30 9 1 9 10
M  V30 10 1 10 11
M  V30 11 2 11 12
M  V30 12 1 12 13
M  V30 13 1 13 14
M  V30 14 1 14 15
M  V30 15 2 15 16
M  V30 16 1 16 17
M  V30 17 2 17 18
M  V30 18 1 18 19
M  V30 19 1 18 20
M  V30 20 2 20 21
M  V30 21 1 12 22
M  V30 22 1 8 3
M  V30 23 1 16 9
M  V30 24 2 14 10
M  V30 25 1 21 15
M  V30 26 1 1 23
M  V30 27 1 1 24
M  V30 28 1 1 25
M  V30 29 1 2 26
M  V30 30 1 2 27
M  V30 31 1 4 28
M  V30 32 1 5 29
M  V30 33 1 7 30
M  V30 34 1 8 31
M  V30 35 1 9 32
M  V30 36 1 17 33
M  V30 37 1 19 34
M  V30 38 1 19 35
M  V30 39 1 20 36
M  V30 40 1 21 37
M  V30 41 1 22 38
M  V30 42 1 22 39
M  V30 END BOND
M  V30 END CTAB
M  END
