
     RDKit          3D

  0  0  0  0  0  0  0  0  0  0999 V3000
M  V30 BEGIN CTAB
M  V30 COUNTS 54 57 0 0 0
M  V30 BEGIN ATOM
M  V30 1 N -3.77078 -3.41033 0.842676 0
M  V30 2 C -3.655 -2.25016 0.662476 0
M  V30 3 C -3.57834 -0.827947 0.437038 0
M  V30 4 C -4.80552 -0.149922 0.243248 0
M  V30 5 N -4.76869 1.16563 0.0321909 0
M  V30 6 C -3.62368 1.86244 -0.00281839 0
M  V30 7 C -2.39967 1.25349 0.179541 0
M  V30 8 C -2.39924 -0.136846 0.405285 0
M  V30 9 C -1.19877 -0.798909 0.594707 0
M  V30 10 C -0.862563 -2.19389 0.844242 0
M  V30 11 C 0.634083 -2.18716 0.945102 0
M  V30 12 O 1.35058 -3.22391 1.16218 0
M  V30 13 N 1.09051 -0.877229 0.763608 0
M  V30 14 C -0.048416 -0.0281462 0.548073 0
M  V30 15 N -0.0841421 1.30283 0.329536 0
M  V30 16 C -1.23228 1.96535 0.143614 0
M  V30 17 N -1.28273 3.35859 -0.0863459 0
M  V30 18 C 2.48551 -0.441926 0.788197 0
M  V30 19 C 2.99942 -0.545992 -0.644673 0
M  V30 20 C 4.4193 -0.125179 -0.739764 0
M  V30 21 C 4.76671 0.881712 -1.50708 0
M  V30 22 C 6.14642 1.39084 -1.68198 0
M  V30 23 C 7.1445 0.711683 -0.804675 0
M  V30 24 C 6.48298 0.213516 0.459339 0
M  V30 25 C 5.47008 -0.83955 0.0343114 0
M  V30 26 N -3.66076 3.28646 -0.236283 0
M  V30 27 N -6.01694 -0.89718 0.282002 0
M  V30 28 C -6.46526 -1.65541 1.42359 0
M  V30 29 C -6.84546 -0.891205 -0.901535 0
M  V30 30 H -1.18361 -2.57765 1.83474 0
M  V30 31 H -1.05647 -2.8791 -0.00918376 0
M  V30 32 H -1.36036 4.03403 0.692226 0
M  V30 33 H -1.23758 3.70824 -1.05851 0
M  V30 34 H 3.10186 -1.08272 1.4543 0
M  V30 35 H 2.51921 0.624032 1.07394 0
M  V30 36 H 2.9368 -1.58408 -1.01675 0
M  V30 37 H 2.37508 0.0920142 -1.26771 0
M  V30 38 H 3.97533 1.38249 -2.0593 0
M  V30 39 H 6.15319 2.47597 -1.47684 0
M  V30 40 H 6.46546 1.24876 -2.73429 0
M  V30 41 H 7.62353 -0.183947 -1.29046 0
M  V30 42 H 7.94621 1.43055 -0.464622 0
M  V30 43 H 7.18316 -0.229953 1.16511 0
M  V30 44 H 5.88764 1.06014 0.872373 0
M  V30 45 H 5.92896 -1.57438 -0.670027 0
M  V30 46 H 5.06969 -1.30777 0.945503 0
M  V30 47 H -3.73744 3.8639 0.631906 0
M  V30 48 H -3.61585 3.6731 -1.2023 0
M  V30 49 H -5.77362 -1.6118 2.27666 0
M  V30 50 H -6.72178 -2.68543 1.10238 0
M  V30 51 H -7.43714 -1.2245 1.80551 0
M  V30 52 H -7.61543 -0.0813314 -0.759878 0
M  V30 53 H -6.30107 -0.658413 -1.81842 0
M  V30 54 H -7.41762 -1.82381 -1.04186 0
M  V30 END ATOM
M  V30 BEGIN BOND
M  V30 1 3 1 2
M  V30 2 1 2 3
M  V30 3 2 3 4
M  V30 4 1 4 5
M  V30 5 2 5 6
M  V30 6 1 6 7
M  V30 7 2 7 8
M  V30 8 1 8 9
M  V30 9 1 9 10
M  V30 10 1 10 11
M  V30 11 2 11 12
M  V30 12 1 11 13
M  V30 13 1 13 14
M  V30 14 1 14 15
M  V30 15 2 15 16
M  V30 16 1 16 17
M  V30 17 1 13 18
M  V30 18 1 18 19
M  V30 19 1 19 20
M  V30 20 2 20 21
M  V30 21 1 21 22
M  V30 22 1 22 23
M  V30 23 1 23 24
M  V30 24 1 24 25
M  V30 25 1 6 26
M  V30 26 1 4 27
M  V30 27 1 27 28
M  V30 28 1 27 29
M  V30 29 1 8 3
M  V30 30 2 14 9
M  V30 31 1 25 20
M  V30 32 1 16 7
M  V30 33 1 10 30
M  V30 34 1 10 31
M  V30 35 1 17 32
M  V30 36 1 17 33
M  V30 37 1 18 34
M  V30 38 1 18 35
M  V30 39 1 19 36
M  V30 40 1 19 37
M  V30 41 1 21 38
M  V30 42 1 22 39
M  V30 43 1 22 40
M  V30 44 1 23 41
M  V30 45 1 23 42
M  V30 46 1 24 43
M  V30 47 1 24 44
M  V30 48 1 25 45
M  V30 49 1 25 46
M  V30 50 1 26 47
M  V30 51 1 26 48
M  V30 52 1 28 49
M  V30 53 1 28 50
M  V30 54 1 28 51
M  V30 55 1 29 52
M  V30 56 1 29 53
M  V30 57 1 29 54
M  V30 END BOND
M  V30 END CTAB
M  END
