
     RDKit          3D

  0  0  0  0  0  0  0  0  0  0999 V3000
M  V30 BEGIN CTAB
M  V30 COUNTS 77 78 0 0 0
M  V30 BEGIN ATOM
M  V30 1 C -6.21657 -0.633752 -0.372084 0 CFG=1
M  V30 2 N -7.25071 -1.67749 -0.295419 0
M  V30 3 C -6.66387 0.410308 -1.38566 0
M  V30 4 C -7.98085 1.03699 -0.97055 0
M  V30 5 C -6.8771 -0.252015 -2.72824 0
M  V30 6 C -6.08376 -0.0631652 0.981674 0
M  V30 7 O -7.03236 -0.237433 1.79951 0
M  V30 8 N -4.96629 0.669915 1.44539 0
M  V30 9 C -4.82442 1.27246 2.74864 0
M  V30 10 C -4.1161 2.56864 2.40118 0
M  V30 11 C -3.06402 2.06734 1.43101 0
M  V30 12 C -3.74796 0.916512 0.710409 0 CFG=1
M  V30 13 C -2.90646 -0.285484 0.70155 0
M  V30 14 O -3.21865 -1.28634 1.38236 0
M  V30 15 N -1.70243 -0.309625 -0.108051 0
M  V30 16 C -0.913111 -1.47953 -0.0979561 0
M  V30 17 C 0.25828 -1.55802 -0.917678 0
M  V30 18 O 0.903276 -2.70599 -0.765059 0
M  V30 19 N 0.885239 -0.713077 -1.84333 0
M  V30 20 C 0.449036 0.565586 -2.30207 0
M  V30 21 C 1.32844 0.912453 -3.49442 0
M  V30 22 C 2.60836 0.234006 -3.1022 0
M  V30 23 C 2.12381 -1.05788 -2.48998 0 CFG=1
M  V30 24 C 3.18313 -1.44841 -1.49652 0
M  V30 25 O 4.03745 -2.30661 -1.77261 0
M  V30 26 N 3.17704 -0.805127 -0.25296 0
M  V30 27 C 4.18737 -1.12695 0.741652 0 CFG=1
M  V30 28 C 5.0024 0.0886194 1.10895 0
M  V30 29 C 5.77145 0.705781 -0.0108416 0
M  V30 30 C 6.81498 -0.189869 -0.610229 0
M  V30 31 N 7.79871 -0.598124 0.378585 0
M  V30 32 C 8.6787 0.37093 0.901484 0
M  V30 33 N 9.42746 0.0994086 2.08012 0
M  V30 34 N 8.81276 1.49485 0.316718 0
M  V30 35 C 3.58224 -1.72235 1.97164 0
M  V30 36 O 4.41986 -2.096 3.01004 0
M  V30 37 O 2.35368 -1.91157 2.13989 0
M  V30 38 H -5.29493 -1.10726 -0.73983 0
M  V30 39 H -6.79288 -2.48429 0.162217 0
M  V30 40 H -7.99513 -1.33992 0.368351 0
M  V30 41 H -5.89142 1.17797 -1.48843 0
M  V30 42 H -7.98111 1.43639 0.0422492 0
M  V30 43 H -8.29058 1.79333 -1.70558 0
M  V30 44 H -8.78062 0.241446 -1.01685 0
M  V30 45 H -5.98012 -0.854786 -2.95205 0
M  V30 46 H -7.76501 -0.912723 -2.70647 0
M  V30 47 H -6.94104 0.523041 -3.49967 0
M  V30 48 H -4.17894 0.677508 3.44317 0
M  V30 49 H -5.79024 1.46027 3.24016 0
M  V30 50 H -3.69236 3.05866 3.27886 0
M  V30 51 H -4.8592 3.1981 1.8491 0
M  V30 52 H -2.82499 2.90493 0.744582 0
M  V30 53 H -2.1796 1.71344 1.99831 0
M  V30 54 H -3.88742 1.23611 -0.321578 0
M  V30 55 H -1.47397 0.530868 -0.644289 0
M  V30 56 H -1.60812 -2.39069 -0.264693 0
M  V30 57 H -0.663389 -1.66029 1.01888 0
M  V30 58 H 0.525547 1.39222 -1.60146 0
M  V30 59 H -0.584262 0.469685 -2.76805 0
M  V30 60 H 0.972706 0.419482 -4.42318 0
M  V30 61 H 1.42976 2.00285 -3.62022 0
M  V30 62 H 3.28463 0.0622079 -3.95952 0
M  V30 63 H 3.07894 0.809386 -2.27625 0
M  V30 64 H 1.93181 -1.85398 -3.21078 0
M  V30 65 H 2.44536 -0.0775193 -0.0088256 0
M  V30 66 H 4.86215 -1.88307 0.337604 0
M  V30 67 H 4.29009 0.891694 1.47026 0
M  V30 68 H 5.628 -0.146967 1.99359 0
M  V30 69 H 5.01902 0.885853 -0.838842 0
M  V30 70 H 6.21519 1.67903 0.302958 0
M  V30 71 H 6.41278 -1.0439 -1.13593 0
M  V30 72 H 7.35158 0.442787 -1.37523 0
M  V30 73 H 7.82575 -1.60088 0.672387 0
M  V30 74 H 8.94159 0.0610628 2.99807 0
M  V30 75 H 10.457 -0.0560948 1.99914 0
M  V30 76 H 9.46667 2.24238 0.684165 0
M  V30 77 H 5.07776 -2.84733 2.98716 0
M  V30 END ATOM
M  V30 BEGIN BOND
M  V30 1 1 1 2
M  V30 2 1 1 3
M  V30 3 1 3 4
M  V30 4 1 3 5
M  V30 5 1 1 6
M  V30 6 2 6 7
M  V30 7 1 6 8
M  V30 8 1 8 9
M  V30 9 1 9 10
M  V30 10 1 10 11
M  V30 11 1 11 12
M  V30 12 1 12 13
M  V30 13 2 13 14
M  V30 14 1 13 15
M  V30 15 1 15 16
M  V30 16 1 16 17
M  V30 17 2 17 18
M  V30 18 1 17 19
M  V30 19 1 19 20
M  V30 20 1 20 21
M  V30 21 1 21 22
M  V30 22 1 22 23
M  V30 23 1 23 24
M  V30 24 2 24 25
M  V30 25 1 24 26
M  V30 26 1 26 27
M  V30 27 1 27 28
M  V30 28 1 28 29
M  V30 29 1 29 30
M  V30 30 1 30 31
M  V30 31 1 31 32
M  V30 32 1 32 33
M  V30 33 2 32 34 CFG=2
M  V30 34 1 27 35
M  V30 35 1 35 36
M  V30 36 2 35 37
M  V30 37 1 12 8
M  V30 38 1 23 19
M  V30 39 1 1 38 CFG=3
M  V30 40 1 2 39
M  V30 41 1 2 40
M  V30 42 1 3 41
M  V30 43 1 4 42
M  V30 44 1 4 43
M  V30 45 1 4 44
M  V30 46 1 5 45
M  V30 47 1 5 46
M  V30 48 1 5 47
M  V30 49 1 9 48
M  V30 50 1 9 49
M  V30 51 1 10 50
M  V30 52 1 10 51
M  V30 53 1 11 52
M  V30 54 1 11 53
M  V30 55 1 12 54 CFG=3
M  V30 56 1 15 55
M  V30 57 1 16 56
M  V30 58 1 16 57
M  V30 59 1 20 58
M  V30 60 1 20 59
M  V30 61 1 21 60
M  V30 62 1 21 61
M  V30 63 1 22 62
M  V30 64 1 22 63
M  V30 65 1 23 64 CFG=3
M  V30 66 1 26 65
M  V30 67 1 27 66 CFG=3
M  V30 68 1 28 67
M  V30 69 1 28 68
M  V30 70 1 29 69
M  V30 71 1 29 70
M  V30 72 1 30 71
M  V30 73 1 30 72
M  V30 74 1 31 73
M  V30 75 1 33 74
M  V30 76 1 33 75
M  V30 77 1 34 76
M  V30 78 1 36 77
M  V30 END BOND
M  V30 END CTAB
M  END
