
     RDKit          3D

  0  0  0  0  0  0  0  0  0  0999 V3000
M  V30 BEGIN CTAB
M  V30 COUNTS 29 30 0 0 0
M  V30 BEGIN ATOM
M  V30 1 C 6.31926 0.116665 -0.286362 0
M  V30 2 C 4.93062 0.0228732 0.295106 0
M  V30 3 C 4.58997 -0.128866 1.61626 0
M  V30 4 N 3.33323 -0.188383 1.91029 0
M  V30 5 C 2.42886 -0.103095 0.948998 0
M  V30 6 N 0.990384 -0.145753 1.05242 0
M  V30 7 C 0.221491 -0.0352144 -0.113258 0
M  V30 8 O 0.795606 0.0983514 -1.22179 0
M  V30 9 C -1.23287 -0.0732274 -0.0553855 0
M  V30 10 C -1.97778 0.0385022 -1.22503 0
M  V30 11 C -3.35601 0.0100011 -1.239 0
M  V30 12 N -4.08137 0.127654 -2.45901 0
M  V30 13 C -4.04538 -0.134802 -0.0526695 0
M  V30 14 N -5.46654 -0.167672 -0.0351455 0
M  V30 15 C -3.32639 -0.247015 1.11628 0
M  V30 16 C -1.9279 -0.216735 1.11801 0
M  V30 17 S 3.39202 0.0705831 -0.448747 0
M  V30 18 H 6.87988 -0.814771 -0.133405 0
M  V30 19 H 6.81174 1.00847 0.120595 0
M  V30 20 H 6.20508 0.275883 -1.38439 0
M  V30 21 H 5.38252 -0.196591 2.39446 0
M  V30 22 H 0.614773 -0.258883 2.01342 0
M  V30 23 H -1.42254 0.150356 -2.13688 0
M  V30 24 H -4.02131 0.940437 -3.09946 0
M  V30 25 H -4.71771 -0.652426 -2.73306 0
M  V30 26 H -6.00822 -1.06062 -0.0991158 0
M  V30 27 H -6.01878 0.713256 0.0433818 0
M  V30 28 H -3.87909 -0.359062 2.03043 0
M  V30 29 H -1.41354 -0.308931 2.06309 0
M  V30 END ATOM
M  V30 BEGIN BOND
M  V30 1 1 1 2
M  V30 2 2 2 3
M  V30 3 1 3 4
M  V30 4 2 4 5
M  V30 5 1 5 6
M  V30 6 1 6 7
M  V30 7 2 7 8
M  V30 8 1 7 9
M  V30 9 2 9 10
M  V30 10 1 10 11
M  V30 11 1 11 12
M  V30 12 2 11 13
M  V30 13 1 13 14
M  V30 14 1 13 15
M  V30 15 2 15 16
M  V30 16 1 5 17
M  V30 17 1 17 2
M  V30 18 1 16 9
M  V30 19 1 1 18
M  V30 20 1 1 19
M  V30 21 1 1 20
M  V30 22 1 3 21
M  V30 23 1 6 22
M  V30 24 1 10 23
M  V30 25 1 12 24
M  V30 26 1 12 25
M  V30 27 1 14 26
M  V30 28 1 14 27
M  V30 29 1 15 28
M  V30 30 1 16 29
M  V30 END BOND
M  V30 END CTAB
M  END
