
     RDKit          3D

  0  0  0  0  0  0  0  0  0  0999 V3000
M  V30 BEGIN CTAB
M  V30 COUNTS 27 27 0 0 0
M  V30 BEGIN ATOM
M  V30 1 C -1.89036 -1.13531 -0.950719 0
M  V30 2 C -1.8622 0.0515343 -0.0384519 0
M  V30 3 C -3.21649 0.290344 0.62306 0
M  V30 4 O -1.53353 1.21522 -0.759926 0
M  V30 5 C -0.86879 -0.157064 1.07507 0
M  V30 6 N 0.479518 -0.354798 0.57641 0
M  V30 7 N 1.04098 -1.50848 0.261519 0
M  V30 8 C 2.28474 -1.36444 -0.16575 0
M  V30 9 O 3.14097 -2.37684 -0.571162 0
M  V30 10 C 2.57551 -0.0080392 -0.133214 0
M  V30 11 N 3.80924 0.587621 -0.511711 0
M  V30 12 C 1.41944 0.585315 0.336738 0
M  V30 13 N 1.27698 1.98529 0.527524 0
M  V30 14 H -1.40576 -0.849008 -1.92484 0
M  V30 15 H -2.9344 -1.47745 -1.17754 0
M  V30 16 H -1.36162 -2.01915 -0.567472 0
M  V30 17 H -3.77086 1.10436 0.121039 0
M  V30 18 H -3.85876 -0.623348 0.552755 0
M  V30 19 H -3.09972 0.590663 1.68891 0
M  V30 20 H -2.25222 1.90038 -0.69066 0
M  V30 21 H -1.21266 -1.0408 1.66468 0
M  V30 22 H -0.945706 0.718102 1.74721 0
M  V30 23 H 3.13527 -2.77162 -1.50151 0
M  V30 24 H 4.49425 0.986327 0.179416 0
M  V30 25 H 4.09538 0.656511 -1.51795 0
M  V30 26 H 0.96599 2.37949 1.42593 0
M  V30 27 H 1.4948 2.63519 -0.269355 0
M  V30 END ATOM
M  V30 BEGIN BOND
M  V30 1 1 1 2
M  V30 2 1 2 3
M  V30 3 1 2 4
M  V30 4 1 2 5
M  V30 5 1 5 6
M  V30 6 1 6 7
M  V30 7 2 7 8
M  V30 8 1 8 9
M  V30 9 1 8 10
M  V30 10 1 10 11
M  V30 11 2 10 12
M  V30 12 1 12 13
M  V30 13 1 12 6
M  V30 14 1 1 14
M  V30 15 1 1 15
M  V30 16 1 1 16
M  V30 17 1 3 17
M  V30 18 1 3 18
M  V30 19 1 3 19
M  V30 20 1 4 20
M  V30 21 1 5 21
M  V30 22 1 5 22
M  V30 23 1 9 23
M  V30 24 1 11 24
M  V30 25 1 11 25
M  V30 26 1 13 26
M  V30 27 1 13 27
M  V30 END BOND
M  V30 END CTAB
M  END
