
     RDKit          3D

  0  0  0  0  0  0  0  0  0  0999 V3000
M  V30 BEGIN CTAB
M  V30 COUNTS 29 30 0 0 0
M  V30 BEGIN ATOM
M  V30 1 N 3.09986 0.488239 0.00940228 0
M  V30 2 C 2.11381 -0.441674 0.551115 0
M  V30 3 C 0.869541 -0.280298 -0.335018 0
M  V30 4 N 1.30014 -0.62377 -1.67523 0
M  V30 5 C 0.441425 1.15363 -0.215117 0
M  V30 6 C -1.07139 1.3089 -0.196701 0
M  V30 7 C -1.6198 0.847778 1.1473 0
M  V30 8 C -2.32179 -0.468007 0.884022 0
M  V30 9 C -1.54778 -0.967077 -0.346329 0
M  V30 10 C -0.160808 -1.26561 0.0961245 0
M  V30 11 C -1.63033 0.318666 -1.17879 0
M  V30 12 H 4.066 0.176028 0.167096 0
M  V30 13 H 2.89746 0.735713 -0.987325 0
M  V30 14 H 2.49676 -1.48185 0.50842 0
M  V30 15 H 1.78627 -0.148004 1.56949 0
M  V30 16 H 1.38113 0.175803 -2.31118 0
M  V30 17 H 2.08416 -1.29429 -1.68417 0
M  V30 18 H 0.792124 1.5855 0.76787 0
M  V30 19 H 0.879005 1.79531 -1.00788 0
M  V30 20 H -1.34881 2.34026 -0.432304 0
M  V30 21 H -0.785239 0.62051 1.84717 0
M  V30 22 H -2.31381 1.59075 1.56803 0
M  V30 23 H -3.37944 -0.324103 0.573441 0
M  V30 24 H -2.18647 -1.20592 1.67095 0
M  V30 25 H -2.08489 -1.78606 -0.820821 0
M  V30 26 H 0.157389 -2.2713 -0.275925 0
M  V30 27 H -0.0905115 -1.35178 1.21988 0
M  V30 28 H -1.10046 0.248404 -2.11848 0
M  V30 29 H -2.72355 0.524255 -1.29953 0
M  V30 END ATOM
M  V30 BEGIN BOND
M  V30 1 1 1 2
M  V30 2 1 2 3
M  V30 3 1 3 4
M  V30 4 1 3 5
M  V30 5 1 5 6
M  V30 6 1 6 7
M  V30 7 1 7 8
M  V30 8 1 8 9
M  V30 9 1 9 10
M  V30 10 1 9 11
M  V30 11 1 10 3
M  V30 12 1 11 6
M  V30 13 1 1 12
M  V30 14 1 1 13
M  V30 15 1 2 14
M  V30 16 1 2 15
M  V30 17 1 4 16
M  V30 18 1 4 17
M  V30 19 1 5 18
M  V30 20 1 5 19
M  V30 21 1 6 20
M  V30 22 1 7 21
M  V30 23 1 7 22
M  V30 24 1 8 23
M  V30 25 1 8 24
M  V30 26 1 9 25
M  V30 27 1 10 26
M  V30 28 1 10 27
M  V30 29 1 11 28
M  V30 30 1 11 29
M  V30 END BOND
M  V30 END CTAB
M  END
