
     RDKit          3D

  0  0  0  0  0  0  0  0  0  0999 V3000
M  V30 BEGIN CTAB
M  V30 COUNTS 19 19 0 0 0
M  V30 BEGIN ATOM
M  V30 1 N 3.0583 -0.508369 0.361642 0
M  V30 2 C 1.72103 -0.0960923 0.169726 0
M  V30 3 C 1.46019 1.23956 -0.0868374 0
M  V30 4 C 0.156325 1.64903 -0.275238 0
M  V30 5 C -0.915983 0.780618 -0.219785 0
M  V30 6 C -0.649176 -0.548822 0.0362266 0
M  V30 7 C 0.649312 -0.971345 0.22642 0
M  V30 8 F 0.928804 -2.2703 0.478258 0
M  V30 9 C -1.78459 -1.52782 0.105352 0
M  V30 10 N -2.23702 1.26792 -0.42336 0
M  V30 11 H 3.27167 -1.2463 1.05141 0
M  V30 12 H 3.84596 -0.0883134 -0.175388 0
M  V30 13 H 2.28091 1.96853 -0.140496 0
M  V30 14 H -0.0411146 2.70366 -0.477078 0
M  V30 15 H -1.37942 -2.49618 0.477762 0
M  V30 16 H -2.59514 -1.14884 0.763579 0
M  V30 17 H -2.25479 -1.65055 -0.903532 0
M  V30 18 H -2.69164 1.91204 0.281588 0
M  V30 19 H -2.82363 1.03156 -1.25025 0
M  V30 END ATOM
M  V30 BEGIN BOND
M  V30 1 1 1 2
M  V30 2 2 2 3
M  V30 3 1 3 4
M  V30 4 2 4 5
M  V30 5 1 5 6
M  V30 6 2 6 7
M  V30 7 1 7 8
M  V30 8 1 6 9
M  V30 9 1 5 10
M  V30 10 1 7 2
M  V30 11 1 1 11
M  V30 12 1 1 12
M  V30 13 1 3 13
M  V30 14 1 4 14
M  V30 15 1 9 15
M  V30 16 1 9 16
M  V30 17 1 9 17
M  V30 18 1 10 18
M  V30 19 1 10 19
M  V30 END BOND
M  V30 END CTAB
M  END
