
     RDKit          3D

  0  0  0  0  0  0  0  0  0  0999 V3000
M  V30 BEGIN CTAB
M  V30 COUNTS 16 15 0 0 0
M  V30 BEGIN ATOM
M  V30 1 N 2.20831 0.533873 0.288773 0
M  V30 2 C 0.897677 0.741609 -0.237733 0
M  V30 3 C 0.0825505 -0.536536 -0.341995 0
M  V30 4 N -0.0957682 -1.16884 0.948009 0
M  V30 5 C -1.25028 -0.157063 -0.864871 0
M  V30 6 C -2.0319 0.623117 -0.160106 0
M  V30 7 H 2.33925 -0.433624 0.634399 0
M  V30 8 H 2.38819 1.27236 1.00363 0
M  V30 9 H 0.346953 1.53175 0.312009 0
M  V30 10 H 0.981019 1.12377 -1.29442 0
M  V30 11 H 0.603638 -1.26112 -0.999116 0
M  V30 12 H 0.713439 -1.81463 1.18095 0
M  V30 13 H -0.924027 -1.80308 0.88131 0
M  V30 14 H -1.53221 -0.55501 -1.84282 0
M  V30 15 H -1.72007 0.997334 0.801977 0
M  V30 16 H -3.00678 0.906096 -0.532681 0
M  V30 END ATOM
M  V30 BEGIN BOND
M  V30 1 1 1 2
M  V30 2 1 2 3
M  V30 3 1 3 4
M  V30 4 1 3 5
M  V30 5 2 5 6 CFG=2
M  V30 6 1 1 7
M  V30 7 1 1 8
M  V30 8 1 2 9
M  V30 9 1 2 10
M  V30 10 1 3 11
M  V30 11 1 4 12
M  V30 12 1 4 13
M  V30 13 1 5 14
M  V30 14 1 6 15
M  V30 15 1 6 16
M  V30 END BOND
M  V30 END CTAB
M  END
