
     RDKit          3D

  0  0  0  0  0  0  0  0  0  0999 V3000
M  V30 BEGIN CTAB
M  V30 COUNTS 33 33 0 0 0
M  V30 BEGIN ATOM
M  V30 1 C -3.19285 -1.98056 0.31723 0
M  V30 2 C -2.32507 -0.912518 -0.36622 0
M  V30 3 C -2.73124 0.439186 0.0900799 0
M  V30 4 C -1.63467 1.38743 0.392328 0
M  V30 5 N -2.00541 2.67271 -0.235645 0
M  V30 6 C -0.279696 1.0621 -0.0746632 0
M  V30 7 N 0.0702115 -0.278257 -0.328062 0
M  V30 8 C -0.912279 -1.2756 -0.11177 0
M  V30 9 C 1.30415 -0.699276 0.341198 0
M  V30 10 C 2.43039 0.0501084 -0.312256 0
M  V30 11 S 4.00394 -0.351252 0.394365 0
M  V30 12 O 4.25206 -1.8228 0.127833 0
M  V30 13 O 4.05202 -0.0348937 1.84364 0
M  V30 14 N 5.20301 0.571354 -0.434003 0
M  V30 15 H -4.02372 -1.46518 0.858803 0
M  V30 16 H -2.61721 -2.51735 1.10013 0
M  V30 17 H -3.59047 -2.71159 -0.386108 0
M  V30 18 H -2.53288 -1.04879 -1.4687 0
M  V30 19 H -3.37339 0.319566 1.01268 0
M  V30 20 H -3.4677 0.837682 -0.671416 0
M  V30 21 H -1.63135 1.64441 1.49507 0
M  V30 22 H -1.28969 3.39305 0.0519455 0
M  V30 23 H -1.96258 2.57693 -1.29122 0
M  V30 24 H 0.451892 1.44962 0.700542 0
M  V30 25 H 0.0137885 1.65765 -0.993179 0
M  V30 26 H -0.825647 -1.64289 0.937703 0
M  V30 27 H -0.64584 -2.15834 -0.746559 0
M  V30 28 H 1.19511 -0.520607 1.41001 0
M  V30 29 H 1.39306 -1.78801 0.142887 0
M  V30 30 H 2.41767 -0.238267 -1.39546 0
M  V30 31 H 2.19522 1.12374 -0.285132 0
M  V30 32 H 5.1966 1.53709 0.014841 0
M  V30 33 H 4.86256 0.723535 -1.40932 0
M  V30 END ATOM
M  V30 BEGIN BOND
M  V30 1 1 1 2
M  V30 2 1 2 3
M  V30 3 1 3 4
M  V30 4 1 4 5
M  V30 5 1 4 6
M  V30 6 1 6 7
M  V30 7 1 7 8
M  V30 8 1 7 9
M  V30 9 1 9 10
M  V30 10 1 10 11
M  V30 11 2 11 12
M  V30 12 2 11 13
M  V30 13 1 11 14
M  V30 14 1 8 2
M  V30 15 1 1 15
M  V30 16 1 1 16
M  V30 17 1 1 17
M  V30 18 1 2 18
M  V30 19 1 3 19
M  V30 20 1 3 20
M  V30 21 1 4 21
M  V30 22 1 5 22
M  V30 23 1 5 23
M  V30 24 1 6 24
M  V30 25 1 6 25
M  V30 26 1 8 26
M  V30 27 1 8 27
M  V30 28 1 9 28
M  V30 29 1 9 29
M  V30 30 1 10 30
M  V30 31 1 10 31
M  V30 32 1 14 32
M  V30 33 1 14 33
M  V30 END BOND
M  V30 END CTAB
M  END
