
     RDKit          3D

  0  0  0  0  0  0  0  0  0  0999 V3000
M  V30 BEGIN CTAB
M  V30 COUNTS 29 30 0 0 0
M  V30 BEGIN ATOM
M  V30 1 N 0.104085 0.525651 2.3118 0
M  V30 2 C 0.0390049 -0.29436 1.09595 0
M  V30 3 C 1.26603 -0.213732 0.297426 0
M  V30 4 C 1.76586 1.03594 -0.00747218 0
M  V30 5 C 2.92364 1.22546 -0.748383 0
M  V30 6 C 3.62858 0.134391 -1.21484 0
M  V30 7 C 3.15602 -1.13328 -0.927846 0
M  V30 8 C 1.98518 -1.28856 -0.178194 0
M  V30 9 C -1.19871 0.0274857 0.343796 0
M  V30 10 C -1.79109 -0.795599 -0.574796 0
M  V30 11 N -1.22506 -2.06471 -0.858302 0
M  V30 12 C -2.95084 -0.45348 -1.26534 0
M  V30 13 C -3.53582 0.764672 -1.0206 0
M  V30 14 C -2.9617 1.60848 -0.104019 0
M  V30 15 C -1.81589 1.25886 0.571854 0
M  V30 16 H 0.539697 0.048101 3.10628 0
M  V30 17 H 0.433823 1.4841 2.15067 0
M  V30 18 H -0.0642395 -1.34697 1.46452 0
M  V30 19 H 1.24688 1.90583 0.335981 0
M  V30 20 H 3.30971 2.20473 -0.984021 0
M  V30 21 H 4.52665 0.266249 -1.78906 0
M  V30 22 H 3.68741 -2.00352 -1.28072 0
M  V30 23 H 1.64042 -2.28634 0.0381959 0
M  V30 24 H -0.834452 -2.2064 -1.83598 0
M  V30 25 H -1.18329 -2.839 -0.153949 0
M  V30 26 H -3.41051 -1.11178 -1.98834 0
M  V30 27 H -4.45305 1.03146 -1.56758 0
M  V30 28 H -3.4349 2.55975 0.0729356 0
M  V30 29 H -1.39343 1.95658 1.29006 0
M  V30 END ATOM
M  V30 BEGIN BOND
M  V30 1 1 1 2
M  V30 2 1 2 3
M  V30 3 2 3 4
M  V30 4 1 4 5
M  V30 5 2 5 6
M  V30 6 1 6 7
M  V30 7 2 7 8
M  V30 8 1 2 9
M  V30 9 2 9 10
M  V30 10 1 10 11
M  V30 11 1 10 12
M  V30 12 2 12 13
M  V30 13 1 13 14
M  V30 14 2 14 15
M  V30 15 1 8 3
M  V30 16 1 15 9
M  V30 17 1 1 16
M  V30 18 1 1 17
M  V30 19 1 2 18
M  V30 20 1 4 19
M  V30 21 1 5 20
M  V30 22 1 6 21
M  V30 23 1 7 22
M  V30 24 1 8 23
M  V30 25 1 11 24
M  V30 26 1 11 25
M  V30 27 1 12 26
M  V30 28 1 13 27
M  V30 29 1 14 28
M  V30 30 1 15 29
M  V30 END BOND
M  V30 END CTAB
M  END
