
     RDKit          3D

  0  0  0  0  0  0  0  0  0  0999 V3000
M  V30 BEGIN CTAB
M  V30 COUNTS 71 76 0 0 0
M  V30 BEGIN ATOM
M  V30 1 Cl 12.1215 0.084796 0.219434 0
M  V30 2 C 10.3899 -0.0663961 0.0368288 0
M  V30 3 C 9.87889 -1.18305 -0.592146 0
M  V30 4 C 8.51578 -1.30971 -0.740536 0
M  V30 5 C 7.6342 -0.353934 -0.280152 0
M  V30 6 C 8.14352 0.753987 0.344047 0
M  V30 7 C 9.5158 0.88125 0.493394 0
M  V30 8 N 7.09861 1.5104 0.688234 0
M  V30 9 C 5.93334 0.91125 0.298486 0
M  V30 10 N 6.29246 -0.225854 -0.290294 0
M  V30 11 C 5.41342 -1.20658 -0.867553 0
M  V30 12 C 4.64672 1.54801 0.563327 0
M  V30 13 C 3.43245 0.847576 0.121499 0
M  V30 14 C 2.23912 1.6903 0.502695 0
M  V30 15 O 2.43728 2.74654 1.13816 0
M  V30 16 N 0.926789 1.3005 0.153632 0
M  V30 17 C -0.246891 2.06265 0.500056 0
M  V30 18 C -1.35136 1.18537 1.10727 0
M  V30 19 C -1.66324 0.0545928 0.106724 0
M  V30 20 C -0.364459 -0.704295 0.00839229 0
M  V30 21 C 0.751746 0.0755773 -0.595168 0
M  V30 22 O -2.58717 -0.763913 0.722297 0
M  V30 23 C -3.16819 -1.65715 -0.14575 0
M  V30 24 C -4.02928 -0.842046 -1.12728 0 CFG=2
M  V30 25 C -3.05028 -0.111868 -1.9701 0 CFG=2
M  V30 26 C -2.12128 0.706514 -1.14128 0
M  V30 27 C -3.60732 0.619676 -3.15178 0
M  V30 28 O -2.22074 -1.12039 -2.54737 0
M  V30 29 N -5.04138 -0.090771 -0.487152 0
M  V30 30 C -5.37879 1.1631 -0.626166 0
M  V30 31 N -6.41924 1.50211 0.180075 0
M  V30 32 C -6.745 0.402402 0.854355 0
M  V30 33 C -5.88171 -0.614143 0.442711 0
M  V30 34 N -6.04927 -1.79901 1.00399 0
M  V30 35 C -6.9655 -2.12098 1.9286 0
M  V30 36 N -7.0793 -3.43532 2.48707 0
M  V30 37 N -7.80399 -1.11715 2.32294 0
M  V30 38 C -7.70095 0.113714 1.80294 0
M  V30 39 N -8.59146 1.11796 2.24304 0
M  V30 40 H 10.5702 -1.94313 -0.958799 0
M  V30 41 H 8.12941 -2.20257 -1.2415 0
M  V30 42 H 9.90113 1.75479 0.984246 0
M  V30 43 H 6.02509 -2.08267 -1.25524 0
M  V30 44 H 4.79677 -1.66362 -0.0778813 0
M  V30 45 H 4.86588 -0.871853 -1.7652 0
M  V30 46 H 4.51019 1.85289 1.62441 0
M  V30 47 H 4.67279 2.53805 0.00950745 0
M  V30 48 H 3.24825 -0.0961701 0.718615 0
M  V30 49 H 3.3159 0.697019 -0.96618 0
M  V30 50 H -0.628496 2.54873 -0.437934 0
M  V30 51 H -0.00590625 2.83732 1.25421 0
M  V30 52 H -0.940332 0.746393 2.01738 0
M  V30 53 H -2.21433 1.85057 1.24842 0
M  V30 54 H -0.416704 -1.67583 -0.468357 0
M  V30 55 H -0.060894 -0.903201 1.0804 0
M  V30 56 H 1.67383 -0.56614 -0.479173 0
M  V30 57 H 0.654915 0.250691 -1.68379 0
M  V30 58 H -2.36904 -2.12274 -0.797084 0
M  V30 59 H -3.68206 -2.48812 0.309157 0
M  V30 60 H -4.45703 -1.65461 -1.80296 0
M  V30 61 H -1.23322 1.00506 -1.74214 0
M  V30 62 H -2.62631 1.66738 -0.875782 0
M  V30 63 H -3.34286 1.71373 -3.04607 0
M  V30 64 H -3.17467 0.328419 -4.1302 0
M  V30 65 H -4.71018 0.483032 -3.26586 0
M  V30 66 H -2.74058 -1.52977 -3.29421 0
M  V30 67 H -4.94533 1.90031 -1.27253 0
M  V30 68 H -7.21753 -4.29145 1.87625 0
M  V30 69 H -7.03363 -3.62429 3.50892 0
M  V30 70 H -8.36918 1.70595 3.06623 0
M  V30 71 H -9.50088 1.28011 1.73177 0
M  V30 END ATOM
M  V30 BEGIN BOND
M  V30 1 1 1 2
M  V30 2 2 2 3
M  V30 3 1 3 4
M  V30 4 2 4 5
M  V30 5 1 5 6
M  V30 6 2 6 7
M  V30 7 1 6 8
M  V30 8 2 8 9
M  V30 9 1 9 10
M  V30 10 1 10 11
M  V30 11 1 9 12
M  V30 12 1 12 13
M  V30 13 1 13 14
M  V30 14 2 14 15
M  V30 15 1 14 16
M  V30 16 1 16 17
M  V30 17 1 17 18
M  V30 18 1 18 19
M  V30 19 1 19 20
M  V30 20 1 20 21
M  V30 21 1 19 22
M  V30 22 1 22 23
M  V30 23 1 23 24
M  V30 24 1 24 25
M  V30 25 1 25 26
M  V30 26 1 25 27
M  V30 27 1 25 28 CFG=3
M  V30 28 1 24 29
M  V30 29 1 29 30
M  V30 30 2 30 31
M  V30 31 1 31 32
M  V30 32 2 32 33
M  V30 33 1 33 34
M  V30 34 2 34 35
M  V30 35 1 35 36
M  V30 36 1 35 37
M  V30 37 2 37 38
M  V30 38 1 38 39
M  V30 39 1 7 2
M  V30 40 1 21 16
M  V30 41 1 33 29
M  V30 42 1 10 5
M  V30 43 1 26 19
M  V30 44 1 38 32
M  V30 45 1 3 40
M  V30 46 1 4 41
M  V30 47 1 7 42
M  V30 48 1 11 43
M  V30 49 1 11 44
M  V30 50 1 11 45
M  V30 51 1 12 46
M  V30 52 1 12 47
M  V30 53 1 13 48
M  V30 54 1 13 49
M  V30 55 1 17 50
M  V30 56 1 17 51
M  V30 57 1 18 52
M  V30 58 1 18 53
M  V30 59 1 20 54
M  V30 60 1 20 55
M  V30 61 1 21 56
M  V30 62 1 21 57
M  V30 63 1 23 58
M  V30 64 1 23 59
M  V30 65 1 24 60 CFG=3
M  V30 66 1 26 61
M  V30 67 1 26 62
M  V30 68 1 27 63
M  V30 69 1 27 64
M  V30 70 1 27 65
M  V30 71 1 28 66
M  V30 72 1 30 67
M  V30 73 1 36 68
M  V30 74 1 36 69
M  V30 75 1 39 70
M  V30 76 1 39 71
M  V30 END BOND
M  V30 END CTAB
M  END
