
     RDKit          3D

  0  0  0  0  0  0  0  0  0  0999 V3000
M  V30 BEGIN CTAB
M  V30 COUNTS 38 40 0 0 0
M  V30 BEGIN ATOM
M  V30 1 N -1.9526 -2.85427 0.296369 0
M  V30 2 C -1.31026 -1.62111 0.601732 0 CFG=2
M  V30 3 C -1.72598 -0.574492 -0.410603 0 CFG=1
M  V30 4 C -3.07258 0.0106174 -0.0485558 0
M  V30 5 O -3.40577 1.09646 -0.8205 0
M  V30 6 P -4.91988 1.65895 -0.326094 0
M  V30 7 O -5.96359 0.376558 0.0492151 0
M  V30 8 O -4.7797 2.63274 1.05087 0
M  V30 9 O -5.55201 2.46936 -1.43159 0
M  V30 10 O -0.700448 0.372795 -0.246762 0
M  V30 11 C 0.445437 -0.413034 -0.390482 0 CFG=2
M  V30 12 C 0.187097 -1.68825 0.36018 0 CFG=2
M  V30 13 O 0.446831 -2.80023 -0.431572 0
M  V30 14 N 1.61423 0.267217 0.145656 0
M  V30 15 C 1.67615 1.06443 1.22697 0
M  V30 16 N 2.93729 1.5079 1.40352 0
M  V30 17 C 3.70876 1.00673 0.443016 0
M  V30 18 C 2.87444 0.224058 -0.350609 0
M  V30 19 N 3.41079 -0.404012 -1.40525 0
M  V30 20 C 4.71815 -0.286048 -1.69502 0
M  V30 21 N 5.51666 0.476078 -0.917419 0
M  V30 22 C 5.05706 1.13936 0.15934 0
M  V30 23 N 5.88232 1.94593 0.989192 0
M  V30 24 H -2.06662 -3.51939 1.02604 0
M  V30 25 H -2.57625 -2.84601 -0.499908 0
M  V30 26 H -1.53179 -1.2539 1.61488 0
M  V30 27 H -1.68134 -0.94074 -1.44009 0
M  V30 28 H -3.03682 0.267936 1.03579 0
M  V30 29 H -3.81115 -0.81139 -0.147151 0
M  V30 30 H -5.60881 -0.174101 0.792922 0
M  V30 31 H -4.72489 3.58521 0.786377 0
M  V30 32 H 0.549962 -0.613615 -1.474 0
M  V30 33 H 0.740703 -1.74601 1.31835 0
M  V30 34 H 0.39748 -2.60073 -1.3849 0
M  V30 35 H 0.789893 1.27895 1.83073 0
M  V30 36 H 5.14582 -0.806729 -2.56344 0
M  V30 37 H 6.72058 1.62549 1.48152 0
M  V30 38 H 5.60086 2.9473 1.09881 0
M  V30 END ATOM
M  V30 BEGIN BOND
M  V30 1 1 1 2
M  V30 2 1 2 3
M  V30 3 1 3 4
M  V30 4 1 4 5
M  V30 5 1 5 6
M  V30 6 1 6 7
M  V30 7 1 6 8
M  V30 8 2 6 9
M  V30 9 1 3 10
M  V30 10 1 10 11
M  V30 11 1 11 12
M  V30 12 1 12 13
M  V30 13 1 11 14
M  V30 14 1 14 15
M  V30 15 2 15 16
M  V30 16 1 16 17
M  V30 17 2 17 18
M  V30 18 1 18 19
M  V30 19 2 19 20
M  V30 20 1 20 21
M  V30 21 2 21 22
M  V30 22 1 22 23
M  V30 23 1 12 2
M  V30 24 1 18 14
M  V30 25 1 22 17
M  V30 26 1 1 24
M  V30 27 1 1 25
M  V30 28 1 2 26 CFG=1
M  V30 29 1 3 27 CFG=3
M  V30 30 1 4 28
M  V30 31 1 4 29
M  V30 32 1 7 30
M  V30 33 1 8 31
M  V30 34 1 11 32 CFG=3
M  V30 35 1 12 33 CFG=1
M  V30 36 1 13 34
M  V30 37 1 15 35
M  V30 38 1 20 36
M  V30 39 1 23 37
M  V30 40 1 23 38
M  V30 END BOND
M  V30 END CTAB
M  END
