
     RDKit          3D

  0  0  0  0  0  0  0  0  0  0999 V3000
M  V30 BEGIN CTAB
M  V30 COUNTS 18 17 0 0 0
M  V30 BEGIN ATOM
M  V30 1 N 1.86438 -1.67541 0.685073 0
M  V30 2 C 1.82579 -0.436468 -0.00861425 0
M  V30 3 N 2.9554 0.150808 -0.205213 0
M  V30 4 N 2.95972 1.36512 -0.880237 0
M  V30 5 S 0.297715 0.285823 -0.586599 0
M  V30 6 C -1.05355 -0.819379 -0.127537 0
M  V30 7 C -2.39838 -0.294265 -0.574903 0
M  V30 8 C -2.64987 1.01677 0.0494977 0
M  V30 9 C -2.87509 2.09021 0.553376 0
M  V30 10 H 1.8785 -1.74732 1.71436 0
M  V30 11 H 1.87928 -2.55856 0.130373 0
M  V30 12 H 3.75966 2.00935 -0.762752 0
M  V30 13 H 2.17124 1.63073 -1.49859 0
M  V30 14 H -0.898683 -1.78185 -0.663183 0
M  V30 15 H -1.05884 -1.06238 0.954664 0
M  V30 16 H -3.15695 -1.03999 -0.263033 0
M  V30 17 H -2.40975 -0.161436 -1.65823 0
M  V30 18 H -3.09055 3.02825 0.995595 0
M  V30 END ATOM
M  V30 BEGIN BOND
M  V30 1 1 1 2
M  V30 2 2 2 3 CFG=2
M  V30 3 1 3 4
M  V30 4 1 2 5
M  V30 5 1 5 6
M  V30 6 1 6 7
M  V30 7 1 7 8
M  V30 8 3 8 9
M  V30 9 1 1 10
M  V30 10 1 1 11
M  V30 11 1 4 12
M  V30 12 1 4 13
M  V30 13 1 6 14
M  V30 14 1 6 15
M  V30 15 1 7 16
M  V30 16 1 7 17
M  V30 17 1 9 18
M  V30 END BOND
M  V30 END CTAB
M  END
