
     RDKit          3D

  0  0  0  0  0  0  0  0  0  0999 V3000
M  V30 BEGIN CTAB
M  V30 COUNTS 31 31 0 0 0
M  V30 BEGIN ATOM
M  V30 1 C -1.83937 -1.38641 -1.45076 0
M  V30 2 C -1.93343 -0.534807 -0.255728 0
M  V30 3 C -3.01552 -0.493839 0.597296 0
M  V30 4 C -3.0695 0.29773 1.72562 0
M  V30 5 N -2.04058 1.05762 1.99365 0
M  V30 6 C -0.942298 1.08055 1.21393 0
M  V30 7 C -0.841522 0.288975 0.0777032 0
M  V30 8 C 0.312925 0.281764 -0.80616 0
M  V30 9 C 1.64127 -0.135194 -0.249834 0
M  V30 10 N 1.93292 -1.49579 -0.903751 0
M  V30 11 C 2.81022 0.724327 -0.48801 0
M  V30 12 C 1.60329 -0.551259 1.21836 0
M  V30 13 O 0.187936 0.250693 -2.16489 0
M  V30 14 N 0.0412245 2.0888 1.49039 0
M  V30 15 H -1.94997 -0.827068 -2.42871 0
M  V30 16 H -2.70677 -2.07563 -1.44194 0
M  V30 17 H -0.965391 -2.05642 -1.44302 0
M  V30 18 H -3.85797 -1.13103 0.360574 0
M  V30 19 H -3.95684 0.246322 2.3382 0
M  V30 20 H 0.552077 1.51742 -0.736243 0
M  V30 21 H 1.66571 -1.41953 -1.89828 0
M  V30 22 H 1.22432 -2.12632 -0.447766 0
M  V30 23 H 3.73615 0.0622063 -0.410863 0
M  V30 24 H 2.99186 1.47587 0.317046 0
M  V30 25 H 2.86555 1.18717 -1.49475 0
M  V30 26 H 2.32561 -1.43354 1.2936 0
M  V30 27 H 0.625392 -1.00092 1.47209 0
M  V30 28 H 1.99991 0.153606 1.92693 0
M  V30 29 H -0.141873 1.07361 -2.5658 0
M  V30 30 H 0.536696 2.057 2.39547 0
M  V30 31 H 0.207953 2.82408 0.76564 0
M  V30 END ATOM
M  V30 BEGIN BOND
M  V30 1 1 1 2
M  V30 2 2 2 3
M  V30 3 1 3 4
M  V30 4 2 4 5
M  V30 5 1 5 6
M  V30 6 2 6 7
M  V30 7 1 7 8
M  V30 8 1 8 9
M  V30 9 1 9 10
M  V30 10 1 9 11
M  V30 11 1 9 12
M  V30 12 1 8 13
M  V30 13 1 6 14
M  V30 14 1 7 2
M  V30 15 1 1 15
M  V30 16 1 1 16
M  V30 17 1 1 17
M  V30 18 1 3 18
M  V30 19 1 4 19
M  V30 20 1 8 20
M  V30 21 1 10 21
M  V30 22 1 10 22
M  V30 23 1 11 23
M  V30 24 1 11 24
M  V30 25 1 11 25
M  V30 26 1 12 26
M  V30 27 1 12 27
M  V30 28 1 12 28
M  V30 29 1 13 29
M  V30 30 1 14 30
M  V30 31 1 14 31
M  V30 END BOND
M  V30 END CTAB
M  END
