
     RDKit          3D

  0  0  0  0  0  0  0  0  0  0999 V3000
M  V30 BEGIN CTAB
M  V30 COUNTS 44 46 0 0 0
M  V30 BEGIN ATOM
M  V30 1 N -9.31162 -0.722288 0.144997 0
M  V30 2 C -7.87751 -0.68811 0.124407 0
M  V30 3 C -7.24269 0.475613 0.485841 0
M  V30 4 C -5.87572 0.550064 0.479737 0
M  V30 5 C -5.12148 -0.524236 0.11654 0
M  V30 6 C -5.7869 -1.69783 -0.247406 0
M  V30 7 C -7.15423 -1.79825 -0.249672 0
M  V30 8 C -3.63843 -0.51725 0.0861245 0
M  V30 9 C -2.89693 0.510609 0.40139 0
M  V30 10 C -1.43221 0.525866 0.374049 0
M  V30 11 C -0.774059 1.6844 0.733336 0
M  V30 12 C 0.610897 1.76346 0.728366 0
M  V30 13 C 1.38528 0.677749 0.36105 0
M  V30 14 C 0.718209 -0.484888 0.000633523 0
M  V30 15 C -0.677567 -0.563655 0.00593693 0
M  V30 16 C 2.82732 0.821262 0.375666 0
M  V30 17 C 3.63877 -0.157934 0.0418729 0
M  V30 18 C 5.11507 -0.0320198 0.0500611 0
M  V30 19 C 5.89621 -1.1122 -0.315659 0
M  V30 20 C 7.27386 -1.03669 -0.321533 0
M  V30 21 C 7.93907 0.124249 0.0385025 0
M  V30 22 N 9.35907 0.159845 0.0188455 0
M  V30 23 C 7.16047 1.20119 0.403121 0
M  V30 24 C 5.76165 1.12386 0.408872 0
M  V30 25 H -9.83173 -0.785453 1.02588 0
M  V30 26 H -9.83496 -0.682356 -0.748995 0
M  V30 27 H -7.85344 1.35307 0.782376 0
M  V30 28 H -5.36476 1.46929 0.765023 0
M  V30 29 H -5.19461 -2.55563 -0.537193 0
M  V30 30 H -7.6883 -2.69694 -0.527822 0
M  V30 31 H -3.1206 -1.42581 -0.21839 0
M  V30 32 H -3.39255 1.4196 0.705555 0
M  V30 33 H -1.30967 2.5697 1.03074 0
M  V30 34 H 1.12938 2.66847 1.00894 0
M  V30 35 H 1.27266 -1.35861 -0.293452 0
M  V30 36 H -1.12378 -1.49417 -0.284453 0
M  V30 37 H 3.2475 1.7817 0.676343 0
M  V30 38 H 3.20407 -1.09853 -0.252081 0
M  V30 39 H 5.3868 -2.0231 -0.598424 0
M  V30 40 H 7.89068 -1.89231 -0.611178 0
M  V30 41 H 9.87872 1.05184 -0.124463 0
M  V30 42 H 9.924 -0.706352 0.147361 0
M  V30 43 H 7.66301 2.11889 0.688234 0
M  V30 44 H 5.22105 2.00388 0.704717 0
M  V30 END ATOM
M  V30 BEGIN BOND
M  V30 1 1 1 2
M  V30 2 2 2 3
M  V30 3 1 3 4
M  V30 4 2 4 5
M  V30 5 1 5 6
M  V30 6 2 6 7
M  V30 7 1 5 8
M  V30 8 2 8 9
M  V30 9 1 9 10
M  V30 10 2 10 11
M  V30 11 1 11 12
M  V30 12 2 12 13
M  V30 13 1 13 14
M  V30 14 2 14 15
M  V30 15 1 13 16
M  V30 16 2 16 17
M  V30 17 1 17 18
M  V30 18 2 18 19
M  V30 19 1 19 20
M  V30 20 2 20 21
M  V30 21 1 21 22
M  V30 22 1 21 23
M  V30 23 2 23 24
M  V30 24 1 7 2
M  V30 25 1 15 10
M  V30 26 1 24 18
M  V30 27 1 1 25
M  V30 28 1 1 26
M  V30 29 1 3 27
M  V30 30 1 4 28
M  V30 31 1 6 29
M  V30 32 1 7 30
M  V30 33 1 8 31
M  V30 34 1 9 32
M  V30 35 1 11 33
M  V30 36 1 12 34
M  V30 37 1 14 35
M  V30 38 1 15 36
M  V30 39 1 16 37
M  V30 40 1 17 38
M  V30 41 1 19 39
M  V30 42 1 20 40
M  V30 43 1 22 41
M  V30 44 1 22 42
M  V30 45 1 23 43
M  V30 46 1 24 44
M  V30 END BOND
M  V30 END CTAB
M  END
