
     RDKit          3D

  0  0  0  0  0  0  0  0  0  0999 V3000
M  V30 BEGIN CTAB
M  V30 COUNTS 32 32 0 0 0
M  V30 BEGIN ATOM
M  V30 1 O -1.5303 -2.32822 1.52183 0
M  V30 2 C -2.29011 -1.38873 0.887062 0
M  V30 3 C -1.75526 -0.795007 -0.359639 0
M  V30 4 C -0.456973 -0.070616 -0.260713 0
M  V30 5 C -0.116973 0.459054 -1.62492 0
M  V30 6 C -0.882411 1.67739 -2.03639 0
M  V30 7 S -0.885455 2.96848 -0.759607 0
M  V30 8 C -1.38935 2.03769 0.734061 0
M  V30 9 C -0.380832 0.919733 0.83917 0
M  V30 10 N 0.579976 -1.05725 0.00566399 0
M  V30 11 C 1.94782 -0.727348 0.21491 0
M  V30 12 N 2.41252 -0.329381 1.34805 0
M  V30 13 N 3.75902 -0.0164458 1.5101 0
M  V30 14 N 2.84562 -0.845295 -0.875927 0
M  V30 15 H -1.86817 -2.42574 2.44771 0
M  V30 16 H -3.25738 -1.90363 0.605092 0
M  V30 17 H -2.60395 -0.634754 1.64226 0
M  V30 18 H -1.63503 -1.63991 -1.10069 0
M  V30 19 H -2.57131 -0.170031 -0.804565 0
M  V30 20 H 0.958271 0.693812 -1.72666 0
M  V30 21 H -0.347114 -0.343711 -2.35473 0
M  V30 22 H -0.383736 2.10624 -2.92323 0
M  V30 23 H -1.92846 1.46193 -2.31332 0
M  V30 24 H -2.41193 1.66759 0.513761 0
M  V30 25 H -1.32597 2.64907 1.6351 0
M  V30 26 H 0.623806 1.43093 0.757208 0
M  V30 27 H -0.403623 0.402464 1.80186 0
M  V30 28 H 0.369412 -2.09439 0.0517108 0
M  V30 29 H 4.28198 0.642895 0.899091 0
M  V30 30 H 4.28156 -0.465996 2.28853 0
M  V30 31 H 3.12548 -1.81588 -1.15234 0
M  V30 32 H 3.2389 -0.0649447 -1.41044 0
M  V30 END ATOM
M  V30 BEGIN BOND
M  V30 1 1 1 2
M  V30 2 1 2 3
M  V30 3 1 3 4
M  V30 4 1 4 5
M  V30 5 1 5 6
M  V30 6 1 6 7
M  V30 7 1 7 8
M  V30 8 1 8 9
M  V30 9 1 4 10
M  V30 10 1 10 11
M  V30 11 2 11 12 CFG=2
M  V30 12 1 12 13
M  V30 13 1 11 14
M  V30 14 1 9 4
M  V30 15 1 1 15
M  V30 16 1 2 16
M  V30 17 1 2 17
M  V30 18 1 3 18
M  V30 19 1 3 19
M  V30 20 1 5 20
M  V30 21 1 5 21
M  V30 22 1 6 22
M  V30 23 1 6 23
M  V30 24 1 8 24
M  V30 25 1 8 25
M  V30 26 1 9 26
M  V30 27 1 9 27
M  V30 28 1 10 28
M  V30 29 1 13 29
M  V30 30 1 13 30
M  V30 31 1 14 31
M  V30 32 1 14 32
M  V30 END BOND
M  V30 END CTAB
M  END
