
     RDKit          3D

  0  0  0  0  0  0  0  0  0  0999 V3000
M  V30 BEGIN CTAB
M  V30 COUNTS 32 33 0 0 0
M  V30 BEGIN ATOM
M  V30 1 N 4.38434 2.39785 0.212192 0
M  V30 2 C 4.12885 1.02704 -0.0754483 0
M  V30 3 C 2.8109 0.540257 -0.098665 0
M  V30 4 C 2.51174 -0.767682 -0.36955 0
M  V30 5 N 1.22308 -1.26116 -0.396222 0
M  V30 6 C -0.0179842 -0.617805 -0.174479 0
M  V30 7 O -0.0951835 0.600885 0.100027 0
M  V30 8 N -1.23582 -1.3256 -0.253095 0
M  V30 9 C -2.50547 -0.778236 -0.0613307 0
M  V30 10 C -2.86919 0.525242 -0.169429 0
M  V30 11 C -4.15699 1.02241 0.0601923 0
M  V30 12 N -4.47507 2.38847 -0.0670756 0
M  V30 13 C -5.138 0.135614 0.422384 0
M  V30 14 C -4.8005 -1.20219 0.540872 0
M  V30 15 C -3.54022 -1.66475 0.313009 0
M  V30 16 C 3.63019 -1.5849 -0.622751 0
M  V30 17 C 4.91683 -1.11086 -0.600345 0
M  V30 18 C 5.18049 0.202522 -0.325974 0
M  V30 19 H 5.15003 2.59413 0.906401 0
M  V30 20 H 3.84918 3.14524 -0.235064 0
M  V30 21 H 2.07936 1.29788 0.116455 0
M  V30 22 H 1.12853 -2.30739 -0.621585 0
M  V30 23 H -1.15143 -2.35404 -0.480227 0
M  V30 24 H -2.16034 1.27792 -0.468462 0
M  V30 25 H -4.91265 2.88548 0.728304 0
M  V30 26 H -4.28282 2.91211 -0.937439 0
M  V30 27 H -6.15081 0.46522 0.612065 0
M  V30 28 H -5.56839 -1.92086 0.827663 0
M  V30 29 H -3.27348 -2.72796 0.407916 0
M  V30 30 H 3.40873 -2.62078 -0.838292 0
M  V30 31 H 5.73877 -1.77883 -0.801381 0
M  V30 32 H 6.19335 0.604799 -0.301888 0
M  V30 END ATOM
M  V30 BEGIN BOND
M  V30 1 1 1 2
M  V30 2 2 2 3
M  V30 3 1 3 4
M  V30 4 1 4 5
M  V30 5 1 5 6
M  V30 6 2 6 7
M  V30 7 1 6 8
M  V30 8 1 8 9
M  V30 9 2 9 10
M  V30 10 1 10 11
M  V30 11 1 11 12
M  V30 12 2 11 13
M  V30 13 1 13 14
M  V30 14 2 14 15
M  V30 15 2 4 16
M  V30 16 1 16 17
M  V30 17 2 17 18
M  V30 18 1 18 2
M  V30 19 1 15 9
M  V30 20 1 1 19
M  V30 21 1 1 20
M  V30 22 1 3 21
M  V30 23 1 5 22
M  V30 24 1 8 23
M  V30 25 1 10 24
M  V30 26 1 12 25
M  V30 27 1 12 26
M  V30 28 1 13 27
M  V30 29 1 14 28
M  V30 30 1 15 29
M  V30 31 1 16 30
M  V30 32 1 17 31
M  V30 33 1 18 32
M  V30 END BOND
M  V30 END CTAB
M  END
