
     RDKit          3D

  0  0  0  0  0  0  0  0  0  0999 V3000
M  V30 BEGIN CTAB
M  V30 COUNTS 20 20 0 0 0
M  V30 BEGIN ATOM
M  V30 1 N 3.66449 0.75994 0.886148 0
M  V30 2 N 2.31827 0.518333 0.661062 0
M  V30 3 C 1.85965 -0.360354 -0.141763 0
M  V30 4 S 0.124858 -0.661836 -0.422828 0
M  V30 5 C -0.778127 0.491065 0.625287 0
M  V30 6 C -2.2649 0.371525 0.51117 0
M  V30 7 C -2.98576 0.575497 -0.756254 0
M  V30 8 C -2.90905 -0.814467 -0.107535 0
M  V30 9 N 2.76712 -1.16545 -0.872596 0
M  V30 10 H 4.05143 0.62789 1.85074 0
M  V30 11 H 4.31267 1.06831 0.136841 0
M  V30 12 H -0.481913 1.51695 0.320092 0
M  V30 13 H -0.469224 0.31615 1.66969 0
M  V30 14 H -2.8064 0.755365 1.42373 0
M  V30 15 H -2.45276 0.664817 -1.70376 0
M  V30 16 H -3.98462 1.08664 -0.744504 0
M  V30 17 H -2.30877 -1.58721 -0.630626 0
M  V30 18 H -3.88587 -1.19397 0.241499 0
M  V30 19 H 2.91263 -1.09917 -1.90608 0
M  V30 20 H 3.31628 -1.87003 -0.295471 0
M  V30 END ATOM
M  V30 BEGIN BOND
M  V30 1 1 1 2
M  V30 2 2 2 3 CFG=2
M  V30 3 1 3 4
M  V30 4 1 4 5
M  V30 5 1 5 6
M  V30 6 1 6 7
M  V30 7 1 7 8
M  V30 8 1 3 9
M  V30 9 1 8 6
M  V30 10 1 1 10
M  V30 11 1 1 11
M  V30 12 1 5 12
M  V30 13 1 5 13
M  V30 14 1 6 14
M  V30 15 1 7 15
M  V30 16 1 7 16
M  V30 17 1 8 17
M  V30 18 1 8 18
M  V30 19 1 9 19
M  V30 20 1 9 20
M  V30 END BOND
M  V30 END CTAB
M  END
