
     RDKit          3D

  0  0  0  0  0  0  0  0  0  0999 V3000
M  V30 BEGIN CTAB
M  V30 COUNTS 29 30 0 0 0
M  V30 BEGIN ATOM
M  V30 1 C 4.29016 -0.164941 0.293485 0
M  V30 2 N 3.39174 0.169155 -0.775372 0
M  V30 3 C 2.12544 -0.569164 -0.772119 0
M  V30 4 C 1.60421 0.483426 0.187566 0
M  V30 5 C 2.58804 1.37282 -0.52768 0
M  V30 6 N 0.229486 0.821095 0.0493705 0
M  V30 7 C -0.860182 -0.0536033 0.184302 0
M  V30 8 N -0.650834 -1.3507 0.471856 0
M  V30 9 C -1.64694 -2.23277 0.612862 0
M  V30 10 C -2.9506 -1.84867 0.468225 0
M  V30 11 C -3.23226 -0.533303 0.173297 0
M  V30 12 C -2.16725 0.35005 0.0353174 0
M  V30 13 N -2.42334 1.69677 -0.265098 0
M  V30 14 N -4.58578 -0.125486 0.0212099 0
M  V30 15 H 5.04158 0.648404 0.376714 0
M  V30 16 H 3.82487 -0.277818 1.27254 0
M  V30 17 H 4.79224 -1.10418 0.0374824 0
M  V30 18 H 1.60473 -0.45416 -1.74381 0
M  V30 19 H 2.17041 -1.57486 -0.35453 0
M  V30 20 H 1.88563 0.354581 1.23623 0
M  V30 21 H 2.2163 1.74034 -1.51478 0
M  V30 22 H 3.10283 2.12675 0.0902119 0
M  V30 23 H 0.0103479 1.83722 -0.178605 0
M  V30 24 H -1.41989 -3.25166 0.841732 0
M  V30 25 H -3.74945 -2.56196 0.582564 0
M  V30 26 H -2.49447 2.0232 -1.25637 0
M  V30 27 H -2.55584 2.44078 0.480207 0
M  V30 28 H -4.83602 0.872355 0.158025 0
M  V30 29 H -5.30515 -0.833658 -0.224992 0
M  V30 END ATOM
M  V30 BEGIN BOND
M  V30 1 1 1 2
M  V30 2 1 2 3
M  V30 3 1 3 4
M  V30 4 1 4 5
M  V30 5 1 4 6
M  V30 6 1 6 7
M  V30 7 2 7 8
M  V30 8 1 8 9
M  V30 9 2 9 10
M  V30 10 1 10 11
M  V30 11 2 11 12
M  V30 12 1 12 13
M  V30 13 1 11 14
M  V30 14 1 5 2
M  V30 15 1 12 7
M  V30 16 1 1 15
M  V30 17 1 1 16
M  V30 18 1 1 17
M  V30 19 1 3 18
M  V30 20 1 3 19
M  V30 21 1 4 20
M  V30 22 1 5 21
M  V30 23 1 5 22
M  V30 24 1 6 23
M  V30 25 1 9 24
M  V30 26 1 10 25
M  V30 27 1 13 26
M  V30 28 1 13 27
M  V30 29 1 14 28
M  V30 30 1 14 29
M  V30 END BOND
M  V30 END CTAB
M  END
