
     RDKit          3D

  0  0  0  0  0  0  0  0  0  0999 V3000
M  V30 BEGIN CTAB
M  V30 COUNTS 64 64 0 0 0
M  V30 BEGIN ATOM
M  V30 1 C 8.72632 1.93701 -1.10089 0
M  V30 2 C 7.46853 1.59495 -0.315378 0
M  V30 3 C 6.47428 1.03334 -1.26655 0
M  V30 4 C 5.14095 0.652959 -0.616903 0
M  V30 5 C 5.29903 -0.374301 0.42643 0
M  V30 6 C 4.14516 -0.858837 1.19442 0
M  V30 7 C 3.02465 -1.59194 0.587248 0
M  V30 8 C 2.20574 -0.977374 -0.456222 0
M  V30 9 C 1.03537 -1.82603 -0.910524 0
M  V30 10 C 0.0710974 -2.15263 0.180345 0
M  V30 11 C -0.539581 -0.904839 0.801332 0
M  V30 12 C -1.50644 -1.23921 1.90337 0
M  V30 13 C -2.66359 -2.07575 1.46882 0
M  V30 14 C -3.48527 -1.37095 0.391695 0
M  V30 15 O -3.95635 -0.209137 0.897103 0
M  V30 16 N -4.67554 0.605203 0.137891 0
M  V30 17 C -4.05692 1.89597 -0.100809 0
M  V30 18 N -2.76049 2.20304 0.384361 0
M  V30 19 N -4.6915 2.78224 -0.762206 0
M  V30 20 C -5.98635 2.59682 -1.30247 0
M  V30 21 N -6.54596 3.69538 -2.0016 0
M  V30 22 N -6.54966 1.4873 -1.13111 0
M  V30 23 C -5.96665 0.382669 -0.426504 0
M  V30 24 C -6.98473 -0.0524418 0.618097 0
M  V30 25 C -5.88085 -0.750352 -1.46347 0
M  V30 26 H 8.46937 2.11078 -2.16215 0
M  V30 27 H 9.47861 1.13863 -1.06798 0
M  V30 28 H 9.18412 2.85111 -0.680415 0
M  V30 29 H 7.75439 0.921448 0.493542 0
M  V30 30 H 7.08574 2.55291 0.0922677 0
M  V30 31 H 6.23689 1.78914 -2.0378 0
M  V30 32 H 6.85612 0.129655 -1.78867 0
M  V30 33 H 4.69298 1.61081 -0.220769 0
M  V30 34 H 4.50305 0.38508 -1.46811 0
M  V30 35 H 5.79145 -1.29448 -0.047953 0
M  V30 36 H 6.1456 -0.0404866 1.12539 0
M  V30 37 H 4.58771 -1.58939 1.97939 0
M  V30 38 H 3.74742 -0.0366579 1.89479 0
M  V30 39 H 2.33711 -1.88185 1.46556 0
M  V30 40 H 3.43105 -2.60714 0.295812 0
M  V30 41 H 2.83101 -0.914644 -1.40043 0
M  V30 42 H 1.89997 0.0452343 -0.220751 0
M  V30 43 H 0.493953 -1.24701 -1.68602 0
M  V30 44 H 1.37959 -2.76094 -1.37367 0
M  V30 45 H -0.784349 -2.68001 -0.321165 0
M  V30 46 H 0.445677 -2.8489 0.943203 0
M  V30 47 H 0.296707 -0.333728 1.27341 0
M  V30 48 H -1.01508 -0.265164 0.0614575 0
M  V30 49 H -0.956951 -1.77831 2.70778 0
M  V30 50 H -1.89428 -0.280117 2.31505 0
M  V30 51 H -2.27626 -3.00582 1.00869 0
M  V30 52 H -3.30563 -2.38456 2.29915 0
M  V30 53 H -4.33245 -2.05826 0.165873 0
M  V30 54 H -2.85836 -1.31118 -0.500093 0
M  V30 55 H -2.47985 2.04916 1.38047 0
M  V30 56 H -2.08403 2.59845 -0.313588 0
M  V30 57 H -6.94864 4.48137 -1.47767 0
M  V30 58 H -6.54343 3.69487 -3.02855 0
M  V30 59 H -6.92802 -1.14969 0.812713 0
M  V30 60 H -6.89743 0.561203 1.51797 0
M  V30 61 H -7.99806 0.118139 0.188713 0
M  V30 62 H -6.31443 -1.69307 -1.07689 0
M  V30 63 H -4.84723 -0.860809 -1.83775 0
M  V30 64 H -6.52527 -0.498862 -2.35419 0
M  V30 END ATOM
M  V30 BEGIN BOND
M  V30 1 1 1 2
M  V30 2 1 2 3
M  V30 3 1 3 4
M  V30 4 1 4 5
M  V30 5 1 5 6
M  V30 6 1 6 7
M  V30 7 1 7 8
M  V30 8 1 8 9
M  V30 9 1 9 10
M  V30 10 1 10 11
M  V30 11 1 11 12
M  V30 12 1 12 13
M  V30 13 1 13 14
M  V30 14 1 14 15
M  V30 15 1 15 16
M  V30 16 1 16 17
M  V30 17 1 17 18
M  V30 18 2 17 19
M  V30 19 1 19 20
M  V30 20 1 20 21
M  V30 21 2 20 22
M  V30 22 1 22 23
M  V30 23 1 23 24
M  V30 24 1 23 25
M  V30 25 1 23 16
M  V30 26 1 1 26
M  V30 27 1 1 27
M  V30 28 1 1 28
M  V30 29 1 2 29
M  V30 30 1 2 30
M  V30 31 1 3 31
M  V30 32 1 3 32
M  V30 33 1 4 33
M  V30 34 1 4 34
M  V30 35 1 5 35
M  V30 36 1 5 36
M  V30 37 1 6 37
M  V30 38 1 6 38
M  V30 39 1 7 39
M  V30 40 1 7 40
M  V30 41 1 8 41
M  V30 42 1 8 42
M  V30 43 1 9 43
M  V30 44 1 9 44
M  V30 45 1 10 45
M  V30 46 1 10 46
M  V30 47 1 11 47
M  V30 48 1 11 48
M  V30 49 1 12 49
M  V30 50 1 12 50
M  V30 51 1 13 51
M  V30 52 1 13 52
M  V30 53 1 14 53
M  V30 54 1 14 54
M  V30 55 1 18 55
M  V30 56 1 18 56
M  V30 57 1 21 57
M  V30 58 1 21 58
M  V30 59 1 24 59
M  V30 60 1 24 60
M  V30 61 1 24 61
M  V30 62 1 25 62
M  V30 63 1 25 63
M  V30 64 1 25 64
M  V30 END BOND
M  V30 END CTAB
M  END
