
     RDKit          3D

  0  0  0  0  0  0  0  0  0  0999 V3000
M  V30 BEGIN CTAB
M  V30 COUNTS 50 51 0 0 0
M  V30 BEGIN ATOM
M  V30 1 N -6.51491 -1.74672 -0.33403 0
M  V30 2 C -5.72149 -0.77591 -1.03697 0
M  V30 3 C -4.9956 0.0979059 -0.00759801 0
M  V30 4 C -6.06356 0.766634 0.829816 0
M  V30 5 C -4.10082 -0.785982 0.817888 0
M  V30 6 C -2.75622 -0.51326 0.2129 0
M  V30 7 N -2.76187 0.786814 -0.383455 0
M  V30 8 C -4.11852 1.0585 -0.730233 0
M  V30 9 C -2.1422 1.76276 0.44862 0
M  V30 10 C -0.677244 1.57132 0.528111 0
M  V30 11 O -0.00478676 2.37301 1.28003 0
M  V30 12 N 0.0639746 0.583361 -0.151699 0
M  V30 13 C 1.51372 0.528472 0.0385891 0
M  V30 14 C 2.05508 -0.61116 -0.793489 0
M  V30 15 C 3.52369 -0.640631 -0.583291 0
M  V30 16 C 4.28445 0.121976 -1.46425 0
M  V30 17 C 5.65839 0.157766 -1.3455 0
M  V30 18 C 6.30062 -0.55692 -0.357733 0
M  V30 19 C 5.51909 -1.30975 0.508086 0
M  V30 20 C 4.14179 -1.36174 0.409418 0
M  V30 21 S 8.05598 -0.506202 -0.213081 0
M  V30 22 O 8.5496 -1.83172 0.287766 0
M  V30 23 O 8.58634 -0.221167 -1.58831 0
M  V30 24 N 8.49897 0.784393 0.81926 0
M  V30 25 H -6.3875 -1.68534 0.692941 0
M  V30 26 H -6.47707 -2.69398 -0.72579 0
M  V30 27 H -4.98237 -1.31391 -1.67836 0
M  V30 28 H -6.35204 -0.108524 -1.6845 0
M  V30 29 H -6.23774 0.114683 1.72147 0
M  V30 30 H -7.01208 0.821396 0.255996 0
M  V30 31 H -5.80694 1.79229 1.12921 0
M  V30 32 H -4.15624 -0.562994 1.90231 0
M  V30 33 H -4.35636 -1.86381 0.690668 0
M  V30 34 H -2.57783 -1.25107 -0.623296 0
M  V30 35 H -1.93546 -0.620334 0.955878 0
M  V30 36 H -4.39805 2.13085 -0.510211 0
M  V30 37 H -4.19048 0.907508 -1.8506 0
M  V30 38 H -2.29692 2.80889 0.0858586 0
M  V30 39 H -2.523 1.66304 1.50404 0
M  V30 40 H -0.401949 -0.0981715 -0.791407 0
M  V30 41 H 1.74191 0.410957 1.11007 0
M  V30 42 H 1.90048 1.50975 -0.308322 0
M  V30 43 H 1.64555 -1.54882 -0.373969 0
M  V30 44 H 1.77364 -0.460997 -1.83957 0
M  V30 45 H 3.80449 0.695829 -2.25333 0
M  V30 46 H 6.28088 0.747595 -2.0236 0
M  V30 47 H 6.02358 -1.86422 1.27603 0
M  V30 48 H 3.53168 -1.95071 1.08603 0
M  V30 49 H 7.66038 1.09899 1.34735 0
M  V30 50 H 8.83494 1.58935 0.271897 0
M  V30 END ATOM
M  V30 BEGIN BOND
M  V30 1 1 1 2
M  V30 2 1 2 3
M  V30 3 1 3 4
M  V30 4 1 3 5
M  V30 5 1 5 6
M  V30 6 1 6 7
M  V30 7 1 7 8
M  V30 8 1 7 9
M  V30 9 1 9 10
M  V30 10 2 10 11
M  V30 11 1 10 12
M  V30 12 1 12 13
M  V30 13 1 13 14
M  V30 14 1 14 15
M  V30 15 2 15 16
M  V30 16 1 16 17
M  V30 17 2 17 18
M  V30 18 1 18 19
M  V30 19 2 19 20
M  V30 20 1 18 21
M  V30 21 2 21 22
M  V30 22 2 21 23
M  V30 23 1 21 24
M  V30 24 1 8 3
M  V30 25 1 20 15
M  V30 26 1 1 25
M  V30 27 1 1 26
M  V30 28 1 2 27
M  V30 29 1 2 28
M  V30 30 1 4 29
M  V30 31 1 4 30
M  V30 32 1 4 31
M  V30 33 1 5 32
M  V30 34 1 5 33
M  V30 35 1 6 34
M  V30 36 1 6 35
M  V30 37 1 8 36
M  V30 38 1 8 37
M  V30 39 1 9 38
M  V30 40 1 9 39
M  V30 41 1 12 40
M  V30 42 1 13 41
M  V30 43 1 13 42
M  V30 44 1 14 43
M  V30 45 1 14 44
M  V30 46 1 16 45
M  V30 47 1 17 46
M  V30 48 1 19 47
M  V30 49 1 20 48
M  V30 50 1 24 49
M  V30 51 1 24 50
M  V30 END BOND
M  V30 END CTAB
M  END
