
     RDKit          3D

  0  0  0  0  0  0  0  0  0  0999 V3000
M  V30 BEGIN CTAB
M  V30 COUNTS 14 14 0 0 0
M  V30 BEGIN ATOM
M  V30 1 N -1.71417 -1.2755 -0.166282 0
M  V30 2 C -0.416231 -0.697122 -0.115121 0
M  V30 3 N 0.710135 -1.406 -0.307267 0
M  V30 4 C 1.9281 -0.80215 -0.247347 0
M  V30 5 C 2.05488 0.544298 0.00962489 0
M  V30 6 Br 3.79243 1.33207 0.0806943 0
M  V30 7 N 0.927983 1.25231 0.201627 0
M  V30 8 C -0.29528 0.650445 0.142348 0
M  V30 9 N -1.48933 1.40804 0.347266 0
M  V30 10 H -2.33456 -1.01668 -0.942611 0
M  V30 11 H -2.07892 -1.95002 0.538547 0
M  V30 12 H 2.79419 -1.41491 -0.408322 0
M  V30 13 H -1.82069 2.12655 -0.335206 0
M  V30 14 H -2.05853 1.24869 1.20205 0
M  V30 END ATOM
M  V30 BEGIN BOND
M  V30 1 1 1 2
M  V30 2 2 2 3
M  V30 3 1 3 4
M  V30 4 2 4 5
M  V30 5 1 5 6
M  V30 6 1 5 7
M  V30 7 2 7 8
M  V30 8 1 8 9
M  V30 9 1 8 2
M  V30 10 1 1 10
M  V30 11 1 1 11
M  V30 12 1 4 12
M  V30 13 1 9 13
M  V30 14 1 9 14
M  V30 END BOND
M  V30 END CTAB
M  END
