
     RDKit          3D

  0  0  0  0  0  0  0  0  0  0999 V3000
M  V30 BEGIN CTAB
M  V30 COUNTS 24 24 0 0 0
M  V30 BEGIN ATOM
M  V30 1 N 0.268202 -3.42826 -0.0515158 0
M  V30 2 C 0.640747 -2.33769 -0.133858 0
M  V30 3 C 1.08663 -0.956211 -0.241899 0
M  V30 4 C 2.39044 -0.687939 0.147049 0
M  V30 5 N 3.24728 -1.71436 0.627481 0
M  V30 6 C 2.84794 0.630461 0.0547128 0
M  V30 7 C 1.98246 1.59097 -0.416267 0
M  V30 8 N 0.710458 1.29082 -0.788532 0
M  V30 9 C 0.248158 0.0210626 -0.706913 0
M  V30 10 S -1.42412 -0.331918 -1.20421 0
M  V30 11 C -2.49272 -0.14861 0.27082 0
M  V30 12 C -3.88998 -0.439447 -0.124391 0
M  V30 13 C -4.8431 0.464045 0.00579359 0
M  V30 14 Br -4.34775 -2.14167 -0.836984 0
M  V30 15 N 2.40153 2.94011 -0.52733 0
M  V30 16 H 3.14817 -2.71161 0.341893 0
M  V30 17 H 4.0178 -1.49216 1.29555 0
M  V30 18 H 3.861 0.856182 0.353689 0
M  V30 19 H -2.39312 0.888924 0.648485 0
M  V30 20 H -2.11808 -0.898239 1.02012 0
M  V30 21 H -4.59644 1.44126 0.411465 0
M  V30 22 H -5.86878 0.269298 -0.277469 0
M  V30 23 H 2.3012 3.4881 -1.40961 0
M  V30 24 H 2.82208 3.40687 0.28697 0
M  V30 END ATOM
M  V30 BEGIN BOND
M  V30 1 3 1 2
M  V30 2 1 2 3
M  V30 3 2 3 4
M  V30 4 1 4 5
M  V30 5 1 4 6
M  V30 6 2 6 7
M  V30 7 1 7 8
M  V30 8 2 8 9
M  V30 9 1 9 10
M  V30 10 1 10 11
M  V30 11 1 11 12
M  V30 12 2 12 13 CFG=2
M  V30 13 1 12 14
M  V30 14 1 7 15
M  V30 15 1 9 3
M  V30 16 1 5 16
M  V30 17 1 5 17
M  V30 18 1 6 18
M  V30 19 1 11 19
M  V30 20 1 11 20
M  V30 21 1 13 21
M  V30 22 1 13 22
M  V30 23 1 15 23
M  V30 24 1 15 24
M  V30 END BOND
M  V30 END CTAB
M  END
