
     RDKit          3D

  0  0  0  0  0  0  0  0  0  0999 V3000
M  V30 BEGIN CTAB
M  V30 COUNTS 17 17 0 0 0
M  V30 BEGIN ATOM
M  V30 1 Cl 3.24948 1.20534 -0.0558884 0
M  V30 2 C 1.53606 0.874796 -0.02297 0
M  V30 3 C 0.585617 1.87048 0.00261931 0
M  V30 4 C -0.766273 1.60133 0.0285399 0
M  V30 5 C -1.16887 0.275898 0.0285147 0
M  V30 6 C -0.209352 -0.713043 0.00278307 0
M  V30 7 C 1.14487 -0.467623 -0.0233309 0
M  V30 8 N 2.10952 -1.50954 -0.0494877 0
M  V30 9 O -0.601491 -2.06478 0.00238275 0
M  V30 10 N -2.55087 -0.0401642 0.0547599 0
M  V30 11 H 0.900891 2.90967 0.00263667 0
M  V30 12 H -1.45192 2.43578 0.0477295 0
M  V30 13 H 2.19396 -2.23468 0.67921 0
M  V30 14 H 2.7597 -1.52977 -0.853555 0
M  V30 15 H -1.5858 -2.30238 0.0209891 0
M  V30 16 H -3.21221 0.536172 0.606963 0
M  V30 17 H -2.93332 -0.847507 -0.471896 0
M  V30 END ATOM
M  V30 BEGIN BOND
M  V30 1 1 1 2
M  V30 2 2 2 3
M  V30 3 1 3 4
M  V30 4 2 4 5
M  V30 5 1 5 6
M  V30 6 2 6 7
M  V30 7 1 7 8
M  V30 8 1 6 9
M  V30 9 1 5 10
M  V30 10 1 7 2
M  V30 11 1 3 11
M  V30 12 1 4 12
M  V30 13 1 8 13
M  V30 14 1 8 14
M  V30 15 1 9 15
M  V30 16 1 10 16
M  V30 17 1 10 17
M  V30 END BOND
M  V30 END CTAB
M  END
