
     RDKit          3D

  0  0  0  0  0  0  0  0  0  0999 V3000
M  V30 BEGIN CTAB
M  V30 COUNTS 34 35 0 0 0
M  V30 BEGIN ATOM
M  V30 1 C -5.73977 -0.846878 0.558815 0
M  V30 2 O -4.86493 -0.180164 -0.298505 0
M  V30 3 C -3.49697 -0.154851 -0.196285 0
M  V30 4 C -2.81258 -0.81134 0.804499 0
M  V30 5 C -1.4149 -0.750763 0.859793 0
M  V30 6 C -0.704743 -0.0379697 -0.0798797 0
M  V30 7 C -1.39598 0.6123 -1.07251 0
M  V30 8 C -2.7907 0.562029 -1.14221 0
M  V30 9 N -3.48807 1.24281 -2.17862 0
M  V30 10 C 0.749207 0.0157545 -0.00911766 0
M  V30 11 C 1.46983 0.127708 -1.1848 0
M  V30 12 C 2.86961 0.180854 -1.13884 0
M  V30 13 C 3.52813 0.122181 0.0685355 0
M  V30 14 O 4.90242 0.174967 0.104102 0
M  V30 15 C 5.73863 0.28612 -1.00386 0
M  V30 16 C 2.79332 0.0111023 1.22394 0
M  V30 17 N 3.49999 -0.0465901 2.44709 0
M  V30 18 C 1.40136 -0.043656 1.2054 0
M  V30 19 H -6.69495 -0.260005 0.696231 0
M  V30 20 H -5.34553 -0.973972 1.59477 0
M  V30 21 H -6.0376 -1.79997 0.111073 0
M  V30 22 H -3.34555 -1.38051 1.55805 0
M  V30 23 H -0.93639 -1.29003 1.67347 0
M  V30 24 H -0.883167 1.18051 -1.82696 0
M  V30 25 H -3.5748 2.27708 -2.2113 0
M  V30 26 H -3.92276 0.660949 -2.92636 0
M  V30 27 H 0.9507 0.172695 -2.11887 0
M  V30 28 H 3.35353 0.268269 -2.09641 0
M  V30 29 H 6.76328 -0.102566 -0.824527 0
M  V30 30 H 5.29483 -0.284663 -1.84618 0
M  V30 31 H 5.74791 1.36602 -1.32601 0
M  V30 32 H 4.2527 -0.750525 2.54959 0
M  V30 33 H 3.29481 0.585164 3.2409 0
M  V30 34 H 0.83911 -0.132062 2.13749 0
M  V30 END ATOM
M  V30 BEGIN BOND
M  V30 1 1 1 2
M  V30 2 1 2 3
M  V30 3 2 3 4
M  V30 4 1 4 5
M  V30 5 2 5 6
M  V30 6 1 6 7
M  V30 7 2 7 8
M  V30 8 1 8 9
M  V30 9 1 6 10
M  V30 10 2 10 11
M  V30 11 1 11 12
M  V30 12 2 12 13
M  V30 13 1 13 14
M  V30 14 1 14 15
M  V30 15 1 13 16
M  V30 16 1 16 17
M  V30 17 2 16 18
M  V30 18 1 8 3
M  V30 19 1 18 10
M  V30 20 1 1 19
M  V30 21 1 1 20
M  V30 22 1 1 21
M  V30 23 1 4 22
M  V30 24 1 5 23
M  V30 25 1 7 24
M  V30 26 1 9 25
M  V30 27 1 9 26
M  V30 28 1 11 27
M  V30 29 1 12 28
M  V30 30 1 15 29
M  V30 31 1 15 30
M  V30 32 1 15 31
M  V30 33 1 17 32
M  V30 34 1 17 33
M  V30 35 1 18 34
M  V30 END BOND
M  V30 END CTAB
M  END
