
     RDKit          3D

  0  0  0  0  0  0  0  0  0  0999 V3000
M  V30 BEGIN CTAB
M  V30 COUNTS 35 37 0 0 0
M  V30 BEGIN ATOM
M  V30 1 C -6.24916 0.01648 0.048802 0
M  V30 2 C -4.87871 0.611607 0.0288189 0
M  V30 3 O -3.86749 -0.37226 0.0930938 0
M  V30 4 C -2.5328 0.0528449 0.0822191 0
M  V30 5 C -1.49608 -0.870397 0.143377 0
M  V30 6 C -0.201916 -0.396608 0.129411 0
M  V30 7 C 0.0926823 0.947103 0.057604 0
M  V30 8 C -0.945545 1.87156 -0.00363548 0
M  V30 9 C -2.22294 1.39818 0.0104657 0
M  V30 10 N 1.34561 1.44302 0.0420117 0 CHG=1
M  V30 11 O 1.58885 2.79537 -0.0307677 0 CHG=-1
M  V30 12 C 2.36003 0.560784 0.100675 0
M  V30 13 C 3.66044 1.03569 0.0867057 0
M  V30 14 C 4.6995 0.149945 0.145801 0
M  V30 15 N 6.02724 0.646632 0.130882 0
M  V30 16 C 4.45716 -1.20006 0.218454 0
M  V30 17 C 3.16317 -1.71132 0.234503 0
M  V30 18 C 2.12437 -0.799639 0.173971 0
M  V30 19 C 0.84618 -1.31111 0.190185 0
M  V30 20 N 0.601639 -2.71154 0.265616 0
M  V30 21 H -6.24678 -0.874008 -0.631677 0
M  V30 22 H -6.51183 -0.283214 1.08128 0
M  V30 23 H -6.97688 0.733676 -0.35474 0
M  V30 24 H -4.75451 1.31409 0.88805 0
M  V30 25 H -4.70202 1.17336 -0.933833 0
M  V30 26 H -1.69679 -1.91236 0.199333 0
M  V30 27 H -0.706261 2.94061 -0.0607105 0
M  V30 28 H -3.02625 2.14506 -0.0386781 0
M  V30 29 H 3.79446 2.11364 0.0281208 0
M  V30 30 H 6.57668 0.637849 1.02 0
M  V30 31 H 6.42572 1.01179 -0.776284 0
M  V30 32 H 5.27961 -1.90603 0.265505 0
M  V30 33 H 2.95095 -2.75496 0.290432 0
M  V30 34 H 0.35561 -3.29446 -0.562288 0
M  V30 35 H 0.666054 -3.20135 1.18529 0
M  V30 END ATOM
M  V30 BEGIN BOND
M  V30 1 1 1 2
M  V30 2 1 2 3
M  V30 3 1 3 4
M  V30 4 2 4 5
M  V30 5 1 5 6
M  V30 6 2 6 7
M  V30 7 1 7 8
M  V30 8 2 8 9
M  V30 9 1 7 10
M  V30 10 1 10 11
M  V30 11 2 10 12
M  V30 12 1 12 13
M  V30 13 2 13 14
M  V30 14 1 14 15
M  V30 15 1 14 16
M  V30 16 2 16 17
M  V30 17 1 17 18
M  V30 18 2 18 19
M  V30 19 1 19 20
M  V30 20 1 9 4
M  V30 21 1 18 12
M  V30 22 1 19 6
M  V30 23 1 1 21
M  V30 24 1 1 22
M  V30 25 1 1 23
M  V30 26 1 2 24
M  V30 27 1 2 25
M  V30 28 1 5 26
M  V30 29 1 8 27
M  V30 30 1 9 28
M  V30 31 1 13 29
M  V30 32 1 15 30
M  V30 33 1 15 31
M  V30 34 1 16 32
M  V30 35 1 17 33
M  V30 36 1 20 34
M  V30 37 1 20 35
M  V30 END BOND
M  V30 END CTAB
M  END
