
     RDKit          3D

  0  0  0  0  0  0  0  0  0  0999 V3000
M  V30 BEGIN CTAB
M  V30 COUNTS 17 16 0 0 0
M  V30 BEGIN ATOM
M  V30 1 C 2.64909 -1.03834 -0.742394 0
M  V30 2 O 1.29127 -0.716628 -0.407188 0
M  V30 3 C 0.938628 0.565609 -0.0593754 0
M  V30 4 O 1.8249 1.45199 -0.0396776 0
M  V30 5 C -0.44871 0.937856 0.292587 0
M  V30 6 C -1.3927 0.0158928 0.276385 0
M  V30 7 N -2.70372 0.40656 0.617447 0
M  V30 8 N -1.09721 -1.32822 -0.0737713 0
M  V30 9 C -0.759284 2.29255 0.647994 0
M  V30 10 N -1.00588 3.39394 0.918093 0
M  V30 11 H 2.92117 -2.01843 -0.280763 0
M  V30 12 H 2.76729 -1.07655 -1.86052 0
M  V30 13 H 3.35024 -0.256667 -0.39202 0
M  V30 14 H -2.88245 0.94074 1.48475 0
M  V30 15 H -3.48488 0.152125 -0.0108582 0
M  V30 16 H -0.902243 -1.64666 -1.043 0
M  V30 17 H -1.06551 -2.07578 0.672306 0
M  V30 END ATOM
M  V30 BEGIN BOND
M  V30 1 1 1 2
M  V30 2 1 2 3
M  V30 3 2 3 4
M  V30 4 1 3 5
M  V30 5 2 5 6 CFG=2
M  V30 6 1 6 7
M  V30 7 1 6 8
M  V30 8 1 5 9
M  V30 9 3 9 10
M  V30 10 1 1 11
M  V30 11 1 1 12
M  V30 12 1 1 13
M  V30 13 1 7 14
M  V30 14 1 7 15
M  V30 15 1 8 16
M  V30 16 1 8 17
M  V30 END BOND
M  V30 END CTAB
M  END
