
     RDKit          3D

  0  0  0  0  0  0  0  0  0  0999 V3000
M  V30 BEGIN CTAB
M  V30 COUNTS 22 23 0 0 0
M  V30 BEGIN ATOM
M  V30 1 C 3.00503 0.918763 -0.972223 0
M  V30 2 N 1.74784 0.501285 -0.365219 0
M  V30 3 N 0.519691 0.711456 -0.829705 0
M  V30 4 C -0.376584 0.163846 -0.00670058 0
M  V30 5 N 0.316606 -0.396831 0.988261 0
M  V30 6 C 1.64927 -0.203108 0.792627 0
M  V30 7 N 2.74055 -0.63278 1.58746 0
M  V30 8 C -1.87957 0.142345 -0.15001 0
M  V30 9 N -2.5285 1.28345 -0.678395 0
M  V30 10 C -2.40454 -1.26025 -0.500153 0
M  V30 11 C -2.64469 -0.677995 0.879723 0
M  V30 12 H 3.00197 0.830436 -2.09086 0
M  V30 13 H 3.25094 1.95621 -0.711029 0
M  V30 14 H 3.83691 0.251385 -0.614101 0
M  V30 15 H 3.13667 -1.57614 1.46307 0
M  V30 16 H 3.13645 -0.00246782 2.31462 0
M  V30 17 H -2.40169 1.48677 -1.69836 0
M  V30 18 H -3.53001 1.36575 -0.396748 0
M  V30 19 H -1.63225 -2.05982 -0.620803 0
M  V30 20 H -3.23121 -1.31573 -1.22169 0
M  V30 21 H -3.69754 -0.39579 1.13432 0
M  V30 22 H -2.01534 -1.09079 1.69592 0
M  V30 END ATOM
M  V30 BEGIN BOND
M  V30 1 1 1 2
M  V30 2 1 2 3
M  V30 3 2 3 4
M  V30 4 1 4 5
M  V30 5 2 5 6
M  V30 6 1 6 7
M  V30 7 1 4 8
M  V30 8 1 8 9
M  V30 9 1 8 10
M  V30 10 1 10 11
M  V30 11 1 6 2
M  V30 12 1 11 8
M  V30 13 1 1 12
M  V30 14 1 1 13
M  V30 15 1 1 14
M  V30 16 1 7 15
M  V30 17 1 7 16
M  V30 18 1 9 17
M  V30 19 1 9 18
M  V30 20 1 10 19
M  V30 21 1 10 20
M  V30 22 1 11 21
M  V30 23 1 11 22
M  V30 END BOND
M  V30 END CTAB
M  END
