
     RDKit          3D

  0  0  0  0  0  0  0  0  0  0999 V3000
M  V30 BEGIN CTAB
M  V30 COUNTS 34 35 0 0 0
M  V30 BEGIN ATOM
M  V30 1 N -4.24858 0.2215 -0.459263 0
M  V30 2 C -2.94093 -0.259166 -0.807268 0 CFG=1
M  V30 3 C -1.96291 0.85267 -0.426661 0
M  V30 4 C -1.88882 0.650869 1.08092 0
M  V30 5 N -1.96634 -0.781903 1.2881 0
M  V30 6 C -2.46758 -1.37604 0.0931435 0
M  V30 7 S -0.442438 -1.33384 1.77533 0
M  V30 8 O -0.549492 -2.82733 2.04106 0
M  V30 9 O -0.0621843 -0.661036 3.06902 0
M  V30 10 C 0.841075 -1.09879 0.650889 0
M  V30 11 C 1.17193 -2.0089 -0.339316 0
M  V30 12 C 2.21533 -1.75431 -1.20294 0
M  V30 13 C 2.97248 -0.604753 -1.13209 0
M  V30 14 C 2.65268 0.307013 -0.151742 0
M  V30 15 C 1.59447 0.047457 0.723192 0
M  V30 16 S 3.60185 1.77284 -0.0450463 0
M  V30 17 O 5.03825 1.55459 -0.344578 0
M  V30 18 O 3.47671 2.25809 1.39166 0
M  V30 19 N 2.90075 3.01288 -1.0304 0
M  V30 20 H -4.96169 -0.467917 -0.343264 0
M  V30 21 H -4.26615 0.92919 0.25881 0
M  V30 22 H -2.85199 -0.5042 -1.88164 0
M  V30 23 H -2.40322 1.83651 -0.652506 0
M  V30 24 H -1.00057 0.733743 -0.920801 0
M  V30 25 H -2.71881 1.18955 1.58062 0
M  V30 26 H -0.959049 1.1052 1.43416 0
M  V30 27 H -1.70928 -2.00296 -0.431619 0
M  V30 28 H -3.34606 -2.00667 0.345881 0
M  V30 29 H 0.564565 -2.90513 -0.37741 0
M  V30 30 H 2.45406 -2.48258 -1.96917 0
M  V30 31 H 3.79474 -0.408444 -1.81582 0
M  V30 32 H 1.4144 0.816097 1.4618 0
M  V30 33 H 2.3831 2.55191 -1.7955 0
M  V30 34 H 3.66969 3.64384 -1.36982 0
M  V30 END ATOM
M  V30 BEGIN BOND
M  V30 1 1 1 2
M  V30 2 1 2 3
M  V30 3 1 3 4
M  V30 4 1 4 5
M  V30 5 1 5 6
M  V30 6 1 5 7
M  V30 7 2 7 8
M  V30 8 2 7 9
M  V30 9 1 7 10
M  V30 10 2 10 11
M  V30 11 1 11 12
M  V30 12 2 12 13
M  V30 13 1 13 14
M  V30 14 2 14 15
M  V30 15 1 14 16
M  V30 16 2 16 17
M  V30 17 2 16 18
M  V30 18 1 16 19
M  V30 19 1 6 2
M  V30 20 1 15 10
M  V30 21 1 1 20
M  V30 22 1 1 21
M  V30 23 1 2 22 CFG=3
M  V30 24 1 3 23
M  V30 25 1 3 24
M  V30 26 1 4 25
M  V30 27 1 4 26
M  V30 28 1 6 27
M  V30 29 1 6 28
M  V30 30 1 11 29
M  V30 31 1 12 30
M  V30 32 1 13 31
M  V30 33 1 15 32
M  V30 34 1 19 33
M  V30 35 1 19 34
M  V30 END BOND
M  V30 END CTAB
M  END
