
     RDKit          3D

  0  0  0  0  0  0  0  0  0  0999 V3000
M  V30 BEGIN CTAB
M  V30 COUNTS 23 23 0 0 0
M  V30 BEGIN ATOM
M  V30 1 C -1.70071 1.23233 -0.0530497 0
M  V30 2 C -2.03996 -0.0791693 0.531113 0
M  V30 3 C -1.18035 -1.25023 0.302358 0
M  V30 4 C 0.224157 -1.23363 0.754422 0
M  V30 5 C 1.16446 -0.303653 0.13548 0
M  V30 6 O 1.13331 0.517454 -0.842634 0
M  V30 7 N 2.23697 1.1612 -1.04362 0
M  V30 8 C 3.07562 0.727902 -0.115051 0
M  V30 9 N 2.4483 -0.17719 0.631149 0
M  V30 10 N 4.4351 1.1843 0.0323524 0
M  V30 11 N -3.37056 -0.427198 -0.0441502 0
M  V30 12 H -0.956506 1.84266 0.492521 0
M  V30 13 H -1.57586 1.20786 -1.15356 0
M  V30 14 H -2.65646 1.86347 0.0655048 0
M  V30 15 H -2.24582 0.0668217 1.62898 0
M  V30 16 H -1.23084 -1.59679 -0.791297 0
M  V30 17 H -1.67046 -2.15474 0.811165 0
M  V30 18 H 0.29251 -1.06485 1.88316 0
M  V30 19 H 0.678432 -2.2836 0.684082 0
M  V30 20 H 5.16403 0.47819 -0.231989 0
M  V30 21 H 4.65917 2.14753 0.377327 0
M  V30 22 H -3.16271 -0.549623 -1.07149 0
M  V30 23 H -3.72182 -1.30904 0.387995 0
M  V30 END ATOM
M  V30 BEGIN BOND
M  V30 1 1 1 2
M  V30 2 1 2 3
M  V30 3 1 3 4
M  V30 4 1 4 5
M  V30 5 1 5 6
M  V30 6 1 6 7
M  V30 7 2 7 8
M  V30 8 1 8 9
M  V30 9 1 8 10
M  V30 10 1 2 11
M  V30 11 2 9 5
M  V30 12 1 1 12
M  V30 13 1 1 13
M  V30 14 1 1 14
M  V30 15 1 2 15
M  V30 16 1 3 16
M  V30 17 1 3 17
M  V30 18 1 4 18
M  V30 19 1 4 19
M  V30 20 1 10 20
M  V30 21 1 10 21
M  V30 22 1 11 22
M  V30 23 1 11 23
M  V30 END BOND
M  V30 END CTAB
M  END
