
     RDKit          3D

  0  0  0  0  0  0  0  0  0  0999 V3000
M  V30 BEGIN CTAB
M  V30 COUNTS 46 46 0 0 0
M  V30 BEGIN ATOM
M  V30 1 N -1.55709 -2.97286 -2.66412 0
M  V30 2 C -1.45441 -2.28048 -1.37713 0
M  V30 3 C -1.15925 -0.831118 -1.6727 0
M  V30 4 N -1.03119 -0.025925 -0.500101 0
M  V30 5 C -2.17474 0.605942 0.0352728 0
M  V30 6 O -2.11536 1.32298 1.06259 0
M  V30 7 O -3.44035 0.483541 -0.528425 0
M  V30 8 C -4.57453 1.10812 -0.000353516 0
M  V30 9 C -4.48085 2.60335 0.0545038 0
M  V30 10 C -5.77445 0.719352 -0.845852 0
M  V30 11 C -4.83997 0.593607 1.39671 0
M  V30 12 C 0.222006 0.192028 0.19765 0
M  V30 13 O 0.224198 0.923241 1.22326 0
M  V30 14 N 1.40497 -0.391589 -0.249897 0
M  V30 15 C 2.68498 -0.278117 0.299858 0
M  V30 16 C 3.71116 -1.15431 -0.134767 0
M  V30 17 C 4.98127 -1.12954 0.313467 0
M  V30 18 C 5.36663 -0.219537 1.25183 0
M  V30 19 C 4.42829 0.665407 1.72332 0
M  V30 20 C 3.10658 0.627027 1.24534 0
M  V30 21 S 7.00106 -0.146321 1.86634 0
M  V30 22 O 7.59067 -1.52713 1.73168 0
M  V30 23 O 7.05673 0.229468 3.30556 0
M  V30 24 N 7.97378 0.931022 0.899408 0
M  V30 25 H -1.67885 -4.00527 -2.43554 0
M  V30 26 H -2.47515 -2.68282 -3.07764 0
M  V30 27 H -0.586068 -2.70739 -0.858595 0
M  V30 28 H -2.41328 -2.40344 -0.877929 0
M  V30 29 H -2.04497 -0.466574 -2.2745 0
M  V30 30 H -0.294022 -0.692608 -2.31566 0
M  V30 31 H -4.12319 2.9773 1.03439 0
M  V30 32 H -3.93075 3.0461 -0.800507 0
M  V30 33 H -5.53438 2.99264 -0.045888 0
M  V30 34 H -5.63946 0.985398 -1.90481 0
M  V30 35 H -6.69385 1.14393 -0.394868 0
M  V30 36 H -5.87355 -0.383366 -0.76289 0
M  V30 37 H -5.93798 0.571468 1.57027 0
M  V30 38 H -4.32943 1.23022 2.1466 0
M  V30 39 H -4.46529 -0.442808 1.51048 0
M  V30 40 H 1.31819 -0.998055 -1.12247 0
M  V30 41 H 3.44655 -1.89777 -0.883831 0
M  V30 42 H 5.71078 -1.8285 -0.0631327 0
M  V30 43 H 4.70826 1.39936 2.46974 0
M  V30 44 H 2.40202 1.34645 1.63394 0
M  V30 45 H 7.73719 1.8919 1.23495 0
M  V30 46 H 7.54709 0.875667 -0.0730822 0
M  V30 END ATOM
M  V30 BEGIN BOND
M  V30 1 1 1 2
M  V30 2 1 2 3
M  V30 3 1 3 4
M  V30 4 1 4 5
M  V30 5 2 5 6
M  V30 6 1 5 7
M  V30 7 1 7 8
M  V30 8 1 8 9
M  V30 9 1 8 10
M  V30 10 1 8 11
M  V30 11 1 4 12
M  V30 12 2 12 13
M  V30 13 1 12 14
M  V30 14 1 14 15
M  V30 15 2 15 16
M  V30 16 1 16 17
M  V30 17 2 17 18
M  V30 18 1 18 19
M  V30 19 2 19 20
M  V30 20 1 18 21
M  V30 21 2 21 22
M  V30 22 2 21 23
M  V30 23 1 21 24
M  V30 24 1 20 15
M  V30 25 1 1 25
M  V30 26 1 1 26
M  V30 27 1 2 27
M  V30 28 1 2 28
M  V30 29 1 3 29
M  V30 30 1 3 30
M  V30 31 1 9 31
M  V30 32 1 9 32
M  V30 33 1 9 33
M  V30 34 1 10 34
M  V30 35 1 10 35
M  V30 36 1 10 36
M  V30 37 1 11 37
M  V30 38 1 11 38
M  V30 39 1 11 39
M  V30 40 1 14 40
M  V30 41 1 16 41
M  V30 42 1 17 42
M  V30 43 1 19 43
M  V30 44 1 20 44
M  V30 45 1 24 45
M  V30 46 1 24 46
M  V30 END BOND
M  V30 END CTAB
M  END
