
     RDKit          3D

  0  0  0  0  0  0  0  0  0  0999 V3000
M  V30 BEGIN CTAB
M  V30 COUNTS 44 47 0 0 0
M  V30 BEGIN ATOM
M  V30 1 C 6.7816 1.59055 0.152086 0
M  V30 2 O 5.62722 0.794878 0.145115 0
M  V30 3 C 4.35254 1.38475 0.0883399 0
M  V30 4 O 4.32439 2.6321 0.0448537 0
M  V30 5 C 3.21452 0.506285 0.0848837 0
M  V30 6 C 3.20293 -0.866264 0.132373 0
M  V30 7 N 4.32399 -1.73501 0.199393 0
M  V30 8 O 1.97389 -1.27271 0.106483 0
M  V30 9 C 1.13903 -0.284097 0.0445081 0
M  V30 10 C 1.85964 0.855736 0.0284155 0
M  V30 11 C 1.21177 2.05148 -0.0347708 0
M  V30 12 C -0.164351 2.09977 -0.0815315 0
M  V30 13 O -0.949081 3.13285 -0.143996 0
M  V30 14 C -2.15767 2.72883 -0.168846 0
M  V30 15 C -2.24054 1.30632 -0.120804 0
M  V30 16 C -0.920772 0.91806 -0.0647292 0
M  V30 17 C -0.28353 -0.270421 -0.00275837 0
M  V30 18 C -0.90764 -1.56913 0.0159191 0
M  V30 19 C -1.16789 -2.20282 1.1937 0
M  V30 20 C -1.64692 -3.4897 1.19636 0
M  V30 21 C -1.8785 -4.17661 0.0134436 0
M  V30 22 C -1.61917 -3.54456 -1.17437 0
M  V30 23 C -1.12991 -2.23092 -1.17032 0
M  V30 24 Cl -2.49388 -5.83016 0.0776094 0
M  V30 25 C -3.45644 0.568158 -0.130556 0
M  V30 26 O -3.70325 -0.606076 -0.0925406 0
M  V30 27 O -4.66553 1.34742 -0.199914 0
M  V30 28 C -5.9203 0.697669 -0.216039 0
M  V30 29 N -3.30891 3.55365 -0.235396 0
M  V30 30 H 7.12499 1.73888 -0.902494 0
M  V30 31 H 6.55396 2.58952 0.569274 0
M  V30 32 H 7.55883 1.06336 0.737058 0
M  V30 33 H 5.16504 -1.58741 -0.37523 0
M  V30 34 H 4.3143 -2.55211 0.844152 0
M  V30 35 H 1.82215 2.95905 -0.0455908 0
M  V30 36 H -1.00422 -1.71268 2.13233 0
M  V30 37 H -1.86517 -4.02431 2.13405 0
M  V30 38 H -1.80228 -4.08444 -2.09314 0
M  V30 39 H -0.950517 -1.80171 -2.14317 0
M  V30 40 H -6.34264 0.781156 -1.24045 0
M  V30 41 H -5.87753 -0.34712 0.138084 0
M  V30 42 H -6.65813 1.22276 0.448992 0
M  V30 43 H -3.56463 4.17273 0.563125 0
M  V30 44 H -3.87141 3.49232 -1.13064 0
M  V30 END ATOM
M  V30 BEGIN BOND
M  V30 1 1 1 2
M  V30 2 1 2 3
M  V30 3 2 3 4
M  V30 4 1 3 5
M  V30 5 2 5 6
M  V30 6 1 6 7
M  V30 7 1 6 8
M  V30 8 1 8 9
M  V30 9 2 9 10
M  V30 10 1 10 11
M  V30 11 2 11 12
M  V30 12 1 12 13
M  V30 13 1 13 14
M  V30 14 2 14 15
M  V30 15 1 15 16
M  V30 16 2 16 17
M  V30 17 1 17 18
M  V30 18 2 18 19
M  V30 19 1 19 20
M  V30 20 2 20 21
M  V30 21 1 21 22
M  V30 22 2 22 23
M  V30 23 1 21 24
M  V30 24 1 15 25
M  V30 25 2 25 26
M  V30 26 1 25 27
M  V30 27 1 27 28
M  V30 28 1 14 29
M  V30 29 1 10 5
M  V30 30 1 16 12
M  V30 31 1 23 18
M  V30 32 1 17 9
M  V30 33 1 1 30
M  V30 34 1 1 31
M  V30 35 1 1 32
M  V30 36 1 7 33
M  V30 37 1 7 34
M  V30 38 1 11 35
M  V30 39 1 19 36
M  V30 40 1 20 37
M  V30 41 1 22 38
M  V30 42 1 23 39
M  V30 43 1 28 40
M  V30 44 1 28 41
M  V30 45 1 28 42
M  V30 46 1 29 43
M  V30 47 1 29 44
M  V30 END BOND
M  V30 END CTAB
M  END
