
     RDKit          3D

  0  0  0  0  0  0  0  0  0  0999 V3000
M  V30 BEGIN CTAB
M  V30 COUNTS 23 23 0 0 0
M  V30 BEGIN ATOM
M  V30 1 C -3.64121 0.433874 -0.45703 0
M  V30 2 O -2.33554 0.915437 -0.173129 0
M  V30 3 C -1.25296 0.0168254 -0.151623 0
M  V30 4 C -1.47977 -1.32247 -0.407909 0
M  V30 5 C -0.434682 -2.22399 -0.392754 0
M  V30 6 C 0.815421 -1.72 -0.113814 0
M  V30 7 C 1.05169 -0.38823 0.142715 0
M  V30 8 C 0.00546558 0.511138 0.127025 0
M  V30 9 N 0.197619 1.90422 0.386747 0
M  V30 10 S 2.66234 0.128112 0.480377 0
M  V30 11 N 3.25414 1.29515 -0.636206 0
M  V30 12 O 3.58326 -1.05599 0.409086 0
M  V30 13 O 2.78792 0.657968 1.90162 0
M  V30 14 H -3.8477 -0.449712 0.179778 0
M  V30 15 H -4.3699 1.24172 -0.263856 0
M  V30 16 H -3.73673 0.156529 -1.5351 0
M  V30 17 H -2.47041 -1.71874 -0.628475 0
M  V30 18 H -0.597449 -3.28306 -0.592797 0
M  V30 19 H 1.62778 -2.46384 -0.109115 0
M  V30 20 H 0.908153 2.48264 -0.0711274 0
M  V30 21 H -0.422553 2.35041 1.08137 0
M  V30 22 H 3.60156 0.776849 -1.48769 0
M  V30 23 H 4.09355 1.75517 -0.200662 0
M  V30 END ATOM
M  V30 BEGIN BOND
M  V30 1 1 1 2
M  V30 2 1 2 3
M  V30 3 2 3 4
M  V30 4 1 4 5
M  V30 5 2 5 6
M  V30 6 1 6 7
M  V30 7 2 7 8
M  V30 8 1 8 9
M  V30 9 1 7 10
M  V30 10 1 10 11
M  V30 11 2 10 12
M  V30 12 2 10 13
M  V30 13 1 8 3
M  V30 14 1 1 14
M  V30 15 1 1 15
M  V30 16 1 1 16
M  V30 17 1 4 17
M  V30 18 1 5 18
M  V30 19 1 6 19
M  V30 20 1 9 20
M  V30 21 1 9 21
M  V30 22 1 11 22
M  V30 23 1 11 23
M  V30 END BOND
M  V30 END CTAB
M  END
