
     RDKit          3D

  0  0  0  0  0  0  0  0  0  0999 V3000
M  V30 BEGIN CTAB
M  V30 COUNTS 31 31 0 0 0
M  V30 BEGIN ATOM
M  V30 1 C -3.46791 0.973816 -1.06463 0
M  V30 2 C -3.68772 -0.180403 -0.162766 0
M  V30 3 C -2.67424 -0.9755 0.124985 0
M  V30 4 C -1.34585 -0.716577 -0.443519 0
M  V30 5 N -0.348577 -0.491909 0.588877 0
M  V30 6 C 0.997578 -0.224478 0.253915 0
M  V30 7 C 1.36066 -0.178031 -1.07008 0
M  V30 8 C 2.69584 0.0873953 -1.39558 0
M  V30 9 C 3.62773 0.298653 -0.374625 0
M  V30 10 C 3.25962 0.251246 0.952192 0
M  V30 11 C 1.92358 -0.015426 1.22666 0
M  V30 12 N 4.23209 0.470556 1.95924 0
M  V30 13 N 4.97421 0.566231 -0.709808 0
M  V30 14 C -5.03204 -0.4575 0.42344 0
M  V30 15 H -3.09262 0.598751 -2.01804 0
M  V30 16 H -2.67728 1.63107 -0.619549 0
M  V30 17 H -4.40094 1.54024 -1.2623 0
M  V30 18 H -2.80879 -1.81636 0.774699 0
M  V30 19 H -0.980816 -1.54427 -1.08969 0
M  V30 20 H -1.32262 0.188754 -1.09919 0
M  V30 21 H -0.688904 -0.540578 1.58685 0
M  V30 22 H 0.692952 -0.331528 -1.90523 0
M  V30 23 H 3.00653 0.129348 -2.42287 0
M  V30 24 H 1.66026 -0.0473127 2.27382 0
M  V30 25 H 4.99543 1.17907 1.89648 0
M  V30 26 H 4.20253 -0.103034 2.8305 0
M  V30 27 H 5.32992 1.5431 -0.699105 0
M  V30 28 H 5.63417 -0.188127 -0.971077 0
M  V30 29 H -5.77295 0.0465852 -0.195385 0
M  V30 30 H -5.19267 -1.55627 0.405137 0
M  V30 31 H -5.09914 -0.137508 1.47342 0
M  V30 END ATOM
M  V30 BEGIN BOND
M  V30 1 1 1 2
M  V30 2 2 2 3 CFG=2
M  V30 3 1 3 4
M  V30 4 1 4 5
M  V30 5 1 5 6
M  V30 6 2 6 7
M  V30 7 1 7 8
M  V30 8 2 8 9
M  V30 9 1 9 10
M  V30 10 2 10 11
M  V30 11 1 10 12
M  V30 12 1 9 13
M  V30 13 1 2 14
M  V30 14 1 11 6
M  V30 15 1 1 15
M  V30 16 1 1 16
M  V30 17 1 1 17
M  V30 18 1 3 18
M  V30 19 1 4 19
M  V30 20 1 4 20
M  V30 21 1 5 21
M  V30 22 1 7 22
M  V30 23 1 8 23
M  V30 24 1 11 24
M  V30 25 1 12 25
M  V30 26 1 12 26
M  V30 27 1 13 27
M  V30 28 1 13 28
M  V30 29 1 14 29
M  V30 30 1 14 30
M  V30 31 1 14 31
M  V30 END BOND
M  V30 END CTAB
M  END
