
     RDKit          3D

  0  0  0  0  0  0  0  0  0  0999 V3000
M  V30 BEGIN CTAB
M  V30 COUNTS 31 32 0 0 0
M  V30 BEGIN ATOM
M  V30 1 N 3.45636 -0.342635 1.04001 0
M  V30 2 C 2.27598 -1.01764 0.625769 0
M  V30 3 C 1.80218 -0.414957 -0.680239 0 CFG=2
M  V30 4 C 1.50838 1.03113 -0.502326 0
M  V30 5 C 0.156103 1.3563 -0.0318819 0
M  V30 6 C -0.0701581 2.59963 0.575531 0
M  V30 7 C -1.34281 2.90248 1.01466 0
M  V30 8 C -2.37459 1.98847 0.854648 0
M  V30 9 C -2.12844 0.783835 0.259724 0
M  V30 10 C -0.847077 0.434 -0.202308 0
M  V30 11 N -0.622893 -0.812044 -0.808956 0
M  V30 12 C 0.673379 -1.19047 -1.29027 0
M  V30 13 S -1.90153 -1.9437 -0.998338 0
M  V30 14 O -1.43589 -3.18386 -1.73527 0
M  V30 15 O -2.94291 -1.31081 -1.89488 0
M  V30 16 N -2.57425 -2.4544 0.497365 0
M  V30 17 H 3.37942 0.0595576 1.98187 0
M  V30 18 H 3.8268 0.249937 0.313381 0
M  V30 19 H 2.504 -2.08789 0.46245 0
M  V30 20 H 1.43221 -0.939865 1.35635 0
M  V30 21 H 2.67098 -0.497168 -1.38837 0
M  V30 22 H 1.65088 1.58917 -1.47317 0
M  V30 23 H 2.23352 1.51861 0.19751 0
M  V30 24 H 0.745347 3.27819 0.682476 0
M  V30 25 H -1.57022 3.84388 1.48801 0
M  V30 26 H -3.38822 2.18548 1.18468 0
M  V30 27 H -2.93152 0.0749794 0.135518 0
M  V30 28 H 0.659402 -1.1169 -2.40511 0
M  V30 29 H 0.836016 -2.26486 -1.05756 0
M  V30 30 H -2.08493 -2.06169 1.32615 0
M  V30 31 H -3.59551 -2.25676 0.472574 0
M  V30 END ATOM
M  V30 BEGIN BOND
M  V30 1 1 1 2
M  V30 2 1 2 3
M  V30 3 1 3 4
M  V30 4 1 4 5
M  V30 5 2 5 6
M  V30 6 1 6 7
M  V30 7 2 7 8
M  V30 8 1 8 9
M  V30 9 2 9 10
M  V30 10 1 10 11
M  V30 11 1 11 12
M  V30 12 1 11 13
M  V30 13 2 13 14
M  V30 14 2 13 15
M  V30 15 1 13 16
M  V30 16 1 12 3
M  V30 17 1 10 5
M  V30 18 1 1 17
M  V30 19 1 1 18
M  V30 20 1 2 19
M  V30 21 1 2 20
M  V30 22 1 3 21 CFG=3
M  V30 23 1 4 22
M  V30 24 1 4 23
M  V30 25 1 6 24
M  V30 26 1 7 25
M  V30 27 1 8 26
M  V30 28 1 9 27
M  V30 29 1 12 28
M  V30 30 1 12 29
M  V30 31 1 16 30
M  V30 32 1 16 31
M  V30 END BOND
M  V30 END CTAB
M  END
