
     RDKit          3D

  0  0  0  0  0  0  0  0  0  0999 V3000
M  V30 BEGIN CTAB
M  V30 COUNTS 34 35 0 0 0
M  V30 BEGIN ATOM
M  V30 1 C -3.13472 2.75447 -0.180123 0
M  V30 2 O -3.59741 1.44776 -0.0440498 0
M  V30 3 C -2.82801 0.295641 -0.100745 0
M  V30 4 C -1.46685 0.314399 -0.305536 0
M  V30 5 C -0.74267 -0.856962 -0.354454 0
M  V30 6 C -1.35263 -2.08304 -0.201095 0
M  V30 7 C -2.73292 -2.08994 0.00594453 0
M  V30 8 C -3.43864 -0.926756 0.0526143 0
M  V30 9 N -4.83779 -0.973768 0.265996 0
M  V30 10 C 0.701448 -0.845321 -0.565519 0
M  V30 11 C 1.32894 -1.881 -1.22938 0
M  V30 12 C 2.70161 -1.90424 -1.44475 0
M  V30 13 C 3.45217 -0.84882 -0.973182 0
M  V30 14 N 4.85672 -0.876186 -1.19619 0
M  V30 15 C 2.83385 0.197754 -0.304506 0
M  V30 16 O 3.6474 1.21229 0.135869 0
M  V30 17 C 3.15531 2.35472 0.839117 0
M  V30 18 C 1.45433 0.208448 -0.0952764 0
M  V30 19 H -3.67547 3.47766 0.473393 0
M  V30 20 H -3.32581 3.09266 -1.23173 0
M  V30 21 H -2.05856 2.90209 0.0202537 0
M  V30 22 H -0.938537 1.2747 -0.433954 0
M  V30 23 H -0.765075 -2.9863 -0.243684 0
M  V30 24 H -3.20059 -3.07489 0.125693 0
M  V30 25 H -5.42817 -1.76382 -0.0420646 0
M  V30 26 H -5.28508 -0.178604 0.75328 0
M  V30 27 H 0.735512 -2.70413 -1.59586 0
M  V30 28 H 3.13678 -2.75341 -1.97774 0
M  V30 29 H 5.55636 -0.941884 -0.438098 0
M  V30 30 H 5.19894 -0.827023 -2.17999 0
M  V30 31 H 2.89844 2.00705 1.85772 0
M  V30 32 H 2.23445 2.75102 0.379203 0
M  V30 33 H 3.90623 3.16798 0.837518 0
M  V30 34 H 1.01043 1.05744 0.438834 0
M  V30 END ATOM
M  V30 BEGIN BOND
M  V30 1 1 1 2
M  V30 2 1 2 3
M  V30 3 2 3 4
M  V30 4 1 4 5
M  V30 5 2 5 6
M  V30 6 1 6 7
M  V30 7 2 7 8
M  V30 8 1 8 9
M  V30 9 1 5 10
M  V30 10 2 10 11
M  V30 11 1 11 12
M  V30 12 2 12 13
M  V30 13 1 13 14
M  V30 14 1 13 15
M  V30 15 1 15 16
M  V30 16 1 16 17
M  V30 17 2 15 18
M  V30 18 1 8 3
M  V30 19 1 18 10
M  V30 20 1 1 19
M  V30 21 1 1 20
M  V30 22 1 1 21
M  V30 23 1 4 22
M  V30 24 1 6 23
M  V30 25 1 7 24
M  V30 26 1 9 25
M  V30 27 1 9 26
M  V30 28 1 11 27
M  V30 29 1 12 28
M  V30 30 1 14 29
M  V30 31 1 14 30
M  V30 32 1 17 31
M  V30 33 1 17 32
M  V30 34 1 17 33
M  V30 35 1 18 34
M  V30 END BOND
M  V30 END CTAB
M  END
