
     RDKit          3D

  0  0  0  0  0  0  0  0  0  0999 V3000
M  V30 BEGIN CTAB
M  V30 COUNTS 39 40 0 0 0
M  V30 BEGIN ATOM
M  V30 1 N -3.30281 -1.66111 0.810218 0
M  V30 2 C -2.06448 -2.16903 0.335219 0
M  V30 3 C -0.829807 -1.50326 0.887664 0
M  V30 4 N -0.779345 -0.154846 0.577281 0
M  V30 5 C -1.68221 0.743979 1.22488 0
M  V30 6 C -2.5581 1.47411 0.232111 0
M  V30 7 C -1.9734 2.83985 -0.0963983 0
M  V30 8 C -0.483784 2.75613 -0.323917 0
M  V30 9 C -0.0556457 1.47584 -0.944317 0
M  V30 10 C 0.389367 0.499312 0.173449 0 CFG=2
M  V30 11 C 1.51505 -0.282342 -0.327113 0
M  V30 12 C 1.41199 -1.23975 -1.30681 0
M  V30 13 C 2.5399 -1.91836 -1.70849 0
M  V30 14 C 3.77835 -1.65139 -1.14049 0
M  V30 15 C 3.8486 -0.692548 -0.16742 0
M  V30 16 N 2.73748 -0.065634 0.186835 0
M  V30 17 N 5.09216 -0.354961 0.471217 0
M  V30 18 H -4.07284 -1.77768 0.164957 0
M  V30 19 H -3.49443 -1.83279 1.80694 0
M  V30 20 H -2.03314 -3.27374 0.477965 0
M  V30 21 H -2.10955 -2.05767 -0.792717 0
M  V30 22 H -0.957039 -1.56565 2.03302 0
M  V30 23 H 0.0790453 -2.1171 0.735493 0
M  V30 24 H -2.25132 0.227848 2.01052 0
M  V30 25 H -1.02454 1.53433 1.70128 0
M  V30 26 H -2.7657 0.906024 -0.69106 0
M  V30 27 H -3.52956 1.6616 0.72852 0
M  V30 28 H -2.24223 3.53221 0.709147 0
M  V30 29 H -2.4587 3.18141 -1.02625 0
M  V30 30 H 0.0369273 2.89443 0.642827 0
M  V30 31 H -0.147114 3.58817 -0.993282 0
M  V30 32 H 0.774026 1.63483 -1.65362 0
M  V30 33 H -0.873141 0.990741 -1.53762 0
M  V30 34 H 0.730477 1.14011 1.04046 0
M  V30 35 H 0.442067 -1.46105 -1.76328 0
M  V30 36 H 2.53031 -2.68403 -2.47467 0
M  V30 37 H 4.68304 -2.18083 -1.44729 0
M  V30 38 H 5.09117 0.271249 1.29815 0
M  V30 39 H 6.00892 -0.708397 0.146606 0
M  V30 END ATOM
M  V30 BEGIN BOND
M  V30 1 1 1 2
M  V30 2 1 2 3
M  V30 3 1 3 4
M  V30 4 1 4 5
M  V30 5 1 5 6
M  V30 6 1 6 7
M  V30 7 1 7 8
M  V30 8 1 8 9
M  V30 9 1 9 10
M  V30 10 1 10 11
M  V30 11 2 11 12
M  V30 12 1 12 13
M  V30 13 2 13 14
M  V30 14 1 14 15
M  V30 15 2 15 16
M  V30 16 1 15 17
M  V30 17 1 10 4
M  V30 18 1 16 11
M  V30 19 1 1 18
M  V30 20 1 1 19
M  V30 21 1 2 20
M  V30 22 1 2 21
M  V30 23 1 3 22
M  V30 24 1 3 23
M  V30 25 1 5 24
M  V30 26 1 5 25
M  V30 27 1 6 26
M  V30 28 1 6 27
M  V30 29 1 7 28
M  V30 30 1 7 29
M  V30 31 1 8 30
M  V30 32 1 8 31
M  V30 33 1 9 32
M  V30 34 1 9 33
M  V30 35 1 10 34 CFG=1
M  V30 36 1 12 35
M  V30 37 1 13 36
M  V30 38 1 14 37
M  V30 39 1 17 38
M  V30 40 1 17 39
M  V30 END BOND
M  V30 END CTAB
M  END
