
     RDKit          3D

  0  0  0  0  0  0  0  0  0  0999 V3000
M  V30 BEGIN CTAB
M  V30 COUNTS 25 26 0 0 0
M  V30 BEGIN ATOM
M  V30 1 C 4.00652 -0.982185 0.0526328 0
M  V30 2 N 2.64461 -1.19591 0.409963 0
M  V30 3 C 1.55106 -0.356375 0.00890755 0
M  V30 4 N 1.74972 0.747984 -0.718146 0
M  V30 5 C 0.728361 1.53446 -1.14069 0
M  V30 6 N 0.972993 2.71184 -1.90232 0
M  V30 7 N -0.515866 1.15674 -0.798284 0
M  V30 8 C -0.791571 0.0623228 -0.0733398 0
M  V30 9 N 0.280713 -0.667234 0.313424 0
M  V30 10 C -2.17873 -0.372447 0.267299 0
M  V30 11 N -2.68771 -1.5168 -0.47724 0
M  V30 12 C -3.0769 0.55449 0.966149 0
M  V30 13 C -2.44996 -0.518715 1.77149 0
M  V30 14 H 4.56406 -1.95597 0.165904 0
M  V30 15 H 4.04791 -0.68196 -1.02292 0
M  V30 16 H 4.44719 -0.211374 0.717148 0
M  V30 17 H 2.41363 -2.03296 1.01096 0
M  V30 18 H 1.68823 3.39621 -1.59639 0
M  V30 19 H 0.450407 2.90741 -2.77303 0
M  V30 20 H -2.55742 -1.37265 -1.49888 0
M  V30 21 H -3.63011 -1.74964 -0.164718 0
M  V30 22 H -4.16635 0.505284 0.721584 0
M  V30 23 H -2.73248 1.57841 1.16207 0
M  V30 24 H -1.63824 -0.2362 2.47176 0
M  V30 25 H -3.1201 -1.30474 2.12668 0
M  V30 END ATOM
M  V30 BEGIN BOND
M  V30 1 1 1 2
M  V30 2 1 2 3
M  V30 3 2 3 4
M  V30 4 1 4 5
M  V30 5 1 5 6
M  V30 6 2 5 7
M  V30 7 1 7 8
M  V30 8 2 8 9
M  V30 9 1 8 10
M  V30 10 1 10 11
M  V30 11 1 10 12
M  V30 12 1 12 13
M  V30 13 1 9 3
M  V30 14 1 13 10
M  V30 15 1 1 14
M  V30 16 1 1 15
M  V30 17 1 1 16
M  V30 18 1 2 17
M  V30 19 1 6 18
M  V30 20 1 6 19
M  V30 21 1 11 20
M  V30 22 1 11 21
M  V30 23 1 12 22
M  V30 24 1 12 23
M  V30 25 1 13 24
M  V30 26 1 13 25
M  V30 END BOND
M  V30 END CTAB
M  END
