
     RDKit          3D

  0  0  0  0  0  0  0  0  0  0999 V3000
M  V30 BEGIN CTAB
M  V30 COUNTS 35 35 0 0 0
M  V30 BEGIN ATOM
M  V30 1 C 1.53068 -1.23013 -1.78487 0
M  V30 2 C 1.63908 -0.734211 -0.397141 0
M  V30 3 C 3.09713 -0.258001 -0.239307 0
M  V30 4 C 1.52695 -1.89506 0.584335 0
M  V30 5 S -0.125648 -2.5946 0.313103 0
M  V30 6 C -1.25812 -1.54661 1.25762 0
M  V30 7 C -1.71017 -0.34801 0.531755 0
M  V30 8 C -2.75714 -0.689272 -0.542824 0
M  V30 9 C -2.43741 0.546389 1.51363 0
M  V30 10 C -0.652125 0.495131 -0.0904768 0
M  V30 11 N -1.17519 1.41462 -0.793147 0
M  V30 12 N -0.620347 2.40817 -1.54178 0
M  V30 13 C 0.782602 0.421436 -0.0159077 0
M  V30 14 N 1.37073 1.4555 0.448799 0
M  V30 15 N 0.957822 2.65449 0.891771 0
M  V30 16 H 0.606683 -0.938575 -2.31601 0
M  V30 17 H 2.37452 -0.898369 -2.45888 0
M  V30 18 H 1.56748 -2.3535 -1.83347 0
M  V30 19 H 3.44246 0.262866 -1.1539 0
M  V30 20 H 3.22124 0.404861 0.613695 0
M  V30 21 H 3.76749 -1.12743 -0.0880072 0
M  V30 22 H 2.33505 -2.60218 0.388206 0
M  V30 23 H 1.61338 -1.45698 1.60551 0
M  V30 24 H -2.15108 -2.16458 1.48426 0
M  V30 25 H -0.804777 -1.26006 2.22139 0
M  V30 26 H -3.44724 -1.44485 -0.157206 0
M  V30 27 H -2.26253 -0.95854 -1.49122 0
M  V30 28 H -3.32623 0.249517 -0.721197 0
M  V30 29 H -3.26091 -0.0712262 1.96754 0
M  V30 30 H -2.91868 1.41621 1.02766 0
M  V30 31 H -1.77397 0.847644 2.36115 0
M  V30 32 H 0.167778 2.22447 -2.22359 0
M  V30 33 H -0.920859 3.41757 -1.50655 0
M  V30 34 H 1.54676 3.50825 0.734694 0
M  V30 35 H 0.054612 2.84505 1.41037 0
M  V30 END ATOM
M  V30 BEGIN BOND
M  V30 1 1 1 2
M  V30 2 1 2 3
M  V30 3 1 2 4
M  V30 4 1 4 5
M  V30 5 1 5 6
M  V30 6 1 6 7
M  V30 7 1 7 8
M  V30 8 1 7 9
M  V30 9 1 7 10
M  V30 10 2 10 11 CFG=2
M  V30 11 1 11 12
M  V30 12 1 10 13
M  V30 13 2 13 14 CFG=2
M  V30 14 1 14 15
M  V30 15 1 13 2
M  V30 16 1 1 16
M  V30 17 1 1 17
M  V30 18 1 1 18
M  V30 19 1 3 19
M  V30 20 1 3 20
M  V30 21 1 3 21
M  V30 22 1 4 22
M  V30 23 1 4 23
M  V30 24 1 6 24
M  V30 25 1 6 25
M  V30 26 1 8 26
M  V30 27 1 8 27
M  V30 28 1 8 28
M  V30 29 1 9 29
M  V30 30 1 9 30
M  V30 31 1 9 31
M  V30 32 1 12 32
M  V30 33 1 12 33
M  V30 34 1 15 34
M  V30 35 1 15 35
M  V30 END BOND
M  V30 END CTAB
M  END
