
     RDKit          3D

  0  0  0  0  0  0  0  0  0  0999 V3000
M  V30 BEGIN CTAB
M  V30 COUNTS 27 27 0 0 0
M  V30 BEGIN ATOM
M  V30 1 N -3.70803 2.05189 -0.658166 0
M  V30 2 C -2.28074 1.81297 -0.48813 0
M  V30 3 S -1.32465 3.02036 -0.957916 0
M  V30 4 N -1.85111 0.605657 0.0274986 0
M  V30 5 C -0.560258 0.103098 0.308748 0
M  V30 6 C 0.593287 0.857408 0.343583 0
M  V30 7 C 1.82463 0.287709 0.696789 0
M  V30 8 C 1.92047 -1.02557 1.01644 0
M  V30 9 C 0.778823 -1.78085 0.983537 0
M  V30 10 C -0.454152 -1.25693 0.63941 0
M  V30 11 O -1.56797 -2.04016 0.610463 0
M  V30 12 C -2.04237 -2.8168 -0.440877 0
M  V30 13 F -2.33037 -2.15096 -1.60381 0
M  V30 14 F -1.23832 -3.91749 -0.698508 0
M  V30 15 F -3.25921 -3.36461 -0.00406367 0
M  V30 16 S 3.2499 1.30019 0.720717 0
M  V30 17 N 4.02054 1.29431 -0.814153 0
M  V30 18 O 2.79556 2.69507 1.04751 0
M  V30 19 O 4.21516 0.880103 1.7811 0
M  V30 20 H -4.18533 2.73117 -0.0601193 0
M  V30 21 H -4.25653 1.54392 -1.37886 0
M  V30 22 H -2.68324 -0.0639687 0.282354 0
M  V30 23 H 0.576859 1.90143 0.111891 0
M  V30 24 H 2.87839 -1.43903 1.28513 0
M  V30 25 H 0.803989 -2.84239 1.23263 0
M  V30 26 H 4.77927 0.575927 -0.816269 0
M  V30 27 H 3.30538 1.03756 -1.52062 0
M  V30 END ATOM
M  V30 BEGIN BOND
M  V30 1 1 1 2
M  V30 2 2 2 3
M  V30 3 1 2 4
M  V30 4 1 4 5
M  V30 5 2 5 6
M  V30 6 1 6 7
M  V30 7 2 7 8
M  V30 8 1 8 9
M  V30 9 2 9 10
M  V30 10 1 10 11
M  V30 11 1 11 12
M  V30 12 1 12 13
M  V30 13 1 12 14
M  V30 14 1 12 15
M  V30 15 1 7 16
M  V30 16 1 16 17
M  V30 17 2 16 18
M  V30 18 2 16 19
M  V30 19 1 10 5
M  V30 20 1 1 20
M  V30 21 1 1 21
M  V30 22 1 4 22
M  V30 23 1 6 23
M  V30 24 1 8 24
M  V30 25 1 9 25
M  V30 26 1 17 26
M  V30 27 1 17 27
M  V30 END BOND
M  V30 END CTAB
M  END
