
     RDKit          3D

  0  0  0  0  0  0  0  0  0  0999 V3000
M  V30 BEGIN CTAB
M  V30 COUNTS 38 40 0 0 0
M  V30 BEGIN ATOM
M  V30 1 C 7.30843 -1.54168 0.718043 0
M  V30 2 O 6.61408 -0.318905 0.773819 0
M  V30 3 C 5.28577 -0.214436 0.371511 0
M  V30 4 C 4.64711 0.989227 0.440921 0
M  V30 5 C 3.34263 1.08743 0.0449676 0
M  V30 6 C 2.61539 0.0196371 -0.431528 0
M  V30 7 C 3.25723 -1.19488 -0.502453 0
M  V30 8 C 4.59021 -1.30548 -0.100157 0
M  V30 9 C 1.22766 0.172249 -0.841086 0
M  V30 10 S 0.143372 -0.987512 -1.45536 0
M  V30 11 C -1.23067 0.0266835 -1.66124 0
M  V30 12 C -0.730797 1.23185 -1.22346 0
M  V30 13 N 0.503744 1.25579 -0.822937 0
M  V30 14 C -1.57604 2.49253 -1.20252 0
M  V30 15 S -2.41291 2.63219 0.373841 0
M  V30 16 C -3.61586 1.36812 0.654528 0
M  V30 17 N -3.25196 0.213679 1.24992 0
M  V30 18 C -4.10564 -0.788828 1.4955 0
M  V30 19 N -3.6679 -1.99721 2.13212 0
M  V30 20 C -5.41285 -0.662273 1.13614 0
M  V30 21 C -5.81594 0.501753 0.527431 0
M  V30 22 N -4.90961 1.48166 0.304078 0
M  V30 23 N -7.15892 0.69192 0.131579 0
M  V30 24 H 7.00492 -2.17035 1.59439 0
M  V30 25 H 8.41492 -1.3804 0.730479 0
M  V30 26 H 7.0711 -2.02057 -0.244792 0
M  V30 27 H 5.14543 1.88217 0.804101 0
M  V30 28 H 2.84461 2.04464 0.103253 0
M  V30 29 H 2.73318 -2.05571 -0.86669 0
M  V30 30 H 5.05173 -2.27926 -0.174015 0
M  V30 31 H -2.24582 -0.186603 -2.03526 0
M  V30 32 H -2.29995 2.43571 -2.06102 0
M  V30 33 H -0.949432 3.39951 -1.33372 0
M  V30 34 H -2.72825 -2.35811 1.93648 0
M  V30 35 H -4.30471 -2.50036 2.78782 0
M  V30 36 H -6.11015 -1.48956 1.34043 0
M  V30 37 H -7.61651 -0.0153546 -0.465839 0
M  V30 38 H -7.6576 1.54074 0.45095 0
M  V30 END ATOM
M  V30 BEGIN BOND
M  V30 1 1 1 2
M  V30 2 1 2 3
M  V30 3 2 3 4
M  V30 4 1 4 5
M  V30 5 2 5 6
M  V30 6 1 6 7
M  V30 7 2 7 8
M  V30 8 1 6 9
M  V30 9 1 9 10
M  V30 10 1 10 11
M  V30 11 2 11 12
M  V30 12 1 12 13
M  V30 13 1 12 14
M  V30 14 1 14 15
M  V30 15 1 15 16
M  V30 16 2 16 17
M  V30 17 1 17 18
M  V30 18 1 18 19
M  V30 19 2 18 20
M  V30 20 1 20 21
M  V30 21 2 21 22
M  V30 22 1 21 23
M  V30 23 1 8 3
M  V30 24 2 13 9
M  V30 25 1 22 16
M  V30 26 1 1 24
M  V30 27 1 1 25
M  V30 28 1 1 26
M  V30 29 1 4 27
M  V30 30 1 5 28
M  V30 31 1 7 29
M  V30 32 1 8 30
M  V30 33 1 11 31
M  V30 34 1 14 32
M  V30 35 1 14 33
M  V30 36 1 19 34
M  V30 37 1 19 35
M  V30 38 1 20 36
M  V30 39 1 23 37
M  V30 40 1 23 38
M  V30 END BOND
M  V30 END CTAB
M  END
