
     RDKit          3D

  0  0  0  0  0  0  0  0  0  0999 V3000
M  V30 BEGIN CTAB
M  V30 COUNTS 26 26 0 0 0
M  V30 BEGIN ATOM
M  V30 1 N 2.99706 -0.84123 1.55059 0
M  V30 2 C 3.48183 -0.214583 0.380703 0
M  V30 3 C 2.64324 -0.434559 -0.820594 0
M  V30 4 N 1.31173 0.0106684 -0.850421 0
M  V30 5 C 0.217132 -0.383377 -0.0775182 0
M  V30 6 O 0.339335 -1.27997 0.802961 0
M  V30 7 C -1.12834 0.196862 -0.22166 0
M  V30 8 C -1.42415 1.1847 -1.13672 0
M  V30 9 C -2.70295 1.73763 -1.27493 0
M  V30 10 C -3.6948 1.25959 -0.450811 0
M  V30 11 C -3.39388 0.272816 0.461449 0
M  V30 12 C -2.13686 -0.272524 0.599175 0
M  V30 13 N -1.8971 -1.29302 1.56667 0
M  V30 14 H 3.64344 -1.54142 1.97842 0
M  V30 15 H 2.59706 -0.184897 2.25789 0
M  V30 16 H 3.61669 0.904568 0.518329 0
M  V30 17 H 4.50816 -0.637281 0.116489 0
M  V30 18 H 2.72558 -1.54988 -1.04378 0
M  V30 19 H 3.24463 0.00361058 -1.68818 0
M  V30 20 H 1.09302 0.772875 -1.57761 0
M  V30 21 H -0.662109 1.58816 -1.80686 0
M  V30 22 H -2.87698 2.51177 -2.01145 0
M  V30 23 H -4.67164 1.67992 -0.554278 0
M  V30 24 H -4.18605 -0.109339 1.12002 0
M  V30 25 H -2.09833 -2.27221 1.26962 0
M  V30 26 H -1.54572 -1.10887 2.51336 0
M  V30 END ATOM
M  V30 BEGIN BOND
M  V30 1 1 1 2
M  V30 2 1 2 3
M  V30 3 1 3 4
M  V30 4 1 4 5
M  V30 5 2 5 6
M  V30 6 1 5 7
M  V30 7 2 7 8
M  V30 8 1 8 9
M  V30 9 2 9 10
M  V30 10 1 10 11
M  V30 11 2 11 12
M  V30 12 1 12 13
M  V30 13 1 12 7
M  V30 14 1 1 14
M  V30 15 1 1 15
M  V30 16 1 2 16
M  V30 17 1 2 17
M  V30 18 1 3 18
M  V30 19 1 3 19
M  V30 20 1 4 20
M  V30 21 1 8 21
M  V30 22 1 9 22
M  V30 23 1 10 23
M  V30 24 1 11 24
M  V30 25 1 13 25
M  V30 26 1 13 26
M  V30 END BOND
M  V30 END CTAB
M  END
