
     RDKit          3D

  0  0  0  0  0  0  0  0  0  0999 V3000
M  V30 BEGIN CTAB
M  V30 COUNTS 32 34 0 0 0
M  V30 BEGIN ATOM
M  V30 1 N 4.749 1.72357 -0.185741 0
M  V30 2 C 3.68904 0.791883 -0.161592 0
M  V30 3 C 2.40782 1.23564 0.171406 0
M  V30 4 C 1.34778 0.354119 0.205328 0
M  V30 5 C 1.54538 -0.975751 -0.0898743 0
M  V30 6 C 0.550505 -2.04648 -0.0979343 0
M  V30 7 C -0.724655 -1.77257 -0.803598 0
M  V30 8 C -1.56308 -0.739965 -0.213597 0
M  V30 9 C -1.27733 0.480963 0.398368 0
M  V30 10 C -2.27444 1.29506 0.885857 0
M  V30 11 C -3.59791 0.927114 0.784172 0
M  V30 12 N -4.6526 1.73089 1.27017 0
M  V30 13 C -3.89604 -0.276691 0.181862 0
M  V30 14 C -2.89402 -1.07507 -0.297819 0
M  V30 15 C 0.0789774 0.988603 0.5688 0
M  V30 16 O 0.16035 2.1232 1.09923 0
M  V30 17 C 2.83564 -1.40815 -0.422549 0
M  V30 18 C 3.89607 -0.53628 -0.458512 0
M  V30 19 H 5.60249 1.57449 0.374085 0
M  V30 20 H 4.67312 2.57013 -0.772278 0
M  V30 21 H 2.19889 2.27004 0.411834 0
M  V30 22 H 1.02107 -2.93832 -0.570466 0
M  V30 23 H 0.329584 -2.34136 0.946174 0
M  V30 24 H -0.566542 -1.52903 -1.88189 0
M  V30 25 H -1.29995 -2.73335 -0.815638 0
M  V30 26 H -2.007 2.23605 1.35428 0
M  V30 27 H -5.54134 1.28531 1.5682 0
M  V30 28 H -4.53633 2.74578 1.32618 0
M  V30 29 H -4.94396 -0.596556 0.0865997 0
M  V30 30 H -3.18334 -2.02455 -0.769258 0
M  V30 31 H 2.96516 -2.45258 -0.649626 0
M  V30 32 H 4.90765 -0.886153 -0.721433 0
M  V30 END ATOM
M  V30 BEGIN BOND
M  V30 1 1 1 2
M  V30 2 2 2 3
M  V30 3 1 3 4
M  V30 4 2 4 5
M  V30 5 1 5 6
M  V30 6 1 6 7
M  V30 7 1 7 8
M  V30 8 2 8 9
M  V30 9 1 9 10
M  V30 10 2 10 11
M  V30 11 1 11 12
M  V30 12 1 11 13
M  V30 13 2 13 14
M  V30 14 1 9 15
M  V30 15 2 15 16
M  V30 16 1 5 17
M  V30 17 2 17 18
M  V30 18 1 18 2
M  V30 19 1 15 4
M  V30 20 1 14 8
M  V30 21 1 1 19
M  V30 22 1 1 20
M  V30 23 1 3 21
M  V30 24 1 6 22
M  V30 25 1 6 23
M  V30 26 1 7 24
M  V30 27 1 7 25
M  V30 28 1 10 26
M  V30 29 1 12 27
M  V30 30 1 12 28
M  V30 31 1 13 29
M  V30 32 1 14 30
M  V30 33 1 17 31
M  V30 34 1 18 32
M  V30 END BOND
M  V30 END CTAB
M  END
