
     RDKit          3D

  0  0  0  0  0  0  0  0  0  0999 V3000
M  V30 BEGIN CTAB
M  V30 COUNTS 52 54 0 0 0
M  V30 BEGIN ATOM
M  V30 1 N 7.31679 2.03243 1.5176 0
M  V30 2 C 6.95378 1.04035 0.540609 0
M  V30 3 C 5.54938 0.485357 0.794129 0
M  V30 4 C 5.2782 -0.526589 -0.268391 0
M  V30 5 C 3.93013 -1.17053 -0.161629 0
M  V30 6 C 2.79584 -0.202386 -0.254306 0
M  V30 7 C 1.46889 -0.935048 -0.137096 0
M  V30 8 N 0.3519 0.0222708 -0.228827 0
M  V30 9 C -0.95483 -0.517863 -0.135006 0
M  V30 10 C -1.12281 -1.89442 0.0359092 0
M  V30 11 C -2.32577 -2.52591 0.13872 0
M  V30 12 C -3.45403 -1.74088 0.0677797 0
M  V30 13 N -4.72697 -2.35182 0.169652 0
M  V30 14 C -3.36027 -0.362905 -0.101703 0
M  V30 15 C -2.10491 0.23448 -0.201506 0
M  V30 16 C -2.05883 1.66241 -0.37607 0
M  V30 17 O -1.00827 2.30793 -0.477293 0
M  V30 18 C -3.3215 2.43242 -0.442315 0
M  V30 19 C -3.28915 3.80254 -0.609564 0
M  V30 20 C -4.47593 4.51523 -0.670493 0
M  V30 21 C -5.6922 3.87288 -0.566066 0
M  V30 22 C -5.72561 2.52132 -0.40105 0
M  V30 23 C -4.53656 1.81722 -0.341216 0
M  V30 24 C -4.60576 0.3932 -0.166626 0
M  V30 25 O -5.70563 -0.213788 -0.0690178 0
M  V30 26 S -2.51124 -4.2414 0.351201 0
M  V30 27 O -3.3818 -4.93202 -0.907215 0
M  V30 28 O -3.10604 -4.59258 1.6854 0
M  V30 29 O -1.12886 -4.86164 0.32664 0
M  V30 30 H 8.19094 1.70428 1.98987 0
M  V30 31 H 7.54433 2.93683 1.04727 0
M  V30 32 H 7.63069 0.161847 0.560599 0
M  V30 33 H 6.96268 1.45424 -0.492201 0
M  V30 34 H 4.87461 1.35132 0.77328 0
M  V30 35 H 5.5371 0.0546189 1.811 0
M  V30 36 H 6.04577 -1.33594 -0.157532 0
M  V30 37 H 5.46869 -0.0763006 -1.26086 0
M  V30 38 H 3.89485 -1.80228 0.74929 0
M  V30 39 H 3.82564 -1.8829 -1.01881 0
M  V30 40 H 2.91139 0.554359 0.53663 0
M  V30 41 H 2.80447 0.245024 -1.27498 0
M  V30 42 H 1.34721 -1.68772 -0.937551 0
M  V30 43 H 1.41964 -1.46325 0.832524 0
M  V30 44 H 0.580988 0.999429 -0.352164 0
M  V30 45 H -0.23175 -2.50269 0.090511 0
M  V30 46 H -5.20454 -2.52098 1.07609 0
M  V30 47 H -5.2249 -2.6534 -0.695349 0
M  V30 48 H -2.34633 4.28476 -0.688599 0
M  V30 49 H -4.49037 5.6008 -0.802133 0
M  V30 50 H -6.62452 4.42571 -0.613073 0
M  V30 51 H -6.65508 1.99815 -0.317327 0
M  V30 52 H -3.30946 -5.91617 -0.824957 0
M  V30 END ATOM
M  V30 BEGIN BOND
M  V30 1 1 1 2
M  V30 2 1 2 3
M  V30 3 1 3 4
M  V30 4 1 4 5
M  V30 5 1 5 6
M  V30 6 1 6 7
M  V30 7 1 7 8
M  V30 8 1 8 9
M  V30 9 2 9 10
M  V30 10 1 10 11
M  V30 11 2 11 12
M  V30 12 1 12 13
M  V30 13 1 12 14
M  V30 14 2 14 15
M  V30 15 1 15 16
M  V30 16 2 16 17
M  V30 17 1 16 18
M  V30 18 2 18 19
M  V30 19 1 19 20
M  V30 20 2 20 21
M  V30 21 1 21 22
M  V30 22 2 22 23
M  V30 23 1 23 24
M  V30 24 2 24 25
M  V30 25 1 11 26
M  V30 26 1 26 27
M  V30 27 2 26 28
M  V30 28 2 26 29
M  V30 29 1 15 9
M  V30 30 1 23 18
M  V30 31 1 24 14
M  V30 32 1 1 30
M  V30 33 1 1 31
M  V30 34 1 2 32
M  V30 35 1 2 33
M  V30 36 1 3 34
M  V30 37 1 3 35
M  V30 38 1 4 36
M  V30 39 1 4 37
M  V30 40 1 5 38
M  V30 41 1 5 39
M  V30 42 1 6 40
M  V30 43 1 6 41
M  V30 44 1 7 42
M  V30 45 1 7 43
M  V30 46 1 8 44
M  V30 47 1 10 45
M  V30 48 1 13 46
M  V30 49 1 13 47
M  V30 50 1 19 48
M  V30 51 1 20 49
M  V30 52 1 21 50
M  V30 53 1 22 51
M  V30 54 1 27 52
M  V30 END BOND
M  V30 END CTAB
M  END
