
     RDKit          3D

  0  0  0  0  0  0  0  0  0  0999 V3000
M  V30 BEGIN CTAB
M  V30 COUNTS 36 38 0 0 0
M  V30 BEGIN ATOM
M  V30 1 N 2.11974 -1.43078 2.98767 0
M  V30 2 C 1.82436 -0.801765 1.72126 0
M  V30 3 N 0.608639 -0.60362 1.18909 0
M  V30 4 C 0.66035 0.0130654 0.00766073 0
M  V30 5 N -0.332777 0.416053 -0.900467 0
M  V30 6 C -1.72595 0.234215 -0.707613 0
M  V30 7 C -2.58197 0.249838 -1.80481 0
M  V30 8 C -3.93078 0.0986106 -1.68195 0
M  V30 9 C -4.50692 -0.0801934 -0.431792 0
M  V30 10 C -3.6912 -0.0991608 0.661181 0
M  V30 11 C -2.30727 0.059129 0.509823 0
M  V30 12 S -6.22914 -0.282353 -0.229045 0
M  V30 13 N -7.00366 1.23917 0.0342434 0
M  V30 14 O -6.86791 -0.929899 -1.42405 0
M  V30 15 O -6.51577 -1.14575 0.982409 0
M  V30 16 N 2.00791 0.200548 -0.186191 0
M  V30 17 N 2.68339 -0.2853 0.832379 0
M  V30 18 C 4.09054 -0.301514 0.992842 0
M  V30 19 O 4.63071 -0.84129 2.00558 0
M  V30 20 C 4.92436 0.318028 -0.0354268 0
M  V30 21 C 6.267 -0.0453675 -0.235998 0
M  V30 22 C 6.758 0.724488 -1.27122 0
M  V30 23 C 5.69698 1.5267 -1.66138 0
M  V30 24 O 4.66141 1.24577 -0.908828 0
M  V30 25 H 2.07732 -0.870418 3.85425 0
M  V30 26 H 2.36539 -2.4176 2.9971 0
M  V30 27 H -0.034072 0.896311 -1.80389 0
M  V30 28 H -2.10975 0.390867 -2.78151 0
M  V30 29 H -4.56533 0.114903 -2.5567 0
M  V30 30 H -4.08973 -0.233031 1.65268 0
M  V30 31 H -1.71345 0.0491464 1.43377 0
M  V30 32 H -6.503 2.00805 -0.472484 0
M  V30 33 H -7.01055 1.49533 1.0568 0
M  V30 34 H 6.82674 -0.794258 0.315926 0
M  V30 35 H 7.75983 0.691526 -1.67554 0
M  V30 36 H 5.75655 2.25724 -2.46577 0
M  V30 END ATOM
M  V30 BEGIN BOND
M  V30 1 1 1 2
M  V30 2 2 2 3
M  V30 3 1 3 4
M  V30 4 1 4 5
M  V30 5 1 5 6
M  V30 6 2 6 7
M  V30 7 1 7 8
M  V30 8 2 8 9
M  V30 9 1 9 10
M  V30 10 2 10 11
M  V30 11 1 9 12
M  V30 12 1 12 13
M  V30 13 2 12 14
M  V30 14 2 12 15
M  V30 15 2 4 16
M  V30 16 1 16 17
M  V30 17 1 17 18
M  V30 18 2 18 19
M  V30 19 1 18 20
M  V30 20 2 20 21
M  V30 21 1 21 22
M  V30 22 2 22 23
M  V30 23 1 23 24
M  V30 24 1 17 2
M  V30 25 1 24 20
M  V30 26 1 11 6
M  V30 27 1 1 25
M  V30 28 1 1 26
M  V30 29 1 5 27
M  V30 30 1 7 28
M  V30 31 1 8 29
M  V30 32 1 10 30
M  V30 33 1 11 31
M  V30 34 1 13 32
M  V30 35 1 13 33
M  V30 36 1 21 34
M  V30 37 1 22 35
M  V30 38 1 23 36
M  V30 END BOND
M  V30 END CTAB
M  END
