
     RDKit          3D

  0  0  0  0  0  0  0  0  0  0999 V3000
M  V30 BEGIN CTAB
M  V30 COUNTS 21 21 0 0 0
M  V30 BEGIN ATOM
M  V30 1 C 3.06051 0.358155 -0.170833 0
M  V30 2 O 1.9886 0.448461 0.750825 0
M  V30 3 C 0.678572 0.152433 0.440908 0
M  V30 4 C -0.18461 1.10774 -0.0357141 0
M  V30 5 N 0.302278 2.43888 -0.209703 0
M  V30 6 C -1.47355 0.751799 -0.325324 0
M  V30 7 C -1.96685 -0.542954 -0.161812 0
M  V30 8 C -1.06504 -1.47488 0.32048 0
M  V30 9 C 0.229135 -1.14964 0.618877 0
M  V30 10 O 1.12272 -2.09407 1.10174 0
M  V30 11 N -3.30878 -0.874381 -0.472601 0
M  V30 12 H 3.18722 1.29078 -0.734383 0
M  V30 13 H 2.9117 -0.470371 -0.890485 0
M  V30 14 H 3.97961 0.20862 0.432753 0
M  V30 15 H 0.906168 2.74067 -0.979626 0
M  V30 16 H 0.011017 3.15192 0.51426 0
M  V30 17 H -2.14325 1.50198 -0.697264 0
M  V30 18 H -1.41228 -2.48746 0.459534 0
M  V30 19 H 0.793438 -3.03371 1.22875 0
M  V30 20 H -4.10264 -0.244819 -0.255841 0
M  V30 21 H -3.51396 -1.77915 -0.934538 0
M  V30 END ATOM
M  V30 BEGIN BOND
M  V30 1 1 1 2
M  V30 2 1 2 3
M  V30 3 2 3 4
M  V30 4 1 4 5
M  V30 5 1 4 6
M  V30 6 2 6 7
M  V30 7 1 7 8
M  V30 8 2 8 9
M  V30 9 1 9 10
M  V30 10 1 7 11
M  V30 11 1 9 3
M  V30 12 1 1 12
M  V30 13 1 1 13
M  V30 14 1 1 14
M  V30 15 1 5 15
M  V30 16 1 5 16
M  V30 17 1 6 17
M  V30 18 1 8 18
M  V30 19 1 10 19
M  V30 20 1 11 20
M  V30 21 1 11 21
M  V30 END BOND
M  V30 END CTAB
M  END
