
     RDKit          3D

  0  0  0  0  0  0  0  0  0  0999 V3000
M  V30 BEGIN CTAB
M  V30 COUNTS 21 21 0 0 0
M  V30 BEGIN ATOM
M  V30 1 N -2.94965 0.903776 -0.656754 0
M  V30 2 C -2.69603 0.0872888 0.512575 0
M  V30 3 C -1.19454 0.0614248 0.722443 0
M  V30 4 C -0.476928 -0.519803 -0.460954 0 CFG=1
M  V30 5 C 0.990432 -0.489092 -0.129538 0
M  V30 6 O 1.5802 -1.34966 0.667562 0
M  V30 7 N 2.84363 -1.0548 0.748762 0
M  V30 8 C 3.10234 0.037786 -0.0196472 0
M  V30 9 N 1.91992 0.371924 -0.559654 0
M  V30 10 N 4.37128 0.65745 -0.184128 0
M  V30 11 O -0.804443 -1.82635 -0.733956 0
M  V30 12 H -3.7918 1.48357 -0.545291 0
M  V30 13 H -2.13967 1.47818 -0.941526 0
M  V30 14 H -3.1187 -0.909662 0.368232 0
M  V30 15 H -3.17343 0.537154 1.4049 0
M  V30 16 H -0.819335 1.08902 0.869055 0
M  V30 17 H -0.971028 -0.50181 1.65933 0
M  V30 18 H -0.626496 0.163767 -1.32084 0
M  V30 19 H 5.05573 0.697409 0.599126 0
M  V30 20 H 4.64508 1.08362 -1.08622 0
M  V30 21 H -1.74656 -2.00119 -0.88913 0
M  V30 END ATOM
M  V30 BEGIN BOND
M  V30 1 1 1 2
M  V30 2 1 2 3
M  V30 3 1 3 4
M  V30 4 1 4 5
M  V30 5 1 5 6
M  V30 6 1 6 7
M  V30 7 2 7 8
M  V30 8 1 8 9
M  V30 9 1 8 10
M  V30 10 1 4 11
M  V30 11 2 9 5
M  V30 12 1 1 12
M  V30 13 1 1 13
M  V30 14 1 2 14
M  V30 15 1 2 15
M  V30 16 1 3 16
M  V30 17 1 3 17
M  V30 18 1 4 18 CFG=3
M  V30 19 1 10 19
M  V30 20 1 10 20
M  V30 21 1 11 21
M  V30 END BOND
M  V30 END CTAB
M  END
