
     RDKit          3D

  0  0  0  0  0  0  0  0  0  0999 V3000
M  V30 BEGIN CTAB
M  V30 COUNTS 25 26 0 0 0
M  V30 BEGIN ATOM
M  V30 1 N -1.08883 -0.528392 -1.78641 0
M  V30 2 C -1.44962 0.242717 -0.650183 0
M  V30 3 N -2.43273 1.17466 -0.732665 0
M  V30 4 C -2.82599 1.93441 0.304402 0
M  V30 5 C -2.20325 1.76648 1.52387 0
M  V30 6 C -1.1958 0.839702 1.68531 0
M  V30 7 C -0.835285 0.085149 0.574656 0
M  V30 8 C 0.239357 -0.913731 0.70684 0
M  V30 9 C 1.48952 -0.488157 0.0175149 0
M  V30 10 C 1.79408 0.75686 -0.498801 0
M  V30 11 N 3.02684 0.718676 -1.03941 0
M  V30 12 N 3.51944 -0.504956 -0.886732 0
M  V30 13 C 2.60426 -1.25751 -0.247075 0
M  V30 14 N -0.1443 -2.20982 0.181826 0
M  V30 15 H -0.384338 -0.276516 -2.50126 0
M  V30 16 H -1.58677 -1.43709 -1.90817 0
M  V30 17 H -3.6307 2.67245 0.169032 0
M  V30 18 H -2.53903 2.38609 2.32959 0
M  V30 19 H -0.704176 0.706854 2.64806 0
M  V30 20 H 0.481453 -1.05458 1.77772 0
M  V30 21 H 1.15807 1.63404 -0.48198 0
M  V30 22 H 3.52719 1.51467 -1.50637 0
M  V30 23 H 2.76576 -2.29608 -0.00272769 0
M  V30 24 H -0.0825344 -2.9619 0.912913 0
M  V30 25 H 0.497399 -2.50402 -0.589929 0
M  V30 END ATOM
M  V30 BEGIN BOND
M  V30 1 1 1 2
M  V30 2 2 2 3
M  V30 3 1 3 4
M  V30 4 2 4 5
M  V30 5 1 5 6
M  V30 6 2 6 7
M  V30 7 1 7 8
M  V30 8 1 8 9
M  V30 9 2 9 10
M  V30 10 1 10 11
M  V30 11 1 11 12
M  V30 12 2 12 13
M  V30 13 1 8 14
M  V30 14 1 7 2
M  V30 15 1 13 9
M  V30 16 1 1 15
M  V30 17 1 1 16
M  V30 18 1 4 17
M  V30 19 1 5 18
M  V30 20 1 6 19
M  V30 21 1 8 20
M  V30 22 1 10 21
M  V30 23 1 11 22
M  V30 24 1 13 23
M  V30 25 1 14 24
M  V30 26 1 14 25
M  V30 END BOND
M  V30 END CTAB
M  END
