
     RDKit          3D

  0  0  0  0  0  0  0  0  0  0999 V3000
M  V30 BEGIN CTAB
M  V30 COUNTS 21 21 0 0 0
M  V30 BEGIN ATOM
M  V30 1 N 3.13228 -0.599494 0.218084 0
M  V30 2 N 2.17425 -0.773327 -0.765076 0
M  V30 3 C 1.25376 0.350091 -0.656445 0
M  V30 4 C -0.105158 -0.0379734 -0.224828 0
M  V30 5 C -0.459554 -1.35131 -0.00784271 0
M  V30 6 C -1.7377 -1.67389 0.451615 0
M  V30 7 C -2.64141 -0.642296 0.678325 0
M  V30 8 C -2.28133 0.681909 0.45304 0
M  V30 9 C -1.00138 0.990093 0.000808519 0
M  V30 10 N -0.57502 2.33962 -0.192042 0
M  V30 11 H 2.93687 0.101691 0.955902 0
M  V30 12 H 3.90826 -1.18473 0.22776 0
M  V30 13 H 1.78051 -1.63508 -0.95551 0
M  V30 14 H 1.20323 0.82393 -1.69194 0
M  V30 15 H 1.66128 1.14458 -0.023287 0
M  V30 16 H 0.203452 -2.17481 -0.170803 0
M  V30 17 H -1.99925 -2.74428 0.61342 0
M  V30 18 H -3.64722 -0.845056 1.03789 0
M  V30 19 H -2.95965 1.50035 0.612471 0
M  V30 20 H -1.12738 3.00315 -0.809367 0
M  V30 21 H 0.281156 2.72684 0.247826 0
M  V30 END ATOM
M  V30 BEGIN BOND
M  V30 1 1 1 2
M  V30 2 1 2 3
M  V30 3 1 3 4
M  V30 4 2 4 5
M  V30 5 1 5 6
M  V30 6 2 6 7
M  V30 7 1 7 8
M  V30 8 2 8 9
M  V30 9 1 9 10
M  V30 10 1 9 4
M  V30 11 1 1 11
M  V30 12 1 1 12
M  V30 13 1 2 13
M  V30 14 1 3 14
M  V30 15 1 3 15
M  V30 16 1 5 16
M  V30 17 1 6 17
M  V30 18 1 7 18
M  V30 19 1 8 19
M  V30 20 1 10 20
M  V30 21 1 10 21
M  V30 END BOND
M  V30 END CTAB
M  END
