
     RDKit          3D

  0  0  0  0  0  0  0  0  0  0999 V3000
M  V30 BEGIN CTAB
M  V30 COUNTS 25 25 0 0 0
M  V30 BEGIN ATOM
M  V30 1 C -2.68832 -0.0607777 -0.857205 0
M  V30 2 C -2.36865 -0.808491 0.397121 0
M  V30 3 C -1.42749 -0.0338167 1.30166 0
M  V30 4 C -0.145293 0.253459 0.62769 0
M  V30 5 C 0.81738 -0.735118 0.479608 0
M  V30 6 N 0.576595 -2.0405 0.983555 0
M  V30 7 C 2.0083 -0.468839 -0.152517 0
M  V30 8 C 2.27088 0.78195 -0.65049 0
M  V30 9 N 3.51036 1.04399 -1.30054 0
M  V30 10 C 1.33332 1.79658 -0.521456 0
M  V30 11 C 0.147766 1.49719 0.117846 0
M  V30 12 H -2.34509 0.995669 -0.840612 0
M  V30 13 H -2.25072 -0.627252 -1.70882 0
M  V30 14 H -3.7802 -0.0485441 -1.00568 0
M  V30 15 H -1.88555 -1.79621 0.194188 0
M  V30 16 H -3.3174 -1.05531 0.913538 0
M  V30 17 H -1.93134 0.900445 1.63939 0
M  V30 18 H -1.24813 -0.657951 2.19753 0
M  V30 19 H 0.516153 -2.27569 1.99744 0
M  V30 20 H 0.451679 -2.81024 0.292469 0
M  V30 21 H 2.78544 -1.23587 -0.280813 0
M  V30 22 H 3.64863 1.87381 -1.92221 0
M  V30 23 H 4.33015 0.412919 -1.18107 0
M  V30 24 H 1.5611 2.78187 -0.923972 0
M  V30 25 H -0.569568 2.31672 0.203365 0
M  V30 END ATOM
M  V30 BEGIN BOND
M  V30 1 1 1 2
M  V30 2 1 2 3
M  V30 3 1 3 4
M  V30 4 2 4 5
M  V30 5 1 5 6
M  V30 6 1 5 7
M  V30 7 2 7 8
M  V30 8 1 8 9
M  V30 9 1 8 10
M  V30 10 2 10 11
M  V30 11 1 11 4
M  V30 12 1 1 12
M  V30 13 1 1 13
M  V30 14 1 1 14
M  V30 15 1 2 15
M  V30 16 1 2 16
M  V30 17 1 3 17
M  V30 18 1 3 18
M  V30 19 1 6 19
M  V30 20 1 6 20
M  V30 21 1 7 21
M  V30 22 1 9 22
M  V30 23 1 9 23
M  V30 24 1 10 24
M  V30 25 1 11 25
M  V30 END BOND
M  V30 END CTAB
M  END
