
     RDKit          3D

  0  0  0  0  0  0  0  0  0  0999 V3000
M  V30 BEGIN CTAB
M  V30 COUNTS 48 48 0 0 0
M  V30 BEGIN ATOM
M  V30 1 N 6.04053 0.50243 -0.39903 0
M  V30 2 C 5.23246 -0.562816 0.0889903 0
M  V30 3 C 4.67688 -0.301457 1.41706 0
M  V30 4 C 3.78184 0.820061 1.72037 0
M  V30 5 C 2.45675 0.882489 1.08989 0
M  V30 6 C 2.39269 1.05546 -0.368024 0 CFG=2
M  V30 7 N 2.98784 2.28104 -0.843633 0
M  V30 8 C 0.917797 1.19685 -0.740177 0
M  V30 9 O 0.465062 2.19691 -1.31733 0
M  V30 10 N 0.077791 0.126332 -0.395155 0
M  V30 11 C -1.37672 0.168139 -0.714787 0 CFG=1
M  V30 12 C -1.56802 -0.987962 -1.63337 0
M  V30 13 C -2.90887 -1.24823 -2.14076 0
M  V30 14 C -3.56451 -0.755926 -3.23955 0
M  V30 15 N -4.76961 -1.32187 -3.30056 0
M  V30 16 C -4.89623 -2.16752 -2.26003 0
M  V30 17 N -3.75531 -2.11616 -1.55718 0
M  V30 18 C -2.07314 0.0963395 0.574454 0
M  V30 19 O -1.44279 -0.125491 1.64625 0
M  V30 20 N -3.47776 0.271948 0.704627 0
M  V30 21 C -4.14914 0.187261 1.97137 0
M  V30 22 C -4.04736 -1.10036 2.65597 0
M  V30 23 O -4.6527 -1.24472 3.89969 0
M  V30 24 O -3.43715 -2.08645 2.17297 0
M  V30 25 H 6.42699 1.14625 0.218463 0
M  V30 26 H 5.80411 0.819445 -1.29996 0
M  V30 27 H 5.95415 -1.47052 0.248752 0
M  V30 28 H 4.57421 -0.954119 -0.693526 0
M  V30 29 H 5.58368 -0.176186 2.12614 0
M  V30 30 H 4.1952 -1.27722 1.79232 0
M  V30 31 H 3.66421 0.927431 2.87237 0
M  V30 32 H 4.30728 1.80747 1.44884 0
M  V30 33 H 1.84126 1.73552 1.56577 0
M  V30 34 H 1.83467 -0.0212014 1.41205 0
M  V30 35 H 2.75397 0.240935 -1.00187 0
M  V30 36 H 3.81672 2.56476 -0.303468 0
M  V30 37 H 2.3165 3.04375 -1.02935 0
M  V30 38 H 0.452053 -0.714634 0.0879911 0
M  V30 39 H -1.5359 1.14317 -1.23179 0
M  V30 40 H -1.10338 -1.87635 -1.14235 0
M  V30 41 H -0.901514 -0.793112 -2.51963 0
M  V30 42 H -3.16737 -0.0355918 -3.93048 0
M  V30 43 H -5.53624 -1.16507 -4.02755 0
M  V30 44 H -5.77882 -2.76395 -2.06213 0
M  V30 45 H -4.01482 0.489074 -0.192342 0
M  V30 46 H -5.23463 0.385066 1.80209 0
M  V30 47 H -3.80444 1.04414 2.5974 0
M  V30 48 H -5.35823 -0.630869 4.23021 0
M  V30 END ATOM
M  V30 BEGIN BOND
M  V30 1 1 1 2
M  V30 2 1 2 3
M  V30 3 1 3 4
M  V30 4 1 4 5
M  V30 5 1 5 6
M  V30 6 1 6 7
M  V30 7 1 6 8
M  V30 8 2 8 9
M  V30 9 1 8 10
M  V30 10 1 10 11
M  V30 11 1 11 12
M  V30 12 1 12 13
M  V30 13 2 13 14
M  V30 14 1 14 15
M  V30 15 1 15 16
M  V30 16 2 16 17
M  V30 17 1 11 18
M  V30 18 2 18 19
M  V30 19 1 18 20
M  V30 20 1 20 21
M  V30 21 1 21 22
M  V30 22 1 22 23
M  V30 23 2 22 24
M  V30 24 1 17 13
M  V30 25 1 1 25
M  V30 26 1 1 26
M  V30 27 1 2 27
M  V30 28 1 2 28
M  V30 29 1 3 29
M  V30 30 1 3 30
M  V30 31 1 4 31
M  V30 32 1 4 32
M  V30 33 1 5 33
M  V30 34 1 5 34
M  V30 35 1 6 35 CFG=3
M  V30 36 1 7 36
M  V30 37 1 7 37
M  V30 38 1 10 38
M  V30 39 1 11 39 CFG=3
M  V30 40 1 12 40
M  V30 41 1 12 41
M  V30 42 1 14 42
M  V30 43 1 15 43
M  V30 44 1 16 44
M  V30 45 1 20 45
M  V30 46 1 21 46
M  V30 47 1 21 47
M  V30 48 1 23 48
M  V30 END BOND
M  V30 END CTAB
M  END
