
     RDKit          3D

  0  0  0  0  0  0  0  0  0  0999 V3000
M  V30 BEGIN CTAB
M  V30 COUNTS 40 42 0 0 0
M  V30 BEGIN ATOM
M  V30 1 N -5.60772 1.34773 -1.38527 0
M  V30 2 C -4.49396 1.33507 -1.0507 0
M  V30 3 C -3.08479 1.38852 -0.663509 0
M  V30 4 C -2.50419 2.63163 -0.647564 0
M  V30 5 N -3.30439 3.776 -0.901028 0
M  V30 6 N -1.21076 2.70512 -0.392117 0
M  V30 7 C -0.486225 1.56821 -0.163872 0
M  V30 8 C -0.970574 0.278427 -0.160943 0
M  V30 9 C -2.37174 0.215059 -0.41711 0
M  V30 10 C -3.09161 -1.03795 -0.472296 0
M  V30 11 C -4.50933 -1.16327 0.0768262 0
M  V30 12 C -2.53241 -1.62133 1.01437 0
M  V30 13 C 0.00215783 -0.677515 -0.0653614 0
M  V30 14 N -0.14457 -2.12328 -0.320504 0
M  V30 15 C 1.30613 -0.267463 0.0422904 0
M  V30 16 S 1.19963 1.41739 -0.00398484 0
M  V30 17 C 2.5175 -1.06667 0.192115 0
M  V30 18 O 2.4325 -2.30936 0.270714 0
M  V30 19 C 3.82253 -0.454188 0.255335 0
M  V30 20 C 4.7923 -1.08709 1.04772 0
M  V30 21 C 6.07825 -0.620948 1.17105 0
M  V30 22 C 6.47956 0.515921 0.505343 0
M  V30 23 C 5.55173 1.15413 -0.276544 0
M  V30 24 C 4.24442 0.672989 -0.397404 0
M  V30 25 Cl 8.1337 1.12117 0.660431 0
M  V30 26 H -3.20593 4.67748 -0.395618 0
M  V30 27 H -4.03485 3.71248 -1.63668 0
M  V30 28 H -2.83327 -1.8142 -1.1266 0
M  V30 29 H -5.23313 -1.36403 -0.739781 0
M  V30 30 H -4.7798 -0.457918 0.846027 0
M  V30 31 H -4.60443 -2.17093 0.630684 0
M  V30 32 H -1.89348 -0.93744 1.44166 0
M  V30 33 H -3.48079 -1.51292 1.6886 0
M  V30 34 H -2.48373 -2.67579 0.889181 0
M  V30 35 H 0.142315 -2.81563 0.39355 0
M  V30 36 H -0.527993 -2.46619 -1.21336 0
M  V30 37 H 4.48565 -1.9901 1.58083 0
M  V30 38 H 6.8178 -1.12298 1.78864 0
M  V30 39 H 5.84356 2.04545 -0.806511 0
M  V30 40 H 3.53992 1.19443 -1.04313 0
M  V30 END ATOM
M  V30 BEGIN BOND
M  V30 1 3 1 2
M  V30 2 1 2 3
M  V30 3 2 3 4
M  V30 4 1 4 5
M  V30 5 1 4 6
M  V30 6 2 6 7
M  V30 7 1 7 8
M  V30 8 2 8 9
M  V30 9 1 9 10
M  V30 10 1 10 11
M  V30 11 1 10 12
M  V30 12 1 8 13
M  V30 13 1 13 14
M  V30 14 2 13 15
M  V30 15 1 15 16
M  V30 16 1 15 17
M  V30 17 2 17 18
M  V30 18 1 17 19
M  V30 19 2 19 20
M  V30 20 1 20 21
M  V30 21 2 21 22
M  V30 22 1 22 23
M  V30 23 2 23 24
M  V30 24 1 22 25
M  V30 25 1 9 3
M  V30 26 1 24 19
M  V30 27 1 16 7
M  V30 28 1 5 26
M  V30 29 1 5 27
M  V30 30 1 10 28
M  V30 31 1 11 29
M  V30 32 1 11 30
M  V30 33 1 11 31
M  V30 34 1 12 32
M  V30 35 1 12 33
M  V30 36 1 12 34
M  V30 37 1 14 35
M  V30 38 1 14 36
M  V30 39 1 20 37
M  V30 40 1 21 38
M  V30 41 1 23 39
M  V30 42 1 24 40
M  V30 END BOND
M  V30 END CTAB
M  END
