
     RDKit          3D

  0  0  0  0  0  0  0  0  0  0999 V3000
M  V30 BEGIN CTAB
M  V30 COUNTS 38 37 0 0 0
M  V30 BEGIN ATOM
M  V30 1 N -4.52956 -1.34139 0.919654 0
M  V30 2 C -5.05141 -0.401801 -0.0407003 0
M  V30 3 C -3.91648 0.46175 -0.593574 0
M  V30 4 C -2.92369 -0.484966 -1.25548 0
M  V30 5 C -1.75882 0.292469 -1.83231 0
M  V30 6 S -0.875243 1.21788 -0.570289 0
M  V30 7 S 0.0972572 -0.0422736 0.82516 0
M  V30 8 C 1.78738 -0.409121 0.245333 0
M  V30 9 C 2.55722 0.867165 0.272519 0
M  V30 10 C 3.97671 0.752735 -0.175513 0
M  V30 11 C 4.82309 -0.175007 0.619826 0
M  V30 12 N 4.85826 0.278871 2.00871 0
M  V30 13 C 6.18019 -0.194939 0.043233 0
M  V30 14 O 7.25317 0.183838 0.812173 0
M  V30 15 O 6.36268 -0.551728 -1.13373 0
M  V30 16 C -6.08013 0.465804 0.581431 0
M  V30 17 O -6.38853 0.287576 1.91351 0
M  V30 18 O -6.6318 1.33726 -0.146872 0
M  V30 19 H -4.98627 -2.27163 0.882468 0
M  V30 20 H -4.44194 -0.953244 1.87578 0
M  V30 21 H -5.54193 -0.951327 -0.861039 0
M  V30 22 H -3.42081 1.01467 0.203116 0
M  V30 23 H -4.33233 1.17617 -1.32931 0
M  V30 24 H -2.61923 -1.2117 -0.484343 0
M  V30 25 H -3.48277 -1.02291 -2.04628 0
M  V30 26 H -1.11341 -0.42863 -2.37799 0
M  V30 27 H -2.15967 0.996106 -2.56633 0
M  V30 28 H 1.65831 -0.834372 -0.76419 0
M  V30 29 H 2.25826 -1.15559 0.912462 0
M  V30 30 H 2.02583 1.63134 -0.330627 0
M  V30 31 H 2.52661 1.25093 1.32458 0
M  V30 32 H 4.0016 0.419862 -1.23737 0
M  V30 33 H 4.44815 1.75546 -0.154641 0
M  V30 34 H 4.46184 -1.22198 0.630018 0
M  V30 35 H 5.84488 0.390706 2.33586 0
M  V30 36 H 4.31168 -0.364647 2.63282 0
M  V30 37 H 7.96361 -0.462521 1.12565 0
M  V30 38 H -7.14269 -0.300819 2.24907 0
M  V30 END ATOM
M  V30 BEGIN BOND
M  V30 1 1 1 2
M  V30 2 1 2 3
M  V30 3 1 3 4
M  V30 4 1 4 5
M  V30 5 1 5 6
M  V30 6 1 6 7
M  V30 7 1 7 8
M  V30 8 1 8 9
M  V30 9 1 9 10
M  V30 10 1 10 11
M  V30 11 1 11 12
M  V30 12 1 11 13
M  V30 13 1 13 14
M  V30 14 2 13 15
M  V30 15 1 2 16
M  V30 16 1 16 17
M  V30 17 2 16 18
M  V30 18 1 1 19
M  V30 19 1 1 20
M  V30 20 1 2 21
M  V30 21 1 3 22
M  V30 22 1 3 23
M  V30 23 1 4 24
M  V30 24 1 4 25
M  V30 25 1 5 26
M  V30 26 1 5 27
M  V30 27 1 8 28
M  V30 28 1 8 29
M  V30 29 1 9 30
M  V30 30 1 9 31
M  V30 31 1 10 32
M  V30 32 1 10 33
M  V30 33 1 11 34
M  V30 34 1 12 35
M  V30 35 1 12 36
M  V30 36 1 14 37
M  V30 37 1 17 38
M  V30 END BOND
M  V30 END CTAB
M  END
