
     RDKit          3D

  0  0  0  0  0  0  0  0  0  0999 V3000
M  V30 BEGIN CTAB
M  V30 COUNTS 23 23 0 0 0
M  V30 BEGIN ATOM
M  V30 1 N 4.09138 0.977046 0.182008 0
M  V30 2 N 2.7968 0.752079 -0.287653 0
M  V30 3 C 2.23597 -0.389123 -0.326682 0
M  V30 4 N 0.913746 -0.589682 -0.810976 0
M  V30 5 C -0.232356 -0.0718427 -0.15776 0
M  V30 6 C -0.140377 0.667501 1.00085 0
M  V30 7 N -1.26877 1.15086 1.60298 0
M  V30 8 C -2.49394 0.935994 1.10963 0
M  V30 9 C -2.6176 0.200483 -0.0471798 0
M  V30 10 C -1.49181 -0.29482 -0.668167 0
M  V30 11 C -3.99206 -0.0389558 -0.598044 0
M  V30 12 N 2.94399 -1.53427 0.129961 0
M  V30 13 H 4.39948 1.96494 0.292053 0
M  V30 14 H 4.77152 0.230114 0.430353 0
M  V30 15 H 0.831908 -1.15325 -1.69595 0
M  V30 16 H 0.836525 0.851662 1.41416 0
M  V30 17 H -3.39492 1.3262 1.59703 0
M  V30 18 H -1.61775 -0.863936 -1.56719 0
M  V30 19 H -3.95541 -0.493196 -1.59655 0
M  V30 20 H -4.5677 -0.643916 0.134009 0
M  V30 21 H -4.51131 0.95372 -0.692086 0
M  V30 22 H 2.74795 -2.035 1.02315 0
M  V30 23 H 3.71471 -1.9026 -0.467941 0
M  V30 END ATOM
M  V30 BEGIN BOND
M  V30 1 1 1 2
M  V30 2 2 2 3
M  V30 3 1 3 4
M  V30 4 1 4 5
M  V30 5 2 5 6
M  V30 6 1 6 7
M  V30 7 2 7 8
M  V30 8 1 8 9
M  V30 9 2 9 10
M  V30 10 1 9 11
M  V30 11 1 3 12
M  V30 12 1 10 5
M  V30 13 1 1 13
M  V30 14 1 1 14
M  V30 15 1 4 15
M  V30 16 1 6 16
M  V30 17 1 8 17
M  V30 18 1 10 18
M  V30 19 1 11 19
M  V30 20 1 11 20
M  V30 21 1 11 21
M  V30 22 1 12 22
M  V30 23 1 12 23
M  V30 END BOND
M  V30 END CTAB
M  END
