
     RDKit          3D

  0  0  0  0  0  0  0  0  0  0999 V3000
M  V30 BEGIN CTAB
M  V30 COUNTS 22 22 0 0 0
M  V30 BEGIN ATOM
M  V30 1 N 3.52495 1.93367 0.467391 0
M  V30 2 N 2.26628 2.02351 0.138788 0
M  V30 3 C 0.967514 2.11625 -0.20029 0
M  V30 4 O 0.37379 3.1263 -0.669706 0
M  V30 5 C 0.0378399 0.955145 -0.0525565 0
M  V30 6 S -1.6424 0.883627 -0.459955 0
M  V30 7 C -1.93216 -0.744436 -0.0553044 0
M  V30 8 N -0.746403 -1.13869 0.36646 0
M  V30 9 C 0.26043 -0.312086 0.381619 0
M  V30 10 C 1.63517 -0.779844 0.854608 0
M  V30 11 C -3.19489 -1.56587 -0.16158 0
M  V30 12 N -3.29901 -2.05173 -1.5427 0
M  V30 13 H 3.82115 2.07725 1.45586 0
M  V30 14 H 4.13688 1.25638 -0.0597564 0
M  V30 15 H 2.52121 3.32263 -0.23634 0
M  V30 16 H 2.25586 -0.724877 -0.0441651 0
M  V30 17 H 1.59818 -1.88228 1.10714 0
M  V30 18 H 1.95024 -0.238082 1.74195 0
M  V30 19 H -3.07619 -2.50971 0.447285 0
M  V30 20 H -4.05529 -0.973861 0.0894539 0
M  V30 21 H -4.1834 -1.7099 -1.92778 0
M  V30 22 H -3.21974 -3.06339 -1.64041 0
M  V30 END ATOM
M  V30 BEGIN BOND
M  V30 1 1 1 2
M  V30 2 1 2 3
M  V30 3 2 3 4
M  V30 4 1 3 5
M  V30 5 1 5 6
M  V30 6 1 6 7
M  V30 7 2 7 8
M  V30 8 1 8 9
M  V30 9 1 9 10
M  V30 10 1 7 11
M  V30 11 1 11 12
M  V30 12 2 9 5
M  V30 13 1 1 13
M  V30 14 1 1 14
M  V30 15 1 2 15
M  V30 16 1 10 16
M  V30 17 1 10 17
M  V30 18 1 10 18
M  V30 19 1 11 19
M  V30 20 1 11 20
M  V30 21 1 12 21
M  V30 22 1 12 22
M  V30 END BOND
M  V30 END CTAB
M  END
