
     RDKit          3D

  0  0  0  0  0  0  0  0  0  0999 V3000
M  V30 BEGIN CTAB
M  V30 COUNTS 40 43 0 0 0
M  V30 BEGIN ATOM
M  V30 1 N 5.60225 -0.148802 -0.664535 0
M  V30 2 C 4.21015 -0.0740407 -0.53771 0
M  V30 3 C 3.51826 -1.0916 0.0343072 0
M  V30 4 C 2.14598 -1.04651 0.147481 0
M  V30 5 C 1.39479 0.0342662 -0.30757 0
M  V30 6 C 2.141 1.06017 -0.884229 0
M  V30 7 C 3.51468 1.03695 -1.01366 0
M  V30 8 C -0.0618647 0.0216545 -0.159009 0
M  V30 9 C -0.677851 1.38987 -0.330681 0
M  V30 10 C -2.17695 1.26909 -0.240767 0
M  V30 11 C -2.71815 0.298481 -1.28353 0
M  V30 12 C -2.12416 -1.07603 -1.02089 0
M  V30 13 C -2.46979 -1.5559 0.364536 0
M  V30 14 C -1.95331 -0.530389 1.37479 0
M  V30 15 N -2.21417 -0.950592 2.72703 0
M  V30 16 C -2.63426 0.782539 1.09935 0
M  V30 17 C -0.459988 -0.507529 1.19741 0
M  V30 18 C -0.643419 -0.966617 -1.20176 0
M  V30 19 H 6.04685 -0.005283 -1.58917 0
M  V30 20 H 6.18589 -0.361954 0.157209 0
M  V30 21 H 4.09987 -1.9471 0.415925 0
M  V30 22 H 1.69909 -1.92546 0.623437 0
M  V30 23 H 1.58237 1.92206 -1.24649 0
M  V30 24 H 4.02575 1.87522 -1.49317 0
M  V30 25 H -0.361876 1.97562 0.572066 0
M  V30 26 H -0.430224 1.91929 -1.23331 0
M  V30 27 H -2.63126 2.28457 -0.402054 0
M  V30 28 H -3.80651 0.296364 -1.24871 0
M  V30 29 H -2.34993 0.593985 -2.30006 0
M  V30 30 H -2.54774 -1.774 -1.75603 0
M  V30 31 H -3.53002 -1.7687 0.482242 0
M  V30 32 H -1.88375 -2.48022 0.554047 0
M  V30 33 H -2.02254 -0.138583 3.35356 0
M  V30 34 H -1.56681 -1.70954 3.02762 0
M  V30 35 H -2.50453 1.51729 1.89391 0
M  V30 36 H -3.72702 0.568009 1.00345 0
M  V30 37 H 0.0662798 0.0241375 2.00305 0
M  V30 38 H -0.137554 -1.56589 1.24433 0
M  V30 39 H -0.490029 -0.465503 -2.19991 0
M  V30 40 H -0.109494 -1.91044 -1.16249 0
M  V30 END ATOM
M  V30 BEGIN BOND
M  V30 1 1 1 2
M  V30 2 2 2 3
M  V30 3 1 3 4
M  V30 4 2 4 5
M  V30 5 1 5 6
M  V30 6 2 6 7
M  V30 7 1 5 8
M  V30 8 1 8 9
M  V30 9 1 9 10
M  V30 10 1 10 11
M  V30 11 1 11 12
M  V30 12 1 12 13
M  V30 13 1 13 14
M  V30 14 1 14 15
M  V30 15 1 14 16
M  V30 16 1 14 17
M  V30 17 1 12 18
M  V30 18 1 7 2
M  V30 19 1 17 8
M  V30 20 1 18 8
M  V30 21 1 16 10
M  V30 22 1 1 19
M  V30 23 1 1 20
M  V30 24 1 3 21
M  V30 25 1 4 22
M  V30 26 1 6 23
M  V30 27 1 7 24
M  V30 28 1 9 25
M  V30 29 1 9 26
M  V30 30 1 10 27
M  V30 31 1 11 28
M  V30 32 1 11 29
M  V30 33 1 12 30
M  V30 34 1 13 31
M  V30 35 1 13 32
M  V30 36 1 15 33
M  V30 37 1 15 34
M  V30 38 1 16 35
M  V30 39 1 16 36
M  V30 40 1 17 37
M  V30 41 1 17 38
M  V30 42 1 18 39
M  V30 43 1 18 40
M  V30 END BOND
M  V30 END CTAB
M  END
