
     RDKit          3D

  0  0  0  0  0  0  0  0  0  0999 V3000
M  V30 BEGIN CTAB
M  V30 COUNTS 25 25 0 0 0
M  V30 BEGIN ATOM
M  V30 1 C 4.23694 0.309423 0.363269 0
M  V30 2 C 3.08237 -0.649129 0.066607 0
M  V30 3 C 1.79896 0.132302 0.229053 0
M  V30 4 N 0.686566 -0.750144 -0.0454347 0
M  V30 5 C -0.668542 -0.291001 0.0289014 0
M  V30 6 C -1.69294 -1.1702 -0.241653 0
M  V30 7 C -3.0177 -0.720461 -0.168714 0
M  V30 8 N -4.05624 -1.63361 -0.448822 0
M  V30 9 N -3.28753 0.550881 0.160514 0
M  V30 10 C -2.27603 1.39193 0.420446 0
M  V30 11 N -1.00572 0.958301 0.34987 0
M  V30 12 N -2.48283 2.75303 0.775829 0
M  V30 13 F 3.12396 -1.69421 0.947234 0
M  V30 14 H 5.18181 -0.257373 0.493895 0
M  V30 15 H 4.29233 1.01057 -0.495427 0
M  V30 16 H 3.9538 0.890999 1.25683 0
M  V30 17 H 3.23454 -0.975797 -0.981133 0
M  V30 18 H 1.76545 0.941363 -0.55663 0
M  V30 19 H 1.71924 0.615261 1.211 0
M  V30 20 H 0.907922 -1.74016 -0.301353 0
M  V30 21 H -1.45862 -2.18879 -0.50479 0
M  V30 22 H -4.60259 -2.04701 0.35566 0
M  V30 23 H -4.30658 -1.91823 -1.43282 0
M  V30 24 H -2.70929 2.93946 1.77907 0
M  V30 25 H -2.41927 3.54259 0.097868 0
M  V30 END ATOM
M  V30 BEGIN BOND
M  V30 1 1 1 2
M  V30 2 1 2 3
M  V30 3 1 3 4
M  V30 4 1 4 5
M  V30 5 2 5 6
M  V30 6 1 6 7
M  V30 7 1 7 8
M  V30 8 2 7 9
M  V30 9 1 9 10
M  V30 10 2 10 11
M  V30 11 1 10 12
M  V30 12 1 2 13
M  V30 13 1 11 5
M  V30 14 1 1 14
M  V30 15 1 1 15
M  V30 16 1 1 16
M  V30 17 1 2 17
M  V30 18 1 3 18
M  V30 19 1 3 19
M  V30 20 1 4 20
M  V30 21 1 6 21
M  V30 22 1 8 22
M  V30 23 1 8 23
M  V30 24 1 12 24
M  V30 25 1 12 25
M  V30 END BOND
M  V30 END CTAB
M  END
