
     RDKit          3D

  0  0  0  0  0  0  0  0  0  0999 V3000
M  V30 BEGIN CTAB
M  V30 COUNTS 29 30 0 0 0
M  V30 BEGIN ATOM
M  V30 1 N 5.76469 0.835128 0.13489 0
M  V30 2 N 4.4572 0.344614 -0.136526 0
M  V30 3 C 3.47889 0.37497 0.882787 0
M  V30 4 O 3.79841 0.843202 2.02081 0
M  V30 5 C 2.12328 -0.110613 0.672022 0
M  V30 6 C 1.18371 -0.0663139 1.7033 0
M  V30 7 C -0.101203 -0.523409 1.51309 0
M  V30 8 C -0.505005 -1.0407 0.298103 0
M  V30 9 C 0.439148 -1.07101 -0.694278 0
M  V30 10 C 1.74474 -0.614183 -0.52458 0
M  V30 11 C -1.87116 -1.52816 0.0913443 0
M  V30 12 N -2.77452 -0.508987 -0.379791 0
M  V30 13 C -3.06371 -0.161191 -1.6567 0
M  V30 14 N -3.95993 0.84098 -1.64045 0
M  V30 15 C -4.24025 1.13 -0.352909 0
M  V30 16 N -3.4899 0.276898 0.371537 0
M  V30 17 N -5.11665 2.10034 0.171567 0
M  V30 18 H 5.79913 1.15597 1.1071 0
M  V30 19 H 6.44299 0.0182348 0.0723933 0
M  V30 20 H 4.28766 -0.0151166 -1.0826 0
M  V30 21 H 1.51326 0.338353 2.64075 0
M  V30 22 H -0.786384 -0.458697 2.36534 0
M  V30 23 H 0.186863 -1.46123 -1.66059 0
M  V30 24 H 2.44263 -0.669981 -1.36143 0
M  V30 25 H -1.907 -2.39748 -0.629194 0
M  V30 26 H -2.3159 -1.94186 1.03252 0
M  V30 27 H -2.65838 -0.59785 -2.53515 0
M  V30 28 H -5.92506 2.41451 -0.3824 0
M  V30 29 H -4.94758 2.49358 1.10733 0
M  V30 END ATOM
M  V30 BEGIN BOND
M  V30 1 1 1 2
M  V30 2 1 2 3
M  V30 3 2 3 4
M  V30 4 1 3 5
M  V30 5 2 5 6
M  V30 6 1 6 7
M  V30 7 2 7 8
M  V30 8 1 8 9
M  V30 9 2 9 10
M  V30 10 1 8 11
M  V30 11 1 11 12
M  V30 12 1 12 13
M  V30 13 2 13 14
M  V30 14 1 14 15
M  V30 15 2 15 16
M  V30 16 1 15 17
M  V30 17 1 10 5
M  V30 18 1 16 12
M  V30 19 1 1 18
M  V30 20 1 1 19
M  V30 21 1 2 20
M  V30 22 1 6 21
M  V30 23 1 7 22
M  V30 24 1 9 23
M  V30 25 1 10 24
M  V30 26 1 11 25
M  V30 27 1 11 26
M  V30 28 1 13 27
M  V30 29 1 17 28
M  V30 30 1 17 29
M  V30 END BOND
M  V30 END CTAB
M  END
