
     RDKit          3D

  0  0  0  0  0  0  0  0  0  0999 V3000
M  V30 BEGIN CTAB
M  V30 COUNTS 114 120 0 0 0
M  V30 BEGIN ATOM
M  V30 1 C 2.42289 -5.53887 2.3301 0
M  V30 2 C 2.20344 -4.43294 1.29666 0
M  V30 3 C 1.04965 -3.61513 1.76557 0
M  V30 4 O 0.73967 -2.57265 0.908823 0
M  V30 5 C 0.351524 -2.72148 -0.505459 0
M  V30 6 C -0.962203 -2.94018 -0.850756 0
M  V30 7 C -2.25185 -2.87667 -0.0388314 0
M  V30 8 C -2.77509 -1.45809 0.126593 0
M  V30 9 C -3.65631 -1.19985 -0.928202 0
M  V30 10 C -4.22818 0.0217877 -1.19105 0
M  V30 11 N -5.10684 0.220787 -2.26358 0
M  V30 12 C -6.10644 1.18309 -2.41239 0
M  V30 13 N -6.46186 2.13603 -1.54074 0
M  V30 14 C -7.44051 3.02822 -1.75199 0
M  V30 15 N -7.76316 4.02299 -0.759452 0
M  V30 16 N -8.13078 2.99478 -2.90092 0
M  V30 17 C -7.8186 2.06208 -3.81104 0
M  V30 18 Cl -8.72748 2.02427 -5.30627 0
M  V30 19 N -6.8341 1.1871 -3.56414 0
M  V30 20 C -3.83263 0.973794 -0.303531 0
M  V30 21 C -2.95149 0.798894 0.77992 0
M  V30 22 C -2.62312 2.18516 1.31032 0
M  V30 23 C -1.1949 2.64469 1.27932 0
M  V30 24 C -0.758588 2.8162 2.59933 0
M  V30 25 C 0.527871 3.03382 2.99391 0
M  V30 26 C 1.4107 3.07248 1.95133 0
M  V30 27 C 1.06996 2.91516 0.599534 0
M  V30 28 C 2.35296 2.8525 -0.212316 0
M  V30 29 C 2.87178 1.42633 -0.367475 0
M  V30 30 C 3.75689 1.18187 0.678819 0
M  V30 31 C 4.33115 -0.0522736 0.966056 0
M  V30 32 N 5.20435 -0.201852 2.03745 0
M  V30 33 C 5.88328 -1.33827 2.46089 0
M  V30 34 N 6.69469 -1.23246 3.5593 0
M  V30 35 C 7.34997 -2.31315 3.97524 0
M  V30 36 N 8.18669 -2.17956 5.12227 0
M  V30 37 N 7.22899 -3.5038 3.33649 0
M  V30 38 C 6.43663 -3.61108 2.26195 0
M  V30 39 Cl 6.22438 -5.10781 1.37808 0
M  V30 40 N 5.78708 -2.51491 1.86002 0
M  V30 41 C 3.9123 -1.00689 0.0868931 0
M  V30 42 C 3.02453 -0.837445 -0.989885 0
M  V30 43 C 2.71464 -2.21567 -1.53215 0
M  V30 44 C 1.27417 -2.66416 -1.5366 0
M  V30 45 C 0.852627 -2.84615 -2.85196 0
M  V30 46 C -0.43328 -3.07794 -3.25012 0
M  V30 47 C -1.30258 -3.11209 -2.19357 0
M  V30 48 C 2.49874 0.406785 -1.23052 0
M  V30 49 O 1.59259 0.66959 -2.3535 0
M  V30 50 C 1.96027 1.08399 -3.61579 0
M  V30 51 C 2.87071 0.208262 -4.40119 0
M  V30 52 C 3.18284 0.817711 -5.77543 0
M  V30 53 C -0.251128 2.70958 0.251501 0
M  V30 54 O -0.661801 2.59414 -1.16371 0
M  V30 55 C -0.82845 3.62845 -2.03374 0
M  V30 56 C -1.74267 4.7481 -1.86072 0
M  V30 57 C -3.18652 4.4392 -1.82954 0
M  V30 58 C -2.42555 -0.446343 1.00251 0
M  V30 59 O -1.531 -0.712196 2.14411 0
M  V30 60 C -1.88326 -1.28031 3.3222 0
M  V30 61 C -2.89636 -0.792021 4.24925 0
M  V30 62 C -2.73437 0.508195 4.91906 0
M  V30 63 H 2.91877 -6.40682 1.82776 0
M  V30 64 H 3.03657 -5.17479 3.15747 0
M  V30 65 H 1.45859 -5.90984 2.72342 0
M  V30 66 H 1.89442 -4.92954 0.330894 0
M  V30 67 H 3.11978 -3.87155 1.1159 0
M  V30 68 H 0.16865 -4.30036 1.81722 0
M  V30 69 H 1.19332 -3.21733 2.78105 0
M  V30 70 H -3.0662 -3.47068 -0.650632 0
M  V30 71 H -2.35806 -3.53666 0.818956 0
M  V30 72 H -3.97523 -2.00445 -1.63514 0
M  V30 73 H -4.9692 -0.471682 -3.06648 0
M  V30 74 H -7.80915 4.99783 -1.06395 0
M  V30 75 H -7.924 3.65731 0.197971 0
M  V30 76 H -4.29147 1.97428 -0.487648 0
M  V30 77 H -2.99929 2.22222 2.35122 0
M  V30 78 H -3.33452 2.97844 0.887423 0
M  V30 79 H -1.50849 2.81754 3.43891 0
M  V30 80 H 0.821594 3.16553 4.02415 0
M  V30 81 H 2.4725 3.26557 2.25521 0
M  V30 82 H 2.46137 3.51419 -1.07346 0
M  V30 83 H 3.13386 3.44991 0.410863 0
M  V30 84 H 4.08643 2.00658 1.36034 0
M  V30 85 H 5.3761 0.678051 2.6158 0
M  V30 86 H 8.92707 -2.88017 5.3174 0
M  V30 87 H 8.05127 -1.3815 5.75839 0
M  V30 88 H 4.33427 -2.0285 0.240447 0
M  V30 89 H 3.0982 -2.24813 -2.57374 0
M  V30 90 H 3.40665 -3.01773 -1.1093 0
M  V30 91 H 1.62344 -2.8152 -3.67799 0
M  V30 92 H -0.724484 -3.21879 -4.27233 0
M  V30 93 H -2.37367 -3.32044 -2.48915 0
M  V30 94 H 1.0568 1.37962 -4.14591 0
M  V30 95 H 2.53066 2.05882 -3.46903 0
M  V30 96 H 3.80014 -0.0546919 -3.89731 0
M  V30 97 H 2.34001 -0.737517 -4.63391 0
M  V30 98 H 2.42192 0.580209 -6.52058 0
M  V30 99 H 4.17421 0.418468 -6.1369 0
M  V30 100 H 3.34715 1.90577 -5.63188 0
M  V30 101 H 0.223162 4.09925 -2.15232 0
M  V30 102 H -0.926918 3.14091 -3.05969 0
M  V30 103 H -1.42233 5.32202 -0.920857 0
M  V30 104 H -1.51289 5.48951 -2.70524 0
M  V30 105 H -3.57346 4.64562 -0.800815 0
M  V30 106 H -3.7208 5.14395 -2.52954 0
M  V30 107 H -3.43402 3.43392 -2.20818 0
M  V30 108 H -0.908945 -1.39789 3.91281 0
M  V30 109 H -2.1327 -2.38353 3.09168 0
M  V30 110 H -3.01442 -1.56935 5.08378 0
M  V30 111 H -3.93764 -0.778224 3.76925 0
M  V30 112 H -1.65921 0.850667 4.88648 0
M  V30 113 H -3.40118 1.30002 4.51377 0
M  V30 114 H -2.96551 0.435373 5.99645 0
M  V30 END ATOM
M  V30 BEGIN BOND
M  V30 1 1 1 2
M  V30 2 1 2 3
M  V30 3 1 3 4
M  V30 4 1 4 5
M  V30 5 2 5 6
M  V30 6 1 6 7
M  V30 7 1 7 8
M  V30 8 2 8 9
M  V30 9 1 9 10
M  V30 10 1 10 11
M  V30 11 1 11 12
M  V30 12 2 12 13
M  V30 13 1 13 14
M  V30 14 1 14 15
M  V30 15 2 14 16
M  V30 16 1 16 17
M  V30 17 1 17 18
M  V30 18 2 17 19
M  V30 19 2 10 20
M  V30 20 1 20 21
M  V30 21 1 21 22
M  V30 22 1 22 23
M  V30 23 2 23 24
M  V30 24 1 24 25
M  V30 25 2 25 26
M  V30 26 1 26 27
M  V30 27 1 27 28
M  V30 28 1 28 29
M  V30 29 2 29 30
M  V30 30 1 30 31
M  V30 31 1 31 32
M  V30 32 1 32 33
M  V30 33 2 33 34
M  V30 34 1 34 35
M  V30 35 1 35 36
M  V30 36 2 35 37
M  V30 37 1 37 38
M  V30 38 1 38 39
M  V30 39 2 38 40
M  V30 40 2 31 41
M  V30 41 1 41 42
M  V30 42 1 42 43
M  V30 43 1 43 44
M  V30 44 2 44 45
M  V30 45 1 45 46
M  V30 46 2 46 47
M  V30 47 2 42 48
M  V30 48 1 48 49
M  V30 49 1 49 50
M  V30 50 1 50 51
M  V30 51 1 51 52
M  V30 52 2 27 53
M  V30 53 1 53 54
M  V30 54 1 54 55
M  V30 55 1 55 56
M  V30 56 1 56 57
M  V30 57 2 21 58
M  V30 58 1 58 59
M  V30 59 1 59 60
M  V30 60 1 60 61
M  V30 61 1 61 62
M  V30 62 1 44 5
M  V30 63 1 47 6
M  V30 64 1 58 8
M  V30 65 1 19 12
M  V30 66 1 53 23
M  V30 67 1 48 29
M  V30 68 1 40 33
M  V30 69 1 1 63
M  V30 70 1 1 64
M  V30 71 1 1 65
M  V30 72 1 2 66
M  V30 73 1 2 67
M  V30 74 1 3 68
M  V30 75 1 3 69
M  V30 76 1 7 70
M  V30 77 1 7 71
M  V30 78 1 9 72
M  V30 79 1 11 73
M  V30 80 1 15 74
M  V30 81 1 15 75
M  V30 82 1 20 76
M  V30 83 1 22 77
M  V30 84 1 22 78
M  V30 85 1 24 79
M  V30 86 1 25 80
M  V30 87 1 26 81
M  V30 88 1 28 82
M  V30 89 1 28 83
M  V30 90 1 30 84
M  V30 91 1 32 85
M  V30 92 1 36 86
M  V30 93 1 36 87
M  V30 94 1 41 88
M  V30 95 1 43 89
M  V30 96 1 43 90
M  V30 97 1 45 91
M  V30 98 1 46 92
M  V30 99 1 47 93
M  V30 100 1 50 94
M  V30 101 1 50 95
M  V30 102 1 51 96
M  V30 103 1 51 97
M  V30 104 1 52 98
M  V30 105 1 52 99
M  V30 106 1 52 100
M  V30 107 1 55 101
M  V30 108 1 55 102
M  V30 109 1 56 103
M  V30 110 1 56 104
M  V30 111 1 57 105
M  V30 112 1 57 106
M  V30 113 1 57 107
M  V30 114 1 60 108
M  V30 115 1 60 109
M  V30 116 1 61 110
M  V30 117 1 61 111
M  V30 118 1 62 112
M  V30 119 1 62 113
M  V30 120 1 62 114
M  V30 END BOND
M  V30 END CTAB
M  END
