
     RDKit          3D

  0  0  0  0  0  0  0  0  0  0999 V3000
M  V30 BEGIN CTAB
M  V30 COUNTS 27 27 0 0 0
M  V30 BEGIN ATOM
M  V30 1 N -2.61937 1.13732 -1.2147 0
M  V30 2 C -1.66207 1.60412 -0.304218 0
M  V30 3 C -0.741059 0.520555 0.216785 0 CFG=1
M  V30 4 C -1.47646 -0.565058 0.929897 0
M  V30 5 C -0.644616 -1.83548 0.97027 0
M  V30 6 C 0.824533 -1.51703 0.781432 0
M  V30 7 N 1.08619 -0.94205 -0.519855 0
M  V30 8 C 0.0460256 -0.0312012 -0.949132 0
M  V30 9 S 2.62458 -0.142105 -0.495111 0
M  V30 10 O 2.87398 0.381935 -1.86641 0
M  V30 11 O 3.66615 -1.13478 -0.0727068 0
M  V30 12 N 2.61959 1.14768 0.661608 0
M  V30 13 H -3.13393 0.335447 -1.07773 0
M  V30 14 H -2.70028 1.62629 -2.06117 0
M  V30 15 H -1.06894 2.38804 -0.816562 0
M  V30 16 H -2.20344 2.11774 0.517467 0
M  V30 17 H -0.00563312 0.963938 0.922981 0
M  V30 18 H -2.45547 -0.828339 0.461015 0
M  V30 19 H -1.6736 -0.291944 2.00307 0
M  V30 20 H -0.732137 -2.34031 1.95645 0
M  V30 21 H -0.963804 -2.56798 0.200254 0
M  V30 22 H 1.13229 -0.845999 1.60641 0
M  V30 23 H 1.36444 -2.48888 0.812111 0
M  V30 24 H 0.449154 0.828728 -1.53311 0
M  V30 25 H -0.647467 -0.577023 -1.60099 0
M  V30 26 H 2.72465 2.04603 0.148535 0
M  V30 27 H 3.31668 1.01035 1.4145 0
M  V30 END ATOM
M  V30 BEGIN BOND
M  V30 1 1 1 2
M  V30 2 1 2 3
M  V30 3 1 3 4
M  V30 4 1 4 5
M  V30 5 1 5 6
M  V30 6 1 6 7
M  V30 7 1 7 8
M  V30 8 1 7 9
M  V30 9 2 9 10
M  V30 10 2 9 11
M  V30 11 1 9 12
M  V30 12 1 8 3
M  V30 13 1 1 13
M  V30 14 1 1 14
M  V30 15 1 2 15
M  V30 16 1 2 16
M  V30 17 1 3 17 CFG=1
M  V30 18 1 4 18
M  V30 19 1 4 19
M  V30 20 1 5 20
M  V30 21 1 5 21
M  V30 22 1 6 22
M  V30 23 1 6 23
M  V30 24 1 8 24
M  V30 25 1 8 25
M  V30 26 1 12 26
M  V30 27 1 12 27
M  V30 END BOND
M  V30 END CTAB
M  END
