
     RDKit          3D

  0  0  0  0  0  0  0  0  0  0999 V3000
M  V30 BEGIN CTAB
M  V30 COUNTS 21 21 0 0 0
M  V30 BEGIN ATOM
M  V30 1 N -3.47353 0.0955555 0.0437915 0
M  V30 2 C -2.39154 -0.829082 0.15117 0
M  V30 3 C -1.11722 -0.0647864 0.068506 0
M  V30 4 C -1.09462 1.29126 -0.0845098 0
M  V30 5 C 0.108173 1.95715 -0.15626 0
M  V30 6 N 1.26041 1.25901 -0.0741743 0
M  V30 7 C 1.28831 -0.0690725 0.0758295 0
M  V30 8 C 0.0827153 -0.735223 0.147601 0
M  V30 9 C 2.58194 -0.80947 0.163097 0
M  V30 10 N 3.66602 0.148613 0.0580555 0
M  V30 11 H -4.26441 -0.0699014 0.674481 0
M  V30 12 H -3.69152 0.429953 -0.897072 0
M  V30 13 H -2.42038 -1.29988 1.15347 0
M  V30 14 H -2.40081 -1.63121 -0.601574 0
M  V30 15 H -2.04574 1.83234 -0.148292 0
M  V30 16 H 0.150361 3.02445 -0.276626 0
M  V30 17 H 0.0978197 -1.82831 0.27104 0
M  V30 18 H 2.69607 -1.29739 1.16805 0
M  V30 19 H 2.60364 -1.58343 -0.601459 0
M  V30 20 H 3.8467 0.366464 -0.945292 0
M  V30 21 H 4.51762 -0.187034 0.528959 0
M  V30 END ATOM
M  V30 BEGIN BOND
M  V30 1 1 1 2
M  V30 2 1 2 3
M  V30 3 2 3 4
M  V30 4 1 4 5
M  V30 5 2 5 6
M  V30 6 1 6 7
M  V30 7 2 7 8
M  V30 8 1 7 9
M  V30 9 1 9 10
M  V30 10 1 8 3
M  V30 11 1 1 11
M  V30 12 1 1 12
M  V30 13 1 2 13
M  V30 14 1 2 14
M  V30 15 1 4 15
M  V30 16 1 5 16
M  V30 17 1 8 17
M  V30 18 1 9 18
M  V30 19 1 9 19
M  V30 20 1 10 20
M  V30 21 1 10 21
M  V30 END BOND
M  V30 END CTAB
M  END
