
     RDKit          3D

  0  0  0  0  0  0  0  0  0  0999 V3000
M  V30 BEGIN CTAB
M  V30 COUNTS 39 40 0 0 0
M  V30 BEGIN ATOM
M  V30 1 N -4.78395 -3.00417 1.09725 0
M  V30 2 C -3.81388 -2.07605 0.621817 0
M  V30 3 N -2.58736 -2.44624 0.226128 0
M  V30 4 C -1.67111 -1.56069 -0.219248 0
M  V30 5 C -0.340906 -2.02425 -0.644556 0
M  V30 6 O 0.678657 -1.08776 -0.354861 0
M  V30 7 C 2.00789 -1.30192 -0.664219 0
M  V30 8 O 2.25956 -2.40786 -1.23537 0
M  V30 9 C 3.09445 -0.371869 -0.384492 0
M  V30 10 C 2.84672 0.834782 0.244083 0
M  V30 11 C 3.90264 1.68854 0.497078 0
M  V30 12 C 5.19292 1.30756 0.109744 0
M  V30 13 C 5.45782 0.11505 -0.51438 0
M  V30 14 C 4.37942 -0.711665 -0.750687 0
M  V30 15 N 4.56299 -1.97052 -1.39539 0
M  V30 16 N 3.74115 2.9349 1.13215 0 CHG=1
M  V30 17 O 4.72314 3.66065 1.32832 0
M  V30 18 O 2.48839 3.32083 1.52211 0 CHG=-1
M  V30 19 N -2.03818 -0.268027 -0.253684 0
M  V30 20 C -3.26597 0.135842 0.137775 0
M  V30 21 N -4.1831 -0.772744 0.587092 0
M  V30 22 N -3.69493 1.48169 0.122994 0
M  V30 23 C -4.25202 2.05638 -1.06467 0
M  V30 24 C -3.57013 2.27568 1.31948 0
M  V30 25 H -5.5362 -2.76491 1.75316 0
M  V30 26 H -4.68438 -3.99096 0.724901 0
M  V30 27 H -0.112615 -2.9513 -0.0782684 0
M  V30 28 H -0.402884 -2.22705 -1.74098 0
M  V30 29 H 1.83029 1.10297 0.532966 0
M  V30 30 H 6.02972 1.98153 0.309835 0
M  V30 31 H 6.42973 -0.21608 -0.826768 0
M  V30 32 H 4.68594 -2.80022 -0.780624 0
M  V30 33 H 4.57775 -2.08265 -2.4291 0
M  V30 34 H -3.47621 2.53959 -1.70952 0
M  V30 35 H -4.80094 1.30685 -1.6647 0
M  V30 36 H -4.97461 2.88072 -0.846307 0
M  V30 37 H -2.57646 2.70865 1.48184 0
M  V30 38 H -4.30076 3.11264 1.3655 0
M  V30 39 H -3.82257 1.59205 2.18209 0
M  V30 END ATOM
M  V30 BEGIN BOND
M  V30 1 1 1 2
M  V30 2 2 2 3
M  V30 3 1 3 4
M  V30 4 1 4 5
M  V30 5 1 5 6
M  V30 6 1 6 7
M  V30 7 2 7 8
M  V30 8 1 7 9
M  V30 9 2 9 10
M  V30 10 1 10 11
M  V30 11 2 11 12
M  V30 12 1 12 13
M  V30 13 2 13 14
M  V30 14 1 14 15
M  V30 15 1 11 16
M  V30 16 2 16 17
M  V30 17 1 16 18
M  V30 18 2 4 19
M  V30 19 1 19 20
M  V30 20 2 20 21
M  V30 21 1 20 22
M  V30 22 1 22 23
M  V30 23 1 22 24
M  V30 24 1 21 2
M  V30 25 1 14 9
M  V30 26 1 1 25
M  V30 27 1 1 26
M  V30 28 1 5 27
M  V30 29 1 5 28
M  V30 30 1 10 29
M  V30 31 1 12 30
M  V30 32 1 13 31
M  V30 33 1 15 32
M  V30 34 1 15 33
M  V30 35 1 23 34
M  V30 36 1 23 35
M  V30 37 1 23 36
M  V30 38 1 24 37
M  V30 39 1 24 38
M  V30 40 1 24 39
M  V30 END BOND
M  V30 END CTAB
M  END
