
     RDKit          3D

  0  0  0  0  0  0  0  0  0  0999 V3000
M  V30 BEGIN CTAB
M  V30 COUNTS 32 33 0 0 0
M  V30 BEGIN ATOM
M  V30 1 C 6.28203 0.481349 0.900692 0
M  V30 2 O 5.58526 0.253968 -0.289742 0
M  V30 3 C 4.21727 0.0192435 -0.25342 0
M  V30 4 C 3.51915 -0.206336 -1.42099 0
M  V30 5 C 2.14204 -0.44347 -1.39391 0
M  V30 6 C 1.45882 -0.456614 -0.208788 0
M  V30 7 C 2.13794 -0.234247 0.959837 0
M  V30 8 C 3.51172 0.00206185 0.929979 0
M  V30 9 N 0.0683647 -0.698411 -0.208025 0
M  V30 10 N -0.693444 0.267959 -0.517791 0
M  V30 11 C -2.10667 0.179227 -0.561342 0
M  V30 12 C -2.75575 0.329017 -1.77153 0
M  V30 13 C -4.12567 0.254497 -1.88552 0
M  V30 14 C -4.92694 0.0226137 -0.776037 0
M  V30 15 C -4.26516 -0.125989 0.432109 0
M  V30 16 C -2.89268 -0.0517814 0.549125 0
M  V30 17 N -2.2199 -0.205339 1.79285 0
M  V30 18 N -6.34291 -0.0569659 -0.877887 0
M  V30 19 H 6.29381 -0.454829 1.49532 0
M  V30 20 H 5.75203 1.24721 1.53127 0
M  V30 21 H 7.31198 0.807787 0.671098 0
M  V30 22 H 4.0787 -0.191957 -2.35108 0
M  V30 23 H 1.62474 -0.618701 -2.34966 0
M  V30 24 H 1.66704 -0.229213 1.93471 0
M  V30 25 H 4.03978 0.176859 1.85988 0
M  V30 26 H -2.19971 0.513784 -2.69046 0
M  V30 27 H -4.65331 0.370519 -2.8334 0
M  V30 28 H -4.88185 -0.309717 1.31894 0
M  V30 29 H -1.45275 0.471496 1.9979 0
M  V30 30 H -2.43114 -0.92577 2.49688 0
M  V30 31 H -6.98678 0.402378 -0.199391 0
M  V30 32 H -6.756 -0.590626 -1.65422 0
M  V30 END ATOM
M  V30 BEGIN BOND
M  V30 1 1 1 2
M  V30 2 1 2 3
M  V30 3 2 3 4
M  V30 4 1 4 5
M  V30 5 2 5 6
M  V30 6 1 6 7
M  V30 7 2 7 8
M  V30 8 1 6 9
M  V30 9 2 9 10 CFG=2
M  V30 10 1 10 11
M  V30 11 2 11 12
M  V30 12 1 12 13
M  V30 13 2 13 14
M  V30 14 1 14 15
M  V30 15 2 15 16
M  V30 16 1 16 17
M  V30 17 1 14 18
M  V30 18 1 8 3
M  V30 19 1 16 11
M  V30 20 1 1 19
M  V30 21 1 1 20
M  V30 22 1 1 21
M  V30 23 1 4 22
M  V30 24 1 5 23
M  V30 25 1 7 24
M  V30 26 1 8 25
M  V30 27 1 12 26
M  V30 28 1 13 27
M  V30 29 1 15 28
M  V30 30 1 17 29
M  V30 31 1 17 30
M  V30 32 1 18 31
M  V30 33 1 18 32
M  V30 END BOND
M  V30 END CTAB
M  END
