
     RDKit          3D

  0  0  0  0  0  0  0  0  0  0999 V3000
M  V30 BEGIN CTAB
M  V30 COUNTS 62 65 0 0 0
M  V30 BEGIN ATOM
M  V30 1 C -2.68502 -3.00369 -1.25295 0
M  V30 2 O -2.82727 -2.23212 -0.0576594 0
M  V30 3 C -2.00984 -2.58189 1.01502 0
M  V30 4 O -1.19886 -3.55935 0.8594 0
M  V30 5 C -2.09824 -1.83783 2.26337 0
M  V30 6 C -1.59205 -0.445892 2.28273 0
M  V30 7 C -2.28993 0.498999 1.32336 0
M  V30 8 C -3.61616 0.617525 2.03059 0
M  V30 9 N -3.38844 0.403333 3.29103 0
M  V30 10 O -2.04655 0.150214 3.52354 0
M  V30 11 C -4.88047 0.901748 1.38692 0
M  V30 12 C -6.07254 0.962215 2.05162 0
M  V30 13 C -7.27371 1.23708 1.41461 0
M  V30 14 C -7.26293 1.45629 0.0641103 0
M  V30 15 C -6.0761 1.40427 -0.643286 0
M  V30 16 C -4.90083 1.12876 0.0200931 0
M  V30 17 C -6.10955 1.64559 -2.07586 0
M  V30 18 N -7.37077 1.89426 -2.70487 0
M  V30 19 N -5.03173 1.62969 -2.75714 0
M  V30 20 C -0.120285 -0.290549 2.14071 0
M  V30 21 O 0.469615 0.202141 3.13247 0
M  V30 22 N 0.57005 -0.659241 0.992621 0
M  V30 23 C 1.95732 -0.575748 0.710046 0
M  V30 24 C 2.92344 -0.0944874 1.55348 0
M  V30 25 C 4.2725 -0.0591488 1.15739 0
M  V30 26 C 4.67562 -0.502044 -0.0812843 0
M  V30 27 C 3.67765 -0.978457 -0.898638 0
M  V30 28 N 2.39561 -1.01061 -0.519111 0
M  V30 29 C 6.08612 -0.457882 -0.404581 0
M  V30 30 C 6.58615 0.428741 -1.31843 0
M  V30 31 C 7.96263 0.381507 -1.60138 0
M  V30 32 C 8.80892 -0.513042 -0.996997 0
M  V30 33 C 8.25959 -1.39077 -0.0778401 0
M  V30 34 C 6.92662 -1.38514 0.231238 0
M  V30 35 S 5.55151 1.58824 -2.08177 0
M  V30 36 N 4.71564 2.606 -0.962154 0
M  V30 37 O 4.63534 1.02396 -3.11846 0
M  V30 38 O 6.47925 2.52414 -2.87901 0
M  V30 39 H -2.26499 -4.00725 -0.999687 0
M  V30 40 H -2.01791 -2.42927 -1.90863 0
M  V30 41 H -3.69769 -3.17572 -1.68148 0
M  V30 42 H -3.20294 -1.78227 2.52324 0
M  V30 43 H -1.64669 -2.38313 3.12762 0
M  V30 44 H -1.75899 1.49189 1.37378 0
M  V30 45 H -2.39035 0.133251 0.309201 0
M  V30 46 H -6.0681 0.787787 3.11703 0
M  V30 47 H -8.18635 1.27179 1.98282 0
M  V30 48 H -8.17322 1.67029 -0.453717 0
M  V30 49 H -3.97246 1.08211 -0.508189 0
M  V30 50 H -7.90579 1.11488 -3.11757 0
M  V30 51 H -7.74593 2.85414 -2.74477 0
M  V30 52 H -4.08543 1.46261 -2.43293 0
M  V30 53 H -0.0248065 -1.06899 0.196665 0
M  V30 54 H 2.66663 0.263542 2.53146 0
M  V30 55 H 4.99368 0.328829 1.86083 0
M  V30 56 H 3.95782 -1.36674 -1.88674 0
M  V30 57 H 8.34148 1.1008 -2.34043 0
M  V30 58 H 9.85773 -0.517797 -1.23974 0
M  V30 59 H 8.90683 -2.12708 0.429095 0
M  V30 60 H 6.48444 -2.07425 0.957364 0
M  V30 61 H 5.18713 2.69505 -0.0473128 0
M  V30 62 H 4.64361 3.56874 -1.35664 0
M  V30 END ATOM
M  V30 BEGIN BOND
M  V30 1 1 1 2
M  V30 2 1 2 3
M  V30 3 2 3 4
M  V30 4 1 3 5
M  V30 5 1 5 6
M  V30 6 1 6 7
M  V30 7 1 7 8
M  V30 8 2 8 9
M  V30 9 1 9 10
M  V30 10 1 8 11
M  V30 11 2 11 12
M  V30 12 1 12 13
M  V30 13 2 13 14
M  V30 14 1 14 15
M  V30 15 2 15 16
M  V30 16 1 15 17
M  V30 17 1 17 18
M  V30 18 2 17 19 CFG=2
M  V30 19 1 6 20
M  V30 20 2 20 21
M  V30 21 1 20 22
M  V30 22 1 22 23
M  V30 23 2 23 24
M  V30 24 1 24 25
M  V30 25 2 25 26
M  V30 26 1 26 27
M  V30 27 2 27 28
M  V30 28 1 26 29
M  V30 29 2 29 30
M  V30 30 1 30 31
M  V30 31 2 31 32
M  V30 32 1 32 33
M  V30 33 2 33 34
M  V30 34 1 30 35
M  V30 35 1 35 36
M  V30 36 2 35 37
M  V30 37 2 35 38
M  V30 38 1 10 6
M  V30 39 1 16 11
M  V30 40 1 28 23
M  V30 41 1 34 29
M  V30 42 1 1 39
M  V30 43 1 1 40
M  V30 44 1 1 41
M  V30 45 1 5 42
M  V30 46 1 5 43
M  V30 47 1 7 44
M  V30 48 1 7 45
M  V30 49 1 12 46
M  V30 50 1 13 47
M  V30 51 1 14 48
M  V30 52 1 16 49
M  V30 53 1 18 50
M  V30 54 1 18 51
M  V30 55 1 19 52
M  V30 56 1 22 53
M  V30 57 1 24 54
M  V30 58 1 25 55
M  V30 59 1 27 56
M  V30 60 1 31 57
M  V30 61 1 32 58
M  V30 62 1 33 59
M  V30 63 1 34 60
M  V30 64 1 36 61
M  V30 65 1 36 62
M  V30 END BOND
M  V30 END CTAB
M  END
