
     RDKit          3D

  0  0  0  0  0  0  0  0  0  0999 V3000
M  V30 BEGIN CTAB
M  V30 COUNTS 34 35 0 0 0
M  V30 BEGIN ATOM
M  V30 1 N 4.86151 -0.904953 -0.791496 0
M  V30 2 C 3.44807 -0.627868 -0.677146 0
M  V30 3 C 2.98897 0.233401 0.2832 0
M  V30 4 C 1.61421 0.5166 0.411829 0
M  V30 5 C 0.704571 -0.0758266 -0.435559 0
M  V30 6 C 1.22959 -0.932234 -1.3832 0
M  V30 7 C 2.55522 -1.22919 -1.53487 0
M  V30 8 C -0.699877 0.222857 -0.399457 0
M  V30 9 C -1.65701 -0.656976 0.0131811 0
M  V30 10 C -3.0282 -0.31479 -0.0407545 0
M  V30 11 C -3.41795 0.905464 -0.507666 0
M  V30 12 N -4.80313 1.26808 -0.56696 0
M  V30 13 C -2.46159 1.79862 -0.925948 0
M  V30 14 C -1.14048 1.46912 -0.87522 0
M  V30 15 S -1.23858 -2.22483 0.637527 0
M  V30 16 O -2.66601 -3.00173 1.17791 0
M  V30 17 O -0.410526 -2.04727 1.87237 0
M  V30 18 O -0.575837 -3.13493 -0.334234 0
M  V30 19 S 1.16245 1.62443 1.64667 0
M  V30 20 O 2.54038 2.03305 2.58193 0
M  V30 21 O 0.15894 1.1183 2.62056 0
M  V30 22 O 0.668708 2.95886 1.15127 0
M  V30 23 H 5.21008 -1.88029 -0.761097 0
M  V30 24 H 5.47003 -0.0693234 -0.901637 0
M  V30 25 H 3.72034 0.686065 0.936732 0
M  V30 26 H 0.510718 -1.37287 -2.08623 0
M  V30 27 H 2.87677 -1.92138 -2.31633 0
M  V30 28 H -3.74912 -1.05233 0.299768 0
M  V30 29 H -5.28406 1.49453 -1.4641 0
M  V30 30 H -5.36606 1.31405 0.299607 0
M  V30 31 H -2.7463 2.77142 -1.29956 0
M  V30 32 H -0.362626 2.16038 -1.24146 0
M  V30 33 H -3.13538 -2.34201 1.7616 0
M  V30 34 H 3.02217 1.21359 2.84877 0
M  V30 END ATOM
M  V30 BEGIN BOND
M  V30 1 1 1 2
M  V30 2 2 2 3
M  V30 3 1 3 4
M  V30 4 2 4 5
M  V30 5 1 5 6
M  V30 6 2 6 7
M  V30 7 1 5 8
M  V30 8 2 8 9
M  V30 9 1 9 10
M  V30 10 2 10 11
M  V30 11 1 11 12
M  V30 12 1 11 13
M  V30 13 2 13 14
M  V30 14 1 9 15
M  V30 15 1 15 16
M  V30 16 2 15 17
M  V30 17 2 15 18
M  V30 18 1 4 19
M  V30 19 1 19 20
M  V30 20 2 19 21
M  V30 21 2 19 22
M  V30 22 1 7 2
M  V30 23 1 14 8
M  V30 24 1 1 23
M  V30 25 1 1 24
M  V30 26 1 3 25
M  V30 27 1 6 26
M  V30 28 1 7 27
M  V30 29 1 10 28
M  V30 30 1 12 29
M  V30 31 1 12 30
M  V30 32 1 13 31
M  V30 33 1 14 32
M  V30 34 1 16 33
M  V30 35 1 20 34
M  V30 END BOND
M  V30 END CTAB
M  END
