
     RDKit          3D

  0  0  0  0  0  0  0  0  0  0999 V3000
M  V30 BEGIN CTAB
M  V30 COUNTS 32 32 0 0 0
M  V30 BEGIN ATOM
M  V30 1 N 2.55579 2.54341 -0.931557 0
M  V30 2 C 1.33314 1.85522 -0.793551 0
M  V30 3 C 0.151028 2.40936 -1.23884 0
M  V30 4 C -1.03289 1.72761 -1.09791 0
M  V30 5 N -2.24138 2.34349 -1.57655 0
M  V30 6 C -1.11158 0.479059 -0.517526 0
M  V30 7 O -2.33403 -0.125651 -0.419083 0
M  V30 8 C -2.59745 -1.37805 0.134636 0
M  V30 9 C -4.10899 -1.60895 0.0111122 0
M  V30 10 O -4.73538 -0.574769 0.725529 0
M  V30 11 C 0.0600136 -0.0852887 -0.0690146 0
M  V30 12 C 1.25023 0.591962 -0.206847 0
M  V30 13 O 2.45533 0.0603144 0.231313 0
M  V30 14 C 2.49578 -1.22495 0.847518 0
M  V30 15 C 3.9069 -1.58871 1.23778 0
M  V30 16 O 4.75302 -1.6254 0.143378 0
M  V30 17 H 3.02504 2.92134 -0.0944739 0
M  V30 18 H 2.98183 2.67045 -1.86174 0
M  V30 19 H 0.168614 3.39004 -1.70152 0
M  V30 20 H -2.20671 3.18726 -2.16463 0
M  V30 21 H -3.17527 1.93422 -1.32803 0
M  V30 22 H -2.26923 -1.48068 1.19326 0
M  V30 23 H -2.12234 -2.22459 -0.416687 0
M  V30 24 H -4.35167 -1.48846 -1.05746 0
M  V30 25 H -4.41072 -2.5772 0.43532 0
M  V30 26 H -5.30328 -0.0243457 0.109621 0
M  V30 27 H 0.0514484 -1.06046 0.392441 0
M  V30 28 H 1.88792 -1.16135 1.77552 0
M  V30 29 H 2.12876 -1.9997 0.148179 0
M  V30 30 H 3.87387 -2.5921 1.69585 0
M  V30 31 H 4.33474 -0.887826 1.97997 0
M  V30 32 H 4.58747 -2.40524 -0.443151 0
M  V30 END ATOM
M  V30 BEGIN BOND
M  V30 1 1 1 2
M  V30 2 2 2 3
M  V30 3 1 3 4
M  V30 4 1 4 5
M  V30 5 2 4 6
M  V30 6 1 6 7
M  V30 7 1 7 8
M  V30 8 1 8 9
M  V30 9 1 9 10
M  V30 10 1 6 11
M  V30 11 2 11 12
M  V30 12 1 12 13
M  V30 13 1 13 14
M  V30 14 1 14 15
M  V30 15 1 15 16
M  V30 16 1 12 2
M  V30 17 1 1 17
M  V30 18 1 1 18
M  V30 19 1 3 19
M  V30 20 1 5 20
M  V30 21 1 5 21
M  V30 22 1 8 22
M  V30 23 1 8 23
M  V30 24 1 9 24
M  V30 25 1 9 25
M  V30 26 1 10 26
M  V30 27 1 11 27
M  V30 28 1 14 28
M  V30 29 1 14 29
M  V30 30 1 15 30
M  V30 31 1 15 31
M  V30 32 1 16 32
M  V30 END BOND
M  V30 END CTAB
M  END
