
     RDKit          3D

  0  0  0  0  0  0  0  0  0  0999 V3000
M  V30 BEGIN CTAB
M  V30 COUNTS 40 39 0 0 0
M  V30 BEGIN ATOM
M  V30 1 C 2.731 -2.05238 0.0560114 0 CFG=1
M  V30 2 N 2.08447 -1.53898 1.22789 0
M  V30 3 C 2.06457 -3.21737 -0.57516 0
M  V30 4 S 0.424743 -3.04203 -1.1985 0
M  V30 5 S -1.08833 -2.64302 0.199008 0
M  V30 6 C -1.35803 -0.89519 0.349266 0
M  V30 7 C -2.41602 -0.529988 1.36926 0 CFG=2
M  V30 8 N -3.70711 -1.09704 1.05959 0
M  V30 9 C -2.4539 0.955454 1.44626 0
M  V30 10 O -1.35785 1.51614 1.70272 0
M  V30 11 N -3.65934 1.66891 1.24042 0
M  V30 12 C -3.71473 3.1124 1.31362 0
M  V30 13 C -3.31401 3.63256 2.63553 0
M  V30 14 O -3.3276 5.02009 2.81001 0
M  V30 15 O -2.9634 2.95266 3.61402 0
M  V30 16 C 3.07496 -0.98157 -0.911489 0
M  V30 17 O 2.81757 0.203147 -0.629268 0
M  V30 18 N 3.68828 -1.27124 -2.14628 0
M  V30 19 C 4.03995 -0.268846 -3.11603 0
M  V30 20 C 2.89548 0.511832 -3.63187 0
M  V30 21 O 3.10396 1.52595 -4.5515 0
M  V30 22 O 1.72251 0.287279 -3.26211 0
M  V30 23 H 3.73837 -2.435 0.414334 0
M  V30 24 H 2.58656 -1.81977 2.08506 0
M  V30 25 H 1.87795 -0.537716 1.2197 0
M  V30 26 H 2.69938 -3.65969 -1.38955 0
M  V30 27 H 2.03915 -4.0738 0.184161 0
M  V30 28 H -1.68221 -0.524884 -0.673367 0
M  V30 29 H -0.467922 -0.350031 0.596 0
M  V30 30 H -2.1156 -0.895727 2.37145 0
M  V30 31 H -3.88244 -1.1998 0.0420439 0
M  V30 32 H -3.87151 -2.0007 1.57598 0
M  V30 33 H -4.52007 1.12175 1.03134 0
M  V30 34 H -3.07623 3.60092 0.538253 0
M  V30 35 H -4.75626 3.45381 1.12106 0
M  V30 36 H -4.13307 5.56555 2.5335 0
M  V30 37 H 3.89524 -2.27119 -2.36077 0
M  V30 38 H 4.79399 0.452207 -2.72682 0
M  V30 39 H 4.48036 -0.778835 -4.01597 0
M  V30 40 H 3.10713 2.50413 -4.24097 0
M  V30 END ATOM
M  V30 BEGIN BOND
M  V30 1 1 1 2
M  V30 2 1 1 3
M  V30 3 1 3 4
M  V30 4 1 4 5
M  V30 5 1 5 6
M  V30 6 1 6 7
M  V30 7 1 7 8
M  V30 8 1 7 9
M  V30 9 2 9 10
M  V30 10 1 9 11
M  V30 11 1 11 12
M  V30 12 1 12 13
M  V30 13 1 13 14
M  V30 14 2 13 15
M  V30 15 1 1 16
M  V30 16 2 16 17
M  V30 17 1 16 18
M  V30 18 1 18 19
M  V30 19 1 19 20
M  V30 20 1 20 21
M  V30 21 2 20 22
M  V30 22 1 1 23 CFG=1
M  V30 23 1 2 24
M  V30 24 1 2 25
M  V30 25 1 3 26
M  V30 26 1 3 27
M  V30 27 1 6 28
M  V30 28 1 6 29
M  V30 29 1 7 30 CFG=1
M  V30 30 1 8 31
M  V30 31 1 8 32
M  V30 32 1 11 33
M  V30 33 1 12 34
M  V30 34 1 12 35
M  V30 35 1 14 36
M  V30 36 1 18 37
M  V30 37 1 19 38
M  V30 38 1 19 39
M  V30 39 1 21 40
M  V30 END BOND
M  V30 END CTAB
M  END
