
     RDKit          3D

  0  0  0  0  0  0  0  0  0  0999 V3000
M  V30 BEGIN CTAB
M  V30 COUNTS 31 31 0 0 0
M  V30 BEGIN ATOM
M  V30 1 N 3.1984 1.8635 0.431421 0
M  V30 2 C 2.24703 1.20162 -0.388318 0
M  V30 3 C 1.17673 0.522993 0.472924 0
M  V30 4 N 0.196661 -0.153848 -0.217638 0
M  V30 5 C 0.663095 -1.2995 -0.875838 0
M  V30 6 C -0.320688 -2.43171 -1.00481 0
M  V30 7 O -0.71598 -2.97842 0.189078 0
M  V30 8 C -1.04678 -2.00995 1.11359 0
M  V30 9 C -1.93503 -0.998003 0.413995 0
M  V30 10 C -1.14425 0.136264 -0.211567 0 CFG=1
M  V30 11 C -1.61033 1.40784 0.388591 0
M  V30 12 N -1.05331 2.58366 -0.25842 0
M  V30 13 H 4.14247 1.8506 0.210015 0
M  V30 14 H 2.90673 1.96147 1.36298 0
M  V30 15 H 1.82265 1.97981 -1.05287 0
M  V30 16 H 2.76359 0.475411 -1.0367 0
M  V30 17 H 0.879353 1.27534 1.21982 0
M  V30 18 H 1.7725 -0.238493 1.06155 0
M  V30 19 H 1.0314 -1.08956 -1.91362 0
M  V30 20 H 1.54269 -1.69814 -0.324202 0
M  V30 21 H 0.199121 -3.23091 -1.58128 0
M  V30 22 H -1.18598 -2.13103 -1.65718 0
M  V30 23 H -1.59055 -2.48517 1.96834 0
M  V30 24 H -0.180254 -1.50938 1.56037 0
M  V30 25 H -2.62806 -1.48669 -0.301537 0
M  V30 26 H -2.61922 -0.616017 1.22992 0
M  V30 27 H -1.49698 0.17574 -1.29034 0
M  V30 28 H -1.42952 1.5362 1.46573 0
M  V30 29 H -2.7221 1.51392 0.272021 0
M  V30 30 H -1.61839 3.42627 0.0479662 0
M  V30 31 H -1.24499 2.44618 -1.29399 0
M  V30 END ATOM
M  V30 BEGIN BOND
M  V30 1 1 1 2
M  V30 2 1 2 3
M  V30 3 1 3 4
M  V30 4 1 4 5
M  V30 5 1 5 6
M  V30 6 1 6 7
M  V30 7 1 7 8
M  V30 8 1 8 9
M  V30 9 1 9 10
M  V30 10 1 10 11
M  V30 11 1 11 12
M  V30 12 1 10 4
M  V30 13 1 1 13
M  V30 14 1 1 14
M  V30 15 1 2 15
M  V30 16 1 2 16
M  V30 17 1 3 17
M  V30 18 1 3 18
M  V30 19 1 5 19
M  V30 20 1 5 20
M  V30 21 1 6 21
M  V30 22 1 6 22
M  V30 23 1 8 23
M  V30 24 1 8 24
M  V30 25 1 9 25
M  V30 26 1 9 26
M  V30 27 1 10 27 CFG=3
M  V30 28 1 11 28
M  V30 29 1 11 29
M  V30 30 1 12 30
M  V30 31 1 12 31
M  V30 END BOND
M  V30 END CTAB
M  END
