
     RDKit          3D

  0  0  0  0  0  0  0  0  0  0999 V3000
M  V30 BEGIN CTAB
M  V30 COUNTS 29 29 0 0 0
M  V30 BEGIN ATOM
M  V30 1 C 3.7311 0.997866 -0.198872 0
M  V30 2 C 3.52359 -0.463442 -0.473889 0
M  V30 3 S 2.14711 -0.78843 -1.59344 0
M  V30 4 C 0.582118 -0.347119 -0.874267 0
M  V30 5 C -0.133199 -1.2779 -0.147464 0
M  V30 6 N 0.387129 -2.60193 0.0284477 0
M  V30 7 C -1.33718 -0.944301 0.408176 0
M  V30 8 C -2.12705 -1.94747 1.20118 0
M  V30 9 C -1.90596 0.306918 0.286411 0
M  V30 10 N -3.16046 0.624483 0.875163 0
M  V30 11 C -1.17237 1.22908 -0.44764 0
M  V30 12 C -1.74157 2.59736 -0.611626 0
M  V30 13 C 0.0477359 0.915613 -1.01949 0
M  V30 14 H 2.77809 1.48165 0.044622 0
M  V30 15 H 4.26994 1.53967 -0.988886 0
M  V30 16 H 4.38959 1.05426 0.715534 0
M  V30 17 H 3.27522 -0.944854 0.510487 0
M  V30 18 H 4.47164 -0.899099 -0.865088 0
M  V30 19 H 0.363057 -3.30958 -0.73694 0
M  V30 20 H 0.790424 -2.83224 0.946009 0
M  V30 21 H -3.10045 -2.11802 0.706742 0
M  V30 22 H -2.30311 -1.45697 2.19281 0
M  V30 23 H -1.5228 -2.86907 1.32141 0
M  V30 24 H -4.0742 0.29189 0.493703 0
M  V30 25 H -3.12875 1.22144 1.73068 0
M  V30 26 H -2.3633 2.6785 -1.51582 0
M  V30 27 H -2.38121 2.87851 0.270707 0
M  V30 28 H -0.92039 3.32292 -0.659897 0
M  V30 29 H 0.615252 1.66026 -1.59877 0
M  V30 END ATOM
M  V30 BEGIN BOND
M  V30 1 1 1 2
M  V30 2 1 2 3
M  V30 3 1 3 4
M  V30 4 2 4 5
M  V30 5 1 5 6
M  V30 6 1 5 7
M  V30 7 1 7 8
M  V30 8 2 7 9
M  V30 9 1 9 10
M  V30 10 1 9 11
M  V30 11 1 11 12
M  V30 12 2 11 13
M  V30 13 1 13 4
M  V30 14 1 1 14
M  V30 15 1 1 15
M  V30 16 1 1 16
M  V30 17 1 2 17
M  V30 18 1 2 18
M  V30 19 1 6 19
M  V30 20 1 6 20
M  V30 21 1 8 21
M  V30 22 1 8 22
M  V30 23 1 8 23
M  V30 24 1 10 24
M  V30 25 1 10 25
M  V30 26 1 12 26
M  V30 27 1 12 27
M  V30 28 1 12 28
M  V30 29 1 13 29
M  V30 END BOND
M  V30 END CTAB
M  END
