
     RDKit          3D

  0  0  0  0  0  0  0  0  0  0999 V3000
M  V30 BEGIN CTAB
M  V30 COUNTS 27 27 0 0 0
M  V30 BEGIN ATOM
M  V30 1 C 2.19116 -1.35275 -0.262429 0
M  V30 2 C 2.10824 0.12159 -0.605107 0
M  V30 3 N 3.46115 0.640681 -0.627133 0
M  V30 4 C 1.24944 0.891491 0.361854 0
M  V30 5 C -0.133804 0.419039 0.408268 0
M  V30 6 C -0.996772 0.781415 -0.616884 0
M  V30 7 N -0.537103 1.60557 -1.66831 0
M  V30 8 C -2.31063 0.354323 -0.628694 0
M  V30 9 C -2.82546 -0.446831 0.370067 0
M  V30 10 O -4.1571 -0.832575 0.282623 0
M  V30 11 C -1.97229 -0.807299 1.3874 0
M  V30 12 O -2.45033 -1.61251 2.41057 0
M  V30 13 C -0.650279 -0.380896 1.40472 0
M  V30 14 H 1.95848 -1.95404 -1.17122 0
M  V30 15 H 3.23446 -1.64329 0.0258513 0
M  V30 16 H 1.56167 -1.63069 0.599608 0
M  V30 17 H 1.6437 0.231334 -1.62697 0
M  V30 18 H 3.71719 1.02124 -1.5692 0
M  V30 19 H 3.59302 1.43312 0.0532193 0
M  V30 20 H 1.36172 1.96926 0.139782 0
M  V30 21 H 1.70165 0.731422 1.377 0
M  V30 22 H 0.305694 2.21959 -1.62998 0
M  V30 23 H -1.06944 1.62734 -2.58708 0
M  V30 24 H -2.98862 0.643278 -1.43812 0
M  V30 25 H -4.62178 -1.40987 0.948866 0
M  V30 26 H -3.39614 -1.9555 2.45628 0
M  V30 27 H 0.0221766 -0.66444 2.20503 0
M  V30 END ATOM
M  V30 BEGIN BOND
M  V30 1 1 1 2
M  V30 2 1 2 3
M  V30 3 1 2 4
M  V30 4 1 4 5
M  V30 5 2 5 6
M  V30 6 1 6 7
M  V30 7 1 6 8
M  V30 8 2 8 9
M  V30 9 1 9 10
M  V30 10 1 9 11
M  V30 11 1 11 12
M  V30 12 2 11 13
M  V30 13 1 13 5
M  V30 14 1 1 14
M  V30 15 1 1 15
M  V30 16 1 1 16
M  V30 17 1 2 17
M  V30 18 1 3 18
M  V30 19 1 3 19
M  V30 20 1 4 20
M  V30 21 1 4 21
M  V30 22 1 7 22
M  V30 23 1 7 23
M  V30 24 1 8 24
M  V30 25 1 10 25
M  V30 26 1 12 26
M  V30 27 1 13 27
M  V30 END BOND
M  V30 END CTAB
M  END
