
     RDKit          3D

  0  0  0  0  0  0  0  0  0  0999 V3000
M  V30 BEGIN CTAB
M  V30 COUNTS 35 36 0 0 0
M  V30 BEGIN ATOM
M  V30 1 N 4.99392 0.0743826 -0.0684633 0
M  V30 2 C 3.6806 -0.400239 0.377563 0
M  V30 3 C 2.91376 -0.721446 -0.887282 0
M  V30 4 C 2.02121 0.466291 -1.15579 0
M  V30 5 N 0.937238 0.366039 -0.139923 0
M  V30 6 C 1.45023 0.457011 1.19937 0
M  V30 7 C 2.97521 0.653145 1.17165 0
M  V30 8 C -0.371157 0.206232 -0.591761 0
M  V30 9 O -0.455858 0.169762 -1.89832 0
M  V30 10 C -1.6111 0.0782327 0.128807 0
M  V30 11 C -1.77765 0.080003 1.49157 0
M  V30 12 C -3.03081 -0.0532196 2.10441 0
M  V30 13 C -4.15109 -0.192438 1.332 0
M  V30 14 C -4.03519 -0.200129 -0.0372735 0
M  V30 15 C -2.80454 -0.0688814 -0.613759 0
M  V30 16 N -2.73037 -0.0819079 -2.02736 0
M  V30 17 N -5.19448 -0.344609 -0.86158 0 CHG=1
M  V30 18 O -5.1133 -0.917911 -1.95989 0
M  V30 19 O -6.40717 0.139529 -0.465163 0 CHG=-1
M  V30 20 H 5.68236 -0.688128 -0.155479 0
M  V30 21 H 4.90999 0.671617 -0.918133 0
M  V30 22 H 3.7953 -1.35553 0.94411 0
M  V30 23 H 3.58101 -0.933321 -1.74074 0
M  V30 24 H 2.26236 -1.61779 -0.696938 0
M  V30 25 H 1.60667 0.346966 -2.17348 0
M  V30 26 H 2.52496 1.43473 -1.00614 0
M  V30 27 H 1.06286 1.35738 1.72529 0
M  V30 28 H 1.31121 -0.467573 1.79871 0
M  V30 29 H 3.28029 0.503144 2.25083 0
M  V30 30 H 3.2525 1.66804 0.854374 0
M  V30 31 H -0.906476 0.187262 2.11804 0
M  V30 32 H -3.10645 -0.0456821 3.17143 0
M  V30 33 H -5.13876 -0.297862 1.79129 0
M  V30 34 H -2.58412 -0.974793 -2.51297 0
M  V30 35 H -2.82316 0.797463 -2.54902 0
M  V30 END ATOM
M  V30 BEGIN BOND
M  V30 1 1 1 2
M  V30 2 1 2 3
M  V30 3 1 3 4
M  V30 4 1 4 5
M  V30 5 1 5 6
M  V30 6 1 6 7
M  V30 7 1 5 8
M  V30 8 2 8 9
M  V30 9 1 8 10
M  V30 10 2 10 11
M  V30 11 1 11 12
M  V30 12 2 12 13
M  V30 13 1 13 14
M  V30 14 2 14 15
M  V30 15 1 15 16
M  V30 16 1 14 17
M  V30 17 2 17 18
M  V30 18 1 17 19
M  V30 19 1 7 2
M  V30 20 1 15 10
M  V30 21 1 1 20
M  V30 22 1 1 21
M  V30 23 1 2 22
M  V30 24 1 3 23
M  V30 25 1 3 24
M  V30 26 1 4 25
M  V30 27 1 4 26
M  V30 28 1 6 27
M  V30 29 1 6 28
M  V30 30 1 7 29
M  V30 31 1 7 30
M  V30 32 1 11 31
M  V30 33 1 12 32
M  V30 34 1 13 33
M  V30 35 1 16 34
M  V30 36 1 16 35
M  V30 END BOND
M  V30 END CTAB
M  END
