
     RDKit          3D

  0  0  0  0  0  0  0  0  0  0999 V3000
M  V30 BEGIN CTAB
M  V30 COUNTS 28 29 0 0 0
M  V30 BEGIN ATOM
M  V30 1 N -0.56018 -2.66724 -0.986876 0
M  V30 2 N -0.262699 -1.4087 -1.4154 0
M  V30 3 C -0.350713 -0.290255 -0.616011 0
M  V30 4 C 0.86021 0.323569 -0.0795266 0
M  V30 5 C 1.35139 1.48957 -0.659149 0
M  V30 6 C 2.54328 2.04671 -0.264679 0
M  V30 7 C 3.28771 1.46118 0.72949 0
M  V30 8 N 2.79742 0.315664 1.29067 0
M  V30 9 C 1.6455 -0.234995 0.918427 0
M  V30 10 N 1.14001 -1.38608 1.60039 0
M  V30 11 C -1.57491 -0.0609042 0.227067 0
M  V30 12 C -2.85748 0.148526 -0.495192 0
M  V30 13 S -3.1745 1.70434 0.416252 0
M  V30 14 C -1.63316 1.058 1.17847 0
M  V30 15 H -1.29659 -3.11749 -1.61462 0
M  V30 16 H 0.286652 -3.30271 -1.14468 0
M  V30 17 H -0.536504 -1.34041 -2.43709 0
M  V30 18 H -0.634791 0.519341 -1.47736 0
M  V30 19 H 0.804717 2.02738 -1.46164 0
M  V30 20 H 2.86632 2.94704 -0.762372 0
M  V30 21 H 4.22945 1.91067 1.03598 0
M  V30 22 H 1.36222 -2.31215 1.26624 0
M  V30 23 H 0.572992 -1.18667 2.43165 0
M  V30 24 H -1.69786 -1.08401 0.797635 0
M  V30 25 H -3.68705 -0.549185 -0.271132 0
M  V30 26 H -2.76115 0.419474 -1.58464 0
M  V30 27 H -1.84921 0.718794 2.22558 0
M  V30 28 H -0.871074 1.85053 1.15251 0
M  V30 END ATOM
M  V30 BEGIN BOND
M  V30 1 1 1 2
M  V30 2 1 2 3
M  V30 3 1 3 4
M  V30 4 2 4 5
M  V30 5 1 5 6
M  V30 6 2 6 7
M  V30 7 1 7 8
M  V30 8 2 8 9
M  V30 9 1 9 10
M  V30 10 1 3 11
M  V30 11 1 11 12
M  V30 12 1 12 13
M  V30 13 1 13 14
M  V30 14 1 9 4
M  V30 15 1 14 11
M  V30 16 1 1 15
M  V30 17 1 1 16
M  V30 18 1 2 17
M  V30 19 1 3 18
M  V30 20 1 5 19
M  V30 21 1 6 20
M  V30 22 1 7 21
M  V30 23 1 10 22
M  V30 24 1 10 23
M  V30 25 1 11 24
M  V30 26 1 12 25
M  V30 27 1 12 26
M  V30 28 1 14 27
M  V30 29 1 14 28
M  V30 END BOND
M  V30 END CTAB
M  END
