
     RDKit          3D

  0  0  0  0  0  0  0  0  0  0999 V3000
M  V30 BEGIN CTAB
M  V30 COUNTS 22 22 0 0 0
M  V30 BEGIN ATOM
M  V30 1 C -3.05147 -0.310829 0.823542 0
M  V30 2 C -2.89063 -0.200281 -0.681756 0
M  V30 3 S -1.50247 -1.21236 -1.23169 0
M  V30 4 C 0.0201771 -0.525888 -0.627382 0
M  V30 5 C 1.24607 -1.15236 -0.878176 0
M  V30 6 C 2.44191 -0.644494 -0.433544 0
M  V30 7 N 3.66143 -1.33 -0.721039 0
M  V30 8 N 2.3975 0.501526 0.267481 0
M  V30 9 C 1.24 1.13054 0.527255 0
M  V30 10 N 1.23291 2.33617 1.26849 0
M  V30 11 C 0.00684134 0.637061 0.0872736 0
M  V30 12 H -3.85408 -1.05559 1.0127 0
M  V30 13 H -2.09601 -0.691844 1.25076 0
M  V30 14 H -3.32291 0.704036 1.18868 0
M  V30 15 H -2.70871 0.859347 -0.983131 0
M  V30 16 H -3.84496 -0.533539 -1.14253 0
M  V30 17 H 1.23293 -2.07959 -1.45122 0
M  V30 18 H 4.13972 -1.88698 0.0351466 0
M  V30 19 H 4.1205 -1.31473 -1.65397 0
M  V30 20 H 1.4725 2.4076 2.27403 0
M  V30 21 H 0.9698 3.21039 0.771594 0
M  V30 22 H -0.911056 1.15182 0.297497 0
M  V30 END ATOM
M  V30 BEGIN BOND
M  V30 1 1 1 2
M  V30 2 1 2 3
M  V30 3 1 3 4
M  V30 4 2 4 5
M  V30 5 1 5 6
M  V30 6 1 6 7
M  V30 7 2 6 8
M  V30 8 1 8 9
M  V30 9 1 9 10
M  V30 10 2 9 11
M  V30 11 1 11 4
M  V30 12 1 1 12
M  V30 13 1 1 13
M  V30 14 1 1 14
M  V30 15 1 2 15
M  V30 16 1 2 16
M  V30 17 1 5 17
M  V30 18 1 7 18
M  V30 19 1 7 19
M  V30 20 1 10 20
M  V30 21 1 10 21
M  V30 22 1 11 22
M  V30 END BOND
M  V30 END CTAB
M  END
