
     RDKit          3D

  0  0  0  0  0  0  0  0  0  0999 V3000
M  V30 BEGIN CTAB
M  V30 COUNTS 64 67 0 0 0
M  V30 BEGIN ATOM
M  V30 1 O 10.8792 -0.64187 0.964903 0
M  V30 2 C 9.6016 -0.562704 0.602678 0
M  V30 3 C 8.91006 -1.69295 0.219 0
M  V30 4 C 7.56928 -1.6237 -0.163968 0
M  V30 5 C 6.91957 -0.412512 -0.161576 0
M  V30 6 C 7.59209 0.721803 0.216857 0
M  V30 7 C 8.93821 0.659051 0.602649 0
M  V30 8 C 5.50426 -0.321901 -0.564189 0
M  V30 9 C 4.68644 -0.523062 0.720316 0 CFG=1
M  V30 10 C 3.23162 -0.433257 0.312122 0
M  V30 11 O 2.60834 -1.5026 0.376353 0
M  V30 12 N 2.7345 0.799238 -0.08411 0
M  V30 13 C 1.41191 1.05616 -0.490331 0
M  V30 14 C 0.423206 0.115635 -0.646665 0
M  V30 15 C -0.878357 0.416565 -1.04597 0
M  V30 16 C -1.14157 1.74806 -1.28646 0
M  V30 17 C -0.166652 2.71354 -1.13782 0
M  V30 18 C 1.11066 2.40761 -0.7446 0
M  V30 19 N 2.10351 3.43075 -0.596911 0
M  V30 20 C -1.88634 -0.623714 -1.21214 0
M  V30 21 O -1.52341 -1.81899 -1.47038 0
M  V30 22 N -3.26825 -0.385136 -1.10062 0
M  V30 23 C -4.26972 -1.438 -1.27025 0 CFG=2
M  V30 24 C -5.28841 -1.13335 -2.25751 0
M  V30 25 O -5.40252 0.00641764 -2.82803 0
M  V30 26 O -6.20625 -2.09627 -2.64182 0
M  V30 27 C -4.78797 -1.83731 0.08099 0
M  V30 28 C -5.39205 -0.778921 0.884466 0
M  V30 29 C -4.66997 -0.0126802 1.81231 0
M  V30 30 N -5.51123 0.879807 2.31778 0
M  V30 31 C -6.73822 0.750488 1.78487 0
M  V30 32 C -6.66397 -0.286525 0.889863 0
M  V30 33 C -7.84447 -0.614289 0.224539 0
M  V30 34 C -9.03005 0.0428373 0.425274 0
M  V30 35 C -9.05152 1.07596 1.33116 0
M  V30 36 C -7.92775 1.4482 2.01992 0
M  V30 37 N 5.019 -1.81086 1.23085 0
M  V30 38 H 11.5801 -0.122688 1.2534 0
M  V30 39 H 9.43955 -2.63354 0.223479 0
M  V30 40 H 7.07221 -2.54102 -0.456028 0
M  V30 41 H 7.12982 1.70137 0.234753 0
M  V30 42 H 9.43858 1.56596 0.894279 0
M  V30 43 H 5.28065 0.654382 -1.03335 0
M  V30 44 H 5.23284 -1.10109 -1.30866 0
M  V30 45 H 4.91311 0.250651 1.45617 0
M  V30 46 H 3.4299 1.60571 -0.0782968 0
M  V30 47 H 0.615558 -0.927066 -0.468703 0
M  V30 48 H -2.14224 2.00833 -1.59448 0
M  V30 49 H -0.388075 3.77487 -1.33291 0
M  V30 50 H 2.49208 3.75091 0.30814 0
M  V30 51 H 2.44723 3.87601 -1.46743 0
M  V30 52 H -3.61736 0.584782 -0.886295 0
M  V30 53 H -3.63894 -2.34319 -1.59328 0
M  V30 54 H -6.54423 -2.23698 -3.58078 0
M  V30 55 H -3.91203 -2.30025 0.627616 0
M  V30 56 H -5.52898 -2.67176 -0.108545 0
M  V30 57 H -3.62882 -0.147264 2.04795 0
M  V30 58 H -5.262 1.60598 3.04905 0
M  V30 59 H -7.79264 -1.43477 -0.456277 0
M  V30 60 H -9.95099 -0.224412 -0.10406 0
M  V30 61 H -9.98803 1.62814 1.51968 0
M  V30 62 H -7.89857 2.26229 2.74847 0
M  V30 63 H 4.90259 -2.58949 0.578925 0
M  V30 64 H 4.72397 -1.9798 2.21365 0
M  V30 END ATOM
M  V30 BEGIN BOND
M  V30 1 1 1 2
M  V30 2 2 2 3
M  V30 3 1 3 4
M  V30 4 2 4 5
M  V30 5 1 5 6
M  V30 6 2 6 7
M  V30 7 1 5 8
M  V30 8 1 8 9
M  V30 9 1 9 10
M  V30 10 2 10 11
M  V30 11 1 10 12
M  V30 12 1 12 13
M  V30 13 2 13 14
M  V30 14 1 14 15
M  V30 15 2 15 16
M  V30 16 1 16 17
M  V30 17 2 17 18
M  V30 18 1 18 19
M  V30 19 1 15 20
M  V30 20 2 20 21
M  V30 21 1 20 22
M  V30 22 1 22 23
M  V30 23 1 23 24
M  V30 24 2 24 25
M  V30 25 1 24 26
M  V30 26 1 23 27
M  V30 27 1 27 28
M  V30 28 2 28 29
M  V30 29 1 29 30
M  V30 30 1 30 31
M  V30 31 2 31 32
M  V30 32 1 32 33
M  V30 33 2 33 34
M  V30 34 1 34 35
M  V30 35 2 35 36
M  V30 36 1 9 37
M  V30 37 1 7 2
M  V30 38 1 18 13
M  V30 39 1 32 28
M  V30 40 1 36 31
M  V30 41 1 1 38
M  V30 42 1 3 39
M  V30 43 1 4 40
M  V30 44 1 6 41
M  V30 45 1 7 42
M  V30 46 1 8 43
M  V30 47 1 8 44
M  V30 48 1 9 45 CFG=1
M  V30 49 1 12 46
M  V30 50 1 14 47
M  V30 51 1 16 48
M  V30 52 1 17 49
M  V30 53 1 19 50
M  V30 54 1 19 51
M  V30 55 1 22 52
M  V30 56 1 23 53 CFG=3
M  V30 57 1 26 54
M  V30 58 1 27 55
M  V30 59 1 27 56
M  V30 60 1 29 57
M  V30 61 1 30 58
M  V30 62 1 33 59
M  V30 63 1 34 60
M  V30 64 1 35 61
M  V30 65 1 36 62
M  V30 66 1 37 63
M  V30 67 1 37 64
M  V30 END BOND
M  V30 END CTAB
M  END
