
     RDKit          3D

  0  0  0  0  0  0  0  0  0  0999 V3000
M  V30 BEGIN CTAB
M  V30 COUNTS 55 58 0 0 0
M  V30 BEGIN ATOM
M  V30 1 N 10.1642 -0.52194 -1.75639 0
M  V30 2 C 8.8044 -0.415586 -1.38765 0
M  V30 3 N 8.44369 -0.208664 -0.108343 0
M  V30 4 C 7.16408 -0.101237 0.287218 0
M  V30 5 C 6.13623 -0.201294 -0.627063 0
M  V30 6 O 4.80654 -0.0919873 -0.231339 0
M  V30 7 C 4.52344 0.126346 1.14247 0
M  V30 8 C 3.08721 0.22082 1.41426 0
M  V30 9 C 2.35897 -0.91147 1.7223 0
M  V30 10 C 0.985445 -0.803175 1.97961 0
M  V30 11 C 0.3613 0.417321 1.92676 0
M  V30 12 O -0.942082 0.62691 2.15185 0
M  V30 13 C -2.0445 -0.110089 2.45289 0
M  V30 14 C -2.40961 -1.09778 1.36227 0
M  V30 15 C -3.62552 -1.88227 1.69518 0
M  V30 16 C -4.89232 -1.12619 1.81654 0
M  V30 17 N -5.34917 -0.497455 0.601307 0
M  V30 18 C -5.13643 0.778773 0.0863502 0
M  V30 19 O -4.48325 1.72995 0.577538 0
M  V30 20 C -5.83458 0.884118 -1.218 0
M  V30 21 C -5.93145 1.93177 -2.1202 0
M  V30 22 C -6.6773 1.70854 -3.27904 0
M  V30 23 C -7.29142 0.503483 -3.52018 0
M  V30 24 C -7.19122 -0.534952 -2.61855 0
M  V30 25 C -6.44391 -0.326785 -1.44664 0
M  V30 26 C -6.16922 -1.21205 -0.344623 0
M  V30 27 O -6.58704 -2.39688 -0.253599 0
M  V30 28 C 1.14013 1.54858 1.60924 0
M  V30 29 C 2.48162 1.45354 1.35678 0
M  V30 30 C 6.5017 -0.413422 -1.9396 0
M  V30 31 N 5.45015 -0.519523 -2.89991 0
M  V30 32 N 7.79692 -0.514592 -2.28993 0
M  V30 33 H 10.5349 -1.42197 -2.09794 0
M  V30 34 H 10.7939 0.291951 -1.6883 0
M  V30 35 H 6.89442 0.0673871 1.33576 0
M  V30 36 H 5.09698 1.01589 1.53106 0
M  V30 37 H 4.90978 -0.761838 1.7018 0
M  V30 38 H 2.79813 -1.89956 1.77758 0
M  V30 39 H 0.406475 -1.67033 2.23676 0
M  V30 40 H -2.9147 0.564475 2.59925 0
M  V30 41 H -1.97119 -0.650689 3.4444 0
M  V30 42 H -1.5894 -1.78054 1.15585 0
M  V30 43 H -2.61395 -0.547301 0.41072 0
M  V30 44 H -3.46371 -2.40408 2.69063 0
M  V30 45 H -3.67986 -2.72258 0.960751 0
M  V30 46 H -5.68675 -1.80108 2.20159 0
M  V30 47 H -4.74801 -0.325453 2.57384 0
M  V30 48 H -5.45369 2.87915 -1.93953 0
M  V30 49 H -6.76476 2.5143 -3.99573 0
M  V30 50 H -7.87165 0.364849 -4.4461 0
M  V30 51 H -7.66738 -1.492 -2.78972 0
M  V30 52 H 0.646312 2.51054 1.56858 0
M  V30 53 H 3.06223 2.35442 1.11177 0
M  V30 54 H 5.39074 -1.25146 -3.62227 0
M  V30 55 H 4.69423 0.195232 -2.86225 0
M  V30 END ATOM
M  V30 BEGIN BOND
M  V30 1 1 1 2
M  V30 2 2 2 3
M  V30 3 1 3 4
M  V30 4 2 4 5
M  V30 5 1 5 6
M  V30 6 1 6 7
M  V30 7 1 7 8
M  V30 8 2 8 9
M  V30 9 1 9 10
M  V30 10 2 10 11
M  V30 11 1 11 12
M  V30 12 1 12 13
M  V30 13 1 13 14
M  V30 14 1 14 15
M  V30 15 1 15 16
M  V30 16 1 16 17
M  V30 17 1 17 18
M  V30 18 2 18 19
M  V30 19 1 18 20
M  V30 20 2 20 21
M  V30 21 1 21 22
M  V30 22 2 22 23
M  V30 23 1 23 24
M  V30 24 2 24 25
M  V30 25 1 25 26
M  V30 26 2 26 27
M  V30 27 1 11 28
M  V30 28 2 28 29
M  V30 29 1 5 30
M  V30 30 1 30 31
M  V30 31 2 30 32
M  V30 32 1 32 2
M  V30 33 1 29 8
M  V30 34 1 26 17
M  V30 35 1 25 20
M  V30 36 1 1 33
M  V30 37 1 1 34
M  V30 38 1 4 35
M  V30 39 1 7 36
M  V30 40 1 7 37
M  V30 41 1 9 38
M  V30 42 1 10 39
M  V30 43 1 13 40
M  V30 44 1 13 41
M  V30 45 1 14 42
M  V30 46 1 14 43
M  V30 47 1 15 44
M  V30 48 1 15 45
M  V30 49 1 16 46
M  V30 50 1 16 47
M  V30 51 1 21 48
M  V30 52 1 22 49
M  V30 53 1 23 50
M  V30 54 1 24 51
M  V30 55 1 28 52
M  V30 56 1 29 53
M  V30 57 1 31 54
M  V30 58 1 31 55
M  V30 END BOND
M  V30 END CTAB
M  END
