
     RDKit          3D

  0  0  0  0  0  0  0  0  0  0999 V3000
M  V30 BEGIN CTAB
M  V30 COUNTS 34 34 0 0 0
M  V30 BEGIN ATOM
M  V30 1 O 0.399491 -1.6633 -2.26825 0
M  V30 2 C 0.0864023 -0.369732 -1.85223 0
M  V30 3 C 0.0244626 -0.376845 -0.327434 0
M  V30 4 C -0.387537 1.00732 0.0962502 0
M  V30 5 C -0.968675 1.05709 1.47331 0
M  V30 6 C -2.47638 1.03904 1.47917 0
M  V30 7 C -3.07514 -0.247168 1.05451 0
M  V30 8 C -2.4209 -0.875211 -0.145636 0
M  V30 9 C -1.03132 -1.36102 0.122658 0
M  V30 10 N 1.29218 -0.776235 0.202773 0
M  V30 11 C 2.51197 -0.110647 -0.0105961 0
M  V30 12 N 3.04156 0.577197 0.927416 0
M  V30 13 N 4.25814 1.25214 0.743314 0
M  V30 14 N 3.1615 -0.195508 -1.2594 0
M  V30 15 H 0.040147 -1.76199 -3.1835 0
M  V30 16 H 0.812335 0.373522 -2.19665 0
M  V30 17 H -0.898474 -0.0992201 -2.27926 0
M  V30 18 H 0.495713 1.67045 -0.0398356 0
M  V30 19 H -1.16809 1.39064 -0.614751 0
M  V30 20 H -0.677629 2.05739 1.91228 0
M  V30 21 H -0.522834 0.302291 2.12674 0
M  V30 22 H -2.82067 1.91948 0.913502 0
M  V30 23 H -2.78438 1.23179 2.54746 0
M  V30 24 H -4.14526 -0.0465553 0.755986 0
M  V30 25 H -3.12648 -0.992388 1.855 0
M  V30 26 H -2.49322 -0.18217 -0.98749 0
M  V30 27 H -3.04196 -1.77666 -0.406486 0
M  V30 28 H -0.830707 -2.30768 -0.461091 0
M  V30 29 H -0.887547 -1.65036 1.18342 0
M  V30 30 H 1.35491 -1.64377 0.813314 0
M  V30 31 H 4.77837 1.17392 -0.159686 0
M  V30 32 H 4.66819 1.83571 1.48135 0
M  V30 33 H 3.33328 -1.11016 -1.73346 0
M  V30 34 H 3.49856 0.658661 -1.76267 0
M  V30 END ATOM
M  V30 BEGIN BOND
M  V30 1 1 1 2
M  V30 2 1 2 3
M  V30 3 1 3 4
M  V30 4 1 4 5
M  V30 5 1 5 6
M  V30 6 1 6 7
M  V30 7 1 7 8
M  V30 8 1 8 9
M  V30 9 1 3 10
M  V30 10 1 10 11
M  V30 11 2 11 12 CFG=2
M  V30 12 1 12 13
M  V30 13 1 11 14
M  V30 14 1 9 3
M  V30 15 1 1 15
M  V30 16 1 2 16
M  V30 17 1 2 17
M  V30 18 1 4 18
M  V30 19 1 4 19
M  V30 20 1 5 20
M  V30 21 1 5 21
M  V30 22 1 6 22
M  V30 23 1 6 23
M  V30 24 1 7 24
M  V30 25 1 7 25
M  V30 26 1 8 26
M  V30 27 1 8 27
M  V30 28 1 9 28
M  V30 29 1 9 29
M  V30 30 1 10 30
M  V30 31 1 13 31
M  V30 32 1 13 32
M  V30 33 1 14 33
M  V30 34 1 14 34
M  V30 END BOND
M  V30 END CTAB
M  END
