
     RDKit          3D

  0  0  0  0  0  0  0  0  0  0999 V3000
M  V30 BEGIN CTAB
M  V30 COUNTS 38 41 0 0 0
M  V30 BEGIN ATOM
M  V30 1 C -3.55117 2.42743 1.46188 0
M  V30 2 C -3.78227 1.25002 0.504722 0
M  V30 3 C -4.15153 1.76431 -0.850727 0
M  V30 4 N -2.52669 0.503126 0.350348 0
M  V30 5 N -1.3031 0.936157 0.52455 0
M  V30 6 C -0.37307 -0.0448284 0.289409 0
M  V30 7 C -1.10607 -1.16313 -0.0535108 0
M  V30 8 C -0.791602 -2.45773 -0.385099 0
M  V30 9 N 0.54022 -2.88217 -0.40734 0
M  V30 10 N -1.81135 -3.31835 -0.658446 0
M  V30 11 C -3.09674 -2.92367 -0.607276 0
M  V30 12 N -3.43944 -1.66409 -0.283959 0
M  V30 13 C -2.43368 -0.796606 -0.00909594 0
M  V30 14 C 1.06639 0.121323 0.426621 0
M  V30 15 C 1.97154 -0.117798 -0.566653 0
M  V30 16 C 3.33457 0.0218558 -0.408647 0
M  V30 17 C 3.79967 0.426088 0.821869 0
M  V30 18 O 5.09851 0.498878 0.773539 0
M  V30 19 C 5.48357 0.160002 -0.430173 0
M  V30 20 N 6.84212 0.119154 -0.866737 0
M  V30 21 N 4.41484 -0.140921 -1.18572 0
M  V30 22 C 2.92782 0.688638 1.88185 0
M  V30 23 C 1.59896 0.530208 1.65588 0
M  V30 24 H -4.39889 3.10875 1.41673 0
M  V30 25 H -2.60674 2.97106 1.16427 0
M  V30 26 H -3.33979 2.03755 2.47986 0
M  V30 27 H -4.52734 0.605505 0.974204 0
M  V30 28 H -4.435 0.876867 -1.47604 0
M  V30 29 H -3.26163 2.2247 -1.30347 0
M  V30 30 H -4.98177 2.47297 -0.746412 0
M  V30 31 H 1.05272 -3.03326 0.477578 0
M  V30 32 H 1.0225 -3.04807 -1.30723 0
M  V30 33 H -3.85185 -3.68169 -0.842771 0
M  V30 34 H 1.6478 -0.420565 -1.56972 0
M  V30 35 H 7.52795 0.806285 -0.509557 0
M  V30 36 H 7.16182 -0.589056 -1.53957 0
M  V30 37 H 3.36979 1.00101 2.81312 0
M  V30 38 H 0.908915 0.730039 2.4686 0
M  V30 END ATOM
M  V30 BEGIN BOND
M  V30 1 1 1 2
M  V30 2 1 2 3
M  V30 3 1 2 4
M  V30 4 1 4 5
M  V30 5 2 5 6
M  V30 6 1 6 7
M  V30 7 2 7 8
M  V30 8 1 8 9
M  V30 9 1 8 10
M  V30 10 2 10 11
M  V30 11 1 11 12
M  V30 12 2 12 13
M  V30 13 1 6 14
M  V30 14 2 14 15
M  V30 15 1 15 16
M  V30 16 2 16 17
M  V30 17 1 17 18
M  V30 18 1 18 19
M  V30 19 1 19 20
M  V30 20 2 19 21
M  V30 21 1 17 22
M  V30 22 2 22 23
M  V30 23 1 13 4
M  V30 24 1 23 14
M  V30 25 1 13 7
M  V30 26 1 21 16
M  V30 27 1 1 24
M  V30 28 1 1 25
M  V30 29 1 1 26
M  V30 30 1 2 27
M  V30 31 1 3 28
M  V30 32 1 3 29
M  V30 33 1 3 30
M  V30 34 1 9 31
M  V30 35 1 9 32
M  V30 36 1 11 33
M  V30 37 1 15 34
M  V30 38 1 20 35
M  V30 39 1 20 36
M  V30 40 1 22 37
M  V30 41 1 23 38
M  V30 END BOND
M  V30 END CTAB
M  END
