
     RDKit          3D

  0  0  0  0  0  0  0  0  0  0999 V3000
M  V30 BEGIN CTAB
M  V30 COUNTS 20 20 0 0 0
M  V30 BEGIN ATOM
M  V30 1 F -2.95751 1.25608 -2.18784 0
M  V30 2 C -2.74842 0.297578 -1.21721 0
M  V30 3 O -2.00908 0.82784 -0.137138 0
M  V30 4 C -0.794141 0.285753 0.228793 0
M  V30 5 C 0.327521 0.837673 -0.402611 0
M  V30 6 N 0.209547 1.88155 -1.35098 0
M  V30 7 C 1.55711 0.308546 -0.0502322 0
M  V30 8 C 1.69578 -0.709165 0.871851 0
M  V30 9 C 0.558709 -1.21654 1.46393 0
M  V30 10 C -0.678014 -0.733632 1.15489 0
M  V30 11 Br -2.28964 -1.38733 1.93376 0
M  V30 12 N 2.97539 -1.23635 1.21692 0
M  V30 13 F -3.97197 -0.20068 -0.816493 0
M  V30 14 H -2.18331 -0.549865 -1.64058 0
M  V30 15 H -0.522582 2.61127 -1.28284 0
M  V30 16 H 0.875153 1.92525 -2.14527 0
M  V30 17 H 2.48496 0.687272 -0.500849 0
M  V30 18 H 0.62776 -2.01974 2.19608 0
M  V30 19 H 3.17499 -2.22321 0.966164 0
M  V30 20 H 3.66772 -0.64231 1.69967 0
M  V30 END ATOM
M  V30 BEGIN BOND
M  V30 1 1 1 2
M  V30 2 1 2 3
M  V30 3 1 3 4
M  V30 4 2 4 5
M  V30 5 1 5 6
M  V30 6 1 5 7
M  V30 7 2 7 8
M  V30 8 1 8 9
M  V30 9 2 9 10
M  V30 10 1 10 11
M  V30 11 1 8 12
M  V30 12 1 2 13
M  V30 13 1 10 4
M  V30 14 1 2 14
M  V30 15 1 6 15
M  V30 16 1 6 16
M  V30 17 1 7 17
M  V30 18 1 9 18
M  V30 19 1 12 19
M  V30 20 1 12 20
M  V30 END BOND
M  V30 END CTAB
M  END
