
     RDKit          3D

  0  0  0  0  0  0  0  0  0  0999 V3000
M  V30 BEGIN CTAB
M  V30 COUNTS 44 45 0 0 0
M  V30 BEGIN ATOM
M  V30 1 N 6.49058 0.83473 -0.265003 0
M  V30 2 C 5.15258 0.891895 -0.745008 0 CFG=1
M  V30 3 C 4.68097 -0.468754 -1.25342 0
M  V30 4 C 3.20282 -0.442252 -1.0423 0
M  V30 5 N 2.99515 0.455234 0.0746328 0
M  V30 6 C 4.22608 1.11075 0.419577 0
M  V30 7 C 1.74092 0.661672 0.74254 0
M  V30 8 O 1.68152 1.48083 1.71756 0
M  V30 9 N 0.565307 -0.0225099 0.345608 0
M  V30 10 C -0.660679 0.202696 1.02581 0
M  V30 11 C -1.82476 -0.574271 0.516968 0
M  V30 12 N -1.64397 -1.99999 0.588922 0
M  V30 13 C -2.07019 -0.233849 -0.947696 0
M  V30 14 C -3.24356 -1.0096 -1.49636 0
M  V30 15 C -4.54475 -0.65274 -0.864463 0
M  V30 16 C -4.61232 0.757331 -0.349624 0
M  V30 17 C -3.69808 1.03216 0.789578 0
M  V30 18 C -3.03417 -0.186516 1.36318 0
M  V30 19 H 6.55446 1.30729 0.648037 0
M  V30 20 H 6.86338 -0.110992 -0.284258 0
M  V30 21 H 4.97263 1.68241 -1.49959 0
M  V30 22 H 4.99845 -0.547347 -2.30059 0
M  V30 23 H 5.19513 -1.24469 -0.638886 0
M  V30 24 H 2.68318 -0.029002 -1.93083 0
M  V30 25 H 2.75504 -1.43783 -0.850672 0
M  V30 26 H 4.02651 2.18964 0.589596 0
M  V30 27 H 4.62262 0.648968 1.37044 0
M  V30 28 H 0.601491 -0.691644 -0.446655 0
M  V30 29 H -0.563244 -0.0158057 2.12456 0
M  V30 30 H -0.943374 1.28736 0.98664 0
M  V30 31 H -2.39653 -2.50949 1.06485 0
M  V30 32 H -1.34128 -2.38136 -0.318871 0
M  V30 33 H -1.16498 -0.610315 -1.49211 0
M  V30 34 H -2.1256 0.835715 -1.13859 0
M  V30 35 H -3.04625 -2.08515 -1.40429 0
M  V30 36 H -3.27434 -0.790947 -2.59429 0
M  V30 37 H -4.88653 -1.39512 -0.0925894 0
M  V30 38 H -5.33222 -0.727629 -1.67217 0
M  V30 39 H -4.39048 1.4312 -1.19587 0
M  V30 40 H -5.68125 0.943494 -0.0685932 0
M  V30 41 H -2.87645 1.75179 0.522038 0
M  V30 42 H -4.28482 1.58019 1.5834 0
M  V30 43 H -2.65947 0.113102 2.38672 0
M  V30 44 H -3.70949 -1.03067 1.53307 0
M  V30 END ATOM
M  V30 BEGIN BOND
M  V30 1 1 1 2
M  V30 2 1 2 3
M  V30 3 1 3 4
M  V30 4 1 4 5
M  V30 5 1 5 6
M  V30 6 1 5 7
M  V30 7 2 7 8
M  V30 8 1 7 9
M  V30 9 1 9 10
M  V30 10 1 10 11
M  V30 11 1 11 12
M  V30 12 1 11 13
M  V30 13 1 13 14
M  V30 14 1 14 15
M  V30 15 1 15 16
M  V30 16 1 16 17
M  V30 17 1 17 18
M  V30 18 1 6 2
M  V30 19 1 18 11
M  V30 20 1 1 19
M  V30 21 1 1 20
M  V30 22 1 2 21 CFG=3
M  V30 23 1 3 22
M  V30 24 1 3 23
M  V30 25 1 4 24
M  V30 26 1 4 25
M  V30 27 1 6 26
M  V30 28 1 6 27
M  V30 29 1 9 28
M  V30 30 1 10 29
M  V30 31 1 10 30
M  V30 32 1 12 31
M  V30 33 1 12 32
M  V30 34 1 13 33
M  V30 35 1 13 34
M  V30 36 1 14 35
M  V30 37 1 14 36
M  V30 38 1 15 37
M  V30 39 1 15 38
M  V30 40 1 16 39
M  V30 41 1 16 40
M  V30 42 1 17 41
M  V30 43 1 17 42
M  V30 44 1 18 43
M  V30 45 1 18 44
M  V30 END BOND
M  V30 END CTAB
M  END
