
     RDKit          3D

  0  0  0  0  0  0  0  0  0  0999 V3000
M  V30 BEGIN CTAB
M  V30 COUNTS 27 28 0 0 0
M  V30 BEGIN ATOM
M  V30 1 C -4.0869 0.511658 -0.480539 0
M  V30 2 C -3.4337 -0.670796 0.193328 0
M  V30 3 C -2.69197 -0.43749 1.49697 0
M  V30 4 C -1.9571 -0.802199 0.21064 0
M  V30 5 N -1.1035 0.230034 -0.287105 0
M  V30 6 C 0.304751 0.0813911 -0.201044 0
M  V30 7 C 0.898666 -1.0186 0.361842 0
M  V30 8 C 2.29186 -1.16243 0.440774 0
M  V30 9 C 3.09605 -0.165012 -0.0640023 0
M  V30 10 C 2.48555 0.93484 -0.626719 0
M  V30 11 N 1.14791 1.04172 -0.686685 0
M  V30 12 N 3.33021 1.95495 -1.1428 0
M  V30 13 N 4.53341 -0.265059 -0.00719568 0
M  V30 14 H -3.45355 1.40704 -0.212247 0
M  V30 15 H -5.10926 0.701475 -0.101735 0
M  V30 16 H -4.16007 0.368279 -1.5722 0
M  V30 17 H -4.00927 -1.61582 0.186019 0
M  V30 18 H -2.69344 0.605092 1.82908 0
M  V30 19 H -2.69028 -1.23391 2.26193 0
M  V30 20 H -1.55067 -1.83154 0.0977457 0
M  V30 21 H -1.50083 1.11735 -0.725575 0
M  V30 22 H 0.317981 -1.81772 0.770308 0
M  V30 23 H 2.74614 -2.02486 0.881924 0
M  V30 24 H 3.91401 1.78854 -1.97826 0
M  V30 25 H 3.31433 2.86969 -0.620005 0
M  V30 26 H 5.0152 -0.786383 0.749286 0
M  V30 27 H 5.04448 0.219768 -0.773745 0
M  V30 END ATOM
M  V30 BEGIN BOND
M  V30 1 1 1 2
M  V30 2 1 2 3
M  V30 3 1 3 4
M  V30 4 1 4 5
M  V30 5 1 5 6
M  V30 6 2 6 7
M  V30 7 1 7 8
M  V30 8 2 8 9
M  V30 9 1 9 10
M  V30 10 2 10 11
M  V30 11 1 10 12
M  V30 12 1 9 13
M  V30 13 1 4 2
M  V30 14 1 11 6
M  V30 15 1 1 14
M  V30 16 1 1 15
M  V30 17 1 1 16
M  V30 18 1 2 17
M  V30 19 1 3 18
M  V30 20 1 3 19
M  V30 21 1 4 20
M  V30 22 1 5 21
M  V30 23 1 7 22
M  V30 24 1 8 23
M  V30 25 1 12 24
M  V30 26 1 12 25
M  V30 27 1 13 26
M  V30 28 1 13 27
M  V30 END BOND
M  V30 END CTAB
M  END
