
     RDKit          3D

  0  0  0  0  0  0  0  0  0  0999 V3000
M  V30 BEGIN CTAB
M  V30 COUNTS 34 36 0 0 0
M  V30 BEGIN ATOM
M  V30 1 N -6.48986 0.383255 -0.510572 0
M  V30 2 C -5.11824 0.271199 -0.192065 0
M  V30 3 N -4.14369 0.3798 -1.10761 0
M  V30 4 C -2.851 0.269785 -0.780735 0
M  V30 5 C -2.48997 0.0390441 0.523931 0
M  V30 6 C -1.16255 -0.0794323 0.892943 0
M  V30 7 C -0.140808 0.0275359 -0.0251598 0
M  V30 8 N 1.21876 -0.0979389 0.377766 0
M  V30 9 C 2.20899 0.0263814 -0.637357 0
M  V30 10 C 3.59992 -0.103041 -0.218506 0
M  V30 11 C 4.56233 0.0210269 -1.22449 0
M  V30 12 C 5.90225 -0.0766544 -0.98476 0
M  V30 13 N 6.32226 -0.300856 0.264621 0
M  V30 14 C 5.42593 -0.425681 1.2578 0
M  V30 15 C 4.05457 -0.331246 1.04606 0
M  V30 16 C -0.516909 0.260164 -1.3373 0
M  V30 17 C -1.83519 0.379414 -1.71342 0
M  V30 18 C -3.48073 -0.0778719 1.49419 0
M  V30 19 N -3.08899 -0.316504 2.83864 0
M  V30 20 N -4.74465 0.0418554 1.10083 0
M  V30 21 H -7.14885 -0.360984 -0.24138 0
M  V30 22 H -6.82475 1.21637 -1.01462 0
M  V30 23 H -0.938556 -0.260833 1.93439 0
M  V30 24 H 1.39581 -0.271519 1.3841 0
M  V30 25 H 2.01436 -0.800894 -1.38308 0
M  V30 26 H 2.05869 0.961853 -1.24347 0
M  V30 27 H 4.23916 0.205372 -2.2576 0
M  V30 28 H 6.59535 0.0324025 -1.8288 0
M  V30 29 H 5.79359 -0.604814 2.24759 0
M  V30 30 H 3.35438 -0.431007 1.83554 0
M  V30 31 H 0.279438 0.346434 -2.07045 0
M  V30 32 H -2.08877 0.558067 -2.73038 0
M  V30 33 H -2.36153 0.221187 3.31778 0
M  V30 34 H -3.60074 -1.10187 3.339 0
M  V30 END ATOM
M  V30 BEGIN BOND
M  V30 1 1 1 2
M  V30 2 2 2 3
M  V30 3 1 3 4
M  V30 4 2 4 5
M  V30 5 1 5 6
M  V30 6 2 6 7
M  V30 7 1 7 8
M  V30 8 1 8 9
M  V30 9 1 9 10
M  V30 10 2 10 11
M  V30 11 1 11 12
M  V30 12 2 12 13
M  V30 13 1 13 14
M  V30 14 2 14 15
M  V30 15 1 7 16
M  V30 16 2 16 17
M  V30 17 1 5 18
M  V30 18 1 18 19
M  V30 19 2 18 20
M  V30 20 1 20 2
M  V30 21 1 17 4
M  V30 22 1 15 10
M  V30 23 1 1 21
M  V30 24 1 1 22
M  V30 25 1 6 23
M  V30 26 1 8 24
M  V30 27 1 9 25
M  V30 28 1 9 26
M  V30 29 1 11 27
M  V30 30 1 12 28
M  V30 31 1 14 29
M  V30 32 1 15 30
M  V30 33 1 16 31
M  V30 34 1 17 32
M  V30 35 1 19 33
M  V30 36 1 19 34
M  V30 END BOND
M  V30 END CTAB
M  END
