
     RDKit          3D

  0  0  0  0  0  0  0  0  0  0999 V3000
M  V30 BEGIN CTAB
M  V30 COUNTS 66 70 0 0 0
M  V30 BEGIN ATOM
M  V30 1 N 8.59081 -1.68015 -2.71138 0
M  V30 2 C 7.80818 -0.50421 -2.38615 0
M  V30 3 C 8.385 0.0502904 -1.10763 0
M  V30 4 O 7.76751 1.17275 -0.6295 0
M  V30 5 C 6.4727 1.26074 -0.167766 0
M  V30 6 C 5.59162 0.209775 -0.0769999 0
M  V30 7 C 4.28101 0.428217 0.410165 0
M  V30 8 C 3.83047 1.64858 0.805466 0
M  V30 9 C 4.76041 2.69048 0.697415 0
M  V30 10 C 6.03222 2.52586 0.233344 0
M  V30 11 C 2.51958 1.89854 1.31385 0
M  V30 12 O 2.30216 3.17317 1.5801 0
M  V30 13 N 1.44971 1.02204 1.56987 0
M  V30 14 C 1.34956 -0.389229 1.41005 0
M  V30 15 C -0.0288368 -0.823477 1.93393 0
M  V30 16 C -1.14745 -0.169815 1.12368 0
M  V30 17 C -0.839316 1.30893 1.04871 0
M  V30 18 C 0.206258 1.65477 2.08665 0
M  V30 19 O -2.28925 -0.320493 1.85433 0
M  V30 20 C -3.48586 -0.197342 1.22268 0
M  V30 21 C -3.4001 -0.0334201 -0.271004 0 CFG=1
M  V30 22 C -2.47938 -1.09607 -0.784324 0 CFG=1
M  V30 23 C -1.12242 -0.83581 -0.213083 0
M  V30 24 C -3.03756 -2.4411 -0.368994 0
M  V30 25 O -2.34253 -1.12561 -2.16536 0
M  V30 26 N -4.68583 -0.0315055 -0.909899 0
M  V30 27 C -4.90548 0.073955 -2.22884 0
M  V30 28 N -6.22453 0.0450349 -2.48987 0
M  V30 29 C -6.87722 -0.0807787 -1.32632 0
M  V30 30 C -5.91608 -0.12909 -0.332599 0
M  V30 31 N -6.34328 -0.252803 0.929947 0
M  V30 32 C -7.64086 -0.327677 1.23142 0
M  V30 33 N -8.58186 -0.282071 0.277458 0
M  V30 34 C -8.23439 -0.159103 -1.0109 0
M  V30 35 N -9.21989 -0.10922 -2.03387 0
M  V30 36 H 9.46227 -1.45253 -3.19201 0
M  V30 37 H 8.65893 -2.37079 -1.97013 0
M  V30 38 H 8.05494 0.205324 -3.2462 0
M  V30 39 H 6.73491 -0.662275 -2.41324 0
M  V30 40 H 9.46676 0.260884 -1.29818 0
M  V30 41 H 8.37519 -0.729909 -0.29531 0
M  V30 42 H 5.89177 -0.786197 -0.349316 0
M  V30 43 H 3.67332 -0.448919 0.43348 0
M  V30 44 H 4.44256 3.70546 1.00762 0
M  V30 45 H 6.70984 3.34689 0.166984 0
M  V30 46 H 2.07875 -0.959358 2.02963 0
M  V30 47 H 1.34336 -0.726397 0.334225 0
M  V30 48 H -0.141539 -1.92672 1.71372 0
M  V30 49 H -0.139057 -0.72147 3.00704 0
M  V30 50 H -1.7427 1.93696 1.2976 0
M  V30 51 H -0.422734 1.56753 0.0576529 0
M  V30 52 H -0.0409562 1.29015 3.09576 0
M  V30 53 H 0.331551 2.75439 2.18121 0
M  V30 54 H -4.04547 0.633205 1.69811 0
M  V30 55 H -4.0131 -1.1899 1.3729 0
M  V30 56 H -2.92968 0.952037 -0.553348 0
M  V30 57 H -0.549613 -0.187369 -0.939524 0
M  V30 58 H -0.587114 -1.82909 -0.191523 0
M  V30 59 H -4.14155 -2.33557 -0.312905 0
M  V30 60 H -2.68378 -2.7619 0.615475 0
M  V30 61 H -2.72039 -3.23521 -1.09193 0
M  V30 62 H -2.30645 -2.06636 -2.49897 0
M  V30 63 H -4.19525 0.17641 -3.06248 0
M  V30 64 H -7.98276 -0.430094 2.2799 0
M  V30 65 H -9.56616 0.816454 -2.35629 0
M  V30 66 H -9.56092 -0.999813 -2.42472 0
M  V30 END ATOM
M  V30 BEGIN BOND
M  V30 1 1 1 2
M  V30 2 1 2 3
M  V30 3 1 3 4
M  V30 4 1 4 5
M  V30 5 2 5 6
M  V30 6 1 6 7
M  V30 7 2 7 8
M  V30 8 1 8 9
M  V30 9 2 9 10
M  V30 10 1 8 11
M  V30 11 2 11 12
M  V30 12 1 11 13
M  V30 13 1 13 14
M  V30 14 1 14 15
M  V30 15 1 15 16
M  V30 16 1 16 17
M  V30 17 1 17 18
M  V30 18 1 16 19
M  V30 19 1 19 20
M  V30 20 1 20 21
M  V30 21 1 21 22
M  V30 22 1 22 23
M  V30 23 1 22 24
M  V30 24 1 22 25 CFG=3
M  V30 25 1 21 26
M  V30 26 1 26 27
M  V30 27 2 27 28
M  V30 28 1 28 29
M  V30 29 2 29 30
M  V30 30 1 30 31
M  V30 31 2 31 32
M  V30 32 1 32 33
M  V30 33 2 33 34
M  V30 34 1 34 35
M  V30 35 1 10 5
M  V30 36 1 18 13
M  V30 37 1 30 26
M  V30 38 1 23 16
M  V30 39 1 34 29
M  V30 40 1 1 36
M  V30 41 1 1 37
M  V30 42 1 2 38
M  V30 43 1 2 39
M  V30 44 1 3 40
M  V30 45 1 3 41
M  V30 46 1 6 42
M  V30 47 1 7 43
M  V30 48 1 9 44
M  V30 49 1 10 45
M  V30 50 1 14 46
M  V30 51 1 14 47
M  V30 52 1 15 48
M  V30 53 1 15 49
M  V30 54 1 17 50
M  V30 55 1 17 51
M  V30 56 1 18 52
M  V30 57 1 18 53
M  V30 58 1 20 54
M  V30 59 1 20 55
M  V30 60 1 21 56 CFG=1
M  V30 61 1 23 57
M  V30 62 1 23 58
M  V30 63 1 24 59
M  V30 64 1 24 60
M  V30 65 1 24 61
M  V30 66 1 25 62
M  V30 67 1 27 63
M  V30 68 1 32 64
M  V30 69 1 35 65
M  V30 70 1 35 66
M  V30 END BOND
M  V30 END CTAB
M  END
