
     RDKit          3D

  0  0  0  0  0  0  0  0  0  0999 V3000
M  V30 BEGIN CTAB
M  V30 COUNTS 22 22 0 0 0
M  V30 BEGIN ATOM
M  V30 1 N 2.03989 1.6358 0.443069 0
M  V30 2 C 1.04082 0.655214 0.169403 0
M  V30 3 C 1.44105 -0.607362 -0.211428 0
M  V30 4 C 0.460224 -1.5524 -0.474704 0
M  V30 5 Cl 0.928187 -3.17986 -0.964618 0
M  V30 6 C -0.863015 -1.20534 -0.34933 0
M  V30 7 C -1.25415 0.0682094 0.034601 0
M  V30 8 N -2.61676 0.446107 0.169684 0
M  V30 9 C -0.284929 1.00985 0.297037 0
M  V30 10 N -0.693055 2.31308 0.690199 0 CHG=1
M  V30 11 O -1.98862 2.68654 0.823744 0 CHG=-1
M  V30 12 O 0.196478 3.15433 0.923872 0
M  V30 13 N -1.88972 -2.15755 -0.614034 0 CHG=1
M  V30 14 O -2.61859 -2.72094 0.417076 0 CHG=-1
M  V30 15 O -2.1061 -2.46166 -1.78933 0
M  V30 16 N 2.81512 -0.947631 -0.335409 0 CHG=1
M  V30 17 O 3.22933 -2.19827 -0.712676 0 CHG=-1
M  V30 18 O 3.69022 -0.0962462 -0.0982785 0
M  V30 19 H 2.29761 1.82509 1.42828 0
M  V30 20 H 2.50473 2.15446 -0.328226 0
M  V30 21 H -3.14488 0.997826 -0.547576 0
M  V30 22 H -3.18383 0.180756 1.02865 0
M  V30 END ATOM
M  V30 BEGIN BOND
M  V30 1 1 1 2
M  V30 2 2 2 3
M  V30 3 1 3 4
M  V30 4 1 4 5
M  V30 5 2 4 6
M  V30 6 1 6 7
M  V30 7 1 7 8
M  V30 8 2 7 9
M  V30 9 1 9 10
M  V30 10 1 10 11
M  V30 11 2 10 12
M  V30 12 1 6 13
M  V30 13 1 13 14
M  V30 14 2 13 15
M  V30 15 1 3 16
M  V30 16 1 16 17
M  V30 17 2 16 18
M  V30 18 1 9 2
M  V30 19 1 1 19
M  V30 20 1 1 20
M  V30 21 1 8 21
M  V30 22 1 8 22
M  V30 END BOND
M  V30 END CTAB
M  END
