
     RDKit          3D

  0  0  0  0  0  0  0  0  0  0999 V3000
M  V30 BEGIN CTAB
M  V30 COUNTS 27 27 0 0 0
M  V30 BEGIN ATOM
M  V30 1 N -3.37011 1.36024 0.663936 0
M  V30 2 C -2.60192 0.317395 0.0702546 0 CFG=1
M  V30 3 C -1.27842 0.277401 0.812361 0 CFG=2
M  V30 4 C -0.517005 1.59586 0.708793 0
M  V30 5 C -0.0361486 0.330556 0.0289484 0 CFG=1
M  V30 6 C 1.27347 -0.178482 0.527595 0
M  V30 7 N 2.28676 0.022752 -0.481449 0
M  V30 8 C 3.6131 -0.390009 -0.217376 0
M  V30 9 N 3.99841 -1.74454 -0.381992 0
M  V30 10 N 4.48943 0.49032 0.182471 0
M  V30 11 C -3.36572 -0.936048 0.207335 0
M  V30 12 O -2.85474 -2.13285 -0.287218 0
M  V30 13 O -4.50312 -0.993666 0.769485 0
M  V30 14 H -3.31244 2.26096 0.244102 0
M  V30 15 H -3.30596 1.33916 1.66205 0
M  V30 16 H -2.45197 0.568936 -1.00404 0
M  V30 17 H -1.33453 -0.234026 1.77927 0
M  V30 18 H -0.866222 2.37296 0.0315905 0
M  V30 19 H -0.0346808 1.89405 1.65427 0
M  V30 20 H -0.15554 0.262928 -1.07909 0
M  V30 21 H 1.26148 -1.25332 0.808307 0
M  V30 22 H 1.63258 0.384215 1.43823 0
M  V30 23 H 2.05261 0.463873 -1.39126 0
M  V30 24 H 5.00048 -2.02949 -0.510678 0
M  V30 25 H 3.28046 -2.50894 -0.37938 0
M  V30 26 H 4.21576 1.48341 0.305444 0
M  V30 27 H -3.116 -3.02364 0.143698 0
M  V30 END ATOM
M  V30 BEGIN BOND
M  V30 1 1 1 2
M  V30 2 1 2 3
M  V30 3 1 3 4
M  V30 4 1 4 5
M  V30 5 1 5 6
M  V30 6 1 6 7
M  V30 7 1 7 8
M  V30 8 1 8 9
M  V30 9 2 8 10 CFG=2
M  V30 10 1 2 11
M  V30 11 1 11 12
M  V30 12 2 11 13
M  V30 13 1 5 3
M  V30 14 1 1 14
M  V30 15 1 1 15
M  V30 16 1 2 16 CFG=3
M  V30 17 1 3 17 CFG=1
M  V30 18 1 4 18
M  V30 19 1 4 19
M  V30 20 1 5 20 CFG=3
M  V30 21 1 6 21
M  V30 22 1 6 22
M  V30 23 1 7 23
M  V30 24 1 9 24
M  V30 25 1 9 25
M  V30 26 1 10 26
M  V30 27 1 12 27
M  V30 END BOND
M  V30 END CTAB
M  END
