
     RDKit          3D

  0  0  0  0  0  0  0  0  0  0999 V3000
M  V30 BEGIN CTAB
M  V30 COUNTS 54 57 0 0 0
M  V30 BEGIN ATOM
M  V30 1 N -6.772 3.17353 -0.324584 0
M  V30 2 C -6.06573 2.00923 -0.808073 0
M  V30 3 N -6.22599 1.59229 -1.93721 0
M  V30 4 C -5.19339 1.306 0.167513 0
M  V30 5 C -4.62458 0.0990331 -0.153683 0
M  V30 6 C -3.8328 -0.621739 0.747806 0
M  V30 7 C -3.65357 -0.0506416 1.96954 0
M  V30 8 C -4.19318 1.15501 2.36394 0
M  V30 9 C -4.97398 1.8298 1.43249 0
M  V30 10 N -3.34762 -1.88711 0.327277 0
M  V30 11 N -4.23197 -2.91654 0.262949 0
M  V30 12 C -3.60849 -3.98351 -0.217147 0
M  V30 13 C -2.30117 -3.63699 -0.46273 0
M  V30 14 C -2.18491 -2.28188 -0.0927058 0
M  V30 15 C -0.875944 -1.65617 -0.176269 0
M  V30 16 O -0.270466 -1.77075 -1.31719 0
M  V30 17 N -0.26659 -0.97353 0.899533 0
M  V30 18 C 1.01023 -0.347603 0.717755 0
M  V30 19 N 1.58085 -0.412986 -0.528599 0
M  V30 20 C 2.78029 0.177384 -0.753367 0
M  V30 21 C 3.4932 0.87161 0.240636 0
M  V30 22 C 2.88973 0.913415 1.46378 0
M  V30 23 N 1.67 0.30308 1.66553 0
M  V30 24 C 4.74952 1.51925 -0.123965 0
M  V30 25 C 4.73716 2.92324 -0.28936 0
M  V30 26 C 5.81437 3.63131 -0.737198 0
M  V30 27 C 6.98122 2.95213 -1.0531 0
M  V30 28 C 7.02527 1.59346 -0.90198 0
M  V30 29 C 5.90948 0.889937 -0.439661 0
M  V30 30 S 6.17738 -0.803044 -0.0773498 0
M  V30 31 N 6.6976 -0.849841 1.58569 0
M  V30 32 O 4.99063 -1.68321 -0.288379 0
M  V30 33 O 7.33692 -1.28649 -0.930537 0
M  V30 34 C -4.16083 -5.33093 -0.491394 0
M  V30 35 F -5.55395 -5.28552 -0.43524 0
M  V30 36 F -3.66319 -6.20941 0.45932 0
M  V30 37 F -3.70897 -5.74576 -1.72259 0
M  V30 38 H -6.49677 4.12119 -0.661707 0
M  V30 39 H -7.52525 3.1239 0.3587 0
M  V30 40 H -6.65117 1.66456 -2.77869 0
M  V30 41 H -4.79957 -0.305724 -1.11795 0
M  V30 42 H -3.04169 -0.560056 2.67912 0
M  V30 43 H -4.05611 1.61964 3.31987 0
M  V30 44 H -5.4183 2.7421 1.68539 0
M  V30 45 H -1.52511 -4.2599 -0.850679 0
M  V30 46 H -0.756223 -0.905829 1.80084 0
M  V30 47 H 3.2751 0.164121 -1.73192 0
M  V30 48 H 3.39583 1.42596 2.26066 0
M  V30 49 H 3.82453 3.4171 -0.0404202 0
M  V30 50 H 5.83214 4.71168 -0.866822 0
M  V30 51 H 7.8614 3.49647 -1.41055 0
M  V30 52 H 7.93262 1.04681 -1.14446 0
M  V30 53 H 6.2718 -0.10255 2.13702 0
M  V30 54 H 7.74225 -0.605518 1.54184 0
M  V30 END ATOM
M  V30 BEGIN BOND
M  V30 1 1 1 2
M  V30 2 2 2 3 CFG=2
M  V30 3 1 2 4
M  V30 4 2 4 5
M  V30 5 1 5 6
M  V30 6 2 6 7
M  V30 7 1 7 8
M  V30 8 2 8 9
M  V30 9 1 6 10
M  V30 10 1 10 11
M  V30 11 2 11 12
M  V30 12 1 12 13
M  V30 13 2 13 14
M  V30 14 1 14 15
M  V30 15 2 15 16
M  V30 16 1 15 17
M  V30 17 1 17 18
M  V30 18 2 18 19
M  V30 19 1 19 20
M  V30 20 2 20 21
M  V30 21 1 21 22
M  V30 22 2 22 23
M  V30 23 1 21 24
M  V30 24 2 24 25
M  V30 25 1 25 26
M  V30 26 2 26 27
M  V30 27 1 27 28
M  V30 28 2 28 29
M  V30 29 1 29 30
M  V30 30 1 30 31
M  V30 31 2 30 32
M  V30 32 2 30 33
M  V30 33 1 12 34
M  V30 34 1 34 35
M  V30 35 1 34 36
M  V30 36 1 34 37
M  V30 37 1 9 4
M  V30 38 1 14 10
M  V30 39 1 23 18
M  V30 40 1 29 24
M  V30 41 1 1 38
M  V30 42 1 1 39
M  V30 43 1 3 40
M  V30 44 1 5 41
M  V30 45 1 7 42
M  V30 46 1 8 43
M  V30 47 1 9 44
M  V30 48 1 13 45
M  V30 49 1 17 46
M  V30 50 1 20 47
M  V30 51 1 22 48
M  V30 52 1 25 49
M  V30 53 1 26 50
M  V30 54 1 27 51
M  V30 55 1 28 52
M  V30 56 1 31 53
M  V30 57 1 31 54
M  V30 END BOND
M  V30 END CTAB
M  END
