
     RDKit          3D

  0  0  0  0  0  0  0  0  0  0999 V3000
M  V30 BEGIN CTAB
M  V30 COUNTS 23 24 0 0 0
M  V30 BEGIN ATOM
M  V30 1 N -3.29835 -1.9991 -0.964614 0
M  V30 2 C -2.47598 -0.9778 -0.437819 0
M  V30 3 N -1.12081 -1.03208 -0.520612 0
M  V30 4 C -0.372787 -0.0611614 -0.0184751 0
M  V30 5 N -0.980855 0.980306 0.5754 0
M  V30 6 C -2.30973 1.06686 0.674823 0
M  V30 7 N -2.87026 2.19765 1.31569 0
M  V30 8 N -3.05706 0.0756409 0.161551 0
M  V30 9 C 1.08643 -0.0518186 -0.0705379 0
M  V30 10 C 1.74656 -1.09689 -0.668464 0
M  V30 11 C 3.14552 -1.11288 -0.732028 0
M  V30 12 Cl 4.00675 -2.44007 -1.49226 0
M  V30 13 C 3.86882 -0.0683594 -0.188616 0
M  V30 14 C 3.21581 0.982191 0.412032 0
M  V30 15 C 1.83786 0.959743 0.453738 0
M  V30 16 Cl 0.966899 2.29662 1.21968 0
M  V30 17 H -4.13544 -1.7553 -1.5055 0
M  V30 18 H -3.0471 -2.98077 -0.798961 0
M  V30 19 H -2.97778 2.21668 2.33593 0
M  V30 20 H -3.16714 2.99725 0.744965 0
M  V30 21 H 1.1755 -1.90372 -1.08774 0
M  V30 22 H 4.96532 -0.0757684 -0.235637 0
M  V30 23 H 3.79784 1.78278 0.827462 0
M  V30 END ATOM
M  V30 BEGIN BOND
M  V30 1 1 1 2
M  V30 2 2 2 3
M  V30 3 1 3 4
M  V30 4 2 4 5
M  V30 5 1 5 6
M  V30 6 1 6 7
M  V30 7 2 6 8
M  V30 8 1 4 9
M  V30 9 2 9 10
M  V30 10 1 10 11
M  V30 11 1 11 12
M  V30 12 2 11 13
M  V30 13 1 13 14
M  V30 14 2 14 15
M  V30 15 1 15 16
M  V30 16 1 8 2
M  V30 17 1 15 9
M  V30 18 1 1 17
M  V30 19 1 1 18
M  V30 20 1 7 19
M  V30 21 1 7 20
M  V30 22 1 10 21
M  V30 23 1 13 22
M  V30 24 1 14 23
M  V30 END BOND
M  V30 END CTAB
M  END
