
     RDKit          3D

  0  0  0  0  0  0  0  0  0  0999 V3000
M  V30 BEGIN CTAB
M  V30 COUNTS 42 46 0 0 0
M  V30 BEGIN ATOM
M  V30 1 N 8.48814 1.52849 -0.510763 0
M  V30 2 C 7.29691 0.779747 -0.286406 0
M  V30 3 C 7.37638 -0.529247 0.12951 0
M  V30 4 C 6.25737 -1.29506 0.360065 0
M  V30 5 C 5.00947 -0.725716 0.165869 0
M  V30 6 C 4.93289 0.58203 -0.24962 0
M  V30 7 C 6.06595 1.34698 -0.479751 0
M  V30 8 N 3.64141 0.888232 -0.360851 0
M  V30 9 C 2.90108 -0.174269 -0.0320702 0
M  V30 10 N 3.74813 -1.16258 0.290572 0
M  V30 11 C 1.42372 -0.236013 -0.028642 0
M  V30 12 C 0.767551 -1.38917 0.329777 0
M  V30 13 C -0.624243 -1.46729 0.339373 0
M  V30 14 C -1.38699 -0.379236 -0.0138771 0
M  V30 15 C -0.737084 0.778015 -0.373667 0
M  V30 16 C 0.662118 0.853512 -0.382347 0
M  V30 17 C -2.84261 -0.442681 -0.00961739 0
M  V30 18 N -3.64883 -1.46362 0.305272 0
M  V30 19 C -4.94358 -1.13188 0.185998 0
M  V30 20 C -4.94607 0.183508 -0.231051 0
M  V30 21 N -3.66544 0.572088 -0.340293 0
M  V30 22 C -6.16421 0.792167 -0.43728 0
M  V30 23 C -7.35511 0.120276 -0.237235 0
M  V30 24 C -7.36656 -1.19293 0.17897 0
M  V30 25 C -6.14593 -1.80174 0.385276 0
M  V30 26 N -8.58032 0.806447 -0.468116 0
M  V30 27 H 8.64875 2.00265 -1.40694 0
M  V30 28 H 9.18789 1.58187 0.254056 0
M  V30 29 H 8.35241 -1.00402 0.290751 0
M  V30 30 H 6.30146 -2.32652 0.687595 0
M  V30 31 H 5.97691 2.36561 -0.803711 0
M  V30 32 H 3.24487 1.81095 -0.657771 0
M  V30 33 H 1.36362 -2.24156 0.606502 0
M  V30 34 H -1.09978 -2.4145 0.634471 0
M  V30 35 H -1.28206 1.68333 -0.666605 0
M  V30 36 H 1.17682 1.76028 -0.664206 0
M  V30 37 H -3.37168 1.54587 -0.64582 0
M  V30 38 H -6.1438 1.82084 -0.763177 0
M  V30 39 H -8.30898 -1.72789 0.338311 0
M  V30 40 H -6.12732 -2.82312 0.709279 0
M  V30 41 H -8.82035 1.68498 0.0419923 0
M  V30 42 H -9.2629 0.441179 -1.15465 0
M  V30 END ATOM
M  V30 BEGIN BOND
M  V30 1 1 1 2
M  V30 2 2 2 3
M  V30 3 1 3 4
M  V30 4 2 4 5
M  V30 5 1 5 6
M  V30 6 2 6 7
M  V30 7 1 6 8
M  V30 8 1 8 9
M  V30 9 2 9 10
M  V30 10 1 9 11
M  V30 11 2 11 12
M  V30 12 1 12 13
M  V30 13 2 13 14
M  V30 14 1 14 15
M  V30 15 2 15 16
M  V30 16 1 14 17
M  V30 17 2 17 18
M  V30 18 1 18 19
M  V30 19 2 19 20
M  V30 20 1 20 21
M  V30 21 1 20 22
M  V30 22 2 22 23
M  V30 23 1 23 24
M  V30 24 2 24 25
M  V30 25 1 23 26
M  V30 26 1 7 2
M  V30 27 1 16 11
M  V30 28 1 21 17
M  V30 29 1 10 5
M  V30 30 1 25 19
M  V30 31 1 1 27
M  V30 32 1 1 28
M  V30 33 1 3 29
M  V30 34 1 4 30
M  V30 35 1 7 31
M  V30 36 1 8 32
M  V30 37 1 12 33
M  V30 38 1 13 34
M  V30 39 1 15 35
M  V30 40 1 16 36
M  V30 41 1 21 37
M  V30 42 1 22 38
M  V30 43 1 24 39
M  V30 44 1 25 40
M  V30 45 1 26 41
M  V30 46 1 26 42
M  V30 END BOND
M  V30 END CTAB
M  END
