
     RDKit          3D

  0  0  0  0  0  0  0  0  0  0999 V3000
M  V30 BEGIN CTAB
M  V30 COUNTS 40 42 0 0 0
M  V30 BEGIN ATOM
M  V30 1 C -0.939601 1.67232 0.17297 0 CFG=2
M  V30 2 S -0.66753 0.232109 1.2127 0
M  V30 3 C -2.25199 -0.505431 1.35268 0
M  V30 4 C -3.33433 -0.0899533 0.422639 0
M  V30 5 C -4.61077 -0.747796 0.730705 0
M  V30 6 C -4.69597 -1.61764 1.74443 0
M  V30 7 C -3.17909 0.757376 -0.543509 0
M  V30 8 N -1.9172 1.39657 -0.819788 0
M  V30 9 C -1.04904 1.96756 -1.74205 0
M  V30 10 O -1.20833 2.4564 -2.91525 0
M  V30 11 C 0.11305 1.79249 -0.852093 0
M  V30 12 N 0.869458 0.587401 -1.04778 0
M  V30 13 C 2.28284 0.60709 -1.09407 0
M  V30 14 O 2.88506 1.69333 -0.96221 0
M  V30 15 C 3.0542 -0.653115 -1.29807 0
M  V30 16 N 2.1351 -1.76941 -1.42386 0
M  V30 17 C 3.97622 -0.909339 -0.116137 0
M  V30 18 C 4.53555 -2.15462 0.0347794 0
M  V30 19 S 5.45791 -1.94696 1.4578 0
M  V30 20 C 5.07573 -0.29017 1.77318 0
M  V30 21 N 5.51937 0.547442 2.84074 0
M  V30 22 N 4.26509 -0.0112231 0.762135 0
M  V30 23 C -4.2872 1.11703 -1.43012 0
M  V30 24 O -5.57229 0.683307 -1.42292 0
M  V30 25 O -4.06097 1.97462 -2.38291 0
M  V30 26 H -1.12136 2.55348 0.731146 0
M  V30 27 H -2.64952 -0.295151 2.39709 0
M  V30 28 H -2.14483 -1.61974 1.34232 0
M  V30 29 H -5.51647 -0.599066 0.211953 0
M  V30 30 H -3.87823 -1.88826 2.3789 0
M  V30 31 H -5.6481 -2.07778 1.93782 0
M  V30 32 H 0.742672 2.7207 -0.743896 0
M  V30 33 H 0.368033 -0.312273 -1.15688 0
M  V30 34 H 3.63372 -0.584921 -2.2352 0
M  V30 35 H 2.51406 -2.43921 -2.10473 0
M  V30 36 H 1.92276 -2.2034 -0.490527 0
M  V30 37 H 4.40701 -3.04312 -0.609865 0
M  V30 38 H 4.93715 0.666196 3.67537 0
M  V30 39 H 6.42541 1.02019 2.74882 0
M  V30 40 H -6.38757 1.31299 -1.41618 0
M  V30 END ATOM
M  V30 BEGIN BOND
M  V30 1 1 1 2
M  V30 2 1 2 3
M  V30 3 1 3 4
M  V30 4 1 4 5
M  V30 5 2 5 6 CFG=2
M  V30 6 2 4 7
M  V30 7 1 7 8
M  V30 8 1 8 9
M  V30 9 2 9 10
M  V30 10 1 9 11
M  V30 11 1 11 12
M  V30 12 1 12 13
M  V30 13 2 13 14
M  V30 14 1 13 15
M  V30 15 1 15 16
M  V30 16 1 15 17
M  V30 17 2 17 18
M  V30 18 1 18 19
M  V30 19 1 19 20
M  V30 20 1 20 21
M  V30 21 2 20 22
M  V30 22 1 7 23
M  V30 23 1 23 24
M  V30 24 2 23 25
M  V30 25 1 8 1
M  V30 26 1 22 17
M  V30 27 1 11 1
M  V30 28 1 1 26 CFG=1
M  V30 29 1 3 27
M  V30 30 1 3 28
M  V30 31 1 5 29
M  V30 32 1 6 30
M  V30 33 1 6 31
M  V30 34 1 11 32
M  V30 35 1 12 33
M  V30 36 1 15 34
M  V30 37 1 16 35
M  V30 38 1 16 36
M  V30 39 1 18 37
M  V30 40 1 21 38
M  V30 41 1 21 39
M  V30 42 1 24 40
M  V30 END BOND
M  V30 END CTAB
M  END
