
     RDKit          3D

  0  0  0  0  0  0  0  0  0  0999 V3000
M  V30 BEGIN CTAB
M  V30 COUNTS 29 29 0 0 0
M  V30 BEGIN ATOM
M  V30 1 N 4.63749 -0.33226 -0.662074 0
M  V30 2 N 3.59018 0.0183579 0.17699 0
M  V30 3 C 2.22853 -0.213872 -0.122749 0
M  V30 4 O 1.92325 -0.767635 -1.20391 0
M  V30 5 C 1.18314 0.188381 0.820427 0
M  V30 6 C -0.211812 -0.0778617 0.369547 0
M  V30 7 N -0.389962 -1.49836 0.130141 0
M  V30 8 C -0.672871 0.684401 -0.821661 0
M  V30 9 C -2.10194 0.24396 -1.12292 0
M  V30 10 C -3.03241 0.487206 0.0207108 0
M  V30 11 C -2.53967 -0.199798 1.27628 0
M  V30 12 C -1.14647 0.275896 1.53531 0
M  V30 13 H 4.86463 0.36821 -1.37253 0
M  V30 14 H 5.43135 -0.778221 -0.197285 0
M  V30 15 H 3.82392 0.478234 1.0773 0
M  V30 16 H 1.28223 1.27475 1.12445 0
M  V30 17 H 1.38757 -0.356799 1.78541 0
M  V30 18 H -0.319625 -1.74753 -0.878273 0
M  V30 19 H 0.28311 -2.03997 0.690637 0
M  V30 20 H -0.728179 1.78223 -0.651861 0
M  V30 21 H -0.099238 0.469105 -1.73787 0
M  V30 22 H -2.5087 0.798742 -2.01327 0
M  V30 23 H -2.12557 -0.82678 -1.37868 0
M  V30 24 H -3.08445 1.56931 0.232337 0
M  V30 25 H -4.02326 0.108446 -0.259724 0
M  V30 26 H -3.16854 0.124355 2.12441 0
M  V30 27 H -2.59885 -1.29964 1.20427 0
M  V30 28 H -1.16199 1.38416 1.58734 0
M  V30 29 H -0.721844 -0.117023 2.48569 0
M  V30 END ATOM
M  V30 BEGIN BOND
M  V30 1 1 1 2
M  V30 2 1 2 3
M  V30 3 2 3 4
M  V30 4 1 3 5
M  V30 5 1 5 6
M  V30 6 1 6 7
M  V30 7 1 6 8
M  V30 8 1 8 9
M  V30 9 1 9 10
M  V30 10 1 10 11
M  V30 11 1 11 12
M  V30 12 1 12 6
M  V30 13 1 1 13
M  V30 14 1 1 14
M  V30 15 1 2 15
M  V30 16 1 5 16
M  V30 17 1 5 17
M  V30 18 1 7 18
M  V30 19 1 7 19
M  V30 20 1 8 20
M  V30 21 1 8 21
M  V30 22 1 9 22
M  V30 23 1 9 23
M  V30 24 1 10 24
M  V30 25 1 10 25
M  V30 26 1 11 26
M  V30 27 1 11 27
M  V30 28 1 12 28
M  V30 29 1 12 29
M  V30 END BOND
M  V30 END CTAB
M  END
