
     RDKit          3D

  0  0  0  0  0  0  0  0  0  0999 V3000
M  V30 BEGIN CTAB
M  V30 COUNTS 52 53 0 0 0
M  V30 BEGIN ATOM
M  V30 1 C 3.84531 -3.0746 -2.82378 0
M  V30 2 O 3.28798 -2.20188 -1.875 0
M  V30 3 C 4.05591 -1.22469 -1.30482 0
M  V30 4 C 5.40366 -1.10191 -1.67601 0
M  V30 5 C 6.19082 -0.142991 -1.12887 0
M  V30 6 C 5.72649 0.757174 -0.189473 0
M  V30 7 C 4.41046 0.630148 0.166894 0
M  V30 8 C 3.55585 -0.354175 -0.378195 0
M  V30 9 C 2.18115 -0.365738 0.101958 0
M  V30 10 O 1.88077 0.527741 0.971577 0
M  V30 11 N 1.15602 -1.21799 -0.260819 0
M  V30 12 C -0.213673 -1.21763 0.181879 0
M  V30 13 C -1.02001 -0.103209 -0.261653 0
M  V30 14 C -2.44084 -0.138812 0.205991 0
M  V30 15 C -2.99241 -1.16249 0.918698 0
M  V30 16 C -4.32432 -1.12098 1.31774 0
M  V30 17 C -5.12566 -0.0445416 1.00479 0
M  V30 18 C -4.56744 0.987992 0.285327 0
M  V30 19 C -3.22591 0.946287 -0.116654 0
M  V30 20 C -6.54128 -0.0413945 1.45048 0
M  V30 21 C -6.84127 1.13805 2.35217 0
M  V30 22 C -7.47921 -0.0360743 0.236181 0
M  V30 23 N -0.504441 1.1906 0.0169558 0
M  V30 24 S 6.77635 1.97232 0.485268 0
M  V30 25 O 8.16412 1.45527 0.571511 0
M  V30 26 O 6.3295 2.29953 1.89306 0
M  V30 27 N 6.76901 3.42629 -0.408866 0
M  V30 28 H 4.30997 -2.54665 -3.68678 0
M  V30 29 H 3.08488 -3.7629 -3.2445 0
M  V30 30 H 4.66481 -3.6389 -2.30482 0
M  V30 31 H 5.75629 -1.82322 -2.42187 0
M  V30 32 H 7.22576 -0.073737 -1.43545 0
M  V30 33 H 4.04559 1.33729 0.904915 0
M  V30 34 H 1.41923 -1.98808 -0.971453 0
M  V30 35 H -0.240974 -1.2232 1.33354 0
M  V30 36 H -0.631081 -2.23312 -0.0449476 0
M  V30 37 H -1.12175 -0.15356 -1.39913 0
M  V30 38 H -2.35085 -1.99936 1.15613 0
M  V30 39 H -4.72496 -1.94607 1.8783 0
M  V30 40 H -5.21149 1.82089 0.0507655 0
M  V30 41 H -2.84689 1.79448 -0.68254 0
M  V30 42 H -6.7998 -0.958031 2.01438 0
M  V30 43 H -7.3158 0.858539 3.29594 0
M  V30 44 H -5.84584 1.58606 2.62177 0
M  V30 45 H -7.38684 1.92503 1.79275 0
M  V30 46 H -7.5703 -1.09323 -0.10303 0
M  V30 47 H -8.43642 0.377382 0.557961 0
M  V30 48 H -6.99334 0.554938 -0.565412 0
M  V30 49 H -1.00648 1.69726 0.784794 0
M  V30 50 H -0.36331 1.80008 -0.823213 0
M  V30 51 H 7.71618 3.74013 -0.707298 0
M  V30 52 H 6.16648 4.16567 -0.0373858 0
M  V30 END ATOM
M  V30 BEGIN BOND
M  V30 1 1 1 2
M  V30 2 1 2 3
M  V30 3 2 3 4
M  V30 4 1 4 5
M  V30 5 2 5 6
M  V30 6 1 6 7
M  V30 7 2 7 8
M  V30 8 1 8 9
M  V30 9 2 9 10
M  V30 10 1 9 11
M  V30 11 1 11 12
M  V30 12 1 12 13
M  V30 13 1 13 14
M  V30 14 2 14 15
M  V30 15 1 15 16
M  V30 16 2 16 17
M  V30 17 1 17 18
M  V30 18 2 18 19
M  V30 19 1 17 20
M  V30 20 1 20 21
M  V30 21 1 20 22
M  V30 22 1 13 23
M  V30 23 1 6 24
M  V30 24 2 24 25
M  V30 25 2 24 26
M  V30 26 1 24 27
M  V30 27 1 8 3
M  V30 28 1 19 14
M  V30 29 1 1 28
M  V30 30 1 1 29
M  V30 31 1 1 30
M  V30 32 1 4 31
M  V30 33 1 5 32
M  V30 34 1 7 33
M  V30 35 1 11 34
M  V30 36 1 12 35
M  V30 37 1 12 36
M  V30 38 1 13 37
M  V30 39 1 15 38
M  V30 40 1 16 39
M  V30 41 1 18 40
M  V30 42 1 19 41
M  V30 43 1 20 42
M  V30 44 1 21 43
M  V30 45 1 21 44
M  V30 46 1 21 45
M  V30 47 1 22 46
M  V30 48 1 22 47
M  V30 49 1 22 48
M  V30 50 1 23 49
M  V30 51 1 23 50
M  V30 52 1 27 51
M  V30 53 1 27 52
M  V30 END BOND
M  V30 END CTAB
M  END
