
     RDKit          3D

  0  0  0  0  0  0  0  0  0  0999 V3000
M  V30 BEGIN CTAB
M  V30 COUNTS 46 46 0 0 0
M  V30 BEGIN ATOM
M  V30 1 C 7.31068 -2.66066 0.0352266 0
M  V30 2 C 6.19838 -2.71293 -0.97985 0
M  V30 3 O 5.05492 -1.99114 -0.549789 0
M  V30 4 C 5.05574 -0.655944 -0.267136 0
M  V30 5 O 6.12125 -0.0101939 -0.389014 0
M  V30 6 C 3.86962 0.0784206 0.176421 0
M  V30 7 C 2.64762 -0.534509 0.347361 0
M  V30 8 C 1.51034 0.118426 0.761138 0
M  V30 9 C 1.59865 1.47011 1.02093 0
M  V30 10 O 0.461572 2.12457 1.43524 0
M  V30 11 C -0.384669 2.66292 0.478074 0
M  V30 12 O -0.0765517 2.53008 -0.727039 0
M  V30 13 C -1.62779 3.38297 0.81281 0
M  V30 14 C -2.8593 2.52573 0.731816 0
M  V30 15 C -3.04723 1.97646 -0.649361 0
M  V30 16 C -4.28507 1.11359 -0.748161 0
M  V30 17 C -4.23921 -0.0652062 0.182225 0
M  V30 18 N -5.43356 -0.837898 0.0402665 0
M  V30 19 C -5.46719 -2.11025 -0.130088 0
M  V30 20 N -6.73688 -2.76208 -0.258376 0
M  V30 21 N -4.30425 -2.92555 -0.200193 0
M  V30 22 C 2.81589 2.14053 0.863027 0
M  V30 23 C 3.9218 1.42978 0.444961 0
M  V30 24 H 7.91808 -1.75617 -0.011118 0
M  V30 25 H 7.9597 -3.56185 -0.0741428 0
M  V30 26 H 6.84016 -2.75494 1.03907 0
M  V30 27 H 5.95234 -3.7563 -1.21954 0
M  V30 28 H 6.56594 -2.23861 -1.90358 0
M  V30 29 H 2.61898 -1.60061 0.132078 0
M  V30 30 H 0.552711 -0.413786 0.884336 0
M  V30 31 H -1.50915 3.84601 1.80927 0
M  V30 32 H -1.68143 4.25136 0.0957239 0
M  V30 33 H -3.73945 3.15433 0.958115 0
M  V30 34 H -2.74308 1.68465 1.43593 0
M  V30 35 H -3.14891 2.77366 -1.40973 0
M  V30 36 H -2.19824 1.31762 -0.971078 0
M  V30 37 H -4.3239 0.722124 -1.77824 0
M  V30 38 H -5.1991 1.683 -0.575384 0
M  V30 39 H -3.33144 -0.638531 -0.0371643 0
M  V30 40 H -4.18167 0.249298 1.25661 0
M  V30 41 H -7.51716 -2.27807 -0.73502 0
M  V30 42 H -6.86285 -3.71699 0.129334 0
M  V30 43 H -3.74515 -2.89411 -1.08548 0
M  V30 44 H -4.03789 -3.52544 0.615442 0
M  V30 45 H 2.8435 3.20529 1.07749 0
M  V30 46 H 4.86329 1.96084 0.325474 0
M  V30 END ATOM
M  V30 BEGIN BOND
M  V30 1 1 1 2
M  V30 2 1 2 3
M  V30 3 1 3 4
M  V30 4 2 4 5
M  V30 5 1 4 6
M  V30 6 2 6 7
M  V30 7 1 7 8
M  V30 8 2 8 9
M  V30 9 1 9 10
M  V30 10 1 10 11
M  V30 11 2 11 12
M  V30 12 1 11 13
M  V30 13 1 13 14
M  V30 14 1 14 15
M  V30 15 1 15 16
M  V30 16 1 16 17
M  V30 17 1 17 18
M  V30 18 2 18 19
M  V30 19 1 19 20
M  V30 20 1 19 21
M  V30 21 1 9 22
M  V30 22 2 22 23
M  V30 23 1 23 6
M  V30 24 1 1 24
M  V30 25 1 1 25
M  V30 26 1 1 26
M  V30 27 1 2 27
M  V30 28 1 2 28
M  V30 29 1 7 29
M  V30 30 1 8 30
M  V30 31 1 13 31
M  V30 32 1 13 32
M  V30 33 1 14 33
M  V30 34 1 14 34
M  V30 35 1 15 35
M  V30 36 1 15 36
M  V30 37 1 16 37
M  V30 38 1 16 38
M  V30 39 1 17 39
M  V30 40 1 17 40
M  V30 41 1 20 41
M  V30 42 1 20 42
M  V30 43 1 21 43
M  V30 44 1 21 44
M  V30 45 1 22 45
M  V30 46 1 23 46
M  V30 END BOND
M  V30 END CTAB
M  END
