
     RDKit          3D

  0  0  0  0  0  0  0  0  0  0999 V3000
M  V30 BEGIN CTAB
M  V30 COUNTS 24 26 0 0 0
M  V30 BEGIN ATOM
M  V30 1 N 1.83239 1.81201 0.233498 0
M  V30 2 C 1.6988 0.435134 0.100886 0
M  V30 3 N 2.62886 -0.517424 -0.0781291 0
M  V30 4 N 4.00174 -0.221333 -0.102791 0
M  V30 5 C 2.04431 -1.68806 -0.23781 0
M  V30 6 N 0.701619 -1.47464 -0.16856 0
M  V30 7 C 0.459462 -0.176557 0.0501974 0
M  V30 8 C -0.861225 0.41026 0.380638 0
M  V30 9 C -1.70072 1.07264 -0.620016 0
M  V30 10 C -1.94979 -0.344957 -0.0959914 0
M  V30 11 C -3.12087 -0.905515 -0.535029 0
M  V30 12 C -3.0869 -0.616659 0.901936 0
M  V30 13 H 1.68284 2.3487 1.06211 0
M  V30 14 H 2.11781 2.35017 -0.650716 0
M  V30 15 H 4.67447 -0.481015 0.619777 0
M  V30 16 H 4.38864 0.296833 -0.934679 0
M  V30 17 H 2.56036 -2.64626 -0.369731 0
M  V30 18 H -0.885361 0.781748 1.43249 0
M  V30 19 H -2.4851 1.80442 -0.313194 0
M  V30 20 H -1.30427 1.22179 -1.64432 0
M  V30 21 H -3.88166 -0.283998 -1.11277 0
M  V30 22 H -3.21619 -1.95533 -0.847999 0
M  V30 23 H -3.48645 0.272752 1.36953 0
M  V30 24 H -2.81277 -1.49472 1.56067 0
M  V30 END ATOM
M  V30 BEGIN BOND
M  V30 1 1 1 2
M  V30 2 1 2 3
M  V30 3 1 3 4
M  V30 4 1 3 5
M  V30 5 2 5 6
M  V30 6 1 6 7
M  V30 7 1 7 8
M  V30 8 1 8 9
M  V30 9 1 9 10
M  V30 10 1 10 11
M  V30 11 1 11 12
M  V30 12 2 7 2
M  V30 13 1 10 8
M  V30 14 1 12 10
M  V30 15 1 1 13
M  V30 16 1 1 14
M  V30 17 1 4 15
M  V30 18 1 4 16
M  V30 19 1 5 17
M  V30 20 1 8 18
M  V30 21 1 9 19
M  V30 22 1 9 20
M  V30 23 1 11 21
M  V30 24 1 11 22
M  V30 25 1 12 23
M  V30 26 1 12 24
M  V30 END BOND
M  V30 END CTAB
M  END
