
     RDKit          3D

  0  0  0  0  0  0  0  0  0  0999 V3000
M  V30 BEGIN CTAB
M  V30 COUNTS 116 117 0 0 0
M  V30 BEGIN ATOM
M  V30 1 N 10.0486 1.59285 -1.79578 0
M  V30 2 C 10.5744 0.935885 -0.600133 0
M  V30 3 C 9.74363 -0.245756 -0.21728 0
M  V30 4 C 8.30054 0.138522 0.0801814 0
M  V30 5 C 8.16888 1.12525 1.15972 0
M  V30 6 C 6.73453 1.53745 1.3793 0
M  V30 7 C 5.80331 0.479244 1.75537 0
M  V30 8 O 5.4036 0.393825 2.9533 0
M  V30 9 N 5.30138 -0.484628 0.847159 0
M  V30 10 C 4.35962 -1.53069 1.31516 0
M  V30 11 C 3.21458 -1.47419 0.377991 0
M  V30 12 O 3.3968 -0.97676 -0.795526 0
M  V30 13 N 1.89667 -1.92488 0.650132 0
M  V30 14 C 1.30595 -2.44553 1.87376 0
M  V30 15 C 0.50455 -3.65509 1.38075 0
M  V30 16 C 0.0836774 -3.23934 -0.0202666 0
M  V30 17 C 0.840553 -1.99154 -0.357662 0
M  V30 18 C 0.0488288 -0.783636 -0.512766 0
M  V30 19 O -0.911034 -0.833818 -1.37337 0
M  V30 20 N 0.210718 0.44106 0.170849 0
M  V30 21 C -0.689915 1.58255 -0.110414 0
M  V30 22 C -2.03086 1.30379 0.306112 0
M  V30 23 O -2.18475 0.153592 0.988531 0
M  V30 24 N -3.21865 1.97522 0.1579 0
M  V30 25 C -4.51919 1.4795 0.742307 0
M  V30 26 C -4.93102 0.325168 -0.0788553 0
M  V30 27 O -4.48535 0.293572 -1.27257 0
M  V30 28 N -5.75185 -0.766543 0.302023 0
M  V30 29 C -6.0053 -1.82839 -0.616151 0
M  V30 30 C -4.85705 -2.83411 -0.495386 0
M  V30 31 O -3.94442 -2.60917 0.293705 0
M  V30 32 O -4.88822 -3.96334 -1.27818 0
M  V30 33 C -7.26606 -2.55431 -0.662479 0
M  V30 34 C -8.50599 -1.8197 -0.97681 0
M  V30 35 C -9.65484 -2.85223 -0.975157 0
M  V30 36 C -8.87187 -0.645935 -0.157856 0
M  V30 37 C -5.43898 2.6211 0.864833 0
M  V30 38 C -6.77389 2.35388 1.45955 0
M  V30 39 C -6.61911 1.83179 2.87032 0
M  V30 40 C -5.633 3.33758 -0.475305 0
M  V30 41 C -0.419419 2.15479 -1.41952 0
M  V30 42 C -1.18492 3.30419 -1.92885 0
M  V30 43 C -0.903518 4.58433 -1.41045 0
M  V30 44 C -1.51385 5.68097 -1.9233 0
M  V30 45 C -2.4204 5.60986 -2.95703 0
M  V30 46 C -2.69254 4.33973 -3.4658 0
M  V30 47 C -2.08694 3.23937 -2.95751 0
M  V30 48 O -3.01636 6.76141 -3.45041 0
M  V30 49 C 5.14973 -2.83401 1.12156 0
M  V30 50 C 5.52005 -3.06338 -0.307581 0
M  V30 51 C 6.27938 -4.3635 -0.502565 0
M  V30 52 C 4.59046 -4.00776 1.81612 0
M  V30 53 N 6.69591 2.57835 2.4377 0
M  V30 54 H 9.13905 2.06943 -1.54156 0
M  V30 55 H 10.7679 2.27172 -2.15048 0
M  V30 56 H 11.5742 0.508338 -0.923227 0
M  V30 57 H 10.8066 1.6396 0.194926 0
M  V30 58 H 9.79579 -0.964224 -1.05634 0
M  V30 59 H 10.1362 -0.743746 0.682855 0
M  V30 60 H 7.77625 -0.81784 0.403593 0
M  V30 61 H 7.83054 0.442974 -0.859663 0
M  V30 62 H 8.55204 0.643676 2.10825 0
M  V30 63 H 8.72518 2.07591 0.98421 0
M  V30 64 H 6.34569 2.10116 0.470073 0
M  V30 65 H 5.59166 -0.426581 -0.148969 0
M  V30 66 H 4.13892 -1.37882 2.35445 0
M  V30 67 H 2.00302 -2.73611 2.65473 0
M  V30 68 H 0.559926 -1.72456 2.29471 0
M  V30 69 H -0.343361 -3.88366 2.04326 0
M  V30 70 H 1.17432 -4.53807 1.38776 0
M  V30 71 H -1.00465 -3.18438 -0.158563 0
M  V30 72 H 0.426078 -4.09179 -0.678852 0
M  V30 73 H 1.3905 -2.21441 -1.3118 0
M  V30 74 H 0.94143 0.554095 0.867449 0
M  V30 75 H -0.275783 2.37024 0.649805 0
M  V30 76 H -3.33799 2.86607 -0.326403 0
M  V30 77 H -4.23202 1.06008 1.72171 0
M  V30 78 H -6.14578 -0.784552 1.24762 0
M  V30 79 H -5.76329 -1.37461 -1.64638 0
M  V30 80 H -5.29131 -4.01126 -2.20174 0
M  V30 81 H -7.3687 -3.13216 0.309111 0
M  V30 82 H -7.11208 -3.38099 -1.45116 0
M  V30 83 H -8.48132 -1.49254 -2.06465 0
M  V30 84 H -10.0597 -3.00952 0.0431881 0
M  V30 85 H -10.4386 -2.51468 -1.65244 0
M  V30 86 H -9.21039 -3.7978 -1.34383 0
M  V30 87 H -9.99694 -0.573698 -0.130906 0
M  V30 88 H -8.45068 -0.579623 0.853685 0
M  V30 89 H -8.54357 0.280535 -0.733552 0
M  V30 90 H -4.93789 3.36633 1.56351 0
M  V30 91 H -7.43027 1.74472 0.84717 0
M  V30 92 H -7.31736 3.3341 1.58145 0
M  V30 93 H -5.93873 0.974735 2.88694 0
M  V30 94 H -7.61705 1.47458 3.22871 0
M  V30 95 H -6.24922 2.6625 3.51455 0
M  V30 96 H -6.68888 3.45468 -0.742378 0
M  V30 97 H -5.15164 2.77163 -1.31693 0
M  V30 98 H -5.18587 4.33683 -0.40629 0
M  V30 99 H 0.671866 2.49307 -1.52174 0
M  V30 100 H -0.475059 1.38368 -2.26728 0
M  V30 101 H -0.177969 4.62347 -0.577085 0
M  V30 102 H -1.29512 6.68468 -1.51323 0
M  V30 103 H -3.41052 4.29456 -4.29936 0
M  V30 104 H -2.32674 2.25069 -3.38819 0
M  V30 105 H -3.88296 7.03942 -3.01755 0
M  V30 106 H 6.13418 -2.59579 1.64429 0
M  V30 107 H 4.64046 -3.11081 -0.983939 0
M  V30 108 H 6.17173 -2.27334 -0.731878 0
M  V30 109 H 6.76093 -4.30532 -1.50045 0
M  V30 110 H 7.05267 -4.53396 0.245106 0
M  V30 111 H 5.56457 -5.23478 -0.588968 0
M  V30 112 H 5.33381 -4.83524 1.94778 0
M  V30 113 H 4.26079 -3.74308 2.86348 0
M  V30 114 H 3.71273 -4.47207 1.32614 0
M  V30 115 H 7.57083 3.11768 2.44226 0
M  V30 116 H 5.83462 3.14224 2.39954 0
M  V30 END ATOM
M  V30 BEGIN BOND
M  V30 1 1 1 2
M  V30 2 1 2 3
M  V30 3 1 3 4
M  V30 4 1 4 5
M  V30 5 1 5 6
M  V30 6 1 6 7
M  V30 7 2 7 8
M  V30 8 1 7 9
M  V30 9 1 9 10
M  V30 10 1 10 11
M  V30 11 2 11 12
M  V30 12 1 11 13
M  V30 13 1 13 14
M  V30 14 1 14 15
M  V30 15 1 15 16
M  V30 16 1 16 17
M  V30 17 1 17 18
M  V30 18 2 18 19
M  V30 19 1 18 20
M  V30 20 1 20 21
M  V30 21 1 21 22
M  V30 22 2 22 23
M  V30 23 1 22 24
M  V30 24 1 24 25
M  V30 25 1 25 26
M  V30 26 2 26 27
M  V30 27 1 26 28
M  V30 28 1 28 29
M  V30 29 1 29 30
M  V30 30 2 30 31
M  V30 31 1 30 32
M  V30 32 1 29 33
M  V30 33 1 33 34
M  V30 34 1 34 35
M  V30 35 1 34 36
M  V30 36 1 25 37
M  V30 37 1 37 38
M  V30 38 1 38 39
M  V30 39 1 37 40
M  V30 40 1 21 41
M  V30 41 1 41 42
M  V30 42 2 42 43
M  V30 43 1 43 44
M  V30 44 2 44 45
M  V30 45 1 45 46
M  V30 46 2 46 47
M  V30 47 1 45 48
M  V30 48 1 10 49
M  V30 49 1 49 50
M  V30 50 1 50 51
M  V30 51 1 49 52
M  V30 52 1 6 53
M  V30 53 1 17 13
M  V30 54 1 47 42
M  V30 55 1 1 54
M  V30 56 1 1 55
M  V30 57 1 2 56
M  V30 58 1 2 57
M  V30 59 1 3 58
M  V30 60 1 3 59
M  V30 61 1 4 60
M  V30 62 1 4 61
M  V30 63 1 5 62
M  V30 64 1 5 63
M  V30 65 1 6 64
M  V30 66 1 9 65
M  V30 67 1 10 66
M  V30 68 1 14 67
M  V30 69 1 14 68
M  V30 70 1 15 69
M  V30 71 1 15 70
M  V30 72 1 16 71
M  V30 73 1 16 72
M  V30 74 1 17 73
M  V30 75 1 20 74
M  V30 76 1 21 75
M  V30 77 1 24 76
M  V30 78 1 25 77
M  V30 79 1 28 78
M  V30 80 1 29 79
M  V30 81 1 32 80
M  V30 82 1 33 81
M  V30 83 1 33 82
M  V30 84 1 34 83
M  V30 85 1 35 84
M  V30 86 1 35 85
M  V30 87 1 35 86
M  V30 88 1 36 87
M  V30 89 1 36 88
M  V30 90 1 36 89
M  V30 91 1 37 90
M  V30 92 1 38 91
M  V30 93 1 38 92
M  V30 94 1 39 93
M  V30 95 1 39 94
M  V30 96 1 39 95
M  V30 97 1 40 96
M  V30 98 1 40 97
M  V30 99 1 40 98
M  V30 100 1 41 99
M  V30 101 1 41 100
M  V30 102 1 43 101
M  V30 103 1 44 102
M  V30 104 1 46 103
M  V30 105 1 47 104
M  V30 106 1 48 105
M  V30 107 1 49 106
M  V30 108 1 50 107
M  V30 109 1 50 108
M  V30 110 1 51 109
M  V30 111 1 51 110
M  V30 112 1 51 111
M  V30 113 1 52 112
M  V30 114 1 52 113
M  V30 115 1 52 114
M  V30 116 1 53 115
M  V30 117 1 53 116
M  V30 END BOND
M  V30 END CTAB
M  END
