
     RDKit          3D

  0  0  0  0  0  0  0  0  0  0999 V3000
M  V30 BEGIN CTAB
M  V30 COUNTS 15 15 0 0 0
M  V30 BEGIN ATOM
M  V30 1 N -1.74713 -0.911675 -0.0660936 0
M  V30 2 N -0.42069 -0.438528 -0.0164859 0
M  V30 3 C -0.244925 0.902449 0.0174427 0
M  V30 4 N -1.36106 1.77321 0.00289376 0
M  V30 5 N 1.03273 1.37006 0.0654954 0
M  V30 6 C 2.06293 0.522754 0.0780496 0
M  V30 7 C 1.89172 -0.83315 0.0439416 0
M  V30 8 C 0.598826 -1.31277 -0.00482907 0
M  V30 9 O 0.360676 -2.55179 -0.0384441 0
M  V30 10 H -2.14819 -1.0457 -1.01072 0
M  V30 11 H -2.30196 -1.11797 0.775342 0
M  V30 12 H -1.30603 2.6736 -0.508955 0
M  V30 13 H -2.24882 1.54776 0.490168 0
M  V30 14 H 3.08014 0.925909 0.116962 0
M  V30 15 H 2.75177 -1.50415 0.0552351 0
M  V30 END ATOM
M  V30 BEGIN BOND
M  V30 1 1 1 2
M  V30 2 1 2 3
M  V30 3 1 3 4
M  V30 4 2 3 5
M  V30 5 1 5 6
M  V30 6 2 6 7
M  V30 7 1 7 8
M  V30 8 2 8 9
M  V30 9 1 8 2
M  V30 10 1 1 10
M  V30 11 1 1 11
M  V30 12 1 4 12
M  V30 13 1 4 13
M  V30 14 1 6 14
M  V30 15 1 7 15
M  V30 END BOND
M  V30 END CTAB
M  END
