
     RDKit          3D

  0  0  0  0  0  0  0  0  0  0999 V3000
M  V30 BEGIN CTAB
M  V30 COUNTS 21 21 0 0 0
M  V30 BEGIN ATOM
M  V30 1 N 1.20774 -1.31775 1.53655 0
M  V30 2 C 0.727402 -0.00772514 1.17285 0
M  V30 3 C -0.489844 -0.192959 0.341284 0
M  V30 4 N -0.706936 -1.10056 -0.654213 0
M  V30 5 N -1.919 -0.920059 -1.13331 0
M  V30 6 C -2.53386 0.0875352 -0.489689 0
M  V30 7 N -1.64607 0.529064 0.416542 0
M  V30 8 N -3.86278 0.577607 -0.732152 0
M  V30 9 C 1.70406 0.9118 0.595883 0
M  V30 10 C 2.4051 0.577682 -0.640103 0
M  V30 11 F 3.16422 -0.55466 -0.642944 0
M  V30 12 F 1.5778 0.549654 -1.74477 0
M  V30 13 H 1.2833 -1.97529 0.746777 0
M  V30 14 H 0.630144 -1.74746 2.29387 0
M  V30 15 H 0.329513 0.414749 2.15086 0
M  V30 16 H 0.0326409 -1.78664 -0.917465 0
M  V30 17 H -4.13702 1.55571 -0.503466 0
M  V30 18 H -4.5827 -0.0590414 -1.15023 0
M  V30 19 H 2.47665 1.14812 1.38868 0
M  V30 20 H 1.19422 1.90703 0.441553 0
M  V30 21 H 3.14542 1.4032 -0.891879 0
M  V30 END ATOM
M  V30 BEGIN BOND
M  V30 1 1 1 2
M  V30 2 1 2 3
M  V30 3 1 3 4
M  V30 4 1 4 5
M  V30 5 2 5 6
M  V30 6 1 6 7
M  V30 7 1 6 8
M  V30 8 1 2 9
M  V30 9 1 9 10
M  V30 10 1 10 11
M  V30 11 1 10 12
M  V30 12 2 7 3
M  V30 13 1 1 13
M  V30 14 1 1 14
M  V30 15 1 2 15
M  V30 16 1 4 16
M  V30 17 1 8 17
M  V30 18 1 8 18
M  V30 19 1 9 19
M  V30 20 1 9 20
M  V30 21 1 10 21
M  V30 END BOND
M  V30 END CTAB
M  END
