
     RDKit          3D

  0  0  0  0  0  0  0  0  0  0999 V3000
M  V30 BEGIN CTAB
M  V30 COUNTS 36 38 0 0 0
M  V30 BEGIN ATOM
M  V30 1 C 6.32099 -0.793672 -0.852644 0
M  V30 2 O 5.56731 0.397113 -1.02773 0
M  V30 3 C 4.36415 0.558355 -0.344441 0
M  V30 4 C 3.87839 -0.409383 0.503018 0
M  V30 5 C 2.69832 -0.285523 1.19216 0
M  V30 6 C 1.92825 0.865573 1.04957 0
M  V30 7 S 0.452878 1.1885 1.8699 0
M  V30 8 C -1.05906 0.670589 1.15472 0
M  V30 9 C -1.35434 -0.000582295 -0.00842676 0
M  V30 10 C -0.477393 -0.510681 -1.06343 0
M  V30 11 C -2.75626 -0.116413 -0.00352481 0
M  V30 12 C -3.25509 0.465305 1.11873 0
M  V30 13 N -2.23643 0.938519 1.81543 0
M  V30 14 N -4.60496 0.447633 1.29364 0
M  V30 15 C -5.46381 -0.107332 0.42771 0
M  V30 16 N -6.88379 -0.0877603 0.679968 0
M  V30 17 N -4.96675 -0.681233 -0.679712 0
M  V30 18 C -3.62693 -0.691546 -0.903445 0
M  V30 19 N -3.06636 -1.29158 -2.06075 0
M  V30 20 C 2.43585 1.84452 0.181886 0
M  V30 21 C 3.61973 1.69221 -0.493967 0
M  V30 22 H 5.74197 -1.66064 -1.23081 0
M  V30 23 H 7.29952 -0.696884 -1.34985 0
M  V30 24 H 6.47247 -0.918242 0.258793 0
M  V30 25 H 4.48838 -1.31433 0.612186 0
M  V30 26 H 2.31581 -1.03863 1.85453 0
M  V30 27 H -0.631432 -1.62818 -1.11936 0
M  V30 28 H -0.781621 -0.126399 -2.08756 0
M  V30 29 H 0.57587 -0.250858 -0.999588 0
M  V30 30 H -2.35791 1.43941 2.73496 0
M  V30 31 H -7.46256 -0.95042 0.71928 0
M  V30 32 H -7.3624 0.826162 0.831176 0
M  V30 33 H -2.97741 -0.723978 -2.95023 0
M  V30 34 H -2.72974 -2.27127 -2.09615 0
M  V30 35 H 1.88458 2.76015 0.0290971 0
M  V30 36 H 4.00977 2.4615 -1.17015 0
M  V30 END ATOM
M  V30 BEGIN BOND
M  V30 1 1 1 2
M  V30 2 1 2 3
M  V30 3 2 3 4
M  V30 4 1 4 5
M  V30 5 2 5 6
M  V30 6 1 6 7
M  V30 7 1 7 8
M  V30 8 2 8 9
M  V30 9 1 9 10
M  V30 10 1 9 11
M  V30 11 2 11 12
M  V30 12 1 12 13
M  V30 13 1 12 14
M  V30 14 2 14 15
M  V30 15 1 15 16
M  V30 16 1 15 17
M  V30 17 2 17 18
M  V30 18 1 18 19
M  V30 19 1 6 20
M  V30 20 2 20 21
M  V30 21 1 21 3
M  V30 22 1 13 8
M  V30 23 1 18 11
M  V30 24 1 1 22
M  V30 25 1 1 23
M  V30 26 1 1 24
M  V30 27 1 4 25
M  V30 28 1 5 26
M  V30 29 1 10 27
M  V30 30 1 10 28
M  V30 31 1 10 29
M  V30 32 1 13 30
M  V30 33 1 16 31
M  V30 34 1 16 32
M  V30 35 1 19 33
M  V30 36 1 19 34
M  V30 37 1 20 35
M  V30 38 1 21 36
M  V30 END BOND
M  V30 END CTAB
M  END
