
     RDKit          3D

  0  0  0  0  0  0  0  0  0  0999 V3000
M  V30 BEGIN CTAB
M  V30 COUNTS 30 30 0 0 0
M  V30 BEGIN ATOM
M  V30 1 C 2.36707 0.887533 1.10559 0
M  V30 2 C 1.87765 -0.553024 1.0707 0
M  V30 3 C 1.46434 -0.982622 -0.327085 0
M  V30 4 C 0.363904 -0.181996 -0.905761 0
M  V30 5 C -0.942191 -0.16068 -0.28718 0
M  V30 6 C -1.76304 0.972953 -0.4294 0
M  V30 7 C -1.21821 2.18779 -1.11307 0
M  V30 8 C -3.04481 0.971439 0.0767095 0
M  V30 9 C -3.56953 -0.131139 0.738741 0
M  V30 10 N -2.7747 -1.18258 0.85673 0
M  V30 11 C -1.49112 -1.22552 0.366323 0
M  V30 12 N -0.856829 -2.48133 0.574323 0
M  V30 13 F 0.266051 -0.607252 -2.26675 0
M  V30 14 N 2.62002 -0.776396 -1.24273 0
M  V30 15 H 2.05297 1.50038 0.257628 0
M  V30 16 H 1.90579 1.37736 2.02184 0
M  V30 17 H 3.48045 0.941628 1.29269 0
M  V30 18 H 2.71709 -1.21914 1.38553 0
M  V30 19 H 1.03665 -0.689212 1.76213 0
M  V30 20 H 1.37226 -2.07847 -0.32219 0
M  V30 21 H 0.73 0.887607 -1.03162 0
M  V30 22 H -1.03426 2.039 -2.19512 0
M  V30 23 H -1.96163 3.01057 -1.03142 0
M  V30 24 H -0.329322 2.57318 -0.575054 0
M  V30 25 H -3.69151 1.84647 -0.0351329 0
M  V30 26 H -4.58736 -0.104409 1.13507 0
M  V30 27 H -0.420762 -2.66539 1.50144 0
M  V30 28 H -0.823574 -3.19918 -0.167078 0
M  V30 29 H 3.4816 -1.18041 -0.80111 0
M  V30 30 H 2.77298 0.222833 -1.41475 0
M  V30 END ATOM
M  V30 BEGIN BOND
M  V30 1 1 1 2
M  V30 2 1 2 3
M  V30 3 1 3 4
M  V30 4 1 4 5
M  V30 5 2 5 6
M  V30 6 1 6 7
M  V30 7 1 6 8
M  V30 8 2 8 9
M  V30 9 1 9 10
M  V30 10 2 10 11
M  V30 11 1 11 12
M  V30 12 1 4 13
M  V30 13 1 3 14
M  V30 14 1 11 5
M  V30 15 1 1 15
M  V30 16 1 1 16
M  V30 17 1 1 17
M  V30 18 1 2 18
M  V30 19 1 2 19
M  V30 20 1 3 20
M  V30 21 1 4 21
M  V30 22 1 7 22
M  V30 23 1 7 23
M  V30 24 1 7 24
M  V30 25 1 8 25
M  V30 26 1 9 26
M  V30 27 1 12 27
M  V30 28 1 12 28
M  V30 29 1 14 29
M  V30 30 1 14 30
M  V30 END BOND
M  V30 END CTAB
M  END
