
     RDKit          3D

  0  0  0  0  0  0  0  0  0  0999 V3000
M  V30 BEGIN CTAB
M  V30 COUNTS 50 53 0 0 0
M  V30 BEGIN ATOM
M  V30 1 N -6.19649 -2.22972 1.66068 0
M  V30 2 C -5.92859 -1.57743 0.400069 0
M  V30 3 C -5.44946 -0.142562 0.531613 0
M  V30 4 C -4.02563 -0.669723 0.522039 0
M  V30 5 C -4.57131 -1.94618 -0.119662 0
M  V30 6 C -3.11156 0.0440522 -0.380169 0
M  V30 7 C -1.82916 0.40263 -0.0195544 0
M  V30 8 C -1.027 1.0684 -0.910643 0
M  V30 9 N -1.50478 1.36772 -2.13998 0
M  V30 10 C -2.75538 1.02178 -2.50117 0
M  V30 11 N -3.52054 0.373091 -1.61672 0
M  V30 12 N -3.25851 1.33114 -3.78088 0
M  V30 13 N 0.308913 1.46762 -0.600165 0
M  V30 14 C 0.829884 1.15699 0.714456 0
M  V30 15 C 2.10438 1.95618 0.881531 0
M  V30 16 C 3.09462 1.4198 -0.153275 0
M  V30 17 C 2.56626 1.6755 -1.54429 0
M  V30 18 C 1.13714 2.15526 -1.53637 0
M  V30 19 O 3.27664 0.0659914 0.11781 0
M  V30 20 C 4.40606 -0.573886 0.537843 0
M  V30 21 C 5.62811 -0.0121001 0.788168 0
M  V30 22 C 6.72204 -0.770978 1.21767 0
M  V30 23 C 6.59987 -2.13029 1.40478 0
M  V30 24 C 5.38284 -2.70985 1.15874 0
M  V30 25 C 4.30765 -1.9574 0.735536 0
M  V30 26 Cl 7.97565 -3.08513 1.945 0
M  V30 27 H -6.25781 -3.26649 1.46327 0
M  V30 28 H -5.42201 -2.05893 2.33279 0
M  V30 29 H -6.75679 -1.72454 -0.323554 0
M  V30 30 H -5.79194 0.279218 1.48107 0
M  V30 31 H -5.70505 0.42313 -0.387145 0
M  V30 32 H -3.64565 -0.913214 1.5178 0
M  V30 33 H -4.50879 -1.86993 -1.22476 0
M  V30 34 H -4.13605 -2.87796 0.296996 0
M  V30 35 H -1.44481 0.157819 0.979268 0
M  V30 36 H -3.9121 0.705638 -4.27394 0
M  V30 37 H -2.96401 2.21196 -4.24042 0
M  V30 38 H 1.06778 0.0603656 0.713118 0
M  V30 39 H 0.0946439 1.38158 1.51384 0
M  V30 40 H 1.86893 3.00136 0.631815 0
M  V30 41 H 2.47527 1.79967 1.89328 0
M  V30 42 H 4.04497 1.95597 0.0256663 0
M  V30 43 H 3.18212 2.48503 -1.98865 0
M  V30 44 H 2.73271 0.776134 -2.14552 0
M  V30 45 H 0.725585 1.98123 -2.55279 0
M  V30 46 H 1.10746 3.25866 -1.36489 0
M  V30 47 H 5.73772 1.03921 0.647668 0
M  V30 48 H 7.65587 -0.244051 1.39309 0
M  V30 49 H 5.30941 -3.78956 1.31395 0
M  V30 50 H 3.38091 -2.47318 0.560302 0
M  V30 END ATOM
M  V30 BEGIN BOND
M  V30 1 1 1 2
M  V30 2 1 2 3
M  V30 3 1 3 4
M  V30 4 1 4 5
M  V30 5 1 4 6
M  V30 6 2 6 7
M  V30 7 1 7 8
M  V30 8 2 8 9
M  V30 9 1 9 10
M  V30 10 2 10 11
M  V30 11 1 10 12
M  V30 12 1 8 13
M  V30 13 1 13 14
M  V30 14 1 14 15
M  V30 15 1 15 16
M  V30 16 1 16 17
M  V30 17 1 17 18
M  V30 18 1 16 19
M  V30 19 1 19 20
M  V30 20 2 20 21
M  V30 21 1 21 22
M  V30 22 2 22 23
M  V30 23 1 23 24
M  V30 24 2 24 25
M  V30 25 1 23 26
M  V30 26 1 5 2
M  V30 27 1 11 6
M  V30 28 1 18 13
M  V30 29 1 25 20
M  V30 30 1 1 27
M  V30 31 1 1 28
M  V30 32 1 2 29
M  V30 33 1 3 30
M  V30 34 1 3 31
M  V30 35 1 4 32
M  V30 36 1 5 33
M  V30 37 1 5 34
M  V30 38 1 7 35
M  V30 39 1 12 36
M  V30 40 1 12 37
M  V30 41 1 14 38
M  V30 42 1 14 39
M  V30 43 1 15 40
M  V30 44 1 15 41
M  V30 45 1 16 42
M  V30 46 1 17 43
M  V30 47 1 17 44
M  V30 48 1 18 45
M  V30 49 1 18 46
M  V30 50 1 21 47
M  V30 51 1 22 48
M  V30 52 1 24 49
M  V30 53 1 25 50
M  V30 END BOND
M  V30 END CTAB
M  END
