
     RDKit          3D

  0  0  0  0  0  0  0  0  0  0999 V3000
M  V30 BEGIN CTAB
M  V30 COUNTS 31 32 0 0 0
M  V30 BEGIN ATOM
M  V30 1 N -1.50543 2.30207 1.23808 0
M  V30 2 C -1.31084 2.05842 -0.14053 0
M  V30 3 C -0.489239 0.914749 -0.551428 0
M  V30 4 C 0.952828 0.923154 -0.047349 0
M  V30 5 N 1.33038 -0.476556 0.0511255 0
M  V30 6 C 0.342423 -1.20548 -0.725753 0
M  V30 7 C -0.912421 -0.450372 -0.220102 0
M  V30 8 C -2.19544 -0.982523 -0.770293 0
M  V30 9 C -2.29067 -1.79958 0.529458 0
M  V30 10 C -1.23803 -0.86796 1.15792 0
M  V30 11 S 2.92727 -0.76062 -0.513606 0
M  V30 12 O 3.21219 -2.22704 -0.340495 0
M  V30 13 O 3.05386 -0.467339 -1.98456 0
M  V30 14 N 4.0507 0.110248 0.43077 0
M  V30 15 H -0.691545 2.06565 1.84551 0
M  V30 16 H -1.97154 3.17867 1.47336 0
M  V30 17 H -0.898344 2.99247 -0.621372 0
M  V30 18 H -2.31418 1.94567 -0.611666 0
M  V30 19 H -0.357709 0.933941 -1.68938 0
M  V30 20 H 1.00971 1.3808 0.956587 0
M  V30 21 H 1.62553 1.44226 -0.75902 0
M  V30 22 H 0.447696 -0.962379 -1.78651 0
M  V30 23 H 0.290922 -2.2592 -0.473709 0
M  V30 24 H -3.00987 -0.262163 -0.787503 0
M  V30 25 H -2.06015 -1.64529 -1.62977 0
M  V30 26 H -1.91271 -2.81847 0.45787 0
M  V30 27 H -3.22925 -1.69608 1.06789 0
M  V30 28 H -1.66318 -0.125996 1.82781 0
M  V30 29 H -0.427093 -1.44422 1.65857 0
M  V30 30 H 4.55115 -0.445243 1.13267 0
M  V30 31 H 4.68297 0.648403 -0.174585 0
M  V30 END ATOM
M  V30 BEGIN BOND
M  V30 1 1 1 2
M  V30 2 1 2 3
M  V30 3 1 3 4
M  V30 4 1 4 5
M  V30 5 1 5 6
M  V30 6 1 6 7
M  V30 7 1 7 8
M  V30 8 1 8 9
M  V30 9 1 9 10
M  V30 10 1 5 11
M  V30 11 2 11 12
M  V30 12 2 11 13
M  V30 13 1 11 14
M  V30 14 1 7 3
M  V30 15 1 10 7
M  V30 16 1 1 15
M  V30 17 1 1 16
M  V30 18 1 2 17
M  V30 19 1 2 18
M  V30 20 1 3 19
M  V30 21 1 4 20
M  V30 22 1 4 21
M  V30 23 1 6 22
M  V30 24 1 6 23
M  V30 25 1 8 24
M  V30 26 1 8 25
M  V30 27 1 9 26
M  V30 28 1 9 27
M  V30 29 1 10 28
M  V30 30 1 10 29
M  V30 31 1 14 30
M  V30 32 1 14 31
M  V30 END BOND
M  V30 END CTAB
M  END
