
     RDKit          3D

  0  0  0  0  0  0  0  0  0  0999 V3000
M  V30 BEGIN CTAB
M  V30 COUNTS 34 36 0 0 0
M  V30 BEGIN ATOM
M  V30 1 N -0.662909 -3.31234 -1.03514 0
M  V30 2 C -1.24892 -2.04017 -0.814757 0
M  V30 3 N -2.48716 -1.73005 -1.28483 0
M  V30 4 C -2.77542 -0.466105 -0.925321 0
M  V30 5 C -1.70708 0.0408938 -0.214964 0
M  V30 6 N -1.72465 1.30733 0.274956 0
M  V30 7 C -2.7858 2.11084 0.0837018 0
M  V30 8 N -2.8441 3.44845 0.582162 0
M  V30 9 N -3.8368 1.62593 -0.609666 0
M  V30 10 C -3.86083 0.374325 -1.11364 0
M  V30 11 O -4.82757 -0.0927538 -1.7597 0
M  V30 12 N -0.795009 -0.963385 -0.174006 0
M  V30 13 C 0.492262 -0.878585 0.474914 0 CFG=1
M  V30 14 C 1.49557 -1.63881 -0.366471 0
M  V30 15 C 2.78579 -0.835569 -0.184511 0 CFG=2
M  V30 16 O 3.76068 -1.6864 0.310466 0
M  V30 17 C 2.36253 0.211463 0.7951 0 CFG=1
M  V30 18 C 3.15011 1.49145 0.662188 0
M  V30 19 O 2.63991 2.43472 1.52114 0
M  V30 20 O 1.01426 0.392407 0.490476 0
M  V30 21 H -0.130095 -3.54553 -1.89666 0
M  V30 22 H -0.769104 -4.03327 -0.314026 0
M  V30 23 H -3.27992 3.62115 1.53197 0
M  V30 24 H -2.46259 4.24911 0.0196478 0
M  V30 25 H -4.67972 2.22195 -0.7782 0
M  V30 26 H 0.473072 -1.24777 1.52431 0
M  V30 27 H 1.22226 -1.57907 -1.44005 0
M  V30 28 H 1.62411 -2.66815 0.00250444 0
M  V30 29 H 3.15618 -0.43094 -1.14102 0
M  V30 30 H 3.45977 -2.28513 1.01837 0
M  V30 31 H 2.51918 -0.169696 1.82312 0
M  V30 32 H 3.16925 1.85357 -0.398967 0
M  V30 33 H 4.19853 1.25247 0.939988 0
M  V30 34 H 3.35421 2.9677 1.98444 0
M  V30 END ATOM
M  V30 BEGIN BOND
M  V30 1 1 1 2
M  V30 2 2 2 3
M  V30 3 1 3 4
M  V30 4 2 4 5
M  V30 5 1 5 6
M  V30 6 2 6 7
M  V30 7 1 7 8
M  V30 8 1 7 9
M  V30 9 1 9 10
M  V30 10 2 10 11
M  V30 11 1 5 12
M  V30 12 1 12 13
M  V30 13 1 13 14
M  V30 14 1 14 15
M  V30 15 1 15 16
M  V30 16 1 15 17
M  V30 17 1 17 18
M  V30 18 1 18 19
M  V30 19 1 17 20
M  V30 20 1 12 2
M  V30 21 1 20 13
M  V30 22 1 10 4
M  V30 23 1 1 21
M  V30 24 1 1 22
M  V30 25 1 8 23
M  V30 26 1 8 24
M  V30 27 1 9 25
M  V30 28 1 13 26 CFG=1
M  V30 29 1 14 27
M  V30 30 1 14 28
M  V30 31 1 15 29 CFG=3
M  V30 32 1 16 30
M  V30 33 1 17 31 CFG=1
M  V30 34 1 18 32
M  V30 35 1 18 33
M  V30 36 1 19 34
M  V30 END BOND
M  V30 END CTAB
M  END
