
     RDKit          3D

  0  0  0  0  0  0  0  0  0  0999 V3000
M  V30 BEGIN CTAB
M  V30 COUNTS 43 44 0 0 0
M  V30 BEGIN ATOM
M  V30 1 C 7.99387 -0.950012 0.0694001 0
M  V30 2 C 6.93336 0.0756777 -0.15684 0
M  V30 3 C 5.5392 -0.465803 0.0691614 0
M  V30 4 O 4.55636 0.526991 -0.152205 0
M  V30 5 C 3.20221 0.241124 0.000804528 0
M  V30 6 C 2.79668 -1.0377 0.377108 0
M  V30 7 C 1.46234 -1.29118 0.519938 0
M  V30 8 C 0.547536 -0.291412 0.292772 0
M  V30 9 C 0.954129 0.958156 -0.0752142 0
M  V30 10 C 2.31602 1.26871 -0.235485 0
M  V30 11 N 2.73112 2.56017 -0.615818 0
M  V30 12 C -0.868456 -0.584411 0.460829 0
M  V30 13 O -1.14537 -1.53885 1.25325 0
M  V30 14 N -1.82336 0.172293 -0.234941 0
M  V30 15 C -3.21634 0.025134 -0.192519 0
M  V30 16 C -3.9561 1.08243 -0.750524 0
M  V30 17 C -5.32459 1.0026 -0.757931 0
M  V30 18 C -6.00183 -0.0870393 -0.232907 0
M  V30 19 C -5.24798 -1.0883 0.297157 0
M  V30 20 C -3.85672 -1.06068 0.331396 0
M  V30 21 S -7.74793 -0.185743 -0.243639 0
M  V30 22 O -8.30634 0.561851 -1.42051 0
M  V30 23 O -8.20488 -1.61867 -0.224944 0
M  V30 24 N -8.30275 0.536984 1.24593 0
M  V30 25 H 8.65446 -1.061 -0.840255 0
M  V30 26 H 7.60366 -1.96495 0.277113 0
M  V30 27 H 8.67925 -0.691416 0.90452 0
M  V30 28 H 6.99701 0.431259 -1.21569 0
M  V30 29 H 7.10282 0.90966 0.550831 0
M  V30 30 H 5.34738 -1.35797 -0.561154 0
M  V30 31 H 5.4479 -0.8109 1.12336 0
M  V30 32 H 3.53184 -1.81307 0.551885 0
M  V30 33 H 1.14417 -2.30218 0.817313 0
M  V30 34 H 0.268351 1.77833 -0.258678 0
M  V30 35 H 3.05981 2.73244 -1.57642 0
M  V30 36 H 2.70563 3.33093 0.0667481 0
M  V30 37 H -1.4099 0.931577 -0.868498 0
M  V30 38 H -3.46191 1.93899 -1.1636 0
M  V30 39 H -5.88569 1.81859 -1.18826 0
M  V30 40 H -5.74735 -1.96047 0.718874 0
M  V30 41 H -3.3345 -1.88388 0.753772 0
M  V30 42 H -8.07886 -0.177175 2.00128 0
M  V30 43 H -7.6542 1.3389 1.42759 0
M  V30 END ATOM
M  V30 BEGIN BOND
M  V30 1 1 1 2
M  V30 2 1 2 3
M  V30 3 1 3 4
M  V30 4 1 4 5
M  V30 5 2 5 6
M  V30 6 1 6 7
M  V30 7 2 7 8
M  V30 8 1 8 9
M  V30 9 2 9 10
M  V30 10 1 10 11
M  V30 11 1 8 12
M  V30 12 2 12 13
M  V30 13 1 12 14
M  V30 14 1 14 15
M  V30 15 2 15 16
M  V30 16 1 16 17
M  V30 17 2 17 18
M  V30 18 1 18 19
M  V30 19 2 19 20
M  V30 20 1 18 21
M  V30 21 2 21 22
M  V30 22 2 21 23
M  V30 23 1 21 24
M  V30 24 1 10 5
M  V30 25 1 20 15
M  V30 26 1 1 25
M  V30 27 1 1 26
M  V30 28 1 1 27
M  V30 29 1 2 28
M  V30 30 1 2 29
M  V30 31 1 3 30
M  V30 32 1 3 31
M  V30 33 1 6 32
M  V30 34 1 7 33
M  V30 35 1 9 34
M  V30 36 1 11 35
M  V30 37 1 11 36
M  V30 38 1 14 37
M  V30 39 1 16 38
M  V30 40 1 17 39
M  V30 41 1 19 40
M  V30 42 1 20 41
M  V30 43 1 24 42
M  V30 44 1 24 43
M  V30 END BOND
M  V30 END CTAB
M  END
