
     RDKit          3D

  0  0  0  0  0  0  0  0  0  0999 V3000
M  V30 BEGIN CTAB
M  V30 COUNTS 30 30 0 0 0
M  V30 BEGIN ATOM
M  V30 1 N 4.41666 -2.1794 0.764697 0
M  V30 2 C 3.66856 -1.01643 0.520398 0
M  V30 3 N 2.32421 -0.980676 0.75513 0
M  V30 4 C 1.611 0.126328 0.522759 0
M  V30 5 S -0.115841 0.195031 0.816835 0
M  V30 6 C -1.12756 -0.285686 -0.579658 0
M  V30 7 Si -2.93289 -0.138628 -0.0469377 0 VAL=4
M  V30 8 C -4.02864 0.161165 -1.52963 0
M  V30 9 C -3.12473 1.3629 1.07976 0
M  V30 10 C -3.48976 -1.65411 0.85026 0
M  V30 11 N 2.23985 1.20967 0.0521973 0
M  V30 12 C 3.56142 1.23842 -0.199491 0
M  V30 13 C 4.29586 0.105835 0.0373544 0
M  V30 14 N 4.16714 2.41922 -0.697588 0
M  V30 15 H 3.94811 -3.09266 0.900807 0
M  V30 16 H 5.4424 -2.15291 0.814024 0
M  V30 17 H -0.948221 -1.38083 -0.762774 0
M  V30 18 H -0.941156 0.295625 -1.49322 0
M  V30 19 H -4.09298 1.26607 -1.74962 0
M  V30 20 H -5.06505 -0.157548 -1.24007 0
M  V30 21 H -3.68942 -0.365194 -2.42557 0
M  V30 22 H -4.15697 1.70911 1.07909 0
M  V30 23 H -2.4952 2.16451 0.593913 0
M  V30 24 H -2.71171 1.0943 2.05916 0
M  V30 25 H -3.06098 -2.55114 0.402295 0
M  V30 26 H -4.61704 -1.67551 0.797363 0
M  V30 27 H -3.22649 -1.55524 1.92654 0
M  V30 28 H 5.36605 0.121365 -0.163825 0
M  V30 29 H 3.66056 3.3251 -0.655776 0
M  V30 30 H 5.12281 2.39132 -1.10902 0
M  V30 END ATOM
M  V30 BEGIN BOND
M  V30 1 1 1 2
M  V30 2 2 2 3
M  V30 3 1 3 4
M  V30 4 1 4 5
M  V30 5 1 5 6
M  V30 6 1 6 7
M  V30 7 1 7 8
M  V30 8 1 7 9
M  V30 9 1 7 10
M  V30 10 2 4 11
M  V30 11 1 11 12
M  V30 12 2 12 13
M  V30 13 1 12 14
M  V30 14 1 13 2
M  V30 15 1 1 15
M  V30 16 1 1 16
M  V30 17 1 6 17
M  V30 18 1 6 18
M  V30 19 1 8 19
M  V30 20 1 8 20
M  V30 21 1 8 21
M  V30 22 1 9 22
M  V30 23 1 9 23
M  V30 24 1 9 24
M  V30 25 1 10 25
M  V30 26 1 10 26
M  V30 27 1 10 27
M  V30 28 1 13 28
M  V30 29 1 14 29
M  V30 30 1 14 30
M  V30 END BOND
M  V30 END CTAB
M  END
