
     RDKit          3D

  0  0  0  0  0  0  0  0  0  0999 V3000
M  V30 BEGIN CTAB
M  V30 COUNTS 33 35 0 0 0
M  V30 BEGIN ATOM
M  V30 1 N 5.64159 1.13598 0.898042 0
M  V30 2 C 4.99544 -0.12868 1.23841 0
M  V30 3 C 3.87823 -0.323527 0.264161 0
M  V30 4 N 4.14245 -0.99513 -0.876738 0
M  V30 5 C 3.18602 -1.1977 -1.78712 0
M  V30 6 C 1.89517 -0.708859 -1.55719 0
M  V30 7 C 1.5578 -0.0184204 -0.418522 0
M  V30 8 C 2.61543 0.155358 0.491687 0
M  V30 9 C 0.238564 0.49428 -0.127325 0
M  V30 10 O 0.165589 1.67406 0.273086 0
M  V30 11 N -0.935521 -0.270698 -0.275418 0
M  V30 12 C -1.01503 -1.56524 -0.675329 0
M  V30 13 N -2.30238 -1.91181 -0.70382 0
M  V30 14 C -3.08314 -0.897265 -0.337327 0
M  V30 15 C -2.22138 0.144059 -0.064904 0
M  V30 16 C -2.74937 1.36809 0.350586 0
M  V30 17 C -4.11983 1.49622 0.475281 0
M  V30 18 C -4.96139 0.454229 0.20154 0
M  V30 19 C -4.44349 -0.766257 -0.212228 0
M  V30 20 N -6.36907 0.522942 0.309328 0
M  V30 21 H 6.66089 1.13102 1.1329 0
M  V30 22 H 5.54189 1.25241 -0.136609 0
M  V30 23 H 5.78703 -0.906438 1.08272 0
M  V30 24 H 4.63658 -0.140859 2.28494 0
M  V30 25 H 3.38869 -1.72381 -2.68573 0
M  V30 26 H 1.13723 -0.873135 -2.31535 0
M  V30 27 H 2.3979 0.689504 1.3962 0
M  V30 28 H -0.15622 -2.21273 -0.919059 0
M  V30 29 H -2.10776 2.20898 0.573763 0
M  V30 30 H -4.52513 2.43206 0.793317 0
M  V30 31 H -5.10163 -1.61332 -0.436006 0
M  V30 32 H -6.97414 0.609347 -0.524036 0
M  V30 33 H -6.80102 0.485336 1.24738 0
M  V30 END ATOM
M  V30 BEGIN BOND
M  V30 1 1 1 2
M  V30 2 1 2 3
M  V30 3 2 3 4
M  V30 4 1 4 5
M  V30 5 2 5 6
M  V30 6 1 6 7
M  V30 7 2 7 8
M  V30 8 1 7 9
M  V30 9 2 9 10
M  V30 10 1 9 11
M  V30 11 1 11 12
M  V30 12 2 12 13
M  V30 13 1 13 14
M  V30 14 2 14 15
M  V30 15 1 15 16
M  V30 16 2 16 17
M  V30 17 1 17 18
M  V30 18 2 18 19
M  V30 19 1 18 20
M  V30 20 1 8 3
M  V30 21 1 15 11
M  V30 22 1 19 14
M  V30 23 1 1 21
M  V30 24 1 1 22
M  V30 25 1 2 23
M  V30 26 1 2 24
M  V30 27 1 5 25
M  V30 28 1 6 26
M  V30 29 1 8 27
M  V30 30 1 12 28
M  V30 31 1 16 29
M  V30 32 1 17 30
M  V30 33 1 19 31
M  V30 34 1 20 32
M  V30 35 1 20 33
M  V30 END BOND
M  V30 END CTAB
M  END
