
     RDKit          3D

  0  0  0  0  0  0  0  0  0  0999 V3000
M  V30 BEGIN CTAB
M  V30 COUNTS 49 52 0 0 0
M  V30 BEGIN ATOM
M  V30 1 N 6.75898 0.66353 0.564446 0
M  V30 2 C 6.2013 -0.572417 0.923309 0 CFG=2
M  V30 3 C 5.28089 -1.17191 -0.11902 0
M  V30 4 C 4.07332 -0.999607 0.775467 0 CFG=1
M  V30 5 C 4.96785 -0.354366 1.78398 0
M  V30 6 C 3.0275 -0.151846 0.155246 0
M  V30 7 C 1.67353 -0.286573 0.39287 0
M  V30 8 C 0.776879 0.533638 -0.267096 0
M  V30 9 N 1.26574 1.44942 -1.11972 0
M  V30 10 C 2.58181 1.61956 -1.37955 0
M  V30 11 N 3.44708 0.795156 -0.716766 0
M  V30 12 N 3.04691 2.58196 -2.3118 0
M  V30 13 N -0.637624 0.464903 -0.0679405 0
M  V30 14 C -1.26137 0.646341 1.22373 0
M  V30 15 C -2.20645 -0.529094 1.37405 0
M  V30 16 N -3.25381 -0.384158 0.383208 0
M  V30 17 C -2.84166 -0.302111 -0.944013 0
M  V30 18 C -1.45946 0.220863 -1.22194 0
M  V30 19 C -4.26282 0.533389 0.856478 0
M  V30 20 C -5.56788 0.428002 0.153032 0
M  V30 21 N -6.25055 1.39105 -0.438343 0
M  V30 22 O -7.41445 0.868466 -0.82732 0
M  V30 23 N -7.48508 -0.357441 -0.51922 0
M  V30 24 C -6.36793 -0.72115 0.106641 0
M  V30 25 C -5.87011 -1.98744 0.624715 0
M  V30 26 H 6.63662 1.45976 1.1413 0
M  V30 27 H 7.3634 0.659698 -0.193454 0
M  V30 28 H 6.91939 -1.31186 1.32452 0
M  V30 29 H 5.48734 -2.21931 -0.363749 0
M  V30 30 H 5.25009 -0.523409 -1.03465 0
M  V30 31 H 3.6582 -1.98317 1.15287 0
M  V30 32 H 5.04413 -0.92277 2.75117 0
M  V30 33 H 4.74135 0.702897 1.98934 0
M  V30 34 H 1.34194 -1.0552 1.06721 0
M  V30 35 H 3.39075 3.52374 -2.08971 0
M  V30 36 H 3.01664 2.24817 -3.3196 0
M  V30 37 H -1.86024 1.56754 1.2442 0
M  V30 38 H -0.510717 0.583559 2.046 0
M  V30 39 H -1.73103 -1.51008 1.2713 0
M  V30 40 H -2.72829 -0.452404 2.34142 0
M  V30 41 H -2.96649 -1.31138 -1.46492 0
M  V30 42 H -3.53171 0.333389 -1.53681 0
M  V30 43 H -1.48318 1.16657 -1.79033 0
M  V30 44 H -0.916074 -0.495495 -1.86828 0
M  V30 45 H -3.84683 1.54815 0.40684 0
M  V30 46 H -4.3064 0.713932 1.91508 0
M  V30 47 H -5.14685 -2.43662 -0.140019 0
M  V30 48 H -6.67684 -2.742 0.65539 0
M  V30 49 H -5.36781 -1.92185 1.58109 0
M  V30 END ATOM
M  V30 BEGIN BOND
M  V30 1 1 1 2
M  V30 2 1 2 3
M  V30 3 1 3 4
M  V30 4 1 4 5
M  V30 5 1 4 6
M  V30 6 2 6 7
M  V30 7 1 7 8
M  V30 8 2 8 9
M  V30 9 1 9 10
M  V30 10 2 10 11
M  V30 11 1 10 12
M  V30 12 1 8 13
M  V30 13 1 13 14
M  V30 14 1 14 15
M  V30 15 1 15 16
M  V30 16 1 16 17
M  V30 17 1 17 18
M  V30 18 1 16 19
M  V30 19 1 19 20
M  V30 20 2 20 21
M  V30 21 1 21 22
M  V30 22 1 22 23
M  V30 23 2 23 24
M  V30 24 1 24 25
M  V30 25 1 5 2
M  V30 26 1 11 6
M  V30 27 1 18 13
M  V30 28 1 24 20
M  V30 29 1 1 26
M  V30 30 1 1 27
M  V30 31 1 2 28 CFG=1
M  V30 32 1 3 29
M  V30 33 1 3 30
M  V30 34 1 4 31 CFG=1
M  V30 35 1 5 32
M  V30 36 1 5 33
M  V30 37 1 7 34
M  V30 38 1 12 35
M  V30 39 1 12 36
M  V30 40 1 14 37
M  V30 41 1 14 38
M  V30 42 1 15 39
M  V30 43 1 15 40
M  V30 44 1 17 41
M  V30 45 1 17 42
M  V30 46 1 18 43
M  V30 47 1 18 44
M  V30 48 1 19 45
M  V30 49 1 19 46
M  V30 50 1 25 47
M  V30 51 1 25 48
M  V30 52 1 25 49
M  V30 END BOND
M  V30 END CTAB
M  END
