
     RDKit          3D

  0  0  0  0  0  0  0  0  0  0999 V3000
M  V30 BEGIN CTAB
M  V30 COUNTS 28 28 0 0 0
M  V30 BEGIN ATOM
M  V30 1 N 4.21613 -0.511292 -0.27512 0
M  V30 2 N 3.23327 0.0886222 0.516571 0
M  V30 3 C 2.10019 0.48208 0.00770286 0
M  V30 4 N 1.1624 1.08381 0.902436 0
M  V30 5 C -0.244813 0.731999 0.952829 0
M  V30 6 C -0.373915 -0.716218 1.2547 0
M  V30 7 C -1.62125 -1.37827 0.820067 0
M  V30 8 C -2.57544 -0.535791 0.0413096 0
M  V30 9 C -1.75268 0.214923 -0.995037 0
M  V30 10 C -0.922469 1.23659 -0.252251 0
M  V30 11 O -2.65284 0.817856 -1.85435 0
M  V30 12 N 1.89271 0.284016 -1.37091 0
M  V30 13 H 4.79808 -0.0144791 -0.955454 0
M  V30 14 H 4.35662 -1.53865 -0.154243 0
M  V30 15 H 1.59461 1.82241 1.53563 0
M  V30 16 H -0.657082 1.30215 1.8393 0
M  V30 17 H -0.271808 -0.848524 2.36701 0
M  V30 18 H 0.510383 -1.28612 0.842841 0
M  V30 19 H -1.398 -2.2827 0.178772 0
M  V30 20 H -2.19135 -1.81639 1.69119 0
M  V30 21 H -3.19658 0.138712 0.621461 0
M  V30 22 H -3.25296 -1.21459 -0.531248 0
M  V30 23 H -1.05572 -0.476588 -1.48563 0
M  V30 24 H -1.64676 2.07496 -0.0205079 0
M  V30 25 H -0.239798 1.68736 -1.00308 0
M  V30 26 H -3.44481 0.227863 -1.93236 0
M  V30 27 H 1.92288 1.08822 -2.01534 0
M  V30 28 H 1.71097 -0.661957 -1.73538 0
M  V30 END ATOM
M  V30 BEGIN BOND
M  V30 1 1 1 2
M  V30 2 2 2 3 CFG=2
M  V30 3 1 3 4
M  V30 4 1 4 5
M  V30 5 1 5 6
M  V30 6 1 6 7
M  V30 7 1 7 8
M  V30 8 1 8 9
M  V30 9 1 9 10
M  V30 10 1 9 11
M  V30 11 1 3 12
M  V30 12 1 10 5
M  V30 13 1 1 13
M  V30 14 1 1 14
M  V30 15 1 4 15
M  V30 16 1 5 16
M  V30 17 1 6 17
M  V30 18 1 6 18
M  V30 19 1 7 19
M  V30 20 1 7 20
M  V30 21 1 8 21
M  V30 22 1 8 22
M  V30 23 1 9 23
M  V30 24 1 10 24
M  V30 25 1 10 25
M  V30 26 1 11 26
M  V30 27 1 12 27
M  V30 28 1 12 28
M  V30 END BOND
M  V30 END CTAB
M  END
