
     RDKit          3D

  0  0  0  0  0  0  0  0  0  0999 V3000
M  V30 BEGIN CTAB
M  V30 COUNTS 28 30 0 0 0
M  V30 BEGIN ATOM
M  V30 1 N 3.20103 1.97322 -0.0454535 0
M  V30 2 C 2.77412 0.624026 0.087916 0
M  V30 3 C 3.74019 -0.346848 0.259398 0
M  V30 4 C 3.31433 -1.6538 0.387876 0
M  V30 5 C 1.97596 -1.98523 0.347503 0
M  V30 6 Cl 1.43494 -3.64345 0.510461 0
M  V30 7 C 1.00351 -1.01655 0.175901 0
M  V30 8 C 1.43175 0.294828 0.0470403 0
M  V30 9 C 0.400256 1.31014 -0.133564 0
M  V30 10 O 0.778327 2.51147 -0.252458 0
M  V30 11 C -1.02386 1.00005 -0.181547 0
M  V30 12 C -1.42543 -0.321789 -0.0498757 0
M  V30 13 C -2.78972 -0.609936 -0.0968835 0
M  V30 14 N -3.16304 -1.96436 0.0403008 0
M  V30 15 C -3.73523 0.364373 -0.267555 0
M  V30 16 C -3.34393 1.6811 -0.399233 0
M  V30 17 C -1.98757 1.97679 -0.353585 0
M  V30 18 Cl -1.42843 3.62647 -0.514453 0
M  V30 19 C -0.420499 -1.3613 0.131999 0
M  V30 20 O -0.773858 -2.56247 0.252338 0
M  V30 21 H 3.67114 2.35531 -0.885918 0
M  V30 22 H 3.03025 2.60702 0.745441 0
M  V30 23 H 4.79782 -0.0835678 0.291145 0
M  V30 24 H 4.03766 -2.448 0.524175 0
M  V30 25 H -3.3489 -2.59826 -0.778455 0
M  V30 26 H -3.26238 -2.36693 1.00124 0
M  V30 27 H -4.80609 0.157638 -0.306757 0
M  V30 28 H -4.08233 2.48006 -0.53699 0
M  V30 END ATOM
M  V30 BEGIN BOND
M  V30 1 1 1 2
M  V30 2 2 2 3
M  V30 3 1 3 4
M  V30 4 2 4 5
M  V30 5 1 5 6
M  V30 6 1 5 7
M  V30 7 2 7 8
M  V30 8 1 8 9
M  V30 9 2 9 10
M  V30 10 1 9 11
M  V30 11 2 11 12
M  V30 12 1 12 13
M  V30 13 1 13 14
M  V30 14 2 13 15
M  V30 15 1 15 16
M  V30 16 2 16 17
M  V30 17 1 17 18
M  V30 18 1 12 19
M  V30 19 2 19 20
M  V30 20 1 8 2
M  V30 21 1 17 11
M  V30 22 1 19 7
M  V30 23 1 1 21
M  V30 24 1 1 22
M  V30 25 1 3 23
M  V30 26 1 4 24
M  V30 27 1 14 25
M  V30 28 1 14 26
M  V30 29 1 15 27
M  V30 30 1 16 28
M  V30 END BOND
M  V30 END CTAB
M  END
