
     RDKit          3D

  0  0  0  0  0  0  0  0  0  0999 V3000
M  V30 BEGIN CTAB
M  V30 COUNTS 42 44 0 0 0
M  V30 BEGIN ATOM
M  V30 1 N 5.79409 1.69305 0.354213 0
M  V30 2 C 4.84531 0.598512 0.268294 0
M  V30 3 C 5.17277 -0.232939 -0.929505 0
M  V30 4 C 4.24349 -1.38084 -1.10071 0
M  V30 5 C 2.89522 -1.11552 -0.591849 0
M  V30 6 C 2.5169 0.0840576 -0.0589167 0
M  V30 7 C 3.4717 1.21807 0.0408414 0
M  V30 8 C 1.237 0.290078 0.40719 0
M  V30 9 C 0.28191 -0.750089 0.34067 0
M  V30 10 C 0.709978 -1.92325 -0.197536 0
M  V30 11 N 1.98774 -2.11202 -0.657412 0
M  V30 12 N -0.99321 -0.461749 0.861341 0
M  V30 13 C -2.14815 -1.16388 0.484641 0
M  V30 14 O -2.1183 -2.07846 -0.338629 0
M  V30 15 C -3.43041 -0.735514 1.14519 0
M  V30 16 C -4.50639 -0.435492 0.157984 0
M  V30 17 C -4.21587 0.660816 -0.830754 0
M  V30 18 C -5.6628 1.12641 -0.626544 0
M  V30 19 C -5.56673 0.491975 0.767447 0
M  V30 20 N -3.21809 0.355863 2.07388 0
M  V30 21 H 6.18985 1.85643 -0.581236 0
M  V30 22 H 6.49126 1.56255 1.10311 0
M  V30 23 H 4.87185 0.034976 1.21522 0
M  V30 24 H 6.2103 -0.634798 -0.780241 0
M  V30 25 H 5.18038 0.435089 -1.81408 0
M  V30 26 H 4.64306 -2.23091 -0.469787 0
M  V30 27 H 4.20415 -1.7002 -2.1681 0
M  V30 28 H 3.50757 1.83682 -0.85711 0
M  V30 29 H 3.22282 1.7956 0.958101 0
M  V30 30 H 0.967654 1.24883 0.822854 0
M  V30 31 H 0.0273595 -2.76982 -0.260153 0
M  V30 32 H -1.05284 0.335785 1.58111 0
M  V30 33 H -3.75396 -1.61034 1.74687 0
M  V30 34 H -5.00957 -1.27745 -0.312711 0
M  V30 35 H -4.09218 0.294316 -1.84874 0
M  V30 36 H -3.54533 1.46181 -0.48152 0
M  V30 37 H -6.39169 0.52814 -1.22381 0
M  V30 38 H -5.79207 2.20726 -0.628918 0
M  V30 39 H -5.12297 1.23558 1.47733 0
M  V30 40 H -6.47577 -0.00898293 1.10134 0
M  V30 41 H -2.66894 0.0844532 2.89511 0
M  V30 42 H -2.90707 1.18577 1.56134 0
M  V30 END ATOM
M  V30 BEGIN BOND
M  V30 1 1 1 2
M  V30 2 1 2 3
M  V30 3 1 3 4
M  V30 4 1 4 5
M  V30 5 2 5 6
M  V30 6 1 6 7
M  V30 7 1 6 8
M  V30 8 2 8 9
M  V30 9 1 9 10
M  V30 10 2 10 11
M  V30 11 1 9 12
M  V30 12 1 12 13
M  V30 13 2 13 14
M  V30 14 1 13 15
M  V30 15 1 15 16
M  V30 16 1 16 17
M  V30 17 1 17 18
M  V30 18 1 18 19
M  V30 19 1 15 20
M  V30 20 1 7 2
M  V30 21 1 19 16
M  V30 22 1 11 5
M  V30 23 1 1 21
M  V30 24 1 1 22
M  V30 25 1 2 23
M  V30 26 1 3 24
M  V30 27 1 3 25
M  V30 28 1 4 26
M  V30 29 1 4 27
M  V30 30 1 7 28
M  V30 31 1 7 29
M  V30 32 1 8 30
M  V30 33 1 10 31
M  V30 34 1 12 32
M  V30 35 1 15 33
M  V30 36 1 16 34
M  V30 37 1 17 35
M  V30 38 1 17 36
M  V30 39 1 18 37
M  V30 40 1 18 38
M  V30 41 1 19 39
M  V30 42 1 19 40
M  V30 43 1 20 41
M  V30 44 1 20 42
M  V30 END BOND
M  V30 END CTAB
M  END
