
     RDKit          3D

  0  0  0  0  0  0  0  0  0  0999 V3000
M  V30 BEGIN CTAB
M  V30 COUNTS 52 54 0 0 0
M  V30 BEGIN ATOM
M  V30 1 C -6.87862 1.49729 -1.54976 0
M  V30 2 C -6.02307 0.366018 -1.09576 0
M  V30 3 N -5.36082 0.506479 0.120024 0
M  V30 4 C -6.10655 0.532111 1.31717 0
M  V30 5 C -6.70196 -0.869528 1.51331 0
M  V30 6 C -3.96768 0.59831 0.16834 0
M  V30 7 C -3.28342 -0.717079 -0.228522 0
M  V30 8 N -1.86339 -0.485692 -0.143294 0
M  V30 9 C -0.977121 -1.55333 -0.459175 0
M  V30 10 O -1.42202 -2.65746 -0.799485 0
M  V30 11 C 0.484574 -1.36516 -0.387797 0
M  V30 12 N 1.01113 -0.174758 -0.0264314 0
M  V30 13 C 2.35458 -0.0142799 0.0325905 0
M  V30 14 C 3.16313 -1.08589 -0.282665 0
M  V30 15 N 2.65549 -2.29378 -0.649175 0
M  V30 16 C 1.31426 -2.41816 -0.696979 0
M  V30 17 N 0.703324 -3.67199 -1.07317 0
M  V30 18 N 4.50289 -0.89322 -0.21309 0
M  V30 19 C 5.02295 0.288393 0.147138 0
M  V30 20 N 4.21424 1.32103 0.450827 0
M  V30 21 C 2.87524 1.21125 0.405955 0
M  V30 22 N 2.01794 2.31056 0.728918 0
M  V30 23 C 6.48764 0.488422 0.216744 0
M  V30 24 C 7.01353 1.70033 0.608629 0
M  V30 25 C 8.36869 1.94126 0.688184 0
M  V30 26 Cl 8.99102 3.49934 1.19403 0
M  V30 27 C 9.26602 0.933383 0.363722 0
M  V30 28 Cl 10.9958 1.19178 0.448906 0
M  V30 29 C 8.73603 -0.275992 -0.0272752 0
M  V30 30 C 7.37577 -0.51281 -0.105212 0
M  V30 31 H -6.3974 1.98722 -2.4472 0
M  V30 32 H -7.87705 1.17433 -1.91134 0
M  V30 33 H -7.05149 2.28611 -0.809311 0
M  V30 34 H -6.68485 -0.548289 -1.05807 0
M  V30 35 H -5.26693 0.114035 -1.89371 0
M  V30 36 H -6.95898 1.26278 1.19128 0
M  V30 37 H -5.56144 0.827926 2.20961 0
M  V30 38 H -7.71859 -0.877484 1.05015 0
M  V30 39 H -6.05469 -1.62316 0.986212 0
M  V30 40 H -6.68954 -1.1355 2.5735 0
M  V30 41 H -3.65074 0.78357 1.22396 0
M  V30 42 H -3.50135 1.40239 -0.426516 0
M  V30 43 H -3.63559 -1.45016 0.536124 0
M  V30 44 H -3.58159 -1.03943 -1.23206 0
M  V30 45 H -1.45143 0.42753 0.1397 0
M  V30 46 H 0.333142 -4.31803 -0.321733 0
M  V30 47 H 0.601299 -3.98639 -2.04719 0
M  V30 48 H 1.86057 3.11688 0.120428 0
M  V30 49 H 1.53791 2.25126 1.65508 0
M  V30 50 H 6.32282 2.50111 0.866538 0
M  V30 51 H 9.4518 -1.07061 -0.283696 0
M  V30 52 H 7.00448 -1.48292 -0.419293 0
M  V30 END ATOM
M  V30 BEGIN BOND
M  V30 1 1 1 2
M  V30 2 1 2 3
M  V30 3 1 3 4
M  V30 4 1 4 5
M  V30 5 1 3 6
M  V30 6 1 6 7
M  V30 7 1 7 8
M  V30 8 1 8 9
M  V30 9 2 9 10
M  V30 10 1 9 11
M  V30 11 2 11 12
M  V30 12 1 12 13
M  V30 13 2 13 14
M  V30 14 1 14 15
M  V30 15 2 15 16
M  V30 16 1 16 17
M  V30 17 1 14 18
M  V30 18 2 18 19
M  V30 19 1 19 20
M  V30 20 2 20 21
M  V30 21 1 21 22
M  V30 22 1 19 23
M  V30 23 2 23 24
M  V30 24 1 24 25
M  V30 25 1 25 26
M  V30 26 2 25 27
M  V30 27 1 27 28
M  V30 28 1 27 29
M  V30 29 2 29 30
M  V30 30 1 16 11
M  V30 31 1 30 23
M  V30 32 1 21 13
M  V30 33 1 1 31
M  V30 34 1 1 32
M  V30 35 1 1 33
M  V30 36 1 2 34
M  V30 37 1 2 35
M  V30 38 1 4 36
M  V30 39 1 4 37
M  V30 40 1 5 38
M  V30 41 1 5 39
M  V30 42 1 5 40
M  V30 43 1 6 41
M  V30 44 1 6 42
M  V30 45 1 7 43
M  V30 46 1 7 44
M  V30 47 1 8 45
M  V30 48 1 17 46
M  V30 49 1 17 47
M  V30 50 1 22 48
M  V30 51 1 22 49
M  V30 52 1 24 50
M  V30 53 1 29 51
M  V30 54 1 30 52
M  V30 END BOND
M  V30 END CTAB
M  END
