
     RDKit          3D

  0  0  0  0  0  0  0  0  0  0999 V3000
M  V30 BEGIN CTAB
M  V30 COUNTS 40 42 0 0 0
M  V30 BEGIN ATOM
M  V30 1 N -4.23529 2.59775 -0.252065 0
M  V30 2 C -3.12548 1.87961 0.322006 0
M  V30 3 C -2.50054 1.15757 -0.871476 0
M  V30 4 N -1.36489 0.344882 -0.581058 0
M  V30 5 C -0.0458727 0.900359 -0.465647 0
M  V30 6 C 0.918345 0.00827611 0.265875 0 CFG=1
M  V30 7 N 0.777999 -1.37298 0.159411 0
M  V30 8 C -0.564223 -1.91336 0.059775 0
M  V30 9 C -1.56173 -1.05874 -0.303828 0
M  V30 10 C -2.84384 -1.57128 -0.394876 0
M  V30 11 C -3.10679 -2.93171 -0.10641 0
M  V30 12 C -2.0878 -3.76436 0.253945 0
M  V30 13 C -0.780494 -3.25273 0.339768 0
M  V30 14 C 2.30096 0.538525 0.331036 0
M  V30 15 C 2.58378 1.54997 1.25389 0
M  V30 16 C 3.88732 1.93347 1.5737 0
M  V30 17 C 4.93336 1.25993 0.931723 0
M  V30 18 C 4.67954 0.248928 0.0109931 0
M  V30 19 C 3.34543 -0.0825823 -0.271055 0
M  V30 20 N 3.15658 -0.968798 -1.40262 0
M  V30 21 H -3.91888 3.32957 -0.901889 0
M  V30 22 H -5.06488 2.6872 0.227131 0
M  V30 23 H -2.43703 2.56091 0.780806 0
M  V30 24 H -3.59258 1.19539 1.06235 0
M  V30 25 H -1.99889 2.06021 -1.42691 0
M  V30 26 H -3.20249 0.807402 -1.62327 0
M  V30 27 H 0.282406 0.868961 -1.61429 0
M  V30 28 H -0.0224667 1.94063 -0.222606 0
M  V30 29 H 0.509011 0.219684 1.39483 0
M  V30 30 H 1.5495 -2.06928 0.20804 0
M  V30 31 H -3.64285 -0.869492 -0.68868 0
M  V30 32 H -4.11562 -3.23432 -0.195385 0
M  V30 33 H -2.24478 -4.81247 0.483236 0
M  V30 34 H 0.0385617 -3.89542 0.60019 0
M  V30 35 H 1.78895 2.08035 1.75383 0
M  V30 36 H 4.14673 2.68815 2.30973 0
M  V30 37 H 5.9059 1.58333 1.19702 0
M  V30 38 H 5.43452 -0.286223 -0.45685 0
M  V30 39 H 3.08739 -1.94524 -1.40322 0
M  V30 40 H 3.13113 -0.412057 -2.33715 0
M  V30 END ATOM
M  V30 BEGIN BOND
M  V30 1 1 1 2
M  V30 2 1 2 3
M  V30 3 1 3 4
M  V30 4 1 4 5
M  V30 5 1 5 6
M  V30 6 1 6 7
M  V30 7 1 7 8
M  V30 8 2 8 9
M  V30 9 1 9 10
M  V30 10 2 10 11
M  V30 11 1 11 12
M  V30 12 2 12 13
M  V30 13 1 6 14
M  V30 14 2 14 15
M  V30 15 1 15 16
M  V30 16 2 16 17
M  V30 17 1 17 18
M  V30 18 2 18 19
M  V30 19 1 19 20
M  V30 20 1 9 4
M  V30 21 1 19 14
M  V30 22 1 13 8
M  V30 23 1 1 21
M  V30 24 1 1 22
M  V30 25 1 2 23
M  V30 26 1 2 24
M  V30 27 1 3 25
M  V30 28 1 3 26
M  V30 29 1 5 27
M  V30 30 1 5 28
M  V30 31 1 6 29 CFG=1
M  V30 32 1 7 30
M  V30 33 1 10 31
M  V30 34 1 11 32
M  V30 35 1 12 33
M  V30 36 1 13 34
M  V30 37 1 15 35
M  V30 38 1 16 36
M  V30 39 1 17 37
M  V30 40 1 18 38
M  V30 41 1 20 39
M  V30 42 1 20 40
M  V30 END BOND
M  V30 END CTAB
M  END
