
     RDKit          3D

  0  0  0  0  0  0  0  0  0  0999 V3000
M  V30 BEGIN CTAB
M  V30 COUNTS 36 37 0 0 0
M  V30 BEGIN ATOM
M  V30 1 C 7.35677 -0.722592 -1.68216 0
M  V30 2 O 6.0908 -0.503239 -1.10477 0
M  V30 3 C 5.86031 0.475785 -0.149864 0
M  V30 4 O 6.83408 1.18446 0.199984 0
M  V30 5 C 4.54878 0.69822 0.443954 0
M  V30 6 C 4.27239 1.65744 1.39467 0
M  V30 7 C 2.92239 1.53682 1.68957 0
M  V30 8 C 2.43461 0.511672 0.90791 0
M  V30 9 O 3.42844 0.0530387 0.195445 0
M  V30 10 C 1.00302 0.0325371 0.902827 0
M  V30 11 O 0.23822 0.725462 -0.0174282 0
M  V30 12 N -1.06432 0.599232 -0.322448 0
M  V30 13 C -1.90328 -0.194626 0.213334 0
M  V30 14 C -3.30229 -0.223373 -0.224054 0
M  V30 15 C -3.72993 0.610916 -1.22413 0
M  V30 16 C -5.04916 0.569991 -1.62232 0
M  V30 17 Cl -5.62677 1.63162 -2.90607 0
M  V30 18 C -5.98475 -0.295219 -1.04542 0
M  V30 19 C -5.51601 -1.1208 -0.040588 0
M  V30 20 C -4.19758 -1.06796 0.345107 0
M  V30 21 Cl -6.64378 -2.24057 0.733773 0
M  V30 22 N -7.33068 -0.312579 -1.47673 0
M  V30 23 N -1.49474 -1.06405 1.24308 0
M  V30 24 H 8.18808 -0.446822 -1.02544 0
M  V30 25 H 7.49635 -1.79146 -1.95806 0
M  V30 26 H 7.40581 -0.102383 -2.59777 0
M  V30 27 H 4.98371 2.37431 1.83046 0
M  V30 28 H 2.38047 2.12944 2.38801 0
M  V30 29 H 1.02937 -1.07889 0.750698 0
M  V30 30 H 0.616695 0.235333 1.92476 0
M  V30 31 H -3.02997 1.30535 -1.70417 0
M  V30 32 H -3.90815 -1.75477 1.1475 0
M  V30 33 H -8.0804 -0.0982628 -0.804124 0
M  V30 34 H -7.53949 -0.540569 -2.46184 0
M  V30 35 H -1.53248 -0.764142 2.22969 0
M  V30 36 H -1.15652 -2.00933 1.01043 0
M  V30 END ATOM
M  V30 BEGIN BOND
M  V30 1 1 1 2
M  V30 2 1 2 3
M  V30 3 2 3 4
M  V30 4 1 3 5
M  V30 5 2 5 6
M  V30 6 1 6 7
M  V30 7 2 7 8
M  V30 8 1 8 9
M  V30 9 1 8 10
M  V30 10 1 10 11
M  V30 11 1 11 12
M  V30 12 2 12 13
M  V30 13 1 13 14
M  V30 14 2 14 15
M  V30 15 1 15 16
M  V30 16 1 16 17
M  V30 17 2 16 18
M  V30 18 1 18 19
M  V30 19 2 19 20
M  V30 20 1 19 21
M  V30 21 1 18 22
M  V30 22 1 13 23
M  V30 23 1 9 5
M  V30 24 1 20 14
M  V30 25 1 1 24
M  V30 26 1 1 25
M  V30 27 1 1 26
M  V30 28 1 6 27
M  V30 29 1 7 28
M  V30 30 1 10 29
M  V30 31 1 10 30
M  V30 32 1 15 31
M  V30 33 1 20 32
M  V30 34 1 22 33
M  V30 35 1 22 34
M  V30 36 1 23 35
M  V30 37 1 23 36
M  V30 END BOND
M  V30 END CTAB
M  END
