
     RDKit          3D

  0  0  0  0  0  0  0  0  0  0999 V3000
M  V30 BEGIN CTAB
M  V30 COUNTS 41 43 0 0 0
M  V30 BEGIN ATOM
M  V30 1 N 4.89858 -0.822488 -3.06404 0
M  V30 2 C 4.33422 -0.943385 -1.76535 0
M  V30 3 N 4.01894 0.140039 -1.02644 0
M  V30 4 C 3.48322 0.0369286 0.206478 0
M  V30 5 C 3.14301 1.21754 1.0318 0
M  V30 6 O 2.01188 1.92344 0.621572 0
M  V30 7 C 0.708166 1.36942 0.550776 0
M  V30 8 O 0.665614 0.177989 0.895514 0
M  V30 9 C -0.391887 2.196 0.108311 0
M  V30 10 C -0.174494 3.53644 -0.249244 0
M  V30 11 C -1.14408 4.38037 -0.67346 0
M  V30 12 C -2.42507 3.91647 -0.76669 0
M  V30 13 C -2.69332 2.61765 -0.4306 0
M  V30 14 C -1.66895 1.75245 0.00977016 0
M  V30 15 N -2.05314 0.439263 0.329347 0
M  V30 16 C -3.45536 0.0244879 0.199859 0
M  V30 17 C -3.66461 -1.39192 0.581477 0
M  V30 18 C -3.97847 -1.9347 1.7983 0
M  V30 19 C -4.06484 -3.28736 1.64321 0
M  V30 20 C -3.79792 -3.54301 0.316323 0
M  V30 21 O -3.56977 -2.39282 -0.260559 0
M  V30 22 N 3.28275 -1.21387 0.653752 0
M  V30 23 C 3.59032 -2.30387 -0.0674795 0
M  V30 24 N 4.12225 -2.18332 -1.29147 0
M  V30 25 N 3.36297 -3.61019 0.441062 0
M  V30 26 H 5.88538 -0.487306 -3.12281 0
M  V30 27 H 4.40366 -1.04132 -3.94106 0
M  V30 28 H 3.98921 1.95186 0.987648 0
M  V30 29 H 3.09997 0.940627 2.12281 0
M  V30 30 H 0.862398 3.87001 -0.161376 0
M  V30 31 H -0.872216 5.41541 -0.930836 0
M  V30 32 H -3.18437 4.61456 -1.10991 0
M  V30 33 H -3.70155 2.25225 -0.503897 0
M  V30 34 H -1.43968 -0.32015 0.664491 0
M  V30 35 H -3.83391 0.152054 -0.827003 0
M  V30 36 H -4.10573 0.681995 0.843852 0
M  V30 37 H -4.12465 -1.36631 2.69944 0
M  V30 38 H -4.29168 -4.04554 2.37371 0
M  V30 39 H -3.78503 -4.53474 -0.146539 0
M  V30 40 H 3.13877 -4.37906 -0.215678 0
M  V30 41 H 3.41946 -3.80589 1.47494 0
M  V30 END ATOM
M  V30 BEGIN BOND
M  V30 1 1 1 2
M  V30 2 2 2 3
M  V30 3 1 3 4
M  V30 4 1 4 5
M  V30 5 1 5 6
M  V30 6 1 6 7
M  V30 7 2 7 8
M  V30 8 1 7 9
M  V30 9 2 9 10
M  V30 10 1 10 11
M  V30 11 2 11 12
M  V30 12 1 12 13
M  V30 13 2 13 14
M  V30 14 1 14 15
M  V30 15 1 15 16
M  V30 16 1 16 17
M  V30 17 2 17 18
M  V30 18 1 18 19
M  V30 19 2 19 20
M  V30 20 1 20 21
M  V30 21 2 4 22
M  V30 22 1 22 23
M  V30 23 2 23 24
M  V30 24 1 23 25
M  V30 25 1 24 2
M  V30 26 1 14 9
M  V30 27 1 21 17
M  V30 28 1 1 26
M  V30 29 1 1 27
M  V30 30 1 5 28
M  V30 31 1 5 29
M  V30 32 1 10 30
M  V30 33 1 11 31
M  V30 34 1 12 32
M  V30 35 1 13 33
M  V30 36 1 15 34
M  V30 37 1 16 35
M  V30 38 1 16 36
M  V30 39 1 18 37
M  V30 40 1 19 38
M  V30 41 1 20 39
M  V30 42 1 25 40
M  V30 43 1 25 41
M  V30 END BOND
M  V30 END CTAB
M  END
