
     RDKit          3D

  0  0  0  0  0  0  0  0  0  0999 V3000
M  V30 BEGIN CTAB
M  V30 COUNTS 47 48 0 0 0
M  V30 BEGIN ATOM
M  V30 1 N 1.5577 -0.609267 2.85927 0
M  V30 2 C 0.48234 0.120487 2.22152 0
M  V30 3 C 0.448884 -0.246889 0.749248 0
M  V30 4 C 1.7619 0.136649 0.189094 0
M  V30 5 C 2.11298 1.43906 -0.0916717 0
M  V30 6 C 3.35843 1.72959 -0.614321 0
M  V30 7 C 4.29458 0.746285 -0.87579 0
M  V30 8 C 3.95198 -0.558299 -0.598132 0
M  V30 9 C 2.70315 -0.833954 -0.075778 0
M  V30 10 C 4.8868 -1.53566 -0.859718 0
M  V30 11 C 6.13739 -1.27296 -1.38133 0
M  V30 12 C 6.45434 0.0394125 -1.64972 0
M  V30 13 C 5.54439 1.0474 -1.40129 0
M  V30 14 N -0.62665 0.428544 0.0852874 0
M  V30 15 C -1.63255 -0.290175 -0.60309 0
M  V30 16 O -1.5566 -1.54605 -0.616943 0
M  V30 17 C -2.73879 0.441959 -1.28385 0
M  V30 18 C -4.09736 0.0236479 -0.811287 0
M  V30 19 C -4.23464 0.275797 0.652627 0
M  V30 20 C -5.62395 -0.155633 1.13005 0
M  V30 21 C -4.43612 -1.39763 -1.1989 0
M  V30 22 N -2.61349 1.87181 -1.10564 0
M  V30 23 H 1.77198 -1.50573 2.37042 0
M  V30 24 H 1.23392 -0.887651 3.82888 0
M  V30 25 H 0.576837 1.21632 2.35874 0
M  V30 26 H -0.499437 -0.16153 2.69058 0
M  V30 27 H 0.317224 -1.33888 0.610105 0
M  V30 28 H 1.3768 2.20416 0.114843 0
M  V30 29 H 3.64269 2.748 -0.837671 0
M  V30 30 H 2.50471 -1.89441 0.118368 0
M  V30 31 H 4.63499 -2.56375 -0.648099 0
M  V30 32 H 6.87159 -2.05384 -1.5853 0
M  V30 33 H 7.44555 0.260234 -2.06452 0
M  V30 34 H 5.77756 2.0903 -1.60719 0
M  V30 35 H -0.668418 1.45601 0.10867 0
M  V30 36 H -2.64602 0.194273 -2.38295 0
M  V30 37 H -4.83055 0.687343 -1.33241 0
M  V30 38 H -3.44415 -0.136052 1.27948 0
M  V30 39 H -4.22869 1.39338 0.81012 0
M  V30 40 H -5.8752 0.446702 2.02673 0
M  V30 41 H -5.60836 -1.24647 1.38178 0
M  V30 42 H -6.36555 0.0336744 0.327528 0
M  V30 43 H -3.82663 -1.67346 -2.07682 0
M  V30 44 H -5.50462 -1.45712 -1.49195 0
M  V30 45 H -4.31379 -2.0921 -0.344628 0
M  V30 46 H -2.57499 2.11677 -0.114458 0
M  V30 47 H -1.90219 2.30969 -1.70379 0
M  V30 END ATOM
M  V30 BEGIN BOND
M  V30 1 1 1 2
M  V30 2 1 2 3
M  V30 3 1 3 4
M  V30 4 2 4 5
M  V30 5 1 5 6
M  V30 6 2 6 7
M  V30 7 1 7 8
M  V30 8 2 8 9
M  V30 9 1 8 10
M  V30 10 2 10 11
M  V30 11 1 11 12
M  V30 12 2 12 13
M  V30 13 1 3 14
M  V30 14 1 14 15
M  V30 15 2 15 16
M  V30 16 1 15 17
M  V30 17 1 17 18
M  V30 18 1 18 19
M  V30 19 1 19 20
M  V30 20 1 18 21
M  V30 21 1 17 22
M  V30 22 1 9 4
M  V30 23 1 13 7
M  V30 24 1 1 23
M  V30 25 1 1 24
M  V30 26 1 2 25
M  V30 27 1 2 26
M  V30 28 1 3 27
M  V30 29 1 5 28
M  V30 30 1 6 29
M  V30 31 1 9 30
M  V30 32 1 10 31
M  V30 33 1 11 32
M  V30 34 1 12 33
M  V30 35 1 13 34
M  V30 36 1 14 35
M  V30 37 1 17 36
M  V30 38 1 18 37
M  V30 39 1 19 38
M  V30 40 1 19 39
M  V30 41 1 20 40
M  V30 42 1 20 41
M  V30 43 1 20 42
M  V30 44 1 21 43
M  V30 45 1 21 44
M  V30 46 1 21 45
M  V30 47 1 22 46
M  V30 48 1 22 47
M  V30 END BOND
M  V30 END CTAB
M  END
