
     RDKit          3D

  0  0  0  0  0  0  0  0  0  0999 V3000
M  V30 BEGIN CTAB
M  V30 COUNTS 18 19 0 0 0
M  V30 BEGIN ATOM
M  V30 1 N 3.8271 -1.00614 0.477175 0
M  V30 2 C 2.54916 -0.422327 0.313978 0
M  V30 3 N 1.3511 -1.02547 0.143775 0
M  V30 4 N 0.374597 -0.143792 0.0255781 0
M  V30 5 C 0.945697 1.06352 0.120457 0
M  V30 6 N 2.27048 0.904166 0.296311 0
M  V30 7 N 0.229353 2.31076 0.042723 0
M  V30 8 C -1.03034 -0.392454 -0.167074 0
M  V30 9 N -2.06747 -0.0787003 0.561693 0
M  V30 10 C -3.26594 -0.409357 0.189889 0
M  V30 11 C -3.39725 -1.09672 -0.991107 0
M  V30 12 S -1.76594 -1.22216 -1.49285 0
M  V30 13 H 3.97073 -1.66343 1.25845 0
M  V30 14 H 4.59075 -0.779747 -0.167082 0
M  V30 15 H 0.400353 2.9906 -0.723376 0
M  V30 16 H -0.486592 2.56977 0.757697 0
M  V30 17 H -4.16112 -0.151771 0.795756 0
M  V30 18 H -4.33468 -1.44676 -1.44199 0
M  V30 END ATOM
M  V30 BEGIN BOND
M  V30 1 1 1 2
M  V30 2 2 2 3
M  V30 3 1 3 4
M  V30 4 1 4 5
M  V30 5 2 5 6
M  V30 6 1 5 7
M  V30 7 1 4 8
M  V30 8 2 8 9
M  V30 9 1 9 10
M  V30 10 2 10 11
M  V30 11 1 11 12
M  V30 12 1 6 2
M  V30 13 1 12 8
M  V30 14 1 1 13
M  V30 15 1 1 14
M  V30 16 1 7 15
M  V30 17 1 7 16
M  V30 18 1 10 17
M  V30 19 1 11 18
M  V30 END BOND
M  V30 END CTAB
M  END
