
     RDKit          3D

  0  0  0  0  0  0  0  0  0  0999 V3000
M  V30 BEGIN CTAB
M  V30 COUNTS 27 28 0 0 0
M  V30 BEGIN ATOM
M  V30 1 N 4.74631 -0.795188 -0.272132 0
M  V30 2 C 3.38123 -0.40905 -0.231731 0
M  V30 3 C 2.42994 -1.38972 -0.0921234 0
M  V30 4 C 1.07655 -1.03672 -0.0494166 0
M  V30 5 C 0.672199 0.269728 -0.143766 0
M  V30 6 C 1.6395 1.26338 -0.285407 0
M  V30 7 C 2.95368 0.897583 -0.324823 0
M  V30 8 N 1.21135 2.59666 -0.380847 0
M  V30 9 C -0.738538 0.586225 -0.0946621 0
M  V30 10 O -1.05901 1.80559 -0.1858 0
M  V30 11 N -1.7857 -0.357455 0.046856 0
M  V30 12 C -3.14754 0.105479 0.0802381 0
M  V30 13 C -4.09853 -0.778761 -0.720949 0
M  V30 14 C -4.2035 -0.655877 0.786217 0
M  V30 15 H 5.18243 -1.10988 -1.17091 0
M  V30 16 H 5.29131 -0.758945 0.59334 0
M  V30 17 H 2.7187 -2.44773 -0.0136013 0
M  V30 18 H 0.387177 -1.86904 0.0626041 0
M  V30 19 H 3.69649 1.68981 -0.436189 0
M  V30 20 H 0.986344 2.97538 -1.33352 0
M  V30 21 H 1.09198 3.2594 0.408352 0
M  V30 22 H -1.53537 -1.37404 0.123717 0
M  V30 23 H -3.28292 1.18828 -0.00874497 0
M  V30 24 H -4.85685 -0.273276 -1.35855 0
M  V30 25 H -3.71718 -1.71052 -1.16847 0
M  V30 26 H -5.03721 -0.0723215 1.22221 0
M  V30 27 H -4.00284 -1.599 1.32059 0
M  V30 END ATOM
M  V30 BEGIN BOND
M  V30 1 1 1 2
M  V30 2 2 2 3
M  V30 3 1 3 4
M  V30 4 2 4 5
M  V30 5 1 5 6
M  V30 6 2 6 7
M  V30 7 1 6 8
M  V30 8 1 5 9
M  V30 9 2 9 10
M  V30 10 1 9 11
M  V30 11 1 11 12
M  V30 12 1 12 13
M  V30 13 1 13 14
M  V30 14 1 7 2
M  V30 15 1 14 12
M  V30 16 1 1 15
M  V30 17 1 1 16
M  V30 18 1 3 17
M  V30 19 1 4 18
M  V30 20 1 7 19
M  V30 21 1 8 20
M  V30 22 1 8 21
M  V30 23 1 11 22
M  V30 24 1 12 23
M  V30 25 1 13 24
M  V30 26 1 13 25
M  V30 27 1 14 26
M  V30 28 1 14 27
M  V30 END BOND
M  V30 END CTAB
M  END
