
     RDKit          3D

  0  0  0  0  0  0  0  0  0  0999 V3000
M  V30 BEGIN CTAB
M  V30 COUNTS 30 30 0 0 0
M  V30 BEGIN ATOM
M  V30 1 N -2.0437 -2.18805 0.0774316 0
M  V30 2 C -0.940252 -1.30925 -0.02395 0
M  V30 3 C 0.258796 -1.82195 -0.509616 0
M  V30 4 N 0.39644 -3.18394 -0.898755 0
M  V30 5 C 1.35202 -0.985092 -0.618709 0
M  V30 6 O 2.43232 -1.434 -1.05295 0
M  V30 7 N 1.19761 0.286022 -0.24784 0
M  V30 8 C 2.32996 1.18568 -0.3524 0
M  V30 9 C 3.13136 1.19676 0.883425 0
M  V30 10 C 4.40907 0.84715 0.887447 0
M  V30 11 C 0.026782 0.756146 0.218593 0
M  V30 12 O -0.0564186 1.96137 0.551549 0
M  V30 13 N -1.06457 -0.0205551 0.342522 0
M  V30 14 C -2.32277 0.528286 0.854926 0
M  V30 15 C -3.16718 1.0577 -0.222872 0
M  V30 16 C -3.51956 2.32983 -0.229709 0
M  V30 17 H -2.68293 -2.23441 0.886459 0
M  V30 18 H -2.24248 -2.84993 -0.720789 0
M  V30 19 H 1.04459 -3.42041 -1.66167 0
M  V30 20 H -0.168367 -3.90055 -0.39368 0
M  V30 21 H 2.93671 0.878771 -1.22479 0
M  V30 22 H 1.93983 2.21955 -0.579808 0
M  V30 23 H 2.68329 1.49444 1.81919 0
M  V30 24 H 4.93838 0.533994 -0.0120437 0
M  V30 25 H 5.00397 0.853255 1.7935 0
M  V30 26 H -2.13751 1.32682 1.59742 0
M  V30 27 H -2.88471 -0.273535 1.41733 0
M  V30 28 H -3.51823 0.428019 -1.02905 0
M  V30 29 H -4.14849 2.75106 -1.02112 0
M  V30 30 H -3.18394 2.98682 0.564178 0
M  V30 END ATOM
M  V30 BEGIN BOND
M  V30 1 1 1 2
M  V30 2 2 2 3
M  V30 3 1 3 4
M  V30 4 1 3 5
M  V30 5 2 5 6
M  V30 6 1 5 7
M  V30 7 1 7 8
M  V30 8 1 8 9
M  V30 9 2 9 10 CFG=2
M  V30 10 1 7 11
M  V30 11 2 11 12
M  V30 12 1 11 13
M  V30 13 1 13 14
M  V30 14 1 14 15
M  V30 15 2 15 16 CFG=2
M  V30 16 1 13 2
M  V30 17 1 1 17
M  V30 18 1 1 18
M  V30 19 1 4 19
M  V30 20 1 4 20
M  V30 21 1 8 21
M  V30 22 1 8 22
M  V30 23 1 9 23
M  V30 24 1 10 24
M  V30 25 1 10 25
M  V30 26 1 14 26
M  V30 27 1 14 27
M  V30 28 1 15 28
M  V30 29 1 16 29
M  V30 30 1 16 30
M  V30 END BOND
M  V30 END CTAB
M  END
