
     RDKit          3D

  0  0  0  0  0  0  0  0  0  0999 V3000
M  V30 BEGIN CTAB
M  V30 COUNTS 51 54 0 0 0
M  V30 BEGIN ATOM
M  V30 1 N 4.91253 2.81464 -2.03665 0
M  V30 2 C 5.40659 1.53316 -1.61317 0 CFG=2
M  V30 3 C 4.5272 0.346443 -1.99255 0
M  V30 4 C 4.82061 -0.221029 -0.627646 0 CFG=1
M  V30 5 C 5.09544 1.20162 -0.162248 0
M  V30 6 C 3.68845 -0.882222 0.0506284 0
M  V30 7 C 2.44214 -0.351144 0.171553 0
M  V30 8 C 1.41806 -1.03362 0.827068 0
M  V30 9 N 1.72993 -2.2398 1.33031 0
M  V30 10 C 2.95057 -2.79481 1.22922 0
M  V30 11 N 3.90126 -2.09975 0.590109 0
M  V30 12 N 3.28854 -4.05827 1.7529 0
M  V30 13 N 0.107725 -0.482633 0.957445 0
M  V30 14 C -0.875349 -1.26259 1.66375 0
M  V30 15 C -2.29106 -0.857662 1.43091 0
M  V30 16 C -2.38698 -0.164682 0.0818613 0
M  V30 17 C -1.60518 1.13744 0.235624 0
M  V30 18 C -0.155671 0.819538 0.376274 0
M  V30 19 C -3.78478 0.0884178 -0.305448 0
M  V30 20 C -4.3268 -0.434428 -1.46998 0
M  V30 21 C -5.64069 -0.19747 -1.83611 0
M  V30 22 O -6.16713 -0.735204 -3.01597 0
M  V30 23 N -6.41709 0.55039 -1.05983 0
M  V30 24 C -5.90782 1.06651 0.0749562 0
M  V30 25 N -4.62631 0.842016 0.442893 0
M  V30 26 C -6.83494 1.89705 0.899806 0
M  V30 27 H 4.55696 3.34586 -1.20291 0
M  V30 28 H 5.72807 3.36299 -2.40203 0
M  V30 29 H 6.49175 1.37261 -1.78666 0
M  V30 30 H 3.49973 0.676639 -2.15204 0
M  V30 31 H 4.95707 -0.303979 -2.78501 0
M  V30 32 H 5.74715 -0.791534 -0.629768 0
M  V30 33 H 5.98128 1.28065 0.515075 0
M  V30 34 H 4.18714 1.74246 0.206659 0
M  V30 35 H 2.2639 0.624616 -0.258047 0
M  V30 36 H 3.60478 -4.80765 1.12145 0
M  V30 37 H 3.21896 -4.23083 2.7657 0
M  V30 38 H -0.783021 -2.33811 1.33194 0
M  V30 39 H -0.63113 -1.18846 2.75383 0
M  V30 40 H -2.55091 -0.0647827 2.18782 0
M  V30 41 H -3.0095 -1.69589 1.45045 0
M  V30 42 H -1.92549 -0.801041 -0.699097 0
M  V30 43 H -1.829 1.80487 -0.624651 0
M  V30 44 H -2.01269 1.63966 1.13629 0
M  V30 45 H 0.321493 1.58454 1.02228 0
M  V30 46 H 0.282674 0.860225 -0.663044 0
M  V30 47 H -3.69106 -1.03778 -2.09079 0
M  V30 48 H -6.38297 -1.73656 -3.09676 0
M  V30 49 H -7.44657 2.48843 0.202489 0
M  V30 50 H -6.30113 2.53437 1.61194 0
M  V30 51 H -7.54678 1.1968 1.41811 0
M  V30 END ATOM
M  V30 BEGIN BOND
M  V30 1 1 1 2
M  V30 2 1 2 3
M  V30 3 1 3 4
M  V30 4 1 4 5
M  V30 5 1 4 6
M  V30 6 2 6 7
M  V30 7 1 7 8
M  V30 8 2 8 9
M  V30 9 1 9 10
M  V30 10 2 10 11
M  V30 11 1 10 12
M  V30 12 1 8 13
M  V30 13 1 13 14
M  V30 14 1 14 15
M  V30 15 1 15 16
M  V30 16 1 16 17
M  V30 17 1 17 18
M  V30 18 1 16 19
M  V30 19 2 19 20
M  V30 20 1 20 21
M  V30 21 1 21 22
M  V30 22 2 21 23
M  V30 23 1 23 24
M  V30 24 2 24 25
M  V30 25 1 24 26
M  V30 26 1 5 2
M  V30 27 1 11 6
M  V30 28 1 18 13
M  V30 29 1 25 19
M  V30 30 1 1 27
M  V30 31 1 1 28
M  V30 32 1 2 29 CFG=1
M  V30 33 1 3 30
M  V30 34 1 3 31
M  V30 35 1 4 32 CFG=3
M  V30 36 1 5 33
M  V30 37 1 5 34
M  V30 38 1 7 35
M  V30 39 1 12 36
M  V30 40 1 12 37
M  V30 41 1 14 38
M  V30 42 1 14 39
M  V30 43 1 15 40
M  V30 44 1 15 41
M  V30 45 1 16 42
M  V30 46 1 17 43
M  V30 47 1 17 44
M  V30 48 1 18 45
M  V30 49 1 18 46
M  V30 50 1 20 47
M  V30 51 1 22 48
M  V30 52 1 26 49
M  V30 53 1 26 50
M  V30 54 1 26 51
M  V30 END BOND
M  V30 END CTAB
M  END
