
     RDKit          3D

  0  0  0  0  0  0  0  0  0  0999 V3000
M  V30 BEGIN CTAB
M  V30 COUNTS 42 43 0 0 0
M  V30 BEGIN ATOM
M  V30 1 N 4.79412 0.925162 0.956345 0
M  V30 2 C 4.17681 -0.236213 0.348222 0
M  V30 3 C 3.19748 0.22618 -0.712575 0
M  V30 4 C 2.11499 1.09518 -0.137609 0
M  V30 5 C 1.12556 0.327789 0.724798 0
M  V30 6 N 0.600295 -0.796117 -0.00489953 0
M  V30 7 C 1.64388 -1.68125 -0.552554 0
M  V30 8 C 2.60448 -0.963403 -1.44028 0
M  V30 9 C -0.765253 -1.0836 -0.202338 0
M  V30 10 O -0.987016 -2.13443 -0.914603 0
M  V30 11 C -1.92356 -0.349325 0.295796 0
M  V30 12 C -2.12335 -0.448792 1.80411 0
M  V30 13 N -3.30629 0.330118 2.14241 0
M  V30 14 C -1.95738 1.10051 -0.0632347 0
M  V30 15 C -3.29112 1.43169 -0.651871 0
M  V30 16 C -4.12225 0.174258 -0.590385 0
M  V30 17 C -3.19241 -0.956622 -0.296505 0
M  V30 18 H 4.69996 1.77161 0.361889 0
M  V30 19 H 5.80988 0.771327 1.17589 0
M  V30 20 H 4.95106 -0.891274 -0.0613107 0
M  V30 21 H 3.63178 -0.827746 1.13128 0
M  V30 22 H 3.76112 0.84911 -1.43578 0
M  V30 23 H 2.57303 1.86312 0.517957 0
M  V30 24 H 1.56173 1.5403 -0.996621 0
M  V30 25 H 1.71867 -0.0997806 1.57906 0
M  V30 26 H 0.412434 1.04595 1.10026 0
M  V30 27 H 2.18741 -2.06988 0.338085 0
M  V30 28 H 1.20369 -2.55474 -1.05404 0
M  V30 29 H 2.12497 -0.625009 -2.37383 0
M  V30 30 H 3.42704 -1.64164 -1.67574 0
M  V30 31 H -1.25786 -0.0173715 2.32389 0
M  V30 32 H -2.31961 -1.50355 2.10193 0
M  V30 33 H -3.0851 1.29919 2.42758 0
M  V30 34 H -3.84368 -0.152111 2.91502 0
M  V30 35 H -1.1099 1.40681 -0.718026 0
M  V30 36 H -1.85709 1.75583 0.852223 0
M  V30 37 H -3.8282 2.24866 -0.123413 0
M  V30 38 H -3.19945 1.77491 -1.71054 0
M  V30 39 H -4.63398 0.0402442 -1.58765 0
M  V30 40 H -4.94916 0.286102 0.138032 0
M  V30 41 H -2.91671 -1.54279 -1.22038 0
M  V30 42 H -3.65102 -1.68841 0.40015 0
M  V30 END ATOM
M  V30 BEGIN BOND
M  V30 1 1 1 2
M  V30 2 1 2 3
M  V30 3 1 3 4
M  V30 4 1 4 5
M  V30 5 1 5 6
M  V30 6 1 6 7
M  V30 7 1 7 8
M  V30 8 1 6 9
M  V30 9 2 9 10
M  V30 10 1 9 11
M  V30 11 1 11 12
M  V30 12 1 12 13
M  V30 13 1 11 14
M  V30 14 1 14 15
M  V30 15 1 15 16
M  V30 16 1 16 17
M  V30 17 1 8 3
M  V30 18 1 17 11
M  V30 19 1 1 18
M  V30 20 1 1 19
M  V30 21 1 2 20
M  V30 22 1 2 21
M  V30 23 1 3 22
M  V30 24 1 4 23
M  V30 25 1 4 24
M  V30 26 1 5 25
M  V30 27 1 5 26
M  V30 28 1 7 27
M  V30 29 1 7 28
M  V30 30 1 8 29
M  V30 31 1 8 30
M  V30 32 1 12 31
M  V30 33 1 12 32
M  V30 34 1 13 33
M  V30 35 1 13 34
M  V30 36 1 14 35
M  V30 37 1 14 36
M  V30 38 1 15 37
M  V30 39 1 15 38
M  V30 40 1 16 39
M  V30 41 1 16 40
M  V30 42 1 17 41
M  V30 43 1 17 42
M  V30 END BOND
M  V30 END CTAB
M  END
