
     RDKit          3D

  0  0  0  0  0  0  0  0  0  0999 V3000
M  V30 BEGIN CTAB
M  V30 COUNTS 25 25 0 0 0
M  V30 BEGIN ATOM
M  V30 1 Cl 4.22326 -0.147171 2.11479 0
M  V30 2 C 3.79894 -0.11224 0.365477 0
M  V30 3 C 2.50564 -0.752117 0.11788 0
M  V30 4 O 2.46136 -2.01053 0.0420244 0
M  V30 5 C 1.23314 -0.0323465 -0.0499146 0
M  V30 6 C 1.19296 1.35594 -0.0587275 0
M  V30 7 C -0.00357445 1.99946 -0.263494 0
M  V30 8 C -1.1948 1.32192 -0.465283 0
M  V30 9 C -1.15243 -0.054208 -0.454397 0
M  V30 10 C 0.0644714 -0.703348 -0.245914 0
M  V30 11 N 0.0241556 -2.12128 -0.231562 0
M  V30 12 O -2.33932 -0.734991 -0.654469 0
M  V30 13 C -3.1596 -1.09048 0.440551 0
M  V30 14 N -2.41589 2.0395 -0.686822 0
M  V30 15 H 4.63809 -0.671557 -0.148971 0
M  V30 16 H 3.89649 0.933363 -0.0059893 0
M  V30 17 H 2.11988 1.88626 0.0983209 0
M  V30 18 H -0.0278259 3.07691 -0.272126 0
M  V30 19 H -0.138492 -2.72233 -1.0563 0
M  V30 20 H 0.17245 -2.57712 0.71167 0
M  V30 21 H -2.65342 -1.81036 1.14191 0
M  V30 22 H -3.37383 -0.156247 1.01566 0
M  V30 23 H -4.10508 -1.54896 0.0945273 0
M  V30 24 H -2.55052 2.63775 -1.52869 0
M  V30 25 H -3.21608 1.99418 -0.0201536 0
M  V30 END ATOM
M  V30 BEGIN BOND
M  V30 1 1 1 2
M  V30 2 1 2 3
M  V30 3 2 3 4
M  V30 4 1 3 5
M  V30 5 2 5 6
M  V30 6 1 6 7
M  V30 7 2 7 8
M  V30 8 1 8 9
M  V30 9 2 9 10
M  V30 10 1 10 11
M  V30 11 1 9 12
M  V30 12 1 12 13
M  V30 13 1 8 14
M  V30 14 1 10 5
M  V30 15 1 2 15
M  V30 16 1 2 16
M  V30 17 1 6 17
M  V30 18 1 7 18
M  V30 19 1 11 19
M  V30 20 1 11 20
M  V30 21 1 13 21
M  V30 22 1 13 22
M  V30 23 1 13 23
M  V30 24 1 14 24
M  V30 25 1 14 25
M  V30 END BOND
M  V30 END CTAB
M  END
