
     RDKit          3D

  0  0  0  0  0  0  0  0  0  0999 V3000
M  V30 BEGIN CTAB
M  V30 COUNTS 42 43 0 0 0
M  V30 BEGIN ATOM
M  V30 1 O -0.149769 -0.668213 -1.39656 0
M  V30 2 C -0.442908 -0.356538 -0.232599 0
M  V30 3 C -1.473 -1.13961 0.502483 0
M  V30 4 C -2.53424 -0.304197 1.14165 0
M  V30 5 C -3.30051 0.469993 0.174245 0
M  V30 6 C -3.37887 0.167963 -1.1467 0
M  V30 7 C -4.12804 1.0005 -1.97837 0
M  V30 8 C -4.77731 2.10275 -1.48696 0
M  V30 9 C -4.69364 2.40004 -0.151605 0
M  V30 10 C -3.96554 1.5978 0.676205 0
M  V30 11 N -3.30496 -0.959834 2.16465 0
M  V30 12 C -0.735649 -1.86537 1.61197 0
M  V30 13 N 0.221957 0.746496 0.369062 0
M  V30 14 C 1.21562 1.50348 -0.326503 0
M  V30 15 C 2.4043 0.671395 -0.737537 0
M  V30 16 C 2.72906 0.233391 -1.99433 0
M  V30 17 C 3.84054 -0.499256 -2.12397 0
M  V30 18 C 4.56537 -0.753712 -0.993487 0
M  V30 19 S 3.67142 0.0393444 0.219778 0
M  V30 20 S 6.05197 -1.67069 -0.824045 0
M  V30 21 O 6.48922 -2.07015 -2.20294 0
M  V30 22 O 5.86629 -2.86909 0.0451725 0
M  V30 23 N 7.30784 -0.650038 -0.177989 0
M  V30 24 H -1.89554 -1.91671 -0.173666 0
M  V30 25 H -1.95307 0.506346 1.75118 0
M  V30 26 H -2.91809 -0.679718 -1.59613 0
M  V30 27 H -4.18686 0.751631 -3.04418 0
M  V30 28 H -5.34665 2.71567 -2.18197 0
M  V30 29 H -5.22943 3.28719 0.184031 0
M  V30 30 H -3.91958 1.85926 1.72204 0
M  V30 31 H -3.41883 -0.428494 3.03399 0
M  V30 32 H -4.19883 -1.36321 1.8064 0
M  V30 33 H 0.360958 -1.91595 1.4136 0
M  V30 34 H -1.08614 -2.90688 1.72617 0
M  V30 35 H -0.898044 -1.37162 2.59199 0
M  V30 36 H -0.0265379 1.00455 1.34586 0
M  V30 37 H 1.64516 2.30608 0.310484 0
M  V30 38 H 0.820627 2.01002 -1.22724 0
M  V30 39 H 2.06141 0.504785 -2.84394 0
M  V30 40 H 4.18511 -0.899065 -3.1036 0
M  V30 41 H 6.95972 0.336359 -0.203299 0
M  V30 42 H 7.56548 -0.926725 0.789164 0
M  V30 END ATOM
M  V30 BEGIN BOND
M  V30 1 2 1 2
M  V30 2 1 2 3
M  V30 3 1 3 4
M  V30 4 1 4 5
M  V30 5 2 5 6
M  V30 6 1 6 7
M  V30 7 2 7 8
M  V30 8 1 8 9
M  V30 9 2 9 10
M  V30 10 1 4 11
M  V30 11 1 3 12
M  V30 12 1 2 13
M  V30 13 1 13 14
M  V30 14 1 14 15
M  V30 15 2 15 16
M  V30 16 1 16 17
M  V30 17 2 17 18
M  V30 18 1 18 19
M  V30 19 1 18 20
M  V30 20 2 20 21
M  V30 21 2 20 22
M  V30 22 1 20 23
M  V30 23 1 10 5
M  V30 24 1 19 15
M  V30 25 1 3 24
M  V30 26 1 4 25
M  V30 27 1 6 26
M  V30 28 1 7 27
M  V30 29 1 8 28
M  V30 30 1 9 29
M  V30 31 1 10 30
M  V30 32 1 11 31
M  V30 33 1 11 32
M  V30 34 1 12 33
M  V30 35 1 12 34
M  V30 36 1 12 35
M  V30 37 1 13 36
M  V30 38 1 14 37
M  V30 39 1 14 38
M  V30 40 1 16 39
M  V30 41 1 17 40
M  V30 42 1 23 41
M  V30 43 1 23 42
M  V30 END BOND
M  V30 END CTAB
M  END
