
     RDKit          3D

  0  0  0  0  0  0  0  0  0  0999 V3000
M  V30 BEGIN CTAB
M  V30 COUNTS 32 33 0 0 0
M  V30 BEGIN ATOM
M  V30 1 C 3.39807 0.0649152 1.07738 0
M  V30 2 C 2.89762 -1.13111 0.272229 0
M  V30 3 C 2.25044 -0.636406 -0.979147 0
M  V30 4 N 1.14695 0.220802 -0.794393 0
M  V30 5 C 0.533053 0.722623 -1.95003 0
M  V30 6 C -0.749687 1.48133 -1.72249 0
M  V30 7 C -1.59662 0.787839 -0.711338 0
M  V30 8 C -0.945669 0.209547 0.345669 0
M  V30 9 C 0.510035 0.298191 0.445579 0
M  V30 10 C -1.72982 -0.448433 1.30021 0
M  V30 11 N -1.02422 -1.03342 2.37633 0
M  V30 12 N -3.06402 -0.502617 1.17248 0
M  V30 13 C -3.67371 0.0752137 0.123249 0
M  V30 14 N -2.9283 0.711064 -0.801364 0
M  V30 15 N -5.10019 -0.000923597 0.0171053 0
M  V30 16 H 3.12919 1.02304 0.573184 0
M  V30 17 H 2.95412 -0.00269627 2.0884 0
M  V30 18 H 4.49781 -0.0189657 1.22356 0
M  V30 19 H 3.80234 -1.73888 -0.0476384 0
M  V30 20 H 2.30222 -1.83635 0.864836 0
M  V30 21 H 1.90248 -1.49478 -1.62044 0
M  V30 22 H 3.01988 -0.109491 -1.61318 0
M  V30 23 H 0.329693 -0.122033 -2.65738 0
M  V30 24 H 1.2361 1.39556 -2.50006 0
M  V30 25 H -0.591155 2.54558 -1.48875 0
M  V30 26 H -1.31365 1.43933 -2.68294 0
M  V30 27 H 0.783893 1.22096 1.04511 0
M  V30 28 H 0.810086 -0.534009 1.14983 0
M  V30 29 H -0.608506 -0.458769 3.12564 0
M  V30 30 H -0.924083 -2.06101 2.41057 0
M  V30 31 H -5.59014 -0.900446 0.207555 0
M  V30 32 H -5.66422 0.834345 -0.249751 0
M  V30 END ATOM
M  V30 BEGIN BOND
M  V30 1 1 1 2
M  V30 2 1 2 3
M  V30 3 1 3 4
M  V30 4 1 4 5
M  V30 5 1 5 6
M  V30 6 1 6 7
M  V30 7 2 7 8
M  V30 8 1 8 9
M  V30 9 1 8 10
M  V30 10 1 10 11
M  V30 11 2 10 12
M  V30 12 1 12 13
M  V30 13 2 13 14
M  V30 14 1 13 15
M  V30 15 1 9 4
M  V30 16 1 14 7
M  V30 17 1 1 16
M  V30 18 1 1 17
M  V30 19 1 1 18
M  V30 20 1 2 19
M  V30 21 1 2 20
M  V30 22 1 3 21
M  V30 23 1 3 22
M  V30 24 1 5 23
M  V30 25 1 5 24
M  V30 26 1 6 25
M  V30 27 1 6 26
M  V30 28 1 9 27
M  V30 29 1 9 28
M  V30 30 1 11 29
M  V30 31 1 11 30
M  V30 32 1 15 31
M  V30 33 1 15 32
M  V30 END BOND
M  V30 END CTAB
M  END
