
     RDKit          3D

  0  0  0  0  0  0  0  0  0  0999 V3000
M  V30 BEGIN CTAB
M  V30 COUNTS 28 28 0 0 0
M  V30 BEGIN ATOM
M  V30 1 C -4.53641 0.611391 -0.989688 0
M  V30 2 C -3.78724 -0.500614 -0.217468 0
M  V30 3 O -2.57888 0.0955368 0.164589 0
M  V30 4 C -1.60003 -0.590672 0.820319 0
M  V30 5 O -1.77269 -1.7808 1.09436 0
M  V30 6 C -0.364511 0.121098 1.1759 0
M  V30 7 C 0.802579 -0.268008 0.376938 0
M  V30 8 C 0.838489 -1.29453 -0.510517 0
M  V30 9 C 1.98257 -1.57284 -1.24534 0
M  V30 10 Cl 2.04893 -2.89112 -2.40186 0
M  V30 11 C 3.11309 -0.803693 -1.08527 0
M  V30 12 C 3.1002 0.253699 -0.180277 0
M  V30 13 C 1.9491 0.500397 0.531852 0
M  V30 14 N 1.96452 1.58664 1.45408 0
M  V30 15 N 4.24263 1.05858 -0.00128187 0
M  V30 16 H -3.73719 1.09503 -1.61993 0
M  V30 17 H -4.88302 1.35083 -0.245907 0
M  V30 18 H -5.3257 0.167872 -1.61708 0
M  V30 19 H -3.70144 -1.38105 -0.865832 0
M  V30 20 H -4.4323 -0.701767 0.67568 0
M  V30 21 H -0.482722 1.22812 1.0265 0
M  V30 22 H -0.164552 -0.0235301 2.26986 0
M  V30 23 H -0.0278597 -1.90349 -0.64834 0
M  V30 24 H 4.0076 -1.03554 -1.68132 0
M  V30 25 H 1.92826 2.54407 1.07358 0
M  V30 26 H 2.01306 1.45087 2.48581 0
M  V30 27 H 4.28374 2.07844 -0.197481 0
M  V30 28 H 5.11977 0.605079 0.358122 0
M  V30 END ATOM
M  V30 BEGIN BOND
M  V30 1 1 1 2
M  V30 2 1 2 3
M  V30 3 1 3 4
M  V30 4 2 4 5
M  V30 5 1 4 6
M  V30 6 1 6 7
M  V30 7 2 7 8
M  V30 8 1 8 9
M  V30 9 1 9 10
M  V30 10 2 9 11
M  V30 11 1 11 12
M  V30 12 2 12 13
M  V30 13 1 13 14
M  V30 14 1 12 15
M  V30 15 1 13 7
M  V30 16 1 1 16
M  V30 17 1 1 17
M  V30 18 1 1 18
M  V30 19 1 2 19
M  V30 20 1 2 20
M  V30 21 1 6 21
M  V30 22 1 6 22
M  V30 23 1 8 23
M  V30 24 1 11 24
M  V30 25 1 14 25
M  V30 26 1 14 26
M  V30 27 1 15 27
M  V30 28 1 15 28
M  V30 END BOND
M  V30 END CTAB
M  END
