
     RDKit          3D

  0  0  0  0  0  0  0  0  0  0999 V3000
M  V30 BEGIN CTAB
M  V30 COUNTS 22 24 0 0 0
M  V30 BEGIN ATOM
M  V30 1 N 4.71319 -0.45402 -0.122664 0
M  V30 2 C 3.28998 -0.282036 -0.136319 0
M  V30 3 N 2.4113 -0.815417 0.734338 0
M  V30 4 C 1.15819 -0.446738 0.423691 0
M  V30 5 C 1.23959 0.369851 -0.711464 0
M  V30 6 N 2.55143 0.432289 -1.00259 0
M  V30 7 C 0.0886111 0.896614 -1.25536 0
M  V30 8 C -1.14654 0.639199 -0.708224 0
M  V30 9 C -1.26135 -0.166912 0.417752 0
M  V30 10 C -0.0970451 -0.682484 0.944186 0
M  V30 11 N -2.56958 -0.231249 0.710917 0
M  V30 12 C -3.22998 0.501297 -0.192628 0
M  V30 13 N -2.37812 1.0521 -1.08303 0
M  V30 14 N -4.62975 0.703196 -0.251107 0
M  V30 15 H 5.29913 -0.154753 0.68605 0
M  V30 16 H 5.21138 -0.888039 -0.929126 0
M  V30 17 H 2.64292 -1.43936 1.55573 0
M  V30 18 H 0.138016 1.52455 -2.12619 0
M  V30 19 H -0.198553 -1.30881 1.82096 0
M  V30 20 H -2.94188 -0.77172 1.51205 0
M  V30 21 H -5.21655 -0.0479614 -0.659952 0
M  V30 22 H -5.07437 1.57041 0.0996106 0
M  V30 END ATOM
M  V30 BEGIN BOND
M  V30 1 1 1 2
M  V30 2 1 2 3
M  V30 3 1 3 4
M  V30 4 2 4 5
M  V30 5 1 5 6
M  V30 6 1 5 7
M  V30 7 2 7 8
M  V30 8 1 8 9
M  V30 9 2 9 10
M  V30 10 1 9 11
M  V30 11 1 11 12
M  V30 12 2 12 13
M  V30 13 1 12 14
M  V30 14 2 6 2
M  V30 15 1 13 8
M  V30 16 1 10 4
M  V30 17 1 1 15
M  V30 18 1 1 16
M  V30 19 1 3 17
M  V30 20 1 7 18
M  V30 21 1 10 19
M  V30 22 1 11 20
M  V30 23 1 14 21
M  V30 24 1 14 22
M  V30 END BOND
M  V30 END CTAB
M  END
