
     RDKit          3D

  0  0  0  0  0  0  0  0  0  0999 V3000
M  V30 BEGIN CTAB
M  V30 COUNTS 39 41 0 0 0
M  V30 BEGIN ATOM
M  V30 1 C -2.83394 3.37819 -0.443941 0
M  V30 2 O -3.42443 2.10025 -0.431449 0
M  V30 3 C -2.62316 0.986696 -0.359757 0
M  V30 4 C -1.25681 1.11309 -0.300558 0
M  V30 5 C -0.45082 -0.0198568 -0.228049 0
M  V30 6 C -1.06633 -1.25337 -0.218088 0
M  V30 7 C -2.42965 -1.41851 -0.275942 0
M  V30 8 O -3.06671 -2.6437 -0.267228 0
M  V30 9 C -2.40463 -3.88059 -0.198095 0
M  V30 10 C -3.2109 -0.284797 -0.347334 0
M  V30 11 O -4.58964 -0.386383 -0.407883 0
M  V30 12 C -5.36878 -0.402054 0.770654 0
M  V30 13 C 1.00219 0.0982917 -0.164606 0
M  V30 14 N 1.74925 1.18913 -0.16402 0
M  V30 15 C 3.05196 0.864498 -0.0937677 0
M  V30 16 C 4.2509 1.54863 -0.0596905 0
M  V30 17 N 4.24454 2.9586 -0.103832 0
M  V30 18 N 5.44471 0.899353 0.0155983 0
M  V30 19 C 5.45107 -0.448668 0.0577941 0
M  V30 20 N 6.65679 -1.18279 0.13625 0
M  V30 21 N 4.29241 -1.16845 0.0266895 0
M  V30 22 C 3.11873 -0.515365 -0.0477882 0
M  V30 23 N 1.84058 -0.949444 -0.0933203 0
M  V30 24 H -2.08935 3.45546 0.38284 0
M  V30 25 H -3.59201 4.19093 -0.331224 0
M  V30 26 H -2.29845 3.58825 -1.39478 0
M  V30 27 H -0.746121 2.08372 -0.307146 0
M  V30 28 H -0.470448 -2.1577 -0.162396 0
M  V30 29 H -2.18162 -4.14219 0.8709 0
M  V30 30 H -1.43766 -3.89755 -0.720095 0
M  V30 31 H -3.0647 -4.69181 -0.569022 0
M  V30 32 H -5.15252 0.501159 1.35938 0
M  V30 33 H -6.44707 -0.387955 0.488382 0
M  V30 34 H -5.15861 -1.28417 1.41423 0
M  V30 35 H 5.09401 3.50239 0.17253 0
M  V30 36 H 3.41816 3.51548 -0.405016 0
M  V30 37 H 7.18341 -1.39407 -0.734921 0
M  V30 38 H 6.99645 -1.49905 1.06467 0
M  V30 39 H 1.56919 -1.96562 -0.0742484 0
M  V30 END ATOM
M  V30 BEGIN BOND
M  V30 1 1 1 2
M  V30 2 1 2 3
M  V30 3 2 3 4
M  V30 4 1 4 5
M  V30 5 2 5 6
M  V30 6 1 6 7
M  V30 7 1 7 8
M  V30 8 1 8 9
M  V30 9 2 7 10
M  V30 10 1 10 11
M  V30 11 1 11 12
M  V30 12 1 5 13
M  V30 13 2 13 14
M  V30 14 1 14 15
M  V30 15 2 15 16
M  V30 16 1 16 17
M  V30 17 1 16 18
M  V30 18 2 18 19
M  V30 19 1 19 20
M  V30 20 1 19 21
M  V30 21 2 21 22
M  V30 22 1 22 23
M  V30 23 1 10 3
M  V30 24 1 23 13
M  V30 25 1 22 15
M  V30 26 1 1 24
M  V30 27 1 1 25
M  V30 28 1 1 26
M  V30 29 1 4 27
M  V30 30 1 6 28
M  V30 31 1 9 29
M  V30 32 1 9 30
M  V30 33 1 9 31
M  V30 34 1 12 32
M  V30 35 1 12 33
M  V30 36 1 12 34
M  V30 37 1 17 35
M  V30 38 1 17 36
M  V30 39 1 20 37
M  V30 40 1 20 38
M  V30 41 1 23 39
M  V30 END BOND
M  V30 END CTAB
M  END
