
     RDKit          3D

  0  0  0  0  0  0  0  0  0  0999 V3000
M  V30 BEGIN CTAB
M  V30 COUNTS 37 38 0 0 0
M  V30 BEGIN ATOM
M  V30 1 N -1.07686 -3.31469 0.493232 0
M  V30 2 C -0.202939 -2.22359 0.070489 0
M  V30 3 C -0.975924 -0.952292 0.189356 0
M  V30 4 C -2.22418 -0.968708 -0.688326 0
M  V30 5 C -2.69255 0.424303 -0.984366 0
M  V30 6 C -2.31139 1.43168 0.0507496 0
M  V30 7 N -0.93528 1.40521 0.436125 0
M  V30 8 C -0.210761 0.279362 -0.150921 0
M  V30 9 C 1.18293 0.284817 0.288217 0
M  V30 10 C 1.55956 0.496583 1.59816 0
M  V30 11 C 2.8854 0.496996 1.98898 0
M  V30 12 C 3.87485 0.281283 1.05697 0
M  V30 13 C 3.53234 0.0692441 -0.244537 0
M  V30 14 C 2.19002 0.0710289 -0.627734 0
M  V30 15 N 4.57666 -0.151381 -1.18819 0
M  V30 16 C -2.63185 2.80961 -0.487212 0
M  V30 17 H -1.66014 -3.54908 -0.337945 0
M  V30 18 H -1.72867 -2.92757 1.2098 0
M  V30 19 H 0.628526 -2.19637 0.7885 0
M  V30 20 H 0.100374 -2.442 -0.962797 0
M  V30 21 H -1.34853 -0.861897 1.24163 0
M  V30 22 H -2.99556 -1.63629 -0.307541 0
M  V30 23 H -1.87469 -1.40087 -1.67202 0
M  V30 24 H -2.34202 0.797981 -1.97208 0
M  V30 25 H -3.80251 0.400177 -1.03877 0
M  V30 26 H -3.01082 1.27761 0.924586 0
M  V30 27 H -0.899865 1.25624 1.47038 0
M  V30 28 H -0.252999 0.422399 -1.26778 0
M  V30 29 H 0.829643 0.672519 2.3809 0
M  V30 30 H 3.16184 0.665293 3.02325 0
M  V30 31 H 4.91555 0.284693 1.38121 0
M  V30 32 H 1.99169 -0.103042 -1.67195 0
M  V30 33 H 5.49886 0.360225 -1.13995 0
M  V30 34 H 4.47649 -0.83623 -1.97866 0
M  V30 35 H -2.68402 3.54285 0.341477 0
M  V30 36 H -3.64099 2.75314 -0.940653 0
M  V30 37 H -1.90219 3.08076 -1.27257 0
M  V30 END ATOM
M  V30 BEGIN BOND
M  V30 1 1 1 2
M  V30 2 1 2 3
M  V30 3 1 3 4
M  V30 4 1 4 5
M  V30 5 1 5 6
M  V30 6 1 6 7
M  V30 7 1 7 8
M  V30 8 1 8 9
M  V30 9 2 9 10
M  V30 10 1 10 11
M  V30 11 2 11 12
M  V30 12 1 12 13
M  V30 13 2 13 14
M  V30 14 1 13 15
M  V30 15 1 6 16
M  V30 16 1 8 3
M  V30 17 1 14 9
M  V30 18 1 1 17
M  V30 19 1 1 18
M  V30 20 1 2 19
M  V30 21 1 2 20
M  V30 22 1 3 21
M  V30 23 1 4 22
M  V30 24 1 4 23
M  V30 25 1 5 24
M  V30 26 1 5 25
M  V30 27 1 6 26
M  V30 28 1 7 27
M  V30 29 1 8 28
M  V30 30 1 10 29
M  V30 31 1 11 30
M  V30 32 1 12 31
M  V30 33 1 14 32
M  V30 34 1 15 33
M  V30 35 1 15 34
M  V30 36 1 16 35
M  V30 37 1 16 36
M  V30 38 1 16 37
M  V30 END BOND
M  V30 END CTAB
M  END
