
     RDKit          3D

  0  0  0  0  0  0  0  0  0  0999 V3000
M  V30 BEGIN CTAB
M  V30 COUNTS 32 32 0 0 0
M  V30 BEGIN ATOM
M  V30 1 N 5.54547 0.950051 -0.462892 0
M  V30 2 C 4.79693 -0.150787 -0.00578797 0
M  V30 3 N 5.29042 -1.34926 0.0206783 0
M  V30 4 N 3.46206 0.073071 0.437993 0
M  V30 5 C 2.32971 -0.208591 -0.409692 0
M  V30 6 C 1.07124 0.116718 0.329597 0
M  V30 7 C -0.164776 -0.145505 -0.487005 0
M  V30 8 C -1.38167 0.223196 0.371712 0 CFG=1
M  V30 9 C -2.61539 -0.0187117 -0.413494 0
M  V30 10 O -2.63966 -0.677124 -1.56981 0
M  V30 11 C -3.87249 -0.726498 -2.01346 0
M  V30 12 N -4.66251 -0.0909075 -1.13352 0
M  V30 13 C -3.88575 0.36894 -0.106031 0
M  V30 14 C -4.30791 1.12076 1.05675 0
M  V30 15 O -3.46573 1.48694 1.90036 0
M  V30 16 O -5.63426 1.45972 1.28008 0
M  V30 17 N -1.39142 -0.696167 1.49318 0
M  V30 18 H 5.60026 1.87348 0.00620585 0
M  V30 19 H 6.09465 0.830889 -1.34789 0
M  V30 20 H 4.73818 -2.16427 0.358602 0
M  V30 21 H 3.30971 0.446586 1.3956 0
M  V30 22 H 2.33674 -1.32457 -0.597526 0
M  V30 23 H 2.34361 0.351466 -1.3512 0
M  V30 24 H 1.07355 -0.42545 1.28092 0
M  V30 25 H 1.11995 1.21814 0.578976 0
M  V30 26 H -0.119762 0.462401 -1.4117 0
M  V30 27 H -0.219582 -1.22244 -0.70696 0
M  V30 28 H -1.30213 1.26329 0.745075 0
M  V30 29 H -4.14657 -1.21091 -2.9386 0
M  V30 30 H -6.28779 0.700386 1.52632 0
M  V30 31 H -0.67535 -1.42348 1.32999 0
M  V30 32 H -2.33975 -1.11136 1.56527 0
M  V30 END ATOM
M  V30 BEGIN BOND
M  V30 1 1 1 2
M  V30 2 2 2 3 CFG=2
M  V30 3 1 2 4
M  V30 4 1 4 5
M  V30 5 1 5 6
M  V30 6 1 6 7
M  V30 7 1 7 8
M  V30 8 1 8 9
M  V30 9 1 9 10
M  V30 10 1 10 11
M  V30 11 2 11 12
M  V30 12 1 12 13
M  V30 13 1 13 14
M  V30 14 2 14 15
M  V30 15 1 14 16
M  V30 16 1 8 17
M  V30 17 2 13 9
M  V30 18 1 1 18
M  V30 19 1 1 19
M  V30 20 1 3 20
M  V30 21 1 4 21
M  V30 22 1 5 22
M  V30 23 1 5 23
M  V30 24 1 6 24
M  V30 25 1 6 25
M  V30 26 1 7 26
M  V30 27 1 7 27
M  V30 28 1 8 28 CFG=1
M  V30 29 1 11 29
M  V30 30 1 16 30
M  V30 31 1 17 31
M  V30 32 1 17 32
M  V30 END BOND
M  V30 END CTAB
M  END
