
     RDKit          3D

  0  0  0  0  0  0  0  0  0  0999 V3000
M  V30 BEGIN CTAB
M  V30 COUNTS 30 30 0 0 0
M  V30 BEGIN ATOM
M  V30 1 N 1.76641 1.63847 -1.11531 0
M  V30 2 C 1.75728 1.64536 0.318295 0
M  V30 3 C 1.10739 0.4102 0.912722 0
M  V30 4 C -0.280818 0.347927 0.443422 0
M  V30 5 N -0.791826 0.175773 -0.780083 0
M  V30 6 N -2.09171 0.188767 -0.716518 0
M  V30 7 C -2.45685 0.370067 0.55258 0
M  V30 8 N -1.33648 0.467814 1.26514 0
M  V30 9 N -3.78112 0.451545 1.09755 0
M  V30 10 C -3.07342 0.0391262 -1.79146 0
M  V30 11 C 1.90077 -0.831524 0.669771 0
M  V30 12 C 1.29114 -2.07042 1.2394 0
M  V30 13 C 2.25754 -1.07214 -0.780889 0
M  V30 14 H 2.66159 1.98075 -1.51931 0
M  V30 15 H 0.918776 2.02194 -1.55388 0
M  V30 16 H 2.78678 1.79104 0.732396 0
M  V30 17 H 1.18623 2.54333 0.635807 0
M  V30 18 H 1.10261 0.57589 2.0065 0
M  V30 19 H -4.58288 0.846733 0.56678 0
M  V30 20 H -3.93941 0.105878 2.0472 0
M  V30 21 H -3.19702 1.01485 -2.27222 0
M  V30 22 H -4.03212 -0.372012 -1.41568 0
M  V30 23 H -2.69184 -0.716411 -2.53257 0
M  V30 24 H 2.89728 -0.708899 1.1937 0
M  V30 25 H 0.625407 -2.5788 0.505505 0
M  V30 26 H 0.763422 -1.83825 2.1888 0
M  V30 27 H 2.07078 -2.81918 1.50288 0
M  V30 28 H 1.44487 -0.916249 -1.48341 0
M  V30 29 H 2.51977 -2.16972 -0.844424 0
M  V30 30 H 3.19745 -0.521845 -1.07267 0
M  V30 END ATOM
M  V30 BEGIN BOND
M  V30 1 1 1 2
M  V30 2 1 2 3
M  V30 3 1 3 4
M  V30 4 2 4 5
M  V30 5 1 5 6
M  V30 6 1 6 7
M  V30 7 2 7 8
M  V30 8 1 7 9
M  V30 9 1 6 10
M  V30 10 1 3 11
M  V30 11 1 11 12
M  V30 12 1 11 13
M  V30 13 1 8 4
M  V30 14 1 1 14
M  V30 15 1 1 15
M  V30 16 1 2 16
M  V30 17 1 2 17
M  V30 18 1 3 18
M  V30 19 1 9 19
M  V30 20 1 9 20
M  V30 21 1 10 21
M  V30 22 1 10 22
M  V30 23 1 10 23
M  V30 24 1 11 24
M  V30 25 1 12 25
M  V30 26 1 12 26
M  V30 27 1 12 27
M  V30 28 1 13 28
M  V30 29 1 13 29
M  V30 30 1 13 30
M  V30 END BOND
M  V30 END CTAB
M  END
