
     RDKit          3D

  0  0  0  0  0  0  0  0  0  0999 V3000
M  V30 BEGIN CTAB
M  V30 COUNTS 42 44 0 0 0
M  V30 BEGIN ATOM
M  V30 1 N 7.56797 0.489736 -1.07905 0
M  V30 2 C 6.36451 0.211046 -0.382795 0
M  V30 3 C 5.72395 -1.01585 -0.470067 0
M  V30 4 C 4.55442 -1.30144 0.200311 0
M  V30 5 C 3.98703 -0.34924 0.988588 0
M  V30 6 C 4.59011 0.879043 1.10181 0
M  V30 7 C 5.76434 1.16788 0.429637 0
M  V30 8 S 2.50064 -0.661871 1.862 0
M  V30 9 O 2.45648 -2.13775 2.13661 0
M  V30 10 O 2.51024 0.0825694 3.16638 0
M  V30 11 C 1.11468 -0.230595 0.89362 0
M  V30 12 C 0.573888 -1.19535 0.0791771 0
M  V30 13 C -0.537808 -0.896898 -0.715942 0
M  V30 14 C -1.11428 0.345968 -0.709008 0
M  V30 15 C -0.569838 1.31081 0.108459 0
M  V30 16 C 0.529393 1.01595 0.894755 0
M  V30 17 S -2.5201 0.691087 -1.72697 0
M  V30 18 O -2.44041 -0.136525 -2.99464 0
M  V30 19 O -2.49502 2.12969 -2.138 0
M  V30 20 C -3.97955 0.343793 -0.866515 0
M  V30 21 C -4.53709 -0.914887 -0.93626 0
M  V30 22 C -5.68367 -1.23379 -0.276538 0
M  V30 23 C -6.31269 -0.279391 0.485023 0
M  V30 24 N -7.51078 -0.541013 1.19971 0
M  V30 25 C -5.78238 0.980555 0.573567 0
M  V30 26 C -4.6284 1.28496 -0.0962637 0
M  V30 27 H 7.79511 0.0323085 -1.97592 0
M  V30 28 H 8.22478 1.17458 -0.659495 0
M  V30 29 H 6.17675 -1.78728 -1.10403 0
M  V30 30 H 4.07625 -2.28356 0.107033 0
M  V30 31 H 4.11155 1.61275 1.7372 0
M  V30 32 H 6.21483 2.13766 0.536425 0
M  V30 33 H 0.958268 -2.20307 0.00557371 0
M  V30 34 H -0.952576 -1.66563 -1.35167 0
M  V30 35 H -1.03837 2.28626 0.100737 0
M  V30 36 H 0.945297 1.80081 1.53766 0
M  V30 37 H -4.06725 -1.71331 -1.53538 0
M  V30 38 H -6.1293 -2.20775 -0.320941 0
M  V30 39 H -7.50623 -0.878541 2.18394 0
M  V30 40 H -8.42654 -0.389478 0.721213 0
M  V30 41 H -6.28183 1.73789 1.1781 0
M  V30 42 H -4.22635 2.30788 -0.00518618 0
M  V30 END ATOM
M  V30 BEGIN BOND
M  V30 1 1 1 2
M  V30 2 2 2 3
M  V30 3 1 3 4
M  V30 4 2 4 5
M  V30 5 1 5 6
M  V30 6 2 6 7
M  V30 7 1 5 8
M  V30 8 2 8 9
M  V30 9 2 8 10
M  V30 10 1 8 11
M  V30 11 2 11 12
M  V30 12 1 12 13
M  V30 13 2 13 14
M  V30 14 1 14 15
M  V30 15 2 15 16
M  V30 16 1 14 17
M  V30 17 2 17 18
M  V30 18 2 17 19
M  V30 19 1 17 20
M  V30 20 2 20 21
M  V30 21 1 21 22
M  V30 22 2 22 23
M  V30 23 1 23 24
M  V30 24 1 23 25
M  V30 25 2 25 26
M  V30 26 1 7 2
M  V30 27 1 16 11
M  V30 28 1 26 20
M  V30 29 1 1 27
M  V30 30 1 1 28
M  V30 31 1 3 29
M  V30 32 1 4 30
M  V30 33 1 6 31
M  V30 34 1 7 32
M  V30 35 1 12 33
M  V30 36 1 13 34
M  V30 37 1 15 35
M  V30 38 1 16 36
M  V30 39 1 21 37
M  V30 40 1 22 38
M  V30 41 1 24 39
M  V30 42 1 24 40
M  V30 43 1 25 41
M  V30 44 1 26 42
M  V30 END BOND
M  V30 END CTAB
M  END
