
     RDKit          3D

  0  0  0  0  0  0  0  0  0  0999 V3000
M  V30 BEGIN CTAB
M  V30 COUNTS 25 26 0 0 0
M  V30 BEGIN ATOM
M  V30 1 N 0.17647 -1.5707 2.6339 0
M  V30 2 C -0.721243 -0.829771 1.76627 0
M  V30 3 S -2.34659 -0.392936 1.99834 0
M  V30 4 C -2.62095 0.433396 0.537568 0
M  V30 5 C -1.42721 0.346981 -0.100024 0
M  V30 6 C -0.422292 -0.310672 0.528852 0
M  V30 7 C 0.955316 -0.486964 -0.0545745 0
M  V30 8 N 1.387 -1.49065 -0.824565 0
M  V30 9 N 2.65705 -1.28413 -1.13394 0
M  V30 10 C 3.0782 -0.119234 -0.55775 0
M  V30 11 N 1.99916 0.343151 0.0999874 0
M  V30 12 N 4.37448 0.439541 -0.65809 0
M  V30 13 C -1.22711 0.968563 -1.47558 0
M  V30 14 C -3.89179 1.1058 0.0590655 0
M  V30 15 H 0.396611 -2.57213 2.43755 0
M  V30 16 H 0.595346 -1.09781 3.4473 0
M  V30 17 H 3.29271 -1.87288 -1.71726 0
M  V30 18 H 5.14999 0.105166 -0.0621136 0
M  V30 19 H 4.56403 1.19718 -1.3359 0
M  V30 20 H -1.96178 1.76096 -1.64227 0
M  V30 21 H -1.32556 0.185578 -2.25145 0
M  V30 22 H -0.184592 1.32795 -1.51815 0
M  V30 23 H -4.76834 0.490886 0.342749 0
M  V30 24 H -3.90665 2.12269 0.50299 0
M  V30 25 H -3.82224 1.20003 -1.0229 0
M  V30 END ATOM
M  V30 BEGIN BOND
M  V30 1 1 1 2
M  V30 2 1 2 3
M  V30 3 1 3 4
M  V30 4 2 4 5
M  V30 5 1 5 6
M  V30 6 1 6 7
M  V30 7 2 7 8
M  V30 8 1 8 9
M  V30 9 1 9 10
M  V30 10 2 10 11
M  V30 11 1 10 12
M  V30 12 1 5 13
M  V30 13 1 4 14
M  V30 14 2 6 2
M  V30 15 1 11 7
M  V30 16 1 1 15
M  V30 17 1 1 16
M  V30 18 1 9 17
M  V30 19 1 12 18
M  V30 20 1 12 19
M  V30 21 1 13 20
M  V30 22 1 13 21
M  V30 23 1 13 22
M  V30 24 1 14 23
M  V30 25 1 14 24
M  V30 26 1 14 25
M  V30 END BOND
M  V30 END CTAB
M  END
