
     RDKit          3D

  0  0  0  0  0  0  0  0  0  0999 V3000
M  V30 BEGIN CTAB
M  V30 COUNTS 28 28 0 0 0
M  V30 BEGIN ATOM
M  V30 1 C 3.34411 -0.489623 0.317039 0
M  V30 2 C 2.25522 0.167489 -0.466171 0
M  V30 3 C 0.917495 -0.116172 0.204076 0
M  V30 4 O 0.812779 -1.4914 0.34075 0
M  V30 5 C -0.38284 -1.93072 0.822702 0
M  V30 6 C -1.56688 -1.10555 0.516643 0
M  V30 7 N -1.43503 -0.152575 -0.520966 0
M  V30 8 C -0.130053 0.321002 -0.791324 0
M  V30 9 S -2.52517 1.16816 -0.327301 0
M  V30 10 O -2.3244 2.18582 -1.40785 0
M  V30 11 O -2.32147 1.85387 1.00897 0
M  V30 12 N -4.16176 0.624855 -0.376174 0
M  V30 13 N 2.3988 1.57383 -0.623684 0
M  V30 14 H 4.33378 -0.338615 -0.120667 0
M  V30 15 H 3.15194 -1.59683 0.279637 0
M  V30 16 H 3.33288 -0.231738 1.39531 0
M  V30 17 H 2.21194 -0.319255 -1.4624 0
M  V30 18 H 0.774584 0.445786 1.12705 0
M  V30 19 H -0.509456 -3.00057 0.483376 0
M  V30 20 H -0.282776 -2.02195 1.94397 0
M  V30 21 H -1.96304 -0.573582 1.42642 0
M  V30 22 H -2.40926 -1.80262 0.230624 0
M  V30 23 H 0.1924 -0.105276 -1.78361 0
M  V30 24 H -0.0595976 1.42936 -0.928883 0
M  V30 25 H -4.43058 0.0733681 0.451328 0
M  V30 26 H -4.77314 1.47855 -0.435351 0
M  V30 27 H 2.83238 1.87152 -1.51257 0
M  V30 28 H 2.71716 2.08286 0.209063 0
M  V30 END ATOM
M  V30 BEGIN BOND
M  V30 1 1 1 2
M  V30 2 1 2 3
M  V30 3 1 3 4
M  V30 4 1 4 5
M  V30 5 1 5 6
M  V30 6 1 6 7
M  V30 7 1 7 8
M  V30 8 1 7 9
M  V30 9 2 9 10
M  V30 10 2 9 11
M  V30 11 1 9 12
M  V30 12 1 2 13
M  V30 13 1 8 3
M  V30 14 1 1 14
M  V30 15 1 1 15
M  V30 16 1 1 16
M  V30 17 1 2 17
M  V30 18 1 3 18
M  V30 19 1 5 19
M  V30 20 1 5 20
M  V30 21 1 6 21
M  V30 22 1 6 22
M  V30 23 1 8 23
M  V30 24 1 8 24
M  V30 25 1 12 25
M  V30 26 1 12 26
M  V30 27 1 13 27
M  V30 28 1 13 28
M  V30 END BOND
M  V30 END CTAB
M  END
