
     RDKit          3D

  0  0  0  0  0  0  0  0  0  0999 V3000
M  V30 BEGIN CTAB
M  V30 COUNTS 24 25 0 0 0
M  V30 BEGIN ATOM
M  V30 1 N 4.23367 1.64276 -0.00665299 0
M  V30 2 C 3.0738 0.823894 -0.0349648 0
M  V30 3 C 3.26422 -0.552265 0.0270082 0
M  V30 4 C 2.17177 -1.39689 0.00312092 0
M  V30 5 C 0.919709 -0.820955 -0.0828488 0
M  V30 6 C 0.722499 0.54679 -0.144849 0
M  V30 7 N 1.82995 1.32479 -0.117661 0
M  V30 8 N -0.593453 0.818735 -0.222557 0
M  V30 9 C -1.23811 -0.362198 -0.210754 0
M  V30 10 N -0.325912 -1.37338 -0.125669 0
M  V30 11 C -2.70795 -0.520483 -0.280026 0
M  V30 12 N -3.15985 -1.49707 0.700915 0
M  V30 13 C -3.37956 0.790384 0.0866952 0
M  V30 14 H 5.04803 1.48224 0.625361 0
M  V30 15 H 4.2784 2.455 -0.655319 0
M  V30 16 H 4.28303 -0.959096 0.0946156 0
M  V30 17 H 2.29578 -2.46759 0.0501012 0
M  V30 18 H -0.961325 1.79332 -0.278374 0
M  V30 19 H -3.05926 -0.854767 -1.28134 0
M  V30 20 H -3.62238 -2.31203 0.246666 0
M  V30 21 H -2.37055 -1.84513 1.28489 0
M  V30 22 H -3.23396 1.49137 -0.758972 0
M  V30 23 H -2.9915 1.15699 1.04264 0
M  V30 24 H -4.47706 0.635591 0.197279 0
M  V30 END ATOM
M  V30 BEGIN BOND
M  V30 1 1 1 2
M  V30 2 2 2 3
M  V30 3 1 3 4
M  V30 4 2 4 5
M  V30 5 1 5 6
M  V30 6 2 6 7
M  V30 7 1 6 8
M  V30 8 1 8 9
M  V30 9 2 9 10
M  V30 10 1 9 11
M  V30 11 1 11 12
M  V30 12 1 11 13
M  V30 13 1 7 2
M  V30 14 1 10 5
M  V30 15 1 1 14
M  V30 16 1 1 15
M  V30 17 1 3 16
M  V30 18 1 4 17
M  V30 19 1 8 18
M  V30 20 1 11 19
M  V30 21 1 12 20
M  V30 22 1 12 21
M  V30 23 1 13 22
M  V30 24 1 13 23
M  V30 25 1 13 24
M  V30 END BOND
M  V30 END CTAB
M  END
