
     RDKit          3D

  0  0  0  0  0  0  0  0  0  0999 V3000
M  V30 BEGIN CTAB
M  V30 COUNTS 26 26 0 0 0
M  V30 BEGIN ATOM
M  V30 1 C 3.57995 -0.305482 0.416873 0
M  V30 2 C 2.20342 -0.213535 -0.150076 0
M  V30 3 N 1.26182 -0.588383 0.920207 0
M  V30 4 C 0.15624 -1.35087 0.433474 0
M  V30 5 C -1.0341 -0.443848 0.636582 0
M  V30 6 N -1.23916 0.466094 1.61162 0
M  V30 7 N -2.34488 1.14025 1.34886 0
M  V30 8 C -2.90853 0.707598 0.210637 0
M  V30 9 N -2.06587 -0.295596 -0.222217 0
M  V30 10 N -2.2819 -1.03804 -1.3899 0
M  V30 11 N -4.07283 1.17241 -0.473972 0
M  V30 12 C 1.89649 1.25985 -0.460022 0
M  V30 13 H 3.77646 -1.30821 0.81682 0
M  V30 14 H 4.35151 -0.0323541 -0.355094 0
M  V30 15 H 3.6212 0.419073 1.27567 0
M  V30 16 H 2.01003 -0.77776 -1.06412 0
M  V30 17 H 1.0849 0.160899 1.5699 0
M  V30 18 H 0.279632 -1.60535 -0.618001 0
M  V30 19 H -0.00658592 -2.27926 0.999505 0
M  V30 20 H -3.22193 -1.09886 -1.82304 0
M  V30 21 H -1.49427 -1.54861 -1.85452 0
M  V30 22 H -4.95326 1.28573 0.0557555 0
M  V30 23 H -4.06318 1.4125 -1.478 0
M  V30 24 H 0.841454 1.40969 -0.636531 0
M  V30 25 H 2.46715 1.57048 -1.29332 0
M  V30 26 H 2.15624 1.88158 0.448349 0
M  V30 END ATOM
M  V30 BEGIN BOND
M  V30 1 1 1 2
M  V30 2 1 2 3
M  V30 3 1 3 4
M  V30 4 1 4 5
M  V30 5 2 5 6
M  V30 6 1 6 7
M  V30 7 2 7 8
M  V30 8 1 8 9
M  V30 9 1 9 10
M  V30 10 1 8 11
M  V30 11 1 2 12
M  V30 12 1 9 5
M  V30 13 1 1 13
M  V30 14 1 1 14
M  V30 15 1 1 15
M  V30 16 1 2 16
M  V30 17 1 3 17
M  V30 18 1 4 18
M  V30 19 1 4 19
M  V30 20 1 10 20
M  V30 21 1 10 21
M  V30 22 1 11 22
M  V30 23 1 11 23
M  V30 24 1 12 24
M  V30 25 1 12 25
M  V30 26 1 12 26
M  V30 END BOND
M  V30 END CTAB
M  END
