
     RDKit          3D

  0  0  0  0  0  0  0  0  0  0999 V3000
M  V30 BEGIN CTAB
M  V30 COUNTS 26 27 0 0 0
M  V30 BEGIN ATOM
M  V30 1 O 4.84558 -0.539904 -1.59595 0
M  V30 2 C 4.35015 0.156859 -0.487194 0
M  V30 3 C 3.20958 -0.601977 0.103863 0
M  V30 4 C 2.58118 0.0763628 1.33968 0
M  V30 5 C 1.81028 -0.0646816 0.0245051 0
M  V30 6 S 0.517758 -1.30198 -0.0628099 0
M  V30 7 C -1.10919 -0.596279 -0.154471 0
M  V30 8 N -2.15291 -1.44106 -0.223697 0
M  V30 9 C -3.43197 -1.04358 -0.297023 0
M  V30 10 N -4.52756 -1.96575 -0.36996 0
M  V30 11 C -3.69564 0.313733 -0.301896 0
M  V30 12 C -2.62338 1.1822 -0.230775 0
M  V30 13 N -1.35574 0.722236 -0.158633 0
M  V30 14 N -2.93015 2.57288 -0.237959 0
M  V30 15 H 5.73961 -0.944836 -1.41146 0
M  V30 16 H 4.05045 1.16517 -0.844924 0
M  V30 17 H 5.20309 0.298263 0.21371 0
M  V30 18 H 3.34501 -1.70586 0.180923 0
M  V30 19 H 2.90096 1.10384 1.57347 0
M  V30 20 H 2.28744 -0.576316 2.18352 0
M  V30 21 H 1.6122 0.866055 -0.544488 0
M  V30 22 H -4.3746 -2.86392 -0.883514 0
M  V30 23 H -5.42386 -1.71887 0.081037 0
M  V30 24 H -4.70685 0.694986 -0.359324 0
M  V30 25 H -2.37604 3.28098 0.28578 0
M  V30 26 H -3.74542 2.93142 -0.7864 0
M  V30 END ATOM
M  V30 BEGIN BOND
M  V30 1 1 1 2
M  V30 2 1 2 3
M  V30 3 1 3 4
M  V30 4 1 4 5
M  V30 5 1 5 6
M  V30 6 1 6 7
M  V30 7 2 7 8
M  V30 8 1 8 9
M  V30 9 1 9 10
M  V30 10 2 9 11
M  V30 11 1 11 12
M  V30 12 2 12 13
M  V30 13 1 12 14
M  V30 14 1 5 3
M  V30 15 1 13 7
M  V30 16 1 1 15
M  V30 17 1 2 16
M  V30 18 1 2 17
M  V30 19 1 3 18
M  V30 20 1 4 19
M  V30 21 1 4 20
M  V30 22 1 5 21
M  V30 23 1 10 22
M  V30 24 1 10 23
M  V30 25 1 11 24
M  V30 26 1 14 25
M  V30 27 1 14 26
M  V30 END BOND
M  V30 END CTAB
M  END
