
     RDKit          3D

  0  0  0  0  0  0  0  0  0  0999 V3000
M  V30 BEGIN CTAB
M  V30 COUNTS 40 42 0 0 0
M  V30 BEGIN ATOM
M  V30 1 N -6.32076 -0.0143213 -0.0429704 0
M  V30 2 C -5.7179 1.23371 -0.277824 0
M  V30 3 N -6.50239 2.27981 -0.424324 0
M  V30 4 N -4.34593 1.41361 -0.330383 0
M  V30 5 C -3.31867 0.474652 -0.222932 0
M  V30 6 O -3.62066 -0.747891 -0.0476545 0
M  V30 7 C -1.92651 0.817074 -0.307076 0
M  V30 8 C -0.797726 0.0404287 0.0993932 0
M  V30 9 C -1.09447 -1.21213 0.796409 0
M  V30 10 C -0.652161 -2.56256 0.233865 0
M  V30 11 C 0.119188 -2.04767 1.34416 0
M  V30 12 N 0.287954 0.688967 -0.156097 0
M  V30 13 N -0.0959804 1.89089 -0.734449 0
M  V30 14 C -1.41693 1.96885 -0.823019 0
M  V30 15 C 1.68716 0.536821 0.0975846 0
M  V30 16 C 2.12344 1.02031 1.34881 0
M  V30 17 Cl 0.901959 1.57282 2.51015 0
M  V30 18 C 3.46125 1.071 1.68387 0
M  V30 19 C 4.41571 0.642435 0.782222 0
M  V30 20 C 4.01252 0.155843 -0.454847 0
M  V30 21 C 2.64012 0.114514 -0.771489 0
M  V30 22 S 5.21976 -0.330369 -1.6063 0
M  V30 23 N 5.82504 -1.89952 -1.21184 0
M  V30 24 O 4.58761 -0.416564 -3.00049 0
M  V30 25 O 6.31096 0.693597 -1.71493 0
M  V30 26 H -6.15276 -0.809303 -0.699464 0
M  V30 27 H -6.95317 -0.191656 0.789496 0
M  V30 28 H -7.53544 2.2359 -0.379008 0
M  V30 29 H -4.02521 2.4363 -0.46943 0
M  V30 30 H -1.9301 -1.23717 1.56324 0
M  V30 31 H -1.41465 -3.39165 0.394397 0
M  V30 32 H -0.250104 -2.54236 -0.815038 0
M  V30 33 H 1.1343 -1.74209 1.1946 0
M  V30 34 H -0.0496736 -2.50072 2.35832 0
M  V30 35 H -1.98308 2.80052 -1.23577 0
M  V30 36 H 3.78694 1.45016 2.6454 0
M  V30 37 H 5.48997 0.679337 1.04209 0
M  V30 38 H 2.33144 -0.263647 -1.76126 0
M  V30 39 H 5.09364 -2.47849 -0.805119 0
M  V30 40 H 6.6753 -1.82944 -0.592301 0
M  V30 END ATOM
M  V30 BEGIN BOND
M  V30 1 1 1 2
M  V30 2 2 2 3 CFG=2
M  V30 3 1 2 4
M  V30 4 1 4 5
M  V30 5 2 5 6
M  V30 6 1 5 7
M  V30 7 2 7 8
M  V30 8 1 8 9
M  V30 9 1 9 10
M  V30 10 1 10 11
M  V30 11 1 8 12
M  V30 12 1 12 13
M  V30 13 2 13 14
M  V30 14 1 12 15
M  V30 15 2 15 16
M  V30 16 1 16 17
M  V30 17 1 16 18
M  V30 18 2 18 19
M  V30 19 1 19 20
M  V30 20 2 20 21
M  V30 21 1 20 22
M  V30 22 1 22 23
M  V30 23 2 22 24
M  V30 24 2 22 25
M  V30 25 1 14 7
M  V30 26 1 21 15
M  V30 27 1 11 9
M  V30 28 1 1 26
M  V30 29 1 1 27
M  V30 30 1 3 28
M  V30 31 1 4 29
M  V30 32 1 9 30
M  V30 33 1 10 31
M  V30 34 1 10 32
M  V30 35 1 11 33
M  V30 36 1 11 34
M  V30 37 1 14 35
M  V30 38 1 18 36
M  V30 39 1 19 37
M  V30 40 1 21 38
M  V30 41 1 23 39
M  V30 42 1 23 40
M  V30 END BOND
M  V30 END CTAB
M  END
