
     RDKit          3D

  0  0  0  0  0  0  0  0  0  0999 V3000
M  V30 BEGIN CTAB
M  V30 COUNTS 38 39 0 0 0
M  V30 BEGIN ATOM
M  V30 1 N 5.22634 1.0921 0.290756 0
M  V30 2 C 3.94835 1.17183 -0.190288 0
M  V30 3 C 3.29224 -0.231702 -0.0720489 0
M  V30 4 N 1.95367 -0.18636 -0.412649 0
M  V30 5 C 1.08653 0.368551 0.632046 0
M  V30 6 C 0.548282 -0.831331 1.36382 0
M  V30 7 O -0.519791 -1.48625 0.97651 0
M  V30 8 C -1.17223 -1.14279 -0.224003 0 CFG=2
M  V30 9 C -0.177067 -0.643246 -1.20754 0
M  V30 10 C 1.23629 -1.2284 -1.00989 0
M  V30 11 C -2.28526 -0.192002 0.107335 0
M  V30 12 C -2.34028 0.402444 1.34296 0
M  V30 13 C -3.47729 1.13134 1.76261 0
M  V30 14 C -4.53632 1.24807 0.925037 0
M  V30 15 C -4.48817 0.655624 -0.322643 0
M  V30 16 C -3.36226 -0.0527946 -0.708108 0
M  V30 17 N -3.29118 -0.599452 -2.01495 0
M  V30 18 H 5.57966 1.81944 0.793233 0
M  V30 19 H 5.57103 0.207033 0.43115 0
M  V30 20 H 3.3188 1.97367 0.176904 0
M  V30 21 H 4.1247 1.32376 -1.34667 0
M  V30 22 H 3.85263 -0.967293 -0.652777 0
M  V30 23 H 3.4124 -0.552989 1.00714 0
M  V30 24 H 1.83005 0.864121 1.3299 0
M  V30 25 H 0.423987 1.1517 0.316031 0
M  V30 26 H 0.487723 -0.519341 2.45406 0
M  V30 27 H 1.43188 -1.5459 1.40353 0
M  V30 28 H -1.65011 -2.05123 -0.586893 0
M  V30 29 H -0.452762 -1.04296 -2.26589 0
M  V30 30 H -0.117655 0.432574 -1.37946 0
M  V30 31 H 1.14046 -2.17378 -0.450177 0
M  V30 32 H 1.67787 -1.45112 -2.02034 0
M  V30 33 H -1.57165 0.363144 2.09264 0
M  V30 34 H -3.49106 1.57163 2.76873 0
M  V30 35 H -5.41546 1.79523 1.22439 0
M  V30 36 H -5.32127 0.763232 -0.991429 0
M  V30 37 H -2.9106 0.102042 -2.74877 0
M  V30 38 H -3.56248 -1.5386 -2.331 0
M  V30 END ATOM
M  V30 BEGIN BOND
M  V30 1 1 1 2
M  V30 2 1 2 3
M  V30 3 1 3 4
M  V30 4 1 4 5
M  V30 5 1 5 6
M  V30 6 1 6 7
M  V30 7 1 7 8
M  V30 8 1 8 9
M  V30 9 1 9 10
M  V30 10 1 8 11
M  V30 11 2 11 12
M  V30 12 1 12 13
M  V30 13 2 13 14
M  V30 14 1 14 15
M  V30 15 2 15 16
M  V30 16 1 16 17
M  V30 17 1 10 4
M  V30 18 1 16 11
M  V30 19 1 1 18
M  V30 20 1 1 19
M  V30 21 1 2 20
M  V30 22 1 2 21
M  V30 23 1 3 22
M  V30 24 1 3 23
M  V30 25 1 5 24
M  V30 26 1 5 25
M  V30 27 1 6 26
M  V30 28 1 6 27
M  V30 29 1 8 28 CFG=3
M  V30 30 1 9 29
M  V30 31 1 9 30
M  V30 32 1 10 31
M  V30 33 1 10 32
M  V30 34 1 12 33
M  V30 35 1 13 34
M  V30 36 1 14 35
M  V30 37 1 15 36
M  V30 38 1 17 37
M  V30 39 1 17 38
M  V30 END BOND
M  V30 END CTAB
M  END
