
     RDKit          3D

  0  0  0  0  0  0  0  0  0  0999 V3000
M  V30 BEGIN CTAB
M  V30 COUNTS 29 29 0 0 0
M  V30 BEGIN ATOM
M  V30 1 F 5.6312 -0.929172 0.381074 0
M  V30 2 C 4.31937 -0.570293 0.265397 0
M  V30 3 C 3.29807 -1.48175 0.398897 0
M  V30 4 C 1.97186 -1.12699 0.283467 0
M  V30 5 C 1.63309 0.202346 0.0214402 0
M  V30 6 C 2.6348 1.13436 -0.116639 0
M  V30 7 C 3.95176 0.744233 0.00509121 0
M  V30 8 N 2.29769 2.47298 -0.380349 0
M  V30 9 S -0.0532214 0.754118 -0.14426 0
M  V30 10 C -1.13517 -0.663937 0.0820429 0
M  V30 11 C -2.59375 -0.319444 -0.0363614 0
M  V30 12 N -3.34683 -1.54847 0.166577 0
M  V30 13 C -2.95772 0.252843 -1.38088 0
M  V30 14 C -3.0325 0.674398 1.01496 0
M  V30 15 H 3.54895 -2.50198 0.599662 0
M  V30 16 H 1.15367 -1.84903 0.388885 0
M  V30 17 H 4.77851 1.4446 -0.0959435 0
M  V30 18 H 2.70226 2.92382 -1.25084 0
M  V30 19 H 1.68621 3.05843 0.204426 0
M  V30 20 H -0.972037 -1.07971 1.08983 0
M  V30 21 H -0.902835 -1.43013 -0.675996 0
M  V30 22 H -3.0224 -2.20939 -0.596736 0
M  V30 23 H -2.95761 -1.97182 1.05495 0
M  V30 24 H -2.40214 -0.184459 -2.21493 0
M  V30 25 H -2.83463 1.37182 -1.33318 0
M  V30 26 H -4.06478 0.111855 -1.53249 0
M  V30 27 H -3.0506 1.6927 0.565907 0
M  V30 28 H -2.25367 0.636947 1.82085 0
M  V30 29 H -4.02755 0.391121 1.41515 0
M  V30 END ATOM
M  V30 BEGIN BOND
M  V30 1 1 1 2
M  V30 2 2 2 3
M  V30 3 1 3 4
M  V30 4 2 4 5
M  V30 5 1 5 6
M  V30 6 2 6 7
M  V30 7 1 6 8
M  V30 8 1 5 9
M  V30 9 1 9 10
M  V30 10 1 10 11
M  V30 11 1 11 12
M  V30 12 1 11 13
M  V30 13 1 11 14
M  V30 14 1 7 2
M  V30 15 1 3 15
M  V30 16 1 4 16
M  V30 17 1 7 17
M  V30 18 1 8 18
M  V30 19 1 8 19
M  V30 20 1 10 20
M  V30 21 1 10 21
M  V30 22 1 12 22
M  V30 23 1 12 23
M  V30 24 1 13 24
M  V30 25 1 13 25
M  V30 26 1 13 26
M  V30 27 1 14 27
M  V30 28 1 14 28
M  V30 29 1 14 29
M  V30 END BOND
M  V30 END CTAB
M  END
