
     RDKit          3D

  0  0  0  0  0  0  0  0  0  0999 V3000
M  V30 BEGIN CTAB
M  V30 COUNTS 44 46 0 0 0
M  V30 BEGIN ATOM
M  V30 1 C -2.78113 -0.0866585 -2.07203 0
M  V30 2 C -3.4607 0.0794831 -0.728513 0
M  V30 3 C -3.50348 1.59726 -0.45631 0
M  V30 4 N -4.81318 -0.340227 -0.799606 0
M  V30 5 C -5.41534 -1.16015 -0.0198965 0
M  V30 6 N -6.78345 -1.43308 -0.285178 0
M  V30 7 N -4.69287 -1.74753 1.04931 0
M  V30 8 C -3.44157 -1.44269 1.21222 0
M  V30 9 N -2.69648 -2.03394 2.29854 0
M  V30 10 N -2.77214 -0.543184 0.347001 0
M  V30 11 O -1.44726 -0.313139 0.61254 0
M  V30 12 C -0.615722 -1.26287 0.0830482 0
M  V30 13 C 0.844721 -0.994789 0.388322 0
M  V30 14 C 1.27762 0.345901 -0.179387 0
M  V30 15 C 2.69616 0.629048 0.105374 0
M  V30 16 N 3.72185 0.274676 -0.706786 0
M  V30 17 C 4.8867 0.669037 -0.178218 0
M  V30 18 C 4.604 1.29697 1.01119 0
M  V30 19 N 3.25674 1.25327 1.15082 0
M  V30 20 C 5.61442 1.82447 1.80731 0
M  V30 21 C 6.92037 1.71323 1.39226 0
M  V30 22 C 7.22686 1.09019 0.207901 0
M  V30 23 C 6.20537 0.572785 -0.568037 0
M  V30 24 H -2.71125 -1.17542 -2.32398 0
M  V30 25 H -1.82513 0.441156 -2.12432 0
M  V30 26 H -3.4363 0.34584 -2.86232 0
M  V30 27 H -2.50294 2.03177 -0.47889 0
M  V30 28 H -4.01149 1.74563 0.523783 0
M  V30 29 H -4.18597 2.00647 -1.23083 0
M  V30 30 H -7.04865 -1.8209 -1.21655 0
M  V30 31 H -7.52827 -1.26034 0.41466 0
M  V30 32 H -1.93902 -1.55481 2.79007 0
M  V30 33 H -2.95649 -2.99756 2.5832 0
M  V30 34 H -0.716601 -1.36843 -1.00801 0
M  V30 35 H -0.847253 -2.25021 0.529718 0
M  V30 36 H 1.43782 -1.77166 -0.13955 0
M  V30 37 H 1.07572 -1.05801 1.45489 0
M  V30 38 H 1.13802 0.379694 -1.2719 0
M  V30 39 H 0.643767 1.10911 0.291273 0
M  V30 40 H 2.7345 1.65537 1.96797 0
M  V30 41 H 5.40774 2.31936 2.74209 0
M  V30 42 H 7.72174 2.12565 2.01284 0
M  V30 43 H 8.25631 1.02537 -0.0776329 0
M  V30 44 H 6.46225 0.0838716 -1.5001 0
M  V30 END ATOM
M  V30 BEGIN BOND
M  V30 1 1 1 2
M  V30 2 1 2 3
M  V30 3 1 2 4
M  V30 4 2 4 5
M  V30 5 1 5 6
M  V30 6 1 5 7
M  V30 7 2 7 8
M  V30 8 1 8 9
M  V30 9 1 8 10
M  V30 10 1 10 11
M  V30 11 1 11 12
M  V30 12 1 12 13
M  V30 13 1 13 14
M  V30 14 1 14 15
M  V30 15 2 15 16
M  V30 16 1 16 17
M  V30 17 2 17 18
M  V30 18 1 18 19
M  V30 19 1 18 20
M  V30 20 2 20 21
M  V30 21 1 21 22
M  V30 22 2 22 23
M  V30 23 1 10 2
M  V30 24 1 19 15
M  V30 25 1 23 17
M  V30 26 1 1 24
M  V30 27 1 1 25
M  V30 28 1 1 26
M  V30 29 1 3 27
M  V30 30 1 3 28
M  V30 31 1 3 29
M  V30 32 1 6 30
M  V30 33 1 6 31
M  V30 34 1 9 32
M  V30 35 1 9 33
M  V30 36 1 12 34
M  V30 37 1 12 35
M  V30 38 1 13 36
M  V30 39 1 13 37
M  V30 40 1 14 38
M  V30 41 1 14 39
M  V30 42 1 19 40
M  V30 43 1 20 41
M  V30 44 1 21 42
M  V30 45 1 22 43
M  V30 46 1 23 44
M  V30 END BOND
M  V30 END CTAB
M  END
