
     RDKit          3D

  0  0  0  0  0  0  0  0  0  0999 V3000
M  V30 BEGIN CTAB
M  V30 COUNTS 54 57 0 0 0
M  V30 BEGIN ATOM
M  V30 1 N 7.31748 0.63035 -0.17592 0
M  V30 2 C 6.72277 -0.250763 -1.10728 0 CFG=2
M  V30 3 C 5.50579 0.378712 -1.77448 0
M  V30 4 C 4.6226 -0.730861 -1.24046 0 CFG=1
M  V30 5 C 5.7883 -1.27314 -0.46866 0
M  V30 6 C 3.63245 -0.131182 -0.295549 0
M  V30 7 C 2.29049 -0.374931 -0.474054 0
M  V30 8 C 1.4102 0.202174 0.4273 0
M  V30 9 N 1.85007 0.972554 1.44035 0
M  V30 10 C 3.14602 1.19318 1.59247 0
M  V30 11 N 4.03434 0.640092 0.723059 0
M  V30 12 N 3.57207 2.00881 2.6709 0
M  V30 13 N 0.0291944 0.00338392 0.311816 0
M  V30 14 C -0.898932 0.587428 1.23694 0
M  V30 15 C -2.06543 1.06578 0.358529 0
M  V30 16 C -2.85096 -0.173551 -0.0152834 0
M  V30 17 C -1.92462 -1.25864 -0.343582 0
M  V30 18 C -0.513174 -0.800125 -0.751014 0
M  V30 19 N -3.8274 0.203193 -0.957399 0
M  V30 20 C -4.7425 1.15827 -0.357811 0
M  V30 21 C -5.49414 0.585441 0.818216 0
M  V30 22 C -6.01084 -0.791929 0.478855 0
M  V30 23 C -5.92981 -1.09683 -0.980031 0
M  V30 24 C -4.59061 -0.783295 -1.60869 0
M  V30 25 H 7.18406 0.500204 0.78874 0
M  V30 26 H 7.67006 1.49274 -0.532728 0
M  V30 27 H 7.43956 -0.703108 -1.81012 0
M  V30 28 H 5.5576 0.340008 -2.87007 0
M  V30 29 H 5.27774 1.38933 -1.43458 0
M  V30 30 H 4.19136 -1.37191 -2.00941 0
M  V30 31 H 6.0744 -2.30186 -0.733379 0
M  V30 32 H 5.73993 -1.13884 0.630596 0
M  V30 33 H 1.89954 -0.986296 -1.27278 0
M  V30 34 H 3.46027 3.02972 2.60464 0
M  V30 35 H 3.98648 1.55917 3.50186 0
M  V30 36 H -0.491048 1.38137 1.85855 0
M  V30 37 H -1.31052 -0.231959 1.87569 0
M  V30 38 H -1.67726 1.61988 -0.498706 0
M  V30 39 H -2.6418 1.74174 1.02024 0
M  V30 40 H -3.40034 -0.445996 0.938375 0
M  V30 41 H -1.73498 -1.91252 0.56148 0
M  V30 42 H -2.22432 -1.96703 -1.13298 0
M  V30 43 H 0.0680385 -1.76556 -0.828754 0
M  V30 44 H -0.496217 -0.333732 -1.73429 0
M  V30 45 H -5.52916 1.40452 -1.13335 0
M  V30 46 H -4.29299 2.11399 -0.0951303 0
M  V30 47 H -4.92454 0.620991 1.76884 0
M  V30 48 H -6.37665 1.27097 0.976439 0
M  V30 49 H -7.08315 -0.85684 0.769431 0
M  V30 50 H -5.50224 -1.59558 1.067 0
M  V30 51 H -6.20573 -2.17475 -1.10741 0
M  V30 52 H -6.77033 -0.53677 -1.47654 0
M  V30 53 H -4.84642 -0.362393 -2.63277 0
M  V30 54 H -4.11469 -1.74359 -1.82874 0
M  V30 END ATOM
M  V30 BEGIN BOND
M  V30 1 1 1 2
M  V30 2 1 2 3
M  V30 3 1 3 4
M  V30 4 1 4 5
M  V30 5 1 4 6
M  V30 6 2 6 7
M  V30 7 1 7 8
M  V30 8 2 8 9
M  V30 9 1 9 10
M  V30 10 2 10 11
M  V30 11 1 10 12
M  V30 12 1 8 13
M  V30 13 1 13 14
M  V30 14 1 14 15
M  V30 15 1 15 16
M  V30 16 1 16 17
M  V30 17 1 17 18
M  V30 18 1 16 19
M  V30 19 1 19 20
M  V30 20 1 20 21
M  V30 21 1 21 22
M  V30 22 1 22 23
M  V30 23 1 23 24
M  V30 24 1 5 2
M  V30 25 1 11 6
M  V30 26 1 18 13
M  V30 27 1 24 19
M  V30 28 1 1 25
M  V30 29 1 1 26
M  V30 30 1 2 27 CFG=3
M  V30 31 1 3 28
M  V30 32 1 3 29
M  V30 33 1 4 30 CFG=3
M  V30 34 1 5 31
M  V30 35 1 5 32
M  V30 36 1 7 33
M  V30 37 1 12 34
M  V30 38 1 12 35
M  V30 39 1 14 36
M  V30 40 1 14 37
M  V30 41 1 15 38
M  V30 42 1 15 39
M  V30 43 1 16 40
M  V30 44 1 17 41
M  V30 45 1 17 42
M  V30 46 1 18 43
M  V30 47 1 18 44
M  V30 48 1 20 45
M  V30 49 1 20 46
M  V30 50 1 21 47
M  V30 51 1 21 48
M  V30 52 1 22 49
M  V30 53 1 22 50
M  V30 54 1 23 51
M  V30 55 1 23 52
M  V30 56 1 24 53
M  V30 57 1 24 54
M  V30 END BOND
M  V30 END CTAB
M  END
