
     RDKit          3D

  0  0  0  0  0  0  0  0  0  0999 V3000
M  V30 BEGIN CTAB
M  V30 COUNTS 28 29 0 0 0
M  V30 BEGIN ATOM
M  V30 1 N 0.773413 3.05888 1.5035 0
M  V30 2 C 0.111187 2.31553 0.914287 0
M  V30 3 C -0.714856 1.36627 0.178552 0
M  V30 4 C -2.00792 1.597 0.216641 0
M  V30 5 N -2.5919 2.67989 0.911962 0
M  V30 6 S -3.06541 0.461788 -0.667169 0
M  V30 7 C -2.14242 -1.09394 -0.683767 0
M  V30 8 C -0.844739 -0.987531 -0.619139 0
M  V30 9 C -0.0753778 0.257773 -0.53573 0
M  V30 10 C 1.19485 -0.0590822 0.24988 0
M  V30 11 C 1.18535 -0.148064 1.58534 0
M  V30 12 C 2.37313 -0.437121 2.20555 0
M  V30 13 S 3.46372 -0.575181 0.903355 0
M  V30 14 C 2.39509 -0.265619 -0.381584 0
M  V30 15 C 2.66187 -0.22003 -1.86654 0
M  V30 16 C -0.0969833 -2.23902 -0.634236 0
M  V30 17 N 0.51347 -3.22208 -0.641599 0
M  V30 18 N -2.77313 -2.35903 -0.761694 0
M  V30 19 H -3.10471 3.45252 0.425467 0
M  V30 20 H -2.5174 2.72357 1.94201 0
M  V30 21 H 0.205626 0.55973 -1.56629 0
M  V30 22 H 0.282478 -0.00513336 2.22174 0
M  V30 23 H 2.56223 -0.55013 3.28902 0
M  V30 24 H 2.3907 -1.18156 -2.34697 0
M  V30 25 H 2.09652 0.598023 -2.34059 0
M  V30 26 H 3.76114 -0.0119852 -1.98417 0
M  V30 27 H -2.9438 -2.91012 0.122922 0
M  V30 28 H -3.09213 -2.80537 -1.64077 0
M  V30 END ATOM
M  V30 BEGIN BOND
M  V30 1 3 1 2
M  V30 2 1 2 3
M  V30 3 2 3 4
M  V30 4 1 4 5
M  V30 5 1 4 6
M  V30 6 1 6 7
M  V30 7 2 7 8
M  V30 8 1 8 9
M  V30 9 1 9 10
M  V30 10 1 10 11
M  V30 11 2 11 12
M  V30 12 1 12 13
M  V30 13 1 13 14
M  V30 14 1 14 15
M  V30 15 1 8 16
M  V30 16 3 16 17
M  V30 17 1 7 18
M  V30 18 1 9 3
M  V30 19 2 14 10
M  V30 20 1 5 19
M  V30 21 1 5 20
M  V30 22 1 9 21
M  V30 23 1 11 22
M  V30 24 1 12 23
M  V30 25 1 15 24
M  V30 26 1 15 25
M  V30 27 1 15 26
M  V30 28 1 18 27
M  V30 29 1 18 28
M  V30 END BOND
M  V30 END CTAB
M  END
