
     RDKit          3D

  0  0  0  0  0  0  0  0  0  0999 V3000
M  V30 BEGIN CTAB
M  V30 COUNTS 16 16 0 0 0
M  V30 BEGIN ATOM
M  V30 1 N 2.8201 0.310149 -0.0719169 0
M  V30 2 C 1.38267 0.156788 -0.0327037 0
M  V30 3 C 0.877307 -1.12505 -0.0439632 0
M  V30 4 C -0.492451 -1.27443 -0.00665481 0
M  V30 5 F -1.03514 -2.52215 -0.016103 0
M  V30 6 C -1.33629 -0.161166 0.0409127 0
M  V30 7 C -0.802647 1.1066 0.051051 0
M  V30 8 C 0.554268 1.25271 0.014056 0
M  V30 9 Br -1.94165 2.63191 0.115722 0
M  V30 10 N -2.73148 -0.39262 0.0772946 0
M  V30 11 H 3.3673 0.388904 0.813978 0
M  V30 12 H 3.2376 0.333326 -1.02792 0
M  V30 13 H 1.5511 -1.99018 -0.0814723 0
M  V30 14 H 1.0395 2.24371 0.0199738 0
M  V30 15 H -3.26316 -0.406951 0.964391 0
M  V30 16 H -3.22704 -0.551546 -0.816645 0
M  V30 END ATOM
M  V30 BEGIN BOND
M  V30 1 1 1 2
M  V30 2 2 2 3
M  V30 3 1 3 4
M  V30 4 1 4 5
M  V30 5 2 4 6
M  V30 6 1 6 7
M  V30 7 2 7 8
M  V30 8 1 7 9
M  V30 9 1 6 10
M  V30 10 1 8 2
M  V30 11 1 1 11
M  V30 12 1 1 12
M  V30 13 1 3 13
M  V30 14 1 8 14
M  V30 15 1 10 15
M  V30 16 1 10 16
M  V30 END BOND
M  V30 END CTAB
M  END
