
     RDKit          3D

  0  0  0  0  0  0  0  0  0  0999 V3000
M  V30 BEGIN CTAB
M  V30 COUNTS 47 49 0 0 0
M  V30 BEGIN ATOM
M  V30 1 N -5.34214 -0.612034 -1.90903 0
M  V30 2 C -4.6762 -1.49316 -1.00456 0
M  V30 3 C -4.0954 -0.798692 0.202643 0
M  V30 4 C -5.11578 -0.09594 1.0239 0
M  V30 5 C -4.69433 1.33444 0.983815 0
M  V30 6 C -3.6193 1.45525 -0.0570825 0
M  V30 7 N -3.04559 0.126923 -0.145814 0
M  V30 8 C -1.72633 -0.243506 -0.497113 0
M  V30 9 O -1.42829 -1.46613 -0.505509 0
M  V30 10 C -0.642555 0.697278 -0.864068 0
M  V30 11 C -0.301323 1.70358 0.170877 0
M  V30 12 C 1.18581 1.64475 0.282334 0
M  V30 13 O 1.94975 2.54155 0.724071 0
M  V30 14 N 1.6173 0.363475 -0.209621 0
M  V30 15 C 0.629953 0.0102954 -1.21435 0
M  V30 16 C 2.76429 -0.328102 0.250492 0
M  V30 17 C 2.65782 -1.55998 0.860532 0
M  V30 18 C 3.78577 -2.24233 1.31796 0
M  V30 19 C 5.04812 -1.68338 1.16344 0
M  V30 20 C 5.15773 -0.460636 0.558378 0
M  V30 21 C 4.03426 0.187905 0.118465 0
M  V30 22 S 6.72397 0.276534 0.348235 0
M  V30 23 O 7.64114 -0.088926 1.50045 0
M  V30 24 O 6.57127 1.77134 0.384263 0
M  V30 25 N 7.45241 -0.173955 -1.14251 0
M  V30 26 H -6.08454 -1.09026 -2.46387 0
M  V30 27 H -5.70788 0.251906 -1.4926 0
M  V30 28 H -3.9398 -2.08325 -1.54702 0
M  V30 29 H -5.45067 -2.21628 -0.617441 0
M  V30 30 H -3.6036 -1.60229 0.823736 0
M  V30 31 H -6.16244 -0.260529 0.667579 0
M  V30 32 H -5.11253 -0.490426 2.07856 0
M  V30 33 H -5.53936 2.02993 0.7847 0
M  V30 34 H -4.29324 1.63287 1.97911 0
M  V30 35 H -2.90835 2.22332 0.306552 0
M  V30 36 H -3.97452 1.82548 -1.03754 0
M  V30 37 H -1.01785 1.25324 -1.76348 0
M  V30 38 H -0.791071 1.46783 1.13762 0
M  V30 39 H -0.533331 2.76067 -0.155275 0
M  V30 40 H 1.0485 0.354734 -2.18859 0
M  V30 41 H 0.493761 -1.08699 -1.20535 0
M  V30 42 H 1.7037 -2.05957 1.01522 0
M  V30 43 H 3.7099 -3.20745 1.79666 0
M  V30 44 H 5.91118 -2.22548 1.52351 0
M  V30 45 H 4.15573 1.15033 -0.354504 0
M  V30 46 H 8.47728 0.0424394 -1.05986 0
M  V30 47 H 7.08679 0.46321 -1.89672 0
M  V30 END ATOM
M  V30 BEGIN BOND
M  V30 1 1 1 2
M  V30 2 1 2 3
M  V30 3 1 3 4
M  V30 4 1 4 5
M  V30 5 1 5 6
M  V30 6 1 6 7
M  V30 7 1 7 8
M  V30 8 2 8 9
M  V30 9 1 8 10
M  V30 10 1 10 11
M  V30 11 1 11 12
M  V30 12 2 12 13
M  V30 13 1 12 14
M  V30 14 1 14 15
M  V30 15 1 14 16
M  V30 16 2 16 17
M  V30 17 1 17 18
M  V30 18 2 18 19
M  V30 19 1 19 20
M  V30 20 2 20 21
M  V30 21 1 20 22
M  V30 22 2 22 23
M  V30 23 2 22 24
M  V30 24 1 22 25
M  V30 25 1 7 3
M  V30 26 1 15 10
M  V30 27 1 21 16
M  V30 28 1 1 26
M  V30 29 1 1 27
M  V30 30 1 2 28
M  V30 31 1 2 29
M  V30 32 1 3 30
M  V30 33 1 4 31
M  V30 34 1 4 32
M  V30 35 1 5 33
M  V30 36 1 5 34
M  V30 37 1 6 35
M  V30 38 1 6 36
M  V30 39 1 10 37
M  V30 40 1 11 38
M  V30 41 1 11 39
M  V30 42 1 15 40
M  V30 43 1 15 41
M  V30 44 1 17 42
M  V30 45 1 18 43
M  V30 46 1 19 44
M  V30 47 1 21 45
M  V30 48 1 25 46
M  V30 49 1 25 47
M  V30 END BOND
M  V30 END CTAB
M  END
