
     RDKit          3D

  0  0  0  0  0  0  0  0  0  0999 V3000
M  V30 BEGIN CTAB
M  V30 COUNTS 21 22 0 0 0
M  V30 BEGIN ATOM
M  V30 1 N 4.3932 0.833776 0.176548 0
M  V30 2 C 3.1236 0.198958 0.225192 0
M  V30 3 N 2.883 -1.09852 0.452332 0
M  V30 4 O 1.59846 -1.29574 0.41915 0
M  V30 5 C 0.952336 -0.182583 0.178028 0
M  V30 6 N 1.90679 0.75501 0.0562428 0
M  V30 7 C -0.500062 -0.0153372 0.0682645 0
M  V30 8 C -1.14411 1.18546 -0.188944 0
M  V30 9 C -2.48665 0.912515 -0.211307 0
M  V30 10 N -2.61392 -0.396289 0.0240254 0
M  V30 11 N -1.43459 -0.968611 0.193973 0
M  V30 12 C -1.17064 -2.36638 0.466961 0
M  V30 13 N -3.48086 1.88886 -0.445987 0
M  V30 14 H 5.04726 0.8539 0.977481 0
M  V30 15 H 4.71321 1.31461 -0.699104 0
M  V30 16 H -0.638006 2.14929 -0.339873 0
M  V30 17 H -0.925176 -2.93885 -0.450413 0
M  V30 18 H -0.414329 -2.50639 1.27168 0
M  V30 19 H -2.11203 -2.80264 0.860786 0
M  V30 20 H -3.46184 2.47547 -1.28703 0
M  V30 21 H -4.23565 2.00348 0.251149 0
M  V30 END ATOM
M  V30 BEGIN BOND
M  V30 1 1 1 2
M  V30 2 2 2 3
M  V30 3 1 3 4
M  V30 4 1 4 5
M  V30 5 2 5 6
M  V30 6 1 5 7
M  V30 7 2 7 8
M  V30 8 1 8 9
M  V30 9 2 9 10
M  V30 10 1 10 11
M  V30 11 1 11 12
M  V30 12 1 9 13
M  V30 13 1 6 2
M  V30 14 1 11 7
M  V30 15 1 1 14
M  V30 16 1 1 15
M  V30 17 1 8 16
M  V30 18 1 12 17
M  V30 19 1 12 18
M  V30 20 1 12 19
M  V30 21 1 13 20
M  V30 22 1 13 21
M  V30 END BOND
M  V30 END CTAB
M  END
