
     RDKit          3D

  0  0  0  0  0  0  0  0  0  0999 V3000
M  V30 BEGIN CTAB
M  V30 COUNTS 55 59 0 0 0
M  V30 BEGIN ATOM
M  V30 1 N -5.78013 -1.67436 -2.61627 0
M  V30 2 C -4.77071 -1.16358 -1.69904 0
M  V30 3 C -5.41712 -1.04318 -0.343964 0
M  V30 4 C -4.73821 -0.566038 0.735531 0
M  V30 5 C -5.37203 -0.450265 1.97332 0
M  V30 6 C -6.67067 -0.81912 2.08729 0
M  V30 7 C -7.36389 -1.30797 0.98073 0
M  V30 8 C -6.7399 -1.42055 -0.233244 0
M  V30 9 C -3.32476 -0.183914 0.618089 0
M  V30 10 C -2.32566 -1.05061 0.261603 0
M  V30 11 C -1.01382 -0.670376 0.131116 0
M  V30 12 F -0.0728032 -1.5875 -0.227319 0
M  V30 13 C -0.634705 0.64953 0.3634 0
M  V30 14 N 0.719601 0.976831 0.212878 0
M  V30 15 C 1.35534 2.20504 0.377121 0
M  V30 16 O 0.620798 3.20895 0.702884 0
M  V30 17 C 2.79309 2.45974 0.207116 0
M  V30 18 C 3.25001 3.77925 -0.000587148 0
M  V30 19 C 4.61626 3.68753 -0.0811885 0
M  V30 20 N 4.93699 2.41416 0.0676894 0
M  V30 21 N 3.82926 1.64598 0.246727 0
M  V30 22 C 3.92262 0.24066 0.459714 0
M  V30 23 C 4.23269 -0.64712 -0.556722 0
M  V30 24 C 4.36715 -2.00697 -0.382457 0
M  V30 25 C 4.18151 -2.5231 0.887771 0
M  V30 26 O 4.36666 -3.82589 0.768507 0
M  V30 27 N 4.64835 -4.15917 -0.454553 0
M  V30 28 C 4.66246 -3.06336 -1.21847 0
M  V30 29 N 4.92942 -3.03922 -2.60424 0
M  V30 30 C 3.8698 -1.68612 1.94451 0
M  V30 31 C 3.74496 -0.334458 1.72506 0
M  V30 32 C 5.53783 4.85498 -0.299105 0
M  V30 33 F 6.26566 4.66282 -1.46269 0
M  V30 34 F 4.80614 5.9982 -0.45946 0
M  V30 35 F 6.38196 5.01063 0.794866 0
M  V30 36 C -1.62106 1.51773 0.719277 0
M  V30 37 C -2.95595 1.11861 0.848897 0
M  V30 38 H -5.77335 -2.71586 -2.64919 0
M  V30 39 H -5.60399 -1.24625 -3.56332 0
M  V30 40 H -4.38369 -0.176387 -1.98322 0
M  V30 41 H -3.98752 -1.94707 -1.67899 0
M  V30 42 H -4.76549 -0.0587872 2.79551 0
M  V30 43 H -7.18261 -0.740265 3.02887 0
M  V30 44 H -8.39523 -1.59323 1.10222 0
M  V30 45 H -7.27415 -1.79837 -1.08794 0
M  V30 46 H -2.5428 -2.09547 0.0857562 0
M  V30 47 H 1.37039 0.182978 -0.0970391 0
M  V30 48 H 2.6675 4.68113 -0.0831525 0
M  V30 49 H 4.37656 -0.250405 -1.54264 0
M  V30 50 H 4.27285 -3.37733 -3.34292 0
M  V30 51 H 5.84685 -2.66028 -2.97344 0
M  V30 52 H 3.73172 -2.13619 2.92985 0
M  V30 53 H 3.50132 0.333526 2.53836 0
M  V30 54 H -1.40841 2.54029 0.914173 0
M  V30 55 H -3.68712 1.85021 1.13233 0
M  V30 END ATOM
M  V30 BEGIN BOND
M  V30 1 1 1 2
M  V30 2 1 2 3
M  V30 3 2 3 4
M  V30 4 1 4 5
M  V30 5 2 5 6
M  V30 6 1 6 7
M  V30 7 2 7 8
M  V30 8 1 4 9
M  V30 9 2 9 10
M  V30 10 1 10 11
M  V30 11 1 11 12
M  V30 12 2 11 13
M  V30 13 1 13 14
M  V30 14 1 14 15
M  V30 15 2 15 16
M  V30 16 1 15 17
M  V30 17 2 17 18
M  V30 18 1 18 19
M  V30 19 2 19 20
M  V30 20 1 20 21
M  V30 21 1 21 22
M  V30 22 2 22 23
M  V30 23 1 23 24
M  V30 24 2 24 25
M  V30 25 1 25 26
M  V30 26 1 26 27
M  V30 27 2 27 28
M  V30 28 1 28 29
M  V30 29 1 25 30
M  V30 30 2 30 31
M  V30 31 1 19 32
M  V30 32 1 32 33
M  V30 33 1 32 34
M  V30 34 1 32 35
M  V30 35 1 13 36
M  V30 36 2 36 37
M  V30 37 1 8 3
M  V30 38 1 37 9
M  V30 39 1 21 17
M  V30 40 1 31 22
M  V30 41 1 28 24
M  V30 42 1 1 38
M  V30 43 1 1 39
M  V30 44 1 2 40
M  V30 45 1 2 41
M  V30 46 1 5 42
M  V30 47 1 6 43
M  V30 48 1 7 44
M  V30 49 1 8 45
M  V30 50 1 10 46
M  V30 51 1 14 47
M  V30 52 1 18 48
M  V30 53 1 23 49
M  V30 54 1 29 50
M  V30 55 1 29 51
M  V30 56 1 30 52
M  V30 57 1 31 53
M  V30 58 1 36 54
M  V30 59 1 37 55
M  V30 END BOND
M  V30 END CTAB
M  END
