
     RDKit          3D

  0  0  0  0  0  0  0  0  0  0999 V3000
M  V30 BEGIN CTAB
M  V30 COUNTS 46 45 0 0 0
M  V30 BEGIN ATOM
M  V30 1 O -2.09237 1.20474 0.886378 0
M  V30 2 C -2.15036 -0.0503446 0.914915 0 CFG=2
M  V30 3 C -1.10427 -0.764822 1.6987 0
M  V30 4 N 0.246266 -0.574921 1.3122 0
M  V30 5 C 0.791576 0.732973 1.54161 0
M  V30 6 C 2.26564 0.799998 1.13574 0 CFG=1
M  V30 7 C 2.35458 0.547426 -0.323671 0
M  V30 8 C 3.73743 0.586458 -0.890316 0
M  V30 9 C 4.70371 -0.392987 -0.327026 0 CFG=2
M  V30 10 C 6.00539 -0.175343 -1.02589 0
M  V30 11 O 6.52064 -1.04837 -1.73645 0
M  V30 12 O 6.64835 1.04197 -0.867528 0
M  V30 13 N 4.26518 -1.75789 -0.644968 0
M  V30 14 O 2.68946 2.1017 1.39999 0
M  V30 15 C -2.27582 -0.583156 -0.493219 0
M  V30 16 C -3.50351 -0.0556791 -1.16462 0
M  V30 17 C -4.79598 -0.405318 -0.474171 0 CFG=1
M  V30 18 C -5.9412 0.180253 -1.25891 0
M  V30 19 O -6.86531 -0.513838 -1.71107 0
M  V30 20 O -5.94804 1.55521 -1.476 0
M  V30 21 N -4.95565 -1.82558 -0.321251 0
M  V30 22 H -2.58476 1.8202 0.928526 0
M  V30 23 H -3.13232 -0.318085 1.41411 0
M  V30 24 H -1.20381 -0.60677 2.80217 0
M  V30 25 H -1.31883 -1.86863 1.5792 0
M  V30 26 H 0.831908 -1.26902 1.82456 0
M  V30 27 H 0.779208 1.00737 2.63262 0
M  V30 28 H 0.292903 1.53396 0.922957 0
M  V30 29 H 2.77648 0.0581426 1.77103 0
M  V30 30 H 1.85999 -0.436143 -0.576569 0
M  V30 31 H 1.7554 1.31794 -0.850098 0
M  V30 32 H 3.63344 0.347237 -1.98982 0
M  V30 33 H 4.14643 1.61721 -0.871997 0
M  V30 34 H 4.90181 -0.278766 0.748085 0
M  V30 35 H 6.24777 1.79517 -0.316621 0
M  V30 36 H 4.74096 -2.45269 -0.0266646 0
M  V30 37 H 4.4686 -1.97412 -1.65809 0
M  V30 38 H 2.14641 2.77163 0.928682 0
M  V30 39 H -1.39026 -0.270396 -1.10866 0
M  V30 40 H -2.34549 -1.69284 -0.503234 0
M  V30 41 H -3.43567 1.04668 -1.36851 0
M  V30 42 H -3.5667 -0.517294 -2.17913 0
M  V30 43 H -4.89452 0.0588459 0.542452 0
M  V30 44 H -6.1905 2.23294 -0.761349 0
M  V30 45 H -4.19756 -2.18546 0.298274 0
M  V30 46 H -4.91662 -2.3396 -1.21854 0
M  V30 END ATOM
M  V30 BEGIN BOND
M  V30 1 1 1 2
M  V30 2 1 2 3
M  V30 3 1 3 4
M  V30 4 1 4 5
M  V30 5 1 5 6
M  V30 6 1 6 7
M  V30 7 1 7 8
M  V30 8 1 8 9
M  V30 9 1 9 10
M  V30 10 2 10 11
M  V30 11 1 10 12
M  V30 12 1 9 13
M  V30 13 1 6 14
M  V30 14 1 2 15
M  V30 15 1 15 16
M  V30 16 1 16 17
M  V30 17 1 17 18
M  V30 18 2 18 19
M  V30 19 1 18 20
M  V30 20 1 17 21
M  V30 21 1 1 22
M  V30 22 1 2 23 CFG=1
M  V30 23 1 3 24
M  V30 24 1 3 25
M  V30 25 1 4 26
M  V30 26 1 5 27
M  V30 27 1 5 28
M  V30 28 1 6 29 CFG=1
M  V30 29 1 7 30
M  V30 30 1 7 31
M  V30 31 1 8 32
M  V30 32 1 8 33
M  V30 33 1 9 34 CFG=1
M  V30 34 1 12 35
M  V30 35 1 13 36
M  V30 36 1 13 37
M  V30 37 1 14 38
M  V30 38 1 15 39
M  V30 39 1 15 40
M  V30 40 1 16 41
M  V30 41 1 16 42
M  V30 42 1 17 43 CFG=1
M  V30 43 1 20 44
M  V30 44 1 21 45
M  V30 45 1 21 46
M  V30 END BOND
M  V30 END CTAB
M  END
