
     RDKit          3D

  0  0  0  0  0  0  0  0  0  0999 V3000
M  V30 BEGIN CTAB
M  V30 COUNTS 20 20 0 0 0
M  V30 BEGIN ATOM
M  V30 1 N -3.63333 0.578583 -0.684622 0
M  V30 2 C -2.78942 -0.51943 -0.394326 0
M  V30 3 S -3.45191 -2.00235 -0.377109 0
M  V30 4 C -1.37655 -0.336914 -0.119548 0
M  V30 5 C -0.650913 -1.31008 0.579978 0
M  V30 6 C 0.692904 -1.12539 0.835497 0
M  V30 7 C 1.37493 0.000470762 0.424976 0
M  V30 8 C 0.654584 0.96704 -0.269712 0
M  V30 9 C -0.675504 0.793857 -0.527656 0
M  V30 10 C 2.7977 0.166331 0.711048 0
M  V30 11 N 3.6741 0.410192 -0.36607 0
M  V30 12 S 3.27531 0.0571866 2.26507 0
M  V30 13 H -3.62032 1.36373 0.00582455 0
M  V30 14 H -4.24842 0.614105 -1.55031 0
M  V30 15 H -1.18476 -2.18821 0.899678 0
M  V30 16 H 1.25005 -1.8768 1.3748 0
M  V30 17 H 1.1755 1.85985 -0.600484 0
M  V30 18 H -1.26518 1.53501 -1.07012 0
M  V30 19 H 3.63967 -0.20738 -1.18594 0
M  V30 20 H 4.36157 1.2202 -0.333595 0
M  V30 END ATOM
M  V30 BEGIN BOND
M  V30 1 1 1 2
M  V30 2 2 2 3
M  V30 3 1 2 4
M  V30 4 2 4 5
M  V30 5 1 5 6
M  V30 6 2 6 7
M  V30 7 1 7 8
M  V30 8 2 8 9
M  V30 9 1 7 10
M  V30 10 1 10 11
M  V30 11 2 10 12
M  V30 12 1 9 4
M  V30 13 1 1 13
M  V30 14 1 1 14
M  V30 15 1 5 15
M  V30 16 1 6 16
M  V30 17 1 8 17
M  V30 18 1 9 18
M  V30 19 1 11 19
M  V30 20 1 11 20
M  V30 END BOND
M  V30 END CTAB
M  END
