
     RDKit          3D

  0  0  0  0  0  0  0  0  0  0999 V3000
M  V30 BEGIN CTAB
M  V30 COUNTS 37 38 0 0 0
M  V30 BEGIN ATOM
M  V30 1 N -4.45621 1.10395 0.462337 0
M  V30 2 C -3.57634 1.19453 -0.675722 0
M  V30 3 C -2.13097 1.10678 -0.338781 0
M  V30 4 N -1.70067 -0.0770214 0.29891 0
M  V30 5 C -1.74552 -1.25959 -0.508207 0
M  V30 6 C -1.21102 -2.44769 0.253221 0
M  V30 7 C 0.27371 -2.49652 0.330166 0
M  V30 8 C 0.923265 -1.54999 -0.631194 0
M  V30 9 C 0.674832 -0.107806 -0.352586 0 CFG=1
M  V30 10 C -0.319224 0.137689 0.757144 0
M  V30 11 N 1.92466 0.547581 -0.0689719 0
M  V30 12 C 2.15131 1.73327 0.523037 0
M  V30 13 C 3.49454 1.96418 0.587663 0
M  V30 14 C 4.10571 0.881304 0.0148778 0
M  V30 15 N 3.11565 0.0566867 -0.364104 0
M  V30 16 N 5.51606 0.644494 -0.160156 0
M  V30 17 H -5.43093 1.00603 0.0829146 0
M  V30 18 H -4.45232 1.91996 1.07991 0
M  V30 19 H -3.91007 0.500342 -1.46211 0
M  V30 20 H -3.74501 2.22683 -1.10625 0
M  V30 21 H -1.90524 1.96749 0.354742 0
M  V30 22 H -1.53801 1.32365 -1.25166 0
M  V30 23 H -1.25066 -1.06546 -1.4593 0
M  V30 24 H -2.83343 -1.49268 -0.68553 0
M  V30 25 H -1.59301 -3.35523 -0.259507 0
M  V30 26 H -1.6767 -2.42202 1.2549 0
M  V30 27 H 0.664885 -2.36337 1.3751 0
M  V30 28 H 0.635005 -3.5294 0.0438758 0
M  V30 29 H 0.610743 -1.87119 -1.66114 0
M  V30 30 H 2.02747 -1.78981 -0.607882 0
M  V30 31 H 0.253611 0.34602 -1.27493 0
M  V30 32 H -0.2314 1.2137 1.02933 0
M  V30 33 H -0.100166 -0.431054 1.67531 0
M  V30 34 H 1.40928 2.41003 0.894483 0
M  V30 35 H 4.01807 2.81557 0.999541 0
M  V30 36 H 6.1607 1.41069 0.120476 0
M  V30 37 H 5.84738 -0.251946 -0.547276 0
M  V30 END ATOM
M  V30 BEGIN BOND
M  V30 1 1 1 2
M  V30 2 1 2 3
M  V30 3 1 3 4
M  V30 4 1 4 5
M  V30 5 1 5 6
M  V30 6 1 6 7
M  V30 7 1 7 8
M  V30 8 1 8 9
M  V30 9 1 9 10
M  V30 10 1 9 11
M  V30 11 1 11 12
M  V30 12 2 12 13
M  V30 13 1 13 14
M  V30 14 2 14 15
M  V30 15 1 14 16
M  V30 16 1 10 4
M  V30 17 1 15 11
M  V30 18 1 1 17
M  V30 19 1 1 18
M  V30 20 1 2 19
M  V30 21 1 2 20
M  V30 22 1 3 21
M  V30 23 1 3 22
M  V30 24 1 5 23
M  V30 25 1 5 24
M  V30 26 1 6 25
M  V30 27 1 6 26
M  V30 28 1 7 27
M  V30 29 1 7 28
M  V30 30 1 8 29
M  V30 31 1 8 30
M  V30 32 1 9 31 CFG=3
M  V30 33 1 10 32
M  V30 34 1 10 33
M  V30 35 1 12 34
M  V30 36 1 13 35
M  V30 37 1 16 36
M  V30 38 1 16 37
M  V30 END BOND
M  V30 END CTAB
M  END
