
     RDKit          3D

  0  0  0  0  0  0  0  0  0  0999 V3000
M  V30 BEGIN CTAB
M  V30 COUNTS 31 31 0 0 0
M  V30 BEGIN ATOM
M  V30 1 C -3.70885 0.865305 -0.31055 0
M  V30 2 C -2.54088 -0.0329808 -0.0813993 0
M  V30 3 C -1.39751 0.215183 -1.06375 0
M  V30 4 N -0.315551 -0.698 -0.759723 0
M  V30 5 C 0.906195 -0.19683 -0.236957 0
M  V30 6 C 1.95646 -1.03467 0.117374 0
M  V30 7 C 3.14478 -0.575388 0.62258 0
M  V30 8 N 4.23047 -1.39981 0.996532 0
M  V30 9 N 3.25979 0.770127 0.767696 0
M  V30 10 C 2.26258 1.60903 0.434136 0
M  V30 11 N 1.10559 1.12143 -0.0604601 0
M  V30 12 N 2.47752 3.00126 0.620221 0
M  V30 13 C -0.530846 -2.10566 -1.00678 0
M  V30 14 C -1.99254 0.165664 1.29566 0
M  V30 15 H -3.63941 1.40126 -1.26983 0
M  V30 16 H -4.65414 0.27114 -0.228557 0
M  V30 17 H -3.78543 1.64956 0.477273 0
M  V30 18 H -2.84339 -1.10669 -0.212295 0
M  V30 19 H -1.73443 0.0436191 -2.10979 0
M  V30 20 H -1.07924 1.27893 -1.02865 0
M  V30 21 H 1.83507 -2.09375 -0.0095817 0
M  V30 22 H 4.36439 -1.64809 1.9899 0
M  V30 23 H 4.87456 -1.74218 0.265112 0
M  V30 24 H 2.30649 3.41165 1.56125 0
M  V30 25 H 2.7997 3.61327 -0.159296 0
M  V30 26 H -0.737511 -2.67224 -0.0787355 0
M  V30 27 H -1.35954 -2.24284 -1.74406 0
M  V30 28 H 0.387858 -2.51961 -1.51303 0
M  V30 29 H -1.1439 -0.519135 1.50964 0
M  V30 30 H -1.66993 1.21771 1.39552 0
M  V30 31 H -2.77836 -0.0472681 2.04951 0
M  V30 END ATOM
M  V30 BEGIN BOND
M  V30 1 1 1 2
M  V30 2 1 2 3
M  V30 3 1 3 4
M  V30 4 1 4 5
M  V30 5 2 5 6
M  V30 6 1 6 7
M  V30 7 1 7 8
M  V30 8 2 7 9
M  V30 9 1 9 10
M  V30 10 2 10 11
M  V30 11 1 10 12
M  V30 12 1 4 13
M  V30 13 1 2 14
M  V30 14 1 11 5
M  V30 15 1 1 15
M  V30 16 1 1 16
M  V30 17 1 1 17
M  V30 18 1 2 18
M  V30 19 1 3 19
M  V30 20 1 3 20
M  V30 21 1 6 21
M  V30 22 1 8 22
M  V30 23 1 8 23
M  V30 24 1 12 24
M  V30 25 1 12 25
M  V30 26 1 13 26
M  V30 27 1 13 27
M  V30 28 1 13 28
M  V30 29 1 14 29
M  V30 30 1 14 30
M  V30 31 1 14 31
M  V30 END BOND
M  V30 END CTAB
M  END
