
     RDKit          3D

  0  0  0  0  0  0  0  0  0  0999 V3000
M  V30 BEGIN CTAB
M  V30 COUNTS 58 61 0 0 0
M  V30 BEGIN ATOM
M  V30 1 N 6.59038 1.45938 -1.27948 0
M  V30 2 N 5.755 1.67943 -0.179166 0
M  V30 3 C 4.53445 1.2922 -0.137245 0
M  V30 4 C 3.94005 0.577069 -1.28002 0
M  V30 5 C 3.14333 -0.601845 -0.840676 0
M  V30 6 C 2.41414 -0.464911 0.442832 0 CFG=1
M  V30 7 C 2.69423 0.697508 1.26358 0
M  V30 8 C 3.66971 1.52794 1.01825 0
M  V30 9 C 1.82518 0.926693 2.4155 0
M  V30 10 C 0.613145 0.361812 2.4586 0
M  V30 11 C 0.0903631 -0.506486 1.37254 0
M  V30 12 C 0.903252 -0.519045 0.131974 0
M  V30 13 C 0.540118 0.495712 -0.881743 0
M  V30 14 C -0.889885 0.97847 -0.861149 0
M  V30 15 C -1.75188 -0.0760702 -0.313688 0 CFG=1
M  V30 16 C -1.34132 -0.164239 1.15027 0
M  V30 17 C -2.34278 -1.01776 1.76251 0
M  V30 18 C -3.56499 -0.88601 0.846901 0
M  V30 19 C -3.21614 0.273642 -0.0937491 0 CFG=1
M  V30 20 O -3.2472 1.42216 0.701426 0
M  V30 21 C -4.03164 0.363916 -1.28006 0
M  V30 22 N -5.10907 -0.284331 -1.43188 0
M  V30 23 N -5.7573 -1.15874 -0.625954 0
M  V30 24 C -3.65996 1.28202 -2.40255 0
M  V30 25 C -1.74223 -1.38186 -1.0301 0
M  V30 26 C 2.68178 -1.69565 1.33419 0
M  V30 27 H 6.76458 0.517323 -1.68195 0
M  V30 28 H 7.05979 2.27203 -1.71696 0
M  V30 29 H 3.31245 1.24941 -1.92647 0
M  V30 30 H 4.76099 0.220327 -1.95487 0
M  V30 31 H 2.48215 -0.917696 -1.68488 0
M  V30 32 H 3.87143 -1.46178 -0.745519 0
M  V30 33 H 3.87408 2.40247 1.64485 0
M  V30 34 H 2.16722 1.55762 3.23606 0
M  V30 35 H 0.0320723 0.577862 3.33915 0
M  V30 36 H 0.108117 -1.55119 1.80476 0
M  V30 37 H 0.813929 -1.54922 -0.33144 0
M  V30 38 H 0.707033 0.058365 -1.907 0
M  V30 39 H 1.21147 1.38174 -0.767053 0
M  V30 40 H -0.904238 1.83939 -0.136806 0
M  V30 41 H -1.09718 1.39839 -1.83362 0
M  V30 42 H -1.50625 0.893138 1.52933 0
M  V30 43 H -2.57625 -0.627167 2.79754 0
M  V30 44 H -2.05888 -2.07513 1.93849 0
M  V30 45 H -3.59301 -1.86181 0.32324 0
M  V30 46 H -4.4125 -0.668563 1.50823 0
M  V30 47 H -3.97065 1.34523 1.38721 0
M  V30 48 H -6.37089 -0.940162 0.187753 0
M  V30 49 H -5.65209 -2.19958 -0.821352 0
M  V30 50 H -3.30419 2.26096 -2.01725 0
M  V30 51 H -4.57641 1.56543 -3.00415 0
M  V30 52 H -2.99755 0.807444 -3.14359 0
M  V30 53 H -1.00726 -1.30031 -1.8766 0
M  V30 54 H -2.72641 -1.60663 -1.53718 0
M  V30 55 H -1.5044 -2.25336 -0.426487 0
M  V30 56 H 2.00144 -2.48851 1.01314 0
M  V30 57 H 3.74417 -2.00166 1.17126 0
M  V30 58 H 2.6065 -1.42536 2.40262 0
M  V30 END ATOM
M  V30 BEGIN BOND
M  V30 1 1 1 2
M  V30 2 2 2 3
M  V30 3 1 3 4
M  V30 4 1 4 5
M  V30 5 1 5 6
M  V30 6 1 6 7
M  V30 7 2 7 8
M  V30 8 1 7 9
M  V30 9 2 9 10
M  V30 10 1 10 11
M  V30 11 1 11 12
M  V30 12 1 12 13
M  V30 13 1 13 14
M  V30 14 1 14 15
M  V30 15 1 15 16
M  V30 16 1 16 17
M  V30 17 1 17 18
M  V30 18 1 18 19
M  V30 19 1 19 20 CFG=1
M  V30 20 1 19 21
M  V30 21 2 21 22
M  V30 22 1 22 23
M  V30 23 1 21 24
M  V30 24 1 15 25 CFG=3
M  V30 25 1 6 26 CFG=1
M  V30 26 1 3 8
M  V30 27 1 16 11
M  V30 28 1 12 6
M  V30 29 1 19 15
M  V30 30 1 1 27
M  V30 31 1 1 28
M  V30 32 1 4 29
M  V30 33 1 4 30
M  V30 34 1 5 31
M  V30 35 1 5 32
M  V30 36 1 8 33
M  V30 37 1 9 34
M  V30 38 1 10 35
M  V30 39 1 11 36
M  V30 40 1 12 37
M  V30 41 1 13 38
M  V30 42 1 13 39
M  V30 43 1 14 40
M  V30 44 1 14 41
M  V30 45 1 16 42
M  V30 46 1 17 43
M  V30 47 1 17 44
M  V30 48 1 18 45
M  V30 49 1 18 46
M  V30 50 1 20 47
M  V30 51 1 23 48
M  V30 52 1 23 49
M  V30 53 1 24 50
M  V30 54 1 24 51
M  V30 55 1 24 52
M  V30 56 1 25 53
M  V30 57 1 25 54
M  V30 58 1 25 55
M  V30 59 1 26 56
M  V30 60 1 26 57
M  V30 61 1 26 58
M  V30 END BOND
M  V30 END CTAB
M  END
