
     RDKit          3D

  0  0  0  0  0  0  0  0  0  0999 V3000
M  V30 BEGIN CTAB
M  V30 COUNTS 22 22 0 0 0
M  V30 BEGIN ATOM
M  V30 1 N 5.35226 -0.00205732 -0.146578 0
M  V30 2 C 4.00871 -0.382384 0.0625561 0
M  V30 3 S 3.67271 -1.48858 1.20845 0
M  V30 4 N 2.98346 0.199106 -0.720717 0
M  V30 5 N 1.64995 -0.197225 -0.492762 0
M  V30 6 C 0.746395 0.70433 -0.379246 0
M  V30 7 C -0.647003 0.297097 -0.141295 0
M  V30 8 N -0.994314 -0.997453 -0.0402436 0
M  V30 9 C -2.2739 -1.35117 0.177554 0
M  V30 10 C -3.30305 -0.437035 0.310783 0
M  V30 11 N -4.64209 -0.861726 0.540617 0
M  V30 12 C -2.96522 0.900898 0.209735 0
M  V30 13 C -1.64695 1.23788 -0.013684 0
M  V30 14 H 5.57352 0.866911 -0.666493 0
M  V30 15 H 6.16776 -0.555923 0.198934 0
M  V30 16 H 3.22807 0.904875 -1.44727 0
M  V30 17 H 1.00905 1.72755 -0.457212 0
M  V30 18 H -2.5587 -2.40519 0.260155 0
M  V30 19 H -5.44957 -0.628134 -0.0546907 0
M  V30 20 H -4.81497 -1.45694 1.38016 0
M  V30 21 H -3.74201 1.64438 0.308425 0
M  V30 22 H -1.35412 2.28079 -0.0971789 0
M  V30 END ATOM
M  V30 BEGIN BOND
M  V30 1 1 1 2
M  V30 2 2 2 3
M  V30 3 1 2 4
M  V30 4 1 4 5
M  V30 5 2 5 6
M  V30 6 1 6 7
M  V30 7 2 7 8
M  V30 8 1 8 9
M  V30 9 2 9 10
M  V30 10 1 10 11
M  V30 11 1 10 12
M  V30 12 2 12 13
M  V30 13 1 13 7
M  V30 14 1 1 14
M  V30 15 1 1 15
M  V30 16 1 4 16
M  V30 17 1 6 17
M  V30 18 1 9 18
M  V30 19 1 11 19
M  V30 20 1 11 20
M  V30 21 1 12 21
M  V30 22 1 13 22
M  V30 END BOND
M  V30 END CTAB
M  END
