
     RDKit          3D

  0  0  0  0  0  0  0  0  0  0999 V3000
M  V30 BEGIN CTAB
M  V30 COUNTS 30 29 0 0 0
M  V30 BEGIN ATOM
M  V30 1 N -3.12429 -1.52515 0.212682 0
M  V30 2 C -2.24258 -0.434641 -0.210609 0 CFG=2
M  V30 3 C -1.63989 0.113498 1.06056 0
M  V30 4 C -0.686837 1.23971 0.870494 0
M  V30 5 C 0.497222 0.871139 0.00732795 0
M  V30 6 C 1.23417 -0.230364 0.638609 0
M  V30 7 C 2.45485 -0.722528 -0.071772 0 CFG=1
M  V30 8 N 2.06935 -1.1988 -1.38588 0
M  V30 9 C 3.59508 0.171617 -0.0837745 0
M  V30 10 O 4.05172 0.689665 1.12468 0
M  V30 11 O 4.24721 0.551364 -1.08922 0
M  V30 12 C -3.1061 0.596463 -0.822724 0
M  V30 13 O -2.53852 1.71895 -1.38035 0
M  V30 14 O -4.33733 0.460105 -0.839809 0
M  V30 15 H -3.84433 -1.65681 -0.489055 0
M  V30 16 H -2.56579 -2.35797 0.460127 0
M  V30 17 H -1.47301 -0.81637 -0.894812 0
M  V30 18 H -2.44821 0.479705 1.74107 0
M  V30 19 H -1.15695 -0.717752 1.59518 0
M  V30 20 H -1.15384 2.1966 0.556063 0
M  V30 21 H -0.274606 1.46479 1.90765 0
M  V30 22 H 0.0806069 0.583536 -0.998861 0
M  V30 23 H 1.05648 1.79951 -0.174786 0
M  V30 24 H 1.48766 -0.059406 1.70038 0
M  V30 25 H 0.548926 -1.13252 0.641285 0
M  V30 26 H 2.76117 -1.6481 0.500671 0
M  V30 27 H 2.85973 -1.08511 -2.07969 0
M  V30 28 H 1.85568 -2.24022 -1.38113 0
M  V30 29 H 4.86437 0.31226 1.61611 0
M  V30 30 H -3.07195 2.57685 -1.42063 0
M  V30 END ATOM
M  V30 BEGIN BOND
M  V30 1 1 1 2
M  V30 2 1 2 3
M  V30 3 1 3 4
M  V30 4 1 4 5
M  V30 5 1 5 6
M  V30 6 1 6 7
M  V30 7 1 7 8
M  V30 8 1 7 9
M  V30 9 1 9 10
M  V30 10 2 9 11
M  V30 11 1 2 12
M  V30 12 1 12 13
M  V30 13 2 12 14
M  V30 14 1 1 15
M  V30 15 1 1 16
M  V30 16 1 2 17 CFG=3
M  V30 17 1 3 18
M  V30 18 1 3 19
M  V30 19 1 4 20
M  V30 20 1 4 21
M  V30 21 1 5 22
M  V30 22 1 5 23
M  V30 23 1 6 24
M  V30 24 1 6 25
M  V30 25 1 7 26 CFG=1
M  V30 26 1 8 27
M  V30 27 1 8 28
M  V30 28 1 10 29
M  V30 29 1 13 30
M  V30 END BOND
M  V30 END CTAB
M  END
