
     RDKit          3D

  0  0  0  0  0  0  0  0  0  0999 V3000
M  V30 BEGIN CTAB
M  V30 COUNTS 45 46 0 0 0
M  V30 BEGIN ATOM
M  V30 1 O 2.37492 1.89179 -0.432418 0
M  V30 2 C 1.5409 1.00089 -0.176186 0
M  V30 3 O 1.72884 -0.264266 -0.668379 0
M  V30 4 C 2.81248 -0.685717 -1.46478 0
M  V30 5 C 4.06044 -0.493974 -0.677545 0
M  V30 6 N 5.27931 -0.511206 -1.28041 0
M  V30 7 C 6.42999 -0.350878 -0.603982 0
M  V30 8 N 7.69245 -0.369833 -1.23628 0
M  V30 9 N 6.35574 -0.163427 0.747477 0
M  V30 10 C 5.17703 -0.138282 1.3903 0
M  V30 11 N 4.06467 -0.303714 0.66273 0
M  V30 12 N 5.12229 0.0581948 2.79771 0
M  V30 13 C 0.367339 1.31048 0.647636 0
M  V30 14 C -0.456588 0.0296784 0.782028 0
M  V30 15 C -1.68371 0.249952 1.61234 0
M  V30 16 C -2.45436 -1.03048 1.70925 0
M  V30 17 C -2.98065 -1.55656 0.401011 0
M  V30 18 C -3.94513 -0.626004 -0.239262 0
M  V30 19 C -5.30337 -0.721206 0.0986959 0
M  V30 20 C -6.25932 0.0988219 -0.457853 0
M  V30 21 C -5.91679 1.05986 -1.38227 0
M  V30 22 C -4.58742 1.16646 -1.72521 0
M  V30 23 C -3.61355 0.332459 -1.15961 0
M  V30 24 O -6.89208 1.88632 -1.94083 0
M  V30 25 H 2.66527 -1.78493 -1.63589 0
M  V30 26 H 2.85389 -0.153296 -2.43647 0
M  V30 27 H 8.52084 -0.68217 -0.711498 0
M  V30 28 H 7.78548 -0.0731884 -2.21675 0
M  V30 29 H 5.97063 0.315891 3.31648 0
M  V30 30 H 4.22026 -0.0586862 3.30845 0
M  V30 31 H 0.75212 1.56314 1.67946 0
M  V30 32 H -0.247639 2.13286 0.26277 0
M  V30 33 H 0.152537 -0.770519 1.26168 0
M  V30 34 H -0.741866 -0.36761 -0.202021 0
M  V30 35 H -1.39763 0.507204 2.67636 0
M  V30 36 H -2.30292 1.09407 1.2306 0
M  V30 37 H -3.32914 -0.905465 2.39134 0
M  V30 38 H -1.74057 -1.79202 2.12808 0
M  V30 39 H -2.1436 -1.79913 -0.283294 0
M  V30 40 H -3.54746 -2.51881 0.591805 0
M  V30 41 H -5.56046 -1.49051 0.835513 0
M  V30 42 H -7.28765 -0.0275541 -0.153356 0
M  V30 43 H -4.31561 1.91865 -2.44943 0
M  V30 44 H -2.5879 0.447015 -1.4592 0
M  V30 45 H -6.63201 2.5757 -2.60661 0
M  V30 END ATOM
M  V30 BEGIN BOND
M  V30 1 2 1 2
M  V30 2 1 2 3
M  V30 3 1 3 4
M  V30 4 1 4 5
M  V30 5 2 5 6
M  V30 6 1 6 7
M  V30 7 1 7 8
M  V30 8 2 7 9
M  V30 9 1 9 10
M  V30 10 2 10 11
M  V30 11 1 10 12
M  V30 12 1 2 13
M  V30 13 1 13 14
M  V30 14 1 14 15
M  V30 15 1 15 16
M  V30 16 1 16 17
M  V30 17 1 17 18
M  V30 18 2 18 19
M  V30 19 1 19 20
M  V30 20 2 20 21
M  V30 21 1 21 22
M  V30 22 2 22 23
M  V30 23 1 21 24
M  V30 24 1 11 5
M  V30 25 1 23 18
M  V30 26 1 4 25
M  V30 27 1 4 26
M  V30 28 1 8 27
M  V30 29 1 8 28
M  V30 30 1 12 29
M  V30 31 1 12 30
M  V30 32 1 13 31
M  V30 33 1 13 32
M  V30 34 1 14 33
M  V30 35 1 14 34
M  V30 36 1 15 35
M  V30 37 1 15 36
M  V30 38 1 16 37
M  V30 39 1 16 38
M  V30 40 1 17 39
M  V30 41 1 17 40
M  V30 42 1 19 41
M  V30 43 1 20 42
M  V30 44 1 22 43
M  V30 45 1 23 44
M  V30 46 1 24 45
M  V30 END BOND
M  V30 END CTAB
M  END
