
     RDKit          3D

  0  0  0  0  0  0  0  0  0  0999 V3000
M  V30 BEGIN CTAB
M  V30 COUNTS 21 20 0 0 0
M  V30 BEGIN ATOM
M  V30 1 N -3.51601 -0.929506 0.43837 0
M  V30 2 N -2.50983 0.00237011 0.191758 0
M  V30 3 C -1.28386 -0.353747 -0.0388647 0
M  V30 4 C -0.21459 0.57957 -0.298273 0
M  V30 5 N -0.499875 1.86141 -0.311825 0
M  V30 6 N -1.75193 2.39602 -0.0960498 0
M  V30 7 C 1.18507 0.175564 -0.53331 0
M  V30 8 F 1.13792 -0.799307 -1.52756 0
M  V30 9 F 1.91319 1.26517 -0.971516 0
M  V30 10 C 1.78047 -0.451237 0.692735 0
M  V30 11 F 1.75705 0.449025 1.76913 0
M  V30 12 F 1.04688 -1.54917 1.05198 0
M  V30 13 C 3.23057 -0.861661 0.452131 0
M  V30 14 F 4.00422 0.232437 0.117295 0
M  V30 15 F 3.3106 -1.83652 -0.504504 0
M  V30 16 F 3.7574 -1.37563 1.62149 0
M  V30 17 H -3.74268 -1.19644 1.41933 0
M  V30 18 H -4.06348 -1.38134 -0.323614 0
M  V30 19 H -1.08252 -1.42444 -0.0419788 0
M  V30 20 H -2.10629 2.46338 0.900763 0
M  V30 21 H -2.35231 2.73406 -0.903138 0
M  V30 END ATOM
M  V30 BEGIN BOND
M  V30 1 1 1 2
M  V30 2 2 2 3 CFG=2
M  V30 3 1 3 4
M  V30 4 2 4 5 CFG=2
M  V30 5 1 5 6
M  V30 6 1 4 7
M  V30 7 1 7 8
M  V30 8 1 7 9
M  V30 9 1 7 10
M  V30 10 1 10 11
M  V30 11 1 10 12
M  V30 12 1 10 13
M  V30 13 1 13 14
M  V30 14 1 13 15
M  V30 15 1 13 16
M  V30 16 1 1 17
M  V30 17 1 1 18
M  V30 18 1 3 19
M  V30 19 1 6 20
M  V30 20 1 6 21
M  V30 END BOND
M  V30 END CTAB
M  END
