
     RDKit          3D

  0  0  0  0  0  0  0  0  0  0999 V3000
M  V30 BEGIN CTAB
M  V30 COUNTS 46 48 0 0 0
M  V30 BEGIN ATOM
M  V30 1 N -4.05433 2.52997 2.13583 0
M  V30 2 C -4.27017 1.09866 2.20427 0
M  V30 3 C -4.42405 0.492016 0.819585 0
M  V30 4 C -3.52677 -0.638827 1.27335 0
M  V30 5 C -3.00808 0.274291 2.35497 0
M  V30 6 C -2.55589 -1.11312 0.297733 0
M  V30 7 C -1.73051 -0.238629 -0.369852 0
M  V30 8 C -0.796457 -0.704292 -1.30962 0
M  V30 9 N 0.0178925 0.236375 -1.97296 0
M  V30 10 C 0.999437 -0.202134 -2.92638 0
M  V30 11 C 2.05435 -1.01379 -2.25855 0
M  V30 12 C 2.72215 -0.195601 -1.22365 0
M  V30 13 N 2.35326 1.05956 -1.01854 0
M  V30 14 C 2.96711 1.79127 -0.0765169 0
M  V30 15 C 2.55564 3.21899 0.164876 0
M  V30 16 C 3.97705 1.20936 0.66077 0
M  V30 17 C 4.34787 -0.10094 0.432479 0
M  V30 18 N 3.70903 -0.797352 -0.518272 0
M  V30 19 C 5.45031 -0.740404 1.23536 0
M  V30 20 N -0.778357 -2.02771 -1.49427 0
M  V30 21 C -1.56645 -2.91109 -0.862963 0
M  V30 22 N -2.45177 -2.42437 0.0335057 0
M  V30 23 N -1.46951 -4.31349 -1.13193 0
M  V30 24 H -3.02761 2.70613 2.09259 0
M  V30 25 H -4.55012 2.94048 1.29035 0
M  V30 26 H -5.02768 0.760176 2.93141 0
M  V30 27 H -5.47847 0.147806 0.674107 0
M  V30 28 H -4.0134 1.11428 0.00498301 0
M  V30 29 H -4.1213 -1.4546 1.73005 0
M  V30 30 H -2.13291 0.893841 2.0871 0
M  V30 31 H -2.85814 -0.193043 3.34062 0
M  V30 32 H -1.83416 0.81264 -0.138997 0
M  V30 33 H -0.110992 1.25299 -1.75678 0
M  V30 34 H 1.43144 0.638875 -3.51261 0
M  V30 35 H 0.493697 -0.847625 -3.70375 0
M  V30 36 H 1.73616 -1.93797 -1.78028 0
M  V30 37 H 2.81255 -1.32724 -3.04419 0
M  V30 38 H 3.06981 3.60028 1.0578 0
M  V30 39 H 2.854 3.76955 -0.75199 0
M  V30 40 H 1.45668 3.23648 0.236487 0
M  V30 41 H 4.48011 1.78277 1.42082 0
M  V30 42 H 6.07721 0.0805497 1.65794 0
M  V30 43 H 6.07334 -1.39201 0.587026 0
M  V30 44 H 5.00961 -1.38349 2.03275 0
M  V30 45 H -1.67128 -5.0316 -0.405256 0
M  V30 46 H -1.19033 -4.65801 -2.07598 0
M  V30 END ATOM
M  V30 BEGIN BOND
M  V30 1 1 1 2
M  V30 2 1 2 3
M  V30 3 1 3 4
M  V30 4 1 4 5
M  V30 5 1 4 6
M  V30 6 2 6 7
M  V30 7 1 7 8
M  V30 8 1 8 9
M  V30 9 1 9 10
M  V30 10 1 10 11
M  V30 11 1 11 12
M  V30 12 2 12 13
M  V30 13 1 13 14
M  V30 14 1 14 15
M  V30 15 2 14 16
M  V30 16 1 16 17
M  V30 17 2 17 18
M  V30 18 1 17 19
M  V30 19 2 8 20
M  V30 20 1 20 21
M  V30 21 2 21 22
M  V30 22 1 21 23
M  V30 23 1 5 2
M  V30 24 1 22 6
M  V30 25 1 18 12
M  V30 26 1 1 24
M  V30 27 1 1 25
M  V30 28 1 2 26
M  V30 29 1 3 27
M  V30 30 1 3 28
M  V30 31 1 4 29
M  V30 32 1 5 30
M  V30 33 1 5 31
M  V30 34 1 7 32
M  V30 35 1 9 33
M  V30 36 1 10 34
M  V30 37 1 10 35
M  V30 38 1 11 36
M  V30 39 1 11 37
M  V30 40 1 15 38
M  V30 41 1 15 39
M  V30 42 1 15 40
M  V30 43 1 16 41
M  V30 44 1 19 42
M  V30 45 1 19 43
M  V30 46 1 19 44
M  V30 47 1 23 45
M  V30 48 1 23 46
M  V30 END BOND
M  V30 END CTAB
M  END
