
     RDKit          3D

  0  0  0  0  0  0  0  0  0  0999 V3000
M  V30 BEGIN CTAB
M  V30 COUNTS 36 37 0 0 0
M  V30 BEGIN ATOM
M  V30 1 N 6.19952 -1.93157 -0.305727 0
M  V30 2 C 4.98188 -1.21139 -0.460387 0
M  V30 3 C 5.0254 0.156032 -0.299241 0
M  V30 4 C 3.86567 0.900708 -0.439994 0
M  V30 5 C 2.6613 0.308657 -0.738683 0
M  V30 6 C 2.63729 -1.05002 -0.895059 0
M  V30 7 C 3.79504 -1.81596 -0.757075 0
M  V30 8 C 1.48691 1.11635 -0.874352 0
M  V30 9 O 1.54958 2.35926 -0.68517 0
M  V30 10 N 0.176011 0.604245 -1.2259 0
M  V30 11 N -0.844906 1.47926 -1.31902 0
M  V30 12 C -1.92507 1.48425 -0.715487 0
M  V30 13 C -2.3339 0.51298 0.262109 0
M  V30 14 C -1.55381 -0.415825 0.880001 0
M  V30 15 C -2.15782 -1.33658 1.7497 0
M  V30 16 C -3.50832 -1.33359 2.00132 0
M  V30 17 C -4.31447 -0.400641 1.38706 0
M  V30 18 C -3.7153 0.484423 0.546829 0
M  V30 19 N -5.70918 -0.404294 1.64888 0
M  V30 20 C -2.89809 2.64274 -1.02551 0
M  V30 21 H 6.40414 -2.75512 -0.910591 0
M  V30 22 H 6.90271 -1.65582 0.404667 0
M  V30 23 H 5.97644 0.64216 -0.061299 0
M  V30 24 H 3.895 1.98235 -0.313503 0
M  V30 25 H 1.70002 -1.56841 -1.13331 0
M  V30 26 H 3.77213 -2.8851 -0.880931 0
M  V30 27 H 0.093759 -0.437341 -1.4159 0
M  V30 28 H -0.486435 -0.480342 0.775256 0
M  V30 29 H -1.52616 -2.06599 2.22975 0
M  V30 30 H -3.95855 -2.05691 2.67985 0
M  V30 31 H -4.38916 1.21075 0.0751306 0
M  V30 32 H -6.18659 0.485939 1.9161 0
M  V30 33 H -6.31412 -1.25339 1.59359 0
M  V30 34 H -3.67132 2.28556 -1.71858 0
M  V30 35 H -2.33998 3.47772 -1.44285 0
M  V30 36 H -3.28963 2.92489 -0.0303878 0
M  V30 END ATOM
M  V30 BEGIN BOND
M  V30 1 1 1 2
M  V30 2 2 2 3
M  V30 3 1 3 4
M  V30 4 2 4 5
M  V30 5 1 5 6
M  V30 6 2 6 7
M  V30 7 1 5 8
M  V30 8 2 8 9
M  V30 9 1 8 10
M  V30 10 1 10 11
M  V30 11 2 11 12
M  V30 12 1 12 13
M  V30 13 2 13 14
M  V30 14 1 14 15
M  V30 15 2 15 16
M  V30 16 1 16 17
M  V30 17 2 17 18
M  V30 18 1 17 19
M  V30 19 1 12 20
M  V30 20 1 7 2
M  V30 21 1 18 13
M  V30 22 1 1 21
M  V30 23 1 1 22
M  V30 24 1 3 23
M  V30 25 1 4 24
M  V30 26 1 6 25
M  V30 27 1 7 26
M  V30 28 1 10 27
M  V30 29 1 14 28
M  V30 30 1 15 29
M  V30 31 1 16 30
M  V30 32 1 18 31
M  V30 33 1 19 32
M  V30 34 1 19 33
M  V30 35 1 20 34
M  V30 36 1 20 35
M  V30 37 1 20 36
M  V30 END BOND
M  V30 END CTAB
M  END
