
     RDKit          3D

  0  0  0  0  0  0  0  0  0  0999 V3000
M  V30 BEGIN CTAB
M  V30 COUNTS 32 33 0 0 0
M  V30 BEGIN ATOM
M  V30 1 O 2.18015 -2.30136 1.41434 0
M  V30 2 C 1.52598 -1.43216 0.816885 0
M  V30 3 N 1.97965 -0.196557 0.321626 0
M  V30 4 C 3.27628 0.288139 0.400645 0
M  V30 5 C 4.32515 -0.447942 0.869716 0
M  V30 6 C 5.61742 0.0419308 0.916663 0
M  V30 7 C 5.84615 1.31547 0.474138 0
M  V30 8 C 4.81275 2.09878 -0.0109916 0
M  V30 9 C 3.54359 1.58867 -0.0458862 0
M  V30 10 Br 2.08588 2.62415 -0.693769 0
M  V30 11 C 0.0627159 -1.78546 0.619829 0
M  V30 12 S -0.993924 -0.801253 1.73337 0
M  V30 13 C -2.5452 -0.438599 0.872422 0
M  V30 14 N -2.742 -0.912773 -0.374298 0
M  V30 15 C -3.86888 -0.661731 -1.05932 0
M  V30 16 N -3.9794 -1.20848 -2.35689 0
M  V30 17 C -4.83392 0.105228 -0.447353 0
M  V30 18 C -4.65894 0.60212 0.825596 0
M  V30 19 N -3.50505 0.307304 1.44752 0
M  V30 20 N -5.69494 1.38481 1.39359 0
M  V30 21 H 1.26665 0.447498 -0.169383 0
M  V30 22 H 4.23795 -1.47887 1.23997 0
M  V30 23 H 6.43555 -0.591263 1.30417 0
M  V30 24 H 6.86138 1.70671 0.505374 0
M  V30 25 H 4.96678 3.10365 -0.365874 0
M  V30 26 H -0.133222 -2.84638 0.711134 0
M  V30 27 H -0.192092 -1.46973 -0.41664 0
M  V30 28 H -4.24882 -0.589608 -3.13733 0
M  V30 29 H -3.79388 -2.21049 -2.51955 0
M  V30 30 H -5.73889 0.305854 -0.999771 0
M  V30 31 H -6.49206 1.02213 1.92403 0
M  V30 32 H -5.6028 2.4302 1.23435 0
M  V30 END ATOM
M  V30 BEGIN BOND
M  V30 1 2 1 2
M  V30 2 1 2 3
M  V30 3 1 3 4
M  V30 4 2 4 5
M  V30 5 1 5 6
M  V30 6 2 6 7
M  V30 7 1 7 8
M  V30 8 2 8 9
M  V30 9 1 9 10
M  V30 10 1 2 11
M  V30 11 1 11 12
M  V30 12 1 12 13
M  V30 13 2 13 14
M  V30 14 1 14 15
M  V30 15 1 15 16
M  V30 16 2 15 17
M  V30 17 1 17 18
M  V30 18 2 18 19
M  V30 19 1 18 20
M  V30 20 1 9 4
M  V30 21 1 19 13
M  V30 22 1 3 21
M  V30 23 1 5 22
M  V30 24 1 6 23
M  V30 25 1 7 24
M  V30 26 1 8 25
M  V30 27 1 11 26
M  V30 28 1 11 27
M  V30 29 1 16 28
M  V30 30 1 16 29
M  V30 31 1 17 30
M  V30 32 1 20 31
M  V30 33 1 20 32
M  V30 END BOND
M  V30 END CTAB
M  END
