
     RDKit          3D

  0  0  0  0  0  0  0  0  0  0999 V3000
M  V30 BEGIN CTAB
M  V30 COUNTS 39 40 0 0 0
M  V30 BEGIN ATOM
M  V30 1 N -5.85033 -0.109792 0.222506 0
M  V30 2 C -4.73572 0.792809 0.414333 0
M  V30 3 C -4.14562 1.17998 -0.923169 0
M  V30 4 C -2.67707 0.831072 -0.836345 0
M  V30 5 C -2.68454 -0.380978 0.0539597 0
M  V30 6 C -3.64689 -0.000989911 1.13764 0
M  V30 7 C -1.3511 -0.758903 0.531255 0
M  V30 8 O -0.875668 -1.9157 0.264846 0
M  V30 9 N -0.520987 0.0952117 1.29395 0
M  V30 10 C 0.792594 -0.272358 1.76561 0
M  V30 11 C 1.81638 -0.231648 0.704663 0
M  V30 12 C 1.51924 0.196549 -0.567455 0
M  V30 13 C 2.48706 0.231941 -1.56449 0
M  V30 14 C 3.77399 -0.1708 -1.27392 0
M  V30 15 C 4.0882 -0.602881 -0.00337539 0
M  V30 16 C 3.10149 -0.630447 0.982981 0
M  V30 17 S 5.73334 -1.10037 0.300638 0
M  V30 18 O 6.32682 -1.61585 -0.98426 0
M  V30 19 O 5.79106 -2.16526 1.36851 0
M  V30 20 N 6.64307 0.296872 0.817766 0
M  V30 21 H -6.2378 -0.0930874 -0.730046 0
M  V30 22 H -6.53827 -0.10501 0.989554 0
M  V30 23 H -4.97207 1.66808 1.02388 0
M  V30 24 H -4.22503 2.27163 -1.10935 0
M  V30 25 H -4.62545 0.583232 -1.73024 0
M  V30 26 H -2.15339 1.70009 -0.364539 0
M  V30 27 H -2.25585 0.589888 -1.84412 0
M  V30 28 H -3.11831 -1.2121 -0.538007 0
M  V30 29 H -4.0595 -0.956594 1.55834 0
M  V30 30 H -3.16706 0.610175 1.92602 0
M  V30 31 H -0.881893 1.04362 1.526 0
M  V30 32 H 0.708747 -1.292 2.22571 0
M  V30 33 H 1.0862 0.391686 2.60852 0
M  V30 34 H 0.529602 0.526181 -0.858291 0
M  V30 35 H 2.21475 0.578984 -2.56469 0
M  V30 36 H 4.53973 -0.14262 -2.0624 0
M  V30 37 H 3.42675 -0.979741 1.9498 0
M  V30 38 H 6.47063 1.05968 0.125945 0
M  V30 39 H 7.67291 0.0894501 0.765445 0
M  V30 END ATOM
M  V30 BEGIN BOND
M  V30 1 1 1 2
M  V30 2 1 2 3
M  V30 3 1 3 4
M  V30 4 1 4 5
M  V30 5 1 5 6
M  V30 6 1 5 7
M  V30 7 2 7 8
M  V30 8 1 7 9
M  V30 9 1 9 10
M  V30 10 1 10 11
M  V30 11 2 11 12
M  V30 12 1 12 13
M  V30 13 2 13 14
M  V30 14 1 14 15
M  V30 15 2 15 16
M  V30 16 1 15 17
M  V30 17 2 17 18
M  V30 18 2 17 19
M  V30 19 1 17 20
M  V30 20 1 6 2
M  V30 21 1 16 11
M  V30 22 1 1 21
M  V30 23 1 1 22
M  V30 24 1 2 23
M  V30 25 1 3 24
M  V30 26 1 3 25
M  V30 27 1 4 26
M  V30 28 1 4 27
M  V30 29 1 5 28
M  V30 30 1 6 29
M  V30 31 1 6 30
M  V30 32 1 9 31
M  V30 33 1 10 32
M  V30 34 1 10 33
M  V30 35 1 12 34
M  V30 36 1 13 35
M  V30 37 1 14 36
M  V30 38 1 16 37
M  V30 39 1 20 38
M  V30 40 1 20 39
M  V30 END BOND
M  V30 END CTAB
M  END
