
     RDKit          3D

  0  0  0  0  0  0  0  0  0  0999 V3000
M  V30 BEGIN CTAB
M  V30 COUNTS 29 30 0 0 0
M  V30 BEGIN ATOM
M  V30 1 N -4.36296 0.427082 1.36549 0
M  V30 2 C -3.24564 0.556363 0.479477 0
M  V30 3 C -3.27769 0.000194022 -0.784763 0
M  V30 4 C -2.18986 0.136448 -1.62247 0
M  V30 5 C -1.04416 0.825213 -1.23189 0
M  V30 6 C -1.05274 1.36241 0.0301668 0
M  V30 7 C -2.12897 1.24154 0.891975 0
M  V30 8 S 0.296635 0.984582 -2.32886 0
M  V30 9 O -0.252609 1.27352 -3.69794 0
M  V30 10 O 1.1143 2.1806 -1.92431 0
M  V30 11 N 1.32304 -0.362895 -2.39241 0
M  V30 12 C 2.01966 -0.778996 -1.23123 0
M  V30 13 N 2.84922 -1.86298 -1.26263 0
M  V30 14 C 3.52279 -2.27772 -0.179529 0
M  V30 15 C 3.41016 -1.62835 1.02098 0
M  V30 16 C 2.57797 -0.532791 1.07186 0
M  V30 17 N 2.4118 0.1886 2.27909 0
M  V30 18 N 1.93043 -0.165266 -0.0436956 0
M  V30 19 H -4.98757 -0.391639 1.20086 0
M  V30 20 H -4.52373 1.12661 2.12787 0
M  V30 21 H -4.16986 -0.532418 -1.0802 0
M  V30 22 H -2.18878 -0.286415 -2.61071 0
M  V30 23 H -0.198201 1.90649 0.367953 0
M  V30 24 H -2.13079 1.6693 1.89249 0
M  V30 25 H 1.47407 -0.923616 -3.27746 0
M  V30 26 H 4.18823 -3.14872 -0.208277 0
M  V30 27 H 3.92313 -1.91035 1.92653 0
M  V30 28 H 3.15046 0.841935 2.59778 0
M  V30 29 H 1.56165 0.081269 2.86171 0
M  V30 END ATOM
M  V30 BEGIN BOND
M  V30 1 1 1 2
M  V30 2 2 2 3
M  V30 3 1 3 4
M  V30 4 2 4 5
M  V30 5 1 5 6
M  V30 6 2 6 7
M  V30 7 1 5 8
M  V30 8 2 8 9
M  V30 9 2 8 10
M  V30 10 1 8 11
M  V30 11 1 11 12
M  V30 12 2 12 13
M  V30 13 1 13 14
M  V30 14 2 14 15
M  V30 15 1 15 16
M  V30 16 1 16 17
M  V30 17 2 16 18
M  V30 18 1 7 2
M  V30 19 1 18 12
M  V30 20 1 1 19
M  V30 21 1 1 20
M  V30 22 1 3 21
M  V30 23 1 4 22
M  V30 24 1 6 23
M  V30 25 1 7 24
M  V30 26 1 11 25
M  V30 27 1 14 26
M  V30 28 1 15 27
M  V30 29 1 17 28
M  V30 30 1 17 29
M  V30 END BOND
M  V30 END CTAB
M  END
