
     RDKit          3D

  0  0  0  0  0  0  0  0  0  0999 V3000
M  V30 BEGIN CTAB
M  V30 COUNTS 22 22 0 0 0
M  V30 BEGIN ATOM
M  V30 1 N -2.81836 -0.979857 -0.059482 0
M  V30 2 C -2.20523 -0.0474372 -0.976666 0
M  V30 3 C -1.07715 0.732188 -0.411787 0
M  V30 4 C 0.107505 -0.113243 0.0668673 0
M  V30 5 C -0.0599771 -1.02262 1.01767 0
M  V30 6 S 1.57129 -1.53961 1.3838 0
M  V30 7 C 2.36143 -0.530434 0.253305 0
M  V30 8 C 1.3571 0.138873 -0.329452 0
M  V30 9 C 3.85397 -0.344444 0.0621856 0
M  V30 10 F 4.51532 -1.48263 0.0592843 0
M  V30 11 F 4.23173 0.423763 1.15589 0
M  V30 12 F 3.99849 0.4348 -1.05411 0
M  V30 13 N -1.50283 1.49764 0.779439 0
M  V30 14 H -3.23069 -1.79677 -0.488981 0
M  V30 15 H -3.27595 -0.550921 0.757961 0
M  V30 16 H -3.0081 0.699524 -1.22379 0
M  V30 17 H -1.95625 -0.546506 -1.91418 0
M  V30 18 H -0.741974 1.45864 -1.13348 0
M  V30 19 H -0.951591 -1.47046 1.56712 0
M  V30 20 H 1.57283 0.871229 -1.12551 0
M  V30 21 H -2.12994 2.24068 0.465992 0
M  V30 22 H -0.611614 1.92759 1.14791 0
M  V30 END ATOM
M  V30 BEGIN BOND
M  V30 1 1 1 2
M  V30 2 1 2 3
M  V30 3 1 3 4
M  V30 4 2 4 5
M  V30 5 1 5 6
M  V30 6 1 6 7
M  V30 7 2 7 8
M  V30 8 1 7 9
M  V30 9 1 9 10
M  V30 10 1 9 11
M  V30 11 1 9 12
M  V30 12 1 3 13
M  V30 13 1 8 4
M  V30 14 1 1 14
M  V30 15 1 1 15
M  V30 16 1 2 16
M  V30 17 1 2 17
M  V30 18 1 3 18
M  V30 19 1 5 19
M  V30 20 1 8 20
M  V30 21 1 13 21
M  V30 22 1 13 22
M  V30 END BOND
M  V30 END CTAB
M  END
