
     RDKit          3D

  0  0  0  0  0  0  0  0  0  0999 V3000
M  V30 BEGIN CTAB
M  V30 COUNTS 53 55 0 0 0
M  V30 BEGIN ATOM
M  V30 1 C 7.80104 -0.468041 1.1343 0
M  V30 2 C 6.52354 -0.0587163 0.425489 0
M  V30 3 C 6.04238 -1.21805 -0.393211 0
M  V30 4 C 4.78062 -0.932956 -1.14335 0
M  V30 5 C 3.61975 -0.570465 -0.264281 0
M  V30 6 O 2.50057 -0.325812 -1.05857 0
M  V30 7 C 1.25987 0.0304645 -0.605387 0
M  V30 8 C 1.04334 0.173549 0.742923 0
M  V30 9 C -0.237637 0.540448 1.19611 0
M  V30 10 C -1.25081 0.751336 0.3105 0
M  V30 11 C -1.01537 0.604203 -1.02307 0
M  V30 12 C 0.231352 0.245639 -1.48736 0
M  V30 13 O 0.449982 0.0990361 -2.8827 0
M  V30 14 C -0.635168 0.329355 -3.76663 0
M  V30 15 C -2.58725 1.13497 0.797708 0
M  V30 16 C -3.16545 2.24476 0.0586087 0
M  V30 17 C -4.38856 2.24666 -0.395398 0
M  V30 18 N -4.85139 3.41967 -1.12231 0
M  V30 19 O -5.27342 1.19679 -0.225421 0
M  V30 20 C -4.7667 0.0825366 0.491321 0
M  V30 21 C -3.50342 0.0256754 0.986999 0
M  V30 22 C -3.10094 -1.12899 1.68523 0
M  V30 23 C -3.97358 -2.15339 1.84819 0
M  V30 24 C -5.26818 -2.13226 1.35765 0
M  V30 25 C -5.64629 -1.00005 0.679315 0
M  V30 26 N -6.16737 -3.21329 1.53755 0
M  V30 27 C -2.35621 3.4495 -0.211398 0
M  V30 28 N -1.70285 4.38577 -0.412238 0
M  V30 29 H 7.85532 -1.55375 1.31024 0
M  V30 30 H 8.69633 -0.189668 0.548833 0
M  V30 31 H 7.84977 0.0294832 2.13624 0
M  V30 32 H 6.78022 0.823716 -0.196847 0
M  V30 33 H 5.78203 0.273368 1.16154 0
M  V30 34 H 5.81918 -2.0517 0.321926 0
M  V30 35 H 6.82154 -1.4869 -1.12224 0
M  V30 36 H 4.98782 -0.123156 -1.88764 0
M  V30 37 H 4.54307 -1.8496 -1.74342 0
M  V30 38 H 3.90819 0.303319 0.356033 0
M  V30 39 H 3.47442 -1.41507 0.457284 0
M  V30 40 H 1.85663 0.00250697 1.42609 0
M  V30 41 H -0.322208 0.631248 2.27047 0
M  V30 42 H -1.79223 0.760532 -1.78448 0
M  V30 43 H -0.313541 0.32281 -4.82147 0
M  V30 44 H -1.07622 1.34962 -3.59974 0
M  V30 45 H -1.39769 -0.460345 -3.55163 0
M  V30 46 H -2.40355 1.54961 1.85248 0
M  V30 47 H -4.44449 4.3337 -0.915744 0
M  V30 48 H -5.59113 3.35747 -1.85344 0
M  V30 49 H -2.07188 -1.14912 2.07866 0
M  V30 50 H -3.68085 -3.04682 2.38145 0
M  V30 51 H -6.64879 -0.918605 0.268564 0
M  V30 52 H -6.16694 -3.69704 2.45654 0
M  V30 53 H -6.82682 -3.55394 0.811339 0
M  V30 END ATOM
M  V30 BEGIN BOND
M  V30 1 1 1 2
M  V30 2 1 2 3
M  V30 3 1 3 4
M  V30 4 1 4 5
M  V30 5 1 5 6
M  V30 6 1 6 7
M  V30 7 2 7 8
M  V30 8 1 8 9
M  V30 9 2 9 10
M  V30 10 1 10 11
M  V30 11 2 11 12
M  V30 12 1 12 13
M  V30 13 1 13 14
M  V30 14 1 10 15
M  V30 15 1 15 16
M  V30 16 2 16 17
M  V30 17 1 17 18
M  V30 18 1 17 19
M  V30 19 1 19 20
M  V30 20 2 20 21
M  V30 21 1 21 22
M  V30 22 2 22 23
M  V30 23 1 23 24
M  V30 24 2 24 25
M  V30 25 1 24 26
M  V30 26 1 16 27
M  V30 27 3 27 28
M  V30 28 1 12 7
M  V30 29 1 21 15
M  V30 30 1 25 20
M  V30 31 1 1 29
M  V30 32 1 1 30
M  V30 33 1 1 31
M  V30 34 1 2 32
M  V30 35 1 2 33
M  V30 36 1 3 34
M  V30 37 1 3 35
M  V30 38 1 4 36
M  V30 39 1 4 37
M  V30 40 1 5 38
M  V30 41 1 5 39
M  V30 42 1 8 40
M  V30 43 1 9 41
M  V30 44 1 11 42
M  V30 45 1 14 43
M  V30 46 1 14 44
M  V30 47 1 14 45
M  V30 48 1 15 46
M  V30 49 1 18 47
M  V30 50 1 18 48
M  V30 51 1 22 49
M  V30 52 1 23 50
M  V30 53 1 25 51
M  V30 54 1 26 52
M  V30 55 1 26 53
M  V30 END BOND
M  V30 END CTAB
M  END
