
     RDKit          3D

  0  0  0  0  0  0  0  0  0  0999 V3000
M  V30 BEGIN CTAB
M  V30 COUNTS 36 36 0 0 0
M  V30 BEGIN ATOM
M  V30 1 N 6.29183 0.0689996 0.0618491 0
M  V30 2 C 5.09552 0.712479 0.574716 0
M  V30 3 C 3.87267 0.0372766 0.0360746 0
M  V30 4 C 2.65208 0.717038 0.577868 0
M  V30 5 N 1.43128 0.0603179 0.0539645 0
M  V30 6 C 0.180074 0.541353 0.437289 0
M  V30 7 O 0.190722 1.55467 1.24531 0
M  V30 8 C -1.1298 0.0499046 0.0451446 0
M  V30 9 C -2.25196 0.718018 0.577687 0
M  V30 10 C -3.54274 0.360314 0.292204 0
M  V30 11 C -3.72539 -0.705722 -0.557892 0
M  V30 12 C -2.67493 -1.39187 -1.10482 0
M  V30 13 C -1.35777 -1.01337 -0.80276 0
M  V30 14 O -0.300575 -1.68802 -1.34053 0
M  V30 15 C -0.353717 -2.77263 -2.20542 0
M  V30 16 S -4.94179 1.16752 0.935602 0
M  V30 17 O -4.56121 1.72425 2.28296 0
M  V30 18 O -6.03736 0.162004 1.10834 0
M  V30 19 N -5.47892 2.46064 -0.050104 0
M  V30 20 F 3.84768 0.182469 -1.35344 0
M  V30 21 F 3.80369 -1.29212 0.349607 0
M  V30 22 H 7.14449 0.323086 0.617334 0
M  V30 23 H 6.17214 -0.970085 -0.0172027 0
M  V30 24 H 5.06134 0.700835 1.68112 0
M  V30 25 H 5.06765 1.77376 0.222422 0
M  V30 26 H 2.58303 0.569744 1.68434 0
M  V30 27 H 2.63577 1.80187 0.356398 0
M  V30 28 H 1.56735 -0.727576 -0.57427 0
M  V30 29 H -2.09054 1.55277 1.24335 0
M  V30 30 H -4.73742 -1.04216 -0.826359 0
M  V30 31 H -2.76636 -2.23402 -1.77637 0
M  V30 32 H 0.597584 -2.81927 -2.81238 0
M  V30 33 H -1.17016 -2.7758 -2.92519 0
M  V30 34 H -0.406833 -3.70957 -1.60905 0
M  V30 35 H -4.96902 2.57519 -0.928773 0
M  V30 36 H -5.69838 3.32772 0.46722 0
M  V30 END ATOM
M  V30 BEGIN BOND
M  V30 1 1 1 2
M  V30 2 1 2 3
M  V30 3 1 3 4
M  V30 4 1 4 5
M  V30 5 1 5 6
M  V30 6 2 6 7
M  V30 7 1 6 8
M  V30 8 2 8 9
M  V30 9 1 9 10
M  V30 10 2 10 11
M  V30 11 1 11 12
M  V30 12 2 12 13
M  V30 13 1 13 14
M  V30 14 1 14 15
M  V30 15 1 10 16
M  V30 16 2 16 17
M  V30 17 2 16 18
M  V30 18 1 16 19
M  V30 19 1 3 20
M  V30 20 1 3 21
M  V30 21 1 13 8
M  V30 22 1 1 22
M  V30 23 1 1 23
M  V30 24 1 2 24
M  V30 25 1 2 25
M  V30 26 1 4 26
M  V30 27 1 4 27
M  V30 28 1 5 28
M  V30 29 1 9 29
M  V30 30 1 11 30
M  V30 31 1 12 31
M  V30 32 1 15 32
M  V30 33 1 15 33
M  V30 34 1 15 34
M  V30 35 1 19 35
M  V30 36 1 19 36
M  V30 END BOND
M  V30 END CTAB
M  END
