
     RDKit          3D

  0  0  0  0  0  0  0  0  0  0999 V3000
M  V30 BEGIN CTAB
M  V30 COUNTS 16 16 0 0 0
M  V30 BEGIN ATOM
M  V30 1 N -1.28923 -1.73829 0.239552 0
M  V30 2 C -0.641649 -0.476685 0.0729547 0
M  V30 3 C -1.45058 0.635144 -0.0409445 0
M  V30 4 Br -3.34647 0.451079 0.0263784 0
M  V30 5 C -0.861016 1.86758 -0.20269 0
M  V30 6 C 0.528515 1.97091 -0.248257 0
M  V30 7 C 1.33645 0.859989 -0.134445 0
M  V30 8 Br 3.22877 0.985925 -0.194734 0
M  V30 9 C 0.748484 -0.377715 0.027896 0
M  V30 10 N 1.55105 -1.51739 0.145282 0
M  V30 11 H -2.22363 -1.95003 -0.174692 0
M  V30 12 H -0.836628 -2.49828 0.791189 0
M  V30 13 H -1.47717 2.75603 -0.29441 0
M  V30 14 H 1.02385 2.934 -0.375493 0
M  V30 15 H 1.76585 -2.09161 -0.694367 0
M  V30 16 H 1.94341 -1.81065 1.05678 0
M  V30 END ATOM
M  V30 BEGIN BOND
M  V30 1 1 1 2
M  V30 2 2 2 3
M  V30 3 1 3 4
M  V30 4 1 3 5
M  V30 5 2 5 6
M  V30 6 1 6 7
M  V30 7 1 7 8
M  V30 8 2 7 9
M  V30 9 1 9 10
M  V30 10 1 9 2
M  V30 11 1 1 11
M  V30 12 1 1 12
M  V30 13 1 5 13
M  V30 14 1 6 14
M  V30 15 1 10 15
M  V30 16 1 10 16
M  V30 END BOND
M  V30 END CTAB
M  END
