
     RDKit          3D

  0  0  0  0  0  0  0  0  0  0999 V3000
M  V30 BEGIN CTAB
M  V30 COUNTS 35 36 0 0 0
M  V30 BEGIN ATOM
M  V30 1 F 5.72102 3.04116 -1.51365 0
M  V30 2 C 5.75101 1.96446 -0.620141 0
M  V30 3 C 4.83416 0.889794 -1.12202 0
M  V30 4 N 4.37321 0.732486 -2.38379 0
M  V30 5 N 3.48778 -0.294098 -2.39307 0
M  V30 6 C 3.39835 -0.74974 -1.18893 0
M  V30 7 N 4.23106 -0.0360088 -0.373726 0
M  V30 8 N 4.35583 -0.260271 0.984071 0
M  V30 9 S 2.23047 -2.00725 -0.498289 0
M  V30 10 C 0.935001 -0.936191 0.129886 0
M  V30 11 C -0.349946 -1.47635 0.595549 0
M  V30 12 C -1.01634 -2.25894 -0.517617 0
M  V30 13 S -2.76545 -2.60595 -0.154069 0
M  V30 14 C -3.73533 -1.15613 -0.53737 0
M  V30 15 N -4.22682 -0.993034 -1.83522 0
M  V30 16 N -4.86853 0.125051 -1.88258 0
M  V30 17 C -4.84796 0.752457 -0.686141 0
M  V30 18 N -4.12517 -0.0938445 0.109168 0
M  V30 19 N -3.83615 0.189675 1.45219 0
M  V30 20 C -5.49085 2.03583 -0.435478 0
M  V30 21 F -4.60239 3.06148 -0.397824 0
M  V30 22 F -6.21518 2.04148 0.753461 0
M  V30 23 F -6.4117 2.30679 -1.44252 0
M  V30 24 F 5.30135 2.48272 0.603283 0
M  V30 25 F 7.01632 1.49267 -0.495519 0
M  V30 26 H 4.57792 0.443272 1.72203 0
M  V30 27 H 4.17102 -1.24602 1.35529 0
M  V30 28 H 1.4344 -0.31307 0.964564 0
M  V30 29 H 0.779547 -0.139381 -0.68 0
M  V30 30 H -1.0378 -0.668422 0.915529 0
M  V30 31 H -0.233614 -2.10329 1.53406 0
M  V30 32 H -1.02602 -1.64414 -1.44408 0
M  V30 33 H -0.39546 -3.19044 -0.631979 0
M  V30 34 H -4.37034 0.887753 2.00994 0
M  V30 35 H -3.04341 -0.274504 1.9418 0
M  V30 END ATOM
M  V30 BEGIN BOND
M  V30 1 1 1 2
M  V30 2 1 2 3
M  V30 3 2 3 4
M  V30 4 1 4 5
M  V30 5 2 5 6
M  V30 6 1 6 7
M  V30 7 1 7 8
M  V30 8 1 6 9
M  V30 9 1 9 10
M  V30 10 1 10 11
M  V30 11 1 11 12
M  V30 12 1 12 13
M  V30 13 1 13 14
M  V30 14 2 14 15
M  V30 15 1 15 16
M  V30 16 2 16 17
M  V30 17 1 17 18
M  V30 18 1 18 19
M  V30 19 1 17 20
M  V30 20 1 20 21
M  V30 21 1 20 22
M  V30 22 1 20 23
M  V30 23 1 2 24
M  V30 24 1 2 25
M  V30 25 1 7 3
M  V30 26 1 18 14
M  V30 27 1 8 26
M  V30 28 1 8 27
M  V30 29 1 10 28
M  V30 30 1 10 29
M  V30 31 1 11 30
M  V30 32 1 11 31
M  V30 33 1 12 32
M  V30 34 1 12 33
M  V30 35 1 19 34
M  V30 36 1 19 35
M  V30 END BOND
M  V30 END CTAB
M  END
