
     RDKit          3D

  0  0  0  0  0  0  0  0  0  0999 V3000
M  V30 BEGIN CTAB
M  V30 COUNTS 19 19 0 0 0
M  V30 BEGIN ATOM
M  V30 1 N 1.67247 -1.9686 -0.108976 0
M  V30 2 C 0.803913 -0.832684 -0.0586171 0
M  V30 3 C -0.565642 -0.958535 -0.0582286 0
M  V30 4 C -1.4417 0.0967565 -0.0130353 0
M  V30 5 C -0.904453 1.37174 0.0346727 0
M  V30 6 C 0.461902 1.52686 0.0354885 0
M  V30 7 Br 1.16798 3.30351 0.0997761 0
M  V30 8 C 1.31159 0.44774 -0.0100259 0
M  V30 9 N 2.71052 0.673953 -0.00105833 0
M  V30 10 C -2.93508 -0.10827 -0.00849939 0
M  V30 11 F -3.3783 -0.769667 -1.11319 0
M  V30 12 F -3.25815 -0.868178 1.12465 0
M  V30 13 F -3.52641 1.11143 0.167409 0
M  V30 14 H 2.27061 -2.1974 -0.904716 0
M  V30 15 H 1.66957 -2.58633 0.747995 0
M  V30 16 H -0.974492 -1.96107 -0.096492 0
M  V30 17 H -1.56003 2.22749 0.0713827 0
M  V30 18 H 3.26871 1.01219 -0.811537 0
M  V30 19 H 3.207 0.47907 0.902999 0
M  V30 END ATOM
M  V30 BEGIN BOND
M  V30 1 1 1 2
M  V30 2 2 2 3
M  V30 3 1 3 4
M  V30 4 2 4 5
M  V30 5 1 5 6
M  V30 6 1 6 7
M  V30 7 2 6 8
M  V30 8 1 8 9
M  V30 9 1 4 10
M  V30 10 1 10 11
M  V30 11 1 10 12
M  V30 12 1 10 13
M  V30 13 1 8 2
M  V30 14 1 1 14
M  V30 15 1 1 15
M  V30 16 1 3 16
M  V30 17 1 5 17
M  V30 18 1 9 18
M  V30 19 1 9 19
M  V30 END BOND
M  V30 END CTAB
M  END
