
     RDKit          3D

  0  0  0  0  0  0  0  0  0  0999 V3000
M  V30 BEGIN CTAB
M  V30 COUNTS 42 43 0 0 0
M  V30 BEGIN ATOM
M  V30 1 C -3.13828 -0.673209 1.91791 0
M  V30 2 C -3.18026 -0.218479 0.50226 0
M  V30 3 C -2.67546 -1.20784 -0.504219 0
M  V30 4 C -2.78783 -0.603378 -1.88474 0
M  V30 5 C -1.44672 -0.364488 -2.51025 0
M  V30 6 C -0.484292 0.359573 -1.57978 0
M  V30 7 N -0.366942 -0.427615 -0.369188 0
M  V30 8 C -1.23009 -1.60944 -0.303121 0
M  V30 9 C 0.495305 -0.128746 0.711259 0
M  V30 10 O 0.477717 -0.961151 1.69308 0
M  V30 11 C 1.40023 0.99478 0.861797 0
M  V30 12 C 2.84607 0.657658 0.820815 0
M  V30 13 C 3.33859 -0.601211 0.826915 0
M  V30 14 C 4.72434 -0.832722 0.790576 0
M  V30 15 C 5.61025 0.230858 0.747586 0
M  V30 16 C 5.09821 1.51812 0.741434 0
M  V30 17 C 3.73423 1.71159 0.777848 0
M  V30 18 N 1.18417 1.97902 -0.166303 0
M  V30 19 N -4.56406 0.0658811 0.157956 0
M  V30 20 H -2.24203 -0.35604 2.48396 0
M  V30 21 H -3.31477 -1.7739 1.96676 0
M  V30 22 H -4.00311 -0.21186 2.456 0
M  V30 23 H -2.63481 0.746734 0.385552 0
M  V30 24 H -3.35035 -2.08669 -0.466776 0
M  V30 25 H -3.29362 0.38472 -1.81833 0
M  V30 26 H -3.37139 -1.30107 -2.54092 0
M  V30 27 H -1.61552 0.223449 -3.43868 0
M  V30 28 H -0.99824 -1.31611 -2.78506 0
M  V30 29 H 0.494475 0.505803 -2.0922 0
M  V30 30 H -0.986 1.31872 -1.33808 0
M  V30 31 H -0.986467 -2.36224 -1.06834 0
M  V30 32 H -1.06943 -2.0281 0.724946 0
M  V30 33 H 1.16537 1.46982 1.87644 0
M  V30 34 H 2.69019 -1.44341 0.856204 0
M  V30 35 H 5.12532 -1.82432 0.795155 0
M  V30 36 H 6.67475 0.0441111 0.719785 0
M  V30 37 H 5.81729 2.32465 0.707383 0
M  V30 38 H 3.36514 2.72715 0.771884 0
M  V30 39 H 1.26374 2.94005 0.277497 0
M  V30 40 H 1.95951 1.93366 -0.856059 0
M  V30 41 H -5.06628 -0.744809 -0.231345 0
M  V30 42 H -4.65895 0.940491 -0.403594 0
M  V30 END ATOM
M  V30 BEGIN BOND
M  V30 1 1 1 2
M  V30 2 1 2 3
M  V30 3 1 3 4
M  V30 4 1 4 5
M  V30 5 1 5 6
M  V30 6 1 6 7
M  V30 7 1 7 8
M  V30 8 1 7 9
M  V30 9 2 9 10
M  V30 10 1 9 11
M  V30 11 1 11 12
M  V30 12 2 12 13
M  V30 13 1 13 14
M  V30 14 2 14 15
M  V30 15 1 15 16
M  V30 16 2 16 17
M  V30 17 1 11 18
M  V30 18 1 2 19
M  V30 19 1 8 3
M  V30 20 1 17 12
M  V30 21 1 1 20
M  V30 22 1 1 21
M  V30 23 1 1 22
M  V30 24 1 2 23
M  V30 25 1 3 24
M  V30 26 1 4 25
M  V30 27 1 4 26
M  V30 28 1 5 27
M  V30 29 1 5 28
M  V30 30 1 6 29
M  V30 31 1 6 30
M  V30 32 1 8 31
M  V30 33 1 8 32
M  V30 34 1 11 33
M  V30 35 1 13 34
M  V30 36 1 14 35
M  V30 37 1 15 36
M  V30 38 1 16 37
M  V30 39 1 17 38
M  V30 40 1 18 39
M  V30 41 1 18 40
M  V30 42 1 19 41
M  V30 43 1 19 42
M  V30 END BOND
M  V30 END CTAB
M  END
