
     RDKit          3D

  0  0  0  0  0  0  0  0  0  0999 V3000
M  V30 BEGIN CTAB
M  V30 COUNTS 63 65 0 0 0
M  V30 BEGIN ATOM
M  V30 1 C 2.19273 4.70635 2.69842 0
M  V30 2 C 1.73738 3.87377 1.49594 0
M  V30 3 C 1.09776 2.60104 1.9434 0
M  V30 4 O 0.642279 1.73962 0.980349 0
M  V30 5 C 1.22407 1.03048 -0.00671356 0
M  V30 6 C 0.443845 0.242255 -0.864868 0
M  V30 7 O -0.912013 0.203178 -0.679087 0
M  V30 8 C -1.68906 -0.585828 -1.52384 0
M  V30 9 C -3.12051 -0.564217 -1.2417 0
M  V30 10 C -3.54987 -1.21386 -0.0842173 0
M  V30 11 C -4.86209 -1.27204 0.296832 0
M  V30 12 O -5.23046 -1.93107 1.45744 0
M  V30 13 C -4.21826 -2.53797 2.23473 0
M  V30 14 C -5.82695 -0.663887 -0.489824 0
M  V30 15 O -7.15739 -0.750316 -0.0586964 0
M  V30 16 C -7.917 -1.87207 -0.520268 0
M  V30 17 C -5.43991 -0.0196636 -1.62938 0
M  V30 18 O -6.42763 0.579515 -2.39715 0
M  V30 19 C -6.0941 1.2601 -3.58704 0
M  V30 20 C -4.10023 0.0321849 -2.0053 0
M  V30 21 C 1.09009 -0.448898 -1.84545 0
M  V30 22 C 2.45401 -0.412039 -2.03173 0
M  V30 23 C 3.21035 0.347269 -1.2033 0
M  V30 24 C 4.67748 0.408154 -1.3291 0
M  V30 25 C 5.39123 -0.360789 -0.306814 0
M  V30 26 C 5.94313 0.267807 0.812877 0
M  V30 27 N 6.56608 -0.47406 1.73904 0
M  V30 28 C 6.69755 -1.80024 1.66181 0
M  V30 29 N 7.36458 -2.53647 2.67558 0
M  V30 30 N 6.16589 -2.40799 0.581314 0
M  V30 31 C 5.52045 -1.71373 -0.396204 0
M  V30 32 N 5.03519 -2.5064 -1.47128 0
M  V30 33 C 2.60161 1.07836 -0.179916 0
M  V30 34 H 1.89508 4.22906 3.64477 0
M  V30 35 H 3.30713 4.74674 2.69291 0
M  V30 36 H 1.82524 5.7352 2.56594 0
M  V30 37 H 2.54365 3.78667 0.763867 0
M  V30 38 H 0.92237 4.45449 0.96671 0
M  V30 39 H 0.217906 2.80968 2.63182 0
M  V30 40 H 1.83509 2.03952 2.59146 0
M  V30 41 H -1.33908 -1.64004 -1.43318 0
M  V30 42 H -1.43365 -0.294875 -2.57084 0
M  V30 43 H -2.80667 -1.70838 0.564094 0
M  V30 44 H -4.65629 -2.85413 3.20993 0
M  V30 45 H -3.74937 -3.35882 1.69118 0
M  V30 46 H -3.41998 -1.80007 2.50523 0
M  V30 47 H -8.9391 -1.83548 -0.0853224 0
M  V30 48 H -7.47828 -2.82896 -0.215009 0
M  V30 49 H -7.93666 -1.8111 -1.62195 0
M  V30 50 H -5.27985 1.9619 -3.33595 0
M  V30 51 H -6.93917 1.85966 -3.97734 0
M  V30 52 H -5.80321 0.477006 -4.32092 0
M  V30 53 H -3.78379 0.538573 -2.90287 0
M  V30 54 H 0.503587 -1.06845 -2.52485 0
M  V30 55 H 2.88787 -0.972143 -2.831 0
M  V30 56 H 4.96578 -0.0264269 -2.32981 0
M  V30 57 H 5.04817 1.46562 -1.26505 0
M  V30 58 H 5.87399 1.34734 0.942925 0
M  V30 59 H 7.71452 -2.01987 3.50664 0
M  V30 60 H 7.51794 -3.55769 2.62711 0
M  V30 61 H 4.20044 -3.14012 -1.4055 0
M  V30 62 H 5.5222 -2.47878 -2.40724 0
M  V30 63 H 3.27395 1.64534 0.444058 0
M  V30 END ATOM
M  V30 BEGIN BOND
M  V30 1 1 1 2
M  V30 2 1 2 3
M  V30 3 1 3 4
M  V30 4 1 4 5
M  V30 5 2 5 6
M  V30 6 1 6 7
M  V30 7 1 7 8
M  V30 8 1 8 9
M  V30 9 2 9 10
M  V30 10 1 10 11
M  V30 11 1 11 12
M  V30 12 1 12 13
M  V30 13 2 11 14
M  V30 14 1 14 15
M  V30 15 1 15 16
M  V30 16 1 14 17
M  V30 17 1 17 18
M  V30 18 1 18 19
M  V30 19 2 17 20
M  V30 20 1 6 21
M  V30 21 2 21 22
M  V30 22 1 22 23
M  V30 23 1 23 24
M  V30 24 1 24 25
M  V30 25 2 25 26
M  V30 26 1 26 27
M  V30 27 2 27 28
M  V30 28 1 28 29
M  V30 29 1 28 30
M  V30 30 2 30 31
M  V30 31 1 31 32
M  V30 32 2 23 33
M  V30 33 1 33 5
M  V30 34 1 20 9
M  V30 35 1 31 25
M  V30 36 1 1 34
M  V30 37 1 1 35
M  V30 38 1 1 36
M  V30 39 1 2 37
M  V30 40 1 2 38
M  V30 41 1 3 39
M  V30 42 1 3 40
M  V30 43 1 8 41
M  V30 44 1 8 42
M  V30 45 1 10 43
M  V30 46 1 13 44
M  V30 47 1 13 45
M  V30 48 1 13 46
M  V30 49 1 16 47
M  V30 50 1 16 48
M  V30 51 1 16 49
M  V30 52 1 19 50
M  V30 53 1 19 51
M  V30 54 1 19 52
M  V30 55 1 20 53
M  V30 56 1 21 54
M  V30 57 1 22 55
M  V30 58 1 24 56
M  V30 59 1 24 57
M  V30 60 1 26 58
M  V30 61 1 29 59
M  V30 62 1 29 60
M  V30 63 1 32 61
M  V30 64 1 32 62
M  V30 65 1 33 63
M  V30 END BOND
M  V30 END CTAB
M  END
