
     RDKit          3D

  0  0  0  0  0  0  0  0  0  0999 V3000
M  V30 BEGIN CTAB
M  V30 COUNTS 49 51 0 0 0
M  V30 BEGIN ATOM
M  V30 1 C 8.76891 -0.850858 -0.670268 0
M  V30 2 O 7.83636 -1.74421 -0.10616 0
M  V30 3 C 6.52905 -1.35158 0.203753 0
M  V30 4 C 6.06462 -0.0733478 -0.019293 0
M  V30 5 C 4.75411 0.291796 0.299678 0
M  V30 6 C 3.88334 -0.621386 0.849739 0
M  V30 7 C 4.35349 -1.89891 1.07072 0
M  V30 8 C 5.64744 -2.25764 0.755252 0
M  V30 9 F 6.11656 -3.53057 0.975211 0
M  V30 10 C 2.48062 -0.272067 1.20327 0
M  V30 11 O 1.67377 -0.534472 0.0684178 0
M  V30 12 N 0.330445 -0.333584 0.0209258 0
M  V30 13 C -0.208988 0.705206 -0.552548 0
M  V30 14 C -1.67428 0.80521 -0.535428 0
M  V30 15 C -2.5373 -0.0435659 -0.00013923 0
M  V30 16 N -2.13988 -1.22714 0.664367 0
M  V30 17 C -3.92584 0.389964 -0.179924 0
M  V30 18 N -3.85062 1.63173 -0.902355 0
M  V30 19 C -2.46483 1.87381 -1.11332 0
M  V30 20 O -1.94613 2.87236 -1.71766 0
M  V30 21 C -4.89574 2.50634 -1.35503 0
M  V30 22 C -4.68128 -0.674146 -0.955454 0
M  V30 23 C -5.99616 -0.820531 -0.232957 0
M  V30 24 C -5.60065 -0.552053 1.20979 0
M  V30 25 C -4.66912 0.618506 1.09754 0
M  V30 26 N 0.553324 1.72177 -1.17981 0
M  V30 27 H 8.4596 -0.666571 -1.71364 0
M  V30 28 H 9.80269 -1.16894 -0.548987 0
M  V30 29 H 8.65528 0.128104 -0.118119 0
M  V30 30 H 6.71987 0.672472 -0.450552 0
M  V30 31 H 4.38125 1.29374 0.127713 0
M  V30 32 H 3.667 -2.63394 1.50878 0
M  V30 33 H 2.42151 0.770143 1.5313 0
M  V30 34 H 2.144 -0.904095 2.05248 0
M  V30 35 H -1.73957 -1.15826 1.61734 0
M  V30 36 H -2.24365 -2.14771 0.214321 0
M  V30 37 H -4.92538 2.45528 -2.47378 0
M  V30 38 H -5.88485 2.24826 -0.93213 0
M  V30 39 H -4.6018 3.55305 -1.07829 0
M  V30 40 H -4.82824 -0.389665 -2.02117 0
M  V30 41 H -4.13644 -1.63812 -0.906442 0
M  V30 42 H -6.42634 -1.83502 -0.305736 0
M  V30 43 H -6.66273 -0.018523 -0.563732 0
M  V30 44 H -6.48139 -0.27247 1.82322 0
M  V30 45 H -5.07746 -1.41921 1.6516 0
M  V30 46 H -4.0072 0.71116 1.9811 0
M  V30 47 H -5.31211 1.53749 0.986805 0
M  V30 48 H 0.666604 2.62483 -0.677761 0
M  V30 49 H 1.00813 1.62739 -2.10881 0
M  V30 END ATOM
M  V30 BEGIN BOND
M  V30 1 1 1 2
M  V30 2 1 2 3
M  V30 3 2 3 4
M  V30 4 1 4 5
M  V30 5 2 5 6
M  V30 6 1 6 7
M  V30 7 2 7 8
M  V30 8 1 8 9
M  V30 9 1 6 10
M  V30 10 1 10 11
M  V30 11 1 11 12
M  V30 12 2 12 13 CFG=2
M  V30 13 1 13 14
M  V30 14 2 14 15
M  V30 15 1 15 16
M  V30 16 1 15 17
M  V30 17 1 17 18
M  V30 18 1 18 19
M  V30 19 2 19 20
M  V30 20 1 18 21
M  V30 21 1 17 22
M  V30 22 1 22 23
M  V30 23 1 23 24
M  V30 24 1 24 25
M  V30 25 1 13 26
M  V30 26 1 8 3
M  V30 27 1 19 14
M  V30 28 1 25 17
M  V30 29 1 1 27
M  V30 30 1 1 28
M  V30 31 1 1 29
M  V30 32 1 4 30
M  V30 33 1 5 31
M  V30 34 1 7 32
M  V30 35 1 10 33
M  V30 36 1 10 34
M  V30 37 1 16 35
M  V30 38 1 16 36
M  V30 39 1 21 37
M  V30 40 1 21 38
M  V30 41 1 21 39
M  V30 42 1 22 40
M  V30 43 1 22 41
M  V30 44 1 23 42
M  V30 45 1 23 43
M  V30 46 1 24 44
M  V30 47 1 24 45
M  V30 48 1 25 46
M  V30 49 1 25 47
M  V30 50 1 26 48
M  V30 51 1 26 49
M  V30 END BOND
M  V30 END CTAB
M  END
