
     RDKit          3D

  0  0  0  0  0  0  0  0  0  0999 V3000
M  V30 BEGIN CTAB
M  V30 COUNTS 48 50 0 0 0
M  V30 BEGIN ATOM
M  V30 1 C -4.14577 3.78568 -0.800791 0
M  V30 2 C -4.40397 2.72557 -0.0710012 0
M  V30 3 C -4.70297 1.41816 -0.717566 0
M  V30 4 O -3.87077 0.426581 -0.397835 0
M  V30 5 C -2.57101 0.121524 -0.520096 0
M  V30 6 C -1.68791 0.965856 -1.15873 0
M  V30 7 C -0.328111 0.630114 -1.27462 0
M  V30 8 C 0.137624 -0.549801 -0.750301 0
M  V30 9 C -0.774841 -1.38434 -0.11123 0
M  V30 10 C -2.08568 -1.1004 0.0218965 0
M  V30 11 O -2.98831 -1.89967 0.64036 0
M  V30 12 C -2.80593 -3.1315 1.25469 0
M  V30 13 C -1.85161 -3.14781 2.40136 0
M  V30 14 C 1.57779 -0.869594 -0.895231 0
M  V30 15 C 2.10877 -0.474137 -2.2171 0
M  V30 16 C 3.18035 0.287359 -2.37501 0
M  V30 17 N 3.63049 0.62551 -3.67897 0
M  V30 18 O 3.90072 0.781369 -1.28541 0
M  V30 19 C 3.51017 0.485278 -0.00501234 0
M  V30 20 C 2.40061 -0.304161 0.202802 0
M  V30 21 C 2.05323 -0.570434 1.50843 0
M  V30 22 C 2.78145 -0.0707043 2.57396 0
M  V30 23 C 3.8968 0.722792 2.37472 0
M  V30 24 C 4.25035 0.993361 1.06898 0
M  V30 25 N 4.64533 1.23648 3.47142 0
M  V30 26 C 1.44918 -0.924111 -3.40946 0
M  V30 27 N 0.904183 -1.30504 -4.37756 0
M  V30 28 H -3.93081 4.72605 -0.327631 0
M  V30 29 H -4.1484 3.71714 -1.87301 0
M  V30 30 H -4.39639 2.81711 1.02843 0
M  V30 31 H -5.79486 1.15787 -0.53192 0
M  V30 32 H -4.70195 1.55686 -1.8507 0
M  V30 33 H -1.97313 1.90605 -1.61036 0
M  V30 34 H 0.347465 1.30805 -1.77961 0
M  V30 35 H -0.414469 -2.32544 0.307692 0
M  V30 36 H -3.81139 -3.444 1.66627 0
M  V30 37 H -2.57658 -3.90114 0.482125 0
M  V30 38 H -1.04084 -3.88878 2.26304 0
M  V30 39 H -1.37699 -2.14177 2.58011 0
M  V30 40 H -2.3432 -3.39975 3.38014 0
M  V30 41 H 1.64155 -1.99679 -0.863996 0
M  V30 42 H 4.38103 0.0377383 -4.09784 0
M  V30 43 H 3.26145 1.41944 -4.24266 0
M  V30 44 H 1.17982 -1.19311 1.69531 0
M  V30 45 H 2.50554 -0.282102 3.60692 0
M  V30 46 H 5.11975 1.61203 0.903344 0
M  V30 47 H 4.92181 0.607056 4.25454 0
M  V30 48 H 4.94043 2.23356 3.53711 0
M  V30 END ATOM
M  V30 BEGIN BOND
M  V30 1 2 1 2 CFG=2
M  V30 2 1 2 3
M  V30 3 1 3 4
M  V30 4 1 4 5
M  V30 5 2 5 6
M  V30 6 1 6 7
M  V30 7 2 7 8
M  V30 8 1 8 9
M  V30 9 2 9 10
M  V30 10 1 10 11
M  V30 11 1 11 12
M  V30 12 1 12 13
M  V30 13 1 8 14
M  V30 14 1 14 15
M  V30 15 2 15 16
M  V30 16 1 16 17
M  V30 17 1 16 18
M  V30 18 1 18 19
M  V30 19 2 19 20
M  V30 20 1 20 21
M  V30 21 2 21 22
M  V30 22 1 22 23
M  V30 23 2 23 24
M  V30 24 1 23 25
M  V30 25 1 15 26
M  V30 26 3 26 27
M  V30 27 1 10 5
M  V30 28 1 20 14
M  V30 29 1 24 19
M  V30 30 1 1 28
M  V30 31 1 1 29
M  V30 32 1 2 30
M  V30 33 1 3 31
M  V30 34 1 3 32
M  V30 35 1 6 33
M  V30 36 1 7 34
M  V30 37 1 9 35
M  V30 38 1 12 36
M  V30 39 1 12 37
M  V30 40 1 13 38
M  V30 41 1 13 39
M  V30 42 1 13 40
M  V30 43 1 14 41
M  V30 44 1 17 42
M  V30 45 1 17 43
M  V30 46 1 21 44
M  V30 47 1 22 45
M  V30 48 1 24 46
M  V30 49 1 25 47
M  V30 50 1 25 48
M  V30 END BOND
M  V30 END CTAB
M  END
