
     RDKit          3D

  0  0  0  0  0  0  0  0  0  0999 V3000
M  V30 BEGIN CTAB
M  V30 COUNTS 25 26 0 0 0
M  V30 BEGIN ATOM
M  V30 1 N 4.76646 0.173901 0.296782 0
M  V30 2 C 3.36706 0.203883 0.120526 0
M  V30 3 C 2.59862 -0.611295 0.937686 0
M  V30 4 C 1.22782 -0.598296 0.783029 0
M  V30 5 C 0.569389 0.17645 -0.13581 0
M  V30 6 C 1.37562 0.983431 -0.940092 0
M  V30 7 C 2.74937 1.00172 -0.819513 0
M  V30 8 C -0.878831 0.204578 -0.314987 0
M  V30 9 N -1.46047 0.99491 -1.24324 0
M  V30 10 C -2.76578 1.07317 -1.46285 0
M  V30 11 C -3.59956 0.293237 -0.690892 0
M  V30 12 C -3.11692 -0.555993 0.291966 0
M  V30 13 C -1.72349 -0.569107 0.448994 0
M  V30 14 N -3.95513 -1.35989 1.08982 0
M  V30 15 H 5.3723 -0.484844 -0.242425 0
M  V30 16 H 5.24684 0.807674 0.971179 0
M  V30 17 H 3.04821 -1.26 1.69663 0
M  V30 18 H 0.648837 -1.23692 1.42555 0
M  V30 19 H 0.873883 1.60923 -1.67919 0
M  V30 20 H 3.38021 1.62341 -1.43813 0
M  V30 21 H -3.18802 1.72821 -2.22606 0
M  V30 22 H -4.66039 0.334747 -0.845098 0
M  V30 23 H -1.35496 -1.22913 1.21221 0
M  V30 24 H -4.22789 -1.04088 2.02687 0
M  V30 25 H -4.29316 -2.26219 0.737041 0
M  V30 END ATOM
M  V30 BEGIN BOND
M  V30 1 1 1 2
M  V30 2 2 2 3
M  V30 3 1 3 4
M  V30 4 2 4 5
M  V30 5 1 5 6
M  V30 6 2 6 7
M  V30 7 1 5 8
M  V30 8 2 8 9
M  V30 9 1 9 10
M  V30 10 2 10 11
M  V30 11 1 11 12
M  V30 12 2 12 13
M  V30 13 1 12 14
M  V30 14 1 7 2
M  V30 15 1 13 8
M  V30 16 1 1 15
M  V30 17 1 1 16
M  V30 18 1 3 17
M  V30 19 1 4 18
M  V30 20 1 6 19
M  V30 21 1 7 20
M  V30 22 1 10 21
M  V30 23 1 11 22
M  V30 24 1 13 23
M  V30 25 1 14 24
M  V30 26 1 14 25
M  V30 END BOND
M  V30 END CTAB
M  END
