
     RDKit          3D

  0  0  0  0  0  0  0  0  0  0999 V3000
M  V30 BEGIN CTAB
M  V30 COUNTS 17 17 0 0 0
M  V30 BEGIN ATOM
M  V30 1 N -2.43033 -0.682771 -0.706864 0
M  V30 2 C -1.54007 -0.398701 0.343097 0
M  V30 3 S -2.20613 -0.0962337 1.82476 0
M  V30 4 C -0.100804 -0.350748 0.229881 0
M  V30 5 C 0.710428 -1.48151 0.33089 0
M  V30 6 C 2.08353 -1.36503 0.212796 0
M  V30 7 N 2.6604 -0.1581 -0.00167327 0
M  V30 8 C 1.90805 0.954389 -0.104433 0
M  V30 9 C 0.536003 0.854069 0.01128 0
M  V30 10 N -0.240269 2.02582 -0.0981359 0
M  V30 11 H -2.40736 -1.53525 -1.30621 0
M  V30 12 H -3.19122 0.0299371 -0.908083 0
M  V30 13 H 0.264864 -2.42999 0.498857 0
M  V30 14 H 2.6549 -2.26486 0.298664 0
M  V30 15 H 2.35483 1.92465 -0.275586 0
M  V30 16 H -0.881962 2.39026 0.631658 0
M  V30 17 H -0.174842 2.58406 -0.980897 0
M  V30 END ATOM
M  V30 BEGIN BOND
M  V30 1 1 1 2
M  V30 2 2 2 3
M  V30 3 1 2 4
M  V30 4 2 4 5
M  V30 5 1 5 6
M  V30 6 2 6 7
M  V30 7 1 7 8
M  V30 8 2 8 9
M  V30 9 1 9 10
M  V30 10 1 9 4
M  V30 11 1 1 11
M  V30 12 1 1 12
M  V30 13 1 5 13
M  V30 14 1 6 14
M  V30 15 1 8 15
M  V30 16 1 10 16
M  V30 17 1 10 17
M  V30 END BOND
M  V30 END CTAB
M  END
