
     RDKit          3D

  0  0  0  0  0  0  0  0  0  0999 V3000
M  V30 BEGIN CTAB
M  V30 COUNTS 30 31 0 0 0
M  V30 BEGIN ATOM
M  V30 1 N -1.19663 -1.1381 -1.56834 0
M  V30 2 C -1.59798 -0.283852 -0.510262 0
M  V30 3 C -0.648563 0.421422 0.197334 0
M  V30 4 C -1.11905 1.23115 1.21197 0
M  V30 5 C -2.46418 1.33216 1.50535 0
M  V30 6 C -3.37844 0.62251 0.788073 0
M  V30 7 C -2.95009 -0.196036 -0.231629 0
M  V30 8 N -4.7893 0.690496 1.05263 0 CHG=1
M  V30 9 O -5.68363 -0.0389206 0.313627 0 CHG=-1
M  V30 10 O -5.15655 1.43951 1.97863 0
M  V30 11 C 0.753598 0.300463 -0.127027 0
M  V30 12 C 1.44515 -0.819132 0.261258 0
M  V30 13 N 0.759419 -1.83154 0.96901 0
M  V30 14 C 2.78042 -1.00142 -0.0096672 0
M  V30 15 C 3.47694 -0.0454348 -0.692874 0
M  V30 16 C 2.81404 1.09772 -1.10125 0
M  V30 17 C 1.46088 1.25887 -0.814708 0
M  V30 18 N 4.86661 -0.22868 -0.976987 0 CHG=1
M  V30 19 O 5.55968 0.732464 -1.6615 0 CHG=-1
M  V30 20 O 5.45192 -1.24418 -0.612737 0
M  V30 21 H -1.32017 -2.1644 -1.43571 0
M  V30 22 H -0.787062 -0.821745 -2.47059 0
M  V30 23 H -0.435166 1.81532 1.81145 0
M  V30 24 H -2.83313 1.9718 2.30639 0
M  V30 25 H -3.68176 -0.762215 -0.803965 0
M  V30 26 H 0.523225 -2.70692 0.467136 0
M  V30 27 H 0.484192 -1.73717 1.96209 0
M  V30 28 H 3.31977 -1.90192 0.307609 0
M  V30 29 H 3.3672 1.84423 -1.63825 0
M  V30 30 H 0.978653 2.16356 -1.14983 0
M  V30 END ATOM
M  V30 BEGIN BOND
M  V30 1 1 1 2
M  V30 2 2 2 3
M  V30 3 1 3 4
M  V30 4 2 4 5
M  V30 5 1 5 6
M  V30 6 2 6 7
M  V30 7 1 6 8
M  V30 8 1 8 9
M  V30 9 2 8 10
M  V30 10 1 3 11
M  V30 11 2 11 12
M  V30 12 1 12 13
M  V30 13 1 12 14
M  V30 14 2 14 15
M  V30 15 1 15 16
M  V30 16 2 16 17
M  V30 17 1 15 18
M  V30 18 1 18 19
M  V30 19 2 18 20
M  V30 20 1 7 2
M  V30 21 1 17 11
M  V30 22 1 1 21
M  V30 23 1 1 22
M  V30 24 1 4 23
M  V30 25 1 5 24
M  V30 26 1 7 25
M  V30 27 1 13 26
M  V30 28 1 13 27
M  V30 29 1 14 28
M  V30 30 1 16 29
M  V30 31 1 17 30
M  V30 END BOND
M  V30 END CTAB
M  END
