
     RDKit          3D

  0  0  0  0  0  0  0  0  0  0999 V3000
M  V30 BEGIN CTAB
M  V30 COUNTS 30 32 0 0 0
M  V30 BEGIN ATOM
M  V30 1 N 4.27728 2.9362 0.0738714 0
M  V30 2 C 3.94078 1.59086 -0.207015 0
M  V30 3 C 4.88091 0.574896 -0.101831 0
M  V30 4 C 4.5667 -0.713726 -0.394304 0
M  V30 5 N 5.48816 -1.78511 -0.251007 0
M  V30 6 N 3.306 -0.956395 -0.791937 0
M  V30 7 C 2.37382 0.031141 -0.897692 0
M  V30 8 N 2.67718 1.27406 -0.612599 0
M  V30 9 S 0.78455 -0.577405 -1.48229 0
M  V30 10 C -0.0601972 -1.39412 -0.0994951 0
M  V30 11 C -1.51707 -1.0607 -0.157166 0
M  V30 12 N -2.17369 -0.114336 0.483793 0
M  V30 13 C -3.46668 0.0132695 0.32123 0
M  V30 14 C -4.0813 -0.867569 -0.533192 0
M  V30 15 S -2.76815 -1.81884 -1.04417 0
M  V30 16 C -5.46711 -0.810661 -0.74983 0
M  V30 17 C -6.27886 0.113297 -0.126843 0
M  V30 18 C -5.61584 0.989806 0.732828 0
M  V30 19 C -4.28504 0.964936 0.9648 0
M  V30 20 H 3.78368 3.43339 0.827641 0
M  V30 21 H 5.03305 3.37805 -0.512973 0
M  V30 22 H 5.87464 0.871808 0.227552 0
M  V30 23 H 6.48525 -1.60906 -0.174009 0
M  V30 24 H 5.09525 -2.74909 -0.21455 0
M  V30 25 H 0.3643 -1.16535 0.883369 0
M  V30 26 H 0.00865688 -2.51173 -0.249915 0
M  V30 27 H -5.82982 -1.56364 -1.45149 0
M  V30 28 H -7.31714 0.110548 -0.324064 0
M  V30 29 H -6.23364 1.71897 1.23206 0
M  V30 30 H -3.84567 1.69649 1.65871 0
M  V30 END ATOM
M  V30 BEGIN BOND
M  V30 1 1 1 2
M  V30 2 2 2 3
M  V30 3 1 3 4
M  V30 4 1 4 5
M  V30 5 2 4 6
M  V30 6 1 6 7
M  V30 7 2 7 8
M  V30 8 1 7 9
M  V30 9 1 9 10
M  V30 10 1 10 11
M  V30 11 2 11 12
M  V30 12 1 12 13
M  V30 13 2 13 14
M  V30 14 1 14 15
M  V30 15 1 14 16
M  V30 16 2 16 17
M  V30 17 1 17 18
M  V30 18 2 18 19
M  V30 19 1 8 2
M  V30 20 1 15 11
M  V30 21 1 19 13
M  V30 22 1 1 20
M  V30 23 1 1 21
M  V30 24 1 3 22
M  V30 25 1 5 23
M  V30 26 1 5 24
M  V30 27 1 10 25
M  V30 28 1 10 26
M  V30 29 1 16 27
M  V30 30 1 17 28
M  V30 31 1 18 29
M  V30 32 1 19 30
M  V30 END BOND
M  V30 END CTAB
M  END
