
     RDKit          3D

  0  0  0  0  0  0  0  0  0  0999 V3000
M  V30 BEGIN CTAB
M  V30 COUNTS 18 18 0 0 0
M  V30 BEGIN ATOM
M  V30 1 N 3.37809 -0.975778 -0.287452 0
M  V30 2 N 2.00628 -1.02026 -0.0509988 0
M  V30 3 C 1.14646 0.0660648 -0.3731 0
M  V30 4 O 1.65662 1.08518 -0.884224 0
M  V30 5 C -0.280017 -0.0319117 -0.105387 0
M  V30 6 N -0.787384 -1.14776 0.44629 0
M  V30 7 C -2.10389 -1.25838 0.702003 0
M  V30 8 C -2.93405 -0.198046 0.386098 0
M  V30 9 N -2.45272 0.936453 -0.169329 0
M  V30 10 C -1.1206 1.01804 -0.415252 0
M  V30 11 N -0.530481 2.17083 -0.995653 0
M  V30 12 H 3.71482 0.00821698 -0.388347 0
M  V30 13 H 3.8552 -1.48866 0.480335 0
M  V30 14 H 1.62579 -1.91176 0.385685 0
M  V30 15 H -2.53603 -2.15286 1.1483 0
M  V30 16 H -4.00783 -0.310442 0.604027 0
M  V30 17 H 0.0177183 2.89081 -0.478294 0
M  V30 18 H -0.647974 2.32026 -2.02068 0
M  V30 END ATOM
M  V30 BEGIN BOND
M  V30 1 1 1 2
M  V30 2 1 2 3
M  V30 3 2 3 4
M  V30 4 1 3 5
M  V30 5 2 5 6
M  V30 6 1 6 7
M  V30 7 2 7 8
M  V30 8 1 8 9
M  V30 9 2 9 10
M  V30 10 1 10 11
M  V30 11 1 10 5
M  V30 12 1 1 12
M  V30 13 1 1 13
M  V30 14 1 2 14
M  V30 15 1 7 15
M  V30 16 1 8 16
M  V30 17 1 11 17
M  V30 18 1 11 18
M  V30 END BOND
M  V30 END CTAB
M  END
