
     RDKit          3D

  0  0  0  0  0  0  0  0  0  0999 V3000
M  V30 BEGIN CTAB
M  V30 COUNTS 58 60 0 0 0
M  V30 BEGIN ATOM
M  V30 1 N 7.32047 1.75657 1.42256 0
M  V30 2 C 6.4141 0.864083 0.755601 0
M  V30 3 C 6.22573 -0.421274 1.22084 0
M  V30 4 C 5.35393 -1.26078 0.56916 0
M  V30 5 C 4.65002 -0.864043 -0.546979 0
M  V30 6 C 3.72313 -1.75556 -1.25364 0
M  V30 7 C 2.32 -1.75466 -0.749664 0
M  V30 8 N 1.65073 -0.488746 -0.805557 0
M  V30 9 C 0.318211 -0.382925 -0.349145 0
M  V30 10 N -0.381118 0.752962 -0.363667 0
M  V30 11 C -1.62437 0.918536 0.0463541 0
M  V30 12 N -2.399 2.09572 0.0493355 0
M  V30 13 C -2.05893 3.38315 -0.370984 0
M  V30 14 C -3.02804 4.39097 -0.435889 0
M  V30 15 C -2.73495 5.67684 -0.836303 0
M  V30 16 N -3.75367 6.65828 -0.883865 0
M  V30 17 C -1.45645 6.0119 -1.19024 0
M  V30 18 C -0.489984 5.05822 -1.13894 0
M  V30 19 C -0.79952 3.74643 -0.728135 0
M  V30 20 N -2.23108 -0.21411 0.531747 0
M  V30 21 C -1.5921 -1.39301 0.578183 0
M  V30 22 N -2.2819 -2.53642 1.09591 0
M  V30 23 C -3.62134 -2.48619 1.56723 0
M  V30 24 C -4.24959 -3.789 1.82577 0
M  V30 25 C -4.58068 -4.73223 0.76735 0
M  V30 26 C -3.60861 -5.26971 -0.186196 0
M  V30 27 O -3.05893 -4.33109 -1.0449 0
M  V30 28 N -0.33604 -1.4755 0.143995 0
M  V30 29 C 4.83865 0.415456 -1.00902 0
M  V30 30 C 5.71804 1.2778 -0.36001 0
M  V30 31 H 7.49681 1.61615 2.46036 0
M  V30 32 H 7.81083 2.52645 0.953564 0
M  V30 33 H 6.79395 -0.704057 2.10125 0
M  V30 34 H 5.24502 -2.27027 0.984334 0
M  V30 35 H 3.7001 -1.55752 -2.3552 0
M  V30 36 H 4.0936 -2.81009 -1.17048 0
M  V30 37 H 1.75407 -2.47156 -1.40585 0
M  V30 38 H 2.26911 -2.21485 0.262433 0
M  V30 39 H 2.13229 0.339797 -1.17467 0
M  V30 40 H -3.41718 2.02814 0.431412 0
M  V30 41 H -4.05701 4.19297 -0.170149 0
M  V30 42 H -4.58254 6.62233 -0.236344 0
M  V30 43 H -3.66054 7.42653 -1.58518 0
M  V30 44 H -1.22303 7.02488 -1.50628 0
M  V30 45 H 0.514902 5.33811 -1.42152 0
M  V30 46 H 0.0507957 3.0894 -0.724942 0
M  V30 47 H -1.72769 -3.42562 1.1431 0
M  V30 48 H -4.26575 -1.79109 0.958658 0
M  V30 49 H -3.5766 -1.94569 2.56887 0
M  V30 50 H -3.58578 -4.33219 2.60285 0
M  V30 51 H -5.19558 -3.65467 2.47533 0
M  V30 52 H -5.46621 -4.29939 0.182731 0
M  V30 53 H -5.06866 -5.64558 1.27637 0
M  V30 54 H -4.06443 -6.04819 -0.878363 0
M  V30 55 H -2.78187 -5.87227 0.311708 0
M  V30 56 H -3.65005 -4.137 -1.80665 0
M  V30 57 H 4.34407 0.835447 -1.87834 0
M  V30 58 H 5.87067 2.28816 -0.719903 0
M  V30 END ATOM
M  V30 BEGIN BOND
M  V30 1 1 1 2
M  V30 2 2 2 3
M  V30 3 1 3 4
M  V30 4 2 4 5
M  V30 5 1 5 6
M  V30 6 1 6 7
M  V30 7 1 7 8
M  V30 8 1 8 9
M  V30 9 2 9 10
M  V30 10 1 10 11
M  V30 11 1 11 12
M  V30 12 1 12 13
M  V30 13 2 13 14
M  V30 14 1 14 15
M  V30 15 1 15 16
M  V30 16 2 15 17
M  V30 17 1 17 18
M  V30 18 2 18 19
M  V30 19 2 11 20
M  V30 20 1 20 21
M  V30 21 1 21 22
M  V30 22 1 22 23
M  V30 23 1 23 24
M  V30 24 1 24 25
M  V30 25 1 25 26
M  V30 26 1 26 27
M  V30 27 2 21 28
M  V30 28 1 5 29
M  V30 29 2 29 30
M  V30 30 1 30 2
M  V30 31 1 28 9
M  V30 32 1 19 13
M  V30 33 1 1 31
M  V30 34 1 1 32
M  V30 35 1 3 33
M  V30 36 1 4 34
M  V30 37 1 6 35
M  V30 38 1 6 36
M  V30 39 1 7 37
M  V30 40 1 7 38
M  V30 41 1 8 39
M  V30 42 1 12 40
M  V30 43 1 14 41
M  V30 44 1 16 42
M  V30 45 1 16 43
M  V30 46 1 17 44
M  V30 47 1 18 45
M  V30 48 1 19 46
M  V30 49 1 22 47
M  V30 50 1 23 48
M  V30 51 1 23 49
M  V30 52 1 24 50
M  V30 53 1 24 51
M  V30 54 1 25 52
M  V30 55 1 25 53
M  V30 56 1 26 54
M  V30 57 1 26 55
M  V30 58 1 27 56
M  V30 59 1 29 57
M  V30 60 1 30 58
M  V30 END BOND
M  V30 END CTAB
M  END
