
     RDKit          3D

  0  0  0  0  0  0  0  0  0  0999 V3000
M  V30 BEGIN CTAB
M  V30 COUNTS 22 22 0 0 0
M  V30 BEGIN ATOM
M  V30 1 O -3.30389 1.59753 -0.0322942 0
M  V30 2 C -2.10469 1.0065 0.300813 0
M  V30 3 O -1.8546 0.778767 1.4965 0
M  V30 4 C -1.1395 0.652662 -0.743532 0
M  V30 5 C 0.0901688 0.0154982 -0.219824 0
M  V30 6 C 0.0495883 -1.31211 0.135632 0
M  V30 7 N -1.16496 -2.00842 -0.0265698 0
M  V30 8 C 1.16909 -1.97925 0.636364 0
M  V30 9 C 2.32897 -1.24654 0.761895 0
M  V30 10 C 2.37048 0.0839033 0.406789 0
M  V30 11 C 1.24564 0.751463 -0.0957066 0
M  V30 12 N 1.28723 2.12108 -0.460296 0
M  V30 13 Cl 3.84485 1.01095 0.565494 0
M  V30 14 H -4.05969 1.13903 -0.522175 0
M  V30 15 H -1.5738 -0.133153 -1.44708 0
M  V30 16 H -0.918833 1.49622 -1.42029 0
M  V30 17 H -1.84226 -2.03473 0.749652 0
M  V30 18 H -1.3741 -2.48782 -0.915581 0
M  V30 19 H 1.10944 -3.02171 0.907527 0
M  V30 20 H 3.21839 -1.7143 1.1422 0
M  V30 21 H 0.834443 2.87252 0.102268 0
M  V30 22 H 1.78805 2.4119 -1.32179 0
M  V30 END ATOM
M  V30 BEGIN BOND
M  V30 1 1 1 2
M  V30 2 2 2 3
M  V30 3 1 2 4
M  V30 4 1 4 5
M  V30 5 2 5 6
M  V30 6 1 6 7
M  V30 7 1 6 8
M  V30 8 2 8 9
M  V30 9 1 9 10
M  V30 10 2 10 11
M  V30 11 1 11 12
M  V30 12 1 10 13
M  V30 13 1 11 5
M  V30 14 1 1 14
M  V30 15 1 4 15
M  V30 16 1 4 16
M  V30 17 1 7 17
M  V30 18 1 7 18
M  V30 19 1 8 19
M  V30 20 1 9 20
M  V30 21 1 12 21
M  V30 22 1 12 22
M  V30 END BOND
M  V30 END CTAB
M  END
