
     RDKit          3D

  0  0  0  0  0  0  0  0  0  0999 V3000
M  V30 BEGIN CTAB
M  V30 COUNTS 24 23 0 0 0
M  V30 BEGIN ATOM
M  V30 1 C 2.82423 -0.0335842 -0.799268 0
M  V30 2 C 2.03459 -0.73516 0.24099 0
M  V30 3 C 0.591521 -0.931186 -0.0459377 0
M  V30 4 C -0.221185 0.290006 -0.258292 0
M  V30 5 C -0.247078 1.23364 0.903114 0
M  V30 6 C -1.67459 -0.162445 -0.453241 0
M  V30 7 N -2.16074 -0.874034 0.695534 0
M  V30 8 N -2.54906 0.948214 -0.692635 0
M  V30 9 H 3.60224 0.605677 -0.307769 0
M  V30 10 H 3.42134 -0.756071 -1.42879 0
M  V30 11 H 2.22087 0.545164 -1.51744 0
M  V30 12 H 2.50403 -1.72409 0.427177 0
M  V30 13 H 2.14108 -0.182987 1.21795 0
M  V30 14 H 0.136781 -1.51277 0.781623 0
M  V30 15 H 0.493887 -1.57105 -0.952268 0
M  V30 16 H 0.0327961 0.847471 -1.18629 0
M  V30 17 H -0.880009 2.10213 0.624106 0
M  V30 18 H -0.734426 0.767424 1.79093 0
M  V30 19 H 0.722617 1.62353 1.20925 0
M  V30 20 H -1.74961 -0.858019 -1.32833 0
M  V30 21 H -2.55854 -0.274401 1.42306 0
M  V30 22 H -2.64364 -1.75039 0.503125 0
M  V30 23 H -1.99811 1.75039 -1.04587 0
M  V30 24 H -3.30901 0.652548 -1.35924 0
M  V30 END ATOM
M  V30 BEGIN BOND
M  V30 1 1 1 2
M  V30 2 1 2 3
M  V30 3 1 3 4
M  V30 4 1 4 5
M  V30 5 1 4 6
M  V30 6 1 6 7
M  V30 7 1 6 8
M  V30 8 1 1 9
M  V30 9 1 1 10
M  V30 10 1 1 11
M  V30 11 1 2 12
M  V30 12 1 2 13
M  V30 13 1 3 14
M  V30 14 1 3 15
M  V30 15 1 4 16
M  V30 16 1 5 17
M  V30 17 1 5 18
M  V30 18 1 5 19
M  V30 19 1 6 20
M  V30 20 1 7 21
M  V30 21 1 7 22
M  V30 22 1 8 23
M  V30 23 1 8 24
M  V30 END BOND
M  V30 END CTAB
M  END
