
     RDKit          3D

  0  0  0  0  0  0  0  0  0  0999 V3000
M  V30 BEGIN CTAB
M  V30 COUNTS 22 21 0 0 0
M  V30 BEGIN ATOM
M  V30 1 N 3.8289 0.415169 -1.34198 0
M  V30 2 N 2.68437 0.663061 -0.716814 0
M  V30 3 C 1.5236 0.914553 -0.0827118 0
M  V30 4 O 1.34786 1.86698 0.764203 0
M  V30 5 C 0.278523 0.0380933 -0.349376 0
M  V30 6 C -0.768342 0.453737 0.610749 0
M  V30 7 C -2.09517 -0.222739 0.512122 0
M  V30 8 N -2.94089 0.319345 1.55698 0
M  V30 9 C -2.10675 -1.67177 0.585603 0
M  V30 10 O -1.48642 -2.50702 -0.35281 0
M  V30 11 O -2.69606 -2.24777 1.52299 0
M  V30 12 H 4.59315 0.0724055 -0.749413 0
M  V30 13 H 4.08281 0.978905 -2.12642 0
M  V30 14 H 3.32636 1.72468 -0.132621 0
M  V30 15 H 0.655306 -0.981525 -0.253087 0
M  V30 16 H 0.0348409 0.310472 -1.40195 0
M  V30 17 H -0.414455 0.420184 1.64816 0
M  V30 18 H -0.978969 1.54464 0.390068 0
M  V30 19 H -2.56489 0.146044 -0.441867 0
M  V30 20 H -3.07881 -0.418113 2.27705 0
M  V30 21 H -2.57206 1.1628 2.02332 0
M  V30 22 H -0.652929 -2.98213 -0.059867 0
M  V30 END ATOM
M  V30 BEGIN BOND
M  V30 1 1 1 2
M  V30 2 1 2 3
M  V30 3 2 3 4
M  V30 4 1 3 5
M  V30 5 1 5 6
M  V30 6 1 6 7
M  V30 7 1 7 8
M  V30 8 1 7 9
M  V30 9 1 9 10
M  V30 10 2 9 11
M  V30 11 1 1 12
M  V30 12 1 1 13
M  V30 13 1 2 14
M  V30 14 1 5 15
M  V30 15 1 5 16
M  V30 16 1 6 17
M  V30 17 1 6 18
M  V30 18 1 7 19
M  V30 19 1 8 20
M  V30 20 1 8 21
M  V30 21 1 10 22
M  V30 END BOND
M  V30 END CTAB
M  END
