
     RDKit          3D

  0  0  0  0  0  0  0  0  0  0999 V3000
M  V30 BEGIN CTAB
M  V30 COUNTS 31 33 0 0 0
M  V30 BEGIN ATOM
M  V30 1 Br -6.25137 2.4548 0.25091 0
M  V30 2 C -4.58313 1.56194 0.136227 0
M  V30 3 C -3.40355 2.27451 0.146538 0
M  V30 4 C -2.22076 1.58813 0.0559625 0
M  V30 5 C -2.15404 0.19775 -0.0449089 0
M  V30 6 C -3.33089 -0.517665 -0.0542898 0
M  V30 7 C -4.5354 0.183045 0.0373032 0
M  V30 8 N -3.34621 -1.93948 -0.154004 0
M  V30 9 C -0.867553 -0.479026 -0.132925 0
M  V30 10 O -0.617289 -1.75665 -0.247162 0
M  V30 11 N 0.671963 -1.97557 -0.295537 0
M  V30 12 C 1.29719 -0.809243 -0.211159 0
M  V30 13 N 0.345704 0.118205 -0.111251 0
M  V30 14 C 2.74096 -0.583782 -0.224976 0
M  V30 15 N 3.54285 -1.65524 -0.7644 0
M  V30 16 C 3.32394 0.0584143 1.02758 0
M  V30 17 C 4.28253 0.770796 0.0776971 0
M  V30 18 C 3.159 0.712896 -0.94243 0
M  V30 19 H -3.4576 3.35787 0.220561 0
M  V30 20 H -1.28201 2.12867 0.0641103 0
M  V30 21 H -5.47139 -0.355676 0.0226767 0
M  V30 22 H -2.87218 -2.53783 0.554306 0
M  V30 23 H -3.83195 -2.41212 -0.941718 0
M  V30 24 H 3.08132 -2.01264 -1.61889 0
M  V30 25 H 3.83519 -2.35786 -0.0777409 0
M  V30 26 H 2.63309 0.764292 1.47089 0
M  V30 27 H 3.83515 -0.662044 1.70923 0
M  V30 28 H 4.58056 1.77664 0.392161 0
M  V30 29 H 5.07848 0.0730946 -0.22651 0
M  V30 30 H 3.45677 0.557175 -1.98947 0
M  V30 31 H 2.36065 1.47661 -0.789282 0
M  V30 END ATOM
M  V30 BEGIN BOND
M  V30 1 1 1 2
M  V30 2 2 2 3
M  V30 3 1 3 4
M  V30 4 2 4 5
M  V30 5 1 5 6
M  V30 6 2 6 7
M  V30 7 1 6 8
M  V30 8 1 5 9
M  V30 9 1 9 10
M  V30 10 1 10 11
M  V30 11 2 11 12
M  V30 12 1 12 13
M  V30 13 1 12 14
M  V30 14 1 14 15
M  V30 15 1 14 16
M  V30 16 1 16 17
M  V30 17 1 17 18
M  V30 18 1 7 2
M  V30 19 2 13 9
M  V30 20 1 18 14
M  V30 21 1 3 19
M  V30 22 1 4 20
M  V30 23 1 7 21
M  V30 24 1 8 22
M  V30 25 1 8 23
M  V30 26 1 15 24
M  V30 27 1 15 25
M  V30 28 1 16 26
M  V30 29 1 16 27
M  V30 30 1 17 28
M  V30 31 1 17 29
M  V30 32 1 18 30
M  V30 33 1 18 31
M  V30 END BOND
M  V30 END CTAB
M  END
