
     RDKit          3D

  0  0  0  0  0  0  0  0  0  0999 V3000
M  V30 BEGIN CTAB
M  V30 COUNTS 29 29 0 0 0
M  V30 BEGIN ATOM
M  V30 1 C 4.38755 -1.91565 -0.218398 0
M  V30 2 O 3.72238 -0.736932 0.228919 0
M  V30 3 C 2.38306 -0.511986 -0.0247865 0
M  V30 4 O 1.74875 -1.38324 -0.669317 0
M  V30 5 C 1.78645 0.749332 0.484867 0
M  V30 6 C 0.359479 0.888448 0.159024 0
M  V30 7 C -0.0494642 1.71709 -0.859813 0
M  V30 8 C -1.38866 1.86808 -1.19699 0
M  V30 9 N -1.73661 2.74022 -2.26219 0
M  V30 10 C -2.35508 1.17344 -0.499604 0
M  V30 11 C -1.95845 0.328154 0.537488 0
M  V30 12 C -0.60804 0.194015 0.856412 0
M  V30 13 N -0.291634 -0.679679 1.92994 0
M  V30 14 O -2.95905 -0.352855 1.2152 0
M  V30 15 C -3.40447 -1.61568 0.79854 0
M  V30 16 F -4.40197 -2.06252 1.64764 0
M  V30 17 F -2.4438 -2.57478 0.707741 0
M  V30 18 F -3.9573 -1.46104 -0.4619 0
M  V30 19 H 4.04324 -2.10714 -1.24173 0
M  V30 20 H 5.46774 -1.7384 -0.256779 0
M  V30 21 H 4.10124 -2.7145 0.494349 0
M  V30 22 H 2.32865 1.61109 0.0231179 0
M  V30 23 H 1.96847 0.865774 1.5861 0
M  V30 24 H 0.683931 2.29311 -1.44571 0
M  V30 25 H -1.26093 2.58933 -3.17841 0
M  V30 26 H -2.42628 3.51298 -2.1952 0
M  V30 27 H -3.38045 1.3041 -0.775475 0
M  V30 28 H 0.122847 -1.6058 1.71071 0
M  V30 29 H -0.481598 -0.374963 2.90627 0
M  V30 END ATOM
M  V30 BEGIN BOND
M  V30 1 1 1 2
M  V30 2 1 2 3
M  V30 3 2 3 4
M  V30 4 1 3 5
M  V30 5 1 5 6
M  V30 6 2 6 7
M  V30 7 1 7 8
M  V30 8 1 8 9
M  V30 9 2 8 10
M  V30 10 1 10 11
M  V30 11 2 11 12
M  V30 12 1 12 13
M  V30 13 1 11 14
M  V30 14 1 14 15
M  V30 15 1 15 16
M  V30 16 1 15 17
M  V30 17 1 15 18
M  V30 18 1 12 6
M  V30 19 1 1 19
M  V30 20 1 1 20
M  V30 21 1 1 21
M  V30 22 1 5 22
M  V30 23 1 5 23
M  V30 24 1 7 24
M  V30 25 1 9 25
M  V30 26 1 9 26
M  V30 27 1 10 27
M  V30 28 1 13 28
M  V30 29 1 13 29
M  V30 END BOND
M  V30 END CTAB
M  END
