
     RDKit          3D

  0  0  0  0  0  0  0  0  0  0999 V3000
M  V30 BEGIN CTAB
M  V30 COUNTS 26 26 0 0 0
M  V30 BEGIN ATOM
M  V30 1 C 4.77957 0.374914 0.568825 0
M  V30 2 N 3.79668 -0.347304 -0.202917 0
M  V30 3 C 2.4265 -0.400586 0.131785 0
M  V30 4 O 1.92454 0.155284 1.12129 0
M  V30 5 C 1.49641 -1.18368 -0.769642 0
M  V30 6 S 0.322165 -0.0982075 -1.61957 0
M  V30 7 C -0.869239 0.561611 -0.468775 0
M  V30 8 N -0.69695 1.67094 0.267032 0
M  V30 9 C -1.63396 2.13218 1.10005 0
M  V30 10 C -2.84273 1.45708 1.22864 0
M  V30 11 C -3.0888 0.3089 0.503785 0
M  V30 12 C -2.09042 -0.130738 -0.344383 0
M  V30 13 N -2.28862 -1.28274 -1.10662 0
M  V30 14 N -4.29023 -0.423015 0.592611 0
M  V30 15 H 5.82535 0.124616 0.214418 0
M  V30 16 H 4.59831 1.46399 0.440037 0
M  V30 17 H 4.74419 0.0706601 1.62782 0
M  V30 18 H 4.13905 -0.863198 -1.06489 0
M  V30 19 H 2.15706 -1.62327 -1.57109 0
M  V30 20 H 1.03302 -2.00498 -0.224746 0
M  V30 21 H -1.51882 3.01749 1.70005 0
M  V30 22 H -3.60903 1.82474 1.89723 0
M  V30 23 H -2.89897 -1.16362 -1.97209 0
M  V30 24 H -1.92225 -2.23181 -0.936419 0
M  V30 25 H -4.28789 -1.46454 0.528064 0
M  V30 26 H -5.20496 0.0552853 0.720889 0
M  V30 END ATOM
M  V30 BEGIN BOND
M  V30 1 1 1 2
M  V30 2 1 2 3
M  V30 3 2 3 4
M  V30 4 1 3 5
M  V30 5 1 5 6
M  V30 6 1 6 7
M  V30 7 2 7 8
M  V30 8 1 8 9
M  V30 9 2 9 10
M  V30 10 1 10 11
M  V30 11 2 11 12
M  V30 12 1 12 13
M  V30 13 1 11 14
M  V30 14 1 12 7
M  V30 15 1 1 15
M  V30 16 1 1 16
M  V30 17 1 1 17
M  V30 18 1 2 18
M  V30 19 1 5 19
M  V30 20 1 5 20
M  V30 21 1 9 21
M  V30 22 1 10 22
M  V30 23 1 13 23
M  V30 24 1 13 24
M  V30 25 1 14 25
M  V30 26 1 14 26
M  V30 END BOND
M  V30 END CTAB
M  END
