
     RDKit          3D

  0  0  0  0  0  0  0  0  0  0999 V3000
M  V30 BEGIN CTAB
M  V30 COUNTS 24 24 0 0 0
M  V30 BEGIN ATOM
M  V30 1 C -4.07107 -0.50358 0.151494 0
M  V30 2 C -2.61218 -0.732936 -0.125828 0
M  V30 3 C -1.82337 0.35071 0.487394 0
M  V30 4 O -2.41951 1.25982 1.1158 0
M  V30 5 C -0.367849 0.415453 0.396459 0
M  V30 6 C 0.312133 1.45311 0.990421 0
M  V30 7 C 1.69773 1.55425 0.928844 0
M  V30 8 C 2.45053 0.608724 0.263338 0
M  V30 9 N 3.88105 0.705703 0.195059 0
M  V30 10 C 1.77277 -0.43445 -0.334308 0
M  V30 11 N 2.52808 -1.41219 -1.02039 0
M  V30 12 C 0.383917 -0.527855 -0.267551 0
M  V30 13 H -4.41772 -1.11288 1.0193 0
M  V30 14 H -4.21542 0.579894 0.356921 0
M  V30 15 H -4.66621 -0.853544 -0.717002 0
M  V30 16 H -2.40073 -0.808339 -1.21495 0
M  V30 17 H -2.31684 -1.71135 0.342791 0
M  V30 18 H -0.251071 2.21794 1.5246 0
M  V30 19 H 2.20983 2.37977 1.40399 0
M  V30 20 H 4.43154 0.85399 1.07204 0
M  V30 21 H 4.40797 0.634268 -0.702394 0
M  V30 22 H 2.69519 -1.3698 -2.0392 0
M  V30 23 H 2.92585 -2.19687 -0.47747 0
M  V30 24 H -0.134608 -1.34984 -0.739885 0
M  V30 END ATOM
M  V30 BEGIN BOND
M  V30 1 1 1 2
M  V30 2 1 2 3
M  V30 3 2 3 4
M  V30 4 1 3 5
M  V30 5 2 5 6
M  V30 6 1 6 7
M  V30 7 2 7 8
M  V30 8 1 8 9
M  V30 9 1 8 10
M  V30 10 1 10 11
M  V30 11 2 10 12
M  V30 12 1 12 5
M  V30 13 1 1 13
M  V30 14 1 1 14
M  V30 15 1 1 15
M  V30 16 1 2 16
M  V30 17 1 2 17
M  V30 18 1 6 18
M  V30 19 1 7 19
M  V30 20 1 9 20
M  V30 21 1 9 21
M  V30 22 1 11 22
M  V30 23 1 11 23
M  V30 24 1 12 24
M  V30 END BOND
M  V30 END CTAB
M  END
