
     RDKit          3D

  0  0  0  0  0  0  0  0  0  0999 V3000
M  V30 BEGIN CTAB
M  V30 COUNTS 17 17 0 0 0
M  V30 BEGIN ATOM
M  V30 1 N 3.44657 0.253947 0.0761053 0
M  V30 2 C 2.04244 0.0951627 0.0942336 0
M  V30 3 C 1.24464 0.883884 -0.706402 0
M  V30 4 N -0.0914265 0.757337 -0.711802 0
M  V30 5 C -0.718218 -0.144657 0.0630993 0
M  V30 6 C 0.0725533 -0.943656 0.87258 0
M  V30 7 N 1.41026 -0.805102 0.867048 0
M  V30 8 C -2.16682 -0.257578 0.0348495 0
M  V30 9 N -2.83448 -1.09435 0.745847 0
M  V30 10 N -2.89379 0.601916 -0.824601 0
M  V30 11 H 4.00513 0.11266 -0.767884 0
M  V30 12 H 3.92719 0.524854 0.95622 0
M  V30 13 H 1.76235 1.61846 -1.33681 0
M  V30 14 H -0.440644 -1.66704 1.49308 0
M  V30 15 H -2.46588 -1.77862 1.41087 0
M  V30 16 H -2.59153 1.58991 -0.93613 0
M  V30 17 H -3.70833 0.252859 -1.3303 0
M  V30 END ATOM
M  V30 BEGIN BOND
M  V30 1 1 1 2
M  V30 2 2 2 3
M  V30 3 1 3 4
M  V30 4 2 4 5
M  V30 5 1 5 6
M  V30 6 2 6 7
M  V30 7 1 5 8
M  V30 8 2 8 9 CFG=2
M  V30 9 1 8 10
M  V30 10 1 7 2
M  V30 11 1 1 11
M  V30 12 1 1 12
M  V30 13 1 3 13
M  V30 14 1 6 14
M  V30 15 1 9 15
M  V30 16 1 10 16
M  V30 17 1 10 17
M  V30 END BOND
M  V30 END CTAB
M  END
