
     RDKit          3D

  0  0  0  0  0  0  0  0  0  0999 V3000
M  V30 BEGIN CTAB
M  V30 COUNTS 64 68 0 0 0
M  V30 BEGIN ATOM
M  V30 1 C -2.71934 -2.18522 -1.1733 0
M  V30 2 C -2.78336 -1.11411 -0.124556 0
M  V30 3 N -1.53082 -0.418115 -0.0433519 0
M  V30 4 C -0.337933 -1.12383 0.290295 0
M  V30 5 N -0.389589 -2.44388 0.529111 0
M  V30 6 C 0.689069 -3.18702 0.850547 0
M  V30 7 N 0.60413 -4.58028 1.09753 0
M  V30 8 N 1.87128 -2.52072 0.925186 0
M  V30 9 C 1.96589 -1.20059 0.693609 0
M  V30 10 N 0.852729 -0.517555 0.377615 0
M  V30 11 C 3.27322 -0.578878 0.797697 0
M  V30 12 C 3.4234 0.769441 0.570289 0
M  V30 13 C 4.65366 1.4027 0.659268 0
M  V30 14 C 5.77666 0.673588 0.985527 0
M  V30 15 C 7.10929 1.34771 1.08435 0
M  V30 16 C 7.78297 1.30801 -0.281373 0 CFG=2
M  V30 17 N 7.97151 -0.0428223 -0.715958 0
M  V30 18 C 9.03482 2.07702 -0.258703 0
M  V30 19 O 10.2446 1.50931 -0.628021 0
M  V30 20 O 9.02923 3.27588 0.10003 0
M  V30 21 C 5.64671 -0.674788 1.21635 0
M  V30 22 C 4.41249 -1.28105 1.12165 0
M  V30 23 C -3.95875 -0.196804 -0.289006 0
M  V30 24 C -3.93422 0.853261 0.822881 0
M  V30 25 C -5.20598 1.67485 0.806013 0
M  V30 26 C -5.272 2.4083 -0.519814 0
M  V30 27 C -5.21626 1.40394 -1.62954 0
M  V30 28 C -6.47472 0.564803 -1.56115 0
M  V30 29 C -6.47055 -0.156397 -0.243141 0
M  V30 30 C -6.40263 0.773203 0.941981 0
M  V30 31 C -5.23067 -1.02587 -0.201079 0
M  V30 32 C -3.97038 0.544702 -1.58629 0
M  V30 33 H -3.4484 -1.97388 -1.96326 0
M  V30 34 H -1.71237 -2.1609 -1.68084 0
M  V30 35 H -2.80107 -3.20908 -0.759578 0
M  V30 36 H -2.94114 -1.64731 0.85943 0
M  V30 37 H -1.4834 0.620262 -0.230111 0
M  V30 38 H 1.46254 -5.12765 1.24969 0
M  V30 39 H -0.314559 -5.05112 1.12605 0
M  V30 40 H 2.57643 1.36613 0.315417 0
M  V30 41 H 4.76706 2.471 0.478154 0
M  V30 42 H 7.01909 2.40462 1.39991 0
M  V30 43 H 7.75896 0.793842 1.77961 0
M  V30 44 H 7.06683 1.78849 -0.991092 0
M  V30 45 H 7.88278 -0.0935721 -1.7697 0
M  V30 46 H 8.89652 -0.444195 -0.418646 0
M  V30 47 H 10.3165 0.829195 -1.38412 0
M  V30 48 H 6.51969 -1.2415 1.46993 0
M  V30 49 H 4.30451 -2.33795 1.30154 0
M  V30 50 H -3.76522 0.399088 1.8093 0
M  V30 51 H -3.11116 1.55714 0.559193 0
M  V30 52 H -5.15081 2.39161 1.62935 0
M  V30 53 H -6.26958 2.89055 -0.559077 0
M  V30 54 H -4.51233 3.20206 -0.591961 0
M  V30 55 H -5.23451 1.9576 -2.58669 0
M  V30 56 H -6.52009 -0.18613 -2.35767 0
M  V30 57 H -7.32812 1.28329 -1.63259 0
M  V30 58 H -7.3338 -0.821392 -0.0945539 0
M  V30 59 H -6.20395 0.117306 1.83722 0
M  V30 60 H -7.3302 1.34519 1.0761 0
M  V30 61 H -5.22644 -1.66277 0.719417 0
M  V30 62 H -5.25226 -1.70808 -1.05461 0
M  V30 63 H -3.96851 -0.0734211 -2.4829 0
M  V30 64 H -3.10741 1.24267 -1.66755 0
M  V30 END ATOM
M  V30 BEGIN BOND
M  V30 1 1 1 2
M  V30 2 1 2 3
M  V30 3 1 3 4
M  V30 4 2 4 5
M  V30 5 1 5 6
M  V30 6 1 6 7
M  V30 7 2 6 8
M  V30 8 1 8 9
M  V30 9 2 9 10
M  V30 10 1 9 11
M  V30 11 2 11 12
M  V30 12 1 12 13
M  V30 13 2 13 14
M  V30 14 1 14 15
M  V30 15 1 15 16
M  V30 16 1 16 17
M  V30 17 1 16 18
M  V30 18 1 18 19
M  V30 19 2 18 20
M  V30 20 1 14 21
M  V30 21 2 21 22
M  V30 22 1 2 23
M  V30 23 1 23 24
M  V30 24 1 24 25
M  V30 25 1 25 26
M  V30 26 1 26 27
M  V30 27 1 27 28
M  V30 28 1 28 29
M  V30 29 1 29 30
M  V30 30 1 29 31
M  V30 31 1 27 32
M  V30 32 1 10 4
M  V30 33 1 22 11
M  V30 34 1 31 23
M  V30 35 1 32 23
M  V30 36 1 30 25
M  V30 37 1 1 33
M  V30 38 1 1 34
M  V30 39 1 1 35
M  V30 40 1 2 36
M  V30 41 1 3 37
M  V30 42 1 7 38
M  V30 43 1 7 39
M  V30 44 1 12 40
M  V30 45 1 13 41
M  V30 46 1 15 42
M  V30 47 1 15 43
M  V30 48 1 16 44 CFG=3
M  V30 49 1 17 45
M  V30 50 1 17 46
M  V30 51 1 19 47
M  V30 52 1 21 48
M  V30 53 1 22 49
M  V30 54 1 24 50
M  V30 55 1 24 51
M  V30 56 1 25 52
M  V30 57 1 26 53
M  V30 58 1 26 54
M  V30 59 1 27 55
M  V30 60 1 28 56
M  V30 61 1 28 57
M  V30 62 1 29 58
M  V30 63 1 30 59
M  V30 64 1 30 60
M  V30 65 1 31 61
M  V30 66 1 31 62
M  V30 67 1 32 63
M  V30 68 1 32 64
M  V30 END BOND
M  V30 END CTAB
M  END
