
     RDKit          3D

  0  0  0  0  0  0  0  0  0  0999 V3000
M  V30 BEGIN CTAB
M  V30 COUNTS 26 27 0 0 0
M  V30 BEGIN ATOM
M  V30 1 N 3.94517 -0.544082 0.158192 0
M  V30 2 C 2.54199 -0.328477 0.331005 0
M  V30 3 C 1.89057 -0.666579 1.49893 0
M  V30 4 C 0.537243 -0.443527 1.62818 0
M  V30 5 C -0.231343 0.115403 0.628663 0
M  V30 6 C 0.420914 0.453247 -0.539037 0
M  V30 7 C 1.78625 0.231515 -0.677626 0
M  V30 8 N 2.48158 0.57739 -1.88699 0
M  V30 9 C -1.66116 0.343797 0.783499 0
M  V30 10 C -2.34928 0.882479 1.85084 0
M  V30 11 O -3.64626 0.90662 1.56726 0
M  V30 12 C -3.81625 0.405103 0.361396 0
M  V30 13 C -2.60195 0.0381517 -0.170532 0
M  V30 14 C -2.37344 -0.555809 -1.48602 0
M  V30 15 H 4.26485 -1.0111 -0.717891 0
M  V30 16 H 4.66389 -0.260556 0.858458 0
M  V30 17 H 2.469 -1.10586 2.2974 0
M  V30 18 H 0.0283494 -0.711556 2.55025 0
M  V30 19 H -0.129482 0.899785 -1.36957 0
M  V30 20 H 3.10455 1.41162 -1.8895 0
M  V30 21 H 2.34792 -0.0164604 -2.74173 0
M  V30 22 H -1.86566 1.21743 2.75309 0
M  V30 23 H -4.79326 0.317046 -0.0982451 0
M  V30 24 H -1.45684 -1.14219 -1.58725 0
M  V30 25 H -2.34295 0.226315 -2.30021 0
M  V30 26 H -3.21438 -1.23971 -1.80256 0
M  V30 END ATOM
M  V30 BEGIN BOND
M  V30 1 1 1 2
M  V30 2 2 2 3
M  V30 3 1 3 4
M  V30 4 2 4 5
M  V30 5 1 5 6
M  V30 6 2 6 7
M  V30 7 1 7 8
M  V30 8 1 5 9
M  V30 9 2 9 10
M  V30 10 1 10 11
M  V30 11 1 11 12
M  V30 12 2 12 13
M  V30 13 1 13 14
M  V30 14 1 7 2
M  V30 15 1 13 9
M  V30 16 1 1 15
M  V30 17 1 1 16
M  V30 18 1 3 17
M  V30 19 1 4 18
M  V30 20 1 6 19
M  V30 21 1 8 20
M  V30 22 1 8 21
M  V30 23 1 10 22
M  V30 24 1 12 23
M  V30 25 1 14 24
M  V30 26 1 14 25
M  V30 27 1 14 26
M  V30 END BOND
M  V30 END CTAB
M  END
