
     RDKit          3D

  0  0  0  0  0  0  0  0  0  0999 V3000
M  V30 BEGIN CTAB
M  V30 COUNTS 28 29 0 0 0
M  V30 BEGIN ATOM
M  V30 1 C 3.49938 -1.34633 1.0578 0
M  V30 2 C 2.58494 -0.440966 0.326001 0
M  V30 3 C 3.13911 0.602278 -0.410607 0
M  V30 4 N 2.32901 1.42951 -1.09914 0
M  V30 5 C 0.977204 1.2508 -1.07661 0
M  V30 6 C 0.37692 0.2351 -0.373247 0
M  V30 7 C 1.20446 -0.608306 0.333268 0
M  V30 8 C -1.02829 -0.119346 -0.548561 0
M  V30 9 C -2.06031 0.621206 0.230734 0
M  V30 10 C -3.49565 0.0166518 -0.0555368 0
M  V30 11 C -2.924 0.156993 1.30979 0
M  V30 12 N -1.15881 -1.51187 -0.0491018 0
M  V30 13 N 0.148583 2.21812 -1.71788 0
M  V30 14 H 2.99045 -1.80851 1.90301 0
M  V30 15 H 4.38311 -0.775613 1.49437 0
M  V30 16 H 3.99087 -2.08511 0.393185 0
M  V30 17 H 4.19695 0.813648 -0.463239 0
M  V30 18 H 0.871969 -1.43757 0.929281 0
M  V30 19 H -1.3024 -0.201417 -1.64608 0
M  V30 20 H -2.15755 1.75203 0.00279388 0
M  V30 21 H -4.28038 0.644892 -0.413651 0
M  V30 22 H -3.50432 -1.03021 -0.500247 0
M  V30 23 H -3.48739 0.936935 1.92918 0
M  V30 24 H -2.75066 -0.753421 1.90651 0
M  V30 25 H -1.0921 -2.22786 -0.714315 0
M  V30 26 H -1.14527 -1.59116 0.94247 0
M  V30 27 H -0.172419 2.26337 -2.66349 0
M  V30 28 H -0.133425 2.99616 -1.02669 0
M  V30 END ATOM
M  V30 BEGIN BOND
M  V30 1 1 1 2
M  V30 2 2 2 3
M  V30 3 1 3 4
M  V30 4 2 4 5
M  V30 5 1 5 6
M  V30 6 2 6 7
M  V30 7 1 6 8
M  V30 8 1 8 9
M  V30 9 1 9 10
M  V30 10 1 10 11
M  V30 11 1 8 12
M  V30 12 1 5 13
M  V30 13 1 7 2
M  V30 14 1 11 9
M  V30 15 1 1 14
M  V30 16 1 1 15
M  V30 17 1 1 16
M  V30 18 1 3 17
M  V30 19 1 7 18
M  V30 20 1 8 19
M  V30 21 1 9 20
M  V30 22 1 10 21
M  V30 23 1 10 22
M  V30 24 1 11 23
M  V30 25 1 11 24
M  V30 26 1 12 25
M  V30 27 1 12 26
M  V30 28 1 13 27
M  V30 29 1 13 28
M  V30 END BOND
M  V30 END CTAB
M  END
