
     RDKit          3D

  0  0  0  0  0  0  0  0  0  0999 V3000
M  V30 BEGIN CTAB
M  V30 COUNTS 61 64 0 0 0
M  V30 BEGIN ATOM
M  V30 1 O 7.62053 0.0214156 1.34439 0
M  V30 2 C 8.0316 -0.980233 0.666215 0
M  V30 3 O 8.72721 -1.86604 1.27171 0
M  V30 4 C 7.71673 -1.11167 -0.772017 0
M  V30 5 C 6.66876 -0.170604 -1.24389 0
M  V30 6 C 5.32367 -0.342676 -0.597664 0
M  V30 7 C 4.33872 0.656396 -1.14949 0
M  V30 8 O 4.75585 1.46833 -2.03689 0
M  V30 9 N 3.01093 0.665789 -0.679092 0
M  V30 10 C 2.04651 1.60631 -1.18163 0
M  V30 11 C 0.712723 0.919126 -1.34668 0
M  V30 12 C 0.254032 0.197639 -0.101248 0
M  V30 13 C 1.32947 0.321372 0.956313 0
M  V30 14 C 2.59428 -0.276705 0.324536 0
M  V30 15 O 0.0297679 -1.12937 -0.455348 0
M  V30 16 C -0.679486 -1.83847 0.480134 0
M  V30 17 C -2.12971 -1.39288 0.574076 0 CFG=2
M  V30 18 C -2.22834 -0.0343989 -0.0666191 0 CFG=2
M  V30 19 C -1.0348 0.784694 0.368472 0
M  V30 20 N -3.4201 0.673427 0.280489 0
M  V30 21 C -3.57553 1.63397 1.20811 0
M  V30 22 N -4.84577 2.06895 1.2543 0
M  V30 23 C -5.53269 1.37292 0.332927 0
M  V30 24 C -4.65202 0.50439 -0.275293 0
M  V30 25 N -5.14191 -0.293784 -1.23924 0
M  V30 26 C -6.4162 -0.302227 -1.64492 0
M  V30 27 N -6.92261 -1.15108 -2.66531 0
M  V30 28 N -7.26749 0.548207 -1.04588 0
M  V30 29 C -6.84377 1.38265 -0.0657588 0
M  V30 30 N -7.76501 2.25652 0.535124 0
M  V30 31 C -2.56519 -1.4011 2.01656 0
M  V30 32 O -2.88887 -2.35504 -0.0930285 0
M  V30 33 H 7.66237 0.793822 1.63343 0
M  V30 34 H 8.6887 -0.943734 -1.3168 0
M  V30 35 H 7.38836 -2.18046 -0.941927 0
M  V30 36 H 6.60301 -0.28321 -2.35362 0
M  V30 37 H 6.95437 0.90813 -1.0839 0
M  V30 38 H 5.41577 -0.177308 0.485092 0
M  V30 39 H 4.92609 -1.37522 -0.717548 0
M  V30 40 H 2.35244 1.95296 -2.1885 0
M  V30 41 H 1.95096 2.50685 -0.526998 0
M  V30 42 H 0.8271 0.221599 -2.20454 0
M  V30 43 H -0.0608044 1.65882 -1.64008 0
M  V30 44 H 1.48426 1.38664 1.1568 0
M  V30 45 H 1.09044 -0.187767 1.88877 0
M  V30 46 H 3.33928 -0.458526 1.11114 0
M  V30 47 H 2.29448 -1.2204 -0.179403 0
M  V30 48 H -0.208644 -1.80327 1.50541 0
M  V30 49 H -0.607791 -2.92202 0.187687 0
M  V30 50 H -2.16816 -0.169052 -1.14976 0
M  V30 51 H -1.01251 0.901127 1.48475 0
M  V30 52 H -1.2112 1.8263 -0.0139187 0
M  V30 53 H -2.80533 2.05429 1.87447 0
M  V30 54 H -6.54952 -1.20993 -3.62709 0
M  V30 55 H -7.73355 -1.76011 -2.42082 0
M  V30 56 H -8.12411 3.06981 0.0138548 0
M  V30 57 H -8.08544 2.08757 1.50097 0
M  V30 58 H -2.38714 -0.452816 2.54131 0
M  V30 59 H -3.66383 -1.63525 2.10927 0
M  V30 60 H -2.0554 -2.23263 2.55256 0
M  V30 61 H -3.55548 -2.79203 0.460173 0
M  V30 END ATOM
M  V30 BEGIN BOND
M  V30 1 1 1 2
M  V30 2 2 2 3
M  V30 3 1 2 4
M  V30 4 1 4 5
M  V30 5 1 5 6
M  V30 6 1 6 7
M  V30 7 2 7 8
M  V30 8 1 7 9
M  V30 9 1 9 10
M  V30 10 1 10 11
M  V30 11 1 11 12
M  V30 12 1 12 13
M  V30 13 1 13 14
M  V30 14 1 12 15
M  V30 15 1 15 16
M  V30 16 1 16 17
M  V30 17 1 17 18
M  V30 18 1 18 19
M  V30 19 1 18 20
M  V30 20 1 20 21
M  V30 21 2 21 22
M  V30 22 1 22 23
M  V30 23 2 23 24
M  V30 24 1 24 25
M  V30 25 2 25 26
M  V30 26 1 26 27
M  V30 27 1 26 28
M  V30 28 2 28 29
M  V30 29 1 29 30
M  V30 30 1 17 31
M  V30 31 1 17 32 CFG=3
M  V30 32 1 14 9
M  V30 33 1 24 20
M  V30 34 1 19 12
M  V30 35 1 29 23
M  V30 36 1 1 33
M  V30 37 1 4 34
M  V30 38 1 4 35
M  V30 39 1 5 36
M  V30 40 1 5 37
M  V30 41 1 6 38
M  V30 42 1 6 39
M  V30 43 1 10 40
M  V30 44 1 10 41
M  V30 45 1 11 42
M  V30 46 1 11 43
M  V30 47 1 13 44
M  V30 48 1 13 45
M  V30 49 1 14 46
M  V30 50 1 14 47
M  V30 51 1 16 48
M  V30 52 1 16 49
M  V30 53 1 18 50 CFG=3
M  V30 54 1 19 51
M  V30 55 1 19 52
M  V30 56 1 21 53
M  V30 57 1 27 54
M  V30 58 1 27 55
M  V30 59 1 30 56
M  V30 60 1 30 57
M  V30 61 1 31 58
M  V30 62 1 31 59
M  V30 63 1 31 60
M  V30 64 1 32 61
M  V30 END BOND
M  V30 END CTAB
M  END
