
     RDKit          3D

  0  0  0  0  0  0  0  0  0  0999 V3000
M  V30 BEGIN CTAB
M  V30 COUNTS 29 30 0 0 0
M  V30 BEGIN ATOM
M  V30 1 N -1.9816 2.30775 -0.264023 0
M  V30 2 C -0.648705 1.97297 0.113953 0
M  V30 3 C -0.43365 0.459672 0.250456 0
M  V30 4 C -0.734483 -0.148131 -1.07903 0
M  V30 5 C -1.38247 -1.51279 -0.976817 0
M  V30 6 C -2.40151 -1.54617 0.171944 0
M  V30 7 O -1.6266 -1.35595 1.32551 0
M  V30 8 C -1.20306 -0.0601781 1.39875 0
M  V30 9 C 1.03386 0.296118 0.491364 0
M  V30 10 N 2.01173 1.21237 0.453561 0
M  V30 11 N 3.18835 0.68071 0.727625 0
M  V30 12 C 2.96506 -0.62429 0.950655 0
M  V30 13 N 1.65393 -0.856888 0.806754 0
M  V30 14 N 4.02949 -1.51655 1.27607 0
M  V30 15 H -2.72355 1.65929 -0.00372884 0
M  V30 16 H -2.19732 3.29284 -0.0778583 0
M  V30 17 H 0.0350905 2.29342 -0.704634 0
M  V30 18 H -0.32868 2.39574 1.09051 0
M  V30 19 H -1.35016 0.536968 -1.69148 0
M  V30 20 H 0.20328 -0.304775 -1.68702 0
M  V30 21 H -1.8682 -1.80112 -1.89903 0
M  V30 22 H -0.608531 -2.27131 -0.704414 0
M  V30 23 H -2.88804 -2.53282 0.169858 0
M  V30 24 H -3.11898 -0.70607 0.0743795 0
M  V30 25 H -2.07948 0.614998 1.62502 0
M  V30 26 H -0.566624 0.0272427 2.32655 0
M  V30 27 H 4.12584 1.19063 0.764773 0
M  V30 28 H 4.80777 -1.66286 0.583298 0
M  V30 29 H 4.08725 -2.04082 2.16411 0
M  V30 END ATOM
M  V30 BEGIN BOND
M  V30 1 1 1 2
M  V30 2 1 2 3
M  V30 3 1 3 4
M  V30 4 1 4 5
M  V30 5 1 5 6
M  V30 6 1 6 7
M  V30 7 1 7 8
M  V30 8 1 3 9
M  V30 9 2 9 10
M  V30 10 1 10 11
M  V30 11 1 11 12
M  V30 12 2 12 13
M  V30 13 1 12 14
M  V30 14 1 8 3
M  V30 15 1 13 9
M  V30 16 1 1 15
M  V30 17 1 1 16
M  V30 18 1 2 17
M  V30 19 1 2 18
M  V30 20 1 4 19
M  V30 21 1 4 20
M  V30 22 1 5 21
M  V30 23 1 5 22
M  V30 24 1 6 23
M  V30 25 1 6 24
M  V30 26 1 8 25
M  V30 27 1 8 26
M  V30 28 1 11 27
M  V30 29 1 14 28
M  V30 30 1 14 29
M  V30 END BOND
M  V30 END CTAB
M  END
