
     RDKit          3D

  0  0  0  0  0  0  0  0  0  0999 V3000
M  V30 BEGIN CTAB
M  V30 COUNTS 26 27 0 0 0
M  V30 BEGIN ATOM
M  V30 1 N 4.94872 0.168148 -0.071704 0
M  V30 2 C 3.5368 0.130618 -0.0737603 0
M  V30 3 C 2.75536 0.956135 -0.850533 0
M  V30 4 C 1.37734 0.860043 -0.798289 0
M  V30 5 C 0.725134 -0.0426474 0.0119462 0
M  V30 6 C 1.50349 -0.868416 0.789324 0
M  V30 7 C 2.8776 -0.777634 0.741621 0
M  V30 8 C -0.729226 -0.0682059 0.0145825 0
M  V30 9 C -1.48683 -1.20728 -0.133352 0
M  V30 10 Br -0.543116 -2.86179 -0.39451 0
M  V30 11 C -2.87447 -1.18829 -0.111817 0
M  V30 12 C -3.57571 -0.0153199 0.0602072 0
M  V30 13 N -5.00036 0.0238704 0.0850803 0
M  V30 14 C -2.8352 1.13882 0.209964 0
M  V30 15 C -1.46188 1.1148 0.188156 0
M  V30 16 H 5.44699 0.763148 0.608141 0
M  V30 17 H 5.47135 -0.402706 -0.753545 0
M  V30 18 H 3.26788 1.66464 -1.48644 0
M  V30 19 H 0.804162 1.53818 -1.4346 0
M  V30 20 H 1.06545 -1.59418 1.45336 0
M  V30 21 H 3.44026 -1.46002 1.38154 0
M  V30 22 H -3.41052 -2.12132 -0.233766 0
M  V30 23 H -5.46066 0.82194 -0.398824 0
M  V30 24 H -5.60956 -0.675188 0.544075 0
M  V30 25 H -3.37446 2.07849 0.347265 0
M  V30 26 H -0.858543 2.02417 0.305877 0
M  V30 END ATOM
M  V30 BEGIN BOND
M  V30 1 1 1 2
M  V30 2 2 2 3
M  V30 3 1 3 4
M  V30 4 2 4 5
M  V30 5 1 5 6
M  V30 6 2 6 7
M  V30 7 1 5 8
M  V30 8 2 8 9
M  V30 9 1 9 10
M  V30 10 1 9 11
M  V30 11 2 11 12
M  V30 12 1 12 13
M  V30 13 1 12 14
M  V30 14 2 14 15
M  V30 15 1 7 2
M  V30 16 1 15 8
M  V30 17 1 1 16
M  V30 18 1 1 17
M  V30 19 1 3 18
M  V30 20 1 4 19
M  V30 21 1 6 20
M  V30 22 1 7 21
M  V30 23 1 11 22
M  V30 24 1 13 23
M  V30 25 1 13 24
M  V30 26 1 14 25
M  V30 27 1 15 26
M  V30 END BOND
M  V30 END CTAB
M  END
