
     RDKit          3D

  0  0  0  0  0  0  0  0  0  0999 V3000
M  V30 BEGIN CTAB
M  V30 COUNTS 34 35 0 0 0
M  V30 BEGIN ATOM
M  V30 1 C 0.675396 1.65904 -1.60736 0
M  V30 2 N 0.305926 0.343798 -1.13106 0
M  V30 3 C -1.04066 0.134176 -0.740409 0
M  V30 4 C -1.75738 -0.851381 -1.42927 0
M  V30 5 C -3.07392 -1.14332 -1.13612 0
M  V30 6 C -3.72047 -0.433727 -0.116661 0
M  V30 7 C -3.01119 0.535398 0.558675 0
M  V30 8 C -1.68587 0.822837 0.256941 0
M  V30 9 F -1.06161 1.78577 0.96372 0
M  V30 10 N -3.6611 1.25746 1.59245 0
M  V30 11 N -5.07158 -0.679687 0.23926 0
M  V30 12 C 1.22627 -0.757027 -1.06115 0
M  V30 13 C 2.38566 -0.518346 -0.196279 0
M  V30 14 C 2.55084 0.536196 0.670183 0
M  V30 15 C 3.69023 0.646167 1.42437 0
M  V30 16 C 4.69883 -0.283986 1.34311 0
M  V30 17 C 4.566 -1.35678 0.482638 0
M  V30 18 C 3.42535 -1.45938 -0.266994 0
M  V30 19 H 0.0790791 1.93775 -2.52529 0
M  V30 20 H 1.73309 1.70245 -1.9391 0
M  V30 21 H 0.451227 2.43426 -0.867004 0
M  V30 22 H -1.25462 -1.38659 -2.205 0
M  V30 23 H -3.62553 -1.91363 -1.67839 0
M  V30 24 H -4.30017 2.05694 1.37211 0
M  V30 25 H -3.53172 1.02584 2.60155 0
M  V30 26 H -5.38403 -1.65346 0.433163 0
M  V30 27 H -5.78343 0.0752245 0.319131 0
M  V30 28 H 1.60855 -0.940951 -2.11032 0
M  V30 29 H 0.656326 -1.67394 -0.745266 0
M  V30 30 H 1.77485 1.27913 0.756042 0
M  V30 31 H 3.84433 1.4818 2.12456 0
M  V30 32 H 5.60421 -0.230672 1.91756 0
M  V30 33 H 5.35451 -2.11674 0.39529 0
M  V30 34 H 3.3326 -2.31465 -0.945209 0
M  V30 END ATOM
M  V30 BEGIN BOND
M  V30 1 1 1 2
M  V30 2 1 2 3
M  V30 3 2 3 4
M  V30 4 1 4 5
M  V30 5 2 5 6
M  V30 6 1 6 7
M  V30 7 2 7 8
M  V30 8 1 8 9
M  V30 9 1 7 10
M  V30 10 1 6 11
M  V30 11 1 2 12
M  V30 12 1 12 13
M  V30 13 2 13 14
M  V30 14 1 14 15
M  V30 15 2 15 16
M  V30 16 1 16 17
M  V30 17 2 17 18
M  V30 18 1 8 3
M  V30 19 1 18 13
M  V30 20 1 1 19
M  V30 21 1 1 20
M  V30 22 1 1 21
M  V30 23 1 4 22
M  V30 24 1 5 23
M  V30 25 1 10 24
M  V30 26 1 10 25
M  V30 27 1 11 26
M  V30 28 1 11 27
M  V30 29 1 12 28
M  V30 30 1 12 29
M  V30 31 1 14 30
M  V30 32 1 15 31
M  V30 33 1 16 32
M  V30 34 1 17 33
M  V30 35 1 18 34
M  V30 END BOND
M  V30 END CTAB
M  END
