
     RDKit          3D

  0  0  0  0  0  0  0  0  0  0999 V3000
M  V30 BEGIN CTAB
M  V30 COUNTS 27 28 0 0 0
M  V30 BEGIN ATOM
M  V30 1 N 3.6017 1.27257 0.200165 0
M  V30 2 C 2.20845 0.977845 0.103066 0
M  V30 3 C 1.27443 1.93901 -0.177822 0
M  V30 4 C -0.0675219 1.65778 -0.271849 0
M  V30 5 C -0.499935 0.348807 -0.0752624 0
M  V30 6 C -1.85217 0.116361 -0.17949 0
M  V30 7 C -2.27627 -1.17916 0.0155144 0
M  V30 8 C -1.36639 -2.17217 0.299705 0
M  V30 9 C 0.00588089 -1.92843 0.404013 0
M  V30 10 N 0.856291 -3.02309 0.700639 0
M  V30 11 C 0.433312 -0.63343 0.209468 0
M  V30 12 C 1.80067 -0.361402 0.307981 0
M  V30 13 O 2.77193 -1.24758 0.578969 0
M  V30 14 S -3.00557 1.38051 -0.54083 0
M  V30 15 O -2.68443 2.10405 -2.03339 0
M  V30 16 O -4.40289 0.804515 -0.562106 0
M  V30 17 O -3.02025 2.43503 0.550917 0
M  V30 18 H 3.89406 2.25256 0.303679 0
M  V30 19 H 4.31237 0.528748 0.168717 0
M  V30 20 H 1.59631 2.9728 -0.335212 0
M  V30 21 H -0.790952 2.41887 -0.492469 0
M  V30 22 H -3.33552 -1.41538 -0.0560545 0
M  V30 23 H -1.69092 -3.21429 0.458385 0
M  V30 24 H 1.27751 -3.61274 -0.0528896 0
M  V30 25 H 1.10286 -3.29255 1.69601 0
M  V30 26 H 2.99024 -2.13389 0.767829 0
M  V30 27 H -3.13317 3.00469 -1.98768 0
M  V30 END ATOM
M  V30 BEGIN BOND
M  V30 1 1 1 2
M  V30 2 2 2 3
M  V30 3 1 3 4
M  V30 4 2 4 5
M  V30 5 1 5 6
M  V30 6 2 6 7
M  V30 7 1 7 8
M  V30 8 2 8 9
M  V30 9 1 9 10
M  V30 10 1 9 11
M  V30 11 2 11 12
M  V30 12 1 12 13
M  V30 13 1 6 14
M  V30 14 1 14 15
M  V30 15 2 14 16
M  V30 16 2 14 17
M  V30 17 1 12 2
M  V30 18 1 11 5
M  V30 19 1 1 18
M  V30 20 1 1 19
M  V30 21 1 3 20
M  V30 22 1 4 21
M  V30 23 1 7 22
M  V30 24 1 8 23
M  V30 25 1 10 24
M  V30 26 1 10 25
M  V30 27 1 13 26
M  V30 28 1 15 27
M  V30 END BOND
M  V30 END CTAB
M  END
