
     RDKit          3D

  0  0  0  0  0  0  0  0  0  0999 V3000
M  V30 BEGIN CTAB
M  V30 COUNTS 22 23 0 0 0
M  V30 BEGIN ATOM
M  V30 1 Cl -1.49865 -2.30585 2.43744 0
M  V30 2 C -2.0287 -1.24959 1.15829 0
M  V30 3 C -3.31272 -1.10153 0.700739 0
M  V30 4 N -3.22518 -0.201221 -0.275448 0
M  V30 5 N -1.9394 0.202422 -0.426715 0
M  V30 6 C -1.14718 -0.412988 0.433025 0
M  V30 7 C 0.274754 -0.30447 0.730033 0
M  V30 8 N 0.796831 -0.677377 1.95766 0
M  V30 9 N 2.08874 -0.555034 1.97433 0
M  V30 10 C 2.48919 -0.10393 0.782737 0
M  V30 11 N 1.33975 0.0416649 0.0284815 0
M  V30 12 N 1.42331 0.45721 -1.30178 0
M  V30 13 N 3.81067 0.182367 0.335578 0
M  V30 14 C -1.6138 1.22372 -1.40329 0
M  V30 15 H -4.18777 -1.61716 1.0707 0
M  V30 16 H 1.62727 1.45515 -1.47783 0
M  V30 17 H 1.29178 -0.181426 -2.10503 0
M  V30 18 H 4.06869 0.157062 -0.668526 0
M  V30 19 H 4.55154 0.425683 1.01975 0
M  V30 20 H -2.58749 1.76238 -1.67655 0
M  V30 21 H -1.24753 0.814119 -2.35908 0
M  V30 22 H -0.974076 1.98879 -0.9345 0
M  V30 END ATOM
M  V30 BEGIN BOND
M  V30 1 1 1 2
M  V30 2 1 2 3
M  V30 3 2 3 4
M  V30 4 1 4 5
M  V30 5 1 5 6
M  V30 6 1 6 7
M  V30 7 2 7 8
M  V30 8 1 8 9
M  V30 9 2 9 10
M  V30 10 1 10 11
M  V30 11 1 11 12
M  V30 12 1 10 13
M  V30 13 1 5 14
M  V30 14 2 6 2
M  V30 15 1 11 7
M  V30 16 1 3 15
M  V30 17 1 12 16
M  V30 18 1 12 17
M  V30 19 1 13 18
M  V30 20 1 13 19
M  V30 21 1 14 20
M  V30 22 1 14 21
M  V30 23 1 14 22
M  V30 END BOND
M  V30 END CTAB
M  END
