
     RDKit          3D

  0  0  0  0  0  0  0  0  0  0999 V3000
M  V30 BEGIN CTAB
M  V30 COUNTS 15 15 0 0 0
M  V30 BEGIN ATOM
M  V30 1 Br 3.77726 0.657221 0.587282 0
M  V30 2 C 2.01035 0.0318692 0.333325 0
M  V30 3 C 1.65299 -1.29793 0.368795 0
M  V30 4 N 0.377755 -1.69327 0.181412 0
M  V30 5 C -0.621503 -0.818727 -0.0508882 0
M  V30 6 C -0.280174 0.519338 -0.0896667 0
M  V30 7 C 1.01747 0.951282 0.0988634 0
M  V30 8 Cl 1.38626 2.66533 0.0375791 0
M  V30 9 N -1.33923 1.44689 -0.335893 0
M  V30 10 N -1.96675 -1.2283 -0.249077 0
M  V30 11 H 2.45701 -2.01162 0.556446 0
M  V30 12 H -1.36511 2.09534 -1.14247 0
M  V30 13 H -2.12368 1.46102 0.342656 0
M  V30 14 H -2.55384 -1.55707 0.547169 0
M  V30 15 H -2.42881 -1.22139 -1.18553 0
M  V30 END ATOM
M  V30 BEGIN BOND
M  V30 1 1 1 2
M  V30 2 2 2 3
M  V30 3 1 3 4
M  V30 4 2 4 5
M  V30 5 1 5 6
M  V30 6 2 6 7
M  V30 7 1 7 8
M  V30 8 1 6 9
M  V30 9 1 5 10
M  V30 10 1 7 2
M  V30 11 1 3 11
M  V30 12 1 9 12
M  V30 13 1 9 13
M  V30 14 1 10 14
M  V30 15 1 10 15
M  V30 END BOND
M  V30 END CTAB
M  END
