
     RDKit          3D

  0  0  0  0  0  0  0  0  0  0999 V3000
M  V30 BEGIN CTAB
M  V30 COUNTS 18 18 0 0 0
M  V30 BEGIN ATOM
M  V30 1 O 3.36344 1.37923 0.582574 0 CHG=-1
M  V30 2 N 2.10803 1.58354 0.103826 0 CHG=1
M  V30 3 O 1.70604 2.72633 -0.142665 0
M  V30 4 C 1.2158 0.464146 -0.130435 0
M  V30 5 C -0.12873 0.554315 -0.0744393 0
M  V30 6 C -0.849682 -0.574322 -0.320073 0
M  V30 7 S 0.348699 -1.73989 -0.624278 0
M  V30 8 C 1.74168 -0.76703 -0.432521 0
M  V30 9 N 3.13305 -1.12684 -0.553003 0
M  V30 10 S -2.58607 -0.842233 -0.342239 0
M  V30 11 O -2.93124 -1.37544 -1.70609 0
M  V30 12 O -2.97878 -1.89624 0.655675 0
M  V30 13 N -3.43228 0.591598 0.0359251 0
M  V30 14 H -0.665107 1.49428 0.158906 0
M  V30 15 H 3.81742 -0.533864 -1.03786 0
M  V30 16 H 3.44209 -2.01693 -0.131234 0
M  V30 17 H -2.89827 1.45817 -0.0721514 0
M  V30 18 H -4.40608 0.621176 -0.292307 0
M  V30 END ATOM
M  V30 BEGIN BOND
M  V30 1 1 1 2
M  V30 2 2 2 3
M  V30 3 1 2 4
M  V30 4 1 4 5
M  V30 5 2 5 6
M  V30 6 1 6 7
M  V30 7 1 7 8
M  V30 8 1 8 9
M  V30 9 1 6 10
M  V30 10 2 10 11
M  V30 11 2 10 12
M  V30 12 1 10 13
M  V30 13 2 8 4
M  V30 14 1 5 14
M  V30 15 1 9 15
M  V30 16 1 9 16
M  V30 17 1 13 17
M  V30 18 1 13 18
M  V30 END BOND
M  V30 END CTAB
M  END
