
     RDKit          3D

  0  0  0  0  0  0  0  0  0  0999 V3000
M  V30 BEGIN CTAB
M  V30 COUNTS 48 49 0 0 0
M  V30 BEGIN ATOM
M  V30 1 N 4.37532 2.0221 -1.44289 0
M  V30 2 C 3.33715 1.08622 -1.04847 0
M  V30 3 C 3.58262 0.724916 0.395178 0
M  V30 4 C 4.95758 0.0958908 0.472862 0
M  V30 5 C 4.60267 -1.38528 0.300236 0
M  V30 6 C 3.43251 -1.49739 1.26387 0
M  V30 7 C 2.59966 -0.285561 0.921308 0
M  V30 8 N 1.5216 -0.565269 0.0433414 0
M  V30 9 C 0.187307 -0.327267 0.439169 0
M  V30 10 O -0.0318979 0.131195 1.56836 0
M  V30 11 C -0.903149 -0.623654 -0.482983 0
M  V30 12 C -2.3046 -0.363394 0.0162229 0
M  V30 13 C -2.67121 -1.15831 1.23783 0
M  V30 14 N -4.04514 -0.833627 1.63973 0
M  V30 15 C -3.2182 -0.851449 -1.10338 0
M  V30 16 C -4.55204 -0.219502 -1.17048 0
M  V30 17 C -4.55111 1.26848 -0.933344 0
M  V30 18 C -3.13582 1.79816 -0.876365 0
M  V30 19 C -2.4631 1.08636 0.292926 0
M  V30 20 H 4.84586 2.46518 -0.608697 0
M  V30 21 H 5.14633 1.54927 -1.98665 0
M  V30 22 H 2.36562 1.55826 -1.22982 0
M  V30 23 H 3.46391 0.194995 -1.71848 0
M  V30 24 H 3.59487 1.66385 0.979198 0
M  V30 25 H 5.62443 0.430217 -0.342795 0
M  V30 26 H 5.41827 0.256013 1.46919 0
M  V30 27 H 4.31319 -1.55572 -0.743833 0
M  V30 28 H 5.45686 -1.98603 0.611656 0
M  V30 29 H 2.9046 -2.44909 1.12823 0
M  V30 30 H 3.85663 -1.36917 2.28003 0
M  V30 31 H 2.20535 0.113312 1.87206 0
M  V30 32 H 1.70443 -0.948912 -0.901676 0
M  V30 33 H -0.779069 -1.72044 -0.752833 0
M  V30 34 H -0.730967 -0.105005 -1.46399 0
M  V30 35 H -2.01506 -0.986697 2.09517 0
M  V30 36 H -2.71058 -2.24904 0.948059 0
M  V30 37 H -4.0492 -0.120017 2.40121 0
M  V30 38 H -4.608 -1.6735 1.83389 0
M  V30 39 H -3.34478 -1.94215 -0.938315 0
M  V30 40 H -2.67183 -0.785275 -2.09159 0
M  V30 41 H -5.30521 -0.74417 -0.583898 0
M  V30 42 H -4.90344 -0.3343 -2.24606 0
M  V30 43 H -5.06432 1.8408 -1.74362 0
M  V30 44 H -5.09531 1.49788 0.00387931 0
M  V30 45 H -3.1427 2.87641 -0.723534 0
M  V30 46 H -2.60175 1.48571 -1.7933 0
M  V30 47 H -3.09022 1.31274 1.18048 0
M  V30 48 H -1.50806 1.62228 0.448613 0
M  V30 END ATOM
M  V30 BEGIN BOND
M  V30 1 1 1 2
M  V30 2 1 2 3
M  V30 3 1 3 4
M  V30 4 1 4 5
M  V30 5 1 5 6
M  V30 6 1 6 7
M  V30 7 1 7 8
M  V30 8 1 8 9
M  V30 9 2 9 10
M  V30 10 1 9 11
M  V30 11 1 11 12
M  V30 12 1 12 13
M  V30 13 1 13 14
M  V30 14 1 12 15
M  V30 15 1 15 16
M  V30 16 1 16 17
M  V30 17 1 17 18
M  V30 18 1 18 19
M  V30 19 1 7 3
M  V30 20 1 19 12
M  V30 21 1 1 20
M  V30 22 1 1 21
M  V30 23 1 2 22
M  V30 24 1 2 23
M  V30 25 1 3 24
M  V30 26 1 4 25
M  V30 27 1 4 26
M  V30 28 1 5 27
M  V30 29 1 5 28
M  V30 30 1 6 29
M  V30 31 1 6 30
M  V30 32 1 7 31
M  V30 33 1 8 32
M  V30 34 1 11 33
M  V30 35 1 11 34
M  V30 36 1 13 35
M  V30 37 1 13 36
M  V30 38 1 14 37
M  V30 39 1 14 38
M  V30 40 1 15 39
M  V30 41 1 15 40
M  V30 42 1 16 41
M  V30 43 1 16 42
M  V30 44 1 17 43
M  V30 45 1 17 44
M  V30 46 1 18 45
M  V30 47 1 18 46
M  V30 48 1 19 47
M  V30 49 1 19 48
M  V30 END BOND
M  V30 END CTAB
M  END
