
     RDKit          3D

  0  0  0  0  0  0  0  0  0  0999 V3000
M  V30 BEGIN CTAB
M  V30 COUNTS 22 22 0 0 0
M  V30 BEGIN ATOM
M  V30 1 C 2.25918 -1.42638 0.172068 0
M  V30 2 C 1.75359 -0.0404426 0.227666 0
M  V30 3 S 2.56196 1.3538 0.767001 0
M  V30 4 C 1.32125 2.49146 0.656604 0
M  V30 5 C 0.24503 1.75073 0.20552 0
M  V30 6 C 0.494569 0.428691 -0.018025 0
M  V30 7 C -0.560308 -0.446854 -0.71285 0
M  V30 8 C -1.88793 -0.298619 0.0207129 0
M  V30 9 N -1.58602 -0.772015 1.43361 0
M  V30 10 N -0.788139 0.169153 -2.01113 0
M  V30 11 H 2.36004 -1.74744 1.26123 0
M  V30 12 H 3.2259 -1.47645 -0.31288 0
M  V30 13 H 1.51033 -2.08193 -0.255139 0
M  V30 14 H 1.31163 3.58518 0.865139 0
M  V30 15 H -0.750684 2.29027 0.0462905 0
M  V30 16 H -0.284615 -1.44519 -0.814583 0
M  V30 17 H -2.57067 -1.04208 -0.374264 0
M  V30 18 H -2.278 0.698347 0.037851 0
M  V30 19 H -2.47674 -1.17366 1.76187 0
M  V30 20 H -1.04463 -1.68862 1.193 0
M  V30 21 H -1.09626 1.16709 -1.844 0
M  V30 22 H -1.71947 -0.295041 -2.30569 0
M  V30 END ATOM
M  V30 BEGIN BOND
M  V30 1 1 1 2
M  V30 2 1 2 3
M  V30 3 1 3 4
M  V30 4 2 4 5
M  V30 5 1 5 6
M  V30 6 1 6 7
M  V30 7 1 7 8
M  V30 8 1 8 9
M  V30 9 1 7 10
M  V30 10 2 6 2
M  V30 11 1 1 11
M  V30 12 1 1 12
M  V30 13 1 1 13
M  V30 14 1 4 14
M  V30 15 1 5 15
M  V30 16 1 7 16
M  V30 17 1 8 17
M  V30 18 1 8 18
M  V30 19 1 9 19
M  V30 20 1 9 20
M  V30 21 1 10 21
M  V30 22 1 10 22
M  V30 END BOND
M  V30 END CTAB
M  END
