
     RDKit          3D

  0  0  0  0  0  0  0  0  0  0999 V3000
M  V30 BEGIN CTAB
M  V30 COUNTS 29 29 0 0 0
M  V30 BEGIN ATOM
M  V30 1 C 4.89505 -0.31853 -0.701615 0
M  V30 2 C 3.67924 -0.529205 0.180464 0
M  V30 3 O 2.53282 -0.197674 -0.576625 0
M  V30 4 C 1.24109 -0.263124 -0.0657043 0
M  V30 5 O 1.08774 -0.629875 1.11302 0
M  V30 6 C 0.126908 0.114234 -0.974505 0
M  V30 7 C -1.1863 0.037962 -0.316121 0
M  V30 8 C -1.80938 -1.16925 -0.108695 0
M  V30 9 N -1.23136 -2.38821 -0.521416 0
M  V30 10 C -3.05895 -1.22201 0.524734 0
M  V30 11 C -3.66006 -0.0575691 0.93798 0
M  V30 12 C -3.05081 1.17192 0.739904 0
M  V30 13 C -1.81896 1.17769 0.111477 0
M  V30 14 N -1.19465 2.44479 -0.0830978 0
M  V30 15 C -3.69374 2.38118 1.1797 0
M  V30 16 N -4.19145 3.36065 1.54955 0
M  V30 17 H 4.7032 0.400923 -1.51881 0
M  V30 18 H 5.7058 0.160028 -0.0823942 0
M  V30 19 H 5.21798 -1.27479 -1.15758 0
M  V30 20 H 3.59062 -1.62738 0.423926 0
M  V30 21 H 3.73369 0.0849947 1.09099 0
M  V30 22 H 0.176735 -0.589341 -1.8506 0
M  V30 23 H 0.337314 1.11923 -1.39988 0
M  V30 24 H -1.18885 -3.18933 0.124634 0
M  V30 25 H -0.851189 -2.47628 -1.47774 0
M  V30 26 H -3.51287 -2.17718 0.667577 0
M  V30 27 H -4.62363 -0.0934211 1.4244 0
M  V30 28 H -1.69169 3.14636 -0.663457 0
M  V30 29 H -0.264314 2.60323 0.368863 0
M  V30 END ATOM
M  V30 BEGIN BOND
M  V30 1 1 1 2
M  V30 2 1 2 3
M  V30 3 1 3 4
M  V30 4 2 4 5
M  V30 5 1 4 6
M  V30 6 1 6 7
M  V30 7 2 7 8
M  V30 8 1 8 9
M  V30 9 1 8 10
M  V30 10 2 10 11
M  V30 11 1 11 12
M  V30 12 2 12 13
M  V30 13 1 13 14
M  V30 14 1 12 15
M  V30 15 3 15 16
M  V30 16 1 13 7
M  V30 17 1 1 17
M  V30 18 1 1 18
M  V30 19 1 1 19
M  V30 20 1 2 20
M  V30 21 1 2 21
M  V30 22 1 6 22
M  V30 23 1 6 23
M  V30 24 1 9 24
M  V30 25 1 9 25
M  V30 26 1 10 26
M  V30 27 1 11 27
M  V30 28 1 14 28
M  V30 29 1 14 29
M  V30 END BOND
M  V30 END CTAB
M  END
