
     RDKit          3D

  0  0  0  0  0  0  0  0  0  0999 V3000
M  V30 BEGIN CTAB
M  V30 COUNTS 26 26 0 0 0
M  V30 BEGIN ATOM
M  V30 1 O -3.39972 1.23842 -1.2595 0
M  V30 2 C -2.47115 0.3235 -0.731683 0
M  V30 3 C -1.92832 0.891915 0.542811 0
M  V30 4 C -0.922877 0.0173418 1.21732 0 CFG=2
M  V30 5 C 0.264978 -0.247831 0.365194 0
M  V30 6 C 0.309076 -1.27069 -0.56751 0
M  V30 7 C 1.43907 -1.48712 -1.34629 0
M  V30 8 C 2.55641 -0.68942 -1.21647 0
M  V30 9 C 2.53047 0.325456 -0.3003 0
M  V30 10 C 1.42038 0.528849 0.456576 0
M  V30 11 N 3.65061 1.19234 -0.110395 0
M  V30 12 N -1.48222 -1.1875 1.78418 0
M  V30 13 H -4.12094 1.35921 -0.564044 0
M  V30 14 H -2.98055 -0.634054 -0.632376 0
M  V30 15 H -1.67103 0.252111 -1.5255 0
M  V30 16 H -1.43129 1.85091 0.296912 0
M  V30 17 H -2.78292 1.07261 1.22125 0
M  V30 18 H -0.529474 0.609511 2.09703 0
M  V30 19 H -0.561521 -1.91515 -0.68899 0
M  V30 20 H 1.48367 -2.27873 -2.07357 0
M  V30 21 H 3.44967 -0.836547 -1.81078 0
M  V30 22 H 1.38458 1.33234 1.18984 0
M  V30 23 H 4.59436 0.875912 -0.405972 0
M  V30 24 H 3.56955 2.13412 0.31303 0
M  V30 25 H -0.882117 -1.47218 2.61129 0
M  V30 26 H -1.48868 -1.98533 1.13794 0
M  V30 END ATOM
M  V30 BEGIN BOND
M  V30 1 1 1 2
M  V30 2 1 2 3
M  V30 3 1 3 4
M  V30 4 1 4 5
M  V30 5 2 5 6
M  V30 6 1 6 7
M  V30 7 2 7 8
M  V30 8 1 8 9
M  V30 9 2 9 10
M  V30 10 1 9 11
M  V30 11 1 4 12
M  V30 12 1 10 5
M  V30 13 1 1 13
M  V30 14 1 2 14
M  V30 15 1 2 15
M  V30 16 1 3 16
M  V30 17 1 3 17
M  V30 18 1 4 18 CFG=1
M  V30 19 1 6 19
M  V30 20 1 7 20
M  V30 21 1 8 21
M  V30 22 1 10 22
M  V30 23 1 11 23
M  V30 24 1 11 24
M  V30 25 1 12 25
M  V30 26 1 12 26
M  V30 END BOND
M  V30 END CTAB
M  END
