
     RDKit          3D

  0  0  0  0  0  0  0  0  0  0999 V3000
M  V30 BEGIN CTAB
M  V30 COUNTS 48 52 0 0 0
M  V30 BEGIN ATOM
M  V30 1 N -3.29039 3.88749 -0.497412 0
M  V30 2 C -3.07186 2.49178 -0.382658 0
M  V30 3 N -4.01196 1.55577 -0.318319 0
M  V30 4 C -3.72754 0.235945 -0.208894 0
M  V30 5 N -2.42692 -0.128279 -0.164503 0
M  V30 6 C -1.47218 0.784289 -0.226789 0
M  V30 7 N -1.78483 2.06322 -0.333251 0
M  V30 8 C -0.0568075 0.35196 -0.175543 0
M  V30 9 S 0.581229 -1.21223 -0.0421566 0
M  V30 10 C 2.24898 -0.834498 -0.0531505 0
M  V30 11 C 2.25853 0.52577 -0.162579 0
M  V30 12 C 1.04946 1.14977 -0.226908 0
M  V30 13 N 0.890482 2.60383 -0.345858 0
M  V30 14 C 3.54507 1.12466 -0.195726 0
M  V30 15 C 4.65542 0.320268 -0.117928 0
M  V30 16 C 4.61607 -1.05283 -0.00782934 0
M  V30 17 N 3.39467 -1.59642 0.021628 0
M  V30 18 C 5.87223 -1.82005 0.0685108 0
M  V30 19 C 6.84379 -1.15523 0.991084 0
M  V30 20 C 6.92882 0.326124 0.866914 0
M  V30 21 C 6.01136 0.934616 -0.151397 0
M  V30 22 N -4.76495 -0.751466 -0.141542 0
M  V30 23 C -6.13246 -0.276227 -0.195365 0
M  V30 24 C -7.10339 -1.42154 -0.413887 0
M  V30 25 O -6.49918 -2.38827 -1.18606 0
M  V30 26 C -5.53453 -3.06097 -0.429581 0
M  V30 27 C -4.40644 -2.13306 -0.0265956 0
M  V30 28 H -3.17997 4.54782 0.317089 0
M  V30 29 H -3.57124 4.24435 -1.44101 0
M  V30 30 H 0.821329 3.04912 -1.28419 0
M  V30 31 H 0.850184 3.15919 0.508792 0
M  V30 32 H 3.64901 2.20415 -0.281444 0
M  V30 33 H 5.70831 -2.85335 0.38357 0
M  V30 34 H 6.37729 -1.87842 -0.940936 0
M  V30 35 H 6.54923 -1.42665 2.04725 0
M  V30 36 H 7.83945 -1.66568 0.856007 0
M  V30 37 H 6.73276 0.848055 1.84924 0
M  V30 38 H 7.96265 0.623446 0.594714 0
M  V30 39 H 5.91313 1.99763 0.0497592 0
M  V30 40 H 6.48503 0.806981 -1.14493 0
M  V30 41 H -6.20445 0.47421 -1.00994 0
M  V30 42 H -6.4079 0.282314 0.740125 0
M  V30 43 H -7.96556 -1.00924 -0.98082 0
M  V30 44 H -7.43479 -1.78996 0.581987 0
M  V30 45 H -5.13534 -3.89221 -1.04606 0
M  V30 46 H -5.98558 -3.52535 0.476183 0
M  V30 47 H -4.08735 -2.38815 1.00287 0
M  V30 48 H -3.52887 -2.33267 -0.69122 0
M  V30 END ATOM
M  V30 BEGIN BOND
M  V30 1 1 1 2
M  V30 2 2 2 3
M  V30 3 1 3 4
M  V30 4 2 4 5
M  V30 5 1 5 6
M  V30 6 2 6 7
M  V30 7 1 6 8
M  V30 8 1 8 9
M  V30 9 1 9 10
M  V30 10 2 10 11
M  V30 11 1 11 12
M  V30 12 1 12 13
M  V30 13 1 11 14
M  V30 14 2 14 15
M  V30 15 1 15 16
M  V30 16 2 16 17
M  V30 17 1 16 18
M  V30 18 1 18 19
M  V30 19 1 19 20
M  V30 20 1 20 21
M  V30 21 1 4 22
M  V30 22 1 22 23
M  V30 23 1 23 24
M  V30 24 1 24 25
M  V30 25 1 25 26
M  V30 26 1 26 27
M  V30 27 1 7 2
M  V30 28 2 12 8
M  V30 29 1 21 15
M  V30 30 1 27 22
M  V30 31 1 17 10
M  V30 32 1 1 28
M  V30 33 1 1 29
M  V30 34 1 13 30
M  V30 35 1 13 31
M  V30 36 1 14 32
M  V30 37 1 18 33
M  V30 38 1 18 34
M  V30 39 1 19 35
M  V30 40 1 19 36
M  V30 41 1 20 37
M  V30 42 1 20 38
M  V30 43 1 21 39
M  V30 44 1 21 40
M  V30 45 1 23 41
M  V30 46 1 23 42
M  V30 47 1 24 43
M  V30 48 1 24 44
M  V30 49 1 26 45
M  V30 50 1 26 46
M  V30 51 1 27 47
M  V30 52 1 27 48
M  V30 END BOND
M  V30 END CTAB
M  END
