
     RDKit          3D

  0  0  0  0  0  0  0  0  0  0999 V3000
M  V30 BEGIN CTAB
M  V30 COUNTS 39 41 0 0 0
M  V30 BEGIN ATOM
M  V30 1 N -1.18429 4.10149 0.145631 0
M  V30 2 C -0.423819 3.23581 0.0514367 0
M  V30 3 C 0.531942 2.10525 -0.0824525 0
M  V30 4 C 1.75615 2.28906 0.329504 0
M  V30 5 N 2.0555 3.6074 0.885342 0
M  V30 6 O 2.77321 1.34647 0.280462 0
M  V30 7 C 2.38541 0.106408 -0.27214 0
M  V30 8 C 1.1399 -0.155193 -0.71785 0
M  V30 9 C 0.0831377 0.856256 -0.656287 0
M  V30 10 C -1.16624 0.326349 -0.0602337 0
M  V30 11 C -1.10719 -0.183342 1.2192 0
M  V30 12 C -2.23283 -0.695018 1.84691 0
M  V30 13 C -2.15557 -1.24174 3.22733 0
M  V30 14 C -3.40209 -0.663145 1.12092 0
M  V30 15 C -3.46537 -0.154313 -0.158878 0
M  V30 16 C -2.32556 0.356661 -0.777131 0
M  V30 17 C -2.43053 0.897093 -2.16476 0
M  V30 18 C 0.82614 -1.42026 -1.2583 0
M  V30 19 C 1.80309 -2.36822 -1.32047 0
M  V30 20 C 3.08809 -2.14721 -0.878112 0
M  V30 21 C 3.35032 -0.908976 -0.361798 0
M  V30 22 N 4.06386 -3.16782 -0.966547 0
M  V30 23 H 2.169 4.37789 0.200348 0
M  V30 24 H 2.15212 3.78478 1.88601 0
M  V30 25 H -0.184904 1.06919 -1.756 0
M  V30 26 H -0.191412 -0.216325 1.80736 0
M  V30 27 H -2.62356 -2.24332 3.24031 0
M  V30 28 H -2.71633 -0.524785 3.87968 0
M  V30 29 H -1.10841 -1.36129 3.52247 0
M  V30 30 H -4.29776 -1.05222 1.57629 0
M  V30 31 H -4.39872 -0.134473 -0.724722 0
M  V30 32 H -1.7392 0.265405 -2.79994 0
M  V30 33 H -3.4368 0.710725 -2.59362 0
M  V30 34 H -2.0843 1.92038 -2.27134 0
M  V30 35 H -0.201791 -1.60169 -1.61377 0
M  V30 36 H 1.52354 -3.35058 -1.75033 0
M  V30 37 H 4.35254 -0.659753 0.0106753 0
M  V30 38 H 4.81926 -3.27555 -0.280653 0
M  V30 39 H 4.00346 -3.8314 -1.76451 0
M  V30 END ATOM
M  V30 BEGIN BOND
M  V30 1 3 1 2
M  V30 2 1 2 3
M  V30 3 2 3 4
M  V30 4 1 4 5
M  V30 5 1 4 6
M  V30 6 1 6 7
M  V30 7 2 7 8
M  V30 8 1 8 9
M  V30 9 1 9 10
M  V30 10 2 10 11
M  V30 11 1 11 12
M  V30 12 1 12 13
M  V30 13 2 12 14
M  V30 14 1 14 15
M  V30 15 2 15 16
M  V30 16 1 16 17
M  V30 17 1 8 18
M  V30 18 2 18 19
M  V30 19 1 19 20
M  V30 20 2 20 21
M  V30 21 1 20 22
M  V30 22 1 9 3
M  V30 23 1 16 10
M  V30 24 1 21 7
M  V30 25 1 5 23
M  V30 26 1 5 24
M  V30 27 1 9 25
M  V30 28 1 11 26
M  V30 29 1 13 27
M  V30 30 1 13 28
M  V30 31 1 13 29
M  V30 32 1 14 30
M  V30 33 1 15 31
M  V30 34 1 17 32
M  V30 35 1 17 33
M  V30 36 1 17 34
M  V30 37 1 18 35
M  V30 38 1 19 36
M  V30 39 1 21 37
M  V30 40 1 22 38
M  V30 41 1 22 39
M  V30 END BOND
M  V30 END CTAB
M  END
