
     RDKit          3D

  0  0  0  0  0  0  0  0  0  0999 V3000
M  V30 BEGIN CTAB
M  V30 COUNTS 37 38 0 0 0
M  V30 BEGIN ATOM
M  V30 1 N -2.73092 2.01054 -1.69017 0
M  V30 2 C -2.48622 1.61966 -0.349469 0
M  V30 3 C -2.47037 0.154489 -0.148666 0
M  V30 4 N -1.55359 -0.673076 -0.824299 0
M  V30 5 C -1.67402 -2.02373 -0.455374 0
M  V30 6 C -1.58392 -2.26722 1.01045 0
M  V30 7 C -0.416067 -1.58312 1.66107 0
M  V30 8 O 0.558613 -1.28573 0.768475 0
M  V30 9 C 0.526231 0.0192262 0.159879 0 CFG=2
M  V30 10 C -0.218554 -0.241745 -1.10196 0
M  V30 11 C 1.96093 0.293891 0.0170726 0
M  V30 12 C 2.8013 -0.684477 -0.453245 0
M  V30 13 C 4.2066 -0.464334 -0.464165 0
M  V30 14 C 4.67396 0.752371 0.0118412 0
M  V30 15 N 3.80132 1.70747 0.47989 0
M  V30 16 C 2.50519 1.47125 0.472804 0
M  V30 17 N 1.53014 2.46318 0.880001 0
M  V30 18 H -3.60943 1.73659 -2.04688 0
M  V30 19 H -2.12914 2.51054 -2.21043 0
M  V30 20 H -1.64876 2.19126 0.11767 0
M  V30 21 H -3.41591 1.97776 0.190338 0
M  V30 22 H -3.49906 -0.208801 -0.463877 0
M  V30 23 H -2.45845 -0.0673214 0.954759 0
M  V30 24 H -2.67419 -2.38565 -0.817042 0
M  V30 25 H -0.883334 -2.64135 -0.972114 0
M  V30 26 H -1.48384 -3.39752 1.21051 0
M  V30 27 H -2.51119 -1.99166 1.56371 0
M  V30 28 H -0.764327 -0.744468 2.31704 0
M  V30 29 H 0.0766912 -2.31606 2.41687 0
M  V30 30 H 0.0550168 0.714536 0.789602 0
M  V30 31 H 0.277881 -0.967657 -1.73871 0
M  V30 32 H -0.340309 0.695966 -1.71822 0
M  V30 33 H 2.51494 -1.65556 -0.829584 0
M  V30 34 H 4.87892 -1.2562 -0.802071 0
M  V30 35 H 5.76557 0.947548 0.0184127 0
M  V30 36 H 1.26695 2.49693 1.87372 0
M  V30 37 H 1.15138 3.09249 0.172158 0
M  V30 END ATOM
M  V30 BEGIN BOND
M  V30 1 1 1 2
M  V30 2 1 2 3
M  V30 3 1 3 4
M  V30 4 1 4 5
M  V30 5 1 5 6
M  V30 6 1 6 7
M  V30 7 1 7 8
M  V30 8 1 8 9
M  V30 9 1 9 10
M  V30 10 1 9 11
M  V30 11 2 11 12
M  V30 12 1 12 13
M  V30 13 2 13 14
M  V30 14 1 14 15
M  V30 15 2 15 16
M  V30 16 1 16 17
M  V30 17 1 10 4
M  V30 18 1 16 11
M  V30 19 1 1 18
M  V30 20 1 1 19
M  V30 21 1 2 20
M  V30 22 1 2 21
M  V30 23 1 3 22
M  V30 24 1 3 23
M  V30 25 1 5 24
M  V30 26 1 5 25
M  V30 27 1 6 26
M  V30 28 1 6 27
M  V30 29 1 7 28
M  V30 30 1 7 29
M  V30 31 1 9 30 CFG=1
M  V30 32 1 10 31
M  V30 33 1 10 32
M  V30 34 1 12 33
M  V30 35 1 13 34
M  V30 36 1 14 35
M  V30 37 1 17 36
M  V30 38 1 17 37
M  V30 END BOND
M  V30 END CTAB
M  END
