
     RDKit          3D

  0  0  0  0  0  0  0  0  0  0999 V3000
M  V30 BEGIN CTAB
M  V30 COUNTS 37 37 0 0 0
M  V30 BEGIN ATOM
M  V30 1 C 3.48594 -0.840927 -0.93449 0 CFG=1
M  V30 2 N 4.71504 -1.34038 -0.378802 0
M  V30 3 C 2.43349 -0.627536 0.126498 0
M  V30 4 S 0.893311 -0.000933176 -0.569525 0
M  V30 5 C -0.293206 0.206516 0.749432 0
M  V30 6 C 0.0898147 -0.119975 2.05163 0
M  V30 7 C -0.774371 0.0825071 3.10496 0
M  V30 8 O -0.39298 -0.244702 4.41471 0
M  V30 9 C -2.01267 0.612707 2.82073 0
M  V30 10 O -2.91426 0.834878 3.8456 0
M  V30 11 C -2.40501 0.939456 1.53498 0
M  V30 12 C -1.52327 0.730956 0.465064 0
M  V30 13 C -1.94609 1.01392 -0.917765 0
M  V30 14 C -2.55713 -0.194295 -1.53003 0 CFG=2
M  V30 15 N -1.71042 -1.28455 -1.58658 0
M  V30 16 C -3.16348 0.0833562 -2.86177 0
M  V30 17 O -4.04485 1.09793 -3.1133 0
M  V30 18 O -2.83487 -0.671539 -3.80559 0
M  V30 19 C 3.67198 0.384214 -1.73291 0
M  V30 20 O 4.93401 0.923561 -1.89767 0
M  V30 21 O 2.67868 0.932585 -2.26068 0
M  V30 22 H 3.09255 -1.64577 -1.59736 0
M  V30 23 H 5.19979 -0.63291 0.2239 0
M  V30 24 H 4.50044 -2.23037 0.124376 0
M  V30 25 H 2.30288 -1.60016 0.651405 0
M  V30 26 H 2.80348 0.0976115 0.894066 0
M  V30 27 H 1.07504 -0.533906 2.21772 0
M  V30 28 H -0.96268 -0.128173 5.22803 0
M  V30 29 H -2.73954 0.638434 4.80077 0
M  V30 30 H -3.3592 1.3512 1.2905 0
M  V30 31 H -1.03174 1.26584 -1.52138 0
M  V30 32 H -2.6515 1.88042 -0.940635 0
M  V30 33 H -3.45598 -0.490503 -0.886277 0
M  V30 34 H -1.68433 -1.95462 -0.812442 0
M  V30 35 H -1.23152 -1.52926 -2.44365 0
M  V30 36 H -3.75707 1.94343 -3.61719 0
M  V30 37 H 5.5697 1.05099 -1.13632 0
M  V30 END ATOM
M  V30 BEGIN BOND
M  V30 1 1 1 2
M  V30 2 1 1 3
M  V30 3 1 3 4
M  V30 4 1 4 5
M  V30 5 2 5 6
M  V30 6 1 6 7
M  V30 7 1 7 8
M  V30 8 2 7 9
M  V30 9 1 9 10
M  V30 10 1 9 11
M  V30 11 2 11 12
M  V30 12 1 12 13
M  V30 13 1 13 14
M  V30 14 1 14 15
M  V30 15 1 14 16
M  V30 16 1 16 17
M  V30 17 2 16 18
M  V30 18 1 1 19
M  V30 19 1 19 20
M  V30 20 2 19 21
M  V30 21 1 12 5
M  V30 22 1 1 22 CFG=3
M  V30 23 1 2 23
M  V30 24 1 2 24
M  V30 25 1 3 25
M  V30 26 1 3 26
M  V30 27 1 6 27
M  V30 28 1 8 28
M  V30 29 1 10 29
M  V30 30 1 11 30
M  V30 31 1 13 31
M  V30 32 1 13 32
M  V30 33 1 14 33 CFG=1
M  V30 34 1 15 34
M  V30 35 1 15 35
M  V30 36 1 17 36
M  V30 37 1 20 37
M  V30 END BOND
M  V30 END CTAB
M  END
