
     RDKit          3D

  0  0  0  0  0  0  0  0  0  0999 V3000
M  V30 BEGIN CTAB
M  V30 COUNTS 54 56 0 0 0
M  V30 BEGIN ATOM
M  V30 1 N 7.70108 -0.955348 0.777676 0
M  V30 2 C 6.5585 -0.366073 0.173091 0
M  V30 3 C 6.66363 0.777771 -0.593342 0
M  V30 4 C 5.55849 1.35809 -1.18478 0
M  V30 5 C 4.30005 0.816766 -1.03343 0
M  V30 6 C 4.17007 -0.323125 -0.274037 0
M  V30 7 C 5.29795 -0.902003 0.32037 0
M  V30 8 C 2.84269 -0.945145 -0.0779992 0
M  V30 9 N 1.72562 -0.0956032 -0.246971 0
M  V30 10 C 1.59042 1.00839 0.622985 0
M  V30 11 C 0.855882 2.18653 0.0334712 0
M  V30 12 N -0.26151 2.63211 0.787296 0
M  V30 13 C -1.21297 1.65513 1.18196 0
M  V30 14 C -1.81259 0.880644 -0.000782987 0
M  V30 15 N -1.72602 -0.488489 0.215487 0
M  V30 16 C -0.466183 -1.1229 0.192907 0
M  V30 17 C 0.538539 -0.670369 -0.776951 0
M  V30 18 C -2.72672 -1.35587 -0.27875 0
M  V30 19 C -4.09038 -1.16381 0.194048 0
M  V30 20 C -4.47823 -1.81026 1.34731 0
M  V30 21 C -5.74591 -1.6843 1.85901 0
M  V30 22 C -6.6608 -0.89443 1.21134 0
M  V30 23 C -6.26033 -0.249497 0.0533916 0
M  V30 24 C -4.99798 -0.378915 -0.450395 0
M  V30 25 N -7.22081 0.574901 -0.619103 0
M  V30 26 H 8.47013 -1.30523 0.187829 0
M  V30 27 H 7.80106 -1.05316 1.81569 0
M  V30 28 H 7.64815 1.22191 -0.72576 0
M  V30 29 H 5.6486 2.26439 -1.79083 0
M  V30 30 H 3.44528 1.29886 -1.51441 0
M  V30 31 H 5.20889 -1.80773 0.926176 0
M  V30 32 H 2.74985 -1.80622 -0.794893 0
M  V30 33 H 2.87914 -1.42073 0.942824 0
M  V30 34 H 2.60238 1.34783 0.925316 0
M  V30 35 H 1.13146 0.656973 1.57259 0
M  V30 36 H 0.616067 1.94129 -1.04064 0
M  V30 37 H 1.55129 3.07516 -0.0592091 0
M  V30 38 H -0.719013 3.40394 0.292823 0
M  V30 39 H -0.85022 0.923683 1.93529 0
M  V30 40 H -2.03006 2.21796 1.72817 0
M  V30 41 H -1.30753 1.28534 -0.896285 0
M  V30 42 H -2.87338 1.19406 -0.0881469 0
M  V30 43 H -0.614835 -2.21999 0.123724 0
M  V30 44 H -0.0196256 -0.985146 1.22563 0
M  V30 45 H 0.862581 -1.5661 -1.37249 0
M  V30 46 H 0.151344 0.0264708 -1.56118 0
M  V30 47 H -2.37421 -2.4151 -0.101936 0
M  V30 48 H -2.71792 -1.27134 -1.40593 0
M  V30 49 H -3.79631 -2.457 1.91473 0
M  V30 50 H -6.07377 -2.18256 2.76331 0
M  V30 51 H -7.68644 -0.771342 1.59462 0
M  V30 52 H -4.73268 0.134719 -1.34324 0
M  V30 53 H -8.19204 0.254496 -0.8207 0
M  V30 54 H -6.92065 1.53039 -0.911889 0
M  V30 END ATOM
M  V30 BEGIN BOND
M  V30 1 1 1 2
M  V30 2 2 2 3
M  V30 3 1 3 4
M  V30 4 2 4 5
M  V30 5 1 5 6
M  V30 6 2 6 7
M  V30 7 1 6 8
M  V30 8 1 8 9
M  V30 9 1 9 10
M  V30 10 1 10 11
M  V30 11 1 11 12
M  V30 12 1 12 13
M  V30 13 1 13 14
M  V30 14 1 14 15
M  V30 15 1 15 16
M  V30 16 1 16 17
M  V30 17 1 15 18
M  V30 18 1 18 19
M  V30 19 2 19 20
M  V30 20 1 20 21
M  V30 21 2 21 22
M  V30 22 1 22 23
M  V30 23 2 23 24
M  V30 24 1 23 25
M  V30 25 1 7 2
M  V30 26 1 17 9
M  V30 27 1 24 19
M  V30 28 1 1 26
M  V30 29 1 1 27
M  V30 30 1 3 28
M  V30 31 1 4 29
M  V30 32 1 5 30
M  V30 33 1 7 31
M  V30 34 1 8 32
M  V30 35 1 8 33
M  V30 36 1 10 34
M  V30 37 1 10 35
M  V30 38 1 11 36
M  V30 39 1 11 37
M  V30 40 1 12 38
M  V30 41 1 13 39
M  V30 42 1 13 40
M  V30 43 1 14 41
M  V30 44 1 14 42
M  V30 45 1 16 43
M  V30 46 1 16 44
M  V30 47 1 17 45
M  V30 48 1 17 46
M  V30 49 1 18 47
M  V30 50 1 18 48
M  V30 51 1 20 49
M  V30 52 1 21 50
M  V30 53 1 22 51
M  V30 54 1 24 52
M  V30 55 1 25 53
M  V30 56 1 25 54
M  V30 END BOND
M  V30 END CTAB
M  END
