
     RDKit          3D

  0  0  0  0  0  0  0  0  0  0999 V3000
M  V30 BEGIN CTAB
M  V30 COUNTS 41 43 0 0 0
M  V30 BEGIN ATOM
M  V30 1 C -7.08486 0.0400012 -0.532985 0
M  V30 2 C -5.60199 0.0852381 -0.314923 0
M  V30 3 C -4.99986 -0.607487 0.715125 0
M  V30 4 C -3.63705 -0.580833 0.935014 0
M  V30 5 C -2.83581 0.182512 0.0735647 0
M  V30 6 C -3.39379 0.878179 -0.952751 0
M  V30 7 C -4.76024 0.820233 -1.13168 0
M  V30 8 N -1.45933 0.182472 0.33141 0
M  V30 9 C -0.862406 0.346999 1.64572 0
M  V30 10 C 0.126457 -0.767051 1.92495 0
M  V30 11 C 1.01462 -1.10436 0.775407 0
M  V30 12 C 0.900022 -0.0542508 -0.303499 0
M  V30 13 C -0.535405 0.00990158 -0.739156 0
M  V30 14 O -0.860302 -0.0832603 -1.94894 0
M  V30 15 S 2.02575 -0.270441 -1.66965 0
M  V30 16 C 3.68521 -0.037957 -1.08594 0
M  V30 17 N 4.25035 1.18312 -1.08812 0
M  V30 18 C 5.50078 1.39535 -0.655636 0
M  V30 19 N 6.07211 2.68465 -0.669449 0
M  V30 20 N 6.23633 0.373908 -0.199489 0
M  V30 21 C 5.69815 -0.866301 -0.183841 0
M  V30 22 N 4.4208 -1.06172 -0.629495 0
M  V30 23 N 6.47254 -1.95712 0.296733 0
M  V30 24 H -7.30511 0.419279 -1.53354 0
M  V30 25 H -7.34886 -1.05882 -0.520164 0
M  V30 26 H -7.60587 0.560296 0.272827 0
M  V30 27 H -5.64982 -1.19361 1.36726 0
M  V30 28 H -3.1769 -1.13448 1.75714 0
M  V30 29 H -2.74839 1.45851 -1.59992 0
M  V30 30 H -5.18127 1.37825 -1.94724 0
M  V30 31 H -1.61621 0.312025 2.45563 0
M  V30 32 H -0.289019 1.29475 1.65925 0
M  V30 33 H -0.367738 -1.6956 2.27441 0
M  V30 34 H 0.775957 -0.382805 2.76154 0
M  V30 35 H 0.824417 -2.10906 0.362743 0
M  V30 36 H 2.0984 -1.12912 1.09044 0
M  V30 37 H 1.1023 0.926056 0.177136 0
M  V30 38 H 5.67578 3.44802 -0.0808715 0
M  V30 39 H 6.89475 2.8989 -1.26254 0
M  V30 40 H 6.76226 -2.09063 1.28601 0
M  V30 41 H 6.78327 -2.69376 -0.389845 0
M  V30 END ATOM
M  V30 BEGIN BOND
M  V30 1 1 1 2
M  V30 2 2 2 3
M  V30 3 1 3 4
M  V30 4 2 4 5
M  V30 5 1 5 6
M  V30 6 2 6 7
M  V30 7 1 5 8
M  V30 8 1 8 9
M  V30 9 1 9 10
M  V30 10 1 10 11
M  V30 11 1 11 12
M  V30 12 1 12 13
M  V30 13 2 13 14
M  V30 14 1 12 15
M  V30 15 1 15 16
M  V30 16 2 16 17
M  V30 17 1 17 18
M  V30 18 1 18 19
M  V30 19 2 18 20
M  V30 20 1 20 21
M  V30 21 2 21 22
M  V30 22 1 21 23
M  V30 23 1 7 2
M  V30 24 1 13 8
M  V30 25 1 22 16
M  V30 26 1 1 24
M  V30 27 1 1 25
M  V30 28 1 1 26
M  V30 29 1 3 27
M  V30 30 1 4 28
M  V30 31 1 6 29
M  V30 32 1 7 30
M  V30 33 1 9 31
M  V30 34 1 9 32
M  V30 35 1 10 33
M  V30 36 1 10 34
M  V30 37 1 11 35
M  V30 38 1 11 36
M  V30 39 1 12 37
M  V30 40 1 19 38
M  V30 41 1 19 39
M  V30 42 1 23 40
M  V30 43 1 23 41
M  V30 END BOND
M  V30 END CTAB
M  END
