
     RDKit          3D

  0  0  0  0  0  0  0  0  0  0999 V3000
M  V30 BEGIN CTAB
M  V30 COUNTS 60 63 0 0 0
M  V30 BEGIN ATOM
M  V30 1 C -5.79479 -1.92474 0.55299 0 CFG=2
M  V30 2 C -6.67731 -0.811185 0.129548 0
M  V30 3 C -6.60983 0.429131 0.933649 0
M  V30 4 C -5.29461 1.1183 0.983013 0
M  V30 5 C -5.38886 2.396 1.78634 0
M  V30 6 O -4.30848 3.20806 1.97629 0
M  V30 7 O -6.49928 2.67548 2.26865 0
M  V30 8 N -4.3906 -1.68863 0.515472 0
M  V30 9 C -3.68199 -1.4259 -0.684558 0
M  V30 10 O -4.30529 -1.38906 -1.7875 0
M  V30 11 C -2.24551 -1.18723 -0.744565 0
M  V30 12 C -1.42949 -1.44704 0.330568 0
M  V30 13 C -0.0524701 -1.21174 0.265736 0
M  V30 14 C 0.514424 -0.706553 -0.899991 0
M  V30 15 N 1.92152 -0.487372 -0.918415 0
M  V30 16 C 2.65563 -0.675922 0.337588 0
M  V30 17 C 4.10252 -0.421308 0.201107 0
M  V30 18 N 4.57229 0.790267 0.544647 0
M  V30 19 C 5.88927 1.02083 0.420672 0
M  V30 20 C 6.7919 0.0855302 -0.0397883 0
M  V30 21 N 6.30328 -1.12894 -0.381339 0
M  V30 22 C 4.9844 -1.38611 -0.266294 0
M  V30 23 N 8.09792 0.37866 -0.14066 0
M  V30 24 C 8.60005 1.58413 0.195669 0
M  V30 25 N 9.98835 1.86732 0.0780554 0
M  V30 26 N 7.72662 2.5029 0.645973 0
M  V30 27 C 6.40341 2.26432 0.768261 0
M  V30 28 N 5.4972 3.23396 1.23991 0
M  V30 29 C 2.64025 -0.104005 -2.08396 0
M  V30 30 C 1.96262 0.965222 -2.92106 0
M  V30 31 S 0.388241 0.196572 -3.46634 0
M  V30 32 C -0.333387 -0.462301 -1.94501 0
M  V30 33 C -1.67437 -0.678907 -1.91719 0
M  V30 34 C -6.12646 -3.17856 -0.204956 0
M  V30 35 O -7.445 -3.59531 -0.339438 0
M  V30 36 O -5.2038 -3.85038 -0.717896 0
M  V30 37 H -6.04062 -2.20186 1.64743 0
M  V30 38 H -7.74426 -1.17099 0.00702944 0
M  V30 39 H -6.40216 -0.527225 -0.926444 0
M  V30 40 H -6.85698 0.15854 2.00578 0
M  V30 41 H -7.36496 1.18453 0.572164 0
M  V30 42 H -4.87742 1.38185 0.00721725 0
M  V30 43 H -4.54751 0.520865 1.59046 0
M  V30 44 H -3.86847 3.74381 1.25102 0
M  V30 45 H -3.79802 -1.70433 1.4036 0
M  V30 46 H -1.82573 -1.8489 1.2735 0
M  V30 47 H 0.533038 -1.43111 1.1295 0
M  V30 48 H 2.19551 -0.0827871 1.1581 0
M  V30 49 H 2.55547 -1.74917 0.675625 0
M  V30 50 H 4.59384 -2.36128 -0.541205 0
M  V30 51 H 10.276 2.85622 -0.0291246 0
M  V30 52 H 10.7323 1.13966 0.0935464 0
M  V30 53 H 5.59617 4.2372 1.03577 0
M  V30 54 H 4.69136 2.91907 1.82134 0
M  V30 55 H 3.6165 0.322273 -1.79586 0
M  V30 56 H 2.84989 -0.941627 -2.78029 0
M  V30 57 H 2.57266 1.12147 -3.81625 0
M  V30 58 H 1.75984 1.87834 -2.35253 0
M  V30 59 H -2.30376 -0.468882 -2.77391 0
M  V30 60 H -7.921 -3.93119 0.487512 0
M  V30 END ATOM
M  V30 BEGIN BOND
M  V30 1 1 1 2
M  V30 2 1 2 3
M  V30 3 1 3 4
M  V30 4 1 4 5
M  V30 5 1 5 6
M  V30 6 2 5 7
M  V30 7 1 1 8
M  V30 8 1 8 9
M  V30 9 2 9 10
M  V30 10 1 9 11
M  V30 11 2 11 12
M  V30 12 1 12 13
M  V30 13 2 13 14
M  V30 14 1 14 15
M  V30 15 1 15 16
M  V30 16 1 16 17
M  V30 17 2 17 18
M  V30 18 1 18 19
M  V30 19 2 19 20
M  V30 20 1 20 21
M  V30 21 2 21 22
M  V30 22 1 20 23
M  V30 23 2 23 24
M  V30 24 1 24 25
M  V30 25 1 24 26
M  V30 26 2 26 27
M  V30 27 1 27 28
M  V30 28 1 15 29
M  V30 29 1 29 30
M  V30 30 1 30 31
M  V30 31 1 31 32
M  V30 32 2 32 33
M  V30 33 1 1 34
M  V30 34 1 34 35
M  V30 35 2 34 36
M  V30 36 1 33 11
M  V30 37 1 32 14
M  V30 38 1 22 17
M  V30 39 1 27 19
M  V30 40 1 1 37 CFG=1
M  V30 41 1 2 38
M  V30 42 1 2 39
M  V30 43 1 3 40
M  V30 44 1 3 41
M  V30 45 1 4 42
M  V30 46 1 4 43
M  V30 47 1 6 44
M  V30 48 1 8 45
M  V30 49 1 12 46
M  V30 50 1 13 47
M  V30 51 1 16 48
M  V30 52 1 16 49
M  V30 53 1 22 50
M  V30 54 1 25 51
M  V30 55 1 25 52
M  V30 56 1 28 53
M  V30 57 1 28 54
M  V30 58 1 29 55
M  V30 59 1 29 56
M  V30 60 1 30 57
M  V30 61 1 30 58
M  V30 62 1 33 59
M  V30 63 1 35 60
M  V30 END BOND
M  V30 END CTAB
M  END
