
     RDKit          3D

  0  0  0  0  0  0  0  0  0  0999 V3000
M  V30 BEGIN CTAB
M  V30 COUNTS 55 57 0 0 0
M  V30 BEGIN ATOM
M  V30 1 C -4.74375 3.38123 0.189767 0
M  V30 2 C -4.81614 1.87171 0.503038 0
M  V30 3 O -4.52075 1.74215 1.83072 0
M  V30 4 C -4.48987 0.531462 2.39596 0
M  V30 5 C -3.20832 0.110442 3.10205 0
M  V30 6 N -2.02016 0.0933953 2.33276 0
M  V30 7 C -1.32049 1.15966 1.74833 0
M  V30 8 O -1.67974 2.33525 1.86069 0
M  V30 9 C -0.086849 0.914921 0.949319 0
M  V30 10 N 0.361781 -0.349913 0.786937 0
M  V30 11 C 1.46808 -0.62189 0.0762287 0
M  V30 12 C 2.12787 0.455744 -0.482742 0
M  V30 13 N 1.71021 1.7222 -0.341267 0
M  V30 14 C 0.599653 1.96201 0.375788 0
M  V30 15 N 0.0880156 3.27653 0.574873 0
M  V30 16 N 3.24564 0.179528 -1.20062 0
M  V30 17 C 3.70506 -1.05851 -1.3731 0
M  V30 18 N 3.03975 -2.08382 -0.816141 0
M  V30 19 C 1.92916 -1.92894 -0.0898514 0
M  V30 20 N 1.21822 -3.00428 0.503098 0
M  V30 21 C 4.91415 -1.25585 -2.16048 0
M  V30 22 C 5.4508 -2.51209 -2.38296 0
M  V30 23 C 6.59779 -2.68151 -3.13162 0
M  V30 24 C 7.25673 -1.60691 -3.68899 0
M  V30 25 C 8.49731 -1.77085 -4.50084 0
M  V30 26 C 6.73496 -0.349761 -3.47657 0
M  V30 27 C 5.58225 -0.189531 -2.72308 0
M  V30 28 O -5.52102 0.504713 3.38723 0
M  V30 29 C -6.32863 -0.587346 3.19786 0
M  V30 30 C -7.04548 -0.640533 1.89459 0
M  V30 31 H -3.88072 3.83654 0.716267 0
M  V30 32 H -4.58452 3.47801 -0.898502 0
M  V30 33 H -5.70921 3.82466 0.528825 0
M  V30 34 H -3.97392 1.43493 -0.0906553 0
M  V30 35 H -5.75478 1.464 0.153367 0
M  V30 36 H -4.69231 -0.283499 1.67883 0
M  V30 37 H -3.04082 0.749863 4.00441 0
M  V30 38 H -3.44599 -0.926216 3.49112 0
M  V30 39 H -1.57554 -0.875653 2.16199 0
M  V30 40 H -0.701994 3.5776 -0.0358071 0
M  V30 41 H 0.438608 3.94966 1.27433 0
M  V30 42 H 1.05482 -3.90551 -0.00471116 0
M  V30 43 H 0.858757 -2.85622 1.48411 0
M  V30 44 H 4.92539 -3.3566 -1.93989 0
M  V30 45 H 7.00657 -3.67227 -3.29741 0
M  V30 46 H 8.7267 -2.85254 -4.56699 0
M  V30 47 H 9.37281 -1.2737 -4.03596 0
M  V30 48 H 8.34144 -1.33578 -5.50959 0
M  V30 49 H 7.22566 0.532516 -3.90051 0
M  V30 50 H 5.17578 0.80068 -2.55881 0
M  V30 51 H -7.04736 -0.684309 4.05193 0
M  V30 52 H -5.65015 -1.49838 3.2135 0
M  V30 53 H -7.99415 -1.22218 2.0676 0
M  V30 54 H -7.36266 0.383166 1.59942 0
M  V30 55 H -6.45866 -1.09187 1.07216 0
M  V30 END ATOM
M  V30 BEGIN BOND
M  V30 1 1 1 2
M  V30 2 1 2 3
M  V30 3 1 3 4
M  V30 4 1 4 5
M  V30 5 1 5 6
M  V30 6 1 6 7
M  V30 7 2 7 8
M  V30 8 1 7 9
M  V30 9 2 9 10
M  V30 10 1 10 11
M  V30 11 2 11 12
M  V30 12 1 12 13
M  V30 13 2 13 14
M  V30 14 1 14 15
M  V30 15 1 12 16
M  V30 16 2 16 17
M  V30 17 1 17 18
M  V30 18 2 18 19
M  V30 19 1 19 20
M  V30 20 1 17 21
M  V30 21 2 21 22
M  V30 22 1 22 23
M  V30 23 2 23 24
M  V30 24 1 24 25
M  V30 25 1 24 26
M  V30 26 2 26 27
M  V30 27 1 4 28
M  V30 28 1 28 29
M  V30 29 1 29 30
M  V30 30 1 14 9
M  V30 31 1 27 21
M  V30 32 1 19 11
M  V30 33 1 1 31
M  V30 34 1 1 32
M  V30 35 1 1 33
M  V30 36 1 2 34
M  V30 37 1 2 35
M  V30 38 1 4 36
M  V30 39 1 5 37
M  V30 40 1 5 38
M  V30 41 1 6 39
M  V30 42 1 15 40
M  V30 43 1 15 41
M  V30 44 1 20 42
M  V30 45 1 20 43
M  V30 46 1 22 44
M  V30 47 1 23 45
M  V30 48 1 25 46
M  V30 49 1 25 47
M  V30 50 1 25 48
M  V30 51 1 26 49
M  V30 52 1 27 50
M  V30 53 1 29 51
M  V30 54 1 29 52
M  V30 55 1 30 53
M  V30 56 1 30 54
M  V30 57 1 30 55
M  V30 END BOND
M  V30 END CTAB
M  END
