
     RDKit          3D

  0  0  0  0  0  0  0  0  0  0999 V3000
M  V30 BEGIN CTAB
M  V30 COUNTS 36 38 0 0 0
M  V30 BEGIN ATOM
M  V30 1 N 0.284316 -2.58213 0.426951 0
M  V30 2 C 1.07096 -1.43566 0.249786 0
M  V30 3 C 2.41142 -1.38259 -0.0117432 0
M  V30 4 C 3.29786 -2.48919 -0.160419 0
M  V30 5 N 4.01618 -3.39162 -0.26216 0
M  V30 6 C 2.76203 -0.0527767 -0.108123 0
M  V30 7 C 1.61657 0.69039 0.0986012 0
M  V30 8 N 1.72728 2.0171 0.0488953 0
M  V30 9 C 2.84363 2.68898 -0.182244 0
M  V30 10 N 3.98345 1.98527 -0.388709 0
M  V30 11 C 3.94117 0.641294 -0.351933 0
M  V30 12 N 5.10393 -0.118664 -0.56165 0
M  V30 13 N 0.610065 -0.168138 0.312377 0
M  V30 14 C -0.746015 0.227664 0.567405 0 CFG=2
M  V30 15 O -1.65423 -0.831844 0.377278 0
M  V30 16 C -2.86603 -0.163068 0.493149 0 CFG=2
M  V30 17 C -4.04225 -1.05038 0.151107 0
M  V30 18 O -3.9179 -1.49858 -1.1625 0
M  V30 19 C -2.72228 0.920157 -0.55221 0 CFG=1
M  V30 20 O -3.55781 1.9893 -0.329634 0
M  V30 21 C -1.24557 1.29566 -0.372946 0 CFG=1
M  V30 22 O -1.23626 2.55543 0.23026 0
M  V30 23 H 0.159097 -2.97092 1.36478 0
M  V30 24 H -0.159919 -3.02466 -0.376537 0
M  V30 25 H 2.81097 3.76701 -0.198802 0
M  V30 26 H 5.15554 -0.770971 -1.35307 0
M  V30 27 H 5.91607 -0.0284636 0.0770462 0
M  V30 28 H -0.898679 0.570676 1.6165 0
M  V30 29 H -2.93685 0.226641 1.51145 0
M  V30 30 H -4.14234 -1.88017 0.850763 0
M  V30 31 H -4.95361 -0.402937 0.242066 0
M  V30 32 H -4.52048 -2.29498 -1.29008 0
M  V30 33 H -2.87445 0.463151 -1.54598 0
M  V30 34 H -3.08679 2.81697 -0.567581 0
M  V30 35 H -0.694639 1.2632 -1.31413 0
M  V30 36 H -1.45441 2.41884 1.18262 0
M  V30 END ATOM
M  V30 BEGIN BOND
M  V30 1 1 1 2
M  V30 2 2 2 3
M  V30 3 1 3 4
M  V30 4 3 4 5
M  V30 5 1 3 6
M  V30 6 2 6 7
M  V30 7 1 7 8
M  V30 8 2 8 9
M  V30 9 1 9 10
M  V30 10 2 10 11
M  V30 11 1 11 12
M  V30 12 1 7 13
M  V30 13 1 13 14
M  V30 14 1 14 15
M  V30 15 1 15 16
M  V30 16 1 16 17
M  V30 17 1 17 18
M  V30 18 1 16 19
M  V30 19 1 19 20
M  V30 20 1 19 21
M  V30 21 1 21 22
M  V30 22 1 13 2
M  V30 23 1 21 14
M  V30 24 1 11 6
M  V30 25 1 1 23
M  V30 26 1 1 24
M  V30 27 1 9 25
M  V30 28 1 12 26
M  V30 29 1 12 27
M  V30 30 1 14 28 CFG=1
M  V30 31 1 16 29 CFG=1
M  V30 32 1 17 30
M  V30 33 1 17 31
M  V30 34 1 18 32
M  V30 35 1 19 33 CFG=3
M  V30 36 1 20 34
M  V30 37 1 21 35 CFG=3
M  V30 38 1 22 36
M  V30 END BOND
M  V30 END CTAB
M  END
