
     RDKit          3D

  0  0  0  0  0  0  0  0  0  0999 V3000
M  V30 BEGIN CTAB
M  V30 COUNTS 57 56 0 0 0
M  V30 BEGIN ATOM
M  V30 1 C 8.66419 0.27295 -0.0310498 0
M  V30 2 C 7.89567 -0.413902 1.06676 0
M  V30 3 C 8.60717 -1.73962 1.32359 0
M  V30 4 C 7.95627 0.370224 2.35063 0
M  V30 5 O 6.57446 -0.738291 0.669978 0
M  V30 6 C 5.66186 0.229301 0.270631 0
M  V30 7 O 6.07763 1.42074 0.275878 0
M  V30 8 N 4.33464 -0.0940537 -0.122955 0
M  V30 9 C 3.39608 0.942972 -0.541458 0
M  V30 10 C 2.04954 0.312199 -0.898152 0
M  V30 11 O 1.21246 1.32239 -1.28466 0
M  V30 12 C -0.0748501 0.910374 -1.64338 0
M  V30 13 C -0.78814 0.223528 -0.507885 0
M  V30 14 N -2.10325 -0.192675 -0.882042 0
M  V30 15 C -3.08728 0.733087 -1.26477 0
M  V30 16 O -2.83798 1.95448 -1.28092 0
M  V30 17 C -4.44791 0.289989 -1.65982 0 CFG=2
M  V30 18 N -5.28969 1.41325 -1.99887 0
M  V30 19 C -5.00392 -0.549836 -0.53824 0
M  V30 20 C -6.39682 -1.02977 -0.888717 0
M  V30 21 C -6.90438 -1.86891 0.26817 0
M  V30 22 N -6.91949 -1.02531 1.44474 0
M  V30 23 C -7.84479 0.0494624 1.51616 0
M  V30 24 N -7.43866 1.36787 1.90217 0
M  V30 25 N -9.09801 -0.156412 1.22678 0
M  V30 26 H 8.69788 1.36089 0.197551 0
M  V30 27 H 9.71326 -0.0754157 -0.100865 0
M  V30 28 H 8.20037 0.151201 -1.02947 0
M  V30 29 H 8.77218 -2.19175 0.326271 0
M  V30 30 H 9.55277 -1.58116 1.88177 0
M  V30 31 H 7.91827 -2.36011 1.93045 0
M  V30 32 H 8.65627 1.22342 2.31544 0
M  V30 33 H 8.28573 -0.257639 3.21692 0
M  V30 34 H 6.92352 0.713812 2.60704 0
M  V30 35 H 4.06301 -1.10237 -0.0992838 0
M  V30 36 H 3.22722 1.58891 0.338681 0
M  V30 37 H 3.80316 1.56315 -1.34762 0
M  V30 38 H 1.73613 -0.242355 0.0164736 0
M  V30 39 H 2.15576 -0.416259 -1.71401 0
M  V30 40 H 0.104008 0.138317 -2.45496 0
M  V30 41 H -0.640225 1.69997 -2.13511 0
M  V30 42 H -0.80763 0.916219 0.377469 0
M  V30 43 H -0.213152 -0.705094 -0.212899 0
M  V30 44 H -2.36504 -1.21691 -0.878644 0
M  V30 45 H -4.42335 -0.362844 -2.56158 0
M  V30 46 H -4.99145 1.82691 -2.88864 0
M  V30 47 H -5.40126 2.08323 -1.21097 0
M  V30 48 H -4.36235 -1.45448 -0.465918 0
M  V30 49 H -5.00477 0.0614689 0.37844 0
M  V30 50 H -7.07293 -0.179246 -1.04578 0
M  V30 51 H -6.32094 -1.66219 -1.79756 0
M  V30 52 H -6.2019 -2.71009 0.391896 0
M  V30 53 H -7.9433 -2.22223 0.0823891 0
M  V30 54 H -6.25709 -1.22082 2.21011 0
M  V30 55 H -7.93333 1.87118 2.68129 0
M  V30 56 H -6.6551 1.85949 1.43093 0
M  V30 57 H -9.41048 -1.10123 0.947003 0
M  V30 END ATOM
M  V30 BEGIN BOND
M  V30 1 1 1 2
M  V30 2 1 2 3
M  V30 3 1 2 4
M  V30 4 1 2 5
M  V30 5 1 5 6
M  V30 6 2 6 7
M  V30 7 1 6 8
M  V30 8 1 8 9
M  V30 9 1 9 10
M  V30 10 1 10 11
M  V30 11 1 11 12
M  V30 12 1 12 13
M  V30 13 1 13 14
M  V30 14 1 14 15
M  V30 15 2 15 16
M  V30 16 1 15 17
M  V30 17 1 17 18
M  V30 18 1 17 19
M  V30 19 1 19 20
M  V30 20 1 20 21
M  V30 21 1 21 22
M  V30 22 1 22 23
M  V30 23 1 23 24
M  V30 24 2 23 25 CFG=2
M  V30 25 1 1 26
M  V30 26 1 1 27
M  V30 27 1 1 28
M  V30 28 1 3 29
M  V30 29 1 3 30
M  V30 30 1 3 31
M  V30 31 1 4 32
M  V30 32 1 4 33
M  V30 33 1 4 34
M  V30 34 1 8 35
M  V30 35 1 9 36
M  V30 36 1 9 37
M  V30 37 1 10 38
M  V30 38 1 10 39
M  V30 39 1 12 40
M  V30 40 1 12 41
M  V30 41 1 13 42
M  V30 42 1 13 43
M  V30 43 1 14 44
M  V30 44 1 17 45 CFG=3
M  V30 45 1 18 46
M  V30 46 1 18 47
M  V30 47 1 19 48
M  V30 48 1 19 49
M  V30 49 1 20 50
M  V30 50 1 20 51
M  V30 51 1 21 52
M  V30 52 1 21 53
M  V30 53 1 22 54
M  V30 54 1 24 55
M  V30 55 1 24 56
M  V30 56 1 25 57
M  V30 END BOND
M  V30 END CTAB
M  END
