
     RDKit          3D

  0  0  0  0  0  0  0  0  0  0999 V3000
M  V30 BEGIN CTAB
M  V30 COUNTS 45 46 0 0 0
M  V30 BEGIN ATOM
M  V30 1 C -0.250301 4.49334 0.941889 0
M  V30 2 O -1.20602 3.47195 0.899229 0
M  V30 3 C -0.875527 2.22988 0.391523 0
M  V30 4 C -1.79707 1.1958 0.335048 0
M  V30 5 O -3.08114 1.43706 0.806818 0
M  V30 6 C -4.0354 1.92006 -0.101397 0
M  V30 7 C -1.43751 -0.032338 -0.176902 0
M  V30 8 O -2.40122 -1.0241 -0.206911 0
M  V30 9 C -2.24164 -2.32317 -0.681308 0
M  V30 10 C -3.56146 -3.0428 -0.51171 0
M  V30 11 C -3.96088 -3.07715 0.91171 0
M  V30 12 O -5.13899 -3.68493 1.33757 0
M  V30 13 O -3.20624 -2.53825 1.75279 0
M  V30 14 C -0.136578 -0.220375 -0.636137 0
M  V30 15 C 0.799163 0.792936 -0.590514 0
M  V30 16 C 2.14102 0.56432 -1.09376 0
M  V30 17 C 3.05249 -0.206458 -0.258792 0
M  V30 18 C 3.27469 -1.55066 -0.587282 0
M  V30 19 N 4.09875 -2.31223 0.153186 0
M  V30 20 C 4.74503 -1.83689 1.23126 0
M  V30 21 N 5.62197 -2.6671 2.01039 0
M  V30 22 N 4.54208 -0.552785 1.5571 0
M  V30 23 C 3.71428 0.26886 0.839407 0
M  V30 24 N 3.52936 1.61659 1.20522 0
M  V30 25 C 0.407985 1.99327 -0.0785607 0
M  V30 26 H 0.133788 4.77059 -0.0638455 0
M  V30 27 H -0.619644 5.41368 1.41263 0
M  V30 28 H 0.640185 4.17628 1.55434 0
M  V30 29 H -5.0166 1.98663 0.415963 0
M  V30 30 H -4.18064 1.23879 -0.969596 0
M  V30 31 H -3.72635 2.89397 -0.501481 0
M  V30 32 H -1.40248 -2.87236 -0.193829 0
M  V30 33 H -2.04806 -2.25537 -1.78814 0
M  V30 34 H -4.32378 -2.40044 -1.03496 0
M  V30 35 H -3.58973 -4.02771 -1.00058 0
M  V30 36 H -6.04258 -3.37188 1.01458 0
M  V30 37 H 0.101312 -1.20324 -1.03071 0
M  V30 38 H 2.12175 0.0756682 -2.11731 0
M  V30 39 H 2.68549 1.53758 -1.32338 0
M  V30 40 H 2.75678 -1.95942 -1.46397 0
M  V30 41 H 6.62013 -2.40548 2.18413 0
M  V30 42 H 5.30316 -3.56541 2.43634 0
M  V30 43 H 2.91196 1.82877 2.01248 0
M  V30 44 H 3.97606 2.41456 0.712999 0
M  V30 45 H 1.10239 2.80997 -0.0361882 0
M  V30 END ATOM
M  V30 BEGIN BOND
M  V30 1 1 1 2
M  V30 2 1 2 3
M  V30 3 2 3 4
M  V30 4 1 4 5
M  V30 5 1 5 6
M  V30 6 1 4 7
M  V30 7 1 7 8
M  V30 8 1 8 9
M  V30 9 1 9 10
M  V30 10 1 10 11
M  V30 11 1 11 12
M  V30 12 2 11 13
M  V30 13 2 7 14
M  V30 14 1 14 15
M  V30 15 1 15 16
M  V30 16 1 16 17
M  V30 17 2 17 18
M  V30 18 1 18 19
M  V30 19 2 19 20
M  V30 20 1 20 21
M  V30 21 1 20 22
M  V30 22 2 22 23
M  V30 23 1 23 24
M  V30 24 2 15 25
M  V30 25 1 25 3
M  V30 26 1 23 17
M  V30 27 1 1 26
M  V30 28 1 1 27
M  V30 29 1 1 28
M  V30 30 1 6 29
M  V30 31 1 6 30
M  V30 32 1 6 31
M  V30 33 1 9 32
M  V30 34 1 9 33
M  V30 35 1 10 34
M  V30 36 1 10 35
M  V30 37 1 12 36
M  V30 38 1 14 37
M  V30 39 1 16 38
M  V30 40 1 16 39
M  V30 41 1 18 40
M  V30 42 1 21 41
M  V30 43 1 21 42
M  V30 44 1 24 43
M  V30 45 1 24 44
M  V30 46 1 25 45
M  V30 END BOND
M  V30 END CTAB
M  END
