
     RDKit          3D

  0  0  0  0  0  0  0  0  0  0999 V3000
M  V30 BEGIN CTAB
M  V30 COUNTS 36 38 0 0 0
M  V30 BEGIN ATOM
M  V30 1 N 5.13057 2.52471 -0.902661 0
M  V30 2 C 4.12674 1.57349 -0.594135 0
M  V30 3 N 4.30781 0.683576 0.4259 0
M  V30 4 C 3.36504 -0.228467 0.734589 0
M  V30 5 N 3.60635 -1.1358 1.8116 0
M  V30 6 C 2.18126 -0.285449 0.0194253 0
M  V30 7 C 1.19021 -1.19891 0.29804 0
M  V30 8 C 0.00985766 -1.24607 -0.424828 0
M  V30 9 C -1.0567 -2.22852 -0.137454 0
M  V30 10 C -2.05964 -1.77407 0.876144 0
M  V30 11 C -2.78181 -0.543067 0.484293 0
M  V30 12 C -3.94904 -0.581974 -0.250198 0
M  V30 13 C -4.61929 0.579459 -0.604445 0
M  V30 14 C -4.11243 1.80999 -0.216286 0
M  V30 15 C -2.94483 1.81821 0.516685 0
M  V30 16 C -2.26584 0.671952 0.877282 0
M  V30 17 C -0.183556 -0.353113 -1.45601 0
M  V30 18 C 0.808957 0.550978 -1.72418 0
M  V30 19 C 1.99199 0.611455 -1.01305 0
M  V30 20 N 2.97064 1.5032 -1.27775 0
M  V30 21 H 5.68354 2.92503 -0.123488 0
M  V30 22 H 5.28051 2.78987 -1.89314 0
M  V30 23 H 4.31899 -1.88294 1.65421 0
M  V30 24 H 3.06958 -1.00894 2.68308 0
M  V30 25 H 1.34739 -1.90683 1.11806 0
M  V30 26 H -0.550564 -3.16999 0.15155 0
M  V30 27 H -1.63616 -2.48846 -1.05879 0
M  V30 28 H -2.80751 -2.60158 0.981561 0
M  V30 29 H -1.6028 -1.65372 1.89032 0
M  V30 30 H -4.3736 -1.51635 -0.569838 0
M  V30 31 H -5.53219 0.576276 -1.17734 0
M  V30 32 H -4.6236 2.74017 -0.483935 0
M  V30 33 H -2.53844 2.78614 0.826835 0
M  V30 34 H -1.34185 0.75642 1.46177 0
M  V30 35 H -1.10023 -0.366438 -2.04102 0
M  V30 36 H 0.690622 1.26978 -2.52987 0
M  V30 END ATOM
M  V30 BEGIN BOND
M  V30 1 1 1 2
M  V30 2 2 2 3
M  V30 3 1 3 4
M  V30 4 1 4 5
M  V30 5 2 4 6
M  V30 6 1 6 7
M  V30 7 2 7 8
M  V30 8 1 8 9
M  V30 9 1 9 10
M  V30 10 1 10 11
M  V30 11 2 11 12
M  V30 12 1 12 13
M  V30 13 2 13 14
M  V30 14 1 14 15
M  V30 15 2 15 16
M  V30 16 1 8 17
M  V30 17 2 17 18
M  V30 18 1 18 19
M  V30 19 2 19 20
M  V30 20 1 20 2
M  V30 21 1 19 6
M  V30 22 1 16 11
M  V30 23 1 1 21
M  V30 24 1 1 22
M  V30 25 1 5 23
M  V30 26 1 5 24
M  V30 27 1 7 25
M  V30 28 1 9 26
M  V30 29 1 9 27
M  V30 30 1 10 28
M  V30 31 1 10 29
M  V30 32 1 12 30
M  V30 33 1 13 31
M  V30 34 1 14 32
M  V30 35 1 15 33
M  V30 36 1 16 34
M  V30 37 1 17 35
M  V30 38 1 18 36
M  V30 END BOND
M  V30 END CTAB
M  END
