
     RDKit          3D

  0  0  0  0  0  0  0  0  0  0999 V3000
M  V30 BEGIN CTAB
M  V30 COUNTS 38 38 0 0 0
M  V30 BEGIN ATOM
M  V30 1 N 4.06831 0.035879 1.45197 0
M  V30 2 C 4.41584 1.14364 0.607704 0
M  V30 3 C 3.87835 0.974812 -0.778277 0
M  V30 4 C 2.39747 0.865525 -0.851042 0
M  V30 5 O 1.80407 1.84694 -1.35129 0
M  V30 6 N 1.67955 -0.250253 -0.39657 0
M  V30 7 C 0.283631 -0.432005 -0.415868 0
M  V30 8 C -0.169676 -1.74146 -0.196526 0
M  V30 9 C -1.49453 -1.9759 -0.188148 0
M  V30 10 C -2.4707 -1.00857 -0.382644 0
M  V30 11 C -2.05417 0.281371 -0.599637 0
M  V30 12 C -0.671398 0.532517 -0.609044 0
M  V30 13 S -3.13981 1.60715 -0.875212 0
M  V30 14 O -2.32375 2.84698 -1.13059 0
M  V30 15 O -3.93521 1.434 -2.147 0
M  V30 16 N -4.14976 1.99817 0.448932 0
M  V30 17 C -3.87951 -1.38927 -0.334907 0
M  V30 18 C -4.59252 -1.16229 0.952793 0
M  V30 19 C 4.54771 -0.252832 -1.37014 0
M  V30 20 H 4.72216 -0.77139 1.25047 0
M  V30 21 H 4.15769 0.26858 2.47302 0
M  V30 22 H 5.53462 1.20831 0.501658 0
M  V30 23 H 4.01436 2.09743 1.03015 0
M  V30 24 H 4.19951 1.82864 -1.37871 0
M  V30 25 H 2.29363 -1.03145 0.000358196 0
M  V30 26 H 0.530054 -2.54633 -0.036987 0
M  V30 27 H -1.82531 -3.01332 -0.0134039 0
M  V30 28 H -0.368735 1.54808 -0.768157 0
M  V30 29 H -3.78763 1.81647 1.37189 0
M  V30 30 H -5.14492 1.84461 0.334509 0
M  V30 31 H -4.46161 -0.980908 -1.22017 0
M  V30 32 H -3.93896 -2.50112 -0.543937 0
M  V30 33 H -3.91489 -0.716046 1.73469 0
M  V30 34 H -5.56411 -0.631222 0.869553 0
M  V30 35 H -4.89472 -2.14247 1.44629 0
M  V30 36 H 4.42885 -1.13655 -0.739825 0
M  V30 37 H 5.62736 -0.0166502 -1.43448 0
M  V30 38 H 4.19874 -0.479053 -2.38129 0
M  V30 END ATOM
M  V30 BEGIN BOND
M  V30 1 1 1 2
M  V30 2 1 2 3
M  V30 3 1 3 4
M  V30 4 2 4 5
M  V30 5 1 4 6
M  V30 6 1 6 7
M  V30 7 2 7 8
M  V30 8 1 8 9
M  V30 9 2 9 10
M  V30 10 1 10 11
M  V30 11 2 11 12
M  V30 12 1 11 13
M  V30 13 2 13 14
M  V30 14 2 13 15
M  V30 15 1 13 16
M  V30 16 1 10 17
M  V30 17 1 17 18
M  V30 18 1 3 19
M  V30 19 1 12 7
M  V30 20 1 1 20
M  V30 21 1 1 21
M  V30 22 1 2 22
M  V30 23 1 2 23
M  V30 24 1 3 24
M  V30 25 1 6 25
M  V30 26 1 8 26
M  V30 27 1 9 27
M  V30 28 1 12 28
M  V30 29 1 16 29
M  V30 30 1 16 30
M  V30 31 1 17 31
M  V30 32 1 17 32
M  V30 33 1 18 33
M  V30 34 1 18 34
M  V30 35 1 18 35
M  V30 36 1 19 36
M  V30 37 1 19 37
M  V30 38 1 19 38
M  V30 END BOND
M  V30 END CTAB
M  END
