
     RDKit          3D

  0  0  0  0  0  0  0  0  0  0999 V3000
M  V30 BEGIN CTAB
M  V30 COUNTS 21 21 0 0 0
M  V30 BEGIN ATOM
M  V30 1 O -3.02675 2.01321 0.891719 0 CHG=-1
M  V30 2 N -2.39638 1.42586 -0.172359 0 CHG=1
M  V30 3 O -2.96877 1.23488 -1.28595 0
M  V30 4 C -1.04328 0.98561 -0.0924868 0
M  V30 5 C -0.744499 -0.346229 -0.023251 0
M  V30 6 C -1.8303 -1.37171 -0.0229761 0
M  V30 7 C 0.572465 -0.725548 0.0495161 0
M  V30 8 N 0.85932 -2.11664 0.119206 0
M  V30 9 C 1.59619 0.209575 0.0538773 0
M  V30 10 C 1.26229 1.52991 -0.0162757 0
M  V30 11 C -0.0532187 1.92842 -0.0894522 0
M  V30 12 F -0.333435 3.25364 -0.157534 0
M  V30 13 Br 2.61877 2.87208 -0.0155359 0
M  V30 14 N 2.94727 -0.154658 0.128916 0
M  V30 15 H -1.4241 -2.30347 0.450048 0
M  V30 16 H -2.21564 -1.58856 -1.03316 0
M  V30 17 H -2.65322 -1.02675 0.638815 0
M  V30 18 H 1.03416 -2.59021 -0.790741 0
M  V30 19 H 0.900949 -2.65397 0.997447 0
M  V30 20 H 3.40601 -0.191921 1.08039 0
M  V30 21 H 3.49217 -0.383521 -0.710213 0
M  V30 END ATOM
M  V30 BEGIN BOND
M  V30 1 1 1 2
M  V30 2 2 2 3
M  V30 3 1 2 4
M  V30 4 2 4 5
M  V30 5 1 5 6
M  V30 6 1 5 7
M  V30 7 1 7 8
M  V30 8 2 7 9
M  V30 9 1 9 10
M  V30 10 2 10 11
M  V30 11 1 11 12
M  V30 12 1 10 13
M  V30 13 1 9 14
M  V30 14 1 11 4
M  V30 15 1 6 15
M  V30 16 1 6 16
M  V30 17 1 6 17
M  V30 18 1 8 18
M  V30 19 1 8 19
M  V30 20 1 14 20
M  V30 21 1 14 21
M  V30 END BOND
M  V30 END CTAB
M  END
