
     RDKit          3D

  0  0  0  0  0  0  0  0  0  0999 V3000
M  V30 BEGIN CTAB
M  V30 COUNTS 62 63 0 0 0
M  V30 BEGIN ATOM
M  V30 1 N 5.34171 -0.798494 -0.498826 0
M  V30 2 C 4.28015 -0.203435 0.270862 0
M  V30 3 C 3.2702 -1.2223 0.591407 0
M  V30 4 C 1.96223 -1.07942 -0.277727 0
M  V30 5 C 2.32869 -1.36569 -1.70445 0
M  V30 6 C 1.25748 -2.31466 0.273171 0
M  V30 7 N 1.32858 0.16006 -0.0226874 0
M  V30 8 C 2.29238 1.32125 0.0283178 0
M  V30 9 C 3.67361 1.02078 -0.357478 0
M  V30 10 C 1.79989 2.47034 -0.815983 0
M  V30 11 C 2.33292 1.79769 1.46025 0
M  V30 12 C 0.00386776 0.561749 0.121553 0
M  V30 13 O -0.0633518 1.8445 0.655434 0
M  V30 14 N -1.3203 0.200268 -0.0507137 0
M  V30 15 C -1.97886 -0.781554 -0.834533 0
M  V30 16 C -1.28015 -1.11932 -2.16618 0
M  V30 17 C -2.38966 -2.06022 -0.207033 0
M  V30 18 C -3.34103 -0.225099 -1.38319 0
M  V30 19 C -4.26576 0.109396 -0.271691 0
M  V30 20 C -3.58371 0.224824 1.03969 0
M  V30 21 C -2.27456 0.91137 0.880701 0
M  V30 22 C -2.56556 2.30473 0.415582 0
M  V30 23 C -1.67396 0.93505 2.28985 0
M  V30 24 N -5.47485 -0.72883 -0.228471 0
M  V30 25 H 6.05486 -1.28091 0.0520479 0
M  V30 26 H 5.8419 0.0101561 -0.978528 0
M  V30 27 H 4.75584 0.0824743 1.26061 0
M  V30 28 H 3.61918 -2.25074 0.340309 0
M  V30 29 H 2.9326 -1.23539 1.64199 0
M  V30 30 H 1.67117 -2.18713 -2.07449 0
M  V30 31 H 3.36432 -1.73994 -1.77097 0
M  V30 32 H 2.15007 -0.526699 -2.40629 0
M  V30 33 H 1.88776 -3.02922 0.784163 0
M  V30 34 H 0.803673 -2.85012 -0.581608 0
M  V30 35 H 0.500367 -1.96488 1.0242 0
M  V30 36 H 3.78261 0.889295 -1.4472 0
M  V30 37 H 4.35113 1.86607 -0.116808 0
M  V30 38 H 1.59899 3.39802 -0.233353 0
M  V30 39 H 0.989427 2.1949 -1.52102 0
M  V30 40 H 2.62395 2.80982 -1.51897 0
M  V30 41 H 3.36343 1.76856 1.89103 0
M  V30 42 H 1.7336 1.12778 2.11893 0
M  V30 43 H 1.94174 2.83103 1.59701 0
M  V30 44 H -2.00599 -1.1791 -2.99743 0
M  V30 45 H -0.841067 -2.15541 -2.12413 0
M  V30 46 H -0.554141 -0.345127 -2.43348 0
M  V30 47 H -1.89385 -2.10769 0.799657 0
M  V30 48 H -1.96145 -2.9629 -0.73834 0
M  V30 49 H -3.44783 -2.26839 -0.108427 0
M  V30 50 H -3.15782 0.558822 -2.11631 0
M  V30 51 H -3.755 -1.09398 -1.93473 0
M  V30 52 H -4.68906 1.13066 -0.530087 0
M  V30 53 H -3.58678 -0.668237 1.6843 0
M  V30 54 H -4.20885 0.9653 1.64118 0
M  V30 55 H -2.12906 3.0102 1.18503 0
M  V30 56 H -2.08682 2.58075 -0.536112 0
M  V30 57 H -3.64615 2.55432 0.422626 0
M  V30 58 H -2.37943 0.528815 3.05346 0
M  V30 59 H -1.43388 1.95424 2.62217 0
M  V30 60 H -0.820888 0.234616 2.27838 0
M  V30 61 H -5.5372 -1.23508 0.682212 0
M  V30 62 H -5.49127 -1.37786 -1.04865 0
M  V30 END ATOM
M  V30 BEGIN BOND
M  V30 1 1 1 2
M  V30 2 1 2 3
M  V30 3 1 3 4
M  V30 4 1 4 5
M  V30 5 1 4 6
M  V30 6 1 4 7
M  V30 7 1 7 8
M  V30 8 1 8 9
M  V30 9 1 8 10
M  V30 10 1 8 11
M  V30 11 1 7 12
M  V30 12 2 12 13
M  V30 13 1 12 14
M  V30 14 1 14 15
M  V30 15 1 15 16
M  V30 16 1 15 17
M  V30 17 1 15 18
M  V30 18 1 18 19
M  V30 19 1 19 20
M  V30 20 1 20 21
M  V30 21 1 21 22
M  V30 22 1 21 23
M  V30 23 1 19 24
M  V30 24 1 9 2
M  V30 25 1 21 14
M  V30 26 1 1 25
M  V30 27 1 1 26
M  V30 28 1 2 27
M  V30 29 1 3 28
M  V30 30 1 3 29
M  V30 31 1 5 30
M  V30 32 1 5 31
M  V30 33 1 5 32
M  V30 34 1 6 33
M  V30 35 1 6 34
M  V30 36 1 6 35
M  V30 37 1 9 36
M  V30 38 1 9 37
M  V30 39 1 10 38
M  V30 40 1 10 39
M  V30 41 1 10 40
M  V30 42 1 11 41
M  V30 43 1 11 42
M  V30 44 1 11 43
M  V30 45 1 16 44
M  V30 46 1 16 45
M  V30 47 1 16 46
M  V30 48 1 17 47
M  V30 49 1 17 48
M  V30 50 1 17 49
M  V30 51 1 18 50
M  V30 52 1 18 51
M  V30 53 1 19 52
M  V30 54 1 20 53
M  V30 55 1 20 54
M  V30 56 1 22 55
M  V30 57 1 22 56
M  V30 58 1 22 57
M  V30 59 1 23 58
M  V30 60 1 23 59
M  V30 61 1 23 60
M  V30 62 1 24 61
M  V30 63 1 24 62
M  V30 END BOND
M  V30 END CTAB
M  END
