
     RDKit          3D

  0  0  0  0  0  0  0  0  0  0999 V3000
M  V30 BEGIN CTAB
M  V30 COUNTS 30 31 0 0 0
M  V30 BEGIN ATOM
M  V30 1 C -1.22802 1.37459 2.03338 0
M  V30 2 C -1.89627 0.908996 0.776005 0
M  V30 3 C -1.46252 -0.287384 0.244799 0
M  V30 4 O -0.458317 -0.997516 0.866813 0
M  V30 5 C 0.895119 -0.805805 0.56225 0
M  V30 6 C 1.8161 -1.56924 1.24435 0
M  V30 7 C 3.16604 -1.40691 0.969309 0
M  V30 8 C 3.61914 -0.506475 0.0353306 0
M  V30 9 C 2.67748 0.245057 -0.633187 0
M  V30 10 C 1.32708 0.0954989 -0.370808 0
M  V30 11 N 4.9984 -0.336946 -0.249348 0 CHG=1
M  V30 12 O 5.98269 -1.05261 0.379904 0 CHG=-1
M  V30 13 O 5.35914 0.489114 -1.10157 0
M  V30 14 C -2.08171 -0.715963 -0.917724 0
M  V30 15 N -1.6511 -1.9282 -1.46714 0
M  V30 16 N -3.07003 0.0445283 -1.47451 0
M  V30 17 C -3.47562 1.20773 -0.937793 0
M  V30 18 N -4.51065 1.97514 -1.54699 0
M  V30 19 N -2.87676 1.62427 0.188398 0
M  V30 20 H -1.09228 0.531016 2.74618 0
M  V30 21 H -1.92262 2.09772 2.52084 0
M  V30 22 H -0.269376 1.86227 1.84538 0
M  V30 23 H 1.47428 -2.28222 1.98246 0
M  V30 24 H 3.90089 -1.99687 1.49447 0
M  V30 25 H 2.97616 0.97214 -1.38171 0
M  V30 26 H 0.600969 0.696856 -0.908034 0
M  V30 27 H -0.798609 -1.96697 -2.04623 0
M  V30 28 H -2.18866 -2.79096 -1.2931 0
M  V30 29 H -5.2225 1.51407 -2.14325 0
M  V30 30 H -4.58845 3.0051 -1.41849 0
M  V30 END ATOM
M  V30 BEGIN BOND
M  V30 1 1 1 2
M  V30 2 2 2 3
M  V30 3 1 3 4
M  V30 4 1 4 5
M  V30 5 2 5 6
M  V30 6 1 6 7
M  V30 7 2 7 8
M  V30 8 1 8 9
M  V30 9 2 9 10
M  V30 10 1 8 11
M  V30 11 1 11 12
M  V30 12 2 11 13
M  V30 13 1 3 14
M  V30 14 1 14 15
M  V30 15 2 14 16
M  V30 16 1 16 17
M  V30 17 1 17 18
M  V30 18 2 17 19
M  V30 19 1 19 2
M  V30 20 1 10 5
M  V30 21 1 1 20
M  V30 22 1 1 21
M  V30 23 1 1 22
M  V30 24 1 6 23
M  V30 25 1 7 24
M  V30 26 1 9 25
M  V30 27 1 10 26
M  V30 28 1 15 27
M  V30 29 1 15 28
M  V30 30 1 18 29
M  V30 31 1 18 30
M  V30 END BOND
M  V30 END CTAB
M  END
