
     RDKit          3D

  0  0  0  0  0  0  0  0  0  0999 V3000
M  V30 BEGIN CTAB
M  V30 COUNTS 42 43 0 0 0
M  V30 BEGIN ATOM
M  V30 1 O 0.0947405 -1.09717 0.460075 0
M  V30 2 C 0.0147554 -1.0983 1.70626 0
M  V30 3 N -1.06354 -1.75478 2.35284 0
M  V30 4 C -2.10765 -2.44331 1.60616 0
M  V30 5 C -3.04602 -1.46728 1.02421 0
M  V30 6 C -4.01588 -1.88854 0.145172 0
M  V30 7 C -4.92765 -1.03023 -0.433796 0
M  V30 8 C -4.87432 0.318546 -0.123891 0
M  V30 9 C -3.90354 0.751359 0.758271 0
M  V30 10 C -2.99185 -0.107144 1.33709 0
M  V30 11 S -6.00246 1.45764 -0.826074 0
M  V30 12 O -7.32123 0.795273 -1.14317 0
M  V30 13 O -6.21419 2.56729 0.164408 0
M  V30 14 N -5.35093 2.09763 -2.29822 0
M  V30 15 C 1.03225 -0.422649 2.50749 0
M  V30 16 O 2.07115 0.179081 1.80746 0
M  V30 17 C 2.98402 -0.445891 0.975239 0
M  V30 18 O 2.87146 -1.68732 0.833243 0
M  V30 19 C 4.0411 0.302136 0.284668 0
M  V30 20 C 4.196 1.65956 0.413443 0
M  V30 21 C 5.19119 2.33075 -0.24318 0
M  V30 22 C 6.07753 1.63708 -1.06587 0
M  V30 23 C 5.93141 0.274558 -1.20243 0
M  V30 24 C 4.91019 -0.394828 -0.525209 0
M  V30 25 N 6.84901 -0.406261 -2.04668 0
M  V30 26 Cl 7.31655 2.55794 -1.8668 0
M  V30 27 H -1.16083 -1.77517 3.40056 0
M  V30 28 H -2.65865 -3.12814 2.27965 0
M  V30 29 H -1.68428 -3.03021 0.764396 0
M  V30 30 H -4.04881 -2.95971 -0.0931298 0
M  V30 31 H -5.68524 -1.38665 -1.12583 0
M  V30 32 H -3.89607 1.81343 0.973972 0
M  V30 33 H -2.24958 0.274174 2.02294 0
M  V30 34 H -4.39196 2.48723 -2.08471 0
M  V30 35 H -5.95254 2.88109 -2.63685 0
M  V30 36 H 1.38558 -1.10418 3.31267 0
M  V30 37 H 0.50429 0.406254 3.06307 0
M  V30 38 H 3.52709 2.22763 1.04279 0
M  V30 39 H 5.28049 3.40855 -0.114756 0
M  V30 40 H 4.86815 -1.46266 -0.689145 0
M  V30 41 H 6.72303 -0.408196 -3.08569 0
M  V30 42 H 7.67725 -0.928562 -1.69198 0
M  V30 END ATOM
M  V30 BEGIN BOND
M  V30 1 2 1 2
M  V30 2 1 2 3
M  V30 3 1 3 4
M  V30 4 1 4 5
M  V30 5 2 5 6
M  V30 6 1 6 7
M  V30 7 2 7 8
M  V30 8 1 8 9
M  V30 9 2 9 10
M  V30 10 1 8 11
M  V30 11 2 11 12
M  V30 12 2 11 13
M  V30 13 1 11 14
M  V30 14 1 2 15
M  V30 15 1 15 16
M  V30 16 1 16 17
M  V30 17 2 17 18
M  V30 18 1 17 19
M  V30 19 2 19 20
M  V30 20 1 20 21
M  V30 21 2 21 22
M  V30 22 1 22 23
M  V30 23 2 23 24
M  V30 24 1 23 25
M  V30 25 1 22 26
M  V30 26 1 10 5
M  V30 27 1 24 19
M  V30 28 1 3 27
M  V30 29 1 4 28
M  V30 30 1 4 29
M  V30 31 1 6 30
M  V30 32 1 7 31
M  V30 33 1 9 32
M  V30 34 1 10 33
M  V30 35 1 14 34
M  V30 36 1 14 35
M  V30 37 1 15 36
M  V30 38 1 15 37
M  V30 39 1 20 38
M  V30 40 1 21 39
M  V30 41 1 24 40
M  V30 42 1 25 41
M  V30 43 1 25 42
M  V30 END BOND
M  V30 END CTAB
M  END
