
     RDKit          3D

  0  0  0  0  0  0  0  0  0  0999 V3000
M  V30 BEGIN CTAB
M  V30 COUNTS 27 27 0 0 0
M  V30 BEGIN ATOM
M  V30 1 C -3.90059 -0.228358 1.0655 0
M  V30 2 C -3.5958 -0.231706 -0.39939 0
M  V30 3 C -2.21144 0.339806 -0.680535 0
M  V30 4 N -1.19978 -0.442598 -0.0121485 0
M  V30 5 C 0.184597 -0.132463 -0.102689 0
M  V30 6 C 0.548974 0.964986 -0.866018 0
M  V30 7 C 1.88741 1.26411 -0.953 0
M  V30 8 C 2.86984 0.533149 -0.324875 0
M  V30 9 C 2.49161 -0.565247 0.437792 0
M  V30 10 C 1.14549 -0.869464 0.527728 0
M  V30 11 F 0.764364 -1.95462 1.28046 0
M  V30 12 N 3.47573 -1.32814 1.08933 0
M  V30 13 N 4.24638 0.896483 -0.454882 0
M  V30 14 F -4.51435 0.592387 -1.02234 0
M  V30 15 H -3.09507 -0.694017 1.68097 0
M  V30 16 H -4.88416 -0.7223 1.20488 0
M  V30 17 H -3.99236 0.831627 1.38542 0
M  V30 18 H -3.67072 -1.25842 -0.846992 0
M  V30 19 H -2.23007 1.39293 -0.387291 0
M  V30 20 H -1.99223 0.290488 -1.76603 0
M  V30 21 H -1.46749 -1.2693 0.563508 0
M  V30 22 H -0.220798 1.55617 -1.37161 0
M  V30 23 H 2.14948 2.14079 -1.5656 0
M  V30 24 H 3.86808 -0.946102 1.98229 0
M  V30 25 H 3.84176 -2.23618 0.755607 0
M  V30 26 H 4.53393 1.52841 -1.23115 0
M  V30 27 H 4.96724 0.547582 0.203427 0
M  V30 END ATOM
M  V30 BEGIN BOND
M  V30 1 1 1 2
M  V30 2 1 2 3
M  V30 3 1 3 4
M  V30 4 1 4 5
M  V30 5 2 5 6
M  V30 6 1 6 7
M  V30 7 2 7 8
M  V30 8 1 8 9
M  V30 9 2 9 10
M  V30 10 1 10 11
M  V30 11 1 9 12
M  V30 12 1 8 13
M  V30 13 1 2 14
M  V30 14 1 10 5
M  V30 15 1 1 15
M  V30 16 1 1 16
M  V30 17 1 1 17
M  V30 18 1 2 18
M  V30 19 1 3 19
M  V30 20 1 3 20
M  V30 21 1 4 21
M  V30 22 1 6 22
M  V30 23 1 7 23
M  V30 24 1 12 24
M  V30 25 1 12 25
M  V30 26 1 13 26
M  V30 27 1 13 27
M  V30 END BOND
M  V30 END CTAB
M  END
