
     RDKit          3D

  0  0  0  0  0  0  0  0  0  0999 V3000
M  V30 BEGIN CTAB
M  V30 COUNTS 54 58 0 0 0
M  V30 BEGIN ATOM
M  V30 1 N -6.19733 2.2694 -2.79924 0
M  V30 2 C -6.32399 1.43869 -1.65656 0
M  V30 3 N -7.54401 0.997744 -1.23355 0
M  V30 4 C -7.63033 0.212128 -0.146055 0
M  V30 5 N -8.89878 -0.264738 0.318706 0
M  V30 6 C -6.5067 -0.173092 0.573399 0
M  V30 7 C -5.27909 0.285212 0.12711 0
M  V30 8 N -5.26521 1.05416 -0.948387 0
M  V30 9 N -4.35535 -0.191009 0.941752 0
M  V30 10 C -4.9841 -0.942347 1.89414 0
M  V30 11 N -6.29138 -0.925485 1.66197 0
M  V30 12 C -2.9406 -0.0176894 0.922608 0 CFG=1
M  V30 13 C -2.18821 -1.33245 0.867297 0
M  V30 14 N -0.829696 -0.822924 0.620363 0
M  V30 15 C -0.937047 0.333554 -0.264331 0
M  V30 16 C -2.40429 0.708918 -0.275514 0 CFG=2
M  V30 17 O -2.56911 2.09149 -0.139056 0
M  V30 18 C 0.367502 -1.33677 1.13083 0
M  V30 19 O 0.328402 -2.34163 1.88592 0
M  V30 20 C 1.66464 -0.738571 0.811714 0
M  V30 21 C 2.81862 -1.46616 1.47978 0
M  V30 22 C 4.11976 -0.826817 1.13523 0
M  V30 23 C 4.648 0.19607 1.92264 0
M  V30 24 C 5.84727 0.80421 1.62597 0
M  V30 25 C 6.57653 0.420059 0.528693 0
M  V30 26 C 6.07493 -0.589044 -0.265069 0
M  V30 27 C 4.86313 -1.20196 0.0366087 0
M  V30 28 N 6.98189 -0.756993 -1.25388 0
M  V30 29 C 8.0138 0.0921539 -1.11342 0
M  V30 30 N 7.75585 0.816072 -0.00975272 0
M  V30 31 C 9.22264 0.234469 -1.98602 0
M  V30 32 H -6.45563 3.28286 -2.78895 0
M  V30 33 H -5.83957 1.86858 -3.67224 0
M  V30 34 H -9.0604 -0.376885 1.33476 0
M  V30 35 H -9.68573 -0.511386 -0.316977 0
M  V30 36 H -4.51848 -1.47925 2.72096 0
M  V30 37 H -2.58946 0.541135 1.82046 0
M  V30 38 H -2.51702 -1.85566 -0.0455351 0
M  V30 39 H -2.24418 -1.91503 1.78517 0
M  V30 40 H -0.565937 0.0628776 -1.27647 0
M  V30 41 H -0.37835 1.20604 0.153917 0
M  V30 42 H -2.80075 0.338511 -1.24351 0
M  V30 43 H -2.06866 2.48581 -0.90666 0
M  V30 44 H 1.64118 0.332257 1.09463 0
M  V30 45 H 1.8966 -0.763668 -0.282883 0
M  V30 46 H 2.79522 -2.54029 1.30541 0
M  V30 47 H 2.68444 -1.29392 2.58803 0
M  V30 48 H 4.06804 0.500483 2.79409 0
M  V30 49 H 6.25938 1.60698 2.2465 0
M  V30 50 H 4.48886 -1.99198 -0.600522 0
M  V30 51 H 8.35734 1.58703 0.407969 0
M  V30 52 H 10.135 0.153291 -1.39722 0
M  V30 53 H 9.12829 -0.503053 -2.80933 0
M  V30 54 H 9.13211 1.23862 -2.49426 0
M  V30 END ATOM
M  V30 BEGIN BOND
M  V30 1 1 1 2
M  V30 2 2 2 3
M  V30 3 1 3 4
M  V30 4 1 4 5
M  V30 5 2 4 6
M  V30 6 1 6 7
M  V30 7 2 7 8
M  V30 8 1 7 9
M  V30 9 1 9 10
M  V30 10 2 10 11
M  V30 11 1 9 12
M  V30 12 1 12 13
M  V30 13 1 13 14
M  V30 14 1 14 15
M  V30 15 1 15 16
M  V30 16 1 16 17
M  V30 17 1 14 18
M  V30 18 2 18 19
M  V30 19 1 18 20
M  V30 20 1 20 21
M  V30 21 1 21 22
M  V30 22 2 22 23
M  V30 23 1 23 24
M  V30 24 2 24 25
M  V30 25 1 25 26
M  V30 26 2 26 27
M  V30 27 1 26 28
M  V30 28 2 28 29
M  V30 29 1 29 30
M  V30 30 1 29 31
M  V30 31 1 8 2
M  V30 32 1 16 12
M  V30 33 1 27 22
M  V30 34 1 11 6
M  V30 35 1 30 25
M  V30 36 1 1 32
M  V30 37 1 1 33
M  V30 38 1 5 34
M  V30 39 1 5 35
M  V30 40 1 10 36
M  V30 41 1 12 37 CFG=1
M  V30 42 1 13 38
M  V30 43 1 13 39
M  V30 44 1 15 40
M  V30 45 1 15 41
M  V30 46 1 16 42 CFG=3
M  V30 47 1 17 43
M  V30 48 1 20 44
M  V30 49 1 20 45
M  V30 50 1 21 46
M  V30 51 1 21 47
M  V30 52 1 23 48
M  V30 53 1 24 49
M  V30 54 1 27 50
M  V30 55 1 30 51
M  V30 56 1 31 52
M  V30 57 1 31 53
M  V30 58 1 31 54
M  V30 END BOND
M  V30 END CTAB
M  END
