
     RDKit          3D

  0  0  0  0  0  0  0  0  0  0999 V3000
M  V30 BEGIN CTAB
M  V30 COUNTS 22 21 0 0 0
M  V30 BEGIN ATOM
M  V30 1 C -2.47678 1.1076 0.0222978 0
M  V30 2 C -2.12922 -0.221441 0.609558 0
M  V30 3 C -0.830312 -0.778569 0.0777072 0 CFG=2
M  V30 4 C 0.278807 0.135263 0.381291 0
M  V30 5 C 1.61396 -0.208806 -0.040768 0
M  V30 6 O 1.75688 -1.29336 -0.657551 0
M  V30 7 N 2.72746 0.598869 0.204434 0
M  V30 8 N 3.99434 0.209765 -0.230215 0
M  V30 9 N -0.836828 -1.02766 -1.31662 0
M  V30 10 H -2.23013 1.89376 0.746956 0
M  V30 11 H -1.92069 1.30899 -0.91588 0
M  V30 12 H -3.56453 1.17389 -0.191094 0
M  V30 13 H -2.96064 -0.925166 0.373134 0
M  V30 14 H -2.11046 -0.138533 1.71491 0
M  V30 15 H -0.642826 -1.74494 0.601257 0
M  V30 16 H 0.153931 0.516139 0.984855 0
M  V30 17 H 0.114994 1.09792 0.871981 0
M  V30 18 H 2.60642 1.50297 0.718922 0
M  V30 19 H 4.70927 0.425895 0.512966 0
M  V30 20 H 3.98628 -0.801141 -0.39402 0
M  V30 21 H -1.73924 -0.85989 -1.80209 0
M  V30 22 H -0.500668 -1.97156 -1.58889 0
M  V30 END ATOM
M  V30 BEGIN BOND
M  V30 1 1 1 2
M  V30 2 1 2 3
M  V30 3 1 3 4
M  V30 4 1 4 5
M  V30 5 2 5 6
M  V30 6 1 5 7
M  V30 7 1 7 8
M  V30 8 1 3 9
M  V30 9 1 1 10
M  V30 10 1 1 11
M  V30 11 1 1 12
M  V30 12 1 2 13
M  V30 13 1 2 14
M  V30 14 1 3 15 CFG=1
M  V30 15 1 4 16
M  V30 16 1 4 17
M  V30 17 1 7 18
M  V30 18 1 8 19
M  V30 19 1 8 20
M  V30 20 1 9 21
M  V30 21 1 9 22
M  V30 END BOND
M  V30 END CTAB
M  END
