
     RDKit          3D

  0  0  0  0  0  0  0  0  0  0999 V3000
M  V30 BEGIN CTAB
M  V30 COUNTS 32 33 0 0 0
M  V30 BEGIN ATOM
M  V30 1 N -5.33482 -0.47897 0.0213466 0
M  V30 2 C -4.46349 -1.54578 0.446871 0
M  V30 3 C -3.07543 -1.03507 0.824406 0
M  V30 4 C -2.51129 -0.37624 -0.414093 0
M  V30 5 C -1.14821 0.167599 -0.173875 0
M  V30 6 N 0.050339 -0.446678 -0.336617 0
M  V30 7 N 1.04354 0.381816 -0.0136069 0
M  V30 8 C 0.540105 1.56701 0.372146 0
M  V30 9 C -0.827403 1.4441 0.275828 0
M  V30 10 N 1.21807 2.7372 0.799617 0
M  V30 11 C 2.42471 0.0447337 -0.0742278 0
M  V30 12 C 3.28504 0.46063 0.933279 0
M  V30 13 C 4.62475 0.147241 0.897138 0
M  V30 14 C 5.12142 -0.592159 -0.157112 0
M  V30 15 C 4.29775 -1.02229 -1.17505 0
M  V30 16 C 2.96503 -0.686087 -1.09827 0
M  V30 17 H -5.40147 -0.414188 -1.02319 0
M  V30 18 H -5.05208 0.430411 0.451841 0
M  V30 19 H -4.88222 -2.04121 1.34162 0
M  V30 20 H -4.39168 -2.33068 -0.348872 0
M  V30 21 H -3.19767 -0.349189 1.6648 0
M  V30 22 H -2.46205 -1.922 1.0701 0
M  V30 23 H -3.20799 0.383134 -0.824649 0
M  V30 24 H -2.40501 -1.18078 -1.18161 0
M  V30 25 H -1.55885 2.20498 0.507277 0
M  V30 26 H 1.64854 3.3987 0.0887831 0
M  V30 27 H 1.33358 3.01337 1.79788 0
M  V30 28 H 2.92259 1.04335 1.77469 0
M  V30 29 H 5.28265 0.479979 1.69212 0
M  V30 30 H 6.16256 -0.852753 -0.213675 0
M  V30 31 H 4.67955 -1.60749 -2.01355 0
M  V30 32 H 2.31944 -1.02272 -1.89529 0
M  V30 END ATOM
M  V30 BEGIN BOND
M  V30 1 1 1 2
M  V30 2 1 2 3
M  V30 3 1 3 4
M  V30 4 1 4 5
M  V30 5 2 5 6
M  V30 6 1 6 7
M  V30 7 1 7 8
M  V30 8 2 8 9
M  V30 9 1 8 10
M  V30 10 1 7 11
M  V30 11 2 11 12
M  V30 12 1 12 13
M  V30 13 2 13 14
M  V30 14 1 14 15
M  V30 15 2 15 16
M  V30 16 1 9 5
M  V30 17 1 16 11
M  V30 18 1 1 17
M  V30 19 1 1 18
M  V30 20 1 2 19
M  V30 21 1 2 20
M  V30 22 1 3 21
M  V30 23 1 3 22
M  V30 24 1 4 23
M  V30 25 1 4 24
M  V30 26 1 9 25
M  V30 27 1 10 26
M  V30 28 1 10 27
M  V30 29 1 12 28
M  V30 30 1 13 29
M  V30 31 1 14 30
M  V30 32 1 15 31
M  V30 33 1 16 32
M  V30 END BOND
M  V30 END CTAB
M  END
