
     RDKit          3D

  0  0  0  0  0  0  0  0  0  0999 V3000
M  V30 BEGIN CTAB
M  V30 COUNTS 25 25 0 0 0
M  V30 BEGIN ATOM
M  V30 1 N -0.11097 2.83646 0.0445196 0
M  V30 2 C -0.189622 1.43498 0.38294 0 CFG=2
M  V30 3 C 1.09121 0.702595 0.250294 0
M  V30 4 C 1.04419 -0.64829 -0.333945 0 CFG=2
M  V30 5 C -0.235851 -1.38501 -0.293438 0
M  V30 6 C -1.43264 -0.58836 0.0984883 0 CFG=1
M  V30 7 C -1.23824 0.804432 -0.507277 0
M  V30 8 N -2.64967 -1.196 -0.364163 0
M  V30 9 C 2.09075 -1.48882 0.322743 0
M  V30 10 O 1.82871 -2.53584 0.960003 0
M  V30 11 O 3.42111 -1.10579 0.232122 0
M  V30 12 H -1.05388 3.23479 -0.088315 0
M  V30 13 H 0.37466 3.36216 0.809222 0
M  V30 14 H -0.581171 1.3426 1.43011 0
M  V30 15 H 1.788 1.36625 -0.34442 0
M  V30 16 H 1.56914 0.678962 1.27404 0
M  V30 17 H 1.37432 -0.576021 -1.41321 0
M  V30 18 H -0.188526 -2.27194 0.406315 0
M  V30 19 H -0.479149 -1.85738 -1.29196 0
M  V30 20 H -1.48233 -0.522858 1.22164 0
M  V30 21 H -2.18823 1.37147 -0.521039 0
M  V30 22 H -0.776001 0.695843 -1.5102 0
M  V30 23 H -2.46981 -1.81682 -1.18496 0
M  V30 24 H -3.16883 -1.70283 0.383309 0
M  V30 25 H 3.66285 -0.134598 0.0371865 0
M  V30 END ATOM
M  V30 BEGIN BOND
M  V30 1 1 1 2
M  V30 2 1 2 3
M  V30 3 1 3 4
M  V30 4 1 4 5
M  V30 5 1 5 6
M  V30 6 1 6 7
M  V30 7 1 6 8
M  V30 8 1 4 9
M  V30 9 2 9 10
M  V30 10 1 9 11
M  V30 11 1 7 2
M  V30 12 1 1 12
M  V30 13 1 1 13
M  V30 14 1 2 14 CFG=1
M  V30 15 1 3 15
M  V30 16 1 3 16
M  V30 17 1 4 17 CFG=3
M  V30 18 1 5 18
M  V30 19 1 5 19
M  V30 20 1 6 20 CFG=1
M  V30 21 1 7 21
M  V30 22 1 7 22
M  V30 23 1 8 23
M  V30 24 1 8 24
M  V30 25 1 11 25
M  V30 END BOND
M  V30 END CTAB
M  END
