
     RDKit          3D

  0  0  0  0  0  0  0  0  0  0999 V3000
M  V30 BEGIN CTAB
M  V30 COUNTS 37 39 0 0 0
M  V30 BEGIN ATOM
M  V30 1 N -6.58993 0.867233 -2.04418 0
M  V30 2 C -6.35638 0.141994 -0.865672 0
M  V30 3 N -7.33019 -0.331875 -0.183973 0
M  V30 4 C -5.00318 -0.0805635 -0.403554 0
M  V30 5 C -4.7082 -0.786128 0.748221 0
M  V30 6 C -3.4099 -0.986626 1.17073 0
M  V30 7 C -2.38641 -0.461281 0.410599 0
M  V30 8 N -2.65767 0.226788 -0.711329 0
M  V30 9 C -3.92784 0.414349 -1.11093 0
M  V30 10 C -1.00209 -0.665624 0.845944 0
M  V30 11 C -0.582781 -1.3421 1.96086 0
M  V30 12 C 0.78962 -1.27416 1.95974 0
M  V30 13 C 1.15831 -0.559858 0.846068 0
M  V30 14 O 0.0594477 -0.234106 0.238901 0
M  V30 15 C 2.53267 -0.233052 0.431031 0
M  V30 16 N 3.59376 -0.625344 1.14163 0
M  V30 17 C 4.85243 -0.315406 0.744506 0
M  V30 18 C 5.12201 0.409395 -0.393675 0
M  V30 19 C 4.02593 0.828599 -1.15006 0
M  V30 20 C 2.77825 0.489919 -0.706104 0
M  V30 21 C 6.45225 0.758047 -0.84708 0
M  V30 22 N 6.62708 1.51587 -2.04561 0
M  V30 23 N 7.50915 0.413737 -0.213447 0
M  V30 24 H -6.46512 0.42639 -2.96862 0
M  V30 25 H -6.89128 1.85706 -1.98758 0
M  V30 26 H -8.31591 -0.193361 -0.48286 0
M  V30 27 H -5.51692 -1.18789 1.32749 0
M  V30 28 H -3.14771 -1.53395 2.0668 0
M  V30 29 H -4.13433 0.974108 -2.02253 0
M  V30 30 H -1.17837 -1.84214 2.71402 0
M  V30 31 H 1.45121 -1.69884 2.69088 0
M  V30 32 H 5.69515 -0.653909 1.35196 0
M  V30 33 H 4.18445 1.39695 -2.0467 0
M  V30 34 H 1.88506 0.799706 -1.27158 0
M  V30 35 H 6.58891 2.56917 -2.05349 0
M  V30 36 H 6.79716 1.04707 -2.94479 0
M  V30 37 H 7.50136 -0.130168 0.655982 0
M  V30 END ATOM
M  V30 BEGIN BOND
M  V30 1 1 1 2
M  V30 2 2 2 3 CFG=2
M  V30 3 1 2 4
M  V30 4 2 4 5
M  V30 5 1 5 6
M  V30 6 2 6 7
M  V30 7 1 7 8
M  V30 8 2 8 9
M  V30 9 1 7 10
M  V30 10 2 10 11
M  V30 11 1 11 12
M  V30 12 2 12 13
M  V30 13 1 13 14
M  V30 14 1 13 15
M  V30 15 2 15 16
M  V30 16 1 16 17
M  V30 17 2 17 18
M  V30 18 1 18 19
M  V30 19 2 19 20
M  V30 20 1 18 21
M  V30 21 1 21 22
M  V30 22 2 21 23 CFG=2
M  V30 23 1 9 4
M  V30 24 1 14 10
M  V30 25 1 20 15
M  V30 26 1 1 24
M  V30 27 1 1 25
M  V30 28 1 3 26
M  V30 29 1 5 27
M  V30 30 1 6 28
M  V30 31 1 9 29
M  V30 32 1 11 30
M  V30 33 1 12 31
M  V30 34 1 17 32
M  V30 35 1 19 33
M  V30 36 1 20 34
M  V30 37 1 22 35
M  V30 38 1 22 36
M  V30 39 1 23 37
M  V30 END BOND
M  V30 END CTAB
M  END
