
     RDKit          3D

  0  0  0  0  0  0  0  0  0  0999 V3000
M  V30 BEGIN CTAB
M  V30 COUNTS 42 43 0 0 0
M  V30 BEGIN ATOM
M  V30 1 O -1.41624 -0.959827 -1.83414 0
M  V30 2 C -1.32777 -0.470173 -0.700958 0
M  V30 3 C -2.53868 0.126317 -0.102358 0
M  V30 4 N -2.21653 0.631939 1.20534 0
M  V30 5 C -3.71347 -0.817965 -0.103453 0
M  V30 6 C -4.82004 -0.200014 0.670981 0
M  V30 7 C -4.87166 1.27765 0.65928 0
M  V30 8 C -4.17984 1.96181 -0.450509 0
M  V30 9 C -2.96763 1.30002 -0.985467 0
M  V30 10 N -0.12333 -0.46526 0.0239632 0
M  V30 11 C 1.13074 -0.979955 -0.360037 0
M  V30 12 C 1.35513 -1.76357 -1.46545 0
M  V30 13 C 2.63208 -2.23465 -1.80406 0
M  V30 14 C 3.72059 -1.92681 -1.0334 0
M  V30 15 C 3.52858 -1.14763 0.0752534 0
M  V30 16 C 2.271 -0.690257 0.398634 0
M  V30 17 C 4.67421 -0.778661 0.953815 0
M  V30 18 S 5.4227 0.744345 0.412221 0
M  V30 19 O 5.93517 0.506713 -0.98155 0
M  V30 20 O 4.43876 1.86375 0.409659 0
M  V30 21 N 6.742 1.18765 1.4076 0
M  V30 22 H -2.17684 1.657 1.21213 0
M  V30 23 H -2.7216 0.186809 1.98012 0
M  V30 24 H -4.03621 -0.967837 -1.1526 0
M  V30 25 H -3.42695 -1.8079 0.297042 0
M  V30 26 H -5.78366 -0.683999 0.338316 0
M  V30 27 H -4.71453 -0.531908 1.74333 0
M  V30 28 H -5.96449 1.56656 0.605424 0
M  V30 29 H -4.53689 1.72014 1.64357 0
M  V30 30 H -3.87677 2.9917 -0.0973151 0
M  V30 31 H -4.87639 2.17348 -1.3102 0
M  V30 32 H -2.11077 1.9559 -1.15572 0
M  V30 33 H -3.1968 0.828407 -1.98619 0
M  V30 34 H -0.116487 -0.0200617 1.01633 0
M  V30 35 H 0.567283 -2.06649 -2.12944 0
M  V30 36 H 2.77521 -2.85953 -2.69624 0
M  V30 37 H 4.72567 -2.26767 -1.25524 0
M  V30 38 H 2.16567 -0.0730783 1.28884 0
M  V30 39 H 5.42643 -1.59126 1.0012 0
M  V30 40 H 4.28248 -0.644368 1.98091 0
M  V30 41 H 6.48576 1.48263 2.35643 0
M  V30 42 H 7.43411 1.78606 0.928478 0
M  V30 END ATOM
M  V30 BEGIN BOND
M  V30 1 2 1 2
M  V30 2 1 2 3
M  V30 3 1 3 4
M  V30 4 1 3 5
M  V30 5 1 5 6
M  V30 6 1 6 7
M  V30 7 1 7 8
M  V30 8 1 8 9
M  V30 9 1 2 10
M  V30 10 1 10 11
M  V30 11 2 11 12
M  V30 12 1 12 13
M  V30 13 2 13 14
M  V30 14 1 14 15
M  V30 15 2 15 16
M  V30 16 1 15 17
M  V30 17 1 17 18
M  V30 18 2 18 19
M  V30 19 2 18 20
M  V30 20 1 18 21
M  V30 21 1 9 3
M  V30 22 1 16 11
M  V30 23 1 4 22
M  V30 24 1 4 23
M  V30 25 1 5 24
M  V30 26 1 5 25
M  V30 27 1 6 26
M  V30 28 1 6 27
M  V30 29 1 7 28
M  V30 30 1 7 29
M  V30 31 1 8 30
M  V30 32 1 8 31
M  V30 33 1 9 32
M  V30 34 1 9 33
M  V30 35 1 10 34
M  V30 36 1 12 35
M  V30 37 1 13 36
M  V30 38 1 14 37
M  V30 39 1 16 38
M  V30 40 1 17 39
M  V30 41 1 17 40
M  V30 42 1 21 41
M  V30 43 1 21 42
M  V30 END BOND
M  V30 END CTAB
M  END
