
     RDKit          3D

  0  0  0  0  0  0  0  0  0  0999 V3000
M  V30 BEGIN CTAB
M  V30 COUNTS 32 32 0 0 0
M  V30 BEGIN ATOM
M  V30 1 C -3.49126 -0.713654 1.5833 0
M  V30 2 C -3.19136 -0.583876 0.112764 0
M  V30 3 C -1.84563 0.0611797 -0.141622 0
M  V30 4 O -0.834216 -0.729436 0.448916 0
M  V30 5 C 0.511514 -0.396843 0.385694 0
M  V30 6 C 1.14911 0.384055 1.32704 0
M  V30 7 C 2.49559 0.70556 1.24618 0
M  V30 8 C 3.23905 0.231512 0.186216 0
M  V30 9 C 2.61511 -0.552662 -0.766124 0
M  V30 10 C 1.27089 -0.871978 -0.682833 0
M  V30 11 N 3.33855 -1.06505 -1.87718 0
M  V30 12 N 4.62467 0.527078 0.048036 0
M  V30 13 C -1.80331 1.41756 0.525666 0
M  V30 14 C -1.68024 0.173726 -1.6426 0
M  V30 15 H -2.60644 -0.432933 2.16449 0
M  V30 16 H -3.71851 -1.77902 1.8464 0
M  V30 17 H -4.38035 -0.0590669 1.79645 0
M  V30 18 H -3.99435 -0.0809936 -0.447226 0
M  V30 19 H -3.11951 -1.61795 -0.336825 0
M  V30 20 H 0.593489 0.767698 2.16515 0
M  V30 21 H 2.9867 1.32705 2.00238 0
M  V30 22 H 0.77092 -1.48543 -1.42267 0
M  V30 23 H 3.02131 -1.92959 -2.36892 0
M  V30 24 H 4.20981 -0.56691 -2.21294 0
M  V30 25 H 4.89921 1.45985 -0.324185 0
M  V30 26 H 5.37912 -0.147197 0.302266 0
M  V30 27 H -1.68032 1.29963 1.61552 0
M  V30 28 H -2.75158 1.9853 0.374208 0
M  V30 29 H -0.954225 2.02833 0.165022 0
M  V30 30 H -0.957078 0.965931 -1.92079 0
M  V30 31 H -1.43815 -0.809057 -2.07165 0
M  V30 32 H -2.65848 0.487168 -2.08012 0
M  V30 END ATOM
M  V30 BEGIN BOND
M  V30 1 1 1 2
M  V30 2 1 2 3
M  V30 3 1 3 4
M  V30 4 1 4 5
M  V30 5 2 5 6
M  V30 6 1 6 7
M  V30 7 2 7 8
M  V30 8 1 8 9
M  V30 9 2 9 10
M  V30 10 1 9 11
M  V30 11 1 8 12
M  V30 12 1 3 13
M  V30 13 1 3 14
M  V30 14 1 10 5
M  V30 15 1 1 15
M  V30 16 1 1 16
M  V30 17 1 1 17
M  V30 18 1 2 18
M  V30 19 1 2 19
M  V30 20 1 6 20
M  V30 21 1 7 21
M  V30 22 1 10 22
M  V30 23 1 11 23
M  V30 24 1 11 24
M  V30 25 1 12 25
M  V30 26 1 12 26
M  V30 27 1 13 27
M  V30 28 1 13 28
M  V30 29 1 13 29
M  V30 30 1 14 30
M  V30 31 1 14 31
M  V30 32 1 14 32
M  V30 END BOND
M  V30 END CTAB
M  END
