
     RDKit          3D

  0  0  0  0  0  0  0  0  0  0999 V3000
M  V30 BEGIN CTAB
M  V30 COUNTS 36 37 0 0 0
M  V30 BEGIN ATOM
M  V30 1 O -0.0155956 -0.286785 -0.825836 0
M  V30 2 C 0.181207 -0.798874 0.308297 0
M  V30 3 C -0.862769 -0.733417 1.37339 0
M  V30 4 N -2.01723 -0.0374127 0.839893 0
M  V30 5 N -2.20753 1.26805 0.767375 0
M  V30 6 C -3.38572 1.52875 0.179477 0
M  V30 7 C -3.98275 0.296566 -0.138867 0
M  V30 8 C -3.09466 -0.659872 0.289356 0
M  V30 9 C -3.23122 -2.13423 0.206058 0
M  V30 10 N -5.24424 0.113254 -0.761501 0 CHG=1
M  V30 11 O -5.85745 -0.956935 -0.801239 0
M  V30 12 O -5.83902 1.19236 -1.36155 0 CHG=-1
M  V30 13 C -4.01637 2.83307 -0.134971 0
M  V30 14 N 1.41556 -1.43307 0.558847 0
M  V30 15 N 2.4436 -1.48266 -0.425353 0
M  V30 16 C 3.43328 -0.637795 -0.284477 0
M  V30 17 C 4.55984 -0.541319 -1.18261 0
M  V30 18 N 4.84149 -1.24781 -2.28877 0
M  V30 19 O 5.96744 -0.806372 -2.79061 0
M  V30 20 N 6.45621 0.156871 -2.08167 0
M  V30 21 C 5.61929 0.366865 -1.06255 0
M  V30 22 N 5.70005 1.31393 -0.00256294 0
M  V30 23 N 3.35394 0.228463 0.845946 0
M  V30 24 H -0.461921 -0.276352 2.29269 0
M  V30 25 H -1.16203 -1.77309 1.62698 0
M  V30 26 H -3.96557 -2.45168 -0.523942 0
M  V30 27 H -2.22424 -2.6212 0.0643643 0
M  V30 28 H -3.56564 -2.53044 1.21394 0
M  V30 29 H -4.06711 3.01719 -1.23468 0
M  V30 30 H -3.43499 3.65529 0.371497 0
M  V30 31 H -5.05228 2.92479 0.245358 0
M  V30 32 H 1.60014 -1.88146 1.4654 0
M  V30 33 H 5.80604 1.05228 0.991128 0
M  V30 34 H 5.64844 2.32141 -0.247445 0
M  V30 35 H 3.60646 -0.175341 1.76823 0
M  V30 36 H 3.05534 1.19697 0.740392 0
M  V30 END ATOM
M  V30 BEGIN BOND
M  V30 1 2 1 2
M  V30 2 1 2 3
M  V30 3 1 3 4
M  V30 4 1 4 5
M  V30 5 2 5 6
M  V30 6 1 6 7
M  V30 7 2 7 8
M  V30 8 1 8 9
M  V30 9 1 7 10
M  V30 10 2 10 11
M  V30 11 1 10 12
M  V30 12 1 6 13
M  V30 13 1 2 14
M  V30 14 1 14 15
M  V30 15 2 15 16
M  V30 16 1 16 17
M  V30 17 2 17 18
M  V30 18 1 18 19
M  V30 19 1 19 20
M  V30 20 2 20 21
M  V30 21 1 21 22
M  V30 22 1 16 23
M  V30 23 1 8 4
M  V30 24 1 21 17
M  V30 25 1 3 24
M  V30 26 1 3 25
M  V30 27 1 9 26
M  V30 28 1 9 27
M  V30 29 1 9 28
M  V30 30 1 13 29
M  V30 31 1 13 30
M  V30 32 1 13 31
M  V30 33 1 14 32
M  V30 34 1 22 33
M  V30 35 1 22 34
M  V30 36 1 23 35
M  V30 37 1 23 36
M  V30 END BOND
M  V30 END CTAB
M  END
