
     RDKit          3D

  0  0  0  0  0  0  0  0  0  0999 V3000
M  V30 BEGIN CTAB
M  V30 COUNTS 27 27 0 0 0
M  V30 BEGIN ATOM
M  V30 1 C -2.41513 0.695044 -0.874652 0
M  V30 2 N -2.61422 -0.51535 -0.101797 0
M  V30 3 C -3.98245 -0.574086 0.299411 0
M  V30 4 S -1.51696 -0.474147 1.2228 0
M  V30 5 O -1.72439 -1.67842 2.11409 0
M  V30 6 O -1.79804 0.792096 1.98413 0
M  V30 7 C 0.134184 -0.442038 0.742523 0
M  V30 8 C 0.849029 -1.60532 0.559047 0
M  V30 9 C 2.18569 -1.56993 0.169759 0
M  V30 10 C 2.79458 -0.341246 -0.0329176 0
M  V30 11 N 4.14922 -0.362866 -0.426243 0
M  V30 12 C 2.08985 0.829883 0.147453 0
M  V30 13 N 2.75839 2.06479 -0.0727084 0
M  V30 14 C 0.764259 0.765427 0.53413 0
M  V30 15 H -3.39632 1.13201 -1.21558 0
M  V30 16 H -1.93808 1.5007 -0.277795 0
M  V30 17 H -1.83154 0.491796 -1.8174 0
M  V30 18 H -4.58593 -0.0424229 -0.469883 0
M  V30 19 H -4.39565 -1.6008 0.353445 0
M  V30 20 H -4.19352 -0.0650746 1.26725 0
M  V30 21 H 0.315266 -2.52484 0.733434 0
M  V30 22 H 2.71626 -2.5148 0.0352786 0
M  V30 23 H 4.43046 -0.111929 -1.38632 0
M  V30 24 H 4.87089 -0.634464 0.258682 0
M  V30 25 H 2.52519 2.74265 -0.824573 0
M  V30 26 H 3.54384 2.31516 0.565937 0
M  V30 27 H 0.265133 1.72818 0.659091 0
M  V30 END ATOM
M  V30 BEGIN BOND
M  V30 1 1 1 2
M  V30 2 1 2 3
M  V30 3 1 2 4
M  V30 4 2 4 5
M  V30 5 2 4 6
M  V30 6 1 4 7
M  V30 7 2 7 8
M  V30 8 1 8 9
M  V30 9 2 9 10
M  V30 10 1 10 11
M  V30 11 1 10 12
M  V30 12 1 12 13
M  V30 13 2 12 14
M  V30 14 1 14 7
M  V30 15 1 1 15
M  V30 16 1 1 16
M  V30 17 1 1 17
M  V30 18 1 3 18
M  V30 19 1 3 19
M  V30 20 1 3 20
M  V30 21 1 8 21
M  V30 22 1 9 22
M  V30 23 1 11 23
M  V30 24 1 11 24
M  V30 25 1 13 25
M  V30 26 1 13 26
M  V30 27 1 14 27
M  V30 END BOND
M  V30 END CTAB
M  END
