
     RDKit          3D

  0  0  0  0  0  0  0  0  0  0999 V3000
M  V30 BEGIN CTAB
M  V30 COUNTS 47 49 0 0 0
M  V30 BEGIN ATOM
M  V30 1 N -6.82451 -0.860021 0.97514 0
M  V30 2 C -5.84923 -0.159263 0.244784 0
M  V30 3 C -4.65196 -1.09349 0.0287596 0
M  V30 4 O -3.71715 -0.387089 -0.684539 0
M  V30 5 C -2.56513 -1.07599 -0.972016 0 CFG=1
M  V30 6 C -2.21232 -0.875933 -2.45133 0
M  V30 7 C -1.59702 0.46012 -2.01248 0 CFG=2
M  V30 8 C -1.35041 -0.200321 -0.670903 0
M  V30 9 C -1.64238 0.663237 0.528424 0
M  V30 10 C -0.554569 1.64034 0.839561 0
M  V30 11 N 0.72123 0.927117 0.789498 0
M  V30 12 C 0.650257 -0.509399 0.717312 0
M  V30 13 C -0.0498401 -0.919013 -0.584446 0
M  V30 14 C 1.91474 1.66383 0.813974 0
M  V30 15 O 1.90925 2.91769 0.87774 0
M  V30 16 C 3.21914 0.965603 0.764339 0
M  V30 17 S 4.59465 2.17845 0.811069 0
M  V30 18 C 6.10935 1.20402 0.74513 0
M  V30 19 N 7.3688 1.626 0.752925 0
M  V30 20 N 8.31278 0.791163 0.700261 0
M  V30 21 C 8.04358 -0.510039 0.637048 0
M  V30 22 S 6.3319 -0.492402 0.6565 0
M  V30 23 N 8.98318 -1.60536 0.571195 0
M  V30 24 O -2.5794 1.43977 -1.95234 0
M  V30 25 H -7.66949 -0.39268 1.10627 0
M  V30 26 H -6.52684 -1.6725 1.40146 0
M  V30 27 H -6.30179 0.14194 -0.722781 0
M  V30 28 H -5.53072 0.759743 0.763759 0
M  V30 29 H -4.95985 -2.04602 -0.402949 0
M  V30 30 H -4.23229 -1.28259 1.04845 0
M  V30 31 H -2.48507 -2.1067 -0.619156 0
M  V30 32 H -3.08413 -0.775655 -3.10772 0
M  V30 33 H -1.39668 -1.53746 -2.81006 0
M  V30 34 H -0.685431 0.727727 -2.5818 0
M  V30 35 H -2.55488 1.26835 0.261819 0
M  V30 36 H -1.9293 0.0447949 1.38211 0
M  V30 37 H -0.565303 2.51122 0.151682 0
M  V30 38 H -0.742088 2.04063 1.86347 0
M  V30 39 H -0.00200679 -0.919523 1.53867 0
M  V30 40 H 1.64667 -0.977191 0.73265 0
M  V30 41 H -0.101132 -2.00348 -0.670108 0
M  V30 42 H 0.626436 -0.559277 -1.40473 0
M  V30 43 H 3.34997 0.269707 1.62142 0
M  V30 44 H 3.25574 0.382425 -0.188846 0
M  V30 45 H 9.72848 -1.54301 -0.143577 0
M  V30 46 H 8.942 -2.42308 1.19006 0
M  V30 47 H -3.34726 1.26277 -2.53569 0
M  V30 END ATOM
M  V30 BEGIN BOND
M  V30 1 1 1 2
M  V30 2 1 2 3
M  V30 3 1 3 4
M  V30 4 1 4 5
M  V30 5 1 5 6
M  V30 6 1 6 7
M  V30 7 1 7 8
M  V30 8 1 8 9
M  V30 9 1 9 10
M  V30 10 1 10 11
M  V30 11 1 11 12
M  V30 12 1 12 13
M  V30 13 1 11 14
M  V30 14 2 14 15
M  V30 15 1 14 16
M  V30 16 1 16 17
M  V30 17 1 17 18
M  V30 18 2 18 19
M  V30 19 1 19 20
M  V30 20 2 20 21
M  V30 21 1 21 22
M  V30 22 1 21 23
M  V30 23 1 7 24
M  V30 24 1 8 5
M  V30 25 1 22 18
M  V30 26 1 13 8
M  V30 27 1 1 25
M  V30 28 1 1 26
M  V30 29 1 2 27
M  V30 30 1 2 28
M  V30 31 1 3 29
M  V30 32 1 3 30
M  V30 33 1 5 31 CFG=1
M  V30 34 1 6 32
M  V30 35 1 6 33
M  V30 36 1 7 34 CFG=3
M  V30 37 1 9 35
M  V30 38 1 9 36
M  V30 39 1 10 37
M  V30 40 1 10 38
M  V30 41 1 12 39
M  V30 42 1 12 40
M  V30 43 1 13 41
M  V30 44 1 13 42
M  V30 45 1 16 43
M  V30 46 1 16 44
M  V30 47 1 23 45
M  V30 48 1 23 46
M  V30 49 1 24 47
M  V30 END BOND
M  V30 END CTAB
M  END
