
     RDKit          3D

  0  0  0  0  0  0  0  0  0  0999 V3000
M  V30 BEGIN CTAB
M  V30 COUNTS 51 54 0 0 0
M  V30 BEGIN ATOM
M  V30 1 C 1.70025 2.57226 0.748583 0
M  V30 2 C 1.52471 1.08214 0.751622 0
M  V30 3 N 2.19459 0.397786 -0.32799 0
M  V30 4 C 1.75455 0.130159 -1.54526 0
M  V30 5 S 0.300937 0.609094 -2.42574 0
M  V30 6 C -1.16876 -0.357219 -2.05937 0
M  V30 7 C -2.02027 0.2993 -1.0336 0
M  V30 8 O -1.76242 1.47697 -0.731107 0
M  V30 9 C -3.15053 -0.35809 -0.359632 0
M  V30 10 C -3.45587 -1.68129 -0.553897 0
M  V30 11 O -2.80515 -2.41624 -1.33819 0
M  V30 12 N -4.49987 -2.2178 0.12505 0
M  V30 13 C -5.24892 -1.51583 0.975652 0
M  V30 14 O -6.20433 -2.04261 1.58212 0
M  V30 15 N -4.97282 -0.220078 1.18338 0
M  V30 16 C -3.93663 0.365861 0.528098 0
M  V30 17 N -3.63957 1.75447 0.721113 0
M  V30 18 C -5.71301 0.629571 2.07081 0
M  V30 19 C -6.59953 1.66007 1.36121 0
M  V30 20 C -7.13727 0.585743 2.32333 0
M  V30 21 N 2.78945 -0.590159 -2.14827 0
M  V30 22 C 3.81466 -0.740647 -1.31117 0
M  V30 23 C 3.45225 -0.119929 -0.151829 0
M  V30 24 C 4.35198 -0.122937 0.898159 0
M  V30 25 C 5.57481 -0.730471 0.780697 0
M  V30 26 C 5.95595 -1.36457 -0.395813 0
M  V30 27 C 5.05045 -1.35368 -1.42898 0
M  V30 28 S 7.53815 -2.12417 -0.58102 0
M  V30 29 O 7.49445 -3.04997 -1.79736 0
M  V30 30 O 7.93283 -2.90416 0.610288 0
M  V30 31 N 8.68414 -0.892275 -1.00668 0
M  V30 32 H 2.08335 2.96192 -0.226789 0
M  V30 33 H 0.726074 3.10481 0.968207 0
M  V30 34 H 2.36965 2.88085 1.61337 0
M  V30 35 H 1.91738 0.689066 1.75329 0
M  V30 36 H 0.47576 0.80238 0.762286 0
M  V30 37 H -1.72487 -0.678069 -2.94502 0
M  V30 38 H -0.76933 -1.30063 -1.56239 0
M  V30 39 H -4.70315 -3.24962 -0.0486774 0
M  V30 40 H -2.88744 2.04878 1.34483 0
M  V30 41 H -4.19124 2.49671 0.231968 0
M  V30 42 H -5.05743 1.12049 2.84206 0
M  V30 43 H -6.61593 2.70634 1.73258 0
M  V30 44 H -6.8064 1.56165 0.28501 0
M  V30 45 H -7.8644 -0.0739066 1.84921 0
M  V30 46 H -7.48481 0.998829 3.3044 0
M  V30 47 H 4.07353 0.361696 1.8034 0
M  V30 48 H 6.30143 -0.742309 1.60887 0
M  V30 49 H 5.29744 -1.82227 -2.36158 0
M  V30 50 H 8.48652 -0.516248 -1.95271 0
M  V30 51 H 8.57467 -0.111752 -0.33171 0
M  V30 END ATOM
M  V30 BEGIN BOND
M  V30 1 1 1 2
M  V30 2 1 2 3
M  V30 3 1 3 4
M  V30 4 1 4 5
M  V30 5 1 5 6
M  V30 6 1 6 7
M  V30 7 2 7 8
M  V30 8 1 7 9
M  V30 9 1 9 10
M  V30 10 2 10 11
M  V30 11 1 10 12
M  V30 12 1 12 13
M  V30 13 2 13 14
M  V30 14 1 13 15
M  V30 15 1 15 16
M  V30 16 1 16 17
M  V30 17 1 15 18
M  V30 18 1 18 19
M  V30 19 1 19 20
M  V30 20 2 4 21
M  V30 21 1 21 22
M  V30 22 2 22 23
M  V30 23 1 23 24
M  V30 24 2 24 25
M  V30 25 1 25 26
M  V30 26 2 26 27
M  V30 27 1 26 28
M  V30 28 2 28 29
M  V30 29 2 28 30
M  V30 30 1 28 31
M  V30 31 1 23 3
M  V30 32 2 16 9
M  V30 33 1 20 18
M  V30 34 1 27 22
M  V30 35 1 1 32
M  V30 36 1 1 33
M  V30 37 1 1 34
M  V30 38 1 2 35
M  V30 39 1 2 36
M  V30 40 1 6 37
M  V30 41 1 6 38
M  V30 42 1 12 39
M  V30 43 1 17 40
M  V30 44 1 17 41
M  V30 45 1 18 42
M  V30 46 1 19 43
M  V30 47 1 19 44
M  V30 48 1 20 45
M  V30 49 1 20 46
M  V30 50 1 24 47
M  V30 51 1 25 48
M  V30 52 1 27 49
M  V30 53 1 31 50
M  V30 54 1 31 51
M  V30 END BOND
M  V30 END CTAB
M  END
