
     RDKit          3D

  0  0  0  0  0  0  0  0  0  0999 V3000
M  V30 BEGIN CTAB
M  V30 COUNTS 52 53 0 0 0
M  V30 BEGIN ATOM
M  V30 1 N 6.31076 -2.53271 -4.00552 0
M  V30 2 C 5.4087 -2.43778 -2.90477 0
M  V30 3 N 5.80972 -2.87739 -1.76442 0
M  V30 4 C 4.11342 -1.83616 -3.06522 0
M  V30 5 C 3.27143 -1.53415 -2.04772 0
M  V30 6 C 1.99717 -0.994087 -2.2421 0
M  V30 7 C 1.54707 -0.745986 -3.51619 0
M  V30 8 N 0.241196 -0.173582 -3.62476 0
M  V30 9 C 0.210018 1.27144 -3.50099 0
M  V30 10 O 1.28154 1.86162 -3.32215 0
M  V30 11 C -1.06573 2.02177 -3.56594 0
M  V30 12 C -1.13603 3.06552 -2.425 0
M  V30 13 C -1.21771 2.25723 -1.17738 0
M  V30 14 C -1.37109 2.97969 0.121445 0
M  V30 15 C -1.48055 1.87942 1.15362 0
M  V30 16 O -1.06892 0.721005 0.893407 0
M  V30 17 N -2.05882 2.19103 2.3914 0
M  V30 18 C -2.19751 1.16237 3.36664 0
M  V30 19 C -1.15889 0.645921 4.05538 0
M  V30 20 C -1.30785 -0.421273 4.97356 0
M  V30 21 C -2.59998 -0.899468 5.1127 0
M  V30 22 C -3.67233 -0.397429 4.43324 0
M  V30 23 C -3.46653 0.646779 3.54674 0
M  V30 24 C -2.87219 -2.01248 6.04513 0
M  V30 25 N -4.20943 -2.49468 6.16662 0
M  V30 26 N -1.96223 -2.56489 6.75581 0
M  V30 27 C 2.37861 -1.0428 -4.55364 0
M  V30 28 C 3.62945 -1.5707 -4.38153 0
M  V30 29 H 7.06198 -3.26166 -4.01537 0
M  V30 30 H 6.26094 -1.90217 -4.79821 0
M  V30 31 H 5.20018 -2.83436 -0.946682 0
M  V30 32 H 3.5965 -1.71645 -1.01171 0
M  V30 33 H 1.39842 -0.770245 -1.35685 0
M  V30 34 H -0.61321 -0.739942 -3.76658 0
M  V30 35 H -1.10654 2.6461 -4.51274 0
M  V30 36 H -1.94394 1.35363 -3.55694 0
M  V30 37 H -1.9149 3.79653 -2.60367 0
M  V30 38 H -0.138144 3.58748 -2.45916 0
M  V30 39 H -2.04497 1.49704 -1.20476 0
M  V30 40 H -0.268294 1.65311 -1.07899 0
M  V30 41 H -0.534532 3.64574 0.389431 0
M  V30 42 H -2.31018 3.55578 0.177925 0
M  V30 43 H -2.39994 3.16187 2.62077 0
M  V30 44 H -0.154844 1.01896 3.95406 0
M  V30 45 H -0.483 -0.835513 5.50211 0
M  V30 46 H -4.64894 -0.808353 4.5733 0
M  V30 47 H -4.31663 1.07254 3.00875 0
M  V30 48 H -4.69447 -2.82434 5.31882 0
M  V30 49 H -4.6526 -2.49825 7.10418 0
M  V30 50 H -0.964109 -2.32483 6.7766 0
M  V30 51 H 2.01071 -0.83928 -5.56586 0
M  V30 52 H 4.3072 -1.8016 -5.17446 0
M  V30 END ATOM
M  V30 BEGIN BOND
M  V30 1 1 1 2
M  V30 2 2 2 3 CFG=2
M  V30 3 1 2 4
M  V30 4 2 4 5
M  V30 5 1 5 6
M  V30 6 2 6 7
M  V30 7 1 7 8
M  V30 8 1 8 9
M  V30 9 2 9 10
M  V30 10 1 9 11
M  V30 11 1 11 12
M  V30 12 1 12 13
M  V30 13 1 13 14
M  V30 14 1 14 15
M  V30 15 2 15 16
M  V30 16 1 15 17
M  V30 17 1 17 18
M  V30 18 2 18 19
M  V30 19 1 19 20
M  V30 20 2 20 21
M  V30 21 1 21 22
M  V30 22 2 22 23
M  V30 23 1 21 24
M  V30 24 1 24 25
M  V30 25 2 24 26 CFG=2
M  V30 26 1 7 27
M  V30 27 2 27 28
M  V30 28 1 28 4
M  V30 29 1 23 18
M  V30 30 1 1 29
M  V30 31 1 1 30
M  V30 32 1 3 31
M  V30 33 1 5 32
M  V30 34 1 6 33
M  V30 35 1 8 34
M  V30 36 1 11 35
M  V30 37 1 11 36
M  V30 38 1 12 37
M  V30 39 1 12 38
M  V30 40 1 13 39
M  V30 41 1 13 40
M  V30 42 1 14 41
M  V30 43 1 14 42
M  V30 44 1 17 43
M  V30 45 1 19 44
M  V30 46 1 20 45
M  V30 47 1 22 46
M  V30 48 1 23 47
M  V30 49 1 25 48
M  V30 50 1 25 49
M  V30 51 1 26 50
M  V30 52 1 27 51
M  V30 53 1 28 52
M  V30 END BOND
M  V30 END CTAB
M  END
