
     RDKit          3D

  0  0  0  0  0  0  0  0  0  0999 V3000
M  V30 BEGIN CTAB
M  V30 COUNTS 40 40 0 0 0
M  V30 BEGIN ATOM
M  V30 1 C -3.912 0.968186 -1.20487 0
M  V30 2 C -2.45652 0.980418 -1.11881 0
M  V30 3 C -1.74404 0.0426715 -0.191621 0
M  V30 4 N -0.308483 0.3894 -0.409778 0
M  V30 5 C 0.775085 -0.166992 0.230777 0
M  V30 6 O 0.648288 -1.0531 1.09646 0
M  V30 7 C 2.13493 0.260458 -0.0785809 0
M  V30 8 C 2.44653 1.23104 -1.0115 0
M  V30 9 C 3.77164 1.60226 -1.26801 0
M  V30 10 C 4.81568 1.01551 -0.601565 0
M  V30 11 C 4.53437 0.0475177 0.331385 0
M  V30 12 C 3.22963 -0.307322 0.573427 0
M  V30 13 N 2.96122 -1.31659 1.54824 0
M  V30 14 N 5.61838 -0.559241 1.02074 0 CHG=1
M  V30 15 O 6.74936 -0.646929 0.52392 0
M  V30 16 O 5.38973 -1.05846 2.27374 0 CHG=-1
M  V30 17 C -1.80908 -1.38235 -0.676729 0
M  V30 18 N -3.10778 -1.94281 -0.828972 0
M  V30 19 C -2.06653 0.227805 1.2495 0
M  V30 20 C -3.50776 0.0651631 1.63583 0
M  V30 21 H -4.41632 1.88788 -0.810842 0
M  V30 22 H -4.48317 0.138471 -0.802185 0
M  V30 23 H -4.20584 0.999532 -2.3054 0
M  V30 24 H -2.15168 2.02065 -0.771143 0
M  V30 25 H -2.00602 0.857003 -2.13616 0
M  V30 26 H -0.133035 1.14008 -1.13448 0
M  V30 27 H 1.69104 1.72913 -1.56657 0
M  V30 28 H 3.97652 2.36515 -2.00438 0
M  V30 29 H 5.83613 1.32587 -0.823175 0
M  V30 30 H 2.99867 -2.30265 1.20443 0
M  V30 31 H 2.74057 -1.10364 2.54225 0
M  V30 32 H -1.11774 -2.03777 -0.107163 0
M  V30 33 H -1.35549 -1.37217 -1.7193 0
M  V30 34 H -3.46594 -1.93226 -1.81211 0
M  V30 35 H -3.22484 -2.89976 -0.474249 0
M  V30 36 H -1.72145 1.21067 1.65085 0
M  V30 37 H -1.51668 -0.511821 1.90656 0
M  V30 38 H -3.96869 -0.881568 1.31659 0
M  V30 39 H -4.13076 0.960143 1.42853 0
M  V30 40 H -3.50791 0.0104016 2.76918 0
M  V30 END ATOM
M  V30 BEGIN BOND
M  V30 1 1 1 2
M  V30 2 1 2 3
M  V30 3 1 3 4
M  V30 4 1 4 5
M  V30 5 2 5 6
M  V30 6 1 5 7
M  V30 7 2 7 8
M  V30 8 1 8 9
M  V30 9 2 9 10
M  V30 10 1 10 11
M  V30 11 2 11 12
M  V30 12 1 12 13
M  V30 13 1 11 14
M  V30 14 2 14 15
M  V30 15 1 14 16
M  V30 16 1 3 17
M  V30 17 1 17 18
M  V30 18 1 3 19
M  V30 19 1 19 20
M  V30 20 1 12 7
M  V30 21 1 1 21
M  V30 22 1 1 22
M  V30 23 1 1 23
M  V30 24 1 2 24
M  V30 25 1 2 25
M  V30 26 1 4 26
M  V30 27 1 8 27
M  V30 28 1 9 28
M  V30 29 1 10 29
M  V30 30 1 13 30
M  V30 31 1 13 31
M  V30 32 1 17 32
M  V30 33 1 17 33
M  V30 34 1 18 34
M  V30 35 1 18 35
M  V30 36 1 19 36
M  V30 37 1 19 37
M  V30 38 1 20 38
M  V30 39 1 20 39
M  V30 40 1 20 40
M  V30 END BOND
M  V30 END CTAB
M  END
