
     RDKit          3D

  0  0  0  0  0  0  0  0  0  0999 V3000
M  V30 BEGIN CTAB
M  V30 COUNTS 59 60 0 0 0
M  V30 BEGIN ATOM
M  V30 1 C -5.64295 -1.11968 1.36093 0
M  V30 2 C -6.58662 -1.06153 0.218298 0
M  V30 3 N -7.87062 -0.975844 0.388933 0
M  V30 4 N -8.76427 -0.920764 -0.689013 0
M  V30 5 C -9.40606 0.323816 -0.908413 0
M  V30 6 S -10.4587 0.463925 -2.14349 0
M  V30 7 N -9.18769 1.47793 -0.107522 0
M  V30 8 C -6.08227 -1.10048 -1.14987 0
M  V30 9 S -5.16388 0.283658 -1.68698 0
M  V30 10 O -4.75839 0.0112337 -3.13041 0
M  V30 11 O -5.97802 1.54605 -1.7336 0
M  V30 12 C -3.72931 0.621749 -0.779489 0
M  V30 13 C -2.55438 -0.0247171 -1.0656 0
M  V30 14 C -1.38571 0.207037 -0.398167 0
M  V30 15 C -1.40562 1.14439 0.614887 0
M  V30 16 C -2.58771 1.80964 0.918892 0
M  V30 17 C -3.74838 1.55436 0.228707 0
M  V30 18 O -0.230351 1.39087 1.3007 0
M  V30 19 C 0.942372 0.724769 0.99285 0
M  V30 20 C 1.31007 -0.461513 1.58348 0
M  V30 21 C 2.48815 -1.08282 1.24062 0
M  V30 22 C 3.33734 -0.54247 0.298757 0
M  V30 23 C 2.97376 0.644391 -0.295014 0
M  V30 24 C 1.79313 1.26693 0.0486672 0
M  V30 25 S 4.84382 -1.29603 -0.16834 0
M  V30 26 O 4.76625 -2.77984 -0.155296 0
M  V30 27 O 5.17842 -0.864757 -1.56853 0
M  V30 28 C 6.11899 -0.676019 0.902082 0
M  V30 29 C 7.44047 -1.25724 0.585415 0
M  V30 30 N 8.40379 -0.498638 0.242834 0
M  V30 31 N 8.30838 0.88225 0.139156 0
M  V30 32 C 8.79004 1.53981 -1.01734 0
M  V30 33 S 9.46839 0.721677 -2.26195 0
M  V30 34 N 8.70766 2.95671 -1.15634 0
M  V30 35 C 7.62557 -2.72865 0.672398 0
M  V30 36 H -4.6158 -1.34311 1.00913 0
M  V30 37 H -5.89028 -1.95711 2.05531 0
M  V30 38 H -5.63667 -0.211419 1.9776 0
M  V30 39 H -8.97061 -1.70944 -1.30682 0
M  V30 40 H -8.25189 1.61151 0.36356 0
M  V30 41 H -9.91977 2.19175 0.0274902 0
M  V30 42 H -6.91223 -1.25412 -1.90341 0
M  V30 43 H -5.42572 -2.00653 -1.33702 0
M  V30 44 H -2.558 -0.754395 -1.861 0
M  V30 45 H -0.485874 -0.328557 -0.661348 0
M  V30 46 H -2.58704 2.55167 1.72669 0
M  V30 47 H -4.6847 2.0776 0.465495 0
M  V30 48 H 0.682834 -0.910566 2.31428 0
M  V30 49 H 2.76881 -2.01573 1.71073 0
M  V30 50 H 3.63789 1.08034 -1.04101 0
M  V30 51 H 1.53428 2.19933 -0.435519 0
M  V30 52 H 6.1274 0.423095 0.813065 0
M  V30 53 H 5.86649 -0.915305 1.96818 0
M  V30 54 H 7.88861 1.4492 0.896053 0
M  V30 55 H 8.22164 3.39503 -1.96053 0
M  V30 56 H 9.13025 3.61018 -0.459155 0
M  V30 57 H 8.68993 -2.98959 0.923058 0
M  V30 58 H 7.00657 -3.1737 1.4651 0
M  V30 59 H 7.42822 -3.20034 -0.3169 0
M  V30 END ATOM
M  V30 BEGIN BOND
M  V30 1 1 1 2
M  V30 2 2 2 3
M  V30 3 1 3 4
M  V30 4 1 4 5
M  V30 5 2 5 6
M  V30 6 1 5 7
M  V30 7 1 2 8
M  V30 8 1 8 9
M  V30 9 2 9 10
M  V30 10 2 9 11
M  V30 11 1 9 12
M  V30 12 2 12 13
M  V30 13 1 13 14
M  V30 14 2 14 15
M  V30 15 1 15 16
M  V30 16 2 16 17
M  V30 17 1 15 18
M  V30 18 1 18 19
M  V30 19 2 19 20
M  V30 20 1 20 21
M  V30 21 2 21 22
M  V30 22 1 22 23
M  V30 23 2 23 24
M  V30 24 1 22 25
M  V30 25 2 25 26
M  V30 26 2 25 27
M  V30 27 1 25 28
M  V30 28 1 28 29
M  V30 29 2 29 30
M  V30 30 1 30 31
M  V30 31 1 31 32
M  V30 32 2 32 33
M  V30 33 1 32 34
M  V30 34 1 29 35
M  V30 35 1 17 12
M  V30 36 1 24 19
M  V30 37 1 1 36
M  V30 38 1 1 37
M  V30 39 1 1 38
M  V30 40 1 4 39
M  V30 41 1 7 40
M  V30 42 1 7 41
M  V30 43 1 8 42
M  V30 44 1 8 43
M  V30 45 1 13 44
M  V30 46 1 14 45
M  V30 47 1 16 46
M  V30 48 1 17 47
M  V30 49 1 20 48
M  V30 50 1 21 49
M  V30 51 1 23 50
M  V30 52 1 24 51
M  V30 53 1 28 52
M  V30 54 1 28 53
M  V30 55 1 31 54
M  V30 56 1 34 55
M  V30 57 1 34 56
M  V30 58 1 35 57
M  V30 59 1 35 58
M  V30 60 1 35 59
M  V30 END BOND
M  V30 END CTAB
M  END
