
     RDKit          3D

  0  0  0  0  0  0  0  0  0  0999 V3000
M  V30 BEGIN CTAB
M  V30 COUNTS 39 41 0 0 0
M  V30 BEGIN ATOM
M  V30 1 N -0.674819 -4.39812 1.94757 0
M  V30 2 C -0.866342 -3.26111 1.68578 0
M  V30 3 C -1.1619 -1.84596 1.36142 0
M  V30 4 C -1.85297 -1.16859 2.24918 0
M  V30 5 N -2.23204 -1.85635 3.47816 0
M  V30 6 O -2.2524 0.128482 2.04919 0
M  V30 7 C -1.92638 0.754103 0.841755 0
M  V30 8 C -1.21807 0.0980583 -0.108291 0
M  V30 9 C -0.578021 -1.22126 0.166157 0
M  V30 10 C 0.893316 -0.968711 0.499044 0
M  V30 11 C 1.69803 -0.348152 -0.554253 0
M  V30 12 C 2.10299 0.960351 -0.419709 0
M  V30 13 C 2.90896 1.56459 -1.36241 0
M  V30 14 C 3.28789 0.793091 -2.44449 0
M  V30 15 C 2.8852 -0.517924 -2.58424 0
M  V30 16 C 2.08295 -1.1326 -1.65389 0
M  V30 17 C 1.57251 -2.20803 0.970099 0
M  V30 18 C -0.971046 0.773433 -1.30888 0
M  V30 19 C -1.42201 2.07169 -1.52235 0
M  V30 20 C -2.13191 2.74218 -0.555587 0
M  V30 21 C -2.36481 2.05656 0.607317 0
M  V30 22 N -2.57226 4.06652 -0.804372 0
M  V30 23 H -1.77761 -1.56395 4.36833 0
M  V30 24 H -2.92827 -2.61532 3.49569 0
M  V30 25 H -0.689971 -1.90262 -0.688263 0
M  V30 26 H 0.863247 -0.257656 1.37498 0
M  V30 27 H 1.79069 1.55779 0.448838 0
M  V30 28 H 3.23682 2.59243 -1.27256 0
M  V30 29 H 3.931 1.24474 -3.21515 0
M  V30 30 H 3.21713 -1.05771 -3.44975 0
M  V30 31 H 1.74444 -2.15605 -1.72376 0
M  V30 32 H 2.69275 -2.03807 0.736535 0
M  V30 33 H 1.3411 -3.0674 0.331974 0
M  V30 34 H 1.48368 -2.38984 2.03752 0
M  V30 35 H -0.446074 0.324684 -2.13776 0
M  V30 36 H -1.21346 2.55871 -2.4552 0
M  V30 37 H -2.92413 2.54167 1.40782 0
M  V30 38 H -1.92245 4.86031 -1.00543 0
M  V30 39 H -3.6058 4.28602 -0.790992 0
M  V30 END ATOM
M  V30 BEGIN BOND
M  V30 1 3 1 2
M  V30 2 1 2 3
M  V30 3 2 3 4
M  V30 4 1 4 5
M  V30 5 1 4 6
M  V30 6 1 6 7
M  V30 7 2 7 8
M  V30 8 1 8 9
M  V30 9 1 9 10
M  V30 10 1 10 11
M  V30 11 2 11 12
M  V30 12 1 12 13
M  V30 13 2 13 14
M  V30 14 1 14 15
M  V30 15 2 15 16
M  V30 16 1 10 17
M  V30 17 1 8 18
M  V30 18 2 18 19
M  V30 19 1 19 20
M  V30 20 2 20 21
M  V30 21 1 20 22
M  V30 22 1 9 3
M  V30 23 1 16 11
M  V30 24 1 21 7
M  V30 25 1 5 23
M  V30 26 1 5 24
M  V30 27 1 9 25
M  V30 28 1 10 26
M  V30 29 1 12 27
M  V30 30 1 13 28
M  V30 31 1 14 29
M  V30 32 1 15 30
M  V30 33 1 16 31
M  V30 34 1 17 32
M  V30 35 1 17 33
M  V30 36 1 17 34
M  V30 37 1 18 35
M  V30 38 1 19 36
M  V30 39 1 21 37
M  V30 40 1 22 38
M  V30 41 1 22 39
M  V30 END BOND
M  V30 END CTAB
M  END
