
     RDKit          3D

  0  0  0  0  0  0  0  0  0  0999 V3000
M  V30 BEGIN CTAB
M  V30 COUNTS 64 67 0 0 0
M  V30 BEGIN ATOM
M  V30 1 C 2.73734 7.78519 2.06761 0
M  V30 2 C 3.077 6.43768 1.48008 0
M  V30 3 O 4.25347 6.21225 1.14744 0
M  V30 4 N 2.04227 5.51923 1.34507 0
M  V30 5 C 2.11438 4.20174 0.817855 0
M  V30 6 C 3.15754 3.76048 0.0419916 0
M  V30 7 C 3.16599 2.44795 -0.414054 0
M  V30 8 C 2.15677 1.53795 -0.123782 0
M  V30 9 O 2.28806 0.277062 -0.636875 0
M  V30 10 C 3.31997 -0.15512 -1.41966 0
M  V30 11 C 4.43231 -0.713504 -0.847835 0
M  V30 12 C 5.50142 -1.16293 -1.61757 0
M  V30 13 C 5.40025 -1.02543 -2.98113 0
M  V30 14 C 4.31918 -0.477881 -3.61296 0
M  V30 15 C 3.28184 -0.0454046 -2.8144 0
M  V30 16 C 4.27155 -0.355117 -5.06072 0
M  V30 17 N 5.38391 -0.803778 -5.81947 0
M  V30 18 N 3.26973 0.144755 -5.6953 0
M  V30 19 C 1.11128 1.96049 0.646356 0
M  V30 20 C 1.11037 3.27172 1.09808 0
M  V30 21 C -0.00116858 1.11035 1.01767 0
M  V30 22 O -0.90132 1.67725 1.73984 0
M  V30 23 N -0.178196 -0.23309 0.66898 0
M  V30 24 C -1.28861 -1.05969 1.05208 0
M  V30 25 C -2.10605 -0.843679 2.11914 0
M  V30 26 C -3.19865 -1.68324 2.39259 0
M  V30 27 C -3.47854 -2.76035 1.5848 0
M  V30 28 C -2.64582 -2.96026 0.523461 0
M  V30 29 C -1.57435 -2.15774 0.231907 0
M  V30 30 C -4.60762 -3.59261 1.94205 0
M  V30 31 C -4.53431 -4.44333 3.06359 0
M  V30 32 C -5.58498 -5.25866 3.40961 0
M  V30 33 C -6.72699 -5.24335 2.64788 0
M  V30 34 C -6.78436 -4.41022 1.55966 0
M  V30 35 C -5.73732 -3.56388 1.1732 0
M  V30 36 S -5.89073 -2.52602 -0.184653 0
M  V30 37 N -5.6502 -0.864649 0.192871 0
M  V30 38 O -7.36833 -2.60209 -0.622225 0
M  V30 39 O -5.11701 -2.9165 -1.39707 0
M  V30 40 H 3.59772 8.1685 2.64387 0
M  V30 41 H 1.83515 7.73135 2.6847 0
M  V30 42 H 2.53272 8.48556 1.24133 0
M  V30 43 H 1.04588 5.79546 1.65846 0
M  V30 44 H 3.98814 4.42221 -0.243611 0
M  V30 45 H 4.00725 2.14673 -1.02078 0
M  V30 46 H 4.52393 -0.827692 0.227389 0
M  V30 47 H 6.35267 -1.59306 -1.12728 0
M  V30 48 H 6.23523 -1.37751 -3.5734 0
M  V30 49 H 2.38782 0.400489 -3.23488 0
M  V30 50 H 5.81277 -0.121048 -6.49787 0
M  V30 51 H 5.7654 -1.76806 -5.71438 0
M  V30 52 H 3.23745 0.230527 -6.71407 0
M  V30 53 H 0.30388 3.64799 1.71188 0
M  V30 54 H 0.530466 -0.73002 0.0861012 0
M  V30 55 H -1.91733 -0.0125752 2.80796 0
M  V30 56 H -3.801 -1.44322 3.26136 0
M  V30 57 H -2.84141 -3.83704 -0.115451 0
M  V30 58 H -0.933492 -2.36781 -0.644678 0
M  V30 59 H -3.63583 -4.46152 3.67079 0
M  V30 60 H -5.51997 -5.91788 4.28488 0
M  V30 61 H -7.55787 -5.89685 2.93271 0
M  V30 62 H -7.70427 -4.40487 0.953839 0
M  V30 63 H -6.48774 -0.283036 0.172457 0
M  V30 64 H -4.77761 -0.472199 -0.167458 0
M  V30 END ATOM
M  V30 BEGIN BOND
M  V30 1 1 1 2
M  V30 2 2 2 3
M  V30 3 1 2 4
M  V30 4 1 4 5
M  V30 5 2 5 6
M  V30 6 1 6 7
M  V30 7 2 7 8
M  V30 8 1 8 9
M  V30 9 1 9 10
M  V30 10 2 10 11
M  V30 11 1 11 12
M  V30 12 2 12 13
M  V30 13 1 13 14
M  V30 14 2 14 15
M  V30 15 1 14 16
M  V30 16 1 16 17
M  V30 17 2 16 18 CFG=2
M  V30 18 1 8 19
M  V30 19 2 19 20
M  V30 20 1 19 21
M  V30 21 2 21 22
M  V30 22 1 21 23
M  V30 23 1 23 24
M  V30 24 2 24 25
M  V30 25 1 25 26
M  V30 26 2 26 27
M  V30 27 1 27 28
M  V30 28 2 28 29
M  V30 29 1 27 30
M  V30 30 2 30 31
M  V30 31 1 31 32
M  V30 32 2 32 33
M  V30 33 1 33 34
M  V30 34 2 34 35
M  V30 35 1 35 36
M  V30 36 1 36 37
M  V30 37 2 36 38
M  V30 38 2 36 39
M  V30 39 1 20 5
M  V30 40 1 29 24
M  V30 41 1 35 30
M  V30 42 1 15 10
M  V30 43 1 1 40
M  V30 44 1 1 41
M  V30 45 1 1 42
M  V30 46 1 4 43
M  V30 47 1 6 44
M  V30 48 1 7 45
M  V30 49 1 11 46
M  V30 50 1 12 47
M  V30 51 1 13 48
M  V30 52 1 15 49
M  V30 53 1 17 50
M  V30 54 1 17 51
M  V30 55 1 18 52
M  V30 56 1 20 53
M  V30 57 1 23 54
M  V30 58 1 25 55
M  V30 59 1 26 56
M  V30 60 1 28 57
M  V30 61 1 29 58
M  V30 62 1 31 59
M  V30 63 1 32 60
M  V30 64 1 33 61
M  V30 65 1 34 62
M  V30 66 1 37 63
M  V30 67 1 37 64
M  V30 END BOND
M  V30 END CTAB
M  END
