
     RDKit          3D

  0  0  0  0  0  0  0  0  0  0999 V3000
M  V30 BEGIN CTAB
M  V30 COUNTS 50 54 0 0 0
M  V30 BEGIN ATOM
M  V30 1 N -3.93421 2.34714 -2.82761 0
M  V30 2 C -2.71271 2.12804 -2.10534 0
M  V30 3 C -2.64209 0.98229 -1.35254 0
M  V30 4 C -1.48074 0.731744 -0.630234 0
M  V30 5 C -0.425383 1.6452 -0.697052 0
M  V30 6 C -0.522995 2.77722 -1.45434 0
M  V30 7 C -1.692 3.02986 -2.17706 0
M  V30 8 N 0.899002 1.58539 -0.112762 0
M  V30 9 C 1.69606 0.54066 0.135031 0
M  V30 10 C 2.94364 0.901376 0.734111 0
M  V30 11 C 3.31642 2.24723 0.597213 0
M  V30 12 C 4.42524 2.77493 1.21178 0
M  V30 13 C 5.22619 1.98304 2.00057 0
M  V30 14 C 4.84428 0.660262 2.12513 0
M  V30 15 C 3.73673 0.128237 1.51343 0
M  V30 16 C 1.50114 -0.865396 -0.170916 0
M  V30 17 C 0.454038 -1.77874 -0.115066 0
M  V30 18 C 0.654012 -3.06875 -0.489455 0
M  V30 19 C 1.90924 -3.50011 -0.93752 0
M  V30 20 C 2.9414 -2.59739 -0.995027 0
M  V30 21 N 4.25599 -2.99464 -1.44589 0
M  V30 22 C 2.72431 -1.30021 -0.614403 0
M  V30 23 N -0.923869 -1.57335 0.254556 0
M  V30 24 C -1.73339 -0.525057 0.0431821 0
M  V30 25 C -3.05239 -0.700241 0.555284 0
M  V30 26 C -3.44821 -2.02415 0.779819 0
M  V30 27 C -4.63142 -2.34439 1.37961 0
M  V30 28 C -5.47895 -1.34776 1.78515 0
M  V30 29 C -5.083 -0.0356007 1.56154 0
M  V30 30 C -3.88984 0.276932 0.957642 0
M  V30 31 H -4.2254 1.7501 -3.60432 0
M  V30 32 H -4.51564 3.15091 -2.52014 0
M  V30 33 H -3.43695 0.23802 -1.31797 0
M  V30 34 H 0.28141 3.48363 -1.50973 0
M  V30 35 H -1.75847 3.92981 -2.77265 0
M  V30 36 H 2.71913 2.93326 -0.0191128 0
M  V30 37 H 4.67404 3.83812 1.07193 0
M  V30 38 H 6.10331 2.3666 2.4961 0
M  V30 39 H 5.50233 0.0502225 2.76128 0
M  V30 40 H 3.52578 -0.905683 1.70471 0
M  V30 41 H -0.169614 -3.78144 -0.442711 0
M  V30 42 H 2.07801 -4.51655 -1.23493 0
M  V30 43 H 4.68902 -3.80703 -0.993298 0
M  V30 44 H 4.69891 -2.45874 -2.18851 0
M  V30 45 H 3.51723 -0.575956 -0.690676 0
M  V30 46 H -2.79408 -2.85123 0.467721 0
M  V30 47 H -4.88577 -3.40252 1.52799 0
M  V30 48 H -6.42702 -1.56675 2.26443 0
M  V30 49 H -5.79344 0.722257 1.903 0
M  V30 50 H -3.65924 1.31918 0.85512 0
M  V30 END ATOM
M  V30 BEGIN BOND
M  V30 1 1 1 2
M  V30 2 2 2 3
M  V30 3 1 3 4
M  V30 4 2 4 5
M  V30 5 1 5 6
M  V30 6 2 6 7
M  V30 7 1 5 8
M  V30 8 2 8 9
M  V30 9 1 9 10
M  V30 10 2 10 11
M  V30 11 1 11 12
M  V30 12 2 12 13
M  V30 13 1 13 14
M  V30 14 2 14 15
M  V30 15 1 9 16
M  V30 16 2 16 17
M  V30 17 1 17 18
M  V30 18 2 18 19
M  V30 19 1 19 20
M  V30 20 1 20 21
M  V30 21 2 20 22
M  V30 22 1 17 23
M  V30 23 2 23 24
M  V30 24 1 24 25
M  V30 25 2 25 26
M  V30 26 1 26 27
M  V30 27 2 27 28
M  V30 28 1 28 29
M  V30 29 2 29 30
M  V30 30 1 7 2
M  V30 31 1 15 10
M  V30 32 1 22 16
M  V30 33 1 30 25
M  V30 34 1 24 4
M  V30 35 1 1 31
M  V30 36 1 1 32
M  V30 37 1 3 33
M  V30 38 1 6 34
M  V30 39 1 7 35
M  V30 40 1 11 36
M  V30 41 1 12 37
M  V30 42 1 13 38
M  V30 43 1 14 39
M  V30 44 1 15 40
M  V30 45 1 18 41
M  V30 46 1 19 42
M  V30 47 1 21 43
M  V30 48 1 21 44
M  V30 49 1 22 45
M  V30 50 1 26 46
M  V30 51 1 27 47
M  V30 52 1 28 48
M  V30 53 1 29 49
M  V30 54 1 30 50
M  V30 END BOND
M  V30 END CTAB
M  END
