
     RDKit          3D

  0  0  0  0  0  0  0  0  0  0999 V3000
M  V30 BEGIN CTAB
M  V30 COUNTS 74 78 0 0 0
M  V30 BEGIN ATOM
M  V30 1 N -2.46343 1.86856 1.69132 0
M  V30 2 C -1.21982 1.96838 0.964624 0
M  V30 3 C -0.515819 0.813893 0.587328 0
M  V30 4 O -1.08106 -0.351662 0.992966 0
M  V30 5 C -2.23719 -0.972906 0.585627 0
M  V30 6 C -3.03091 -0.636857 -0.472132 0
M  V30 7 C -4.21045 -1.31195 -0.815911 0
M  V30 8 C -4.6482 -2.39022 -0.0736693 0
M  V30 9 C -3.8545 -2.74482 1.00048 0
M  V30 10 C -2.70336 -2.07832 1.32624 0
M  V30 11 C -5.91933 -3.12303 -0.304019 0
M  V30 12 C -6.82808 -2.39415 -1.27116 0
M  V30 13 C -6.69905 -3.13799 1.03398 0
M  V30 14 C -5.70988 -4.53519 -0.733707 0
M  V30 15 C 0.656003 0.85285 -0.130817 0
M  V30 16 O 1.40452 -0.198078 -0.548418 0
M  V30 17 C 2.55392 -0.796988 -0.359657 0
M  V30 18 C 3.45635 -0.522214 0.617939 0
M  V30 19 C 4.66181 -1.20372 0.72395 0
M  V30 20 C 4.9888 -2.19248 -0.162418 0
M  V30 21 C 4.067 -2.48817 -1.16601 0
M  V30 22 C 2.89767 -1.82113 -1.26473 0
M  V30 23 C 6.29169 -2.87213 -0.102334 0
M  V30 24 C 6.49362 -3.6064 1.18708 0
M  V30 25 C 6.44909 -3.79319 -1.30603 0
M  V30 26 C 7.3705 -1.79487 -0.244737 0
M  V30 27 C 1.10992 2.16515 -0.458719 0
M  V30 28 C 0.433386 3.28958 -0.0921957 0
M  V30 29 C -0.739592 3.2006 0.62096 0
M  V30 30 C -1.52681 4.38894 1.00538 0
M  V30 31 O -2.58866 4.24961 1.65852 0
M  V30 32 C -1.04307 5.69348 0.615414 0
M  V30 33 C -1.76842 6.8404 0.938169 0
M  V30 34 C -1.33184 8.08619 0.553741 0
M  V30 35 C -0.157451 8.1766 -0.155758 0
M  V30 36 C 0.544272 7.04591 -0.465381 0
M  V30 37 C 0.112754 5.79865 -0.0888556 0
M  V30 38 C 0.911679 4.62856 -0.480962 0
M  V30 39 O 1.97549 4.722 -1.12523 0
M  V30 40 N 2.35358 2.26462 -1.16873 0
M  V30 41 H -2.45094 1.67045 2.70372 0
M  V30 42 H -3.35746 1.9882 1.19566 0
M  V30 43 H -2.72216 0.212579 -1.09048 0
M  V30 44 H -4.79542 -1.00618 -1.66375 0
M  V30 45 H -4.19265 -3.60048 1.59191 0
M  V30 46 H -2.08192 -2.36168 2.17982 0
M  V30 47 H -6.78997 -1.31884 -1.07635 0
M  V30 48 H -6.71739 -2.70773 -2.31979 0
M  V30 49 H -7.87884 -2.72222 -1.00174 0
M  V30 50 H -6.48172 -4.05623 1.56888 0
M  V30 51 H -6.32249 -2.28094 1.6327 0
M  V30 52 H -7.76855 -2.94185 0.878062 0
M  V30 53 H -6.69883 -5.07071 -0.642138 0
M  V30 54 H -5.04589 -5.05122 -0.0236233 0
M  V30 55 H -5.35951 -4.56377 -1.78663 0
M  V30 56 H 3.2684 0.25918 1.36807 0
M  V30 57 H 5.34764 -0.930754 1.54611 0
M  V30 58 H 4.31788 -3.26825 -1.86775 0
M  V30 59 H 2.18458 -2.07369 -2.06114 0
M  V30 60 H 7.51786 -3.34803 1.58962 0
M  V30 61 H 5.80389 -3.29648 1.98662 0
M  V30 62 H 6.52603 -4.7139 1.03332 0
M  V30 63 H 6.33796 -3.14645 -2.1893 0
M  V30 64 H 5.74085 -4.61585 -1.30885 0
M  V30 65 H 7.48647 -4.21228 -1.21444 0
M  V30 66 H 7.78295 -1.75414 -1.2654 0
M  V30 67 H 6.96625 -0.810073 0.114861 0
M  V30 68 H 8.21092 -2.0475 0.434966 0
M  V30 69 H -2.67644 6.77585 1.47973 0
M  V30 70 H -1.93864 8.95517 0.82886 0
M  V30 71 H 0.185414 9.17033 -0.453702 0
M  V30 72 H 1.47604 7.16321 -1.02918 0
M  V30 73 H 3.21365 2.45908 -0.565584 0
M  V30 74 H 2.45689 2.1577 -2.17376 0
M  V30 END ATOM
M  V30 BEGIN BOND
M  V30 1 1 1 2
M  V30 2 2 2 3
M  V30 3 1 3 4
M  V30 4 1 4 5
M  V30 5 2 5 6
M  V30 6 1 6 7
M  V30 7 2 7 8
M  V30 8 1 8 9
M  V30 9 2 9 10
M  V30 10 1 8 11
M  V30 11 1 11 12
M  V30 12 1 11 13
M  V30 13 1 11 14
M  V30 14 1 3 15
M  V30 15 1 15 16
M  V30 16 1 16 17
M  V30 17 2 17 18
M  V30 18 1 18 19
M  V30 19 2 19 20
M  V30 20 1 20 21
M  V30 21 2 21 22
M  V30 22 1 20 23
M  V30 23 1 23 24
M  V30 24 1 23 25
M  V30 25 1 23 26
M  V30 26 2 15 27
M  V30 27 1 27 28
M  V30 28 2 28 29
M  V30 29 1 29 30
M  V30 30 2 30 31
M  V30 31 1 30 32
M  V30 32 2 32 33
M  V30 33 1 33 34
M  V30 34 2 34 35
M  V30 35 1 35 36
M  V30 36 2 36 37
M  V30 37 1 37 38
M  V30 38 2 38 39
M  V30 39 1 27 40
M  V30 40 1 29 2
M  V30 41 1 37 32
M  V30 42 1 10 5
M  V30 43 1 22 17
M  V30 44 1 38 28
M  V30 45 1 1 41
M  V30 46 1 1 42
M  V30 47 1 6 43
M  V30 48 1 7 44
M  V30 49 1 9 45
M  V30 50 1 10 46
M  V30 51 1 12 47
M  V30 52 1 12 48
M  V30 53 1 12 49
M  V30 54 1 13 50
M  V30 55 1 13 51
M  V30 56 1 13 52
M  V30 57 1 14 53
M  V30 58 1 14 54
M  V30 59 1 14 55
M  V30 60 1 18 56
M  V30 61 1 19 57
M  V30 62 1 21 58
M  V30 63 1 22 59
M  V30 64 1 24 60
M  V30 65 1 24 61
M  V30 66 1 24 62
M  V30 67 1 25 63
M  V30 68 1 25 64
M  V30 69 1 25 65
M  V30 70 1 26 66
M  V30 71 1 26 67
M  V30 72 1 26 68
M  V30 73 1 33 69
M  V30 74 1 34 70
M  V30 75 1 35 71
M  V30 76 1 36 72
M  V30 77 1 40 73
M  V30 78 1 40 74
M  V30 END BOND
M  V30 END CTAB
M  END
