
     RDKit          3D

  0  0  0  0  0  0  0  0  0  0999 V3000
M  V30 BEGIN CTAB
M  V30 COUNTS 21 21 0 0 0
M  V30 BEGIN ATOM
M  V30 1 N -2.7114 -1.52861 0.0692443 0
M  V30 2 C -2.23587 -0.186913 -0.058303 0
M  V30 3 C -0.758211 -0.139373 -0.0177357 0
M  V30 4 C -0.0936092 1.0693 -0.125336 0
M  V30 5 N -0.845917 2.27125 -0.27593 0
M  V30 6 C 1.27681 1.1817 -0.0949654 0
M  V30 7 C 1.99685 -0.000640574 0.052568 0
M  V30 8 C 1.34094 -1.23257 0.162901 0
M  V30 9 C -0.031308 -1.30563 0.128301 0
M  V30 10 N 3.40396 0.0787086 0.0875506 0 CHG=1
M  V30 11 O 4.13501 -1.05861 0.230684 0 CHG=-1
M  V30 12 O 3.97531 1.16036 -0.00948227 0
M  V30 13 H -2.40725 -2.16583 -0.679087 0
M  V30 14 H -2.69845 -1.91488 1.02226 0
M  V30 15 H -2.60018 0.375341 0.849766 0
M  V30 16 H -2.6585 0.24865 -0.972833 0
M  V30 17 H -0.82599 3.00442 0.480029 0
M  V30 18 H -1.40043 2.37509 -1.15569 0
M  V30 19 H 1.78917 2.14118 -0.180852 0
M  V30 20 H 1.92138 -2.13544 0.276512 0
M  V30 21 H -0.57232 -2.23751 0.210397 0
M  V30 END ATOM
M  V30 BEGIN BOND
M  V30 1 1 1 2
M  V30 2 1 2 3
M  V30 3 2 3 4
M  V30 4 1 4 5
M  V30 5 1 4 6
M  V30 6 2 6 7
M  V30 7 1 7 8
M  V30 8 2 8 9
M  V30 9 1 7 10
M  V30 10 1 10 11
M  V30 11 2 10 12
M  V30 12 1 9 3
M  V30 13 1 1 13
M  V30 14 1 1 14
M  V30 15 1 2 15
M  V30 16 1 2 16
M  V30 17 1 5 17
M  V30 18 1 5 18
M  V30 19 1 6 19
M  V30 20 1 8 20
M  V30 21 1 9 21
M  V30 END BOND
M  V30 END CTAB
M  END
