
     RDKit          3D

  0  0  0  0  0  0  0  0  0  0999 V3000
M  V30 BEGIN CTAB
M  V30 COUNTS 34 35 0 0 0
M  V30 BEGIN ATOM
M  V30 1 O -1.09298 -0.303304 1.85928 0
M  V30 2 C -0.6689 -0.124618 0.716585 0
M  V30 3 N -1.48315 0.0555064 -0.398517 0
M  V30 4 C -2.88082 0.0664249 -0.372792 0
M  V30 5 C -3.60977 -0.138458 -1.55913 0
M  V30 6 C -4.97496 -0.107767 -1.56184 0
M  V30 7 C -5.70735 0.122725 -0.417257 0
M  V30 8 C -5.02556 0.326612 0.755926 0
M  V30 9 C -3.63477 0.292291 0.740538 0
M  V30 10 N -7.14219 0.146533 -0.46326 0 CHG=1
M  V30 11 O -7.83884 0.348394 0.532427 0
M  V30 12 O -7.73785 -0.066107 -1.67271 0 CHG=-1
M  V30 13 C 0.838561 -0.112124 0.592934 0
M  V30 14 O 1.2402 0.0926297 -0.714245 0
M  V30 15 N 2.50736 0.159412 -1.16546 0
M  V30 16 C 3.59548 0.0167056 -0.504949 0
M  V30 17 C 4.88887 0.130962 -1.2069 0
M  V30 18 N 5.12448 0.371861 -2.48766 0
M  V30 19 O 6.42365 0.392108 -2.69759 0
M  V30 20 N 7.03395 0.164762 -1.55548 0
M  V30 21 C 6.11113 -0.0049938 -0.592453 0
M  V30 22 N 6.40726 -0.272014 0.782591 0
M  V30 23 N 3.54924 -0.24828 0.88652 0
M  V30 24 H -0.993644 0.20146 -1.36737 0
M  V30 25 H -3.04002 -0.319795 -2.46049 0
M  V30 26 H -5.53515 -0.267462 -2.48554 0
M  V30 27 H -5.59424 0.509838 1.66728 0
M  V30 28 H -3.1969 0.482711 1.71896 0
M  V30 29 H 1.18996 0.693605 1.25573 0
M  V30 30 H 1.14322 -1.13297 0.912956 0
M  V30 31 H 6.39537 -1.2243 1.18565 0
M  V30 32 H 6.64511 0.524937 1.40568 0
M  V30 33 H 3.54445 0.481347 1.62966 0
M  V30 34 H 3.51881 -1.25863 1.18212 0
M  V30 END ATOM
M  V30 BEGIN BOND
M  V30 1 2 1 2
M  V30 2 1 2 3
M  V30 3 1 3 4
M  V30 4 2 4 5
M  V30 5 1 5 6
M  V30 6 2 6 7
M  V30 7 1 7 8
M  V30 8 2 8 9
M  V30 9 1 7 10
M  V30 10 2 10 11
M  V30 11 1 10 12
M  V30 12 1 2 13
M  V30 13 1 13 14
M  V30 14 1 14 15
M  V30 15 2 15 16
M  V30 16 1 16 17
M  V30 17 2 17 18
M  V30 18 1 18 19
M  V30 19 1 19 20
M  V30 20 2 20 21
M  V30 21 1 21 22
M  V30 22 1 16 23
M  V30 23 1 9 4
M  V30 24 1 21 17
M  V30 25 1 3 24
M  V30 26 1 5 25
M  V30 27 1 6 26
M  V30 28 1 8 27
M  V30 29 1 9 28
M  V30 30 1 13 29
M  V30 31 1 13 30
M  V30 32 1 22 31
M  V30 33 1 22 32
M  V30 34 1 23 33
M  V30 35 1 23 34
M  V30 END BOND
M  V30 END CTAB
M  END
