
     RDKit          3D

  0  0  0  0  0  0  0  0  0  0999 V3000
M  V30 BEGIN CTAB
M  V30 COUNTS 43 44 0 0 0
M  V30 BEGIN ATOM
M  V30 1 N -3.55816 -1.2652 1.88788 0
M  V30 2 C -4.15148 -1.27557 0.553741 0
M  V30 3 C -3.15476 -0.831448 -0.493932 0
M  V30 4 C -3.87217 -0.879547 -1.83146 0
M  V30 5 C -2.01973 -1.80082 -0.49933 0
M  V30 6 C -0.777856 -0.951486 -0.594041 0
M  V30 7 N -1.15131 0.385693 -0.186258 0
M  V30 8 C -2.59371 0.523528 -0.228676 0
M  V30 9 C -0.221294 1.38885 0.192592 0
M  V30 10 O -0.649267 2.54034 0.53739 0
M  V30 11 C 1.20773 1.19546 0.216401 0
M  V30 12 C 1.85609 0.738898 1.34639 0
M  V30 13 C 3.22152 0.546481 1.39228 0
M  V30 14 C 3.93504 0.830444 0.249453 0
M  V30 15 C 3.28658 1.28673 -0.879667 0
M  V30 16 C 1.92181 1.48044 -0.929741 0
M  V30 17 O 1.30727 1.94301 -2.0913 0
M  V30 18 C 2.11112 2.21224 -3.22513 0
M  V30 19 S 3.99774 -0.0375441 2.8583 0
M  V30 20 O 3.32727 0.531611 4.06773 0
M  V30 21 O 5.40906 0.512817 2.83738 0
M  V30 22 N 4.0763 -1.73955 2.88062 0
M  V30 23 H -4.24035 -1.81803 2.48938 0
M  V30 24 H -3.56461 -0.270249 2.20291 0
M  V30 25 H -5.0501 -0.639651 0.576246 0
M  V30 26 H -4.47263 -2.32115 0.375117 0
M  V30 27 H -3.52226 -0.00440648 -2.41385 0
M  V30 28 H -3.6085 -1.81825 -2.33475 0
M  V30 29 H -4.97528 -0.770207 -1.67349 0
M  V30 30 H -2.06416 -2.53588 -1.32644 0
M  V30 31 H -2.01119 -2.39847 0.439286 0
M  V30 32 H -0.470005 -0.944448 -1.66018 0
M  V30 33 H -0.0208524 -1.40649 0.0653777 0
M  V30 34 H -2.9188 0.972717 0.720222 0
M  V30 35 H -2.89785 1.2591 -1.03009 0
M  V30 36 H 1.31459 0.505264 2.26867 0
M  V30 37 H 4.99778 0.681104 0.283948 0
M  V30 38 H 3.86149 1.51119 -1.78742 0
M  V30 39 H 2.9555 2.9117 -2.96217 0
M  V30 40 H 2.62662 1.27928 -3.57962 0
M  V30 41 H 1.54273 2.70431 -4.02193 0
M  V30 42 H 4.10174 -2.17613 1.95374 0
M  V30 43 H 4.90832 -2.05669 3.41624 0
M  V30 END ATOM
M  V30 BEGIN BOND
M  V30 1 1 1 2
M  V30 2 1 2 3
M  V30 3 1 3 4
M  V30 4 1 3 5
M  V30 5 1 5 6
M  V30 6 1 6 7
M  V30 7 1 7 8
M  V30 8 1 7 9
M  V30 9 2 9 10
M  V30 10 1 9 11
M  V30 11 2 11 12
M  V30 12 1 12 13
M  V30 13 2 13 14
M  V30 14 1 14 15
M  V30 15 2 15 16
M  V30 16 1 16 17
M  V30 17 1 17 18
M  V30 18 1 13 19
M  V30 19 2 19 20
M  V30 20 2 19 21
M  V30 21 1 19 22
M  V30 22 1 8 3
M  V30 23 1 16 11
M  V30 24 1 1 23
M  V30 25 1 1 24
M  V30 26 1 2 25
M  V30 27 1 2 26
M  V30 28 1 4 27
M  V30 29 1 4 28
M  V30 30 1 4 29
M  V30 31 1 5 30
M  V30 32 1 5 31
M  V30 33 1 6 32
M  V30 34 1 6 33
M  V30 35 1 8 34
M  V30 36 1 8 35
M  V30 37 1 12 36
M  V30 38 1 14 37
M  V30 39 1 15 38
M  V30 40 1 18 39
M  V30 41 1 18 40
M  V30 42 1 18 41
M  V30 43 1 22 42
M  V30 44 1 22 43
M  V30 END BOND
M  V30 END CTAB
M  END
