
     RDKit          3D

  0  0  0  0  0  0  0  0  0  0999 V3000
M  V30 BEGIN CTAB
M  V30 COUNTS 23 22 0 0 0
M  V30 BEGIN ATOM
M  V30 1 N 3.10765 -1.16571 0.282135 0
M  V30 2 C 2.04382 -0.154886 0.300634 0
M  V30 3 C 1.24582 -0.363075 -0.960152 0
M  V30 4 C 0.0990418 0.648545 -1.04486 0
M  V30 5 C -0.827896 0.490824 0.141376 0
M  V30 6 N -1.34557 -0.851968 0.103702 0
M  V30 7 N -2.21395 -1.15885 1.12606 0
M  V30 8 C -1.96717 1.44362 -0.0985168 0
M  V30 9 O -1.77003 2.8189 -0.118932 0
M  V30 10 O -3.12235 1.02363 -0.28603 0
M  V30 11 H 2.71009 -2.0079 -0.147347 0
M  V30 12 H 3.31285 -1.36759 1.28466 0
M  V30 13 H 1.4339 -0.274029 1.21371 0
M  V30 14 H 2.56574 0.821126 0.316769 0
M  V30 15 H 1.92232 -0.211992 -1.82442 0
M  V30 16 H 0.838806 -1.37847 -0.975707 0
M  V30 17 H 0.563504 1.66619 -1.07242 0
M  V30 18 H -0.443702 0.481597 -1.99724 0
M  V30 19 H -0.320391 0.749983 1.06718 0
M  V30 20 H -1.64948 -1.10586 -0.839155 0
M  V30 21 H -3.20903 -1.24673 0.773361 0
M  V30 22 H -1.96223 -2.10715 1.48745 0
M  V30 23 H -1.01174 3.24979 0.388139 0
M  V30 END ATOM
M  V30 BEGIN BOND
M  V30 1 1 1 2
M  V30 2 1 2 3
M  V30 3 1 3 4
M  V30 4 1 4 5
M  V30 5 1 5 6
M  V30 6 1 6 7
M  V30 7 1 5 8
M  V30 8 1 8 9
M  V30 9 2 8 10
M  V30 10 1 1 11
M  V30 11 1 1 12
M  V30 12 1 2 13
M  V30 13 1 2 14
M  V30 14 1 3 15
M  V30 15 1 3 16
M  V30 16 1 4 17
M  V30 17 1 4 18
M  V30 18 1 5 19
M  V30 19 1 6 20
M  V30 20 1 7 21
M  V30 21 1 7 22
M  V30 22 1 9 23
M  V30 END BOND
M  V30 END CTAB
M  END
