
     RDKit          3D

  0  0  0  0  0  0  0  0  0  0999 V3000
M  V30 BEGIN CTAB
M  V30 COUNTS 28 30 0 0 0
M  V30 BEGIN ATOM
M  V30 1 N -3.41627 -2.04556 1.43186 0
M  V30 2 C -3.31672 -1.13925 0.343745 0
M  V30 3 N -4.31058 -0.736617 -0.486128 0
M  V30 4 N -3.84303 0.115511 -1.38439 0
M  V30 5 C -2.51515 0.317402 -1.19099 0
M  V30 6 C -2.19787 -0.469443 -0.11155 0
M  V30 7 C -0.876199 -0.455581 0.312412 0
M  V30 8 O -0.597332 -1.18266 1.30508 0
M  V30 9 N 0.0519263 0.303291 -0.316763 0
M  V30 10 C -0.275037 1.06955 -1.37396 0
M  V30 11 N -1.56618 1.05742 -1.78988 0
M  V30 12 N 0.706528 1.86755 -2.03374 0
M  V30 13 C 1.39724 0.291242 0.147219 0
M  V30 14 C 1.72621 0.600648 1.43764 0
M  V30 15 C 3.03791 0.570407 1.82017 0
M  V30 16 C 4.02471 0.235994 0.933525 0
M  V30 17 C 3.69412 -0.0757686 -0.366389 0
M  V30 18 C 2.37678 -0.0445913 -0.747505 0
M  V30 19 H -4.05949 -1.82996 2.21895 0
M  V30 20 H -2.86875 -2.92401 1.47644 0
M  V30 21 H -5.28425 -1.07892 -0.387585 0
M  V30 22 H 1.01087 1.58768 -2.98145 0
M  V30 23 H 1.13083 2.71829 -1.60611 0
M  V30 24 H 0.96673 0.862773 2.13793 0
M  V30 25 H 3.34483 0.811921 2.8464 0
M  V30 26 H 5.05806 0.214117 1.24216 0
M  V30 27 H 4.48039 -0.348133 -1.09513 0
M  V30 28 H 2.11975 -0.2933 -1.78195 0
M  V30 END ATOM
M  V30 BEGIN BOND
M  V30 1 1 1 2
M  V30 2 1 2 3
M  V30 3 1 3 4
M  V30 4 2 4 5
M  V30 5 1 5 6
M  V30 6 1 6 7
M  V30 7 2 7 8
M  V30 8 1 7 9
M  V30 9 1 9 10
M  V30 10 2 10 11
M  V30 11 1 10 12
M  V30 12 1 9 13
M  V30 13 2 13 14
M  V30 14 1 14 15
M  V30 15 2 15 16
M  V30 16 1 16 17
M  V30 17 2 17 18
M  V30 18 2 6 2
M  V30 19 1 18 13
M  V30 20 1 11 5
M  V30 21 1 1 19
M  V30 22 1 1 20
M  V30 23 1 3 21
M  V30 24 1 12 22
M  V30 25 1 12 23
M  V30 26 1 14 24
M  V30 27 1 15 25
M  V30 28 1 16 26
M  V30 29 1 17 27
M  V30 30 1 18 28
M  V30 END BOND
M  V30 END CTAB
M  END
