
     RDKit          3D

  0  0  0  0  0  0  0  0  0  0999 V3000
M  V30 BEGIN CTAB
M  V30 COUNTS 125 130 0 0 0
M  V30 BEGIN ATOM
M  V30 1 N 7.02485 -0.383481 -2.04199 0
M  V30 2 C 7.14393 -1.00179 -0.790932 0 CFG=1
M  V30 3 C 8.45055 -0.689037 -0.0966582 0
M  V30 4 C 8.65823 0.752925 0.151042 0
M  V30 5 C 9.28757 1.49589 -0.830609 0
M  V30 6 C 9.52565 2.84944 -0.682319 0
M  V30 7 C 9.12884 3.49221 0.474804 0
M  V30 8 C 8.49854 2.75394 1.46096 0
M  V30 9 C 8.26579 1.40119 1.30209 0
M  V30 10 C 6.04581 -0.791689 0.140753 0
M  V30 11 O 6.13596 -1.36076 1.28356 0
M  V30 12 N 4.88357 -0.0107886 -0.110035 0
M  V30 13 C 3.83795 0.141986 0.874719 0 CFG=1
M  V30 14 C 3.74226 1.61158 1.37191 0
M  V30 15 C 2.41428 2.20106 1.13545 0
M  V30 16 C 1.85653 3.31224 1.93614 0
M  V30 17 N 0.448603 3.0428 2.28195 0
M  V30 18 C -0.743948 3.40533 1.76479 0
M  V30 19 O -1.49457 4.15132 2.52209 0
M  V30 20 C -1.43727 3.12288 0.437538 0 CFG=1
M  V30 21 C -1.22953 4.25709 -0.486799 0
M  V30 22 C -1.839 4.23476 -1.82134 0
M  V30 23 C -3.34383 4.13258 -1.82847 0
M  V30 24 N -3.94587 5.24875 -1.14615 0
M  V30 25 C -3.8672 6.53588 -1.70075 0
M  V30 26 N -4.54484 6.81287 -2.9122 0
M  V30 27 N -3.19881 7.45495 -1.1311 0
M  V30 28 N -1.20151 1.78761 -0.0133715 0
M  V30 29 C -1.63251 0.932694 -0.993775 0
M  V30 30 O -0.823421 0.811227 -2.03769 0
M  V30 31 C -2.79914 0.0705479 -1.21097 0 CFG=2
M  V30 32 C -3.49799 -0.507 -0.0273164 0
M  V30 33 C -4.08712 0.423054 0.939747 0
M  V30 34 C -3.66826 0.68839 2.24706 0
M  V30 35 N -4.5005 1.57306 2.81156 0
M  V30 36 C -5.46847 1.92014 1.94228 0
M  V30 37 C -5.22845 1.21896 0.78091 0
M  V30 38 C -6.05854 1.36216 -0.3095 0
M  V30 39 C -7.14996 2.22506 -0.234072 0
M  V30 40 C -7.37655 2.91276 0.91933 0
M  V30 41 C -6.553 2.77797 2.01806 0
M  V30 42 N -2.54325 -0.953283 -2.22221 0
M  V30 43 C -1.60208 -1.95736 -2.27708 0
M  V30 44 O -0.780793 -1.93767 -3.28657 0
M  V30 45 C -1.32545 -3.11053 -1.37653 0 CFG=1
M  V30 46 C -2.35122 -4.152 -1.73691 0
M  V30 47 C -2.28521 -5.41659 -0.956288 0
M  V30 48 C -2.47781 -5.18497 0.537597 0
M  V30 49 C -3.40082 -6.19555 1.16177 0
M  V30 50 C -3.05183 -7.57312 0.585637 0
M  V30 51 C -3.47466 -7.63147 -0.871474 0
M  V30 52 C -3.52348 -6.22922 -1.38495 0
M  V30 53 N 0.0260171 -3.60575 -1.44305 0
M  V30 54 C 1.23973 -3.12901 -1.02387 0
M  V30 55 O 2.09043 -2.88273 -1.99077 0
M  V30 56 C 1.83242 -2.82027 0.288404 0 CFG=2
M  V30 57 C 1.2773 -3.65811 1.40185 0
M  V30 58 C 0.373694 -2.78916 2.17789 0
M  V30 59 C 0.471872 -1.4477 1.55607 0
M  V30 60 N 1.68645 -1.40923 0.719596 0
M  V30 61 C 2.52214 -0.348234 0.348915 0
M  V30 62 O 2.09749 0.378273 -0.650177 0
M  V30 63 H 7.54214 -0.851856 -2.75862 0
M  V30 64 H 7.08062 0.5948 -2.06086 0
M  V30 65 H 7.18856 -2.11989 -0.980836 0
M  V30 66 H 8.37359 -1.17492 0.920553 0
M  V30 67 H 9.32033 -1.1807 -0.577421 0
M  V30 68 H 9.61715 1.04122 -1.75291 0
M  V30 69 H 10.0139 3.44899 -1.43318 0
M  V30 70 H 9.31167 4.57031 0.606632 0
M  V30 71 H 8.17128 3.21848 2.38249 0
M  V30 72 H 7.77009 0.868208 2.10587 0
M  V30 73 H 4.81808 0.453402 -1.04865 0
M  V30 74 H 4.17602 -0.422002 1.76658 0
M  V30 75 H 4.04425 1.70464 2.423 0
M  V30 76 H 4.51944 2.15298 0.784229 0
M  V30 77 H 1.75362 1.35654 1.41299 0
M  V30 78 H 2.37838 2.54463 0.089117 0
M  V30 79 H 1.98537 4.29063 1.42232 0
M  V30 80 H 2.48623 3.41337 2.84742 0
M  V30 81 H 0.41443 2.40751 3.16699 0
M  V30 82 H -2.56427 3.12497 0.613103 0
M  V30 83 H -1.55879 5.18882 0.0621332 0
M  V30 84 H -0.127539 4.39876 -0.615658 0
M  V30 85 H -1.60758 5.2248 -2.30601 0
M  V30 86 H -1.39527 3.47817 -2.47638 0
M  V30 87 H -3.74974 3.16661 -1.53164 0
M  V30 88 H -3.64443 4.25105 -2.91384 0
M  V30 89 H -4.43332 5.09645 -0.250383 0
M  V30 90 H -4.10154 6.636 -3.82379 0
M  V30 91 H -5.50903 7.20305 -2.85198 0
M  V30 92 H -2.68729 7.29696 -0.240414 0
M  V30 93 H -0.432562 1.32265 0.62871 0
M  V30 94 H -3.57661 0.780953 -1.65385 0
M  V30 95 H -2.79778 -1.15979 0.590272 0
M  V30 96 H -4.36085 -1.1612 -0.374327 0
M  V30 97 H -2.80306 0.224901 2.68314 0
M  V30 98 H -4.43371 1.95478 3.78051 0
M  V30 99 H -5.91797 0.835301 -1.24112 0
M  V30 100 H -7.80402 2.34211 -1.08507 0
M  V30 101 H -8.22137 3.59922 1.01753 0
M  V30 102 H -6.77129 3.34386 2.91281 0
M  V30 103 H -3.20036 -0.908345 -3.07691 0
M  V30 104 H -1.51038 -2.85767 -0.325034 0
M  V30 105 H -2.30367 -4.42544 -2.813 0
M  V30 106 H -3.36387 -3.72147 -1.58685 0
M  V30 107 H -1.44197 -6.07178 -1.18859 0
M  V30 108 H -1.52046 -5.24519 1.09527 0
M  V30 109 H -2.93539 -4.17264 0.636147 0
M  V30 110 H -4.46509 -5.96224 1.05316 0
M  V30 111 H -3.18571 -6.23861 2.24104 0
M  V30 112 H -1.94693 -7.63773 0.600978 0
M  V30 113 H -3.54985 -8.37315 1.13045 0
M  V30 114 H -2.78014 -8.21885 -1.49589 0
M  V30 115 H -4.49068 -8.05974 -0.984077 0
M  V30 116 H -3.50181 -6.22269 -2.49444 0
M  V30 117 H -4.44804 -5.69187 -1.09816 0
M  V30 118 H 0.0816931 -4.56952 -1.94399 0
M  V30 119 H 2.93569 -3.00433 0.32808 0
M  V30 120 H 0.747089 -4.51046 0.970112 0
M  V30 121 H 2.05263 -4.06081 2.09892 0
M  V30 122 H 0.623589 -2.77184 3.27586 0
M  V30 123 H -0.693073 -3.13037 2.11844 0
M  V30 124 H 0.393364 -0.728126 2.36297 0
M  V30 125 H -0.423298 -1.19897 0.907539 0
M  V30 END ATOM
M  V30 BEGIN BOND
M  V30 1 1 1 2
M  V30 2 1 2 3
M  V30 3 1 3 4
M  V30 4 2 4 5
M  V30 5 1 5 6
M  V30 6 2 6 7
M  V30 7 1 7 8
M  V30 8 2 8 9
M  V30 9 1 2 10
M  V30 10 2 10 11
M  V30 11 1 10 12
M  V30 12 1 12 13
M  V30 13 1 13 14
M  V30 14 1 14 15
M  V30 15 1 15 16
M  V30 16 1 16 17
M  V30 17 1 17 18
M  V30 18 2 18 19
M  V30 19 1 18 20
M  V30 20 1 20 21
M  V30 21 1 21 22
M  V30 22 1 22 23
M  V30 23 1 23 24
M  V30 24 1 24 25
M  V30 25 1 25 26
M  V30 26 2 25 27 CFG=2
M  V30 27 1 20 28
M  V30 28 1 28 29
M  V30 29 2 29 30
M  V30 30 1 29 31
M  V30 31 1 31 32
M  V30 32 1 32 33
M  V30 33 2 33 34
M  V30 34 1 34 35
M  V30 35 1 35 36
M  V30 36 2 36 37
M  V30 37 1 37 38
M  V30 38 2 38 39
M  V30 39 1 39 40
M  V30 40 2 40 41
M  V30 41 1 31 42
M  V30 42 1 42 43
M  V30 43 2 43 44
M  V30 44 1 43 45
M  V30 45 1 45 46
M  V30 46 1 46 47
M  V30 47 1 47 48
M  V30 48 1 48 49
M  V30 49 1 49 50
M  V30 50 1 50 51
M  V30 51 1 51 52
M  V30 52 1 45 53
M  V30 53 1 53 54
M  V30 54 2 54 55
M  V30 55 1 54 56
M  V30 56 1 56 57
M  V30 57 1 57 58
M  V30 58 1 58 59
M  V30 59 1 59 60
M  V30 60 1 60 61
M  V30 61 2 61 62
M  V30 62 1 9 4
M  V30 63 1 61 13
M  V30 64 1 37 33
M  V30 65 1 52 47
M  V30 66 1 60 56
M  V30 67 1 41 36
M  V30 68 1 1 63
M  V30 69 1 1 64
M  V30 70 1 2 65 CFG=3
M  V30 71 1 3 66
M  V30 72 1 3 67
M  V30 73 1 5 68
M  V30 74 1 6 69
M  V30 75 1 7 70
M  V30 76 1 8 71
M  V30 77 1 9 72
M  V30 78 1 12 73
M  V30 79 1 13 74 CFG=1
M  V30 80 1 14 75
M  V30 81 1 14 76
M  V30 82 1 15 77
M  V30 83 1 15 78
M  V30 84 1 16 79
M  V30 85 1 16 80
M  V30 86 1 17 81
M  V30 87 1 20 82 CFG=1
M  V30 88 1 21 83
M  V30 89 1 21 84
M  V30 90 1 22 85
M  V30 91 1 22 86
M  V30 92 1 23 87
M  V30 93 1 23 88
M  V30 94 1 24 89
M  V30 95 1 26 90
M  V30 96 1 26 91
M  V30 97 1 27 92
M  V30 98 1 28 93
M  V30 99 1 31 94 CFG=3
M  V30 100 1 32 95
M  V30 101 1 32 96
M  V30 102 1 34 97
M  V30 103 1 35 98
M  V30 104 1 38 99
M  V30 105 1 39 100
M  V30 106 1 40 101
M  V30 107 1 41 102
M  V30 108 1 42 103
M  V30 109 1 45 104 CFG=1
M  V30 110 1 46 105
M  V30 111 1 46 106
M  V30 112 1 47 107
M  V30 113 1 48 108
M  V30 114 1 48 109
M  V30 115 1 49 110
M  V30 116 1 49 111
M  V30 117 1 50 112
M  V30 118 1 50 113
M  V30 119 1 51 114
M  V30 120 1 51 115
M  V30 121 1 52 116
M  V30 122 1 52 117
M  V30 123 1 53 118
M  V30 124 1 56 119 CFG=3
M  V30 125 1 57 120
M  V30 126 1 57 121
M  V30 127 1 58 122
M  V30 128 1 58 123
M  V30 129 1 59 124
M  V30 130 1 59 125
M  V30 END BOND
M  V30 END CTAB
M  END
