
     RDKit          3D

  0  0  0  0  0  0  0  0  0  0999 V3000
M  V30 BEGIN CTAB
M  V30 COUNTS 44 46 0 0 0
M  V30 BEGIN ATOM
M  V30 1 N -8.6994 0.206427 -0.730335 0
M  V30 2 C -7.30195 0.023741 -0.439514 0
M  V30 3 C -6.92182 -0.612803 0.708648 0
M  V30 4 C -5.60009 -0.77339 0.974503 0
M  V30 5 C -4.57937 -0.308243 0.114033 0
M  V30 6 C -4.99338 0.343091 -1.06302 0
M  V30 7 C -6.34336 0.478253 -1.2818 0
M  V30 8 Cl -3.86034 0.909433 -2.26626 0
M  V30 9 N -3.25411 -0.31583 0.429246 0
M  V30 10 C -1.96708 -0.323266 0.735404 0
M  V30 11 O -1.38964 -1.29929 1.39833 0
M  V30 12 C -1.01101 0.760629 0.38524 0
M  V30 13 C -1.41924 2.05306 0.229384 0
M  V30 14 C -0.485864 3.03103 -0.0499674 0
M  V30 15 C 0.839686 2.67681 -0.163661 0
M  V30 16 C 1.29027 1.37257 -0.0104982 0
M  V30 17 C 0.339874 0.433377 0.263141 0
M  V30 18 C 2.73382 1.05452 -0.102609 0
M  V30 19 O 3.44386 2.08109 -0.355281 0
M  V30 20 N 3.22881 -0.235969 0.0783984 0
M  V30 21 C 4.59546 -0.604279 0.0219134 0
M  V30 22 C 5.65293 0.225903 -0.20937 0
M  V30 23 C 6.99182 -0.208175 -0.230261 0
M  V30 24 C 7.28071 -1.53702 -0.00973195 0
M  V30 25 C 6.2218 -2.3792 0.222078 0
M  V30 26 C 4.92056 -1.96845 0.245169 0
M  V30 27 Cl 3.62364 -3.09782 0.548439 0
M  V30 28 N 8.62921 -1.97412 -0.0271208 0
M  V30 29 H -9.39506 0.187195 0.0317405 0
M  V30 30 H -8.98735 0.358225 -1.71668 0
M  V30 31 H -7.66564 -0.981719 1.3922 0
M  V30 32 H -5.27077 -1.26033 1.87697 0
M  V30 33 H -6.66086 0.988428 -2.18804 0
M  V30 34 H -3.35268 -1.6148 0.875603 0
M  V30 35 H -2.48859 2.31029 0.326241 0
M  V30 36 H -0.858254 4.05001 -0.163581 0
M  V30 37 H 1.56793 3.43781 -0.377917 0
M  V30 38 H 0.648509 -0.609543 0.37808 0
M  V30 39 H 2.50822 -0.992016 0.268214 0
M  V30 40 H 5.48004 1.28285 -0.390857 0
M  V30 41 H 7.77582 0.517413 -0.41257 0
M  V30 42 H 6.46923 -3.42661 0.395584 0
M  V30 43 H 8.86882 -2.96663 -0.193166 0
M  V30 44 H 9.39486 -1.29265 0.131738 0
M  V30 END ATOM
M  V30 BEGIN BOND
M  V30 1 1 1 2
M  V30 2 2 2 3
M  V30 3 1 3 4
M  V30 4 2 4 5
M  V30 5 1 5 6
M  V30 6 2 6 7
M  V30 7 1 6 8
M  V30 8 1 5 9
M  V30 9 1 9 10
M  V30 10 2 10 11
M  V30 11 1 10 12
M  V30 12 2 12 13
M  V30 13 1 13 14
M  V30 14 2 14 15
M  V30 15 1 15 16
M  V30 16 2 16 17
M  V30 17 1 16 18
M  V30 18 2 18 19
M  V30 19 1 18 20
M  V30 20 1 20 21
M  V30 21 2 21 22
M  V30 22 1 22 23
M  V30 23 2 23 24
M  V30 24 1 24 25
M  V30 25 2 25 26
M  V30 26 1 26 27
M  V30 27 1 24 28
M  V30 28 1 7 2
M  V30 29 1 17 12
M  V30 30 1 26 21
M  V30 31 1 1 29
M  V30 32 1 1 30
M  V30 33 1 3 31
M  V30 34 1 4 32
M  V30 35 1 7 33
M  V30 36 1 9 34
M  V30 37 1 13 35
M  V30 38 1 14 36
M  V30 39 1 15 37
M  V30 40 1 17 38
M  V30 41 1 20 39
M  V30 42 1 22 40
M  V30 43 1 23 41
M  V30 44 1 25 42
M  V30 45 1 28 43
M  V30 46 1 28 44
M  V30 END BOND
M  V30 END CTAB
M  END
