
     RDKit          3D

  0  0  0  0  0  0  0  0  0  0999 V3000
M  V30 BEGIN CTAB
M  V30 COUNTS 73 78 0 0 0
M  V30 BEGIN ATOM
M  V30 1 N -4.80452 -4.19602 0.647892 0
M  V30 2 C -3.99542 -3.63399 1.66452 0
M  V30 3 N -4.29427 -3.88665 2.95621 0
M  V30 4 C -3.55954 -3.37838 3.96272 0
M  V30 5 N -3.8314 -3.61282 5.31796 0
M  V30 6 C -2.47398 -2.57853 3.6368 0
M  V30 7 C -2.1697 -2.32155 2.32323 0
M  V30 8 N -2.94851 -2.86265 1.34073 0
M  V30 9 N -1.08662 -1.53035 2.25484 0
M  V30 10 C -0.709896 -1.28955 3.51645 0
M  V30 11 N -1.54455 -1.91999 4.33997 0
M  V30 12 C -0.42928 -1.02511 1.04079 0 CFG=2
M  V30 13 O 0.932747 -0.956571 1.3031 0
M  V30 14 C 1.41886 0.146123 0.624672 0 CFG=1
M  V30 15 C 0.320695 1.14329 0.59613 0 CFG=2
M  V30 16 C -0.92575 0.323733 0.752473 0 CFG=2
M  V30 17 C -1.65551 0.930716 1.97976 0
M  V30 18 O -1.86711 0.457617 -0.261833 0
M  V30 19 C -1.74455 0.11338 -1.57427 0
M  V30 20 O -0.659171 -0.385237 -1.90644 0
M  V30 21 C -2.78124 0.292827 -2.57233 0
M  V30 22 C -3.99845 0.845341 -2.22458 0
M  V30 23 C -4.95289 1.00365 -3.17695 0
M  V30 24 C -4.77204 0.638756 -4.48904 0
M  V30 25 C -3.54731 0.0848807 -4.82949 0
M  V30 26 C -2.58304 -0.0749595 -3.86622 0
M  V30 27 O 0.311512 1.94784 -0.562991 0
M  V30 28 C 0.456384 3.32756 -0.547794 0
M  V30 29 O 0.604976 3.91397 0.55236 0
M  V30 30 C 0.444313 4.13309 -1.75788 0
M  V30 31 C 0.285601 3.58006 -3.00931 0
M  V30 32 C 0.277963 4.36644 -4.15849 0
M  V30 33 C 0.430193 5.73635 -4.0836 0
M  V30 34 C 0.589169 6.29239 -2.83352 0
M  V30 35 C 0.594697 5.50036 -1.70249 0
M  V30 36 C 2.62148 0.760806 1.34256 0
M  V30 37 O 3.70018 -0.0935753 1.49119 0
M  V30 38 C 4.44977 -0.707056 0.526817 0
M  V30 39 O 4.14254 -0.482395 -0.669395 0
M  V30 40 C 5.56845 -1.59372 0.797096 0
M  V30 41 C 5.98181 -1.90804 2.07336 0
M  V30 42 C 7.06384 -2.76468 2.23051 0
M  V30 43 C 7.73001 -3.3045 1.15654 0
M  V30 44 C 7.31977 -2.99266 -0.124311 0
M  V30 45 C 6.24496 -2.14159 -0.266681 0
M  V30 46 H -5.43863 -5.0136 0.851731 0
M  V30 47 H -4.82368 -3.84652 -0.337805 0
M  V30 48 H -4.16925 -4.57426 5.59823 0
M  V30 49 H -3.73183 -2.9234 6.08285 0
M  V30 50 H 0.137964 -0.680221 3.83426 0
M  V30 51 H -0.661908 -1.79618 0.267694 0
M  V30 52 H 1.76453 -0.0664879 -0.388852 0
M  V30 53 H 0.459087 1.78513 1.51976 0
M  V30 54 H -2.4799 0.315325 2.3222 0
M  V30 55 H -0.944332 1.24798 2.73841 0
M  V30 56 H -2.13419 1.88688 1.60867 0
M  V30 57 H -4.12001 1.1274 -1.17854 0
M  V30 58 H -5.91327 1.43514 -2.92068 0
M  V30 59 H -5.55068 0.778905 -5.21773 0
M  V30 60 H -3.41717 -0.195132 -5.85249 0
M  V30 61 H -1.62851 -0.519223 -4.18545 0
M  V30 62 H 0.164224 2.52053 -3.11188 0
M  V30 63 H 0.153288 3.92903 -5.1336 0
M  V30 64 H 0.421878 6.33421 -4.99275 0
M  V30 65 H 0.708446 7.36093 -2.76967 0
M  V30 66 H 0.721007 5.93391 -0.702201 0
M  V30 67 H 2.29543 1.144 2.32795 0
M  V30 68 H 2.86784 1.68196 0.739073 0
M  V30 69 H 5.44402 -1.4729 2.90197 0
M  V30 70 H 7.37941 -3.00447 3.23306 0
M  V30 71 H 8.57205 -3.97143 1.25261 0
M  V30 72 H 7.81813 -3.3971 -0.993308 0
M  V30 73 H 5.95088 -1.919 -1.30459 0
M  V30 END ATOM
M  V30 BEGIN BOND
M  V30 1 1 1 2
M  V30 2 2 2 3
M  V30 3 1 3 4
M  V30 4 1 4 5
M  V30 5 2 4 6
M  V30 6 1 6 7
M  V30 7 2 7 8
M  V30 8 1 7 9
M  V30 9 1 9 10
M  V30 10 2 10 11
M  V30 11 1 9 12
M  V30 12 1 12 13
M  V30 13 1 13 14
M  V30 14 1 14 15
M  V30 15 1 15 16
M  V30 16 1 16 17
M  V30 17 1 16 18 CFG=3
M  V30 18 1 18 19
M  V30 19 2 19 20
M  V30 20 1 19 21
M  V30 21 2 21 22
M  V30 22 1 22 23
M  V30 23 2 23 24
M  V30 24 1 24 25
M  V30 25 2 25 26
M  V30 26 1 15 27
M  V30 27 1 27 28
M  V30 28 2 28 29
M  V30 29 1 28 30
M  V30 30 2 30 31
M  V30 31 1 31 32
M  V30 32 2 32 33
M  V30 33 1 33 34
M  V30 34 2 34 35
M  V30 35 1 14 36
M  V30 36 1 36 37
M  V30 37 1 37 38
M  V30 38 2 38 39
M  V30 39 1 38 40
M  V30 40 2 40 41
M  V30 41 1 41 42
M  V30 42 2 42 43
M  V30 43 1 43 44
M  V30 44 2 44 45
M  V30 45 1 8 2
M  V30 46 1 16 12
M  V30 47 1 26 21
M  V30 48 1 35 30
M  V30 49 1 45 40
M  V30 50 1 11 6
M  V30 51 1 1 46
M  V30 52 1 1 47
M  V30 53 1 5 48
M  V30 54 1 5 49
M  V30 55 1 10 50
M  V30 56 1 12 51 CFG=3
M  V30 57 1 14 52 CFG=3
M  V30 58 1 15 53 CFG=1
M  V30 59 1 17 54
M  V30 60 1 17 55
M  V30 61 1 17 56
M  V30 62 1 22 57
M  V30 63 1 23 58
M  V30 64 1 24 59
M  V30 65 1 25 60
M  V30 66 1 26 61
M  V30 67 1 31 62
M  V30 68 1 32 63
M  V30 69 1 33 64
M  V30 70 1 34 65
M  V30 71 1 35 66
M  V30 72 1 36 67
M  V30 73 1 36 68
M  V30 74 1 41 69
M  V30 75 1 42 70
M  V30 76 1 43 71
M  V30 77 1 44 72
M  V30 78 1 45 73
M  V30 END BOND
M  V30 END CTAB
M  END
