
     RDKit          3D

  0  0  0  0  0  0  0  0  0  0999 V3000
M  V30 BEGIN CTAB
M  V30 COUNTS 27 28 0 0 0
M  V30 BEGIN ATOM
M  V30 1 N 3.82593 -1.25966 -1.48282 0
M  V30 2 C 2.77953 -0.672266 -0.730743 0
M  V30 3 N 1.49169 -0.751442 -1.09467 0
M  V30 4 C 0.546963 -0.182702 -0.35394 0
M  V30 5 N 0.897077 0.485273 0.784249 0
M  V30 6 C 2.18649 0.572063 1.1607 0
M  V30 7 N 3.115 -0.0148558 0.387773 0
M  V30 8 N 2.52678 1.27317 2.35037 0
M  V30 9 C -0.916355 -0.23555 -0.707755 0
M  V30 10 C -1.38964 1.16826 -0.842016 0
M  V30 11 C -2.5998 1.50817 -0.044443 0
M  V30 12 S -3.87688 0.214347 -0.294857 0
M  V30 13 C -3.02846 -1.36674 0.0210628 0
M  V30 14 C -1.59294 -1.01598 0.375411 0
M  V30 15 H 4.31739 -2.12427 -1.17565 0
M  V30 16 H 4.118 -0.812885 -2.37782 0
M  V30 17 H 3.47109 1.73781 2.47878 0
M  V30 18 H 1.87057 1.36809 3.15625 0
M  V30 19 H -0.981153 -0.816407 -1.65352 0
M  V30 20 H -0.596373 1.92977 -0.586305 0
M  V30 21 H -1.64166 1.33848 -1.92478 0
M  V30 22 H -3.02189 2.45646 -0.407608 0
M  V30 23 H -2.31761 1.5511 1.03847 0
M  V30 24 H -3.09221 -2.04882 -0.826091 0
M  V30 25 H -3.49397 -1.79818 0.939507 0
M  V30 26 H -1.05474 -1.98931 0.46855 0
M  V30 27 H -1.54282 -0.513919 1.34189 0
M  V30 END ATOM
M  V30 BEGIN BOND
M  V30 1 1 1 2
M  V30 2 2 2 3
M  V30 3 1 3 4
M  V30 4 2 4 5
M  V30 5 1 5 6
M  V30 6 2 6 7
M  V30 7 1 6 8
M  V30 8 1 4 9
M  V30 9 1 9 10
M  V30 10 1 10 11
M  V30 11 1 11 12
M  V30 12 1 12 13
M  V30 13 1 13 14
M  V30 14 1 7 2
M  V30 15 1 14 9
M  V30 16 1 1 15
M  V30 17 1 1 16
M  V30 18 1 8 17
M  V30 19 1 8 18
M  V30 20 1 9 19
M  V30 21 1 10 20
M  V30 22 1 10 21
M  V30 23 1 11 22
M  V30 24 1 11 23
M  V30 25 1 13 24
M  V30 26 1 13 25
M  V30 27 1 14 26
M  V30 28 1 14 27
M  V30 END BOND
M  V30 END CTAB
M  END
