
     RDKit          3D

  0  0  0  0  0  0  0  0  0  0999 V3000
M  V30 BEGIN CTAB
M  V30 COUNTS 42 44 0 0 0
M  V30 BEGIN ATOM
M  V30 1 N 6.37295 0.0753095 2.2493 0
M  V30 2 C 5.1621 0.265915 1.52914 0
M  V30 3 N 3.94956 0.182056 2.10073 0
M  V30 4 C 2.80518 0.362235 1.42 0
M  V30 5 C 1.52275 0.259809 2.11108 0
M  V30 6 O 0.386812 0.321383 1.31874 0
M  V30 7 C -0.00559452 -0.49853 0.304795 0
M  V30 8 O 0.77416 -1.45787 0.0446643 0
M  V30 9 C -1.23776 -0.37735 -0.511255 0
M  V30 10 C -1.21511 0.918862 -1.31473 0
M  V30 11 C -2.18031 0.631914 -2.463 0
M  V30 12 C -1.75358 -0.767169 -2.86007 0
M  V30 13 C -1.15043 -1.38449 -1.63902 0
M  V30 14 C -2.48612 -0.498419 0.245554 0
M  V30 15 C -2.66456 0.18055 1.42111 0
M  V30 16 C -3.84293 0.0687004 2.14767 0
M  V30 17 C -4.87756 -0.728678 1.71471 0
M  V30 18 C -4.72485 -1.42309 0.534707 0
M  V30 19 C -3.5503 -1.30041 -0.172199 0
M  V30 20 N 2.91625 0.637277 0.109664 0
M  V30 21 C 4.09307 0.737135 -0.531983 0
M  V30 22 N 5.20388 0.546733 0.201739 0
M  V30 23 N 4.18809 1.03132 -1.93008 0
M  V30 24 H 7.17426 -0.480905 1.87911 0
M  V30 25 H 6.49794 0.497937 3.19447 0
M  V30 26 H 1.41909 1.08337 2.88191 0
M  V30 27 H 1.554 -0.671878 2.7529 0
M  V30 28 H -0.219286 1.06141 -1.73795 0
M  V30 29 H -1.49524 1.79166 -0.729615 0
M  V30 30 H -3.21303 0.663779 -2.06855 0
M  V30 31 H -2.04271 1.34261 -3.2968 0
M  V30 32 H -2.60435 -1.32589 -3.28345 0
M  V30 33 H -1.02746 -0.636837 -3.70177 0
M  V30 34 H -1.50367 -2.38132 -1.38281 0
M  V30 35 H -0.0521473 -1.52143 -1.87432 0
M  V30 36 H -1.91968 0.825943 1.83389 0
M  V30 37 H -3.9641 0.610956 3.07054 0
M  V30 38 H -5.81425 -0.847709 2.24614 0
M  V30 39 H -5.50577 -2.05992 0.15416 0
M  V30 40 H -3.43719 -1.84563 -1.09436 0
M  V30 41 H 3.5682 0.589938 -2.61816 0
M  V30 42 H 4.8997 1.70619 -2.25661 0
M  V30 END ATOM
M  V30 BEGIN BOND
M  V30 1 1 1 2
M  V30 2 2 2 3
M  V30 3 1 3 4
M  V30 4 1 4 5
M  V30 5 1 5 6
M  V30 6 1 6 7
M  V30 7 2 7 8
M  V30 8 1 7 9
M  V30 9 1 9 10
M  V30 10 1 10 11
M  V30 11 1 11 12
M  V30 12 1 12 13
M  V30 13 1 9 14
M  V30 14 2 14 15
M  V30 15 1 15 16
M  V30 16 2 16 17
M  V30 17 1 17 18
M  V30 18 2 18 19
M  V30 19 2 4 20
M  V30 20 1 20 21
M  V30 21 2 21 22
M  V30 22 1 21 23
M  V30 23 1 22 2
M  V30 24 1 13 9
M  V30 25 1 19 14
M  V30 26 1 1 24
M  V30 27 1 1 25
M  V30 28 1 5 26
M  V30 29 1 5 27
M  V30 30 1 10 28
M  V30 31 1 10 29
M  V30 32 1 11 30
M  V30 33 1 11 31
M  V30 34 1 12 32
M  V30 35 1 12 33
M  V30 36 1 13 34
M  V30 37 1 13 35
M  V30 38 1 15 36
M  V30 39 1 16 37
M  V30 40 1 17 38
M  V30 41 1 18 39
M  V30 42 1 19 40
M  V30 43 1 23 41
M  V30 44 1 23 42
M  V30 END BOND
M  V30 END CTAB
M  END
