
     RDKit          3D

  0  0  0  0  0  0  0  0  0  0999 V3000
M  V30 BEGIN CTAB
M  V30 COUNTS 26 27 0 0 0
M  V30 BEGIN ATOM
M  V30 1 C -0.0103045 -1.64776 1.00863 0
M  V30 2 C 0.388999 -0.422387 0.282104 0
M  V30 3 C 1.75265 -0.132012 0.159761 0
M  V30 4 N 2.73991 -1.05405 0.589014 0
M  V30 5 N 4.1192 -0.675518 0.506537 0
M  V30 6 N 2.11053 1.03532 -0.419676 0
M  V30 7 C 1.18593 1.89632 -0.868803 0
M  V30 8 N 1.6097 3.11429 -1.47001 0
M  V30 9 N -0.115808 1.58809 -0.739913 0
M  V30 10 C -0.566296 0.429611 -0.168119 0
M  V30 11 C -1.98903 0.157414 -0.182733 0
M  V30 12 C -2.75497 -0.942675 -0.0300979 0
M  V30 13 C -4.09427 -0.572447 -0.156276 0
M  V30 14 C -4.07556 0.775646 -0.387792 0
M  V30 15 O -2.85897 1.15928 -0.396667 0
M  V30 16 H -0.123969 -2.52073 0.364995 0
M  V30 17 H 0.810866 -1.94372 1.73991 0
M  V30 18 H -0.854333 -1.44794 1.71356 0
M  V30 19 H 2.49107 -1.99093 0.944876 0
M  V30 20 H 4.57082 -1.35863 -0.133906 0
M  V30 21 H 4.4618 -0.741453 1.49615 0
M  V30 22 H 1.8145 3.12264 -2.47531 0
M  V30 23 H 1.70372 3.95764 -0.894523 0
M  V30 24 H -2.40503 -1.9476 0.136904 0
M  V30 25 H -4.94455 -1.24872 -0.0798183 0
M  V30 26 H -4.96659 1.41031 -0.538803 0
M  V30 END ATOM
M  V30 BEGIN BOND
M  V30 1 1 1 2
M  V30 2 2 2 3
M  V30 3 1 3 4
M  V30 4 1 4 5
M  V30 5 1 3 6
M  V30 6 2 6 7
M  V30 7 1 7 8
M  V30 8 1 7 9
M  V30 9 2 9 10
M  V30 10 1 10 11
M  V30 11 2 11 12
M  V30 12 1 12 13
M  V30 13 2 13 14
M  V30 14 1 14 15
M  V30 15 1 10 2
M  V30 16 1 15 11
M  V30 17 1 1 16
M  V30 18 1 1 17
M  V30 19 1 1 18
M  V30 20 1 4 19
M  V30 21 1 5 20
M  V30 22 1 5 21
M  V30 23 1 8 22
M  V30 24 1 8 23
M  V30 25 1 12 24
M  V30 26 1 13 25
M  V30 27 1 14 26
M  V30 END BOND
M  V30 END CTAB
M  END
