
     RDKit          3D

  0  0  0  0  0  0  0  0  0  0999 V3000
M  V30 BEGIN CTAB
M  V30 COUNTS 30 31 0 0 0
M  V30 BEGIN ATOM
M  V30 1 N -3.74289 -1.87367 -1.04842 0
M  V30 2 C -2.93892 -0.897652 -0.388282 0
M  V30 3 C -1.56121 -0.917199 -0.494141 0
M  V30 4 C -0.747409 0.0187369 0.136119 0
M  V30 5 C -1.35235 0.999666 0.893556 0
M  V30 6 C -2.71565 1.01872 0.997972 0
M  V30 7 N -3.31454 2.0398 1.78429 0
M  V30 8 N -3.47687 0.0806237 0.362672 0
M  V30 9 N 0.667523 -0.0189084 0.0230355 0
M  V30 10 C 1.45443 1.06438 0.555478 0
M  V30 11 C 2.70364 1.17842 -0.298041 0
M  V30 12 C 3.51462 -0.0686382 -0.0724267 0
M  V30 13 C 2.74445 -1.32449 -0.33174 0
M  V30 14 C 1.29149 -1.12369 -0.605501 0
M  V30 15 H -3.87514 -1.91532 -2.0772 0
M  V30 16 H -4.22691 -2.58727 -0.470475 0
M  V30 17 H -1.12534 -1.70632 -1.1024 0
M  V30 18 H -0.793306 1.77175 1.42402 0
M  V30 19 H -4.24392 2.39852 1.49187 0
M  V30 20 H -2.88093 2.44999 2.63341 0
M  V30 21 H 0.95113 2.06083 0.466943 0
M  V30 22 H 1.70404 0.929452 1.61569 0
M  V30 23 H 2.42544 1.34887 -1.33374 0
M  V30 24 H 3.28685 2.03211 0.110334 0
M  V30 25 H 3.91095 -0.0232863 0.970973 0
M  V30 26 H 4.40574 -0.00764023 -0.730879 0
M  V30 27 H 2.83548 -1.9776 0.564338 0
M  V30 28 H 3.23229 -1.87399 -1.16294 0
M  V30 29 H 1.16375 -1.03393 -1.70306 0
M  V30 30 H 0.703544 -2.04225 -0.311554 0
M  V30 END ATOM
M  V30 BEGIN BOND
M  V30 1 1 1 2
M  V30 2 2 2 3
M  V30 3 1 3 4
M  V30 4 2 4 5
M  V30 5 1 5 6
M  V30 6 1 6 7
M  V30 7 2 6 8
M  V30 8 1 4 9
M  V30 9 1 9 10
M  V30 10 1 10 11
M  V30 11 1 11 12
M  V30 12 1 12 13
M  V30 13 1 13 14
M  V30 14 1 8 2
M  V30 15 1 14 9
M  V30 16 1 1 15
M  V30 17 1 1 16
M  V30 18 1 3 17
M  V30 19 1 5 18
M  V30 20 1 7 19
M  V30 21 1 7 20
M  V30 22 1 10 21
M  V30 23 1 10 22
M  V30 24 1 11 23
M  V30 25 1 11 24
M  V30 26 1 12 25
M  V30 27 1 12 26
M  V30 28 1 13 27
M  V30 29 1 13 28
M  V30 30 1 14 29
M  V30 31 1 14 30
M  V30 END BOND
M  V30 END CTAB
M  END
