
     RDKit          3D

  0  0  0  0  0  0  0  0  0  0999 V3000
M  V30 BEGIN CTAB
M  V30 COUNTS 44 46 0 0 0
M  V30 BEGIN ATOM
M  V30 1 O 0.72326 -1.87418 0.483893 0
M  V30 2 C 0.552412 -1.322 -0.640831 0
M  V30 3 C 1.43656 -1.67444 -1.74688 0
M  V30 4 S 2.34857 -0.211815 -2.37439 0
M  V30 5 C 3.48284 0.392113 -1.13576 0
M  V30 6 N 4.74925 -0.0469245 -1.03825 0
M  V30 7 C 5.56386 0.441713 -0.08467 0
M  V30 8 N 6.91286 0.0196455 0.0720266 0
M  V30 9 N 5.11775 1.37437 0.779805 0
M  V30 10 C 3.85612 1.83013 0.703885 0
M  V30 11 N 3.0643 1.32375 -0.259237 0
M  V30 12 N 3.3579 2.80431 1.59239 0
M  V30 13 C 0.707008 -2.26826 -2.92895 0
M  V30 14 N -0.510764 -0.38776 -0.721685 0
M  V30 15 C -1.36692 -0.0564182 0.37919 0
M  V30 16 C -1.32611 1.39523 0.757387 0
M  V30 17 C -2.05865 1.5732 2.06529 0
M  V30 18 C -3.08402 0.532883 2.3569 0
M  V30 19 C -3.67265 -0.0922079 1.13556 0
M  V30 20 C -2.78438 -0.393687 0.127442 0
M  V30 21 C -3.21173 -0.974786 -1.04401 0
M  V30 22 C -4.57276 -1.25337 -1.18876 0
M  V30 23 C -5.45783 -0.947596 -0.172148 0
M  V30 24 C -5.02455 -0.364839 1.00075 0
M  V30 25 H 2.20519 -2.37963 -1.39947 0
M  V30 26 H 7.65543 0.749458 -0.00531896 0
M  V30 27 H 7.18414 -0.96629 0.25665 0
M  V30 28 H 2.35962 2.8061 1.84501 0
M  V30 29 H 3.99422 3.51151 1.98606 0
M  V30 30 H 0.382462 -1.52264 -3.65618 0
M  V30 31 H 1.43383 -2.94225 -3.44658 0
M  V30 32 H -0.122352 -2.94788 -2.5928 0
M  V30 33 H -0.669602 0.079031 -1.64137 0
M  V30 34 H -1.08421 -0.627237 1.31331 0
M  V30 35 H -1.88982 1.94892 -0.0437422 0
M  V30 36 H -0.312351 1.82692 0.776324 0
M  V30 37 H -2.50549 2.61072 2.02525 0
M  V30 38 H -1.26299 1.55968 2.86469 0
M  V30 39 H -3.85864 0.96021 3.02946 0
M  V30 40 H -2.59433 -0.27914 2.96808 0
M  V30 41 H -2.54913 -1.22678 -1.85708 0
M  V30 42 H -4.96518 -1.70656 -2.08165 0
M  V30 43 H -6.52727 -1.1625 -0.273922 0
M  V30 44 H -5.67587 -0.11071 1.81435 0
M  V30 END ATOM
M  V30 BEGIN BOND
M  V30 1 2 1 2
M  V30 2 1 2 3
M  V30 3 1 3 4
M  V30 4 1 4 5
M  V30 5 2 5 6
M  V30 6 1 6 7
M  V30 7 1 7 8
M  V30 8 2 7 9
M  V30 9 1 9 10
M  V30 10 2 10 11
M  V30 11 1 10 12
M  V30 12 1 3 13
M  V30 13 1 2 14
M  V30 14 1 14 15
M  V30 15 1 15 16
M  V30 16 1 16 17
M  V30 17 1 17 18
M  V30 18 1 18 19
M  V30 19 2 19 20
M  V30 20 1 20 21
M  V30 21 2 21 22
M  V30 22 1 22 23
M  V30 23 2 23 24
M  V30 24 1 11 5
M  V30 25 1 20 15
M  V30 26 1 24 19
M  V30 27 1 3 25
M  V30 28 1 8 26
M  V30 29 1 8 27
M  V30 30 1 12 28
M  V30 31 1 12 29
M  V30 32 1 13 30
M  V30 33 1 13 31
M  V30 34 1 13 32
M  V30 35 1 14 33
M  V30 36 1 15 34
M  V30 37 1 16 35
M  V30 38 1 16 36
M  V30 39 1 17 37
M  V30 40 1 17 38
M  V30 41 1 18 39
M  V30 42 1 18 40
M  V30 43 1 21 41
M  V30 44 1 22 42
M  V30 45 1 23 43
M  V30 46 1 24 44
M  V30 END BOND
M  V30 END CTAB
M  END
