
     RDKit          3D

  0  0  0  0  0  0  0  0  0  0999 V3000
M  V30 BEGIN CTAB
M  V30 COUNTS 31 31 0 0 0
M  V30 BEGIN ATOM
M  V30 1 N 4.29381 1.07572 -0.488883 0
M  V30 2 N 3.17069 0.944763 0.315874 0
M  V30 3 C 2.67548 -0.200564 0.658127 0
M  V30 4 N 1.52426 -0.23044 1.48375 0
M  V30 5 C 0.550809 0.847942 1.50417 0
M  V30 6 C -0.221268 0.944221 0.210876 0
M  V30 7 C -0.998461 -0.320169 -0.093729 0
M  V30 8 O -0.199975 -1.43678 -0.2131 0
M  V30 9 C -2.07972 -0.546533 0.928258 0
M  V30 10 C -3.39809 -0.357834 0.218338 0
M  V30 11 C -3.01477 0.588932 -0.899223 0
M  V30 12 C -1.73778 -0.0475517 -1.4088 0
M  V30 13 N 3.3177 -1.37603 0.185048 0
M  V30 14 H 4.17103 1.13881 -1.51792 0
M  V30 15 H 5.23201 1.10742 -0.0403397 0
M  V30 16 H 1.3418 -1.04245 2.11105 0
M  V30 17 H -0.0988857 0.781999 2.38766 0
M  V30 18 H 1.12185 1.80777 1.61805 0
M  V30 19 H 0.503843 1.16684 -0.595129 0
M  V30 20 H -0.940736 1.77262 0.334147 0
M  V30 21 H -0.607127 -2.18524 0.320661 0
M  V30 22 H -2.02783 0.192687 1.75403 0
M  V30 23 H -2.00362 -1.54021 1.41616 0
M  V30 24 H -4.18908 0.0705144 0.863954 0
M  V30 25 H -3.74095 -1.30309 -0.289044 0
M  V30 26 H -3.79296 0.615709 -1.69405 0
M  V30 27 H -2.78863 1.60828 -0.510598 0
M  V30 28 H -1.99757 -1.00965 -1.89735 0
M  V30 29 H -1.18421 0.622157 -2.06974 0
M  V30 30 H 2.76654 -2.22716 -0.104847 0
M  V30 31 H 4.35183 -1.46271 0.0993847 0
M  V30 END ATOM
M  V30 BEGIN BOND
M  V30 1 1 1 2
M  V30 2 2 2 3 CFG=2
M  V30 3 1 3 4
M  V30 4 1 4 5
M  V30 5 1 5 6
M  V30 6 1 6 7
M  V30 7 1 7 8
M  V30 8 1 7 9
M  V30 9 1 9 10
M  V30 10 1 10 11
M  V30 11 1 11 12
M  V30 12 1 3 13
M  V30 13 1 12 7
M  V30 14 1 1 14
M  V30 15 1 1 15
M  V30 16 1 4 16
M  V30 17 1 5 17
M  V30 18 1 5 18
M  V30 19 1 6 19
M  V30 20 1 6 20
M  V30 21 1 8 21
M  V30 22 1 9 22
M  V30 23 1 9 23
M  V30 24 1 10 24
M  V30 25 1 10 25
M  V30 26 1 11 26
M  V30 27 1 11 27
M  V30 28 1 12 28
M  V30 29 1 12 29
M  V30 30 1 13 30
M  V30 31 1 13 31
M  V30 END BOND
M  V30 END CTAB
M  END
