
     RDKit          3D

  0  0  0  0  0  0  0  0  0  0999 V3000
M  V30 BEGIN CTAB
M  V30 COUNTS 50 52 0 0 0
M  V30 BEGIN ATOM
M  V30 1 C -4.51953 -1.09254 -1.85455 0
M  V30 2 C -4.11358 -0.842046 -0.404876 0
M  V30 3 C -3.31937 -2.06558 0.103936 0
M  V30 4 N -5.27551 -0.755708 0.404074 0
M  V30 5 C -5.59859 0.204552 1.16032 0
M  V30 6 N -6.79432 0.188076 1.93303 0
M  V30 7 N -4.73559 1.35212 1.24689 0
M  V30 8 C -3.668 1.38115 0.56489 0
M  V30 9 N -2.81318 2.52686 0.65583 0
M  V30 10 N -3.28749 0.322321 -0.285434 0
M  V30 11 C -2.0503 0.446052 -1.02607 0
M  V30 12 C -2.04393 1.01541 -2.27885 0
M  V30 13 C -0.858367 1.14309 -3.00837 0
M  V30 14 C 0.338512 0.700781 -2.49038 0
M  V30 15 Cl 1.84071 0.850788 -3.41623 0
M  V30 16 C 0.33523 0.132314 -1.23988 0
M  V30 17 C 1.62866 -0.339325 -0.668219 0
M  V30 18 C 2.44495 0.813626 -0.144605 0
M  V30 19 C 3.73944 0.364625 0.429176 0
M  V30 20 C 4.85692 0.27784 -0.376231 0
M  V30 21 C 6.09139 -0.129132 0.0801721 0
M  V30 22 C 6.22423 -0.470306 1.41604 0
M  V30 23 C 5.13581 -0.395644 2.24317 0
M  V30 24 C 3.89586 0.0195044 1.7572 0
M  V30 25 S 7.80157 -0.983651 1.97194 0
M  V30 26 F 7.99985 -2.63595 1.82672 0
M  V30 27 O 7.96951 -0.53818 3.41201 0
M  V30 28 O 8.86679 -0.318641 1.1268 0
M  V30 29 C -0.851777 0.00828883 -0.518247 0
M  V30 30 H -5.28736 -1.88949 -1.85516 0
M  V30 31 H -4.87025 -0.18477 -2.34435 0
M  V30 32 H -3.60007 -1.44557 -2.38071 0
M  V30 33 H -2.40233 -2.20966 -0.484532 0
M  V30 34 H -3.14441 -1.93452 1.18981 0
M  V30 35 H -3.97678 -2.94652 -0.104465 0
M  V30 36 H -7.66083 -0.320401 1.64041 0
M  V30 37 H -6.81597 0.710533 2.84454 0
M  V30 38 H -3.02446 3.32165 0.0140838 0
M  V30 39 H -2.02056 2.55553 1.33397 0
M  V30 40 H -2.98057 1.3634 -2.68834 0
M  V30 41 H -0.854874 1.58997 -3.99113 0
M  V30 42 H 1.37113 -0.969468 0.216586 0
M  V30 43 H 2.18042 -0.967888 -1.3769 0
M  V30 44 H 1.91338 1.33681 0.6834 0
M  V30 45 H 2.6912 1.49613 -0.978744 0
M  V30 46 H 4.75431 0.546397 -1.4299 0
M  V30 47 H 6.96789 -0.191471 -0.576036 0
M  V30 48 H 5.27973 -0.671771 3.28598 0
M  V30 49 H 3.06376 0.0688178 2.42318 0
M  V30 50 H -0.823239 -0.438415 0.452133 0
M  V30 END ATOM
M  V30 BEGIN BOND
M  V30 1 1 1 2
M  V30 2 1 2 3
M  V30 3 1 2 4
M  V30 4 2 4 5
M  V30 5 1 5 6
M  V30 6 1 5 7
M  V30 7 2 7 8
M  V30 8 1 8 9
M  V30 9 1 8 10
M  V30 10 1 10 11
M  V30 11 2 11 12
M  V30 12 1 12 13
M  V30 13 2 13 14
M  V30 14 1 14 15
M  V30 15 1 14 16
M  V30 16 1 16 17
M  V30 17 1 17 18
M  V30 18 1 18 19
M  V30 19 2 19 20
M  V30 20 1 20 21
M  V30 21 2 21 22
M  V30 22 1 22 23
M  V30 23 2 23 24
M  V30 24 1 22 25
M  V30 25 1 25 26
M  V30 26 2 25 27
M  V30 27 2 25 28
M  V30 28 2 16 29
M  V30 29 1 10 2
M  V30 30 1 29 11
M  V30 31 1 24 19
M  V30 32 1 1 30
M  V30 33 1 1 31
M  V30 34 1 1 32
M  V30 35 1 3 33
M  V30 36 1 3 34
M  V30 37 1 3 35
M  V30 38 1 6 36
M  V30 39 1 6 37
M  V30 40 1 9 38
M  V30 41 1 9 39
M  V30 42 1 12 40
M  V30 43 1 13 41
M  V30 44 1 17 42
M  V30 45 1 17 43
M  V30 46 1 18 44
M  V30 47 1 18 45
M  V30 48 1 20 46
M  V30 49 1 21 47
M  V30 50 1 23 48
M  V30 51 1 24 49
M  V30 52 1 29 50
M  V30 END BOND
M  V30 END CTAB
M  END
