
     RDKit          3D

  0  0  0  0  0  0  0  0  0  0999 V3000
M  V30 BEGIN CTAB
M  V30 COUNTS 28 29 0 0 0
M  V30 BEGIN ATOM
M  V30 1 C 4.33051 -0.0768614 1.3395 0
M  V30 2 C 3.94399 0.232 -0.0915274 0
M  V30 3 O 2.54098 0.0661189 -0.239624 0
M  V30 4 C 1.87837 0.272518 -1.42615 0
M  V30 5 O 2.51507 0.622992 -2.43814 0
M  V30 6 C 0.448255 0.0887828 -1.51961 0
M  V30 7 C -0.392236 0.243393 -2.6043 0
M  V30 8 N -1.6435 -0.0406529 -2.20255 0
M  V30 9 N -1.66091 -0.369356 -0.923425 0
M  V30 10 C -0.395831 -0.297714 -0.484353 0
M  V30 11 N 0.041218 -0.572015 0.840058 0
M  V30 12 C -2.76967 -0.736551 -0.114391 0
M  V30 13 N -3.25046 -1.9673 0.137966 0
M  V30 14 N -4.29804 -1.89835 0.940604 0
M  V30 15 C -4.51249 -0.607926 1.22221 0
M  V30 16 N -3.5703 0.0928353 0.570422 0
M  V30 17 N -3.46865 1.4799 0.620633 0
M  V30 18 H 3.46966 -0.486488 1.88863 0
M  V30 19 H 5.15158 -0.826956 1.38825 0
M  V30 20 H 4.6994 0.852214 1.85106 0
M  V30 21 H 4.21779 1.28649 -0.315811 0
M  V30 22 H 4.52357 -0.424992 -0.755869 0
M  V30 23 H -0.100534 0.537415 -3.59131 0
M  V30 24 H 0.0528256 0.174992 1.58937 0
M  V30 25 H 0.374139 -1.5156 1.1534 0
M  V30 26 H -5.29347 -0.190444 1.85424 0
M  V30 27 H -2.84739 1.9342 1.32402 0
M  V30 28 H -3.98387 2.12735 -0.0133049 0
M  V30 END ATOM
M  V30 BEGIN BOND
M  V30 1 1 1 2
M  V30 2 1 2 3
M  V30 3 1 3 4
M  V30 4 2 4 5
M  V30 5 1 4 6
M  V30 6 1 6 7
M  V30 7 2 7 8
M  V30 8 1 8 9
M  V30 9 1 9 10
M  V30 10 1 10 11
M  V30 11 1 9 12
M  V30 12 2 12 13
M  V30 13 1 13 14
M  V30 14 2 14 15
M  V30 15 1 15 16
M  V30 16 1 16 17
M  V30 17 2 10 6
M  V30 18 1 16 12
M  V30 19 1 1 18
M  V30 20 1 1 19
M  V30 21 1 1 20
M  V30 22 1 2 21
M  V30 23 1 2 22
M  V30 24 1 7 23
M  V30 25 1 11 24
M  V30 26 1 11 25
M  V30 27 1 15 26
M  V30 28 1 17 27
M  V30 29 1 17 28
M  V30 END BOND
M  V30 END CTAB
M  END
