
     RDKit          3D

  0  0  0  0  0  0  0  0  0  0999 V3000
M  V30 BEGIN CTAB
M  V30 COUNTS 126 128 0 0 0
M  V30 BEGIN ATOM
M  V30 1 C 3.9921 5.46788 -0.838769 0
M  V30 2 N 3.24003 4.39965 -0.164867 0
M  V30 3 C 3.91681 3.12483 -0.0326447 0
M  V30 4 C 5.19751 3.3121 0.737074 0
M  V30 5 O 5.56476 4.46184 1.13527 0
M  V30 6 N 6.04694 2.22172 1.05105 0
M  V30 7 C 6.74124 2.21088 2.32202 0
M  V30 8 C 6.23611 1.11611 0.131697 0 CFG=2
M  V30 9 C 6.43564 -0.183821 0.818515 0
M  V30 10 O 7.39762 -0.259245 1.63884 0
M  V30 11 O 5.60007 -1.2568 0.563853 0
M  V30 12 C 4.20776 -1.23458 0.547684 0
M  V30 13 C 3.63044 -2.4589 -0.17766 0 CFG=1
M  V30 14 N 4.76046 -3.28657 -0.534981 0
M  V30 15 C 2.68438 -3.121 0.745246 0
M  V30 16 O 2.04087 -2.37364 1.52907 0
M  V30 17 N 2.4369 -4.52344 0.82774 0
M  V30 18 N 2.35587 -5.12103 2.0786 0
M  V30 19 C 2.2244 -6.37285 2.27559 0
M  V30 20 C 2.14624 -7.30534 1.10928 0
M  V30 21 C 1.3856 -6.54489 0.00466273 0 CFG=2
M  V30 22 O 1.18575 -7.3851 -1.05924 0
M  V30 23 C 2.27159 -5.3675 -0.333206 0 CFG=1
M  V30 24 C 1.77274 -4.64425 -1.53474 0
M  V30 25 O 2.39652 -4.87484 -2.63311 0
M  V30 26 N 0.699496 -3.75056 -1.56448 0
M  V30 27 C -0.627134 -3.93276 -1.0489 0
M  V30 28 C -1.59248 -3.29383 -1.97848 0
M  V30 29 O -1.22889 -3.11239 -3.16834 0
M  V30 30 N -2.8921 -2.87318 -1.62768 0
M  V30 31 C -4.00302 -2.97322 -2.58744 0
M  V30 32 C -3.24909 -2.32112 -0.33028 0
M  V30 33 C -4.34231 -3.15544 0.194528 0
M  V30 34 O -3.98295 -4.31044 0.630687 0
M  V30 35 N -5.71841 -2.79441 0.253807 0
M  V30 36 C -6.68832 -3.83128 0.0641371 0
M  V30 37 C -6.01884 -1.39401 0.511332 0 CFG=2
M  V30 38 C -5.49854 -0.983303 1.83828 0
M  V30 39 O -5.98916 -1.61207 2.84249 0
M  V30 40 O -4.56804 -0.0217822 2.05374 0
M  V30 41 C -4.55486 1.35011 1.95501 0
M  V30 42 C -3.73655 1.88673 0.765734 0 CFG=1
M  V30 43 N -4.68376 2.39145 -0.169469 0
M  V30 44 C -2.74749 2.83788 1.27089 0
M  V30 45 O -2.00811 2.39085 2.21906 0
M  V30 46 N -2.50212 4.1666 0.859073 0
M  V30 47 N -2.30573 5.10297 1.92006 0
M  V30 48 C -2.12958 6.34132 1.76185 0
M  V30 49 C -2.11502 6.92696 0.407341 0
M  V30 50 C -3.00751 6.09956 -0.462594 0 CFG=2
M  V30 51 O -4.27876 6.10866 0.104765 0
M  V30 52 C -2.43746 4.66864 -0.466893 0 CFG=1
M  V30 53 C -1.12331 4.72616 -1.11628 0
M  V30 54 O -0.991803 5.67083 -1.98279 0
M  V30 55 N 0.00813064 3.91467 -0.944351 0
M  V30 56 C 0.797787 3.7034 0.244809 0
M  V30 57 C 1.94454 4.68574 0.293788 0
M  V30 58 O 1.68056 5.81353 0.781101 0
M  V30 59 C -7.41343 -0.979419 0.221777 0
M  V30 60 C -8.49178 -1.63002 1.02065 0
M  V30 61 C -7.67656 -1.04171 -1.26945 0
M  V30 62 O -7.50803 0.399437 0.540514 0
M  V30 63 C 7.29228 1.34864 -0.894582 0
M  V30 64 C 8.66084 1.61517 -0.366769 0
M  V30 65 C 7.25278 0.186938 -1.87325 0
M  V30 66 O 6.93214 2.48254 -1.65865 0
M  V30 67 H 4.1433 6.29897 -0.0888424 0
M  V30 68 H 3.41978 5.92093 -1.6736 0
M  V30 69 H 4.94154 5.11825 -1.25323 0
M  V30 70 H 4.1128 2.7644 -1.06261 0
M  V30 71 H 3.23953 2.41167 0.469958 0
M  V30 72 H 7.83569 2.08341 2.23663 0
M  V30 73 H 6.60673 3.1882 2.85157 0
M  V30 74 H 6.29589 1.45295 3.02252 0
M  V30 75 H 5.25902 1.06236 -0.441167 0
M  V30 76 H 3.87113 -1.22892 1.62631 0
M  V30 77 H 3.84849 -0.291706 0.124697 0
M  V30 78 H 3.18304 -2.0659 -1.09522 0
M  V30 79 H 4.94348 -4.06299 0.116072 0
M  V30 80 H 5.57596 -2.74058 -0.824428 0
M  V30 81 H 2.16462 -6.82382 3.26587 0
M  V30 82 H 1.49509 -8.14786 1.4171 0
M  V30 83 H 3.11883 -7.63771 0.751452 0
M  V30 84 H 0.43917 -6.23007 0.520103 0
M  V30 85 H 0.495295 -8.02944 -0.83704 0
M  V30 86 H 3.27681 -5.79591 -0.530642 0
M  V30 87 H 0.869846 -2.80498 -2.02864 0
M  V30 88 H -0.659816 -3.51509 -0.0280811 0
M  V30 89 H -0.93654 -4.99601 -0.990665 0
M  V30 90 H -3.55677 -3.10065 -3.59335 0
M  V30 91 H -4.5627 -2.02902 -2.5824 0
M  V30 92 H -4.61214 -3.85602 -2.31208 0
M  V30 93 H -2.36379 -2.4677 0.355717 0
M  V30 94 H -3.42128 -1.25166 -0.355528 0
M  V30 95 H -6.2057 -4.8311 -0.155428 0
M  V30 96 H -7.30337 -4.05062 0.961486 0
M  V30 97 H -7.28862 -3.6354 -0.847705 0
M  V30 98 H -5.39015 -0.85592 -0.273468 0
M  V30 99 H -5.53991 1.86753 1.99679 0
M  V30 100 H -4.04777 1.72357 2.90559 0
M  V30 101 H -3.20345 1.03235 0.26178 0
M  V30 102 H -5.0688 3.31943 0.0252661 0
M  V30 103 H -4.49577 2.16549 -1.15474 0
M  V30 104 H -1.98829 6.9838 2.61307 0
M  V30 105 H -2.55573 7.96513 0.424974 0
M  V30 106 H -1.08553 7.05854 0.0395335 0
M  V30 107 H -2.98394 6.46242 -1.48778 0
M  V30 108 H -4.5792 7.05139 0.0847098 0
M  V30 109 H -3.12805 4.13258 -1.17341 0
M  V30 110 H 0.369282 3.36614 -1.79703 0
M  V30 111 H 0.283329 3.79222 1.19067 0
M  V30 112 H 1.23123 2.65998 0.210284 0
M  V30 113 H -8.2027 -2.09404 1.95775 0
M  V30 114 H -8.9581 -2.43353 0.378429 0
M  V30 115 H -9.3398 -0.942306 1.2496 0
M  V30 116 H -7.80811 -0.0403795 -1.72558 0
M  V30 117 H -6.78539 -1.47579 -1.75175 0
M  V30 118 H -8.60603 -1.60297 -1.50115 0
M  V30 119 H -7.40663 0.973425 -0.235958 0
M  V30 120 H 9.3329 1.69284 -1.26806 0
M  V30 121 H 8.6729 2.63683 0.0670662 0
M  V30 122 H 9.10019 0.838868 0.256605 0
M  V30 123 H 7.89893 0.45568 -2.75315 0
M  V30 124 H 7.53321 -0.767727 -1.41827 0
M  V30 125 H 6.21623 0.14538 -2.26916 0
M  V30 126 H 7.28405 2.37203 -2.58543 0
M  V30 END ATOM
M  V30 BEGIN BOND
M  V30 1 1 1 2
M  V30 2 1 2 3
M  V30 3 1 3 4
M  V30 4 2 4 5
M  V30 5 1 4 6
M  V30 6 1 6 7
M  V30 7 1 6 8
M  V30 8 1 8 9
M  V30 9 2 9 10
M  V30 10 1 9 11
M  V30 11 1 11 12
M  V30 12 1 12 13
M  V30 13 1 13 14
M  V30 14 1 13 15
M  V30 15 2 15 16
M  V30 16 1 15 17
M  V30 17 1 17 18
M  V30 18 2 18 19
M  V30 19 1 19 20
M  V30 20 1 20 21
M  V30 21 1 21 22
M  V30 22 1 21 23
M  V30 23 1 23 24
M  V30 24 2 24 25
M  V30 25 1 24 26
M  V30 26 1 26 27
M  V30 27 1 27 28
M  V30 28 2 28 29
M  V30 29 1 28 30
M  V30 30 1 30 31
M  V30 31 1 30 32
M  V30 32 1 32 33
M  V30 33 2 33 34
M  V30 34 1 33 35
M  V30 35 1 35 36
M  V30 36 1 35 37
M  V30 37 1 37 38
M  V30 38 2 38 39
M  V30 39 1 38 40
M  V30 40 1 40 41
M  V30 41 1 41 42
M  V30 42 1 42 43
M  V30 43 1 42 44
M  V30 44 2 44 45
M  V30 45 1 44 46
M  V30 46 1 46 47
M  V30 47 2 47 48
M  V30 48 1 48 49
M  V30 49 1 49 50
M  V30 50 1 50 51
M  V30 51 1 50 52
M  V30 52 1 52 53
M  V30 53 2 53 54
M  V30 54 1 53 55
M  V30 55 1 55 56
M  V30 56 1 56 57
M  V30 57 2 57 58
M  V30 58 1 37 59
M  V30 59 1 59 60
M  V30 60 1 59 61
M  V30 61 1 59 62
M  V30 62 1 8 63
M  V30 63 1 63 64
M  V30 64 1 63 65
M  V30 65 1 63 66
M  V30 66 1 57 2
M  V30 67 1 23 17
M  V30 68 1 52 46
M  V30 69 1 1 67
M  V30 70 1 1 68
M  V30 71 1 1 69
M  V30 72 1 3 70
M  V30 73 1 3 71
M  V30 74 1 7 72
M  V30 75 1 7 73
M  V30 76 1 7 74
M  V30 77 1 8 75 CFG=3
M  V30 78 1 12 76
M  V30 79 1 12 77
M  V30 80 1 13 78 CFG=3
M  V30 81 1 14 79
M  V30 82 1 14 80
M  V30 83 1 19 81
M  V30 84 1 20 82
M  V30 85 1 20 83
M  V30 86 1 21 84 CFG=1
M  V30 87 1 22 85
M  V30 88 1 23 86 CFG=3
M  V30 89 1 26 87
M  V30 90 1 27 88
M  V30 91 1 27 89
M  V30 92 1 31 90
M  V30 93 1 31 91
M  V30 94 1 31 92
M  V30 95 1 32 93
M  V30 96 1 32 94
M  V30 97 1 36 95
M  V30 98 1 36 96
M  V30 99 1 36 97
M  V30 100 1 37 98 CFG=3
M  V30 101 1 41 99
M  V30 102 1 41 100
M  V30 103 1 42 101 CFG=3
M  V30 104 1 43 102
M  V30 105 1 43 103
M  V30 106 1 48 104
M  V30 107 1 49 105
M  V30 108 1 49 106
M  V30 109 1 50 107 CFG=3
M  V30 110 1 51 108
M  V30 111 1 52 109 CFG=3
M  V30 112 1 55 110
M  V30 113 1 56 111
M  V30 114 1 56 112
M  V30 115 1 60 113
M  V30 116 1 60 114
M  V30 117 1 60 115
M  V30 118 1 61 116
M  V30 119 1 61 117
M  V30 120 1 61 118
M  V30 121 1 62 119
M  V30 122 1 64 120
M  V30 123 1 64 121
M  V30 124 1 64 122
M  V30 125 1 65 123
M  V30 126 1 65 124
M  V30 127 1 65 125
M  V30 128 1 66 126
M  V30 END BOND
M  V30 END CTAB
M  END
