
     RDKit          3D

  0  0  0  0  0  0  0  0  0  0999 V3000
M  V30 BEGIN CTAB
M  V30 COUNTS 30 31 0 0 0
M  V30 BEGIN ATOM
M  V30 1 C -2.15489 1.84838 -0.678778 0
M  V30 2 C -2.81026 0.518478 -0.472464 0
M  V30 3 C -2.19028 -0.284577 0.641369 0
M  V30 4 C -2.90587 -1.6085 0.785209 0
M  V30 5 C -1.63632 -2.21262 0.229344 0
M  V30 6 N -0.949192 -0.940383 0.332057 0
M  V30 7 C 0.410071 -0.577762 0.174492 0
M  V30 8 C 1.39814 -1.48822 -0.137275 0
M  V30 9 C 2.71905 -1.16583 -0.295438 0
M  V30 10 C 3.10399 0.147224 -0.136736 0
M  V30 11 C 2.11499 1.06766 0.176862 0
M  V30 12 N 0.826112 0.709771 0.323913 0
M  V30 13 N 2.53425 2.41306 0.33553 0
M  V30 14 N 4.46982 0.504924 -0.296196 0
M  V30 15 H -1.37457 1.8309 -1.46602 0
M  V30 16 H -1.78467 2.28949 0.269653 0
M  V30 17 H -2.94432 2.5534 -1.07196 0
M  V30 18 H -2.85452 -0.0160346 -1.4253 0
M  V30 19 H -3.87629 0.711982 -0.163387 0
M  V30 20 H -2.20756 0.282276 1.58882 0
M  V30 21 H -3.73998 -1.76655 0.0814901 0
M  V30 22 H -3.1546 -1.9164 1.8081 0
M  V30 23 H -1.69428 -2.57767 -0.811899 0
M  V30 24 H -1.18829 -2.93324 0.930828 0
M  V30 25 H 1.06655 -2.52342 -0.257884 0
M  V30 26 H 3.46747 -1.90754 -0.540347 0
M  V30 27 H 2.64434 3.03669 -0.485511 0
M  V30 28 H 2.72727 2.75426 1.29623 0
M  V30 29 H 5.087 -0.114395 -0.850082 0
M  V30 30 H 4.89684 1.36466 0.115383 0
M  V30 END ATOM
M  V30 BEGIN BOND
M  V30 1 1 1 2
M  V30 2 1 2 3
M  V30 3 1 3 4
M  V30 4 1 4 5
M  V30 5 1 5 6
M  V30 6 1 6 7
M  V30 7 2 7 8
M  V30 8 1 8 9
M  V30 9 2 9 10
M  V30 10 1 10 11
M  V30 11 2 11 12
M  V30 12 1 11 13
M  V30 13 1 10 14
M  V30 14 1 6 3
M  V30 15 1 12 7
M  V30 16 1 1 15
M  V30 17 1 1 16
M  V30 18 1 1 17
M  V30 19 1 2 18
M  V30 20 1 2 19
M  V30 21 1 3 20
M  V30 22 1 4 21
M  V30 23 1 4 22
M  V30 24 1 5 23
M  V30 25 1 5 24
M  V30 26 1 8 25
M  V30 27 1 9 26
M  V30 28 1 13 27
M  V30 29 1 13 28
M  V30 30 1 14 29
M  V30 31 1 14 30
M  V30 END BOND
M  V30 END CTAB
M  END
