
     RDKit          3D

  0  0  0  0  0  0  0  0  0  0999 V3000
M  V30 BEGIN CTAB
M  V30 COUNTS 73 72 0 0 0
M  V30 BEGIN ATOM
M  V30 1 C 4.95056 1.65076 4.14811 0
M  V30 2 S 6.52876 1.98321 3.39385 0
M  V30 3 C 6.60469 1.83488 1.62734 0
M  V30 4 C 6.42928 0.466678 1.0746 0
M  V30 5 C 5.12895 -0.207454 1.28302 0 CFG=2
M  V30 6 N 5.21079 -1.55899 0.693621 0
M  V30 7 C 3.98066 0.455324 0.591205 0
M  V30 8 O 3.73211 1.67504 0.721928 0
M  V30 9 N 3.10489 -0.273593 -0.257557 0
M  V30 10 C 1.96883 0.372258 -0.946257 0 CFG=1
M  V30 11 C 2.11704 0.186196 -2.4176 0 CFG=1
M  V30 12 C 2.34201 -1.25141 -2.81631 0
M  V30 13 O 1.08981 0.777759 -3.11584 0
M  V30 14 C 0.702897 -0.0747581 -0.35708 0
M  V30 15 O 0.720155 -0.917804 0.621047 0
M  V30 16 N -0.569207 0.351965 -0.77963 0
M  V30 17 C -1.8106 -0.0981228 -0.180251 0 CFG=1
M  V30 18 C -2.77735 0.999519 0.122367 0
M  V30 19 C -2.24968 2.02205 1.07029 0
M  V30 20 C -3.2634 3.10228 1.32843 0
M  V30 21 N -2.79611 4.11397 2.23433 0
M  V30 22 C -1.75811 5.02352 1.89838 0
M  V30 23 N -1.57986 5.57813 0.597527 0
M  V30 24 N -0.924201 5.37419 2.79508 0
M  V30 25 C -2.45169 -1.14529 -1.05148 0
M  V30 26 O -1.87673 -1.50724 -2.0968 0
M  V30 27 N -3.69396 -1.73157 -0.70876 0
M  V30 28 C -4.24901 -2.75003 -1.60573 0 CFG=1
M  V30 29 C -4.43165 -4.05649 -0.853887 0
M  V30 30 C -3.07924 -4.49177 -0.3305 0
M  V30 31 C -4.82296 -5.11052 -1.88532 0
M  V30 32 C -5.53554 -2.233 -2.11863 0
M  V30 33 O -6.27071 -3.00443 -2.99154 0
M  V30 34 O -5.9491 -1.11336 -1.76624 0
M  V30 35 H 4.80264 2.25358 5.09402 0
M  V30 36 H 4.08456 1.81847 3.50585 0
M  V30 37 H 4.93933 0.594337 4.52984 0
M  V30 38 H 5.95463 2.59126 1.11846 0
M  V30 39 H 7.64705 2.15743 1.30333 0
M  V30 40 H 6.75815 0.461577 0.00426782 0
M  V30 41 H 7.21486 -0.181113 1.57503 0
M  V30 42 H 4.89596 -0.299627 2.34523 0
M  V30 43 H 5.37706 -1.47201 -0.341238 0
M  V30 44 H 6.05025 -2.02661 1.13298 0
M  V30 45 H 3.29414 -1.29221 -0.375552 0
M  V30 46 H 2.06171 1.46624 -0.718937 0
M  V30 47 H 3.04959 0.763459 -2.7098 0
M  V30 48 H 1.67266 -1.48343 -3.67097 0
M  V30 49 H 2.22382 -1.93233 -1.9575 0
M  V30 50 H 3.37651 -1.38593 -3.2029 0
M  V30 51 H 1.24151 1.74973 -3.25357 0
M  V30 52 H -0.664347 1.03236 -1.55407 0
M  V30 53 H -1.54362 -0.613633 0.773673 0
M  V30 54 H -3.21876 1.46068 -0.787865 0
M  V30 55 H -3.65708 0.502377 0.632687 0
M  V30 56 H -1.99173 1.57189 2.04029 0
M  V30 57 H -1.33923 2.48967 0.63114 0
M  V30 58 H -4.17771 2.66022 1.73017 0
M  V30 59 H -3.54379 3.61067 0.369877 0
M  V30 60 H -3.20991 4.22151 3.19084 0
M  V30 61 H -2.27846 6.21685 0.165114 0
M  V30 62 H -0.739092 5.37126 0.011898 0
M  V30 63 H -0.997431 5.00518 3.75364 0
M  V30 64 H -4.25917 -1.50191 0.132796 0
M  V30 65 H -3.5243 -2.92529 -2.40878 0
M  V30 66 H -5.17511 -4.01293 -0.0647574 0
M  V30 67 H -2.66444 -3.66274 0.244469 0
M  V30 68 H -2.44643 -4.72468 -1.2328 0
M  V30 69 H -3.19457 -5.41077 0.293638 0
M  V30 70 H -5.90815 -5.20264 -1.94563 0
M  V30 71 H -4.44824 -6.11466 -1.53308 0
M  V30 72 H -4.3696 -4.93517 -2.86909 0
M  V30 73 H -5.81558 -3.26295 -3.87443 0
M  V30 END ATOM
M  V30 BEGIN BOND
M  V30 1 1 1 2
M  V30 2 1 2 3
M  V30 3 1 3 4
M  V30 4 1 4 5
M  V30 5 1 5 6
M  V30 6 1 5 7
M  V30 7 2 7 8
M  V30 8 1 7 9
M  V30 9 1 9 10
M  V30 10 1 10 11
M  V30 11 1 11 12
M  V30 12 1 11 13
M  V30 13 1 10 14
M  V30 14 2 14 15
M  V30 15 1 14 16
M  V30 16 1 16 17
M  V30 17 1 17 18
M  V30 18 1 18 19
M  V30 19 1 19 20
M  V30 20 1 20 21
M  V30 21 1 21 22
M  V30 22 1 22 23
M  V30 23 2 22 24 CFG=2
M  V30 24 1 17 25
M  V30 25 2 25 26
M  V30 26 1 25 27
M  V30 27 1 27 28
M  V30 28 1 28 29
M  V30 29 1 29 30
M  V30 30 1 29 31
M  V30 31 1 28 32
M  V30 32 1 32 33
M  V30 33 2 32 34
M  V30 34 1 1 35
M  V30 35 1 1 36
M  V30 36 1 1 37
M  V30 37 1 3 38
M  V30 38 1 3 39
M  V30 39 1 4 40
M  V30 40 1 4 41
M  V30 41 1 5 42 CFG=1
M  V30 42 1 6 43
M  V30 43 1 6 44
M  V30 44 1 9 45
M  V30 45 1 10 46 CFG=3
M  V30 46 1 11 47 CFG=3
M  V30 47 1 12 48
M  V30 48 1 12 49
M  V30 49 1 12 50
M  V30 50 1 13 51
M  V30 51 1 16 52
M  V30 52 1 17 53 CFG=1
M  V30 53 1 18 54
M  V30 54 1 18 55
M  V30 55 1 19 56
M  V30 56 1 19 57
M  V30 57 1 20 58
M  V30 58 1 20 59
M  V30 59 1 21 60
M  V30 60 1 23 61
M  V30 61 1 23 62
M  V30 62 1 24 63
M  V30 63 1 27 64
M  V30 64 1 28 65 CFG=3
M  V30 65 1 29 66
M  V30 66 1 30 67
M  V30 67 1 30 68
M  V30 68 1 30 69
M  V30 69 1 31 70
M  V30 70 1 31 71
M  V30 71 1 31 72
M  V30 72 1 33 73
M  V30 END BOND
M  V30 END CTAB
M  END
