
     RDKit          3D

  0  0  0  0  0  0  0  0  0  0999 V3000
M  V30 BEGIN CTAB
M  V30 COUNTS 30 32 0 0 0
M  V30 BEGIN ATOM
M  V30 1 C -2.88313 2.82091 -0.191912 0
M  V30 2 O -3.65179 1.64021 -0.0879875 0
M  V30 3 C -2.99683 0.420173 -0.000699867 0
M  V30 4 N -1.64729 0.352171 -0.0140418 0
M  V30 5 C -1.01705 -0.831527 0.0707202 0
M  V30 6 C -1.76748 -1.98099 0.171922 0
M  V30 7 N -3.13387 -1.91229 0.185443 0
M  V30 8 C -3.76327 -0.72217 0.100162 0
M  V30 9 N -5.1765 -0.596927 0.109868 0
M  V30 10 C 0.425628 -0.904641 0.0564892 0
M  V30 11 C 1.14038 -2.07661 0.139129 0
M  V30 12 C 2.5341 -2.08861 0.12075 0
M  V30 13 C 3.24693 -0.918476 0.0184607 0
M  V30 14 O 4.51916 -0.618749 -0.0228494 0
M  V30 15 C 4.70308 0.675606 -0.127615 0
M  V30 16 N 5.96413 1.33692 -0.197325 0
M  V30 17 N 3.4704 1.23259 -0.154509 0
M  V30 18 C 2.52998 0.27171 -0.0655873 0
M  V30 19 C 1.14997 0.274031 -0.0466347 0
M  V30 20 H -2.81634 3.18181 -1.24924 0
M  V30 21 H -1.86922 2.62515 0.232041 0
M  V30 22 H -3.36603 3.57245 0.47527 0
M  V30 23 H -1.3542 -2.98073 0.245165 0
M  V30 24 H -5.77407 -0.581262 -0.731596 0
M  V30 25 H -5.64625 -0.514571 1.03646 0
M  V30 26 H 0.649713 -3.02093 0.2205 0
M  V30 27 H 3.08218 -3.03693 0.188043 0
M  V30 28 H 6.06202 2.29094 0.213457 0
M  V30 29 H 6.7965 0.89771 -0.647092 0
M  V30 30 H 0.589129 1.19304 -0.111431 0
M  V30 END ATOM
M  V30 BEGIN BOND
M  V30 1 1 1 2
M  V30 2 1 2 3
M  V30 3 2 3 4
M  V30 4 1 4 5
M  V30 5 2 5 6
M  V30 6 1 6 7
M  V30 7 2 7 8
M  V30 8 1 8 9
M  V30 9 1 5 10
M  V30 10 2 10 11
M  V30 11 1 11 12
M  V30 12 2 12 13
M  V30 13 1 13 14
M  V30 14 1 14 15
M  V30 15 1 15 16
M  V30 16 2 15 17
M  V30 17 1 17 18
M  V30 18 2 18 19
M  V30 19 1 8 3
M  V30 20 1 19 10
M  V30 21 1 18 13
M  V30 22 1 1 20
M  V30 23 1 1 21
M  V30 24 1 1 22
M  V30 25 1 6 23
M  V30 26 1 9 24
M  V30 27 1 9 25
M  V30 28 1 11 26
M  V30 29 1 12 27
M  V30 30 1 16 28
M  V30 31 1 16 29
M  V30 32 1 19 30
M  V30 END BOND
M  V30 END CTAB
M  END
