
     RDKit          3D

  0  0  0  0  0  0  0  0  0  0999 V3000
M  V30 BEGIN CTAB
M  V30 COUNTS 29 28 0 0 0
M  V30 BEGIN ATOM
M  V30 1 N 2.85207 -2.55704 1.35955 0
M  V30 2 C 3.83785 -1.60669 1.70417 0
M  V30 3 S 5.38192 -2.04632 1.95499 0
M  V30 4 N 3.4696 -0.249165 1.83208 0
M  V30 5 N 2.16354 0.210552 1.63308 0
M  V30 6 C 1.47918 -0.0576673 0.561351 0
M  V30 7 C 0.115177 0.437532 0.382222 0
M  V30 8 C -0.610755 0.105082 -0.845827 0
M  V30 9 C -0.782318 -1.38297 -1.04414 0
M  V30 10 C -1.522 -1.61874 -2.30212 0
M  V30 11 O -1.92345 -0.535143 -3.06347 0
M  V30 12 O -1.79603 -2.77667 -2.69867 0
M  V30 13 N -0.459648 1.15864 1.28056 0
M  V30 14 N -1.7643 1.59485 1.03803 0
M  V30 15 C -1.9524 2.88826 0.476304 0
M  V30 16 N -3.28016 3.31735 0.235836 0
M  V30 17 S -0.681759 3.8431 0.121884 0
M  V30 18 H 2.88051 -2.97768 0.41038 0
M  V30 19 H 2.10206 -2.85005 2.01789 0
M  V30 20 H 4.17296 0.473322 2.08462 0
M  V30 21 H 1.97687 -0.661252 -0.176883 0
M  V30 22 H -1.62891 0.546512 -0.886479 0
M  V30 23 H -0.0949969 0.487463 -1.76611 0
M  V30 24 H 0.196469 -1.90254 -1.08404 0
M  V30 25 H -1.4052 -1.8018 -0.221454 0
M  V30 26 H -2.68501 0.0569001 -2.69644 0
M  V30 27 H -2.55503 0.967364 1.27282 0
M  V30 28 H -3.66732 4.07074 0.831448 0
M  V30 29 H -3.81891 2.86604 -0.524424 0
M  V30 END ATOM
M  V30 BEGIN BOND
M  V30 1 1 1 2
M  V30 2 2 2 3
M  V30 3 1 2 4
M  V30 4 1 4 5
M  V30 5 2 5 6
M  V30 6 1 6 7
M  V30 7 1 7 8
M  V30 8 1 8 9
M  V30 9 1 9 10
M  V30 10 1 10 11
M  V30 11 2 10 12
M  V30 12 2 7 13
M  V30 13 1 13 14
M  V30 14 1 14 15
M  V30 15 1 15 16
M  V30 16 2 15 17
M  V30 17 1 1 18
M  V30 18 1 1 19
M  V30 19 1 4 20
M  V30 20 1 6 21
M  V30 21 1 8 22
M  V30 22 1 8 23
M  V30 23 1 9 24
M  V30 24 1 9 25
M  V30 25 1 11 26
M  V30 26 1 14 27
M  V30 27 1 16 28
M  V30 28 1 16 29
M  V30 END BOND
M  V30 END CTAB
M  END
