
     RDKit          3D

  0  0  0  0  0  0  0  0  0  0999 V3000
M  V30 BEGIN CTAB
M  V30 COUNTS 25 26 0 0 0
M  V30 BEGIN ATOM
M  V30 1 C 4.57842 -0.000634612 -0.634208 0
M  V30 2 C 3.83306 -0.232141 0.663507 0
M  V30 3 C 2.35808 -0.194553 0.40734 0
M  V30 4 C 1.55417 -1.2465 0.0784928 0
M  V30 5 C 0.236152 -0.980971 -0.109485 0
M  V30 6 C -0.186036 0.302701 0.0417995 0
M  V30 7 S 1.28606 1.11973 0.448247 0
M  V30 8 C -1.51464 0.895789 -0.090281 0
M  V30 9 N -1.76251 2.20277 0.0962975 0
M  V30 10 N -3.07277 2.42912 -0.0972776 0
M  V30 11 C -3.65266 1.26422 -0.406311 0
M  V30 12 N -2.66411 0.335024 -0.394172 0
M  V30 13 N -2.89574 -1.01919 -0.674565 0
M  V30 14 N -5.01453 1.01566 -0.69295 0
M  V30 15 H 5.3964 0.743672 -0.510403 0
M  V30 16 H 3.89707 0.395094 -1.43744 0
M  V30 17 H 5.04225 -0.923952 -1.03012 0
M  V30 18 H 4.10486 0.477012 1.4537 0
M  V30 19 H 4.06215 -1.27454 0.998082 0
M  V30 20 H 1.9832 -2.27869 -0.0271969 0
M  V30 21 H -0.510097 -1.77648 -0.382808 0
M  V30 22 H -2.86942 -1.41261 -1.63952 0
M  V30 23 H -3.10304 -1.65496 0.12397 0
M  V30 24 H -5.67414 1.76798 -0.975547 0
M  V30 25 H -5.41218 0.0464294 -0.628945 0
M  V30 END ATOM
M  V30 BEGIN BOND
M  V30 1 1 1 2
M  V30 2 1 2 3
M  V30 3 2 3 4
M  V30 4 1 4 5
M  V30 5 2 5 6
M  V30 6 1 6 7
M  V30 7 1 6 8
M  V30 8 2 8 9
M  V30 9 1 9 10
M  V30 10 2 10 11
M  V30 11 1 11 12
M  V30 12 1 12 13
M  V30 13 1 11 14
M  V30 14 1 7 3
M  V30 15 1 12 8
M  V30 16 1 1 15
M  V30 17 1 1 16
M  V30 18 1 1 17
M  V30 19 1 2 18
M  V30 20 1 2 19
M  V30 21 1 4 20
M  V30 22 1 5 21
M  V30 23 1 13 22
M  V30 24 1 13 23
M  V30 25 1 14 24
M  V30 26 1 14 25
M  V30 END BOND
M  V30 END CTAB
M  END
