
     RDKit          3D

  0  0  0  0  0  0  0  0  0  0999 V3000
M  V30 BEGIN CTAB
M  V30 COUNTS 144 148 0 0 0
M  V30 BEGIN ATOM
M  V30 1 C 3.65789 7.14484 1.35482 0
M  V30 2 C 2.21969 6.74221 1.38254 0
M  V30 3 C 2.03709 5.23486 1.6753 0
M  V30 4 C 0.578595 4.99221 1.67365 0
M  V30 5 C 0.0078236 3.68107 1.91013 0
M  V30 6 O 0.177496 2.57851 1.13503 0
M  V30 7 C -0.106962 2.46892 -0.302998 0
M  V30 8 C 0.924336 2.51626 -1.2296 0
M  V30 9 C 2.41987 2.33603 -1.10215 0
M  V30 10 C 2.82495 0.871434 -1.06851 0
M  V30 11 C 3.05531 0.437586 -2.37568 0
M  V30 12 C 3.27127 -0.870047 -2.76276 0
M  V30 13 C 3.23504 -1.73148 -1.71448 0
M  V30 14 C 3.00858 -1.36556 -0.359536 0
M  V30 15 C 2.90144 -2.66825 0.421197 0
M  V30 16 C 1.52668 -2.87154 1.02861 0
M  V30 17 C 1.66859 -2.4622 2.39511 0
M  V30 18 C 0.642087 -2.33883 3.27328 0
M  V30 19 N 0.817564 -1.96884 4.63047 0
M  V30 20 C -0.576993 -2.63703 2.72791 0
M  V30 21 C -0.818092 -3.03989 1.40553 0
M  V30 22 C -2.29908 -2.95738 1.20708 0
M  V30 23 C -2.79495 -1.52073 1.14424 0
M  V30 24 C -3.16344 -1.14364 2.44214 0
M  V30 25 C -3.41177 0.136171 2.85561 0
M  V30 26 C -3.27199 1.0681 1.87652 0
M  V30 27 C -2.908 0.756407 0.531885 0
M  V30 28 C -2.73286 2.09574 -0.162702 0
M  V30 29 C -1.39054 2.34369 -0.806305 0
M  V30 30 C -1.59428 2.29017 -2.21173 0
M  V30 31 C -0.614171 2.34899 -3.14597 0
M  V30 32 N -0.83959 2.29611 -4.54231 0
M  V30 33 C 0.647673 2.46215 -2.60445 0
M  V30 34 C -2.6773 -0.543034 0.146655 0
M  V30 35 O -2.35658 -0.917608 -1.2421 0
M  V30 36 C -3.46898 -1.0791 -2.13566 0
M  V30 37 C -4.47205 -2.07551 -1.65958 0
M  V30 38 C -5.61454 -2.25605 -2.62448 0
M  V30 39 C -6.37058 -0.996315 -2.87392 0
M  V30 40 C -7.50488 -1.15476 -3.83548 0
M  V30 41 C -3.80836 0.467918 4.24288 0
M  V30 42 C -4.72357 -0.628456 4.72877 0
M  V30 43 C -4.5352 1.77656 4.34288 0
M  V30 44 C -2.56095 0.500343 5.09481 0
M  V30 45 C 0.283841 -3.17161 0.545692 0
M  V30 46 O 0.0985847 -3.65874 -0.856464 0
M  V30 47 C 0.28163 -5.06059 -1.01232 0
M  V30 48 C 0.160863 -5.59414 -2.34331 0
M  V30 49 C -1.14119 -5.55703 -3.07193 0
M  V30 50 C -1.68295 -4.19231 -3.25944 0
M  V30 51 C -0.826934 -3.25083 -4.03125 0
M  V30 52 C 2.81165 -0.0448641 -0.0349013 0
M  V30 53 O 2.61216 0.40114 1.36551 0
M  V30 54 C 3.75384 0.743761 2.16628 0
M  V30 55 C 3.20778 1.15618 3.48509 0
M  V30 56 C 4.1602 1.52145 4.55943 0
M  V30 57 C 5.08544 2.66438 4.34656 0
M  V30 58 C 6.05566 2.43872 3.23312 0
M  V30 59 C 3.5318 -1.22946 -4.16285 0
M  V30 60 C 5.03788 -1.39354 -4.31233 0
M  V30 61 C 2.92034 -2.50352 -4.62434 0
M  V30 62 C 3.15478 -0.0579631 -5.04847 0
M  V30 63 H 4.05978 7.18818 0.312158 0
M  V30 64 H 4.31847 6.54667 2.00125 0
M  V30 65 H 3.72802 8.21864 1.71528 0
M  V30 66 H 1.67863 7.34202 2.15477 0
M  V30 67 H 1.71486 6.98875 0.40727 0
M  V30 68 H 2.67318 4.63687 1.04631 0
M  V30 69 H 2.47403 5.1315 2.7148 0
M  V30 70 H 0.0870823 5.51283 0.769089 0
M  V30 71 H 0.167703 5.67527 2.51419 0
M  V30 72 H 0.306604 3.34723 2.95781 0
M  V30 73 H -1.12252 3.83624 2.06022 0
M  V30 74 H 2.92821 2.72445 -2.08882 0
M  V30 75 H 2.88341 3.04597 -0.471506 0
M  V30 76 H 3.12409 1.14197 -3.23327 0
M  V30 77 H 3.41447 -2.79622 -1.98163 0
M  V30 78 H 3.73602 -2.75756 1.19188 0
M  V30 79 H 3.23197 -3.56438 -0.160384 0
M  V30 80 H 2.68119 -2.21922 2.79339 0
M  V30 81 H 0.199185 -1.28347 5.08246 0
M  V30 82 H 1.58589 -2.40717 5.16705 0
M  V30 83 H -1.36691 -2.56934 3.49227 0
M  V30 84 H -2.68814 -3.43842 2.18006 0
M  V30 85 H -2.90987 -3.57468 0.590169 0
M  V30 86 H -3.3538 -1.89557 3.24492 0
M  V30 87 H -3.45741 2.11562 2.18534 0
M  V30 88 H -3.56275 2.26198 -0.931655 0
M  V30 89 H -3.07348 2.96997 0.481361 0
M  V30 90 H -2.61349 2.18832 -2.63757 0
M  V30 91 H -1.39978 3.0574 -4.97605 0
M  V30 92 H -0.459219 1.52484 -5.13316 0
M  V30 93 H 1.44356 2.54349 -3.37566 0
M  V30 94 H -3.91323 -0.0562952 -2.19311 0
M  V30 95 H -3.06428 -1.31655 -3.1089 0
M  V30 96 H -4.00509 -3.04964 -1.45746 0
M  V30 97 H -4.90251 -1.70227 -0.675781 0
M  V30 98 H -5.2311 -2.65065 -3.58893 0
M  V30 99 H -6.30878 -2.99393 -2.17503 0
M  V30 100 H -6.79566 -0.636305 -1.91219 0
M  V30 101 H -5.66903 -0.16955 -3.18741 0
M  V30 102 H -7.9999 -2.12501 -3.69062 0
M  V30 103 H -8.26628 -0.356937 -3.60901 0
M  V30 104 H -7.21049 -0.957674 -4.88977 0
M  V30 105 H -5.38799 -0.181874 5.52267 0
M  V30 106 H -5.37238 -1.05308 3.95827 0
M  V30 107 H -4.11367 -1.40793 5.24143 0
M  V30 108 H -5.31903 1.71808 5.15069 0
M  V30 109 H -3.82974 2.57764 4.64914 0
M  V30 110 H -5.07544 2.01147 3.42099 0
M  V30 111 H -2.87555 0.668204 6.14374 0
M  V30 112 H -1.8766 1.2895 4.71775 0
M  V30 113 H -2.05124 -0.482271 5.03643 0
M  V30 114 H 1.30188 -5.28126 -0.590562 0
M  V30 115 H -0.406618 -5.56414 -0.266533 0
M  V30 116 H 0.916853 -5.08399 -3.0502 0
M  V30 117 H 0.532987 -6.68619 -2.36655 0
M  V30 118 H -0.964216 -5.98665 -4.10865 0
M  V30 119 H -1.8573 -6.23915 -2.55086 0
M  V30 120 H -2.67795 -4.22856 -3.77772 0
M  V30 121 H -1.89819 -3.73924 -2.24755 0
M  V30 122 H -0.550829 -2.34162 -3.44006 0
M  V30 123 H -1.32152 -2.84414 -4.95865 0
M  V30 124 H 0.0840019 -3.76248 -4.38578 0
M  V30 125 H 4.46809 -0.078869 2.19939 0
M  V30 126 H 4.18771 1.61544 1.64368 0
M  V30 127 H 2.55194 0.337595 3.93596 0
M  V30 128 H 2.42543 1.98653 3.35016 0
M  V30 129 H 3.58216 1.75666 5.51872 0
M  V30 130 H 4.73754 0.583394 4.8088 0
M  V30 131 H 4.42658 3.56908 4.13336 0
M  V30 132 H 5.6472 2.91274 5.301 0
M  V30 133 H 5.86165 3.08988 2.3512 0
M  V30 134 H 7.08989 2.74354 3.61417 0
M  V30 135 H 6.18951 1.4072 2.90928 0
M  V30 136 H 5.3102 -1.49988 -5.38255 0
M  V30 137 H 5.57913 -0.4981 -3.95754 0
M  V30 138 H 5.41177 -2.24876 -3.70193 0
M  V30 139 H 1.93881 -2.362 -5.13512 0
M  V30 140 H 2.86185 -3.22788 -3.79662 0
M  V30 141 H 3.59934 -2.98272 -5.39535 0
M  V30 142 H 2.17109 0.323779 -4.76205 0
M  V30 143 H 3.98639 0.665175 -5.03062 0
M  V30 144 H 3.14197 -0.483523 -6.09678 0
M  V30 END ATOM
M  V30 BEGIN BOND
M  V30 1 1 1 2
M  V30 2 1 2 3
M  V30 3 1 3 4
M  V30 4 1 4 5
M  V30 5 1 5 6
M  V30 6 1 6 7
M  V30 7 2 7 8
M  V30 8 1 8 9
M  V30 9 1 9 10
M  V30 10 2 10 11
M  V30 11 1 11 12
M  V30 12 2 12 13
M  V30 13 1 13 14
M  V30 14 1 14 15
M  V30 15 1 15 16
M  V30 16 2 16 17
M  V30 17 1 17 18
M  V30 18 1 18 19
M  V30 19 2 18 20
M  V30 20 1 20 21
M  V30 21 1 21 22
M  V30 22 1 22 23
M  V30 23 2 23 24
M  V30 24 1 24 25
M  V30 25 2 25 26
M  V30 26 1 26 27
M  V30 27 1 27 28
M  V30 28 1 28 29
M  V30 29 2 29 30
M  V30 30 1 30 31
M  V30 31 1 31 32
M  V30 32 2 31 33
M  V30 33 2 27 34
M  V30 34 1 34 35
M  V30 35 1 35 36
M  V30 36 1 36 37
M  V30 37 1 37 38
M  V30 38 1 38 39
M  V30 39 1 39 40
M  V30 40 1 25 41
M  V30 41 1 41 42
M  V30 42 1 41 43
M  V30 43 1 41 44
M  V30 44 2 21 45
M  V30 45 1 45 46
M  V30 46 1 46 47
M  V30 47 1 47 48
M  V30 48 1 48 49
M  V30 49 1 49 50
M  V30 50 1 50 51
M  V30 51 2 14 52
M  V30 52 1 52 53
M  V30 53 1 53 54
M  V30 54 1 54 55
M  V30 55 1 55 56
M  V30 56 1 56 57
M  V30 57 1 57 58
M  V30 58 1 12 59
M  V30 59 1 59 60
M  V30 60 1 59 61
M  V30 61 1 59 62
M  V30 62 1 29 7
M  V30 63 1 33 8
M  V30 64 1 52 10
M  V30 65 1 45 16
M  V30 66 1 34 23
M  V30 67 1 1 63
M  V30 68 1 1 64
M  V30 69 1 1 65
M  V30 70 1 2 66
M  V30 71 1 2 67
M  V30 72 1 3 68
M  V30 73 1 3 69
M  V30 74 1 4 70
M  V30 75 1 4 71
M  V30 76 1 5 72
M  V30 77 1 5 73
M  V30 78 1 9 74
M  V30 79 1 9 75
M  V30 80 1 11 76
M  V30 81 1 13 77
M  V30 82 1 15 78
M  V30 83 1 15 79
M  V30 84 1 17 80
M  V30 85 1 19 81
M  V30 86 1 19 82
M  V30 87 1 20 83
M  V30 88 1 22 84
M  V30 89 1 22 85
M  V30 90 1 24 86
M  V30 91 1 26 87
M  V30 92 1 28 88
M  V30 93 1 28 89
M  V30 94 1 30 90
M  V30 95 1 32 91
M  V30 96 1 32 92
M  V30 97 1 33 93
M  V30 98 1 36 94
M  V30 99 1 36 95
M  V30 100 1 37 96
M  V30 101 1 37 97
M  V30 102 1 38 98
M  V30 103 1 38 99
M  V30 104 1 39 100
M  V30 105 1 39 101
M  V30 106 1 40 102
M  V30 107 1 40 103
M  V30 108 1 40 104
M  V30 109 1 42 105
M  V30 110 1 42 106
M  V30 111 1 42 107
M  V30 112 1 43 108
M  V30 113 1 43 109
M  V30 114 1 43 110
M  V30 115 1 44 111
M  V30 116 1 44 112
M  V30 117 1 44 113
M  V30 118 1 47 114
M  V30 119 1 47 115
M  V30 120 1 48 116
M  V30 121 1 48 117
M  V30 122 1 49 118
M  V30 123 1 49 119
M  V30 124 1 50 120
M  V30 125 1 50 121
M  V30 126 1 51 122
M  V30 127 1 51 123
M  V30 128 1 51 124
M  V30 129 1 54 125
M  V30 130 1 54 126
M  V30 131 1 55 127
M  V30 132 1 55 128
M  V30 133 1 56 129
M  V30 134 1 56 130
M  V30 135 1 57 131
M  V30 136 1 57 132
M  V30 137 1 58 133
M  V30 138 1 58 134
M  V30 139 1 58 135
M  V30 140 1 60 136
M  V30 141 1 60 137
M  V30 142 1 60 138
M  V30 143 1 61 139
M  V30 144 1 61 140
M  V30 145 1 61 141
M  V30 146 1 62 142
M  V30 147 1 62 143
M  V30 148 1 62 144
M  V30 END BOND
M  V30 END CTAB
M  END
