
     RDKit          3D

  0  0  0  0  0  0  0  0  0  0999 V3000
M  V30 BEGIN CTAB
M  V30 COUNTS 55 56 0 0 0
M  V30 BEGIN ATOM
M  V30 1 C 6.49731 -2.75383 -1.66614 0
M  V30 2 C 6.84562 -1.43669 -0.989158 0
M  V30 3 C 5.72939 -0.464701 -1.10081 0
M  V30 4 C 5.67304 0.394078 -2.18547 0
M  V30 5 C 4.63962 1.29114 -2.28507 0
M  V30 6 C 3.63636 1.3598 -1.31273 0
M  V30 7 C 3.69462 0.509915 -0.241961 0
M  V30 8 C 2.58601 0.616779 0.791217 0
M  V30 9 C 2.94257 1.58578 1.83478 0
M  V30 10 C 2.0748 1.81162 2.99676 0
M  V30 11 N 0.751461 2.23113 2.73757 0
M  V30 12 C -0.346345 1.56518 2.19018 0
M  V30 13 O -0.287614 0.366429 1.84891 0
M  V30 14 C -1.64281 2.33451 2.01069 0
M  V30 15 C -2.61799 1.40602 1.42328 0
M  V30 16 C -3.44266 0.62203 2.20806 0
M  V30 17 C -4.36429 -0.255469 1.66814 0
M  V30 18 C -4.50226 -0.388045 0.298071 0
M  V30 19 O -5.40688 -1.24941 -0.294086 0
M  V30 20 C -6.2809 -2.08043 0.406519 0
M  V30 21 C -7.10062 -2.8614 -0.612154 0
M  V30 22 N -7.81545 -1.86904 -1.40487 0
M  V30 23 C -3.68904 0.385045 -0.499476 0
M  V30 24 N -3.82554 0.253806 -1.92804 0
M  V30 25 C -2.7707 1.25941 0.0447361 0
M  V30 26 C 4.71839 -0.384455 -0.135702 0
M  V30 27 H 6.96819 -3.58118 -1.11082 0
M  V30 28 H 6.85032 -2.77641 -2.71204 0
M  V30 29 H 5.40407 -2.92274 -1.62167 0
M  V30 30 H 7.77246 -1.03852 -1.44991 0
M  V30 31 H 7.02796 -1.65187 0.0830377 0
M  V30 32 H 6.45539 0.35045 -2.95691 0
M  V30 33 H 4.57294 1.96359 -3.11046 0
M  V30 34 H 2.82606 2.06458 -1.39272 0
M  V30 35 H 2.36016 -0.400935 1.12558 0
M  V30 36 H 1.67365 0.984852 0.220922 0
M  V30 37 H 3.04046 2.59524 1.30159 0
M  V30 38 H 4.00659 1.4142 2.21577 0
M  V30 39 H 2.04573 0.85777 3.66069 0
M  V30 40 H 2.5496 2.53626 3.73982 0
M  V30 41 H 0.554229 3.2694 3.01521 0
M  V30 42 H -1.45548 3.23282 1.39854 0
M  V30 43 H -1.95148 2.67732 3.00891 0
M  V30 44 H -3.34258 0.718278 3.29406 0
M  V30 45 H -5.00075 -0.860519 2.29639 0
M  V30 46 H -5.80057 -2.74744 1.13787 0
M  V30 47 H -6.97728 -1.42116 0.992823 0
M  V30 48 H -7.7843 -3.58159 -0.139449 0
M  V30 49 H -6.353 -3.40012 -1.26158 0
M  V30 50 H -8.70359 -2.26733 -1.75998 0
M  V30 51 H -7.27021 -1.52559 -2.20831 0
M  V30 52 H -3.1589 -0.284249 -2.50541 0
M  V30 53 H -4.62981 0.72262 -2.3868 0
M  V30 54 H -2.13026 1.86823 -0.60043 0
M  V30 55 H 4.75428 -1.04515 0.706671 0
M  V30 END ATOM
M  V30 BEGIN BOND
M  V30 1 1 1 2
M  V30 2 1 2 3
M  V30 3 2 3 4
M  V30 4 1 4 5
M  V30 5 2 5 6
M  V30 6 1 6 7
M  V30 7 1 7 8
M  V30 8 1 8 9
M  V30 9 1 9 10
M  V30 10 1 10 11
M  V30 11 1 11 12
M  V30 12 2 12 13
M  V30 13 1 12 14
M  V30 14 1 14 15
M  V30 15 2 15 16
M  V30 16 1 16 17
M  V30 17 2 17 18
M  V30 18 1 18 19
M  V30 19 1 19 20
M  V30 20 1 20 21
M  V30 21 1 21 22
M  V30 22 1 18 23
M  V30 23 1 23 24
M  V30 24 2 23 25
M  V30 25 2 7 26
M  V30 26 1 26 3
M  V30 27 1 25 15
M  V30 28 1 1 27
M  V30 29 1 1 28
M  V30 30 1 1 29
M  V30 31 1 2 30
M  V30 32 1 2 31
M  V30 33 1 4 32
M  V30 34 1 5 33
M  V30 35 1 6 34
M  V30 36 1 8 35
M  V30 37 1 8 36
M  V30 38 1 9 37
M  V30 39 1 9 38
M  V30 40 1 10 39
M  V30 41 1 10 40
M  V30 42 1 11 41
M  V30 43 1 14 42
M  V30 44 1 14 43
M  V30 45 1 16 44
M  V30 46 1 17 45
M  V30 47 1 20 46
M  V30 48 1 20 47
M  V30 49 1 21 48
M  V30 50 1 21 49
M  V30 51 1 22 50
M  V30 52 1 22 51
M  V30 53 1 24 52
M  V30 54 1 24 53
M  V30 55 1 25 54
M  V30 56 1 26 55
M  V30 END BOND
M  V30 END CTAB
M  END
