
     RDKit          3D

  0  0  0  0  0  0  0  0  0  0999 V3000
M  V30 BEGIN CTAB
M  V30 COUNTS 31 33 0 0 0
M  V30 BEGIN ATOM
M  V30 1 N -0.601076 -1.61372 -1.85595 0
M  V30 2 N 0.227608 -0.896825 -0.990994 0
M  V30 3 C 1.57491 -1.07967 -1.19787 0
M  V30 4 O 1.98981 -1.89817 -2.05598 0
M  V30 5 C 2.50064 -0.373815 -0.473407 0
M  V30 6 C 2.00769 0.516566 0.460385 0
M  V30 7 C 2.92536 1.25234 1.21513 0
M  V30 8 C 4.25753 1.08977 1.02889 0
M  V30 9 C 4.74617 0.208148 0.104374 0
M  V30 10 C 3.8629 -0.527736 -0.650974 0
M  V30 11 N 0.693488 0.6528 0.620271 0
M  V30 12 C -0.251975 -0.0537565 -0.102357 0
M  V30 13 C -1.65289 0.266974 0.147532 0
M  V30 14 C -1.93786 1.63924 0.339755 0
M  V30 15 C -3.16897 2.13651 0.647077 0
M  V30 16 C -4.20056 1.23725 0.777787 0
M  V30 17 C -3.98145 -0.0969213 0.604571 0
M  V30 18 C -2.69713 -0.592256 0.28779 0
M  V30 19 N -2.52817 -1.98865 0.20409 0
M  V30 20 H -0.546004 -2.64379 -1.98164 0
M  V30 21 H -1.31654 -1.07688 -2.41275 0
M  V30 22 H 2.48602 1.94593 1.94316 0
M  V30 23 H 4.95686 1.67674 1.6314 0
M  V30 24 H 5.79881 0.111629 -0.00948656 0
M  V30 25 H 4.24618 -1.22396 -1.38104 0
M  V30 26 H -1.11749 2.32556 0.232635 0
M  V30 27 H -3.34778 3.2097 0.788169 0
M  V30 28 H -5.20355 1.61863 1.02463 0
M  V30 29 H -4.78815 -0.825977 0.704345 0
M  V30 30 H -1.82018 -2.46102 0.785705 0
M  V30 31 H -3.11424 -2.53466 -0.435243 0
M  V30 END ATOM
M  V30 BEGIN BOND
M  V30 1 1 1 2
M  V30 2 1 2 3
M  V30 3 2 3 4
M  V30 4 1 3 5
M  V30 5 2 5 6
M  V30 6 1 6 7
M  V30 7 2 7 8
M  V30 8 1 8 9
M  V30 9 2 9 10
M  V30 10 1 6 11
M  V30 11 2 11 12
M  V30 12 1 12 13
M  V30 13 2 13 14
M  V30 14 1 14 15
M  V30 15 2 15 16
M  V30 16 1 16 17
M  V30 17 2 17 18
M  V30 18 1 18 19
M  V30 19 1 12 2
M  V30 20 1 18 13
M  V30 21 1 10 5
M  V30 22 1 1 20
M  V30 23 1 1 21
M  V30 24 1 7 22
M  V30 25 1 8 23
M  V30 26 1 9 24
M  V30 27 1 10 25
M  V30 28 1 14 26
M  V30 29 1 15 27
M  V30 30 1 16 28
M  V30 31 1 17 29
M  V30 32 1 19 30
M  V30 33 1 19 31
M  V30 END BOND
M  V30 END CTAB
M  END
