
     RDKit          3D

  0  0  0  0  0  0  0  0  0  0999 V3000
M  V30 BEGIN CTAB
M  V30 COUNTS 26 26 0 0 0
M  V30 BEGIN ATOM
M  V30 1 O -2.77373 -0.291666 1.24175 0
M  V30 2 C -2.47281 0.325512 0.0112446 0
M  V30 3 C -1.48344 1.44603 0.183603 0
M  V30 4 C -0.10081 0.962651 0.521946 0
M  V30 5 C 0.281899 -0.310721 -0.149445 0
M  V30 6 C -0.597516 -0.68093 -1.31269 0
M  V30 7 C -2.05486 -0.693672 -0.990959 0
M  V30 8 N 1.63946 -0.2349 -0.631306 0
M  V30 9 C 2.654 -0.0117082 0.112274 0
M  V30 10 N 3.95144 0.0466216 -0.441921 0
M  V30 11 N 2.49247 0.179721 1.49816 0
M  V30 12 H -3.65116 -0.74077 1.21504 0
M  V30 13 H -3.42245 0.783611 -0.337223 0
M  V30 14 H -1.84432 2.07116 1.03699 0
M  V30 15 H -1.51747 2.07715 -0.713454 0
M  V30 16 H -0.0173826 0.814223 1.63551 0
M  V30 17 H 0.619161 1.76128 0.237634 0
M  V30 18 H 0.232138 -1.16069 0.572859 0
M  V30 19 H -0.316925 -1.73646 -1.59743 0
M  V30 20 H -0.343064 -0.0728548 -2.21437 0
M  V30 21 H -2.60698 -0.548821 -1.96246 0
M  V30 22 H -2.41249 -1.69918 -0.626913 0
M  V30 23 H 4.73881 -0.485713 -0.0333813 0
M  V30 24 H 4.1404 0.631366 -1.27866 0
M  V30 25 H 2.4391 -0.647501 2.11981 0
M  V30 26 H 2.42654 1.12982 1.90339 0
M  V30 END ATOM
M  V30 BEGIN BOND
M  V30 1 1 1 2
M  V30 2 1 2 3
M  V30 3 1 3 4
M  V30 4 1 4 5
M  V30 5 1 5 6
M  V30 6 1 6 7
M  V30 7 1 5 8
M  V30 8 2 8 9 CFG=2
M  V30 9 1 9 10
M  V30 10 1 9 11
M  V30 11 1 7 2
M  V30 12 1 1 12
M  V30 13 1 2 13
M  V30 14 1 3 14
M  V30 15 1 3 15
M  V30 16 1 4 16
M  V30 17 1 4 17
M  V30 18 1 5 18
M  V30 19 1 6 19
M  V30 20 1 6 20
M  V30 21 1 7 21
M  V30 22 1 7 22
M  V30 23 1 10 23
M  V30 24 1 10 24
M  V30 25 1 11 25
M  V30 26 1 11 26
M  V30 END BOND
M  V30 END CTAB
M  END
