
     RDKit          3D

  0  0  0  0  0  0  0  0  0  0999 V3000
M  V30 BEGIN CTAB
M  V30 COUNTS 17 17 0 0 0
M  V30 BEGIN ATOM
M  V30 1 N 3.38628 0.234437 0.18807 0
M  V30 2 C 2.1914 0.984626 -0.0873096 0
M  V30 3 C 1.03499 0.0382803 0.0837737 0
M  V30 4 O 1.04586 -1.20873 0.410823 0
M  V30 5 N -0.180938 -1.68635 0.454587 0
M  V30 6 C -1.03847 -0.699107 0.139453 0
M  V30 7 N -0.257484 0.372273 -0.0892083 0
M  V30 8 C -2.52659 -0.765734 0.0583541 0
M  V30 9 N -3.12262 0.478181 -0.306709 0
M  V30 10 H 3.21518 -0.792657 0.169965 0
M  V30 11 H 3.78194 0.447232 1.12856 0
M  V30 12 H 2.10701 1.78909 0.674658 0
M  V30 13 H 2.20413 1.41828 -1.10674 0
M  V30 14 H -2.7593 -1.49434 -0.756973 0
M  V30 15 H -2.91002 -1.19277 1.00317 0
M  V30 16 H -2.44994 1.18296 -0.689182 0
M  V30 17 H -3.72143 0.894332 0.448751 0
M  V30 END ATOM
M  V30 BEGIN BOND
M  V30 1 1 1 2
M  V30 2 1 2 3
M  V30 3 1 3 4
M  V30 4 1 4 5
M  V30 5 2 5 6
M  V30 6 1 6 7
M  V30 7 1 6 8
M  V30 8 1 8 9
M  V30 9 2 7 3
M  V30 10 1 1 10
M  V30 11 1 1 11
M  V30 12 1 2 12
M  V30 13 1 2 13
M  V30 14 1 8 14
M  V30 15 1 8 15
M  V30 16 1 9 16
M  V30 17 1 9 17
M  V30 END BOND
M  V30 END CTAB
M  END
