
     RDKit          3D

  0  0  0  0  0  0  0  0  0  0999 V3000
M  V30 BEGIN CTAB
M  V30 COUNTS 34 36 0 0 0
M  V30 BEGIN ATOM
M  V30 1 N -5.77149 0.173698 -1.94983 0
M  V30 2 S -4.72593 1.548 -1.66477 0
M  V30 3 C -3.47336 1.16047 -0.461063 0
M  V30 4 N -3.75196 1.38373 0.831465 0
M  V30 5 C -2.81775 1.09991 1.78815 0
M  V30 6 N -3.09783 1.33041 3.15624 0
M  V30 7 N -1.60859 0.596811 1.48122 0
M  V30 8 C -1.28963 0.359472 0.209259 0
M  V30 9 C -2.2332 0.645586 -0.763238 0
M  V30 10 N -1.6795 0.325012 -1.9309 0
M  V30 11 C -0.432147 -0.145027 -1.69054 0
M  V30 12 N -0.172893 -0.131144 -0.370166 0
M  V30 13 C 1.03541 -0.548094 0.299764 0 CFG=1
M  V30 14 C 1.78233 -1.62893 -0.455636 0
M  V30 15 C 3.12457 -1.55001 0.28865 0 CFG=2
M  V30 16 O 2.93179 -2.26117 1.4736 0
M  V30 17 C 3.20859 -0.0659406 0.51173 0 CFG=1
M  V30 18 C 3.96948 0.528408 -0.669923 0
M  V30 19 O 4.00379 1.91688 -0.5167 0
M  V30 20 O 1.94454 0.45438 0.50294 0
M  V30 21 H -6.69487 0.266818 -1.56608 0
M  V30 22 H -5.3631 -0.724319 -1.81234 0
M  V30 23 H -3.44851 2.25719 3.45188 0
M  V30 24 H -2.94672 0.566002 3.83942 0
M  V30 25 H 0.296587 -0.497249 -2.4344 0
M  V30 26 H 0.809927 -0.994548 1.31149 0
M  V30 27 H 1.89516 -1.35329 -1.50289 0
M  V30 28 H 1.29292 -2.59829 -0.28219 0
M  V30 29 H 3.94115 -1.95075 -0.321175 0
M  V30 30 H 3.34589 -3.15911 1.45717 0
M  V30 31 H 3.77619 0.136989 1.44062 0
M  V30 32 H 5.01441 0.135493 -0.71994 0
M  V30 33 H 3.40931 0.321095 -1.60475 0
M  V30 34 H 3.72545 2.40151 -1.32707 0
M  V30 END ATOM
M  V30 BEGIN BOND
M  V30 1 1 1 2
M  V30 2 1 2 3
M  V30 3 2 3 4
M  V30 4 1 4 5
M  V30 5 1 5 6
M  V30 6 2 5 7
M  V30 7 1 7 8
M  V30 8 2 8 9
M  V30 9 1 9 10
M  V30 10 2 10 11
M  V30 11 1 11 12
M  V30 12 1 12 13
M  V30 13 1 13 14
M  V30 14 1 14 15
M  V30 15 1 15 16
M  V30 16 1 15 17
M  V30 17 1 17 18
M  V30 18 1 18 19
M  V30 19 1 17 20
M  V30 20 1 9 3
M  V30 21 1 20 13
M  V30 22 1 12 8
M  V30 23 1 1 21
M  V30 24 1 1 22
M  V30 25 1 6 23
M  V30 26 1 6 24
M  V30 27 1 11 25
M  V30 28 1 13 26 CFG=1
M  V30 29 1 14 27
M  V30 30 1 14 28
M  V30 31 1 15 29 CFG=3
M  V30 32 1 16 30
M  V30 33 1 17 31 CFG=1
M  V30 34 1 18 32
M  V30 35 1 18 33
M  V30 36 1 19 34
M  V30 END BOND
M  V30 END CTAB
M  END
