
     RDKit          3D

  0  0  0  0  0  0  0  0  0  0999 V3000
M  V30 BEGIN CTAB
M  V30 COUNTS 26 27 0 0 0
M  V30 BEGIN ATOM
M  V30 1 N 4.21139 0.0790666 0.0293697 0
M  V30 2 C 2.81995 -0.214158 -0.051728 0
M  V30 3 C 2.39859 -1.44836 -0.483458 0
M  V30 4 C 1.05142 -1.73823 -0.564111 0
M  V30 5 C 0.0981136 -0.800305 -0.214862 0
M  V30 6 C 0.504752 0.424898 0.213926 0
M  V30 7 C 1.84674 0.710447 0.293127 0
M  V30 8 C -0.680993 1.2474 0.526291 0
M  V30 9 C -1.85897 0.523484 -0.0939965 0
M  V30 10 C -1.37648 -0.899768 -0.226025 0
M  V30 11 N -2.18391 1.10734 -1.37128 0
M  V30 12 C -3.02937 0.646711 0.797144 0
M  V30 13 O -4.06242 1.19944 0.35217 0
M  V30 14 O -3.01316 0.167844 2.1084 0
M  V30 15 H 4.69273 0.298459 0.942101 0
M  V30 16 H 4.81708 0.0894617 -0.814591 0
M  V30 17 H 3.15292 -2.19195 -0.760319 0
M  V30 18 H 0.757793 -2.71825 -0.907604 0
M  V30 19 H 2.1397 1.70788 0.642838 0
M  V30 20 H -0.569895 2.25539 0.0764791 0
M  V30 21 H -0.862594 1.33178 1.61619 0
M  V30 22 H -1.74766 -1.5165 0.608944 0
M  V30 23 H -1.73298 -1.38275 -1.16226 0
M  V30 24 H -2.92579 0.591198 -1.85272 0
M  V30 25 H -1.37714 1.3719 -1.94177 0
M  V30 26 H -3.06981 -0.842449 2.23774 0
M  V30 END ATOM
M  V30 BEGIN BOND
M  V30 1 1 1 2
M  V30 2 2 2 3
M  V30 3 1 3 4
M  V30 4 2 4 5
M  V30 5 1 5 6
M  V30 6 2 6 7
M  V30 7 1 6 8
M  V30 8 1 8 9
M  V30 9 1 9 10
M  V30 10 1 9 11
M  V30 11 1 9 12
M  V30 12 2 12 13
M  V30 13 1 12 14
M  V30 14 1 7 2
M  V30 15 1 10 5
M  V30 16 1 1 15
M  V30 17 1 1 16
M  V30 18 1 3 17
M  V30 19 1 4 18
M  V30 20 1 7 19
M  V30 21 1 8 20
M  V30 22 1 8 21
M  V30 23 1 10 22
M  V30 24 1 10 23
M  V30 25 1 11 24
M  V30 26 1 11 25
M  V30 27 1 14 26
M  V30 END BOND
M  V30 END CTAB
M  END
