
     RDKit          3D

  0  0  0  0  0  0  0  0  0  0999 V3000
M  V30 BEGIN CTAB
M  V30 COUNTS 31 32 0 0 0
M  V30 BEGIN ATOM
M  V30 1 N 4.9907 0.755225 -0.825666 0
M  V30 2 C 3.68144 0.644279 -0.273292 0
M  V30 3 N 3.25207 1.03811 0.94468 0
M  V30 4 N 1.95723 0.752957 1.06823 0
M  V30 5 C 1.53036 0.170598 -0.067969 0
M  V30 6 N 2.60274 0.114695 -0.874168 0
M  V30 7 C 0.155479 -0.312736 -0.371848 0 CFG=1
M  V30 8 C -0.126266 -1.4575 0.570529 0
M  V30 9 C -1.49287 -2.01829 0.459676 0
M  V30 10 C -2.40341 -1.31524 -0.483514 0
M  V30 11 C -3.00282 -0.121826 0.263693 0
M  V30 12 C -1.81838 0.61199 0.879366 0
M  V30 13 C -0.815293 0.820672 -0.23086 0 CFG=1
M  V30 14 N -0.143976 2.09757 -0.0166293 0
M  V30 15 H 5.43335 -0.0287795 -1.35367 0
M  V30 16 H 5.56793 1.62555 -0.727982 0
M  V30 17 H 1.35992 0.950748 1.91889 0
M  V30 18 H 0.156477 -0.737342 -1.39669 0
M  V30 19 H 0.598208 -2.27414 0.27919 0
M  V30 20 H 0.180703 -1.1656 1.59614 0
M  V30 21 H -1.49583 -3.11023 0.173229 0
M  V30 22 H -1.95981 -2.00955 1.48457 0
M  V30 23 H -1.94619 -1.02095 -1.4259 0
M  V30 24 H -3.2596 -1.98429 -0.711701 0
M  V30 25 H -3.44102 0.548051 -0.494368 0
M  V30 26 H -3.72333 -0.459678 1.01913 0
M  V30 27 H -2.20841 1.59205 1.24728 0
M  V30 28 H -1.42498 0.0830635 1.74519 0
M  V30 29 H -1.36156 0.919805 -1.19599 0
M  V30 30 H -0.474744 2.83395 -0.684977 0
M  V30 31 H -0.368132 2.45686 0.938446 0
M  V30 END ATOM
M  V30 BEGIN BOND
M  V30 1 1 1 2
M  V30 2 2 2 3
M  V30 3 1 3 4
M  V30 4 1 4 5
M  V30 5 2 5 6
M  V30 6 1 5 7
M  V30 7 1 7 8
M  V30 8 1 8 9
M  V30 9 1 9 10
M  V30 10 1 10 11
M  V30 11 1 11 12
M  V30 12 1 12 13
M  V30 13 1 13 14
M  V30 14 1 6 2
M  V30 15 1 13 7
M  V30 16 1 1 15
M  V30 17 1 1 16
M  V30 18 1 4 17
M  V30 19 1 7 18 CFG=3
M  V30 20 1 8 19
M  V30 21 1 8 20
M  V30 22 1 9 21
M  V30 23 1 9 22
M  V30 24 1 10 23
M  V30 25 1 10 24
M  V30 26 1 11 25
M  V30 27 1 11 26
M  V30 28 1 12 27
M  V30 29 1 12 28
M  V30 30 1 13 29 CFG=3
M  V30 31 1 14 30
M  V30 32 1 14 31
M  V30 END BOND
M  V30 END CTAB
M  END
