
     RDKit          3D

  0  0  0  0  0  0  0  0  0  0999 V3000
M  V30 BEGIN CTAB
M  V30 COUNTS 24 24 0 0 0
M  V30 BEGIN ATOM
M  V30 1 N 2.72 0.848103 -0.639847 0
M  V30 2 C 2.49036 -0.526111 -0.30276 0
M  V30 3 C 1.20198 -1.10499 -0.765405 0
M  V30 4 C -0.0199143 -0.475982 -0.277095 0
M  V30 5 C -0.724702 0.356882 -1.11379 0
M  V30 6 C -1.89004 0.990666 -0.730103 0
M  V30 7 O -2.59952 1.84347 -1.59639 0
M  V30 8 C -2.37808 0.789549 0.537729 0
M  V30 9 O -3.54409 1.41218 0.94589 0
M  V30 10 C -1.66872 -0.0545381 1.39199 0
M  V30 11 C -0.50379 -0.679479 0.99041 0
M  V30 12 N 0.157967 -1.52975 1.93258 0
M  V30 13 H 2.45625 1.4514 0.186618 0
M  V30 14 H 3.76679 1.0015 -0.719952 0
M  V30 15 H 2.67722 -0.645841 0.785607 0
M  V30 16 H 3.30452 -1.13153 -0.797314 0
M  V30 17 H 1.24993 -2.20805 -0.546005 0
M  V30 18 H 1.22745 -1.05434 -1.89534 0
M  V30 19 H -0.411632 0.578331 -2.14034 0
M  V30 20 H -2.23273 1.98499 -2.52909 0
M  V30 21 H -4.02133 2.02248 0.29004 0
M  V30 22 H -2.06046 -0.211691 2.3948 0
M  V30 23 H 0.455576 -2.4963 1.71162 0
M  V30 24 H 0.346977 -1.16093 2.88616 0
M  V30 END ATOM
M  V30 BEGIN BOND
M  V30 1 1 1 2
M  V30 2 1 2 3
M  V30 3 1 3 4
M  V30 4 2 4 5
M  V30 5 1 5 6
M  V30 6 1 6 7
M  V30 7 2 6 8
M  V30 8 1 8 9
M  V30 9 1 8 10
M  V30 10 2 10 11
M  V30 11 1 11 12
M  V30 12 1 11 4
M  V30 13 1 1 13
M  V30 14 1 1 14
M  V30 15 1 2 15
M  V30 16 1 2 16
M  V30 17 1 3 17
M  V30 18 1 3 18
M  V30 19 1 5 19
M  V30 20 1 7 20
M  V30 21 1 9 21
M  V30 22 1 10 22
M  V30 23 1 12 23
M  V30 24 1 12 24
M  V30 END BOND
M  V30 END CTAB
M  END
