
     RDKit          3D

  0  0  0  0  0  0  0  0  0  0999 V3000
M  V30 BEGIN CTAB
M  V30 COUNTS 19 20 0 0 0
M  V30 BEGIN ATOM
M  V30 1 O 4.46932 -0.641438 0.784072 0
M  V30 2 C 3.25497 -0.433741 0.566952 0
M  V30 3 N 2.60363 0.721221 0.323926 0
M  V30 4 C 1.29061 0.477339 0.145976 0
M  V30 5 C 1.16091 -0.888176 0.291091 0
M  V30 6 O 2.34967 -1.38678 0.539456 0
M  V30 7 C -0.097752 -1.43445 0.158407 0
M  V30 8 C -1.21242 -0.671969 -0.110246 0
M  V30 9 C -1.10384 0.704703 -0.260053 0
M  V30 10 C 0.16929 1.23218 -0.122804 0
M  V30 11 N -2.23791 1.51603 -0.537697 0
M  V30 12 N -2.48496 -1.26633 -0.239289 0
M  V30 13 H 3.04375 1.67121 0.278285 0
M  V30 14 H -0.184547 -2.52377 0.276795 0
M  V30 15 H 0.267706 2.30092 -0.236868 0
M  V30 16 H -2.42473 2.42687 -0.0709219 0
M  V30 17 H -2.92169 1.18269 -1.2475 0
M  V30 18 H -2.91865 -1.47371 -1.1586 0
M  V30 19 H -3.02338 -1.5128 0.619017 0
M  V30 END ATOM
M  V30 BEGIN BOND
M  V30 1 2 1 2
M  V30 2 1 2 3
M  V30 3 1 3 4
M  V30 4 2 4 5
M  V30 5 1 5 6
M  V30 6 1 5 7
M  V30 7 2 7 8
M  V30 8 1 8 9
M  V30 9 2 9 10
M  V30 10 1 9 11
M  V30 11 1 8 12
M  V30 12 1 6 2
M  V30 13 1 10 4
M  V30 14 1 3 13
M  V30 15 1 7 14
M  V30 16 1 10 15
M  V30 17 1 11 16
M  V30 18 1 11 17
M  V30 19 1 12 18
M  V30 20 1 12 19
M  V30 END BOND
M  V30 END CTAB
M  END
