
     RDKit          3D

  0  0  0  0  0  0  0  0  0  0999 V3000
M  V30 BEGIN CTAB
M  V30 COUNTS 22 22 0 0 0
M  V30 BEGIN ATOM
M  V30 1 N 3.34757 1.02303 -0.475399 0
M  V30 2 C 2.48008 0.664641 0.644517 0
M  V30 3 C 1.26287 -0.0590699 0.20326 0
M  V30 4 C 0.0167928 0.384716 0.61645 0
M  V30 5 C -1.13119 -0.3255 0.229686 0
M  V30 6 C -1.03061 -1.44528 -0.550301 0
M  V30 7 C 0.229403 -1.85697 -0.940034 0
M  V30 8 C 1.32322 -1.1774 -0.567866 0
M  V30 9 Cl 2.8992 -1.74744 -1.08342 0
M  V30 10 Cl -2.46328 -2.31488 -1.05788 0
M  V30 11 S -2.69946 0.229438 0.833862 0
M  V30 12 O -3.37905 -0.942142 1.542 0
M  V30 13 O -2.4924 1.35379 1.78479 0
M  V30 14 N -3.72027 0.673632 -0.471823 0
M  V30 15 H 3.00775 1.84709 -1.00899 0
M  V30 16 H 4.28395 1.28931 -0.032792 0
M  V30 17 H 2.08561 1.70948 1.02494 0
M  V30 18 H 2.95826 0.193674 1.48918 0
M  V30 19 H -0.149623 1.23703 1.23803 0
M  V30 20 H 0.305756 -2.74422 -1.55345 0
M  V30 21 H -3.36157 0.272717 -1.35141 0
M  V30 22 H -3.77302 1.73433 -0.513378 0
M  V30 END ATOM
M  V30 BEGIN BOND
M  V30 1 1 1 2
M  V30 2 1 2 3
M  V30 3 2 3 4
M  V30 4 1 4 5
M  V30 5 2 5 6
M  V30 6 1 6 7
M  V30 7 2 7 8
M  V30 8 1 8 9
M  V30 9 1 6 10
M  V30 10 1 5 11
M  V30 11 2 11 12
M  V30 12 2 11 13
M  V30 13 1 11 14
M  V30 14 1 8 3
M  V30 15 1 1 15
M  V30 16 1 1 16
M  V30 17 1 2 17
M  V30 18 1 2 18
M  V30 19 1 4 19
M  V30 20 1 7 20
M  V30 21 1 14 21
M  V30 22 1 14 22
M  V30 END BOND
M  V30 END CTAB
M  END
