
     RDKit          3D

  0  0  0  0  0  0  0  0  0  0999 V3000
M  V30 BEGIN CTAB
M  V30 COUNTS 37 39 0 0 0
M  V30 BEGIN ATOM
M  V30 1 N -7.02408 0.827879 0.652958 0
M  V30 2 C -5.67152 0.679005 0.209625 0
M  V30 3 N -5.24878 1.23195 -0.930484 0
M  V30 4 C -3.9724 1.12242 -1.40075 0
M  V30 5 N -3.59201 1.71603 -2.61775 0
M  V30 6 C -3.02823 0.400739 -0.676861 0
M  V30 7 C -3.48467 -0.166883 0.504783 0
M  V30 8 C -2.58125 -0.893629 1.24961 0
M  V30 9 C -1.26083 -1.03115 0.798019 0
M  V30 10 C -0.802949 -0.474233 -0.365064 0
M  V30 11 N 0.500644 -0.583725 -0.86682 0
M  V30 12 C 1.56038 -1.24198 -0.272788 0
M  V30 13 O 1.48215 -1.83352 0.819356 0
M  V30 14 C 2.9294 -1.29656 -0.917314 0
M  V30 15 C 3.96374 -0.705163 -0.0600724 0
M  V30 16 C 4.25074 0.648886 -0.212525 0
M  V30 17 C 5.21383 1.27675 0.563982 0
M  V30 18 C 5.91104 0.568364 1.50836 0
M  V30 19 Cl 7.11234 1.39363 2.46503 0
M  V30 20 C 5.65251 -0.779336 1.68686 0
M  V30 21 C 4.67716 -1.37393 0.887685 0
M  V30 22 C -1.74592 0.26384 -1.1085 0
M  V30 23 Cl -1.21157 1.00734 -2.61287 0
M  V30 24 N -4.76367 -0.0165602 0.907654 0
M  V30 25 H -7.27074 1.0223 1.63685 0
M  V30 26 H -7.76332 0.728653 -0.0792122 0
M  V30 27 H -3.2411 2.69497 -2.62212 0
M  V30 28 H -3.65571 1.2142 -3.54049 0
M  V30 29 H -2.92601 -1.34449 2.17389 0
M  V30 30 H -0.626661 -1.61442 1.43856 0
M  V30 31 H 0.705435 -0.110943 -1.80114 0
M  V30 32 H 3.19504 -2.371 -1.0901 0
M  V30 33 H 2.88577 -0.805186 -1.88706 0
M  V30 34 H 3.73032 1.24812 -0.941018 0
M  V30 35 H 5.40193 2.32801 0.408922 0
M  V30 36 H 6.21743 -1.29721 2.4342 0
M  V30 37 H 4.48156 -2.43317 1.03626 0
M  V30 END ATOM
M  V30 BEGIN BOND
M  V30 1 1 1 2
M  V30 2 2 2 3
M  V30 3 1 3 4
M  V30 4 1 4 5
M  V30 5 2 4 6
M  V30 6 1 6 7
M  V30 7 1 7 8
M  V30 8 2 8 9
M  V30 9 1 9 10
M  V30 10 1 10 11
M  V30 11 1 11 12
M  V30 12 2 12 13
M  V30 13 1 12 14
M  V30 14 1 14 15
M  V30 15 2 15 16
M  V30 16 1 16 17
M  V30 17 2 17 18
M  V30 18 1 18 19
M  V30 19 1 18 20
M  V30 20 2 20 21
M  V30 21 2 10 22
M  V30 22 1 22 23
M  V30 23 2 7 24
M  V30 24 1 24 2
M  V30 25 1 22 6
M  V30 26 1 21 15
M  V30 27 1 1 25
M  V30 28 1 1 26
M  V30 29 1 5 27
M  V30 30 1 5 28
M  V30 31 1 8 29
M  V30 32 1 9 30
M  V30 33 1 11 31
M  V30 34 1 14 32
M  V30 35 1 14 33
M  V30 36 1 16 34
M  V30 37 1 17 35
M  V30 38 1 20 36
M  V30 39 1 21 37
M  V30 END BOND
M  V30 END CTAB
M  END
