
     RDKit          3D

  0  0  0  0  0  0  0  0  0  0999 V3000
M  V30 BEGIN CTAB
M  V30 COUNTS 27 28 0 0 0
M  V30 BEGIN ATOM
M  V30 1 N 4.75292 0.894733 0.910566 0
M  V30 2 C 3.4726 0.56668 0.409713 0
M  V30 3 N 2.65908 1.47156 -0.167714 0
M  V30 4 C 1.44127 1.13052 -0.654527 0
M  V30 5 C 0.981108 -0.191448 -0.57208 0
M  V30 6 C -0.324917 -0.482469 -1.09459 0
M  V30 7 C -1.55952 -0.113737 -0.487787 0
M  V30 8 C -2.30372 -0.763627 0.423068 0
M  V30 9 Cl -1.86578 -2.3311 1.10842 0
M  V30 10 C -3.54819 -0.28008 0.901847 0
M  V30 11 C -4.04442 0.892802 0.435356 0
M  V30 12 C -3.32302 1.58985 -0.486692 0
M  V30 13 C -2.1216 1.11013 -0.937654 0
M  V30 14 C 1.84066 -1.04835 0.0147861 0
M  V30 15 N 1.59275 -2.45663 0.0559324 0
M  V30 16 N 3.07805 -0.70556 0.511364 0
M  V30 17 H 4.92505 1.71481 1.57935 0
M  V30 18 H 5.62551 0.374149 0.683837 0
M  V30 19 H 0.788282 1.83822 -1.12413 0
M  V30 20 H -0.31319 -1.65727 -1.27428 0
M  V30 21 H -0.380987 -0.152027 -2.22592 0
M  V30 22 H -4.07179 -0.896025 1.63372 0
M  V30 23 H -5.00803 1.22472 0.8466 0
M  V30 24 H -3.77453 2.51066 -0.837334 0
M  V30 25 H -1.56335 1.70374 -1.66099 0
M  V30 26 H 1.9949 -3.09382 -0.6771 0
M  V30 27 H 1.05087 -2.85043 0.82383 0
M  V30 END ATOM
M  V30 BEGIN BOND
M  V30 1 1 1 2
M  V30 2 2 2 3
M  V30 3 1 3 4
M  V30 4 2 4 5
M  V30 5 1 5 6
M  V30 6 1 6 7
M  V30 7 2 7 8
M  V30 8 1 8 9
M  V30 9 1 8 10
M  V30 10 2 10 11
M  V30 11 1 11 12
M  V30 12 2 12 13
M  V30 13 1 5 14
M  V30 14 1 14 15
M  V30 15 2 14 16
M  V30 16 1 16 2
M  V30 17 1 13 7
M  V30 18 1 1 17
M  V30 19 1 1 18
M  V30 20 1 4 19
M  V30 21 1 6 20
M  V30 22 1 6 21
M  V30 23 1 10 22
M  V30 24 1 11 23
M  V30 25 1 12 24
M  V30 26 1 13 25
M  V30 27 1 15 26
M  V30 28 1 15 27
M  V30 END BOND
M  V30 END CTAB
M  END
