
     RDKit          3D

  0  0  0  0  0  0  0  0  0  0999 V3000
M  V30 BEGIN CTAB
M  V30 COUNTS 36 37 0 0 0
M  V30 BEGIN ATOM
M  V30 1 C -6.07981 0.0748888 1.51131 0
M  V30 2 O -5.50978 -0.352566 0.300121 0
M  V30 3 C -4.13731 -0.32708 0.0603805 0
M  V30 4 C -3.25517 0.121517 1.0022 0
M  V30 5 C -1.86981 0.148615 0.763113 0
M  V30 6 C -1.31992 -0.272041 -0.42028 0
M  V30 7 C -2.25445 -0.72493 -1.36353 0
M  V30 8 C -3.60973 -0.750684 -1.13085 0
M  V30 9 N -1.72952 -1.18665 -2.62444 0
M  V30 10 C 0.0695661 -0.212426 -0.802207 0
M  V30 11 O 0.294078 -0.419603 -2.08059 0
M  V30 12 C 1.25177 0.0347408 -0.0272932 0
M  V30 13 C 1.34408 0.0214557 1.33508 0
M  V30 14 C 2.56055 0.192568 2.0231 0
M  V30 15 C 3.71518 0.380036 1.31867 0
M  V30 16 C 3.67059 0.398466 -0.0395055 0
M  V30 17 C 2.46908 0.230069 -0.691736 0
M  V30 18 N 2.42968 0.258961 -2.11867 0
M  V30 19 O 4.93249 0.551679 1.97765 0
M  V30 20 C 6.1235 0.745271 1.23829 0
M  V30 21 H -6.11278 1.17387 1.61183 0
M  V30 22 H -5.48395 -0.287179 2.40081 0
M  V30 23 H -7.09513 -0.38631 1.672 0
M  V30 24 H -3.64399 0.463736 1.95592 0
M  V30 25 H -1.26007 0.556971 1.53318 0
M  V30 26 H -4.27704 -1.121 -1.92406 0
M  V30 27 H -1.72599 -0.576312 -3.47816 0
M  V30 28 H -1.354 -2.15871 -2.64454 0
M  V30 29 H 0.515636 -0.163016 1.96911 0
M  V30 30 H 2.59133 0.177131 3.1124 0
M  V30 31 H 4.5677 0.544648 -0.657908 0
M  V30 32 H 2.15063 1.10744 -2.63736 0
M  V30 33 H 2.68921 -0.598359 -2.65136 0
M  V30 34 H 6.217 -0.0142658 0.416305 0
M  V30 35 H 6.15561 1.74878 0.757204 0
M  V30 36 H 6.97076 0.620295 1.9717 0
M  V30 END ATOM
M  V30 BEGIN BOND
M  V30 1 1 1 2
M  V30 2 1 2 3
M  V30 3 2 3 4
M  V30 4 1 4 5
M  V30 5 2 5 6
M  V30 6 1 6 7
M  V30 7 2 7 8
M  V30 8 1 7 9
M  V30 9 1 6 10
M  V30 10 2 10 11
M  V30 11 1 10 12
M  V30 12 2 12 13
M  V30 13 1 13 14
M  V30 14 2 14 15
M  V30 15 1 15 16
M  V30 16 2 16 17
M  V30 17 1 17 18
M  V30 18 1 15 19
M  V30 19 1 19 20
M  V30 20 1 8 3
M  V30 21 1 17 12
M  V30 22 1 1 21
M  V30 23 1 1 22
M  V30 24 1 1 23
M  V30 25 1 4 24
M  V30 26 1 5 25
M  V30 27 1 8 26
M  V30 28 1 9 27
M  V30 29 1 9 28
M  V30 30 1 13 29
M  V30 31 1 14 30
M  V30 32 1 16 31
M  V30 33 1 18 32
M  V30 34 1 18 33
M  V30 35 1 20 34
M  V30 36 1 20 35
M  V30 37 1 20 36
M  V30 END BOND
M  V30 END CTAB
M  END
