
     RDKit          3D

  0  0  0  0  0  0  0  0  0  0999 V3000
M  V30 BEGIN CTAB
M  V30 COUNTS 45 45 0 0 0
M  V30 BEGIN ATOM
M  V30 1 N -1.64701 5.24817 1.00982 0
M  V30 2 C -1.72155 3.8072 0.808514 0
M  V30 3 C -1.48353 3.54484 -0.652002 0
M  V30 4 C -1.54025 2.06654 -1.00351 0
M  V30 5 C -0.494885 1.35217 -0.227528 0
M  V30 6 N -0.43974 -0.0815164 -0.483867 0
M  V30 7 C 0.604992 -0.646967 0.339551 0
M  V30 8 C 1.98068 -0.243578 -0.0457102 0
M  V30 9 C 2.94103 -0.930186 0.928849 0
M  V30 10 C 4.37543 -0.56205 0.597207 0
M  V30 11 N 4.53416 0.88301 0.70266 0
M  V30 12 C -1.667 -0.743284 -0.160192 0
M  V30 13 C -1.65453 -2.17795 -0.504869 0
M  V30 14 C -0.875064 -2.75954 -1.44927 0
M  V30 15 C -0.896364 -4.11169 -1.74646 0
M  V30 16 C -1.75245 -4.94241 -1.05632 0
M  V30 17 C -2.56512 -4.36996 -0.0799845 0
M  V30 18 C -2.52448 -3.01959 0.197011 0
M  V30 19 H -1.77115 5.50234 2.01581 0
M  V30 20 H -0.682826 5.54688 0.698805 0
M  V30 21 H -2.7025 3.47472 1.14664 0
M  V30 22 H -0.95745 3.36575 1.47327 0
M  V30 23 H -0.518404 3.96962 -0.932459 0
M  V30 24 H -2.31977 4.07742 -1.1949 0
M  V30 25 H -2.57786 1.75772 -0.799946 0
M  V30 26 H -1.35174 1.95739 -2.07123 0
M  V30 27 H 0.498234 1.74658 -0.59064 0
M  V30 28 H -0.572918 1.47846 0.873323 0
M  V30 29 H 0.425852 -0.206605 1.3689 0
M  V30 30 H 0.550729 -1.72743 0.477741 0
M  V30 31 H 2.20286 0.837263 0.0481305 0
M  V30 32 H 2.21018 -0.563477 -1.08403 0
M  V30 33 H 2.74954 -0.629413 1.9611 0
M  V30 34 H 2.86629 -2.02955 0.864192 0
M  V30 35 H 4.69079 -0.950941 -0.391142 0
M  V30 36 H 5.05796 -1.01489 1.343 0
M  V30 37 H 4.95957 1.13174 1.62215 0
M  V30 38 H 5.1838 1.22139 -0.0285484 0
M  V30 39 H -1.86842 -0.688062 0.952254 0
M  V30 40 H -2.56252 -0.257488 -0.600159 0
M  V30 41 H -0.186375 -2.12128 -2.01169 0
M  V30 42 H -0.271869 -4.56973 -2.50076 0
M  V30 43 H -1.81171 -6.00642 -1.24623 0
M  V30 44 H -3.24297 -5.03669 0.462095 0
M  V30 45 H -3.17165 -2.57853 0.970455 0
M  V30 END ATOM
M  V30 BEGIN BOND
M  V30 1 1 1 2
M  V30 2 1 2 3
M  V30 3 1 3 4
M  V30 4 1 4 5
M  V30 5 1 5 6
M  V30 6 1 6 7
M  V30 7 1 7 8
M  V30 8 1 8 9
M  V30 9 1 9 10
M  V30 10 1 10 11
M  V30 11 1 6 12
M  V30 12 1 12 13
M  V30 13 2 13 14
M  V30 14 1 14 15
M  V30 15 2 15 16
M  V30 16 1 16 17
M  V30 17 2 17 18
M  V30 18 1 18 13
M  V30 19 1 1 19
M  V30 20 1 1 20
M  V30 21 1 2 21
M  V30 22 1 2 22
M  V30 23 1 3 23
M  V30 24 1 3 24
M  V30 25 1 4 25
M  V30 26 1 4 26
M  V30 27 1 5 27
M  V30 28 1 5 28
M  V30 29 1 7 29
M  V30 30 1 7 30
M  V30 31 1 8 31
M  V30 32 1 8 32
M  V30 33 1 9 33
M  V30 34 1 9 34
M  V30 35 1 10 35
M  V30 36 1 10 36
M  V30 37 1 11 37
M  V30 38 1 11 38
M  V30 39 1 12 39
M  V30 40 1 12 40
M  V30 41 1 14 41
M  V30 42 1 15 42
M  V30 43 1 16 43
M  V30 44 1 17 44
M  V30 45 1 18 45
M  V30 END BOND
M  V30 END CTAB
M  END
