
     RDKit          3D

  0  0  0  0  0  0  0  0  0  0999 V3000
M  V30 BEGIN CTAB
M  V30 COUNTS 37 39 0 0 0
M  V30 BEGIN ATOM
M  V30 1 N -3.80364 -3.16908 1.18113 0
M  V30 2 C -3.5435 -2.05687 1.40896 0
M  V30 3 C -3.22329 -0.646314 1.68408 0
M  V30 4 C -3.86727 0.224375 0.675424 0
M  V30 5 N -4.80128 1.15383 1.03785 0
M  V30 6 C -5.39174 1.94465 0.125714 0
M  V30 7 N -6.36477 2.92464 0.438024 0
M  V30 8 N -5.03921 1.80076 -1.17318 0
M  V30 9 C -4.1268 0.901043 -1.57354 0
M  V30 10 N -3.56285 0.131858 -0.624398 0
M  V30 11 N -3.78651 0.783484 -2.94701 0
M  V30 12 C -1.76078 -0.502056 1.69502 0
M  V30 13 O -1.22291 -0.0377419 2.75217 0
M  V30 14 N -0.997071 -0.867955 0.573881 0
M  V30 15 C 0.435042 -0.697689 0.657424 0
M  V30 16 N 1.15218 -0.232527 1.66902 0
M  V30 17 C 2.43495 -0.150576 1.56363 0
M  V30 18 C 3.01585 -0.555647 0.387093 0
M  V30 19 S 1.64124 -1.04071 -0.51406 0
M  V30 20 C 4.42703 -0.563708 0.0203105 0
M  V30 21 C 4.80382 -1.01373 -1.22095 0
M  V30 22 C 6.1138 -1.05044 -1.63614 0
M  V30 23 C 7.0693 -0.610894 -0.74859 0
M  V30 24 C 6.71504 -0.15104 0.512244 0
M  V30 25 C 5.3795 -0.126791 0.901905 0
M  V30 26 H -3.66422 -0.439717 2.70375 0
M  V30 27 H -7.01124 2.74825 1.22934 0
M  V30 28 H -6.4609 3.81207 -0.0889107 0
M  V30 29 H -4.06227 1.52485 -3.60365 0
M  V30 30 H -3.26219 -0.0349777 -3.31774 0
M  V30 31 H -1.44938 -1.24267 -0.271695 0
M  V30 32 H 3.08089 0.23251 2.38317 0
M  V30 33 H 4.02977 -1.36187 -1.91978 0
M  V30 34 H 6.32498 -1.41806 -2.62634 0
M  V30 35 H 8.12165 -0.630489 -1.05691 0
M  V30 36 H 7.51337 0.179007 1.15887 0
M  V30 37 H 5.14342 0.240212 1.8966 0
M  V30 END ATOM
M  V30 BEGIN BOND
M  V30 1 3 1 2
M  V30 2 1 2 3
M  V30 3 1 3 4
M  V30 4 2 4 5
M  V30 5 1 5 6
M  V30 6 1 6 7
M  V30 7 2 6 8
M  V30 8 1 8 9
M  V30 9 2 9 10
M  V30 10 1 9 11
M  V30 11 1 3 12
M  V30 12 2 12 13
M  V30 13 1 12 14
M  V30 14 1 14 15
M  V30 15 2 15 16
M  V30 16 1 16 17
M  V30 17 2 17 18
M  V30 18 1 18 19
M  V30 19 1 18 20
M  V30 20 2 20 21
M  V30 21 1 21 22
M  V30 22 2 22 23
M  V30 23 1 23 24
M  V30 24 2 24 25
M  V30 25 1 10 4
M  V30 26 1 19 15
M  V30 27 1 25 20
M  V30 28 1 3 26
M  V30 29 1 7 27
M  V30 30 1 7 28
M  V30 31 1 11 29
M  V30 32 1 11 30
M  V30 33 1 14 31
M  V30 34 1 17 32
M  V30 35 1 21 33
M  V30 36 1 22 34
M  V30 37 1 23 35
M  V30 38 1 24 36
M  V30 39 1 25 37
M  V30 END BOND
M  V30 END CTAB
M  END
