
     RDKit          3D

  0  0  0  0  0  0  0  0  0  0999 V3000
M  V30 BEGIN CTAB
M  V30 COUNTS 52 53 0 0 0
M  V30 BEGIN ATOM
M  V30 1 O -2.77832 -0.602177 -1.9759 0
M  V30 2 C -3.03131 -1.54511 -1.22375 0
M  V30 3 N -4.3656 -1.90222 -0.893425 0
M  V30 4 S -5.64059 -0.964427 -1.58031 0
M  V30 5 O -5.15838 -0.196811 -2.7832 0
M  V30 6 O -6.69807 -1.97866 -2.00635 0
M  V30 7 C -6.23591 0.0999887 -0.354235 0
M  V30 8 C -5.90834 1.43017 -0.365092 0
M  V30 9 C -6.37341 2.30178 0.613973 0
M  V30 10 C -7.19078 1.82894 1.63502 0
M  V30 11 C -7.51618 0.501761 1.64634 0
M  V30 12 C -7.04368 -0.35324 0.66148 0
M  V30 13 N -7.67613 2.74038 2.63832 0
M  V30 14 C -1.96513 -2.35777 -0.619494 0
M  V30 15 C -0.615482 -1.76107 -1.06214 0
M  V30 16 C 0.470198 -2.5677 -0.444577 0
M  V30 17 C 1.85621 -2.1682 -0.725428 0
M  V30 18 C 2.20741 -0.818202 -0.259141 0
M  V30 19 O 1.34844 -0.0634157 0.217002 0
M  V30 20 N 3.55443 -0.354525 -0.345241 0
M  V30 21 S 3.96882 1.22284 0.202472 0
M  V30 22 O 3.3952 1.49685 1.5867 0
M  V30 23 O 3.45073 2.30932 -0.692 0
M  V30 24 C 5.707 1.29395 0.354463 0
M  V30 25 C 6.43543 1.69018 -0.747149 0
M  V30 26 C 7.8137 1.70448 -0.584291 0
M  V30 27 C 8.4013 1.34509 0.604145 0
M  V30 28 C 7.65418 0.952965 1.69452 0
M  V30 29 C 6.27577 0.934031 1.54471 0
M  V30 30 N 9.81653 1.34459 0.779803 0
M  V30 31 H -4.59715 -2.7057 -0.255885 0
M  V30 32 H -5.26457 1.82004 -1.16884 0
M  V30 33 H -6.13586 3.35258 0.638564 0
M  V30 34 H -8.14689 0.128491 2.4351 0
M  V30 35 H -7.29992 -1.42105 0.668991 0
M  V30 36 H -8.64505 3.09001 2.51179 0
M  V30 37 H -7.12959 3.05604 3.45321 0
M  V30 38 H -2.00121 -3.4394 -0.960918 0
M  V30 39 H -2.02878 -2.3632 0.501163 0
M  V30 40 H -0.67708 -0.711131 -0.823627 0
M  V30 41 H -0.615016 -1.84018 -2.17248 0
M  V30 42 H 0.276506 -2.65829 0.653005 0
M  V30 43 H 0.342013 -3.62814 -0.81378 0
M  V30 44 H 2.08932 -2.29761 -1.8135 0
M  V30 45 H 2.52812 -2.93127 -0.212037 0
M  V30 46 H 4.31276 -0.967215 -0.73848 0
M  V30 47 H 6.01155 1.97938 -1.69531 0
M  V30 48 H 8.42032 2.00714 -1.41883 0
M  V30 49 H 8.06889 0.66014 2.64854 0
M  V30 50 H 5.6808 0.621028 2.41879 0
M  V30 51 H 10.2619 1.51698 1.7241 0
M  V30 52 H 10.3909 1.16758 -0.0600698 0
M  V30 END ATOM
M  V30 BEGIN BOND
M  V30 1 2 1 2
M  V30 2 1 2 3
M  V30 3 1 3 4
M  V30 4 2 4 5
M  V30 5 2 4 6
M  V30 6 1 4 7
M  V30 7 2 7 8
M  V30 8 1 8 9
M  V30 9 2 9 10
M  V30 10 1 10 11
M  V30 11 2 11 12
M  V30 12 1 10 13
M  V30 13 1 2 14
M  V30 14 1 14 15
M  V30 15 1 15 16
M  V30 16 1 16 17
M  V30 17 1 17 18
M  V30 18 2 18 19
M  V30 19 1 18 20
M  V30 20 1 20 21
M  V30 21 2 21 22
M  V30 22 2 21 23
M  V30 23 1 21 24
M  V30 24 2 24 25
M  V30 25 1 25 26
M  V30 26 2 26 27
M  V30 27 1 27 28
M  V30 28 2 28 29
M  V30 29 1 27 30
M  V30 30 1 12 7
M  V30 31 1 29 24
M  V30 32 1 3 31
M  V30 33 1 8 32
M  V30 34 1 9 33
M  V30 35 1 11 34
M  V30 36 1 12 35
M  V30 37 1 13 36
M  V30 38 1 13 37
M  V30 39 1 14 38
M  V30 40 1 14 39
M  V30 41 1 15 40
M  V30 42 1 15 41
M  V30 43 1 16 42
M  V30 44 1 16 43
M  V30 45 1 17 44
M  V30 46 1 17 45
M  V30 47 1 20 46
M  V30 48 1 25 47
M  V30 49 1 26 48
M  V30 50 1 28 49
M  V30 51 1 29 50
M  V30 52 1 30 51
M  V30 53 1 30 52
M  V30 END BOND
M  V30 END CTAB
M  END
