
     RDKit          3D

  0  0  0  0  0  0  0  0  0  0999 V3000
M  V30 BEGIN CTAB
M  V30 COUNTS 42 43 0 0 0
M  V30 BEGIN ATOM
M  V30 1 N -3.35989 4.14035 0.820177 0
M  V30 2 C -2.26786 3.64322 1.6208 0
M  V30 3 C -1.36289 2.83436 0.736077 0
M  V30 4 C -0.184266 2.26156 1.45976 0
M  V30 5 C -0.587057 1.33202 2.59713 0
M  V30 6 C -1.53473 0.340195 2.01783 0
M  V30 7 C -0.999198 -0.442805 0.84324 0
M  V30 8 N 0.0283406 0.200165 0.0938682 0
M  V30 9 C 0.656917 1.45194 0.535665 0
M  V30 10 C 0.511009 -0.32563 -1.10591 0
M  V30 11 O 1.43245 0.344454 -1.7168 0
M  V30 12 C 0.116647 -1.55291 -1.78735 0
M  V30 13 C 1.37278 -2.3307 -2.12278 0
M  V30 14 C 1.98893 -2.23568 -3.34774 0
M  V30 15 C 3.1366 -2.98172 -3.57533 0
M  V30 16 C 3.673 -3.80982 -2.61484 0
M  V30 17 C 3.04205 -3.89083 -1.39672 0
M  V30 18 C 1.88393 -3.14705 -1.14691 0
M  V30 19 N -0.835482 -2.38265 -1.13199 0
M  V30 20 H -3.61103 5.0886 1.21096 0
M  V30 21 H -3.07177 4.33547 -0.177338 0
M  V30 22 H -1.67637 4.50195 2.00904 0
M  V30 23 H -2.66973 3.1133 2.48235 0
M  V30 24 H -1.89043 2.00513 0.221817 0
M  V30 25 H -0.934165 3.56168 -0.0145437 0
M  V30 26 H 0.465554 3.09042 1.84229 0
M  V30 27 H -1.08492 1.85907 3.40956 0
M  V30 28 H 0.332599 0.817423 2.93015 0
M  V30 29 H -1.78341 -0.391 2.82545 0
M  V30 30 H -2.51082 0.83058 1.7663 0
M  V30 31 H -0.736286 -1.47988 1.18715 0
M  V30 32 H -1.88842 -0.572459 0.164234 0
M  V30 33 H 0.8999 2.09297 -0.357538 0
M  V30 34 H 1.62884 1.23827 1.03038 0
M  V30 35 H -0.31582 -1.31189 -2.82196 0
M  V30 36 H 1.58259 -1.59219 -4.11136 0
M  V30 37 H 3.58599 -2.87065 -4.56167 0
M  V30 38 H 4.56125 -4.39627 -2.77086 0
M  V30 39 H 3.43367 -4.53081 -0.61674 0
M  V30 40 H 1.37862 -3.19901 -0.200109 0
M  V30 41 H -1.78384 -2.25019 -1.54574 0
M  V30 42 H -0.623264 -3.38898 -1.15477 0
M  V30 END ATOM
M  V30 BEGIN BOND
M  V30 1 1 1 2
M  V30 2 1 2 3
M  V30 3 1 3 4
M  V30 4 1 4 5
M  V30 5 1 5 6
M  V30 6 1 6 7
M  V30 7 1 7 8
M  V30 8 1 8 9
M  V30 9 1 8 10
M  V30 10 2 10 11
M  V30 11 1 10 12
M  V30 12 1 12 13
M  V30 13 2 13 14
M  V30 14 1 14 15
M  V30 15 2 15 16
M  V30 16 1 16 17
M  V30 17 2 17 18
M  V30 18 1 12 19
M  V30 19 1 9 4
M  V30 20 1 18 13
M  V30 21 1 1 20
M  V30 22 1 1 21
M  V30 23 1 2 22
M  V30 24 1 2 23
M  V30 25 1 3 24
M  V30 26 1 3 25
M  V30 27 1 4 26
M  V30 28 1 5 27
M  V30 29 1 5 28
M  V30 30 1 6 29
M  V30 31 1 6 30
M  V30 32 1 7 31
M  V30 33 1 7 32
M  V30 34 1 9 33
M  V30 35 1 9 34
M  V30 36 1 12 35
M  V30 37 1 14 36
M  V30 38 1 15 37
M  V30 39 1 16 38
M  V30 40 1 17 39
M  V30 41 1 18 40
M  V30 42 1 19 41
M  V30 43 1 19 42
M  V30 END BOND
M  V30 END CTAB
M  END
