
     RDKit          3D

  0  0  0  0  0  0  0  0  0  0999 V3000
M  V30 BEGIN CTAB
M  V30 COUNTS 25 26 0 0 0
M  V30 BEGIN ATOM
M  V30 1 N -1.02586 1.88091 1.2098 0
M  V30 2 C -1.56417 0.867355 0.38656 0
M  V30 3 C -2.64343 1.1605 -0.431398 0
M  V30 4 C -3.18053 0.177739 -1.23045 0
M  V30 5 N -2.63507 -1.03896 -1.18829 0
M  V30 6 C -1.58584 -1.32991 -0.394842 0
M  V30 7 C -1.00283 -0.390017 0.428118 0
M  V30 8 C 0.15538 -0.702968 1.2934 0
M  V30 9 C 1.42152 -0.107334 0.728854 0
M  V30 10 C 2.1724 -0.590996 -0.31315 0
M  V30 11 C 3.27143 0.0979797 -0.652189 0
M  V30 12 C 3.5538 1.22448 0.0673023 0
M  V30 13 S 2.27811 1.29047 1.19559 0
M  V30 14 N 0.306159 -2.14682 1.4706 0
M  V30 15 H -0.714983 1.76343 2.18159 0
M  V30 16 H -0.935136 2.84527 0.79084 0
M  V30 17 H -3.08804 2.13973 -0.468999 0
M  V30 18 H -4.03882 0.395188 -1.88703 0
M  V30 19 H -1.16353 -2.33798 -0.385581 0
M  V30 20 H 0.064553 -0.268602 2.31009 0
M  V30 21 H 1.8499 -1.52328 -0.834942 0
M  V30 22 H 3.95052 -0.202522 -1.47789 0
M  V30 23 H 4.4102 1.907 -0.0738709 0
M  V30 24 H -0.648537 -2.51862 1.62426 0
M  V30 25 H 0.792786 -2.59204 0.686732 0
M  V30 END ATOM
M  V30 BEGIN BOND
M  V30 1 1 1 2
M  V30 2 2 2 3
M  V30 3 1 3 4
M  V30 4 2 4 5
M  V30 5 1 5 6
M  V30 6 2 6 7
M  V30 7 1 7 8
M  V30 8 1 8 9
M  V30 9 2 9 10
M  V30 10 1 10 11
M  V30 11 2 11 12
M  V30 12 1 12 13
M  V30 13 1 8 14
M  V30 14 1 7 2
M  V30 15 1 13 9
M  V30 16 1 1 15
M  V30 17 1 1 16
M  V30 18 1 3 17
M  V30 19 1 4 18
M  V30 20 1 6 19
M  V30 21 1 8 20
M  V30 22 1 10 21
M  V30 23 1 11 22
M  V30 24 1 12 23
M  V30 25 1 14 24
M  V30 26 1 14 25
M  V30 END BOND
M  V30 END CTAB
M  END
