
     RDKit          3D

  0  0  0  0  0  0  0  0  0  0999 V3000
M  V30 BEGIN CTAB
M  V30 COUNTS 27 27 0 0 0
M  V30 BEGIN ATOM
M  V30 1 C -2.43092 -2.44891 -0.627504 0
M  V30 2 O -2.25327 -1.13642 -0.143373 0
M  V30 3 C -0.989739 -0.633702 0.0168635 0
M  V30 4 C -0.823013 0.657702 0.493389 0
M  V30 5 O -1.88597 1.47824 0.820806 0
M  V30 6 C -2.46638 2.33569 -0.159685 0
M  V30 7 C 0.456638 1.1444 0.647328 0
M  V30 8 N 0.669032 2.45742 1.1309 0
M  V30 9 C 1.55437 0.35964 0.332482 0
M  V30 10 N 2.84553 0.907051 0.508745 0
M  V30 11 C 1.36759 -0.939204 -0.146383 0
M  V30 12 C 2.57753 -1.76391 -0.478444 0
M  V30 13 C 0.0898762 -1.42515 -0.300089 0
M  V30 14 H -1.86065 -3.20422 -0.036689 0
M  V30 15 H -3.53814 -2.64457 -0.587147 0
M  V30 16 H -2.07135 -2.56517 -1.67842 0
M  V30 17 H -2.98166 1.76313 -0.9559 0
M  V30 18 H -1.65857 2.9767 -0.602783 0
M  V30 19 H -3.2404 2.95973 0.337436 0
M  V30 20 H 0.211859 2.74182 2.01603 0
M  V30 21 H 1.26028 3.15701 0.647078 0
M  V30 22 H 3.62132 0.372926 0.936108 0
M  V30 23 H 3.03756 1.87723 0.203897 0
M  V30 24 H 2.3485 -2.83811 -0.257501 0
M  V30 25 H 3.44729 -1.49763 0.125202 0
M  V30 26 H 2.73255 -1.64559 -1.56507 0
M  V30 27 H -0.0198726 -2.44611 -0.677286 0
M  V30 END ATOM
M  V30 BEGIN BOND
M  V30 1 1 1 2
M  V30 2 1 2 3
M  V30 3 2 3 4
M  V30 4 1 4 5
M  V30 5 1 5 6
M  V30 6 1 4 7
M  V30 7 1 7 8
M  V30 8 2 7 9
M  V30 9 1 9 10
M  V30 10 1 9 11
M  V30 11 1 11 12
M  V30 12 2 11 13
M  V30 13 1 13 3
M  V30 14 1 1 14
M  V30 15 1 1 15
M  V30 16 1 1 16
M  V30 17 1 6 17
M  V30 18 1 6 18
M  V30 19 1 6 19
M  V30 20 1 8 20
M  V30 21 1 8 21
M  V30 22 1 10 22
M  V30 23 1 10 23
M  V30 24 1 12 24
M  V30 25 1 12 25
M  V30 26 1 12 26
M  V30 27 1 13 27
M  V30 END BOND
M  V30 END CTAB
M  END
