
     RDKit          3D

  0  0  0  0  0  0  0  0  0  0999 V3000
M  V30 BEGIN CTAB
M  V30 COUNTS 26 27 0 0 0
M  V30 BEGIN ATOM
M  V30 1 N -2.8721 -1.43014 0.141929 0
M  V30 2 C -2.2762 -0.312466 -0.501601 0
M  V30 3 C -1.24456 0.425292 0.331557 0
M  V30 4 C -1.63495 1.01247 1.62299 0
M  V30 5 C -1.44915 1.89125 0.403003 0
M  V30 6 C 0.130862 -0.116697 0.202326 0
M  V30 7 C 0.371372 -1.44801 -0.0251348 0
M  V30 8 C 1.66835 -1.9565 -0.145616 0
M  V30 9 C 2.73338 -1.11228 -0.0364637 0
M  V30 10 C 2.54038 0.231657 0.191855 0
M  V30 11 C 1.24282 0.714538 0.30841 0
M  V30 12 N 3.63802 1.13974 0.308445 0
M  V30 13 H -2.97998 -1.41749 1.15003 0
M  V30 14 H -2.79038 -2.34397 -0.303434 0
M  V30 15 H -1.81228 -0.689831 -1.45404 0
M  V30 16 H -3.08824 0.394156 -0.818685 0
M  V30 17 H -2.65658 0.993458 2.02335 0
M  V30 18 H -0.855884 1.03379 2.41863 0
M  V30 19 H -0.669923 2.63482 0.52008 0
M  V30 20 H -2.35904 2.30973 -0.0906951 0
M  V30 21 H -0.428458 -2.15921 -0.114629 0
M  V30 22 H 1.86932 -3.00345 -0.32313 0
M  V30 23 H 3.75328 -1.45264 -0.121495 0
M  V30 24 H 1.15529 1.77356 0.482003 0
M  V30 25 H 3.86319 1.53945 1.23552 0
M  V30 26 H 4.15148 1.34874 -0.56853 0
M  V30 END ATOM
M  V30 BEGIN BOND
M  V30 1 1 1 2
M  V30 2 1 2 3
M  V30 3 1 3 4
M  V30 4 1 4 5
M  V30 5 1 3 6
M  V30 6 2 6 7
M  V30 7 1 7 8
M  V30 8 2 8 9
M  V30 9 1 9 10
M  V30 10 2 10 11
M  V30 11 1 10 12
M  V30 12 1 5 3
M  V30 13 1 11 6
M  V30 14 1 1 13
M  V30 15 1 1 14
M  V30 16 1 2 15
M  V30 17 1 2 16
M  V30 18 1 4 17
M  V30 19 1 4 18
M  V30 20 1 5 19
M  V30 21 1 5 20
M  V30 22 1 7 21
M  V30 23 1 8 22
M  V30 24 1 9 23
M  V30 25 1 11 24
M  V30 26 1 12 25
M  V30 27 1 12 26
M  V30 END BOND
M  V30 END CTAB
M  END
