
     RDKit          3D

  0  0  0  0  0  0  0  0  0  0999 V3000
M  V30 BEGIN CTAB
M  V30 COUNTS 29 30 0 0 0
M  V30 BEGIN ATOM
M  V30 1 N 3.64787 1.10095 -2.11985 0
M  V30 2 C 3.97156 0.995881 -0.711993 0
M  V30 3 C 2.96539 0.12695 -0.0281319 0
M  V30 4 C 3.02371 -0.152687 1.32819 0
M  V30 5 C 1.93629 -0.972005 1.56059 0
M  V30 6 C 1.27218 -1.15567 0.362779 0
M  V30 7 C 0.0415343 -1.9839 0.206974 0
M  V30 8 C -1.16325 -1.15881 0.415831 0
M  V30 9 C -1.83812 -0.917709 1.61053 0
M  V30 10 C -2.88852 -0.0970679 1.29897 0
M  V30 11 C -2.82054 0.129419 -0.0438565 0
M  V30 12 C -3.75959 0.966513 -0.826697 0
M  V30 13 N -4.78752 1.53559 0.00787004 0
M  V30 14 O -1.80127 -0.506505 -0.523359 0
M  V30 15 O 1.92351 -0.482396 -0.548573 0
M  V30 16 H 4.29088 1.85324 -2.50731 0
M  V30 17 H 3.92667 0.188146 -2.56631 0
M  V30 18 H 4.97418 0.522651 -0.618918 0
M  V30 19 H 4.00064 1.99183 -0.229076 0
M  V30 20 H 3.74606 0.180515 2.06667 0
M  V30 21 H 1.67439 -1.38413 2.52514 0
M  V30 22 H 0.0144018 -2.82445 0.928363 0
M  V30 23 H -0.0130766 -2.43595 -0.81321 0
M  V30 24 H -1.585 -1.30137 2.59192 0
M  V30 25 H -3.63666 0.306882 1.95713 0
M  V30 26 H -3.24389 1.82359 -1.32647 0
M  V30 27 H -4.25148 0.368465 -1.64499 0
M  V30 28 H -4.46374 2.42782 0.473353 0
M  V30 29 H -5.15661 0.854216 0.709412 0
M  V30 END ATOM
M  V30 BEGIN BOND
M  V30 1 1 1 2
M  V30 2 1 2 3
M  V30 3 2 3 4
M  V30 4 1 4 5
M  V30 5 2 5 6
M  V30 6 1 6 7
M  V30 7 1 7 8
M  V30 8 2 8 9
M  V30 9 1 9 10
M  V30 10 2 10 11
M  V30 11 1 11 12
M  V30 12 1 12 13
M  V30 13 1 11 14
M  V30 14 1 6 15
M  V30 15 1 15 3
M  V30 16 1 14 8
M  V30 17 1 1 16
M  V30 18 1 1 17
M  V30 19 1 2 18
M  V30 20 1 2 19
M  V30 21 1 4 20
M  V30 22 1 5 21
M  V30 23 1 7 22
M  V30 24 1 7 23
M  V30 25 1 9 24
M  V30 26 1 10 25
M  V30 27 1 12 26
M  V30 28 1 12 27
M  V30 29 1 13 28
M  V30 30 1 13 29
M  V30 END BOND
M  V30 END CTAB
M  END
