
     RDKit          3D

  0  0  0  0  0  0  0  0  0  0999 V3000
M  V30 BEGIN CTAB
M  V30 COUNTS 28 28 0 0 0
M  V30 BEGIN ATOM
M  V30 1 N 2.42865 -1.35941 -0.332879 0
M  V30 2 C 1.79736 -0.84703 0.853598 0
M  V30 3 C 0.783353 0.217596 0.622216 0
M  V30 4 N -0.260987 -0.282694 -0.203601 0
M  V30 5 C -1.16365 0.697983 -0.730417 0
M  V30 6 C -2.40118 -0.0490772 -1.25725 0
M  V30 7 O -3.20366 -0.274189 -0.145231 0
M  V30 8 C -2.42569 -0.562277 0.943837 0
M  V30 9 C -1.08859 -1.20335 0.595727 0
M  V30 10 C 1.33479 1.55259 0.255286 0
M  V30 11 N 2.11399 1.60958 -0.92532 0
M  V30 12 H 1.89461 -2.09686 -0.818292 0
M  V30 13 H 3.3636 -1.7689 -0.0673435 0
M  V30 14 H 2.63168 -0.486882 1.52784 0
M  V30 15 H 1.37544 -1.72418 1.38144 0
M  V30 16 H 0.296425 0.375621 1.6396 0
M  V30 17 H -0.709945 1.14361 -1.65076 0
M  V30 18 H -1.5479 1.42591 -0.0215987 0
M  V30 19 H -2.1124 -0.993775 -1.7561 0
M  V30 20 H -2.93037 0.626396 -1.96838 0
M  V30 21 H -2.96552 -1.32798 1.54948 0
M  V30 22 H -2.2516 0.349911 1.55909 0
M  V30 23 H -0.604751 -1.38271 1.57715 0
M  V30 24 H -1.26519 -2.14385 0.050709 0
M  V30 25 H 0.518282 2.29868 0.16189 0
M  V30 26 H 1.97064 1.94132 1.09777 0
M  V30 27 H 2.8901 2.29147 -0.804657 0
M  V30 28 H 1.5325 1.97251 -1.7093 0
M  V30 END ATOM
M  V30 BEGIN BOND
M  V30 1 1 1 2
M  V30 2 1 2 3
M  V30 3 1 3 4
M  V30 4 1 4 5
M  V30 5 1 5 6
M  V30 6 1 6 7
M  V30 7 1 7 8
M  V30 8 1 8 9
M  V30 9 1 3 10
M  V30 10 1 10 11
M  V30 11 1 9 4
M  V30 12 1 1 12
M  V30 13 1 1 13
M  V30 14 1 2 14
M  V30 15 1 2 15
M  V30 16 1 3 16
M  V30 17 1 5 17
M  V30 18 1 5 18
M  V30 19 1 6 19
M  V30 20 1 6 20
M  V30 21 1 8 21
M  V30 22 1 8 22
M  V30 23 1 9 23
M  V30 24 1 9 24
M  V30 25 1 10 25
M  V30 26 1 10 26
M  V30 27 1 11 27
M  V30 28 1 11 28
M  V30 END BOND
M  V30 END CTAB
M  END
