
     RDKit          3D

  0  0  0  0  0  0  0  0  0  0999 V3000
M  V30 BEGIN CTAB
M  V30 COUNTS 39 39 0 0 0
M  V30 BEGIN ATOM
M  V30 1 C -1.36697 -3.77415 -0.150226 0
M  V30 2 O -0.901296 -2.46977 0.0478012 0
M  V30 3 C -1.744 -1.3907 0.0012964 0
M  V30 4 C -3.08745 -1.66878 -0.254031 0
M  V30 5 C -4.01383 -0.637438 -0.319207 0
M  V30 6 C -3.60392 0.665409 -0.13088 0
M  V30 7 C -2.28986 0.880805 0.11373 0
M  V30 8 C -1.30244 -0.0943791 0.194456 0
M  V30 9 C 0.064945 0.228517 0.458093 0
M  V30 10 O 0.307622 1.48333 0.613274 0
M  V30 11 N 1.17583 -0.604351 0.573131 0
M  V30 12 C 2.52313 -0.137306 0.842776 0
M  V30 13 C 3.10692 0.777487 -0.156567 0
M  V30 14 C 4.52048 1.11987 0.345724 0
M  V30 15 N 5.17871 2.0215 -0.578605 0
M  V30 16 C 5.28085 -0.174051 0.493736 0
M  V30 17 S -4.79395 1.93964 -0.21913 0
M  V30 18 O -5.84795 1.5281 -1.20818 0
M  V30 19 O -4.12879 3.18036 -0.686163 0
M  V30 20 N -5.48972 2.25103 1.33496 0
M  V30 21 H -1.90347 -3.91404 -1.1081 0
M  V30 22 H -2.05401 -4.01528 0.706348 0
M  V30 23 H -0.482406 -4.45701 -0.0667801 0
M  V30 24 H -3.3798 -2.69816 -0.397428 0
M  V30 25 H -5.03761 -0.918194 -0.520023 0
M  V30 26 H -1.97095 1.90908 0.261565 0
M  V30 27 H 1.12604 -1.63951 0.472216 0
M  V30 28 H 3.18879 -0.978627 1.02626 0
M  V30 29 H 2.44502 0.419704 1.81738 0
M  V30 30 H 3.28302 0.287975 -1.14968 0
M  V30 31 H 2.5499 1.71637 -0.258893 0
M  V30 32 H 4.41796 1.60038 1.33937 0
M  V30 33 H 4.97763 3.00008 -0.256122 0
M  V30 34 H 4.86224 1.8563 -1.54462 0
M  V30 35 H 6.35807 -0.0296786 0.262016 0
M  V30 36 H 4.91698 -0.967328 -0.195015 0
M  V30 37 H 5.15537 -0.594349 1.53178 0
M  V30 38 H -5.79624 1.35303 1.72752 0
M  V30 39 H -6.24487 2.94411 1.19242 0
M  V30 END ATOM
M  V30 BEGIN BOND
M  V30 1 1 1 2
M  V30 2 1 2 3
M  V30 3 2 3 4
M  V30 4 1 4 5
M  V30 5 2 5 6
M  V30 6 1 6 7
M  V30 7 2 7 8
M  V30 8 1 8 9
M  V30 9 2 9 10
M  V30 10 1 9 11
M  V30 11 1 11 12
M  V30 12 1 12 13
M  V30 13 1 13 14
M  V30 14 1 14 15
M  V30 15 1 14 16
M  V30 16 1 6 17
M  V30 17 2 17 18
M  V30 18 2 17 19
M  V30 19 1 17 20
M  V30 20 1 8 3
M  V30 21 1 1 21
M  V30 22 1 1 22
M  V30 23 1 1 23
M  V30 24 1 4 24
M  V30 25 1 5 25
M  V30 26 1 7 26
M  V30 27 1 11 27
M  V30 28 1 12 28
M  V30 29 1 12 29
M  V30 30 1 13 30
M  V30 31 1 13 31
M  V30 32 1 14 32
M  V30 33 1 15 33
M  V30 34 1 15 34
M  V30 35 1 16 35
M  V30 36 1 16 36
M  V30 37 1 16 37
M  V30 38 1 20 38
M  V30 39 1 20 39
M  V30 END BOND
M  V30 END CTAB
M  END
