
     RDKit          3D

  0  0  0  0  0  0  0  0  0  0999 V3000
M  V30 BEGIN CTAB
M  V30 COUNTS 25 25 0 0 0
M  V30 BEGIN ATOM
M  V30 1 N -1.2305 1.64901 0.952287 0
M  V30 2 C -1.72674 0.568079 0.180306 0
M  V30 3 C -3.00466 0.66245 -0.32558 0
M  V30 4 C -3.5745 -0.346142 -1.08956 0
M  V30 5 N -2.83717 -1.43208 -1.32541 0
M  V30 6 C -1.60288 -1.53963 -0.844945 0
M  V30 7 C -0.995944 -0.568228 -0.0845361 0
M  V30 8 C 0.384879 -0.700672 0.441078 0
M  V30 9 C 1.36193 0.135928 -0.370052 0
M  V30 10 C 2.75915 0.017103 0.13957 0
M  V30 11 N 2.94849 0.495049 1.49511 0
M  V30 12 O 1.38361 -0.372958 -1.68997 0
M  V30 13 H -0.795078 2.47051 0.508613 0
M  V30 14 H -1.31653 1.59497 1.98676 0
M  V30 15 H -3.56167 1.56332 -0.10541 0
M  V30 16 H -4.57336 -0.236515 -1.46702 0
M  V30 17 H -1.04121 -2.45525 -1.06954 0
M  V30 18 H 0.444044 -0.439731 1.52296 0
M  V30 19 H 0.656612 -1.77328 0.343387 0
M  V30 20 H 1.04376 1.19381 -0.386617 0
M  V30 21 H 3.07775 -1.05575 0.132926 0
M  V30 22 H 3.43166 0.51512 -0.596323 0
M  V30 23 H 3.40013 1.45397 1.38336 0
M  V30 24 H 3.7146 -0.0783261 1.96241 0
M  V30 25 H 1.65363 -1.32075 -1.69382 0
M  V30 END ATOM
M  V30 BEGIN BOND
M  V30 1 1 1 2
M  V30 2 2 2 3
M  V30 3 1 3 4
M  V30 4 2 4 5
M  V30 5 1 5 6
M  V30 6 2 6 7
M  V30 7 1 7 8
M  V30 8 1 8 9
M  V30 9 1 9 10
M  V30 10 1 10 11
M  V30 11 1 9 12
M  V30 12 1 7 2
M  V30 13 1 1 13
M  V30 14 1 1 14
M  V30 15 1 3 15
M  V30 16 1 4 16
M  V30 17 1 6 17
M  V30 18 1 8 18
M  V30 19 1 8 19
M  V30 20 1 9 20
M  V30 21 1 10 21
M  V30 22 1 10 22
M  V30 23 1 11 23
M  V30 24 1 11 24
M  V30 25 1 12 25
M  V30 END BOND
M  V30 END CTAB
M  END
