
     RDKit          3D

  0  0  0  0  0  0  0  0  0  0999 V3000
M  V30 BEGIN CTAB
M  V30 COUNTS 18 18 0 0 0
M  V30 BEGIN ATOM
M  V30 1 N -2.28774 -0.84227 0.545757 0
M  V30 2 C -1.28736 0.0437335 0.0794748 0
M  V30 3 C -1.59107 1.28304 -0.444908 0
M  V30 4 C -0.53202 2.0677 -0.870823 0
M  V30 5 N 0.750835 1.6481 -0.781839 0
M  V30 6 C 1.0744 0.445443 -0.275125 0
M  V30 7 C 0.0353163 -0.35183 0.154859 0
M  V30 8 N 0.371776 -1.62468 0.691559 0
M  V30 9 C 2.47502 -0.039326 -0.166178 0
M  V30 10 F 3.38251 0.859552 -0.631161 0
M  V30 11 F 2.71894 -0.351349 1.17895 0
M  V30 12 F 2.58587 -1.2454 -0.844883 0
M  V30 13 H -3.05271 -1.10718 -0.0796964 0
M  V30 14 H -2.22075 -1.20326 1.51494 0
M  V30 15 H -2.63176 1.61968 -0.515444 0
M  V30 16 H -0.789313 3.0358 -1.27896 0
M  V30 17 H 0.492882 -2.4187 0.0226985 0
M  V30 18 H 0.505185 -1.81905 1.70078 0
M  V30 END ATOM
M  V30 BEGIN BOND
M  V30 1 1 1 2
M  V30 2 2 2 3
M  V30 3 1 3 4
M  V30 4 2 4 5
M  V30 5 1 5 6
M  V30 6 2 6 7
M  V30 7 1 7 8
M  V30 8 1 6 9
M  V30 9 1 9 10
M  V30 10 1 9 11
M  V30 11 1 9 12
M  V30 12 1 7 2
M  V30 13 1 1 13
M  V30 14 1 1 14
M  V30 15 1 3 15
M  V30 16 1 4 16
M  V30 17 1 8 17
M  V30 18 1 8 18
M  V30 END BOND
M  V30 END CTAB
M  END
