
     RDKit          3D

  0  0  0  0  0  0  0  0  0  0999 V3000
M  V30 BEGIN CTAB
M  V30 COUNTS 23 23 0 0 0
M  V30 BEGIN ATOM
M  V30 1 N 0.178049 1.5274 1.15482 0
M  V30 2 C 0.583781 0.386747 0.453974 0
M  V30 3 C 1.94712 0.183412 0.202683 0
M  V30 4 N 2.91887 1.10937 0.644256 0
M  V30 5 C 2.38768 -0.934066 -0.488138 0
M  V30 6 O 3.62176 -1.12456 -0.719333 0
M  V30 7 N 1.43653 -1.79461 -0.893821 0
M  V30 8 C 0.13166 -1.58591 -0.645145 0
M  V30 9 O -0.755383 -2.41028 -1.03615 0
M  V30 10 N -0.325402 -0.511664 0.0222307 0
M  V30 11 C -1.72147 -0.310183 0.275646 0
M  V30 12 C -2.42847 0.461733 -0.801724 0
M  V30 13 O -3.77639 0.569529 -0.400878 0
M  V30 14 H 0.207445 1.55182 2.1879 0
M  V30 15 H -0.158352 2.36567 0.64816 0
M  V30 16 H 3.23214 1.14059 1.62768 0
M  V30 17 H 3.32313 1.77047 -0.0401109 0
M  V30 18 H 1.76504 -2.6472 -1.42013 0
M  V30 19 H -2.24236 -1.30425 0.348291 0
M  V30 20 H -1.92663 0.186359 1.25392 0
M  V30 21 H -2.33195 -0.0348178 -1.78099 0
M  V30 22 H -2.07152 1.49936 -0.904073 0
M  V30 23 H -3.99528 -0.0949217 0.310934 0
M  V30 END ATOM
M  V30 BEGIN BOND
M  V30 1 1 1 2
M  V30 2 2 2 3
M  V30 3 1 3 4
M  V30 4 1 3 5
M  V30 5 2 5 6
M  V30 6 1 5 7
M  V30 7 1 7 8
M  V30 8 2 8 9
M  V30 9 1 8 10
M  V30 10 1 10 11
M  V30 11 1 11 12
M  V30 12 1 12 13
M  V30 13 1 10 2
M  V30 14 1 1 14
M  V30 15 1 1 15
M  V30 16 1 4 16
M  V30 17 1 4 17
M  V30 18 1 7 18
M  V30 19 1 11 19
M  V30 20 1 11 20
M  V30 21 1 12 21
M  V30 22 1 12 22
M  V30 23 1 13 23
M  V30 END BOND
M  V30 END CTAB
M  END
