
     RDKit          3D

  0  0  0  0  0  0  0  0  0  0999 V3000
M  V30 BEGIN CTAB
M  V30 COUNTS 33 35 0 0 0
M  V30 BEGIN ATOM
M  V30 1 O -2.77184 2.86494 0.223559 0
M  V30 2 C -3.40622 1.64237 0.287533 0
M  V30 3 C -2.51467 0.610511 -0.344825 0 CFG=1
M  V30 4 O -1.33105 0.557662 0.330631 0
M  V30 5 C -1.01416 -0.734274 0.629879 0 CFG=1
M  V30 6 C -1.97649 -1.6479 -0.0726084 0
M  V30 7 C -3.15304 -0.740578 -0.331864 0 CFG=2
M  V30 8 O -3.73619 -1.09257 -1.5339 0
M  V30 9 N 0.347932 -1.08487 0.284451 0
M  V30 10 N 0.784994 -2.30476 0.0194506 0
M  V30 11 C 2.07876 -2.30335 -0.262098 0
M  V30 12 C 2.51254 -1.01002 -0.176518 0
M  V30 13 C 1.40624 -0.263825 0.168281 0
M  V30 14 N 1.5319 1.06925 0.326494 0
M  V30 15 C 2.73363 1.63537 0.143605 0
M  V30 16 N 2.88863 3.04031 0.305447 0
M  V30 17 N 3.82538 0.926104 -0.192886 0
M  V30 18 C 3.74009 -0.406847 -0.359876 0
M  V30 19 N 4.87446 -1.18025 -0.714575 0
M  V30 20 H -3.39063 3.59877 0.258036 0
M  V30 21 H -4.37385 1.72132 -0.231904 0
M  V30 22 H -3.60519 1.35927 1.34102 0
M  V30 23 H -2.34433 0.900012 -1.40927 0
M  V30 24 H -1.10276 -0.87688 1.74294 0
M  V30 25 H -2.22855 -2.55202 0.481634 0
M  V30 26 H -1.53873 -1.89255 -1.06881 0
M  V30 27 H -3.90307 -0.857917 0.472868 0
M  V30 28 H -3.46369 -2.0157 -1.77088 0
M  V30 29 H 2.66033 -3.18368 -0.511309 0
M  V30 30 H 3.32976 3.44856 1.16002 0
M  V30 31 H 2.55289 3.66289 -0.447377 0
M  V30 32 H 5.78811 -0.686507 -0.872277 0
M  V30 33 H 4.79879 -2.20283 -0.814029 0
M  V30 END ATOM
M  V30 BEGIN BOND
M  V30 1 1 1 2
M  V30 2 1 2 3
M  V30 3 1 3 4
M  V30 4 1 4 5
M  V30 5 1 5 6
M  V30 6 1 6 7
M  V30 7 1 7 8
M  V30 8 1 5 9
M  V30 9 1 9 10
M  V30 10 2 10 11
M  V30 11 1 11 12
M  V30 12 2 12 13
M  V30 13 1 13 14
M  V30 14 2 14 15
M  V30 15 1 15 16
M  V30 16 1 15 17
M  V30 17 2 17 18
M  V30 18 1 18 19
M  V30 19 1 7 3
M  V30 20 1 13 9
M  V30 21 1 18 12
M  V30 22 1 1 20
M  V30 23 1 2 21
M  V30 24 1 2 22
M  V30 25 1 3 23 CFG=3
M  V30 26 1 5 24 CFG=1
M  V30 27 1 6 25
M  V30 28 1 6 26
M  V30 29 1 7 27 CFG=1
M  V30 30 1 8 28
M  V30 31 1 11 29
M  V30 32 1 16 30
M  V30 33 1 16 31
M  V30 34 1 19 32
M  V30 35 1 19 33
M  V30 END BOND
M  V30 END CTAB
M  END
