
     RDKit          3D

  0  0  0  0  0  0  0  0  0  0999 V3000
M  V30 BEGIN CTAB
M  V30 COUNTS 44 43 0 0 0
M  V30 BEGIN ATOM
M  V30 1 N 2.33343 -3.36104 -1.42195 0
M  V30 2 C 2.8602 -2.21063 -2.04576 0
M  V30 3 C 2.34971 -0.96703 -1.28011 0
M  V30 4 C 2.80318 -1.02521 0.146972 0
M  V30 5 C 2.42158 0.110091 1.01114 0
M  V30 6 C 1.00916 0.408955 1.26403 0 CFG=2
M  V30 7 N 0.156093 0.736849 0.176522 0
M  V30 8 C -1.17741 0.20354 0.0377447 0
M  V30 9 O -1.56145 -0.57878 0.936246 0
M  V30 10 O -2.01528 0.508245 -1.00443 0
M  V30 11 C -3.31577 -0.0471504 -1.08701 0
M  V30 12 C -3.25591 -1.55632 -1.15028 0
M  V30 13 C -4.09307 0.401616 0.130638 0
M  V30 14 C -4.02506 0.43436 -2.31859 0
M  V30 15 C 0.96577 1.50985 2.33624 0
M  V30 16 C 1.66575 2.76737 1.89692 0
M  V30 17 N 1.52471 3.71636 3.01196 0
M  V30 18 H 2.95374 -4.11358 -1.19293 0
M  V30 19 H 1.4131 -3.62288 -1.73892 0
M  V30 20 H 3.97747 -2.14764 -1.94796 0
M  V30 21 H 2.57642 -2.12947 -3.10845 0
M  V30 22 H 1.25658 -0.994048 -1.33567 0
M  V30 23 H 2.74422 -0.0523029 -1.74676 0
M  V30 24 H 3.93629 -1.10704 0.102434 0
M  V30 25 H 2.51677 -2.01109 0.61389 0
M  V30 26 H 2.91154 1.04932 0.603271 0
M  V30 27 H 2.89186 -0.0906987 2.03109 0
M  V30 28 H 0.516622 -0.484663 1.77821 0
M  V30 29 H 0.462765 1.38442 -0.575117 0
M  V30 30 H -3.81307 -1.98763 -0.280857 0
M  V30 31 H -3.71976 -1.9616 -2.05582 0
M  V30 32 H -2.22764 -1.94105 -1.08889 0
M  V30 33 H -3.5802 1.24336 0.63629 0
M  V30 34 H -4.21538 -0.40109 0.877542 0
M  V30 35 H -5.10932 0.750269 -0.15648 0
M  V30 36 H -3.92294 -0.309448 -3.13781 0
M  V30 37 H -5.08914 0.606454 -2.06526 0
M  V30 38 H -3.58829 1.38456 -2.62937 0
M  V30 39 H -0.0712343 1.76099 2.55821 0
M  V30 40 H 1.49444 1.10936 3.20851 0
M  V30 41 H 2.78273 2.63389 1.80585 0
M  V30 42 H 1.26588 3.19575 0.975543 0
M  V30 43 H 0.658138 3.53215 3.55909 0
M  V30 44 H 2.33278 3.65265 3.67006 0
M  V30 END ATOM
M  V30 BEGIN BOND
M  V30 1 1 1 2
M  V30 2 1 2 3
M  V30 3 1 3 4
M  V30 4 1 4 5
M  V30 5 1 5 6
M  V30 6 1 6 7
M  V30 7 1 7 8
M  V30 8 2 8 9
M  V30 9 1 8 10
M  V30 10 1 10 11
M  V30 11 1 11 12
M  V30 12 1 11 13
M  V30 13 1 11 14
M  V30 14 1 6 15
M  V30 15 1 15 16
M  V30 16 1 16 17
M  V30 17 1 1 18
M  V30 18 1 1 19
M  V30 19 1 2 20
M  V30 20 1 2 21
M  V30 21 1 3 22
M  V30 22 1 3 23
M  V30 23 1 4 24
M  V30 24 1 4 25
M  V30 25 1 5 26
M  V30 26 1 5 27
M  V30 27 1 6 28 CFG=1
M  V30 28 1 7 29
M  V30 29 1 12 30
M  V30 30 1 12 31
M  V30 31 1 12 32
M  V30 32 1 13 33
M  V30 33 1 13 34
M  V30 34 1 13 35
M  V30 35 1 14 36
M  V30 36 1 14 37
M  V30 37 1 14 38
M  V30 38 1 15 39
M  V30 39 1 15 40
M  V30 40 1 16 41
M  V30 41 1 16 42
M  V30 42 1 17 43
M  V30 43 1 17 44
M  V30 END BOND
M  V30 END CTAB
M  END
