
     RDKit          3D

  0  0  0  0  0  0  0  0  0  0999 V3000
M  V30 BEGIN CTAB
M  V30 COUNTS 21 21 0 0 0
M  V30 BEGIN ATOM
M  V30 1 N -5.00339 0.704464 0.0208215 0
M  V30 2 N -3.62243 0.644032 -0.192852 0
M  V30 3 C -2.73511 -0.0836877 0.6115 0
M  V30 4 O -3.12892 -0.749865 1.60661 0
M  V30 5 C -1.30582 -0.0886542 0.311614 0
M  V30 6 C -0.635552 0.544535 -0.697836 0
M  V30 7 C 0.696332 0.376124 -0.753446 0
M  V30 8 C 1.27984 -0.41001 0.196014 0
M  V30 9 S -0.0635098 -0.896532 1.14942 0
M  V30 10 C 2.69303 -0.760074 0.371385 0
M  V30 11 O 2.99628 -1.50182 1.32069 0
M  V30 12 N 3.6808 -0.278621 -0.499103 0
M  V30 13 N 5.01066 -0.639765 -0.290673 0
M  V30 14 H -5.34078 1.69016 0.0219789 0
M  V30 15 H -5.33043 0.1298 0.803825 0
M  V30 16 H -3.26655 1.18516 -1.00884 0
M  V30 17 H -1.22159 1.16288 -1.41735 0
M  V30 18 H 1.3221 0.851292 -1.53732 0
M  V30 19 H 3.4502 0.346007 -1.30384 0
M  V30 20 H 5.23485 -0.820636 0.712662 0
M  V30 21 H 5.29 -1.4048 -0.912422 0
M  V30 END ATOM
M  V30 BEGIN BOND
M  V30 1 1 1 2
M  V30 2 1 2 3
M  V30 3 2 3 4
M  V30 4 1 3 5
M  V30 5 2 5 6
M  V30 6 1 6 7
M  V30 7 2 7 8
M  V30 8 1 8 9
M  V30 9 1 8 10
M  V30 10 2 10 11
M  V30 11 1 10 12
M  V30 12 1 12 13
M  V30 13 1 9 5
M  V30 14 1 1 14
M  V30 15 1 1 15
M  V30 16 1 2 16
M  V30 17 1 6 17
M  V30 18 1 7 18
M  V30 19 1 12 19
M  V30 20 1 13 20
M  V30 21 1 13 21
M  V30 END BOND
M  V30 END CTAB
M  END
