
     RDKit          3D

  0  0  0  0  0  0  0  0  0  0999 V3000
M  V30 BEGIN CTAB
M  V30 COUNTS 45 47 0 0 0
M  V30 BEGIN ATOM
M  V30 1 N -5.31961 -3.13678 -0.807236 0
M  V30 2 C -4.10331 -2.38258 -0.75771 0
M  V30 3 N -4.01429 -1.17284 -1.10901 0
M  V30 4 C -2.8617 -0.34086 -1.09816 0
M  V30 5 N -1.6762 -1.05519 -0.603656 0
M  V30 6 C -0.452499 -0.340893 -0.539315 0
M  V30 7 C 0.764739 -1.01377 -0.0498407 0
M  V30 8 C 1.95667 -0.0083307 -0.0818225 0
M  V30 9 O 3.11826 -0.680305 0.394437 0
M  V30 10 C 4.33965 -0.0307534 0.478599 0
M  V30 11 C 5.46299 -0.68038 0.93911 0
M  V30 12 C 6.67606 -0.0267067 1.02007 0
M  V30 13 C 6.76786 1.28689 0.637835 0
M  V30 14 Br 8.4337 2.22803 0.735649 0
M  V30 15 C 5.6632 1.96324 0.173454 0
M  V30 16 C 4.47327 1.28677 0.104878 0
M  V30 17 C -1.80951 -2.40452 -0.219805 0
M  V30 18 N -0.746831 -3.22441 0.277986 0
M  V30 19 N -2.95465 -3.04886 -0.286912 0
M  V30 20 C -3.05937 0.925127 -0.343609 0
M  V30 21 C -2.63115 2.13327 -0.853017 0
M  V30 22 C -2.82124 3.31561 -0.138691 0
M  V30 23 C -3.43959 3.32072 1.0939 0
M  V30 24 C -3.8668 2.11474 1.6019 0
M  V30 25 C -3.67531 0.945872 0.888618 0
M  V30 26 H -5.87979 -3.21122 0.0697884 0
M  V30 27 H -5.67499 -3.60857 -1.65078 0
M  V30 28 H -2.61365 -0.116634 -2.17585 0
M  V30 29 H -0.218939 0.0181898 -1.59529 0
M  V30 30 H -0.58786 0.591957 0.081503 0
M  V30 31 H 1.13838 -1.84897 -0.700931 0
M  V30 32 H 0.75003 -1.31943 1.01649 0
M  V30 33 H 1.68336 0.774045 0.647166 0
M  V30 34 H 2.11976 0.349582 -1.10644 0
M  V30 35 H 5.42794 -1.71708 1.24946 0
M  V30 36 H 7.58422 -0.514717 1.38094 0
M  V30 37 H 5.76623 3.00776 -0.123505 0
M  V30 38 H 3.6139 1.83078 -0.261875 0
M  V30 39 H -0.208478 -3.76785 -0.43628 0
M  V30 40 H -0.537942 -3.27449 1.28405 0
M  V30 41 H -2.14071 2.18286 -1.8154 0
M  V30 42 H -2.49368 4.27568 -0.51815 0
M  V30 43 H -3.5854 4.25992 1.65098 0
M  V30 44 H -4.35376 2.10181 2.56776 0
M  V30 45 H -4.01296 0.013298 1.29598 0
M  V30 END ATOM
M  V30 BEGIN BOND
M  V30 1 1 1 2
M  V30 2 2 2 3
M  V30 3 1 3 4
M  V30 4 1 4 5
M  V30 5 1 5 6
M  V30 6 1 6 7
M  V30 7 1 7 8
M  V30 8 1 8 9
M  V30 9 1 9 10
M  V30 10 2 10 11
M  V30 11 1 11 12
M  V30 12 2 12 13
M  V30 13 1 13 14
M  V30 14 1 13 15
M  V30 15 2 15 16
M  V30 16 1 5 17
M  V30 17 1 17 18
M  V30 18 2 17 19
M  V30 19 1 4 20
M  V30 20 2 20 21
M  V30 21 1 21 22
M  V30 22 2 22 23
M  V30 23 1 23 24
M  V30 24 2 24 25
M  V30 25 1 19 2
M  V30 26 1 25 20
M  V30 27 1 16 10
M  V30 28 1 1 26
M  V30 29 1 1 27
M  V30 30 1 4 28
M  V30 31 1 6 29
M  V30 32 1 6 30
M  V30 33 1 7 31
M  V30 34 1 7 32
M  V30 35 1 8 33
M  V30 36 1 8 34
M  V30 37 1 11 35
M  V30 38 1 12 36
M  V30 39 1 15 37
M  V30 40 1 16 38
M  V30 41 1 18 39
M  V30 42 1 18 40
M  V30 43 1 21 41
M  V30 44 1 22 42
M  V30 45 1 23 43
M  V30 46 1 24 44
M  V30 47 1 25 45
M  V30 END BOND
M  V30 END CTAB
M  END
