
     RDKit          3D

  0  0  0  0  0  0  0  0  0  0999 V3000
M  V30 BEGIN CTAB
M  V30 COUNTS 18 18 0 0 0
M  V30 BEGIN ATOM
M  V30 1 F -2.07221 1.63634 -0.302953 0
M  V30 2 C -2.41433 0.389698 0.145893 0
M  V30 3 C -1.71038 -0.777685 -0.436971 0
M  V30 4 C -0.280019 -0.831933 -0.200059 0
M  V30 5 N 0.311174 -2.02929 0.133345 0
M  V30 6 N 1.57777 -1.86513 0.383343 0
M  V30 7 C 1.86949 -0.57542 0.227692 0
M  V30 8 N 0.72502 0.0340302 -0.12172 0
M  V30 9 N 0.69313 1.43913 -0.295324 0
M  V30 10 N 3.10542 0.0938722 0.374019 0
M  V30 11 F -2.24734 -1.87729 0.262914 0
M  V30 12 F -2.06867 -0.882586 -1.76087 0
M  V30 13 F -3.78381 0.237672 0.0600517 0
M  V30 14 H -2.22784 0.358635 1.28838 0
M  V30 15 H 0.668704 1.90612 -1.20902 0
M  V30 16 H 0.707319 2.04228 0.588069 0
M  V30 17 H 3.37866 0.894409 -0.264887 0
M  V30 18 H 3.7679 -0.192864 1.1281 0
M  V30 END ATOM
M  V30 BEGIN BOND
M  V30 1 1 1 2
M  V30 2 1 2 3
M  V30 3 1 3 4
M  V30 4 2 4 5
M  V30 5 1 5 6
M  V30 6 2 6 7
M  V30 7 1 7 8
M  V30 8 1 8 9
M  V30 9 1 7 10
M  V30 10 1 3 11
M  V30 11 1 3 12
M  V30 12 1 2 13
M  V30 13 1 8 4
M  V30 14 1 2 14
M  V30 15 1 9 15
M  V30 16 1 9 16
M  V30 17 1 10 17
M  V30 18 1 10 18
M  V30 END BOND
M  V30 END CTAB
M  END
