
     RDKit          3D

  0  0  0  0  0  0  0  0  0  0999 V3000
M  V30 BEGIN CTAB
M  V30 COUNTS 26 26 0 0 0
M  V30 BEGIN ATOM
M  V30 1 N -2.6863 -1.32083 0.787847 0
M  V30 2 C -2.1656 -0.670837 -0.366024 0
M  V30 3 S -2.66692 -1.12997 -1.83686 0
M  V30 4 C -1.17485 0.409779 -0.141644 0
M  V30 5 C -1.8041 1.49033 0.684924 0
M  V30 6 C -0.522533 0.892738 -1.39185 0
M  V30 7 C 0.879955 0.287496 -1.28269 0
M  V30 8 N 1.13299 0.440334 0.134179 0
M  V30 9 C -0.0554648 -0.202452 0.700546 0
M  V30 10 S 2.47935 -0.518264 0.65683 0
M  V30 11 O 2.20028 -1.96526 0.371643 0
M  V30 12 O 2.59416 -0.309935 2.15132 0
M  V30 13 N 3.9014 -0.00956609 -0.165197 0
M  V30 14 H -3.27807 -2.17571 0.694943 0
M  V30 15 H -2.5125 -0.991567 1.76051 0
M  V30 16 H -1.89384 2.42596 0.10353 0
M  V30 17 H -2.81573 1.16501 1.06145 0
M  V30 18 H -1.22066 1.71496 1.60762 0
M  V30 19 H -1.00746 0.533792 -2.32318 0
M  V30 20 H -0.368403 1.99355 -1.39026 0
M  V30 21 H 1.61286 0.839896 -1.89594 0
M  V30 22 H 0.865492 -0.800087 -1.49285 0
M  V30 23 H -0.164523 0.0285075 1.75977 0
M  V30 24 H 0.0385232 -1.29735 0.487627 0
M  V30 25 H 3.90375 -0.526285 -1.09405 0
M  V30 26 H 4.72818 -0.304236 0.417808 0
M  V30 END ATOM
M  V30 BEGIN BOND
M  V30 1 1 1 2
M  V30 2 2 2 3
M  V30 3 1 2 4
M  V30 4 1 4 5
M  V30 5 1 4 6
M  V30 6 1 6 7
M  V30 7 1 7 8
M  V30 8 1 8 9
M  V30 9 1 8 10
M  V30 10 2 10 11
M  V30 11 2 10 12
M  V30 12 1 10 13
M  V30 13 1 9 4
M  V30 14 1 1 14
M  V30 15 1 1 15
M  V30 16 1 5 16
M  V30 17 1 5 17
M  V30 18 1 5 18
M  V30 19 1 6 19
M  V30 20 1 6 20
M  V30 21 1 7 21
M  V30 22 1 7 22
M  V30 23 1 9 23
M  V30 24 1 9 24
M  V30 25 1 13 25
M  V30 26 1 13 26
M  V30 END BOND
M  V30 END CTAB
M  END
