
     RDKit          3D

  0  0  0  0  0  0  0  0  0  0999 V3000
M  V30 BEGIN CTAB
M  V30 COUNTS 32 34 0 0 0
M  V30 BEGIN ATOM
M  V30 1 N 5.61592 0.406358 0.0996379 0
M  V30 2 C 4.2362 0.0863134 -0.00923387 0
M  V30 3 N 3.3439 1.0675 0.191035 0
M  V30 4 C 2.03505 0.882003 0.114635 0
M  V30 5 C 1.57447 -0.383043 -0.185591 0
M  V30 6 N 0.161691 -0.595556 -0.270712 0
M  V30 7 C -0.651779 0.572317 -0.516697 0
M  V30 8 C -0.295713 1.58365 0.555159 0
M  V30 9 N 1.0912 1.94371 0.33172 0
M  V30 10 C -2.10003 0.252699 -0.531876 0
M  V30 11 C -2.9364 0.75612 -1.50639 0
M  V30 12 C -4.29898 0.468232 -1.53954 0
M  V30 13 C -4.85356 -0.346523 -0.574387 0
M  V30 14 C -4.02039 -0.857021 0.409032 0
M  V30 15 C -2.66573 -0.560445 0.427454 0
M  V30 16 C 2.48128 -1.39017 -0.39139 0
M  V30 17 N 1.96557 -2.68475 -0.699736 0
M  V30 18 N 3.79578 -1.14653 -0.301597 0
M  V30 19 H 6.19466 0.485091 -0.753387 0
M  V30 20 H 6.00038 0.552772 1.05654 0
M  V30 21 H -0.193851 -1.55796 -0.153364 0
M  V30 22 H -0.313353 0.998043 -1.48339 0
M  V30 23 H -0.412524 1.12177 1.5384 0
M  V30 24 H -0.91813 2.51679 0.444149 0
M  V30 25 H 1.45205 2.91719 0.317362 0
M  V30 26 H -2.50327 1.40357 -2.27578 0
M  V30 27 H -4.92737 0.881342 -2.32062 0
M  V30 28 H -5.91375 -0.595817 -0.564702 0
M  V30 29 H -4.46308 -1.49595 1.16339 0
M  V30 30 H -2.02263 -0.960837 1.19542 0
M  V30 31 H 1.53799 -3.22028 0.0729558 0
M  V30 32 H 2.0044 -3.10058 -1.65801 0
M  V30 END ATOM
M  V30 BEGIN BOND
M  V30 1 1 1 2
M  V30 2 2 2 3
M  V30 3 1 3 4
M  V30 4 2 4 5
M  V30 5 1 5 6
M  V30 6 1 6 7
M  V30 7 1 7 8
M  V30 8 1 8 9
M  V30 9 1 7 10
M  V30 10 2 10 11
M  V30 11 1 11 12
M  V30 12 2 12 13
M  V30 13 1 13 14
M  V30 14 2 14 15
M  V30 15 1 5 16
M  V30 16 1 16 17
M  V30 17 2 16 18
M  V30 18 1 18 2
M  V30 19 1 9 4
M  V30 20 1 15 10
M  V30 21 1 1 19
M  V30 22 1 1 20
M  V30 23 1 6 21
M  V30 24 1 7 22
M  V30 25 1 8 23
M  V30 26 1 8 24
M  V30 27 1 9 25
M  V30 28 1 11 26
M  V30 29 1 12 27
M  V30 30 1 13 28
M  V30 31 1 14 29
M  V30 32 1 15 30
M  V30 33 1 17 31
M  V30 34 1 17 32
M  V30 END BOND
M  V30 END CTAB
M  END
