
     RDKit          3D

  0  0  0  0  0  0  0  0  0  0999 V3000
M  V30 BEGIN CTAB
M  V30 COUNTS 18 18 0 0 0
M  V30 BEGIN ATOM
M  V30 1 N -2.32081 -1.4877 0.0917312 0
M  V30 2 C -2.13477 -0.110963 -0.313773 0
M  V30 3 C -0.688362 0.194935 -0.193427 0
M  V30 4 N 0.232804 -0.691337 0.223522 0
M  V30 5 C 1.54415 -0.42969 0.337555 0
M  V30 6 N 2.45099 -1.4234 0.786185 0
M  V30 7 C 2.03409 0.822539 0.0167436 0
M  V30 8 C 1.13158 1.76773 -0.415958 0
M  V30 9 C -0.20778 1.4521 -0.517196 0
M  V30 10 Cl -1.38479 2.64418 -1.06874 0
M  V30 11 H -3.09047 -1.94727 -0.420561 0
M  V30 12 H -2.39383 -1.57728 1.13486 0
M  V30 13 H -2.76467 0.508854 0.354786 0
M  V30 14 H -2.52273 0.0224762 -1.3411 0
M  V30 15 H 3.4604 -1.37858 0.561648 0
M  V30 16 H 2.10891 -2.22051 1.35409 0
M  V30 17 H 3.08188 1.07658 0.0936879 0
M  V30 18 H 1.46341 2.77733 -0.684059 0
M  V30 END ATOM
M  V30 BEGIN BOND
M  V30 1 1 1 2
M  V30 2 1 2 3
M  V30 3 2 3 4
M  V30 4 1 4 5
M  V30 5 1 5 6
M  V30 6 2 5 7
M  V30 7 1 7 8
M  V30 8 2 8 9
M  V30 9 1 9 10
M  V30 10 1 9 3
M  V30 11 1 1 11
M  V30 12 1 1 12
M  V30 13 1 2 13
M  V30 14 1 2 14
M  V30 15 1 6 15
M  V30 16 1 6 16
M  V30 17 1 7 17
M  V30 18 1 8 18
M  V30 END BOND
M  V30 END CTAB
M  END
