
     RDKit          3D

  0  0  0  0  0  0  0  0  0  0999 V3000
M  V30 BEGIN CTAB
M  V30 COUNTS 54 55 0 0 0
M  V30 BEGIN ATOM
M  V30 1 C -7.01643 -0.456576 0.75766 0
M  V30 2 C -5.62435 -1.05701 0.828425 0
M  V30 3 N -4.89246 -0.912585 -0.330928 0
M  V30 4 S -4.03364 0.423859 -0.778998 0
M  V30 5 O -4.966 1.57771 -1.1469 0
M  V30 6 O -3.39648 0.0973028 -2.15842 0
M  V30 7 C -2.7236 0.974407 0.199776 0
M  V30 8 C -1.41542 0.762096 -0.178834 0
M  V30 9 C -0.296189 1.13123 0.579896 0
M  V30 10 C -0.527503 1.74651 1.78145 0
M  V30 11 C -1.80973 1.9759 2.19291 0
M  V30 12 C -2.90852 1.59107 1.40236 0
M  V30 13 C -4.22641 1.93982 1.92715 0
M  V30 14 N 0.993681 0.884772 0.0979547 0
M  V30 15 C 2.22981 0.907859 0.754194 0
M  V30 16 O 2.30577 1.17657 1.97224 0
M  V30 17 C 3.51208 0.613751 0.0337803 0
M  V30 18 S 4.89159 0.725563 1.16938 0
M  V30 19 C 6.44396 0.3903 0.397681 0
M  V30 20 N 6.53421 0.0873455 -0.90706 0
M  V30 21 C 7.72412 -0.164566 -1.47606 0
M  V30 22 N 7.79401 -0.487754 -2.88013 0
M  V30 23 N 8.85127 -0.120018 -0.75647 0
M  V30 24 C 8.77701 0.1815 0.549287 0
M  V30 25 N 7.58163 0.43198 1.1094 0
M  V30 26 N 9.97139 0.224418 1.29272 0
M  V30 27 C 3.4876 -0.714322 -0.653662 0
M  V30 28 C -4.93398 -1.96861 -1.29156 0
M  V30 29 C -6.08428 -1.87628 -2.25108 0
M  V30 30 H -7.72147 -1.05203 0.180479 0
M  V30 31 H -7.40321 -0.384927 1.80204 0
M  V30 32 H -6.98829 0.594138 0.379281 0
M  V30 33 H -5.18757 -0.851552 1.80965 0
M  V30 34 H -5.84068 -2.20763 0.912679 0
M  V30 35 H -1.2322 0.2746 -1.12941 0
M  V30 36 H 0.285601 2.08696 2.45211 0
M  V30 37 H -1.96977 2.467 3.15359 0
M  V30 38 H -5.01352 2.08683 1.18502 0
M  V30 39 H -4.57456 1.26747 2.7396 0
M  V30 40 H -4.13569 2.94588 2.44303 0
M  V30 41 H 1.0585 0.637914 -0.952025 0
M  V30 42 H 3.65942 1.40245 -0.756258 0
M  V30 43 H 7.77491 0.291642 -3.56067 0
M  V30 44 H 7.85982 -1.49764 -3.11572 0
M  V30 45 H 10.6731 -0.538759 1.30682 0
M  V30 46 H 10.168 1.0721 1.86573 0
M  V30 47 H 2.45896 -0.94758 -1.04222 0
M  V30 48 H 3.87404 -1.54714 -0.0266692 0
M  V30 49 H 4.12891 -0.655634 -1.56132 0
M  V30 50 H -4.93058 -2.97928 -0.846868 0
M  V30 51 H -3.98702 -1.90905 -1.90069 0
M  V30 52 H -6.81331 -2.71726 -2.05933 0
M  V30 53 H -6.63015 -0.931967 -2.20896 0
M  V30 54 H -5.75635 -2.02594 -3.30605 0
M  V30 END ATOM
M  V30 BEGIN BOND
M  V30 1 1 1 2
M  V30 2 1 2 3
M  V30 3 1 3 4
M  V30 4 2 4 5
M  V30 5 2 4 6
M  V30 6 1 4 7
M  V30 7 2 7 8
M  V30 8 1 8 9
M  V30 9 2 9 10
M  V30 10 1 10 11
M  V30 11 2 11 12
M  V30 12 1 12 13
M  V30 13 1 9 14
M  V30 14 1 14 15
M  V30 15 2 15 16
M  V30 16 1 15 17
M  V30 17 1 17 18
M  V30 18 1 18 19
M  V30 19 2 19 20
M  V30 20 1 20 21
M  V30 21 1 21 22
M  V30 22 2 21 23
M  V30 23 1 23 24
M  V30 24 2 24 25
M  V30 25 1 24 26
M  V30 26 1 17 27
M  V30 27 1 3 28
M  V30 28 1 28 29
M  V30 29 1 12 7
M  V30 30 1 25 19
M  V30 31 1 1 30
M  V30 32 1 1 31
M  V30 33 1 1 32
M  V30 34 1 2 33
M  V30 35 1 2 34
M  V30 36 1 8 35
M  V30 37 1 10 36
M  V30 38 1 11 37
M  V30 39 1 13 38
M  V30 40 1 13 39
M  V30 41 1 13 40
M  V30 42 1 14 41
M  V30 43 1 17 42
M  V30 44 1 22 43
M  V30 45 1 22 44
M  V30 46 1 26 45
M  V30 47 1 26 46
M  V30 48 1 27 47
M  V30 49 1 27 48
M  V30 50 1 27 49
M  V30 51 1 28 50
M  V30 52 1 28 51
M  V30 53 1 29 52
M  V30 54 1 29 53
M  V30 55 1 29 54
M  V30 END BOND
M  V30 END CTAB
M  END
