
     RDKit          3D

  0  0  0  0  0  0  0  0  0  0999 V3000
M  V30 BEGIN CTAB
M  V30 COUNTS 23 23 0 0 0
M  V30 BEGIN ATOM
M  V30 1 N -0.931799 -1.82194 -0.169154 0
M  V30 2 C -1.05289 -0.435155 0.0445551 0
M  V30 3 C 0.0654914 0.348553 0.0330172 0
M  V30 4 N 1.32562 -0.248702 -0.193637 0
M  V30 5 C 2.54353 0.542496 -0.215148 0
M  V30 6 C 3.71916 -0.344874 -0.474337 0
M  V30 7 F 3.77791 -1.28273 0.545396 0
M  V30 8 N -0.0952032 1.671 0.241835 0
M  V30 9 C -1.3131 2.20934 0.455313 0
M  V30 10 C -2.44772 1.42434 0.468477 0
M  V30 11 C -2.32747 0.0671671 0.259155 0
M  V30 12 N -3.47822 -0.766222 0.26715 0
M  V30 13 H -0.712487 -2.47426 0.584135 0
M  V30 14 H -1.07206 -2.18871 -1.13173 0
M  V30 15 H 1.36956 -1.27504 -0.346691 0
M  V30 16 H 2.42316 1.30527 -1.02166 0
M  V30 17 H 2.65954 1.00666 0.774567 0
M  V30 18 H 4.66196 0.209339 -0.492795 0
M  V30 19 H 3.6222 -0.906772 -1.42273 0
M  V30 20 H -1.46269 3.27796 0.626227 0
M  V30 21 H -3.43445 1.87662 0.643751 0
M  V30 22 H -3.52273 -1.61948 -0.333847 0
M  V30 23 H -4.31731 -0.574873 0.858155 0
M  V30 END ATOM
M  V30 BEGIN BOND
M  V30 1 1 1 2
M  V30 2 2 2 3
M  V30 3 1 3 4
M  V30 4 1 4 5
M  V30 5 1 5 6
M  V30 6 1 6 7
M  V30 7 1 3 8
M  V30 8 2 8 9
M  V30 9 1 9 10
M  V30 10 2 10 11
M  V30 11 1 11 12
M  V30 12 1 11 2
M  V30 13 1 1 13
M  V30 14 1 1 14
M  V30 15 1 4 15
M  V30 16 1 5 16
M  V30 17 1 5 17
M  V30 18 1 6 18
M  V30 19 1 6 19
M  V30 20 1 9 20
M  V30 21 1 10 21
M  V30 22 1 12 22
M  V30 23 1 12 23
M  V30 END BOND
M  V30 END CTAB
M  END
