
     RDKit          3D

  0  0  0  0  0  0  0  0  0  0999 V3000
M  V30 BEGIN CTAB
M  V30 COUNTS 28 29 0 0 0
M  V30 BEGIN ATOM
M  V30 1 N -4.37838 1.58316 0.0578612 0
M  V30 2 C -3.99787 0.260168 -0.241974 0
M  V30 3 N -2.69568 -0.0586131 -0.269194 0
M  V30 4 C -2.24528 -1.28735 -0.544048 0
M  V30 5 N -0.889753 -1.69004 -0.588532 0
M  V30 6 C 0.267833 -0.955437 -0.37827 0
M  V30 7 C 0.298887 0.397166 -0.329155 0
M  V30 8 C 1.48159 1.08813 -0.097005 0
M  V30 9 C 2.65456 0.385025 0.0880216 0
M  V30 10 C 2.63707 -0.986488 0.0402612 0
M  V30 11 C 1.46019 -1.65018 -0.189751 0
M  V30 12 S 4.12264 1.29658 0.377949 0
M  V30 13 N 4.84224 1.62882 -1.15518 0
M  V30 14 O 3.73257 2.5698 1.07042 0
M  V30 15 O 5.07245 0.488399 1.2441 0
M  V30 16 N -3.23827 -2.20206 -0.798088 0
M  V30 17 C -4.53958 -1.90258 -0.775418 0
M  V30 18 N -4.95529 -0.657842 -0.495452 0
M  V30 19 H -4.74002 2.18904 -0.691868 0
M  V30 20 H -4.29428 1.93711 1.01808 0
M  V30 21 H -0.756338 -2.72808 -0.828912 0
M  V30 22 H -0.5628 1.04342 -0.471017 0
M  V30 23 H 1.48146 2.14808 -0.0624824 0
M  V30 24 H 3.56752 -1.51895 0.187676 0
M  V30 25 H 1.4796 -2.7556 -0.221759 0
M  V30 26 H 4.21007 1.4598 -1.95194 0
M  V30 27 H 5.30573 2.54562 -1.19837 0
M  V30 28 H -5.32086 -2.6271 -0.976444 0
M  V30 END ATOM
M  V30 BEGIN BOND
M  V30 1 1 1 2
M  V30 2 2 2 3
M  V30 3 1 3 4
M  V30 4 1 4 5
M  V30 5 1 5 6
M  V30 6 2 6 7
M  V30 7 1 7 8
M  V30 8 2 8 9
M  V30 9 1 9 10
M  V30 10 2 10 11
M  V30 11 1 9 12
M  V30 12 1 12 13
M  V30 13 2 12 14
M  V30 14 2 12 15
M  V30 15 2 4 16
M  V30 16 1 16 17
M  V30 17 2 17 18
M  V30 18 1 18 2
M  V30 19 1 11 6
M  V30 20 1 1 19
M  V30 21 1 1 20
M  V30 22 1 5 21
M  V30 23 1 7 22
M  V30 24 1 8 23
M  V30 25 1 10 24
M  V30 26 1 11 25
M  V30 27 1 13 26
M  V30 28 1 13 27
M  V30 29 1 17 28
M  V30 END BOND
M  V30 END CTAB
M  END
