
     RDKit          3D

  0  0  0  0  0  0  0  0  0  0999 V3000
M  V30 BEGIN CTAB
M  V30 COUNTS 35 37 0 0 0
M  V30 BEGIN ATOM
M  V30 1 N 5.42319 -0.417467 -0.154011 0
M  V30 2 C 4.16508 0.166355 0.197592 0
M  V30 3 C 3.97357 1.42994 0.672894 0
M  V30 4 C 2.6094 1.54913 0.869649 0
M  V30 5 N 2.03363 0.403836 0.52342 0
M  V30 6 N 2.98504 -0.422525 0.11934 0
M  V30 7 C 0.648398 -0.000896148 0.534384 0 CFG=2
M  V30 8 C 0.382422 -0.657604 -0.826792 0
M  V30 9 C -0.873203 -1.43462 -0.61738 0
M  V30 10 C -1.00847 -2.72292 -0.979257 0
M  V30 11 C -2.20159 -3.35638 -0.719531 0
M  V30 12 C -3.23146 -2.6612 -0.095407 0
M  V30 13 C -3.07286 -1.34394 0.266676 0
M  V30 14 C -1.88619 -0.700703 0.0113318 0
M  V30 15 N -1.65353 0.656703 0.350066 0
M  V30 16 C -0.312567 1.08104 0.786778 0
M  V30 17 S -2.94441 1.76932 0.208931 0
M  V30 18 O -3.1601 2.46276 1.51512 0
M  V30 19 O -4.19325 1.10411 -0.273925 0
M  V30 20 N -2.57239 2.98618 -0.991292 0
M  V30 21 H 6.16751 0.223828 -0.517621 0
M  V30 22 H 5.59959 -1.43469 -0.0558034 0
M  V30 23 H 4.75413 2.14571 0.84178 0
M  V30 24 H 2.08621 2.41367 1.23911 0
M  V30 25 H 0.539836 -0.808594 1.2873 0
M  V30 26 H 1.22743 -1.30942 -1.08624 0
M  V30 27 H 0.228064 0.132284 -1.56938 0
M  V30 28 H -0.214161 -3.28092 -1.46732 0
M  V30 29 H -2.37365 -4.3734 -0.980149 0
M  V30 30 H -4.16548 -3.14471 0.112256 0
M  V30 31 H -3.86313 -0.829276 0.755719 0
M  V30 32 H -0.400926 1.31341 1.8649 0
M  V30 33 H -0.0153022 1.99995 0.217969 0
M  V30 34 H -3.11697 3.8308 -0.709639 0
M  V30 35 H -1.56386 3.23025 -0.875577 0
M  V30 END ATOM
M  V30 BEGIN BOND
M  V30 1 1 1 2
M  V30 2 1 2 3
M  V30 3 2 3 4
M  V30 4 1 4 5
M  V30 5 1 5 6
M  V30 6 1 5 7
M  V30 7 1 7 8
M  V30 8 1 8 9
M  V30 9 2 9 10
M  V30 10 1 10 11
M  V30 11 2 11 12
M  V30 12 1 12 13
M  V30 13 2 13 14
M  V30 14 1 14 15
M  V30 15 1 15 16
M  V30 16 1 15 17
M  V30 17 2 17 18
M  V30 18 2 17 19
M  V30 19 1 17 20
M  V30 20 2 6 2
M  V30 21 1 16 7
M  V30 22 1 14 9
M  V30 23 1 1 21
M  V30 24 1 1 22
M  V30 25 1 3 23
M  V30 26 1 4 24
M  V30 27 1 7 25 CFG=1
M  V30 28 1 8 26
M  V30 29 1 8 27
M  V30 30 1 10 28
M  V30 31 1 11 29
M  V30 32 1 12 30
M  V30 33 1 13 31
M  V30 34 1 16 32
M  V30 35 1 16 33
M  V30 36 1 20 34
M  V30 37 1 20 35
M  V30 END BOND
M  V30 END CTAB
M  END
