
     RDKit          3D

  0  0  0  0  0  0  0  0  0  0999 V3000
M  V30 BEGIN CTAB
M  V30 COUNTS 26 27 0 0 0
M  V30 BEGIN ATOM
M  V30 1 N -2.36067 1.02303 -1.64182 0
M  V30 2 C -2.61235 -0.0346169 -0.681652 0
M  V30 3 C -1.9834 0.302886 0.668054 0
M  V30 4 C -0.500421 0.459533 0.470231 0
M  V30 5 N 0.24912 1.56262 0.621408 0
M  V30 6 C 1.54343 1.31274 0.353915 0
M  V30 7 C 1.60281 -0.0232578 0.0167338 0
M  V30 8 N 0.347487 -0.514076 0.0963272 0
M  V30 9 C 2.83045 -0.554233 -0.309105 0
M  V30 10 N 2.87715 -1.938 -0.655991 0
M  V30 11 N 3.93034 0.220401 -0.294325 0
M  V30 12 C 3.88228 1.52443 0.0332121 0
M  V30 13 N 2.67903 2.03749 0.350769 0
M  V30 14 C -2.28512 -0.724063 1.70395 0
M  V30 15 H -3.03109 1.80771 -1.51338 0
M  V30 16 H -2.4447 0.645703 -2.61242 0
M  V30 17 H -2.17112 -0.990186 -0.999173 0
M  V30 18 H -3.69741 -0.19987 -0.542194 0
M  V30 19 H -2.43616 1.26737 0.97648 0
M  V30 20 H 0.0999676 -1.50359 -0.106962 0
M  V30 21 H 2.49044 -2.60719 0.0456254 0
M  V30 22 H 3.2593 -2.30538 -1.53345 0
M  V30 23 H 4.78967 2.14982 0.0420622 0
M  V30 24 H -1.35023 -0.901833 2.30529 0
M  V30 25 H -3.02779 -0.346442 2.43587 0
M  V30 26 H -2.68101 -1.67102 1.28919 0
M  V30 END ATOM
M  V30 BEGIN BOND
M  V30 1 1 1 2
M  V30 2 1 2 3
M  V30 3 1 3 4
M  V30 4 2 4 5
M  V30 5 1 5 6
M  V30 6 2 6 7
M  V30 7 1 7 8
M  V30 8 1 7 9
M  V30 9 1 9 10
M  V30 10 2 9 11
M  V30 11 1 11 12
M  V30 12 2 12 13
M  V30 13 1 3 14
M  V30 14 1 8 4
M  V30 15 1 13 6
M  V30 16 1 1 15
M  V30 17 1 1 16
M  V30 18 1 2 17
M  V30 19 1 2 18
M  V30 20 1 3 19
M  V30 21 1 8 20
M  V30 22 1 10 21
M  V30 23 1 10 22
M  V30 24 1 12 23
M  V30 25 1 14 24
M  V30 26 1 14 25
M  V30 27 1 14 26
M  V30 END BOND
M  V30 END CTAB
M  END
