
     RDKit          3D

  0  0  0  0  0  0  0  0  0  0999 V3000
M  V30 BEGIN CTAB
M  V30 COUNTS 36 37 0 0 0
M  V30 BEGIN ATOM
M  V30 1 C -2.22159 -1.86912 -1.24516 0
M  V30 2 N -1.25535 -2.1158 -0.222695 0
M  V30 3 C -1.45358 -3.19152 0.700125 0
M  V30 4 C -0.0901404 -1.31961 -0.128584 0
M  V30 5 C -0.135334 0.0456507 0.0381766 0
M  V30 6 N 1.05831 0.705243 0.0925257 0
M  V30 7 C 2.23794 0.095369 -0.00626387 0
M  V30 8 C 3.48296 0.837575 0.0570116 0
M  V30 9 O 4.56447 0.221599 -0.0403941 0
M  V30 10 N 3.48872 2.23726 0.226056 0
M  V30 11 N 4.6404 3.01031 0.295059 0
M  V30 12 C 2.25576 -1.27972 -0.17284 0
M  V30 13 N 3.53374 -1.8916 -0.273519 0
M  V30 14 N 1.11397 -1.96055 -0.231249 0
M  V30 15 C -1.37616 0.809339 0.134054 0
M  V30 16 C -1.58795 1.91043 -0.665126 0
M  V30 17 C -2.7694 2.64968 -0.537067 0
M  V30 18 C -3.72559 2.29134 0.378585 0
M  V30 19 C -3.51865 1.20411 1.16944 0
M  V30 20 C -2.3303 0.456278 1.04458 0
M  V30 21 H -1.97025 -0.970949 -1.86707 0
M  V30 22 H -2.13172 -2.72659 -1.97706 0
M  V30 23 H -3.27143 -1.84145 -0.887204 0
M  V30 24 H -1.04485 -4.1462 0.267368 0
M  V30 25 H -0.930473 -3.02689 1.6671 0
M  V30 26 H -2.54581 -3.37676 0.860765 0
M  V30 27 H 2.57529 2.75185 0.307618 0
M  V30 28 H 5.03134 3.06717 -0.692442 0
M  V30 29 H 5.35806 2.47413 0.841272 0
M  V30 30 H 4.06099 -2.15642 0.576459 0
M  V30 31 H 3.9211 -2.06443 -1.21621 0
M  V30 32 H -0.872884 2.24495 -1.40635 0
M  V30 33 H -2.95675 3.51957 -1.15564 0
M  V30 34 H -4.6595 2.85925 0.493499 0
M  V30 35 H -4.27464 0.92753 1.88766 0
M  V30 36 H -2.2007 -0.381041 1.68751 0
M  V30 END ATOM
M  V30 BEGIN BOND
M  V30 1 1 1 2
M  V30 2 1 2 3
M  V30 3 1 2 4
M  V30 4 2 4 5
M  V30 5 1 5 6
M  V30 6 2 6 7
M  V30 7 1 7 8
M  V30 8 2 8 9
M  V30 9 1 8 10
M  V30 10 1 10 11
M  V30 11 1 7 12
M  V30 12 1 12 13
M  V30 13 2 12 14
M  V30 14 1 5 15
M  V30 15 2 15 16
M  V30 16 1 16 17
M  V30 17 2 17 18
M  V30 18 1 18 19
M  V30 19 2 19 20
M  V30 20 1 14 4
M  V30 21 1 20 15
M  V30 22 1 1 21
M  V30 23 1 1 22
M  V30 24 1 1 23
M  V30 25 1 3 24
M  V30 26 1 3 25
M  V30 27 1 3 26
M  V30 28 1 10 27
M  V30 29 1 11 28
M  V30 30 1 11 29
M  V30 31 1 13 30
M  V30 32 1 13 31
M  V30 33 1 16 32
M  V30 34 1 17 33
M  V30 35 1 18 34
M  V30 36 1 19 35
M  V30 37 1 20 36
M  V30 END BOND
M  V30 END CTAB
M  END
