
     RDKit          3D

  0  0  0  0  0  0  0  0  0  0999 V3000
M  V30 BEGIN CTAB
M  V30 COUNTS 30 31 0 0 0
M  V30 BEGIN ATOM
M  V30 1 N -3.38968 2.52963 -1.06836 0
M  V30 2 C -3.23608 1.91132 0.236167 0
M  V30 3 C -2.66004 0.560564 0.0480517 0
M  V30 4 C -3.54429 -0.489136 -0.122452 0
M  V30 5 C -3.01379 -1.73584 -0.29609 0
M  V30 6 C -1.64083 -1.89004 -0.293694 0
M  V30 7 C -0.773016 -0.846498 -0.124396 0
M  V30 8 N -1.33067 0.386093 0.0466728 0
M  V30 9 C 0.674041 -1.018 -0.123191 0
M  V30 10 N 1.49445 0.0596643 0.0502626 0
M  V30 11 C 2.82617 -0.0436292 0.0594048 0
M  V30 12 C 3.72431 1.12925 0.24827 0
M  V30 13 N 3.01156 2.35423 0.41517 0
M  V30 14 C 3.45021 -1.26031 -0.108098 0
M  V30 15 C 2.68336 -2.3882 -0.287958 0
M  V30 16 C 1.30307 -2.22673 -0.289433 0
M  V30 17 H -2.66185 2.12937 -1.73217 0
M  V30 18 H -4.31804 2.18543 -1.43913 0
M  V30 19 H -2.60765 2.51916 0.911389 0
M  V30 20 H -4.2584 1.85346 0.708469 0
M  V30 21 H -4.60842 -0.385658 -0.126667 0
M  V30 22 H -3.61467 -2.62971 -0.438504 0
M  V30 23 H -1.25102 -2.89421 -0.434241 0
M  V30 24 H 4.43987 1.21369 -0.592473 0
M  V30 25 H 4.34274 0.955849 1.15945 0
M  V30 26 H 3.52323 2.96761 1.08975 0
M  V30 27 H 3.02525 2.86023 -0.502287 0
M  V30 28 H 4.55539 -1.32288 -0.0971066 0
M  V30 29 H 3.14451 -3.35698 -0.421986 0
M  V30 30 H 0.710277 -3.12774 -0.432748 0
M  V30 END ATOM
M  V30 BEGIN BOND
M  V30 1 1 1 2
M  V30 2 1 2 3
M  V30 3 2 3 4
M  V30 4 1 4 5
M  V30 5 2 5 6
M  V30 6 1 6 7
M  V30 7 2 7 8
M  V30 8 1 7 9
M  V30 9 2 9 10
M  V30 10 1 10 11
M  V30 11 1 11 12
M  V30 12 1 12 13
M  V30 13 2 11 14
M  V30 14 1 14 15
M  V30 15 2 15 16
M  V30 16 1 8 3
M  V30 17 1 16 9
M  V30 18 1 1 17
M  V30 19 1 1 18
M  V30 20 1 2 19
M  V30 21 1 2 20
M  V30 22 1 4 21
M  V30 23 1 5 22
M  V30 24 1 6 23
M  V30 25 1 12 24
M  V30 26 1 12 25
M  V30 27 1 13 26
M  V30 28 1 13 27
M  V30 29 1 14 28
M  V30 30 1 15 29
M  V30 31 1 16 30
M  V30 END BOND
M  V30 END CTAB
M  END
