
     RDKit          3D

  0  0  0  0  0  0  0  0  0  0999 V3000
M  V30 BEGIN CTAB
M  V30 COUNTS 25 25 0 0 0
M  V30 BEGIN ATOM
M  V30 1 N 3.61039 -0.470161 0.344499 0
M  V30 2 N 2.26634 -0.77756 0.143541 0
M  V30 3 C 1.70896 -1.97583 -0.110513 0
M  V30 4 N 0.382266 -1.81948 -0.235582 0
M  V30 5 C 0.101974 -0.526338 -0.0611128 0
M  V30 6 C 1.28742 0.11764 0.175583 0
M  V30 7 N 1.34012 1.52679 0.406216 0
M  V30 8 C -1.27056 0.0409063 -0.125896 0
M  V30 9 C -1.38779 1.08584 -1.2169 0
M  V30 10 C -1.66869 0.702262 1.172 0
M  V30 11 C -2.27152 -1.04913 -0.409318 0
M  V30 12 H 3.98068 0.44141 0.0320583 0
M  V30 13 H 4.22006 -1.15985 0.804466 0
M  V30 14 H 2.30599 -2.88114 -0.187339 0
M  V30 15 H 1.53053 2.144 -0.407167 0
M  V30 16 H 1.19935 1.96375 1.33623 0
M  V30 17 H -1.83378 2.03159 -0.843462 0
M  V30 18 H -0.408825 1.23892 -1.68052 0
M  V30 19 H -2.07271 0.741488 -2.03549 0
M  V30 20 H -1.43826 0.0692895 2.05437 0
M  V30 21 H -1.26955 1.73159 1.272 0
M  V30 22 H -2.77964 0.805386 1.14427 0
M  V30 23 H -1.73256 -1.81398 -1.03525 0
M  V30 24 H -2.70386 -1.49772 0.503978 0
M  V30 25 H -3.09632 -0.669667 -1.04065 0
M  V30 END ATOM
M  V30 BEGIN BOND
M  V30 1 1 1 2
M  V30 2 1 2 3
M  V30 3 2 3 4
M  V30 4 1 4 5
M  V30 5 2 5 6
M  V30 6 1 6 7
M  V30 7 1 5 8
M  V30 8 1 8 9
M  V30 9 1 8 10
M  V30 10 1 8 11
M  V30 11 1 6 2
M  V30 12 1 1 12
M  V30 13 1 1 13
M  V30 14 1 3 14
M  V30 15 1 7 15
M  V30 16 1 7 16
M  V30 17 1 9 17
M  V30 18 1 9 18
M  V30 19 1 9 19
M  V30 20 1 10 20
M  V30 21 1 10 21
M  V30 22 1 10 22
M  V30 23 1 11 23
M  V30 24 1 11 24
M  V30 25 1 11 25
M  V30 END BOND
M  V30 END CTAB
M  END
