
     RDKit          3D

  0  0  0  0  0  0  0  0  0  0999 V3000
M  V30 BEGIN CTAB
M  V30 COUNTS 41 42 0 0 0
M  V30 BEGIN ATOM
M  V30 1 C 5.43735 1.10504 1.95412 0
M  V30 2 C 4.46848 1.56761 0.899921 0
M  V30 3 C 3.16875 0.752232 0.957749 0
M  V30 4 C 2.2189 1.21652 -0.0867885 0
M  V30 5 O 1.01009 0.617186 -0.19828 0
M  V30 6 C 0.56328 -0.63228 -0.488983 0
M  V30 7 C 1.45445 -1.64087 -0.778211 0
M  V30 8 C 1.05824 -2.92309 -1.08086 0
M  V30 9 C -0.278883 -3.22294 -1.09972 0
M  V30 10 C -1.19202 -2.20128 -0.807321 0
M  V30 11 C -0.788543 -0.945359 -0.51044 0
M  V30 12 C -1.77825 0.115144 -0.237212 0
M  V30 13 C -2.76777 -0.303253 0.773021 0
M  V30 14 C -3.8286 0.396112 1.11437 0
M  V30 15 N -4.78224 0.036035 2.06139 0
M  V30 16 S -4.02318 1.95053 0.235795 0
M  V30 17 C -3.43441 1.42999 -1.41186 0
M  V30 18 C -2.41989 0.602579 -1.46452 0
M  V30 19 C -1.91659 0.155425 -2.7802 0
M  V30 20 N -1.53248 -0.21013 -3.80647 0
M  V30 21 N -4.06453 1.91383 -2.58268 0
M  V30 22 C -2.61606 -1.55478 1.51924 0
M  V30 23 N -2.49762 -2.54251 2.13639 0
M  V30 24 H 5.39933 1.79088 2.84015 0
M  V30 25 H 5.21618 0.0718115 2.30344 0
M  V30 26 H 6.4789 1.19305 1.55751 0
M  V30 27 H 4.2106 2.64253 1.02519 0
M  V30 28 H 4.94914 1.4616 -0.0883561 0
M  V30 29 H 2.68826 1.00853 1.95205 0
M  V30 30 H 3.45521 -0.284602 0.971642 0
M  V30 31 H 2.76238 1.08613 -1.07917 0
M  V30 32 H 2.06543 2.32906 -0.0285194 0
M  V30 33 H 2.54249 -1.44872 -0.790702 0
M  V30 34 H 1.79508 -3.69633 -1.30407 0
M  V30 35 H -0.60017 -4.22674 -1.33616 0
M  V30 36 H -2.22553 -2.53168 -0.866015 0
M  V30 37 H -1.21727 0.9799 0.230491 0
M  V30 38 H -5.67538 -0.463429 1.7714 0
M  V30 39 H -4.72249 0.208311 3.08821 0
M  V30 40 H -4.70801 1.31674 -3.13132 0
M  V30 41 H -3.87263 2.88122 -2.88708 0
M  V30 END ATOM
M  V30 BEGIN BOND
M  V30 1 1 1 2
M  V30 2 1 2 3
M  V30 3 1 3 4
M  V30 4 1 4 5
M  V30 5 1 5 6
M  V30 6 2 6 7
M  V30 7 1 7 8
M  V30 8 2 8 9
M  V30 9 1 9 10
M  V30 10 2 10 11
M  V30 11 1 11 12
M  V30 12 1 12 13
M  V30 13 2 13 14
M  V30 14 1 14 15
M  V30 15 1 14 16
M  V30 16 1 16 17
M  V30 17 2 17 18
M  V30 18 1 18 19
M  V30 19 3 19 20
M  V30 20 1 17 21
M  V30 21 1 13 22
M  V30 22 3 22 23
M  V30 23 1 11 6
M  V30 24 1 18 12
M  V30 25 1 1 24
M  V30 26 1 1 25
M  V30 27 1 1 26
M  V30 28 1 2 27
M  V30 29 1 2 28
M  V30 30 1 3 29
M  V30 31 1 3 30
M  V30 32 1 4 31
M  V30 33 1 4 32
M  V30 34 1 7 33
M  V30 35 1 8 34
M  V30 36 1 9 35
M  V30 37 1 10 36
M  V30 38 1 12 37
M  V30 39 1 15 38
M  V30 40 1 15 39
M  V30 41 1 21 40
M  V30 42 1 21 41
M  V30 END BOND
M  V30 END CTAB
M  END
