
     RDKit          3D

  0  0  0  0  0  0  0  0  0  0999 V3000
M  V30 BEGIN CTAB
M  V30 COUNTS 16 16 0 0 0
M  V30 BEGIN ATOM
M  V30 1 C 0.50767 2.61818 -0.0194683 0
M  V30 2 C 0.181001 1.16115 -0.0193651 0
M  V30 3 N -1.07438 0.70486 -0.231607 0
M  V30 4 C -1.30867 -0.626984 -0.219683 0
M  V30 5 N -2.61089 -1.15126 -0.437754 0
M  V30 6 N -0.304991 -1.50432 0.00135173 0
M  V30 7 C 0.96809 -1.06168 0.217416 0
M  V30 8 N 2.01756 -1.98537 0.448778 0
M  V30 9 N 1.13686 0.268705 0.19349 0
M  V30 10 H -0.398912 3.23437 -0.116305 0
M  V30 11 H 1.25424 2.7772 -0.813733 0
M  V30 12 H 1.01299 2.86005 0.951065 0
M  V30 13 H -3.19544 -1.40252 0.384866 0
M  V30 14 H -2.95271 -1.27292 -1.41723 0
M  V30 15 H 2.60332 -2.30646 -0.341836 0
M  V30 16 H 2.16428 -2.313 1.42001 0
M  V30 END ATOM
M  V30 BEGIN BOND
M  V30 1 1 1 2
M  V30 2 2 2 3
M  V30 3 1 3 4
M  V30 4 1 4 5
M  V30 5 2 4 6
M  V30 6 1 6 7
M  V30 7 1 7 8
M  V30 8 2 7 9
M  V30 9 1 9 2
M  V30 10 1 1 10
M  V30 11 1 1 11
M  V30 12 1 1 12
M  V30 13 1 5 13
M  V30 14 1 5 14
M  V30 15 1 8 15
M  V30 16 1 8 16
M  V30 END BOND
M  V30 END CTAB
M  END
