
     RDKit          3D

  0  0  0  0  0  0  0  0  0  0999 V3000
M  V30 BEGIN CTAB
M  V30 COUNTS 24 24 0 0 0
M  V30 BEGIN ATOM
M  V30 1 Cl -4.22634 1.64447 0.432617 0
M  V30 2 C -4.55771 0.0322794 -0.119902 0
M  V30 3 C -3.7141 -0.882018 -0.44353 0
M  V30 4 C -2.2753 -0.936411 -0.476615 0
M  V30 5 N -1.54185 0.20165 -0.090388 0
M  V30 6 C -0.0714423 0.133191 -0.129381 0
M  V30 7 C 0.55392 -1.02081 -0.535422 0
M  V30 8 C 1.94958 -1.06266 -0.564321 0
M  V30 9 C 2.70017 0.0317945 -0.1931 0
M  V30 10 C 2.02263 1.1651 0.206311 0
M  V30 11 N 0.677344 1.18533 0.227204 0
M  V30 12 N 2.81184 2.28467 0.585855 0
M  V30 13 N 4.11926 -0.0206518 -0.225863 0
M  V30 14 Cl -6.30545 -0.442334 -0.266133 0
M  V30 15 H -4.19535 -1.87262 -0.779609 0
M  V30 16 H -1.89227 -1.80688 0.188899 0
M  V30 17 H -1.9949 -1.28145 -1.52752 0
M  V30 18 H -1.91861 1.10693 0.226916 0
M  V30 19 H -0.0588428 -1.85489 -0.817916 0
M  V30 20 H 2.45789 -1.96415 -0.881729 0
M  V30 21 H 2.86429 3.09712 -0.0565058 0
M  V30 22 H 3.3435 2.34182 1.47204 0
M  V30 23 H 4.61346 -0.382676 0.594734 0
M  V30 24 H 4.6383 0.303195 -1.06808 0
M  V30 END ATOM
M  V30 BEGIN BOND
M  V30 1 1 1 2
M  V30 2 2 2 3 CFG=2
M  V30 3 1 3 4
M  V30 4 1 4 5
M  V30 5 1 5 6
M  V30 6 2 6 7
M  V30 7 1 7 8
M  V30 8 2 8 9
M  V30 9 1 9 10
M  V30 10 2 10 11
M  V30 11 1 10 12
M  V30 12 1 9 13
M  V30 13 1 2 14
M  V30 14 1 11 6
M  V30 15 1 3 15
M  V30 16 1 4 16
M  V30 17 1 4 17
M  V30 18 1 5 18
M  V30 19 1 7 19
M  V30 20 1 8 20
M  V30 21 1 12 21
M  V30 22 1 12 22
M  V30 23 1 13 23
M  V30 24 1 13 24
M  V30 END BOND
M  V30 END CTAB
M  END
