
     RDKit          3D

  0  0  0  0  0  0  0  0  0  0999 V3000
M  V30 BEGIN CTAB
M  V30 COUNTS 40 39 0 0 0
M  V30 BEGIN ATOM
M  V30 1 C -4.22999 -0.762144 0.7343 0
M  V30 2 C -2.89679 -1.36034 0.426546 0
M  V30 3 C -1.78496 -0.343793 0.235205 0
M  V30 4 C -0.546913 -1.15633 -0.0465353 0
M  V30 5 N 0.663574 -0.478706 -0.296869 0
M  V30 6 C 1.40575 0.334301 0.551636 0
M  V30 7 O 1.04854 0.560713 1.72885 0
M  V30 8 C 2.67807 0.994339 0.129044 0
M  V30 9 C 3.80544 0.0352922 -0.02169 0
M  V30 10 N 3.56142 -0.98272 -1.00236 0
M  V30 11 C 3.95948 -0.670227 1.33194 0
M  V30 12 C 2.49304 1.73023 -1.18291 0
M  V30 13 C -1.952 0.535745 -0.966157 0
M  V30 14 C -3.15782 1.38235 -1.03066 0
M  V30 15 N -1.69809 0.372296 1.46272 0
M  V30 16 H -4.18556 0.032997 1.51066 0
M  V30 17 H -4.80821 -1.59391 1.25065 0
M  V30 18 H -4.84556 -0.475385 -0.113666 0
M  V30 19 H -2.9907 -2.0435 -0.42921 0
M  V30 20 H -2.59008 -1.98128 1.29495 0
M  V30 21 H -0.423712 -1.89833 0.795156 0
M  V30 22 H -0.825527 -1.7399 -0.984586 0
M  V30 23 H 1.07629 -0.594524 -1.291 0
M  V30 24 H 2.9701 1.75942 0.867124 0
M  V30 25 H 4.77849 0.553336 -0.195667 0
M  V30 26 H 3.37715 -0.655386 -1.95523 0
M  V30 27 H 3.05039 -1.80949 -0.686274 0
M  V30 28 H 3.17408 -1.44564 1.44846 0
M  V30 29 H 3.99656 0.0572964 2.15088 0
M  V30 30 H 4.93475 -1.22012 1.29712 0
M  V30 31 H 2.14415 2.76884 -0.986811 0
M  V30 32 H 3.46328 1.82354 -1.70915 0
M  V30 33 H 1.7994 1.22704 -1.86868 0
M  V30 34 H -1.04282 1.18569 -0.996173 0
M  V30 35 H -1.88409 -0.0999593 -1.87302 0
M  V30 36 H -3.89804 0.956419 -1.75364 0
M  V30 37 H -3.58024 1.6971 -0.0771976 0
M  V30 38 H -2.86337 2.35506 -1.5396 0
M  V30 39 H -1.89703 -0.264595 2.25286 0
M  V30 40 H -2.27844 1.21427 1.53899 0
M  V30 END ATOM
M  V30 BEGIN BOND
M  V30 1 1 1 2
M  V30 2 1 2 3
M  V30 3 1 3 4
M  V30 4 1 4 5
M  V30 5 1 5 6
M  V30 6 2 6 7
M  V30 7 1 6 8
M  V30 8 1 8 9
M  V30 9 1 9 10
M  V30 10 1 9 11
M  V30 11 1 8 12
M  V30 12 1 3 13
M  V30 13 1 13 14
M  V30 14 1 3 15
M  V30 15 1 1 16
M  V30 16 1 1 17
M  V30 17 1 1 18
M  V30 18 1 2 19
M  V30 19 1 2 20
M  V30 20 1 4 21
M  V30 21 1 4 22
M  V30 22 1 5 23
M  V30 23 1 8 24
M  V30 24 1 9 25
M  V30 25 1 10 26
M  V30 26 1 10 27
M  V30 27 1 11 28
M  V30 28 1 11 29
M  V30 29 1 11 30
M  V30 30 1 12 31
M  V30 31 1 12 32
M  V30 32 1 12 33
M  V30 33 1 13 34
M  V30 34 1 13 35
M  V30 35 1 14 36
M  V30 36 1 14 37
M  V30 37 1 14 38
M  V30 38 1 15 39
M  V30 39 1 15 40
M  V30 END BOND
M  V30 END CTAB
M  END
