
     RDKit          3D

  0  0  0  0  0  0  0  0  0  0999 V3000
M  V30 BEGIN CTAB
M  V30 COUNTS 20 20 0 0 0
M  V30 BEGIN ATOM
M  V30 1 N 2.93432 -0.780509 -0.705027 0
M  V30 2 C 1.66574 -0.312018 -1.16327 0
M  V30 3 C 1.17787 0.729138 -0.220004 0
M  V30 4 C 0.987796 0.291308 1.19694 0
M  V30 5 C -0.139127 0.865628 0.330791 0
M  V30 6 C -1.26517 -0.0503084 0.162028 0
M  V30 7 O -1.12091 -1.2743 -0.176947 0
M  V30 8 N -2.6193 0.336016 0.359049 0
M  V30 9 N -3.71415 -0.515585 0.205434 0
M  V30 10 H 3.63143 -0.079469 -0.485179 0
M  V30 11 H 3.23708 -1.68356 -1.03988 0
M  V30 12 H 1.84941 0.201497 -2.15253 0
M  V30 13 H 1.02106 -1.15624 -1.36454 0
M  V30 14 H 1.80383 1.67121 -0.292414 0
M  V30 15 H 1.00424 -0.781612 1.40593 0
M  V30 16 H 1.34179 0.923818 2.03533 0
M  V30 17 H -0.466653 1.90223 0.637393 0
M  V30 18 H -2.7747 1.34757 0.641675 0
M  V30 19 H -4.17533 -0.741329 1.10454 0
M  V30 20 H -4.37922 -0.117208 -0.479322 0
M  V30 END ATOM
M  V30 BEGIN BOND
M  V30 1 1 1 2
M  V30 2 1 2 3
M  V30 3 1 3 4
M  V30 4 1 4 5
M  V30 5 1 5 6
M  V30 6 2 6 7
M  V30 7 1 6 8
M  V30 8 1 8 9
M  V30 9 1 5 3
M  V30 10 1 1 10
M  V30 11 1 1 11
M  V30 12 1 2 12
M  V30 13 1 2 13
M  V30 14 1 3 14
M  V30 15 1 4 15
M  V30 16 1 4 16
M  V30 17 1 5 17
M  V30 18 1 8 18
M  V30 19 1 9 19
M  V30 20 1 9 20
M  V30 END BOND
M  V30 END CTAB
M  END
