
     RDKit          3D

  0  0  0  0  0  0  0  0  0  0999 V3000
M  V30 BEGIN CTAB
M  V30 COUNTS 48 48 0 0 0
M  V30 BEGIN ATOM
M  V30 1 C -2.48532 -1.77706 1.70666 0
M  V30 2 C -2.90274 -0.323709 1.52199 0
M  V30 3 C -3.71204 0.148967 2.71476 0
M  V30 4 O -1.75463 0.425327 1.42949 0
M  V30 5 P -1.59893 1.19534 -0.082082 0
M  V30 6 O -0.508523 2.19802 0.0463535 0
M  V30 7 C -1.14602 -0.0582144 -1.31847 0
M  V30 8 O -0.431693 -1.04269 -0.720934 0
M  V30 9 C 0.750423 -0.651811 -0.156298 0
M  V30 10 C 1.69301 -0.117244 -1.18073 0
M  V30 11 O 2.9345 0.298077 -0.65001 0
M  V30 12 C 3.84147 -0.469305 0.0170696 0
M  V30 13 N 3.73472 -1.7771 0.30163 0
M  V30 14 C 4.65314 -2.4995 0.96258 0
M  V30 15 N 4.46654 -3.89918 1.23012 0
M  V30 16 N 5.76707 -1.86805 1.37276 0
M  V30 17 C 5.96877 -0.560687 1.13726 0
M  V30 18 N 7.15495 0.0779857 1.58258 0
M  V30 19 C 5.0022 0.165019 0.450618 0
M  V30 20 O -3.06362 1.85652 -0.563361 0
M  V30 21 C -3.1912 2.05939 -1.90133 0
M  V30 22 C -4.29369 1.29747 -2.56114 0
M  V30 23 C -3.32755 3.5118 -2.29851 0
M  V30 24 H -1.43329 -1.87085 2.00608 0
M  V30 25 H -2.66658 -2.38177 0.793663 0
M  V30 26 H -3.11657 -2.24879 2.50701 0
M  V30 27 H -3.51439 -0.291967 0.598189 0
M  V30 28 H -3.61897 1.2268 2.90094 0
M  V30 29 H -4.78775 -0.136704 2.52217 0
M  V30 30 H -3.40175 -0.382039 3.64256 0
M  V30 31 H -0.628952 0.451725 -2.1391 0
M  V30 32 H -2.09317 -0.45406 -1.79335 0
M  V30 33 H 1.17356 -1.58313 0.339834 0
M  V30 34 H 0.535889 0.0785313 0.658137 0
M  V30 35 H 1.24685 0.744962 -1.68947 0
M  V30 36 H 1.82424 -0.908134 -1.95671 0
M  V30 37 H 3.68676 -4.23114 1.85123 0
M  V30 38 H 5.07418 -4.63841 0.836112 0
M  V30 39 H 7.30241 0.277686 2.59158 0
M  V30 40 H 7.88013 0.346581 0.891342 0
M  V30 41 H 5.14695 1.20013 0.256491 0
M  V30 42 H -2.22831 1.71208 -2.38387 0
M  V30 43 H -5.27227 1.81598 -2.53003 0
M  V30 44 H -4.02844 1.18336 -3.63871 0
M  V30 45 H -4.38363 0.260605 -2.14818 0
M  V30 46 H -4.3909 3.79223 -2.13284 0
M  V30 47 H -3.12632 3.66533 -3.37858 0
M  V30 48 H -2.7305 4.1816 -1.64549 0
M  V30 END ATOM
M  V30 BEGIN BOND
M  V30 1 1 1 2
M  V30 2 1 2 3
M  V30 3 1 2 4
M  V30 4 1 4 5
M  V30 5 2 5 6
M  V30 6 1 5 7
M  V30 7 1 7 8
M  V30 8 1 8 9
M  V30 9 1 9 10
M  V30 10 1 10 11
M  V30 11 1 11 12
M  V30 12 2 12 13
M  V30 13 1 13 14
M  V30 14 1 14 15
M  V30 15 2 14 16
M  V30 16 1 16 17
M  V30 17 1 17 18
M  V30 18 2 17 19
M  V30 19 1 5 20
M  V30 20 1 20 21
M  V30 21 1 21 22
M  V30 22 1 21 23
M  V30 23 1 19 12
M  V30 24 1 1 24
M  V30 25 1 1 25
M  V30 26 1 1 26
M  V30 27 1 2 27
M  V30 28 1 3 28
M  V30 29 1 3 29
M  V30 30 1 3 30
M  V30 31 1 7 31
M  V30 32 1 7 32
M  V30 33 1 9 33
M  V30 34 1 9 34
M  V30 35 1 10 35
M  V30 36 1 10 36
M  V30 37 1 15 37
M  V30 38 1 15 38
M  V30 39 1 18 39
M  V30 40 1 18 40
M  V30 41 1 19 41
M  V30 42 1 21 42
M  V30 43 1 22 43
M  V30 44 1 22 44
M  V30 45 1 22 45
M  V30 46 1 23 46
M  V30 47 1 23 47
M  V30 48 1 23 48
M  V30 END BOND
M  V30 END CTAB
M  END
