
     RDKit          3D

  0  0  0  0  0  0  0  0  0  0999 V3000
M  V30 BEGIN CTAB
M  V30 COUNTS 18 18 0 0 0
M  V30 BEGIN ATOM
M  V30 1 N -0.0197498 4.11361 -0.15582 0
M  V30 2 C 0.0337002 2.9567 -0.0996061 0
M  V30 3 C 0.0989755 1.50616 -0.0542735 0
M  V30 4 C 1.30494 0.846429 -0.0602324 0
M  V30 5 C 1.43068 -0.524883 -0.018816 0
M  V30 6 N 2.68548 -1.19053 -0.0256835 0
M  V30 7 C 0.261343 -1.26297 0.0314333 0
M  V30 8 C -0.972708 -0.642416 0.0392922 0
M  V30 9 C -1.0557 0.739493 -0.00343688 0
M  V30 10 O -2.29104 1.37559 0.00394658 0
M  V30 11 N -2.11932 -1.4625 0.0916655 0
M  V30 12 H 2.19394 1.44896 -0.0997689 0
M  V30 13 H 3.12419 -1.3755 0.920728 0
M  V30 14 H 3.16918 -1.49162 -0.912953 0
M  V30 15 H 0.354591 -2.33628 0.0639657 0
M  V30 16 H -3.12479 0.821891 0.0406756 0
M  V30 17 H -2.5723 -1.79466 -0.772878 0
M  V30 18 H -2.50141 -1.72745 1.01176 0
M  V30 END ATOM
M  V30 BEGIN BOND
M  V30 1 3 1 2
M  V30 2 1 2 3
M  V30 3 2 3 4
M  V30 4 1 4 5
M  V30 5 1 5 6
M  V30 6 2 5 7
M  V30 7 1 7 8
M  V30 8 2 8 9
M  V30 9 1 9 10
M  V30 10 1 8 11
M  V30 11 1 9 3
M  V30 12 1 4 12
M  V30 13 1 6 13
M  V30 14 1 6 14
M  V30 15 1 7 15
M  V30 16 1 10 16
M  V30 17 1 11 17
M  V30 18 1 11 18
M  V30 END BOND
M  V30 END CTAB
M  END
