
     RDKit          3D

  0  0  0  0  0  0  0  0  0  0999 V3000
M  V30 BEGIN CTAB
M  V30 COUNTS 44 44 0 0 0
M  V30 BEGIN ATOM
M  V30 1 C -3.8061 1.70153 1.19463 0
M  V30 2 C -3.21108 0.398226 0.642319 0
M  V30 3 C -2.74631 0.6895 -0.752723 0
M  V30 4 C -2.12071 -0.512396 -1.44591 0 CFG=1
M  V30 5 C -0.947491 -1.04867 -0.745094 0
M  V30 6 O -1.05572 -2.17598 -0.180238 0
M  V30 7 N 0.287292 -0.386717 -0.666465 0
M  V30 8 C 0.436776 0.901754 -1.31585 0
M  V30 9 C 1.94818 0.983447 -1.61044 0
M  V30 10 C 2.59998 1.19635 -0.26299 0
M  V30 11 C 2.40575 -0.0211546 0.573441 0
M  V30 12 C 1.41022 -0.98704 0.0472807 0
M  V30 13 C 3.79099 -0.68769 0.668406 0
M  V30 14 N 3.7531 -1.88244 1.45203 0
M  V30 15 C 4.78147 0.26506 1.29851 0
M  V30 16 N -3.13534 -1.5573 -1.56596 0
M  V30 17 C -4.29395 -0.624122 0.744909 0
M  V30 18 H -4.41113 2.18923 0.431007 0
M  V30 19 H -4.50218 1.43407 2.03619 0
M  V30 20 H -3.02094 2.35112 1.60226 0
M  V30 21 H -2.32787 0.178215 1.28876 0
M  V30 22 H -3.6668 1.00326 -1.32949 0
M  V30 23 H -2.0619 1.545 -0.795603 0
M  V30 24 H -1.88363 -0.194193 -2.48044 0
M  V30 25 H 0.280473 1.69323 -0.534751 0
M  V30 26 H -0.166598 1.02965 -2.20949 0
M  V30 27 H 2.15798 1.80394 -2.32197 0
M  V30 28 H 2.22338 -0.0134235 -2.01151 0
M  V30 29 H 2.10049 2.06111 0.258854 0
M  V30 30 H 3.6615 1.50325 -0.361306 0
M  V30 31 H 2.18295 0.303878 1.62182 0
M  V30 32 H 0.938182 -1.5374 0.912735 0
M  V30 33 H 1.90625 -1.77953 -0.567373 0
M  V30 34 H 4.11318 -0.9273 -0.347463 0
M  V30 35 H 4.63296 -2.04957 1.99334 0
M  V30 36 H 2.89179 -1.9872 2.02341 0
M  V30 37 H 4.29498 0.965456 2.00808 0
M  V30 38 H 5.55133 -0.285017 1.90663 0
M  V30 39 H 5.36859 0.812392 0.516885 0
M  V30 40 H -3.87857 -1.29315 -2.24998 0
M  V30 41 H -2.70187 -2.48085 -1.7885 0
M  V30 42 H -4.98391 -0.508445 -0.0988635 0
M  V30 43 H -3.93578 -1.66389 0.88225 0
M  V30 44 H -4.85991 -0.406196 1.70036 0
M  V30 END ATOM
M  V30 BEGIN BOND
M  V30 1 1 1 2
M  V30 2 1 2 3
M  V30 3 1 3 4
M  V30 4 1 4 5
M  V30 5 2 5 6
M  V30 6 1 5 7
M  V30 7 1 7 8
M  V30 8 1 8 9
M  V30 9 1 9 10
M  V30 10 1 10 11
M  V30 11 1 11 12
M  V30 12 1 11 13
M  V30 13 1 13 14
M  V30 14 1 13 15
M  V30 15 1 4 16
M  V30 16 1 2 17
M  V30 17 1 12 7
M  V30 18 1 1 18
M  V30 19 1 1 19
M  V30 20 1 1 20
M  V30 21 1 2 21
M  V30 22 1 3 22
M  V30 23 1 3 23
M  V30 24 1 4 24 CFG=3
M  V30 25 1 8 25
M  V30 26 1 8 26
M  V30 27 1 9 27
M  V30 28 1 9 28
M  V30 29 1 10 29
M  V30 30 1 10 30
M  V30 31 1 11 31
M  V30 32 1 12 32
M  V30 33 1 12 33
M  V30 34 1 13 34
M  V30 35 1 14 35
M  V30 36 1 14 36
M  V30 37 1 15 37
M  V30 38 1 15 38
M  V30 39 1 15 39
M  V30 40 1 16 40
M  V30 41 1 16 41
M  V30 42 1 17 42
M  V30 43 1 17 43
M  V30 44 1 17 44
M  V30 END BOND
M  V30 END CTAB
M  END
