
     RDKit          3D

  0  0  0  0  0  0  0  0  0  0999 V3000
M  V30 BEGIN CTAB
M  V30 COUNTS 28 29 0 0 0
M  V30 BEGIN ATOM
M  V30 1 N -0.398171 -1.85131 0.181196 0
M  V30 2 C -0.148646 -0.42734 0.229875 0
M  V30 3 C -0.800662 0.202173 1.4549 0
M  V30 4 C -2.07205 0.928806 1.11551 0
M  V30 5 C -2.86582 0.201956 0.0512271 0
M  V30 6 C -2.07139 -0.0051142 -1.19362 0
M  V30 7 C -0.609631 0.245223 -1.04137 0
M  V30 8 C 1.3473 -0.281814 0.411843 0
M  V30 9 C 1.92059 -0.679301 1.59034 0
M  V30 10 S 3.57192 -0.318611 1.28946 0
M  V30 11 C 3.42115 0.302767 -0.294059 0
M  V30 12 N 2.1192 0.204869 -0.511714 0
M  V30 13 N 4.45597 0.78869 -1.14754 0
M  V30 14 H 0.269543 -2.23527 -0.510098 0
M  V30 15 H -1.36738 -2.05921 -0.124636 0
M  V30 16 H -0.077987 0.880183 1.92941 0
M  V30 17 H -0.980893 -0.61272 2.18179 0
M  V30 18 H -1.81649 1.92231 0.70901 0
M  V30 19 H -2.68542 0.989127 2.02459 0
M  V30 20 H -3.76719 0.830076 -0.139888 0
M  V30 21 H -3.26847 -0.718331 0.519778 0
M  V30 22 H -2.24744 -1.01293 -1.66256 0
M  V30 23 H -2.43671 0.734519 -1.97388 0
M  V30 24 H -0.0663122 -0.220259 -1.86964 0
M  V30 25 H -0.472643 1.34189 -0.976527 0
M  V30 26 H 1.43294 -1.12064 2.4787 0
M  V30 27 H 5.40686 0.372903 -1.18788 0
M  V30 28 H 4.20784 1.59736 -1.73512 0
M  V30 END ATOM
M  V30 BEGIN BOND
M  V30 1 1 1 2
M  V30 2 1 2 3
M  V30 3 1 3 4
M  V30 4 1 4 5
M  V30 5 1 5 6
M  V30 6 1 6 7
M  V30 7 1 2 8
M  V30 8 2 8 9
M  V30 9 1 9 10
M  V30 10 1 10 11
M  V30 11 2 11 12
M  V30 12 1 11 13
M  V30 13 1 7 2
M  V30 14 1 12 8
M  V30 15 1 1 14
M  V30 16 1 1 15
M  V30 17 1 3 16
M  V30 18 1 3 17
M  V30 19 1 4 18
M  V30 20 1 4 19
M  V30 21 1 5 20
M  V30 22 1 5 21
M  V30 23 1 6 22
M  V30 24 1 6 23
M  V30 25 1 7 24
M  V30 26 1 7 25
M  V30 27 1 9 26
M  V30 28 1 13 27
M  V30 29 1 13 28
M  V30 END BOND
M  V30 END CTAB
M  END
