
     RDKit          3D

  0  0  0  0  0  0  0  0  0  0999 V3000
M  V30 BEGIN CTAB
M  V30 COUNTS 18 17 0 0 0
M  V30 BEGIN ATOM
M  V30 1 C 0.156199 1.44274 -0.11154 0
M  V30 2 C 0.294565 0.0414491 0.428061 0 CFG=1
M  V30 3 N 0.168203 0.146565 1.88844 0
M  V30 4 C -0.840699 -0.840596 -0.0623543 0
M  V30 5 N -2.09582 -0.310957 0.369793 0
M  V30 6 C 1.60994 -0.554339 0.0786132 0
M  V30 7 O 1.8939 -0.725871 -1.26746 0
M  V30 8 O 2.40542 -0.876633 0.993076 0
M  V30 9 H -0.204318 1.42469 -1.14991 0
M  V30 10 H 1.14128 1.9545 -0.0498063 0
M  V30 11 H -0.578234 2.034 0.482086 0
M  V30 12 H -0.707286 0.655796 2.06486 0
M  V30 13 H 0.986117 0.607862 2.31627 0
M  V30 14 H -0.684056 -1.87342 0.306034 0
M  V30 15 H -0.770042 -0.89305 -1.17957 0
M  V30 16 H -2.57369 0.283278 -0.332881 0
M  V30 17 H -2.7025 -1.00607 0.834099 0
M  V30 18 H 2.50101 -1.50994 -1.53267 0
M  V30 END ATOM
M  V30 BEGIN BOND
M  V30 1 1 1 2
M  V30 2 1 2 3
M  V30 3 1 2 4
M  V30 4 1 4 5
M  V30 5 1 2 6 CFG=1
M  V30 6 1 6 7
M  V30 7 2 6 8
M  V30 8 1 1 9
M  V30 9 1 1 10
M  V30 10 1 1 11
M  V30 11 1 3 12
M  V30 12 1 3 13
M  V30 13 1 4 14
M  V30 14 1 4 15
M  V30 15 1 5 16
M  V30 16 1 5 17
M  V30 17 1 7 18
M  V30 END BOND
M  V30 END CTAB
M  END
