
     RDKit          3D

  0  0  0  0  0  0  0  0  0  0999 V3000
M  V30 BEGIN CTAB
M  V30 COUNTS 24 24 0 0 0
M  V30 BEGIN ATOM
M  V30 1 Br 4.21467 0.569673 -1.13626 0
M  V30 2 C 3.05646 1.12237 0.337454 0
M  V30 3 C 2.06292 0.0636562 0.539352 0
M  V30 4 O 2.50325 -1.00734 1.08876 0
M  V30 5 C 0.646325 0.135143 0.169702 0
M  V30 6 C 0.0903742 1.33836 -0.238564 0
M  V30 7 C -1.24832 1.4816 -0.57414 0
M  V30 8 N -1.75437 2.74337 -0.983113 0
M  V30 9 C -2.03142 0.350671 -0.486411 0
M  V30 10 C -1.48224 -0.844916 -0.0819656 0
M  V30 11 C -0.139445 -0.994511 0.256949 0
M  V30 12 C 0.358916 -2.32859 0.675219 0
M  V30 13 N -2.31326 -2.00962 0.00254369 0
M  V30 14 H 2.6137 2.12441 0.10419 0
M  V30 15 H 3.68981 1.17569 1.25922 0
M  V30 16 H 0.685239 2.24323 -0.316419 0
M  V30 17 H -2.45728 2.75528 -1.73818 0
M  V30 18 H -1.45689 3.64779 -0.567998 0
M  V30 19 H -3.08477 0.437712 -0.746695 0
M  V30 20 H -0.477222 -3.06744 0.54771 0
M  V30 21 H 1.18813 -2.71555 0.0490795 0
M  V30 22 H 0.595905 -2.31423 1.77025 0
M  V30 23 H -3.02871 -2.14312 0.764594 0
M  V30 24 H -2.23178 -2.76366 -0.695282 0
M  V30 END ATOM
M  V30 BEGIN BOND
M  V30 1 1 1 2
M  V30 2 1 2 3
M  V30 3 2 3 4
M  V30 4 1 3 5
M  V30 5 2 5 6
M  V30 6 1 6 7
M  V30 7 1 7 8
M  V30 8 2 7 9
M  V30 9 1 9 10
M  V30 10 2 10 11
M  V30 11 1 11 12
M  V30 12 1 10 13
M  V30 13 1 11 5
M  V30 14 1 2 14
M  V30 15 1 2 15
M  V30 16 1 6 16
M  V30 17 1 8 17
M  V30 18 1 8 18
M  V30 19 1 9 19
M  V30 20 1 12 20
M  V30 21 1 12 21
M  V30 22 1 12 22
M  V30 23 1 13 23
M  V30 24 1 13 24
M  V30 END BOND
M  V30 END CTAB
M  END
