
     RDKit          3D

  0  0  0  0  0  0  0  0  0  0999 V3000
M  V30 BEGIN CTAB
M  V30 COUNTS 35 36 0 0 0
M  V30 BEGIN ATOM
M  V30 1 C -2.61009 -3.16717 -1.78431 0
M  V30 2 O -3.17945 -1.88482 -1.61367 0
M  V30 3 C -2.51082 -1.00014 -0.781489 0
M  V30 4 C -1.32293 -1.34867 -0.132744 0
M  V30 5 C -0.658321 -0.477458 0.690428 0
M  V30 6 C 0.605641 -0.767626 1.3999 0
M  V30 7 C 1.81225 -0.191555 0.822888 0
M  V30 8 C 2.44168 -0.709933 -0.27262 0
M  V30 9 N 1.92392 -1.87889 -0.893925 0
M  V30 10 N 3.56933 -0.141987 -0.794508 0
M  V30 11 C 4.11372 0.95771 -0.251374 0
M  V30 12 N 5.28558 1.55593 -0.786664 0
M  V30 13 N 3.49412 1.47895 0.837695 0
M  V30 14 C 2.38853 0.953939 1.37983 0
M  V30 15 C -1.2456 0.783559 0.840201 0
M  V30 16 C -2.41545 1.14499 0.209474 0
M  V30 17 O -3.00175 2.386 0.352017 0
M  V30 18 C -2.53323 3.44305 1.12464 0
M  V30 19 C -3.05974 0.248492 -0.61145 0
M  V30 20 Br -4.67114 0.705182 -1.50047 0
M  V30 21 H -3.24263 -3.84451 -2.38577 0
M  V30 22 H -2.45514 -3.628 -0.785235 0
M  V30 23 H -1.61605 -3.10799 -2.28636 0
M  V30 24 H -0.960757 -2.33061 -0.299997 0
M  V30 25 H 0.489073 -0.456624 2.4854 0
M  V30 26 H 0.678382 -1.89577 1.48819 0
M  V30 27 H 2.13644 -2.80295 -0.473653 0
M  V30 28 H 1.34897 -1.77357 -1.75034 0
M  V30 29 H 6.21058 1.18708 -0.535646 0
M  V30 30 H 5.20407 2.35633 -1.42401 0
M  V30 31 H 1.90582 1.38574 2.25305 0
M  V30 32 H -0.76353 1.5001 1.47288 0
M  V30 33 H -3.42302 3.86482 1.68135 0
M  V30 34 H -1.78202 3.20609 1.8779 0
M  V30 35 H -2.15644 4.25032 0.44841 0
M  V30 END ATOM
M  V30 BEGIN BOND
M  V30 1 1 1 2
M  V30 2 1 2 3
M  V30 3 2 3 4
M  V30 4 1 4 5
M  V30 5 1 5 6
M  V30 6 1 6 7
M  V30 7 2 7 8
M  V30 8 1 8 9
M  V30 9 1 8 10
M  V30 10 2 10 11
M  V30 11 1 11 12
M  V30 12 1 11 13
M  V30 13 2 13 14
M  V30 14 2 5 15
M  V30 15 1 15 16
M  V30 16 1 16 17
M  V30 17 1 17 18
M  V30 18 2 16 19
M  V30 19 1 19 20
M  V30 20 1 19 3
M  V30 21 1 14 7
M  V30 22 1 1 21
M  V30 23 1 1 22
M  V30 24 1 1 23
M  V30 25 1 4 24
M  V30 26 1 6 25
M  V30 27 1 6 26
M  V30 28 1 9 27
M  V30 29 1 9 28
M  V30 30 1 12 29
M  V30 31 1 12 30
M  V30 32 1 14 31
M  V30 33 1 15 32
M  V30 34 1 18 33
M  V30 35 1 18 34
M  V30 36 1 18 35
M  V30 END BOND
M  V30 END CTAB
M  END
