
     RDKit          3D

  0  0  0  0  0  0  0  0  0  0999 V3000
M  V30 BEGIN CTAB
M  V30 COUNTS 42 45 0 0 0
M  V30 BEGIN ATOM
M  V30 1 N -1.47584 -0.491399 3.02416 0
M  V30 2 C -1.08375 -0.291934 1.68437 0
M  V30 3 C 0.273471 -0.225581 1.36962 0
M  V30 4 C 0.642866 -0.0278734 0.0394749 0
M  V30 5 C 2.0695 0.0514659 -0.358679 0
M  V30 6 O 2.27199 0.230963 -1.58342 0
M  V30 7 N 3.09814 -0.0682658 0.582975 0
M  V30 8 C 4.473 -0.00883081 0.247552 0
M  V30 9 C 5.00924 -0.246474 -0.989691 0
M  V30 10 C 6.38778 -0.137528 -1.23865 0
M  V30 11 C 7.27159 0.213764 -0.248409 0
M  V30 12 C 6.72726 0.450831 0.994433 0
M  V30 13 C 5.39669 0.351699 1.25766 0
M  V30 14 C -0.303884 0.0991879 -0.941845 0
M  V30 15 N 0.0625592 0.303229 -2.31621 0
M  V30 16 C -1.65393 0.0338065 -0.633063 0
M  V30 17 C -2.02018 -0.163371 0.693783 0
M  V30 18 C -3.42524 -0.238932 1.06725 0
M  V30 19 O -3.74766 -0.419435 2.28326 0
M  V30 20 C -4.42459 -0.103231 0.0205178 0
M  V30 21 C -5.75246 -0.17142 0.351195 0
M  V30 22 C -6.71812 -0.0455393 -0.623879 0
M  V30 23 C -6.33668 0.149059 -1.93125 0
M  V30 24 C -5.00546 0.22054 -2.28437 0
M  V30 25 C -4.05828 0.0905759 -1.28297 0
M  V30 26 C -2.65936 0.168704 -1.67488 0
M  V30 27 O -2.30058 0.348398 -2.88141 0
M  V30 28 H -1.50575 0.24916 3.75658 0
M  V30 29 H -1.76011 -1.45221 3.31495 0
M  V30 30 H 1.0231 -0.324935 2.1373 0
M  V30 31 H 2.85452 -0.211972 1.59842 0
M  V30 32 H 4.36955 -0.547414 -1.81504 0
M  V30 33 H 6.77455 -0.331105 -2.22426 0
M  V30 34 H 8.33751 0.31263 -0.381679 0
M  V30 35 H 7.40321 0.730504 1.79836 0
M  V30 36 H 4.96986 0.538268 2.23362 0
M  V30 37 H 0.266618 -0.510151 -2.94215 0
M  V30 38 H 0.121165 1.27899 -2.67783 0
M  V30 39 H -6.01097 -0.32537 1.39008 0
M  V30 40 H -7.7746 -0.0995945 -0.362138 0
M  V30 41 H -7.09873 0.247851 -2.69694 0
M  V30 42 H -4.68797 0.37294 -3.30626 0
M  V30 END ATOM
M  V30 BEGIN BOND
M  V30 1 1 1 2
M  V30 2 2 2 3
M  V30 3 1 3 4
M  V30 4 1 4 5
M  V30 5 2 5 6
M  V30 6 1 5 7
M  V30 7 1 7 8
M  V30 8 2 8 9
M  V30 9 1 9 10
M  V30 10 2 10 11
M  V30 11 1 11 12
M  V30 12 2 12 13
M  V30 13 2 4 14
M  V30 14 1 14 15
M  V30 15 1 14 16
M  V30 16 2 16 17
M  V30 17 1 17 18
M  V30 18 2 18 19
M  V30 19 1 18 20
M  V30 20 2 20 21
M  V30 21 1 21 22
M  V30 22 2 22 23
M  V30 23 1 23 24
M  V30 24 2 24 25
M  V30 25 1 25 26
M  V30 26 2 26 27
M  V30 27 1 17 2
M  V30 28 1 25 20
M  V30 29 1 13 8
M  V30 30 1 26 16
M  V30 31 1 1 28
M  V30 32 1 1 29
M  V30 33 1 3 30
M  V30 34 1 7 31
M  V30 35 1 9 32
M  V30 36 1 10 33
M  V30 37 1 11 34
M  V30 38 1 12 35
M  V30 39 1 13 36
M  V30 40 1 15 37
M  V30 41 1 15 38
M  V30 42 1 21 39
M  V30 43 1 22 40
M  V30 44 1 23 41
M  V30 45 1 24 42
M  V30 END BOND
M  V30 END CTAB
M  END
