
     RDKit          3D

  0  0  0  0  0  0  0  0  0  0999 V3000
M  V30 BEGIN CTAB
M  V30 COUNTS 34 35 0 0 0
M  V30 BEGIN ATOM
M  V30 1 N -5.29703 0.337653 1.33369 0
M  V30 2 C -4.77216 0.273368 -0.0103636 0
M  V30 3 C -3.29052 0.137704 -0.022448 0
M  V30 4 C -2.68318 -1.1031 -0.0141968 0
M  V30 5 C -1.30557 -1.23309 -0.0253889 0
M  V30 6 C -0.476746 -0.129887 -0.0452874 0
M  V30 7 C -1.0775 1.11276 -0.0536186 0
M  V30 8 C -2.45207 1.23928 -0.0424138 0
M  V30 9 C 1.008 -0.280818 -0.0572248 0
M  V30 10 C 1.57361 0.0486666 -1.43595 0
M  V30 11 C 3.01813 -0.46121 -1.35901 0
M  V30 12 C 3.74296 0.24769 -0.283489 0
M  V30 13 C 2.93061 0.958826 0.723381 0
M  V30 14 N 1.57881 0.61702 0.867151 0
M  V30 15 N 4.66841 -0.712907 0.342663 0
M  V30 16 H -4.85534 -0.31981 1.98986 0
M  V30 17 H -6.32833 0.176039 1.28944 0
M  V30 18 H -5.10979 1.20709 -0.524712 0
M  V30 19 H -5.2686 -0.558769 -0.583106 0
M  V30 20 H -3.35317 -1.9635 0.0015398 0
M  V30 21 H -0.854063 -2.20793 -0.0186746 0
M  V30 22 H -0.410888 1.9834 -0.0694375 0
M  V30 23 H -2.91108 2.21467 -0.0490703 0
M  V30 24 H 1.23881 -1.33882 0.18944 0
M  V30 25 H 1.65002 1.14971 -1.5218 0
M  V30 26 H 1.01085 -0.419903 -2.24071 0
M  V30 27 H 2.92703 -1.54057 -1.0705 0
M  V30 28 H 3.50845 -0.410643 -2.36072 0
M  V30 29 H 4.43318 0.995688 -0.776892 0
M  V30 30 H 3.43428 0.813685 1.72656 0
M  V30 31 H 2.98541 2.07862 0.569881 0
M  V30 32 H 1.26439 0.493043 1.85622 0
M  V30 33 H 5.27459 -0.260517 1.03857 0
M  V30 34 H 4.19849 -1.57341 0.636622 0
M  V30 END ATOM
M  V30 BEGIN BOND
M  V30 1 1 1 2
M  V30 2 1 2 3
M  V30 3 2 3 4
M  V30 4 1 4 5
M  V30 5 2 5 6
M  V30 6 1 6 7
M  V30 7 2 7 8
M  V30 8 1 6 9
M  V30 9 1 9 10
M  V30 10 1 10 11
M  V30 11 1 11 12
M  V30 12 1 12 13
M  V30 13 1 13 14
M  V30 14 1 12 15
M  V30 15 1 8 3
M  V30 16 1 14 9
M  V30 17 1 1 16
M  V30 18 1 1 17
M  V30 19 1 2 18
M  V30 20 1 2 19
M  V30 21 1 4 20
M  V30 22 1 5 21
M  V30 23 1 7 22
M  V30 24 1 8 23
M  V30 25 1 9 24
M  V30 26 1 10 25
M  V30 27 1 10 26
M  V30 28 1 11 27
M  V30 29 1 11 28
M  V30 30 1 12 29
M  V30 31 1 13 30
M  V30 32 1 13 31
M  V30 33 1 14 32
M  V30 34 1 15 33
M  V30 35 1 15 34
M  V30 END BOND
M  V30 END CTAB
M  END
