
     RDKit          3D

  0  0  0  0  0  0  0  0  0  0999 V3000
M  V30 BEGIN CTAB
M  V30 COUNTS 22 22 0 0 0
M  V30 BEGIN ATOM
M  V30 1 N 2.81973 0.126953 -0.0374088 0
M  V30 2 C 1.58431 0.760233 -0.430293 0
M  V30 3 C 0.455551 0.207514 0.398025 0 CFG=2
M  V30 4 C 0.34406 -1.27835 0.184201 0
M  V30 5 C -1.12276 -1.58552 0.390639 0
M  V30 6 C -1.8773 -0.303339 0.235692 0
M  V30 7 C -0.868973 0.80317 0.105153 0 CFG=2
M  V30 8 N -0.973536 1.40103 -1.20465 0
M  V30 9 H 3.3235 0.772286 0.594771 0
M  V30 10 H 2.59976 -0.743882 0.470044 0
M  V30 11 H 1.68836 1.84011 -0.362271 0
M  V30 12 H 1.43469 0.516289 -1.512 0
M  V30 13 H 0.690768 0.363954 1.47062 0
M  V30 14 H 0.938044 -1.83248 0.939407 0
M  V30 15 H 0.685421 -1.58248 -0.836697 0
M  V30 16 H -1.29604 -2.08124 1.37242 0
M  V30 17 H -1.43579 -2.29555 -0.391386 0
M  V30 18 H -2.52307 -0.115682 1.12784 0
M  V30 19 H -2.57136 -0.307175 -0.640294 0
M  V30 20 H -1.09326 1.61719 0.842084 0
M  V30 21 H -0.835039 2.44247 -1.16347 0
M  V30 22 H -1.96706 1.27449 -1.55243 0
M  V30 END ATOM
M  V30 BEGIN BOND
M  V30 1 1 1 2
M  V30 2 1 2 3
M  V30 3 1 3 4
M  V30 4 1 4 5
M  V30 5 1 5 6
M  V30 6 1 6 7
M  V30 7 1 7 8
M  V30 8 1 7 3
M  V30 9 1 1 9
M  V30 10 1 1 10
M  V30 11 1 2 11
M  V30 12 1 2 12
M  V30 13 1 3 13 CFG=1
M  V30 14 1 4 14
M  V30 15 1 4 15
M  V30 16 1 5 16
M  V30 17 1 5 17
M  V30 18 1 6 18
M  V30 19 1 6 19
M  V30 20 1 7 20 CFG=1
M  V30 21 1 8 21
M  V30 22 1 8 22
M  V30 END BOND
M  V30 END CTAB
M  END
