
     RDKit          3D

  0  0  0  0  0  0  0  0  0  0999 V3000
M  V30 BEGIN CTAB
M  V30 COUNTS 42 44 0 0 0
M  V30 BEGIN ATOM
M  V30 1 C 6.31308 -2.07554 -0.627748 0
M  V30 2 C 4.82297 -2.38052 -0.539706 0
M  V30 3 N 4.09488 -1.12723 -0.735796 0
M  V30 4 N 3.69531 -0.662047 -1.88569 0
M  V30 5 C 3.0506 0.522379 -1.70991 0
M  V30 6 C 3.05834 0.794182 -0.372788 0
M  V30 7 C 3.72637 -0.266298 0.225748 0
M  V30 8 C 2.50084 1.9421 0.366166 0
M  V30 9 N 1.31115 1.62399 1.08551 0
M  V30 10 C 0.128999 1.19811 0.436623 0
M  V30 11 C -1.01655 0.885379 1.17043 0
M  V30 12 C -2.18606 0.472107 0.568929 0
M  V30 13 N -2.20863 0.371697 -0.77089 0
M  V30 14 C -1.10446 0.670757 -1.51237 0
M  V30 15 N 0.0107632 1.06796 -0.894027 0
M  V30 16 N -1.10592 0.572129 -2.92456 0
M  V30 17 C -3.38507 0.147926 1.38176 0 CFG=2
M  V30 18 C -4.10555 -1.12363 0.963771 0
M  V30 19 C -5.4076 -0.388326 1.30898 0 CFG=1
M  V30 20 C -4.64585 0.897587 0.959094 0
M  V30 21 N -6.50904 -0.682646 0.451039 0
M  V30 22 H 6.45383 -1.02634 -0.311284 0
M  V30 23 H 6.87398 -2.72099 0.086129 0
M  V30 24 H 6.66383 -2.225 -1.66327 0
M  V30 25 H 4.51648 -3.11633 -1.28768 0
M  V30 26 H 4.65609 -2.75877 0.504245 0
M  V30 27 H 2.61057 1.14196 -2.4791 0
M  V30 28 H 3.93273 -0.409823 1.27219 0
M  V30 29 H 2.28411 2.7401 -0.405315 0
M  V30 30 H 3.26409 2.37699 1.05256 0
M  V30 31 H 1.30003 1.7042 2.12639 0
M  V30 32 H -0.942991 0.983637 2.24666 0
M  V30 33 H -0.735221 -0.293097 -3.35807 0
M  V30 34 H -1.45975 1.32343 -3.54444 0
M  V30 35 H -3.24625 0.267987 2.47318 0
M  V30 36 H -3.89355 -1.99919 1.57446 0
M  V30 37 H -4.03522 -1.23446 -0.135943 0
M  V30 38 H -5.56377 -0.450663 2.39079 0
M  V30 39 H -4.90692 1.76015 1.58374 0
M  V30 40 H -4.59696 1.07654 -0.128327 0
M  V30 41 H -6.96544 0.133409 0.0175786 0
M  V30 42 H -7.24825 -1.17081 1.04095 0
M  V30 END ATOM
M  V30 BEGIN BOND
M  V30 1 1 1 2
M  V30 2 1 2 3
M  V30 3 1 3 4
M  V30 4 2 4 5
M  V30 5 1 5 6
M  V30 6 2 6 7
M  V30 7 1 6 8
M  V30 8 1 8 9
M  V30 9 1 9 10
M  V30 10 2 10 11
M  V30 11 1 11 12
M  V30 12 2 12 13
M  V30 13 1 13 14
M  V30 14 2 14 15
M  V30 15 1 14 16
M  V30 16 1 12 17
M  V30 17 1 17 18
M  V30 18 1 18 19
M  V30 19 1 19 20
M  V30 20 1 19 21
M  V30 21 1 7 3
M  V30 22 1 15 10
M  V30 23 1 20 17
M  V30 24 1 1 22
M  V30 25 1 1 23
M  V30 26 1 1 24
M  V30 27 1 2 25
M  V30 28 1 2 26
M  V30 29 1 5 27
M  V30 30 1 7 28
M  V30 31 1 8 29
M  V30 32 1 8 30
M  V30 33 1 9 31
M  V30 34 1 11 32
M  V30 35 1 16 33
M  V30 36 1 16 34
M  V30 37 1 17 35 CFG=1
M  V30 38 1 18 36
M  V30 39 1 18 37
M  V30 40 1 19 38 CFG=1
M  V30 41 1 20 39
M  V30 42 1 20 40
M  V30 43 1 21 41
M  V30 44 1 21 42
M  V30 END BOND
M  V30 END CTAB
M  END
