
     RDKit          3D

  0  0  0  0  0  0  0  0  0  0999 V3000
M  V30 BEGIN CTAB
M  V30 COUNTS 39 41 0 0 0
M  V30 BEGIN ATOM
M  V30 1 C -3.24466 3.429 0.350675 0
M  V30 2 C -3.71409 2.20577 1.07158 0
M  V30 3 O -3.20042 1.06179 0.502899 0
M  V30 4 C -1.87058 0.740193 0.425452 0
M  V30 5 C -0.925468 1.57729 0.96263 0
M  V30 6 C 0.43977 1.26321 0.888919 0
M  V30 7 N 1.38091 2.04831 1.3962 0
M  V30 8 C 2.67862 1.67426 1.28408 0
M  V30 9 C 3.06247 0.514036 0.666103 0
M  V30 10 C 4.37679 0.113279 0.540329 0
M  V30 11 N 5.37594 0.953484 1.08262 0
M  V30 12 N 4.63596 -1.03752 -0.0816534 0
M  V30 13 C 3.7022 -1.84959 -0.603417 0
M  V30 14 N 4.08252 -3.0731 -1.25693 0
M  V30 15 N 2.41249 -1.48202 -0.494312 0
M  V30 16 C 2.10753 -0.328678 0.125691 0
M  V30 17 C 0.788227 0.0896242 0.260866 0
M  V30 18 C -0.17048 -0.742681 -0.274016 0
M  V30 19 C -1.50501 -0.45764 -0.214517 0
M  V30 20 O -2.5069 -1.2267 -0.717384 0
M  V30 21 C -2.41123 -2.43546 -1.38353 0
M  V30 22 C -3.82316 -2.88422 -1.73849 0
M  V30 23 H -2.49233 3.24353 -0.428642 0
M  V30 24 H -4.15164 3.91918 -0.105865 0
M  V30 25 H -2.80162 4.19437 1.04695 0
M  V30 26 H -4.82525 2.14523 1.1114 0
M  V30 27 H -3.37899 2.28958 2.14012 0
M  V30 28 H -1.14448 2.51433 1.48337 0
M  V30 29 H 3.4506 2.32485 1.70387 0
M  V30 30 H 6.26489 1.05806 0.545774 0
M  V30 31 H 5.29377 1.4756 1.97529 0
M  V30 32 H 3.99775 -3.23096 -2.26866 0
M  V30 33 H 4.46904 -3.85549 -0.681743 0
M  V30 34 H 0.112697 -1.66762 -0.768126 0
M  V30 35 H -1.85591 -2.36574 -2.35043 0
M  V30 36 H -1.98501 -3.26661 -0.758718 0
M  V30 37 H -4.54313 -2.49955 -0.976218 0
M  V30 38 H -4.15227 -2.46068 -2.70974 0
M  V30 39 H -3.92956 -3.97071 -1.75243 0
M  V30 END ATOM
M  V30 BEGIN BOND
M  V30 1 1 1 2
M  V30 2 1 2 3
M  V30 3 1 3 4
M  V30 4 2 4 5
M  V30 5 1 5 6
M  V30 6 2 6 7
M  V30 7 1 7 8
M  V30 8 2 8 9
M  V30 9 1 9 10
M  V30 10 1 10 11
M  V30 11 2 10 12
M  V30 12 1 12 13
M  V30 13 1 13 14
M  V30 14 2 13 15
M  V30 15 1 15 16
M  V30 16 2 16 17
M  V30 17 1 17 18
M  V30 18 2 18 19
M  V30 19 1 19 20
M  V30 20 1 20 21
M  V30 21 1 21 22
M  V30 22 1 19 4
M  V30 23 1 17 6
M  V30 24 1 16 9
M  V30 25 1 1 23
M  V30 26 1 1 24
M  V30 27 1 1 25
M  V30 28 1 2 26
M  V30 29 1 2 27
M  V30 30 1 5 28
M  V30 31 1 8 29
M  V30 32 1 11 30
M  V30 33 1 11 31
M  V30 34 1 14 32
M  V30 35 1 14 33
M  V30 36 1 18 34
M  V30 37 1 21 35
M  V30 38 1 21 36
M  V30 39 1 22 37
M  V30 40 1 22 38
M  V30 41 1 22 39
M  V30 END BOND
M  V30 END CTAB
M  END
