
     RDKit          3D

  0  0  0  0  0  0  0  0  0  0999 V3000
M  V30 BEGIN CTAB
M  V30 COUNTS 8 7 0 0 0
M  V30 BEGIN ATOM
M  V30 1 B 0.0183326 0.717647 -0.138405 0 MASS=11
M  V30 2 N -1.36585 0.041923 -0.111517 0
M  V30 3 N 1.22318 -0.180634 0.154068 0
M  V30 4 H 0.0476474 1.78582 0.405519 0
M  V30 5 H -1.35569 -0.529885 0.775966 0
M  V30 6 H -1.48297 -0.596643 -0.913707 0
M  V30 7 H 0.948415 -1.14827 0.381824 0
M  V30 8 H 1.96695 -0.0899578 -0.553749 0
M  V30 END ATOM
M  V30 BEGIN BOND
M  V30 1 1 1 2
M  V30 2 1 1 3
M  V30 3 1 1 4
M  V30 4 1 2 5
M  V30 5 1 2 6
M  V30 6 1 3 7
M  V30 7 1 3 8
M  V30 END BOND
M  V30 END CTAB
M  END
