
     RDKit          3D

  0  0  0  0  0  0  0  0  0  0999 V3000
M  V30 BEGIN CTAB
M  V30 COUNTS 37 38 0 0 0
M  V30 BEGIN ATOM
M  V30 1 N 4.52522 0.614287 1.43314 0
M  V30 2 C 4.11122 0.253724 0.0891821 0
M  V30 3 C 2.56516 0.336158 -0.0388643 0
M  V30 4 C 2.17475 -0.03683 -1.45322 0
M  V30 5 C 0.686246 -0.182463 -1.63855 0
M  V30 6 C 0.0050813 -0.274676 -0.324509 0
M  V30 7 C 0.678863 -0.992868 0.779622 0
M  V30 8 N 2.06013 -0.559315 0.92274 0
M  V30 9 C -1.44244 -0.017016 -0.275162 0
M  V30 10 C -1.98909 1.25235 -0.248109 0
M  V30 11 C -3.34491 1.5143 -0.0442658 0
M  V30 12 N -3.87353 2.82867 0.0518459 0
M  V30 13 C -4.22777 0.462692 0.142551 0
M  V30 14 C -3.73714 -0.807422 0.117296 0
M  V30 15 C -2.36467 -1.02792 -0.0845529 0
M  V30 16 C -1.87438 -2.41604 -0.242718 0
M  V30 17 H 5.49433 0.962807 1.43513 0
M  V30 18 H 3.82404 1.2991 1.79133 0
M  V30 19 H 4.58985 0.876526 -0.696826 0
M  V30 20 H 4.48138 -0.774642 -0.0783869 0
M  V30 21 H 2.30826 1.39916 0.170635 0
M  V30 22 H 2.74363 -0.994211 -1.65537 0
M  V30 23 H 2.58769 0.691954 -2.18397 0
M  V30 24 H 0.284962 0.582014 -2.31515 0
M  V30 25 H 0.609234 -1.20004 -2.19237 0
M  V30 26 H 0.367911 0.863819 0.0524101 0
M  V30 27 H 0.153589 -0.65047 1.74917 0
M  V30 28 H 0.65622 -2.07652 0.821118 0
M  V30 29 H 2.68218 -1.19946 1.38716 0
M  V30 30 H -1.36542 2.11051 -0.375978 0
M  V30 31 H -4.87463 3.01866 0.125859 0
M  V30 32 H -3.21634 3.67132 0.0790357 0
M  V30 33 H -5.27859 0.620606 0.317268 0
M  V30 34 H -4.38179 -1.64187 0.23726 0
M  V30 35 H -2.82365 -3.02207 -0.508382 0
M  V30 36 H -1.31467 -2.54823 -1.22619 0
M  V30 37 H -1.48092 -2.9366 0.597448 0
M  V30 END ATOM
M  V30 BEGIN BOND
M  V30 1 1 1 2
M  V30 2 1 2 3
M  V30 3 1 3 4
M  V30 4 1 4 5
M  V30 5 1 5 6
M  V30 6 1 6 7
M  V30 7 1 7 8
M  V30 8 1 6 9
M  V30 9 2 9 10
M  V30 10 1 10 11
M  V30 11 1 11 12
M  V30 12 2 11 13
M  V30 13 1 13 14
M  V30 14 2 14 15
M  V30 15 1 15 16
M  V30 16 1 8 3
M  V30 17 1 15 9
M  V30 18 1 1 17
M  V30 19 1 1 18
M  V30 20 1 2 19
M  V30 21 1 2 20
M  V30 22 1 3 21
M  V30 23 1 4 22
M  V30 24 1 4 23
M  V30 25 1 5 24
M  V30 26 1 5 25
M  V30 27 1 6 26
M  V30 28 1 7 27
M  V30 29 1 7 28
M  V30 30 1 8 29
M  V30 31 1 10 30
M  V30 32 1 12 31
M  V30 33 1 12 32
M  V30 34 1 13 33
M  V30 35 1 14 34
M  V30 36 1 16 35
M  V30 37 1 16 36
M  V30 38 1 16 37
M  V30 END BOND
M  V30 END CTAB
M  END
