
     RDKit          3D

  0  0  0  0  0  0  0  0  0  0999 V3000
M  V30 BEGIN CTAB
M  V30 COUNTS 31 32 0 0 0
M  V30 BEGIN ATOM
M  V30 1 C -3.29309 1.83077 0.0404641 0
M  V30 2 C -2.58832 0.491682 0.0546834 0
M  V30 3 C -3.12921 -0.44438 -0.994895 0
M  V30 4 C -3.48902 -1.47829 0.0454738 0
M  V30 5 C -3.07297 -0.47958 1.10416 0
M  V30 6 C -1.09229 0.683727 0.0189806 0
M  V30 7 S -0.201082 -0.883657 0.0346323 0
M  V30 8 C 1.54531 -0.543057 -0.00946193 0
M  V30 9 N 2.05593 0.695301 -0.0472962 0
M  V30 10 C 3.39073 0.935278 -0.0805253 0
M  V30 11 N 3.88033 2.27653 -0.120162 0
M  V30 12 C 4.22958 -0.161956 -0.0740619 0
M  V30 13 C 3.71997 -1.43859 -0.0354105 0
M  V30 14 N 2.38894 -1.59584 -0.00407317 0
M  V30 15 N 4.55526 -2.57005 -0.0281218 0
M  V30 16 H -4.01657 1.83133 0.858775 0
M  V30 17 H -3.84308 1.9504 -0.933494 0
M  V30 18 H -2.57902 2.68351 0.0719869 0
M  V30 19 H -4.07441 -0.0535481 -1.45243 0
M  V30 20 H -2.41183 -0.770717 -1.75478 0
M  V30 21 H -2.84216 -2.37495 -0.0154611 0
M  V30 22 H -4.55558 -1.72843 0.130737 0
M  V30 23 H -2.28564 -0.901056 1.75611 0
M  V30 24 H -3.92748 -0.0664884 1.7034 0
M  V30 25 H -0.762479 1.25025 -0.873254 0
M  V30 26 H -0.766547 1.27353 0.900242 0
M  V30 27 H 4.19695 2.69325 -1.01063 0
M  V30 28 H 3.93206 2.87113 0.744874 0
M  V30 29 H 5.28473 0.00149662 -0.099758 0
M  V30 30 H 5.4294 -2.5528 0.526845 0
M  V30 31 H 4.32158 -3.42479 -0.563802 0
M  V30 END ATOM
M  V30 BEGIN BOND
M  V30 1 1 1 2
M  V30 2 1 2 3
M  V30 3 1 3 4
M  V30 4 1 4 5
M  V30 5 1 2 6
M  V30 6 1 6 7
M  V30 7 1 7 8
M  V30 8 2 8 9
M  V30 9 1 9 10
M  V30 10 1 10 11
M  V30 11 2 10 12
M  V30 12 1 12 13
M  V30 13 2 13 14
M  V30 14 1 13 15
M  V30 15 1 5 2
M  V30 16 1 14 8
M  V30 17 1 1 16
M  V30 18 1 1 17
M  V30 19 1 1 18
M  V30 20 1 3 19
M  V30 21 1 3 20
M  V30 22 1 4 21
M  V30 23 1 4 22
M  V30 24 1 5 23
M  V30 25 1 5 24
M  V30 26 1 6 25
M  V30 27 1 6 26
M  V30 28 1 11 27
M  V30 29 1 11 28
M  V30 30 1 12 29
M  V30 31 1 15 30
M  V30 32 1 15 31
M  V30 END BOND
M  V30 END CTAB
M  END
