
     RDKit          3D

  0  0  0  0  0  0  0  0  0  0999 V3000
M  V30 BEGIN CTAB
M  V30 COUNTS 38 39 0 0 0
M  V30 BEGIN ATOM
M  V30 1 C 5.49807 0.059603 -2.22742 0
M  V30 2 O 4.81637 1.16514 -1.66981 0
M  V30 3 C 3.91391 0.92015 -0.648668 0
M  V30 4 C 3.20135 1.93589 -0.0426724 0
M  V30 5 C 2.29649 1.68614 0.981823 0
M  V30 6 C 2.09585 0.369209 1.41789 0
M  V30 7 C 2.79808 -0.642846 0.822614 0
M  V30 8 C 3.68251 -0.365025 -0.184374 0
M  V30 9 N 1.16103 0.165139 2.46425 0
M  V30 10 S -0.0180243 -1.08736 2.39339 0
M  V30 11 O 0.620007 -2.43851 2.24862 0
M  V30 12 O -0.825868 -1.02289 3.68222 0
M  V30 13 C -1.09196 -0.852912 1.0142 0
M  V30 14 C -0.803419 -1.39973 -0.21364 0
M  V30 15 C -1.6262 -1.22314 -1.28 0
M  V30 16 C -2.77422 -0.483138 -1.13733 0
M  V30 17 C -3.08425 0.0723629 0.0761111 0
M  V30 18 C -2.23762 -0.118744 1.14234 0
M  V30 19 S -4.5272 1.02442 0.328124 0
M  V30 20 O -4.60351 1.51409 1.74394 0
M  V30 21 O -4.55276 2.22947 -0.580298 0
M  V30 22 N -5.96086 0.115405 0.000674925 0
M  V30 23 N -3.66954 -0.26613 -2.21549 0
M  V30 24 H 6.07039 0.326561 -3.13501 0
M  V30 25 H 4.6981 -0.652393 -2.58051 0
M  V30 26 H 6.08461 -0.505838 -1.48165 0
M  V30 27 H 3.35663 2.94366 -0.378241 0
M  V30 28 H 1.77072 2.52249 1.41457 0
M  V30 29 H 2.65302 -1.65028 1.14943 0
M  V30 30 H 4.23592 -1.16017 -0.653974 0
M  V30 31 H 1.18204 0.797212 3.3174 0
M  V30 32 H 0.103061 -1.97809 -0.306695 0
M  V30 33 H -1.38669 -1.65535 -2.22757 0
M  V30 34 H -2.46038 0.311721 2.11771 0
M  V30 35 H -5.85728 -0.889298 0.232512 0
M  V30 36 H -6.7301 0.559681 0.551215 0
M  V30 37 H -4.08361 -1.03264 -2.79235 0
M  V30 38 H -3.94467 0.706143 -2.4651 0
M  V30 END ATOM
M  V30 BEGIN BOND
M  V30 1 1 1 2
M  V30 2 1 2 3
M  V30 3 2 3 4
M  V30 4 1 4 5
M  V30 5 2 5 6
M  V30 6 1 6 7
M  V30 7 2 7 8
M  V30 8 1 6 9
M  V30 9 1 9 10
M  V30 10 2 10 11
M  V30 11 2 10 12
M  V30 12 1 10 13
M  V30 13 2 13 14
M  V30 14 1 14 15
M  V30 15 2 15 16
M  V30 16 1 16 17
M  V30 17 2 17 18
M  V30 18 1 17 19
M  V30 19 2 19 20
M  V30 20 2 19 21
M  V30 21 1 19 22
M  V30 22 1 16 23
M  V30 23 1 8 3
M  V30 24 1 18 13
M  V30 25 1 1 24
M  V30 26 1 1 25
M  V30 27 1 1 26
M  V30 28 1 4 27
M  V30 29 1 5 28
M  V30 30 1 7 29
M  V30 31 1 8 30
M  V30 32 1 9 31
M  V30 33 1 14 32
M  V30 34 1 15 33
M  V30 35 1 18 34
M  V30 36 1 22 35
M  V30 37 1 22 36
M  V30 38 1 23 37
M  V30 39 1 23 38
M  V30 END BOND
M  V30 END CTAB
M  END
