
     RDKit          3D

  0  0  0  0  0  0  0  0  0  0999 V3000
M  V30 BEGIN CTAB
M  V30 COUNTS 25 26 0 0 0
M  V30 BEGIN ATOM
M  V30 1 N 0.500749 2.68514 -0.0442044 0
M  V30 2 N -0.535188 1.74605 0.0273738 0
M  V30 3 C -0.0368815 0.50952 -0.513833 0
M  V30 4 C -0.979541 -0.594423 -0.561918 0
M  V30 5 C -1.11555 -1.43293 -1.67983 0
M  V30 6 N -2.04977 -2.36148 -1.43264 0
M  V30 7 N -2.49623 -2.14631 -0.233378 0
M  V30 8 C -1.88983 -1.09394 0.344167 0
M  V30 9 N -2.11851 -0.567803 1.6232 0
M  V30 10 C 1.22441 0.186014 0.282098 0
M  V30 11 C 1.29157 0.381154 1.64017 0
M  V30 12 S 2.86485 -0.129209 2.04304 0
M  V30 13 C 3.4121 -0.57888 0.497787 0
M  V30 14 C 2.34025 -0.316714 -0.305575 0
M  V30 15 H 0.339488 3.22729 -0.943705 0
M  V30 16 H 0.434578 3.41665 0.709694 0
M  V30 17 H -1.36306 2.14085 -0.415128 0
M  V30 18 H 0.287981 0.75354 -1.54389 0
M  V30 19 H -0.539196 -1.33882 -2.61489 0
M  V30 20 H -2.34132 -3.11884 -2.12343 0
M  V30 21 H -1.6476 -0.840416 2.51092 0
M  V30 22 H -2.85693 0.194636 1.68903 0
M  V30 23 H 0.484122 0.784798 2.2866 0
M  V30 24 H 4.38419 -0.987394 0.163501 0
M  V30 25 H 2.40532 -0.518471 -1.40515 0
M  V30 END ATOM
M  V30 BEGIN BOND
M  V30 1 1 1 2
M  V30 2 1 2 3
M  V30 3 1 3 4
M  V30 4 2 4 5
M  V30 5 1 5 6
M  V30 6 1 6 7
M  V30 7 2 7 8
M  V30 8 1 8 9
M  V30 9 1 3 10
M  V30 10 2 10 11
M  V30 11 1 11 12
M  V30 12 1 12 13
M  V30 13 2 13 14
M  V30 14 1 8 4
M  V30 15 1 14 10
M  V30 16 1 1 15
M  V30 17 1 1 16
M  V30 18 1 2 17
M  V30 19 1 3 18
M  V30 20 1 5 19
M  V30 21 1 6 20
M  V30 22 1 9 21
M  V30 23 1 9 22
M  V30 24 1 11 23
M  V30 25 1 13 24
M  V30 26 1 14 25
M  V30 END BOND
M  V30 END CTAB
M  END
