
     RDKit          3D

  0  0  0  0  0  0  0  0  0  0999 V3000
M  V30 BEGIN CTAB
M  V30 COUNTS 33 32 0 0 0
M  V30 BEGIN ATOM
M  V30 1 C 4.90583 1.02478 1.78058 0
M  V30 2 O 3.54377 0.912025 1.40215 0
M  V30 3 C 3.15927 1.17386 0.0977554 0
M  V30 4 O 4.04535 1.51058 -0.730062 0
M  V30 5 C 1.73538 1.06119 -0.319054 0 CFG=1
M  V30 6 N 1.58113 1.37827 -1.70703 0
M  V30 7 C 1.17756 -0.331531 0.00207328 0
M  V30 8 C -0.277453 -0.299189 -0.476869 0
M  V30 9 C -0.957986 -1.60964 -0.224657 0
M  V30 10 C -2.39609 -1.65555 -0.679102 0 CFG=1
M  V30 11 N -2.88057 -2.9913 -0.356487 0
M  V30 12 C -3.27171 -0.684201 0.0104962 0
M  V30 13 O -4.22376 -1.08347 0.766024 0
M  V30 14 O -3.16501 0.693046 -0.0803024 0
M  V30 15 C -4.04298 1.57725 0.610679 0
M  V30 16 H 4.97807 1.10551 2.88251 0
M  V30 17 H 5.41592 1.87191 1.31412 0
M  V30 18 H 5.41175 0.0902329 1.4514 0
M  V30 19 H 1.16151 1.78719 0.292315 0
M  V30 20 H 2.24229 2.14702 -1.94654 0
M  V30 21 H 1.78857 0.537674 -2.29652 0
M  V30 22 H 1.25502 -0.530339 1.07024 0
M  V30 23 H 1.77362 -1.07654 -0.560287 0
M  V30 24 H -0.749973 0.480627 0.189663 0
M  V30 25 H -0.308896 0.033384 -1.51439 0
M  V30 26 H -1.00165 -1.72135 0.900381 0
M  V30 27 H -0.379923 -2.46596 -0.572882 0
M  V30 28 H -2.46969 -1.5198 -1.77387 0
M  V30 29 H -2.40143 -3.73381 -0.872271 0
M  V30 30 H -2.9746 -3.13899 0.665656 0
M  V30 31 H -3.38214 2.17311 1.29522 0
M  V30 32 H -4.5433 2.25337 -0.107808 0
M  V30 33 H -4.74787 1.03065 1.25302 0
M  V30 END ATOM
M  V30 BEGIN BOND
M  V30 1 1 1 2
M  V30 2 1 2 3
M  V30 3 2 3 4
M  V30 4 1 3 5
M  V30 5 1 5 6
M  V30 6 1 5 7
M  V30 7 1 7 8
M  V30 8 1 8 9
M  V30 9 1 9 10
M  V30 10 1 10 11
M  V30 11 1 10 12
M  V30 12 2 12 13
M  V30 13 1 12 14
M  V30 14 1 14 15
M  V30 15 1 1 16
M  V30 16 1 1 17
M  V30 17 1 1 18
M  V30 18 1 5 19 CFG=1
M  V30 19 1 6 20
M  V30 20 1 6 21
M  V30 21 1 7 22
M  V30 22 1 7 23
M  V30 23 1 8 24
M  V30 24 1 8 25
M  V30 25 1 9 26
M  V30 26 1 9 27
M  V30 27 1 10 28 CFG=3
M  V30 28 1 11 29
M  V30 29 1 11 30
M  V30 30 1 15 31
M  V30 31 1 15 32
M  V30 32 1 15 33
M  V30 END BOND
M  V30 END CTAB
M  END
