
     RDKit          3D

  0  0  0  0  0  0  0  0  0  0999 V3000
M  V30 BEGIN CTAB
M  V30 COUNTS 21 21 0 0 0
M  V30 BEGIN ATOM
M  V30 1 N 2.30637 -2.00612 0.965507 0
M  V30 2 C 1.58763 -0.858144 0.492936 0
M  V30 3 C 2.23843 0.317693 0.187484 0
M  V30 4 C 1.54697 1.42227 -0.267212 0
M  V30 5 F 2.22822 2.57481 -0.561037 0
M  V30 6 C 0.181883 1.33944 -0.415559 0
M  V30 7 C -0.525279 0.191356 -0.126545 0
M  V30 8 C 0.220068 -0.889952 0.32738 0
M  V30 9 C -1.96133 0.136283 -0.293276 0
M  V30 10 O -2.56211 1.15512 -0.70813 0
M  V30 11 C -2.73835 -1.08777 0.0121054 0
M  V30 12 N -0.470511 2.52128 -0.890807 0
M  V30 13 H 3.26298 -2.22818 0.63541 0
M  V30 14 H 1.85368 -2.62103 1.65053 0
M  V30 15 H 3.30767 0.389078 0.301543 0
M  V30 16 H -0.310429 -1.81618 0.565644 0
M  V30 17 H -2.31213 -1.62538 0.905953 0
M  V30 18 H -2.67686 -1.84071 -0.824867 0
M  V30 19 H -3.81304 -0.884547 0.151206 0
M  V30 20 H -0.877669 3.14429 -0.185598 0
M  V30 21 H -0.486182 2.66637 -1.92267 0
M  V30 END ATOM
M  V30 BEGIN BOND
M  V30 1 1 1 2
M  V30 2 2 2 3
M  V30 3 1 3 4
M  V30 4 1 4 5
M  V30 5 2 4 6
M  V30 6 1 6 7
M  V30 7 2 7 8
M  V30 8 1 7 9
M  V30 9 2 9 10
M  V30 10 1 9 11
M  V30 11 1 6 12
M  V30 12 1 8 2
M  V30 13 1 1 13
M  V30 14 1 1 14
M  V30 15 1 3 15
M  V30 16 1 8 16
M  V30 17 1 11 17
M  V30 18 1 11 18
M  V30 19 1 11 19
M  V30 20 1 12 20
M  V30 21 1 12 21
M  V30 END BOND
M  V30 END CTAB
M  END
