
     RDKit          3D

  0  0  0  0  0  0  0  0  0  0999 V3000
M  V30 BEGIN CTAB
M  V30 COUNTS 44 45 0 0 0
M  V30 BEGIN ATOM
M  V30 1 N 6.66377 0.728617 -0.695002 0
M  V30 2 C 5.32687 0.474456 -1.20674 0
M  V30 3 C 4.97055 -0.996928 -1.0028 0
M  V30 4 C 5.02073 -1.29542 0.452212 0
M  V30 5 O 4.15539 -0.559534 1.23831 0
M  V30 6 C 2.79607 -0.602077 1.19685 0
M  V30 7 C 2.11949 0.268448 2.06977 0
M  V30 8 C 0.751831 0.302312 2.10889 0
M  V30 9 C -0.0711147 -0.506894 1.30305 0
M  V30 10 C 0.619519 -1.34371 0.464607 0
M  V30 11 C 2.02619 -1.39985 0.403776 0
M  V30 12 C -1.49439 -0.382578 1.43234 0
M  V30 13 O -1.85626 0.517228 2.33444 0
M  V30 14 N -2.542 -1.03656 0.781127 0
M  V30 15 C -3.93267 -0.677272 1.14595 0
M  V30 16 C -4.39861 0.436619 0.281249 0
M  V30 17 C -5.6763 0.91577 0.468451 0
M  V30 18 N -6.12872 1.92414 -0.298467 0
M  V30 19 C -5.38742 2.50903 -1.2643 0
M  V30 20 N -4.13229 2.02268 -1.43263 0
M  V30 21 C -3.63618 1.01637 -0.690457 0
M  V30 22 N -5.88939 3.57381 -2.06153 0
M  V30 23 C -2.42639 -2.03648 -0.221074 0
M  V30 24 H 7.13021 1.49437 -1.24545 0
M  V30 25 H 6.54884 1.10372 0.284947 0
M  V30 26 H 5.34015 0.707822 -2.29081 0
M  V30 27 H 4.5957 1.13079 -0.691262 0
M  V30 28 H 4.0699 -1.17639 -1.55376 0
M  V30 29 H 5.78681 -1.56829 -1.51366 0
M  V30 30 H 6.06828 -1.01922 0.798341 0
M  V30 31 H 4.93332 -2.38926 0.673922 0
M  V30 32 H 2.67849 0.925953 2.72498 0
M  V30 33 H 0.275884 0.996807 2.80503 0
M  V30 34 H 0.0938678 -1.99511 -0.184298 0
M  V30 35 H 2.4895 -2.10775 -0.271815 0
M  V30 36 H -3.89294 -0.396452 2.21685 0
M  V30 37 H -4.58992 -1.57084 1.07296 0
M  V30 38 H -6.31148 0.478175 1.23286 0
M  V30 39 H -2.62766 0.63251 -0.832606 0
M  V30 40 H -6.31618 4.44603 -1.68402 0
M  V30 41 H -5.8298 3.48288 -3.09815 0
M  V30 42 H -1.93481 -2.98361 0.101733 0
M  V30 43 H -1.9435 -1.65467 -1.14284 0
M  V30 44 H -3.44333 -2.38964 -0.582526 0
M  V30 END ATOM
M  V30 BEGIN BOND
M  V30 1 1 1 2
M  V30 2 1 2 3
M  V30 3 1 3 4
M  V30 4 1 4 5
M  V30 5 1 5 6
M  V30 6 2 6 7
M  V30 7 1 7 8
M  V30 8 2 8 9
M  V30 9 1 9 10
M  V30 10 2 10 11
M  V30 11 1 9 12
M  V30 12 2 12 13
M  V30 13 1 12 14
M  V30 14 1 14 15
M  V30 15 1 15 16
M  V30 16 2 16 17
M  V30 17 1 17 18
M  V30 18 2 18 19
M  V30 19 1 19 20
M  V30 20 2 20 21
M  V30 21 1 19 22
M  V30 22 1 14 23
M  V30 23 1 11 6
M  V30 24 1 21 16
M  V30 25 1 1 24
M  V30 26 1 1 25
M  V30 27 1 2 26
M  V30 28 1 2 27
M  V30 29 1 3 28
M  V30 30 1 3 29
M  V30 31 1 4 30
M  V30 32 1 4 31
M  V30 33 1 7 32
M  V30 34 1 8 33
M  V30 35 1 10 34
M  V30 36 1 11 35
M  V30 37 1 15 36
M  V30 38 1 15 37
M  V30 39 1 17 38
M  V30 40 1 21 39
M  V30 41 1 22 40
M  V30 42 1 22 41
M  V30 43 1 23 42
M  V30 44 1 23 43
M  V30 45 1 23 44
M  V30 END BOND
M  V30 END CTAB
M  END
