
     RDKit          3D

  0  0  0  0  0  0  0  0  0  0999 V3000
M  V30 BEGIN CTAB
M  V30 COUNTS 19 19 0 0 0
M  V30 BEGIN ATOM
M  V30 1 N 3.136 -0.448021 0.0731547 0
M  V30 2 C 1.72186 -0.352371 0.0420331 0
M  V30 3 C 1.11448 0.879779 0.0384878 0
M  V30 4 C -0.281702 0.97007 0.00773972 0
M  V30 5 N -0.921021 2.2239 0.00365022 0
M  V30 6 C -0.996323 -0.209567 -0.0181038 0
M  V30 7 C -0.39546 -1.43856 -0.0146803 0
M  V30 8 C 0.991855 -1.51793 0.0159594 0
M  V30 9 Br -1.41728 -3.03067 -0.0508648 0
M  V30 10 C -2.48038 -0.167675 -0.0512368 0
M  V30 11 H 3.63618 -0.230056 0.940086 0
M  V30 12 H 3.60391 -0.743902 -0.814716 0
M  V30 13 H 1.67561 1.82333 0.0589242 0
M  V30 14 H -1.48018 2.51609 0.814407 0
M  V30 15 H -0.820485 2.83653 -0.815453 0
M  V30 16 H 1.45719 -2.49906 0.0183618 0
M  V30 17 H -2.88169 0.854723 -0.174862 0
M  V30 18 H -2.81617 -0.787864 -0.931125 0
M  V30 19 H -2.84639 -0.678734 0.858237 0
M  V30 END ATOM
M  V30 BEGIN BOND
M  V30 1 1 1 2
M  V30 2 2 2 3
M  V30 3 1 3 4
M  V30 4 1 4 5
M  V30 5 2 4 6
M  V30 6 1 6 7
M  V30 7 2 7 8
M  V30 8 1 7 9
M  V30 9 1 6 10
M  V30 10 1 8 2
M  V30 11 1 1 11
M  V30 12 1 1 12
M  V30 13 1 3 13
M  V30 14 1 5 14
M  V30 15 1 5 15
M  V30 16 1 8 16
M  V30 17 1 10 17
M  V30 18 1 10 18
M  V30 19 1 10 19
M  V30 END BOND
M  V30 END CTAB
M  END
