
     RDKit          3D

  0  0  0  0  0  0  0  0  0  0999 V3000
M  V30 BEGIN CTAB
M  V30 COUNTS 37 39 0 0 0
M  V30 BEGIN ATOM
M  V30 1 C 7.12308 1.69344 -0.953733 0
M  V30 2 O 5.7386 1.65534 -1.22387 0
M  V30 3 C 4.91065 0.885137 -0.392887 0
M  V30 4 C 5.45376 0.191467 0.654068 0
M  V30 5 C 4.6504 -0.55027 1.45235 0
M  V30 6 C 3.26401 -0.591866 1.1859 0
M  V30 7 C 2.69995 0.0908187 0.149827 0
M  V30 8 C 3.58294 0.845609 -0.647968 0
M  V30 9 N 1.33006 0.0908292 -0.129499 0
M  V30 10 C 0.290348 -0.310561 0.722942 0
M  V30 11 O 0.446231 -0.728458 1.87987 0
M  V30 12 C -1.10346 -0.225291 0.190608 0
M  V30 13 S -1.62402 0.301631 -1.33821 0
M  V30 14 C -3.3125 0.0898905 -1.13623 0
M  V30 15 C -3.4124 -0.39117 0.134528 0
M  V30 16 C -2.25751 -0.556858 0.830643 0
M  V30 17 N -2.21664 -1.06493 2.20453 0
M  V30 18 C -4.72742 -0.655366 0.558697 0
M  V30 19 C -5.78269 -0.428636 -0.279671 0
M  V30 20 C -5.648 0.0597304 -1.5625 0
M  V30 21 N -4.38975 0.308288 -1.95699 0
M  V30 22 N -6.78096 0.269552 -2.37228 0
M  V30 23 C -7.14753 -0.709844 0.179315 0
M  V30 24 N -8.20545 -0.937003 0.554542 0
M  V30 25 H 7.52519 0.660754 -1.11308 0
M  V30 26 H 7.58652 2.3764 -1.68699 0
M  V30 27 H 7.34057 1.99074 0.0880612 0
M  V30 28 H 6.51322 0.230272 0.848629 0
M  V30 29 H 4.99467 -1.13079 2.30289 0
M  V30 30 H 2.65155 -1.2024 1.83071 0
M  V30 31 H 3.17287 1.40093 -1.48 0
M  V30 32 H 1.07705 0.439741 -1.11517 0
M  V30 33 H -2.75186 -0.60139 2.96636 0
M  V30 34 H -1.65364 -1.90119 2.45954 0
M  V30 35 H -4.92166 -1.04161 1.55422 0
M  V30 36 H -7.03494 1.24253 -2.69505 0
M  V30 37 H -7.38124 -0.518911 -2.6641 0
M  V30 END ATOM
M  V30 BEGIN BOND
M  V30 1 1 1 2
M  V30 2 1 2 3
M  V30 3 2 3 4
M  V30 4 1 4 5
M  V30 5 2 5 6
M  V30 6 1 6 7
M  V30 7 2 7 8
M  V30 8 1 7 9
M  V30 9 1 9 10
M  V30 10 2 10 11
M  V30 11 1 10 12
M  V30 12 1 12 13
M  V30 13 1 13 14
M  V30 14 2 14 15
M  V30 15 1 15 16
M  V30 16 1 16 17
M  V30 17 1 15 18
M  V30 18 2 18 19
M  V30 19 1 19 20
M  V30 20 2 20 21
M  V30 21 1 20 22
M  V30 22 1 19 23
M  V30 23 3 23 24
M  V30 24 1 8 3
M  V30 25 2 16 12
M  V30 26 1 21 14
M  V30 27 1 1 25
M  V30 28 1 1 26
M  V30 29 1 1 27
M  V30 30 1 4 28
M  V30 31 1 5 29
M  V30 32 1 6 30
M  V30 33 1 8 31
M  V30 34 1 9 32
M  V30 35 1 17 33
M  V30 36 1 17 34
M  V30 37 1 18 35
M  V30 38 1 22 36
M  V30 39 1 22 37
M  V30 END BOND
M  V30 END CTAB
M  END
