
     RDKit          3D

  0  0  0  0  0  0  0  0  0  0999 V3000
M  V30 BEGIN CTAB
M  V30 COUNTS 24 25 0 0 0
M  V30 BEGIN ATOM
M  V30 1 N -4.80007 0.445849 0.847108 0
M  V30 2 C -3.43194 0.292827 0.552783 0
M  V30 3 C -2.99983 -0.576352 -0.451524 0
M  V30 4 C -1.65013 -0.694491 -0.705622 0
M  V30 5 C -0.736578 0.0488842 0.0364825 0
M  V30 6 C -1.25898 0.878778 1.0054 0
M  V30 7 N -2.54809 1.01338 1.27227 0
M  V30 8 C 0.691862 -0.0302648 -0.181526 0
M  V30 9 C 1.59971 0.150148 0.838785 0
M  V30 10 C 2.96499 0.0740548 0.628153 0
M  V30 11 C 3.4543 -0.188882 -0.63027 0
M  V30 12 N 2.56429 -0.363871 -1.62119 0
M  V30 13 C 1.21306 -0.291385 -1.42713 0
M  V30 14 N 4.87101 -0.275342 -0.884623 0
M  V30 15 H -5.12552 0.393091 1.82169 0
M  V30 16 H -5.4778 0.610223 0.0919043 0
M  V30 17 H -3.69891 -1.14692 -1.02168 0
M  V30 18 H -1.23607 -1.33701 -1.45614 0
M  V30 19 H -0.549023 1.47177 1.59913 0
M  V30 20 H 1.17346 0.35677 1.82382 0
M  V30 21 H 3.63106 0.22307 1.46098 0
M  V30 22 H 0.529603 -0.438409 -2.25098 0
M  V30 23 H 5.4743 0.579306 -0.951927 0
M  V30 24 H 5.34531 -1.19523 -1.01064 0
M  V30 END ATOM
M  V30 BEGIN BOND
M  V30 1 1 1 2
M  V30 2 2 2 3
M  V30 3 1 3 4
M  V30 4 2 4 5
M  V30 5 1 5 6
M  V30 6 2 6 7
M  V30 7 1 5 8
M  V30 8 2 8 9
M  V30 9 1 9 10
M  V30 10 2 10 11
M  V30 11 1 11 12
M  V30 12 2 12 13
M  V30 13 1 11 14
M  V30 14 1 7 2
M  V30 15 1 13 8
M  V30 16 1 1 15
M  V30 17 1 1 16
M  V30 18 1 3 17
M  V30 19 1 4 18
M  V30 20 1 6 19
M  V30 21 1 9 20
M  V30 22 1 10 21
M  V30 23 1 13 22
M  V30 24 1 14 23
M  V30 25 1 14 24
M  V30 END BOND
M  V30 END CTAB
M  END
