
     RDKit          3D

  0  0  0  0  0  0  0  0  0  0999 V3000
M  V30 BEGIN CTAB
M  V30 COUNTS 35 35 0 0 0
M  V30 BEGIN ATOM
M  V30 1 C 4.76321 0.119502 1.40304 0
M  V30 2 C 4.09461 -0.472906 0.184105 0
M  V30 3 C 2.73834 0.188246 -0.0683137 0
M  V30 4 C 2.12591 -0.426542 -1.28859 0
M  V30 5 S 0.57066 0.145382 -1.84085 0
M  V30 6 C -0.866815 -0.101442 -0.921987 0
M  V30 7 C -1.50316 -1.34792 -1.00281 0
M  V30 8 N -0.881488 -2.37551 -1.74756 0
M  V30 9 C -2.68504 -1.60786 -0.395982 0
M  V30 10 C -3.34053 -0.637248 0.352024 0
M  V30 11 C -2.74181 0.59089 0.448347 0
M  V30 12 C -1.51419 0.849905 -0.187131 0
M  V30 13 S -0.869394 2.47829 -0.0330654 0
M  V30 14 N -2.02113 3.48495 0.793983 0
M  V30 15 O -0.635158 3.05546 -1.38892 0
M  V30 16 O 0.352925 2.46132 0.81107 0
M  V30 17 C -4.62214 -0.934098 0.991416 0
M  V30 18 O -5.17501 -2.18433 0.836965 0
M  V30 19 O -5.23192 -0.0959362 1.67071 0
M  V30 20 H 4.89515 1.22001 1.25038 0
M  V30 21 H 4.14837 -0.0378389 2.30606 0
M  V30 22 H 5.78342 -0.302194 1.52093 0
M  V30 23 H 4.71485 -0.27409 -0.723626 0
M  V30 24 H 3.99674 -1.5641 0.251286 0
M  V30 25 H 2.8452 1.26159 -0.222881 0
M  V30 26 H 2.06382 -0.0141864 0.791359 0
M  V30 27 H 2.89479 -0.245439 -2.11837 0
M  V30 28 H 2.19017 -1.54008 -1.12609 0
M  V30 29 H -0.802327 -2.4086 -2.78542 0
M  V30 30 H -0.467019 -3.16683 -1.21344 0
M  V30 31 H -3.15462 -2.59631 -0.484219 0
M  V30 32 H -3.20904 1.3849 1.02457 0
M  V30 33 H -2.13124 4.40267 0.27974 0
M  V30 34 H -1.68642 3.72661 1.74904 0
M  V30 35 H -4.6397 -3.03627 0.884224 0
M  V30 END ATOM
M  V30 BEGIN BOND
M  V30 1 1 1 2
M  V30 2 1 2 3
M  V30 3 1 3 4
M  V30 4 1 4 5
M  V30 5 1 5 6
M  V30 6 2 6 7
M  V30 7 1 7 8
M  V30 8 1 7 9
M  V30 9 2 9 10
M  V30 10 1 10 11
M  V30 11 2 11 12
M  V30 12 1 12 13
M  V30 13 1 13 14
M  V30 14 2 13 15
M  V30 15 2 13 16
M  V30 16 1 10 17
M  V30 17 1 17 18
M  V30 18 2 17 19
M  V30 19 1 12 6
M  V30 20 1 1 20
M  V30 21 1 1 21
M  V30 22 1 1 22
M  V30 23 1 2 23
M  V30 24 1 2 24
M  V30 25 1 3 25
M  V30 26 1 3 26
M  V30 27 1 4 27
M  V30 28 1 4 28
M  V30 29 1 8 29
M  V30 30 1 8 30
M  V30 31 1 9 31
M  V30 32 1 11 32
M  V30 33 1 14 33
M  V30 34 1 14 34
M  V30 35 1 18 35
M  V30 END BOND
M  V30 END CTAB
M  END
