
     RDKit          3D

  0  0  0  0  0  0  0  0  0  0999 V3000
M  V30 BEGIN CTAB
M  V30 COUNTS 27 27 0 0 0
M  V30 BEGIN ATOM
M  V30 1 N -3.3494 0.214695 -0.701276 0
M  V30 2 C -2.37634 0.415526 0.364651 0 CFG=2
M  V30 3 C -1.36907 1.42963 -0.147337 0
M  V30 4 C -0.00910461 1.22733 0.516737 0
M  V30 5 C 0.551403 -0.0612706 -0.0379794 0 CFG=2
M  V30 6 C -0.555451 -1.08178 -0.281002 0
M  V30 7 C -1.68245 -0.888922 0.710827 0
M  V30 8 N 1.55984 -0.6152 0.823171 0
M  V30 9 S 3.04307 -0.692147 -0.0603684 0
M  V30 10 O 3.85579 -1.89782 0.320135 0
M  V30 11 O 2.68776 -0.849132 -1.51295 0
M  V30 12 N 3.94262 0.76616 0.139801 0
M  V30 13 H -4.17285 -0.313151 -0.39736 0
M  V30 14 H -2.87806 -0.223221 -1.52686 0
M  V30 15 H -2.93574 0.776354 1.2425 0
M  V30 16 H -1.72815 2.45845 -0.0705825 0
M  V30 17 H -1.20663 1.17495 -1.23356 0
M  V30 18 H 0.618504 2.08393 0.186472 0
M  V30 19 H -0.0646867 1.24797 1.60879 0
M  V30 20 H 0.951001 0.186375 -1.05796 0
M  V30 21 H -0.994171 -0.980972 -1.29658 0
M  V30 22 H -0.173644 -2.10968 -0.169275 0
M  V30 23 H -2.38239 -1.74118 0.559406 0
M  V30 24 H -1.33578 -0.856007 1.74815 0
M  V30 25 H 1.25835 -1.53627 1.18053 0
M  V30 26 H 4.95007 0.493344 0.209836 0
M  V30 27 H 3.79551 1.37203 -0.692995 0
M  V30 END ATOM
M  V30 BEGIN BOND
M  V30 1 1 1 2
M  V30 2 1 2 3
M  V30 3 1 3 4
M  V30 4 1 4 5
M  V30 5 1 5 6
M  V30 6 1 6 7
M  V30 7 1 5 8
M  V30 8 1 8 9
M  V30 9 2 9 10
M  V30 10 2 9 11
M  V30 11 1 9 12
M  V30 12 1 7 2
M  V30 13 1 1 13
M  V30 14 1 1 14
M  V30 15 1 2 15 CFG=1
M  V30 16 1 3 16
M  V30 17 1 3 17
M  V30 18 1 4 18
M  V30 19 1 4 19
M  V30 20 1 5 20 CFG=3
M  V30 21 1 6 21
M  V30 22 1 6 22
M  V30 23 1 7 23
M  V30 24 1 7 24
M  V30 25 1 8 25
M  V30 26 1 12 26
M  V30 27 1 12 27
M  V30 END BOND
M  V30 END CTAB
M  END
