
     RDKit          3D

  0  0  0  0  0  0  0  0  0  0999 V3000
M  V30 BEGIN CTAB
M  V30 COUNTS 33 33 0 0 0
M  V30 BEGIN ATOM
M  V30 1 C -3.31868 -0.0852956 1.21862 0
M  V30 2 C -2.89091 0.648229 -0.0406997 0
M  V30 3 C -1.37096 0.875889 -0.0117687 0
M  V30 4 C -0.741501 -0.494048 0.0492553 0
M  V30 5 C 0.710553 -0.491894 0.106671 0
M  V30 6 C 1.51123 0.609998 0.391595 0
M  V30 7 C 2.87814 0.533776 0.443113 0
M  V30 8 C 3.70751 1.72703 0.749059 0
M  V30 9 C 3.50144 -0.662962 0.20859 0
M  V30 10 N 2.74262 -1.73116 -0.0662077 0
M  V30 11 C 1.40356 -1.66154 -0.117887 0
M  V30 12 N 0.723629 -2.86852 -0.422344 0
M  V30 13 N -1.3238 -1.25401 -1.02408 0
M  V30 14 C -1.08766 1.54098 -1.36699 0
M  V30 15 H -2.5664 0.053967 2.03405 0
M  V30 16 H -4.29875 0.302897 1.59926 0
M  V30 17 H -3.48251 -1.14085 0.949901 0
M  V30 18 H -3.13018 0.068824 -0.968955 0
M  V30 19 H -3.453 1.59487 -0.0950345 0
M  V30 20 H -1.05239 1.51122 0.80188 0
M  V30 21 H -1.12098 -0.957192 1.00698 0
M  V30 22 H 0.997008 1.54235 0.578992 0
M  V30 23 H 3.82715 1.77296 1.86125 0
M  V30 24 H 3.26703 2.66868 0.390044 0
M  V30 25 H 4.7211 1.66692 0.252046 0
M  V30 26 H 4.60388 -0.755892 0.245284 0
M  V30 27 H 0.70153 -3.17954 -1.41491 0
M  V30 28 H 0.247058 -3.45842 0.280651 0
M  V30 29 H -0.700993 -1.23418 -1.83753 0
M  V30 30 H -1.73295 -2.1517 -0.756226 0
M  V30 31 H -1.69996 2.46186 -1.3788 0
M  V30 32 H -1.5469 0.850708 -2.11418 0
M  V30 33 H -0.0249168 1.69604 -1.55163 0
M  V30 END ATOM
M  V30 BEGIN BOND
M  V30 1 1 1 2
M  V30 2 1 2 3
M  V30 3 1 3 4
M  V30 4 1 4 5
M  V30 5 2 5 6
M  V30 6 1 6 7
M  V30 7 1 7 8
M  V30 8 2 7 9
M  V30 9 1 9 10
M  V30 10 2 10 11
M  V30 11 1 11 12
M  V30 12 1 4 13
M  V30 13 1 3 14
M  V30 14 1 11 5
M  V30 15 1 1 15
M  V30 16 1 1 16
M  V30 17 1 1 17
M  V30 18 1 2 18
M  V30 19 1 2 19
M  V30 20 1 3 20
M  V30 21 1 4 21
M  V30 22 1 6 22
M  V30 23 1 8 23
M  V30 24 1 8 24
M  V30 25 1 8 25
M  V30 26 1 9 26
M  V30 27 1 12 27
M  V30 28 1 12 28
M  V30 29 1 13 29
M  V30 30 1 13 30
M  V30 31 1 14 31
M  V30 32 1 14 32
M  V30 33 1 14 33
M  V30 END BOND
M  V30 END CTAB
M  END
