
     RDKit          3D

  0  0  0  0  0  0  0  0  0  0999 V3000
M  V30 BEGIN CTAB
M  V30 COUNTS 25 26 0 0 0
M  V30 BEGIN ATOM
M  V30 1 O 3.52096 0.206339 2.41497 0
M  V30 2 C 3.21018 0.231797 1.19699 0
M  V30 3 C 4.1231 0.43481 0.0376065 0
M  V30 4 C 3.4678 -0.434065 -1.01299 0
M  V30 5 C 2.02544 -0.309841 -0.67517 0
M  V30 6 C 1.8922 0.0722105 0.594063 0
M  V30 7 S 0.665061 -0.623509 -1.79567 0
M  V30 8 C -0.880961 -0.34896 -0.960902 0
M  V30 9 N -1.48212 -1.35855 -0.303863 0
M  V30 10 C -2.65682 -1.18211 0.339973 0
M  V30 11 N -3.30703 -2.2292 1.03727 0
M  V30 12 C -3.19436 0.0862198 0.280919 0
M  V30 13 C -2.56814 1.12047 -0.398328 0
M  V30 14 N -1.4016 0.889345 -1.02104 0
M  V30 15 N -3.16256 2.41172 -0.430556 0
M  V30 16 H 4.07756 1.48855 -0.29081 0
M  V30 17 H 5.14935 0.0993589 0.282174 0
M  V30 18 H 3.68278 -0.0720865 -2.04073 0
M  V30 19 H 3.85658 -1.45811 -0.87303 0
M  V30 20 H 0.95995 0.253869 1.15235 0
M  V30 21 H -3.86024 -2.10477 1.91226 0
M  V30 22 H -3.23466 -3.19775 0.658545 0
M  V30 23 H -4.13129 0.268435 0.782053 0
M  V30 24 H -2.67461 3.17224 -0.914024 0
M  V30 25 H -4.07658 2.58358 0.0279418 0
M  V30 END ATOM
M  V30 BEGIN BOND
M  V30 1 2 1 2
M  V30 2 1 2 3
M  V30 3 1 3 4
M  V30 4 1 4 5
M  V30 5 2 5 6
M  V30 6 1 5 7
M  V30 7 1 7 8
M  V30 8 2 8 9
M  V30 9 1 9 10
M  V30 10 1 10 11
M  V30 11 2 10 12
M  V30 12 1 12 13
M  V30 13 2 13 14
M  V30 14 1 13 15
M  V30 15 1 6 2
M  V30 16 1 14 8
M  V30 17 1 3 16
M  V30 18 1 3 17
M  V30 19 1 4 18
M  V30 20 1 4 19
M  V30 21 1 6 20
M  V30 22 1 11 21
M  V30 23 1 11 22
M  V30 24 1 12 23
M  V30 25 1 15 24
M  V30 26 1 15 25
M  V30 END BOND
M  V30 END CTAB
M  END
