
     RDKit          3D

  0  0  0  0  0  0  0  0  0  0999 V3000
M  V30 BEGIN CTAB
M  V30 COUNTS 29 29 0 0 0
M  V30 BEGIN ATOM
M  V30 1 N -4.51447 1.56478 -0.609589 0
M  V30 2 C -4.57895 0.191905 -0.265849 0
M  V30 3 N -5.48378 -0.570977 -0.743603 0
M  V30 4 N -3.61335 -0.33121 0.627162 0
M  V30 5 N -2.58067 -1.11287 0.0939267 0
M  V30 6 C -1.24102 -0.692095 0.236337 0
M  V30 7 C -0.226797 -1.44881 -0.280987 0
M  V30 8 C 1.07461 -1.02197 -0.132149 0
M  V30 9 C 1.38788 0.149699 0.525105 0
M  V30 10 N 2.72701 0.583757 0.675243 0
M  V30 11 N 3.82169 -0.119157 0.183024 0
M  V30 12 C 4.71398 0.520249 -0.690259 0
M  V30 13 N 5.83024 -0.171812 -1.20181 0
M  V30 14 S 4.46407 2.06271 -1.11597 0
M  V30 15 C 0.354874 0.892815 1.03595 0
M  V30 16 C -0.956657 0.502664 0.909218 0
M  V30 17 H -3.82957 2.21457 -0.188072 0
M  V30 18 H -5.1759 1.98218 -1.32209 0
M  V30 19 H -5.5736 -1.58595 -0.521912 0
M  V30 20 H -3.7144 -0.112108 1.63442 0
M  V30 21 H -2.76653 -2.00675 -0.411557 0
M  V30 22 H -0.406755 -2.39196 -0.815554 0
M  V30 23 H 1.90244 -1.61081 -0.537654 0
M  V30 24 H 2.92513 1.46825 1.17433 0
M  V30 25 H 3.97665 -1.11107 0.46085 0
M  V30 26 H 5.85991 -1.1482 -1.50941 0
M  V30 27 H 6.72929 0.373338 -1.27546 0
M  V30 28 H 0.628668 1.82107 1.55471 0
M  V30 29 H -1.73398 1.10778 1.32032 0
M  V30 END ATOM
M  V30 BEGIN BOND
M  V30 1 1 1 2
M  V30 2 2 2 3 CFG=2
M  V30 3 1 2 4
M  V30 4 1 4 5
M  V30 5 1 5 6
M  V30 6 2 6 7
M  V30 7 1 7 8
M  V30 8 2 8 9
M  V30 9 1 9 10
M  V30 10 1 10 11
M  V30 11 1 11 12
M  V30 12 1 12 13
M  V30 13 2 12 14
M  V30 14 1 9 15
M  V30 15 2 15 16
M  V30 16 1 16 6
M  V30 17 1 1 17
M  V30 18 1 1 18
M  V30 19 1 3 19
M  V30 20 1 4 20
M  V30 21 1 5 21
M  V30 22 1 7 22
M  V30 23 1 8 23
M  V30 24 1 10 24
M  V30 25 1 11 25
M  V30 26 1 13 26
M  V30 27 1 13 27
M  V30 28 1 15 28
M  V30 29 1 16 29
M  V30 END BOND
M  V30 END CTAB
M  END
