
     RDKit          3D

  0  0  0  0  0  0  0  0  0  0999 V3000
M  V30 BEGIN CTAB
M  V30 COUNTS 49 51 0 0 0
M  V30 BEGIN ATOM
M  V30 1 C -5.21851 -3.35894 0.471652 0
M  V30 2 C -3.98177 -3.15622 1.31985 0
M  V30 3 O -3.35353 -1.94643 1.03042 0
M  V30 4 C -3.91051 -0.694197 1.19215 0
M  V30 5 C -5.17284 -0.47084 1.67909 0
M  V30 6 C -5.71744 0.796677 1.83641 0
M  V30 7 C -4.99027 1.90689 1.50058 0
M  V30 8 C -3.69794 1.69732 1.00171 0
M  V30 9 C -3.15653 0.45085 0.844487 0
M  V30 10 N -1.86819 0.250386 0.346811 0
M  V30 11 C -0.902688 1.16548 -0.073753 0
M  V30 12 O -1.0944 2.39527 -0.0533353 0
M  V30 13 C 0.451653 0.701032 -0.585552 0
M  V30 14 C 1.28674 1.8567 -0.965526 0
M  V30 15 C 1.81041 2.00745 -2.24769 0
M  V30 16 C 2.59076 3.08886 -2.59996 0
M  V30 17 C 2.8673 4.06617 -1.64418 0
M  V30 18 C 2.36025 3.93524 -0.375338 0
M  V30 19 C 1.58524 2.84363 -0.0575257 0
M  V30 20 S 1.22082 -0.280318 0.751625 0
M  V30 21 C 2.82274 -0.866417 0.230286 0
M  V30 22 N 3.59856 -1.61539 1.03255 0
M  V30 23 C 4.80884 -2.07373 0.673995 0
M  V30 24 N 5.62622 -2.86594 1.5262 0
M  V30 25 C 5.29978 -1.76368 -0.596056 0
M  V30 26 C 4.51085 -1.00108 -1.41407 0
M  V30 27 N 3.3046 -0.569719 -0.999007 0
M  V30 28 N 5.00864 -0.676978 -2.72386 0
M  V30 29 H -5.05612 -4.20909 -0.222391 0
M  V30 30 H -6.12128 -3.55968 1.1093 0
M  V30 31 H -5.40407 -2.44019 -0.155243 0
M  V30 32 H -3.27914 -4.00037 1.15156 0
M  V30 33 H -4.27241 -3.2246 2.41154 0
M  V30 34 H -5.78405 -1.33053 1.96902 0
M  V30 35 H -6.72271 0.941888 2.22527 0
M  V30 36 H -5.38312 2.91882 1.60967 0
M  V30 37 H -3.1854 2.61803 0.758996 0
M  V30 38 H -1.53407 -0.780565 0.261455 0
M  V30 39 H 0.324972 0.0176955 -1.44788 0
M  V30 40 H 1.60976 1.26352 -3.00451 0
M  V30 41 H 3.00142 3.21272 -3.59521 0
M  V30 42 H 3.47378 4.93011 -1.87527 0
M  V30 43 H 2.57711 4.70553 0.381251 0
M  V30 44 H 1.18606 2.74508 0.949613 0
M  V30 45 H 5.85218 -3.84531 1.25043 0
M  V30 46 H 5.9918 -2.48599 2.40115 0
M  V30 47 H 6.25655 -2.12394 -0.884203 0
M  V30 48 H 5.27998 -1.46961 -3.34612 0
M  V30 49 H 5.09996 0.294407 -3.05041 0
M  V30 END ATOM
M  V30 BEGIN BOND
M  V30 1 1 1 2
M  V30 2 1 2 3
M  V30 3 1 3 4
M  V30 4 2 4 5
M  V30 5 1 5 6
M  V30 6 2 6 7
M  V30 7 1 7 8
M  V30 8 2 8 9
M  V30 9 1 9 10
M  V30 10 1 10 11
M  V30 11 2 11 12
M  V30 12 1 11 13
M  V30 13 1 13 14
M  V30 14 2 14 15
M  V30 15 1 15 16
M  V30 16 2 16 17
M  V30 17 1 17 18
M  V30 18 2 18 19
M  V30 19 1 13 20
M  V30 20 1 20 21
M  V30 21 2 21 22
M  V30 22 1 22 23
M  V30 23 1 23 24
M  V30 24 2 23 25
M  V30 25 1 25 26
M  V30 26 2 26 27
M  V30 27 1 26 28
M  V30 28 1 9 4
M  V30 29 1 19 14
M  V30 30 1 27 21
M  V30 31 1 1 29
M  V30 32 1 1 30
M  V30 33 1 1 31
M  V30 34 1 2 32
M  V30 35 1 2 33
M  V30 36 1 5 34
M  V30 37 1 6 35
M  V30 38 1 7 36
M  V30 39 1 8 37
M  V30 40 1 10 38
M  V30 41 1 13 39
M  V30 42 1 15 40
M  V30 43 1 16 41
M  V30 44 1 17 42
M  V30 45 1 18 43
M  V30 46 1 19 44
M  V30 47 1 24 45
M  V30 48 1 24 46
M  V30 49 1 25 47
M  V30 50 1 28 48
M  V30 51 1 28 49
M  V30 END BOND
M  V30 END CTAB
M  END
