
     RDKit          3D

  0  0  0  0  0  0  0  0  0  0999 V3000
M  V30 BEGIN CTAB
M  V30 COUNTS 35 36 0 0 0
M  V30 BEGIN ATOM
M  V30 1 C 7.21509 1.57772 0.0166863 0
M  V30 2 O 5.86024 1.25093 -0.222713 0
M  V30 3 C 5.34426 0.0576035 0.241714 0
M  V30 4 O 6.07564 -0.716697 0.865292 0
M  V30 5 C 3.94116 -0.32089 0.0140954 0
M  V30 6 C 3.3075 -1.46307 0.41312 0
M  V30 7 C 2.00877 -1.5939 0.0889869 0
M  V30 8 C 1.4339 -0.566946 -0.614846 0
M  V30 9 C 0.00393632 -0.472618 -1.09905 0
M  V30 10 C -0.693114 -1.72499 -0.692611 0
M  V30 11 S -2.41078 -1.83951 -1.16725 0
M  V30 12 C -3.46468 -0.652084 -0.347671 0
M  V30 13 C -3.6742 0.575756 -0.927598 0
M  V30 14 N -3.07131 0.900731 -2.16996 0
M  V30 15 N -4.46269 1.46816 -0.307526 0
M  V30 16 C -5.05234 1.19582 0.862585 0
M  V30 17 N -5.88226 2.16266 1.49557 0
M  V30 18 N -4.84073 -0.0254223 1.43373 0
M  V30 19 C -4.0628 -0.939033 0.847032 0
M  V30 20 O -3.89168 -2.04056 1.39465 0
M  V30 21 S 2.71551 0.538034 -0.798965 0
M  V30 22 H 7.88374 1.17464 -0.780953 0
M  V30 23 H 7.58791 1.11958 0.960379 0
M  V30 24 H 7.31174 2.68151 0.0547339 0
M  V30 25 H 3.87235 -2.23798 0.984332 0
M  V30 26 H 1.41976 -2.50259 0.381051 0
M  V30 27 H -0.46605 0.450478 -0.68576 0
M  V30 28 H 0.0645007 -0.443487 -2.20311 0
M  V30 29 H -0.529982 -1.91306 0.402438 0
M  V30 30 H -0.158643 -2.57014 -1.20989 0
M  V30 31 H -2.30162 1.58292 -2.18836 0
M  V30 32 H -3.40061 0.459656 -3.03837 0
M  V30 33 H -6.8911 1.9552 1.63501 0
M  V30 34 H -5.47152 3.06531 1.8119 0
M  V30 35 H -5.31989 -0.193724 2.34456 0
M  V30 END ATOM
M  V30 BEGIN BOND
M  V30 1 1 1 2
M  V30 2 1 2 3
M  V30 3 2 3 4
M  V30 4 1 3 5
M  V30 5 2 5 6
M  V30 6 1 6 7
M  V30 7 2 7 8
M  V30 8 1 8 9
M  V30 9 1 9 10
M  V30 10 1 10 11
M  V30 11 1 11 12
M  V30 12 2 12 13
M  V30 13 1 13 14
M  V30 14 1 13 15
M  V30 15 2 15 16
M  V30 16 1 16 17
M  V30 17 1 16 18
M  V30 18 1 18 19
M  V30 19 2 19 20
M  V30 20 1 8 21
M  V30 21 1 21 5
M  V30 22 1 19 12
M  V30 23 1 1 22
M  V30 24 1 1 23
M  V30 25 1 1 24
M  V30 26 1 6 25
M  V30 27 1 7 26
M  V30 28 1 9 27
M  V30 29 1 9 28
M  V30 30 1 10 29
M  V30 31 1 10 30
M  V30 32 1 14 31
M  V30 33 1 14 32
M  V30 34 1 17 33
M  V30 35 1 17 34
M  V30 36 1 18 35
M  V30 END BOND
M  V30 END CTAB
M  END
