
     RDKit          3D

  0  0  0  0  0  0  0  0  0  0999 V3000
M  V30 BEGIN CTAB
M  V30 COUNTS 37 39 0 0 0
M  V30 BEGIN ATOM
M  V30 1 N -4.59975 -1.71403 0.05812 0
M  V30 2 C -3.68956 -1.1966 -0.902837 0
M  V30 3 S -4.06962 -1.33373 -2.47412 0
M  V30 4 C -2.45456 -0.565525 -0.431918 0
M  V30 5 C -1.21093 -1.14745 -0.236541 0
M  V30 6 N -0.34476 -0.216147 0.205666 0
M  V30 7 C 1.03505 -0.423357 0.522876 0 CFG=2
M  V30 8 O 1.84532 0.646143 0.0800124 0
M  V30 9 C 3.11306 0.100013 0.2794 0 CFG=2
M  V30 10 C 4.20697 0.999674 -0.234282 0
M  V30 11 O 4.10626 1.25564 -1.59511 0
M  V30 12 C 3.00775 -1.18723 -0.51042 0 CFG=1
M  V30 13 O 3.98138 -2.10644 -0.134795 0
M  V30 14 C 1.61645 -1.66173 -0.0872834 0 CFG=1
M  V30 15 O 1.79581 -2.60481 0.907194 0
M  V30 16 C -0.97671 0.971241 0.310613 0
M  V30 17 C -2.28168 0.758652 -0.0829458 0
M  V30 18 C -3.15265 1.84819 -0.0635799 0
M  V30 19 N -4.48164 1.59652 -0.472427 0
M  V30 20 N -2.72207 3.06354 0.328569 0
M  V30 21 C -1.4471 3.25719 0.70987 0
M  V30 22 N -0.598801 2.21334 0.694973 0
M  V30 23 H -5.01 -2.64415 -0.122391 0
M  V30 24 H -4.87815 -1.21738 0.928746 0
M  V30 25 H -1.0505 -2.20372 -0.43607 0
M  V30 26 H 1.1403 -0.420858 1.63899 0
M  V30 27 H 3.29396 -0.0730982 1.34818 0
M  V30 28 H 5.16699 0.468927 -0.0681505 0
M  V30 29 H 4.22699 1.9012 0.384737 0
M  V30 30 H 5.03365 1.52614 -1.88767 0
M  V30 31 H 2.99279 -0.963219 -1.5789 0
M  V30 32 H 4.7723 -1.94132 -0.707603 0
M  V30 33 H 1.04944 -2.03814 -0.951551 0
M  V30 34 H 1.68642 -2.20682 1.81104 0
M  V30 35 H -4.75 1.63112 -1.47857 0
M  V30 36 H -5.23118 1.36991 0.212714 0
M  V30 37 H -1.12124 4.25833 1.0253 0
M  V30 END ATOM
M  V30 BEGIN BOND
M  V30 1 1 1 2
M  V30 2 2 2 3
M  V30 3 1 2 4
M  V30 4 2 4 5
M  V30 5 1 5 6
M  V30 6 1 6 7
M  V30 7 1 7 8
M  V30 8 1 8 9
M  V30 9 1 9 10
M  V30 10 1 10 11
M  V30 11 1 9 12
M  V30 12 1 12 13
M  V30 13 1 12 14
M  V30 14 1 14 15
M  V30 15 1 6 16
M  V30 16 2 16 17
M  V30 17 1 17 18
M  V30 18 1 18 19
M  V30 19 2 18 20
M  V30 20 1 20 21
M  V30 21 2 21 22
M  V30 22 1 17 4
M  V30 23 1 14 7
M  V30 24 1 22 16
M  V30 25 1 1 23
M  V30 26 1 1 24
M  V30 27 1 5 25
M  V30 28 1 7 26 CFG=1
M  V30 29 1 9 27 CFG=1
M  V30 30 1 10 28
M  V30 31 1 10 29
M  V30 32 1 11 30
M  V30 33 1 12 31 CFG=3
M  V30 34 1 13 32
M  V30 35 1 14 33 CFG=3
M  V30 36 1 15 34
M  V30 37 1 19 35
M  V30 38 1 19 36
M  V30 39 1 21 37
M  V30 END BOND
M  V30 END CTAB
M  END
