
     RDKit          3D

  0  0  0  0  0  0  0  0  0  0999 V3000
M  V30 BEGIN CTAB
M  V30 COUNTS 20 20 0 0 0
M  V30 BEGIN ATOM
M  V30 1 C -2.41179 0.855408 -0.0305898 0
M  V30 2 O -1.4136 0.453373 0.914819 0
M  V30 3 C -0.184524 0.0101965 0.392807 0
M  V30 4 C 0.0269258 -1.32591 0.0926795 0
M  V30 5 N -1.04391 -2.21278 0.334977 0
M  V30 6 C 1.24352 -1.77439 -0.425663 0
M  V30 7 C 2.22224 -0.838748 -0.626233 0
M  V30 8 C 2.0592 0.500062 -0.343297 0
M  V30 9 C 0.849414 0.89555 0.163717 0
M  V30 10 N 0.585847 2.26994 0.489258 0
M  V30 11 Br 3.44113 1.7837 -0.632744 0
M  V30 12 H -3.24771 1.27232 0.571304 0
M  V30 13 H -2.76322 -0.0222621 -0.633973 0
M  V30 14 H -1.97691 1.64284 -0.710389 0
M  V30 15 H -1.78394 -2.33548 -0.380497 0
M  V30 16 H -1.12056 -2.75567 1.2158 0
M  V30 17 H 1.35832 -2.83568 -0.644686 0
M  V30 18 H 3.17496 -1.15584 -1.02645 0
M  V30 19 H 0.703773 2.60303 1.4813 0
M  V30 20 H 0.280841 2.97034 -0.202146 0
M  V30 END ATOM
M  V30 BEGIN BOND
M  V30 1 1 1 2
M  V30 2 1 2 3
M  V30 3 2 3 4
M  V30 4 1 4 5
M  V30 5 1 4 6
M  V30 6 2 6 7
M  V30 7 1 7 8
M  V30 8 2 8 9
M  V30 9 1 9 10
M  V30 10 1 8 11
M  V30 11 1 9 3
M  V30 12 1 1 12
M  V30 13 1 1 13
M  V30 14 1 1 14
M  V30 15 1 5 15
M  V30 16 1 5 16
M  V30 17 1 6 17
M  V30 18 1 7 18
M  V30 19 1 10 19
M  V30 20 1 10 20
M  V30 END BOND
M  V30 END CTAB
M  END
