
     RDKit          3D

  0  0  0  0  0  0  0  0  0  0999 V3000
M  V30 BEGIN CTAB
M  V30 COUNTS 19 19 0 0 0
M  V30 BEGIN ATOM
M  V30 1 C -1.44731 -1.10059 0.305113 0
M  V30 2 C -0.809729 0.142788 0.122471 0
M  V30 3 C -1.74647 1.12329 0.574163 0
M  V30 4 C -0.727126 1.52121 -0.238243 0
M  V30 5 F -0.989576 1.81271 -1.59317 0
M  V30 6 C 0.613108 -0.143183 -0.0516413 0
M  V30 7 N 1.56552 0.265809 0.724563 0
M  V30 8 N 2.89432 -0.0258291 0.525427 0
M  V30 9 N 0.991238 -0.942775 -1.16837 0
M  V30 10 H -1.08754 -1.61393 1.24794 0
M  V30 11 H -2.55661 -1.23306 0.351772 0
M  V30 12 H -1.18019 -1.8604 -0.49662 0
M  V30 13 H -1.82124 1.46215 1.65448 0
M  V30 14 H -2.78108 1.09335 0.148773 0
M  V30 15 H -0.056217 2.31846 0.168108 0
M  V30 16 H 3.41681 0.0951048 -0.368431 0
M  V30 17 H 3.44708 -0.403715 1.33075 0
M  V30 18 H 1.56954 -1.80923 -1.07934 0
M  V30 19 H 0.705473 -0.702164 -2.15773 0
M  V30 END ATOM
M  V30 BEGIN BOND
M  V30 1 1 1 2
M  V30 2 1 2 3
M  V30 3 1 3 4
M  V30 4 1 4 5
M  V30 5 1 2 6
M  V30 6 2 6 7 CFG=2
M  V30 7 1 7 8
M  V30 8 1 6 9
M  V30 9 1 4 2
M  V30 10 1 1 10
M  V30 11 1 1 11
M  V30 12 1 1 12
M  V30 13 1 3 13
M  V30 14 1 3 14
M  V30 15 1 4 15
M  V30 16 1 8 16
M  V30 17 1 8 17
M  V30 18 1 9 18
M  V30 19 1 9 19
M  V30 END BOND
M  V30 END CTAB
M  END
