
     RDKit          3D

  0  0  0  0  0  0  0  0  0  0999 V3000
M  V30 BEGIN CTAB
M  V30 COUNTS 33 35 0 0 0
M  V30 BEGIN ATOM
M  V30 1 C 5.51659 1.02375 -1.24778 0
M  V30 2 C 4.29607 0.276888 -0.816694 0
M  V30 3 C 4.19692 -0.946189 -0.207641 0
M  V30 4 C 2.96757 -1.39219 0.0754228 0
M  V30 5 C 1.91154 -0.598414 -0.262606 0
M  V30 6 S 2.67073 0.76026 -0.972349 0
M  V30 7 C 0.438322 -0.864731 -0.0558298 0
M  V30 8 C -0.243755 -0.98777 -1.39803 0
M  V30 9 C -1.7074 -1.05677 -1.17762 0
M  V30 10 O -2.46256 -1.82232 -1.84391 0
M  V30 11 C -2.30488 -0.22096 -0.164419 0
M  V30 12 C -1.54065 0.407204 0.77489 0
M  V30 13 C -0.0821901 0.247985 0.77499 0
M  V30 14 N -2.1542 1.18895 1.71767 0
M  V30 15 C -3.48362 1.36654 1.75971 0
M  V30 16 N -4.25943 0.75869 0.845426 0
M  V30 17 C -3.68895 -0.0155177 -0.0935895 0
M  V30 18 N -4.45731 -0.691566 -1.09671 0
M  V30 19 N -4.0488 2.20473 2.78394 0
M  V30 20 H 6.40538 0.727143 -0.682624 0
M  V30 21 H 5.69827 0.848486 -2.33066 0
M  V30 22 H 5.37894 2.12417 -1.09994 0
M  V30 23 H 5.13235 -1.50564 0.0208424 0
M  V30 24 H 2.77754 -2.36968 0.56785 0
M  V30 25 H 0.348761 -1.85255 0.435713 0
M  V30 26 H -0.00931268 -0.0609471 -1.99143 0
M  V30 27 H 0.154721 -1.89991 -1.89296 0
M  V30 28 H 0.365563 1.23612 0.542017 0
M  V30 29 H 0.223239 0.0441724 1.84394 0
M  V30 30 H -4.90738 -1.59821 -0.833483 0
M  V30 31 H -4.58659 -0.335605 -2.04808 0
M  V30 32 H -4.92003 1.89959 3.25207 0
M  V30 33 H -3.62546 3.10431 3.07896 0
M  V30 END ATOM
M  V30 BEGIN BOND
M  V30 1 1 1 2
M  V30 2 2 2 3
M  V30 3 1 3 4
M  V30 4 2 4 5
M  V30 5 1 5 6
M  V30 6 1 5 7
M  V30 7 1 7 8
M  V30 8 1 8 9
M  V30 9 2 9 10
M  V30 10 1 9 11
M  V30 11 2 11 12
M  V30 12 1 12 13
M  V30 13 1 12 14
M  V30 14 2 14 15
M  V30 15 1 15 16
M  V30 16 2 16 17
M  V30 17 1 17 18
M  V30 18 1 15 19
M  V30 19 1 6 2
M  V30 20 1 13 7
M  V30 21 1 17 11
M  V30 22 1 1 20
M  V30 23 1 1 21
M  V30 24 1 1 22
M  V30 25 1 3 23
M  V30 26 1 4 24
M  V30 27 1 7 25
M  V30 28 1 8 26
M  V30 29 1 8 27
M  V30 30 1 13 28
M  V30 31 1 13 29
M  V30 32 1 18 30
M  V30 33 1 18 31
M  V30 34 1 19 32
M  V30 35 1 19 33
M  V30 END BOND
M  V30 END CTAB
M  END
