
     RDKit          3D

  0  0  0  0  0  0  0  0  0  0999 V3000
M  V30 BEGIN CTAB
M  V30 COUNTS 45 47 0 0 0
M  V30 BEGIN ATOM
M  V30 1 C -5.49553 -3.36495 1.14885 0
M  V30 2 S -5.50491 -2.00076 -0.0444502 0
M  V30 3 C -3.92922 -1.16366 0.0120419 0
M  V30 4 N -3.64292 -0.108065 -0.757312 0
M  V30 5 C -2.43737 0.544515 -0.722839 0
M  V30 6 N -2.22158 1.64741 -1.57695 0
M  V30 7 C -1.46271 0.124719 0.12329 0
M  V30 8 C -1.80407 -0.988114 0.914603 0
M  V30 9 O -0.968832 -1.45418 1.73112 0
M  V30 10 N -2.98727 -1.58644 0.844287 0
M  V30 11 C -0.124611 0.655721 0.329346 0
M  V30 12 C 0.982987 -0.264328 -0.0897081 0
M  V30 13 C 2.12818 -0.357707 0.709993 0
M  V30 14 N 2.22436 0.413789 1.89618 0
M  V30 15 N 3.11547 -1.1851 0.327405 0
M  V30 16 C 3.08363 -1.92997 -0.767551 0
M  V30 17 N 1.99534 -1.8594 -1.55291 0
M  V30 18 C 0.972776 -1.03768 -1.20716 0
M  V30 19 O 0.00374432 -1.02111 -1.9714 0
M  V30 20 S 4.40484 -3.02537 -1.26766 0
M  V30 21 C 5.7862 -2.99747 -0.126043 0
M  V30 22 C 0.144639 2.04849 -0.0131269 0
M  V30 23 C 0.957745 2.3487 -1.08478 0
M  V30 24 C 1.25024 3.67182 -1.42445 0
M  V30 25 C 0.723835 4.70787 -0.684193 0
M  V30 26 C -0.0884931 4.4191 0.38677 0
M  V30 27 C -0.355857 3.12374 0.693958 0
M  V30 28 Cl -1.39797 2.74423 2.06935 0
M  V30 29 H -4.53739 -3.92036 1.13113 0
M  V30 30 H -6.33714 -4.06348 0.984526 0
M  V30 31 H -5.53891 -2.8968 2.17 0
M  V30 32 H -2.62696 2.56464 -1.31088 0
M  V30 33 H -1.68921 1.60146 -2.46935 0
M  V30 34 H -3.19976 -2.41722 1.45627 0
M  V30 35 H 0.00184231 0.641194 1.48309 0
M  V30 36 H 1.67414 0.229831 2.76162 0
M  V30 37 H 2.88104 1.24401 1.96828 0
M  V30 38 H 1.94432 -2.43177 -2.41541 0
M  V30 39 H 5.56967 -2.54098 0.840258 0
M  V30 40 H 6.67881 -2.537 -0.643333 0
M  V30 41 H 6.10148 -4.05863 0.0793732 0
M  V30 42 H 1.38545 1.55922 -1.68431 0
M  V30 43 H 1.88419 3.92789 -2.25984 0
M  V30 44 H 0.956796 5.75191 -0.954674 0
M  V30 45 H -0.500994 5.24026 0.966564 0
M  V30 END ATOM
M  V30 BEGIN BOND
M  V30 1 1 1 2
M  V30 2 1 2 3
M  V30 3 2 3 4
M  V30 4 1 4 5
M  V30 5 1 5 6
M  V30 6 2 5 7
M  V30 7 1 7 8
M  V30 8 2 8 9
M  V30 9 1 8 10
M  V30 10 1 7 11
M  V30 11 1 11 12
M  V30 12 2 12 13
M  V30 13 1 13 14
M  V30 14 1 13 15
M  V30 15 2 15 16
M  V30 16 1 16 17
M  V30 17 1 17 18
M  V30 18 2 18 19
M  V30 19 1 16 20
M  V30 20 1 20 21
M  V30 21 1 11 22
M  V30 22 2 22 23
M  V30 23 1 23 24
M  V30 24 2 24 25
M  V30 25 1 25 26
M  V30 26 2 26 27
M  V30 27 1 27 28
M  V30 28 1 10 3
M  V30 29 1 18 12
M  V30 30 1 27 22
M  V30 31 1 1 29
M  V30 32 1 1 30
M  V30 33 1 1 31
M  V30 34 1 6 32
M  V30 35 1 6 33
M  V30 36 1 10 34
M  V30 37 1 11 35
M  V30 38 1 14 36
M  V30 39 1 14 37
M  V30 40 1 17 38
M  V30 41 1 21 39
M  V30 42 1 21 40
M  V30 43 1 21 41
M  V30 44 1 23 42
M  V30 45 1 24 43
M  V30 46 1 25 44
M  V30 47 1 26 45
M  V30 END BOND
M  V30 END CTAB
M  END
