
     RDKit          3D

  0  0  0  0  0  0  0  0  0  0999 V3000
M  V30 BEGIN CTAB
M  V30 COUNTS 33 33 0 0 0
M  V30 BEGIN ATOM
M  V30 1 N 6.03755 0.949976 0.716988 0
M  V30 2 C 5.28899 -0.254092 1.00491 0
M  V30 3 C 3.98959 -0.298218 0.311897 0
M  V30 4 C 3.57349 0.665956 -0.60568 0
M  V30 5 C 2.32582 0.572208 -1.23145 0
M  V30 6 C 1.48073 -0.476863 -0.953291 0
M  V30 7 C 1.90872 -1.42082 -0.0436321 0
M  V30 8 C 3.13616 -1.34193 0.581269 0
M  V30 9 S -0.0760233 -0.592124 -1.73494 0
M  V30 10 O -0.499735 -2.02888 -1.767 0
M  V30 11 O -0.0254524 -0.0969659 -3.13148 0
M  V30 12 N -1.22356 0.25906 -0.759541 0
M  V30 13 C -2.56081 -0.188695 -0.634064 0
M  V30 14 O -2.90127 -1.22519 -1.24956 0
M  V30 15 C -3.48771 0.593312 0.219297 0
M  V30 16 N -4.80828 0.0245019 0.253314 0
M  V30 17 C -5.8353 0.630417 1.01762 0
M  V30 18 S -5.52302 1.98243 1.86599 0
M  V30 19 N -7.15592 0.106024 1.08312 0
M  V30 20 H 6.33993 1.05041 -0.251409 0
M  V30 21 H 5.69891 1.78562 1.20134 0
M  V30 22 H 5.17715 -0.382793 2.08563 0
M  V30 23 H 5.90107 -1.09536 0.561444 0
M  V30 24 H 4.24907 1.47909 -0.809244 0
M  V30 25 H 2.0354 1.35195 -1.94749 0
M  V30 26 H 1.23964 -2.24211 0.170142 0
M  V30 27 H 3.4539 -2.08784 1.28924 0
M  V30 28 H -0.900806 1.13334 -0.251114 0
M  V30 29 H -3.03789 0.620514 1.25609 0
M  V30 30 H -3.47547 1.63312 -0.181058 0
M  V30 31 H -5.02572 -0.837652 -0.282794 0
M  V30 32 H -7.96864 0.71762 1.30111 0
M  V30 33 H -7.3305 -0.895945 0.914359 0
M  V30 END ATOM
M  V30 BEGIN BOND
M  V30 1 1 1 2
M  V30 2 1 2 3
M  V30 3 2 3 4
M  V30 4 1 4 5
M  V30 5 2 5 6
M  V30 6 1 6 7
M  V30 7 2 7 8
M  V30 8 1 6 9
M  V30 9 2 9 10
M  V30 10 2 9 11
M  V30 11 1 9 12
M  V30 12 1 12 13
M  V30 13 2 13 14
M  V30 14 1 13 15
M  V30 15 1 15 16
M  V30 16 1 16 17
M  V30 17 2 17 18
M  V30 18 1 17 19
M  V30 19 1 8 3
M  V30 20 1 1 20
M  V30 21 1 1 21
M  V30 22 1 2 22
M  V30 23 1 2 23
M  V30 24 1 4 24
M  V30 25 1 5 25
M  V30 26 1 7 26
M  V30 27 1 8 27
M  V30 28 1 12 28
M  V30 29 1 15 29
M  V30 30 1 15 30
M  V30 31 1 16 31
M  V30 32 1 19 32
M  V30 33 1 19 33
M  V30 END BOND
M  V30 END CTAB
M  END
