
     RDKit          3D

  0  0  0  0  0  0  0  0  0  0999 V3000
M  V30 BEGIN CTAB
M  V30 COUNTS 27 28 0 0 0
M  V30 BEGIN ATOM
M  V30 1 Br 6.50107 -0.29973 1.02268 0
M  V30 2 C 4.73801 -0.26159 0.31416 0
M  V30 3 C 3.92213 0.801942 0.598384 0
M  V30 4 C 2.65265 0.852192 0.101567 0
M  V30 5 C 2.12995 -0.140273 -0.695935 0
M  V30 6 C 2.9387 -1.20849 -0.985857 0
M  V30 7 C 4.23214 -1.27268 -0.487267 0
M  V30 8 C 0.776101 -0.0953584 -1.23085 0
M  V30 9 O 0.350948 -1.03175 -1.95509 0
M  V30 10 O -0.0977895 0.947982 -0.982496 0
M  V30 11 N -1.37608 0.998296 -1.48293 0
M  V30 12 C -2.42926 0.770134 -0.795128 0
M  V30 13 C -2.27658 0.434059 0.61141 0
M  V30 14 N -1.1508 0.321596 1.33026 0
M  V30 15 O -1.45434 0.00435118 2.55458 0
M  V30 16 N -2.74153 -0.101794 2.69042 0
M  V30 17 C -3.30926 0.161502 1.48502 0
M  V30 18 N -4.69801 0.146614 1.22504 0
M  V30 19 N -3.68278 0.857561 -1.44118 0
M  V30 20 H 4.24645 1.63422 1.2199 0
M  V30 21 H 2.00247 1.69871 0.327474 0
M  V30 22 H 2.60364 -2.04007 -1.61143 0
M  V30 23 H 4.88338 -2.09753 -0.700049 0
M  V30 24 H -5.20697 -0.754137 1.35422 0
M  V30 25 H -5.24284 0.977445 0.913274 0
M  V30 26 H -4.06034 0.0272568 -1.93473 0
M  V30 27 H -4.25106 1.72418 -1.44545 0
M  V30 END ATOM
M  V30 BEGIN BOND
M  V30 1 1 1 2
M  V30 2 2 2 3
M  V30 3 1 3 4
M  V30 4 2 4 5
M  V30 5 1 5 6
M  V30 6 2 6 7
M  V30 7 1 5 8
M  V30 8 2 8 9
M  V30 9 1 8 10
M  V30 10 1 10 11
M  V30 11 2 11 12
M  V30 12 1 12 13
M  V30 13 2 13 14
M  V30 14 1 14 15
M  V30 15 1 15 16
M  V30 16 2 16 17
M  V30 17 1 17 18
M  V30 18 1 12 19
M  V30 19 1 7 2
M  V30 20 1 17 13
M  V30 21 1 3 20
M  V30 22 1 4 21
M  V30 23 1 6 22
M  V30 24 1 7 23
M  V30 25 1 18 24
M  V30 26 1 18 25
M  V30 27 1 19 26
M  V30 28 1 19 27
M  V30 END BOND
M  V30 END CTAB
M  END
