
     RDKit          3D

  0  0  0  0  0  0  0  0  0  0999 V3000
M  V30 BEGIN CTAB
M  V30 COUNTS 31 31 0 0 0
M  V30 BEGIN ATOM
M  V30 1 O 0.0376214 -1.8281 -0.230422 0
M  V30 2 C 0.235913 -0.511559 0.192694 0
M  V30 3 C 1.68942 -0.143123 -0.0219679 0
M  V30 4 C 2.00222 1.11253 -0.444478 0
M  V30 5 C 3.33253 1.47955 -0.620569 0
M  V30 6 C 4.28859 0.528568 -0.349733 0
M  V30 7 N 3.95197 -0.701163 0.0645232 0
M  V30 8 C 2.67396 -1.0666 0.236686 0
M  V30 9 N 2.31621 -2.38198 0.659113 0
M  V30 10 C -0.620482 0.479862 -0.463693 0
M  V30 11 C -2.10365 0.257076 -0.305887 0
M  V30 12 N -2.51241 -1.0357 -0.835331 0
M  V30 13 C -2.64213 0.441637 1.05955 0
M  V30 14 C -2.76182 1.28777 -1.21774 0
M  V30 15 H -0.31107 -2.39249 0.532847 0
M  V30 16 H 0.102462 -0.482501 1.29241 0
M  V30 17 H 1.28035 1.8989 -0.678835 0
M  V30 18 H 3.59934 2.46029 -0.950102 0
M  V30 19 H 5.32549 0.793372 -0.478408 0
M  V30 20 H 2.14297 -3.16627 0.000765143 0
M  V30 21 H 2.22261 -2.5779 1.6724 0
M  V30 22 H -0.398524 0.581358 -1.53316 0
M  V30 23 H -0.437234 1.48324 0.0251501 0
M  V30 24 H -3.49665 -0.933912 -1.22166 0
M  V30 25 H -2.59559 -1.75134 -0.0667722 0
M  V30 26 H -2.5821 -0.477721 1.67031 0
M  V30 27 H -3.75165 0.63951 0.951781 0
M  V30 28 H -2.19182 1.28128 1.62582 0
M  V30 29 H -2.00331 1.90858 -1.76631 0
M  V30 30 H -3.37707 0.825311 -2.00849 0
M  V30 31 H -3.41615 1.99153 -0.671216 0
M  V30 END ATOM
M  V30 BEGIN BOND
M  V30 1 1 1 2
M  V30 2 1 2 3
M  V30 3 2 3 4
M  V30 4 1 4 5
M  V30 5 2 5 6
M  V30 6 1 6 7
M  V30 7 2 7 8
M  V30 8 1 8 9
M  V30 9 1 2 10
M  V30 10 1 10 11
M  V30 11 1 11 12
M  V30 12 1 11 13
M  V30 13 1 11 14
M  V30 14 1 8 3
M  V30 15 1 1 15
M  V30 16 1 2 16
M  V30 17 1 4 17
M  V30 18 1 5 18
M  V30 19 1 6 19
M  V30 20 1 9 20
M  V30 21 1 9 21
M  V30 22 1 10 22
M  V30 23 1 10 23
M  V30 24 1 12 24
M  V30 25 1 12 25
M  V30 26 1 13 26
M  V30 27 1 13 27
M  V30 28 1 13 28
M  V30 29 1 14 29
M  V30 30 1 14 30
M  V30 31 1 14 31
M  V30 END BOND
M  V30 END CTAB
M  END
