
     RDKit          3D

  0  0  0  0  0  0  0  0  0  0999 V3000
M  V30 BEGIN CTAB
M  V30 COUNTS 53 54 0 0 0
M  V30 BEGIN ATOM
M  V30 1 N -5.07803 1.00942 -2.51997 0
M  V30 2 C -5.75283 1.38003 -1.31012 0
M  V30 3 N -6.64401 2.40826 -1.3339 0
M  V30 4 C -7.29715 2.78752 -0.222005 0
M  V30 5 N -8.22961 3.86104 -0.240982 0
M  V30 6 C -7.02018 2.08557 0.939115 0
M  V30 7 Cl -7.86509 2.57268 2.38773 0
M  V30 8 N -6.14329 1.07025 0.973339 0
M  V30 9 C -5.47945 0.684227 -0.155656 0
M  V30 10 C -4.53238 -0.403278 -0.152415 0
M  V30 11 O -3.95646 -0.708224 -1.22384 0
M  V30 12 N -4.2239 -1.14804 1.02388 0
M  V30 13 C -3.30298 -2.2108 1.04319 0
M  V30 14 N -3.07676 -2.8376 2.13173 0
M  V30 15 N -2.61833 -2.59581 -0.139388 0
M  V30 16 C -1.26494 -2.14024 -0.406704 0
M  V30 17 C -0.269651 -2.74163 0.5426 0
M  V30 18 C 1.12819 -2.28109 0.244466 0
M  V30 19 C 1.27481 -0.801631 0.362731 0
M  V30 20 C 2.67341 -0.360006 0.0751606 0
M  V30 21 C 3.57401 -0.294326 1.10998 0
M  V30 22 C 4.88516 0.100348 0.939173 0
M  V30 23 C 5.30034 0.442776 -0.334022 0
M  V30 24 O 6.59492 0.852457 -0.617693 0
M  V30 25 C 7.61409 0.962221 0.344443 0
M  V30 26 C 8.8694 1.44092 -0.389853 0
M  V30 27 O 9.93349 1.581 0.469611 0
M  V30 28 C 4.40483 0.378114 -1.36542 0
M  V30 29 C 3.10194 -0.0153362 -1.18905 0
M  V30 30 H -5.35092 0.161178 -3.05814 0
M  V30 31 H -4.29897 1.57239 -2.89752 0
M  V30 32 H -7.89651 4.86228 -0.284716 0
M  V30 33 H -9.26632 3.72865 -0.213589 0
M  V30 34 H -4.71062 -0.881649 1.90288 0
M  V30 35 H -2.43957 -3.62139 2.28754 0
M  V30 36 H -3.10654 -3.22285 -0.830021 0
M  V30 37 H -1.21969 -1.02641 -0.351249 0
M  V30 38 H -0.988223 -2.41808 -1.44061 0
M  V30 39 H -0.523385 -2.39964 1.56909 0
M  V30 40 H -0.345799 -3.85148 0.451266 0
M  V30 41 H 1.34763 -2.62143 -0.809255 0
M  V30 42 H 1.80635 -2.81199 0.949357 0
M  V30 43 H 1.05034 -0.504365 1.40688 0
M  V30 44 H 0.625174 -0.282643 -0.385155 0
M  V30 45 H 3.27363 -0.559207 2.12726 0
M  V30 46 H 5.60538 0.158406 1.7341 0
M  V30 47 H 7.35602 1.67823 1.15842 0
M  V30 48 H 7.83234 -0.0343248 0.767604 0
M  V30 49 H 8.69159 2.39699 -0.908256 0
M  V30 50 H 9.07557 0.679075 -1.18585 0
M  V30 51 H 9.77355 1.28419 1.38694 0
M  V30 52 H 4.73467 0.650903 -2.37923 0
M  V30 53 H 2.37475 -0.0751692 -1.98387 0
M  V30 END ATOM
M  V30 BEGIN BOND
M  V30 1 1 1 2
M  V30 2 2 2 3
M  V30 3 1 3 4
M  V30 4 1 4 5
M  V30 5 2 4 6
M  V30 6 1 6 7
M  V30 7 1 6 8
M  V30 8 2 8 9
M  V30 9 1 9 10
M  V30 10 2 10 11
M  V30 11 1 10 12
M  V30 12 1 12 13
M  V30 13 2 13 14 CFG=2
M  V30 14 1 13 15
M  V30 15 1 15 16
M  V30 16 1 16 17
M  V30 17 1 17 18
M  V30 18 1 18 19
M  V30 19 1 19 20
M  V30 20 2 20 21
M  V30 21 1 21 22
M  V30 22 2 22 23
M  V30 23 1 23 24
M  V30 24 1 24 25
M  V30 25 1 25 26
M  V30 26 1 26 27
M  V30 27 1 23 28
M  V30 28 2 28 29
M  V30 29 1 9 2
M  V30 30 1 29 20
M  V30 31 1 1 30
M  V30 32 1 1 31
M  V30 33 1 5 32
M  V30 34 1 5 33
M  V30 35 1 12 34
M  V30 36 1 14 35
M  V30 37 1 15 36
M  V30 38 1 16 37
M  V30 39 1 16 38
M  V30 40 1 17 39
M  V30 41 1 17 40
M  V30 42 1 18 41
M  V30 43 1 18 42
M  V30 44 1 19 43
M  V30 45 1 19 44
M  V30 46 1 21 45
M  V30 47 1 22 46
M  V30 48 1 25 47
M  V30 49 1 25 48
M  V30 50 1 26 49
M  V30 51 1 26 50
M  V30 52 1 27 51
M  V30 53 1 28 52
M  V30 54 1 29 53
M  V30 END BOND
M  V30 END CTAB
M  END
