
     RDKit          3D

  0  0  0  0  0  0  0  0  0  0999 V3000
M  V30 BEGIN CTAB
M  V30 COUNTS 49 51 0 0 0
M  V30 BEGIN ATOM
M  V30 1 N -3.50992 -2.68816 0.0991095 0
M  V30 2 C -3.39175 -1.22634 0.0350414 0
M  V30 3 C -2.63705 -0.789279 1.24409 0
M  V30 4 C -2.07737 0.592695 1.15871 0
M  V30 5 C -3.18631 1.58013 0.998586 0
M  V30 6 C -3.04091 2.46087 -0.215129 0
M  V30 7 C -2.83235 1.68418 -1.48269 0
M  V30 8 C -2.01471 0.426866 -1.2753 0
M  V30 9 C -2.82751 -0.814377 -1.26296 0
M  V30 10 C -1.16748 0.631712 -0.0526443 0
M  V30 11 N -0.0573024 -0.258719 0.0485031 0
M  V30 12 C 1.2815 0.198574 0.0716384 0
M  V30 13 O 1.49016 1.43704 -0.000122915 0
M  V30 14 C 2.44965 -0.70009 0.175615 0
M  V30 15 N 1.94623 -2.07903 0.245164 0
M  V30 16 C 3.32858 -0.630411 -1.044 0
M  V30 17 C 4.1826 0.594785 -1.10314 0
M  V30 18 C 4.87817 0.921662 0.176422 0
M  V30 19 C 4.70183 -0.225426 1.14985 0
M  V30 20 C 3.23472 -0.463565 1.44834 0
M  V30 21 H -4.16327 -3.04285 -0.635127 0
M  V30 22 H -2.54021 -3.10911 -0.00483146 0
M  V30 23 H -4.4498 -0.848466 0.153551 0
M  V30 24 H -1.7753 -1.48571 1.46168 0
M  V30 25 H -3.32394 -0.866708 2.11786 0
M  V30 26 H -1.50828 0.784574 2.09337 0
M  V30 27 H -4.19944 1.1226 0.99429 0
M  V30 28 H -3.18808 2.27422 1.88655 0
M  V30 29 H -2.20871 3.18713 -0.0112348 0
M  V30 30 H -3.95815 3.07795 -0.284203 0
M  V30 31 H -3.82353 1.44362 -1.96018 0
M  V30 32 H -2.32068 2.38835 -2.20273 0
M  V30 33 H -1.31269 0.371408 -2.15071 0
M  V30 34 H -3.6818 -0.671019 -1.98525 0
M  V30 35 H -2.23708 -1.66635 -1.69646 0
M  V30 36 H -0.773468 1.67672 -0.104855 0
M  V30 37 H -0.261163 -1.29943 0.107636 0
M  V30 38 H 1.43003 -2.33188 -0.624293 0
M  V30 39 H 1.34655 -2.20401 1.10133 0
M  V30 40 H 2.70024 -0.704381 -1.9301 0
M  V30 41 H 3.99242 -1.52738 -1.02162 0
M  V30 42 H 4.97357 0.402807 -1.88047 0
M  V30 43 H 3.61921 1.48431 -1.51255 0
M  V30 44 H 5.97948 1.03821 0.0344563 0
M  V30 45 H 4.53702 1.87522 0.632848 0
M  V30 46 H 5.18362 -1.12334 0.745621 0
M  V30 47 H 5.18969 0.0391653 2.10849 0
M  V30 48 H 2.82598 0.394483 2.0114 0
M  V30 49 H 3.19703 -1.33324 2.14044 0
M  V30 END ATOM
M  V30 BEGIN BOND
M  V30 1 1 1 2
M  V30 2 1 2 3
M  V30 3 1 3 4
M  V30 4 1 4 5
M  V30 5 1 5 6
M  V30 6 1 6 7
M  V30 7 1 7 8
M  V30 8 1 8 9
M  V30 9 1 8 10
M  V30 10 1 10 11
M  V30 11 1 11 12
M  V30 12 2 12 13
M  V30 13 1 12 14
M  V30 14 1 14 15
M  V30 15 1 14 16
M  V30 16 1 16 17
M  V30 17 1 17 18
M  V30 18 1 18 19
M  V30 19 1 19 20
M  V30 20 1 9 2
M  V30 21 1 20 14
M  V30 22 1 10 4
M  V30 23 1 1 21
M  V30 24 1 1 22
M  V30 25 1 2 23
M  V30 26 1 3 24
M  V30 27 1 3 25
M  V30 28 1 4 26
M  V30 29 1 5 27
M  V30 30 1 5 28
M  V30 31 1 6 29
M  V30 32 1 6 30
M  V30 33 1 7 31
M  V30 34 1 7 32
M  V30 35 1 8 33
M  V30 36 1 9 34
M  V30 37 1 9 35
M  V30 38 1 10 36
M  V30 39 1 11 37
M  V30 40 1 15 38
M  V30 41 1 15 39
M  V30 42 1 16 40
M  V30 43 1 16 41
M  V30 44 1 17 42
M  V30 45 1 17 43
M  V30 46 1 18 44
M  V30 47 1 18 45
M  V30 48 1 19 46
M  V30 49 1 19 47
M  V30 50 1 20 48
M  V30 51 1 20 49
M  V30 END BOND
M  V30 END CTAB
M  END
