
     RDKit          3D

  0  0  0  0  0  0  0  0  0  0999 V3000
M  V30 BEGIN CTAB
M  V30 COUNTS 54 57 0 0 0
M  V30 BEGIN ATOM
M  V30 1 C -6.1321 -0.231396 -2.39336 0
M  V30 2 C -6.81137 0.043247 -1.13581 0
M  V30 3 C -6.15626 0.305198 0.0356866 0
M  V30 4 C -6.88526 0.565251 1.21314 0
M  V30 5 C -8.25742 0.565199 1.22691 0
M  V30 6 C -8.91474 0.301144 0.0470412 0
M  V30 7 C -8.20259 0.0475886 -1.09997 0
M  V30 8 C -4.70473 0.319323 0.0651385 0
M  V30 9 N -3.91804 0.0712607 -0.968797 0
M  V30 10 C -2.59557 0.0967754 -0.907108 0
M  V30 11 C -1.97924 0.395277 0.286295 0
M  V30 12 N -0.611028 0.430811 0.391652 0
M  V30 13 C 0.119103 0.165445 -0.705043 0
M  V30 14 C 1.58823 0.19177 -0.62751 0
M  V30 15 O 2.2543 -0.0674457 -1.65629 0
M  V30 16 N 2.23673 0.498648 0.564536 0
M  V30 17 C 3.66641 0.527253 0.693806 0
M  V30 18 C 4.26512 -0.827292 0.434172 0
M  V30 19 N 5.67087 -0.917395 0.537427 0
M  V30 20 C 6.26549 -0.761764 1.81618 0
M  V30 21 C 7.77338 -0.901193 1.76874 0
M  V30 22 O 8.18158 -1.30956 0.475778 0
M  V30 23 C 7.84328 -0.261131 -0.379166 0
M  V30 24 C 6.33508 -0.303609 -0.551907 0
M  V30 25 C -0.491576 -0.133654 -1.89978 0
M  V30 26 N 0.364705 -0.405737 -3.02325 0
M  V30 27 N -1.82802 -0.170937 -2.01349 0
M  V30 28 C -2.77066 0.657506 1.37782 0
M  V30 29 N -2.12848 0.967856 2.61981 0
M  V30 30 N -4.10236 0.616859 1.25564 0
M  V30 31 H -6.92548 -0.379936 -3.19542 0
M  V30 32 H -5.56494 0.656783 -2.79891 0
M  V30 33 H -5.55449 -1.17433 -2.44014 0
M  V30 34 H -6.31959 0.770231 2.128 0
M  V30 35 H -8.80054 0.770198 2.15516 0
M  V30 36 H -10.0167 0.300879 0.0560188 0
M  V30 37 H -8.74681 -0.161551 -2.03522 0
M  V30 38 H 1.66363 0.720864 1.41308 0
M  V30 39 H 3.96128 0.946035 1.66855 0
M  V30 40 H 4.12401 1.23077 -0.0671458 0
M  V30 41 H 3.84454 -1.54407 1.20953 0
M  V30 42 H 3.9426 -1.27238 -0.523359 0
M  V30 43 H 6.04001 0.251648 2.20154 0
M  V30 44 H 5.85396 -1.53076 2.50877 0
M  V30 45 H 8.08225 -1.62297 2.52911 0
M  V30 46 H 8.21172 0.107469 1.88765 0
M  V30 47 H 8.10913 0.703299 0.117399 0
M  V30 48 H 8.30393 -0.382315 -1.35764 0
M  V30 49 H 6.11607 -0.771719 -1.53278 0
M  V30 50 H 5.98887 0.755954 -0.648515 0
M  V30 51 H 0.660324 -1.37003 -3.26482 0
M  V30 52 H 0.703799 0.381262 -3.61863 0
M  V30 53 H -2.46205 1.723 3.25251 0
M  V30 54 H -1.29041 0.416366 2.90699 0
M  V30 END ATOM
M  V30 BEGIN BOND
M  V30 1 1 1 2
M  V30 2 2 2 3
M  V30 3 1 3 4
M  V30 4 2 4 5
M  V30 5 1 5 6
M  V30 6 2 6 7
M  V30 7 1 3 8
M  V30 8 2 8 9
M  V30 9 1 9 10
M  V30 10 2 10 11
M  V30 11 1 11 12
M  V30 12 2 12 13
M  V30 13 1 13 14
M  V30 14 2 14 15
M  V30 15 1 14 16
M  V30 16 1 16 17
M  V30 17 1 17 18
M  V30 18 1 18 19
M  V30 19 1 19 20
M  V30 20 1 20 21
M  V30 21 1 21 22
M  V30 22 1 22 23
M  V30 23 1 23 24
M  V30 24 1 13 25
M  V30 25 1 25 26
M  V30 26 2 25 27
M  V30 27 1 11 28
M  V30 28 1 28 29
M  V30 29 2 28 30
M  V30 30 1 7 2
M  V30 31 1 30 8
M  V30 32 1 27 10
M  V30 33 1 24 19
M  V30 34 1 1 31
M  V30 35 1 1 32
M  V30 36 1 1 33
M  V30 37 1 4 34
M  V30 38 1 5 35
M  V30 39 1 6 36
M  V30 40 1 7 37
M  V30 41 1 16 38
M  V30 42 1 17 39
M  V30 43 1 17 40
M  V30 44 1 18 41
M  V30 45 1 18 42
M  V30 46 1 20 43
M  V30 47 1 20 44
M  V30 48 1 21 45
M  V30 49 1 21 46
M  V30 50 1 23 47
M  V30 51 1 23 48
M  V30 52 1 24 49
M  V30 53 1 24 50
M  V30 54 1 26 51
M  V30 55 1 26 52
M  V30 56 1 29 53
M  V30 57 1 29 54
M  V30 END BOND
M  V30 END CTAB
M  END
