
     RDKit          3D

  0  0  0  0  0  0  0  0  0  0999 V3000
M  V30 BEGIN CTAB
M  V30 COUNTS 19 20 0 0 0
M  V30 BEGIN ATOM
M  V30 1 N -2.12411 -2.33258 -0.244103 0
M  V30 2 N -1.68755 -1.03615 -0.0443306 0
M  V30 3 C -0.329813 -0.627626 -0.0320641 0
M  V30 4 N 0.682439 -1.48142 -0.147264 0
M  V30 5 C 1.95943 -1.08365 -0.144362 0
M  V30 6 N 3.12807 -1.75219 -0.253559 0
M  V30 7 O 4.08043 -0.890161 -0.199915 0
M  V30 8 N 3.61897 0.312376 -0.0632216 0
M  V30 9 C 2.27893 0.252938 -0.0208139 0
M  V30 10 N 1.26972 1.12917 0.0967078 0
M  V30 11 C -0.00361577 0.71078 0.0927729 0
M  V30 12 N -1.06171 1.65936 0.197892 0
M  V30 13 N -1.17665 2.80978 -0.589557 0
M  V30 14 H -3.07958 -2.42587 -0.622891 0
M  V30 15 H -1.44311 -3.01413 -0.573598 0
M  V30 16 H -2.44733 -0.311864 0.125131 0
M  V30 17 H -1.82321 1.48058 0.907426 0
M  V30 18 H -1.563 3.5884 -0.028417 0
M  V30 19 H -0.278313 3.01226 -1.05029 0
M  V30 END ATOM
M  V30 BEGIN BOND
M  V30 1 1 1 2
M  V30 2 1 2 3
M  V30 3 2 3 4
M  V30 4 1 4 5
M  V30 5 2 5 6
M  V30 6 1 6 7
M  V30 7 1 7 8
M  V30 8 2 8 9
M  V30 9 1 9 10
M  V30 10 2 10 11
M  V30 11 1 11 12
M  V30 12 1 12 13
M  V30 13 1 11 3
M  V30 14 1 9 5
M  V30 15 1 1 14
M  V30 16 1 1 15
M  V30 17 1 2 16
M  V30 18 1 12 17
M  V30 19 1 13 18
M  V30 20 1 13 19
M  V30 END BOND
M  V30 END CTAB
M  END
