
     RDKit          3D

  0  0  0  0  0  0  0  0  0  0999 V3000
M  V30 BEGIN CTAB
M  V30 COUNTS 35 36 0 0 0
M  V30 BEGIN ATOM
M  V30 1 N 5.75627 -0.318795 -0.388755 0
M  V30 2 C 4.40873 -0.0226864 -0.0460257 0
M  V30 3 C 4.05487 1.09442 0.68243 0
M  V30 4 C 2.73368 1.36112 1.00629 0
M  V30 5 C 1.72867 0.514532 0.608198 0
M  V30 6 C 2.06619 -0.60187 -0.117341 0
M  V30 7 C 3.38984 -0.878081 -0.44698 0
M  V30 8 N 3.75153 -2.02034 -1.19407 0
M  V30 9 C 0.320821 0.739436 0.900769 0
M  V30 10 O -0.0748958 1.90065 1.06871 0
M  V30 11 N -0.53934 -0.384913 0.980305 0
M  V30 12 N -1.92251 -0.195762 1.25729 0
M  V30 13 N -2.39999 0.564336 0.182572 0
M  V30 14 C -3.54251 1.36228 0.542838 0
M  V30 15 C -4.79685 0.563164 0.692492 0
M  V30 16 O -4.88434 -0.587941 0.0239467 0
M  V30 17 C -3.98098 -0.983602 -0.883361 0
M  V30 18 C -2.69373 -0.245441 -0.973364 0
M  V30 19 H 6.20072 0.279789 -1.14041 0
M  V30 20 H 6.32284 -1.05712 0.0296443 0
M  V30 21 H 4.86406 1.76578 0.998522 0
M  V30 22 H 2.47778 2.25396 1.58436 0
M  V30 23 H 1.31281 -1.31264 -0.469485 0
M  V30 24 H 4.13421 -2.84366 -0.700059 0
M  V30 25 H 3.63978 -2.04554 -2.21732 0
M  V30 26 H -0.19745 -1.35253 0.845244 0
M  V30 27 H -1.94453 0.41817 2.10678 0
M  V30 28 H -3.28686 1.89503 1.48254 0
M  V30 29 H -3.66233 2.1367 -0.24176 0
M  V30 30 H -5.64878 1.22722 0.437533 0
M  V30 31 H -4.90846 0.355011 1.79049 0
M  V30 32 H -3.71926 -2.06388 -0.67193 0
M  V30 33 H -4.44671 -1.02095 -1.89179 0
M  V30 34 H -1.82684 -0.927655 -1.11444 0
M  V30 35 H -2.68645 0.431807 -1.85483 0
M  V30 END ATOM
M  V30 BEGIN BOND
M  V30 1 1 1 2
M  V30 2 2 2 3
M  V30 3 1 3 4
M  V30 4 2 4 5
M  V30 5 1 5 6
M  V30 6 2 6 7
M  V30 7 1 7 8
M  V30 8 1 5 9
M  V30 9 2 9 10
M  V30 10 1 9 11
M  V30 11 1 11 12
M  V30 12 1 12 13
M  V30 13 1 13 14
M  V30 14 1 14 15
M  V30 15 1 15 16
M  V30 16 1 16 17
M  V30 17 1 17 18
M  V30 18 1 7 2
M  V30 19 1 18 13
M  V30 20 1 1 19
M  V30 21 1 1 20
M  V30 22 1 3 21
M  V30 23 1 4 22
M  V30 24 1 6 23
M  V30 25 1 8 24
M  V30 26 1 8 25
M  V30 27 1 11 26
M  V30 28 1 12 27
M  V30 29 1 14 28
M  V30 30 1 14 29
M  V30 31 1 15 30
M  V30 32 1 15 31
M  V30 33 1 17 32
M  V30 34 1 17 33
M  V30 35 1 18 34
M  V30 36 1 18 35
M  V30 END BOND
M  V30 END CTAB
M  END
