
     RDKit          3D

  0  0  0  0  0  0  0  0  0  0999 V3000
M  V30 BEGIN CTAB
M  V30 COUNTS 42 44 0 0 0
M  V30 BEGIN ATOM
M  V30 1 O -1.90447 1.03738 -1.47184 0
M  V30 2 C -1.34359 -0.0182355 -1.1753 0
M  V30 3 N -0.491294 -0.151489 -0.0702425 0
M  V30 4 C -0.14891 0.84892 0.852876 0
M  V30 5 C -0.797642 2.05394 0.95938 0
M  V30 6 C -0.461576 2.97257 1.93102 0
M  V30 7 C 0.530798 2.70146 2.81538 0
M  V30 8 C 1.19804 1.49921 2.73033 0
M  V30 9 C 0.900305 0.551103 1.77837 0
M  V30 10 N 1.61552 -0.649899 1.62488 0
M  V30 11 C 2.49263 -1.21751 2.55592 0
M  V30 12 O 2.74675 -0.71832 3.67522 0
M  V30 13 C 3.21684 -2.51231 2.27112 0
M  V30 14 S 2.91469 -3.12291 0.602388 0
M  V30 15 C 3.70419 -1.97285 -0.542224 0
M  V30 16 N 3.75734 -2.00599 -1.86993 0
M  V30 17 N 4.36636 -1.09397 -2.49582 0
M  V30 18 C 4.95106 -0.105864 -1.82947 0
M  V30 19 S 4.59094 -0.535071 -0.215588 0
M  V30 20 N 5.68438 1.00834 -2.38334 0
M  V30 21 C -1.63168 -1.18312 -2.08705 0
M  V30 22 S -2.77976 -0.674254 -3.35419 0
M  V30 23 C -4.37429 -0.297474 -2.6083 0
M  V30 24 N -5.49323 0.115568 -3.19089 0
M  V30 25 N -6.52434 0.327313 -2.49525 0
M  V30 26 C -6.48873 0.136644 -1.18034 0
M  V30 27 S -4.87229 -0.374028 -0.965327 0
M  V30 28 N -7.54716 0.31844 -0.212612 0
M  V30 29 H -0.111189 -1.14041 0.0549409 0
M  V30 30 H -1.61707 2.30811 0.266853 0
M  V30 31 H -1.0334 3.89902 1.93404 0
M  V30 32 H 0.780165 3.44254 3.57693 0
M  V30 33 H 1.99659 1.33361 3.45492 0
M  V30 34 H 1.52654 -1.19732 0.719181 0
M  V30 35 H 4.30336 -2.3773 2.40238 0
M  V30 36 H 2.84644 -3.26151 2.996 0
M  V30 37 H 5.16835 1.89641 -2.56045 0
M  V30 38 H 6.702 0.899503 -2.59153 0
M  V30 39 H -1.9352 -2.07674 -1.53195 0
M  V30 40 H -0.66106 -1.41861 -2.56887 0
M  V30 41 H -7.29263 0.281507 0.784198 0
M  V30 42 H -8.48375 0.473593 -0.585808 0
M  V30 END ATOM
M  V30 BEGIN BOND
M  V30 1 2 1 2
M  V30 2 1 2 3
M  V30 3 1 3 4
M  V30 4 2 4 5
M  V30 5 1 5 6
M  V30 6 2 6 7
M  V30 7 1 7 8
M  V30 8 2 8 9
M  V30 9 1 9 10
M  V30 10 1 10 11
M  V30 11 2 11 12
M  V30 12 1 11 13
M  V30 13 1 13 14
M  V30 14 1 14 15
M  V30 15 2 15 16
M  V30 16 1 16 17
M  V30 17 2 17 18
M  V30 18 1 18 19
M  V30 19 1 18 20
M  V30 20 1 2 21
M  V30 21 1 21 22
M  V30 22 1 22 23
M  V30 23 2 23 24
M  V30 24 1 24 25
M  V30 25 2 25 26
M  V30 26 1 26 27
M  V30 27 1 26 28
M  V30 28 1 9 4
M  V30 29 1 19 15
M  V30 30 1 27 23
M  V30 31 1 3 29
M  V30 32 1 5 30
M  V30 33 1 6 31
M  V30 34 1 7 32
M  V30 35 1 8 33
M  V30 36 1 10 34
M  V30 37 1 13 35
M  V30 38 1 13 36
M  V30 39 1 20 37
M  V30 40 1 20 38
M  V30 41 1 21 39
M  V30 42 1 21 40
M  V30 43 1 28 41
M  V30 44 1 28 42
M  V30 END BOND
M  V30 END CTAB
M  END
