
     RDKit          3D

  0  0  0  0  0  0  0  0  0  0999 V3000
M  V30 BEGIN CTAB
M  V30 COUNTS 63 62 0 0 0
M  V30 BEGIN ATOM
M  V30 1 C -5.67446 0.788816 -3.9158 0
M  V30 2 C -5.96969 0.502204 -2.46738 0
M  V30 3 C -4.67082 0.425181 -1.72367 0 CFG=1
M  V30 4 C -3.8574 1.67508 -1.77879 0
M  V30 5 C -4.8393 -0.0258542 -0.288104 0 CFG=2
M  V30 6 N -5.67827 0.866315 0.448367 0
M  V30 7 C -6.9381 0.49856 0.997812 0
M  V30 8 O -7.3611 -0.674484 0.840038 0
M  V30 9 C -7.78028 1.45302 1.75646 0
M  V30 10 N -7.18652 2.75432 1.86557 0
M  V30 11 C -3.48561 -0.0822598 0.311095 0
M  V30 12 O -3.2323 0.607352 1.32866 0
M  V30 13 N -2.44479 -0.887266 -0.213359 0
M  V30 14 C -1.12839 -0.963479 0.340568 0 CFG=1
M  V30 15 C -0.823598 -2.36661 0.879402 0
M  V30 16 C -0.0690539 -0.668182 -0.652492 0
M  V30 17 O -0.412392 -0.395759 -1.8233 0
M  V30 18 N 1.2942 -0.686007 -0.317073 0
M  V30 19 C 2.2922 -0.394977 -1.30454 0
M  V30 20 C 3.65177 -0.480122 -0.694982 0
M  V30 21 O 3.71276 -0.77348 0.508127 0
M  V30 22 N 4.78367 -0.228066 -1.49884 0
M  V30 23 C 6.09511 -0.285773 -1.00917 0
M  V30 24 O 7.06922 -0.0518559 -1.7936 0
M  V30 25 C 6.38253 -0.611597 0.396878 0
M  V30 26 C 7.89048 -0.6202 0.602265 0
M  V30 27 C 8.26942 -0.946513 2.0216 0 CFG=2
M  V30 28 N 7.73092 0.00578406 2.9674 0
M  V30 29 C 9.75023 -0.964521 2.0929 0
M  V30 30 O 10.4623 -0.156967 2.96833 0
M  V30 31 O 10.3953 -1.73554 1.33747 0
M  V30 32 H -4.69648 0.335239 -4.16361 0
M  V30 33 H -5.56759 1.89128 -4.01224 0
M  V30 34 H -6.44866 0.384781 -4.60508 0
M  V30 35 H -6.64206 1.29169 -2.10354 0
M  V30 36 H -6.45389 -0.492697 -2.4203 0
M  V30 37 H -4.06294 -0.37954 -2.23363 0
M  V30 38 H -4.20564 2.36439 -0.98973 0
M  V30 39 H -2.78356 1.40176 -1.63668 0
M  V30 40 H -3.91326 2.19833 -2.7479 0
M  V30 41 H -5.32543 -1.03932 -0.347196 0
M  V30 42 H -5.36655 1.85274 0.604793 0
M  V30 43 H -8.71844 1.58434 1.14105 0
M  V30 44 H -8.10129 1.02606 2.70978 0
M  V30 45 H -6.34583 2.76336 2.45713 0
M  V30 46 H -7.09091 3.19096 0.939283 0
M  V30 47 H -2.66791 -1.46165 -1.06668 0
M  V30 48 H -1.07468 -0.297301 1.22908 0
M  V30 49 H -0.746447 -3.0316 -0.00282362 0
M  V30 50 H 0.199444 -2.30858 1.31513 0
M  V30 51 H -1.57395 -2.6974 1.60478 0
M  V30 52 H 1.58139 -0.910899 0.650756 0
M  V30 53 H 2.2544 -1.16936 -2.11893 0
M  V30 54 H 2.14303 0.602638 -1.79721 0
M  V30 55 H 4.61366 0.0153963 -2.52725 0
M  V30 56 H 5.99229 -1.62894 0.606617 0
M  V30 57 H 5.8938 0.0785406 1.12495 0
M  V30 58 H 8.2822 -1.42276 -0.0548519 0
M  V30 59 H 8.29755 0.360174 0.319693 0
M  V30 60 H 7.90925 -1.9603 2.303 0
M  V30 61 H 8.34753 0.102283 3.80384 0
M  V30 62 H 7.52422 0.925105 2.51787 0
M  V30 63 H 10.5187 0.854169 2.80886 0
M  V30 END ATOM
M  V30 BEGIN BOND
M  V30 1 1 1 2
M  V30 2 1 2 3
M  V30 3 1 3 4
M  V30 4 1 3 5
M  V30 5 1 5 6
M  V30 6 1 6 7
M  V30 7 2 7 8
M  V30 8 1 7 9
M  V30 9 1 9 10
M  V30 10 1 5 11
M  V30 11 2 11 12
M  V30 12 1 11 13
M  V30 13 1 13 14
M  V30 14 1 14 15
M  V30 15 1 14 16
M  V30 16 2 16 17
M  V30 17 1 16 18
M  V30 18 1 18 19
M  V30 19 1 19 20
M  V30 20 2 20 21
M  V30 21 1 20 22
M  V30 22 1 22 23
M  V30 23 2 23 24
M  V30 24 1 23 25
M  V30 25 1 25 26
M  V30 26 1 26 27
M  V30 27 1 27 28
M  V30 28 1 27 29
M  V30 29 1 29 30
M  V30 30 2 29 31
M  V30 31 1 1 32
M  V30 32 1 1 33
M  V30 33 1 1 34
M  V30 34 1 2 35
M  V30 35 1 2 36
M  V30 36 1 3 37 CFG=3
M  V30 37 1 4 38
M  V30 38 1 4 39
M  V30 39 1 4 40
M  V30 40 1 5 41 CFG=3
M  V30 41 1 6 42
M  V30 42 1 9 43
M  V30 43 1 9 44
M  V30 44 1 10 45
M  V30 45 1 10 46
M  V30 46 1 13 47
M  V30 47 1 14 48 CFG=1
M  V30 48 1 15 49
M  V30 49 1 15 50
M  V30 50 1 15 51
M  V30 51 1 18 52
M  V30 52 1 19 53
M  V30 53 1 19 54
M  V30 54 1 22 55
M  V30 55 1 25 56
M  V30 56 1 25 57
M  V30 57 1 26 58
M  V30 58 1 26 59
M  V30 59 1 27 60 CFG=1
M  V30 60 1 28 61
M  V30 61 1 28 62
M  V30 62 1 30 63
M  V30 END BOND
M  V30 END CTAB
M  END
