
     RDKit          3D

  0  0  0  0  0  0  0  0  0  0999 V3000
M  V30 BEGIN CTAB
M  V30 COUNTS 10 9 0 0 0
M  V30 BEGIN ATOM
M  V30 1 H -1.97646 0.85646 -0.162427 0 MASS=2
M  V30 2 N -1.77363 -0.0793212 -0.58027 0
M  V30 3 H -2.51862 -0.736948 -0.240947 0 MASS=2
M  V30 4 N -0.490241 -0.501958 -0.23711 0
M  V30 5 H -0.320186 -1.52422 -0.201182 0 MASS=2
M  V30 6 C 0.525352 0.441666 0.0470762 0
M  V30 7 S 0.193752 2.0395 -0.0268766 0
M  V30 8 N 1.8044 -0.0440019 0.388438 0
M  V30 9 H 2.39735 -0.468422 -0.342108 0 MASS=2
M  V30 10 H 2.15828 0.0172507 1.35541 0 MASS=2
M  V30 END ATOM
M  V30 BEGIN BOND
M  V30 1 1 1 2
M  V30 2 1 2 3
M  V30 3 1 2 4
M  V30 4 1 4 5
M  V30 5 1 4 6
M  V30 6 2 6 7
M  V30 7 1 6 8
M  V30 8 1 8 9
M  V30 9 1 8 10
M  V30 END BOND
M  V30 END CTAB
M  END
