
     RDKit          3D

  0  0  0  0  0  0  0  0  0  0999 V3000
M  V30 BEGIN CTAB
M  V30 COUNTS 46 45 0 0 0
M  V30 BEGIN ATOM
M  V30 1 N -7.69727 -0.147106 0.117025 0
M  V30 2 C -6.87407 0.70211 0.99292 0
M  V30 3 C -5.49428 0.795902 0.424324 0
M  V30 4 C -4.82219 -0.578339 0.304448 0
M  V30 5 C -3.45583 -0.288209 -0.2785 0
M  V30 6 N -2.64642 -1.47204 -0.471131 0
M  V30 7 C -1.38265 -1.09319 -1.04954 0
M  V30 8 C -0.503496 -0.300449 -0.11827 0
M  V30 9 C 0.800328 0.0884575 -0.804001 0
M  V30 10 C 1.62875 0.881805 0.193453 0
M  V30 11 N 2.86075 1.35344 -0.272367 0
M  V30 12 C 3.90684 0.454644 -0.570285 0
M  V30 13 C 4.41398 -0.167205 0.706951 0
M  V30 14 C 5.56521 -1.12385 0.496647 0
M  V30 15 C 6.72858 -0.404953 -0.121284 0
M  V30 16 N 7.12938 0.677533 0.77348 0
M  V30 17 H -8.69657 -0.0389163 0.421814 0
M  V30 18 H -7.57748 0.117912 -0.873465 0
M  V30 19 H -6.89184 0.331099 2.02049 0
M  V30 20 H -7.39881 1.67822 0.993035 0
M  V30 21 H -5.45565 1.3093 -0.555172 0
M  V30 22 H -4.89156 1.45294 1.11752 0
M  V30 23 H -5.43484 -1.14375 -0.456995 0
M  V30 24 H -4.79579 -1.08282 1.27788 0
M  V30 25 H -2.96747 0.418674 0.451193 0
M  V30 26 H -3.62183 0.200304 -1.26036 0
M  V30 27 H -3.1591 -2.06236 -1.18157 0
M  V30 28 H -1.49097 -0.524782 -1.99469 0
M  V30 29 H -0.801103 -2.01461 -1.32291 0
M  V30 30 H -0.958224 0.646621 0.234048 0
M  V30 31 H -0.223015 -0.954125 0.728065 0
M  V30 32 H 1.31315 -0.820229 -1.11445 0
M  V30 33 H 0.556567 0.767962 -1.65812 0
M  V30 34 H 1.04189 1.76247 0.568418 0
M  V30 35 H 1.76801 0.228863 1.10268 0
M  V30 36 H 3.01231 2.3495 -0.407132 0
M  V30 37 H 4.72102 0.906222 -1.18982 0
M  V30 38 H 3.55887 -0.418031 -1.20662 0
M  V30 39 H 3.53539 -0.72502 1.14366 0
M  V30 40 H 4.64349 0.643656 1.41169 0
M  V30 41 H 5.84883 -1.51583 1.49799 0
M  V30 42 H 5.21596 -1.95231 -0.149401 0
M  V30 43 H 7.5938 -1.12274 -0.204201 0
M  V30 44 H 6.49104 -0.0731263 -1.13126 0
M  V30 45 H 6.78484 1.60967 0.434834 0
M  V30 46 H 8.12149 0.646692 1.02953 0
M  V30 END ATOM
M  V30 BEGIN BOND
M  V30 1 1 1 2
M  V30 2 1 2 3
M  V30 3 1 3 4
M  V30 4 1 4 5
M  V30 5 1 5 6
M  V30 6 1 6 7
M  V30 7 1 7 8
M  V30 8 1 8 9
M  V30 9 1 9 10
M  V30 10 1 10 11
M  V30 11 1 11 12
M  V30 12 1 12 13
M  V30 13 1 13 14
M  V30 14 1 14 15
M  V30 15 1 15 16
M  V30 16 1 1 17
M  V30 17 1 1 18
M  V30 18 1 2 19
M  V30 19 1 2 20
M  V30 20 1 3 21
M  V30 21 1 3 22
M  V30 22 1 4 23
M  V30 23 1 4 24
M  V30 24 1 5 25
M  V30 25 1 5 26
M  V30 26 1 6 27
M  V30 27 1 7 28
M  V30 28 1 7 29
M  V30 29 1 8 30
M  V30 30 1 8 31
M  V30 31 1 9 32
M  V30 32 1 9 33
M  V30 33 1 10 34
M  V30 34 1 10 35
M  V30 35 1 11 36
M  V30 36 1 12 37
M  V30 37 1 12 38
M  V30 38 1 13 39
M  V30 39 1 13 40
M  V30 40 1 14 41
M  V30 41 1 14 42
M  V30 42 1 15 43
M  V30 43 1 15 44
M  V30 44 1 16 45
M  V30 45 1 16 46
M  V30 END BOND
M  V30 END CTAB
M  END
