
     RDKit          3D

  0  0  0  0  0  0  0  0  0  0999 V3000
M  V30 BEGIN CTAB
M  V30 COUNTS 67 69 0 0 0
M  V30 BEGIN ATOM
M  V30 1 C -2.29358 1.32205 0.72831 0 CFG=2
M  V30 2 C -2.27126 0.822771 2.19717 0
M  V30 3 C -2.90853 2.01691 2.85857 0
M  V30 4 C -3.65677 2.7554 1.77538 0
M  V30 5 N -3.59826 1.79324 0.654968 0
M  V30 6 C -4.69672 1.57289 -0.183631 0
M  V30 7 O -4.71342 0.796229 -1.18661 0
M  V30 8 N -5.97936 2.22138 -0.00504993 0
M  V30 9 S -7.32924 1.97557 -1.00921 0
M  V30 10 O -8.46973 2.85666 -0.575876 0
M  V30 11 O -7.05163 2.33088 -2.44524 0
M  V30 12 C -7.86383 0.317653 -0.860696 0
M  V30 13 C -7.50706 -0.686668 -1.73391 0
M  V30 14 C -7.96133 -1.99715 -1.56306 0
M  V30 15 C -8.77922 -2.32848 -0.51832 0
M  V30 16 C -9.26355 -3.73158 -0.343504 0
M  V30 17 C -9.15049 -1.34283 0.368978 0
M  V30 18 C -8.68949 -0.0329721 0.188248 0
M  V30 19 C -1.71454 0.374309 -0.151343 0
M  V30 20 O -2.31021 -0.327647 -0.963573 0
M  V30 21 N -0.272264 0.190309 -0.113047 0
M  V30 22 C 0.375073 -0.746994 -0.958416 0
M  V30 23 C 1.83737 -0.859019 -0.849709 0
M  V30 24 O 2.37126 -1.73028 -1.63195 0
M  V30 25 N 2.6293 -0.115646 0.00419167 0
M  V30 26 C 4.03348 -0.17579 0.168709 0
M  V30 27 C 4.82016 -1.21117 -0.21233 0
M  V30 28 C 6.21153 -1.17169 -0.0255722 0
M  V30 29 C 6.83588 -0.0914396 0.547411 0
M  V30 30 C 6.03997 0.964428 0.936703 0
M  V30 31 C 4.68294 0.913124 0.748491 0
M  V30 32 S 8.56968 -0.0597141 0.791382 0
M  V30 33 O 8.86802 0.838594 1.97414 0
M  V30 34 O 8.9948 -1.45652 1.15621 0
M  V30 35 N 9.43317 0.504646 -0.572932 0
M  V30 36 N 9.95639 -0.395545 -1.51764 0
M  V30 37 C 11.2188 -0.743732 -1.45084 0
M  V30 38 N 12.0623 -0.219086 -0.43418 0
M  V30 39 N 11.737 -1.65813 -2.40801 0
M  V30 40 H -1.61047 2.21614 0.779485 0
M  V30 41 H -1.23929 0.691765 2.53956 0
M  V30 42 H -2.91563 -0.0540085 2.2353 0
M  V30 43 H -2.14918 2.65528 3.36926 0
M  V30 44 H -3.67102 1.64593 3.60537 0
M  V30 45 H -3.01384 3.60885 1.43499 0
M  V30 46 H -4.65248 3.05044 2.06177 0
M  V30 47 H -6.0749 2.87983 0.789783 0
M  V30 48 H -6.87491 -0.458697 -2.56495 0
M  V30 49 H -7.67593 -2.78309 -2.25664 0
M  V30 50 H -8.42472 -4.35213 0.039673 0
M  V30 51 H -9.55324 -4.15176 -1.3288 0
M  V30 52 H -10.0833 -3.74461 0.385567 0
M  V30 53 H -9.79137 -1.58946 1.19166 0
M  V30 54 H -8.97533 0.753555 0.881203 0
M  V30 55 H 0.229775 0.784483 0.565223 0
M  V30 56 H -0.125672 -1.75147 -0.886481 0
M  V30 57 H 0.184274 -0.406611 -2.0259 0
M  V30 58 H 2.11052 0.595999 0.623252 0
M  V30 59 H 4.41293 -2.11613 -0.664012 0
M  V30 60 H 6.80432 -2.01811 -0.343216 0
M  V30 61 H 6.54583 1.81231 1.38712 0
M  V30 62 H 4.08167 1.74694 1.0586 0
M  V30 63 H 9.59925 1.53247 -0.746016 0
M  V30 64 H 11.7768 -0.276332 0.564714 0
M  V30 65 H 12.9722 0.226247 -0.686181 0
M  V30 66 H 11.1771 -2.44432 -2.81041 0
M  V30 67 H 12.7399 -1.53849 -2.72933 0
M  V30 END ATOM
M  V30 BEGIN BOND
M  V30 1 1 1 2
M  V30 2 1 2 3
M  V30 3 1 3 4
M  V30 4 1 4 5
M  V30 5 1 5 6
M  V30 6 2 6 7
M  V30 7 1 6 8
M  V30 8 1 8 9
M  V30 9 2 9 10
M  V30 10 2 9 11
M  V30 11 1 9 12
M  V30 12 2 12 13
M  V30 13 1 13 14
M  V30 14 2 14 15
M  V30 15 1 15 16
M  V30 16 1 15 17
M  V30 17 2 17 18
M  V30 18 1 1 19
M  V30 19 2 19 20
M  V30 20 1 19 21
M  V30 21 1 21 22
M  V30 22 1 22 23
M  V30 23 2 23 24
M  V30 24 1 23 25
M  V30 25 1 25 26
M  V30 26 2 26 27
M  V30 27 1 27 28
M  V30 28 2 28 29
M  V30 29 1 29 30
M  V30 30 2 30 31
M  V30 31 1 29 32
M  V30 32 2 32 33
M  V30 33 2 32 34
M  V30 34 1 32 35
M  V30 35 1 35 36
M  V30 36 2 36 37
M  V30 37 1 37 38
M  V30 38 1 37 39
M  V30 39 1 5 1
M  V30 40 1 18 12
M  V30 41 1 31 26
M  V30 42 1 1 40 CFG=1
M  V30 43 1 2 41
M  V30 44 1 2 42
M  V30 45 1 3 43
M  V30 46 1 3 44
M  V30 47 1 4 45
M  V30 48 1 4 46
M  V30 49 1 8 47
M  V30 50 1 13 48
M  V30 51 1 14 49
M  V30 52 1 16 50
M  V30 53 1 16 51
M  V30 54 1 16 52
M  V30 55 1 17 53
M  V30 56 1 18 54
M  V30 57 1 21 55
M  V30 58 1 22 56
M  V30 59 1 22 57
M  V30 60 1 25 58
M  V30 61 1 27 59
M  V30 62 1 28 60
M  V30 63 1 30 61
M  V30 64 1 31 62
M  V30 65 1 35 63
M  V30 66 1 38 64
M  V30 67 1 38 65
M  V30 68 1 39 66
M  V30 69 1 39 67
M  V30 END BOND
M  V30 END CTAB
M  END
