
     RDKit          3D

  0  0  0  0  0  0  0  0  0  0999 V3000
M  V30 BEGIN CTAB
M  V30 COUNTS 22 22 0 0 0
M  V30 BEGIN ATOM
M  V30 1 C 3.84949 0.580382 0.159238 0
M  V30 2 O 2.42859 0.591374 0.202051 0
M  V30 3 C 1.72631 -0.491819 -0.263999 0
M  V30 4 O 2.36602 -1.46378 -0.716059 0
M  V30 5 C 0.257773 -0.472641 -0.216254 0
M  V30 6 C -0.501537 -1.52627 -0.667532 0
M  V30 7 C -1.87965 -1.49432 -0.616475 0
M  V30 8 C -2.56317 -0.403421 -0.110034 0
M  V30 9 N -3.98413 -0.375667 -0.0596966 0
M  V30 10 C -1.79948 0.654024 0.342838 0
M  V30 11 C -0.410702 0.620594 0.290835 0
M  V30 12 N 0.37613 1.70355 0.754504 0
M  V30 13 H 4.22269 0.11924 1.11238 0
M  V30 14 H 4.1513 -0.0237465 -0.730557 0
M  V30 15 H 4.21148 1.61199 0.121404 0
M  V30 16 H 0.0410499 -2.39112 -1.06905 0
M  V30 17 H -2.47721 -2.33247 -0.975647 0
M  V30 18 H -4.49284 0.325583 -0.637938 0
M  V30 19 H -4.56675 -1.0139 0.521216 0
M  V30 20 H -2.2946 1.5304 0.748248 0
M  V30 21 H 0.522652 2.51021 0.116218 0
M  V30 22 H 0.81658 1.74181 1.69431 0
M  V30 END ATOM
M  V30 BEGIN BOND
M  V30 1 1 1 2
M  V30 2 1 2 3
M  V30 3 2 3 4
M  V30 4 1 3 5
M  V30 5 2 5 6
M  V30 6 1 6 7
M  V30 7 2 7 8
M  V30 8 1 8 9
M  V30 9 1 8 10
M  V30 10 2 10 11
M  V30 11 1 11 12
M  V30 12 1 11 5
M  V30 13 1 1 13
M  V30 14 1 1 14
M  V30 15 1 1 15
M  V30 16 1 6 16
M  V30 17 1 7 17
M  V30 18 1 9 18
M  V30 19 1 9 19
M  V30 20 1 10 20
M  V30 21 1 12 21
M  V30 22 1 12 22
M  V30 END BOND
M  V30 END CTAB
M  END
