
     RDKit          3D

  0  0  0  0  0  0  0  0  0  0999 V3000
M  V30 BEGIN CTAB
M  V30 COUNTS 45 47 0 0 0
M  V30 BEGIN ATOM
M  V30 1 C -0.944881 0.446493 2.40419 0
M  V30 2 C -0.236748 0.0638375 1.03921 0
M  V30 3 C 0.987624 -0.574337 1.51871 0
M  V30 4 C 2.01143 -1.1249 0.68043 0
M  V30 5 C 2.94601 -0.323552 0.0760062 0
M  V30 6 C 3.94614 -0.913294 -0.66002 0
M  V30 7 C 4.04684 -2.27768 -0.8145 0
M  V30 8 C 3.10699 -3.10159 -0.207713 0
M  V30 9 C 2.12366 -2.48119 0.518498 0
M  V30 10 C -0.0480398 1.38786 0.394963 0
M  V30 11 C -0.00472003 2.57248 1.12514 0
M  V30 12 C 0.169613 3.82252 0.535445 0
M  V30 13 C 0.302613 3.87675 -0.812442 0
M  V30 14 N 0.481044 5.15632 -1.41345 0
M  V30 15 C 0.268001 2.74672 -1.5767 0
M  V30 16 C 0.0913348 1.5073 -0.952697 0
M  V30 17 C -1.25952 -0.702711 0.338461 0
M  V30 18 C -2.60688 -0.688788 0.770246 0
M  V30 19 C -3.60038 -1.39667 0.137614 0
M  V30 20 C -3.33433 -2.16566 -0.962454 0
M  V30 21 N -4.36576 -2.91215 -1.63319 0
M  V30 22 C -2.03713 -2.19047 -1.39405 0
M  V30 23 C -1.03293 -1.48082 -0.762914 0
M  V30 24 H -1.62713 1.27453 2.24632 0
M  V30 25 H -0.12438 0.771596 3.04801 0
M  V30 26 H -1.35136 -0.476352 2.83117 0
M  V30 27 H 0.650238 -1.33331 2.31831 0
M  V30 28 H 1.51202 0.191495 2.19208 0
M  V30 29 H 2.93863 0.760833 0.149117 0
M  V30 30 H 4.71086 -0.299422 -1.15755 0
M  V30 31 H 4.84961 -2.68339 -1.40109 0
M  V30 32 H 3.16719 -4.18336 -0.316363 0
M  V30 33 H 1.38682 -3.14918 0.992879 0
M  V30 34 H -0.10289 2.55013 2.20051 0
M  V30 35 H 0.197638 4.72297 1.14017 0
M  V30 36 H 1.39423 5.63219 -1.1924 0
M  V30 37 H -0.232352 5.59406 -2.02565 0
M  V30 38 H 0.378609 2.85277 -2.64035 0
M  V30 39 H 0.0837119 0.68901 -1.64762 0
M  V30 40 H -2.89178 -0.0949833 1.63721 0
M  V30 41 H -4.60767 -1.34978 0.508652 0
M  V30 42 H -4.89885 -2.4931 -2.42429 0
M  V30 43 H -4.61644 -3.88513 -1.3586 0
M  V30 44 H -1.78087 -2.79408 -2.27309 0
M  V30 45 H -0.0458089 -1.54395 -1.17621 0
M  V30 END ATOM
M  V30 BEGIN BOND
M  V30 1 1 1 2
M  V30 2 1 2 3
M  V30 3 1 3 4
M  V30 4 2 4 5
M  V30 5 1 5 6
M  V30 6 2 6 7
M  V30 7 1 7 8
M  V30 8 2 8 9
M  V30 9 1 2 10
M  V30 10 2 10 11
M  V30 11 1 11 12
M  V30 12 2 12 13
M  V30 13 1 13 14
M  V30 14 1 13 15
M  V30 15 2 15 16
M  V30 16 1 2 17
M  V30 17 2 17 18
M  V30 18 1 18 19
M  V30 19 2 19 20
M  V30 20 1 20 21
M  V30 21 1 20 22
M  V30 22 2 22 23
M  V30 23 1 9 4
M  V30 24 1 16 10
M  V30 25 1 23 17
M  V30 26 1 1 24
M  V30 27 1 1 25
M  V30 28 1 1 26
M  V30 29 1 3 27
M  V30 30 1 3 28
M  V30 31 1 5 29
M  V30 32 1 6 30
M  V30 33 1 7 31
M  V30 34 1 8 32
M  V30 35 1 9 33
M  V30 36 1 11 34
M  V30 37 1 12 35
M  V30 38 1 14 36
M  V30 39 1 14 37
M  V30 40 1 15 38
M  V30 41 1 16 39
M  V30 42 1 18 40
M  V30 43 1 19 41
M  V30 44 1 21 42
M  V30 45 1 21 43
M  V30 46 1 22 44
M  V30 47 1 23 45
M  V30 END BOND
M  V30 END CTAB
M  END
