
     RDKit          3D

  0  0  0  0  0  0  0  0  0  0999 V3000
M  V30 BEGIN CTAB
M  V30 COUNTS 30 31 0 0 0
M  V30 BEGIN ATOM
M  V30 1 N 4.10585 0.891353 -1.53668 0
M  V30 2 C 3.78552 -0.497588 -1.02432 0
M  V30 3 C 2.34831 -0.417832 -0.577793 0
M  V30 4 C 1.26025 -0.29897 -1.39472 0
M  V30 5 N 0.0517311 -0.16928 -0.862285 0
M  V30 6 C -0.16135 -0.154664 0.509672 0
M  V30 7 C -1.51443 0.269869 1.04245 0
M  V30 8 C -2.33526 0.554293 -0.207841 0
M  V30 9 C -3.69304 1.1859 -0.0581037 0
M  V30 10 C -4.26705 -0.211636 0.263866 0
M  V30 11 C -3.09504 -0.786583 -0.551927 0
M  V30 12 N 0.912896 -0.282101 1.28401 0
M  V30 13 C 2.15545 -0.410298 0.805606 0
M  V30 14 N 3.33806 -0.462282 1.6203 0
M  V30 15 H 5.00971 1.14776 -1.01746 0
M  V30 16 H 3.37322 1.47085 -0.91045 0
M  V30 17 H 3.74776 -1.11363 -2.00853 0
M  V30 18 H 4.45964 -0.934105 -0.388632 0
M  V30 19 H 1.44704 -0.343088 -2.48119 0
M  V30 20 H -1.951 -0.563748 1.60987 0
M  V30 21 H -1.44983 1.1262 1.71673 0
M  V30 22 H -1.76112 0.827801 -1.07478 0
M  V30 23 H -3.83105 1.93963 0.703494 0
M  V30 24 H -4.01938 1.52823 -1.08346 0
M  V30 25 H -4.23022 -0.477603 1.31793 0
M  V30 26 H -5.25976 -0.417983 -0.188011 0
M  V30 27 H -2.62332 -1.6534 -0.0955331 0
M  V30 28 H -3.34467 -0.86168 -1.61663 0
M  V30 29 H 3.51738 0.325753 2.30489 0
M  V30 30 H 4.02372 -1.21117 1.5617 0
M  V30 END ATOM
M  V30 BEGIN BOND
M  V30 1 1 1 2
M  V30 2 1 2 3
M  V30 3 2 3 4
M  V30 4 1 4 5
M  V30 5 2 5 6
M  V30 6 1 6 7
M  V30 7 1 7 8
M  V30 8 1 8 9
M  V30 9 1 9 10
M  V30 10 1 10 11
M  V30 11 1 6 12
M  V30 12 2 12 13
M  V30 13 1 13 14
M  V30 14 1 13 3
M  V30 15 1 11 8
M  V30 16 1 1 15
M  V30 17 1 1 16
M  V30 18 1 2 17
M  V30 19 1 2 18
M  V30 20 1 4 19
M  V30 21 1 7 20
M  V30 22 1 7 21
M  V30 23 1 8 22
M  V30 24 1 9 23
M  V30 25 1 9 24
M  V30 26 1 10 25
M  V30 27 1 10 26
M  V30 28 1 11 27
M  V30 29 1 11 28
M  V30 30 1 14 29
M  V30 31 1 14 30
M  V30 END BOND
M  V30 END CTAB
M  END
