
     RDKit          3D

  0  0  0  0  0  0  0  0  0  0999 V3000
M  V30 BEGIN CTAB
M  V30 COUNTS 26 26 0 0 0
M  V30 BEGIN ATOM
M  V30 1 C 2.11736 -1.83416 0.180636 0
M  V30 2 C 1.84943 -0.490134 0.717974 0
M  V30 3 N 1.01214 0.367263 -0.108197 0
M  V30 4 C 1.46094 1.22939 -1.14776 0
M  V30 5 O 2.6774 1.3003 -1.46665 0
M  V30 6 N 0.33868 1.89985 -1.6651 0
M  V30 7 C -0.722628 1.53849 -1.05604 0
M  V30 8 C -0.391669 0.540797 -0.0201635 0
M  V30 9 C -0.80502 1.06098 1.36447 0
M  V30 10 C -1.22904 -0.672624 -0.370097 0
M  V30 11 N -1.02215 -1.81878 0.447753 0
M  V30 12 N -2.06669 2.01266 -1.31345 0
M  V30 13 H 3.23573 -1.9481 0.0471417 0
M  V30 14 H 1.72335 -2.03338 -0.832475 0
M  V30 15 H 1.87009 -2.63602 0.914721 0
M  V30 16 H 1.33232 -0.613242 1.71848 0
M  V30 17 H 2.80563 0.00719508 0.988649 0
M  V30 18 H -1.76751 1.56161 1.26036 0
M  V30 19 H -0.0104465 1.72007 1.71135 0
M  V30 20 H -0.915881 0.185578 2.00033 0
M  V30 21 H -2.2944 -0.34323 -0.25591 0
M  V30 22 H -1.09291 -0.88878 -1.45705 0
M  V30 23 H -1.68296 -1.77476 1.2566 0
M  V30 24 H -1.29913 -2.66906 -0.0936015 0
M  V30 25 H -2.34556 3.00639 -1.30077 0
M  V30 26 H -2.77709 1.2917 -1.5212 0
M  V30 END ATOM
M  V30 BEGIN BOND
M  V30 1 1 1 2
M  V30 2 1 2 3
M  V30 3 1 3 4
M  V30 4 2 4 5
M  V30 5 1 4 6
M  V30 6 2 6 7
M  V30 7 1 7 8
M  V30 8 1 8 9
M  V30 9 1 8 10
M  V30 10 1 10 11
M  V30 11 1 7 12
M  V30 12 1 8 3
M  V30 13 1 1 13
M  V30 14 1 1 14
M  V30 15 1 1 15
M  V30 16 1 2 16
M  V30 17 1 2 17
M  V30 18 1 9 18
M  V30 19 1 9 19
M  V30 20 1 9 20
M  V30 21 1 10 21
M  V30 22 1 10 22
M  V30 23 1 11 23
M  V30 24 1 11 24
M  V30 25 1 12 25
M  V30 26 1 12 26
M  V30 END BOND
M  V30 END CTAB
M  END
