
     RDKit          3D

  0  0  0  0  0  0  0  0  0  0999 V3000
M  V30 BEGIN CTAB
M  V30 COUNTS 31 32 0 0 0
M  V30 BEGIN ATOM
M  V30 1 N -3.51414 -1.47351 -1.39628 0
M  V30 2 C -3.40087 -0.315674 -0.580696 0
M  V30 3 N -4.3769 0.564717 -0.210889 0
M  V30 4 N -3.88382 1.47721 0.633182 0
M  V30 5 C -2.55264 1.17133 0.815622 0
M  V30 6 C -2.2385 0.0667097 0.0648345 0
M  V30 7 C -0.877669 -0.470409 -0.21903 0
M  V30 8 C -0.127277 -0.804676 1.07666 0
M  V30 9 C 1.22715 -1.36715 0.53836 0
M  V30 10 N 1.96734 -0.151567 0.33621 0
M  V30 11 C 1.38016 0.762831 -0.523419 0
M  V30 12 C -0.0518791 0.701273 -0.783691 0
M  V30 13 S 3.50814 -0.0212056 0.938559 0
M  V30 14 O 3.72743 0.987809 2.01166 0
M  V30 15 O 3.93507 -1.35449 1.62325 0
M  V30 16 N 4.6713 0.245155 -0.348778 0
M  V30 17 H -3.48173 -2.39859 -0.880315 0
M  V30 18 H -3.6303 -1.43045 -2.39258 0
M  V30 19 H -4.35518 2.29103 1.10742 0
M  V30 20 H -1.8547 1.71529 1.44632 0
M  V30 21 H -0.860231 -1.26031 -0.964862 0
M  V30 22 H 0.0222348 0.0954421 1.65968 0
M  V30 23 H -0.669283 -1.62456 1.62899 0
M  V30 24 H 1.69518 -2.00658 1.24822 0
M  V30 25 H 1.05123 -1.84944 -0.431275 0
M  V30 26 H 1.91167 0.663359 -1.52027 0
M  V30 27 H 1.69628 1.76722 -0.187329 0
M  V30 28 H -0.371306 0.792361 -1.8399 0
M  V30 29 H -0.546356 1.62443 -0.313867 0
M  V30 30 H 5.6093 0.47441 0.0632566 0
M  V30 31 H 4.39031 1.12804 -0.865424 0
M  V30 END ATOM
M  V30 BEGIN BOND
M  V30 1 1 1 2
M  V30 2 2 2 3
M  V30 3 1 3 4
M  V30 4 1 4 5
M  V30 5 2 5 6
M  V30 6 1 6 7
M  V30 7 1 7 8
M  V30 8 1 8 9
M  V30 9 1 9 10
M  V30 10 1 10 11
M  V30 11 1 11 12
M  V30 12 1 10 13
M  V30 13 2 13 14
M  V30 14 2 13 15
M  V30 15 1 13 16
M  V30 16 1 6 2
M  V30 17 1 12 7
M  V30 18 1 1 17
M  V30 19 1 1 18
M  V30 20 1 4 19
M  V30 21 1 5 20
M  V30 22 1 7 21
M  V30 23 1 8 22
M  V30 24 1 8 23
M  V30 25 1 9 24
M  V30 26 1 9 25
M  V30 27 1 11 26
M  V30 28 1 11 27
M  V30 29 1 12 28
M  V30 30 1 12 29
M  V30 31 1 16 30
M  V30 32 1 16 31
M  V30 END BOND
M  V30 END CTAB
M  END
