
     RDKit          3D

  0  0  0  0  0  0  0  0  0  0999 V3000
M  V30 BEGIN CTAB
M  V30 COUNTS 30 31 0 0 0
M  V30 BEGIN ATOM
M  V30 1 N 4.17371 -0.0141418 -0.878628 0
M  V30 2 C 3.93448 -0.0180152 0.521016 0
M  V30 3 N 4.8154 -0.723477 1.40966 0
M  V30 4 N 2.91162 0.62562 0.962213 0
M  V30 5 N 2.08825 1.2922 0.0706886 0
M  V30 6 S 0.39913 1.58221 0.424221 0
M  V30 7 O 0.0316612 2.8732 -0.260512 0
M  V30 8 O 0.33315 1.704 1.92147 0
M  V30 9 C -0.491094 0.217855 -0.187904 0
M  V30 10 C -1.869 0.224352 -0.00868141 0
M  V30 11 C -2.50755 1.26416 0.631239 0
M  V30 12 C -3.88281 1.22791 0.788127 0
M  V30 13 C -4.58395 0.139286 0.293861 0
M  V30 14 C -3.95603 -0.902849 -0.34582 0
M  V30 15 C -2.56525 -0.869017 -0.505966 0
M  V30 16 C -1.92887 -1.91176 -1.14598 0
M  V30 17 C -0.561196 -1.87022 -1.29801 0
M  V30 18 C 0.160377 -0.809801 -0.821664 0
M  V30 19 H 4.17867 -0.884881 -1.44529 0
M  V30 20 H 4.34832 0.896913 -1.33949 0
M  V30 21 H 5.50124 -0.137527 1.92998 0
M  V30 22 H 4.73851 -1.74305 1.49547 0
M  V30 23 H 2.48719 1.62688 -0.829446 0
M  V30 24 H -1.90066 2.07667 0.990902 0
M  V30 25 H -4.41388 2.02344 1.28312 0
M  V30 26 H -5.66055 0.12223 0.422702 0
M  V30 27 H -4.48142 -1.76052 -0.738655 0
M  V30 28 H -2.48914 -2.75245 -1.5252 0
M  V30 29 H -0.0349254 -2.69854 -1.80901 0
M  V30 30 H 1.22462 -0.800679 -0.952387 0
M  V30 END ATOM
M  V30 BEGIN BOND
M  V30 1 1 1 2
M  V30 2 1 2 3
M  V30 3 2 2 4
M  V30 4 1 4 5
M  V30 5 1 5 6
M  V30 6 2 6 7
M  V30 7 2 6 8
M  V30 8 1 6 9
M  V30 9 2 9 10
M  V30 10 1 10 11
M  V30 11 2 11 12
M  V30 12 1 12 13
M  V30 13 2 13 14
M  V30 14 1 14 15
M  V30 15 2 15 16
M  V30 16 1 16 17
M  V30 17 2 17 18
M  V30 18 1 18 9
M  V30 19 1 15 10
M  V30 20 1 1 19
M  V30 21 1 1 20
M  V30 22 1 3 21
M  V30 23 1 3 22
M  V30 24 1 5 23
M  V30 25 1 11 24
M  V30 26 1 12 25
M  V30 27 1 13 26
M  V30 28 1 14 27
M  V30 29 1 16 28
M  V30 30 1 17 29
M  V30 31 1 18 30
M  V30 END BOND
M  V30 END CTAB
M  END
