
     RDKit          3D

  0  0  0  0  0  0  0  0  0  0999 V3000
M  V30 BEGIN CTAB
M  V30 COUNTS 39 40 0 0 0
M  V30 BEGIN ATOM
M  V30 1 N 7.26489 -0.471561 -0.139541 0
M  V30 2 C 6.16757 0.381536 -0.511183 0
M  V30 3 C 4.90484 -0.422376 -0.409383 0
M  V30 4 O 4.9494 -1.60509 -0.0538716 0
M  V30 5 N 3.6894 0.195377 -0.724011 0
M  V30 6 C 2.38666 -0.441859 -0.670226 0
M  V30 7 C 2.05969 -0.891959 0.711013 0
M  V30 8 C 0.733286 -1.53586 0.889756 0
M  V30 9 C -0.405807 -0.639263 0.62915 0
M  V30 10 C -0.428419 0.708292 0.411892 0
M  V30 11 C -1.75249 1.09876 0.191966 0
M  V30 12 N -2.49224 -0.0198975 0.28265 0
M  V30 13 N -1.71326 -1.05409 0.540298 0
M  V30 14 C -3.91137 -0.0362196 0.116638 0
M  V30 15 C -4.44098 0.613318 -1.00141 0
M  V30 16 C -5.79857 0.651522 -1.24692 0
M  V30 17 C -6.62092 0.0181224 -0.338088 0
M  V30 18 C -6.12788 -0.633773 0.778798 0
M  V30 19 C -4.76383 -0.649337 0.988719 0
M  V30 20 N -2.15808 2.43849 -0.0703314 0
M  V30 21 H 6.93058 -1.1729 0.549085 0
M  V30 22 H 8.01277 0.15131 0.255617 0
M  V30 23 H 6.28817 0.723652 -1.56269 0
M  V30 24 H 6.07449 1.28184 0.128759 0
M  V30 25 H 3.70049 1.21822 -1.03043 0
M  V30 26 H 1.61929 0.167607 -1.14094 0
M  V30 27 H 2.51063 -1.34353 -1.36791 0
M  V30 28 H 2.83745 -1.63048 1.04943 0
M  V30 29 H 2.18026 -0.0212805 1.40475 0
M  V30 30 H 0.687977 -2.40285 0.159134 0
M  V30 31 H 0.595653 -1.95319 1.91808 0
M  V30 32 H 0.419048 1.37261 0.418883 0
M  V30 33 H -3.75274 1.09476 -1.68363 0
M  V30 34 H -6.16685 1.1654 -2.12458 0
M  V30 35 H -7.68918 0.0355119 -0.51087 0
M  V30 36 H -6.81172 -1.12821 1.48256 0
M  V30 37 H -4.36377 -1.16166 1.86819 0
M  V30 38 H -2.77162 2.97803 0.579626 0
M  V30 39 H -1.84284 2.92102 -0.939062 0
M  V30 END ATOM
M  V30 BEGIN BOND
M  V30 1 1 1 2
M  V30 2 1 2 3
M  V30 3 2 3 4
M  V30 4 1 3 5
M  V30 5 1 5 6
M  V30 6 1 6 7
M  V30 7 1 7 8
M  V30 8 1 8 9
M  V30 9 1 9 10
M  V30 10 2 10 11
M  V30 11 1 11 12
M  V30 12 1 12 13
M  V30 13 1 12 14
M  V30 14 2 14 15
M  V30 15 1 15 16
M  V30 16 2 16 17
M  V30 17 1 17 18
M  V30 18 2 18 19
M  V30 19 1 11 20
M  V30 20 2 13 9
M  V30 21 1 19 14
M  V30 22 1 1 21
M  V30 23 1 1 22
M  V30 24 1 2 23
M  V30 25 1 2 24
M  V30 26 1 5 25
M  V30 27 1 6 26
M  V30 28 1 6 27
M  V30 29 1 7 28
M  V30 30 1 7 29
M  V30 31 1 8 30
M  V30 32 1 8 31
M  V30 33 1 10 32
M  V30 34 1 15 33
M  V30 35 1 16 34
M  V30 36 1 17 35
M  V30 37 1 18 36
M  V30 38 1 19 37
M  V30 39 1 20 38
M  V30 40 1 20 39
M  V30 END BOND
M  V30 END CTAB
M  END
