
     RDKit          3D

  0  0  0  0  0  0  0  0  0  0999 V3000
M  V30 BEGIN CTAB
M  V30 COUNTS 36 37 0 0 0
M  V30 BEGIN ATOM
M  V30 1 N 4.48816 0.952467 -1.49934 0
M  V30 2 C 3.58262 0.583172 -0.473263 0
M  V30 3 N 4.02191 0.449507 0.79116 0
M  V30 4 C 3.17296 0.0996497 1.77357 0
M  V30 5 C 1.82399 -0.131968 1.50773 0
M  V30 6 C 1.34449 -0.00302558 0.223059 0
M  V30 7 C 2.23929 0.355139 -0.752765 0
M  V30 8 C -0.0660101 -0.23136 -0.147378 0 CFG=1
M  V30 9 C -0.265228 -1.68221 -0.333601 0
M  V30 10 C -1.38617 -2.31302 0.408586 0
M  V30 11 C -2.74437 -2.02178 -0.220754 0
M  V30 12 C -2.76874 -0.528607 -0.473975 0
M  V30 13 C -2.28303 0.138133 0.774719 0
M  V30 14 N -0.890477 0.414936 0.825587 0
M  V30 15 S -0.739427 2.13612 0.525129 0
M  V30 16 O -1.64759 2.88484 1.46286 0
M  V30 17 O 0.644055 2.6189 0.710287 0
M  V30 18 N -1.33241 2.42277 -1.07684 0
M  V30 19 H 4.38871 1.8509 -2.00611 0
M  V30 20 H 5.26446 0.321734 -1.75404 0
M  V30 21 H 3.58341 0.00640833 2.77664 0
M  V30 22 H 1.1971 -0.407764 2.33143 0
M  V30 23 H 1.96137 0.483931 -1.80185 0
M  V30 24 H -0.240502 0.315401 -1.10377 0
M  V30 25 H -0.432717 -1.89793 -1.43047 0
M  V30 26 H 0.663112 -2.28441 -0.0972253 0
M  V30 27 H -1.36868 -2.13541 1.48837 0
M  V30 28 H -1.26036 -3.432 0.289553 0
M  V30 29 H -2.89914 -2.58987 -1.1402 0
M  V30 30 H -3.5031 -2.25143 0.551418 0
M  V30 31 H -3.82516 -0.223516 -0.719565 0
M  V30 32 H -2.17359 -0.32863 -1.36256 0
M  V30 33 H -2.53746 -0.478275 1.68696 0
M  V30 34 H -2.92452 1.06093 0.907701 0
M  V30 35 H -2.33911 2.72618 -1.0735 0
M  V30 36 H -0.747838 3.12009 -1.56754 0
M  V30 END ATOM
M  V30 BEGIN BOND
M  V30 1 1 1 2
M  V30 2 2 2 3
M  V30 3 1 3 4
M  V30 4 2 4 5
M  V30 5 1 5 6
M  V30 6 2 6 7
M  V30 7 1 6 8
M  V30 8 1 8 9
M  V30 9 1 9 10
M  V30 10 1 10 11
M  V30 11 1 11 12
M  V30 12 1 12 13
M  V30 13 1 13 14
M  V30 14 1 14 15
M  V30 15 2 15 16
M  V30 16 2 15 17
M  V30 17 1 15 18
M  V30 18 1 7 2
M  V30 19 1 14 8
M  V30 20 1 1 19
M  V30 21 1 1 20
M  V30 22 1 4 21
M  V30 23 1 5 22
M  V30 24 1 7 23
M  V30 25 1 8 24 CFG=3
M  V30 26 1 9 25
M  V30 27 1 9 26
M  V30 28 1 10 27
M  V30 29 1 10 28
M  V30 30 1 11 29
M  V30 31 1 11 30
M  V30 32 1 12 31
M  V30 33 1 12 32
M  V30 34 1 13 33
M  V30 35 1 13 34
M  V30 36 1 18 35
M  V30 37 1 18 36
M  V30 END BOND
M  V30 END CTAB
M  END
