
     RDKit          3D

  0  0  0  0  0  0  0  0  0  0999 V3000
M  V30 BEGIN CTAB
M  V30 COUNTS 19 19 0 0 0
M  V30 BEGIN ATOM
M  V30 1 C -2.36939 1.00574 0.0808509 0
M  V30 2 C -0.954896 0.554702 0.041 0
M  V30 3 C 0.077409 1.47018 0.0865158 0
M  V30 4 C 1.39878 1.07543 0.050866 0
M  V30 5 Br 2.82146 2.37261 0.115727 0
M  V30 6 C 1.7549 -0.264622 -0.0327 0
M  V30 7 N 3.1184 -0.620158 -0.0663931 0
M  V30 8 C 0.716132 -1.16812 -0.0774375 0
M  V30 9 C -0.606828 -0.777982 -0.0420451 0
M  V30 10 N -1.65925 -1.7321 -0.0897123 0
M  V30 11 H -2.45582 1.9888 0.61173 0
M  V30 12 H -2.79293 1.17494 -0.930154 0
M  V30 13 H -3.02653 0.262111 0.595341 0
M  V30 14 H -0.174926 2.52672 0.15213 0
M  V30 15 H 3.57288 -1.11169 0.717116 0
M  V30 16 H 3.67797 -0.381786 -0.898976 0
M  V30 17 H 0.983018 -2.21373 -0.142545 0
M  V30 18 H -2.11027 -2.01428 -0.986971 0
M  V30 19 H -1.97011 -2.14676 0.815657 0
M  V30 END ATOM
M  V30 BEGIN BOND
M  V30 1 1 1 2
M  V30 2 2 2 3
M  V30 3 1 3 4
M  V30 4 1 4 5
M  V30 5 2 4 6
M  V30 6 1 6 7
M  V30 7 1 6 8
M  V30 8 2 8 9
M  V30 9 1 9 10
M  V30 10 1 9 2
M  V30 11 1 1 11
M  V30 12 1 1 12
M  V30 13 1 1 13
M  V30 14 1 3 14
M  V30 15 1 7 15
M  V30 16 1 7 16
M  V30 17 1 8 17
M  V30 18 1 10 18
M  V30 19 1 10 19
M  V30 END BOND
M  V30 END CTAB
M  END
