
     RDKit          3D

  0  0  0  0  0  0  0  0  0  0999 V3000
M  V30 BEGIN CTAB
M  V30 COUNTS 61 64 0 0 0
M  V30 BEGIN ATOM
M  V30 1 C -3.73848 -1.85353 -1.53863 0
M  V30 2 C -3.60961 -1.04502 -0.273873 0 CFG=1
M  V30 3 N -2.32127 -0.34861 -0.250589 0
M  V30 4 C -1.12848 -1.12006 -0.297439 0
M  V30 5 N -1.18075 -2.45732 -0.361545 0
M  V30 6 C -0.0664327 -3.22518 -0.407798 0
M  V30 7 N -0.106679 -4.64427 -0.475969 0
M  V30 8 N 1.10461 -2.58789 -0.386697 0
M  V30 9 C 1.23085 -1.25351 -0.323355 0
M  V30 10 N 0.0804627 -0.536273 -0.279242 0
M  V30 11 N 2.49289 -0.603473 -0.302552 0
M  V30 12 C 2.57577 0.838251 -0.233619 0
M  V30 13 C 3.79248 1.29682 -1.01366 0
M  V30 14 C 5.05881 0.639595 -0.570861 0
M  V30 15 C 5.99698 1.62777 0.113889 0
M  V30 16 C 7.2615 0.923009 0.544158 0
M  V30 17 N 7.93687 0.357298 -0.601789 0
M  V30 18 C 8.17282 1.86578 1.21651 0
M  V30 19 O 7.8258 2.57631 2.3518 0
M  V30 20 O 9.32328 2.04743 0.753329 0
M  V30 21 C 4.79602 -0.546596 0.327965 0
M  V30 22 C 3.69937 -1.37743 -0.350214 0
M  V30 23 C -4.73086 -0.071772 -0.119795 0
M  V30 24 C -5.79305 -0.307077 0.729624 0
M  V30 25 C -6.83343 0.588129 0.877768 0
M  V30 26 C -6.85215 1.77242 0.170781 0
M  V30 27 C -7.89476 2.67549 0.315594 0
M  V30 28 C -8.95181 2.43046 1.16746 0
M  V30 29 C -8.93762 1.24654 1.87723 0
M  V30 30 C -7.89711 0.351952 1.72867 0
M  V30 31 C -5.79246 2.01094 -0.678933 0
M  V30 32 C -4.75372 1.11373 -0.824771 0
M  V30 33 H -3.6926 -2.93892 -1.32622 0
M  V30 34 H -4.77356 -1.67549 -1.94056 0
M  V30 35 H -2.98176 -1.54107 -2.29043 0
M  V30 36 H -3.57441 -1.75785 0.574491 0
M  V30 37 H -2.29743 0.692266 -0.200481 0
M  V30 38 H -0.835918 -5.10382 -1.07311 0
M  V30 39 H 0.546181 -5.26176 0.0325997 0
M  V30 40 H 1.68782 1.27176 -0.724537 0
M  V30 41 H 2.59936 1.20527 0.817388 0
M  V30 42 H 3.58948 1.07019 -2.08973 0
M  V30 43 H 3.83799 2.41604 -0.950978 0
M  V30 44 H 5.63465 0.241098 -1.4506 0
M  V30 45 H 5.52438 2.11456 0.981071 0
M  V30 46 H 6.29777 2.39793 -0.625689 0
M  V30 47 H 7.05352 0.102689 1.26743 0
M  V30 48 H 7.73305 -0.636677 -0.738571 0
M  V30 49 H 7.87148 0.962581 -1.42593 0
M  V30 50 H 8.00962 2.19877 3.27747 0
M  V30 51 H 4.46363 -0.229545 1.32052 0
M  V30 52 H 5.70464 -1.17377 0.425217 0
M  V30 53 H 3.64074 -2.31639 0.227406 0
M  V30 54 H 4.04538 -1.57158 -1.39048 0
M  V30 55 H -5.80043 -1.23745 1.29971 0
M  V30 56 H -7.89995 3.60175 -0.243578 0
M  V30 57 H -9.75969 3.1509 1.26708 0
M  V30 58 H -9.77189 1.0659 2.54177 0
M  V30 59 H -7.88232 -0.58186 2.28611 0
M  V30 60 H -5.80897 2.95038 -1.23864 0
M  V30 61 H -3.92058 1.30022 -1.49217 0
M  V30 END ATOM
M  V30 BEGIN BOND
M  V30 1 1 1 2
M  V30 2 1 2 3
M  V30 3 1 3 4
M  V30 4 2 4 5
M  V30 5 1 5 6
M  V30 6 1 6 7
M  V30 7 2 6 8
M  V30 8 1 8 9
M  V30 9 2 9 10
M  V30 10 1 9 11
M  V30 11 1 11 12
M  V30 12 1 12 13
M  V30 13 1 13 14
M  V30 14 1 14 15
M  V30 15 1 15 16
M  V30 16 1 16 17
M  V30 17 1 16 18
M  V30 18 1 18 19
M  V30 19 2 18 20
M  V30 20 1 14 21
M  V30 21 1 21 22
M  V30 22 1 2 23
M  V30 23 2 23 24
M  V30 24 1 24 25
M  V30 25 2 25 26
M  V30 26 1 26 27
M  V30 27 2 27 28
M  V30 28 1 28 29
M  V30 29 2 29 30
M  V30 30 1 26 31
M  V30 31 2 31 32
M  V30 32 1 10 4
M  V30 33 1 22 11
M  V30 34 1 32 23
M  V30 35 1 30 25
M  V30 36 1 1 33
M  V30 37 1 1 34
M  V30 38 1 1 35
M  V30 39 1 2 36 CFG=1
M  V30 40 1 3 37
M  V30 41 1 7 38
M  V30 42 1 7 39
M  V30 43 1 12 40
M  V30 44 1 12 41
M  V30 45 1 13 42
M  V30 46 1 13 43
M  V30 47 1 14 44
M  V30 48 1 15 45
M  V30 49 1 15 46
M  V30 50 1 16 47
M  V30 51 1 17 48
M  V30 52 1 17 49
M  V30 53 1 19 50
M  V30 54 1 21 51
M  V30 55 1 21 52
M  V30 56 1 22 53
M  V30 57 1 22 54
M  V30 58 1 24 55
M  V30 59 1 27 56
M  V30 60 1 28 57
M  V30 61 1 29 58
M  V30 62 1 30 59
M  V30 63 1 31 60
M  V30 64 1 32 61
M  V30 END BOND
M  V30 END CTAB
M  END
