
     RDKit          3D

  0  0  0  0  0  0  0  0  0  0999 V3000
M  V30 BEGIN CTAB
M  V30 COUNTS 16 15 0 0 0
M  V30 BEGIN ATOM
M  V30 1 N 2.94614 -1.24459 -0.131021 0
M  V30 2 N 1.8906 -0.703531 -0.861743 0
M  V30 3 C 0.880884 0.0308056 -0.194146 0
M  V30 4 S 1.02175 0.199514 1.42131 0
M  V30 5 N -0.226452 0.614116 -0.861501 0
M  V30 6 N -1.20942 1.33044 -0.202726 0
M  V30 7 C -2.20506 0.796606 0.618384 0
M  V30 8 N -2.27644 -0.585466 0.841353 0
M  V30 9 S -3.28503 1.76319 1.32037 0
M  V30 10 H 2.87735 -1.03543 0.869844 0
M  V30 11 H 3.85349 -0.945342 -0.540248 0
M  V30 12 H 1.84096 -0.838054 -1.90464 0
M  V30 13 H -0.307102 0.501585 -1.88721 0
M  V30 14 H -1.21319 2.38714 -0.328944 0
M  V30 15 H -2.95065 -1.03282 1.50227 0
M  V30 16 H -1.63783 -1.23817 0.338648 0
M  V30 END ATOM
M  V30 BEGIN BOND
M  V30 1 1 1 2
M  V30 2 1 2 3
M  V30 3 2 3 4
M  V30 4 1 3 5
M  V30 5 1 5 6
M  V30 6 1 6 7
M  V30 7 1 7 8
M  V30 8 2 7 9
M  V30 9 1 1 10
M  V30 10 1 1 11
M  V30 11 1 2 12
M  V30 12 1 5 13
M  V30 13 1 6 14
M  V30 14 1 8 15
M  V30 15 1 8 16
M  V30 END BOND
M  V30 END CTAB
M  END
