
     RDKit          3D

  0  0  0  0  0  0  0  0  0  0999 V3000
M  V30 BEGIN CTAB
M  V30 COUNTS 19 19 0 0 0
M  V30 BEGIN ATOM
M  V30 1 N -2.60544 1.47605 -0.148496 0
M  V30 2 N -2.56672 0.133865 0.0546986 0
M  V30 3 C -1.54534 -0.619153 0.137826 0
M  V30 4 C -0.17413 -0.167031 0.0266343 0
M  V30 5 C 0.272406 1.11154 -0.181671 0
M  V30 6 C 1.6377 1.45373 -0.276039 0
M  V30 7 C 2.60332 0.499039 -0.160766 0
M  V30 8 C 2.17454 -0.786286 0.0480159 0
M  V30 9 C 0.859193 -1.11338 0.13854 0
M  V30 10 Cl 3.40747 -2.02408 0.19805 0
M  V30 11 Br 4.47467 0.915695 -0.282151 0
M  V30 12 N -1.73837 -2.04678 0.361199 0
M  V30 13 H -2.65185 1.87962 -1.10511 0
M  V30 14 H -2.59434 2.13005 0.659488 0
M  V30 15 H -0.43047 1.91729 -0.282401 0
M  V30 16 H 1.89909 2.48913 -0.441628 0
M  V30 17 H 0.562983 -2.14586 0.304752 0
M  V30 18 H -1.43319 -2.43226 1.27931 0
M  V30 19 H -2.15151 -2.67119 -0.330253 0
M  V30 END ATOM
M  V30 BEGIN BOND
M  V30 1 1 1 2
M  V30 2 2 2 3
M  V30 3 1 3 4
M  V30 4 2 4 5
M  V30 5 1 5 6
M  V30 6 2 6 7
M  V30 7 1 7 8
M  V30 8 2 8 9
M  V30 9 1 8 10
M  V30 10 1 7 11
M  V30 11 1 3 12
M  V30 12 1 9 4
M  V30 13 1 1 13
M  V30 14 1 1 14
M  V30 15 1 5 15
M  V30 16 1 6 16
M  V30 17 1 9 17
M  V30 18 1 12 18
M  V30 19 1 12 19
M  V30 END BOND
M  V30 END CTAB
M  END
