
     RDKit          3D

  0  0  0  0  0  0  0  0  0  0999 V3000
M  V30 BEGIN CTAB
M  V30 COUNTS 29 30 0 0 0
M  V30 BEGIN ATOM
M  V30 1 N -4.37172 -0.834759 0.0821363 0
M  V30 2 C -3.01328 -0.468646 0.20278 0
M  V30 3 C -2.0731 -1.31165 0.7973 0
M  V30 4 C -0.757633 -0.902508 0.888643 0
M  V30 5 C -0.355537 0.317263 0.405981 0
M  V30 6 C -1.2899 1.16158 -0.187743 0
M  V30 7 C -2.60768 0.761525 -0.283653 0
M  V30 8 N -3.56808 1.60273 -0.881459 0
M  V30 9 N 1.00448 0.687776 0.514391 0
M  V30 10 C 2.06128 -0.180074 0.968522 0
M  V30 11 C 2.26214 -1.33277 0.0420586 0
M  V30 12 C 3.14882 -1.00916 -0.897407 0
M  V30 13 C 3.6065 0.383607 -0.668989 0
M  V30 14 C 3.40056 0.549105 0.818789 0
M  V30 15 H -5.05068 -0.696808 0.838144 0
M  V30 16 H -4.69158 -1.26082 -0.810632 0
M  V30 17 H -2.40119 -2.26479 1.17122 0
M  V30 18 H -0.0357314 -1.54985 1.35241 0
M  V30 19 H -0.96755 2.11711 -0.564044 0
M  V30 20 H -3.89314 2.51144 -0.452578 0
M  V30 21 H -3.97969 1.31296 -1.7955 0
M  V30 22 H 1.23837 1.69043 0.233179 0
M  V30 23 H 1.92764 -0.535759 1.99844 0
M  V30 24 H 1.80418 -2.31317 0.0561761 0
M  V30 25 H 3.50957 -1.62545 -1.7149 0
M  V30 26 H 2.93338 1.04863 -1.26459 0
M  V30 27 H 4.66129 0.539558 -0.967141 0
M  V30 28 H 4.18553 -0.00615621 1.33715 0
M  V30 29 H 3.31277 1.60865 1.11907 0
M  V30 END ATOM
M  V30 BEGIN BOND
M  V30 1 1 1 2
M  V30 2 2 2 3
M  V30 3 1 3 4
M  V30 4 2 4 5
M  V30 5 1 5 6
M  V30 6 2 6 7
M  V30 7 1 7 8
M  V30 8 1 5 9
M  V30 9 1 9 10
M  V30 10 1 10 11
M  V30 11 2 11 12
M  V30 12 1 12 13
M  V30 13 1 13 14
M  V30 14 1 7 2
M  V30 15 1 14 10
M  V30 16 1 1 15
M  V30 17 1 1 16
M  V30 18 1 3 17
M  V30 19 1 4 18
M  V30 20 1 6 19
M  V30 21 1 8 20
M  V30 22 1 8 21
M  V30 23 1 9 22
M  V30 24 1 10 23
M  V30 25 1 11 24
M  V30 26 1 12 25
M  V30 27 1 13 26
M  V30 28 1 13 27
M  V30 29 1 14 28
M  V30 30 1 14 29
M  V30 END BOND
M  V30 END CTAB
M  END
