
     RDKit          3D

  0  0  0  0  0  0  0  0  0  0999 V3000
M  V30 BEGIN CTAB
M  V30 COUNTS 34 35 0 0 0
M  V30 BEGIN ATOM
M  V30 1 N 4.06234e-05 -3.3842 0.269613 0
M  V30 2 C -0.711072 -2.4614 0.276214 0
M  V30 3 C -1.58673 -1.29213 0.302416 0
M  V30 4 C -2.80299 -1.51852 -0.0908869 0
M  V30 5 N -3.24897 -2.82753 -0.52116 0
M  V30 6 S -3.97217 -0.148382 -0.0826905 0
M  V30 7 C -2.9254 1.31691 0.0711536 0
M  V30 8 C -1.69668 1.21075 0.449305 0
M  V30 9 C -1.03215 -0.0476811 0.784216 0
M  V30 10 C 0.450045 0.0712396 0.584466 0
M  V30 11 C 1.26711 0.301601 1.69797 0
M  V30 12 C 2.6324 0.364034 1.57536 0
M  V30 13 C 3.17253 0.192372 0.319741 0
M  V30 14 C 2.3614 -0.0329975 -0.771474 0
M  V30 15 C 0.961884 -0.0981073 -0.659748 0
M  V30 16 C 0.244179 -0.284966 -1.90791 0
M  V30 17 C 4.64612 0.250427 0.137181 0
M  V30 18 C -0.880087 2.41415 0.563023 0
M  V30 19 N -0.249416 3.37651 0.660024 0
M  V30 20 N -3.52246 2.57649 -0.243307 0
M  V30 21 H -3.78211 -3.38825 0.167196 0
M  V30 22 H -3.05186 -3.19378 -1.46266 0
M  V30 23 H -1.14465 -0.0986591 1.92275 0
M  V30 24 H 0.835577 0.438347 2.6979 0
M  V30 25 H 3.27019 0.54169 2.43097 0
M  V30 26 H 2.82803 -0.162174 -1.7373 0
M  V30 27 H 0.477393 -1.29823 -2.33659 0
M  V30 28 H -0.812962 -0.106894 -1.95298 0
M  V30 29 H 0.76076 0.398841 -2.66621 0
M  V30 30 H 4.9171 -0.496651 -0.639613 0
M  V30 31 H 4.89277 1.25544 -0.238019 0
M  V30 32 H 5.14339 0.0493475 1.0904 0
M  V30 33 H -4.38187 2.65569 -0.80746 0
M  V30 34 H -3.05935 3.42674 0.118132 0
M  V30 END ATOM
M  V30 BEGIN BOND
M  V30 1 3 1 2
M  V30 2 1 2 3
M  V30 3 2 3 4
M  V30 4 1 4 5
M  V30 5 1 4 6
M  V30 6 1 6 7
M  V30 7 2 7 8
M  V30 8 1 8 9
M  V30 9 1 9 10
M  V30 10 2 10 11
M  V30 11 1 11 12
M  V30 12 2 12 13
M  V30 13 1 13 14
M  V30 14 2 14 15
M  V30 15 1 15 16
M  V30 16 1 13 17
M  V30 17 1 8 18
M  V30 18 3 18 19
M  V30 19 1 7 20
M  V30 20 1 9 3
M  V30 21 1 15 10
M  V30 22 1 5 21
M  V30 23 1 5 22
M  V30 24 1 9 23
M  V30 25 1 11 24
M  V30 26 1 12 25
M  V30 27 1 14 26
M  V30 28 1 16 27
M  V30 29 1 16 28
M  V30 30 1 16 29
M  V30 31 1 17 30
M  V30 32 1 17 31
M  V30 33 1 17 32
M  V30 34 1 20 33
M  V30 35 1 20 34
M  V30 END BOND
M  V30 END CTAB
M  END
