
     RDKit          3D

  0  0  0  0  0  0  0  0  0  0999 V3000
M  V30 BEGIN CTAB
M  V30 COUNTS 21 21 0 0 0
M  V30 BEGIN ATOM
M  V30 1 C -2.36456 -1.52881 0.479364 0
M  V30 2 C -2.08012 -0.0488081 0.464719 0 CFG=1
M  V30 3 C -0.618148 0.147696 0.237528 0
M  V30 4 N 0.335342 -0.79458 0.318663 0
M  V30 5 N 1.48616 -0.246091 0.0554539 0
M  V30 6 C 1.29074 1.05739 -0.199043 0
M  V30 7 N -0.00976093 1.29043 -0.0843033 0
M  V30 8 N 2.26421 2.02871 -0.530395 0
M  V30 9 C 2.77007 -0.89992 0.0329633 0
M  V30 10 N -2.7953 0.635391 -0.597367 0
M  V30 11 H -1.42566 -2.10039 0.537699 0
M  V30 12 H -2.93441 -1.8023 -0.445394 0
M  V30 13 H -2.98272 -1.80461 1.34784 0
M  V30 14 H -2.34151 0.388977 1.43195 0
M  V30 15 H 2.39688 2.89649 0.0111097 0
M  V30 16 H 2.86631 1.83933 -1.36564 0
M  V30 17 H 3.15766 -0.939045 -0.992821 0
M  V30 18 H 2.6738 -1.94719 0.382685 0
M  V30 19 H 3.48415 -0.384809 0.721373 0
M  V30 20 H -2.28433 0.579569 -1.49885 0
M  V30 21 H -2.88881 1.63258 -0.30753 0
M  V30 END ATOM
M  V30 BEGIN BOND
M  V30 1 1 1 2
M  V30 2 1 2 3
M  V30 3 2 3 4
M  V30 4 1 4 5
M  V30 5 1 5 6
M  V30 6 2 6 7
M  V30 7 1 6 8
M  V30 8 1 5 9
M  V30 9 1 2 10
M  V30 10 1 7 3
M  V30 11 1 1 11
M  V30 12 1 1 12
M  V30 13 1 1 13
M  V30 14 1 2 14 CFG=1
M  V30 15 1 8 15
M  V30 16 1 8 16
M  V30 17 1 9 17
M  V30 18 1 9 18
M  V30 19 1 9 19
M  V30 20 1 10 20
M  V30 21 1 10 21
M  V30 END BOND
M  V30 END CTAB
M  END
