
     RDKit          3D

  0  0  0  0  0  0  0  0  0  0999 V3000
M  V30 BEGIN CTAB
M  V30 COUNTS 23 24 0 0 0
M  V30 BEGIN ATOM
M  V30 1 N -4.22187 1.06723 -0.271358 0
M  V30 2 C -2.89833 0.57877 -0.168582 0
M  V30 3 N -2.66276 -0.688349 0.213709 0
M  V30 4 C -1.4246 -1.19536 0.325296 0
M  V30 5 N -1.18561 -2.53868 0.73098 0
M  V30 6 C -0.345465 -0.3935 0.0389486 0
M  V30 7 N 0.921642 -0.838556 0.130387 0
M  V30 8 C 1.99563 -0.0751322 -0.143917 0
M  V30 9 C 3.37564 -0.585287 -0.0364805 0
M  V30 10 O 3.93053 -0.398039 1.22279 0
M  V30 11 C 1.80773 1.24313 -0.54371 0
M  V30 12 C 0.520991 1.73146 -0.647784 0
M  V30 13 C -0.562072 0.927701 -0.360711 0
M  V30 14 N -1.83351 1.3593 -0.447837 0
M  V30 15 H -4.54071 1.45445 -1.17766 0
M  V30 16 H -4.88499 1.05297 0.524201 0
M  V30 17 H -0.282463 -2.84816 1.1051 0
M  V30 18 H -1.9744 -3.20901 0.632918 0
M  V30 19 H 4.0291 -0.0818427 -0.762726 0
M  V30 20 H 3.32782 -1.69431 -0.19145 0
M  V30 21 H 3.87454 0.532031 1.54592 0
M  V30 22 H 2.68205 1.84563 -0.761162 0
M  V30 23 H 0.351101 2.75356 -0.956885 0
M  V30 END ATOM
M  V30 BEGIN BOND
M  V30 1 1 1 2
M  V30 2 2 2 3
M  V30 3 1 3 4
M  V30 4 1 4 5
M  V30 5 2 4 6
M  V30 6 1 6 7
M  V30 7 2 7 8
M  V30 8 1 8 9
M  V30 9 1 9 10
M  V30 10 1 8 11
M  V30 11 2 11 12
M  V30 12 1 12 13
M  V30 13 2 13 14
M  V30 14 1 14 2
M  V30 15 1 13 6
M  V30 16 1 1 15
M  V30 17 1 1 16
M  V30 18 1 5 17
M  V30 19 1 5 18
M  V30 20 1 9 19
M  V30 21 1 9 20
M  V30 22 1 10 21
M  V30 23 1 11 22
M  V30 24 1 12 23
M  V30 END BOND
M  V30 END CTAB
M  END
