
     RDKit          3D

  0  0  0  0  0  0  0  0  0  0999 V3000
M  V30 BEGIN CTAB
M  V30 COUNTS 127 131 0 0 0
M  V30 BEGIN ATOM
M  V30 1 C -8.77067 -3.28112 -1.17234 0
M  V30 2 C -7.46814 -2.49897 -1.34593 0
M  V30 3 O -6.60573 -3.10092 -2.07443 0
M  V30 4 N -7.35107 -1.25881 -0.720826 0
M  V30 5 C -6.33912 -0.286578 -0.655258 0 CFG=1
M  V30 6 C -6.65185 0.922522 0.118927 0
M  V30 7 C -7.81754 1.66549 -0.375103 0
M  V30 8 C -7.64316 2.6178 -1.37874 0
M  V30 9 C -8.6576 3.39242 -1.87159 0
M  V30 10 C -9.94913 3.23406 -1.3518 0
M  V30 11 C -10.1216 2.29705 -0.363089 0
M  V30 12 C -9.09179 1.52182 0.127715 0
M  V30 13 C -4.96385 -0.822169 -0.318278 0
M  V30 14 O -4.53657 -1.82105 -0.881106 0
M  V30 15 N -4.11888 -0.199671 0.648428 0
M  V30 16 C -2.77905 -0.724933 0.920945 0 CFG=1
M  V30 17 C -1.81921 0.440785 0.927383 0
M  V30 18 C -2.19558 1.32084 -0.255807 0
M  V30 19 C -1.60669 2.69191 -0.208034 0
M  V30 20 N -1.01185 3.01663 -1.51467 0
M  V30 21 C 0.364125 2.95867 -1.75294 0
M  V30 22 O 0.778468 3.26309 -2.91575 0
M  V30 23 C 1.39127 2.55803 -0.724867 0 CFG=2
M  V30 24 C 2.00687 3.7853 -0.0950611 0
M  V30 25 C 2.71204 4.64551 -1.09951 0
M  V30 26 C 3.25718 5.87445 -0.37129 0
M  V30 27 N 3.9382 6.74694 -1.31437 0
M  V30 28 C 4.44403 7.99277 -0.893798 0
M  V30 29 N 3.53464 8.9762 -0.444466 0
M  V30 30 N 5.69652 8.25918 -0.905682 0
M  V30 31 N 2.40598 1.84736 -1.47784 0
M  V30 32 C 2.98471 0.603547 -1.11174 0
M  V30 33 O 2.99725 -0.252906 -2.07237 0
M  V30 34 C 3.53559 0.278795 0.22584 0 CFG=2
M  V30 35 C 4.96938 -0.218821 0.117698 0
M  V30 36 C 5.8401 0.789859 -0.521869 0
M  V30 37 C 6.28793 0.777694 -1.82406 0
M  V30 38 N 7.04782 1.87485 -2.04176 0
M  V30 39 C 7.11345 2.60949 -0.919124 0
M  V30 40 C 7.74161 3.78414 -0.611162 0
M  V30 41 C 7.66508 4.36347 0.644481 0
M  V30 42 C 6.91962 3.70047 1.59111 0
M  V30 43 C 6.27863 2.51015 1.2958 0
M  V30 44 C 6.36294 1.93405 0.0175794 0
M  V30 45 N 2.68123 -0.493009 1.06479 0
M  V30 46 C 2.67833 -1.85497 1.38451 0
M  V30 47 O 2.89712 -2.23772 2.56459 0
M  V30 48 C 2.42457 -2.98297 0.403347 0 CFG=1
M  V30 49 C 3.17945 -4.19375 0.818947 0
M  V30 50 C 3.14848 -5.40982 -0.0307211 0
M  V30 51 C 1.85315 -6.04225 -0.341352 0
M  V30 52 N 2.0078 -7.26457 -1.14185 0
M  V30 53 C 2.61314 -8.364 -0.449911 0
M  V30 54 N 1.7514 -9.1658 0.383632 0
M  V30 55 N 3.86699 -8.59498 -0.563749 0
M  V30 56 N 1.04563 -3.14794 0.124089 0
M  V30 57 C -0.0965297 -3.32819 0.893513 0
M  V30 58 O -1.00946 -4.11675 0.388688 0
M  V30 59 C -0.499546 -2.79263 2.19583 0 CFG=2
M  V30 60 C -0.162903 -3.70515 3.37678 0
M  V30 61 C -1.22842 -4.72642 3.30582 0
M  V30 62 C -2.43078 -4.01638 2.81564 0
M  V30 63 N -1.946 -2.69917 2.35959 0
M  V30 64 C -2.74135 -1.55871 2.13934 0
M  V30 65 O -3.54024 -1.16843 3.07973 0
M  V30 66 H -9.64813 -2.62495 -1.3576 0
M  V30 67 H -8.85325 -3.72425 -0.179072 0
M  V30 68 H -8.80327 -4.09516 -1.92244 0
M  V30 69 H -8.27039 -0.962015 -0.188879 0
M  V30 70 H -6.14178 0.0197617 -1.74737 0
M  V30 71 H -6.71962 0.753084 1.22545 0
M  V30 72 H -5.74844 1.62431 -0.00305196 0
M  V30 73 H -6.64992 2.75625 -1.7876 0
M  V30 74 H -8.52402 4.12709 -2.64277 0
M  V30 75 H -10.7703 3.84816 -1.7413 0
M  V30 76 H -11.1148 2.14181 0.0669869 0
M  V30 77 H -9.26492 0.81378 0.922293 0
M  V30 78 H -4.47544 0.619175 1.15513 0
M  V30 79 H -2.51603 -1.34174 0.00513219 0
M  V30 80 H -1.89189 1.02072 1.8789 0
M  V30 81 H -0.764997 0.103074 0.734172 0
M  V30 82 H -1.74746 0.806883 -1.15094 0
M  V30 83 H -3.28822 1.3241 -0.477829 0
M  V30 84 H -2.45783 3.42889 -0.0938178 0
M  V30 85 H -0.891284 2.85826 0.606671 0
M  V30 86 H -1.65644 3.28603 -2.28523 0
M  V30 87 H 0.874089 1.94656 0.0175278 0
M  V30 88 H 2.77732 3.4642 0.644901 0
M  V30 89 H 1.23299 4.392 0.417747 0
M  V30 90 H 2.0264 5.02719 -1.85864 0
M  V30 91 H 3.58827 4.08169 -1.54014 0
M  V30 92 H 2.41155 6.38756 0.117926 0
M  V30 93 H 4.00645 5.59828 0.388753 0
M  V30 94 H 4.02267 6.39878 -2.30645 0
M  V30 95 H 3.77628 10.0114 -0.511497 0
M  V30 96 H 2.58827 8.74572 -0.0320498 0
M  V30 97 H 6.40799 7.54673 -1.23667 0
M  V30 98 H 2.68848 2.35696 -2.38457 0
M  V30 99 H 3.66569 1.2826 0.748843 0
M  V30 100 H 5.36041 -0.449078 1.16253 0
M  V30 101 H 4.94763 -1.19282 -0.394828 0
M  V30 102 H 6.03573 -0.0210492 -2.5382 0
M  V30 103 H 7.49239 2.05509 -2.98035 0
M  V30 104 H 8.3335 4.32224 -1.34996 0
M  V30 105 H 8.17139 5.30635 0.870165 0
M  V30 106 H 6.85506 4.15323 2.59276 0
M  V30 107 H 5.70876 2.01961 2.06534 0
M  V30 108 H 1.89904 0.0656189 1.55814 0
M  V30 109 H 2.94408 -2.61221 -0.533621 0
M  V30 110 H 2.85227 -4.50011 1.85549 0
M  V30 111 H 4.27782 -3.94262 0.966503 0
M  V30 112 H 3.78325 -6.20621 0.458508 0
M  V30 113 H 3.65206 -5.19198 -1.03753 0
M  V30 114 H 1.17194 -5.42005 -1.00337 0
M  V30 115 H 1.25134 -6.31125 0.537907 0
M  V30 116 H 1.73483 -7.38238 -2.11236 0
M  V30 117 H 1.61196 -10.1624 0.174348 0
M  V30 118 H 1.29025 -8.70666 1.18647 0
M  V30 119 H 4.33564 -9.37008 -0.0831526 0
M  V30 120 H 0.82581 -3.12417 -0.947697 0
M  V30 121 H 0.0058657 -1.81511 2.32224 0
M  V30 122 H -0.205949 -3.0789 4.28341 0
M  V30 123 H 0.84476 -4.16194 3.23996 0
M  V30 124 H -0.937765 -5.55626 2.60661 0
M  V30 125 H -1.37627 -5.15068 4.33211 0
M  V30 126 H -2.86916 -4.61981 2.00601 0
M  V30 127 H -3.13098 -3.89512 3.68106 0
M  V30 END ATOM
M  V30 BEGIN BOND
M  V30 1 1 1 2
M  V30 2 2 2 3
M  V30 3 1 2 4
M  V30 4 1 4 5
M  V30 5 1 5 6
M  V30 6 1 6 7
M  V30 7 2 7 8
M  V30 8 1 8 9
M  V30 9 2 9 10
M  V30 10 1 10 11
M  V30 11 2 11 12
M  V30 12 1 5 13
M  V30 13 2 13 14
M  V30 14 1 13 15
M  V30 15 1 15 16
M  V30 16 1 16 17
M  V30 17 1 17 18
M  V30 18 1 18 19
M  V30 19 1 19 20
M  V30 20 1 20 21
M  V30 21 2 21 22
M  V30 22 1 21 23
M  V30 23 1 23 24
M  V30 24 1 24 25
M  V30 25 1 25 26
M  V30 26 1 26 27
M  V30 27 1 27 28
M  V30 28 1 28 29
M  V30 29 2 28 30 CFG=2
M  V30 30 1 23 31
M  V30 31 1 31 32
M  V30 32 2 32 33
M  V30 33 1 32 34
M  V30 34 1 34 35
M  V30 35 1 35 36
M  V30 36 2 36 37
M  V30 37 1 37 38
M  V30 38 1 38 39
M  V30 39 2 39 40
M  V30 40 1 40 41
M  V30 41 2 41 42
M  V30 42 1 42 43
M  V30 43 2 43 44
M  V30 44 1 34 45
M  V30 45 1 45 46
M  V30 46 2 46 47
M  V30 47 1 46 48
M  V30 48 1 48 49
M  V30 49 1 49 50
M  V30 50 1 50 51
M  V30 51 1 51 52
M  V30 52 1 52 53
M  V30 53 1 53 54
M  V30 54 2 53 55 CFG=2
M  V30 55 1 48 56
M  V30 56 1 56 57
M  V30 57 2 57 58
M  V30 58 1 57 59
M  V30 59 1 59 60
M  V30 60 1 60 61
M  V30 61 1 61 62
M  V30 62 1 62 63
M  V30 63 1 63 64
M  V30 64 2 64 65
M  V30 65 1 12 7
M  V30 66 1 64 16
M  V30 67 1 44 36
M  V30 68 1 63 59
M  V30 69 1 44 39
M  V30 70 1 1 66
M  V30 71 1 1 67
M  V30 72 1 1 68
M  V30 73 1 4 69
M  V30 74 1 5 70 CFG=3
M  V30 75 1 6 71
M  V30 76 1 6 72
M  V30 77 1 8 73
M  V30 78 1 9 74
M  V30 79 1 10 75
M  V30 80 1 11 76
M  V30 81 1 12 77
M  V30 82 1 15 78
M  V30 83 1 16 79 CFG=3
M  V30 84 1 17 80
M  V30 85 1 17 81
M  V30 86 1 18 82
M  V30 87 1 18 83
M  V30 88 1 19 84
M  V30 89 1 19 85
M  V30 90 1 20 86
M  V30 91 1 23 87 CFG=1
M  V30 92 1 24 88
M  V30 93 1 24 89
M  V30 94 1 25 90
M  V30 95 1 25 91
M  V30 96 1 26 92
M  V30 97 1 26 93
M  V30 98 1 27 94
M  V30 99 1 29 95
M  V30 100 1 29 96
M  V30 101 1 30 97
M  V30 102 1 31 98
M  V30 103 1 34 99 CFG=1
M  V30 104 1 35 100
M  V30 105 1 35 101
M  V30 106 1 37 102
M  V30 107 1 38 103
M  V30 108 1 40 104
M  V30 109 1 41 105
M  V30 110 1 42 106
M  V30 111 1 43 107
M  V30 112 1 45 108
M  V30 113 1 48 109 CFG=3
M  V30 114 1 49 110
M  V30 115 1 49 111
M  V30 116 1 50 112
M  V30 117 1 50 113
M  V30 118 1 51 114
M  V30 119 1 51 115
M  V30 120 1 52 116
M  V30 121 1 54 117
M  V30 122 1 54 118
M  V30 123 1 55 119
M  V30 124 1 56 120
M  V30 125 1 59 121 CFG=1
M  V30 126 1 60 122
M  V30 127 1 60 123
M  V30 128 1 61 124
M  V30 129 1 61 125
M  V30 130 1 62 126
M  V30 131 1 62 127
M  V30 END BOND
M  V30 END CTAB
M  END
