
     RDKit          3D

  0  0  0  0  0  0  0  0  0  0999 V3000
M  V30 BEGIN CTAB
M  V30 COUNTS 20 19 0 0 0
M  V30 BEGIN ATOM
M  V30 1 N 1.76015 1.10137 -0.196935 0
M  V30 2 C 1.55664 -0.299089 -0.07517 0
M  V30 3 N 0.226029 -0.790634 -0.118988 0
M  V30 4 N -0.84917 -0.0283858 0.376205 0
M  V30 5 C -2.18887 -0.354592 0.0869366 0
M  V30 6 N -2.60986 -1.71407 0.127948 0
M  V30 7 N -3.06778 0.562836 -0.221582 0
M  V30 8 N -2.74768 1.90236 -0.284876 0 CHG=1
M  V30 9 O -1.52836 2.31336 -0.760815 0 CHG=-1
M  V30 10 O -3.56914 2.75597 0.0923296 0
M  V30 11 N 2.51044 -1.13693 0.0716605 0
M  V30 12 N 3.85225 -0.82021 0.133255 0 CHG=1
M  V30 13 O 4.71397 -1.76629 0.645776 0 CHG=-1
M  V30 14 O 4.3508 0.257716 -0.238926 0
M  V30 15 H 1.90445 1.56976 -1.1319 0
M  V30 16 H 1.7775 1.73811 0.629587 0
M  V30 17 H 0.0378934 -1.73817 -0.527025 0
M  V30 18 H -0.623177 0.797114 0.972266 0
M  V30 19 H -2.7165 -2.16814 1.04579 0
M  V30 20 H -2.7896 -2.18209 -0.784605 0
M  V30 END ATOM
M  V30 BEGIN BOND
M  V30 1 1 1 2
M  V30 2 1 2 3
M  V30 3 1 3 4
M  V30 4 1 4 5
M  V30 5 1 5 6
M  V30 6 2 5 7 CFG=2
M  V30 7 1 7 8
M  V30 8 1 8 9
M  V30 9 2 8 10
M  V30 10 2 2 11 CFG=2
M  V30 11 1 11 12
M  V30 12 1 12 13
M  V30 13 2 12 14
M  V30 14 1 1 15
M  V30 15 1 1 16
M  V30 16 1 3 17
M  V30 17 1 4 18
M  V30 18 1 6 19
M  V30 19 1 6 20
M  V30 END BOND
M  V30 END CTAB
M  END
