
     RDKit          3D

  0  0  0  0  0  0  0  0  0  0999 V3000
M  V30 BEGIN CTAB
M  V30 COUNTS 49 48 0 0 0
M  V30 BEGIN ATOM
M  V30 1 N -3.69277 1.19746 4.66097 0
M  V30 2 C -3.80406 1.6873 3.33668 0
M  V30 3 C -3.03115 0.859821 2.40506 0
M  V30 4 O -2.38598 -0.126094 2.81146 0
M  V30 5 N -2.97482 1.13655 0.98998 0
M  V30 6 C -2.18579 0.26757 0.115246 0 CFG=1
M  V30 7 C -3.08982 -0.498301 -0.822289 0
M  V30 8 C -3.93726 0.353017 -1.71807 0
M  V30 9 C -4.76542 -0.536586 -2.54906 0
M  V30 10 O -4.40185 -0.806899 -3.84469 0
M  V30 11 O -5.79982 -1.04441 -2.07271 0
M  V30 12 C -1.0568 0.946928 -0.537808 0
M  V30 13 O -0.991213 2.21875 -0.701401 0
M  V30 14 N 0.0750349 0.221227 -1.03906 0
M  V30 15 C 1.20031 0.816767 -1.67775 0 CFG=1
M  V30 16 C 2.3539 1.06883 -0.722507 0
M  V30 17 C 2.87912 -0.144207 -0.0374954 0
M  V30 18 C 4.02706 0.305269 0.877091 0
M  V30 19 N 4.55422 -0.819163 1.5996 0
M  V30 20 C 5.26199 -1.8816 1.01534 0
M  V30 21 N 4.66214 -3.16737 0.976709 0
M  V30 22 N 6.42936 -1.69821 0.52779 0
M  V30 23 C 1.67448 0.18395 -2.8951 0
M  V30 24 O 2.7656 0.68059 -3.57974 0
M  V30 25 O 1.13527 -0.845816 -3.40762 0
M  V30 26 H -2.86489 0.657327 4.83688 0
M  V30 27 H -4.52344 0.805632 5.02818 0
M  V30 28 H -4.90281 1.67535 3.06993 0
M  V30 29 H -3.43514 2.73708 3.3155 0
M  V30 30 H -3.51057 1.95623 0.666518 0
M  V30 31 H -1.7365 -0.507686 0.785536 0
M  V30 32 H -2.40523 -1.07783 -1.49061 0
M  V30 33 H -3.65495 -1.21905 -0.225863 0
M  V30 34 H -3.32362 0.979605 -2.39147 0
M  V30 35 H -4.59283 1.05522 -1.16452 0
M  V30 36 H -3.75804 -1.53489 -4.10153 0
M  V30 37 H 0.0476085 -0.828339 -0.917688 0
M  V30 38 H 0.859685 1.87451 -1.94132 0
M  V30 39 H 2.13877 1.84744 0.0290261 0
M  V30 40 H 3.18637 1.47046 -1.37365 0
M  V30 41 H 2.10434 -0.617312 0.556236 0
M  V30 42 H 3.33049 -0.883684 -0.732302 0
M  V30 43 H 3.69337 1.09284 1.57995 0
M  V30 44 H 4.84766 0.752256 0.248018 0
M  V30 45 H 4.41199 -0.875196 2.65333 0
M  V30 46 H 4.43866 -3.63602 0.079427 0
M  V30 47 H 4.42449 -3.67892 1.85713 0
M  V30 48 H 6.9628 -2.51513 0.0793001 0
M  V30 49 H 3.36008 0.094727 -4.15664 0
M  V30 END ATOM
M  V30 BEGIN BOND
M  V30 1 1 1 2
M  V30 2 1 2 3
M  V30 3 2 3 4
M  V30 4 1 3 5
M  V30 5 1 5 6
M  V30 6 1 6 7
M  V30 7 1 7 8
M  V30 8 1 8 9
M  V30 9 1 9 10
M  V30 10 2 9 11
M  V30 11 1 6 12
M  V30 12 2 12 13
M  V30 13 1 12 14
M  V30 14 1 14 15
M  V30 15 1 15 16
M  V30 16 1 16 17
M  V30 17 1 17 18
M  V30 18 1 18 19
M  V30 19 1 19 20
M  V30 20 1 20 21
M  V30 21 2 20 22 CFG=2
M  V30 22 1 15 23
M  V30 23 1 23 24
M  V30 24 2 23 25
M  V30 25 1 1 26
M  V30 26 1 1 27
M  V30 27 1 2 28
M  V30 28 1 2 29
M  V30 29 1 5 30
M  V30 30 1 6 31 CFG=1
M  V30 31 1 7 32
M  V30 32 1 7 33
M  V30 33 1 8 34
M  V30 34 1 8 35
M  V30 35 1 10 36
M  V30 36 1 14 37
M  V30 37 1 15 38 CFG=3
M  V30 38 1 16 39
M  V30 39 1 16 40
M  V30 40 1 17 41
M  V30 41 1 17 42
M  V30 42 1 18 43
M  V30 43 1 18 44
M  V30 44 1 19 45
M  V30 45 1 21 46
M  V30 46 1 21 47
M  V30 47 1 22 48
M  V30 48 1 24 49
M  V30 END BOND
M  V30 END CTAB
M  END
