
     RDKit          3D

  0  0  0  0  0  0  0  0  0  0999 V3000
M  V30 BEGIN CTAB
M  V30 COUNTS 68 72 0 0 0
M  V30 BEGIN ATOM
M  V30 1 N -2.24574 -4.0763 2.46263 0
M  V30 2 C -2.67219 -3.28096 1.71142 0
M  V30 3 C -3.17407 -2.28686 0.796335 0
M  V30 4 C -4.26442 -2.57686 0.11353 0
M  V30 5 N -4.85921 -3.86973 0.345644 0
M  V30 6 O -4.84646 -1.70692 -0.796954 0
M  V30 7 C -4.27565 -0.474623 -1.0152 0
M  V30 8 C -3.18342 -0.125778 -0.362305 0
M  V30 9 C -2.49249 -0.982285 0.624682 0
M  V30 10 C -1.05346 -1.17646 0.273265 0
M  V30 11 C -0.728788 -1.7474 -0.93998 0
M  V30 12 C 0.596185 -1.93385 -1.27965 0
M  V30 13 C 1.61214 -1.55249 -0.412089 0
M  V30 14 C 1.30429 -0.987429 0.789297 0
M  V30 15 C -0.0188021 -0.810751 1.10804 0
M  V30 16 C 2.32747 -0.550182 1.7779 0
M  V30 17 C 3.0767 -1.71618 2.25673 0
M  V30 18 C 4.39793 -1.80624 2.23151 0
M  V30 19 N 5.06292 -2.98885 2.72186 0
M  V30 20 O 5.13653 -0.75465 1.73002 0
M  V30 21 C 4.52745 0.377409 1.25919 0
M  V30 22 C 3.21608 0.511146 1.26428 0
M  V30 23 C 2.66488 1.76296 0.740732 0
M  V30 24 O 1.66716 2.27312 1.31295 0
M  V30 25 C 3.30301 2.37839 -0.441732 0
M  V30 26 C 4.73865 1.94772 -0.606838 0
M  V30 27 C 5.34772 1.5252 0.712432 0
M  V30 28 C 4.8727 0.787384 -1.56136 0
M  V30 29 C 5.51024 3.12565 -1.1619 0
M  V30 30 C 2.3679 -2.87141 2.80265 0
M  V30 31 N 1.79261 -3.77502 3.23919 0
M  V30 32 C -2.62903 1.19404 -0.639811 0
M  V30 33 O -1.38781 1.43278 -0.538877 0
M  V30 34 C -3.50476 2.33584 -1.05942 0
M  V30 35 C -4.89668 1.8344 -1.3188 0
M  V30 36 C -4.90058 0.480018 -2.00377 0
M  V30 37 C -5.59511 1.67033 0.00820787 0
M  V30 38 C -5.66147 2.84989 -2.14245 0
M  V30 39 H -5.05041 -4.47346 -0.466579 0
M  V30 40 H -5.07987 -4.16379 1.30641 0
M  V30 41 H -2.49023 -0.501842 1.64776 0
M  V30 42 H -1.51103 -2.05454 -1.637 0
M  V30 43 H 0.834142 -2.38687 -2.2432 0
M  V30 44 H 2.65865 -1.68922 -0.657769 0
M  V30 45 H -0.319694 -0.35923 2.06553 0
M  V30 46 H 1.81491 -0.116391 2.68557 0
M  V30 47 H 5.99295 -2.87621 3.15638 0
M  V30 48 H 4.64593 -3.93501 2.65438 0
M  V30 49 H 2.75234 1.98069 -1.34293 0
M  V30 50 H 3.18597 3.47845 -0.357964 0
M  V30 51 H 5.33535 2.37592 1.3958 0
M  V30 52 H 6.3744 1.15545 0.494169 0
M  V30 53 H 4.64454 -0.181616 -1.08823 0
M  V30 54 H 4.16599 0.884857 -2.42471 0
M  V30 55 H 5.87954 0.720409 -2.00861 0
M  V30 56 H 5.39649 3.06362 -2.28237 0
M  V30 57 H 4.99993 4.05779 -0.843542 0
M  V30 58 H 6.58004 3.09326 -0.870576 0
M  V30 59 H -3.57995 3.09389 -0.245362 0
M  V30 60 H -3.088 2.75217 -1.99321 0
M  V30 61 H -4.34669 0.486521 -2.94666 0
M  V30 62 H -5.94235 0.187492 -2.16694 0
M  V30 63 H -4.93216 1.86096 0.874053 0
M  V30 64 H -6.00964 0.656489 0.140606 0
M  V30 65 H -6.44547 2.37956 0.107266 0
M  V30 66 H -4.97067 3.42336 -2.79831 0
M  V30 67 H -6.14863 3.54962 -1.43489 0
M  V30 68 H -6.47879 2.36372 -2.72044 0
M  V30 END ATOM
M  V30 BEGIN BOND
M  V30 1 3 1 2
M  V30 2 1 2 3
M  V30 3 2 3 4
M  V30 4 1 4 5
M  V30 5 1 4 6
M  V30 6 1 6 7
M  V30 7 2 7 8
M  V30 8 1 8 9
M  V30 9 1 9 10
M  V30 10 2 10 11
M  V30 11 1 11 12
M  V30 12 2 12 13
M  V30 13 1 13 14
M  V30 14 2 14 15
M  V30 15 1 14 16
M  V30 16 1 16 17
M  V30 17 2 17 18
M  V30 18 1 18 19
M  V30 19 1 18 20
M  V30 20 1 20 21
M  V30 21 2 21 22
M  V30 22 1 22 23
M  V30 23 2 23 24
M  V30 24 1 23 25
M  V30 25 1 25 26
M  V30 26 1 26 27
M  V30 27 1 26 28
M  V30 28 1 26 29
M  V30 29 1 17 30
M  V30 30 3 30 31
M  V30 31 1 8 32
M  V30 32 2 32 33
M  V30 33 1 32 34
M  V30 34 1 34 35
M  V30 35 1 35 36
M  V30 36 1 35 37
M  V30 37 1 35 38
M  V30 38 1 9 3
M  V30 39 1 15 10
M  V30 40 1 22 16
M  V30 41 1 36 7
M  V30 42 1 27 21
M  V30 43 1 5 39
M  V30 44 1 5 40
M  V30 45 1 9 41
M  V30 46 1 11 42
M  V30 47 1 12 43
M  V30 48 1 13 44
M  V30 49 1 15 45
M  V30 50 1 16 46
M  V30 51 1 19 47
M  V30 52 1 19 48
M  V30 53 1 25 49
M  V30 54 1 25 50
M  V30 55 1 27 51
M  V30 56 1 27 52
M  V30 57 1 28 53
M  V30 58 1 28 54
M  V30 59 1 28 55
M  V30 60 1 29 56
M  V30 61 1 29 57
M  V30 62 1 29 58
M  V30 63 1 34 59
M  V30 64 1 34 60
M  V30 65 1 36 61
M  V30 66 1 36 62
M  V30 67 1 37 63
M  V30 68 1 37 64
M  V30 69 1 37 65
M  V30 70 1 38 66
M  V30 71 1 38 67
M  V30 72 1 38 68
M  V30 END BOND
M  V30 END CTAB
M  END
