
     RDKit          3D

  0  0  0  0  0  0  0  0  0  0999 V3000
M  V30 BEGIN CTAB
M  V30 COUNTS 26 26 0 0 0
M  V30 BEGIN ATOM
M  V30 1 O 2.81545 1.785 0.455483 0
M  V30 2 C 1.4853 1.41908 0.394827 0
M  V30 3 C 1.27004 0.37633 -0.679348 0
M  V30 4 C 2.12566 -0.821602 -0.314761 0
M  V30 5 C 1.16487 -1.56645 0.584696 0
M  V30 6 C -0.0430405 -1.62766 -0.349697 0
M  V30 7 C -0.150798 -0.136168 -0.696184 0
M  V30 8 N -0.953576 0.457846 0.332789 0
M  V30 9 C -2.22212 0.491839 0.322697 0
M  V30 10 N -2.89828 1.11246 1.40692 0
M  V30 11 N -3.02072 -0.0566323 -0.714241 0
M  V30 12 H 3.24303 1.79495 -0.432186 0
M  V30 13 H 1.14693 1.10921 1.37735 0
M  V30 14 H 0.894791 2.31979 0.0920901 0
M  V30 15 H 1.60185 0.75969 -1.64888 0
M  V30 16 H 3.05669 -0.534082 0.193318 0
M  V30 17 H 2.29631 -1.4653 -1.19746 0
M  V30 18 H 1.51438 -2.56474 0.8666 0
M  V30 19 H 0.893858 -0.912976 1.41156 0
M  V30 20 H 0.242614 -2.19072 -1.23961 0
M  V30 21 H -0.929634 -1.99228 0.18022 0
M  V30 22 H -0.597019 -0.0234542 -1.71427 0
M  V30 23 H -3.4067 0.591401 2.13433 0
M  V30 24 H -2.877 2.14684 1.46654 0
M  V30 25 H -3.43181 0.598019 -1.40825 0
M  V30 26 H -3.22108 -1.07038 -0.824547 0
M  V30 END ATOM
M  V30 BEGIN BOND
M  V30 1 1 1 2
M  V30 2 1 2 3
M  V30 3 1 3 4
M  V30 4 1 4 5
M  V30 5 1 5 6
M  V30 6 1 6 7
M  V30 7 1 7 8
M  V30 8 2 8 9 CFG=2
M  V30 9 1 9 10
M  V30 10 1 9 11
M  V30 11 1 7 3
M  V30 12 1 1 12
M  V30 13 1 2 13
M  V30 14 1 2 14
M  V30 15 1 3 15
M  V30 16 1 4 16
M  V30 17 1 4 17
M  V30 18 1 5 18
M  V30 19 1 5 19
M  V30 20 1 6 20
M  V30 21 1 6 21
M  V30 22 1 7 22
M  V30 23 1 10 23
M  V30 24 1 10 24
M  V30 25 1 11 25
M  V30 26 1 11 26
M  V30 END BOND
M  V30 END CTAB
M  END
