
     RDKit          3D

  0  0  0  0  0  0  0  0  0  0999 V3000
M  V30 BEGIN CTAB
M  V30 COUNTS 37 39 0 0 0
M  V30 BEGIN ATOM
M  V30 1 N -2.72625 -2.4468 1.5868 0
M  V30 2 C -1.98833 -2.22112 0.393484 0
M  V30 3 C -0.802407 -1.35951 0.434964 0
M  V30 4 C 0.428209 -2.01365 0.376393 0
M  V30 5 N 0.449611 -3.43193 0.689679 0
M  V30 6 N 1.56869 -1.43841 0.170071 0
M  V30 7 C 1.6011 -0.077479 0.0120687 0
M  V30 8 N 0.468702 0.556296 0.0671103 0
M  V30 9 C -0.779625 -0.0152213 0.277921 0
M  V30 10 C -1.97826 0.703002 0.108437 0
M  V30 11 C -2.29505 1.2058 -1.17145 0
M  V30 12 C -3.46012 1.9343 -1.38621 0
M  V30 13 C -4.35578 2.19938 -0.371778 0
M  V30 14 C -4.05037 1.71615 0.875183 0
M  V30 15 C -2.88493 0.979025 1.09949 0
M  V30 16 C 2.89674 0.517956 -0.268467 0
M  V30 17 C 3.1807 1.86448 0.0208361 0
M  V30 18 C 4.35639 2.43765 -0.285828 0
M  V30 19 C 5.37033 1.67636 -0.92343 0
M  V30 20 C 5.10506 0.334836 -1.21572 0
M  V30 21 C 3.89321 -0.234593 -0.901848 0
M  V30 22 H -2.93425 -3.51551 1.59107 0
M  V30 23 H -2.25908 -2.29794 2.4883 0
M  V30 24 H -1.82366 -3.12518 -0.205739 0
M  V30 25 H -2.75073 -1.60392 -0.293613 0
M  V30 26 H 0.549216 -4.12127 -0.0359397 0
M  V30 27 H 0.386253 -3.69243 1.69255 0
M  V30 28 H -1.66663 1.07865 -2.03038 0
M  V30 29 H -3.69897 2.32486 -2.38854 0
M  V30 30 H -5.27159 2.78525 -0.522128 0
M  V30 31 H -4.74183 1.96624 1.72909 0
M  V30 32 H -2.68326 0.618953 2.06401 0
M  V30 33 H 2.43742 2.47882 0.489592 0
M  V30 34 H 4.59636 3.50677 -0.104683 0
M  V30 35 H 6.23954 2.2078 -1.18817 0
M  V30 36 H 5.89175 -0.195546 -1.71542 0
M  V30 37 H 3.73185 -1.30208 -1.15771 0
M  V30 END ATOM
M  V30 BEGIN BOND
M  V30 1 1 1 2
M  V30 2 1 2 3
M  V30 3 2 3 4
M  V30 4 1 4 5
M  V30 5 1 4 6
M  V30 6 2 6 7
M  V30 7 1 7 8
M  V30 8 2 8 9
M  V30 9 1 9 10
M  V30 10 2 10 11
M  V30 11 1 11 12
M  V30 12 2 12 13
M  V30 13 1 13 14
M  V30 14 2 14 15
M  V30 15 1 7 16
M  V30 16 2 16 17
M  V30 17 1 17 18
M  V30 18 2 18 19
M  V30 19 1 19 20
M  V30 20 2 20 21
M  V30 21 1 9 3
M  V30 22 1 15 10
M  V30 23 1 21 16
M  V30 24 1 1 22
M  V30 25 1 1 23
M  V30 26 1 2 24
M  V30 27 1 2 25
M  V30 28 1 5 26
M  V30 29 1 5 27
M  V30 30 1 11 28
M  V30 31 1 12 29
M  V30 32 1 13 30
M  V30 33 1 14 31
M  V30 34 1 15 32
M  V30 35 1 17 33
M  V30 36 1 18 34
M  V30 37 1 19 35
M  V30 38 1 20 36
M  V30 39 1 21 37
M  V30 END BOND
M  V30 END CTAB
M  END
