
     RDKit          3D

  0  0  0  0  0  0  0  0  0  0999 V3000
M  V30 BEGIN CTAB
M  V30 COUNTS 27 27 0 0 0
M  V30 BEGIN ATOM
M  V30 1 C -3.02087 0.669959 0.236694 0
M  V30 2 C -1.5945 0.614286 -0.357172 0
M  V30 3 C -0.602597 0.225837 0.740399 0
M  V30 4 C 0.771755 0.139584 0.163589 0
M  V30 5 C 1.48675 -1.01473 0.507977 0
M  V30 6 C 0.874193 -2.05209 1.371 0
M  V30 7 C 2.76937 -1.1057 -0.032192 0
M  V30 8 C 3.29588 -0.1122 -0.852066 0
M  V30 9 N 2.53013 0.946301 -1.11085 0
M  V30 10 C 1.27335 1.11739 -0.62465 0
M  V30 11 N 0.62489 2.35359 -0.892316 0
M  V30 12 F -0.579913 1.29452 1.63708 0
M  V30 13 N -1.63973 -0.615929 -1.22952 0
M  V30 14 H -3.01668 1.10012 1.22165 0
M  V30 15 H -3.5485 -0.296315 0.15448 0
M  V30 16 H -3.64656 1.38082 -0.403681 0
M  V30 17 H -1.48908 1.48896 -0.915414 0
M  V30 18 H -0.963044 -0.658317 1.23805 0
M  V30 19 H 0.149877 -2.63806 0.747051 0
M  V30 20 H 1.662 -2.73891 1.7515 0
M  V30 21 H 0.40623 -1.65611 2.30035 0
M  V30 22 H 3.34215 -1.99912 0.166097 0
M  V30 23 H 4.28758 -0.238048 -1.25981 0
M  V30 24 H 0.571962 2.72169 -1.82855 0
M  V30 25 H 0.21878 2.88749 -0.10499 0
M  V30 26 H -2.22409 -0.443123 -2.03018 0
M  V30 27 H -1.93934 -1.37189 -0.594541 0
M  V30 END ATOM
M  V30 BEGIN BOND
M  V30 1 1 1 2
M  V30 2 1 2 3
M  V30 3 1 3 4
M  V30 4 2 4 5
M  V30 5 1 5 6
M  V30 6 1 5 7
M  V30 7 2 7 8
M  V30 8 1 8 9
M  V30 9 2 9 10
M  V30 10 1 10 11
M  V30 11 1 3 12
M  V30 12 1 2 13
M  V30 13 1 10 4
M  V30 14 1 1 14
M  V30 15 1 1 15
M  V30 16 1 1 16
M  V30 17 1 2 17
M  V30 18 1 3 18
M  V30 19 1 6 19
M  V30 20 1 6 20
M  V30 21 1 6 21
M  V30 22 1 7 22
M  V30 23 1 8 23
M  V30 24 1 11 24
M  V30 25 1 11 25
M  V30 26 1 13 26
M  V30 27 1 13 27
M  V30 END BOND
M  V30 END CTAB
M  END
