
     RDKit          3D

  0  0  0  0  0  0  0  0  0  0999 V3000
M  V30 BEGIN CTAB
M  V30 COUNTS 24 24 0 0 0
M  V30 BEGIN ATOM
M  V30 1 C -2.30556 -1.40669 -0.0927416 0
M  V30 2 O -1.51719 -0.68502 0.855025 0
M  V30 3 C -0.264807 -0.246011 0.424314 0
M  V30 4 C -0.0871588 1.00725 -0.0857941 0
M  V30 5 O -1.05212 1.9286 -0.214789 0
M  V30 6 C -2.35714 2.13197 0.06497 0
M  V30 7 F -2.61517 3.37738 0.660628 0
M  V30 8 F -3.19096 2.01754 -1.07424 0
M  V30 9 C 1.21749 1.36913 -0.512439 0
M  V30 10 C 2.24272 0.481419 -0.404972 0
M  V30 11 C 2.06991 -0.78924 0.113387 0
M  V30 12 C 0.810709 -1.15003 0.528105 0
M  V30 13 N 0.572784 -2.44359 1.06949 0
M  V30 14 N 3.55831 0.833203 -0.830249 0
M  V30 15 H -2.63338 -2.38456 0.306831 0
M  V30 16 H -3.21473 -0.861036 -0.392206 0
M  V30 17 H -1.72577 -1.61049 -1.01303 0
M  V30 18 H -2.79093 1.40546 0.77185 0
M  V30 19 H 1.33746 2.37421 -0.918777 0
M  V30 20 H 2.88943 -1.47293 0.190576 0
M  V30 21 H 0.696645 -3.28571 0.46525 0
M  V30 22 H 0.281194 -2.52708 2.05252 0
M  V30 23 H 4.08801 0.199904 -1.46893 0
M  V30 24 H 3.99025 1.73633 -0.494783 0
M  V30 END ATOM
M  V30 BEGIN BOND
M  V30 1 1 1 2
M  V30 2 1 2 3
M  V30 3 2 3 4
M  V30 4 1 4 5
M  V30 5 1 5 6
M  V30 6 1 6 7
M  V30 7 1 6 8
M  V30 8 1 4 9
M  V30 9 2 9 10
M  V30 10 1 10 11
M  V30 11 2 11 12
M  V30 12 1 12 13
M  V30 13 1 10 14
M  V30 14 1 12 3
M  V30 15 1 1 15
M  V30 16 1 1 16
M  V30 17 1 1 17
M  V30 18 1 6 18
M  V30 19 1 9 19
M  V30 20 1 11 20
M  V30 21 1 13 21
M  V30 22 1 13 22
M  V30 23 1 14 23
M  V30 24 1 14 24
M  V30 END BOND
M  V30 END CTAB
M  END
