
     RDKit          3D

  0  0  0  0  0  0  0  0  0  0999 V3000
M  V30 BEGIN CTAB
M  V30 COUNTS 40 40 0 0 0
M  V30 BEGIN ATOM
M  V30 1 C -4.50033 -0.939799 -0.140265 0
M  V30 2 C -3.13193 -1.01968 -0.833509 0
M  V30 3 C -2.50381 0.323597 -0.655563 0
M  V30 4 C -1.15498 0.488269 -1.27398 0
M  V30 5 N -0.0838187 -0.245726 -0.950165 0
M  V30 6 C 0.984871 -0.978155 -0.627119 0
M  V30 7 O 1.1237 -2.22325 -0.739319 0
M  V30 8 C 2.2106 -0.334274 -0.0552274 0
M  V30 9 C 2.21063 1.03463 0.176473 0
M  V30 10 C 3.33847 1.63025 0.721955 0
M  V30 11 F 3.34379 2.95716 0.94423 0
M  V30 12 C 4.47761 0.87847 1.04373 0
M  V30 13 C 4.45797 -0.477209 0.807756 0
M  V30 14 C 3.3209 -1.058 0.260599 0
M  V30 15 N 3.32798 -2.46382 0.0328037 0
M  V30 16 N 5.57979 -1.28421 1.1143 0 CHG=1
M  V30 17 O 5.90744 -2.30386 0.488654 0
M  V30 18 O 6.36913 -0.912455 2.18429 0 CHG=-1
M  V30 19 C -2.57764 0.685252 0.792465 0
M  V30 20 C -1.96528 2.01252 1.14801 0
M  V30 21 N -3.36309 1.28443 -1.38915 0
M  V30 22 H -4.98764 0.0548861 -0.30262 0
M  V30 23 H -4.44856 -1.15458 0.930167 0
M  V30 24 H -5.18413 -1.70142 -0.588731 0
M  V30 25 H -2.54805 -1.77564 -0.233815 0
M  V30 26 H -3.22234 -1.35458 -1.86037 0
M  V30 27 H -0.96956 1.64672 -1.15714 0
M  V30 28 H -1.34381 0.481605 -2.41975 0
M  V30 29 H -0.778974 -1.38502 -1.29687 0
M  V30 30 H 1.35874 1.65238 -0.0563147 0
M  V30 31 H 5.36123 1.3363 1.47104 0
M  V30 32 H 3.49715 -2.79757 -0.934975 0
M  V30 33 H 3.16971 -3.09295 0.832616 0
M  V30 34 H -2.124 -0.0669932 1.46872 0
M  V30 35 H -3.66434 0.74628 1.07725 0
M  V30 36 H -2.01988 2.1623 2.25441 0
M  V30 37 H -0.899245 2.06049 0.802098 0
M  V30 38 H -2.49019 2.81487 0.614965 0
M  V30 39 H -3.14396 1.09819 -2.41722 0
M  V30 40 H -2.93415 2.22062 -1.23444 0
M  V30 END ATOM
M  V30 BEGIN BOND
M  V30 1 1 1 2
M  V30 2 1 2 3
M  V30 3 1 3 4
M  V30 4 1 4 5
M  V30 5 1 5 6
M  V30 6 2 6 7
M  V30 7 1 6 8
M  V30 8 2 8 9
M  V30 9 1 9 10
M  V30 10 1 10 11
M  V30 11 2 10 12
M  V30 12 1 12 13
M  V30 13 2 13 14
M  V30 14 1 14 15
M  V30 15 1 13 16
M  V30 16 2 16 17
M  V30 17 1 16 18
M  V30 18 1 3 19
M  V30 19 1 19 20
M  V30 20 1 3 21
M  V30 21 1 14 8
M  V30 22 1 1 22
M  V30 23 1 1 23
M  V30 24 1 1 24
M  V30 25 1 2 25
M  V30 26 1 2 26
M  V30 27 1 4 27
M  V30 28 1 4 28
M  V30 29 1 5 29
M  V30 30 1 9 30
M  V30 31 1 12 31
M  V30 32 1 15 32
M  V30 33 1 15 33
M  V30 34 1 19 34
M  V30 35 1 19 35
M  V30 36 1 20 36
M  V30 37 1 20 37
M  V30 38 1 20 38
M  V30 39 1 21 39
M  V30 40 1 21 40
M  V30 END BOND
M  V30 END CTAB
M  END
