
     RDKit          3D

  0  0  0  0  0  0  0  0  0  0999 V3000
M  V30 BEGIN CTAB
M  V30 COUNTS 30 30 0 0 0
M  V30 BEGIN ATOM
M  V30 1 N -2.2829 2.45225 -0.676742 0
M  V30 2 C -1.33032 2.24391 0.371647 0
M  V30 3 C -0.596404 0.942611 0.253676 0
M  V30 4 C -1.47526 -0.263416 0.289678 0
M  V30 5 C -0.559761 -1.45612 0.480639 0
M  V30 6 C -1.36518 -2.73539 0.440593 0
M  V30 7 C 0.581836 -1.49026 -0.471623 0
M  V30 8 N 1.11294 -0.268258 -0.879924 0
M  V30 9 C 0.253681 0.85014 -0.981076 0
M  V30 10 S 2.72371 0.0586546 -0.488291 0
M  V30 11 O 3.63523 -0.962475 -1.15073 0
M  V30 12 O 3.1142 1.3949 -1.08091 0
M  V30 13 N 3.05824 0.106515 1.18333 0
M  V30 14 H -2.76743 3.36956 -0.472802 0
M  V30 15 H -1.82096 2.59512 -1.60374 0
M  V30 16 H -0.577734 3.05589 0.337524 0
M  V30 17 H -1.87104 2.22946 1.34486 0
M  V30 18 H 0.100823 0.876316 1.12815 0
M  V30 19 H -2.14555 -0.207402 1.16159 0
M  V30 20 H -2.03997 -0.429024 -0.651889 0
M  V30 21 H -0.151321 -1.35825 1.52517 0
M  V30 22 H -1.10248 -3.38471 -0.412841 0
M  V30 23 H -2.4649 -2.51832 0.398376 0
M  V30 24 H -1.22442 -3.34273 1.35818 0
M  V30 25 H 0.248316 -2.07226 -1.37592 0
M  V30 26 H 1.39382 -2.11216 0.00236072 0
M  V30 27 H 0.849159 1.77748 -1.05657 0
M  V30 28 H -0.370648 0.800783 -1.90841 0
M  V30 29 H 3.15532 -0.834334 1.59442 0
M  V30 30 H 3.91902 0.681511 1.34127 0
M  V30 END ATOM
M  V30 BEGIN BOND
M  V30 1 1 1 2
M  V30 2 1 2 3
M  V30 3 1 3 4
M  V30 4 1 4 5
M  V30 5 1 5 6
M  V30 6 1 5 7
M  V30 7 1 7 8
M  V30 8 1 8 9
M  V30 9 1 8 10
M  V30 10 2 10 11
M  V30 11 2 10 12
M  V30 12 1 10 13
M  V30 13 1 9 3
M  V30 14 1 1 14
M  V30 15 1 1 15
M  V30 16 1 2 16
M  V30 17 1 2 17
M  V30 18 1 3 18
M  V30 19 1 4 19
M  V30 20 1 4 20
M  V30 21 1 5 21
M  V30 22 1 6 22
M  V30 23 1 6 23
M  V30 24 1 6 24
M  V30 25 1 7 25
M  V30 26 1 7 26
M  V30 27 1 9 27
M  V30 28 1 9 28
M  V30 29 1 13 29
M  V30 30 1 13 30
M  V30 END BOND
M  V30 END CTAB
M  END
