
     RDKit          3D

  0  0  0  0  0  0  0  0  0  0999 V3000
M  V30 BEGIN CTAB
M  V30 COUNTS 59 61 0 0 0
M  V30 BEGIN ATOM
M  V30 1 C -7.88057 -3.51499 -0.183031 0
M  V30 2 O -7.04941 -2.45056 -0.265622 0
M  V30 3 C -5.76845 -2.30373 -0.335843 0
M  V30 4 O -5.08868 -3.49848 -0.29813 0
M  V30 5 C -4.8678 -1.21426 -0.450094 0 CFG=2
M  V30 6 N -3.51197 -1.36093 -0.0657194 0
M  V30 7 C -2.49874 -1.90853 -0.907906 0
M  V30 8 O -2.77989 -2.35193 -2.00708 0
M  V30 9 C -1.11715 -1.88662 -0.385613 0
M  V30 10 C -0.753092 -2.63476 0.651654 0
M  V30 11 C 0.480358 -2.53905 1.22215 0
M  V30 12 C 1.4675 -1.61433 0.735014 0
M  V30 13 C 1.05657 -0.878233 -0.326025 0
M  V30 14 C -0.217703 -0.973057 -0.917758 0
M  V30 15 N 2.71164 -1.58888 1.34782 0
M  V30 16 C 3.86768 -0.941945 1.59893 0
M  V30 17 C 4.94813 -0.394437 0.869928 0
M  V30 18 N 4.99336 0.747822 0.174652 0
M  V30 19 C 6.146 1.329 -0.239312 0
M  V30 20 C 6.24634 2.55365 -0.903098 0
M  V30 21 N 5.05635 3.28707 -1.19313 0
M  V30 22 N 7.45267 3.0902 -1.22417 0
M  V30 23 C 8.61288 2.48719 -0.921891 0
M  V30 24 N 8.54313 1.29948 -0.282252 0
M  V30 25 C 7.36408 0.744257 0.044769 0
M  V30 26 N 7.37439 -0.415657 0.739772 0
M  V30 27 C 6.2613 -0.959045 1.13298 0
M  V30 28 C 6.20391 -2.23244 1.84262 0
M  V30 29 N 6.19124 -3.27128 2.37116 0
M  V30 30 N 9.9138 3.05365 -1.20792 0
M  V30 31 C -5.44855 0.119422 0.0182223 0
M  V30 32 C -4.39033 1.20772 -0.111721 0
M  V30 33 C -5.0422 2.47276 0.316498 0
M  V30 34 O -4.94206 2.95369 1.42899 0
M  V30 35 O -5.83781 3.14892 -0.64782 0
M  V30 36 C -6.45548 4.35744 -0.249921 0
M  V30 37 H -8.46669 -3.6286 0.778832 0
M  V30 38 H -7.3979 -4.50281 -0.407652 0
M  V30 39 H -8.68565 -3.40671 -0.989939 0
M  V30 40 H -4.82704 -1.08507 -1.66083 0
M  V30 41 H -3.26205 -1.01718 0.917355 0
M  V30 42 H -1.43419 -3.38629 1.11337 0
M  V30 43 H 0.750286 -3.15483 2.03907 0
M  V30 44 H 1.73551 -0.141298 -0.785712 0
M  V30 45 H -0.523725 -0.377076 -1.75624 0
M  V30 46 H 2.81407 -2.61752 1.93506 0
M  V30 47 H 4.28288 -1.12432 2.68692 0
M  V30 48 H 3.36427 0.167313 2.00547 0
M  V30 49 H 5.06282 4.32943 -1.03068 0
M  V30 50 H 4.21497 2.85479 -1.54264 0
M  V30 51 H 10.2607 3.88819 -0.616354 0
M  V30 52 H 10.5381 2.70012 -1.9487 0
M  V30 53 H -6.30764 0.363596 -0.661898 0
M  V30 54 H -5.81134 0.114079 1.05049 0
M  V30 55 H -3.56076 0.941177 0.58517 0
M  V30 56 H -4.0829 1.21437 -1.17192 0
M  V30 57 H -7.5115 4.29431 -0.650794 0
M  V30 58 H -6.48315 4.43743 0.847788 0
M  V30 59 H -5.91058 5.21778 -0.68229 0
M  V30 END ATOM
M  V30 BEGIN BOND
M  V30 1 1 1 2
M  V30 2 1 2 3
M  V30 3 2 3 4
M  V30 4 1 3 5
M  V30 5 1 5 6
M  V30 6 1 6 7
M  V30 7 2 7 8
M  V30 8 1 7 9
M  V30 9 2 9 10
M  V30 10 1 10 11
M  V30 11 2 11 12
M  V30 12 1 12 13
M  V30 13 2 13 14
M  V30 14 1 12 15
M  V30 15 1 15 16
M  V30 16 1 16 17
M  V30 17 2 17 18
M  V30 18 1 18 19
M  V30 19 2 19 20
M  V30 20 1 20 21
M  V30 21 1 20 22
M  V30 22 2 22 23
M  V30 23 1 23 24
M  V30 24 2 24 25
M  V30 25 1 25 26
M  V30 26 2 26 27
M  V30 27 1 27 28
M  V30 28 3 28 29
M  V30 29 1 23 30
M  V30 30 1 5 31
M  V30 31 1 31 32
M  V30 32 1 32 33
M  V30 33 2 33 34
M  V30 34 1 33 35
M  V30 35 1 35 36
M  V30 36 1 14 9
M  V30 37 1 27 17
M  V30 38 1 25 19
M  V30 39 1 1 37
M  V30 40 1 1 38
M  V30 41 1 1 39
M  V30 42 1 5 40 CFG=3
M  V30 43 1 6 41
M  V30 44 1 10 42
M  V30 45 1 11 43
M  V30 46 1 13 44
M  V30 47 1 14 45
M  V30 48 1 15 46
M  V30 49 1 16 47
M  V30 50 1 16 48
M  V30 51 1 21 49
M  V30 52 1 21 50
M  V30 53 1 30 51
M  V30 54 1 30 52
M  V30 55 1 31 53
M  V30 56 1 31 54
M  V30 57 1 32 55
M  V30 58 1 32 56
M  V30 59 1 36 57
M  V30 60 1 36 58
M  V30 61 1 36 59
M  V30 END BOND
M  V30 END CTAB
M  END
