
     RDKit          3D

  0  0  0  0  0  0  0  0  0  0999 V3000
M  V30 BEGIN CTAB
M  V30 COUNTS 47 50 0 0 0
M  V30 BEGIN ATOM
M  V30 1 N -8.08248 -2.60801 -1.39103 0
M  V30 2 C -7.02176 -1.91507 -0.751338 0
M  V30 3 N -6.34817 -0.937066 -1.36819 0
M  V30 4 C -5.32249 -0.270695 -0.742667 0
M  V30 5 N -4.72636 0.730311 -1.54623 0
M  V30 6 C -4.93678 -0.565036 0.528872 0
M  V30 7 C -5.62018 -1.57495 1.18831 0
M  V30 8 C -6.63459 -2.21486 0.533247 0
M  V30 9 C -3.84342 0.13856 1.20853 0
M  V30 10 C -3.04352 1.14564 0.769737 0
M  V30 11 C -2.14034 1.48192 1.79683 0
M  V30 12 C -1.09779 2.53322 1.72169 0
M  V30 13 C 0.187736 2.00562 1.20848 0
M  V30 14 C 1.13585 1.49953 2.07404 0
M  V30 15 N 2.32307 1.00696 1.65639 0
M  V30 16 C 2.64664 0.984764 0.350866 0
M  V30 17 O 3.85187 0.490051 -0.129648 0
M  V30 18 C 4.84225 -0.0338575 0.724037 0
M  V30 19 C 5.97948 -0.464644 -0.112659 0
M  V30 20 C 6.99792 0.404537 -0.407954 0
M  V30 21 C 8.05759 -0.0310424 -1.19992 0
M  V30 22 C 8.07162 -1.33916 -1.68154 0
M  V30 23 C 7.05077 -2.20849 -1.38486 0
M  V30 24 C 6.01155 -1.76074 -0.600727 0
M  V30 25 C 1.72637 1.48139 -0.546607 0
M  V30 26 C 0.500326 1.99198 -0.135737 0
M  V30 27 N -2.46417 0.64543 2.78966 0
M  V30 28 O -3.4413 -0.123514 2.44871 0
M  V30 29 H -7.988 -2.81147 -2.40734 0
M  V30 30 H -8.95056 -2.92854 -0.91659 0
M  V30 31 H -3.97826 0.504379 -2.23751 0
M  V30 32 H -5.06495 1.71163 -1.42149 0
M  V30 33 H -5.31311 -1.80731 2.19687 0
M  V30 34 H -7.17973 -3.00682 1.03336 0
M  V30 35 H -3.01695 1.66591 -0.170334 0
M  V30 36 H -1.41307 3.35346 1.04515 0
M  V30 37 H -0.984885 2.99212 2.73566 0
M  V30 38 H 0.917844 1.49601 3.1501 0
M  V30 39 H 5.15484 0.691227 1.50405 0
M  V30 40 H 4.3931 -0.897777 1.29356 0
M  V30 41 H 7.01316 1.42104 -0.0493545 0
M  V30 42 H 8.88717 0.591113 -1.4715 0
M  V30 43 H 8.89587 -1.69255 -2.30284 0
M  V30 44 H 7.04975 -3.21657 -1.74892 0
M  V30 45 H 5.17762 -2.41295 -0.337413 0
M  V30 46 H 1.96293 1.47401 -1.59527 0
M  V30 47 H -0.222445 2.38029 -0.82221 0
M  V30 END ATOM
M  V30 BEGIN BOND
M  V30 1 1 1 2
M  V30 2 2 2 3
M  V30 3 1 3 4
M  V30 4 1 4 5
M  V30 5 2 4 6
M  V30 6 1 6 7
M  V30 7 2 7 8
M  V30 8 1 6 9
M  V30 9 2 9 10
M  V30 10 1 10 11
M  V30 11 1 11 12
M  V30 12 1 12 13
M  V30 13 2 13 14
M  V30 14 1 14 15
M  V30 15 2 15 16
M  V30 16 1 16 17
M  V30 17 1 17 18
M  V30 18 1 18 19
M  V30 19 2 19 20
M  V30 20 1 20 21
M  V30 21 2 21 22
M  V30 22 1 22 23
M  V30 23 2 23 24
M  V30 24 1 16 25
M  V30 25 2 25 26
M  V30 26 2 11 27
M  V30 27 1 27 28
M  V30 28 1 8 2
M  V30 29 1 28 9
M  V30 30 1 26 13
M  V30 31 1 24 19
M  V30 32 1 1 29
M  V30 33 1 1 30
M  V30 34 1 5 31
M  V30 35 1 5 32
M  V30 36 1 7 33
M  V30 37 1 8 34
M  V30 38 1 10 35
M  V30 39 1 12 36
M  V30 40 1 12 37
M  V30 41 1 14 38
M  V30 42 1 18 39
M  V30 43 1 18 40
M  V30 44 1 20 41
M  V30 45 1 21 42
M  V30 46 1 22 43
M  V30 47 1 23 44
M  V30 48 1 24 45
M  V30 49 1 25 46
M  V30 50 1 26 47
M  V30 END BOND
M  V30 END CTAB
M  END
