
     RDKit          3D

  0  0  0  0  0  0  0  0  0  0999 V3000
M  V30 BEGIN CTAB
M  V30 COUNTS 56 59 0 0 0
M  V30 BEGIN ATOM
M  V30 1 N -3.5374 2.88883 1.62009 0
M  V30 2 C -3.7312 2.25308 0.374476 0 CFG=1
M  V30 3 C -3.28315 3.12228 -0.758625 0
M  V30 4 C -1.80985 3.07738 -1.04119 0
M  V30 5 C -1.27739 1.6615 -1.16428 0
M  V30 6 N -2.31832 0.705304 -0.883481 0
M  V30 7 C -3.01853 0.911775 0.398709 0
M  V30 8 C -2.66154 -0.343915 -1.76765 0
M  V30 9 C -1.82682 -1.41662 -2.09307 0
M  V30 10 N -0.573008 -1.49701 -1.4685 0
M  V30 11 C 0.473918 -2.4142 -1.6622 0
M  V30 12 O 0.442794 -3.36105 -2.47852 0
M  V30 13 C 1.73039 -2.29692 -0.86662 0
M  V30 14 N 1.87472 -1.33856 0.0277091 0
M  V30 15 C 3.00009 -1.15371 0.810378 0
M  V30 16 C 3.98102 -2.05908 0.583035 0
M  V30 17 C 3.87379 -3.09121 -0.352374 0
M  V30 18 C 2.73097 -3.20546 -1.08282 0
M  V30 19 N 2.57595 -4.26181 -2.0661 0
M  V30 20 C 2.9986 0.00154414 1.69816 0
M  V30 21 C 2.29056 1.12688 1.19441 0
M  V30 22 C 2.09117 2.25357 1.935 0
M  V30 23 C 2.57416 2.35163 3.22259 0
M  V30 24 C 3.25278 1.28524 3.7186 0
M  V30 25 C 3.47259 0.102638 2.96619 0
M  V30 26 C 4.23318 -0.968465 3.60907 0
M  V30 27 F 4.35643 -0.59976 4.99513 0
M  V30 28 F 5.61093 -0.939223 3.27717 0
M  V30 29 F 3.69075 -2.19848 3.64464 0
M  V30 30 C -2.28543 -2.35474 -2.98931 0
M  V30 31 N -3.48185 -2.29535 -3.56233 0
M  V30 32 C -4.30547 -1.27704 -3.26831 0
M  V30 33 C -3.91226 -0.302314 -2.38026 0
M  V30 34 H -2.66638 3.3061 1.83923 0
M  V30 35 H -4.2291 2.73965 2.33508 0
M  V30 36 H -4.84291 2.09635 0.26385 0
M  V30 37 H -3.53266 4.1875 -0.541838 0
M  V30 38 H -3.87929 2.88504 -1.68857 0
M  V30 39 H -1.3057 3.65646 -0.249839 0
M  V30 40 H -1.64058 3.59755 -1.99905 0
M  V30 41 H -0.83078 1.50956 -2.14484 0
M  V30 42 H -0.522146 1.57074 -0.328909 0
M  V30 43 H -2.25043 0.955354 1.1939 0
M  V30 44 H -3.76021 0.133664 0.597759 0
M  V30 45 H -0.379152 -0.755376 -0.718303 0
M  V30 46 H 4.93627 -1.99753 1.10209 0
M  V30 47 H 4.69482 -3.77736 -0.47999 0
M  V30 48 H 2.31031 -5.18731 -1.67168 0
M  V30 49 H 2.71937 -4.09825 -3.06814 0
M  V30 50 H 1.90322 1.07395 0.189035 0
M  V30 51 H 1.55054 3.12575 1.56359 0
M  V30 52 H 2.42658 3.23521 3.82285 0
M  V30 53 H 3.63582 1.36353 4.73647 0
M  V30 54 H -1.67281 -3.22475 -3.28339 0
M  V30 55 H -5.27734 -1.27164 -3.76345 0
M  V30 56 H -4.61999 0.509078 -2.17237 0
M  V30 END ATOM
M  V30 BEGIN BOND
M  V30 1 1 1 2
M  V30 2 1 2 3
M  V30 3 1 3 4
M  V30 4 1 4 5
M  V30 5 1 5 6
M  V30 6 1 6 7
M  V30 7 1 6 8
M  V30 8 1 8 9
M  V30 9 1 9 10
M  V30 10 1 10 11
M  V30 11 2 11 12
M  V30 12 1 11 13
M  V30 13 2 13 14
M  V30 14 1 14 15
M  V30 15 2 15 16
M  V30 16 1 16 17
M  V30 17 2 17 18
M  V30 18 1 18 19
M  V30 19 1 15 20
M  V30 20 2 20 21
M  V30 21 1 21 22
M  V30 22 2 22 23
M  V30 23 1 23 24
M  V30 24 2 24 25
M  V30 25 1 25 26
M  V30 26 1 26 27
M  V30 27 1 26 28
M  V30 28 1 26 29
M  V30 29 2 9 30
M  V30 30 1 30 31
M  V30 31 2 31 32
M  V30 32 1 32 33
M  V30 33 1 7 2
M  V30 34 2 33 8
M  V30 35 1 18 13
M  V30 36 1 25 20
M  V30 37 1 1 34
M  V30 38 1 1 35
M  V30 39 1 2 36 CFG=3
M  V30 40 1 3 37
M  V30 41 1 3 38
M  V30 42 1 4 39
M  V30 43 1 4 40
M  V30 44 1 5 41
M  V30 45 1 5 42
M  V30 46 1 7 43
M  V30 47 1 7 44
M  V30 48 1 10 45
M  V30 49 1 16 46
M  V30 50 1 17 47
M  V30 51 1 19 48
M  V30 52 1 19 49
M  V30 53 1 21 50
M  V30 54 1 22 51
M  V30 55 1 23 52
M  V30 56 1 24 53
M  V30 57 1 30 54
M  V30 58 1 32 55
M  V30 59 1 33 56
M  V30 END BOND
M  V30 END CTAB
M  END
