
     RDKit          3D

  0  0  0  0  0  0  0  0  0  0999 V3000
M  V30 BEGIN CTAB
M  V30 COUNTS 39 41 0 0 0
M  V30 BEGIN ATOM
M  V30 1 N -5.76195 -2.05685 1.44265 0
M  V30 2 C -5.55641 -0.773165 0.902905 0
M  V30 3 N -4.37343 -0.153907 1.09961 0
M  V30 4 C -4.13517 1.07757 0.599163 0
M  V30 5 N -2.86242 1.64947 0.8568 0
M  V30 6 N -1.75674 1.48131 0.01381 0
M  V30 7 C -0.821753 0.644302 0.20615 0
M  V30 8 C 0.3189 0.505168 -0.708227 0
M  V30 9 C 0.406848 1.30111 -1.82965 0
M  V30 10 C 1.49511 1.15457 -2.68412 0
M  V30 11 C 2.47876 0.236848 -2.4334 0
M  V30 12 C 2.39953 -0.555512 -1.325 0
M  V30 13 C 1.32332 -0.406822 -0.48493 0
M  V30 14 O 3.36688 -1.50928 -1.01166 0
M  V30 15 C 4.46704 -1.26297 -0.247766 0
M  V30 16 C 4.72783 -0.0245033 0.294758 0
M  V30 17 C 5.85218 0.222587 1.07405 0
M  V30 18 C 6.73326 -0.840253 1.29988 0
M  V30 19 C 6.48693 -2.08131 0.765602 0
M  V30 20 C 5.3612 -2.29154 -0.00325765 0
M  V30 21 N -5.09164 1.69804 -0.106983 0
M  V30 22 C -6.2826 1.11823 -0.326313 0
M  V30 23 N -6.48791 -0.106461 0.184733 0
M  V30 24 N -7.32446 1.74966 -1.07383 0
M  V30 25 H -6.24608 -2.18126 2.33526 0
M  V30 26 H -5.40891 -2.88129 0.911238 0
M  V30 27 H -2.72078 2.2318 1.71758 0
M  V30 28 H -0.882542 0.0150554 1.08429 0
M  V30 29 H -0.376361 2.02206 -2.01655 0
M  V30 30 H 1.52402 1.81119 -3.56729 0
M  V30 31 H 3.32138 0.135143 -3.11031 0
M  V30 32 H 1.2208 -1.02673 0.421151 0
M  V30 33 H 3.99609 0.758165 0.0765521 0
M  V30 34 H 6.03073 1.19006 1.48213 0
M  V30 35 H 7.6159 -0.636164 1.91475 0
M  V30 36 H 7.17217 -2.89111 0.94636 0
M  V30 37 H 5.17685 -3.27481 -0.419771 0
M  V30 38 H -7.11165 2.06658 -2.04907 0
M  V30 39 H -8.27493 1.88501 -0.641017 0
M  V30 END ATOM
M  V30 BEGIN BOND
M  V30 1 1 1 2
M  V30 2 2 2 3
M  V30 3 1 3 4
M  V30 4 1 4 5
M  V30 5 1 5 6
M  V30 6 2 6 7
M  V30 7 1 7 8
M  V30 8 2 8 9
M  V30 9 1 9 10
M  V30 10 2 10 11
M  V30 11 1 11 12
M  V30 12 2 12 13
M  V30 13 1 12 14
M  V30 14 1 14 15
M  V30 15 2 15 16
M  V30 16 1 16 17
M  V30 17 2 17 18
M  V30 18 1 18 19
M  V30 19 2 19 20
M  V30 20 2 4 21
M  V30 21 1 21 22
M  V30 22 2 22 23
M  V30 23 1 22 24
M  V30 24 1 23 2
M  V30 25 1 13 8
M  V30 26 1 20 15
M  V30 27 1 1 25
M  V30 28 1 1 26
M  V30 29 1 5 27
M  V30 30 1 7 28
M  V30 31 1 9 29
M  V30 32 1 10 30
M  V30 33 1 11 31
M  V30 34 1 13 32
M  V30 35 1 16 33
M  V30 36 1 17 34
M  V30 37 1 18 35
M  V30 38 1 19 36
M  V30 39 1 20 37
M  V30 40 1 24 38
M  V30 41 1 24 39
M  V30 END BOND
M  V30 END CTAB
M  END
