
     RDKit          3D

  0  0  0  0  0  0  0  0  0  0999 V3000
M  V30 BEGIN CTAB
M  V30 COUNTS 27 27 0 0 0
M  V30 BEGIN ATOM
M  V30 1 F -0.603647 1.43834 1.09791 0
M  V30 2 C -0.328058 0.725937 -0.0871699 0
M  V30 3 C -1.50564 -0.130229 -0.349285 0
M  V30 4 N -1.46049 -0.953803 -1.51429 0
M  V30 5 C -1.83646 -1.00118 0.849388 0
M  V30 6 C -2.71416 0.842749 -0.429087 0
M  V30 7 C 0.981359 0.128161 0.0140203 0
M  V30 8 C 1.28595 -1.17841 -0.213611 0
M  V30 9 C 2.6081 -1.61757 -0.0772872 0
M  V30 10 C 3.62334 -0.759872 0.283969 0
M  V30 11 N 3.29015 0.539699 0.505089 0
M  V30 12 C 2.0307 0.987238 0.381459 0
M  V30 13 N 1.80903 2.36935 0.639045 0
M  V30 14 H -0.236552 1.56817 -0.849243 0
M  V30 15 H -2.2605 -0.671733 -2.15134 0
M  V30 16 H -1.66989 -1.98021 -1.30845 0
M  V30 17 H -0.932047 -1.50294 1.24286 0
M  V30 18 H -2.30474 -0.336847 1.60731 0
M  V30 19 H -2.55514 -1.8104 0.525862 0
M  V30 20 H -3.6508 0.289589 -0.479421 0
M  V30 21 H -2.6222 1.43493 0.516856 0
M  V30 22 H -2.51031 1.53229 -1.25795 0
M  V30 23 H 0.583568 -1.94052 -0.500841 0
M  V30 24 H 2.86079 -2.64995 -0.255391 0
M  V30 25 H 4.65787 -1.06589 0.398466 0
M  V30 26 H 1.75345 2.99606 -0.195736 0
M  V30 27 H 1.70635 2.74706 1.60686 0
M  V30 END ATOM
M  V30 BEGIN BOND
M  V30 1 1 1 2
M  V30 2 1 2 3
M  V30 3 1 3 4
M  V30 4 1 3 5
M  V30 5 1 3 6
M  V30 6 1 2 7
M  V30 7 2 7 8
M  V30 8 1 8 9
M  V30 9 2 9 10
M  V30 10 1 10 11
M  V30 11 2 11 12
M  V30 12 1 12 13
M  V30 13 1 12 7
M  V30 14 1 2 14
M  V30 15 1 4 15
M  V30 16 1 4 16
M  V30 17 1 5 17
M  V30 18 1 5 18
M  V30 19 1 5 19
M  V30 20 1 6 20
M  V30 21 1 6 21
M  V30 22 1 6 22
M  V30 23 1 8 23
M  V30 24 1 9 24
M  V30 25 1 10 25
M  V30 26 1 13 26
M  V30 27 1 13 27
M  V30 END BOND
M  V30 END CTAB
M  END
