
     RDKit          3D

  0  0  0  0  0  0  0  0  0  0999 V3000
M  V30 BEGIN CTAB
M  V30 COUNTS 35 37 0 0 0
M  V30 BEGIN ATOM
M  V30 1 N -6.6737 0.335747 -0.645445 0
M  V30 2 C -5.26076 0.401303 -0.402355 0
M  V30 3 N -4.44711 -0.612726 -0.743569 0
M  V30 4 C -3.12994 -0.462019 -0.475961 0
M  V30 5 C -2.6071 0.667653 0.119729 0
M  V30 6 C -1.26315 0.803799 0.38466 0
M  V30 7 C -0.37438 -0.19888 0.0599517 0
M  V30 8 C 1.07953 -0.0841979 0.336124 0
M  V30 9 N 1.89455 -0.716315 -0.683569 0
M  V30 10 C 3.32856 -0.703685 -0.550233 0
M  V30 11 C 3.92846 -0.0996854 0.531844 0
M  V30 12 C 5.30121 -0.0710206 0.68788 0
M  V30 13 Cl 6.01153 0.71706 2.09409 0
M  V30 14 C 6.1293 -0.654545 -0.2479 0
M  V30 15 C 5.52833 -1.25964 -1.33194 0
M  V30 16 C 4.1473 -1.28889 -1.48963 0
M  V30 17 C -0.87075 -1.3385 -0.536133 0
M  V30 18 C -2.21592 -1.45983 -0.794549 0
M  V30 19 C -3.49541 1.6978 0.457059 0
M  V30 20 N -2.97513 2.86939 1.07153 0
M  V30 21 N -4.77738 1.51171 0.178571 0
M  V30 22 H -7.28041 0.221076 0.216638 0
M  V30 23 H -7.06476 0.396735 -1.59664 0
M  V30 24 H -0.893428 1.69124 0.846397 0
M  V30 25 H 1.33569 0.995382 0.459489 0
M  V30 26 H 1.30137 -0.555352 1.31692 0
M  V30 27 H 1.44036 -1.17185 -1.50377 0
M  V30 28 H 3.25011 0.356349 1.26074 0
M  V30 29 H 7.2066 -0.628918 -0.120068 0
M  V30 30 H 6.17497 -1.72207 -2.07427 0
M  V30 31 H 3.67497 -1.76856 -2.34863 0
M  V30 32 H -0.180313 -2.15461 -0.802537 0
M  V30 33 H -2.60238 -2.35282 -1.26136 0
M  V30 34 H -2.25486 2.85317 1.82501 0
M  V30 35 H -3.36596 3.78569 0.716515 0
M  V30 END ATOM
M  V30 BEGIN BOND
M  V30 1 1 1 2
M  V30 2 2 2 3
M  V30 3 1 3 4
M  V30 4 2 4 5
M  V30 5 1 5 6
M  V30 6 2 6 7
M  V30 7 1 7 8
M  V30 8 1 8 9
M  V30 9 1 9 10
M  V30 10 2 10 11
M  V30 11 1 11 12
M  V30 12 1 12 13
M  V30 13 2 12 14
M  V30 14 1 14 15
M  V30 15 2 15 16
M  V30 16 1 7 17
M  V30 17 2 17 18
M  V30 18 1 5 19
M  V30 19 1 19 20
M  V30 20 2 19 21
M  V30 21 1 21 2
M  V30 22 1 18 4
M  V30 23 1 16 10
M  V30 24 1 1 22
M  V30 25 1 1 23
M  V30 26 1 6 24
M  V30 27 1 8 25
M  V30 28 1 8 26
M  V30 29 1 9 27
M  V30 30 1 11 28
M  V30 31 1 14 29
M  V30 32 1 15 30
M  V30 33 1 16 31
M  V30 34 1 17 32
M  V30 35 1 18 33
M  V30 36 1 20 34
M  V30 37 1 20 35
M  V30 END BOND
M  V30 END CTAB
M  END
