
     RDKit          3D

  0  0  0  0  0  0  0  0  0  0999 V3000
M  V30 BEGIN CTAB
M  V30 COUNTS 84 85 0 0 0
M  V30 BEGIN ATOM
M  V30 1 N 1.29142 7.17114 0.131099 0
M  V30 2 C 1.3192 5.7657 -0.28695 0
M  V30 3 C -0.0534389 5.4559 -0.816028 0
M  V30 4 C -0.144475 3.98872 -1.29423 0
M  V30 5 C 0.137969 3.07009 -0.182583 0
M  V30 6 C 0.10856 1.56608 -0.532455 0
M  V30 7 N -1.18247 1.23336 -0.989457 0
M  V30 8 C -2.13756 0.228114 -0.895527 0
M  V30 9 O -2.30491 -0.454817 -2.02421 0
M  V30 10 C -3.03299 -0.289259 0.1374 0
M  V30 11 C -3.67654 0.777895 1.02805 0
M  V30 12 C -4.51305 1.73873 0.314955 0
M  V30 13 C -5.83483 1.36346 0.0543207 0
M  V30 14 C -6.63201 2.2712 -0.592207 0
M  V30 15 C -6.16011 3.51369 -0.977491 0
M  V30 16 C -4.85576 3.87398 -0.715553 0
M  V30 17 C -4.03285 2.96353 -0.0592955 0
M  V30 18 N -2.60182 -1.32271 0.989081 0
M  V30 19 C -2.62915 -2.74338 0.881164 0
M  V30 20 O -3.02263 -3.32788 1.95651 0
M  V30 21 C -2.27699 -3.57198 -0.236691 0
M  V30 22 C -3.4321 -3.78893 -1.16455 0
M  V30 23 C -4.5603 -4.48673 -0.557593 0
M  V30 24 O -4.53043 -5.01161 0.559808 0
M  V30 25 O -5.7955 -4.60347 -1.24371 0
M  V30 26 N -1.53347 -4.78393 0.032709 0
M  V30 27 C -0.234439 -5.10694 0.323673 0
M  V30 28 O -0.0439476 -6.24871 0.907919 0
M  V30 29 C 1.06751 -4.39517 0.102112 0
M  V30 30 N 0.907465 -2.96306 0.105493 0
M  V30 31 C 1.36931 -1.88103 -0.596858 0
M  V30 32 O 0.83628 -1.57417 -1.71145 0
M  V30 33 C 2.4579 -0.888772 -0.311563 0
M  V30 34 N 1.98648 0.165711 0.58194 0
M  V30 35 C 0.746085 0.832728 0.577641 0
M  V30 36 O 0.0658167 0.829851 1.64102 0
M  V30 37 C 3.60468 -1.6837 0.243579 0
M  V30 38 C 4.77971 -0.838469 0.566457 0
M  V30 39 C 5.87353 -1.7652 1.10233 0
M  V30 40 N 7.01441 -0.92461 1.4119 0
M  V30 41 C 8.19716 -1.50886 1.92943 0
M  V30 42 N 9.11824 -0.784445 2.42563 0
M  V30 43 N 8.35978 -2.91661 1.89575 0
M  V30 44 H 1.04029 7.80185 -0.65334 0
M  V30 45 H 0.555679 7.25903 0.871715 0
M  V30 46 H 1.50336 5.20134 0.653053 0
M  V30 47 H 2.09323 5.64632 -1.0471 0
M  V30 48 H -0.248005 6.11772 -1.6954 0
M  V30 49 H -0.814502 5.68609 -0.0703144 0
M  V30 50 H 0.63399 3.93667 -2.11188 0
M  V30 51 H -1.10271 3.86874 -1.80078 0
M  V30 52 H 1.19708 3.25719 0.161446 0
M  V30 53 H -0.521891 3.29407 0.668719 0
M  V30 54 H 0.853891 1.56617 -1.436 0
M  V30 55 H -1.52091 2.0373 -1.66691 0
M  V30 56 H -3.99725 -0.713287 -0.363884 0
M  V30 57 H -2.83019 1.32724 1.48459 0
M  V30 58 H -4.24646 0.315388 1.83536 0
M  V30 59 H -6.20159 0.373057 0.363184 0
M  V30 60 H -7.65818 1.99843 -0.801655 0
M  V30 61 H -6.7909 4.23153 -1.48961 0
M  V30 62 H -4.45353 4.83105 -0.999746 0
M  V30 63 H -3.01143 3.29865 0.136403 0
M  V30 64 H -2.16445 -0.960745 1.92036 0
M  V30 65 H -1.53833 -2.95712 -0.866722 0
M  V30 66 H -3.09226 -4.29202 -2.11587 0
M  V30 67 H -3.85049 -2.80222 -1.53055 0
M  V30 68 H -5.92293 -5.29897 -1.9639 0
M  V30 69 H -2.22445 -5.61317 -0.0228404 0
M  V30 70 H 1.6788 -4.56732 1.06112 0
M  V30 71 H 1.68414 -4.8457 -0.659048 0
M  V30 72 H 0.202901 -2.77071 0.917501 0
M  V30 73 H 2.82798 -0.433664 -1.24715 0
M  V30 74 H 2.70331 0.431673 1.32894 0
M  V30 75 H 3.7956 -2.51004 -0.434844 0
M  V30 76 H 3.23081 -2.11614 1.21757 0
M  V30 77 H 5.17282 -0.301362 -0.332623 0
M  V30 78 H 4.60649 -0.0775607 1.34635 0
M  V30 79 H 5.4902 -2.19194 2.06197 0
M  V30 80 H 6.09057 -2.53246 0.349821 0
M  V30 81 H 6.99797 0.120198 1.26442 0
M  V30 82 H 8.9957 0.24735 2.44913 0
M  V30 83 H 8.91061 -3.37422 2.62711 0
M  V30 84 H 7.90533 -3.43385 1.11708 0
M  V30 END ATOM
M  V30 BEGIN BOND
M  V30 1 1 1 2
M  V30 2 1 2 3
M  V30 3 1 3 4
M  V30 4 1 4 5
M  V30 5 1 5 6
M  V30 6 1 6 7
M  V30 7 1 7 8
M  V30 8 2 8 9
M  V30 9 1 8 10
M  V30 10 1 10 11
M  V30 11 1 11 12
M  V30 12 2 12 13
M  V30 13 1 13 14
M  V30 14 2 14 15
M  V30 15 1 15 16
M  V30 16 2 16 17
M  V30 17 1 10 18
M  V30 18 1 18 19
M  V30 19 2 19 20
M  V30 20 1 19 21
M  V30 21 1 21 22
M  V30 22 1 22 23
M  V30 23 2 23 24
M  V30 24 1 23 25
M  V30 25 1 21 26
M  V30 26 1 26 27
M  V30 27 2 27 28
M  V30 28 1 27 29
M  V30 29 1 29 30
M  V30 30 1 30 31
M  V30 31 2 31 32
M  V30 32 1 31 33
M  V30 33 1 33 34
M  V30 34 1 34 35
M  V30 35 2 35 36
M  V30 36 1 33 37
M  V30 37 1 37 38
M  V30 38 1 38 39
M  V30 39 1 39 40
M  V30 40 1 40 41
M  V30 41 2 41 42 CFG=2
M  V30 42 1 41 43
M  V30 43 1 35 6
M  V30 44 1 17 12
M  V30 45 1 1 44
M  V30 46 1 1 45
M  V30 47 1 2 46
M  V30 48 1 2 47
M  V30 49 1 3 48
M  V30 50 1 3 49
M  V30 51 1 4 50
M  V30 52 1 4 51
M  V30 53 1 5 52
M  V30 54 1 5 53
M  V30 55 1 6 54
M  V30 56 1 7 55
M  V30 57 1 10 56
M  V30 58 1 11 57
M  V30 59 1 11 58
M  V30 60 1 13 59
M  V30 61 1 14 60
M  V30 62 1 15 61
M  V30 63 1 16 62
M  V30 64 1 17 63
M  V30 65 1 18 64
M  V30 66 1 21 65
M  V30 67 1 22 66
M  V30 68 1 22 67
M  V30 69 1 25 68
M  V30 70 1 26 69
M  V30 71 1 29 70
M  V30 72 1 29 71
M  V30 73 1 30 72
M  V30 74 1 33 73
M  V30 75 1 34 74
M  V30 76 1 37 75
M  V30 77 1 37 76
M  V30 78 1 38 77
M  V30 79 1 38 78
M  V30 80 1 39 79
M  V30 81 1 39 80
M  V30 82 1 40 81
M  V30 83 1 42 82
M  V30 84 1 43 83
M  V30 85 1 43 84
M  V30 END BOND
M  V30 END CTAB
M  END
