
     RDKit          3D

  0  0  0  0  0  0  0  0  0  0999 V3000
M  V30 BEGIN CTAB
M  V30 COUNTS 19 19 0 0 0
M  V30 BEGIN ATOM
M  V30 1 N 3.16941 -0.441489 0.374002 0
M  V30 2 C 1.80908 -0.0674345 0.207601 0
M  V30 3 C 1.5033 1.27493 0.271955 0
M  V30 4 C 0.186385 1.65433 0.112296 0
M  V30 5 C -0.814896 0.726459 -0.107463 0
M  V30 6 C -0.523191 -0.617941 -0.174022 0
M  V30 7 C 0.79716 -0.978017 -0.0122974 0
M  V30 8 F 1.07751 -2.30076 -0.0787755 0
M  V30 9 C -1.58843 -1.57731 -0.405592 0
M  V30 10 O -1.29004 -2.78648 -0.460256 0
M  V30 11 O -2.88352 -1.16351 -0.55932 0
M  V30 12 N -2.1607 1.14523 -0.268101 0
M  V30 13 H 3.90527 -0.253669 -0.328031 0
M  V30 14 H 3.43005 -0.935982 1.26426 0
M  V30 15 H 2.26052 2.04116 0.4433 0
M  V30 16 H -0.0493775 2.70777 0.163404 0
M  V30 17 H -3.53853 -1.01813 0.196038 0
M  V30 18 H -2.75304 1.25568 0.581227 0
M  V30 19 H -2.53697 1.33517 -1.22023 0
M  V30 END ATOM
M  V30 BEGIN BOND
M  V30 1 1 1 2
M  V30 2 2 2 3
M  V30 3 1 3 4
M  V30 4 2 4 5
M  V30 5 1 5 6
M  V30 6 2 6 7
M  V30 7 1 7 8
M  V30 8 1 6 9
M  V30 9 2 9 10
M  V30 10 1 9 11
M  V30 11 1 5 12
M  V30 12 1 7 2
M  V30 13 1 1 13
M  V30 14 1 1 14
M  V30 15 1 3 15
M  V30 16 1 4 16
M  V30 17 1 11 17
M  V30 18 1 12 18
M  V30 19 1 12 19
M  V30 END BOND
M  V30 END CTAB
M  END
