
     RDKit          3D

  0  0  0  0  0  0  0  0  0  0999 V3000
M  V30 BEGIN CTAB
M  V30 COUNTS 43 46 0 0 0
M  V30 BEGIN ATOM
M  V30 1 F -3.57691 4.56675 -1.42178 0
M  V30 2 C -2.92116 3.50357 -0.886655 0
M  V30 3 C -2.17211 2.67143 -1.7196 0
M  V30 4 C -1.50715 1.59819 -1.19289 0
M  V30 5 C -1.53278 1.27485 0.168099 0
M  V30 6 C -2.2955 2.13337 0.974114 0
M  V30 7 C -2.97003 3.21618 0.461678 0
M  V30 8 N -0.817525 0.202245 0.729337 0
M  V30 9 C 0.475913 0.391729 1.15658 0
M  V30 10 N 0.920657 -0.770062 1.65314 0
M  V30 11 N -0.0518784 -1.63965 1.53873 0
M  V30 12 C -1.1581 -1.05223 0.959577 0
M  V30 13 C -2.3968 -1.75654 0.701384 0
M  V30 14 C -2.44496 -3.10371 1.09549 0
M  V30 15 C -3.53693 -3.91214 0.920578 0
M  V30 16 C -4.66698 -3.40847 0.329056 0
M  V30 17 C -4.65164 -2.09289 -0.0681122 0
M  V30 18 C -3.5207 -1.27174 0.117953 0
M  V30 19 S 1.35939 1.9281 1.03771 0
M  V30 20 C 2.2662 2.08336 -0.50898 0
M  V30 21 C 3.3408 1.05793 -0.517228 0
M  V30 22 N 3.15881 -0.183906 -0.994779 0
M  V30 23 C 4.14968 -1.07704 -0.986653 0
M  V30 24 N 3.96334 -2.38878 -1.48728 0
M  V30 25 N 5.35541 -0.744713 -0.496431 0
M  V30 26 C 5.58284 0.48555 -0.00866548 0
M  V30 27 N 4.57032 1.36607 -0.0276365 0
M  V30 28 N 6.87961 0.779962 0.496444 0
M  V30 29 H -2.10543 2.85857 -2.78237 0
M  V30 30 H -0.926268 0.955965 -1.85031 0
M  V30 31 H -2.34442 1.92247 2.03187 0
M  V30 32 H -3.55389 3.86973 1.0929 0
M  V30 33 H -1.59114 -3.55603 1.56502 0
M  V30 34 H -3.54418 -4.94424 1.23404 0
M  V30 35 H -5.52798 -4.0459 0.190919 0
M  V30 36 H -5.53613 -1.6867 -0.535231 0
M  V30 37 H -3.59619 -0.281028 -0.216626 0
M  V30 38 H 1.59523 2.01064 -1.36599 0
M  V30 39 H 2.7283 3.10684 -0.507367 0
M  V30 40 H 3.05747 -2.89594 -1.45615 0
M  V30 41 H 4.77011 -2.90135 -1.91949 0
M  V30 42 H 7.69841 0.346673 -0.00783541 0
M  V30 43 H 7.0743 1.38288 1.31482 0
M  V30 END ATOM
M  V30 BEGIN BOND
M  V30 1 1 1 2
M  V30 2 2 2 3
M  V30 3 1 3 4
M  V30 4 2 4 5
M  V30 5 1 5 6
M  V30 6 2 6 7
M  V30 7 1 5 8
M  V30 8 1 8 9
M  V30 9 2 9 10
M  V30 10 1 10 11
M  V30 11 2 11 12
M  V30 12 1 12 13
M  V30 13 2 13 14
M  V30 14 1 14 15
M  V30 15 2 15 16
M  V30 16 1 16 17
M  V30 17 2 17 18
M  V30 18 1 9 19
M  V30 19 1 19 20
M  V30 20 1 20 21
M  V30 21 2 21 22
M  V30 22 1 22 23
M  V30 23 1 23 24
M  V30 24 2 23 25
M  V30 25 1 25 26
M  V30 26 2 26 27
M  V30 27 1 26 28
M  V30 28 1 7 2
M  V30 29 1 12 8
M  V30 30 1 18 13
M  V30 31 1 27 21
M  V30 32 1 3 29
M  V30 33 1 4 30
M  V30 34 1 6 31
M  V30 35 1 7 32
M  V30 36 1 14 33
M  V30 37 1 15 34
M  V30 38 1 16 35
M  V30 39 1 17 36
M  V30 40 1 18 37
M  V30 41 1 20 38
M  V30 42 1 20 39
M  V30 43 1 24 40
M  V30 44 1 24 41
M  V30 45 1 28 42
M  V30 46 1 28 43
M  V30 END BOND
M  V30 END CTAB
M  END
