
     RDKit          3D

  0  0  0  0  0  0  0  0  0  0999 V3000
M  V30 BEGIN CTAB
M  V30 COUNTS 53 56 0 0 0
M  V30 BEGIN ATOM
M  V30 1 C 7.07586 -0.677695 -0.400025 0
M  V30 2 C 5.64028 -0.449733 0.172092 0
M  V30 3 C 4.7799 -0.205476 -0.991456 0
M  V30 4 N 3.40023 0.067163 -0.846254 0
M  V30 5 C 2.35326 -0.726289 -0.361104 0
M  V30 6 O 2.58939 -1.89937 0.0184628 0
M  V30 7 C 0.979779 -0.281342 -0.261959 0
M  V30 8 C -0.0718513 -1.06884 0.221024 0
M  V30 9 N 0.0360748 -2.40181 0.680916 0
M  V30 10 N -1.21469 -0.370884 0.185953 0
M  V30 11 C -0.987678 0.860568 -0.300833 0
M  V30 12 C 0.382469 0.919979 -0.581755 0
M  V30 13 N 0.869599 2.06322 -1.08586 0
M  V30 14 C 0.0920622 3.12242 -1.32016 0
M  V30 15 C 0.607855 4.30212 -1.84283 0
M  V30 16 C -0.19444 5.39748 -2.08547 0
M  V30 17 C -1.53368 5.28954 -1.79293 0
M  V30 18 C -2.09113 4.14533 -1.27515 0
M  V30 19 C -1.26722 3.07015 -1.04388 0
M  V30 20 N -1.74231 1.93285 -0.54419 0
M  V30 21 C -2.52106 -0.801258 0.588499 0
M  V30 22 C -2.69119 -1.49286 1.76322 0
M  V30 23 C -3.94535 -1.91592 2.16711 0
M  V30 24 C -5.07031 -1.65396 1.39669 0
M  V30 25 C -4.88722 -0.960405 0.22207 0
M  V30 26 C -3.63787 -0.539017 -0.180179 0
M  V30 27 S -6.674 -2.18199 1.89027 0
M  V30 28 O -7.72408 -1.22915 1.33803 0
M  V30 29 O -6.76554 -2.18237 3.38982 0
M  V30 30 N -7.00497 -3.75004 1.27219 0
M  V30 31 C 5.40504 -1.62053 1.0466 0
M  V30 32 H 7.46889 0.281053 -0.77796 0
M  V30 33 H 7.03849 -1.3997 -1.22674 0
M  V30 34 H 7.74445 -1.02396 0.401773 0
M  V30 35 H 5.782 0.452676 0.821351 0
M  V30 36 H 5.25971 0.658192 -1.5646 0
M  V30 37 H 4.96197 -1.06229 -1.72526 0
M  V30 38 H 3.07304 1.05918 -1.15894 0
M  V30 39 H 0.298391 -2.66129 1.65935 0
M  V30 40 H -0.149665 -3.21894 0.0348957 0
M  V30 41 H 1.67665 4.32763 -2.05446 0
M  V30 42 H 0.226533 6.30149 -2.49086 0
M  V30 43 H -2.15725 6.15197 -1.9855 0
M  V30 44 H -3.16062 4.12292 -1.06453 0
M  V30 45 H -1.86753 -1.74012 2.42523 0
M  V30 46 H -4.09626 -2.46711 3.09913 0
M  V30 47 H -5.77198 -0.759814 -0.374246 0
M  V30 48 H -3.55338 0.0090016 -1.12478 0
M  V30 49 H -6.15958 -4.36208 1.43349 0
M  V30 50 H -7.13436 -3.69249 0.235466 0
M  V30 51 H 5.27763 -2.57271 0.519178 0
M  V30 52 H 6.37799 -1.76763 1.63757 0
M  V30 53 H 4.67771 -1.39786 1.84153 0
M  V30 END ATOM
M  V30 BEGIN BOND
M  V30 1 1 1 2
M  V30 2 1 2 3
M  V30 3 1 3 4
M  V30 4 1 4 5
M  V30 5 2 5 6
M  V30 6 1 5 7
M  V30 7 2 7 8
M  V30 8 1 8 9
M  V30 9 1 8 10
M  V30 10 1 10 11
M  V30 11 2 11 12
M  V30 12 1 12 13
M  V30 13 2 13 14
M  V30 14 1 14 15
M  V30 15 2 15 16
M  V30 16 1 16 17
M  V30 17 2 17 18
M  V30 18 1 18 19
M  V30 19 2 19 20
M  V30 20 1 10 21
M  V30 21 2 21 22
M  V30 22 1 22 23
M  V30 23 2 23 24
M  V30 24 1 24 25
M  V30 25 2 25 26
M  V30 26 1 24 27
M  V30 27 2 27 28
M  V30 28 2 27 29
M  V30 29 1 27 30
M  V30 30 1 2 31
M  V30 31 1 12 7
M  V30 32 1 19 14
M  V30 33 1 26 21
M  V30 34 1 20 11
M  V30 35 1 1 32
M  V30 36 1 1 33
M  V30 37 1 1 34
M  V30 38 1 2 35
M  V30 39 1 3 36
M  V30 40 1 3 37
M  V30 41 1 4 38
M  V30 42 1 9 39
M  V30 43 1 9 40
M  V30 44 1 15 41
M  V30 45 1 16 42
M  V30 46 1 17 43
M  V30 47 1 18 44
M  V30 48 1 22 45
M  V30 49 1 23 46
M  V30 50 1 25 47
M  V30 51 1 26 48
M  V30 52 1 30 49
M  V30 53 1 30 50
M  V30 54 1 31 51
M  V30 55 1 31 52
M  V30 56 1 31 53
M  V30 END BOND
M  V30 END CTAB
M  END
