
     RDKit          3D

  0  0  0  0  0  0  0  0  0  0999 V3000
M  V30 BEGIN CTAB
M  V30 COUNTS 18 18 0 0 0
M  V30 BEGIN ATOM
M  V30 1 N -3.41088 1.1123 0.595774 0
M  V30 2 C -2.35061 0.193112 0.23084 0
M  V30 3 C -2.63833 -1.15093 0.12499 0
M  V30 4 S -1.11485 -1.7965 -0.312575 0
M  V30 5 C -0.221297 -0.342324 -0.333569 0
M  V30 6 N -1.13117 0.557263 -0.00613217 0
M  V30 7 C 1.22825 -0.0747162 -0.637369 0
M  V30 8 S 2.18691 -0.172752 0.828273 0
M  V30 9 O 1.77043 0.883773 1.78158 0
M  V30 10 O 2.13386 -1.514 1.47349 0
M  V30 11 N 3.84436 0.147522 0.393925 0
M  V30 12 H -3.48538 1.39663 1.58007 0
M  V30 13 H -4.04505 1.44427 -0.136126 0
M  V30 14 H -3.6103 -1.65336 0.286596 0
M  V30 15 H 1.28058 0.97484 -1.00672 0
M  V30 16 H 1.58542 -0.708836 -1.46191 0
M  V30 17 H 4.11044 -0.443454 -0.411524 0
M  V30 18 H 3.8676 1.14716 0.0388653 0
M  V30 END ATOM
M  V30 BEGIN BOND
M  V30 1 1 1 2
M  V30 2 2 2 3
M  V30 3 1 3 4
M  V30 4 1 4 5
M  V30 5 2 5 6
M  V30 6 1 5 7
M  V30 7 1 7 8
M  V30 8 2 8 9
M  V30 9 2 8 10
M  V30 10 1 8 11
M  V30 11 1 6 2
M  V30 12 1 1 12
M  V30 13 1 1 13
M  V30 14 1 3 14
M  V30 15 1 7 15
M  V30 16 1 7 16
M  V30 17 1 11 17
M  V30 18 1 11 18
M  V30 END BOND
M  V30 END CTAB
M  END
