
     RDKit          3D

  0  0  0  0  0  0  0  0  0  0999 V3000
M  V30 BEGIN CTAB
M  V30 COUNTS 27 27 0 0 0
M  V30 BEGIN ATOM
M  V30 1 N -2.55154 3.21804 0.333036 0
M  V30 2 C -1.2727 2.58068 0.0915623 0
M  V30 3 C -1.42765 1.08958 0.0587778 0
M  V30 4 S -2.84774 0.160292 0.262158 0
M  V30 5 C -2.15068 -1.40572 0.0823125 0
M  V30 6 N -0.890582 -1.11447 -0.119252 0
M  V30 7 C -0.483455 0.112175 -0.139566 0
M  V30 8 C 0.959688 0.506861 -0.368037 0
M  V30 9 C 1.82791 -0.733063 -0.563106 0
M  V30 10 C 1.77498 -1.63563 0.650619 0
M  V30 11 C 3.26557 -0.322076 -0.768886 0
M  V30 12 N -2.79733 -2.69919 0.140475 0
M  V30 13 H -2.58383 3.67473 1.28865 0
M  V30 14 H -3.34146 2.53374 0.327986 0
M  V30 15 H -0.608183 2.84299 0.945679 0
M  V30 16 H -0.828777 2.89511 -0.891527 0
M  V30 17 H 1.31398 1.02111 0.548612 0
M  V30 18 H 1.06723 1.14103 -1.25089 0
M  V30 19 H 1.4821 -1.29367 -1.47095 0
M  V30 20 H 2.78622 -1.8401 1.05382 0
M  V30 21 H 1.32576 -2.62666 0.411838 0
M  V30 22 H 1.18873 -1.09626 1.42961 0
M  V30 23 H 3.54864 0.497023 -0.0745701 0
M  V30 24 H 3.43377 0.0595451 -1.78853 0
M  V30 25 H 3.89033 -1.20367 -0.527292 0
M  V30 26 H -3.24784 -3.02718 1.02213 0
M  V30 27 H -2.83314 -3.33522 -0.684649 0
M  V30 END ATOM
M  V30 BEGIN BOND
M  V30 1 1 1 2
M  V30 2 1 2 3
M  V30 3 1 3 4
M  V30 4 1 4 5
M  V30 5 2 5 6
M  V30 6 1 6 7
M  V30 7 1 7 8
M  V30 8 1 8 9
M  V30 9 1 9 10
M  V30 10 1 9 11
M  V30 11 1 5 12
M  V30 12 2 7 3
M  V30 13 1 1 13
M  V30 14 1 1 14
M  V30 15 1 2 15
M  V30 16 1 2 16
M  V30 17 1 8 17
M  V30 18 1 8 18
M  V30 19 1 9 19
M  V30 20 1 10 20
M  V30 21 1 10 21
M  V30 22 1 10 22
M  V30 23 1 11 23
M  V30 24 1 11 24
M  V30 25 1 11 25
M  V30 26 1 12 26
M  V30 27 1 12 27
M  V30 END BOND
M  V30 END CTAB
M  END
