
     RDKit          3D

  0  0  0  0  0  0  0  0  0  0999 V3000
M  V30 BEGIN CTAB
M  V30 COUNTS 26 27 0 0 0
M  V30 BEGIN ATOM
M  V30 1 N -4.03924 -0.682233 0.600197 0
M  V30 2 C -2.63639 -0.522863 0.418477 0
M  V30 3 C -2.20204 0.498365 -0.405373 0
M  V30 4 N -3.14515 1.34989 -1.04111 0
M  V30 5 C -0.835926 0.653171 -0.581441 0
M  V30 6 C 0.0425359 -0.19837 0.056516 0
M  V30 7 C -0.422675 -1.21657 0.879152 0
M  V30 8 C -1.77985 -1.38552 1.06613 0
M  V30 9 C 1.47639 -0.0235936 -0.138525 0
M  V30 10 C 2.33826 -1.11358 -0.0987132 0
M  V30 11 C 3.7028 -0.920036 -0.287994 0
M  V30 12 C 4.19246 0.349586 -0.513747 0
M  V30 13 C 3.31044 1.42949 -0.549825 0
M  V30 14 C 1.95312 1.24906 -0.363049 0
M  V30 15 H -4.68152 -1.12942 -0.0623918 0
M  V30 16 H -4.43084 -0.295757 1.51025 0
M  V30 17 H -2.83595 2.02084 -1.77419 0
M  V30 18 H -4.15573 1.33255 -0.800733 0
M  V30 19 H -0.496196 1.46152 -1.23362 0
M  V30 20 H 0.320757 -1.84556 1.34687 0
M  V30 21 H -2.14291 -2.17088 1.70048 0
M  V30 22 H 1.92988 -2.09053 0.07854 0
M  V30 23 H 4.34762 -1.78581 -0.251754 0
M  V30 24 H 5.24361 0.528725 -0.663564 0
M  V30 25 H 3.68617 2.44962 -0.72921 0
M  V30 26 H 1.26036 2.05791 -0.38605 0
M  V30 END ATOM
M  V30 BEGIN BOND
M  V30 1 1 1 2
M  V30 2 2 2 3
M  V30 3 1 3 4
M  V30 4 1 3 5
M  V30 5 2 5 6
M  V30 6 1 6 7
M  V30 7 2 7 8
M  V30 8 1 6 9
M  V30 9 2 9 10
M  V30 10 1 10 11
M  V30 11 2 11 12
M  V30 12 1 12 13
M  V30 13 2 13 14
M  V30 14 1 8 2
M  V30 15 1 14 9
M  V30 16 1 1 15
M  V30 17 1 1 16
M  V30 18 1 4 17
M  V30 19 1 4 18
M  V30 20 1 5 19
M  V30 21 1 7 20
M  V30 22 1 8 21
M  V30 23 1 10 22
M  V30 24 1 11 23
M  V30 25 1 12 24
M  V30 26 1 13 25
M  V30 27 1 14 26
M  V30 END BOND
M  V30 END CTAB
M  END
