
     RDKit          3D

  0  0  0  0  0  0  0  0  0  0999 V3000
M  V30 BEGIN CTAB
M  V30 COUNTS 34 36 0 0 0
M  V30 BEGIN ATOM
M  V30 1 N -6.62023 -0.926699 -0.91318 0
M  V30 2 C -5.27505 -0.663964 -0.577475 0
M  V30 3 N -4.99497 0.0803196 0.494861 0
M  V30 4 C -3.73953 0.354711 0.850597 0
M  V30 5 N -3.41909 1.14488 1.98822 0
M  V30 6 C -2.68645 -0.146457 0.0858643 0
M  V30 7 C -1.40118 0.143693 0.462958 0
M  V30 8 C -0.305314 -0.342502 -0.281696 0
M  V30 9 N 1.01061 -0.0298042 0.158767 0
M  V30 10 C 2.21157 -0.144267 -0.530146 0
M  V30 11 O 2.25002 -0.565531 -1.71648 0
M  V30 12 C 3.4837 0.230342 0.120408 0
M  V30 13 C 4.58416 0.407431 -0.687348 0
M  V30 14 C 5.82337 0.756012 -0.144175 0
M  V30 15 Cl 7.21228 0.977129 -1.18658 0
M  V30 16 C 5.98353 0.933024 1.21125 0
M  V30 17 Cl 7.55894 1.36932 1.83405 0
M  V30 18 C 4.87546 0.752321 2.00231 0
M  V30 19 C 3.63037 0.402945 1.46582 0
M  V30 20 C -0.591637 -1.10379 -1.37729 0
M  V30 21 C -1.91503 -1.39833 -1.76006 0
M  V30 22 C -2.97162 -0.916246 -1.02336 0
M  V30 23 N -4.24242 -1.14815 -1.31681 0
M  V30 24 H -7.27881 -1.21519 -0.172663 0
M  V30 25 H -6.95733 -0.835525 -1.88612 0
M  V30 26 H -2.84393 0.742546 2.76201 0
M  V30 27 H -3.76778 2.11667 2.02613 0
M  V30 28 H -1.16013 0.746888 1.32969 0
M  V30 29 H 1.1088 0.352147 1.16672 0
M  V30 30 H 4.48529 0.274528 -1.7541 0
M  V30 31 H 5.00759 0.892787 3.06649 0
M  V30 32 H 2.81895 0.275884 2.13715 0
M  V30 33 H 0.217906 -1.51861 -1.98674 0
M  V30 34 H -2.09205 -1.99852 -2.62619 0
M  V30 END ATOM
M  V30 BEGIN BOND
M  V30 1 1 1 2
M  V30 2 2 2 3
M  V30 3 1 3 4
M  V30 4 1 4 5
M  V30 5 2 4 6
M  V30 6 1 6 7
M  V30 7 2 7 8
M  V30 8 1 8 9
M  V30 9 1 9 10
M  V30 10 2 10 11
M  V30 11 1 10 12
M  V30 12 2 12 13
M  V30 13 1 13 14
M  V30 14 1 14 15
M  V30 15 2 14 16
M  V30 16 1 16 17
M  V30 17 1 16 18
M  V30 18 2 18 19
M  V30 19 1 8 20
M  V30 20 2 20 21
M  V30 21 1 21 22
M  V30 22 2 22 23
M  V30 23 1 23 2
M  V30 24 1 22 6
M  V30 25 1 19 12
M  V30 26 1 1 24
M  V30 27 1 1 25
M  V30 28 1 5 26
M  V30 29 1 5 27
M  V30 30 1 7 28
M  V30 31 1 9 29
M  V30 32 1 13 30
M  V30 33 1 18 31
M  V30 34 1 19 32
M  V30 35 1 20 33
M  V30 36 1 21 34
M  V30 END BOND
M  V30 END CTAB
M  END
