
     RDKit          3D

  0  0  0  0  0  0  0  0  0  0999 V3000
M  V30 BEGIN CTAB
M  V30 COUNTS 20 20 0 0 0
M  V30 BEGIN ATOM
M  V30 1 N 2.30829 1.50147 0.0158575 0
M  V30 2 C 1.1333 0.709478 0.00595538 0
M  V30 3 C -0.0664893 1.37716 -0.000953095 0
M  V30 4 C -1.25015 0.639007 -0.00603101 0
M  V30 5 C -1.19778 -0.733903 -0.000507048 0
M  V30 6 C 0.063118 -1.36524 0.00496686 0
M  V30 7 C 1.23538 -0.664872 0.00837513 0
M  V30 8 N 2.50601 -1.3271 0.00709649 0
M  V30 9 N -2.32344 -1.58653 0.0150001 0 CHG=1
M  V30 10 O -2.24973 -2.79183 -0.63889 0 CHG=-1
M  V30 11 O -3.35617 -1.32284 0.611349 0
M  V30 12 N -2.42449 1.4082 -0.0334016 0 CHG=1
M  V30 13 O -2.44683 2.61413 0.614711 0 CHG=-1
M  V30 14 O -3.4146 1.04267 -0.655098 0
M  V30 15 H 2.82563 1.63883 -0.863348 0
M  V30 16 H 2.64957 1.9368 0.883308 0
M  V30 17 H -0.107296 2.48444 -0.00290694 0
M  V30 18 H 0.139665 -2.45394 0.00724936 0
M  V30 19 H 3.34958 -0.77296 0.239696 0
M  V30 20 H 2.62645 -2.33298 -0.21243 0
M  V30 END ATOM
M  V30 BEGIN BOND
M  V30 1 1 1 2
M  V30 2 2 2 3
M  V30 3 1 3 4
M  V30 4 2 4 5
M  V30 5 1 5 6
M  V30 6 2 6 7
M  V30 7 1 7 8
M  V30 8 1 5 9
M  V30 9 1 9 10
M  V30 10 2 9 11
M  V30 11 1 4 12
M  V30 12 1 12 13
M  V30 13 2 12 14
M  V30 14 1 7 2
M  V30 15 1 1 15
M  V30 16 1 1 16
M  V30 17 1 3 17
M  V30 18 1 6 18
M  V30 19 1 8 19
M  V30 20 1 8 20
M  V30 END BOND
M  V30 END CTAB
M  END
