
     RDKit          3D

  0  0  0  0  0  0  0  0  0  0999 V3000
M  V30 BEGIN CTAB
M  V30 COUNTS 25 25 0 0 0
M  V30 BEGIN ATOM
M  V30 1 C -1.47534 1.84944 0.345451 0
M  V30 2 C -0.918518 1.11704 -0.814248 0
M  V30 3 C -0.154751 -0.142473 -0.471907 0
M  V30 4 C 1.00137 0.160494 0.403247 0
M  V30 5 C 1.94364 -0.834654 0.91581 0
M  V30 6 C 2.38084 0.106796 -0.197902 0
M  V30 7 C -1.05578 -1.23144 0.0482801 0
M  V30 8 N -1.77334 -0.908365 1.22487 0
M  V30 9 N 0.369944 -0.623943 -1.74715 0
M  V30 10 H -1.27306 2.95587 0.224474 0
M  V30 11 H -1.08507 1.58623 1.32856 0
M  V30 12 H -2.59188 1.77989 0.309001 0
M  V30 13 H -1.71264 0.837973 -1.54093 0
M  V30 14 H -0.215346 1.76963 -1.37176 0
M  V30 15 H 0.864556 1.07098 1.05503 0
M  V30 16 H 2.37745 -0.695864 1.92888 0
M  V30 17 H 1.94296 -1.89559 0.602295 0
M  V30 18 H 3.15294 0.84239 0.110804 0
M  V30 19 H 2.53786 -0.298461 -1.2083 0
M  V30 20 H -1.80702 -1.43039 -0.766183 0
M  V30 21 H -0.425558 -2.15007 0.139452 0
M  V30 22 H -2.54846 -1.58013 1.35374 0
M  V30 23 H -1.23429 -0.869949 2.09467 0
M  V30 24 H 0.854892 0.111118 -2.2859 0
M  V30 25 H 0.844621 -1.52652 -1.68029 0
M  V30 END ATOM
M  V30 BEGIN BOND
M  V30 1 1 1 2
M  V30 2 1 2 3
M  V30 3 1 3 4
M  V30 4 1 4 5
M  V30 5 1 5 6
M  V30 6 1 3 7
M  V30 7 1 7 8
M  V30 8 1 3 9
M  V30 9 1 6 4
M  V30 10 1 1 10
M  V30 11 1 1 11
M  V30 12 1 1 12
M  V30 13 1 2 13
M  V30 14 1 2 14
M  V30 15 1 4 15
M  V30 16 1 5 16
M  V30 17 1 5 17
M  V30 18 1 6 18
M  V30 19 1 6 19
M  V30 20 1 7 20
M  V30 21 1 7 21
M  V30 22 1 8 22
M  V30 23 1 8 23
M  V30 24 1 9 24
M  V30 25 1 9 25
M  V30 END BOND
M  V30 END CTAB
M  END
