
     RDKit          3D

  0  0  0  0  0  0  0  0  0  0999 V3000
M  V30 BEGIN CTAB
M  V30 COUNTS 46 47 0 0 0
M  V30 BEGIN ATOM
M  V30 1 N -1.89701 0.520563 1.42472 0
M  V30 2 C -1.82872 -0.0171087 0.0568691 0
M  V30 3 C -2.85117 0.701869 -0.751147 0
M  V30 4 C -4.1897 0.816755 -0.0342233 0
M  V30 5 C -4.58613 -0.580878 0.383539 0
M  V30 6 C -4.33913 -1.50185 -0.759015 0
M  V30 7 C -2.96892 -2.06986 -0.833267 0
M  V30 8 C -1.99897 -1.48431 0.145641 0
M  V30 9 C -0.457357 0.361112 -0.476802 0
M  V30 10 N -0.329251 1.81946 -0.470567 0
M  V30 11 S 1.22136 2.20562 -1.07563 0
M  V30 12 O 1.34446 1.6186 -2.4538 0
M  V30 13 O 1.36424 3.70403 -1.13338 0
M  V30 14 C 2.49142 1.55079 -0.0777261 0
M  V30 15 C 3.03111 2.24152 0.971241 0
M  V30 16 C 4.03825 1.70906 1.75408 0
M  V30 17 C 4.50049 0.428145 1.44489 0
M  V30 18 C 3.98072 -0.299486 0.394402 0
M  V30 19 C 2.9795 0.286113 -0.347539 0
M  V30 20 S 4.58797 -1.9032 0.0391194 0
M  V30 21 O 5.03271 -2.59704 1.29307 0
M  V30 22 O 3.47683 -2.65672 -0.630813 0
M  V30 23 N 5.89552 -1.72575 -1.0756 0
M  V30 24 H -2.09325 1.53318 1.42628 0
M  V30 25 H -1.09897 0.230025 1.9991 0
M  V30 26 H -2.96152 0.311979 -1.77809 0
M  V30 27 H -2.49237 1.76522 -0.867571 0
M  V30 28 H -4.90568 1.25271 -0.742851 0
M  V30 29 H -4.05699 1.46672 0.831628 0
M  V30 30 H -4.10022 -0.842358 1.32093 0
M  V30 31 H -5.70042 -0.538178 0.562729 0
M  V30 32 H -5.12999 -2.30651 -0.716485 0
M  V30 33 H -4.56341 -0.953266 -1.71708 0
M  V30 34 H -2.5236 -2.03314 -1.86584 0
M  V30 35 H -3.0436 -3.1669 -0.594611 0
M  V30 36 H -2.27771 -1.85 1.17496 0
M  V30 37 H -1.00418 -1.96156 -0.0577237 0
M  V30 38 H -0.429485 0.0528025 -1.5413 0
M  V30 39 H 0.344483 -0.126602 0.0821368 0
M  V30 40 H -0.40758 2.20817 0.489778 0
M  V30 41 H 2.68741 3.22662 1.22224 0
M  V30 42 H 4.43698 2.28738 2.57294 0
M  V30 43 H 5.2906 0.0489677 2.08391 0
M  V30 44 H 2.57149 -0.265831 -1.15975 0
M  V30 45 H 6.46218 -0.872941 -0.901864 0
M  V30 46 H 6.49759 -2.59393 -1.11754 0
M  V30 END ATOM
M  V30 BEGIN BOND
M  V30 1 1 1 2
M  V30 2 1 2 3
M  V30 3 1 3 4
M  V30 4 1 4 5
M  V30 5 1 5 6
M  V30 6 1 6 7
M  V30 7 1 7 8
M  V30 8 1 2 9
M  V30 9 1 9 10
M  V30 10 1 10 11
M  V30 11 2 11 12
M  V30 12 2 11 13
M  V30 13 1 11 14
M  V30 14 2 14 15
M  V30 15 1 15 16
M  V30 16 2 16 17
M  V30 17 1 17 18
M  V30 18 2 18 19
M  V30 19 1 18 20
M  V30 20 2 20 21
M  V30 21 2 20 22
M  V30 22 1 20 23
M  V30 23 1 8 2
M  V30 24 1 19 14
M  V30 25 1 1 24
M  V30 26 1 1 25
M  V30 27 1 3 26
M  V30 28 1 3 27
M  V30 29 1 4 28
M  V30 30 1 4 29
M  V30 31 1 5 30
M  V30 32 1 5 31
M  V30 33 1 6 32
M  V30 34 1 6 33
M  V30 35 1 7 34
M  V30 36 1 7 35
M  V30 37 1 8 36
M  V30 38 1 8 37
M  V30 39 1 9 38
M  V30 40 1 9 39
M  V30 41 1 10 40
M  V30 42 1 15 41
M  V30 43 1 16 42
M  V30 44 1 17 43
M  V30 45 1 19 44
M  V30 46 1 23 45
M  V30 47 1 23 46
M  V30 END BOND
M  V30 END CTAB
M  END
