
     RDKit          3D

  0  0  0  0  0  0  0  0  0  0999 V3000
M  V30 BEGIN CTAB
M  V30 COUNTS 46 47 0 0 0
M  V30 BEGIN ATOM
M  V30 1 C 8.67967 -0.294384 1.01941 0
M  V30 2 C 7.2141 -0.191205 0.761657 0
M  V30 3 C 6.41858 -1.30426 0.783733 0
M  V30 4 C 5.03734 -1.20875 0.541049 0
M  V30 5 C 4.43808 -0.0211503 0.276942 0
M  V30 6 C 5.26145 1.11615 0.25613 0
M  V30 7 C 6.61588 1.01741 0.494811 0
M  V30 8 N 4.63259 2.35745 -0.0203554 0
M  V30 9 N 3.06607 0.114192 0.0302963 0
M  V30 10 C 2.07825 -0.868802 0.00212467 0
M  V30 11 O 2.28546 -2.08588 0.20484 0
M  V30 12 C 0.662733 -0.490743 -0.2853 0
M  V30 13 O 0.401841 0.711715 -0.494801 0
M  V30 14 N -0.315237 -1.48787 -0.310014 0
M  V30 15 C -1.68805 -1.2225 -0.569981 0
M  V30 16 C -2.25162 -0.300239 0.4833 0
M  V30 17 C -3.67576 -0.0886484 0.140394 0
M  V30 18 C -4.62449 -0.928726 0.646302 0
M  V30 19 C -5.9605 -0.714048 0.311801 0
M  V30 20 C -6.35982 0.315908 -0.511596 0
M  V30 21 C -5.37597 1.14744 -1.00653 0
M  V30 22 C -4.03132 0.942595 -0.678275 0
M  V30 23 S -8.05624 0.522756 -0.887176 0
M  V30 24 O -8.15612 1.16714 -2.23102 0
M  V30 25 O -8.77905 -0.808574 -0.870014 0
M  V30 26 N -8.73316 1.56694 0.312519 0
M  V30 27 H 9.13158 -1.14183 0.455097 0
M  V30 28 H 9.19694 0.62264 0.645392 0
M  V30 29 H 8.86383 -0.398462 2.09613 0
M  V30 30 H 6.86684 -2.27812 0.993127 0
M  V30 31 H 4.49793 -2.14321 0.580947 0
M  V30 32 H 7.23798 1.90068 0.475768 0
M  V30 33 H 4.24534 2.63577 -0.931323 0
M  V30 34 H 4.5627 3.04437 0.785394 0
M  V30 35 H 2.67847 1.11486 -0.172454 0
M  V30 36 H -0.0465082 -2.49682 -0.129663 0
M  V30 37 H -1.77386 -0.694316 -1.55936 0
M  V30 38 H -2.32473 -2.12756 -0.600099 0
M  V30 39 H -1.78464 0.694224 0.486367 0
M  V30 40 H -2.1794 -0.755977 1.504 0
M  V30 41 H -4.35004 -1.763 1.30688 0
M  V30 42 H -6.6995 -1.37932 0.714044 0
M  V30 43 H -5.67403 1.95188 -1.64784 0
M  V30 44 H -3.29888 1.64062 -1.10589 0
M  V30 45 H -9.72047 1.22491 0.501915 0
M  V30 46 H -8.21423 1.38477 1.20158 0
M  V30 END ATOM
M  V30 BEGIN BOND
M  V30 1 1 1 2
M  V30 2 2 2 3
M  V30 3 1 3 4
M  V30 4 2 4 5
M  V30 5 1 5 6
M  V30 6 2 6 7
M  V30 7 1 6 8
M  V30 8 1 5 9
M  V30 9 1 9 10
M  V30 10 2 10 11
M  V30 11 1 10 12
M  V30 12 2 12 13
M  V30 13 1 12 14
M  V30 14 1 14 15
M  V30 15 1 15 16
M  V30 16 1 16 17
M  V30 17 2 17 18
M  V30 18 1 18 19
M  V30 19 2 19 20
M  V30 20 1 20 21
M  V30 21 2 21 22
M  V30 22 1 20 23
M  V30 23 2 23 24
M  V30 24 2 23 25
M  V30 25 1 23 26
M  V30 26 1 7 2
M  V30 27 1 22 17
M  V30 28 1 1 27
M  V30 29 1 1 28
M  V30 30 1 1 29
M  V30 31 1 3 30
M  V30 32 1 4 31
M  V30 33 1 7 32
M  V30 34 1 8 33
M  V30 35 1 8 34
M  V30 36 1 9 35
M  V30 37 1 14 36
M  V30 38 1 15 37
M  V30 39 1 15 38
M  V30 40 1 16 39
M  V30 41 1 16 40
M  V30 42 1 18 41
M  V30 43 1 19 42
M  V30 44 1 21 43
M  V30 45 1 22 44
M  V30 46 1 26 45
M  V30 47 1 26 46
M  V30 END BOND
M  V30 END CTAB
M  END
