
     RDKit          3D

  0  0  0  0  0  0  0  0  0  0999 V3000
M  V30 BEGIN CTAB
M  V30 COUNTS 22 21 0 0 0
M  V30 BEGIN ATOM
M  V30 1 C -2.16712 -1.46552 0.209399 0
M  V30 2 C -0.822849 -0.967391 0.646045 0
M  V30 3 C -0.39247 0.279476 -0.111911 0
M  V30 4 N 0.897602 0.641781 0.40263 0
M  V30 5 C 2.0046 0.1058 0.114771 0
M  V30 6 N 3.17949 0.606698 0.730603 0
M  V30 7 N 2.06128 -0.972197 -0.804785 0
M  V30 8 C -1.33426 1.44144 0.186392 0
M  V30 9 O -0.822464 2.56731 -0.455544 0
M  V30 10 H -2.95705 -1.05294 0.874258 0
M  V30 11 H -2.3909 -1.18112 -0.841666 0
M  V30 12 H -2.20095 -2.57498 0.261555 0
M  V30 13 H -0.0608435 -1.74946 0.465358 0
M  V30 14 H -0.837581 -0.759495 1.71241 0
M  V30 15 H -0.321789 0.122615 -1.18869 0
M  V30 16 H 3.28345 0.69602 1.77405 0
M  V30 17 H 3.98761 0.906044 0.161052 0
M  V30 18 H 2.48335 -1.89605 -0.562819 0
M  V30 19 H 1.66421 -0.830368 -1.75834 0
M  V30 20 H -1.33619 1.6744 1.27105 0
M  V30 21 H -2.37432 1.22069 -0.0937245 0
M  V30 22 H -1.54282 3.18726 -0.759877 0
M  V30 END ATOM
M  V30 BEGIN BOND
M  V30 1 1 1 2
M  V30 2 1 2 3
M  V30 3 1 3 4
M  V30 4 2 4 5 CFG=2
M  V30 5 1 5 6
M  V30 6 1 5 7
M  V30 7 1 3 8
M  V30 8 1 8 9
M  V30 9 1 1 10
M  V30 10 1 1 11
M  V30 11 1 1 12
M  V30 12 1 2 13
M  V30 13 1 2 14
M  V30 14 1 3 15
M  V30 15 1 6 16
M  V30 16 1 6 17
M  V30 17 1 7 18
M  V30 18 1 7 19
M  V30 19 1 8 20
M  V30 20 1 8 21
M  V30 21 1 9 22
M  V30 END BOND
M  V30 END CTAB
M  END
