
     RDKit          3D

  0  0  0  0  0  0  0  0  0  0999 V3000
M  V30 BEGIN CTAB
M  V30 COUNTS 23 23 0 0 0
M  V30 BEGIN ATOM
M  V30 1 N 4.3705 -0.195131 1.53517 0
M  V30 2 C 3.72904 0.212265 0.637496 0
M  V30 3 C 2.91152 0.724122 -0.46384 0
M  V30 4 C 1.47192 0.401666 -0.284628 0
M  V30 5 C 0.943109 -0.769769 -0.787704 0
M  V30 6 C -0.408441 -1.07376 -0.620142 0
M  V30 7 N -0.963715 -2.27695 -1.13388 0
M  V30 8 C -1.25729 -0.217077 0.0510918 0
M  V30 9 C -0.73331 0.954875 0.555629 0
M  V30 10 C 0.605401 1.24617 0.384363 0
M  V30 11 N -1.61979 1.83224 1.24726 0
M  V30 12 C -2.68205 -0.530462 0.231564 0
M  V30 13 H 3.09222 1.81685 -0.506498 0
M  V30 14 H 3.27791 0.310698 -1.43614 0
M  V30 15 H 1.57821 -1.47027 -1.32208 0
M  V30 16 H -0.582774 -3.18098 -0.805114 0
M  V30 17 H -1.74092 -2.26057 -1.82966 0
M  V30 18 H 1.01545 2.15971 0.777253 0
M  V30 19 H -1.68876 2.80206 0.91669 0
M  V30 20 H -2.17085 1.49546 2.0533 0
M  V30 21 H -2.86724 -0.823724 1.28554 0
M  V30 22 H -2.92291 -1.43181 -0.378049 0
M  V30 23 H -3.35725 0.274398 -0.107632 0
M  V30 END ATOM
M  V30 BEGIN BOND
M  V30 1 3 1 2
M  V30 2 1 2 3
M  V30 3 1 3 4
M  V30 4 2 4 5
M  V30 5 1 5 6
M  V30 6 1 6 7
M  V30 7 2 6 8
M  V30 8 1 8 9
M  V30 9 2 9 10
M  V30 10 1 9 11
M  V30 11 1 8 12
M  V30 12 1 10 4
M  V30 13 1 3 13
M  V30 14 1 3 14
M  V30 15 1 5 15
M  V30 16 1 7 16
M  V30 17 1 7 17
M  V30 18 1 10 18
M  V30 19 1 11 19
M  V30 20 1 11 20
M  V30 21 1 12 21
M  V30 22 1 12 22
M  V30 23 1 12 23
M  V30 END BOND
M  V30 END CTAB
M  END
