
     RDKit          3D

  0  0  0  0  0  0  0  0  0  0999 V3000
M  V30 BEGIN CTAB
M  V30 COUNTS 25 25 0 0 0
M  V30 BEGIN ATOM
M  V30 1 N -3.97381 0.117872 -1.10484 0
M  V30 2 C -2.74423 -0.408726 -0.544654 0
M  V30 3 C -2.28148 0.426612 0.625923 0
M  V30 4 N -1.0586 -0.0313533 1.22848 0
M  V30 5 C 0.222875 0.0292944 0.609587 0
M  V30 6 C 0.4527 0.637968 -0.60914 0
M  V30 7 C 1.72755 0.680945 -1.1564 0
M  V30 8 C 2.80848 0.12854 -0.521799 0
M  V30 9 C 2.59741 -0.481238 0.693212 0
M  V30 10 C 1.33645 -0.528449 1.24275 0
M  V30 11 C 1.10691 -1.17118 2.52522 0
M  V30 12 N 0.938997 -1.68327 3.527 0
M  V30 13 N 4.13242 0.172559 -1.08902 0
M  V30 14 H -3.96557 1.16383 -1.05511 0
M  V30 15 H -4.03505 -0.204707 -2.10197 0
M  V30 16 H -3.03001 -1.44966 -0.194028 0
M  V30 17 H -1.9843 -0.593819 -1.31633 0
M  V30 18 H -3.09252 0.372951 1.37771 0
M  V30 19 H -2.14831 1.49192 0.264896 0
M  V30 20 H -1.10433 -0.438449 2.18737 0
M  V30 21 H -0.392514 1.10243 -1.14184 0
M  V30 22 H 1.88187 1.16911 -2.12372 0
M  V30 23 H 3.42937 -0.937169 1.23949 0
M  V30 24 H 4.60729 -0.689294 -1.37491 0
M  V30 25 H 4.5684 1.12329 -1.18787 0
M  V30 END ATOM
M  V30 BEGIN BOND
M  V30 1 1 1 2
M  V30 2 1 2 3
M  V30 3 1 3 4
M  V30 4 1 4 5
M  V30 5 2 5 6
M  V30 6 1 6 7
M  V30 7 2 7 8
M  V30 8 1 8 9
M  V30 9 2 9 10
M  V30 10 1 10 11
M  V30 11 3 11 12
M  V30 12 1 8 13
M  V30 13 1 10 5
M  V30 14 1 1 14
M  V30 15 1 1 15
M  V30 16 1 2 16
M  V30 17 1 2 17
M  V30 18 1 3 18
M  V30 19 1 3 19
M  V30 20 1 4 20
M  V30 21 1 6 21
M  V30 22 1 7 22
M  V30 23 1 9 23
M  V30 24 1 13 24
M  V30 25 1 13 25
M  V30 END BOND
M  V30 END CTAB
M  END
