
     RDKit          3D

  0  0  0  0  0  0  0  0  0  0999 V3000
M  V30 BEGIN CTAB
M  V30 COUNTS 32 33 0 0 0
M  V30 BEGIN ATOM
M  V30 1 N 5.16899 -0.179837 0.313172 0
M  V30 2 C 3.95952 -0.0110149 -0.395863 0
M  V30 3 N 3.73306 -0.162449 -1.72444 0
M  V30 4 N 2.47066 0.0835772 -2.00846 0
M  V30 5 C 1.78896 0.410445 -0.894353 0
M  V30 6 C 2.71764 0.353403 0.124322 0
M  V30 7 C 0.339691 0.757233 -0.800949 0 CFG=2
M  V30 8 O 0.0903942 1.85266 -0.0218751 0
M  V30 9 C -0.253704 1.59719 1.27651 0
M  V30 10 C -1.72711 1.47192 1.51435 0
M  V30 11 C -2.38623 0.312166 0.89379 0
M  V30 12 N -1.81823 -0.266212 -0.241095 0
M  V30 13 C -0.450201 -0.458342 -0.363873 0
M  V30 14 S -2.84574 -1.32463 -1.07164 0
M  V30 15 O -4.11047 -0.554088 -1.43036 0
M  V30 16 O -2.2623 -1.81095 -2.36309 0
M  V30 17 N -3.34607 -2.68195 -0.144682 0
M  V30 18 H 5.73387 -1.0283 0.16141 0
M  V30 19 H 5.48421 0.543397 0.979401 0
M  V30 20 H 2.07262 0.0265327 -2.9774 0
M  V30 21 H 2.56064 0.547223 1.15545 0
M  V30 22 H -0.0264807 1.00238 -1.83966 0
M  V30 23 H 0.236727 0.717928 1.72849 0
M  V30 24 H 0.0951685 2.47652 1.88947 0
M  V30 25 H -1.894 1.50031 2.61354 0
M  V30 26 H -2.19709 2.41825 1.12793 0
M  V30 27 H -3.44882 0.60293 0.642411 0
M  V30 28 H -2.50602 -0.487085 1.67023 0
M  V30 29 H -0.272096 -1.22848 -1.17411 0
M  V30 30 H 0.0229005 -0.930977 0.547062 0
M  V30 31 H -4.29642 -2.57768 0.253128 0
M  V30 32 H -2.63408 -2.97209 0.561189 0
M  V30 END ATOM
M  V30 BEGIN BOND
M  V30 1 1 1 2
M  V30 2 2 2 3
M  V30 3 1 3 4
M  V30 4 1 4 5
M  V30 5 2 5 6
M  V30 6 1 5 7
M  V30 7 1 7 8
M  V30 8 1 8 9
M  V30 9 1 9 10
M  V30 10 1 10 11
M  V30 11 1 11 12
M  V30 12 1 12 13
M  V30 13 1 12 14
M  V30 14 2 14 15
M  V30 15 2 14 16
M  V30 16 1 14 17
M  V30 17 1 6 2
M  V30 18 1 13 7
M  V30 19 1 1 18
M  V30 20 1 1 19
M  V30 21 1 4 20
M  V30 22 1 6 21
M  V30 23 1 7 22 CFG=3
M  V30 24 1 9 23
M  V30 25 1 9 24
M  V30 26 1 10 25
M  V30 27 1 10 26
M  V30 28 1 11 27
M  V30 29 1 11 28
M  V30 30 1 13 29
M  V30 31 1 13 30
M  V30 32 1 17 31
M  V30 33 1 17 32
M  V30 END BOND
M  V30 END CTAB
M  END
