
     RDKit          3D

  0  0  0  0  0  0  0  0  0  0999 V3000
M  V30 BEGIN CTAB
M  V30 COUNTS 20 20 0 0 0
M  V30 BEGIN ATOM
M  V30 1 C 3.32761 1.5462 -0.436988 0
M  V30 2 C 2.98125 0.385124 -0.584867 0
M  V30 3 C 2.58559 -1.01282 -0.774136 0
M  V30 4 O 1.25547 -1.07897 -1.21453 0
M  V30 5 C 0.19909 -0.580925 -0.492575 0
M  V30 6 C -1.06759 -0.702143 -1.02521 0
M  V30 7 C -2.18206 -0.230234 -0.367734 0
M  V30 8 N -3.44724 -0.40052 -0.995386 0
M  V30 9 N -2.01214 0.360279 0.821428 0
M  V30 10 C -0.763595 0.484845 1.35634 0
M  V30 11 N 0.319641 0.0201825 0.705653 0
M  V30 12 N -0.619153 1.11221 2.61128 0
M  V30 13 H 3.63653 2.54938 -0.296169 0
M  V30 14 H 3.24162 -1.52705 -1.51447 0
M  V30 15 H 2.735 -1.56142 0.18398 0
M  V30 16 H -1.1898 -1.18379 -1.99127 0
M  V30 17 H -4.00682 0.449294 -1.24796 0
M  V30 18 H -3.86392 -1.32664 -1.22564 0
M  V30 19 H -0.313866 2.09964 2.67934 0
M  V30 20 H -0.815622 0.59736 3.48842 0
M  V30 END ATOM
M  V30 BEGIN BOND
M  V30 1 3 1 2
M  V30 2 1 2 3
M  V30 3 1 3 4
M  V30 4 1 4 5
M  V30 5 2 5 6
M  V30 6 1 6 7
M  V30 7 1 7 8
M  V30 8 2 7 9
M  V30 9 1 9 10
M  V30 10 2 10 11
M  V30 11 1 10 12
M  V30 12 1 11 5
M  V30 13 1 1 13
M  V30 14 1 3 14
M  V30 15 1 3 15
M  V30 16 1 6 16
M  V30 17 1 8 17
M  V30 18 1 8 18
M  V30 19 1 12 19
M  V30 20 1 12 20
M  V30 END BOND
M  V30 END CTAB
M  END
