
     RDKit          3D

  0  0  0  0  0  0  0  0  0  0999 V3000
M  V30 BEGIN CTAB
M  V30 COUNTS 31 32 0 0 0
M  V30 BEGIN ATOM
M  V30 1 N 5.1283 -0.443065 -0.106775 0
M  V30 2 C 4.27583 -1.00634 0.872615 0
M  V30 3 N 4.81366 -1.67339 1.83271 0
M  V30 4 N 2.88159 -0.804326 0.740789 0
M  V30 5 C 2.31877 -0.073202 -0.314969 0
M  V30 6 O 3.08422 0.434468 -1.19727 0
M  V30 7 C 0.877674 0.137287 -0.453846 0
M  V30 8 C 0.362661 0.862551 -1.50664 0
M  V30 9 N 1.23635 1.41307 -2.46866 0
M  V30 10 N -0.957818 1.05948 -1.64037 0
M  V30 11 C -1.85538 0.558495 -0.751651 0
M  V30 12 C -3.31525 0.813743 -0.960209 0
M  V30 13 C -3.95484 0.830478 0.410951 0
M  V30 14 C -3.71399 -0.574486 0.971127 0
M  V30 15 C -2.27525 -0.750108 1.3234 0
M  V30 16 C -1.35995 -0.165786 0.302253 0
M  V30 17 N -0.00901409 -0.356282 0.422094 0
M  V30 18 H 5.46324 0.515913 -0.0184845 0
M  V30 19 H 5.40227 -1.03425 -0.916765 0
M  V30 20 H 4.30204 -2.12782 2.60011 0
M  V30 21 H 2.25139 -1.222 1.46676 0
M  V30 22 H 1.73678 2.31401 -2.29884 0
M  V30 23 H 1.40754 0.93852 -3.37402 0
M  V30 24 H -3.39696 1.79193 -1.47671 0
M  V30 25 H -3.78015 -0.00946836 -1.55688 0
M  V30 26 H -3.38239 1.59075 1.00693 0
M  V30 27 H -5.03221 1.03936 0.388569 0
M  V30 28 H -4.35752 -0.746526 1.83179 0
M  V30 29 H -3.97473 -1.28393 0.14401 0
M  V30 30 H -2.10833 -0.202659 2.29662 0
M  V30 31 H -2.06853 -1.8264 1.49954 0
M  V30 END ATOM
M  V30 BEGIN BOND
M  V30 1 1 1 2
M  V30 2 2 2 3 CFG=2
M  V30 3 1 2 4
M  V30 4 1 4 5
M  V30 5 2 5 6
M  V30 6 1 5 7
M  V30 7 2 7 8
M  V30 8 1 8 9
M  V30 9 1 8 10
M  V30 10 2 10 11
M  V30 11 1 11 12
M  V30 12 1 12 13
M  V30 13 1 13 14
M  V30 14 1 14 15
M  V30 15 1 15 16
M  V30 16 2 16 17
M  V30 17 1 17 7
M  V30 18 1 16 11
M  V30 19 1 1 18
M  V30 20 1 1 19
M  V30 21 1 3 20
M  V30 22 1 4 21
M  V30 23 1 9 22
M  V30 24 1 9 23
M  V30 25 1 12 24
M  V30 26 1 12 25
M  V30 27 1 13 26
M  V30 28 1 13 27
M  V30 29 1 14 28
M  V30 30 1 14 29
M  V30 31 1 15 30
M  V30 32 1 15 31
M  V30 END BOND
M  V30 END CTAB
M  END
