
     RDKit          3D

  0  0  0  0  0  0  0  0  0  0999 V3000
M  V30 BEGIN CTAB
M  V30 COUNTS 20 20 0 0 0
M  V30 BEGIN ATOM
M  V30 1 N 2.47113 0.461387 0.230183 0
M  V30 2 C 1.39988 -0.121062 -0.534528 0
M  V30 3 C 0.127076 0.550303 -0.138364 0
M  V30 4 C -0.137734 0.353927 1.34052 0
M  V30 5 O -1.3684 -0.261771 1.45738 0
M  V30 6 C -2.11911 0.216857 0.359765 0
M  V30 7 C -1.10063 -0.0221419 -0.764856 0
M  V30 8 N -1.05999 -1.43297 -0.985674 0
M  V30 9 H 3.00815 -0.186686 0.799081 0
M  V30 10 H 3.00537 1.19168 -0.272488 0
M  V30 11 H 1.56064 -0.102215 -1.61484 0
M  V30 12 H 1.33156 -1.20174 -0.243587 0
M  V30 13 H 0.189516 1.63212 -0.399178 0
M  V30 14 H 0.660397 -0.281001 1.80553 0
M  V30 15 H -0.167052 1.35101 1.81214 0
M  V30 16 H -3.03859 -0.338087 0.213102 0
M  V30 17 H -2.2043 1.29166 0.491998 0
M  V30 18 H -1.42414 0.487869 -1.68655 0
M  V30 19 H -0.383109 -1.63777 -1.73845 0
M  V30 20 H -0.75067 -1.95137 -0.131179 0
M  V30 END ATOM
M  V30 BEGIN BOND
M  V30 1 1 1 2
M  V30 2 1 2 3
M  V30 3 1 3 4
M  V30 4 1 4 5
M  V30 5 1 5 6
M  V30 6 1 6 7
M  V30 7 1 7 8
M  V30 8 1 7 3
M  V30 9 1 1 9
M  V30 10 1 1 10
M  V30 11 1 2 11
M  V30 12 1 2 12
M  V30 13 1 3 13
M  V30 14 1 4 14
M  V30 15 1 4 15
M  V30 16 1 6 16
M  V30 17 1 6 17
M  V30 18 1 7 18
M  V30 19 1 8 19
M  V30 20 1 8 20
M  V30 END BOND
M  V30 END CTAB
M  END
