
     RDKit          3D

  0  0  0  0  0  0  0  0  0  0999 V3000
M  V30 BEGIN CTAB
M  V30 COUNTS 30 31 0 0 0
M  V30 BEGIN ATOM
M  V30 1 N 0.159771 -3.4722 -0.178655 0
M  V30 2 C 0.658765 -2.41487 -0.167129 0
M  V30 3 C 1.27517 -1.08514 -0.178275 0
M  V30 4 C 2.54952 -1.11742 0.167838 0
M  V30 5 N 3.26556 -2.29244 0.51739 0
M  V30 6 S 3.44888 0.421226 0.181547 0
M  V30 7 C 2.21394 1.6972 0.206322 0
M  V30 8 C 0.995241 1.41092 -0.142449 0
M  V30 9 C 0.499841 0.080074 -0.577896 0
M  V30 10 C -0.950304 -0.0224605 -0.498639 0
M  V30 11 C -1.68373 0.21922 -1.67436 0
M  V30 12 C -3.04685 0.0731771 -1.76412 0
M  V30 13 C -3.74659 -0.328254 -0.661229 0
M  V30 14 C -3.05071 -0.567184 0.495263 0
M  V30 15 C -1.64011 -0.412347 0.582365 0
M  V30 16 N -1.11787 -0.662262 1.83273 0 CHG=1
M  V30 17 O -1.66619 -1.51411 2.56893 0
M  V30 18 O -0.0354922 -0.0704514 2.36638 0 CHG=-1
M  V30 19 C 0.0437171 2.54037 -0.104538 0
M  V30 20 N -0.717279 3.41205 -0.0842765 0
M  V30 21 N 2.57139 3.02144 0.60911 0
M  V30 22 H 2.84595 -3.04516 1.10351 0
M  V30 23 H 4.24601 -2.42658 0.186697 0
M  V30 24 H 0.731466 0.147275 -1.71335 0
M  V30 25 H -1.19842 0.543748 -2.5971 0
M  V30 26 H -3.60206 0.262699 -2.67573 0
M  V30 27 H -4.83292 -0.460903 -0.681543 0
M  V30 28 H -3.62795 -0.882879 1.35028 0
M  V30 29 H 3.13366 3.11181 1.47274 0
M  V30 30 H 2.2776 3.83343 0.0582078 0
M  V30 END ATOM
M  V30 BEGIN BOND
M  V30 1 3 1 2
M  V30 2 1 2 3
M  V30 3 2 3 4
M  V30 4 1 4 5
M  V30 5 1 4 6
M  V30 6 1 6 7
M  V30 7 2 7 8
M  V30 8 1 8 9
M  V30 9 1 9 10
M  V30 10 2 10 11
M  V30 11 1 11 12
M  V30 12 2 12 13
M  V30 13 1 13 14
M  V30 14 2 14 15
M  V30 15 1 15 16
M  V30 16 2 16 17
M  V30 17 1 16 18
M  V30 18 1 8 19
M  V30 19 3 19 20
M  V30 20 1 7 21
M  V30 21 1 9 3
M  V30 22 1 15 10
M  V30 23 1 5 22
M  V30 24 1 5 23
M  V30 25 1 9 24
M  V30 26 1 11 25
M  V30 27 1 12 26
M  V30 28 1 13 27
M  V30 29 1 14 28
M  V30 30 1 21 29
M  V30 31 1 21 30
M  V30 END BOND
M  V30 END CTAB
M  END
