
     RDKit          3D

  0  0  0  0  0  0  0  0  0  0999 V3000
M  V30 BEGIN CTAB
M  V30 COUNTS 16 17 0 0 0
M  V30 BEGIN ATOM
M  V30 1 N 2.99832 0.15985 -0.23426 0
M  V30 2 C 1.65994 -0.251234 -0.038168 0
M  V30 3 N 1.32489 -1.49483 0.31476 0
M  V30 4 N 0.0673403 -1.85581 0.492266 0
M  V30 5 C -0.94372 -0.992262 0.327652 0
M  V30 6 C -0.638526 0.300042 -0.0363183 0
M  V30 7 C 0.659012 0.676377 -0.220503 0
M  V30 8 N 0.66246 1.98478 -0.569245 0
M  V30 9 O -0.576372 2.37512 -0.593079 0
M  V30 10 N -1.37082 1.41262 -0.285302 0 CHG=1
M  V30 11 O -2.7545 1.3933 -0.190644 0 CHG=-1
M  V30 12 N -2.31008 -1.34804 0.510787 0
M  V30 13 H 3.57006 -0.382011 -0.919027 0
M  V30 14 H 3.34978 0.978626 0.309677 0
M  V30 15 H -2.6615 -1.88917 1.33145 0
M  V30 16 H -3.03629 -1.06735 -0.200049 0
M  V30 END ATOM
M  V30 BEGIN BOND
M  V30 1 1 1 2
M  V30 2 2 2 3
M  V30 3 1 3 4
M  V30 4 2 4 5
M  V30 5 1 5 6
M  V30 6 1 6 7
M  V30 7 2 7 8
M  V30 8 1 8 9
M  V30 9 1 9 10
M  V30 10 1 10 11
M  V30 11 1 5 12
M  V30 12 1 7 2
M  V30 13 2 10 6
M  V30 14 1 1 13
M  V30 15 1 1 14
M  V30 16 1 12 15
M  V30 17 1 12 16
M  V30 END BOND
M  V30 END CTAB
M  END
