
     RDKit          3D

  0  0  0  0  0  0  0  0  0  0999 V3000
M  V30 BEGIN CTAB
M  V30 COUNTS 57 59 0 0 0
M  V30 BEGIN ATOM
M  V30 1 N 8.00362 0.234583 -1.4453 0
M  V30 2 C 6.77105 -0.111923 -0.830022 0
M  V30 3 C 6.41075 0.873957 0.261629 0
M  V30 4 C 5.10856 0.524569 0.925565 0
M  V30 5 O 4.08336 0.532981 -0.0349641 0
M  V30 6 C 2.75558 0.244317 0.288695 0
M  V30 7 C 2.39425 -0.0642769 1.58091 0
M  V30 8 C 1.09389 -0.348881 1.91319 0
M  V30 9 C 0.0525533 -0.345649 0.971079 0
M  V30 10 C 0.461651 -0.0347356 -0.301889 0
M  V30 11 C 1.76969 0.255946 -0.653876 0
M  V30 12 C -1.28037 -0.770473 1.33012 0
M  V30 13 O -1.23658 -1.59103 2.39169 0
M  V30 14 N -2.52827 -0.49861 0.797951 0
M  V30 15 C -3.72649 -1.25785 1.2045 0 CFG=1
M  V30 16 C -4.56592 -1.20747 -0.102544 0
M  V30 17 C -3.77338 -0.280994 -1.05724 0 CFG=2
M  V30 18 C -3.0806 0.527186 0.00704658 0 CFG=2
M  V30 19 C -2.46673 1.76097 -0.325467 0
M  V30 20 C -2.34042 2.21629 -1.61718 0
M  V30 21 C -1.77486 3.46897 -1.89237 0
M  V30 22 C -1.33332 4.26997 -0.871238 0
M  V30 23 C -1.45348 3.82777 0.416819 0
M  V30 24 C -2.0062 2.60496 0.677743 0
M  V30 25 N -4.78451 0.493493 -1.74708 0
M  V30 26 C -3.44068 -2.68848 1.47214 0
M  V30 27 O -4.04246 -3.27616 2.39112 0
M  V30 28 N -2.50281 -3.37744 0.687402 0
M  V30 29 C -2.21524 -4.78855 0.931032 0
M  V30 30 H 8.19349 1.19701 -1.5851 0
M  V30 31 H 8.41537 -0.436747 -2.05477 0
M  V30 32 H 6.90155 -1.13445 -0.394736 0
M  V30 33 H 5.99785 -0.132582 -1.62718 0
M  V30 34 H 6.38561 1.89021 -0.171187 0
M  V30 35 H 7.22918 0.859988 1.0066 0
M  V30 36 H 5.20852 -0.438268 1.45606 0
M  V30 37 H 4.88776 1.29299 1.68805 0
M  V30 38 H 3.18362 -0.0769895 2.349 0
M  V30 39 H 0.809453 -0.589208 2.93226 0
M  V30 40 H -0.30533 -0.0638251 -1.09782 0
M  V30 41 H 1.98798 0.488798 -1.67787 0
M  V30 42 H -4.27359 -0.759529 2.00994 0
M  V30 43 H -5.57201 -0.84017 0.080264 0
M  V30 44 H -4.5582 -2.20886 -0.550487 0
M  V30 45 H -3.10664 -0.84807 -1.71587 0
M  V30 46 H -4.04752 0.837166 0.68083 0
M  V30 47 H -2.64739 1.66922 -2.481 0
M  V30 48 H -1.67688 3.82636 -2.92086 0
M  V30 49 H -0.892979 5.24913 -1.11248 0
M  V30 50 H -1.09427 4.48523 1.20553 0
M  V30 51 H -2.09635 2.2627 1.7177 0
M  V30 52 H -5.20528 -0.081167 -2.50045 0
M  V30 53 H -5.52876 0.720698 -1.0352 0
M  V30 54 H -1.97579 -2.92664 -0.0922224 0
M  V30 55 H -1.33534 -5.13562 0.39335 0
M  V30 56 H -3.12572 -5.35008 0.627647 0
M  V30 57 H -2.11099 -4.95071 2.02516 0
M  V30 END ATOM
M  V30 BEGIN BOND
M  V30 1 1 1 2
M  V30 2 1 2 3
M  V30 3 1 3 4
M  V30 4 1 4 5
M  V30 5 1 5 6
M  V30 6 2 6 7
M  V30 7 1 7 8
M  V30 8 2 8 9
M  V30 9 1 9 10
M  V30 10 2 10 11
M  V30 11 1 9 12
M  V30 12 2 12 13
M  V30 13 1 12 14
M  V30 14 1 14 15
M  V30 15 1 15 16
M  V30 16 1 16 17
M  V30 17 1 17 18
M  V30 18 1 18 19
M  V30 19 2 19 20
M  V30 20 1 20 21
M  V30 21 2 21 22
M  V30 22 1 22 23
M  V30 23 2 23 24
M  V30 24 1 17 25
M  V30 25 1 15 26
M  V30 26 2 26 27
M  V30 27 1 26 28
M  V30 28 1 28 29
M  V30 29 1 11 6
M  V30 30 1 18 14
M  V30 31 1 24 19
M  V30 32 1 1 30
M  V30 33 1 1 31
M  V30 34 1 2 32
M  V30 35 1 2 33
M  V30 36 1 3 34
M  V30 37 1 3 35
M  V30 38 1 4 36
M  V30 39 1 4 37
M  V30 40 1 7 38
M  V30 41 1 8 39
M  V30 42 1 10 40
M  V30 43 1 11 41
M  V30 44 1 15 42 CFG=1
M  V30 45 1 16 43
M  V30 46 1 16 44
M  V30 47 1 17 45 CFG=3
M  V30 48 1 18 46 CFG=1
M  V30 49 1 20 47
M  V30 50 1 21 48
M  V30 51 1 22 49
M  V30 52 1 23 50
M  V30 53 1 24 51
M  V30 54 1 25 52
M  V30 55 1 25 53
M  V30 56 1 28 54
M  V30 57 1 29 55
M  V30 58 1 29 56
M  V30 59 1 29 57
M  V30 END BOND
M  V30 END CTAB
M  END
