
     RDKit          3D

 44 47  0  0  0  0  0  0  0  0999 V2000
    1.8650   -1.0608   -1.8005 N   0  0  0  0  0  0  0  0  0  0  0  0
    1.7195    0.3008   -1.2500 C   0  0  2  0  0  0  0  0  0  0  0  0
    2.0790    0.3997    0.2417 C   0  0  0  0  0  0  0  0  0  0  0  0
    1.5926   -0.4481    1.2911 C   0  0  0  0  0  0  0  0  0  0  0  0
    0.6980   -1.5349    1.1264 C   0  0  0  0  0  0  0  0  0  0  0  0
    0.2551   -2.3199    2.1963 C   0  0  0  0  0  0  0  0  0  0  0  0
    0.6953   -2.0497    3.4805 C   0  0  0  0  0  0  0  0  0  0  0  0
    1.5748   -0.9929    3.6909 C   0  0  0  0  0  0  0  0  0  0  0  0
    2.0241   -0.1948    2.6246 C   0  0  0  0  0  0  0  0  0  0  0  0
    2.9046    0.8582    2.9004 C   0  0  0  0  0  0  0  0  0  0  0  0
    3.3752    1.6777    1.8856 C   0  0  0  0  0  0  0  0  0  0  0  0
    2.9676    1.4503    0.5777 C   0  0  0  0  0  0  0  0  0  0  0  0
    0.4068    1.0797   -1.6972 C   0  0  1  0  0  0  0  0  0  0  0  0
   -0.9158    0.4746   -1.2171 C   0  0  0  0  0  0  0  0  0  0  0  0
   -1.6660   -0.4528   -2.0121 C   0  0  0  0  0  0  0  0  0  0  0  0
   -1.2945   -0.8942   -3.3079 C   0  0  0  0  0  0  0  0  0  0  0  0
   -2.0630   -1.8095   -4.0338 C   0  0  0  0  0  0  0  0  0  0  0  0
   -3.2333   -2.3151   -3.4907 C   0  0  0  0  0  0  0  0  0  0  0  0
   -3.6347   -1.9036   -2.2232 C   0  0  0  0  0  0  0  0  0  0  0  0
   -2.8728   -0.9852   -1.4818 C   0  0  0  0  0  0  0  0  0  0  0  0
   -3.3164   -0.6018   -0.2105 C   0  0  0  0  0  0  0  0  0  0  0  0
   -2.5892    0.2984    0.5561 C   0  0  0  0  0  0  0  0  0  0  0  0
   -1.4045    0.8289    0.0593 C   0  0  0  0  0  0  0  0  0  0  0  0
    0.4823    2.5326   -1.4172 N   0  0  0  0  0  0  0  0  0  0  0  0
    2.0147   -0.9925   -2.8052 H   0  0  0  0  0  0  0  0  0  0  0  0
    0.9858   -1.5616   -1.6978 H   0  0  0  0  0  0  0  0  0  0  0  0
    2.5300    0.8341   -1.7703 H   0  0  0  0  0  0  0  0  0  0  0  0
    0.3053   -1.7930    0.1517 H   0  0  0  0  0  0  0  0  0  0  0  0
   -0.4348   -3.1395    2.0141 H   0  0  0  0  0  0  0  0  0  0  0  0
    0.3584   -2.6567    4.3156 H   0  0  0  0  0  0  0  0  0  0  0  0
    1.9121   -0.7949    4.7063 H   0  0  0  0  0  0  0  0  0  0  0  0
    3.2368    1.0484    3.9187 H   0  0  0  0  0  0  0  0  0  0  0  0
    4.0613    2.4894    2.1111 H   0  0  0  0  0  0  0  0  0  0  0  0
    3.3532    2.1099   -0.1994 H   0  0  0  0  0  0  0  0  0  0  0  0
    0.4063    1.0597   -2.7913 H   0  0  0  0  0  0  0  0  0  0  0  0
   -0.3921   -0.5324   -3.7912 H   0  0  0  0  0  0  0  0  0  0  0  0
   -1.7435   -2.1218   -5.0249 H   0  0  0  0  0  0  0  0  0  0  0  0
   -3.8356   -3.0256   -4.0502 H   0  0  0  0  0  0  0  0  0  0  0  0
   -4.5579   -2.3096   -1.8139 H   0  0  0  0  0  0  0  0  0  0  0  0
   -4.2383   -1.0085    0.1998 H   0  0  0  0  0  0  0  0  0  0  0  0
   -2.9366    0.5780    1.5473 H   0  0  0  0  0  0  0  0  0  0  0  0
   -0.8471    1.5078    0.7013 H   0  0  0  0  0  0  0  0  0  0  0  0
   -0.4187    2.9513   -1.6468 H   0  0  0  0  0  0  0  0  0  0  0  0
    0.6183    2.6710   -0.4170 H   0  0  0  0  0  0  0  0  0  0  0  0
  1  2  1  0
  2  3  1  0
  3  4  1  0
  4  5  2  0
  5  6  1  0
  6  7  2  0
  7  8  1  0
  8  9  2  0
  9 10  1  0
 10 11  2  0
 11 12  1  0
  2 13  1  0
 13 14  1  0
 14 15  1  0
 15 16  2  0
 16 17  1  0
 17 18  2  0
 18 19  1  0
 19 20  2  0
 20 21  1  0
 21 22  2  0
 22 23  1  0
 13 24  1  0
 12  3  2  0
  9  4  1  0
 23 14  2  0
 20 15  1  0
  1 25  1  0
  1 26  1  0
  2 27  1  6
  5 28  1  0
  6 29  1  0
  7 30  1  0
  8 31  1  0
 10 32  1  0
 11 33  1  0
 12 34  1  0
 13 35  1  6
 16 36  1  0
 17 37  1  0
 18 38  1  0
 19 39  1  0
 21 40  1  0
 22 41  1  0
 23 42  1  0
 24 43  1  0
 24 44  1  0
M  END
