
     RDKit          3D

  0  0  0  0  0  0  0  0  0  0999 V3000
M  V30 BEGIN CTAB
M  V30 COUNTS 37 39 0 0 0
M  V30 BEGIN ATOM
M  V30 1 N -6.82443 -0.103927 0.335257 0
M  V30 2 C -5.44712 0.269326 0.134834 0
M  V30 3 C -4.60372 -0.160592 1.32066 0
M  V30 4 C -3.71092 -0.914902 0.355527 0
M  V30 5 C -4.71791 -0.702005 -0.754436 0
M  V30 6 C -2.40083 -0.243315 0.132779 0
M  V30 7 N -2.35533 1.07193 -0.136416 0
M  V30 8 C -1.17227 1.68804 -0.339509 0
M  V30 9 N -0.00847215 1.01543 -0.280515 0
M  V30 10 C 0.0006998 -0.302191 -0.0144628 0
M  V30 11 C -1.21291 -0.923221 0.191651 0
M  V30 12 N 1.22222 -1.01567 0.0489812 0
M  V30 13 C 2.46991 -0.32682 -0.173067 0
M  V30 14 C 3.63098 -1.30191 -0.052844 0
M  V30 15 C 4.93253 -0.596568 -0.281776 0
M  V30 16 N 5.59784 -0.402932 -1.41435 0
M  V30 17 N 6.69351 0.222971 -1.41151 0
M  V30 18 C 7.18555 0.691818 -0.267721 0
M  V30 19 S 5.97517 0.182045 0.834467 0
M  V30 20 N 8.40485 1.41775 -0.0856988 0
M  V30 21 H -7.4317 0.108192 -0.464354 0
M  V30 22 H -7.19142 0.185498 1.26146 0
M  V30 23 H -5.27802 1.30089 -0.210819 0
M  V30 24 H -5.13623 -0.854032 2.01523 0
M  V30 25 H -4.11451 0.699147 1.83109 0
M  V30 26 H -3.61619 -1.98671 0.566201 0
M  V30 27 H -5.30245 -1.61786 -1.02589 0
M  V30 28 H -4.29215 -0.272066 -1.69015 0
M  V30 29 H -1.21999 2.74788 -0.55084 0
M  V30 30 H -1.24183 -1.98299 0.408044 0
M  V30 31 H 1.23983 -2.03278 0.253626 0
M  V30 32 H 2.62931 0.519566 0.513207 0
M  V30 33 H 2.4436 0.0751526 -1.22361 0
M  V30 34 H 3.55714 -2.10803 -0.778976 0
M  V30 35 H 3.61393 -1.68221 0.98975 0
M  V30 36 H 8.34152 2.45201 -0.00202286 0
M  V30 37 H 9.33982 0.965335 -0.033789 0
M  V30 END ATOM
M  V30 BEGIN BOND
M  V30 1 1 1 2
M  V30 2 1 2 3
M  V30 3 1 3 4
M  V30 4 1 4 5
M  V30 5 1 4 6
M  V30 6 2 6 7
M  V30 7 1 7 8
M  V30 8 2 8 9
M  V30 9 1 9 10
M  V30 10 2 10 11
M  V30 11 1 10 12
M  V30 12 1 12 13
M  V30 13 1 13 14
M  V30 14 1 14 15
M  V30 15 2 15 16
M  V30 16 1 16 17
M  V30 17 2 17 18
M  V30 18 1 18 19
M  V30 19 1 18 20
M  V30 20 1 5 2
M  V30 21 1 11 6
M  V30 22 1 19 15
M  V30 23 1 1 21
M  V30 24 1 1 22
M  V30 25 1 2 23
M  V30 26 1 3 24
M  V30 27 1 3 25
M  V30 28 1 4 26
M  V30 29 1 5 27
M  V30 30 1 5 28
M  V30 31 1 8 29
M  V30 32 1 11 30
M  V30 33 1 12 31
M  V30 34 1 13 32
M  V30 35 1 13 33
M  V30 36 1 14 34
M  V30 37 1 14 35
M  V30 38 1 20 36
M  V30 39 1 20 37
M  V30 END BOND
M  V30 END CTAB
M  END
