
     RDKit          3D

  0  0  0  0  0  0  0  0  0  0999 V3000
M  V30 BEGIN CTAB
M  V30 COUNTS 60 62 0 0 0
M  V30 BEGIN ATOM
M  V30 1 N -8.72527 -0.351063 2.2928 0
M  V30 2 C -7.99245 -1.53481 1.92982 0
M  V30 3 C -6.58714 -1.06894 1.47575 0
M  V30 4 C -6.78906 -0.169211 0.326211 0
M  V30 5 C -5.57584 0.469961 -0.211836 0
M  V30 6 C -4.5344 -0.465238 -0.727531 0 CFG=1
M  V30 7 C -3.44861 0.381685 -1.27084 0
M  V30 8 O -3.8391 1.40949 -1.93525 0
M  V30 9 N -2.08671 0.193916 -1.14657 0
M  V30 10 C -1.49664 -0.921352 -0.46617 0
M  V30 11 C 0.00854203 -0.903135 -0.736365 0
M  V30 12 C 0.56633 0.357145 -0.0960637 0
M  V30 13 C -0.14934 1.5751 -0.640615 0
M  V30 14 C -1.13231 1.16623 -1.7199 0
M  V30 15 C 2.03564 0.379602 -0.392371 0
M  V30 16 N 2.48196 0.456637 -1.65929 0
M  V30 17 C 3.7745 0.479672 -1.97559 0
M  V30 18 C 4.27462 0.564573 -3.37395 0
M  V30 19 C 4.72698 0.422315 -0.962967 0
M  V30 20 C 4.29895 0.343397 0.336355 0
M  V30 21 N 2.94086 0.324338 0.582692 0
M  V30 22 N 5.13451 0.278844 1.46169 0
M  V30 23 C 6.56519 0.285658 1.42111 0
M  V30 24 N 7.44916 0.345621 0.457175 0
M  V30 25 C 8.71533 0.335613 0.692359 0
M  V30 26 C 9.11463 0.258963 2.00475 0
M  V30 27 S 7.61858 0.206183 2.81598 0
M  V30 28 C 10.5272 0.232101 2.53145 0
M  V30 29 N -4.00282 -1.39961 0.194083 0
M  V30 30 H -8.13606 0.355759 2.77219 0
M  V30 31 H -9.30496 0.0166602 1.52253 0
M  V30 32 H -8.42801 -2.05451 1.05719 0
M  V30 33 H -7.81822 -2.23043 2.76914 0
M  V30 34 H -6.06914 -0.642617 2.33716 0
M  V30 35 H -6.04854 -2.0153 1.17992 0
M  V30 36 H -7.61032 0.586073 0.517886 0
M  V30 37 H -7.24324 -0.783244 -0.532807 0
M  V30 38 H -5.86708 1.22433 -1.01852 0
M  V30 39 H -5.10687 1.09339 0.602457 0
M  V30 40 H -4.91575 -1.06327 -1.60945 0
M  V30 41 H -1.57154 -0.886989 0.640903 0
M  V30 42 H -1.82303 -1.9188 -0.842448 0
M  V30 43 H 0.132198 -0.836991 -1.82981 0
M  V30 44 H 0.498574 -1.78717 -0.316235 0
M  V30 45 H 0.374828 0.297237 0.984487 0
M  V30 46 H -0.723086 2.03625 0.182914 0
M  V30 47 H 0.572755 2.2947 -1.0138 0
M  V30 48 H -1.72583 2.07059 -1.94964 0
M  V30 49 H -0.685305 0.811232 -2.64211 0
M  V30 50 H 3.42089 0.662931 -4.07934 0
M  V30 51 H 4.74703 -0.424556 -3.59084 0
M  V30 52 H 4.9728 1.40546 -3.51763 0
M  V30 53 H 5.75871 0.44076 -1.21506 0
M  V30 54 H 4.6726 0.219881 2.42395 0
M  V30 55 H 9.47221 0.386544 -0.126864 0
M  V30 56 H 10.8843 -0.833834 2.43276 0
M  V30 57 H 10.4922 0.517874 3.58189 0
M  V30 58 H 11.1038 0.903108 1.89041 0
M  V30 59 H -4.02927 -2.38882 -0.0369486 0
M  V30 60 H -3.87 -1.10993 1.16105 0
M  V30 END ATOM
M  V30 BEGIN BOND
M  V30 1 1 1 2
M  V30 2 1 2 3
M  V30 3 1 3 4
M  V30 4 1 4 5
M  V30 5 1 5 6
M  V30 6 1 6 7
M  V30 7 2 7 8
M  V30 8 1 7 9
M  V30 9 1 9 10
M  V30 10 1 10 11
M  V30 11 1 11 12
M  V30 12 1 12 13
M  V30 13 1 13 14
M  V30 14 1 12 15
M  V30 15 2 15 16
M  V30 16 1 16 17
M  V30 17 1 17 18
M  V30 18 2 17 19
M  V30 19 1 19 20
M  V30 20 2 20 21
M  V30 21 1 20 22
M  V30 22 1 22 23
M  V30 23 2 23 24
M  V30 24 1 24 25
M  V30 25 2 25 26
M  V30 26 1 26 27
M  V30 27 1 26 28
M  V30 28 1 6 29
M  V30 29 1 14 9
M  V30 30 1 21 15
M  V30 31 1 27 23
M  V30 32 1 1 30
M  V30 33 1 1 31
M  V30 34 1 2 32
M  V30 35 1 2 33
M  V30 36 1 3 34
M  V30 37 1 3 35
M  V30 38 1 4 36
M  V30 39 1 4 37
M  V30 40 1 5 38
M  V30 41 1 5 39
M  V30 42 1 6 40 CFG=3
M  V30 43 1 10 41
M  V30 44 1 10 42
M  V30 45 1 11 43
M  V30 46 1 11 44
M  V30 47 1 12 45
M  V30 48 1 13 46
M  V30 49 1 13 47
M  V30 50 1 14 48
M  V30 51 1 14 49
M  V30 52 1 18 50
M  V30 53 1 18 51
M  V30 54 1 18 52
M  V30 55 1 19 53
M  V30 56 1 22 54
M  V30 57 1 25 55
M  V30 58 1 28 56
M  V30 59 1 28 57
M  V30 60 1 28 58
M  V30 61 1 29 59
M  V30 62 1 29 60
M  V30 END BOND
M  V30 END CTAB
M  END
