
     RDKit          3D

  0  0  0  0  0  0  0  0  0  0999 V3000
M  V30 BEGIN CTAB
M  V30 COUNTS 51 53 0 0 0
M  V30 BEGIN ATOM
M  V30 1 N -1.51608 -3.22367 -1.30318 0
M  V30 2 C -2.34862 -2.46503 -0.359384 0
M  V30 3 C -1.95261 -1.03653 -0.492034 0
M  V30 4 C -2.76646 -0.151749 0.46057 0
M  V30 5 C -4.22195 -0.440695 0.0760975 0
M  V30 6 C -5.05969 0.653358 0.746544 0
M  V30 7 C -4.9039 1.88021 -0.115079 0
M  V30 8 C -3.52794 1.95036 -0.685026 0
M  V30 9 C -2.47113 1.30547 0.180378 0
M  V30 10 N -0.529956 -0.888638 -0.342627 0
M  V30 11 C 0.19466 -0.349103 0.726996 0
M  V30 12 O -0.253626 0.110779 1.80083 0
M  V30 13 N 1.63597 -0.303951 0.605971 0
M  V30 14 C 2.50123 0.230414 1.6323 0
M  V30 15 C 3.88956 0.143312 1.09819 0
M  V30 16 C 3.77511 -1.00937 0.122443 0
M  V30 17 C 2.43767 -0.762887 -0.510543 0
M  V30 18 C 4.93305 -0.77984 -0.806758 0
M  V30 19 C 4.87974 0.716292 -1.02267 0
M  V30 20 C 4.19282 1.29904 0.174141 0
M  V30 21 N 4.95061 2.31002 0.851731 0
M  V30 22 H -1.16768 -4.08015 -0.825111 0
M  V30 23 H -2.05398 -3.49401 -2.15163 0
M  V30 24 H -3.41439 -2.59395 -0.688876 0
M  V30 25 H -2.25297 -2.88511 0.637437 0
M  V30 26 H -2.2307 -0.633294 -1.48113 0
M  V30 27 H -2.63357 -0.382157 1.49988 0
M  V30 28 H -4.57583 -1.39703 0.457631 0
M  V30 29 H -4.3877 -0.329441 -1.01392 0
M  V30 30 H -4.71318 0.84057 1.77296 0
M  V30 31 H -6.14742 0.366211 0.734407 0
M  V30 32 H -5.1802 2.80537 0.45818 0
M  V30 33 H -5.63499 1.78454 -0.948158 0
M  V30 34 H -3.2509 3.02148 -0.777148 0
M  V30 35 H -3.49538 1.5398 -1.71824 0
M  V30 36 H -2.36486 1.8718 1.09815 0
M  V30 37 H -1.53291 1.35366 -0.397701 0
M  V30 38 H 0.0574007 -1.24168 -1.17197 0
M  V30 39 H 2.40871 -0.323574 2.59033 0
M  V30 40 H 2.24107 1.31103 1.7679 0
M  V30 41 H 4.66771 -0.0648926 1.82738 0
M  V30 42 H 3.81278 -1.98549 0.643542 0
M  V30 43 H 2.5077 0.0340341 -1.2626 0
M  V30 44 H 2.02852 -1.66369 -1.01193 0
M  V30 45 H 4.85679 -1.35682 -1.74329 0
M  V30 46 H 5.85804 -1.00787 -0.269274 0
M  V30 47 H 5.88354 1.1759 -1.10759 0
M  V30 48 H 4.34382 0.957713 -1.98401 0
M  V30 49 H 3.19156 1.67451 -0.182952 0
M  V30 50 H 4.77196 2.26924 1.88605 0
M  V30 51 H 4.56862 3.24553 0.522785 0
M  V30 END ATOM
M  V30 BEGIN BOND
M  V30 1 1 1 2
M  V30 2 1 2 3
M  V30 3 1 3 4
M  V30 4 1 4 5
M  V30 5 1 5 6
M  V30 6 1 6 7
M  V30 7 1 7 8
M  V30 8 1 8 9
M  V30 9 1 3 10
M  V30 10 1 10 11
M  V30 11 2 11 12
M  V30 12 1 11 13
M  V30 13 1 13 14
M  V30 14 1 14 15
M  V30 15 1 15 16
M  V30 16 1 16 17
M  V30 17 1 16 18
M  V30 18 1 18 19
M  V30 19 1 19 20
M  V30 20 1 20 21
M  V30 21 1 9 4
M  V30 22 1 17 13
M  V30 23 1 20 15
M  V30 24 1 1 22
M  V30 25 1 1 23
M  V30 26 1 2 24
M  V30 27 1 2 25
M  V30 28 1 3 26
M  V30 29 1 4 27
M  V30 30 1 5 28
M  V30 31 1 5 29
M  V30 32 1 6 30
M  V30 33 1 6 31
M  V30 34 1 7 32
M  V30 35 1 7 33
M  V30 36 1 8 34
M  V30 37 1 8 35
M  V30 38 1 9 36
M  V30 39 1 9 37
M  V30 40 1 10 38
M  V30 41 1 14 39
M  V30 42 1 14 40
M  V30 43 1 15 41
M  V30 44 1 16 42
M  V30 45 1 17 43
M  V30 46 1 17 44
M  V30 47 1 18 45
M  V30 48 1 18 46
M  V30 49 1 19 47
M  V30 50 1 19 48
M  V30 51 1 20 49
M  V30 52 1 21 50
M  V30 53 1 21 51
M  V30 END BOND
M  V30 END CTAB
M  END
