
     RDKit          3D

  0  0  0  0  0  0  0  0  0  0999 V3000
M  V30 BEGIN CTAB
M  V30 COUNTS 28 29 0 0 0
M  V30 BEGIN ATOM
M  V30 1 N 4.33021 -0.0319087 -2.38998 0
M  V30 2 C 3.44173 -0.0700802 -1.2622 0
M  V30 3 C 2.0934 0.17396 -1.39131 0
M  V30 4 C 1.22574 0.142457 -0.324842 0
M  V30 5 O -0.148317 0.398569 -0.501611 0
M  V30 6 C -1.04657 0.369294 0.582115 0
M  V30 7 C -2.42341 0.683265 0.0556976 0
M  V30 8 C -3.51274 0.69354 1.09108 0
M  V30 9 C -4.40407 -0.0267575 0.0768162 0
M  V30 10 C -3.12141 -0.456371 -0.633472 0
M  V30 11 N 1.72546 -0.139139 0.888428 0
M  V30 12 C 3.03733 -0.378756 1.02733 0
M  V30 13 N 3.8954 -0.348074 -0.0244748 0
M  V30 14 N 3.60354 -0.682127 2.30641 0
M  V30 15 H 4.24367 -0.709878 -3.18004 0
M  V30 16 H 5.09226 0.676688 -2.45514 0
M  V30 17 H 1.71358 0.40128 -2.39438 0
M  V30 18 H -0.753936 1.04488 1.40293 0
M  V30 19 H -1.09027 -0.661229 1.01377 0
M  V30 20 H -2.39785 1.58993 -0.560289 0
M  V30 21 H -3.86141 1.72134 1.27369 0
M  V30 22 H -3.31745 0.132159 2.01034 0
M  V30 23 H -4.98545 -0.862619 0.486388 0
M  V30 24 H -4.96708 0.686935 -0.571782 0
M  V30 25 H -2.72362 -1.43034 -0.325067 0
M  V30 26 H -3.20331 -0.365337 -1.73339 0
M  V30 27 H 3.1785 -1.49462 2.81612 0
M  V30 28 H 4.37607 -0.151485 2.71688 0
M  V30 END ATOM
M  V30 BEGIN BOND
M  V30 1 1 1 2
M  V30 2 2 2 3
M  V30 3 1 3 4
M  V30 4 1 4 5
M  V30 5 1 5 6
M  V30 6 1 6 7
M  V30 7 1 7 8
M  V30 8 1 8 9
M  V30 9 1 9 10
M  V30 10 2 4 11
M  V30 11 1 11 12
M  V30 12 2 12 13
M  V30 13 1 12 14
M  V30 14 1 13 2
M  V30 15 1 10 7
M  V30 16 1 1 15
M  V30 17 1 1 16
M  V30 18 1 3 17
M  V30 19 1 6 18
M  V30 20 1 6 19
M  V30 21 1 7 20
M  V30 22 1 8 21
M  V30 23 1 8 22
M  V30 24 1 9 23
M  V30 25 1 9 24
M  V30 26 1 10 25
M  V30 27 1 10 26
M  V30 28 1 14 27
M  V30 29 1 14 28
M  V30 END BOND
M  V30 END CTAB
M  END
