
     RDKit          3D

  0  0  0  0  0  0  0  0  0  0999 V3000
M  V30 BEGIN CTAB
M  V30 COUNTS 23 23 0 0 0
M  V30 BEGIN ATOM
M  V30 1 N -2.30723 -2.36666 -0.118208 0
M  V30 2 C -1.69279 -1.0958 -0.0600347 0
M  V30 3 N -2.45938 0.00640075 4.64589e-05 0
M  V30 4 C -1.9574 1.24931 0.0576605 0
M  V30 5 N -2.75465 2.41012 0.120827 0
M  V30 6 N -0.617267 1.36701 0.0535237 0
M  V30 7 C 0.212909 0.317184 -0.00444211 0
M  V30 8 C -0.32069 -0.951141 -0.0630736 0
M  V30 9 C 1.65941 0.559302 -0.0032367 0
M  V30 10 C 2.35012 0.00737435 -1.23083 0
M  V30 11 C 2.22836 -0.122002 1.23974 0
M  V30 12 H -1.80491 -3.16203 -0.523107 0
M  V30 13 H -3.27064 -2.52424 0.243197 0
M  V30 14 H -3.22251 2.75252 -0.726547 0
M  V30 15 H -2.85639 2.90114 1.024 0
M  V30 16 H 0.299528 -1.84095 -0.111602 0
M  V30 17 H 1.87805 1.62291 0.0476042 0
M  V30 18 H 3.42492 0.295997 -1.14259 0
M  V30 19 H 1.95678 0.565455 -2.09715 0
M  V30 20 H 2.22959 -1.07451 -1.34229 0
M  V30 21 H 1.48276 -0.828337 1.68861 0
M  V30 22 H 3.09163 -0.728723 0.952881 0
M  V30 23 H 2.44978 0.639669 1.99503 0
M  V30 END ATOM
M  V30 BEGIN BOND
M  V30 1 1 1 2
M  V30 2 2 2 3
M  V30 3 1 3 4
M  V30 4 1 4 5
M  V30 5 2 4 6
M  V30 6 1 6 7
M  V30 7 2 7 8
M  V30 8 1 7 9
M  V30 9 1 9 10
M  V30 10 1 9 11
M  V30 11 1 8 2
M  V30 12 1 1 12
M  V30 13 1 1 13
M  V30 14 1 5 14
M  V30 15 1 5 15
M  V30 16 1 8 16
M  V30 17 1 9 17
M  V30 18 1 10 18
M  V30 19 1 10 19
M  V30 20 1 10 20
M  V30 21 1 11 21
M  V30 22 1 11 22
M  V30 23 1 11 23
M  V30 END BOND
M  V30 END CTAB
M  END
