
     RDKit          3D

  0  0  0  0  0  0  0  0  0  0999 V3000
M  V30 BEGIN CTAB
M  V30 COUNTS 40 41 0 0 0
M  V30 BEGIN ATOM
M  V30 1 C 7.03741 0.571623 -0.766904 0
M  V30 2 C 5.78435 -0.0465519 -0.196911 0
M  V30 3 O 5.984 -1.10681 0.422865 0
M  V30 4 N 4.57497 0.622407 -0.422814 0
M  V30 5 C 3.32936 0.198904 0.0335355 0
M  V30 6 C 2.17197 0.775266 -0.505087 0
M  V30 7 C 0.9329 0.397602 -0.0681278 0
M  V30 8 C 0.750522 -0.556208 0.911368 0
M  V30 9 S -0.83588 -1.08213 1.5162 0
M  V30 10 C -2.17274 -0.278146 0.653804 0
M  V30 11 C -2.65574 0.959875 1.06744 0
M  V30 12 N -2.08896 1.63091 2.18677 0
M  V30 13 C -3.69571 1.59124 0.420827 0
M  V30 14 C -4.26402 0.972661 -0.660763 0
M  V30 15 C -3.78042 -0.252275 -1.06259 0
M  V30 16 C -2.72928 -0.917812 -0.429061 0
M  V30 17 S -2.20894 -2.4905 -1.00445 0
M  V30 18 N -2.41601 -3.6319 0.290381 0
M  V30 19 O -3.07436 -2.87639 -2.18088 0
M  V30 20 O -0.777285 -2.45446 -1.40543 0
M  V30 21 C -5.37332 1.59867 -1.38998 0
M  V30 22 O -5.82825 2.82979 -0.957379 0
M  V30 23 O -5.92528 1.07354 -2.38147 0
M  V30 24 C 1.89433 -1.11376 1.4315 0
M  V30 25 C 3.1755 -0.744442 1.00173 0
M  V30 26 H 7.48657 -0.173038 -1.46203 0
M  V30 27 H 6.78692 1.45228 -1.36582 0
M  V30 28 H 7.70232 0.806278 0.0840062 0
M  V30 29 H 4.57559 1.54361 -0.988095 0
M  V30 30 H 2.26858 1.54329 -1.29316 0
M  V30 31 H 0.022136 0.83641 -0.477706 0
M  V30 32 H -1.59211 2.53749 2.00127 0
M  V30 33 H -2.17622 1.22115 3.13442 0
M  V30 34 H -4.07935 2.55322 0.733347 0
M  V30 35 H -4.21286 -0.774974 -1.9247 0
M  V30 36 H -2.94091 -3.18841 1.092 0
M  V30 37 H -1.48246 -3.90312 0.698445 0
M  V30 38 H -5.94216 3.00669 0.0325195 0
M  V30 39 H 1.78057 -1.87234 2.20938 0
M  V30 40 H 3.99426 -1.25962 1.50808 0
M  V30 END ATOM
M  V30 BEGIN BOND
M  V30 1 1 1 2
M  V30 2 2 2 3
M  V30 3 1 2 4
M  V30 4 1 4 5
M  V30 5 2 5 6
M  V30 6 1 6 7
M  V30 7 2 7 8
M  V30 8 1 8 9
M  V30 9 1 9 10
M  V30 10 2 10 11
M  V30 11 1 11 12
M  V30 12 1 11 13
M  V30 13 2 13 14
M  V30 14 1 14 15
M  V30 15 2 15 16
M  V30 16 1 16 17
M  V30 17 1 17 18
M  V30 18 2 17 19
M  V30 19 2 17 20
M  V30 20 1 14 21
M  V30 21 1 21 22
M  V30 22 2 21 23
M  V30 23 1 8 24
M  V30 24 2 24 25
M  V30 25 1 25 5
M  V30 26 1 16 10
M  V30 27 1 1 26
M  V30 28 1 1 27
M  V30 29 1 1 28
M  V30 30 1 4 29
M  V30 31 1 6 30
M  V30 32 1 7 31
M  V30 33 1 12 32
M  V30 34 1 12 33
M  V30 35 1 13 34
M  V30 36 1 15 35
M  V30 37 1 18 36
M  V30 38 1 18 37
M  V30 39 1 22 38
M  V30 40 1 24 39
M  V30 41 1 25 40
M  V30 END BOND
M  V30 END CTAB
M  END
