
     RDKit          3D

  0  0  0  0  0  0  0  0  0  0999 V3000
M  V30 BEGIN CTAB
M  V30 COUNTS 27 27 0 0 0
M  V30 BEGIN ATOM
M  V30 1 N -2.09733 3.21824 -0.37308 0
M  V30 2 N -1.35056 2.11198 -0.735274 0
M  V30 3 C -1.55122 0.835515 -0.154378 0
M  V30 4 O -2.44163 0.700342 0.724311 0
M  V30 5 C -0.758286 -0.337295 -0.53959 0
M  V30 6 C -1.28977 -1.59772 0.0348024 0
M  V30 7 O -1.77143 -2.474 -0.767626 0
M  V30 8 N -1.31671 -1.92907 1.39793 0
M  V30 9 N -1.8366 -3.1371 1.82914 0
M  V30 10 C 0.669355 -0.105594 -0.274251 0
M  V30 11 C 1.06813 0.384345 0.943155 0
M  V30 12 C 2.41814 0.611452 1.23874 0
M  V30 13 C 3.38515 0.342973 0.297351 0
M  V30 14 C 3.00033 -0.149736 -0.931527 0
M  V30 15 C 1.66625 -0.365179 -1.1992 0
M  V30 16 H -2.36725 3.80195 -1.19101 0
M  V30 17 H -1.64864 3.78985 0.377358 0
M  V30 18 H -0.608966 2.20267 -1.46041 0
M  V30 19 H -0.829555 -0.451245 -1.66396 0
M  V30 20 H -0.949232 -1.27306 2.09818 0
M  V30 21 H -1.26207 -3.95377 1.52835 0
M  V30 22 H -2.85238 -3.25121 1.66956 0
M  V30 23 H 0.393399 0.62991 1.73662 0
M  V30 24 H 2.74829 0.996515 2.19234 0
M  V30 25 H 4.42014 0.514116 0.516014 0
M  V30 26 H 3.77054 -0.365415 -1.6866 0
M  V30 27 H 1.3919 -0.749454 -2.1636 0
M  V30 END ATOM
M  V30 BEGIN BOND
M  V30 1 1 1 2
M  V30 2 1 2 3
M  V30 3 2 3 4
M  V30 4 1 3 5
M  V30 5 1 5 6
M  V30 6 2 6 7
M  V30 7 1 6 8
M  V30 8 1 8 9
M  V30 9 1 5 10
M  V30 10 2 10 11
M  V30 11 1 11 12
M  V30 12 2 12 13
M  V30 13 1 13 14
M  V30 14 2 14 15
M  V30 15 1 15 10
M  V30 16 1 1 16
M  V30 17 1 1 17
M  V30 18 1 2 18
M  V30 19 1 5 19
M  V30 20 1 8 20
M  V30 21 1 9 21
M  V30 22 1 9 22
M  V30 23 1 11 23
M  V30 24 1 12 24
M  V30 25 1 13 25
M  V30 26 1 14 26
M  V30 27 1 15 27
M  V30 END BOND
M  V30 END CTAB
M  END
