
     RDKit          3D

  0  0  0  0  0  0  0  0  0  0999 V3000
M  V30 BEGIN CTAB
M  V30 COUNTS 19 19 0 0 0
M  V30 BEGIN ATOM
M  V30 1 N -4.16312 -1.30172 1.36344 0 CHG=-1
M  V30 2 N -3.29611 -1.13363 0.484098 0 CHG=1
M  V30 3 N -2.69717 -0.810106 -0.544385 0
M  V30 4 C -1.84766 0.363608 -0.529626 0
M  V30 5 C -0.429569 -0.0152048 -0.24345 0
M  V30 6 C -0.0544392 -1.30691 -0.0344433 0
M  V30 7 N 1.25176 -1.59284 0.222119 0
M  V30 8 C 2.17731 -0.609092 0.271188 0
M  V30 9 N 1.7813 0.642631 0.0630626 0
M  V30 10 C 0.501978 1.00003 -0.196872 0
M  V30 11 N 0.110036 2.34145 -0.414314 0
M  V30 12 N 3.54308 -0.95743 0.544976 0
M  V30 13 H -1.85877 0.881612 -1.51431 0
M  V30 14 H -2.22919 1.044 0.2581 0
M  V30 15 H -0.806712 -2.09223 -0.0759222 0
M  V30 16 H -0.631762 2.79087 0.149991 0
M  V30 17 H 0.576501 2.8903 -1.15749 0
M  V30 18 H 3.93534 -0.661774 1.46558 0
M  V30 19 H 4.13718 -1.47357 -0.111746 0
M  V30 END ATOM
M  V30 BEGIN BOND
M  V30 1 2 1 2
M  V30 2 2 2 3 CFG=2
M  V30 3 1 3 4
M  V30 4 1 4 5
M  V30 5 2 5 6
M  V30 6 1 6 7
M  V30 7 2 7 8
M  V30 8 1 8 9
M  V30 9 2 9 10
M  V30 10 1 10 11
M  V30 11 1 8 12
M  V30 12 1 10 5
M  V30 13 1 4 13
M  V30 14 1 4 14
M  V30 15 1 6 15
M  V30 16 1 11 16
M  V30 17 1 11 17
M  V30 18 1 12 18
M  V30 19 1 12 19
M  V30 END BOND
M  V30 END CTAB
M  END
