
     RDKit          3D

  0  0  0  0  0  0  0  0  0  0999 V3000
M  V30 BEGIN CTAB
M  V30 COUNTS 40 41 0 0 0
M  V30 BEGIN ATOM
M  V30 1 N -5.06706 0.628758 -0.401604 0
M  V30 2 C -4.59676 0.108648 0.839103 0
M  V30 3 C -3.09538 -0.0721866 0.880722 0
M  V30 4 C -2.34343 1.2092 0.671009 0
M  V30 5 C -1.1442 0.855619 -0.150633 0
M  V30 6 N -1.31173 -0.476074 -0.640349 0
M  V30 7 C -2.64165 -0.923026 -0.282754 0
M  V30 8 S -0.190458 -1.60156 0.00770879 0
M  V30 9 O -0.513136 -2.95038 -0.572635 0
M  V30 10 O -0.393241 -1.73518 1.50913 0
M  V30 11 C 1.44929 -1.21748 -0.375119 0
M  V30 12 C 1.99402 -1.7341 -1.53337 0
M  V30 13 C 3.30012 -1.45706 -1.88461 0
M  V30 14 C 4.08967 -0.653334 -1.07862 0
M  V30 15 C 3.56673 -0.129468 0.0779853 0
M  V30 16 C 2.25863 -0.422778 0.404402 0
M  V30 17 S 4.52204 0.890195 1.12853 0
M  V30 18 O 5.52082 1.66789 0.325855 0
M  V30 19 O 3.59711 1.81963 1.89289 0
M  V30 20 N 5.3414 -0.0710145 2.29954 0
M  V30 21 C -1.0315 1.83953 -1.30382 0
M  V30 22 H -5.93754 1.17538 -0.344191 0
M  V30 23 H -4.35682 0.998167 -1.03954 0
M  V30 24 H -4.96706 0.744366 1.65255 0
M  V30 25 H -5.03878 -0.899055 0.992952 0
M  V30 26 H -2.77131 -0.489382 1.85535 0
M  V30 27 H -3.00769 1.93002 0.173217 0
M  V30 28 H -2.01789 1.67149 1.62718 0
M  V30 29 H -0.22606 0.869511 0.481988 0
M  V30 30 H -2.62498 -2.00014 0.0491161 0
M  V30 31 H -3.36884 -0.785037 -1.10092 0
M  V30 32 H 1.39073 -2.36469 -2.17555 0
M  V30 33 H 3.7354 -1.85885 -2.79248 0
M  V30 34 H 5.11601 -0.422688 -1.33389 0
M  V30 35 H 1.86613 -0.0100683 1.30379 0
M  V30 36 H 5.90755 -0.833022 1.85846 0
M  V30 37 H 6.00963 0.525299 2.82959 0
M  V30 38 H -1.72851 1.49981 -2.08503 0
M  V30 39 H -1.29724 2.85673 -0.952403 0
M  V30 40 H 0.00598182 1.81635 -1.6874 0
M  V30 END ATOM
M  V30 BEGIN BOND
M  V30 1 1 1 2
M  V30 2 1 2 3
M  V30 3 1 3 4
M  V30 4 1 4 5
M  V30 5 1 5 6
M  V30 6 1 6 7
M  V30 7 1 6 8
M  V30 8 2 8 9
M  V30 9 2 8 10
M  V30 10 1 8 11
M  V30 11 2 11 12
M  V30 12 1 12 13
M  V30 13 2 13 14
M  V30 14 1 14 15
M  V30 15 2 15 16
M  V30 16 1 15 17
M  V30 17 2 17 18
M  V30 18 2 17 19
M  V30 19 1 17 20
M  V30 20 1 5 21
M  V30 21 1 7 3
M  V30 22 1 16 11
M  V30 23 1 1 22
M  V30 24 1 1 23
M  V30 25 1 2 24
M  V30 26 1 2 25
M  V30 27 1 3 26
M  V30 28 1 4 27
M  V30 29 1 4 28
M  V30 30 1 5 29
M  V30 31 1 7 30
M  V30 32 1 7 31
M  V30 33 1 12 32
M  V30 34 1 13 33
M  V30 35 1 14 34
M  V30 36 1 16 35
M  V30 37 1 20 36
M  V30 38 1 20 37
M  V30 39 1 21 38
M  V30 40 1 21 39
M  V30 41 1 21 40
M  V30 END BOND
M  V30 END CTAB
M  END
