
     RDKit          3D

  0  0  0  0  0  0  0  0  0  0999 V3000
M  V30 BEGIN CTAB
M  V30 COUNTS 32 33 0 0 0
M  V30 BEGIN ATOM
M  V30 1 O -0.91989 -3.41462 1.04887 0
M  V30 2 C -0.854139 -2.20546 0.725874 0
M  V30 3 C -2.03808 -1.40663 0.766139 0
M  V30 4 C -2.83439 -1.34116 -0.364583 0
M  V30 5 C -3.9845 -0.5814 -0.341398 0
M  V30 6 C -4.36393 0.124749 0.800384 0
M  V30 7 C -3.57069 0.0575804 1.92187 0
M  V30 8 C -2.43807 -0.693404 1.89213 0
M  V30 9 N -5.55645 0.886222 0.758958 0
M  V30 10 N 0.393532 -1.66256 0.329088 0
M  V30 11 C 0.599798 -0.328339 -0.0558228 0
M  V30 12 O -0.365681 0.468838 -0.0569905 0
M  V30 13 C 1.91094 0.149332 -0.453098 0
M  V30 14 C 2.10752 1.53181 -0.62711 0
M  V30 15 C 3.32077 2.04526 -1.00552 0
M  V30 16 C 4.40336 1.22177 -1.232 0
M  V30 17 C 4.2394 -0.13548 -1.06922 0
M  V30 18 C 3.00339 -0.655601 -0.68404 0
M  V30 19 N 5.6547 1.77007 -1.62387 0
M  V30 20 H -2.55728 -1.88416 -1.26637 0
M  V30 21 H -4.61713 -0.520781 -1.21829 0
M  V30 22 H -3.8775 0.609608 2.79789 0
M  V30 23 H -1.81181 -0.750884 2.76644 0
M  V30 24 H -5.58791 1.77207 0.236594 0
M  V30 25 H -6.41796 0.550961 1.2621 0
M  V30 26 H 1.24133 -2.31432 0.321077 0
M  V30 27 H 1.24276 2.18563 -0.445808 0
M  V30 28 H 3.46196 3.11165 -1.13686 0
M  V30 29 H 5.07473 -0.824656 -1.23932 0
M  V30 30 H 2.89494 -1.73182 -0.56403 0
M  V30 31 H 6.17901 2.32103 -0.934072 0
M  V30 32 H 6.06727 1.6447 -2.56694 0
M  V30 END ATOM
M  V30 BEGIN BOND
M  V30 1 2 1 2
M  V30 2 1 2 3
M  V30 3 2 3 4
M  V30 4 1 4 5
M  V30 5 2 5 6
M  V30 6 1 6 7
M  V30 7 2 7 8
M  V30 8 1 6 9
M  V30 9 1 2 10
M  V30 10 1 10 11
M  V30 11 2 11 12
M  V30 12 1 11 13
M  V30 13 2 13 14
M  V30 14 1 14 15
M  V30 15 2 15 16
M  V30 16 1 16 17
M  V30 17 2 17 18
M  V30 18 1 16 19
M  V30 19 1 8 3
M  V30 20 1 18 13
M  V30 21 1 4 20
M  V30 22 1 5 21
M  V30 23 1 7 22
M  V30 24 1 8 23
M  V30 25 1 9 24
M  V30 26 1 9 25
M  V30 27 1 10 26
M  V30 28 1 14 27
M  V30 29 1 15 28
M  V30 30 1 17 29
M  V30 31 1 18 30
M  V30 32 1 19 31
M  V30 33 1 19 32
M  V30 END BOND
M  V30 END CTAB
M  END
