
     RDKit          3D

  0  0  0  0  0  0  0  0  0  0999 V3000
M  V30 BEGIN CTAB
M  V30 COUNTS 23 24 0 0 0
M  V30 BEGIN ATOM
M  V30 1 N -3.1444 1.86515 0.368779 0
M  V30 2 N -2.8387 0.513451 0.258112 0
M  V30 3 C -1.48879 0.122271 0.108743 0
M  V30 4 N -0.496133 1.0289 0.0715547 0
M  V30 5 C 0.80653 0.727594 -0.0679522 0
M  V30 6 C 1.11973 -0.615831 -0.178811 0
M  V30 7 C 2.45459 -0.92546 -0.32182 0
M  V30 8 C 3.45254 0.0245333 -0.356858 0
M  V30 9 C 3.12517 1.36522 -0.244848 0
M  V30 10 C 1.79412 1.6883 -0.101378 0
M  V30 11 C 0.110997 -1.55273 -0.141969 0
M  V30 12 O 0.397555 -2.76351 -0.242276 0
M  V30 13 N -1.19565 -1.18584 0.00189819 0
M  V30 14 N -2.17534 -2.18045 0.0325119 0
M  V30 15 H -2.29523 2.46419 0.299819 0
M  V30 16 H -3.6481 2.1197 1.23226 0
M  V30 17 H -3.59857 -0.185517 0.286279 0
M  V30 18 H 2.73212 -1.96433 -0.410829 0
M  V30 19 H 4.50579 -0.252005 -0.471656 0
M  V30 20 H 3.91253 2.10875 -0.272859 0
M  V30 21 H 1.53974 2.73411 -0.0140961 0
M  V30 22 H -2.826 -2.3851 -0.739419 0
M  V30 23 H -2.2445 -2.7514 0.904813 0
M  V30 END ATOM
M  V30 BEGIN BOND
M  V30 1 1 1 2
M  V30 2 1 2 3
M  V30 3 2 3 4
M  V30 4 1 4 5
M  V30 5 2 5 6
M  V30 6 1 6 7
M  V30 7 2 7 8
M  V30 8 1 8 9
M  V30 9 2 9 10
M  V30 10 1 6 11
M  V30 11 2 11 12
M  V30 12 1 11 13
M  V30 13 1 13 14
M  V30 14 1 13 3
M  V30 15 1 10 5
M  V30 16 1 1 15
M  V30 17 1 1 16
M  V30 18 1 2 17
M  V30 19 1 7 18
M  V30 20 1 8 19
M  V30 21 1 9 20
M  V30 22 1 10 21
M  V30 23 1 14 22
M  V30 24 1 14 23
M  V30 END BOND
M  V30 END CTAB
M  END
