
     RDKit          3D

  0  0  0  0  0  0  0  0  0  0999 V3000
M  V30 BEGIN CTAB
M  V30 COUNTS 33 34 0 0 0
M  V30 BEGIN ATOM
M  V30 1 N 0.706652 -0.509652 -3.17157 0
M  V30 2 C 1.43983 -0.285849 -1.98445 0
M  V30 3 C 0.826713 -0.0675702 -0.761708 0
M  V30 4 C 1.5857 0.146409 0.370507 0
M  V30 5 C 2.97915 0.15201 0.333029 0
M  V30 6 C 3.57409 -0.0657811 -0.886155 0
M  V30 7 Cl 5.31868 -0.0721451 -1.00619 0
M  V30 8 C 2.82578 -0.280638 -2.02368 0
M  V30 9 S 3.94277 0.422616 1.76465 0
M  V30 10 N 4.92692 -0.979373 1.99414 0
M  V30 11 O 3.11774 0.618518 2.97769 0
M  V30 12 O 4.78062 1.64289 1.51207 0
M  V30 13 C -0.652699 -0.0769112 -0.740554 0
M  V30 14 O -1.21099 -0.284581 -1.84833 0
M  V30 15 N -1.37762 0.133794 0.44648 0
M  V30 16 C -2.76418 0.145882 0.608902 0
M  V30 17 C -3.66808 -0.286136 -0.319818 0
M  V30 18 C -5.04342 -0.226664 -0.0934843 0
M  V30 19 C -5.53747 0.272994 1.08296 0
M  V30 20 C -4.63647 0.713646 2.0329 0
M  V30 21 C -3.28052 0.658822 1.81793 0
M  V30 22 H 0.332488 -1.45639 -3.40488 0
M  V30 23 H 0.508047 0.249738 -3.86004 0
M  V30 24 H 1.12454 0.317189 1.32627 0
M  V30 25 H 3.31514 -0.452746 -2.98803 0
M  V30 26 H 5.1412 -1.03431 3.0151 0
M  V30 27 H 5.86684 -0.844112 1.52738 0
M  V30 28 H -0.798871 0.301476 1.33208 0
M  V30 29 H -3.36432 -0.711499 -1.28595 0
M  V30 30 H -5.72579 -0.589023 -0.878448 0
M  V30 31 H -6.58875 0.317633 1.25404 0
M  V30 32 H -5.02773 1.11073 2.96825 0
M  V30 33 H -2.63599 1.01903 2.60051 0
M  V30 END ATOM
M  V30 BEGIN BOND
M  V30 1 1 1 2
M  V30 2 2 2 3
M  V30 3 1 3 4
M  V30 4 2 4 5
M  V30 5 1 5 6
M  V30 6 1 6 7
M  V30 7 2 6 8
M  V30 8 1 5 9
M  V30 9 1 9 10
M  V30 10 2 9 11
M  V30 11 2 9 12
M  V30 12 1 3 13
M  V30 13 2 13 14
M  V30 14 1 13 15
M  V30 15 1 15 16
M  V30 16 2 16 17
M  V30 17 1 17 18
M  V30 18 2 18 19
M  V30 19 1 19 20
M  V30 20 2 20 21
M  V30 21 1 8 2
M  V30 22 1 21 16
M  V30 23 1 1 22
M  V30 24 1 1 23
M  V30 25 1 4 24
M  V30 26 1 8 25
M  V30 27 1 10 26
M  V30 28 1 10 27
M  V30 29 1 15 28
M  V30 30 1 17 29
M  V30 31 1 18 30
M  V30 32 1 19 31
M  V30 33 1 20 32
M  V30 34 1 21 33
M  V30 END BOND
M  V30 END CTAB
M  END
