
     RDKit          3D

  0  0  0  0  0  0  0  0  0  0999 V3000
M  V30 BEGIN CTAB
M  V30 COUNTS 39 40 0 0 0
M  V30 BEGIN ATOM
M  V30 1 C -4.56177 2.54096 -0.0607962 0
M  V30 2 O -3.57607 1.56031 0.095848 0
M  V30 3 C -3.86896 0.233955 -0.13964 0
M  V30 4 C -5.1296 -0.157667 -0.531797 0
M  V30 5 C -5.4189 -1.46676 -0.764395 0
M  V30 6 C -4.4192 -2.41037 -0.600098 0
M  V30 7 C -3.1555 -2.01306 -0.206428 0
M  V30 8 C -2.83795 -0.69036 0.0355714 0
M  V30 9 C -1.49321 -0.264876 0.45535 0
M  V30 10 C -0.70203 0.37241 -0.646748 0
M  V30 11 C 0.634351 0.754301 -0.0917369 0
M  V30 12 O 0.929855 0.52716 1.09639 0
M  V30 13 O 1.56833 1.36959 -0.89476 0
M  V30 14 C 2.8433 1.78029 -0.528856 0
M  V30 15 C 3.74511 0.708158 -0.0558581 0
M  V30 16 N 4.47014 -0.051993 -0.926518 0
M  V30 17 C 5.2946 -1.01901 -0.551875 0
M  V30 18 N 6.05456 -1.81591 -1.44843 0
M  V30 19 N 5.42653 -1.26818 0.762819 0
M  V30 20 C 4.73641 -0.552236 1.69189 0
M  V30 21 N 3.91373 0.418549 1.2411 0
M  V30 22 N 4.88824 -0.830681 3.07611 0
M  V30 23 H -5.30756 2.57086 0.754265 0
M  V30 24 H -4.08553 3.55371 -0.0898897 0
M  V30 25 H -5.1434 2.40814 -1.01666 0
M  V30 26 H -5.94031 0.562632 -0.670237 0
M  V30 27 H -6.40436 -1.82584 -1.07708 0
M  V30 28 H -4.64738 -3.45176 -0.78452 0
M  V30 29 H -2.35316 -2.73097 -0.0701147 0
M  V30 30 H -1.6264 0.485004 1.27076 0
M  V30 31 H -0.920604 -1.14955 0.814516 0
M  V30 32 H -1.1748 1.27181 -1.06732 0
M  V30 33 H -0.51549 -0.385032 -1.46049 0
M  V30 34 H 2.82903 2.59065 0.241299 0
M  V30 35 H 3.3084 2.2511 -1.44336 0
M  V30 36 H 6.52471 -1.32869 -2.23987 0
M  V30 37 H 6.17835 -2.84355 -1.37741 0
M  V30 38 H 5.52519 -0.215359 3.62405 0
M  V30 39 H 4.41137 -1.60296 3.58492 0
M  V30 END ATOM
M  V30 BEGIN BOND
M  V30 1 1 1 2
M  V30 2 1 2 3
M  V30 3 2 3 4
M  V30 4 1 4 5
M  V30 5 2 5 6
M  V30 6 1 6 7
M  V30 7 2 7 8
M  V30 8 1 8 9
M  V30 9 1 9 10
M  V30 10 1 10 11
M  V30 11 2 11 12
M  V30 12 1 11 13
M  V30 13 1 13 14
M  V30 14 1 14 15
M  V30 15 2 15 16
M  V30 16 1 16 17
M  V30 17 1 17 18
M  V30 18 2 17 19
M  V30 19 1 19 20
M  V30 20 2 20 21
M  V30 21 1 20 22
M  V30 22 1 8 3
M  V30 23 1 21 15
M  V30 24 1 1 23
M  V30 25 1 1 24
M  V30 26 1 1 25
M  V30 27 1 4 26
M  V30 28 1 5 27
M  V30 29 1 6 28
M  V30 30 1 7 29
M  V30 31 1 9 30
M  V30 32 1 9 31
M  V30 33 1 10 32
M  V30 34 1 10 33
M  V30 35 1 14 34
M  V30 36 1 14 35
M  V30 37 1 18 36
M  V30 38 1 18 37
M  V30 39 1 22 38
M  V30 40 1 22 39
M  V30 END BOND
M  V30 END CTAB
M  END
