
     RDKit          3D

  0  0  0  0  0  0  0  0  0  0999 V3000
M  V30 BEGIN CTAB
M  V30 COUNTS 25 25 0 0 0
M  V30 BEGIN ATOM
M  V30 1 N 3.99007 -0.0655587 0.138621 0
M  V30 2 C 2.62439 -0.520415 -0.196935 0
M  V30 3 C 1.69685 0.0420253 0.853986 0
M  V30 4 N 1.85178 1.53449 0.78763 0
M  V30 5 C 0.245244 -0.116348 0.52282 0
M  V30 6 C -0.674614 -0.528933 1.45136 0
M  V30 7 C -2.04134 -0.626462 1.14693 0
M  V30 8 C -2.42797 -0.293795 -0.133926 0
M  V30 9 C -1.53368 0.120768 -1.09153 0
M  V30 10 C -0.201814 0.203228 -0.741242 0
M  V30 11 C -3.90731 -0.363246 -0.41132 0
M  V30 12 F -4.37112 -1.6079 -0.0551697 0
M  V30 13 F -4.20837 -0.00775941 -1.7179 0
M  V30 14 F -4.45973 0.57518 0.465162 0
M  V30 15 H 4.46651 0.175454 -0.772462 0
M  V30 16 H 3.86995 0.856995 0.661024 0
M  V30 17 H 2.62574 -1.64463 -0.104239 0
M  V30 18 H 2.34432 -0.25603 -1.21811 0
M  V30 19 H 1.88701 -0.331886 1.84919 0
M  V30 20 H 1.76096 1.72661 -0.247977 0
M  V30 21 H 1.00837 1.98167 1.20274 0
M  V30 22 H -0.372629 -0.789205 2.44989 0
M  V30 23 H -2.77097 -0.951779 1.88506 0
M  V30 24 H -1.89325 0.360292 -2.07183 0
M  V30 25 H 0.491596 0.527229 -1.52226 0
M  V30 END ATOM
M  V30 BEGIN BOND
M  V30 1 1 1 2
M  V30 2 1 2 3
M  V30 3 1 3 4
M  V30 4 1 3 5
M  V30 5 2 5 6
M  V30 6 1 6 7
M  V30 7 2 7 8
M  V30 8 1 8 9
M  V30 9 2 9 10
M  V30 10 1 8 11
M  V30 11 1 11 12
M  V30 12 1 11 13
M  V30 13 1 11 14
M  V30 14 1 10 5
M  V30 15 1 1 15
M  V30 16 1 1 16
M  V30 17 1 2 17
M  V30 18 1 2 18
M  V30 19 1 3 19
M  V30 20 1 4 20
M  V30 21 1 4 21
M  V30 22 1 6 22
M  V30 23 1 7 23
M  V30 24 1 9 24
M  V30 25 1 10 25
M  V30 END BOND
M  V30 END CTAB
M  END
