
     RDKit          3D

  0  0  0  0  0  0  0  0  0  0999 V3000
M  V30 BEGIN CTAB
M  V30 COUNTS 41 43 0 0 0
M  V30 BEGIN ATOM
M  V30 1 N -6.79104 -1.69877 -1.61878 0
M  V30 2 C -5.84121 -1.07507 -0.77825 0
M  V30 3 N -5.44924 -1.6605 0.356727 0
M  V30 4 C -4.56089 -1.14731 1.2091 0
M  V30 5 C -3.96996 0.0959015 0.93267 0
M  V30 6 C -2.98706 0.6321 1.88983 0
M  V30 7 C -1.60135 0.454796 1.43327 0
M  V30 8 C -1.02563 -0.811196 1.55045 0
M  V30 9 C 0.26964 -1.04466 1.15847 0
M  V30 10 C 1.06807 -0.0531656 0.632357 0
M  V30 11 O 2.36926 -0.29075 0.239165 0
M  V30 12 C 3.20993 0.706834 -0.302151 0
M  V30 13 C 4.54694 0.194817 -0.637433 0
M  V30 14 C 5.59881 0.134459 0.254815 0
M  V30 15 C 6.84512 -0.357805 -0.114624 0
M  V30 16 C 7.04969 -0.79952 -1.39885 0
M  V30 17 C 6.02626 -0.752125 -2.30562 0
M  V30 18 C 4.79153 -0.260821 -1.92752 0
M  V30 19 C 0.496906 1.19321 0.518567 0
M  V30 20 C -0.81565 1.45629 0.909397 0
M  V30 21 C -4.37529 0.69222 -0.232111 0
M  V30 22 N -3.82634 1.95423 -0.570616 0
M  V30 23 N -5.28601 0.118119 -1.06117 0
M  V30 24 H -7.78548 -1.4323 -1.55117 0
M  V30 25 H -6.49479 -2.41658 -2.29672 0
M  V30 26 H -4.25748 -1.64549 2.13002 0
M  V30 27 H -3.09711 0.160275 2.89946 0
M  V30 28 H -3.13014 1.7245 2.07645 0
M  V30 29 H -1.63837 -1.60453 1.96305 0
M  V30 30 H 0.703695 -2.03218 1.25601 0
M  V30 31 H 2.69669 1.0991 -1.20303 0
M  V30 32 H 3.3257 1.56315 0.400534 0
M  V30 33 H 5.43288 0.482777 1.26521 0
M  V30 34 H 7.67204 -0.402651 0.591021 0
M  V30 35 H 8.02324 -1.17778 -1.66304 0
M  V30 36 H 6.23008 -1.11402 -3.3184 0
M  V30 37 H 4.01387 -0.243557 -2.68167 0
M  V30 38 H 1.07694 1.99462 0.116061 0
M  V30 39 H -1.23089 2.45924 0.814164 0
M  V30 40 H -3.07279 2.11642 -1.27121 0
M  V30 41 H -4.21056 2.78773 -0.0756802 0
M  V30 END ATOM
M  V30 BEGIN BOND
M  V30 1 1 1 2
M  V30 2 2 2 3
M  V30 3 1 3 4
M  V30 4 2 4 5
M  V30 5 1 5 6
M  V30 6 1 6 7
M  V30 7 2 7 8
M  V30 8 1 8 9
M  V30 9 2 9 10
M  V30 10 1 10 11
M  V30 11 1 11 12
M  V30 12 1 12 13
M  V30 13 2 13 14
M  V30 14 1 14 15
M  V30 15 2 15 16
M  V30 16 1 16 17
M  V30 17 2 17 18
M  V30 18 1 10 19
M  V30 19 2 19 20
M  V30 20 1 5 21
M  V30 21 1 21 22
M  V30 22 2 21 23
M  V30 23 1 23 2
M  V30 24 1 20 7
M  V30 25 1 18 13
M  V30 26 1 1 24
M  V30 27 1 1 25
M  V30 28 1 4 26
M  V30 29 1 6 27
M  V30 30 1 6 28
M  V30 31 1 8 29
M  V30 32 1 9 30
M  V30 33 1 12 31
M  V30 34 1 12 32
M  V30 35 1 14 33
M  V30 36 1 15 34
M  V30 37 1 16 35
M  V30 38 1 17 36
M  V30 39 1 18 37
M  V30 40 1 19 38
M  V30 41 1 20 39
M  V30 42 1 22 40
M  V30 43 1 22 41
M  V30 END BOND
M  V30 END CTAB
M  END
