
     RDKit          3D

  0  0  0  0  0  0  0  0  0  0999 V3000
M  V30 BEGIN CTAB
M  V30 COUNTS 50 52 0 0 0
M  V30 BEGIN ATOM
M  V30 1 N -8.76217 1.00226 1.12138 0
M  V30 2 C -7.56403 0.866782 0.388713 0
M  V30 3 N -6.42966 1.31264 0.968348 0
M  V30 4 C -5.23348 1.22705 0.355629 0
M  V30 5 S -3.76226 1.83875 1.14239 0
M  V30 6 C -3.0162 0.551877 2.15331 0
M  V30 7 C -2.51917 -0.601987 1.37647 0
M  V30 8 O -3.2196 -1.64591 1.35633 0
M  V30 9 N -1.30057 -0.59409 0.656077 0
M  V30 10 C -0.840769 -1.77519 -0.0599004 0
M  V30 11 C 0.644077 -1.91374 0.215513 0
M  V30 12 N 1.26687 -0.759827 -0.415416 0
M  V30 13 C 0.535461 0.494424 -0.540569 0
M  V30 14 C -0.478953 0.605599 0.589365 0
M  V30 15 C 2.57501 -0.851717 -0.887163 0
M  V30 16 O 3.10272 0.131313 -1.45069 0
M  V30 17 C 3.34873 -2.09207 -0.729151 0
M  V30 18 S 5.02213 -1.95254 -1.40685 0
M  V30 19 C 5.98363 -0.752654 -0.476676 0
M  V30 20 N 5.99445 0.537662 -0.814723 0
M  V30 21 C 6.69251 1.45315 -0.135907 0
M  V30 22 N 6.67244 2.843 -0.535863 0
M  V30 23 C 7.43033 1.0446 0.956473 0
M  V30 24 C 7.4286 -0.283694 1.31613 0
M  V30 25 N 6.70166 -1.14161 0.583827 0
M  V30 26 O 8.16737 -0.708761 2.41404 0
M  V30 27 N -5.19015 0.675051 -0.874804 0
M  V30 28 C -6.2605 0.215014 -1.50841 0
M  V30 29 C -7.48095 0.31354 -0.859998 0
M  V30 30 O -6.18476 -0.345752 -2.77219 0
M  V30 31 H -9.61573 1.35279 0.676739 0
M  V30 32 H -8.80619 0.749303 2.12584 0
M  V30 33 H -3.80044 0.231429 2.89699 0
M  V30 34 H -2.12749 0.960745 2.70158 0
M  V30 35 H -0.935153 -1.55023 -1.15236 0
M  V30 36 H -1.4204 -2.64913 0.240639 0
M  V30 37 H 0.774131 -1.83368 1.31257 0
M  V30 38 H 1.07942 -2.83286 -0.21866 0
M  V30 39 H 1.262 1.31447 -0.427794 0
M  V30 40 H 0.0375495 0.612702 -1.51976 0
M  V30 41 H 0.00755506 0.829524 1.55633 0
M  V30 42 H -1.15866 1.44869 0.361191 0
M  V30 43 H 3.3366 -2.4037 0.3366 0
M  V30 44 H 2.83301 -2.8941 -1.29851 0
M  V30 45 H 5.76334 3.38211 -0.556042 0
M  V30 46 H 7.52019 3.36103 -0.812581 0
M  V30 47 H 8.00457 1.80336 1.51346 0
M  V30 48 H 9.12522 -0.432277 2.52227 0
M  V30 49 H -8.39467 -0.0508947 -1.34241 0
M  V30 50 H -6.80765 -1.09246 -3.07468 0
M  V30 END ATOM
M  V30 BEGIN BOND
M  V30 1 1 1 2
M  V30 2 2 2 3
M  V30 3 1 3 4
M  V30 4 1 4 5
M  V30 5 1 5 6
M  V30 6 1 6 7
M  V30 7 2 7 8
M  V30 8 1 7 9
M  V30 9 1 9 10
M  V30 10 1 10 11
M  V30 11 1 11 12
M  V30 12 1 12 13
M  V30 13 1 13 14
M  V30 14 1 12 15
M  V30 15 2 15 16
M  V30 16 1 15 17
M  V30 17 1 17 18
M  V30 18 1 18 19
M  V30 19 2 19 20
M  V30 20 1 20 21
M  V30 21 1 21 22
M  V30 22 2 21 23
M  V30 23 1 23 24
M  V30 24 2 24 25
M  V30 25 1 24 26
M  V30 26 2 4 27
M  V30 27 1 27 28
M  V30 28 2 28 29
M  V30 29 1 28 30
M  V30 30 1 29 2
M  V30 31 1 14 9
M  V30 32 1 25 19
M  V30 33 1 1 31
M  V30 34 1 1 32
M  V30 35 1 6 33
M  V30 36 1 6 34
M  V30 37 1 10 35
M  V30 38 1 10 36
M  V30 39 1 11 37
M  V30 40 1 11 38
M  V30 41 1 13 39
M  V30 42 1 13 40
M  V30 43 1 14 41
M  V30 44 1 14 42
M  V30 45 1 17 43
M  V30 46 1 17 44
M  V30 47 1 22 45
M  V30 48 1 22 46
M  V30 49 1 23 47
M  V30 50 1 26 48
M  V30 51 1 29 49
M  V30 52 1 30 50
M  V30 END BOND
M  V30 END CTAB
M  END
