
     RDKit          3D

  0  0  0  0  0  0  0  0  0  0999 V3000
M  V30 BEGIN CTAB
M  V30 COUNTS 31 31 0 0 0
M  V30 BEGIN ATOM
M  V30 1 N -2.97051 0.848031 0.362301 0
M  V30 2 C -2.38567 0.228805 -0.783655 0
M  V30 3 C -1.21658 -0.653942 -0.527293 0
M  V30 4 C -0.034355 -0.0214449 0.110352 0
M  V30 5 C -0.374026 0.554087 1.4595 0
M  V30 6 C 0.604983 1.02791 -0.767711 0
M  V30 7 C 2.02334 1.30457 -0.327432 0
M  V30 8 C 2.9349 0.133134 -0.471133 0
M  V30 9 C 2.07793 -1.09893 -0.704557 0
M  V30 10 C 1.00455 -1.10382 0.341626 0
M  V30 11 N -1.60637 -1.84038 0.233802 0
M  V30 12 H -3.92226 0.535231 0.597578 0
M  V30 13 H -2.88178 1.8846 0.2465 0
M  V30 14 H -2.11969 0.942817 -1.58919 0
M  V30 15 H -3.18436 -0.427592 -1.23897 0
M  V30 16 H -0.89656 -1.05665 -1.53205 0
M  V30 17 H -1.16309 -0.0186492 1.99344 0
M  V30 18 H -0.732571 1.60923 1.40797 0
M  V30 19 H 0.55178 0.618637 2.10673 0
M  V30 20 H 0.0753032 2.00736 -0.707306 0
M  V30 21 H 0.548777 0.698747 -1.81641 0
M  V30 22 H 2.01759 1.74112 0.679065 0
M  V30 23 H 2.40113 2.11911 -1.01284 0
M  V30 24 H 3.51537 -0.0732491 0.47415 0
M  V30 25 H 3.68354 0.271834 -1.258 0
M  V30 26 H 2.68579 -2.01458 -0.562821 0
M  V30 27 H 1.61721 -1.0349 -1.69696 0
M  V30 28 H 1.4848 -1.01635 1.34147 0
M  V30 29 H 0.533986 -2.12623 0.317017 0
M  V30 30 H -2.1231 -2.49992 -0.3955 0
M  V30 31 H -2.15005 -1.5386 1.05041 0
M  V30 END ATOM
M  V30 BEGIN BOND
M  V30 1 1 1 2
M  V30 2 1 2 3
M  V30 3 1 3 4
M  V30 4 1 4 5
M  V30 5 1 4 6
M  V30 6 1 6 7
M  V30 7 1 7 8
M  V30 8 1 8 9
M  V30 9 1 9 10
M  V30 10 1 3 11
M  V30 11 1 10 4
M  V30 12 1 1 12
M  V30 13 1 1 13
M  V30 14 1 2 14
M  V30 15 1 2 15
M  V30 16 1 3 16
M  V30 17 1 5 17
M  V30 18 1 5 18
M  V30 19 1 5 19
M  V30 20 1 6 20
M  V30 21 1 6 21
M  V30 22 1 7 22
M  V30 23 1 7 23
M  V30 24 1 8 24
M  V30 25 1 8 25
M  V30 26 1 9 26
M  V30 27 1 9 27
M  V30 28 1 10 28
M  V30 29 1 10 29
M  V30 30 1 11 30
M  V30 31 1 11 31
M  V30 END BOND
M  V30 END CTAB
M  END
