
     RDKit          3D

  0  0  0  0  0  0  0  0  0  0999 V3000
M  V30 BEGIN CTAB
M  V30 COUNTS 33 34 0 0 0
M  V30 BEGIN ATOM
M  V30 1 N 5.396 -0.0605525 1.63815 0
M  V30 2 C 5.15383 0.54527 0.377042 0
M  V30 3 N 4.33797 0.0513977 -0.482377 0
M  V30 4 S 3.44542 -1.40391 -0.199145 0
M  V30 5 O 3.91115 -2.05153 1.0834 0
M  V30 6 O 3.61217 -2.36908 -1.33821 0
M  V30 7 C 1.76746 -0.985639 -0.0941948 0
M  V30 8 C 1.21577 -0.660699 1.12196 0
M  V30 9 C -0.114982 -0.327771 1.21468 0
M  V30 10 C -0.936649 -0.313979 0.0635024 0
M  V30 11 C -0.386701 -0.636867 -1.14618 0
M  V30 12 C 0.974793 -0.9722 -1.20572 0
M  V30 13 N -2.29255 0.0563443 0.210836 0
M  V30 14 C -3.29541 -0.198826 -0.722812 0
M  V30 15 O -3.17787 -0.787795 -1.81957 0
M  V30 16 C -4.66834 0.263266 -0.419533 0
M  V30 17 C -5.05167 0.936621 0.726163 0
M  V30 18 C -6.40184 1.17147 0.596419 0
M  V30 19 C -6.7685 0.632837 -0.613022 0
M  V30 20 O -5.70193 0.103641 -1.18042 0
M  V30 21 N 5.83089 1.7361 0.0459992 0
M  V30 22 H 6.29643 -0.589344 1.74237 0
M  V30 23 H 4.75091 -0.0132003 2.44516 0
M  V30 24 H 1.81775 -0.659417 2.03703 0
M  V30 25 H -0.557342 -0.0706798 2.1711 0
M  V30 26 H -0.932433 -0.642439 -2.0902 0
M  V30 27 H 1.40518 -1.22529 -2.15198 0
M  V30 28 H -2.53572 0.577762 1.12469 0
M  V30 29 H -4.42394 1.22438 1.56022 0
M  V30 30 H -7.05662 1.68071 1.30408 0
M  V30 31 H -7.76936 0.650523 -1.01406 0
M  V30 32 H 6.45104 1.76052 -0.775642 0
M  V30 33 H 5.7051 2.57838 0.624548 0
M  V30 END ATOM
M  V30 BEGIN BOND
M  V30 1 1 1 2
M  V30 2 2 2 3 CFG=2
M  V30 3 1 3 4
M  V30 4 2 4 5
M  V30 5 2 4 6
M  V30 6 1 4 7
M  V30 7 2 7 8
M  V30 8 1 8 9
M  V30 9 2 9 10
M  V30 10 1 10 11
M  V30 11 2 11 12
M  V30 12 1 10 13
M  V30 13 1 13 14
M  V30 14 2 14 15
M  V30 15 1 14 16
M  V30 16 2 16 17
M  V30 17 1 17 18
M  V30 18 2 18 19
M  V30 19 1 19 20
M  V30 20 1 2 21
M  V30 21 1 12 7
M  V30 22 1 20 16
M  V30 23 1 1 22
M  V30 24 1 1 23
M  V30 25 1 8 24
M  V30 26 1 9 25
M  V30 27 1 11 26
M  V30 28 1 12 27
M  V30 29 1 13 28
M  V30 30 1 17 29
M  V30 31 1 18 30
M  V30 32 1 19 31
M  V30 33 1 21 32
M  V30 34 1 21 33
M  V30 END BOND
M  V30 END CTAB
M  END
