
     RDKit          3D

  0  0  0  0  0  0  0  0  0  0999 V3000
M  V30 BEGIN CTAB
M  V30 COUNTS 29 30 0 0 0
M  V30 BEGIN ATOM
M  V30 1 N 7.43799 0.00760507 0.0165169 0
M  V30 2 C 6.2818 -0.0132419 0.022165 0
M  V30 3 C 4.83599 -0.045273 0.0537784 0
M  V30 4 C 4.11706 0.664552 0.991684 0
M  V30 5 C 2.72062 0.632821 1.02124 0
M  V30 6 C 2.0085 -0.112967 0.10926 0
M  V30 7 C 2.73069 -0.820102 -0.825392 0
M  V30 8 C 4.1152 -0.789274 -0.855509 0
M  V30 9 C 0.505499 -0.161354 0.123003 0
M  V30 10 O -0.0485993 0.599789 1.11806 0
M  V30 11 N -1.29882 0.829273 1.47376 0
M  V30 12 C -2.31295 0.359265 0.858692 0
M  V30 13 C -3.6846 0.663742 1.32153 0
M  V30 14 N -3.99699 1.43335 2.39127 0
M  V30 15 O -5.28377 1.44773 2.4519 0
M  V30 16 N -5.83713 0.760031 1.52244 0
M  V30 17 C -4.8578 0.242905 0.779229 0
M  V30 18 N -4.98367 -0.596455 -0.372647 0
M  V30 19 N -2.18861 -0.460172 -0.273718 0
M  V30 20 H 4.65351 1.25449 1.71445 0
M  V30 21 H 2.14758 1.18415 1.75047 0
M  V30 22 H 2.18182 -1.4184 -1.55815 0
M  V30 23 H 4.67984 -1.35107 -1.5976 0
M  V30 24 H 0.208461 -1.21576 0.230125 0
M  V30 25 H 0.195725 0.252685 -0.877894 0
M  V30 26 H -4.81341 -1.60374 -0.245321 0
M  V30 27 H -5.23813 -0.184777 -1.29332 0
M  V30 28 H -2.15246 -0.054224 -1.2564 0
M  V30 29 H -2.12337 -1.50559 -0.248978 0
M  V30 END ATOM
M  V30 BEGIN BOND
M  V30 1 3 1 2
M  V30 2 1 2 3
M  V30 3 2 3 4
M  V30 4 1 4 5
M  V30 5 2 5 6
M  V30 6 1 6 7
M  V30 7 2 7 8
M  V30 8 1 6 9
M  V30 9 1 9 10
M  V30 10 1 10 11
M  V30 11 2 11 12
M  V30 12 1 12 13
M  V30 13 2 13 14
M  V30 14 1 14 15
M  V30 15 1 15 16
M  V30 16 2 16 17
M  V30 17 1 17 18
M  V30 18 1 12 19
M  V30 19 1 8 3
M  V30 20 1 17 13
M  V30 21 1 4 20
M  V30 22 1 5 21
M  V30 23 1 7 22
M  V30 24 1 8 23
M  V30 25 1 9 24
M  V30 26 1 9 25
M  V30 27 1 18 26
M  V30 28 1 18 27
M  V30 29 1 19 28
M  V30 30 1 19 29
M  V30 END BOND
M  V30 END CTAB
M  END
