
     RDKit          3D

  0  0  0  0  0  0  0  0  0  0999 V3000
M  V30 BEGIN CTAB
M  V30 COUNTS 18 18 0 0 0
M  V30 BEGIN ATOM
M  V30 1 N 3.2774 0.17334 -0.00794779 0
M  V30 2 N 2.31516 -0.78509 0.329194 0
M  V30 3 C 0.945719 -0.452085 0.181747 0
M  V30 4 C 0.269521 -0.575068 -1.02051 0
M  V30 5 C -1.05702 -0.245353 -1.17155 0
M  V30 6 C -1.79044 0.236775 -0.0947887 0
M  V30 7 N -3.16004 0.592591 -0.215748 0
M  V30 8 C -1.10543 0.352926 1.09635 0
M  V30 9 C 0.216245 0.0246688 1.24438 0
M  V30 10 H 3.41536 0.233449 -1.04519 0
M  V30 11 H 3.04581 1.11824 0.398605 0
M  V30 12 H 2.58577 -1.71246 0.676384 0
M  V30 13 H 0.884263 -0.958241 -1.85036 0
M  V30 14 H -1.54124 -0.360556 -2.13094 0
M  V30 15 H -3.9339 -0.0177869 0.110685 0
M  V30 16 H -3.39178 1.50827 -0.648175 0
M  V30 17 H -1.67853 0.72667 1.93996 0
M  V30 18 H 0.703134 0.139714 2.20791 0
M  V30 END ATOM
M  V30 BEGIN BOND
M  V30 1 1 1 2
M  V30 2 1 2 3
M  V30 3 2 3 4
M  V30 4 1 4 5
M  V30 5 2 5 6
M  V30 6 1 6 7
M  V30 7 1 6 8
M  V30 8 2 8 9
M  V30 9 1 9 3
M  V30 10 1 1 10
M  V30 11 1 1 11
M  V30 12 1 2 12
M  V30 13 1 4 13
M  V30 14 1 5 14
M  V30 15 1 7 15
M  V30 16 1 7 16
M  V30 17 1 8 17
M  V30 18 1 9 18
M  V30 END BOND
M  V30 END CTAB
M  END
