
     RDKit          3D

  0  0  0  0  0  0  0  0  0  0999 V3000
M  V30 BEGIN CTAB
M  V30 COUNTS 17 16 0 0 0
M  V30 BEGIN ATOM
M  V30 1 C -1.90574 -0.88125 0.319189 0
M  V30 2 C -0.512972 -0.869126 -0.294573 0
M  V30 3 C 0.154299 0.422183 0.195729 0
M  V30 4 C 1.50879 0.572133 -0.316839 0
M  V30 5 S 1.91906 1.84902 -1.23278 0
M  V30 6 N 2.50222 -0.392872 -0.0287402 0
M  V30 7 N -0.730799 1.49366 -0.114146 0
M  V30 8 H -1.96474 -0.177775 1.19872 0
M  V30 9 H -2.15223 -1.88771 0.743376 0
M  V30 10 H -2.67815 -0.551297 -0.384931 0
M  V30 11 H -0.599109 -0.763885 -1.40398 0
M  V30 12 H 0.054369 -1.76098 -0.003089 0
M  V30 13 H 0.168169 0.317266 1.31678 0
M  V30 14 H 3.02609 -0.275386 0.873217 0
M  V30 15 H 2.74332 -1.19626 -0.64037 0
M  V30 16 H -0.454012 2.07117 -0.927269 0
M  V30 17 H -1.07856 2.03111 0.699706 0
M  V30 END ATOM
M  V30 BEGIN BOND
M  V30 1 1 1 2
M  V30 2 1 2 3
M  V30 3 1 3 4
M  V30 4 2 4 5
M  V30 5 1 4 6
M  V30 6 1 3 7
M  V30 7 1 1 8
M  V30 8 1 1 9
M  V30 9 1 1 10
M  V30 10 1 2 11
M  V30 11 1 2 12
M  V30 12 1 3 13
M  V30 13 1 6 14
M  V30 14 1 6 15
M  V30 15 1 7 16
M  V30 16 1 7 17
M  V30 END BOND
M  V30 END CTAB
M  END
