
     RDKit          3D

  0  0  0  0  0  0  0  0  0  0999 V3000
M  V30 BEGIN CTAB
M  V30 COUNTS 67 67 0 0 0
M  V30 BEGIN ATOM
M  V30 1 N -7.86264 -1.31201 0.607235 0
M  V30 2 C -7.25367 -1.42631 -0.66594 0
M  V30 3 C -6.09352 -0.454144 -0.748059 0
M  V30 4 C -5.05599 -0.757349 0.329778 0
M  V30 5 C -3.93907 0.236993 0.195277 0
M  V30 6 C -2.84279 0.0125452 1.24256 0 CFG=2
M  V30 7 C -1.80639 1.02691 1.03816 0
M  V30 8 O -1.99898 2.18217 1.58169 0
M  V30 9 N -0.604433 0.843906 0.290951 0
M  V30 10 C 0.331608 1.95567 0.346794 0
M  V30 11 C 0.893271 2.17132 1.74408 0
M  V30 12 C 2.05913 3.13448 1.60963 0
M  V30 13 C 3.28693 2.64755 2.38613 0
M  V30 14 O 3.4292 1.28782 2.30887 0
M  V30 15 C 4.65736 0.880769 1.7417 0
M  V30 16 C 4.35171 -0.0783707 0.609396 0 CFG=2
M  V30 17 C 4.53442 0.545531 -0.704609 0 CFG=1
M  V30 18 C 3.57824 0.234544 -1.79712 0 CFG=2
M  V30 19 C 2.9242 -1.05416 -1.84453 0
M  V30 20 N 1.52149 -1.19306 -1.73179 0
M  V30 21 C 0.580071 -0.117939 -1.69344 0
M  V30 22 C -0.32837 -0.304012 -0.498446 0
M  V30 23 C 0.963171 -2.49177 -1.65831 0
M  V30 24 O -0.253505 -2.75633 -1.56703 0
M  V30 25 C 1.89558 -3.66278 -1.69076 0
M  V30 26 O 4.27883 0.433581 -3.01906 0
M  V30 27 O 4.71956 1.93315 -0.579213 0
M  V30 28 O 3.11334 -0.630311 0.870885 0
M  V30 29 N -2.32835 -1.31297 1.17624 0
M  V30 30 H -7.4565 -1.89737 1.3112 0
M  V30 31 H -8.85626 -1.30345 0.597337 0
M  V30 32 H -6.8267 -2.44115 -0.812948 0
M  V30 33 H -7.94399 -1.212 -1.49808 0
M  V30 34 H -6.46913 0.575138 -0.655726 0
M  V30 35 H -5.63444 -0.567208 -1.75744 0
M  V30 36 H -5.57039 -0.642803 1.30829 0
M  V30 37 H -4.7667 -1.80608 0.233817 0
M  V30 38 H -3.53773 0.275143 -0.820815 0
M  V30 39 H -4.3811 1.2372 0.472767 0
M  V30 40 H -3.38652 0.203446 2.22163 0
M  V30 41 H -0.176271 2.90657 0.0715917 0
M  V30 42 H 1.18866 1.82222 -0.299756 0
M  V30 43 H 1.19728 1.22048 2.20267 0
M  V30 44 H 0.186617 2.66936 2.43106 0
M  V30 45 H 1.81768 4.14486 1.97386 0
M  V30 46 H 2.38223 3.21146 0.550656 0
M  V30 47 H 4.1568 3.19053 1.96684 0
M  V30 48 H 3.18348 2.98823 3.44942 0
M  V30 49 H 5.2752 0.389833 2.55235 0
M  V30 50 H 5.15221 1.78532 1.36954 0
M  V30 51 H 5.0745 -0.940704 0.763421 0
M  V30 52 H 5.54494 0.200293 -1.09498 0
M  V30 53 H 2.84214 1.06145 -1.79861 0
M  V30 54 H 3.46864 -1.85727 -1.21349 0
M  V30 55 H 3.14906 -1.5082 -2.87838 0
M  V30 56 H 0.920677 0.877601 -1.8966 0
M  V30 57 H -0.118954 -0.325543 -2.60027 0
M  V30 58 H 0.0313413 -1.09759 0.185304 0
M  V30 59 H -1.33688 -0.679105 -0.883637 0
M  V30 60 H 1.36179 -4.61069 -1.90394 0
M  V30 61 H 2.65389 -3.55261 -2.516 0
M  V30 62 H 2.50252 -3.73057 -0.75202 0
M  V30 63 H 5.25085 0.237437 -2.8933 0
M  V30 64 H 4.12591 2.39416 -1.22246 0
M  V30 65 H 3.13708 -1.5068 1.3155 0
M  V30 66 H -2.77754 -1.96244 0.521833 0
M  V30 67 H -2.11479 -1.72456 2.11831 0
M  V30 END ATOM
M  V30 BEGIN BOND
M  V30 1 1 1 2
M  V30 2 1 2 3
M  V30 3 1 3 4
M  V30 4 1 4 5
M  V30 5 1 5 6
M  V30 6 1 6 7
M  V30 7 2 7 8
M  V30 8 1 7 9
M  V30 9 1 9 10
M  V30 10 1 10 11
M  V30 11 1 11 12
M  V30 12 1 12 13
M  V30 13 1 13 14
M  V30 14 1 14 15
M  V30 15 1 15 16
M  V30 16 1 16 17
M  V30 17 1 17 18
M  V30 18 1 18 19
M  V30 19 1 19 20
M  V30 20 1 20 21
M  V30 21 1 21 22
M  V30 22 1 20 23
M  V30 23 2 23 24
M  V30 24 1 23 25
M  V30 25 1 18 26
M  V30 26 1 17 27
M  V30 27 1 16 28
M  V30 28 1 6 29
M  V30 29 1 22 9
M  V30 30 1 1 30
M  V30 31 1 1 31
M  V30 32 1 2 32
M  V30 33 1 2 33
M  V30 34 1 3 34
M  V30 35 1 3 35
M  V30 36 1 4 36
M  V30 37 1 4 37
M  V30 38 1 5 38
M  V30 39 1 5 39
M  V30 40 1 6 40 CFG=1
M  V30 41 1 10 41
M  V30 42 1 10 42
M  V30 43 1 11 43
M  V30 44 1 11 44
M  V30 45 1 12 45
M  V30 46 1 12 46
M  V30 47 1 13 47
M  V30 48 1 13 48
M  V30 49 1 15 49
M  V30 50 1 15 50
M  V30 51 1 16 51 CFG=3
M  V30 52 1 17 52 CFG=3
M  V30 53 1 18 53 CFG=3
M  V30 54 1 19 54
M  V30 55 1 19 55
M  V30 56 1 21 56
M  V30 57 1 21 57
M  V30 58 1 22 58
M  V30 59 1 22 59
M  V30 60 1 25 60
M  V30 61 1 25 61
M  V30 62 1 25 62
M  V30 63 1 26 63
M  V30 64 1 27 64
M  V30 65 1 28 65
M  V30 66 1 29 66
M  V30 67 1 29 67
M  V30 END BOND
M  V30 END CTAB
M  END
