
     RDKit          3D

  0  0  0  0  0  0  0  0  0  0999 V3000
M  V30 BEGIN CTAB
M  V30 COUNTS 24 24 0 0 0
M  V30 BEGIN ATOM
M  V30 1 C -1.49886 -1.60816 0.36855 0
M  V30 2 C -0.856245 -0.39607 -0.233879 0
M  V30 3 C -1.77795 0.822285 -0.120195 0
M  V30 4 F -1.08888 1.88346 -0.705643 0
M  V30 5 F -1.9914 1.14 1.19028 0
M  V30 6 C -3.04408 0.619385 -0.909572 0
M  V30 7 C 0.37683 -0.0459435 0.531036 0
M  V30 8 N 0.485776 0.266263 1.83527 0
M  V30 9 N 1.74617 0.517192 2.14687 0
M  V30 10 C 2.49564 0.372179 1.03854 0
M  V30 11 N 1.6363 0.0270886 0.0610484 0
M  V30 12 N 2.01727 -0.218465 -1.25794 0
M  V30 13 N 3.91168 0.543752 0.903399 0
M  V30 14 H -0.845112 -2.05661 1.16622 0
M  V30 15 H -2.43893 -1.29148 0.856137 0
M  V30 16 H -1.73052 -2.38967 -0.385406 0
M  V30 17 H -0.595043 -0.594546 -1.2711 0
M  V30 18 H -3.732 1.44642 -0.635953 0
M  V30 19 H -3.51025 -0.371455 -0.738303 0
M  V30 20 H -2.79803 0.749176 -1.99173 0
M  V30 21 H 1.3967 -0.719646 -1.92606 0
M  V30 22 H 2.94199 0.0910447 -1.6292 0
M  V30 23 H 4.32083 1.27027 0.27761 0
M  V30 24 H 4.57815 -0.0564688 1.43001 0
M  V30 END ATOM
M  V30 BEGIN BOND
M  V30 1 1 1 2
M  V30 2 1 2 3
M  V30 3 1 3 4
M  V30 4 1 3 5
M  V30 5 1 3 6
M  V30 6 1 2 7
M  V30 7 2 7 8
M  V30 8 1 8 9
M  V30 9 2 9 10
M  V30 10 1 10 11
M  V30 11 1 11 12
M  V30 12 1 10 13
M  V30 13 1 11 7
M  V30 14 1 1 14
M  V30 15 1 1 15
M  V30 16 1 1 16
M  V30 17 1 2 17
M  V30 18 1 6 18
M  V30 19 1 6 19
M  V30 20 1 6 20
M  V30 21 1 12 21
M  V30 22 1 12 22
M  V30 23 1 13 23
M  V30 24 1 13 24
M  V30 END BOND
M  V30 END CTAB
M  END
