
     RDKit          3D

  0  0  0  0  0  0  0  0  0  0999 V3000
M  V30 BEGIN CTAB
M  V30 COUNTS 25 25 0 0 0
M  V30 BEGIN ATOM
M  V30 1 N 3.8583 1.03891 -1.32816 0
M  V30 2 C 3.08861 0.0219101 -0.671702 0
M  V30 3 N 3.6149 -1.18206 -0.464881 0
M  V30 4 C 2.9166 -2.15366 0.147653 0
M  V30 5 C 1.63853 -1.92042 0.57428 0
M  V30 6 C 1.08873 -0.678352 0.363625 0
M  V30 7 N 1.83318 0.250778 -0.252551 0
M  V30 8 N -0.22892 -0.365523 0.778458 0
M  V30 9 C -0.741123 0.956974 0.525049 0
M  V30 10 C -2.14983 1.18124 0.960069 0
M  V30 11 S -3.31716 0.142701 0.166893 0
M  V30 12 O -3.05512 -1.29333 0.478379 0
M  V30 13 O -4.68881 0.443592 0.746058 0
M  V30 14 N -3.32536 0.341692 -1.54611 0
M  V30 15 H 3.59711 2.03521 -1.22483 0
M  V30 16 H 4.67181 0.788905 -1.90403 0
M  V30 17 H 3.36499 -3.14124 0.310697 0
M  V30 18 H 1.07395 -2.72007 1.07438 0
M  V30 19 H -0.775633 -1.12031 1.26228 0
M  V30 20 H -0.609328 1.14145 -0.563653 0
M  V30 21 H -0.105605 1.68286 1.08266 0
M  V30 22 H -2.42756 2.2533 0.901723 0
M  V30 23 H -2.18902 0.926546 2.05673 0
M  V30 24 H -4.24076 0.138235 -1.97877 0
M  V30 25 H -2.89252 1.23067 -1.84687 0
M  V30 END ATOM
M  V30 BEGIN BOND
M  V30 1 1 1 2
M  V30 2 2 2 3
M  V30 3 1 3 4
M  V30 4 2 4 5
M  V30 5 1 5 6
M  V30 6 2 6 7
M  V30 7 1 6 8
M  V30 8 1 8 9
M  V30 9 1 9 10
M  V30 10 1 10 11
M  V30 11 2 11 12
M  V30 12 2 11 13
M  V30 13 1 11 14
M  V30 14 1 7 2
M  V30 15 1 1 15
M  V30 16 1 1 16
M  V30 17 1 4 17
M  V30 18 1 5 18
M  V30 19 1 8 19
M  V30 20 1 9 20
M  V30 21 1 9 21
M  V30 22 1 10 22
M  V30 23 1 10 23
M  V30 24 1 14 24
M  V30 25 1 14 25
M  V30 END BOND
M  V30 END CTAB
M  END
