
     RDKit          3D

  0  0  0  0  0  0  0  0  0  0999 V3000
M  V30 BEGIN CTAB
M  V30 COUNTS 38 39 0 0 0
M  V30 BEGIN ATOM
M  V30 1 N -5.31146 -2.05935 -0.659235 0
M  V30 2 C -5.39075 -0.70757 -0.306522 0
M  V30 3 C -6.47545 -0.121721 0.269877 0
M  V30 4 C -6.4583 1.20441 0.583098 0
M  V30 5 C -5.36348 2.00825 0.339683 0
M  V30 6 C -4.24656 1.42263 -0.251406 0
M  V30 7 C -4.24956 0.10156 -0.568866 0
M  V30 8 S -2.90976 -0.701747 -1.40327 0
M  V30 9 C -1.71123 -1.34441 -0.243049 0
M  V30 10 C -0.439264 -0.624857 -0.336861 0
M  V30 11 C 0.201269 0.0436798 0.606176 0
M  V30 12 C 1.51471 0.681842 0.210986 0
M  V30 13 S 2.8289 -0.0663808 1.25207 0
M  V30 14 C 4.43676 0.28258 0.552429 0
M  V30 15 C 5.1781 1.40778 0.838006 0
M  V30 16 C 6.41587 1.6422 0.258558 0
M  V30 17 C 6.96594 0.742171 -0.643229 0
M  V30 18 C 6.20753 -0.395707 -0.923875 0
M  V30 19 C 4.97189 -0.637279 -0.35128 0
M  V30 20 N 4.22361 -1.80335 -0.652412 0
M  V30 21 H -5.50753 -2.7914 0.0335136 0
M  V30 22 H -5.04205 -2.37933 -1.61702 0
M  V30 23 H -7.36617 -0.718798 0.492786 0
M  V30 24 H -7.3427 1.64289 1.036 0
M  V30 25 H -5.35987 3.04397 0.586752 0
M  V30 26 H -3.38469 2.06994 -0.433557 0
M  V30 27 H -1.49799 -2.4341 -0.40122 0
M  V30 28 H -2.07283 -1.28498 0.822174 0
M  V30 29 H 0.0463311 -0.661805 -1.35114 0
M  V30 30 H -0.212205 0.112567 1.5946 0
M  V30 31 H 1.69014 0.551411 -0.851878 0
M  V30 32 H 1.47597 1.79639 0.406404 0
M  V30 33 H 4.75341 2.13917 1.55493 0
M  V30 34 H 6.98223 2.52878 0.490681 0
M  V30 35 H 7.93269 0.889354 -1.11416 0
M  V30 36 H 6.62247 -1.12041 -1.62333 0
M  V30 37 H 4.52138 -2.738 -0.272379 0
M  V30 38 H 3.37263 -1.72037 -1.24513 0
M  V30 END ATOM
M  V30 BEGIN BOND
M  V30 1 1 1 2
M  V30 2 2 2 3
M  V30 3 1 3 4
M  V30 4 2 4 5
M  V30 5 1 5 6
M  V30 6 2 6 7
M  V30 7 1 7 8
M  V30 8 1 8 9
M  V30 9 1 9 10
M  V30 10 2 10 11
M  V30 11 1 11 12
M  V30 12 1 12 13
M  V30 13 1 13 14
M  V30 14 2 14 15
M  V30 15 1 15 16
M  V30 16 2 16 17
M  V30 17 1 17 18
M  V30 18 2 18 19
M  V30 19 1 19 20
M  V30 20 1 7 2
M  V30 21 1 19 14
M  V30 22 1 1 21
M  V30 23 1 1 22
M  V30 24 1 3 23
M  V30 25 1 4 24
M  V30 26 1 5 25
M  V30 27 1 6 26
M  V30 28 1 9 27
M  V30 29 1 9 28
M  V30 30 1 10 29
M  V30 31 1 11 30
M  V30 32 1 12 31
M  V30 33 1 12 32
M  V30 34 1 15 33
M  V30 35 1 16 34
M  V30 36 1 17 35
M  V30 37 1 18 36
M  V30 38 1 20 37
M  V30 39 1 20 38
M  V30 END BOND
M  V30 END CTAB
M  END
