
     RDKit          3D

  0  0  0  0  0  0  0  0  0  0999 V3000
M  V30 BEGIN CTAB
M  V30 COUNTS 25 26 0 0 0
M  V30 BEGIN ATOM
M  V30 1 C -4.7312 -0.00860575 -0.183196 0
M  V30 2 C -3.33566 0.0599547 0.359178 0
M  V30 3 C -2.92797 0.278328 1.65683 0
M  V30 4 N -1.60081 0.254612 1.66196 0
M  V30 5 N -1.11035 0.0332312 0.442682 0
M  V30 6 C -2.1825 -0.0871782 -0.363053 0
M  V30 7 C 0.25836 -0.0573399 0.0683882 0
M  V30 8 C 0.650663 -0.728873 -1.06621 0
M  V30 9 C 1.97622 -0.823777 -1.44012 0
M  V30 10 C 2.90711 -0.214378 -0.626888 0
M  V30 11 C 2.51175 0.467806 0.525173 0
M  V30 12 N 1.19938 0.520424 0.82958 0
M  V30 13 N 3.49477 1.08278 1.33855 0
M  V30 14 N 4.2919 -0.255013 -0.924417 0
M  V30 15 H -5.05865 -1.07031 -0.0389904 0
M  V30 16 H -5.387 0.662908 0.369484 0
M  V30 17 H -4.75221 0.2839 -1.25256 0
M  V30 18 H -3.6094 0.435484 2.48681 0
M  V30 19 H -2.11881 -0.276399 -1.44298 0
M  V30 20 H -0.0937015 -1.2125 -1.71067 0
M  V30 21 H 2.31129 -1.34747 -2.32984 0
M  V30 22 H 3.2234 1.91029 1.90295 0
M  V30 23 H 4.4578 0.734595 1.38331 0
M  V30 24 H 4.81817 -1.09771 -0.565318 0
M  V30 25 H 4.80745 0.45525 -1.44924 0
M  V30 END ATOM
M  V30 BEGIN BOND
M  V30 1 1 1 2
M  V30 2 1 2 3
M  V30 3 2 3 4
M  V30 4 1 4 5
M  V30 5 1 5 6
M  V30 6 1 5 7
M  V30 7 2 7 8
M  V30 8 1 8 9
M  V30 9 2 9 10
M  V30 10 1 10 11
M  V30 11 2 11 12
M  V30 12 1 11 13
M  V30 13 1 10 14
M  V30 14 2 6 2
M  V30 15 1 12 7
M  V30 16 1 1 15
M  V30 17 1 1 16
M  V30 18 1 1 17
M  V30 19 1 3 18
M  V30 20 1 6 19
M  V30 21 1 8 20
M  V30 22 1 9 21
M  V30 23 1 13 22
M  V30 24 1 13 23
M  V30 25 1 14 24
M  V30 26 1 14 25
M  V30 END BOND
M  V30 END CTAB
M  END
