
     RDKit          3D

  0  0  0  0  0  0  0  0  0  0999 V3000
M  V30 BEGIN CTAB
M  V30 COUNTS 47 47 0 0 0
M  V30 BEGIN ATOM
M  V30 1 N 3.96109 2.91706 -1.29909 0
M  V30 2 C 2.76146 2.18261 -1.57348 0
M  V30 3 C 2.39112 1.28819 -0.389707 0
M  V30 4 N 1.20332 0.552036 -0.644406 0
M  V30 5 C -0.0077196 0.700613 0.0872958 0
M  V30 6 O -0.0888884 1.51758 1.02612 0
M  V30 7 C -1.23123 -0.117147 -0.240586 0
M  V30 8 C -2.33805 0.240259 0.672367 0
M  V30 9 C -3.60326 -0.468418 0.522197 0
M  V30 10 C -3.81314 -1.50359 -0.344209 0
M  V30 11 C -5.02987 -2.14261 -0.468585 0
M  V30 12 C -6.08524 -1.73958 0.298669 0
M  V30 13 C -5.91373 -0.703781 1.18076 0
M  V30 14 C -4.6741 -0.0668631 1.29425 0
M  V30 15 N -1.9736 0.236201 2.0926 0
M  V30 16 C -1.53795 0.154871 -1.69929 0
M  V30 17 C 3.60164 0.520317 -0.0387966 0
M  V30 18 C 3.55553 -0.42702 1.0893 0
M  V30 19 C 2.56758 -1.52773 0.914359 0
M  V30 20 C 4.93776 -1.0951 1.16721 0
M  V30 21 H 4.04253 3.21835 -0.302304 0
M  V30 22 H 4.04818 3.70213 -1.9619 0
M  V30 23 H 2.88322 1.60805 -2.49102 0
M  V30 24 H 1.93768 2.90828 -1.72867 0
M  V30 25 H 2.17027 1.98339 0.472301 0
M  V30 26 H 1.1955 -0.144386 -1.42882 0
M  V30 27 H -0.939031 -1.16877 -0.0847412 0
M  V30 28 H -2.53543 1.35982 0.475776 0
M  V30 29 H -2.99101 -1.8702 -0.975834 0
M  V30 30 H -5.17546 -2.95934 -1.16021 0
M  V30 31 H -7.07672 -2.23105 0.224027 0
M  V30 32 H -6.76053 -0.393386 1.78476 0
M  V30 33 H -4.61478 0.741156 2.01002 0
M  V30 34 H -2.08024 -0.726528 2.46189 0
M  V30 35 H -2.66232 0.852647 2.57623 0
M  V30 36 H -1.03185 1.08269 -2.03806 0
M  V30 37 H -2.61899 0.323115 -1.88703 0
M  V30 38 H -1.11779 -0.668395 -2.31371 0
M  V30 39 H 4.43125 1.26949 0.16718 0
M  V30 40 H 4.01309 -0.0336152 -0.943162 0
M  V30 41 H 3.40205 0.129981 2.04391 0
M  V30 42 H 1.68929 -1.39903 1.60981 0
M  V30 43 H 2.27265 -1.74861 -0.118702 0
M  V30 44 H 2.99682 -2.52404 1.27949 0
M  V30 45 H 4.88561 -1.9899 1.82267 0
M  V30 46 H 5.26351 -1.43935 0.179943 0
M  V30 47 H 5.68979 -0.400413 1.55519 0
M  V30 END ATOM
M  V30 BEGIN BOND
M  V30 1 1 1 2
M  V30 2 1 2 3
M  V30 3 1 3 4
M  V30 4 1 4 5
M  V30 5 2 5 6
M  V30 6 1 5 7
M  V30 7 1 7 8
M  V30 8 1 8 9
M  V30 9 2 9 10
M  V30 10 1 10 11
M  V30 11 2 11 12
M  V30 12 1 12 13
M  V30 13 2 13 14
M  V30 14 1 8 15
M  V30 15 1 7 16
M  V30 16 1 3 17
M  V30 17 1 17 18
M  V30 18 1 18 19
M  V30 19 1 18 20
M  V30 20 1 14 9
M  V30 21 1 1 21
M  V30 22 1 1 22
M  V30 23 1 2 23
M  V30 24 1 2 24
M  V30 25 1 3 25
M  V30 26 1 4 26
M  V30 27 1 7 27
M  V30 28 1 8 28
M  V30 29 1 10 29
M  V30 30 1 11 30
M  V30 31 1 12 31
M  V30 32 1 13 32
M  V30 33 1 14 33
M  V30 34 1 15 34
M  V30 35 1 15 35
M  V30 36 1 16 36
M  V30 37 1 16 37
M  V30 38 1 16 38
M  V30 39 1 17 39
M  V30 40 1 17 40
M  V30 41 1 18 41
M  V30 42 1 19 42
M  V30 43 1 19 43
M  V30 44 1 19 44
M  V30 45 1 20 45
M  V30 46 1 20 46
M  V30 47 1 20 47
M  V30 END BOND
M  V30 END CTAB
M  END
