
     RDKit          3D

  0  0  0  0  0  0  0  0  0  0999 V3000
M  V30 BEGIN CTAB
M  V30 COUNTS 18 17 0 0 0
M  V30 BEGIN ATOM
M  V30 1 C -0.874066 -1.41042 0.365808 0
M  V30 2 C -0.32437 -0.0705827 -0.0595747 0 CFG=2
M  V30 3 N -0.241174 -0.0794657 -1.50063 0
M  V30 4 C 1.01544 0.213051 0.582889 0
M  V30 5 N 1.99732 -0.803795 0.213986 0
M  V30 6 C -1.23278 1.04981 0.318056 0
M  V30 7 O -1.83384 1.86974 -0.610778 0
M  V30 8 O -1.43909 1.22776 1.55086 0
M  V30 9 H -1.84981 -1.20942 0.872027 0
M  V30 10 H -1.10473 -2.07135 -0.486934 0
M  V30 11 H -0.238813 -1.94068 1.07715 0
M  V30 12 H 0.521243 -0.685586 -1.81116 0
M  V30 13 H -0.197912 0.899383 -1.84461 0
M  V30 14 H 1.33562 1.22103 0.296864 0
M  V30 15 H 0.899827 0.180902 1.67454 0
M  V30 16 H 2.83804 -0.684689 0.808606 0
M  V30 17 H 2.30347 -0.562418 -0.774385 0
M  V30 18 H -1.57437 2.85672 -0.672709 0
M  V30 END ATOM
M  V30 BEGIN BOND
M  V30 1 1 1 2
M  V30 2 1 2 3
M  V30 3 1 2 4
M  V30 4 1 4 5
M  V30 5 1 2 6 CFG=3
M  V30 6 1 6 7
M  V30 7 2 6 8
M  V30 8 1 1 9
M  V30 9 1 1 10
M  V30 10 1 1 11
M  V30 11 1 3 12
M  V30 12 1 3 13
M  V30 13 1 4 14
M  V30 14 1 4 15
M  V30 15 1 5 16
M  V30 16 1 5 17
M  V30 17 1 7 18
M  V30 END BOND
M  V30 END CTAB
M  END
