
     RDKit          3D

  0  0  0  0  0  0  0  0  0  0999 V3000
M  V30 BEGIN CTAB
M  V30 COUNTS 46 47 0 0 0
M  V30 BEGIN ATOM
M  V30 1 N -5.17889 2.66956 1.40206 0
M  V30 2 C -4.56951 1.71174 0.535827 0
M  V30 3 C -5.17495 0.517756 0.22332 0
M  V30 4 C -4.59121 -0.408896 -0.611384 0
M  V30 5 C -3.35783 -0.161228 -1.16918 0
M  V30 6 C -2.74642 1.03498 -0.858832 0
M  V30 7 C -3.33424 1.9616 -0.0218427 0
M  V30 8 S -2.65318 -1.36173 -2.22421 0
M  V30 9 O -1.71232 -0.715799 -3.21576 0
M  V30 10 O -3.77001 -2.06707 -2.91271 0
M  V30 11 N -1.72612 -2.44596 -1.25309 0
M  V30 12 C -0.650161 -1.67277 -0.596584 0
M  V30 13 C 0.113867 -2.69234 0.232136 0
M  V30 14 O 0.616812 -3.70501 -0.604516 0
M  V30 15 C 1.22642 -1.99999 0.961202 0
M  V30 16 N 0.693675 -0.976663 1.82025 0
M  V30 17 S 2.05178 -0.247126 2.62018 0
M  V30 18 O 2.82652 -1.26488 3.40881 0
M  V30 19 O 1.49644 0.818274 3.54743 0
M  V30 20 C 3.10658 0.474987 1.4277 0
M  V30 21 C 4.1499 -0.228296 0.848447 0
M  V30 22 C 4.96528 0.369254 -0.0904382 0
M  V30 23 C 4.79034 1.67584 -0.497087 0
M  V30 24 N 5.64269 2.27311 -1.46721 0
M  V30 25 C 3.75106 2.376 0.0800864 0
M  V30 26 C 2.92766 1.78412 1.02332 0
M  V30 27 H -4.81023 2.73892 2.37456 0
M  V30 28 H -5.96217 3.26104 1.04006 0
M  V30 29 H -6.13463 0.301878 0.644635 0
M  V30 30 H -5.13649 -1.32796 -0.807393 0
M  V30 31 H -1.77444 1.25219 -1.28639 0
M  V30 32 H -2.84059 2.91029 0.219353 0
M  V30 33 H -2.31504 -2.80794 -0.447872 0
M  V30 34 H -0.0172905 -1.19566 -1.36987 0
M  V30 35 H -1.09862 -0.873144 0.0217519 0
M  V30 36 H -0.599401 -3.16142 0.933544 0
M  V30 37 H 0.07887 -3.78264 -1.44423 0
M  V30 38 H 1.84439 -2.70929 1.55332 0
M  V30 39 H 1.87739 -1.47748 0.206089 0
M  V30 40 H 0.240227 -0.185009 1.2765 0
M  V30 41 H 4.3068 -1.26699 1.15671 0
M  V30 42 H 5.78739 -0.176247 -0.55046 0
M  V30 43 H 6.6292 1.96997 -1.61783 0
M  V30 44 H 5.29694 3.04975 -2.0698 0
M  V30 45 H 3.61509 3.41207 -0.244598 0
M  V30 46 H 2.11844 2.34819 1.46475 0
M  V30 END ATOM
M  V30 BEGIN BOND
M  V30 1 1 1 2
M  V30 2 2 2 3
M  V30 3 1 3 4
M  V30 4 2 4 5
M  V30 5 1 5 6
M  V30 6 2 6 7
M  V30 7 1 5 8
M  V30 8 2 8 9
M  V30 9 2 8 10
M  V30 10 1 8 11
M  V30 11 1 11 12
M  V30 12 1 12 13
M  V30 13 1 13 14
M  V30 14 1 13 15
M  V30 15 1 15 16
M  V30 16 1 16 17
M  V30 17 2 17 18
M  V30 18 2 17 19
M  V30 19 1 17 20
M  V30 20 2 20 21
M  V30 21 1 21 22
M  V30 22 2 22 23
M  V30 23 1 23 24
M  V30 24 1 23 25
M  V30 25 2 25 26
M  V30 26 1 7 2
M  V30 27 1 26 20
M  V30 28 1 1 27
M  V30 29 1 1 28
M  V30 30 1 3 29
M  V30 31 1 4 30
M  V30 32 1 6 31
M  V30 33 1 7 32
M  V30 34 1 11 33
M  V30 35 1 12 34
M  V30 36 1 12 35
M  V30 37 1 13 36
M  V30 38 1 14 37
M  V30 39 1 15 38
M  V30 40 1 15 39
M  V30 41 1 16 40
M  V30 42 1 21 41
M  V30 43 1 22 42
M  V30 44 1 24 43
M  V30 45 1 24 44
M  V30 46 1 25 45
M  V30 47 1 26 46
M  V30 END BOND
M  V30 END CTAB
M  END
