
     RDKit          3D

  0  0  0  0  0  0  0  0  0  0999 V3000
M  V30 BEGIN CTAB
M  V30 COUNTS 17 17 0 0 0
M  V30 BEGIN ATOM
M  V30 1 N -1.96176 -1.86376 0.281131 0
M  V30 2 C -0.673248 -1.29535 0.140648 0
M  V30 3 N 0.337269 -2.11472 0.0541004 0
M  V30 4 S 1.93256 -1.54118 -0.117387 0
M  V30 5 O 2.56959 -2.0787 -1.38716 0
M  V30 6 O 2.83663 -2.01506 1.00456 0
M  V30 7 N 1.87493 0.180543 -0.143769 0
M  V30 8 C 0.764367 0.849725 -0.0443313 0
M  V30 9 N 0.83733 2.28106 -0.0784459 0
M  V30 10 C -0.500898 0.147507 0.0963218 0
M  V30 11 N -1.5514 0.903495 0.188103 0
M  V30 12 O -1.53147 2.26151 0.160724 0
M  V30 13 H -2.50057 -2.13245 -0.550356 0
M  V30 14 H -2.347 -2.00231 1.22429 0
M  V30 15 H 0.949067 2.7889 -0.974615 0
M  V30 16 H 0.780846 2.84621 0.786144 0
M  V30 17 H -1.81623 2.78459 -0.639959 0
M  V30 END ATOM
M  V30 BEGIN BOND
M  V30 1 1 1 2
M  V30 2 2 2 3
M  V30 3 1 3 4
M  V30 4 2 4 5
M  V30 5 2 4 6
M  V30 6 1 4 7
M  V30 7 2 7 8
M  V30 8 1 8 9
M  V30 9 1 8 10
M  V30 10 2 10 11
M  V30 11 1 11 12
M  V30 12 1 10 2
M  V30 13 1 1 13
M  V30 14 1 1 14
M  V30 15 1 9 15
M  V30 16 1 9 16
M  V30 17 1 12 17
M  V30 END BOND
M  V30 END CTAB
M  END
