
     RDKit          3D

  0  0  0  0  0  0  0  0  0  0999 V3000
M  V30 BEGIN CTAB
M  V30 COUNTS 19 20 0 0 0
M  V30 BEGIN ATOM
M  V30 1 Br 4.87309 0.399417 2.13983 0
M  V30 2 C 3.37273 0.0976388 0.966805 0
M  V30 3 S 1.70106 0.323333 1.28396 0
M  V30 4 C 1.06726 -0.153605 -0.221656 0
M  V30 5 C 2.18681 -0.478498 -0.936272 0
M  V30 6 C 3.3694 -0.349741 -0.326988 0
M  V30 7 Br 5.06839 -0.762082 -1.1781 0
M  V30 8 C -0.334071 -0.201222 -0.640272 0
M  V30 9 N -0.792664 -0.585179 -1.84199 0
M  V30 10 N -2.12814 -0.480063 -1.80604 0
M  V30 11 C -2.53304 -0.0400332 -0.615455 0
M  V30 12 N -1.39808 0.129372 0.101825 0
M  V30 13 N -1.33759 0.579662 1.41547 0
M  V30 14 N -3.86226 0.201384 -0.184304 0
M  V30 15 H 2.06754 -0.831852 -1.98153 0
M  V30 16 H -0.755593 1.4391 1.64917 0
M  V30 17 H -1.834 0.126928 2.21753 0
M  V30 18 H -4.53682 0.716879 -0.787478 0
M  V30 19 H -4.19401 -0.131443 0.745489 0
M  V30 END ATOM
M  V30 BEGIN BOND
M  V30 1 1 1 2
M  V30 2 1 2 3
M  V30 3 1 3 4
M  V30 4 2 4 5
M  V30 5 1 5 6
M  V30 6 1 6 7
M  V30 7 1 4 8
M  V30 8 2 8 9
M  V30 9 1 9 10
M  V30 10 2 10 11
M  V30 11 1 11 12
M  V30 12 1 12 13
M  V30 13 1 11 14
M  V30 14 2 6 2
M  V30 15 1 12 8
M  V30 16 1 5 15
M  V30 17 1 13 16
M  V30 18 1 13 17
M  V30 19 1 14 18
M  V30 20 1 14 19
M  V30 END BOND
M  V30 END CTAB
M  END
