
     RDKit          3D

  0  0  0  0  0  0  0  0  0  0999 V3000
M  V30 BEGIN CTAB
M  V30 COUNTS 27 28 0 0 0
M  V30 BEGIN ATOM
M  V30 1 N -2.60973 2.2188 0.232869 0
M  V30 2 C -1.92317 1.00876 -0.0949131 0
M  V30 3 C -2.67797 -0.240933 0.234177 0
M  V30 4 C -1.92196 -1.41996 -0.351529 0
M  V30 5 C -0.524283 -1.49305 0.254643 0
M  V30 6 C 0.178706 -0.218217 -0.138317 0
M  V30 7 C -0.559905 0.919695 0.577323 0
M  V30 8 C 1.6141 -0.217998 0.215892 0
M  V30 9 O 2.19412 -0.367813 1.37227 0
M  V30 10 N 3.4885 -0.304176 1.26283 0
M  V30 11 C 3.79465 -0.101931 -0.0283429 0
M  V30 12 N 2.61256 -0.0504948 -0.668918 0
M  V30 13 N 5.10703 0.0322956 -0.610592 0
M  V30 14 H -3.1351 2.20868 1.11279 0
M  V30 15 H -3.08691 2.68017 -0.56534 0
M  V30 16 H -1.72942 0.995983 -1.20043 0
M  V30 17 H -2.68917 -0.392439 1.34822 0
M  V30 18 H -3.69316 -0.239355 -0.176553 0
M  V30 19 H -2.44126 -2.37365 -0.19442 0
M  V30 20 H -1.76693 -1.2576 -1.44927 0
M  V30 21 H -0.0288507 -2.39696 -0.15816 0
M  V30 22 H -0.666623 -1.57903 1.35176 0
M  V30 23 H 0.0302725 -0.0651336 -1.20963 0
M  V30 24 H -0.691739 0.56307 1.63095 0
M  V30 25 H 0.00216277 1.85195 0.514633 0
M  V30 26 H 5.56157 -0.721352 -1.13553 0
M  V30 27 H 5.56251 0.960668 -0.456403 0
M  V30 END ATOM
M  V30 BEGIN BOND
M  V30 1 1 1 2
M  V30 2 1 2 3
M  V30 3 1 3 4
M  V30 4 1 4 5
M  V30 5 1 5 6
M  V30 6 1 6 7
M  V30 7 1 6 8
M  V30 8 1 8 9
M  V30 9 1 9 10
M  V30 10 2 10 11
M  V30 11 1 11 12
M  V30 12 1 11 13
M  V30 13 1 7 2
M  V30 14 2 12 8
M  V30 15 1 1 14
M  V30 16 1 1 15
M  V30 17 1 2 16
M  V30 18 1 3 17
M  V30 19 1 3 18
M  V30 20 1 4 19
M  V30 21 1 4 20
M  V30 22 1 5 21
M  V30 23 1 5 22
M  V30 24 1 6 23
M  V30 25 1 7 24
M  V30 26 1 7 25
M  V30 27 1 13 26
M  V30 28 1 13 27
M  V30 END BOND
M  V30 END CTAB
M  END
