
     RDKit          3D

  0  0  0  0  0  0  0  0  0  0999 V3000
M  V30 BEGIN CTAB
M  V30 COUNTS 46 49 0 0 0
M  V30 BEGIN ATOM
M  V30 1 N -2.6756 -4.81294 0.26999 0
M  V30 2 C -2.59436 -3.36757 0.354634 0
M  V30 3 N -1.84436 -2.81243 -0.504334 0
M  V30 4 C -1.64464 -1.38116 -0.544259 0
M  V30 5 N -2.61126 -0.68552 0.214435 0
M  V30 6 C -3.39839 -1.35997 1.1736 0
M  V30 7 N -4.17827 -0.546368 2.04929 0
M  V30 8 N -3.42017 -2.65866 1.26506 0
M  V30 9 C -2.86187 0.686369 -0.0563116 0
M  V30 10 C -3.67519 0.967747 -1.167 0
M  V30 11 C -4.01899 2.24235 -1.54044 0
M  V30 12 C -3.56628 3.32187 -0.819466 0
M  V30 13 Cl -3.98471 4.97198 -1.26629 0
M  V30 14 C -2.77003 3.06671 0.270028 0
M  V30 15 C -2.4227 1.76479 0.646526 0
M  V30 16 C -0.222517 -1.18049 -0.170918 0
M  V30 17 C 0.703574 -1.61692 -1.12068 0
M  V30 18 C 2.05741 -1.5356 -0.923872 0
M  V30 19 C 2.5128 -1.00172 0.258588 0
M  V30 20 O 3.88342 -0.927817 0.438284 0
M  V30 21 C 4.5864 0.195038 0.0376761 0
M  V30 22 C 5.95987 0.283709 0.210969 0
M  V30 23 C 6.61608 1.43246 -0.208664 0
M  V30 24 C 5.93045 2.48362 -0.792625 0
M  V30 25 C 4.57531 2.36597 -0.949909 0
M  V30 26 C 3.89619 1.23509 -0.541951 0
M  V30 27 C 1.63073 -0.563122 1.21465 0
M  V30 28 C 0.254034 -0.655718 0.993649 0
M  V30 29 H -1.90443 -5.3652 0.686166 0
M  V30 30 H -3.4839 -5.26968 -0.194324 0
M  V30 31 H -1.69742 -1.09932 -1.64573 0
M  V30 32 H -5.20303 -0.414254 1.96107 0
M  V30 33 H -3.6888 -0.0576375 2.82108 0
M  V30 34 H -4.04119 0.117845 -1.74808 0
M  V30 35 H -4.6523 2.42585 -2.40825 0
M  V30 36 H -2.39141 3.88941 0.866391 0
M  V30 37 H -1.80421 1.5918 1.51248 0
M  V30 38 H 0.381897 -2.04766 -2.07412 0
M  V30 39 H 2.76213 -1.87864 -1.67071 0
M  V30 40 H 6.45027 -0.552454 0.666939 0
M  V30 41 H 7.676 1.49084 -0.0703707 0
M  V30 42 H 6.4828 3.34904 -1.09974 0
M  V30 43 H 4.0466 3.19109 -1.40682 0
M  V30 44 H 2.82051 1.18474 -0.686346 0
M  V30 45 H 1.97483 -0.142623 2.14585 0
M  V30 46 H -0.445278 -0.32482 1.75508 0
M  V30 END ATOM
M  V30 BEGIN BOND
M  V30 1 1 1 2
M  V30 2 2 2 3
M  V30 3 1 3 4
M  V30 4 1 4 5
M  V30 5 1 5 6
M  V30 6 1 6 7
M  V30 7 2 6 8
M  V30 8 1 5 9
M  V30 9 2 9 10
M  V30 10 1 10 11
M  V30 11 2 11 12
M  V30 12 1 12 13
M  V30 13 1 12 14
M  V30 14 2 14 15
M  V30 15 1 4 16
M  V30 16 2 16 17
M  V30 17 1 17 18
M  V30 18 2 18 19
M  V30 19 1 19 20
M  V30 20 1 20 21
M  V30 21 2 21 22
M  V30 22 1 22 23
M  V30 23 2 23 24
M  V30 24 1 24 25
M  V30 25 2 25 26
M  V30 26 1 19 27
M  V30 27 2 27 28
M  V30 28 1 8 2
M  V30 29 1 15 9
M  V30 30 1 28 16
M  V30 31 1 26 21
M  V30 32 1 1 29
M  V30 33 1 1 30
M  V30 34 1 4 31
M  V30 35 1 7 32
M  V30 36 1 7 33
M  V30 37 1 10 34
M  V30 38 1 11 35
M  V30 39 1 14 36
M  V30 40 1 15 37
M  V30 41 1 17 38
M  V30 42 1 18 39
M  V30 43 1 22 40
M  V30 44 1 23 41
M  V30 45 1 24 42
M  V30 46 1 25 43
M  V30 47 1 26 44
M  V30 48 1 27 45
M  V30 49 1 28 46
M  V30 END BOND
M  V30 END CTAB
M  END
