
     RDKit          3D

  0  0  0  0  0  0  0  0  0  0999 V3000
M  V30 BEGIN CTAB
M  V30 COUNTS 24 25 0 0 0
M  V30 BEGIN ATOM
M  V30 1 N 3.40744 0.11763 -0.156245 0
M  V30 2 C 2.06672 0.619446 -0.0680523 0
M  V30 3 C 1.81132 1.96946 0.0100105 0
M  V30 4 N 0.551431 2.41148 0.0914669 0
M  V30 5 C -0.476529 1.54037 0.0977701 0
M  V30 6 C -0.251747 0.155524 0.0194539 0
M  V30 7 C 1.02617 -0.316004 -0.064286 0
M  V30 8 N 1.33125 -1.68084 -0.144951 0
M  V30 9 C -1.31907 -0.740063 0.0264631 0
M  V30 10 C -1.14602 -2.20823 -0.0539019 0
M  V30 11 C -2.57587 -0.154546 0.114854 0
M  V30 12 C -2.80417 1.19291 0.191534 0
M  V30 13 C -1.75577 2.06227 0.184115 0
M  V30 14 Br -1.98556 3.95752 0.287624 0
M  V30 15 H 3.93983 0.340494 -1.00267 0
M  V30 16 H 3.76463 -0.444735 0.644256 0
M  V30 17 H 2.62591 2.70335 0.00712879 0
M  V30 18 H 1.41565 -2.17276 -1.05461 0
M  V30 19 H 1.49512 -2.23282 0.71858 0
M  V30 20 H -2.22488 -2.60892 -0.0307329 0
M  V30 21 H -0.777829 -2.70591 0.838618 0
M  V30 22 H -0.867697 -2.60125 -1.03997 0
M  V30 23 H -3.44768 -0.827917 0.123466 0
M  V30 24 H -3.80266 1.62355 0.260075 0
M  V30 END ATOM
M  V30 BEGIN BOND
M  V30 1 1 1 2
M  V30 2 2 2 3
M  V30 3 1 3 4
M  V30 4 2 4 5
M  V30 5 1 5 6
M  V30 6 2 6 7
M  V30 7 1 7 8
M  V30 8 1 6 9
M  V30 9 1 9 10
M  V30 10 2 9 11
M  V30 11 1 11 12
M  V30 12 2 12 13
M  V30 13 1 13 14
M  V30 14 1 7 2
M  V30 15 1 13 5
M  V30 16 1 1 15
M  V30 17 1 1 16
M  V30 18 1 3 17
M  V30 19 1 8 18
M  V30 20 1 8 19
M  V30 21 1 10 20
M  V30 22 1 10 21
M  V30 23 1 10 22
M  V30 24 1 11 23
M  V30 25 1 12 24
M  V30 END BOND
M  V30 END CTAB
M  END
