
     RDKit          3D

  0  0  0  0  0  0  0  0  0  0999 V3000
M  V30 BEGIN CTAB
M  V30 COUNTS 35 37 0 0 0
M  V30 BEGIN ATOM
M  V30 1 N 1.09096 -1.68029 -1.54807 0
M  V30 2 C 1.71623 -1.28533 -0.387806 0 CFG=1
M  V30 3 C 2.70162 -0.162885 -0.638477 0 CFG=2
M  V30 4 O 3.97204 -0.659194 -0.911218 0
M  V30 5 C 2.63302 0.596133 0.648561 0 CFG=1
M  V30 6 C 3.0113 2.04824 0.496285 0
M  V30 7 O 4.36448 2.20658 0.204736 0
M  V30 8 O 1.25614 0.568426 0.93846 0
M  V30 9 C 0.845267 -0.736863 0.678262 0 CFG=1
M  V30 10 N -0.567112 -0.730035 0.342788 0
M  V30 11 C -1.29483 -1.75557 -0.150112 0
M  V30 12 C -2.60559 -1.36107 -0.340705 0
M  V30 13 C -3.70467 -2.12881 -0.842193 0
M  V30 14 N -4.59168 -2.77145 -1.26015 0
M  V30 15 C -2.66109 -0.0539591 0.0525705 0
M  V30 16 C -1.41802 0.312697 0.463723 0
M  V30 17 N -1.2526 1.58384 0.898594 0
M  V30 18 C -2.28398 2.436 0.917095 0
M  V30 19 N -3.51231 2.07734 0.511962 0
M  V30 20 C -3.7489 0.826864 0.0665031 0
M  V30 21 N -5.0348 0.411646 -0.370016 0
M  V30 22 H 1.06617 -2.63764 -1.72913 0
M  V30 23 H 0.961537 -1.07262 -2.30147 0
M  V30 24 H 2.32003 -2.15047 0.00722502 0
M  V30 25 H 2.35554 0.480434 -1.46777 0
M  V30 26 H 4.20894 -1.27695 -0.163977 0
M  V30 27 H 3.1592 0.0849054 1.46546 0
M  V30 28 H 2.80705 2.55514 1.45469 0
M  V30 29 H 2.39416 2.49416 -0.283334 0
M  V30 30 H 4.94306 1.84922 0.901714 0
M  V30 31 H 1.01225 -1.30018 1.64082 0
M  V30 32 H -0.95867 -2.75762 -0.381421 0
M  V30 33 H -2.14605 3.46292 1.26943 0
M  V30 34 H -5.4257 0.799279 -1.25222 0
M  V30 35 H -5.613 -0.272872 0.159819 0
M  V30 END ATOM
M  V30 BEGIN BOND
M  V30 1 1 1 2
M  V30 2 1 2 3
M  V30 3 1 3 4
M  V30 4 1 3 5
M  V30 5 1 5 6
M  V30 6 1 6 7
M  V30 7 1 5 8
M  V30 8 1 8 9
M  V30 9 1 9 10
M  V30 10 1 10 11
M  V30 11 2 11 12
M  V30 12 1 12 13
M  V30 13 3 13 14
M  V30 14 1 12 15
M  V30 15 2 15 16
M  V30 16 1 16 17
M  V30 17 2 17 18
M  V30 18 1 18 19
M  V30 19 2 19 20
M  V30 20 1 20 21
M  V30 21 1 9 2
M  V30 22 1 16 10
M  V30 23 1 20 15
M  V30 24 1 1 22
M  V30 25 1 1 23
M  V30 26 1 2 24 CFG=1
M  V30 27 1 3 25 CFG=3
M  V30 28 1 4 26
M  V30 29 1 5 27 CFG=1
M  V30 30 1 6 28
M  V30 31 1 6 29
M  V30 32 1 7 30
M  V30 33 1 9 31 CFG=1
M  V30 34 1 11 32
M  V30 35 1 18 33
M  V30 36 1 21 34
M  V30 37 1 21 35
M  V30 END BOND
M  V30 END CTAB
M  END
