
     RDKit          3D

  0  0  0  0  0  0  0  0  0  0999 V3000
M  V30 BEGIN CTAB
M  V30 COUNTS 44 46 0 0 0
M  V30 BEGIN ATOM
M  V30 1 O -0.530061 -1.6361 -0.299363 0
M  V30 2 C -0.0745449 -0.502687 0.013065 0
M  V30 3 N -0.770948 0.716111 -0.0838049 0
M  V30 4 C -2.10698 0.742324 -0.572063 0
M  V30 5 C -2.23481 0.309475 -1.99846 0
M  V30 6 C -3.60942 0.0843384 -2.50356 0
M  V30 7 C -4.69574 0.518242 -1.57677 0
M  V30 8 C -4.38472 -0.0723585 -0.247464 0
M  V30 9 C -3.10503 0.0392102 0.269367 0
M  V30 10 C -2.83601 -0.49654 1.51428 0
M  V30 11 C -3.84303 -1.13468 2.22235 0
M  V30 12 C -5.1219 -1.25714 1.72581 0
M  V30 13 C -5.36825 -0.71216 0.477613 0
M  V30 14 C -0.0955365 1.92174 0.325551 0
M  V30 15 C 1.34181 -0.459913 0.535829 0
M  V30 16 S 2.51795 -0.290594 -0.841382 0
M  V30 17 C 4.15365 -0.228295 -0.142237 0
M  V30 18 N 4.81549 -1.37636 0.0438002 0
M  V30 19 C 6.07269 -1.37266 0.575713 0
M  V30 20 N 6.70464 -2.63091 0.741231 0
M  V30 21 N 6.65539 -0.212057 0.916896 0
M  V30 22 C 5.99581 0.944475 0.73255 0
M  V30 23 N 4.75688 0.918622 0.206648 0
M  V30 24 N 6.53584 2.20139 1.06257 0
M  V30 25 H -2.42715 1.83782 -0.569576 0
M  V30 26 H -1.70561 1.03594 -2.69261 0
M  V30 27 H -1.66789 -0.652719 -2.18373 0
M  V30 28 H -3.75213 0.680575 -3.44886 0
M  V30 29 H -3.79764 -0.976926 -2.77977 0
M  V30 30 H -5.6353 0.0329388 -1.92678 0
M  V30 31 H -4.80934 1.62102 -1.51817 0
M  V30 32 H -1.84195 -0.399722 1.92729 0
M  V30 33 H -3.62183 -1.55091 3.19578 0
M  V30 34 H -5.91797 -1.7524 2.26591 0
M  V30 35 H -6.3663 -0.803315 0.0829608 0
M  V30 36 H 0.943401 1.90399 -0.0846609 0
M  V30 37 H -0.551843 2.8484 -0.0309396 0
M  V30 38 H 0.0206506 1.87546 1.42813 0
M  V30 39 H 1.5339 -1.35814 1.14388 0
M  V30 40 H 1.48376 0.411075 1.20107 0
M  V30 41 H 6.65452 -3.07551 1.68099 0
M  V30 42 H 7.18652 -3.05276 -0.0726035 0
M  V30 43 H 6.24274 2.73104 1.90752 0
M  V30 44 H 7.25629 2.63064 0.448614 0
M  V30 END ATOM
M  V30 BEGIN BOND
M  V30 1 2 1 2
M  V30 2 1 2 3
M  V30 3 1 3 4
M  V30 4 1 4 5
M  V30 5 1 5 6
M  V30 6 1 6 7
M  V30 7 1 7 8
M  V30 8 2 8 9
M  V30 9 1 9 10
M  V30 10 2 10 11
M  V30 11 1 11 12
M  V30 12 2 12 13
M  V30 13 1 3 14
M  V30 14 1 2 15
M  V30 15 1 15 16
M  V30 16 1 16 17
M  V30 17 2 17 18
M  V30 18 1 18 19
M  V30 19 1 19 20
M  V30 20 2 19 21
M  V30 21 1 21 22
M  V30 22 2 22 23
M  V30 23 1 22 24
M  V30 24 1 9 4
M  V30 25 1 23 17
M  V30 26 1 13 8
M  V30 27 1 4 25
M  V30 28 1 5 26
M  V30 29 1 5 27
M  V30 30 1 6 28
M  V30 31 1 6 29
M  V30 32 1 7 30
M  V30 33 1 7 31
M  V30 34 1 10 32
M  V30 35 1 11 33
M  V30 36 1 12 34
M  V30 37 1 13 35
M  V30 38 1 14 36
M  V30 39 1 14 37
M  V30 40 1 14 38
M  V30 41 1 15 39
M  V30 42 1 15 40
M  V30 43 1 20 41
M  V30 44 1 20 42
M  V30 45 1 24 43
M  V30 46 1 24 44
M  V30 END BOND
M  V30 END CTAB
M  END
