
     RDKit          3D

  0  0  0  0  0  0  0  0  0  0999 V3000
M  V30 BEGIN CTAB
M  V30 COUNTS 29 29 0 0 0
M  V30 BEGIN ATOM
M  V30 1 C 3.48874 1.58419 0.808562 0
M  V30 2 O 3.33877 1.51424 -0.540036 0
M  V30 3 C 2.77486 0.394162 -1.05479 0
M  V30 4 C 1.37603 0.147471 -0.646083 0
M  V30 5 N 0.547422 0.833821 0.117951 0
M  V30 6 C -0.657842 0.249719 0.217006 0
M  V30 7 N -0.550786 -0.866834 -0.53923 0
M  V30 8 C 0.670071 -0.974129 -1.08668 0
M  V30 9 N 1.15356 -2.01272 -1.94067 0
M  V30 10 N -1.58558 -1.78897 -0.723256 0
M  V30 11 C -1.84749 0.691661 0.966389 0
M  V30 12 C -2.33934 -0.281354 1.97379 0
M  V30 13 C -2.99468 1.07092 0.0209279 0
M  V30 14 H 3.97568 2.56477 1.07187 0
M  V30 15 H 4.20113 0.812795 1.21313 0
M  V30 16 H 2.56826 1.5339 1.40411 0
M  V30 17 H 3.36202 -0.545328 -0.801437 0
M  V30 18 H 2.75791 0.463404 -2.18447 0
M  V30 19 H 0.504201 -2.47754 -2.62138 0
M  V30 20 H 2.154 -2.30176 -1.87975 0
M  V30 21 H -2.02171 -1.83906 -1.66269 0
M  V30 22 H -1.88144 -2.38587 0.0724209 0
M  V30 23 H -1.56976 1.65821 1.47895 0
M  V30 24 H -3.21436 -0.840253 1.52975 0
M  V30 25 H -1.57609 -0.99131 2.3502 0
M  V30 26 H -2.75601 0.225641 2.87652 0
M  V30 27 H -3.50575 0.175223 -0.343289 0
M  V30 28 H -2.64424 1.763 -0.751626 0
M  V30 29 H -3.72757 1.62198 0.673808 0
M  V30 END ATOM
M  V30 BEGIN BOND
M  V30 1 1 1 2
M  V30 2 1 2 3
M  V30 3 1 3 4
M  V30 4 1 4 5
M  V30 5 2 5 6
M  V30 6 1 6 7
M  V30 7 1 7 8
M  V30 8 1 8 9
M  V30 9 1 7 10
M  V30 10 1 6 11
M  V30 11 1 11 12
M  V30 12 1 11 13
M  V30 13 2 8 4
M  V30 14 1 1 14
M  V30 15 1 1 15
M  V30 16 1 1 16
M  V30 17 1 3 17
M  V30 18 1 3 18
M  V30 19 1 9 19
M  V30 20 1 9 20
M  V30 21 1 10 21
M  V30 22 1 10 22
M  V30 23 1 11 23
M  V30 24 1 12 24
M  V30 25 1 12 25
M  V30 26 1 12 26
M  V30 27 1 13 27
M  V30 28 1 13 28
M  V30 29 1 13 29
M  V30 END BOND
M  V30 END CTAB
M  END
