
     RDKit          3D

  0  0  0  0  0  0  0  0  0  0999 V3000
M  V30 BEGIN CTAB
M  V30 COUNTS 30 31 0 0 0
M  V30 BEGIN ATOM
M  V30 1 N 1.9996 -1.98379 -1.42843 0
M  V30 2 C 2.01973 -0.704107 -0.795194 0
M  V30 3 N 0.898989 -0.0187224 -0.546823 0
M  V30 4 C 0.816035 1.17529 0.0358328 0
M  V30 5 N -0.367642 1.89937 0.298653 0
M  V30 6 C -1.70812 1.51306 0.0321852 0
M  V30 7 C -2.26228 0.398824 0.83666 0
M  V30 8 C -3.72637 0.0540583 0.489734 0
M  V30 9 C -3.37738 -1.35578 0.9106 0
M  V30 10 C -1.95562 -1.01903 0.426886 0
M  V30 11 C 2.04999 1.73187 0.409518 0
M  V30 12 C 3.24081 1.08519 0.18587 0
M  V30 13 C 3.22617 -0.154735 -0.427272 0
M  V30 14 N 4.41542 -0.880169 -0.689914 0
M  V30 15 H 2.58316 -2.21648 -2.23708 0
M  V30 16 H 1.36562 -2.72751 -1.06151 0
M  V30 17 H -0.243055 2.85795 0.755866 0
M  V30 18 H -1.77484 1.17953 -1.05197 0
M  V30 19 H -2.4 2.39206 0.0869859 0
M  V30 20 H -2.12294 0.499805 1.93489 0
M  V30 21 H -3.84799 0.129467 -0.612098 0
M  V30 22 H -4.46463 0.574172 1.10586 0
M  V30 23 H -3.85812 -2.16432 0.357169 0
M  V30 24 H -3.40118 -1.47248 2.01439 0
M  V30 25 H -1.92013 -1.16151 -0.672301 0
M  V30 26 H -1.17532 -1.54504 1.01368 0
M  V30 27 H 2.09221 2.69116 0.886364 0
M  V30 28 H 4.2001 1.51258 0.473762 0
M  V30 29 H 5.26044 -0.743613 -0.0966991 0
M  V30 30 H 4.43733 -1.54711 -1.47647 0
M  V30 END ATOM
M  V30 BEGIN BOND
M  V30 1 1 1 2
M  V30 2 2 2 3
M  V30 3 1 3 4
M  V30 4 1 4 5
M  V30 5 1 5 6
M  V30 6 1 6 7
M  V30 7 1 7 8
M  V30 8 1 8 9
M  V30 9 1 9 10
M  V30 10 2 4 11
M  V30 11 1 11 12
M  V30 12 2 12 13
M  V30 13 1 13 14
M  V30 14 1 13 2
M  V30 15 1 10 7
M  V30 16 1 1 15
M  V30 17 1 1 16
M  V30 18 1 5 17
M  V30 19 1 6 18
M  V30 20 1 6 19
M  V30 21 1 7 20
M  V30 22 1 8 21
M  V30 23 1 8 22
M  V30 24 1 9 23
M  V30 25 1 9 24
M  V30 26 1 10 25
M  V30 27 1 10 26
M  V30 28 1 11 27
M  V30 29 1 12 28
M  V30 30 1 14 29
M  V30 31 1 14 30
M  V30 END BOND
M  V30 END CTAB
M  END
