
     RDKit          3D

  0  0  0  0  0  0  0  0  0  0999 V3000
M  V30 BEGIN CTAB
M  V30 COUNTS 19 19 0 0 0
M  V30 BEGIN ATOM
M  V30 1 N -2.21932 -1.9029 0.0471167 0
M  V30 2 C -1.21533 -0.904965 0.0211333 0
M  V30 3 C -1.50902 0.440968 0.0296858 0
M  V30 4 C -0.524138 1.40632 0.00418208 0
M  V30 5 N -0.841831 2.79321 0.0134032 0
M  V30 6 C 0.792998 0.947792 -0.0309324 0
M  V30 7 C 1.12105 -0.369399 -0.0403727 0
M  V30 8 C 0.118076 -1.31582 -0.014386 0
M  V30 9 C 2.54405 -0.828377 -0.0782802 0
M  V30 10 F 3.1714 -0.321156 1.06048 0
M  V30 11 F 2.61496 -2.19575 -0.059632 0
M  V30 12 F 3.21037 -0.331496 -1.16801 0
M  V30 13 Cl 2.05241 2.15944 -0.0635503 0
M  V30 14 H -3.11858 -1.76196 -0.44223 0
M  V30 15 H -2.06551 -2.79189 0.559285 0
M  V30 16 H -2.54261 0.745094 0.0572133 0
M  V30 17 H -0.994463 3.36721 -0.833875 0
M  V30 18 H -0.920923 3.24075 0.959278 0
M  V30 19 H 0.326406 -2.37706 -0.0205111 0
M  V30 END ATOM
M  V30 BEGIN BOND
M  V30 1 1 1 2
M  V30 2 2 2 3
M  V30 3 1 3 4
M  V30 4 1 4 5
M  V30 5 2 4 6
M  V30 6 1 6 7
M  V30 7 2 7 8
M  V30 8 1 7 9
M  V30 9 1 9 10
M  V30 10 1 9 11
M  V30 11 1 9 12
M  V30 12 1 6 13
M  V30 13 1 8 2
M  V30 14 1 1 14
M  V30 15 1 1 15
M  V30 16 1 3 16
M  V30 17 1 5 17
M  V30 18 1 5 18
M  V30 19 1 8 19
M  V30 END BOND
M  V30 END CTAB
M  END
