
     RDKit          3D

  0  0  0  0  0  0  0  0  0  0999 V3000
M  V30 BEGIN CTAB
M  V30 COUNTS 39 40 0 0 0
M  V30 BEGIN ATOM
M  V30 1 O -6.31805 1.0042 0.0093544 0
M  V30 2 C -4.95924 0.717979 -0.249295 0
M  V30 3 C -4.20618 0.548172 1.047 0
M  V30 4 N -2.83423 0.259793 0.752974 0
M  V30 5 C -2.02169 0.107104 1.94212 0
M  V30 6 C -0.559848 0.12569 1.45281 0
M  V30 7 N -0.356871 -0.873595 0.465288 0
M  V30 8 C -1.55603 -1.77621 0.299872 0
M  V30 9 C -2.68003 -0.877842 -0.13494 0
M  V30 10 C 0.757566 -1.10027 -0.312028 0
M  V30 11 O 0.626954 -2.11483 -1.16128 0
M  V30 12 C 2.02898 -0.43865 -0.369022 0
M  V30 13 C 2.41159 0.585601 0.449474 0
M  V30 14 C 3.67206 1.21818 0.344338 0
M  V30 15 C 4.54245 0.784856 -0.616673 0
M  V30 16 C 4.19048 -0.246616 -1.46009 0
M  V30 17 C 2.96746 -0.859858 -1.35785 0
M  V30 18 N 5.14184 -0.649571 -2.43734 0
M  V30 19 N 5.80859 1.3919 -0.751447 0
M  V30 20 H -6.34259 1.96056 0.301067 0
M  V30 21 H -4.59338 1.6105 -0.821401 0
M  V30 22 H -4.85835 -0.136629 -0.930625 0
M  V30 23 H -4.33061 1.47967 1.63595 0
M  V30 24 H -4.70067 -0.250262 1.64458 0
M  V30 25 H -2.13629 1.0182 2.56211 0
M  V30 26 H -2.23176 -0.784324 2.5288 0
M  V30 27 H -0.423518 1.15686 1.06131 0
M  V30 28 H 0.106369 -0.0574354 2.31295 0
M  V30 29 H -1.34859 -2.46954 -0.538592 0
M  V30 30 H -1.79102 -2.27782 1.23404 0
M  V30 31 H -2.43213 -0.481463 -1.13667 0
M  V30 32 H -3.58748 -1.51671 -0.180829 0
M  V30 33 H 1.79978 0.970609 1.22292 0
M  V30 34 H 3.92063 2.01932 1.01418 0
M  V30 35 H 2.6959 -1.66342 -2.01733 0
M  V30 36 H 5.13007 -1.60889 -2.83611 0
M  V30 37 H 5.86732 0.0083803 -2.77127 0
M  V30 38 H 6.65016 0.787097 -0.787176 0
M  V30 39 H 5.95037 2.42926 -0.818334 0
M  V30 END ATOM
M  V30 BEGIN BOND
M  V30 1 1 1 2
M  V30 2 1 2 3
M  V30 3 1 3 4
M  V30 4 1 4 5
M  V30 5 1 5 6
M  V30 6 1 6 7
M  V30 7 1 7 8
M  V30 8 1 8 9
M  V30 9 1 7 10
M  V30 10 2 10 11
M  V30 11 1 10 12
M  V30 12 2 12 13
M  V30 13 1 13 14
M  V30 14 2 14 15
M  V30 15 1 15 16
M  V30 16 2 16 17
M  V30 17 1 16 18
M  V30 18 1 15 19
M  V30 19 1 9 4
M  V30 20 1 17 12
M  V30 21 1 1 20
M  V30 22 1 2 21
M  V30 23 1 2 22
M  V30 24 1 3 23
M  V30 25 1 3 24
M  V30 26 1 5 25
M  V30 27 1 5 26
M  V30 28 1 6 27
M  V30 29 1 6 28
M  V30 30 1 8 29
M  V30 31 1 8 30
M  V30 32 1 9 31
M  V30 33 1 9 32
M  V30 34 1 13 33
M  V30 35 1 14 34
M  V30 36 1 17 35
M  V30 37 1 18 36
M  V30 38 1 18 37
M  V30 39 1 19 38
M  V30 40 1 19 39
M  V30 END BOND
M  V30 END CTAB
M  END
