
     RDKit          3D

  0  0  0  0  0  0  0  0  0  0999 V3000
M  V30 BEGIN CTAB
M  V30 COUNTS 122 123 0 0 0
M  V30 BEGIN ATOM
M  V30 1 C 7.1246 -4.9216 -0.132772 0
M  V30 2 C 6.56129 -3.51815 -0.0498778 0
M  V30 3 C 5.42129 -3.40004 -1.0542 0 CFG=2
M  V30 4 C 6.01242 -3.66558 -2.4175 0
M  V30 5 C 4.73916 -2.09749 -0.932798 0 CFG=2
M  V30 6 N 3.62902 -1.91697 -1.87041 0
M  V30 7 C 2.52152 -1.1349 -1.5612 0
M  V30 8 O 2.55832 -0.565845 -0.399416 0
M  V30 9 C 1.36391 -0.920638 -2.40509 0 CFG=2
M  V30 10 C 1.6086 -0.193388 -3.67356 0
M  V30 11 C 2.52867 -0.771913 -4.65326 0
M  V30 12 C 2.14409 -1.75801 -5.59118 0
M  V30 13 N 3.2225 -1.98251 -6.33208 0
M  V30 14 C 4.24585 -1.1902 -5.90074 0
M  V30 15 N 3.79867 -0.454772 -4.86933 0
M  V30 16 N 0.35806 -0.0930299 -1.6724 0
M  V30 17 C -0.792985 -0.656737 -1.1376 0
M  V30 18 O -0.909494 -1.93702 -1.35066 0
M  V30 19 C -1.88744 -0.0564245 -0.379414 0 CFG=2
M  V30 20 C -1.53448 0.46518 0.980611 0
M  V30 21 C -0.479491 1.51188 0.977412 0
M  V30 22 S -0.171576 2.03521 2.73431 0
M  V30 23 C 0.469047 0.576352 3.63196 0
M  V30 24 N -2.92727 -1.11761 -0.138811 0
M  V30 25 C -4.22829 -1.07457 -0.617844 0
M  V30 26 O -4.61549 -0.123031 -1.31134 0
M  V30 27 C -5.17334 -2.18329 -0.289496 0 CFG=2
M  V30 28 C -4.85429 -3.33853 -1.24598 0
M  V30 29 C -6.21625 -3.70792 -1.81468 0
M  V30 30 C -7.15066 -3.28298 -0.70129 0
M  V30 31 N -6.53814 -1.97906 -0.325131 0
M  V30 32 C -7.39111 -0.912646 -0.0159937 0
M  V30 33 O -8.65121 -1.1804 -0.280367 0
M  V30 34 C -7.21975 0.412014 0.533207 0 CFG=2
M  V30 35 C -6.47638 0.544133 1.82301 0
M  V30 36 C -7.00318 -0.14906 3.01388 0
M  V30 37 C -6.01013 0.181452 4.15121 0
M  V30 38 C -8.33973 0.295093 3.51502 0
M  V30 39 N -8.53735 1.09944 0.66081 0
M  V30 40 C -8.71061 2.44637 0.317483 0
M  V30 41 O -7.78271 3.18224 -0.111836 0
M  V30 42 C -10.0846 3.03022 0.480507 0 CFG=2
M  V30 43 C -10.123 3.96284 1.68859 0
M  V30 44 N -11.0475 1.96243 0.767251 0
M  V30 45 C 5.64144 -0.900629 -0.892369 0
M  V30 46 O 5.9365 -0.287349 -1.94677 0
M  V30 47 N 6.16179 -0.448316 0.33677 0
M  V30 48 C 7.04585 0.695447 0.543313 0 CFG=1
M  V30 49 C 6.21114 1.79973 1.08073 0
M  V30 50 C 6.83161 3.11582 1.34025 0
M  V30 51 C 7.41671 3.76031 0.10207 0
M  V30 52 N 7.95695 5.0718 0.314232 0
M  V30 53 C 9.10723 5.40249 1.06743 0
M  V30 54 N 9.92087 4.39685 1.63765 0
M  V30 55 N 9.45276 6.64865 1.24808 0
M  V30 56 C 8.18247 0.285916 1.37388 0
M  V30 57 O 8.97175 1.1822 2.13303 0
M  V30 58 O 8.54916 -0.904947 1.48136 0
M  V30 59 H 6.48613 -5.55216 -0.7898 0
M  V30 60 H 7.25782 -5.32127 0.872445 0
M  V30 61 H 8.12273 -4.90648 -0.613948 0
M  V30 62 H 6.24008 -3.28941 0.973361 0
M  V30 63 H 7.38114 -2.79672 -0.325517 0
M  V30 64 H 4.74248 -4.26127 -0.835216 0
M  V30 65 H 5.63201 -2.89279 -3.11461 0
M  V30 66 H 5.86392 -4.69475 -2.77048 0
M  V30 67 H 7.10634 -3.48049 -2.35024 0
M  V30 68 H 4.22777 -2.04722 0.0762718 0
M  V30 69 H 3.71736 -2.42838 -2.76013 0
M  V30 70 H 0.863742 -1.89838 -2.63128 0
M  V30 71 H 1.98851 0.857071 -3.48577 0
M  V30 72 H 0.613335 0.02726 -4.2039 0
M  V30 73 H 1.15526 -2.19523 -5.64096 0
M  V30 74 H 5.23966 -1.16091 -6.31439 0
M  V30 75 H 4.35258 0.264512 -4.30915 0
M  V30 76 H 0.578893 0.908385 -1.61866 0
M  V30 77 H -2.37042 0.73098 -0.960494 0
M  V30 78 H -2.46282 0.960404 1.37061 0
M  V30 79 H -1.21644 -0.355826 1.67456 0
M  V30 80 H -0.803291 2.40529 0.412553 0
M  V30 81 H 0.510209 1.20302 0.620671 0
M  V30 82 H 1.33728 0.794556 4.25294 0
M  V30 83 H -0.371212 0.193434 4.23511 0
M  V30 84 H 0.754719 -0.224626 2.9068 0
M  V30 85 H -2.61213 -1.92455 0.434681 0
M  V30 86 H -4.90407 -2.61106 0.721903 0
M  V30 87 H -4.18664 -2.95209 -2.04874 0
M  V30 88 H -4.37252 -4.19055 -0.73817 0
M  V30 89 H -6.44199 -3.13734 -2.75305 0
M  V30 90 H -6.29704 -4.76954 -2.06466 0
M  V30 91 H -8.18981 -3.19238 -1.0079 0
M  V30 92 H -6.95541 -3.99622 0.13077 0
M  V30 93 H -6.69617 1.07825 -0.17457 0
M  V30 94 H -5.42471 0.357527 1.69464 0
M  V30 95 H -6.53744 1.66384 2.06328 0
M  V30 96 H -7.00484 -1.24847 2.97234 0
M  V30 97 H -5.67338 1.24357 3.97224 0
M  V30 98 H -6.49732 0.155469 5.12121 0
M  V30 99 H -5.09278 -0.426974 4.06597 0
M  V30 100 H -8.55382 1.35988 3.32434 0
M  V30 101 H -9.188 -0.374421 3.20334 0
M  V30 102 H -8.33491 0.179826 4.63058 0
M  V30 103 H -9.31745 0.533506 1.01031 0
M  V30 104 H -10.4375 3.55847 -0.414036 0
M  V30 105 H -10.261 5.00592 1.36859 0
M  V30 106 H -10.9919 3.72696 2.3545 0
M  V30 107 H -9.21082 3.86254 2.30361 0
M  V30 108 H -12.0029 2.37093 0.779342 0
M  V30 109 H -10.8488 1.70961 1.78226 0
M  V30 110 H 5.90388 -0.958432 1.21534 0
M  V30 111 H 7.40255 0.968846 -0.466194 0
M  V30 112 H 5.35791 1.98169 0.358722 0
M  V30 113 H 5.67659 1.49731 2.02207 0
M  V30 114 H 7.54582 3.16885 2.1654 0
M  V30 115 H 5.99269 3.81279 1.65047 0
M  V30 116 H 8.26243 3.10917 -0.258463 0
M  V30 117 H 6.69831 3.74807 -0.74483 0
M  V30 118 H 7.41121 5.86176 -0.158203 0
M  V30 119 H 10.2002 3.56223 1.0708 0
M  V30 120 H 10.2568 4.45888 2.62383 0
M  V30 121 H 8.81591 7.35535 0.794286 0
M  V30 122 H 8.72439 1.37327 3.09861 0
M  V30 END ATOM
M  V30 BEGIN BOND
M  V30 1 1 1 2
M  V30 2 1 2 3
M  V30 3 1 3 4
M  V30 4 1 3 5
M  V30 5 1 5 6
M  V30 6 1 6 7
M  V30 7 2 7 8
M  V30 8 1 7 9
M  V30 9 1 9 10
M  V30 10 1 10 11
M  V30 11 2 11 12
M  V30 12 1 12 13
M  V30 13 2 13 14
M  V30 14 1 14 15
M  V30 15 1 9 16
M  V30 16 1 16 17
M  V30 17 2 17 18
M  V30 18 1 17 19
M  V30 19 1 19 20
M  V30 20 1 20 21
M  V30 21 1 21 22
M  V30 22 1 22 23
M  V30 23 1 19 24
M  V30 24 1 24 25
M  V30 25 2 25 26
M  V30 26 1 25 27
M  V30 27 1 27 28
M  V30 28 1 28 29
M  V30 29 1 29 30
M  V30 30 1 30 31
M  V30 31 1 31 32
M  V30 32 2 32 33
M  V30 33 1 32 34
M  V30 34 1 34 35
M  V30 35 1 35 36
M  V30 36 1 36 37
M  V30 37 1 36 38
M  V30 38 1 34 39
M  V30 39 1 39 40
M  V30 40 2 40 41
M  V30 41 1 40 42
M  V30 42 1 42 43
M  V30 43 1 42 44
M  V30 44 1 5 45
M  V30 45 2 45 46
M  V30 46 1 45 47
M  V30 47 1 47 48
M  V30 48 1 48 49
M  V30 49 1 49 50
M  V30 50 1 50 51
M  V30 51 1 51 52
M  V30 52 1 52 53
M  V30 53 1 53 54
M  V30 54 2 53 55 CFG=2
M  V30 55 1 48 56
M  V30 56 1 56 57
M  V30 57 2 56 58
M  V30 58 1 15 11
M  V30 59 1 31 27
M  V30 60 1 1 59
M  V30 61 1 1 60
M  V30 62 1 1 61
M  V30 63 1 2 62
M  V30 64 1 2 63
M  V30 65 1 3 64 CFG=1
M  V30 66 1 4 65
M  V30 67 1 4 66
M  V30 68 1 4 67
M  V30 69 1 5 68 CFG=1
M  V30 70 1 6 69
M  V30 71 1 9 70 CFG=3
M  V30 72 1 10 71
M  V30 73 1 10 72
M  V30 74 1 12 73
M  V30 75 1 14 74
M  V30 76 1 15 75
M  V30 77 1 16 76
M  V30 78 1 19 77 CFG=3
M  V30 79 1 20 78
M  V30 80 1 20 79
M  V30 81 1 21 80
M  V30 82 1 21 81
M  V30 83 1 23 82
M  V30 84 1 23 83
M  V30 85 1 23 84
M  V30 86 1 24 85
M  V30 87 1 27 86 CFG=1
M  V30 88 1 28 87
M  V30 89 1 28 88
M  V30 90 1 29 89
M  V30 91 1 29 90
M  V30 92 1 30 91
M  V30 93 1 30 92
M  V30 94 1 34 93 CFG=3
M  V30 95 1 35 94
M  V30 96 1 35 95
M  V30 97 1 36 96
M  V30 98 1 37 97
M  V30 99 1 37 98
M  V30 100 1 37 99
M  V30 101 1 38 100
M  V30 102 1 38 101
M  V30 103 1 38 102
M  V30 104 1 39 103
M  V30 105 1 42 104 CFG=3
M  V30 106 1 43 105
M  V30 107 1 43 106
M  V30 108 1 43 107
M  V30 109 1 44 108
M  V30 110 1 44 109
M  V30 111 1 47 110
M  V30 112 1 48 111 CFG=3
M  V30 113 1 49 112
M  V30 114 1 49 113
M  V30 115 1 50 114
M  V30 116 1 50 115
M  V30 117 1 51 116
M  V30 118 1 51 117
M  V30 119 1 52 118
M  V30 120 1 54 119
M  V30 121 1 54 120
M  V30 122 1 55 121
M  V30 123 1 57 122
M  V30 END BOND
M  V30 END CTAB
M  END
