
     RDKit          3D

  0  0  0  0  0  0  0  0  0  0999 V3000
M  V30 BEGIN CTAB
M  V30 COUNTS 22 22 0 0 0
M  V30 BEGIN ATOM
M  V30 1 C 1.20575 2.04802 0.274818 0
M  V30 2 C 0.106579 1.03972 0.203479 0
M  V30 3 C -1.14365 1.29889 0.729485 0
M  V30 4 C -2.15783 0.368772 0.663716 0
M  V30 5 Cl -3.70717 0.7979 1.36218 0
M  V30 6 C -1.98286 -0.864509 0.0731789 0
M  V30 7 C -0.728854 -1.1113 -0.448727 0
M  V30 8 C 0.291939 -0.189763 -0.38886 0
M  V30 9 S 1.86376 -0.559295 -1.06888 0
M  V30 10 O 2.23138 0.466574 -2.09733 0
M  V30 11 O 1.84108 -1.9392 -1.6611 0
M  V30 12 N 3.1109 -0.499894 0.125686 0
M  V30 13 N -3.03514 -1.8303 0.00466526 0
M  V30 14 H 2.04337 1.72835 0.903207 0
M  V30 15 H 1.52884 2.39009 -0.729431 0
M  V30 16 H 0.780682 2.96037 0.768789 0
M  V30 17 H -1.2767 2.27558 1.19533 0
M  V30 18 H -0.573774 -2.09343 -0.924215 0
M  V30 19 H 3.77368 -1.28907 -0.0272895 0
M  V30 20 H 2.65306 -0.589306 1.07449 0
M  V30 21 H -2.79729 -2.81739 0.165969 0
M  V30 22 H -4.02775 -1.5908 -0.199157 0
M  V30 END ATOM
M  V30 BEGIN BOND
M  V30 1 1 1 2
M  V30 2 2 2 3
M  V30 3 1 3 4
M  V30 4 1 4 5
M  V30 5 2 4 6
M  V30 6 1 6 7
M  V30 7 2 7 8
M  V30 8 1 8 9
M  V30 9 2 9 10
M  V30 10 2 9 11
M  V30 11 1 9 12
M  V30 12 1 6 13
M  V30 13 1 8 2
M  V30 14 1 1 14
M  V30 15 1 1 15
M  V30 16 1 1 16
M  V30 17 1 3 17
M  V30 18 1 7 18
M  V30 19 1 12 19
M  V30 20 1 12 20
M  V30 21 1 13 21
M  V30 22 1 13 22
M  V30 END BOND
M  V30 END CTAB
M  END
