
     RDKit          3D

  0  0  0  0  0  0  0  0  0  0999 V3000
M  V30 BEGIN CTAB
M  V30 COUNTS 30 30 0 0 0
M  V30 BEGIN ATOM
M  V30 1 O -4.16153 1.65298 0.266975 0
M  V30 2 C -3.20625 0.924489 0.916136 0
M  V30 3 O -3.12719 1.04318 2.16893 0
M  V30 4 C -2.30927 0.0338209 0.141258 0
M  V30 5 C -0.898149 0.493498 0.419429 0
M  V30 6 C 0.123861 -0.308575 -0.296366 0
M  V30 7 O -0.154475 -1.26105 -1.05659 0
M  V30 8 C 1.51949 0.0388891 -0.0969303 0
M  V30 9 C 1.89184 1.08906 0.737235 0
M  V30 10 C 3.20486 1.45021 0.952785 0
M  V30 11 C 4.16838 0.713228 0.293684 0
M  V30 12 C 3.80554 -0.329154 -0.53469 0
M  V30 13 C 2.4913 -0.687812 -0.748141 0
M  V30 14 N 2.17269 -1.77654 -1.61697 0
M  V30 15 N -2.6619 0.132548 -1.23748 0
M  V30 16 C -2.54955 -1.37573 0.639055 0
M  V30 17 H -4.22292 1.82538 -0.719335 0
M  V30 18 H -0.763799 0.461844 1.52042 0
M  V30 19 H -0.811844 1.53997 0.102631 0
M  V30 20 H 1.13524 1.68461 1.26851 0
M  V30 21 H 3.49058 2.26815 1.60278 0
M  V30 22 H 5.20953 0.97004 0.440493 0
M  V30 23 H 4.55839 -0.922906 -1.0643 0
M  V30 24 H 2.30246 -2.753 -1.2722 0
M  V30 25 H 1.81902 -1.58971 -2.57243 0
M  V30 26 H -3.15419 -0.698398 -1.61292 0
M  V30 27 H -1.95101 0.542797 -1.8491 0
M  V30 28 H -1.64304 -1.96894 0.764962 0
M  V30 29 H -3.25255 -1.85281 -0.0574057 0
M  V30 30 H -3.02554 -1.34008 1.66186 0
M  V30 END ATOM
M  V30 BEGIN BOND
M  V30 1 1 1 2
M  V30 2 2 2 3
M  V30 3 1 2 4
M  V30 4 1 4 5
M  V30 5 1 5 6
M  V30 6 2 6 7
M  V30 7 1 6 8
M  V30 8 2 8 9
M  V30 9 1 9 10
M  V30 10 2 10 11
M  V30 11 1 11 12
M  V30 12 2 12 13
M  V30 13 1 13 14
M  V30 14 1 4 15
M  V30 15 1 4 16
M  V30 16 1 13 8
M  V30 17 1 1 17
M  V30 18 1 5 18
M  V30 19 1 5 19
M  V30 20 1 9 20
M  V30 21 1 10 21
M  V30 22 1 11 22
M  V30 23 1 12 23
M  V30 24 1 14 24
M  V30 25 1 14 25
M  V30 26 1 15 26
M  V30 27 1 15 27
M  V30 28 1 16 28
M  V30 29 1 16 29
M  V30 30 1 16 30
M  V30 END BOND
M  V30 END CTAB
M  END
