
     RDKit          3D

  0  0  0  0  0  0  0  0  0  0999 V3000
M  V30 BEGIN CTAB
M  V30 COUNTS 43 45 0 0 0
M  V30 BEGIN ATOM
M  V30 1 C -2.72891 -1.70198 -1.34318 0
M  V30 2 C -3.51309 -1.1768 -0.186651 0
M  V30 3 N -2.86346 -0.0977794 0.489875 0
M  V30 4 C -1.56504 0.315215 0.19128 0
M  V30 5 N -1.40961 1.48009 -0.458939 0
M  V30 6 C -0.18187 1.9217 -0.790723 0
M  V30 7 N -0.00593828 3.15593 -1.48038 0
M  V30 8 C 0.923362 1.17058 -0.460792 0
M  V30 9 C 0.775062 -0.0521515 0.220693 0
M  V30 10 C -0.467445 -0.478279 0.545971 0
M  V30 11 C -0.702449 -1.69965 1.26056 0
M  V30 12 N -0.951973 -2.6921 1.85577 0
M  V30 13 C 1.88653 -0.828991 0.559546 0
M  V30 14 C 2.10332 -2.10611 1.23711 0
M  V30 15 C 3.58508 -2.29848 1.21958 0
M  V30 16 O 4.16911 -3.28907 1.70681 0
M  V30 17 N 4.16319 -1.20138 0.578944 0
M  V30 18 C 3.12501 -0.310947 0.179187 0
M  V30 19 N 3.22715 0.857678 -0.468681 0
M  V30 20 C 2.16437 1.61392 -0.799871 0
M  V30 21 N 2.33274 2.84642 -1.48441 0
M  V30 22 C 5.58198 -0.935628 0.323362 0
M  V30 23 C -3.58325 0.597459 1.56568 0
M  V30 24 C -4.7261 1.34907 0.880471 0
M  V30 25 H -1.8869 -1.04938 -1.58801 0
M  V30 26 H -2.39941 -2.74517 -1.13289 0
M  V30 27 H -3.42495 -1.79992 -2.22434 0
M  V30 28 H -3.68119 -1.99767 0.562679 0
M  V30 29 H -4.48398 -0.784445 -0.560958 0
M  V30 30 H 3.96012e-05 3.20782 -2.5226 0
M  V30 31 H 0.113344 4.05073 -0.93149 0
M  V30 32 H 1.86589 -2.09825 2.33084 0
M  V30 33 H 1.70576 -2.98676 0.692328 0
M  V30 34 H 2.45367 3.71349 -0.941991 0
M  V30 35 H 2.34341 2.86595 -2.51178 0
M  V30 36 H 6.02343 -0.415739 1.21268 0
M  V30 37 H 6.13652 -1.85195 0.038434 0
M  V30 38 H 5.65493 -0.238832 -0.525937 0
M  V30 39 H -2.92616 1.29392 2.11507 0
M  V30 40 H -3.93021 -0.168238 2.26354 0
M  V30 41 H -5.54691 0.633676 0.715772 0
M  V30 42 H -4.3217 1.68537 -0.114086 0
M  V30 43 H -5.03337 2.24669 1.46708 0
M  V30 END ATOM
M  V30 BEGIN BOND
M  V30 1 1 1 2
M  V30 2 1 2 3
M  V30 3 1 3 4
M  V30 4 2 4 5
M  V30 5 1 5 6
M  V30 6 1 6 7
M  V30 7 2 6 8
M  V30 8 1 8 9
M  V30 9 2 9 10
M  V30 10 1 10 11
M  V30 11 3 11 12
M  V30 12 1 9 13
M  V30 13 1 13 14
M  V30 14 1 14 15
M  V30 15 2 15 16
M  V30 16 1 15 17
M  V30 17 1 17 18
M  V30 18 1 18 19
M  V30 19 2 19 20
M  V30 20 1 20 21
M  V30 21 1 17 22
M  V30 22 1 3 23
M  V30 23 1 23 24
M  V30 24 1 10 4
M  V30 25 2 18 13
M  V30 26 1 20 8
M  V30 27 1 1 25
M  V30 28 1 1 26
M  V30 29 1 1 27
M  V30 30 1 2 28
M  V30 31 1 2 29
M  V30 32 1 7 30
M  V30 33 1 7 31
M  V30 34 1 14 32
M  V30 35 1 14 33
M  V30 36 1 21 34
M  V30 37 1 21 35
M  V30 38 1 22 36
M  V30 39 1 22 37
M  V30 40 1 22 38
M  V30 41 1 23 39
M  V30 42 1 23 40
M  V30 43 1 24 41
M  V30 44 1 24 42
M  V30 45 1 24 43
M  V30 END BOND
M  V30 END CTAB
M  END
