
     RDKit          3D

  0  0  0  0  0  0  0  0  0  0999 V3000
M  V30 BEGIN CTAB
M  V30 COUNTS 34 35 0 0 0
M  V30 BEGIN ATOM
M  V30 1 C -0.140786 2.15538 0.850976 0
M  V30 2 C -0.546967 1.44292 -0.441154 0
M  V30 3 C -0.133002 0.0219227 -0.409599 0
M  V30 4 C 1.13749 -0.451931 -0.591128 0
M  V30 5 C 1.04462 -1.82453 -0.476666 0
M  V30 6 N -0.247651 -2.12015 -0.236118 0
M  V30 7 N -0.97975 -1.01539 -0.19133 0
M  V30 8 C -2.3755 -0.865294 0.0347031 0
M  V30 9 C -3.33705 -1.01089 -0.943439 0
M  V30 10 C -4.68126 -0.860145 -0.697525 0
M  V30 11 C -5.11416 -0.549807 0.573805 0
M  V30 12 C -4.1812 -0.398272 1.56961 0
M  V30 13 C -2.81588 -0.554977 1.30348 0
M  V30 14 C 2.33907 0.32901 -0.851455 0
M  V30 15 O 2.32102 1.58085 -0.939494 0
M  V30 16 N 3.58456 -0.328627 -1.01454 0
M  V30 17 C 4.49668 -0.14519 -0.134709 0
M  V30 18 N 4.26328 0.691026 0.967111 0
M  V30 19 N 5.75153 -0.794196 -0.278654 0
M  V30 20 H 0.585751 1.51009 1.39017 0
M  V30 21 H 0.375631 3.11125 0.645916 0
M  V30 22 H -1.03518 2.30057 1.49579 0
M  V30 23 H -1.6401 1.55608 -0.572148 0
M  V30 24 H -0.0834025 1.93342 -1.31945 0
M  V30 25 H 1.87456 -2.51157 -0.568077 0
M  V30 26 H -2.99834 -1.25419 -1.94041 0
M  V30 27 H -5.44374 -0.971751 -1.45554 0
M  V30 28 H -6.18407 -0.425601 0.788799 0
M  V30 29 H -4.54089 -0.156498 2.55254 0
M  V30 30 H -2.1325 -0.428095 2.10528 0
M  V30 31 H 3.31823 0.941496 1.3302 0
M  V30 32 H 5.08981 1.10943 1.48281 0
M  V30 33 H 5.90629 -1.76461 0.0312522 0
M  V30 34 H 6.5229 -0.251751 -0.713587 0
M  V30 END ATOM
M  V30 BEGIN BOND
M  V30 1 1 1 2
M  V30 2 1 2 3
M  V30 3 2 3 4
M  V30 4 1 4 5
M  V30 5 2 5 6
M  V30 6 1 6 7
M  V30 7 1 7 8
M  V30 8 2 8 9
M  V30 9 1 9 10
M  V30 10 2 10 11
M  V30 11 1 11 12
M  V30 12 2 12 13
M  V30 13 1 4 14
M  V30 14 2 14 15
M  V30 15 1 14 16
M  V30 16 2 16 17
M  V30 17 1 17 18
M  V30 18 1 17 19
M  V30 19 1 7 3
M  V30 20 1 13 8
M  V30 21 1 1 20
M  V30 22 1 1 21
M  V30 23 1 1 22
M  V30 24 1 2 23
M  V30 25 1 2 24
M  V30 26 1 5 25
M  V30 27 1 9 26
M  V30 28 1 10 27
M  V30 29 1 11 28
M  V30 30 1 12 29
M  V30 31 1 13 30
M  V30 32 1 18 31
M  V30 33 1 18 32
M  V30 34 1 19 33
M  V30 35 1 19 34
M  V30 END BOND
M  V30 END CTAB
M  END
