
     RDKit          3D

  0  0  0  0  0  0  0  0  0  0999 V3000
M  V30 BEGIN CTAB
M  V30 COUNTS 31 32 0 0 0
M  V30 BEGIN ATOM
M  V30 1 N -1.11354 2.43882 1.2433 0
M  V30 2 S 0.0880402 2.80044 0.112487 0
M  V30 3 O -0.457564 3.8616 -0.833917 0
M  V30 4 O 1.30573 3.34331 0.753297 0
M  V30 5 C 0.431711 1.37688 -0.932082 0 CFG=2
M  V30 6 C -0.837245 1.08679 -1.65995 0
M  V30 7 C -1.00572 -0.36865 -2.01685 0
M  V30 8 C -1.07393 -1.12397 -0.738092 0
M  V30 9 C -0.111563 -0.773193 0.217505 0
M  V30 10 N 0.853988 0.264266 -0.0639283 0
M  V30 11 S 2.41095 0.125192 0.603748 0
M  V30 12 O 3.20436 1.30897 0.0206874 0
M  V30 13 O 2.52333 0.319393 2.06348 0
M  V30 14 N 3.26073 -1.25457 0.000864314 0
M  V30 15 C -0.101084 -1.42343 1.41254 0
M  V30 16 C -1.01737 -2.43071 1.72377 0
M  V30 17 C -1.94491 -2.73956 0.750831 0
M  V30 18 C -1.97827 -2.09672 -0.469533 0
M  V30 19 H -1.77981 3.13246 1.42662 0
M  V30 20 H -0.901273 1.72929 1.89877 0
M  V30 21 H 1.22095 1.64187 -1.66019 0
M  V30 22 H -1.68967 1.33371 -0.975101 0
M  V30 23 H -0.89322 1.73122 -2.56212 0
M  V30 24 H -0.0932145 -0.694114 -2.58487 0
M  V30 25 H -1.91383 -0.471439 -2.62822 0
M  V30 26 H 4.24413 -1.07651 -0.209304 0
M  V30 27 H 3.07872 -2.11192 0.560447 0
M  V30 28 H 0.647448 -1.14593 2.1344 0
M  V30 29 H -0.967299 -2.91727 2.68819 0
M  V30 30 H -2.67446 -3.51891 0.957994 0
M  V30 31 H -2.71611 -2.34731 -1.23475 0
M  V30 END ATOM
M  V30 BEGIN BOND
M  V30 1 1 1 2
M  V30 2 2 2 3
M  V30 3 2 2 4
M  V30 4 1 2 5
M  V30 5 1 5 6
M  V30 6 1 6 7
M  V30 7 1 7 8
M  V30 8 2 8 9
M  V30 9 1 9 10
M  V30 10 1 10 11
M  V30 11 2 11 12
M  V30 12 2 11 13
M  V30 13 1 11 14
M  V30 14 1 9 15
M  V30 15 2 15 16
M  V30 16 1 16 17
M  V30 17 2 17 18
M  V30 18 1 10 5
M  V30 19 1 18 8
M  V30 20 1 1 19
M  V30 21 1 1 20
M  V30 22 1 5 21 CFG=3
M  V30 23 1 6 22
M  V30 24 1 6 23
M  V30 25 1 7 24
M  V30 26 1 7 25
M  V30 27 1 14 26
M  V30 28 1 14 27
M  V30 29 1 15 28
M  V30 30 1 16 29
M  V30 31 1 17 30
M  V30 32 1 18 31
M  V30 END BOND
M  V30 END CTAB
M  END
