
     RDKit          3D

  0  0  0  0  0  0  0  0  0  0999 V3000
M  V30 BEGIN CTAB
M  V30 COUNTS 103 106 0 0 0
M  V30 BEGIN ATOM
M  V30 1 C -8.47755 -3.82581 -0.604985 0
M  V30 2 C -8.103 -2.40715 -1.00139 0
M  V30 3 C -9.06024 -1.39458 -0.469871 0
M  V30 4 C -6.6986 -2.18882 -0.596795 0
M  V30 5 C -5.69241 -2.26129 -1.53053 0
M  V30 6 C -4.34101 -2.06775 -1.21595 0
M  V30 7 C -3.43499 -2.12397 -2.34933 0
M  V30 8 C -4.09552 -2.93027 -3.48767 0
M  V30 9 C -3.39191 -0.68352 -2.92743 0
M  V30 10 C -3.99675 -1.78896 0.105867 0
M  V30 11 C -4.97658 -1.70538 1.06633 0
M  V30 12 C -6.30621 -1.91075 0.679263 0
M  V30 13 C -4.78062 -1.33376 2.49013 0
M  V30 14 C -5.99421 -1.77384 3.30846 0
M  V30 15 C -4.88997 0.211452 2.51561 0
M  V30 16 S -2.36105 -1.63025 0.578922 0
M  V30 17 O -2.09325 -2.36504 1.91201 0
M  V30 18 O -1.39345 -2.46635 -0.301898 0
M  V30 19 N -1.81769 -0.0478259 0.716949 0
M  V30 20 C -0.731721 0.342978 -0.16703 0 CFG=1
M  V30 21 C -1.0119 1.66061 -0.83677 0
M  V30 22 C -1.18039 2.7637 0.126708 0
M  V30 23 C -2.41415 3.03474 0.658384 0
M  V30 24 C -2.58551 4.08184 1.57125 0
M  V30 25 C -1.52269 4.84735 1.94334 0
M  V30 26 C -0.28261 4.59437 1.42549 0
M  V30 27 C -0.13024 3.54876 0.518307 0
M  V30 28 C 0.834842 5.42914 1.84987 0
M  V30 29 N 0.587742 6.48469 2.80975 0
M  V30 30 N 2.03418 5.29265 1.43321 0
M  V30 31 C 0.532284 0.450144 0.65152 0
M  V30 32 O 0.401953 0.453793 1.89415 0
M  V30 33 N 1.81689 0.540661 0.0911759 0
M  V30 34 C 2.97205 0.723152 0.973392 0
M  V30 35 C 4.1468 1.08393 0.0444355 0
M  V30 36 N 4.32484 -0.0997666 -0.767618 0
M  V30 37 C 3.21758 -0.510064 -1.63549 0
M  V30 38 C 2.03717 0.419794 -1.32659 0
M  V30 39 C 5.51636 -0.850227 -0.732896 0
M  V30 40 O 5.63451 -1.88565 -1.42562 0
M  V30 41 C 6.63051 -0.38126 0.14181 0
M  V30 42 C 7.28824 0.850439 -0.400855 0
M  V30 43 C 8.64736 0.583493 -1.00911 0
M  V30 44 N 9.4679 -0.215368 -0.137296 0
M  V30 45 C 8.8563 -0.924249 0.955588 0
M  V30 46 C 7.56867 -1.52312 0.411404 0
M  V30 47 C 10.8621 -0.318959 -0.333895 0
M  V30 48 N 11.5364 -1.57365 -0.428074 0
M  V30 49 N 11.6109 0.746087 -0.441226 0
M  V30 50 H -7.72507 -4.49594 -1.10052 0
M  V30 51 H -8.38091 -3.98555 0.464776 0
M  V30 52 H -9.45408 -4.08427 -1.0436 0
M  V30 53 H -8.15036 -2.36996 -2.1232 0
M  V30 54 H -8.54552 -0.391257 -0.473218 0
M  V30 55 H -9.89937 -1.29839 -1.18455 0
M  V30 56 H -9.38629 -1.64065 0.542076 0
M  V30 57 H -5.99903 -2.47583 -2.56337 0
M  V30 58 H -2.43045 -2.44606 -2.25134 0
M  V30 59 H -3.28984 -3.36272 -4.13732 0
M  V30 60 H -4.75648 -2.2742 -4.0417 0
M  V30 61 H -4.63789 -3.77931 -3.06925 0
M  V30 62 H -4.18193 -0.544397 -3.69717 0
M  V30 63 H -2.3693 -0.515885 -3.30173 0
M  V30 64 H -3.56725 0.0146692 -2.08865 0
M  V30 65 H -7.11393 -1.84747 1.43204 0
M  V30 66 H -3.85621 -1.54869 2.96045 0
M  V30 67 H -5.72191 -1.77099 4.40828 0
M  V30 68 H -6.33633 -2.77668 2.99902 0
M  V30 69 H -6.84368 -1.07743 3.24423 0
M  V30 70 H -3.9076 0.68175 2.70993 0
M  V30 71 H -5.61456 0.543967 3.30883 0
M  V30 72 H -5.30619 0.602215 1.56837 0
M  V30 73 H -1.61469 0.302786 1.65547 0
M  V30 74 H -0.558455 -0.449471 -0.878586 0
M  V30 75 H -1.91295 1.54395 -1.46783 0
M  V30 76 H -0.184494 1.87495 -1.55963 0
M  V30 77 H -3.2922 2.45452 0.393643 0
M  V30 78 H -3.5559 4.29838 1.99193 0
M  V30 79 H -1.64715 5.67792 2.66156 0
M  V30 80 H 0.850941 3.37356 0.120818 0
M  V30 81 H 0.129041 7.36666 2.519 0
M  V30 82 H 0.862769 6.37854 3.79852 0
M  V30 83 H 2.29388 4.56623 0.754473 0
M  V30 84 H 2.80048 1.49174 1.72862 0
M  V30 85 H 3.14235 -0.281753 1.43175 0
M  V30 86 H 3.78314 1.91439 -0.594725 0
M  V30 87 H 4.95918 1.371 0.682926 0
M  V30 88 H 2.89856 -1.54304 -1.40197 0
M  V30 89 H 3.4402 -0.443072 -2.69734 0
M  V30 90 H 2.242 1.37113 -1.83437 0
M  V30 91 H 1.16227 -0.0360216 -1.8543 0
M  V30 92 H 6.22561 -0.0927453 1.16046 0
M  V30 93 H 7.3858 1.64893 0.346784 0
M  V30 94 H 6.64497 1.2008 -1.25985 0
M  V30 95 H 9.08994 1.57279 -1.25132 0
M  V30 96 H 8.47846 0.0220666 -1.9546 0
M  V30 97 H 8.57328 -0.255312 1.79929 0
M  V30 98 H 9.46474 -1.78294 1.30634 0
M  V30 99 H 7.16483 -2.16191 1.24435 0
M  V30 100 H 7.7046 -2.15611 -0.463287 0
M  V30 101 H 11.9549 -2.02133 0.425769 0
M  V30 102 H 11.5881 -2.01758 -1.37274 0
M  V30 103 H 12.6387 0.697867 -0.585825 0
M  V30 END ATOM
M  V30 BEGIN BOND
M  V30 1 1 1 2
M  V30 2 1 2 3
M  V30 3 1 2 4
M  V30 4 2 4 5
M  V30 5 1 5 6
M  V30 6 1 6 7
M  V30 7 1 7 8
M  V30 8 1 7 9
M  V30 9 2 6 10
M  V30 10 1 10 11
M  V30 11 2 11 12
M  V30 12 1 11 13
M  V30 13 1 13 14
M  V30 14 1 13 15
M  V30 15 1 10 16
M  V30 16 2 16 17
M  V30 17 2 16 18
M  V30 18 1 16 19
M  V30 19 1 19 20
M  V30 20 1 20 21
M  V30 21 1 21 22
M  V30 22 2 22 23
M  V30 23 1 23 24
M  V30 24 2 24 25
M  V30 25 1 25 26
M  V30 26 2 26 27
M  V30 27 1 26 28
M  V30 28 1 28 29
M  V30 29 2 28 30 CFG=2
M  V30 30 1 20 31
M  V30 31 2 31 32
M  V30 32 1 31 33
M  V30 33 1 33 34
M  V30 34 1 34 35
M  V30 35 1 35 36
M  V30 36 1 36 37
M  V30 37 1 37 38
M  V30 38 1 36 39
M  V30 39 2 39 40
M  V30 40 1 39 41
M  V30 41 1 41 42
M  V30 42 1 42 43
M  V30 43 1 43 44
M  V30 44 1 44 45
M  V30 45 1 45 46
M  V30 46 1 44 47
M  V30 47 1 47 48
M  V30 48 2 47 49 CFG=2
M  V30 49 1 12 4
M  V30 50 1 27 22
M  V30 51 1 38 33
M  V30 52 1 46 41
M  V30 53 1 1 50
M  V30 54 1 1 51
M  V30 55 1 1 52
M  V30 56 1 2 53
M  V30 57 1 3 54
M  V30 58 1 3 55
M  V30 59 1 3 56
M  V30 60 1 5 57
M  V30 61 1 7 58
M  V30 62 1 8 59
M  V30 63 1 8 60
M  V30 64 1 8 61
M  V30 65 1 9 62
M  V30 66 1 9 63
M  V30 67 1 9 64
M  V30 68 1 12 65
M  V30 69 1 13 66
M  V30 70 1 14 67
M  V30 71 1 14 68
M  V30 72 1 14 69
M  V30 73 1 15 70
M  V30 74 1 15 71
M  V30 75 1 15 72
M  V30 76 1 19 73
M  V30 77 1 20 74 CFG=3
M  V30 78 1 21 75
M  V30 79 1 21 76
M  V30 80 1 23 77
M  V30 81 1 24 78
M  V30 82 1 25 79
M  V30 83 1 27 80
M  V30 84 1 29 81
M  V30 85 1 29 82
M  V30 86 1 30 83
M  V30 87 1 34 84
M  V30 88 1 34 85
M  V30 89 1 35 86
M  V30 90 1 35 87
M  V30 91 1 37 88
M  V30 92 1 37 89
M  V30 93 1 38 90
M  V30 94 1 38 91
M  V30 95 1 41 92
M  V30 96 1 42 93
M  V30 97 1 42 94
M  V30 98 1 43 95
M  V30 99 1 43 96
M  V30 100 1 45 97
M  V30 101 1 45 98
M  V30 102 1 46 99
M  V30 103 1 46 100
M  V30 104 1 48 101
M  V30 105 1 48 102
M  V30 106 1 49 103
M  V30 END BOND
M  V30 END CTAB
M  END
