
     RDKit          3D

  0  0  0  0  0  0  0  0  0  0999 V3000
M  V30 BEGIN CTAB
M  V30 COUNTS 29 29 0 0 0
M  V30 BEGIN ATOM
M  V30 1 C 5.20432 0.472217 -0.648699 0
M  V30 2 C 4.44713 1.11378 0.497503 0
M  V30 3 O 3.0898 0.676411 0.430187 0
M  V30 4 C 2.73631 -0.661149 0.512998 0
M  V30 5 O 3.662 -1.49802 0.652026 0
M  V30 6 C 1.31147 -1.09598 0.440291 0
M  V30 7 O 0.441113 -0.0150571 0.285409 0
M  V30 8 C -0.937419 -0.137853 0.190569 0
M  V30 9 C -1.76708 0.953337 0.0379971 0
M  V30 10 C -3.13975 0.831539 -0.0564982 0
M  V30 11 N -3.99505 1.96036 -0.214113 0
M  V30 12 C -3.7063 -0.424774 0.00333769 0
M  V30 13 N -5.09726 -0.571571 -0.0905289 0
M  V30 14 C -2.90608 -1.54006 0.155647 0
M  V30 15 C -1.53515 -1.38096 0.246953 0
M  V30 16 H 5.53481 1.28107 -1.33937 0
M  V30 17 H 6.09696 -0.00545968 -0.240417 0
M  V30 18 H 4.57135 -0.203421 -1.25007 0
M  V30 19 H 4.41584 2.22221 0.381835 0
M  V30 20 H 4.87068 0.850217 1.47798 0
M  V30 21 H 1.05776 -1.69798 1.35149 0
M  V30 22 H 1.14231 -1.78852 -0.422631 0
M  V30 23 H -1.31294 1.92829 -0.00733912 0
M  V30 24 H -4.11256 2.31921 -1.19018 0
M  V30 25 H -4.4917 2.43214 0.554908 0
M  V30 26 H -5.74757 -0.774452 0.690835 0
M  V30 27 H -5.53298 -0.46655 -1.04819 0
M  V30 28 H -3.36248 -2.50337 0.199855 0
M  V30 29 H -0.937532 -2.27561 0.36576 0
M  V30 END ATOM
M  V30 BEGIN BOND
M  V30 1 1 1 2
M  V30 2 1 2 3
M  V30 3 1 3 4
M  V30 4 2 4 5
M  V30 5 1 4 6
M  V30 6 1 6 7
M  V30 7 1 7 8
M  V30 8 2 8 9
M  V30 9 1 9 10
M  V30 10 1 10 11
M  V30 11 2 10 12
M  V30 12 1 12 13
M  V30 13 1 12 14
M  V30 14 2 14 15
M  V30 15 1 15 8
M  V30 16 1 1 16
M  V30 17 1 1 17
M  V30 18 1 1 18
M  V30 19 1 2 19
M  V30 20 1 2 20
M  V30 21 1 6 21
M  V30 22 1 6 22
M  V30 23 1 9 23
M  V30 24 1 11 24
M  V30 25 1 11 25
M  V30 26 1 13 26
M  V30 27 1 13 27
M  V30 28 1 14 28
M  V30 29 1 15 29
M  V30 END BOND
M  V30 END CTAB
M  END
