
     RDKit          3D

  0  0  0  0  0  0  0  0  0  0999 V3000
M  V30 BEGIN CTAB
M  V30 COUNTS 28 29 0 0 0
M  V30 BEGIN ATOM
M  V30 1 N 5.42328 -0.00825914 0.772603 0
M  V30 2 C 4.26729 -0.496983 0.125555 0
M  V30 3 S 4.33408 -1.97068 -0.550215 0
M  V30 4 C 3.03876 0.277898 0.0524539 0
M  V30 5 S 2.86999 1.99414 -0.00565739 0
M  V30 6 C 1.17002 2.07367 -0.0771613 0
M  V30 7 S 0.267106 3.43483 -0.154522 0
M  V30 8 N 0.807546 0.791278 -0.0536097 0
M  V30 9 C 1.72785 -0.120321 0.0110349 0
M  V30 10 N 1.46195 -1.55207 0.0429673 0
M  V30 11 C -0.612527 0.486483 -0.102233 0
M  V30 12 C -1.43196 0.995154 -1.06081 0
M  V30 13 C -2.79151 0.704307 -1.10864 0
M  V30 14 C -3.31036 -0.127317 -0.147304 0
M  V30 15 C -2.50159 -0.66573 0.848229 0
M  V30 16 C -1.14431 -0.344473 0.853978 0
M  V30 17 C -4.75726 -0.501697 -0.110064 0
M  V30 18 H 5.35463 0.30151 1.76654 0
M  V30 19 H 6.36875 0.0667341 0.312345 0
M  V30 20 H 1.367 -2.0314 0.945922 0
M  V30 21 H 1.38182 -2.01756 -0.896803 0
M  V30 22 H -1.02273 1.65328 -1.82203 0
M  V30 23 H -3.4613 1.09313 -1.85552 0
M  V30 24 H -2.92926 -1.31765 1.595 0
M  V30 25 H -0.56442 -0.793879 1.65391 0
M  V30 26 H -5.34207 0.151607 -0.774786 0
M  V30 27 H -5.12739 -0.524394 0.921096 0
M  V30 28 H -4.8434 -1.55161 -0.499985 0
M  V30 END ATOM
M  V30 BEGIN BOND
M  V30 1 1 1 2
M  V30 2 2 2 3
M  V30 3 1 2 4
M  V30 4 1 4 5
M  V30 5 1 5 6
M  V30 6 2 6 7
M  V30 7 1 6 8
M  V30 8 1 8 9
M  V30 9 1 9 10
M  V30 10 1 8 11
M  V30 11 2 11 12
M  V30 12 1 12 13
M  V30 13 2 13 14
M  V30 14 1 14 15
M  V30 15 2 15 16
M  V30 16 1 14 17
M  V30 17 2 9 4
M  V30 18 1 16 11
M  V30 19 1 1 18
M  V30 20 1 1 19
M  V30 21 1 10 20
M  V30 22 1 10 21
M  V30 23 1 12 22
M  V30 24 1 13 23
M  V30 25 1 15 24
M  V30 26 1 16 25
M  V30 27 1 17 26
M  V30 28 1 17 27
M  V30 29 1 17 28
M  V30 END BOND
M  V30 END CTAB
M  END
