
     RDKit          3D

  0  0  0  0  0  0  0  0  0  0999 V3000
M  V30 BEGIN CTAB
M  V30 COUNTS 31 30 0 0 0
M  V30 BEGIN ATOM
M  V30 1 C 1.38499 -0.237301 0.35458 0 CFG=1
M  V30 2 N 1.37996 1.16831 0.0289365 0
M  V30 3 C 0.747847 -0.961493 -0.794921 0
M  V30 4 C -0.668979 -0.453627 -0.974988 0
M  V30 5 C -1.53136 -0.655221 0.217483 0
M  V30 6 N -2.85491 -0.164838 -0.0291642 0
M  V30 7 C -3.20931 1.17545 -0.155014 0
M  V30 8 N -2.47687 2.23074 -0.709691 0
M  V30 9 N -4.39966 1.5266 0.306109 0
M  V30 10 N -3.88796 -1.13079 -0.154972 0 CHG=1
M  V30 11 O -4.93574 -0.926476 -1.02326 0 CHG=-1
M  V30 12 O -3.89064 -2.19333 0.49997 0
M  V30 13 C 2.81761 -0.663651 0.492059 0
M  V30 14 O 3.08361 -1.84783 0.77088 0
M  V30 15 O 3.85314 0.227681 0.315411 0
M  V30 16 C 5.21985 -0.106995 0.426466 0
M  V30 17 H 0.883027 -0.481426 1.29562 0
M  V30 18 H 1.5814 1.268 -0.977881 0
M  V30 19 H 1.90361 1.75987 0.6788 0
M  V30 20 H 1.34605 -0.792571 -1.71381 0
M  V30 21 H 0.728442 -2.06683 -0.626423 0
M  V30 22 H -1.09794 -1.05748 -1.82001 0
M  V30 23 H -0.703181 0.583443 -1.30195 0
M  V30 24 H -1.53036 -1.72866 0.528874 0
M  V30 25 H -1.0684 -0.0525198 1.06241 0
M  V30 26 H -1.64161 2.60194 -0.232107 0
M  V30 27 H -2.77075 2.65019 -1.60842 0
M  V30 28 H -5.01952 0.817422 0.736484 0
M  V30 29 H 5.79392 0.801992 0.155238 0
M  V30 30 H 5.44587 -0.912829 -0.272632 0
M  V30 31 H 5.51785 -0.377763 1.44797 0
M  V30 END ATOM
M  V30 BEGIN BOND
M  V30 1 1 1 2
M  V30 2 1 1 3
M  V30 3 1 3 4
M  V30 4 1 4 5
M  V30 5 1 5 6
M  V30 6 1 6 7
M  V30 7 1 7 8
M  V30 8 2 7 9 CFG=2
M  V30 9 1 6 10
M  V30 10 1 10 11
M  V30 11 2 10 12
M  V30 12 1 1 13
M  V30 13 2 13 14
M  V30 14 1 13 15
M  V30 15 1 15 16
M  V30 16 1 1 17 CFG=1
M  V30 17 1 2 18
M  V30 18 1 2 19
M  V30 19 1 3 20
M  V30 20 1 3 21
M  V30 21 1 4 22
M  V30 22 1 4 23
M  V30 23 1 5 24
M  V30 24 1 5 25
M  V30 25 1 8 26
M  V30 26 1 8 27
M  V30 27 1 9 28
M  V30 28 1 16 29
M  V30 29 1 16 30
M  V30 30 1 16 31
M  V30 END BOND
M  V30 END CTAB
M  END
