
     RDKit          3D

  0  0  0  0  0  0  0  0  0  0999 V3000
M  V30 BEGIN CTAB
M  V30 COUNTS 32 33 0 0 0
M  V30 BEGIN ATOM
M  V30 1 C -4.30928 1.21057 -0.246101 0
M  V30 2 C -3.87931 -0.257034 -0.271494 0
M  V30 3 C -2.40355 -0.261767 -0.208525 0
M  V30 4 C -1.67397 -0.492858 -1.35321 0
M  V30 5 C -0.285686 -0.501303 -1.31455 0
M  V30 6 C 0.412954 -0.28324 -0.152416 0
M  V30 7 C -0.320979 -0.0526099 0.989961 0
M  V30 8 C -1.70906 -0.0427804 0.958283 0
M  V30 9 C 1.89012 -0.302584 -0.152975 0
M  V30 10 C 2.58541 -1.30154 -0.796691 0
M  V30 11 C 3.9571 -1.31408 -0.791498 0
M  V30 12 C 4.62053 -0.309121 -0.130631 0
M  V30 13 C 3.97448 0.700859 0.52071 0
M  V30 14 C 2.59433 0.676729 0.49151 0
M  V30 15 F 1.91873 1.68155 1.13681 0
M  V30 16 N 4.68538 1.7351 1.20114 0
M  V30 17 F 5.98382 -0.364019 -0.153049 0
M  V30 18 N -4.48731 -0.99966 0.809291 0
M  V30 19 H -5.39226 1.22634 -0.441634 0
M  V30 20 H -3.77258 1.69076 -1.08772 0
M  V30 21 H -4.05494 1.60078 0.739769 0
M  V30 22 H -4.20931 -0.713097 -1.22321 0
M  V30 23 H -2.20371 -0.666891 -2.27906 0
M  V30 24 H 0.28302 -0.683805 -2.21902 0
M  V30 25 H 0.156637 0.122061 1.92297 0
M  V30 26 H -2.26619 0.144501 1.88795 0
M  V30 27 H 2.02423 -2.06719 -1.30072 0
M  V30 28 H 4.51192 -2.11318 -1.30645 0
M  V30 29 H 5.68209 1.92769 0.979657 0
M  V30 30 H 4.19533 2.30257 1.92903 0
M  V30 31 H -4.51945 -0.405194 1.65849 0
M  V30 32 H -3.98849 -1.88755 0.944715 0
M  V30 END ATOM
M  V30 BEGIN BOND
M  V30 1 1 1 2
M  V30 2 1 2 3
M  V30 3 2 3 4
M  V30 4 1 4 5
M  V30 5 2 5 6
M  V30 6 1 6 7
M  V30 7 2 7 8
M  V30 8 1 6 9
M  V30 9 2 9 10
M  V30 10 1 10 11
M  V30 11 2 11 12
M  V30 12 1 12 13
M  V30 13 2 13 14
M  V30 14 1 14 15
M  V30 15 1 13 16
M  V30 16 1 12 17
M  V30 17 1 2 18
M  V30 18 1 8 3
M  V30 19 1 14 9
M  V30 20 1 1 19
M  V30 21 1 1 20
M  V30 22 1 1 21
M  V30 23 1 2 22
M  V30 24 1 4 23
M  V30 25 1 5 24
M  V30 26 1 7 25
M  V30 27 1 8 26
M  V30 28 1 10 27
M  V30 29 1 11 28
M  V30 30 1 16 29
M  V30 31 1 16 30
M  V30 32 1 18 31
M  V30 33 1 18 32
M  V30 END BOND
M  V30 END CTAB
M  END
