
     RDKit          3D

  0  0  0  0  0  0  0  0  0  0999 V3000
M  V30 BEGIN CTAB
M  V30 COUNTS 52 53 0 0 0
M  V30 BEGIN ATOM
M  V30 1 N 9.80333 1.60269 1.08871 0
M  V30 2 S 9.41521 0.123896 0.285803 0
M  V30 3 O 10.1467 -1.01174 0.980187 0
M  V30 4 O 9.86804 0.237695 -1.14375 0
M  V30 5 C 7.69808 -0.231128 0.391069 0
M  V30 6 C 7.19062 -0.966901 1.43665 0
M  V30 7 C 5.84836 -1.25179 1.53131 0
M  V30 8 C 4.91564 -0.815875 0.577897 0
M  V30 9 N 3.55501 -1.16018 0.745006 0
M  V30 10 C 2.44397 -0.721097 0.0382364 0
M  V30 11 O 2.51839 0.0918682 -0.896697 0
M  V30 12 C 1.10598 -1.22767 0.394824 0
M  V30 13 C -0.0303986 -0.528076 -0.313444 0
M  V30 14 C -0.143367 0.923962 0.0248963 0
M  V30 15 C -1.27215 1.58492 -0.686194 0
M  V30 16 C -2.57495 1.01133 -0.246111 0
M  V30 17 O -2.64393 0.24613 0.722287 0
M  V30 18 N -3.71915 1.38299 -0.985504 0
M  V30 19 C -5.01199 0.921738 -0.671466 0
M  V30 20 C -5.45195 0.456271 0.536407 0
M  V30 21 C -6.74736 0.00468784 0.706382 0
M  V30 22 C -7.64869 0.00379059 -0.326544 0
M  V30 23 C -7.22807 0.464903 -1.53717 0
M  V30 24 C -5.94414 0.913645 -1.71156 0
M  V30 25 S -9.28062 -0.567071 -0.105075 0
M  V30 26 N -9.34126 -2.25738 -0.442615 0
M  V30 27 O -10.1814 0.189525 -1.04354 0
M  V30 28 O -9.65125 -0.295805 1.33691 0
M  V30 29 C 5.43049 -0.0854912 -0.457562 0
M  V30 30 C 6.80459 0.206382 -0.554544 0
M  V30 31 H 10.5621 2.13395 0.591798 0
M  V30 32 H 8.97581 2.2446 1.12253 0
M  V30 33 H 7.89019 -1.31922 2.19251 0
M  V30 34 H 5.45633 -1.83515 2.36511 0
M  V30 35 H 3.3366 -1.8708 1.53264 0
M  V30 36 H 0.937009 -1.17221 1.51088 0
M  V30 37 H 1.08718 -2.30373 0.0841203 0
M  V30 38 H -0.978557 -1.06674 -0.161498 0
M  V30 39 H 0.164757 -0.569338 -1.43392 0
M  V30 40 H 0.814822 1.46902 -0.0988078 0
M  V30 41 H -0.384258 1.02578 1.13921 0
M  V30 42 H -1.28208 2.68958 -0.515825 0
M  V30 43 H -1.18489 1.41582 -1.7984 0
M  V30 44 H -3.60926 2.05366 -1.82854 0
M  V30 45 H -4.79101 0.449221 1.39866 0
M  V30 46 H -7.03861 -0.354186 1.69013 0
M  V30 47 H -7.96099 0.457062 -2.34958 0
M  V30 48 H -5.64385 1.27223 -2.68417 0
M  V30 49 H -8.38669 -2.63513 -0.397615 0
M  V30 50 H -9.76541 -2.39292 -1.38953 0
M  V30 51 H 4.76662 0.278642 -1.23459 0
M  V30 52 H 7.16053 0.783643 -1.38631 0
M  V30 END ATOM
M  V30 BEGIN BOND
M  V30 1 1 1 2
M  V30 2 2 2 3
M  V30 3 2 2 4
M  V30 4 1 2 5
M  V30 5 2 5 6
M  V30 6 1 6 7
M  V30 7 2 7 8
M  V30 8 1 8 9
M  V30 9 1 9 10
M  V30 10 2 10 11
M  V30 11 1 10 12
M  V30 12 1 12 13
M  V30 13 1 13 14
M  V30 14 1 14 15
M  V30 15 1 15 16
M  V30 16 2 16 17
M  V30 17 1 16 18
M  V30 18 1 18 19
M  V30 19 2 19 20
M  V30 20 1 20 21
M  V30 21 2 21 22
M  V30 22 1 22 23
M  V30 23 2 23 24
M  V30 24 1 22 25
M  V30 25 1 25 26
M  V30 26 2 25 27
M  V30 27 2 25 28
M  V30 28 1 8 29
M  V30 29 2 29 30
M  V30 30 1 30 5
M  V30 31 1 24 19
M  V30 32 1 1 31
M  V30 33 1 1 32
M  V30 34 1 6 33
M  V30 35 1 7 34
M  V30 36 1 9 35
M  V30 37 1 12 36
M  V30 38 1 12 37
M  V30 39 1 13 38
M  V30 40 1 13 39
M  V30 41 1 14 40
M  V30 42 1 14 41
M  V30 43 1 15 42
M  V30 44 1 15 43
M  V30 45 1 18 44
M  V30 46 1 20 45
M  V30 47 1 21 46
M  V30 48 1 23 47
M  V30 49 1 24 48
M  V30 50 1 26 49
M  V30 51 1 26 50
M  V30 52 1 29 51
M  V30 53 1 30 52
M  V30 END BOND
M  V30 END CTAB
M  END
