
     RDKit          3D

  0  0  0  0  0  0  0  0  0  0999 V3000
M  V30 BEGIN CTAB
M  V30 COUNTS 21 21 0 0 0
M  V30 BEGIN ATOM
M  V30 1 N 3.55784 0.589791 -0.221027 0
M  V30 2 C 2.15602 0.379557 -0.126763 0
M  V30 3 C 1.59674 -0.803635 -0.542737 0
M  V30 4 C 0.241566 -0.977259 -0.439355 0
M  V30 5 N -0.316678 -2.20831 -0.875169 0
M  V30 6 C -0.638315 -0.00285953 0.0763394 0
M  V30 7 C -0.0470837 1.15287 0.476814 0
M  V30 8 C 1.34486 1.35428 0.380169 0
M  V30 9 I -1.20896 2.71805 1.27094 0
M  V30 10 C -2.02981 -0.30633 0.13013 0
M  V30 11 O -2.38787 -1.46043 -0.302734 0
M  V30 12 C -3.06371 0.607038 0.642952 0
M  V30 13 H 4.15537 0.57623 0.619103 0
M  V30 14 H 3.97234 0.75746 -1.14909 0
M  V30 15 H 2.21393 -1.61093 -0.955558 0
M  V30 16 H -0.384418 -3.01227 -0.231947 0
M  V30 17 H -0.659217 -2.30358 -1.84458 0
M  V30 18 H 1.73996 2.32325 0.72896 0
M  V30 19 H -4.0419 -0.0197305 0.603939 0
M  V30 20 H -3.24657 1.50504 0.0367918 0
M  V30 21 H -2.95411 0.741777 1.72282 0
M  V30 END ATOM
M  V30 BEGIN BOND
M  V30 1 1 1 2
M  V30 2 2 2 3
M  V30 3 1 3 4
M  V30 4 1 4 5
M  V30 5 2 4 6
M  V30 6 1 6 7
M  V30 7 2 7 8
M  V30 8 1 7 9
M  V30 9 1 6 10
M  V30 10 2 10 11
M  V30 11 1 10 12
M  V30 12 1 8 2
M  V30 13 1 1 13
M  V30 14 1 1 14
M  V30 15 1 3 15
M  V30 16 1 5 16
M  V30 17 1 5 17
M  V30 18 1 8 18
M  V30 19 1 12 19
M  V30 20 1 12 20
M  V30 21 1 12 21
M  V30 END BOND
M  V30 END CTAB
M  END
