
     RDKit          3D

  0  0  0  0  0  0  0  0  0  0999 V3000
M  V30 BEGIN CTAB
M  V30 COUNTS 200 205 0 0 0
M  V30 BEGIN ATOM
M  V30 1 C -8.5787 -2.26226 0.508167 0 CFG=2
M  V30 2 C -8.77252 -1.8508 -0.895082 0
M  V30 3 C -9.56715 -0.643314 -1.19954 0
M  V30 4 C -8.93444 0.34849 -2.14509 0
M  V30 5 C -9.83234 1.55161 -2.34292 0 CFG=2
M  V30 6 C -10.0007 2.22693 -1.00748 0
M  V30 7 C -11.0814 1.31003 -3.09106 0 CFG=2
M  V30 8 O -10.7941 1.33514 -4.48091 0
M  V30 9 C -12.2343 2.19068 -2.74262 0 CFG=1
M  V30 10 C -12.6023 3.01995 -3.96528 0
M  V30 11 C -13.4043 1.53086 -2.13898 0
M  V30 12 O -13.6646 1.82338 -0.951799 0
M  V30 13 C -14.3393 0.568597 -2.69812 0
M  V30 14 C -13.9836 -0.0740788 -3.99438 0
M  V30 15 C -15.7076 1.25313 -2.92203 0
M  V30 16 C -14.6588 -0.526381 -1.68018 0 CFG=1
M  V30 17 O -15.5475 -1.46378 -2.19867 0
M  V30 18 C -13.4654 -1.15794 -1.06368 0
M  V30 19 C -13.8213 -2.03998 0.0823333 0
M  V30 20 O -14.6116 -2.99524 -0.259162 0
M  V30 21 O -13.3555 -1.82919 1.30904 0
M  V30 22 C -12.119 -2.09783 1.94437 0 CFG=1
M  V30 23 C -11.0447 -2.48679 1.00505 0
M  V30 24 C -9.64354 -2.48569 1.41494 0 CFG=2
M  V30 25 N -8.74648 -1.39117 1.62258 0
M  V30 26 C -7.80522 -1.48148 2.72354 0
M  V30 27 C -6.41479 -1.06835 2.47264 0
M  V30 28 O -6.17557 0.257665 2.10897 0
M  V30 29 C -4.81245 0.626301 1.94904 0
M  V30 30 O -3.90018 -0.231739 2.11978 0
M  V30 31 O -4.43913 1.88133 1.62126 0
M  V30 32 C -3.18876 2.4242 1.44507 0
M  V30 33 C -2.32001 1.89677 0.359461 0
M  V30 34 S -3.16043 2.08063 -1.2696 0
M  V30 35 S -4.70964 0.678678 -1.42736 0
M  V30 36 C -4.29221 -0.853356 -2.22102 0
M  V30 37 C -3.07692 -1.56187 -1.74831 0 CFG=2
M  V30 38 N -1.90236 -0.751525 -2.01897 0
M  V30 39 C -0.661011 -1.08922 -1.46948 0
M  V30 40 O -0.642888 -2.1421 -0.732816 0
M  V30 41 C 0.577079 -0.31504 -1.70191 0 CFG=2
M  V30 42 C 0.517377 0.319477 -3.09372 0
M  V30 43 C 1.74523 1.10323 -3.35305 0
M  V30 44 O 1.74155 2.48257 -3.20142 0
M  V30 45 O 2.79946 0.53389 -3.71141 0
M  V30 46 N 1.73229 -1.14312 -1.55596 0
M  V30 47 C 2.93852 -0.754971 -0.825971 0
M  V30 48 O 2.90574 0.381477 -0.330826 0
M  V30 49 C 4.00916 -1.723 -0.772663 0 CFG=2
M  V30 50 C 3.86186 -2.46574 0.583146 0
M  V30 51 C 2.52034 -3.1061 0.648635 0
M  V30 52 C 2.32023 -3.8877 1.9456 0
M  V30 53 N 3.29983 -4.9496 2.02805 0
M  V30 54 C 3.21286 -6.03726 1.12475 0
M  V30 55 N 4.27919 -6.88864 0.79028 0
M  V30 56 N 2.05133 -6.26131 0.580529 0
M  V30 57 N 5.37925 -1.32917 -0.879734 0
M  V30 58 C 6.00997 -0.471931 0.00448598 0
M  V30 59 O 5.40403 0.0776775 0.949896 0
M  V30 60 C 7.50676 -0.129008 -0.0767427 0 CFG=2
M  V30 61 C 8.18695 -1.48089 0.215866 0
M  V30 62 C 9.6327 -1.42428 0.178587 0
M  V30 63 O 10.4189 -2.47811 0.679808 0
M  V30 64 O 10.2512 -0.459263 -0.29293 0
M  V30 65 N 7.7753 0.794662 0.939978 0
M  V30 66 C 8.51723 2.03163 0.927074 0
M  V30 67 O 9.0549 2.45729 -0.103997 0
M  V30 68 C 8.59627 2.73953 2.19557 0
M  V30 69 C 9.72782 3.47301 2.73076 0
M  V30 70 C 11.0103 2.83383 3.02172 0 CFG=2
M  V30 71 N 11.8224 2.36618 1.94361 0
M  V30 72 C 13.1499 1.95788 2.12895 0
M  V30 73 O 13.6068 1.98777 3.35889 0
M  V30 74 C 14.1036 1.51358 1.15561 0
M  V30 75 C 14.0929 1.92075 -0.171282 0
M  V30 76 C 15.0981 1.53195 -1.03349 0
M  V30 77 C 16.1619 0.733355 -0.677424 0
M  V30 78 N 17.2582 0.408333 -1.49254 0
M  V30 79 C 17.5531 1.17544 -2.7123 0
M  V30 80 C 18.9969 1.52353 -2.73286 0
M  V30 81 N 19.7496 1.46103 -1.60105 0
M  V30 82 C 21.0462 1.81179 -1.60182 0
M  V30 83 C 21.6745 2.25069 -2.74718 0
M  V30 84 N 20.9282 2.3131 -3.87257 0
M  V30 85 C 19.6155 1.96027 -3.88373 0
M  V30 86 N 22.969 2.61335 -2.71253 0
M  V30 87 C 23.7206 2.5775 -1.603 0
M  V30 88 N 25.0919 2.9591 -1.55063 0
M  V30 89 N 23.1106 2.14435 -0.469334 0
M  V30 90 C 21.8277 1.77162 -0.444313 0
M  V30 91 O 21.2423 1.36588 0.594347 0
M  V30 92 C 16.1553 0.32285 0.66102 0
M  V30 93 C 15.1625 0.703474 1.53232 0
M  V30 94 C 10.648 1.53607 3.84789 0
M  V30 95 O 9.86753 1.73311 4.91938 0
M  V30 96 O 11.1084 0.506952 3.43309 0
M  V30 97 C -2.9638 -2.91028 -2.39904 0
M  V30 98 O -3.91908 -3.87878 -2.19651 0
M  V30 99 O -2.00445 -3.18575 -3.13671 0
M  V30 100 C -11.8641 -0.92198 2.82911 0
M  V30 101 C -11.6746 0.447852 2.311 0
M  V30 102 C -11.8272 -1.09997 4.12754 0
M  V30 103 C -11.5801 -0.0294525 5.13265 0
M  V30 104 C -12.315 -0.0391495 6.29837 0
M  V30 105 S -11.6724 1.31295 7.12684 0
M  V30 106 C -10.5252 1.80173 5.96147 0
M  V30 107 C -9.5578 2.96879 6.02128 0
M  V30 108 N -10.6929 0.913673 5.00657 0
M  V30 109 H -7.67469 -2.95288 0.606851 0
M  V30 110 H -9.1412 -2.78051 -1.44225 0
M  V30 111 H -7.76457 -1.6901 -1.40065 0
M  V30 112 H -10.4602 -1.03161 -1.80304 0
M  V30 113 H -9.9305 -0.155818 -0.290756 0
M  V30 114 H -8.01041 0.744807 -1.66104 0
M  V30 115 H -8.68755 -0.059673 -3.122 0
M  V30 116 H -9.20053 2.29108 -2.9371 0
M  V30 117 H -9.09333 2.01381 -0.407725 0
M  V30 118 H -10.8478 1.87453 -0.4227 0
M  V30 119 H -10.0051 3.36002 -1.10856 0
M  V30 120 H -11.4232 0.26848 -2.93149 0
M  V30 121 H -10.1934 2.10571 -4.66811 0
M  V30 122 H -11.8232 2.96399 -2.01177 0
M  V30 123 H -12.2787 2.55414 -4.91887 0
M  V30 124 H -12.0626 4.00425 -3.94477 0
M  V30 125 H -13.6781 3.30333 -3.94695 0
M  V30 126 H -14.9327 -0.545591 -4.38808 0
M  V30 127 H -13.7914 0.734139 -4.75667 0
M  V30 128 H -13.2474 -0.861538 -3.97121 0
M  V30 129 H -16.5477 0.58212 -2.71018 0
M  V30 130 H -15.7879 1.56346 -3.98607 0
M  V30 131 H -15.6996 2.19241 -2.33858 0
M  V30 132 H -15.2193 0.00719659 -0.861238 0
M  V30 133 H -16.2984 -1.64803 -1.55652 0
M  V30 134 H -12.9544 -1.78098 -1.86715 0
M  V30 135 H -12.7309 -0.4033 -0.790361 0
M  V30 136 H -12.3591 -2.99312 2.59069 0
M  V30 137 H -11.2495 -3.63254 0.782458 0
M  V30 138 H -11.2953 -2.08321 0.0276022 0
M  V30 139 H -9.4494 -3.30463 2.21021 0
M  V30 140 H -8.1752 -0.917702 3.62584 0
M  V30 141 H -7.80421 -2.54066 3.06251 0
M  V30 142 H -5.85517 -1.79127 1.79941 0
M  V30 143 H -5.86114 -1.20695 3.45762 0
M  V30 144 H -3.23306 3.55087 1.43505 0
M  V30 145 H -2.59931 2.23903 2.41001 0
M  V30 146 H -1.41065 2.50736 0.300064 0
M  V30 147 H -2.06301 0.828295 0.529254 0
M  V30 148 H -5.20555 -1.52279 -2.14378 0
M  V30 149 H -4.12033 -0.653802 -3.33284 0
M  V30 150 H -3.09286 -1.7928 -0.667609 0
M  V30 151 H -1.98056 0.0941446 -2.63346 0
M  V30 152 H 0.56109 0.566073 -1.01138 0
M  V30 153 H 0.332316 -0.450263 -3.8643 0
M  V30 154 H -0.336273 1.03745 -3.08085 0
M  V30 155 H 2.16798 2.91314 -2.37754 0
M  V30 156 H 1.7287 -2.07895 -1.99444 0
M  V30 157 H 3.82518 -2.52501 -1.56304 0
M  V30 158 H 4.14509 -1.85284 1.4256 0
M  V30 159 H 4.61437 -3.31861 0.51856 0
M  V30 160 H 1.77884 -2.28181 0.68982 0
M  V30 161 H 2.32442 -3.77982 -0.197706 0
M  V30 162 H 1.29256 -4.24438 1.94752 0
M  V30 163 H 2.50406 -3.16882 2.78079 0
M  V30 164 H 4.07015 -4.94637 2.71766 0
M  V30 165 H 4.25528 -7.43199 -0.0826595 0
M  V30 166 H 5.08972 -6.97962 1.43439 0
M  V30 167 H 1.88272 -7.02905 -0.09114 0
M  V30 168 H 5.98662 -1.69557 -1.6912 0
M  V30 169 H 7.74396 0.165835 -1.06288 0
M  V30 170 H 7.8144 -2.15124 -0.589279 0
M  V30 171 H 7.77935 -1.91119 1.1604 0
M  V30 172 H 11.1294 -2.29808 1.39052 0
M  V30 173 H 7.34626 0.531031 1.90795 0
M  V30 174 H 8.18983 2.0177 2.99166 0
M  V30 175 H 7.68135 3.47835 2.13768 0
M  V30 176 H 9.97176 4.38996 2.08971 0
M  V30 177 H 9.37684 3.97949 3.69402 0
M  V30 178 H 11.6181 3.34623 3.76117 0
M  V30 179 H 11.4631 2.33399 0.981901 0
M  V30 180 H 13.2659 2.54429 -0.459316 0
M  V30 181 H 15.066 1.86586 -2.08128 0
M  V30 182 H 17.8842 -0.370608 -1.25173 0
M  V30 183 H 17.2726 0.545139 -3.56648 0
M  V30 184 H 16.9603 2.11762 -2.71771 0
M  V30 185 H 19.0605 2.0306 -4.81866 0
M  V30 186 H 25.837 2.25967 -1.69937 0
M  V30 187 H 25.3825 3.93145 -1.36781 0
M  V30 188 H 23.6932 2.109 0.401591 0
M  V30 189 H 16.9824 -0.318869 0.98028 0
M  V30 190 H 15.1672 0.368917 2.58034 0
M  V30 191 H 8.95894 1.42955 5.15929 0
M  V30 192 H -3.6958 -4.80987 -1.82198 0
M  V30 193 H -11.8884 0.525368 1.22682 0
M  V30 194 H -10.6265 0.753878 2.45069 0
M  V30 195 H -12.32 1.13112 2.90865 0
M  V30 196 H -11.9791 -2.12128 4.49813 0
M  V30 197 H -13.1051 -0.743669 6.59597 0
M  V30 198 H -9.02382 3.01032 6.97804 0
M  V30 199 H -8.91624 2.86268 5.14788 0
M  V30 200 H -10.2097 3.85654 5.88827 0
M  V30 END ATOM
M  V30 BEGIN BOND
M  V30 1 1 1 2
M  V30 2 1 2 3
M  V30 3 1 3 4
M  V30 4 1 4 5
M  V30 5 1 5 6
M  V30 6 1 5 7
M  V30 7 1 7 8
M  V30 8 1 7 9
M  V30 9 1 9 10
M  V30 10 1 9 11
M  V30 11 2 11 12
M  V30 12 1 11 13
M  V30 13 1 13 14
M  V30 14 1 13 15
M  V30 15 1 13 16
M  V30 16 1 16 17
M  V30 17 1 16 18
M  V30 18 1 18 19
M  V30 19 2 19 20
M  V30 20 1 19 21
M  V30 21 1 21 22
M  V30 22 1 22 23
M  V30 23 1 23 24
M  V30 24 1 24 25
M  V30 25 1 25 26
M  V30 26 1 26 27
M  V30 27 1 27 28
M  V30 28 1 28 29
M  V30 29 2 29 30
M  V30 30 1 29 31
M  V30 31 1 31 32
M  V30 32 1 32 33
M  V30 33 1 33 34
M  V30 34 1 34 35
M  V30 35 1 35 36
M  V30 36 1 36 37
M  V30 37 1 37 38
M  V30 38 1 38 39
M  V30 39 2 39 40
M  V30 40 1 39 41
M  V30 41 1 41 42
M  V30 42 1 42 43
M  V30 43 1 43 44
M  V30 44 2 43 45
M  V30 45 1 41 46
M  V30 46 1 46 47
M  V30 47 2 47 48
M  V30 48 1 47 49
M  V30 49 1 49 50
M  V30 50 1 50 51
M  V30 51 1 51 52
M  V30 52 1 52 53
M  V30 53 1 53 54
M  V30 54 1 54 55
M  V30 55 2 54 56 CFG=2
M  V30 56 1 49 57
M  V30 57 1 57 58
M  V30 58 2 58 59
M  V30 59 1 58 60
M  V30 60 1 60 61
M  V30 61 1 61 62
M  V30 62 1 62 63
M  V30 63 2 62 64
M  V30 64 1 60 65
M  V30 65 1 65 66
M  V30 66 2 66 67
M  V30 67 1 66 68
M  V30 68 1 68 69
M  V30 69 1 69 70
M  V30 70 1 70 71
M  V30 71 1 71 72
M  V30 72 2 72 73
M  V30 73 1 72 74
M  V30 74 2 74 75
M  V30 75 1 75 76
M  V30 76 2 76 77
M  V30 77 1 77 78
M  V30 78 1 78 79
M  V30 79 1 79 80
M  V30 80 2 80 81
M  V30 81 1 81 82
M  V30 82 2 82 83
M  V30 83 1 83 84
M  V30 84 2 84 85
M  V30 85 1 83 86
M  V30 86 2 86 87
M  V30 87 1 87 88
M  V30 88 1 87 89
M  V30 89 1 89 90
M  V30 90 2 90 91
M  V30 91 1 77 92
M  V30 92 2 92 93
M  V30 93 1 70 94
M  V30 94 1 94 95
M  V30 95 2 94 96
M  V30 96 1 37 97
M  V30 97 1 97 98
M  V30 98 2 97 99
M  V30 99 1 22 100
M  V30 100 1 100 101
M  V30 101 2 100 102
M  V30 102 1 102 103
M  V30 103 2 103 104
M  V30 104 1 104 105
M  V30 105 1 105 106
M  V30 106 1 106 107
M  V30 107 2 106 108
M  V30 108 1 24 1
M  V30 109 1 93 74
M  V30 110 1 108 103
M  V30 111 1 25 1
M  V30 112 1 85 80
M  V30 113 1 90 82
M  V30 114 1 1 109 CFG=3
M  V30 115 1 2 110
M  V30 116 1 2 111
M  V30 117 1 3 112
M  V30 118 1 3 113
M  V30 119 1 4 114
M  V30 120 1 4 115
M  V30 121 1 5 116 CFG=3
M  V30 122 1 6 117
M  V30 123 1 6 118
M  V30 124 1 6 119
M  V30 125 1 7 120 CFG=1
M  V30 126 1 8 121
M  V30 127 1 9 122 CFG=1
M  V30 128 1 10 123
M  V30 129 1 10 124
M  V30 130 1 10 125
M  V30 131 1 14 126
M  V30 132 1 14 127
M  V30 133 1 14 128
M  V30 134 1 15 129
M  V30 135 1 15 130
M  V30 136 1 15 131
M  V30 137 1 16 132 CFG=1
M  V30 138 1 17 133
M  V30 139 1 18 134
M  V30 140 1 18 135
M  V30 141 1 22 136 CFG=1
M  V30 142 1 23 137
M  V30 143 1 23 138
M  V30 144 1 24 139 CFG=1
M  V30 145 1 26 140
M  V30 146 1 26 141
M  V30 147 1 27 142
M  V30 148 1 27 143
M  V30 149 1 32 144
M  V30 150 1 32 145
M  V30 151 1 33 146
M  V30 152 1 33 147
M  V30 153 1 36 148
M  V30 154 1 36 149
M  V30 155 1 37 150 CFG=1
M  V30 156 1 38 151
M  V30 157 1 41 152 CFG=1
M  V30 158 1 42 153
M  V30 159 1 42 154
M  V30 160 1 44 155
M  V30 161 1 46 156
M  V30 162 1 49 157 CFG=3
M  V30 163 1 50 158
M  V30 164 1 50 159
M  V30 165 1 51 160
M  V30 166 1 51 161
M  V30 167 1 52 162
M  V30 168 1 52 163
M  V30 169 1 53 164
M  V30 170 1 55 165
M  V30 171 1 55 166
M  V30 172 1 56 167
M  V30 173 1 57 168
M  V30 174 1 60 169 CFG=3
M  V30 175 1 61 170
M  V30 176 1 61 171
M  V30 177 1 63 172
M  V30 178 1 65 173
M  V30 179 1 68 174
M  V30 180 1 68 175
M  V30 181 1 69 176
M  V30 182 1 69 177
M  V30 183 1 70 178 CFG=1
M  V30 184 1 71 179
M  V30 185 1 75 180
M  V30 186 1 76 181
M  V30 187 1 78 182
M  V30 188 1 79 183
M  V30 189 1 79 184
M  V30 190 1 85 185
M  V30 191 1 88 186
M  V30 192 1 88 187
M  V30 193 1 89 188
M  V30 194 1 92 189
M  V30 195 1 93 190
M  V30 196 1 95 191
M  V30 197 1 98 192
M  V30 198 1 101 193
M  V30 199 1 101 194
M  V30 200 1 101 195
M  V30 201 1 102 196
M  V30 202 1 104 197
M  V30 203 1 107 198
M  V30 204 1 107 199
M  V30 205 1 107 200
M  V30 END BOND
M  V30 END CTAB
M  END
