
     RDKit          3D

  0  0  0  0  0  0  0  0  0  0999 V3000
M  V30 BEGIN CTAB
M  V30 COUNTS 46 48 0 0 0
M  V30 BEGIN ATOM
M  V30 1 O 1.63209 3.53856 -2.29663 0
M  V30 2 C 2.28214 2.48953 -2.30854 0
M  V30 3 N 1.6955 1.23282 -2.20222 0
M  V30 4 C 0.322287 0.991419 -2.05902 0
M  V30 5 C -0.0829039 -0.339504 -2.30799 0
M  V30 6 C -1.40208 -0.671343 -2.17661 0
M  V30 7 C -2.3761 0.227306 -1.81057 0
M  V30 8 C -1.95711 1.50794 -1.57531 0
M  V30 9 C -0.641159 1.9026 -1.69094 0
M  V30 10 O -3.71465 -0.159266 -1.68894 0
M  V30 11 C -4.1442 -0.570348 -0.449924 0
M  V30 12 C -4.66152 0.339789 0.431059 0
M  V30 13 C -5.10873 -0.0381898 1.69922 0
M  V30 14 C -5.0076 -1.36371 2.02694 0
M  V30 15 C -4.493 -2.3234 1.1746 0
M  V30 16 C -4.06227 -1.88506 -0.0799472 0
M  V30 17 C -5.46878 -1.80423 3.35729 0
M  V30 18 C 3.77361 2.66904 -2.44926 0
M  V30 19 S 4.65098 1.09441 -2.35045 0
M  V30 20 C 4.56833 0.382195 -0.706788 0
M  V30 21 N 3.91165 1.06449 0.238651 0
M  V30 22 C 3.78856 0.61252 1.51858 0
M  V30 23 N 3.08602 1.36017 2.49128 0
M  V30 24 C 4.38471 -0.601197 1.79152 0
M  V30 25 C 5.05413 -1.28146 0.798695 0
M  V30 26 N 5.14567 -0.791078 -0.446873 0
M  V30 27 N 5.67013 -2.52999 1.06769 0
M  V30 28 H 2.34785 0.414581 -2.23733 0
M  V30 29 H 0.653224 -1.10241 -2.60592 0
M  V30 30 H -1.69587 -1.71492 -2.37486 0
M  V30 31 H -2.66952 2.26399 -1.2844 0
M  V30 32 H -0.343837 2.91604 -1.4852 0
M  V30 33 H -4.73297 1.37023 0.159337 0
M  V30 34 H -5.51775 0.666158 2.40271 0
M  V30 35 H -4.43544 -3.35659 1.48345 0
M  V30 36 H -3.66238 -2.61597 -0.75045 0
M  V30 37 H -5.88025 -0.967946 3.95752 0
M  V30 38 H -4.58074 -2.18809 3.9112 0
M  V30 39 H -6.23872 -2.617 3.23226 0
M  V30 40 H 3.93488 3.06702 -3.472 0
M  V30 41 H 4.15615 3.41908 -1.74977 0
M  V30 42 H 3.37616 2.33189 2.68512 0
M  V30 43 H 2.29282 0.941889 3.00216 0
M  V30 44 H 4.31649 -1.00214 2.78696 0
M  V30 45 H 6.7192 -2.66109 1.00809 0
M  V30 46 H 5.11501 -3.37191 1.33562 0
M  V30 END ATOM
M  V30 BEGIN BOND
M  V30 1 2 1 2
M  V30 2 1 2 3
M  V30 3 1 3 4
M  V30 4 2 4 5
M  V30 5 1 5 6
M  V30 6 2 6 7
M  V30 7 1 7 8
M  V30 8 2 8 9
M  V30 9 1 7 10
M  V30 10 1 10 11
M  V30 11 2 11 12
M  V30 12 1 12 13
M  V30 13 2 13 14
M  V30 14 1 14 15
M  V30 15 2 15 16
M  V30 16 1 14 17
M  V30 17 1 2 18
M  V30 18 1 18 19
M  V30 19 1 19 20
M  V30 20 2 20 21
M  V30 21 1 21 22
M  V30 22 1 22 23
M  V30 23 2 22 24
M  V30 24 1 24 25
M  V30 25 2 25 26
M  V30 26 1 25 27
M  V30 27 1 9 4
M  V30 28 1 16 11
M  V30 29 1 26 20
M  V30 30 1 3 28
M  V30 31 1 5 29
M  V30 32 1 6 30
M  V30 33 1 8 31
M  V30 34 1 9 32
M  V30 35 1 12 33
M  V30 36 1 13 34
M  V30 37 1 15 35
M  V30 38 1 16 36
M  V30 39 1 17 37
M  V30 40 1 17 38
M  V30 41 1 17 39
M  V30 42 1 18 40
M  V30 43 1 18 41
M  V30 44 1 23 42
M  V30 45 1 23 43
M  V30 46 1 24 44
M  V30 47 1 27 45
M  V30 48 1 27 46
M  V30 END BOND
M  V30 END CTAB
M  END
