
     RDKit          3D

  0  0  0  0  0  0  0  0  0  0999 V3000
M  V30 BEGIN CTAB
M  V30 COUNTS 21 21 0 0 0
M  V30 BEGIN ATOM
M  V30 1 C 0.730577 2.87816 0.171332 0
M  V30 2 C 0.253519 1.45553 0.0842141 0
M  V30 3 C 1.20053 0.463607 0.131689 0
M  V30 4 C 0.75564 -0.859759 0.0506186 0
M  V30 5 N 1.69945 -1.89814 0.0962571 0
M  V30 6 N 3.06774 -1.68737 0.218668 0
M  V30 7 N -0.562825 -1.04881 -0.0670495 0
M  V30 8 C -1.48266 -0.0757324 -0.11285 0
M  V30 9 N -2.88532 -0.388273 -0.241729 0
M  V30 10 N -3.26716 -1.725 -0.317908 0
M  V30 11 N -1.04556 1.18868 -0.0343684 0
M  V30 12 H 0.279182 3.4111 -0.697523 0
M  V30 13 H 0.297992 3.27159 1.13085 0
M  V30 14 H 1.81711 2.93692 0.173588 0
M  V30 15 H 2.2658 0.652711 0.22795 0
M  V30 16 H 1.36957 -2.88019 0.0362254 0
M  V30 17 H 3.23647 -1.14379 1.1078 0
M  V30 18 H 3.39269 -1.048 -0.551571 0
M  V30 19 H -3.60363 0.35625 -0.27804 0
M  V30 20 H -3.32511 -2.04543 -1.29812 0
M  V30 21 H -4.19402 -1.81406 0.16997 0
M  V30 END ATOM
M  V30 BEGIN BOND
M  V30 1 1 1 2
M  V30 2 2 2 3
M  V30 3 1 3 4
M  V30 4 1 4 5
M  V30 5 1 5 6
M  V30 6 2 4 7
M  V30 7 1 7 8
M  V30 8 1 8 9
M  V30 9 1 9 10
M  V30 10 2 8 11
M  V30 11 1 11 2
M  V30 12 1 1 12
M  V30 13 1 1 13
M  V30 14 1 1 14
M  V30 15 1 3 15
M  V30 16 1 5 16
M  V30 17 1 6 17
M  V30 18 1 6 18
M  V30 19 1 9 19
M  V30 20 1 10 20
M  V30 21 1 10 21
M  V30 END BOND
M  V30 END CTAB
M  END
