
     RDKit          3D

  0  0  0  0  0  0  0  0  0  0999 V3000
M  V30 BEGIN CTAB
M  V30 COUNTS 46 47 0 0 0
M  V30 BEGIN ATOM
M  V30 1 C -0.366475 -1.06117 -1.25486 0
M  V30 2 N -0.574645 0.0888572 -0.412304 0
M  V30 3 N 0.402318 0.413939 0.523549 0
M  V30 4 C 1.77114 0.205336 0.234703 0
M  V30 5 O 2.1453 -0.283394 -0.878941 0
M  V30 6 C 2.81713 0.548015 1.21691 0
M  V30 7 C 4.17461 0.243535 0.69741 0
M  V30 8 C 4.86977 1.19855 -0.0139101 0
M  V30 9 C 6.1266 0.881376 -0.488709 0
M  V30 10 C 6.70195 -0.348641 -0.275884 0
M  V30 11 C 5.97923 -1.28778 0.442141 0
M  V30 12 C 4.70827 -0.998615 0.935218 0
M  V30 13 N 8.00229 -0.623306 -0.79271 0
M  V30 14 C 0.028643 0.970909 1.80769 0
M  V30 15 C -1.73183 0.867128 -0.533932 0
M  V30 16 O -1.87982 1.85055 0.234945 0
M  V30 17 C -2.80208 0.604795 -1.51728 0
M  V30 18 C -4.11026 0.281488 -0.895543 0
M  V30 19 C -5.01017 1.22477 -0.461987 0
M  V30 20 C -6.22554 0.86335 0.110797 0
M  V30 21 C -6.58206 -0.458069 0.269181 0
M  V30 22 C -5.68201 -1.40894 -0.165113 0
M  V30 23 C -4.47855 -1.05528 -0.732092 0
M  V30 24 N -7.83203 -0.838017 0.861468 0
M  V30 25 H 0.255758 -1.84609 -0.731476 0
M  V30 26 H 0.0764462 -0.777844 -2.22415 0
M  V30 27 H -1.34177 -1.56869 -1.43085 0
M  V30 28 H 2.77636 1.6174 1.46056 0
M  V30 29 H 2.66185 -0.0780735 2.11956 0
M  V30 30 H 4.45353 2.19157 -0.209886 0
M  V30 31 H 6.67815 1.62174 -1.04577 0
M  V30 32 H 6.41263 -2.26222 0.619859 0
M  V30 33 H 4.21617 -1.78573 1.48259 0
M  V30 34 H 8.23132 -0.350474 -1.77879 0
M  V30 35 H 8.68992 -1.08503 -0.183191 0
M  V30 36 H -0.967219 0.634863 2.16262 0
M  V30 37 H 0.0931182 2.09935 1.80076 0
M  V30 38 H 0.820295 0.651948 2.5413 0
M  V30 39 H -2.95938 1.53779 -2.14044 0
M  V30 40 H -2.51488 -0.155595 -2.28433 0
M  V30 41 H -4.73374 2.26174 -0.583478 0
M  V30 42 H -6.92324 1.63364 0.447546 0
M  V30 43 H -5.9705 -2.44167 -0.0379728 0
M  V30 44 H -3.78111 -1.80363 -1.06926 0
M  V30 45 H -8.22882 -0.338233 1.68656 0
M  V30 46 H -8.39666 -1.63616 0.487484 0
M  V30 END ATOM
M  V30 BEGIN BOND
M  V30 1 1 1 2
M  V30 2 1 2 3
M  V30 3 1 3 4
M  V30 4 2 4 5
M  V30 5 1 4 6
M  V30 6 1 6 7
M  V30 7 2 7 8
M  V30 8 1 8 9
M  V30 9 2 9 10
M  V30 10 1 10 11
M  V30 11 2 11 12
M  V30 12 1 10 13
M  V30 13 1 3 14
M  V30 14 1 2 15
M  V30 15 2 15 16
M  V30 16 1 15 17
M  V30 17 1 17 18
M  V30 18 2 18 19
M  V30 19 1 19 20
M  V30 20 2 20 21
M  V30 21 1 21 22
M  V30 22 2 22 23
M  V30 23 1 21 24
M  V30 24 1 12 7
M  V30 25 1 23 18
M  V30 26 1 1 25
M  V30 27 1 1 26
M  V30 28 1 1 27
M  V30 29 1 6 28
M  V30 30 1 6 29
M  V30 31 1 8 30
M  V30 32 1 9 31
M  V30 33 1 11 32
M  V30 34 1 12 33
M  V30 35 1 13 34
M  V30 36 1 13 35
M  V30 37 1 14 36
M  V30 38 1 14 37
M  V30 39 1 14 38
M  V30 40 1 17 39
M  V30 41 1 17 40
M  V30 42 1 19 41
M  V30 43 1 20 42
M  V30 44 1 22 43
M  V30 45 1 23 44
M  V30 46 1 24 45
M  V30 47 1 24 46
M  V30 END BOND
M  V30 END CTAB
M  END
