
     RDKit          3D

  0  0  0  0  0  0  0  0  0  0999 V3000
M  V30 BEGIN CTAB
M  V30 COUNTS 16 16 0 0 0
M  V30 BEGIN ATOM
M  V30 1 Cl -2.80835 -2.58787 -0.393661 0
M  V30 2 C -1.62923 -1.29659 -0.225187 0
M  V30 3 C -0.292771 -1.5854 -0.0436237 0
M  V30 4 C 0.636387 -0.573341 0.0890907 0
M  V30 5 N 2.02784 -0.842783 0.278278 0
M  V30 6 C 0.272309 0.767252 0.0463768 0
M  V30 7 C -1.07346 1.05072 -0.136493 0
M  V30 8 C -1.99215 0.0329775 -0.267805 0
M  V30 9 I -1.65823 3.08834 -0.205714 0
M  V30 10 N 1.23112 1.79452 0.18324 0
M  V30 11 H 0.0524833 -2.5998 -0.00173969 0
M  V30 12 H 2.44083 -1.11664 1.17743 0
M  V30 13 H 2.67633 -0.760237 -0.538413 0
M  V30 14 H -3.05343 0.264744 -0.411976 0
M  V30 15 H 1.28498 2.53769 -0.532524 0
M  V30 16 H 1.88534 1.82642 0.982723 0
M  V30 END ATOM
M  V30 BEGIN BOND
M  V30 1 1 1 2
M  V30 2 2 2 3
M  V30 3 1 3 4
M  V30 4 1 4 5
M  V30 5 2 4 6
M  V30 6 1 6 7
M  V30 7 2 7 8
M  V30 8 1 7 9
M  V30 9 1 6 10
M  V30 10 1 8 2
M  V30 11 1 3 11
M  V30 12 1 5 12
M  V30 13 1 5 13
M  V30 14 1 8 14
M  V30 15 1 10 15
M  V30 16 1 10 16
M  V30 END BOND
M  V30 END CTAB
M  END
