
     RDKit          3D

  0  0  0  0  0  0  0  0  0  0999 V3000
M  V30 BEGIN CTAB
M  V30 COUNTS 24 25 0 0 0
M  V30 BEGIN ATOM
M  V30 1 N -2.09036 -3.0272 0.654138 0
M  V30 2 N -2.75994 -1.8522 0.385033 0
M  V30 3 C -2.06973 -0.628135 0.211742 0
M  V30 4 N -2.66893 0.52867 -0.0485477 0
M  V30 5 C -2.00706 1.68409 -0.211347 0
M  V30 6 N -2.68413 2.89926 -0.488435 0
M  V30 7 N -0.649751 1.64381 -0.0992408 0
M  V30 8 C -0.00301932 0.501318 0.162062 0
M  V30 9 N -0.718871 -0.625665 0.315437 0
M  V30 10 C 1.45235 0.433445 0.286839 0
M  V30 11 C 2.07845 -0.776822 0.559065 0
M  V30 12 C 3.43248 -0.891694 0.684712 0
M  V30 13 C 4.20437 0.240114 0.534781 0
M  V30 14 N 3.59242 1.42091 0.269098 0
M  V30 15 C 2.25606 1.54554 0.143011 0
M  V30 16 H -1.41677 -3.20795 -0.125701 0
M  V30 17 H -2.71684 -3.84922 0.763214 0
M  V30 18 H -3.79847 -1.86446 0.307179 0
M  V30 19 H -3.44168 3.22035 0.128322 0
M  V30 20 H -2.41003 3.45351 -1.30986 0
M  V30 21 H 1.45483 -1.6498 0.672529 0
M  V30 22 H 3.91388 -1.83314 0.896043 0
M  V30 23 H 5.27529 0.140951 0.635692 0
M  V30 24 H 1.77542 2.49431 -0.0696244 0
M  V30 END ATOM
M  V30 BEGIN BOND
M  V30 1 1 1 2
M  V30 2 1 2 3
M  V30 3 2 3 4
M  V30 4 1 4 5
M  V30 5 1 5 6
M  V30 6 2 5 7
M  V30 7 1 7 8
M  V30 8 2 8 9
M  V30 9 1 8 10
M  V30 10 2 10 11
M  V30 11 1 11 12
M  V30 12 2 12 13
M  V30 13 1 13 14
M  V30 14 2 14 15
M  V30 15 1 9 3
M  V30 16 1 15 10
M  V30 17 1 1 16
M  V30 18 1 1 17
M  V30 19 1 2 18
M  V30 20 1 6 19
M  V30 21 1 6 20
M  V30 22 1 11 21
M  V30 23 1 12 22
M  V30 24 1 13 23
M  V30 25 1 15 24
M  V30 END BOND
M  V30 END CTAB
M  END
