
     RDKit          3D

  0  0  0  0  0  0  0  0  0  0999 V3000
M  V30 BEGIN CTAB
M  V30 COUNTS 55 57 0 0 0
M  V30 BEGIN ATOM
M  V30 1 C -5.83303 2.07908 -0.671942 0
M  V30 2 C -4.71913 1.16522 -0.270576 0
M  V30 3 C -3.40114 1.51215 -0.650969 0
M  V30 4 C -3.25291 2.8099 -1.31904 0
M  V30 5 C -2.31895 0.727646 -0.358547 0
M  V30 6 C -2.58049 -0.460853 0.35613 0
M  V30 7 C -3.84248 -0.817034 0.736857 0
M  V30 8 C -4.92872 0.00633794 0.419688 0
M  V30 9 N -6.22959 -0.374649 0.839915 0
M  V30 10 C -6.43201 -1.61972 1.54811 0
M  V30 11 N -6.91967 -2.73625 0.849527 0
M  V30 12 N -6.15244 -1.64266 2.79542 0
M  V30 13 C -0.969364 0.999516 -0.80206 0
M  V30 14 C -0.452469 1.864 -1.72272 0
M  V30 15 C 0.918519 1.69257 -1.74044 0
M  V30 16 C 1.18804 0.712263 -0.814372 0
M  V30 17 O 0.0748148 0.333591 -0.290827 0
M  V30 18 C 2.54695 0.221001 -0.517008 0
M  V30 19 C 2.7726 -0.759667 0.418633 0
M  V30 20 C 1.62749 -1.34796 1.16601 0
M  V30 21 C 4.06301 -1.22837 0.699809 0
M  V30 22 C 4.20613 -2.29519 1.72565 0
M  V30 23 C 5.14124 -0.696032 0.0240119 0
M  V30 24 N 6.46796 -1.11837 0.260135 0
M  V30 25 C 7.53503 -0.542464 -0.464981 0
M  V30 26 N 8.21305 0.601155 0.0353016 0
M  V30 27 N 7.92402 -1.04595 -1.61093 0
M  V30 28 C 4.9261 0.302844 -0.930928 0
M  V30 29 C 3.648 0.728549 -1.1718 0
M  V30 30 H -5.62593 2.36422 -1.74325 0
M  V30 31 H -6.81114 1.56583 -0.704699 0
M  V30 32 H -5.87322 3.00258 -0.0946586 0
M  V30 33 H -3.26108 2.71352 -2.39424 0
M  V30 34 H -2.4199 3.42209 -0.881267 0
M  V30 35 H -4.1528 3.46456 -1.06606 0
M  V30 36 H -1.72336 -1.08622 0.591113 0
M  V30 37 H -4.05032 -1.7194 1.27976 0
M  V30 38 H -7.04346 0.230952 0.652183 0
M  V30 39 H -7.86572 -3.12888 1.06126 0
M  V30 40 H -6.36412 -3.20033 0.111409 0
M  V30 41 H -5.79348 -0.816679 3.30444 0
M  V30 42 H -0.932798 2.56296 -2.37248 0
M  V30 43 H 1.63041 2.22473 -2.35961 0
M  V30 44 H 1.97362 -2.07434 1.91868 0
M  V30 45 H 0.901428 -1.85564 0.514568 0
M  V30 46 H 1.09387 -0.550592 1.76196 0
M  V30 47 H 3.8387 -1.94609 2.71983 0
M  V30 48 H 5.20994 -2.66226 1.83432 0
M  V30 49 H 3.58178 -3.14986 1.33789 0
M  V30 50 H 6.68863 -1.83837 0.950533 0
M  V30 51 H 9.25702 0.55139 0.0706787 0
M  V30 52 H 7.76368 1.46417 0.36167 0
M  V30 53 H 7.47748 -1.87195 -2.0304 0
M  V30 54 H 5.79347 0.697166 -1.44123 0
M  V30 55 H 3.48676 1.5105 -1.92046 0
M  V30 END ATOM
M  V30 BEGIN BOND
M  V30 1 1 1 2
M  V30 2 2 2 3
M  V30 3 1 3 4
M  V30 4 1 3 5
M  V30 5 2 5 6
M  V30 6 1 6 7
M  V30 7 2 7 8
M  V30 8 1 8 9
M  V30 9 1 9 10
M  V30 10 1 10 11
M  V30 11 2 10 12 CFG=2
M  V30 12 1 5 13
M  V30 13 2 13 14
M  V30 14 1 14 15
M  V30 15 2 15 16
M  V30 16 1 16 17
M  V30 17 1 16 18
M  V30 18 2 18 19
M  V30 19 1 19 20
M  V30 20 1 19 21
M  V30 21 1 21 22
M  V30 22 2 21 23
M  V30 23 1 23 24
M  V30 24 1 24 25
M  V30 25 1 25 26
M  V30 26 2 25 27 CFG=2
M  V30 27 1 23 28
M  V30 28 2 28 29
M  V30 29 1 8 2
M  V30 30 1 17 13
M  V30 31 1 29 18
M  V30 32 1 1 30
M  V30 33 1 1 31
M  V30 34 1 1 32
M  V30 35 1 4 33
M  V30 36 1 4 34
M  V30 37 1 4 35
M  V30 38 1 6 36
M  V30 39 1 7 37
M  V30 40 1 9 38
M  V30 41 1 11 39
M  V30 42 1 11 40
M  V30 43 1 12 41
M  V30 44 1 14 42
M  V30 45 1 15 43
M  V30 46 1 20 44
M  V30 47 1 20 45
M  V30 48 1 20 46
M  V30 49 1 22 47
M  V30 50 1 22 48
M  V30 51 1 22 49
M  V30 52 1 24 50
M  V30 53 1 26 51
M  V30 54 1 26 52
M  V30 55 1 27 53
M  V30 56 1 28 54
M  V30 57 1 29 55
M  V30 END BOND
M  V30 END CTAB
M  END
