
     RDKit          3D

  0  0  0  0  0  0  0  0  0  0999 V3000
M  V30 BEGIN CTAB
M  V30 COUNTS 59 62 0 0 0
M  V30 BEGIN ATOM
M  V30 1 C 6.47342 -1.86314 3.33932 0
M  V30 2 O 5.3905 -1.35196 2.59415 0
M  V30 3 C 5.59065 -0.247576 1.75833 0
M  V30 4 C 6.80829 0.331499 1.65909 0
M  V30 5 C 7.01708 1.41792 0.840682 0
M  V30 6 Cl 8.61755 2.11248 0.762813 0
M  V30 7 C 6.00492 1.96111 0.0915116 0
M  V30 8 C 4.74319 1.34911 0.203902 0
M  V30 9 C 4.51927 0.27027 1.01148 0
M  V30 10 N 3.2639 -0.336114 1.11843 0
M  V30 11 C 2.05351 -0.0126922 0.490348 0
M  V30 12 O 1.93426 0.923069 -0.297892 0
M  V30 13 C 0.867564 -0.82918 0.785317 0
M  V30 14 S 0.762202 -2.16045 1.81966 0
M  V30 15 C -0.909404 -2.52433 1.60073 0
M  V30 16 C -1.32431 -1.57218 0.711167 0
M  V30 17 C -0.377475 -0.681624 0.28712 0
M  V30 18 N -0.671422 0.40168 -0.663777 0
M  V30 19 C -2.6898 -1.6767 0.37868 0
M  V30 20 C -3.2975 -0.752546 -0.558855 0
M  V30 21 C -3.2467 -0.981523 -1.9123 0
M  V30 22 C -3.82831 -0.159851 -2.85588 0
M  V30 23 C -4.50076 0.958064 -2.41374 0
M  V30 24 C -4.56131 1.20511 -1.03747 0
M  V30 25 C -3.96767 0.360785 -0.126487 0
M  V30 26 O -5.24038 2.33047 -0.621539 0
M  V30 27 C -5.39334 2.7194 0.711222 0
M  V30 28 O -5.10362 1.81754 -3.32169 0
M  V30 29 C -5.05185 1.58489 -4.69509 0
M  V30 30 C -3.48574 -2.67193 0.93443 0
M  V30 31 C -3.00245 -3.59279 1.82012 0
M  V30 32 N -1.70477 -3.49978 2.14066 0
M  V30 33 N -3.83415 -4.60239 2.37595 0
M  V30 34 C -4.87023 -2.71134 0.544487 0
M  V30 35 N -5.99152 -2.76185 0.238059 0
M  V30 36 O 6.21216 3.05496 -0.733192 0
M  V30 37 C 5.12712 3.56717 -1.47964 0
M  V30 38 H 6.14545 -2.66268 4.03442 0
M  V30 39 H 7.20233 -2.34514 2.63794 0
M  V30 40 H 7.00581 -1.09198 3.92397 0
M  V30 41 H 7.61181 -0.0996698 2.25351 0
M  V30 42 H 3.97896 1.82585 -0.416025 0
M  V30 43 H 3.20709 -1.19209 1.79058 0
M  V30 44 H -1.06814 1.29559 -0.379083 0
M  V30 45 H -0.442665 0.229253 -1.65444 0
M  V30 46 H -2.72673 -1.8558 -2.34752 0
M  V30 47 H -3.77001 -0.367762 -3.91025 0
M  V30 48 H -4.06979 0.639367 0.936989 0
M  V30 49 H -4.44671 2.68279 1.28232 0
M  V30 50 H -5.69388 3.80643 0.704477 0
M  V30 51 H -6.21905 2.18856 1.22098 0
M  V30 52 H -4.03412 1.6051 -5.11323 0
M  V30 53 H -5.7387 2.25092 -5.24591 0
M  V30 54 H -5.45983 0.545 -4.86062 0
M  V30 55 H -4.22162 -4.51013 3.34457 0
M  V30 56 H -4.07629 -5.46338 1.82184 0
M  V30 57 H 4.62737 2.77816 -2.09654 0
M  V30 58 H 5.45393 4.37234 -2.1729 0
M  V30 59 H 4.40193 3.9937 -0.782581 0
M  V30 END ATOM
M  V30 BEGIN BOND
M  V30 1 1 1 2
M  V30 2 1 2 3
M  V30 3 2 3 4
M  V30 4 1 4 5
M  V30 5 1 5 6
M  V30 6 2 5 7
M  V30 7 1 7 8
M  V30 8 2 8 9
M  V30 9 1 9 10
M  V30 10 1 10 11
M  V30 11 2 11 12
M  V30 12 1 11 13
M  V30 13 1 13 14
M  V30 14 1 14 15
M  V30 15 2 15 16
M  V30 16 1 16 17
M  V30 17 1 17 18
M  V30 18 1 16 19
M  V30 19 1 19 20
M  V30 20 2 20 21
M  V30 21 1 21 22
M  V30 22 2 22 23
M  V30 23 1 23 24
M  V30 24 2 24 25
M  V30 25 1 24 26
M  V30 26 1 26 27
M  V30 27 1 23 28
M  V30 28 1 28 29
M  V30 29 2 19 30
M  V30 30 1 30 31
M  V30 31 2 31 32
M  V30 32 1 31 33
M  V30 33 1 30 34
M  V30 34 3 34 35
M  V30 35 1 7 36
M  V30 36 1 36 37
M  V30 37 1 9 3
M  V30 38 2 17 13
M  V30 39 1 25 20
M  V30 40 1 32 15
M  V30 41 1 1 38
M  V30 42 1 1 39
M  V30 43 1 1 40
M  V30 44 1 4 41
M  V30 45 1 8 42
M  V30 46 1 10 43
M  V30 47 1 18 44
M  V30 48 1 18 45
M  V30 49 1 21 46
M  V30 50 1 22 47
M  V30 51 1 25 48
M  V30 52 1 27 49
M  V30 53 1 27 50
M  V30 54 1 27 51
M  V30 55 1 29 52
M  V30 56 1 29 53
M  V30 57 1 29 54
M  V30 58 1 33 55
M  V30 59 1 33 56
M  V30 60 1 37 57
M  V30 61 1 37 58
M  V30 62 1 37 59
M  V30 END BOND
M  V30 END CTAB
M  END
