
     RDKit          3D

  0  0  0  0  0  0  0  0  0  0999 V3000
M  V30 BEGIN CTAB
M  V30 COUNTS 21 21 0 0 0
M  V30 BEGIN ATOM
M  V30 1 N -1.48515 1.32687 -1.39528 0
M  V30 2 C -1.21276 0.120113 -0.638355 0
M  V30 3 C -2.13541 -0.106512 0.474399 0
M  V30 4 N -2.22835 -1.31703 1.19631 0
M  V30 5 S -3.13031 1.12107 0.918521 0
M  V30 6 C 0.217979 0.0562217 -0.256067 0
M  V30 7 C 0.636641 -0.148043 1.03317 0
M  V30 8 C 2.01079 -0.207799 1.30978 0
M  V30 9 C 2.97625 -0.0694077 0.338633 0
M  V30 10 C 2.55184 0.136272 -0.956431 0
M  V30 11 C 1.20957 0.196558 -1.24034 0
M  V30 12 H -1.86051 2.09788 -0.832683 0
M  V30 13 H -2.04967 1.15563 -2.24086 0
M  V30 14 H -1.38346 -0.721032 -1.37009 0
M  V30 15 H -2.44564 -1.28721 2.21703 0
M  V30 16 H -2.07759 -2.21715 0.693183 0
M  V30 17 H -0.0668829 -0.257143 1.85436 0
M  V30 18 H 2.32509 -0.36835 2.32208 0
M  V30 19 H 4.0295 -0.122448 0.597376 0
M  V30 20 H 3.27265 0.25331 -1.76896 0
M  V30 21 H 0.845426 0.358207 -2.25578 0
M  V30 END ATOM
M  V30 BEGIN BOND
M  V30 1 1 1 2
M  V30 2 1 2 3
M  V30 3 1 3 4
M  V30 4 2 3 5
M  V30 5 1 2 6
M  V30 6 2 6 7
M  V30 7 1 7 8
M  V30 8 2 8 9
M  V30 9 1 9 10
M  V30 10 2 10 11
M  V30 11 1 11 6
M  V30 12 1 1 12
M  V30 13 1 1 13
M  V30 14 1 2 14
M  V30 15 1 4 15
M  V30 16 1 4 16
M  V30 17 1 7 17
M  V30 18 1 8 18
M  V30 19 1 9 19
M  V30 20 1 10 20
M  V30 21 1 11 21
M  V30 END BOND
M  V30 END CTAB
M  END
