
     RDKit          3D

  0  0  0  0  0  0  0  0  0  0999 V3000
M  V30 BEGIN CTAB
M  V30 COUNTS 26 26 0 0 0
M  V30 BEGIN ATOM
M  V30 1 N -1.69754 1.89355 -1.62914 0
M  V30 2 C -2.08043 0.66833 -0.97154 0
M  V30 3 N -3.23113 0.0593245 -1.30209 0
M  V30 4 C -3.65386 -1.08112 -0.735797 0
M  V30 5 C -2.85876 -1.64981 0.235291 0
M  V30 6 C -1.65589 -1.02479 0.589893 0
M  V30 7 C -1.23398 0.147379 -0.00149832 0
M  V30 8 N -0.0412909 0.824045 0.33331 0
M  V30 9 C 0.977802 0.385857 1.22835 0
M  V30 10 C 1.78802 -0.790824 0.733514 0
M  V30 11 S 2.61923 -0.382425 -0.796306 0
M  V30 12 O 3.43889 -1.56986 -1.21283 0
M  V30 13 O 1.60706 -0.0390935 -1.84672 0
M  V30 14 N 3.68596 0.946372 -0.589808 0
M  V30 15 H -1.57613 2.72099 -1.01418 0
M  V30 16 H -1.54864 1.95764 -2.65866 0
M  V30 17 H -4.6066 -1.52556 -1.05463 0
M  V30 18 H -3.17435 -2.574 0.712671 0
M  V30 19 H -1.05872 -1.48825 1.36352 0
M  V30 20 H 0.11444 1.76333 -0.132521 0
M  V30 21 H 1.71063 1.19781 1.41741 0
M  V30 22 H 0.551864 0.160312 2.25258 0
M  V30 23 H 1.10754 -1.62702 0.535812 0
M  V30 24 H 2.52167 -1.09648 1.49312 0
M  V30 25 H 3.64568 1.37293 0.35086 0
M  V30 26 H 4.64853 0.751368 -0.930991 0
M  V30 END ATOM
M  V30 BEGIN BOND
M  V30 1 1 1 2
M  V30 2 2 2 3
M  V30 3 1 3 4
M  V30 4 2 4 5
M  V30 5 1 5 6
M  V30 6 2 6 7
M  V30 7 1 7 8
M  V30 8 1 8 9
M  V30 9 1 9 10
M  V30 10 1 10 11
M  V30 11 2 11 12
M  V30 12 2 11 13
M  V30 13 1 11 14
M  V30 14 1 7 2
M  V30 15 1 1 15
M  V30 16 1 1 16
M  V30 17 1 4 17
M  V30 18 1 5 18
M  V30 19 1 6 19
M  V30 20 1 8 20
M  V30 21 1 9 21
M  V30 22 1 9 22
M  V30 23 1 10 23
M  V30 24 1 10 24
M  V30 25 1 14 25
M  V30 26 1 14 26
M  V30 END BOND
M  V30 END CTAB
M  END
