
     RDKit          3D

  0  0  0  0  0  0  0  0  0  0999 V3000
M  V30 BEGIN CTAB
M  V30 COUNTS 24 25 0 0 0
M  V30 BEGIN ATOM
M  V30 1 N 2.5651 2.29853 -0.665749 0
M  V30 2 N 2.45446 0.941761 -0.398475 0
M  V30 3 C 1.16483 0.384963 -0.264561 0
M  V30 4 N 0.0472041 1.12496 -0.387249 0
M  V30 5 C -1.18982 0.612471 -0.263066 0
M  V30 6 C -2.33338 1.37988 -0.390622 0
M  V30 7 C -3.60595 0.870575 -0.266398 0
M  V30 8 C -3.76858 -0.472224 -0.00105513 0
M  V30 9 C -2.63394 -1.25818 0.1303 0
M  V30 10 C -1.36156 -0.730616 0.00251117 0
M  V30 11 N -0.252715 -1.48237 0.127665 0
M  V30 12 C 0.986255 -0.969965 0.00346353 0
M  V30 13 N 2.16126 -1.75311 0.133451 0
M  V30 14 N 2.83303 -1.96963 1.31538 0
M  V30 15 H 1.69067 2.77123 -0.904685 0
M  V30 16 H 3.14693 2.74342 0.0468216 0
M  V30 17 H 3.31228 0.380654 -0.305529 0
M  V30 18 H -2.19862 2.4241 -0.597105 0
M  V30 19 H -4.5019 1.48091 -0.368128 0
M  V30 20 H -4.72931 -0.926487 0.106345 0
M  V30 21 H -2.7555 -2.31517 0.339033 0
M  V30 22 H 2.54543 -2.19827 -0.729862 0
M  V30 23 H 3.86555 -1.96507 1.23497 0
M  V30 24 H 2.5583 -1.37235 2.10254 0
M  V30 END ATOM
M  V30 BEGIN BOND
M  V30 1 1 1 2
M  V30 2 1 2 3
M  V30 3 2 3 4
M  V30 4 1 4 5
M  V30 5 2 5 6
M  V30 6 1 6 7
M  V30 7 2 7 8
M  V30 8 1 8 9
M  V30 9 2 9 10
M  V30 10 1 10 11
M  V30 11 2 11 12
M  V30 12 1 12 13
M  V30 13 1 13 14
M  V30 14 1 12 3
M  V30 15 1 10 5
M  V30 16 1 1 15
M  V30 17 1 1 16
M  V30 18 1 2 17
M  V30 19 1 6 18
M  V30 20 1 7 19
M  V30 21 1 8 20
M  V30 22 1 9 21
M  V30 23 1 13 22
M  V30 24 1 14 23
M  V30 25 1 14 24
M  V30 END BOND
M  V30 END CTAB
M  END
