
     RDKit          3D

  0  0  0  0  0  0  0  0  0  0999 V3000
M  V30 BEGIN CTAB
M  V30 COUNTS 37 36 0 0 0
M  V30 BEGIN ATOM
M  V30 1 C 4.17241 0.0571016 0.974547 0
M  V30 2 C 3.04408 0.928288 0.562913 0
M  V30 3 C 1.80938 0.204602 0.166645 0
M  V30 4 C 1.18116 -0.658425 1.21759 0 CFG=1
M  V30 5 C -0.0367624 -1.30449 0.681846 0
M  V30 6 O -0.166418 -2.54954 0.6931 0
M  V30 7 N -1.08318 -0.525496 0.144105 0
M  V30 8 C -2.27852 -1.11554 -0.384278 0
M  V30 9 C -3.24565 -0.0609035 -0.900644 0
M  V30 10 N -4.44692 -0.675614 -1.43043 0
M  V30 11 C -3.6219 0.805856 0.298053 0
M  V30 12 C -2.60512 0.742781 -1.99175 0
M  V30 13 N 2.13683 -1.58718 1.72203 0
M  V30 14 C 3.42711 1.80832 -0.639055 0
M  V30 15 H 4.21821 -0.144357 2.04496 0
M  V30 16 H 4.20511 -0.878671 0.401754 0
M  V30 17 H 5.1144 0.600473 0.726754 0
M  V30 18 H 2.7766 1.59636 1.41947 0
M  V30 19 H 1.07974 0.991921 -0.19221 0
M  V30 20 H 2.03542 -0.377407 -0.754513 0
M  V30 21 H 0.85257 -0.0243147 2.09284 0
M  V30 22 H -0.989187 0.505396 0.128505 0
M  V30 23 H -2.73607 -1.73227 0.407969 0
M  V30 24 H -2.01393 -1.74371 -1.25387 0
M  V30 25 H -4.89892 -1.18298 -0.637584 0
M  V30 26 H -4.11514 -1.41981 -2.10211 0
M  V30 27 H -2.78686 0.856625 1.02654 0
M  V30 28 H -3.8603 1.8183 -0.0624228 0
M  V30 29 H -4.49967 0.350489 0.834423 0
M  V30 30 H -2.02786 0.0518139 -2.634 0
M  V30 31 H -3.39064 1.26455 -2.57139 0
M  V30 32 H -1.97363 1.52281 -1.51587 0
M  V30 33 H 2.3598 -1.50652 2.71534 0
M  V30 34 H 1.93735 -2.57688 1.50994 0
M  V30 35 H 3.76466 1.107 -1.42776 0
M  V30 36 H 4.1959 2.5271 -0.34655 0
M  V30 37 H 2.46594 2.32432 -0.924886 0
M  V30 END ATOM
M  V30 BEGIN BOND
M  V30 1 1 1 2
M  V30 2 1 2 3
M  V30 3 1 3 4
M  V30 4 1 4 5
M  V30 5 2 5 6
M  V30 6 1 5 7
M  V30 7 1 7 8
M  V30 8 1 8 9
M  V30 9 1 9 10
M  V30 10 1 9 11
M  V30 11 1 9 12
M  V30 12 1 4 13
M  V30 13 1 2 14
M  V30 14 1 1 15
M  V30 15 1 1 16
M  V30 16 1 1 17
M  V30 17 1 2 18
M  V30 18 1 3 19
M  V30 19 1 3 20
M  V30 20 1 4 21 CFG=1
M  V30 21 1 7 22
M  V30 22 1 8 23
M  V30 23 1 8 24
M  V30 24 1 10 25
M  V30 25 1 10 26
M  V30 26 1 11 27
M  V30 27 1 11 28
M  V30 28 1 11 29
M  V30 29 1 12 30
M  V30 30 1 12 31
M  V30 31 1 12 32
M  V30 32 1 13 33
M  V30 33 1 13 34
M  V30 34 1 14 35
M  V30 35 1 14 36
M  V30 36 1 14 37
M  V30 END BOND
M  V30 END CTAB
M  END
