
     RDKit          3D

  0  0  0  0  0  0  0  0  0  0999 V3000
M  V30 BEGIN CTAB
M  V30 COUNTS 47 47 0 0 0
M  V30 BEGIN ATOM
M  V30 1 N -4.63753 0.960904 -1.36407 0
M  V30 2 C -4.14005 -0.0217777 -0.407552 0
M  V30 3 C -5.0728 -0.0243742 0.759665 0
M  V30 4 C -6.45466 -0.403971 0.242059 0
M  V30 5 C -4.71058 -1.00256 1.82991 0
M  V30 6 C -2.73596 0.380846 -0.0168657 0
M  V30 7 C -1.87529 0.402473 -1.23783 0
M  V30 8 N -0.484359 0.794091 -0.899001 0
M  V30 9 C 0.380442 -0.23099 -0.573295 0
M  V30 10 O -0.182133 -1.41391 -0.615633 0
M  V30 11 C 1.77046 -0.274085 -0.196771 0
M  V30 12 C 2.61584 0.803765 -0.0758435 0
M  V30 13 C 3.96146 0.663053 0.30035 0
M  V30 14 C 4.52019 -0.553877 0.571153 0
M  V30 15 C 3.69065 -1.64015 0.455268 0
M  V30 16 C 2.37595 -1.51355 0.0888176 0
M  V30 17 C 5.94533 -0.711781 0.970505 0
M  V30 18 S 7.00032 -0.938263 -0.440914 0
M  V30 19 O 8.41733 -0.989755 0.0712254 0
M  V30 20 O 6.61505 -2.20381 -1.14062 0
M  V30 21 N 6.89422 0.4244 -1.49847 0
M  V30 22 C -0.16967 2.18202 -0.938678 0
M  V30 23 H -5.59505 0.727387 -1.69273 0
M  V30 24 H -4.53908 1.92539 -1.01811 0
M  V30 25 H -4.16924 -0.994762 -0.915989 0
M  V30 26 H -5.18298 1.00042 1.1926 0
M  V30 27 H -6.30839 -1.08648 -0.613948 0
M  V30 28 H -7.01065 0.478808 -0.0833786 0
M  V30 29 H -7.00445 -0.95687 1.051 0
M  V30 30 H -5.37924 -0.786838 2.70824 0
M  V30 31 H -4.9856 -2.04036 1.4913 0
M  V30 32 H -3.68725 -0.928612 2.20168 0
M  V30 33 H -2.39245 -0.362712 0.730348 0
M  V30 34 H -2.78093 1.35084 0.508797 0
M  V30 35 H -2.23951 1.10269 -2.00926 0
M  V30 36 H -1.84601 -0.605897 -1.67965 0
M  V30 37 H 2.25152 1.79933 -0.2735 0
M  V30 38 H 4.5668 1.55418 0.375171 0
M  V30 39 H 4.12755 -2.61727 0.669534 0
M  V30 40 H 1.73515 -2.37873 0.00196239 0
M  V30 41 H 6.3254 0.158636 1.52459 0
M  V30 42 H 6.09663 -1.60456 1.62382 0
M  V30 43 H 7.79846 0.44457 -2.05863 0
M  V30 44 H 6.88725 1.27482 -0.887891 0
M  V30 45 H -1.12152 2.80006 -1.14987 0
M  V30 46 H 0.595629 2.48244 -1.67975 0
M  V30 47 H 0.133775 2.57483 0.0506611 0
M  V30 END ATOM
M  V30 BEGIN BOND
M  V30 1 1 1 2
M  V30 2 1 2 3
M  V30 3 1 3 4
M  V30 4 1 3 5
M  V30 5 1 2 6
M  V30 6 1 6 7
M  V30 7 1 7 8
M  V30 8 1 8 9
M  V30 9 2 9 10
M  V30 10 1 9 11
M  V30 11 2 11 12
M  V30 12 1 12 13
M  V30 13 2 13 14
M  V30 14 1 14 15
M  V30 15 2 15 16
M  V30 16 1 14 17
M  V30 17 1 17 18
M  V30 18 2 18 19
M  V30 19 2 18 20
M  V30 20 1 18 21
M  V30 21 1 8 22
M  V30 22 1 16 11
M  V30 23 1 1 23
M  V30 24 1 1 24
M  V30 25 1 2 25
M  V30 26 1 3 26
M  V30 27 1 4 27
M  V30 28 1 4 28
M  V30 29 1 4 29
M  V30 30 1 5 30
M  V30 31 1 5 31
M  V30 32 1 5 32
M  V30 33 1 6 33
M  V30 34 1 6 34
M  V30 35 1 7 35
M  V30 36 1 7 36
M  V30 37 1 12 37
M  V30 38 1 13 38
M  V30 39 1 15 39
M  V30 40 1 16 40
M  V30 41 1 17 41
M  V30 42 1 17 42
M  V30 43 1 21 43
M  V30 44 1 21 44
M  V30 45 1 22 45
M  V30 46 1 22 46
M  V30 47 1 22 47
M  V30 END BOND
M  V30 END CTAB
M  END
