
     RDKit          3D

  0  0  0  0  0  0  0  0  0  0999 V3000
M  V30 BEGIN CTAB
M  V30 COUNTS 22 23 0 0 0
M  V30 BEGIN ATOM
M  V30 1 N 2.83447 1.33204 0.0902712 0
M  V30 2 C 1.54457 0.75381 0.0989614 0
M  V30 3 C 1.58499 -0.532945 -0.659466 0 CFG=2
M  V30 4 C 0.300045 -1.37542 -0.806231 0 CFG=1
M  V30 5 C 1.29163 -1.75485 0.206644 0
M  V30 6 F 2.11814 -2.82265 -0.0776503 0
M  V30 7 F 1.0774 -1.57427 1.55357 0
M  V30 8 C -0.915282 -0.625447 -0.524086 0
M  V30 9 N -2.00776 -0.639311 -1.30777 0
M  V30 10 N -2.92898 0.121197 -0.797005 0
M  V30 11 C -2.4625 0.661342 0.348158 0
M  V30 12 N -1.22256 0.198038 0.510816 0
M  V30 13 N -3.23272 1.5407 1.14469 0
M  V30 14 H 3.45401 0.983087 0.741798 0
M  V30 15 H 3.09121 1.71483 -0.798963 0
M  V30 16 H 1.23909 0.625813 1.15759 0
M  V30 17 H 0.835682 1.50758 -0.335647 0
M  V30 18 H 2.30189 -0.647145 -1.50568 0
M  V30 19 H 0.255724 -2.02955 -1.71585 0
M  V30 20 H -2.13881 -1.17808 -2.21671 0
M  V30 21 H -4.19168 1.29522 1.43588 0
M  V30 22 H -2.82856 2.44603 1.44107 0
M  V30 END ATOM
M  V30 BEGIN BOND
M  V30 1 1 1 2
M  V30 2 1 2 3
M  V30 3 1 3 4
M  V30 4 1 4 5
M  V30 5 1 5 6
M  V30 6 1 5 7
M  V30 7 1 4 8
M  V30 8 1 8 9
M  V30 9 1 9 10
M  V30 10 2 10 11
M  V30 11 1 11 12
M  V30 12 1 11 13
M  V30 13 1 5 3
M  V30 14 2 12 8
M  V30 15 1 1 14
M  V30 16 1 1 15
M  V30 17 1 2 16
M  V30 18 1 2 17
M  V30 19 1 3 18 CFG=3
M  V30 20 1 4 19 CFG=3
M  V30 21 1 9 20
M  V30 22 1 13 21
M  V30 23 1 13 22
M  V30 END BOND
M  V30 END CTAB
M  END
