
     RDKit          3D

  0  0  0  0  0  0  0  0  0  0999 V3000
M  V30 BEGIN CTAB
M  V30 COUNTS 38 39 0 0 0
M  V30 BEGIN ATOM
M  V30 1 C -4.43285 2.74796 0.77271 0
M  V30 2 O -3.08135 2.89184 1.21097 0
M  V30 3 C -2.1079 1.96128 0.931839 0
M  V30 4 C -0.812671 2.13642 1.40865 0
M  V30 5 F -0.529009 3.2477 2.14344 0
M  V30 6 C 0.148775 1.20048 1.13145 0
M  V30 7 C -0.200094 0.110068 0.384922 0
M  V30 8 O 0.722633 -0.884228 0.0485124 0
M  V30 9 C 2.06713 -0.815482 0.210955 0
M  V30 10 C 2.74373 -1.64775 1.05553 0
M  V30 11 N 4.09469 -1.52363 1.15716 0
M  V30 12 C 4.7817 -0.61165 0.455936 0
M  V30 13 N 6.21385 -0.5706 0.620286 0
M  V30 14 N 4.15446 0.204691 -0.367647 0
M  V30 15 C 2.8237 0.126456 -0.503853 0
M  V30 16 N 2.17353 0.972938 -1.40753 0
M  V30 17 C -1.47054 -0.123109 -0.123377 0
M  V30 18 C -2.40487 0.855826 0.186467 0
M  V30 19 C -1.84038 -1.3794 -0.797553 0
M  V30 20 C -2.1859 -1.25397 -2.25513 0
M  V30 21 C -1.19018 -2.6411 -0.365798 0
M  V30 22 H -4.53025 2.452 -0.267527 0
M  V30 23 H -4.90046 3.73484 0.956019 0
M  V30 24 H -4.88125 2.03805 1.51965 0
M  V30 25 H 1.1634 1.33796 1.51175 0
M  V30 26 H 2.28283 -2.4306 1.66846 0
M  V30 27 H 6.75856 0.315593 0.698071 0
M  V30 28 H 6.7484 -1.43955 0.672913 0
M  V30 29 H 1.71372 0.586065 -2.25243 0
M  V30 30 H 2.14315 1.9872 -1.23679 0
M  V30 31 H -3.42735 0.68019 -0.211931 0
M  V30 32 H -2.96054 -1.53999 -0.319861 0
M  V30 33 H -3.17649 -1.67067 -2.50584 0
M  V30 34 H -2.10779 -0.219172 -2.65947 0
M  V30 35 H -1.447 -1.91637 -2.80878 0
M  V30 36 H -1.8781 -3.5277 -0.45616 0
M  V30 37 H -0.229347 -2.8748 -0.92334 0
M  V30 38 H -0.939952 -2.51777 0.717313 0
M  V30 END ATOM
M  V30 BEGIN BOND
M  V30 1 1 1 2
M  V30 2 1 2 3
M  V30 3 2 3 4
M  V30 4 1 4 5
M  V30 5 1 4 6
M  V30 6 2 6 7
M  V30 7 1 7 8
M  V30 8 1 8 9
M  V30 9 2 9 10
M  V30 10 1 10 11
M  V30 11 2 11 12
M  V30 12 1 12 13
M  V30 13 1 12 14
M  V30 14 2 14 15
M  V30 15 1 15 16
M  V30 16 1 7 17
M  V30 17 2 17 18
M  V30 18 1 17 19
M  V30 19 1 19 20
M  V30 20 1 19 21
M  V30 21 1 18 3
M  V30 22 1 15 9
M  V30 23 1 1 22
M  V30 24 1 1 23
M  V30 25 1 1 24
M  V30 26 1 6 25
M  V30 27 1 10 26
M  V30 28 1 13 27
M  V30 29 1 13 28
M  V30 30 1 16 29
M  V30 31 1 16 30
M  V30 32 1 18 31
M  V30 33 1 19 32
M  V30 34 1 20 33
M  V30 35 1 20 34
M  V30 36 1 20 35
M  V30 37 1 21 36
M  V30 38 1 21 37
M  V30 39 1 21 38
M  V30 END BOND
M  V30 END CTAB
M  END
