
     RDKit          3D

  0  0  0  0  0  0  0  0  0  0999 V3000
M  V30 BEGIN CTAB
M  V30 COUNTS 39 40 0 0 0
M  V30 BEGIN ATOM
M  V30 1 N 1.87124 -1.59547 -2.47828 0
M  V30 2 C 1.07772 -1.24513 -1.38671 0 CFG=2
M  V30 3 C -0.358936 -1.07647 -1.91782 0
M  V30 4 N -1.00323 -0.298143 -0.845613 0
M  V30 5 C 0.00051414 0.440405 -0.156217 0
M  V30 6 C 1.31069 0.114911 -0.83791 0 CFG=1
M  V30 7 C 2.38926 0.154909 0.197826 0
M  V30 8 C 2.40525 -0.678336 1.29359 0
M  V30 9 C 3.40149 -0.639825 2.24829 0
M  V30 10 C 4.42469 0.270587 2.10044 0
M  V30 11 C 4.45268 1.13742 1.0055 0
M  V30 12 C 3.42107 1.0585 0.067505 0
M  V30 13 C -2.38819 -0.345456 -0.623515 0
M  V30 14 O -3.13395 -1.07397 -1.3757 0
M  V30 15 C -3.05879 0.408953 0.448779 0
M  V30 16 N -2.18017 1.15121 1.28265 0
M  V30 17 C -3.82992 -0.548537 1.37129 0
M  V30 18 C -4.08862 1.32558 -0.20252 0
M  V30 19 H 1.70552 -1.12698 -3.32926 0
M  V30 20 H 2.69235 -2.09879 -2.39624 0
M  V30 21 H 1.0243 -1.97144 -0.571745 0
M  V30 22 H -0.850165 -2.03283 -2.09639 0
M  V30 23 H -0.355367 -0.427793 -2.81649 0
M  V30 24 H 0.0956002 0.0394138 0.882976 0
M  V30 25 H -0.162827 1.54457 -0.184119 0
M  V30 26 H 1.50373 0.874569 -1.6249 0
M  V30 27 H 1.62006 -1.39323 1.42838 0
M  V30 28 H 3.42193 -1.28957 3.11099 0
M  V30 29 H 5.207 0.306147 2.84328 0
M  V30 30 H 5.2677 1.8497 0.904589 0
M  V30 31 H 3.43751 1.72574 -0.780329 0
M  V30 32 H -2.21794 2.17435 1.17694 0
M  V30 33 H -2.08095 0.814566 2.24549 0
M  V30 34 H -3.14115 -1.39379 1.63482 0
M  V30 35 H -4.75167 -0.902541 0.895756 0
M  V30 36 H -4.08143 0.0419468 2.27888 0
M  V30 37 H -3.71077 2.37588 -0.128317 0
M  V30 38 H -4.27842 1.05631 -1.25301 0
M  V30 39 H -5.05783 1.27266 0.327338 0
M  V30 END ATOM
M  V30 BEGIN BOND
M  V30 1 1 1 2
M  V30 2 1 2 3
M  V30 3 1 3 4
M  V30 4 1 4 5
M  V30 5 1 5 6
M  V30 6 1 6 7
M  V30 7 2 7 8
M  V30 8 1 8 9
M  V30 9 2 9 10
M  V30 10 1 10 11
M  V30 11 2 11 12
M  V30 12 1 4 13
M  V30 13 2 13 14
M  V30 14 1 13 15
M  V30 15 1 15 16
M  V30 16 1 15 17
M  V30 17 1 15 18
M  V30 18 1 6 2
M  V30 19 1 12 7
M  V30 20 1 1 19
M  V30 21 1 1 20
M  V30 22 1 2 21 CFG=1
M  V30 23 1 3 22
M  V30 24 1 3 23
M  V30 25 1 5 24
M  V30 26 1 5 25
M  V30 27 1 6 26 CFG=3
M  V30 28 1 8 27
M  V30 29 1 9 28
M  V30 30 1 10 29
M  V30 31 1 11 30
M  V30 32 1 12 31
M  V30 33 1 16 32
M  V30 34 1 16 33
M  V30 35 1 17 34
M  V30 36 1 17 35
M  V30 37 1 17 36
M  V30 38 1 18 37
M  V30 39 1 18 38
M  V30 40 1 18 39
M  V30 END BOND
M  V30 END CTAB
M  END
