
     RDKit          3D

  0  0  0  0  0  0  0  0  0  0999 V3000
M  V30 BEGIN CTAB
M  V30 COUNTS 20 20 0 0 0
M  V30 BEGIN ATOM
M  V30 1 N 5.34508 0.197728 0.282556 0
M  V30 2 C 4.19745 0.0973373 0.322128 0
M  V30 3 C 2.77242 -0.0429768 0.34969 0
M  V30 4 C 1.98419 0.943956 0.881367 0
M  V30 5 C 0.609824 0.79441 0.900823 0
M  V30 6 C -0.0328873 -0.320123 0.403873 0
M  V30 7 C 0.792721 -1.31217 -0.134472 0
M  V30 8 C 2.16144 -1.18012 -0.161591 0
M  V30 9 Br -0.0085063 -2.86528 -0.842729 0
M  V30 10 N -1.38969 -0.489679 0.383283 0
M  V30 11 C -2.41236 0.0536746 -0.0336869 0
M  V30 12 N -3.65843 -0.611602 0.257162 0
M  V30 13 N -2.48019 1.28562 -0.736296 0
M  V30 14 H 2.47586 1.84258 1.27899 0
M  V30 15 H 0.04454 1.62901 1.34465 0
M  V30 16 H 2.82335 -1.94308 -0.578177 0
M  V30 17 H -4.30825 -0.717682 -0.538683 0
M  V30 18 H -3.93132 -0.970939 1.18323 0
M  V30 19 H -2.15891 2.17822 -0.242126 0
M  V30 20 H -2.82635 1.43111 -1.70396 0
M  V30 END ATOM
M  V30 BEGIN BOND
M  V30 1 3 1 2
M  V30 2 1 2 3
M  V30 3 2 3 4
M  V30 4 1 4 5
M  V30 5 2 5 6
M  V30 6 1 6 7
M  V30 7 2 7 8
M  V30 8 1 7 9
M  V30 9 1 6 10
M  V30 10 2 10 11 CFG=2
M  V30 11 1 11 12
M  V30 12 1 11 13
M  V30 13 1 8 3
M  V30 14 1 4 14
M  V30 15 1 5 15
M  V30 16 1 8 16
M  V30 17 1 12 17
M  V30 18 1 12 18
M  V30 19 1 13 19
M  V30 20 1 13 20
M  V30 END BOND
M  V30 END CTAB
M  END
