
     RDKit          3D

  0  0  0  0  0  0  0  0  0  0999 V3000
M  V30 BEGIN CTAB
M  V30 COUNTS 18 17 0 0 0
M  V30 BEGIN ATOM
M  V30 1 N -3.7407 -0.943727 0.701478 0
M  V30 2 C -2.42341 -0.571187 1.03218 0
M  V30 3 S -1.74693 -1.14149 2.38285 0
M  V30 4 S -1.52834 0.515503 -0.0323341 0
M  V30 5 C 0.106388 0.790222 0.70058 0
M  V30 6 C 0.908109 1.72351 -0.178646 0
M  V30 7 S 1.09947 0.976211 -1.81422 0
M  V30 8 C 2.12308 -0.467753 -1.72557 0
M  V30 9 N 2.67761 -0.862859 -0.493551 0
M  V30 10 S 2.42424 -1.33264 -3.05487 0
M  V30 11 H -4.60098 -0.427185 0.992441 0
M  V30 12 H -3.89015 -1.79176 0.126243 0
M  V30 13 H 0.584967 -0.195112 0.849531 0
M  V30 14 H -0.0644947 1.23604 1.71885 0
M  V30 15 H 0.370867 2.68112 -0.225488 0
M  V30 16 H 1.90019 1.85572 0.336862 0
M  V30 17 H 2.30475 -1.67108 0.0645588 0
M  V30 18 H 3.49534 -0.373541 -0.0600402 0
M  V30 END ATOM
M  V30 BEGIN BOND
M  V30 1 1 1 2
M  V30 2 2 2 3
M  V30 3 1 2 4
M  V30 4 1 4 5
M  V30 5 1 5 6
M  V30 6 1 6 7
M  V30 7 1 7 8
M  V30 8 1 8 9
M  V30 9 2 8 10
M  V30 10 1 1 11
M  V30 11 1 1 12
M  V30 12 1 5 13
M  V30 13 1 5 14
M  V30 14 1 6 15
M  V30 15 1 6 16
M  V30 16 1 9 17
M  V30 17 1 9 18
M  V30 END BOND
M  V30 END CTAB
M  END
