
     RDKit          3D

  0  0  0  0  0  0  0  0  0  0999 V3000
M  V30 BEGIN CTAB
M  V30 COUNTS 27 28 0 0 0
M  V30 BEGIN ATOM
M  V30 1 N 4.35326 0.794737 0.65045 0
M  V30 2 C 3.03146 0.424626 0.294719 0
M  V30 3 C 2.03715 1.36576 0.255969 0
M  V30 4 C 0.749497 1.00172 -0.0858606 0
M  V30 5 C 0.447615 -0.293539 -0.388175 0
M  V30 6 C 1.45918 -1.27553 -0.353833 0
M  V30 7 C 2.70789 -0.89378 -0.0173543 0
M  V30 8 N 3.75162 -1.86212 0.0277796 0
M  V30 9 C -0.877363 -0.720027 -0.728304 0
M  V30 10 O -0.975513 -1.77713 -1.44063 0
M  V30 11 C -2.14515 -0.105688 -0.366509 0
M  V30 12 N -2.31145 1.17787 -0.0251739 0
M  V30 13 C -3.47564 1.74609 0.305622 0
M  V30 14 C -4.63976 0.986418 0.311143 0
M  V30 15 C -4.50843 -0.337019 -0.0339363 0
M  V30 16 C -3.30895 -0.892276 -0.365807 0
M  V30 17 H 4.95068 0.0970493 1.12921 0
M  V30 18 H 4.74314 1.72744 0.450831 0
M  V30 19 H 2.23642 2.41193 0.490377 0
M  V30 20 H -0.0017347 1.81654 -0.107499 0
M  V30 21 H 1.16919 -2.27955 -0.598141 0
M  V30 22 H 4.12187 -2.12955 0.95514 0
M  V30 23 H 4.15011 -2.30594 -0.8164 0
M  V30 24 H -3.51889 2.7989 0.569877 0
M  V30 25 H -5.57329 1.44731 0.57737 0
M  V30 26 H -5.39307 -0.994839 -0.0517113 0
M  V30 27 H -3.17985 -1.92939 -0.639153 0
M  V30 END ATOM
M  V30 BEGIN BOND
M  V30 1 1 1 2
M  V30 2 2 2 3
M  V30 3 1 3 4
M  V30 4 2 4 5
M  V30 5 1 5 6
M  V30 6 2 6 7
M  V30 7 1 7 8
M  V30 8 1 5 9
M  V30 9 2 9 10
M  V30 10 1 9 11
M  V30 11 2 11 12
M  V30 12 1 12 13
M  V30 13 2 13 14
M  V30 14 1 14 15
M  V30 15 2 15 16
M  V30 16 1 7 2
M  V30 17 1 16 11
M  V30 18 1 1 17
M  V30 19 1 1 18
M  V30 20 1 3 19
M  V30 21 1 4 20
M  V30 22 1 6 21
M  V30 23 1 8 22
M  V30 24 1 8 23
M  V30 25 1 13 24
M  V30 26 1 14 25
M  V30 27 1 15 26
M  V30 28 1 16 27
M  V30 END BOND
M  V30 END CTAB
M  END
