
     RDKit          3D

  0  0  0  0  0  0  0  0  0  0999 V3000
M  V30 BEGIN CTAB
M  V30 COUNTS 15 15 0 0 0
M  V30 BEGIN ATOM
M  V30 1 N -2.31388 0.193504 0.429317 0
M  V30 2 C -1.39122 -0.358861 -0.573076 0
M  V30 3 C -0.131341 0.495803 -0.378786 0
M  V30 4 N -0.214335 1.91643 -0.524854 0
M  V30 5 S 1.35323 2.48309 -0.245159 0
M  V30 6 C 2.12945 0.964618 0.0624183 0
M  V30 7 C 1.02204 0.0359266 -0.0870974 0
M  V30 8 N 1.28017 -1.37397 0.255653 0
M  V30 9 H -1.87506 0.927787 1.06134 0
M  V30 10 H -2.69352 -0.604368 1.06064 0
M  V30 11 H -1.23721 -1.3781 -0.534653 0
M  V30 12 H -1.81878 -0.138321 -1.56744 0
M  V30 13 H 3.1735 0.737271 0.252876 0
M  V30 14 H 2.1193 -1.79953 0.752367 0
M  V30 15 H 0.597662 -2.10128 0.0364492 0
M  V30 END ATOM
M  V30 BEGIN BOND
M  V30 1 1 1 2
M  V30 2 1 2 3
M  V30 3 2 3 4
M  V30 4 1 4 5
M  V30 5 1 5 6
M  V30 6 2 6 7
M  V30 7 1 7 8
M  V30 8 1 7 3
M  V30 9 1 1 9
M  V30 10 1 1 10
M  V30 11 1 2 11
M  V30 12 1 2 12
M  V30 13 1 6 13
M  V30 14 1 8 14
M  V30 15 1 8 15
M  V30 END BOND
M  V30 END CTAB
M  END
