
     RDKit          3D

  0  0  0  0  0  0  0  0  0  0999 V3000
M  V30 BEGIN CTAB
M  V30 COUNTS 34 33 0 0 0
M  V30 BEGIN ATOM
M  V30 1 C -1.32128 0.339614 -0.906552 0 CFG=1
M  V30 2 N -1.38937 -0.963565 -0.276409 0
M  V30 3 C -2.08848 1.38628 -0.189969 0
M  V30 4 C -3.53605 1.19505 -0.0280159 0
M  V30 5 C -4.02779 0.0126935 0.701798 0
M  V30 6 N -3.57851 -0.0943197 2.06429 0
M  V30 7 C 0.119223 0.682898 -1.03735 0
M  V30 8 O 0.483184 1.77593 -1.56076 0
M  V30 9 N 1.15459 -0.201265 -0.580268 0
M  V30 10 C 2.54299 0.123385 -0.703601 0
M  V30 11 C 3.28946 0.23126 0.582951 0
M  V30 12 C 3.30936 -0.99375 1.40123 0
M  V30 13 O 3.94601 -1.03559 2.62234 0
M  V30 14 O 2.74822 -2.05281 1.02364 0
M  V30 15 C 3.25796 -0.816908 -1.62617 0
M  V30 16 O 4.59955 -0.67254 -1.87695 0
M  V30 17 O 2.66146 -1.77005 -2.20411 0
M  V30 18 H -1.69225 0.246316 -1.9537 0
M  V30 19 H -1.12266 -1.73039 -0.897602 0
M  V30 20 H -1.01309 -0.977797 0.673416 0
M  V30 21 H -1.94426 2.34711 -0.767951 0
M  V30 22 H -1.59433 1.60506 0.796275 0
M  V30 23 H -4.0227 1.18837 -1.04323 0
M  V30 24 H -3.94732 2.10661 0.479912 0
M  V30 25 H -5.15454 0.140651 0.786803 0
M  V30 26 H -3.91082 -0.935562 0.151636 0
M  V30 27 H -4.30082 0.0379287 2.77775 0
M  V30 28 H -3.17238 -1.06291 2.22655 0
M  V30 29 H 0.845304 -1.08641 -0.157892 0
M  V30 30 H 2.60242 1.13155 -1.21067 0
M  V30 31 H 2.89715 1.06116 1.20604 0
M  V30 32 H 4.34063 0.528222 0.319695 0
M  V30 33 H 3.78133 -0.393546 3.37966 0
M  V30 34 H 5.23781 -1.35268 -1.50347 0
M  V30 END ATOM
M  V30 BEGIN BOND
M  V30 1 1 1 2
M  V30 2 1 1 3
M  V30 3 1 3 4
M  V30 4 1 4 5
M  V30 5 1 5 6
M  V30 6 1 1 7
M  V30 7 2 7 8
M  V30 8 1 7 9
M  V30 9 1 9 10
M  V30 10 1 10 11
M  V30 11 1 11 12
M  V30 12 1 12 13
M  V30 13 2 12 14
M  V30 14 1 10 15
M  V30 15 1 15 16
M  V30 16 2 15 17
M  V30 17 1 1 18 CFG=3
M  V30 18 1 2 19
M  V30 19 1 2 20
M  V30 20 1 3 21
M  V30 21 1 3 22
M  V30 22 1 4 23
M  V30 23 1 4 24
M  V30 24 1 5 25
M  V30 25 1 5 26
M  V30 26 1 6 27
M  V30 27 1 6 28
M  V30 28 1 9 29
M  V30 29 1 10 30
M  V30 30 1 11 31
M  V30 31 1 11 32
M  V30 32 1 13 33
M  V30 33 1 16 34
M  V30 END BOND
M  V30 END CTAB
M  END
