
     RDKit          3D

  0  0  0  0  0  0  0  0  0  0999 V3000
M  V30 BEGIN CTAB
M  V30 COUNTS 36 36 0 0 0
M  V30 BEGIN ATOM
M  V30 1 C -2.98921 -2.55614 -0.482695 0
M  V30 2 C -3.22269 -1.6748 0.733022 0
M  V30 3 C -1.98398 -1.50865 1.54474 0
M  V30 4 O -0.897646 -0.949167 0.933589 0
M  V30 5 C -0.642883 0.255572 0.368837 0
M  V30 6 C 0.643768 0.415532 -0.184857 0
M  V30 7 O 1.56291 -0.622561 -0.131077 0
M  V30 8 C 2.83569 -0.398784 -0.704401 0
M  V30 9 C 3.73389 -1.6052 -0.577057 0
M  V30 10 C 3.96174 -1.98235 0.853519 0
M  V30 11 C 0.93728 1.62203 -0.767373 0
M  V30 12 C 0.0144774 2.66382 -0.821203 0
M  V30 13 N 0.318034 3.90342 -1.42069 0
M  V30 14 C -1.24339 2.50448 -0.278482 0
M  V30 15 N -2.19133 3.55764 -0.327238 0
M  V30 16 C -1.56169 1.28418 0.319146 0
M  V30 17 H -3.94826 -3.00581 -0.76051 0
M  V30 18 H -2.27789 -3.37299 -0.220963 0
M  V30 19 H -2.6435 -1.95659 -1.3523 0
M  V30 20 H -3.93861 -2.27577 1.37438 0
M  V30 21 H -3.73579 -0.766618 0.461075 0
M  V30 22 H -1.70372 -2.55065 1.90067 0
M  V30 23 H -2.29195 -0.99128 2.49619 0
M  V30 24 H 3.3001 0.471009 -0.198277 0
M  V30 25 H 2.72152 -0.134276 -1.77286 0
M  V30 26 H 3.24791 -2.42545 -1.15422 0
M  V30 27 H 4.71751 -1.31667 -1.01784 0
M  V30 28 H 4.10156 -3.09741 0.891063 0
M  V30 29 H 3.12969 -1.65349 1.5142 0
M  V30 30 H 4.88853 -1.53961 1.2812 0
M  V30 31 H 1.9251 1.80786 -1.21703 0
M  V30 32 H 0.202134 4.12817 -2.43299 0
M  V30 33 H 0.689445 4.66569 -0.812723 0
M  V30 34 H -2.67738 3.78316 -1.22191 0
M  V30 35 H -2.42523 4.12159 0.501693 0
M  V30 36 H -2.55612 1.20011 0.74389 0
M  V30 END ATOM
M  V30 BEGIN BOND
M  V30 1 1 1 2
M  V30 2 1 2 3
M  V30 3 1 3 4
M  V30 4 1 4 5
M  V30 5 2 5 6
M  V30 6 1 6 7
M  V30 7 1 7 8
M  V30 8 1 8 9
M  V30 9 1 9 10
M  V30 10 1 6 11
M  V30 11 2 11 12
M  V30 12 1 12 13
M  V30 13 1 12 14
M  V30 14 1 14 15
M  V30 15 2 14 16
M  V30 16 1 16 5
M  V30 17 1 1 17
M  V30 18 1 1 18
M  V30 19 1 1 19
M  V30 20 1 2 20
M  V30 21 1 2 21
M  V30 22 1 3 22
M  V30 23 1 3 23
M  V30 24 1 8 24
M  V30 25 1 8 25
M  V30 26 1 9 26
M  V30 27 1 9 27
M  V30 28 1 10 28
M  V30 29 1 10 29
M  V30 30 1 10 30
M  V30 31 1 11 31
M  V30 32 1 13 32
M  V30 33 1 13 33
M  V30 34 1 15 34
M  V30 35 1 15 35
M  V30 36 1 16 36
M  V30 END BOND
M  V30 END CTAB
M  END
