
     RDKit          3D

  0  0  0  0  0  0  0  0  0  0999 V3000
M  V30 BEGIN CTAB
M  V30 COUNTS 30 29 0 0 0
M  V30 BEGIN ATOM
M  V30 1 N 4.88559 -0.29986 -0.0585811 0
M  V30 2 C 3.89107 0.638411 0.292112 0
M  V30 3 N 4.196 1.67484 0.980474 0
M  V30 4 C 2.499 0.380957 -0.161169 0
M  V30 5 C 2.00553 -0.926426 0.400304 0
M  V30 6 C 0.625832 -1.24811 -0.0299139 0
M  V30 7 C -0.347516 -0.205269 0.413444 0
M  V30 8 C -1.77699 -0.559706 -0.022781 0
M  V30 9 C -2.66064 0.546138 0.471379 0
M  V30 10 C -4.08119 0.344504 0.124718 0
M  V30 11 N -5.00689 1.34123 0.549262 0
M  V30 12 N -4.54291 -0.651197 -0.524255 0
M  V30 13 H 5.10145 -0.420176 -1.06951 0
M  V30 14 H 5.42173 -0.882609 0.615252 0
M  V30 15 H 3.52489 2.40371 1.27466 0
M  V30 16 H 2.53875 0.303852 -1.26932 0
M  V30 17 H 1.84858 1.22192 0.170256 0
M  V30 18 H 2.69215 -1.74915 0.0384006 0
M  V30 19 H 2.08924 -0.890895 1.52668 0
M  V30 20 H 0.618913 -1.36892 -1.15401 0
M  V30 21 H 0.268466 -2.23446 0.33937 0
M  V30 22 H -0.0612717 0.765824 -0.0800147 0
M  V30 23 H -0.274529 -0.0810562 1.50752 0
M  V30 24 H -1.79212 -0.708411 -1.10619 0
M  V30 25 H -2.03417 -1.5179 0.490058 0
M  V30 26 H -2.58863 0.575305 1.57038 0
M  V30 27 H -2.34398 1.50774 0.0360842 0
M  V30 28 H -4.75971 2.36696 0.508872 0
M  V30 29 H -5.95865 1.11931 0.915334 0
M  V30 30 H -3.97799 -1.44655 -0.8912 0
M  V30 END ATOM
M  V30 BEGIN BOND
M  V30 1 1 1 2
M  V30 2 2 2 3 CFG=2
M  V30 3 1 2 4
M  V30 4 1 4 5
M  V30 5 1 5 6
M  V30 6 1 6 7
M  V30 7 1 7 8
M  V30 8 1 8 9
M  V30 9 1 9 10
M  V30 10 1 10 11
M  V30 11 2 10 12 CFG=2
M  V30 12 1 1 13
M  V30 13 1 1 14
M  V30 14 1 3 15
M  V30 15 1 4 16
M  V30 16 1 4 17
M  V30 17 1 5 18
M  V30 18 1 5 19
M  V30 19 1 6 20
M  V30 20 1 6 21
M  V30 21 1 7 22
M  V30 22 1 7 23
M  V30 23 1 8 24
M  V30 24 1 8 25
M  V30 25 1 9 26
M  V30 26 1 9 27
M  V30 27 1 11 28
M  V30 28 1 11 29
M  V30 29 1 12 30
M  V30 END BOND
M  V30 END CTAB
M  END
