
     RDKit          3D

  0  0  0  0  0  0  0  0  0  0999 V3000
M  V30 BEGIN CTAB
M  V30 COUNTS 41 42 0 0 0
M  V30 BEGIN ATOM
M  V30 1 C 6.12385 -1.11037 0.440099 0
M  V30 2 C 4.61317 -1.04719 0.270435 0
M  V30 3 C 3.96154 -0.263718 1.36719 0
M  V30 4 O 2.60382 -0.189762 1.23474 0
M  V30 5 C 1.74719 0.33493 0.342935 0
M  V30 6 C 0.358667 0.169676 0.557621 0
M  V30 7 C -0.58671 0.669714 -0.292859 0
M  V30 8 C -0.148134 1.35977 -1.39854 0
M  V30 9 C 1.22137 1.53675 -1.6323 0
M  V30 10 C 2.16266 1.02764 -0.766433 0
M  V30 11 N -1.98527 0.472824 -0.0267061 0
M  V30 12 C -2.69323 1.42942 0.75015 0
M  V30 13 N -1.90088 2.55333 1.21472 0
M  V30 14 N -3.93815 1.3504 1.04563 0
M  V30 15 C -4.68693 0.239947 0.577193 0
M  V30 16 N -6.09113 0.112183 0.887016 0
M  V30 17 N -4.07964 -0.638686 -0.124518 0
M  V30 18 C -2.70436 -0.663289 -0.518978 0
M  V30 19 C -2.66182 -0.787325 -2.02349 0
M  V30 20 C -1.98904 -1.90966 0.0201274 0
M  V30 21 H 6.40419 -1.00374 1.49609 0
M  V30 22 H 6.57752 -0.318412 -0.185279 0
M  V30 23 H 6.48739 -2.09139 0.0445976 0
M  V30 24 H 4.4148 -0.699421 -0.738587 0
M  V30 25 H 4.22985 -2.11109 0.340609 0
M  V30 26 H 4.21608 -0.809273 2.33447 0
M  V30 27 H 4.44823 0.748537 1.4696 0
M  V30 28 H 0.0176209 -0.370874 1.4238 0
M  V30 29 H -0.865713 1.76961 -2.09395 0
M  V30 30 H 1.57482 2.07735 -2.49814 0
M  V30 31 H 3.21815 1.21661 -0.998971 0
M  V30 32 H -1.72656 3.30448 0.519441 0
M  V30 33 H -1.52973 2.6154 2.16731 0
M  V30 34 H -6.82451 0.248061 0.177716 0
M  V30 35 H -6.34921 -0.123348 1.85565 0
M  V30 36 H -1.70489 -1.16078 -2.40302 0
M  V30 37 H -2.99642 0.164874 -2.45945 0
M  V30 38 H -3.45306 -1.54312 -2.29923 0
M  V30 39 H -1.91561 -1.7778 1.11617 0
M  V30 40 H -2.56709 -2.82597 -0.237146 0
M  V30 41 H -0.982843 -1.95629 -0.415165 0
M  V30 END ATOM
M  V30 BEGIN BOND
M  V30 1 1 1 2
M  V30 2 1 2 3
M  V30 3 1 3 4
M  V30 4 1 4 5
M  V30 5 2 5 6
M  V30 6 1 6 7
M  V30 7 2 7 8
M  V30 8 1 8 9
M  V30 9 2 9 10
M  V30 10 1 7 11
M  V30 11 1 11 12
M  V30 12 1 12 13
M  V30 13 2 12 14
M  V30 14 1 14 15
M  V30 15 1 15 16
M  V30 16 2 15 17
M  V30 17 1 17 18
M  V30 18 1 18 19
M  V30 19 1 18 20
M  V30 20 1 10 5
M  V30 21 1 18 11
M  V30 22 1 1 21
M  V30 23 1 1 22
M  V30 24 1 1 23
M  V30 25 1 2 24
M  V30 26 1 2 25
M  V30 27 1 3 26
M  V30 28 1 3 27
M  V30 29 1 6 28
M  V30 30 1 8 29
M  V30 31 1 9 30
M  V30 32 1 10 31
M  V30 33 1 13 32
M  V30 34 1 13 33
M  V30 35 1 16 34
M  V30 36 1 16 35
M  V30 37 1 19 36
M  V30 38 1 19 37
M  V30 39 1 19 38
M  V30 40 1 20 39
M  V30 41 1 20 40
M  V30 42 1 20 41
M  V30 END BOND
M  V30 END CTAB
M  END
