
     RDKit          3D

  0  0  0  0  0  0  0  0  0  0999 V3000
M  V30 BEGIN CTAB
M  V30 COUNTS 25 25 0 0 0
M  V30 BEGIN ATOM
M  V30 1 C -3.02928 0.0401815 -0.348826 0
M  V30 2 C -1.73692 -0.0631422 0.420575 0
M  V30 3 C -0.594458 0.142287 -0.527619 0
M  V30 4 C 0.757026 -0.190926 -0.037702 0
M  V30 5 C 1.1156 -1.50377 0.278627 0
M  V30 6 N 2.41265 -1.87795 0.552534 0
M  V30 7 C 3.36188 -0.957908 0.512457 0
M  V30 8 C 3.06003 0.358406 0.207208 0
M  V30 9 C 1.76957 0.752613 -0.0639427 0
M  V30 10 N 1.49529 2.12198 -0.181082 0
M  V30 11 O -0.714183 1.22739 -1.34874 0
M  V30 12 N -1.73881 -1.20805 1.21186 0
M  V30 13 H -3.81636 0.475101 0.330047 0
M  V30 14 H -3.36793 -0.92381 -0.721588 0
M  V30 15 H -2.86975 0.747231 -1.20458 0
M  V30 16 H -1.68755 0.876757 1.12609 0
M  V30 17 H -0.765281 -0.728413 -1.31681 0
M  V30 18 H 0.393559 -2.29406 0.28875 0
M  V30 19 H 4.37751 -1.24393 0.764242 0
M  V30 20 H 3.83593 1.10063 0.174506 0
M  V30 21 H 2.30346 2.78633 -0.382767 0
M  V30 22 H 0.594535 2.61723 -0.106731 0
M  V30 23 H -0.804649 1.00895 -2.33456 0
M  V30 24 H -2.47966 -1.15214 1.98218 0
M  V30 25 H -1.87221 -2.11099 0.725869 0
M  V30 END ATOM
M  V30 BEGIN BOND
M  V30 1 1 1 2
M  V30 2 1 2 3
M  V30 3 1 3 4
M  V30 4 2 4 5
M  V30 5 1 5 6
M  V30 6 2 6 7
M  V30 7 1 7 8
M  V30 8 2 8 9
M  V30 9 1 9 10
M  V30 10 1 3 11
M  V30 11 1 2 12
M  V30 12 1 9 4
M  V30 13 1 1 13
M  V30 14 1 1 14
M  V30 15 1 1 15
M  V30 16 1 2 16
M  V30 17 1 3 17
M  V30 18 1 5 18
M  V30 19 1 7 19
M  V30 20 1 8 20
M  V30 21 1 10 21
M  V30 22 1 10 22
M  V30 23 1 11 23
M  V30 24 1 12 24
M  V30 25 1 12 25
M  V30 END BOND
M  V30 END CTAB
M  END
