
     RDKit          3D

  0  0  0  0  0  0  0  0  0  0999 V3000
M  V30 BEGIN CTAB
M  V30 COUNTS 25 24 0 0 0
M  V30 BEGIN ATOM
M  V30 1 N -2.88669 -0.736942 0.898796 0
M  V30 2 C -3.00347 0.198159 -0.16771 0
M  V30 3 C -1.74231 0.861473 -0.612063 0
M  V30 4 C -0.673495 -0.059004 -1.10149 0
M  V30 5 O -0.185 -0.950694 -0.186863 0
M  V30 6 C 0.460175 -0.423816 0.899612 0
M  V30 7 C 1.68028 0.389556 0.499305 0
M  V30 8 C 2.65221 -0.473305 -0.236365 0
M  V30 9 N 3.81403 0.286625 -0.621533 0
M  V30 10 H -3.83539 -0.8998 1.2977 0
M  V30 11 H -2.4527 -1.63342 0.572817 0
M  V30 12 H -3.7023 0.995353 0.167443 0
M  V30 13 H -3.53473 -0.279224 -1.03311 0
M  V30 14 H -2.01807 1.51495 -1.48973 0
M  V30 15 H -1.37715 1.57206 0.161526 0
M  V30 16 H 0.129292 0.501318 -1.64284 0
M  V30 17 H -1.14383 -0.684268 -1.91846 0
M  V30 18 H -0.143982 0.174606 1.59476 0
M  V30 19 H 0.866609 -1.29472 1.48416 0
M  V30 20 H 1.42259 1.2739 -0.10523 0
M  V30 21 H 2.1368 0.752159 1.43075 0
M  V30 22 H 2.13969 -0.951638 -1.102 0
M  V30 23 H 2.98577 -1.29469 0.447641 0
M  V30 24 H 4.68555 -0.141119 -0.260594 0
M  V30 25 H 3.72611 1.30248 -0.419175 0
M  V30 END ATOM
M  V30 BEGIN BOND
M  V30 1 1 1 2
M  V30 2 1 2 3
M  V30 3 1 3 4
M  V30 4 1 4 5
M  V30 5 1 5 6
M  V30 6 1 6 7
M  V30 7 1 7 8
M  V30 8 1 8 9
M  V30 9 1 1 10
M  V30 10 1 1 11
M  V30 11 1 2 12
M  V30 12 1 2 13
M  V30 13 1 3 14
M  V30 14 1 3 15
M  V30 15 1 4 16
M  V30 16 1 4 17
M  V30 17 1 6 18
M  V30 18 1 6 19
M  V30 19 1 7 20
M  V30 20 1 7 21
M  V30 21 1 8 22
M  V30 22 1 8 23
M  V30 23 1 9 24
M  V30 24 1 9 25
M  V30 END BOND
M  V30 END CTAB
M  END
