
     RDKit          3D

  0  0  0  0  0  0  0  0  0  0999 V3000
M  V30 BEGIN CTAB
M  V30 COUNTS 46 48 0 0 0
M  V30 BEGIN ATOM
M  V30 1 O 0.601893 0.288502 2.54764 0
M  V30 2 C 0.99599 0.370184 1.39014 0
M  V30 3 N 0.169493 0.439701 0.274756 0
M  V30 4 C -1.23553 0.433376 0.158827 0
M  V30 5 C -1.88553 0.608397 -1.06958 0
M  V30 6 C -1.27072 0.838316 -2.40993 0
M  V30 7 N -3.22207 0.531279 -0.834203 0
M  V30 8 N -3.46775 0.323469 0.441013 0
M  V30 9 C -2.26374 0.262991 1.05132 0
M  V30 10 O -2.10575 0.0752538 2.2767 0
M  V30 11 C -4.72954 0.1768 1.08997 0
M  V30 12 C -5.76525 1.07129 0.824637 0
M  V30 13 C -6.99364 0.913081 1.4403 0
M  V30 14 C -7.28291 -0.10025 2.32909 0
M  V30 15 C -6.22878 -0.989052 2.58302 0
M  V30 16 C -5.00775 -0.839258 1.97761 0
M  V30 17 C -4.2446 0.654836 -1.85461 0
M  V30 18 C 2.47932 0.398491 1.16033 0
M  V30 19 S 3.23982 -1.22492 1.25934 0
M  V30 20 C 4.92959 -1.10782 0.646024 0
M  V30 21 N 5.77544 -2.15125 0.637778 0
M  V30 22 C 7.03148 -2.02277 0.1254 0
M  V30 23 N 7.92475 -3.13562 0.125136 0
M  V30 24 C 7.42904 -0.805229 -0.387357 0
M  V30 25 C 6.56668 0.272856 -0.383003 0
M  V30 26 N 5.35561 0.0691992 0.135105 0
M  V30 27 N 6.92374 1.53078 -0.902304 0
M  V30 28 H 0.738346 0.507189 -0.661406 0
M  V30 29 H -1.46364 -0.0672313 -3.03872 0
M  V30 30 H -0.187828 0.944467 -2.32258 0
M  V30 31 H -1.67735 1.75616 -2.8864 0
M  V30 32 H -5.55577 1.87596 0.128936 0
M  V30 33 H -7.79513 1.63403 1.21042 0
M  V30 34 H -8.24065 -0.192714 2.78419 0
M  V30 35 H -6.44734 -1.7997 3.28669 0
M  V30 36 H -4.18978 -1.54344 2.19025 0
M  V30 37 H -3.83356 0.270969 -2.82233 0
M  V30 38 H -4.5465 1.70111 -2.06153 0
M  V30 39 H -5.12647 -0.00470932 -1.64788 0
M  V30 40 H 2.94295 1.03571 1.94218 0
M  V30 41 H 2.70605 0.789562 0.129211 0
M  V30 42 H 7.65549 -3.9772 -0.422721 0
M  V30 43 H 8.82731 -3.14622 0.649363 0
M  V30 44 H 8.41404 -0.698293 -0.794448 0
M  V30 45 H 6.15235 2.21774 -1.13368 0
M  V30 46 H 7.90822 1.81399 -1.06829 0
M  V30 END ATOM
M  V30 BEGIN BOND
M  V30 1 2 1 2
M  V30 2 1 2 3
M  V30 3 1 3 4
M  V30 4 2 4 5
M  V30 5 1 5 6
M  V30 6 1 5 7
M  V30 7 1 7 8
M  V30 8 1 8 9
M  V30 9 2 9 10
M  V30 10 1 8 11
M  V30 11 2 11 12
M  V30 12 1 12 13
M  V30 13 2 13 14
M  V30 14 1 14 15
M  V30 15 2 15 16
M  V30 16 1 7 17
M  V30 17 1 2 18
M  V30 18 1 18 19
M  V30 19 1 19 20
M  V30 20 2 20 21
M  V30 21 1 21 22
M  V30 22 1 22 23
M  V30 23 2 22 24
M  V30 24 1 24 25
M  V30 25 2 25 26
M  V30 26 1 25 27
M  V30 27 1 9 4
M  V30 28 1 16 11
M  V30 29 1 26 20
M  V30 30 1 3 28
M  V30 31 1 6 29
M  V30 32 1 6 30
M  V30 33 1 6 31
M  V30 34 1 12 32
M  V30 35 1 13 33
M  V30 36 1 14 34
M  V30 37 1 15 35
M  V30 38 1 16 36
M  V30 39 1 17 37
M  V30 40 1 17 38
M  V30 41 1 17 39
M  V30 42 1 18 40
M  V30 43 1 18 41
M  V30 44 1 23 42
M  V30 45 1 23 43
M  V30 46 1 24 44
M  V30 47 1 27 45
M  V30 48 1 27 46
M  V30 END BOND
M  V30 END CTAB
M  END
