
     RDKit          3D

  0  0  0  0  0  0  0  0  0  0999 V3000
M  V30 BEGIN CTAB
M  V30 COUNTS 18 17 0 0 0
M  V30 BEGIN ATOM
M  V30 1 N -3.72425 1.28025 -0.507109 0
M  V30 2 N -2.33404 1.10496 -0.467414 0
M  V30 3 C -1.75016 0.0260571 0.204505 0
M  V30 4 O -2.48415 -0.821134 0.78266 0
M  V30 5 C -0.313329 -0.129179 0.243588 0
M  V30 6 C 0.255406 -1.15517 0.878099 0
M  V30 7 C 1.74629 -1.27573 0.889184 0
M  V30 8 O 2.14139 -2.30092 1.53106 0
M  V30 9 N 2.4818 -0.331349 0.244846 0
M  V30 10 N 3.18951 0.577252 -0.375085 0
M  V30 11 H -4.03583 1.30315 -1.49544 0
M  V30 12 H -4.18034 0.492509 0.0495064 0
M  V30 13 H -1.75409 1.81411 -0.961316 0
M  V30 14 H 0.34848 0.596223 -0.249556 0
M  V30 15 H -0.341439 -1.90354 1.37901 0
M  V30 16 H 3.6286 -1.02382 0.563642 0
M  V30 17 H 3.81894 1.21203 0.116009 0
M  V30 18 H 3.30723 0.534302 -1.40781 0
M  V30 END ATOM
M  V30 BEGIN BOND
M  V30 1 1 1 2
M  V30 2 1 2 3
M  V30 3 2 3 4
M  V30 4 1 3 5
M  V30 5 2 5 6
M  V30 6 1 6 7
M  V30 7 2 7 8
M  V30 8 1 7 9
M  V30 9 1 9 10
M  V30 10 1 1 11
M  V30 11 1 1 12
M  V30 12 1 2 13
M  V30 13 1 5 14
M  V30 14 1 6 15
M  V30 15 1 9 16
M  V30 16 1 10 17
M  V30 17 1 10 18
M  V30 END BOND
M  V30 END CTAB
M  END
