
     RDKit          3D

  0  0  0  0  0  0  0  0  0  0999 V3000
M  V30 BEGIN CTAB
M  V30 COUNTS 34 35 0 0 0
M  V30 BEGIN ATOM
M  V30 1 N -5.62283 -0.858014 0.098895 0
M  V30 2 C -4.28726 -0.393246 0.0476849 0
M  V30 3 C -3.63259 -0.189112 1.24352 0
M  V30 4 C -2.33905 0.260297 1.23219 0
M  V30 5 C -1.69999 0.505092 0.0531921 0
M  V30 6 C -2.37035 0.295145 -1.12367 0
M  V30 7 N -3.65066 -0.149678 -1.11194 0
M  V30 8 C -0.303657 0.991159 -0.00675106 0 CFG=1
M  V30 9 O 0.534272 0.305565 0.862737 0
M  V30 10 C 0.820823 -0.977734 0.466227 0
M  V30 11 C 1.86587 -1.09241 -0.590377 0
M  V30 12 N 2.56433 0.105402 -0.894241 0
M  V30 13 C 1.77243 1.22551 -1.24137 0
M  V30 14 C 0.288943 0.91417 -1.37581 0
M  V30 15 S 3.86083 0.423409 0.162047 0
M  V30 16 O 3.32449 0.519631 1.58366 0
M  V30 17 O 4.48144 1.75223 -0.159633 0
M  V30 18 N 5.03502 -0.773164 0.112867 0
M  V30 19 H -5.82244 -1.86631 0.121263 0
M  V30 20 H -6.42316 -0.195766 0.11484 0
M  V30 21 H -4.16466 -0.39227 2.19147 0
M  V30 22 H -1.83804 0.415742 2.18674 0
M  V30 23 H -1.94196 0.462868 -2.10064 0
M  V30 24 H -0.305147 2.05479 0.311562 0
M  V30 25 H 1.08579 -1.55056 1.40393 0
M  V30 26 H -0.0953859 -1.51734 0.0838481 0
M  V30 27 H 2.63076 -1.83501 -0.212977 0
M  V30 28 H 1.47559 -1.58088 -1.53178 0
M  V30 29 H 2.07588 1.69988 -2.20174 0
M  V30 30 H 1.89169 2.00883 -0.450985 0
M  V30 31 H 0.104468 -0.0919646 -1.78546 0
M  V30 32 H -0.215683 1.63148 -2.04895 0
M  V30 33 H 4.93402 -1.58416 0.699719 0
M  V30 34 H 5.96622 -0.52357 -0.22596 0
M  V30 END ATOM
M  V30 BEGIN BOND
M  V30 1 1 1 2
M  V30 2 2 2 3
M  V30 3 1 3 4
M  V30 4 2 4 5
M  V30 5 1 5 6
M  V30 6 2 6 7
M  V30 7 1 5 8
M  V30 8 1 8 9
M  V30 9 1 9 10
M  V30 10 1 10 11
M  V30 11 1 11 12
M  V30 12 1 12 13
M  V30 13 1 13 14
M  V30 14 1 12 15
M  V30 15 2 15 16
M  V30 16 2 15 17
M  V30 17 1 15 18
M  V30 18 1 7 2
M  V30 19 1 14 8
M  V30 20 1 1 19
M  V30 21 1 1 20
M  V30 22 1 3 21
M  V30 23 1 4 22
M  V30 24 1 6 23
M  V30 25 1 8 24 CFG=1
M  V30 26 1 10 25
M  V30 27 1 10 26
M  V30 28 1 11 27
M  V30 29 1 11 28
M  V30 30 1 13 29
M  V30 31 1 13 30
M  V30 32 1 14 31
M  V30 33 1 14 32
M  V30 34 1 18 33
M  V30 35 1 18 34
M  V30 END BOND
M  V30 END CTAB
M  END
