
     RDKit          3D

  0  0  0  0  0  0  0  0  0  0999 V3000
M  V30 BEGIN CTAB
M  V30 COUNTS 29 30 0 0 0
M  V30 BEGIN ATOM
M  V30 1 N -2.41645 -1.26284 -1.29094 0
M  V30 2 C -2.11333 -0.351776 -0.246227 0
M  V30 3 N -3.00649 0.28258 0.525747 0
M  V30 4 N -4.39701 0.181049 0.465791 0
M  V30 5 C -2.30317 0.981736 1.41261 0
M  V30 6 N -0.947983 0.801316 1.19933 0
M  V30 7 C -0.799857 -0.0473362 0.138321 0
M  V30 8 C 0.413424 -0.387652 -0.631245 0
M  V30 9 C 1.39245 -1.27565 0.0870233 0
M  V30 10 C 2.83563 -1.01528 -0.301286 0
M  V30 11 C 3.26492 0.315899 0.273685 0
M  V30 12 C 1.9626 1.09394 0.570912 0
M  V30 13 C 1.14505 1.01569 -0.691686 0
M  V30 14 H -2.60397 -2.26683 -0.958199 0
M  V30 15 H -2.45536 -1.0363 -2.28058 0
M  V30 16 H -4.91297 -0.640232 0.83551 0
M  V30 17 H -5.01029 0.908552 0.0628253 0
M  V30 18 H -2.75609 1.60026 2.18801 0
M  V30 19 H 0.234654 -0.657059 -1.67048 0
M  V30 20 H 1.2387 -1.37098 1.14287 0
M  V30 21 H 1.18819 -2.31971 -0.328948 0
M  V30 22 H 3.4507 -1.81071 0.147658 0
M  V30 23 H 3.01987 -1.02169 -1.36465 0
M  V30 24 H 3.80203 0.905246 -0.460553 0
M  V30 25 H 3.86154 0.170166 1.18374 0
M  V30 26 H 2.2043 2.15511 0.834507 0
M  V30 27 H 1.54155 0.558445 1.43298 0
M  V30 28 H 1.7868 0.953412 -1.57841 0
M  V30 29 H 0.380569 1.80261 -0.698316 0
M  V30 END ATOM
M  V30 BEGIN BOND
M  V30 1 1 1 2
M  V30 2 1 2 3
M  V30 3 1 3 4
M  V30 4 1 3 5
M  V30 5 2 5 6
M  V30 6 1 6 7
M  V30 7 1 7 8
M  V30 8 1 8 9
M  V30 9 1 9 10
M  V30 10 1 10 11
M  V30 11 1 11 12
M  V30 12 1 12 13
M  V30 13 2 7 2
M  V30 14 1 13 8
M  V30 15 1 1 14
M  V30 16 1 1 15
M  V30 17 1 4 16
M  V30 18 1 4 17
M  V30 19 1 5 18
M  V30 20 1 8 19
M  V30 21 1 9 20
M  V30 22 1 9 21
M  V30 23 1 10 22
M  V30 24 1 10 23
M  V30 25 1 11 24
M  V30 26 1 11 25
M  V30 27 1 12 26
M  V30 28 1 12 27
M  V30 29 1 13 28
M  V30 30 1 13 29
M  V30 END BOND
M  V30 END CTAB
M  END
