
     RDKit          3D

  0  0  0  0  0  0  0  0  0  0999 V3000
M  V30 BEGIN CTAB
M  V30 COUNTS 25 25 0 0 0
M  V30 BEGIN ATOM
M  V30 1 O 2.64308 -1.82334 1.82628 0
M  V30 2 C 2.48164 -0.991492 0.727779 0
M  V30 3 O 3.37113 -0.0529196 0.682631 0
M  V30 4 C 1.46211 -1.06095 -0.319299 0
M  V30 5 C 0.393856 -0.0648945 -0.306455 0
M  V30 6 C 0.635449 1.24766 -0.648003 0
M  V30 7 N 1.92221 1.75229 -1.03099 0
M  V30 8 C -0.377704 2.20054 -0.675247 0
M  V30 9 C -1.66154 1.84435 -0.355149 0
M  V30 10 C -1.93068 0.545755 -0.0105449 0
M  V30 11 C -0.921461 -0.41483 0.0167692 0
M  V30 12 C -1.23527 -1.81219 0.318759 0
M  V30 13 F -0.568968 -2.36073 1.37787 0
M  V30 14 F -1.22226 -2.62958 -0.817155 0
M  V30 15 F -2.59404 -1.86136 0.712437 0
M  V30 16 N -3.27633 0.189479 0.328324 0
M  V30 17 H 3.13251 -1.52306 2.67884 0
M  V30 18 H 1.10883 -2.10679 -0.446709 0
M  V30 19 H 2.01772 -0.884896 -1.29038 0
M  V30 20 H 2.32337 1.43617 -1.92062 0
M  V30 21 H 2.44831 2.42111 -0.438462 0
M  V30 22 H -0.133718 3.25507 -0.953767 0
M  V30 23 H -2.46994 2.57376 -0.363978 0
M  V30 24 H -3.92957 -0.139549 -0.405173 0
M  V30 25 H -3.61875 0.260392 1.31224 0
M  V30 END ATOM
M  V30 BEGIN BOND
M  V30 1 1 1 2
M  V30 2 2 2 3
M  V30 3 1 2 4
M  V30 4 1 4 5
M  V30 5 2 5 6
M  V30 6 1 6 7
M  V30 7 1 6 8
M  V30 8 2 8 9
M  V30 9 1 9 10
M  V30 10 2 10 11
M  V30 11 1 11 12
M  V30 12 1 12 13
M  V30 13 1 12 14
M  V30 14 1 12 15
M  V30 15 1 10 16
M  V30 16 1 11 5
M  V30 17 1 1 17
M  V30 18 1 4 18
M  V30 19 1 4 19
M  V30 20 1 7 20
M  V30 21 1 7 21
M  V30 22 1 8 22
M  V30 23 1 9 23
M  V30 24 1 16 24
M  V30 25 1 16 25
M  V30 END BOND
M  V30 END CTAB
M  END
