
     RDKit          3D

  0  0  0  0  0  0  0  0  0  0999 V3000
M  V30 BEGIN CTAB
M  V30 COUNTS 56 58 0 0 0
M  V30 BEGIN ATOM
M  V30 1 O 9.90385 0.95944 0.102334 0
M  V30 2 C 9.00064 -0.117896 0.0241941 0
M  V30 3 O 9.17213 -1.07037 0.812463 0
M  V30 4 C 7.92528 -0.0826332 -0.926624 0
M  V30 5 C 6.67689 -0.829882 -0.627146 0
M  V30 6 C 5.87018 -0.239954 0.469447 0 CFG=2
M  V30 7 C 6.41695 -0.250063 1.79243 0
M  V30 8 O 6.23001 -1.26307 2.56931 0
M  V30 9 O 7.14381 0.771738 2.35306 0
M  V30 10 N 4.48011 -0.596779 0.318608 0
M  V30 11 C 3.63176 0.601821 0.250024 0
M  V30 12 O 4.08646 1.69357 0.360709 0
M  V30 13 C 2.18021 0.320288 0.0350211 0
M  V30 14 C 1.31822 1.43322 0.131701 0
M  V30 15 C -0.0519887 1.13889 -0.108972 0
M  V30 16 C -0.516586 -0.0415359 -0.410895 0
M  V30 17 C 0.333402 -1.14805 -0.508555 0
M  V30 18 C 1.711 -0.887655 -0.270158 0
M  V30 19 N -1.92269 -0.395275 -0.641574 0
M  V30 20 C -2.74224 -0.210218 0.544986 0
M  V30 21 C -4.17231 -0.422482 0.409401 0
M  V30 22 N -5.00421 0.408046 -0.199892 0
M  V30 23 C -6.36214 0.253241 -0.123551 0
M  V30 24 C -7.22861 1.1167 -0.733851 0
M  V30 25 N -6.79358 2.27374 -1.41741 0
M  V30 26 N -8.57317 0.883818 -0.602335 0
M  V30 27 C -8.99494 -0.166895 0.121398 0
M  V30 28 N -8.14502 -1.01196 0.732601 0
M  V30 29 C -6.81841 -0.825947 0.626618 0
M  V30 30 N -5.99573 -1.68395 1.26134 0
M  V30 31 C -4.68679 -1.49131 1.15759 0
M  V30 32 O -3.80259 -2.38484 1.80864 0
M  V30 33 N -10.378 -0.406516 0.258999 0
M  V30 34 C -2.39792 -0.999639 -1.82473 0
M  V30 35 H 10.1629 1.39903 -0.761683 0
M  V30 36 H 7.60998 1.06838 -0.957547 0
M  V30 37 H 8.26236 -0.220497 -2.00227 0
M  V30 38 H 6.98024 -1.88313 -0.201676 0
M  V30 39 H 6.08656 -1.1116 -1.5428 0
M  V30 40 H 5.90031 0.923987 0.132256 0
M  V30 41 H 6.67506 1.57621 2.77476 0
M  V30 42 H 4.07737 -1.49128 0.231389 0
M  V30 43 H 1.64542 2.39723 0.367448 0
M  V30 44 H -0.746247 1.98215 -0.026749 0
M  V30 45 H -0.00198287 -2.11591 -0.766759 0
M  V30 46 H 2.38993 -1.7334 -0.358978 0
M  V30 47 H -2.58247 0.946706 0.73899 0
M  V30 48 H -2.2611 -0.672206 1.41124 0
M  V30 49 H -7.13331 3.20227 -0.938618 0
M  V30 50 H -6.24978 2.39181 -2.2651 0
M  V30 51 H -2.99795 -2.1777 2.29763 0
M  V30 52 H -10.893 0.0661734 1.01284 0
M  V30 53 H -10.9134 -1.04993 -0.370058 0
M  V30 54 H -1.68336 -0.902979 -2.68001 0
M  V30 55 H -3.40016 -0.677881 -2.14896 0
M  V30 56 H -2.42134 -2.16058 -1.69052 0
M  V30 END ATOM
M  V30 BEGIN BOND
M  V30 1 1 1 2
M  V30 2 2 2 3
M  V30 3 1 2 4
M  V30 4 1 4 5
M  V30 5 1 5 6
M  V30 6 1 6 7
M  V30 7 2 7 8
M  V30 8 1 7 9
M  V30 9 1 6 10
M  V30 10 1 10 11
M  V30 11 2 11 12
M  V30 12 1 11 13
M  V30 13 2 13 14
M  V30 14 1 14 15
M  V30 15 2 15 16
M  V30 16 1 16 17
M  V30 17 2 17 18
M  V30 18 1 16 19
M  V30 19 1 19 20
M  V30 20 1 20 21
M  V30 21 2 21 22
M  V30 22 1 22 23
M  V30 23 2 23 24
M  V30 24 1 24 25
M  V30 25 1 24 26
M  V30 26 2 26 27
M  V30 27 1 27 28
M  V30 28 2 28 29
M  V30 29 1 29 30
M  V30 30 2 30 31
M  V30 31 1 31 32
M  V30 32 1 27 33
M  V30 33 1 19 34
M  V30 34 1 18 13
M  V30 35 1 31 21
M  V30 36 1 29 23
M  V30 37 1 1 35
M  V30 38 1 4 36
M  V30 39 1 4 37
M  V30 40 1 5 38
M  V30 41 1 5 39
M  V30 42 1 6 40 CFG=3
M  V30 43 1 9 41
M  V30 44 1 10 42
M  V30 45 1 14 43
M  V30 46 1 15 44
M  V30 47 1 17 45
M  V30 48 1 18 46
M  V30 49 1 20 47
M  V30 50 1 20 48
M  V30 51 1 25 49
M  V30 52 1 25 50
M  V30 53 1 32 51
M  V30 54 1 33 52
M  V30 55 1 33 53
M  V30 56 1 34 54
M  V30 57 1 34 55
M  V30 58 1 34 56
M  V30 END BOND
M  V30 END CTAB
M  END
