
     RDKit          3D

  0  0  0  0  0  0  0  0  0  0999 V3000
M  V30 BEGIN CTAB
M  V30 COUNTS 132 132 0 0 0
M  V30 BEGIN ATOM
M  V30 1 C -11.6196 -2.96608 0.932174 0 CFG=2
M  V30 2 C -13.0365 -2.5721 1.26508 0
M  V30 3 N -11.0245 -3.82036 1.91272 0
M  V30 4 C -10.8672 -1.73929 0.693621 0
M  V30 5 O -11.2966 -0.939035 -0.250443 0
M  V30 6 N -9.73951 -1.36247 1.39271 0
M  V30 7 C -8.98675 -0.14107 1.20677 0 CFG=1
M  V30 8 C -8.5268 0.491658 2.47891 0
M  V30 9 C -9.6367 0.835559 3.44385 0
M  V30 10 C -9.02746 1.50168 4.64709 0
M  V30 11 O -7.66369 1.63788 4.70304 0
M  V30 12 O -9.79819 1.90019 5.53673 0
M  V30 13 C -7.73761 -0.558983 0.426641 0
M  V30 14 O -7.78615 -1.34436 -0.49967 0
M  V30 15 N -6.50206 0.0348566 0.860153 0
M  V30 16 C -5.31055 -0.334143 0.131202 0 CFG=1
M  V30 17 C -4.57625 0.898558 -0.33418 0
M  V30 18 C -5.54269 1.6263 -1.21373 0
M  V30 19 C -5.52867 1.28537 -2.56677 0
M  V30 20 C -6.3561 1.84489 -3.50717 0
M  V30 21 C -7.24816 2.8118 -3.01183 0
M  V30 22 C -7.26888 3.15338 -1.71445 0
M  V30 23 C -6.41227 2.56906 -0.750752 0
M  V30 24 C -4.45178 -1.13992 1.05862 0
M  V30 25 O -4.92707 -1.50883 2.1431 0
M  V30 26 N -3.13778 -1.43514 0.673532 0
M  V30 27 C -2.15001 -2.16843 1.42759 0 CFG=1
M  V30 28 C -1.59672 -3.28315 0.517422 0
M  V30 29 C -1.00169 -2.62017 -0.71458 0
M  V30 30 C -2.72795 -4.16227 0.0717848 0
M  V30 31 C -1.04032 -1.20793 1.72449 0
M  V30 32 O -1.14164 -0.0346817 1.32313 0
M  V30 33 N 0.142863 -1.57381 2.43455 0
M  V30 34 C 1.21208 -0.447986 2.5143 0 CFG=1
M  V30 35 C 1.64928 -0.579064 3.91081 0
M  V30 36 C 2.66423 0.350421 4.46037 0
M  V30 37 C 2.2653 1.76849 4.37163 0
M  V30 38 O 2.10285 2.33737 3.12296 0
M  V30 39 O 2.06868 2.47716 5.36984 0
M  V30 40 C 2.12609 -1.05115 1.47446 0
M  V30 41 O 2.40382 -2.27085 1.79279 0
M  V30 42 N 2.58712 -0.457339 0.344036 0
M  V30 43 C 3.06028 0.134595 -0.806344 0 CFG=1
M  V30 44 C 3.0646 1.59602 -1.00522 0
M  V30 45 C 3.90811 2.44908 -0.149097 0
M  V30 46 C 3.1463 1.90015 -2.50439 0
M  V30 47 C 4.43093 -0.453719 -1.09915 0
M  V30 48 O 5.05651 -0.817569 -0.0233874 0
M  V30 49 N 5.0603 -0.662148 -2.30441 0
M  V30 50 C 6.3656 -1.3313 -2.34797 0 CFG=2
M  V30 51 C 7.38422 -0.261509 -2.75639 0
M  V30 52 O 7.11836 0.487593 -3.69335 0
M  V30 53 N 8.5636 -0.217319 -2.00711 0
M  V30 54 C 9.6448 0.790331 -2.28811 0 CFG=1
M  V30 55 C 9.24075 2.00811 -1.52592 0
M  V30 56 C 9.94722 3.26649 -1.55024 0
M  V30 57 C 11.302 3.48308 -1.04091 0
M  V30 58 C 11.5146 3.19276 0.427147 0
M  V30 59 N 12.9154 3.47426 0.730414 0
M  V30 60 C 10.8632 0.138976 -1.83675 0
M  V30 61 O 12.1182 0.539433 -1.87624 0
M  V30 62 O 10.6915 -1.06202 -1.29305 0
M  V30 63 C 6.38796 -2.49976 -3.24992 0 CFG=1
M  V30 64 C 6.31455 -2.14764 -4.73888 0
M  V30 65 O 7.69387 -3.0689 -3.1326 0
M  V30 66 H -11.6791 -3.5483 -0.035689 0
M  V30 67 H -13.474 -2.10942 0.355575 0
M  V30 68 H -13.0261 -1.81317 2.09557 0
M  V30 69 H -13.5919 -3.48924 1.56367 0
M  V30 70 H -10.4277 -4.54349 1.43002 0
M  V30 71 H -11.7634 -4.33186 2.48652 0
M  V30 72 H -9.3687 -2.01651 2.15353 0
M  V30 73 H -9.54643 0.562198 0.555499 0
M  V30 74 H -8.00877 1.48152 2.21914 0
M  V30 75 H -7.75061 -0.137448 2.96351 0
M  V30 76 H -10.3839 1.51113 3.01547 0
M  V30 77 H -10.1127 -0.114892 3.81772 0
M  V30 78 H -7.0881 2.16117 4.05652 0
M  V30 79 H -6.46618 0.658223 1.64742 0
M  V30 80 H -5.56551 -0.980553 -0.726982 0
M  V30 81 H -4.30796 1.49632 0.566178 0
M  V30 82 H -3.68775 0.681734 -0.935147 0
M  V30 83 H -4.83176 0.53415 -2.91799 0
M  V30 84 H -6.34163 1.5795 -4.54086 0
M  V30 85 H -7.91988 3.27199 -3.74354 0
M  V30 86 H -7.95929 3.90757 -1.29773 0
M  V30 87 H -6.40683 2.84286 0.26712 0
M  V30 88 H -2.76113 -1.1041 -0.287549 0
M  V30 89 H -2.5382 -2.55979 2.35969 0
M  V30 90 H -0.816852 -3.83344 1.04319 0
M  V30 91 H -0.768867 -1.56999 -0.471351 0
M  V30 92 H -0.0601282 -3.12308 -0.967457 0
M  V30 93 H -1.69383 -2.68596 -1.58003 0
M  V30 94 H -3.65741 -3.82389 0.569217 0
M  V30 95 H -2.5416 -5.22853 0.362368 0
M  V30 96 H -2.91148 -4.09229 -1.02214 0
M  V30 97 H 0.289128 -2.47059 2.85635 0
M  V30 98 H 0.699645 0.426919 2.21698 0
M  V30 99 H 2.02965 -1.66245 4.06894 0
M  V30 100 H 0.773971 -0.556874 4.5917 0
M  V30 101 H 2.70761 0.0981455 5.58838 0
M  V30 102 H 3.69274 0.238792 4.08744 0
M  V30 103 H 2.62347 3.20303 2.90569 0
M  V30 104 H 3.05299 -1.66525 -0.0782136 0
M  V30 105 H 2.44423 -0.278696 -1.72387 0
M  V30 106 H 1.95751 1.91954 -0.783051 0
M  V30 107 H 4.26567 3.30519 -0.837679 0
M  V30 108 H 4.86971 1.96081 0.116992 0
M  V30 109 H 3.47444 2.88194 0.751972 0
M  V30 110 H 2.51004 2.80245 -2.75036 0
M  V30 111 H 4.16375 2.12491 -2.82533 0
M  V30 112 H 2.76095 1.04153 -3.10272 0
M  V30 113 H 4.65474 -0.373884 -3.20915 0
M  V30 114 H 6.60531 -1.63614 -1.32066 0
M  V30 115 H 8.72595 -0.877926 -1.23332 0
M  V30 116 H 9.58359 1.02014 -3.38405 0
M  V30 117 H 8.17702 2.22728 -1.89892 0
M  V30 118 H 9.03682 1.6186 -0.467457 0
M  V30 119 H 9.29234 4.11837 -1.14875 0
M  V30 120 H 9.96877 3.59615 -2.66791 0
M  V30 121 H 12.0831 3.12673 -1.70486 0
M  V30 122 H 11.461 4.64115 -1.12688 0
M  V30 123 H 11.2163 2.18916 0.716053 0
M  V30 124 H 10.9395 3.89024 1.06129 0
M  V30 125 H 13.4399 2.59479 0.954624 0
M  V30 126 H 13.3834 3.95159 -0.0983077 0
M  V30 127 H 12.737 0.706938 -1.06419 0
M  V30 128 H 5.66908 -3.26125 -2.97066 0
M  V30 129 H 5.30101 -1.69436 -4.90245 0
M  V30 130 H 6.34093 -3.07295 -5.34364 0
M  V30 131 H 7.15848 -1.53121 -5.0848 0
M  V30 132 H 8.02089 -2.93026 -2.20837 0
M  V30 END ATOM
M  V30 BEGIN BOND
M  V30 1 1 1 2
M  V30 2 1 1 3
M  V30 3 1 1 4
M  V30 4 2 4 5
M  V30 5 1 4 6
M  V30 6 1 6 7
M  V30 7 1 7 8
M  V30 8 1 8 9
M  V30 9 1 9 10
M  V30 10 1 10 11
M  V30 11 2 10 12
M  V30 12 1 7 13
M  V30 13 2 13 14
M  V30 14 1 13 15
M  V30 15 1 15 16
M  V30 16 1 16 17
M  V30 17 1 17 18
M  V30 18 2 18 19
M  V30 19 1 19 20
M  V30 20 2 20 21
M  V30 21 1 21 22
M  V30 22 2 22 23
M  V30 23 1 16 24
M  V30 24 2 24 25
M  V30 25 1 24 26
M  V30 26 1 26 27
M  V30 27 1 27 28
M  V30 28 1 28 29
M  V30 29 1 28 30
M  V30 30 1 27 31
M  V30 31 2 31 32
M  V30 32 1 31 33
M  V30 33 1 33 34
M  V30 34 1 34 35
M  V30 35 1 35 36
M  V30 36 1 36 37
M  V30 37 1 37 38
M  V30 38 2 37 39
M  V30 39 1 34 40
M  V30 40 2 40 41
M  V30 41 1 40 42
M  V30 42 1 42 43
M  V30 43 1 43 44
M  V30 44 1 44 45
M  V30 45 1 44 46
M  V30 46 1 43 47
M  V30 47 2 47 48
M  V30 48 1 47 49
M  V30 49 1 49 50
M  V30 50 1 50 51
M  V30 51 2 51 52
M  V30 52 1 51 53
M  V30 53 1 53 54
M  V30 54 1 54 55
M  V30 55 1 55 56
M  V30 56 1 56 57
M  V30 57 1 57 58
M  V30 58 1 58 59
M  V30 59 1 54 60
M  V30 60 1 60 61
M  V30 61 2 60 62
M  V30 62 1 50 63
M  V30 63 1 63 64
M  V30 64 1 63 65
M  V30 65 1 23 18
M  V30 66 1 1 66 CFG=3
M  V30 67 1 2 67
M  V30 68 1 2 68
M  V30 69 1 2 69
M  V30 70 1 3 70
M  V30 71 1 3 71
M  V30 72 1 6 72
M  V30 73 1 7 73 CFG=3
M  V30 74 1 8 74
M  V30 75 1 8 75
M  V30 76 1 9 76
M  V30 77 1 9 77
M  V30 78 1 11 78
M  V30 79 1 15 79
M  V30 80 1 16 80 CFG=3
M  V30 81 1 17 81
M  V30 82 1 17 82
M  V30 83 1 19 83
M  V30 84 1 20 84
M  V30 85 1 21 85
M  V30 86 1 22 86
M  V30 87 1 23 87
M  V30 88 1 26 88
M  V30 89 1 27 89 CFG=1
M  V30 90 1 28 90
M  V30 91 1 29 91
M  V30 92 1 29 92
M  V30 93 1 29 93
M  V30 94 1 30 94
M  V30 95 1 30 95
M  V30 96 1 30 96
M  V30 97 1 33 97
M  V30 98 1 34 98 CFG=3
M  V30 99 1 35 99
M  V30 100 1 35 100
M  V30 101 1 36 101
M  V30 102 1 36 102
M  V30 103 1 38 103
M  V30 104 1 42 104
M  V30 105 1 43 105 CFG=3
M  V30 106 1 44 106
M  V30 107 1 45 107
M  V30 108 1 45 108
M  V30 109 1 45 109
M  V30 110 1 46 110
M  V30 111 1 46 111
M  V30 112 1 46 112
M  V30 113 1 49 113
M  V30 114 1 50 114 CFG=1
M  V30 115 1 53 115
M  V30 116 1 54 116 CFG=3
M  V30 117 1 55 117
M  V30 118 1 55 118
M  V30 119 1 56 119
M  V30 120 1 56 120
M  V30 121 1 57 121
M  V30 122 1 57 122
M  V30 123 1 58 123
M  V30 124 1 58 124
M  V30 125 1 59 125
M  V30 126 1 59 126
M  V30 127 1 61 127
M  V30 128 1 63 128 CFG=1
M  V30 129 1 64 129
M  V30 130 1 64 130
M  V30 131 1 64 131
M  V30 132 1 65 132
M  V30 END BOND
M  V30 END CTAB
M  END
