
     RDKit          3D

  0  0  0  0  0  0  0  0  0  0999 V3000
M  V30 BEGIN CTAB
M  V30 COUNTS 21 21 0 0 0
M  V30 BEGIN ATOM
M  V30 1 C 3.82487 -0.0168071 -0.535928 0
M  V30 2 C 2.4714 0.294376 0.00621399 0
M  V30 3 N 1.39049 -0.45018 -0.13366 0
M  V30 4 C 0.259246 -0.0626882 0.394698 0
M  V30 5 C 0.256086 1.12041 1.07972 0
M  V30 6 S 1.88839 1.60783 0.922558 0
M  V30 7 C -1.00185 -0.883554 0.259212 0
M  V30 8 C -1.90147 -0.341586 -0.8132 0
M  V30 9 N -2.33121 1.00238 -0.590435 0
M  V30 10 N -1.64349 -0.928744 1.55434 0
M  V30 11 H 4.00951 0.411475 -1.52306 0
M  V30 12 H 4.61996 0.365326 0.166754 0
M  V30 13 H 4.00318 -1.10786 -0.592116 0
M  V30 14 H -0.594414 1.60977 1.59147 0
M  V30 15 H -0.767415 -1.93273 -0.0115337 0
M  V30 16 H -2.80407 -0.987295 -0.825744 0
M  V30 17 H -1.43347 -0.456354 -1.81269 0
M  V30 18 H -3.13995 1.07024 0.06751 0
M  V30 19 H -2.65392 1.40307 -1.50271 0
M  V30 20 H -2.12379 -0.0150589 1.75202 0
M  V30 21 H -2.3281 -1.70201 1.65003 0
M  V30 END ATOM
M  V30 BEGIN BOND
M  V30 1 1 1 2
M  V30 2 2 2 3
M  V30 3 1 3 4
M  V30 4 2 4 5
M  V30 5 1 5 6
M  V30 6 1 4 7
M  V30 7 1 7 8
M  V30 8 1 8 9
M  V30 9 1 7 10
M  V30 10 1 6 2
M  V30 11 1 1 11
M  V30 12 1 1 12
M  V30 13 1 1 13
M  V30 14 1 5 14
M  V30 15 1 7 15
M  V30 16 1 8 16
M  V30 17 1 8 17
M  V30 18 1 9 18
M  V30 19 1 9 19
M  V30 20 1 10 20
M  V30 21 1 10 21
M  V30 END BOND
M  V30 END CTAB
M  END
