
     RDKit          3D

  0  0  0  0  0  0  0  0  0  0999 V3000
M  V30 BEGIN CTAB
M  V30 COUNTS 31 32 0 0 0
M  V30 BEGIN ATOM
M  V30 1 C 6.71216 1.08347 1.40552 0
M  V30 2 S 5.86321 1.55911 -0.097925 0
M  V30 3 C 4.32886 0.610072 -0.185913 0
M  V30 4 N 3.85058 -0.29622 0.657607 0
M  V30 5 N 2.74945 -0.864717 0.417866 0
M  V30 6 C 2.06548 -0.55896 -0.675806 0
M  V30 7 S 3.09885 0.625368 -1.38247 0
M  V30 8 N 0.822152 -1.08741 -1.15638 0
M  V30 9 C 0.279588 -0.568037 -2.32933 0
M  V30 10 O 0.863954 0.380129 -2.97217 0
M  V30 11 C -0.981776 -1.07892 -2.89443 0
M  V30 12 S -1.83422 -2.077 -1.65586 0
M  V30 13 C -2.55841 -1.01478 -0.4514 0
M  V30 14 N -1.92312 -0.638409 0.641801 0
M  V30 15 C -2.48592 0.171549 1.56943 0
M  V30 16 N -1.75423 0.546314 2.73834 0
M  V30 17 C -3.77538 0.603765 1.33306 0
M  V30 18 C -4.4664 0.230489 0.2042 0
M  V30 19 N -3.81649 -0.581793 -0.663576 0
M  V30 20 N -5.79588 0.634599 -0.098866 0
M  V30 21 H 6.41114 1.78233 2.22617 0
M  V30 22 H 6.35286 0.0801696 1.72991 0
M  V30 23 H 7.81097 1.09712 1.29482 0
M  V30 24 H 0.371125 -1.84603 -0.631416 0
M  V30 25 H -0.734187 -1.75334 -3.77038 0
M  V30 26 H -1.64839 -0.23125 -3.23595 0
M  V30 27 H -2.08632 1.31373 3.36724 0
M  V30 28 H -0.87868 0.0501214 2.96759 0
M  V30 29 H -4.2623 1.25267 2.05319 0
M  V30 30 H -6.13957 1.5349 0.279434 0
M  V30 31 H -6.43911 0.0651627 -0.684312 0
M  V30 END ATOM
M  V30 BEGIN BOND
M  V30 1 1 1 2
M  V30 2 1 2 3
M  V30 3 2 3 4
M  V30 4 1 4 5
M  V30 5 2 5 6
M  V30 6 1 6 7
M  V30 7 1 6 8
M  V30 8 1 8 9
M  V30 9 2 9 10
M  V30 10 1 9 11
M  V30 11 1 11 12
M  V30 12 1 12 13
M  V30 13 2 13 14
M  V30 14 1 14 15
M  V30 15 1 15 16
M  V30 16 2 15 17
M  V30 17 1 17 18
M  V30 18 2 18 19
M  V30 19 1 18 20
M  V30 20 1 7 3
M  V30 21 1 19 13
M  V30 22 1 1 21
M  V30 23 1 1 22
M  V30 24 1 1 23
M  V30 25 1 8 24
M  V30 26 1 11 25
M  V30 27 1 11 26
M  V30 28 1 16 27
M  V30 29 1 16 28
M  V30 30 1 17 29
M  V30 31 1 20 30
M  V30 32 1 20 31
M  V30 END BOND
M  V30 END CTAB
M  END
