
     RDKit          3D

  0  0  0  0  0  0  0  0  0  0999 V3000
M  V30 BEGIN CTAB
M  V30 COUNTS 41 44 0 0 0
M  V30 BEGIN ATOM
M  V30 1 N -1.91673 3.88808 -0.134925 0
M  V30 2 C -1.61681 2.82261 0.751499 0
M  V30 3 C -1.46782 1.55301 -0.0332283 0 CFG=1
M  V30 4 O -0.475134 1.58663 -0.973572 0
M  V30 5 C 0.0139749 0.307464 -1.15632 0 CFG=2
M  V30 6 C -0.771442 -0.621331 -0.279274 0 CFG=1
M  V30 7 C -1.14321 0.356522 0.848536 0 CFG=2
M  V30 8 O -2.25907 -0.245015 1.36247 0
M  V30 9 C -2.78437 -1.04742 0.377131 0
M  V30 10 O -2.03755 -0.89588 -0.766756 0
M  V30 11 C -4.23635 -0.664206 0.19476 0
M  V30 12 C -2.76229 -2.51914 0.748107 0
M  V30 13 N 1.39338 0.30403 -0.643003 0
M  V30 14 C 1.99032 1.24483 0.111874 0
M  V30 15 C 3.28902 0.894547 0.398983 0
M  V30 16 C 3.50389 -0.322684 -0.208925 0
M  V30 17 C 2.31696 -0.652491 -0.838779 0
M  V30 18 N 2.25034 -1.81014 -1.51817 0
M  V30 19 C 3.32858 -2.61238 -1.56895 0
M  V30 20 N 4.49855 -2.29561 -0.952797 0
M  V30 21 C 4.60922 -1.15332 -0.26564 0
M  V30 22 N 5.79774 -0.768601 0.395872 0
M  V30 23 H -2.57633 4.56047 0.105727 0
M  V30 24 H -1.90528 3.60347 -1.09285 0
M  V30 25 H -2.41114 2.67054 1.51056 0
M  V30 26 H -0.656593 3.05783 1.25356 0
M  V30 27 H -2.4266 1.32441 -0.548202 0
M  V30 28 H 0.00730562 -0.00854551 -2.21531 0
M  V30 29 H -0.227468 -1.47938 0.0882341 0
M  V30 30 H -0.324552 0.529042 1.53587 0
M  V30 31 H -4.64641 -0.92837 -0.77931 0
M  V30 32 H -4.8076 -1.2414 0.975006 0
M  V30 33 H -4.41115 0.410502 0.467273 0
M  V30 34 H -1.85186 -2.82123 1.26402 0
M  V30 35 H -2.83472 -3.0776 -0.223263 0
M  V30 36 H -3.70116 -2.78512 1.30269 0
M  V30 37 H 1.54487 2.16914 0.468055 0
M  V30 38 H 4.01215 1.4523 0.984419 0
M  V30 39 H 3.22545 -3.53706 -2.13027 0
M  V30 40 H 6.34152 0.0693685 0.0578561 0
M  V30 41 H 6.12838 -1.31787 1.2151 0
M  V30 END ATOM
M  V30 BEGIN BOND
M  V30 1 1 1 2
M  V30 2 1 2 3
M  V30 3 1 3 4
M  V30 4 1 4 5
M  V30 5 1 5 6
M  V30 6 1 6 7
M  V30 7 1 7 8
M  V30 8 1 8 9
M  V30 9 1 9 10
M  V30 10 1 9 11
M  V30 11 1 9 12
M  V30 12 1 5 13
M  V30 13 1 13 14
M  V30 14 2 14 15
M  V30 15 1 15 16
M  V30 16 2 16 17
M  V30 17 1 17 18
M  V30 18 2 18 19
M  V30 19 1 19 20
M  V30 20 2 20 21
M  V30 21 1 21 22
M  V30 22 1 7 3
M  V30 23 1 17 13
M  V30 24 1 10 6
M  V30 25 1 21 16
M  V30 26 1 1 23
M  V30 27 1 1 24
M  V30 28 1 2 25
M  V30 29 1 2 26
M  V30 30 1 3 27 CFG=3
M  V30 31 1 5 28 CFG=3
M  V30 32 1 6 29 CFG=1
M  V30 33 1 7 30 CFG=1
M  V30 34 1 11 31
M  V30 35 1 11 32
M  V30 36 1 11 33
M  V30 37 1 12 34
M  V30 38 1 12 35
M  V30 39 1 12 36
M  V30 40 1 14 37
M  V30 41 1 15 38
M  V30 42 1 19 39
M  V30 43 1 22 40
M  V30 44 1 22 41
M  V30 END BOND
M  V30 END CTAB
M  END
