
     RDKit          3D

  0  0  0  0  0  0  0  0  0  0999 V3000
M  V30 BEGIN CTAB
M  V30 COUNTS 27 29 0 0 0
M  V30 BEGIN ATOM
M  V30 1 N -0.985001 4.63481 0.269392 0
M  V30 2 C -0.380671 3.32311 0.234166 0
M  V30 3 N -0.948911 2.16811 -0.0420165 0
M  V30 4 C -0.240558 1.05828 -0.0279404 0
M  V30 5 C 1.07617 1.16955 0.279823 0
M  V30 6 S 1.24255 2.85057 0.534604 0
M  V30 7 C 1.94199 0.0555373 0.328375 0
M  V30 8 N 3.21935 0.102124 0.619623 0
M  V30 9 C 3.92786 -1.00132 0.634468 0
M  V30 10 S 2.76948 -2.18739 0.221754 0
M  V30 11 C 1.40892 -1.17631 0.049333 0
M  V30 12 C 0.0459814 -1.29519 -0.270292 0
M  V30 13 C -0.811775 -0.229071 -0.321945 0
M  V30 14 O -2.09739 -0.358496 -0.62958 0
M  V30 15 C -3.06819 -1.23631 -0.883975 0
M  V30 16 C -3.477 -2.1217 0.25888 0
M  V30 17 F -4.49237 -2.99479 -0.127732 0
M  V30 18 F -2.52596 -2.82044 0.883753 0
M  V30 19 F -4.23891 -0.587484 -1.35478 0
M  V30 20 F -2.71434 -2.11471 -1.93314 0
M  V30 21 N 5.31553 -1.15241 0.924669 0
M  V30 22 H -1.62433 4.82255 1.06409 0
M  V30 23 H -0.790297 5.3331 -0.449497 0
M  V30 24 H -0.226223 -2.3112 -0.493834 0
M  V30 25 H -3.99563 -1.46494 1.0318 0
M  V30 26 H 6.04782 -0.50712 0.585545 0
M  V30 27 H 5.62191 -1.95887 1.51365 0
M  V30 END ATOM
M  V30 BEGIN BOND
M  V30 1 1 1 2
M  V30 2 2 2 3
M  V30 3 1 3 4
M  V30 4 2 4 5
M  V30 5 1 5 6
M  V30 6 1 5 7
M  V30 7 1 7 8
M  V30 8 2 8 9
M  V30 9 1 9 10
M  V30 10 1 10 11
M  V30 11 1 11 12
M  V30 12 2 12 13
M  V30 13 1 13 14
M  V30 14 1 14 15
M  V30 15 1 15 16
M  V30 16 1 16 17
M  V30 17 1 16 18
M  V30 18 1 15 19
M  V30 19 1 15 20
M  V30 20 1 9 21
M  V30 21 1 6 2
M  V30 22 2 11 7
M  V30 23 1 13 4
M  V30 24 1 1 22
M  V30 25 1 1 23
M  V30 26 1 12 24
M  V30 27 1 16 25
M  V30 28 1 21 26
M  V30 29 1 21 27
M  V30 END BOND
M  V30 END CTAB
M  END
