
     RDKit          3D

  0  0  0  0  0  0  0  0  0  0999 V3000
M  V30 BEGIN CTAB
M  V30 COUNTS 77 77 0 0 0
M  V30 BEGIN ATOM
M  V30 1 N 9.92362 -0.810222 -1.15615 0
M  V30 2 C 8.60884 -1.38538 -1.02062 0 CFG=1
M  V30 3 C 8.54112 -2.22912 0.254435 0
M  V30 4 C 9.50843 -3.31434 0.209713 0
M  V30 5 O 9.70794 -4.13129 1.30402 0
M  V30 6 O 10.1804 -3.52379 -0.828936 0
M  V30 7 C 7.62658 -0.297291 -0.889388 0
M  V30 8 O 8.00066 0.831857 -0.503221 0
M  V30 9 N 6.23259 -0.465462 -1.19037 0
M  V30 10 C 5.29563 0.608185 -1.04422 0 CFG=1
M  V30 11 C 5.07976 1.33973 -2.37009 0
M  V30 12 O 6.2902 1.86844 -2.82173 0
M  V30 13 C 3.93612 0.17335 -0.614641 0
M  V30 14 O 3.66172 -1.04888 -0.456903 0
M  V30 15 N 2.91494 1.12695 -0.37435 0
M  V30 16 C 1.56203 0.709898 0.0459248 0 CFG=1
M  V30 17 C 1.12658 1.44914 1.26154 0
M  V30 18 C 2.01792 1.29795 2.43425 0
M  V30 19 O 3.1246 0.509116 2.38931 0
M  V30 20 O 1.73304 1.9167 3.48843 0
M  V30 21 C 0.708761 0.839983 -1.14164 0
M  V30 22 O 1.33245 0.556768 -2.25372 0
M  V30 23 N -0.60724 1.20437 -1.26482 0
M  V30 24 C -1.27306 1.23563 -2.61234 0
M  V30 25 C -2.31776 2.28606 -2.55428 0
M  V30 26 C -2.2339 2.8275 -1.17837 0
M  V30 27 C -1.68752 1.63223 -0.407736 0 CFG=1
M  V30 28 C -2.70928 0.589224 -0.224501 0
M  V30 29 O -2.43579 -0.568067 -0.625987 0
M  V30 30 N -3.9662 0.79595 0.363513 0
M  V30 31 C -4.97029 -0.309905 0.516011 0 CFG=1
M  V30 32 C -5.36397 -0.367448 1.94617 0
M  V30 33 C -6.29153 -1.36634 2.43918 0
M  V30 34 C -7.68253 -1.44926 1.95414 0
M  V30 35 N -8.46896 -0.251604 2.12553 0
M  V30 36 C -9.81164 -0.239552 1.697 0
M  V30 37 N -10.7213 0.563174 2.43487 0
M  V30 38 N -10.2454 -0.920877 0.669272 0
M  V30 39 C -6.11331 0.0522608 -0.359307 0
M  V30 40 O -6.71502 -0.887293 -1.14223 0
M  V30 41 O -6.50797 1.23712 -0.370926 0
M  V30 42 H 10.5585 -1.14795 -0.43202 0
M  V30 43 H 10.2611 -1.02327 -2.11208 0
M  V30 44 H 8.38065 -2.06079 -1.85727 0
M  V30 45 H 8.81016 -1.58769 1.14027 0
M  V30 46 H 7.4875 -2.55418 0.35612 0
M  V30 47 H 8.98367 -4.69204 1.72603 0
M  V30 48 H 5.94131 -1.40703 -1.52258 0
M  V30 49 H 5.74394 1.37837 -0.387211 0
M  V30 50 H 4.41611 2.23089 -2.14381 0
M  V30 51 H 4.57134 0.738615 -3.11548 0
M  V30 52 H 6.38543 2.8282 -2.56552 0
M  V30 53 H 3.08047 2.12877 -0.481976 0
M  V30 54 H 1.67275 -0.381892 0.323424 0
M  V30 55 H 0.167252 0.950629 1.634 0
M  V30 56 H 0.853614 2.50434 1.0721 0
M  V30 57 H 3.0835 -0.500021 2.59501 0
M  V30 58 H -1.67224 0.240911 -2.78045 0
M  V30 59 H -0.510529 1.42539 -3.39373 0
M  V30 60 H -3.32955 1.96396 -2.86415 0
M  V30 61 H -2.05392 3.10386 -3.28912 0
M  V30 62 H -1.45138 3.61006 -1.13421 0
M  V30 63 H -3.12799 3.23972 -0.733562 0
M  V30 64 H -1.41674 2.01131 0.569299 0
M  V30 65 H -4.24989 1.7094 0.711763 0
M  V30 66 H -4.57158 -1.26539 0.185024 0
M  V30 67 H -4.42446 -0.403329 2.59506 0
M  V30 68 H -5.78175 0.662049 2.2717 0
M  V30 69 H -5.79651 -2.38896 2.31765 0
M  V30 70 H -6.35478 -1.27527 3.57646 0
M  V30 71 H -8.21784 -2.18143 2.70776 0
M  V30 72 H -7.8484 -1.97162 0.999953 0
M  V30 73 H -8.06236 0.594223 2.55489 0
M  V30 74 H -10.4742 1.53834 2.64978 0
M  V30 75 H -11.6186 0.167424 2.74573 0
M  V30 76 H -9.62302 -1.50757 0.112343 0
M  V30 77 H -6.80292 -0.825344 -2.15799 0
M  V30 END ATOM
M  V30 BEGIN BOND
M  V30 1 1 1 2
M  V30 2 1 2 3
M  V30 3 1 3 4
M  V30 4 1 4 5
M  V30 5 2 4 6
M  V30 6 1 2 7
M  V30 7 2 7 8
M  V30 8 1 7 9
M  V30 9 1 9 10
M  V30 10 1 10 11
M  V30 11 1 11 12
M  V30 12 1 10 13
M  V30 13 2 13 14
M  V30 14 1 13 15
M  V30 15 1 15 16
M  V30 16 1 16 17
M  V30 17 1 17 18
M  V30 18 1 18 19
M  V30 19 2 18 20
M  V30 20 1 16 21
M  V30 21 2 21 22
M  V30 22 1 21 23
M  V30 23 1 23 24
M  V30 24 1 24 25
M  V30 25 1 25 26
M  V30 26 1 26 27
M  V30 27 1 27 28
M  V30 28 2 28 29
M  V30 29 1 28 30
M  V30 30 1 30 31
M  V30 31 1 31 32
M  V30 32 1 32 33
M  V30 33 1 33 34
M  V30 34 1 34 35
M  V30 35 1 35 36
M  V30 36 1 36 37
M  V30 37 2 36 38 CFG=2
M  V30 38 1 31 39
M  V30 39 1 39 40
M  V30 40 2 39 41
M  V30 41 1 27 23
M  V30 42 1 1 42
M  V30 43 1 1 43
M  V30 44 1 2 44 CFG=3
M  V30 45 1 3 45
M  V30 46 1 3 46
M  V30 47 1 5 47
M  V30 48 1 9 48
M  V30 49 1 10 49 CFG=1
M  V30 50 1 11 50
M  V30 51 1 11 51
M  V30 52 1 12 52
M  V30 53 1 15 53
M  V30 54 1 16 54 CFG=1
M  V30 55 1 17 55
M  V30 56 1 17 56
M  V30 57 1 19 57
M  V30 58 1 24 58
M  V30 59 1 24 59
M  V30 60 1 25 60
M  V30 61 1 25 61
M  V30 62 1 26 62
M  V30 63 1 26 63
M  V30 64 1 27 64 CFG=1
M  V30 65 1 30 65
M  V30 66 1 31 66 CFG=3
M  V30 67 1 32 67
M  V30 68 1 32 68
M  V30 69 1 33 69
M  V30 70 1 33 70
M  V30 71 1 34 71
M  V30 72 1 34 72
M  V30 73 1 35 73
M  V30 74 1 37 74
M  V30 75 1 37 75
M  V30 76 1 38 76
M  V30 77 1 40 77
M  V30 END BOND
M  V30 END CTAB
M  END
