
     RDKit          3D

  0  0  0  0  0  0  0  0  0  0999 V3000
M  V30 BEGIN CTAB
M  V30 COUNTS 48 51 0 0 0
M  V30 BEGIN ATOM
M  V30 1 N -3.98295 -2.13919 -1.06391 0
M  V30 2 C -4.24853 -0.818007 -1.5758 0
M  V30 3 C -3.7087 0.268135 -0.629806 0
M  V30 4 C -4.43342 0.0418459 0.67856 0
M  V30 5 C -5.9487 0.155872 0.583039 0
M  V30 6 C -5.15527 1.10731 1.38452 0
M  V30 7 N -2.29639 0.0236619 -0.52409 0
M  V30 8 C -1.54632 1.01455 0.165871 0
M  V30 9 C -0.133456 0.611918 0.186684 0
M  V30 10 N 0.480019 -0.0511917 1.14614 0
M  V30 11 C 1.77795 -0.418114 1.15363 0
M  V30 12 N 2.22456 -1.11947 2.27906 0
M  V30 13 C 2.58475 -0.0773874 0.048038 0
M  V30 14 C 1.95437 0.610817 -0.951232 0
M  V30 15 N 0.624579 0.948114 -0.883424 0
M  V30 16 S 3.18574 0.855726 -2.10455 0
M  V30 17 C 4.46707 0.0902604 -1.31106 0
M  V30 18 C 3.90132 -0.352581 -0.1354 0
M  V30 19 C 4.92893 -1.07951 0.723261 0
M  V30 20 C 6.11629 -0.170791 0.932036 0
M  V30 21 C 6.66284 0.369934 -0.36512 0
M  V30 22 C 5.93181 -0.193579 -1.56466 0
M  V30 23 C -4.06841 1.5847 -1.22552 0
M  V30 24 H -4.36398 -2.81242 -1.75429 0
M  V30 25 H -4.4401 -2.29273 -0.157211 0
M  V30 26 H -3.7334 -0.733392 -2.56198 0
M  V30 27 H -5.32807 -0.687982 -1.7706 0
M  V30 28 H -4.06167 -0.826373 1.2685 0
M  V30 29 H -6.42029 0.506078 -0.336169 0
M  V30 30 H -6.55551 -0.618503 1.12202 0
M  V30 31 H -5.24363 0.994074 2.49617 0
M  V30 32 H -5.16702 2.14951 1.06518 0
M  V30 33 H -1.90699 -0.287833 -1.41736 0
M  V30 34 H -1.59793 2.02335 -0.287303 0
M  V30 35 H -1.91898 1.13082 1.19817 0
M  V30 36 H 2.0646 -2.14917 2.44281 0
M  V30 37 H 2.76766 -0.641524 3.05919 0
M  V30 38 H 4.57251 -1.39961 1.67613 0
M  V30 39 H 5.29419 -1.97658 0.151102 0
M  V30 40 H 6.91967 -0.789959 1.39121 0
M  V30 41 H 5.84836 0.608951 1.65405 0
M  V30 42 H 6.48141 1.47164 -0.369309 0
M  V30 43 H 7.74886 0.215072 -0.48533 0
M  V30 44 H 6.09462 -1.26688 -1.69703 0
M  V30 45 H 6.21435 0.379921 -2.44751 0
M  V30 46 H -3.9516 2.44624 -0.537984 0
M  V30 47 H -5.13796 1.55667 -1.5183 0
M  V30 48 H -3.49719 1.73761 -2.17647 0
M  V30 END ATOM
M  V30 BEGIN BOND
M  V30 1 1 1 2
M  V30 2 1 2 3
M  V30 3 1 3 4
M  V30 4 1 4 5
M  V30 5 1 5 6
M  V30 6 1 3 7
M  V30 7 1 7 8
M  V30 8 1 8 9
M  V30 9 2 9 10
M  V30 10 1 10 11
M  V30 11 1 11 12
M  V30 12 2 11 13
M  V30 13 1 13 14
M  V30 14 2 14 15
M  V30 15 1 14 16
M  V30 16 1 16 17
M  V30 17 2 17 18
M  V30 18 1 18 19
M  V30 19 1 19 20
M  V30 20 1 20 21
M  V30 21 1 21 22
M  V30 22 1 3 23
M  V30 23 1 6 4
M  V30 24 1 15 9
M  V30 25 1 22 17
M  V30 26 1 18 13
M  V30 27 1 1 24
M  V30 28 1 1 25
M  V30 29 1 2 26
M  V30 30 1 2 27
M  V30 31 1 4 28
M  V30 32 1 5 29
M  V30 33 1 5 30
M  V30 34 1 6 31
M  V30 35 1 6 32
M  V30 36 1 7 33
M  V30 37 1 8 34
M  V30 38 1 8 35
M  V30 39 1 12 36
M  V30 40 1 12 37
M  V30 41 1 19 38
M  V30 42 1 19 39
M  V30 43 1 20 40
M  V30 44 1 20 41
M  V30 45 1 21 42
M  V30 46 1 21 43
M  V30 47 1 22 44
M  V30 48 1 22 45
M  V30 49 1 23 46
M  V30 50 1 23 47
M  V30 51 1 23 48
M  V30 END BOND
M  V30 END CTAB
M  END
