
     RDKit          3D

  0  0  0  0  0  0  0  0  0  0999 V3000
M  V30 BEGIN CTAB
M  V30 COUNTS 34 35 0 0 0
M  V30 BEGIN ATOM
M  V30 1 N -5.12452 0.745615 -0.380085 0
M  V30 2 C -3.85515 0.517432 0.186397 0
M  V30 3 C -3.15046 -0.659562 0.00138211 0
M  V30 4 C -1.92026 -0.856384 0.561985 0
M  V30 5 C -1.3867 0.158126 1.32821 0
M  V30 6 C -2.07364 1.33709 1.5236 0
M  V30 7 C -3.315 1.54025 0.96008 0
M  V30 8 S -0.988053 -2.32159 0.359069 0
M  V30 9 O -1.93441 -3.4996 0.214808 0
M  V30 10 O -0.209431 -2.51299 1.63548 0
M  V30 11 N 0.0230656 -2.17759 -1.00712 0
M  V30 12 C 1.03034 -1.20892 -1.13097 0
M  V30 13 C 1.19614 -0.484197 -2.30278 0
M  V30 14 C 2.15917 0.463693 -2.46576 0
M  V30 15 C 3.01269 0.728128 -1.43769 0
M  V30 16 C 2.90826 0.04884 -0.24579 0
M  V30 17 C 1.91867 -0.908791 -0.111712 0
M  V30 18 S 4.0262 0.417276 1.05552 0
M  V30 19 N 3.43644 1.65601 2.06947 0
M  V30 20 O 4.35251 -0.843966 1.83379 0
M  V30 21 O 5.31777 0.89842 0.42486 0
M  V30 22 H -5.27405 0.571112 -1.38606 0
M  V30 23 H -5.90321 1.08552 0.204864 0
M  V30 24 H -3.57573 -1.46356 -0.607139 0
M  V30 25 H -0.416578 0.0537138 1.79444 0
M  V30 26 H -1.64588 2.13432 2.13023 0
M  V30 27 H -3.84943 2.47361 1.11976 0
M  V30 28 H -0.119478 -2.85003 -1.79233 0
M  V30 29 H 0.530831 -0.662808 -3.1602 0
M  V30 30 H 2.26909 1.01891 -3.39487 0
M  V30 31 H 3.77266 1.47108 -1.55598 0
M  V30 32 H 1.86258 -1.42204 0.830816 0
M  V30 33 H 2.74354 2.24721 1.55324 0
M  V30 34 H 4.18206 2.30569 2.40958 0
M  V30 END ATOM
M  V30 BEGIN BOND
M  V30 1 1 1 2
M  V30 2 2 2 3
M  V30 3 1 3 4
M  V30 4 2 4 5
M  V30 5 1 5 6
M  V30 6 2 6 7
M  V30 7 1 4 8
M  V30 8 2 8 9
M  V30 9 2 8 10
M  V30 10 1 8 11
M  V30 11 1 11 12
M  V30 12 2 12 13
M  V30 13 1 13 14
M  V30 14 2 14 15
M  V30 15 1 15 16
M  V30 16 2 16 17
M  V30 17 1 16 18
M  V30 18 1 18 19
M  V30 19 2 18 20
M  V30 20 2 18 21
M  V30 21 1 7 2
M  V30 22 1 17 12
M  V30 23 1 1 22
M  V30 24 1 1 23
M  V30 25 1 3 24
M  V30 26 1 5 25
M  V30 27 1 6 26
M  V30 28 1 7 27
M  V30 29 1 11 28
M  V30 30 1 13 29
M  V30 31 1 14 30
M  V30 32 1 15 31
M  V30 33 1 17 32
M  V30 34 1 19 33
M  V30 35 1 19 34
M  V30 END BOND
M  V30 END CTAB
M  END
