
     RDKit          3D

  0  0  0  0  0  0  0  0  0  0999 V3000
M  V30 BEGIN CTAB
M  V30 COUNTS 22 22 0 0 0
M  V30 BEGIN ATOM
M  V30 1 N -1.45578 0.708574 1.8353 0
M  V30 2 N -2.2105 -0.157784 1.05163 0
M  V30 3 C -1.67965 -0.633906 -0.0195708 0
M  V30 4 N -0.361715 -0.253433 -0.343631 0
M  V30 5 C 0.0208544 1.02262 -0.893902 0
M  V30 6 C 1.47501 1.30919 -0.806412 0
M  V30 7 C 2.19682 0.606666 0.266897 0
M  V30 8 C 1.8331 -0.616332 0.621226 0
M  V30 9 C 0.68932 -1.2238 -0.10268 0
M  V30 10 Cl 2.64932 -1.50737 1.88958 0
M  V30 11 N -2.4737 -1.51746 -0.802197 0
M  V30 12 H -1.62967 1.75069 1.85029 0
M  V30 13 H -0.669663 0.374969 2.45694 0
M  V30 14 H -0.269677 1.02293 -1.984 0
M  V30 15 H -0.54801 1.86364 -0.446118 0
M  V30 16 H 1.62982 2.41349 -0.620734 0
M  V30 17 H 1.97453 1.1459 -1.80593 0
M  V30 18 H 3.0462 1.05431 0.806642 0
M  V30 19 H 0.315607 -2.14139 0.404368 0
M  V30 20 H 1.01498 -1.55617 -1.13194 0
M  V30 21 H -2.72914 -2.48296 -0.497895 0
M  V30 22 H -2.81804 -1.18237 -1.72786 0
M  V30 END ATOM
M  V30 BEGIN BOND
M  V30 1 1 1 2
M  V30 2 2 2 3
M  V30 3 1 3 4
M  V30 4 1 4 5
M  V30 5 1 5 6
M  V30 6 1 6 7
M  V30 7 2 7 8
M  V30 8 1 8 9
M  V30 9 1 8 10
M  V30 10 1 3 11
M  V30 11 1 9 4
M  V30 12 1 1 12
M  V30 13 1 1 13
M  V30 14 1 5 14
M  V30 15 1 5 15
M  V30 16 1 6 16
M  V30 17 1 6 17
M  V30 18 1 7 18
M  V30 19 1 9 19
M  V30 20 1 9 20
M  V30 21 1 11 21
M  V30 22 1 11 22
M  V30 END BOND
M  V30 END CTAB
M  END
