
     RDKit          3D

  0  0  0  0  0  0  0  0  0  0999 V3000
M  V30 BEGIN CTAB
M  V30 COUNTS 23 22 0 0 0
M  V30 BEGIN ATOM
M  V30 1 C -2.25605 0.392943 -0.763057 0
M  V30 2 C -1.96331 -0.192898 0.594533 0
M  V30 3 N -2.21156 0.822089 1.5793 0
M  V30 4 C -0.583679 -0.768842 0.674184 0
M  V30 5 C 0.497096 0.23205 0.417751 0
M  V30 6 C 1.83084 -0.51531 0.536784 0
M  V30 7 N 1.90092 -1.57393 -0.41837 0
M  V30 8 C 2.92731 0.424119 0.288847 0
M  V30 9 C 3.82947 1.2096 0.0971057 0
M  V30 10 H -2.3745 -0.458327 -1.47213 0
M  V30 11 H -3.24774 0.916407 -0.671065 0
M  V30 12 H -1.47772 1.09407 -1.10585 0
M  V30 13 H -2.6775 -1.05173 0.744043 0
M  V30 14 H -1.66119 1.65587 1.3525 0
M  V30 15 H -3.22591 1.05706 1.53848 0
M  V30 16 H -0.443801 -1.14741 1.71587 0
M  V30 17 H -0.489884 -1.59159 -0.0478611 0
M  V30 18 H 0.446245 0.615667 -0.626801 0
M  V30 19 H 0.482129 1.07222 1.14229 0
M  V30 20 H 1.96692 -0.891633 1.58131 0
M  V30 21 H 1.21381 -1.53644 -1.17629 0
M  V30 22 H 2.88465 -1.65228 -0.761106 0
M  V30 23 H 4.63346 1.8883 -0.0654251 0
M  V30 END ATOM
M  V30 BEGIN BOND
M  V30 1 1 1 2
M  V30 2 1 2 3
M  V30 3 1 2 4
M  V30 4 1 4 5
M  V30 5 1 5 6
M  V30 6 1 6 7
M  V30 7 1 6 8
M  V30 8 3 8 9
M  V30 9 1 1 10
M  V30 10 1 1 11
M  V30 11 1 1 12
M  V30 12 1 2 13
M  V30 13 1 3 14
M  V30 14 1 3 15
M  V30 15 1 4 16
M  V30 16 1 4 17
M  V30 17 1 5 18
M  V30 18 1 5 19
M  V30 19 1 6 20
M  V30 20 1 7 21
M  V30 21 1 7 22
M  V30 22 1 9 23
M  V30 END BOND
M  V30 END CTAB
M  END
