
     RDKit          3D

  0  0  0  0  0  0  0  0  0  0999 V3000
M  V30 BEGIN CTAB
M  V30 COUNTS 27 27 0 0 0
M  V30 BEGIN ATOM
M  V30 1 N 4.99813 -0.751784 -0.780943 0
M  V30 2 N 3.72083 -0.38553 -1.26151 0
M  V30 3 C 2.90423 0.118113 -0.404885 0
M  V30 4 N 1.56945 0.544154 -0.715086 0
M  V30 5 C 0.466064 0.0555433 0.09739 0
M  V30 6 C -0.849084 0.689131 -0.289586 0
M  V30 7 N -1.93282 0.212931 0.522414 0
M  V30 8 C -2.31177 -1.14188 0.329639 0
M  V30 9 C -3.581 -1.07101 -0.427194 0
M  V30 10 C -4.04778 0.164352 -0.361343 0
M  V30 11 C -3.12952 1.01957 0.44028 0
M  V30 12 N 3.27111 0.304331 0.972361 0
M  V30 13 H 5.55673 -0.0413277 -0.251128 0
M  V30 14 H 5.42575 -1.68424 -0.902646 0
M  V30 15 H 1.42799 1.19213 -1.52074 0
M  V30 16 H 0.692489 0.303036 1.13712 0
M  V30 17 H 0.423258 -1.04346 -0.120043 0
M  V30 18 H -0.999404 0.532168 -1.38089 0
M  V30 19 H -0.764084 1.78874 -0.0834504 0
M  V30 20 H -2.50931 -1.57826 1.33982 0
M  V30 21 H -1.56481 -1.76215 -0.200138 0
M  V30 22 H -4.07835 -1.90874 -0.967804 0
M  V30 23 H -4.9886 0.492772 -0.845011 0
M  V30 24 H -3.53001 1.19023 1.45909 0
M  V30 25 H -2.96692 1.95211 -0.128653 0
M  V30 26 H 3.51653 -0.467658 1.61208 0
M  V30 27 H 3.28093 1.27674 1.32887 0
M  V30 END ATOM
M  V30 BEGIN BOND
M  V30 1 1 1 2
M  V30 2 2 2 3 CFG=2
M  V30 3 1 3 4
M  V30 4 1 4 5
M  V30 5 1 5 6
M  V30 6 1 6 7
M  V30 7 1 7 8
M  V30 8 1 8 9
M  V30 9 2 9 10
M  V30 10 1 10 11
M  V30 11 1 3 12
M  V30 12 1 11 7
M  V30 13 1 1 13
M  V30 14 1 1 14
M  V30 15 1 4 15
M  V30 16 1 5 16
M  V30 17 1 5 17
M  V30 18 1 6 18
M  V30 19 1 6 19
M  V30 20 1 8 20
M  V30 21 1 8 21
M  V30 22 1 9 22
M  V30 23 1 10 23
M  V30 24 1 11 24
M  V30 25 1 11 25
M  V30 26 1 12 26
M  V30 27 1 12 27
M  V30 END BOND
M  V30 END CTAB
M  END
