
     RDKit          3D

  0  0  0  0  0  0  0  0  0  0999 V3000
M  V30 BEGIN CTAB
M  V30 COUNTS 22 22 0 0 0
M  V30 BEGIN ATOM
M  V30 1 C -2.42578 -0.982239 0.759338 0
M  V30 2 C -1.88627 -0.245795 -0.436662 0
M  V30 3 N -0.617528 0.363905 -0.15594 0
M  V30 4 C -0.597168 1.61965 0.326402 0
M  V30 5 O -1.67628 2.23667 0.523147 0
M  V30 6 N 0.593 2.18761 0.58821 0
M  V30 7 C 1.74617 1.52305 0.37597 0
M  V30 8 O 2.85877 2.04115 0.615782 0
M  V30 9 C 1.75442 0.230514 -0.11942 0
M  V30 10 N 2.96711 -0.480181 -0.347146 0
M  V30 11 C 0.523614 -0.334614 -0.381646 0
M  V30 12 N 0.462878 -1.66584 -0.894427 0
M  V30 13 H -2.60941 -0.242266 1.56342 0
M  V30 14 H -3.37336 -1.46891 0.529742 0
M  V30 15 H -1.6751 -1.74394 1.07703 0
M  V30 16 H -2.65449 0.530361 -0.724221 0
M  V30 17 H -1.79948 -0.909786 -1.31449 0
M  V30 18 H 0.605652 3.16675 0.964176 0
M  V30 19 H 3.58876 -0.794204 0.448393 0
M  V30 20 H 3.29975 -0.724644 -1.30788 0
M  V30 21 H 0.838333 -2.41287 -0.266553 0
M  V30 22 H 0.0763969 -1.89438 -1.82323 0
M  V30 END ATOM
M  V30 BEGIN BOND
M  V30 1 1 1 2
M  V30 2 1 2 3
M  V30 3 1 3 4
M  V30 4 2 4 5
M  V30 5 1 4 6
M  V30 6 1 6 7
M  V30 7 2 7 8
M  V30 8 1 7 9
M  V30 9 1 9 10
M  V30 10 2 9 11
M  V30 11 1 11 12
M  V30 12 1 11 3
M  V30 13 1 1 13
M  V30 14 1 1 14
M  V30 15 1 1 15
M  V30 16 1 2 16
M  V30 17 1 2 17
M  V30 18 1 6 18
M  V30 19 1 10 19
M  V30 20 1 10 20
M  V30 21 1 12 21
M  V30 22 1 12 22
M  V30 END BOND
M  V30 END CTAB
M  END
