
     RDKit          3D

  0  0  0  0  0  0  0  0  0  0999 V3000
M  V30 BEGIN CTAB
M  V30 COUNTS 36 38 0 0 0
M  V30 BEGIN ATOM
M  V30 1 Cl 5.02847 2.84537 -3.65483 0
M  V30 2 C 3.91361 1.62268 -3.04129 0
M  V30 3 C 2.92872 1.935 -2.13496 0
M  V30 4 C 2.08117 0.956593 -1.68139 0
M  V30 5 C 2.19389 -0.339176 -2.11481 0
M  V30 6 C 3.18231 -0.637884 -3.02053 0
M  V30 7 C 4.05675 0.345832 -3.49525 0
M  V30 8 Cl 3.42614 -2.26424 -3.65021 0
M  V30 9 C 1.30222 -1.42169 -1.65278 0
M  V30 10 C 0.298572 -1.00884 -0.672785 0
M  V30 11 C 0.691802 -0.797298 0.630129 0
M  V30 12 N 2.03529 -0.963029 1.0658 0
M  V30 13 N -0.214755 -0.415612 1.55578 0
M  V30 14 C -1.51166 -0.227798 1.26096 0
M  V30 15 N -1.88656 -0.435957 -0.010504 0
M  V30 16 C -1.02837 -0.820814 -0.993179 0
M  V30 17 N -1.4853 -1.02696 -2.32775 0
M  V30 18 C -2.47608 0.184186 2.27342 0
M  V30 19 C -3.80174 0.358221 1.89107 0
M  V30 20 C -4.78568 0.744723 2.77123 0
M  V30 21 C -4.42126 0.962168 4.07631 0
M  V30 22 C -3.10185 0.783991 4.43444 0
M  V30 23 N -2.14852 0.402014 3.54771 0
M  V30 24 H 2.87481 2.96754 -1.81959 0
M  V30 25 H 1.32331 1.2438 -0.972545 0
M  V30 26 H 4.84039 0.110012 -4.21314 0
M  V30 27 H 0.862474 -1.91665 -2.55132 0
M  V30 28 H 1.96247 -2.18306 -1.1451 0
M  V30 29 H 2.57671 -0.259413 1.60307 0
M  V30 30 H 2.51307 -1.85546 0.829442 0
M  V30 31 H -2.42867 -1.4079 -2.47282 0
M  V30 32 H -0.879122 -0.797672 -3.13923 0
M  V30 33 H -4.102 0.188823 0.859933 0
M  V30 34 H -5.82161 0.888058 2.50545 0
M  V30 35 H -5.14616 1.27254 4.84061 0
M  V30 36 H -2.8528 0.967901 5.48617 0
M  V30 END ATOM
M  V30 BEGIN BOND
M  V30 1 1 1 2
M  V30 2 2 2 3
M  V30 3 1 3 4
M  V30 4 2 4 5
M  V30 5 1 5 6
M  V30 6 2 6 7
M  V30 7 1 6 8
M  V30 8 1 5 9
M  V30 9 1 9 10
M  V30 10 2 10 11
M  V30 11 1 11 12
M  V30 12 1 11 13
M  V30 13 2 13 14
M  V30 14 1 14 15
M  V30 15 2 15 16
M  V30 16 1 16 17
M  V30 17 1 14 18
M  V30 18 2 18 19
M  V30 19 1 19 20
M  V30 20 2 20 21
M  V30 21 1 21 22
M  V30 22 2 22 23
M  V30 23 1 7 2
M  V30 24 1 16 10
M  V30 25 1 23 18
M  V30 26 1 3 24
M  V30 27 1 4 25
M  V30 28 1 7 26
M  V30 29 1 9 27
M  V30 30 1 9 28
M  V30 31 1 12 29
M  V30 32 1 12 30
M  V30 33 1 17 31
M  V30 34 1 17 32
M  V30 35 1 19 33
M  V30 36 1 20 34
M  V30 37 1 21 35
M  V30 38 1 22 36
M  V30 END BOND
M  V30 END CTAB
M  END
