
     RDKit          3D

  0  0  0  0  0  0  0  0  0  0999 V3000
M  V30 BEGIN CTAB
M  V30 COUNTS 20 21 0 0 0
M  V30 BEGIN ATOM
M  V30 1 N 4.80963 -0.285568 -0.53855 0
M  V30 2 C 3.38031 -0.193115 -0.367247 0
M  V30 3 N 2.55795 -0.605594 -1.34763 0
M  V30 4 C 1.21317 -0.523146 -1.197 0
M  V30 5 C 0.653504 -0.0171647 -0.0414862 0
M  V30 6 C 1.50571 0.39938 0.949211 0
M  V30 7 N 2.85018 0.302453 0.765022 0
M  V30 8 C -0.8056 0.0640162 0.102798 0
M  V30 9 N -1.46508 0.525724 1.15271 0
M  V30 10 C -2.75675 0.539292 1.14535 0
M  V30 11 C -3.40755 0.0673604 0.032418 0
M  V30 12 S -2.06087 -0.378109 -0.959222 0
M  V30 13 N -4.79887 -0.0247999 -0.222893 0
M  V30 14 H 5.40314 0.570295 -0.477459 0
M  V30 15 H 5.27434 -1.20832 -0.726241 0
M  V30 16 H 0.519213 -0.845981 -1.96583 0
M  V30 17 H 1.07443 0.795423 1.85386 0
M  V30 18 H -3.34979 0.918683 2.00655 0
M  V30 19 H -5.2583 -0.939105 -0.278869 0
M  V30 20 H -5.33877 0.838275 -0.350779 0
M  V30 END ATOM
M  V30 BEGIN BOND
M  V30 1 1 1 2
M  V30 2 2 2 3
M  V30 3 1 3 4
M  V30 4 2 4 5
M  V30 5 1 5 6
M  V30 6 2 6 7
M  V30 7 1 5 8
M  V30 8 2 8 9
M  V30 9 1 9 10
M  V30 10 2 10 11
M  V30 11 1 11 12
M  V30 12 1 11 13
M  V30 13 1 7 2
M  V30 14 1 12 8
M  V30 15 1 1 14
M  V30 16 1 1 15
M  V30 17 1 4 16
M  V30 18 1 6 17
M  V30 19 1 10 18
M  V30 20 1 13 19
M  V30 21 1 13 20
M  V30 END BOND
M  V30 END CTAB
M  END
