
     RDKit          3D

  0  0  0  0  0  0  0  0  0  0999 V3000
M  V30 BEGIN CTAB
M  V30 COUNTS 65 67 0 0 0
M  V30 BEGIN ATOM
M  V30 1 C -0.645284 5.49802 -1.829 0
M  V30 2 C 0.376793 4.51906 -1.31578 0
M  V30 3 C -0.387436 3.5311 -0.412214 0
M  V30 4 C 0.616768 2.56697 0.0942957 0
M  V30 5 N 0.15645 1.53753 0.973624 0
M  V30 6 C 0.0709276 1.7842 2.42902 0
M  V30 7 C -0.227399 0.27501 0.518045 0
M  V30 8 O -0.609986 -0.57385 1.40157 0
M  V30 9 C -0.247904 -0.228438 -0.869648 0 CFG=2
M  V30 10 C -1.643 -0.0794266 -1.42131 0
M  V30 11 C -2.67929 -0.821981 -0.670165 0
M  V30 12 C -2.89435 -2.13208 -1.03809 0
M  V30 13 C -3.85107 -2.86109 -0.390133 0
M  V30 14 C -4.61853 -2.32375 0.632389 0
M  V30 15 C -4.39437 -1.01216 0.991686 0
M  V30 16 C -3.44185 -0.296124 0.342201 0
M  V30 17 C -5.62852 -3.12703 1.30154 0
M  V30 18 N -6.38891 -2.53991 2.33817 0
M  V30 19 N -5.86202 -4.34762 0.993486 0
M  V30 20 N -6.81549 -5.1556 1.60301 0
M  V30 21 N 0.131288 -1.6367 -0.833474 0
M  V30 22 S 1.51129 -2.01442 -1.74076 0
M  V30 23 O 1.35512 -1.73249 -3.20681 0
M  V30 24 O 1.74618 -3.5019 -1.60953 0
M  V30 25 C 2.96025 -1.20133 -1.20824 0
M  V30 26 C 3.81596 -1.70728 -0.256123 0
M  V30 27 C 4.95806 -1.05185 0.152267 0
M  V30 28 C 5.24461 0.164901 -0.427156 0
M  V30 29 C 6.39057 0.820583 -0.0160422 0
M  V30 30 C 7.19336 0.248753 0.940177 0
M  V30 31 C 6.8991 -0.967271 1.51349 0
M  V30 32 C 5.76535 -1.63587 1.11966 0
M  V30 33 C 4.40152 0.690388 -1.38275 0
M  V30 34 C 3.26949 0.0139962 -1.77022 0
M  V30 35 H -1.56891 4.90959 -2.07812 0
M  V30 36 H -0.859124 6.2813 -1.07558 0
M  V30 37 H -0.28453 6.01346 -2.75122 0
M  V30 38 H 0.873156 3.98767 -2.14204 0
M  V30 39 H 1.13048 5.05231 -0.717437 0
M  V30 40 H -0.831115 4.15939 0.404299 0
M  V30 41 H -1.17894 3.13167 -1.05993 0
M  V30 42 H 1.3619 3.16986 0.696612 0
M  V30 43 H 1.16368 2.12896 -0.783188 0
M  V30 44 H 0.958226 1.29712 2.8726 0
M  V30 45 H 0.0344044 2.85988 2.64589 0
M  V30 46 H -0.825704 1.24808 2.77783 0
M  V30 47 H 0.420993 0.371068 -1.48349 0
M  V30 48 H -1.91455 0.98661 -1.39739 0
M  V30 49 H -1.69469 -0.363636 -2.49978 0
M  V30 50 H -2.29653 -2.58368 -1.84922 0
M  V30 51 H -4.01622 -3.90644 -0.690123 0
M  V30 52 H -5.0098 -0.595011 1.80533 0
M  V30 53 H -3.26948 0.734125 0.628245 0
M  V30 54 H -5.93066 -2.33869 3.24352 0
M  V30 55 H -7.38631 -2.32072 2.17942 0
M  V30 56 H -7.80581 -4.88737 1.72455 0
M  V30 57 H -6.51652 -6.09247 1.96168 0
M  V30 58 H 0.272948 -1.91368 0.155317 0
M  V30 59 H 3.59109 -2.67719 0.208416 0
M  V30 60 H 6.60505 1.77268 -0.476527 0
M  V30 61 H 8.09767 0.746958 1.27715 0
M  V30 62 H 7.55359 -1.39466 2.26797 0
M  V30 63 H 5.5069 -2.60019 1.55586 0
M  V30 64 H 4.66919 1.65182 -1.81056 0
M  V30 65 H 2.62198 0.468812 -2.53731 0
M  V30 END ATOM
M  V30 BEGIN BOND
M  V30 1 1 1 2
M  V30 2 1 2 3
M  V30 3 1 3 4
M  V30 4 1 4 5
M  V30 5 1 5 6
M  V30 6 1 5 7
M  V30 7 2 7 8
M  V30 8 1 7 9
M  V30 9 1 9 10
M  V30 10 1 10 11
M  V30 11 2 11 12
M  V30 12 1 12 13
M  V30 13 2 13 14
M  V30 14 1 14 15
M  V30 15 2 15 16
M  V30 16 1 14 17
M  V30 17 1 17 18
M  V30 18 2 17 19
M  V30 19 1 19 20
M  V30 20 1 9 21
M  V30 21 1 21 22
M  V30 22 2 22 23
M  V30 23 2 22 24
M  V30 24 1 22 25
M  V30 25 2 25 26
M  V30 26 1 26 27
M  V30 27 2 27 28
M  V30 28 1 28 29
M  V30 29 2 29 30
M  V30 30 1 30 31
M  V30 31 2 31 32
M  V30 32 1 28 33
M  V30 33 2 33 34
M  V30 34 1 16 11
M  V30 35 1 34 25
M  V30 36 1 32 27
M  V30 37 1 1 35
M  V30 38 1 1 36
M  V30 39 1 1 37
M  V30 40 1 2 38
M  V30 41 1 2 39
M  V30 42 1 3 40
M  V30 43 1 3 41
M  V30 44 1 4 42
M  V30 45 1 4 43
M  V30 46 1 6 44
M  V30 47 1 6 45
M  V30 48 1 6 46
M  V30 49 1 9 47 CFG=3
M  V30 50 1 10 48
M  V30 51 1 10 49
M  V30 52 1 12 50
M  V30 53 1 13 51
M  V30 54 1 15 52
M  V30 55 1 16 53
M  V30 56 1 18 54
M  V30 57 1 18 55
M  V30 58 1 20 56
M  V30 59 1 20 57
M  V30 60 1 21 58
M  V30 61 1 26 59
M  V30 62 1 29 60
M  V30 63 1 30 61
M  V30 64 1 31 62
M  V30 65 1 32 63
M  V30 66 1 33 64
M  V30 67 1 34 65
M  V30 END BOND
M  V30 END CTAB
M  END
