
     RDKit          3D

  0  0  0  0  0  0  0  0  0  0999 V3000
M  V30 BEGIN CTAB
M  V30 COUNTS 39 40 0 0 0
M  V30 BEGIN ATOM
M  V30 1 N -4.3395 2.09914 -0.032 0
M  V30 2 C -3.13528 1.36629 0.257315 0
M  V30 3 C -2.55299 0.6948 -0.956234 0
M  V30 4 C -3.42659 -0.289417 -1.62334 0
M  V30 5 C -3.03378 -1.71872 -1.50996 0
M  V30 6 C -2.39731 -1.93463 -0.1815 0
M  V30 7 C -1.07231 -1.17811 -0.16839 0
M  V30 8 N -1.23028 0.188624 -0.569962 0
M  V30 9 C -0.161526 1.07296 -0.608044 0
M  V30 10 O -0.485236 2.28095 -0.996014 0
M  V30 11 C 1.23666 0.834966 -0.280359 0
M  V30 12 O 2.15413 1.80746 -0.371306 0
M  V30 13 C 3.32976 1.40482 -0.0409037 0
M  V30 14 C 3.27368 0.08489 0.306354 0
M  V30 15 C 1.92541 -0.262794 0.146856 0
M  V30 16 S 4.56991 -0.944582 0.829429 0
M  V30 17 O 5.64559 -1.0378 -0.245112 0
M  V30 18 O 5.26371 -0.402105 2.05109 0
M  V30 19 N 4.05785 -2.5381 1.16472 0
M  V30 20 C 4.60201 2.22307 -0.0232817 0
M  V30 21 H -5.16494 1.44273 0.112191 0
M  V30 22 H -4.44194 2.83048 0.711263 0
M  V30 23 H -3.34529 0.672429 1.09176 0
M  V30 24 H -2.36866 2.12829 0.58548 0
M  V30 25 H -2.36348 1.5261 -1.70234 0
M  V30 26 H -4.45631 -0.192313 -1.16802 0
M  V30 27 H -3.60667 -0.0560769 -2.71323 0
M  V30 28 H -3.96133 -2.35514 -1.55603 0
M  V30 29 H -2.40124 -2.07905 -2.34715 0
M  V30 30 H -2.16994 -3.0136 -0.0778223 0
M  V30 31 H -3.06789 -1.65314 0.6274 0
M  V30 32 H -0.392811 -1.75039 -0.827914 0
M  V30 33 H -0.713101 -1.2732 0.87596 0
M  V30 34 H 1.5256 -1.2391 0.336316 0
M  V30 35 H 4.84123 -3.2175 1.11115 0
M  V30 36 H 3.21733 -2.82417 0.616514 0
M  V30 37 H 5.02212 2.30742 -1.03418 0
M  V30 38 H 5.30158 1.77264 0.716667 0
M  V30 39 H 4.32179 3.22188 0.386255 0
M  V30 END ATOM
M  V30 BEGIN BOND
M  V30 1 1 1 2
M  V30 2 1 2 3
M  V30 3 1 3 4
M  V30 4 1 4 5
M  V30 5 1 5 6
M  V30 6 1 6 7
M  V30 7 1 7 8
M  V30 8 1 8 9
M  V30 9 2 9 10
M  V30 10 1 9 11
M  V30 11 1 11 12
M  V30 12 1 12 13
M  V30 13 2 13 14
M  V30 14 1 14 15
M  V30 15 1 14 16
M  V30 16 2 16 17
M  V30 17 2 16 18
M  V30 18 1 16 19
M  V30 19 1 13 20
M  V30 20 1 8 3
M  V30 21 2 15 11
M  V30 22 1 1 21
M  V30 23 1 1 22
M  V30 24 1 2 23
M  V30 25 1 2 24
M  V30 26 1 3 25
M  V30 27 1 4 26
M  V30 28 1 4 27
M  V30 29 1 5 28
M  V30 30 1 5 29
M  V30 31 1 6 30
M  V30 32 1 6 31
M  V30 33 1 7 32
M  V30 34 1 7 33
M  V30 35 1 15 34
M  V30 36 1 19 35
M  V30 37 1 19 36
M  V30 38 1 20 37
M  V30 39 1 20 38
M  V30 40 1 20 39
M  V30 END BOND
M  V30 END CTAB
M  END
