
     RDKit          3D

  0  0  0  0  0  0  0  0  0  0999 V3000
M  V30 BEGIN CTAB
M  V30 COUNTS 46 49 0 0 0
M  V30 BEGIN ATOM
M  V30 1 C 5.78074 0.478975 -0.338256 0
M  V30 2 C 5.43553 -0.976772 -0.155132 0
M  V30 3 O 4.24805 -1.17098 0.548105 0
M  V30 4 C 2.9897 -0.744537 0.205778 0
M  V30 5 C 1.96539 -1.06507 1.08143 0
M  V30 6 C 0.68503 -0.660812 0.783916 0
M  V30 7 C 0.342228 0.0529267 -0.342915 0
M  V30 8 C 1.37913 0.360442 -1.20012 0
M  V30 9 C 2.68026 -0.0348424 -0.924709 0
M  V30 10 C -1.0672 0.468112 -0.62151 0
M  V30 11 C -1.38787 1.75758 0.0371919 0
M  V30 12 C -0.588576 2.87753 -0.231356 0
M  V30 13 C -0.816109 4.10141 0.338963 0
M  V30 14 C -1.86241 4.28233 1.21775 0
M  V30 15 C -2.65997 3.19926 1.49661 0
M  V30 16 C -2.4339 1.94064 0.916212 0
M  V30 17 O -3.26791 0.883187 1.23093 0
M  V30 18 C -3.04284 -0.364382 0.653673 0
M  V30 19 C -2.02014 -0.613774 -0.228511 0
M  V30 20 C -1.83788 -1.87059 -0.776653 0
M  V30 21 N -0.751667 -2.10748 -1.70847 0
M  V30 22 C -2.68728 -2.87572 -0.434373 0
M  V30 23 C -3.7226 -2.63173 0.456318 0
M  V30 24 N -3.87636 -1.40364 0.972587 0
M  V30 25 N -4.62614 -3.65314 0.835962 0
M  V30 26 C -2.5097 -4.17516 -0.992464 0
M  V30 27 N -2.36762 -5.23169 -1.43404 0
M  V30 28 O -2.10402 5.52991 1.80681 0
M  V30 29 H 6.69991 0.710389 0.222498 0
M  V30 30 H 4.95255 1.1469 0.0175738 0
M  V30 31 H 5.99953 0.658475 -1.41286 0
M  V30 32 H 6.25017 -1.45066 0.454028 0
M  V30 33 H 5.43978 -1.50798 -1.13741 0
M  V30 34 H 2.1949 -1.63396 1.99329 0
M  V30 35 H -0.100266 -0.919029 1.47682 0
M  V30 36 H 1.19938 0.917831 -2.10824 0
M  V30 37 H 3.46491 0.224094 -1.62241 0
M  V30 38 H -1.13045 0.60763 -1.72549 0
M  V30 39 H 0.231109 2.75815 -0.913063 0
M  V30 40 H -0.175042 4.95858 0.11045 0
M  V30 41 H -3.47878 3.34903 2.18692 0
M  V30 42 H -0.76146 -1.53187 -2.5794 0
M  V30 43 H -0.0352379 -2.81861 -1.47225 0
M  V30 44 H -4.2882 -4.6097 0.998454 0
M  V30 45 H -5.62647 -3.42358 0.946827 0
M  V30 46 H -2.7122 6.21232 1.37054 0
M  V30 END ATOM
M  V30 BEGIN BOND
M  V30 1 1 1 2
M  V30 2 1 2 3
M  V30 3 1 3 4
M  V30 4 2 4 5
M  V30 5 1 5 6
M  V30 6 2 6 7
M  V30 7 1 7 8
M  V30 8 2 8 9
M  V30 9 1 7 10
M  V30 10 1 10 11
M  V30 11 2 11 12
M  V30 12 1 12 13
M  V30 13 2 13 14
M  V30 14 1 14 15
M  V30 15 2 15 16
M  V30 16 1 16 17
M  V30 17 1 17 18
M  V30 18 2 18 19
M  V30 19 1 19 20
M  V30 20 1 20 21
M  V30 21 2 20 22
M  V30 22 1 22 23
M  V30 23 2 23 24
M  V30 24 1 23 25
M  V30 25 1 22 26
M  V30 26 3 26 27
M  V30 27 1 14 28
M  V30 28 1 9 4
M  V30 29 1 19 10
M  V30 30 1 16 11
M  V30 31 1 24 18
M  V30 32 1 1 29
M  V30 33 1 1 30
M  V30 34 1 1 31
M  V30 35 1 2 32
M  V30 36 1 2 33
M  V30 37 1 5 34
M  V30 38 1 6 35
M  V30 39 1 8 36
M  V30 40 1 9 37
M  V30 41 1 10 38
M  V30 42 1 12 39
M  V30 43 1 13 40
M  V30 44 1 15 41
M  V30 45 1 21 42
M  V30 46 1 21 43
M  V30 47 1 25 44
M  V30 48 1 25 45
M  V30 49 1 28 46
M  V30 END BOND
M  V30 END CTAB
M  END
