
     RDKit          3D

  0  0  0  0  0  0  0  0  0  0999 V3000
M  V30 BEGIN CTAB
M  V30 COUNTS 50 49 0 0 0
M  V30 BEGIN ATOM
M  V30 1 C -3.73241 2.36971 1.6932 0
M  V30 2 O -3.3801 1.77321 0.48294 0
M  V30 3 C -2.98884 0.450059 0.647259 0 CFG=2
M  V30 4 C -1.46891 0.345207 0.448496 0 CFG=1
M  V30 5 O -0.828063 1.16915 1.39114 0
M  V30 6 C -0.941419 -1.0383 0.708599 0
M  V30 7 O 0.466081 -1.10679 0.599789 0
M  V30 8 C 1.20282 -0.846807 -0.53131 0
M  V30 9 O 0.627894 -0.521091 -1.5826 0
M  V30 10 C 2.69633 -0.949999 -0.518483 0 CFG=1
M  V30 11 N 3.11945 -0.609633 -1.87056 0
M  V30 12 C 3.29765 -0.0282192 0.476784 0
M  V30 13 C 4.77632 -0.126696 0.553598 0
M  V30 14 C 5.57602 0.163991 -0.661254 0
M  V30 15 C 7.06921 0.041736 -0.252026 0
M  V30 16 N 7.88666 0.318212 -1.41075 0
M  V30 17 C -3.72499 -0.544405 -0.179814 0 CFG=2
M  V30 18 O -3.59265 -0.383463 -1.55801 0
M  V30 19 C -5.18481 -0.733442 0.179747 0 CFG=2
M  V30 20 O -5.65254 -1.94852 -0.408845 0
M  V30 21 C -6.07065 0.318884 -0.500133 0
M  V30 22 O -7.41515 0.0676487 -0.221739 0
M  V30 23 H -2.8955 2.37345 2.416 0
M  V30 24 H -4.67218 1.95083 2.11478 0
M  V30 25 H -3.95272 3.43636 1.46288 0
M  V30 26 H -3.12354 0.208681 1.71783 0
M  V30 27 H -1.21772 0.639344 -0.575654 0
M  V30 28 H -0.933506 0.699122 2.26741 0
M  V30 29 H -1.36775 -1.81565 0.0282606 0
M  V30 30 H -1.18334 -1.35533 1.76 0
M  V30 31 H 2.96936 -1.97809 -0.302432 0
M  V30 32 H 3.07211 -1.40339 -2.51884 0
M  V30 33 H 2.64382 0.255162 -2.21333 0
M  V30 34 H 2.99867 1.04243 0.302912 0
M  V30 35 H 2.89475 -0.320184 1.4813 0
M  V30 36 H 5.1075 -1.13336 0.938218 0
M  V30 37 H 5.12214 0.610434 1.35505 0
M  V30 38 H 5.47261 1.17726 -1.08066 0
M  V30 39 H 5.49628 -0.636301 -1.45129 0
M  V30 40 H 7.31351 0.798874 0.519839 0
M  V30 41 H 7.25859 -0.990883 0.0736025 0
M  V30 42 H 7.36116 0.328319 -2.2959 0
M  V30 43 H 8.47916 1.17476 -1.28108 0
M  V30 44 H -3.29264 -1.59406 -0.00848889 0
M  V30 45 H -3.62287 -1.23402 -2.05491 0
M  V30 46 H -5.3735 -0.825925 1.24949 0
M  V30 47 H -6.6249 -1.95563 -0.474459 0
M  V30 48 H -5.86433 1.33722 -0.221673 0
M  V30 49 H -5.97477 0.242044 -1.60481 0
M  V30 50 H -7.8283 0.788098 0.324977 0
M  V30 END ATOM
M  V30 BEGIN BOND
M  V30 1 1 1 2
M  V30 2 1 2 3
M  V30 3 1 3 4
M  V30 4 1 4 5
M  V30 5 1 4 6
M  V30 6 1 6 7
M  V30 7 1 7 8
M  V30 8 2 8 9
M  V30 9 1 8 10
M  V30 10 1 10 11
M  V30 11 1 10 12
M  V30 12 1 12 13
M  V30 13 1 13 14
M  V30 14 1 14 15
M  V30 15 1 15 16
M  V30 16 1 3 17
M  V30 17 1 17 18
M  V30 18 1 17 19
M  V30 19 1 19 20
M  V30 20 1 19 21
M  V30 21 1 21 22
M  V30 22 1 1 23
M  V30 23 1 1 24
M  V30 24 1 1 25
M  V30 25 1 3 26 CFG=1
M  V30 26 1 4 27 CFG=3
M  V30 27 1 5 28
M  V30 28 1 6 29
M  V30 29 1 6 30
M  V30 30 1 10 31 CFG=1
M  V30 31 1 11 32
M  V30 32 1 11 33
M  V30 33 1 12 34
M  V30 34 1 12 35
M  V30 35 1 13 36
M  V30 36 1 13 37
M  V30 37 1 14 38
M  V30 38 1 14 39
M  V30 39 1 15 40
M  V30 40 1 15 41
M  V30 41 1 16 42
M  V30 42 1 16 43
M  V30 43 1 17 44 CFG=1
M  V30 44 1 18 45
M  V30 45 1 19 46 CFG=1
M  V30 46 1 20 47
M  V30 47 1 21 48
M  V30 48 1 21 49
M  V30 49 1 22 50
M  V30 END BOND
M  V30 END CTAB
M  END
