
     RDKit          3D

  0  0  0  0  0  0  0  0  0  0999 V3000
M  V30 BEGIN CTAB
M  V30 COUNTS 24 25 0 0 0
M  V30 BEGIN ATOM
M  V30 1 N 4.66384 0.161921 -0.0901164 0
M  V30 2 C 3.2531 0.151048 -0.0600161 0
M  V30 3 N 2.54953 1.29488 -0.13503 0
M  V30 4 C 1.22254 1.2835 -0.107621 0
M  V30 5 C 0.507626 0.102533 -0.00159018 0
M  V30 6 C 1.20703 -1.06811 0.0744771 0
M  V30 7 N 0.542057 -2.31395 0.210057 0
M  V30 8 N 2.55394 -0.989239 0.0414255 0
M  V30 9 C -0.944985 0.216714 -0.00919201 0
M  V30 10 C -1.64048 1.0402 0.860665 0
M  V30 11 Br -0.693379 2.03592 2.1714 0
M  V30 12 C -3.01789 1.16505 0.827507 0
M  V30 13 C -3.77505 0.457162 -0.0944127 0
M  V30 14 C -3.09065 -0.361908 -0.96079 0
M  V30 15 C -1.71242 -0.478508 -0.91932 0
M  V30 16 H 5.15422 0.104544 -0.988389 0
M  V30 17 H 5.19705 0.227398 0.792568 0
M  V30 18 H 0.722968 2.26602 -0.178911 0
M  V30 19 H 0.0688893 -2.7505 -0.598156 0
M  V30 20 H 0.522371 -2.82292 1.12816 0
M  V30 21 H -3.56576 1.80248 1.50361 0
M  V30 22 H -4.85149 0.535432 -0.138902 0
M  V30 23 H -3.64737 -0.934521 -1.6956 0
M  V30 24 H -1.22569 -1.12514 -1.63183 0
M  V30 END ATOM
M  V30 BEGIN BOND
M  V30 1 1 1 2
M  V30 2 2 2 3
M  V30 3 1 3 4
M  V30 4 2 4 5
M  V30 5 1 5 6
M  V30 6 1 6 7
M  V30 7 2 6 8
M  V30 8 1 5 9
M  V30 9 2 9 10
M  V30 10 1 10 11
M  V30 11 1 10 12
M  V30 12 2 12 13
M  V30 13 1 13 14
M  V30 14 2 14 15
M  V30 15 1 8 2
M  V30 16 1 15 9
M  V30 17 1 1 16
M  V30 18 1 1 17
M  V30 19 1 4 18
M  V30 20 1 7 19
M  V30 21 1 7 20
M  V30 22 1 12 21
M  V30 23 1 13 22
M  V30 24 1 14 23
M  V30 25 1 15 24
M  V30 END BOND
M  V30 END CTAB
M  END
