
     RDKit          3D

  0  0  0  0  0  0  0  0  0  0999 V3000
M  V30 BEGIN CTAB
M  V30 COUNTS 36 37 0 0 0
M  V30 BEGIN ATOM
M  V30 1 N -5.28963 -0.209505 0.241886 0
M  V30 2 C -4.03927 0.485709 0.0713696 0
M  V30 3 C -2.84321 -0.473804 0.0822181 0
M  V30 4 N -1.63873 0.257873 -0.0823414 0
M  V30 5 C -1.42154 0.859703 -1.3327 0
M  V30 6 C -0.172312 0.472829 -2.05747 0
M  V30 7 C 0.519366 -0.717803 -1.4701 0
M  V30 8 C 0.6419 -0.663948 0.0374336 0 CFG=2
M  V30 9 C -0.543886 -0.0802936 0.718055 0
M  V30 10 C 1.94006 -0.0465278 0.434308 0
M  V30 11 C 2.05995 1.32026 0.354364 0
M  V30 12 C 3.2329 1.97159 0.694372 0
M  V30 13 N 4.28023 1.24021 1.11409 0
M  V30 14 C 4.18465 -0.10767 1.20163 0
M  V30 15 C 3.02616 -0.789887 0.86894 0
M  V30 16 N 5.29683 -0.86921 1.6477 0
M  V30 17 H -5.6333 -0.171924 1.22678 0
M  V30 18 H -6.02573 0.27578 -0.319605 0
M  V30 19 H -3.89355 1.20857 0.897475 0
M  V30 20 H -4.08769 1.02101 -0.916531 0
M  V30 21 H -2.84901 -0.949775 1.08596 0
M  V30 22 H -2.99418 -1.16275 -0.75103 0
M  V30 23 H -2.34251 0.726586 -1.96828 0
M  V30 24 H -1.36194 1.97733 -1.17328 0
M  V30 25 H -0.471247 0.182328 -3.10877 0
M  V30 26 H 0.55904 1.29623 -2.20597 0
M  V30 27 H -0.108856 -1.61334 -1.71293 0
M  V30 28 H 1.53539 -0.808913 -1.88648 0
M  V30 29 H 0.726969 -1.74796 0.346953 0
M  V30 30 H -0.188053 0.867213 1.22993 0
M  V30 31 H -0.901372 -0.71563 1.57718 0
M  V30 32 H 1.21468 1.9045 0.0244792 0
M  V30 33 H 3.28916 3.05299 0.618232 0
M  V30 34 H 2.92566 -1.86125 0.932208 0
M  V30 35 H 5.3808 -1.10077 2.64146 0
M  V30 36 H 5.99226 -1.16693 0.938467 0
M  V30 END ATOM
M  V30 BEGIN BOND
M  V30 1 1 1 2
M  V30 2 1 2 3
M  V30 3 1 3 4
M  V30 4 1 4 5
M  V30 5 1 5 6
M  V30 6 1 6 7
M  V30 7 1 7 8
M  V30 8 1 8 9
M  V30 9 1 8 10
M  V30 10 2 10 11
M  V30 11 1 11 12
M  V30 12 2 12 13
M  V30 13 1 13 14
M  V30 14 2 14 15
M  V30 15 1 14 16
M  V30 16 1 9 4
M  V30 17 1 15 10
M  V30 18 1 1 17
M  V30 19 1 1 18
M  V30 20 1 2 19
M  V30 21 1 2 20
M  V30 22 1 3 21
M  V30 23 1 3 22
M  V30 24 1 5 23
M  V30 25 1 5 24
M  V30 26 1 6 25
M  V30 27 1 6 26
M  V30 28 1 7 27
M  V30 29 1 7 28
M  V30 30 1 8 29 CFG=1
M  V30 31 1 9 30
M  V30 32 1 9 31
M  V30 33 1 11 32
M  V30 34 1 12 33
M  V30 35 1 15 34
M  V30 36 1 16 35
M  V30 37 1 16 36
M  V30 END BOND
M  V30 END CTAB
M  END
