
     RDKit          3D

  0  0  0  0  0  0  0  0  0  0999 V3000
M  V30 BEGIN CTAB
M  V30 COUNTS 27 27 0 0 0
M  V30 BEGIN ATOM
M  V30 1 C 3.73304 0.0676623 1.47202 0
M  V30 2 S 3.4353 -0.345732 -0.224925 0
M  V30 3 O 4.4667 -1.33264 -0.685461 0
M  V30 4 O 3.62485 0.919279 -1.03012 0
M  V30 5 N 1.89146 -1.03247 -0.480766 0
M  V30 6 C 0.831813 -0.145492 -0.130823 0
M  V30 7 C -0.49989 -0.844912 -0.393207 0
M  V30 8 C -0.532209 -2.13748 -0.856542 0
M  V30 9 S -2.19208 -2.47779 -0.976847 0
M  V30 10 C -2.81596 -0.993706 -0.444378 0
M  V30 11 N -4.19965 -0.574838 -0.29246 0
M  V30 12 C -1.70036 -0.245104 -0.177342 0
M  V30 13 S -1.86815 1.43752 0.409992 0
M  V30 14 N -1.91438 2.54885 -0.877867 0
M  V30 15 O -0.775029 1.80768 1.35298 0
M  V30 16 O -3.15014 1.53246 1.22834 0
M  V30 17 H 2.75003 0.330888 1.92743 0
M  V30 18 H 4.46418 0.90678 1.52429 0
M  V30 19 H 4.22252 -0.791142 1.98809 0
M  V30 20 H 1.81473 -1.88693 0.0862469 0
M  V30 21 H 0.837456 0.0969471 0.969653 0
M  V30 22 H 0.909821 0.790717 -0.708073 0
M  V30 23 H 0.329486 -2.79538 -1.09311 0
M  V30 24 H -4.52607 0.292523 -0.766361 0
M  V30 25 H -4.84657 -1.12799 0.275281 0
M  V30 26 H -1.53374 3.46891 -0.635309 0
M  V30 27 H -2.75714 2.5314 -1.46074 0
M  V30 END ATOM
M  V30 BEGIN BOND
M  V30 1 1 1 2
M  V30 2 2 2 3
M  V30 3 2 2 4
M  V30 4 1 2 5
M  V30 5 1 5 6
M  V30 6 1 6 7
M  V30 7 2 7 8
M  V30 8 1 8 9
M  V30 9 1 9 10
M  V30 10 1 10 11
M  V30 11 2 10 12
M  V30 12 1 12 13
M  V30 13 1 13 14
M  V30 14 2 13 15
M  V30 15 2 13 16
M  V30 16 1 12 7
M  V30 17 1 1 17
M  V30 18 1 1 18
M  V30 19 1 1 19
M  V30 20 1 5 20
M  V30 21 1 6 21
M  V30 22 1 6 22
M  V30 23 1 8 23
M  V30 24 1 11 24
M  V30 25 1 11 25
M  V30 26 1 14 26
M  V30 27 1 14 27
M  V30 END BOND
M  V30 END CTAB
M  END
