
     RDKit          3D

  0  0  0  0  0  0  0  0  0  0999 V3000
M  V30 BEGIN CTAB
M  V30 COUNTS 30 30 0 0 0
M  V30 BEGIN ATOM
M  V30 1 N 2.02815 1.12945 -1.43433 0
M  V30 2 C 2.18319 0.248815 -0.345503 0
M  V30 3 C 3.38739 0.046288 0.229343 0
M  V30 4 C 3.55683 -0.769645 1.32692 0
M  V30 5 N 2.44922 -1.37435 1.81164 0
M  V30 6 C 1.22454 -1.1736 1.2383 0
M  V30 7 C 1.02838 -0.370235 0.152755 0
M  V30 8 C -0.234617 -0.235743 -0.598523 0
M  V30 9 C -1.49475 -0.0467018 0.118434 0
M  V30 10 C -1.46522 1.25385 0.960458 0
M  V30 11 C -1.99411 -1.12012 1.01622 0
M  V30 12 C -2.6698 0.228745 -0.856188 0
M  V30 13 N -0.132506 0.326931 -1.89732 0
M  V30 14 H 1.54029 2.0555 -1.17077 0
M  V30 15 H 2.29457 1.02379 -2.40712 0
M  V30 16 H 4.26678 0.550359 -0.203766 0
M  V30 17 H 4.5282 -0.875436 1.73972 0
M  V30 18 H 0.419874 -1.72338 1.70417 0
M  V30 19 H -0.346038 -1.41337 -0.915061 0
M  V30 20 H -1.57645 2.13147 0.289001 0
M  V30 21 H -2.36375 1.22079 1.60221 0
M  V30 22 H -0.587879 1.28578 1.59712 0
M  V30 23 H -1.83037 -2.13751 0.665463 0
M  V30 24 H -3.13332 -0.931542 1.1082 0
M  V30 25 H -1.5687 -0.955689 2.04257 0
M  V30 26 H -2.92792 -0.659088 -1.40305 0
M  V30 27 H -3.52394 0.416066 -0.147067 0
M  V30 28 H -2.55616 1.17116 -1.39345 0
M  V30 29 H 0.290106 -0.315434 -2.61198 0
M  V30 30 H -0.791962 1.01284 -2.21839 0
M  V30 END ATOM
M  V30 BEGIN BOND
M  V30 1 1 1 2
M  V30 2 2 2 3
M  V30 3 1 3 4
M  V30 4 2 4 5
M  V30 5 1 5 6
M  V30 6 2 6 7
M  V30 7 1 7 8
M  V30 8 1 8 9
M  V30 9 1 9 10
M  V30 10 1 9 11
M  V30 11 1 9 12
M  V30 12 1 8 13
M  V30 13 1 7 2
M  V30 14 1 1 14
M  V30 15 1 1 15
M  V30 16 1 3 16
M  V30 17 1 4 17
M  V30 18 1 6 18
M  V30 19 1 8 19
M  V30 20 1 10 20
M  V30 21 1 10 21
M  V30 22 1 10 22
M  V30 23 1 11 23
M  V30 24 1 11 24
M  V30 25 1 11 25
M  V30 26 1 12 26
M  V30 27 1 12 27
M  V30 28 1 12 28
M  V30 29 1 13 29
M  V30 30 1 13 30
M  V30 END BOND
M  V30 END CTAB
M  END
