
     RDKit          3D

  0  0  0  0  0  0  0  0  0  0999 V3000
M  V30 BEGIN CTAB
M  V30 COUNTS 65 65 0 0 0
M  V30 BEGIN ATOM
M  V30 1 C -1.29558 4.40375 -1.6758 0
M  V30 2 C -1.24693 2.91338 -1.74747 0
M  V30 3 C -0.238721 2.35085 -0.787761 0
M  V30 4 C -0.158786 0.849749 -0.828596 0
M  V30 5 C 0.856665 0.389522 0.148545 0
M  V30 6 O 0.561379 -0.47422 1.00503 0
M  V30 7 N 2.17194 0.90739 0.140697 0
M  V30 8 C 3.18431 0.454082 1.10222 0
M  V30 9 C 3.56655 1.55293 1.99941 0
M  V30 10 O 3.03616 2.68473 1.83098 0
M  V30 11 O 4.46602 1.39459 3.00092 0
M  V30 12 C 4.32505 -0.104625 0.315208 0
M  V30 13 C 5.46755 -0.651825 1.11551 0
M  V30 14 C 4.99669 -1.78929 1.99292 0
M  V30 15 N 6.07967 -2.32224 2.76027 0
M  V30 16 C 6.66527 -1.55132 3.79245 0
M  V30 17 N 6.22386 -1.75404 4.99107 0
M  V30 18 N 7.68014 -0.609666 3.53789 0
M  V30 19 N -1.43734 0.215312 -0.627456 0
M  V30 20 C -2.02279 -0.746085 -1.47837 0
M  V30 21 O -1.37618 -1.08904 -2.49978 0
M  V30 22 C -3.3447 -1.35572 -1.22161 0
M  V30 23 C -4.46666 -0.333071 -1.35047 0
M  V30 24 C -5.7266 -1.07029 -1.0706 0
M  V30 25 C -6.47014 -1.70395 -2.04035 0
M  V30 26 C -7.64885 -2.38759 -1.76953 0
M  V30 27 C -8.10662 -2.44077 -0.466557 0
M  V30 28 C -7.38402 -1.81613 0.526951 0
M  V30 29 C -6.21981 -1.1447 0.237156 0
M  V30 30 N -3.62896 -2.3534 -2.25295 0
M  V30 31 C -1.0467 2.46716 -3.15426 0
M  V30 32 H -1.86046 4.67673 -0.763267 0
M  V30 33 H -1.77477 4.84423 -2.5847 0
M  V30 34 H -0.286585 4.81462 -1.58984 0
M  V30 35 H -2.24946 2.50614 -1.41993 0
M  V30 36 H 0.745092 2.79153 -1.05185 0
M  V30 37 H -0.460445 2.67327 0.24912 0
M  V30 38 H 0.205534 0.475698 -1.81991 0
M  V30 39 H 2.45796 1.62935 -0.551256 0
M  V30 40 H 2.72732 -0.342487 1.71032 0
M  V30 41 H 4.90336 2.15699 3.51035 0
M  V30 42 H 4.71845 0.663527 -0.390533 0
M  V30 43 H 3.94982 -0.953989 -0.323141 0
M  V30 44 H 6.19681 -1.09202 0.384694 0
M  V30 45 H 6.00513 0.0886816 1.70733 0
M  V30 46 H 4.50866 -2.57746 1.37045 0
M  V30 47 H 4.21285 -1.45365 2.69772 0
M  V30 48 H 6.45452 -3.27525 2.57731 0
M  V30 49 H 6.59962 -1.22969 5.80906 0
M  V30 50 H 7.96598 0.10301 4.26182 0
M  V30 51 H 8.17322 -0.59743 2.61905 0
M  V30 52 H -1.97481 0.489681 0.224131 0
M  V30 53 H -3.46012 -1.84549 -0.25778 0
M  V30 54 H -4.50497 0.0721452 -2.3876 0
M  V30 55 H -4.3925 0.457849 -0.57948 0
M  V30 56 H -6.09384 -1.65237 -3.06664 0
M  V30 57 H -8.20607 -2.87249 -2.5572 0
M  V30 58 H -9.0377 -2.9799 -0.244889 0
M  V30 59 H -7.74612 -1.86205 1.54116 0
M  V30 60 H -5.6213 -0.637257 1.00265 0
M  V30 61 H -3.03471 -2.14617 -3.0846 0
M  V30 62 H -3.57544 -3.31698 -1.90402 0
M  V30 63 H -0.0225636 2.08125 -3.29318 0
M  V30 64 H -1.82426 1.73454 -3.49323 0
M  V30 65 H -1.16007 3.33971 -3.82778 0
M  V30 END ATOM
M  V30 BEGIN BOND
M  V30 1 1 1 2
M  V30 2 1 2 3
M  V30 3 1 3 4
M  V30 4 1 4 5
M  V30 5 2 5 6
M  V30 6 1 5 7
M  V30 7 1 7 8
M  V30 8 1 8 9
M  V30 9 2 9 10
M  V30 10 1 9 11
M  V30 11 1 8 12
M  V30 12 1 12 13
M  V30 13 1 13 14
M  V30 14 1 14 15
M  V30 15 1 15 16
M  V30 16 2 16 17 CFG=2
M  V30 17 1 16 18
M  V30 18 1 4 19
M  V30 19 1 19 20
M  V30 20 2 20 21
M  V30 21 1 20 22
M  V30 22 1 22 23
M  V30 23 1 23 24
M  V30 24 2 24 25
M  V30 25 1 25 26
M  V30 26 2 26 27
M  V30 27 1 27 28
M  V30 28 2 28 29
M  V30 29 1 22 30
M  V30 30 1 2 31
M  V30 31 1 29 24
M  V30 32 1 1 32
M  V30 33 1 1 33
M  V30 34 1 1 34
M  V30 35 1 2 35
M  V30 36 1 3 36
M  V30 37 1 3 37
M  V30 38 1 4 38
M  V30 39 1 7 39
M  V30 40 1 8 40
M  V30 41 1 11 41
M  V30 42 1 12 42
M  V30 43 1 12 43
M  V30 44 1 13 44
M  V30 45 1 13 45
M  V30 46 1 14 46
M  V30 47 1 14 47
M  V30 48 1 15 48
M  V30 49 1 17 49
M  V30 50 1 18 50
M  V30 51 1 18 51
M  V30 52 1 19 52
M  V30 53 1 22 53
M  V30 54 1 23 54
M  V30 55 1 23 55
M  V30 56 1 25 56
M  V30 57 1 26 57
M  V30 58 1 27 58
M  V30 59 1 28 59
M  V30 60 1 29 60
M  V30 61 1 30 61
M  V30 62 1 30 62
M  V30 63 1 31 63
M  V30 64 1 31 64
M  V30 65 1 31 65
M  V30 END BOND
M  V30 END CTAB
M  END
