
     RDKit          3D

  0  0  0  0  0  0  0  0  0  0999 V3000
M  V30 BEGIN CTAB
M  V30 COUNTS 58 61 0 0 0
M  V30 BEGIN ATOM
M  V30 1 N 2.30526 0.81246 -0.240494 0
M  V30 2 N 2.21569 1.03042 1.14517 0
M  V30 3 C 3.2058 0.794655 2.05378 0
M  V30 4 C 4.54872 0.270247 1.73344 0
M  V30 5 C 4.62788 -1.20462 1.83938 0
M  V30 6 C 4.8974 -1.83902 3.0402 0
M  V30 7 C 4.97164 -3.21166 3.11793 0
M  V30 8 C 4.77612 -3.96953 1.9895 0
M  V30 9 C 4.50688 -3.35688 0.784965 0
M  V30 10 C 4.43711 -1.9794 0.730036 0
M  V30 11 N 2.75974 1.11218 3.27004 0
M  V30 12 N 1.5363 1.53955 3.1935 0
M  V30 13 C 1.19627 1.48926 1.87038 0
M  V30 14 S -0.396878 1.98365 1.21627 0
M  V30 15 C -0.446302 3.73381 0.801459 0
M  V30 16 C 0.401405 4.06825 -0.38253 0
M  V30 17 C -0.0449531 3.36458 -1.64057 0
M  V30 18 C -1.46721 3.77209 -1.96548 0
M  V30 19 S -2.05945 2.9575 -3.47135 0
M  V30 20 C -2.18783 1.19729 -3.20106 0
M  V30 21 N -1.22753 0.280443 -3.40785 0
M  V30 22 N -1.68316 -0.920409 -3.09627 0
M  V30 23 C -2.96327 -0.800493 -2.67678 0
M  V30 24 C -3.82184 -1.93114 -2.23676 0
M  V30 25 C -3.71245 -2.21407 -0.810295 0
M  V30 26 C -4.54861 -1.58948 0.0851129 0
M  V30 27 C -4.435 -1.86394 1.42703 0
M  V30 28 C -3.49951 -2.75461 1.90533 0
M  V30 29 C -2.65512 -3.38762 1.01807 0
M  V30 30 C -2.77518 -3.10468 -0.344879 0
M  V30 31 N -3.24887 0.508442 -2.75064 0
M  V30 32 N -4.4624 1.07534 -2.41262 0
M  V30 33 H 2.86493 1.43514 -0.861724 0
M  V30 34 H 1.77421 -0.0197672 -0.628079 0
M  V30 35 H 4.78256 0.555477 0.671838 0
M  V30 36 H 5.30394 0.684258 2.43467 0
M  V30 37 H 5.04854 -1.24144 3.91604 0
M  V30 38 H 5.18203 -3.69104 4.05839 0
M  V30 39 H 4.82042 -5.04983 1.98097 0
M  V30 40 H 4.34779 -3.94373 -0.126807 0
M  V30 41 H 4.23121 -1.52432 -0.207281 0
M  V30 42 H -1.50506 4.02609 0.66991 0
M  V30 43 H -0.103583 4.32026 1.70127 0
M  V30 44 H 0.305615 5.18214 -0.538717 0
M  V30 45 H 1.47533 3.9011 -0.199987 0
M  V30 46 H 0.649615 3.58153 -2.45918 0
M  V30 47 H -0.0833468 2.26329 -1.41111 0
M  V30 48 H -1.50216 4.86586 -2.13973 0
M  V30 49 H -2.17279 3.52484 -1.17436 0
M  V30 50 H -3.566 -2.81923 -2.87852 0
M  V30 51 H -4.8742 -1.66412 -2.54267 0
M  V30 52 H -5.31537 -0.8702 -0.227686 0
M  V30 53 H -5.08812 -1.38189 2.17269 0
M  V30 54 H -3.44584 -2.94247 2.98815 0
M  V30 55 H -1.93377 -4.07818 1.41533 0
M  V30 56 H -2.09116 -3.62675 -0.993627 0
M  V30 57 H -4.48843 1.76151 -1.61236 0
M  V30 58 H -5.36701 0.888882 -2.87701 0
M  V30 END ATOM
M  V30 BEGIN BOND
M  V30 1 1 1 2
M  V30 2 1 2 3
M  V30 3 1 3 4
M  V30 4 1 4 5
M  V30 5 2 5 6
M  V30 6 1 6 7
M  V30 7 2 7 8
M  V30 8 1 8 9
M  V30 9 2 9 10
M  V30 10 2 3 11
M  V30 11 1 11 12
M  V30 12 2 12 13
M  V30 13 1 13 14
M  V30 14 1 14 15
M  V30 15 1 15 16
M  V30 16 1 16 17
M  V30 17 1 17 18
M  V30 18 1 18 19
M  V30 19 1 19 20
M  V30 20 2 20 21
M  V30 21 1 21 22
M  V30 22 2 22 23
M  V30 23 1 23 24
M  V30 24 1 24 25
M  V30 25 2 25 26
M  V30 26 1 26 27
M  V30 27 2 27 28
M  V30 28 1 28 29
M  V30 29 2 29 30
M  V30 30 1 23 31
M  V30 31 1 31 32
M  V30 32 1 13 2
M  V30 33 1 31 20
M  V30 34 1 10 5
M  V30 35 1 30 25
M  V30 36 1 1 33
M  V30 37 1 1 34
M  V30 38 1 4 35
M  V30 39 1 4 36
M  V30 40 1 6 37
M  V30 41 1 7 38
M  V30 42 1 8 39
M  V30 43 1 9 40
M  V30 44 1 10 41
M  V30 45 1 15 42
M  V30 46 1 15 43
M  V30 47 1 16 44
M  V30 48 1 16 45
M  V30 49 1 17 46
M  V30 50 1 17 47
M  V30 51 1 18 48
M  V30 52 1 18 49
M  V30 53 1 24 50
M  V30 54 1 24 51
M  V30 55 1 26 52
M  V30 56 1 27 53
M  V30 57 1 28 54
M  V30 58 1 29 55
M  V30 59 1 30 56
M  V30 60 1 32 57
M  V30 61 1 32 58
M  V30 END BOND
M  V30 END CTAB
M  END
