
     RDKit          3D

  0  0  0  0  0  0  0  0  0  0999 V3000
M  V30 BEGIN CTAB
M  V30 COUNTS 45 45 0 0 0
M  V30 BEGIN ATOM
M  V30 1 N -3.77537 -1.90585 -0.317218 0
M  V30 2 C -2.49575 -1.96637 0.312325 0
M  V30 3 C -1.9367 -0.644573 0.752758 0
M  V30 4 N -1.74372 0.310769 -0.308296 0
M  V30 5 C -0.560395 0.479449 -1.01848 0
M  V30 6 S -0.560606 1.72922 -2.18362 0
M  V30 7 N 0.620932 -0.226155 -0.926795 0
M  V30 8 C 1.72999 0.245442 -1.85284 0
M  V30 9 C 2.75352 0.798682 -0.90671 0
M  V30 10 N 3.15137 -0.0181045 0.166811 0
M  V30 11 C 2.14796 -0.796519 0.827375 0
M  V30 12 C 1.10524 -1.32218 -0.159533 0
M  V30 13 C 4.44917 -0.589068 0.114143 0
M  V30 14 C 5.47634 0.523823 0.257694 0
M  V30 15 N 6.8019 -0.0670675 0.200472 0
M  V30 16 C -2.86364 1.17866 -0.627399 0
M  V30 17 O -2.81319 2.01877 -1.51273 0
M  V30 18 O -4.03521 1.05488 0.0953873 0
M  V30 19 C -5.14946 1.8703 -0.17202 0
M  V30 20 C -6.23932 1.45691 0.802996 0
M  V30 21 H -4.58812 -2.04401 0.286772 0
M  V30 22 H -3.81998 -2.35154 -1.25146 0
M  V30 23 H -2.58955 -2.58713 1.24806 0
M  V30 24 H -1.79589 -2.53122 -0.332844 0
M  V30 25 H -2.67253 -0.183326 1.52026 0
M  V30 26 H -1.03771 -0.775244 1.33966 0
M  V30 27 H 2.04906 -0.650431 -2.37754 0
M  V30 28 H 1.39137 1.03493 -2.51333 0
M  V30 29 H 3.64514 1.07751 -1.50492 0
M  V30 30 H 2.31254 1.74066 -0.47116 0
M  V30 31 H 2.63356 -1.67487 1.29098 0
M  V30 32 H 1.60322 -0.165861 1.55037 0
M  V30 33 H 0.428995 -1.97522 0.328404 0
M  V30 34 H 1.67318 -2.03159 -0.894776 0
M  V30 35 H 4.58281 -1.26513 0.9832 0
M  V30 36 H 4.67818 -1.09663 -0.847199 0
M  V30 37 H 5.312 1.04092 1.24033 0
M  V30 38 H 5.41237 1.285 -0.520417 0
M  V30 39 H 7.37649 0.374663 -0.543144 0
M  V30 40 H 7.2935 0.0638971 1.10273 0
M  V30 41 H -4.94617 2.94811 -0.100434 0
M  V30 42 H -5.53836 1.66698 -1.19352 0
M  V30 43 H -6.1442 0.348465 0.928901 0
M  V30 44 H -6.07728 1.90367 1.78567 0
M  V30 45 H -7.2457 1.71639 0.386646 0
M  V30 END ATOM
M  V30 BEGIN BOND
M  V30 1 1 1 2
M  V30 2 1 2 3
M  V30 3 1 3 4
M  V30 4 1 4 5
M  V30 5 2 5 6
M  V30 6 1 5 7
M  V30 7 1 7 8
M  V30 8 1 8 9
M  V30 9 1 9 10
M  V30 10 1 10 11
M  V30 11 1 11 12
M  V30 12 1 10 13
M  V30 13 1 13 14
M  V30 14 1 14 15
M  V30 15 1 4 16
M  V30 16 2 16 17
M  V30 17 1 16 18
M  V30 18 1 18 19
M  V30 19 1 19 20
M  V30 20 1 12 7
M  V30 21 1 1 21
M  V30 22 1 1 22
M  V30 23 1 2 23
M  V30 24 1 2 24
M  V30 25 1 3 25
M  V30 26 1 3 26
M  V30 27 1 8 27
M  V30 28 1 8 28
M  V30 29 1 9 29
M  V30 30 1 9 30
M  V30 31 1 11 31
M  V30 32 1 11 32
M  V30 33 1 12 33
M  V30 34 1 12 34
M  V30 35 1 13 35
M  V30 36 1 13 36
M  V30 37 1 14 37
M  V30 38 1 14 38
M  V30 39 1 15 39
M  V30 40 1 15 40
M  V30 41 1 19 41
M  V30 42 1 19 42
M  V30 43 1 20 43
M  V30 44 1 20 44
M  V30 45 1 20 45
M  V30 END BOND
M  V30 END CTAB
M  END
