
     RDKit          3D

  0  0  0  0  0  0  0  0  0  0999 V3000
M  V30 BEGIN CTAB
M  V30 COUNTS 35 37 0 0 0
M  V30 BEGIN ATOM
M  V30 1 N 5.71135 -0.817079 -0.491533 0
M  V30 2 C 4.41979 -0.600206 0.0269317 0
M  V30 3 N 4.12955 -0.465496 1.31423 0
M  V30 4 N 2.83439 -0.274221 1.47702 0
M  V30 5 C 2.23462 -0.279479 0.274471 0
M  V30 6 C 3.22898 -0.485208 -0.652263 0
M  V30 7 C 0.809974 -0.096231 0.0825527 0 CFG=1
M  V30 8 C 0.536398 1.15176 -0.750276 0
M  V30 9 C -0.902316 1.46802 -0.583791 0
M  V30 10 C -1.29237 2.78889 -0.572178 0
M  V30 11 C -2.62578 3.10676 -0.421552 0
M  V30 12 C -3.50416 2.06521 -0.289293 0
M  V30 13 C -3.1318 0.735243 -0.29853 0
M  V30 14 C -1.79205 0.409468 -0.449603 0
M  V30 15 N -1.32498 -0.935024 -0.468459 0
M  V30 16 C 0.113663 -1.21894 -0.633825 0
M  V30 17 S -2.46974 -2.19904 -0.292136 0
M  V30 18 O -3.4995 -2.17392 -1.40883 0
M  V30 19 O -1.81424 -3.55663 -0.395934 0
M  V30 20 N -3.3118 -2.16823 1.1976 0
M  V30 21 H 6.12414 -0.126451 -1.13382 0
M  V30 22 H 6.2428 -1.65948 -0.232528 0
M  V30 23 H 2.41203 -0.145918 2.42792 0
M  V30 24 H 3.06162 -0.539318 -1.70458 0
M  V30 25 H 0.281371 0.0478286 1.04348 0
M  V30 26 H 0.782236 0.884155 -1.79721 0
M  V30 27 H 1.19521 1.94535 -0.348649 0
M  V30 28 H -0.523854 3.54171 -0.683726 0
M  V30 29 H -2.8943 4.14903 -0.417049 0
M  V30 30 H -4.54738 2.30085 -0.171143 0
M  V30 31 H -3.83663 -0.0670079 -0.194252 0
M  V30 32 H 0.321376 -1.11828 -1.71904 0
M  V30 33 H 0.364275 -2.21248 -0.263697 0
M  V30 34 H -2.98986 -1.41023 1.84086 0
M  V30 35 H -4.34302 -2.04539 1.07806 0
M  V30 END ATOM
M  V30 BEGIN BOND
M  V30 1 1 1 2
M  V30 2 2 2 3
M  V30 3 1 3 4
M  V30 4 1 4 5
M  V30 5 2 5 6
M  V30 6 1 5 7
M  V30 7 1 7 8
M  V30 8 1 8 9
M  V30 9 2 9 10
M  V30 10 1 10 11
M  V30 11 2 11 12
M  V30 12 1 12 13
M  V30 13 2 13 14
M  V30 14 1 14 15
M  V30 15 1 15 16
M  V30 16 1 15 17
M  V30 17 2 17 18
M  V30 18 2 17 19
M  V30 19 1 17 20
M  V30 20 1 6 2
M  V30 21 1 16 7
M  V30 22 1 14 9
M  V30 23 1 1 21
M  V30 24 1 1 22
M  V30 25 1 4 23
M  V30 26 1 6 24
M  V30 27 1 7 25 CFG=1
M  V30 28 1 8 26
M  V30 29 1 8 27
M  V30 30 1 10 28
M  V30 31 1 11 29
M  V30 32 1 12 30
M  V30 33 1 13 31
M  V30 34 1 16 32
M  V30 35 1 16 33
M  V30 36 1 20 34
M  V30 37 1 20 35
M  V30 END BOND
M  V30 END CTAB
M  END
