
     RDKit          3D

  0  0  0  0  0  0  0  0  0  0999 V3000
M  V30 BEGIN CTAB
M  V30 COUNTS 28 28 0 0 0
M  V30 BEGIN ATOM
M  V30 1 C -3.35496 -1.22024 0.0969452 0
M  V30 2 C -2.15435 -0.330427 -0.0590884 0
M  V30 3 C -0.900726 -0.891006 -0.156609 0
M  V30 4 N -0.755157 -2.31073 -0.108522 0
M  V30 5 C 0.257628 -0.133222 -0.301487 0
M  V30 6 C 1.55252 -0.823462 -0.389706 0
M  V30 7 C 2.72448 0.0140306 -0.560835 0
M  V30 8 O 2.81508 0.784451 -1.54882 0
M  V30 9 O 3.75615 -0.0112172 0.345313 0
M  V30 10 C 4.93427 0.769874 0.265284 0
M  V30 11 C 0.0929604 1.22903 -0.344521 0
M  V30 12 C -1.17106 1.82504 -0.247831 0
M  V30 13 C -2.30179 1.04928 -0.104688 0
M  V30 14 N -3.59066 1.64759 -0.00452265 0
M  V30 15 H -3.16718 -1.9593 0.901608 0
M  V30 16 H -4.24211 -0.596809 0.258275 0
M  V30 17 H -3.46007 -1.73868 -0.885133 0
M  V30 18 H -1.04074 -2.95913 -0.866633 0
M  V30 19 H -0.321097 -2.68224 0.782049 0
M  V30 20 H 1.62988 -1.52615 0.466631 0
M  V30 21 H 1.47402 -1.49644 -1.29716 0
M  V30 22 H 5.21047 0.994843 1.3408 0
M  V30 23 H 5.80211 0.199642 -0.128319 0
M  V30 24 H 4.71035 1.67752 -0.312831 0
M  V30 25 H 0.956998 1.86926 -0.450121 0
M  V30 26 H -1.27264 2.90288 -0.285525 0
M  V30 27 H -4.30095 1.43397 -0.762229 0
M  V30 28 H -3.88342 2.28166 0.757992 0
M  V30 END ATOM
M  V30 BEGIN BOND
M  V30 1 1 1 2
M  V30 2 2 2 3
M  V30 3 1 3 4
M  V30 4 1 3 5
M  V30 5 1 5 6
M  V30 6 1 6 7
M  V30 7 2 7 8
M  V30 8 1 7 9
M  V30 9 1 9 10
M  V30 10 2 5 11
M  V30 11 1 11 12
M  V30 12 2 12 13
M  V30 13 1 13 14
M  V30 14 1 13 2
M  V30 15 1 1 15
M  V30 16 1 1 16
M  V30 17 1 1 17
M  V30 18 1 4 18
M  V30 19 1 4 19
M  V30 20 1 6 20
M  V30 21 1 6 21
M  V30 22 1 10 22
M  V30 23 1 10 23
M  V30 24 1 10 24
M  V30 25 1 11 25
M  V30 26 1 12 26
M  V30 27 1 14 27
M  V30 28 1 14 28
M  V30 END BOND
M  V30 END CTAB
M  END
