
     RDKit          3D

  0  0  0  0  0  0  0  0  0  0999 V3000
M  V30 BEGIN CTAB
M  V30 COUNTS 29 30 0 0 0
M  V30 BEGIN ATOM
M  V30 1 N 2.29729 -2.53957 -1.16639 0
M  V30 2 C 2.67208 -1.20568 -0.864488 0
M  V30 3 N 1.76955 -0.238084 -1.00338 0
M  V30 4 C 2.09435 1.03376 -0.725463 0
M  V30 5 C 1.06099 2.07242 -0.893113 0
M  V30 6 O -0.244578 1.61768 -0.970194 0
M  V30 7 C -0.807496 0.921857 0.0830496 0
M  V30 8 O -0.112219 0.716742 1.1046 0
M  V30 9 C -2.16799 0.415989 0.0633737 0
M  V30 10 C -3.03823 0.575851 -1.00398 0
M  V30 11 C -4.20602 -0.0459834 -0.611498 0
M  V30 12 C -3.99787 -0.549953 0.659939 0
M  V30 13 O -2.76948 -0.23937 0.996589 0
M  V30 14 C -4.98197 -1.30864 1.50267 0
M  V30 15 N 3.34288 1.30646 -0.306642 0
M  V30 16 C 4.28339 0.356506 -0.1537 0
M  V30 17 N 3.91691 -0.901988 -0.442435 0
M  V30 18 N 5.60316 0.647146 0.28938 0
M  V30 19 H 2.16904 -3.2084 -0.384938 0
M  V30 20 H 2.15538 -2.84015 -2.13236 0
M  V30 21 H 1.2917 2.59988 -1.86108 0
M  V30 22 H 1.20397 2.86114 -0.110785 0
M  V30 23 H -2.8751 1.07188 -1.9515 0
M  V30 24 H -5.12462 -0.136559 -1.17237 0
M  V30 25 H -5.66718 -1.83855 0.815894 0
M  V30 26 H -4.50152 -2.05607 2.13734 0
M  V30 27 H -5.53178 -0.544402 2.08757 0
M  V30 28 H 6.06724 1.5261 0.0680069 0
M  V30 29 H 6.09814 -0.0700346 0.85673 0
M  V30 END ATOM
M  V30 BEGIN BOND
M  V30 1 1 1 2
M  V30 2 2 2 3
M  V30 3 1 3 4
M  V30 4 1 4 5
M  V30 5 1 5 6
M  V30 6 1 6 7
M  V30 7 2 7 8
M  V30 8 1 7 9
M  V30 9 2 9 10
M  V30 10 1 10 11
M  V30 11 2 11 12
M  V30 12 1 12 13
M  V30 13 1 12 14
M  V30 14 2 4 15
M  V30 15 1 15 16
M  V30 16 2 16 17
M  V30 17 1 16 18
M  V30 18 1 17 2
M  V30 19 1 13 9
M  V30 20 1 1 19
M  V30 21 1 1 20
M  V30 22 1 5 21
M  V30 23 1 5 22
M  V30 24 1 10 23
M  V30 25 1 11 24
M  V30 26 1 14 25
M  V30 27 1 14 26
M  V30 28 1 14 27
M  V30 29 1 18 28
M  V30 30 1 18 29
M  V30 END BOND
M  V30 END CTAB
M  END
