
     RDKit          3D

  0  0  0  0  0  0  0  0  0  0999 V3000
M  V30 BEGIN CTAB
M  V30 COUNTS 33 35 0 0 0
M  V30 BEGIN ATOM
M  V30 1 N 5.44379 -1.84706 1.04639 0
M  V30 2 C 4.45954 -0.952522 0.531841 0
M  V30 3 N 3.15124 -1.08 0.818867 0
M  V30 4 C 2.20265 -0.250321 0.34689 0
M  V30 5 S 0.520155 -0.579399 0.837826 0
M  V30 6 C -0.634365 0.608148 0.132219 0
M  V30 7 C -2.01702 0.254657 0.597031 0
M  V30 8 C -2.31904 -1.16268 0.105311 0
M  V30 9 C -3.61082 -0.937227 -0.645228 0
M  V30 10 O -3.362 0.332282 -1.21755 0
M  V30 11 C -3.10174 1.05529 -0.033425 0
M  V30 12 C -4.38102 0.81277 0.732859 0
M  V30 13 C -4.70294 -0.621817 0.323334 0
M  V30 14 N 2.55975 0.752359 -0.445313 0
M  V30 15 C 3.85239 0.931582 -0.768194 0
M  V30 16 C 4.84457 0.09832 -0.300004 0
M  V30 17 N 4.22998 2.00257 -1.6138 0
M  V30 18 H 6.37974 -1.56423 1.36631 0
M  V30 19 H 5.19287 -2.85732 1.10028 0
M  V30 20 H -0.374035 1.63709 0.455801 0
M  V30 21 H -0.601675 0.612779 -0.99073 0
M  V30 22 H -2.02781 0.290953 1.70217 0
M  V30 23 H -2.40264 -1.85651 0.940326 0
M  V30 24 H -1.54915 -1.52969 -0.588024 0
M  V30 25 H -3.84129 -1.69597 -1.38357 0
M  V30 26 H -2.88033 2.09943 -0.221623 0
M  V30 27 H -4.15431 0.83326 1.80032 0
M  V30 28 H -5.19496 1.49147 0.424043 0
M  V30 29 H -4.68367 -1.28025 1.21561 0
M  V30 30 H -5.67126 -0.695478 -0.177418 0
M  V30 31 H 5.89324 0.218028 -0.543012 0
M  V30 32 H 5.1672 2.49625 -1.53274 0
M  V30 33 H 3.61294 2.38324 -2.37784 0
M  V30 END ATOM
M  V30 BEGIN BOND
M  V30 1 1 1 2
M  V30 2 2 2 3
M  V30 3 1 3 4
M  V30 4 1 4 5
M  V30 5 1 5 6
M  V30 6 1 6 7
M  V30 7 1 7 8
M  V30 8 1 8 9
M  V30 9 1 9 10
M  V30 10 1 10 11
M  V30 11 1 11 12
M  V30 12 1 12 13
M  V30 13 2 4 14
M  V30 14 1 14 15
M  V30 15 2 15 16
M  V30 16 1 15 17
M  V30 17 1 16 2
M  V30 18 1 11 7
M  V30 19 1 13 9
M  V30 20 1 1 18
M  V30 21 1 1 19
M  V30 22 1 6 20
M  V30 23 1 6 21
M  V30 24 1 7 22
M  V30 25 1 8 23
M  V30 26 1 8 24
M  V30 27 1 9 25
M  V30 28 1 11 26
M  V30 29 1 12 27
M  V30 30 1 12 28
M  V30 31 1 13 29
M  V30 32 1 13 30
M  V30 33 1 16 31
M  V30 34 1 17 32
M  V30 35 1 17 33
M  V30 END BOND
M  V30 END CTAB
M  END
