
     RDKit          3D

  0  0  0  0  0  0  0  0  0  0999 V3000
M  V30 BEGIN CTAB
M  V30 COUNTS 28 28 0 0 0
M  V30 BEGIN ATOM
M  V30 1 N 4.346 0.218041 0.925052 0
M  V30 2 N 3.12926 0.8116 0.601751 0
M  V30 3 C 2.29366 0.139222 -0.111496 0
M  V30 4 N 1.07321 0.780303 -0.414981 0
M  V30 5 C -0.0939558 0.49175 0.370011 0
M  V30 6 C -0.435365 -0.950786 0.294007 0
M  V30 7 C -1.86612 -1.29702 0.285077 0
M  V30 8 C -2.81906 -0.34555 0.875716 0
M  V30 9 C -2.38489 1.07385 0.944547 0
M  V30 10 C -1.24431 1.40825 0.0285441 0
M  V30 11 O -1.56552 1.43117 -1.30007 0
M  V30 12 N 2.61308 -1.1718 -0.552045 0
M  V30 13 H 4.3664 -0.785948 1.1386 0
M  V30 14 H 5.19261 0.822262 0.937029 0
M  V30 15 H 1.03422 1.44734 -1.19572 0
M  V30 16 H 0.147088 0.720868 1.45093 0
M  V30 17 H 0.111623 -1.50783 1.11202 0
M  V30 18 H 0.0291084 -1.35649 -0.651479 0
M  V30 19 H -1.98503 -2.2852 0.824019 0
M  V30 20 H -2.21524 -1.54036 -0.762265 0
M  V30 21 H -3.10416 -0.662929 1.92251 0
M  V30 22 H -3.80527 -0.364394 0.322389 0
M  V30 23 H -2.03237 1.31945 1.98943 0
M  V30 24 H -3.24812 1.77471 0.781622 0
M  V30 25 H -0.898815 2.44583 0.310918 0
M  V30 26 H -2.09766 0.692748 -1.63353 0
M  V30 27 H 2.57123 -1.37723 -1.55278 0
M  V30 28 H 2.88839 -1.93186 0.106223 0
M  V30 END ATOM
M  V30 BEGIN BOND
M  V30 1 1 1 2
M  V30 2 2 2 3 CFG=2
M  V30 3 1 3 4
M  V30 4 1 4 5
M  V30 5 1 5 6
M  V30 6 1 6 7
M  V30 7 1 7 8
M  V30 8 1 8 9
M  V30 9 1 9 10
M  V30 10 1 10 11
M  V30 11 1 3 12
M  V30 12 1 10 5
M  V30 13 1 1 13
M  V30 14 1 1 14
M  V30 15 1 4 15
M  V30 16 1 5 16
M  V30 17 1 6 17
M  V30 18 1 6 18
M  V30 19 1 7 19
M  V30 20 1 7 20
M  V30 21 1 8 21
M  V30 22 1 8 22
M  V30 23 1 9 23
M  V30 24 1 9 24
M  V30 25 1 10 25
M  V30 26 1 11 26
M  V30 27 1 12 27
M  V30 28 1 12 28
M  V30 END BOND
M  V30 END CTAB
M  END
