
     RDKit          3D

  0  0  0  0  0  0  0  0  0  0999 V3000
M  V30 BEGIN CTAB
M  V30 COUNTS 29 31 0 0 0
M  V30 BEGIN ATOM
M  V30 1 N -5.82409 2.02531 -0.663831 0
M  V30 2 C -4.67557 1.17083 -0.521314 0
M  V30 3 N -3.89209 0.660621 -1.46611 0
M  V30 4 N -2.91836 -0.0774186 -1.15092 0
M  V30 5 C -2.67575 -0.34497 0.126733 0
M  V30 6 C -1.6101 -1.17379 0.774033 0
M  V30 7 C -0.713825 -1.7607 -0.260591 0
M  V30 8 C 0.406222 -2.62133 0.263097 0
M  V30 9 C 0.737899 -1.29371 -0.374388 0
M  V30 10 C 1.05387 -0.134471 0.508893 0
M  V30 11 C 2.46163 0.322087 0.400076 0
M  V30 12 N 3.53506 -0.0515786 1.07841 0
M  V30 13 N 4.66046 0.466063 0.830484 0
M  V30 14 C 4.77274 1.39139 -0.115695 0
M  V30 15 N 5.93881 2.10411 -0.55858 0
M  V30 16 S 3.13805 1.4864 -0.64877 0
M  V30 17 S -3.92874 0.522927 0.893555 0
M  V30 18 H -6.66448 1.90319 -0.060621 0
M  V30 19 H -5.81359 2.77354 -1.37826 0
M  V30 20 H -1.11166 -0.645361 1.578 0
M  V30 21 H -2.17044 -2.02948 1.25321 0
M  V30 22 H -1.1812 -2.0886 -1.22167 0
M  V30 23 H 0.649255 -3.55778 -0.261848 0
M  V30 24 H 0.5975 -2.65244 1.35646 0
M  V30 25 H 1.2186 -1.37273 -1.37545 0
M  V30 26 H 0.915686 -0.476324 1.57578 0
M  V30 27 H 0.349259 0.697289 0.293267 0
M  V30 28 H 6.12789 3.07399 -0.223384 0
M  V30 29 H 6.61697 1.68293 -1.21428 0
M  V30 END ATOM
M  V30 BEGIN BOND
M  V30 1 1 1 2
M  V30 2 2 2 3
M  V30 3 1 3 4
M  V30 4 2 4 5
M  V30 5 1 5 6
M  V30 6 1 6 7
M  V30 7 1 7 8
M  V30 8 1 8 9
M  V30 9 1 9 10
M  V30 10 1 10 11
M  V30 11 2 11 12
M  V30 12 1 12 13
M  V30 13 2 13 14
M  V30 14 1 14 15
M  V30 15 1 14 16
M  V30 16 1 5 17
M  V30 17 1 17 2
M  V30 18 1 9 7
M  V30 19 1 16 11
M  V30 20 1 1 18
M  V30 21 1 1 19
M  V30 22 1 6 20
M  V30 23 1 6 21
M  V30 24 1 7 22
M  V30 25 1 8 23
M  V30 26 1 8 24
M  V30 27 1 9 25
M  V30 28 1 10 26
M  V30 29 1 10 27
M  V30 30 1 15 28
M  V30 31 1 15 29
M  V30 END BOND
M  V30 END CTAB
M  END
