
     RDKit          3D

  0  0  0  0  0  0  0  0  0  0999 V3000
M  V30 BEGIN CTAB
M  V30 COUNTS 41 42 0 0 0
M  V30 BEGIN ATOM
M  V30 1 C -3.43102 -2.00841 0.766002 0
M  V30 2 C -2.20131 -1.21612 1.10403 0
M  V30 3 N -1.43528 -0.900173 -0.0673556 0
M  V30 4 C -2.01849 -0.149619 -1.11 0
M  V30 5 C -2.07838 1.2258 -0.978738 0
M  V30 6 C -2.63442 2.00199 -1.96691 0
M  V30 7 C -3.13845 1.41628 -3.10132 0
M  V30 8 C -3.07655 0.0434235 -3.22817 0
M  V30 9 C -2.52398 -0.743127 -2.24791 0
M  V30 10 C -0.112156 -1.35847 -0.199966 0
M  V30 11 O 0.420796 -1.95656 0.770158 0
M  V30 12 C 0.680516 -1.1623 -1.44637 0
M  V30 13 S 2.40298 -1.72606 -1.19171 0
M  V30 14 C 3.20313 -0.603407 -0.0642143 0
M  V30 15 N 3.17973 -0.775829 1.25909 0
M  V30 16 C 3.79578 0.085199 2.10404 0
M  V30 17 N 3.77459 -0.0953181 3.51025 0
M  V30 18 C 4.47612 1.18653 1.60399 0
M  V30 19 C 4.50132 1.36653 0.243295 0
M  V30 20 N 3.87148 0.476711 -0.542492 0
M  V30 21 N 5.19458 2.48431 -0.309955 0
M  V30 22 C -2.55034 0.0246197 1.90745 0
M  V30 23 H -3.1585 -3.02677 0.361169 0
M  V30 24 H -3.98367 -2.22216 1.70273 0
M  V30 25 H -4.08351 -1.49701 0.0506605 0
M  V30 26 H -1.55289 -1.8638 1.76709 0
M  V30 27 H -1.68765 1.76125 -0.099213 0
M  V30 28 H -2.68568 3.0812 -1.86951 0
M  V30 29 H -3.58448 1.99327 -3.90641 0
M  V30 30 H -3.48713 -0.3991 -4.147 0
M  V30 31 H -2.49001 -1.83398 -2.38781 0
M  V30 32 H 0.732172 -0.0714391 -1.62202 0
M  V30 33 H 0.218831 -1.62141 -2.33876 0
M  V30 34 H 3.48056 -1.0119 3.89693 0
M  V30 35 H 4.04422 0.657903 4.15908 0
M  V30 36 H 4.96482 1.86984 2.27231 0
M  V30 37 H 5.12046 3.38499 0.165425 0
M  V30 38 H 5.74334 2.32258 -1.17817 0
M  V30 39 H -1.57315 0.503268 2.18315 0
M  V30 40 H -3.0903 -0.313337 2.83148 0
M  V30 41 H -3.2281 0.670593 1.34567 0
M  V30 END ATOM
M  V30 BEGIN BOND
M  V30 1 1 1 2
M  V30 2 1 2 3
M  V30 3 1 3 4
M  V30 4 2 4 5
M  V30 5 1 5 6
M  V30 6 2 6 7
M  V30 7 1 7 8
M  V30 8 2 8 9
M  V30 9 1 3 10
M  V30 10 2 10 11
M  V30 11 1 10 12
M  V30 12 1 12 13
M  V30 13 1 13 14
M  V30 14 2 14 15
M  V30 15 1 15 16
M  V30 16 1 16 17
M  V30 17 2 16 18
M  V30 18 1 18 19
M  V30 19 2 19 20
M  V30 20 1 19 21
M  V30 21 1 2 22
M  V30 22 1 9 4
M  V30 23 1 20 14
M  V30 24 1 1 23
M  V30 25 1 1 24
M  V30 26 1 1 25
M  V30 27 1 2 26
M  V30 28 1 5 27
M  V30 29 1 6 28
M  V30 30 1 7 29
M  V30 31 1 8 30
M  V30 32 1 9 31
M  V30 33 1 12 32
M  V30 34 1 12 33
M  V30 35 1 17 34
M  V30 36 1 17 35
M  V30 37 1 18 36
M  V30 38 1 21 37
M  V30 39 1 21 38
M  V30 40 1 22 39
M  V30 41 1 22 40
M  V30 42 1 22 41
M  V30 END BOND
M  V30 END CTAB
M  END
