
     RDKit          3D

  0  0  0  0  0  0  0  0  0  0999 V3000
M  V30 BEGIN CTAB
M  V30 COUNTS 51 51 0 0 0
M  V30 BEGIN ATOM
M  V30 1 C 5.75579 0.752292 -0.295125 0
M  V30 2 C 5.21632 -0.332774 0.59993 0
M  V30 3 O 3.91384 -0.141182 0.984608 0
M  V30 4 C 3.02294 -0.0815185 -0.0716175 0
M  V30 5 C 2.18287 1.1846 -0.00869898 0
M  V30 6 C 1.03741 0.315928 -0.567115 0
M  V30 7 C 1.7143 -0.836238 0.173358 0
M  V30 8 C 1.62329 -2.16231 -0.502092 0
M  V30 9 C 1.44502 -0.903041 1.63291 0
M  V30 10 N 1.24393 0.241614 -1.99779 0
M  V30 11 C -0.2797 0.715332 -0.083849 0
M  V30 12 O -0.35202 0.879679 1.18604 0
M  V30 13 N -1.46239 0.938402 -0.840299 0
M  V30 14 C -2.66797 1.33832 -0.204547 0
M  V30 15 C -3.62411 0.360085 0.313358 0
M  V30 16 C -4.24944 -0.623263 -0.591359 0
M  V30 17 N -3.39749 -1.53649 -1.2726 0
M  V30 18 C -3.14501 -0.384887 1.55136 0
M  V30 19 C -4.80288 1.21289 0.864339 0
M  V30 20 C -1.45404 0.799716 -2.28393 0
M  V30 21 H 5.18422 0.911185 -1.20841 0
M  V30 22 H 6.77988 0.416861 -0.612901 0
M  V30 23 H 5.90854 1.70194 0.248026 0
M  V30 24 H 5.8434 -0.343585 1.51422 0
M  V30 25 H 5.36686 -1.30475 0.0883551 0
M  V30 26 H 3.43999 -0.190909 -1.08113 0
M  V30 27 H 1.99389 1.59428 0.982683 0
M  V30 28 H 2.50948 1.9753 -0.725737 0
M  V30 29 H 1.01683 -2.16538 -1.42931 0
M  V30 30 H 1.13107 -2.88041 0.185827 0
M  V30 31 H 2.63385 -2.59652 -0.715346 0
M  V30 32 H 2.14961 -1.68905 2.04992 0
M  V30 33 H 1.68519 -0.000354955 2.21122 0
M  V30 34 H 0.434988 -1.32979 1.87714 0
M  V30 35 H 1.84583 -0.52307 -2.30739 0
M  V30 36 H 1.4807 1.14791 -2.43271 0
M  V30 37 H -2.41848 2.02906 0.671382 0
M  V30 38 H -3.26927 2.05297 -0.864359 0
M  V30 39 H -4.96016 -0.094496 -1.28808 0
M  V30 40 H -4.9497 -1.26042 0.0305973 0
M  V30 41 H -3.87954 -2.39594 -1.61294 0
M  V30 42 H -2.50666 -1.74542 -0.774326 0
M  V30 43 H -2.40026 -1.14851 1.35388 0
M  V30 44 H -2.93321 0.328829 2.35843 0
M  V30 45 H -4.06094 -0.947729 1.90647 0
M  V30 46 H -4.47349 1.78654 1.74035 0
M  V30 47 H -5.64696 0.541058 1.0689 0
M  V30 48 H -5.12531 1.93319 0.086887 0
M  V30 49 H -2.48472 0.987322 -2.70618 0
M  V30 50 H -1.15716 -0.171188 -2.66589 0
M  V30 51 H -0.859132 1.64392 -2.75461 0
M  V30 END ATOM
M  V30 BEGIN BOND
M  V30 1 1 1 2
M  V30 2 1 2 3
M  V30 3 1 3 4
M  V30 4 1 4 5
M  V30 5 1 5 6
M  V30 6 1 6 7
M  V30 7 1 7 8
M  V30 8 1 7 9
M  V30 9 1 6 10
M  V30 10 1 6 11
M  V30 11 2 11 12
M  V30 12 1 11 13
M  V30 13 1 13 14
M  V30 14 1 14 15
M  V30 15 1 15 16
M  V30 16 1 16 17
M  V30 17 1 15 18
M  V30 18 1 15 19
M  V30 19 1 13 20
M  V30 20 1 7 4
M  V30 21 1 1 21
M  V30 22 1 1 22
M  V30 23 1 1 23
M  V30 24 1 2 24
M  V30 25 1 2 25
M  V30 26 1 4 26
M  V30 27 1 5 27
M  V30 28 1 5 28
M  V30 29 1 8 29
M  V30 30 1 8 30
M  V30 31 1 8 31
M  V30 32 1 9 32
M  V30 33 1 9 33
M  V30 34 1 9 34
M  V30 35 1 10 35
M  V30 36 1 10 36
M  V30 37 1 14 37
M  V30 38 1 14 38
M  V30 39 1 16 39
M  V30 40 1 16 40
M  V30 41 1 17 41
M  V30 42 1 17 42
M  V30 43 1 18 43
M  V30 44 1 18 44
M  V30 45 1 18 45
M  V30 46 1 19 46
M  V30 47 1 19 47
M  V30 48 1 19 48
M  V30 49 1 20 49
M  V30 50 1 20 50
M  V30 51 1 20 51
M  V30 END BOND
M  V30 END CTAB
M  END
