
     RDKit          3D

  0  0  0  0  0  0  0  0  0  0999 V3000
M  V30 BEGIN CTAB
M  V30 COUNTS 149 152 0 0 0
M  V30 BEGIN ATOM
M  V30 1 C 5.92459 4.08226 -3.1571 0
M  V30 2 C 5.66721 4.89255 -1.91714 0
M  V30 3 C 4.3374 4.64057 -1.27095 0 CFG=2
M  V30 4 C 4.1564 5.52198 -0.0436894 0
M  V30 5 C 3.98026 3.22381 -1.02734 0 CFG=2
M  V30 6 N 2.63216 3.23545 -0.404766 0
M  V30 7 C 1.65886 2.29357 -0.802213 0
M  V30 8 O 2.09109 1.47153 -1.72629 0
M  V30 9 C 0.299044 2.09552 -0.355439 0 CFG=2
M  V30 10 C -0.109952 3.03654 0.723437 0
M  V30 11 C -0.0721114 4.42182 0.234554 0
M  V30 12 O 0.136912 4.78227 -1.08442 0
M  V30 13 O -0.239909 5.3804 1.04934 0
M  V30 14 N 0.0489693 0.700232 -0.105447 0
M  V30 15 C -1.03229 -0.0660993 -0.54463 0
M  V30 16 O -1.9333 0.460176 -1.24146 0
M  V30 17 C -1.1129 -1.55529 -0.166591 0 CFG=2
M  V30 18 C -0.0570544 -2.2029 -0.988626 0
M  V30 19 C 0.0967039 -3.66349 -0.862353 0
M  V30 20 C 0.486094 -4.22107 0.456243 0
M  V30 21 N 1.77693 -3.75371 0.911141 0
M  V30 22 C 2.34938 -4.23058 2.10212 0
M  V30 23 N 3.43783 -3.56861 2.6931 0
M  V30 24 N 1.88058 -5.29015 2.65228 0
M  V30 25 N -2.40237 -2.09944 -0.542153 0
M  V30 26 C -3.60181 -1.83983 0.1798 0
M  V30 27 O -3.47387 -1.0736 1.17556 0
M  V30 28 C -4.91987 -2.41389 -0.18499 0 CFG=2
M  V30 29 C -4.7779 -3.20751 -1.41035 0
M  V30 30 C -5.9387 -3.90346 -1.99627 0
M  V30 31 C -7.04104 -2.9771 -2.40821 0
M  V30 32 C -6.47197 -5.03034 -1.1209 0
M  V30 33 N -5.91659 -1.41607 -0.106922 0
M  V30 34 C -7.02148 -1.28951 0.728422 0
M  V30 35 O -7.23793 -2.16177 1.59862 0
M  V30 36 C -7.97358 -0.134289 0.622223 0 CFG=2
M  V30 37 C -7.2971 1.186 0.590826 0
M  V30 38 C -8.29357 2.29038 0.472487 0
M  V30 39 C -8.72568 3.0641 1.52568 0
M  V30 40 N -9.63237 3.94291 1.07641 0
M  V30 41 C -9.79182 3.7493 -0.244402 0
M  V30 42 C -10.6199 4.41714 -1.14278 0
M  V30 43 C -10.6031 4.03484 -2.47036 0
M  V30 44 C -9.76556 2.99598 -2.88048 0
M  V30 45 C -8.94828 2.34259 -1.95533 0
M  V30 46 C -8.96413 2.72124 -0.643328 0
M  V30 47 N -9.01762 -0.236098 1.614 0
M  V30 48 C -10.2302 -0.927861 1.35782 0
M  V30 49 O -10.3544 -1.46527 0.233312 0
M  V30 50 C -11.3285 -1.05027 2.32842 0 CFG=1
M  V30 51 N -11.2997 -0.0712899 3.36043 0
M  V30 52 C -12.638 -1.23969 1.63064 0
M  V30 53 O -12.5412 -2.26101 0.655997 0
M  V30 54 C 4.90384 2.46329 -0.132911 0
M  V30 55 O 4.87161 2.59002 1.11547 0
M  V30 56 N 5.85325 1.55183 -0.648003 0
M  V30 57 C 6.77464 0.761743 0.189025 0 CFG=1
M  V30 58 C 6.15197 -0.618299 0.304191 0
M  V30 59 C 6.87698 -1.62676 1.0464 0
M  V30 60 C 6.83434 -1.95945 2.38455 0
M  V30 61 N 7.71953 -2.94392 2.60458 0
M  V30 62 C 8.33992 -3.27099 1.46812 0
M  V30 63 C 9.29044 -4.19949 1.15693 0
M  V30 64 C 9.77992 -4.38259 -0.101599 0
M  V30 65 C 9.28999 -3.58125 -1.14458 0
M  V30 66 C 8.33444 -2.65226 -0.80771 0
M  V30 67 C 7.8414 -2.46991 0.473355 0
M  V30 68 C 8.12656 0.781694 -0.328933 0
M  V30 69 O 8.31631 0.926914 -1.5742 0
M  V30 70 N 9.28031 0.65093 0.472505 0
M  V30 71 C 10.6453 0.654523 -0.079586 0 CFG=1
M  V30 72 C 11.1974 2.05002 0.167934 0
M  V30 73 C 12.5495 2.28044 -0.360743 0
M  V30 74 O 13.2077 3.47604 -0.0100971 0
M  V30 75 O 13.1911 1.51866 -1.10152 0
M  V30 76 C 11.4585 -0.334659 0.659445 0
M  V30 77 O 12.7108 -0.721907 0.306979 0
M  V30 78 O 10.9584 -0.871362 1.69892 0
M  V30 79 H 4.98628 3.58358 -3.50758 0
M  V30 80 H 6.69974 3.30106 -2.99256 0
M  V30 81 H 6.25866 4.69184 -4.02156 0
M  V30 82 H 5.6728 5.97686 -2.21903 0
M  V30 83 H 6.51513 4.79815 -1.21011 0
M  V30 84 H 3.57493 5.04001 -2.00752 0
M  V30 85 H 4.94682 6.31391 -0.0443207 0
M  V30 86 H 3.19877 6.04603 -0.0196523 0
M  V30 87 H 4.29623 4.91634 0.842691 0
M  V30 88 H 3.97872 2.655 -1.97644 0
M  V30 89 H 2.42612 3.92334 0.331443 0
M  V30 90 H -0.402313 2.34423 -1.24457 0
M  V30 91 H -1.20648 2.81064 0.924586 0
M  V30 92 H 0.443209 2.881 1.67041 0
M  V30 93 H -0.138293 5.63566 -1.49841 0
M  V30 94 H 0.78141 0.193795 0.497563 0
M  V30 95 H -1.00587 -1.52136 0.906753 0
M  V30 96 H -0.336096 -2.01225 -2.07193 0
M  V30 97 H 0.947348 -1.73108 -0.897777 0
M  V30 98 H 0.82013 -3.99565 -1.63989 0
M  V30 99 H -0.909141 -4.11875 -1.11503 0
M  V30 100 H 0.560327 -5.33656 0.336593 0
M  V30 101 H -0.264071 -4.06003 1.25862 0
M  V30 102 H 2.28701 -3.05808 0.338143 0
M  V30 103 H 3.30054 -2.73391 3.29695 0
M  V30 104 H 4.40126 -3.90498 2.53658 0
M  V30 105 H 2.26781 -5.69979 3.54982 0
M  V30 106 H -2.46117 -2.70425 -1.37441 0
M  V30 107 H -5.07379 -3.19563 0.656946 0
M  V30 108 H -4.00361 -4.00155 -1.18933 0
M  V30 109 H -4.28939 -2.63943 -2.2575 0
M  V30 110 H -5.57919 -4.42561 -2.91611 0
M  V30 111 H -6.7164 -1.928 -2.49455 0
M  V30 112 H -7.8679 -3.0846 -1.66135 0
M  V30 113 H -7.44783 -3.22934 -3.41972 0
M  V30 114 H -5.66739 -5.70515 -0.771299 0
M  V30 115 H -7.13796 -5.63331 -1.76591 0
M  V30 116 H -6.99649 -4.67712 -0.217377 0
M  V30 117 H -5.78857 -0.606301 -0.810402 0
M  V30 118 H -8.50634 -0.283146 -0.366039 0
M  V30 119 H -6.62651 1.31081 1.47074 0
M  V30 120 H -6.64793 1.26119 -0.308091 0
M  V30 121 H -8.38949 2.97798 2.55551 0
M  V30 122 H -10.102 4.63235 1.69308 0
M  V30 123 H -11.2547 5.21378 -0.789065 0
M  V30 124 H -11.2386 4.5358 -3.19223 0
M  V30 125 H -9.78688 2.74127 -3.92607 0
M  V30 126 H -8.31034 1.55259 -2.26293 0
M  V30 127 H -8.9274 0.191684 2.55862 0
M  V30 128 H -11.1348 -2.05348 2.85221 0
M  V30 129 H -11.0018 -0.439557 4.27985 0
M  V30 130 H -12.0558 0.609899 3.38553 0
M  V30 131 H -12.9891 -0.307078 1.09926 0
M  V30 132 H -13.458 -1.52711 2.31157 0
M  V30 133 H -13.0256 -3.06345 0.90315 0
M  V30 134 H 5.92273 1.39651 -1.66178 0
M  V30 135 H 6.75366 1.18819 1.24019 0
M  V30 136 H 5.1332 -0.441632 0.761795 0
M  V30 137 H 6.00558 -0.976008 -0.73732 0
M  V30 138 H 6.1931 -1.48388 3.08855 0
M  V30 139 H 7.91633 -3.40926 3.52532 0
M  V30 140 H 9.67988 -4.83426 1.96633 0
M  V30 141 H 10.5325 -5.11739 -0.345428 0
M  V30 142 H 9.67836 -3.7365 -2.13323 0
M  V30 143 H 7.95097 -2.03876 -1.61496 0
M  V30 144 H 9.17544 0.538744 1.49904 0
M  V30 145 H 10.6331 0.4891 -1.15074 0
M  V30 146 H 10.5152 2.79113 -0.323048 0
M  V30 147 H 11.2085 2.2266 1.27196 0
M  V30 148 H 13.5868 4.05327 -0.757769 0
M  V30 149 H 13.4195 -0.814309 1.00676 0
M  V30 END ATOM
M  V30 BEGIN BOND
M  V30 1 1 1 2
M  V30 2 1 2 3
M  V30 3 1 3 4
M  V30 4 1 3 5
M  V30 5 1 5 6
M  V30 6 1 6 7
M  V30 7 2 7 8
M  V30 8 1 7 9
M  V30 9 1 9 10
M  V30 10 1 10 11
M  V30 11 1 11 12
M  V30 12 2 11 13
M  V30 13 1 9 14
M  V30 14 1 14 15
M  V30 15 2 15 16
M  V30 16 1 15 17
M  V30 17 1 17 18
M  V30 18 1 18 19
M  V30 19 1 19 20
M  V30 20 1 20 21
M  V30 21 1 21 22
M  V30 22 1 22 23
M  V30 23 2 22 24 CFG=2
M  V30 24 1 17 25
M  V30 25 1 25 26
M  V30 26 2 26 27
M  V30 27 1 26 28
M  V30 28 1 28 29
M  V30 29 1 29 30
M  V30 30 1 30 31
M  V30 31 1 30 32
M  V30 32 1 28 33
M  V30 33 1 33 34
M  V30 34 2 34 35
M  V30 35 1 34 36
M  V30 36 1 36 37
M  V30 37 1 37 38
M  V30 38 2 38 39
M  V30 39 1 39 40
M  V30 40 1 40 41
M  V30 41 2 41 42
M  V30 42 1 42 43
M  V30 43 2 43 44
M  V30 44 1 44 45
M  V30 45 2 45 46
M  V30 46 1 36 47
M  V30 47 1 47 48
M  V30 48 2 48 49
M  V30 49 1 48 50
M  V30 50 1 50 51
M  V30 51 1 50 52
M  V30 52 1 52 53
M  V30 53 1 5 54
M  V30 54 2 54 55
M  V30 55 1 54 56
M  V30 56 1 56 57
M  V30 57 1 57 58
M  V30 58 1 58 59
M  V30 59 2 59 60
M  V30 60 1 60 61
M  V30 61 1 61 62
M  V30 62 2 62 63
M  V30 63 1 63 64
M  V30 64 2 64 65
M  V30 65 1 65 66
M  V30 66 2 66 67
M  V30 67 1 57 68
M  V30 68 2 68 69
M  V30 69 1 68 70
M  V30 70 1 70 71
M  V30 71 1 71 72
M  V30 72 1 72 73
M  V30 73 1 73 74
M  V30 74 2 73 75
M  V30 75 1 71 76
M  V30 76 1 76 77
M  V30 77 2 76 78
M  V30 78 1 46 38
M  V30 79 1 67 59
M  V30 80 1 46 41
M  V30 81 1 67 62
M  V30 82 1 1 79
M  V30 83 1 1 80
M  V30 84 1 1 81
M  V30 85 1 2 82
M  V30 86 1 2 83
M  V30 87 1 3 84 CFG=3
M  V30 88 1 4 85
M  V30 89 1 4 86
M  V30 90 1 4 87
M  V30 91 1 5 88 CFG=3
M  V30 92 1 6 89
M  V30 93 1 9 90 CFG=3
M  V30 94 1 10 91
M  V30 95 1 10 92
M  V30 96 1 12 93
M  V30 97 1 14 94
M  V30 98 1 17 95 CFG=1
M  V30 99 1 18 96
M  V30 100 1 18 97
M  V30 101 1 19 98
M  V30 102 1 19 99
M  V30 103 1 20 100
M  V30 104 1 20 101
M  V30 105 1 21 102
M  V30 106 1 23 103
M  V30 107 1 23 104
M  V30 108 1 24 105
M  V30 109 1 25 106
M  V30 110 1 28 107 CFG=1
M  V30 111 1 29 108
M  V30 112 1 29 109
M  V30 113 1 30 110
M  V30 114 1 31 111
M  V30 115 1 31 112
M  V30 116 1 31 113
M  V30 117 1 32 114
M  V30 118 1 32 115
M  V30 119 1 32 116
M  V30 120 1 33 117
M  V30 121 1 36 118 CFG=3
M  V30 122 1 37 119
M  V30 123 1 37 120
M  V30 124 1 39 121
M  V30 125 1 40 122
M  V30 126 1 42 123
M  V30 127 1 43 124
M  V30 128 1 44 125
M  V30 129 1 45 126
M  V30 130 1 47 127
M  V30 131 1 50 128 CFG=1
M  V30 132 1 51 129
M  V30 133 1 51 130
M  V30 134 1 52 131
M  V30 135 1 52 132
M  V30 136 1 53 133
M  V30 137 1 56 134
M  V30 138 1 57 135 CFG=1
M  V30 139 1 58 136
M  V30 140 1 58 137
M  V30 141 1 60 138
M  V30 142 1 61 139
M  V30 143 1 63 140
M  V30 144 1 64 141
M  V30 145 1 65 142
M  V30 146 1 66 143
M  V30 147 1 70 144
M  V30 148 1 71 145 CFG=3
M  V30 149 1 72 146
M  V30 150 1 72 147
M  V30 151 1 74 148
M  V30 152 1 77 149
M  V30 END BOND
M  V30 END CTAB
M  END
