
     RDKit          3D

  0  0  0  0  0  0  0  0  0  0999 V3000
M  V30 BEGIN CTAB
M  V30 COUNTS 25 25 0 0 0
M  V30 BEGIN ATOM
M  V30 1 C -0.302334 -2.07336 0.467799 0
M  V30 2 C -0.0448745 -0.652318 0.122878 0
M  V30 3 N -1.02768 0.123088 -0.0816466 0
M  V30 4 N -2.3631 -0.3252 0.00894775 0
M  V30 5 C -3.35182 0.471369 0.0420835 0
M  V30 6 N -4.65623 -0.0602968 0.133392 0
M  V30 7 N -3.23255 1.90006 -0.00776083 0
M  V30 8 C 1.33897 -0.200614 0.032155 0
M  V30 9 C 2.39154 -1.069 0.260596 0
M  V30 10 C 3.70733 -0.667758 0.181264 0
M  V30 11 C 3.99742 0.639506 -0.135356 0
M  V30 12 C 2.97159 1.54891 -0.373475 0
M  V30 13 C 1.67491 1.10014 -0.2822 0
M  V30 14 Br 5.77696 1.30033 -0.271666 0
M  V30 15 H 0.0839982 -2.22107 1.50874 0
M  V30 16 H 0.333112 -2.7378 -0.187797 0
M  V30 17 H -1.36647 -2.34139 0.380975 0
M  V30 18 H -5.11014 -0.158192 1.05573 0
M  V30 19 H -5.16092 -0.352493 -0.715409 0
M  V30 20 H -3.60497 2.51125 0.739924 0
M  V30 21 H -2.76172 2.34962 -0.810336 0
M  V30 22 H 2.14272 -2.10847 0.512098 0
M  V30 23 H 4.51274 -1.35219 0.360965 0
M  V30 24 H 3.20535 2.59277 -0.626274 0
M  V30 25 H 0.846152 1.7831 -0.461878 0
M  V30 END ATOM
M  V30 BEGIN BOND
M  V30 1 1 1 2
M  V30 2 2 2 3
M  V30 3 1 3 4
M  V30 4 2 4 5
M  V30 5 1 5 6
M  V30 6 1 5 7
M  V30 7 1 2 8
M  V30 8 2 8 9
M  V30 9 1 9 10
M  V30 10 2 10 11
M  V30 11 1 11 12
M  V30 12 2 12 13
M  V30 13 1 11 14
M  V30 14 1 13 8
M  V30 15 1 1 15
M  V30 16 1 1 16
M  V30 17 1 1 17
M  V30 18 1 6 18
M  V30 19 1 6 19
M  V30 20 1 7 20
M  V30 21 1 7 21
M  V30 22 1 9 22
M  V30 23 1 10 23
M  V30 24 1 12 24
M  V30 25 1 13 25
M  V30 END BOND
M  V30 END CTAB
M  END
