
     RDKit          3D

  0  0  0  0  0  0  0  0  0  0999 V3000
M  V30 BEGIN CTAB
M  V30 COUNTS 30 30 0 0 0
M  V30 BEGIN ATOM
M  V30 1 N -2.81593 1.47324 -1.26171 0
M  V30 2 C -2.72209 0.382951 -0.325835 0
M  V30 3 C -2.31575 0.867345 1.07102 0
M  V30 4 C -0.83315 1.09068 0.894819 0
M  V30 5 N -0.426021 0.138668 -0.0427364 0
M  V30 6 C -1.53444 -0.524212 -0.65293 0
M  V30 7 C -1.69891 -1.86843 0.0561882 0
M  V30 8 C 0.782908 -0.542608 0.071368 0
M  V30 9 C 2.03325 0.260814 -0.111758 0
M  V30 10 S 3.49086 -0.744504 0.0633199 0
M  V30 11 O 3.4754 -1.27634 1.48259 0
M  V30 12 O 3.5154 -1.89377 -0.88553 0
M  V30 13 N 4.84662 0.309772 -0.172466 0
M  V30 14 H -1.87474 1.86005 -1.50786 0
M  V30 15 H -3.34498 2.24508 -0.796814 0
M  V30 16 H -3.64464 -0.190662 -0.309479 0
M  V30 17 H -2.84285 1.81873 1.32002 0
M  V30 18 H -2.56662 0.0489016 1.76536 0
M  V30 19 H -0.371117 0.914633 1.89681 0
M  V30 20 H -0.721628 2.15482 0.582332 0
M  V30 21 H -1.40997 -0.645851 -1.74211 0
M  V30 22 H -1.47318 -1.65337 1.13668 0
M  V30 23 H -0.939651 -2.55379 -0.319393 0
M  V30 24 H -2.74189 -2.19163 -0.0809057 0
M  V30 25 H 0.807801 -1.40791 -0.629184 0
M  V30 26 H 0.844418 -1.00378 1.10259 0
M  V30 27 H 2.0509 0.629675 -1.17902 0
M  V30 28 H 2.14651 1.10884 0.549107 0
M  V30 29 H 5.711 -0.0621764 0.279472 0
M  V30 30 H 4.57249 1.25484 0.195338 0
M  V30 END ATOM
M  V30 BEGIN BOND
M  V30 1 1 1 2
M  V30 2 1 2 3
M  V30 3 1 3 4
M  V30 4 1 4 5
M  V30 5 1 5 6
M  V30 6 1 6 7
M  V30 7 1 5 8
M  V30 8 1 8 9
M  V30 9 1 9 10
M  V30 10 2 10 11
M  V30 11 2 10 12
M  V30 12 1 10 13
M  V30 13 1 6 2
M  V30 14 1 1 14
M  V30 15 1 1 15
M  V30 16 1 2 16
M  V30 17 1 3 17
M  V30 18 1 3 18
M  V30 19 1 4 19
M  V30 20 1 4 20
M  V30 21 1 6 21
M  V30 22 1 7 22
M  V30 23 1 7 23
M  V30 24 1 7 24
M  V30 25 1 8 25
M  V30 26 1 8 26
M  V30 27 1 9 27
M  V30 28 1 9 28
M  V30 29 1 13 29
M  V30 30 1 13 30
M  V30 END BOND
M  V30 END CTAB
M  END
