
     RDKit          3D

  0  0  0  0  0  0  0  0  0  0999 V3000
M  V30 BEGIN CTAB
M  V30 COUNTS 44 45 0 0 0
M  V30 BEGIN ATOM
M  V30 1 N -2.61963 -1.87182 -0.769462 0
M  V30 2 C -3.23968 -0.73081 -0.119532 0
M  V30 3 C -2.74109 0.542341 -0.738796 0
M  V30 4 C -3.06072 0.603849 -2.20467 0
M  V30 5 C -3.33867 1.69296 0.0356055 0
M  V30 6 C -2.40563 1.81832 1.19514 0
M  V30 7 N -1.16702 1.18432 0.820094 0
M  V30 8 C -1.27039 0.786433 -0.548707 0
M  V30 9 C -0.00573087 0.961777 1.61043 0
M  V30 10 O 0.027311 1.34198 2.8201 0
M  V30 11 C 1.19016 0.303968 1.10591 0
M  V30 12 C 2.19384 1.02694 0.513813 0
M  V30 13 C 3.35607 0.449676 0.0144356 0
M  V30 14 C 3.49387 -0.918899 0.126516 0
M  V30 15 C 2.48517 -1.66187 0.723727 0
M  V30 16 C 1.34592 -1.07781 1.21094 0
M  V30 17 C 0.264151 -1.89615 1.86237 0
M  V30 18 N 2.65683 -3.0663 0.826562 0 CHG=1
M  V30 19 O 1.68761 -3.82587 0.771223 0
M  V30 20 O 3.93696 -3.60639 0.985756 0 CHG=-1
M  V30 21 S 4.62964 1.35768 -0.735713 0
M  V30 22 O 5.97251 0.713169 -0.529537 0
M  V30 23 O 4.69901 2.75921 -0.19254 0
M  V30 24 N 4.39466 1.49849 -2.44771 0
M  V30 25 H -3.29488 -2.34066 -1.42409 0
M  V30 26 H -2.39959 -2.58523 -0.0399577 0
M  V30 27 H -3.1409 -0.763553 0.964747 0
M  V30 28 H -4.33646 -0.780407 -0.339195 0
M  V30 29 H -3.97358 1.19869 -2.42112 0
M  V30 30 H -2.18128 0.967055 -2.78186 0
M  V30 31 H -3.27021 -0.431212 -2.54544 0
M  V30 32 H -4.37974 1.42362 0.318813 0
M  V30 33 H -3.38921 2.62518 -0.580762 0
M  V30 34 H -2.26835 2.90495 1.40586 0
M  V30 35 H -2.83483 1.34344 2.11156 0
M  V30 36 H -0.682559 -0.118476 -0.800759 0
M  V30 37 H -0.990685 1.63161 -1.22375 0
M  V30 38 H 2.13806 2.11794 0.397712 0
M  V30 39 H 4.3853 -1.43518 -0.24679 0
M  V30 40 H -0.320205 -2.48643 1.14226 0
M  V30 41 H 0.708341 -2.54738 2.6064 0
M  V30 42 H -0.453514 -1.23082 2.39418 0
M  V30 43 H 4.84629 0.642911 -2.88579 0
M  V30 44 H 3.35283 1.47873 -2.64242 0
M  V30 END ATOM
M  V30 BEGIN BOND
M  V30 1 1 1 2
M  V30 2 1 2 3
M  V30 3 1 3 4
M  V30 4 1 3 5
M  V30 5 1 5 6
M  V30 6 1 6 7
M  V30 7 1 7 8
M  V30 8 1 7 9
M  V30 9 2 9 10
M  V30 10 1 9 11
M  V30 11 2 11 12
M  V30 12 1 12 13
M  V30 13 2 13 14
M  V30 14 1 14 15
M  V30 15 2 15 16
M  V30 16 1 16 17
M  V30 17 1 15 18
M  V30 18 2 18 19
M  V30 19 1 18 20
M  V30 20 1 13 21
M  V30 21 2 21 22
M  V30 22 2 21 23
M  V30 23 1 21 24
M  V30 24 1 8 3
M  V30 25 1 16 11
M  V30 26 1 1 25
M  V30 27 1 1 26
M  V30 28 1 2 27
M  V30 29 1 2 28
M  V30 30 1 4 29
M  V30 31 1 4 30
M  V30 32 1 4 31
M  V30 33 1 5 32
M  V30 34 1 5 33
M  V30 35 1 6 34
M  V30 36 1 6 35
M  V30 37 1 8 36
M  V30 38 1 8 37
M  V30 39 1 12 38
M  V30 40 1 14 39
M  V30 41 1 17 40
M  V30 42 1 17 41
M  V30 43 1 17 42
M  V30 44 1 24 43
M  V30 45 1 24 44
M  V30 END BOND
M  V30 END CTAB
M  END
