
     RDKit          3D

  0  0  0  0  0  0  0  0  0  0999 V3000
M  V30 BEGIN CTAB
M  V30 COUNTS 30 31 0 0 0
M  V30 BEGIN ATOM
M  V30 1 N 5.25089 -0.142997 0.328865 0
M  V30 2 C 4.21368 -1.01367 -0.202699 0
M  V30 3 C 2.94282 -0.271973 -0.449203 0
M  V30 4 O 2.56901 0.333616 -1.54425 0
M  V30 5 N 1.41293 0.856771 -1.36862 0
M  V30 6 C 0.949583 0.623493 -0.129172 0
M  V30 7 N 1.94502 -0.106601 0.457603 0
M  V30 8 C -0.341818 1.0548 0.471686 0
M  V30 9 C -1.49418 0.309233 -0.0342211 0
M  V30 10 C -1.7159 0.340674 -1.40372 0
M  V30 11 C -2.76509 -0.319451 -2.01066 0
M  V30 12 C -3.62169 -1.0347 -1.22552 0
M  V30 13 C -3.41669 -1.07613 0.131287 0
M  V30 14 C -2.3686 -0.416848 0.738966 0
M  V30 15 C -2.1687 -0.470726 2.18852 0
M  V30 16 F -3.18342 -1.27356 2.74072 0
M  V30 17 F -2.37244 0.763471 2.81119 0
M  V30 18 F -0.99488 -1.05753 2.58308 0
M  V30 19 N -0.533723 2.46758 0.0929923 0
M  V30 20 H 5.89393 -0.72831 0.938325 0
M  V30 21 H 4.84227 0.569128 0.972867 0
M  V30 22 H 4.54209 -1.45438 -1.18527 0
M  V30 23 H 4.00635 -1.83838 0.509599 0
M  V30 24 H -0.253826 1.08731 1.57494 0
M  V30 25 H -1.06761 0.894004 -2.07334 0
M  V30 26 H -2.92858 -0.287452 -3.08351 0
M  V30 27 H -4.47301 -1.58178 -1.63564 0
M  V30 28 H -4.11438 -1.65423 0.738176 0
M  V30 29 H -1.14059 2.54144 -0.760309 0
M  V30 30 H 0.386553 2.8872 -0.172682 0
M  V30 END ATOM
M  V30 BEGIN BOND
M  V30 1 1 1 2
M  V30 2 1 2 3
M  V30 3 1 3 4
M  V30 4 1 4 5
M  V30 5 2 5 6
M  V30 6 1 6 7
M  V30 7 1 6 8
M  V30 8 1 8 9
M  V30 9 2 9 10
M  V30 10 1 10 11
M  V30 11 2 11 12
M  V30 12 1 12 13
M  V30 13 2 13 14
M  V30 14 1 14 15
M  V30 15 1 15 16
M  V30 16 1 15 17
M  V30 17 1 15 18
M  V30 18 1 8 19
M  V30 19 2 7 3
M  V30 20 1 14 9
M  V30 21 1 1 20
M  V30 22 1 1 21
M  V30 23 1 2 22
M  V30 24 1 2 23
M  V30 25 1 8 24
M  V30 26 1 10 25
M  V30 27 1 11 26
M  V30 28 1 12 27
M  V30 29 1 13 28
M  V30 30 1 19 29
M  V30 31 1 19 30
M  V30 END BOND
M  V30 END CTAB
M  END
