
     RDKit          3D

  0  0  0  0  0  0  0  0  0  0999 V3000
M  V30 BEGIN CTAB
M  V30 COUNTS 43 44 0 0 0
M  V30 BEGIN ATOM
M  V30 1 N -4.72371 2.99673 0.28075 0
M  V30 2 C -4.63807 1.90037 -0.076262 0
M  V30 3 C -4.5509 0.514964 -0.528357 0
M  V30 4 C -5.45944 -0.476502 -0.233928 0
M  V30 5 N -6.61851 -0.29197 0.555687 0
M  V30 6 N -4.98178 -1.56948 -0.850755 0
M  V30 7 N -3.86152 -1.32081 -1.49259 0
M  V30 8 C -3.56548 -0.0347364 -1.31288 0
M  V30 9 C -2.41482 0.695768 -1.83737 0
M  V30 10 C -1.32903 0.981955 -0.843772 0
M  V30 11 C -0.731338 -0.268381 -0.236929 0
M  V30 12 N 0.291917 0.202593 0.687958 0
M  V30 13 C 1.67195 0.0615204 0.520372 0
M  V30 14 C 2.41242 1.23338 0.293854 0
M  V30 15 C 3.77149 1.21115 0.085255 0
M  V30 16 C 4.43026 -0.00137953 0.098687 0
M  V30 17 C 3.70979 -1.14551 0.320129 0
M  V30 18 C 2.32316 -1.14708 0.535846 0
M  V30 19 N 1.67102 -2.39351 0.763595 0 CHG=1
M  V30 20 O 2.1355 -3.43973 0.274521 0
M  V30 21 O 0.536613 -2.45449 1.51582 0 CHG=-1
M  V30 22 S 6.17748 -0.076544 -0.169235 0
M  V30 23 O 6.83369 1.22706 0.202911 0
M  V30 24 O 6.70705 -1.21948 0.610392 0
M  V30 25 N 6.38879 -0.266535 -1.87654 0
M  V30 26 C -0.222491 0.895361 1.88001 0
M  V30 27 H -6.61026 0.144491 1.5038 0
M  V30 28 H -7.58226 -0.593056 0.222206 0
M  V30 29 H -5.50422 -2.49258 -0.782235 0
M  V30 30 H -2.04494 0.176273 -2.74244 0
M  V30 31 H -2.76546 1.69962 -2.20868 0
M  V30 32 H -1.66894 1.66358 -0.0403031 0
M  V30 33 H -0.515605 1.50663 -1.38472 0
M  V30 34 H -1.48532 -0.805346 0.393237 0
M  V30 35 H -0.323849 -0.876749 -1.05753 0
M  V30 36 H 1.92633 2.19917 0.27732 0
M  V30 37 H 4.37535 2.08416 -0.0914113 0
M  V30 38 H 4.20771 -2.10861 0.33485 0
M  V30 39 H 5.62373 -0.905645 -2.19646 0
M  V30 40 H 7.29056 -0.759017 -2.04784 0
M  V30 41 H 0.385109 0.584676 2.76597 0
M  V30 42 H 0.00676889 1.97189 1.70994 0
M  V30 43 H -1.27873 0.695799 2.05964 0
M  V30 END ATOM
M  V30 BEGIN BOND
M  V30 1 3 1 2
M  V30 2 1 2 3
M  V30 3 2 3 4
M  V30 4 1 4 5
M  V30 5 1 4 6
M  V30 6 1 6 7
M  V30 7 2 7 8
M  V30 8 1 8 9
M  V30 9 1 9 10
M  V30 10 1 10 11
M  V30 11 1 11 12
M  V30 12 1 12 13
M  V30 13 2 13 14
M  V30 14 1 14 15
M  V30 15 2 15 16
M  V30 16 1 16 17
M  V30 17 2 17 18
M  V30 18 1 18 19
M  V30 19 2 19 20
M  V30 20 1 19 21
M  V30 21 1 16 22
M  V30 22 2 22 23
M  V30 23 2 22 24
M  V30 24 1 22 25
M  V30 25 1 12 26
M  V30 26 1 8 3
M  V30 27 1 18 13
M  V30 28 1 5 27
M  V30 29 1 5 28
M  V30 30 1 6 29
M  V30 31 1 9 30
M  V30 32 1 9 31
M  V30 33 1 10 32
M  V30 34 1 10 33
M  V30 35 1 11 34
M  V30 36 1 11 35
M  V30 37 1 14 36
M  V30 38 1 15 37
M  V30 39 1 17 38
M  V30 40 1 25 39
M  V30 41 1 25 40
M  V30 42 1 26 41
M  V30 43 1 26 42
M  V30 44 1 26 43
M  V30 END BOND
M  V30 END CTAB
M  END
