
     RDKit          3D

  0  0  0  0  0  0  0  0  0  0999 V3000
M  V30 BEGIN CTAB
M  V30 COUNTS 30 30 0 0 0
M  V30 BEGIN ATOM
M  V30 1 N 4.60615 0.344394 0.0475335 0
M  V30 2 N 3.25006 0.546765 -0.065047 0
M  V30 3 C 2.36075 -0.378485 0.00339528 0
M  V30 4 N 0.979323 -0.146594 -0.114749 0
M  V30 5 C 0.377255 0.176303 -1.38085 0
M  V30 6 C -1.09239 -0.150916 -1.41457 0
M  V30 7 C -1.85565 0.367228 -0.242043 0
M  V30 8 C -1.0109 0.761837 0.92603 0
M  V30 9 C 0.138522 -0.231725 1.05206 0
M  V30 10 C -2.75173 1.51763 -0.711592 0
M  V30 11 C -2.82378 -0.714169 0.253599 0
M  V30 12 N 2.80629 -1.70815 0.210234 0
M  V30 13 H 5.03757 0.415101 0.994634 0
M  V30 14 H 5.23611 0.124828 -0.747097 0
M  V30 15 H 0.843669 -0.407074 -2.22681 0
M  V30 16 H 0.572032 1.251 -1.66136 0
M  V30 17 H -1.48959 0.286972 -2.37184 0
M  V30 18 H -1.16377 -1.27385 -1.50761 0
M  V30 19 H -1.57553 0.680536 1.88931 0
M  V30 20 H -0.5802 1.76378 0.83254 0
M  V30 21 H 0.730076 -0.0400387 1.9612 0
M  V30 22 H -0.322842 -1.2532 1.04677 0
M  V30 23 H -2.19333 2.44975 -0.848152 0
M  V30 24 H -3.1935 1.17754 -1.66978 0
M  V30 25 H -3.61291 1.63426 -0.00215384 0
M  V30 26 H -3.60304 -0.870007 -0.510018 0
M  V30 27 H -3.3344 -0.278431 1.15028 0
M  V30 28 H -2.27933 -1.61891 0.546373 0
M  V30 29 H 3.1856 -2.29122 -0.555458 0
M  V30 30 H 2.75948 -2.13514 1.16079 0
M  V30 END ATOM
M  V30 BEGIN BOND
M  V30 1 1 1 2
M  V30 2 2 2 3 CFG=2
M  V30 3 1 3 4
M  V30 4 1 4 5
M  V30 5 1 5 6
M  V30 6 1 6 7
M  V30 7 1 7 8
M  V30 8 1 8 9
M  V30 9 1 7 10
M  V30 10 1 7 11
M  V30 11 1 3 12
M  V30 12 1 9 4
M  V30 13 1 1 13
M  V30 14 1 1 14
M  V30 15 1 5 15
M  V30 16 1 5 16
M  V30 17 1 6 17
M  V30 18 1 6 18
M  V30 19 1 8 19
M  V30 20 1 8 20
M  V30 21 1 9 21
M  V30 22 1 9 22
M  V30 23 1 10 23
M  V30 24 1 10 24
M  V30 25 1 10 25
M  V30 26 1 11 26
M  V30 27 1 11 27
M  V30 28 1 11 28
M  V30 29 1 12 29
M  V30 30 1 12 30
M  V30 END BOND
M  V30 END CTAB
M  END
