
     RDKit          3D

  0  0  0  0  0  0  0  0  0  0999 V3000
M  V30 BEGIN CTAB
M  V30 COUNTS 32 33 0 0 0
M  V30 BEGIN ATOM
M  V30 1 N -1.9869 -0.119075 -2.27389 0
M  V30 2 C -2.56238 -0.195175 -0.98201 0
M  V30 3 C -1.82275 -0.47964 0.143565 0
M  V30 4 C -0.384693 -0.725375 0.0861861 0
M  V30 5 C 0.428734 0.540279 -0.0899091 0
M  V30 6 C 1.87854 0.223009 -0.141356 0
M  V30 7 C 2.56851 -0.0797369 1.00598 0
M  V30 8 N 1.90981 -0.0909779 2.25631 0
M  V30 9 C 3.93393 -0.37388 0.904776 0
M  V30 10 C 4.58995 -0.367254 -0.293347 0
M  V30 11 Cl 6.28956 -0.734499 -0.412875 0
M  V30 12 C 3.90913 -0.0659169 -1.44525 0
M  V30 13 C 2.5804 0.220604 -1.34963 0
M  V30 14 C -2.47781 -0.529603 1.3522 0
M  V30 15 C -3.84613 -0.300214 1.43808 0
M  V30 16 C -4.58801 -0.0151558 0.311352 0
M  V30 17 Cl -6.32787 0.278799 0.407411 0
M  V30 18 C -3.93766 0.0353749 -0.894459 0
M  V30 19 H -1.85542 0.852484 -2.67322 0
M  V30 20 H -1.72332 -0.974658 -2.76792 0
M  V30 21 H -0.0526308 -1.21665 1.01 0
M  V30 22 H -0.194321 -1.42224 -0.754762 0
M  V30 23 H 0.191612 1.28397 0.683725 0
M  V30 24 H 0.166082 0.986448 -1.08285 0
M  V30 25 H 1.77905 -1.00149 2.73987 0
M  V30 26 H 1.54925 0.76766 2.71736 0
M  V30 27 H 4.46194 -0.613104 1.83596 0
M  V30 28 H 4.36391 -0.0429799 -2.41648 0
M  V30 29 H 1.97876 0.468769 -2.22397 0
M  V30 30 H -1.96938 -0.746803 2.2849 0
M  V30 31 H -4.32313 -0.349273 2.40455 0
M  V30 32 H -4.52678 0.260484 -1.7803 0
M  V30 END ATOM
M  V30 BEGIN BOND
M  V30 1 1 1 2
M  V30 2 2 2 3
M  V30 3 1 3 4
M  V30 4 1 4 5
M  V30 5 1 5 6
M  V30 6 2 6 7
M  V30 7 1 7 8
M  V30 8 1 7 9
M  V30 9 2 9 10
M  V30 10 1 10 11
M  V30 11 1 10 12
M  V30 12 2 12 13
M  V30 13 1 3 14
M  V30 14 2 14 15
M  V30 15 1 15 16
M  V30 16 1 16 17
M  V30 17 2 16 18
M  V30 18 1 18 2
M  V30 19 1 13 6
M  V30 20 1 1 19
M  V30 21 1 1 20
M  V30 22 1 4 21
M  V30 23 1 4 22
M  V30 24 1 5 23
M  V30 25 1 5 24
M  V30 26 1 8 25
M  V30 27 1 8 26
M  V30 28 1 9 27
M  V30 29 1 12 28
M  V30 30 1 13 29
M  V30 31 1 14 30
M  V30 32 1 15 31
M  V30 33 1 18 32
M  V30 END BOND
M  V30 END CTAB
M  END
