
     RDKit          3D

  0  0  0  0  0  0  0  0  0  0999 V3000
M  V30 BEGIN CTAB
M  V30 COUNTS 37 39 0 0 0
M  V30 BEGIN ATOM
M  V30 1 N 2.42753 1.94615 -1.52997 0
M  V30 2 C 2.84637 0.719162 -0.937437 0
M  V30 3 N 4.1289 0.395929 -1.09343 0
M  V30 4 C 4.6896 -0.70984 -0.577724 0
M  V30 5 C 3.87369 -1.54639 0.150173 0
M  V30 6 C 2.52372 -1.23425 0.328726 0
M  V30 7 C 1.99482 -0.110184 -0.202371 0
M  V30 8 C 0.612116 0.258221 -0.243407 0 CFG=2
M  V30 9 C 0.16875 1.57136 0.388554 0
M  V30 10 C -1.01686 1.96371 -0.556287 0
M  V30 11 C -1.96098 0.845371 -0.697411 0
M  V30 12 C -1.68035 -0.423847 -0.183056 0
M  V30 13 N -0.37008 -0.587759 0.452883 0
M  V30 14 S -0.363921 -1.44617 1.88688 0
M  V30 15 O -0.546044 -2.91323 1.76791 0
M  V30 16 O 0.810888 -1.09027 2.82609 0
M  V30 17 N -1.6839 -0.923177 2.99626 0
M  V30 18 C -2.5839 -1.47736 -0.234099 0
M  V30 19 C -3.82181 -1.2591 -0.824381 0
M  V30 20 C -4.09539 -0.0121018 -1.33162 0
M  V30 21 C -3.19178 1.05703 -1.28502 0
M  V30 22 H 2.73663 2.81488 -1.00541 0
M  V30 23 H 1.87749 2.06556 -2.38056 0
M  V30 24 H 5.74331 -0.878312 -0.768203 0
M  V30 25 H 4.30953 -2.4508 0.570127 0
M  V30 26 H 1.97102 -2.00598 0.85002 0
M  V30 27 H 0.336161 0.294671 -1.32354 0
M  V30 28 H -0.297926 1.44234 1.36997 0
M  V30 29 H 0.897363 2.34352 0.458485 0
M  V30 30 H -1.44332 2.91904 -0.254629 0
M  V30 31 H -0.582601 2.12146 -1.58674 0
M  V30 32 H -1.51625 -1.49306 3.84963 0
M  V30 33 H -1.46408 0.0779577 3.26855 0
M  V30 34 H -2.25243 -2.39222 0.211548 0
M  V30 35 H -4.5322 -2.07627 -0.861668 0
M  V30 36 H -5.04733 0.195865 -1.79228 0
M  V30 37 H -3.49673 1.99811 -1.70656 0
M  V30 END ATOM
M  V30 BEGIN BOND
M  V30 1 1 1 2
M  V30 2 2 2 3
M  V30 3 1 3 4
M  V30 4 2 4 5
M  V30 5 1 5 6
M  V30 6 2 6 7
M  V30 7 1 7 8
M  V30 8 1 8 9
M  V30 9 1 9 10
M  V30 10 1 10 11
M  V30 11 2 11 12
M  V30 12 1 12 13
M  V30 13 1 13 14
M  V30 14 2 14 15
M  V30 15 2 14 16
M  V30 16 1 14 17
M  V30 17 1 12 18
M  V30 18 2 18 19
M  V30 19 1 19 20
M  V30 20 2 20 21
M  V30 21 1 7 2
M  V30 22 1 13 8
M  V30 23 1 21 11
M  V30 24 1 1 22
M  V30 25 1 1 23
M  V30 26 1 4 24
M  V30 27 1 5 25
M  V30 28 1 6 26
M  V30 29 1 8 27 CFG=3
M  V30 30 1 9 28
M  V30 31 1 9 29
M  V30 32 1 10 30
M  V30 33 1 10 31
M  V30 34 1 17 32
M  V30 35 1 17 33
M  V30 36 1 18 34
M  V30 37 1 19 35
M  V30 38 1 20 36
M  V30 39 1 21 37
M  V30 END BOND
M  V30 END CTAB
M  END
