
     RDKit          3D

  0  0  0  0  0  0  0  0  0  0999 V3000
M  V30 BEGIN CTAB
M  V30 COUNTS 64 68 0 0 0
M  V30 BEGIN ATOM
M  V30 1 N 9.03935 -2.88096 0.662739 0
M  V30 2 C 8.23494 -1.7197 0.410822 0
M  V30 3 N 8.35995 -1.07018 -0.752742 0
M  V30 4 C 7.55242 0.00668811 -1.00551 0
M  V30 5 O 7.71346 0.585794 -2.13879 0
M  V30 6 N 6.68711 0.356924 -0.0796471 0
M  V30 7 C 6.54906 -0.276823 1.11149 0
M  V30 8 C 7.35635 -1.37827 1.40311 0
M  V30 9 C 5.7335 1.4311 -0.345216 0 CFG=2
M  V30 10 O 4.71116 1.29828 0.613332 0
M  V30 11 C 3.59456 0.975569 -0.040418 0 CFG=2
M  V30 12 C 2.54621 0.153165 0.649504 0
M  V30 13 O 1.5488 0.077497 -0.384227 0
M  V30 14 P 0.114985 0.633248 0.241408 0
M  V30 15 O -0.438609 1.83656 -0.917737 0
M  V30 16 O 0.432865 1.51821 1.4849 0
M  V30 17 O -1.12454 -0.316757 0.592724 0
M  V30 18 C -2.28255 -0.0701279 -0.157097 0 CFG=2
M  V30 19 C -3.00155 1.19021 0.380405 0 CFG=1
M  V30 20 C -4.00817 1.63465 -0.624114 0
M  V30 21 O -3.47222 1.82975 -1.88674 0
M  V30 22 O -3.47117 0.795298 1.59684 0
M  V30 23 C -3.88274 -0.555396 1.51685 0 CFG=2
M  V30 24 C -3.3203 -1.08318 0.207269 0 CFG=2
M  V30 25 O -2.81398 -2.3499 0.393387 0
M  V30 26 N -5.34968 -0.553134 1.4786 0
M  V30 27 C -6.07064 0.390841 2.09458 0
M  V30 28 N -7.34519 0.283913 1.66347 0
M  V30 29 C -7.38717 -0.718444 0.802488 0
M  V30 30 C -6.14273 -1.25947 0.695539 0
M  V30 31 N -5.96049 -2.26367 -0.142201 0
M  V30 32 C -6.97624 -2.73867 -0.868997 0
M  V30 33 N -8.24749 -2.23242 -0.797167 0
M  V30 34 C -8.45136 -1.2187 0.0310322 0
M  V30 35 N -9.68732 -0.500206 0.0362857 0
M  V30 36 C 3.81662 0.62218 -1.45503 0 CFG=1
M  V30 37 O 2.85374 1.14175 -2.32625 0
M  V30 38 C 5.11562 1.43845 -1.69016 0 CFG=1
M  V30 39 O 4.65727 2.75604 -1.92954 0
M  V30 40 H 8.60419 -3.83273 0.630021 0
M  V30 41 H 10.0336 -2.69952 0.852054 0
M  V30 42 H 5.83286 0.0539887 1.84964 0
M  V30 43 H 7.31065 -1.87936 2.3505 0
M  V30 44 H 6.31196 2.35641 -0.18032 0
M  V30 45 H 2.98437 2.01262 -0.145981 0
M  V30 46 H 2.94809 -0.910059 0.697131 0
M  V30 47 H 2.17457 0.551353 1.54882 0
M  V30 48 H -0.285239 1.39208 -1.81307 0
M  V30 49 H -2.0762 0.123434 -1.20803 0
M  V30 50 H -2.25177 2.00652 0.552012 0
M  V30 51 H -4.44686 2.64302 -0.296097 0
M  V30 52 H -4.8466 0.970362 -0.735884 0
M  V30 53 H -3.28324 2.76133 -2.07328 0
M  V30 54 H -3.52868 -1.09137 2.36971 0
M  V30 55 H -4.057 -1.02783 -0.636611 0
M  V30 56 H -2.42299 -2.74902 -0.42139 0
M  V30 57 H -5.7423 1.14139 2.85282 0
M  V30 58 H -6.82893 -3.55298 -1.54931 0
M  V30 59 H -9.60443 0.485462 -0.388478 0
M  V30 60 H -10.5671 -0.810156 0.38404 0
M  V30 61 H 3.96406 -0.447547 -1.64166 0
M  V30 62 H 2.38326 0.446745 -2.85445 0
M  V30 63 H 5.64397 1.03874 -2.54024 0
M  V30 64 H 4.56585 3.24703 -1.07653 0
M  V30 END ATOM
M  V30 BEGIN BOND
M  V30 1 1 1 2
M  V30 2 2 2 3
M  V30 3 1 3 4
M  V30 4 2 4 5
M  V30 5 1 4 6
M  V30 6 1 6 7
M  V30 7 2 7 8
M  V30 8 1 6 9
M  V30 9 1 9 10
M  V30 10 1 10 11
M  V30 11 1 11 12
M  V30 12 1 12 13
M  V30 13 1 13 14
M  V30 14 1 14 15
M  V30 15 2 14 16
M  V30 16 1 14 17
M  V30 17 1 17 18
M  V30 18 1 18 19
M  V30 19 1 19 20
M  V30 20 1 20 21
M  V30 21 1 19 22
M  V30 22 1 22 23
M  V30 23 1 23 24
M  V30 24 1 24 25
M  V30 25 1 23 26
M  V30 26 1 26 27
M  V30 27 2 27 28
M  V30 28 1 28 29
M  V30 29 2 29 30
M  V30 30 1 30 31
M  V30 31 2 31 32
M  V30 32 1 32 33
M  V30 33 2 33 34
M  V30 34 1 34 35
M  V30 35 1 11 36
M  V30 36 1 36 37
M  V30 37 1 36 38
M  V30 38 1 38 39
M  V30 39 1 8 2
M  V30 40 1 38 9
M  V30 41 1 24 18
M  V30 42 1 30 26
M  V30 43 1 34 29
M  V30 44 1 1 40
M  V30 45 1 1 41
M  V30 46 1 7 42
M  V30 47 1 8 43
M  V30 48 1 9 44 CFG=1
M  V30 49 1 11 45 CFG=3
M  V30 50 1 12 46
M  V30 51 1 12 47
M  V30 52 1 15 48
M  V30 53 1 18 49 CFG=3
M  V30 54 1 19 50 CFG=1
M  V30 55 1 20 51
M  V30 56 1 20 52
M  V30 57 1 21 53
M  V30 58 1 23 54 CFG=1
M  V30 59 1 24 55 CFG=3
M  V30 60 1 25 56
M  V30 61 1 27 57
M  V30 62 1 32 58
M  V30 63 1 35 59
M  V30 64 1 35 60
M  V30 65 1 36 61 CFG=1
M  V30 66 1 37 62
M  V30 67 1 38 63 CFG=3
M  V30 68 1 39 64
M  V30 END BOND
M  V30 END CTAB
M  END
