
     RDKit          3D

  0  0  0  0  0  0  0  0  0  0999 V3000
M  V30 BEGIN CTAB
M  V30 COUNTS 32 31 0 0 0
M  V30 BEGIN ATOM
M  V30 1 N -5.82082 0.338017 1.0396 0
M  V30 2 C -4.95879 0.389456 -0.136268 0
M  V30 3 C -3.50424 0.529194 0.263152 0
M  V30 4 C -2.68712 0.574467 -1.00964 0
M  V30 5 N -1.27891 0.707469 -0.785691 0
M  V30 6 C -0.489138 -0.205655 -0.0752539 0
M  V30 7 O -0.970575 -1.25123 0.439453 0
M  V30 8 C 0.965554 0.0456699 0.0897181 0
M  V30 9 O 1.37583 1.08323 -0.435498 0
M  V30 10 N 1.73612 -0.867031 0.795611 0
M  V30 11 C 3.08684 -0.999264 1.14167 0
M  V30 12 C 4.06072 -1.25099 0.0699531 0
M  V30 13 C 4.28349 -0.238449 -0.965013 0
M  V30 14 N 4.75746 1.02848 -0.438877 0
M  V30 15 H -6.05261 1.30131 1.3746 0
M  V30 16 H -6.68184 -0.203953 0.755909 0
M  V30 17 H -5.05008 -0.552783 -0.716225 0
M  V30 18 H -5.21013 1.26884 -0.763584 0
M  V30 19 H -3.35682 1.51635 0.76151 0
M  V30 20 H -3.19022 -0.311153 0.892009 0
M  V30 21 H -2.84171 -0.419312 -1.51379 0
M  V30 22 H -3.06504 1.38262 -1.66405 0
M  V30 23 H -0.800634 1.5655 -1.19074 0
M  V30 24 H 1.13278 -1.71571 1.18817 0
M  V30 25 H 3.44427 -0.0409937 1.70432 0
M  V30 26 H 3.22418 -1.78006 1.98006 0
M  V30 27 H 3.83968 -2.26501 -0.438957 0
M  V30 28 H 5.05913 -1.53423 0.582894 0
M  V30 29 H 3.45431 -0.072933 -1.65045 0
M  V30 30 H 5.09668 -0.648218 -1.67713 0
M  V30 31 H 5.44778 0.919165 0.317934 0
M  V30 32 H 4.99385 1.7072 -1.16851 0
M  V30 END ATOM
M  V30 BEGIN BOND
M  V30 1 1 1 2
M  V30 2 1 2 3
M  V30 3 1 3 4
M  V30 4 1 4 5
M  V30 5 1 5 6
M  V30 6 2 6 7
M  V30 7 1 6 8
M  V30 8 2 8 9
M  V30 9 1 8 10
M  V30 10 1 10 11
M  V30 11 1 11 12
M  V30 12 1 12 13
M  V30 13 1 13 14
M  V30 14 1 1 15
M  V30 15 1 1 16
M  V30 16 1 2 17
M  V30 17 1 2 18
M  V30 18 1 3 19
M  V30 19 1 3 20
M  V30 20 1 4 21
M  V30 21 1 4 22
M  V30 22 1 5 23
M  V30 23 1 10 24
M  V30 24 1 11 25
M  V30 25 1 11 26
M  V30 26 1 12 27
M  V30 27 1 12 28
M  V30 28 1 13 29
M  V30 29 1 13 30
M  V30 30 1 14 31
M  V30 31 1 14 32
M  V30 END BOND
M  V30 END CTAB
M  END
