
     RDKit          3D

  0  0  0  0  0  0  0  0  0  0999 V3000
M  V30 BEGIN CTAB
M  V30 COUNTS 42 44 0 0 0
M  V30 BEGIN ATOM
M  V30 1 O -1.2125 1.16818 -1.10518 0
M  V30 2 C -0.92129 0.395064 -0.120856 0
M  V30 3 N -1.99964 -0.0522817 0.639997 0
M  V30 4 C -3.35363 0.266344 0.380079 0
M  V30 5 C -4.21897 0.288458 1.4837 0
M  V30 6 C -5.55134 0.561205 1.30207 0
M  V30 7 C -6.07727 0.817783 0.0569132 0
M  V30 8 C -5.21736 0.7925 -1.0175 0
M  V30 9 C -3.85767 0.517916 -0.864894 0
M  V30 10 O -5.75984 1.05554 -2.28954 0
M  V30 11 C -7.16556 0.790485 -2.41325 0
M  V30 12 C -7.84842 1.61873 -1.3452 0
M  V30 13 O -7.44931 1.09427 -0.0921069 0
M  V30 14 N 0.422042 0.0568452 0.123126 0
M  V30 15 C 0.900475 -0.759767 1.13468 0
M  V30 16 O 0.260604 -1.36009 2.02998 0
M  V30 17 C 2.39768 -0.998215 1.22243 0
M  V30 18 S 3.19985 -0.0908489 -0.101494 0
M  V30 19 C 4.96439 -0.384943 0.0176485 0
M  V30 20 N 5.72862 0.412812 0.757455 0
M  V30 21 C 7.06292 0.257788 0.897615 0
M  V30 22 N 7.81292 1.15501 1.70876 0
M  V30 23 C 7.6567 -0.792388 0.230027 0
M  V30 24 C 6.89066 -1.63464 -0.54321 0
M  V30 25 N 5.55057 -1.40964 -0.632438 0
M  V30 26 N 7.48085 -2.72577 -1.24184 0
M  V30 27 H -1.83413 -0.677552 1.47398 0
M  V30 28 H -3.79983 0.0845588 2.47568 0
M  V30 29 H -6.23006 0.578894 2.1654 0
M  V30 30 H -3.27974 0.505922 -1.77729 0
M  V30 31 H -7.3372 -0.286016 -2.11851 0
M  V30 32 H -7.53684 0.985125 -3.42318 0
M  V30 33 H -7.52577 2.67439 -1.48735 0
M  V30 34 H -8.96144 1.5393 -1.46616 0
M  V30 35 H 1.12106 0.492369 -0.56321 0
M  V30 36 H 2.62281 -2.07372 1.17092 0
M  V30 37 H 2.78851 -0.627362 2.18265 0
M  V30 38 H 7.40968 1.57982 2.57173 0
M  V30 39 H 8.79771 1.39008 1.42347 0
M  V30 40 H 8.72199 -0.939054 0.324899 0
M  V30 41 H 7.05521 -2.9987 -2.16983 0
M  V30 42 H 8.29257 -3.26838 -0.908269 0
M  V30 END ATOM
M  V30 BEGIN BOND
M  V30 1 2 1 2
M  V30 2 1 2 3
M  V30 3 1 3 4
M  V30 4 2 4 5
M  V30 5 1 5 6
M  V30 6 2 6 7
M  V30 7 1 7 8
M  V30 8 2 8 9
M  V30 9 1 8 10
M  V30 10 1 10 11
M  V30 11 1 11 12
M  V30 12 1 12 13
M  V30 13 1 2 14
M  V30 14 1 14 15
M  V30 15 2 15 16
M  V30 16 1 15 17
M  V30 17 1 17 18
M  V30 18 1 18 19
M  V30 19 2 19 20
M  V30 20 1 20 21
M  V30 21 1 21 22
M  V30 22 2 21 23
M  V30 23 1 23 24
M  V30 24 2 24 25
M  V30 25 1 24 26
M  V30 26 1 9 4
M  V30 27 1 25 19
M  V30 28 1 13 7
M  V30 29 1 3 27
M  V30 30 1 5 28
M  V30 31 1 6 29
M  V30 32 1 9 30
M  V30 33 1 11 31
M  V30 34 1 11 32
M  V30 35 1 12 33
M  V30 36 1 12 34
M  V30 37 1 14 35
M  V30 38 1 17 36
M  V30 39 1 17 37
M  V30 40 1 22 38
M  V30 41 1 22 39
M  V30 42 1 23 40
M  V30 43 1 26 41
M  V30 44 1 26 42
M  V30 END BOND
M  V30 END CTAB
M  END
