
     RDKit          3D

  0  0  0  0  0  0  0  0  0  0999 V3000
M  V30 BEGIN CTAB
M  V30 COUNTS 17 17 0 0 0
M  V30 BEGIN ATOM
M  V30 1 N 2.72463 0.36734 -0.72264 0
M  V30 2 C 1.30608 0.372519 -0.488523 0
M  V30 3 N 0.686592 1.54151 -0.248839 0
M  V30 4 C -0.660787 1.56542 -0.02424 0
M  V30 5 N -1.34175 2.78696 0.231759 0
M  V30 6 N -1.32356 0.393736 -0.0531768 0
M  V30 7 C -0.747472 -0.795435 -0.288094 0
M  V30 8 C 0.604734 -0.8082 -0.512175 0
M  V30 9 C -1.4901 -2.0446 -0.313012 0
M  V30 10 O -0.826085 -3.23109 -0.562082 0
M  V30 11 O -2.72834 -2.00526 -0.104565 0
M  V30 12 H 3.36893 1.0582 -0.284941 0
M  V30 13 H 3.12846 -0.357806 -1.35723 0
M  V30 14 H -1.06096 3.42853 0.991398 0
M  V30 15 H -2.15102 3.03054 -0.376723 0
M  V30 16 H 1.15398 -1.73121 -0.711316 0
M  V30 17 H -0.64333 -3.57116 -1.50862 0
M  V30 END ATOM
M  V30 BEGIN BOND
M  V30 1 1 1 2
M  V30 2 2 2 3
M  V30 3 1 3 4
M  V30 4 1 4 5
M  V30 5 2 4 6
M  V30 6 1 6 7
M  V30 7 2 7 8
M  V30 8 1 7 9
M  V30 9 1 9 10
M  V30 10 2 9 11
M  V30 11 1 8 2
M  V30 12 1 1 12
M  V30 13 1 1 13
M  V30 14 1 5 14
M  V30 15 1 5 15
M  V30 16 1 8 16
M  V30 17 1 10 17
M  V30 END BOND
M  V30 END CTAB
M  END
