
     RDKit          3D

  0  0  0  0  0  0  0  0  0  0999 V3000
M  V30 BEGIN CTAB
M  V30 COUNTS 55 58 0 0 0
M  V30 BEGIN ATOM
M  V30 1 N -6.27552 -2.46716 2.46855 0
M  V30 2 C -5.60915 -1.55702 1.62655 0
M  V30 3 N -4.26243 -1.45117 1.52744 0
M  V30 4 C -3.68349 -0.559481 0.702612 0
M  V30 5 N -4.40689 0.254284 -0.0489496 0
M  V30 6 C -5.7673 0.172743 0.027709 0
M  V30 7 N -6.3465 -0.72815 0.86104 0
M  V30 8 N -6.60179 1.00281 -0.738855 0
M  V30 9 C -8.03467 0.964377 -0.702 0
M  V30 10 C -5.97832 1.97661 -1.63964 0
M  V30 11 C -2.20083 -0.548111 0.69068 0
M  V30 12 S -1.0929 -1.49113 1.56114 0
M  V30 13 C 0.373651 -0.812919 0.933202 0
M  V30 14 N 1.53096 -1.17829 1.27579 0
M  V30 15 C 2.75883 -0.72366 0.856637 0
M  V30 16 N 3.22209 0.359563 1.27274 0
M  V30 17 C 4.36128 1.08744 1.07968 0
M  V30 18 C 5.60319 0.59206 1.41145 0
M  V30 19 C 6.7604 1.34915 1.23514 0
M  V30 20 C 6.68287 2.62299 0.719307 0
M  V30 21 C 5.44599 3.13135 0.382911 0
M  V30 22 C 4.31878 2.36377 0.56665 0
M  V30 23 C 3.56989 -1.54591 -0.0234691 0
M  V30 24 C 3.63741 -2.93781 0.162769 0
M  V30 25 C 4.3538 -3.78394 -0.619577 0
M  V30 26 C 5.07873 -3.28481 -1.67978 0
M  V30 27 C 5.03547 -1.92472 -1.89253 0
M  V30 28 C 4.29063 -1.06348 -1.07604 0
M  V30 29 N -0.0643189 0.104991 0.0844164 0
M  V30 30 C -1.37035 0.251955 -0.0496065 0
M  V30 31 N -1.98518 1.23647 -0.94939 0
M  V30 32 C 0.884437 0.944094 -0.704763 0
M  V30 33 H -6.72007 -3.30434 2.06707 0
M  V30 34 H -6.31712 -2.29439 3.48248 0
M  V30 35 H -8.41094 -0.0677522 -0.482406 0
M  V30 36 H -8.43709 1.28767 -1.69525 0
M  V30 37 H -8.39518 1.66849 0.0646987 0
M  V30 38 H -6.71398 2.72019 -2.00899 0
M  V30 39 H -5.14495 2.44881 -1.07508 0
M  V30 40 H -5.60921 1.39218 -2.51985 0
M  V30 41 H 5.69955 -0.39437 1.81482 0
M  V30 42 H 7.74259 0.97833 1.48917 0
M  V30 43 H 7.6088 3.20491 0.587736 0
M  V30 44 H 5.40302 4.14876 -0.0270305 0
M  V30 45 H 3.36028 2.7727 0.29999 0
M  V30 46 H 3.07438 -3.3587 0.992784 0
M  V30 47 H 4.34434 -4.85216 -0.395397 0
M  V30 48 H 5.65317 -3.95668 -2.30792 0
M  V30 49 H 5.61105 -1.54849 -2.73036 0
M  V30 50 H 4.32436 -0.0153602 -1.35677 0
M  V30 51 H -1.86035 2.25048 -0.748343 0
M  V30 52 H -2.53119 0.956489 -1.76592 0
M  V30 53 H 1.60665 0.363688 -1.25618 0
M  V30 54 H 1.18536 1.8423 -0.176133 0
M  V30 55 H 0.297754 1.40037 -1.5749 0
M  V30 END ATOM
M  V30 BEGIN BOND
M  V30 1 1 1 2
M  V30 2 2 2 3
M  V30 3 1 3 4
M  V30 4 2 4 5
M  V30 5 1 5 6
M  V30 6 2 6 7
M  V30 7 1 6 8
M  V30 8 1 8 9
M  V30 9 1 8 10
M  V30 10 1 4 11
M  V30 11 1 11 12
M  V30 12 1 12 13
M  V30 13 2 13 14
M  V30 14 1 14 15
M  V30 15 2 15 16
M  V30 16 1 16 17
M  V30 17 2 17 18
M  V30 18 1 18 19
M  V30 19 2 19 20
M  V30 20 1 20 21
M  V30 21 2 21 22
M  V30 22 1 15 23
M  V30 23 2 23 24
M  V30 24 1 24 25
M  V30 25 2 25 26
M  V30 26 1 26 27
M  V30 27 2 27 28
M  V30 28 1 13 29
M  V30 29 1 29 30
M  V30 30 1 30 31
M  V30 31 1 29 32
M  V30 32 1 7 2
M  V30 33 2 30 11
M  V30 34 1 22 17
M  V30 35 1 28 23
M  V30 36 1 1 33
M  V30 37 1 1 34
M  V30 38 1 9 35
M  V30 39 1 9 36
M  V30 40 1 9 37
M  V30 41 1 10 38
M  V30 42 1 10 39
M  V30 43 1 10 40
M  V30 44 1 18 41
M  V30 45 1 19 42
M  V30 46 1 20 43
M  V30 47 1 21 44
M  V30 48 1 22 45
M  V30 49 1 24 46
M  V30 50 1 25 47
M  V30 51 1 26 48
M  V30 52 1 27 49
M  V30 53 1 28 50
M  V30 54 1 31 51
M  V30 55 1 31 52
M  V30 56 1 32 53
M  V30 57 1 32 54
M  V30 58 1 32 55
M  V30 END BOND
M  V30 END CTAB
M  END
