
     RDKit          3D

  0  0  0  0  0  0  0  0  0  0999 V3000
M  V30 BEGIN CTAB
M  V30 COUNTS 27 27 0 0 0
M  V30 BEGIN ATOM
M  V30 1 N -2.76716 -0.195787 1.30252 0
M  V30 2 C -1.5744 -0.682803 0.660304 0
M  V30 3 C -2.04386 -1.41068 -0.608328 0
M  V30 4 C -2.33191 -0.192025 -1.48507 0
M  V30 5 C -0.995351 0.528488 -1.35986 0
M  V30 6 C -0.691017 0.404246 0.125211 0
M  V30 7 C 0.755969 -0.0638086 0.221152 0
M  V30 8 N 1.66718 0.942602 -0.28101 0
M  V30 9 S 3.27368 0.333385 -0.135767 0
M  V30 10 O 4.1425 0.901717 -1.2164 0
M  V30 11 O 3.31026 -1.1545 -0.257039 0
M  V30 12 N 3.85245 0.817794 1.43621 0
M  V30 13 H -2.85701 -0.440601 2.28828 0
M  V30 14 H -3.02853 0.763439 1.03798 0
M  V30 15 H -0.987751 -1.37953 1.2919 0
M  V30 16 H -2.94082 -2.01438 -0.424925 0
M  V30 17 H -1.18363 -1.97326 -0.982336 0
M  V30 18 H -3.14203 0.386155 -0.990572 0
M  V30 19 H -2.56877 -0.47656 -2.51439 0
M  V30 20 H -1.06552 1.5862 -1.6833 0
M  V30 21 H -0.274299 -0.0578262 -1.96849 0
M  V30 22 H -0.810209 1.36485 0.629518 0
M  V30 23 H 1.04617 -0.285891 1.26731 0
M  V30 24 H 0.917037 -0.994392 -0.35935 0
M  V30 25 H 1.54278 1.86349 0.153143 0
M  V30 26 H 4.68032 1.45165 1.33928 0
M  V30 27 H 4.07392 -0.0219735 2.02092 0
M  V30 END ATOM
M  V30 BEGIN BOND
M  V30 1 1 1 2
M  V30 2 1 2 3
M  V30 3 1 3 4
M  V30 4 1 4 5
M  V30 5 1 5 6
M  V30 6 1 6 7
M  V30 7 1 7 8
M  V30 8 1 8 9
M  V30 9 2 9 10
M  V30 10 2 9 11
M  V30 11 1 9 12
M  V30 12 1 6 2
M  V30 13 1 1 13
M  V30 14 1 1 14
M  V30 15 1 2 15
M  V30 16 1 3 16
M  V30 17 1 3 17
M  V30 18 1 4 18
M  V30 19 1 4 19
M  V30 20 1 5 20
M  V30 21 1 5 21
M  V30 22 1 6 22
M  V30 23 1 7 23
M  V30 24 1 7 24
M  V30 25 1 8 25
M  V30 26 1 12 26
M  V30 27 1 12 27
M  V30 END BOND
M  V30 END CTAB
M  END
