
     RDKit          3D

  0  0  0  0  0  0  0  0  0  0999 V3000
M  V30 BEGIN CTAB
M  V30 COUNTS 36 38 0 0 0
M  V30 BEGIN ATOM
M  V30 1 N 5.11677 -0.700975 -1.69999 0
M  V30 2 C 3.87704 -0.181695 -2.29661 0
M  V30 3 C 3.11336 0.39754 -1.1489 0
M  V30 4 N 3.31709 1.66061 -0.731091 0
M  V30 5 C 2.657 2.22252 0.295143 0
M  V30 6 C 1.71538 1.47031 0.963794 0
M  V30 7 C 1.45743 0.171265 0.587802 0
M  V30 8 C 2.15799 -0.356682 -0.465924 0
M  V30 9 C 0.498908 -0.604953 1.30754 0
M  V30 10 O 1.0668 -1.31568 2.24794 0
M  V30 11 N -0.877792 -0.725706 1.1817 0
M  V30 12 C -1.68234 -1.49565 1.98233 0
M  V30 13 C -1.184 -2.29656 3.10676 0
M  V30 14 N -2.9498 -1.39009 1.57513 0
M  V30 15 C -3.01351 -0.567212 0.520246 0
M  V30 16 C -1.68611 -0.148058 0.275863 0
M  V30 17 C -1.48687 0.71014 -0.775043 0
M  V30 18 C -2.51019 1.15504 -1.56487 0
M  V30 19 C -3.78798 0.733108 -1.30528 0
M  V30 20 C -4.04946 -0.120821 -0.274192 0
M  V30 21 N -4.84706 1.18809 -2.1157 0
M  V30 22 H 5.87257 -0.766044 -2.39676 0
M  V30 23 H 5.40902 0.016885 -0.968833 0
M  V30 24 H 4.1346 0.608151 -2.99917 0
M  V30 25 H 3.2653 -1.00697 -2.70776 0
M  V30 26 H 2.89056 3.2477 0.55863 0
M  V30 27 H 1.16456 1.89772 1.79926 0
M  V30 28 H 2.01324 -1.37233 -0.825562 0
M  V30 29 H -2.06685 -2.79651 3.60101 0
M  V30 30 H -0.514844 -3.11565 2.80911 0
M  V30 31 H -0.715718 -1.66609 3.90622 0
M  V30 32 H -0.505504 1.0488 -1.0023 0
M  V30 33 H -2.31845 1.84678 -2.40546 0
M  V30 34 H -5.03991 -0.467253 -0.0495967 0
M  V30 35 H -5.60138 1.78549 -1.70172 0
M  V30 36 H -4.88988 0.93479 -3.13188 0
M  V30 END ATOM
M  V30 BEGIN BOND
M  V30 1 1 1 2
M  V30 2 1 2 3
M  V30 3 2 3 4
M  V30 4 1 4 5
M  V30 5 2 5 6
M  V30 6 1 6 7
M  V30 7 2 7 8
M  V30 8 1 7 9
M  V30 9 2 9 10
M  V30 10 1 9 11
M  V30 11 1 11 12
M  V30 12 1 12 13
M  V30 13 2 12 14
M  V30 14 1 14 15
M  V30 15 2 15 16
M  V30 16 1 16 17
M  V30 17 2 17 18
M  V30 18 1 18 19
M  V30 19 2 19 20
M  V30 20 1 19 21
M  V30 21 1 8 3
M  V30 22 1 16 11
M  V30 23 1 20 15
M  V30 24 1 1 22
M  V30 25 1 1 23
M  V30 26 1 2 24
M  V30 27 1 2 25
M  V30 28 1 5 26
M  V30 29 1 6 27
M  V30 30 1 8 28
M  V30 31 1 13 29
M  V30 32 1 13 30
M  V30 33 1 13 31
M  V30 34 1 17 32
M  V30 35 1 18 33
M  V30 36 1 20 34
M  V30 37 1 21 35
M  V30 38 1 21 36
M  V30 END BOND
M  V30 END CTAB
M  END
