
     RDKit          3D

  0  0  0  0  0  0  0  0  0  0999 V3000
M  V30 BEGIN CTAB
M  V30 COUNTS 46 48 0 0 0
M  V30 BEGIN ATOM
M  V30 1 Br -6.11601 2.02503 3.32395 0
M  V30 2 C -4.92035 1.5211 1.92083 0
M  V30 3 C -3.55294 1.44471 2.11879 0
M  V30 4 C -2.72286 1.07453 1.07119 0
M  V30 5 C -3.21279 0.776465 -0.173252 0
M  V30 6 C -4.57368 0.849322 -0.381615 0
M  V30 7 C -5.40779 1.21709 0.655814 0
M  V30 8 C -2.34987 0.378584 -1.30979 0
M  V30 9 C -1.32898 -0.618766 -0.923006 0
M  V30 10 O -1.68113 -1.69272 -0.387095 0
M  V30 11 N 0.0216756 -0.367418 -1.15438 0
M  V30 12 C 1.10052 -1.27173 -0.82008 0
M  V30 13 C 1.80229 -1.79147 -2.05081 0
M  V30 14 C 2.92096 -2.69646 -1.52245 0
M  V30 15 C 4.01207 -1.84099 -0.973541 0
M  V30 16 C 3.45343 -0.845742 -0.0283393 0
M  V30 17 C 2.10616 -0.588359 0.0331859 0
M  V30 18 C 1.69801 0.375862 0.964961 0
M  V30 19 C 2.60138 1.02707 1.77261 0
M  V30 20 C 3.9552 0.772354 1.71495 0
M  V30 21 C 4.36578 -0.171004 0.804974 0
M  V30 22 N 4.86854 1.45802 2.55966 0
M  V30 23 N -1.7397 1.58677 -1.84948 0
M  V30 24 C -3.21002 -0.277175 -2.40554 0
M  V30 25 H -3.16647 1.68232 3.10972 0
M  V30 26 H -1.66837 1.03353 1.28734 0
M  V30 27 H -5.03658 0.627977 -1.34018 0
M  V30 28 H -6.4737 1.26958 0.475998 0
M  V30 29 H 0.329659 0.541373 -1.60707 0
M  V30 30 H 0.630407 -2.14665 -0.311478 0
M  V30 31 H 1.11217 -2.31725 -2.7082 0
M  V30 32 H 2.31652 -0.937168 -2.53058 0
M  V30 33 H 2.55325 -3.35937 -0.719199 0
M  V30 34 H 3.31219 -3.32271 -2.34869 0
M  V30 35 H 4.5328 -1.33318 -1.80238 0
M  V30 36 H 4.75584 -2.48508 -0.447476 0
M  V30 37 H 0.651818 0.571717 1.0083 0
M  V30 38 H 2.28192 1.77051 2.49028 0
M  V30 39 H 5.43812 -0.397065 0.734271 0
M  V30 40 H 5.27603 2.40471 2.30634 0
M  V30 41 H 5.19632 1.08062 3.47591 0
M  V30 42 H -2.10903 1.83653 -2.77662 0
M  V30 43 H -1.8037 2.38451 -1.1775 0
M  V30 44 H -3.90415 -0.974989 -1.91828 0
M  V30 45 H -2.51902 -0.747489 -3.12461 0
M  V30 46 H -3.79593 0.472496 -2.95445 0
M  V30 END ATOM
M  V30 BEGIN BOND
M  V30 1 1 1 2
M  V30 2 2 2 3
M  V30 3 1 3 4
M  V30 4 2 4 5
M  V30 5 1 5 6
M  V30 6 2 6 7
M  V30 7 1 5 8
M  V30 8 1 8 9
M  V30 9 2 9 10
M  V30 10 1 9 11
M  V30 11 1 11 12
M  V30 12 1 12 13
M  V30 13 1 13 14
M  V30 14 1 14 15
M  V30 15 1 15 16
M  V30 16 2 16 17
M  V30 17 1 17 18
M  V30 18 2 18 19
M  V30 19 1 19 20
M  V30 20 2 20 21
M  V30 21 1 20 22
M  V30 22 1 8 23
M  V30 23 1 8 24
M  V30 24 1 7 2
M  V30 25 1 17 12
M  V30 26 1 21 16
M  V30 27 1 3 25
M  V30 28 1 4 26
M  V30 29 1 6 27
M  V30 30 1 7 28
M  V30 31 1 11 29
M  V30 32 1 12 30
M  V30 33 1 13 31
M  V30 34 1 13 32
M  V30 35 1 14 33
M  V30 36 1 14 34
M  V30 37 1 15 35
M  V30 38 1 15 36
M  V30 39 1 18 37
M  V30 40 1 19 38
M  V30 41 1 21 39
M  V30 42 1 22 40
M  V30 43 1 22 41
M  V30 44 1 23 42
M  V30 45 1 23 43
M  V30 46 1 24 44
M  V30 47 1 24 45
M  V30 48 1 24 46
M  V30 END BOND
M  V30 END CTAB
M  END
