
     RDKit          3D

  0  0  0  0  0  0  0  0  0  0999 V3000
M  V30 BEGIN CTAB
M  V30 COUNTS 28 28 0 0 0
M  V30 BEGIN ATOM
M  V30 1 N 3.89425 -1.36479 0.282138 0
M  V30 2 C 3.21101 -0.0726797 0.208452 0
M  V30 3 C 1.74264 -0.344816 0.237125 0
M  V30 4 C 0.894248 0.88666 0.168509 0
M  V30 5 C -0.540515 0.424116 0.208576 0
M  V30 6 C -1.41193 0.838726 1.18227 0
M  V30 7 C -2.71274 0.398831 1.1906 0
M  V30 8 C -3.15188 -0.469822 0.210465 0
M  V30 9 C -2.27886 -0.901443 -0.787213 0
M  V30 10 C -0.985777 -0.455666 -0.783881 0
M  V30 11 N -4.49688 -0.89614 0.258024 0
M  V30 12 C 1.04931 1.62651 -1.14663 0
M  V30 13 H 3.23192 -2.16001 0.189711 0
M  V30 14 H 4.59093 -1.47564 -0.488187 0
M  V30 15 H 3.51206 0.462985 1.15341 0
M  V30 16 H 3.5617 0.485237 -0.666002 0
M  V30 17 H 1.5046 -0.872677 1.17127 0
M  V30 18 H 1.50146 -1.02145 -0.599836 0
M  V30 19 H 1.06581 1.56176 1.00969 0
M  V30 20 H -1.04692 1.51912 1.94014 0
M  V30 21 H -3.39175 0.729559 1.95975 0
M  V30 22 H -2.6918 -1.58367 -1.52511 0
M  V30 23 H -0.335902 -0.809738 -1.57126 0
M  V30 24 H -4.9018 -1.09719 1.21418 0
M  V30 25 H -5.04844 -1.00175 -0.619508 0
M  V30 26 H 1.66936 2.54055 -0.937591 0
M  V30 27 H 0.0609917 2.03763 -1.48626 0
M  V30 28 H 1.50491 1.01578 -1.93473 0
M  V30 END ATOM
M  V30 BEGIN BOND
M  V30 1 1 1 2
M  V30 2 1 2 3
M  V30 3 1 3 4
M  V30 4 1 4 5
M  V30 5 2 5 6
M  V30 6 1 6 7
M  V30 7 2 7 8
M  V30 8 1 8 9
M  V30 9 2 9 10
M  V30 10 1 8 11
M  V30 11 1 4 12
M  V30 12 1 10 5
M  V30 13 1 1 13
M  V30 14 1 1 14
M  V30 15 1 2 15
M  V30 16 1 2 16
M  V30 17 1 3 17
M  V30 18 1 3 18
M  V30 19 1 4 19
M  V30 20 1 6 20
M  V30 21 1 7 21
M  V30 22 1 9 22
M  V30 23 1 10 23
M  V30 24 1 11 24
M  V30 25 1 11 25
M  V30 26 1 12 26
M  V30 27 1 12 27
M  V30 28 1 12 28
M  V30 END BOND
M  V30 END CTAB
M  END
