
     RDKit          3D

  0  0  0  0  0  0  0  0  0  0999 V3000
M  V30 BEGIN CTAB
M  V30 COUNTS 22 22 0 0 0
M  V30 BEGIN ATOM
M  V30 1 N -2.32005 -1.14869 0.471554 0
M  V30 2 C -2.13606 0.0881707 -0.204759 0
M  V30 3 N -1.05673 0.75941 -0.18825 0
M  V30 4 C 0.140712 0.356054 0.524694 0
M  V30 5 C 1.23283 1.36676 0.403069 0
M  V30 6 C 2.48462 0.653811 -0.0224583 0
M  V30 7 C 2.14363 -0.807146 -0.169212 0
M  V30 8 C 0.639748 -0.908179 -0.157561 0
M  V30 9 N -3.22944 0.601486 -0.943457 0
M  V30 10 H -2.09369 -1.19012 1.48512 0
M  V30 11 H -2.67327 -2.00828 -0.0190305 0
M  V30 12 H -0.0882327 0.130966 1.58009 0
M  V30 13 H 0.90717 2.14781 -0.323697 0
M  V30 14 H 1.45314 1.88324 1.3829 0
M  V30 15 H 3.32575 0.808078 0.696327 0
M  V30 16 H 2.81701 1.10939 -0.979458 0
M  V30 17 H 2.52673 -1.3573 0.720591 0
M  V30 18 H 2.60075 -1.27348 -1.06341 0
M  V30 19 H 0.323363 -1.80474 0.404779 0
M  V30 20 H 0.240333 -1.00647 -1.18863 0
M  V30 21 H -3.84406 -0.0242811 -1.48899 0
M  V30 22 H -3.39425 1.62351 -0.92021 0
M  V30 END ATOM
M  V30 BEGIN BOND
M  V30 1 1 1 2
M  V30 2 2 2 3 CFG=2
M  V30 3 1 3 4
M  V30 4 1 4 5
M  V30 5 1 5 6
M  V30 6 1 6 7
M  V30 7 1 7 8
M  V30 8 1 2 9
M  V30 9 1 8 4
M  V30 10 1 1 10
M  V30 11 1 1 11
M  V30 12 1 4 12
M  V30 13 1 5 13
M  V30 14 1 5 14
M  V30 15 1 6 15
M  V30 16 1 6 16
M  V30 17 1 7 17
M  V30 18 1 7 18
M  V30 19 1 8 19
M  V30 20 1 8 20
M  V30 21 1 9 21
M  V30 22 1 9 22
M  V30 END BOND
M  V30 END CTAB
M  END
