
     RDKit          3D

  0  0  0  0  0  0  0  0  0  0999 V3000
M  V30 BEGIN CTAB
M  V30 COUNTS 42 43 0 0 0
M  V30 BEGIN ATOM
M  V30 1 N -8.10522 -0.432186 -1.26167 0
M  V30 2 S -7.00528 0.897115 -1.11503 0
M  V30 3 O -6.96245 1.6876 -2.39847 0
M  V30 4 O -7.50733 1.74757 0.0390677 0
M  V30 5 C -5.39423 0.352623 -0.719798 0
M  V30 6 C -5.10054 0.158614 0.609956 0
M  V30 7 C -3.86401 -0.26169 0.997896 0
M  V30 8 C -2.83394 -0.520941 0.0764184 0
M  V30 9 C -1.5265 -0.989732 0.527779 0
M  V30 10 C -0.604831 0.148022 0.932406 0
M  V30 11 N 0.663507 -0.374712 1.34336 0
M  V30 12 C 1.79297 -0.840257 1.70937 0
M  V30 13 O 2.00832 -1.66726 2.70211 0
M  V30 14 C 3.08337 -0.47322 1.01119 0
M  V30 15 C 4.20848 -0.276987 1.80931 0
M  V30 16 C 5.42306 0.0474927 1.23704 0
M  V30 17 C 5.56101 0.187 -0.148972 0
M  V30 18 C 4.43583 -0.0122072 -0.902684 0
M  V30 19 C 3.1944 -0.342559 -0.32575 0
M  V30 20 S 7.13182 0.578648 -0.815708 0
M  V30 21 N 7.89803 -0.902922 -1.31207 0
M  V30 22 O 7.09851 1.59248 -1.89374 0
M  V30 23 O 8.02818 1.12765 0.298117 0
M  V30 24 C -3.12949 -0.328953 -1.24918 0
M  V30 25 C -4.40516 0.105308 -1.63242 0
M  V30 26 H -7.58347 -1.26867 -1.64711 0
M  V30 27 H -8.3869 -0.704179 -0.277766 0
M  V30 28 H -5.85836 0.341212 1.38057 0
M  V30 29 H -3.62904 -0.405586 2.03543 0
M  V30 30 H -1.58124 -1.69084 1.39976 0
M  V30 31 H -0.96972 -1.53024 -0.296027 0
M  V30 32 H -0.419861 0.806338 0.0296133 0
M  V30 33 H -1.08678 0.842396 1.65049 0
M  V30 34 H 0.00668702 -1.04783 2.37041 0
M  V30 35 H 4.09224 -0.375246 2.87328 0
M  V30 36 H 6.32184 0.212661 1.82734 0
M  V30 37 H 4.51508 0.0924761 -1.99352 0
M  V30 38 H 2.33681 -0.48592 -0.96688 0
M  V30 39 H 7.81844 -1.03568 -2.3568 0
M  V30 40 H 7.40373 -1.67926 -0.837612 0
M  V30 41 H -2.42426 -0.499328 -2.03844 0
M  V30 42 H -4.64368 0.260921 -2.67127 0
M  V30 END ATOM
M  V30 BEGIN BOND
M  V30 1 1 1 2
M  V30 2 2 2 3
M  V30 3 2 2 4
M  V30 4 1 2 5
M  V30 5 2 5 6
M  V30 6 1 6 7
M  V30 7 2 7 8
M  V30 8 1 8 9
M  V30 9 1 9 10
M  V30 10 1 10 11
M  V30 11 1 11 12
M  V30 12 2 12 13
M  V30 13 1 12 14
M  V30 14 2 14 15
M  V30 15 1 15 16
M  V30 16 2 16 17
M  V30 17 1 17 18
M  V30 18 2 18 19
M  V30 19 1 17 20
M  V30 20 1 20 21
M  V30 21 2 20 22
M  V30 22 2 20 23
M  V30 23 1 8 24
M  V30 24 2 24 25
M  V30 25 1 25 5
M  V30 26 1 19 14
M  V30 27 1 1 26
M  V30 28 1 1 27
M  V30 29 1 6 28
M  V30 30 1 7 29
M  V30 31 1 9 30
M  V30 32 1 9 31
M  V30 33 1 10 32
M  V30 34 1 10 33
M  V30 35 1 11 34
M  V30 36 1 15 35
M  V30 37 1 16 36
M  V30 38 1 18 37
M  V30 39 1 19 38
M  V30 40 1 21 39
M  V30 41 1 21 40
M  V30 42 1 24 41
M  V30 43 1 25 42
M  V30 END BOND
M  V30 END CTAB
M  END
