
     RDKit          3D

  0  0  0  0  0  0  0  0  0  0999 V3000
M  V30 BEGIN CTAB
M  V30 COUNTS 48 51 0 0 0
M  V30 BEGIN ATOM
M  V30 1 N 3.51318 1.16121 -2.67527 0
M  V30 2 C 3.25776 0.262912 -1.59663 0
M  V30 3 C 1.90596 -0.478489 -1.75818 0
M  V30 4 C 1.73624 -1.35469 -0.584608 0
M  V30 5 C 2.34266 -2.61874 -0.454652 0
M  V30 6 N 2.09913 -3.0867 0.75555 0
M  V30 7 C 1.35451 -2.21869 1.47393 0
M  V30 8 C 1.11486 -1.11853 0.636845 0
M  V30 9 C 0.341538 -0.119742 1.17098 0
M  V30 10 C -0.161914 -0.186726 2.45386 0
M  V30 11 O -0.958712 0.895534 2.94893 0
M  V30 12 C 0.0958075 -1.26941 3.24267 0
M  V30 13 C 0.857932 -2.30509 2.76602 0
M  V30 14 C 0.0354932 1.06673 0.392618 0
M  V30 15 C 0.840947 2.17828 0.549412 0
M  V30 16 O 1.93566 2.12944 1.46415 0
M  V30 17 C 0.58743 3.31508 -0.165921 0
M  V30 18 C -0.465573 3.36415 -1.04402 0
M  V30 19 C -1.26026 2.2278 -1.17964 0
M  V30 20 C -1.03958 1.04995 -0.469497 0
M  V30 21 C -1.99036 0.108189 -0.853463 0
M  V30 22 C -2.26897 -1.23262 -0.335873 0
M  V30 23 C -3.31618 -1.26417 0.767032 0
M  V30 24 N -4.59817 -0.769042 0.296448 0
M  V30 25 C -2.77265 0.771487 -1.81799 0
M  V30 26 N -2.32568 2.00302 -1.98659 0
M  V30 27 H 4.0795 0.732506 -3.41759 0
M  V30 28 H 3.8601 2.08185 -2.33106 0
M  V30 29 H 4.02766 -0.543865 -1.58299 0
M  V30 30 H 3.29836 0.759489 -0.624921 0
M  V30 31 H 1.22379 0.322249 -1.93059 0
M  V30 32 H 2.08703 -1.09614 -2.68506 0
M  V30 33 H 2.90017 -3.05112 -1.27834 0
M  V30 34 H 2.4233 -4.01465 1.15702 0
M  V30 35 H -1.28957 0.792823 3.86861 0
M  V30 36 H -0.324385 -1.27061 4.25034 0
M  V30 37 H 1.07566 -3.17359 3.36717 0
M  V30 38 H 2.48962 2.96258 1.54166 0
M  V30 39 H 1.25143 4.16094 -0.00483925 0
M  V30 40 H -0.676709 4.25218 -1.61405 0
M  V30 41 H -2.885 -1.72849 -1.18183 0
M  V30 42 H -1.49579 -1.95876 -0.242144 0
M  V30 43 H -3.00261 -0.566334 1.55529 0
M  V30 44 H -3.36485 -2.27714 1.19778 0
M  V30 45 H -5.08397 -1.55499 -0.171772 0
M  V30 46 H -5.12383 -0.435294 1.12962 0
M  V30 47 H -3.62367 0.34462 -2.3539 0
M  V30 48 H -2.7073 2.75057 -2.64452 0
M  V30 END ATOM
M  V30 BEGIN BOND
M  V30 1 1 1 2
M  V30 2 1 2 3
M  V30 3 1 3 4
M  V30 4 2 4 5
M  V30 5 1 5 6
M  V30 6 1 6 7
M  V30 7 2 7 8
M  V30 8 1 8 9
M  V30 9 2 9 10
M  V30 10 1 10 11
M  V30 11 1 10 12
M  V30 12 2 12 13
M  V30 13 1 9 14
M  V30 14 2 14 15
M  V30 15 1 15 16
M  V30 16 1 15 17
M  V30 17 2 17 18
M  V30 18 1 18 19
M  V30 19 2 19 20
M  V30 20 1 20 21
M  V30 21 1 21 22
M  V30 22 1 22 23
M  V30 23 1 23 24
M  V30 24 2 21 25
M  V30 25 1 25 26
M  V30 26 1 8 4
M  V30 27 1 20 14
M  V30 28 1 13 7
M  V30 29 1 26 19
M  V30 30 1 1 27
M  V30 31 1 1 28
M  V30 32 1 2 29
M  V30 33 1 2 30
M  V30 34 1 3 31
M  V30 35 1 3 32
M  V30 36 1 5 33
M  V30 37 1 6 34
M  V30 38 1 11 35
M  V30 39 1 12 36
M  V30 40 1 13 37
M  V30 41 1 16 38
M  V30 42 1 17 39
M  V30 43 1 18 40
M  V30 44 1 22 41
M  V30 45 1 22 42
M  V30 46 1 23 43
M  V30 47 1 23 44
M  V30 48 1 24 45
M  V30 49 1 24 46
M  V30 50 1 25 47
M  V30 51 1 26 48
M  V30 END BOND
M  V30 END CTAB
M  END
