
     RDKit          3D

  0  0  0  0  0  0  0  0  0  0999 V3000
M  V30 BEGIN CTAB
M  V30 COUNTS 77 79 0 0 0
M  V30 BEGIN ATOM
M  V30 1 C 2.14493 -0.649555 -2.06928 0
M  V30 2 C 2.54752 -1.6413 -0.992814 0
M  V30 3 C 1.40806 -1.83469 0.0106851 0
M  V30 4 C 1.11195 -0.529526 0.62007 0
M  V30 5 O 0.0233504 0.0398347 0.528986 0
M  V30 6 N 2.15544 0.131904 1.37134 0
M  V30 7 C 1.91072 1.40065 1.97304 0
M  V30 8 C 3.07796 1.95941 2.72851 0
M  V30 9 C 4.29314 2.17741 1.92322 0
M  V30 10 C 4.51452 3.35456 1.2281 0
M  V30 11 C 5.6745 3.52885 0.484534 0
M  V30 12 C 6.6432 2.55907 0.402604 0
M  V30 13 C 6.40978 1.39618 1.09877 0
M  V30 14 C 5.26335 1.19992 1.8459 0
M  V30 15 S 8.07989 2.81277 -0.564216 0
M  V30 16 O 9.26767 2.14759 0.0586845 0
M  V30 17 O 8.39827 4.27874 -0.713174 0
M  V30 18 N 7.83939 2.17997 -2.16596 0
M  V30 19 N 0.292065 -2.50471 -0.604075 0
M  V30 20 C -0.105144 -3.80503 -0.208286 0
M  V30 21 O 0.63697 -4.27173 0.766463 0
M  V30 22 C -1.15585 -4.6547 -0.718556 0
M  V30 23 C -0.838706 -6.06643 -0.737506 0
M  V30 24 C -1.70614 -6.92018 -1.33183 0
M  V30 25 N -2.85679 -6.49359 -1.90718 0
M  V30 26 C -3.19618 -5.20632 -1.91504 0
M  V30 27 C -2.30756 -4.28459 -1.29567 0
M  V30 28 C -2.83513 -2.91506 -1.16636 0
M  V30 29 O -3.37643 -2.37583 -2.16293 0
M  V30 30 N -2.77108 -2.19486 0.0382049 0
M  V30 31 C -3.321 -0.861964 0.195032 0
M  V30 32 C -4.79859 -0.791689 -0.0384953 0
M  V30 33 C -5.23148 0.617712 0.154076 0
M  V30 34 C -5.63918 1.06814 1.41028 0
M  V30 35 C -6.061 2.37126 1.62659 0
M  V30 36 C -6.09593 3.28577 0.599842 0
M  V30 37 C -5.69237 2.85255 -0.657441 0
M  V30 38 C -5.27729 1.5578 -0.85178 0
M  V30 39 S -6.65217 4.94613 0.832486 0
M  V30 40 O -6.45512 5.30244 2.26012 0
M  V30 41 O -5.90116 5.84091 -0.100079 0
M  V30 42 N -8.35325 5.02792 0.469656 0
M  V30 43 C 2.9872 -2.93251 -1.62447 0
M  V30 44 H 1.02987 -0.579292 -2.10543 0
M  V30 45 H 2.49479 0.389377 -1.83349 0
M  V30 46 H 2.51006 -0.900141 -3.06614 0
M  V30 47 H 3.4125 -1.20593 -0.456643 0
M  V30 48 H 1.82924 -2.49256 0.813083 0
M  V30 49 H 3.07484 -0.338728 1.46006 0
M  V30 50 H 1.53305 2.15425 1.23009 0
M  V30 51 H 1.07039 1.33576 2.72847 0
M  V30 52 H 3.32028 1.29138 3.58642 0
M  V30 53 H 2.72492 2.92352 3.19164 0
M  V30 54 H 3.75219 4.12369 1.29334 0
M  V30 55 H 5.82039 4.46598 -0.0509537 0
M  V30 56 H 7.14488 0.604078 1.06252 0
M  V30 57 H 5.12375 0.285696 2.38033 0
M  V30 58 H 8.48454 2.60876 -2.85323 0
M  V30 59 H 7.88177 1.13842 -2.16711 0
M  V30 60 H -0.211219 -2.02298 -1.365 0
M  V30 61 H 0.0759311 -6.35817 -0.270723 0
M  V30 62 H -1.47606 -7.9969 -1.34906 0
M  V30 63 H -4.10436 -4.82336 -2.36176 0
M  V30 64 H -2.3217 -2.63149 0.856724 0
M  V30 65 H -2.78387 -0.190874 -0.510653 0
M  V30 66 H -3.15424 -0.538245 1.24925 0
M  V30 67 H -5.13431 -1.19859 -0.996863 0
M  V30 68 H -5.33767 -1.3713 0.745395 0
M  V30 69 H -5.60426 0.334827 2.21485 0
M  V30 70 H -6.37257 2.69616 2.61413 0
M  V30 71 H -5.7204 3.5688 -1.45659 0
M  V30 72 H -4.95659 1.20321 -1.84401 0
M  V30 73 H -8.79791 5.58863 1.22486 0
M  V30 74 H -8.74767 4.06348 0.533512 0
M  V30 75 H 3.36934 -2.78974 -2.65784 0
M  V30 76 H 2.19465 -3.72484 -1.62636 0
M  V30 77 H 3.82311 -3.33719 -1.0149 0
M  V30 END ATOM
M  V30 BEGIN BOND
M  V30 1 1 1 2
M  V30 2 1 2 3
M  V30 3 1 3 4
M  V30 4 2 4 5
M  V30 5 1 4 6
M  V30 6 1 6 7
M  V30 7 1 7 8
M  V30 8 1 8 9
M  V30 9 2 9 10
M  V30 10 1 10 11
M  V30 11 2 11 12
M  V30 12 1 12 13
M  V30 13 2 13 14
M  V30 14 1 12 15
M  V30 15 2 15 16
M  V30 16 2 15 17
M  V30 17 1 15 18
M  V30 18 1 3 19
M  V30 19 1 19 20
M  V30 20 2 20 21
M  V30 21 1 20 22
M  V30 22 2 22 23
M  V30 23 1 23 24
M  V30 24 2 24 25
M  V30 25 1 25 26
M  V30 26 2 26 27
M  V30 27 1 27 28
M  V30 28 2 28 29
M  V30 29 1 28 30
M  V30 30 1 30 31
M  V30 31 1 31 32
M  V30 32 1 32 33
M  V30 33 2 33 34
M  V30 34 1 34 35
M  V30 35 2 35 36
M  V30 36 1 36 37
M  V30 37 2 37 38
M  V30 38 1 36 39
M  V30 39 2 39 40
M  V30 40 2 39 41
M  V30 41 1 39 42
M  V30 42 1 2 43
M  V30 43 1 14 9
M  V30 44 1 27 22
M  V30 45 1 38 33
M  V30 46 1 1 44
M  V30 47 1 1 45
M  V30 48 1 1 46
M  V30 49 1 2 47
M  V30 50 1 3 48
M  V30 51 1 6 49
M  V30 52 1 7 50
M  V30 53 1 7 51
M  V30 54 1 8 52
M  V30 55 1 8 53
M  V30 56 1 10 54
M  V30 57 1 11 55
M  V30 58 1 13 56
M  V30 59 1 14 57
M  V30 60 1 18 58
M  V30 61 1 18 59
M  V30 62 1 19 60
M  V30 63 1 23 61
M  V30 64 1 24 62
M  V30 65 1 26 63
M  V30 66 1 30 64
M  V30 67 1 31 65
M  V30 68 1 31 66
M  V30 69 1 32 67
M  V30 70 1 32 68
M  V30 71 1 34 69
M  V30 72 1 35 70
M  V30 73 1 37 71
M  V30 74 1 38 72
M  V30 75 1 42 73
M  V30 76 1 42 74
M  V30 77 1 43 75
M  V30 78 1 43 76
M  V30 79 1 43 77
M  V30 END BOND
M  V30 END CTAB
M  END
