
     RDKit          3D

  0  0  0  0  0  0  0  0  0  0999 V3000
M  V30 BEGIN CTAB
M  V30 COUNTS 59 61 0 0 0
M  V30 BEGIN ATOM
M  V30 1 N 7.20201 3.62803 -0.486733 0
M  V30 2 C 6.6228 2.34561 -0.24119 0
M  V30 3 N 6.62272 1.37831 -1.17525 0
M  V30 4 C 6.08237 0.160831 -0.963871 0
M  V30 5 C 5.49085 -0.168464 0.235943 0
M  V30 6 C 5.02534 -1.5333 0.159534 0
M  V30 7 C 3.86912 -1.96908 0.973935 0
M  V30 8 C 2.55991 -1.31747 0.727631 0
M  V30 9 C 1.47911 -1.86353 1.67741 0
M  V30 10 C 0.204155 -1.20521 1.41681 0
M  V30 11 C -0.676431 -1.73892 0.512455 0
M  V30 12 C -1.88592 -1.12024 0.255293 0
M  V30 13 C -2.25858 0.0654543 0.901082 0
M  V30 14 C -1.34731 0.570462 1.8029 0
M  V30 15 C -0.124961 -0.046587 2.06902 0
M  V30 16 C -3.53134 0.686828 0.605404 0
M  V30 17 O -3.70192 1.89083 0.88818 0
M  V30 18 N -4.56337 -0.0476795 0.00791181 0
M  V30 19 C -5.88047 0.531139 -0.330597 0 CFG=1
M  V30 20 C -6.0724 0.247803 -1.77708 0
M  V30 21 C -7.31701 0.723882 -2.41356 0
M  V30 22 C -7.46281 2.19288 -2.35134 0
M  V30 23 O -7.65657 2.91218 -3.51233 0
M  V30 24 O -7.41502 2.82441 -1.2734 0
M  V30 25 C -6.8728 -0.162817 0.538335 0
M  V30 26 O -8.22827 0.0932456 0.542115 0
M  V30 27 O -6.46479 -1.05023 1.33426 0
M  V30 28 C 4.73604 -1.6874 -1.34315 0
M  V30 29 C 5.99415 -1.04169 -1.88718 0
M  V30 30 C 5.49719 0.843537 1.19919 0
M  V30 31 N 4.91386 0.513979 2.44508 0
M  V30 32 N 6.04748 2.02181 0.923854 0
M  V30 33 H 7.13597 4.10836 -1.40982 0
M  V30 34 H 7.71408 4.12175 0.271424 0
M  V30 35 H 5.88263 -2.20888 0.356396 0
M  V30 36 H 3.73824 -3.05771 0.789816 0
M  V30 37 H 4.15078 -1.90198 2.05058 0
M  V30 38 H 2.6099 -0.22738 0.790947 0
M  V30 39 H 2.13693 -1.53082 -0.282819 0
M  V30 40 H 1.79412 -1.59029 2.70181 0
M  V30 41 H 1.40447 -2.96922 1.56203 0
M  V30 42 H -0.433342 -2.66748 -0.0242804 0
M  V30 43 H -2.542 -1.57001 -0.457964 0
M  V30 44 H -1.62334 1.48941 2.30778 0
M  V30 45 H 0.535684 0.424026 2.7991 0
M  V30 46 H -4.48979 -1.0693 -0.247768 0
M  V30 47 H -5.79178 1.59454 -0.0601093 0
M  V30 48 H -5.20898 0.714011 -2.32609 0
M  V30 49 H -5.98738 -0.87014 -1.89208 0
M  V30 50 H -8.18382 0.239603 -1.90467 0
M  V30 51 H -7.33611 0.40065 -3.48355 0
M  V30 52 H -8.13684 3.79102 -3.56763 0
M  V30 53 H -8.89369 -0.579069 0.884545 0
M  V30 54 H 3.8984 -1.01201 -1.66382 0
M  V30 55 H 4.59947 -2.73157 -1.63105 0
M  V30 56 H 5.87543 -0.675364 -2.92327 0
M  V30 57 H 6.88977 -1.68582 -1.74338 0
M  V30 58 H 3.92264 0.769244 2.6522 0
M  V30 59 H 5.45143 0.0158297 3.17295 0
M  V30 END ATOM
M  V30 BEGIN BOND
M  V30 1 1 1 2
M  V30 2 2 2 3
M  V30 3 1 3 4
M  V30 4 2 4 5
M  V30 5 1 5 6
M  V30 6 1 6 7
M  V30 7 1 7 8
M  V30 8 1 8 9
M  V30 9 1 9 10
M  V30 10 2 10 11
M  V30 11 1 11 12
M  V30 12 2 12 13
M  V30 13 1 13 14
M  V30 14 2 14 15
M  V30 15 1 13 16
M  V30 16 2 16 17
M  V30 17 1 16 18
M  V30 18 1 18 19
M  V30 19 1 19 20
M  V30 20 1 20 21
M  V30 21 1 21 22
M  V30 22 1 22 23
M  V30 23 2 22 24
M  V30 24 1 19 25
M  V30 25 1 25 26
M  V30 26 2 25 27
M  V30 27 1 6 28
M  V30 28 1 28 29
M  V30 29 1 5 30
M  V30 30 1 30 31
M  V30 31 2 30 32
M  V30 32 1 32 2
M  V30 33 1 29 4
M  V30 34 1 15 10
M  V30 35 1 1 33
M  V30 36 1 1 34
M  V30 37 1 6 35
M  V30 38 1 7 36
M  V30 39 1 7 37
M  V30 40 1 8 38
M  V30 41 1 8 39
M  V30 42 1 9 40
M  V30 43 1 9 41
M  V30 44 1 11 42
M  V30 45 1 12 43
M  V30 46 1 14 44
M  V30 47 1 15 45
M  V30 48 1 18 46
M  V30 49 1 19 47 CFG=3
M  V30 50 1 20 48
M  V30 51 1 20 49
M  V30 52 1 21 50
M  V30 53 1 21 51
M  V30 54 1 23 52
M  V30 55 1 26 53
M  V30 56 1 28 54
M  V30 57 1 28 55
M  V30 58 1 29 56
M  V30 59 1 29 57
M  V30 60 1 31 58
M  V30 61 1 31 59
M  V30 END BOND
M  V30 END CTAB
M  END
