
     RDKit          3D

  0  0  0  0  0  0  0  0  0  0999 V3000
M  V30 BEGIN CTAB
M  V30 COUNTS 24 24 0 0 0
M  V30 BEGIN ATOM
M  V30 1 C -3.2987 -1.53608 -0.623311 0
M  V30 2 N -2.65243 -0.292844 -0.342486 0
M  V30 3 C -1.23301 -0.144704 -0.262598 0
M  V30 4 C -0.382269 -1.20887 -0.455279 0
M  V30 5 C 0.992456 -1.03189 -0.37108 0
M  V30 6 C 1.56641 0.181249 -0.098323 0
M  V30 7 C 0.691729 1.25114 0.094727 0
M  V30 8 C -0.67041 1.0747 0.0110726 0
M  V30 9 N -1.50184 2.20037 0.217233 0
M  V30 10 S 3.29746 0.389618 0.00469393 0
M  V30 11 O 3.6627 1.80222 -0.419552 0
M  V30 12 O 3.98654 -0.602896 -0.912051 0
M  V30 13 N 3.78812 0.119851 1.64698 0
M  V30 14 H -3.43074 -1.6325 -1.70195 0
M  V30 15 H -2.71496 -2.38437 -0.2025 0
M  V30 16 H -4.31422 -1.60404 -0.134742 0
M  V30 17 H -3.25355 0.544895 -0.189079 0
M  V30 18 H -0.741417 -2.18356 -0.671012 0
M  V30 19 H 1.66295 -1.88336 -0.525617 0
M  V30 20 H 1.15967 2.2118 0.311187 0
M  V30 21 H -1.88549 2.80032 -0.543934 0
M  V30 22 H -1.74783 2.44677 1.1999 0
M  V30 23 H 2.97158 0.372342 2.24781 0
M  V30 24 H 4.04728 -0.890152 1.7199 0
M  V30 END ATOM
M  V30 BEGIN BOND
M  V30 1 1 1 2
M  V30 2 1 2 3
M  V30 3 2 3 4
M  V30 4 1 4 5
M  V30 5 2 5 6
M  V30 6 1 6 7
M  V30 7 2 7 8
M  V30 8 1 8 9
M  V30 9 1 6 10
M  V30 10 2 10 11
M  V30 11 2 10 12
M  V30 12 1 10 13
M  V30 13 1 8 3
M  V30 14 1 1 14
M  V30 15 1 1 15
M  V30 16 1 1 16
M  V30 17 1 2 17
M  V30 18 1 4 18
M  V30 19 1 5 19
M  V30 20 1 7 20
M  V30 21 1 9 21
M  V30 22 1 9 22
M  V30 23 1 13 23
M  V30 24 1 13 24
M  V30 END BOND
M  V30 END CTAB
M  END
