
     RDKit          3D

  0  0  0  0  0  0  0  0  0  0999 V3000
M  V30 BEGIN CTAB
M  V30 COUNTS 20 20 0 0 0
M  V30 BEGIN ATOM
M  V30 1 F 4.0482 0.315879 -0.488012 0
M  V30 2 C 3.68863 -0.905208 0.0552016 0
M  V30 3 S 2.2791 -1.65044 -0.820292 0
M  V30 4 C 0.801819 -0.703329 -0.608171 0
M  V30 5 C 0.469236 0.306427 -1.48639 0
M  V30 6 C -0.686523 1.0378 -1.30971 0
M  V30 7 C -1.56965 0.812042 -0.262972 0
M  V30 8 C -1.2202 -0.202481 0.605887 0
M  V30 9 C -0.065922 -0.940367 0.438358 0
M  V30 10 N -2.07622 -0.480583 1.6903 0
M  V30 11 N -2.75529 1.58005 -0.106498 0
M  V30 12 F 3.41491 -0.795952 1.40131 0
M  V30 13 H 4.54876 -1.58817 -0.101696 0
M  V30 14 H 1.10048 0.558808 -2.34247 0
M  V30 15 H -0.960474 1.83257 -1.98907 0
M  V30 16 H 0.152888 -1.73496 1.16911 0
M  V30 17 H -1.76061 -1.09717 2.47106 0
M  V30 18 H -3.03448 -0.0932514 1.75699 0
M  V30 19 H -2.77815 2.35752 0.583031 0
M  V30 20 H -3.59649 1.3908 -0.655956 0
M  V30 END ATOM
M  V30 BEGIN BOND
M  V30 1 1 1 2
M  V30 2 1 2 3
M  V30 3 1 3 4
M  V30 4 2 4 5
M  V30 5 1 5 6
M  V30 6 2 6 7
M  V30 7 1 7 8
M  V30 8 2 8 9
M  V30 9 1 8 10
M  V30 10 1 7 11
M  V30 11 1 2 12
M  V30 12 1 9 4
M  V30 13 1 2 13
M  V30 14 1 5 14
M  V30 15 1 6 15
M  V30 16 1 9 16
M  V30 17 1 10 17
M  V30 18 1 10 18
M  V30 19 1 11 19
M  V30 20 1 11 20
M  V30 END BOND
M  V30 END CTAB
M  END
