
     RDKit          3D

  0  0  0  0  0  0  0  0  0  0999 V3000
M  V30 BEGIN CTAB
M  V30 COUNTS 53 55 0 0 0
M  V30 BEGIN ATOM
M  V30 1 C -0.93336 3.91467 2.76988 0
M  V30 2 O -1.21572 2.5427 2.61645 0
M  V30 3 C -0.24932 1.74413 1.96398 0
M  V30 4 C -0.414394 0.394736 1.75691 0
M  V30 5 C -1.6266 -0.284187 2.25365 0
M  V30 6 C -2.88919 0.00698707 1.52095 0
M  V30 7 C -3.17409 -0.555469 0.289805 0
M  V30 8 C -2.32721 -1.62534 -0.271949 0
M  V30 9 C -4.35903 -0.14524 -0.332031 0
M  V30 10 C -5.22023 0.782552 0.265507 0
M  V30 11 N -4.91078 1.29759 1.46132 0
M  V30 12 C -3.79618 0.927257 2.06232 0
M  V30 13 N -6.35276 1.17176 -0.370084 0
M  V30 14 C -6.65986 0.676456 -1.5765 0
M  V30 15 N -7.85423 1.10246 -2.21725 0
M  V30 16 N -5.8727 -0.208475 -2.19411 0
M  V30 17 C -4.71194 -0.615579 -1.55571 0
M  V30 18 N -3.88821 -1.50514 -2.26151 0
M  V30 19 C 0.599781 -0.288769 1.10846 0
M  V30 20 C 1.76537 0.271046 0.649768 0
M  V30 21 C 1.89039 1.63611 0.879186 0
M  V30 22 C 0.915173 2.34904 1.51544 0
M  V30 23 C 2.7641 -0.514977 -0.0135792 0
M  V30 24 C 3.61641 -1.17741 -0.554805 0
M  V30 25 C 4.6688 -1.99491 -1.19471 0
M  V30 26 C 5.99533 -1.30407 -0.953321 0
M  V30 27 C 7.14263 -2.03798 -1.55434 0
M  V30 28 C 8.39869 -1.30703 -1.27935 0
M  V30 29 O 9.6393 -1.759 -1.72419 0
M  V30 30 O 8.34509 -0.23875 -0.620288 0
M  V30 31 H -0.829578 4.46072 1.826 0
M  V30 32 H -0.0584505 4.07044 3.45134 0
M  V30 33 H -1.80428 4.35626 3.31689 0
M  V30 34 H -1.47721 -1.36152 2.47617 0
M  V30 35 H -1.7739 0.155644 3.29589 0
M  V30 36 H -1.53583 -1.35263 -0.940892 0
M  V30 37 H -2.85345 -2.60291 -0.442744 0
M  V30 38 H -1.73584 -2.01599 0.638155 0
M  V30 39 H -3.59391 1.33201 3.03442 0
M  V30 40 H -7.91643 1.2524 -3.24719 0
M  V30 41 H -8.74814 1.29024 -1.67429 0
M  V30 42 H -3.03781 -1.15882 -2.73852 0
M  V30 43 H -4.12639 -2.51387 -2.33471 0
M  V30 44 H 0.513303 -1.37405 0.935223 0
M  V30 45 H 2.82249 2.09745 0.515409 0
M  V30 46 H 1.06287 3.40641 1.66845 0
M  V30 47 H 4.68169 -2.97506 -0.6954 0
M  V30 48 H 4.43342 -2.07007 -2.27178 0
M  V30 49 H 5.87235 -0.269462 -1.38885 0
M  V30 50 H 6.08893 -1.1562 0.129232 0
M  V30 51 H 7.00466 -2.28177 -2.61356 0
M  V30 52 H 7.23051 -3.00917 -0.986401 0
M  V30 53 H 10.4958 -1.53523 -1.23155 0
M  V30 END ATOM
M  V30 BEGIN BOND
M  V30 1 1 1 2
M  V30 2 1 2 3
M  V30 3 2 3 4
M  V30 4 1 4 5
M  V30 5 1 5 6
M  V30 6 2 6 7
M  V30 7 1 7 8
M  V30 8 1 7 9
M  V30 9 2 9 10
M  V30 10 1 10 11
M  V30 11 2 11 12
M  V30 12 1 10 13
M  V30 13 2 13 14
M  V30 14 1 14 15
M  V30 15 1 14 16
M  V30 16 2 16 17
M  V30 17 1 17 18
M  V30 18 1 4 19
M  V30 19 2 19 20
M  V30 20 1 20 21
M  V30 21 2 21 22
M  V30 22 1 20 23
M  V30 23 3 23 24
M  V30 24 1 24 25
M  V30 25 1 25 26
M  V30 26 1 26 27
M  V30 27 1 27 28
M  V30 28 1 28 29
M  V30 29 2 28 30
M  V30 30 1 22 3
M  V30 31 1 12 6
M  V30 32 1 17 9
M  V30 33 1 1 31
M  V30 34 1 1 32
M  V30 35 1 1 33
M  V30 36 1 5 34
M  V30 37 1 5 35
M  V30 38 1 8 36
M  V30 39 1 8 37
M  V30 40 1 8 38
M  V30 41 1 12 39
M  V30 42 1 15 40
M  V30 43 1 15 41
M  V30 44 1 18 42
M  V30 45 1 18 43
M  V30 46 1 19 44
M  V30 47 1 21 45
M  V30 48 1 22 46
M  V30 49 1 25 47
M  V30 50 1 25 48
M  V30 51 1 26 49
M  V30 52 1 26 50
M  V30 53 1 27 51
M  V30 54 1 27 52
M  V30 55 1 29 53
M  V30 END BOND
M  V30 END CTAB
M  END
