
     RDKit          3D

  0  0  0  0  0  0  0  0  0  0999 V3000
M  V30 BEGIN CTAB
M  V30 COUNTS 59 62 0 0 0
M  V30 BEGIN ATOM
M  V30 1 N -2.07016 -3.85496 1.69246 0
M  V30 2 C -2.60934 -2.56813 1.36543 0
M  V30 3 N -2.69886 -1.61439 2.30777 0
M  V30 4 C -3.19741 -0.392997 2.04886 0
M  V30 5 N -3.29884 0.624431 3.02698 0
M  V30 6 C -3.64825 -0.0786822 0.751082 0
M  V30 7 C -4.22358 1.2264 0.514905 0
M  V30 8 C -5.60757 1.39167 0.424975 0
M  V30 9 C -6.19986 2.61401 0.247091 0
M  V30 10 C -5.44938 3.76363 0.145793 0
M  V30 11 Cl -6.22066 5.31965 -0.0814355 0
M  V30 12 C -4.0748 3.6363 0.230257 0
M  V30 13 C -3.4845 2.40409 0.409167 0
M  V30 14 C -3.56136 -1.03206 -0.201432 0
M  V30 15 C -3.98781 -0.823431 -1.60029 0
M  V30 16 C -2.95648 -0.142231 -2.39121 0
M  V30 17 C -1.64929 -0.826946 -2.46413 0
M  V30 18 C -1.32376 -1.77249 -3.40859 0
M  V30 19 C -0.0784543 -2.32145 -3.36996 0
M  V30 20 C 0.895723 -1.98016 -2.42236 0
M  V30 21 C 0.57974 -1.0393 -1.48008 0
M  V30 22 N 1.4694 -0.586052 -0.500472 0
M  V30 23 C 2.87348 -0.620315 -0.58523 0
M  V30 24 O 3.40765 -1.08338 -1.61397 0
M  V30 25 N 3.67607 -0.13309 0.486286 0
M  V30 26 C 5.07983 -0.143876 0.473528 0
M  V30 27 C 5.90023 -0.939589 -0.274082 0
M  V30 28 C 7.29301 -0.841395 -0.224423 0
M  V30 29 C 7.89748 0.0801589 0.598139 0
M  V30 30 C 7.10722 0.905824 1.37359 0
M  V30 31 C 5.76562 0.78135 1.29775 0
M  V30 32 S 7.90637 2.07932 2.41756 0
M  V30 33 F 8.21504 1.46098 3.91921 0
M  V30 34 O 9.24484 2.43298 1.78309 0
M  V30 35 O 7.06471 3.31414 2.45589 0
M  V30 36 C -0.714413 -0.474478 -1.52592 0
M  V30 37 N -3.03776 -2.2613 0.142526 0
M  V30 38 H -2.59562 -4.72166 1.42691 0
M  V30 39 H -1.1658 -3.9822 2.19018 0
M  V30 40 H -4.18638 0.975864 3.42421 0
M  V30 41 H -2.41439 1.0584 3.37889 0
M  V30 42 H -6.21307 0.491548 0.504513 0
M  V30 43 H -7.28633 2.73362 0.177617 0
M  V30 44 H -3.46876 4.52656 0.154095 0
M  V30 45 H -2.40421 2.26541 0.47995 0
M  V30 46 H -4.37924 -1.76334 -2.05987 0
M  V30 47 H -4.8989 -0.152908 -1.59627 0
M  V30 48 H -3.28134 -0.0420064 -3.48285 0
M  V30 49 H -2.78644 0.89095 -2.08062 0
M  V30 50 H -2.08815 -2.01733 -4.12347 0
M  V30 51 H 0.16371 -3.0681 -4.12773 0
M  V30 52 H 1.85141 -2.47789 -2.45038 0
M  V30 53 H 1.05658 -0.178658 0.395261 0
M  V30 54 H 3.19219 0.26251 1.3508 0
M  V30 55 H 5.48064 -1.68705 -0.919285 0
M  V30 56 H 7.93376 -1.47408 -0.819103 0
M  V30 57 H 8.97417 0.162737 0.642236 0
M  V30 58 H 5.15276 1.43231 1.9089 0
M  V30 59 H -0.920476 0.261093 -0.768482 0
M  V30 END ATOM
M  V30 BEGIN BOND
M  V30 1 1 1 2
M  V30 2 2 2 3
M  V30 3 1 3 4
M  V30 4 1 4 5
M  V30 5 2 4 6
M  V30 6 1 6 7
M  V30 7 2 7 8
M  V30 8 1 8 9
M  V30 9 2 9 10
M  V30 10 1 10 11
M  V30 11 1 10 12
M  V30 12 2 12 13
M  V30 13 1 6 14
M  V30 14 1 14 15
M  V30 15 1 15 16
M  V30 16 1 16 17
M  V30 17 2 17 18
M  V30 18 1 18 19
M  V30 19 2 19 20
M  V30 20 1 20 21
M  V30 21 1 21 22
M  V30 22 1 22 23
M  V30 23 2 23 24
M  V30 24 1 23 25
M  V30 25 1 25 26
M  V30 26 2 26 27
M  V30 27 1 27 28
M  V30 28 2 28 29
M  V30 29 1 29 30
M  V30 30 2 30 31
M  V30 31 1 30 32
M  V30 32 1 32 33
M  V30 33 2 32 34
M  V30 34 2 32 35
M  V30 35 2 21 36
M  V30 36 2 14 37
M  V30 37 1 37 2
M  V30 38 1 13 7
M  V30 39 1 36 17
M  V30 40 1 31 26
M  V30 41 1 1 38
M  V30 42 1 1 39
M  V30 43 1 5 40
M  V30 44 1 5 41
M  V30 45 1 8 42
M  V30 46 1 9 43
M  V30 47 1 12 44
M  V30 48 1 13 45
M  V30 49 1 15 46
M  V30 50 1 15 47
M  V30 51 1 16 48
M  V30 52 1 16 49
M  V30 53 1 18 50
M  V30 54 1 19 51
M  V30 55 1 20 52
M  V30 56 1 22 53
M  V30 57 1 25 54
M  V30 58 1 27 55
M  V30 59 1 28 56
M  V30 60 1 29 57
M  V30 61 1 31 58
M  V30 62 1 36 59
M  V30 END BOND
M  V30 END CTAB
M  END
