
     RDKit          3D

  0  0  0  0  0  0  0  0  0  0999 V3000
M  V30 BEGIN CTAB
M  V30 COUNTS 22 22 0 0 0
M  V30 BEGIN ATOM
M  V30 1 N 3.47876 -1.73954 0.556333 0
M  V30 2 C 2.81285 -0.575845 0.100145 0
M  V30 3 N 3.52385 0.57083 -0.329823 0
M  V30 4 N 1.53232 -0.548577 0.0713544 0
M  V30 5 S 0.664862 0.824548 -0.468097 0
M  V30 6 O 1.00783 1.04507 -1.91536 0
M  V30 7 O 0.947305 2.05022 0.357139 0
M  V30 8 C -1.05562 0.443739 -0.315622 0
M  V30 9 C -1.71605 -0.144435 -1.38029 0
M  V30 10 F -0.985665 -0.398183 -2.50057 0
M  V30 11 C -3.05672 -0.454567 -1.29558 0
M  V30 12 F -3.66033 -1.03631 -2.3809 0
M  V30 13 C -3.75748 -0.17948 -0.140351 0
M  V30 14 F -5.08095 -0.495968 -0.0829829 0
M  V30 15 C -3.08589 0.403098 0.902825 0
M  V30 16 F -3.76925 0.67694 2.04352 0
M  V30 17 C -1.74546 0.724103 0.845907 0
M  V30 18 F -1.08562 1.29961 1.87879 0
M  V30 19 H 3.13307 -2.71293 0.338486 0
M  V30 20 H 4.35146 -1.66785 1.13498 0
M  V30 21 H 3.33577 1.47088 0.145626 0
M  V30 22 H 4.21096 0.444655 -1.11634 0
M  V30 END ATOM
M  V30 BEGIN BOND
M  V30 1 1 1 2
M  V30 2 1 2 3
M  V30 3 2 2 4
M  V30 4 1 4 5
M  V30 5 2 5 6
M  V30 6 2 5 7
M  V30 7 1 5 8
M  V30 8 2 8 9
M  V30 9 1 9 10
M  V30 10 1 9 11
M  V30 11 1 11 12
M  V30 12 2 11 13
M  V30 13 1 13 14
M  V30 14 1 13 15
M  V30 15 1 15 16
M  V30 16 2 15 17
M  V30 17 1 17 18
M  V30 18 1 17 8
M  V30 19 1 1 19
M  V30 20 1 1 20
M  V30 21 1 3 21
M  V30 22 1 3 22
M  V30 END BOND
M  V30 END CTAB
M  END
