
     RDKit          3D

  0  0  0  0  0  0  0  0  0  0999 V3000
M  V30 BEGIN CTAB
M  V30 COUNTS 21 21 0 0 0
M  V30 BEGIN ATOM
M  V30 1 N -0.625552 2.95584 -0.0824354 0
M  V30 2 O -0.731952 1.94396 0.773187 0
M  V30 3 C -0.219986 0.787583 0.067622 0
M  V30 4 C 0.925187 0.274683 0.836349 0
M  V30 5 O 1.12938 0.764258 1.99495 0
M  V30 6 N 1.83523 -0.712425 0.418661 0
M  V30 7 N 2.90501 -1.12037 1.2761 0
M  V30 8 C -1.3733 -0.180917 -0.0640629 0
M  V30 9 C -1.18298 -1.45139 -0.75585 0
M  V30 10 C -1.3672 -1.43933 0.732098 0
M  V30 11 H -0.0455466 3.74234 0.221965 0
M  V30 12 H -1.56585 3.20485 -0.431414 0
M  V30 13 H 0.0987047 1.07932 -0.943955 0
M  V30 14 H 1.85396 -1.2124 -0.48984 0
M  V30 15 H 2.40591 -1.57765 2.08892 0
M  V30 16 H 3.40989 -0.251029 1.58482 0
M  V30 17 H -2.36653 0.339979 -0.121204 0
M  V30 18 H -0.225348 -1.82266 -1.11763 0
M  V30 19 H -2.02907 -1.90635 -1.36449 0
M  V30 20 H -2.32293 -1.80416 1.15974 0
M  V30 21 H -0.507034 -1.61414 1.40905 0
M  V30 END ATOM
M  V30 BEGIN BOND
M  V30 1 1 1 2
M  V30 2 1 2 3
M  V30 3 1 3 4
M  V30 4 2 4 5
M  V30 5 1 4 6
M  V30 6 1 6 7
M  V30 7 1 3 8
M  V30 8 1 8 9
M  V30 9 1 9 10
M  V30 10 1 10 8
M  V30 11 1 1 11
M  V30 12 1 1 12
M  V30 13 1 3 13
M  V30 14 1 6 14
M  V30 15 1 7 15
M  V30 16 1 7 16
M  V30 17 1 8 17
M  V30 18 1 9 18
M  V30 19 1 9 19
M  V30 20 1 10 20
M  V30 21 1 10 21
M  V30 END BOND
M  V30 END CTAB
M  END
