
     RDKit          3D

  0  0  0  0  0  0  0  0  0  0999 V3000
M  V30 BEGIN CTAB
M  V30 COUNTS 34 36 0 0 0
M  V30 BEGIN ATOM
M  V30 1 N -5.44488 1.3086 -0.959953 0
M  V30 2 C -4.27233 0.638091 -0.557656 0
M  V30 3 N -4.29781 -0.437358 0.267576 0
M  V30 4 C -3.15124 -1.04048 0.620771 0
M  V30 5 N -3.15437 -2.17639 1.49013 0
M  V30 6 C -1.93939 -0.565373 0.142859 0
M  V30 7 N -0.817476 -1.2049 0.52625 0
M  V30 8 C 0.36621 -0.756666 0.0715666 0
M  V30 9 C 1.41353 -1.65796 0.662266 0
M  V30 10 C 2.5181 -0.770656 1.25006 0
M  V30 11 C 3.49708 -0.388432 0.192033 0
M  V30 12 C 3.59388 1.08996 -0.0408139 0
M  V30 13 C 2.29018 1.74335 -0.35025 0
M  V30 14 C 1.50415 1.05417 -1.42133 0
M  V30 15 C 0.374816 0.338844 -0.76742 0
M  V30 16 N -0.736726 0.987589 -1.15885 0
M  V30 17 C -1.93881 0.532816 -0.697421 0
M  V30 18 N -3.08872 1.10255 -1.02476 0
M  V30 19 H -5.96882 1.87995 -0.282639 0
M  V30 20 H -5.77627 1.22582 -1.93241 0
M  V30 21 H -3.52225 -3.07309 1.05323 0
M  V30 22 H -2.83045 -2.14271 2.45971 0
M  V30 23 H 1.83792 -2.23448 -0.184255 0
M  V30 24 H 0.944823 -2.29224 1.41208 0
M  V30 25 H 1.99675 0.110511 1.68757 0
M  V30 26 H 2.96911 -1.31197 2.105 0
M  V30 27 H 4.51494 -0.722971 0.541311 0
M  V30 28 H 3.32657 -0.895711 -0.7722 0
M  V30 29 H 4.04283 1.62647 0.827295 0
M  V30 30 H 4.29667 1.24862 -0.89131 0
M  V30 31 H 2.52623 2.77623 -0.740541 0
M  V30 32 H 1.67417 1.92094 0.566346 0
M  V30 33 H 2.16947 0.32261 -1.92902 0
M  V30 34 H 1.08211 1.76426 -2.16524 0
M  V30 END ATOM
M  V30 BEGIN BOND
M  V30 1 1 1 2
M  V30 2 2 2 3
M  V30 3 1 3 4
M  V30 4 1 4 5
M  V30 5 2 4 6
M  V30 6 1 6 7
M  V30 7 2 7 8
M  V30 8 1 8 9
M  V30 9 1 9 10
M  V30 10 1 10 11
M  V30 11 1 11 12
M  V30 12 1 12 13
M  V30 13 1 13 14
M  V30 14 1 14 15
M  V30 15 2 15 16
M  V30 16 1 16 17
M  V30 17 2 17 18
M  V30 18 1 18 2
M  V30 19 1 17 6
M  V30 20 1 15 8
M  V30 21 1 1 19
M  V30 22 1 1 20
M  V30 23 1 5 21
M  V30 24 1 5 22
M  V30 25 1 9 23
M  V30 26 1 9 24
M  V30 27 1 10 25
M  V30 28 1 10 26
M  V30 29 1 11 27
M  V30 30 1 11 28
M  V30 31 1 12 29
M  V30 32 1 12 30
M  V30 33 1 13 31
M  V30 34 1 13 32
M  V30 35 1 14 33
M  V30 36 1 14 34
M  V30 END BOND
M  V30 END CTAB
M  END
