
     RDKit          3D

  0  0  0  0  0  0  0  0  0  0999 V3000
M  V30 BEGIN CTAB
M  V30 COUNTS 34 35 0 0 0
M  V30 BEGIN ATOM
M  V30 1 N -3.85325 -2.55973 0.503147 0
M  V30 2 C -3.80864 -1.16026 0.258076 0
M  V30 3 N -2.82513 -0.575278 -0.444394 0
M  V30 4 C -2.77259 0.753244 -0.682406 0
M  V30 5 C -1.64311 1.34928 -1.47852 0
M  V30 6 S -0.334335 1.77389 -0.299566 0
M  V30 7 C 0.294859 0.221146 0.390642 0
M  V30 8 C 0.971811 -0.575211 -0.64433 0
M  V30 9 O 2.15018 -0.177301 -1.21292 0
M  V30 10 C 3.37696 -0.0554269 -0.575026 0
M  V30 11 C 4.04956 -1.30871 -0.476688 0
M  V30 12 Cl 3.34578 -2.77529 -1.1061 0
M  V30 13 C 5.26871 -1.34638 0.124218 0
M  V30 14 C 5.86249 -0.206641 0.636158 0
M  V30 15 C 5.19652 0.988813 0.529245 0
M  V30 16 C 3.93638 1.05924 -0.0870705 0
M  V30 17 Cl 3.23763 2.63485 -0.216849 0
M  V30 18 N -3.74355 1.5172 -0.196074 0
M  V30 19 C -4.75916 0.977354 0.519508 0
M  V30 20 N -4.7751 -0.351369 0.73462 0
M  V30 21 N -5.78126 1.80936 1.02632 0
M  V30 22 H -3.00466 -3.06723 0.823222 0
M  V30 23 H -4.72846 -3.0995 0.368111 0
M  V30 24 H -2.00384 2.23369 -2.04195 0
M  V30 25 H -1.28425 0.623034 -2.2501 0
M  V30 26 H -0.58611 -0.329424 0.844623 0
M  V30 27 H 0.965131 0.49923 1.24703 0
M  V30 28 H 1.08158 -1.62807 -0.209634 0
M  V30 29 H 0.25636 -0.7652 -1.52802 0
M  V30 30 H 5.79507 -2.30003 0.205917 0
M  V30 31 H 6.8322 -0.262685 1.11074 0
M  V30 32 H 5.6688 1.8779 0.932493 0
M  V30 33 H -6.73187 1.72795 0.59571 0
M  V30 34 H -5.6547 2.49755 1.79859 0
M  V30 END ATOM
M  V30 BEGIN BOND
M  V30 1 1 1 2
M  V30 2 2 2 3
M  V30 3 1 3 4
M  V30 4 1 4 5
M  V30 5 1 5 6
M  V30 6 1 6 7
M  V30 7 1 7 8
M  V30 8 1 8 9
M  V30 9 1 9 10
M  V30 10 2 10 11
M  V30 11 1 11 12
M  V30 12 1 11 13
M  V30 13 2 13 14
M  V30 14 1 14 15
M  V30 15 2 15 16
M  V30 16 1 16 17
M  V30 17 2 4 18
M  V30 18 1 18 19
M  V30 19 2 19 20
M  V30 20 1 19 21
M  V30 21 1 20 2
M  V30 22 1 16 10
M  V30 23 1 1 22
M  V30 24 1 1 23
M  V30 25 1 5 24
M  V30 26 1 5 25
M  V30 27 1 7 26
M  V30 28 1 7 27
M  V30 29 1 8 28
M  V30 30 1 8 29
M  V30 31 1 13 30
M  V30 32 1 14 31
M  V30 33 1 15 32
M  V30 34 1 21 33
M  V30 35 1 21 34
M  V30 END BOND
M  V30 END CTAB
M  END
