
     RDKit          3D

  0  0  0  0  0  0  0  0  0  0999 V3000
M  V30 BEGIN CTAB
M  V30 COUNTS 32 33 0 0 0
M  V30 BEGIN ATOM
M  V30 1 N 4.71528 0.733209 0.913829 0
M  V30 2 C 3.73945 1.74415 0.529724 0
M  V30 3 C 2.81738 1.32137 -0.534633 0
M  V30 4 C 1.94756 0.168774 -0.273569 0
M  V30 5 C 2.48139 -1.09687 -0.365662 0
M  V30 6 C 1.66141 -2.19949 -0.255492 0
M  V30 7 C 0.298697 -2.04812 -0.0636558 0
M  V30 8 C -0.27631 -0.811354 0.0294984 0
M  V30 9 C 0.57775 0.276869 -0.0765624 0
M  V30 10 C -1.73134 -0.663889 0.0741236 0
M  V30 11 C -2.54007 -1.74285 0.2901 0
M  V30 12 C -3.93309 -1.64936 0.353167 0
M  V30 13 C -4.51421 -0.424563 0.195948 0
M  V30 14 C -3.70947 0.694866 -0.0201947 0
M  V30 15 C -2.33344 0.569867 -0.0814146 0
M  V30 16 N -4.31414 1.97962 -0.114268 0
M  V30 17 H 5.23984 0.38184 0.0933437 0
M  V30 18 H 4.38379 0.0437637 1.5727 0
M  V30 19 H 3.22611 2.05899 1.47697 0
M  V30 20 H 4.32459 2.61131 0.139591 0
M  V30 21 H 3.43855 1.15116 -1.47648 0
M  V30 22 H 2.20094 2.22764 -0.831234 0
M  V30 23 H 3.53825 -1.26421 -0.510123 0
M  V30 24 H 2.0705 -3.21387 -0.313911 0
M  V30 25 H -0.267376 -2.96252 0.0309635 0
M  V30 26 H 0.194042 1.28104 -0.00598302 0
M  V30 27 H -2.16696 -2.7686 0.435422 0
M  V30 28 H -4.53903 -2.54012 0.508524 0
M  V30 29 H -5.61011 -0.311763 0.231532 0
M  V30 30 H -1.78964 1.45336 -0.242777 0
M  V30 31 H -4.30367 2.54474 -0.990478 0
M  V30 32 H -4.82669 2.45501 0.700909 0
M  V30 END ATOM
M  V30 BEGIN BOND
M  V30 1 1 1 2
M  V30 2 1 2 3
M  V30 3 1 3 4
M  V30 4 2 4 5
M  V30 5 1 5 6
M  V30 6 2 6 7
M  V30 7 1 7 8
M  V30 8 2 8 9
M  V30 9 1 8 10
M  V30 10 2 10 11
M  V30 11 1 11 12
M  V30 12 2 12 13
M  V30 13 1 13 14
M  V30 14 2 14 15
M  V30 15 1 14 16
M  V30 16 1 9 4
M  V30 17 1 15 10
M  V30 18 1 1 17
M  V30 19 1 1 18
M  V30 20 1 2 19
M  V30 21 1 2 20
M  V30 22 1 3 21
M  V30 23 1 3 22
M  V30 24 1 5 23
M  V30 25 1 6 24
M  V30 26 1 7 25
M  V30 27 1 9 26
M  V30 28 1 11 27
M  V30 29 1 12 28
M  V30 30 1 13 29
M  V30 31 1 15 30
M  V30 32 1 16 31
M  V30 33 1 16 32
M  V30 END BOND
M  V30 END CTAB
M  END
