
     RDKit          3D

  0  0  0  0  0  0  0  0  0  0999 V3000
M  V30 BEGIN CTAB
M  V30 COUNTS 36 37 0 0 0
M  V30 BEGIN ATOM
M  V30 1 C -3.16106 -2.70035 0.0870271 0
M  V30 2 C -2.80314 -1.30331 -0.324512 0
M  V30 3 C -1.7072 -0.758394 0.58651 0
M  V30 4 N -1.33266 0.577433 0.229262 0
M  V30 5 C -1.89295 1.7888 0.715549 0
M  V30 6 O -2.78018 1.89492 1.61681 0
M  V30 7 C -1.30762 2.96238 0.0308783 0
M  V30 8 C -0.11319 2.38629 -0.695839 0
M  V30 9 C -0.285649 0.910337 -0.718418 0
M  V30 10 C 0.931598 0.145353 -0.403126 0
M  V30 11 C 1.37406 0.0384681 0.883753 0
M  V30 12 C 2.5061 -0.674237 1.16793 0
M  V30 13 C 3.2064 -1.28803 0.159535 0
M  V30 14 C 2.75489 -1.1747 -1.12446 0
M  V30 15 C 1.61529 -0.459466 -1.42584 0
M  V30 16 N 4.39902 -2.04517 0.41563 0
M  V30 17 N 1.07085 2.84112 -0.0298318 0
M  V30 18 H -2.31774 -3.38065 -0.139763 0
M  V30 19 H -4.09888 -2.97278 -0.410556 0
M  V30 20 H -3.35853 -2.77935 1.18804 0
M  V30 21 H -2.42867 -1.35645 -1.3737 0
M  V30 22 H -3.68748 -0.640736 -0.345228 0
M  V30 23 H -2.09844 -0.788869 1.63095 0
M  V30 24 H -0.872084 -1.48568 0.556412 0
M  V30 25 H -2.01574 3.45874 -0.659088 0
M  V30 26 H -1.01565 3.70372 0.796957 0
M  V30 27 H -0.115364 2.82455 -1.71749 0
M  V30 28 H -0.702172 0.63326 -1.73125 0
M  V30 29 H 0.847386 0.511291 1.71897 0
M  V30 30 H 2.88952 -0.780197 2.19171 0
M  V30 31 H 3.32046 -1.66697 -1.91538 0
M  V30 32 H 1.29509 -0.399524 -2.47633 0
M  V30 33 H 4.5875 -2.85633 -0.211455 0
M  V30 34 H 5.05517 -1.81355 1.18227 0
M  V30 35 H 1.03696 2.7977 1.00071 0
M  V30 36 H 1.20411 3.85038 -0.279719 0
M  V30 END ATOM
M  V30 BEGIN BOND
M  V30 1 1 1 2
M  V30 2 1 2 3
M  V30 3 1 3 4
M  V30 4 1 4 5
M  V30 5 2 5 6
M  V30 6 1 5 7
M  V30 7 1 7 8
M  V30 8 1 8 9
M  V30 9 1 9 10
M  V30 10 2 10 11
M  V30 11 1 11 12
M  V30 12 2 12 13
M  V30 13 1 13 14
M  V30 14 2 14 15
M  V30 15 1 13 16
M  V30 16 1 8 17
M  V30 17 1 9 4
M  V30 18 1 15 10
M  V30 19 1 1 18
M  V30 20 1 1 19
M  V30 21 1 1 20
M  V30 22 1 2 21
M  V30 23 1 2 22
M  V30 24 1 3 23
M  V30 25 1 3 24
M  V30 26 1 7 25
M  V30 27 1 7 26
M  V30 28 1 8 27
M  V30 29 1 9 28
M  V30 30 1 11 29
M  V30 31 1 12 30
M  V30 32 1 14 31
M  V30 33 1 15 32
M  V30 34 1 16 33
M  V30 35 1 16 34
M  V30 36 1 17 35
M  V30 37 1 17 36
M  V30 END BOND
M  V30 END CTAB
M  END
