
     RDKit          3D

  0  0  0  0  0  0  0  0  0  0999 V3000
M  V30 BEGIN CTAB
M  V30 COUNTS 42 43 0 0 0
M  V30 BEGIN ATOM
M  V30 1 N -2.73562 2.40799 -0.632572 0
M  V30 2 C -2.63966 0.970926 -0.812655 0
M  V30 3 C -3.89414 0.304391 -0.361572 0
M  V30 4 C -3.6968 -1.09741 0.110349 0
M  V30 5 C -2.39736 -1.69734 -0.362987 0
M  V30 6 N -1.25526 -0.88668 -0.0168382 0
M  V30 7 C -1.49329 0.51794 0.115528 0
M  V30 8 C -0.00606359 -1.47092 0.184069 0
M  V30 9 O -0.0290628 -2.76454 0.0423888 0
M  V30 10 C 1.29098 -0.874927 0.517184 0
M  V30 11 C 1.29465 0.0830073 1.66584 0
M  V30 12 C 2.04269 1.3635 1.39235 0
M  V30 13 C 3.37356 1.17539 0.76228 0
M  V30 14 C 3.54447 -0.148344 0.0504225 0
M  V30 15 C 2.21657 -0.566274 -0.606271 0
M  V30 16 C 1.88854 0.413514 -1.62413 0
M  V30 17 N 2.54479 -1.83193 -1.29279 0
M  V30 18 H -3.49374 2.66314 0.0483462 0
M  V30 19 H -2.99406 2.87307 -1.54154 0
M  V30 20 H -2.37415 0.745321 -1.86062 0
M  V30 21 H -4.30525 0.910591 0.491438 0
M  V30 22 H -4.64674 0.397384 -1.17072 0
M  V30 23 H -3.82947 -1.23887 1.19799 0
M  V30 24 H -4.50991 -1.7195 -0.366667 0
M  V30 25 H -2.44815 -1.68976 -1.49087 0
M  V30 26 H -2.31749 -2.73642 -0.0562246 0
M  V30 27 H -0.681645 1.18963 -0.134824 0
M  V30 28 H -1.90956 0.693701 1.13955 0
M  V30 29 H 1.87472 -1.77265 0.976466 0
M  V30 30 H 0.29042 0.367999 2.0368 0
M  V30 31 H 1.78782 -0.32286 2.60462 0
M  V30 32 H 2.18126 1.87906 2.36951 0
M  V30 33 H 1.36295 2.05622 0.814224 0
M  V30 34 H 4.20045 1.21361 1.53014 0
M  V30 35 H 3.62395 2.02515 0.0642163 0
M  V30 36 H 4.33347 -0.0162827 -0.709801 0
M  V30 37 H 3.83303 -0.8976 0.829489 0
M  V30 38 H 0.847692 0.444697 -1.99035 0
M  V30 39 H 2.50915 0.198854 -2.53328 0
M  V30 40 H 2.14249 1.48106 -1.37938 0
M  V30 41 H 2.70067 -2.57236 -0.578363 0
M  V30 42 H 1.77309 -2.07149 -1.96197 0
M  V30 END ATOM
M  V30 BEGIN BOND
M  V30 1 1 1 2
M  V30 2 1 2 3
M  V30 3 1 3 4
M  V30 4 1 4 5
M  V30 5 1 5 6
M  V30 6 1 6 7
M  V30 7 1 6 8
M  V30 8 2 8 9
M  V30 9 1 8 10
M  V30 10 1 10 11
M  V30 11 1 11 12
M  V30 12 1 12 13
M  V30 13 1 13 14
M  V30 14 1 14 15
M  V30 15 1 15 16
M  V30 16 1 15 17
M  V30 17 1 7 2
M  V30 18 1 15 10
M  V30 19 1 1 18
M  V30 20 1 1 19
M  V30 21 1 2 20
M  V30 22 1 3 21
M  V30 23 1 3 22
M  V30 24 1 4 23
M  V30 25 1 4 24
M  V30 26 1 5 25
M  V30 27 1 5 26
M  V30 28 1 7 27
M  V30 29 1 7 28
M  V30 30 1 10 29
M  V30 31 1 11 30
M  V30 32 1 11 31
M  V30 33 1 12 32
M  V30 34 1 12 33
M  V30 35 1 13 34
M  V30 36 1 13 35
M  V30 37 1 14 36
M  V30 38 1 14 37
M  V30 39 1 16 38
M  V30 40 1 16 39
M  V30 41 1 16 40
M  V30 42 1 17 41
M  V30 43 1 17 42
M  V30 END BOND
M  V30 END CTAB
M  END
