
     RDKit          3D

  0  0  0  0  0  0  0  0  0  0999 V3000
M  V30 BEGIN CTAB
M  V30 COUNTS 31 32 0 0 0
M  V30 BEGIN ATOM
M  V30 1 N -3.99629 -1.6209 -0.863233 0
M  V30 2 C -3.15237 -0.597671 -0.383227 0
M  V30 3 C -1.9872 -0.213313 -1.00231 0
M  V30 4 C -1.19958 0.788412 -0.496181 0
M  V30 5 C 0.0427564 1.21682 -1.13318 0
M  V30 6 C 1.24237 0.492793 -0.674639 0
M  V30 7 C 2.00507 0.92666 0.402486 0
M  V30 8 C 3.12707 0.238472 0.821659 0
M  V30 9 N 3.91798 0.671578 1.92386 0
M  V30 10 C 3.54009 -0.913182 0.186733 0
M  V30 11 O 4.67976 -1.60354 0.620131 0
M  V30 12 C 2.79188 -1.35285 -0.882273 0
M  V30 13 C 1.67293 -0.661969 -1.29629 0
M  V30 14 C -1.60333 1.41481 0.664992 0
M  V30 15 C -2.77505 1.05273 1.31801 0
M  V30 16 C -3.53998 0.0456519 0.783821 0
M  V30 17 O -4.72489 -0.33586 1.42507 0
M  V30 18 H -4.16681 -1.70994 -1.87696 0
M  V30 19 H -4.44506 -2.2816 -0.210382 0
M  V30 20 H -1.68662 -0.706913 -1.90068 0
M  V30 21 H 0.154363 2.3214 -0.970972 0
M  V30 22 H -0.101872 1.11995 -2.24776 0
M  V30 23 H 1.69492 1.8326 0.915405 0
M  V30 24 H 4.88957 0.981901 1.7028 0
M  V30 25 H 3.59863 0.697375 2.90437 0
M  V30 26 H 4.99382 -2.43445 0.176689 0
M  V30 27 H 3.10398 -2.26326 -1.39734 0
M  V30 28 H 1.06104 -0.994583 -2.14686 0
M  V30 29 H -1.03387 2.2135 1.12368 0
M  V30 30 H -3.09025 1.55756 2.24422 0
M  V30 31 H -5.01304 0.117813 2.26207 0
M  V30 END ATOM
M  V30 BEGIN BOND
M  V30 1 1 1 2
M  V30 2 2 2 3
M  V30 3 1 3 4
M  V30 4 1 4 5
M  V30 5 1 5 6
M  V30 6 2 6 7
M  V30 7 1 7 8
M  V30 8 1 8 9
M  V30 9 2 8 10
M  V30 10 1 10 11
M  V30 11 1 10 12
M  V30 12 2 12 13
M  V30 13 2 4 14
M  V30 14 1 14 15
M  V30 15 2 15 16
M  V30 16 1 16 17
M  V30 17 1 16 2
M  V30 18 1 13 6
M  V30 19 1 1 18
M  V30 20 1 1 19
M  V30 21 1 3 20
M  V30 22 1 5 21
M  V30 23 1 5 22
M  V30 24 1 7 23
M  V30 25 1 9 24
M  V30 26 1 9 25
M  V30 27 1 11 26
M  V30 28 1 12 27
M  V30 29 1 13 28
M  V30 30 1 14 29
M  V30 31 1 15 30
M  V30 32 1 17 31
M  V30 END BOND
M  V30 END CTAB
M  END
