
     RDKit          3D

  0  0  0  0  0  0  0  0  0  0999 V3000
M  V30 BEGIN CTAB
M  V30 COUNTS 35 37 0 0 0
M  V30 BEGIN ATOM
M  V30 1 N 2.09575 0.772421 3.31286 0
M  V30 2 C 2.26347 0.598514 1.90332 0
M  V30 3 N 1.21387 0.394402 1.08944 0
M  V30 4 C 1.37721 0.233067 -0.222631 0
M  V30 5 C 2.6451 0.273478 -0.775461 0
M  V30 6 C 2.48168 0.0771521 -2.12809 0
M  V30 7 I 4.05232 0.0316855 -3.52537 0
M  V30 8 C 1.12658 -0.0735193 -2.33808 0
M  V30 9 N 0.460231 0.0226825 -1.17258 0
M  V30 10 C -0.958937 -0.0891857 -1.05201 0 CFG=2
M  V30 11 O -1.50475 0.781987 -0.116861 0
M  V30 12 C -2.81006 0.360033 0.0505614 0 CFG=2
M  V30 13 C -3.32374 0.635216 1.44628 0
M  V30 14 O -3.29116 2.00094 1.73575 0
M  V30 15 C -2.85614 -1.11167 -0.191485 0 CFG=1
M  V30 16 O -3.60633 -1.36067 -1.3446 0
M  V30 17 C -1.41513 -1.43646 -0.53079 0 CFG=1
M  V30 18 O -1.32466 -2.42494 -1.50867 0
M  V30 19 C 3.72778 0.481379 0.0445059 0
M  V30 20 N 5.00819 0.518075 -0.545144 0
M  V30 21 N 3.50605 0.638004 1.36085 0
M  V30 22 H 1.21132 1.16068 3.6711 0
M  V30 23 H 2.83634 0.521204 4.00133 0
M  V30 24 H 0.680574 -0.244742 -3.31413 0
M  V30 25 H -1.48532 0.0902285 -2.00732 0
M  V30 26 H -3.42258 0.911519 -0.716438 0
M  V30 27 H -2.69947 0.0426927 2.14452 0
M  V30 28 H -4.34909 0.223659 1.49873 0
M  V30 29 H -3.54348 2.09904 2.68278 0
M  V30 30 H -3.22229 -1.6966 0.673288 0
M  V30 31 H -3.74409 -0.522133 -1.8816 0
M  V30 32 H -0.885962 -1.72476 0.398856 0
M  V30 33 H -1.25736 -3.31764 -1.04949 0
M  V30 34 H 5.74934 -0.200378 -0.421154 0
M  V30 35 H 5.26475 1.33463 -1.17227 0
M  V30 END ATOM
M  V30 BEGIN BOND
M  V30 1 1 1 2
M  V30 2 2 2 3
M  V30 3 1 3 4
M  V30 4 2 4 5
M  V30 5 1 5 6
M  V30 6 1 6 7
M  V30 7 2 6 8
M  V30 8 1 8 9
M  V30 9 1 9 10
M  V30 10 1 10 11
M  V30 11 1 11 12
M  V30 12 1 12 13
M  V30 13 1 13 14
M  V30 14 1 12 15
M  V30 15 1 15 16
M  V30 16 1 15 17
M  V30 17 1 17 18
M  V30 18 1 5 19
M  V30 19 1 19 20
M  V30 20 2 19 21
M  V30 21 1 21 2
M  V30 22 1 9 4
M  V30 23 1 17 10
M  V30 24 1 1 22
M  V30 25 1 1 23
M  V30 26 1 8 24
M  V30 27 1 10 25 CFG=3
M  V30 28 1 12 26 CFG=3
M  V30 29 1 13 27
M  V30 30 1 13 28
M  V30 31 1 14 29
M  V30 32 1 15 30 CFG=1
M  V30 33 1 16 31
M  V30 34 1 17 32 CFG=1
M  V30 35 1 18 33
M  V30 36 1 20 34
M  V30 37 1 20 35
M  V30 END BOND
M  V30 END CTAB
M  END
