
     RDKit          3D

  0  0  0  0  0  0  0  0  0  0999 V3000
M  V30 BEGIN CTAB
M  V30 COUNTS 20 21 0 0 0
M  V30 BEGIN ATOM
M  V30 1 N 2.30989 -0.436005 -0.565402 0
M  V30 2 C 1.26141 -0.193562 0.395434 0
M  V30 3 C 0.837757 1.24914 0.267851 0
M  V30 4 C -0.658165 1.25853 0.10048 0
M  V30 5 C -1.08656 -0.145234 -0.198206 0
M  V30 6 C 0.0683446 -1.02557 -0.00159161 0
M  V30 7 C -1.05803 -1.11603 0.970522 0
M  V30 8 N -2.10609 -0.407271 -1.18536 0
M  V30 9 H 2.67566 -1.39724 -0.566167 0
M  V30 10 H 3.01094 0.31304 -0.631056 0
M  V30 11 H 1.5782 -0.427336 1.43201 0
M  V30 12 H 1.29549 1.74651 -0.613649 0
M  V30 13 H 1.14794 1.82635 1.16199 0
M  V30 14 H -0.997375 1.89873 -0.740511 0
M  V30 15 H -1.18184 1.62153 1.00317 0
M  V30 16 H 0.246935 -1.93219 -0.603666 0
M  V30 17 H -0.864438 -0.711738 1.97346 0
M  V30 18 H -1.73407 -2.00188 0.909979 0
M  V30 19 H -1.78614 -0.269912 -2.16346 0
M  V30 20 H -2.95986 0.150147 -0.945828 0
M  V30 END ATOM
M  V30 BEGIN BOND
M  V30 1 1 1 2
M  V30 2 1 2 3
M  V30 3 1 3 4
M  V30 4 1 4 5
M  V30 5 1 5 6
M  V30 6 1 6 7
M  V30 7 1 5 8
M  V30 8 1 6 2
M  V30 9 1 7 5
M  V30 10 1 1 9
M  V30 11 1 1 10
M  V30 12 1 2 11
M  V30 13 1 3 12
M  V30 14 1 3 13
M  V30 15 1 4 14
M  V30 16 1 4 15
M  V30 17 1 6 16
M  V30 18 1 7 17
M  V30 19 1 7 18
M  V30 20 1 8 19
M  V30 21 1 8 20
M  V30 END BOND
M  V30 END CTAB
M  END
