
     RDKit          3D

  0  0  0  0  0  0  0  0  0  0999 V3000
M  V30 BEGIN CTAB
M  V30 COUNTS 27 27 0 0 0
M  V30 BEGIN ATOM
M  V30 1 C 2.60361 0.303339 -0.294905 0 CFG=1
M  V30 2 N 2.7386 0.161871 -1.71421 0
M  V30 3 C 1.30057 -0.234802 0.235812 0
M  V30 4 C 0.127108 0.448005 -0.353507 0
M  V30 5 O 0.306612 1.37169 -1.20341 0
M  V30 6 C -1.19827 0.050413 0.049555 0
M  V30 7 C -1.3747 -0.948569 0.968156 0
M  V30 8 C -2.65196 -1.34173 1.36573 0
M  V30 9 C -3.76522 -0.737708 0.846719 0
M  V30 10 C -3.60257 0.270015 -0.0794597 0
M  V30 11 C -2.31416 0.655888 -0.470706 0
M  V30 12 N -2.13022 1.68859 -1.42034 0
M  V30 13 C 3.7033 -0.377747 0.402168 0
M  V30 14 O 3.78195 -0.374943 1.78888 0
M  V30 15 O 4.58185 -0.968639 -0.254631 0
M  V30 16 H 2.6484 1.37123 -0.043124 0
M  V30 17 H 3.60593 -0.386606 -1.95173 0
M  V30 18 H 1.88278 -0.299658 -2.0974 0
M  V30 19 H 1.27348 -1.31161 -0.00485798 0
M  V30 20 H 1.3297 -0.112607 1.33728 0
M  V30 21 H -0.503014 -1.45358 1.40385 0
M  V30 22 H -2.77123 -2.12931 2.08935 0
M  V30 23 H -4.76876 -1.02484 1.13918 0
M  V30 24 H -4.45512 0.774242 -0.515012 0
M  V30 25 H -2.1707 1.45826 -2.42941 0
M  V30 26 H -1.95957 2.64957 -1.11027 0
M  V30 27 H 3.7816 0.499232 2.3163 0
M  V30 END ATOM
M  V30 BEGIN BOND
M  V30 1 1 1 2
M  V30 2 1 1 3
M  V30 3 1 3 4
M  V30 4 2 4 5
M  V30 5 1 4 6
M  V30 6 2 6 7
M  V30 7 1 7 8
M  V30 8 2 8 9
M  V30 9 1 9 10
M  V30 10 2 10 11
M  V30 11 1 11 12
M  V30 12 1 1 13
M  V30 13 1 13 14
M  V30 14 2 13 15
M  V30 15 1 11 6
M  V30 16 1 1 16 CFG=3
M  V30 17 1 2 17
M  V30 18 1 2 18
M  V30 19 1 3 19
M  V30 20 1 3 20
M  V30 21 1 7 21
M  V30 22 1 8 22
M  V30 23 1 9 23
M  V30 24 1 10 24
M  V30 25 1 12 25
M  V30 26 1 12 26
M  V30 27 1 14 27
M  V30 END BOND
M  V30 END CTAB
M  END
