
     RDKit          3D

  0  0  0  0  0  0  0  0  0  0999 V3000
M  V30 BEGIN CTAB
M  V30 COUNTS 39 41 0 0 0
M  V30 BEGIN ATOM
M  V30 1 N -7.82498 -1.63642 -1.34445 0
M  V30 2 C -6.84003 -1.25071 -0.873717 0
M  V30 3 C -5.58678 -0.776495 -0.300069 0
M  V30 4 C -4.41501 -1.05713 -0.948182 0
M  V30 5 C -3.19569 -0.606653 -0.407895 0
M  V30 6 C -3.32399 0.094604 0.76004 0
M  V30 7 N -4.50381 0.357814 1.38095 0
M  V30 8 C -5.67767 -0.0671771 0.875022 0
M  V30 9 N -6.94324 0.167211 1.46264 0
M  V30 10 S -1.71259 0.490164 1.14725 0
M  V30 11 C -0.92441 -0.242614 -0.178686 0
M  V30 12 C -1.95381 -0.779337 -0.890711 0
M  V30 13 N -1.6536 -1.50353 -2.1239 0
M  V30 14 C 0.524212 -0.268869 -0.455254 0
M  V30 15 O 0.897611 -0.846535 -1.46046 0
M  V30 16 N 1.37451 0.373636 0.458671 0
M  V30 17 C 2.76023 0.500642 0.442976 0
M  V30 18 C 3.54678 -0.022832 -0.540153 0
M  V30 19 C 4.94421 0.12842 -0.51807 0
M  V30 20 C 5.72285 -0.463364 -1.61167 0
M  V30 21 C 5.54184 0.811822 0.503474 0
M  V30 22 C 4.78293 1.34263 1.49415 0
M  V30 23 C 3.40376 1.18602 1.46035 0
M  V30 24 C 2.58051 1.76376 2.53819 0
M  V30 25 H -4.47366 -1.62255 -1.86375 0
M  V30 26 H -7.49073 -0.612217 1.84617 0
M  V30 27 H -7.3425 1.12811 1.5178 0
M  V30 28 H -1.0223 -2.30961 -2.13742 0
M  V30 29 H -2.08895 -1.19999 -3.02267 0
M  V30 30 H 0.834982 0.829419 1.29126 0
M  V30 31 H 3.16852 -0.574605 -1.38174 0
M  V30 32 H 6.6936 0.0747427 -1.78418 0
M  V30 33 H 6.01375 -1.49233 -1.29632 0
M  V30 34 H 5.12012 -0.511558 -2.54049 0
M  V30 35 H 6.62266 0.924502 0.513512 0
M  V30 36 H 5.27055 1.88735 2.30657 0
M  V30 37 H 1.91558 1.00157 3.01801 0
M  V30 38 H 2.01185 2.64921 2.1979 0
M  V30 39 H 3.24268 2.13291 3.36687 0
M  V30 END ATOM
M  V30 BEGIN BOND
M  V30 1 3 1 2
M  V30 2 1 2 3
M  V30 3 2 3 4
M  V30 4 1 4 5
M  V30 5 2 5 6
M  V30 6 1 6 7
M  V30 7 2 7 8
M  V30 8 1 8 9
M  V30 9 1 6 10
M  V30 10 1 10 11
M  V30 11 2 11 12
M  V30 12 1 12 13
M  V30 13 1 11 14
M  V30 14 2 14 15
M  V30 15 1 14 16
M  V30 16 1 16 17
M  V30 17 2 17 18
M  V30 18 1 18 19
M  V30 19 1 19 20
M  V30 20 2 19 21
M  V30 21 1 21 22
M  V30 22 2 22 23
M  V30 23 1 23 24
M  V30 24 1 8 3
M  V30 25 1 23 17
M  V30 26 1 12 5
M  V30 27 1 4 25
M  V30 28 1 9 26
M  V30 29 1 9 27
M  V30 30 1 13 28
M  V30 31 1 13 29
M  V30 32 1 16 30
M  V30 33 1 18 31
M  V30 34 1 20 32
M  V30 35 1 20 33
M  V30 36 1 20 34
M  V30 37 1 21 35
M  V30 38 1 22 36
M  V30 39 1 24 37
M  V30 40 1 24 38
M  V30 41 1 24 39
M  V30 END BOND
M  V30 END CTAB
M  END
