
     RDKit          3D

  0  0  0  0  0  0  0  0  0  0999 V3000
M  V30 BEGIN CTAB
M  V30 COUNTS 25 26 0 0 0
M  V30 BEGIN ATOM
M  V30 1 N -2.81512 1.53755 -0.746629 0
M  V30 2 C -1.66557 0.793389 -0.212094 0
M  V30 3 N -0.514691 0.911989 -1.03066 0
M  V30 4 C 0.223095 -0.267127 -1.31266 0
M  V30 5 N 1.63903 0.102744 -1.41942 0
M  V30 6 C 2.22651 -0.138399 -0.134814 0
M  V30 7 N 1.16627 -0.589489 0.751472 0
M  V30 8 C 0.281864 -1.26099 -0.170852 0
M  V30 9 C -1.0581 -1.50829 0.346805 0
M  V30 10 N -1.35668 -2.55551 1.02599 0
M  V30 11 N -2.07898 -0.559632 0.0938775 0
M  V30 12 N 2.91321 1.02139 0.400874 0
M  V30 13 H -3.48029 1.62838 0.0577436 0
M  V30 14 H -2.44514 2.51232 -0.921911 0
M  V30 15 H -1.46602 1.27965 0.787877 0
M  V30 16 H -0.827832 1.31914 -1.96306 0
M  V30 17 H -0.114467 -0.831698 -2.20537 0
M  V30 18 H 1.76244 1.06982 -1.7702 0
M  V30 19 H 2.96196 -0.978974 -0.186451 0
M  V30 20 H 0.689663 0.272584 1.09713 0
M  V30 21 H 0.77027 -2.17281 -0.571396 0
M  V30 22 H -0.624962 -3.26507 1.22332 0
M  V30 23 H -3.11004 -0.825207 0.126116 0
M  V30 24 H 3.08339 1.75873 -0.318902 0
M  V30 25 H 3.84019 0.745516 0.809632 0
M  V30 END ATOM
M  V30 BEGIN BOND
M  V30 1 1 1 2
M  V30 2 1 2 3
M  V30 3 1 3 4
M  V30 4 1 4 5
M  V30 5 1 5 6
M  V30 6 1 6 7
M  V30 7 1 7 8
M  V30 8 1 8 9
M  V30 9 2 9 10 CFG=2
M  V30 10 1 9 11
M  V30 11 1 6 12
M  V30 12 1 11 2
M  V30 13 1 8 4
M  V30 14 1 1 13
M  V30 15 1 1 14
M  V30 16 1 2 15
M  V30 17 1 3 16
M  V30 18 1 4 17
M  V30 19 1 5 18
M  V30 20 1 6 19
M  V30 21 1 7 20
M  V30 22 1 8 21
M  V30 23 1 10 22
M  V30 24 1 11 23
M  V30 25 1 12 24
M  V30 26 1 12 25
M  V30 END BOND
M  V30 END CTAB
M  END
