
     RDKit          3D

  0  0  0  0  0  0  0  0  0  0999 V3000
M  V30 BEGIN CTAB
M  V30 COUNTS 37 38 0 0 0
M  V30 BEGIN ATOM
M  V30 1 N -6.1796 -0.695889 1.91568 0
M  V30 2 C -5.72136 -0.987282 0.612486 0
M  V30 3 N -5.49393 -2.17744 0.22027 0
M  V30 4 N -5.5088 0.0876743 -0.286617 0
M  V30 5 C -4.16695 0.545762 -0.469536 0
M  V30 6 C -3.11518 -0.0323105 0.200654 0
M  V30 7 C -1.79287 0.401294 0.0357846 0
M  V30 8 C -1.48988 1.43394 -0.814328 0
M  V30 9 S 0.128333 2.03619 -1.15435 0
M  V30 10 C 1.47535 0.981577 -0.793278 0
M  V30 11 C 1.39761 -0.373717 -0.626806 0
M  V30 12 C 2.49869 -1.17104 -0.291522 0
M  V30 13 C 3.7232 -0.574174 -0.120219 0
M  V30 14 N 4.84498 -1.34962 0.216393 0
M  V30 15 C 6.13222 -0.756367 0.401151 0
M  V30 16 N 6.65484 -0.732173 1.7117 0
M  V30 17 N 6.81345 -0.25372 -0.577125 0
M  V30 18 C 3.82517 0.794179 -0.285153 0
M  V30 19 C 2.74595 1.55918 -0.610768 0
M  V30 20 C -2.58995 2.00273 -1.48302 0
M  V30 21 C -3.87089 1.58639 -1.32557 0
M  V30 22 H -5.86792 -1.23941 2.73902 0
M  V30 23 H -6.84737 0.0855823 2.04792 0
M  V30 24 H -5.15985 -2.44288 -0.716922 0
M  V30 25 H -6.26543 0.564002 -0.821167 0
M  V30 26 H -3.3376 -0.85142 0.876223 0
M  V30 27 H -1.03041 -0.0844456 0.62486 0
M  V30 28 H 0.448738 -0.861544 -0.793909 0
M  V30 29 H 2.3357 -2.24524 -0.179171 0
M  V30 30 H 4.7427 -2.37748 0.334955 0
M  V30 31 H 6.81772 0.171983 2.18184 0
M  V30 32 H 6.87081 -1.6198 2.19152 0
M  V30 33 H 6.49441 -0.237975 -1.55123 0
M  V30 34 H 4.77525 1.29254 -0.157688 0
M  V30 35 H 2.81531 2.64183 -0.743762 0
M  V30 36 H -2.39551 2.82169 -2.16279 0
M  V30 37 H -4.70691 2.05737 -1.86739 0
M  V30 END ATOM
M  V30 BEGIN BOND
M  V30 1 1 1 2
M  V30 2 2 2 3 CFG=2
M  V30 3 1 2 4
M  V30 4 1 4 5
M  V30 5 2 5 6
M  V30 6 1 6 7
M  V30 7 2 7 8
M  V30 8 1 8 9
M  V30 9 1 9 10
M  V30 10 2 10 11
M  V30 11 1 11 12
M  V30 12 2 12 13
M  V30 13 1 13 14
M  V30 14 1 14 15
M  V30 15 1 15 16
M  V30 16 2 15 17 CFG=2
M  V30 17 1 13 18
M  V30 18 2 18 19
M  V30 19 1 8 20
M  V30 20 2 20 21
M  V30 21 1 21 5
M  V30 22 1 19 10
M  V30 23 1 1 22
M  V30 24 1 1 23
M  V30 25 1 3 24
M  V30 26 1 4 25
M  V30 27 1 6 26
M  V30 28 1 7 27
M  V30 29 1 11 28
M  V30 30 1 12 29
M  V30 31 1 14 30
M  V30 32 1 16 31
M  V30 33 1 16 32
M  V30 34 1 17 33
M  V30 35 1 18 34
M  V30 36 1 19 35
M  V30 37 1 20 36
M  V30 38 1 21 37
M  V30 END BOND
M  V30 END CTAB
M  END
