
     RDKit          3D

  0  0  0  0  0  0  0  0  0  0999 V3000
M  V30 BEGIN CTAB
M  V30 COUNTS 28 29 0 0 0
M  V30 BEGIN ATOM
M  V30 1 N -2.69766 2.19268 -0.417576 0
M  V30 2 C -2.14257 0.864046 -0.464869 0
M  V30 3 C -2.45333 0.060018 0.775659 0
M  V30 4 C -1.97631 -1.33719 0.548417 0
M  V30 5 C -0.680824 -1.49945 -0.120228 0
M  V30 6 C -0.0778464 -0.360991 -0.819417 0
M  V30 7 C -0.632703 0.991801 -0.460922 0
M  V30 8 C 1.40665 -0.283185 -0.561476 0
M  V30 9 N 2.40773 -0.324273 -1.44883 0
M  V30 10 N 3.579 -0.228501 -0.855537 0
M  V30 11 C 3.359 -0.12156 0.450047 0
M  V30 12 N 2.01358 -0.155601 0.630223 0
M  V30 13 N 4.36174 0.00332185 1.44462 0
M  V30 14 H -3.74172 2.18961 -0.487061 0
M  V30 15 H -2.3571 2.69465 -1.26905 0
M  V30 16 H -2.50332 0.266872 -1.33101 0
M  V30 17 H -3.53227 0.0458166 1.02423 0
M  V30 18 H -1.92997 0.480121 1.67176 0
M  V30 19 H -1.99447 -1.8383 1.56255 0
M  V30 20 H -2.80023 -1.86912 -0.0155612 0
M  V30 21 H -0.763351 -2.36124 -0.849038 0
M  V30 22 H 0.0651923 -1.88146 0.640961 0
M  V30 23 H -0.185206 -0.461793 -1.91971 0
M  V30 24 H -0.332708 1.3381 0.541854 0
M  V30 25 H -0.381992 1.73371 -1.25555 0
M  V30 26 H 4.54073 -0.233541 -1.3176 0
M  V30 27 H 4.98732 -0.793299 1.64405 0
M  V30 28 H 4.46266 0.888764 1.96495 0
M  V30 END ATOM
M  V30 BEGIN BOND
M  V30 1 1 1 2
M  V30 2 1 2 3
M  V30 3 1 3 4
M  V30 4 1 4 5
M  V30 5 1 5 6
M  V30 6 1 6 7
M  V30 7 1 6 8
M  V30 8 2 8 9
M  V30 9 1 9 10
M  V30 10 1 10 11
M  V30 11 2 11 12
M  V30 12 1 11 13
M  V30 13 1 7 2
M  V30 14 1 12 8
M  V30 15 1 1 14
M  V30 16 1 1 15
M  V30 17 1 2 16
M  V30 18 1 3 17
M  V30 19 1 3 18
M  V30 20 1 4 19
M  V30 21 1 4 20
M  V30 22 1 5 21
M  V30 23 1 5 22
M  V30 24 1 6 23
M  V30 25 1 7 24
M  V30 26 1 7 25
M  V30 27 1 10 26
M  V30 28 1 13 27
M  V30 29 1 13 28
M  V30 END BOND
M  V30 END CTAB
M  END
