
     RDKit          3D

  0  0  0  0  0  0  0  0  0  0999 V3000
M  V30 BEGIN CTAB
M  V30 COUNTS 24 25 0 0 0
M  V30 BEGIN ATOM
M  V30 1 N 0.289418 2.63951 -0.942471 0
M  V30 2 N -0.541408 1.52698 -0.913238 0
M  V30 3 C -0.208456 0.619951 0.166013 0
M  V30 4 C -1.07948 -0.554623 0.16539 0
M  V30 5 C -1.03819 -1.62179 -0.719147 0
M  V30 6 N -2.00545 -2.46243 -0.354545 0
M  V30 7 N -2.63508 -1.98195 0.692756 0
M  V30 8 C -2.10443 -0.801224 1.05949 0
M  V30 9 N -2.52345 0.035483 2.15945 0
M  V30 10 C 1.23175 0.193688 0.073619 0
M  V30 11 N 2.13605 0.121821 1.03967 0
M  V30 12 C 3.33931 -0.265528 0.768003 0
M  V30 13 C 3.63658 -0.591667 -0.525024 0
M  V30 14 S 2.13413 -0.31498 -1.29189 0
M  V30 15 H 0.776002 2.6141 -1.88593 0
M  V30 16 H -0.28503 3.50986 -0.916363 0
M  V30 17 H -1.53346 1.84096 -0.835966 0
M  V30 18 H -0.364011 1.18188 1.10688 0
M  V30 19 H -0.334622 -1.7372 -1.55669 0
M  V30 20 H -2.23417 -3.3764 -0.831007 0
M  V30 21 H -2.25368 -0.154341 3.14461 0
M  V30 22 H -3.12075 0.857784 1.94764 0
M  V30 23 H 4.12773 -0.341397 1.54479 0
M  V30 24 H 4.59067 -0.938483 -0.947294 0
M  V30 END ATOM
M  V30 BEGIN BOND
M  V30 1 1 1 2
M  V30 2 1 2 3
M  V30 3 1 3 4
M  V30 4 2 4 5
M  V30 5 1 5 6
M  V30 6 1 6 7
M  V30 7 2 7 8
M  V30 8 1 8 9
M  V30 9 1 3 10
M  V30 10 2 10 11
M  V30 11 1 11 12
M  V30 12 2 12 13
M  V30 13 1 13 14
M  V30 14 1 8 4
M  V30 15 1 14 10
M  V30 16 1 1 15
M  V30 17 1 1 16
M  V30 18 1 2 17
M  V30 19 1 3 18
M  V30 20 1 5 19
M  V30 21 1 6 20
M  V30 22 1 9 21
M  V30 23 1 9 22
M  V30 24 1 12 23
M  V30 25 1 13 24
M  V30 END BOND
M  V30 END CTAB
M  END
