
     RDKit          3D

  0  0  0  0  0  0  0  0  0  0999 V3000
M  V30 BEGIN CTAB
M  V30 COUNTS 38 39 0 0 0
M  V30 BEGIN ATOM
M  V30 1 N -7.37807 -1.56163 0.363341 0
M  V30 2 S -6.87542 -0.270311 -0.653807 0
M  V30 3 O -7.05015 -0.703534 -2.0745 0
M  V30 4 O -7.79556 0.9021 -0.355645 0
M  V30 5 C -5.21599 0.197138 -0.350172 0
M  V30 6 C -4.88626 1.1595 0.571841 0
M  V30 7 C -3.59253 1.51626 0.801441 0
M  V30 8 C -2.50559 0.934166 0.120489 0
M  V30 9 N -1.20052 1.36722 0.387512 0
M  V30 10 C -0.0276129 0.615532 0.11428 0
M  V30 11 O -0.104455 -0.514852 -0.389256 0
M  V30 12 N 1.2511 1.15111 0.415392 0
M  V30 13 C 2.46823 0.509564 0.183689 0
M  V30 14 C 2.70443 -0.527039 -0.685347 0
M  V30 15 C 3.97944 -1.08766 -0.791111 0
M  V30 16 C 5.05712 -0.656105 -0.0569628 0
M  V30 17 C 4.8159 0.385868 0.814308 0
M  V30 18 C 3.57764 0.948621 0.934162 0
M  V30 19 S 6.64287 -1.375 -0.208132 0
M  V30 20 N 7.56202 -0.566637 -1.4241 0
M  V30 21 O 7.39965 -1.20897 1.09274 0
M  V30 22 O 6.50162 -2.82934 -0.468364 0
M  V30 23 C -2.86318 -0.0261613 -0.797835 0
M  V30 24 C -4.18715 -0.394968 -1.03595 0
M  V30 25 H -7.14232 -2.5018 -0.0531439 0
M  V30 26 H -6.84455 -1.52743 1.27093 0
M  V30 27 H -5.68076 1.64303 1.12706 0
M  V30 28 H -3.3174 2.28082 1.53417 0
M  V30 29 H -1.11034 2.34256 0.826867 0
M  V30 30 H 1.28017 2.12496 0.849173 0
M  V30 31 H 1.91867 -0.921169 -1.31558 0
M  V30 32 H 4.14363 -1.90614 -1.48355 0
M  V30 33 H 5.66779 0.747064 1.41244 0
M  V30 34 H 3.4401 1.77183 1.64004 0
M  V30 35 H 7.34729 0.451646 -1.3484 0
M  V30 36 H 8.56242 -0.773332 -1.36311 0
M  V30 37 H -2.12855 -0.538075 -1.39941 0
M  V30 38 H -4.41368 -1.15885 -1.77118 0
M  V30 END ATOM
M  V30 BEGIN BOND
M  V30 1 1 1 2
M  V30 2 2 2 3
M  V30 3 2 2 4
M  V30 4 1 2 5
M  V30 5 2 5 6
M  V30 6 1 6 7
M  V30 7 2 7 8
M  V30 8 1 8 9
M  V30 9 1 9 10
M  V30 10 2 10 11
M  V30 11 1 10 12
M  V30 12 1 12 13
M  V30 13 2 13 14
M  V30 14 1 14 15
M  V30 15 2 15 16
M  V30 16 1 16 17
M  V30 17 2 17 18
M  V30 18 1 16 19
M  V30 19 1 19 20
M  V30 20 2 19 21
M  V30 21 2 19 22
M  V30 22 1 8 23
M  V30 23 2 23 24
M  V30 24 1 24 5
M  V30 25 1 18 13
M  V30 26 1 1 25
M  V30 27 1 1 26
M  V30 28 1 6 27
M  V30 29 1 7 28
M  V30 30 1 9 29
M  V30 31 1 12 30
M  V30 32 1 14 31
M  V30 33 1 15 32
M  V30 34 1 17 33
M  V30 35 1 18 34
M  V30 36 1 20 35
M  V30 37 1 20 36
M  V30 38 1 23 37
M  V30 39 1 24 38
M  V30 END BOND
M  V30 END CTAB
M  END
