
     RDKit          3D

  0  0  0  0  0  0  0  0  0  0999 V3000
M  V30 BEGIN CTAB
M  V30 COUNTS 36 38 0 0 0
M  V30 BEGIN ATOM
M  V30 1 N -5.26848 2.39401 -1.5331 0
M  V30 2 C -4.21414 1.68164 -0.908014 0
M  V30 3 N -3.53226 0.703679 -1.55455 0
M  V30 4 C -2.52938 0.0204759 -0.971302 0
M  V30 5 N -1.82421 -1.00706 -1.6724 0
M  V30 6 C -2.1425 0.285404 0.327358 0
M  V30 7 N -1.14584 -0.377403 0.939808 0
M  V30 8 C -0.769053 -0.117296 2.20884 0
M  V30 9 C 0.33832 -0.850172 2.89469 0
M  V30 10 N 1.09739 -1.66115 1.98594 0
M  V30 11 C 1.86118 -1.12931 0.903851 0
M  V30 12 C 2.47269 -2.00264 0.0295559 0
M  V30 13 C 3.23282 -1.57796 -1.0368 0
M  V30 14 C 3.36266 -0.216175 -1.20153 0
M  V30 15 C 2.76093 0.675499 -0.340642 0
M  V30 16 C 2.01618 0.214618 0.703691 0
M  V30 17 C 4.16335 0.302741 -2.32399 0
M  V30 18 O 4.77125 -0.561943 -3.19343 0
M  V30 19 O 4.29176 1.53559 -2.48825 0
M  V30 20 C -1.47091 0.880383 2.85619 0
M  V30 21 N -2.47 1.54838 2.2495 0
M  V30 22 C -2.83614 1.27984 0.984255 0
M  V30 23 N -3.83536 1.9384 0.358151 0
M  V30 24 H -5.07228 2.8836 -2.4235 0
M  V30 25 H -6.22257 2.44354 -1.13577 0
M  V30 26 H -1.32314 -1.76677 -1.17087 0
M  V30 27 H -1.80379 -1.00677 -2.71072 0
M  V30 28 H 1.05323 -0.117112 3.3715 0
M  V30 29 H -0.0361586 -1.46101 3.74207 0
M  V30 30 H 1.10462 -2.69347 2.10591 0
M  V30 31 H 2.35685 -3.08973 0.178079 0
M  V30 32 H 3.69514 -2.30139 -1.69859 0
M  V30 33 H 2.91504 1.73409 -0.5437 0
M  V30 34 H 1.55592 0.917837 1.36898 0
M  V30 35 H 4.63966 -0.616161 -4.17834 0
M  V30 36 H -1.19279 1.11381 3.87716 0
M  V30 END ATOM
M  V30 BEGIN BOND
M  V30 1 1 1 2
M  V30 2 2 2 3
M  V30 3 1 3 4
M  V30 4 1 4 5
M  V30 5 2 4 6
M  V30 6 1 6 7
M  V30 7 2 7 8
M  V30 8 1 8 9
M  V30 9 1 9 10
M  V30 10 1 10 11
M  V30 11 2 11 12
M  V30 12 1 12 13
M  V30 13 2 13 14
M  V30 14 1 14 15
M  V30 15 2 15 16
M  V30 16 1 14 17
M  V30 17 1 17 18
M  V30 18 2 17 19
M  V30 19 1 8 20
M  V30 20 2 20 21
M  V30 21 1 21 22
M  V30 22 2 22 23
M  V30 23 1 23 2
M  V30 24 1 22 6
M  V30 25 1 16 11
M  V30 26 1 1 24
M  V30 27 1 1 25
M  V30 28 1 5 26
M  V30 29 1 5 27
M  V30 30 1 9 28
M  V30 31 1 9 29
M  V30 32 1 10 30
M  V30 33 1 12 31
M  V30 34 1 13 32
M  V30 35 1 15 33
M  V30 36 1 16 34
M  V30 37 1 18 35
M  V30 38 1 20 36
M  V30 END BOND
M  V30 END CTAB
M  END
