
     RDKit          3D

  0  0  0  0  0  0  0  0  0  0999 V3000
M  V30 BEGIN CTAB
M  V30 COUNTS 20 20 0 0 0
M  V30 BEGIN ATOM
M  V30 1 N -3.11038 -1.18495 -1.753 0
M  V30 2 C -2.49217 -1.24444 -0.784119 0
M  V30 3 C -1.69702 -1.33849 0.440165 0
M  V30 4 C -0.480394 -0.497243 0.223619 0
M  V30 5 C 0.754605 -1.06726 -0.0511424 0
M  V30 6 C 1.85857 -0.27467 -0.247309 0
M  V30 7 N 3.14652 -0.821072 -0.530166 0
M  V30 8 C 1.6788 1.0896 -0.158522 0
M  V30 9 C 0.451003 1.66032 0.11474 0
M  V30 10 C -0.661697 0.869097 0.312588 0
M  V30 11 N -1.93252 1.46182 0.591427 0
M  V30 12 I 0.273172 3.74343 0.229153 0
M  V30 13 H -1.43752 -2.39076 0.647141 0
M  V30 14 H -2.23106 -0.905978 1.31674 0
M  V30 15 H 0.824163 -2.14683 -0.106851 0
M  V30 16 H 3.93242 -0.204307 -0.823689 0
M  V30 17 H 3.35552 -1.83758 -0.457955 0
M  V30 18 H 2.58393 1.6935 -0.322178 0
M  V30 19 H -2.55461 1.1594 1.36587 0
M  V30 20 H -2.26131 2.2364 -0.00651104 0
M  V30 END ATOM
M  V30 BEGIN BOND
M  V30 1 3 1 2
M  V30 2 1 2 3
M  V30 3 1 3 4
M  V30 4 2 4 5
M  V30 5 1 5 6
M  V30 6 1 6 7
M  V30 7 2 6 8
M  V30 8 1 8 9
M  V30 9 2 9 10
M  V30 10 1 10 11
M  V30 11 1 9 12
M  V30 12 1 10 4
M  V30 13 1 3 13
M  V30 14 1 3 14
M  V30 15 1 5 15
M  V30 16 1 7 16
M  V30 17 1 7 17
M  V30 18 1 8 18
M  V30 19 1 11 19
M  V30 20 1 11 20
M  V30 END BOND
M  V30 END CTAB
M  END
