
     RDKit          3D

  0  0  0  0  0  0  0  0  0  0999 V3000
M  V30 BEGIN CTAB
M  V30 COUNTS 49 52 0 0 0
M  V30 BEGIN ATOM
M  V30 1 N 6.64481 0.872192 -1.06955 0
M  V30 2 C 5.86835 2.06199 -0.770083 0
M  V30 3 C 5.09525 1.96325 0.522327 0
M  V30 4 C 3.82039 1.87972 -0.283741 0
M  V30 5 C 4.58974 2.07339 -1.56869 0
M  V30 6 C 3.12927 0.566495 -0.196221 0
M  V30 7 C 1.79108 0.453657 0.129399 0
M  V30 8 C 1.14452 -0.757349 0.212085 0
M  V30 9 N 1.88135 -1.86604 -0.0429021 0
M  V30 10 C 3.18301 -1.7638 -0.360185 0
M  V30 11 N 3.8114 -0.568519 -0.439292 0
M  V30 12 N 3.95976 -2.92138 -0.62839 0
M  V30 13 N -0.214981 -0.796531 0.549156 0
M  V30 14 C -0.92234 0.425629 0.835829 0
M  V30 15 C -2.22378 0.14664 1.56132 0
M  V30 16 C -3.10158 -0.843962 0.830557 0
M  V30 17 C -2.3351 -1.97114 0.183022 0
M  V30 18 C -0.897223 -2.06659 0.604885 0
M  V30 19 O -3.92375 -0.194428 -0.102221 0
M  V30 20 C -5.28259 -0.106144 -0.12506 0
M  V30 21 C -5.87317 0.594831 -1.15676 0
M  V30 22 C -7.26556 0.710764 -1.21974 0
M  V30 23 C -8.06274 0.13089 -0.259288 0
M  V30 24 N -7.46166 -0.54426 0.731838 0
M  V30 25 C -6.1007 -0.669204 0.81125 0
M  V30 26 H 7.32508 1.12438 -1.83316 0
M  V30 27 H 7.1382 0.578868 -0.200741 0
M  V30 28 H 6.45778 3.00332 -0.822701 0
M  V30 29 H 5.31506 1.04528 1.12571 0
M  V30 30 H 5.11932 2.90465 1.0993 0
M  V30 31 H 3.08922 2.69174 -0.0547882 0
M  V30 32 H 4.38394 3.07144 -1.99438 0
M  V30 33 H 4.46405 1.21582 -2.26121 0
M  V30 34 H 1.26206 1.36183 0.318849 0
M  V30 35 H 4.71666 -2.98326 -1.32213 0
M  V30 36 H 3.74244 -3.78388 -0.0722091 0
M  V30 37 H -0.333705 1.07724 1.54735 0
M  V30 38 H -1.06936 1.02012 -0.0699012 0
M  V30 39 H -2.7812 1.11802 1.57353 0
M  V30 40 H -2.06209 -0.156454 2.59376 0
M  V30 41 H -3.73655 -1.31387 1.60789 0
M  V30 42 H -2.80868 -2.96122 0.344065 0
M  V30 43 H -2.39196 -1.80541 -0.928546 0
M  V30 44 H -0.811364 -2.5709 1.58737 0
M  V30 45 H -0.39587 -2.73985 -0.129246 0
M  V30 46 H -5.27869 1.06285 -1.92806 0
M  V30 47 H -7.73477 1.24961 -2.01133 0
M  V30 48 H -9.1449 0.200688 -0.276829 0
M  V30 49 H -5.71842 -1.22112 1.63071 0
M  V30 END ATOM
M  V30 BEGIN BOND
M  V30 1 1 1 2
M  V30 2 1 2 3
M  V30 3 1 3 4
M  V30 4 1 4 5
M  V30 5 1 4 6
M  V30 6 2 6 7
M  V30 7 1 7 8
M  V30 8 2 8 9
M  V30 9 1 9 10
M  V30 10 2 10 11
M  V30 11 1 10 12
M  V30 12 1 8 13
M  V30 13 1 13 14
M  V30 14 1 14 15
M  V30 15 1 15 16
M  V30 16 1 16 17
M  V30 17 1 17 18
M  V30 18 1 16 19
M  V30 19 1 19 20
M  V30 20 2 20 21
M  V30 21 1 21 22
M  V30 22 2 22 23
M  V30 23 1 23 24
M  V30 24 2 24 25
M  V30 25 1 5 2
M  V30 26 1 11 6
M  V30 27 1 18 13
M  V30 28 1 25 20
M  V30 29 1 1 26
M  V30 30 1 1 27
M  V30 31 1 2 28
M  V30 32 1 3 29
M  V30 33 1 3 30
M  V30 34 1 4 31
M  V30 35 1 5 32
M  V30 36 1 5 33
M  V30 37 1 7 34
M  V30 38 1 12 35
M  V30 39 1 12 36
M  V30 40 1 14 37
M  V30 41 1 14 38
M  V30 42 1 15 39
M  V30 43 1 15 40
M  V30 44 1 16 41
M  V30 45 1 17 42
M  V30 46 1 17 43
M  V30 47 1 18 44
M  V30 48 1 18 45
M  V30 49 1 21 46
M  V30 50 1 22 47
M  V30 51 1 23 48
M  V30 52 1 25 49
M  V30 END BOND
M  V30 END CTAB
M  END
