
     RDKit          3D

  0  0  0  0  0  0  0  0  0  0999 V3000
M  V30 BEGIN CTAB
M  V30 COUNTS 28 29 0 0 0
M  V30 BEGIN ATOM
M  V30 1 N -0.0858665 3.24022 0.116609 0
M  V30 2 C -0.0301551 1.83988 -0.0921485 0 CFG=1
M  V30 3 C 1.37669 1.3393 -0.00766162 0
M  V30 4 C 1.45145 -0.135507 0.053047 0
M  V30 5 C 2.68112 -0.771165 -0.0840432 0
M  V30 6 C 2.76248 -2.14375 -0.0104384 0
M  V30 7 C 1.63088 -2.88623 0.198637 0
M  V30 8 C 0.402955 -2.25989 0.336141 0
M  V30 9 C 0.30863 -0.890409 0.263362 0
M  V30 10 N -0.965112 -0.271582 0.394699 0
M  V30 11 C -0.914773 1.10558 0.925752 0
M  V30 12 S -2.44774 -0.983436 -0.046237 0
M  V30 13 O -2.36481 -2.35394 -0.612285 0
M  V30 14 O -3.41392 -0.954924 1.10471 0
M  V30 15 N -3.10154 0.0134772 -1.34838 0
M  V30 16 H 0.833865 3.62231 0.291457 0
M  V30 17 H -0.528266 3.71257 -0.665917 0
M  V30 18 H -0.410119 1.59378 -1.12325 0
M  V30 19 H 1.84093 1.74936 0.917375 0
M  V30 20 H 1.96402 1.74261 -0.87417 0
M  V30 21 H 3.54732 -0.142549 -0.247504 0
M  V30 22 H 3.74854 -2.62036 -0.122768 0
M  V30 23 H 1.66818 -3.97267 0.261058 0
M  V30 24 H -0.476737 -2.84654 0.515608 0
M  V30 25 H -0.41761 1.12827 1.89234 0
M  V30 26 H -1.90485 1.55215 1.00219 0
M  V30 27 H -3.18199 0.987573 -1.0081 0
M  V30 28 H -3.97358 -0.394138 -1.71472 0
M  V30 END ATOM
M  V30 BEGIN BOND
M  V30 1 1 1 2
M  V30 2 1 2 3
M  V30 3 1 3 4
M  V30 4 2 4 5
M  V30 5 1 5 6
M  V30 6 2 6 7
M  V30 7 1 7 8
M  V30 8 2 8 9
M  V30 9 1 9 10
M  V30 10 1 10 11
M  V30 11 1 10 12
M  V30 12 2 12 13
M  V30 13 2 12 14
M  V30 14 1 12 15
M  V30 15 1 11 2
M  V30 16 1 9 4
M  V30 17 1 1 16
M  V30 18 1 1 17
M  V30 19 1 2 18 CFG=3
M  V30 20 1 3 19
M  V30 21 1 3 20
M  V30 22 1 5 21
M  V30 23 1 6 22
M  V30 24 1 7 23
M  V30 25 1 8 24
M  V30 26 1 11 25
M  V30 27 1 11 26
M  V30 28 1 15 27
M  V30 29 1 15 28
M  V30 END BOND
M  V30 END CTAB
M  END
