
     RDKit          3D

  0  0  0  0  0  0  0  0  0  0999 V3000
M  V30 BEGIN CTAB
M  V30 COUNTS 44 47 0 0 0
M  V30 BEGIN ATOM
M  V30 1 O -1.05766 -1.86044 -2.15941 0
M  V30 2 C -0.343221 -1.24837 -1.32791 0
M  V30 3 C 1.05251 -1.67983 -0.991076 0
M  V30 4 N 1.58895 -0.470658 -0.371287 0
M  V30 5 C 0.501524 0.356755 0.0080005 0
M  V30 6 C -0.627197 -0.0685663 -0.531835 0
M  V30 7 C -1.95891 0.542766 -0.399767 0
M  V30 8 S -2.30955 2.21176 -0.42941 0
M  V30 9 C -4.00451 2.11862 -0.233678 0
M  V30 10 C -4.19867 0.756902 -0.154469 0
M  V30 11 N -3.14768 0.00315639 -0.241984 0
M  V30 12 C -5.55586 0.195515 0.0324219 0
M  V30 13 C -6.67875 0.983399 0.058964 0
M  V30 14 C -7.94325 0.454813 0.242996 0
M  V30 15 C -8.11611 -0.898675 0.407822 0
M  V30 16 C -7.00181 -1.70207 0.384016 0
M  V30 17 C -5.72486 -1.15529 0.196658 0
M  V30 18 N 0.567901 1.49061 0.849809 0
M  V30 19 C 2.97361 -0.21483 -0.23622 0
M  V30 20 C 3.55342 0.534873 0.750287 0
M  V30 21 C 4.9306 0.762459 0.788623 0
M  V30 22 C 5.76141 0.243526 -0.161664 0
M  V30 23 C 5.20497 -0.515989 -1.1661 0
M  V30 24 C 3.84589 -0.737027 -1.19849 0
M  V30 25 S 7.50974 0.491252 -0.158194 0
M  V30 26 O 7.78302 1.80842 0.54247 0
M  V30 27 O 7.97563 0.558827 -1.56882 0
M  V30 28 N 8.26807 -0.813841 0.682682 0
M  V30 29 H 1.09034 -2.47788 -0.25259 0
M  V30 30 H 1.58656 -2.00546 -1.88189 0
M  V30 31 H -4.76464 2.91777 -0.182 0
M  V30 32 H -6.58734 2.05379 -0.0683459 0
M  V30 33 H -8.80522 1.09127 0.257663 0
M  V30 34 H -9.1217 -1.31404 0.553122 0
M  V30 35 H -7.11372 -2.77502 0.51247 0
M  V30 36 H -4.87266 -1.80535 0.185588 0
M  V30 37 H 0.196608 1.34839 1.82439 0
M  V30 38 H 0.946559 2.39795 0.557325 0
M  V30 39 H 2.92058 0.959378 1.5312 0
M  V30 40 H 5.33827 1.35629 1.58111 0
M  V30 41 H 5.86549 -0.932031 -1.92775 0
M  V30 42 H 3.46914 -1.33938 -2.01455 0
M  V30 43 H 9.23789 -0.519031 0.936998 0
M  V30 44 H 7.76461 -1.10471 1.53279 0
M  V30 END ATOM
M  V30 BEGIN BOND
M  V30 1 2 1 2
M  V30 2 1 2 3
M  V30 3 1 3 4
M  V30 4 1 4 5
M  V30 5 2 5 6
M  V30 6 1 6 7
M  V30 7 1 7 8
M  V30 8 1 8 9
M  V30 9 2 9 10
M  V30 10 1 10 11
M  V30 11 1 10 12
M  V30 12 2 12 13
M  V30 13 1 13 14
M  V30 14 2 14 15
M  V30 15 1 15 16
M  V30 16 2 16 17
M  V30 17 1 5 18
M  V30 18 1 4 19
M  V30 19 2 19 20
M  V30 20 1 20 21
M  V30 21 2 21 22
M  V30 22 1 22 23
M  V30 23 2 23 24
M  V30 24 1 22 25
M  V30 25 2 25 26
M  V30 26 2 25 27
M  V30 27 1 25 28
M  V30 28 1 6 2
M  V30 29 2 11 7
M  V30 30 1 17 12
M  V30 31 1 24 19
M  V30 32 1 3 29
M  V30 33 1 3 30
M  V30 34 1 9 31
M  V30 35 1 13 32
M  V30 36 1 14 33
M  V30 37 1 15 34
M  V30 38 1 16 35
M  V30 39 1 17 36
M  V30 40 1 18 37
M  V30 41 1 18 38
M  V30 42 1 20 39
M  V30 43 1 21 40
M  V30 44 1 23 41
M  V30 45 1 24 42
M  V30 46 1 28 43
M  V30 47 1 28 44
M  V30 END BOND
M  V30 END CTAB
M  END
