
     RDKit          3D

  0  0  0  0  0  0  0  0  0  0999 V3000
M  V30 BEGIN CTAB
M  V30 COUNTS 20 20 0 0 0
M  V30 BEGIN ATOM
M  V30 1 N 4.16529 0.628315 0.0603592 0
M  V30 2 N 2.77586 0.688223 -0.0568435 0
M  V30 3 C 1.911 -0.378311 0.216533 0
M  V30 4 O 2.41175 -1.46481 0.592891 0
M  V30 5 C 0.463027 -0.28236 0.0838747 0
M  V30 6 C -0.349364 -1.38451 0.371891 0
M  V30 7 C -1.71879 -1.32229 0.255371 0
M  V30 8 Br -2.83045 -2.82123 0.646587 0
M  V30 9 C -2.34016 -0.159243 -0.153313 0
M  V30 10 C -1.57719 0.946588 -0.445987 0
M  V30 11 C -0.195606 0.853902 -0.319052 0
M  V30 12 Br -2.3842 2.58172 -1.01584 0
M  V30 13 N -3.75021 -0.0936104 -0.27378 0
M  V30 14 H 4.50148 -0.200044 0.587635 0
M  V30 15 H 4.60359 1.51659 0.319918 0
M  V30 16 H 2.39154 1.59698 -0.369193 0
M  V30 17 H 0.133148 -2.29542 0.691689 0
M  V30 18 H 0.379872 1.7251 -0.551441 0
M  V30 19 H -4.21749 0.662489 -0.819425 0
M  V30 20 H -4.3731 -0.798068 0.178122 0
M  V30 END ATOM
M  V30 BEGIN BOND
M  V30 1 1 1 2
M  V30 2 1 2 3
M  V30 3 2 3 4
M  V30 4 1 3 5
M  V30 5 2 5 6
M  V30 6 1 6 7
M  V30 7 1 7 8
M  V30 8 2 7 9
M  V30 9 1 9 10
M  V30 10 2 10 11
M  V30 11 1 10 12
M  V30 12 1 9 13
M  V30 13 1 11 5
M  V30 14 1 1 14
M  V30 15 1 1 15
M  V30 16 1 2 16
M  V30 17 1 6 17
M  V30 18 1 11 18
M  V30 19 1 13 19
M  V30 20 1 13 20
M  V30 END BOND
M  V30 END CTAB
M  END
