
     RDKit          3D

  0  0  0  0  0  0  0  0  0  0999 V3000
M  V30 BEGIN CTAB
M  V30 COUNTS 34 34 0 0 0
M  V30 BEGIN ATOM
M  V30 1 N -4.04609 1.51444 0.359606 0
M  V30 2 C -4.43363 0.60827 -0.663138 0
M  V30 3 C -3.98245 -0.790149 -0.487273 0
M  V30 4 C -2.51183 -1.03096 -0.471964 0
M  V30 5 C -1.77453 -0.325 0.612292 0
M  V30 6 C -0.300035 -0.742275 0.500141 0
M  V30 7 C 0.527174 -0.0819738 1.55237 0
M  V30 8 N 1.92353 -0.403428 1.52647 0
M  V30 9 C 2.84462 0.0202465 0.54348 0
M  V30 10 C 2.44174 0.864497 -0.465393 0
M  V30 11 C 3.39243 1.2274 -1.40473 0
M  V30 12 N 4.65449 0.774845 -1.33367 0
M  V30 13 C 5.05614 -0.0534322 -0.345781 0
M  V30 14 N 6.40367 -0.529213 -0.279993 0
M  V30 15 N 4.13963 -0.408561 0.56672 0
M  V30 16 H -4.72694 1.60182 1.12724 0
M  V30 17 H -3.59902 2.38789 0.0511772 0
M  V30 18 H -4.03297 0.966973 -1.65504 0
M  V30 19 H -5.56437 0.633285 -0.75151 0
M  V30 20 H -4.46283 -1.41713 -1.29974 0
M  V30 21 H -4.43999 -1.24052 0.448855 0
M  V30 22 H -2.0941 -0.798779 -1.48957 0
M  V30 23 H -2.33686 -2.12894 -0.31746 0
M  V30 24 H -1.73136 0.769062 0.344869 0
M  V30 25 H -2.20502 -0.539253 1.5844 0
M  V30 26 H -0.320449 -1.8538 0.710422 0
M  V30 27 H 0.00175024 -0.53496 -0.532141 0
M  V30 28 H 0.439034 1.04243 1.45832 0
M  V30 29 H 0.0650036 -0.297156 2.53953 0
M  V30 30 H 2.28937 -1.01247 2.31746 0
M  V30 31 H 1.45597 1.2699 -0.573224 0
M  V30 32 H 3.12741 1.88862 -2.21839 0
M  V30 33 H 6.63315 -1.53596 -0.167695 0
M  V30 34 H 7.16738 0.154284 -0.346795 0
M  V30 END ATOM
M  V30 BEGIN BOND
M  V30 1 1 1 2
M  V30 2 1 2 3
M  V30 3 1 3 4
M  V30 4 1 4 5
M  V30 5 1 5 6
M  V30 6 1 6 7
M  V30 7 1 7 8
M  V30 8 1 8 9
M  V30 9 2 9 10
M  V30 10 1 10 11
M  V30 11 2 11 12
M  V30 12 1 12 13
M  V30 13 1 13 14
M  V30 14 2 13 15
M  V30 15 1 15 9
M  V30 16 1 1 16
M  V30 17 1 1 17
M  V30 18 1 2 18
M  V30 19 1 2 19
M  V30 20 1 3 20
M  V30 21 1 3 21
M  V30 22 1 4 22
M  V30 23 1 4 23
M  V30 24 1 5 24
M  V30 25 1 5 25
M  V30 26 1 6 26
M  V30 27 1 6 27
M  V30 28 1 7 28
M  V30 29 1 7 29
M  V30 30 1 8 30
M  V30 31 1 10 31
M  V30 32 1 11 32
M  V30 33 1 14 33
M  V30 34 1 14 34
M  V30 END BOND
M  V30 END CTAB
M  END
