
     RDKit          3D

  0  0  0  0  0  0  0  0  0  0999 V3000
M  V30 BEGIN CTAB
M  V30 COUNTS 26 27 0 0 0
M  V30 BEGIN ATOM
M  V30 1 N 4.8371 0.846138 -0.3424 0
M  V30 2 C 3.44355 0.603649 -0.289956 0
M  V30 3 C 2.54379 1.65464 -0.0797597 0
M  V30 4 C 1.20075 1.34958 -0.0400627 0
M  V30 5 C 0.735451 0.0452699 -0.201292 0
M  V30 6 C 1.66425 -0.95649 -0.405956 0
M  V30 7 C 3.02163 -0.701537 -0.453862 0
M  V30 8 Br 4.30592 -2.08043 -0.735328 0
M  V30 9 C -0.700213 -0.197876 -0.147966 0
M  V30 10 C -1.56505 0.779457 -0.599257 0
M  V30 11 C -2.93275 0.617035 -0.578352 0
M  V30 12 Br -4.1219 1.96533 -1.1994 0
M  V30 13 C -3.47318 -0.555493 -0.0934965 0
M  V30 14 N -4.87367 -0.719083 -0.0744033 0
M  V30 15 C -2.63272 -1.5622 0.36968 0
M  V30 16 C -1.2564 -1.35586 0.33026 0
M  V30 17 H 5.25271 1.10615 -1.25526 0
M  V30 18 H 5.46218 0.778022 0.478722 0
M  V30 19 H 2.91803 2.66965 0.0455908 0
M  V30 20 H 0.465283 2.13774 0.123336 0
M  V30 21 H 1.32856 -1.99093 -0.535092 0
M  V30 22 H -1.20309 1.73011 -0.995342 0
M  V30 23 H -5.39416 -0.542253 0.797889 0
M  V30 24 H -5.37316 -1.01149 -0.92427 0
M  V30 25 H -3.05415 -2.48199 0.751653 0
M  V30 26 H -0.598759 -2.12717 0.688102 0
M  V30 END ATOM
M  V30 BEGIN BOND
M  V30 1 1 1 2
M  V30 2 2 2 3
M  V30 3 1 3 4
M  V30 4 2 4 5
M  V30 5 1 5 6
M  V30 6 2 6 7
M  V30 7 1 7 8
M  V30 8 1 5 9
M  V30 9 2 9 10
M  V30 10 1 10 11
M  V30 11 1 11 12
M  V30 12 2 11 13
M  V30 13 1 13 14
M  V30 14 1 13 15
M  V30 15 2 15 16
M  V30 16 1 7 2
M  V30 17 1 16 9
M  V30 18 1 1 17
M  V30 19 1 1 18
M  V30 20 1 3 19
M  V30 21 1 4 20
M  V30 22 1 6 21
M  V30 23 1 10 22
M  V30 24 1 14 23
M  V30 25 1 14 24
M  V30 26 1 15 25
M  V30 27 1 16 26
M  V30 END BOND
M  V30 END CTAB
M  END
