
     RDKit          3D

  0  0  0  0  0  0  0  0  0  0999 V3000
M  V30 BEGIN CTAB
M  V30 COUNTS 33 33 0 0 0
M  V30 BEGIN ATOM
M  V30 1 N -0.35674 -1.0142 -1.4958 0
M  V30 2 C -0.575822 -0.432246 -0.184997 0
M  V30 3 C -2.03166 -0.131264 -0.0477526 0
M  V30 4 C -2.83911 -1.41899 -0.190145 0
M  V30 5 C -2.39166 0.448531 1.29906 0
M  V30 6 C -2.44273 0.87528 -1.09654 0
M  V30 7 C 0.228447 0.835066 -0.0107867 0
M  V30 8 C 1.68416 0.597902 -0.14639 0
M  V30 9 C 2.36798 0.957247 -1.28584 0
M  V30 10 N 3.70815 0.738795 -1.41086 0
M  V30 11 C 4.42585 0.164201 -0.432424 0
M  V30 12 C 3.77229 -0.207948 0.721886 0
M  V30 13 C 2.41521 0.00866795 0.859188 0
M  V30 14 N 1.78423 -0.399214 2.08498 0
M  V30 15 H 0.194841 -1.90019 -1.45735 0
M  V30 16 H -0.0475536 -0.343027 -2.20851 0
M  V30 17 H -0.314183 -1.20754 0.558405 0
M  V30 18 H -3.83023 -1.20442 0.269469 0
M  V30 19 H -2.89699 -1.76151 -1.23104 0
M  V30 20 H -2.35029 -2.15845 0.464074 0
M  V30 21 H -3.46393 0.227307 1.47901 0
M  V30 22 H -1.83985 -0.0391127 2.13788 0
M  V30 23 H -2.28701 1.55402 1.31808 0
M  V30 24 H -3.41268 0.60514 -1.56442 0
M  V30 25 H -1.68807 0.840071 -1.90709 0
M  V30 26 H -2.44548 1.90784 -0.690475 0
M  V30 27 H -0.114917 1.5382 -0.812576 0
M  V30 28 H 0.0177031 1.32611 0.938782 0
M  V30 29 H 1.81126 1.42123 -2.08611 0
M  V30 30 H 5.49544 -0.0161761 -0.517999 0
M  V30 31 H 4.33841 -0.682197 1.5414 0
M  V30 32 H 1.52004 0.279746 2.81752 0
M  V30 33 H 1.5649 -1.40887 2.28739 0
M  V30 END ATOM
M  V30 BEGIN BOND
M  V30 1 1 1 2
M  V30 2 1 2 3
M  V30 3 1 3 4
M  V30 4 1 3 5
M  V30 5 1 3 6
M  V30 6 1 2 7
M  V30 7 1 7 8
M  V30 8 2 8 9
M  V30 9 1 9 10
M  V30 10 2 10 11
M  V30 11 1 11 12
M  V30 12 2 12 13
M  V30 13 1 13 14
M  V30 14 1 13 8
M  V30 15 1 1 15
M  V30 16 1 1 16
M  V30 17 1 2 17
M  V30 18 1 4 18
M  V30 19 1 4 19
M  V30 20 1 4 20
M  V30 21 1 5 21
M  V30 22 1 5 22
M  V30 23 1 5 23
M  V30 24 1 6 24
M  V30 25 1 6 25
M  V30 26 1 6 26
M  V30 27 1 7 27
M  V30 28 1 7 28
M  V30 29 1 9 29
M  V30 30 1 11 30
M  V30 31 1 12 31
M  V30 32 1 14 32
M  V30 33 1 14 33
M  V30 END BOND
M  V30 END CTAB
M  END
