
     RDKit          3D

  0  0  0  0  0  0  0  0  0  0999 V3000
M  V30 BEGIN CTAB
M  V30 COUNTS 37 38 0 0 0
M  V30 BEGIN ATOM
M  V30 1 C 7.17894 0.089719 0.239371 0
M  V30 2 O 6.01496 -0.43931 0.813336 0
M  V30 3 C 4.76577 -0.0563231 0.348596 0
M  V30 4 C 3.62239 -0.59743 0.936528 0
M  V30 5 C 2.35625 -0.262909 0.526372 0
M  V30 6 C 2.20423 0.63862 -0.502081 0
M  V30 7 C 3.31727 1.20538 -1.11972 0
M  V30 8 C 4.58252 0.844168 -0.679157 0
M  V30 9 C 0.89594 1.03073 -0.987816 0
M  V30 10 O 0.788012 1.88725 -1.93106 0
M  V30 11 C -0.380173 0.498704 -0.461527 0
M  V30 12 S -1.81442 1.3553 -1.14257 0
M  V30 13 C -3.28531 0.625922 -0.437585 0
M  V30 14 N -3.9126 -0.427262 -1.0142 0
M  V30 15 C -5.0204 -0.975395 -0.482671 0
M  V30 16 N -5.63446 -2.07634 -1.12941 0
M  V30 17 C -5.56762 -0.483104 0.681347 0
M  V30 18 C -4.92592 0.590874 1.26714 0
M  V30 19 N -3.80382 1.12167 0.699972 0
M  V30 20 N -5.47051 1.12231 2.47426 0
M  V30 21 C -0.55638 -0.973512 -0.623805 0
M  V30 22 H 7.39578 1.136 0.591503 0
M  V30 23 H 7.09438 0.111437 -0.855801 0
M  V30 24 H 8.07875 -0.558405 0.454291 0
M  V30 25 H 3.76423 -1.29339 1.73082 0
M  V30 26 H 1.50097 -0.698982 1.00707 0
M  V30 27 H 3.15676 1.90762 -1.92155 0
M  V30 28 H 5.45988 1.28912 -1.16366 0
M  V30 29 H -0.362843 0.698537 0.651358 0
M  V30 30 H -5.64982 -2.97956 -0.594973 0
M  V30 31 H -6.033 -1.9581 -2.07287 0
M  V30 32 H -6.45163 -0.882829 1.15001 0
M  V30 33 H -6.48138 1.44272 2.42672 0
M  V30 34 H -4.90342 1.18712 3.34116 0
M  V30 35 H 0.33443 -1.47263 -1.0641 0
M  V30 36 H -0.866592 -1.47163 0.31593 0
M  V30 37 H -1.39116 -1.1761 -1.35 0
M  V30 END ATOM
M  V30 BEGIN BOND
M  V30 1 1 1 2
M  V30 2 1 2 3
M  V30 3 2 3 4
M  V30 4 1 4 5
M  V30 5 2 5 6
M  V30 6 1 6 7
M  V30 7 2 7 8
M  V30 8 1 6 9
M  V30 9 2 9 10
M  V30 10 1 9 11
M  V30 11 1 11 12
M  V30 12 1 12 13
M  V30 13 2 13 14
M  V30 14 1 14 15
M  V30 15 1 15 16
M  V30 16 2 15 17
M  V30 17 1 17 18
M  V30 18 2 18 19
M  V30 19 1 18 20
M  V30 20 1 11 21
M  V30 21 1 8 3
M  V30 22 1 19 13
M  V30 23 1 1 22
M  V30 24 1 1 23
M  V30 25 1 1 24
M  V30 26 1 4 25
M  V30 27 1 5 26
M  V30 28 1 7 27
M  V30 29 1 8 28
M  V30 30 1 11 29
M  V30 31 1 16 30
M  V30 32 1 16 31
M  V30 33 1 17 32
M  V30 34 1 20 33
M  V30 35 1 20 34
M  V30 36 1 21 35
M  V30 37 1 21 36
M  V30 38 1 21 37
M  V30 END BOND
M  V30 END CTAB
M  END
