
     RDKit          3D

  0  0  0  0  0  0  0  0  0  0999 V3000
M  V30 BEGIN CTAB
M  V30 COUNTS 19 19 0 0 0
M  V30 BEGIN ATOM
M  V30 1 N -0.751101 2.79469 0.361254 0
M  V30 2 C -0.343925 1.45082 0.177498 0
M  V30 3 C -1.2481 0.409853 0.256319 0
M  V30 4 C -0.796307 -0.893954 0.0677522 0
M  V30 5 C -1.80543 -1.98134 0.161811 0
M  V30 6 C 0.529316 -1.16819 -0.195063 0
M  V30 7 C 1.43955 -0.131965 -0.27537 0
M  V30 8 C 0.988403 1.18004 -0.0862507 0
M  V30 9 N 2.81956 -0.359065 -0.544195 0
M  V30 10 Br 1.07452 -2.95705 -0.440236 0
M  V30 11 H -1.37353 3.25073 -0.333845 0
M  V30 12 H -0.421394 3.33852 1.20906 0
M  V30 13 H -2.26771 0.636435 0.459743 0
M  V30 14 H -1.38609 -2.94844 -0.146431 0
M  V30 15 H -2.21665 -2.01541 1.21262 0
M  V30 16 H -2.66613 -1.66263 -0.464872 0
M  V30 17 H 1.73063 1.96027 -0.157027 0
M  V30 18 H 3.42996 -0.774963 0.190196 0
M  V30 19 H 3.26443 -0.128348 -1.45297 0
M  V30 END ATOM
M  V30 BEGIN BOND
M  V30 1 1 1 2
M  V30 2 2 2 3
M  V30 3 1 3 4
M  V30 4 1 4 5
M  V30 5 2 4 6
M  V30 6 1 6 7
M  V30 7 2 7 8
M  V30 8 1 7 9
M  V30 9 1 6 10
M  V30 10 1 8 2
M  V30 11 1 1 11
M  V30 12 1 1 12
M  V30 13 1 3 13
M  V30 14 1 5 14
M  V30 15 1 5 15
M  V30 16 1 5 16
M  V30 17 1 8 17
M  V30 18 1 9 18
M  V30 19 1 9 19
M  V30 END BOND
M  V30 END CTAB
M  END
