
     RDKit          3D

  0  0  0  0  0  0  0  0  0  0999 V3000
M  V30 BEGIN CTAB
M  V30 COUNTS 38 40 0 0 0
M  V30 BEGIN ATOM
M  V30 1 N 4.76037 1.75813 0.106386 0
M  V30 2 C 4.32073 0.400074 0.076349 0
M  V30 3 C 5.26532 -0.579763 0.0469559 0
M  V30 4 C 4.87734 -1.90454 0.00693476 0
M  V30 5 C 3.53279 -2.18449 -0.0019038 0
M  V30 6 C 2.54627 -1.18381 0.0284077 0
M  V30 7 C 2.95536 0.120543 0.0682718 0
M  V30 8 C 1.15477 -1.64857 0.0343772 0
M  V30 9 N 0.137032 -0.698912 -0.0243546 0
M  V30 10 C -0.12502 0.0771128 -1.14793 0
M  V30 11 C -1.58216 0.516262 -1.30743 0
M  V30 12 N -2.15896 0.845892 -0.0349295 0
M  V30 13 C -1.30921 0.80681 1.1314 0
M  V30 14 C -0.697778 -0.593782 1.11494 0
M  V30 15 C -3.52871 1.19832 0.0438575 0
M  V30 16 S -4.26312 2.72408 0.396223 0
M  V30 17 N -5.87477 2.26581 0.265229 0
M  V30 18 C -5.78528 0.966741 -0.0419966 0
M  V30 19 N -4.6099 0.441238 -0.150385 0
M  V30 20 N -6.99823 0.186029 -0.259169 0
M  V30 21 H 5.33594 2.09774 0.880686 0
M  V30 22 H 4.48668 2.40352 -0.677495 0
M  V30 23 H 6.33235 -0.394385 0.0553327 0
M  V30 24 H 5.60809 -2.70403 -0.0135276 0
M  V30 25 H 3.23938 -3.22453 -0.0333873 0
M  V30 26 H 2.27592 0.950188 0.111775 0
M  V30 27 H 1.0389 -2.22501 1.01584 0
M  V30 28 H 1.0314 -2.45572 -0.758619 0
M  V30 29 H 0.0896567 -0.442559 -2.13215 0
M  V30 30 H 0.452124 1.01838 -1.16498 0
M  V30 31 H -2.20099 -0.252657 -1.81365 0
M  V30 32 H -1.58972 1.4304 -1.92973 0
M  V30 33 H -0.413483 1.47832 0.954359 0
M  V30 34 H -1.80564 1.03579 2.07641 0
M  V30 35 H -1.55343 -1.31876 1.11645 0
M  V30 36 H -0.0886984 -0.754113 2.03098 0
M  V30 37 H -7.47391 0.276938 -1.17967 0
M  V30 38 H -7.38145 -0.432699 0.452342 0
M  V30 END ATOM
M  V30 BEGIN BOND
M  V30 1 1 1 2
M  V30 2 2 2 3
M  V30 3 1 3 4
M  V30 4 2 4 5
M  V30 5 1 5 6
M  V30 6 2 6 7
M  V30 7 1 6 8
M  V30 8 1 8 9
M  V30 9 1 9 10
M  V30 10 1 10 11
M  V30 11 1 11 12
M  V30 12 1 12 13
M  V30 13 1 13 14
M  V30 14 1 12 15
M  V30 15 1 15 16
M  V30 16 1 16 17
M  V30 17 2 17 18
M  V30 18 1 18 19
M  V30 19 1 18 20
M  V30 20 1 7 2
M  V30 21 1 14 9
M  V30 22 2 19 15
M  V30 23 1 1 21
M  V30 24 1 1 22
M  V30 25 1 3 23
M  V30 26 1 4 24
M  V30 27 1 5 25
M  V30 28 1 7 26
M  V30 29 1 8 27
M  V30 30 1 8 28
M  V30 31 1 10 29
M  V30 32 1 10 30
M  V30 33 1 11 31
M  V30 34 1 11 32
M  V30 35 1 13 33
M  V30 36 1 13 34
M  V30 37 1 14 35
M  V30 38 1 14 36
M  V30 39 1 20 37
M  V30 40 1 20 38
M  V30 END BOND
M  V30 END CTAB
M  END
