
     RDKit          3D

  0  0  0  0  0  0  0  0  0  0999 V3000
M  V30 BEGIN CTAB
M  V30 COUNTS 39 41 0 0 0
M  V30 BEGIN ATOM
M  V30 1 C 4.15235 0.262321 1.57529 0
M  V30 2 C 4.98941 0.150085 0.303267 0
M  V30 3 C 4.66086 -0.736291 -0.680052 0
M  V30 4 S 5.94162 -0.475973 -1.83212 0
M  V30 5 C 6.80964 0.72644 -1.01544 0
M  V30 6 C 6.09432 0.902331 0.129556 0
M  V30 7 C 3.54241 -1.66843 -0.826509 0
M  V30 8 O 3.84769 -2.87821 -1.08357 0
M  V30 9 N 2.18607 -1.28787 -0.701874 0
M  V30 10 N 1.71488 -0.103533 -0.471011 0
M  V30 11 C 0.354696 -0.160149 -0.42288 0
M  V30 12 N -0.465663 0.95828 -0.167483 0
M  V30 13 C -1.86174 0.929109 -0.125773 0
M  V30 14 C -2.66406 -0.0433045 -0.642124 0
M  V30 15 C -4.06204 -0.00548686 -0.535454 0
M  V30 16 C -4.70391 1.02405 0.100145 0
M  V30 17 C -3.91172 2.0148 0.626648 0
M  V30 18 C -2.55156 1.98304 0.526186 0
M  V30 19 S -6.45406 1.07058 0.232673 0
M  V30 20 N -6.95228 0.274331 1.6645 0
M  V30 21 O -7.01952 0.359157 -0.967257 0
M  V30 22 O -6.873 2.51229 0.224582 0
M  V30 23 N 0.0364164 -1.43664 -0.636577 0
M  V30 24 C 1.13197 -2.14515 -0.809791 0
M  V30 25 N 1.25424 -3.53587 -1.06312 0
M  V30 26 H 4.84372 0.401379 2.44062 0
M  V30 27 H 3.65293 -0.700104 1.75374 0
M  V30 28 H 3.50293 1.13646 1.5639 0
M  V30 29 H 7.72992 1.24508 -1.3264 0
M  V30 30 H 6.44722 1.65678 0.875078 0
M  V30 31 H 0.0214567 1.89295 0.004906 0
M  V30 32 H -2.23373 -0.878849 -1.16996 0
M  V30 33 H -4.64383 -0.827516 -0.977615 0
M  V30 34 H -4.42699 2.83432 1.13325 0
M  V30 35 H -1.93291 2.76442 0.941755 0
M  V30 36 H -6.91231 -0.759436 1.52881 0
M  V30 37 H -7.85126 0.633162 2.03006 0
M  V30 38 H 1.36338 -3.8236 -2.06268 0
M  V30 39 H 1.24244 -4.26494 -0.332748 0
M  V30 END ATOM
M  V30 BEGIN BOND
M  V30 1 1 1 2
M  V30 2 2 2 3
M  V30 3 1 3 4
M  V30 4 1 4 5
M  V30 5 2 5 6
M  V30 6 1 3 7
M  V30 7 2 7 8
M  V30 8 1 7 9
M  V30 9 1 9 10
M  V30 10 2 10 11
M  V30 11 1 11 12
M  V30 12 1 12 13
M  V30 13 2 13 14
M  V30 14 1 14 15
M  V30 15 2 15 16
M  V30 16 1 16 17
M  V30 17 2 17 18
M  V30 18 1 16 19
M  V30 19 1 19 20
M  V30 20 2 19 21
M  V30 21 2 19 22
M  V30 22 1 11 23
M  V30 23 2 23 24
M  V30 24 1 24 25
M  V30 25 1 6 2
M  V30 26 1 24 9
M  V30 27 1 18 13
M  V30 28 1 1 26
M  V30 29 1 1 27
M  V30 30 1 1 28
M  V30 31 1 5 29
M  V30 32 1 6 30
M  V30 33 1 12 31
M  V30 34 1 14 32
M  V30 35 1 15 33
M  V30 36 1 17 34
M  V30 37 1 18 35
M  V30 38 1 20 36
M  V30 39 1 20 37
M  V30 40 1 25 38
M  V30 41 1 25 39
M  V30 END BOND
M  V30 END CTAB
M  END
