
     RDKit          3D

  0  0  0  0  0  0  0  0  0  0999 V3000
M  V30 BEGIN CTAB
M  V30 COUNTS 27 26 0 0 0
M  V30 BEGIN ATOM
M  V30 1 N 2.55487 -0.46736 0.997305 0
M  V30 2 C 2.08065 0.69669 0.228857 0
M  V30 3 C 1.29831 0.312768 -0.954086 0
M  V30 4 C 0.0539251 -0.456289 -0.797796 0
M  V30 5 C -1.06849 0.123513 -0.0338961 0
M  V30 6 C -0.866768 0.468734 1.39039 0
M  V30 7 C -2.20501 -0.921161 -0.0774492 0
M  V30 8 C -1.65544 1.35445 -0.716409 0
M  V30 9 N 0.286993 -1.82108 -0.335266 0
M  V30 10 H 3.14238 -1.08941 0.408476 0
M  V30 11 H 3.09098 -0.0460682 1.8026 0
M  V30 12 H 1.67103 1.3978 0.939717 0
M  V30 13 H 3.04073 1.17994 -0.144341 0
M  V30 14 H 1.98493 -0.322893 -1.60148 0
M  V30 15 H 1.09357 1.18875 -1.61561 0
M  V30 16 H -0.347143 -0.614811 -1.85292 0
M  V30 17 H -1.90023 0.424305 1.87287 0
M  V30 18 H -0.579423 1.55053 1.56467 0
M  V30 19 H -0.264317 -0.240923 1.97153 0
M  V30 20 H -2.07046 -1.60668 -0.93923 0
M  V30 21 H -2.11457 -1.53793 0.83318 0
M  V30 22 H -3.18658 -0.437963 -0.170194 0
M  V30 23 H -0.978715 2.22831 -0.625498 0
M  V30 24 H -1.94901 1.14677 -1.75841 0
M  V30 25 H -2.58681 1.59386 -0.157987 0
M  V30 26 H 1.0629 -2.21295 -0.908411 0
M  V30 27 H 0.411677 -1.89089 0.679388 0
M  V30 END ATOM
M  V30 BEGIN BOND
M  V30 1 1 1 2
M  V30 2 1 2 3
M  V30 3 1 3 4
M  V30 4 1 4 5
M  V30 5 1 5 6
M  V30 6 1 5 7
M  V30 7 1 5 8
M  V30 8 1 4 9
M  V30 9 1 1 10
M  V30 10 1 1 11
M  V30 11 1 2 12
M  V30 12 1 2 13
M  V30 13 1 3 14
M  V30 14 1 3 15
M  V30 15 1 4 16
M  V30 16 1 6 17
M  V30 17 1 6 18
M  V30 18 1 6 19
M  V30 19 1 7 20
M  V30 20 1 7 21
M  V30 21 1 7 22
M  V30 22 1 8 23
M  V30 23 1 8 24
M  V30 24 1 8 25
M  V30 25 1 9 26
M  V30 26 1 9 27
M  V30 END BOND
M  V30 END CTAB
M  END
