
     RDKit          3D

  0  0  0  0  0  0  0  0  0  0999 V3000
M  V30 BEGIN CTAB
M  V30 COUNTS 39 40 0 0 0
M  V30 BEGIN ATOM
M  V30 1 O -0.756432 -2.65232 -1.8061 0 CHG=-1
M  V30 2 N -1.62841 -1.63052 -2.01312 0 CHG=1
M  V30 3 O -1.97552 -1.31751 -3.16345 0
M  V30 4 C -2.17827 -0.86735 -0.927452 0
M  V30 5 C -3.41393 -0.310647 -1.13826 0
M  V30 6 C -4.02046 0.401765 -0.146512 0
M  V30 7 N -5.30099 1.00442 -0.305891 0 CHG=1
M  V30 8 O -5.66283 1.33734 -1.44282 0
M  V30 9 O -6.15805 1.23489 0.739914 0 CHG=-1
M  V30 10 C -3.39953 0.572476 1.08533 0
M  V30 11 C -2.16141 0.00325834 1.26989 0
M  V30 12 C -1.49957 -0.737736 0.271946 0
M  V30 13 S 0.0188181 -1.48258 0.517103 0
M  V30 14 C 1.53239 -0.78515 0.0974328 0
M  V30 15 C 2.67104 -1.53152 0.504796 0
M  V30 16 C 3.93579 -1.10644 0.224633 0
M  V30 17 C 4.19638 0.0564963 -0.460837 0
M  V30 18 C 3.1128 0.790533 -0.863709 0
M  V30 19 C 1.79109 0.353846 -0.576101 0
M  V30 20 N 0.771448 1.17979 -1.09655 0 CHG=1
M  V30 21 O 0.20575 1.99389 -0.363148 0
M  V30 22 O 0.464456 1.09859 -2.44621 0 CHG=-1
M  V30 23 N 3.28587 2.00014 -1.56914 0
M  V30 24 N 5.54017 0.447724 -0.717356 0 CHG=1
M  V30 25 O 6.39264 -0.488556 -0.796417 0
M  V30 26 O 5.9221 1.74552 -0.874826 0 CHG=-1
M  V30 27 N 2.49489 -2.76345 1.23096 0 CHG=1
M  V30 28 O 1.50786 -3.48164 1.02335 0
M  V30 29 O 3.42864 -3.1455 2.15384 0 CHG=-1
M  V30 30 N -1.55691 0.147577 2.56539 0 CHG=1
M  V30 31 O -2.00995 -0.473074 3.53572 0
M  V30 32 O -0.489542 0.968251 2.70567 0 CHG=-1
M  V30 33 N -4.04639 1.32587 2.10398 0
M  V30 34 H -3.94121 -0.413243 -2.08615 0
M  V30 35 H 4.80745 -1.68047 0.536953 0
M  V30 36 H 4.00027 2.15698 -2.32165 0
M  V30 37 H 2.68524 2.8382 -1.36639 0
M  V30 38 H -4.35712 0.88097 2.98669 0
M  V30 39 H -4.20857 2.32919 1.963 0
M  V30 END ATOM
M  V30 BEGIN BOND
M  V30 1 1 1 2
M  V30 2 2 2 3
M  V30 3 1 2 4
M  V30 4 2 4 5
M  V30 5 1 5 6
M  V30 6 1 6 7
M  V30 7 2 7 8
M  V30 8 1 7 9
M  V30 9 2 6 10
M  V30 10 1 10 11
M  V30 11 2 11 12
M  V30 12 1 12 13
M  V30 13 1 13 14
M  V30 14 2 14 15
M  V30 15 1 15 16
M  V30 16 2 16 17
M  V30 17 1 17 18
M  V30 18 2 18 19
M  V30 19 1 19 20
M  V30 20 2 20 21
M  V30 21 1 20 22
M  V30 22 1 18 23
M  V30 23 1 17 24
M  V30 24 2 24 25
M  V30 25 1 24 26
M  V30 26 1 15 27
M  V30 27 2 27 28
M  V30 28 1 27 29
M  V30 29 1 11 30
M  V30 30 2 30 31
M  V30 31 1 30 32
M  V30 32 1 10 33
M  V30 33 1 12 4
M  V30 34 1 19 14
M  V30 35 1 5 34
M  V30 36 1 16 35
M  V30 37 1 23 36
M  V30 38 1 23 37
M  V30 39 1 33 38
M  V30 40 1 33 39
M  V30 END BOND
M  V30 END CTAB
M  END
