
     RDKit          3D

  0  0  0  0  0  0  0  0  0  0999 V3000
M  V30 BEGIN CTAB
M  V30 COUNTS 21 22 0 0 0
M  V30 BEGIN ATOM
M  V30 1 N 4.193 -0.394649 -0.491042 0
M  V30 2 C 2.94156 0.278254 -0.444105 0
M  V30 3 N 2.52438 1.35653 -1.13141 0
M  V30 4 O 1.30588 1.61632 -0.760216 0
M  V30 5 C 0.888135 0.764965 0.141177 0
M  V30 6 N 1.92153 -0.0740608 0.335666 0
M  V30 7 C -0.390155 0.638144 0.859185 0
M  V30 8 C -1.38522 -0.238481 0.148713 0
M  V30 9 N -0.968769 -1.60985 -0.0745508 0
M  V30 10 C -2.82311 -0.0357306 0.633972 0
M  V30 11 C -2.39622 0.311657 -0.767163 0
M  V30 12 H 4.32984 -1.3634 -0.851102 0
M  V30 13 H 5.03807 0.103794 -0.144946 0
M  V30 14 H -0.197661 0.227407 1.87136 0
M  V30 15 H -0.780573 1.68131 0.99746 0
M  V30 16 H -1.05609 -2.1955 0.787359 0
M  V30 17 H -1.59755 -2.05622 -0.781948 0
M  V30 18 H -3.03967 0.858664 1.26006 0
M  V30 19 H -3.4368 -0.925449 0.817476 0
M  V30 20 H -2.33141 1.38491 -1.0717 0
M  V30 21 H -2.73918 -0.32861 -1.61162 0
M  V30 END ATOM
M  V30 BEGIN BOND
M  V30 1 1 1 2
M  V30 2 2 2 3
M  V30 3 1 3 4
M  V30 4 1 4 5
M  V30 5 2 5 6
M  V30 6 1 5 7
M  V30 7 1 7 8
M  V30 8 1 8 9
M  V30 9 1 8 10
M  V30 10 1 10 11
M  V30 11 1 6 2
M  V30 12 1 11 8
M  V30 13 1 1 12
M  V30 14 1 1 13
M  V30 15 1 7 14
M  V30 16 1 7 15
M  V30 17 1 9 16
M  V30 18 1 9 17
M  V30 19 1 10 18
M  V30 20 1 10 19
M  V30 21 1 11 20
M  V30 22 1 11 21
M  V30 END BOND
M  V30 END CTAB
M  END
