
     RDKit          3D

  0  0  0  0  0  0  0  0  0  0999 V3000
M  V30 BEGIN CTAB
M  V30 COUNTS 28 28 0 0 0
M  V30 BEGIN ATOM
M  V30 1 C 2.02038 -0.695903 -1.19262 0
M  V30 2 C 2.35174 -0.0102636 0.0965645 0
M  V30 3 C 1.34735 1.0154 0.515478 0
M  V30 4 C -0.00809026 0.484482 0.720214 0
M  V30 5 C -0.470106 0.000342908 1.92287 0
M  V30 6 C -1.7556 -0.477653 2.022 0
M  V30 7 C -2.62643 -0.495805 0.947157 0
M  V30 8 C -2.17629 -0.015898 -0.255247 0
M  V30 9 C -0.87768 0.464267 -0.345294 0
M  V30 10 N -3.03333 -0.0121207 -1.39386 0
M  V30 11 N -3.9454 -0.989487 1.06107 0
M  V30 12 C 3.68118 0.696565 -0.0939448 0
M  V30 13 H 1.56211 -0.0512858 -1.9416 0
M  V30 14 H 2.98084 -1.13187 -1.58934 0
M  V30 15 H 1.36936 -1.56948 -0.969384 0
M  V30 16 H 2.50337 -0.795311 0.89231 0
M  V30 17 H 1.37578 1.83888 -0.222874 0
M  V30 18 H 1.68719 1.44249 1.48163 0
M  V30 19 H 0.211078 0.0152382 2.76114 0
M  V30 20 H -2.14261 -0.864359 2.95899 0
M  V30 21 H -0.582527 0.829462 -1.32237 0
M  V30 22 H -2.66219 -0.227947 -2.3307 0
M  V30 23 H -4.05028 0.20668 -1.31416 0
M  V30 24 H -4.47403 -0.958359 1.95213 0
M  V30 25 H -4.39874 -1.39685 0.222733 0
M  V30 26 H 4.436 0.347031 0.646058 0
M  V30 27 H 4.09581 0.546221 -1.11352 0
M  V30 28 H 3.58109 1.80553 0.0227955 0
M  V30 END ATOM
M  V30 BEGIN BOND
M  V30 1 1 1 2
M  V30 2 1 2 3
M  V30 3 1 3 4
M  V30 4 2 4 5
M  V30 5 1 5 6
M  V30 6 2 6 7
M  V30 7 1 7 8
M  V30 8 2 8 9
M  V30 9 1 8 10
M  V30 10 1 7 11
M  V30 11 1 2 12
M  V30 12 1 9 4
M  V30 13 1 1 13
M  V30 14 1 1 14
M  V30 15 1 1 15
M  V30 16 1 2 16
M  V30 17 1 3 17
M  V30 18 1 3 18
M  V30 19 1 5 19
M  V30 20 1 6 20
M  V30 21 1 9 21
M  V30 22 1 10 22
M  V30 23 1 10 23
M  V30 24 1 11 24
M  V30 25 1 11 25
M  V30 26 1 12 26
M  V30 27 1 12 27
M  V30 28 1 12 28
M  V30 END BOND
M  V30 END CTAB
M  END
