
     RDKit          3D

  0  0  0  0  0  0  0  0  0  0999 V3000
M  V30 BEGIN CTAB
M  V30 COUNTS 39 40 0 0 0
M  V30 BEGIN ATOM
M  V30 1 N -1.76209 2.5552 1.42954 0
M  V30 2 C -0.864319 1.53783 1.83594 0
M  V30 3 C -0.82075 0.454375 0.755203 0
M  V30 4 C -2.22618 -0.0537715 0.656853 0
M  V30 5 C -2.20496 -1.56921 0.559149 0
M  V30 6 C -3.06957 0.481275 -0.432514 0
M  V30 7 C -2.27339 0.470122 -1.71661 0
M  V30 8 C -1.0996 1.36999 -1.45646 0
M  V30 9 N -0.216791 0.888202 -0.429777 0
M  V30 10 S 0.891958 -0.171371 -1.18807 0
M  V30 11 O 1.39318 0.44896 -2.50069 0
M  V30 12 O 0.21177 -1.44852 -1.62894 0
M  V30 13 C 2.29432 -0.584703 -0.298062 0
M  V30 14 C 2.63049 -0.104754 0.922664 0
M  V30 15 C 3.78867 -0.491838 1.55234 0
M  V30 16 Cl 4.18144 0.168695 3.15448 0
M  V30 17 C 4.62713 -1.38057 0.941047 0
M  V30 18 N 4.29178 -1.85056 -0.262057 0
M  V30 19 C 3.16827 -1.49549 -0.908353 0
M  V30 20 N 2.91248 -2.05856 -2.18488 0
M  V30 21 H -1.35589 3.43456 1.10548 0
M  V30 22 H -2.63327 2.62011 1.9729 0
M  V30 23 H 0.121441 1.87088 2.16 0
M  V30 24 H -1.30981 1.00941 2.73125 0
M  V30 25 H -0.184329 -0.359265 1.19711 0
M  V30 26 H -2.80525 0.146584 1.61334 0
M  V30 27 H -2.90638 -2.06166 1.26537 0
M  V30 28 H -2.42418 -1.93295 -0.457489 0
M  V30 29 H -1.19424 -1.93262 0.856791 0
M  V30 30 H -3.38547 1.53388 -0.225748 0
M  V30 31 H -3.99238 -0.141103 -0.546941 0
M  V30 32 H -2.86461 0.886538 -2.5698 0
M  V30 33 H -2.00848 -0.587665 -1.91358 0
M  V30 34 H -0.598145 1.53959 -2.42288 0
M  V30 35 H -1.50111 2.35028 -1.13292 0
M  V30 36 H 1.99939 0.598215 1.42519 0
M  V30 37 H 5.5326 -1.66566 1.46407 0
M  V30 38 H 3.092 -1.44473 -3.0332 0
M  V30 39 H 2.56429 -3.02971 -2.28975 0
M  V30 END ATOM
M  V30 BEGIN BOND
M  V30 1 1 1 2
M  V30 2 1 2 3
M  V30 3 1 3 4
M  V30 4 1 4 5
M  V30 5 1 4 6
M  V30 6 1 6 7
M  V30 7 1 7 8
M  V30 8 1 8 9
M  V30 9 1 9 10
M  V30 10 2 10 11
M  V30 11 2 10 12
M  V30 12 1 10 13
M  V30 13 2 13 14
M  V30 14 1 14 15
M  V30 15 1 15 16
M  V30 16 2 15 17
M  V30 17 1 17 18
M  V30 18 2 18 19
M  V30 19 1 19 20
M  V30 20 1 9 3
M  V30 21 1 19 13
M  V30 22 1 1 21
M  V30 23 1 1 22
M  V30 24 1 2 23
M  V30 25 1 2 24
M  V30 26 1 3 25
M  V30 27 1 4 26
M  V30 28 1 5 27
M  V30 29 1 5 28
M  V30 30 1 5 29
M  V30 31 1 6 30
M  V30 32 1 6 31
M  V30 33 1 7 32
M  V30 34 1 7 33
M  V30 35 1 8 34
M  V30 36 1 8 35
M  V30 37 1 14 36
M  V30 38 1 17 37
M  V30 39 1 20 38
M  V30 40 1 20 39
M  V30 END BOND
M  V30 END CTAB
M  END
