
     RDKit          3D

  0  0  0  0  0  0  0  0  0  0999 V3000
M  V30 BEGIN CTAB
M  V30 COUNTS 27 27 0 0 0
M  V30 BEGIN ATOM
M  V30 1 C 3.94931 0.988499 1.93967 0
M  V30 2 C 3.06068 0.952042 1.12626 0
M  V30 3 C 1.96839 0.925924 0.151077 0
M  V30 4 C 1.66821 -0.501807 -0.200428 0
M  V30 5 N 0.596359 -0.522554 -1.14458 0
M  V30 6 C -0.746278 -0.281171 -0.704092 0
M  V30 7 C -1.06808 -0.106069 0.61665 0
M  V30 8 C -2.34988 0.143314 1.06233 0
M  V30 9 N -2.66877 0.32342 2.43526 0
M  V30 10 N -3.3026 0.209057 0.115067 0
M  V30 11 C -2.98576 0.0347329 -1.19952 0
M  V30 12 N -1.7442 -0.204953 -1.6143 0
M  V30 13 N -4.08598 0.128045 -2.10389 0
M  V30 14 C 2.88744 -1.17621 -0.815438 0
M  V30 15 H 4.72289 1.02853 2.66428 0
M  V30 16 H 2.31305 1.40319 -0.800049 0
M  V30 17 H 1.06249 1.44371 0.457987 0
M  V30 18 H 1.34908 -1.09732 0.683433 0
M  V30 19 H 0.805499 -0.712765 -2.14254 0
M  V30 20 H -0.306167 -0.170932 1.39842 0
M  V30 21 H -3.61081 0.0967922 2.8147 0
M  V30 22 H -1.95422 0.691714 3.09911 0
M  V30 23 H -4.27343 -0.547902 -2.86724 0
M  V30 24 H -4.74041 0.92851 -1.98577 0
M  V30 25 H 2.81199 -1.02362 -1.91493 0
M  V30 26 H 2.81928 -2.24543 -0.604152 0
M  V30 27 H 3.82191 -0.706755 -0.467299 0
M  V30 END ATOM
M  V30 BEGIN BOND
M  V30 1 3 1 2
M  V30 2 1 2 3
M  V30 3 1 3 4
M  V30 4 1 4 5
M  V30 5 1 5 6
M  V30 6 2 6 7
M  V30 7 1 7 8
M  V30 8 1 8 9
M  V30 9 2 8 10
M  V30 10 1 10 11
M  V30 11 2 11 12
M  V30 12 1 11 13
M  V30 13 1 4 14
M  V30 14 1 12 6
M  V30 15 1 1 15
M  V30 16 1 3 16
M  V30 17 1 3 17
M  V30 18 1 4 18
M  V30 19 1 5 19
M  V30 20 1 7 20
M  V30 21 1 9 21
M  V30 22 1 9 22
M  V30 23 1 13 23
M  V30 24 1 13 24
M  V30 25 1 14 25
M  V30 26 1 14 26
M  V30 27 1 14 27
M  V30 END BOND
M  V30 END CTAB
M  END
