
     RDKit          3D

  0  0  0  0  0  0  0  0  0  0999 V3000
M  V30 BEGIN CTAB
M  V30 COUNTS 20 20 0 0 0
M  V30 BEGIN ATOM
M  V30 1 N 2.48502 -1.21234 -0.196895 0
M  V30 2 C 1.20771 -0.593827 -0.0961969 0
M  V30 3 C 1.10603 0.76404 -0.282942 0
M  V30 4 C -0.127608 1.4065 -0.192812 0
M  V30 5 C -1.22271 0.603713 0.0916308 0
M  V30 6 C -1.11747 -0.750815 0.277487 0
M  V30 7 N -2.27963 -1.48784 0.563489 0
M  V30 8 N 0.106847 -1.31785 0.177374 0 CHG=1
M  V30 9 O 0.195673 -2.66882 0.363981 0 CHG=-1
M  V30 10 N -2.49647 1.21297 0.192583 0 CHG=1
M  V30 11 O -3.49016 0.684446 0.964888 0 CHG=-1
M  V30 12 O -2.70685 2.25838 -0.443072 0
M  V30 13 N 2.29246 1.48447 -0.568858 0 CHG=1
M  V30 14 O 3.37551 0.922696 -1.18597 0 CHG=-1
M  V30 15 O 2.35322 2.68048 -0.245151 0
M  V30 16 H 2.85973 -1.48791 -1.13172 0
M  V30 17 H 3.10072 -1.42014 0.619435 0
M  V30 18 H -0.173482 2.45981 -0.342109 0
M  V30 19 H -2.60129 -1.53212 1.56214 0
M  V30 20 H -2.86726 -2.00585 -0.127279 0
M  V30 END ATOM
M  V30 BEGIN BOND
M  V30 1 1 1 2
M  V30 2 2 2 3
M  V30 3 1 3 4
M  V30 4 2 4 5
M  V30 5 1 5 6
M  V30 6 1 6 7
M  V30 7 2 6 8
M  V30 8 1 8 9
M  V30 9 1 5 10
M  V30 10 1 10 11
M  V30 11 2 10 12
M  V30 12 1 3 13
M  V30 13 1 13 14
M  V30 14 2 13 15
M  V30 15 1 8 2
M  V30 16 1 1 16
M  V30 17 1 1 17
M  V30 18 1 4 18
M  V30 19 1 7 19
M  V30 20 1 7 20
M  V30 END BOND
M  V30 END CTAB
M  END
