
     RDKit          3D

  0  0  0  0  0  0  0  0  0  0999 V3000
M  V30 BEGIN CTAB
M  V30 COUNTS 46 45 0 0 0
M  V30 BEGIN ATOM
M  V30 1 C -5.37041 0.685366 0.77129 0
M  V30 2 C -4.65376 1.35366 -0.349659 0
M  V30 3 C -3.18356 1.32541 -0.364816 0
M  V30 4 C -2.48545 0.0164538 -0.433316 0
M  V30 5 C -1.01483 0.264741 -0.470724 0
M  V30 6 O -0.594223 1.01398 0.475059 0
M  V30 7 N -0.100966 -0.228828 -1.40773 0
M  V30 8 C 1.32972 0.153579 -1.24295 0
M  V30 9 C 1.9414 -0.897534 -0.376783 0
M  V30 10 C 3.38849 -0.811474 -0.0716323 0
M  V30 11 C 3.87817 0.404679 0.650062 0
M  V30 12 C 5.39963 0.237917 0.894857 0
M  V30 13 C 3.75653 1.69341 -0.116659 0
M  V30 14 N 3.74248 -1.9735 0.778544 0
M  V30 15 C -0.400408 -1.08114 -2.53083 0
M  V30 16 N -2.91237 -0.83039 -1.49034 0
M  V30 17 C -2.69644 -0.73074 0.892812 0
M  V30 18 H -5.71052 -0.329008 0.409292 0
M  V30 19 H -4.83905 0.608893 1.71976 0
M  V30 20 H -6.34263 1.19929 1.01232 0
M  V30 21 H -5.07232 1.05012 -1.35327 0
M  V30 22 H -4.95394 2.44983 -0.296078 0
M  V30 23 H -2.82589 1.90754 0.535091 0
M  V30 24 H -2.85204 1.97126 -1.23765 0
M  V30 25 H 1.29733 1.15238 -0.791891 0
M  V30 26 H 1.78106 0.149061 -2.25313 0
M  V30 27 H 1.40005 -0.926792 0.621509 0
M  V30 28 H 1.70659 -1.92786 -0.811601 0
M  V30 29 H 4.02431 -0.876186 -1.00091 0
M  V30 30 H 3.37171 0.440614 1.63381 0
M  V30 31 H 5.89877 1.22333 0.906041 0
M  V30 32 H 5.55902 -0.261748 1.86865 0
M  V30 33 H 5.80071 -0.330326 0.0337206 0
M  V30 34 H 3.61532 1.47274 -1.18402 0
M  V30 35 H 4.71071 2.28519 0.0379003 0
M  V30 36 H 2.95456 2.35866 0.289733 0
M  V30 37 H 3.74977 -2.83576 0.183234 0
M  V30 38 H 2.9677 -2.1047 1.45996 0
M  V30 39 H -0.816059 -2.07332 -2.24889 0
M  V30 40 H -1.10211 -0.612756 -3.27035 0
M  V30 41 H 0.508788 -1.29938 -3.14138 0
M  V30 42 H -2.93027 -1.81692 -1.15191 0
M  V30 43 H -3.86578 -0.627837 -1.86237 0
M  V30 44 H -2.59387 -0.0703903 1.76776 0
M  V30 45 H -1.84464 -1.47397 1.02322 0
M  V30 46 H -3.6213 -1.29754 0.925406 0
M  V30 END ATOM
M  V30 BEGIN BOND
M  V30 1 1 1 2
M  V30 2 1 2 3
M  V30 3 1 3 4
M  V30 4 1 4 5
M  V30 5 2 5 6
M  V30 6 1 5 7
M  V30 7 1 7 8
M  V30 8 1 8 9
M  V30 9 1 9 10
M  V30 10 1 10 11
M  V30 11 1 11 12
M  V30 12 1 11 13
M  V30 13 1 10 14
M  V30 14 1 7 15
M  V30 15 1 4 16
M  V30 16 1 4 17
M  V30 17 1 1 18
M  V30 18 1 1 19
M  V30 19 1 1 20
M  V30 20 1 2 21
M  V30 21 1 2 22
M  V30 22 1 3 23
M  V30 23 1 3 24
M  V30 24 1 8 25
M  V30 25 1 8 26
M  V30 26 1 9 27
M  V30 27 1 9 28
M  V30 28 1 10 29
M  V30 29 1 11 30
M  V30 30 1 12 31
M  V30 31 1 12 32
M  V30 32 1 12 33
M  V30 33 1 13 34
M  V30 34 1 13 35
M  V30 35 1 13 36
M  V30 36 1 14 37
M  V30 37 1 14 38
M  V30 38 1 15 39
M  V30 39 1 15 40
M  V30 40 1 15 41
M  V30 41 1 16 42
M  V30 42 1 16 43
M  V30 43 1 17 44
M  V30 44 1 17 45
M  V30 45 1 17 46
M  V30 END BOND
M  V30 END CTAB
M  END
