
     RDKit          3D

  0  0  0  0  0  0  0  0  0  0999 V3000
M  V30 BEGIN CTAB
M  V30 COUNTS 31 33 0 0 0
M  V30 BEGIN ATOM
M  V30 1 N -3.944 -2.68421 0.0354572 0
M  V30 2 C -4.08529 -1.26692 0.0395552 0
M  V30 3 N -5.15051 -0.561556 0.116507 0
M  V30 4 N -4.89225 0.786398 0.0916885 0
M  V30 5 C -3.62303 1.02915 -0.00458734 0
M  V30 6 N -2.98902 2.30403 -0.057229 0
M  V30 7 C -2.97343 -0.27081 -0.0478667 0
M  V30 8 N -1.77442 -0.63723 -0.138548 0
M  V30 9 N -0.678513 0.188138 -0.223871 0
M  V30 10 C 0.62995 -0.374182 -0.022892 0
M  V30 11 C 0.737312 -1.73381 0.224246 0
M  V30 12 C 1.96402 -2.33209 0.422664 0
M  V30 13 C 3.1351 -1.59847 0.382507 0
M  V30 14 C 3.01466 -0.244366 0.135238 0
M  V30 15 C 1.76869 0.353953 -0.0643731 0
M  V30 16 C 1.75089 1.70093 -0.300779 0
M  V30 17 C 2.92822 2.43726 -0.339434 0
M  V30 18 C 4.14326 1.82111 -0.139551 0
M  V30 19 C 4.19599 0.469217 0.100659 0
M  V30 20 H -4.55041 -3.24238 0.68036 0
M  V30 21 H -3.26145 -3.16922 -0.585233 0
M  V30 22 H -2.86494 2.92048 0.755055 0
M  V30 23 H -2.62671 2.63684 -0.985263 0
M  V30 24 H -0.817453 1.17499 -0.432169 0
M  V30 25 H -0.124481 -2.3881 0.27278 0
M  V30 26 H 2.05376 -3.38856 0.616515 0
M  V30 27 H 4.10111 -2.07476 0.538707 0
M  V30 28 H 0.819714 2.22527 -0.462226 0
M  V30 29 H 2.91044 3.50228 -0.52471 0
M  V30 30 H 5.0515 2.43694 -0.178821 0
M  V30 31 H 5.15129 -0.0202969 0.259871 0
M  V30 END ATOM
M  V30 BEGIN BOND
M  V30 1 1 1 2
M  V30 2 2 2 3
M  V30 3 1 3 4
M  V30 4 2 4 5
M  V30 5 1 5 6
M  V30 6 1 5 7
M  V30 7 2 7 8
M  V30 8 1 8 9
M  V30 9 1 9 10
M  V30 10 2 10 11
M  V30 11 1 11 12
M  V30 12 2 12 13
M  V30 13 1 13 14
M  V30 14 2 14 15
M  V30 15 1 15 16
M  V30 16 2 16 17
M  V30 17 1 17 18
M  V30 18 2 18 19
M  V30 19 1 7 2
M  V30 20 1 15 10
M  V30 21 1 19 14
M  V30 22 1 1 20
M  V30 23 1 1 21
M  V30 24 1 6 22
M  V30 25 1 6 23
M  V30 26 1 9 24
M  V30 27 1 11 25
M  V30 28 1 12 26
M  V30 29 1 13 27
M  V30 30 1 16 28
M  V30 31 1 17 29
M  V30 32 1 18 30
M  V30 33 1 19 31
M  V30 END BOND
M  V30 END CTAB
M  END
