
     RDKit          3D

  0  0  0  0  0  0  0  0  0  0999 V3000
M  V30 BEGIN CTAB
M  V30 COUNTS 35 35 0 0 0
M  V30 BEGIN ATOM
M  V30 1 F -0.0134008 -1.5548 2.79586 0
M  V30 2 C 0.583482 -0.961776 1.63588 0
M  V30 3 C 1.70999 -0.13956 2.10706 0
M  V30 4 C 2.53485 0.648154 1.1956 0
M  V30 5 C 3.27967 -0.0784965 0.117738 0
M  V30 6 C 4.12362 0.933328 -0.698896 0
M  V30 7 C 4.87831 0.20311 -1.78366 0
M  V30 8 F 5.64771 1.06584 -2.53778 0
M  V30 9 F 4.06411 -0.500286 -2.63433 0
M  V30 10 F 5.77896 -0.706699 -1.21464 0
M  V30 11 F 5.02483 1.58813 0.099864 0
M  V30 12 F 3.23065 1.77478 -1.31709 0
M  V30 13 F 2.47369 -0.669622 -0.839367 0
M  V30 14 F 4.13334 -1.00658 0.653127 0
M  V30 15 F 1.86885 1.76547 0.678597 0
M  V30 16 F 3.5525 1.24039 1.98908 0
M  V30 17 F 2.55104 -0.982814 2.88621 0
M  V30 18 F 1.18305 0.722239 3.10551 0
M  V30 19 C -0.546274 -0.199204 0.989225 0
M  V30 20 O -1.55643 -1.14927 0.674211 0
M  V30 21 C -2.74072 -0.774805 0.064856 0
M  V30 22 N -2.91692 0.516819 -0.225144 0
M  V30 23 C -4.01422 0.979243 -0.808357 0
M  V30 24 N -4.18298 2.34975 -1.10763 0
M  V30 25 N -4.9984 0.120399 -1.12603 0
M  V30 26 C -4.83304 -1.18858 -0.838253 0
M  V30 27 N -3.69868 -1.63825 -0.239923 0
M  V30 28 N -5.88899 -2.0639 -1.18652 0
M  V30 29 F 0.920159 -2.0935 0.901211 0
M  V30 30 H -0.179839 0.184683 0.0177738 0
M  V30 31 H -0.941648 0.600868 1.64224 0
M  V30 32 H -4.25454 3.06702 -0.339174 0
M  V30 33 H -4.24425 2.71587 -2.0824 0
M  V30 34 H -6.24326 -2.70307 -0.426312 0
M  V30 35 H -6.28524 -2.06486 -2.14852 0
M  V30 END ATOM
M  V30 BEGIN BOND
M  V30 1 1 1 2
M  V30 2 1 2 3
M  V30 3 1 3 4
M  V30 4 1 4 5
M  V30 5 1 5 6
M  V30 6 1 6 7
M  V30 7 1 7 8
M  V30 8 1 7 9
M  V30 9 1 7 10
M  V30 10 1 6 11
M  V30 11 1 6 12
M  V30 12 1 5 13
M  V30 13 1 5 14
M  V30 14 1 4 15
M  V30 15 1 4 16
M  V30 16 1 3 17
M  V30 17 1 3 18
M  V30 18 1 2 19
M  V30 19 1 19 20
M  V30 20 1 20 21
M  V30 21 2 21 22
M  V30 22 1 22 23
M  V30 23 1 23 24
M  V30 24 2 23 25
M  V30 25 1 25 26
M  V30 26 2 26 27
M  V30 27 1 26 28
M  V30 28 1 2 29
M  V30 29 1 27 21
M  V30 30 1 19 30
M  V30 31 1 19 31
M  V30 32 1 24 32
M  V30 33 1 24 33
M  V30 34 1 28 34
M  V30 35 1 28 35
M  V30 END BOND
M  V30 END CTAB
M  END
