
     RDKit          3D

  0  0  0  0  0  0  0  0  0  0999 V3000
M  V30 BEGIN CTAB
M  V30 COUNTS 31 32 0 0 0
M  V30 BEGIN ATOM
M  V30 1 N 4.86475 -0.0699693 0.411293 0
M  V30 2 C 3.49063 -0.387252 0.554957 0
M  V30 3 N 2.92218 -1.31833 1.35801 0
M  V30 4 N 1.61248 -1.28755 1.18517 0
M  V30 5 C 1.2852 -0.35048 0.277913 0
M  V30 6 N 2.45723 0.188561 -0.0941896 0
M  V30 7 N 2.58134 1.22237 -1.04167 0
M  V30 8 C -0.0862923 0.0106398 -0.20887 0
M  V30 9 C -0.905574 0.593795 0.918755 0
M  V30 10 C -1.92763 1.51872 0.301803 0
M  V30 11 C -2.70943 0.713417 -0.713675 0
M  V30 12 C -3.09961 -0.639882 -0.203576 0
M  V30 13 C -1.98032 -1.62935 -0.205067 0
M  V30 14 C -0.746019 -1.13516 -0.897927 0
M  V30 15 H 5.54124 -0.754249 0.0407312 0
M  V30 16 H 5.18964 0.869835 0.685827 0
M  V30 17 H 2.73976 1.04716 -2.05735 0
M  V30 18 H 2.50702 2.19964 -0.681163 0
M  V30 19 H 0.0393405 0.83187 -0.958424 0
M  V30 20 H -0.202307 1.25535 1.49896 0
M  V30 21 H -1.32469 -0.147614 1.59657 0
M  V30 22 H -2.57688 2.00083 1.05107 0
M  V30 23 H -1.34688 2.27797 -0.288153 0
M  V30 24 H -3.67007 1.28247 -0.879169 0
M  V30 25 H -2.20897 0.688791 -1.69584 0
M  V30 26 H -3.96364 -1.00243 -0.828594 0
M  V30 27 H -3.46296 -0.521236 0.834645 0
M  V30 28 H -2.31877 -2.54357 -0.774807 0
M  V30 29 H -1.69298 -1.99079 0.803786 0
M  V30 30 H -0.0300623 -2.00223 -0.933855 0
M  V30 31 H -0.977697 -0.921331 -1.97804 0
M  V30 END ATOM
M  V30 BEGIN BOND
M  V30 1 1 1 2
M  V30 2 2 2 3
M  V30 3 1 3 4
M  V30 4 2 4 5
M  V30 5 1 5 6
M  V30 6 1 6 7
M  V30 7 1 5 8
M  V30 8 1 8 9
M  V30 9 1 9 10
M  V30 10 1 10 11
M  V30 11 1 11 12
M  V30 12 1 12 13
M  V30 13 1 13 14
M  V30 14 1 6 2
M  V30 15 1 14 8
M  V30 16 1 1 15
M  V30 17 1 1 16
M  V30 18 1 7 17
M  V30 19 1 7 18
M  V30 20 1 8 19
M  V30 21 1 9 20
M  V30 22 1 9 21
M  V30 23 1 10 22
M  V30 24 1 10 23
M  V30 25 1 11 24
M  V30 26 1 11 25
M  V30 27 1 12 26
M  V30 28 1 12 27
M  V30 29 1 13 28
M  V30 30 1 13 29
M  V30 31 1 14 30
M  V30 32 1 14 31
M  V30 END BOND
M  V30 END CTAB
M  END
