
     RDKit          3D

  0  0  0  0  0  0  0  0  0  0999 V3000
M  V30 BEGIN CTAB
M  V30 COUNTS 28 29 0 0 0
M  V30 BEGIN ATOM
M  V30 1 N -1.44745 -1.53673 -0.690409 0
M  V30 2 C -0.914836 -0.341583 -0.109275 0
M  V30 3 C -1.63366 0.14719 1.11536 0
M  V30 4 C -2.83576 0.85637 0.540396 0
M  V30 5 C -2.46955 1.31995 -0.850277 0
M  V30 6 C -1.08956 0.814586 -1.0814 0
M  V30 7 C 0.552102 -0.498095 0.0954288 0
M  V30 8 N 1.39883 0.502363 -0.211255 0
M  V30 9 C 2.75758 0.365316 -0.0400048 0
M  V30 10 N 3.61567 1.45203 -0.384527 0
M  V30 11 C 3.26895 -0.781319 0.439689 0
M  V30 12 C 2.40679 -1.82972 0.763709 0
M  V30 13 O 2.90084 -2.90393 1.21653 0
M  V30 14 N 1.08953 -1.63947 0.576904 0
M  V30 15 H -1.46103 -2.31691 -0.0344998 0
M  V30 16 H -2.29874 -1.42322 -1.25509 0
M  V30 17 H -1.93743 -0.70138 1.76736 0
M  V30 18 H -0.955788 0.862381 1.63269 0
M  V30 19 H -3.09779 1.70586 1.19727 0
M  V30 20 H -3.68561 0.118769 0.426654 0
M  V30 21 H -2.47666 2.43129 -0.920637 0
M  V30 22 H -3.15711 0.915814 -1.61988 0
M  V30 23 H -0.871102 0.512726 -2.11667 0
M  V30 24 H -0.333433 1.58581 -0.813619 0
M  V30 25 H 3.25691 2.37156 -0.70162 0
M  V30 26 H 4.64755 1.33655 -0.329297 0
M  V30 27 H 4.35765 -0.925099 0.58385 0
M  V30 28 H 0.413116 -2.40111 0.802625 0
M  V30 END ATOM
M  V30 BEGIN BOND
M  V30 1 1 1 2
M  V30 2 1 2 3
M  V30 3 1 3 4
M  V30 4 1 4 5
M  V30 5 1 5 6
M  V30 6 1 2 7
M  V30 7 2 7 8
M  V30 8 1 8 9
M  V30 9 1 9 10
M  V30 10 2 9 11
M  V30 11 1 11 12
M  V30 12 2 12 13
M  V30 13 1 12 14
M  V30 14 1 6 2
M  V30 15 1 14 7
M  V30 16 1 1 15
M  V30 17 1 1 16
M  V30 18 1 3 17
M  V30 19 1 3 18
M  V30 20 1 4 19
M  V30 21 1 4 20
M  V30 22 1 5 21
M  V30 23 1 5 22
M  V30 24 1 6 23
M  V30 25 1 6 24
M  V30 26 1 10 25
M  V30 27 1 10 26
M  V30 28 1 11 27
M  V30 29 1 14 28
M  V30 END BOND
M  V30 END CTAB
M  END
