
     RDKit          3D

  0  0  0  0  0  0  0  0  0  0999 V3000
M  V30 BEGIN CTAB
M  V30 COUNTS 29 29 0 0 0
M  V30 BEGIN ATOM
M  V30 1 C 5.32867 -0.475069 -0.536645 0
M  V30 2 O 4.35551 0.510337 -0.189094 0
M  V30 3 C 3.00453 0.217319 -0.203418 0
M  V30 4 O 2.68916 -0.963727 -0.539547 0
M  V30 5 C 1.96402 1.21802 0.15236 0
M  V30 6 C 0.60529 0.66514 0.0606138 0
M  V30 7 C -0.141234 0.717774 -1.09463 0
M  V30 8 C -1.41498 0.190513 -1.1528 0
M  V30 9 N -2.18026 0.252411 -2.36162 0
M  V30 10 C -1.99989 -0.412908 -0.0594716 0
M  V30 11 C -1.26752 -0.476838 1.11197 0
M  V30 12 C 0.0238073 0.062908 1.15481 0
M  V30 13 N -1.83602 -1.09049 2.25867 0
M  V30 14 O -3.28252 -0.938364 -0.135027 0
M  V30 15 C -4.4427 -0.185014 0.16013 0
M  V30 16 H 6.01825 -0.528195 0.337974 0
M  V30 17 H 4.88183 -1.45928 -0.730605 0
M  V30 18 H 5.96528 -0.130948 -1.39182 0
M  V30 19 H 2.03523 2.06288 -0.571978 0
M  V30 20 H 2.11145 1.65123 1.15881 0
M  V30 21 H 0.294965 1.18542 -1.96468 0
M  V30 22 H -2.532 -0.619637 -2.80756 0
M  V30 23 H -2.3614 1.19323 -2.76052 0
M  V30 24 H 0.592974 0.0153017 2.05876 0
M  V30 25 H -2.2669 -0.500918 2.99499 0
M  V30 26 H -1.83885 -2.1202 2.39366 0
M  V30 27 H -4.3296 0.304173 1.13819 0
M  V30 28 H -5.29766 -0.896021 0.195067 0
M  V30 29 H -4.67947 0.550943 -0.646385 0
M  V30 END ATOM
M  V30 BEGIN BOND
M  V30 1 1 1 2
M  V30 2 1 2 3
M  V30 3 2 3 4
M  V30 4 1 3 5
M  V30 5 1 5 6
M  V30 6 2 6 7
M  V30 7 1 7 8
M  V30 8 1 8 9
M  V30 9 2 8 10
M  V30 10 1 10 11
M  V30 11 2 11 12
M  V30 12 1 11 13
M  V30 13 1 10 14
M  V30 14 1 14 15
M  V30 15 1 12 6
M  V30 16 1 1 16
M  V30 17 1 1 17
M  V30 18 1 1 18
M  V30 19 1 5 19
M  V30 20 1 5 20
M  V30 21 1 7 21
M  V30 22 1 9 22
M  V30 23 1 9 23
M  V30 24 1 12 24
M  V30 25 1 13 25
M  V30 26 1 13 26
M  V30 27 1 15 27
M  V30 28 1 15 28
M  V30 29 1 15 29
M  V30 END BOND
M  V30 END CTAB
M  END
