
     RDKit          3D

  0  0  0  0  0  0  0  0  0  0999 V3000
M  V30 BEGIN CTAB
M  V30 COUNTS 22 22 0 0 0
M  V30 BEGIN ATOM
M  V30 1 N -2.41711 1.88757 0.786648 0
M  V30 2 N -2.63299 0.581554 0.536054 0
M  V30 3 C -1.8181 -0.355921 0.220707 0
M  V30 4 C -0.389509 -0.173802 0.0584439 0
M  V30 5 C 0.2247 1.04615 0.142869 0
M  V30 6 C 1.61505 1.23401 -0.0427905 0
M  V30 7 C 2.37764 0.152181 -0.318441 0
M  V30 8 C 1.82292 -1.09057 -0.415423 0
M  V30 9 C 0.449895 -1.23856 -0.226148 0
M  V30 10 Cl -0.141958 -2.86214 -0.352527 0
M  V30 11 N 3.77502 0.334587 -0.506256 0
M  V30 12 C -2.51569 -1.67634 0.0191919 0
M  V30 13 H -2.52434 2.59775 0.00112616 0
M  V30 14 H -2.15284 2.33463 1.71372 0
M  V30 15 H -0.324186 1.93912 0.349472 0
M  V30 16 H 1.966 2.24119 0.0511811 0
M  V30 17 H 2.42951 -1.94341 -0.63331 0
M  V30 18 H 4.07207 1.0971 -1.15162 0
M  V30 19 H 4.50902 -0.23799 -0.0457678 0
M  V30 20 H -2.36386 -1.97304 -1.03167 0
M  V30 21 H -2.31545 -2.40575 0.799283 0
M  V30 22 H -3.6458 -1.4883 0.0452625 0
M  V30 END ATOM
M  V30 BEGIN BOND
M  V30 1 1 1 2
M  V30 2 2 2 3
M  V30 3 1 3 4
M  V30 4 2 4 5
M  V30 5 1 5 6
M  V30 6 2 6 7
M  V30 7 1 7 8
M  V30 8 2 8 9
M  V30 9 1 9 10
M  V30 10 1 7 11
M  V30 11 1 3 12
M  V30 12 1 9 4
M  V30 13 1 1 13
M  V30 14 1 1 14
M  V30 15 1 5 15
M  V30 16 1 6 16
M  V30 17 1 8 17
M  V30 18 1 11 18
M  V30 19 1 11 19
M  V30 20 1 12 20
M  V30 21 1 12 21
M  V30 22 1 12 22
M  V30 END BOND
M  V30 END CTAB
M  END
