
     RDKit          3D

  0  0  0  0  0  0  0  0  0  0999 V3000
M  V30 BEGIN CTAB
M  V30 COUNTS 28 29 0 0 0
M  V30 BEGIN ATOM
M  V30 1 O -2.23876 -0.0856964 1.76888 0
M  V30 2 C -1.92367 -0.396201 0.475269 0 CFG=1
M  V30 3 C -1.65027 0.873385 -0.277465 0 CFG=1
M  V30 4 O -2.57646 1.82474 0.153144 0
M  V30 5 C -0.285857 1.42745 -0.0708036 0 CFG=2
M  V30 6 N -0.0694055 2.45318 -1.07197 0
M  V30 7 C 0.798585 0.455267 0.00479191 0
M  V30 8 C 0.522418 -0.868841 0.236002 0
M  V30 9 C -0.828578 -1.3932 0.417666 0 CFG=2
M  V30 10 N -1.13748 -2.4164 -0.580287 0
M  V30 11 C 1.56053 -1.80791 0.310154 0
M  V30 12 C 2.86751 -1.39112 0.148552 0
M  V30 13 C 3.1583 -0.0656617 -0.0839553 0
M  V30 14 C 2.096 0.842467 -0.151409 0
M  V30 15 Br 4.9674 0.495275 -0.305102 0
M  V30 16 H -3.10347 -0.284906 2.06119 0
M  V30 17 H -2.839 -0.850342 0.0241554 0
M  V30 18 H -1.85837 0.704348 -1.35436 0
M  V30 19 H -2.14666 2.71253 0.32057 0
M  V30 20 H -0.303076 1.97816 0.915787 0
M  V30 21 H -0.228785 3.40724 -0.739267 0
M  V30 22 H 0.755369 2.2963 -1.65744 0
M  V30 23 H -0.831786 -1.95021 1.40081 0
M  V30 24 H -1.83043 -2.07528 -1.2837 0
M  V30 25 H -0.264185 -2.7667 -1.02684 0
M  V30 26 H 1.34923 -2.8516 0.491942 0
M  V30 27 H 3.67431 -2.12558 0.206927 0
M  V30 28 H 2.3666 1.85929 -0.333238 0
M  V30 END ATOM
M  V30 BEGIN BOND
M  V30 1 1 1 2
M  V30 2 1 2 3
M  V30 3 1 3 4
M  V30 4 1 3 5
M  V30 5 1 5 6
M  V30 6 1 5 7
M  V30 7 2 7 8
M  V30 8 1 8 9
M  V30 9 1 9 10
M  V30 10 1 8 11
M  V30 11 2 11 12
M  V30 12 1 12 13
M  V30 13 2 13 14
M  V30 14 1 13 15
M  V30 15 1 9 2
M  V30 16 1 14 7
M  V30 17 1 1 16
M  V30 18 1 2 17 CFG=3
M  V30 19 1 3 18 CFG=3
M  V30 20 1 4 19
M  V30 21 1 5 20 CFG=1
M  V30 22 1 6 21
M  V30 23 1 6 22
M  V30 24 1 9 23 CFG=1
M  V30 25 1 10 24
M  V30 26 1 10 25
M  V30 27 1 11 26
M  V30 28 1 12 27
M  V30 29 1 14 28
M  V30 END BOND
M  V30 END CTAB
M  END
