
     RDKit          3D

  0  0  0  0  0  0  0  0  0  0999 V3000
M  V30 BEGIN CTAB
M  V30 COUNTS 29 29 0 0 0
M  V30 BEGIN ATOM
M  V30 1 N 4.30215 -1.18009 0.770086 0
M  V30 2 C 4.07923 0.270869 0.718212 0
M  V30 3 C 2.60553 0.569767 0.789282 0
M  V30 4 C 1.84187 -0.072369 -0.380023 0
M  V30 5 C 0.416017 0.295025 -0.19324 0
M  V30 6 C -0.506413 -0.250431 -1.25747 0
M  V30 7 C -1.91012 0.185723 -0.961093 0
M  V30 8 N -2.63103 1.16132 -1.56657 0
M  V30 9 N -3.84187 1.23078 -0.998019 0
M  V30 10 C -3.93034 0.311254 -0.0224788 0
M  V30 11 C -2.73106 -0.347245 0.0102352 0
M  V30 12 C -2.36071 -1.42269 0.900976 0
M  V30 13 N -2.07931 -2.29586 1.61058 0
M  V30 14 N -5.02154 0.0361023 0.831637 0
M  V30 15 H 4.29136 -1.51086 -0.20428 0
M  V30 16 H 5.19285 -1.31473 1.27313 0
M  V30 17 H 4.56753 0.800996 1.53623 0
M  V30 18 H 4.48802 0.675587 -0.236189 0
M  V30 19 H 2.49816 1.67892 0.613418 0
M  V30 20 H 2.15588 0.232771 1.72161 0
M  V30 21 H 2.30541 0.319334 -1.29698 0
M  V30 22 H 2.02448 -1.16961 -0.261622 0
M  V30 23 H 0.336112 1.40395 -0.188618 0
M  V30 24 H 0.102104 -0.0345681 0.818557 0
M  V30 25 H -0.452335 -1.3589 -1.19446 0
M  V30 26 H -0.228106 0.0342199 -2.26628 0
M  V30 27 H -4.61924 1.88363 -1.24685 0
M  V30 28 H -5.96759 0.0232372 0.427885 0
M  V30 29 H -4.92704 -0.156133 1.8534 0
M  V30 END ATOM
M  V30 BEGIN BOND
M  V30 1 1 1 2
M  V30 2 1 2 3
M  V30 3 1 3 4
M  V30 4 1 4 5
M  V30 5 1 5 6
M  V30 6 1 6 7
M  V30 7 2 7 8
M  V30 8 1 8 9
M  V30 9 1 9 10
M  V30 10 2 10 11
M  V30 11 1 11 12
M  V30 12 3 12 13
M  V30 13 1 10 14
M  V30 14 1 11 7
M  V30 15 1 1 15
M  V30 16 1 1 16
M  V30 17 1 2 17
M  V30 18 1 2 18
M  V30 19 1 3 19
M  V30 20 1 3 20
M  V30 21 1 4 21
M  V30 22 1 4 22
M  V30 23 1 5 23
M  V30 24 1 5 24
M  V30 25 1 6 25
M  V30 26 1 6 26
M  V30 27 1 9 27
M  V30 28 1 14 28
M  V30 29 1 14 29
M  V30 END BOND
M  V30 END CTAB
M  END
