
     RDKit          3D

  0  0  0  0  0  0  0  0  0  0999 V3000
M  V30 BEGIN CTAB
M  V30 COUNTS 22 22 0 0 0
M  V30 BEGIN ATOM
M  V30 1 N -2.42555 -1.40281 0.372349 0
M  V30 2 N -2.60386 -0.0470542 0.18781 0
M  V30 3 C -1.60394 0.737462 0.0113493 0
M  V30 4 N -0.272573 0.254285 -0.00296227 0
M  V30 5 C 0.527463 0.438476 -1.19277 0
M  V30 6 C 1.63754 -0.590341 -1.24662 0
M  V30 7 C 2.47241 -0.371804 -0.018023 0
M  V30 8 C 1.80533 -0.289624 1.13603 0
M  V30 9 C 0.301937 -0.416483 1.14155 0
M  V30 10 Br 2.7908 -0.012206 2.7484 0
M  V30 11 N -1.8678 2.13733 -0.174193 0
M  V30 12 H -2.42095 -1.82581 1.30615 0
M  V30 13 H -2.2925 -2.00959 -0.459671 0
M  V30 14 H -0.0793623 0.465075 -2.11728 0
M  V30 15 H 0.971142 1.47188 -1.10518 0
M  V30 16 H 2.21522 -0.471005 -2.16946 0
M  V30 17 H 1.18423 -1.59576 -1.12428 0
M  V30 18 H 3.55821 -0.285 -0.062136 0
M  V30 19 H -0.0759602 -0.00316616 2.1031 0
M  V30 20 H 0.0504033 -1.50329 1.14131 0
M  V30 21 H -1.07315 2.81782 -0.089899 0
M  V30 22 H -2.79902 2.50161 -0.385551 0
M  V30 END ATOM
M  V30 BEGIN BOND
M  V30 1 1 1 2
M  V30 2 2 2 3
M  V30 3 1 3 4
M  V30 4 1 4 5
M  V30 5 1 5 6
M  V30 6 1 6 7
M  V30 7 2 7 8
M  V30 8 1 8 9
M  V30 9 1 8 10
M  V30 10 1 3 11
M  V30 11 1 9 4
M  V30 12 1 1 12
M  V30 13 1 1 13
M  V30 14 1 5 14
M  V30 15 1 5 15
M  V30 16 1 6 16
M  V30 17 1 6 17
M  V30 18 1 7 18
M  V30 19 1 9 19
M  V30 20 1 9 20
M  V30 21 1 11 21
M  V30 22 1 11 22
M  V30 END BOND
M  V30 END CTAB
M  END
