
     RDKit          3D

  0  0  0  0  0  0  0  0  0  0999 V3000
M  V30 BEGIN CTAB
M  V30 COUNTS 42 44 0 0 0
M  V30 BEGIN ATOM
M  V30 1 C 3.64419 2.94987 0.725851 0
M  V30 2 O 3.87759 1.59677 0.490474 0
M  V30 3 C 2.89518 0.619565 0.498139 0
M  V30 4 C 1.56239 0.889324 0.743625 0
M  V30 5 C 0.599526 -0.0960316 0.747069 0
M  V30 6 C 0.988818 -1.39487 0.495593 0
M  V30 7 C 2.3203 -1.72169 0.241902 0
M  V30 8 Br 2.85198 -3.52629 -0.106061 0
M  V30 9 C 3.24311 -0.691025 0.251316 0
M  V30 10 O 4.57877 -1.05368 -0.00830263 0
M  V30 11 C 5.08962 -1.06723 -1.32995 0
M  V30 12 C -0.810213 0.246397 1.01516 0
M  V30 13 C -1.61522 0.488794 -0.170222 0
M  V30 14 C -2.8213 -0.142693 -0.351554 0
M  V30 15 O -3.34495 -1.03629 0.565756 0
M  V30 16 C -2.60558 -1.29427 1.71408 0
M  V30 17 N -3.10574 -2.21217 2.69473 0
M  V30 18 C -1.44073 -0.724723 1.95304 0
M  V30 19 C -0.746485 -1.06142 3.18411 0
M  V30 20 N -0.17619 -1.31737 4.16397 0
M  V30 21 C -3.60853 0.0698591 -1.47372 0
M  V30 22 N -4.84911 -0.569286 -1.67712 0
M  V30 23 C -3.15816 0.944787 -2.43273 0
M  V30 24 O -3.88637 1.20951 -3.58024 0
M  V30 25 C -1.94836 1.59401 -2.27593 0
M  V30 26 C -1.17132 1.36718 -1.14095 0
M  V30 27 H 2.68027 3.31244 0.311886 0
M  V30 28 H 4.48187 3.51668 0.230597 0
M  V30 29 H 3.67934 3.22561 1.80945 0
M  V30 30 H 1.31629 1.92902 0.934827 0
M  V30 31 H 0.273674 -2.21935 0.484503 0
M  V30 32 H 5.59894 -0.0969116 -1.57483 0
M  V30 33 H 5.86217 -1.84958 -1.46695 0
M  V30 34 H 4.2957 -1.29456 -2.08366 0
M  V30 35 H -0.798328 1.21603 1.60122 0
M  V30 36 H -3.39597 -3.16668 2.37203 0
M  V30 37 H -3.18845 -1.9698 3.69004 0
M  V30 38 H -4.93757 -1.37307 -2.31797 0
M  V30 39 H -5.68166 -0.223232 -1.17341 0
M  V30 40 H -4.78162 0.785844 -3.7875 0
M  V30 41 H -1.54415 2.29205 -2.99645 0
M  V30 42 H -0.223738 1.84849 -0.97183 0
M  V30 END ATOM
M  V30 BEGIN BOND
M  V30 1 1 1 2
M  V30 2 1 2 3
M  V30 3 2 3 4
M  V30 4 1 4 5
M  V30 5 2 5 6
M  V30 6 1 6 7
M  V30 7 1 7 8
M  V30 8 2 7 9
M  V30 9 1 9 10
M  V30 10 1 10 11
M  V30 11 1 5 12
M  V30 12 1 12 13
M  V30 13 2 13 14
M  V30 14 1 14 15
M  V30 15 1 15 16
M  V30 16 1 16 17
M  V30 17 2 16 18
M  V30 18 1 18 19
M  V30 19 3 19 20
M  V30 20 1 14 21
M  V30 21 1 21 22
M  V30 22 2 21 23
M  V30 23 1 23 24
M  V30 24 1 23 25
M  V30 25 2 25 26
M  V30 26 1 9 3
M  V30 27 1 18 12
M  V30 28 1 26 13
M  V30 29 1 1 27
M  V30 30 1 1 28
M  V30 31 1 1 29
M  V30 32 1 4 30
M  V30 33 1 6 31
M  V30 34 1 11 32
M  V30 35 1 11 33
M  V30 36 1 11 34
M  V30 37 1 12 35
M  V30 38 1 17 36
M  V30 39 1 17 37
M  V30 40 1 22 38
M  V30 41 1 22 39
M  V30 42 1 24 40
M  V30 43 1 25 41
M  V30 44 1 26 42
M  V30 END BOND
M  V30 END CTAB
M  END
