
     RDKit          3D

  0  0  0  0  0  0  0  0  0  0999 V3000
M  V30 BEGIN CTAB
M  V30 COUNTS 57 58 0 0 0
M  V30 BEGIN ATOM
M  V30 1 N -4.51474 0.602001 -2.35454 0
M  V30 2 C -3.81809 1.02727 -1.22912 0 CFG=2
M  V30 3 C -2.83574 0.038815 -0.661501 0
M  V30 4 N -1.81478 -0.343801 -1.57828 0
M  V30 5 C -0.866619 0.62827 -1.95648 0
M  V30 6 C 0.102124 1.10219 -0.944284 0
M  V30 7 C 0.98229 -0.00294665 -0.38673 0
M  V30 8 N 1.75103 -0.651782 -1.38709 0
M  V30 9 C 2.53442 -1.72139 -0.842793 0
M  V30 10 C 3.63031 -1.20214 0.0316657 0 CFG=1
M  V30 11 N 4.45586 -2.25444 0.600913 0
M  V30 12 C 4.50802 -0.204641 -0.702053 0
M  V30 13 C 5.5636 0.237833 0.228252 0
M  V30 14 C 6.75452 -0.456085 0.26664 0
M  V30 15 C 7.76666 -0.0757502 1.1257 0
M  V30 16 C 7.53987 1.03452 1.95292 0
M  V30 17 C 6.3644 1.74058 1.93294 0
M  V30 18 C 5.3795 1.30987 1.0444 0
M  V30 19 C -4.69423 1.51605 -0.119089 0
M  V30 20 C -5.64849 0.552658 0.403876 0
M  V30 21 C -6.92765 0.352048 -0.0584865 0
M  V30 22 C -7.79163 -0.573212 0.478604 0
M  V30 23 C -7.38711 -1.35831 1.53725 0
M  V30 24 C -6.10602 -1.18194 2.02686 0
M  V30 25 C -5.2504 -0.240118 1.46757 0
M  V30 26 H -4.83256 1.29363 -2.95397 0
M  V30 27 H -4.43046 -0.299175 -2.71551 0
M  V30 28 H -3.21194 1.91202 -1.56473 0
M  V30 29 H -3.37346 -0.901923 -0.36174 0
M  V30 30 H -2.44081 0.437582 0.316791 0
M  V30 31 H -1.34016 -1.19369 -1.18974 0
M  V30 32 H -0.280205 0.223915 -2.83065 0
M  V30 33 H -1.36821 1.54998 -2.37736 0
M  V30 34 H -0.328657 1.64532 -0.0963061 0
M  V30 35 H 0.797933 1.81373 -1.45056 0
M  V30 36 H 1.67925 0.534394 0.312231 0
M  V30 37 H 0.442706 -0.733722 0.21421 0
M  V30 38 H 2.24616 -0.024557 -2.02218 0
M  V30 39 H 2.9252 -2.40977 -1.62746 0
M  V30 40 H 1.90611 -2.38693 -0.175832 0
M  V30 41 H 3.18273 -0.629346 0.894223 0
M  V30 42 H 3.88412 -3.07814 0.834799 0
M  V30 43 H 4.87875 -1.92879 1.51395 0
M  V30 44 H 3.8554 0.673178 -0.983306 0
M  V30 45 H 4.90682 -0.66024 -1.6365 0
M  V30 46 H 6.92724 -1.32232 -0.380992 0
M  V30 47 H 8.6794 -0.623956 1.14307 0
M  V30 48 H 8.35614 1.30607 2.61588 0
M  V30 49 H 6.24066 2.58281 2.58579 0
M  V30 50 H 4.44626 1.86453 1.0256 0
M  V30 51 H -4.00188 1.85878 0.704092 0
M  V30 52 H -5.22921 2.42546 -0.450123 0
M  V30 53 H -7.27159 0.941555 -0.874631 0
M  V30 54 H -8.78683 -0.679312 0.0655842 0
M  V30 55 H -8.06167 -2.09072 1.96533 0
M  V30 56 H -5.81677 -1.81856 2.86479 0
M  V30 57 H -4.25757 -0.157365 1.90595 0
M  V30 END ATOM
M  V30 BEGIN BOND
M  V30 1 1 1 2
M  V30 2 1 2 3
M  V30 3 1 3 4
M  V30 4 1 4 5
M  V30 5 1 5 6
M  V30 6 1 6 7
M  V30 7 1 7 8
M  V30 8 1 8 9
M  V30 9 1 9 10
M  V30 10 1 10 11
M  V30 11 1 10 12
M  V30 12 1 12 13
M  V30 13 2 13 14
M  V30 14 1 14 15
M  V30 15 2 15 16
M  V30 16 1 16 17
M  V30 17 2 17 18
M  V30 18 1 2 19
M  V30 19 1 19 20
M  V30 20 2 20 21
M  V30 21 1 21 22
M  V30 22 2 22 23
M  V30 23 1 23 24
M  V30 24 2 24 25
M  V30 25 1 18 13
M  V30 26 1 25 20
M  V30 27 1 1 26
M  V30 28 1 1 27
M  V30 29 1 2 28 CFG=3
M  V30 30 1 3 29
M  V30 31 1 3 30
M  V30 32 1 4 31
M  V30 33 1 5 32
M  V30 34 1 5 33
M  V30 35 1 6 34
M  V30 36 1 6 35
M  V30 37 1 7 36
M  V30 38 1 7 37
M  V30 39 1 8 38
M  V30 40 1 9 39
M  V30 41 1 9 40
M  V30 42 1 10 41 CFG=1
M  V30 43 1 11 42
M  V30 44 1 11 43
M  V30 45 1 12 44
M  V30 46 1 12 45
M  V30 47 1 14 46
M  V30 48 1 15 47
M  V30 49 1 16 48
M  V30 50 1 17 49
M  V30 51 1 18 50
M  V30 52 1 19 51
M  V30 53 1 19 52
M  V30 54 1 21 53
M  V30 55 1 22 54
M  V30 56 1 23 55
M  V30 57 1 24 56
M  V30 58 1 25 57
M  V30 END BOND
M  V30 END CTAB
M  END
