
     RDKit          3D

  0  0  0  0  0  0  0  0  0  0999 V3000
M  V30 BEGIN CTAB
M  V30 COUNTS 35 35 0 0 0
M  V30 BEGIN ATOM
M  V30 1 N -5.28842 0.625042 1.67328 0
M  V30 2 C -4.99639 0.59865 0.27452 0
M  V30 3 C -3.49231 0.527103 -0.00457916 0
M  V30 4 C -2.883 -0.689902 0.583937 0
M  V30 5 N -1.48431 -0.802204 0.380659 0
M  V30 6 C -0.742779 -0.944902 -0.792545 0
M  V30 7 O -1.25447 -1.00961 -1.91781 0
M  V30 8 C 0.769799 -1.02269 -0.656996 0
M  V30 9 C 1.20043 0.29739 -0.104977 0
M  V30 10 C 2.66208 0.392656 0.0911746 0
M  V30 11 C 3.28611 0.030139 1.26823 0
M  V30 12 C 4.64949 0.156855 1.34731 0
M  V30 13 C 5.4032 0.63285 0.289715 0
M  V30 14 C 4.79548 1.0026 -0.901901 0
M  V30 15 C 3.42643 0.864794 -0.952662 0
M  V30 16 N 1.30091 -1.16684 -1.99468 0
M  V30 17 F -2.85063 1.65021 0.452088 0
M  V30 18 F -3.3993 0.522957 -1.37209 0
M  V30 19 H -4.48957 0.842375 2.28032 0
M  V30 20 H -5.86909 -0.176128 1.99456 0
M  V30 21 H -5.50215 -0.214852 -0.260523 0
M  V30 22 H -5.33048 1.56113 -0.165009 0
M  V30 23 H -3.09823 -0.688661 1.69772 0
M  V30 24 H -3.42004 -1.63391 0.216461 0
M  V30 25 H -0.90165 -0.76999 1.29487 0
M  V30 26 H 1.03825 -1.87556 -0.0234378 0
M  V30 27 H 0.73333 0.498206 0.889394 0
M  V30 28 H 0.89669 1.09426 -0.807612 0
M  V30 29 H 2.71848 -0.336547 2.087 0
M  V30 30 H 5.2002 -0.113753 2.25228 0
M  V30 31 H 6.46101 0.719271 0.383326 0
M  V30 32 H 5.40381 1.3715 -1.71405 0
M  V30 33 H 2.96295 1.16338 -1.90643 0
M  V30 34 H 1.48354 -2.20091 -2.13134 0
M  V30 35 H 0.610646 -0.904922 -2.71627 0
M  V30 END ATOM
M  V30 BEGIN BOND
M  V30 1 1 1 2
M  V30 2 1 2 3
M  V30 3 1 3 4
M  V30 4 1 4 5
M  V30 5 1 5 6
M  V30 6 2 6 7
M  V30 7 1 6 8
M  V30 8 1 8 9
M  V30 9 1 9 10
M  V30 10 2 10 11
M  V30 11 1 11 12
M  V30 12 2 12 13
M  V30 13 1 13 14
M  V30 14 2 14 15
M  V30 15 1 8 16
M  V30 16 1 3 17
M  V30 17 1 3 18
M  V30 18 1 15 10
M  V30 19 1 1 19
M  V30 20 1 1 20
M  V30 21 1 2 21
M  V30 22 1 2 22
M  V30 23 1 4 23
M  V30 24 1 4 24
M  V30 25 1 5 25
M  V30 26 1 8 26
M  V30 27 1 9 27
M  V30 28 1 9 28
M  V30 29 1 11 29
M  V30 30 1 12 30
M  V30 31 1 13 31
M  V30 32 1 14 32
M  V30 33 1 15 33
M  V30 34 1 16 34
M  V30 35 1 16 35
M  V30 END BOND
M  V30 END CTAB
M  END
