
     RDKit          3D

  0  0  0  0  0  0  0  0  0  0999 V3000
M  V30 BEGIN CTAB
M  V30 COUNTS 38 39 0 0 0
M  V30 BEGIN ATOM
M  V30 1 N -6.37031 -0.850029 -1.25815 0
M  V30 2 C -5.26445 -0.32252 -0.560704 0
M  V30 3 C -5.05089 1.02782 -0.38769 0
M  V30 4 C -3.95693 1.49865 0.301392 0
M  V30 5 C -3.04943 0.607615 0.833592 0
M  V30 6 C -1.85363 1.03681 1.59065 0
M  V30 7 N -0.847568 1.63867 0.776161 0
M  V30 8 C 0.00898951 0.834469 -0.0210087 0
M  V30 9 O -0.133959 -0.408568 0.0206718 0
M  V30 10 N 1.01463 1.40237 -0.857019 0
M  V30 11 C 1.89629 0.629441 -1.65966 0
M  V30 12 C 3.02343 -0.00285824 -0.941672 0
M  V30 13 C 3.03194 -1.31662 -0.531328 0
M  V30 14 C 4.08445 -1.90426 0.14039 0
M  V30 15 C 5.22702 -1.15436 0.440344 0
M  V30 16 N 6.30007 -1.76268 1.12892 0
M  V30 17 C 5.23154 0.156977 0.0362222 0
M  V30 18 C 4.17563 0.730807 -0.632768 0
M  V30 19 C -3.28063 -0.731856 0.650085 0
M  V30 20 C -4.36268 -1.22357 -0.0322652 0
M  V30 21 H -7.29158 -0.898759 -0.799658 0
M  V30 22 H -6.26037 -1.18634 -2.22545 0
M  V30 23 H -5.78132 1.72112 -0.816844 0
M  V30 24 H -3.77384 2.55221 0.446375 0
M  V30 25 H -1.39254 0.118886 2.03505 0
M  V30 26 H -2.21952 1.72532 2.3861 0
M  V30 27 H -0.700293 2.6745 0.731988 0
M  V30 28 H 1.10531 2.45829 -0.877627 0
M  V30 29 H 1.29403 -0.199289 -2.10138 0
M  V30 30 H 2.33222 1.2547 -2.45866 0
M  V30 31 H 2.17479 -1.93124 -0.745729 0
M  V30 32 H 4.09599 -2.93326 0.464842 0
M  V30 33 H 6.79613 -1.26352 1.88247 0
M  V30 34 H 6.58826 -2.71822 0.871356 0
M  V30 35 H 6.1105 0.748583 0.261062 0
M  V30 36 H 4.18581 1.76282 -0.947517 0
M  V30 37 H -2.59159 -1.49003 1.0563 0
M  V30 38 H -4.4955 -2.2821 -0.146497 0
M  V30 END ATOM
M  V30 BEGIN BOND
M  V30 1 1 1 2
M  V30 2 2 2 3
M  V30 3 1 3 4
M  V30 4 2 4 5
M  V30 5 1 5 6
M  V30 6 1 6 7
M  V30 7 1 7 8
M  V30 8 2 8 9
M  V30 9 1 8 10
M  V30 10 1 10 11
M  V30 11 1 11 12
M  V30 12 2 12 13
M  V30 13 1 13 14
M  V30 14 2 14 15
M  V30 15 1 15 16
M  V30 16 1 15 17
M  V30 17 2 17 18
M  V30 18 1 5 19
M  V30 19 2 19 20
M  V30 20 1 20 2
M  V30 21 1 18 12
M  V30 22 1 1 21
M  V30 23 1 1 22
M  V30 24 1 3 23
M  V30 25 1 4 24
M  V30 26 1 6 25
M  V30 27 1 6 26
M  V30 28 1 7 27
M  V30 29 1 10 28
M  V30 30 1 11 29
M  V30 31 1 11 30
M  V30 32 1 13 31
M  V30 33 1 14 32
M  V30 34 1 16 33
M  V30 35 1 16 34
M  V30 36 1 17 35
M  V30 37 1 18 36
M  V30 38 1 19 37
M  V30 39 1 20 38
M  V30 END BOND
M  V30 END CTAB
M  END
