
     RDKit          3D

  0  0  0  0  0  0  0  0  0  0999 V3000
M  V30 BEGIN CTAB
M  V30 COUNTS 30 29 0 0 0
M  V30 BEGIN ATOM
M  V30 1 N -2.94883 1.07027 -0.164218 0
M  V30 2 C -1.63249 0.861156 0.383138 0
M  V30 3 C -0.955814 -0.379528 -0.151156 0
M  V30 4 C 0.363658 -0.611654 0.390192 0
M  V30 5 C 1.50829 0.290171 0.272715 0
M  V30 6 N 1.43181 1.5934 0.811804 0
M  V30 7 C 2.12629 0.369245 -1.1155 0
M  V30 8 C 2.63266 -0.403882 1.09045 0
M  V30 9 C -1.83999 -1.54625 0.328941 0
M  V30 10 C -1.11806 -0.305827 -1.6397 0
M  V30 11 H -3.439 0.255933 -0.52107 0
M  V30 12 H -3.52996 1.51138 0.578977 0
M  V30 13 H -0.983181 1.75984 0.196562 0
M  V30 14 H -1.74138 0.765219 1.48027 0
M  V30 15 H 0.233037 -0.78242 1.51181 0
M  V30 16 H 0.763379 -1.63797 0.0926132 0
M  V30 17 H 1.9021 1.75592 1.70512 0
M  V30 18 H 1.44428 2.37607 0.139166 0
M  V30 19 H 1.72402 1.30486 -1.57647 0
M  V30 20 H 1.95754 -0.522116 -1.71624 0
M  V30 21 H 3.22768 0.527575 -1.06501 0
M  V30 22 H 3.61768 -0.0244571 0.773043 0
M  V30 23 H 2.59241 -1.47599 0.770871 0
M  V30 24 H 2.4401 -0.315394 2.15801 0
M  V30 25 H -1.31327 -2.13983 1.13145 0
M  V30 26 H -1.96026 -2.22714 -0.51571 0
M  V30 27 H -2.81355 -1.22427 0.694648 0
M  V30 28 H -0.495749 -0.992795 -2.20732 0
M  V30 29 H -1.02485 0.746117 -1.97792 0
M  V30 30 H -2.16856 -0.597635 -1.85945 0
M  V30 END ATOM
M  V30 BEGIN BOND
M  V30 1 1 1 2
M  V30 2 1 2 3
M  V30 3 1 3 4
M  V30 4 1 4 5
M  V30 5 1 5 6
M  V30 6 1 5 7
M  V30 7 1 5 8
M  V30 8 1 3 9
M  V30 9 1 3 10
M  V30 10 1 1 11
M  V30 11 1 1 12
M  V30 12 1 2 13
M  V30 13 1 2 14
M  V30 14 1 4 15
M  V30 15 1 4 16
M  V30 16 1 6 17
M  V30 17 1 6 18
M  V30 18 1 7 19
M  V30 19 1 7 20
M  V30 20 1 7 21
M  V30 21 1 8 22
M  V30 22 1 8 23
M  V30 23 1 8 24
M  V30 24 1 9 25
M  V30 25 1 9 26
M  V30 26 1 9 27
M  V30 27 1 10 28
M  V30 28 1 10 29
M  V30 29 1 10 30
M  V30 END BOND
M  V30 END CTAB
M  END
