
     RDKit          3D

  0  0  0  0  0  0  0  0  0  0999 V3000
M  V30 BEGIN CTAB
M  V30 COUNTS 20 20 0 0 0
M  V30 BEGIN ATOM
M  V30 1 N 2.74871 -0.615984 0.544712 0
M  V30 2 C 1.57278 0.146335 0.287053 0
M  V30 3 C 1.53655 1.49919 0.56771 0
M  V30 4 C 0.405 2.23688 0.320658 0
M  V30 5 Br 0.315198 4.11014 0.694995 0
M  V30 6 C -0.704896 1.61144 -0.214528 0
M  V30 7 C -0.660814 0.260113 -0.492026 0
M  V30 8 C 0.465101 -0.502582 -0.252427 0
M  V30 9 N 0.534069 -1.89607 -0.530107 0
M  V30 10 O -1.78974 -0.345981 -1.02986 0
M  V30 11 C -2.8138 -0.921194 -0.272499 0
M  V30 12 F -3.75734 -1.41845 -1.18035 0
M  V30 13 F -3.49424 -0.00490581 0.506324 0
M  V30 14 F -2.37755 -1.94495 0.539007 0
M  V30 15 F -1.8333 2.32736 -0.465185 0
M  V30 16 H 2.8062 -1.23009 1.38132 0
M  V30 17 H 3.5314 -0.52728 -0.135305 0
M  V30 18 H 2.39912 2.00611 0.988164 0
M  V30 19 H 0.570193 -2.57121 0.259077 0
M  V30 20 H 0.54735 -2.21887 -1.51673 0
M  V30 END ATOM
M  V30 BEGIN BOND
M  V30 1 1 1 2
M  V30 2 2 2 3
M  V30 3 1 3 4
M  V30 4 1 4 5
M  V30 5 2 4 6
M  V30 6 1 6 7
M  V30 7 2 7 8
M  V30 8 1 8 9
M  V30 9 1 7 10
M  V30 10 1 10 11
M  V30 11 1 11 12
M  V30 12 1 11 13
M  V30 13 1 11 14
M  V30 14 1 6 15
M  V30 15 1 8 2
M  V30 16 1 1 16
M  V30 17 1 1 17
M  V30 18 1 3 18
M  V30 19 1 9 19
M  V30 20 1 9 20
M  V30 END BOND
M  V30 END CTAB
M  END
