
     RDKit          3D

  0  0  0  0  0  0  0  0  0  0999 V3000
M  V30 BEGIN CTAB
M  V30 COUNTS 35 38 0 0 0
M  V30 BEGIN ATOM
M  V30 1 N 4.85004 1.66612 0.735904 0
M  V30 2 C 3.69259 0.857815 0.634575 0
M  V30 3 C 2.95136 0.832579 -0.565201 0
M  V30 4 C 1.86074 0.0811522 -0.684598 0
M  V30 5 C 1.45461 -0.708397 0.434748 0
M  V30 6 C 2.13657 -0.72132 1.62997 0
M  V30 7 C 3.25544 0.0743153 1.69947 0
M  V30 8 N 0.301113 -1.47346 0.359716 0
M  V30 9 C 0.0922053 -2.07566 -1.03006 0
M  V30 10 N -0.213814 -0.627015 -1.41191 0
M  V30 11 C 0.898537 0.0543696 -1.91815 0
M  V30 12 C -1.42052 -0.185012 -0.894944 0
M  V30 13 C -1.84937 -0.616329 0.39837 0
M  V30 14 C -0.838158 -1.54181 1.16465 0
M  V30 15 C -2.98765 -0.161432 0.900342 0
M  V30 16 C -3.75658 0.745469 0.149042 0
M  V30 17 N -4.97494 1.22563 0.697648 0
M  V30 18 C -3.31183 1.15213 -1.10866 0
M  V30 19 C -2.13918 0.701276 -1.66104 0
M  V30 20 H 4.89613 2.6802 0.502584 0
M  V30 21 H 5.72665 1.21459 1.06977 0
M  V30 22 H 3.26824 1.43089 -1.40502 0
M  V30 23 H 1.71744 -1.32855 2.42474 0
M  V30 24 H 3.82151 0.10295 2.60831 0
M  V30 25 H 0.995781 -2.41802 -1.47044 0
M  V30 26 H -0.762286 -2.68781 -1.07848 0
M  V30 27 H 1.4588 -0.608541 -2.6118 0
M  V30 28 H 0.812514 1.02144 -2.33895 0
M  V30 29 H -1.32912 -2.53086 1.04356 0
M  V30 30 H -0.816466 -1.2816 2.1908 0
M  V30 31 H -3.31653 -0.493402 1.88882 0
M  V30 32 H -5.7008 0.551595 1.02355 0
M  V30 33 H -5.16942 2.2269 0.78612 0
M  V30 34 H -3.89959 1.85165 -1.68512 0
M  V30 35 H -1.70402 0.988151 -2.60954 0
M  V30 END ATOM
M  V30 BEGIN BOND
M  V30 1 1 1 2
M  V30 2 2 2 3
M  V30 3 1 3 4
M  V30 4 2 4 5
M  V30 5 1 5 6
M  V30 6 2 6 7
M  V30 7 1 5 8
M  V30 8 1 8 9
M  V30 9 1 9 10
M  V30 10 1 10 11
M  V30 11 1 10 12
M  V30 12 2 12 13
M  V30 13 1 13 14
M  V30 14 1 13 15
M  V30 15 2 15 16
M  V30 16 1 16 17
M  V30 17 1 16 18
M  V30 18 2 18 19
M  V30 19 1 7 2
M  V30 20 1 14 8
M  V30 21 1 11 4
M  V30 22 1 19 12
M  V30 23 1 1 20
M  V30 24 1 1 21
M  V30 25 1 3 22
M  V30 26 1 6 23
M  V30 27 1 7 24
M  V30 28 1 9 25
M  V30 29 1 9 26
M  V30 30 1 11 27
M  V30 31 1 11 28
M  V30 32 1 14 29
M  V30 33 1 14 30
M  V30 34 1 15 31
M  V30 35 1 17 32
M  V30 36 1 17 33
M  V30 37 1 18 34
M  V30 38 1 19 35
M  V30 END BOND
M  V30 END CTAB
M  END
