
     RDKit          3D

  0  0  0  0  0  0  0  0  0  0999 V3000
M  V30 BEGIN CTAB
M  V30 COUNTS 24 25 0 0 0
M  V30 BEGIN ATOM
M  V30 1 N 3.94806 -1.41492 0.610038 0
M  V30 2 C 2.95172 -0.408474 0.539578 0
M  V30 3 C 1.65867 -0.742929 0.1347 0
M  V30 4 C 0.68139 0.226471 0.0647157 0
M  V30 5 C 1.02932 1.52044 0.406177 0
M  V30 6 C 2.29392 1.85935 0.8045 0
M  V30 7 N 3.21167 0.879698 0.856782 0
M  V30 8 C -0.663922 -0.143802 -0.358721 0
M  V30 9 C -1.70405 0.576678 0.173859 0
M  V30 10 C -2.98506 0.245682 -0.209594 0
M  V30 11 N -4.02991 1.00853 0.361898 0
M  V30 12 N -3.19242 -0.754117 -1.0793 0
M  V30 13 C -2.20863 -1.48884 -1.62869 0
M  V30 14 C -0.923897 -1.16039 -1.24687 0
M  V30 15 H 3.72513 -2.36723 0.955927 0
M  V30 16 H 4.90939 -1.17557 0.306819 0
M  V30 17 H 1.37602 -1.75417 -0.134837 0
M  V30 18 H 0.260929 2.27634 0.350245 0
M  V30 19 H 2.53571 2.88857 1.06726 0
M  V30 20 H -1.53021 1.40073 0.890278 0
M  V30 21 H -4.24703 1.94924 0.00135889 0
M  V30 22 H -4.57319 0.613249 1.14413 0
M  V30 23 H -2.43547 -2.29659 -2.33638 0
M  V30 24 H -0.0881226 -1.73794 -1.67386 0
M  V30 END ATOM
M  V30 BEGIN BOND
M  V30 1 1 1 2
M  V30 2 2 2 3
M  V30 3 1 3 4
M  V30 4 2 4 5
M  V30 5 1 5 6
M  V30 6 2 6 7
M  V30 7 1 4 8
M  V30 8 2 8 9
M  V30 9 1 9 10
M  V30 10 1 10 11
M  V30 11 2 10 12
M  V30 12 1 12 13
M  V30 13 2 13 14
M  V30 14 1 7 2
M  V30 15 1 14 8
M  V30 16 1 1 15
M  V30 17 1 1 16
M  V30 18 1 3 17
M  V30 19 1 5 18
M  V30 20 1 6 19
M  V30 21 1 9 20
M  V30 22 1 11 21
M  V30 23 1 11 22
M  V30 24 1 13 23
M  V30 25 1 14 24
M  V30 END BOND
M  V30 END CTAB
M  END
