
     RDKit          3D

  0  0  0  0  0  0  0  0  0  0999 V3000
M  V30 BEGIN CTAB
M  V30 COUNTS 46 48 0 0 0
M  V30 BEGIN ATOM
M  V30 1 N 6.42965 2.12202 1.20765 0
M  V30 2 C 6.20199 0.832293 0.613257 0
M  V30 3 C 5.33029 0.867716 -0.649305 0
M  V30 4 C 4.79716 -0.485967 -0.172285 0
M  V30 5 C 5.08184 0.0271844 1.24571 0
M  V30 6 C 3.39645 -0.747095 -0.465331 0
M  V30 7 C 2.38409 0.146685 -0.210664 0
M  V30 8 C 1.05435 -0.116485 -0.495361 0
M  V30 9 N 0.0459 0.846268 -0.223703 0
M  V30 10 C -1.36274 0.638766 -0.470748 0
M  V30 11 C -1.90888 -0.425826 0.413749 0
M  V30 12 N -3.31847 -0.692851 0.22297 0
M  V30 13 C -4.35889 0.221517 0.442618 0
M  V30 14 N -4.20169 1.48917 0.87563 0
M  V30 15 C -5.21415 2.33823 1.08084 0
M  V30 16 C -6.50356 1.95102 0.854386 0
M  V30 17 C -6.74639 0.662346 0.407894 0
M  V30 18 C -5.6648 -0.170697 0.213249 0
M  V30 19 C -5.93459 -1.56125 -0.269155 0
M  V30 20 N 0.807312 -1.31854 -1.0451 0
M  V30 21 C 1.76021 -2.21992 -1.31071 0
M  V30 22 N 3.05855 -1.92406 -1.01597 0
M  V30 23 N 1.50495 -3.48362 -1.88802 0
M  V30 24 H 7.31336 2.49904 0.795823 0
M  V30 25 H 5.64712 2.76925 1.01832 0
M  V30 26 H 7.08177 0.213877 0.422473 0
M  V30 27 H 5.91586 0.825364 -1.57417 0
M  V30 28 H 4.58704 1.68181 -0.579473 0
M  V30 29 H 5.49621 -1.28433 -0.426487 0
M  V30 30 H 4.22981 0.612752 1.60291 0
M  V30 31 H 5.46903 -0.760646 1.92298 0
M  V30 32 H 2.64172 1.09266 0.230103 0
M  V30 33 H 0.378954 1.76202 0.184484 0
M  V30 34 H -1.57077 0.428694 -1.54205 0
M  V30 35 H -1.91037 1.59377 -0.262865 0
M  V30 36 H -1.31151 -1.34887 0.331925 0
M  V30 37 H -1.79308 -0.123585 1.50072 0
M  V30 38 H -3.5595 -1.65672 -0.107941 0
M  V30 39 H -5.06321 3.363 1.43273 0
M  V30 40 H -7.32172 2.65648 1.02664 0
M  V30 41 H -7.76309 0.335968 0.222326 0
M  V30 42 H -5.36657 -1.7497 -1.21191 0
M  V30 43 H -5.5671 -2.26569 0.496908 0
M  V30 44 H -6.98803 -1.72392 -0.496431 0
M  V30 45 H 1.79169 -4.35913 -1.41124 0
M  V30 46 H 1.0238 -3.559 -2.80361 0
M  V30 END ATOM
M  V30 BEGIN BOND
M  V30 1 1 1 2
M  V30 2 1 2 3
M  V30 3 1 3 4
M  V30 4 1 4 5
M  V30 5 1 4 6
M  V30 6 2 6 7
M  V30 7 1 7 8
M  V30 8 1 8 9
M  V30 9 1 9 10
M  V30 10 1 10 11
M  V30 11 1 11 12
M  V30 12 1 12 13
M  V30 13 2 13 14
M  V30 14 1 14 15
M  V30 15 2 15 16
M  V30 16 1 16 17
M  V30 17 2 17 18
M  V30 18 1 18 19
M  V30 19 2 8 20
M  V30 20 1 20 21
M  V30 21 2 21 22
M  V30 22 1 21 23
M  V30 23 1 5 2
M  V30 24 1 22 6
M  V30 25 1 18 13
M  V30 26 1 1 24
M  V30 27 1 1 25
M  V30 28 1 2 26
M  V30 29 1 3 27
M  V30 30 1 3 28
M  V30 31 1 4 29
M  V30 32 1 5 30
M  V30 33 1 5 31
M  V30 34 1 7 32
M  V30 35 1 9 33
M  V30 36 1 10 34
M  V30 37 1 10 35
M  V30 38 1 11 36
M  V30 39 1 11 37
M  V30 40 1 12 38
M  V30 41 1 15 39
M  V30 42 1 16 40
M  V30 43 1 17 41
M  V30 44 1 19 42
M  V30 45 1 19 43
M  V30 46 1 19 44
M  V30 47 1 23 45
M  V30 48 1 23 46
M  V30 END BOND
M  V30 END CTAB
M  END
