
     RDKit          3D

  0  0  0  0  0  0  0  0  0  0999 V3000
M  V30 BEGIN CTAB
M  V30 COUNTS 39 40 0 0 0
M  V30 BEGIN ATOM
M  V30 1 N 2.27984 -0.691469 -2.99473 0
M  V30 2 C 2.31331 -0.0965445 -1.99028 0
M  V30 3 C 2.36437 0.680884 -0.736759 0
M  V30 4 C 3.6614 1.44575 -0.622581 0
M  V30 5 C 4.30319 1.25482 0.733182 0
M  V30 6 C 4.62222 -0.153461 1.07158 0
M  V30 7 C 3.68712 -1.08695 0.345122 0
M  V30 8 C 2.31252 -0.399096 0.364781 0
M  V30 9 N 1.26807 1.55423 -0.575182 0
M  V30 10 C -0.114534 1.22964 -0.481078 0
M  V30 11 O -0.404894 0.0199009 -0.542801 0
M  V30 12 C -1.1864 2.20079 -0.321074 0
M  V30 13 S -2.30306 1.76121 1.00094 0
M  V30 14 C -3.32337 0.371389 0.633909 0
M  V30 15 N -3.24672 -0.246015 -0.552978 0
M  V30 16 C -3.98842 -1.29247 -0.887663 0
M  V30 17 N -3.80096 -1.85482 -2.18067 0
M  V30 18 C -4.88239 -1.76762 0.029884 0
M  V30 19 C -4.97571 -1.13423 1.274 0
M  V30 20 N -4.21485 -0.087749 1.57394 0
M  V30 21 N -5.91837 -1.63864 2.21061 0
M  V30 22 H 3.46899 2.52944 -0.712649 0
M  V30 23 H 4.3176 1.15526 -1.45352 0
M  V30 24 H 3.6688 1.72494 1.51251 0
M  V30 25 H 5.26369 1.83162 0.713854 0
M  V30 26 H 5.68891 -0.420918 0.911205 0
M  V30 27 H 4.41158 -0.304971 2.1713 0
M  V30 28 H 3.97119 -1.11541 -0.728852 0
M  V30 29 H 3.61734 -2.08544 0.781267 0
M  V30 30 H 1.5574 -1.15952 0.178316 0
M  V30 31 H 2.13991 0.0495959 1.35191 0
M  V30 32 H 1.47129 2.59317 -0.518117 0
M  V30 33 H -0.838193 3.23402 -0.105871 0
M  V30 34 H -1.75307 2.26566 -1.28536 0
M  V30 35 H -4.59347 -1.90715 -2.84097 0
M  V30 36 H -2.88227 -2.22289 -2.49255 0
M  V30 37 H -5.49297 -2.61609 -0.228398 0
M  V30 38 H -6.92072 -1.59254 1.95658 0
M  V30 39 H -5.54834 -2.02836 3.10126 0
M  V30 END ATOM
M  V30 BEGIN BOND
M  V30 1 3 1 2
M  V30 2 1 2 3
M  V30 3 1 3 4
M  V30 4 1 4 5
M  V30 5 1 5 6
M  V30 6 1 6 7
M  V30 7 1 7 8
M  V30 8 1 3 9
M  V30 9 1 9 10
M  V30 10 2 10 11
M  V30 11 1 10 12
M  V30 12 1 12 13
M  V30 13 1 13 14
M  V30 14 2 14 15
M  V30 15 1 15 16
M  V30 16 1 16 17
M  V30 17 2 16 18
M  V30 18 1 18 19
M  V30 19 2 19 20
M  V30 20 1 19 21
M  V30 21 1 8 3
M  V30 22 1 20 14
M  V30 23 1 4 22
M  V30 24 1 4 23
M  V30 25 1 5 24
M  V30 26 1 5 25
M  V30 27 1 6 26
M  V30 28 1 6 27
M  V30 29 1 7 28
M  V30 30 1 7 29
M  V30 31 1 8 30
M  V30 32 1 8 31
M  V30 33 1 9 32
M  V30 34 1 12 33
M  V30 35 1 12 34
M  V30 36 1 17 35
M  V30 37 1 17 36
M  V30 38 1 18 37
M  V30 39 1 21 38
M  V30 40 1 21 39
M  V30 END BOND
M  V30 END CTAB
M  END
