
     RDKit          3D

  0  0  0  0  0  0  0  0  0  0999 V3000
M  V30 BEGIN CTAB
M  V30 COUNTS 29 29 0 0 0
M  V30 BEGIN ATOM
M  V30 1 N 4.02524 -0.819315 1.11362 0
M  V30 2 C 3.56423 -0.015244 0.00788825 0
M  V30 3 C 2.05663 -0.0326421 0.0497376 0
M  V30 4 C 1.33042 -0.732513 0.969203 0
M  V30 5 N -0.0221365 -0.703482 0.936842 0
M  V30 6 C -0.717155 0.00555476 0.0199149 0
M  V30 7 N -0.00943118 0.698916 -0.881477 0
M  V30 8 C 1.3363 0.697573 -0.892982 0
M  V30 9 N 2.09071 1.42958 -1.87504 0
M  V30 10 C -2.19635 -0.0763397 0.0541122 0
M  V30 11 C -2.61874 -1.38513 -0.51631 0
M  V30 12 C -2.6603 0.044216 1.49449 0
M  V30 13 C -2.80244 1.06356 -0.739412 0
M  V30 14 H 3.77614 -0.401702 2.00264 0
M  V30 15 H 3.8356 -1.82668 0.956766 0
M  V30 16 H 3.98454 -0.332594 -0.949363 0
M  V30 17 H 3.90441 1.03557 0.253668 0
M  V30 18 H 1.89384 -1.31635 1.73056 0
M  V30 19 H 1.74498 2.33333 -2.27319 0
M  V30 20 H 3.01394 1.07172 -2.21354 0
M  V30 21 H -3.14265 -1.23228 -1.5069 0
M  V30 22 H -1.75941 -2.05417 -0.750967 0
M  V30 23 H -3.3613 -1.83842 0.172665 0
M  V30 24 H -2.15624 0.958823 1.89456 0
M  V30 25 H -2.34817 -0.814969 2.10952 0
M  V30 26 H -3.73473 0.193429 1.58031 0
M  V30 27 H -2.29568 2.00552 -0.595643 0
M  V30 28 H -3.8447 1.19449 -0.34741 0
M  V30 29 H -2.88757 0.849553 -1.80427 0
M  V30 END ATOM
M  V30 BEGIN BOND
M  V30 1 1 1 2
M  V30 2 1 2 3
M  V30 3 2 3 4
M  V30 4 1 4 5
M  V30 5 2 5 6
M  V30 6 1 6 7
M  V30 7 2 7 8
M  V30 8 1 8 9
M  V30 9 1 6 10
M  V30 10 1 10 11
M  V30 11 1 10 12
M  V30 12 1 10 13
M  V30 13 1 8 3
M  V30 14 1 1 14
M  V30 15 1 1 15
M  V30 16 1 2 16
M  V30 17 1 2 17
M  V30 18 1 4 18
M  V30 19 1 9 19
M  V30 20 1 9 20
M  V30 21 1 11 21
M  V30 22 1 11 22
M  V30 23 1 11 23
M  V30 24 1 12 24
M  V30 25 1 12 25
M  V30 26 1 12 26
M  V30 27 1 13 27
M  V30 28 1 13 28
M  V30 29 1 13 29
M  V30 END BOND
M  V30 END CTAB
M  END
