
     RDKit          3D

  0  0  0  0  0  0  0  0  0  0999 V3000
M  V30 BEGIN CTAB
M  V30 COUNTS 24 25 0 0 0
M  V30 BEGIN ATOM
M  V30 1 N 3.73668 -0.579667 0.239242 0
M  V30 2 C 2.33694 -0.61515 0.589111 0
M  V30 3 N 1.80157 -1.17754 1.6843 0
M  V30 4 N 0.492883 -1.02192 1.6807 0
M  V30 5 C 0.183399 -0.349688 0.566757 0
M  V30 6 N 1.31379 -0.100731 -0.101698 0
M  V30 7 N 1.44124 0.58645 -1.33171 0
M  V30 8 C -1.16166 0.0407897 0.159203 0
M  V30 9 C -1.79266 1.22664 0.487264 0
M  V30 10 C -1.30247 2.364 1.29851 0
M  V30 11 N -2.99428 1.12928 -0.107925 0
M  V30 12 O -3.0868 -0.00609148 -0.737853 0
M  V30 13 C -2.01028 -0.72298 -0.621068 0
M  V30 14 C -1.76512 -2.06455 -1.2047 0
M  V30 15 H 4.09546 -0.999918 -0.629252 0
M  V30 16 H 4.36155 -0.100977 0.922651 0
M  V30 17 H 2.30401 1.10355 -1.53683 0
M  V30 18 H 0.659444 0.559625 -2.01352 0
M  V30 19 H -2.18188 2.9052 1.71913 0
M  V30 20 H -0.722622 3.09283 0.718777 0
M  V30 21 H -0.737183 2.00205 2.20599 0
M  V30 22 H -2.69176 -2.58775 -1.43367 0
M  V30 23 H -1.07595 -1.96057 -2.0757 0
M  V30 24 H -1.2043 -2.72288 -0.477709 0
M  V30 END ATOM
M  V30 BEGIN BOND
M  V30 1 1 1 2
M  V30 2 2 2 3
M  V30 3 1 3 4
M  V30 4 2 4 5
M  V30 5 1 5 6
M  V30 6 1 6 7
M  V30 7 1 5 8
M  V30 8 1 8 9
M  V30 9 1 9 10
M  V30 10 2 9 11
M  V30 11 1 11 12
M  V30 12 1 12 13
M  V30 13 1 13 14
M  V30 14 1 6 2
M  V30 15 2 13 8
M  V30 16 1 1 15
M  V30 17 1 1 16
M  V30 18 1 7 17
M  V30 19 1 7 18
M  V30 20 1 10 19
M  V30 21 1 10 20
M  V30 22 1 10 21
M  V30 23 1 14 22
M  V30 24 1 14 23
M  V30 25 1 14 24
M  V30 END BOND
M  V30 END CTAB
M  END
