
     RDKit          3D

  0  0  0  0  0  0  0  0  0  0999 V3000
M  V30 BEGIN CTAB
M  V30 COUNTS 43 48 0 0 0
M  V30 BEGIN ATOM
M  V30 1 N 7.59768 1.76701 2.36598 0
M  V30 2 C 6.3248 1.27405 1.90101 0
M  V30 3 N 5.16674 1.29817 2.57909 0
M  V30 4 C 4.19646 0.757714 1.84137 0
M  V30 5 C 2.8549 0.512499 1.99497 0
M  V30 6 C 2.10412 -0.100102 0.973115 0
M  V30 7 C 2.65851 -0.478345 -0.212533 0
M  V30 8 C 4.03407 -0.209375 -0.326019 0
M  V30 9 C 4.78369 0.385231 0.657667 0
M  V30 10 O 6.06859 0.719421 0.745915 0
M  V30 11 C 1.9466 -1.05282 -1.34404 0
M  V30 12 C 2.63708 -1.67962 -2.40124 0
M  V30 13 N 1.77571 -2.08297 -3.32145 0
M  V30 14 C 0.555628 -1.7273 -2.8761 0
M  V30 15 C -0.666105 -1.88403 -3.42907 0
M  V30 16 C -1.82524 -1.42603 -2.81702 0
M  V30 17 C -1.7012 -0.796958 -1.61423 0
M  V30 18 C -0.450285 -0.640218 -1.05465 0
M  V30 19 N 0.673677 -1.09563 -1.66368 0
M  V30 20 C -2.85878 -0.295864 -0.918343 0
M  V30 21 C -3.95111 0.165176 -1.6608 0
M  V30 22 C -5.0838 0.653453 -1.04271 0
M  V30 23 C -5.18241 0.70575 0.337356 0
M  V30 24 O -6.11649 1.11036 1.16673 0
M  V30 25 C -5.72498 0.952265 2.40937 0
M  V30 26 N -6.52438 1.30146 3.53831 0
M  V30 27 N -4.48959 0.424893 2.36881 0
M  V30 28 C -4.1122 0.254298 1.07625 0
M  V30 29 C -2.98256 -0.232738 0.452954 0
M  V30 30 H 8.47929 1.29697 2.08868 0
M  V30 31 H 7.65156 2.59438 2.98189 0
M  V30 32 H 2.39586 0.801626 2.91805 0
M  V30 33 H 1.09226 -0.275105 1.21849 0
M  V30 34 H 4.51033 -0.489092 -1.24909 0
M  V30 35 H 3.69494 -1.81952 -2.46398 0
M  V30 36 H -0.73861 -2.39159 -4.39731 0
M  V30 37 H -2.77204 -1.58362 -3.30957 0
M  V30 38 H -0.377609 -0.114188 -0.118992 0
M  V30 39 H -3.87799 0.125646 -2.73845 0
M  V30 40 H -5.93911 1.01305 -1.59556 0
M  V30 41 H -7.36704 0.734142 3.79216 0
M  V30 42 H -6.30868 2.11118 4.13782 0
M  V30 43 H -2.15231 -0.583611 1.0383 0
M  V30 END ATOM
M  V30 BEGIN BOND
M  V30 1 1 1 2
M  V30 2 2 2 3
M  V30 3 1 3 4
M  V30 4 2 4 5
M  V30 5 1 5 6
M  V30 6 2 6 7
M  V30 7 1 7 8
M  V30 8 2 8 9
M  V30 9 1 9 10
M  V30 10 1 7 11
M  V30 11 2 11 12
M  V30 12 1 12 13
M  V30 13 2 13 14
M  V30 14 1 14 15
M  V30 15 2 15 16
M  V30 16 1 16 17
M  V30 17 2 17 18
M  V30 18 1 18 19
M  V30 19 1 17 20
M  V30 20 2 20 21
M  V30 21 1 21 22
M  V30 22 2 22 23
M  V30 23 1 23 24
M  V30 24 1 24 25
M  V30 25 1 25 26
M  V30 26 2 25 27
M  V30 27 1 27 28
M  V30 28 2 28 29
M  V30 29 1 10 2
M  V30 30 1 19 11
M  V30 31 1 29 20
M  V30 32 1 9 4
M  V30 33 1 19 14
M  V30 34 1 28 23
M  V30 35 1 1 30
M  V30 36 1 1 31
M  V30 37 1 5 32
M  V30 38 1 6 33
M  V30 39 1 8 34
M  V30 40 1 12 35
M  V30 41 1 15 36
M  V30 42 1 16 37
M  V30 43 1 18 38
M  V30 44 1 21 39
M  V30 45 1 22 40
M  V30 46 1 26 41
M  V30 47 1 26 42
M  V30 48 1 29 43
M  V30 END BOND
M  V30 END CTAB
M  END
