
     RDKit          3D

  0  0  0  0  0  0  0  0  0  0999 V3000
M  V30 BEGIN CTAB
M  V30 COUNTS 55 57 0 0 0
M  V30 BEGIN ATOM
M  V30 1 O 8.474 -1.57652 0.278015 0
M  V30 2 C 8.04007 -0.339373 0.158098 0
M  V30 3 O 8.73314 0.628269 0.525856 0
M  V30 4 C 6.68535 -0.0839024 -0.432075 0
M  V30 5 O 6.06728 -1.26318 -0.777214 0
M  V30 6 C 4.82201 -1.18355 -1.32827 0
M  V30 7 C 3.77415 -0.675404 -0.416496 0
M  V30 8 O 4.06549 -0.473641 0.789212 0
M  V30 9 N 2.4562 -0.413768 -0.874623 0
M  V30 10 C 1.45825 0.0805091 0.0269925 0 CFG=1
M  V30 11 C 1.03535 1.44133 -0.492523 0
M  V30 12 C -0.446762 1.67744 -0.38118 0
M  V30 13 C -0.9257 1.06989 0.9289 0 CFG=1
M  V30 14 C -0.915966 -0.403364 0.757508 0 CFG=1
M  V30 15 C 0.334805 -0.907782 0.0760987 0
M  V30 16 O -1.12023 -1.09509 1.96006 0
M  V30 17 O 0.0535592 1.46896 1.87948 0
M  V30 18 C -2.19883 1.65096 1.40405 0
M  V30 19 N -3.31953 1.50218 0.511334 0
M  V30 20 C -3.60501 2.35628 -0.511445 0
M  V30 21 N -4.69894 1.93086 -1.15869 0
M  V30 22 C -5.14441 0.799863 -0.574431 0
M  V30 23 C -4.26436 0.552706 0.467951 0
M  V30 24 N -4.51863 -0.532562 1.20379 0
M  V30 25 C -5.56209 -1.33748 0.951071 0
M  V30 26 N -5.82907 -2.4909 1.73683 0
M  V30 27 N -6.42039 -1.0858 -0.0760636 0
M  V30 28 C -6.22088 -0.0144949 -0.849915 0
M  V30 29 N -7.11648 0.240353 -1.91511 0
M  V30 30 C 2.13706 -0.648045 -2.25527 0
M  V30 31 H 8.90944 -2.11631 0.904863 0
M  V30 32 H 6.84996 0.569605 -1.3481 0
M  V30 33 H 6.06351 0.518713 0.240198 0
M  V30 34 H 4.83625 -0.607472 -2.29085 0
M  V30 35 H 4.53007 -2.25623 -1.57431 0
M  V30 36 H 1.95605 0.185685 1.03789 0
M  V30 37 H 1.31608 1.55464 -1.558 0
M  V30 38 H 1.56686 2.25402 0.0471275 0
M  V30 39 H -0.64584 2.7765 -0.402996 0
M  V30 40 H -0.961291 1.12574 -1.19352 0
M  V30 41 H -1.75211 -0.684058 0.0852771 0
M  V30 42 H 0.720973 -1.7862 0.664705 0
M  V30 43 H 0.146571 -1.31587 -0.935731 0
M  V30 44 H -1.24233 -2.04077 1.76468 0
M  V30 45 H -0.16707 1.08391 2.75677 0
M  V30 46 H -2.414 1.22047 2.40846 0
M  V30 47 H -1.99688 2.74422 1.62148 0
M  V30 48 H -3.06212 3.25526 -0.798737 0
M  V30 49 H -5.5017 -3.41757 1.41045 0
M  V30 50 H -6.3443 -2.42471 2.62954 0
M  V30 51 H -8.04688 -0.228325 -1.94449 0
M  V30 52 H -6.89768 0.891188 -2.70081 0
M  V30 53 H 1.09241 -0.483873 -2.52741 0
M  V30 54 H 2.74332 -0.00186446 -2.9432 0
M  V30 55 H 2.4713 -1.69143 -2.48771 0
M  V30 END ATOM
M  V30 BEGIN BOND
M  V30 1 1 1 2
M  V30 2 2 2 3
M  V30 3 1 2 4
M  V30 4 1 4 5
M  V30 5 1 5 6
M  V30 6 1 6 7
M  V30 7 2 7 8
M  V30 8 1 7 9
M  V30 9 1 9 10
M  V30 10 1 10 11
M  V30 11 1 11 12
M  V30 12 1 12 13
M  V30 13 1 13 14
M  V30 14 1 14 15
M  V30 15 1 14 16
M  V30 16 1 13 17 CFG=1
M  V30 17 1 13 18
M  V30 18 1 18 19
M  V30 19 1 19 20
M  V30 20 2 20 21
M  V30 21 1 21 22
M  V30 22 2 22 23
M  V30 23 1 23 24
M  V30 24 2 24 25
M  V30 25 1 25 26
M  V30 26 1 25 27
M  V30 27 2 27 28
M  V30 28 1 28 29
M  V30 29 1 9 30
M  V30 30 1 15 10
M  V30 31 1 23 19
M  V30 32 1 28 22
M  V30 33 1 1 31
M  V30 34 1 4 32
M  V30 35 1 4 33
M  V30 36 1 6 34
M  V30 37 1 6 35
M  V30 38 1 10 36 CFG=1
M  V30 39 1 11 37
M  V30 40 1 11 38
M  V30 41 1 12 39
M  V30 42 1 12 40
M  V30 43 1 14 41 CFG=3
M  V30 44 1 15 42
M  V30 45 1 15 43
M  V30 46 1 16 44
M  V30 47 1 17 45
M  V30 48 1 18 46
M  V30 49 1 18 47
M  V30 50 1 20 48
M  V30 51 1 26 49
M  V30 52 1 26 50
M  V30 53 1 29 51
M  V30 54 1 29 52
M  V30 55 1 30 53
M  V30 56 1 30 54
M  V30 57 1 30 55
M  V30 END BOND
M  V30 END CTAB
M  END
