
     RDKit          3D

  0  0  0  0  0  0  0  0  0  0999 V3000
M  V30 BEGIN CTAB
M  V30 COUNTS 55 57 0 0 0
M  V30 BEGIN ATOM
M  V30 1 C 5.92384 0.103443 -0.447254 0 CFG=2
M  V30 2 C 6.59812 -1.05933 -1.05266 0
M  V30 3 C 8.07144 -1.16312 -1.00326 0
M  V30 4 C 8.8613 -0.239668 -1.79834 0
M  V30 5 O 10.2112 0.0247228 -1.46437 0
M  V30 6 O 8.46146 0.388658 -2.80734 0
M  V30 7 N 4.45853 -0.017262 -0.637907 0
M  V30 8 C 3.66015 -0.0703428 0.523157 0
M  V30 9 O 4.21512 -0.0107928 1.64408 0
M  V30 10 C 2.20937 -0.194156 0.488583 0
M  V30 11 C 1.45868 -0.141574 -0.670102 0
M  V30 12 C 0.0826738 -0.278068 -0.62792 0
M  V30 13 Cl -0.788406 -0.199146 -2.14543 0
M  V30 14 C -0.601603 -0.469558 0.545196 0
M  V30 15 N -2.01072 -0.609567 0.61657 0
M  V30 16 C -2.67991 -1.88365 0.511638 0
M  V30 17 C -2.78114 0.580721 0.812129 0
M  V30 18 C -4.23151 0.386557 0.912981 0
M  V30 19 N -5.046 0.822297 -0.0622115 0
M  V30 20 C -6.40346 0.666189 -0.0102447 0
M  V30 21 C -7.24601 1.1158 -1.0054 0
M  V30 22 N -6.66021 1.76297 -2.12583 0
M  V30 23 N -8.5726 0.926516 -0.874738 0
M  V30 24 C -9.12793 0.305611 0.204677 0
M  V30 25 N -10.5345 0.128702 0.302245 0
M  V30 26 N -8.30482 -0.132704 1.17567 0
M  V30 27 C -6.98803 0.0440489 1.06709 0
M  V30 28 N -6.17464 -0.401289 2.0599 0
M  V30 29 C -4.84592 -0.233836 1.98115 0
M  V30 30 C 0.147739 -0.52152 1.7002 0
M  V30 31 Cl -0.669297 -0.761683 3.22622 0
M  V30 32 C 1.5197 -0.389603 1.69419 0
M  V30 33 C 6.29128 1.4148 -0.925563 0
M  V30 34 O 7.35073 2.09035 -0.321668 0
M  V30 35 O 5.71969 2.02728 -1.86577 0
M  V30 36 H 6.10843 0.0665484 0.6744 0
M  V30 37 H 6.29539 -1.15783 -2.14204 0
M  V30 38 H 6.20526 -2.02802 -0.592856 0
M  V30 39 H 8.31851 -2.20653 -1.39492 0
M  V30 40 H 8.45299 -1.1025 0.0631812 0
M  V30 41 H 10.4345 0.619208 -0.677061 0
M  V30 42 H 4.12451 -0.0546819 -1.5986 0
M  V30 43 H 1.95136 0.00716217 -1.61796 0
M  V30 44 H -2.11634 -2.61355 -0.133831 0
M  V30 45 H -3.67188 -1.78505 -0.0126503 0
M  V30 46 H -2.93355 -2.30542 1.50537 0
M  V30 47 H -2.58945 1.3441 0.00413682 0
M  V30 48 H -2.44204 1.10761 1.75224 0
M  V30 49 H -5.79512 2.29595 -1.99484 0
M  V30 50 H -7.1638 1.65293 -3.04753 0
M  V30 51 H -11.0908 0.606746 1.03124 0
M  V30 52 H -11.008 -0.496163 -0.375916 0
M  V30 53 H -4.24634 -0.606016 2.79661 0
M  V30 54 H 2.07763 -0.435682 2.61755 0
M  V30 55 H 7.51457 3.07938 -0.415699 0
M  V30 END ATOM
M  V30 BEGIN BOND
M  V30 1 1 1 2
M  V30 2 1 2 3
M  V30 3 1 3 4
M  V30 4 1 4 5
M  V30 5 2 4 6
M  V30 6 1 1 7
M  V30 7 1 7 8
M  V30 8 2 8 9
M  V30 9 1 8 10
M  V30 10 2 10 11
M  V30 11 1 11 12
M  V30 12 1 12 13
M  V30 13 2 12 14
M  V30 14 1 14 15
M  V30 15 1 15 16
M  V30 16 1 15 17
M  V30 17 1 17 18
M  V30 18 2 18 19
M  V30 19 1 19 20
M  V30 20 2 20 21
M  V30 21 1 21 22
M  V30 22 1 21 23
M  V30 23 2 23 24
M  V30 24 1 24 25
M  V30 25 1 24 26
M  V30 26 2 26 27
M  V30 27 1 27 28
M  V30 28 2 28 29
M  V30 29 1 14 30
M  V30 30 1 30 31
M  V30 31 2 30 32
M  V30 32 1 1 33
M  V30 33 1 33 34
M  V30 34 2 33 35
M  V30 35 1 32 10
M  V30 36 1 29 18
M  V30 37 1 27 20
M  V30 38 1 1 36 CFG=1
M  V30 39 1 2 37
M  V30 40 1 2 38
M  V30 41 1 3 39
M  V30 42 1 3 40
M  V30 43 1 5 41
M  V30 44 1 7 42
M  V30 45 1 11 43
M  V30 46 1 16 44
M  V30 47 1 16 45
M  V30 48 1 16 46
M  V30 49 1 17 47
M  V30 50 1 17 48
M  V30 51 1 22 49
M  V30 52 1 22 50
M  V30 53 1 25 51
M  V30 54 1 25 52
M  V30 55 1 29 53
M  V30 56 1 32 54
M  V30 57 1 34 55
M  V30 END BOND
M  V30 END CTAB
M  END
