
     RDKit          3D

  0  0  0  0  0  0  0  0  0  0999 V3000
M  V30 BEGIN CTAB
M  V30 COUNTS 42 45 0 0 0
M  V30 BEGIN ATOM
M  V30 1 C 6.13926 -0.717969 0.234209 0
M  V30 2 O 5.24529 0.110425 0.944538 0
M  V30 3 C 3.92771 0.157764 0.541396 0
M  V30 4 C 3.46226 -0.570762 -0.521843 0
M  V30 5 C 2.15151 -0.522873 -0.921387 0
M  V30 6 C 1.26739 0.303121 -0.2097 0
M  V30 7 C -0.12988 0.295102 -0.685772 0
M  V30 8 C -0.679893 -1.10663 -0.678908 0
M  V30 9 C -1.17931 -1.66673 0.489477 0
M  V30 10 C -1.69758 -2.93727 0.549971 0
M  V30 11 C -1.72927 -3.69636 -0.585053 0
M  V30 12 C -1.2473 -3.18127 -1.75529 0
M  V30 13 C -0.727223 -1.89691 -1.80052 0
M  V30 14 C -0.984464 1.19246 0.090717 0
M  V30 15 C -0.513535 1.91418 1.14647 0
M  V30 16 O 0.830146 1.86538 1.56175 0
M  V30 17 C 1.70739 1.04874 0.864505 0
M  V30 18 C 3.0475 0.957936 1.22168 0
M  V30 19 N -1.37623 2.72014 1.83108 0
M  V30 20 C -2.66416 2.7964 1.4655 0
M  V30 21 N -3.60012 3.62727 2.15474 0
M  V30 22 C -3.16932 2.07754 0.400053 0
M  V30 23 C -4.57978 2.20041 0.047676 0
M  V30 24 N -5.69591 2.28451 -0.246066 0
M  V30 25 C -2.33633 1.25731 -0.312365 0
M  V30 26 N -2.81516 0.503215 -1.41663 0
M  V30 27 H 5.70331 -1.72624 0.127905 0
M  V30 28 H 7.1503 -0.735122 0.685039 0
M  V30 29 H 6.2212 -0.277932 -0.797424 0
M  V30 30 H 4.14221 -1.21959 -1.08573 0
M  V30 31 H 1.78355 -1.10106 -1.77104 0
M  V30 32 H -0.169414 0.595602 -1.77618 0
M  V30 33 H -1.16562 -1.09035 1.39499 0
M  V30 34 H -2.07779 -3.33124 1.49365 0
M  V30 35 H -2.13967 -4.69753 -0.528736 0
M  V30 36 H -1.28833 -3.81088 -2.63458 0
M  V30 37 H -0.357975 -1.5249 -2.74313 0
M  V30 38 H 3.38824 1.54554 2.06699 0
M  V30 39 H -4.27482 4.21579 1.62911 0
M  V30 40 H -3.61773 3.65337 3.19144 0
M  V30 41 H -2.48977 0.7762 -2.36388 0
M  V30 42 H -3.46071 -0.286814 -1.29865 0
M  V30 END ATOM
M  V30 BEGIN BOND
M  V30 1 1 1 2
M  V30 2 1 2 3
M  V30 3 2 3 4
M  V30 4 1 4 5
M  V30 5 2 5 6
M  V30 6 1 6 7
M  V30 7 1 7 8
M  V30 8 2 8 9
M  V30 9 1 9 10
M  V30 10 2 10 11
M  V30 11 1 11 12
M  V30 12 2 12 13
M  V30 13 1 7 14
M  V30 14 2 14 15
M  V30 15 1 15 16
M  V30 16 1 16 17
M  V30 17 2 17 18
M  V30 18 1 15 19
M  V30 19 2 19 20
M  V30 20 1 20 21
M  V30 21 1 20 22
M  V30 22 1 22 23
M  V30 23 3 23 24
M  V30 24 2 22 25
M  V30 25 1 25 26
M  V30 26 1 18 3
M  V30 27 1 17 6
M  V30 28 1 13 8
M  V30 29 1 25 14
M  V30 30 1 1 27
M  V30 31 1 1 28
M  V30 32 1 1 29
M  V30 33 1 4 30
M  V30 34 1 5 31
M  V30 35 1 7 32
M  V30 36 1 9 33
M  V30 37 1 10 34
M  V30 38 1 11 35
M  V30 39 1 12 36
M  V30 40 1 13 37
M  V30 41 1 18 38
M  V30 42 1 21 39
M  V30 43 1 21 40
M  V30 44 1 26 41
M  V30 45 1 26 42
M  V30 END BOND
M  V30 END CTAB
M  END
