
     RDKit          3D

  0  0  0  0  0  0  0  0  0  0999 V3000
M  V30 BEGIN CTAB
M  V30 COUNTS 33 35 0 0 0
M  V30 BEGIN ATOM
M  V30 1 N 5.29929 1.16944 0.10641 0
M  V30 2 C 4.05214 0.973897 0.776702 0
M  V30 3 C 3.11593 0.291226 -0.185117 0
M  V30 4 N 3.51953 -0.0269452 -1.43302 0
M  V30 5 C 2.74454 -0.62611 -2.32574 0
M  V30 6 C 1.45514 -0.948752 -1.97839 0
M  V30 7 C 0.980199 -0.649543 -0.714049 0
M  V30 8 C 1.83848 -0.0271146 0.162595 0
M  V30 9 C -0.349356 -1.01399 -0.279278 0
M  V30 10 O -0.518177 -2.26879 -0.120408 0
M  V30 11 N -1.35417 -0.0468958 -0.0568433 0
M  V30 12 C -1.27988 1.26917 -0.260025 0
M  V30 13 N -0.203433 2.0352 -0.789956 0
M  V30 14 N -2.48327 1.79233 0.122476 0
M  V30 15 C -3.27349 0.808829 0.549443 0
M  V30 16 C -2.57354 -0.389284 0.445707 0
M  V30 17 C -3.16302 -1.57656 0.823759 0
M  V30 18 C -4.45178 -1.57908 1.30711 0
M  V30 19 C -5.12937 -0.382287 1.40263 0
M  V30 20 C -4.55111 0.817273 1.02732 0
M  V30 21 H 5.61602 0.321609 -0.419359 0
M  V30 22 H 6.03945 1.58801 0.69599 0
M  V30 23 H 3.56834 1.96749 0.979681 0
M  V30 24 H 4.1051 0.432752 1.72728 0
M  V30 25 H 3.08449 -0.877748 -3.33101 0
M  V30 26 H 0.788407 -1.43704 -2.67323 0
M  V30 27 H 1.52856 0.239785 1.18017 0
M  V30 28 H 0.294287 2.76041 -0.23405 0
M  V30 29 H 0.119058 1.8838 -1.77117 0
M  V30 30 H -2.67035 -2.52536 0.765051 0
M  V30 31 H -4.9211 -2.51371 1.6069 0
M  V30 32 H -6.14224 -0.410793 1.78572 0
M  V30 33 H -5.08465 1.7288 1.1067 0
M  V30 END ATOM
M  V30 BEGIN BOND
M  V30 1 1 1 2
M  V30 2 1 2 3
M  V30 3 2 3 4
M  V30 4 1 4 5
M  V30 5 2 5 6
M  V30 6 1 6 7
M  V30 7 2 7 8
M  V30 8 1 7 9
M  V30 9 2 9 10
M  V30 10 1 9 11
M  V30 11 1 11 12
M  V30 12 1 12 13
M  V30 13 2 12 14
M  V30 14 1 14 15
M  V30 15 2 15 16
M  V30 16 1 16 17
M  V30 17 2 17 18
M  V30 18 1 18 19
M  V30 19 2 19 20
M  V30 20 1 8 3
M  V30 21 1 16 11
M  V30 22 1 20 15
M  V30 23 1 1 21
M  V30 24 1 1 22
M  V30 25 1 2 23
M  V30 26 1 2 24
M  V30 27 1 5 25
M  V30 28 1 6 26
M  V30 29 1 8 27
M  V30 30 1 13 28
M  V30 31 1 13 29
M  V30 32 1 17 30
M  V30 33 1 18 31
M  V30 34 1 19 32
M  V30 35 1 20 33
M  V30 END BOND
M  V30 END CTAB
M  END
