
     RDKit          3D

  0  0  0  0  0  0  0  0  0  0999 V3000
M  V30 BEGIN CTAB
M  V30 COUNTS 32 33 0 0 0
M  V30 BEGIN ATOM
M  V30 1 C -1.31775 0.646226 -1.73331 0
M  V30 2 C -1.07215 -0.0528469 -0.397243 0
M  V30 3 C -1.60102 -1.44484 -0.518535 0
M  V30 4 C -3.06922 -1.26882 -0.205605 0
M  V30 5 C -3.15003 -0.102968 0.734187 0
M  V30 6 C -1.86373 0.643875 0.674782 0
M  V30 7 C 0.371886 -0.0790856 -0.0684045 0
M  V30 8 N 1.11458 -1.18321 0.121885 0
M  V30 9 C 2.38542 -0.867648 0.404698 0
M  V30 10 N 2.45482 0.473479 0.394444 0
M  V30 11 C 1.23013 0.987875 0.106016 0
M  V30 12 N 0.89169 2.37018 0.00222503 0
M  V30 13 N 3.56944 1.27265 0.632349 0
M  V30 14 C 3.53299 -1.78878 0.683491 0
M  V30 15 H -0.725806 0.157196 -2.51929 0
M  V30 16 H -2.41352 0.553838 -1.91571 0
M  V30 17 H -0.976594 1.69016 -1.6631 0
M  V30 18 H -1.48339 -1.80111 -1.5626 0
M  V30 19 H -1.13339 -2.15932 0.191183 0
M  V30 20 H -3.40714 -2.23026 0.259682 0
M  V30 21 H -3.59517 -1.10971 -1.16495 0
M  V30 22 H -4.03106 0.50673 0.42415 0
M  V30 23 H -3.3187 -0.499366 1.76853 0
M  V30 24 H -2.03414 1.68623 0.346491 0
M  V30 25 H -1.32473 0.688106 1.6429 0
M  V30 26 H 0.181423 2.838 0.593727 0
M  V30 27 H 1.40235 2.92743 -0.72027 0
M  V30 28 H 4.19287 1.1248 1.44657 0
M  V30 29 H 3.79398 2.04684 -0.0219169 0
M  V30 30 H 4.07355 -1.89131 -0.302868 0
M  V30 31 H 4.16996 -1.34319 1.44853 0
M  V30 32 H 3.15246 -2.79115 0.917967 0
M  V30 END ATOM
M  V30 BEGIN BOND
M  V30 1 1 1 2
M  V30 2 1 2 3
M  V30 3 1 3 4
M  V30 4 1 4 5
M  V30 5 1 5 6
M  V30 6 1 2 7
M  V30 7 1 7 8
M  V30 8 2 8 9
M  V30 9 1 9 10
M  V30 10 1 10 11
M  V30 11 1 11 12
M  V30 12 1 10 13
M  V30 13 1 9 14
M  V30 14 1 6 2
M  V30 15 2 11 7
M  V30 16 1 1 15
M  V30 17 1 1 16
M  V30 18 1 1 17
M  V30 19 1 3 18
M  V30 20 1 3 19
M  V30 21 1 4 20
M  V30 22 1 4 21
M  V30 23 1 5 22
M  V30 24 1 5 23
M  V30 25 1 6 24
M  V30 26 1 6 25
M  V30 27 1 12 26
M  V30 28 1 12 27
M  V30 29 1 13 28
M  V30 30 1 13 29
M  V30 31 1 14 30
M  V30 32 1 14 31
M  V30 33 1 14 32
M  V30 END BOND
M  V30 END CTAB
M  END
