
     RDKit          3D

  0  0  0  0  0  0  0  0  0  0999 V3000
M  V30 BEGIN CTAB
M  V30 COUNTS 22 23 0 0 0
M  V30 BEGIN ATOM
M  V30 1 C -0.519166 -0.840973 0.0156225 0 CFG=1
M  V30 2 O 0.0924254 -1.18017 -1.14352 0
M  V30 3 C 1.31773 -0.579267 -1.23359 0
M  V30 4 C 1.44962 0.409689 -0.111276 0 CFG=2
M  V30 5 N 2.7954 0.388309 0.364764 0
M  V30 6 C 0.43306 -0.0713137 0.879461 0 CFG=1
M  V30 7 O -0.289797 0.93207 1.48098 0
M  V30 8 C -1.26604 1.35247 0.594039 0
M  V30 9 C -1.6011 0.170047 -0.2648 0 CFG=2
M  V30 10 N -2.90448 -0.389385 0.0155921 0
M  V30 11 H -0.964806 -1.68725 0.541879 0
M  V30 12 H 1.41242 -0.0590197 -2.21014 0
M  V30 13 H 2.09352 -1.38037 -1.12408 0
M  V30 14 H 1.20394 1.44195 -0.416058 0
M  V30 15 H 2.9572 -0.170888 1.21469 0
M  V30 16 H 3.46173 0.0291472 -0.36074 0
M  V30 17 H 0.861952 -0.72387 1.67217 0
M  V30 18 H -0.862031 2.21436 0.0353805 0
M  V30 19 H -2.1358 1.71843 1.19535 0
M  V30 20 H -1.58808 0.475582 -1.32141 0
M  V30 21 H -3.08312 -1.10764 -0.734402 0
M  V30 22 H -2.86458 -0.941895 0.910077 0
M  V30 END ATOM
M  V30 BEGIN BOND
M  V30 1 1 1 2
M  V30 2 1 2 3
M  V30 3 1 3 4
M  V30 4 1 4 5
M  V30 5 1 4 6
M  V30 6 1 6 7
M  V30 7 1 7 8
M  V30 8 1 8 9
M  V30 9 1 9 10
M  V30 10 1 6 1
M  V30 11 1 9 1
M  V30 12 1 1 11 CFG=1
M  V30 13 1 3 12
M  V30 14 1 3 13
M  V30 15 1 4 14 CFG=3
M  V30 16 1 5 15
M  V30 17 1 5 16
M  V30 18 1 6 17 CFG=1
M  V30 19 1 8 18
M  V30 20 1 8 19
M  V30 21 1 9 20 CFG=3
M  V30 22 1 10 21
M  V30 23 1 10 22
M  V30 END BOND
M  V30 END CTAB
M  END
