
     RDKit          3D

  0  0  0  0  0  0  0  0  0  0999 V3000
M  V30 BEGIN CTAB
M  V30 COUNTS 23 23 0 0 0
M  V30 BEGIN ATOM
M  V30 1 N 4.30954 0.404536 0.201492 0
M  V30 2 N 3.22169 -0.323621 0.253907 0
M  V30 3 C 2.07909 -1.08851 0.30896 0
M  V30 4 O 1.94657 -2.34828 0.32347 0
M  V30 5 C 0.728817 -0.412365 0.361548 0
M  V30 6 C 0.620196 0.833944 0.90876 0
M  V30 7 C -0.618854 1.42782 0.923959 0
M  V30 8 C -1.75734 0.842948 0.420573 0
M  V30 9 C -1.62562 -0.426904 -0.133381 0
M  V30 10 C -0.385389 -1.02769 -0.151044 0
M  V30 11 C -2.81346 -1.11617 -0.699871 0
M  V30 12 N -3.02976 1.47902 0.45103 0
M  V30 13 H 4.40729 1.12474 -0.552157 0
M  V30 14 H 4.74575 0.72382 1.10202 0
M  V30 15 H 3.98865 -1.43418 0.185461 0
M  V30 16 H 1.49846 1.36146 1.32745 0
M  V30 17 H -0.728062 2.42258 1.35907 0
M  V30 18 H -0.283206 -2.0378 -0.591715 0
M  V30 19 H -3.19926 -1.90334 -0.0468779 0
M  V30 20 H -2.51202 -1.57698 -1.68309 0
M  V30 21 H -3.60999 -0.378681 -0.949031 0
M  V30 22 H -3.91111 0.941046 0.57269 0
M  V30 23 H -3.07199 2.51258 0.353636 0
M  V30 END ATOM
M  V30 BEGIN BOND
M  V30 1 1 1 2
M  V30 2 1 2 3
M  V30 3 2 3 4
M  V30 4 1 3 5
M  V30 5 2 5 6
M  V30 6 1 6 7
M  V30 7 2 7 8
M  V30 8 1 8 9
M  V30 9 2 9 10
M  V30 10 1 9 11
M  V30 11 1 8 12
M  V30 12 1 10 5
M  V30 13 1 1 13
M  V30 14 1 1 14
M  V30 15 1 2 15
M  V30 16 1 6 16
M  V30 17 1 7 17
M  V30 18 1 10 18
M  V30 19 1 11 19
M  V30 20 1 11 20
M  V30 21 1 11 21
M  V30 22 1 12 22
M  V30 23 1 12 23
M  V30 END BOND
M  V30 END CTAB
M  END
