
     RDKit          3D

  0  0  0  0  0  0  0  0  0  0999 V3000
M  V30 BEGIN CTAB
M  V30 COUNTS 39 41 0 0 0
M  V30 BEGIN ATOM
M  V30 1 N -2.11115 -2.8232 -0.105125 0
M  V30 2 C -2.96892 -1.92878 -0.682171 0
M  V30 3 C -2.27041 -0.788044 -1.44845 0
M  V30 4 N -1.47035 -0.0979575 -0.517495 0
M  V30 5 C -0.293434 -0.798951 0.0171686 0
M  V30 6 C 0.820726 0.270848 0.00471894 0 CFG=1
M  V30 7 N 0.423546 1.34866 0.88627 0
M  V30 8 C -0.831073 1.97882 0.616459 0
M  V30 9 C -1.77238 1.22573 -0.0948274 0
M  V30 10 C -3.00708 1.75966 -0.393056 0
M  V30 11 C -3.28069 3.04522 0.0260711 0
M  V30 12 C -2.35587 3.78505 0.723604 0
M  V30 13 C -1.12676 3.24701 1.01855 0
M  V30 14 C 2.12334 -0.305149 0.315336 0
M  V30 15 C 2.41219 -0.708591 1.59483 0
M  V30 16 C 3.65772 -1.25064 1.91808 0
M  V30 17 N 4.60007 -1.37995 0.945871 0
M  V30 18 C 4.35354 -0.997817 -0.309514 0
M  V30 19 C 3.12206 -0.46183 -0.630401 0
M  V30 20 N 5.36453 -1.14239 -1.29786 0
M  V30 21 H -2.29397 -3.03837 0.836443 0
M  V30 22 H -1.56315 -3.45655 -0.598014 0
M  V30 23 H -3.66554 -2.48363 -1.36083 0
M  V30 24 H -3.6182 -1.45766 0.0931424 0
M  V30 25 H -1.63249 -1.34348 -2.21552 0
M  V30 26 H -3.02661 -0.295174 -2.01383 0
M  V30 27 H -0.442615 -1.19176 1.02029 0
M  V30 28 H 0.0287359 -1.5272 -0.746845 0
M  V30 29 H 0.819765 0.667415 -1.0287 0
M  V30 30 H 0.97918 1.69396 1.69319 0
M  V30 31 H -3.73227 1.16685 -0.940037 0
M  V30 32 H -4.27296 3.42139 -0.23521 0
M  V30 33 H -2.58811 4.78687 1.04116 0
M  V30 34 H -0.356694 3.77811 1.56329 0
M  V30 35 H 1.68776 -0.620978 2.3843 0
M  V30 36 H 3.90976 -1.57641 2.9186 0
M  V30 37 H 2.90061 -0.147106 -1.628 0
M  V30 38 H 5.36592 -0.462486 -2.11807 0
M  V30 39 H 6.11126 -1.89147 -1.25342 0
M  V30 END ATOM
M  V30 BEGIN BOND
M  V30 1 1 1 2
M  V30 2 1 2 3
M  V30 3 1 3 4
M  V30 4 1 4 5
M  V30 5 1 5 6
M  V30 6 1 6 7
M  V30 7 1 7 8
M  V30 8 2 8 9
M  V30 9 1 9 10
M  V30 10 2 10 11
M  V30 11 1 11 12
M  V30 12 2 12 13
M  V30 13 1 6 14
M  V30 14 2 14 15
M  V30 15 1 15 16
M  V30 16 2 16 17
M  V30 17 1 17 18
M  V30 18 2 18 19
M  V30 19 1 18 20
M  V30 20 1 9 4
M  V30 21 1 19 14
M  V30 22 1 13 8
M  V30 23 1 1 21
M  V30 24 1 1 22
M  V30 25 1 2 23
M  V30 26 1 2 24
M  V30 27 1 3 25
M  V30 28 1 3 26
M  V30 29 1 5 27
M  V30 30 1 5 28
M  V30 31 1 6 29 CFG=3
M  V30 32 1 7 30
M  V30 33 1 10 31
M  V30 34 1 11 32
M  V30 35 1 12 33
M  V30 36 1 13 34
M  V30 37 1 15 35
M  V30 38 1 16 36
M  V30 39 1 19 37
M  V30 40 1 20 38
M  V30 41 1 20 39
M  V30 END BOND
M  V30 END CTAB
M  END
