
     RDKit          3D

  0  0  0  0  0  0  0  0  0  0999 V3000
M  V30 BEGIN CTAB
M  V30 COUNTS 54 56 0 0 0
M  V30 BEGIN ATOM
M  V30 1 N -10.1492 -0.164899 2.86108 0
M  V30 2 C -8.77516 -0.0555429 2.45309 0
M  V30 3 N -8.23407 -0.946126 1.60604 0
M  V30 4 C -6.96944 -0.895817 1.20542 0
M  V30 5 C -6.13399 0.113391 1.66279 0
M  V30 6 N -4.86328 0.18471 1.29187 0
M  V30 7 C -4.2976 -0.719953 0.442748 0
M  V30 8 C -2.89337 -0.67057 0.0612754 0
M  V30 9 C -2.57842 0.151486 -1.18053 0
M  V30 10 C -1.07427 0.0750429 -1.37178 0
M  V30 11 C -0.338294 1.03874 -0.761787 0
M  V30 12 C 1.06089 0.973616 -0.856597 0
M  V30 13 C 1.67126 -0.0356016 -1.54547 0
M  V30 14 C 0.90557 -0.993262 -2.15447 0
M  V30 15 C -0.497543 -0.946726 -2.07263 0
M  V30 16 C 3.11885 -0.118021 -1.57246 0
M  V30 17 O 3.62029 -1.25328 -1.78892 0
M  V30 18 N 3.97015 0.988124 -1.36309 0
M  V30 19 C 5.4103 0.818973 -1.36407 0
M  V30 20 C 5.74413 0.0417725 -0.162134 0
M  V30 21 C 7.1214 -0.316396 0.147158 0
M  V30 22 C 7.42634 -1.57171 0.27345 0
M  V30 23 C 8.18871 0.686183 0.320051 0
M  V30 24 O 9.47823 0.272474 0.610203 0
M  V30 25 O 8.0116 1.92138 0.220773 0
M  V30 26 C 5.83181 0.291291 -2.66676 0
M  V30 27 O 7.17681 -0.0727277 -2.87378 0
M  V30 28 O 5.02971 0.145393 -3.63209 0
M  V30 29 C -5.12931 -1.73515 -0.0219471 0
M  V30 30 N -6.4061 -1.78295 0.368531 0
M  V30 31 C -6.68959 1.03222 2.53403 0
M  V30 32 N -5.92567 2.10553 3.05539 0
M  V30 33 N -7.97857 0.933956 2.90863 0
M  V30 34 H -10.439 0.324802 3.72773 0
M  V30 35 H -10.8061 -0.730877 2.27359 0
M  V30 36 H -2.3125 -0.2617 0.925247 0
M  V30 37 H -2.52735 -1.72099 -0.0634827 0
M  V30 38 H -2.88415 1.18484 -0.989881 0
M  V30 39 H -3.06566 -0.292882 -2.05545 0
M  V30 40 H -0.80121 1.84926 -0.207155 0
M  V30 41 H 1.58962 1.7662 -0.351586 0
M  V30 42 H 1.32979 -1.80139 -2.70821 0
M  V30 43 H -1.10858 -1.69044 -2.54623 0
M  V30 44 H 3.52486 1.93565 -1.20911 0
M  V30 45 H 5.78829 1.90146 -1.26707 0
M  V30 46 H 5.07391 -0.833097 -0.0327188 0
M  V30 47 H 5.4248 0.708409 0.727144 0
M  V30 48 H 8.29378 -2.12433 0.489997 0
M  V30 49 H 6.53557 -2.26334 0.112421 0
M  V30 50 H 9.66763 -0.464816 1.27725 0
M  V30 51 H 7.79414 0.468433 -3.46331 0
M  V30 52 H -4.67904 -2.44881 -0.695601 0
M  V30 53 H -6.32175 2.86378 3.6363 0
M  V30 54 H -4.90924 2.13428 2.84394 0
M  V30 END ATOM
M  V30 BEGIN BOND
M  V30 1 1 1 2
M  V30 2 2 2 3
M  V30 3 1 3 4
M  V30 4 2 4 5
M  V30 5 1 5 6
M  V30 6 2 6 7
M  V30 7 1 7 8
M  V30 8 1 8 9
M  V30 9 1 9 10
M  V30 10 2 10 11
M  V30 11 1 11 12
M  V30 12 2 12 13
M  V30 13 1 13 14
M  V30 14 2 14 15
M  V30 15 1 13 16
M  V30 16 2 16 17
M  V30 17 1 16 18
M  V30 18 1 18 19
M  V30 19 1 19 20
M  V30 20 1 20 21
M  V30 21 2 21 22 CFG=2
M  V30 22 1 21 23
M  V30 23 1 23 24
M  V30 24 2 23 25
M  V30 25 1 19 26
M  V30 26 1 26 27
M  V30 27 2 26 28
M  V30 28 1 7 29
M  V30 29 2 29 30
M  V30 30 1 5 31
M  V30 31 1 31 32
M  V30 32 2 31 33
M  V30 33 1 33 2
M  V30 34 1 30 4
M  V30 35 1 15 10
M  V30 36 1 1 34
M  V30 37 1 1 35
M  V30 38 1 8 36
M  V30 39 1 8 37
M  V30 40 1 9 38
M  V30 41 1 9 39
M  V30 42 1 11 40
M  V30 43 1 12 41
M  V30 44 1 14 42
M  V30 45 1 15 43
M  V30 46 1 18 44
M  V30 47 1 19 45
M  V30 48 1 20 46
M  V30 49 1 20 47
M  V30 50 1 22 48
M  V30 51 1 22 49
M  V30 52 1 24 50
M  V30 53 1 27 51
M  V30 54 1 29 52
M  V30 55 1 32 53
M  V30 56 1 32 54
M  V30 END BOND
M  V30 END CTAB
M  END
