
     RDKit          3D

  0  0  0  0  0  0  0  0  0  0999 V3000
M  V30 BEGIN CTAB
M  V30 COUNTS 16 16 0 0 0
M  V30 BEGIN ATOM
M  V30 1 Cl -0.748799 3.48719 -0.114586 0
M  V30 2 C -0.380421 1.77676 -0.0596124 0
M  V30 3 C -1.40937 0.862553 -0.013214 0
M  V30 4 C -1.13961 -0.498862 0.0309206 0
M  V30 5 N -2.20033 -1.44509 0.0788883 0
M  V30 6 C 0.19423 -0.899659 0.0265328 0
M  V30 7 C 1.24732 -0.010078 -0.0193356 0
M  V30 8 C 0.912283 1.33487 -0.0619814 0
M  V30 9 N 2.60885 -0.399752 -0.0244977 0
M  V30 10 Br 0.589638 -2.76917 0.0867955 0
M  V30 11 H -2.45556 1.1693 -0.00950083 0
M  V30 12 H -2.05148 -2.34604 0.54616 0
M  V30 13 H -3.10053 -1.2088 -0.356973 0
M  V30 14 H 1.70188 2.08074 -0.0991625 0
M  V30 15 H 2.89775 -1.15738 0.622128 0
M  V30 16 H 3.33415 0.0234157 -0.632562 0
M  V30 END ATOM
M  V30 BEGIN BOND
M  V30 1 1 1 2
M  V30 2 2 2 3
M  V30 3 1 3 4
M  V30 4 1 4 5
M  V30 5 2 4 6
M  V30 6 1 6 7
M  V30 7 2 7 8
M  V30 8 1 7 9
M  V30 9 1 6 10
M  V30 10 1 8 2
M  V30 11 1 3 11
M  V30 12 1 5 12
M  V30 13 1 5 13
M  V30 14 1 8 14
M  V30 15 1 9 15
M  V30 16 1 9 16
M  V30 END BOND
M  V30 END CTAB
M  END
