
     RDKit          3D

  0  0  0  0  0  0  0  0  0  0999 V3000
M  V30 BEGIN CTAB
M  V30 COUNTS 30 30 0 0 0
M  V30 BEGIN ATOM
M  V30 1 N -1.05081 2.37846 -1.37047 0
M  V30 2 C -1.29233 1.72666 -0.132218 0
M  V30 3 N -1.71395 2.44906 0.844614 0
M  V30 4 C -1.08755 0.296726 0.0815523 0
M  V30 5 C -1.89497 -0.539809 -0.886023 0
M  V30 6 C -1.98259 -1.9358 -0.317655 0
M  V30 7 C -0.585713 -2.48823 -0.192617 0
M  V30 8 C 0.352714 -1.58725 0.531997 0
M  V30 9 C 0.349924 -0.159181 -0.00311287 0
M  V30 10 N 1.12379 0.631434 0.889401 0
M  V30 11 S 2.46755 1.43458 0.274582 0
M  V30 12 O 2.77245 2.72329 0.997938 0
M  V30 13 O 2.41625 1.76211 -1.18459 0
M  V30 14 N 3.86413 0.401205 0.48859 0
M  V30 15 H -1.30391 1.8898 -2.23399 0
M  V30 16 H -0.61732 3.3466 -1.3498 0
M  V30 17 H -1.92668 2.09251 1.79673 0
M  V30 18 H -1.41613 0.0110334 1.11624 0
M  V30 19 H -2.92241 -0.0844908 -0.932286 0
M  V30 20 H -1.42164 -0.581524 -1.89522 0
M  V30 21 H -2.50617 -1.88521 0.659346 0
M  V30 22 H -2.53336 -2.61717 -1.02195 0
M  V30 23 H -0.661726 -3.43081 0.382788 0
M  V30 24 H -0.20733 -2.70854 -1.19325 0
M  V30 25 H 1.36542 -2.03765 0.475272 0
M  V30 26 H 0.120012 -1.50733 1.619 0
M  V30 27 H 0.692786 -0.155806 -1.05409 0
M  V30 28 H 1.33993 0.131502 1.75392 0
M  V30 29 H 4.65484 0.91452 0.896057 0
M  V30 30 H 3.60479 -0.47068 0.959239 0
M  V30 END ATOM
M  V30 BEGIN BOND
M  V30 1 1 1 2
M  V30 2 2 2 3 CFG=2
M  V30 3 1 2 4
M  V30 4 1 4 5
M  V30 5 1 5 6
M  V30 6 1 6 7
M  V30 7 1 7 8
M  V30 8 1 8 9
M  V30 9 1 9 10
M  V30 10 1 10 11
M  V30 11 2 11 12
M  V30 12 2 11 13
M  V30 13 1 11 14
M  V30 14 1 9 4
M  V30 15 1 1 15
M  V30 16 1 1 16
M  V30 17 1 3 17
M  V30 18 1 4 18
M  V30 19 1 5 19
M  V30 20 1 5 20
M  V30 21 1 6 21
M  V30 22 1 6 22
M  V30 23 1 7 23
M  V30 24 1 7 24
M  V30 25 1 8 25
M  V30 26 1 8 26
M  V30 27 1 9 27
M  V30 28 1 10 28
M  V30 29 1 14 29
M  V30 30 1 14 30
M  V30 END BOND
M  V30 END CTAB
M  END
