
     RDKit          3D

  0  0  0  0  0  0  0  0  0  0999 V3000
M  V30 BEGIN CTAB
M  V30 COUNTS 31 31 0 0 0
M  V30 BEGIN ATOM
M  V30 1 C 3.2715 -0.131393 1.20509 0
M  V30 2 C 1.82798 -0.398344 0.957955 0
M  V30 3 C 1.53608 -0.205153 -0.558498 0 CFG=1
M  V30 4 C 0.123391 -0.53193 -0.818312 0
M  V30 5 C -0.998288 0.154972 -0.235998 0
M  V30 6 C -2.1487 -0.617291 0.102764 0
M  V30 7 C -2.01704 -2.1167 -0.0113818 0
M  V30 8 C -3.29299 -0.0601106 0.573262 0
M  V30 9 C -3.3857 1.29627 0.745617 0
M  V30 10 N -2.33141 2.0362 0.436157 0
M  V30 11 C -1.17591 1.48353 -0.0401851 0
M  V30 12 N -0.202628 2.49577 -0.380779 0
M  V30 13 O -0.0190057 -0.504324 -2.25405 0
M  V30 14 N 2.15351 0.950172 -0.991289 0
M  V30 15 H 3.62102 -0.835323 2.02521 0
M  V30 16 H 3.90459 -0.385888 0.345271 0
M  V30 17 H 3.49855 0.862405 1.60666 0
M  V30 18 H 1.19285 0.274486 1.53959 0
M  V30 19 H 1.53033 -1.43629 1.19453 0
M  V30 20 H 2.13758 -1.07144 -0.997366 0
M  V30 21 H 0.00171826 -1.6646 -0.635978 0
M  V30 22 H -1.19411 -2.4841 0.658256 0
M  V30 23 H -1.95144 -2.48975 -1.0265 0
M  V30 24 H -2.9336 -2.57244 0.457674 0
M  V30 25 H -4.15368 -0.675173 0.824514 0
M  V30 26 H -4.32558 1.72522 1.11899 0
M  V30 27 H 0.340166 2.84864 0.433847 0
M  V30 28 H -0.0714196 2.84011 -1.35701 0
M  V30 29 H -0.0446521 -1.3811 -2.64575 0
M  V30 30 H 2.37222 1.1226 -1.9652 0
M  V30 31 H 2.73466 1.47098 -0.30708 0
M  V30 END ATOM
M  V30 BEGIN BOND
M  V30 1 1 1 2
M  V30 2 1 2 3
M  V30 3 1 3 4
M  V30 4 1 4 5
M  V30 5 2 5 6
M  V30 6 1 6 7
M  V30 7 1 6 8
M  V30 8 2 8 9
M  V30 9 1 9 10
M  V30 10 2 10 11
M  V30 11 1 11 12
M  V30 12 1 4 13
M  V30 13 1 3 14
M  V30 14 1 11 5
M  V30 15 1 1 15
M  V30 16 1 1 16
M  V30 17 1 1 17
M  V30 18 1 2 18
M  V30 19 1 2 19
M  V30 20 1 3 20 CFG=3
M  V30 21 1 4 21
M  V30 22 1 7 22
M  V30 23 1 7 23
M  V30 24 1 7 24
M  V30 25 1 8 25
M  V30 26 1 9 26
M  V30 27 1 12 27
M  V30 28 1 12 28
M  V30 29 1 13 29
M  V30 30 1 14 30
M  V30 31 1 14 31
M  V30 END BOND
M  V30 END CTAB
M  END
