
     RDKit          3D

  0  0  0  0  0  0  0  0  0  0999 V3000
M  V30 BEGIN CTAB
M  V30 COUNTS 22 23 0 0 0
M  V30 BEGIN ATOM
M  V30 1 N 4.15177 0.252487 0.291324 0
M  V30 2 C 2.9217 -0.287994 -0.176859 0
M  V30 3 N 2.7225 -1.31274 -1.02203 0
M  V30 4 C 1.40044 -1.46584 -1.17406 0
M  V30 5 C 0.770454 -0.509546 -0.401616 0
M  V30 6 O 1.74838 0.152571 0.1614 0
M  V30 7 C -0.657399 -0.270704 -0.23403 0
M  V30 8 C -1.61382 -1.02896 -0.875473 0
M  V30 9 C -2.96737 -0.739598 -0.6651 0
M  V30 10 C -3.38345 0.281318 0.16443 0
M  V30 11 C -2.40371 1.02303 0.792766 0
M  V30 12 C -1.05416 0.752738 0.597957 0
M  V30 13 N -0.0882949 1.55089 1.27232 0
M  V30 14 H 5.00948 -0.32665 0.37422 0
M  V30 15 H 4.20291 1.25359 0.560117 0
M  V30 16 H 0.874248 -2.19247 -1.78105 0
M  V30 17 H -1.29781 -1.83318 -1.52916 0
M  V30 18 H -3.71605 -1.33215 -1.16642 0
M  V30 19 H -4.4504 0.480164 0.306258 0
M  V30 20 H -2.74287 1.8291 1.44751 0
M  V30 21 H 0.0707486 1.48446 2.30167 0
M  V30 22 H 0.502714 2.23949 0.75582 0
M  V30 END ATOM
M  V30 BEGIN BOND
M  V30 1 1 1 2
M  V30 2 2 2 3
M  V30 3 1 3 4
M  V30 4 2 4 5
M  V30 5 1 5 6
M  V30 6 1 5 7
M  V30 7 2 7 8
M  V30 8 1 8 9
M  V30 9 2 9 10
M  V30 10 1 10 11
M  V30 11 2 11 12
M  V30 12 1 12 13
M  V30 13 1 6 2
M  V30 14 1 12 7
M  V30 15 1 1 14
M  V30 16 1 1 15
M  V30 17 1 4 16
M  V30 18 1 8 17
M  V30 19 1 9 18
M  V30 20 1 10 19
M  V30 21 1 11 20
M  V30 22 1 13 21
M  V30 23 1 13 22
M  V30 END BOND
M  V30 END CTAB
M  END
