
     RDKit          3D

  0  0  0  0  0  0  0  0  0  0999 V3000
M  V30 BEGIN CTAB
M  V30 COUNTS 30 31 0 0 0
M  V30 BEGIN ATOM
M  V30 1 N -2.33726 -3.17696 -0.799945 0
M  V30 2 N -2.95282 -1.95669 -0.627746 0
M  V30 3 C -2.14949 -0.798744 -0.373987 0
M  V30 4 N -0.825353 -0.865734 -0.299514 0
M  V30 5 C -0.0216775 0.184418 -0.0644746 0
M  V30 6 N -0.588126 1.38854 0.108237 0
M  V30 7 C -1.94063 1.49355 0.0385373 0
M  V30 8 N -2.54954 2.76998 0.221049 0
M  V30 9 N -3.92727 2.85963 0.147071 0
M  V30 10 N -2.70564 0.413523 -0.199188 0
M  V30 11 N 1.41354 0.0315396 0.00225006 0
M  V30 12 C 2.22936 1.18829 0.256834 0
M  V30 13 C 3.66379 0.81623 -0.0332696 0
M  V30 14 O 3.97658 -0.319763 0.681289 0
M  V30 15 C 3.353 -1.46222 0.222768 0
M  V30 16 C 1.93991 -1.27888 -0.191814 0
M  V30 17 H -1.50013 -3.09807 -1.41455 0
M  V30 18 H -3.01831 -3.87857 -1.13679 0
M  V30 19 H -3.98248 -1.83547 -0.673711 0
M  V30 20 H -1.96475 3.60906 0.405075 0
M  V30 21 H -4.3329 1.97153 0.463532 0
M  V30 22 H -4.2854 3.63319 0.729842 0
M  V30 23 H 1.94301 2.00102 -0.442699 0
M  V30 24 H 2.09523 1.59872 1.28077 0
M  V30 25 H 3.81745 0.735625 -1.11669 0
M  V30 26 H 4.30638 1.63692 0.354256 0
M  V30 27 H 3.38494 -2.21661 1.04004 0
M  V30 28 H 3.92039 -1.91344 -0.62977 0
M  V30 29 H 1.24753 -1.99308 0.344919 0
M  V30 30 H 1.79065 -1.53753 -1.28176 0
M  V30 END ATOM
M  V30 BEGIN BOND
M  V30 1 1 1 2
M  V30 2 1 2 3
M  V30 3 2 3 4
M  V30 4 1 4 5
M  V30 5 2 5 6
M  V30 6 1 6 7
M  V30 7 1 7 8
M  V30 8 1 8 9
M  V30 9 2 7 10
M  V30 10 1 5 11
M  V30 11 1 11 12
M  V30 12 1 12 13
M  V30 13 1 13 14
M  V30 14 1 14 15
M  V30 15 1 15 16
M  V30 16 1 10 3
M  V30 17 1 16 11
M  V30 18 1 1 17
M  V30 19 1 1 18
M  V30 20 1 2 19
M  V30 21 1 8 20
M  V30 22 1 9 21
M  V30 23 1 9 22
M  V30 24 1 12 23
M  V30 25 1 12 24
M  V30 26 1 13 25
M  V30 27 1 13 26
M  V30 28 1 15 27
M  V30 29 1 15 28
M  V30 30 1 16 29
M  V30 31 1 16 30
M  V30 END BOND
M  V30 END CTAB
M  END
