
     RDKit          3D

  0  0  0  0  0  0  0  0  0  0999 V3000
M  V30 BEGIN CTAB
M  V30 COUNTS 36 38 0 0 0
M  V30 BEGIN ATOM
M  V30 1 N 4.34551 -0.951726 -2.44745 0
M  V30 2 C 4.16831 -0.0771441 -1.32551 0
M  V30 3 C 5.17766 0.743278 -0.943412 0
M  V30 4 C 5.00643 1.59163 0.144511 0
M  V30 5 C 3.81691 1.60408 0.837361 0
M  V30 6 C 2.80789 0.762441 0.430318 0
M  V30 7 C 2.97893 -0.0757359 -0.645617 0
M  V30 8 N 1.93687 -0.945572 -1.06673 0
M  V30 9 C 0.697104 -0.951323 -0.366481 0
M  V30 10 C 0.18792 -1.6478 0.705515 0
M  V30 11 O 0.663382 -2.64207 1.563 0
M  V30 12 C -1.0184 -0.982989 0.629315 0
M  V30 13 N -2.1542 -0.986353 1.26873 0
M  V30 14 C -3.18516 -0.123752 0.870889 0
M  V30 15 C -4.3742 -0.544564 0.3158 0
M  V30 16 N -4.58966 -1.93079 0.126149 0
M  V30 17 C -5.36476 0.338549 -0.0627652 0
M  V30 18 C -5.17136 1.7028 0.115618 0
M  V30 19 C -3.98561 2.16114 0.6718 0
M  V30 20 C -3.0293 1.24273 1.0328 0
M  V30 21 C -0.496589 -0.276555 -0.460998 0
M  V30 22 O -0.975239 0.621777 -1.20829 0
M  V30 23 H 5.0804 -1.68675 -2.40172 0
M  V30 24 H 3.77095 -0.879243 -3.2991 0
M  V30 25 H 6.12218 0.755163 -1.46816 0
M  V30 26 H 5.8181 2.2543 0.455184 0
M  V30 27 H 3.66318 2.26936 1.7016 0
M  V30 28 H 1.86428 0.767254 0.97403 0
M  V30 29 H 2.11953 -1.56255 -1.89108 0
M  V30 30 H 1.58864 -3.0317 1.4855 0
M  V30 31 H -4.18069 -2.60544 0.788071 0
M  V30 32 H -5.15777 -2.26072 -0.677604 0
M  V30 33 H -6.30486 0.0368595 -0.499525 0
M  V30 34 H -5.91735 2.44004 -0.164571 0
M  V30 35 H -3.81037 3.2377 0.82258 0
M  V30 36 H -2.09869 1.63369 1.47142 0
M  V30 END ATOM
M  V30 BEGIN BOND
M  V30 1 1 1 2
M  V30 2 2 2 3
M  V30 3 1 3 4
M  V30 4 2 4 5
M  V30 5 1 5 6
M  V30 6 2 6 7
M  V30 7 1 7 8
M  V30 8 1 8 9
M  V30 9 2 9 10
M  V30 10 1 10 11
M  V30 11 1 10 12
M  V30 12 2 12 13 CFG=2
M  V30 13 1 13 14
M  V30 14 2 14 15
M  V30 15 1 15 16
M  V30 16 1 15 17
M  V30 17 2 17 18
M  V30 18 1 18 19
M  V30 19 2 19 20
M  V30 20 1 12 21
M  V30 21 2 21 22
M  V30 22 1 7 2
M  V30 23 1 21 9
M  V30 24 1 20 14
M  V30 25 1 1 23
M  V30 26 1 1 24
M  V30 27 1 3 25
M  V30 28 1 4 26
M  V30 29 1 5 27
M  V30 30 1 6 28
M  V30 31 1 8 29
M  V30 32 1 11 30
M  V30 33 1 16 31
M  V30 34 1 16 32
M  V30 35 1 17 33
M  V30 36 1 18 34
M  V30 37 1 19 35
M  V30 38 1 20 36
M  V30 END BOND
M  V30 END CTAB
M  END
