
     RDKit          3D

  0  0  0  0  0  0  0  0  0  0999 V3000
M  V30 BEGIN CTAB
M  V30 COUNTS 38 38 0 0 0
M  V30 BEGIN ATOM
M  V30 1 N -4.75947 0.798999 -1.21825 0
M  V30 2 C -3.37671 1.01521 -0.798093 0
M  V30 3 C -3.03963 0.147454 0.391926 0
M  V30 4 N -1.70418 0.311563 0.851515 0
M  V30 5 C -0.603384 0.00545913 0.00282938 0
M  V30 6 O -0.760532 -0.419671 -1.17113 0
M  V30 7 C 0.803257 0.171527 0.45762 0
M  V30 8 C 1.72548 -0.233604 -0.660295 0
M  V30 9 C 3.13543 -0.0844556 -0.252551 0
M  V30 10 C 3.67534 -0.972439 0.639433 0
M  V30 11 C 5.00119 -0.849599 1.03586 0
M  V30 12 C 5.77401 0.171491 0.527458 0
M  V30 13 C 5.25376 1.0794 -0.372725 0
M  V30 14 C 3.94301 0.922543 -0.737066 0
M  V30 15 N 1.41579 -1.6319 -0.970756 0
M  V30 16 C -4.06655 0.493068 1.46928 0
M  V30 17 C -3.25894 -1.32262 0.072828 0
M  V30 18 H -5.36229 1.28398 -0.533545 0
M  V30 19 H -4.86758 1.2576 -2.13658 0
M  V30 20 H -2.70165 0.949227 -1.64141 0
M  V30 21 H -3.34889 2.09286 -0.458656 0
M  V30 22 H -1.47148 0.659305 1.81919 0
M  V30 23 H 0.90524 1.26488 0.703146 0
M  V30 24 H 1.00612 -0.395249 1.38232 0
M  V30 25 H 1.5829 0.350914 -1.57739 0
M  V30 26 H 3.09635 -1.7755 1.05041 0
M  V30 27 H 5.42433 -1.56037 1.74647 0
M  V30 28 H 6.79468 0.276529 0.824471 0
M  V30 29 H 5.86113 1.87431 -0.766378 0
M  V30 30 H 3.55373 1.65896 -1.45509 0
M  V30 31 H 1.15836 -1.73744 -1.97744 0
M  V30 32 H 2.1983 -2.27138 -0.710107 0
M  V30 33 H -3.85871 -0.09251 2.40648 0
M  V30 34 H -4.13981 1.57 1.64042 0
M  V30 35 H -5.04057 0.104124 1.0999 0
M  V30 36 H -2.60734 -1.97555 0.6885 0
M  V30 37 H -3.02417 -1.51194 -1.00492 0
M  V30 38 H -4.31651 -1.62516 0.27576 0
M  V30 END ATOM
M  V30 BEGIN BOND
M  V30 1 1 1 2
M  V30 2 1 2 3
M  V30 3 1 3 4
M  V30 4 1 4 5
M  V30 5 2 5 6
M  V30 6 1 5 7
M  V30 7 1 7 8
M  V30 8 1 8 9
M  V30 9 2 9 10
M  V30 10 1 10 11
M  V30 11 2 11 12
M  V30 12 1 12 13
M  V30 13 2 13 14
M  V30 14 1 8 15
M  V30 15 1 3 16
M  V30 16 1 3 17
M  V30 17 1 14 9
M  V30 18 1 1 18
M  V30 19 1 1 19
M  V30 20 1 2 20
M  V30 21 1 2 21
M  V30 22 1 4 22
M  V30 23 1 7 23
M  V30 24 1 7 24
M  V30 25 1 8 25
M  V30 26 1 10 26
M  V30 27 1 11 27
M  V30 28 1 12 28
M  V30 29 1 13 29
M  V30 30 1 14 30
M  V30 31 1 15 31
M  V30 32 1 15 32
M  V30 33 1 16 33
M  V30 34 1 16 34
M  V30 35 1 16 35
M  V30 36 1 17 36
M  V30 37 1 17 37
M  V30 38 1 17 38
M  V30 END BOND
M  V30 END CTAB
M  END
