
     RDKit          3D

  0  0  0  0  0  0  0  0  0  0999 V3000
M  V30 BEGIN CTAB
M  V30 COUNTS 40 40 0 0 0
M  V30 BEGIN ATOM
M  V30 1 C 5.34864 0.799043 1.16819 0
M  V30 2 C 3.84176 0.6753 1.1044 0
M  V30 3 C 3.48621 -0.772444 0.929397 0
M  V30 4 C 2.00031 -1.00646 0.85338 0
M  V30 5 C 1.35488 -0.279603 -0.294923 0
M  V30 6 N -0.0688969 -0.584076 -0.262362 0
M  V30 7 C -1.06856 0.38516 -0.125988 0
M  V30 8 O -0.737158 1.58533 -0.0249732 0
M  V30 9 C -2.4597 0.0223133 -0.100865 0
M  V30 10 C -2.93965 -1.26229 -0.20478 0
M  V30 11 C -4.31161 -1.52793 -0.1716 0
M  V30 12 C -5.18053 -0.467158 -0.0314998 0
M  V30 13 C -4.73497 0.837044 0.0757495 0
M  V30 14 C -3.38386 1.06164 0.0394941 0
M  V30 15 N -2.9522 2.41165 0.151503 0
M  V30 16 N -5.67104 1.92341 0.220399 0 CHG=1
M  V30 17 O -5.38511 2.93262 0.857602 0
M  V30 18 O -6.89918 1.82435 -0.36491 0 CHG=-1
M  V30 19 C 1.9335 -0.655244 -1.6238 0
M  V30 20 N 1.79858 -2.05529 -1.92738 0
M  V30 21 H 5.8264 -0.190865 1.02041 0
M  V30 22 H 5.74089 1.52562 0.396864 0
M  V30 23 H 5.70432 1.18787 2.14163 0
M  V30 24 H 3.45337 1.09832 2.0575 0
M  V30 25 H 3.50234 1.30856 0.258921 0
M  V30 26 H 3.83668 -1.29839 1.8597 0
M  V30 27 H 4.0386 -1.19411 0.0895586 0
M  V30 28 H 1.84469 -2.09364 0.69423 0
M  V30 29 H 1.5441 -0.733542 1.805 0
M  V30 30 H 1.43097 0.825482 -0.192361 0
M  V30 31 H -0.312107 -1.58345 -0.348197 0
M  V30 32 H -2.22163 -2.05535 -0.312797 0
M  V30 33 H -4.64123 -2.56092 -0.25715 0
M  V30 34 H -6.24648 -0.65652 -0.00402657 0
M  V30 35 H -2.95892 3.08578 -0.649419 0
M  V30 36 H -2.6104 2.73736 1.09442 0
M  V30 37 H 2.99915 -0.384507 -1.69613 0
M  V30 38 H 1.32617 -0.107996 -2.40279 0
M  V30 39 H 1.05934 -2.25421 -2.63424 0
M  V30 40 H 2.71234 -2.50287 -2.15911 0
M  V30 END ATOM
M  V30 BEGIN BOND
M  V30 1 1 1 2
M  V30 2 1 2 3
M  V30 3 1 3 4
M  V30 4 1 4 5
M  V30 5 1 5 6
M  V30 6 1 6 7
M  V30 7 2 7 8
M  V30 8 1 7 9
M  V30 9 2 9 10
M  V30 10 1 10 11
M  V30 11 2 11 12
M  V30 12 1 12 13
M  V30 13 2 13 14
M  V30 14 1 14 15
M  V30 15 1 13 16
M  V30 16 2 16 17
M  V30 17 1 16 18
M  V30 18 1 5 19
M  V30 19 1 19 20
M  V30 20 1 14 9
M  V30 21 1 1 21
M  V30 22 1 1 22
M  V30 23 1 1 23
M  V30 24 1 2 24
M  V30 25 1 2 25
M  V30 26 1 3 26
M  V30 27 1 3 27
M  V30 28 1 4 28
M  V30 29 1 4 29
M  V30 30 1 5 30
M  V30 31 1 6 31
M  V30 32 1 10 32
M  V30 33 1 11 33
M  V30 34 1 12 34
M  V30 35 1 15 35
M  V30 36 1 15 36
M  V30 37 1 19 37
M  V30 38 1 19 38
M  V30 39 1 20 39
M  V30 40 1 20 40
M  V30 END BOND
M  V30 END CTAB
M  END
