
     RDKit          3D

  0  0  0  0  0  0  0  0  0  0999 V3000
M  V30 BEGIN CTAB
M  V30 COUNTS 30 30 0 0 0
M  V30 BEGIN ATOM
M  V30 1 N 3.80934 0.682053 0.0463922 0
M  V30 2 C 2.46829 0.503196 -0.492375 0
M  V30 3 C 1.71642 -0.444161 0.385569 0
M  V30 4 N 0.392228 -0.699932 -0.0364971 0
M  V30 5 C -0.3051 -1.6212 0.811945 0
M  V30 6 C -1.45539 -2.19027 -0.0317057 0
M  V30 7 C -2.39222 -1.02101 -0.254693 0
M  V30 8 C -1.6522 -0.0496051 -1.15587 0
M  V30 9 C -0.366756 0.38869 -0.518758 0
M  V30 10 C -0.696358 1.42712 0.523017 0
M  V30 11 N -1.47838 2.50778 -0.0656205 0
M  V30 12 H 3.83081 1.5343 0.652328 0
M  V30 13 H 4.08068 -0.120149 0.656673 0
M  V30 14 H 2.01765 1.50871 -0.551504 0
M  V30 15 H 2.50129 0.0502474 -1.51587 0
M  V30 16 H 2.2911 -1.41648 0.369773 0
M  V30 17 H 1.78798 -0.116481 1.46171 0
M  V30 18 H -0.736179 -1.20286 1.71268 0
M  V30 19 H 0.401901 -2.42973 1.08859 0
M  V30 20 H -1.93972 -3.03725 0.465187 0
M  V30 21 H -1.03624 -2.51043 -1.01074 0
M  V30 22 H -2.54309 -0.544294 0.734325 0
M  V30 23 H -3.35541 -1.33725 -0.69844 0
M  V30 24 H -1.46098 -0.549137 -2.12852 0
M  V30 25 H -2.34168 0.815987 -1.30281 0
M  V30 26 H 0.223398 0.907012 -1.30982 0
M  V30 27 H 0.221483 1.77454 1.00517 0
M  V30 28 H -1.3545 0.9952 1.3246 0
M  V30 29 H -0.93756 2.98057 -0.829212 0
M  V30 30 H -1.69081 3.21483 0.664487 0
M  V30 END ATOM
M  V30 BEGIN BOND
M  V30 1 1 1 2
M  V30 2 1 2 3
M  V30 3 1 3 4
M  V30 4 1 4 5
M  V30 5 1 5 6
M  V30 6 1 6 7
M  V30 7 1 7 8
M  V30 8 1 8 9
M  V30 9 1 9 10
M  V30 10 1 10 11
M  V30 11 1 9 4
M  V30 12 1 1 12
M  V30 13 1 1 13
M  V30 14 1 2 14
M  V30 15 1 2 15
M  V30 16 1 3 16
M  V30 17 1 3 17
M  V30 18 1 5 18
M  V30 19 1 5 19
M  V30 20 1 6 20
M  V30 21 1 6 21
M  V30 22 1 7 22
M  V30 23 1 7 23
M  V30 24 1 8 24
M  V30 25 1 8 25
M  V30 26 1 9 26
M  V30 27 1 10 27
M  V30 28 1 10 28
M  V30 29 1 11 29
M  V30 30 1 11 30
M  V30 END BOND
M  V30 END CTAB
M  END
