
     RDKit          3D

  0  0  0  0  0  0  0  0  0  0999 V3000
M  V30 BEGIN CTAB
M  V30 COUNTS 18 18 0 0 0
M  V30 BEGIN ATOM
M  V30 1 N -2.08396 0.978325 0.254673 0
M  V30 2 C -0.74425 0.552824 0.0876472 0
M  V30 3 C -0.453818 -0.716336 -0.0353329 0
M  V30 4 N -1.47435 -1.70892 -0.00516596 0
M  V30 5 C 0.944804 -1.20855 -0.213259 0
M  V30 6 N 1.93079 -0.243025 0.12258 0
M  V30 7 C 1.64033 1.10421 -0.219549 0
M  V30 8 N 0.289563 1.51956 0.0541415 0
M  V30 9 H -2.66977 0.761939 1.09261 0
M  V30 10 H -2.53889 1.54472 -0.490415 0
M  V30 11 H -2.18682 -1.6676 -0.765579 0
M  V30 12 H -1.46219 -2.41519 0.758658 0
M  V30 13 H 1.05698 -2.11666 0.427105 0
M  V30 14 H 1.0555 -1.50717 -1.27476 0
M  V30 15 H 2.43672 -0.393066 1.00358 0
M  V30 16 H 2.35249 1.76871 0.298624 0
M  V30 17 H 1.81752 1.22598 -1.31887 0
M  V30 18 H 0.0893466 2.52025 0.223319 0
M  V30 END ATOM
M  V30 BEGIN BOND
M  V30 1 1 1 2
M  V30 2 2 2 3
M  V30 3 1 3 4
M  V30 4 1 3 5
M  V30 5 1 5 6
M  V30 6 1 6 7
M  V30 7 1 7 8
M  V30 8 1 8 2
M  V30 9 1 1 9
M  V30 10 1 1 10
M  V30 11 1 4 11
M  V30 12 1 4 12
M  V30 13 1 5 13
M  V30 14 1 5 14
M  V30 15 1 6 15
M  V30 16 1 7 16
M  V30 17 1 7 17
M  V30 18 1 8 18
M  V30 END BOND
M  V30 END CTAB
M  END
