
     RDKit          3D

  0  0  0  0  0  0  0  0  0  0999 V3000
M  V30 BEGIN CTAB
M  V30 COUNTS 23 23 0 0 0
M  V30 BEGIN ATOM
M  V30 1 C -3.25186 0.798587 -0.811599 0
M  V30 2 C -2.40817 -0.406677 -0.454781 0
M  V30 3 C -0.937174 -0.00691864 -0.343479 0 CFG=2
M  V30 4 C -0.17144 -1.26344 0.0135712 0
M  V30 5 C 1.2842 -0.974721 0.145534 0
M  V30 6 N 1.93613 0.184295 -0.00565765 0
M  V30 7 C 3.24146 -0.0401469 0.211397 0
M  V30 8 N 3.34127 -1.34951 0.491899 0
M  V30 9 O 2.15561 -1.90136 0.449087 0
M  V30 10 N 4.30912 0.913611 0.15665 0
M  V30 11 N -0.703721 0.95276 0.656876 0
M  V30 12 H -3.78836 1.12978 0.100689 0
M  V30 13 H -2.65336 1.65115 -1.17627 0
M  V30 14 H -4.01322 0.56191 -1.59288 0
M  V30 15 H -2.73099 -0.825347 0.528775 0
M  V30 16 H -2.51111 -1.16405 -1.23483 0
M  V30 17 H -0.589132 0.378176 -1.31847 0
M  V30 18 H -0.545607 -1.63686 0.98857 0
M  V30 19 H -0.387661 -2.0378 -0.735921 0
M  V30 20 H 4.13239 1.92443 0.175085 0
M  V30 21 H 5.29318 0.592075 0.0965578 0
M  V30 22 H -0.626892 0.650984 1.61534 0
M  V30 23 H -0.374656 1.86907 0.390171 0
M  V30 END ATOM
M  V30 BEGIN BOND
M  V30 1 1 1 2
M  V30 2 1 2 3
M  V30 3 1 3 4
M  V30 4 1 4 5
M  V30 5 2 5 6
M  V30 6 1 6 7
M  V30 7 2 7 8
M  V30 8 1 8 9
M  V30 9 1 7 10
M  V30 10 1 3 11
M  V30 11 1 9 5
M  V30 12 1 1 12
M  V30 13 1 1 13
M  V30 14 1 1 14
M  V30 15 1 2 15
M  V30 16 1 2 16
M  V30 17 1 3 17 CFG=3
M  V30 18 1 4 18
M  V30 19 1 4 19
M  V30 20 1 10 20
M  V30 21 1 10 21
M  V30 22 1 11 22
M  V30 23 1 11 23
M  V30 END BOND
M  V30 END CTAB
M  END
