
     RDKit          3D

  0  0  0  0  0  0  0  0  0  0999 V3000
M  V30 BEGIN CTAB
M  V30 COUNTS 49 50 0 0 0
M  V30 BEGIN ATOM
M  V30 1 C 5.57201 2.06552 -0.919999 0
M  V30 2 C 5.50473 0.554851 -0.897255 0
M  V30 3 O 4.24084 0.081476 -1.23459 0
M  V30 4 C 3.35182 0.353208 -0.227539 0
M  V30 5 C 1.97734 0.94267 -0.631473 0
M  V30 6 C 1.41662 0.0446059 0.439999 0
M  V30 7 C 2.51617 -0.91692 0.108973 0
M  V30 8 C 2.42052 -1.71213 -1.1512 0
M  V30 9 C 3.12625 -1.73194 1.19375 0
M  V30 10 N 1.61024 0.650466 1.75697 0
M  V30 11 C 0.0366621 -0.477803 0.301336 0
M  V30 12 O -0.157585 -1.73282 0.217637 0
M  V30 13 N -1.05667 0.390764 0.26551 0
M  V30 14 C -2.42877 0.0215312 0.176872 0
M  V30 15 C -3.36927 1.01191 -0.0827011 0
M  V30 16 C -4.71923 0.783497 -0.103899 0
M  V30 17 C -5.72509 1.87922 -0.372828 0
M  V30 18 N -5.12413 2.89912 -1.20561 0
M  V30 19 C -5.16863 -0.52291 0.146724 0
M  V30 20 C -4.30079 -1.50672 0.394006 0
M  V30 21 C -2.90536 -1.24688 0.413192 0
M  V30 22 C -4.68651 -2.91028 0.692979 0
M  V30 23 F -5.99619 -3.04894 1.07751 0
M  V30 24 F -3.81046 -3.55781 1.53355 0
M  V30 25 F -4.60004 -3.54797 -0.593261 0
M  V30 26 H 5.83646 2.40533 -1.989 0
M  V30 27 H 6.41468 2.38978 -0.281587 0
M  V30 28 H 4.63832 2.52884 -0.620624 0
M  V30 29 H 6.31594 0.11639 -1.49087 0
M  V30 30 H 5.71843 0.288723 0.203395 0
M  V30 31 H 3.67726 0.820685 0.688372 0
M  V30 32 H 1.92467 2.01526 -0.305812 0
M  V30 33 H 1.64421 0.707636 -1.62246 0
M  V30 34 H 1.96789 -2.70077 -0.971234 0
M  V30 35 H 3.48642 -1.96439 -1.46653 0
M  V30 36 H 2.02335 -1.18675 -2.01779 0
M  V30 37 H 3.85866 -2.46616 0.732821 0
M  V30 38 H 3.75021 -1.1476 1.91948 0
M  V30 39 H 2.39593 -2.39403 1.71531 0
M  V30 40 H 0.743663 1.09273 2.07421 0
M  V30 41 H 2.03883 -0.0404445 2.4112 0
M  V30 42 H -0.850765 1.43754 0.293612 0
M  V30 43 H -2.97208 1.99797 -0.266662 0
M  V30 44 H -6.03727 2.34017 0.594044 0
M  V30 45 H -6.57032 1.46659 -0.897322 0
M  V30 46 H -4.40736 2.52487 -1.83681 0
M  V30 47 H -4.80888 3.71085 -0.593752 0
M  V30 48 H -6.24967 -0.659837 0.137992 0
M  V30 49 H -2.26302 -2.0491 0.636972 0
M  V30 END ATOM
M  V30 BEGIN BOND
M  V30 1 1 1 2
M  V30 2 1 2 3
M  V30 3 1 3 4
M  V30 4 1 4 5
M  V30 5 1 5 6
M  V30 6 1 6 7
M  V30 7 1 7 8
M  V30 8 1 7 9
M  V30 9 1 6 10
M  V30 10 1 6 11
M  V30 11 2 11 12
M  V30 12 1 11 13
M  V30 13 1 13 14
M  V30 14 2 14 15
M  V30 15 1 15 16
M  V30 16 1 16 17
M  V30 17 1 17 18
M  V30 18 2 16 19
M  V30 19 1 19 20
M  V30 20 2 20 21
M  V30 21 1 20 22
M  V30 22 1 22 23
M  V30 23 1 22 24
M  V30 24 1 22 25
M  V30 25 1 7 4
M  V30 26 1 21 14
M  V30 27 1 1 26
M  V30 28 1 1 27
M  V30 29 1 1 28
M  V30 30 1 2 29
M  V30 31 1 2 30
M  V30 32 1 4 31
M  V30 33 1 5 32
M  V30 34 1 5 33
M  V30 35 1 8 34
M  V30 36 1 8 35
M  V30 37 1 8 36
M  V30 38 1 9 37
M  V30 39 1 9 38
M  V30 40 1 9 39
M  V30 41 1 10 40
M  V30 42 1 10 41
M  V30 43 1 13 42
M  V30 44 1 15 43
M  V30 45 1 17 44
M  V30 46 1 17 45
M  V30 47 1 18 46
M  V30 48 1 18 47
M  V30 49 1 19 48
M  V30 50 1 21 49
M  V30 END BOND
M  V30 END CTAB
M  END
