
     RDKit          3D

  0  0  0  0  0  0  0  0  0  0999 V3000
M  V30 BEGIN CTAB
M  V30 COUNTS 38 37 0 0 0
M  V30 BEGIN ATOM
M  V30 1 C -1.15249 0.822251 0.0262135 0 CFG=2
M  V30 2 C -1.94723 -0.335689 -0.415507 0
M  V30 3 C -3.25613 -0.253977 -1.02507 0
M  V30 4 C -4.43931 0.307341 -0.379372 0
M  V30 5 C -4.84791 -0.339135 0.92449 0
M  V30 6 N -5.14983 -1.72924 0.77969 0
M  V30 7 N 0.105896 0.16573 0.535076 0
M  V30 8 C 1.34959 0.39152 -0.0582463 0
M  V30 9 O 1.45352 1.15584 -1.04168 0
M  V30 10 C 2.54639 -0.276603 0.479537 0
M  V30 11 N 3.70135 0.118717 -0.301147 0
M  V30 12 C 5.00795 -0.377647 -0.0106042 0
M  V30 13 O 5.17104 -1.17178 0.936611 0
M  V30 14 C 6.13005 0.0829021 -0.865618 0
M  V30 15 N 7.38909 -0.494013 -0.464834 0
M  V30 16 C -1.58522 1.62311 1.15344 0
M  V30 17 O -2.62704 2.51004 1.0892 0
M  V30 18 O -1.01605 1.56322 2.3005 0
M  V30 19 H -0.795679 1.42899 -0.847567 0
M  V30 20 H -1.90213 -1.1367 0.398929 0
M  V30 21 H -1.27235 -0.848498 -1.19931 0
M  V30 22 H -3.16601 0.238951 -2.03718 0
M  V30 23 H -3.53815 -1.32657 -1.33529 0
M  V30 24 H -5.32022 -0.0309936 -1.07075 0
M  V30 25 H -4.5954 1.39588 -0.403522 0
M  V30 26 H -5.79311 0.185647 1.24801 0
M  V30 27 H -4.13106 -0.209552 1.73187 0
M  V30 28 H -5.17394 -2.0436 -0.199495 0
M  V30 29 H -4.54956 -2.34124 1.36712 0
M  V30 30 H -0.071529 -0.447921 1.34819 0
M  V30 31 H 2.46794 -1.38447 0.41325 0
M  V30 32 H 2.7075 0.0424846 1.55114 0
M  V30 33 H 3.54861 0.783602 -1.08982 0
M  V30 34 H 5.84435 -0.171611 -1.91534 0
M  V30 35 H 6.18258 1.19079 -0.762167 0
M  V30 36 H 8.07702 -0.382306 -1.21898 0
M  V30 37 H 7.31799 -1.49343 -0.183374 0
M  V30 38 H -2.67053 3.34484 0.54163 0
M  V30 END ATOM
M  V30 BEGIN BOND
M  V30 1 1 1 2
M  V30 2 1 2 3
M  V30 3 1 3 4
M  V30 4 1 4 5
M  V30 5 1 5 6
M  V30 6 1 1 7
M  V30 7 1 7 8
M  V30 8 2 8 9
M  V30 9 1 8 10
M  V30 10 1 10 11
M  V30 11 1 11 12
M  V30 12 2 12 13
M  V30 13 1 12 14
M  V30 14 1 14 15
M  V30 15 1 1 16
M  V30 16 1 16 17
M  V30 17 2 16 18
M  V30 18 1 1 19 CFG=3
M  V30 19 1 2 20
M  V30 20 1 2 21
M  V30 21 1 3 22
M  V30 22 1 3 23
M  V30 23 1 4 24
M  V30 24 1 4 25
M  V30 25 1 5 26
M  V30 26 1 5 27
M  V30 27 1 6 28
M  V30 28 1 6 29
M  V30 29 1 7 30
M  V30 30 1 10 31
M  V30 31 1 10 32
M  V30 32 1 11 33
M  V30 33 1 14 34
M  V30 34 1 14 35
M  V30 35 1 15 36
M  V30 36 1 15 37
M  V30 37 1 17 38
M  V30 END BOND
M  V30 END CTAB
M  END
