
     RDKit          3D

  0  0  0  0  0  0  0  0  0  0999 V3000
M  V30 BEGIN CTAB
M  V30 COUNTS 30 30 0 0 0
M  V30 BEGIN ATOM
M  V30 1 N 4.31804 0.844926 0.986263 0
M  V30 2 C 3.29924 0.160923 0.254455 0
M  V30 3 N 3.59161 -1.01639 -0.356595 0
M  V30 4 C 2.69803 -1.72766 -1.06499 0
M  V30 5 C 1.4026 -1.28273 -1.20967 0
M  V30 6 C 1.1003 -0.0847593 -0.589385 0
M  V30 7 C 2.02712 0.633066 0.133455 0
M  V30 8 C -0.289949 0.420538 -0.727106 0
M  V30 9 C -1.12171 -0.116794 0.418229 0
M  V30 10 C -2.52836 0.433956 0.222381 0
M  V30 11 N -3.442 0.0131108 1.23261 0
M  V30 12 C -2.38758 1.95935 0.276193 0
M  V30 13 F -0.565273 0.356788 1.58019 0
M  V30 14 C -1.12564 -1.62523 0.471164 0
M  V30 15 H 4.81472 1.6809 0.631997 0
M  V30 16 H 4.57413 0.483499 1.92489 0
M  V30 17 H 2.94764 -2.66478 -1.54603 0
M  V30 18 H 0.652014 -1.82814 -1.77417 0
M  V30 19 H 1.76013 1.5512 0.597605 0
M  V30 20 H -0.726416 0.197575 -1.7166 0
M  V30 21 H -0.294322 1.52553 -0.626619 0
M  V30 22 H -2.9291 0.136845 -0.767886 0
M  V30 23 H -4.22456 -0.580305 0.891254 0
M  V30 24 H -2.98428 -0.360362 2.09092 0
M  V30 25 H -1.57251 2.25825 0.953932 0
M  V30 26 H -2.20731 2.3161 -0.758979 0
M  V30 27 H -3.35696 2.33742 0.666691 0
M  V30 28 H -0.158686 -1.99481 0.843929 0
M  V30 29 H -1.90883 -1.94286 1.19729 0
M  V30 30 H -1.36207 -2.08515 -0.501161 0
M  V30 END ATOM
M  V30 BEGIN BOND
M  V30 1 1 1 2
M  V30 2 2 2 3
M  V30 3 1 3 4
M  V30 4 2 4 5
M  V30 5 1 5 6
M  V30 6 2 6 7
M  V30 7 1 6 8
M  V30 8 1 8 9
M  V30 9 1 9 10
M  V30 10 1 10 11
M  V30 11 1 10 12
M  V30 12 1 9 13
M  V30 13 1 9 14
M  V30 14 1 7 2
M  V30 15 1 1 15
M  V30 16 1 1 16
M  V30 17 1 4 17
M  V30 18 1 5 18
M  V30 19 1 7 19
M  V30 20 1 8 20
M  V30 21 1 8 21
M  V30 22 1 10 22
M  V30 23 1 11 23
M  V30 24 1 11 24
M  V30 25 1 12 25
M  V30 26 1 12 26
M  V30 27 1 12 27
M  V30 28 1 14 28
M  V30 29 1 14 29
M  V30 30 1 14 30
M  V30 END BOND
M  V30 END CTAB
M  END
