
     RDKit          3D

  0  0  0  0  0  0  0  0  0  0999 V3000
M  V30 BEGIN CTAB
M  V30 COUNTS 35 37 0 0 0
M  V30 BEGIN ATOM
M  V30 1 O 5.24934 -0.905552 2.95128 0
M  V30 2 C 4.86054 -0.106024 1.88788 0
M  V30 3 O 5.74882 0.61645 1.36792 0
M  V30 4 C 3.45124 -0.136455 1.42176 0
M  V30 5 N 3.25341 0.753111 0.32209 0
M  V30 6 C 2.0159 0.943913 -0.338706 0
M  V30 7 N 1.87544 1.78585 -1.36286 0
M  V30 8 C 0.686672 1.95762 -1.98428 0
M  V30 9 N 0.333958 2.74225 -3.01762 0
M  V30 10 C -0.950782 2.58907 -3.29717 0
M  V30 11 C -1.43701 1.64442 -2.37696 0
M  V30 12 C -0.425669 1.2426 -1.5524 0
M  V30 13 C -0.333003 0.356545 -0.494187 0
M  V30 14 C 0.898392 0.225091 0.0957309 0
M  V30 15 C -1.50493 -0.379764 -0.0588729 0
M  V30 16 C -1.40348 -1.27411 1.01127 0
M  V30 17 C -2.52534 -1.98117 1.43053 0
M  V30 18 N -2.35674 -2.87783 2.52721 0
M  V30 19 N -3.67494 -1.79405 0.805997 0
M  V30 20 C -3.78764 -0.935539 -0.2267 0
M  V30 21 N -2.70272 -0.265706 -0.616026 0
M  V30 22 N -5.0564 -0.775182 -0.86259 0
M  V30 23 H 5.84132 -1.71549 2.81744 0
M  V30 24 H 2.81755 0.20858 2.27784 0
M  V30 25 H 3.12398 -1.17434 1.2116 0
M  V30 26 H 4.07737 1.30609 -0.0248027 0
M  V30 27 H 0.975768 3.38822 -3.5369 0
M  V30 28 H -1.54945 3.05943 -4.05432 0
M  V30 29 H -2.46953 1.31444 -2.36227 0
M  V30 30 H 1.02145 -0.45363 0.924862 0
M  V30 31 H -0.462219 -1.41215 1.50503 0
M  V30 32 H -2.2583 -3.88656 2.30207 0
M  V30 33 H -2.32778 -2.58084 3.52012 0
M  V30 34 H -5.72879 -0.0553762 -0.567255 0
M  V30 35 H -5.27642 -1.4239 -1.64673 0
M  V30 END ATOM
M  V30 BEGIN BOND
M  V30 1 1 1 2
M  V30 2 2 2 3
M  V30 3 1 2 4
M  V30 4 1 4 5
M  V30 5 1 5 6
M  V30 6 2 6 7
M  V30 7 1 7 8
M  V30 8 1 8 9
M  V30 9 1 9 10
M  V30 10 2 10 11
M  V30 11 1 11 12
M  V30 12 1 12 13
M  V30 13 2 13 14
M  V30 14 1 13 15
M  V30 15 2 15 16
M  V30 16 1 16 17
M  V30 17 1 17 18
M  V30 18 2 17 19
M  V30 19 1 19 20
M  V30 20 2 20 21
M  V30 21 1 20 22
M  V30 22 1 14 6
M  V30 23 1 21 15
M  V30 24 2 12 8
M  V30 25 1 1 23
M  V30 26 1 4 24
M  V30 27 1 4 25
M  V30 28 1 5 26
M  V30 29 1 9 27
M  V30 30 1 10 28
M  V30 31 1 11 29
M  V30 32 1 14 30
M  V30 33 1 16 31
M  V30 34 1 18 32
M  V30 35 1 18 33
M  V30 36 1 22 34
M  V30 37 1 22 35
M  V30 END BOND
M  V30 END CTAB
M  END
