
     RDKit          3D

  0  0  0  0  0  0  0  0  0  0999 V3000
M  V30 BEGIN CTAB
M  V30 COUNTS 30 30 0 0 0
M  V30 BEGIN ATOM
M  V30 1 C -3.1375 -0.351885 1.5855 0
M  V30 2 C -2.93068 0.778643 0.626335 0
M  V30 3 N -1.55195 1.21581 0.567824 0
M  V30 4 C -0.488428 0.369655 0.185515 0
M  V30 5 N -0.746393 -0.907108 -0.143993 0
M  V30 6 C 0.235433 -1.77701 -0.522259 0
M  V30 7 N -0.0645763 -3.1213 -0.865358 0
M  V30 8 N 1.4857 -1.28105 -0.54703 0
M  V30 9 C 1.80422 -0.014039 -0.228344 0
M  V30 10 N 0.781045 0.804049 0.140657 0
M  V30 11 C 3.19727 0.505943 -0.265301 0 CFG=1
M  V30 12 N 3.21185 1.82163 -0.918263 0
M  V30 13 C 3.82614 0.57185 1.10022 0
M  V30 14 C -3.36502 0.320611 -0.742942 0
M  V30 15 H -3.07843 -1.31957 1.01279 0
M  V30 16 H -2.41908 -0.338972 2.42957 0
M  V30 17 H -4.17987 -0.297734 1.96133 0
M  V30 18 H -3.57718 1.62495 0.929417 0
M  V30 19 H -1.31555 2.20811 0.819167 0
M  V30 20 H -1.00783 -3.38139 -1.15512 0
M  V30 21 H 0.676369 -3.84801 -0.822917 0
M  V30 22 H 3.81751 -0.157086 -0.913124 0
M  V30 23 H 3.42652 1.72471 -1.93362 0
M  V30 24 H 3.93824 2.43847 -0.460079 0
M  V30 25 H 3.35516 -0.165536 1.78508 0
M  V30 26 H 3.72502 1.61543 1.50844 0
M  V30 27 H 4.91817 0.396167 0.987558 0
M  V30 28 H -3.75371 -0.737933 -0.72401 0
M  V30 29 H -2.55013 0.376831 -1.49289 0
M  V30 30 H -4.23233 0.925766 -1.11529 0
M  V30 END ATOM
M  V30 BEGIN BOND
M  V30 1 1 1 2
M  V30 2 1 2 3
M  V30 3 1 3 4
M  V30 4 2 4 5
M  V30 5 1 5 6
M  V30 6 1 6 7
M  V30 7 2 6 8
M  V30 8 1 8 9
M  V30 9 2 9 10
M  V30 10 1 9 11
M  V30 11 1 11 12
M  V30 12 1 11 13
M  V30 13 1 2 14
M  V30 14 1 10 4
M  V30 15 1 1 15
M  V30 16 1 1 16
M  V30 17 1 1 17
M  V30 18 1 2 18
M  V30 19 1 3 19
M  V30 20 1 7 20
M  V30 21 1 7 21
M  V30 22 1 11 22 CFG=3
M  V30 23 1 12 23
M  V30 24 1 12 24
M  V30 25 1 13 25
M  V30 26 1 13 26
M  V30 27 1 13 27
M  V30 28 1 14 28
M  V30 29 1 14 29
M  V30 30 1 14 30
M  V30 END BOND
M  V30 END CTAB
M  END
