
     RDKit          3D

  0  0  0  0  0  0  0  0  0  0999 V3000
M  V30 BEGIN CTAB
M  V30 COUNTS 25 25 0 0 0
M  V30 BEGIN ATOM
M  V30 1 N -4.32033 0.936204 -0.429159 0
M  V30 2 C -3.41303 -0.0622409 0.0455785 0
M  V30 3 C -1.94801 0.35317 -0.145981 0
M  V30 4 C -1.11877 -0.776103 0.390289 0 CFG=1
M  V30 5 C 0.337967 -0.508139 0.268408 0
M  V30 6 N 0.959518 0.450811 -0.414164 0
M  V30 7 N 2.27918 0.338981 -0.259628 0
M  V30 8 C 2.4937 -0.706086 0.532251 0
M  V30 9 N 1.3097 -1.22769 0.857987 0
M  V30 10 N 3.77986 -1.19331 0.965295 0
M  V30 11 C 3.27913 1.20911 -0.855493 0
M  V30 12 O -1.46905 -1.03673 1.72057 0
M  V30 13 H -4.18732 1.15863 -1.43475 0
M  V30 14 H -4.37821 1.74964 0.196201 0
M  V30 15 H -3.60941 -0.209975 1.12869 0
M  V30 16 H -3.55905 -1.02949 -0.463517 0
M  V30 17 H -1.76711 0.37763 -1.26045 0
M  V30 18 H -1.73567 1.32576 0.302702 0
M  V30 19 H -1.39035 -1.69 -0.187072 0
M  V30 20 H 3.85331 -2.16803 1.3296 0
M  V30 21 H 4.61163 -0.584684 0.914085 0
M  V30 22 H 2.88016 1.70959 -1.76221 0
M  V30 23 H 3.57342 1.96384 -0.0904547 0
M  V30 24 H 4.18182 0.630095 -1.1195 0
M  V30 25 H -0.643106 -1.01098 2.26485 0
M  V30 END ATOM
M  V30 BEGIN BOND
M  V30 1 1 1 2
M  V30 2 1 2 3
M  V30 3 1 3 4
M  V30 4 1 4 5
M  V30 5 2 5 6
M  V30 6 1 6 7
M  V30 7 1 7 8
M  V30 8 2 8 9
M  V30 9 1 8 10
M  V30 10 1 7 11
M  V30 11 1 4 12
M  V30 12 1 9 5
M  V30 13 1 1 13
M  V30 14 1 1 14
M  V30 15 1 2 15
M  V30 16 1 2 16
M  V30 17 1 3 17
M  V30 18 1 3 18
M  V30 19 1 4 19 CFG=3
M  V30 20 1 10 20
M  V30 21 1 10 21
M  V30 22 1 11 22
M  V30 23 1 11 23
M  V30 24 1 11 24
M  V30 25 1 12 25
M  V30 END BOND
M  V30 END CTAB
M  END
