
     RDKit          3D

  0  0  0  0  0  0  0  0  0  0999 V3000
M  V30 BEGIN CTAB
M  V30 COUNTS 29 29 0 0 0
M  V30 BEGIN ATOM
M  V30 1 C -5.47912 0.195345 -0.536148 0
M  V30 2 C -4.02308 0.151797 -0.929529 0
M  V30 3 N -3.2284 0.0457582 0.277276 0
M  V30 4 C -1.79284 -0.0162334 0.2181 0
M  V30 5 N -1.13943 0.0219572 -0.956655 0
M  V30 6 C 0.213893 -0.0359844 -1.0211 0
M  V30 7 N 0.926878 0.00256772 -2.24904 0
M  V30 8 C 0.950989 -0.136566 0.136813 0
M  V30 9 N 0.316099 -0.175858 1.31604 0
M  V30 10 C -1.03625 -0.117043 1.36462 0
M  V30 11 Cl -1.83438 -0.170509 2.91727 0
M  V30 12 C 2.40202 -0.198109 0.0577651 0
M  V30 13 O 2.98736 -0.160903 -1.04606 0
M  V30 14 N 3.2161 -0.302388 1.21877 0
M  V30 15 C 4.61155 -0.364922 1.20064 0
M  V30 16 N 5.30481 -0.325137 -0.032314 0
M  V30 17 N 5.28962 -0.458475 2.28319 0
M  V30 18 H -5.98289 0.920581 -1.20955 0
M  V30 19 H -5.54066 0.63269 0.498244 0
M  V30 20 H -5.96504 -0.804268 -0.577667 0
M  V30 21 H -3.83766 -0.74832 -1.57439 0
M  V30 22 H -3.75499 1.03166 -1.5354 0
M  V30 23 H -3.66972 0.0111544 1.22294 0
M  V30 24 H 1.31724 0.862397 -2.68726 0
M  V30 25 H 1.06707 -0.903702 -2.74553 0
M  V30 26 H 2.70992 -0.332736 2.14175 0
M  V30 27 H 5.47309 -1.16969 -0.594685 0
M  V30 28 H 5.65275 0.59295 -0.374483 0
M  V30 29 H 4.84509 -0.492232 3.21638 0
M  V30 END ATOM
M  V30 BEGIN BOND
M  V30 1 1 1 2
M  V30 2 1 2 3
M  V30 3 1 3 4
M  V30 4 2 4 5
M  V30 5 1 5 6
M  V30 6 1 6 7
M  V30 7 2 6 8
M  V30 8 1 8 9
M  V30 9 2 9 10
M  V30 10 1 10 11
M  V30 11 1 8 12
M  V30 12 2 12 13
M  V30 13 1 12 14
M  V30 14 1 14 15
M  V30 15 1 15 16
M  V30 16 2 15 17 CFG=2
M  V30 17 1 10 4
M  V30 18 1 1 18
M  V30 19 1 1 19
M  V30 20 1 1 20
M  V30 21 1 2 21
M  V30 22 1 2 22
M  V30 23 1 3 23
M  V30 24 1 7 24
M  V30 25 1 7 25
M  V30 26 1 14 26
M  V30 27 1 16 27
M  V30 28 1 16 28
M  V30 29 1 17 29
M  V30 END BOND
M  V30 END CTAB
M  END
