
     RDKit          3D

  0  0  0  0  0  0  0  0  0  0999 V3000
M  V30 BEGIN CTAB
M  V30 COUNTS 30 30 0 0 0
M  V30 BEGIN ATOM
M  V30 1 C -3.98021 -1.42609 -0.227238 0
M  V30 2 C -3.08412 -0.401671 0.398447 0
M  V30 3 C -1.65805 -0.692912 0.0475211 0
M  V30 4 N -0.735054 0.254888 0.616786 0
M  V30 5 C 0.657532 0.123004 0.380742 0
M  V30 6 C 1.1049 -0.921347 -0.397726 0
M  V30 7 C 2.46207 -1.01997 -0.606792 0
M  V30 8 C 3.34814 -0.103624 -0.0555442 0
M  V30 9 C 2.90791 0.949376 0.728255 0
M  V30 10 C 1.54803 1.04334 0.934337 0
M  V30 11 N 3.81892 1.88676 1.29164 0
M  V30 12 N 4.74444 -0.200985 -0.267747 0
M  V30 13 C -3.53066 0.965522 -0.0488232 0
M  V30 14 H -4.26549 -1.09816 -1.26215 0
M  V30 15 H -3.58144 -2.4395 -0.249496 0
M  V30 16 H -4.94362 -1.45583 0.338124 0
M  V30 17 H -3.1754 -0.525952 1.51227 0
M  V30 18 H -1.50976 -0.659727 -1.06541 0
M  V30 19 H -1.41968 -1.70383 0.45434 0
M  V30 20 H -1.07953 1.03943 1.20234 0
M  V30 21 H 0.424322 -1.64324 -0.833775 0
M  V30 22 H 2.83468 -1.84412 -1.22312 0
M  V30 23 H 1.17595 1.86822 1.55116 0
M  V30 24 H 4.15072 2.69276 0.715693 0
M  V30 25 H 4.18518 1.81833 2.2668 0
M  V30 26 H 5.21543 0.516204 -0.853154 0
M  V30 27 H 5.30423 -0.971146 0.148052 0
M  V30 28 H -3.57094 1.64821 0.820499 0
M  V30 29 H -4.53672 0.968575 -0.509642 0
M  V30 30 H -2.81181 1.33348 -0.837969 0
M  V30 END ATOM
M  V30 BEGIN BOND
M  V30 1 1 1 2
M  V30 2 1 2 3
M  V30 3 1 3 4
M  V30 4 1 4 5
M  V30 5 2 5 6
M  V30 6 1 6 7
M  V30 7 2 7 8
M  V30 8 1 8 9
M  V30 9 2 9 10
M  V30 10 1 9 11
M  V30 11 1 8 12
M  V30 12 1 2 13
M  V30 13 1 10 5
M  V30 14 1 1 14
M  V30 15 1 1 15
M  V30 16 1 1 16
M  V30 17 1 2 17
M  V30 18 1 3 18
M  V30 19 1 3 19
M  V30 20 1 4 20
M  V30 21 1 6 21
M  V30 22 1 7 22
M  V30 23 1 10 23
M  V30 24 1 11 24
M  V30 25 1 11 25
M  V30 26 1 12 26
M  V30 27 1 12 27
M  V30 28 1 13 28
M  V30 29 1 13 29
M  V30 30 1 13 30
M  V30 END BOND
M  V30 END CTAB
M  END
