
     RDKit          3D

  0  0  0  0  0  0  0  0  0  0999 V3000
M  V30 BEGIN CTAB
M  V30 COUNTS 30 30 0 0 0
M  V30 BEGIN ATOM
M  V30 1 N -2.92999 0.970843 -1.37908 0
M  V30 2 C -2.01465 0.882184 -0.287855 0
M  V30 3 C -0.591408 0.718065 -0.760561 0
M  V30 4 N -0.0600999 -0.450559 -0.170432 0
M  V30 5 C -1.00196 -1.06037 0.698386 0
M  V30 6 C -2.27013 -0.24947 0.660001 0
M  V30 7 C -3.40497 -1.15117 0.271258 0
M  V30 8 C 1.21153 -0.315303 0.481395 0
M  V30 9 C 2.24676 -0.0512078 -0.619031 0
M  V30 10 S 3.85073 0.121396 0.12946 0
M  V30 11 O 3.85031 1.2027 1.16786 0
M  V30 12 O 4.143 -1.20472 0.804662 0
M  V30 13 N 5.00233 0.412111 -1.1242 0
M  V30 14 H -3.06578 1.98998 -1.63381 0
M  V30 15 H -3.88115 0.598095 -1.18544 0
M  V30 16 H -2.05296 1.85028 0.27654 0
M  V30 17 H 0.0185427 1.6408 -0.641584 0
M  V30 18 H -0.627123 0.553965 -1.87913 0
M  V30 19 H -1.18724 -2.10539 0.307166 0
M  V30 20 H -0.653134 -1.18643 1.74865 0
M  V30 21 H -2.49079 0.111012 1.68294 0
M  V30 22 H -3.44639 -1.35914 -0.819346 0
M  V30 23 H -3.19324 -2.15616 0.743987 0
M  V30 24 H -4.38434 -0.847753 0.693862 0
M  V30 25 H 1.53745 -1.24527 0.984975 0
M  V30 26 H 1.22904 0.47934 1.26047 0
M  V30 27 H 2.17724 -0.908349 -1.29978 0
M  V30 28 H 1.92585 0.891028 -1.10737 0
M  V30 29 H 4.53693 0.587746 -2.04398 0
M  V30 30 H 5.52563 1.28175 -0.88384 0
M  V30 END ATOM
M  V30 BEGIN BOND
M  V30 1 1 1 2
M  V30 2 1 2 3
M  V30 3 1 3 4
M  V30 4 1 4 5
M  V30 5 1 5 6
M  V30 6 1 6 7
M  V30 7 1 4 8
M  V30 8 1 8 9
M  V30 9 1 9 10
M  V30 10 2 10 11
M  V30 11 2 10 12
M  V30 12 1 10 13
M  V30 13 1 6 2
M  V30 14 1 1 14
M  V30 15 1 1 15
M  V30 16 1 2 16
M  V30 17 1 3 17
M  V30 18 1 3 18
M  V30 19 1 5 19
M  V30 20 1 5 20
M  V30 21 1 6 21
M  V30 22 1 7 22
M  V30 23 1 7 23
M  V30 24 1 7 24
M  V30 25 1 8 25
M  V30 26 1 8 26
M  V30 27 1 9 27
M  V30 28 1 9 28
M  V30 29 1 13 29
M  V30 30 1 13 30
M  V30 END BOND
M  V30 END CTAB
M  END
