
     RDKit          3D

  0  0  0  0  0  0  0  0  0  0999 V3000
M  V30 BEGIN CTAB
M  V30 COUNTS 26 26 0 0 0
M  V30 BEGIN ATOM
M  V30 1 N 3.26779 2.13868 0.746475 0
M  V30 2 N 2.67774 0.896598 0.96167 0
M  V30 3 C 2.27058 0.121878 -0.169127 0
M  V30 4 O 2.43235 0.534486 -1.34102 0
M  V30 5 C 1.63878 -1.20567 0.0240053 0
M  V30 6 S 0.122465 -1.1147 0.974874 0
M  V30 7 C -1.18203 -0.242775 0.153662 0
M  V30 8 N -0.998126 0.285138 -1.07257 0
M  V30 9 C -1.95613 0.955467 -1.73777 0
M  V30 10 C -3.17202 1.08596 -1.09669 0
M  V30 11 C -3.39728 0.558145 0.160246 0
M  V30 12 C -2.38799 -0.126867 0.81728 0
M  V30 13 N -2.60579 -0.675868 2.11171 0
M  V30 14 C 1.51099 -1.92155 -1.27178 0
M  V30 15 H 3.83778 2.4187 1.59765 0
M  V30 16 H 3.97366 2.11789 -0.046432 0
M  V30 17 H 2.53675 0.541134 1.92845 0
M  V30 18 H 2.37055 -1.79535 0.653027 0
M  V30 19 H -1.76473 1.36928 -2.73323 0
M  V30 20 H -3.96216 1.62086 -1.60786 0
M  V30 21 H -4.34676 0.652753 0.675404 0
M  V30 22 H -2.08729 -1.53872 2.37351 0
M  V30 23 H -3.25072 -0.273138 2.82015 0
M  V30 24 H 0.619329 -1.64401 -1.86105 0
M  V30 25 H 2.38871 -1.72547 -1.92097 0
M  V30 26 H 1.46356 -3.03286 -1.13961 0
M  V30 END ATOM
M  V30 BEGIN BOND
M  V30 1 1 1 2
M  V30 2 1 2 3
M  V30 3 2 3 4
M  V30 4 1 3 5
M  V30 5 1 5 6
M  V30 6 1 6 7
M  V30 7 2 7 8
M  V30 8 1 8 9
M  V30 9 2 9 10
M  V30 10 1 10 11
M  V30 11 2 11 12
M  V30 12 1 12 13
M  V30 13 1 5 14
M  V30 14 1 12 7
M  V30 15 1 1 15
M  V30 16 1 1 16
M  V30 17 1 2 17
M  V30 18 1 5 18
M  V30 19 1 9 19
M  V30 20 1 10 20
M  V30 21 1 11 21
M  V30 22 1 13 22
M  V30 23 1 13 23
M  V30 24 1 14 24
M  V30 25 1 14 25
M  V30 26 1 14 26
M  V30 END BOND
M  V30 END CTAB
M  END
