
     RDKit          3D

  0  0  0  0  0  0  0  0  0  0999 V3000
M  V30 BEGIN CTAB
M  V30 COUNTS 27 27 0 0 0
M  V30 BEGIN ATOM
M  V30 1 N 0.628597 2.34127 0.953889 0
M  V30 2 C 0.00242606 1.67047 -0.156624 0
M  V30 3 C -0.0500595 0.149124 0.0618151 0
M  V30 4 C -0.814117 -0.211334 1.27309 0
M  V30 5 C -2.13626 -0.89788 0.982202 0
M  V30 6 O -2.70629 -0.166062 -0.0858723 0
M  V30 7 C -2.06878 -0.650941 -1.21793 0
M  V30 8 C -0.601811 -0.410439 -1.23092 0
M  V30 9 C 1.32885 -0.382834 0.1873 0
M  V30 10 O 1.62087 -0.956548 1.26073 0
M  V30 11 N 2.30188 -0.277846 -0.814592 0
M  V30 12 N 3.57625 -0.807464 -0.612184 0
M  V30 13 H -0.0541075 2.85441 1.54813 0
M  V30 14 H 1.17012 1.68709 1.5542 0
M  V30 15 H -1.02366 2.0801 -0.249979 0
M  V30 16 H 0.566812 1.92249 -1.05841 0
M  V30 17 H -0.273993 -0.889199 1.98347 0
M  V30 18 H -1.09616 0.678366 1.9103 0
M  V30 19 H -2.78885 -0.871003 1.85109 0
M  V30 20 H -1.89246 -1.93395 0.676535 0
M  V30 21 H -2.33355 -1.74158 -1.27869 0
M  V30 22 H -2.58579 -0.184108 -2.09765 0
M  V30 23 H -0.37232 0.259777 -2.0897 0
M  V30 24 H -0.114456 -1.38622 -1.49527 0
M  V30 25 H 2.15391 0.182343 -1.74323 0
M  V30 26 H 4.0419 -0.250328 0.151728 0
M  V30 27 H 3.52103 -1.80773 -0.263422 0
M  V30 END ATOM
M  V30 BEGIN BOND
M  V30 1 1 1 2
M  V30 2 1 2 3
M  V30 3 1 3 4
M  V30 4 1 4 5
M  V30 5 1 5 6
M  V30 6 1 6 7
M  V30 7 1 7 8
M  V30 8 1 3 9
M  V30 9 2 9 10
M  V30 10 1 9 11
M  V30 11 1 11 12
M  V30 12 1 8 3
M  V30 13 1 1 13
M  V30 14 1 1 14
M  V30 15 1 2 15
M  V30 16 1 2 16
M  V30 17 1 4 17
M  V30 18 1 4 18
M  V30 19 1 5 19
M  V30 20 1 5 20
M  V30 21 1 7 21
M  V30 22 1 7 22
M  V30 23 1 8 23
M  V30 24 1 8 24
M  V30 25 1 11 25
M  V30 26 1 12 26
M  V30 27 1 12 27
M  V30 END BOND
M  V30 END CTAB
M  END
