
     RDKit          3D

  0  0  0  0  0  0  0  0  0  0999 V3000
M  V30 BEGIN CTAB
M  V30 COUNTS 31 31 0 0 0
M  V30 BEGIN ATOM
M  V30 1 N -0.120805 -2.39524 0.521379 0
M  V30 2 N -0.536402 -1.43033 -0.414295 0
M  V30 3 C -0.431055 -0.146534 0.17388 0
M  V30 4 C 0.899285 0.393231 0.420258 0
M  V30 5 C 1.15988 1.57656 1.13075 0
M  V30 6 N 2.48819 1.72788 1.16093 0
M  V30 7 N 3.09052 0.741777 0.530131 0
M  V30 8 C 2.11375 -0.0979907 0.0624974 0
M  V30 9 N 2.41127 -1.26596 -0.685322 0
M  V30 10 C 4.51128 0.553293 0.348607 0
M  V30 11 C -1.37424 0.878738 -0.372588 0
M  V30 12 C -2.66115 0.673134 -0.463615 0
M  V30 13 C -3.59865 1.68984 -1.00582 0
M  V30 14 C -3.26208 -0.634937 -0.0116554 0
M  V30 15 H -0.402832 -2.01455 1.45881 0
M  V30 16 H -0.659677 -3.30066 0.385891 0
M  V30 17 H -0.120252 -1.55106 -1.34259 0
M  V30 18 H -0.865217 -0.298194 1.24715 0
M  V30 19 H 0.380339 2.20279 1.54974 0
M  V30 20 H 2.82041 -2.13473 -0.242522 0
M  V30 21 H 2.24422 -1.34209 -1.72582 0
M  V30 22 H 5.04971 1.51318 0.339996 0
M  V30 23 H 4.84651 -0.0946241 1.21029 0
M  V30 24 H 4.74869 -0.0375973 -0.57028 0
M  V30 25 H -0.954791 1.81725 -0.698458 0
M  V30 26 H -3.58852 1.58243 -2.12361 0
M  V30 27 H -4.62262 1.52198 -0.598766 0
M  V30 28 H -3.27107 2.69787 -0.679844 0
M  V30 29 H -3.15831 -1.40387 -0.790741 0
M  V30 30 H -2.78471 -0.921748 0.950029 0
M  V30 31 H -4.35167 -0.499834 0.235593 0
M  V30 END ATOM
M  V30 BEGIN BOND
M  V30 1 1 1 2
M  V30 2 1 2 3
M  V30 3 1 3 4
M  V30 4 1 4 5
M  V30 5 2 5 6
M  V30 6 1 6 7
M  V30 7 1 7 8
M  V30 8 1 8 9
M  V30 9 1 7 10
M  V30 10 1 3 11
M  V30 11 2 11 12 CFG=2
M  V30 12 1 12 13
M  V30 13 1 12 14
M  V30 14 2 8 4
M  V30 15 1 1 15
M  V30 16 1 1 16
M  V30 17 1 2 17
M  V30 18 1 3 18
M  V30 19 1 5 19
M  V30 20 1 9 20
M  V30 21 1 9 21
M  V30 22 1 10 22
M  V30 23 1 10 23
M  V30 24 1 10 24
M  V30 25 1 11 25
M  V30 26 1 13 26
M  V30 27 1 13 27
M  V30 28 1 13 28
M  V30 29 1 14 29
M  V30 30 1 14 30
M  V30 31 1 14 31
M  V30 END BOND
M  V30 END CTAB
M  END
