
     RDKit          3D

  0  0  0  0  0  0  0  0  0  0999 V3000
M  V30 BEGIN CTAB
M  V30 COUNTS 30 30 0 0 0
M  V30 BEGIN ATOM
M  V30 1 N -4.70168 1.25709 -0.0545358 0
M  V30 2 C -3.64903 0.628721 0.673132 0
M  V30 3 C -2.91444 -0.364483 0.0652821 0
M  V30 4 N -3.16483 -0.79096 -1.26846 0
M  V30 5 C -1.90249 -0.965617 0.770531 0
M  V30 6 S -0.904798 -2.27389 0.0317329 0
M  V30 7 C 0.497614 -1.51865 -0.791092 0
M  V30 8 C 1.45951 -0.846137 0.1812 0
M  V30 9 C 2.57688 -0.263337 -0.639428 0
M  V30 10 C 3.60292 0.438615 0.225772 0
M  V30 11 C 4.69672 1.00822 -0.58996 0
M  V30 12 O 4.73727 2.35067 -0.917797 0
M  V30 13 O 5.61764 0.267651 -1.00201 0
M  V30 14 N -1.64202 -0.585486 2.02742 0
M  V30 15 C -2.37295 0.385116 2.59663 0
M  V30 16 N -3.37375 0.998968 1.93806 0
M  V30 17 H -5.29203 0.684301 -0.690639 0
M  V30 18 H -4.82885 2.27367 0.0888161 0
M  V30 19 H -2.75061 -0.274206 -2.08284 0
M  V30 20 H -3.7615 -1.62128 -1.48076 0
M  V30 21 H 1.09355 -2.26236 -1.35898 0
M  V30 22 H 0.1665 -0.72304 -1.4978 0
M  V30 23 H 1.84653 -1.64142 0.845114 0
M  V30 24 H 0.925026 -0.0559906 0.776397 0
M  V30 25 H 3.07835 -1.12184 -1.15397 0
M  V30 26 H 2.14804 0.368247 -1.42268 0
M  V30 27 H 3.9436 -0.273694 0.991846 0
M  V30 28 H 3.09272 1.27048 0.770848 0
M  V30 29 H 3.95684 2.93974 -0.646988 0
M  V30 30 H -2.18074 0.71091 3.61516 0
M  V30 END ATOM
M  V30 BEGIN BOND
M  V30 1 1 1 2
M  V30 2 2 2 3
M  V30 3 1 3 4
M  V30 4 1 3 5
M  V30 5 1 5 6
M  V30 6 1 6 7
M  V30 7 1 7 8
M  V30 8 1 8 9
M  V30 9 1 9 10
M  V30 10 1 10 11
M  V30 11 1 11 12
M  V30 12 2 11 13
M  V30 13 2 5 14
M  V30 14 1 14 15
M  V30 15 2 15 16
M  V30 16 1 16 2
M  V30 17 1 1 17
M  V30 18 1 1 18
M  V30 19 1 4 19
M  V30 20 1 4 20
M  V30 21 1 7 21
M  V30 22 1 7 22
M  V30 23 1 8 23
M  V30 24 1 8 24
M  V30 25 1 9 25
M  V30 26 1 9 26
M  V30 27 1 10 27
M  V30 28 1 10 28
M  V30 29 1 12 29
M  V30 30 1 15 30
M  V30 END BOND
M  V30 END CTAB
M  END
