
     RDKit          3D

  0  0  0  0  0  0  0  0  0  0999 V3000
M  V30 BEGIN CTAB
M  V30 COUNTS 25 25 0 0 0
M  V30 BEGIN ATOM
M  V30 1 N 3.99437 1.15457 0.444443 0
M  V30 2 C 3.38063 0.0627808 -0.272207 0
M  V30 3 C 1.92297 0.291198 -0.367642 0
M  V30 4 C 1.04933 -0.558287 0.141125 0
M  V30 5 C -0.38657 -0.327858 0.0440003 0
M  V30 6 N -0.976613 0.734878 -0.551324 0
M  V30 7 N -2.29147 0.644972 -0.467634 0
M  V30 8 C -2.57404 -0.507478 0.200472 0
M  V30 9 N -1.39211 -1.08676 0.503966 0
M  V30 10 N -3.8848 -0.949867 0.486295 0
M  V30 11 C -3.22495 1.59246 -0.988468 0
M  V30 12 C 1.53686 -1.78007 0.830272 0
M  V30 13 H 3.31839 1.84599 0.80183 0
M  V30 14 H 4.82657 1.54544 -0.0191958 0
M  V30 15 H 3.56779 -0.857065 0.313313 0
M  V30 16 H 3.8339 -0.0905222 -1.27996 0
M  V30 17 H 1.54436 1.17224 -0.863925 0
M  V30 18 H -4.6161 -0.854966 -0.236592 0
M  V30 19 H -4.09083 -1.36011 1.41096 0
M  V30 20 H -2.83839 2.14198 -1.86814 0
M  V30 21 H -3.56367 2.34039 -0.224265 0
M  V30 22 H -4.17579 1.10078 -1.34899 0
M  V30 23 H 2.15312 -2.34457 0.0917495 0
M  V30 24 H 0.703311 -2.40598 1.1838 0
M  V30 25 H 2.18372 -1.50416 1.68076 0
M  V30 END ATOM
M  V30 BEGIN BOND
M  V30 1 1 1 2
M  V30 2 1 2 3
M  V30 3 2 3 4 CFG=2
M  V30 4 1 4 5
M  V30 5 2 5 6
M  V30 6 1 6 7
M  V30 7 1 7 8
M  V30 8 2 8 9
M  V30 9 1 8 10
M  V30 10 1 7 11
M  V30 11 1 4 12
M  V30 12 1 9 5
M  V30 13 1 1 13
M  V30 14 1 1 14
M  V30 15 1 2 15
M  V30 16 1 2 16
M  V30 17 1 3 17
M  V30 18 1 10 18
M  V30 19 1 10 19
M  V30 20 1 11 20
M  V30 21 1 11 21
M  V30 22 1 11 22
M  V30 23 1 12 23
M  V30 24 1 12 24
M  V30 25 1 12 25
M  V30 END BOND
M  V30 END CTAB
M  END
