
     RDKit          3D

  0  0  0  0  0  0  0  0  0  0999 V3000
M  V30 BEGIN CTAB
M  V30 COUNTS 18 19 0 0 0
M  V30 BEGIN ATOM
M  V30 1 N -2.05173 2.64514 1.11259 0
M  V30 2 C -1.30814 1.52564 0.653767 0
M  V30 3 N -1.9174 0.494264 0.004424 0
M  V30 4 C -1.24252 -0.575954 -0.440504 0
M  V30 5 N -1.92872 -1.62102 -1.11054 0
M  V30 6 C 0.116772 -0.675022 -0.254611 0
M  V30 7 C 0.745736 0.362192 0.401258 0
M  V30 8 N 0.0209015 1.40985 0.825563 0
M  V30 9 N 2.05589 0.0200887 0.450686 0
M  V30 10 C 2.26051 -1.16082 -0.134817 0
M  V30 11 N 1.0633 -1.58428 -0.567266 0
M  V30 12 S 3.79861 -2.06773 -0.342651 0
M  V30 13 H -2.4887 3.25121 0.394234 0
M  V30 14 H -2.17918 2.88485 2.10352 0
M  V30 15 H -1.76933 -2.6044 -0.803749 0
M  V30 16 H -2.59347 -1.47758 -1.90212 0
M  V30 17 H 2.78628 0.599888 0.883636 0
M  V30 18 H 4.63119 -1.4263 -1.27342 0
M  V30 END ATOM
M  V30 BEGIN BOND
M  V30 1 1 1 2
M  V30 2 2 2 3
M  V30 3 1 3 4
M  V30 4 1 4 5
M  V30 5 2 4 6
M  V30 6 1 6 7
M  V30 7 2 7 8
M  V30 8 1 7 9
M  V30 9 1 9 10
M  V30 10 2 10 11
M  V30 11 1 10 12
M  V30 12 1 8 2
M  V30 13 1 11 6
M  V30 14 1 1 13
M  V30 15 1 1 14
M  V30 16 1 5 15
M  V30 17 1 5 16
M  V30 18 1 9 17
M  V30 19 1 12 18
M  V30 END BOND
M  V30 END CTAB
M  END
