
     RDKit          3D

  0  0  0  0  0  0  0  0  0  0999 V3000
M  V30 BEGIN CTAB
M  V30 COUNTS 57 59 0 0 0
M  V30 BEGIN ATOM
M  V30 1 C -4.82918 -1.83715 -0.851822 0
M  V30 2 C -4.6487 -0.404804 -0.569851 0
M  V30 3 C -3.44709 0.224036 -0.75257 0
M  V30 4 C -2.25524 -0.756601 -0.663444 0
M  V30 5 N -1.02066 -0.117417 -0.988888 0
M  V30 6 C 0.149893 -0.520114 -0.322043 0
M  V30 7 C 0.873048 0.354186 0.413734 0
M  V30 8 C 2.00363 -0.134612 1.10517 0
M  V30 9 C 2.34236 -1.45076 0.980994 0
M  V30 10 C 1.58498 -2.34577 0.241782 0
M  V30 11 C 0.493239 -1.85395 -0.388266 0
M  V30 12 C 3.71634 -1.97621 1.37457 0
M  V30 13 O 4.10131 -2.6882 2.07615 0
M  V30 14 N 4.43161 -1.12273 0.449135 0
M  V30 15 C 5.17393 -0.382865 -0.365003 0
M  V30 16 C 6.49735 -0.608919 -0.955315 0
M  V30 17 C 7.72246 -0.517077 -0.202009 0
M  V30 18 C 8.06029 0.99909 -0.289558 0
M  V30 19 O 8.92042 1.49784 0.802763 0
M  V30 20 O 7.68188 1.69454 -1.14665 0
M  V30 21 C 5.14996 1.01396 0.277276 0
M  V30 22 O 5.7422 1.52452 1.34713 0
M  V30 23 O 4.33437 1.90311 -0.325493 0
M  V30 24 C -3.16187 1.52729 -0.739112 0
M  V30 25 C -4.24282 2.35788 -0.466454 0
M  V30 26 C -5.46378 1.82962 -0.23926 0
M  V30 27 C -5.69271 0.464359 -0.284363 0
M  V30 28 C -6.92101 0.029401 0.116981 0
M  V30 29 N -7.188 -1.35711 0.262432 0
M  V30 30 N -7.86054 0.858119 0.531787 0
M  V30 31 C -7.65952 2.18085 0.577771 0
M  V30 32 N -8.64525 3.08046 1.21999 0
M  V30 33 N -6.48646 2.64562 0.198218 0
M  V30 34 H -4.3604 -2.52322 -0.176608 0
M  V30 35 H -5.76779 -2.2047 -1.33707 0
M  V30 36 H -4.15833 -1.91583 -1.83068 0
M  V30 37 H -2.19594 -0.811553 0.534952 0
M  V30 38 H -2.46087 -1.76689 -0.933942 0
M  V30 39 H -0.942484 0.642815 -1.72878 0
M  V30 40 H 0.652659 1.39575 0.440125 0
M  V30 41 H 2.53874 0.511952 1.82376 0
M  V30 42 H 1.85656 -3.36445 0.223856 0
M  V30 43 H -0.12142 -2.52676 -0.990044 0
M  V30 44 H 5.57714 -1.79629 0.845827 0
M  V30 45 H 4.50201 -0.365465 -1.36084 0
M  V30 46 H 6.59318 0.0358636 -1.96229 0
M  V30 47 H 6.40704 -1.70149 -1.42937 0
M  V30 48 H 8.64546 -1.03508 -0.623345 0
M  V30 49 H 7.64666 -0.674065 0.852717 0
M  V30 50 H 9.61383 2.21069 0.466873 0
M  V30 51 H 5.2481 1.37998 2.26186 0
M  V30 52 H -2.20202 1.90455 -0.901264 0
M  V30 53 H -4.08175 3.44311 -0.469022 0
M  V30 54 H -6.64864 -1.82873 0.997262 0
M  V30 55 H -7.90722 -1.78765 -0.310323 0
M  V30 56 H -8.92166 2.77918 2.17248 0
M  V30 57 H -8.96933 3.88767 0.721805 0
M  V30 END ATOM
M  V30 BEGIN BOND
M  V30 1 1 1 2
M  V30 2 2 2 3
M  V30 3 1 3 4
M  V30 4 1 4 5
M  V30 5 1 5 6
M  V30 6 2 6 7
M  V30 7 1 7 8
M  V30 8 2 8 9
M  V30 9 1 9 10
M  V30 10 2 10 11
M  V30 11 1 9 12
M  V30 12 2 12 13
M  V30 13 1 12 14
M  V30 14 1 14 15
M  V30 15 1 15 16
M  V30 16 1 16 17
M  V30 17 1 17 18
M  V30 18 1 18 19
M  V30 19 2 18 20
M  V30 20 1 15 21
M  V30 21 1 21 22
M  V30 22 2 21 23
M  V30 23 1 3 24
M  V30 24 2 24 25
M  V30 25 1 25 26
M  V30 26 2 26 27
M  V30 27 1 27 28
M  V30 28 1 28 29
M  V30 29 2 28 30
M  V30 30 1 30 31
M  V30 31 1 31 32
M  V30 32 2 31 33
M  V30 33 1 27 2
M  V30 34 1 11 6
M  V30 35 1 33 26
M  V30 36 1 1 34
M  V30 37 1 1 35
M  V30 38 1 1 36
M  V30 39 1 4 37
M  V30 40 1 4 38
M  V30 41 1 5 39
M  V30 42 1 7 40
M  V30 43 1 8 41
M  V30 44 1 10 42
M  V30 45 1 11 43
M  V30 46 1 14 44
M  V30 47 1 15 45
M  V30 48 1 16 46
M  V30 49 1 16 47
M  V30 50 1 17 48
M  V30 51 1 17 49
M  V30 52 1 19 50
M  V30 53 1 22 51
M  V30 54 1 24 52
M  V30 55 1 25 53
M  V30 56 1 29 54
M  V30 57 1 29 55
M  V30 58 1 32 56
M  V30 59 1 32 57
M  V30 END BOND
M  V30 END CTAB
M  END
