
     RDKit          3D

  0  0  0  0  0  0  0  0  0  0999 V3000
M  V30 BEGIN CTAB
M  V30 COUNTS 45 46 0 0 0
M  V30 BEGIN ATOM
M  V30 1 N -2.09611 1.55649 2.00369 0
M  V30 2 C -1.52543 0.517483 1.20763 0 CFG=2
M  V30 3 C -0.00912613 0.708763 1.01547 0
M  V30 4 N 0.225221 -0.23542 -0.0486812 0
M  V30 5 C -0.965035 -0.293813 -0.915047 0
M  V30 6 C -1.93994 0.621024 -0.267228 0 CFG=1
M  V30 7 C -3.34856 0.250436 -0.457699 0
M  V30 8 C -3.87669 -0.970814 -0.122624 0
M  V30 9 C -5.20987 -1.23894 -0.333884 0
M  V30 10 C -6.0751 -0.316415 -0.8828 0
M  V30 11 C -5.5503 0.916396 -1.22299 0
M  V30 12 C -4.21001 1.17704 -1.00726 0
M  V30 13 C 1.39692 -0.99915 -0.249225 0
M  V30 14 O 1.46401 -1.83001 -1.22042 0
M  V30 15 C 2.57907 -0.893174 0.624512 0 CFG=2
M  V30 16 C 3.63028 0.048821 0.0155446 0
M  V30 17 C 4.07124 -0.498641 -1.34896 0
M  V30 18 C 3.0799 1.40791 -0.226608 0
M  V30 19 C 4.86407 0.062358 0.878967 0
M  V30 20 N 3.1916 -2.25495 0.607999 0
M  V30 21 H -2.91922 1.1569 2.51495 0
M  V30 22 H -1.46002 1.97734 2.69714 0
M  V30 23 H -1.65528 -0.494509 1.58983 0
M  V30 24 H 0.0857933 1.74888 0.619422 0
M  V30 25 H 0.54947 0.518818 1.92826 0
M  V30 26 H -1.26974 -1.36936 -0.899038 0
M  V30 27 H -0.708341 -0.0327492 -1.9538 0
M  V30 28 H -1.7495 1.63921 -0.605194 0
M  V30 29 H -3.2208 -1.70682 0.307264 0
M  V30 30 H -5.60472 -2.2063 -0.0629639 0
M  V30 31 H -7.11256 -0.583088 -1.02541 0
M  V30 32 H -6.22543 1.65012 -1.65654 0
M  V30 33 H -3.86211 2.17127 -1.29926 0
M  V30 34 H 2.39488 -0.543746 1.63556 0
M  V30 35 H 3.27966 -0.420916 -2.10168 0
M  V30 36 H 4.90994 0.154318 -1.69819 0
M  V30 37 H 4.50175 -1.5015 -1.23636 0
M  V30 38 H 2.26849 1.4273 -0.96182 0
M  V30 39 H 3.89825 2.03439 -0.696629 0
M  V30 40 H 2.80655 1.96707 0.698594 0
M  V30 41 H 4.8205 0.83233 1.67419 0
M  V30 42 H 5.01781 -0.956834 1.27087 0
M  V30 43 H 5.74448 0.27796 0.223401 0
M  V30 44 H 2.73002 -2.82206 1.32605 0
M  V30 45 H 3.08397 -2.65343 -0.339033 0
M  V30 END ATOM
M  V30 BEGIN BOND
M  V30 1 1 1 2
M  V30 2 1 2 3
M  V30 3 1 3 4
M  V30 4 1 4 5
M  V30 5 1 5 6
M  V30 6 1 6 7
M  V30 7 2 7 8
M  V30 8 1 8 9
M  V30 9 2 9 10
M  V30 10 1 10 11
M  V30 11 2 11 12
M  V30 12 1 4 13
M  V30 13 2 13 14
M  V30 14 1 13 15
M  V30 15 1 15 16
M  V30 16 1 16 17
M  V30 17 1 16 18
M  V30 18 1 16 19
M  V30 19 1 15 20
M  V30 20 1 6 2
M  V30 21 1 12 7
M  V30 22 1 1 21
M  V30 23 1 1 22
M  V30 24 1 2 23 CFG=1
M  V30 25 1 3 24
M  V30 26 1 3 25
M  V30 27 1 5 26
M  V30 28 1 5 27
M  V30 29 1 6 28 CFG=3
M  V30 30 1 8 29
M  V30 31 1 9 30
M  V30 32 1 10 31
M  V30 33 1 11 32
M  V30 34 1 12 33
M  V30 35 1 15 34 CFG=1
M  V30 36 1 17 35
M  V30 37 1 17 36
M  V30 38 1 17 37
M  V30 39 1 18 38
M  V30 40 1 18 39
M  V30 41 1 18 40
M  V30 42 1 19 41
M  V30 43 1 19 42
M  V30 44 1 19 43
M  V30 45 1 20 44
M  V30 46 1 20 45
M  V30 END BOND
M  V30 END CTAB
M  END
