
     RDKit          3D

  0  0  0  0  0  0  0  0  0  0999 V3000
M  V30 BEGIN CTAB
M  V30 COUNTS 32 33 0 0 0
M  V30 BEGIN ATOM
M  V30 1 Br 6.46937 -2.86465 -0.104458 0
M  V30 2 C 5.21387 -1.41877 -0.108916 0
M  V30 3 C 5.49538 -0.338984 0.712023 0
M  V30 4 C 4.62061 0.725793 0.743068 0
M  V30 5 C 3.44863 0.757557 -0.0300985 0
M  V30 6 C 3.22233 -0.328016 -0.818392 0
M  V30 7 C 4.08656 -1.41477 -0.868776 0
M  V30 8 O 2.66253 1.8343 0.0638932 0
M  V30 9 C 1.45689 2.141 -0.533233 0
M  V30 10 C 0.358289 1.21964 -0.112168 0
M  V30 11 S -1.1594 1.73664 -0.977004 0
M  V30 12 C -2.53374 0.687805 -0.533842 0
M  V30 13 N -2.45237 -0.332526 0.314965 0
M  V30 14 C -3.51761 -1.09622 0.618627 0
M  V30 15 N -3.44314 -2.19 1.52478 0
M  V30 16 C -4.74472 -0.834443 0.0456225 0
M  V30 17 C -4.82767 0.221156 -0.832161 0
M  V30 18 N -3.72462 0.946517 -1.0937 0
M  V30 19 N -6.05975 0.533917 -1.44785 0
M  V30 20 H 6.37525 -0.322671 1.31594 0
M  V30 21 H 4.86716 1.55532 1.39419 0
M  V30 22 H 2.37045 -0.395735 -1.46352 0
M  V30 23 H 3.90078 -2.2794 -1.49938 0
M  V30 24 H 1.52869 2.08342 -1.66931 0
M  V30 25 H 1.17065 3.21769 -0.371539 0
M  V30 26 H 0.528042 0.178671 -0.313521 0
M  V30 27 H 0.107748 1.35789 0.987427 0
M  V30 28 H -3.99062 -2.27582 2.39798 0
M  V30 29 H -2.78191 -2.95839 1.27865 0
M  V30 30 H -5.6272 -1.44692 0.280879 0
M  V30 31 H -6.92961 0.648723 -0.902497 0
M  V30 32 H -6.09089 0.651265 -2.47528 0
M  V30 END ATOM
M  V30 BEGIN BOND
M  V30 1 1 1 2
M  V30 2 2 2 3
M  V30 3 1 3 4
M  V30 4 2 4 5
M  V30 5 1 5 6
M  V30 6 2 6 7
M  V30 7 1 5 8
M  V30 8 1 8 9
M  V30 9 1 9 10
M  V30 10 1 10 11
M  V30 11 1 11 12
M  V30 12 2 12 13
M  V30 13 1 13 14
M  V30 14 1 14 15
M  V30 15 2 14 16
M  V30 16 1 16 17
M  V30 17 2 17 18
M  V30 18 1 17 19
M  V30 19 1 7 2
M  V30 20 1 18 12
M  V30 21 1 3 20
M  V30 22 1 4 21
M  V30 23 1 6 22
M  V30 24 1 7 23
M  V30 25 1 9 24
M  V30 26 1 9 25
M  V30 27 1 10 26
M  V30 28 1 10 27
M  V30 29 1 15 28
M  V30 30 1 15 29
M  V30 31 1 16 30
M  V30 32 1 19 31
M  V30 33 1 19 32
M  V30 END BOND
M  V30 END CTAB
M  END
