
     RDKit          3D

  0  0  0  0  0  0  0  0  0  0999 V3000
M  V30 BEGIN CTAB
M  V30 COUNTS 37 39 0 0 0
M  V30 BEGIN ATOM
M  V30 1 O -2.91383 -1.04262 0.150362 0
M  V30 2 C -2.15841 -0.0386284 0.214155 0
M  V30 3 C -0.732073 -0.248524 0.119111 0
M  V30 4 C -0.203039 -1.43741 -0.0298619 0
M  V30 5 C 1.25152 -1.6158 -0.123137 0
M  V30 6 N 1.89328 -2.78743 -0.276268 0
M  V30 7 N 3.19616 -2.56023 -0.320158 0
M  V30 8 C 3.36784 -1.23355 -0.193078 0
M  V30 9 O 2.17327 -0.708365 -0.0776837 0
M  V30 10 C 4.65217 -0.524256 -0.186615 0
M  V30 11 C 5.82818 -1.22101 -0.318618 0
M  V30 12 C 7.05621 -0.573803 -0.315611 0
M  V30 13 C 7.12447 0.802702 -0.178102 0
M  V30 14 C 5.93864 1.50095 -0.045437 0
M  V30 15 C 4.70362 0.842831 -0.049204 0
M  V30 16 Br 8.81151 1.69377 -0.173741 0
M  V30 17 N -1.05646 -2.57382 -0.10212 0
M  V30 18 C -2.73683 1.32008 0.383044 0
M  V30 19 N -4.18679 1.22061 0.44768 0
M  V30 20 N -4.93523 1.05853 1.52962 0
M  V30 21 C -6.24698 1.01107 1.18516 0
M  V30 22 C -6.33509 1.15144 -0.197482 0
M  V30 23 C -5.026 1.27918 -0.614899 0
M  V30 24 N -7.52376 1.15928 -0.991183 0
M  V30 25 H -0.0683545 0.606445 0.172384 0
M  V30 26 H 5.76239 -2.30359 -0.426139 0
M  V30 27 H 7.97905 -1.13401 -0.420582 0
M  V30 28 H 6.00788 2.57852 0.0614019 0
M  V30 29 H 3.78796 1.40871 0.0559828 0
M  V30 30 H -1.45239 -3.04488 0.739854 0
M  V30 31 H -1.31052 -2.97022 -1.0292 0
M  V30 32 H -2.49318 1.9515 -0.500033 0
M  V30 33 H -2.39558 1.7885 1.32916 0
M  V30 34 H -7.10021 0.889013 1.82465 0
M  V30 35 H -4.72996 1.40751 -1.65102 0
M  V30 36 H -8.13739 1.99924 -0.967477 0
M  V30 37 H -7.79206 0.348224 -1.59179 0
M  V30 END ATOM
M  V30 BEGIN BOND
M  V30 1 2 1 2
M  V30 2 1 2 3
M  V30 3 2 3 4
M  V30 4 1 4 5
M  V30 5 2 5 6
M  V30 6 1 6 7
M  V30 7 2 7 8
M  V30 8 1 8 9
M  V30 9 1 8 10
M  V30 10 2 10 11
M  V30 11 1 11 12
M  V30 12 2 12 13
M  V30 13 1 13 14
M  V30 14 2 14 15
M  V30 15 1 13 16
M  V30 16 1 4 17
M  V30 17 1 2 18
M  V30 18 1 18 19
M  V30 19 1 19 20
M  V30 20 2 20 21
M  V30 21 1 21 22
M  V30 22 2 22 23
M  V30 23 1 22 24
M  V30 24 1 9 5
M  V30 25 1 15 10
M  V30 26 1 23 19
M  V30 27 1 3 25
M  V30 28 1 11 26
M  V30 29 1 12 27
M  V30 30 1 14 28
M  V30 31 1 15 29
M  V30 32 1 17 30
M  V30 33 1 17 31
M  V30 34 1 18 32
M  V30 35 1 18 33
M  V30 36 1 21 34
M  V30 37 1 23 35
M  V30 38 1 24 36
M  V30 39 1 24 37
M  V30 END BOND
M  V30 END CTAB
M  END
