
     RDKit          3D

  0  0  0  0  0  0  0  0  0  0999 V3000
M  V30 BEGIN CTAB
M  V30 COUNTS 24 25 0 0 0
M  V30 BEGIN ATOM
M  V30 1 N -2.84649 -2.43037 -0.151706 0
M  V30 2 C -2.21368 -1.16182 -0.137628 0
M  V30 3 N -2.91877 -0.00427119 -0.130859 0
M  V30 4 C -2.2799 1.17479 -0.117534 0
M  V30 5 N -3.04423 2.36699 -0.110735 0
M  V30 6 N -0.93912 1.20396 -0.110926 0
M  V30 7 C -0.177875 0.0971189 -0.116987 0
M  V30 8 C -0.82408 -1.1215 -0.130694 0
M  V30 9 N 1.2402 0.0881429 -0.110338 0
M  V30 10 C 2.17505 -0.987475 -0.115119 0
M  V30 11 C 3.37396 -0.416467 0.59744 0
M  V30 12 C 3.28298 0.909476 0.597086 0
M  V30 13 C 2.05143 1.3149 -0.0959525 0
M  V30 14 H -2.97012 -2.98157 -1.02627 0
M  V30 15 H -3.19991 -2.82384 0.745589 0
M  V30 16 H -3.85661 2.55105 -0.735311 0
M  V30 17 H -2.74401 3.1042 0.589819 0
M  V30 18 H -0.283249 -2.07088 -0.136425 0
M  V30 19 H 1.8051 -1.87362 0.437049 0
M  V30 20 H 2.46925 -1.31753 -1.13248 0
M  V30 21 H 4.16506 -1.02165 1.02912 0
M  V30 22 H 4.01159 1.5781 1.04274 0
M  V30 23 H 1.50232 2.12677 0.443662 0
M  V30 24 H 2.22109 1.6955 -1.12355 0
M  V30 END ATOM
M  V30 BEGIN BOND
M  V30 1 1 1 2
M  V30 2 2 2 3
M  V30 3 1 3 4
M  V30 4 1 4 5
M  V30 5 2 4 6
M  V30 6 1 6 7
M  V30 7 2 7 8
M  V30 8 1 7 9
M  V30 9 1 9 10
M  V30 10 1 10 11
M  V30 11 2 11 12
M  V30 12 1 12 13
M  V30 13 1 8 2
M  V30 14 1 13 9
M  V30 15 1 1 14
M  V30 16 1 1 15
M  V30 17 1 5 16
M  V30 18 1 5 17
M  V30 19 1 8 18
M  V30 20 1 10 19
M  V30 21 1 10 20
M  V30 22 1 11 21
M  V30 23 1 12 22
M  V30 24 1 13 23
M  V30 25 1 13 24
M  V30 END BOND
M  V30 END CTAB
M  END
