
     RDKit          3D

  0  0  0  0  0  0  0  0  0  0999 V3000
M  V30 BEGIN CTAB
M  V30 COUNTS 45 47 0 0 0
M  V30 BEGIN ATOM
M  V30 1 C -7.54014 1.70303 1.69148 0
M  V30 2 C -6.07487 2.01054 1.47634 0
M  V30 3 O -5.49905 1.00387 0.702922 0
M  V30 4 C -4.16435 0.982513 0.322769 0
M  V30 5 C -3.31638 1.99602 0.708843 0
M  V30 6 C -1.97071 1.9902 0.335005 0
M  V30 7 C -1.45376 0.971589 -0.429785 0
M  V30 8 C -2.29935 -0.040356 -0.815578 0
M  V30 9 C -3.64428 -0.0374847 -0.44372 0
M  V30 10 O -4.52209 -1.0447 -0.817827 0
M  V30 11 C -4.08313 -2.12812 -1.60168 0
M  V30 12 C -0.0547485 0.936111 -0.835897 0
M  V30 13 S 1.12134 2.10718 -0.440649 0
M  V30 14 C 2.45837 1.40294 -1.24136 0
M  V30 15 C 1.89789 0.272667 -1.78011 0
M  V30 16 N 0.627678 0.0745512 -1.55239 0
M  V30 17 C 2.74483 -0.706761 -2.59033 0
M  V30 18 S 3.27595 -2.12674 -1.68437 0
M  V30 19 C 4.43954 -1.71951 -0.417681 0
M  V30 20 N 4.92098 -2.7224 0.364174 0
M  V30 21 C 5.79683 -2.56754 1.34115 0
M  V30 22 N 6.30454 -3.6087 2.16188 0
M  V30 23 C 6.27133 -1.28032 1.59965 0
M  V30 24 C 5.80406 -0.242688 0.826289 0
M  V30 25 N 4.91457 -0.50657 -0.141919 0
M  V30 26 N 6.25922 1.07923 1.05354 0
M  V30 27 H -8.11849 2.65104 1.7914 0
M  V30 28 H -7.98314 1.14672 0.8474 0
M  V30 29 H -7.71532 1.14559 2.64188 0
M  V30 30 H -6.03842 2.95127 0.877489 0
M  V30 31 H -5.61839 2.1416 2.47297 0
M  V30 32 H -3.72475 2.79305 1.30818 0
M  V30 33 H -1.3142 2.79234 0.644556 0
M  V30 34 H -1.92721 -0.862538 -1.42042 0
M  V30 35 H -4.91357 -2.69783 -2.05091 0
M  V30 36 H -3.48629 -2.83785 -0.992678 0
M  V30 37 H -3.48419 -1.6886 -2.4452 0
M  V30 38 H 3.48904 1.78351 -1.30834 0
M  V30 39 H 3.62628 -0.166009 -2.99127 0
M  V30 40 H 2.14646 -1.00773 -3.49799 0
M  V30 41 H 6.41105 -3.46292 3.19056 0
M  V30 42 H 6.57847 -4.53574 1.7456 0
M  V30 43 H 6.98918 -1.11303 2.39132 0
M  V30 44 H 6.52914 1.39305 2.01118 0
M  V30 45 H 6.34008 1.77553 0.285849 0
M  V30 END ATOM
M  V30 BEGIN BOND
M  V30 1 1 1 2
M  V30 2 1 2 3
M  V30 3 1 3 4
M  V30 4 2 4 5
M  V30 5 1 5 6
M  V30 6 2 6 7
M  V30 7 1 7 8
M  V30 8 2 8 9
M  V30 9 1 9 10
M  V30 10 1 10 11
M  V30 11 1 7 12
M  V30 12 1 12 13
M  V30 13 1 13 14
M  V30 14 2 14 15
M  V30 15 1 15 16
M  V30 16 1 15 17
M  V30 17 1 17 18
M  V30 18 1 18 19
M  V30 19 2 19 20
M  V30 20 1 20 21
M  V30 21 1 21 22
M  V30 22 2 21 23
M  V30 23 1 23 24
M  V30 24 2 24 25
M  V30 25 1 24 26
M  V30 26 1 9 4
M  V30 27 2 16 12
M  V30 28 1 25 19
M  V30 29 1 1 27
M  V30 30 1 1 28
M  V30 31 1 1 29
M  V30 32 1 2 30
M  V30 33 1 2 31
M  V30 34 1 5 32
M  V30 35 1 6 33
M  V30 36 1 8 34
M  V30 37 1 11 35
M  V30 38 1 11 36
M  V30 39 1 11 37
M  V30 40 1 14 38
M  V30 41 1 17 39
M  V30 42 1 17 40
M  V30 43 1 22 41
M  V30 44 1 22 42
M  V30 45 1 23 43
M  V30 46 1 26 44
M  V30 47 1 26 45
M  V30 END BOND
M  V30 END CTAB
M  END
