
     RDKit          3D

  0  0  0  0  0  0  0  0  0  0999 V3000
M  V30 BEGIN CTAB
M  V30 COUNTS 58 61 0 0 0
M  V30 BEGIN ATOM
M  V30 1 C -2.51066 4.45569 -0.549904 0
M  V30 2 C -1.68741 3.46829 -1.36892 0
M  V30 3 O -1.44451 2.30809 -0.605814 0
M  V30 4 C -2.42465 1.51727 -0.116774 0
M  V30 5 O -3.62277 1.9222 -0.413229 0
M  V30 6 C -2.35302 0.303592 0.676666 0
M  V30 7 C -1.26833 -0.29326 1.09935 0
M  V30 8 C 0.0743268 0.27133 0.770973 0
M  V30 9 S 0.983804 -1.0301 -0.178448 0
M  V30 10 C 2.60345 -0.447057 -0.616372 0
M  V30 11 N 2.82197 0.209257 -1.76003 0
M  V30 12 C 4.02551 0.664264 -2.12219 0
M  V30 13 N 4.2454 1.35732 -3.33674 0
M  V30 14 C 5.08058 0.420801 -1.23201 0
M  V30 15 C 4.94203 -0.240655 -0.0517513 0
M  V30 16 C 3.66637 -0.686331 0.265081 0
M  V30 17 C 3.35697 -1.40789 1.45042 0
M  V30 18 N 3.07102 -2.0144 2.41478 0
M  V30 19 C 6.03932 -0.598837 0.847062 0
M  V30 20 C 7.36277 -0.856958 0.622608 0
M  V30 21 C 8.12471 -1.23733 1.65866 0
M  V30 22 C 7.53256 -1.34659 2.8788 0
M  V30 23 S 5.93173 -0.917193 2.55417 0
M  V30 24 C 6.3381 1.0023 -1.60939 0
M  V30 25 N 7.35004 1.51507 -1.92733 0
M  V30 26 O -1.26665 -1.47837 1.87501 0
M  V30 27 C -2.43815 -2.06985 2.22664 0
M  V30 28 C -3.57139 -1.53662 1.84096 0
M  V30 29 C -3.68859 -0.32501 1.03975 0
M  V30 30 C -4.4589 -0.597953 -0.21376 0
M  V30 31 C -3.83403 -1.22901 -1.25003 0
M  V30 32 C -4.57666 -1.4881 -2.39838 0
M  V30 33 C -5.89884 -1.11944 -2.48543 0
M  V30 34 C -6.48672 -0.484265 -1.41269 0
M  V30 35 C -5.7795 -0.211238 -0.2571 0
M  V30 36 C -4.79259 -2.19796 2.23911 0
M  V30 37 N -5.79247 -2.71889 2.55105 0
M  V30 38 N -2.4764 -3.27775 3.01857 0
M  V30 39 H -3.50266 4.61034 -1.02859 0
M  V30 40 H -2.62909 4.14443 0.488711 0
M  V30 41 H -1.98921 5.43491 -0.552214 0
M  V30 42 H -2.30569 3.13706 -2.24511 0
M  V30 43 H -0.756077 3.92314 -1.71252 0
M  V30 44 H 0.615826 0.412261 1.75907 0
M  V30 45 H 0.114458 1.14123 0.159242 0
M  V30 46 H 4.26272 2.38593 -3.3279 0
M  V30 47 H 4.38458 0.83172 -4.209 0
M  V30 48 H 7.79558 -0.792861 -0.401436 0
M  V30 49 H 9.215 -1.46745 1.57068 0
M  V30 50 H 7.9898 -1.64167 3.83353 0
M  V30 51 H -4.25253 0.416954 1.66313 0
M  V30 52 H -2.79909 -1.54412 -1.24448 0
M  V30 53 H -4.11514 -1.98371 -3.23338 0
M  V30 54 H -6.47674 -1.31088 -3.35503 0
M  V30 55 H -7.52282 -0.192224 -1.4735 0
M  V30 56 H -6.23491 0.284276 0.582079 0
M  V30 57 H -2.07686 -3.258 3.96442 0
M  V30 58 H -2.89558 -4.13577 2.63892 0
M  V30 END ATOM
M  V30 BEGIN BOND
M  V30 1 1 1 2
M  V30 2 1 2 3
M  V30 3 1 3 4
M  V30 4 2 4 5
M  V30 5 1 4 6
M  V30 6 2 6 7
M  V30 7 1 7 8
M  V30 8 1 8 9
M  V30 9 1 9 10
M  V30 10 2 10 11
M  V30 11 1 11 12
M  V30 12 1 12 13
M  V30 13 2 12 14
M  V30 14 1 14 15
M  V30 15 2 15 16
M  V30 16 1 16 17
M  V30 17 3 17 18
M  V30 18 1 15 19
M  V30 19 2 19 20
M  V30 20 1 20 21
M  V30 21 2 21 22
M  V30 22 1 22 23
M  V30 23 1 14 24
M  V30 24 3 24 25
M  V30 25 1 7 26
M  V30 26 1 26 27
M  V30 27 2 27 28
M  V30 28 1 28 29
M  V30 29 1 29 30
M  V30 30 2 30 31
M  V30 31 1 31 32
M  V30 32 2 32 33
M  V30 33 1 33 34
M  V30 34 2 34 35
M  V30 35 1 28 36
M  V30 36 3 36 37
M  V30 37 1 27 38
M  V30 38 1 29 6
M  V30 39 1 35 30
M  V30 40 1 16 10
M  V30 41 1 23 19
M  V30 42 1 1 39
M  V30 43 1 1 40
M  V30 44 1 1 41
M  V30 45 1 2 42
M  V30 46 1 2 43
M  V30 47 1 8 44
M  V30 48 1 8 45
M  V30 49 1 13 46
M  V30 50 1 13 47
M  V30 51 1 20 48
M  V30 52 1 21 49
M  V30 53 1 22 50
M  V30 54 1 29 51
M  V30 55 1 31 52
M  V30 56 1 32 53
M  V30 57 1 33 54
M  V30 58 1 34 55
M  V30 59 1 35 56
M  V30 60 1 38 57
M  V30 61 1 38 58
M  V30 END BOND
M  V30 END CTAB
M  END
