
     RDKit          3D

  0  0  0  0  0  0  0  0  0  0999 V3000
M  V30 BEGIN CTAB
M  V30 COUNTS 40 42 0 0 0
M  V30 BEGIN ATOM
M  V30 1 C 0.672971 -2.84046 0.439542 0
M  V30 2 C 1.2297 -1.63763 -0.29056 0
M  V30 3 C 0.814207 -0.361728 0.433299 0
M  V30 4 C -0.662375 -0.249835 0.484875 0
M  V30 5 O -1.28458 -0.186278 1.57913 0
M  V30 6 N -1.39654 -0.213054 -0.712407 0
M  V30 7 C -2.82912 -0.105946 -0.699902 0
M  V30 8 N -3.58019 -0.0318706 0.375136 0
M  V30 9 C -4.87469 0.0614253 0.257836 0
M  V30 10 C -5.39814 0.0779187 -1.00793 0
M  V30 11 S -3.96656 -0.0442115 -1.96374 0
M  V30 12 C -6.76944 0.174032 -1.27408 0
M  V30 13 C -7.68262 0.259116 -0.24338 0
M  V30 14 C -7.14466 0.241649 1.0255 0
M  V30 15 C -5.81429 0.148757 1.30621 0
M  V30 16 S 1.46172 1.09001 -0.424851 0
M  V30 17 C 3.23007 1.14699 -0.329457 0
M  V30 18 N 3.92181 0.200265 0.317255 0
M  V30 19 C 5.25986 0.208567 0.412392 0
M  V30 20 N 5.98441 -0.786392 1.09291 0
M  V30 21 C 5.94305 1.26233 -0.198641 0
M  V30 22 C 5.22142 2.22484 -0.857606 0
M  V30 23 N 3.88906 2.17407 -0.925516 0
M  V30 24 N 5.93282 3.29169 -1.47493 0
M  V30 25 H -0.276959 -2.5677 0.982417 0
M  V30 26 H 0.447601 -3.61993 -0.322337 0
M  V30 27 H 1.40009 -3.24366 1.17738 0
M  V30 28 H 0.840177 -1.63099 -1.32588 0
M  V30 29 H 2.31538 -1.72347 -0.307926 0
M  V30 30 H 1.246 -0.402236 1.45715 0
M  V30 31 H -0.884701 -0.265388 -1.61948 0
M  V30 32 H -7.05177 0.176658 -2.31288 0
M  V30 33 H -8.7401 0.333675 -0.423033 0
M  V30 34 H -7.90218 0.31105 1.82546 0
M  V30 35 H -5.48592 0.142863 2.34766 0
M  V30 36 H 5.7085 -1.11372 2.04022 0
M  V30 37 H 6.81931 -1.2173 0.654453 0
M  V30 38 H 7.02643 1.3192 -0.15297 0
M  V30 39 H 6.96818 3.31537 -1.51993 0
M  V30 40 H 5.41208 4.08133 -1.89981 0
M  V30 END ATOM
M  V30 BEGIN BOND
M  V30 1 1 1 2
M  V30 2 1 2 3
M  V30 3 1 3 4
M  V30 4 2 4 5
M  V30 5 1 4 6
M  V30 6 1 6 7
M  V30 7 2 7 8
M  V30 8 1 8 9
M  V30 9 2 9 10
M  V30 10 1 10 11
M  V30 11 1 10 12
M  V30 12 2 12 13
M  V30 13 1 13 14
M  V30 14 2 14 15
M  V30 15 1 3 16
M  V30 16 1 16 17
M  V30 17 2 17 18
M  V30 18 1 18 19
M  V30 19 1 19 20
M  V30 20 2 19 21
M  V30 21 1 21 22
M  V30 22 2 22 23
M  V30 23 1 22 24
M  V30 24 1 11 7
M  V30 25 1 23 17
M  V30 26 1 15 9
M  V30 27 1 1 25
M  V30 28 1 1 26
M  V30 29 1 1 27
M  V30 30 1 2 28
M  V30 31 1 2 29
M  V30 32 1 3 30
M  V30 33 1 6 31
M  V30 34 1 12 32
M  V30 35 1 13 33
M  V30 36 1 14 34
M  V30 37 1 15 35
M  V30 38 1 20 36
M  V30 39 1 20 37
M  V30 40 1 21 38
M  V30 41 1 24 39
M  V30 42 1 24 40
M  V30 END BOND
M  V30 END CTAB
M  END
