
     RDKit          3D

  0  0  0  0  0  0  0  0  0  0999 V3000
M  V30 BEGIN CTAB
M  V30 COUNTS 64 72 0 0 0
M  V30 BEGIN ATOM
M  V30 1 C 5.63654 2.33501 0.0378215 0
M  V30 2 C 4.90446 1.03108 -0.309372 0 CFG=1
M  V30 3 O 5.35638 0.125283 0.638408 0
M  V30 4 C 4.59335 -0.969687 0.874493 0 CFG=2
M  V30 5 C 5.47144 -2.22413 0.974848 0
M  V30 6 C 3.53808 -1.24659 -0.131078 0 CFG=1
M  V30 7 N 4.08901 -1.52146 -1.4572 0
M  V30 8 O 2.70564 -2.29714 0.221335 0
M  V30 9 C 1.33149 -2.31136 0.204741 0
M  V30 10 C 0.621126 -1.15677 -0.017025 0
M  V30 11 C -0.759558 -1.17601 -0.031619 0
M  V30 12 C -1.49316 -2.34001 0.170791 0
M  V30 13 C -0.783993 -3.49367 0.391327 0
M  V30 14 O -1.47364 -4.68481 0.599013 0
M  V30 15 C 0.60218 -3.47844 0.408057 0
M  V30 16 C -2.89228 -2.29606 0.145431 0
M  V30 17 O -3.47358 -3.39479 0.337897 0
M  V30 18 C -3.5433 -1.10826 -0.0786173 0
M  V30 19 C -2.74825 0.0224103 -0.274245 0
M  V30 20 C -1.39285 0.0237919 -0.255573 0
M  V30 21 C -0.70883 1.23446 -0.406125 0
M  V30 22 C -1.43426 2.40411 -0.566934 0
M  V30 23 O -2.81979 2.42 -0.582267 0
M  V30 24 C -3.55941 1.26011 -0.558387 0 CFG=1
M  V30 25 N -4.07773 1.05744 -1.92397 0
M  V30 26 C -4.68321 1.19864 0.442928 0 CFG=1
M  V30 27 C -5.42963 2.50044 0.409289 0
M  V30 28 O -5.54773 0.202595 0.0071053 0
M  V30 29 C -4.9968 -1.05476 -0.0949771 0 CFG=2
M  V30 30 C -5.65255 -1.97007 0.941185 0
M  V30 31 C -0.712127 3.57925 -0.713977 0
M  V30 32 C 0.667568 3.58656 -0.700587 0
M  V30 33 O 1.25157 4.71213 -0.842699 0
M  V30 34 C 1.37711 2.41434 -0.538881 0
M  V30 35 C 0.681177 1.20778 -0.38748 0
M  V30 36 C 1.34828 0.00621788 -0.225332 0
M  V30 37 C 2.70183 0.0114659 -0.217769 0
M  V30 38 C 3.45313 1.1567 -0.358385 0
M  V30 39 C 2.76559 2.37827 -0.522322 0
M  V30 40 O 3.49662 3.49472 -0.661362 0
M  V30 41 H 5.83711 2.96233 -0.833599 0
M  V30 42 H 6.67723 2.04354 0.399841 0
M  V30 43 H 5.20109 2.84062 0.91776 0
M  V30 44 H 5.34076 0.707571 -1.29982 0
M  V30 45 H 4.11322 -0.870136 1.8658 0
M  V30 46 H 4.74903 -3.08233 1.05187 0
M  V30 47 H 6.08349 -2.28136 0.0754878 0
M  V30 48 H 6.10117 -2.17706 1.88729 0
M  V30 49 H 4.05696 -2.54063 -1.64243 0
M  V30 50 H 3.57404 -0.949823 -2.1564 0
M  V30 51 H -0.963341 -5.53315 0.761035 0
M  V30 52 H 1.15552 -4.38162 0.581134 0
M  V30 53 H -5.08346 0.874102 -1.94143 0
M  V30 54 H -3.52057 0.338557 -2.43055 0
M  V30 55 H -4.24879 0.982031 1.42174 0
M  V30 56 H -6.49176 2.40322 0.70384 0
M  V30 57 H -5.349 2.90549 -0.630652 0
M  V30 58 H -4.933 3.23344 1.07195 0
M  V30 59 H -5.3371 -1.46961 -1.0893 0
M  V30 60 H -5.89032 -2.96726 0.519202 0
M  V30 61 H -4.98718 -2.11364 1.79612 0
M  V30 62 H -6.61605 -1.48708 1.26761 0
M  V30 63 H -1.24573 4.51344 -0.842395 0
M  V30 64 H 3.36676 4.41055 -0.781522 0
M  V30 END ATOM
M  V30 BEGIN BOND
M  V30 1 1 1 2
M  V30 2 1 2 3
M  V30 3 1 3 4
M  V30 4 1 4 5
M  V30 5 1 4 6
M  V30 6 1 6 7 CFG=3
M  V30 7 1 6 8
M  V30 8 1 8 9
M  V30 9 2 9 10
M  V30 10 1 10 11
M  V30 11 2 11 12
M  V30 12 1 12 13
M  V30 13 1 13 14
M  V30 14 2 13 15
M  V30 15 1 12 16
M  V30 16 2 16 17
M  V30 17 1 16 18
M  V30 18 2 18 19
M  V30 19 1 19 20
M  V30 20 2 20 21
M  V30 21 1 21 22
M  V30 22 1 22 23
M  V30 23 1 23 24
M  V30 24 1 24 25 CFG=3
M  V30 25 1 24 26
M  V30 26 1 26 27
M  V30 27 1 26 28
M  V30 28 1 28 29
M  V30 29 1 29 30
M  V30 30 2 22 31
M  V30 31 1 31 32
M  V30 32 2 32 33
M  V30 33 1 32 34
M  V30 34 1 34 35
M  V30 35 2 35 36
M  V30 36 1 36 37
M  V30 37 2 37 38
M  V30 38 1 38 39
M  V30 39 1 39 40
M  V30 40 1 38 2
M  V30 41 1 37 6
M  V30 42 1 15 9
M  V30 43 1 29 18
M  V30 44 2 39 34
M  V30 45 1 36 10
M  V30 46 1 20 11
M  V30 47 1 35 21
M  V30 48 1 24 19
M  V30 49 1 1 41
M  V30 50 1 1 42
M  V30 51 1 1 43
M  V30 52 1 2 44 CFG=3
M  V30 53 1 4 45 CFG=1
M  V30 54 1 5 46
M  V30 55 1 5 47
M  V30 56 1 5 48
M  V30 57 1 7 49
M  V30 58 1 7 50
M  V30 59 1 14 51
M  V30 60 1 15 52
M  V30 61 1 25 53
M  V30 62 1 25 54
M  V30 63 1 26 55 CFG=1
M  V30 64 1 27 56
M  V30 65 1 27 57
M  V30 66 1 27 58
M  V30 67 1 29 59 CFG=3
M  V30 68 1 30 60
M  V30 69 1 30 61
M  V30 70 1 30 62
M  V30 71 1 31 63
M  V30 72 1 40 64
M  V30 END BOND
M  V30 END CTAB
M  END
