
     RDKit          3D

  0  0  0  0  0  0  0  0  0  0999 V3000
M  V30 BEGIN CTAB
M  V30 COUNTS 35 36 0 0 0
M  V30 BEGIN ATOM
M  V30 1 N 7.05335 -0.810519 0.0940622 0
M  V30 2 N 5.74265 -0.841492 -0.370827 0
M  V30 3 C 4.73125 -1.40849 0.434469 0
M  V30 4 O 5.0708 -1.87817 1.57881 0
M  V30 5 C 3.34556 -1.49891 0.066583 0
M  V30 6 C 2.89317 -1.02416 -1.13776 0
M  V30 7 C 1.53963 -1.12417 -1.4719 0
M  V30 8 C 0.621603 -1.68783 -0.632406 0
M  V30 9 O -0.709395 -1.77213 -0.991183 0
M  V30 10 C -1.60516 -0.748138 -0.681483 0
M  V30 11 C -1.8352 0.309846 -1.53622 0
M  V30 12 C -2.71891 1.32599 -1.23765 0
M  V30 13 C -3.42242 1.30763 -0.027743 0
M  V30 14 C -3.20201 0.26037 0.830663 0
M  V30 15 C -2.29967 -0.762737 0.508811 0
M  V30 16 C -4.34196 2.39875 0.243253 0
M  V30 17 O -4.51132 3.34854 -0.586895 0
M  V30 18 N -5.10043 2.4732 1.437 0
M  V30 19 N -5.98568 3.50189 1.72344 0
M  V30 20 C 1.07327 -2.16571 0.578365 0
M  V30 21 C 2.42744 -2.0659 0.913206 0
M  V30 22 H 7.37769 0.182258 0.24131 0
M  V30 23 H 7.19854 -1.38878 0.941385 0
M  V30 24 H 5.53251 -0.445681 -1.30434 0
M  V30 25 H 3.59942 -0.575107 -1.81676 0
M  V30 26 H 1.20894 -0.747971 -2.41498 0
M  V30 27 H -1.26949 0.292495 -2.47139 0
M  V30 28 H -2.87991 2.14995 -1.934 0
M  V30 29 H -3.72733 0.224163 1.76055 0
M  V30 30 H -2.14048 -1.58725 1.20885 0
M  V30 31 H -5.00666 1.72736 2.15512 0
M  V30 32 H -5.84582 4.3122 1.08673 0
M  V30 33 H -5.97903 3.77953 2.73075 0
M  V30 34 H 0.386856 -2.62019 1.27708 0
M  V30 35 H 2.77821 -2.44085 1.86178 0
M  V30 END ATOM
M  V30 BEGIN BOND
M  V30 1 1 1 2
M  V30 2 1 2 3
M  V30 3 2 3 4
M  V30 4 1 3 5
M  V30 5 2 5 6
M  V30 6 1 6 7
M  V30 7 2 7 8
M  V30 8 1 8 9
M  V30 9 1 9 10
M  V30 10 2 10 11
M  V30 11 1 11 12
M  V30 12 2 12 13
M  V30 13 1 13 14
M  V30 14 2 14 15
M  V30 15 1 13 16
M  V30 16 2 16 17
M  V30 17 1 16 18
M  V30 18 1 18 19
M  V30 19 1 8 20
M  V30 20 2 20 21
M  V30 21 1 21 5
M  V30 22 1 15 10
M  V30 23 1 1 22
M  V30 24 1 1 23
M  V30 25 1 2 24
M  V30 26 1 6 25
M  V30 27 1 7 26
M  V30 28 1 11 27
M  V30 29 1 12 28
M  V30 30 1 14 29
M  V30 31 1 15 30
M  V30 32 1 18 31
M  V30 33 1 19 32
M  V30 34 1 19 33
M  V30 35 1 20 34
M  V30 36 1 21 35
M  V30 END BOND
M  V30 END CTAB
M  END
