
     RDKit          3D

  0  0  0  0  0  0  0  0  0  0999 V3000
M  V30 BEGIN CTAB
M  V30 COUNTS 20 20 0 0 0
M  V30 BEGIN ATOM
M  V30 1 N -3.73719 1.16137 0.41716 0
M  V30 2 N -2.36876 0.929599 0.493519 0
M  V30 3 C -1.77026 0.0842112 -0.468782 0
M  V30 4 O -2.48056 -0.434048 -1.36297 0
M  V30 5 C -0.330164 -0.213394 -0.460294 0
M  V30 6 C 0.53391 0.300289 0.47109 0
M  V30 7 C 1.89533 0.0247233 0.486831 0
M  V30 8 N 2.71617 0.60436 1.49427 0
M  V30 9 C 2.39195 -0.809833 -0.489643 0
M  V30 10 C 1.55124 -1.35071 -1.45082 0
M  V30 11 C 0.215175 -1.04582 -1.42016 0
M  V30 12 Br 2.31419 -2.49564 -2.76729 0
M  V30 13 H -4.19139 0.244735 0.206963 0
M  V30 14 H -4.15538 1.53507 1.28577 0
M  V30 15 H -1.82691 1.3871 1.25887 0
M  V30 16 H 0.145638 0.954768 1.23721 0
M  V30 17 H 2.70997 1.63067 1.68738 0
M  V30 18 H 3.35812 0.0283554 2.0817 0
M  V30 19 H 3.44321 -1.05344 -0.518753 0
M  V30 20 H -0.414283 -1.48237 -2.18204 0
M  V30 END ATOM
M  V30 BEGIN BOND
M  V30 1 1 1 2
M  V30 2 1 2 3
M  V30 3 2 3 4
M  V30 4 1 3 5
M  V30 5 2 5 6
M  V30 6 1 6 7
M  V30 7 1 7 8
M  V30 8 2 7 9
M  V30 9 1 9 10
M  V30 10 2 10 11
M  V30 11 1 10 12
M  V30 12 1 11 5
M  V30 13 1 1 13
M  V30 14 1 1 14
M  V30 15 1 2 15
M  V30 16 1 6 16
M  V30 17 1 8 17
M  V30 18 1 8 18
M  V30 19 1 9 19
M  V30 20 1 11 20
M  V30 END BOND
M  V30 END CTAB
M  END
