
     RDKit          3D

  0  0  0  0  0  0  0  0  0  0999 V3000
M  V30 BEGIN CTAB
M  V30 COUNTS 33 33 0 0 0
M  V30 BEGIN ATOM
M  V30 1 N 2.20205 -1.67688 -0.503381 0
M  V30 2 C 1.33256 -1.83929 0.60993 0
M  V30 3 C 0.812284 -0.649961 1.26557 0
M  V30 4 C 1.95957 0.188935 1.79665 0
M  V30 5 C 2.02687 1.41913 0.934444 0
M  V30 6 C 1.03084 1.18497 -0.158323 0
M  V30 7 C 0.00351774 0.329897 0.581621 0
M  V30 8 N -1.06645 0.0870377 -0.216539 0
M  V30 9 S -2.50811 0.904549 0.26176 0
M  V30 10 O -2.4156 1.1368 1.75175 0
M  V30 11 O -3.72279 0.103895 -0.0947053 0
M  V30 12 N -2.62383 2.45159 -0.487975 0
M  V30 13 C -1.0679 -0.268036 -1.55018 0
M  V30 14 C -1.64121 -1.63588 -1.86947 0
M  V30 15 H 2.96108 -0.98187 -0.383626 0
M  V30 16 H 2.66827 -2.56759 -0.784323 0
M  V30 17 H 1.92389 -2.43002 1.37127 0
M  V30 18 H 0.541032 -2.56933 0.296077 0
M  V30 19 H 0.258062 -0.987238 2.19562 0
M  V30 20 H 2.90845 -0.37399 1.82977 0
M  V30 21 H 1.77894 0.541411 2.84104 0
M  V30 22 H 3.03839 1.57878 0.498367 0
M  V30 23 H 1.71283 2.33963 1.47692 0
M  V30 24 H 0.494009 2.10508 -0.464088 0
M  V30 25 H 1.41537 0.722515 -1.05834 0
M  V30 26 H -0.347452 1.04417 1.39737 0
M  V30 27 H -3.32109 3.02071 0.0680627 0
M  V30 28 H -2.9932 2.40907 -1.45798 0
M  V30 29 H -1.78527 0.435014 -2.08221 0
M  V30 30 H -0.122886 -0.0912298 -2.12773 0
M  V30 31 H -1.28029 -1.94618 -2.87266 0
M  V30 32 H -1.41296 -2.38155 -1.10704 0
M  V30 33 H -2.75894 -1.60414 -1.95765 0
M  V30 END ATOM
M  V30 BEGIN BOND
M  V30 1 1 1 2
M  V30 2 1 2 3
M  V30 3 1 3 4
M  V30 4 1 4 5
M  V30 5 1 5 6
M  V30 6 1 6 7
M  V30 7 1 7 8
M  V30 8 1 8 9
M  V30 9 2 9 10
M  V30 10 2 9 11
M  V30 11 1 9 12
M  V30 12 1 8 13
M  V30 13 1 13 14
M  V30 14 1 7 3
M  V30 15 1 1 15
M  V30 16 1 1 16
M  V30 17 1 2 17
M  V30 18 1 2 18
M  V30 19 1 3 19
M  V30 20 1 4 20
M  V30 21 1 4 21
M  V30 22 1 5 22
M  V30 23 1 5 23
M  V30 24 1 6 24
M  V30 25 1 6 25
M  V30 26 1 7 26
M  V30 27 1 12 27
M  V30 28 1 12 28
M  V30 29 1 13 29
M  V30 30 1 13 30
M  V30 31 1 14 31
M  V30 32 1 14 32
M  V30 33 1 14 33
M  V30 END BOND
M  V30 END CTAB
M  END
