
     RDKit          3D

  0  0  0  0  0  0  0  0  0  0999 V3000
M  V30 BEGIN CTAB
M  V30 COUNTS 29 29 0 0 0
M  V30 BEGIN ATOM
M  V30 1 C -1.11283 2.52595 0.276352 0
M  V30 2 C -0.0258262 1.50239 0.616091 0
M  V30 3 C 0.849455 2.1432 1.67274 0
M  V30 4 O 0.69388 1.2799 -0.537313 0
M  V30 5 C 0.729655 -0.0604665 -0.795872 0 CFG=2
M  V30 6 C -0.239595 -0.678794 0.168487 0 CFG=1
M  V30 7 O -0.55049 0.321133 1.05554 0
M  V30 8 C -1.41795 -1.27589 -0.46719 0
M  V30 9 O -1.24701 -2.2067 -1.30242 0
M  V30 10 N -2.73659 -0.847907 -0.179317 0
M  V30 11 N -3.85586 -1.40412 -0.773128 0
M  V30 12 C 2.10171 -0.618991 -0.666179 0
M  V30 13 O 3.0221 0.196432 -0.343967 0
M  V30 14 N 2.37319 -1.99428 -0.890497 0
M  V30 15 N 3.67022 -2.46779 -0.757136 0
M  V30 16 H -0.782054 3.5519 0.54322 0
M  V30 17 H -1.98016 2.29717 0.95394 0
M  V30 18 H -1.46216 2.41382 -0.749684 0
M  V30 19 H 0.84166 1.47837 2.57767 0
M  V30 20 H 1.88567 2.30413 1.29156 0
M  V30 21 H 0.484474 3.14345 1.98438 0
M  V30 22 H 0.40728 -0.217271 -1.85795 0
M  V30 23 H 0.304435 -1.48241 0.737945 0
M  V30 24 H -2.86324 -0.0823846 0.508705 0
M  V30 25 H -4.29958 -2.11114 -0.118884 0
M  V30 26 H -4.6246 -0.693077 -0.950342 0
M  V30 27 H 1.61494 -2.64844 -1.15246 0
M  V30 28 H 3.90216 -2.64715 0.254253 0
M  V30 29 H 4.31711 -1.72104 -1.09855 0
M  V30 END ATOM
M  V30 BEGIN BOND
M  V30 1 1 1 2
M  V30 2 1 2 3
M  V30 3 1 2 4
M  V30 4 1 4 5
M  V30 5 1 5 6
M  V30 6 1 6 7
M  V30 7 1 6 8
M  V30 8 2 8 9
M  V30 9 1 8 10
M  V30 10 1 10 11
M  V30 11 1 5 12
M  V30 12 2 12 13
M  V30 13 1 12 14
M  V30 14 1 14 15
M  V30 15 1 7 2
M  V30 16 1 1 16
M  V30 17 1 1 17
M  V30 18 1 1 18
M  V30 19 1 3 19
M  V30 20 1 3 20
M  V30 21 1 3 21
M  V30 22 1 5 22 CFG=3
M  V30 23 1 6 23 CFG=1
M  V30 24 1 10 24
M  V30 25 1 11 25
M  V30 26 1 11 26
M  V30 27 1 14 27
M  V30 28 1 15 28
M  V30 29 1 15 29
M  V30 END BOND
M  V30 END CTAB
M  END
