
     RDKit          3D

  0  0  0  0  0  0  0  0  0  0999 V3000
M  V30 BEGIN CTAB
M  V30 COUNTS 43 45 0 0 0
M  V30 BEGIN ATOM
M  V30 1 C 6.3306 -1.21013 -0.860589 0
M  V30 2 N 5.70125 -0.250791 0.0753099 0
M  V30 3 C 4.29321 -0.32073 -0.0864233 0
M  V30 4 C 3.5412 0.49524 0.974114 0
M  V30 5 O 2.27834 0.424266 0.82283 0
M  V30 6 C 1.0017 0.389187 0.718504 0
M  V30 7 C 0.155738 1.08796 1.599 0
M  V30 8 C -1.18822 1.05817 1.5 0
M  V30 9 C -1.79843 0.305284 0.48254 0
M  V30 10 C -0.983114 -0.378171 -0.382323 0
M  V30 11 C 0.385705 -0.355358 -0.290601 0
M  V30 12 O 0.882714 -1.09938 -1.25358 0
M  V30 13 N -0.0763758 -1.59747 -1.96104 0
M  V30 14 C -1.28058 -1.18673 -1.47294 0
M  V30 15 N -2.55648 -1.49597 -1.97879 0
M  V30 16 C -3.24632 0.244003 0.426199 0
M  V30 17 C -3.98408 1.3833 0.168807 0
M  V30 18 C -5.35182 1.3949 0.155894 0
M  V30 19 C -6.05631 0.230236 0.408248 0
M  V30 20 C -5.35023 -0.919627 0.667914 0
M  V30 21 C -3.97732 -0.894034 0.672432 0
M  V30 22 N -7.48152 0.247749 0.38944 0
M  V30 23 C 6.27177 1.05036 -0.28526 0
M  V30 24 H 5.52811 -1.69793 -1.41949 0
M  V30 25 H 6.87392 -1.98031 -0.253583 0
M  V30 26 H 7.00287 -0.727528 -1.56817 0
M  V30 27 H 3.95035 0.0410048 -1.08438 0
M  V30 28 H 3.98665 -1.38723 -0.00208219 0
M  V30 29 H 4.00653 1.53558 0.943154 0
M  V30 30 H 3.91865 0.128952 2.0012 0
M  V30 31 H 0.651965 1.65529 2.36857 0
M  V30 32 H -1.8661 1.58135 2.15881 0
M  V30 33 H -3.12707 -0.774984 -2.45077 0
M  V30 34 H -2.95888 -2.4577 -1.89117 0
M  V30 35 H -3.47179 2.29658 -0.0302317 0
M  V30 36 H -5.93133 2.28563 -0.0443639 0
M  V30 37 H -5.91223 -1.83211 0.864989 0
M  V30 38 H -3.45067 -1.83758 0.89043 0
M  V30 39 H -8.00915 0.248013 1.27827 0
M  V30 40 H -7.98577 0.260747 -0.508838 0
M  V30 41 H 7.30845 1.12828 0.106541 0
M  V30 42 H 6.34486 1.06059 -1.4083 0
M  V30 43 H 5.62923 1.87109 0.0155494 0
M  V30 END ATOM
M  V30 BEGIN BOND
M  V30 1 1 1 2
M  V30 2 1 2 3
M  V30 3 1 3 4
M  V30 4 1 4 5
M  V30 5 1 5 6
M  V30 6 2 6 7
M  V30 7 1 7 8
M  V30 8 2 8 9
M  V30 9 1 9 10
M  V30 10 2 10 11
M  V30 11 1 11 12
M  V30 12 1 12 13
M  V30 13 2 13 14
M  V30 14 1 14 15
M  V30 15 1 9 16
M  V30 16 2 16 17
M  V30 17 1 17 18
M  V30 18 2 18 19
M  V30 19 1 19 20
M  V30 20 2 20 21
M  V30 21 1 19 22
M  V30 22 1 2 23
M  V30 23 1 11 6
M  V30 24 1 21 16
M  V30 25 1 14 10
M  V30 26 1 1 24
M  V30 27 1 1 25
M  V30 28 1 1 26
M  V30 29 1 3 27
M  V30 30 1 3 28
M  V30 31 1 4 29
M  V30 32 1 4 30
M  V30 33 1 7 31
M  V30 34 1 8 32
M  V30 35 1 15 33
M  V30 36 1 15 34
M  V30 37 1 17 35
M  V30 38 1 18 36
M  V30 39 1 20 37
M  V30 40 1 21 38
M  V30 41 1 22 39
M  V30 42 1 22 40
M  V30 43 1 23 41
M  V30 44 1 23 42
M  V30 45 1 23 43
M  V30 END BOND
M  V30 END CTAB
M  END
