
     RDKit          3D

  0  0  0  0  0  0  0  0  0  0999 V3000
M  V30 BEGIN CTAB
M  V30 COUNTS 24 25 0 0 0
M  V30 BEGIN ATOM
M  V30 1 N -3.48237 1.03644 0.189751 0
M  V30 2 C -3.54122 -0.1592 -0.623672 0
M  V30 3 C -2.58952 -1.20427 -0.079886 0
M  V30 4 C -1.17995 -0.692116 -0.0856354 0
M  V30 5 N -0.721513 0.501119 -0.491803 0
M  V30 6 C 0.603541 0.547426 -0.325861 0
M  V30 7 C 1.00881 -0.663295 0.207248 0
M  V30 8 N -0.119066 -1.39756 0.339627 0
M  V30 9 N 2.31021 -0.865137 0.467619 0
M  V30 10 C 3.26693 0.0702721 0.232234 0
M  V30 11 C 2.90555 1.29033 -0.298453 0
M  V30 12 C 1.57349 1.51429 -0.571795 0
M  V30 13 N 4.61079 -0.233996 0.53885 0
M  V30 14 H -3.43425 1.91165 -0.351667 0
M  V30 15 H -2.80735 0.966704 0.975914 0
M  V30 16 H -4.56598 -0.575512 -0.496565 0
M  V30 17 H -3.34258 0.0651886 -1.69065 0
M  V30 18 H -2.92523 -1.44224 0.947094 0
M  V30 19 H -2.62033 -2.09366 -0.739894 0
M  V30 20 H -0.15641 -2.3686 0.716825 0
M  V30 21 H 3.69368 2.00942 -0.472087 0
M  V30 22 H 1.30725 2.47609 -0.987562 0
M  V30 23 H 5.23564 -0.576475 -0.207235 0
M  V30 24 H 4.96988 -0.116864 1.49804 0
M  V30 END ATOM
M  V30 BEGIN BOND
M  V30 1 1 1 2
M  V30 2 1 2 3
M  V30 3 1 3 4
M  V30 4 2 4 5
M  V30 5 1 5 6
M  V30 6 2 6 7
M  V30 7 1 7 8
M  V30 8 1 7 9
M  V30 9 2 9 10
M  V30 10 1 10 11
M  V30 11 2 11 12
M  V30 12 1 10 13
M  V30 13 1 8 4
M  V30 14 1 12 6
M  V30 15 1 1 14
M  V30 16 1 1 15
M  V30 17 1 2 16
M  V30 18 1 2 17
M  V30 19 1 3 18
M  V30 20 1 3 19
M  V30 21 1 8 20
M  V30 22 1 11 21
M  V30 23 1 12 22
M  V30 24 1 13 23
M  V30 25 1 13 24
M  V30 END BOND
M  V30 END CTAB
M  END
