
     RDKit          3D

  0  0  0  0  0  0  0  0  0  0999 V3000
M  V30 BEGIN CTAB
M  V30 COUNTS 17 17 0 0 0
M  V30 BEGIN ATOM
M  V30 1 O -2.34937 -1.61146 -0.243245 0
M  V30 2 C -1.10208 -1.00117 -0.148901 0
M  V30 3 C 0.0544963 -1.75552 -0.249989 0
M  V30 4 C 1.29527 -1.16547 -0.158571 0
M  V30 5 C 1.44214 0.197306 0.0369172 0
M  V30 6 C 0.29484 0.957144 0.138845 0
M  V30 7 C -0.945358 0.358502 0.046203 0
M  V30 8 N -2.1342 1.12937 0.149465 0
M  V30 9 Br 0.420202 2.84115 0.408658 0
M  V30 10 N 2.74255 0.789641 0.129009 0
M  V30 11 H -3.16376 -0.991855 -0.159438 0
M  V30 12 H -0.0520541 -2.83097 -0.404203 0
M  V30 13 H 2.20085 -1.73962 -0.235368 0
M  V30 14 H -2.60798 1.44574 -0.699555 0
M  V30 15 H -2.51885 1.36966 1.06832 0
M  V30 16 H 3.28669 0.740832 1.01797 0
M  V30 17 H 3.13661 1.26672 -0.696112 0
M  V30 END ATOM
M  V30 BEGIN BOND
M  V30 1 1 1 2
M  V30 2 2 2 3
M  V30 3 1 3 4
M  V30 4 2 4 5
M  V30 5 1 5 6
M  V30 6 2 6 7
M  V30 7 1 7 8
M  V30 8 1 6 9
M  V30 9 1 5 10
M  V30 10 1 7 2
M  V30 11 1 1 11
M  V30 12 1 3 12
M  V30 13 1 4 13
M  V30 14 1 8 14
M  V30 15 1 8 15
M  V30 16 1 10 16
M  V30 17 1 10 17
M  V30 END BOND
M  V30 END CTAB
M  END
