
     RDKit          3D

  0  0  0  0  0  0  0  0  0  0999 V3000
M  V30 BEGIN CTAB
M  V30 COUNTS 41 43 0 0 0
M  V30 BEGIN ATOM
M  V30 1 N -6.39673 2.37488 1.02509 0
M  V30 2 C -5.8451 1.13851 0.615989 0
M  V30 3 N -4.51533 0.90505 0.662839 0
M  V30 4 C -3.93537 -0.246014 0.288708 0
M  V30 5 C -2.45962 -0.484026 0.346835 0
M  V30 6 S -1.64217 -0.0130654 -1.17493 0
M  V30 7 C 0.123834 -0.294396 -1.04205 0
M  V30 8 C 0.79408 0.66299 -0.125755 0
M  V30 9 C 0.143513 1.70479 0.500039 0
M  V30 10 C 0.835893 2.57315 1.32189 0
M  V30 11 C 2.18738 2.41882 1.53339 0
M  V30 12 C 2.83283 1.37852 0.906531 0
M  V30 13 C 2.1715 0.497496 0.083271 0
M  V30 14 O 2.79857 -0.551609 -0.554314 0
M  V30 15 C 4.12294 -0.879005 -0.479468 0
M  V30 16 C 5.10163 -0.423305 -1.30785 0
M  V30 17 C 6.42096 -0.800963 -1.16774 0
M  V30 18 C 6.79744 -1.67104 -0.162221 0
M  V30 19 C 5.81358 -2.13818 0.681847 0
M  V30 20 C 4.49726 -1.76016 0.540799 0
M  V30 21 N -4.75332 -1.21338 -0.157765 0
M  V30 22 C -6.08955 -1.04852 -0.231074 0
M  V30 23 N -6.61526 0.122876 0.156111 0
M  V30 24 N -6.91101 -2.11458 -0.715085 0
M  V30 25 H -7.11652 2.39725 1.75946 0
M  V30 26 H -6.07602 3.24808 0.586394 0
M  V30 27 H -2.3394 -1.59447 0.454734 0
M  V30 28 H -2.07042 0.0577423 1.21388 0
M  V30 29 H 0.625919 -0.276753 -2.03735 0
M  V30 30 H 0.359247 -1.31259 -0.624838 0
M  V30 31 H -0.920758 1.85666 0.335676 0
M  V30 32 H 0.27005 3.37133 1.78613 0
M  V30 33 H 2.73652 3.08451 2.16777 0
M  V30 34 H 3.90338 1.20598 1.03564 0
M  V30 35 H 4.79436 0.266596 -2.1036 0
M  V30 36 H 7.18 -0.420693 -1.845 0
M  V30 37 H 7.82914 -1.9785 -0.0376962 0
M  V30 38 H 6.07197 -2.83074 1.4925 0
M  V30 39 H 3.72772 -2.14185 1.22149 0
M  V30 40 H -7.87601 -2.29842 -0.357297 0
M  V30 41 H -6.57713 -2.77298 -1.46466 0
M  V30 END ATOM
M  V30 BEGIN BOND
M  V30 1 1 1 2
M  V30 2 2 2 3
M  V30 3 1 3 4
M  V30 4 1 4 5
M  V30 5 1 5 6
M  V30 6 1 6 7
M  V30 7 1 7 8
M  V30 8 2 8 9
M  V30 9 1 9 10
M  V30 10 2 10 11
M  V30 11 1 11 12
M  V30 12 2 12 13
M  V30 13 1 13 14
M  V30 14 1 14 15
M  V30 15 2 15 16
M  V30 16 1 16 17
M  V30 17 2 17 18
M  V30 18 1 18 19
M  V30 19 2 19 20
M  V30 20 2 4 21
M  V30 21 1 21 22
M  V30 22 2 22 23
M  V30 23 1 22 24
M  V30 24 1 23 2
M  V30 25 1 13 8
M  V30 26 1 20 15
M  V30 27 1 1 25
M  V30 28 1 1 26
M  V30 29 1 5 27
M  V30 30 1 5 28
M  V30 31 1 7 29
M  V30 32 1 7 30
M  V30 33 1 9 31
M  V30 34 1 10 32
M  V30 35 1 11 33
M  V30 36 1 12 34
M  V30 37 1 16 35
M  V30 38 1 17 36
M  V30 39 1 18 37
M  V30 40 1 19 38
M  V30 41 1 20 39
M  V30 42 1 24 40
M  V30 43 1 24 41
M  V30 END BOND
M  V30 END CTAB
M  END
