
     RDKit          3D

  0  0  0  0  0  0  0  0  0  0999 V3000
M  V30 BEGIN CTAB
M  V30 COUNTS 25 25 0 0 0
M  V30 BEGIN ATOM
M  V30 1 N 3.15947 0.276868 1.73569 0
M  V30 2 C 3.00813 0.347912 0.299985 0
M  V30 3 C 1.66116 -0.223754 -0.145697 0
M  V30 4 S 0.306677 0.709637 0.61354 0
M  V30 5 C -1.23464 -0.0230125 0.125413 0
M  V30 6 C -1.3532 -1.13505 -0.669795 0
M  V30 7 C -2.60476 -1.6266 -0.997915 0
M  V30 8 N -3.72162 -1.03642 -0.552764 0
M  V30 9 C -3.65825 0.0552417 0.229143 0
M  V30 10 C -2.42519 0.563745 0.569674 0
M  V30 11 N -2.34535 1.70728 1.38804 0
M  V30 12 C 1.57705 -0.00914196 -1.6523 0
M  V30 13 H 2.62455 -0.575685 2.07759 0
M  V30 14 H 4.17501 0.1316 1.92307 0
M  V30 15 H 3.01005 1.40937 -0.0128447 0
M  V30 16 H 3.78825 -0.190689 -0.249767 0
M  V30 17 H 1.59454 -1.30231 0.0312454 0
M  V30 18 H -0.449582 -1.62118 -1.03095 0
M  V30 19 H -2.6782 -2.50767 -1.62873 0
M  V30 20 H -4.54031 0.54104 0.59456 0
M  V30 21 H -2.30573 1.61578 2.41921 0
M  V30 22 H -2.3244 2.66225 0.981097 0
M  V30 23 H 0.570014 0.34805 -1.9151 0
M  V30 24 H 1.88964 -0.919434 -2.21028 0
M  V30 25 H 2.27669 0.802181 -1.9221 0
M  V30 END ATOM
M  V30 BEGIN BOND
M  V30 1 1 1 2
M  V30 2 1 2 3
M  V30 3 1 3 4
M  V30 4 1 4 5
M  V30 5 2 5 6
M  V30 6 1 6 7
M  V30 7 2 7 8
M  V30 8 1 8 9
M  V30 9 2 9 10
M  V30 10 1 10 11
M  V30 11 1 3 12
M  V30 12 1 10 5
M  V30 13 1 1 13
M  V30 14 1 1 14
M  V30 15 1 2 15
M  V30 16 1 2 16
M  V30 17 1 3 17
M  V30 18 1 6 18
M  V30 19 1 7 19
M  V30 20 1 9 20
M  V30 21 1 11 21
M  V30 22 1 11 22
M  V30 23 1 12 23
M  V30 24 1 12 24
M  V30 25 1 12 25
M  V30 END BOND
M  V30 END CTAB
M  END
