
     RDKit          3D

  0  0  0  0  0  0  0  0  0  0999 V3000
M  V30 BEGIN CTAB
M  V30 COUNTS 24 24 0 0 0
M  V30 BEGIN ATOM
M  V30 1 N 2.85776 2.31656 0.462953 0
M  V30 2 S 3.22997 0.636063 0.372788 0
M  V30 3 O 2.75112 -0.0172079 1.63816 0
M  V30 4 O 4.7202 0.400818 0.304389 0
M  V30 5 O 2.42573 -0.0893837 -0.930526 0
M  V30 6 C 1.22483 -0.780066 -0.778813 0
M  V30 7 C 0.0186071 -0.130052 -0.889153 0
M  V30 8 C -1.16254 -0.803317 -0.741121 0
M  V30 9 O -2.36046 -0.09637 -0.862707 0
M  V30 10 S -3.04589 0.603597 0.515297 0
M  V30 11 N -3.22508 2.31424 0.34868 0
M  V30 12 O -4.43284 0.00697331 0.706427 0
M  V30 13 O -2.27018 0.275564 1.76087 0
M  V30 14 C -1.11828 -2.15256 -0.477938 0
M  V30 15 C 0.0677528 -2.85114 -0.357822 0
M  V30 16 C 1.24515 -2.13684 -0.513825 0
M  V30 17 H 2.3554 2.62008 -0.422192 0
M  V30 18 H 3.70482 2.90234 0.627926 0
M  V30 19 H 0.0461597 0.93773 -1.09832 0
M  V30 20 H -3.94081 2.70319 0.969959 0
M  V30 21 H -3.31247 2.60383 -0.648326 0
M  V30 22 H -2.03069 -2.69611 -0.359002 0
M  V30 23 H 0.0667879 -3.91661 -0.149482 0
M  V30 24 H 2.18495 -2.65134 -0.426253 0
M  V30 END ATOM
M  V30 BEGIN BOND
M  V30 1 1 1 2
M  V30 2 2 2 3
M  V30 3 2 2 4
M  V30 4 1 2 5
M  V30 5 1 5 6
M  V30 6 2 6 7
M  V30 7 1 7 8
M  V30 8 1 8 9
M  V30 9 1 9 10
M  V30 10 1 10 11
M  V30 11 2 10 12
M  V30 12 2 10 13
M  V30 13 2 8 14
M  V30 14 1 14 15
M  V30 15 2 15 16
M  V30 16 1 16 6
M  V30 17 1 1 17
M  V30 18 1 1 18
M  V30 19 1 7 19
M  V30 20 1 11 20
M  V30 21 1 11 21
M  V30 22 1 14 22
M  V30 23 1 15 23
M  V30 24 1 16 24
M  V30 END BOND
M  V30 END CTAB
M  END
