
     RDKit          3D

  0  0  0  0  0  0  0  0  0  0999 V3000
M  V30 BEGIN CTAB
M  V30 COUNTS 34 36 0 0 0
M  V30 BEGIN ATOM
M  V30 1 C 5.4907 -0.658615 0.148482 0
M  V30 2 C 4.98651 -0.0246654 -1.11727 0
M  V30 3 O 3.75806 0.610717 -1.01505 0
M  V30 4 C 2.54838 0.0834847 -0.665329 0
M  V30 5 C 2.34838 -1.23299 -0.343435 0
M  V30 6 C 1.08022 -1.65803 -0.00400656 0
M  V30 7 C 0.00803118 -0.789987 0.019292 0
M  V30 8 C 0.184938 0.549038 -0.302974 0
M  V30 9 C 1.46187 0.95044 -0.639017 0
M  V30 10 N -0.852119 1.40786 -0.284579 0
M  V30 11 C -2.10649 0.997829 0.0489178 0
M  V30 12 C -2.34001 -0.321711 0.378076 0
M  V30 13 C -1.26754 -1.19017 0.354821 0
M  V30 14 C -3.62231 -0.711869 0.712771 0
M  V30 15 N -3.88105 -2.05763 1.05249 0
M  V30 16 C -4.67743 0.179156 0.727787 0
M  V30 17 C -4.45744 1.50117 0.400747 0
M  V30 18 C -3.17501 1.89489 0.0652632 0
M  V30 19 N -2.929 3.24022 -0.271854 0
M  V30 20 H 6.484 -0.254777 0.46514 0
M  V30 21 H 4.80545 -0.470286 1.01439 0
M  V30 22 H 5.62506 -1.76065 0.0552802 0
M  V30 23 H 5.74268 0.758069 -1.40805 0
M  V30 24 H 5.01874 -0.762384 -1.96389 0
M  V30 25 H 3.19089 -1.90777 -0.364278 0
M  V30 26 H 0.961503 -2.70186 0.243466 0
M  V30 27 H 1.60672 1.99661 -0.892096 0
M  V30 28 H -1.43307 -2.2233 0.609148 0
M  V30 29 H -3.71494 -2.35872 2.02663 0
M  V30 30 H -4.22295 -2.71615 0.355488 0
M  V30 31 H -5.69215 -0.0943375 0.985061 0
M  V30 32 H -5.25924 2.24743 0.397296 0
M  V30 33 H -2.27305 3.81082 0.302184 0
M  V30 34 H -3.39833 3.66818 -1.09089 0
M  V30 END ATOM
M  V30 BEGIN BOND
M  V30 1 1 1 2
M  V30 2 1 2 3
M  V30 3 1 3 4
M  V30 4 2 4 5
M  V30 5 1 5 6
M  V30 6 2 6 7
M  V30 7 1 7 8
M  V30 8 2 8 9
M  V30 9 1 8 10
M  V30 10 2 10 11
M  V30 11 1 11 12
M  V30 12 2 12 13
M  V30 13 1 12 14
M  V30 14 1 14 15
M  V30 15 2 14 16
M  V30 16 1 16 17
M  V30 17 2 17 18
M  V30 18 1 18 19
M  V30 19 1 9 4
M  V30 20 1 18 11
M  V30 21 1 13 7
M  V30 22 1 1 20
M  V30 23 1 1 21
M  V30 24 1 1 22
M  V30 25 1 2 23
M  V30 26 1 2 24
M  V30 27 1 5 25
M  V30 28 1 6 26
M  V30 29 1 9 27
M  V30 30 1 13 28
M  V30 31 1 15 29
M  V30 32 1 15 30
M  V30 33 1 16 31
M  V30 34 1 17 32
M  V30 35 1 19 33
M  V30 36 1 19 34
M  V30 END BOND
M  V30 END CTAB
M  END
