
     RDKit          3D

  0  0  0  0  0  0  0  0  0  0999 V3000
M  V30 BEGIN CTAB
M  V30 COUNTS 56 61 0 0 0
M  V30 BEGIN ATOM
M  V30 1 N 3.48021 4.20918 -0.461286 0
M  V30 2 C 3.07938 2.81007 -0.574098 0
M  V30 3 C 3.97182 1.97859 -1.03305 0
M  V30 4 C 5.29289 2.52548 -1.39303 0
M  V30 5 N 6.34376 2.93571 -1.68382 0
M  V30 6 C 3.70064 0.55605 -1.1908 0
M  V30 7 C 4.76629 -0.297849 -0.629097 0
M  V30 8 C 5.24856 -1.34679 -1.34992 0
M  V30 9 C 6.24328 -2.14645 -0.829426 0
M  V30 10 C 6.77189 -1.91 0.420588 0
M  V30 11 Cl 8.03414 -2.91704 1.09241 0
M  V30 12 C 6.27354 -0.844997 1.13762 0
M  V30 13 C 5.26593 -0.0309179 0.616349 0
M  V30 14 C 2.35521 0.171797 -0.799065 0
M  V30 15 C 1.94636 -1.14588 -0.896495 0
M  V30 16 C 0.70896 -1.54773 -0.541505 0
M  V30 17 C -0.196213 -0.612171 -0.0591068 0
M  V30 18 C -1.47199 -1.08039 0.297136 0
M  V30 19 C -2.37064 -0.176924 0.771213 0
M  V30 20 C -1.97078 1.17162 0.877328 0
M  V30 21 C -0.715153 1.60654 0.522057 0
M  V30 22 C 0.170741 0.702713 0.0521047 0
M  V30 23 C 1.46501 1.09201 -0.324896 0
M  V30 24 O 1.79544 2.45262 -0.193817 0
M  V30 25 C -3.71493 -0.584798 1.16018 0
M  V30 26 C -4.77627 0.272506 0.608363 0
M  V30 27 C -5.25152 1.31675 1.33603 0
M  V30 28 C -6.24873 2.14972 0.857862 0
M  V30 29 C -6.74695 1.87653 -0.398678 0
M  V30 30 Cl -8.02076 2.95693 -0.985253 0
M  V30 31 C -6.29253 0.826413 -1.17066 0
M  V30 32 C -5.28076 0.0164696 -0.633584 0
M  V30 33 C -3.95411 -2.00284 0.988575 0
M  V30 34 C -5.28125 -2.53515 1.35277 0
M  V30 35 N -6.32776 -2.93184 1.64415 0
M  V30 36 C -3.04306 -2.81685 0.52694 0
M  V30 37 N -3.44603 -4.19942 0.417852 0
M  V30 38 O -1.75943 -2.4422 0.150595 0
M  V30 39 H 3.13301 4.81635 -1.23737 0
M  V30 40 H 4.05347 4.51274 0.333072 0
M  V30 41 H 3.74274 0.372458 -2.32138 0
M  V30 42 H 4.89097 -1.61126 -2.34936 0
M  V30 43 H 6.65701 -2.99193 -1.36778 0
M  V30 44 H 6.68607 -0.664721 2.10686 0
M  V30 45 H 4.93437 0.784631 1.25084 0
M  V30 46 H 2.65583 -1.86774 -1.27437 0
M  V30 47 H 0.377305 -2.58476 -0.614699 0
M  V30 48 H -2.67312 1.90922 1.25548 0
M  V30 49 H -0.413636 2.64718 0.606327 0
M  V30 50 H -3.76515 -0.411034 2.29553 0
M  V30 51 H -4.87898 1.56548 2.34119 0
M  V30 52 H -6.61123 2.97944 1.46189 0
M  V30 53 H -6.70688 0.641517 -2.15324 0
M  V30 54 H -4.95641 -0.793188 -1.27337 0
M  V30 55 H -3.99507 -4.62582 1.17027 0
M  V30 56 H -3.1755 -4.73602 -0.414536 0
M  V30 END ATOM
M  V30 BEGIN BOND
M  V30 1 1 1 2
M  V30 2 2 2 3
M  V30 3 1 3 4
M  V30 4 3 4 5
M  V30 5 1 3 6
M  V30 6 1 6 7
M  V30 7 2 7 8
M  V30 8 1 8 9
M  V30 9 2 9 10
M  V30 10 1 10 11
M  V30 11 1 10 12
M  V30 12 2 12 13
M  V30 13 1 6 14
M  V30 14 2 14 15
M  V30 15 1 15 16
M  V30 16 2 16 17
M  V30 17 1 17 18
M  V30 18 2 18 19
M  V30 19 1 19 20
M  V30 20 2 20 21
M  V30 21 1 21 22
M  V30 22 2 22 23
M  V30 23 1 23 24
M  V30 24 1 19 25
M  V30 25 1 25 26
M  V30 26 2 26 27
M  V30 27 1 27 28
M  V30 28 2 28 29
M  V30 29 1 29 30
M  V30 30 1 29 31
M  V30 31 2 31 32
M  V30 32 1 25 33
M  V30 33 1 33 34
M  V30 34 3 34 35
M  V30 35 2 33 36
M  V30 36 1 36 37
M  V30 37 1 36 38
M  V30 38 1 24 2
M  V30 39 1 32 26
M  V30 40 1 13 7
M  V30 41 1 23 14
M  V30 42 1 22 17
M  V30 43 1 38 18
M  V30 44 1 1 39
M  V30 45 1 1 40
M  V30 46 1 6 41
M  V30 47 1 8 42
M  V30 48 1 9 43
M  V30 49 1 12 44
M  V30 50 1 13 45
M  V30 51 1 15 46
M  V30 52 1 16 47
M  V30 53 1 20 48
M  V30 54 1 21 49
M  V30 55 1 25 50
M  V30 56 1 27 51
M  V30 57 1 28 52
M  V30 58 1 31 53
M  V30 59 1 32 54
M  V30 60 1 37 55
M  V30 61 1 37 56
M  V30 END BOND
M  V30 END CTAB
M  END
