
     RDKit          3D

  0  0  0  0  0  0  0  0  0  0999 V3000
M  V30 BEGIN CTAB
M  V30 COUNTS 19 19 0 0 0
M  V30 BEGIN ATOM
M  V30 1 N 2.17022 -0.0801657 -0.270384 0
M  V30 2 C 0.896461 -0.15521 0.348573 0 CFG=2
M  V30 3 C 0.235368 -1.51349 0.239848 0
M  V30 4 C -1.2056 -1.28438 -0.0927983 0
M  V30 5 C -1.39472 0.175693 0.338978 0
M  V30 6 C -0.135102 0.742451 -0.329882 0 CFG=1
M  V30 7 N 0.0572525 2.12169 -0.0658986 0
M  V30 8 H 2.84203 0.364151 0.396694 0
M  V30 9 H 2.13763 0.466062 -1.15422 0
M  V30 10 H 0.923367 0.148188 1.43491 0
M  V30 11 H 0.775481 -2.12511 -0.511313 0
M  V30 12 H 0.262748 -2.05263 1.22401 0
M  V30 13 H -1.90873 -1.95746 0.383939 0
M  V30 14 H -1.28294 -1.26026 -1.21071 0
M  V30 15 H -2.30666 0.613965 -0.0401829 0
M  V30 16 H -1.2358 0.205797 1.41399 0
M  V30 17 H -0.165636 0.46136 -1.39775 0
M  V30 18 H -0.855668 2.51892 0.29293 0
M  V30 19 H 0.190297 2.61044 -1.00072 0
M  V30 END ATOM
M  V30 BEGIN BOND
M  V30 1 1 1 2
M  V30 2 1 2 3
M  V30 3 1 3 4
M  V30 4 1 4 5
M  V30 5 1 5 6
M  V30 6 1 6 7
M  V30 7 1 6 2
M  V30 8 1 1 8
M  V30 9 1 1 9
M  V30 10 1 2 10 CFG=1
M  V30 11 1 3 11
M  V30 12 1 3 12
M  V30 13 1 4 13
M  V30 14 1 4 14
M  V30 15 1 5 15
M  V30 16 1 5 16
M  V30 17 1 6 17 CFG=3
M  V30 18 1 7 18
M  V30 19 1 7 19
M  V30 END BOND
M  V30 END CTAB
M  END
