
     RDKit          3D

  0  0  0  0  0  0  0  0  0  0999 V3000
M  V30 BEGIN CTAB
M  V30 COUNTS 19 20 0 0 0
M  V30 BEGIN ATOM
M  V30 1 Cl -4.39887 0.448866 -2.04722 0
M  V30 2 C -3.30943 -0.290685 -0.847365 0
M  V30 3 S -3.62178 -1.46212 0.330234 0
M  V30 4 C -2.07732 -1.58926 1.01796 0
M  V30 5 C -1.31078 -0.680691 0.2906 0
M  V30 6 C -1.97803 -0.01446 -0.678867 0
M  V30 7 C 0.138171 -0.50468 0.611164 0
M  V30 8 N 0.816025 -1.17218 1.58614 0
M  V30 9 N 2.06138 -0.812092 1.63195 0
M  V30 10 C 2.24811 0.110715 0.682936 0
M  V30 11 N 1.0366 0.288339 0.0575237 0
M  V30 12 N 0.849913 1.18441 -0.994665 0
M  V30 13 N 3.41598 0.813553 0.324162 0
M  V30 14 H -1.71329 -2.22676 1.84826 0
M  V30 15 H -1.46999 0.746832 -1.33594 0
M  V30 16 H 0.567185 2.18599 -0.865851 0
M  V30 17 H 1.00304 0.829821 -1.97476 0
M  V30 18 H 4.22721 0.300909 -0.0755356 0
M  V30 19 H 3.51588 1.84349 0.439284 0
M  V30 END ATOM
M  V30 BEGIN BOND
M  V30 1 1 1 2
M  V30 2 1 2 3
M  V30 3 1 3 4
M  V30 4 2 4 5
M  V30 5 1 5 6
M  V30 6 1 5 7
M  V30 7 2 7 8
M  V30 8 1 8 9
M  V30 9 2 9 10
M  V30 10 1 10 11
M  V30 11 1 11 12
M  V30 12 1 10 13
M  V30 13 2 6 2
M  V30 14 1 11 7
M  V30 15 1 4 14
M  V30 16 1 6 15
M  V30 17 1 12 16
M  V30 18 1 12 17
M  V30 19 1 13 18
M  V30 20 1 13 19
M  V30 END BOND
M  V30 END CTAB
M  END
