
     RDKit          3D

  0  0  0  0  0  0  0  0  0  0999 V3000
M  V30 BEGIN CTAB
M  V30 COUNTS 20 20 0 0 0
M  V30 BEGIN ATOM
M  V30 1 F -3.0615 0.63687 0.624749 0
M  V30 2 C -1.77362 0.353742 0.300502 0
M  V30 3 C -1.33104 -0.938022 0.354654 0
M  V30 4 N -2.24007 -1.94259 0.750474 0
M  V30 5 C -0.00928671 -1.23652 0.0229694 0
M  V30 6 C 0.868037 -0.248549 -0.361614 0
M  V30 7 C 0.392595 1.0445 -0.406674 0
M  V30 8 C -0.917422 1.35799 -0.080379 0
M  V30 9 N -1.3583 2.70432 -0.142594 0
M  V30 10 O 2.15088 -0.580116 -0.677719 0
M  V30 11 C 3.23333 -0.632362 0.205648 0
M  V30 12 F 4.35308 -1.0156 -0.544502 0
M  V30 13 F 3.0847 -1.52055 1.22587 0
M  V30 14 F 3.55041 0.600308 0.743566 0
M  V30 15 H -1.93544 -2.76582 1.30664 0
M  V30 16 H -3.24843 -1.8758 0.488108 0
M  V30 17 H 0.262985 -2.2767 0.0903223 0
M  V30 18 H 1.02417 1.87805 -0.7005 0
M  V30 19 H -2.21603 3.03638 0.345472 0
M  V30 20 H -0.829057 3.42046 -0.689022 0
M  V30 END ATOM
M  V30 BEGIN BOND
M  V30 1 1 1 2
M  V30 2 2 2 3
M  V30 3 1 3 4
M  V30 4 1 3 5
M  V30 5 2 5 6
M  V30 6 1 6 7
M  V30 7 2 7 8
M  V30 8 1 8 9
M  V30 9 1 6 10
M  V30 10 1 10 11
M  V30 11 1 11 12
M  V30 12 1 11 13
M  V30 13 1 11 14
M  V30 14 1 8 2
M  V30 15 1 4 15
M  V30 16 1 4 16
M  V30 17 1 5 17
M  V30 18 1 7 18
M  V30 19 1 9 19
M  V30 20 1 9 20
M  V30 END BOND
M  V30 END CTAB
M  END
