
     RDKit          3D

  0  0  0  0  0  0  0  0  0  0999 V3000
M  V30 BEGIN CTAB
M  V30 COUNTS 24 25 0 0 0
M  V30 BEGIN ATOM
M  V30 1 C 4.28247 -0.324914 -1.04032 0
M  V30 2 C 3.05604 -0.060533 -0.192183 0
M  V30 3 C 3.2006 0.473996 1.06234 0
M  V30 4 S 1.55222 0.565532 1.57129 0
M  V30 5 C 0.820525 -0.0726213 0.172253 0
M  V30 6 N 1.85562 -0.320543 -0.603057 0
M  V30 7 C -0.608029 -0.275559 -0.0658398 0
M  V30 8 C -1.61213 0.495577 0.323997 0
M  V30 9 N -1.43423 1.70464 1.07662 0
M  V30 10 N -2.86199 0.00194089 -0.0822654 0
M  V30 11 C -2.67009 -1.38353 -0.459911 0
M  V30 12 C -1.2145 -1.38576 -0.790891 0
M  V30 13 O -0.618135 -2.19714 -1.55601 0
M  V30 14 N -4.0964 0.682044 -0.130388 0
M  V30 15 H 4.85591 0.638967 -1.18306 0
M  V30 16 H 4.04306 -0.678843 -2.03791 0
M  V30 17 H 4.97692 -1.01622 -0.52005 0
M  V30 18 H 4.13096 0.759665 1.58254 0
M  V30 19 H -1.54254 1.65372 2.10293 0
M  V30 20 H -1.20594 2.58459 0.587964 0
M  V30 21 H -3.3047 -1.68271 -1.32827 0
M  V30 22 H -2.89032 -2.01788 0.427057 0
M  V30 23 H -4.78025 0.188476 -0.73692 0
M  V30 24 H -3.93508 1.6671 -0.419442 0
M  V30 END ATOM
M  V30 BEGIN BOND
M  V30 1 1 1 2
M  V30 2 2 2 3
M  V30 3 1 3 4
M  V30 4 1 4 5
M  V30 5 2 5 6
M  V30 6 1 5 7
M  V30 7 2 7 8
M  V30 8 1 8 9
M  V30 9 1 8 10
M  V30 10 1 10 11
M  V30 11 1 11 12
M  V30 12 2 12 13
M  V30 13 1 10 14
M  V30 14 1 6 2
M  V30 15 1 12 7
M  V30 16 1 1 15
M  V30 17 1 1 16
M  V30 18 1 1 17
M  V30 19 1 3 18
M  V30 20 1 9 19
M  V30 21 1 9 20
M  V30 22 1 11 21
M  V30 23 1 11 22
M  V30 24 1 14 23
M  V30 25 1 14 24
M  V30 END BOND
M  V30 END CTAB
M  END
