
     RDKit          3D

  0  0  0  0  0  0  0  0  0  0999 V3000
M  V30 BEGIN CTAB
M  V30 COUNTS 23 24 0 0 0
M  V30 BEGIN ATOM
M  V30 1 N 2.24815 2.8251 0.525894 0
M  V30 2 C 1.8294 1.47643 0.423303 0
M  V30 3 C 0.68395 0.992981 1.01562 0
M  V30 4 C 0.29612 -0.339344 0.89669 0
M  V30 5 S -1.19679 -0.925196 1.68188 0
M  V30 6 C -2.63566 -0.782845 0.640384 0
M  V30 7 C -2.68701 -1.63781 -0.596287 0
M  V30 8 O -3.3286 -0.54844 -1.23118 0
M  V30 9 C -2.60457 0.324107 -0.391365 0
M  V30 10 N 1.10573 -1.12941 0.168239 0
M  V30 11 C 2.23783 -0.667346 -0.421222 0
M  V30 12 N 2.59627 0.616508 -0.296709 0
M  V30 13 N 3.08807 -1.52021 -1.19219 0
M  V30 14 H 3.11486 3.02509 1.05864 0
M  V30 15 H 1.7307 3.59176 0.0976592 0
M  V30 16 H 0.0631026 1.66075 1.59213 0
M  V30 17 H -3.55956 -0.777495 1.21386 0
M  V30 18 H -1.70718 -1.86595 -1.05517 0
M  V30 19 H -3.31042 -2.51806 -0.436508 0
M  V30 20 H -3.15293 1.23485 -0.125813 0
M  V30 21 H -1.59688 0.569291 -0.744485 0
M  V30 22 H 3.35364 -1.16829 -2.13864 0
M  V30 23 H 3.43177 -2.43647 -0.851553 0
M  V30 END ATOM
M  V30 BEGIN BOND
M  V30 1 1 1 2
M  V30 2 2 2 3
M  V30 3 1 3 4
M  V30 4 1 4 5
M  V30 5 1 5 6
M  V30 6 1 6 7
M  V30 7 1 7 8
M  V30 8 1 8 9
M  V30 9 2 4 10
M  V30 10 1 10 11
M  V30 11 2 11 12
M  V30 12 1 11 13
M  V30 13 1 12 2
M  V30 14 1 9 6
M  V30 15 1 1 14
M  V30 16 1 1 15
M  V30 17 1 3 16
M  V30 18 1 6 17
M  V30 19 1 7 18
M  V30 20 1 7 19
M  V30 21 1 9 20
M  V30 22 1 9 21
M  V30 23 1 13 22
M  V30 24 1 13 23
M  V30 END BOND
M  V30 END CTAB
M  END
