
     RDKit          3D

  0  0  0  0  0  0  0  0  0  0999 V3000
M  V30 BEGIN CTAB
M  V30 COUNTS 58 60 0 0 0
M  V30 BEGIN ATOM
M  V30 1 N -5.57729 -0.0938123 3.03968 0
M  V30 2 C -5.1308 -0.699318 1.84267 0
M  V30 3 C -6.00237 -0.888204 0.794042 0
M  V30 4 C -5.55631 -1.47802 -0.3645 0
M  V30 5 C -4.23897 -1.89134 -0.505225 0
M  V30 6 C -3.32558 -1.71422 0.542289 0
M  V30 7 C -3.81145 -1.11974 1.68578 0
M  V30 8 S -1.67011 -2.24472 0.375272 0
M  V30 9 O -1.66536 -3.77007 0.258052 0
M  V30 10 O -1.01389 -1.98829 1.7322 0
M  V30 11 N -0.797215 -1.52457 -0.873746 0
M  V30 12 C -0.53787 -0.142869 -0.928688 0
M  V30 13 C -1.42954 0.865034 -0.723423 0
M  V30 14 C -1.02881 2.19941 -0.815567 0
M  V30 15 C -2.05338 3.2574 -0.579521 0
M  V30 16 C 0.263126 2.48948 -1.11314 0
M  V30 17 C 1.21464 1.4952 -1.33249 0
M  V30 18 C 0.795372 0.193718 -1.23574 0
M  V30 19 N 2.54212 1.85191 -1.65325 0
M  V30 20 S 3.82803 0.719033 -1.67428 0
M  V30 21 O 5.05555 1.47426 -2.14839 0
M  V30 22 O 3.51734 -0.349679 -2.70141 0
M  V30 23 C 4.09634 0.00582641 -0.118316 0
M  V30 24 C 3.41439 0.430942 1.00007 0
M  V30 25 C 3.65862 -0.13682 2.23655 0
M  V30 26 N 2.95694 0.294454 3.40853 0
M  V30 27 C 4.60187 -1.13655 2.31519 0
M  V30 28 C 5.29436 -1.57444 1.20711 0
M  V30 29 C 5.04958 -1.00554 -0.0335283 0
M  V30 30 C 5.7647 -1.44126 -1.25467 0
M  V30 31 C 0.698359 3.90209 -1.21262 0
M  V30 32 C -3.72691 -2.53178 -1.7447 0
M  V30 33 H -5.22038 -0.44434 3.94066 0
M  V30 34 H -6.24926 0.686968 3.02522 0
M  V30 35 H -7.02896 -0.586202 0.854124 0
M  V30 36 H -6.24154 -1.63071 -1.19924 0
M  V30 37 H -3.10211 -0.980223 2.50411 0
M  V30 38 H -0.424715 -2.11872 -1.65107 0
M  V30 39 H -2.45211 0.636162 -0.491348 0
M  V30 40 H -1.70339 4.02453 0.145868 0
M  V30 41 H -2.28576 3.7367 -1.57044 0
M  V30 42 H -2.9696 2.81407 -0.143602 0
M  V30 43 H 1.52412 -0.594904 -1.39827 0
M  V30 44 H 2.7185 2.87645 -1.88847 0
M  V30 45 H 2.68003 1.22371 0.957183 0
M  V30 46 H 1.97461 0.61069 3.2968 0
M  V30 47 H 3.36668 0.311783 4.36438 0
M  V30 48 H 4.79308 -1.58197 3.28703 0
M  V30 49 H 6.04825 -2.36896 1.25341 0
M  V30 50 H 6.2426 -0.643423 -1.82154 0
M  V30 51 H 5.10758 -2.05602 -1.93301 0
M  V30 52 H 6.5465 -2.19117 -0.927039 0
M  V30 53 H -0.174501 4.58236 -1.1236 0
M  V30 54 H 1.42382 4.17346 -0.44153 0
M  V30 55 H 1.14647 4.13441 -2.21665 0
M  V30 56 H -4.59969 -2.6267 -2.44778 0
M  V30 57 H -2.97837 -1.88716 -2.24388 0
M  V30 58 H -3.32734 -3.54833 -1.55552 0
M  V30 END ATOM
M  V30 BEGIN BOND
M  V30 1 1 1 2
M  V30 2 2 2 3
M  V30 3 1 3 4
M  V30 4 2 4 5
M  V30 5 1 5 6
M  V30 6 2 6 7
M  V30 7 1 6 8
M  V30 8 2 8 9
M  V30 9 2 8 10
M  V30 10 1 8 11
M  V30 11 1 11 12
M  V30 12 2 12 13
M  V30 13 1 13 14
M  V30 14 1 14 15
M  V30 15 2 14 16
M  V30 16 1 16 17
M  V30 17 2 17 18
M  V30 18 1 17 19
M  V30 19 1 19 20
M  V30 20 2 20 21
M  V30 21 2 20 22
M  V30 22 1 20 23
M  V30 23 2 23 24
M  V30 24 1 24 25
M  V30 25 1 25 26
M  V30 26 2 25 27
M  V30 27 1 27 28
M  V30 28 2 28 29
M  V30 29 1 29 30
M  V30 30 1 16 31
M  V30 31 1 5 32
M  V30 32 1 7 2
M  V30 33 1 18 12
M  V30 34 1 29 23
M  V30 35 1 1 33
M  V30 36 1 1 34
M  V30 37 1 3 35
M  V30 38 1 4 36
M  V30 39 1 7 37
M  V30 40 1 11 38
M  V30 41 1 13 39
M  V30 42 1 15 40
M  V30 43 1 15 41
M  V30 44 1 15 42
M  V30 45 1 18 43
M  V30 46 1 19 44
M  V30 47 1 24 45
M  V30 48 1 26 46
M  V30 49 1 26 47
M  V30 50 1 27 48
M  V30 51 1 28 49
M  V30 52 1 30 50
M  V30 53 1 30 51
M  V30 54 1 30 52
M  V30 55 1 31 53
M  V30 56 1 31 54
M  V30 57 1 31 55
M  V30 58 1 32 56
M  V30 59 1 32 57
M  V30 60 1 32 58
M  V30 END BOND
M  V30 END CTAB
M  END
