
     RDKit          3D

  0  0  0  0  0  0  0  0  0  0999 V3000
M  V30 BEGIN CTAB
M  V30 COUNTS 18 18 0 0 0
M  V30 BEGIN ATOM
M  V30 1 C 2.99892 -0.417867 -0.0688051 0
M  V30 2 C 1.52452 -0.181791 -0.028554 0
M  V30 3 N 0.704357 -1.23462 -0.180344 0
M  V30 4 C -0.651561 -1.11311 -0.157385 0
M  V30 5 N -1.47495 -2.25165 -0.321782 0
M  V30 6 C -1.1487 0.15741 0.0313609 0
M  V30 7 C -2.57038 0.342321 0.0639101 0
M  V30 8 N -3.71658 0.478818 0.0815863 0
M  V30 9 C -0.332838 1.25967 0.190435 0
M  V30 10 N -0.853381 2.56677 0.384628 0
M  V30 11 N 1.01305 1.04951 0.154481 0
M  V30 12 H 3.32288 -0.457391 -1.13788 0
M  V30 13 H 3.56503 0.397628 0.431374 0
M  V30 14 H 3.2771 -1.38327 0.413972 0
M  V30 15 H -2.27721 -2.20328 -0.96343 0
M  V30 16 H -1.26478 -3.11733 0.201064 0
M  V30 17 H -0.30683 3.31271 0.852 0
M  V30 18 H -1.80865 2.79548 0.0533653 0
M  V30 END ATOM
M  V30 BEGIN BOND
M  V30 1 1 1 2
M  V30 2 2 2 3
M  V30 3 1 3 4
M  V30 4 1 4 5
M  V30 5 2 4 6
M  V30 6 1 6 7
M  V30 7 3 7 8
M  V30 8 1 6 9
M  V30 9 1 9 10
M  V30 10 2 9 11
M  V30 11 1 11 2
M  V30 12 1 1 12
M  V30 13 1 1 13
M  V30 14 1 1 14
M  V30 15 1 5 15
M  V30 16 1 5 16
M  V30 17 1 10 17
M  V30 18 1 10 18
M  V30 END BOND
M  V30 END CTAB
M  END
