
     RDKit          3D

  0  0  0  0  0  0  0  0  0  0999 V3000
M  V30 BEGIN CTAB
M  V30 COUNTS 51 52 0 0 0
M  V30 BEGIN ATOM
M  V30 1 N -1.75981 2.59455 -0.138895 0
M  V30 2 C -2.49663 1.64716 0.711248 0
M  V30 3 C -2.89354 0.431182 -0.0593993 0
M  V30 4 C -3.64091 -0.576798 0.745328 0
M  V30 5 C -4.76695 -1.26138 0.005673 0
M  V30 6 C -5.81333 -0.27476 -0.462317 0
M  V30 7 C -5.19868 1.10699 -0.633139 0
M  V30 8 C -3.82404 0.906591 -1.17198 0
M  V30 9 C -1.68019 -0.198186 -0.689252 0
M  V30 10 C -0.648229 -0.643739 0.245185 0
M  V30 11 O -0.730999 -0.575191 1.50092 0
M  V30 12 N 0.544589 -1.19973 -0.337971 0
M  V30 13 C 1.61379 -1.66421 0.51377 0
M  V30 14 C 2.89193 -0.981979 0.211898 0
M  V30 15 C 3.34898 -0.782587 -1.06965 0
M  V30 16 C 4.54752 -0.140377 -1.28846 0
M  V30 17 C 5.29056 0.303772 -0.212839 0
M  V30 18 C 4.86594 0.122606 1.08509 0
M  V30 19 C 3.65311 -0.528721 1.26801 0
M  V30 20 S 6.822 1.1244 -0.492189 0
M  V30 21 O 7.3387 0.647296 -1.82078 0
M  V30 22 O 7.73519 0.792216 0.627419 0
M  V30 23 N 6.52688 2.81548 -0.63462 0
M  V30 24 C 1.71951 -3.16513 0.328892 0
M  V30 25 H -0.758737 2.32597 -0.216468 0
M  V30 26 H -1.91874 3.53356 0.250116 0
M  V30 27 H -3.44774 2.14877 1.02176 0
M  V30 28 H -1.90168 1.49482 1.6087 0
M  V30 29 H -4.01363 -0.0553317 1.66739 0
M  V30 30 H -2.99564 -1.3981 1.11883 0
M  V30 31 H -4.34959 -1.82125 -0.827289 0
M  V30 32 H -5.22204 -1.9796 0.717728 0
M  V30 33 H -6.15538 -0.592672 -1.46861 0
M  V30 34 H -6.6726 -0.28525 0.210177 0
M  V30 35 H -5.27442 1.60285 0.339233 0
M  V30 36 H -5.83014 1.71236 -1.33643 0
M  V30 37 H -3.37608 1.82522 -1.61029 0
M  V30 38 H -3.86126 0.0672837 -1.91542 0
M  V30 39 H -1.23903 0.527307 -1.41254 0
M  V30 40 H -2.06387 -1.04901 -1.30442 0
M  V30 41 H 0.667214 -1.28057 -1.35826 0
M  V30 42 H 1.30605 -1.49863 1.56378 0
M  V30 43 H 2.76803 -1.12931 -1.89649 0
M  V30 44 H 4.92617 0.0268367 -2.29686 0
M  V30 45 H 5.45985 0.476553 1.91699 0
M  V30 46 H 3.34146 -0.658726 2.29861 0
M  V30 47 H 6.35236 3.27502 0.288486 0
M  V30 48 H 5.62649 2.91841 -1.17577 0
M  V30 49 H 1.35593 -3.49148 -0.666518 0
M  V30 50 H 2.75764 -3.49328 0.537205 0
M  V30 51 H 1.07401 -3.70119 1.08124 0
M  V30 END ATOM
M  V30 BEGIN BOND
M  V30 1 1 1 2
M  V30 2 1 2 3
M  V30 3 1 3 4
M  V30 4 1 4 5
M  V30 5 1 5 6
M  V30 6 1 6 7
M  V30 7 1 7 8
M  V30 8 1 3 9
M  V30 9 1 9 10
M  V30 10 2 10 11
M  V30 11 1 10 12
M  V30 12 1 12 13
M  V30 13 1 13 14
M  V30 14 2 14 15
M  V30 15 1 15 16
M  V30 16 2 16 17
M  V30 17 1 17 18
M  V30 18 2 18 19
M  V30 19 1 17 20
M  V30 20 2 20 21
M  V30 21 2 20 22
M  V30 22 1 20 23
M  V30 23 1 13 24
M  V30 24 1 8 3
M  V30 25 1 19 14
M  V30 26 1 1 25
M  V30 27 1 1 26
M  V30 28 1 2 27
M  V30 29 1 2 28
M  V30 30 1 4 29
M  V30 31 1 4 30
M  V30 32 1 5 31
M  V30 33 1 5 32
M  V30 34 1 6 33
M  V30 35 1 6 34
M  V30 36 1 7 35
M  V30 37 1 7 36
M  V30 38 1 8 37
M  V30 39 1 8 38
M  V30 40 1 9 39
M  V30 41 1 9 40
M  V30 42 1 12 41
M  V30 43 1 13 42
M  V30 44 1 15 43
M  V30 45 1 16 44
M  V30 46 1 18 45
M  V30 47 1 19 46
M  V30 48 1 23 47
M  V30 49 1 23 48
M  V30 50 1 24 49
M  V30 51 1 24 50
M  V30 52 1 24 51
M  V30 END BOND
M  V30 END CTAB
M  END
