
     RDKit          3D

  0  0  0  0  0  0  0  0  0  0999 V3000
M  V30 BEGIN CTAB
M  V30 COUNTS 26 26 0 0 0
M  V30 BEGIN ATOM
M  V30 1 C 3.36144 1.38688 0.638049 0
M  V30 2 O 2.2106 0.747357 1.06862 0
M  V30 3 C 1.56552 0.242324 -0.055621 0 CFG=2
M  V30 4 C 0.204994 0.860802 -0.147961 0
M  V30 5 N -0.744381 -0.252588 -0.180889 0
M  V30 6 C -0.0145289 -1.41197 -0.602497 0
M  V30 7 C 1.33326 -1.23408 0.0316223 0 CFG=1
M  V30 8 O 2.29985 -1.92436 -0.72712 0
M  V30 9 C -2.10599 -0.0961429 0.160666 0
M  V30 10 N -3.02211 -0.254004 -0.725378 0
M  V30 11 N -4.37069 -0.112774 -0.445276 0
M  V30 12 N -2.4403 0.238306 1.4999 0
M  V30 13 H 3.09471 2.21828 -0.0614745 0
M  V30 14 H 3.87472 1.79303 1.53878 0
M  V30 15 H 3.9814 0.63656 0.10156 0
M  V30 16 H 2.12559 0.474587 -1.00125 0
M  V30 17 H 0.0793543 1.44724 -1.08886 0
M  V30 18 H -0.035503 1.46872 0.748106 0
M  V30 19 H -0.49634 -2.3645 -0.255139 0
M  V30 20 H 0.111568 -1.42173 -1.71014 0
M  V30 21 H 1.38541 -1.64088 1.05621 0
M  V30 22 H 2.45598 -1.37268 -1.53379 0
M  V30 23 H -4.74894 0.838646 -0.232108 0
M  V30 24 H -4.99064 -0.945495 -0.449019 0
M  V30 25 H -2.36931 -0.519671 2.21284 0
M  V30 26 H -2.74569 1.19813 1.77345 0
M  V30 END ATOM
M  V30 BEGIN BOND
M  V30 1 1 1 2
M  V30 2 1 2 3
M  V30 3 1 3 4
M  V30 4 1 4 5
M  V30 5 1 5 6
M  V30 6 1 6 7
M  V30 7 1 7 8
M  V30 8 1 5 9
M  V30 9 2 9 10 CFG=2
M  V30 10 1 10 11
M  V30 11 1 9 12
M  V30 12 1 7 3
M  V30 13 1 1 13
M  V30 14 1 1 14
M  V30 15 1 1 15
M  V30 16 1 3 16 CFG=3
M  V30 17 1 4 17
M  V30 18 1 4 18
M  V30 19 1 6 19
M  V30 20 1 6 20
M  V30 21 1 7 21 CFG=1
M  V30 22 1 8 22
M  V30 23 1 11 23
M  V30 24 1 11 24
M  V30 25 1 12 25
M  V30 26 1 12 26
M  V30 END BOND
M  V30 END CTAB
M  END
