
     RDKit          3D

  0  0  0  0  0  0  0  0  0  0999 V3000
M  V30 BEGIN CTAB
M  V30 COUNTS 86 87 0 0 0
M  V30 BEGIN ATOM
M  V30 1 C 2.81704 0.940503 -2.71796 0
M  V30 2 O 1.83879 0.247632 -2.03201 0
M  V30 3 C 2.35995 -0.740676 -1.19312 0 CFG=2
M  V30 4 C 1.82666 -2.09859 -1.64049 0
M  V30 5 C 0.28823 -2.02669 -1.68017 0
M  V30 6 C -0.107695 -1.72814 -0.28161 0
M  V30 7 N 0.400989 -0.415557 0.146475 0
M  V30 8 C 1.8432 -0.463185 0.21586 0 CFG=2
M  V30 9 C 2.60251 0.662022 0.807298 0
M  V30 10 C 4.02229 0.168067 0.887768 0
M  V30 11 O 4.11297 -0.999106 1.42942 0
M  V30 12 N 5.15777 0.835442 0.441643 0
M  V30 13 C 6.51543 0.301363 0.580326 0 CFG=2
M  V30 14 C 7.44945 1.29211 0.0514652 0
M  V30 15 O 6.96098 2.34554 -0.505107 0
M  V30 16 O 8.83042 1.23606 0.0822276 0
M  V30 17 C 6.61387 -0.957301 -0.306123 0
M  V30 18 C 7.97118 -1.55765 -0.191116 0
M  V30 19 C 8.36115 -2.02725 1.13689 0
M  V30 20 O 7.47674 -2.14652 2.05419 0
M  V30 21 O 9.66544 -2.3611 1.47536 0
M  V30 22 C -0.383668 0.737735 0.367094 0
M  V30 23 O 0.161638 1.62672 1.05949 0
M  V30 24 C -1.76062 0.992371 -0.134059 0 CFG=1
M  V30 25 N -2.73969 0.25793 0.655983 0
M  V30 26 C -3.48208 -0.677252 -0.136017 0
M  V30 27 O -3.26621 -0.636103 -1.44574 0
M  V30 28 C -4.41031 -1.7105 0.203808 0 CFG=2
M  V30 29 C -5.71787 -1.69912 -0.542926 0
M  V30 30 C -6.47016 -2.94184 -0.147894 0
M  V30 31 C -7.27869 -3.00785 0.924608 0
M  V30 32 C -7.9183 -4.19516 1.29717 0
M  V30 33 C -7.72445 -5.34457 0.54908 0
M  V30 34 C -6.88664 -5.24658 -0.55341 0
M  V30 35 C -6.25553 -4.08412 -0.92689 0
M  V30 36 N -4.62845 -1.86084 1.64555 0
M  V30 37 C -2.06941 2.44581 -0.0551488 0
M  V30 38 C -2.11597 3.12174 1.25862 0
M  V30 39 C -2.22556 4.61469 1.1103 0
M  V30 40 N -3.40459 5.01762 0.409064 0
M  V30 41 C -3.59469 6.41459 0.0895151 0
M  V30 42 N -4.75529 6.83401 -0.18232 0
M  V30 43 N -2.45684 7.30697 0.0824852 0
M  V30 44 H 2.30316 1.70637 -3.36965 0
M  V30 45 H 3.49317 1.45126 -2.0077 0
M  V30 46 H 3.40788 0.289089 -3.41539 0
M  V30 47 H 3.43988 -0.799676 -1.16424 0
M  V30 48 H 2.15675 -2.2581 -2.67792 0
M  V30 49 H 2.16111 -2.85072 -0.918599 0
M  V30 50 H 0.0129556 -1.31438 -2.44603 0
M  V30 51 H -0.0285067 -3.07479 -1.91564 0
M  V30 52 H -1.0737 -2.00557 0.0641137 0
M  V30 53 H 0.559205 -2.47946 0.336518 0
M  V30 54 H 2.13458 -1.38388 0.820499 0
M  V30 55 H 2.33367 0.854044 1.85824 0
M  V30 56 H 2.63564 1.5662 0.187741 0
M  V30 57 H 5.05088 1.76692 -0.0139616 0
M  V30 58 H 6.7208 -0.0313913 1.58495 0
M  V30 59 H 9.41252 1.57236 0.811425 0
M  V30 60 H 5.87744 -1.73582 0.0170267 0
M  V30 61 H 6.43016 -0.707612 -1.35992 0
M  V30 62 H 7.98809 -2.50632 -0.87045 0
M  V30 63 H 8.79589 -0.978167 -0.607673 0
M  V30 64 H 10.3099 -1.57588 1.67192 0
M  V30 65 H -1.77845 0.706606 -1.18753 0
M  V30 66 H -2.88711 0.394861 1.65113 0
M  V30 67 H -3.9144 -2.69586 -0.174009 0
M  V30 68 H -6.37828 -0.858796 -0.250975 0
M  V30 69 H -5.57432 -1.68269 -1.61767 0
M  V30 70 H -7.49246 -2.1544 1.57579 0
M  V30 71 H -8.54753 -4.24591 2.15245 0
M  V30 72 H -8.19098 -6.27415 0.801529 0
M  V30 73 H -6.72987 -6.15454 -1.14293 0
M  V30 74 H -5.60048 -4.04853 -1.80362 0
M  V30 75 H -4.59227 -2.90044 1.83079 0
M  V30 76 H -3.86463 -1.39668 2.19136 0
M  V30 77 H -3.02604 2.69708 -0.584931 0
M  V30 78 H -1.28648 2.97425 -0.689162 0
M  V30 79 H -3.14751 2.8496 1.73354 0
M  V30 80 H -1.43362 2.81798 2.04595 0
M  V30 81 H -2.1444 5.13272 2.10441 0
M  V30 82 H -1.36173 5.0379 0.531539 0
M  V30 83 H -4.12079 4.34174 0.135729 0
M  V30 84 H -5.57824 6.23693 -0.191145 0
M  V30 85 H -1.92064 7.5239 0.945474 0
M  V30 86 H -2.17528 7.72067 -0.828893 0
M  V30 END ATOM
M  V30 BEGIN BOND
M  V30 1 1 1 2
M  V30 2 1 2 3
M  V30 3 1 3 4
M  V30 4 1 4 5
M  V30 5 1 5 6
M  V30 6 1 6 7
M  V30 7 1 7 8
M  V30 8 1 8 9
M  V30 9 1 9 10
M  V30 10 2 10 11
M  V30 11 1 10 12
M  V30 12 1 12 13
M  V30 13 1 13 14
M  V30 14 2 14 15
M  V30 15 1 14 16
M  V30 16 1 13 17
M  V30 17 1 17 18
M  V30 18 1 18 19
M  V30 19 2 19 20
M  V30 20 1 19 21
M  V30 21 1 7 22
M  V30 22 2 22 23
M  V30 23 1 22 24
M  V30 24 1 24 25
M  V30 25 1 25 26
M  V30 26 2 26 27
M  V30 27 1 26 28
M  V30 28 1 28 29
M  V30 29 1 29 30
M  V30 30 2 30 31
M  V30 31 1 31 32
M  V30 32 2 32 33
M  V30 33 1 33 34
M  V30 34 2 34 35
M  V30 35 1 28 36
M  V30 36 1 24 37
M  V30 37 1 37 38
M  V30 38 1 38 39
M  V30 39 1 39 40
M  V30 40 1 40 41
M  V30 41 2 41 42 CFG=2
M  V30 42 1 41 43
M  V30 43 1 8 3
M  V30 44 1 35 30
M  V30 45 1 1 44
M  V30 46 1 1 45
M  V30 47 1 1 46
M  V30 48 1 3 47 CFG=1
M  V30 49 1 4 48
M  V30 50 1 4 49
M  V30 51 1 5 50
M  V30 52 1 5 51
M  V30 53 1 6 52
M  V30 54 1 6 53
M  V30 55 1 8 54 CFG=1
M  V30 56 1 9 55
M  V30 57 1 9 56
M  V30 58 1 12 57
M  V30 59 1 13 58 CFG=1
M  V30 60 1 16 59
M  V30 61 1 17 60
M  V30 62 1 17 61
M  V30 63 1 18 62
M  V30 64 1 18 63
M  V30 65 1 21 64
M  V30 66 1 24 65 CFG=3
M  V30 67 1 25 66
M  V30 68 1 28 67 CFG=3
M  V30 69 1 29 68
M  V30 70 1 29 69
M  V30 71 1 31 70
M  V30 72 1 32 71
M  V30 73 1 33 72
M  V30 74 1 34 73
M  V30 75 1 35 74
M  V30 76 1 36 75
M  V30 77 1 36 76
M  V30 78 1 37 77
M  V30 79 1 37 78
M  V30 80 1 38 79
M  V30 81 1 38 80
M  V30 82 1 39 81
M  V30 83 1 39 82
M  V30 84 1 40 83
M  V30 85 1 42 84
M  V30 86 1 43 85
M  V30 87 1 43 86
M  V30 END BOND
M  V30 END CTAB
M  END
