
     RDKit          3D

  0  0  0  0  0  0  0  0  0  0999 V3000
M  V30 BEGIN CTAB
M  V30 COUNTS 47 51 0 0 0
M  V30 BEGIN ATOM
M  V30 1 N 4.40903 3.45458 1.61404 0
M  V30 2 C 5.06648 2.57414 0.718841 0
M  V30 3 N 6.34489 2.6107 0.280163 0
M  V30 4 O 6.57632 1.63817 -0.52838 0
M  V30 5 C 5.50572 0.884117 -0.699742 0
M  V30 6 C 4.52396 1.45998 0.0869179 0
M  V30 7 C 3.30148 0.872199 0.0957753 0
M  V30 8 C 2.99007 -0.27587 -0.644967 0
M  V30 9 C 3.99648 -0.808722 -1.41024 0
M  V30 10 C 5.25932 -0.24414 -1.45027 0
M  V30 11 C 1.61964 -0.776401 -0.589432 0
M  V30 12 N 0.494442 -0.084968 -0.887877 0
M  V30 13 N -0.586655 -0.810474 -0.709516 0
M  V30 14 C -1.9764 -0.4593 -0.91088 0
M  V30 15 C -2.5825 0.108821 0.316103 0
M  V30 16 O -1.91741 0.238984 1.35724 0
M  V30 17 N -3.93094 0.502293 0.287991 0
M  V30 18 C -4.74699 0.364523 -0.919907 0
M  V30 19 C -5.91168 1.32284 -0.815073 0
M  V30 20 O -5.56433 2.52525 -0.233928 0
M  V30 21 C -5.10175 2.42976 1.05104 0
M  V30 22 C -4.61148 1.0696 1.44198 0
M  V30 23 C -0.188397 -2.02878 -0.276909 0
M  V30 24 N -0.865331 -3.14391 0.0678552 0
M  V30 25 C -0.268577 -4.2656 0.49384 0
M  V30 26 N 1.07231 -4.28632 0.584812 0
M  V30 27 C 1.77852 -3.18324 0.245673 0
M  V30 28 N 3.18622 -3.24878 0.395833 0
M  V30 29 C 1.19563 -2.01925 -0.196467 0
M  V30 30 H 4.82164 3.61639 2.55279 0
M  V30 31 H 3.52818 3.95003 1.37632 0
M  V30 32 H 2.52915 1.33699 0.723654 0
M  V30 33 H 3.77793 -1.69663 -2.02105 0
M  V30 34 H 6.03653 -0.689331 -2.06534 0
M  V30 35 H -2.00745 0.319095 -1.69994 0
M  V30 36 H -2.52805 -1.36795 -1.18202 0
M  V30 37 H -4.17703 0.575098 -1.83562 0
M  V30 38 H -5.15532 -0.666649 -0.897138 0
M  V30 39 H -6.21447 1.55531 -1.87077 0
M  V30 40 H -6.75709 0.821084 -0.34543 0
M  V30 41 H -4.23655 3.14953 1.144 0
M  V30 42 H -5.86856 2.83581 1.77205 0
M  V30 43 H -3.96364 1.16225 2.32193 0
M  V30 44 H -5.49962 0.42649 1.6201 0
M  V30 45 H -0.797206 -5.16825 0.77359 0
M  V30 46 H 3.71813 -2.71037 1.11275 0
M  V30 47 H 3.72536 -3.86912 -0.244411 0
M  V30 END ATOM
M  V30 BEGIN BOND
M  V30 1 1 1 2
M  V30 2 2 2 3
M  V30 3 1 3 4
M  V30 4 1 4 5
M  V30 5 2 5 6
M  V30 6 1 6 7
M  V30 7 2 7 8
M  V30 8 1 8 9
M  V30 9 2 9 10
M  V30 10 1 8 11
M  V30 11 2 11 12
M  V30 12 1 12 13
M  V30 13 1 13 14
M  V30 14 1 14 15
M  V30 15 2 15 16
M  V30 16 1 15 17
M  V30 17 1 17 18
M  V30 18 1 18 19
M  V30 19 1 19 20
M  V30 20 1 20 21
M  V30 21 1 21 22
M  V30 22 1 13 23
M  V30 23 2 23 24
M  V30 24 1 24 25
M  V30 25 2 25 26
M  V30 26 1 26 27
M  V30 27 1 27 28
M  V30 28 2 27 29
M  V30 29 1 6 2
M  V30 30 1 29 11
M  V30 31 1 10 5
M  V30 32 1 22 17
M  V30 33 1 29 23
M  V30 34 1 1 30
M  V30 35 1 1 31
M  V30 36 1 7 32
M  V30 37 1 9 33
M  V30 38 1 10 34
M  V30 39 1 14 35
M  V30 40 1 14 36
M  V30 41 1 18 37
M  V30 42 1 18 38
M  V30 43 1 19 39
M  V30 44 1 19 40
M  V30 45 1 21 41
M  V30 46 1 21 42
M  V30 47 1 22 43
M  V30 48 1 22 44
M  V30 49 1 25 45
M  V30 50 1 28 46
M  V30 51 1 28 47
M  V30 END BOND
M  V30 END CTAB
M  END
