
     RDKit          3D

  0  0  0  0  0  0  0  0  0  0999 V3000
M  V30 BEGIN CTAB
M  V30 COUNTS 64 65 0 0 0
M  V30 BEGIN ATOM
M  V30 1 N -8.41173 -3.00609 1.48697 0
M  V30 2 C -7.9555 -3.24572 0.117035 0
M  V30 3 C -6.79825 -2.35624 -0.190152 0
M  V30 4 C -5.5214 -2.79133 0.048829 0
M  V30 5 C -4.4188 -2.04465 -0.201493 0
M  V30 6 C -4.59651 -0.755643 -0.734787 0
M  V30 7 O -3.45026 -0.065047 -0.962272 0
M  V30 8 C -3.14069 1.17529 -1.43507 0
M  V30 9 C -3.59349 2.366 -0.681014 0
M  V30 10 C -3.23126 2.5359 0.730378 0
M  V30 11 C -1.82201 2.62369 1.17428 0
M  V30 12 C -1.01202 1.41697 0.945138 0
M  V30 13 C 0.439866 1.53759 1.50496 0
M  V30 14 C 1.14984 2.64333 0.861067 0
M  V30 15 C 2.51787 3.00611 1.20673 0
M  V30 16 C 3.68533 2.14615 1.04918 0
M  V30 17 C 3.75754 0.865539 1.80548 0
M  V30 18 O 4.91442 0.135735 1.63565 0
M  V30 19 C 5.50272 -0.481379 0.600958 0
M  V30 20 C 6.73765 -1.13699 0.761871 0
M  V30 21 C 7.34149 -1.77224 -0.297004 0
M  V30 22 C 6.78242 -1.80342 -1.55531 0
M  V30 23 C 7.45147 -2.49561 -2.68992 0
M  V30 24 N 8.69502 -3.10518 -2.28267 0
M  V30 25 C 5.57678 -1.16691 -1.72313 0
M  V30 26 C 4.94879 -0.514821 -0.651136 0
M  V30 27 C -5.85975 -0.311095 -0.977614 0
M  V30 28 C -6.98712 -1.10426 -0.709238 0
M  V30 29 H -7.55347 -2.71179 2.03002 0
M  V30 30 H -9.14313 -2.24831 1.50364 0
M  V30 31 H -7.58198 -4.28679 0.105325 0
M  V30 32 H -8.76691 -3.0636 -0.610048 0
M  V30 33 H -5.41054 -3.79413 0.462149 0
M  V30 34 H -3.45611 -2.44212 0.00665698 0
M  V30 35 H -3.73883 1.24821 -2.4588 0
M  V30 36 H -2.12075 1.21788 -1.83471 0
M  V30 37 H -4.72625 2.40896 -0.733421 0
M  V30 38 H -3.32806 3.29833 -1.29758 0
M  V30 39 H -3.73779 1.70111 1.30821 0
M  V30 40 H -3.7897 3.4607 1.09347 0
M  V30 41 H -1.7996 2.97498 2.23667 0
M  V30 42 H -1.3462 3.49319 0.61275 0
M  V30 43 H -1.43205 0.531909 1.51174 0
M  V30 44 H -0.819534 1.13173 -0.100269 0
M  V30 45 H 0.311555 1.69237 2.61627 0
M  V30 46 H 0.808038 0.510289 1.32875 0
M  V30 47 H 0.521647 3.58538 1.07801 0
M  V30 48 H 1.00412 2.55694 -0.265086 0
M  V30 49 H 2.74689 3.95762 0.590759 0
M  V30 50 H 2.58651 3.45078 2.26254 0
M  V30 51 H 4.03928 2.06365 -0.0248876 0
M  V30 52 H 4.57202 2.75895 1.48403 0
M  V30 53 H 3.54775 1.08928 2.86367 0
M  V30 54 H 2.93494 0.16174 1.46135 0
M  V30 55 H 7.16267 -1.10129 1.76201 0
M  V30 56 H 8.29162 -2.26946 -0.146155 0
M  V30 57 H 6.78066 -3.30741 -3.04149 0
M  V30 58 H 7.67222 -1.77689 -3.50482 0
M  V30 59 H 9.36879 -3.22141 -3.05665 0
M  V30 60 H 8.57214 -4.03888 -1.8342 0
M  V30 61 H 5.13828 -1.19139 -2.71161 0
M  V30 62 H 3.99604 -0.054045 -0.853968 0
M  V30 63 H -6.03399 0.665483 -1.39795 0
M  V30 64 H -7.97275 -0.747624 -0.902444 0
M  V30 END ATOM
M  V30 BEGIN BOND
M  V30 1 1 1 2
M  V30 2 1 2 3
M  V30 3 2 3 4
M  V30 4 1 4 5
M  V30 5 2 5 6
M  V30 6 1 6 7
M  V30 7 1 7 8
M  V30 8 1 8 9
M  V30 9 1 9 10
M  V30 10 1 10 11
M  V30 11 1 11 12
M  V30 12 1 12 13
M  V30 13 1 13 14
M  V30 14 1 14 15
M  V30 15 1 15 16
M  V30 16 1 16 17
M  V30 17 1 17 18
M  V30 18 1 18 19
M  V30 19 2 19 20
M  V30 20 1 20 21
M  V30 21 2 21 22
M  V30 22 1 22 23
M  V30 23 1 23 24
M  V30 24 1 22 25
M  V30 25 2 25 26
M  V30 26 1 6 27
M  V30 27 2 27 28
M  V30 28 1 28 3
M  V30 29 1 26 19
M  V30 30 1 1 29
M  V30 31 1 1 30
M  V30 32 1 2 31
M  V30 33 1 2 32
M  V30 34 1 4 33
M  V30 35 1 5 34
M  V30 36 1 8 35
M  V30 37 1 8 36
M  V30 38 1 9 37
M  V30 39 1 9 38
M  V30 40 1 10 39
M  V30 41 1 10 40
M  V30 42 1 11 41
M  V30 43 1 11 42
M  V30 44 1 12 43
M  V30 45 1 12 44
M  V30 46 1 13 45
M  V30 47 1 13 46
M  V30 48 1 14 47
M  V30 49 1 14 48
M  V30 50 1 15 49
M  V30 51 1 15 50
M  V30 52 1 16 51
M  V30 53 1 16 52
M  V30 54 1 17 53
M  V30 55 1 17 54
M  V30 56 1 20 55
M  V30 57 1 21 56
M  V30 58 1 23 57
M  V30 59 1 23 58
M  V30 60 1 24 59
M  V30 61 1 24 60
M  V30 62 1 25 61
M  V30 63 1 26 62
M  V30 64 1 27 63
M  V30 65 1 28 64
M  V30 END BOND
M  V30 END CTAB
M  END
