
     RDKit          3D

  0  0  0  0  0  0  0  0  0  0999 V3000
M  V30 BEGIN CTAB
M  V30 COUNTS 22 22 0 0 0
M  V30 BEGIN ATOM
M  V30 1 N -3.52017 1.55328 0.155766 0
M  V30 2 N -2.17249 1.30624 0.0659742 0
M  V30 3 C -1.61196 0.149972 0.121098 0
M  V30 4 C -0.155687 0.047524 0.00962812 0
M  V30 5 C 0.637243 1.1631 -0.154733 0
M  V30 6 C 2.01036 1.08545 -0.261301 0
M  V30 7 C 2.66036 -0.129632 -0.207338 0
M  V30 8 C 1.8704 -1.24841 -0.0429354 0
M  V30 9 C 0.498589 -1.16494 0.0630124 0
M  V30 10 N 4.0785 -0.23257 -0.315392 0
M  V30 11 C -2.48366 -1.01956 0.29548 0
M  V30 12 H -3.86171 2.13862 0.959271 0
M  V30 13 H -4.2535 1.21766 -0.497457 0
M  V30 14 H 0.139165 2.12675 -0.198971 0
M  V30 15 H 2.64488 1.96472 -0.391633 0
M  V30 16 H 2.38905 -2.20597 -0.00093916 0
M  V30 17 H -0.0998018 -2.07369 0.193115 0
M  V30 18 H 4.50903 -0.749209 -1.09984 0
M  V30 19 H 4.71096 0.207995 0.389753 0
M  V30 20 H -3.50632 -0.875774 -0.06858 0
M  V30 21 H -2.43263 -1.42043 1.33511 0
M  V30 22 H -2.05062 -1.84113 -0.349087 0
M  V30 END ATOM
M  V30 BEGIN BOND
M  V30 1 1 1 2
M  V30 2 2 2 3
M  V30 3 1 3 4
M  V30 4 2 4 5
M  V30 5 1 5 6
M  V30 6 2 6 7
M  V30 7 1 7 8
M  V30 8 2 8 9
M  V30 9 1 7 10
M  V30 10 1 3 11
M  V30 11 1 9 4
M  V30 12 1 1 12
M  V30 13 1 1 13
M  V30 14 1 5 14
M  V30 15 1 6 15
M  V30 16 1 8 16
M  V30 17 1 9 17
M  V30 18 1 10 18
M  V30 19 1 10 19
M  V30 20 1 11 20
M  V30 21 1 11 21
M  V30 22 1 11 22
M  V30 END BOND
M  V30 END CTAB
M  END
