
     RDKit          3D

  0  0  0  0  0  0  0  0  0  0999 V3000
M  V30 BEGIN CTAB
M  V30 COUNTS 40 39 0 0 0
M  V30 BEGIN ATOM
M  V30 1 O 0.502468 2.06537 0.77667 0
M  V30 2 C 0.711156 1.71901 -0.0544968 0
M  V30 3 C 2.05478 1.0213 -0.280818 0
M  V30 4 C 2.85954 1.01679 0.966227 0
M  V30 5 C 4.19233 0.363873 0.7423 0 CFG=2
M  V30 6 C 4.14377 -1.02574 0.312504 0
M  V30 7 O 4.61683 -1.97009 1.03235 0
M  V30 8 O 3.59406 -1.41904 -0.887582 0
M  V30 9 N 5.02733 0.47992 1.94551 0
M  V30 10 N -0.134264 1.7767 -1.18743 0
M  V30 11 C -1.43413 2.39616 -1.13865 0
M  V30 12 C -2.29586 1.67033 -0.14384 0
M  V30 13 C -2.38291 0.215684 -0.629625 0
M  V30 14 C -3.23818 -0.505864 0.357239 0
M  V30 15 C -3.47365 -1.95352 0.0723189 0 CFG=1
M  V30 16 C -2.25277 -2.77707 0.0235799 0
M  V30 17 O -1.3765 -2.56051 -0.837789 0
M  V30 18 O -2.05949 -3.80403 0.93324 0
M  V30 19 N -4.39634 -2.4434 1.09324 0
M  V30 20 H 1.74115 0.00745721 -0.610733 0
M  V30 21 H 2.59296 1.54154 -1.07584 0
M  V30 22 H 2.33039 0.563234 1.83604 0
M  V30 23 H 3.07574 2.06968 1.26913 0
M  V30 24 H 4.73348 0.94953 -0.0396727 0
M  V30 25 H 4.24725 -1.6706 -1.6337 0
M  V30 26 H 5.22976 1.49484 2.06904 0
M  V30 27 H 5.89665 -0.0542787 1.749 0
M  V30 28 H 0.212431 1.34755 -2.09105 0
M  V30 29 H -1.95705 2.2882 -2.13059 0
M  V30 30 H -1.37859 3.46915 -0.852229 0
M  V30 31 H -1.85716 1.73514 0.858371 0
M  V30 32 H -3.3208 2.11306 -0.11892 0
M  V30 33 H -2.8251 0.154994 -1.62323 0
M  V30 34 H -1.33201 -0.15352 -0.694346 0
M  V30 35 H -2.74439 -0.423182 1.35164 0
M  V30 36 H -4.20479 0.0527855 0.410923 0
M  V30 37 H -4.01069 -2.01345 -0.909934 0
M  V30 38 H -1.71326 -3.5242 1.85692 0
M  V30 39 H -5.347 -2.05317 0.929395 0
M  V30 40 H -4.02714 -2.16061 2.0175 0
M  V30 END ATOM
M  V30 BEGIN BOND
M  V30 1 2 1 2
M  V30 2 1 2 3
M  V30 3 1 3 4
M  V30 4 1 4 5
M  V30 5 1 5 6
M  V30 6 2 6 7
M  V30 7 1 6 8
M  V30 8 1 5 9
M  V30 9 1 2 10
M  V30 10 1 10 11
M  V30 11 1 11 12
M  V30 12 1 12 13
M  V30 13 1 13 14
M  V30 14 1 14 15
M  V30 15 1 15 16
M  V30 16 2 16 17
M  V30 17 1 16 18
M  V30 18 1 15 19
M  V30 19 1 3 20
M  V30 20 1 3 21
M  V30 21 1 4 22
M  V30 22 1 4 23
M  V30 23 1 5 24 CFG=3
M  V30 24 1 8 25
M  V30 25 1 9 26
M  V30 26 1 9 27
M  V30 27 1 10 28
M  V30 28 1 11 29
M  V30 29 1 11 30
M  V30 30 1 12 31
M  V30 31 1 12 32
M  V30 32 1 13 33
M  V30 33 1 13 34
M  V30 34 1 14 35
M  V30 35 1 14 36
M  V30 36 1 15 37 CFG=3
M  V30 37 1 18 38
M  V30 38 1 19 39
M  V30 39 1 19 40
M  V30 END BOND
M  V30 END CTAB
M  END
