
     RDKit          3D

  0  0  0  0  0  0  0  0  0  0999 V3000
M  V30 BEGIN CTAB
M  V30 COUNTS 36 37 0 0 0
M  V30 BEGIN ATOM
M  V30 1 N 0.0345443 -2.66629 -1.92254 0
M  V30 2 C -0.759689 -1.84776 -1.71874 0
M  V30 3 C -1.72912 -0.818941 -1.46532 0
M  V30 4 C -2.98935 -1.14068 -1.62708 0
M  V30 5 N -3.423 -2.42662 -2.03082 0
M  V30 6 S -4.18198 0.171894 -1.29932 0
M  V30 7 C -3.41504 1.16222 -0.00321967 0
M  V30 8 C -2.09395 1.19436 -0.0478433 0
M  V30 9 C -1.29799 0.491568 -1.05747 0
M  V30 10 C 0.128052 0.416232 -0.600158 0
M  V30 11 C 1.15815 1.07891 -1.22969 0
M  V30 12 C 2.46902 1.00784 -0.806795 0
M  V30 13 C 2.76703 0.23651 0.300258 0
M  V30 14 C 1.77228 -0.444058 0.962574 0
M  V30 15 C 0.474547 -0.349735 0.511833 0
M  V30 16 O 2.10256 -1.20981 2.07024 0
M  V30 17 C 1.08053 -1.90444 2.7446 0
M  V30 18 O 4.06198 0.12128 0.778299 0
M  V30 19 C 5.16204 0.777809 0.174533 0
M  V30 20 C -1.40866 1.95855 0.943016 0
M  V30 21 N -0.868171 2.58202 1.75536 0
M  V30 22 N -4.23237 1.80918 0.93169 0
M  V30 23 H -3.52412 -2.62888 -3.03099 0
M  V30 24 H -3.62986 -3.13714 -1.32156 0
M  V30 25 H -1.26729 1.17408 -1.96229 0
M  V30 26 H 0.936794 1.69087 -2.10424 0
M  V30 27 H 3.27948 1.51928 -1.28878 0
M  V30 28 H -0.303022 -0.880305 1.02766 0
M  V30 29 H 0.780799 -2.74983 2.06474 0
M  V30 30 H 0.216032 -1.24977 2.9721 0
M  V30 31 H 1.46231 -2.39 3.66235 0
M  V30 32 H 5.99731 0.722983 0.902987 0
M  V30 33 H 4.96335 1.83183 -0.0652726 0
M  V30 34 H 5.4153 0.27245 -0.785215 0
M  V30 35 H -4.09904 1.75721 1.96507 0
M  V30 36 H -5.03945 2.39134 0.600032 0
M  V30 END ATOM
M  V30 BEGIN BOND
M  V30 1 3 1 2
M  V30 2 1 2 3
M  V30 3 2 3 4
M  V30 4 1 4 5
M  V30 5 1 4 6
M  V30 6 1 6 7
M  V30 7 2 7 8
M  V30 8 1 8 9
M  V30 9 1 9 10
M  V30 10 2 10 11
M  V30 11 1 11 12
M  V30 12 2 12 13
M  V30 13 1 13 14
M  V30 14 2 14 15
M  V30 15 1 14 16
M  V30 16 1 16 17
M  V30 17 1 13 18
M  V30 18 1 18 19
M  V30 19 1 8 20
M  V30 20 3 20 21
M  V30 21 1 7 22
M  V30 22 1 9 3
M  V30 23 1 15 10
M  V30 24 1 5 23
M  V30 25 1 5 24
M  V30 26 1 9 25
M  V30 27 1 11 26
M  V30 28 1 12 27
M  V30 29 1 15 28
M  V30 30 1 17 29
M  V30 31 1 17 30
M  V30 32 1 17 31
M  V30 33 1 19 32
M  V30 34 1 19 33
M  V30 35 1 19 34
M  V30 36 1 22 35
M  V30 37 1 22 36
M  V30 END BOND
M  V30 END CTAB
M  END
