
     RDKit          3D

  0  0  0  0  0  0  0  0  0  0999 V3000
M  V30 BEGIN CTAB
M  V30 COUNTS 43 45 0 0 0
M  V30 BEGIN ATOM
M  V30 1 N 6.70592 -0.155994 -0.322282 0
M  V30 2 C 5.59336 0.705661 -0.251691 0 CFG=2
M  V30 3 C 4.65111 0.494103 0.936457 0
M  V30 4 C 3.51335 0.867671 -0.0234312 0 CFG=1
M  V30 5 C 4.41136 0.326244 -1.14204 0
M  V30 6 C 2.27463 0.133937 0.1815 0
M  V30 7 C 1.08615 0.80392 0.308997 0
M  V30 8 C -0.126298 0.126434 0.507546 0
M  V30 9 N -1.31967 0.878605 0.644619 0
M  V30 10 C -2.57439 0.188568 0.824434 0 CFG=2
M  V30 11 C -2.8897 -0.571534 -0.437453 0
M  V30 12 C -3.83529 0.267354 -1.2705 0
M  V30 13 C -5.20627 0.179068 -0.641687 0 CFG=2
M  V30 14 C -5.05469 0.547656 0.812258 0
M  V30 15 C -3.70906 1.13676 1.12064 0
M  V30 16 O -5.67966 -1.1242 -0.815216 0
M  V30 17 N -0.0926155 -1.2192 0.570686 0
M  V30 18 C 1.07568 -1.8728 0.4451 0
M  V30 19 N 2.25276 -1.20331 0.25175 0
M  V30 20 N 1.04798 -3.29508 0.520402 0
M  V30 21 H 7.08275 -0.509069 0.526915 0
M  V30 22 H 7.42368 0.224131 -0.943107 0
M  V30 23 H 5.78155 1.79342 -0.374471 0
M  V30 24 H 4.52892 -0.546334 1.24552 0
M  V30 25 H 4.77694 1.22442 1.75258 0
M  V30 26 H 3.44439 1.96043 -0.069605 0
M  V30 27 H 4.35082 -0.769465 -1.22927 0
M  V30 28 H 4.32949 0.902227 -2.07337 0
M  V30 29 H 1.05592 1.87394 0.259254 0
M  V30 30 H -1.29692 1.90607 0.616943 0
M  V30 31 H -2.52782 -0.506023 1.70623 0
M  V30 32 H -3.30865 -1.57737 -0.225948 0
M  V30 33 H -1.97529 -0.677848 -1.03746 0
M  V30 34 H -3.84832 -0.0690872 -2.33295 0
M  V30 35 H -3.52343 1.32565 -1.25814 0
M  V30 36 H -5.91335 0.864741 -1.17179 0
M  V30 37 H -5.81419 1.32251 1.03949 0
M  V30 38 H -5.29577 -0.323896 1.45861 0
M  V30 39 H -3.7436 1.38825 2.22302 0
M  V30 40 H -3.62656 2.10699 0.590459 0
M  V30 41 H -6.06096 -1.48422 0.0230926 0
M  V30 42 H 1.53444 -3.92136 -0.155725 0
M  V30 43 H 0.50128 -3.72198 1.30882 0
M  V30 END ATOM
M  V30 BEGIN BOND
M  V30 1 1 1 2
M  V30 2 1 2 3
M  V30 3 1 3 4
M  V30 4 1 4 5
M  V30 5 1 4 6
M  V30 6 2 6 7
M  V30 7 1 7 8
M  V30 8 1 8 9
M  V30 9 1 9 10
M  V30 10 1 10 11
M  V30 11 1 11 12
M  V30 12 1 12 13
M  V30 13 1 13 14
M  V30 14 1 14 15
M  V30 15 1 13 16
M  V30 16 2 8 17
M  V30 17 1 17 18
M  V30 18 2 18 19
M  V30 19 1 18 20
M  V30 20 1 5 2
M  V30 21 1 19 6
M  V30 22 1 15 10
M  V30 23 1 1 21
M  V30 24 1 1 22
M  V30 25 1 2 23 CFG=3
M  V30 26 1 3 24
M  V30 27 1 3 25
M  V30 28 1 4 26 CFG=3
M  V30 29 1 5 27
M  V30 30 1 5 28
M  V30 31 1 7 29
M  V30 32 1 9 30
M  V30 33 1 10 31 CFG=1
M  V30 34 1 11 32
M  V30 35 1 11 33
M  V30 36 1 12 34
M  V30 37 1 12 35
M  V30 38 1 13 36 CFG=3
M  V30 39 1 14 37
M  V30 40 1 14 38
M  V30 41 1 15 39
M  V30 42 1 15 40
M  V30 43 1 16 41
M  V30 44 1 20 42
M  V30 45 1 20 43
M  V30 END BOND
M  V30 END CTAB
M  END
