
     RDKit          3D

  0  0  0  0  0  0  0  0  0  0999 V3000
M  V30 BEGIN CTAB
M  V30 COUNTS 65 67 0 0 0
M  V30 BEGIN ATOM
M  V30 1 C -4.22439 -0.259126 -0.955443 0 CFG=2
M  V30 2 C -4.58898 -1.6239 -0.78867 0
M  V30 3 C -5.8286 -2.24497 -1.23749 0
M  V30 4 C -7.10687 -1.89438 -0.650763 0
M  V30 5 O -8.14806 -1.78826 -1.40917 0
M  V30 6 O -7.30779 -1.67332 0.696259 0
M  V30 7 C -8.56117 -1.38469 1.24929 0
M  V30 8 C -9.18715 -0.131808 0.735496 0
M  V30 9 N -2.7902 -0.203767 -0.419766 0
M  V30 10 C -1.70094 -0.417079 -1.24039 0
M  V30 11 O -1.82814 -0.684966 -2.45283 0
M  V30 12 C -0.361419 -0.312861 -0.663582 0
M  V30 13 C -0.0764765 0.767718 0.163535 0
M  V30 14 C 1.18207 0.957487 0.734835 0
M  V30 15 C 2.16091 0.0533975 0.476604 0
M  V30 16 N 3.51223 0.209012 1.01271 0
M  V30 17 C 4.55083 -0.0285178 0.0736889 0
M  V30 18 C 5.92649 0.158894 0.541529 0
M  V30 19 N 6.94297 -0.179406 -0.316267 0
M  V30 20 C 8.24929 -0.0267796 -0.0519828 0
M  V30 21 C 8.67647 0.49284 1.13604 0
M  V30 22 C 7.69492 0.848492 2.03533 0
M  V30 23 C 6.3256 0.674355 1.73085 0
M  V30 24 N 10.0097 0.631218 1.37683 0
M  V30 25 C 10.9506 0.271539 0.459267 0
M  V30 26 N 12.3397 0.406579 0.727 0
M  V30 27 N 10.5027 -0.227431 -0.691114 0
M  V30 28 C 9.21012 -0.395709 -0.995259 0
M  V30 29 N 8.72913 -0.948536 -2.20466 0
M  V30 30 C 1.87506 -1.01254 -0.335582 0
M  V30 31 C 0.617314 -1.22048 -0.920099 0
M  V30 32 C -4.73659 0.95706 -0.407629 0
M  V30 33 O -4.98444 1.98238 -1.15686 0
M  V30 34 O -4.9741 1.16008 0.935487 0
M  V30 35 C -5.37582 2.34524 1.54649 0
M  V30 36 C -6.71644 2.83083 1.19557 0
M  V30 37 H -4.04667 -0.0817711 -2.11489 0
M  V30 38 H -3.68029 -2.24227 -1.22992 0
M  V30 39 H -4.42335 -1.9027 0.344376 0
M  V30 40 H -5.70199 -3.38539 -1.02952 0
M  V30 41 H -5.90233 -2.20567 -2.38533 0
M  V30 42 H -8.39459 -1.2507 2.36499 0
M  V30 43 H -9.29254 -2.26531 1.13651 0
M  V30 44 H -10.3133 -0.241174 0.772293 0
M  V30 45 H -8.83937 0.136789 -0.263029 0
M  V30 46 H -8.95613 0.713693 1.43339 0
M  V30 47 H -2.77509 -0.00013794 0.601127 0
M  V30 48 H -0.869825 1.48466 0.376866 0
M  V30 49 H 1.36839 1.83244 1.36858 0
M  V30 50 H 3.60378 0.465284 1.99416 0
M  V30 51 H 4.37821 0.742524 -0.778925 0
M  V30 52 H 4.40605 -1.03079 -0.39909 0
M  V30 53 H 8.02128 1.26258 2.96753 0
M  V30 54 H 5.57231 0.960347 2.45675 0
M  V30 55 H 12.997 -0.239952 0.243577 0
M  V30 56 H 12.7765 1.08805 1.36285 0
M  V30 57 H 9.02443 -1.90969 -2.46712 0
M  V30 58 H 8.09073 -0.455772 -2.84624 0
M  V30 59 H 2.65589 -1.71832 -0.528663 0
M  V30 60 H 0.442837 -2.07042 -1.53535 0
M  V30 61 H -4.58452 3.15281 1.31225 0
M  V30 62 H -5.25793 2.22142 2.66032 0
M  V30 63 H -7.44582 2.33838 1.92257 0
M  V30 64 H -7.00724 2.56394 0.187064 0
M  V30 65 H -6.80506 3.94855 1.37507 0
M  V30 END ATOM
M  V30 BEGIN BOND
M  V30 1 1 1 2
M  V30 2 1 2 3
M  V30 3 1 3 4
M  V30 4 2 4 5
M  V30 5 1 4 6
M  V30 6 1 6 7
M  V30 7 1 7 8
M  V30 8 1 1 9
M  V30 9 1 9 10
M  V30 10 2 10 11
M  V30 11 1 10 12
M  V30 12 2 12 13
M  V30 13 1 13 14
M  V30 14 2 14 15
M  V30 15 1 15 16
M  V30 16 1 16 17
M  V30 17 1 17 18
M  V30 18 2 18 19
M  V30 19 1 19 20
M  V30 20 2 20 21
M  V30 21 1 21 22
M  V30 22 2 22 23
M  V30 23 1 21 24
M  V30 24 2 24 25
M  V30 25 1 25 26
M  V30 26 1 25 27
M  V30 27 2 27 28
M  V30 28 1 28 29
M  V30 29 1 15 30
M  V30 30 2 30 31
M  V30 31 1 1 32
M  V30 32 2 32 33
M  V30 33 1 32 34
M  V30 34 1 34 35
M  V30 35 1 35 36
M  V30 36 1 31 12
M  V30 37 1 23 18
M  V30 38 1 28 20
M  V30 39 1 1 37 CFG=3
M  V30 40 1 2 38
M  V30 41 1 2 39
M  V30 42 1 3 40
M  V30 43 1 3 41
M  V30 44 1 7 42
M  V30 45 1 7 43
M  V30 46 1 8 44
M  V30 47 1 8 45
M  V30 48 1 8 46
M  V30 49 1 9 47
M  V30 50 1 13 48
M  V30 51 1 14 49
M  V30 52 1 16 50
M  V30 53 1 17 51
M  V30 54 1 17 52
M  V30 55 1 22 53
M  V30 56 1 23 54
M  V30 57 1 26 55
M  V30 58 1 26 56
M  V30 59 1 29 57
M  V30 60 1 29 58
M  V30 61 1 30 59
M  V30 62 1 31 60
M  V30 63 1 35 61
M  V30 64 1 35 62
M  V30 65 1 36 63
M  V30 66 1 36 64
M  V30 67 1 36 65
M  V30 END BOND
M  V30 END CTAB
M  END
