
     RDKit          3D

  0  0  0  0  0  0  0  0  0  0999 V3000
M  V30 BEGIN CTAB
M  V30 COUNTS 19 20 0 0 0
M  V30 BEGIN ATOM
M  V30 1 N -2.79969 -0.685092 0.185185 0
M  V30 2 C -1.3921 -0.597872 0.0979002 0
M  V30 3 C -0.60138 -1.74062 0.0596819 0
M  V30 4 C 0.766407 -1.6401 -0.0252875 0
M  V30 5 C 1.41872 -0.424262 -0.0764146 0
M  V30 6 C 0.645481 0.717646 -0.0392662 0
M  V30 7 C -0.730585 0.611277 0.0462668 0
M  V30 8 N -1.51062 1.80429 0.0833513 0
M  V30 9 N 1.51868 1.74688 -0.102286 0
M  V30 10 C 2.77891 1.30608 -0.175737 0
M  V30 11 N 2.70512 -0.0363536 -0.159001 0
M  V30 12 H -3.35593 -0.118922 0.861968 0
M  V30 13 H -3.33313 -1.32989 -0.435908 0
M  V30 14 H -1.13734 -2.68728 0.10122 0
M  V30 15 H 1.37108 -2.55339 -0.0541644 0
M  V30 16 H -1.90218 2.11117 -0.849943 0
M  V30 17 H -1.70416 2.35582 0.925513 0
M  V30 18 H 3.71758 1.84439 -0.23834 0
M  V30 19 H 3.54512 -0.683776 -0.20474 0
M  V30 END ATOM
M  V30 BEGIN BOND
M  V30 1 1 1 2
M  V30 2 2 2 3
M  V30 3 1 3 4
M  V30 4 2 4 5
M  V30 5 1 5 6
M  V30 6 2 6 7
M  V30 7 1 7 8
M  V30 8 1 6 9
M  V30 9 2 9 10
M  V30 10 1 10 11
M  V30 11 1 7 2
M  V30 12 1 11 5
M  V30 13 1 1 12
M  V30 14 1 1 13
M  V30 15 1 3 14
M  V30 16 1 4 15
M  V30 17 1 8 16
M  V30 18 1 8 17
M  V30 19 1 10 18
M  V30 20 1 11 19
M  V30 END BOND
M  V30 END CTAB
M  END
