
     RDKit          3D

  0  0  0  0  0  0  0  0  0  0999 V3000
M  V30 BEGIN CTAB
M  V30 COUNTS 23 24 0 0 0
M  V30 BEGIN ATOM
M  V30 1 O 4.53622 -0.197114 -0.809104 0
M  V30 2 C 3.43349 -0.15533 -0.235052 0
M  V30 3 N 3.21872 -0.12683 1.16268 0
M  V30 4 N 1.82749 -0.252346 1.42374 0
M  V30 5 C 1.27428 0.468393 0.299858 0
M  V30 6 C 2.0906 -0.125335 -0.855349 0
M  V30 7 C -0.1689 0.243161 0.123125 0
M  V30 8 N -0.755486 -0.940305 0.186993 0
M  V30 9 C -2.085 -1.07986 0.0156731 0
M  V30 10 N -2.67849 -2.37001 0.0917998 0
M  V30 11 N -2.83212 0.0337863 -0.228777 0
M  V30 12 C -2.26275 1.25164 -0.299356 0
M  V30 13 N -0.946553 1.32901 -0.122197 0
M  V30 14 N -3.0514 2.39881 -0.553873 0
M  V30 15 H 3.89363 -0.033712 1.95026 0
M  V30 16 H 1.61461 -1.27341 1.26586 0
M  V30 17 H 1.52782 1.52348 0.373002 0
M  V30 18 H 1.79269 -1.19867 -1.01311 0
M  V30 19 H 2.02736 0.474182 -1.76027 0
M  V30 20 H -2.37401 -3.01095 0.855154 0
M  V30 21 H -3.38834 -2.63822 -0.60234 0
M  V30 22 H -3.15198 3.12098 0.183331 0
M  V30 23 H -3.54186 2.55866 -1.45205 0
M  V30 END ATOM
M  V30 BEGIN BOND
M  V30 1 2 1 2
M  V30 2 1 2 3
M  V30 3 1 3 4
M  V30 4 1 4 5
M  V30 5 1 5 6
M  V30 6 1 5 7
M  V30 7 2 7 8
M  V30 8 1 8 9
M  V30 9 1 9 10
M  V30 10 2 9 11
M  V30 11 1 11 12
M  V30 12 2 12 13
M  V30 13 1 12 14
M  V30 14 1 6 2
M  V30 15 1 13 7
M  V30 16 1 3 15
M  V30 17 1 4 16
M  V30 18 1 5 17
M  V30 19 1 6 18
M  V30 20 1 6 19
M  V30 21 1 10 20
M  V30 22 1 10 21
M  V30 23 1 14 22
M  V30 24 1 14 23
M  V30 END BOND
M  V30 END CTAB
M  END
