
     RDKit          3D

  0  0  0  0  0  0  0  0  0  0999 V3000
M  V30 BEGIN CTAB
M  V30 COUNTS 34 35 0 0 0
M  V30 BEGIN ATOM
M  V30 1 C -2.16087 -1.24257 0.856008 0
M  V30 2 C -2.42355 -0.579396 -0.459334 0
M  V30 3 C -3.88572 -0.110379 -0.417827 0
M  V30 4 C -3.83882 1.37315 -0.460334 0
M  V30 5 C -2.46668 1.70724 0.110993 0
M  V30 6 C -1.62421 0.69371 -0.643074 0
M  V30 7 N -0.266494 0.627448 -0.241517 0
M  V30 8 C 0.547997 -0.285747 -0.976683 0
M  V30 9 C 1.95638 -0.307832 -0.476673 0
M  V30 10 N 2.4782 0.794508 0.0966291 0
M  V30 11 C 3.72916 0.834891 0.567266 0
M  V30 12 N 4.33431 1.9513 1.17544 0
M  V30 13 N 4.47034 -0.29344 0.445649 0
M  V30 14 C 4.00208 -1.4188 -0.116258 0
M  V30 15 N 2.72708 -1.40037 -0.575272 0
M  V30 16 N 4.83424 -2.56866 -0.209222 0
M  V30 17 H -2.37253 -0.488268 1.66548 0
M  V30 18 H -2.99516 -1.99575 0.986736 0
M  V30 19 H -1.18689 -1.71244 0.972463 0
M  V30 20 H -2.26202 -1.26889 -1.29803 0
M  V30 21 H -4.40193 -0.567694 -1.30174 0
M  V30 22 H -4.38257 -0.40937 0.532434 0
M  V30 23 H -3.84598 1.67744 -1.54308 0
M  V30 24 H -4.65956 1.84745 0.110947 0
M  V30 25 H -2.49019 1.49624 1.20797 0
M  V30 26 H -2.17147 2.74594 -0.085282 0
M  V30 27 H -1.67204 1.02757 -1.72197 0
M  V30 28 H -0.176488 0.432121 0.779138 0
M  V30 29 H 0.601213 0.00434754 -2.06996 0
M  V30 30 H 0.140909 -1.30426 -0.921875 0
M  V30 31 H 4.805 2.66006 0.598252 0
M  V30 32 H 4.30714 2.0583 2.19678 0
M  V30 33 H 4.56811 -3.51506 0.131155 0
M  V30 34 H 5.78102 -2.46277 -0.649588 0
M  V30 END ATOM
M  V30 BEGIN BOND
M  V30 1 1 1 2
M  V30 2 1 2 3
M  V30 3 1 3 4
M  V30 4 1 4 5
M  V30 5 1 5 6
M  V30 6 1 6 7
M  V30 7 1 7 8
M  V30 8 1 8 9
M  V30 9 2 9 10
M  V30 10 1 10 11
M  V30 11 1 11 12
M  V30 12 2 11 13
M  V30 13 1 13 14
M  V30 14 2 14 15
M  V30 15 1 14 16
M  V30 16 1 6 2
M  V30 17 1 15 9
M  V30 18 1 1 17
M  V30 19 1 1 18
M  V30 20 1 1 19
M  V30 21 1 2 20
M  V30 22 1 3 21
M  V30 23 1 3 22
M  V30 24 1 4 23
M  V30 25 1 4 24
M  V30 26 1 5 25
M  V30 27 1 5 26
M  V30 28 1 6 27
M  V30 29 1 7 28
M  V30 30 1 8 29
M  V30 31 1 8 30
M  V30 32 1 12 31
M  V30 33 1 12 32
M  V30 34 1 16 33
M  V30 35 1 16 34
M  V30 END BOND
M  V30 END CTAB
M  END
