
     RDKit          3D

  0  0  0  0  0  0  0  0  0  0999 V3000
M  V30 BEGIN CTAB
M  V30 COUNTS 53 55 0 0 0
M  V30 BEGIN ATOM
M  V30 1 C -4.76559 2.08042 0.83485 0
M  V30 2 C -4.96274 0.9121 -0.130917 0
M  V30 3 C -4.72023 1.38966 -1.56231 0
M  V30 4 N -6.32783 0.503267 -0.0700553 0
M  V30 5 C -6.75721 -0.641263 0.28432 0
M  V30 6 N -8.16492 -0.94992 0.309885 0
M  V30 7 N -5.7995 -1.63255 0.660583 0
M  V30 8 C -4.53478 -1.38521 0.644728 0
M  V30 9 N -3.68653 -2.44763 1.0389 0
M  V30 10 N -4.0419 -0.112825 0.249208 0
M  V30 11 C -2.62881 0.0595749 0.259195 0
M  V30 12 C -1.92909 -0.233087 -0.902482 0
M  V30 13 C -0.547232 -0.073153 -0.922588 0
M  V30 14 C 0.12236 0.369756 0.193896 0
M  V30 15 C 1.58981 0.544696 0.169047 0
M  V30 16 C 2.3214 -0.713366 0.578137 0
M  V30 17 C 3.8124 -0.534548 0.554043 0
M  V30 18 C 4.34472 -0.168997 -0.792022 0
M  V30 19 C 5.83064 -0.0192886 -0.689777 0
M  V30 20 C 6.41677 1.22787 -0.64334 0
M  V30 21 C 7.76104 1.3942 -0.5453 0
M  V30 22 C 8.59965 0.323945 -0.488046 0
M  V30 23 Cl 10.3302 0.551963 -0.360845 0
M  V30 24 C 8.0404 -0.943436 -0.53285 0
M  V30 25 C 6.67278 -1.12928 -0.632513 0
M  V30 26 Cl 6.01184 -2.74472 -0.689123 0
M  V30 27 C -0.57609 0.657282 1.34048 0
M  V30 28 C -1.94723 0.503129 1.37412 0
M  V30 29 H -5.35243 2.92127 0.375879 0
M  V30 30 H -5.13194 1.82345 1.8422 0
M  V30 31 H -3.73285 2.4152 0.882052 0
M  V30 32 H -4.52474 0.568679 -2.24993 0
M  V30 33 H -3.85691 2.08902 -1.5103 0
M  V30 34 H -5.58088 1.97313 -1.9383 0
M  V30 35 H -8.52172 -1.55305 1.05395 0
M  V30 36 H -8.79513 -0.567088 -0.410286 0
M  V30 37 H -3.10254 -2.96717 0.361211 0
M  V30 38 H -3.64607 -2.71745 2.03831 0
M  V30 39 H -2.47901 -0.579813 -1.76365 0
M  V30 40 H -0.0497968 -0.315975 -1.85755 0
M  V30 41 H 1.93913 0.780389 -0.878935 0
M  V30 42 H 1.83889 1.40824 0.783904 0
M  V30 43 H 2.00592 -1.06103 1.58236 0
M  V30 44 H 2.07371 -1.53912 -0.123039 0
M  V30 45 H 4.04893 0.331031 1.2315 0
M  V30 46 H 4.31185 -1.44621 0.932046 0
M  V30 47 H 3.95741 0.814929 -1.12676 0
M  V30 48 H 4.08723 -0.964163 -1.55159 0
M  V30 49 H 5.76313 2.10865 -0.687709 0
M  V30 50 H 8.16136 2.40148 -0.513096 0
M  V30 51 H 8.65501 -1.83121 -0.492099 0
M  V30 52 H -0.02121 1.00218 2.19887 0
M  V30 53 H -2.51172 0.73262 2.29176 0
M  V30 END ATOM
M  V30 BEGIN BOND
M  V30 1 1 1 2
M  V30 2 1 2 3
M  V30 3 1 2 4
M  V30 4 2 4 5
M  V30 5 1 5 6
M  V30 6 1 5 7
M  V30 7 2 7 8
M  V30 8 1 8 9
M  V30 9 1 8 10
M  V30 10 1 10 11
M  V30 11 2 11 12
M  V30 12 1 12 13
M  V30 13 2 13 14
M  V30 14 1 14 15
M  V30 15 1 15 16
M  V30 16 1 16 17
M  V30 17 1 17 18
M  V30 18 1 18 19
M  V30 19 2 19 20
M  V30 20 1 20 21
M  V30 21 2 21 22
M  V30 22 1 22 23
M  V30 23 1 22 24
M  V30 24 2 24 25
M  V30 25 1 25 26
M  V30 26 1 14 27
M  V30 27 2 27 28
M  V30 28 1 10 2
M  V30 29 1 28 11
M  V30 30 1 25 19
M  V30 31 1 1 29
M  V30 32 1 1 30
M  V30 33 1 1 31
M  V30 34 1 3 32
M  V30 35 1 3 33
M  V30 36 1 3 34
M  V30 37 1 6 35
M  V30 38 1 6 36
M  V30 39 1 9 37
M  V30 40 1 9 38
M  V30 41 1 12 39
M  V30 42 1 13 40
M  V30 43 1 15 41
M  V30 44 1 15 42
M  V30 45 1 16 43
M  V30 46 1 16 44
M  V30 47 1 17 45
M  V30 48 1 17 46
M  V30 49 1 18 47
M  V30 50 1 18 48
M  V30 51 1 20 49
M  V30 52 1 21 50
M  V30 53 1 24 51
M  V30 54 1 27 52
M  V30 55 1 28 53
M  V30 END BOND
M  V30 END CTAB
M  END
