
     RDKit          3D

  0  0  0  0  0  0  0  0  0  0999 V3000
M  V30 BEGIN CTAB
M  V30 COUNTS 29 29 0 0 0
M  V30 BEGIN ATOM
M  V30 1 N 5.80549 0.592583 -0.435856 0
M  V30 2 C 4.40025 0.749983 -0.556336 0
M  V30 3 S 3.85057 2.03825 -1.39262 0
M  V30 4 N 3.53238 -0.198235 0.041787 0
M  V30 5 C 2.10696 0.0100564 -0.111687 0
M  V30 6 C 1.30617 -1.07477 0.575238 0
M  V30 7 C -0.140641 -0.797259 0.376991 0
M  V30 8 C -0.832371 -1.30414 -0.717776 0
M  V30 9 C -2.17503 -1.01768 -0.856517 0
M  V30 10 C -2.86981 -0.245855 0.0467198 0
M  V30 11 C -2.16673 0.248191 1.12637 0
M  V30 12 C -0.815334 -0.0189519 1.29913 0
M  V30 13 S -4.57398 0.108165 -0.144285 0
M  V30 14 O -5.16663 0.319855 1.21562 0
M  V30 15 O -5.22229 -1.01197 -0.89152 0
M  V30 16 N -4.73583 1.56761 -1.06678 0
M  V30 17 H 6.35624 0.914311 0.388897 0
M  V30 18 H 6.29362 0.11835 -1.24486 0
M  V30 19 H 3.93888 -1.00087 0.563673 0
M  V30 20 H 1.88118 0.0859472 -1.17694 0
M  V30 21 H 1.8657 0.988508 0.360044 0
M  V30 22 H 1.56945 -2.0308 0.0505677 0
M  V30 23 H 1.53786 -1.164 1.63621 0
M  V30 24 H -0.317384 -1.91492 -1.44778 0
M  V30 25 H -2.70124 -1.41168 -1.70244 0
M  V30 26 H -2.71361 0.85268 1.8326 0
M  V30 27 H -0.308555 0.38756 2.15613 0
M  V30 28 H -5.69558 1.94598 -0.862999 0
M  V30 29 H -4.00973 2.26312 -0.790233 0
M  V30 END ATOM
M  V30 BEGIN BOND
M  V30 1 1 1 2
M  V30 2 2 2 3
M  V30 3 1 2 4
M  V30 4 1 4 5
M  V30 5 1 5 6
M  V30 6 1 6 7
M  V30 7 2 7 8
M  V30 8 1 8 9
M  V30 9 2 9 10
M  V30 10 1 10 11
M  V30 11 2 11 12
M  V30 12 1 10 13
M  V30 13 2 13 14
M  V30 14 2 13 15
M  V30 15 1 13 16
M  V30 16 1 12 7
M  V30 17 1 1 17
M  V30 18 1 1 18
M  V30 19 1 4 19
M  V30 20 1 5 20
M  V30 21 1 5 21
M  V30 22 1 6 22
M  V30 23 1 6 23
M  V30 24 1 8 24
M  V30 25 1 9 25
M  V30 26 1 11 26
M  V30 27 1 12 27
M  V30 28 1 16 28
M  V30 29 1 16 29
M  V30 END BOND
M  V30 END CTAB
M  END
