
     RDKit          3D

  0  0  0  0  0  0  0  0  0  0999 V3000
M  V30 BEGIN CTAB
M  V30 COUNTS 36 37 0 0 0
M  V30 BEGIN ATOM
M  V30 1 C -2.93361 2.98027 -0.11315 0
M  V30 2 C -3.15367 1.52803 0.20393 0
M  V30 3 O -1.92989 0.830877 0.131932 0
M  V30 4 C -1.92791 -0.539461 0.382481 0
M  V30 5 C -3.12161 -1.19033 0.69418 0
M  V30 6 C -3.20377 -2.53637 0.952511 0
M  V30 7 C -2.06519 -3.30947 0.908589 0
M  V30 8 C -0.881391 -2.68235 0.603059 0
M  V30 9 C -0.788079 -1.30918 0.338248 0
M  V30 10 C 0.482883 -0.688608 0.0380936 0
M  V30 11 C 1.51673 -0.669669 0.978549 0
M  V30 12 C 2.73498 -0.116607 0.727372 0
M  V30 13 C 2.99819 0.462052 -0.502259 0
M  V30 14 C 1.9925 0.448611 -1.42714 0
M  V30 15 C 0.738296 -0.11563 -1.18179 0
M  V30 16 N -0.238027 -0.0632057 -2.22424 0
M  V30 17 C 4.33844 1.04818 -0.76234 0
M  V30 18 N 5.24336 0.67488 0.300684 0
M  V30 19 H -3.79139 3.40257 -0.672457 0
M  V30 20 H -2.70034 3.52161 0.81452 0
M  V30 21 H -2.05396 3.0128 -0.803752 0
M  V30 22 H -3.82655 1.10422 -0.590419 0
M  V30 23 H -3.67223 1.38392 1.18267 0
M  V30 24 H -4.02494 -0.594505 0.731394 0
M  V30 25 H -4.13944 -3.03111 1.19566 0
M  V30 26 H -2.12175 -4.38415 1.11284 0
M  V30 27 H 0.0145602 -3.26037 0.56228 0
M  V30 28 H 1.35514 -1.1161 1.95966 0
M  V30 29 H 3.53097 -0.104675 1.45802 0
M  V30 30 H 2.18826 0.901528 -2.39531 0
M  V30 31 H -0.373354 0.880764 -2.67619 0
M  V30 32 H -0.799213 -0.850669 -2.55545 0
M  V30 33 H 4.69258 0.563656 -1.71712 0
M  V30 34 H 4.26243 2.14352 -0.858913 0
M  V30 35 H 6.11372 0.208551 -0.051889 0
M  V30 36 H 5.54328 1.46642 0.892402 0
M  V30 END ATOM
M  V30 BEGIN BOND
M  V30 1 1 1 2
M  V30 2 1 2 3
M  V30 3 1 3 4
M  V30 4 2 4 5
M  V30 5 1 5 6
M  V30 6 2 6 7
M  V30 7 1 7 8
M  V30 8 2 8 9
M  V30 9 1 9 10
M  V30 10 2 10 11
M  V30 11 1 11 12
M  V30 12 2 12 13
M  V30 13 1 13 14
M  V30 14 2 14 15
M  V30 15 1 15 16
M  V30 16 1 13 17
M  V30 17 1 17 18
M  V30 18 1 9 4
M  V30 19 1 15 10
M  V30 20 1 1 19
M  V30 21 1 1 20
M  V30 22 1 1 21
M  V30 23 1 2 22
M  V30 24 1 2 23
M  V30 25 1 5 24
M  V30 26 1 6 25
M  V30 27 1 7 26
M  V30 28 1 8 27
M  V30 29 1 11 28
M  V30 30 1 12 29
M  V30 31 1 14 30
M  V30 32 1 16 31
M  V30 33 1 16 32
M  V30 34 1 17 33
M  V30 35 1 17 34
M  V30 36 1 18 35
M  V30 37 1 18 36
M  V30 END BOND
M  V30 END CTAB
M  END
