
     RDKit          3D

  0  0  0  0  0  0  0  0  0  0999 V3000
M  V30 BEGIN CTAB
M  V30 COUNTS 21 22 0 0 0
M  V30 BEGIN ATOM
M  V30 1 N 3.99151 0.130774 0.162992 0
M  V30 2 C 2.57391 -0.0557519 0.0276376 0
M  V30 3 N 1.71992 0.860867 0.502215 0
M  V30 4 C 0.371935 0.664459 0.363219 0
M  V30 5 C -0.518377 1.60297 0.848742 0
M  V30 6 C -1.86271 1.40032 0.706458 0
M  V30 7 C -2.39181 0.274605 0.0851725 0
M  V30 8 C -1.50528 -0.664004 -0.400495 0
M  V30 9 C -0.144195 -0.451375 -0.252411 0
M  V30 10 C 0.776822 -1.38444 -0.734244 0
M  V30 11 O 0.294651 -2.39342 -1.29129 0
M  V30 12 N 2.08149 -1.14606 -0.573622 0
M  V30 13 Cl -2.05224 -2.13047 -1.20638 0
M  V30 14 N -3.79462 0.0776332 -0.0554714 0
M  V30 15 H 4.68775 -0.305804 -0.475273 0
M  V30 16 H 4.36086 0.724759 0.925955 0
M  V30 17 H -0.131526 2.49224 1.33878 0
M  V30 18 H -2.58882 2.13263 1.08454 0
M  V30 19 H 2.76803 -1.8521 -0.938473 0
M  V30 20 H -4.27874 -0.110644 -0.942103 0
M  V30 21 H -4.35857 0.132809 0.82405 0
M  V30 END ATOM
M  V30 BEGIN BOND
M  V30 1 1 1 2
M  V30 2 2 2 3
M  V30 3 1 3 4
M  V30 4 2 4 5
M  V30 5 1 5 6
M  V30 6 2 6 7
M  V30 7 1 7 8
M  V30 8 2 8 9
M  V30 9 1 9 10
M  V30 10 2 10 11
M  V30 11 1 10 12
M  V30 12 1 8 13
M  V30 13 1 7 14
M  V30 14 1 12 2
M  V30 15 1 9 4
M  V30 16 1 1 15
M  V30 17 1 1 16
M  V30 18 1 5 17
M  V30 19 1 6 18
M  V30 20 1 12 19
M  V30 21 1 14 20
M  V30 22 1 14 21
M  V30 END BOND
M  V30 END CTAB
M  END
