
     RDKit          3D

  0  0  0  0  0  0  0  0  0  0999 V3000
M  V30 BEGIN CTAB
M  V30 COUNTS 32 32 0 0 0
M  V30 BEGIN ATOM
M  V30 1 N -5.41632 1.84031 -0.410517 0
M  V30 2 C -5.90245 0.510376 -0.242232 0
M  V30 3 S -7.52709 0.347487 -0.0653475 0
M  V30 4 N -5.04018 -0.605445 -0.235693 0
M  V30 5 N -3.6721 -0.453977 -0.40238 0
M  V30 6 C -2.77313 -1.03882 0.53874 0
M  V30 7 O -3.17705 -1.68985 1.53472 0
M  V30 8 C -1.34171 -0.851713 0.299458 0
M  V30 9 C -0.453637 -1.76557 0.833407 0
M  V30 10 C 0.917803 -1.64096 0.608166 0
M  V30 11 C 1.42941 -0.590964 -0.160908 0
M  V30 12 C 0.533239 0.318803 -0.687816 0
M  V30 13 C -0.818836 0.174354 -0.451259 0
M  V30 14 C 2.85599 -0.454881 -0.414944 0
M  V30 15 O 3.20573 -0.416342 -1.64079 0
M  V30 16 N 3.85322 -0.366276 0.584513 0
M  V30 17 N 5.20727 -0.243842 0.284964 0
M  V30 18 C 5.78702 0.800248 -0.461438 0
M  V30 19 N 5.01874 1.85319 -0.996882 0
M  V30 20 S 7.39463 0.821964 -0.734552 0
M  V30 21 H -5.23873 2.4551 0.396187 0
M  V30 22 H -5.22348 2.23956 -1.35265 0
M  V30 23 H -5.42495 -1.56386 -0.106912 0
M  V30 24 H -3.26264 0.0798751 -1.19271 0
M  V30 25 H -0.838026 -2.57159 1.42395 0
M  V30 26 H 1.6132 -2.35125 1.02201 0
M  V30 27 H 0.930704 1.14236 -1.28572 0
M  V30 28 H -1.4766 0.920601 -0.880103 0
M  V30 29 H 3.58791 -0.391941 1.58361 0
M  V30 30 H 5.82302 -1.0269 0.673289 0
M  V30 31 H 5.10836 2.19439 -1.97922 0
M  V30 32 H 4.32069 2.32554 -0.391316 0
M  V30 END ATOM
M  V30 BEGIN BOND
M  V30 1 1 1 2
M  V30 2 2 2 3
M  V30 3 1 2 4
M  V30 4 1 4 5
M  V30 5 1 5 6
M  V30 6 2 6 7
M  V30 7 1 6 8
M  V30 8 2 8 9
M  V30 9 1 9 10
M  V30 10 2 10 11
M  V30 11 1 11 12
M  V30 12 2 12 13
M  V30 13 1 11 14
M  V30 14 2 14 15
M  V30 15 1 14 16
M  V30 16 1 16 17
M  V30 17 1 17 18
M  V30 18 1 18 19
M  V30 19 2 18 20
M  V30 20 1 13 8
M  V30 21 1 1 21
M  V30 22 1 1 22
M  V30 23 1 4 23
M  V30 24 1 5 24
M  V30 25 1 9 25
M  V30 26 1 10 26
M  V30 27 1 12 27
M  V30 28 1 13 28
M  V30 29 1 16 29
M  V30 30 1 17 30
M  V30 31 1 19 31
M  V30 32 1 19 32
M  V30 END BOND
M  V30 END CTAB
M  END
