
     RDKit          3D

  0  0  0  0  0  0  0  0  0  0999 V3000
M  V30 BEGIN CTAB
M  V30 COUNTS 17 17 0 0 0
M  V30 BEGIN ATOM
M  V30 1 N 3.01401 0.166658 -0.172958 0
M  V30 2 N 1.72248 0.105399 0.323494 0
M  V30 3 C 0.640004 0.438655 -0.446579 0
M  V30 4 O 0.779599 0.78574 -1.68721 0
M  V30 5 C -0.797671 0.418489 -0.0205975 0
M  V30 6 N -1.05603 1.08466 1.2155 0
M  V30 7 C -1.76656 -0.0697644 -0.979283 0
M  V30 8 C -1.36517 -1.03777 0.0767796 0
M  V30 9 H 3.07723 -0.250519 -1.13257 0
M  V30 10 H 3.67842 -0.363608 0.400912 0
M  V30 11 H 1.58801 -0.239416 1.31756 0
M  V30 12 H -0.701879 0.580078 2.01361 0
M  V30 13 H -2.03119 1.4539 1.28047 0
M  V30 14 H -2.77818 0.332621 -0.99322 0
M  V30 15 H -1.34646 -0.368441 -1.99804 0
M  V30 16 H -0.57997 -1.78832 -0.0772341 0
M  V30 17 H -2.07664 -1.24835 0.879358 0
M  V30 END ATOM
M  V30 BEGIN BOND
M  V30 1 1 1 2
M  V30 2 1 2 3
M  V30 3 2 3 4
M  V30 4 1 3 5
M  V30 5 1 5 6
M  V30 6 1 5 7
M  V30 7 1 7 8
M  V30 8 1 8 5
M  V30 9 1 1 9
M  V30 10 1 1 10
M  V30 11 1 2 11
M  V30 12 1 6 12
M  V30 13 1 6 13
M  V30 14 1 7 14
M  V30 15 1 7 15
M  V30 16 1 8 16
M  V30 17 1 8 17
M  V30 END BOND
M  V30 END CTAB
M  END
