
     RDKit          3D

  0  0  0  0  0  0  0  0  0  0999 V3000
M  V30 BEGIN CTAB
M  V30 COUNTS 29 29 0 0 0
M  V30 BEGIN ATOM
M  V30 1 N -5.07498 0.00665885 -2.04717 0
M  V30 2 C -4.26531 0.0789922 -0.880564 0
M  V30 3 N -4.8682 0.00980779 0.266278 0
M  V30 4 N -2.85318 0.221272 -0.968017 0
M  V30 5 C -2.12088 0.451248 0.223065 0
M  V30 6 N -2.23593 1.59835 0.789802 0
M  V30 7 N -1.29369 -0.568667 0.753209 0
M  V30 8 C 0.128533 -0.441559 0.703521 0
M  V30 9 C 0.955435 -1.42007 1.21251 0
M  V30 10 C 2.32984 -1.2889 1.16018 0
M  V30 11 C 2.91053 -0.169479 0.594256 0
M  V30 12 C 2.10476 0.823229 0.0782415 0
M  V30 13 C 0.725841 0.666721 0.143467 0
M  V30 14 S 4.64776 0.0334876 0.509091 0
M  V30 15 N 5.26895 -0.627894 -0.953919 0
M  V30 16 O 5.25289 -0.700913 1.69337 0
M  V30 17 O 4.93349 1.50597 0.616915 0
M  V30 18 H -5.08144 0.728168 -2.79066 0
M  V30 19 H -5.70564 -0.81727 -2.17546 0
M  V30 20 H -5.88577 -0.092952 0.359675 0
M  V30 21 H -2.40049 0.153111 -1.89669 0
M  V30 22 H -1.7389 1.86734 1.67016 0
M  V30 23 H -1.68436 -1.44215 1.19542 0
M  V30 24 H 0.476696 -2.30315 1.65875 0
M  V30 25 H 2.95289 -2.058 1.55995 0
M  V30 26 H 2.52077 1.72883 -0.380179 0
M  V30 27 H 0.127414 1.45576 -0.26622 0
M  V30 28 H 5.0441 0.0401492 -1.71523 0
M  V30 29 H 4.82887 -1.55873 -1.11375 0
M  V30 END ATOM
M  V30 BEGIN BOND
M  V30 1 1 1 2
M  V30 2 2 2 3 CFG=2
M  V30 3 1 2 4
M  V30 4 1 4 5
M  V30 5 2 5 6 CFG=2
M  V30 6 1 5 7
M  V30 7 1 7 8
M  V30 8 2 8 9
M  V30 9 1 9 10
M  V30 10 2 10 11
M  V30 11 1 11 12
M  V30 12 2 12 13
M  V30 13 1 11 14
M  V30 14 1 14 15
M  V30 15 2 14 16
M  V30 16 2 14 17
M  V30 17 1 13 8
M  V30 18 1 1 18
M  V30 19 1 1 19
M  V30 20 1 3 20
M  V30 21 1 4 21
M  V30 22 1 6 22
M  V30 23 1 7 23
M  V30 24 1 9 24
M  V30 25 1 10 25
M  V30 26 1 12 26
M  V30 27 1 13 27
M  V30 28 1 15 28
M  V30 29 1 15 29
M  V30 END BOND
M  V30 END CTAB
M  END
