
     RDKit          3D

  0  0  0  0  0  0  0  0  0  0999 V3000
M  V30 BEGIN CTAB
M  V30 COUNTS 48 50 0 0 0
M  V30 BEGIN ATOM
M  V30 1 N -6.86167 1.42101 -0.380218 0
M  V30 2 C -5.70568 1.54007 0.494831 0
M  V30 3 C -5.1879 0.221144 1.01235 0
M  V30 4 C -3.78804 0.761506 0.799689 0
M  V30 5 C -4.40857 1.707 -0.245052 0
M  V30 6 C -2.84132 -0.195124 0.223216 0
M  V30 7 C -1.49465 -0.143927 0.469467 0
M  V30 8 C -0.643381 -1.0907 -0.0859439 0
M  V30 9 N -1.23462 -2.03043 -0.859943 0
M  V30 10 C -2.54026 -2.11187 -1.12226 0
M  V30 11 N -3.32398 -1.16905 -0.559005 0
M  V30 12 N -3.09566 -3.12597 -1.93476 0
M  V30 13 N 0.741944 -1.12533 0.109142 0
M  V30 14 C 1.61958 -0.0140565 -0.086044 0
M  V30 15 C 2.38513 -0.265391 -1.36231 0
M  V30 16 C 3.38402 0.781128 -1.70207 0
M  V30 17 C 4.5037 0.904524 -0.743628 0
M  V30 18 C 4.42858 1.6798 0.380152 0
M  V30 19 C 5.52336 1.76916 1.23268 0
M  V30 20 C 6.67541 1.07019 0.930936 0
M  V30 21 C 6.7262 0.298267 -0.205768 0
M  V30 22 C 5.65904 0.198156 -1.0584 0
M  V30 23 C 1.34749 -2.40624 0.496378 0
M  V30 24 H -6.75392 0.603715 -0.993473 0
M  V30 25 H -7.70021 1.32827 0.194643 0
M  V30 26 H -5.82316 2.25049 1.32009 0
M  V30 27 H -5.44494 0.00947163 2.07074 0
M  V30 28 H -5.41809 -0.60513 0.296045 0
M  V30 29 H -3.40985 1.40573 1.6153 0
M  V30 30 H -4.39623 1.19534 -1.22229 0
M  V30 31 H -3.98707 2.73647 -0.222667 0
M  V30 32 H -1.10004 0.65228 1.10258 0
M  V30 33 H -3.38029 -4.01528 -1.50668 0
M  V30 34 H -3.22169 -2.96037 -2.94728 0
M  V30 35 H 2.34341 0.115223 0.729248 0
M  V30 36 H 1.07061 0.956068 -0.183267 0
M  V30 37 H 1.63548 -0.307302 -2.17914 0
M  V30 38 H 2.84441 -1.27924 -1.27539 0
M  V30 39 H 3.73838 0.586053 -2.73892 0
M  V30 40 H 2.82416 1.76282 -1.74442 0
M  V30 41 H 3.52235 2.23067 0.612532 0
M  V30 42 H 5.42827 2.3851 2.12522 0
M  V30 43 H 7.51151 1.14155 1.59515 0
M  V30 44 H 7.67573 -0.226945 -0.394972 0
M  V30 45 H 5.70925 -0.40105 -1.93561 0
M  V30 46 H 2.43713 -2.42097 0.357132 0
M  V30 47 H 1.10856 -2.56424 1.57629 0
M  V30 48 H 0.917511 -3.25259 -0.0760958 0
M  V30 END ATOM
M  V30 BEGIN BOND
M  V30 1 1 1 2
M  V30 2 1 2 3
M  V30 3 1 3 4
M  V30 4 1 4 5
M  V30 5 1 4 6
M  V30 6 2 6 7
M  V30 7 1 7 8
M  V30 8 2 8 9
M  V30 9 1 9 10
M  V30 10 2 10 11
M  V30 11 1 10 12
M  V30 12 1 8 13
M  V30 13 1 13 14
M  V30 14 1 14 15
M  V30 15 1 15 16
M  V30 16 1 16 17
M  V30 17 2 17 18
M  V30 18 1 18 19
M  V30 19 2 19 20
M  V30 20 1 20 21
M  V30 21 2 21 22
M  V30 22 1 13 23
M  V30 23 1 5 2
M  V30 24 1 11 6
M  V30 25 1 22 17
M  V30 26 1 1 24
M  V30 27 1 1 25
M  V30 28 1 2 26
M  V30 29 1 3 27
M  V30 30 1 3 28
M  V30 31 1 4 29
M  V30 32 1 5 30
M  V30 33 1 5 31
M  V30 34 1 7 32
M  V30 35 1 12 33
M  V30 36 1 12 34
M  V30 37 1 14 35
M  V30 38 1 14 36
M  V30 39 1 15 37
M  V30 40 1 15 38
M  V30 41 1 16 39
M  V30 42 1 16 40
M  V30 43 1 18 41
M  V30 44 1 19 42
M  V30 45 1 20 43
M  V30 46 1 21 44
M  V30 47 1 22 45
M  V30 48 1 23 46
M  V30 49 1 23 47
M  V30 50 1 23 48
M  V30 END BOND
M  V30 END CTAB
M  END
