
     RDKit          3D

  0  0  0  0  0  0  0  0  0  0999 V3000
M  V30 BEGIN CTAB
M  V30 COUNTS 28 28 0 0 0
M  V30 BEGIN ATOM
M  V30 1 N 3.17158 0.442134 -0.254214 0
M  V30 2 C 2.5685 -0.44664 0.702549 0
M  V30 3 C 1.43817 -1.19249 0.108737 0
M  V30 4 C 0.308944 -0.383522 -0.412638 0 CFG=1
M  V30 5 C -0.716119 -1.36965 -0.966173 0
M  V30 6 O -1.40196 -1.99522 0.100341 0
M  V30 7 C -2.20031 -0.991936 0.647586 0
M  V30 8 C -1.2821 -0.0391556 1.36838 0
M  V30 9 N -0.268068 0.523625 0.532556 0
M  V30 10 S -0.754565 2.01226 -0.186476 0
M  V30 11 O -1.26329 2.98386 0.819023 0
M  V30 12 O 0.439904 2.62016 -0.851284 0
M  V30 13 N -1.96212 1.78372 -1.38856 0
M  V30 14 H 3.76042 -0.0665206 -0.915492 0
M  V30 15 H 3.73549 1.17578 0.246826 0
M  V30 16 H 2.33537 0.0651589 1.65443 0
M  V30 17 H 3.36151 -1.20364 0.967225 0
M  V30 18 H 1.02999 -1.921 0.855963 0
M  V30 19 H 1.82104 -1.82428 -0.725123 0
M  V30 20 H 0.655637 0.208639 -1.28394 0
M  V30 21 H -1.44447 -0.902215 -1.62978 0
M  V30 22 H -0.190431 -2.1912 -1.49386 0
M  V30 23 H -2.91733 -1.3897 1.3642 0
M  V30 24 H -2.70344 -0.470172 -0.200018 0
M  V30 25 H -0.808528 -0.595869 2.19997 0
M  V30 26 H -1.91219 0.751845 1.8222 0
M  V30 27 H -1.86848 2.56585 -2.07402 0
M  V30 28 H -2.93316 1.85018 -1.00841 0
M  V30 END ATOM
M  V30 BEGIN BOND
M  V30 1 1 1 2
M  V30 2 1 2 3
M  V30 3 1 3 4
M  V30 4 1 4 5
M  V30 5 1 5 6
M  V30 6 1 6 7
M  V30 7 1 7 8
M  V30 8 1 8 9
M  V30 9 1 9 10
M  V30 10 2 10 11
M  V30 11 2 10 12
M  V30 12 1 10 13
M  V30 13 1 9 4
M  V30 14 1 1 14
M  V30 15 1 1 15
M  V30 16 1 2 16
M  V30 17 1 2 17
M  V30 18 1 3 18
M  V30 19 1 3 19
M  V30 20 1 4 20 CFG=3
M  V30 21 1 5 21
M  V30 22 1 5 22
M  V30 23 1 7 23
M  V30 24 1 7 24
M  V30 25 1 8 25
M  V30 26 1 8 26
M  V30 27 1 13 27
M  V30 28 1 13 28
M  V30 END BOND
M  V30 END CTAB
M  END
