
     RDKit          3D

  0  0  0  0  0  0  0  0  0  0999 V3000
M  V30 BEGIN CTAB
M  V30 COUNTS 19 19 0 0 0
M  V30 BEGIN ATOM
M  V30 1 N 3.11199 -0.212813 -0.0886634 0
M  V30 2 C 1.73248 0.0841243 0.0227751 0
M  V30 3 C 1.29195 1.31875 0.499941 0
M  V30 4 C -0.0499045 1.58832 0.6009 0
M  V30 5 F -0.440681 2.80001 1.06931 0
M  V30 6 C -1.0076 0.662756 0.239845 0
M  V30 7 C -0.603162 -0.573432 -0.238021 0
M  V30 8 C 0.747824 -0.823848 -0.331534 0
M  V30 9 C -1.59856 -1.6045 -0.640022 0
M  V30 10 F -1.42178 -2.66991 0.251682 0
M  V30 11 F -1.36098 -2.09782 -1.90263 0
M  V30 12 N -2.38947 0.9923 0.363915 0
M  V30 13 H 3.4304 -1.19638 -0.120382 0
M  V30 14 H 3.82183 0.537785 -0.14009 0
M  V30 15 H 2.06635 2.0428 0.78245 0
M  V30 16 H 1.0863 -1.80205 -0.709636 0
M  V30 17 H -2.6202 -1.23478 -0.499372 0
M  V30 18 H -2.77624 1.86142 -0.0101775 0
M  V30 19 H -3.02056 0.327256 0.849711 0
M  V30 END ATOM
M  V30 BEGIN BOND
M  V30 1 1 1 2
M  V30 2 2 2 3
M  V30 3 1 3 4
M  V30 4 1 4 5
M  V30 5 2 4 6
M  V30 6 1 6 7
M  V30 7 2 7 8
M  V30 8 1 7 9
M  V30 9 1 9 10
M  V30 10 1 9 11
M  V30 11 1 6 12
M  V30 12 1 8 2
M  V30 13 1 1 13
M  V30 14 1 1 14
M  V30 15 1 3 15
M  V30 16 1 8 16
M  V30 17 1 9 17
M  V30 18 1 12 18
M  V30 19 1 12 19
M  V30 END BOND
M  V30 END CTAB
M  END
