
     RDKit          3D

  0  0  0  0  0  0  0  0  0  0999 V3000
M  V30 BEGIN CTAB
M  V30 COUNTS 18 18 0 0 0
M  V30 BEGIN ATOM
M  V30 1 N -1.80491 1.76186 -0.893817 0
M  V30 2 C -2.32931 0.676254 -0.129023 0
M  V30 3 C -1.63739 -0.63591 -0.361607 0
M  V30 4 C -0.185048 -0.588361 -0.0260206 0
M  V30 5 C 0.479986 -1.30374 0.937058 0
M  V30 6 N 1.75833 -1.11022 1.06591 0
M  V30 7 C 2.37389 -0.244173 0.279339 0
M  V30 8 S 1.09621 0.330458 -0.692785 0
M  V30 9 N 3.76889 0.0439494 0.335464 0
M  V30 10 F -1.82294 -1.10688 -1.64328 0
M  V30 11 H -1.23592 1.4591 -1.72149 0
M  V30 12 H -1.14751 2.29681 -0.281 0
M  V30 13 H -2.36174 0.96866 0.933122 0
M  V30 14 H -3.3967 0.540614 -0.436579 0
M  V30 15 H -2.09482 -1.37326 0.326031 0
M  V30 16 H -0.0575766 -2.03268 1.59392 0
M  V30 17 H 4.11832 1.04056 0.453284 0
M  V30 18 H 4.47822 -0.723049 0.261474 0
M  V30 END ATOM
M  V30 BEGIN BOND
M  V30 1 1 1 2
M  V30 2 1 2 3
M  V30 3 1 3 4
M  V30 4 2 4 5
M  V30 5 1 5 6
M  V30 6 2 6 7
M  V30 7 1 7 8
M  V30 8 1 7 9
M  V30 9 1 3 10
M  V30 10 1 8 4
M  V30 11 1 1 11
M  V30 12 1 1 12
M  V30 13 1 2 13
M  V30 14 1 2 14
M  V30 15 1 3 15
M  V30 16 1 5 16
M  V30 17 1 9 17
M  V30 18 1 9 18
M  V30 END BOND
M  V30 END CTAB
M  END
