
     RDKit          3D

  0  0  0  0  0  0  0  0  0  0999 V3000
M  V30 BEGIN CTAB
M  V30 COUNTS 22 22 0 0 0
M  V30 BEGIN ATOM
M  V30 1 N 4.04002 1.30925 0.144787 0
M  V30 2 C 3.09311 0.473261 0.304903 0
M  V30 3 N 3.44362 -0.819384 0.834121 0
M  V30 4 N 1.7369 0.760171 -0.0109742 0
M  V30 5 C 0.704164 -0.196031 0.179986 0
M  V30 6 O 1.01081 -1.31597 0.638963 0
M  V30 7 C -0.668113 0.153741 -0.161466 0
M  V30 8 N -1.00723 1.35303 -0.654611 0
M  V30 9 C -2.28199 1.65282 -0.962553 0
M  V30 10 Cl -2.69422 3.22936 -1.60561 0
M  V30 11 C -3.29547 0.736171 -0.783135 0
M  V30 12 N -2.96728 -0.470634 -0.288925 0 CHG=1
M  V30 13 O -3.94448 -1.42882 -0.0886152 0 CHG=-1
M  V30 14 C -1.68769 -0.772641 0.0205842 0
M  V30 15 N -1.32238 -2.04146 0.543338 0
M  V30 16 H 3.87824 2.26726 -0.232216 0
M  V30 17 H 3.19292 -1.05117 1.82225 0
M  V30 18 H 3.94125 -1.49432 0.214174 0
M  V30 19 H 1.54189 1.72477 -0.395573 0
M  V30 20 H -4.33743 0.974975 -1.03255 0
M  V30 21 H -0.858712 -2.77788 -0.0272444 0
M  V30 22 H -1.51795 -2.26651 1.54038 0
M  V30 END ATOM
M  V30 BEGIN BOND
M  V30 1 2 1 2 CFG=2
M  V30 2 1 2 3
M  V30 3 1 2 4
M  V30 4 1 4 5
M  V30 5 2 5 6
M  V30 6 1 5 7
M  V30 7 2 7 8
M  V30 8 1 8 9
M  V30 9 1 9 10
M  V30 10 2 9 11
M  V30 11 1 11 12
M  V30 12 1 12 13
M  V30 13 2 12 14
M  V30 14 1 14 15
M  V30 15 1 14 7
M  V30 16 1 1 16
M  V30 17 1 3 17
M  V30 18 1 3 18
M  V30 19 1 4 19
M  V30 20 1 11 20
M  V30 21 1 15 21
M  V30 22 1 15 22
M  V30 END BOND
M  V30 END CTAB
M  END
