
     RDKit          3D

  0  0  0  0  0  0  0  0  0  0999 V3000
M  V30 BEGIN CTAB
M  V30 COUNTS 37 39 0 0 0
M  V30 BEGIN ATOM
M  V30 1 C 4.50086 0.101202 0.150346 0
M  V30 2 N 3.20849 0.725888 0.467154 0
M  V30 3 C 3.17112 1.9563 0.999963 0
M  V30 4 O 4.28665 2.51968 1.24673 0
M  V30 5 N 1.98939 2.52532 1.23636 0
M  V30 6 C 0.839367 1.87544 0.949151 0
M  V30 7 O -0.250863 2.47785 1.20115 0
M  V30 8 C 0.847218 0.61246 0.409555 0
M  V30 9 C 2.09418 0.0198525 0.158325 0
M  V30 10 N 2.19771 -1.21082 -0.371484 0
M  V30 11 C 1.0922 -1.86601 -0.659071 0
M  V30 12 N 1.25121 -3.15418 -1.26471 0
M  V30 13 C -0.173547 -1.3327 -0.438753 0
M  V30 14 C -1.36704 -2.18131 -0.606966 0
M  V30 15 N -1.46034 -2.6524 -1.99546 0
M  V30 16 C -0.330778 -0.0361807 0.115213 0
M  V30 17 C -1.63652 0.572844 0.303513 0
M  V30 18 C -2.41086 0.485007 1.42445 0
M  V30 19 Br -1.84096 -0.535729 2.88996 0
M  V30 20 C -3.63697 1.12316 1.50005 0
M  V30 21 C -4.08556 1.86693 0.404491 0
M  V30 22 C -3.32382 1.97458 -0.759561 0
M  V30 23 F -3.7674 2.66407 -1.82064 0
M  V30 24 C -2.11695 1.32071 -0.772446 0
M  V30 25 H 5.26212 0.429975 0.856225 0
M  V30 26 H 4.39245 -0.994687 0.173334 0
M  V30 27 H 4.79056 0.447202 -0.895412 0
M  V30 28 H 1.96679 3.49206 1.64172 0
M  V30 29 H 1.2256 -3.31014 -2.29247 0
M  V30 30 H 1.39975 -3.99671 -0.632703 0
M  V30 31 H -1.38637 -3.02947 0.0838731 0
M  V30 32 H -2.28966 -1.52206 -0.394716 0
M  V30 33 H -1.21707 -3.69045 -2.03804 0
M  V30 34 H -2.40168 -2.58106 -2.35514 0
M  V30 35 H -4.2976 1.12029 2.36795 0
M  V30 36 H -5.01946 2.38476 0.396894 0
M  V30 37 H -1.50222 1.39831 -1.67885 0
M  V30 END ATOM
M  V30 BEGIN BOND
M  V30 1 1 1 2
M  V30 2 1 2 3
M  V30 3 2 3 4
M  V30 4 1 3 5
M  V30 5 1 5 6
M  V30 6 2 6 7
M  V30 7 1 6 8
M  V30 8 2 8 9
M  V30 9 1 9 10
M  V30 10 2 10 11
M  V30 11 1 11 12
M  V30 12 1 11 13
M  V30 13 1 13 14
M  V30 14 1 14 15
M  V30 15 2 13 16
M  V30 16 1 16 17
M  V30 17 2 17 18
M  V30 18 1 18 19
M  V30 19 1 18 20
M  V30 20 2 20 21
M  V30 21 1 21 22
M  V30 22 1 22 23
M  V30 23 2 22 24
M  V30 24 1 9 2
M  V30 25 1 24 17
M  V30 26 1 16 8
M  V30 27 1 1 25
M  V30 28 1 1 26
M  V30 29 1 1 27
M  V30 30 1 5 28
M  V30 31 1 12 29
M  V30 32 1 12 30
M  V30 33 1 14 31
M  V30 34 1 14 32
M  V30 35 1 15 33
M  V30 36 1 15 34
M  V30 37 1 20 35
M  V30 38 1 21 36
M  V30 39 1 24 37
M  V30 END BOND
M  V30 END CTAB
M  END
