
     RDKit          3D

  0  0  0  0  0  0  0  0  0  0999 V3000
M  V30 BEGIN CTAB
M  V30 COUNTS 40 42 0 0 0
M  V30 BEGIN ATOM
M  V30 1 O 7.29829 -0.49411 1.26752 0
M  V30 2 C 6.25701 -0.372806 0.601978 0
M  V30 3 C 5.94948 0.898966 -0.104134 0
M  V30 4 C 4.51306 1.2766 0.00153197 0
M  V30 5 C 3.56203 0.154295 -0.121413 0
M  V30 6 C 3.98455 -1.12478 0.117928 0
M  V30 7 N 5.31839 -1.42331 0.480089 0
M  V30 8 C 3.05031 -2.1623 -0.00602481 0
M  V30 9 C 1.74465 -1.92358 -0.355741 0
M  V30 10 C 1.30204 -0.608907 -0.603419 0
M  V30 11 C 2.22695 0.397391 -0.479568 0
M  V30 12 O -0.00794392 -0.487909 -0.943536 0
M  V30 13 C -0.787793 0.606045 -1.23159 0
M  V30 14 C -0.917355 1.5282 -0.0598181 0
M  V30 15 S -1.69396 0.57966 1.30388 0
M  V30 16 C -3.36467 0.197454 0.808035 0
M  V30 17 N -4.31163 1.10364 1.12904 0
M  V30 18 C -5.61956 0.912669 0.804303 0
M  V30 19 N -6.58069 1.89715 1.16484 0
M  V30 20 C -5.92697 -0.237251 0.139558 0
M  V30 21 C -4.97431 -1.17834 -0.19893 0
M  V30 22 N -3.67596 -0.932928 0.152997 0
M  V30 23 N -5.30954 -2.36419 -0.886104 0
M  V30 24 H 6.31765 0.86967 -1.14928 0
M  V30 25 H 6.53639 1.70893 0.411974 0
M  V30 26 H 4.27993 1.82395 0.952058 0
M  V30 27 H 4.26994 1.99168 -0.814989 0
M  V30 28 H 5.6273 -2.42317 0.661914 0
M  V30 29 H 3.42295 -3.1632 0.19132 0
M  V30 30 H 1.05917 -2.75023 -0.440068 0
M  V30 31 H 1.97399 1.40579 -0.66663 0
M  V30 32 H -1.83469 0.264992 -1.4777 0
M  V30 33 H -0.370354 1.13804 -2.13197 0
M  V30 34 H -0.00175359 1.98319 0.289863 0
M  V30 35 H -1.63421 2.35839 -0.285723 0
M  V30 36 H -6.57006 2.79496 0.646222 0
M  V30 37 H -7.2915 1.77066 1.9155 0
M  V30 38 H -6.95662 -0.41608 -0.130218 0
M  V30 39 H -5.44543 -3.2408 -0.360614 0
M  V30 40 H -5.41909 -2.35842 -1.91043 0
M  V30 END ATOM
M  V30 BEGIN BOND
M  V30 1 2 1 2
M  V30 2 1 2 3
M  V30 3 1 3 4
M  V30 4 1 4 5
M  V30 5 2 5 6
M  V30 6 1 6 7
M  V30 7 1 6 8
M  V30 8 2 8 9
M  V30 9 1 9 10
M  V30 10 2 10 11
M  V30 11 1 10 12
M  V30 12 1 12 13
M  V30 13 1 13 14
M  V30 14 1 14 15
M  V30 15 1 15 16
M  V30 16 2 16 17
M  V30 17 1 17 18
M  V30 18 1 18 19
M  V30 19 2 18 20
M  V30 20 1 20 21
M  V30 21 2 21 22
M  V30 22 1 21 23
M  V30 23 1 7 2
M  V30 24 1 22 16
M  V30 25 1 11 5
M  V30 26 1 3 24
M  V30 27 1 3 25
M  V30 28 1 4 26
M  V30 29 1 4 27
M  V30 30 1 7 28
M  V30 31 1 8 29
M  V30 32 1 9 30
M  V30 33 1 11 31
M  V30 34 1 13 32
M  V30 35 1 13 33
M  V30 36 1 14 34
M  V30 37 1 14 35
M  V30 38 1 19 36
M  V30 39 1 19 37
M  V30 40 1 20 38
M  V30 41 1 23 39
M  V30 42 1 23 40
M  V30 END BOND
M  V30 END CTAB
M  END
