
     RDKit          3D

  0  0  0  0  0  0  0  0  0  0999 V3000
M  V30 BEGIN CTAB
M  V30 COUNTS 44 45 0 0 0
M  V30 BEGIN ATOM
M  V30 1 N -5.40941 -0.0206029 -1.75313 0
M  V30 2 C -4.16254 0.45265 -1.19056 0
M  V30 3 C -2.97213 -0.303485 -1.68203 0
M  V30 4 N -2.07312 -0.366354 -0.557455 0
M  V30 5 C -2.7087 0.186575 0.626985 0
M  V30 6 C -4.16704 0.114511 0.284806 0
M  V30 7 C -4.9133 1.12681 1.10038 0
M  V30 8 C -0.722934 -0.886397 -0.526418 0
M  V30 9 O -0.327053 -1.32399 -1.62708 0
M  V30 10 N 0.0240198 -0.878377 0.641715 0
M  V30 11 C 1.34669 -1.32622 0.860222 0
M  V30 12 C 2.46554 -0.629322 0.143945 0
M  V30 13 N 2.38982 -0.68893 -1.28455 0
M  V30 14 C 3.73555 -1.33671 0.550575 0
M  V30 15 C 4.82076 -0.382012 0.988206 0
M  V30 16 C 4.85201 0.730432 -0.0390647 0
M  V30 17 C 3.64614 1.5959 0.245402 0
M  V30 18 C 2.41668 0.811062 0.5548 0
M  V30 19 H -6.12355 0.722961 -1.59421 0
M  V30 20 H -5.35666 -0.230503 -2.75678 0
M  V30 21 H -4.05739 1.54139 -1.30415 0
M  V30 22 H -3.30363 -1.30346 -2.02629 0
M  V30 23 H -2.48456 0.265785 -2.52599 0
M  V30 24 H -2.51271 -0.446019 1.53418 0
M  V30 25 H -2.42497 1.23876 0.794093 0
M  V30 26 H -4.5829 -0.893647 0.420576 0
M  V30 27 H -5.38511 0.561551 1.95578 0
M  V30 28 H -5.73316 1.62179 0.535704 0
M  V30 29 H -4.25081 1.86908 1.56659 0
M  V30 30 H -0.473671 -0.47279 1.5067 0
M  V30 31 H 1.42605 -2.45878 0.693697 0
M  V30 32 H 1.63284 -1.26776 1.96271 0
M  V30 33 H 2.41086 0.243109 -1.75587 0
M  V30 34 H 3.08687 -1.32544 -1.7231 0
M  V30 35 H 4.16744 -1.93318 -0.284105 0
M  V30 36 H 3.58993 -2.05366 1.38618 0
M  V30 37 H 4.56811 0.00633229 1.98806 0
M  V30 38 H 5.76129 -0.926849 1.05991 0
M  V30 39 H 4.84427 0.318063 -1.05667 0
M  V30 40 H 5.7594 1.3281 0.170517 0
M  V30 41 H 3.53226 2.27821 -0.630081 0
M  V30 42 H 3.92072 2.24873 1.10036 0
M  V30 43 H 1.57004 1.28197 0.0111965 0
M  V30 44 H 2.17804 0.910707 1.63426 0
M  V30 END ATOM
M  V30 BEGIN BOND
M  V30 1 1 1 2
M  V30 2 1 2 3
M  V30 3 1 3 4
M  V30 4 1 4 5
M  V30 5 1 5 6
M  V30 6 1 6 7
M  V30 7 1 4 8
M  V30 8 2 8 9
M  V30 9 1 8 10
M  V30 10 1 10 11
M  V30 11 1 11 12
M  V30 12 1 12 13
M  V30 13 1 12 14
M  V30 14 1 14 15
M  V30 15 1 15 16
M  V30 16 1 16 17
M  V30 17 1 17 18
M  V30 18 1 6 2
M  V30 19 1 18 12
M  V30 20 1 1 19
M  V30 21 1 1 20
M  V30 22 1 2 21
M  V30 23 1 3 22
M  V30 24 1 3 23
M  V30 25 1 5 24
M  V30 26 1 5 25
M  V30 27 1 6 26
M  V30 28 1 7 27
M  V30 29 1 7 28
M  V30 30 1 7 29
M  V30 31 1 10 30
M  V30 32 1 11 31
M  V30 33 1 11 32
M  V30 34 1 13 33
M  V30 35 1 13 34
M  V30 36 1 14 35
M  V30 37 1 14 36
M  V30 38 1 15 37
M  V30 39 1 15 38
M  V30 40 1 16 39
M  V30 41 1 16 40
M  V30 42 1 17 41
M  V30 43 1 17 42
M  V30 44 1 18 43
M  V30 45 1 18 44
M  V30 END BOND
M  V30 END CTAB
M  END
