
     RDKit          3D

  0  0  0  0  0  0  0  0  0  0999 V3000
M  V30 BEGIN CTAB
M  V30 COUNTS 26 26 0 0 0
M  V30 BEGIN ATOM
M  V30 1 N 4.90382 0.59089 0.685265 0
M  V30 2 C 3.94283 0.0534298 -0.259729 0
M  V30 3 C 2.52794 0.372021 0.190233 0
M  V30 4 N 1.59241 -0.169253 -0.759808 0
M  V30 5 C 0.19039 -0.0246782 -0.597985 0
M  V30 6 C -0.26776 0.657476 0.508259 0
M  V30 7 C -1.633 0.792072 0.655528 0
M  V30 8 C -2.5238 0.269989 -0.26027 0
M  V30 9 C -2.02581 -0.406932 -1.35562 0
M  V30 10 N -0.691244 -0.525867 -1.47861 0
M  V30 11 S -4.26578 0.455473 -0.0495298 0
M  V30 12 O -4.59267 1.69407 0.712073 0
M  V30 13 O -4.89943 0.445229 -1.41142 0
M  V30 14 N -4.84251 -0.894298 0.862083 0
M  V30 15 H 5.72806 -0.0533659 0.677402 0
M  V30 16 H 5.13116 1.5552 0.405593 0
M  V30 17 H 4.14802 0.540283 -1.24222 0
M  V30 18 H 4.06864 -1.03222 -0.353024 0
M  V30 19 H 2.38222 -0.219973 1.14135 0
M  V30 20 H 2.38139 1.43267 0.398861 0
M  V30 21 H 1.92893 -0.687472 -1.60079 0
M  V30 22 H 0.430452 1.0801 1.24834 0
M  V30 23 H -2.00728 1.33539 1.53612 0
M  V30 24 H -2.70042 -0.836819 -2.10641 0
M  V30 25 H -4.22149 -1.71185 0.579855 0
M  V30 26 H -4.68505 -0.656581 1.87446 0
M  V30 END ATOM
M  V30 BEGIN BOND
M  V30 1 1 1 2
M  V30 2 1 2 3
M  V30 3 1 3 4
M  V30 4 1 4 5
M  V30 5 2 5 6
M  V30 6 1 6 7
M  V30 7 2 7 8
M  V30 8 1 8 9
M  V30 9 2 9 10
M  V30 10 1 8 11
M  V30 11 2 11 12
M  V30 12 2 11 13
M  V30 13 1 11 14
M  V30 14 1 10 5
M  V30 15 1 1 15
M  V30 16 1 1 16
M  V30 17 1 2 17
M  V30 18 1 2 18
M  V30 19 1 3 19
M  V30 20 1 3 20
M  V30 21 1 4 21
M  V30 22 1 6 22
M  V30 23 1 7 23
M  V30 24 1 9 24
M  V30 25 1 14 25
M  V30 26 1 14 26
M  V30 END BOND
M  V30 END CTAB
M  END
