
     RDKit          3D

  0  0  0  0  0  0  0  0  0  0999 V3000
M  V30 BEGIN CTAB
M  V30 COUNTS 48 51 0 0 0
M  V30 BEGIN ATOM
M  V30 1 C 7.9663 -0.688712 0.363611 0
M  V30 2 O 7.51764 0.470988 0.952003 0
M  V30 3 C 6.17181 0.48539 1.27181 0
M  V30 4 C 5.35527 0.301622 0.0403593 0
M  V30 5 C 3.8496 0.319817 0.351992 0
M  V30 6 C 3.1515 0.124765 -0.975209 0
M  V30 7 N 1.7159 0.121328 -0.834644 0
M  V30 8 C 0.984027 -0.9824 -0.608439 0
M  V30 9 O 1.3901 -2.17089 -0.481461 0
M  V30 10 C -0.335188 -0.605507 -0.532473 0
M  V30 11 C -1.49676 -1.3148 -0.319567 0
M  V30 12 N -1.447 -2.71808 -0.12769 0
M  V30 13 C -2.71849 -0.678421 -0.289456 0
M  V30 14 C -2.76359 0.702682 -0.478696 0
M  V30 15 C -3.98362 1.33595 -0.44828 0
M  V30 16 O -4.0422 2.59168 -0.618623 0
M  V30 17 C -5.14857 0.614316 -0.23327 0
M  V30 18 C -6.3864 1.22396 -0.197783 0
M  V30 19 C -7.54817 0.535955 0.0122192 0
M  V30 20 C -7.46692 -0.827841 0.195503 0
M  V30 21 C -6.27714 -1.49143 0.172274 0
M  V30 22 C -5.11878 -0.754574 -0.0442456 0
M  V30 23 C -3.88349 -1.38657 -0.0763327 0
M  V30 24 O -3.86063 -2.64668 0.0981115 0
M  V30 25 C -1.61694 1.4344 -0.693295 0
M  V30 26 N -1.66949 2.85604 -0.887517 0
M  V30 27 C -0.413916 0.761865 -0.716501 0
M  V30 28 C 0.906089 1.17722 -0.903622 0
M  V30 29 O 1.18703 2.39495 -1.10179 0
M  V30 30 H 7.81228 -1.59895 1.00827 0
M  V30 31 H 7.56857 -0.808251 -0.6589 0
M  V30 32 H 9.09017 -0.623389 0.238477 0
M  V30 33 H 5.92497 -0.308912 2.00638 0
M  V30 34 H 5.95795 1.47336 1.72396 0
M  V30 35 H 5.58447 1.0751 -0.721014 0
M  V30 36 H 5.57406 -0.697219 -0.39679 0
M  V30 37 H 3.54835 1.21781 0.887933 0
M  V30 38 H 3.68929 -0.549974 1.02163 0
M  V30 39 H 3.51575 0.83537 -1.7441 0
M  V30 40 H 3.48668 -0.888618 -1.34392 0
M  V30 41 H -1.6469 -3.39214 -0.921087 0
M  V30 42 H -1.20394 -3.05861 0.832876 0
M  V30 43 H -6.44211 2.29052 -0.341873 0
M  V30 44 H -8.51605 1.02336 0.0384606 0
M  V30 45 H -8.3977 -1.39004 0.365295 0
M  V30 46 H -6.19077 -2.55807 0.313391 0
M  V30 47 H -1.6259 3.46815 -0.0354343 0
M  V30 48 H -1.74716 3.30347 -1.81255 0
M  V30 END ATOM
M  V30 BEGIN BOND
M  V30 1 1 1 2
M  V30 2 1 2 3
M  V30 3 1 3 4
M  V30 4 1 4 5
M  V30 5 1 5 6
M  V30 6 1 6 7
M  V30 7 1 7 8
M  V30 8 2 8 9
M  V30 9 1 8 10
M  V30 10 2 10 11
M  V30 11 1 11 12
M  V30 12 1 11 13
M  V30 13 2 13 14
M  V30 14 1 14 15
M  V30 15 2 15 16
M  V30 16 1 15 17
M  V30 17 2 17 18
M  V30 18 1 18 19
M  V30 19 2 19 20
M  V30 20 1 20 21
M  V30 21 2 21 22
M  V30 22 1 22 23
M  V30 23 2 23 24
M  V30 24 1 14 25
M  V30 25 1 25 26
M  V30 26 2 25 27
M  V30 27 1 27 28
M  V30 28 2 28 29
M  V30 29 1 28 7
M  V30 30 1 27 10
M  V30 31 1 23 13
M  V30 32 1 22 17
M  V30 33 1 1 30
M  V30 34 1 1 31
M  V30 35 1 1 32
M  V30 36 1 3 33
M  V30 37 1 3 34
M  V30 38 1 4 35
M  V30 39 1 4 36
M  V30 40 1 5 37
M  V30 41 1 5 38
M  V30 42 1 6 39
M  V30 43 1 6 40
M  V30 44 1 12 41
M  V30 45 1 12 42
M  V30 46 1 18 43
M  V30 47 1 19 44
M  V30 48 1 20 45
M  V30 49 1 21 46
M  V30 50 1 26 47
M  V30 51 1 26 48
M  V30 END BOND
M  V30 END CTAB
M  END
