
     RDKit          3D

  0  0  0  0  0  0  0  0  0  0999 V3000
M  V30 BEGIN CTAB
M  V30 COUNTS 51 52 0 0 0
M  V30 BEGIN ATOM
M  V30 1 N -2.82332 2.0705 1.81948 0
M  V30 2 C -3.04753 1.78616 0.418667 0
M  V30 3 C -2.75605 0.366172 0.0516976 0
M  V30 4 C -3.00965 0.155652 -1.42197 0
M  V30 5 C -4.47287 -0.0432659 -1.73847 0
M  V30 6 C -5.09989 -1.19381 -1.0357 0
M  V30 7 C -4.11034 -1.74818 -0.0405102 0
M  V30 8 C -3.61459 -0.611367 0.841715 0
M  V30 9 C -1.34404 0.0350767 0.36856 0
M  V30 10 C -0.296558 0.79707 -0.296736 0
M  V30 11 O -0.477445 1.7042 -1.14992 0
M  V30 12 N 1.0498 0.507798 0.0306095 0
M  V30 13 C 1.33021 -0.525989 1.00565 0
M  V30 14 C 2.83204 -0.425408 1.30289 0
M  V30 15 C 3.5447 -0.73881 0.00529604 0
M  V30 16 C 3.19007 0.245429 -1.08139 0
M  V30 17 C 2.12886 1.23449 -0.600098 0
M  V30 18 C 5.03926 -0.845156 0.210698 0
M  V30 19 N 5.71705 -1.14471 -1.03079 0
M  V30 20 C 5.62746 0.430222 0.771181 0
M  V30 21 H -3.33654 2.95823 2.02664 0
M  V30 22 H -3.21009 1.34184 2.45326 0
M  V30 23 H -4.13658 1.98466 0.248552 0
M  V30 24 H -2.50545 2.55007 -0.159105 0
M  V30 25 H -2.69851 1.06651 -1.99592 0
M  V30 26 H -2.38901 -0.676939 -1.8075 0
M  V30 27 H -5.03172 0.902073 -1.62725 0
M  V30 28 H -4.50886 -0.273345 -2.84393 0
M  V30 29 H -5.39726 -2.03388 -1.6956 0
M  V30 30 H -5.97573 -0.82787 -0.463224 0
M  V30 31 H -4.66927 -2.43297 0.630623 0
M  V30 32 H -3.30008 -2.31672 -0.497233 0
M  V30 33 H -3.04523 -1.09496 1.66515 0
M  V30 34 H -4.49686 -0.146847 1.29122 0
M  V30 35 H -1.1923 -1.05138 0.0949458 0
M  V30 36 H -1.18293 0.0460477 1.48279 0
M  V30 37 H 0.74361 -0.449165 1.92109 0
M  V30 38 H 1.20513 -1.51508 0.482409 0
M  V30 39 H 3.05725 0.601781 1.66027 0
M  V30 40 H 3.1159 -1.20714 2.02972 0
M  V30 41 H 3.19244 -1.73863 -0.322784 0
M  V30 42 H 2.76614 -0.245942 -1.98198 0
M  V30 43 H 4.04763 0.85036 -1.41645 0
M  V30 44 H 1.7266 1.75048 -1.49754 0
M  V30 45 H 2.57628 2.00732 0.049562 0
M  V30 46 H 5.21436 -1.66209 0.940763 0
M  V30 47 H 6.53231 -0.517094 -1.17577 0
M  V30 48 H 6.07202 -2.13329 -1.06506 0
M  V30 49 H 6.72529 0.302778 0.797514 0
M  V30 50 H 5.28226 0.659112 1.78793 0
M  V30 51 H 5.41201 1.246 0.0495702 0
M  V30 END ATOM
M  V30 BEGIN BOND
M  V30 1 1 1 2
M  V30 2 1 2 3
M  V30 3 1 3 4
M  V30 4 1 4 5
M  V30 5 1 5 6
M  V30 6 1 6 7
M  V30 7 1 7 8
M  V30 8 1 3 9
M  V30 9 1 9 10
M  V30 10 2 10 11
M  V30 11 1 10 12
M  V30 12 1 12 13
M  V30 13 1 13 14
M  V30 14 1 14 15
M  V30 15 1 15 16
M  V30 16 1 16 17
M  V30 17 1 15 18
M  V30 18 1 18 19
M  V30 19 1 18 20
M  V30 20 1 8 3
M  V30 21 1 17 12
M  V30 22 1 1 21
M  V30 23 1 1 22
M  V30 24 1 2 23
M  V30 25 1 2 24
M  V30 26 1 4 25
M  V30 27 1 4 26
M  V30 28 1 5 27
M  V30 29 1 5 28
M  V30 30 1 6 29
M  V30 31 1 6 30
M  V30 32 1 7 31
M  V30 33 1 7 32
M  V30 34 1 8 33
M  V30 35 1 8 34
M  V30 36 1 9 35
M  V30 37 1 9 36
M  V30 38 1 13 37
M  V30 39 1 13 38
M  V30 40 1 14 39
M  V30 41 1 14 40
M  V30 42 1 15 41
M  V30 43 1 16 42
M  V30 44 1 16 43
M  V30 45 1 17 44
M  V30 46 1 17 45
M  V30 47 1 18 46
M  V30 48 1 19 47
M  V30 49 1 19 48
M  V30 50 1 20 49
M  V30 51 1 20 50
M  V30 52 1 20 51
M  V30 END BOND
M  V30 END CTAB
M  END
