
     RDKit          3D

  0  0  0  0  0  0  0  0  0  0999 V3000
M  V30 BEGIN CTAB
M  V30 COUNTS 26 26 0 0 0
M  V30 BEGIN ATOM
M  V30 1 N -3.62765 1.15599 -1.02767 0
M  V30 2 C -4.0608 -0.0703803 -0.419216 0
M  V30 3 C -2.9126 -0.807512 0.218659 0
M  V30 4 S -1.66748 -1.20558 -1.03227 0
M  V30 5 C -0.285127 -2.09426 -0.257584 0
M  V30 6 C 0.445011 -1.18433 0.707817 0
M  V30 7 N 0.0597283 -1.13085 1.98537 0
M  V30 8 S 1.13572 -0.0160372 2.65085 0
M  V30 9 C 2.03499 0.330105 1.24614 0
M  V30 10 N 3.13917 1.20428 1.0252 0
M  V30 11 C 3.74814 1.34352 -0.244235 0
M  V30 12 N 2.97895 0.928879 -1.37668 0
M  V30 13 N 4.91822 1.80935 -0.411307 0
M  V30 14 N 1.44464 -0.442244 0.34285 0
M  V30 15 H -3.16512 1.76829 -0.331713 0
M  V30 16 H -3.00998 0.987892 -1.82974 0
M  V30 17 H -4.60504 -0.705948 -1.13175 0
M  V30 18 H -4.78729 0.192559 0.39279 0
M  V30 19 H -3.28249 -1.75035 0.664795 0
M  V30 20 H -2.47772 -0.1254 0.982303 0
M  V30 21 H 0.387322 -2.40405 -1.0819 0
M  V30 22 H -0.601582 -3.00926 0.25667 0
M  V30 23 H 3.49769 1.75002 1.8301 0
M  V30 24 H 2.4106 1.63966 -1.87866 0
M  V30 25 H 2.96122 -0.0571901 -1.7241 0
M  V30 26 H 5.32149 1.89284 -1.35193 0
M  V30 END ATOM
M  V30 BEGIN BOND
M  V30 1 1 1 2
M  V30 2 1 2 3
M  V30 3 1 3 4
M  V30 4 1 4 5
M  V30 5 1 5 6
M  V30 6 2 6 7
M  V30 7 1 7 8
M  V30 8 1 8 9
M  V30 9 1 9 10
M  V30 10 1 10 11
M  V30 11 1 11 12
M  V30 12 2 11 13 CFG=2
M  V30 13 2 9 14
M  V30 14 1 14 6
M  V30 15 1 1 15
M  V30 16 1 1 16
M  V30 17 1 2 17
M  V30 18 1 2 18
M  V30 19 1 3 19
M  V30 20 1 3 20
M  V30 21 1 5 21
M  V30 22 1 5 22
M  V30 23 1 10 23
M  V30 24 1 12 24
M  V30 25 1 12 25
M  V30 26 1 13 26
M  V30 END BOND
M  V30 END CTAB
M  END
