
     RDKit          3D

  0  0  0  0  0  0  0  0  0  0999 V3000
M  V30 BEGIN CTAB
M  V30 COUNTS 43 45 0 0 0
M  V30 BEGIN ATOM
M  V30 1 C -6.12621 0.498057 -1.34182 0
M  V30 2 N -6.20521 -0.820714 -0.771703 0
M  V30 3 S -5.23995 -0.917021 0.622577 0
M  V30 4 O -5.69015 0.136292 1.61356 0
M  V30 5 O -5.36871 -2.27553 1.25819 0
M  V30 6 C -3.54459 -0.605413 0.237581 0
M  V30 7 C -3.01283 -0.622665 -1.03177 0
M  V30 8 C -1.69446 -0.3297 -1.29513 0
M  V30 9 Cl -1.05617 -0.369304 -2.93675 0
M  V30 10 C -0.814556 -0.00289575 -0.295065 0
M  V30 11 C -1.37392 0.00893416 1.00072 0
M  V30 12 C -2.6754 -0.277225 1.26682 0
M  V30 13 N 0.55633 0.34661 -0.430341 0
M  V30 14 N 1.00512 1.48207 -1.00571 0
M  V30 15 C 2.33531 1.58164 -0.887967 0
M  V30 16 C 2.75754 0.477314 -0.219491 0
M  V30 17 C 4.11483 0.129299 0.119206 0
M  V30 18 O 4.42137 -0.907202 0.794651 0
M  V30 19 N 5.18714 0.961378 -0.311036 0
M  V30 20 C 5.48333 2.04846 0.345897 0
M  V30 21 N 6.5518 2.84908 -0.109958 0
M  V30 22 N 4.76173 2.4432 1.49725 0
M  V30 23 C 1.62888 -0.266285 0.0480452 0
M  V30 24 C 1.67012 -1.49674 0.874144 0
M  V30 25 C 2.05411 -2.84402 0.52013 0
M  V30 26 C 0.649057 -2.51741 0.156992 0
M  V30 27 H -5.36763 1.15071 -0.828184 0
M  V30 28 H -5.68302 0.381037 -2.38454 0
M  V30 29 H -7.07249 1.02312 -1.46716 0
M  V30 30 H -7.17094 -1.16444 -0.554108 0
M  V30 31 H -3.70141 -0.878684 -1.8704 0
M  V30 32 H -0.670849 0.277515 1.81118 0
M  V30 33 H -3.06577 -0.256281 2.30116 0
M  V30 34 H 2.93863 2.38262 -1.26007 0
M  V30 35 H 7.44545 2.4517 -0.503143 0
M  V30 36 H 6.51077 3.91342 -0.0783922 0
M  V30 37 H 4.93942 1.96301 2.39453 0
M  V30 38 H 4.06795 3.19864 1.42489 0
M  V30 39 H 1.26027 -1.30957 1.90783 0
M  V30 40 H 2.74116 -3.09523 -0.309276 0
M  V30 41 H 2.15323 -3.56419 1.37155 0
M  V30 42 H -0.186317 -2.86384 0.727957 0
M  V30 43 H 0.487027 -2.31975 -0.954492 0
M  V30 END ATOM
M  V30 BEGIN BOND
M  V30 1 1 1 2
M  V30 2 1 2 3
M  V30 3 2 3 4
M  V30 4 2 3 5
M  V30 5 1 3 6
M  V30 6 2 6 7
M  V30 7 1 7 8
M  V30 8 1 8 9
M  V30 9 2 8 10
M  V30 10 1 10 11
M  V30 11 2 11 12
M  V30 12 1 10 13
M  V30 13 1 13 14
M  V30 14 2 14 15
M  V30 15 1 15 16
M  V30 16 1 16 17
M  V30 17 2 17 18
M  V30 18 1 17 19
M  V30 19 2 19 20
M  V30 20 1 20 21
M  V30 21 1 20 22
M  V30 22 2 16 23
M  V30 23 1 23 24
M  V30 24 1 24 25
M  V30 25 1 25 26
M  V30 26 1 12 6
M  V30 27 1 23 13
M  V30 28 1 26 24
M  V30 29 1 1 27
M  V30 30 1 1 28
M  V30 31 1 1 29
M  V30 32 1 2 30
M  V30 33 1 7 31
M  V30 34 1 11 32
M  V30 35 1 12 33
M  V30 36 1 15 34
M  V30 37 1 21 35
M  V30 38 1 21 36
M  V30 39 1 22 37
M  V30 40 1 22 38
M  V30 41 1 24 39
M  V30 42 1 25 40
M  V30 43 1 25 41
M  V30 44 1 26 42
M  V30 45 1 26 43
M  V30 END BOND
M  V30 END CTAB
M  END
