
     RDKit          3D

  0  0  0  0  0  0  0  0  0  0999 V3000
M  V30 BEGIN CTAB
M  V30 COUNTS 158 161 0 0 0
M  V30 BEGIN ATOM
M  V30 1 C -11.3999 -4.14737 1.21063 0
M  V30 2 C -11.2701 -2.81953 0.519646 0 CFG=1
M  V30 3 N -12.5225 -2.19175 0.259979 0
M  V30 4 C -12.9498 -1.66332 -0.960384 0
M  V30 5 O -12.1043 -1.69978 -1.91582 0
M  V30 6 C -14.2506 -1.08445 -1.26375 0 CFG=1
M  V30 7 N -15.3142 -1.76007 -0.488088 0
M  V30 8 C -14.3752 0.383629 -1.104 0
M  V30 9 C -14.1678 0.903991 0.27756 0
M  V30 10 C -12.9556 1.36276 0.696132 0
M  V30 11 C -12.7917 1.83667 1.97731 0
M  V30 12 C -13.8484 1.86207 2.87946 0
M  V30 13 O -13.7367 2.32386 4.16287 0
M  V30 14 C -15.0673 1.38785 2.42055 0
M  V30 15 C -15.2308 0.916033 1.14988 0
M  V30 16 C -10.1837 -2.00035 1.09586 0
M  V30 17 O -10.1828 -0.769439 1.02004 0
M  V30 18 N -9.12484 -2.70981 1.75175 0
M  V30 19 C -7.994 -2.08064 2.34145 0
M  V30 20 C -7.08183 -1.46535 1.39669 0
M  V30 21 O -6.06809 -0.839809 1.88415 0
M  V30 22 N -7.2305 -1.51668 0.00702095 0
M  V30 23 C -6.40919 -0.962028 -1.00983 0 CFG=1
M  V30 24 C -5.90562 0.434162 -0.858181 0
M  V30 25 C -7.04587 1.40046 -0.871523 0
M  V30 26 C -7.67853 1.88199 0.205647 0
M  V30 27 C -8.74381 2.78208 0.129408 0
M  V30 28 C -9.18399 3.21293 -1.11917 0
M  V30 29 C -8.53369 2.72054 -2.22404 0
M  V30 30 C -7.49146 1.83943 -2.136 0
M  V30 31 C -5.39177 -1.93071 -1.46886 0
M  V30 32 O -5.224 -3.00367 -0.862593 0
M  V30 33 N -4.59032 -1.66525 -2.61904 0
M  V30 34 C -3.61571 -2.52896 -3.17099 0
M  V30 35 C -2.46717 -2.85112 -2.29671 0
M  V30 36 C -1.64564 -1.64894 -1.88593 0
M  V30 37 C -1.24183 -0.937536 -3.1507 0
M  V30 38 C -0.313336 0.241245 -2.91094 0
M  V30 39 C -0.878075 1.20573 -1.90451 0
M  V30 40 C 0.0386522 2.40764 -1.74512 0
M  V30 41 C -0.461143 3.30403 -0.637144 0
M  V30 42 C -0.416571 2.58379 0.666358 0
M  V30 43 C 1.01465 2.11343 1.00813 0
M  V30 44 C 1.85311 3.32679 1.0716 0
M  V30 45 C 3.28235 3.27121 1.44021 0
M  V30 46 N 4.19873 2.53417 0.67531 0
M  V30 47 C 4.32741 1.1405 0.546635 0
M  V30 48 O 3.57438 0.374466 1.19429 0
M  V30 49 C 5.3801 0.583706 -0.374009 0 CFG=2
M  V30 50 C 4.85559 0.339579 -1.77325 0
M  V30 51 C 5.89964 -0.176806 -2.66463 0
M  V30 52 C 6.18809 -1.49884 -2.85429 0
M  V30 53 C 7.20811 -1.87081 -3.68487 0
M  V30 54 C 7.97772 -0.947644 -4.3537 0
M  V30 55 C 7.72154 0.378982 -4.19108 0
M  V30 56 C 6.68265 0.745582 -3.34703 0
M  V30 57 N 5.91731 -0.601613 0.221156 0
M  V30 58 C 7.28882 -0.892051 0.327943 0
M  V30 59 O 8.09909 -0.0312063 -0.139919 0
M  V30 60 C 7.85154 -2.10873 0.933541 0
M  V30 61 N 9.30881 -2.08931 0.837496 0
M  V30 62 C 10.1318 -1.12909 1.42293 0
M  V30 63 O 9.75189 -0.153558 2.12276 0
M  V30 64 C 11.6237 -1.24245 1.21018 0 CFG=1
M  V30 65 C 11.9164 -1.21825 -0.274328 0
M  V30 66 N 12.2388 -0.100918 1.82417 0
M  V30 67 C 13.1271 -0.223388 2.89696 0
M  V30 68 O 13.4719 -1.29491 3.41158 0
M  V30 69 C 13.706 1.04616 3.47395 0 CFG=1
M  V30 70 N 14.3932 0.720078 4.72127 0
M  V30 71 C 14.6926 1.58401 2.46212 0
M  V30 72 C 15.7789 0.626887 2.22688 0
M  V30 73 C 15.7693 -0.295778 1.20085 0
M  V30 74 C 16.8344 -1.15196 1.08833 0
M  V30 75 C 17.9014 -1.10473 1.97588 0
M  V30 76 O 18.9636 -1.96601 1.85498 0
M  V30 77 C 17.9208 -0.193038 2.99694 0
M  V30 78 C 16.8553 0.664266 3.10813 0
M  V30 79 H -12.4287 -4.53522 1.02936 0
M  V30 80 H -11.2286 -4.08168 2.29624 0
M  V30 81 H -10.683 -4.84919 0.768073 0
M  V30 82 H -10.8528 -3.06072 -0.532816 0
M  V30 83 H -13.1895 -2.11221 1.0847 0
M  V30 84 H -14.5252 -1.31224 -2.33954 0
M  V30 85 H -15.6846 -2.5701 -1.02382 0
M  V30 86 H -15.0661 -1.92848 0.476788 0
M  V30 87 H -15.336 0.760367 -1.51031 0
M  V30 88 H -13.5815 0.865544 -1.73775 0
M  V30 89 H -12.1014 1.36256 0.0331027 0
M  V30 90 H -11.8423 2.21434 2.36276 0
M  V30 91 H -13.4968 1.78657 4.96201 0
M  V30 92 H -15.9255 1.3831 3.07389 0
M  V30 93 H -16.1828 0.547355 0.802499 0
M  V30 94 H -9.18965 -3.77479 1.80363 0
M  V30 95 H -8.30055 -1.27615 3.07953 0
M  V30 96 H -7.39211 -2.84449 2.92319 0
M  V30 97 H -8.07688 -2.07714 -0.35713 0
M  V30 98 H -7.18307 -0.841586 -1.91341 0
M  V30 99 H -5.2656 0.716049 -1.73911 0
M  V30 100 H -5.33537 0.624197 0.0855939 0
M  V30 101 H -7.37524 1.59774 1.20815 0
M  V30 102 H -9.2545 3.17233 0.989926 0
M  V30 103 H -10.0001 3.90967 -1.2138 0
M  V30 104 H -8.86919 3.05155 -3.22145 0
M  V30 105 H -6.97679 1.45211 -2.99154 0
M  V30 106 H -4.78963 -0.719369 -3.06266 0
M  V30 107 H -4.06502 -3.51504 -3.50556 0
M  V30 108 H -3.26175 -2.0586 -4.1548 0
M  V30 109 H -2.86241 -3.35681 -1.38326 0
M  V30 110 H -1.80968 -3.62232 -2.77921 0
M  V30 111 H -2.20615 -0.98125 -1.20943 0
M  V30 112 H -0.699256 -1.97439 -1.39092 0
M  V30 113 H -0.789717 -1.61513 -3.87412 0
M  V30 114 H -2.16304 -0.497666 -3.64926 0
M  V30 115 H 0.660384 -0.135368 -2.51833 0
M  V30 116 H -0.172007 0.793596 -3.85392 0
M  V30 117 H -1.02703 0.70848 -0.928934 0
M  V30 118 H -1.86276 1.60466 -2.28695 0
M  V30 119 H 1.07873 2.13952 -1.57526 0
M  V30 120 H -0.0075827 3.01799 -2.70706 0
M  V30 121 H 0.0586579 4.25513 -0.677098 0
M  V30 122 H -1.57118 3.52295 -0.875127 0
M  V30 123 H -0.691078 3.35857 1.45122 0
M  V30 124 H -1.13932 1.77859 0.754403 0
M  V30 125 H 0.901661 1.63131 2.00645 0
M  V30 126 H 1.28675 1.38451 0.213898 0
M  V30 127 H 1.3597 4.0033 1.8503 0
M  V30 128 H 1.72944 3.93981 0.113982 0
M  V30 129 H 3.64671 4.36865 1.52332 0
M  V30 130 H 3.35292 2.95592 2.55057 0
M  V30 131 H 4.90569 3.15385 0.0937432 0
M  V30 132 H 6.17433 1.33294 -0.473621 0
M  V30 133 H 4.39867 1.24476 -2.15146 0
M  V30 134 H 4.08679 -0.471115 -1.68468 0
M  V30 135 H 5.61607 -2.25229 -2.35769 0
M  V30 136 H 7.45771 -2.92909 -3.85546 0
M  V30 137 H 8.79937 -1.24089 -5.00646 0
M  V30 138 H 8.30575 1.15581 -4.70225 0
M  V30 139 H 6.51867 1.81928 -3.25917 0
M  V30 140 H 5.23851 -1.29872 0.609513 0
M  V30 141 H 7.65088 -2.15957 2.03767 0
M  V30 142 H 7.43708 -3.02482 0.515025 0
M  V30 143 H 9.73887 -2.88539 0.270733 0
M  V30 144 H 11.9719 -2.19258 1.65686 0
M  V30 145 H 12.122 -2.26773 -0.565027 0
M  V30 146 H 12.7951 -0.60693 -0.466527 0
M  V30 147 H 10.9984 -0.897239 -0.816697 0
M  V30 148 H 11.9794 0.836647 1.417 0
M  V30 149 H 12.8995 1.7432 3.69606 0
M  V30 150 H 14.6626 1.61831 5.16059 0
M  V30 151 H 13.648 0.231782 5.30857 0
M  V30 152 H 14.1037 1.75393 1.51543 0
M  V30 153 H 15.059 2.5593 2.8464 0
M  V30 154 H 14.9316 -0.307312 0.534438 0
M  V30 155 H 16.8533 -1.8774 0.299012 0
M  V30 156 H 19.7711 -1.71807 1.27974 0
M  V30 157 H 18.7551 -0.143888 3.69231 0
M  V30 158 H 16.8504 1.3945 3.92873 0
M  V30 END ATOM
M  V30 BEGIN BOND
M  V30 1 1 1 2
M  V30 2 1 2 3
M  V30 3 1 3 4
M  V30 4 2 4 5
M  V30 5 1 4 6
M  V30 6 1 6 7
M  V30 7 1 6 8
M  V30 8 1 8 9
M  V30 9 2 9 10
M  V30 10 1 10 11
M  V30 11 2 11 12
M  V30 12 1 12 13
M  V30 13 1 12 14
M  V30 14 2 14 15
M  V30 15 1 2 16
M  V30 16 2 16 17
M  V30 17 1 16 18
M  V30 18 1 18 19
M  V30 19 1 19 20
M  V30 20 2 20 21
M  V30 21 1 20 22
M  V30 22 1 22 23
M  V30 23 1 23 24
M  V30 24 1 24 25
M  V30 25 2 25 26
M  V30 26 1 26 27
M  V30 27 2 27 28
M  V30 28 1 28 29
M  V30 29 2 29 30
M  V30 30 1 23 31
M  V30 31 2 31 32
M  V30 32 1 31 33
M  V30 33 1 33 34
M  V30 34 1 34 35
M  V30 35 1 35 36
M  V30 36 1 36 37
M  V30 37 1 37 38
M  V30 38 1 38 39
M  V30 39 1 39 40
M  V30 40 1 40 41
M  V30 41 1 41 42
M  V30 42 1 42 43
M  V30 43 1 43 44
M  V30 44 1 44 45
M  V30 45 1 45 46
M  V30 46 1 46 47
M  V30 47 2 47 48
M  V30 48 1 47 49
M  V30 49 1 49 50
M  V30 50 1 50 51
M  V30 51 2 51 52
M  V30 52 1 52 53
M  V30 53 2 53 54
M  V30 54 1 54 55
M  V30 55 2 55 56
M  V30 56 1 49 57
M  V30 57 1 57 58
M  V30 58 2 58 59
M  V30 59 1 58 60
M  V30 60 1 60 61
M  V30 61 1 61 62
M  V30 62 2 62 63
M  V30 63 1 62 64
M  V30 64 1 64 65
M  V30 65 1 64 66
M  V30 66 1 66 67
M  V30 67 2 67 68
M  V30 68 1 67 69
M  V30 69 1 69 70
M  V30 70 1 69 71
M  V30 71 1 71 72
M  V30 72 2 72 73
M  V30 73 1 73 74
M  V30 74 2 74 75
M  V30 75 1 75 76
M  V30 76 1 75 77
M  V30 77 2 77 78
M  V30 78 1 15 9
M  V30 79 1 30 25
M  V30 80 1 56 51
M  V30 81 1 78 72
M  V30 82 1 1 79
M  V30 83 1 1 80
M  V30 84 1 1 81
M  V30 85 1 2 82 CFG=3
M  V30 86 1 3 83
M  V30 87 1 6 84 CFG=3
M  V30 88 1 7 85
M  V30 89 1 7 86
M  V30 90 1 8 87
M  V30 91 1 8 88
M  V30 92 1 10 89
M  V30 93 1 11 90
M  V30 94 1 13 91
M  V30 95 1 14 92
M  V30 96 1 15 93
M  V30 97 1 18 94
M  V30 98 1 19 95
M  V30 99 1 19 96
M  V30 100 1 22 97
M  V30 101 1 23 98 CFG=3
M  V30 102 1 24 99
M  V30 103 1 24 100
M  V30 104 1 26 101
M  V30 105 1 27 102
M  V30 106 1 28 103
M  V30 107 1 29 104
M  V30 108 1 30 105
M  V30 109 1 33 106
M  V30 110 1 34 107
M  V30 111 1 34 108
M  V30 112 1 35 109
M  V30 113 1 35 110
M  V30 114 1 36 111
M  V30 115 1 36 112
M  V30 116 1 37 113
M  V30 117 1 37 114
M  V30 118 1 38 115
M  V30 119 1 38 116
M  V30 120 1 39 117
M  V30 121 1 39 118
M  V30 122 1 40 119
M  V30 123 1 40 120
M  V30 124 1 41 121
M  V30 125 1 41 122
M  V30 126 1 42 123
M  V30 127 1 42 124
M  V30 128 1 43 125
M  V30 129 1 43 126
M  V30 130 1 44 127
M  V30 131 1 44 128
M  V30 132 1 45 129
M  V30 133 1 45 130
M  V30 134 1 46 131
M  V30 135 1 49 132 CFG=3
M  V30 136 1 50 133
M  V30 137 1 50 134
M  V30 138 1 52 135
M  V30 139 1 53 136
M  V30 140 1 54 137
M  V30 141 1 55 138
M  V30 142 1 56 139
M  V30 143 1 57 140
M  V30 144 1 60 141
M  V30 145 1 60 142
M  V30 146 1 61 143
M  V30 147 1 64 144 CFG=1
M  V30 148 1 65 145
M  V30 149 1 65 146
M  V30 150 1 65 147
M  V30 151 1 66 148
M  V30 152 1 69 149 CFG=1
M  V30 153 1 70 150
M  V30 154 1 70 151
M  V30 155 1 71 152
M  V30 156 1 71 153
M  V30 157 1 73 154
M  V30 158 1 74 155
M  V30 159 1 76 156
M  V30 160 1 77 157
M  V30 161 1 78 158
M  V30 END BOND
M  V30 END CTAB
M  END
