
     RDKit          3D

  0  0  0  0  0  0  0  0  0  0999 V3000
M  V30 BEGIN CTAB
M  V30 COUNTS 18 18 0 0 0
M  V30 BEGIN ATOM
M  V30 1 N 3.05107 -1.02477 0.00200618 0
M  V30 2 C 1.8344 -0.302456 -0.0542866 0
M  V30 3 N 1.78618 1.02355 -0.279577 0
M  V30 4 C 0.623663 1.6952 -0.330134 0
M  V30 5 C -0.592585 1.02775 -0.147456 0
M  V30 6 C -0.594517 -0.330978 0.086258 0
M  V30 7 C 0.625399 -0.973422 0.128591 0
M  V30 8 C -1.87557 -1.03901 0.279516 0
M  V30 9 F -2.58636 -0.556915 1.35672 0
M  V30 10 F -2.65393 -1.06874 -0.857677 0
M  V30 11 F -1.58226 -2.37385 0.578538 0
M  V30 12 N -1.81306 1.71941 -0.198186 0
M  V30 13 H 3.54827 -1.21773 -0.886369 0
M  V30 14 H 3.46167 -1.366 0.890017 0
M  V30 15 H 0.609039 2.75362 -0.511303 0
M  V30 16 H 0.68253 -2.04143 0.309031 0
M  V30 17 H -1.84884 2.66223 0.28975 0
M  V30 18 H -2.67509 1.41354 -0.655437 0
M  V30 END ATOM
M  V30 BEGIN BOND
M  V30 1 1 1 2
M  V30 2 2 2 3
M  V30 3 1 3 4
M  V30 4 2 4 5
M  V30 5 1 5 6
M  V30 6 2 6 7
M  V30 7 1 6 8
M  V30 8 1 8 9
M  V30 9 1 8 10
M  V30 10 1 8 11
M  V30 11 1 5 12
M  V30 12 1 7 2
M  V30 13 1 1 13
M  V30 14 1 1 14
M  V30 15 1 4 15
M  V30 16 1 7 16
M  V30 17 1 12 17
M  V30 18 1 12 18
M  V30 END BOND
M  V30 END CTAB
M  END
