
     RDKit          3D

  0  0  0  0  0  0  0  0  0  0999 V3000
M  V30 BEGIN CTAB
M  V30 COUNTS 26 26 0 0 0
M  V30 BEGIN ATOM
M  V30 1 O 2.36191 2.05233 0.0662368 0
M  V30 2 C 2.67374 0.94519 0.783836 0
M  V30 3 C 1.97897 -0.283588 0.420741 0
M  V30 4 C 0.620128 -0.666415 0.524566 0 CFG=1
M  V30 5 C -0.519858 0.0365326 -0.00959902 0
M  V30 6 C -0.749644 1.38435 0.209706 0
M  V30 7 C -1.91226 2.04924 -0.133588 0
M  V30 8 C -2.93296 1.3393 -0.738899 0
M  V30 9 C -2.74792 -0.0111668 -0.977637 0
M  V30 10 C -1.5634 -0.646175 -0.622248 0
M  V30 11 N -1.47511 -2.02554 -0.99915 0
M  V30 12 N 0.554766 -2.1163 0.148768 0
M  V30 13 H 2.32677 1.87665 -0.85016 0
M  V30 14 H 3.78053 0.798714 0.626149 0
M  V30 15 H 2.61348 1.22358 1.88895 0
M  V30 16 H 2.33882 -0.484944 -0.678074 0
M  V30 17 H 2.59271 -1.13016 0.938652 0
M  V30 18 H 0.358789 -0.763869 1.66769 0
M  V30 19 H -0.0375778 2.02727 0.738134 0
M  V30 20 H -2.06804 3.12063 0.0469139 0
M  V30 21 H -3.84541 1.8375 -1.00785 0
M  V30 22 H -3.51643 -0.612538 -1.45779 0
M  V30 23 H -1.02353 -2.35216 -1.86033 0
M  V30 24 H -1.88514 -2.72087 -0.346393 0
M  V30 25 H 1.14771 -2.17593 -0.710409 0
M  V30 26 H 0.928953 -2.70163 0.929463 0
M  V30 END ATOM
M  V30 BEGIN BOND
M  V30 1 1 1 2
M  V30 2 1 2 3
M  V30 3 1 3 4
M  V30 4 1 4 5
M  V30 5 2 5 6
M  V30 6 1 6 7
M  V30 7 2 7 8
M  V30 8 1 8 9
M  V30 9 2 9 10
M  V30 10 1 10 11
M  V30 11 1 4 12
M  V30 12 1 10 5
M  V30 13 1 1 13
M  V30 14 1 2 14
M  V30 15 1 2 15
M  V30 16 1 3 16
M  V30 17 1 3 17
M  V30 18 1 4 18 CFG=1
M  V30 19 1 6 19
M  V30 20 1 7 20
M  V30 21 1 8 21
M  V30 22 1 9 22
M  V30 23 1 11 23
M  V30 24 1 11 24
M  V30 25 1 12 25
M  V30 26 1 12 26
M  V30 END BOND
M  V30 END CTAB
M  END
