
     RDKit          3D

  0  0  0  0  0  0  0  0  0  0999 V3000
M  V30 BEGIN CTAB
M  V30 COUNTS 72 74 0 0 0
M  V30 BEGIN ATOM
M  V30 1 N -7.84516 0.0553001 2.08709 0
M  V30 2 C -8.38084 -0.270483 0.853167 0
M  V30 3 C -7.27039 -0.455511 -0.177979 0
M  V30 4 C -6.475 0.817235 -0.318709 0
M  V30 5 C -5.36456 0.695819 -1.31422 0
M  V30 6 C -4.34968 -0.358334 -0.937427 0 CFG=2
M  V30 7 C -3.66588 -0.109659 0.329824 0
M  V30 8 O -4.37139 -0.209217 1.40897 0
M  V30 9 N -2.32115 0.230645 0.553536 0
M  V30 10 C -1.38851 0.412335 -0.51294 0
M  V30 11 C -0.12837 1.05298 0.110474 0
M  V30 12 C 0.560422 0.139474 1.04171 0
M  V30 13 C -0.529953 -0.383748 1.99951 0
M  V30 14 C -1.78255 0.414828 1.90612 0
M  V30 15 C 1.19751 -1.06874 0.454935 0
M  V30 16 C 1.59914 -1.02929 -0.96473 0
M  V30 17 C 3.06398 -1.45673 -1.17071 0
M  V30 18 C 3.72242 -0.645188 -2.2044 0
M  V30 19 C 4.98477 0.0480614 -1.8961 0
M  V30 20 C 5.77972 -0.449117 -0.757994 0
M  V30 21 C 5.64872 -0.0610146 0.553705 0
M  V30 22 O 4.75766 0.866994 1.003 0
M  V30 23 C 4.52769 2.20245 0.736073 0
M  V30 24 C 3.0269 2.38239 0.449397 0
M  V30 25 N 2.2328 2.04439 1.60004 0
M  V30 26 C 1.54896 0.870354 1.8875 0
M  V30 27 O 1.77568 0.314432 3.02606 0
M  V30 28 C 6.49187 -0.66808 1.4796 0
M  V30 29 C 7.43218 -1.61839 1.15108 0
M  V30 30 C 7.56082 -2.00129 -0.150374 0
M  V30 31 C 6.72773 -1.40178 -1.06235 0
M  V30 32 N -3.39557 -0.529028 -2.01745 0
M  V30 33 H -8.2582 0.753513 2.62075 0
M  V30 34 H -7.24206 -0.567758 2.53515 0
M  V30 35 H -9.09325 0.508884 0.485763 0
M  V30 36 H -8.96607 -1.20554 0.917562 0
M  V30 37 H -6.64222 -1.30743 0.116838 0
M  V30 38 H -7.76747 -0.682654 -1.16439 0
M  V30 39 H -7.21127 1.58747 -0.738871 0
M  V30 40 H -6.16322 1.19915 0.669912 0
M  V30 41 H -5.85047 0.393512 -2.28781 0
M  V30 42 H -4.86378 1.68737 -1.44693 0
M  V30 43 H -4.85944 -1.35272 -0.846317 0
M  V30 44 H -1.72333 1.16949 -1.2729 0
M  V30 45 H -1.10011 -0.557941 -0.943937 0
M  V30 46 H 0.483531 1.51264 -0.685498 0
M  V30 47 H -0.51705 1.91295 0.696558 0
M  V30 48 H -0.785198 -1.43464 1.75232 0
M  V30 49 H -0.128966 -0.415755 3.0452 0
M  V30 50 H -1.74188 1.44749 2.23274 0
M  V30 51 H -2.51273 -0.0895319 2.6007 0
M  V30 52 H 2.12632 -1.30848 1.05801 0
M  V30 53 H 0.576695 -2.00602 0.598417 0
M  V30 54 H 1.49964 -0.0588591 -1.47256 0
M  V30 55 H 0.994176 -1.74516 -1.59898 0
M  V30 56 H 3.09255 -2.54194 -1.48432 0
M  V30 57 H 3.50022 -1.45691 -0.163467 0
M  V30 58 H 3.82247 -1.27373 -3.14069 0
M  V30 59 H 2.98268 0.147021 -2.53841 0
M  V30 60 H 4.83575 1.13387 -1.76475 0
M  V30 61 H 5.62598 -0.00948838 -2.82857 0
M  V30 62 H 5.08461 2.67737 -0.0619358 0
M  V30 63 H 4.74274 2.76203 1.71177 0
M  V30 64 H 2.88878 3.45447 0.196384 0
M  V30 65 H 2.83213 1.81618 -0.456108 0
M  V30 66 H 2.17296 2.82129 2.33406 0
M  V30 67 H 6.47171 -0.445785 2.56033 0
M  V30 68 H 8.08476 -2.08311 1.89037 0
M  V30 69 H 8.29941 -2.74908 -0.416832 0
M  V30 70 H 6.86002 -1.73812 -2.11449 0
M  V30 71 H -3.88046 -0.286275 -2.91049 0
M  V30 72 H -3.03993 -1.49988 -1.9831 0
M  V30 END ATOM
M  V30 BEGIN BOND
M  V30 1 1 1 2
M  V30 2 1 2 3
M  V30 3 1 3 4
M  V30 4 1 4 5
M  V30 5 1 5 6
M  V30 6 1 6 7
M  V30 7 2 7 8
M  V30 8 1 7 9
M  V30 9 1 9 10
M  V30 10 1 10 11
M  V30 11 1 11 12
M  V30 12 1 12 13
M  V30 13 1 13 14
M  V30 14 1 12 15
M  V30 15 1 15 16
M  V30 16 1 16 17
M  V30 17 1 17 18
M  V30 18 1 18 19
M  V30 19 1 19 20
M  V30 20 2 20 21
M  V30 21 1 21 22
M  V30 22 1 22 23
M  V30 23 1 23 24
M  V30 24 1 24 25
M  V30 25 1 25 26
M  V30 26 2 26 27
M  V30 27 1 21 28
M  V30 28 2 28 29
M  V30 29 1 29 30
M  V30 30 2 30 31
M  V30 31 1 6 32
M  V30 32 1 14 9
M  V30 33 1 31 20
M  V30 34 1 26 12
M  V30 35 1 1 33
M  V30 36 1 1 34
M  V30 37 1 2 35
M  V30 38 1 2 36
M  V30 39 1 3 37
M  V30 40 1 3 38
M  V30 41 1 4 39
M  V30 42 1 4 40
M  V30 43 1 5 41
M  V30 44 1 5 42
M  V30 45 1 6 43 CFG=1
M  V30 46 1 10 44
M  V30 47 1 10 45
M  V30 48 1 11 46
M  V30 49 1 11 47
M  V30 50 1 13 48
M  V30 51 1 13 49
M  V30 52 1 14 50
M  V30 53 1 14 51
M  V30 54 1 15 52
M  V30 55 1 15 53
M  V30 56 1 16 54
M  V30 57 1 16 55
M  V30 58 1 17 56
M  V30 59 1 17 57
M  V30 60 1 18 58
M  V30 61 1 18 59
M  V30 62 1 19 60
M  V30 63 1 19 61
M  V30 64 1 23 62
M  V30 65 1 23 63
M  V30 66 1 24 64
M  V30 67 1 24 65
M  V30 68 1 25 66
M  V30 69 1 28 67
M  V30 70 1 29 68
M  V30 71 1 30 69
M  V30 72 1 31 70
M  V30 73 1 32 71
M  V30 74 1 32 72
M  V30 END BOND
M  V30 END CTAB
M  END
