
     RDKit          3D

  0  0  0  0  0  0  0  0  0  0999 V3000
M  V30 BEGIN CTAB
M  V30 COUNTS 22 22 0 0 0
M  V30 BEGIN ATOM
M  V30 1 N 3.49066 -0.18477 0.204356 0
M  V30 2 C 2.10355 -0.570601 0.475514 0
M  V30 3 C 1.17223 0.398503 -0.219051 0
M  V30 4 C -0.243064 0.0563432 0.0195878 0
M  V30 5 C -0.537406 -1.04222 0.774545 0
M  V30 6 C -1.84782 -1.36879 1.00121 0
M  V30 7 C -2.8763 -0.629257 0.495225 0
M  V30 8 C -2.55108 0.470766 -0.260809 0
M  V30 9 C -1.23819 0.836819 -0.514591 0
M  V30 10 N -0.928062 1.97653 -1.29784 0
M  V30 11 F 1.46714 1.70488 0.0754753 0
M  V30 12 H 4.04434 -1.06999 0.233376 0
M  V30 13 H 3.52365 0.144745 -0.789066 0
M  V30 14 H 1.88381 -0.496354 1.56597 0
M  V30 15 H 1.93667 -1.56182 0.0457275 0
M  V30 16 H 1.35645 0.26722 -1.3201 0
M  V30 17 H 0.260299 -1.66325 1.19903 0
M  V30 18 H -2.11553 -2.24621 1.60424 0
M  V30 19 H -3.92143 -0.896339 0.680591 0
M  V30 20 H -3.34847 1.07882 -0.676934 0
M  V30 21 H -0.766647 1.90006 -2.31029 0
M  V30 22 H -0.864795 2.89492 -0.838459 0
M  V30 END ATOM
M  V30 BEGIN BOND
M  V30 1 1 1 2
M  V30 2 1 2 3
M  V30 3 1 3 4
M  V30 4 2 4 5
M  V30 5 1 5 6
M  V30 6 2 6 7
M  V30 7 1 7 8
M  V30 8 2 8 9
M  V30 9 1 9 10
M  V30 10 1 3 11
M  V30 11 1 9 4
M  V30 12 1 1 12
M  V30 13 1 1 13
M  V30 14 1 2 14
M  V30 15 1 2 15
M  V30 16 1 3 16
M  V30 17 1 5 17
M  V30 18 1 6 18
M  V30 19 1 7 19
M  V30 20 1 8 20
M  V30 21 1 10 21
M  V30 22 1 10 22
M  V30 END BOND
M  V30 END CTAB
M  END
