
     RDKit          3D

  0  0  0  0  0  0  0  0  0  0999 V3000
M  V30 BEGIN CTAB
M  V30 COUNTS 34 33 0 0 0
M  V30 BEGIN ATOM
M  V30 1 N 6.67813 0.764322 0.0129187 0
M  V30 2 C 5.3231 0.374371 -0.301627 0
M  V30 3 C 4.39173 0.69639 0.795322 0
M  V30 4 O 4.82338 1.23952 1.82829 0
M  V30 5 N 3.02061 0.393361 0.679407 0
M  V30 6 C 2.11592 0.707854 1.75125 0
M  V30 7 C 0.692917 0.313279 1.44172 0
M  V30 8 S 0.519137 -1.44914 1.13265 0
M  V30 9 S -1.47704 -1.96702 0.702922 0
M  V30 10 C -1.83322 -1.87553 -1.09162 0
M  V30 11 C -1.74146 -0.436893 -1.52441 0
M  V30 12 N -2.68326 0.374889 -0.802564 0
M  V30 13 C -4.07071 0.126375 -0.919966 0
M  V30 14 O -4.58653 -0.774819 -1.63166 0
M  V30 15 C -4.98582 1.0284 -0.117376 0
M  V30 16 N -6.35431 0.641315 -0.352847 0
M  V30 17 H 7.1319 -0.0186332 0.531365 0
M  V30 18 H 7.18414 0.912248 -0.8906 0
M  V30 19 H 5.02097 0.993388 -1.18588 0
M  V30 20 H 5.24844 -0.715952 -0.505549 0
M  V30 21 H 2.64286 -0.0680343 -0.195324 0
M  V30 22 H 2.11003 1.8298 1.8417 0
M  V30 23 H 2.44863 0.335639 2.73055 0
M  V30 24 H 0.366217 0.858075 0.549899 0
M  V30 25 H 0.0844711 0.562055 2.34769 0
M  V30 26 H -0.962418 -2.38846 -1.5648 0
M  V30 27 H -2.78393 -2.31679 -1.35174 0
M  V30 28 H -0.724349 -0.0178648 -1.37924 0
M  V30 29 H -1.98573 -0.319798 -2.60952 0
M  V30 30 H -2.33496 1.1446 -0.19418 0
M  V30 31 H -4.74518 0.958851 0.954823 0
M  V30 32 H -4.87377 2.07762 -0.454165 0
M  V30 33 H -6.74635 0.267413 0.527746 0
M  V30 34 H -6.91355 1.40116 -0.755197 0
M  V30 END ATOM
M  V30 BEGIN BOND
M  V30 1 1 1 2
M  V30 2 1 2 3
M  V30 3 2 3 4
M  V30 4 1 3 5
M  V30 5 1 5 6
M  V30 6 1 6 7
M  V30 7 1 7 8
M  V30 8 1 8 9
M  V30 9 1 9 10
M  V30 10 1 10 11
M  V30 11 1 11 12
M  V30 12 1 12 13
M  V30 13 2 13 14
M  V30 14 1 13 15
M  V30 15 1 15 16
M  V30 16 1 1 17
M  V30 17 1 1 18
M  V30 18 1 2 19
M  V30 19 1 2 20
M  V30 20 1 5 21
M  V30 21 1 6 22
M  V30 22 1 6 23
M  V30 23 1 7 24
M  V30 24 1 7 25
M  V30 25 1 10 26
M  V30 26 1 10 27
M  V30 27 1 11 28
M  V30 28 1 11 29
M  V30 29 1 12 30
M  V30 30 1 15 31
M  V30 31 1 15 32
M  V30 32 1 16 33
M  V30 33 1 16 34
M  V30 END BOND
M  V30 END CTAB
M  END
