
     RDKit          3D

  0  0  0  0  0  0  0  0  0  0999 V3000
M  V30 BEGIN CTAB
M  V30 COUNTS 65 69 0 0 0
M  V30 BEGIN ATOM
M  V30 1 C -2.71695 6.3368 1.97255 0
M  V30 2 S -2.61914 5.69982 0.317012 0
M  V30 3 O -1.37694 6.25182 -0.320106 0
M  V30 4 O -3.78594 6.19051 -0.494744 0
M  V30 5 C -2.57372 3.95303 0.305622 0
M  V30 6 C -1.3582 3.25884 0.359774 0
M  V30 7 C -1.27224 1.89258 0.353355 0
M  V30 8 N -0.0636616 1.16456 0.406961 0
M  V30 9 C 1.21833 1.73338 0.473979 0
M  V30 10 O 1.50897 2.94841 0.50093 0
M  V30 11 C 2.4 0.830638 0.521513 0
M  V30 12 C 3.54633 1.24464 1.16426 0
M  V30 13 C 4.62511 0.385857 1.17901 0
M  V30 14 C 4.59704 -0.845944 0.584479 0
M  V30 15 C 3.41672 -1.21211 -0.0484444 0
M  V30 16 C 2.29837 -0.379074 -0.0903223 0
M  V30 17 C 5.67622 -1.80231 0.515831 0
M  V30 18 C 5.58765 -2.99087 1.26905 0
M  V30 19 C 6.59851 -3.91273 1.25107 0
M  V30 20 C 7.72145 -3.69572 0.496183 0
M  V30 21 C 7.78694 -2.53071 -0.230793 0
M  V30 22 C 6.78271 -1.56796 -0.24132 0
M  V30 23 S 6.95639 -0.162361 -1.20621 0
M  V30 24 N 5.66943 0.048279 -2.33666 0
M  V30 25 O 7.26264 1.07026 -0.422548 0
M  V30 26 O 8.19926 -0.363635 -2.09629 0
M  V30 27 C -2.47266 1.15248 0.288775 0
M  V30 28 O -2.4117 -0.2371 0.28094 0
M  V30 29 C -3.53722 -1.03195 0.219657 0
M  V30 30 C -4.05454 -1.42891 -0.996276 0
M  V30 31 C -5.18199 -2.22502 -1.05389 0
M  V30 32 C -5.81998 -2.64427 0.0868045 0
M  V30 33 C -6.941 -3.43644 0.00653796 0
M  V30 34 C -7.38877 -3.78541 -1.24895 0
M  V30 35 N -6.74837 -3.36352 -2.35423 0
M  V30 36 C -5.65442 -2.59162 -2.31846 0
M  V30 37 N -4.98231 -2.14909 -3.4887 0
M  V30 38 C -5.30766 -2.25016 1.32802 0
M  V30 39 C -4.18871 -1.4605 1.36862 0
M  V30 40 C -3.6462 1.83999 0.236628 0
M  V30 41 C -3.73317 3.21473 0.243067 0
M  V30 42 H -2.21443 7.33058 1.98765 0
M  V30 43 H -3.80199 6.48867 2.19867 0
M  V30 44 H -2.30995 5.63957 2.71544 0
M  V30 45 H -0.49885 3.89815 0.406806 0
M  V30 46 H -0.120612 0.0977102 0.403672 0
M  V30 47 H 3.60335 2.23253 1.65346 0
M  V30 48 H 5.51756 0.67773 1.6941 0
M  V30 49 H 3.31139 -2.17695 -0.545592 0
M  V30 50 H 1.39282 -0.683132 -0.594644 0
M  V30 51 H 4.67717 -3.12143 1.85424 0
M  V30 52 H 6.50415 -4.80684 1.83313 0
M  V30 53 H 8.54934 -4.42657 0.467615 0
M  V30 54 H 8.67705 -2.3561 -0.830211 0
M  V30 55 H 5.06078 0.843956 -2.12876 0
M  V30 56 H 5.21683 -0.827565 -2.6012 0
M  V30 57 H -3.59206 -1.12774 -1.92604 0
M  V30 58 H -7.43027 -3.75691 0.920645 0
M  V30 59 H -8.26608 -4.40673 -1.3629 0
M  V30 60 H -5.44493 -1.4851 -4.14198 0
M  V30 61 H -4.02181 -2.4684 -3.72772 0
M  V30 62 H -5.81455 -2.58379 2.21499 0
M  V30 63 H -3.77322 -1.14188 2.33767 0
M  V30 64 H -4.56333 1.27128 0.187267 0
M  V30 65 H -4.67492 3.73978 0.201013 0
M  V30 END ATOM
M  V30 BEGIN BOND
M  V30 1 1 1 2
M  V30 2 2 2 3
M  V30 3 2 2 4
M  V30 4 1 2 5
M  V30 5 2 5 6
M  V30 6 1 6 7
M  V30 7 1 7 8
M  V30 8 1 8 9
M  V30 9 2 9 10
M  V30 10 1 9 11
M  V30 11 2 11 12
M  V30 12 1 12 13
M  V30 13 2 13 14
M  V30 14 1 14 15
M  V30 15 2 15 16
M  V30 16 1 14 17
M  V30 17 2 17 18
M  V30 18 1 18 19
M  V30 19 2 19 20
M  V30 20 1 20 21
M  V30 21 2 21 22
M  V30 22 1 22 23
M  V30 23 1 23 24
M  V30 24 2 23 25
M  V30 25 2 23 26
M  V30 26 2 7 27
M  V30 27 1 27 28
M  V30 28 1 28 29
M  V30 29 2 29 30
M  V30 30 1 30 31
M  V30 31 2 31 32
M  V30 32 1 32 33
M  V30 33 2 33 34
M  V30 34 1 34 35
M  V30 35 2 35 36
M  V30 36 1 36 37
M  V30 37 1 32 38
M  V30 38 2 38 39
M  V30 39 1 27 40
M  V30 40 2 40 41
M  V30 41 1 41 5
M  V30 42 1 16 11
M  V30 43 1 22 17
M  V30 44 1 39 29
M  V30 45 1 36 31
M  V30 46 1 1 42
M  V30 47 1 1 43
M  V30 48 1 1 44
M  V30 49 1 6 45
M  V30 50 1 8 46
M  V30 51 1 12 47
M  V30 52 1 13 48
M  V30 53 1 15 49
M  V30 54 1 16 50
M  V30 55 1 18 51
M  V30 56 1 19 52
M  V30 57 1 20 53
M  V30 58 1 21 54
M  V30 59 1 24 55
M  V30 60 1 24 56
M  V30 61 1 30 57
M  V30 62 1 33 58
M  V30 63 1 34 59
M  V30 64 1 37 60
M  V30 65 1 37 61
M  V30 66 1 38 62
M  V30 67 1 39 63
M  V30 68 1 40 64
M  V30 69 1 41 65
M  V30 END BOND
M  V30 END CTAB
M  END
