
     RDKit          3D

  0  0  0  0  0  0  0  0  0  0999 V3000
M  V30 BEGIN CTAB
M  V30 COUNTS 58 62 0 0 0
M  V30 BEGIN ATOM
M  V30 1 O 1.9547 -2.38193 -0.673149 0
M  V30 2 C 1.91828 -1.29284 0.0123123 0
M  V30 3 C 0.870716 -0.318745 -0.258604 0
M  V30 4 C -0.134976 -0.463324 -1.22893 0
M  V30 5 N -0.229124 -1.6069 -2.06987 0
M  V30 6 N -0.926164 0.616042 -1.20978 0
M  V30 7 C -0.49763 1.49269 -0.262413 0
M  V30 8 C 0.628458 0.895231 0.326212 0
M  V30 9 N 1.24331 1.56867 1.29865 0
M  V30 10 C 0.822063 2.76596 1.71236 0
M  V30 11 C 1.49168 3.44824 2.7382 0
M  V30 12 C 1.02862 4.68114 3.13885 0
M  V30 13 C -0.0801373 5.22019 2.52674 0
M  V30 14 C -0.759925 4.58538 1.523 0
M  V30 15 C -0.284624 3.33231 1.11998 0
M  V30 16 N -0.935966 2.69495 0.13948 0
M  V30 17 C -2.0751 0.876674 -2.04451 0
M  V30 18 C -3.3556 0.399073 -1.50877 0
M  V30 19 C -4.15083 1.18346 -0.719765 0
M  V30 20 C -5.35265 0.721867 -0.224521 0
M  V30 21 C -5.79384 -0.549164 -0.509354 0
M  V30 22 C -5.00929 -1.34977 -1.29958 0
M  V30 23 C -3.79224 -0.869001 -1.79544 0
M  V30 24 S -7.34034 -1.13266 0.132592 0
M  V30 25 O -8.17521 0.115574 0.35912 0
M  V30 26 O -7.99245 -2.01054 -0.867709 0
M  V30 27 N -7.14559 -1.89052 1.6506 0
M  V30 28 N 2.92313 -1.15064 0.980701 0
M  V30 29 C 3.98137 -2.03416 1.30395 0
M  V30 30 C 5.00433 -2.34103 0.289859 0
M  V30 31 C 5.74058 -1.10853 -0.213844 0
M  V30 32 C 6.51894 -1.67908 -1.38061 0
M  V30 33 C 5.87553 -3.06028 -1.53941 0
M  V30 34 O 4.63313 -2.93475 -0.873482 0
M  V30 35 H -0.310742 -2.57412 -1.73104 0
M  V30 36 H -0.213082 -1.43799 -3.10616 0
M  V30 37 H 2.35657 2.96853 3.17703 0
M  V30 38 H 1.54442 5.22615 3.94191 0
M  V30 39 H -0.412282 6.20022 2.87646 0
M  V30 40 H -1.63833 5.0003 1.02989 0
M  V30 41 H -1.88469 0.406088 -3.06083 0
M  V30 42 H -2.15694 1.98379 -2.18831 0
M  V30 43 H -3.82463 2.19215 -0.487308 0
M  V30 44 H -5.93628 1.36622 0.383851 0
M  V30 45 H -5.35245 -2.34526 -1.52404 0
M  V30 46 H -3.21343 -1.53105 -2.41515 0
M  V30 47 H -6.15132 -2.22957 1.71468 0
M  V30 48 H -7.81373 -2.69232 1.70948 0
M  V30 49 H 2.87012 -0.242424 1.54697 0
M  V30 50 H 4.53208 -1.66719 2.2227 0
M  V30 51 H 3.5397 -3.02898 1.629 0
M  V30 52 H 5.79138 -2.979 0.760302 0
M  V30 53 H 6.43344 -0.73791 0.560353 0
M  V30 54 H 5.06683 -0.341254 -0.611177 0
M  V30 55 H 6.32521 -1.11268 -2.32006 0
M  V30 56 H 7.60622 -1.75501 -1.17886 0
M  V30 57 H 5.76543 -3.34833 -2.58377 0
M  V30 58 H 6.47334 -3.74391 -0.918785 0
M  V30 END ATOM
M  V30 BEGIN BOND
M  V30 1 2 1 2
M  V30 2 1 2 3
M  V30 3 2 3 4
M  V30 4 1 4 5
M  V30 5 1 4 6
M  V30 6 1 6 7
M  V30 7 2 7 8
M  V30 8 1 8 9
M  V30 9 2 9 10
M  V30 10 1 10 11
M  V30 11 2 11 12
M  V30 12 1 12 13
M  V30 13 2 13 14
M  V30 14 1 14 15
M  V30 15 2 15 16
M  V30 16 1 6 17
M  V30 17 1 17 18
M  V30 18 2 18 19
M  V30 19 1 19 20
M  V30 20 2 20 21
M  V30 21 1 21 22
M  V30 22 2 22 23
M  V30 23 1 21 24
M  V30 24 2 24 25
M  V30 25 2 24 26
M  V30 26 1 24 27
M  V30 27 1 2 28
M  V30 28 1 28 29
M  V30 29 1 29 30
M  V30 30 1 30 31
M  V30 31 1 31 32
M  V30 32 1 32 33
M  V30 33 1 33 34
M  V30 34 1 8 3
M  V30 35 1 15 10
M  V30 36 1 23 18
M  V30 37 1 34 30
M  V30 38 1 16 7
M  V30 39 1 5 35
M  V30 40 1 5 36
M  V30 41 1 11 37
M  V30 42 1 12 38
M  V30 43 1 13 39
M  V30 44 1 14 40
M  V30 45 1 17 41
M  V30 46 1 17 42
M  V30 47 1 19 43
M  V30 48 1 20 44
M  V30 49 1 22 45
M  V30 50 1 23 46
M  V30 51 1 27 47
M  V30 52 1 27 48
M  V30 53 1 28 49
M  V30 54 1 29 50
M  V30 55 1 29 51
M  V30 56 1 30 52
M  V30 57 1 31 53
M  V30 58 1 31 54
M  V30 59 1 32 55
M  V30 60 1 32 56
M  V30 61 1 33 57
M  V30 62 1 33 58
M  V30 END BOND
M  V30 END CTAB
M  END
