
     RDKit          3D

  0  0  0  0  0  0  0  0  0  0999 V3000
M  V30 BEGIN CTAB
M  V30 COUNTS 28 29 0 0 0
M  V30 BEGIN ATOM
M  V30 1 N -3.78322 1.78205 -0.13845 0
M  V30 2 C -3.01362 0.840135 -0.836598 0
M  V30 3 S -3.33094 0.406115 -2.39095 0
M  V30 4 C -1.87031 0.199564 -0.174145 0
M  V30 5 C -1.90628 -0.780828 0.7937 0
M  V30 6 C -3.08782 -1.41488 1.38975 0
M  V30 7 N -0.629276 -1.08609 1.12827 0
M  V30 8 N 0.212256 -0.349736 0.422326 0
M  V30 9 C -0.523233 0.446019 -0.382953 0
M  V30 10 N -0.0362298 1.39678 -1.30988 0
M  V30 11 C 1.6414 -0.352713 0.462109 0
M  V30 12 C 2.36572 0.114886 1.52744 0
M  V30 13 C 3.76423 0.078046 1.49075 0
M  V30 14 C 4.44514 -0.419659 0.403964 0
M  V30 15 C 3.72656 -0.888022 -0.662878 0
M  V30 16 C 2.36574 -0.850929 -0.624409 0
M  V30 17 H -3.9296 2.73542 -0.515101 0
M  V30 18 H -4.21877 1.53657 0.768964 0
M  V30 19 H -2.8733 -2.51587 1.51275 0
M  V30 20 H -3.9423 -1.3598 0.687661 0
M  V30 21 H -3.39836 -0.985395 2.34958 0
M  V30 22 H -0.514528 2.29683 -1.52354 0
M  V30 23 H 0.851598 1.19582 -1.81413 0
M  V30 24 H 1.84575 0.512861 2.39725 0
M  V30 25 H 4.35946 0.441395 2.3196 0
M  V30 26 H 5.5236 -0.465683 0.336423 0
M  V30 27 H 4.19272 -1.29409 -1.55246 0
M  V30 28 H 1.76362 -1.21878 -1.46352 0
M  V30 END ATOM
M  V30 BEGIN BOND
M  V30 1 1 1 2
M  V30 2 2 2 3
M  V30 3 1 2 4
M  V30 4 1 4 5
M  V30 5 1 5 6
M  V30 6 2 5 7
M  V30 7 1 7 8
M  V30 8 1 8 9
M  V30 9 1 9 10
M  V30 10 1 8 11
M  V30 11 2 11 12
M  V30 12 1 12 13
M  V30 13 2 13 14
M  V30 14 1 14 15
M  V30 15 2 15 16
M  V30 16 2 9 4
M  V30 17 1 16 11
M  V30 18 1 1 17
M  V30 19 1 1 18
M  V30 20 1 6 19
M  V30 21 1 6 20
M  V30 22 1 6 21
M  V30 23 1 10 22
M  V30 24 1 10 23
M  V30 25 1 12 24
M  V30 26 1 13 25
M  V30 27 1 14 26
M  V30 28 1 15 27
M  V30 29 1 16 28
M  V30 END BOND
M  V30 END CTAB
M  END
