
     RDKit          3D

  0  0  0  0  0  0  0  0  0  0999 V3000
M  V30 BEGIN CTAB
M  V30 COUNTS 59 61 0 0 0
M  V30 BEGIN ATOM
M  V30 1 N 0.98026 -5.30353 -4.00422 0
M  V30 2 C 0.379453 -4.30218 -3.17319 0
M  V30 3 N -0.90929 -4.37133 -2.80091 0
M  V30 4 C -1.49746 -3.43389 -2.01429 0
M  V30 5 N -2.84873 -3.53971 -1.6466 0
M  V30 6 C -0.754639 -2.34804 -1.56304 0
M  V30 7 C -1.42884 -1.34706 -0.737084 0
M  V30 8 C -2.32972 -0.436875 -1.59262 0
M  V30 9 C -3.03591 0.591431 -0.764688 0
M  V30 10 C -3.92963 -0.0317306 0.286801 0
M  V30 11 C -4.62994 0.992625 1.09941 0
M  V30 12 C -5.85447 1.45539 0.682304 0
M  V30 13 C -6.55506 2.41428 1.41104 0
M  V30 14 C -6.02775 2.92134 2.57476 0
M  V30 15 C -4.79065 2.45913 3.00337 0
M  V30 16 C -4.10093 1.50529 2.27258 0
M  V30 17 C 0.561814 -2.29825 -1.9556 0
M  V30 18 C 1.43061 -1.21482 -1.51119 0
M  V30 19 C 1.92662 -1.48236 -0.121659 0
M  V30 20 C 2.81838 -0.345979 0.318597 0
M  V30 21 C 2.29041 0.72921 0.973187 0
M  V30 22 C 3.0791 1.76918 1.37175 0
M  V30 23 C 4.45301 1.74266 1.10984 0
M  V30 24 N 5.20175 2.87362 1.5246 0
M  V30 25 C 6.55913 2.80242 1.84118 0
M  V30 26 O 7.2038 1.72037 1.78885 0
M  V30 27 C 7.27169 4.06032 2.25812 0
M  V30 28 Br 6.01657 5.51052 2.23692 0
M  V30 29 C 4.97819 0.669662 0.456326 0
M  V30 30 C 4.16615 -0.399821 0.0472721 0
M  V30 31 N 1.1022 -3.25799 -2.7416 0
M  V30 32 H 0.632662 -6.27136 -4.0981 0
M  V30 33 H 1.81903 -5.0283 -4.54316 0
M  V30 34 H -3.10528 -3.55326 -0.645995 0
M  V30 35 H -3.59638 -3.60469 -2.35742 0
M  V30 36 H -0.804391 -0.721951 -0.105344 0
M  V30 37 H -2.13583 -1.87111 -0.0455994 0
M  V30 38 H -3.0996 -1.01548 -2.13773 0
M  V30 39 H -1.66534 0.118183 -2.30524 0
M  V30 40 H -2.31617 1.28468 -0.296012 0
M  V30 41 H -3.69363 1.15648 -1.45574 0
M  V30 42 H -3.2814 -0.587885 1.02432 0
M  V30 43 H -4.66215 -0.719674 -0.178299 0
M  V30 44 H -6.28531 1.07275 -0.223924 0
M  V30 45 H -7.51877 2.76999 1.07118 0
M  V30 46 H -6.55622 3.66662 3.15651 0
M  V30 47 H -4.3941 2.87972 3.93356 0
M  V30 48 H -3.1414 1.15286 2.61305 0
M  V30 49 H 2.32719 -1.17809 -2.16559 0
M  V30 50 H 0.971363 -0.207263 -1.61454 0
M  V30 51 H 2.61586 -2.38025 -0.167913 0
M  V30 52 H 1.17386 -1.71104 0.629638 0
M  V30 53 H 1.21749 0.753349 1.18004 0
M  V30 54 H 2.67619 2.64418 1.90093 0
M  V30 55 H 4.66769 3.80504 1.5798 0
M  V30 56 H 7.63955 3.84842 3.29375 0
M  V30 57 H 8.15375 4.24587 1.59465 0
M  V30 58 H 6.03022 0.594834 0.205433 0
M  V30 59 H 4.60498 -1.24655 -0.472466 0
M  V30 END ATOM
M  V30 BEGIN BOND
M  V30 1 1 1 2
M  V30 2 2 2 3
M  V30 3 1 3 4
M  V30 4 1 4 5
M  V30 5 2 4 6
M  V30 6 1 6 7
M  V30 7 1 7 8
M  V30 8 1 8 9
M  V30 9 1 9 10
M  V30 10 1 10 11
M  V30 11 2 11 12
M  V30 12 1 12 13
M  V30 13 2 13 14
M  V30 14 1 14 15
M  V30 15 2 15 16
M  V30 16 1 6 17
M  V30 17 1 17 18
M  V30 18 1 18 19
M  V30 19 1 19 20
M  V30 20 2 20 21
M  V30 21 1 21 22
M  V30 22 2 22 23
M  V30 23 1 23 24
M  V30 24 1 24 25
M  V30 25 2 25 26
M  V30 26 1 25 27
M  V30 27 1 27 28
M  V30 28 1 23 29
M  V30 29 2 29 30
M  V30 30 2 17 31
M  V30 31 1 31 2
M  V30 32 1 16 11
M  V30 33 1 30 20
M  V30 34 1 1 32
M  V30 35 1 1 33
M  V30 36 1 5 34
M  V30 37 1 5 35
M  V30 38 1 7 36
M  V30 39 1 7 37
M  V30 40 1 8 38
M  V30 41 1 8 39
M  V30 42 1 9 40
M  V30 43 1 9 41
M  V30 44 1 10 42
M  V30 45 1 10 43
M  V30 46 1 12 44
M  V30 47 1 13 45
M  V30 48 1 14 46
M  V30 49 1 15 47
M  V30 50 1 16 48
M  V30 51 1 18 49
M  V30 52 1 18 50
M  V30 53 1 19 51
M  V30 54 1 19 52
M  V30 55 1 21 53
M  V30 56 1 22 54
M  V30 57 1 24 55
M  V30 58 1 27 56
M  V30 59 1 27 57
M  V30 60 1 29 58
M  V30 61 1 30 59
M  V30 END BOND
M  V30 END CTAB
M  END
