
     RDKit          3D

  0  0  0  0  0  0  0  0  0  0999 V3000
M  V30 BEGIN CTAB
M  V30 COUNTS 39 40 0 0 0
M  V30 BEGIN ATOM
M  V30 1 C -0.911968 3.34828 2.04995 0
M  V30 2 O -0.309658 2.17928 1.53549 0
M  V30 3 C -1.13472 1.09016 1.27496 0
M  V30 4 C -2.50723 1.13426 1.50761 0
M  V30 5 C -3.27322 0.0302127 1.23237 0
M  V30 6 O -4.6297 0.0151392 1.44115 0
M  V30 7 C -5.40126 1.06693 1.93988 0
M  V30 8 C -2.6496 -1.11574 0.722603 0
M  V30 9 C -1.2893 -1.13791 0.49976 0
M  V30 10 C -0.505473 -0.0384832 0.770471 0
M  V30 11 C 0.933625 -0.0556833 0.536562 0
M  V30 12 N 1.46966 -1.1298 0.0670351 0
M  V30 13 N 2.83541 -1.2575 -0.19493 0
M  V30 14 C 3.36204 -0.729384 -1.23951 0
M  V30 15 C 4.76691 -0.877565 -1.48166 0
M  V30 16 N 5.65336 -1.52605 -0.727308 0
M  V30 17 O 6.81325 -1.41476 -1.30923 0
M  V30 18 N 6.73909 -0.730478 -2.40221 0
M  V30 19 C 5.44663 -0.361288 -2.56005 0
M  V30 20 N 4.89419 0.410782 -3.63221 0
M  V30 21 N 2.48943 -0.0111793 -2.1129 0
M  V30 22 O -3.39663 -2.23087 0.440472 0
M  V30 23 C -2.76974 -3.38633 -0.072757 0
M  V30 24 H -0.229972 4.19807 2.10919 0
M  V30 25 H -1.38169 3.17216 3.04195 0
M  V30 26 H -1.74593 3.62817 1.36247 0
M  V30 27 H -2.93008 2.04735 1.9024 0
M  V30 28 H -6.28432 0.709092 2.5211 0
M  V30 29 H -5.83282 1.68964 1.11072 0
M  V30 30 H -4.79982 1.69573 2.62973 0
M  V30 31 H -0.825541 -2.0281 0.107504 0
M  V30 32 H 1.56206 0.773811 0.733932 0
M  V30 33 H 4.15237 -0.0222687 -4.22002 0
M  V30 34 H 5.18772 1.38078 -3.86279 0
M  V30 35 H 2.36105 1.02071 -2.02995 0
M  V30 36 H 1.94698 -0.504519 -2.87028 0
M  V30 37 H -3.52094 -4.17582 -0.289987 0
M  V30 38 H -1.94938 -3.76475 0.540769 0
M  V30 39 H -2.3348 -3.09208 -1.0723 0
M  V30 END ATOM
M  V30 BEGIN BOND
M  V30 1 1 1 2
M  V30 2 1 2 3
M  V30 3 2 3 4
M  V30 4 1 4 5
M  V30 5 1 5 6
M  V30 6 1 6 7
M  V30 7 2 5 8
M  V30 8 1 8 9
M  V30 9 2 9 10
M  V30 10 1 10 11
M  V30 11 2 11 12
M  V30 12 1 12 13
M  V30 13 2 13 14
M  V30 14 1 14 15
M  V30 15 2 15 16
M  V30 16 1 16 17
M  V30 17 1 17 18
M  V30 18 2 18 19
M  V30 19 1 19 20
M  V30 20 1 14 21
M  V30 21 1 8 22
M  V30 22 1 22 23
M  V30 23 1 10 3
M  V30 24 1 19 15
M  V30 25 1 1 24
M  V30 26 1 1 25
M  V30 27 1 1 26
M  V30 28 1 4 27
M  V30 29 1 7 28
M  V30 30 1 7 29
M  V30 31 1 7 30
M  V30 32 1 9 31
M  V30 33 1 11 32
M  V30 34 1 20 33
M  V30 35 1 20 34
M  V30 36 1 21 35
M  V30 37 1 21 36
M  V30 38 1 23 37
M  V30 39 1 23 38
M  V30 40 1 23 39
M  V30 END BOND
M  V30 END CTAB
M  END
