
     RDKit          3D

  0  0  0  0  0  0  0  0  0  0999 V3000
M  V30 BEGIN CTAB
M  V30 COUNTS 44 46 0 0 0
M  V30 BEGIN ATOM
M  V30 1 C -5.70996 2.68439 -0.250956 0
M  V30 2 C -5.31888 1.87628 0.940307 0
M  V30 3 C -3.82563 1.71431 0.929193 0
M  V30 4 S -3.25416 0.866052 -0.577585 0
M  V30 5 S -1.13624 0.681448 -0.503473 0
M  V30 6 C -0.713126 -0.858829 0.298718 0 CFG=1
M  V30 7 C -1.14633 -2.02665 -0.531226 0 CFG=2
M  V30 8 O -2.43613 -2.43981 -0.145183 0
M  V30 9 C -0.119582 -3.06762 -0.171221 0 CFG=1
M  V30 10 C 0.195689 -3.8982 -1.38742 0
M  V30 11 O 1.14962 -4.88018 -1.0361 0
M  V30 12 O 0.994729 -2.44979 0.303088 0
M  V30 13 C 0.755287 -1.09317 0.46111 0 CFG=1
M  V30 14 N 1.58386 -0.318998 -0.404271 0
M  V30 15 C 1.44587 -0.183127 -1.74617 0
M  V30 16 N 2.43524 0.633652 -2.18414 0
M  V30 17 C 3.18935 1.01497 -1.1618 0
M  V30 18 C 2.65794 0.419312 -0.0443888 0
M  V30 19 N 3.25897 0.659406 1.13375 0
M  V30 20 C 4.35329 1.45627 1.25162 0
M  V30 21 N 4.94192 1.67161 2.51887 0
M  V30 22 N 4.8433 2.02263 0.124592 0
M  V30 23 C 4.30529 1.83704 -1.09461 0
M  V30 24 N 4.83372 2.4395 -2.26728 0
M  V30 25 H -4.86094 2.85152 -0.900576 0
M  V30 26 H -6.10621 3.66795 0.0538912 0
M  V30 27 H -6.48089 2.15719 -0.800071 0
M  V30 28 H -5.56433 2.45457 1.86243 0
M  V30 29 H -5.85209 0.908432 0.989826 0
M  V30 30 H -3.47439 1.0876 1.79203 0
M  V30 31 H -3.28851 2.6681 0.986218 0
M  V30 32 H -1.23758 -0.931721 1.27884 0
M  V30 33 H -1.20105 -1.81193 -1.60848 0
M  V30 34 H -2.7162 -3.1861 -0.765998 0
M  V30 35 H -0.60752 -3.76007 0.564085 0
M  V30 36 H -0.698016 -4.41399 -1.76541 0
M  V30 37 H 0.653103 -3.2273 -2.15376 0
M  V30 38 H 2.0503 -4.5947 -1.28128 0
M  V30 39 H 1.00994 -0.849571 1.51921 0
M  V30 40 H 0.719328 -0.609897 -2.39719 0
M  V30 41 H 5.96056 1.54237 2.63457 0
M  V30 42 H 4.36299 1.95574 3.32412 0
M  V30 43 H 5.84948 2.4966 -2.42354 0
M  V30 44 H 4.19799 2.83473 -2.99125 0
M  V30 END ATOM
M  V30 BEGIN BOND
M  V30 1 1 1 2
M  V30 2 1 2 3
M  V30 3 1 3 4
M  V30 4 1 4 5
M  V30 5 1 5 6
M  V30 6 1 6 7
M  V30 7 1 7 8
M  V30 8 1 7 9
M  V30 9 1 9 10
M  V30 10 1 10 11
M  V30 11 1 9 12
M  V30 12 1 12 13
M  V30 13 1 13 14
M  V30 14 1 14 15
M  V30 15 2 15 16
M  V30 16 1 16 17
M  V30 17 2 17 18
M  V30 18 1 18 19
M  V30 19 2 19 20
M  V30 20 1 20 21
M  V30 21 1 20 22
M  V30 22 2 22 23
M  V30 23 1 23 24
M  V30 24 1 13 6
M  V30 25 1 18 14
M  V30 26 1 23 17
M  V30 27 1 1 25
M  V30 28 1 1 26
M  V30 29 1 1 27
M  V30 30 1 2 28
M  V30 31 1 2 29
M  V30 32 1 3 30
M  V30 33 1 3 31
M  V30 34 1 6 32 CFG=1
M  V30 35 1 7 33 CFG=3
M  V30 36 1 8 34
M  V30 37 1 9 35 CFG=1
M  V30 38 1 10 36
M  V30 39 1 10 37
M  V30 40 1 11 38
M  V30 41 1 13 39 CFG=1
M  V30 42 1 15 40
M  V30 43 1 21 41
M  V30 44 1 21 42
M  V30 45 1 24 43
M  V30 46 1 24 44
M  V30 END BOND
M  V30 END CTAB
M  END
