
     RDKit          3D

  0  0  0  0  0  0  0  0  0  0999 V3000
M  V30 BEGIN CTAB
M  V30 COUNTS 35 37 0 0 0
M  V30 BEGIN ATOM
M  V30 1 N 5.83435 2.54576 -0.872791 0
M  V30 2 N 4.51211 2.1432 -0.784985 0
M  V30 3 C 4.18598 0.932682 -0.145004 0
M  V30 4 O 5.05479 0.18359 0.361295 0
M  V30 5 C 2.78727 0.496686 -0.0464578 0
M  V30 6 O 1.74223 1.14943 -0.51729 0
M  V30 7 C 0.624036 0.487988 -0.264412 0
M  V30 8 C 0.933231 -0.687217 0.421348 0
M  V30 9 C 2.30702 -0.652671 0.543613 0
M  V30 10 N 3.05989 -1.67595 1.19053 0
M  V30 11 C -0.0247368 -1.56901 0.81334 0
M  V30 12 C 0.356568 -2.79708 1.53599 0
M  V30 13 C -1.35514 -1.25716 0.502792 0
M  V30 14 C -1.62425 -0.0911412 -0.173727 0
M  V30 15 N -0.646125 0.76707 -0.550517 0
M  V30 16 C -3.00385 0.231315 -0.495257 0
M  V30 17 C -3.251 1.40334 -1.17286 0
M  V30 18 C -4.52669 1.77539 -1.51129 0
M  V30 19 C -5.57982 0.950486 -1.16078 0
M  V30 20 C -5.31635 -0.217333 -0.483828 0
M  V30 21 C -4.02674 -0.593945 -0.141424 0
M  V30 22 H 5.91579 3.59227 -0.820442 0
M  V30 23 H 6.38849 2.11962 -0.11329 0
M  V30 24 H 3.76954 2.72982 -1.1879 0
M  V30 25 H 3.37562 -2.4754 0.590341 0
M  V30 26 H 3.28794 -1.63914 2.20251 0
M  V30 27 H 0.600218 -2.61425 2.60817 0
M  V30 28 H 1.12661 -3.39651 1.01454 0
M  V30 29 H -0.563633 -3.44864 1.55848 0
M  V30 30 H -2.10039 -1.97681 0.826467 0
M  V30 31 H -2.44739 2.07967 -1.46641 0
M  V30 32 H -4.75213 2.69885 -2.04836 0
M  V30 33 H -6.59694 1.21566 -1.4131 0
M  V30 34 H -6.13262 -0.878823 -0.199838 0
M  V30 35 H -3.91386 -1.53176 0.392032 0
M  V30 END ATOM
M  V30 BEGIN BOND
M  V30 1 1 1 2
M  V30 2 1 2 3
M  V30 3 2 3 4
M  V30 4 1 3 5
M  V30 5 1 5 6
M  V30 6 1 6 7
M  V30 7 2 7 8
M  V30 8 1 8 9
M  V30 9 1 9 10
M  V30 10 1 8 11
M  V30 11 1 11 12
M  V30 12 2 11 13
M  V30 13 1 13 14
M  V30 14 2 14 15
M  V30 15 1 14 16
M  V30 16 2 16 17
M  V30 17 1 17 18
M  V30 18 2 18 19
M  V30 19 1 19 20
M  V30 20 2 20 21
M  V30 21 2 9 5
M  V30 22 1 21 16
M  V30 23 1 15 7
M  V30 24 1 1 22
M  V30 25 1 1 23
M  V30 26 1 2 24
M  V30 27 1 10 25
M  V30 28 1 10 26
M  V30 29 1 12 27
M  V30 30 1 12 28
M  V30 31 1 12 29
M  V30 32 1 13 30
M  V30 33 1 17 31
M  V30 34 1 18 32
M  V30 35 1 19 33
M  V30 36 1 20 34
M  V30 37 1 21 35
M  V30 END BOND
M  V30 END CTAB
M  END
