
     RDKit          3D

  0  0  0  0  0  0  0  0  0  0999 V3000
M  V30 BEGIN CTAB
M  V30 COUNTS 22 22 0 0 0
M  V30 BEGIN ATOM
M  V30 1 N -3.17164 -0.544782 0.643725 0
M  V30 2 C -1.79352 -0.487748 0.963989 0
M  V30 3 C -0.955878 -0.097914 -0.298349 0
M  V30 4 C 0.445061 -0.0296354 0.0634001 0
M  V30 5 C 1.00469 1.01735 0.74635 0
M  V30 6 C 2.36723 1.07753 0.932458 0
M  V30 7 C 3.22874 0.0808839 0.443969 0
M  V30 8 C 2.67147 -0.993735 -0.254222 0
M  V30 9 C 1.29119 -1.01251 -0.424843 0
M  V30 10 F 0.78713 -2.12695 -1.1142 0
M  V30 11 F 4.53975 0.117554 0.628234 0
M  V30 12 N -1.50139 1.19115 -0.656821 0
M  V30 13 H -3.4662 -0.132493 -0.239115 0
M  V30 14 H -3.83426 -0.631132 1.38544 0
M  V30 15 H -1.43481 -1.57002 1.2627 0
M  V30 16 H -1.58871 0.131579 1.82686 0
M  V30 17 H -1.15189 -0.822337 -1.06248 0
M  V30 18 H 0.330979 1.78422 1.11091 0
M  V30 19 H 2.83379 1.89279 1.44634 0
M  V30 20 H 3.29845 -1.80417 -0.626379 0
M  V30 21 H -2.2554 1.16585 -1.32295 0
M  V30 22 H -1.64478 1.79452 0.183809 0
M  V30 END ATOM
M  V30 BEGIN BOND
M  V30 1 1 1 2
M  V30 2 1 2 3
M  V30 3 1 3 4
M  V30 4 2 4 5
M  V30 5 1 5 6
M  V30 6 2 6 7
M  V30 7 1 7 8
M  V30 8 2 8 9
M  V30 9 1 9 10
M  V30 10 1 7 11
M  V30 11 1 3 12
M  V30 12 1 9 4
M  V30 13 1 1 13
M  V30 14 1 1 14
M  V30 15 1 2 15
M  V30 16 1 2 16
M  V30 17 1 3 17
M  V30 18 1 5 18
M  V30 19 1 6 19
M  V30 20 1 8 20
M  V30 21 1 12 21
M  V30 22 1 12 22
M  V30 END BOND
M  V30 END CTAB
M  END
