
     RDKit          3D

  0  0  0  0  0  0  0  0  0  0999 V3000
M  V30 BEGIN CTAB
M  V30 COUNTS 25 26 0 0 0
M  V30 BEGIN ATOM
M  V30 1 N 3.64801 -0.745553 0.248573 0
M  V30 2 C 2.31811 -0.569069 -0.303058 0
M  V30 3 C 1.51231 0.321985 0.604542 0
M  V30 4 N 0.178475 0.558082 0.145144 0
M  V30 5 C -0.173192 1.57496 -0.662798 0
M  V30 6 N 0.711019 2.57304 -1.189 0
M  V30 7 N -1.4939 1.53861 -0.923292 0
M  V30 8 C -1.99535 0.474904 -0.266816 0
M  V30 9 C -0.955288 -0.124382 0.390087 0
M  V30 10 C -1.16107 -1.24884 1.15444 0
M  V30 11 C -2.43896 -1.74797 1.23619 0
M  V30 12 C -3.48738 -1.14186 0.572561 0
M  V30 13 C -3.28978 -0.0135772 -0.196314 0
M  V30 14 H 4.20456 0.131197 0.13986 0
M  V30 15 H 4.12464 -1.462 -0.351562 0
M  V30 16 H 2.42979 -0.179089 -1.31239 0
M  V30 17 H 1.83168 -1.57853 -0.26511 0
M  V30 18 H 2.03919 1.29649 0.664182 0
M  V30 19 H 1.49712 -0.0814359 1.63269 0
M  V30 20 H 0.635673 3.56437 -0.888089 0
M  V30 21 H 1.4205 2.22878 -1.88364 0
M  V30 22 H -0.312769 -1.68757 1.65419 0
M  V30 23 H -2.63497 -2.62102 1.82176 0
M  V30 24 H -4.49899 -1.54384 0.642216 0
M  V30 25 H -4.1094 0.482307 -0.730973 0
M  V30 END ATOM
M  V30 BEGIN BOND
M  V30 1 1 1 2
M  V30 2 1 2 3
M  V30 3 1 3 4
M  V30 4 1 4 5
M  V30 5 1 5 6
M  V30 6 2 5 7
M  V30 7 1 7 8
M  V30 8 2 8 9
M  V30 9 1 9 10
M  V30 10 2 10 11
M  V30 11 1 11 12
M  V30 12 2 12 13
M  V30 13 1 9 4
M  V30 14 1 13 8
M  V30 15 1 1 14
M  V30 16 1 1 15
M  V30 17 1 2 16
M  V30 18 1 2 17
M  V30 19 1 3 18
M  V30 20 1 3 19
M  V30 21 1 6 20
M  V30 22 1 6 21
M  V30 23 1 10 22
M  V30 24 1 11 23
M  V30 25 1 12 24
M  V30 26 1 13 25
M  V30 END BOND
M  V30 END CTAB
M  END
