
     RDKit          3D

  0  0  0  0  0  0  0  0  0  0999 V3000
M  V30 BEGIN CTAB
M  V30 COUNTS 30 30 0 0 0
M  V30 BEGIN ATOM
M  V30 1 C 3.19549 2.33324 -1.07108 0
M  V30 2 N 3.42871 1.03257 -0.480553 0
M  V30 3 C 2.34647 0.117136 -0.349262 0
M  V30 4 N 1.10674 0.377175 -0.739497 0
M  V30 5 C 0.0877071 -0.508823 -0.605942 0
M  V30 6 N 0.386951 -1.69501 -0.0476494 0
M  V30 7 C 1.63436 -2.02139 0.371744 0
M  V30 8 N 2.60819 -1.07895 0.20456 0
M  V30 9 N 1.91985 -3.27263 0.953787 0
M  V30 10 C -1.28805 -0.198006 -1.04816 0 CFG=2
M  V30 11 C -2.1985 0.112721 0.124064 0
M  V30 12 C -3.59383 0.424503 -0.372745 0
M  V30 13 C -1.69839 1.38376 0.817124 0
M  V30 14 N -1.89682 -1.29139 -1.78327 0
M  V30 15 H 3.17027 2.28154 -2.18426 0
M  V30 16 H 3.92481 3.08926 -0.787188 0
M  V30 17 H 2.1945 2.68167 -0.719521 0
M  V30 18 H 4.39511 0.80447 -0.16587 0
M  V30 19 H 2.16749 -4.07248 0.350789 0
M  V30 20 H 1.88353 -3.39622 1.97721 0
M  V30 21 H -1.28584 0.682324 -1.71429 0
M  V30 22 H -2.26306 -0.696515 0.854175 0
M  V30 23 H -3.58196 0.652888 -1.47743 0
M  V30 24 H -4.27406 -0.443305 -0.26651 0
M  V30 25 H -4.02161 1.32443 0.114276 0
M  V30 26 H -2.48794 1.67262 1.52668 0
M  V30 27 H -1.68717 2.18899 0.0325839 0
M  V30 28 H -0.715698 1.22776 1.25994 0
M  V30 29 H -2.23009 -1.98517 -1.08432 0
M  V30 30 H -1.22715 -1.72717 -2.45514 0
M  V30 END ATOM
M  V30 BEGIN BOND
M  V30 1 1 1 2
M  V30 2 1 2 3
M  V30 3 2 3 4
M  V30 4 1 4 5
M  V30 5 2 5 6
M  V30 6 1 6 7
M  V30 7 2 7 8
M  V30 8 1 7 9
M  V30 9 1 5 10
M  V30 10 1 10 11
M  V30 11 1 11 12
M  V30 12 1 11 13
M  V30 13 1 10 14
M  V30 14 1 8 3
M  V30 15 1 1 15
M  V30 16 1 1 16
M  V30 17 1 1 17
M  V30 18 1 2 18
M  V30 19 1 9 19
M  V30 20 1 9 20
M  V30 21 1 10 21 CFG=3
M  V30 22 1 11 22
M  V30 23 1 12 23
M  V30 24 1 12 24
M  V30 25 1 12 25
M  V30 26 1 13 26
M  V30 27 1 13 27
M  V30 28 1 13 28
M  V30 29 1 14 29
M  V30 30 1 14 30
M  V30 END BOND
M  V30 END CTAB
M  END
