
     RDKit          3D

  0  0  0  0  0  0  0  0  0  0999 V3000
M  V30 BEGIN CTAB
M  V30 COUNTS 22 23 0 0 0
M  V30 BEGIN ATOM
M  V30 1 N -4.55724 -0.178239 -0.116298 0
M  V30 2 C -3.12406 -0.13671 -0.106937 0
M  V30 3 C -2.36943 -1.29536 -0.0831576 0
M  V30 4 C -0.978865 -1.21489 -0.0747016 0
M  V30 5 C -0.361755 0.0112665 -0.0899527 0
M  V30 6 C -1.13715 1.14152 -0.113422 0
M  V30 7 C -2.51288 1.09975 -0.122392 0
M  V30 8 C 1.12031 0.11026 -0.0811199 0
M  V30 9 N 1.86073 1.20293 -0.0933713 0
M  V30 10 C 3.16059 1.09578 -0.082515 0
M  V30 11 C 3.69012 -0.168775 -0.0585856 0
M  V30 12 S 2.28395 -1.13844 -0.0529815 0
M  V30 13 N 5.08262 -0.540879 -0.042841 0
M  V30 14 H -5.07368 0.180224 -0.943934 0
M  V30 15 H -5.06886 -0.566482 0.704607 0
M  V30 16 H -2.85407 -2.2555 -0.071227 0
M  V30 17 H -0.359043 -2.10154 -0.0562149 0
M  V30 18 H -0.629764 2.09922 -0.125155 0
M  V30 19 H -3.11698 2.01967 -0.14131 0
M  V30 20 H 3.87542 1.96081 -0.091312 0
M  V30 21 H 5.31089 -1.45684 0.371442 0
M  V30 22 H 5.75913 0.132222 -0.44637 0
M  V30 END ATOM
M  V30 BEGIN BOND
M  V30 1 1 1 2
M  V30 2 2 2 3
M  V30 3 1 3 4
M  V30 4 2 4 5
M  V30 5 1 5 6
M  V30 6 2 6 7
M  V30 7 1 5 8
M  V30 8 2 8 9
M  V30 9 1 9 10
M  V30 10 2 10 11
M  V30 11 1 11 12
M  V30 12 1 11 13
M  V30 13 1 7 2
M  V30 14 1 12 8
M  V30 15 1 1 14
M  V30 16 1 1 15
M  V30 17 1 3 16
M  V30 18 1 4 17
M  V30 19 1 6 18
M  V30 20 1 7 19
M  V30 21 1 10 20
M  V30 22 1 13 21
M  V30 23 1 13 22
M  V30 END BOND
M  V30 END CTAB
M  END
