
     RDKit          3D

  0  0  0  0  0  0  0  0  0  0999 V3000
M  V30 BEGIN CTAB
M  V30 COUNTS 51 53 0 0 0
M  V30 BEGIN ATOM
M  V30 1 C -3.9515 -0.851268 1.69672 0
M  V30 2 C -4.54392 -0.243901 0.415961 0
M  V30 3 C -5.22885 -1.38088 -0.326845 0
M  V30 4 N -5.4771 0.783526 0.743356 0
M  V30 5 C -5.38274 2.02169 0.44198 0
M  V30 6 N -6.44098 2.87869 0.874843 0
M  V30 7 N -4.26597 2.5155 -0.294335 0
M  V30 8 C -3.36796 1.65248 -0.634524 0
M  V30 9 N -2.20296 2.06895 -1.38292 0
M  V30 10 N -3.43095 0.278675 -0.32396 0
M  V30 11 C -2.36291 -0.61686 -0.754813 0
M  V30 12 C -2.43871 -1.24539 -1.97958 0
M  V30 13 C -1.48076 -2.09229 -2.44513 0
M  V30 14 C -0.38009 -2.33155 -1.649 0
M  V30 15 C -0.276788 -1.70702 -0.400754 0
M  V30 16 C 0.925759 -2.01295 0.388439 0
M  V30 17 C 2.06321 -1.05524 0.0995489 0
M  V30 18 O 1.80588 -0.179741 -0.741858 0
M  V30 19 N 3.25822 -1.20362 0.754596 0
M  V30 20 C 4.41084 -0.411529 0.617587 0
M  V30 21 C 5.62702 -0.845575 1.1523 0
M  V30 22 C 6.74808 -0.0850094 1.04232 0
M  V30 23 C 6.76098 1.14031 0.409125 0
M  V30 24 C 5.58553 1.56891 -0.11213 0
M  V30 25 C 4.43523 0.802505 -0.00627884 0
M  V30 26 S 8.19141 2.12864 0.259157 0
M  V30 27 F 8.29176 3.16152 1.5985 0
M  V30 28 O 9.43787 1.3059 0.130951 0
M  V30 29 O 8.02675 2.98374 -0.971522 0
M  V30 30 C -1.27158 -0.85578 0.0314842 0
M  V30 31 H -3.24523 -0.144255 2.17788 0
M  V30 32 H -4.84033 -1.00523 2.37097 0
M  V30 33 H -3.51297 -1.82745 1.46638 0
M  V30 34 H -6.16989 -1.58695 0.224152 0
M  V30 35 H -5.49924 -1.04871 -1.34182 0
M  V30 36 H -4.63087 -2.30437 -0.308461 0
M  V30 37 H -6.68422 3.04288 1.85442 0
M  V30 38 H -6.98741 3.35743 0.126191 0
M  V30 39 H -1.31605 2.21441 -0.877041 0
M  V30 40 H -2.33674 2.19701 -2.39953 0
M  V30 41 H -3.32457 -1.04454 -2.60531 0
M  V30 42 H -1.55638 -2.57808 -3.41081 0
M  V30 43 H 0.39828 -3.00332 -1.99758 0
M  V30 44 H 1.31495 -3.01594 0.121317 0
M  V30 45 H 0.737232 -2.03053 1.48171 0
M  V30 46 H 3.33606 -2.00896 1.45466 0
M  V30 47 H 5.64545 -1.79693 1.6507 0
M  V30 48 H 7.71431 -0.406721 1.45514 0
M  V30 49 H 5.52805 2.53287 -0.627444 0
M  V30 50 H 3.53078 1.23257 -0.446809 0
M  V30 51 H -1.16594 -0.387972 0.998077 0
M  V30 END ATOM
M  V30 BEGIN BOND
M  V30 1 1 1 2
M  V30 2 1 2 3
M  V30 3 1 2 4
M  V30 4 2 4 5
M  V30 5 1 5 6
M  V30 6 1 5 7
M  V30 7 2 7 8
M  V30 8 1 8 9
M  V30 9 1 8 10
M  V30 10 1 10 11
M  V30 11 2 11 12
M  V30 12 1 12 13
M  V30 13 2 13 14
M  V30 14 1 14 15
M  V30 15 1 15 16
M  V30 16 1 16 17
M  V30 17 2 17 18
M  V30 18 1 17 19
M  V30 19 1 19 20
M  V30 20 2 20 21
M  V30 21 1 21 22
M  V30 22 2 22 23
M  V30 23 1 23 24
M  V30 24 2 24 25
M  V30 25 1 23 26
M  V30 26 1 26 27
M  V30 27 2 26 28
M  V30 28 2 26 29
M  V30 29 2 15 30
M  V30 30 1 10 2
M  V30 31 1 30 11
M  V30 32 1 25 20
M  V30 33 1 1 31
M  V30 34 1 1 32
M  V30 35 1 1 33
M  V30 36 1 3 34
M  V30 37 1 3 35
M  V30 38 1 3 36
M  V30 39 1 6 37
M  V30 40 1 6 38
M  V30 41 1 9 39
M  V30 42 1 9 40
M  V30 43 1 12 41
M  V30 44 1 13 42
M  V30 45 1 14 43
M  V30 46 1 16 44
M  V30 47 1 16 45
M  V30 48 1 19 46
M  V30 49 1 21 47
M  V30 50 1 22 48
M  V30 51 1 24 49
M  V30 52 1 25 50
M  V30 53 1 30 51
M  V30 END BOND
M  V30 END CTAB
M  END
