
     RDKit          3D

  0  0  0  0  0  0  0  0  0  0999 V3000
M  V30 BEGIN CTAB
M  V30 COUNTS 35 37 0 0 0
M  V30 BEGIN ATOM
M  V30 1 N 5.89416 2.02559 -1.05824 0
M  V30 2 N 4.62686 1.49297 -0.792766 0
M  V30 3 C 4.54395 0.197012 -0.238234 0
M  V30 4 O 5.62401 -0.421537 -0.00766833 0
M  V30 5 C 3.25119 -0.430593 0.0684691 0
M  V30 6 C 3.27779 -1.70296 0.609228 0
M  V30 7 C 2.09308 -2.32367 0.909844 0
M  V30 8 C 0.890416 -1.68148 0.673458 0
M  V30 9 C 0.829613 -0.413249 0.135505 0
M  V30 10 C 2.05185 0.19618 -0.161461 0
M  V30 11 N -0.327768 0.212809 -0.0943051 0
M  V30 12 C -1.50864 -0.370339 0.191196 0
M  V30 13 N -1.48582 -1.58495 0.706063 0
M  V30 14 C -0.316937 -2.26622 0.959587 0
M  V30 15 O -0.3057 -3.42111 1.45044 0
M  V30 16 N -2.62171 -2.31904 1.02075 0
M  V30 17 C -2.69116 0.395151 -0.122484 0
M  V30 18 C -2.52371 1.58433 -0.864499 0
M  V30 19 C -3.59867 2.36319 -1.16937 0
M  V30 20 C -4.87082 2.03831 -0.779032 0
M  V30 21 C -5.06011 0.897887 -0.0624779 0
M  V30 22 C -3.96288 0.0858272 0.259396 0
M  V30 23 Cl -6.68477 0.47386 0.441553 0
M  V30 24 Cl -6.19875 3.07643 -1.20199 0
M  V30 25 H 6.45624 1.94594 -0.172052 0
M  V30 26 H 5.84565 3.01035 -1.39115 0
M  V30 27 H 3.76303 2.0185 -0.990298 0
M  V30 28 H 4.24878 -2.18725 0.785521 0
M  V30 29 H 2.06979 -3.3184 1.33396 0
M  V30 30 H 2.00416 1.18892 -0.582554 0
M  V30 31 H -3.13956 -2.79825 0.267706 0
M  V30 32 H -2.94607 -2.39144 1.99774 0
M  V30 33 H -1.54966 1.91051 -1.2105 0
M  V30 34 H -3.45424 3.28381 -1.74684 0
M  V30 35 H -4.22359 -0.767092 0.835496 0
M  V30 END ATOM
M  V30 BEGIN BOND
M  V30 1 1 1 2
M  V30 2 1 2 3
M  V30 3 2 3 4
M  V30 4 1 3 5
M  V30 5 2 5 6
M  V30 6 1 6 7
M  V30 7 2 7 8
M  V30 8 1 8 9
M  V30 9 2 9 10
M  V30 10 1 9 11
M  V30 11 2 11 12
M  V30 12 1 12 13
M  V30 13 1 13 14
M  V30 14 2 14 15
M  V30 15 1 13 16
M  V30 16 1 12 17
M  V30 17 2 17 18
M  V30 18 1 18 19
M  V30 19 2 19 20
M  V30 20 1 20 21
M  V30 21 2 21 22
M  V30 22 1 21 23
M  V30 23 1 20 24
M  V30 24 1 10 5
M  V30 25 1 22 17
M  V30 26 1 14 8
M  V30 27 1 1 25
M  V30 28 1 1 26
M  V30 29 1 2 27
M  V30 30 1 6 28
M  V30 31 1 7 29
M  V30 32 1 10 30
M  V30 33 1 16 31
M  V30 34 1 16 32
M  V30 35 1 18 33
M  V30 36 1 19 34
M  V30 37 1 22 35
M  V30 END BOND
M  V30 END CTAB
M  END
