
     RDKit          3D

  0  0  0  0  0  0  0  0  0  0999 V3000
M  V30 BEGIN CTAB
M  V30 COUNTS 17 16 0 0 0
M  V30 BEGIN ATOM
M  V30 1 N -1.8412 -0.464714 0.0175988 0
M  V30 2 C -1.26284 0.621442 -0.671547 0
M  V30 3 N -2.02586 1.55928 -1.08943 0
M  V30 4 N -3.40175 1.53682 -0.883756 0
M  V30 5 S 0.48127 0.76345 -0.995757 0
M  V30 6 C 1.29112 -0.676236 -0.303631 0
M  V30 7 C 2.7821 -0.688983 -0.505892 0
M  V30 8 O 3.43107 0.380827 0.0576666 0
M  V30 9 H -1.42475 -1.43828 0.00569907 0
M  V30 10 H -2.71532 -0.369191 0.579915 0
M  V30 11 H -3.92121 2.43338 -0.907237 0
M  V30 12 H -3.91341 0.662316 -0.710511 0
M  V30 13 H 1.10287 -0.734738 0.797671 0
M  V30 14 H 0.90052 -1.57519 -0.836789 0
M  V30 15 H 3.16636 -1.61256 -0.0250967 0
M  V30 16 H 2.99937 -0.803564 -1.59831 0
M  V30 17 H 4.35167 0.405938 -0.330294 0
M  V30 END ATOM
M  V30 BEGIN BOND
M  V30 1 1 1 2
M  V30 2 2 2 3 CFG=2
M  V30 3 1 3 4
M  V30 4 1 2 5
M  V30 5 1 5 6
M  V30 6 1 6 7
M  V30 7 1 7 8
M  V30 8 1 1 9
M  V30 9 1 1 10
M  V30 10 1 4 11
M  V30 11 1 4 12
M  V30 12 1 6 13
M  V30 13 1 6 14
M  V30 14 1 7 15
M  V30 15 1 7 16
M  V30 16 1 8 17
M  V30 END BOND
M  V30 END CTAB
M  END
