
     RDKit          3D

  0  0  0  0  0  0  0  0  0  0999 V3000
M  V30 BEGIN CTAB
M  V30 COUNTS 31 33 0 0 0
M  V30 BEGIN ATOM
M  V30 1 N -0.153711 3.57954 0.714593 0
M  V30 2 C -0.739558 2.5804 0.707985 0
M  V30 3 C -1.49566 1.32431 0.72761 0
M  V30 4 C -2.77742 1.42628 1.02996 0
M  V30 5 N -3.45906 2.60808 1.3287 0
M  V30 6 S -3.75651 -0.11466 1.03525 0
M  V30 7 C -2.95712 -0.981356 -0.343385 0
M  V30 8 C -1.66529 -0.819916 -0.458843 0
M  V30 9 C -0.908896 0.0172957 0.484749 0
M  V30 10 C 0.530299 0.0468671 0.144636 0
M  V30 11 C 1.01083 0.869486 -0.831829 0
M  V30 12 C 2.38131 0.817858 -1.11342 0
M  V30 13 C 3.24927 -0.0193471 -0.45287 0
M  V30 14 C 2.7416 -0.846431 0.533744 0
M  V30 15 C 1.37281 -0.798199 0.819043 0
M  V30 16 Cl 0.819945 -1.88191 2.08431 0
M  V30 17 O 3.82453 -1.56379 1.01593 0
M  V30 18 C 4.91581 -1.46154 0.110186 0
M  V30 19 O 4.63462 -0.2475 -0.553867 0
M  V30 20 C -0.940031 -1.48576 -1.5536 0
M  V30 21 N -0.392035 -2.01401 -2.41507 0
M  V30 22 N -3.74198 -1.76212 -1.1965 0
M  V30 23 H -3.8129 2.77759 2.29552 0
M  V30 24 H -3.62651 3.3286 0.615485 0
M  V30 25 H -0.979593 -0.529524 1.48378 0
M  V30 26 H 0.412269 1.55128 -1.42016 0
M  V30 27 H 2.79082 1.45146 -1.87432 0
M  V30 28 H 5.82768 -1.34648 0.726202 0
M  V30 29 H 4.96779 -2.32077 -0.583768 0
M  V30 30 H -3.48311 -2.76281 -1.35704 0
M  V30 31 H -4.59022 -1.42293 -1.703 0
M  V30 END ATOM
M  V30 BEGIN BOND
M  V30 1 3 1 2
M  V30 2 1 2 3
M  V30 3 2 3 4
M  V30 4 1 4 5
M  V30 5 1 4 6
M  V30 6 1 6 7
M  V30 7 2 7 8
M  V30 8 1 8 9
M  V30 9 1 9 10
M  V30 10 2 10 11
M  V30 11 1 11 12
M  V30 12 2 12 13
M  V30 13 1 13 14
M  V30 14 2 14 15
M  V30 15 1 15 16
M  V30 16 1 14 17
M  V30 17 1 17 18
M  V30 18 1 18 19
M  V30 19 1 8 20
M  V30 20 3 20 21
M  V30 21 1 7 22
M  V30 22 1 9 3
M  V30 23 1 15 10
M  V30 24 1 19 13
M  V30 25 1 5 23
M  V30 26 1 5 24
M  V30 27 1 9 25
M  V30 28 1 11 26
M  V30 29 1 12 27
M  V30 30 1 18 28
M  V30 31 1 18 29
M  V30 32 1 22 30
M  V30 33 1 22 31
M  V30 END BOND
M  V30 END CTAB
M  END
