
     RDKit          3D

  0  0  0  0  0  0  0  0  0  0999 V3000
M  V30 BEGIN CTAB
M  V30 COUNTS 26 25 0 0 0
M  V30 BEGIN ATOM
M  V30 1 C -1.01724 -1.37999 -1.45292 0
M  V30 2 N -0.576874 -0.460079 -0.426442 0
M  V30 3 C -1.31619 -0.56713 0.78461 0
M  V30 4 C -2.74345 -0.0959679 0.580841 0
M  V30 5 N -2.77368 1.29816 0.149142 0
M  V30 6 C 0.827809 -0.34139 -0.332376 0
M  V30 7 C 1.34385 0.587515 0.706924 0
M  V30 8 C 2.86475 0.636392 0.696477 0
M  V30 9 N 3.30148 1.09117 -0.596901 0
M  V30 10 H -0.140461 -2.00401 -1.74173 0
M  V30 11 H -1.83825 -2.03918 -1.1238 0
M  V30 12 H -1.28114 -0.778076 -2.34901 0
M  V30 13 H -0.887051 0.134218 1.53299 0
M  V30 14 H -1.37742 -1.6073 1.17869 0
M  V30 15 H -3.23768 -0.123702 1.57538 0
M  V30 16 H -3.30997 -0.734715 -0.096795 0
M  V30 17 H -3.73694 1.65362 0.376129 0
M  V30 18 H -2.61009 1.40261 -0.860186 0
M  V30 19 H 1.20101 0.000911452 -1.34146 0
M  V30 20 H 1.27344 -1.3416 -0.156054 0
M  V30 21 H 1.08964 0.201883 1.7204 0
M  V30 22 H 0.990642 1.60969 0.512797 0
M  V30 23 H 3.1396 1.42538 1.4379 0
M  V30 24 H 3.30217 -0.30302 1.02933 0
M  V30 25 H 4.30435 1.42598 -0.531477 0
M  V30 26 H 3.20768 0.30862 -1.27246 0
M  V30 END ATOM
M  V30 BEGIN BOND
M  V30 1 1 1 2
M  V30 2 1 2 3
M  V30 3 1 3 4
M  V30 4 1 4 5
M  V30 5 1 2 6
M  V30 6 1 6 7
M  V30 7 1 7 8
M  V30 8 1 8 9
M  V30 9 1 1 10
M  V30 10 1 1 11
M  V30 11 1 1 12
M  V30 12 1 3 13
M  V30 13 1 3 14
M  V30 14 1 4 15
M  V30 15 1 4 16
M  V30 16 1 5 17
M  V30 17 1 5 18
M  V30 18 1 6 19
M  V30 19 1 6 20
M  V30 20 1 7 21
M  V30 21 1 7 22
M  V30 22 1 8 23
M  V30 23 1 8 24
M  V30 24 1 9 25
M  V30 25 1 9 26
M  V30 END BOND
M  V30 END CTAB
M  END
