
     RDKit          3D

  0  0  0  0  0  0  0  0  0  0999 V3000
M  V30 BEGIN CTAB
M  V30 COUNTS 22 22 0 0 0
M  V30 BEGIN ATOM
M  V30 1 C 3.66614 -0.236289 -0.132724 0
M  V30 2 C 2.20011 -0.147026 -0.124429 0
M  V30 3 C 1.55865 0.267167 1.01276 0
M  V30 4 C 0.176818 0.349136 1.01415 0
M  V30 5 C -0.551799 0.0184521 -0.114878 0
M  V30 6 C 0.0864581 -0.398665 -1.26148 0
M  V30 7 C 1.48535 -0.475994 -1.24583 0
M  V30 8 P -2.33706 0.116589 -0.136559 0
M  V30 9 N -3.10524 -1.27307 0.487693 0
M  V30 10 N -2.80236 1.50808 0.811973 0
M  V30 11 O -2.82646 0.375841 -1.55836 0
M  V30 12 H 4.06906 0.466313 0.604019 0
M  V30 13 H 4.02027 0.0571845 -1.14517 0
M  V30 14 H 3.95149 -1.28152 0.122764 0
M  V30 15 H 2.12407 0.525136 1.893 0
M  V30 16 H -0.392637 0.667222 1.87374 0
M  V30 17 H -0.445083 -0.669483 -2.17456 0
M  V30 18 H 1.9908 -0.797216 -2.12643 0
M  V30 19 H -3.21291 -2.07249 -0.131376 0
M  V30 20 H -3.79082 -1.14224 1.22848 0
M  V30 21 H -3.74542 1.86559 0.576293 0
M  V30 22 H -2.11944 2.27729 0.555221 0
M  V30 END ATOM
M  V30 BEGIN BOND
M  V30 1 1 1 2
M  V30 2 2 2 3
M  V30 3 1 3 4
M  V30 4 2 4 5
M  V30 5 1 5 6
M  V30 6 2 6 7
M  V30 7 1 5 8
M  V30 8 1 8 9
M  V30 9 1 8 10
M  V30 10 2 8 11
M  V30 11 1 7 2
M  V30 12 1 1 12
M  V30 13 1 1 13
M  V30 14 1 1 14
M  V30 15 1 3 15
M  V30 16 1 4 16
M  V30 17 1 6 17
M  V30 18 1 7 18
M  V30 19 1 9 19
M  V30 20 1 9 20
M  V30 21 1 10 21
M  V30 22 1 10 22
M  V30 END BOND
M  V30 END CTAB
M  END
