
     RDKit          3D

  0  0  0  0  0  0  0  0  0  0999 V3000
M  V30 BEGIN CTAB
M  V30 COUNTS 27 28 0 0 0
M  V30 BEGIN ATOM
M  V30 1 C -4.45123 1.10705 -1.4592 0
M  V30 2 C -3.24174 0.497851 -0.791499 0
M  V30 3 N -2.13267 0.0727535 -1.36554 0
M  V30 4 N -1.26257 -0.413888 -0.455354 0
M  V30 5 C -1.87397 -0.27681 0.722561 0
M  V30 6 C -3.13902 0.299922 0.563015 0
M  V30 7 N -1.35992 -0.654175 2.00513 0
M  V30 8 C 0.0191999 -0.9508 -0.777647 0
M  V30 9 O 0.333198 -0.974078 -2.019 0
M  V30 10 C 1.00319 -1.47251 0.148794 0
M  V30 11 N 2.0223 -0.466896 0.476301 0
M  V30 12 N 2.07796 0.4258 1.42048 0
M  V30 13 N 3.18816 1.14321 1.35491 0
M  V30 14 C 3.91156 0.711557 0.31784 0
M  V30 15 C 3.1551 -0.3162 -0.23347 0
M  V30 16 N 5.17097 1.1418 -0.180402 0
M  V30 17 H -4.15795 1.42457 -2.50259 0
M  V30 18 H -5.17205 0.285401 -1.58528 0
M  V30 19 H -4.81554 1.96617 -0.893594 0
M  V30 20 H -3.84036 0.520445 1.35651 0
M  V30 21 H -0.836163 0.0181874 2.60011 0
M  V30 22 H -1.49946 -1.62227 2.37767 0
M  V30 23 H 1.53919 -2.31395 -0.37023 0
M  V30 24 H 0.642529 -1.84628 1.10811 0
M  V30 25 H 3.41437 -0.909925 -1.09047 0
M  V30 26 H 5.27574 1.71006 -1.04981 0
M  V30 27 H 6.02916 0.893007 0.322647 0
M  V30 END ATOM
M  V30 BEGIN BOND
M  V30 1 1 1 2
M  V30 2 2 2 3
M  V30 3 1 3 4
M  V30 4 1 4 5
M  V30 5 2 5 6
M  V30 6 1 5 7
M  V30 7 1 4 8
M  V30 8 2 8 9
M  V30 9 1 8 10
M  V30 10 1 10 11
M  V30 11 1 11 12
M  V30 12 2 12 13
M  V30 13 1 13 14
M  V30 14 2 14 15
M  V30 15 1 14 16
M  V30 16 1 6 2
M  V30 17 1 15 11
M  V30 18 1 1 17
M  V30 19 1 1 18
M  V30 20 1 1 19
M  V30 21 1 6 20
M  V30 22 1 7 21
M  V30 23 1 7 22
M  V30 24 1 10 23
M  V30 25 1 10 24
M  V30 26 1 15 25
M  V30 27 1 16 26
M  V30 28 1 16 27
M  V30 END BOND
M  V30 END CTAB
M  END
