
     RDKit          3D

  0  0  0  0  0  0  0  0  0  0999 V3000
M  V30 BEGIN CTAB
M  V30 COUNTS 21 22 0 0 0
M  V30 BEGIN ATOM
M  V30 1 Br 4.21784 1.6581 0.0328662 0
M  V30 2 C 2.74986 0.438806 0.138225 0
M  V30 3 C 2.97548 -0.895287 0.399881 0
M  V30 4 C 1.89784 -1.75215 0.470177 0
M  V30 5 C 0.622016 -1.23322 0.273395 0
M  V30 6 C 0.393956 0.102067 0.0113293 0
M  V30 7 C 1.49373 0.947078 -0.0550295 0
M  V30 8 C -0.867183 0.634797 -0.186799 0
M  V30 9 N -1.07447 2.01602 -0.45559 0
M  V30 10 C -1.94301 -0.233578 -0.114259 0
M  V30 11 C -1.69394 -1.56323 0.148461 0
M  V30 12 N -0.459258 -2.05773 0.337493 0
M  V30 13 N -3.27792 0.268991 -0.312786 0
M  V30 14 H 3.99804 -1.26127 0.54849 0
M  V30 15 H 2.02466 -2.81037 0.673562 0
M  V30 16 H 1.28824 1.99101 -0.262077 0
M  V30 17 H -0.551369 2.55466 -1.16385 0
M  V30 18 H -1.80048 2.5328 0.0917467 0
M  V30 19 H -2.53139 -2.24072 0.205223 0
M  V30 20 H -4.08512 -0.170918 0.191495 0
M  V30 21 H -3.37753 1.07416 -0.971957 0
M  V30 END ATOM
M  V30 BEGIN BOND
M  V30 1 1 1 2
M  V30 2 2 2 3
M  V30 3 1 3 4
M  V30 4 2 4 5
M  V30 5 1 5 6
M  V30 6 2 6 7
M  V30 7 1 6 8
M  V30 8 1 8 9
M  V30 9 2 8 10
M  V30 10 1 10 11
M  V30 11 2 11 12
M  V30 12 1 10 13
M  V30 13 1 7 2
M  V30 14 1 12 5
M  V30 15 1 3 14
M  V30 16 1 4 15
M  V30 17 1 7 16
M  V30 18 1 9 17
M  V30 19 1 9 18
M  V30 20 1 11 19
M  V30 21 1 13 20
M  V30 22 1 13 21
M  V30 END BOND
M  V30 END CTAB
M  END
