
     RDKit          3D

  0  0  0  0  0  0  0  0  0  0999 V3000
M  V30 BEGIN CTAB
M  V30 COUNTS 32 32 0 0 0
M  V30 BEGIN ATOM
M  V30 1 C 4.77134 1.23757 1.1919 0
M  V30 2 C 3.66594 1.95436 0.444528 0
M  V30 3 O 2.9478 0.992139 -0.292022 0
M  V30 4 C 2.23253 -0.0511682 0.245628 0
M  V30 5 O 2.18916 -0.18389 1.48784 0
M  V30 6 C 1.49592 -1.04102 -0.591539 0
M  V30 7 C 0.0277605 -0.875356 -0.453399 0
M  V30 8 C -0.570541 0.0516233 0.319063 0
M  V30 9 C -1.97638 0.187805 0.403039 0
M  V30 10 O -2.48585 1.13575 1.19397 0
M  V30 11 C -3.69241 1.59224 1.59368 0
M  V30 12 F -3.91004 2.83311 0.93196 0
M  V30 13 F -3.7389 1.93709 2.95839 0
M  V30 14 C -2.75479 -0.665129 -0.338096 0
M  V30 15 C -2.14746 -1.62857 -1.14036 0
M  V30 16 C -0.770704 -1.71553 -1.18194 0
M  V30 17 N -0.192272 -2.7264 -2.01477 0
M  V30 18 N -4.18684 -0.5902 -0.359263 0
M  V30 19 H 4.58383 0.174858 1.36829 0
M  V30 20 H 5.01288 1.72365 2.15983 0
M  V30 21 H 5.67611 1.27049 0.50906 0
M  V30 22 H 2.99214 2.42238 1.21546 0
M  V30 23 H 4.08969 2.74565 -0.207956 0
M  V30 24 H 1.75525 -0.986987 -1.66504 0
M  V30 25 H 1.73903 -2.10175 -0.276635 0
M  V30 26 H 0.0165774 0.736697 0.910035 0
M  V30 27 H -4.59704 1.02805 1.39227 0
M  V30 28 H -2.79006 -2.28937 -1.71727 0
M  V30 29 H 0.198049 -2.40443 -2.92382 0
M  V30 30 H -0.156261 -3.71526 -1.74042 0
M  V30 31 H -4.59901 0.219112 -0.876043 0
M  V30 32 H -4.82544 -1.2675 0.0915657 0
M  V30 END ATOM
M  V30 BEGIN BOND
M  V30 1 1 1 2
M  V30 2 1 2 3
M  V30 3 1 3 4
M  V30 4 2 4 5
M  V30 5 1 4 6
M  V30 6 1 6 7
M  V30 7 2 7 8
M  V30 8 1 8 9
M  V30 9 1 9 10
M  V30 10 1 10 11
M  V30 11 1 11 12
M  V30 12 1 11 13
M  V30 13 2 9 14
M  V30 14 1 14 15
M  V30 15 2 15 16
M  V30 16 1 16 17
M  V30 17 1 14 18
M  V30 18 1 16 7
M  V30 19 1 1 19
M  V30 20 1 1 20
M  V30 21 1 1 21
M  V30 22 1 2 22
M  V30 23 1 2 23
M  V30 24 1 6 24
M  V30 25 1 6 25
M  V30 26 1 8 26
M  V30 27 1 11 27
M  V30 28 1 15 28
M  V30 29 1 17 29
M  V30 30 1 17 30
M  V30 31 1 18 31
M  V30 32 1 18 32
M  V30 END BOND
M  V30 END CTAB
M  END
