
     RDKit          3D

  0  0  0  0  0  0  0  0  0  0999 V3000
M  V30 BEGIN CTAB
M  V30 COUNTS 29 31 0 0 0
M  V30 BEGIN ATOM
M  V30 1 N 5.01461 0.879165 -0.630134 0
M  V30 2 C 3.59594 0.652801 -0.440778 0
M  V30 3 N 2.72521 1.65979 -0.505315 0
M  V30 4 C 1.39344 1.45379 -0.328069 0
M  V30 5 N 0.546819 2.48295 -0.41173 0
M  V30 6 C -0.761567 2.35216 -0.261506 0
M  V30 7 C -1.30178 1.07426 0.000291741 0
M  V30 8 C -2.79001 1.0563 0.117267 0
M  V30 9 C -3.19737 -0.379989 -0.211894 0
M  V30 10 C -2.46491 -1.28739 0.753 0
M  V30 11 C -0.987605 -1.39006 0.404171 0
M  V30 12 C -0.505339 -0.0396242 0.104646 0
M  V30 13 C 0.880184 0.195791 -0.0729931 0
M  V30 14 C 1.78816 -0.818176 -0.0127196 0
M  V30 15 N 1.42378 -2.15939 0.209558 0
M  V30 16 N 3.14126 -0.568664 -0.198878 0
M  V30 17 H 5.36885 1.25023 -1.5339 0
M  V30 18 H 5.70066 0.675289 0.131529 0
M  V30 19 H -1.42938 3.21733 -0.33687 0
M  V30 20 H -3.28554 1.70645 -0.616809 0
M  V30 21 H -3.09125 1.34722 1.12057 0
M  V30 22 H -2.96914 -0.645418 -1.24676 0
M  V30 23 H -4.26051 -0.469677 -0.0205587 0
M  V30 24 H -2.51007 -0.75077 1.74451 0
M  V30 25 H -2.97021 -2.25083 0.764054 0
M  V30 26 H -1.02627 -2.0794 -0.456573 0
M  V30 27 H -0.625219 -1.82833 1.36489 0
M  V30 28 H 1.4832 -2.57605 1.15035 0
M  V30 29 H 1.11404 -2.75976 -0.579345 0
M  V30 END ATOM
M  V30 BEGIN BOND
M  V30 1 1 1 2
M  V30 2 2 2 3
M  V30 3 1 3 4
M  V30 4 2 4 5
M  V30 5 1 5 6
M  V30 6 2 6 7
M  V30 7 1 7 8
M  V30 8 1 8 9
M  V30 9 1 9 10
M  V30 10 1 10 11
M  V30 11 1 11 12
M  V30 12 2 12 13
M  V30 13 1 13 14
M  V30 14 1 14 15
M  V30 15 2 14 16
M  V30 16 1 16 2
M  V30 17 1 13 4
M  V30 18 1 12 7
M  V30 19 1 1 17
M  V30 20 1 1 18
M  V30 21 1 6 19
M  V30 22 1 8 20
M  V30 23 1 8 21
M  V30 24 1 9 22
M  V30 25 1 9 23
M  V30 26 1 10 24
M  V30 27 1 10 25
M  V30 28 1 11 26
M  V30 29 1 11 27
M  V30 30 1 15 28
M  V30 31 1 15 29
M  V30 END BOND
M  V30 END CTAB
M  END
