
     RDKit          3D

  0  0  0  0  0  0  0  0  0  0999 V3000
M  V30 BEGIN CTAB
M  V30 COUNTS 41 42 0 0 0
M  V30 BEGIN ATOM
M  V30 1 C -6.09849 0.245314 2.05236 0
M  V30 2 C -5.40977 -0.232826 0.791757 0
M  V30 3 C -3.99114 0.222591 0.83369 0
M  V30 4 O -3.24174 -0.161108 -0.287733 0
M  V30 5 C -1.90627 0.203227 -0.366304 0
M  V30 6 C -1.1051 -0.138627 -1.43995 0
M  V30 7 O -1.72145 -0.87882 -2.4515 0
M  V30 8 C -1.0756 -1.313 -3.60745 0
M  V30 9 C 0.223852 0.228578 -1.50962 0
M  V30 10 C 0.819581 0.959737 -0.503086 0
M  V30 11 C 2.25462 1.36584 -0.560579 0
M  V30 12 C 3.14265 0.376847 0.0416623 0
M  V30 13 C 2.62638 -0.777495 0.581523 0
M  V30 14 N 3.4678 -1.68885 1.13898 0
M  V30 15 C 4.78793 -1.49998 1.18047 0
M  V30 16 N 5.65984 -2.46475 1.76866 0
M  V30 17 N 5.30133 -0.360382 0.647896 0
M  V30 18 C 4.50207 0.577762 0.0810856 0
M  V30 19 N 5.12784 1.73724 -0.449946 0
M  V30 20 C 0.0200494 1.30044 0.567531 0
M  V30 21 C -1.30816 0.934972 0.639963 0
M  V30 22 H -6.48655 -0.600461 2.66565 0
M  V30 23 H -5.39703 0.797342 2.71916 0
M  V30 24 H -6.92054 0.960476 1.82382 0
M  V30 25 H -5.45771 -1.34303 0.801404 0
M  V30 26 H -5.97228 0.141216 -0.0733782 0
M  V30 27 H -3.96863 1.33755 0.898363 0
M  V30 28 H -3.52545 -0.180805 1.75906 0
M  V30 29 H -0.519511 -0.53464 -4.14243 0
M  V30 30 H -0.457215 -2.20813 -3.39214 0
M  V30 31 H -1.87888 -1.6642 -4.31697 0
M  V30 32 H 0.826313 -0.0563106 -2.36794 0
M  V30 33 H 2.4888 1.57099 -1.62348 0
M  V30 34 H 2.34146 2.36345 -0.042997 0
M  V30 35 H 1.56765 -1.01922 0.59469 0
M  V30 36 H 6.32436 -2.22489 2.5262 0
M  V30 37 H 5.6116 -3.44514 1.40826 0
M  V30 38 H 5.86522 2.23154 0.123965 0
M  V30 39 H 4.91468 2.14358 -1.37144 0
M  V30 40 H 0.493345 1.87803 1.36113 0
M  V30 41 H -1.92585 1.21596 1.49966 0
M  V30 END ATOM
M  V30 BEGIN BOND
M  V30 1 1 1 2
M  V30 2 1 2 3
M  V30 3 1 3 4
M  V30 4 1 4 5
M  V30 5 2 5 6
M  V30 6 1 6 7
M  V30 7 1 7 8
M  V30 8 1 6 9
M  V30 9 2 9 10
M  V30 10 1 10 11
M  V30 11 1 11 12
M  V30 12 2 12 13
M  V30 13 1 13 14
M  V30 14 2 14 15
M  V30 15 1 15 16
M  V30 16 1 15 17
M  V30 17 2 17 18
M  V30 18 1 18 19
M  V30 19 1 10 20
M  V30 20 2 20 21
M  V30 21 1 21 5
M  V30 22 1 18 12
M  V30 23 1 1 22
M  V30 24 1 1 23
M  V30 25 1 1 24
M  V30 26 1 2 25
M  V30 27 1 2 26
M  V30 28 1 3 27
M  V30 29 1 3 28
M  V30 30 1 8 29
M  V30 31 1 8 30
M  V30 32 1 8 31
M  V30 33 1 9 32
M  V30 34 1 11 33
M  V30 35 1 11 34
M  V30 36 1 13 35
M  V30 37 1 16 36
M  V30 38 1 16 37
M  V30 39 1 19 38
M  V30 40 1 19 39
M  V30 41 1 20 40
M  V30 42 1 21 41
M  V30 END BOND
M  V30 END CTAB
M  END
