
     RDKit          3D

  0  0  0  0  0  0  0  0  0  0999 V3000
M  V30 BEGIN CTAB
M  V30 COUNTS 38 39 0 0 0
M  V30 BEGIN ATOM
M  V30 1 N 7.49724 -0.582201 -0.529083 0
M  V30 2 C 6.14209 -0.250337 -0.255295 0
M  V30 3 C 5.45711 -0.90951 0.769794 0
M  V30 4 C 4.13421 -0.589253 1.04106 0
M  V30 5 C 3.45819 0.367876 0.328851 0
M  V30 6 C 4.14774 1.01681 -0.687381 0
M  V30 7 C 5.46777 0.712492 -0.974399 0
M  V30 8 S 1.78555 0.743788 0.702937 0
M  V30 9 O 1.48964 0.499749 2.14977 0
M  V30 10 O 1.48272 2.1914 0.35475 0
M  V30 11 C 0.71001 -0.29331 -0.256313 0
M  V30 12 C -0.720904 0.07778 0.110209 0
M  V30 13 S -1.8841 -0.911302 -0.802817 0
M  V30 14 O -1.7528 -0.679229 -2.27505 0
M  V30 15 O -1.68126 -2.37004 -0.552552 0
M  V30 16 C -3.49136 -0.429131 -0.329866 0
M  V30 17 C -4.15455 -1.0193 0.712888 0
M  V30 18 C -5.42665 -0.608388 1.05576 0
M  V30 19 C -6.08812 0.399078 0.381431 0
M  V30 20 N -7.39782 0.822958 0.733564 0
M  V30 21 C -5.39393 0.981947 -0.672587 0
M  V30 22 C -4.12221 0.580395 -1.02529 0
M  V30 23 H 8.19198 -0.81688 0.230204 0
M  V30 24 H 7.8105 -0.592255 -1.52154 0
M  V30 25 H 5.95911 -1.66439 1.34599 0
M  V30 26 H 3.60671 -1.11428 1.84915 0
M  V30 27 H 3.5947 1.76768 -1.23556 0
M  V30 28 H 5.99658 1.23885 -1.78451 0
M  V30 29 H 0.907548 -1.34284 0.061853 0
M  V30 30 H 0.851835 -0.162994 -1.34475 0
M  V30 31 H -0.818299 -0.105442 1.19616 0
M  V30 32 H -0.857564 1.13045 -0.172584 0
M  V30 33 H -3.6667 -1.81405 1.26579 0
M  V30 34 H -5.91265 -1.09899 1.88231 0
M  V30 35 H -8.12724 0.844807 0.00652989 0
M  V30 36 H -7.6666 1.11687 1.69752 0
M  V30 37 H -5.9002 1.77783 -1.21534 0
M  V30 38 H -3.62828 1.08336 -1.86999 0
M  V30 END ATOM
M  V30 BEGIN BOND
M  V30 1 1 1 2
M  V30 2 2 2 3
M  V30 3 1 3 4
M  V30 4 2 4 5
M  V30 5 1 5 6
M  V30 6 2 6 7
M  V30 7 1 5 8
M  V30 8 2 8 9
M  V30 9 2 8 10
M  V30 10 1 8 11
M  V30 11 1 11 12
M  V30 12 1 12 13
M  V30 13 2 13 14
M  V30 14 2 13 15
M  V30 15 1 13 16
M  V30 16 2 16 17
M  V30 17 1 17 18
M  V30 18 2 18 19
M  V30 19 1 19 20
M  V30 20 1 19 21
M  V30 21 2 21 22
M  V30 22 1 7 2
M  V30 23 1 22 16
M  V30 24 1 1 23
M  V30 25 1 1 24
M  V30 26 1 3 25
M  V30 27 1 4 26
M  V30 28 1 6 27
M  V30 29 1 7 28
M  V30 30 1 11 29
M  V30 31 1 11 30
M  V30 32 1 12 31
M  V30 33 1 12 32
M  V30 34 1 17 33
M  V30 35 1 18 34
M  V30 36 1 20 35
M  V30 37 1 20 36
M  V30 38 1 21 37
M  V30 39 1 22 38
M  V30 END BOND
M  V30 END CTAB
M  END
