
     RDKit          3D

  0  0  0  0  0  0  0  0  0  0999 V3000
M  V30 BEGIN CTAB
M  V30 COUNTS 25 26 0 0 0
M  V30 BEGIN ATOM
M  V30 1 C -0.896695 -1.10358 -1.57323 0
M  V30 2 C -0.882606 -0.174484 -0.395046 0
M  V30 3 C -2.01353 0.8338 -0.474188 0
M  V30 4 C -2.8022 0.0768258 0.574841 0
M  V30 5 C -1.54982 -0.718053 0.855455 0
M  V30 6 F -3.83908 -0.633331 -0.0355065 0
M  V30 7 F -3.27111 0.836399 1.62795 0
M  V30 8 C 0.408855 0.505738 -0.158063 0
M  V30 9 N 0.564262 1.8174 -0.451484 0
M  V30 10 N 1.78022 2.17869 -0.147509 0
M  V30 11 C 2.44581 1.12608 0.332188 0
M  V30 12 N 1.56584 0.0723759 0.323022 0
M  V30 13 N 1.83958 -1.20327 0.828246 0
M  V30 14 N 3.79836 1.02455 0.7602 0
M  V30 15 H -1.94022 -1.06666 -2.02263 0
M  V30 16 H -0.182271 -0.711127 -2.32068 0
M  V30 17 H -0.600449 -2.1286 -1.28275 0
M  V30 18 H -2.46495 0.908828 -1.4446 0
M  V30 19 H -1.72298 1.81758 -0.0253277 0
M  V30 20 H -1.75555 -1.78371 0.820006 0
M  V30 21 H -1.04154 -0.410585 1.80379 0
M  V30 22 H 1.47066 -1.50855 1.78664 0
M  V30 23 H 2.39755 -1.89492 0.308849 0
M  V30 24 H 4.34187 0.185358 0.981721 0
M  V30 25 H 4.35 1.95325 0.846513 0
M  V30 END ATOM
M  V30 BEGIN BOND
M  V30 1 1 1 2
M  V30 2 1 2 3
M  V30 3 1 3 4
M  V30 4 1 4 5
M  V30 5 1 4 6
M  V30 6 1 4 7
M  V30 7 1 2 8
M  V30 8 2 8 9
M  V30 9 1 9 10
M  V30 10 2 10 11
M  V30 11 1 11 12
M  V30 12 1 12 13
M  V30 13 1 11 14
M  V30 14 1 5 2
M  V30 15 1 12 8
M  V30 16 1 1 15
M  V30 17 1 1 16
M  V30 18 1 1 17
M  V30 19 1 3 18
M  V30 20 1 3 19
M  V30 21 1 5 20
M  V30 22 1 5 21
M  V30 23 1 13 22
M  V30 24 1 13 23
M  V30 25 1 14 24
M  V30 26 1 14 25
M  V30 END BOND
M  V30 END CTAB
M  END
