
     RDKit          3D

  0  0  0  0  0  0  0  0  0  0999 V3000
M  V30 BEGIN CTAB
M  V30 COUNTS 28 29 0 0 0
M  V30 BEGIN ATOM
M  V30 1 N -3.35389 -1.6308 1.17425 0
M  V30 2 C -2.55549 -0.557217 0.816738 0
M  V30 3 C -1.23324 -0.668256 0.808785 0
M  V30 4 C -0.646017 -1.91979 1.17496 0
M  V30 5 N -0.169707 -2.93964 1.49203 0
M  V30 6 C -0.360906 0.485451 0.444725 0
M  V30 7 C 1.05613 0.0623209 0.366584 0
M  V30 8 C 1.98677 0.561501 1.2451 0
M  V30 9 C 3.30027 0.177887 1.18295 0
M  V30 10 F 4.19663 0.686928 2.0629 0
M  V30 11 C 3.66451 -0.724353 0.213385 0
M  V30 12 C 2.73954 -1.23485 -0.676964 0
M  V30 13 C 1.41739 -0.844339 -0.609172 0
M  V30 14 C -0.759468 1.20129 -0.782075 0
M  V30 15 C 0.239682 1.54019 -1.80214 0
M  V30 16 N 1.02336 1.80056 -2.60572 0
M  V30 17 C -2.01005 1.54491 -0.979246 0
M  V30 18 N -2.44642 2.2333 -2.13514 0
M  V30 19 S -3.19052 1.07 0.311643 0
M  V30 20 H -3.89661 -1.69513 2.08343 0
M  V30 21 H -3.48366 -2.484 0.55291 0
M  V30 22 H -0.425719 1.22107 1.30474 0
M  V30 23 H 1.70974 1.28572 2.02798 0
M  V30 24 H 4.71768 -1.01092 0.188696 0
M  V30 25 H 3.05236 -1.95064 -1.43896 0
M  V30 26 H 0.703849 -1.25319 -1.31402 0
M  V30 27 H -2.13251 2.03592 -3.10204 0
M  V30 28 H -3.14372 3.00608 -2.00632 0
M  V30 END ATOM
M  V30 BEGIN BOND
M  V30 1 1 1 2
M  V30 2 2 2 3
M  V30 3 1 3 4
M  V30 4 3 4 5
M  V30 5 1 3 6
M  V30 6 1 6 7
M  V30 7 2 7 8
M  V30 8 1 8 9
M  V30 9 1 9 10
M  V30 10 2 9 11
M  V30 11 1 11 12
M  V30 12 2 12 13
M  V30 13 1 6 14
M  V30 14 1 14 15
M  V30 15 3 15 16
M  V30 16 2 14 17
M  V30 17 1 17 18
M  V30 18 1 17 19
M  V30 19 1 19 2
M  V30 20 1 13 7
M  V30 21 1 1 20
M  V30 22 1 1 21
M  V30 23 1 6 22
M  V30 24 1 8 23
M  V30 25 1 11 24
M  V30 26 1 12 25
M  V30 27 1 13 26
M  V30 28 1 18 27
M  V30 29 1 18 28
M  V30 END BOND
M  V30 END CTAB
M  END
