
     RDKit          3D

  0  0  0  0  0  0  0  0  0  0999 V3000
M  V30 BEGIN CTAB
M  V30 COUNTS 23 23 0 0 0
M  V30 BEGIN ATOM
M  V30 1 N 2.63128 1.05918 1.54165 0
M  V30 2 C 2.96529 1.23971 0.187529 0
M  V30 3 S 4.40185 2.02918 -0.082225 0
M  V30 4 N 2.16522 0.797149 -0.865868 0
M  V30 5 C 0.935675 0.129873 -0.873263 0
M  V30 6 C 0.0770024 0.0503469 0.203502 0
M  V30 7 C -1.11544 -0.65644 0.116437 0
M  V30 8 C -1.43877 -1.28059 -1.05669 0
M  V30 9 C -0.601786 -1.21906 -2.15069 0
M  V30 10 C 0.579186 -0.521653 -2.07041 0
M  V30 11 S -2.20482 -0.76396 1.46741 0
M  V30 12 N -3.3073 0.574098 1.35904 0
M  V30 13 O -1.47639 -0.746044 2.78283 0
M  V30 14 O -2.94875 -2.07232 1.38653 0
M  V30 15 H 2.33493 1.85748 2.14903 0
M  V30 16 H 2.68211 0.0839854 1.95707 0
M  V30 17 H 2.57444 1.02104 -1.84103 0
M  V30 18 H 0.308093 0.553735 1.152 0
M  V30 19 H -2.36901 -1.85351 -1.18156 0
M  V30 20 H -0.894075 -1.73074 -3.0723 0
M  V30 21 H 1.21098 -0.496305 -2.95059 0
M  V30 22 H -3.78138 0.503205 0.434016 0
M  V30 23 H -2.72833 1.44164 1.40757 0
M  V30 END ATOM
M  V30 BEGIN BOND
M  V30 1 1 1 2
M  V30 2 2 2 3
M  V30 3 1 2 4
M  V30 4 1 4 5
M  V30 5 2 5 6
M  V30 6 1 6 7
M  V30 7 2 7 8
M  V30 8 1 8 9
M  V30 9 2 9 10
M  V30 10 1 7 11
M  V30 11 1 11 12
M  V30 12 2 11 13
M  V30 13 2 11 14
M  V30 14 1 10 5
M  V30 15 1 1 15
M  V30 16 1 1 16
M  V30 17 1 4 17
M  V30 18 1 6 18
M  V30 19 1 8 19
M  V30 20 1 9 20
M  V30 21 1 10 21
M  V30 22 1 12 22
M  V30 23 1 12 23
M  V30 END BOND
M  V30 END CTAB
M  END
