
     RDKit          3D

  0  0  0  0  0  0  0  0  0  0999 V3000
M  V30 BEGIN CTAB
M  V30 COUNTS 32 33 0 0 0
M  V30 BEGIN ATOM
M  V30 1 N 4.92885 -0.201223 0.807193 0
M  V30 2 C 3.80147 -0.540173 0.0147002 0
M  V30 3 N 3.99745 -1.2222 -1.1176 0
M  V30 4 C 2.95475 -1.55903 -1.89053 0
M  V30 5 C 1.63847 -1.22056 -1.55725 0
M  V30 6 C 1.41623 -0.517162 -0.393364 0
M  V30 7 C 2.51894 -0.193098 0.369005 0
M  V30 8 C 0.0720211 -0.0946425 0.0748278 0 CFG=1
M  V30 9 N 0.194468 1.27646 0.528888 0
M  V30 10 C -1.10664 1.70193 1.01476 0
M  V30 11 C -1.98555 1.79248 -0.205229 0
M  V30 12 N -2.16901 0.496424 -0.774854 0
M  V30 13 C -1.00238 -0.285773 -0.947868 0
M  V30 14 S -3.54073 -0.331225 -0.221422 0
M  V30 15 O -4.76677 0.469048 -0.637892 0
M  V30 16 O -3.64077 -1.63517 -0.996797 0
M  V30 17 N -3.54117 -0.649707 1.45849 0
M  V30 18 H 5.08757 -0.661353 1.72596 0
M  V30 19 H 5.61715 0.512051 0.486241 0
M  V30 20 H 3.10013 -2.11372 -2.81403 0
M  V30 21 H 0.815597 -1.49415 -2.1782 0
M  V30 22 H 2.38505 0.359288 1.29071 0
M  V30 23 H -0.152215 -0.70551 0.976619 0
M  V30 24 H 0.386439 1.85783 -0.332861 0
M  V30 25 H -1.46253 0.882278 1.68865 0
M  V30 26 H -1.05288 2.6742 1.52416 0
M  V30 27 H -2.98179 2.16303 0.12968 0
M  V30 28 H -1.51145 2.44473 -0.95964 0
M  V30 29 H -0.578055 -0.0400179 -1.94512 0
M  V30 30 H -1.28271 -1.35762 -0.983399 0
M  V30 31 H -3.77432 -1.6739 1.61242 0
M  V30 32 H -4.3656 -0.133509 1.88664 0
M  V30 END ATOM
M  V30 BEGIN BOND
M  V30 1 1 1 2
M  V30 2 2 2 3
M  V30 3 1 3 4
M  V30 4 2 4 5
M  V30 5 1 5 6
M  V30 6 2 6 7
M  V30 7 1 6 8
M  V30 8 1 8 9
M  V30 9 1 9 10
M  V30 10 1 10 11
M  V30 11 1 11 12
M  V30 12 1 12 13
M  V30 13 1 12 14
M  V30 14 2 14 15
M  V30 15 2 14 16
M  V30 16 1 14 17
M  V30 17 1 7 2
M  V30 18 1 13 8
M  V30 19 1 1 18
M  V30 20 1 1 19
M  V30 21 1 4 20
M  V30 22 1 5 21
M  V30 23 1 7 22
M  V30 24 1 8 23 CFG=1
M  V30 25 1 9 24
M  V30 26 1 10 25
M  V30 27 1 10 26
M  V30 28 1 11 27
M  V30 29 1 11 28
M  V30 30 1 13 29
M  V30 31 1 13 30
M  V30 32 1 17 31
M  V30 33 1 17 32
M  V30 END BOND
M  V30 END CTAB
M  END
