
     RDKit          3D

  0  0  0  0  0  0  0  0  0  0999 V3000
M  V30 BEGIN CTAB
M  V30 COUNTS 30 31 0 0 0
M  V30 BEGIN ATOM
M  V30 1 N -3.69749 1.71355 1.19832 0
M  V30 2 C -3.03432 0.921839 0.175662 0
M  V30 3 C -1.93573 0.133528 0.854515 0
M  V30 4 N -1.18835 -0.708066 -0.0601881 0
M  V30 5 C -1.7563 -1.8347 -0.673735 0
M  V30 6 N -3.08628 -2.19665 -0.417661 0
M  V30 7 S -0.867802 -2.72719 -1.68909 0
M  V30 8 C 0.181128 -0.35249 -0.326787 0
M  V30 9 C 1.13131 -0.372275 0.655149 0
M  V30 10 Br 0.70504 -0.893822 2.43978 0
M  V30 11 C 2.4649 -0.0233745 0.425463 0
M  V30 12 N 3.39047 -0.0495584 1.40934 0
M  V30 13 C 4.66418 0.293466 1.14662 0
M  V30 14 C 5.01077 0.674351 -0.149115 0
M  V30 15 N 4.06231 0.688157 -1.10074 0
M  V30 16 C 2.77054 0.347138 -0.865397 0
M  V30 17 C 1.8231 0.37193 -1.8665 0
M  V30 18 C 0.517047 0.0220346 -1.60786 0
M  V30 19 H -4.13745 2.57567 0.786419 0
M  V30 20 H -2.99462 2.0272 1.93212 0
M  V30 21 H -3.78885 0.28369 -0.313099 0
M  V30 22 H -2.64415 1.6124 -0.596971 0
M  V30 23 H -2.43006 -0.518051 1.60842 0
M  V30 24 H -1.25713 0.801439 1.42341 0
M  V30 25 H -3.63476 -1.97397 0.441533 0
M  V30 26 H -3.61016 -2.75283 -1.15209 0
M  V30 27 H 5.44034 0.285508 1.91129 0
M  V30 28 H 6.0416 0.946921 -0.339426 0
M  V30 29 H 2.10478 0.667993 -2.86607 0
M  V30 30 H -0.244063 0.0361554 -2.38332 0
M  V30 END ATOM
M  V30 BEGIN BOND
M  V30 1 1 1 2
M  V30 2 1 2 3
M  V30 3 1 3 4
M  V30 4 1 4 5
M  V30 5 1 5 6
M  V30 6 2 5 7
M  V30 7 1 4 8
M  V30 8 2 8 9
M  V30 9 1 9 10
M  V30 10 1 9 11
M  V30 11 2 11 12
M  V30 12 1 12 13
M  V30 13 2 13 14
M  V30 14 1 14 15
M  V30 15 2 15 16
M  V30 16 1 16 17
M  V30 17 2 17 18
M  V30 18 1 18 8
M  V30 19 1 16 11
M  V30 20 1 1 19
M  V30 21 1 1 20
M  V30 22 1 2 21
M  V30 23 1 2 22
M  V30 24 1 3 23
M  V30 25 1 3 24
M  V30 26 1 6 25
M  V30 27 1 6 26
M  V30 28 1 13 27
M  V30 29 1 14 28
M  V30 30 1 17 29
M  V30 31 1 18 30
M  V30 END BOND
M  V30 END CTAB
M  END
