
     RDKit          3D

  0  0  0  0  0  0  0  0  0  0999 V3000
M  V30 BEGIN CTAB
M  V30 COUNTS 25 25 0 0 0
M  V30 BEGIN ATOM
M  V30 1 N 1.81165 -1.26834 -0.958576 0
M  V30 2 C 2.13784 -0.211292 -0.138396 0 CFG=1
M  V30 3 C 1.25982 -0.0926066 1.0849 0
M  V30 4 C -0.169537 0.0989016 0.736591 0
M  V30 5 C -0.745669 1.3374 0.558042 0
M  V30 6 C -2.09069 1.48265 0.231458 0
M  V30 7 I -2.97171 3.37618 -0.0415837 0
M  V30 8 C -2.87354 0.373464 0.080605 0
M  V30 9 N -4.26793 0.52212 -0.257904 0
M  V30 10 C -2.31774 -0.878851 0.254747 0
M  V30 11 I -3.56224 -2.55881 0.012206 0
M  V30 12 C -0.969883 -1.01216 0.581613 0
M  V30 13 C 3.53231 -0.391382 0.345261 0
M  V30 14 O 4.13895 0.530839 1.19937 0
M  V30 15 O 4.23474 -1.37956 0.0115232 0
M  V30 16 H 2.30504 -2.10007 -0.865838 0
M  V30 17 H 1.14325 -1.12908 -1.6379 0
M  V30 18 H 2.07291 0.764175 -0.692964 0
M  V30 19 H 1.41796 -0.996308 1.69618 0
M  V30 20 H 1.65458 0.771497 1.67108 0
M  V30 21 H -0.151889 2.22176 0.671055 0
M  V30 22 H -4.56427 1.34303 -0.803165 0
M  V30 23 H -4.89974 -0.234707 0.0829511 0
M  V30 24 H -0.562985 -2.00713 0.711672 0
M  V30 25 H 4.43877 1.43827 0.880446 0
M  V30 END ATOM
M  V30 BEGIN BOND
M  V30 1 1 1 2
M  V30 2 1 2 3
M  V30 3 1 3 4
M  V30 4 2 4 5
M  V30 5 1 5 6
M  V30 6 1 6 7
M  V30 7 2 6 8
M  V30 8 1 8 9
M  V30 9 1 8 10
M  V30 10 1 10 11
M  V30 11 2 10 12
M  V30 12 1 2 13
M  V30 13 1 13 14
M  V30 14 2 13 15
M  V30 15 1 12 4
M  V30 16 1 1 16
M  V30 17 1 1 17
M  V30 18 1 2 18 CFG=3
M  V30 19 1 3 19
M  V30 20 1 3 20
M  V30 21 1 5 21
M  V30 22 1 9 22
M  V30 23 1 9 23
M  V30 24 1 12 24
M  V30 25 1 14 25
M  V30 END BOND
M  V30 END CTAB
M  END
