
     RDKit          3D

  0  0  0  0  0  0  0  0  0  0999 V3000
M  V30 BEGIN CTAB
M  V30 COUNTS 30 30 0 0 0
M  V30 BEGIN ATOM
M  V30 1 C -2.61171 1.03942 1.58916 0
M  V30 2 C -3.08079 0.65579 0.228786 0
M  V30 3 C -2.04667 0.869375 -0.851768 0 CFG=1
M  V30 4 C -0.815386 0.0780025 -0.608137 0
M  V30 5 N 0.354974 0.596827 -0.225914 0
M  V30 6 C 1.46927 -0.130932 -0.00682803 0
M  V30 7 N 1.35674 -1.45714 -0.194878 0
M  V30 8 C 0.209987 -2.04499 -0.578809 0
M  V30 9 N -0.870397 -1.27096 -0.783118 0
M  V30 10 N 0.0624028 -3.44073 -0.784705 0
M  V30 11 N 2.69869 0.458292 0.399977 0
M  V30 12 C 3.84103 -0.410196 0.609964 0
M  V30 13 C 2.87236 1.86393 0.614396 0
M  V30 14 N -2.66515 0.406661 -2.10483 0
M  V30 15 H -2.76924 2.11953 1.81712 0
M  V30 16 H -1.56354 0.756529 1.80045 0
M  V30 17 H -3.24099 0.486641 2.338 0
M  V30 18 H -3.94907 1.30517 -0.0365292 0
M  V30 19 H -3.38891 -0.403915 0.199868 0
M  V30 20 H -1.82589 1.93884 -1.01264 0
M  V30 21 H -0.31428 -4.04344 -0.00796306 0
M  V30 22 H 0.323695 -3.85685 -1.69055 0
M  V30 23 H 3.72973 -1.29977 -0.068155 0
M  V30 24 H 3.7925 -0.781766 1.64046 0
M  V30 25 H 4.79492 0.0873508 0.356993 0
M  V30 26 H 2.29875 2.48722 -0.105983 0
M  V30 27 H 3.93934 2.13868 0.482115 0
M  V30 28 H 2.57854 2.14065 1.65989 0
M  V30 29 H -3.23919 -0.439751 -1.87213 0
M  V30 30 H -1.94169 0.151545 -2.80424 0
M  V30 END ATOM
M  V30 BEGIN BOND
M  V30 1 1 1 2
M  V30 2 1 2 3
M  V30 3 1 3 4
M  V30 4 2 4 5
M  V30 5 1 5 6
M  V30 6 2 6 7
M  V30 7 1 7 8
M  V30 8 2 8 9
M  V30 9 1 8 10
M  V30 10 1 6 11
M  V30 11 1 11 12
M  V30 12 1 11 13
M  V30 13 1 3 14
M  V30 14 1 9 4
M  V30 15 1 1 15
M  V30 16 1 1 16
M  V30 17 1 1 17
M  V30 18 1 2 18
M  V30 19 1 2 19
M  V30 20 1 3 20 CFG=3
M  V30 21 1 10 21
M  V30 22 1 10 22
M  V30 23 1 12 23
M  V30 24 1 12 24
M  V30 25 1 12 25
M  V30 26 1 13 26
M  V30 27 1 13 27
M  V30 28 1 13 28
M  V30 29 1 14 29
M  V30 30 1 14 30
M  V30 END BOND
M  V30 END CTAB
M  END
