
     RDKit          3D

  0  0  0  0  0  0  0  0  0  0999 V3000
M  V30 BEGIN CTAB
M  V30 COUNTS 31 31 0 0 0
M  V30 BEGIN ATOM
M  V30 1 C 3.19425 0.311265 -2.44934 0
M  V30 2 C 3.41894 -0.698775 -1.36106 0
M  V30 3 C 4.08432 -1.80769 -1.54301 0
M  V30 4 C 2.84091 -0.380508 -0.0360998 0
M  V30 5 C 1.34636 -0.24314 -0.200368 0
M  V30 6 N 0.745055 0.064678 1.05613 0
M  V30 7 C -0.658493 0.252912 1.2126 0
M  V30 8 C -1.22869 0.549471 2.42884 0
M  V30 9 C -2.61243 0.728455 2.54875 0
M  V30 10 C -3.38906 0.600854 1.4217 0
M  V30 11 C -2.83001 0.30354 0.194917 0
M  V30 12 C -1.45255 0.129994 0.0997855 0
M  V30 13 N -3.58566 0.163511 -0.984727 0
M  V30 14 N -4.79791 0.767626 1.46282 0
M  V30 15 H 3.37305 1.30209 -1.97572 0
M  V30 16 H 2.1579 0.234883 -2.85462 0
M  V30 17 H 3.9221 0.0729747 -3.2464 0
M  V30 18 H 4.52139 -2.0748 -2.497 0
M  V30 19 H 4.21306 -2.49601 -0.721206 0
M  V30 20 H 3.0051 -1.19576 0.701858 0
M  V30 21 H 3.22921 0.583511 0.359047 0
M  V30 22 H 1.17731 0.525791 -0.979078 0
M  V30 23 H 0.991223 -1.23258 -0.607134 0
M  V30 24 H 1.38521 0.153582 1.89976 0
M  V30 25 H -0.617952 0.650939 3.321 0
M  V30 26 H -3.10349 0.961315 3.47819 0
M  V30 27 H -1.02767 -0.10242 -0.866377 0
M  V30 28 H -4.53819 -0.221291 -0.936655 0
M  V30 29 H -3.18073 0.44667 -1.88637 0
M  V30 30 H -5.31756 0.363926 2.27212 0
M  V30 31 H -5.26499 1.28499 0.687674 0
M  V30 END ATOM
M  V30 BEGIN BOND
M  V30 1 1 1 2
M  V30 2 2 2 3 CFG=2
M  V30 3 1 2 4
M  V30 4 1 4 5
M  V30 5 1 5 6
M  V30 6 1 6 7
M  V30 7 2 7 8
M  V30 8 1 8 9
M  V30 9 2 9 10
M  V30 10 1 10 11
M  V30 11 2 11 12
M  V30 12 1 11 13
M  V30 13 1 10 14
M  V30 14 1 12 7
M  V30 15 1 1 15
M  V30 16 1 1 16
M  V30 17 1 1 17
M  V30 18 1 3 18
M  V30 19 1 3 19
M  V30 20 1 4 20
M  V30 21 1 4 21
M  V30 22 1 5 22
M  V30 23 1 5 23
M  V30 24 1 6 24
M  V30 25 1 8 25
M  V30 26 1 9 26
M  V30 27 1 12 27
M  V30 28 1 13 28
M  V30 29 1 13 29
M  V30 30 1 14 30
M  V30 31 1 14 31
M  V30 END BOND
M  V30 END CTAB
M  END
