
     RDKit          3D

  0  0  0  0  0  0  0  0  0  0999 V3000
M  V30 BEGIN CTAB
M  V30 COUNTS 39 40 0 0 0
M  V30 BEGIN ATOM
M  V30 1 C -3.84801 -2.29637 0.694053 0
M  V30 2 C -3.26128 -1.4905 -0.445551 0
M  V30 3 O -3.85485 -0.25345 -0.602393 0
M  V30 4 C -3.53806 0.64085 0.395687 0
M  V30 5 C -4.16212 1.97605 0.0317473 0
M  V30 6 C -2.07151 0.855195 0.578456 0
M  V30 7 N -1.34336 -0.0739633 -0.250502 0
M  V30 8 C -1.78297 -1.44993 -0.274558 0
M  V30 9 C -0.22185 0.302166 -1.02124 0
M  V30 10 O 0.360576 -0.56776 -1.71502 0
M  V30 11 C 0.242139 1.71087 -0.989619 0
M  V30 12 S 1.22313 2.04971 0.49738 0
M  V30 13 C 2.74456 1.088 0.46123 0
M  V30 14 N 3.63753 1.15943 1.46217 0
M  V30 15 C 4.77835 0.450416 1.46763 0
M  V30 16 N 5.72212 0.523743 2.52994 0
M  V30 17 C 5.06154 -0.387581 0.412955 0
M  V30 18 C 4.1637 -0.475504 -0.622222 0
M  V30 19 N 3.04433 0.259144 -0.563393 0
M  V30 20 N 4.38004 -1.30967 -1.73913 0
M  V30 21 H -4.74073 -2.86587 0.360134 0
M  V30 22 H -4.12642 -1.6865 1.56523 0
M  V30 23 H -3.07947 -3.07929 0.963214 0
M  V30 24 H -3.48358 -2.07385 -1.37925 0
M  V30 25 H -3.99027 0.342031 1.36965 0
M  V30 26 H -5.07329 2.1837 0.62758 0
M  V30 27 H -4.48012 1.9824 -1.04219 0
M  V30 28 H -3.43104 2.81387 0.127552 0
M  V30 29 H -1.75836 1.91169 0.454799 0
M  V30 30 H -1.75659 0.60559 1.63845 0
M  V30 31 H -1.47085 -1.91247 0.707447 0
M  V30 32 H -1.25197 -2.00774 -1.09774 0
M  V30 33 H 0.919474 1.83141 -1.88467 0
M  V30 34 H -0.588459 2.39791 -1.12175 0
M  V30 35 H 5.92694 1.39822 3.0481 0
M  V30 36 H 6.22221 -0.354226 2.78689 0
M  V30 37 H 5.97428 -0.986798 0.36863 0
M  V30 38 H 4.31252 -0.890704 -2.68916 0
M  V30 39 H 4.60168 -2.32022 -1.6322 0
M  V30 END ATOM
M  V30 BEGIN BOND
M  V30 1 1 1 2
M  V30 2 1 2 3
M  V30 3 1 3 4
M  V30 4 1 4 5
M  V30 5 1 4 6
M  V30 6 1 6 7
M  V30 7 1 7 8
M  V30 8 1 7 9
M  V30 9 2 9 10
M  V30 10 1 9 11
M  V30 11 1 11 12
M  V30 12 1 12 13
M  V30 13 2 13 14
M  V30 14 1 14 15
M  V30 15 1 15 16
M  V30 16 2 15 17
M  V30 17 1 17 18
M  V30 18 2 18 19
M  V30 19 1 18 20
M  V30 20 1 8 2
M  V30 21 1 19 13
M  V30 22 1 1 21
M  V30 23 1 1 22
M  V30 24 1 1 23
M  V30 25 1 2 24
M  V30 26 1 4 25
M  V30 27 1 5 26
M  V30 28 1 5 27
M  V30 29 1 5 28
M  V30 30 1 6 29
M  V30 31 1 6 30
M  V30 32 1 8 31
M  V30 33 1 8 32
M  V30 34 1 11 33
M  V30 35 1 11 34
M  V30 36 1 16 35
M  V30 37 1 16 36
M  V30 38 1 17 37
M  V30 39 1 20 38
M  V30 40 1 20 39
M  V30 END BOND
M  V30 END CTAB
M  END
