
     RDKit          3D

  0  0  0  0  0  0  0  0  0  0999 V3000
M  V30 BEGIN CTAB
M  V30 COUNTS 24 25 0 0 0
M  V30 BEGIN ATOM
M  V30 1 N 4.20349 0.938258 -1.08127 0
M  V30 2 C 3.25255 0.0690381 -0.461472 0
M  V30 3 C 3.67221 -1.09104 0.160239 0
M  V30 4 N 2.81008 -1.9378 0.756186 0
M  V30 5 C 1.49958 -1.60358 0.721791 0
M  V30 6 C 1.02165 -0.479512 0.128057 0
M  V30 7 C 1.90157 0.399076 -0.488511 0
M  V30 8 C -0.403605 -0.154624 0.113066 0
M  V30 9 N -0.994946 0.905185 -0.429549 0
M  V30 10 C -2.31764 0.805331 -0.210674 0
M  V30 11 N -2.5676 -0.311255 0.467241 0
M  V30 12 N -1.38461 -0.896878 0.662872 0
M  V30 13 C -3.85919 -0.837272 0.929503 0
M  V30 14 N -3.28164 1.75363 -0.643249 0
M  V30 15 H 4.57782 0.722735 -2.03142 0
M  V30 16 H 4.52308 1.78095 -0.592407 0
M  V30 17 H 4.74532 -1.27862 0.138484 0
M  V30 18 H 0.778807 -2.27631 1.19962 0
M  V30 19 H 1.52693 1.29456 -0.96226 0
M  V30 20 H -4.10323 -0.288937 1.8622 0
M  V30 21 H -3.72607 -1.91945 1.14522 0
M  V30 22 H -4.64376 -0.708452 0.184052 0
M  V30 23 H -4.09511 1.50657 -1.23523 0
M  V30 24 H -3.13569 2.74185 -0.332474 0
M  V30 END ATOM
M  V30 BEGIN BOND
M  V30 1 1 1 2
M  V30 2 2 2 3
M  V30 3 1 3 4
M  V30 4 2 4 5
M  V30 5 1 5 6
M  V30 6 2 6 7
M  V30 7 1 6 8
M  V30 8 1 8 9
M  V30 9 2 9 10
M  V30 10 1 10 11
M  V30 11 1 11 12
M  V30 12 1 11 13
M  V30 13 1 10 14
M  V30 14 1 7 2
M  V30 15 2 12 8
M  V30 16 1 1 15
M  V30 17 1 1 16
M  V30 18 1 3 17
M  V30 19 1 5 18
M  V30 20 1 7 19
M  V30 21 1 13 20
M  V30 22 1 13 21
M  V30 23 1 13 22
M  V30 24 1 14 23
M  V30 25 1 14 24
M  V30 END BOND
M  V30 END CTAB
M  END
