
     RDKit          3D

  0  0  0  0  0  0  0  0  0  0999 V3000
M  V30 BEGIN CTAB
M  V30 COUNTS 47 48 0 0 0
M  V30 BEGIN ATOM
M  V30 1 O 3.04955 1.62929 -0.146284 0
M  V30 2 C 2.83032 0.39399 -0.124533 0
M  V30 3 N 1.50042 -0.0587561 -0.086603 0
M  V30 4 C 1.0695 -1.45055 0.142119 0
M  V30 5 C -0.0508075 -1.07945 1.18175 0
M  V30 6 C -0.85635 -0.173054 0.243993 0 CFG=2
M  V30 7 C 0.2789 0.704259 -0.334647 0
M  V30 8 O -1.85561 0.567646 0.868822 0
M  V30 9 C -3.20926 0.450988 0.494074 0
M  V30 10 C -3.75 1.2424 -0.500091 0
M  V30 11 N -2.98044 2.2045 -1.17164 0
M  V30 12 C -5.08868 1.10676 -0.857642 0
M  V30 13 C -5.91727 0.206897 -0.260156 0
M  V30 14 C -5.3943 -0.585693 0.736059 0
M  V30 15 C -4.0568 -0.467891 1.1087 0
M  V30 16 N -3.55701 -1.27693 2.13041 0
M  V30 17 C -7.35711 0.0640283 -0.635804 0
M  V30 18 F -8.17081 0.0493658 0.477833 0
M  V30 19 F -7.68071 1.09985 -1.48665 0
M  V30 20 F -7.50255 -1.14537 -1.27853 0
M  V30 21 O 3.91342 -0.419415 -0.14158 0
M  V30 22 C 5.27028 -0.153659 -0.130159 0
M  V30 23 C 5.75669 0.485637 1.18094 0
M  V30 24 C 6.09117 -1.40733 -0.337375 0
M  V30 25 C 5.70651 0.78319 -1.27026 0
M  V30 26 H 1.81263 -2.06923 0.618472 0
M  V30 27 H 0.570319 -1.90851 -0.69463 0
M  V30 28 H -0.57018 -1.95641 1.5227 0
M  V30 29 H 0.432002 -0.445759 1.95149 0
M  V30 30 H -1.20512 -0.823066 -0.595624 0
M  V30 31 H 0.237786 1.66177 0.19143 0
M  V30 32 H 0.0967662 0.793517 -1.43779 0
M  V30 33 H -2.79113 3.12144 -0.673669 0
M  V30 34 H -2.57886 2.10274 -2.11791 0
M  V30 35 H -5.48686 1.73538 -1.65722 0
M  V30 36 H -6.04474 -1.29632 1.21771 0
M  V30 37 H -3.3867 -0.898794 3.07488 0
M  V30 38 H -3.34751 -2.28159 1.96459 0
M  V30 39 H 6.76307 0.0899478 1.46298 0
M  V30 40 H 5.74502 1.5624 1.18689 0
M  V30 41 H 5.04873 0.101674 1.97889 0
M  V30 42 H 7.0553 -1.33221 0.209036 0
M  V30 43 H 5.5541 -2.31265 0.0331938 0
M  V30 44 H 6.34995 -1.49537 -1.41293 0
M  V30 45 H 6.74393 1.09711 -0.948926 0
M  V30 46 H 5.07394 1.64178 -1.41925 0
M  V30 47 H 5.88855 0.141442 -2.15346 0
M  V30 END ATOM
M  V30 BEGIN BOND
M  V30 1 2 1 2
M  V30 2 1 2 3
M  V30 3 1 3 4
M  V30 4 1 4 5
M  V30 5 1 5 6
M  V30 6 1 6 7
M  V30 7 1 6 8
M  V30 8 1 8 9
M  V30 9 2 9 10
M  V30 10 1 10 11
M  V30 11 1 10 12
M  V30 12 2 12 13
M  V30 13 1 13 14
M  V30 14 2 14 15
M  V30 15 1 15 16
M  V30 16 1 13 17
M  V30 17 1 17 18
M  V30 18 1 17 19
M  V30 19 1 17 20
M  V30 20 1 2 21
M  V30 21 1 21 22
M  V30 22 1 22 23
M  V30 23 1 22 24
M  V30 24 1 22 25
M  V30 25 1 7 3
M  V30 26 1 15 9
M  V30 27 1 4 26
M  V30 28 1 4 27
M  V30 29 1 5 28
M  V30 30 1 5 29
M  V30 31 1 6 30 CFG=3
M  V30 32 1 7 31
M  V30 33 1 7 32
M  V30 34 1 11 33
M  V30 35 1 11 34
M  V30 36 1 12 35
M  V30 37 1 14 36
M  V30 38 1 16 37
M  V30 39 1 16 38
M  V30 40 1 23 39
M  V30 41 1 23 40
M  V30 42 1 23 41
M  V30 43 1 24 42
M  V30 44 1 24 43
M  V30 45 1 24 44
M  V30 46 1 25 45
M  V30 47 1 25 46
M  V30 48 1 25 47
M  V30 END BOND
M  V30 END CTAB
M  END
