
     RDKit          3D

  0  0  0  0  0  0  0  0  0  0999 V3000
M  V30 BEGIN CTAB
M  V30 COUNTS 29 30 0 0 0
M  V30 BEGIN ATOM
M  V30 1 N -4.76929 1.43363 -0.686297 0
M  V30 2 C -3.59351 0.654479 -0.53658 0
M  V30 3 C -2.73904 0.36104 -1.57906 0
M  V30 4 C -1.61042 -0.401959 -1.37166 0
M  V30 5 C -1.31343 -0.887174 -0.116628 0
M  V30 6 C -2.17939 -0.582527 0.909225 0
M  V30 7 C -3.31422 0.17725 0.73195 0
M  V30 8 S 0.111806 -1.86202 0.193228 0
M  V30 9 O -0.17761 -2.80646 1.29535 0
M  V30 10 O 0.456375 -2.5487 -1.10083 0
M  V30 11 C 1.4689 -0.846595 0.623437 0
M  V30 12 C 2.34766 -0.33356 -0.314137 0
M  V30 13 C 3.42356 0.475594 0.0616203 0
M  V30 14 N 4.29809 0.978622 -0.935081 0
M  V30 15 C 3.60974 0.766883 1.3998 0
M  V30 16 C 2.74916 0.267577 2.3442 0
M  V30 17 C 1.69223 -0.530511 1.94813 0
M  V30 18 H -5.65791 0.934612 -0.893334 0
M  V30 19 H -4.74708 2.46934 -0.592833 0
M  V30 20 H -2.99858 0.755551 -2.55127 0
M  V30 21 H -0.930242 -0.636238 -2.19859 0
M  V30 22 H -1.95499 -0.963459 1.91787 0
M  V30 23 H -3.96179 0.384818 1.58453 0
M  V30 24 H 2.1983 -0.564689 -1.36615 0
M  V30 25 H 4.34358 2.00127 -1.11609 0
M  V30 26 H 4.90407 0.352362 -1.49936 0
M  V30 27 H 4.45756 1.39737 1.63577 0
M  V30 28 H 2.89894 0.497052 3.37972 0
M  V30 29 H 0.987525 -0.943563 2.68624 0
M  V30 END ATOM
M  V30 BEGIN BOND
M  V30 1 1 1 2
M  V30 2 2 2 3
M  V30 3 1 3 4
M  V30 4 2 4 5
M  V30 5 1 5 6
M  V30 6 2 6 7
M  V30 7 1 5 8
M  V30 8 2 8 9
M  V30 9 2 8 10
M  V30 10 1 8 11
M  V30 11 2 11 12
M  V30 12 1 12 13
M  V30 13 1 13 14
M  V30 14 2 13 15
M  V30 15 1 15 16
M  V30 16 2 16 17
M  V30 17 1 7 2
M  V30 18 1 17 11
M  V30 19 1 1 18
M  V30 20 1 1 19
M  V30 21 1 3 20
M  V30 22 1 4 21
M  V30 23 1 6 22
M  V30 24 1 7 23
M  V30 25 1 12 24
M  V30 26 1 14 25
M  V30 27 1 14 26
M  V30 28 1 15 27
M  V30 29 1 16 28
M  V30 30 1 17 29
M  V30 END BOND
M  V30 END CTAB
M  END
