
     RDKit          3D

  0  0  0  0  0  0  0  0  0  0999 V3000
M  V30 BEGIN CTAB
M  V30 COUNTS 47 49 0 0 0
M  V30 BEGIN ATOM
M  V30 1 C -4.83507 -2.45604 0.200097 0
M  V30 2 O -4.8686 -1.19898 -0.368532 0
M  V30 3 C -3.94141 -0.19136 -0.29872 0
M  V30 4 C -2.76551 -0.324382 0.406944 0
M  V30 5 C -1.83582 0.722704 0.46099 0
M  V30 6 C -0.574909 0.559783 1.22686 0
M  V30 7 N 0.473145 0.0127328 0.364558 0
M  V30 8 C 1.77165 -0.245844 0.820279 0
M  V30 9 C 2.71281 -0.759639 -0.0360228 0
M  V30 10 Cl 2.20621 -1.06857 -1.7041 0
M  V30 11 C 4.01682 -1.03882 0.35089 0
M  V30 12 C 4.94449 -1.55334 -0.522481 0
M  V30 13 N 4.60294 -1.82351 -1.87212 0
M  V30 14 N 6.19239 -1.79177 -0.0475673 0
M  V30 15 C 6.5634 -1.55233 1.22195 0
M  V30 16 N 7.87396 -1.82001 1.65806 0
M  V30 17 N 5.66785 -1.04915 2.08854 0
M  V30 18 C 4.39885 -0.793495 1.65363 0
M  V30 19 C 3.45254 -0.276373 2.51641 0
M  V30 20 C 2.15937 -0.00107564 2.12709 0
M  V30 21 C -2.12757 1.89169 -0.210878 0
M  V30 22 C -3.28639 2.06933 -0.926658 0
M  V30 23 O -3.59547 3.24276 -1.61003 0
M  V30 24 C -2.62183 4.29391 -1.53359 0
M  V30 25 C -4.17594 1.02409 -0.959399 0
M  V30 26 O -5.38801 1.1185 -1.66812 0
M  V30 27 C -5.42723 0.72184 -3.02854 0
M  V30 28 H -4.83147 -3.25786 -0.572856 0
M  V30 29 H -5.72003 -2.68542 0.836966 0
M  V30 30 H -3.94861 -2.60609 0.806486 0
M  V30 31 H -2.51267 -1.22586 0.940118 0
M  V30 32 H -0.201842 1.54205 1.59959 0
M  V30 33 H -0.691364 -0.170176 2.06776 0
M  V30 34 H 0.213726 -0.181122 -0.619155 0
M  V30 35 H 4.22395 -2.76816 -2.14444 0
M  V30 36 H 4.70467 -1.13043 -2.6548 0
M  V30 37 H 8.57711 -1.06443 1.76677 0
M  V30 38 H 8.17396 -2.79073 1.88458 0
M  V30 39 H 3.77569 -0.0905733 3.53925 0
M  V30 40 H 1.42758 0.406333 2.82153 0
M  V30 41 H -1.41506 2.72184 -0.181562 0
M  V30 42 H -1.68555 3.90218 -1.98133 0
M  V30 43 H -2.46307 4.58827 -0.458091 0
M  V30 44 H -2.98424 5.18427 -2.08569 0
M  V30 45 H -4.38588 0.799477 -3.42762 0
M  V30 46 H -6.05796 1.43005 -3.60308 0
M  V30 47 H -5.79161 -0.316282 -3.06954 0
M  V30 END ATOM
M  V30 BEGIN BOND
M  V30 1 1 1 2
M  V30 2 1 2 3
M  V30 3 2 3 4
M  V30 4 1 4 5
M  V30 5 1 5 6
M  V30 6 1 6 7
M  V30 7 1 7 8
M  V30 8 2 8 9
M  V30 9 1 9 10
M  V30 10 1 9 11
M  V30 11 2 11 12
M  V30 12 1 12 13
M  V30 13 1 12 14
M  V30 14 2 14 15
M  V30 15 1 15 16
M  V30 16 1 15 17
M  V30 17 2 17 18
M  V30 18 1 18 19
M  V30 19 2 19 20
M  V30 20 2 5 21
M  V30 21 1 21 22
M  V30 22 1 22 23
M  V30 23 1 23 24
M  V30 24 2 22 25
M  V30 25 1 25 26
M  V30 26 1 26 27
M  V30 27 1 25 3
M  V30 28 1 20 8
M  V30 29 1 18 11
M  V30 30 1 1 28
M  V30 31 1 1 29
M  V30 32 1 1 30
M  V30 33 1 4 31
M  V30 34 1 6 32
M  V30 35 1 6 33
M  V30 36 1 7 34
M  V30 37 1 13 35
M  V30 38 1 13 36
M  V30 39 1 16 37
M  V30 40 1 16 38
M  V30 41 1 19 39
M  V30 42 1 20 40
M  V30 43 1 21 41
M  V30 44 1 24 42
M  V30 45 1 24 43
M  V30 46 1 24 44
M  V30 47 1 27 45
M  V30 48 1 27 46
M  V30 49 1 27 47
M  V30 END BOND
M  V30 END CTAB
M  END
