
     RDKit          3D

  0  0  0  0  0  0  0  0  0  0999 V3000
M  V30 BEGIN CTAB
M  V30 COUNTS 29 30 0 0 0
M  V30 BEGIN ATOM
M  V30 1 O 0.632889 0.826969 1.90596 0
M  V30 2 C 0.20472 0.47679 0.633995 0
M  V30 3 C 1.40149 0.115813 -0.152438 0
M  V30 4 C 1.51453 -1.08774 -0.802495 0
M  V30 5 C 2.6698 -1.35702 -1.5222 0
M  V30 6 C 3.69823 -0.452335 -1.59941 0
M  V30 7 N 3.55768 0.72263 -0.949444 0
M  V30 8 C 2.45124 1.00053 -0.250308 0
M  V30 9 N 2.34096 2.24898 0.420615 0
M  V30 10 C -0.828947 -0.590292 0.618707 0
M  V30 11 C -2.11354 -0.288091 1.34529 0
M  V30 12 C -2.70033 0.182899 0.0153512 0
M  V30 13 C -1.63924 -0.66376 -0.657921 0
M  V30 14 N -4.05174 -0.2894 -0.232994 0
M  V30 15 H -0.0491108 1.44396 2.27908 0
M  V30 16 H -0.2407 1.40807 0.190588 0
M  V30 17 H 0.749521 -1.84318 -0.785411 0
M  V30 18 H 2.81267 -2.29764 -2.05797 0
M  V30 19 H 4.61638 -0.639696 -2.15824 0
M  V30 20 H 1.77797 2.99384 -0.0439152 0
M  V30 21 H 2.7934 2.43212 1.33421 0
M  V30 22 H -0.416582 -1.59455 0.855402 0
M  V30 23 H -2.6155 -1.23576 1.62702 0
M  V30 24 H -2.0841 0.50808 2.08209 0
M  V30 25 H -2.56989 1.26891 -0.0925148 0
M  V30 26 H -2.06504 -1.69399 -0.819034 0
M  V30 27 H -1.17659 -0.21832 -1.54828 0
M  V30 28 H -4.68697 -0.027225 0.574323 0
M  V30 29 H -3.9832 -1.35058 -0.210069 0
M  V30 END ATOM
M  V30 BEGIN BOND
M  V30 1 1 1 2
M  V30 2 1 2 3
M  V30 3 2 3 4
M  V30 4 1 4 5
M  V30 5 2 5 6
M  V30 6 1 6 7
M  V30 7 2 7 8
M  V30 8 1 8 9
M  V30 9 1 2 10
M  V30 10 1 10 11
M  V30 11 1 11 12
M  V30 12 1 12 13
M  V30 13 1 12 14
M  V30 14 1 8 3
M  V30 15 1 13 10
M  V30 16 1 1 15
M  V30 17 1 2 16
M  V30 18 1 4 17
M  V30 19 1 5 18
M  V30 20 1 6 19
M  V30 21 1 9 20
M  V30 22 1 9 21
M  V30 23 1 10 22
M  V30 24 1 11 23
M  V30 25 1 11 24
M  V30 26 1 12 25
M  V30 27 1 13 26
M  V30 28 1 13 27
M  V30 29 1 14 28
M  V30 30 1 14 29
M  V30 END BOND
M  V30 END CTAB
M  END
