
     RDKit          3D

  0  0  0  0  0  0  0  0  0  0999 V3000
M  V30 BEGIN CTAB
M  V30 COUNTS 42 43 0 0 0
M  V30 BEGIN ATOM
M  V30 1 N -2.46266 0.736436 -2.53194 0
M  V30 2 C -3.25318 0.23089 -1.42436 0
M  V30 3 C -2.58938 0.495711 -0.0824054 0
M  V30 4 C -3.44452 -0.0447243 1.00781 0
M  V30 5 C -3.45367 0.900419 2.2056 0
M  V30 6 C -3.13574 -1.44164 1.41624 0
M  V30 7 C -2.05337 -2.10047 0.639264 0
M  V30 8 C -0.859169 -1.2251 0.364355 0
M  V30 9 N -1.21822 0.105325 -0.043874 0
M  V30 10 C -0.17266 1.00219 -0.399793 0
M  V30 11 O -0.5013 2.18122 -0.757929 0
M  V30 12 C 1.23547 0.641631 -0.374589 0
M  V30 13 O 1.79151 -0.497352 -0.0443295 0
M  V30 14 C 3.09711 -0.457317 -0.141271 0
M  V30 15 C 3.47413 0.800244 -0.569723 0
M  V30 16 C 2.28053 1.47823 -0.710763 0
M  V30 17 S 5.09606 1.38735 -0.862863 0
M  V30 18 O 5.71042 0.587465 -1.98119 0
M  V30 19 O 5.0077 2.81418 -1.33074 0
M  V30 20 N 6.06083 1.3055 0.571431 0
M  V30 21 C 4.01374 -1.59874 0.16655 0
M  V30 22 H -1.76524 0.0162406 -2.76527 0
M  V30 23 H -3.08926 0.966872 -3.33795 0
M  V30 24 H -4.22066 0.812648 -1.47071 0
M  V30 25 H -3.55292 -0.823537 -1.55696 0
M  V30 26 H -2.60258 1.62184 0.0240745 0
M  V30 27 H -4.50853 -0.0398335 0.626856 0
M  V30 28 H -3.35235 0.294005 3.13936 0
M  V30 29 H -2.57928 1.5727 2.09361 0
M  V30 30 H -4.35986 1.50517 2.26207 0
M  V30 31 H -2.80683 -1.41343 2.49446 0
M  V30 32 H -4.01872 -2.11391 1.40859 0
M  V30 33 H -2.41317 -2.52019 -0.308955 0
M  V30 34 H -1.66002 -2.95817 1.26241 0
M  V30 35 H -0.174167 -1.18652 1.25468 0
M  V30 36 H -0.307168 -1.70184 -0.471379 0
M  V30 37 H 2.20196 2.50633 -1.03613 0
M  V30 38 H 6.4297 0.330994 0.695834 0
M  V30 39 H 5.43358 1.5228 1.37319 0
M  V30 40 H 3.53046 -2.57291 -0.061197 0
M  V30 41 H 4.24692 -1.62142 1.26392 0
M  V30 42 H 4.9445 -1.49928 -0.396552 0
M  V30 END ATOM
M  V30 BEGIN BOND
M  V30 1 1 1 2
M  V30 2 1 2 3
M  V30 3 1 3 4
M  V30 4 1 4 5
M  V30 5 1 4 6
M  V30 6 1 6 7
M  V30 7 1 7 8
M  V30 8 1 8 9
M  V30 9 1 9 10
M  V30 10 2 10 11
M  V30 11 1 10 12
M  V30 12 1 12 13
M  V30 13 1 13 14
M  V30 14 2 14 15
M  V30 15 1 15 16
M  V30 16 1 15 17
M  V30 17 2 17 18
M  V30 18 2 17 19
M  V30 19 1 17 20
M  V30 20 1 14 21
M  V30 21 1 9 3
M  V30 22 2 16 12
M  V30 23 1 1 22
M  V30 24 1 1 23
M  V30 25 1 2 24
M  V30 26 1 2 25
M  V30 27 1 3 26
M  V30 28 1 4 27
M  V30 29 1 5 28
M  V30 30 1 5 29
M  V30 31 1 5 30
M  V30 32 1 6 31
M  V30 33 1 6 32
M  V30 34 1 7 33
M  V30 35 1 7 34
M  V30 36 1 8 35
M  V30 37 1 8 36
M  V30 38 1 16 37
M  V30 39 1 20 38
M  V30 40 1 20 39
M  V30 41 1 21 40
M  V30 42 1 21 41
M  V30 43 1 21 42
M  V30 END BOND
M  V30 END CTAB
M  END
