
     RDKit          3D

  0  0  0  0  0  0  0  0  0  0999 V3000
M  V30 BEGIN CTAB
M  V30 COUNTS 31 31 0 0 0
M  V30 BEGIN ATOM
M  V30 1 C -2.89695 1.71997 -0.595276 0
M  V30 2 C -1.96963 0.668725 -1.17263 0
M  V30 3 N -1.32165 -0.115997 -0.143297 0
M  V30 4 C -2.03979 -1.0348 0.695881 0
M  V30 5 C -2.54802 -2.25494 -0.0498374 0
M  V30 6 C 0.0822063 0.0205592 0.0358676 0
M  V30 7 C 0.574134 0.915466 0.97249 0
M  V30 8 C 1.93494 1.07498 1.16497 0
M  V30 9 N 2.4376 1.98868 2.12483 0
M  V30 10 C 2.78208 0.305669 0.383274 0
M  V30 11 O 4.15327 0.453548 0.564731 0
M  V30 12 C 2.34235 -0.598189 -0.56273 0
M  V30 13 N 3.2497 -1.3714 -1.35473 0
M  V30 14 C 0.970259 -0.724369 -0.719113 0
M  V30 15 H -3.00844 2.49835 -1.37965 0
M  V30 16 H -2.41455 2.19785 0.272112 0
M  V30 17 H -3.90122 1.34557 -0.388701 0
M  V30 18 H -1.20153 1.23093 -1.77142 0
M  V30 19 H -2.51558 0.052822 -1.91734 0
M  V30 20 H -1.43048 -1.38346 1.55203 0
M  V30 21 H -2.95217 -0.56546 1.14737 0
M  V30 22 H -1.94559 -3.15381 0.259214 0
M  V30 23 H -2.47182 -2.06954 -1.13128 0
M  V30 24 H -3.60922 -2.48766 0.165165 0
M  V30 25 H -0.127268 1.502 1.56636 0
M  V30 26 H 2.13314 2.96795 2.12274 0
M  V30 27 H 3.11216 1.65149 2.82741 0
M  V30 28 H 4.81854 -0.0835115 0.0215695 0
M  V30 29 H 3.20221 -1.42237 -2.38541 0
M  V30 30 H 3.98766 -1.91316 -0.867086 0
M  V30 31 H 0.573667 -1.41589 -1.4375 0
M  V30 END ATOM
M  V30 BEGIN BOND
M  V30 1 1 1 2
M  V30 2 1 2 3
M  V30 3 1 3 4
M  V30 4 1 4 5
M  V30 5 1 3 6
M  V30 6 2 6 7
M  V30 7 1 7 8
M  V30 8 1 8 9
M  V30 9 2 8 10
M  V30 10 1 10 11
M  V30 11 1 10 12
M  V30 12 1 12 13
M  V30 13 2 12 14
M  V30 14 1 14 6
M  V30 15 1 1 15
M  V30 16 1 1 16
M  V30 17 1 1 17
M  V30 18 1 2 18
M  V30 19 1 2 19
M  V30 20 1 4 20
M  V30 21 1 4 21
M  V30 22 1 5 22
M  V30 23 1 5 23
M  V30 24 1 5 24
M  V30 25 1 7 25
M  V30 26 1 9 26
M  V30 27 1 9 27
M  V30 28 1 11 28
M  V30 29 1 13 29
M  V30 30 1 13 30
M  V30 31 1 14 31
M  V30 END BOND
M  V30 END CTAB
M  END
