
     RDKit          3D

  0  0  0  0  0  0  0  0  0  0999 V3000
M  V30 BEGIN CTAB
M  V30 COUNTS 44 45 0 0 0
M  V30 BEGIN ATOM
M  V30 1 N -6.28032 -2.19055 0.00614383 0
M  V30 2 C -6.79154 -0.853756 -0.261516 0
M  V30 3 C -5.74811 0.169738 -0.105104 0
M  V30 4 C -5.9842 1.36496 0.561979 0
M  V30 5 C -4.95294 2.28086 0.664867 0
M  V30 6 C -3.70523 2.02113 0.117276 0
M  V30 7 C -3.47705 0.843284 -0.538424 0
M  V30 8 C -4.49017 -0.0735813 -0.647922 0
M  V30 9 C -2.15507 0.56409 -1.12452 0
M  V30 10 N -1.11201 0.832757 -0.164607 0
M  V30 11 C 0.223491 0.986306 -0.602523 0
M  V30 12 O 0.48498 0.882149 -1.83678 0
M  V30 13 N 1.22686 1.25383 0.366659 0
M  V30 14 C 2.6207 1.43476 0.118361 0
M  V30 15 C 3.39029 0.185244 -0.0550358 0
M  V30 16 C 2.81503 -1.03782 -0.24312 0
M  V30 17 C 3.56619 -2.21545 -0.388737 0
M  V30 18 C 4.94229 -2.12586 -0.338461 0
M  V30 19 C 5.5657 -0.909094 -0.149395 0
M  V30 20 C 4.79216 0.217672 -0.0121447 0
M  V30 21 C 7.04039 -0.808724 -0.0754447 0
M  V30 22 N 7.49647 -0.493492 1.28829 0
M  V30 23 H -7.08256 -2.85863 -0.0426329 0
M  V30 24 H -5.94824 -2.19185 0.996175 0
M  V30 25 H -7.18781 -0.808394 -1.31198 0
M  V30 26 H -7.66069 -0.700758 0.410332 0
M  V30 27 H -6.96922 1.56227 0.991625 0
M  V30 28 H -5.18222 3.19471 1.19095 0
M  V30 29 H -2.95205 2.76853 0.231714 0
M  V30 30 H -4.34511 -1.02595 -1.16493 0
M  V30 31 H -2.06676 -0.510029 -1.4469 0
M  V30 32 H -1.9583 1.1905 -2.02608 0
M  V30 33 H -1.32821 0.91321 0.847997 0
M  V30 34 H 0.908683 1.32968 1.38693 0
M  V30 35 H 2.79671 2.12375 -0.755335 0
M  V30 36 H 3.05848 2.0012 0.995945 0
M  V30 37 H 1.73027 -1.13921 -0.28086 0
M  V30 38 H 3.07483 -3.15514 -0.53917 0
M  V30 39 H 5.58651 -2.98082 -0.441433 0
M  V30 40 H 5.26094 1.1954 0.139974 0
M  V30 41 H 7.40967 0.0170696 -0.71596 0
M  V30 42 H 7.54865 -1.73327 -0.403247 0
M  V30 43 H 7.33027 -1.2523 1.95832 0
M  V30 44 H 8.50823 -0.268431 1.18799 0
M  V30 END ATOM
M  V30 BEGIN BOND
M  V30 1 1 1 2
M  V30 2 1 2 3
M  V30 3 2 3 4
M  V30 4 1 4 5
M  V30 5 2 5 6
M  V30 6 1 6 7
M  V30 7 2 7 8
M  V30 8 1 7 9
M  V30 9 1 9 10
M  V30 10 1 10 11
M  V30 11 2 11 12
M  V30 12 1 11 13
M  V30 13 1 13 14
M  V30 14 1 14 15
M  V30 15 2 15 16
M  V30 16 1 16 17
M  V30 17 2 17 18
M  V30 18 1 18 19
M  V30 19 2 19 20
M  V30 20 1 19 21
M  V30 21 1 21 22
M  V30 22 1 8 3
M  V30 23 1 20 15
M  V30 24 1 1 23
M  V30 25 1 1 24
M  V30 26 1 2 25
M  V30 27 1 2 26
M  V30 28 1 4 27
M  V30 29 1 5 28
M  V30 30 1 6 29
M  V30 31 1 8 30
M  V30 32 1 9 31
M  V30 33 1 9 32
M  V30 34 1 10 33
M  V30 35 1 13 34
M  V30 36 1 14 35
M  V30 37 1 14 36
M  V30 38 1 16 37
M  V30 39 1 17 38
M  V30 40 1 18 39
M  V30 41 1 20 40
M  V30 42 1 21 41
M  V30 43 1 21 42
M  V30 44 1 22 43
M  V30 45 1 22 44
M  V30 END BOND
M  V30 END CTAB
M  END
