
     RDKit          3D

  0  0  0  0  0  0  0  0  0  0999 V3000
M  V30 BEGIN CTAB
M  V30 COUNTS 30 30 0 0 0
M  V30 BEGIN ATOM
M  V30 1 N -4.03204 0.108834 -0.461774 0
M  V30 2 C -2.9814 1.05264 -0.307497 0
M  V30 3 C -1.8406 0.35634 0.416842 0 CFG=2
M  V30 4 C -0.730738 1.34882 0.581242 0
M  V30 5 C 0.542294 0.672891 1.02775 0
M  V30 6 C 0.917024 -0.487613 0.129857 0 CFG=2
M  V30 7 C -0.187978 -1.49103 -0.0194276 0
M  V30 8 C -1.47859 -0.848131 -0.367476 0
M  V30 9 N 2.1528 -1.0205 0.567534 0
M  V30 10 S 3.4711 -0.849095 -0.49656 0
M  V30 11 O 3.07191 -0.769136 -1.93284 0
M  V30 12 O 4.49188 -1.93378 -0.35651 0
M  V30 13 N 4.24416 0.661907 -0.108309 0
M  V30 14 H -4.34092 -0.391363 0.317143 0
M  V30 15 H -4.44974 -0.00977565 -1.33772 0
M  V30 16 H -2.65891 1.33645 -1.34402 0
M  V30 17 H -3.34511 1.93863 0.232822 0
M  V30 18 H -2.2599 0.0539467 1.41276 0
M  V30 19 H -1.02368 2.04441 1.40058 0
M  V30 20 H -0.587151 1.96936 -0.317905 0
M  V30 21 H 0.528383 0.422576 2.0875 0
M  V30 22 H 1.36531 1.43444 0.893848 0
M  V30 23 H 1.0826 -0.0375237 -0.890703 0
M  V30 24 H 0.0852698 -2.12994 -0.911985 0
M  V30 25 H -0.251384 -2.13147 0.881602 0
M  V30 26 H -1.51485 -0.598359 -1.46097 0
M  V30 27 H -2.29072 -1.61095 -0.214974 0
M  V30 28 H 2.462 -0.660725 1.51066 0
M  V30 29 H 4.56982 0.672722 0.882746 0
M  V30 30 H 4.98917 0.895421 -0.785127 0
M  V30 END ATOM
M  V30 BEGIN BOND
M  V30 1 1 1 2
M  V30 2 1 2 3
M  V30 3 1 3 4
M  V30 4 1 4 5
M  V30 5 1 5 6
M  V30 6 1 6 7
M  V30 7 1 7 8
M  V30 8 1 6 9
M  V30 9 1 9 10
M  V30 10 2 10 11
M  V30 11 2 10 12
M  V30 12 1 10 13
M  V30 13 1 8 3
M  V30 14 1 1 14
M  V30 15 1 1 15
M  V30 16 1 2 16
M  V30 17 1 2 17
M  V30 18 1 3 18 CFG=1
M  V30 19 1 4 19
M  V30 20 1 4 20
M  V30 21 1 5 21
M  V30 22 1 5 22
M  V30 23 1 6 23 CFG=3
M  V30 24 1 7 24
M  V30 25 1 7 25
M  V30 26 1 8 26
M  V30 27 1 8 27
M  V30 28 1 9 28
M  V30 29 1 13 29
M  V30 30 1 13 30
M  V30 END BOND
M  V30 END CTAB
M  END
