
     RDKit          3D

  0  0  0  0  0  0  0  0  0  0999 V3000
M  V30 BEGIN CTAB
M  V30 COUNTS 25 25 0 0 0
M  V30 BEGIN ATOM
M  V30 1 C -2.78424 1.49572 0.815408 0
M  V30 2 O -2.14876 0.301662 1.3019 0
M  V30 3 C -1.0941 -0.13792 0.494272 0
M  V30 4 C -1.41471 -1.01703 -0.516411 0
M  V30 5 N -2.7535 -1.43905 -0.706773 0
M  V30 6 C -0.387999 -1.46158 -1.32325 0
M  V30 7 C 0.929227 -1.03925 -1.12711 0
M  V30 8 C 1.20967 -0.158029 -0.103816 0
M  V30 9 C 0.198068 0.30594 0.723358 0
M  V30 10 N 0.435506 1.20721 1.78215 0
M  V30 11 C 2.57445 0.306747 0.133183 0
M  V30 12 O 2.82299 1.10937 1.06691 0
M  V30 13 C 3.66691 -0.203082 -0.770942 0
M  V30 14 H -2.0101 2.29855 0.741952 0
M  V30 15 H -3.55525 1.79996 1.54191 0
M  V30 16 H -3.17274 1.28903 -0.189019 0
M  V30 17 H -3.4215 -0.913016 -1.2924 0
M  V30 18 H -3.08249 -2.30871 -0.243357 0
M  V30 19 H -0.633051 -2.14201 -2.10633 0
M  V30 20 H 1.70266 -1.41894 -1.7905 0
M  V30 21 H 0.338398 2.22677 1.67891 0
M  V30 22 H 0.718169 0.822644 2.69648 0
M  V30 23 H 3.96772 -1.1886 -0.35817 0
M  V30 24 H 4.53596 0.49126 -0.629195 0
M  V30 25 H 3.35874 -0.227637 -1.81916 0
M  V30 END ATOM
M  V30 BEGIN BOND
M  V30 1 1 1 2
M  V30 2 1 2 3
M  V30 3 2 3 4
M  V30 4 1 4 5
M  V30 5 1 4 6
M  V30 6 2 6 7
M  V30 7 1 7 8
M  V30 8 2 8 9
M  V30 9 1 9 10
M  V30 10 1 8 11
M  V30 11 2 11 12
M  V30 12 1 11 13
M  V30 13 1 9 3
M  V30 14 1 1 14
M  V30 15 1 1 15
M  V30 16 1 1 16
M  V30 17 1 5 17
M  V30 18 1 5 18
M  V30 19 1 6 19
M  V30 20 1 7 20
M  V30 21 1 10 21
M  V30 22 1 10 22
M  V30 23 1 13 23
M  V30 24 1 13 24
M  V30 25 1 13 25
M  V30 END BOND
M  V30 END CTAB
M  END
