
     RDKit          3D

  0  0  0  0  0  0  0  0  0  0999 V3000
M  V30 BEGIN CTAB
M  V30 COUNTS 28 28 0 0 0
M  V30 BEGIN ATOM
M  V30 1 C 2.87866 -0.30958 1.14992 0
M  V30 2 C 2.26834 -0.38887 -0.25612 0
M  V30 3 C 2.99356 0.564376 -1.14178 0
M  V30 4 C 0.83989 -0.203764 -0.139404 0
M  V30 5 C -0.00529504 -1.26116 -0.459451 0
M  V30 6 C -1.38161 -1.16716 -0.375122 0
M  V30 7 N -2.19427 -2.28382 -0.716186 0
M  V30 8 C -1.91126 0.0211095 0.0414981 0
M  V30 9 C -3.38151 0.171621 0.148287 0
M  V30 10 C -1.12174 1.1007 0.371091 0
M  V30 11 N -1.6908 2.35021 0.809646 0
M  V30 12 C 0.242099 0.977458 0.277489 0
M  V30 13 H 3.13224 0.725443 1.40743 0
M  V30 14 H 3.78614 -0.94435 1.22862 0
M  V30 15 H 2.14969 -0.702665 1.89435 0
M  V30 16 H 2.49138 -1.415 -0.607 0
M  V30 17 H 2.6246 1.59482 -1.12588 0
M  V30 18 H 4.05585 0.58982 -0.817414 0
M  V30 19 H 3.00902 0.189931 -2.19689 0
M  V30 20 H 0.391042 -2.21297 -0.792087 0
M  V30 21 H -1.89799 -2.914 -1.49149 0
M  V30 22 H -3.0866 -2.52738 -0.238519 0
M  V30 23 H -3.85834 -0.753076 0.478625 0
M  V30 24 H -3.66638 0.969827 0.888212 0
M  V30 25 H -3.80987 0.50039 -0.819949 0
M  V30 26 H -2.18589 2.98508 0.136601 0
M  V30 27 H -1.56934 2.55876 1.82427 0
M  V30 28 H 0.898389 1.78425 0.521235 0
M  V30 END ATOM
M  V30 BEGIN BOND
M  V30 1 1 1 2
M  V30 2 1 2 3
M  V30 3 1 2 4
M  V30 4 2 4 5
M  V30 5 1 5 6
M  V30 6 1 6 7
M  V30 7 2 6 8
M  V30 8 1 8 9
M  V30 9 1 8 10
M  V30 10 1 10 11
M  V30 11 2 10 12
M  V30 12 1 12 4
M  V30 13 1 1 13
M  V30 14 1 1 14
M  V30 15 1 1 15
M  V30 16 1 2 16
M  V30 17 1 3 17
M  V30 18 1 3 18
M  V30 19 1 3 19
M  V30 20 1 5 20
M  V30 21 1 7 21
M  V30 22 1 7 22
M  V30 23 1 9 23
M  V30 24 1 9 24
M  V30 25 1 9 25
M  V30 26 1 11 26
M  V30 27 1 11 27
M  V30 28 1 12 28
M  V30 END BOND
M  V30 END CTAB
M  END
