
     RDKit          3D

  0  0  0  0  0  0  0  0  0  0999 V3000
M  V30 BEGIN CTAB
M  V30 COUNTS 71 76 0 0 0
M  V30 BEGIN ATOM
M  V30 1 Cl 9.07165 -2.72436 -4.6433 0
M  V30 2 C 8.42232 -1.96202 -3.25099 0
M  V30 3 C 9.05578 -0.854347 -2.72622 0
M  V30 4 C 8.55387 -0.219649 -1.60532 0
M  V30 5 C 7.42587 -0.682749 -1.00643 0
M  V30 6 C 6.7844 -1.78733 -1.52045 0
M  V30 7 C 7.28783 -2.41954 -2.63994 0
M  V30 8 N 5.70797 -2.00882 -0.726729 0
M  V30 9 C 5.7138 -1.0649 0.225562 0
M  V30 10 N 6.75126 -0.256164 0.0646031 0
M  V30 11 C 7.09872 0.88362 0.89036 0
M  V30 12 C 4.68771 -0.9626 1.29577 0
M  V30 13 C 3.58606 -0.0653304 0.759542 0
M  V30 14 C 2.55388 0.0379434 1.82173 0
M  V30 15 O 2.63126 -0.572555 2.90492 0
M  V30 16 N 1.43236 0.885204 1.55687 0
M  V30 17 C 1.29769 1.61885 0.316244 0
M  V30 18 C 0.10841 1.10782 -0.418276 0
M  V30 19 C -1.09187 0.873857 0.476137 0
M  V30 20 C -0.809664 1.64162 1.77552 0
M  V30 21 C 0.364017 1.05863 2.52466 0
M  V30 22 O -1.00562 -0.457069 0.842309 0
M  V30 23 C -2.20249 -1.0648 1.10012 0
M  V30 24 C -2.95755 -1.04134 -0.217848 0 CFG=2
M  V30 25 C -3.41668 0.350427 -0.455155 0 CFG=2
M  V30 26 C -2.33598 1.32192 -0.180561 0
M  V30 27 N -4.67257 0.659438 0.205509 0
M  V30 28 C -4.84519 1.20118 1.42117 0
M  V30 29 N -6.15235 1.33686 1.6909 0
M  V30 30 C -6.82094 0.869083 0.619498 0
M  V30 31 C -5.91054 0.450371 -0.298815 0
M  V30 32 N -6.35051 -0.070789 -1.48427 0
M  V30 33 C -7.66516 -0.166234 -1.73373 0
M  V30 34 N -8.18339 -0.703579 -2.95463 0
M  V30 35 N -8.55941 0.249678 -0.820919 0
M  V30 36 C -8.18048 0.769257 0.35898 0
M  V30 37 N -9.10011 1.21431 1.33843 0
M  V30 38 C -4.03587 -2.08327 -0.212716 0
M  V30 39 O -2.06197 -1.3957 -1.23371 0
M  V30 40 H 9.96185 -0.49334 -3.21875 0
M  V30 41 H 9.06283 0.643337 -1.20993 0
M  V30 42 H 6.79019 -3.28331 -3.04483 0
M  V30 43 H 8.21721 0.972477 0.854589 0
M  V30 44 H 6.74349 0.686069 1.91679 0
M  V30 45 H 6.64352 1.77474 0.442307 0
M  V30 46 H 4.30773 -1.95922 1.53259 0
M  V30 47 H 5.10851 -0.520368 2.22579 0
M  V30 48 H 3.11528 -0.591067 -0.0984988 0
M  V30 49 H 4.02311 0.901142 0.479715 0
M  V30 50 H 1.16189 2.72457 0.478834 0
M  V30 51 H 2.21603 1.43671 -0.290517 0
M  V30 52 H 0.327777 0.219549 -1.05002 0
M  V30 53 H -0.212461 1.89207 -1.1683 0
M  V30 54 H -1.7047 1.5856 2.43296 0
M  V30 55 H -0.552174 2.68654 1.5217 0
M  V30 56 H 0.103081 0.111919 3.04224 0
M  V30 57 H 0.701622 1.83813 3.24046 0
M  V30 58 H -1.99529 -2.10556 1.40817 0
M  V30 59 H -2.8351 -0.553973 1.83215 0
M  V30 60 H -3.67222 0.381602 -1.56138 0
M  V30 61 H -2.05191 1.83175 -1.15276 0
M  V30 62 H -2.70975 2.21426 0.417574 0
M  V30 63 H -4.07115 1.50793 2.13431 0
M  V30 64 H -8.34451 -0.114172 -3.79657 0
M  V30 65 H -8.3926 -1.72574 -2.95613 0
M  V30 66 H -9.49704 0.527408 1.99932 0
M  V30 67 H -9.36555 2.20941 1.38628 0
M  V30 68 H -3.54461 -3.02481 0.179262 0
M  V30 69 H -4.86629 -1.88858 0.474125 0
M  V30 70 H -4.31591 -2.32355 -1.24564 0
M  V30 71 H -2.52936 -1.52851 -2.09978 0
M  V30 END ATOM
M  V30 BEGIN BOND
M  V30 1 1 1 2
M  V30 2 2 2 3
M  V30 3 1 3 4
M  V30 4 2 4 5
M  V30 5 1 5 6
M  V30 6 2 6 7
M  V30 7 1 6 8
M  V30 8 2 8 9
M  V30 9 1 9 10
M  V30 10 1 10 11
M  V30 11 1 9 12
M  V30 12 1 12 13
M  V30 13 1 13 14
M  V30 14 2 14 15
M  V30 15 1 14 16
M  V30 16 1 16 17
M  V30 17 1 17 18
M  V30 18 1 18 19
M  V30 19 1 19 20
M  V30 20 1 20 21
M  V30 21 1 19 22
M  V30 22 1 22 23
M  V30 23 1 23 24
M  V30 24 1 24 25
M  V30 25 1 25 26
M  V30 26 1 25 27
M  V30 27 1 27 28
M  V30 28 2 28 29
M  V30 29 1 29 30
M  V30 30 2 30 31
M  V30 31 1 31 32
M  V30 32 2 32 33
M  V30 33 1 33 34
M  V30 34 1 33 35
M  V30 35 2 35 36
M  V30 36 1 36 37
M  V30 37 1 24 38
M  V30 38 1 24 39 CFG=3
M  V30 39 1 7 2
M  V30 40 1 21 16
M  V30 41 1 31 27
M  V30 42 1 10 5
M  V30 43 1 26 19
M  V30 44 1 36 30
M  V30 45 1 3 40
M  V30 46 1 4 41
M  V30 47 1 7 42
M  V30 48 1 11 43
M  V30 49 1 11 44
M  V30 50 1 11 45
M  V30 51 1 12 46
M  V30 52 1 12 47
M  V30 53 1 13 48
M  V30 54 1 13 49
M  V30 55 1 17 50
M  V30 56 1 17 51
M  V30 57 1 18 52
M  V30 58 1 18 53
M  V30 59 1 20 54
M  V30 60 1 20 55
M  V30 61 1 21 56
M  V30 62 1 21 57
M  V30 63 1 23 58
M  V30 64 1 23 59
M  V30 65 1 25 60 CFG=3
M  V30 66 1 26 61
M  V30 67 1 26 62
M  V30 68 1 28 63
M  V30 69 1 34 64
M  V30 70 1 34 65
M  V30 71 1 37 66
M  V30 72 1 37 67
M  V30 73 1 38 68
M  V30 74 1 38 69
M  V30 75 1 38 70
M  V30 76 1 39 71
M  V30 END BOND
M  V30 END CTAB
M  END
