
     RDKit          3D

  0  0  0  0  0  0  0  0  0  0999 V3000
M  V30 BEGIN CTAB
M  V30 COUNTS 22 21 0 0 0
M  V30 BEGIN ATOM
M  V30 1 N 3.73969 0.430868 -0.552641 0
M  V30 2 N 2.45547 0.422849 0.0429468 0
M  V30 3 C 1.89125 -0.898314 0.0470115 0
M  V30 4 C 0.541302 -0.910605 0.70015 0
M  V30 5 C -0.398478 -0.0244775 -0.0394154 0
M  V30 6 C -1.79315 -0.0168349 0.576478 0
M  V30 7 N -2.59898 0.887136 -0.246646 0
M  V30 8 N -3.8907 1.00441 0.178917 0
M  V30 9 H 4.32172 1.1924 -0.125929 0
M  V30 10 H 4.20544 -0.474809 -0.257843 0
M  V30 11 H 1.85814 1.15439 -0.354012 0
M  V30 12 H 2.60439 -1.60444 0.526912 0
M  V30 13 H 1.81386 -1.23287 -1.02342 0
M  V30 14 H 0.643982 -0.648908 1.77604 0
M  V30 15 H 0.184359 -1.98218 0.67153 0
M  V30 16 H -0.0808223 1.03584 -0.0738381 0
M  V30 17 H -0.478205 -0.401266 -1.0792 0
M  V30 18 H -1.7293 0.337053 1.60412 0
M  V30 19 H -2.28144 -1.00928 0.498015 0
M  V30 20 H -2.579 0.627816 -1.23887 0
M  V30 21 H -4.15564 1.92165 0.577509 0
M  V30 22 H -4.27389 0.18957 0.690555 0
M  V30 END ATOM
M  V30 BEGIN BOND
M  V30 1 1 1 2
M  V30 2 1 2 3
M  V30 3 1 3 4
M  V30 4 1 4 5
M  V30 5 1 5 6
M  V30 6 1 6 7
M  V30 7 1 7 8
M  V30 8 1 1 9
M  V30 9 1 1 10
M  V30 10 1 2 11
M  V30 11 1 3 12
M  V30 12 1 3 13
M  V30 13 1 4 14
M  V30 14 1 4 15
M  V30 15 1 5 16
M  V30 16 1 5 17
M  V30 17 1 6 18
M  V30 18 1 6 19
M  V30 19 1 7 20
M  V30 20 1 8 21
M  V30 21 1 8 22
M  V30 END BOND
M  V30 END CTAB
M  END
