
     RDKit          3D

  0  0  0  0  0  0  0  0  0  0999 V3000
M  V30 BEGIN CTAB
M  V30 COUNTS 44 44 0 0 0
M  V30 BEGIN ATOM
M  V30 1 N -1.54516 -3.63412 -0.666007 0
M  V30 2 C -0.32036 -3.58803 0.0656169 0
M  V30 3 C -0.189999 -2.48044 1.05106 0
M  V30 4 N -0.285891 -1.14967 0.446259 0
M  V30 5 C -1.57795 -0.578652 0.370501 0
M  V30 6 O -2.57637 -1.24459 0.83361 0
M  V30 7 C -1.9325 0.728887 -0.192481 0
M  V30 8 C -3.41259 0.821716 -0.529464 0
M  V30 9 N -4.24946 0.63294 0.609245 0
M  V30 10 C -3.75817 2.10036 -1.2152 0
M  V30 11 C -1.72052 1.77159 0.919736 0
M  V30 12 C 0.94193 -0.578195 0.0021487 0
M  V30 13 C 1.73311 0.185244 0.996843 0
M  V30 14 C 2.97773 0.682454 0.31319 0
M  V30 15 C 3.04341 1.89495 -0.32847 0
M  V30 16 C 4.2034 2.32097 -0.94649 0
M  V30 17 C 5.34163 1.50891 -0.924956 0
M  V30 18 C 5.2875 0.296326 -0.287242 0
M  V30 19 C 4.10788 -0.105303 0.325103 0
M  V30 20 H -1.59888 -3.01821 -1.48195 0
M  V30 21 H -1.93541 -4.58233 -0.799783 0
M  V30 22 H -0.256951 -4.54251 0.655596 0
M  V30 23 H 0.572987 -3.64501 -0.623141 0
M  V30 24 H 0.756602 -2.56121 1.5788 0
M  V30 25 H -1.02241 -2.60195 1.79556 0
M  V30 26 H -1.2892 1.04087 -1.03016 0
M  V30 27 H -3.61698 -0.0116524 -1.25131 0
M  V30 28 H -4.99486 -0.0851088 0.475722 0
M  V30 29 H -4.61381 1.51832 1.02283 0
M  V30 30 H -2.95799 2.46659 -1.89584 0
M  V30 31 H -4.04412 2.91391 -0.487889 0
M  V30 32 H -4.68321 1.94274 -1.8262 0
M  V30 33 H -1.13681 1.32316 1.76777 0
M  V30 34 H -2.66091 2.11479 1.35501 0
M  V30 35 H -1.09815 2.61964 0.56193 0
M  V30 36 H 0.785464 0.093935 -0.883319 0
M  V30 37 H 1.61003 -1.40676 -0.381377 0
M  V30 38 H 2.03246 -0.442404 1.86787 0
M  V30 39 H 1.21043 1.08151 1.34951 0
M  V30 40 H 2.16561 2.54128 -0.355321 0
M  V30 41 H 4.27515 3.26135 -1.45134 0
M  V30 42 H 6.26929 1.83468 -1.41155 0
M  V30 43 H 6.12255 -0.381181 -0.229711 0
M  V30 44 H 4.04145 -1.05981 0.835303 0
M  V30 END ATOM
M  V30 BEGIN BOND
M  V30 1 1 1 2
M  V30 2 1 2 3
M  V30 3 1 3 4
M  V30 4 1 4 5
M  V30 5 2 5 6
M  V30 6 1 5 7
M  V30 7 1 7 8
M  V30 8 1 8 9
M  V30 9 1 8 10
M  V30 10 1 7 11
M  V30 11 1 4 12
M  V30 12 1 12 13
M  V30 13 1 13 14
M  V30 14 2 14 15
M  V30 15 1 15 16
M  V30 16 2 16 17
M  V30 17 1 17 18
M  V30 18 2 18 19
M  V30 19 1 19 14
M  V30 20 1 1 20
M  V30 21 1 1 21
M  V30 22 1 2 22
M  V30 23 1 2 23
M  V30 24 1 3 24
M  V30 25 1 3 25
M  V30 26 1 7 26
M  V30 27 1 8 27
M  V30 28 1 9 28
M  V30 29 1 9 29
M  V30 30 1 10 30
M  V30 31 1 10 31
M  V30 32 1 10 32
M  V30 33 1 11 33
M  V30 34 1 11 34
M  V30 35 1 11 35
M  V30 36 1 12 36
M  V30 37 1 12 37
M  V30 38 1 13 38
M  V30 39 1 13 39
M  V30 40 1 15 40
M  V30 41 1 16 41
M  V30 42 1 17 42
M  V30 43 1 18 43
M  V30 44 1 19 44
M  V30 END BOND
M  V30 END CTAB
M  END
