
     RDKit          3D

  0  0  0  0  0  0  0  0  0  0999 V3000
M  V30 BEGIN CTAB
M  V30 COUNTS 56 58 0 0 0
M  V30 BEGIN ATOM
M  V30 1 O 0.989797 -0.825454 -0.590211 0
M  V30 2 C 0.210051 0.215783 -0.579201 0
M  V30 3 N -1.16383 -0.0308042 -0.480961 0
M  V30 4 C -2.15343 0.986568 -0.475391 0
M  V30 5 C -2.2577 1.71792 -1.81287 0
M  V30 6 C -3.66391 2.31765 -1.84457 0
M  V30 7 C -4.30847 2.39627 -0.505178 0
M  V30 8 C -3.42826 2.70439 0.650578 0
M  V30 9 C -2.04034 2.0542 0.570174 0
M  V30 10 C -1.56913 -1.44707 -0.373126 0
M  V30 11 C -2.46377 -1.75904 -1.55682 0
M  V30 12 C -2.8714 -3.20299 -1.59038 0
M  V30 13 C -3.2382 -3.79321 -0.287846 0
M  V30 14 C -2.57318 -3.22783 0.912901 0
M  V30 15 C -2.36192 -1.72978 0.861834 0
M  V30 16 C 0.929111 1.48806 -0.67193 0
M  V30 17 S 2.75763 1.24082 -0.739095 0
M  V30 18 C 3.28407 0.586438 0.842062 0
M  V30 19 C 4.74591 0.359585 0.906915 0
M  V30 20 N 5.53339 1.35531 1.33444 0
M  V30 21 C 6.86843 1.22545 1.42018 0
M  V30 22 N 7.74891 2.23316 1.86065 0
M  V30 23 N 7.40361 0.0396784 1.05638 0
M  V30 24 C 6.65678 -0.988347 0.621748 0
M  V30 25 N 5.32006 -0.79927 0.556345 0
M  V30 26 N 7.288 -2.20349 0.258448 0
M  V30 27 H -3.18891 0.533346 -0.346461 0
M  V30 28 H -2.04337 1.04428 -2.63567 0
M  V30 29 H -1.57484 2.58299 -1.76127 0
M  V30 30 H -3.69645 3.26644 -2.41662 0
M  V30 31 H -4.26003 1.59303 -2.47365 0
M  V30 32 H -4.96273 1.5093 -0.345145 0
M  V30 33 H -5.05296 3.25259 -0.572365 0
M  V30 34 H -3.31598 3.79758 0.767837 0
M  V30 35 H -3.90159 2.30668 1.59873 0
M  V30 36 H -1.71252 1.71196 1.55439 0
M  V30 37 H -1.39023 2.88154 0.168876 0
M  V30 38 H -0.669559 -2.05821 -0.378659 0
M  V30 39 H -1.9582 -1.51901 -2.5101 0
M  V30 40 H -3.35826 -1.12853 -1.4764 0
M  V30 41 H -2.0725 -3.75788 -2.13156 0
M  V30 42 H -3.77816 -3.25379 -2.26344 0
M  V30 43 H -2.9841 -4.89371 -0.329026 0
M  V30 44 H -4.35464 -3.7928 -0.114117 0
M  V30 45 H -1.57604 -3.70363 1.04304 0
M  V30 46 H -3.1695 -3.48626 1.81567 0
M  V30 47 H -3.35136 -1.26082 0.782898 0
M  V30 48 H -1.8424 -1.45635 1.80685 0
M  V30 49 H 0.796835 2.08641 0.278082 0
M  V30 50 H 0.628471 2.13462 -1.4973 0
M  V30 51 H 3.03199 1.2626 1.69255 0
M  V30 52 H 2.80483 -0.405865 0.993911 0
M  V30 53 H 7.68165 3.23298 1.65503 0
M  V30 54 H 8.565 1.92501 2.46737 0
M  V30 55 H 8.21419 -2.19497 -0.214597 0
M  V30 56 H 6.84916 -3.12354 0.451979 0
M  V30 END ATOM
M  V30 BEGIN BOND
M  V30 1 2 1 2
M  V30 2 1 2 3
M  V30 3 1 3 4
M  V30 4 1 4 5
M  V30 5 1 5 6
M  V30 6 1 6 7
M  V30 7 1 7 8
M  V30 8 1 8 9
M  V30 9 1 3 10
M  V30 10 1 10 11
M  V30 11 1 11 12
M  V30 12 1 12 13
M  V30 13 1 13 14
M  V30 14 1 14 15
M  V30 15 1 2 16
M  V30 16 1 16 17
M  V30 17 1 17 18
M  V30 18 1 18 19
M  V30 19 2 19 20
M  V30 20 1 20 21
M  V30 21 1 21 22
M  V30 22 2 21 23
M  V30 23 1 23 24
M  V30 24 2 24 25
M  V30 25 1 24 26
M  V30 26 1 9 4
M  V30 27 1 15 10
M  V30 28 1 25 19
M  V30 29 1 4 27
M  V30 30 1 5 28
M  V30 31 1 5 29
M  V30 32 1 6 30
M  V30 33 1 6 31
M  V30 34 1 7 32
M  V30 35 1 7 33
M  V30 36 1 8 34
M  V30 37 1 8 35
M  V30 38 1 9 36
M  V30 39 1 9 37
M  V30 40 1 10 38
M  V30 41 1 11 39
M  V30 42 1 11 40
M  V30 43 1 12 41
M  V30 44 1 12 42
M  V30 45 1 13 43
M  V30 46 1 13 44
M  V30 47 1 14 45
M  V30 48 1 14 46
M  V30 49 1 15 47
M  V30 50 1 15 48
M  V30 51 1 16 49
M  V30 52 1 16 50
M  V30 53 1 18 51
M  V30 54 1 18 52
M  V30 55 1 22 53
M  V30 56 1 22 54
M  V30 57 1 26 55
M  V30 58 1 26 56
M  V30 END BOND
M  V30 END CTAB
M  END
