
     RDKit          3D

  0  0  0  0  0  0  0  0  0  0999 V3000
M  V30 BEGIN CTAB
M  V30 COUNTS 25 25 0 0 0
M  V30 BEGIN ATOM
M  V30 1 N 1.02464 1.5298 -0.746545 0
M  V30 2 C 0.648382 0.415238 -0.239085 0
M  V30 3 N -0.70999 0.117008 -0.1158 0
M  V30 4 C -1.25519 -1.24554 -0.124676 0
M  V30 5 C -2.75162 -1.09041 -0.308879 0
M  V30 6 O -3.34683 -0.392096 0.732317 0
M  V30 7 C -2.62103 0.686638 1.17413 0
M  V30 8 C -1.73236 1.15979 0.0365287 0
M  V30 9 N 1.64035 -0.496573 0.188978 0
M  V30 10 C 2.89624 -0.322338 0.0810845 0
M  V30 11 N 3.50475 0.827998 -0.492539 0
M  V30 12 N 3.76027 -1.3443 0.565325 0
M  V30 13 H 0.296266 2.201 -1.06163 0
M  V30 14 H -1.09404 -1.75277 0.833183 0
M  V30 15 H -0.885259 -1.81146 -1.00403 0
M  V30 16 H -3.21895 -2.11717 -0.304613 0
M  V30 17 H -2.9835 -0.64521 -1.31074 0
M  V30 18 H -1.93086 0.396761 2.00222 0
M  V30 19 H -3.2783 1.52187 1.47731 0
M  V30 20 H -1.23196 2.11349 0.296121 0
M  V30 21 H -2.31226 1.23824 -0.906012 0
M  V30 22 H 3.76555 1.65591 0.0862258 0
M  V30 23 H 3.68399 0.81834 -1.51962 0
M  V30 24 H 3.91175 -2.16123 -0.0929308 0
M  V30 25 H 4.21995 -1.30298 1.50462 0
M  V30 END ATOM
M  V30 BEGIN BOND
M  V30 1 2 1 2 CFG=2
M  V30 2 1 2 3
M  V30 3 1 3 4
M  V30 4 1 4 5
M  V30 5 1 5 6
M  V30 6 1 6 7
M  V30 7 1 7 8
M  V30 8 1 2 9
M  V30 9 2 9 10 CFG=2
M  V30 10 1 10 11
M  V30 11 1 10 12
M  V30 12 1 8 3
M  V30 13 1 1 13
M  V30 14 1 4 14
M  V30 15 1 4 15
M  V30 16 1 5 16
M  V30 17 1 5 17
M  V30 18 1 7 18
M  V30 19 1 7 19
M  V30 20 1 8 20
M  V30 21 1 8 21
M  V30 22 1 11 22
M  V30 23 1 11 23
M  V30 24 1 12 24
M  V30 25 1 12 25
M  V30 END BOND
M  V30 END CTAB
M  END
