
     RDKit          3D

  0  0  0  0  0  0  0  0  0  0999 V3000
M  V30 BEGIN CTAB
M  V30 COUNTS 29 30 0 0 0
M  V30 BEGIN ATOM
M  V30 1 C -5.4968 0.664461 0.120879 0
M  V30 2 O -4.74021 -0.52681 -0.0745671 0
M  V30 3 C -3.36002 -0.405351 -0.0142282 0
M  V30 4 C -2.71586 0.790757 0.220935 0
M  V30 5 C -1.34277 0.852596 0.270251 0
M  V30 6 C -0.58182 -0.25617 0.0899265 0
M  V30 7 C -1.18256 -1.4714 -0.147509 0
M  V30 8 C -2.56018 -1.5309 -0.196525 0
M  V30 9 C 0.878392 -0.186439 0.143093 0
M  V30 10 N 1.64496 -1.27568 -0.0335254 0
M  V30 11 C 2.98703 -1.24547 0.00920549 0
M  V30 12 N 3.78487 -2.39425 -0.17737 0
M  V30 13 C 3.58986 -0.0176752 0.248999 0
M  V30 14 N 4.9961 0.0762625 0.305085 0
M  V30 15 O 5.65003 0.814341 -0.466815 0
M  V30 16 C 2.80896 1.09884 0.430173 0
M  V30 17 N 3.45167 2.34158 0.67379 0
M  V30 18 N 1.47048 0.994319 0.374043 0
M  V30 19 H -6.57524 0.497928 0.0997857 0
M  V30 20 H -5.26134 1.40214 -0.697629 0
M  V30 21 H -5.17122 1.14357 1.08095 0
M  V30 22 H -3.33612 1.68745 0.366623 0
M  V30 23 H -0.888711 1.8208 0.458727 0
M  V30 24 H -0.587394 -2.38522 -0.297015 0
M  V30 25 H -3.03151 -2.47844 -0.381741 0
M  V30 26 H 4.53164 -2.60833 0.497123 0
M  V30 27 H 3.62026 -3.01286 -0.982528 0
M  V30 28 H 3.25116 3.21188 0.134697 0
M  V30 29 H 4.16635 2.39806 1.43261 0
M  V30 END ATOM
M  V30 BEGIN BOND
M  V30 1 1 1 2
M  V30 2 1 2 3
M  V30 3 2 3 4
M  V30 4 1 4 5
M  V30 5 2 5 6
M  V30 6 1 6 7
M  V30 7 2 7 8
M  V30 8 1 6 9
M  V30 9 2 9 10
M  V30 10 1 10 11
M  V30 11 1 11 12
M  V30 12 2 11 13
M  V30 13 1 13 14
M  V30 14 2 14 15
M  V30 15 1 13 16
M  V30 16 1 16 17
M  V30 17 2 16 18
M  V30 18 1 8 3
M  V30 19 1 18 9
M  V30 20 1 1 19
M  V30 21 1 1 20
M  V30 22 1 1 21
M  V30 23 1 4 22
M  V30 24 1 5 23
M  V30 25 1 7 24
M  V30 26 1 8 25
M  V30 27 1 12 26
M  V30 28 1 12 27
M  V30 29 1 17 28
M  V30 30 1 17 29
M  V30 END BOND
M  V30 END CTAB
M  END
