
     RDKit          3D

  0  0  0  0  0  0  0  0  0  0999 V3000
M  V30 BEGIN CTAB
M  V30 COUNTS 36 38 0 0 0
M  V30 BEGIN ATOM
M  V30 1 C 0.955901 -1.7857 -0.182604 0
M  V30 2 C 1.38602 -0.333769 7.98643e-05 0
M  V30 3 C 0.409906 0.61476 0.129059 0
M  V30 4 C -1.05587 0.662844 0.128759 0
M  V30 5 C -1.8441 -0.573421 0.198955 0
M  V30 6 C -3.30863 -0.171917 0.158592 0
M  V30 7 C -3.96733 -0.0598525 -1.04287 0
M  V30 8 C -5.30454 0.307695 -1.11032 0
M  V30 9 C -6.01129 0.571639 0.039777 0
M  V30 10 C -5.36455 0.463496 1.24828 0
M  V30 11 C -4.0208 0.093613 1.30474 0
M  V30 12 S 1.31705 2.06224 0.316423 0
M  V30 13 C 2.89196 1.42224 0.224427 0
M  V30 14 C 2.68058 0.0762603 0.0478295 0
M  V30 15 C 3.86756 -0.676677 -0.0657471 0
M  V30 16 N 3.91215 -2.07883 -0.263209 0
M  V30 17 N 5.06795 -0.0448601 0.00615448 0
M  V30 18 C 5.24536 1.25702 0.178165 0
M  V30 19 N 6.55311 1.79568 0.234412 0
M  V30 20 N 4.13808 1.9945 0.288006 0
M  V30 21 H 0.251979 -2.04336 0.671958 0
M  V30 22 H 0.484129 -1.89338 -1.17306 0
M  V30 23 H 1.73334 -2.50886 -0.0975811 0
M  V30 24 H -1.33394 1.16176 -0.85894 0
M  V30 25 H -1.43328 1.43691 0.872282 0
M  V30 26 H -1.78078 -1.09629 1.20135 0
M  V30 27 H -1.69905 -1.23396 -0.64973 0
M  V30 28 H -3.40524 -0.26928 -1.94912 0
M  V30 29 H -5.81248 0.39216 -2.06224 0
M  V30 30 H -7.07135 0.861972 -0.024595 0
M  V30 31 H -5.91857 0.671196 2.15204 0
M  V30 32 H -3.51825 0.00908332 2.24112 0
M  V30 33 H 4.03076 -2.70577 0.54465 0
M  V30 34 H 3.81739 -2.40489 -1.2697 0
M  V30 35 H 6.78455 2.67065 -0.290585 0
M  V30 36 H 7.32229 1.35509 0.787439 0
M  V30 END ATOM
M  V30 BEGIN BOND
M  V30 1 1 1 2
M  V30 2 2 2 3
M  V30 3 1 3 4
M  V30 4 1 4 5
M  V30 5 1 5 6
M  V30 6 2 6 7
M  V30 7 1 7 8
M  V30 8 2 8 9
M  V30 9 1 9 10
M  V30 10 2 10 11
M  V30 11 1 3 12
M  V30 12 1 12 13
M  V30 13 2 13 14
M  V30 14 1 14 15
M  V30 15 1 15 16
M  V30 16 2 15 17
M  V30 17 1 17 18
M  V30 18 1 18 19
M  V30 19 2 18 20
M  V30 20 1 14 2
M  V30 21 1 11 6
M  V30 22 1 20 13
M  V30 23 1 1 21
M  V30 24 1 1 22
M  V30 25 1 1 23
M  V30 26 1 4 24
M  V30 27 1 4 25
M  V30 28 1 5 26
M  V30 29 1 5 27
M  V30 30 1 7 28
M  V30 31 1 8 29
M  V30 32 1 9 30
M  V30 33 1 10 31
M  V30 34 1 11 32
M  V30 35 1 16 33
M  V30 36 1 16 34
M  V30 37 1 19 35
M  V30 38 1 19 36
M  V30 END BOND
M  V30 END CTAB
M  END
