
     RDKit          3D

  0  0  0  0  0  0  0  0  0  0999 V3000
M  V30 BEGIN CTAB
M  V30 COUNTS 34 35 0 0 0
M  V30 BEGIN ATOM
M  V30 1 N 4.69027 1.84713 0.980452 0
M  V30 2 C 3.92739 0.884041 0.2841 0
M  V30 3 C 4.53785 -0.11826 -0.414476 0
M  V30 4 C 3.75501 -1.03728 -1.08005 0
M  V30 5 C 2.38164 -0.940214 -1.03691 0
M  V30 6 C 1.78082 0.0821719 -0.32392 0
M  V30 7 N 2.59792 0.94785 0.304505 0
M  V30 8 C 0.290224 0.203871 -0.265433 0 CFG=1
M  V30 9 O -0.314472 0.0399028 -1.47863 0
M  V30 10 C -1.10742 -1.06243 -1.61588 0
M  V30 11 C -2.48922 -0.927162 -1.07958 0
M  V30 12 N -2.68592 -0.567494 0.234745 0
M  V30 13 C -1.67984 -0.123534 1.07175 0
M  V30 14 C -0.301211 -0.622756 0.846201 0
M  V30 15 S -4.16568 0.256509 0.543965 0
M  V30 16 O -5.28011 -0.638604 0.0513068 0
M  V30 17 O -4.29006 0.531239 2.01462 0
M  V30 18 N -4.22604 1.73516 -0.337067 0
M  V30 19 H 4.69552 1.85499 2.0105 0
M  V30 20 H 5.24327 2.54402 0.45923 0
M  V30 21 H 5.63154 -0.193364 -0.447274 0
M  V30 22 H 4.2278 -1.83592 -1.6369 0
M  V30 23 H 1.74614 -1.65745 -1.55683 0
M  V30 24 H 0.10313 1.27802 0.0407951 0
M  V30 25 H -1.21568 -1.22489 -2.73388 0
M  V30 26 H -0.610454 -2.02229 -1.29053 0
M  V30 27 H -3.02929 -0.190637 -1.74831 0
M  V30 28 H -3.01736 -1.90192 -1.29075 0
M  V30 29 H -1.94756 -0.352516 2.1453 0
M  V30 30 H -1.63543 1.00507 1.05114 0
M  V30 31 H -0.244458 -1.70034 0.688987 0
M  V30 32 H 0.320771 -0.407014 1.7579 0
M  V30 33 H -3.54902 1.74483 -1.13648 0
M  V30 34 H -4.14007 2.56928 0.284312 0
M  V30 END ATOM
M  V30 BEGIN BOND
M  V30 1 1 1 2
M  V30 2 2 2 3
M  V30 3 1 3 4
M  V30 4 2 4 5
M  V30 5 1 5 6
M  V30 6 2 6 7
M  V30 7 1 6 8
M  V30 8 1 8 9
M  V30 9 1 9 10
M  V30 10 1 10 11
M  V30 11 1 11 12
M  V30 12 1 12 13
M  V30 13 1 13 14
M  V30 14 1 12 15
M  V30 15 2 15 16
M  V30 16 2 15 17
M  V30 17 1 15 18
M  V30 18 1 7 2
M  V30 19 1 14 8
M  V30 20 1 1 19
M  V30 21 1 1 20
M  V30 22 1 3 21
M  V30 23 1 4 22
M  V30 24 1 5 23
M  V30 25 1 8 24 CFG=1
M  V30 26 1 10 25
M  V30 27 1 10 26
M  V30 28 1 11 27
M  V30 29 1 11 28
M  V30 30 1 13 29
M  V30 31 1 13 30
M  V30 32 1 14 31
M  V30 33 1 14 32
M  V30 34 1 18 33
M  V30 35 1 18 34
M  V30 END BOND
M  V30 END CTAB
M  END
