
     RDKit          3D

  0  0  0  0  0  0  0  0  0  0999 V3000
M  V30 BEGIN CTAB
M  V30 COUNTS 20 20 0 0 0
M  V30 BEGIN ATOM
M  V30 1 N 5.15026 -0.165452 -0.917149 0
M  V30 2 C 4.04035 -0.0956184 -0.590463 0
M  V30 3 C 2.67484 -0.00268883 -0.18671 0
M  V30 4 C 1.77697 -0.946053 -0.594985 0
M  V30 5 C 0.445594 -0.910359 -0.240065 0
M  V30 6 C -0.0497991 0.108618 0.565685 0
M  V30 7 C 0.870109 1.05405 0.969875 0
M  V30 8 C 2.20302 1.02995 0.622391 0
M  V30 9 Br 3.43617 2.35293 1.20108 0
M  V30 10 N -1.39365 0.0965525 0.889112 0
M  V30 11 C -2.43496 -0.0331873 0.205615 0
M  V30 12 N -3.69802 -0.00278043 0.830019 0
M  V30 13 N -2.36902 -0.205828 -1.19095 0
M  V30 14 H 2.14291 -1.74875 -1.22151 0
M  V30 15 H -0.18538 -1.70315 -0.611737 0
M  V30 16 H 0.486191 1.85059 1.59916 0
M  V30 17 H -4.03675 0.731251 1.46843 0
M  V30 18 H -4.3712 -0.801462 0.634525 0
M  V30 19 H -2.31509 -1.19691 -1.55919 0
M  V30 20 H -2.37255 0.588282 -1.87314 0
M  V30 END ATOM
M  V30 BEGIN BOND
M  V30 1 3 1 2
M  V30 2 1 2 3
M  V30 3 2 3 4
M  V30 4 1 4 5
M  V30 5 2 5 6
M  V30 6 1 6 7
M  V30 7 2 7 8
M  V30 8 1 8 9
M  V30 9 1 6 10
M  V30 10 2 10 11 CFG=2
M  V30 11 1 11 12
M  V30 12 1 11 13
M  V30 13 1 8 3
M  V30 14 1 4 14
M  V30 15 1 5 15
M  V30 16 1 7 16
M  V30 17 1 12 17
M  V30 18 1 12 18
M  V30 19 1 13 19
M  V30 20 1 13 20
M  V30 END BOND
M  V30 END CTAB
M  END
