
     RDKit          3D

  0  0  0  0  0  0  0  0  0  0999 V3000
M  V30 BEGIN CTAB
M  V30 COUNTS 44 47 0 0 0
M  V30 BEGIN ATOM
M  V30 1 N 0.680319 -4.04147 1.55753 0
M  V30 2 C -0.393455 -3.12536 1.42082 0
M  V30 3 N -1.70279 -3.27873 1.65021 0
M  V30 4 N -2.36227 -2.14231 1.38705 0
M  V30 5 C -1.43507 -1.23705 0.975996 0
M  V30 6 C -0.188315 -1.82249 0.98588 0
M  V30 7 N 1.02855 -1.19316 0.621693 0
M  V30 8 N 1.20968 -0.500832 -0.423174 0
M  V30 9 C 2.45346 0.108167 -0.739786 0
M  V30 10 C 3.32139 -0.547039 -1.58152 0
M  V30 11 C 4.55189 -0.024748 -1.93823 0
M  V30 12 C 4.92348 1.1853 -1.43921 0
M  V30 13 C 4.07875 1.89362 -0.57944 0
M  V30 14 C 2.86199 1.3306 -0.253603 0
M  V30 15 S 6.48879 1.84214 -1.89476 0
M  V30 16 O 6.3892 3.34537 -1.84511 0
M  V30 17 O 6.79632 1.43433 -3.30665 0
M  V30 18 N 7.71156 1.33505 -0.788621 0
M  V30 19 N -1.83965 0.0206492 0.639262 0
M  V30 20 C -3.10798 0.353853 0.710911 0
M  V30 21 C -4.05081 -0.581893 1.13385 0
M  V30 22 C -3.67081 -1.86129 1.48059 0
M  V30 23 O -4.53922 -2.67462 1.85483 0
M  V30 24 C -5.44974 -0.0900137 1.17902 0
M  V30 25 C -5.84234 0.651548 -0.0600954 0
M  V30 26 C -4.72231 1.45627 -0.663983 0
M  V30 27 C -3.59826 1.70034 0.352623 0
M  V30 28 H 1.37766 -3.88102 2.31007 0
M  V30 29 H 0.810404 -4.86909 0.943974 0
M  V30 30 H 3.031 -1.51328 -1.98314 0
M  V30 31 H 5.2167 -0.560596 -2.60248 0
M  V30 32 H 4.41892 2.84507 -0.212448 0
M  V30 33 H 2.21239 1.8814 0.410685 0
M  V30 34 H 7.27745 1.28324 0.157542 0
M  V30 35 H 7.95885 0.348093 -1.0503 0
M  V30 36 H -1.11484 0.694928 0.328384 0
M  V30 37 H -5.53939 0.617882 2.05493 0
M  V30 38 H -6.15089 -0.91512 1.41002 0
M  V30 39 H -6.14006 -0.128115 -0.819215 0
M  V30 40 H -6.75775 1.26714 0.090731 0
M  V30 41 H -5.12649 2.42582 -1.02256 0
M  V30 42 H -4.25395 0.865734 -1.46632 0
M  V30 43 H -2.82229 2.29136 -0.184134 0
M  V30 44 H -3.99009 2.26672 1.19817 0
M  V30 END ATOM
M  V30 BEGIN BOND
M  V30 1 1 1 2
M  V30 2 2 2 3
M  V30 3 1 3 4
M  V30 4 1 4 5
M  V30 5 2 5 6
M  V30 6 1 6 7
M  V30 7 2 7 8
M  V30 8 1 8 9
M  V30 9 2 9 10
M  V30 10 1 10 11
M  V30 11 2 11 12
M  V30 12 1 12 13
M  V30 13 2 13 14
M  V30 14 1 12 15
M  V30 15 2 15 16
M  V30 16 2 15 17
M  V30 17 1 15 18
M  V30 18 1 5 19
M  V30 19 1 19 20
M  V30 20 2 20 21
M  V30 21 1 21 22
M  V30 22 2 22 23
M  V30 23 1 21 24
M  V30 24 1 24 25
M  V30 25 1 25 26
M  V30 26 1 26 27
M  V30 27 1 6 2
M  V30 28 1 14 9
M  V30 29 1 27 20
M  V30 30 1 22 4
M  V30 31 1 1 28
M  V30 32 1 1 29
M  V30 33 1 10 30
M  V30 34 1 11 31
M  V30 35 1 13 32
M  V30 36 1 14 33
M  V30 37 1 18 34
M  V30 38 1 18 35
M  V30 39 1 19 36
M  V30 40 1 24 37
M  V30 41 1 24 38
M  V30 42 1 25 39
M  V30 43 1 25 40
M  V30 44 1 26 41
M  V30 45 1 26 42
M  V30 46 1 27 43
M  V30 47 1 27 44
M  V30 END BOND
M  V30 END CTAB
M  END
