
     RDKit          3D

  0  0  0  0  0  0  0  0  0  0999 V3000
M  V30 BEGIN CTAB
M  V30 COUNTS 28 28 0 0 0
M  V30 BEGIN ATOM
M  V30 1 C -0.979834 2.32793 0.662277 0
M  V30 2 C -1.55592 0.938201 0.719058 0
M  V30 3 C -0.877089 0.0883119 -0.304335 0
M  V30 4 N -1.11022 0.685277 -1.60522 0
M  V30 5 C -1.65177 -1.23466 -0.3365 0
M  V30 6 N -1.64198 -1.89924 0.934617 0
M  V30 7 C 0.553952 -0.122894 -0.134739 0
M  V30 8 C 1.21091 -0.112217 1.08252 0
M  V30 9 C 2.57328 -0.327129 1.18439 0
M  V30 10 C 3.33812 -0.565464 0.0367782 0
M  V30 11 C 2.71019 -0.580179 -1.17226 0
M  V30 12 C 1.34223 -0.361692 -1.24749 0
M  V30 13 H -1.25777 2.88495 1.58089 0
M  V30 14 H 0.0754849 2.37656 0.395182 0
M  V30 15 H -1.52529 2.87509 -0.164996 0
M  V30 16 H -2.62695 1.00938 0.433902 0
M  V30 17 H -1.54583 0.515764 1.74265 0
M  V30 18 H -0.345199 1.3702 -1.79535 0
M  V30 19 H -1.10021 -0.00520237 -2.38229 0
M  V30 20 H -2.70976 -0.941765 -0.551954 0
M  V30 21 H -1.32466 -1.86859 -1.17838 0
M  V30 22 H -1.19828 -2.85672 0.869686 0
M  V30 23 H -2.61927 -2.06959 1.30833 0
M  V30 24 H 0.611617 0.0721852 1.95608 0
M  V30 25 H 3.05647 -0.313915 2.1447 0
M  V30 26 H 4.40318 -0.734454 0.115044 0
M  V30 27 H 3.30162 -0.767114 -2.0601 0
M  V30 28 H 0.89298 -0.383034 -2.23249 0
M  V30 END ATOM
M  V30 BEGIN BOND
M  V30 1 1 1 2
M  V30 2 1 2 3
M  V30 3 1 3 4
M  V30 4 1 3 5
M  V30 5 1 5 6
M  V30 6 1 3 7
M  V30 7 2 7 8
M  V30 8 1 8 9
M  V30 9 2 9 10
M  V30 10 1 10 11
M  V30 11 2 11 12
M  V30 12 1 12 7
M  V30 13 1 1 13
M  V30 14 1 1 14
M  V30 15 1 1 15
M  V30 16 1 2 16
M  V30 17 1 2 17
M  V30 18 1 4 18
M  V30 19 1 4 19
M  V30 20 1 5 20
M  V30 21 1 5 21
M  V30 22 1 6 22
M  V30 23 1 6 23
M  V30 24 1 8 24
M  V30 25 1 9 25
M  V30 26 1 10 26
M  V30 27 1 11 27
M  V30 28 1 12 28
M  V30 END BOND
M  V30 END CTAB
M  END
