
     RDKit          3D

  0  0  0  0  0  0  0  0  0  0999 V3000
M  V30 BEGIN CTAB
M  V30 COUNTS 26 26 0 0 0
M  V30 BEGIN ATOM
M  V30 1 C 3.17133 1.34968 -1.02305 0
M  V30 2 C 2.48454 0.22396 -0.273263 0
M  V30 3 O 1.25304 -0.105814 -0.792108 0
M  V30 4 C 0.014544 -0.0609855 -0.203209 0
M  V30 5 C -0.22571 0.347712 1.0912 0
M  V30 6 C -1.49712 0.380408 1.65645 0
M  V30 7 C -2.57374 -0.0135645 0.891026 0
M  V30 8 C -2.38308 -0.430416 -0.409166 0
M  V30 9 C -1.11151 -0.448369 -0.930968 0
M  V30 10 F -0.944249 -0.85929 -2.20503 0
M  V30 11 N -3.52841 -0.830073 -1.16605 0
M  V30 12 N -3.87952 0.0122767 1.44871 0
M  V30 13 C 3.46637 -0.928579 -0.233995 0
M  V30 14 H 4.00089 0.963981 -1.64412 0
M  V30 15 H 3.58267 2.11793 -0.332838 0
M  V30 16 H 2.42893 1.8354 -1.7118 0
M  V30 17 H 2.36639 0.564303 0.773997 0
M  V30 18 H 0.589223 0.663372 1.72201 0
M  V30 19 H -1.66113 0.705589 2.67631 0
M  V30 20 H -3.65757 -0.646542 -2.1685 0
M  V30 21 H -4.27475 -1.3426 -0.647931 0
M  V30 22 H -4.73082 0.31644 0.932574 0
M  V30 23 H -3.97209 -0.297467 2.44221 0
M  V30 24 H 3.87221 -1.03135 -1.27404 0
M  V30 25 H 2.95104 -1.83907 0.102322 0
M  V30 26 H 4.25852 -0.646934 0.490475 0
M  V30 END ATOM
M  V30 BEGIN BOND
M  V30 1 1 1 2
M  V30 2 1 2 3
M  V30 3 1 3 4
M  V30 4 2 4 5
M  V30 5 1 5 6
M  V30 6 2 6 7
M  V30 7 1 7 8
M  V30 8 2 8 9
M  V30 9 1 9 10
M  V30 10 1 8 11
M  V30 11 1 7 12
M  V30 12 1 2 13
M  V30 13 1 9 4
M  V30 14 1 1 14
M  V30 15 1 1 15
M  V30 16 1 1 16
M  V30 17 1 2 17
M  V30 18 1 5 18
M  V30 19 1 6 19
M  V30 20 1 11 20
M  V30 21 1 11 21
M  V30 22 1 12 22
M  V30 23 1 12 23
M  V30 24 1 13 24
M  V30 25 1 13 25
M  V30 26 1 13 26
M  V30 END BOND
M  V30 END CTAB
M  END
