
     RDKit          3D

  0  0  0  0  0  0  0  0  0  0999 V3000
M  V30 BEGIN CTAB
M  V30 COUNTS 26 26 0 0 0
M  V30 BEGIN ATOM
M  V30 1 C 2.64835 -1.05963 -0.615882 0
M  V30 2 C 2.38928 -0.70698 0.829355 0
M  V30 3 C 1.33875 0.376318 0.850669 0
M  V30 4 C 0.0716196 -0.0660621 0.220269 0
M  V30 5 N -0.128492 -1.2844 -0.309938 0
M  V30 6 C -1.32099 -1.61269 -0.870205 0
M  V30 7 N -1.54674 -2.89954 -1.43551 0
M  V30 8 N -2.31858 -0.703122 -0.894851 0
M  V30 9 C -2.18354 0.525778 -0.384538 0
M  V30 10 C -0.964569 0.842106 0.180946 0
M  V30 11 C -0.77926 2.21235 0.762698 0
M  V30 12 N -1.97125 2.98659 0.61602 0
M  V30 13 H 2.1169 -0.411923 -1.32788 0
M  V30 14 H 2.28759 -2.10642 -0.766558 0
M  V30 15 H 3.74509 -0.988201 -0.874007 0
M  V30 16 H 2.09539 -1.5781 1.44614 0
M  V30 17 H 3.34606 -0.339648 1.24815 0
M  V30 18 H 1.65245 1.3025 0.379067 0
M  V30 19 H 1.11499 0.58021 1.92209 0
M  V30 20 H -0.797102 -3.43027 -1.93122 0
M  V30 21 H -2.48552 -3.34854 -1.36482 0
M  V30 22 H -2.977 1.26058 -0.399887 0
M  V30 23 H 0.0475357 2.6724 0.152995 0
M  V30 24 H -0.481236 2.07355 1.81343 0
M  V30 25 H -2.15046 3.12967 -0.392846 0
M  V30 26 H -2.74927 2.57348 1.14631 0
M  V30 END ATOM
M  V30 BEGIN BOND
M  V30 1 1 1 2
M  V30 2 1 2 3
M  V30 3 1 3 4
M  V30 4 2 4 5
M  V30 5 1 5 6
M  V30 6 1 6 7
M  V30 7 2 6 8
M  V30 8 1 8 9
M  V30 9 2 9 10
M  V30 10 1 10 11
M  V30 11 1 11 12
M  V30 12 1 10 4
M  V30 13 1 1 13
M  V30 14 1 1 14
M  V30 15 1 1 15
M  V30 16 1 2 16
M  V30 17 1 2 17
M  V30 18 1 3 18
M  V30 19 1 3 19
M  V30 20 1 7 20
M  V30 21 1 7 21
M  V30 22 1 9 22
M  V30 23 1 11 23
M  V30 24 1 11 24
M  V30 25 1 12 25
M  V30 26 1 12 26
M  V30 END BOND
M  V30 END CTAB
M  END
