
     RDKit          3D

  0  0  0  0  0  0  0  0  0  0999 V3000
M  V30 BEGIN CTAB
M  V30 COUNTS 34 34 0 0 0
M  V30 BEGIN ATOM
M  V30 1 N 3.1325 1.37166 0.427426 0
M  V30 2 C 3.02762 -0.070726 0.563112 0
M  V30 3 C 2.06908 -0.645383 -0.44189 0
M  V30 4 C 0.68133 -0.137739 -0.364827 0
M  V30 5 C -0.194773 -0.827007 -1.47477 0
M  V30 6 C -1.50918 -0.474922 -1.1294 0
M  V30 7 C -2.90699 -0.329363 -1.14832 0
M  V30 8 C -3.22542 0.371948 0.21779 0
M  V30 9 C -2.1934 1.2664 0.734992 0
M  V30 10 C -0.937591 0.948148 1.36259 0
M  V30 11 C 0.0414961 -0.0693148 0.961706 0
M  V30 12 N 2.16156 -2.0913 -0.451917 0
M  V30 13 H 3.21647 1.62631 -0.582035 0
M  V30 14 H 3.9754 1.66698 0.969143 0
M  V30 15 H 2.85054 -0.363012 1.59553 0
M  V30 16 H 4.0461 -0.453118 0.252113 0
M  V30 17 H 2.47336 -0.327963 -1.45053 0
M  V30 18 H 0.715531 0.932527 -0.739103 0
M  V30 19 H 0.134725 -1.90272 -1.46513 0
M  V30 20 H 0.185867 -0.43086 -2.43828 0
M  V30 21 H -1.49173 -1.05803 -0.172721 0
M  V30 22 H -1.32308 0.633253 -1.15567 0
M  V30 23 H -3.48461 -1.27787 -1.16731 0
M  V30 24 H -3.37278 0.281615 -1.97724 0
M  V30 25 H -3.47972 -0.467604 0.927501 0
M  V30 26 H -4.14559 0.938153 0.0303816 0
M  V30 27 H -2.76695 1.87712 1.52688 0
M  V30 28 H -2.07533 2.10851 -0.0262041 0
M  V30 29 H -0.367731 1.93393 1.41751 0
M  V30 30 H -1.10014 0.737086 2.4705 0
M  V30 31 H -0.234459 -1.08963 1.38636 0
M  V30 32 H 0.93337 0.141282 1.65101 0
M  V30 33 H 2.04535 -2.46092 0.510107 0
M  V30 34 H 3.11917 -2.35743 -0.81928 0
M  V30 END ATOM
M  V30 BEGIN BOND
M  V30 1 1 1 2
M  V30 2 1 2 3
M  V30 3 1 3 4
M  V30 4 1 4 5
M  V30 5 1 5 6
M  V30 6 1 6 7
M  V30 7 1 7 8
M  V30 8 1 8 9
M  V30 9 1 9 10
M  V30 10 1 10 11
M  V30 11 1 3 12
M  V30 12 1 11 4
M  V30 13 1 1 13
M  V30 14 1 1 14
M  V30 15 1 2 15
M  V30 16 1 2 16
M  V30 17 1 3 17
M  V30 18 1 4 18
M  V30 19 1 5 19
M  V30 20 1 5 20
M  V30 21 1 6 21
M  V30 22 1 6 22
M  V30 23 1 7 23
M  V30 24 1 7 24
M  V30 25 1 8 25
M  V30 26 1 8 26
M  V30 27 1 9 27
M  V30 28 1 9 28
M  V30 29 1 10 29
M  V30 30 1 10 30
M  V30 31 1 11 31
M  V30 32 1 11 32
M  V30 33 1 12 33
M  V30 34 1 12 34
M  V30 END BOND
M  V30 END CTAB
M  END
