
     RDKit          3D

  0  0  0  0  0  0  0  0  0  0999 V3000
M  V30 BEGIN CTAB
M  V30 COUNTS 18 18 0 0 0
M  V30 BEGIN ATOM
M  V30 1 N 3.48288 -0.127643 0.831793 0
M  V30 2 C 2.09122 -0.0889884 0.547507 0
M  V30 3 C 1.52275 1.11422 0.186165 0
M  V30 4 C 0.165832 1.19353 -0.0996245 0
M  V30 5 C -0.6107 0.0562551 -0.0189447 0
M  V30 6 C 0.00574371 -1.12204 0.346779 0
M  V30 7 N 1.31907 -1.21264 0.626246 0
M  V30 8 C -2.02814 0.0869639 -0.306728 0
M  V30 9 N -2.58494 1.19453 -0.646056 0
M  V30 10 N -2.80539 -1.07853 -0.220311 0
M  V30 11 H 3.87386 -0.797199 1.53056 0
M  V30 12 H 4.12983 0.523655 0.335108 0
M  V30 13 H 2.17022 1.97772 0.136387 0
M  V30 14 H -0.27237 2.15978 -0.386162 0
M  V30 15 H -0.568677 -2.04495 0.423315 0
M  V30 16 H -3.60415 1.25003 -0.859881 0
M  V30 17 H -3.68254 -1.18626 -0.81015 0
M  V30 18 H -2.60451 -1.89843 0.395494 0
M  V30 END ATOM
M  V30 BEGIN BOND
M  V30 1 1 1 2
M  V30 2 2 2 3
M  V30 3 1 3 4
M  V30 4 2 4 5
M  V30 5 1 5 6
M  V30 6 2 6 7
M  V30 7 1 5 8
M  V30 8 2 8 9 CFG=2
M  V30 9 1 8 10
M  V30 10 1 7 2
M  V30 11 1 1 11
M  V30 12 1 1 12
M  V30 13 1 3 13
M  V30 14 1 4 14
M  V30 15 1 6 15
M  V30 16 1 9 16
M  V30 17 1 10 17
M  V30 18 1 10 18
M  V30 END BOND
M  V30 END CTAB
M  END
