
     RDKit          3D

  0  0  0  0  0  0  0  0  0  0999 V3000
M  V30 BEGIN CTAB
M  V30 COUNTS 29 29 0 0 0
M  V30 BEGIN ATOM
M  V30 1 C 4.0983 0.176049 -0.940934 0
M  V30 2 C 3.96249 -0.271159 0.495705 0
M  V30 3 O 2.87849 0.327717 1.17263 0
M  V30 4 C 1.57237 0.164699 0.73915 0
M  V30 5 O 1.44621 -0.562143 -0.308441 0
M  V30 6 C 0.404904 0.76246 1.40807 0
M  V30 7 C -0.815303 0.370011 0.638921 0
M  V30 8 C -1.65645 -0.63107 1.07217 0
M  V30 9 C -2.78478 -1.00338 0.35189 0
M  V30 10 N -3.60471 -2.05787 0.856111 0
M  V30 11 C -3.07435 -0.352151 -0.830194 0
M  V30 12 C -2.25847 0.641808 -1.27976 0
M  V30 13 C -1.14731 0.994166 -0.55385 0
M  V30 14 N -0.325744 2.03339 -1.05412 0
M  V30 15 O -4.21287 -0.741108 -1.53539 0
M  V30 16 H 3.88036 1.25477 -1.06091 0
M  V30 17 H 3.53526 -0.476359 -1.62719 0
M  V30 18 H 5.18725 0.0251677 -1.21355 0
M  V30 19 H 3.88841 -1.38253 0.502603 0
M  V30 20 H 4.88332 -0.0104279 1.05843 0
M  V30 21 H 0.261056 0.384136 2.44295 0
M  V30 22 H 0.505472 1.86063 1.50352 0
M  V30 23 H -1.43893 -1.14646 1.99986 0
M  V30 24 H -3.52798 -2.99562 0.407927 0
M  V30 25 H -4.23872 -1.83674 1.64901 0
M  V30 26 H -2.49866 1.14604 -2.2066 0
M  V30 27 H 0.27465 1.83238 -1.87295 0
M  V30 28 H -0.365038 2.95575 -0.576209 0
M  V30 29 H -4.82923 -1.46215 -1.23886 0
M  V30 END ATOM
M  V30 BEGIN BOND
M  V30 1 1 1 2
M  V30 2 1 2 3
M  V30 3 1 3 4
M  V30 4 2 4 5
M  V30 5 1 4 6
M  V30 6 1 6 7
M  V30 7 2 7 8
M  V30 8 1 8 9
M  V30 9 1 9 10
M  V30 10 2 9 11
M  V30 11 1 11 12
M  V30 12 2 12 13
M  V30 13 1 13 14
M  V30 14 1 11 15
M  V30 15 1 13 7
M  V30 16 1 1 16
M  V30 17 1 1 17
M  V30 18 1 1 18
M  V30 19 1 2 19
M  V30 20 1 2 20
M  V30 21 1 6 21
M  V30 22 1 6 22
M  V30 23 1 8 23
M  V30 24 1 10 24
M  V30 25 1 10 25
M  V30 26 1 12 26
M  V30 27 1 14 27
M  V30 28 1 14 28
M  V30 29 1 15 29
M  V30 END BOND
M  V30 END CTAB
M  END
