
     RDKit          3D

  0  0  0  0  0  0  0  0  0  0999 V3000
M  V30 BEGIN CTAB
M  V30 COUNTS 51 52 0 0 0
M  V30 BEGIN ATOM
M  V30 1 N 0.30125 1.75422 -0.189792 0
M  V30 2 C -0.38779 0.472448 -0.280617 0
M  V30 3 N 0.233954 -0.584136 -0.386534 0
M  V30 4 O 1.4486 -1.01919 -0.446057 0
M  V30 5 C 2.51743 -0.281272 -0.983731 0
M  V30 6 C 3.5747 -0.264864 0.207529 0
M  V30 7 O 4.58678 0.429257 -0.307198 0
M  V30 8 C 5.80909 0.0871878 0.106525 0
M  V30 9 C 6.31837 0.280361 1.45667 0
M  V30 10 C 5.84837 -1.49314 -0.079336 0
M  V30 11 C 6.75677 0.574088 -0.940146 0
M  V30 12 C -1.85257 0.427855 -0.0918657 0
M  V30 13 C -2.72245 -0.465091 -0.262398 0
M  V30 14 N -2.51598 -1.82024 -0.735492 0
M  V30 15 C -4.0655 0.0563873 0.15349 0
M  V30 16 N -3.6804 0.861304 1.29331 0
M  V30 17 C -2.41752 1.40034 0.927302 0
M  V30 18 O -1.84033 2.4485 1.3086 0
M  V30 19 C -4.33525 1.02509 2.56322 0
M  V30 20 C -4.80121 0.925709 -0.82747 0
M  V30 21 C -5.93547 0.118298 -1.38268 0
M  V30 22 C -5.86083 -1.25027 -0.722066 0
M  V30 23 C -5.03059 -1.02218 0.510659 0
M  V30 24 H 0.275323 2.30054 -1.04732 0
M  V30 25 H 0.750319 2.06502 0.691035 0
M  V30 26 H 3.04438 -0.95761 -1.74114 0
M  V30 27 H 2.4022 0.681901 -1.35168 0
M  V30 28 H 2.94051 0.547906 0.858512 0
M  V30 29 H 3.53148 -1.07281 0.839254 0
M  V30 30 H 5.82525 -0.265265 2.29293 0
M  V30 31 H 7.38923 -0.164905 1.43127 0
M  V30 32 H 6.56353 1.35332 1.72582 0
M  V30 33 H 5.20462 -1.96476 0.684985 0
M  V30 34 H 5.524 -1.71243 -1.11323 0
M  V30 35 H 6.8503 -1.78759 0.105158 0
M  V30 36 H 7.79519 0.274873 -0.825581 0
M  V30 37 H 6.3691 0.131687 -1.93777 0
M  V30 38 H 6.61588 1.68319 -0.997326 0
M  V30 39 H -2.2424 -1.9904 -1.73996 0
M  V30 40 H -2.6835 -2.62399 -0.122586 0
M  V30 41 H -4.26298 2.12625 2.81682 0
M  V30 42 H -3.67273 0.492735 3.3396 0
M  V30 43 H -5.3517 0.670179 2.56319 0
M  V30 44 H -5.30343 1.76322 -0.218596 0
M  V30 45 H -4.20177 1.38518 -1.61367 0
M  V30 46 H -6.93032 0.588499 -1.1735 0
M  V30 47 H -5.83384 0.029763 -2.47109 0
M  V30 48 H -6.89666 -1.56138 -0.421034 0
M  V30 49 H -5.45606 -2.00757 -1.38567 0
M  V30 50 H -4.50297 -1.96993 0.780078 0
M  V30 51 H -5.69238 -0.676286 1.29968 0
M  V30 END ATOM
M  V30 BEGIN BOND
M  V30 1 1 1 2
M  V30 2 2 2 3 CFG=2
M  V30 3 1 3 4
M  V30 4 1 4 5
M  V30 5 1 5 6
M  V30 6 1 6 7
M  V30 7 1 7 8
M  V30 8 1 8 9
M  V30 9 1 8 10
M  V30 10 1 8 11
M  V30 11 1 2 12
M  V30 12 2 12 13
M  V30 13 1 13 14
M  V30 14 1 13 15
M  V30 15 1 15 16
M  V30 16 1 16 17
M  V30 17 2 17 18
M  V30 18 1 16 19
M  V30 19 1 15 20
M  V30 20 1 20 21
M  V30 21 1 21 22
M  V30 22 1 22 23
M  V30 23 1 17 12
M  V30 24 1 23 15
M  V30 25 1 1 24
M  V30 26 1 1 25
M  V30 27 1 5 26
M  V30 28 1 5 27
M  V30 29 1 6 28
M  V30 30 1 6 29
M  V30 31 1 9 30
M  V30 32 1 9 31
M  V30 33 1 9 32
M  V30 34 1 10 33
M  V30 35 1 10 34
M  V30 36 1 10 35
M  V30 37 1 11 36
M  V30 38 1 11 37
M  V30 39 1 11 38
M  V30 40 1 14 39
M  V30 41 1 14 40
M  V30 42 1 19 41
M  V30 43 1 19 42
M  V30 44 1 19 43
M  V30 45 1 20 44
M  V30 46 1 20 45
M  V30 47 1 21 46
M  V30 48 1 21 47
M  V30 49 1 22 48
M  V30 50 1 22 49
M  V30 51 1 23 50
M  V30 52 1 23 51
M  V30 END BOND
M  V30 END CTAB
M  END
