
     RDKit          3D

  0  0  0  0  0  0  0  0  0  0999 V3000
M  V30 BEGIN CTAB
M  V30 COUNTS 18 19 0 0 0
M  V30 BEGIN ATOM
M  V30 1 N -4.52634 0.0841843 -0.545979 0
M  V30 2 C -3.14655 -0.146835 -0.174164 0
M  V30 3 N -2.67585 -0.947061 0.769774 0
M  V30 4 C -1.39726 -1.03041 0.966245 0
M  V30 5 C -0.582718 -0.269607 0.169562 0
M  V30 6 S -1.71774 0.526859 -0.823146 0
M  V30 7 C 0.879342 -0.199995 0.207427 0
M  V30 8 N 1.65025 -0.896778 1.05822 0
M  V30 9 N 2.92369 -0.596542 0.819783 0
M  V30 10 C 2.97882 0.294764 -0.185399 0
M  V30 11 N 1.699 0.523638 -0.546803 0
M  V30 12 N 4.18236 0.843864 -0.711304 0
M  V30 13 H -5.23877 -0.2265 0.120629 0
M  V30 14 H -4.71026 0.541596 -1.44745 0
M  V30 15 H -0.980774 -1.69982 1.75769 0
M  V30 16 H 1.40854 1.17311 -1.30563 0
M  V30 17 H 4.93172 0.16087 -0.959032 0
M  V30 18 H 4.32255 1.86466 -0.84699 0
M  V30 END ATOM
M  V30 BEGIN BOND
M  V30 1 1 1 2
M  V30 2 2 2 3
M  V30 3 1 3 4
M  V30 4 2 4 5
M  V30 5 1 5 6
M  V30 6 1 5 7
M  V30 7 2 7 8
M  V30 8 1 8 9
M  V30 9 2 9 10
M  V30 10 1 10 11
M  V30 11 1 10 12
M  V30 12 1 6 2
M  V30 13 1 11 7
M  V30 14 1 1 13
M  V30 15 1 1 14
M  V30 16 1 4 15
M  V30 17 1 11 16
M  V30 18 1 12 17
M  V30 19 1 12 18
M  V30 END BOND
M  V30 END CTAB
M  END
