
     RDKit          3D

  0  0  0  0  0  0  0  0  0  0999 V3000
M  V30 BEGIN CTAB
M  V30 COUNTS 30 31 0 0 0
M  V30 BEGIN ATOM
M  V30 1 N -5.3803 0.743509 -0.503161 0
M  V30 2 C -4.88569 -0.112158 0.512299 0
M  V30 3 N -5.66851 -0.685852 1.35708 0
M  V30 4 N -3.49422 -0.356942 0.618879 0
M  V30 5 C -2.5581 0.233295 -0.269476 0
M  V30 6 O -3.00234 0.990907 -1.1676 0
M  V30 7 C -1.13304 -0.00420709 -0.177096 0
M  V30 8 C -0.215936 0.562966 -1.03332 0
M  V30 9 N -0.712651 1.4308 -2.06397 0
M  V30 10 N 1.08862 0.301864 -0.893126 0
M  V30 11 C 1.51523 -0.53095 0.103296 0
M  V30 12 N 2.88981 -0.818365 0.266641 0
M  V30 13 C 3.84332 -0.228155 -0.624132 0
M  V30 14 C 5.27604 -0.595993 -0.366838 0
M  V30 15 C 4.81634 0.790418 -0.165226 0
M  V30 16 C 0.596658 -1.10793 0.972203 0
M  V30 17 Cl 1.14853 -2.1808 2.25549 0
M  V30 18 N -0.698734 -0.823163 0.800564 0
M  V30 19 H -5.84656 0.371021 -1.35879 0
M  V30 20 H -5.29501 1.7808 -0.430181 0
M  V30 21 H -5.31908 -1.31728 2.10872 0
M  V30 22 H -3.10046 -0.984248 1.35872 0
M  V30 23 H -0.967821 1.02954 -2.98794 0
M  V30 24 H -0.814703 2.45251 -1.88291 0
M  V30 25 H 3.19566 -1.44343 1.01651 0
M  V30 26 H 3.486 -0.144678 -1.67425 0
M  V30 27 H 5.83212 -0.903318 -1.27438 0
M  V30 28 H 5.55255 -1.15988 0.528406 0
M  V30 29 H 4.71135 1.18112 0.860947 0
M  V30 30 H 5.14094 1.5286 -0.90081 0
M  V30 END ATOM
M  V30 BEGIN BOND
M  V30 1 1 1 2
M  V30 2 2 2 3 CFG=2
M  V30 3 1 2 4
M  V30 4 1 4 5
M  V30 5 2 5 6
M  V30 6 1 5 7
M  V30 7 2 7 8
M  V30 8 1 8 9
M  V30 9 1 8 10
M  V30 10 2 10 11
M  V30 11 1 11 12
M  V30 12 1 12 13
M  V30 13 1 13 14
M  V30 14 1 14 15
M  V30 15 1 11 16
M  V30 16 1 16 17
M  V30 17 2 16 18
M  V30 18 1 18 7
M  V30 19 1 15 13
M  V30 20 1 1 19
M  V30 21 1 1 20
M  V30 22 1 3 21
M  V30 23 1 4 22
M  V30 24 1 9 23
M  V30 25 1 9 24
M  V30 26 1 12 25
M  V30 27 1 13 26
M  V30 28 1 14 27
M  V30 29 1 14 28
M  V30 30 1 15 29
M  V30 31 1 15 30
M  V30 END BOND
M  V30 END CTAB
M  END
