
     RDKit          3D

  0  0  0  0  0  0  0  0  0  0999 V3000
M  V30 BEGIN CTAB
M  V30 COUNTS 39 40 0 0 0
M  V30 BEGIN ATOM
M  V30 1 O -2.2438 -1.32542 0.937258 0
M  V30 2 C -2.03812 -1.04109 -0.267652 0
M  V30 3 C -2.8185 0.0157414 -0.865583 0
M  V30 4 C -2.71763 0.447938 -2.16275 0
M  V30 5 N -3.6075 1.45999 -2.37734 0
M  V30 6 N -4.2557 1.6578 -1.23032 0
M  V30 7 C -3.79841 0.794704 -0.291258 0
M  V30 8 N -4.28036 0.743704 1.03953 0
M  V30 9 C -5.29798 2.6518 -1.01912 0
M  V30 10 N -1.05227 -1.7754 -0.966734 0
M  V30 11 C -0.267465 -2.82244 -0.403598 0
M  V30 12 C 0.598666 -2.47914 0.745344 0
M  V30 13 C 1.62728 -1.46984 0.52474 0
M  V30 14 C 1.42987 -0.130527 0.752751 0
M  V30 15 C 2.46617 0.763451 0.509673 0
M  V30 16 C 3.68867 0.315337 0.0422239 0
M  V30 17 C 3.87315 -1.03503 -0.182553 0
M  V30 18 C 2.85938 -1.93896 0.0516158 0
M  V30 19 S 4.95065 1.47692 -0.245005 0
M  V30 20 O 4.42939 2.7925 -0.727688 0
M  V30 21 O 5.88105 0.959077 -1.332 0
M  V30 22 N 5.92853 1.72727 1.15269 0
M  V30 23 H -2.0645 0.100442 -2.96043 0
M  V30 24 H -3.64027 0.55365 1.82884 0
M  V30 25 H -5.29823 0.900942 1.22233 0
M  V30 26 H -5.55811 2.69409 0.0479487 0
M  V30 27 H -6.23106 2.36972 -1.56557 0
M  V30 28 H -4.9293 3.65021 -1.35529 0
M  V30 29 H -0.897277 -1.52323 -1.96664 0
M  V30 30 H -1.00551 -3.59214 -0.0249347 0
M  V30 31 H 0.333883 -3.37597 -1.14747 0
M  V30 32 H -0.0334949 -2.16736 1.62762 0
M  V30 33 H 1.07278 -3.44079 1.09297 0
M  V30 34 H 0.468446 0.191851 1.12084 0
M  V30 35 H 2.26092 1.80069 0.703829 0
M  V30 36 H 4.83061 -1.3869 -0.548696 0
M  V30 37 H 3.03364 -2.99071 -0.133791 0
M  V30 38 H 6.85106 2.13589 0.868598 0
M  V30 39 H 5.45134 2.29122 1.88609 0
M  V30 END ATOM
M  V30 BEGIN BOND
M  V30 1 2 1 2
M  V30 2 1 2 3
M  V30 3 1 3 4
M  V30 4 2 4 5
M  V30 5 1 5 6
M  V30 6 1 6 7
M  V30 7 1 7 8
M  V30 8 1 6 9
M  V30 9 1 2 10
M  V30 10 1 10 11
M  V30 11 1 11 12
M  V30 12 1 12 13
M  V30 13 2 13 14
M  V30 14 1 14 15
M  V30 15 2 15 16
M  V30 16 1 16 17
M  V30 17 2 17 18
M  V30 18 1 16 19
M  V30 19 2 19 20
M  V30 20 2 19 21
M  V30 21 1 19 22
M  V30 22 2 7 3
M  V30 23 1 18 13
M  V30 24 1 4 23
M  V30 25 1 8 24
M  V30 26 1 8 25
M  V30 27 1 9 26
M  V30 28 1 9 27
M  V30 29 1 9 28
M  V30 30 1 10 29
M  V30 31 1 11 30
M  V30 32 1 11 31
M  V30 33 1 12 32
M  V30 34 1 12 33
M  V30 35 1 14 34
M  V30 36 1 15 35
M  V30 37 1 17 36
M  V30 38 1 18 37
M  V30 39 1 22 38
M  V30 40 1 22 39
M  V30 END BOND
M  V30 END CTAB
M  END
