
     RDKit          3D

  0  0  0  0  0  0  0  0  0  0999 V3000
M  V30 BEGIN CTAB
M  V30 COUNTS 15 14 0 0 0
M  V30 BEGIN ATOM
M  V30 1 N -0.0191722 0.413211 1.53128 0
M  V30 2 C -0.0349918 0.216744 0.0979879 0
M  V30 3 N -0.0815327 1.50185 -0.533004 0
M  V30 4 C 1.24482 -0.513208 -0.317278 0
M  V30 5 F 2.28944 0.318798 0.0770139 0
M  V30 6 F 1.29532 -0.675691 -1.67331 0
M  V30 7 F 1.28677 -1.70989 0.366532 0
M  V30 8 C -1.19786 -0.659629 -0.324455 0
M  V30 9 F -1.12866 -1.89285 0.260678 0
M  V30 10 F -2.39781 -0.0507744 -0.0341014 0
M  V30 11 F -1.12441 -0.782557 -1.69831 0
M  V30 12 H -0.335917 -0.40987 2.06865 0
M  V30 13 H 0.992839 0.574252 1.8096 0
M  V30 14 H -0.70814 2.1726 -0.0768135 0
M  V30 15 H -0.080686 1.49702 -1.55447 0
M  V30 END ATOM
M  V30 BEGIN BOND
M  V30 1 1 1 2
M  V30 2 1 2 3
M  V30 3 1 2 4
M  V30 4 1 4 5
M  V30 5 1 4 6
M  V30 6 1 4 7
M  V30 7 1 2 8
M  V30 8 1 8 9
M  V30 9 1 8 10
M  V30 10 1 8 11
M  V30 11 1 1 12
M  V30 12 1 1 13
M  V30 13 1 3 14
M  V30 14 1 3 15
M  V30 END BOND
M  V30 END CTAB
M  END
