
     RDKit          3D

  0  0  0  0  0  0  0  0  0  0999 V3000
M  V30 BEGIN CTAB
M  V30 COUNTS 34 35 0 0 0
M  V30 BEGIN ATOM
M  V30 1 O -0.73665 -0.747025 1.25986 0
M  V30 2 C -0.667291 -0.143872 0.161936 0
M  V30 3 C 0.714386 0.111508 -0.327076 0
M  V30 4 O 0.793932 0.706282 -1.41003 0
M  V30 5 N 1.78342 -0.336455 0.46845 0
M  V30 6 C 3.15355 -0.189369 0.166636 0
M  V30 7 C 4.08151 -0.454496 1.17839 0
M  V30 8 C 5.4154 -0.337083 0.91793 0
M  V30 9 C 5.90286 0.0386992 -0.322231 0
M  V30 10 C 5.0167 0.29822 -1.31093 0
M  V30 11 C 3.643 0.18117 -1.0568 0
M  V30 12 Cl 5.54232 0.77767 -2.90345 0
M  V30 13 N 7.31194 0.140191 -0.518985 0
M  V30 14 N -1.74165 0.294529 -0.616006 0
M  V30 15 C -3.11785 0.153323 -0.334683 0
M  V30 16 C -3.65422 -0.451993 0.774337 0
M  V30 17 C -5.03529 -0.561377 0.998082 0
M  V30 18 C -5.92924 -0.0537731 0.0924965 0
M  V30 19 C -5.40877 0.556177 -1.02467 0
M  V30 20 C -4.06199 0.665928 -1.24844 0
M  V30 21 Cl -6.54605 1.2095 -2.19052 0
M  V30 22 N -7.34053 -0.136951 0.269216 0
M  V30 23 H 1.53867 -0.846174 1.39942 0
M  V30 24 H 3.73568 -0.744971 2.14218 0
M  V30 25 H 6.16482 -0.540526 1.69827 0
M  V30 26 H 2.98872 0.392158 -1.88881 0
M  V30 27 H 7.85596 -0.695651 -0.829616 0
M  V30 28 H 7.82835 1.03095 -0.362183 0
M  V30 29 H -1.47582 0.789408 -1.52058 0
M  V30 30 H -2.99031 -0.873705 1.52804 0
M  V30 31 H -5.38411 -1.05245 1.8962 0
M  V30 32 H -3.66232 1.15401 -2.1421 0
M  V30 33 H -7.95679 -0.00573087 -0.547771 0
M  V30 34 H -7.76233 -0.32812 1.2096 0
M  V30 END ATOM
M  V30 BEGIN BOND
M  V30 1 2 1 2
M  V30 2 1 2 3
M  V30 3 2 3 4
M  V30 4 1 3 5
M  V30 5 1 5 6
M  V30 6 2 6 7
M  V30 7 1 7 8
M  V30 8 2 8 9
M  V30 9 1 9 10
M  V30 10 2 10 11
M  V30 11 1 10 12
M  V30 12 1 9 13
M  V30 13 1 2 14
M  V30 14 1 14 15
M  V30 15 2 15 16
M  V30 16 1 16 17
M  V30 17 2 17 18
M  V30 18 1 18 19
M  V30 19 2 19 20
M  V30 20 1 19 21
M  V30 21 1 18 22
M  V30 22 1 11 6
M  V30 23 1 20 15
M  V30 24 1 5 23
M  V30 25 1 7 24
M  V30 26 1 8 25
M  V30 27 1 11 26
M  V30 28 1 13 27
M  V30 29 1 13 28
M  V30 30 1 14 29
M  V30 31 1 16 30
M  V30 32 1 17 31
M  V30 33 1 20 32
M  V30 34 1 22 33
M  V30 35 1 22 34
M  V30 END BOND
M  V30 END CTAB
M  END
