
     RDKit          3D

  0  0  0  0  0  0  0  0  0  0999 V3000
M  V30 BEGIN CTAB
M  V30 COUNTS 32 34 0 0 0
M  V30 BEGIN ATOM
M  V30 1 C -2.3849 3.03371 -0.748401 0
M  V30 2 C -1.98256 1.66065 -0.359786 0
M  V30 3 C -2.94531 0.741166 -0.00836031 0
M  V30 4 C -2.64452 -0.547049 0.361919 0
M  V30 5 N -3.65723 -1.46844 0.717627 0
M  V30 6 C -1.2911 -0.904745 0.370758 0
M  V30 7 C -0.955265 -2.27796 0.764355 0
M  V30 8 C -0.281469 -0.031408 0.0299223 0
M  V30 9 C -0.661338 1.25772 -0.334784 0
M  V30 10 N 0.492115 1.90111 -0.616208 0
M  V30 11 C 1.54939 1.10667 -0.452382 0
M  V30 12 C 1.09529 -0.141264 -0.0385061 0
M  V30 13 C 1.9803 -1.16812 0.208871 0
M  V30 14 C 3.33555 -0.96966 0.0480707 0
M  V30 15 N 4.27738 -2.00271 0.293124 0
M  V30 16 C 3.82767 0.259321 -0.362837 0
M  V30 17 C 2.91455 1.25917 -0.599909 0
M  V30 18 H -3.12253 3.46845 -0.0321706 0
M  V30 19 H -2.79674 3.05947 -1.7817 0
M  V30 20 H -1.48858 3.69918 -0.764311 0
M  V30 21 H -4.01256 1.0091 -0.0110277 0
M  V30 22 H -4.30563 -1.24082 1.49113 0
M  V30 23 H -3.74718 -2.35214 0.213918 0
M  V30 24 H -0.507489 -2.87436 -0.0568812 0
M  V30 25 H -0.38676 -2.26462 1.7018 0
M  V30 26 H -1.90916 -2.836 1.01724 0
M  V30 27 H 0.517479 2.88879 -0.919053 0
M  V30 28 H 1.65943 -2.14094 0.529021 0
M  V30 29 H 4.6089 -2.55865 -0.517586 0
M  V30 30 H 4.6057 -2.17385 1.26008 0
M  V30 31 H 4.89222 0.388513 -0.480993 0
M  V30 32 H 3.32436 2.2197 -0.922939 0
M  V30 END ATOM
M  V30 BEGIN BOND
M  V30 1 1 1 2
M  V30 2 2 2 3
M  V30 3 1 3 4
M  V30 4 1 4 5
M  V30 5 2 4 6
M  V30 6 1 6 7
M  V30 7 1 6 8
M  V30 8 2 8 9
M  V30 9 1 9 10
M  V30 10 1 10 11
M  V30 11 2 11 12
M  V30 12 1 12 13
M  V30 13 2 13 14
M  V30 14 1 14 15
M  V30 15 1 14 16
M  V30 16 2 16 17
M  V30 17 1 9 2
M  V30 18 1 17 11
M  V30 19 1 12 8
M  V30 20 1 1 18
M  V30 21 1 1 19
M  V30 22 1 1 20
M  V30 23 1 3 21
M  V30 24 1 5 22
M  V30 25 1 5 23
M  V30 26 1 7 24
M  V30 27 1 7 25
M  V30 28 1 7 26
M  V30 29 1 10 27
M  V30 30 1 13 28
M  V30 31 1 15 29
M  V30 32 1 15 30
M  V30 33 1 16 31
M  V30 34 1 17 32
M  V30 END BOND
M  V30 END CTAB
M  END
