
     RDKit          3D

  0  0  0  0  0  0  0  0  0  0999 V3000
M  V30 BEGIN CTAB
M  V30 COUNTS 25 26 0 0 0
M  V30 BEGIN ATOM
M  V30 1 N -1.27843 0.0286329 2.01471 0
M  V30 2 C -1.34374 0.121676 0.601032 0
M  V30 3 C -2.57527 0.141209 -0.0410178 0
M  V30 4 N -3.75444 0.0663076 0.747084 0
M  V30 5 C -2.5974 0.23219 -1.41134 0
M  V30 6 C -1.42649 0.302115 -2.12778 0
M  V30 7 N -0.250613 0.279583 -1.45662 0
M  V30 8 C -0.180169 0.192246 -0.127185 0
M  V30 9 N 1.05319 0.167789 0.588956 0
M  V30 10 C 2.27465 0.244543 -0.215557 0
M  V30 11 C 3.54525 0.216506 0.563772 0
M  V30 12 S 3.64899 -1.57689 0.430387 0
M  V30 13 C 2.60855 -1.03119 -0.927559 0
M  V30 14 H -1.03333 0.832056 2.62489 0
M  V30 15 H -1.48816 -0.894877 2.454 0
M  V30 16 H -4.27887 0.952045 0.903708 0
M  V30 17 H -4.05172 -0.83605 1.13216 0
M  V30 18 H -3.55025 0.247525 -1.9114 0
M  V30 19 H -1.37298 0.374866 -3.20332 0
M  V30 20 H 1.10895 0.100204 1.61799 0
M  V30 21 H 2.24049 1.15843 -0.866752 0
M  V30 22 H 3.44407 0.587753 1.60181 0
M  V30 23 H 4.37294 0.688516 -0.00761506 0
M  V30 24 H 3.13114 -0.866788 -1.90352 0
M  V30 25 H 1.75364 -1.72839 -1.08082 0
M  V30 END ATOM
M  V30 BEGIN BOND
M  V30 1 1 1 2
M  V30 2 2 2 3
M  V30 3 1 3 4
M  V30 4 1 3 5
M  V30 5 2 5 6
M  V30 6 1 6 7
M  V30 7 2 7 8
M  V30 8 1 8 9
M  V30 9 1 9 10
M  V30 10 1 10 11
M  V30 11 1 11 12
M  V30 12 1 12 13
M  V30 13 1 8 2
M  V30 14 1 13 10
M  V30 15 1 1 14
M  V30 16 1 1 15
M  V30 17 1 4 16
M  V30 18 1 4 17
M  V30 19 1 5 18
M  V30 20 1 6 19
M  V30 21 1 9 20
M  V30 22 1 10 21
M  V30 23 1 11 22
M  V30 24 1 11 23
M  V30 25 1 13 24
M  V30 26 1 13 25
M  V30 END BOND
M  V30 END CTAB
M  END
