
     RDKit          3D

  0  0  0  0  0  0  0  0  0  0999 V3000
M  V30 BEGIN CTAB
M  V30 COUNTS 43 43 0 0 0
M  V30 BEGIN ATOM
M  V30 1 N 5.50585 1.15513 0.352132 0
M  V30 2 C 5.28613 -0.205805 -0.00463278 0
M  V30 3 N 5.73546 -0.665168 -1.12228 0
M  V30 4 N 4.57937 -1.10716 0.828728 0
M  V30 5 C 3.1442 -1.20214 0.803457 0
M  V30 6 C 2.54189 0.0650758 1.36261 0
M  V30 7 C 1.04576 0.0752674 1.3957 0
M  V30 8 C 0.446636 -0.110623 0.0532136 0
M  V30 9 C 0.81394 0.932277 -0.918762 0
M  V30 10 O -0.137851 1.60633 -1.46448 0
M  V30 11 O 2.10395 1.23975 -1.29149 0
M  V30 12 N -1.01987 -0.229794 0.144149 0
M  V30 13 C -1.66766 -1.39416 -0.304113 0
M  V30 14 O -0.942944 -2.34702 -0.781905 0
M  V30 15 C -3.09238 -1.65919 -0.28692 0
M  V30 16 C -4.01995 -0.725088 0.359641 0
M  V30 17 C -4.14882 0.621768 -0.182533 0
M  V30 18 N -3.64247 1.12361 -1.30688 0
M  V30 19 C -4.01553 2.4111 -1.40994 0
M  V30 20 N -4.75984 2.71222 -0.341084 0
M  V30 21 C -4.85703 1.62763 0.430093 0
M  V30 22 N -3.36058 -3.07379 -0.0170664 0
M  V30 23 H 5.56971 1.89622 -0.365886 0
M  V30 24 H 5.6094 1.44683 1.34457 0
M  V30 25 H 6.25524 -0.0334067 -1.75319 0
M  V30 26 H 5.12159 -1.71624 1.47566 0
M  V30 27 H 2.79971 -2.03487 1.44018 0
M  V30 28 H 2.80487 -1.42035 -0.226976 0
M  V30 29 H 2.97715 0.933826 0.846801 0
M  V30 30 H 2.94378 0.18411 2.43454 0
M  V30 31 H 0.745261 1.07277 1.80632 0
M  V30 32 H 0.734438 -0.739718 2.09091 0
M  V30 33 H 0.82657 -1.07432 -0.377421 0
M  V30 34 H 2.34741 2.18442 -1.58229 0
M  V30 35 H -1.54968 0.544607 0.562115 0
M  V30 36 H -3.41897 -1.60001 -1.42692 0
M  V30 37 H -3.7428 -0.680929 1.46568 0
M  V30 38 H -5.07797 -1.14118 0.409758 0
M  V30 39 H -3.78043 3.12395 -2.20144 0
M  V30 40 H -5.22273 3.63076 -0.0869845 0
M  V30 41 H -5.40294 1.54794 1.38367 0
M  V30 42 H -3.28479 -3.28965 0.991715 0
M  V30 43 H -2.7931 -3.68498 -0.619257 0
M  V30 END ATOM
M  V30 BEGIN BOND
M  V30 1 1 1 2
M  V30 2 2 2 3 CFG=2
M  V30 3 1 2 4
M  V30 4 1 4 5
M  V30 5 1 5 6
M  V30 6 1 6 7
M  V30 7 1 7 8
M  V30 8 1 8 9
M  V30 9 2 9 10
M  V30 10 1 9 11
M  V30 11 1 8 12
M  V30 12 1 12 13
M  V30 13 2 13 14
M  V30 14 1 13 15
M  V30 15 1 15 16
M  V30 16 1 16 17
M  V30 17 1 17 18
M  V30 18 2 18 19
M  V30 19 1 19 20
M  V30 20 1 20 21
M  V30 21 1 15 22
M  V30 22 2 21 17
M  V30 23 1 1 23
M  V30 24 1 1 24
M  V30 25 1 3 25
M  V30 26 1 4 26
M  V30 27 1 5 27
M  V30 28 1 5 28
M  V30 29 1 6 29
M  V30 30 1 6 30
M  V30 31 1 7 31
M  V30 32 1 7 32
M  V30 33 1 8 33
M  V30 34 1 11 34
M  V30 35 1 12 35
M  V30 36 1 15 36
M  V30 37 1 16 37
M  V30 38 1 16 38
M  V30 39 1 19 39
M  V30 40 1 20 40
M  V30 41 1 21 41
M  V30 42 1 22 42
M  V30 43 1 22 43
M  V30 END BOND
M  V30 END CTAB
M  END
