
     RDKit          3D

  0  0  0  0  0  0  0  0  0  0999 V3000
M  V30 BEGIN CTAB
M  V30 COUNTS 25 25 0 0 0
M  V30 BEGIN ATOM
M  V30 1 C 2.70912 -0.401499 0.212627 0
M  V30 2 O 1.68452 -0.354959 1.13614 0
M  V30 3 N 0.512954 0.0775715 0.61073 0
M  V30 4 C 0.438114 1.44837 0.248717 0
M  V30 5 N 1.53155 2.34353 0.421344 0
M  V30 6 N -0.669306 1.87277 -0.251594 0
M  V30 7 C -1.79236 1.0343 -0.448697 0
M  V30 8 N -2.96905 1.64083 -1.01831 0
M  V30 9 N -1.74782 -0.192004 -0.132891 0
M  V30 10 C -0.602138 -0.817344 0.430242 0
M  V30 11 C -0.232024 -1.97266 -0.494071 0
M  V30 12 C -1.03268 -1.3801 1.79413 0
M  V30 13 H 3.60375 0.193476 0.556331 0
M  V30 14 H 2.35352 -0.0479019 -0.782954 0
M  V30 15 H 3.10622 -1.45612 0.144362 0
M  V30 16 H 1.53724 3.23947 -0.12842 0
M  V30 17 H 2.32649 2.18164 1.04894 0
M  V30 18 H -2.92344 2.47689 -1.62149 0
M  V30 19 H -3.8822 1.21042 -0.80486 0
M  V30 20 H -0.993372 -2.7726 -0.405077 0
M  V30 21 H -0.212824 -1.5249 -1.52722 0
M  V30 22 H 0.781343 -2.32893 -0.224083 0
M  V30 23 H -1.83668 -2.11611 1.56075 0
M  V30 24 H -1.50785 -0.530169 2.32849 0
M  V30 25 H -0.183078 -1.82398 2.32884 0
M  V30 END ATOM
M  V30 BEGIN BOND
M  V30 1 1 1 2
M  V30 2 1 2 3
M  V30 3 1 3 4
M  V30 4 1 4 5
M  V30 5 2 4 6
M  V30 6 1 6 7
M  V30 7 1 7 8
M  V30 8 2 7 9
M  V30 9 1 9 10
M  V30 10 1 10 11
M  V30 11 1 10 12
M  V30 12 1 10 3
M  V30 13 1 1 13
M  V30 14 1 1 14
M  V30 15 1 1 15
M  V30 16 1 5 16
M  V30 17 1 5 17
M  V30 18 1 8 18
M  V30 19 1 8 19
M  V30 20 1 11 20
M  V30 21 1 11 21
M  V30 22 1 11 22
M  V30 23 1 12 23
M  V30 24 1 12 24
M  V30 25 1 12 25
M  V30 END BOND
M  V30 END CTAB
M  END
