
     RDKit          3D

  0  0  0  0  0  0  0  0  0  0999 V3000
M  V30 BEGIN CTAB
M  V30 COUNTS 42 44 0 0 0
M  V30 BEGIN ATOM
M  V30 1 N -5.87267 0.594622 0.0968049 0
M  V30 2 C -5.15408 -0.0430666 -0.954527 0
M  V30 3 N -5.45021 -1.26524 -1.24542 0
M  V30 4 N -4.14295 0.708589 -1.63563 0
M  V30 5 C -3.29671 1.56922 -0.848537 0
M  V30 6 C -2.36764 0.777782 0.0436394 0
M  V30 7 C -1.48554 -0.0800048 -0.838503 0
M  V30 8 C -0.537573 -0.877869 -0.0640338 0
M  V30 9 N 0.758148 -0.502964 0.0315629 0
M  V30 10 C 1.66363 -1.18614 0.728615 0
M  V30 11 C 1.2456 -2.32846 1.37784 0
M  V30 12 N -0.0572482 -2.7346 1.30132 0
M  V30 13 C -0.952985 -2.00924 0.579214 0
M  V30 14 N -2.29703 -2.46506 0.526028 0
M  V30 15 C 3.05455 -0.785168 0.855171 0
M  V30 16 C 4.06607 -1.49202 1.50163 0
M  V30 17 N 5.18616 -0.790662 1.41384 0
M  V30 18 C 4.98026 0.363059 0.736479 0
M  V30 19 C 5.79052 1.41574 0.384028 0
M  V30 20 C 5.24509 2.46133 -0.318004 0
M  V30 21 C 3.92477 2.50886 -0.688279 0
M  V30 22 C 3.104 1.44158 -0.331084 0
M  V30 23 C 3.6476 0.386016 0.376401 0
M  V30 24 H -6.70017 1.17629 -0.123008 0
M  V30 25 H -5.57688 0.483342 1.08323 0
M  V30 26 H -4.93704 -1.7563 -2.01353 0
M  V30 27 H -4.05617 0.607237 -2.66486 0
M  V30 28 H -2.67752 2.19643 -1.52899 0
M  V30 29 H -3.90004 2.28408 -0.215081 0
M  V30 30 H -1.77467 1.49362 0.642409 0
M  V30 31 H -3.01367 0.150266 0.692025 0
M  V30 32 H -2.15074 -0.698506 -1.48885 0
M  V30 33 H -0.942138 0.601859 -1.53555 0
M  V30 34 H 1.93315 -2.92737 1.96141 0
M  V30 35 H -2.82852 -2.54994 -0.381942 0
M  V30 36 H -2.77543 -2.72499 1.41327 0
M  V30 37 H 3.89394 -2.44962 1.97488 0
M  V30 38 H 6.12988 -1.05813 1.80577 0
M  V30 39 H 6.84827 1.39605 0.670539 0
M  V30 40 H 5.91738 3.27902 -0.579499 0
M  V30 41 H 3.4881 3.3468 -1.25027 0
M  V30 42 H 2.07049 1.48355 -0.622414 0
M  V30 END ATOM
M  V30 BEGIN BOND
M  V30 1 1 1 2
M  V30 2 2 2 3 CFG=2
M  V30 3 1 2 4
M  V30 4 1 4 5
M  V30 5 1 5 6
M  V30 6 1 6 7
M  V30 7 1 7 8
M  V30 8 2 8 9
M  V30 9 1 9 10
M  V30 10 2 10 11
M  V30 11 1 11 12
M  V30 12 2 12 13
M  V30 13 1 13 14
M  V30 14 1 10 15
M  V30 15 2 15 16
M  V30 16 1 16 17
M  V30 17 1 17 18
M  V30 18 2 18 19
M  V30 19 1 19 20
M  V30 20 2 20 21
M  V30 21 1 21 22
M  V30 22 2 22 23
M  V30 23 1 13 8
M  V30 24 1 23 15
M  V30 25 1 23 18
M  V30 26 1 1 24
M  V30 27 1 1 25
M  V30 28 1 3 26
M  V30 29 1 4 27
M  V30 30 1 5 28
M  V30 31 1 5 29
M  V30 32 1 6 30
M  V30 33 1 6 31
M  V30 34 1 7 32
M  V30 35 1 7 33
M  V30 36 1 11 34
M  V30 37 1 14 35
M  V30 38 1 14 36
M  V30 39 1 16 37
M  V30 40 1 17 38
M  V30 41 1 19 39
M  V30 42 1 20 40
M  V30 43 1 21 41
M  V30 44 1 22 42
M  V30 END BOND
M  V30 END CTAB
M  END
