
     RDKit          3D

  0  0  0  0  0  0  0  0  0  0999 V3000
M  V30 BEGIN CTAB
M  V30 COUNTS 44 47 0 0 0
M  V30 BEGIN ATOM
M  V30 1 N 4.87928 -3.52151 1.15692 0
M  V30 2 C 4.50201 -2.23538 0.658667 0
M  V30 3 C 3.35715 -2.23583 -0.350191 0
M  V30 4 N 2.84533 -1.06223 0.330207 0
M  V30 5 C 3.44516 -1.56875 1.5476 0
M  V30 6 C 2.09253 0.0976036 0.0176986 0
M  V30 7 C 0.689179 0.0283369 0.135269 0
M  V30 8 Cl 0.024989 -1.50879 0.662958 0
M  V30 9 C -0.110562 1.1098 -0.149451 0
M  V30 10 C 0.543504 2.28756 -0.563667 0
M  V30 11 C 1.90597 2.36984 -0.682528 0
M  V30 12 C 2.65726 1.27554 -0.390471 0
M  V30 13 F 4.02065 1.3031 -0.492223 0
M  V30 14 C -0.236462 3.39008 -0.856344 0
M  V30 15 O 0.336865 4.44664 -1.22702 0
M  V30 16 C -1.59961 3.36585 -0.755658 0
M  V30 17 C -2.17351 2.21699 -0.355986 0
M  V30 18 N -1.4346 1.07565 -0.0483256 0
M  V30 19 C -2.20517 -0.0281471 0.350636 0
M  V30 20 C -2.5975 -0.163958 1.64801 0
M  V30 21 F -2.16557 0.639316 2.66234 0
M  V30 22 C -3.50323 -1.17266 1.98947 0
M  V30 23 C -4.01516 -2.04406 1.03758 0
M  V30 24 F -4.8997 -3.01382 1.42563 0
M  V30 25 C -3.6108 -1.89884 -0.270646 0
M  V30 26 N -4.14244 -2.79744 -1.23227 0
M  V30 27 C -2.70544 -0.883792 -0.585434 0
M  V30 28 C -2.39057 4.5789 -1.08226 0
M  V30 29 O -1.75304 5.73296 -1.48795 0
M  V30 30 O -3.63947 4.54267 -0.98558 0
M  V30 31 H 4.77919 -4.29007 0.442857 0
M  V30 32 H 5.88673 -3.45855 1.48869 0
M  V30 33 H 5.30108 -1.53706 0.38342 0
M  V30 34 H 3.64895 -2.08912 -1.39285 0
M  V30 35 H 2.70108 -3.1212 -0.171877 0
M  V30 36 H 2.80166 -2.35724 2.01123 0
M  V30 37 H 3.84046 -0.824594 2.24396 0
M  V30 38 H 2.3484 3.31356 -1.00885 0
M  V30 39 H -3.22818 2.13175 -0.257225 0
M  V30 40 H -3.81428 -1.27666 3.02795 0
M  V30 41 H -3.71058 -3.75263 -1.40672 0
M  V30 42 H -4.98163 -2.58501 -1.82537 0
M  V30 43 H -2.43592 -0.838934 -1.64807 0
M  V30 44 H -1.254 6.36012 -0.842025 0
M  V30 END ATOM
M  V30 BEGIN BOND
M  V30 1 1 1 2
M  V30 2 1 2 3
M  V30 3 1 3 4
M  V30 4 1 4 5
M  V30 5 1 4 6
M  V30 6 2 6 7
M  V30 7 1 7 8
M  V30 8 1 7 9
M  V30 9 2 9 10
M  V30 10 1 10 11
M  V30 11 2 11 12
M  V30 12 1 12 13
M  V30 13 1 10 14
M  V30 14 2 14 15
M  V30 15 1 14 16
M  V30 16 2 16 17
M  V30 17 1 17 18
M  V30 18 1 18 19
M  V30 19 2 19 20
M  V30 20 1 20 21
M  V30 21 1 20 22
M  V30 22 2 22 23
M  V30 23 1 23 24
M  V30 24 1 23 25
M  V30 25 1 25 26
M  V30 26 2 25 27
M  V30 27 1 16 28
M  V30 28 1 28 29
M  V30 29 2 28 30
M  V30 30 1 5 2
M  V30 31 1 12 6
M  V30 32 1 27 19
M  V30 33 1 18 9
M  V30 34 1 1 31
M  V30 35 1 1 32
M  V30 36 1 2 33
M  V30 37 1 3 34
M  V30 38 1 3 35
M  V30 39 1 5 36
M  V30 40 1 5 37
M  V30 41 1 11 38
M  V30 42 1 17 39
M  V30 43 1 22 40
M  V30 44 1 26 41
M  V30 45 1 26 42
M  V30 46 1 27 43
M  V30 47 1 29 44
M  V30 END BOND
M  V30 END CTAB
M  END
