
     RDKit          3D

  0  0  0  0  0  0  0  0  0  0999 V3000
M  V30 BEGIN CTAB
M  V30 COUNTS 35 34 0 0 0
M  V30 BEGIN ATOM
M  V30 1 C 3.28197 1.61446 -0.553736 0
M  V30 2 C 2.1304 0.944114 0.238431 0
M  V30 3 C 1.55087 -0.0919355 -0.63343 0
M  V30 4 C 0.45569 -0.942967 -0.172229 0
M  V30 5 C -0.836878 -0.375245 0.246572 0
M  V30 6 C -1.4266 0.402188 -0.901049 0
M  V30 7 O -2.73152 0.72347 -0.57702 0
M  V30 8 C -3.36391 1.44621 -1.58041 0
M  V30 9 C -0.955406 0.267363 1.57159 0
M  V30 10 N -2.35604 0.63725 1.85261 0
M  V30 11 O -1.708 -1.5327 0.34318 0
M  V30 12 C 0.948049 -2.03279 0.807565 0
M  V30 13 N 1.93938 -2.87081 0.116858 0
M  V30 14 H 3.43293 2.65243 -0.185122 0
M  V30 15 H 4.22652 1.07564 -0.383479 0
M  V30 16 H 3.03898 1.64433 -1.62269 0
M  V30 17 H 2.57663 0.574472 1.15618 0
M  V30 18 H 1.41892 1.78961 0.357755 0
M  V30 19 H 1.26971 0.338638 -1.62636 0
M  V30 20 H 2.40957 -0.792532 -0.892219 0
M  V30 21 H 0.186434 -1.58561 -1.0796 0
M  V30 22 H -0.806724 1.32271 -1.09479 0
M  V30 23 H -1.42812 -0.254264 -1.80059 0
M  V30 24 H -2.78754 2.38061 -1.73018 0
M  V30 25 H -4.37041 1.72194 -1.26202 0
M  V30 26 H -3.3488 0.883441 -2.52329 0
M  V30 27 H -0.432872 1.23941 1.57999 0
M  V30 28 H -0.656432 -0.370918 2.41731 0
M  V30 29 H -2.66745 0.346472 2.78176 0
M  V30 30 H -2.55408 1.63168 1.70562 0
M  V30 31 H -1.70956 -1.85921 1.26024 0
M  V30 32 H 1.47614 -1.57975 1.66532 0
M  V30 33 H 0.137624 -2.70514 1.1009 0
M  V30 34 H 1.79544 -3.88168 0.327972 0
M  V30 35 H 1.86508 -2.76088 -0.911642 0
M  V30 END ATOM
M  V30 BEGIN BOND
M  V30 1 1 1 2
M  V30 2 1 2 3
M  V30 3 1 3 4
M  V30 4 1 4 5
M  V30 5 1 5 6
M  V30 6 1 6 7
M  V30 7 1 7 8
M  V30 8 1 5 9
M  V30 9 1 9 10
M  V30 10 1 5 11
M  V30 11 1 4 12
M  V30 12 1 12 13
M  V30 13 1 1 14
M  V30 14 1 1 15
M  V30 15 1 1 16
M  V30 16 1 2 17
M  V30 17 1 2 18
M  V30 18 1 3 19
M  V30 19 1 3 20
M  V30 20 1 4 21
M  V30 21 1 6 22
M  V30 22 1 6 23
M  V30 23 1 8 24
M  V30 24 1 8 25
M  V30 25 1 8 26
M  V30 26 1 9 27
M  V30 27 1 9 28
M  V30 28 1 10 29
M  V30 29 1 10 30
M  V30 30 1 11 31
M  V30 31 1 12 32
M  V30 32 1 12 33
M  V30 33 1 13 34
M  V30 34 1 13 35
M  V30 END BOND
M  V30 END CTAB
M  END
