
     RDKit          3D

  0  0  0  0  0  0  0  0  0  0999 V3000
M  V30 BEGIN CTAB
M  V30 COUNTS 31 32 0 0 0
M  V30 BEGIN ATOM
M  V30 1 N -4.07522 0.328172 -0.247181 0
M  V30 2 C -3.073 -0.435965 0.44092 0
M  V30 3 C -2.49338 -1.44645 -0.555947 0
M  V30 4 N -1.93466 -0.658125 -1.63909 0
M  V30 5 C -0.640407 -0.166466 -1.20063 0
M  V30 6 C -0.838542 0.57365 0.077834 0
M  V30 7 C -1.93382 0.455211 0.821307 0
M  V30 8 C 0.263823 1.47817 0.509252 0
M  V30 9 C 1.50833 0.688733 0.691001 0
M  V30 10 C 1.84011 0.109168 1.90259 0
M  V30 11 C 3.01439 -0.623021 2.03397 0
M  V30 12 N 3.82623 -0.762575 0.969425 0
M  V30 13 C 3.53146 -0.207764 -0.232734 0
M  V30 14 C 2.35436 0.532549 -0.384495 0
M  V30 15 N 4.43083 -0.395187 -1.30865 0
M  V30 16 H -5.03853 0.0530863 -0.00177538 0
M  V30 17 H -3.90783 1.35721 -0.221133 0
M  V30 18 H -3.46204 -1.00339 1.31057 0
M  V30 19 H -3.33256 -2.08032 -0.867779 0
M  V30 20 H -1.69877 -2.00211 -0.0172869 0
M  V30 21 H -2.5735 0.160537 -1.79326 0
M  V30 22 H -0.285741 0.530635 -2.00056 0
M  V30 23 H 0.0137426 -1.04025 -1.0894 0
M  V30 24 H -1.96106 1.05271 1.74176 0
M  V30 25 H -0.0012159 2.04702 1.42329 0
M  V30 26 H 0.436026 2.23774 -0.301561 0
M  V30 27 H 1.1474 0.258219 2.71646 0
M  V30 28 H 3.23408 -1.06141 3.00839 0
M  V30 29 H 2.13274 0.968838 -1.34869 0
M  V30 30 H 4.13286 -0.965701 -2.12377 0
M  V30 31 H 5.38388 0.0170876 -1.31743 0
M  V30 END ATOM
M  V30 BEGIN BOND
M  V30 1 1 1 2
M  V30 2 1 2 3
M  V30 3 1 3 4
M  V30 4 1 4 5
M  V30 5 1 5 6
M  V30 6 2 6 7
M  V30 7 1 6 8
M  V30 8 1 8 9
M  V30 9 2 9 10
M  V30 10 1 10 11
M  V30 11 2 11 12
M  V30 12 1 12 13
M  V30 13 2 13 14
M  V30 14 1 13 15
M  V30 15 1 7 2
M  V30 16 1 14 9
M  V30 17 1 1 16
M  V30 18 1 1 17
M  V30 19 1 2 18
M  V30 20 1 3 19
M  V30 21 1 3 20
M  V30 22 1 4 21
M  V30 23 1 5 22
M  V30 24 1 5 23
M  V30 25 1 7 24
M  V30 26 1 8 25
M  V30 27 1 8 26
M  V30 28 1 10 27
M  V30 29 1 11 28
M  V30 30 1 14 29
M  V30 31 1 15 30
M  V30 32 1 15 31
M  V30 END BOND
M  V30 END CTAB
M  END
