
     RDKit          3D

  0  0  0  0  0  0  0  0  0  0999 V3000
M  V30 BEGIN CTAB
M  V30 COUNTS 28 29 0 0 0
M  V30 BEGIN ATOM
M  V30 1 F -4.02573 1.20523 0.660319 0
M  V30 2 C -3.61788 -0.10601 0.461409 0
M  V30 3 C -3.38176 -0.294492 -1.01036 0
M  V30 4 C -1.95737 0.17961 -1.19517 0
M  V30 5 N -1.29279 -0.0298779 0.0678913 0
M  V30 6 C -2.25284 -0.253293 1.11606 0
M  V30 7 C 0.109692 -0.018649 0.258008 0
M  V30 8 C 0.674349 -0.230437 1.51692 0
M  V30 9 C 2.04306 -0.208874 1.64454 0
M  V30 10 C 2.86959 0.015775 0.564834 0
M  V30 11 C 2.29446 0.226113 -0.688035 0
M  V30 12 C 0.935895 0.206331 -0.823565 0
M  V30 13 N 3.18784 0.452437 -1.76483 0
M  V30 14 N 4.27601 0.034121 0.716831 0
M  V30 15 H -4.30703 -0.828399 0.906717 0
M  V30 16 H -4.08307 0.311454 -1.61924 0
M  V30 17 H -3.39972 -1.37508 -1.29036 0
M  V30 18 H -1.47487 -0.426829 -1.99827 0
M  V30 19 H -1.97781 1.24491 -1.41915 0
M  V30 20 H -2.13916 0.453223 1.96778 0
M  V30 21 H -2.15162 -1.28039 1.526 0
M  V30 22 H 0.00959757 -0.404833 2.351 0
M  V30 23 H 2.4937 -0.374218 2.62916 0
M  V30 24 H 0.519192 0.376118 -1.82635 0
M  V30 25 H 3.99015 1.09655 -1.62946 0
M  V30 26 H 3.04454 -0.0172671 -2.6759 0
M  V30 27 H 4.83758 0.903199 0.659753 0
M  V30 28 H 4.77599 -0.856426 0.893462 0
M  V30 END ATOM
M  V30 BEGIN BOND
M  V30 1 1 1 2
M  V30 2 1 2 3
M  V30 3 1 3 4
M  V30 4 1 4 5
M  V30 5 1 5 6
M  V30 6 1 5 7
M  V30 7 2 7 8
M  V30 8 1 8 9
M  V30 9 2 9 10
M  V30 10 1 10 11
M  V30 11 2 11 12
M  V30 12 1 11 13
M  V30 13 1 10 14
M  V30 14 1 6 2
M  V30 15 1 12 7
M  V30 16 1 2 15
M  V30 17 1 3 16
M  V30 18 1 3 17
M  V30 19 1 4 18
M  V30 20 1 4 19
M  V30 21 1 6 20
M  V30 22 1 6 21
M  V30 23 1 8 22
M  V30 24 1 9 23
M  V30 25 1 12 24
M  V30 26 1 13 25
M  V30 27 1 13 26
M  V30 28 1 14 27
M  V30 29 1 14 28
M  V30 END BOND
M  V30 END CTAB
M  END
