
     RDKit          3D

  0  0  0  0  0  0  0  0  0  0999 V3000
M  V30 BEGIN CTAB
M  V30 COUNTS 20 21 0 0 0
M  V30 BEGIN ATOM
M  V30 1 C -2.74266 -0.0085485 0.110798 0
M  V30 2 C -1.47892 -0.753892 -0.00869064 0
M  V30 3 C -1.35858 -2.13591 -0.138016 0
M  V30 4 O -0.0850393 -2.44811 -0.219004 0
M  V30 5 C 0.661634 -1.3785 -0.153801 0
M  V30 6 N 1.98374 -1.11796 -0.185289 0
M  V30 7 C 2.47553 0.127106 -0.093722 0
M  V30 8 N 3.89744 0.359738 -0.131854 0
M  V30 9 N 1.62737 1.16474 0.03485 0
M  V30 10 C 0.310103 0.973581 0.0723788 0
M  V30 11 N -0.578464 2.05828 0.206798 0
M  V30 12 C -0.183351 -0.299283 -0.0216158 0
M  V30 13 H -3.54839 -0.717447 0.398382 0
M  V30 14 H -2.73501 0.78312 0.870504 0
M  V30 15 H -3.04032 0.386861 -0.892912 0
M  V30 16 H -2.168 -2.87457 -0.170841 0
M  V30 17 H 4.22493 1.31184 -0.341933 0
M  V30 18 H 4.55019 -0.416994 0.0485739 0
M  V30 19 H -1.27207 2.36298 -0.489125 0
M  V30 20 H -0.540131 2.62297 1.10452 0
M  V30 END ATOM
M  V30 BEGIN BOND
M  V30 1 1 1 2
M  V30 2 2 2 3
M  V30 3 1 3 4
M  V30 4 1 4 5
M  V30 5 2 5 6
M  V30 6 1 6 7
M  V30 7 1 7 8
M  V30 8 2 7 9
M  V30 9 1 9 10
M  V30 10 1 10 11
M  V30 11 2 10 12
M  V30 12 1 12 2
M  V30 13 1 12 5
M  V30 14 1 1 13
M  V30 15 1 1 14
M  V30 16 1 1 15
M  V30 17 1 3 16
M  V30 18 1 8 17
M  V30 19 1 8 18
M  V30 20 1 11 19
M  V30 21 1 11 20
M  V30 END BOND
M  V30 END CTAB
M  END
