
     RDKit          3D

  0  0  0  0  0  0  0  0  0  0999 V3000
M  V30 BEGIN CTAB
M  V30 COUNTS 39 40 0 0 0
M  V30 BEGIN ATOM
M  V30 1 N -4.09827 1.27376 2.07109 0
M  V30 2 C -4.36276 0.61539 0.81877 0
M  V30 3 C -3.14548 -0.114038 0.291244 0
M  V30 4 C -3.51597 -0.771713 -1.02027 0
M  V30 5 C -3.58528 0.372237 -2.00989 0
M  V30 6 C -2.5154 1.3178 -1.54426 0
M  V30 7 C -2.10852 0.896209 -0.158541 0
M  V30 8 N -0.776316 0.363353 -0.145481 0
M  V30 9 C 0.246595 0.891785 0.658665 0
M  V30 10 O -0.0463637 1.88653 1.39906 0
M  V30 11 C 1.6059 0.341754 0.666652 0
M  V30 12 O 2.64156 0.719936 1.34774 0
M  V30 13 C 3.6927 -0.012997 1.09349 0
M  V30 14 C 3.30675 -0.94587 0.169184 0
M  V30 15 C 1.97841 -0.73517 -0.11532 0
M  V30 16 S 4.31155 -2.19578 -0.538952 0
M  V30 17 O 4.80298 -3.16937 0.479338 0
M  V30 18 O 3.52498 -2.96757 -1.55821 0
M  V30 19 N 5.61835 -1.40258 -1.35603 0
M  V30 20 C 5.07145 0.111369 1.67923 0
M  V30 21 H -3.61549 2.19289 1.95302 0
M  V30 22 H -3.57776 0.648861 2.73486 0
M  V30 23 H -4.62399 1.39235 0.0740224 0
M  V30 24 H -5.22869 -0.0344695 0.94819 0
M  V30 25 H -2.73355 -0.837534 1.01162 0
M  V30 26 H -4.49616 -1.28222 -0.972426 0
M  V30 27 H -2.7646 -1.51747 -1.33468 0
M  V30 28 H -4.58845 0.823649 -1.91631 0
M  V30 29 H -3.36114 0.0603223 -3.04255 0
M  V30 30 H -2.91105 2.35983 -1.53777 0
M  V30 31 H -1.64498 1.29874 -2.22244 0
M  V30 32 H -2.16248 1.74802 0.544093 0
M  V30 33 H -0.524715 -0.467736 -0.761715 0
M  V30 34 H 1.37604 -1.30929 -0.811316 0
M  V30 35 H 6.54046 -1.72178 -1.03622 0
M  V30 36 H 5.49325 -0.379927 -1.38742 0
M  V30 37 H 5.39486 1.19341 1.65326 0
M  V30 38 H 5.77477 -0.503842 1.11952 0
M  V30 39 H 5.00677 -0.138843 2.75675 0
M  V30 END ATOM
M  V30 BEGIN BOND
M  V30 1 1 1 2
M  V30 2 1 2 3
M  V30 3 1 3 4
M  V30 4 1 4 5
M  V30 5 1 5 6
M  V30 6 1 6 7
M  V30 7 1 7 8
M  V30 8 1 8 9
M  V30 9 2 9 10
M  V30 10 1 9 11
M  V30 11 1 11 12
M  V30 12 1 12 13
M  V30 13 2 13 14
M  V30 14 1 14 15
M  V30 15 1 14 16
M  V30 16 2 16 17
M  V30 17 2 16 18
M  V30 18 1 16 19
M  V30 19 1 13 20
M  V30 20 1 7 3
M  V30 21 2 15 11
M  V30 22 1 1 21
M  V30 23 1 1 22
M  V30 24 1 2 23
M  V30 25 1 2 24
M  V30 26 1 3 25
M  V30 27 1 4 26
M  V30 28 1 4 27
M  V30 29 1 5 28
M  V30 30 1 5 29
M  V30 31 1 6 30
M  V30 32 1 6 31
M  V30 33 1 7 32
M  V30 34 1 8 33
M  V30 35 1 15 34
M  V30 36 1 19 35
M  V30 37 1 19 36
M  V30 38 1 20 37
M  V30 39 1 20 38
M  V30 40 1 20 39
M  V30 END BOND
M  V30 END CTAB
M  END
