
     RDKit          3D

  0  0  0  0  0  0  0  0  0  0999 V3000
M  V30 BEGIN CTAB
M  V30 COUNTS 46 47 0 0 0
M  V30 BEGIN ATOM
M  V30 1 N 5.11906 -1.21125 -0.203857 0
M  V30 2 C 4.65237 0.123442 0.123675 0
M  V30 3 C 3.94593 0.698841 -1.09182 0
M  V30 4 C 2.50947 0.207161 -1.0759 0
M  V30 5 C 1.7874 0.957289 0.0219751 0
M  V30 6 C 2.63096 1.07139 1.26971 0
M  V30 7 C 3.72209 0.0213644 1.29884 0
M  V30 8 N 0.586719 0.205682 0.385933 0
M  V30 9 C -0.243939 0.165922 -0.782004 0
M  V30 10 C -1.548 -0.600935 -0.529708 0
M  V30 11 N -1.12172 -1.95327 -0.148227 0
M  V30 12 C -2.20006 -0.0119127 0.652141 0
M  V30 13 C -3.06967 1.16519 0.435797 0
M  V30 14 C -4.50892 0.674893 0.367549 0
M  V30 15 C -4.54366 -0.497018 -0.586967 0
M  V30 16 C -3.70521 -0.149344 -1.77358 0
M  V30 17 C -2.33678 -0.720704 -1.76869 0
M  V30 18 H 4.30295 -1.83184 -0.392232 0
M  V30 19 H 5.62434 -1.6121 0.618146 0
M  V30 20 H 5.53368 0.767413 0.351824 0
M  V30 21 H 3.89621 1.80575 -1.03792 0
M  V30 22 H 4.46995 0.346373 -1.99791 0
M  V30 23 H 2.43195 -0.887152 -0.979586 0
M  V30 24 H 2.02799 0.531372 -2.04118 0
M  V30 25 H 1.49609 1.94637 -0.331332 0
M  V30 26 H 2.01235 0.900921 2.17588 0
M  V30 27 H 3.06881 2.07173 1.36584 0
M  V30 28 H 4.28587 0.170753 2.22928 0
M  V30 29 H 3.24912 -0.971495 1.35678 0
M  V30 30 H 0.85197 -0.784472 0.623028 0
M  V30 31 H 0.295486 -0.465614 -1.54891 0
M  V30 32 H -0.420112 1.14623 -1.2461 0
M  V30 33 H -0.839571 -1.8909 0.853703 0
M  V30 34 H -2.02347 -2.51469 -0.139215 0
M  V30 35 H -2.76218 -0.822506 1.19596 0
M  V30 36 H -1.38534 0.27634 1.38175 0
M  V30 37 H -3.03376 1.8132 1.36106 0
M  V30 38 H -2.79038 1.81689 -0.389531 0
M  V30 39 H -4.7275 0.25912 1.38004 0
M  V30 40 H -5.21549 1.45672 0.0748049 0
M  V30 41 H -5.62345 -0.62076 -0.889657 0
M  V30 42 H -4.24355 -1.4444 -0.143709 0
M  V30 43 H -3.72779 0.961436 -1.98127 0
M  V30 44 H -4.24122 -0.578157 -2.67433 0
M  V30 45 H -2.41892 -1.78449 -2.14326 0
M  V30 46 H -1.77008 -0.208809 -2.60233 0
M  V30 END ATOM
M  V30 BEGIN BOND
M  V30 1 1 1 2
M  V30 2 1 2 3
M  V30 3 1 3 4
M  V30 4 1 4 5
M  V30 5 1 5 6
M  V30 6 1 6 7
M  V30 7 1 5 8
M  V30 8 1 8 9
M  V30 9 1 9 10
M  V30 10 1 10 11
M  V30 11 1 10 12
M  V30 12 1 12 13
M  V30 13 1 13 14
M  V30 14 1 14 15
M  V30 15 1 15 16
M  V30 16 1 16 17
M  V30 17 1 7 2
M  V30 18 1 17 10
M  V30 19 1 1 18
M  V30 20 1 1 19
M  V30 21 1 2 20
M  V30 22 1 3 21
M  V30 23 1 3 22
M  V30 24 1 4 23
M  V30 25 1 4 24
M  V30 26 1 5 25
M  V30 27 1 6 26
M  V30 28 1 6 27
M  V30 29 1 7 28
M  V30 30 1 7 29
M  V30 31 1 8 30
M  V30 32 1 9 31
M  V30 33 1 9 32
M  V30 34 1 11 33
M  V30 35 1 11 34
M  V30 36 1 12 35
M  V30 37 1 12 36
M  V30 38 1 13 37
M  V30 39 1 13 38
M  V30 40 1 14 39
M  V30 41 1 14 40
M  V30 42 1 15 41
M  V30 43 1 15 42
M  V30 44 1 16 43
M  V30 45 1 16 44
M  V30 46 1 17 45
M  V30 47 1 17 46
M  V30 END BOND
M  V30 END CTAB
M  END
