
     RDKit          3D

  0  0  0  0  0  0  0  0  0  0999 V3000
M  V30 BEGIN CTAB
M  V30 COUNTS 77 80 0 0 0
M  V30 BEGIN ATOM
M  V30 1 C -3.93701 2.13788 2.8991 0
M  V30 2 C -3.32715 0.772344 3.00503 0
M  V30 3 O -3.9324 -0.0499882 2.02725 0
M  V30 4 C -5.2912 -0.259734 2.05239 0
M  V30 5 O -5.89993 0.350613 3.02102 0
M  V30 6 C -6.07814 -1.07366 1.1339 0 CFG=2
M  V30 7 C -6.02992 -0.610637 -0.289802 0
M  V30 8 C -4.68776 -0.638862 -0.841563 0
M  V30 9 C -4.18584 -1.81113 -1.40749 0
M  V30 10 C -2.93787 -1.84878 -1.97531 0
M  V30 11 C -2.11201 -0.732153 -2.01918 0
M  V30 12 C -2.62377 0.408436 -1.4587 0
M  V30 13 C -3.88412 0.472948 -0.877319 0
M  V30 14 C -0.805019 -0.842269 -2.6503 0
M  V30 15 N -0.400914 -1.99338 -3.23195 0
M  V30 16 C 0.79097 -2.14164 -3.81824 0
M  V30 17 N 1.22028 -3.34258 -4.43067 0
M  V30 18 N 1.64712 -1.08644 -3.83477 0
M  V30 19 C 1.34356 0.0934997 -3.28732 0
M  V30 20 O 2.17623 1.19915 -3.27411 0
M  V30 21 C 3.4495 1.11086 -3.8809 0 CFG=2
M  V30 22 C 4.41527 1.08418 -2.73849 0
M  V30 23 C 5.50914 0.268768 -2.70927 0
M  V30 24 C 6.35668 0.262396 -1.61675 0
M  V30 25 C 6.13828 1.0713 -0.516977 0
M  V30 26 C 5.03254 1.89149 -0.553355 0
M  V30 27 C 4.1729 1.90192 -1.65579 0
M  V30 28 C 7.00689 1.089 0.646923 0
M  V30 29 C 8.35621 0.855428 0.47634 0
M  V30 30 C 9.25228 0.840199 1.50556 0
M  V30 31 C 8.79983 1.06789 2.77887 0
M  V30 32 C 7.43847 1.31031 3.0152 0
M  V30 33 O 7.02204 1.53364 4.31334 0
M  V30 34 C 5.68733 1.78273 4.65892 0
M  V30 35 C 6.57283 1.31539 1.93733 0
M  V30 36 C 3.70517 2.24628 -4.83522 0
M  V30 37 F 2.71202 2.17357 -5.80822 0
M  V30 38 F 4.89894 1.99981 -5.49639 0
M  V30 39 F 3.68663 3.46722 -4.22305 0
M  V30 40 C 0.0803293 0.199777 -2.68423 0
M  V30 41 N -7.4795 -1.15407 1.55594 0
M  V30 42 C -7.99441 -2.41834 1.92021 0
M  V30 43 O -7.24182 -3.41728 1.87177 0
M  V30 44 C -9.40137 -2.6076 2.35971 0
M  V30 45 N -9.63327 -4.00327 2.66577 0
M  V30 46 H -4.58155 2.22384 1.99932 0
M  V30 47 H -4.56951 2.32212 3.78331 0
M  V30 48 H -3.17061 2.92569 2.80251 0
M  V30 49 H -3.52031 0.385662 4.03652 0
M  V30 50 H -2.21815 0.806922 2.83114 0
M  V30 51 H -5.65545 -2.102 1.15463 0
M  V30 52 H -6.47016 0.416207 -0.398873 0
M  V30 53 H -6.72523 -1.24713 -0.918815 0
M  V30 54 H -4.79321 -2.68449 -1.39129 0
M  V30 55 H -2.54595 -2.76472 -2.4175 0
M  V30 56 H -2.03098 1.30539 -1.46182 0
M  V30 57 H -4.24901 1.41531 -0.440282 0
M  V30 58 H 2.02611 -3.88005 -4.07921 0
M  V30 59 H 0.707066 -3.69194 -5.26044 0
M  V30 60 H 3.54863 0.155686 -4.47029 0
M  V30 61 H 5.71879 -0.385587 -3.5558 0
M  V30 62 H 7.23691 -0.378311 -1.56581 0
M  V30 63 H 4.82068 2.53777 0.273301 0
M  V30 64 H 3.2987 2.56328 -1.66174 0
M  V30 65 H 8.71592 0.673654 -0.544433 0
M  V30 66 H 10.3269 0.656255 1.39048 0
M  V30 67 H 9.48635 1.0631 3.6236 0
M  V30 68 H 5.50172 1.49716 5.7218 0
M  V30 69 H 5.41284 2.85237 4.56927 0
M  V30 70 H 5.03507 1.14681 4.03532 0
M  V30 71 H 5.52204 1.50439 2.10309 0
M  V30 72 H -0.184821 1.13718 -2.24031 0
M  V30 73 H -8.06928 -0.306177 1.58208 0
M  V30 74 H -9.6218 -2.0069 3.26981 0
M  V30 75 H -10.1019 -2.23894 1.57596 0
M  V30 76 H -9.55981 -4.22138 3.68468 0
M  V30 77 H -8.878 -4.55637 2.2037 0
M  V30 END ATOM
M  V30 BEGIN BOND
M  V30 1 1 1 2
M  V30 2 1 2 3
M  V30 3 1 3 4
M  V30 4 2 4 5
M  V30 5 1 4 6
M  V30 6 1 6 7
M  V30 7 1 7 8
M  V30 8 2 8 9
M  V30 9 1 9 10
M  V30 10 2 10 11
M  V30 11 1 11 12
M  V30 12 2 12 13
M  V30 13 1 11 14
M  V30 14 2 14 15
M  V30 15 1 15 16
M  V30 16 1 16 17
M  V30 17 2 16 18
M  V30 18 1 18 19
M  V30 19 1 19 20
M  V30 20 1 20 21
M  V30 21 1 21 22
M  V30 22 2 22 23
M  V30 23 1 23 24
M  V30 24 2 24 25
M  V30 25 1 25 26
M  V30 26 2 26 27
M  V30 27 1 25 28
M  V30 28 2 28 29
M  V30 29 1 29 30
M  V30 30 2 30 31
M  V30 31 1 31 32
M  V30 32 1 32 33
M  V30 33 1 33 34
M  V30 34 2 32 35
M  V30 35 1 21 36
M  V30 36 1 36 37
M  V30 37 1 36 38
M  V30 38 1 36 39
M  V30 39 2 19 40
M  V30 40 1 6 41
M  V30 41 1 41 42
M  V30 42 2 42 43
M  V30 43 1 42 44
M  V30 44 1 44 45
M  V30 45 1 13 8
M  V30 46 1 40 14
M  V30 47 1 27 22
M  V30 48 1 35 28
M  V30 49 1 1 46
M  V30 50 1 1 47
M  V30 51 1 1 48
M  V30 52 1 2 49
M  V30 53 1 2 50
M  V30 54 1 6 51 CFG=3
M  V30 55 1 7 52
M  V30 56 1 7 53
M  V30 57 1 9 54
M  V30 58 1 10 55
M  V30 59 1 12 56
M  V30 60 1 13 57
M  V30 61 1 17 58
M  V30 62 1 17 59
M  V30 63 1 21 60 CFG=3
M  V30 64 1 23 61
M  V30 65 1 24 62
M  V30 66 1 26 63
M  V30 67 1 27 64
M  V30 68 1 29 65
M  V30 69 1 30 66
M  V30 70 1 31 67
M  V30 71 1 34 68
M  V30 72 1 34 69
M  V30 73 1 34 70
M  V30 74 1 35 71
M  V30 75 1 40 72
M  V30 76 1 41 73
M  V30 77 1 44 74
M  V30 78 1 44 75
M  V30 79 1 45 76
M  V30 80 1 45 77
M  V30 END BOND
M  V30 END CTAB
M  END
