
     RDKit          3D

  0  0  0  0  0  0  0  0  0  0999 V3000
M  V30 BEGIN CTAB
M  V30 COUNTS 20 20 0 0 0
M  V30 BEGIN ATOM
M  V30 1 N 3.26081 0.23354 0.123519 0
M  V30 2 C 1.84233 0.182758 0.0493225 0
M  V30 3 C 1.13645 -0.997306 0.136219 0
M  V30 4 C -0.246951 -0.987173 0.0574448 0
M  V30 5 N -0.971171 -2.20481 0.147367 0
M  V30 6 C -0.948571 0.186444 -0.107798 0
M  V30 7 C -0.217653 1.35891 -0.192472 0
M  V30 8 C 1.16283 1.36911 -0.116044 0
M  V30 9 O -0.89529 2.53472 -0.356609 0
M  V30 10 C -2.3988 0.218227 -0.192691 0
M  V30 11 O -3.04268 1.27548 -0.342264 0
M  V30 12 O -3.09585 -0.970515 -0.104363 0
M  V30 13 H 3.79512 0.323188 -0.767687 0
M  V30 14 H 3.79457 0.186341 1.01556 0
M  V30 15 H 1.68476 -1.91884 0.265814 0
M  V30 16 H -0.979547 -2.84537 -0.682232 0
M  V30 17 H -1.48777 -2.49327 0.980651 0
M  V30 18 H 1.73087 2.29758 -0.183685 0
M  V30 19 H -0.409972 3.42021 -0.42431 0
M  V30 20 H -3.7135 -1.16922 0.69426 0
M  V30 END ATOM
M  V30 BEGIN BOND
M  V30 1 1 1 2
M  V30 2 2 2 3
M  V30 3 1 3 4
M  V30 4 1 4 5
M  V30 5 2 4 6
M  V30 6 1 6 7
M  V30 7 2 7 8
M  V30 8 1 7 9
M  V30 9 1 6 10
M  V30 10 2 10 11
M  V30 11 1 10 12
M  V30 12 1 8 2
M  V30 13 1 1 13
M  V30 14 1 1 14
M  V30 15 1 3 15
M  V30 16 1 5 16
M  V30 17 1 5 17
M  V30 18 1 8 18
M  V30 19 1 9 19
M  V30 20 1 12 20
M  V30 END BOND
M  V30 END CTAB
M  END
