
     RDKit          3D

  0  0  0  0  0  0  0  0  0  0999 V3000
M  V30 BEGIN CTAB
M  V30 COUNTS 26 27 0 0 0
M  V30 BEGIN ATOM
M  V30 1 N 4.58181 -0.870377 0.441083 0
M  V30 2 C 3.56206 0.114055 0.40665 0
M  V30 3 N 3.70451 1.43654 0.572407 0
M  V30 4 N 2.52631 2.02925 0.472604 0
M  V30 5 C 1.59256 1.09014 0.238203 0
M  V30 6 N 2.22781 -0.0739986 0.198908 0
M  V30 7 N 1.66077 -1.33292 -0.0193689 0
M  V30 8 C 0.136657 1.36679 0.0646294 0
M  V30 9 O -0.554035 0.178603 -0.162814 0
M  V30 10 C -1.896 0.474272 -0.318332 0
M  V30 11 C -2.84826 -0.40848 0.466602 0
M  V30 12 C -3.73489 -0.41713 -0.786638 0
M  V30 13 C -2.44738 -0.175747 -1.58029 0
M  V30 14 H 4.96533 -1.21072 -0.466353 0
M  V30 15 H 4.90167 -1.20927 1.37859 0
M  V30 16 H 1.06724 -1.54458 -0.853902 0
M  V30 17 H 1.80731 -2.13213 0.653223 0
M  V30 18 H -0.25574 1.90994 0.968046 0
M  V30 19 H -0.0242385 2.08447 -0.781554 0
M  V30 20 H -2.12915 1.55201 -0.232478 0
M  V30 21 H -3.33171 0.0839006 1.3365 0
M  V30 22 H -2.42775 -1.40375 0.629049 0
M  V30 23 H -4.38345 0.476907 -0.848618 0
M  V30 24 H -4.21829 -1.37763 -0.980794 0
M  V30 25 H -2.56164 0.496772 -2.43806 0
M  V30 26 H -1.92152 -1.13691 -1.7988 0
M  V30 END ATOM
M  V30 BEGIN BOND
M  V30 1 1 1 2
M  V30 2 2 2 3
M  V30 3 1 3 4
M  V30 4 2 4 5
M  V30 5 1 5 6
M  V30 6 1 6 7
M  V30 7 1 5 8
M  V30 8 1 8 9
M  V30 9 1 9 10
M  V30 10 1 10 11
M  V30 11 1 11 12
M  V30 12 1 12 13
M  V30 13 1 6 2
M  V30 14 1 13 10
M  V30 15 1 1 14
M  V30 16 1 1 15
M  V30 17 1 7 16
M  V30 18 1 7 17
M  V30 19 1 8 18
M  V30 20 1 8 19
M  V30 21 1 10 20
M  V30 22 1 11 21
M  V30 23 1 11 22
M  V30 24 1 12 23
M  V30 25 1 12 24
M  V30 26 1 13 25
M  V30 27 1 13 26
M  V30 END BOND
M  V30 END CTAB
M  END
