
     RDKit          3D

  0  0  0  0  0  0  0  0  0  0999 V3000
M  V30 BEGIN CTAB
M  V30 COUNTS 33 34 0 0 0
M  V30 BEGIN ATOM
M  V30 1 N 4.00307 3.48748 -0.521258 0
M  V30 2 C 3.68259 2.40242 -0.35837 0
M  V30 3 C 3.28699 1.03261 -0.177669 0
M  V30 4 C 4.19781 -0.00345093 -0.239374 0
M  V30 5 N 5.56575 0.265343 -0.48586 0
M  V30 6 C 3.75071 -1.29599 -0.0579985 0
M  V30 7 C 2.42279 -1.58 0.182521 0
M  V30 8 N 1.56578 -0.54188 0.235513 0
M  V30 9 C 1.96272 0.734091 0.0636143 0
M  V30 10 S 0.794324 2.09769 0.141643 0
M  V30 11 C -0.863082 1.50393 0.461962 0
M  V30 12 C -1.40011 0.672021 -0.709079 0
M  V30 13 N -2.74508 0.208042 -0.408531 0
M  V30 14 C -3.94347 0.889971 -0.709377 0
M  V30 15 O -4.04523 1.85659 -1.51344 0
M  V30 16 C -5.06978 0.313122 0.05096 0
M  V30 17 C -4.50939 -0.892096 0.751771 0
M  V30 18 C -3.11837 -1.01119 0.243454 0
M  V30 19 O -2.34061 -1.99303 0.336412 0
M  V30 20 N 2.00923 -2.93019 0.365193 0
M  V30 21 H 5.97912 -0.104951 -1.36986 0
M  V30 22 H 6.19191 0.805201 0.14965 0
M  V30 23 H 4.43797 -2.12637 -0.0997921 0
M  V30 24 H -1.54548 2.37295 0.533779 0
M  V30 25 H -0.942821 0.87105 1.38515 0
M  V30 26 H -0.747613 -0.179893 -0.888013 0
M  V30 27 H -1.44098 1.29997 -1.6204 0
M  V30 28 H -5.9152 0.0481282 -0.584633 0
M  V30 29 H -5.42401 1.09666 0.780309 0
M  V30 30 H -4.4252 -0.619994 1.84665 0
M  V30 31 H -5.10488 -1.79928 0.645112 0
M  V30 32 H 2.17306 -3.38756 1.29977 0
M  V30 33 H 1.55748 -3.4914 -0.362444 0
M  V30 END ATOM
M  V30 BEGIN BOND
M  V30 1 3 1 2
M  V30 2 1 2 3
M  V30 3 2 3 4
M  V30 4 1 4 5
M  V30 5 1 4 6
M  V30 6 2 6 7
M  V30 7 1 7 8
M  V30 8 2 8 9
M  V30 9 1 9 10
M  V30 10 1 10 11
M  V30 11 1 11 12
M  V30 12 1 12 13
M  V30 13 1 13 14
M  V30 14 2 14 15
M  V30 15 1 14 16
M  V30 16 1 16 17
M  V30 17 1 17 18
M  V30 18 2 18 19
M  V30 19 1 7 20
M  V30 20 1 9 3
M  V30 21 1 18 13
M  V30 22 1 5 21
M  V30 23 1 5 22
M  V30 24 1 6 23
M  V30 25 1 11 24
M  V30 26 1 11 25
M  V30 27 1 12 26
M  V30 28 1 12 27
M  V30 29 1 16 28
M  V30 30 1 16 29
M  V30 31 1 17 30
M  V30 32 1 17 31
M  V30 33 1 20 32
M  V30 34 1 20 33
M  V30 END BOND
M  V30 END CTAB
M  END
