
     RDKit          3D

  0  0  0  0  0  0  0  0  0  0999 V3000
M  V30 BEGIN CTAB
M  V30 COUNTS 48 51 0 0 0
M  V30 BEGIN ATOM
M  V30 1 N -4.99155 3.70716 1.0118 0
M  V30 2 C -4.03097 3.01944 1.04432 0
M  V30 3 C -2.80446 2.19768 1.06523 0
M  V30 4 C -2.44905 1.65613 2.212 0
M  V30 5 N -3.35716 1.92291 3.31348 0
M  V30 6 O -1.30295 0.926265 2.33604 0
M  V30 7 C -0.495151 0.763478 1.18239 0
M  V30 8 C -0.815452 1.28934 -0.0411593 0
M  V30 9 C -2.1845 1.80829 -0.264533 0
M  V30 10 C -3.05081 0.547405 -0.563199 0
M  V30 11 C -4.37862 0.770331 -0.791269 0
M  V30 12 C -5.33435 -0.273899 -0.881668 0
M  V30 13 C -4.82891 -1.53132 -0.72442 0
M  V30 14 C -3.49263 -1.75876 -0.504222 0
M  V30 15 C -2.57764 -0.718768 -0.424028 0
M  V30 16 C -5.83076 -2.64285 -0.717709 0
M  V30 17 F -6.71221 -2.50638 -1.74553 0
M  V30 18 F -6.49492 -2.54489 0.503905 0
M  V30 19 F -5.20355 -3.85847 -0.777717 0
M  V30 20 C 0.0225299 1.1319 -1.13665 0
M  V30 21 N -0.219502 1.84095 -2.36155 0
M  V30 22 N 1.12927 0.427161 -0.962701 0
M  V30 23 C 1.49603 -0.136855 0.23598 0
M  V30 24 N 0.674396 0.048785 1.29423 0
M  V30 25 S 2.944 -1.1431 0.323801 0
M  V30 26 C 4.3511 0.0137768 0.202311 0
M  V30 27 C 5.63468 -0.687789 0.157376 0
M  V30 28 C 5.70726 -2.07489 0.319635 0
M  V30 29 C 6.95815 -2.67924 0.280818 0
M  V30 30 C 8.12551 -1.95707 0.0898385 0
M  V30 31 C 7.96683 -0.595063 -0.060833 0
M  V30 32 C 6.75746 0.0692901 -0.034308 0
M  V30 33 Cl 6.63394 1.78705 -0.245004 0
M  V30 34 H -3.05643 2.52893 4.04974 0
M  V30 35 H -4.30313 1.46453 3.35013 0
M  V30 36 H -2.31071 2.54325 -1.00642 0
M  V30 37 H -4.83117 1.71638 -1.01301 0
M  V30 38 H -6.35558 -0.11426 -1.04941 0
M  V30 39 H -3.12601 -2.76524 -0.383917 0
M  V30 40 H -1.55654 -0.938916 -0.269301 0
M  V30 41 H -0.530029 2.8635 -2.25749 0
M  V30 42 H -0.111165 1.45438 -3.3026 0
M  V30 43 H 4.31092 0.666429 1.09585 0
M  V30 44 H 4.22506 0.596592 -0.718487 0
M  V30 45 H 4.80623 -2.64706 0.487805 0
M  V30 46 H 7.06093 -3.73532 0.468477 0
M  V30 47 H 9.07919 -2.46236 0.0483483 0
M  V30 48 H 8.85242 0.0111757 -0.193529 0
M  V30 END ATOM
M  V30 BEGIN BOND
M  V30 1 3 1 2
M  V30 2 1 2 3
M  V30 3 2 3 4
M  V30 4 1 4 5
M  V30 5 1 4 6
M  V30 6 1 6 7
M  V30 7 2 7 8
M  V30 8 1 8 9
M  V30 9 1 9 10
M  V30 10 2 10 11
M  V30 11 1 11 12
M  V30 12 2 12 13
M  V30 13 1 13 14
M  V30 14 2 14 15
M  V30 15 1 13 16
M  V30 16 1 16 17
M  V30 17 1 16 18
M  V30 18 1 16 19
M  V30 19 1 8 20
M  V30 20 1 20 21
M  V30 21 2 20 22
M  V30 22 1 22 23
M  V30 23 2 23 24
M  V30 24 1 23 25
M  V30 25 1 25 26
M  V30 26 1 26 27
M  V30 27 2 27 28
M  V30 28 1 28 29
M  V30 29 2 29 30
M  V30 30 1 30 31
M  V30 31 2 31 32
M  V30 32 1 32 33
M  V30 33 1 9 3
M  V30 34 1 15 10
M  V30 35 1 32 27
M  V30 36 1 24 7
M  V30 37 1 5 34
M  V30 38 1 5 35
M  V30 39 1 9 36
M  V30 40 1 11 37
M  V30 41 1 12 38
M  V30 42 1 14 39
M  V30 43 1 15 40
M  V30 44 1 21 41
M  V30 45 1 21 42
M  V30 46 1 26 43
M  V30 47 1 26 44
M  V30 48 1 28 45
M  V30 49 1 29 46
M  V30 50 1 30 47
M  V30 51 1 31 48
M  V30 END BOND
M  V30 END CTAB
M  END
