
     RDKit          3D

  0  0  0  0  0  0  0  0  0  0999 V3000
M  V30 BEGIN CTAB
M  V30 COUNTS 31 33 0 0 0
M  V30 BEGIN ATOM
M  V30 1 N -5.35371 0.35697 0.082386 0
M  V30 2 C -3.94129 0.513435 0.0513702 0
M  V30 3 C -3.11745 -0.566142 0.0494181 0
M  V30 4 C -1.7427 -0.463456 0.0199102 0
M  V30 5 C -1.19644 0.803661 -0.00871435 0
M  V30 6 C -2.03103 1.90267 -0.00680805 0
M  V30 7 C -3.39689 1.775 0.0228587 0
M  V30 8 N 0.140022 0.930455 -0.0377678 0
M  V30 9 C 1.01726 -0.095455 -0.0415466 0
M  V30 10 C 0.477232 -1.35916 -0.0130952 0
M  V30 11 C -0.90919 -1.55234 0.0178903 0
M  V30 12 N -1.44705 -2.86611 0.0469954 0
M  V30 13 C 2.4611 0.152523 -0.0744534 0
M  V30 14 C 2.94089 1.44385 -0.102032 0
M  V30 15 C 4.28642 1.71182 -0.133204 0
M  V30 16 C 5.19987 0.682729 -0.137692 0
M  V30 17 C 4.74123 -0.607367 -0.11056 0
M  V30 18 C 3.37416 -0.867952 -0.0790474 0
M  V30 19 H -5.81206 -0.57056 -0.0240272 0
M  V30 20 H -5.98012 1.18032 0.214736 0
M  V30 21 H -3.51485 -1.58167 0.0715329 0
M  V30 22 H -1.62496 2.89762 -0.0288326 0
M  V30 23 H -4.05116 2.66846 0.0239057 0
M  V30 24 H 1.10579 -2.2353 -0.0138765 0
M  V30 25 H -1.23549 -3.60267 -0.659101 0
M  V30 26 H -2.10256 -3.14253 0.81668 0
M  V30 27 H 2.24448 2.25851 -0.0990225 0
M  V30 28 H 4.67496 2.72423 -0.155071 0
M  V30 29 H 6.25899 0.865418 -0.161861 0
M  V30 30 H 5.4692 -1.43227 -0.114053 0
M  V30 31 H 3.06534 -1.9247 -0.0581743 0
M  V30 END ATOM
M  V30 BEGIN BOND
M  V30 1 1 1 2
M  V30 2 2 2 3
M  V30 3 1 3 4
M  V30 4 2 4 5
M  V30 5 1 5 6
M  V30 6 2 6 7
M  V30 7 1 5 8
M  V30 8 2 8 9
M  V30 9 1 9 10
M  V30 10 2 10 11
M  V30 11 1 11 12
M  V30 12 1 9 13
M  V30 13 2 13 14
M  V30 14 1 14 15
M  V30 15 2 15 16
M  V30 16 1 16 17
M  V30 17 2 17 18
M  V30 18 1 7 2
M  V30 19 1 18 13
M  V30 20 1 11 4
M  V30 21 1 1 19
M  V30 22 1 1 20
M  V30 23 1 3 21
M  V30 24 1 6 22
M  V30 25 1 7 23
M  V30 26 1 10 24
M  V30 27 1 12 25
M  V30 28 1 12 26
M  V30 29 1 14 27
M  V30 30 1 15 28
M  V30 31 1 16 29
M  V30 32 1 17 30
M  V30 33 1 18 31
M  V30 END BOND
M  V30 END CTAB
M  END
