
     RDKit          3D

  0  0  0  0  0  0  0  0  0  0999 V3000
M  V30 BEGIN CTAB
M  V30 COUNTS 38 39 0 0 0
M  V30 BEGIN ATOM
M  V30 1 N 1.51965 2.37047 -0.545877 0
M  V30 2 C 0.981237 1.51403 0.455911 0
M  V30 3 C 0.341996 0.255524 -0.0424927 0
M  V30 4 C 1.31654 -0.557163 -0.78543 0
M  V30 5 S 2.7494 -1.10885 0.0321025 0
M  V30 6 N 3.66561 -2.04476 -1.13854 0
M  V30 7 O 2.52714 -2.00621 1.18088 0
M  V30 8 O 3.7114 0.0150621 0.397486 0
M  V30 9 C -0.798869 0.599597 -0.985725 0
M  V30 10 C -1.66427 1.67353 -0.319256 0
M  V30 11 C -2.23156 1.19678 0.977565 0
M  V30 12 C -1.24999 0.473463 1.84884 0
M  V30 13 C -0.310631 -0.430622 1.12352 0
M  V30 14 C -1.03473 -1.68746 0.773121 0
M  V30 15 C -1.67771 -1.73615 -0.551605 0
M  V30 16 C -1.64499 -0.537026 -1.39412 0
M  V30 17 H 1.2281 3.36455 -0.444509 0
M  V30 18 H 1.42418 2.09194 -1.52072 0
M  V30 19 H 1.75675 1.2327 1.19939 0
M  V30 20 H 0.267436 2.13963 1.06393 0
M  V30 21 H 1.66846 0.0768028 -1.65733 0
M  V30 22 H 0.867501 -1.44576 -1.31105 0
M  V30 23 H 4.15432 -1.3889 -1.80865 0
M  V30 24 H 4.40619 -2.55729 -0.588412 0
M  V30 25 H -0.326848 1.11394 -1.85767 0
M  V30 26 H -2.5391 1.79848 -1.025 0
M  V30 27 H -1.17263 2.64747 -0.286329 0
M  V30 28 H -2.57206 2.08988 1.54447 0
M  V30 29 H -3.15882 0.57966 0.817947 0
M  V30 30 H -1.8682 -0.189312 2.52631 0
M  V30 31 H -0.714697 1.14854 2.54446 0
M  V30 32 H 0.50244 -0.671261 1.85166 0
M  V30 33 H -0.302626 -2.54201 0.888298 0
M  V30 34 H -1.76297 -1.87787 1.61943 0
M  V30 35 H -1.28357 -2.63057 -1.1259 0
M  V30 36 H -2.76164 -2.02885 -0.389381 0
M  V30 37 H -2.68579 -0.123352 -1.57236 0
M  V30 38 H -1.32666 -0.818629 -2.44597 0
M  V30 END ATOM
M  V30 BEGIN BOND
M  V30 1 1 1 2
M  V30 2 1 2 3
M  V30 3 1 3 4
M  V30 4 1 4 5
M  V30 5 1 5 6
M  V30 6 2 5 7
M  V30 7 2 5 8
M  V30 8 1 3 9
M  V30 9 1 9 10
M  V30 10 1 10 11
M  V30 11 1 11 12
M  V30 12 1 12 13
M  V30 13 1 13 14
M  V30 14 1 14 15
M  V30 15 1 15 16
M  V30 16 1 13 3
M  V30 17 1 16 9
M  V30 18 1 1 17
M  V30 19 1 1 18
M  V30 20 1 2 19
M  V30 21 1 2 20
M  V30 22 1 4 21
M  V30 23 1 4 22
M  V30 24 1 6 23
M  V30 25 1 6 24
M  V30 26 1 9 25
M  V30 27 1 10 26
M  V30 28 1 10 27
M  V30 29 1 11 28
M  V30 30 1 11 29
M  V30 31 1 12 30
M  V30 32 1 12 31
M  V30 33 1 13 32
M  V30 34 1 14 33
M  V30 35 1 14 34
M  V30 36 1 15 35
M  V30 37 1 15 36
M  V30 38 1 16 37
M  V30 39 1 16 38
M  V30 END BOND
M  V30 END CTAB
M  END
