
     RDKit          3D

  0  0  0  0  0  0  0  0  0  0999 V3000
M  V30 BEGIN CTAB
M  V30 COUNTS 39 40 0 0 0
M  V30 BEGIN ATOM
M  V30 1 C -3.20724 -1.41596 1.17403 0
M  V30 2 C -2.71491 -1.35672 -0.251711 0
M  V30 3 C -2.09708 -0.0983055 -0.687264 0
M  V30 4 C -3.07061 1.07221 -0.571553 0
M  V30 5 C -2.34975 2.3935 -0.566575 0
M  V30 6 C -1.39597 2.5448 0.592495 0
M  V30 7 C -1.13265 1.13814 1.15828 0
M  V30 8 N -0.858899 0.295852 0.04015 0
M  V30 9 C 0.326249 -0.202492 -0.475183 0
M  V30 10 O 0.264033 -0.98988 -1.52357 0
M  V30 11 C 1.71543 0.0174684 -0.012214 0
M  V30 12 C 2.01744 0.977784 0.916251 0
M  V30 13 S 3.72335 0.784688 1.15966 0
M  V30 14 C 3.98758 -0.4882 0.0886039 0
M  V30 15 C 2.75939 -0.739054 -0.433649 0
M  V30 16 S 5.52212 -1.28787 -0.250131 0
M  V30 17 O 6.12857 -1.8642 0.98041 0
M  V30 18 O 5.30073 -2.37948 -1.22817 0
M  V30 19 N 6.60271 -0.078023 -0.861749 0
M  V30 20 N -1.9692 -2.57043 -0.54056 0
M  V30 21 H -2.3725 -1.46826 1.91548 0
M  V30 22 H -3.71517 -2.40995 1.28219 0
M  V30 23 H -3.97055 -0.66867 1.41598 0
M  V30 24 H -3.67435 -1.49101 -0.866275 0
M  V30 25 H -1.82017 -0.128862 -1.76805 0
M  V30 26 H -3.70355 1.04402 -1.4854 0
M  V30 27 H -3.71329 1.01752 0.305239 0
M  V30 28 H -3.12795 3.1826 -0.512108 0
M  V30 29 H -1.78949 2.44943 -1.54372 0
M  V30 30 H -0.47984 3.02012 0.24611 0
M  V30 31 H -1.86909 3.16598 1.35826 0
M  V30 32 H -2.16856 0.88952 1.60078 0
M  V30 33 H -0.495717 1.09683 2.01804 0
M  V30 34 H 1.43796 1.73857 1.42431 0
M  V30 35 H 2.66405 -1.55913 -1.18456 0
M  V30 36 H 7.02828 -0.382001 -1.77733 0
M  V30 37 H 6.13115 0.831673 -0.996377 0
M  V30 38 H -1.2728 -2.69892 0.244764 0
M  V30 39 H -2.63972 -3.38331 -0.480733 0
M  V30 END ATOM
M  V30 BEGIN BOND
M  V30 1 1 1 2
M  V30 2 1 2 3
M  V30 3 1 3 4
M  V30 4 1 4 5
M  V30 5 1 5 6
M  V30 6 1 6 7
M  V30 7 1 7 8
M  V30 8 1 8 9
M  V30 9 2 9 10
M  V30 10 1 9 11
M  V30 11 2 11 12
M  V30 12 1 12 13
M  V30 13 1 13 14
M  V30 14 2 14 15
M  V30 15 1 14 16
M  V30 16 2 16 17
M  V30 17 2 16 18
M  V30 18 1 16 19
M  V30 19 1 2 20
M  V30 20 1 8 3
M  V30 21 1 15 11
M  V30 22 1 1 21
M  V30 23 1 1 22
M  V30 24 1 1 23
M  V30 25 1 2 24
M  V30 26 1 3 25
M  V30 27 1 4 26
M  V30 28 1 4 27
M  V30 29 1 5 28
M  V30 30 1 5 29
M  V30 31 1 6 30
M  V30 32 1 6 31
M  V30 33 1 7 32
M  V30 34 1 7 33
M  V30 35 1 12 34
M  V30 36 1 15 35
M  V30 37 1 19 36
M  V30 38 1 19 37
M  V30 39 1 20 38
M  V30 40 1 20 39
M  V30 END BOND
M  V30 END CTAB
M  END
