
     RDKit          3D

  0  0  0  0  0  0  0  0  0  0999 V3000
M  V30 BEGIN CTAB
M  V30 COUNTS 40 42 0 0 0
M  V30 BEGIN ATOM
M  V30 1 C -2.28789 -1.87976 -0.161266 0
M  V30 2 C -2.43917 -0.479957 0.45357 0
M  V30 3 C -1.90021 -0.504116 1.85221 0
M  V30 4 N -3.85923 -0.26714 0.588003 0
M  V30 5 C -4.55436 0.675224 0.110877 0
M  V30 6 N -5.97728 0.735974 0.347066 0
M  V30 7 N -3.90639 1.65875 -0.676798 0
M  V30 8 C -2.65695 1.57922 -0.891625 0
M  V30 9 N -2.10286 2.64102 -1.7077 0
M  V30 10 N -1.83244 0.519405 -0.396346 0
M  V30 11 O -0.572135 0.575353 -0.795761 0
M  V30 12 C 0.400408 0.0579679 -0.0118082 0
M  V30 13 C 1.77492 0.178687 -0.557677 0
M  V30 14 C 2.01207 0.778825 -1.77655 0
M  V30 15 C 3.3031 0.875034 -2.25599 0
M  V30 16 C 4.36265 0.371527 -1.51865 0
M  V30 17 C 4.12115 -0.236292 -0.283876 0
M  V30 18 C 5.15771 -0.744996 0.468767 0
M  V30 19 C 4.90269 -1.33809 1.67801 0
M  V30 20 C 3.60813 -1.4222 2.13477 0
M  V30 21 N 2.60918 -0.921804 1.38973 0
M  V30 22 C 2.81896 -0.328806 0.190913 0
M  V30 23 H -3.25146 -2.422 -0.209424 0
M  V30 24 H -1.62028 -2.50301 0.472851 0
M  V30 25 H -1.9305 -1.75817 -1.1944 0
M  V30 26 H -1.66242 0.519432 2.23121 0
M  V30 27 H -2.69524 -0.887072 2.53292 0
M  V30 28 H -1.0264 -1.12043 2.03033 0
M  V30 29 H -6.33602 0.93342 1.28229 0
M  V30 30 H -6.6221 0.576711 -0.44398 0
M  V30 31 H -2.13847 2.61535 -2.73961 0
M  V30 32 H -1.66495 3.43571 -1.21895 0
M  V30 33 H 0.392998 0.514584 0.993557 0
M  V30 34 H 0.245041 -1.063 0.0245909 0
M  V30 35 H 1.14084 1.14956 -2.29883 0
M  V30 36 H 3.47698 1.34664 -3.21102 0
M  V30 37 H 5.38375 0.440449 -1.88393 0
M  V30 38 H 6.16368 -0.658579 0.0729491 0
M  V30 39 H 5.71635 -1.74264 2.27896 0
M  V30 40 H 3.44612 -1.90077 3.10063 0
M  V30 END ATOM
M  V30 BEGIN BOND
M  V30 1 1 1 2
M  V30 2 1 2 3
M  V30 3 1 2 4
M  V30 4 2 4 5
M  V30 5 1 5 6
M  V30 6 1 5 7
M  V30 7 2 7 8
M  V30 8 1 8 9
M  V30 9 1 8 10
M  V30 10 1 10 11
M  V30 11 1 11 12
M  V30 12 1 12 13
M  V30 13 2 13 14
M  V30 14 1 14 15
M  V30 15 2 15 16
M  V30 16 1 16 17
M  V30 17 2 17 18
M  V30 18 1 18 19
M  V30 19 2 19 20
M  V30 20 1 20 21
M  V30 21 2 21 22
M  V30 22 1 10 2
M  V30 23 1 22 13
M  V30 24 1 22 17
M  V30 25 1 1 23
M  V30 26 1 1 24
M  V30 27 1 1 25
M  V30 28 1 3 26
M  V30 29 1 3 27
M  V30 30 1 3 28
M  V30 31 1 6 29
M  V30 32 1 6 30
M  V30 33 1 9 31
M  V30 34 1 9 32
M  V30 35 1 12 33
M  V30 36 1 12 34
M  V30 37 1 14 35
M  V30 38 1 15 36
M  V30 39 1 16 37
M  V30 40 1 18 38
M  V30 41 1 19 39
M  V30 42 1 20 40
M  V30 END BOND
M  V30 END CTAB
M  END
