
     RDKit          3D

  0  0  0  0  0  0  0  0  0  0999 V3000
M  V30 BEGIN CTAB
M  V30 COUNTS 48 51 0 0 0
M  V30 BEGIN ATOM
M  V30 1 O -0.489638 1.81036 2.70171 0
M  V30 2 C 0.529764 1.15995 2.27666 0
M  V30 3 N 0.410738 0.243045 1.21443 0
M  V30 4 C -0.750205 -0.0928933 0.483952 0
M  V30 5 C -0.632697 -0.766988 -0.746128 0
M  V30 6 C -1.72378 -1.13653 -1.4937 0
M  V30 7 C -2.9853 -0.854806 -1.05647 0
M  V30 8 C -3.12277 -0.196931 0.143198 0
M  V30 9 C -2.01495 0.182831 0.911177 0
M  V30 10 C -4.43906 0.11916 0.63984 0
M  V30 11 O -4.60648 0.719517 1.73193 0
M  V30 12 C -5.6795 -0.23256 -0.085371 0
M  V30 13 C -5.51752 -0.8918 -1.28599 0
M  V30 14 C -4.18832 -1.22291 -1.80939 0
M  V30 15 O -4.06794 -1.8169 -2.89281 0
M  V30 16 C -6.67715 -1.22653 -1.97484 0
M  V30 17 C -7.9165 -0.905689 -1.46455 0
M  V30 18 C -8.06 -0.243759 -0.257812 0
M  V30 19 C -6.91577 0.0918287 0.431623 0
M  V30 20 C 1.80868 1.44191 2.9791 0
M  V30 21 O 2.88278 0.889023 2.28242 0
M  V30 22 C 3.21825 1.35346 1.02478 0
M  V30 23 O 2.54733 2.27413 0.525688 0
M  V30 24 C 4.34713 0.784944 0.266425 0
M  V30 25 C 5.10728 -0.235112 0.79407 0
M  V30 26 C 6.16275 -0.761487 0.07663 0
M  V30 27 N 6.90085 -1.81339 0.689033 0
M  V30 28 C 6.46738 -0.270306 -1.17824 0
M  V30 29 C 5.72164 0.755122 -1.73613 0
M  V30 30 C 4.66136 1.26592 -0.986145 0
M  V30 31 N 6.02699 1.26157 -3.01693 0
M  V30 32 H 1.30893 -0.292726 0.933377 0
M  V30 33 H 0.362183 -0.982773 -1.08021 0
M  V30 34 H -1.60715 -1.65492 -2.43798 0
M  V30 35 H -2.24322 0.677443 1.83036 0
M  V30 36 H -6.55451 -1.74198 -2.91383 0
M  V30 37 H -8.82519 -1.1636 -1.99626 0
M  V30 38 H -9.05701 -0.00504983 0.117064 0
M  V30 39 H -6.97756 0.611711 1.38265 0
M  V30 40 H 1.94879 2.55548 3.04718 0
M  V30 41 H 1.77658 1.0018 4.00507 0
M  V30 42 H 4.83007 -0.585116 1.77802 0
M  V30 43 H 6.7594 -2.82313 0.474845 0
M  V30 44 H 7.62745 -1.5462 1.39603 0
M  V30 45 H 7.29986 -0.703234 -1.71515 0
M  V30 46 H 4.06948 2.07768 -1.42551 0
M  V30 47 H 6.46973 2.18821 -3.12804 0
M  V30 48 H 5.80683 0.702226 -3.8567 0
M  V30 END ATOM
M  V30 BEGIN BOND
M  V30 1 2 1 2
M  V30 2 1 2 3
M  V30 3 1 3 4
M  V30 4 2 4 5
M  V30 5 1 5 6
M  V30 6 2 6 7
M  V30 7 1 7 8
M  V30 8 2 8 9
M  V30 9 1 8 10
M  V30 10 2 10 11
M  V30 11 1 10 12
M  V30 12 2 12 13
M  V30 13 1 13 14
M  V30 14 2 14 15
M  V30 15 1 13 16
M  V30 16 2 16 17
M  V30 17 1 17 18
M  V30 18 2 18 19
M  V30 19 1 2 20
M  V30 20 1 20 21
M  V30 21 1 21 22
M  V30 22 2 22 23
M  V30 23 1 22 24
M  V30 24 2 24 25
M  V30 25 1 25 26
M  V30 26 1 26 27
M  V30 27 2 26 28
M  V30 28 1 28 29
M  V30 29 2 29 30
M  V30 30 1 29 31
M  V30 31 1 9 4
M  V30 32 1 19 12
M  V30 33 1 30 24
M  V30 34 1 14 7
M  V30 35 1 3 32
M  V30 36 1 5 33
M  V30 37 1 6 34
M  V30 38 1 9 35
M  V30 39 1 16 36
M  V30 40 1 17 37
M  V30 41 1 18 38
M  V30 42 1 19 39
M  V30 43 1 20 40
M  V30 44 1 20 41
M  V30 45 1 25 42
M  V30 46 1 27 43
M  V30 47 1 27 44
M  V30 48 1 28 45
M  V30 49 1 30 46
M  V30 50 1 31 47
M  V30 51 1 31 48
M  V30 END BOND
M  V30 END CTAB
M  END
