
     RDKit          3D

  0  0  0  0  0  0  0  0  0  0999 V3000
M  V30 BEGIN CTAB
M  V30 COUNTS 40 43 0 0 0
M  V30 BEGIN ATOM
M  V30 1 N 3.80123 -1.62864 0.702713 0
M  V30 2 C 4.55745 -0.555042 0.167597 0
M  V30 3 N 5.94084 -0.502556 0.651504 0
M  V30 4 N 4.23471 0.361541 -0.607675 0
M  V30 5 C 3.08876 0.709322 -1.23391 0
M  V30 6 O 3.03584 1.79448 -1.94533 0
M  V30 7 C 1.83166 -0.0805295 -1.17763 0
M  V30 8 C 0.747033 0.413821 -0.372825 0
M  V30 9 C 0.97174 1.62896 0.449288 0
M  V30 10 C 0.305311 2.9534 0.0575086 0
M  V30 11 C -0.159665 2.18595 1.24023 0
M  V30 12 N -0.215511 -0.444441 -0.487212 0
M  V30 13 N 0.182675 -1.44686 -1.32105 0
M  V30 14 C 1.42691 -1.23419 -1.74338 0
M  V30 15 C -1.45104 -0.582487 0.19849 0
M  V30 16 C -1.39332 -0.851129 1.5929 0
M  V30 17 C -2.52634 -1.03767 2.33264 0
M  V30 18 C -3.76985 -0.975666 1.75313 0
M  V30 19 Br -5.31666 -1.24204 2.87583 0
M  V30 20 C -3.86664 -0.719265 0.407846 0
M  V30 21 N -5.04576 -0.666402 -0.199488 0
M  V30 22 C -5.20158 -0.435689 -1.51411 0
M  V30 23 C -4.07233 -0.246443 -2.28468 0
M  V30 24 C -2.82904 -0.291704 -1.70118 0
M  V30 25 C -2.7055 -0.526559 -0.351691 0
M  V30 26 H 4.28293 -2.53638 0.892906 0
M  V30 27 H 2.79545 -1.58139 0.933306 0
M  V30 28 H 6.60646 -1.26724 0.449876 0
M  V30 29 H 6.19301 0.329534 1.19608 0
M  V30 30 H 1.97973 1.72667 0.902129 0
M  V30 31 H -0.253465 2.97551 -0.911873 0
M  V30 32 H 0.957119 3.86917 0.178731 0
M  V30 33 H 0.109386 2.57461 2.27369 0
M  V30 34 H -1.20773 1.86628 1.21437 0
M  V30 35 H 2.03605 -1.84603 -2.39479 0
M  V30 36 H -0.396993 -0.880294 2.01539 0
M  V30 37 H -2.45762 -1.2281 3.39505 0
M  V30 38 H -6.18903 -0.373132 -1.98753 0
M  V30 39 H -4.11999 -0.0601632 -3.36161 0
M  V30 40 H -1.90625 -0.149219 -2.28526 0
M  V30 END ATOM
M  V30 BEGIN BOND
M  V30 1 1 1 2
M  V30 2 1 2 3
M  V30 3 2 2 4
M  V30 4 1 4 5
M  V30 5 2 5 6
M  V30 6 1 5 7
M  V30 7 2 7 8
M  V30 8 1 8 9
M  V30 9 1 9 10
M  V30 10 1 10 11
M  V30 11 1 8 12
M  V30 12 1 12 13
M  V30 13 2 13 14
M  V30 14 1 12 15
M  V30 15 2 15 16
M  V30 16 1 16 17
M  V30 17 2 17 18
M  V30 18 1 18 19
M  V30 19 1 18 20
M  V30 20 2 20 21
M  V30 21 1 21 22
M  V30 22 2 22 23
M  V30 23 1 23 24
M  V30 24 2 24 25
M  V30 25 1 14 7
M  V30 26 1 25 15
M  V30 27 1 11 9
M  V30 28 1 25 20
M  V30 29 1 1 26
M  V30 30 1 1 27
M  V30 31 1 3 28
M  V30 32 1 3 29
M  V30 33 1 9 30
M  V30 34 1 10 31
M  V30 35 1 10 32
M  V30 36 1 11 33
M  V30 37 1 11 34
M  V30 38 1 14 35
M  V30 39 1 16 36
M  V30 40 1 17 37
M  V30 41 1 22 38
M  V30 42 1 23 39
M  V30 43 1 24 40
M  V30 END BOND
M  V30 END CTAB
M  END
