
     RDKit          3D

  0  0  0  0  0  0  0  0  0  0999 V3000
M  V30 BEGIN CTAB
M  V30 COUNTS 20 20 0 0 0
M  V30 BEGIN ATOM
M  V30 1 N 4.58726 -0.895739 -0.290843 0
M  V30 2 C 3.45225 -0.665766 -0.203399 0
M  V30 3 C 2.035 -0.383438 -0.118627 0
M  V30 4 C 1.55 0.889619 0.0138807 0
M  V30 5 C 0.177412 1.1805 0.097528 0
M  V30 6 N -0.239242 2.53274 0.227125 0
M  V30 7 C -0.722074 0.153652 0.045489 0
M  V30 8 C -0.268538 -1.14243 -0.0878448 0
M  V30 9 C 1.10021 -1.39177 -0.167795 0
M  V30 10 N -1.20193 -2.2225 -0.143388 0
M  V30 11 C -2.18615 0.416701 0.138221 0
M  V30 12 F -2.6404 1.24472 -0.856122 0
M  V30 13 F -2.90509 -0.786793 0.0490628 0
M  V30 14 F -2.56843 0.950296 1.35068 0
M  V30 15 H 2.25912 1.71056 0.0561029 0
M  V30 16 H 0.445303 3.29856 0.0827138 0
M  V30 17 H -1.20987 2.76659 0.462154 0
M  V30 18 H 1.42626 -2.41535 -0.271735 0
M  V30 19 H -1.54003 -2.73093 0.691736 0
M  V30 20 H -1.55106 -2.50923 -1.07494 0
M  V30 END ATOM
M  V30 BEGIN BOND
M  V30 1 3 1 2
M  V30 2 1 2 3
M  V30 3 2 3 4
M  V30 4 1 4 5
M  V30 5 1 5 6
M  V30 6 2 5 7
M  V30 7 1 7 8
M  V30 8 2 8 9
M  V30 9 1 8 10
M  V30 10 1 7 11
M  V30 11 1 11 12
M  V30 12 1 11 13
M  V30 13 1 11 14
M  V30 14 1 9 3
M  V30 15 1 4 15
M  V30 16 1 6 16
M  V30 17 1 6 17
M  V30 18 1 9 18
M  V30 19 1 10 19
M  V30 20 1 10 20
M  V30 END BOND
M  V30 END CTAB
M  END
