
     RDKit          3D

  0  0  0  0  0  0  0  0  0  0999 V3000
M  V30 BEGIN CTAB
M  V30 COUNTS 55 58 0 0 0
M  V30 BEGIN ATOM
M  V30 1 N -6.26918 -2.51328 -0.340569 0
M  V30 2 C -5.17729 -1.62242 -0.290416 0 CFG=2
M  V30 3 C -5.29054 -0.718871 0.914993 0
M  V30 4 C -5.25471 0.478907 -0.0106341 0 CFG=2
M  V30 5 C -5.28978 -0.431508 -1.17601 0
M  V30 6 C -4.02195 1.24981 0.215421 0
M  V30 7 C -2.75804 0.744939 0.0843403 0
M  V30 8 C -1.634 1.51791 0.310227 0
M  V30 9 N -1.84295 2.7998 0.667728 0
M  V30 10 C -3.07015 3.32531 0.804883 0
M  V30 11 N -4.13183 2.5398 0.57601 0
M  V30 12 N -3.27318 4.66837 1.17968 0
M  V30 13 N -0.325172 0.963616 0.166491 0
M  V30 14 C 0.790215 1.86593 0.408644 0
M  V30 15 C 1.73197 1.07605 1.33041 0
M  V30 16 C 2.31153 -0.00558935 0.397858 0
M  V30 17 C 1.21464 -0.978509 0.0473759 0
M  V30 18 C -0.120659 -0.393562 -0.192028 0
M  V30 19 C 3.40734 -0.673287 1.14778 0
M  V30 20 C 4.13446 -1.75204 0.430206 0
M  V30 21 N 4.82016 -1.34092 -0.769225 0
M  V30 22 C 4.38247 -1.31464 -2.03932 0
M  V30 23 C 5.41348 -0.846157 -2.82625 0
M  V30 24 N 6.44578 -0.60481 -1.99176 0
M  V30 25 C 6.11068 -0.898512 -0.728299 0
M  V30 26 C 6.98277 -0.765353 0.480722 0
M  V30 27 H -6.27942 -3.26265 -0.954437 0
M  V30 28 H -7.05958 -2.2577 0.162521 0
M  V30 29 H -4.18853 -2.11769 -0.39336 0
M  V30 30 H -6.23952 -0.833327 1.48873 0
M  V30 31 H -4.3844 -0.836071 1.56029 0
M  V30 32 H -6.17902 1.08796 0.150718 0
M  V30 33 H -6.29772 -0.410199 -1.67962 0
M  V30 34 H -4.52144 -0.309205 -1.95256 0
M  V30 35 H -2.65878 -0.280785 -0.202833 0
M  V30 36 H -3.431 5.38196 0.449051 0
M  V30 37 H -3.26499 4.94078 2.17474 0
M  V30 38 H 0.492387 2.82025 0.843599 0
M  V30 39 H 1.35592 2.01628 -0.557381 0
M  V30 40 H 1.12812 0.55263 2.09146 0
M  V30 41 H 2.53593 1.69793 1.72464 0
M  V30 42 H 2.60402 0.523896 -0.522377 0
M  V30 43 H 1.52071 -1.51384 -0.87042 0
M  V30 44 H 1.21418 -1.77323 0.850729 0
M  V30 45 H -0.85905 -1.00892 0.403678 0
M  V30 46 H -0.470906 -0.533886 -1.2571 0
M  V30 47 H 4.14185 0.0823152 1.50075 0
M  V30 48 H 2.96319 -1.10799 2.06886 0
M  V30 49 H 4.87946 -2.18273 1.12863 0
M  V30 50 H 3.43158 -2.61318 0.208423 0
M  V30 51 H 3.3866 -1.61311 -2.37653 0
M  V30 52 H 5.38915 -0.705365 -3.88953 0
M  V30 53 H 6.63989 0.105909 1.07915 0
M  V30 54 H 8.00164 -0.569603 0.149403 0
M  V30 55 H 6.86368 -1.65141 1.12074 0
M  V30 END ATOM
M  V30 BEGIN BOND
M  V30 1 1 1 2
M  V30 2 1 2 3
M  V30 3 1 3 4
M  V30 4 1 4 5
M  V30 5 1 4 6
M  V30 6 2 6 7
M  V30 7 1 7 8
M  V30 8 2 8 9
M  V30 9 1 9 10
M  V30 10 2 10 11
M  V30 11 1 10 12
M  V30 12 1 8 13
M  V30 13 1 13 14
M  V30 14 1 14 15
M  V30 15 1 15 16
M  V30 16 1 16 17
M  V30 17 1 17 18
M  V30 18 1 16 19
M  V30 19 1 19 20
M  V30 20 1 20 21
M  V30 21 1 21 22
M  V30 22 2 22 23
M  V30 23 1 23 24
M  V30 24 2 24 25
M  V30 25 1 25 26
M  V30 26 1 5 2
M  V30 27 1 11 6
M  V30 28 1 18 13
M  V30 29 1 25 21
M  V30 30 1 1 27
M  V30 31 1 1 28
M  V30 32 1 2 29 CFG=1
M  V30 33 1 3 30
M  V30 34 1 3 31
M  V30 35 1 4 32 CFG=1
M  V30 36 1 5 33
M  V30 37 1 5 34
M  V30 38 1 7 35
M  V30 39 1 12 36
M  V30 40 1 12 37
M  V30 41 1 14 38
M  V30 42 1 14 39
M  V30 43 1 15 40
M  V30 44 1 15 41
M  V30 45 1 16 42
M  V30 46 1 17 43
M  V30 47 1 17 44
M  V30 48 1 18 45
M  V30 49 1 18 46
M  V30 50 1 19 47
M  V30 51 1 19 48
M  V30 52 1 20 49
M  V30 53 1 20 50
M  V30 54 1 22 51
M  V30 55 1 23 52
M  V30 56 1 26 53
M  V30 57 1 26 54
M  V30 58 1 26 55
M  V30 END BOND
M  V30 END CTAB
M  END
