
     RDKit          3D

  0  0  0  0  0  0  0  0  0  0999 V3000
M  V30 BEGIN CTAB
M  V30 COUNTS 34 36 0 0 0
M  V30 BEGIN ATOM
M  V30 1 N -6.27423 1.0624 0.391301 0
M  V30 2 C -4.85964 0.78652 0.352681 0
M  V30 3 C -3.96388 1.58425 1.01957 0
M  V30 4 C -2.58379 1.3648 1.01582 0
M  V30 5 C -2.08596 0.303834 0.315379 0
M  V30 6 C -2.98562 -0.514863 -0.367326 0
M  V30 7 C -4.35431 -0.273744 -0.346958 0
M  V30 8 N -2.23876 -1.45303 -0.955283 0
M  V30 9 C -0.925115 -1.23313 -0.655841 0
M  V30 10 N -0.807878 -0.156374 0.126004 0
M  V30 11 C 0.362983 0.453203 0.650327 0
M  V30 12 O 0.266347 1.55727 1.30931 0
M  V30 13 C 1.71634 -0.044043 0.524422 0
M  V30 14 C 2.3121 -1.11673 1.17822 0
M  V30 15 C 3.62391 -1.20911 0.73244 0
M  V30 16 C 3.76281 -0.185007 -0.173747 0
M  V30 17 O 2.64482 0.466458 -0.269221 0
M  V30 18 S 5.21959 0.179582 -1.05766 0
M  V30 19 O 4.898 0.0736178 -2.51343 0
M  V30 20 O 6.29489 -0.822518 -0.741991 0
M  V30 21 N 5.8074 1.76864 -0.739376 0
M  V30 22 C 0.187482 -2.09169 -1.17242 0
M  V30 23 H -6.99452 0.322518 0.343128 0
M  V30 24 H -6.6173 2.05511 0.470617 0
M  V30 25 H -4.33425 2.43429 1.58369 0
M  V30 26 H -1.93918 2.03692 1.56815 0
M  V30 27 H -5.02272 -0.918488 -0.882642 0
M  V30 28 H 1.84811 -1.765 1.90184 0
M  V30 29 H 4.37869 -1.90753 1.01002 0
M  V30 30 H 5.04827 2.47358 -0.747263 0
M  V30 31 H 6.34994 1.81428 0.156488 0
M  V30 32 H -0.244998 -2.62007 -2.09438 0
M  V30 33 H 0.477206 -2.89273 -0.49869 0
M  V30 34 H 1.0333 -1.53322 -1.57448 0
M  V30 END ATOM
M  V30 BEGIN BOND
M  V30 1 1 1 2
M  V30 2 2 2 3
M  V30 3 1 3 4
M  V30 4 2 4 5
M  V30 5 1 5 6
M  V30 6 2 6 7
M  V30 7 1 6 8
M  V30 8 2 8 9
M  V30 9 1 9 10
M  V30 10 1 10 11
M  V30 11 2 11 12
M  V30 12 1 11 13
M  V30 13 2 13 14
M  V30 14 1 14 15
M  V30 15 2 15 16
M  V30 16 1 16 17
M  V30 17 1 16 18
M  V30 18 2 18 19
M  V30 19 2 18 20
M  V30 20 1 18 21
M  V30 21 1 9 22
M  V30 22 1 7 2
M  V30 23 1 17 13
M  V30 24 1 10 5
M  V30 25 1 1 23
M  V30 26 1 1 24
M  V30 27 1 3 25
M  V30 28 1 4 26
M  V30 29 1 7 27
M  V30 30 1 14 28
M  V30 31 1 15 29
M  V30 32 1 21 30
M  V30 33 1 21 31
M  V30 34 1 22 32
M  V30 35 1 22 33
M  V30 36 1 22 34
M  V30 END BOND
M  V30 END CTAB
M  END
