
     RDKit          3D

  0  0  0  0  0  0  0  0  0  0999 V3000
M  V30 BEGIN CTAB
M  V30 COUNTS 27 28 0 0 0
M  V30 BEGIN ATOM
M  V30 1 C 5.33756 0.35299 -0.273788 0
M  V30 2 O 4.39092 -0.500707 0.283969 0
M  V30 3 C 3.02614 -0.324819 0.230348 0
M  V30 4 C 2.40669 0.738627 -0.393768 0
M  V30 5 C 1.02572 0.839132 -0.400789 0
M  V30 6 C 0.208592 -0.0961591 0.201631 0
M  V30 7 C 0.831006 -1.15737 0.824271 0
M  V30 8 C 2.2062 -1.25717 0.831084 0
M  V30 9 C -1.25089 0.0282735 0.183086 0
M  V30 10 C -2.13248 -0.859981 0.759378 0
M  V30 11 N -3.38849 -0.396666 0.526188 0
M  V30 12 N -4.59184 -1.00092 0.941936 0
M  V30 13 C -3.32079 0.750357 -0.175927 0
M  V30 14 N -4.43116 1.54108 -0.614496 0
M  V30 15 N -2.00833 0.983157 -0.369449 0
M  V30 16 H 6.27848 -0.216173 -0.528561 0
M  V30 17 H 5.66554 1.06015 0.53758 0
M  V30 18 H 4.99963 0.958523 -1.11211 0
M  V30 19 H 3.03945 1.47804 -0.8695 0
M  V30 20 H 0.56539 1.68397 -0.897851 0
M  V30 21 H 0.203275 -1.91855 1.31308 0
M  V30 22 H 2.65171 -2.10642 1.33143 0
M  V30 23 H -1.90736 -1.77098 1.30606 0
M  V30 24 H -5.27263 -0.489622 1.5754 0
M  V30 25 H -4.83611 -1.95978 0.635989 0
M  V30 26 H -4.85219 2.31111 -0.0653664 0
M  V30 27 H -4.84403 1.32991 -1.54622 0
M  V30 END ATOM
M  V30 BEGIN BOND
M  V30 1 1 1 2
M  V30 2 1 2 3
M  V30 3 2 3 4
M  V30 4 1 4 5
M  V30 5 2 5 6
M  V30 6 1 6 7
M  V30 7 2 7 8
M  V30 8 1 6 9
M  V30 9 2 9 10
M  V30 10 1 10 11
M  V30 11 1 11 12
M  V30 12 1 11 13
M  V30 13 1 13 14
M  V30 14 2 13 15
M  V30 15 1 8 3
M  V30 16 1 15 9
M  V30 17 1 1 16
M  V30 18 1 1 17
M  V30 19 1 1 18
M  V30 20 1 4 19
M  V30 21 1 5 20
M  V30 22 1 7 21
M  V30 23 1 8 22
M  V30 24 1 10 23
M  V30 25 1 12 24
M  V30 26 1 12 25
M  V30 27 1 14 26
M  V30 28 1 14 27
M  V30 END BOND
M  V30 END CTAB
M  END
