
     RDKit          3D

  0  0  0  0  0  0  0  0  0  0999 V3000
M  V30 BEGIN CTAB
M  V30 COUNTS 40 41 0 0 0
M  V30 BEGIN ATOM
M  V30 1 C -1.38325 -3.70928 -0.334218 0
M  V30 2 O -2.26318 -2.64715 -0.00210304 0
M  V30 3 C -1.84998 -1.31316 -0.21111 0
M  V30 4 C -0.594262 -1.05573 -0.718091 0
M  V30 5 C -0.141419 0.2366 -0.942569 0
M  V30 6 C 1.19369 0.512885 -1.49663 0
M  V30 7 C 2.26263 0.407433 -0.449596 0
M  V30 8 C 1.94733 0.627193 0.856741 0
M  V30 9 C 2.89254 0.527092 1.88811 0
M  V30 10 C 4.18145 0.187998 1.47272 0
M  V30 11 N 4.44518 -0.017099 0.190855 0
M  V30 12 C 3.54519 0.0727832 -0.824861 0
M  V30 13 N 3.92927 -0.167162 -2.18504 0
M  V30 14 N 5.21903 0.0666307 2.46775 0
M  V30 15 C -1.00928 1.25102 -0.636057 0
M  V30 16 C -2.27358 1.0299 -0.127302 0
M  V30 17 C -2.68293 -0.284932 0.0826228 0
M  V30 18 O -3.93727 -0.517416 0.589375 0
M  V30 19 C -5.0215 -0.663143 -0.289094 0
M  V30 20 O -3.14245 2.06351 0.177945 0
M  V30 21 C -2.7464 3.39669 0.00942089 0
M  V30 22 H -1.87397 -4.6891 -0.348634 0
M  V30 23 H -0.990879 -3.51974 -1.37448 0
M  V30 24 H -0.55924 -3.71554 0.395619 0
M  V30 25 H 0.0613856 -1.8643 -0.94792 0
M  V30 26 H 1.43941 -0.242121 -2.2981 0
M  V30 27 H 1.27012 1.52316 -1.93588 0
M  V30 28 H 0.932555 0.888754 1.16122 0
M  V30 29 H 2.67113 0.689507 2.91068 0
M  V30 30 H 4.58217 0.473337 -2.69471 0
M  V30 31 H 3.56598 -1.00427 -2.7148 0
M  V30 32 H 5.63646 -0.880075 2.58554 0
M  V30 33 H 5.52443 0.86689 3.02096 0
M  V30 34 H -0.727878 2.29533 -0.790951 0
M  V30 35 H -5.789 0.124567 -0.0802468 0
M  V30 36 H -4.74576 -0.537786 -1.35391 0
M  V30 37 H -5.53589 -1.64785 -0.143264 0
M  V30 38 H -3.50233 4.02762 0.559578 0
M  V30 39 H -1.75797 3.55459 0.465117 0
M  V30 40 H -2.77154 3.65237 -1.09024 0
M  V30 END ATOM
M  V30 BEGIN BOND
M  V30 1 1 1 2
M  V30 2 1 2 3
M  V30 3 2 3 4
M  V30 4 1 4 5
M  V30 5 1 5 6
M  V30 6 1 6 7
M  V30 7 2 7 8
M  V30 8 1 8 9
M  V30 9 2 9 10
M  V30 10 1 10 11
M  V30 11 2 11 12
M  V30 12 1 12 13
M  V30 13 1 10 14
M  V30 14 2 5 15
M  V30 15 1 15 16
M  V30 16 2 16 17
M  V30 17 1 17 18
M  V30 18 1 18 19
M  V30 19 1 16 20
M  V30 20 1 20 21
M  V30 21 1 17 3
M  V30 22 1 12 7
M  V30 23 1 1 22
M  V30 24 1 1 23
M  V30 25 1 1 24
M  V30 26 1 4 25
M  V30 27 1 6 26
M  V30 28 1 6 27
M  V30 29 1 8 28
M  V30 30 1 9 29
M  V30 31 1 13 30
M  V30 32 1 13 31
M  V30 33 1 14 32
M  V30 34 1 14 33
M  V30 35 1 15 34
M  V30 36 1 19 35
M  V30 37 1 19 36
M  V30 38 1 19 37
M  V30 39 1 21 38
M  V30 40 1 21 39
M  V30 41 1 21 40
M  V30 END BOND
M  V30 END CTAB
M  END
