
     RDKit          3D

  0  0  0  0  0  0  0  0  0  0999 V3000
M  V30 BEGIN CTAB
M  V30 COUNTS 22 22 0 0 0
M  V30 BEGIN ATOM
M  V30 1 Br 3.70427 1.38704 0.908458 0
M  V30 2 C 3.19055 0.371912 -0.643758 0
M  V30 3 C 2.14395 -0.628091 -0.342811 0
M  V30 4 O 2.43353 -1.84096 -0.240177 0
M  V30 5 C 0.746558 -0.266627 -0.157762 0
M  V30 6 C 0.35823 1.05595 -0.232707 0
M  V30 7 C -0.968452 1.38121 -0.0392021 0
M  V30 8 N -1.36045 2.73338 -0.0937656 0
M  V30 9 C -1.92498 0.415968 0.22776 0
M  V30 10 C -1.54749 -0.901601 0.304293 0
M  V30 11 C -0.224412 -1.23232 0.112207 0
M  V30 12 O 0.217284 -2.53484 0.177411 0
M  V30 13 N -2.52632 -1.89212 0.574277 0
M  V30 14 H 4.06545 -0.118957 -1.12491 0
M  V30 15 H 2.76476 1.07701 -1.41626 0
M  V30 16 H 1.09432 1.81543 -0.442489 0
M  V30 17 H -1.31188 3.25983 -0.992197 0
M  V30 18 H -1.69503 3.16973 0.790404 0
M  V30 19 H -2.992 0.692398 0.379247 0
M  V30 20 H -0.359953 -3.34607 0.364786 0
M  V30 21 H -3.30646 -1.76462 1.24483 0
M  V30 22 H -2.50148 -2.83366 0.119653 0
M  V30 END ATOM
M  V30 BEGIN BOND
M  V30 1 1 1 2
M  V30 2 1 2 3
M  V30 3 2 3 4
M  V30 4 1 3 5
M  V30 5 2 5 6
M  V30 6 1 6 7
M  V30 7 1 7 8
M  V30 8 2 7 9
M  V30 9 1 9 10
M  V30 10 2 10 11
M  V30 11 1 11 12
M  V30 12 1 10 13
M  V30 13 1 11 5
M  V30 14 1 2 14
M  V30 15 1 2 15
M  V30 16 1 6 16
M  V30 17 1 8 17
M  V30 18 1 8 18
M  V30 19 1 9 19
M  V30 20 1 12 20
M  V30 21 1 13 21
M  V30 22 1 13 22
M  V30 END BOND
M  V30 END CTAB
M  END
