
     RDKit          3D

  0  0  0  0  0  0  0  0  0  0999 V3000
M  V30 BEGIN CTAB
M  V30 COUNTS 19 19 0 0 0
M  V30 BEGIN ATOM
M  V30 1 C 4.11352 -0.246316 0.150326 0
M  V30 2 O 2.70478 -0.441811 0.144189 0
M  V30 3 C 1.87641 0.639879 0.156672 0
M  V30 4 O 2.36709 1.79593 0.173448 0
M  V30 5 C 0.399059 0.513969 0.151297 0
M  V30 6 S -0.778896 1.74718 0.164932 0
M  V30 7 C -2.1833 0.789135 0.148547 0
M  V30 8 C -1.69306 -0.483304 0.132672 0
M  V30 9 C -0.350225 -0.625797 0.13411 0
M  V30 10 N -2.61265 -1.61092 0.115229 0
M  V30 11 N -3.54758 1.23968 0.151183 0
M  V30 12 H 4.43182 0.326866 1.04104 0
M  V30 13 H 4.37471 0.359085 -0.759465 0
M  V30 14 H 4.65644 -1.20763 0.129882 0
M  V30 15 H 0.168355 -1.60713 0.122215 0
M  V30 16 H -3.05217 -1.97813 0.956566 0
M  V30 17 H -2.79239 -2.02002 -0.82176 0
M  V30 18 H -4.23443 0.756237 -0.436545 0
M  V30 19 H -3.8475 2.0531 0.744233 0
M  V30 END ATOM
M  V30 BEGIN BOND
M  V30 1 1 1 2
M  V30 2 1 2 3
M  V30 3 2 3 4
M  V30 4 1 3 5
M  V30 5 1 5 6
M  V30 6 1 6 7
M  V30 7 2 7 8
M  V30 8 1 8 9
M  V30 9 1 8 10
M  V30 10 1 7 11
M  V30 11 2 9 5
M  V30 12 1 1 12
M  V30 13 1 1 13
M  V30 14 1 1 14
M  V30 15 1 9 15
M  V30 16 1 10 16
M  V30 17 1 10 17
M  V30 18 1 11 18
M  V30 19 1 11 19
M  V30 END BOND
M  V30 END CTAB
M  END
