
     RDKit          3D

  0  0  0  0  0  0  0  0  0  0999 V3000
M  V30 BEGIN CTAB
M  V30 COUNTS 29 29 0 0 0
M  V30 BEGIN ATOM
M  V30 1 N -3.29537 0.518044 0.496424 0
M  V30 2 C -2.47092 -0.664028 0.410745 0
M  V30 3 C -1.28046 -0.48243 -0.496019 0
M  V30 4 N -1.79304 -0.164546 -1.82388 0
M  V30 5 C -0.506809 -1.77952 -0.497074 0
M  V30 6 O 0.830529 -1.46401 -0.34174 0
M  V30 7 C 0.889559 -0.276877 0.376263 0
M  V30 8 C -0.311131 0.541527 -0.0153022 0
M  V30 9 C 2.12709 0.498684 -0.0344469 0
M  V30 10 C 3.37817 -0.279628 0.23237 0
M  V30 11 C 2.12688 1.86401 0.620524 0
M  V30 12 H -3.93363 0.585135 -0.329351 0
M  V30 13 H -3.90187 0.393277 1.35149 0
M  V30 14 H -2.19317 -1.04366 1.39943 0
M  V30 15 H -3.11259 -1.4524 -0.077121 0
M  V30 16 H -2.07688 0.85597 -1.77025 0
M  V30 17 H -2.6113 -0.756482 -2.02416 0
M  V30 18 H -0.67898 -2.25696 -1.50038 0
M  V30 19 H -0.833605 -2.44405 0.324929 0
M  V30 20 H 0.906152 -0.540349 1.45397 0
M  V30 21 H -0.0506652 1.22235 -0.867514 0
M  V30 22 H -0.648033 1.10035 0.877225 0
M  V30 23 H 1.99992 0.694392 -1.13984 0
M  V30 24 H 4.09164 0.410771 0.752185 0
M  V30 25 H 3.19243 -1.19519 0.846912 0
M  V30 26 H 3.80095 -0.608256 -0.739445 0
M  V30 27 H 1.5246 2.59701 0.0105767 0
M  V30 28 H 1.67398 1.83181 1.63805 0
M  V30 29 H 3.15657 2.29506 0.632109 0
M  V30 END ATOM
M  V30 BEGIN BOND
M  V30 1 1 1 2
M  V30 2 1 2 3
M  V30 3 1 3 4
M  V30 4 1 3 5
M  V30 5 1 5 6
M  V30 6 1 6 7
M  V30 7 1 7 8
M  V30 8 1 7 9
M  V30 9 1 9 10
M  V30 10 1 9 11
M  V30 11 1 8 3
M  V30 12 1 1 12
M  V30 13 1 1 13
M  V30 14 1 2 14
M  V30 15 1 2 15
M  V30 16 1 4 16
M  V30 17 1 4 17
M  V30 18 1 5 18
M  V30 19 1 5 19
M  V30 20 1 7 20
M  V30 21 1 8 21
M  V30 22 1 8 22
M  V30 23 1 9 23
M  V30 24 1 10 24
M  V30 25 1 10 25
M  V30 26 1 10 26
M  V30 27 1 11 27
M  V30 28 1 11 28
M  V30 29 1 11 29
M  V30 END BOND
M  V30 END CTAB
M  END
