
     RDKit          3D

  0  0  0  0  0  0  0  0  0  0999 V3000
M  V30 BEGIN CTAB
M  V30 COUNTS 27 28 0 0 0
M  V30 BEGIN ATOM
M  V30 1 N -6.42984 1.29471 0.998905 0
M  V30 2 C -5.41047 0.884617 0.850906 0
M  V30 3 C -4.1112 0.301612 0.5804 0
M  V30 4 C -3.75078 -0.880954 1.12265 0
M  V30 5 C -2.51527 -1.41976 0.893581 0
M  V30 6 C -1.627 -0.697469 0.0795441 0
M  V30 7 C -1.93595 0.481875 -0.497028 0
M  V30 8 C -3.21931 0.995531 -0.221948 0
M  V30 9 N -1.04205 1.09236 -1.4071 0
M  V30 10 S 0.0216665 -1.42098 -0.102954 0
M  V30 11 C 1.28945 -0.276907 0.233864 0
M  V30 12 N 1.28549 0.982935 0.500716 0
M  V30 13 N 2.47776 1.52257 0.646408 0
M  V30 14 C 3.33263 0.527263 0.470886 0
M  V30 15 N 2.62546 -0.597009 0.225212 0
M  V30 16 N 3.16942 -1.85416 0.0807303 0
M  V30 17 C 4.81502 0.66994 0.383712 0
M  V30 18 F 5.21857 1.51716 1.42652 0
M  V30 19 F 5.44103 -0.554521 0.619683 0
M  V30 20 F 5.3102 1.19601 -0.736865 0
M  V30 21 H -4.5247 -1.45396 1.68599 0
M  V30 22 H -2.25681 -2.33432 1.36716 0
M  V30 23 H -3.42203 1.93391 -0.68718 0
M  V30 24 H -0.41273 0.611556 -2.08276 0
M  V30 25 H -1.04017 2.16003 -1.40208 0
M  V30 26 H 3.71181 -2.21223 0.856393 0
M  V30 27 H 2.9998 -2.46982 -0.718976 0
M  V30 END ATOM
M  V30 BEGIN BOND
M  V30 1 3 1 2
M  V30 2 1 2 3
M  V30 3 2 3 4
M  V30 4 1 4 5
M  V30 5 2 5 6
M  V30 6 1 6 7
M  V30 7 2 7 8
M  V30 8 1 7 9
M  V30 9 1 6 10
M  V30 10 1 10 11
M  V30 11 2 11 12
M  V30 12 1 12 13
M  V30 13 2 13 14
M  V30 14 1 14 15
M  V30 15 1 15 16
M  V30 16 1 14 17
M  V30 17 1 17 18
M  V30 18 1 17 19
M  V30 19 1 17 20
M  V30 20 1 8 3
M  V30 21 1 15 11
M  V30 22 1 4 21
M  V30 23 1 5 22
M  V30 24 1 8 23
M  V30 25 1 9 24
M  V30 26 1 9 25
M  V30 27 1 16 26
M  V30 28 1 16 27
M  V30 END BOND
M  V30 END CTAB
M  END
