
     RDKit          3D

  0  0  0  0  0  0  0  0  0  0999 V3000
M  V30 BEGIN CTAB
M  V30 COUNTS 25 25 0 0 0
M  V30 BEGIN ATOM
M  V30 1 C 3.32955 -0.503939 0.216468 0
M  V30 2 C 2.34269 -0.704371 -0.882083 0
M  V30 3 N 1.02622 -0.222689 -0.595271 0
M  V30 4 C 0.607138 1.02686 -0.870818 0
M  V30 5 O 1.39872 1.83847 -1.41182 0
M  V30 6 C -0.685917 1.3752 -0.547341 0
M  V30 7 N -1.1324 2.69236 -0.836197 0
M  V30 8 C -1.57055 0.492198 0.0492177 0
M  V30 9 N -1.09245 -0.743907 0.30018 0
M  V30 10 C 0.164538 -1.08558 -0.0132534 0
M  V30 11 O 0.514102 -2.26226 0.261572 0
M  V30 12 C -1.97408 -1.70571 0.922088 0
M  V30 13 N -2.89714 0.838356 0.384841 0
M  V30 14 H 2.87957 -0.460808 1.22088 0
M  V30 15 H 4.03852 -1.35843 0.204584 0
M  V30 16 H 3.97164 0.401414 0.00726841 0
M  V30 17 H 2.69768 -0.158546 -1.79677 0
M  V30 18 H 2.27987 -1.77715 -1.14278 0
M  V30 19 H -0.700506 3.50541 -0.390387 0
M  V30 20 H -1.91068 2.84531 -1.51056 0
M  V30 21 H -2.0616 -1.48526 1.99748 0
M  V30 22 H -2.95834 -1.7334 0.409204 0
M  V30 23 H -1.55403 -2.7337 0.843091 0
M  V30 24 H -3.25811 0.554027 1.31643 0
M  V30 25 H -3.45444 1.36616 -0.322997 0
M  V30 END ATOM
M  V30 BEGIN BOND
M  V30 1 1 1 2
M  V30 2 1 2 3
M  V30 3 1 3 4
M  V30 4 2 4 5
M  V30 5 1 4 6
M  V30 6 1 6 7
M  V30 7 2 6 8
M  V30 8 1 8 9
M  V30 9 1 9 10
M  V30 10 2 10 11
M  V30 11 1 9 12
M  V30 12 1 8 13
M  V30 13 1 10 3
M  V30 14 1 1 14
M  V30 15 1 1 15
M  V30 16 1 1 16
M  V30 17 1 2 17
M  V30 18 1 2 18
M  V30 19 1 7 19
M  V30 20 1 7 20
M  V30 21 1 12 21
M  V30 22 1 12 22
M  V30 23 1 12 23
M  V30 24 1 13 24
M  V30 25 1 13 25
M  V30 END BOND
M  V30 END CTAB
M  END
