
     RDKit          3D

  0  0  0  0  0  0  0  0  0  0999 V3000
M  V30 BEGIN CTAB
M  V30 COUNTS 40 41 0 0 0
M  V30 BEGIN ATOM
M  V30 1 C -6.51076 2.46635 -0.416404 0
M  V30 2 O -5.14849 2.33195 -0.549924 0
M  V30 3 C -4.43284 1.18256 -0.328756 0
M  V30 4 C -3.03975 1.2602 -0.520938 0
M  V30 5 C -2.1962 0.200251 -0.340903 0
M  V30 6 N -0.790116 0.231416 -0.479641 0
M  V30 7 C -0.00321661 1.383 -0.342776 0
M  V30 8 O -0.449809 2.54487 -0.0717698 0
M  V30 9 C 1.48794 1.28641 -0.522457 0
M  V30 10 S 2.09115 -0.0285434 0.567003 0
M  V30 11 C 3.86562 -0.181853 0.387567 0
M  V30 12 N 4.60122 -1.07265 1.06997 0
M  V30 13 C 5.9426 -1.19764 0.942755 0
M  V30 14 N 6.67551 -2.1506 1.68199 0
M  V30 15 C 6.61193 -0.353933 0.0493724 0
M  V30 16 C 5.84859 0.549864 -0.640968 0
M  V30 17 N 4.52219 0.63456 -0.479272 0
M  V30 18 N 6.49102 1.42847 -1.55845 0
M  V30 19 C -2.81284 -1.00864 0.0580873 0
M  V30 20 C -4.16961 -1.09459 0.248304 0
M  V30 21 C -5.00762 0.00232324 0.0580668 0
M  V30 22 O -4.79604 -2.26759 0.640249 0
M  V30 23 C -4.03096 -3.43677 0.863106 0
M  V30 24 H -7.06318 1.52029 -0.286052 0
M  V30 25 H -6.81273 3.13035 0.440872 0
M  V30 26 H -6.90921 2.92068 -1.37765 0
M  V30 27 H -2.61585 2.21272 -0.842222 0
M  V30 28 H -0.314408 -0.676648 -0.705439 0
M  V30 29 H 1.9755 2.246 -0.291122 0
M  V30 30 H 1.63602 1.02683 -1.60303 0
M  V30 31 H 6.99016 -1.91935 2.63616 0
M  V30 32 H 6.89387 -3.06726 1.26456 0
M  V30 33 H 7.67743 -0.438291 -0.0675654 0
M  V30 34 H 7.52023 1.64923 -1.45713 0
M  V30 35 H 6.00106 1.87793 -2.33817 0
M  V30 36 H -2.16009 -1.83707 0.196745 0
M  V30 37 H -6.0809 -0.107971 0.220261 0
M  V30 38 H -4.57905 -4.10941 1.59408 0
M  V30 39 H -3.84642 -3.9348 -0.105226 0
M  V30 40 H -3.06193 -3.20267 1.38871 0
M  V30 END ATOM
M  V30 BEGIN BOND
M  V30 1 1 1 2
M  V30 2 1 2 3
M  V30 3 2 3 4
M  V30 4 1 4 5
M  V30 5 1 5 6
M  V30 6 1 6 7
M  V30 7 2 7 8
M  V30 8 1 7 9
M  V30 9 1 9 10
M  V30 10 1 10 11
M  V30 11 2 11 12
M  V30 12 1 12 13
M  V30 13 1 13 14
M  V30 14 2 13 15
M  V30 15 1 15 16
M  V30 16 2 16 17
M  V30 17 1 16 18
M  V30 18 2 5 19
M  V30 19 1 19 20
M  V30 20 2 20 21
M  V30 21 1 20 22
M  V30 22 1 22 23
M  V30 23 1 21 3
M  V30 24 1 17 11
M  V30 25 1 1 24
M  V30 26 1 1 25
M  V30 27 1 1 26
M  V30 28 1 4 27
M  V30 29 1 6 28
M  V30 30 1 9 29
M  V30 31 1 9 30
M  V30 32 1 14 31
M  V30 33 1 14 32
M  V30 34 1 15 33
M  V30 35 1 18 34
M  V30 36 1 18 35
M  V30 37 1 19 36
M  V30 38 1 21 37
M  V30 39 1 23 38
M  V30 40 1 23 39
M  V30 41 1 23 40
M  V30 END BOND
M  V30 END CTAB
M  END
