
     RDKit          3D

  0  0  0  0  0  0  0  0  0  0999 V3000
M  V30 BEGIN CTAB
M  V30 COUNTS 15 14 0 0 0
M  V30 BEGIN ATOM
M  V30 1 N -1.91572 0.00448533 -0.738631 0
M  V30 2 C -1.19259 0.998104 0.0064842 0
M  V30 3 C -0.0164996 0.395627 0.741085 0
M  V30 4 F 0.685897 1.31405 1.45481 0
M  V30 5 C 0.941955 -0.30943 -0.193052 0
M  V30 6 N 2.00735 -0.825982 0.680867 0
M  V30 7 H -1.36027 -0.510053 -1.43294 0
M  V30 8 H -2.38017 -0.642139 -0.0623406 0
M  V30 9 H -1.88237 1.38849 0.793181 0
M  V30 10 H -0.871003 1.86185 -0.587657 0
M  V30 11 H -0.44758 -0.376036 1.43239 0
M  V30 12 H 0.461306 -1.13264 -0.758428 0
M  V30 13 H 1.37353 0.455346 -0.888479 0
M  V30 14 H 2.91089 -0.858767 0.189206 0
M  V30 15 H 1.68528 -1.7629 0.988967 0
M  V30 END ATOM
M  V30 BEGIN BOND
M  V30 1 1 1 2
M  V30 2 1 2 3
M  V30 3 1 3 4
M  V30 4 1 3 5
M  V30 5 1 5 6
M  V30 6 1 1 7
M  V30 7 1 1 8
M  V30 8 1 2 9
M  V30 9 1 2 10
M  V30 10 1 3 11
M  V30 11 1 5 12
M  V30 12 1 5 13
M  V30 13 1 6 14
M  V30 14 1 6 15
M  V30 END BOND
M  V30 END CTAB
M  END
