
     RDKit          3D

  0  0  0  0  0  0  0  0  0  0999 V3000
M  V30 BEGIN CTAB
M  V30 COUNTS 42 43 0 0 0
M  V30 BEGIN ATOM
M  V30 1 N -3.19401 -2.69679 0.240195 0
M  V30 2 C -3.59908 -1.34832 0.580667 0
M  V30 3 C -2.60631 -0.332347 0.0194463 0
M  V30 4 C -1.26113 -0.633811 0.625264 0
M  V30 5 N -0.309723 0.350028 0.157708 0
M  V30 6 C -0.748729 1.65597 -0.341084 0
M  V30 7 C -1.96413 2.0507 0.443576 0
M  V30 8 C -3.08136 1.05016 0.326126 0
M  V30 9 C -4.08907 1.44433 -0.733731 0
M  V30 10 C 1.06094 0.0827936 0.169303 0
M  V30 11 C 1.79981 0.436977 1.28572 0
M  V30 12 C 3.14476 0.16344 1.3669 0
M  V30 13 C 3.83011 -0.472632 0.352556 0
M  V30 14 C 3.09673 -0.821192 -0.751228 0
M  V30 15 C 1.7213 -0.550378 -0.85467 0
M  V30 16 N 1.12642 -0.940872 -2.08236 0 CHG=1
M  V30 17 O -0.0206275 -1.33093 -2.25871 0
M  V30 18 O 1.93368 -0.878378 -3.22285 0 CHG=-1
M  V30 19 S 5.54861 -0.812287 0.479789 0
M  V30 20 O 5.98703 -1.01476 1.8797 0
M  V30 21 O 5.80523 -2.0323 -0.381748 0
M  V30 22 N 6.38398 0.567756 -0.177042 0
M  V30 23 H -2.75729 -2.71227 -0.699181 0
M  V30 24 H -3.99286 -3.35884 0.244684 0
M  V30 25 H -3.72698 -1.19137 1.6643 0
M  V30 26 H -4.59767 -1.17143 0.0833356 0
M  V30 27 H -2.52791 -0.487495 -1.0745 0
M  V30 28 H -0.933684 -1.64347 0.36914 0
M  V30 29 H -1.31268 -0.622358 1.74832 0
M  V30 30 H -0.959546 1.63503 -1.42717 0
M  V30 31 H 0.0346339 2.42707 -0.13639 0
M  V30 32 H -1.68462 2.17639 1.51182 0
M  V30 33 H -2.35828 3.03672 0.114219 0
M  V30 34 H -3.60578 1.01797 1.31676 0
M  V30 35 H -5.08178 1.62607 -0.27621 0
M  V30 36 H -3.79314 2.3361 -1.29169 0
M  V30 37 H -4.2411 0.623873 -1.48507 0
M  V30 38 H 1.27092 0.935206 2.08368 0
M  V30 39 H 3.72683 0.440927 2.2432 0
M  V30 40 H 3.62969 -1.32553 -1.5612 0
M  V30 41 H 6.58216 1.20283 0.634677 0
M  V30 42 H 5.76465 1.11741 -0.82147 0
M  V30 END ATOM
M  V30 BEGIN BOND
M  V30 1 1 1 2
M  V30 2 1 2 3
M  V30 3 1 3 4
M  V30 4 1 4 5
M  V30 5 1 5 6
M  V30 6 1 6 7
M  V30 7 1 7 8
M  V30 8 1 8 9
M  V30 9 1 5 10
M  V30 10 2 10 11
M  V30 11 1 11 12
M  V30 12 2 12 13
M  V30 13 1 13 14
M  V30 14 2 14 15
M  V30 15 1 15 16
M  V30 16 2 16 17
M  V30 17 1 16 18
M  V30 18 1 13 19
M  V30 19 2 19 20
M  V30 20 2 19 21
M  V30 21 1 19 22
M  V30 22 1 8 3
M  V30 23 1 15 10
M  V30 24 1 1 23
M  V30 25 1 1 24
M  V30 26 1 2 25
M  V30 27 1 2 26
M  V30 28 1 3 27
M  V30 29 1 4 28
M  V30 30 1 4 29
M  V30 31 1 6 30
M  V30 32 1 6 31
M  V30 33 1 7 32
M  V30 34 1 7 33
M  V30 35 1 8 34
M  V30 36 1 9 35
M  V30 37 1 9 36
M  V30 38 1 9 37
M  V30 39 1 11 38
M  V30 40 1 12 39
M  V30 41 1 14 40
M  V30 42 1 22 41
M  V30 43 1 22 42
M  V30 END BOND
M  V30 END CTAB
M  END
