
     RDKit          3D

  0  0  0  0  0  0  0  0  0  0999 V3000
M  V30 BEGIN CTAB
M  V30 COUNTS 19 19 0 0 0
M  V30 BEGIN ATOM
M  V30 1 N 0.367213 2.00037 0.474405 0
M  V30 2 C -0.440449 0.879454 0.21326 0
M  V30 3 C -1.79226 0.896705 0.49402 0
M  V30 4 C -2.61944 -0.184662 0.251775 0
M  V30 5 F -3.935 -0.111421 0.546421 0
M  V30 6 C -2.04703 -1.3122 -0.291883 0
M  V30 7 C -0.694878 -1.36764 -0.587194 0
M  V30 8 C 0.111138 -0.280747 -0.338557 0
M  V30 9 S 1.81764 -0.354236 -0.712439 0
M  V30 10 O 2.12033 -1.68833 -1.32985 0
M  V30 11 O 2.17363 0.724566 -1.72542 0
M  V30 12 N 2.75936 -0.107406 0.732908 0
M  V30 13 Br -3.18703 -2.80083 -0.625131 0
M  V30 14 H 0.962793 2.01591 1.32758 0
M  V30 15 H 0.418166 2.84432 -0.138939 0
M  V30 16 H -2.25708 1.79491 0.928878 0
M  V30 17 H -0.263 -2.25543 -1.01147 0
M  V30 18 H 3.69357 0.29581 0.507393 0
M  V30 19 H 2.81233 -0.98914 1.28425 0
M  V30 END ATOM
M  V30 BEGIN BOND
M  V30 1 1 1 2
M  V30 2 2 2 3
M  V30 3 1 3 4
M  V30 4 1 4 5
M  V30 5 2 4 6
M  V30 6 1 6 7
M  V30 7 2 7 8
M  V30 8 1 8 9
M  V30 9 2 9 10
M  V30 10 2 9 11
M  V30 11 1 9 12
M  V30 12 1 6 13
M  V30 13 1 8 2
M  V30 14 1 1 14
M  V30 15 1 1 15
M  V30 16 1 3 16
M  V30 17 1 7 17
M  V30 18 1 12 18
M  V30 19 1 12 19
M  V30 END BOND
M  V30 END CTAB
M  END
