
     RDKit          3D

  0  0  0  0  0  0  0  0  0  0999 V3000
M  V30 BEGIN CTAB
M  V30 COUNTS 28 28 0 0 0
M  V30 BEGIN ATOM
M  V30 1 C 3.61705 0.957267 0.168243 0
M  V30 2 N 3.02372 -0.216503 -0.402884 0
M  V30 3 N 1.6832 -0.396423 -0.146479 0
M  V30 4 C 0.787309 0.634977 -0.520743 0
M  V30 5 O 1.14229 1.68606 -1.06499 0
M  V30 6 C -0.645081 0.454974 -0.251448 0
M  V30 7 C -1.16391 -0.783639 -0.56832 0
M  V30 8 C -2.50602 -0.997829 -0.324764 0
M  V30 9 N -3.06171 -2.27171 -0.654903 0
M  V30 10 C -3.3238 -0.0312317 0.215409 0
M  V30 11 C -2.76152 1.19026 0.516861 0
M  V30 12 C -1.4207 1.44673 0.287788 0
M  V30 13 N -3.59708 2.19027 1.07678 0
M  V30 14 C 3.82347 -1.40246 -0.248508 0
M  V30 15 H 4.30054 0.626516 0.988469 0
M  V30 16 H 4.19739 1.56827 -0.539441 0
M  V30 17 H 2.82162 1.54086 0.67668 0
M  V30 18 H 1.27547 -1.24884 0.307664 0
M  V30 19 H -0.524389 -1.55591 -0.994436 0
M  V30 20 H -2.78727 -2.77043 -1.50959 0
M  V30 21 H -3.76171 -2.7153 -0.023097 0
M  V30 22 H -4.37565 -0.235411 0.396818 0
M  V30 23 H -0.957805 2.39325 0.512243 0
M  V30 24 H -4.22565 1.91494 1.8559 0
M  V30 25 H -3.60494 3.1722 0.749632 0
M  V30 26 H 3.26669 -2.07769 0.452442 0
M  V30 27 H 4.77712 -1.10581 0.225292 0
M  V30 28 H 4.00135 -1.96735 -1.18062 0
M  V30 END ATOM
M  V30 BEGIN BOND
M  V30 1 1 1 2
M  V30 2 1 2 3
M  V30 3 1 3 4
M  V30 4 2 4 5
M  V30 5 1 4 6
M  V30 6 2 6 7
M  V30 7 1 7 8
M  V30 8 1 8 9
M  V30 9 2 8 10
M  V30 10 1 10 11
M  V30 11 2 11 12
M  V30 12 1 11 13
M  V30 13 1 2 14
M  V30 14 1 12 6
M  V30 15 1 1 15
M  V30 16 1 1 16
M  V30 17 1 1 17
M  V30 18 1 3 18
M  V30 19 1 7 19
M  V30 20 1 9 20
M  V30 21 1 9 21
M  V30 22 1 10 22
M  V30 23 1 12 23
M  V30 24 1 13 24
M  V30 25 1 13 25
M  V30 26 1 14 26
M  V30 27 1 14 27
M  V30 28 1 14 28
M  V30 END BOND
M  V30 END CTAB
M  END
