
     RDKit          3D

  0  0  0  0  0  0  0  0  0  0999 V3000
M  V30 BEGIN CTAB
M  V30 COUNTS 18 18 0 0 0
M  V30 BEGIN ATOM
M  V30 1 N 3.05716 -0.33537 -0.0242067 0
M  V30 2 C 1.65894 -0.0573223 -0.0470472 0
M  V30 3 C 0.697604 -1.00343 0.241224 0
M  V30 4 C -0.662315 -0.685655 0.207074 0
M  V30 5 C -1.09455 0.583617 -0.115338 0
M  V30 6 N -2.48528 0.902997 -0.147919 0
M  V30 7 C -0.134455 1.52942 -0.403483 0
M  V30 8 C 1.20764 1.20796 -0.367749 0
M  V30 9 N -1.63915 -1.66142 0.504211 0 CHG=1
M  V30 10 O -2.8928 -1.55225 -0.046962 0 CHG=-1
M  V30 11 O -1.39162 -2.61558 1.25187 0
M  V30 12 H 3.67093 0.0586875 0.723918 0
M  V30 13 H 3.49019 -0.926074 -0.739304 0
M  V30 14 H 1.01652 -2.00579 0.496615 0
M  V30 15 H -2.92395 1.33101 0.716431 0
M  V30 16 H -3.05015 0.722389 -0.991052 0
M  V30 17 H -0.474741 2.53804 -0.660136 0
M  V30 18 H 1.95003 1.96877 -0.598143 0
M  V30 END ATOM
M  V30 BEGIN BOND
M  V30 1 1 1 2
M  V30 2 2 2 3
M  V30 3 1 3 4
M  V30 4 2 4 5
M  V30 5 1 5 6
M  V30 6 1 5 7
M  V30 7 2 7 8
M  V30 8 1 4 9
M  V30 9 1 9 10
M  V30 10 2 9 11
M  V30 11 1 8 2
M  V30 12 1 1 12
M  V30 13 1 1 13
M  V30 14 1 3 14
M  V30 15 1 6 15
M  V30 16 1 6 16
M  V30 17 1 7 17
M  V30 18 1 8 18
M  V30 END BOND
M  V30 END CTAB
M  END
