
     RDKit          3D

  0  0  0  0  0  0  0  0  0  0999 V3000
M  V30 BEGIN CTAB
M  V30 COUNTS 16 16 0 0 0
M  V30 BEGIN ATOM
M  V30 1 Cl -0.976149 3.03489 0.225212 0
M  V30 2 C -0.0534804 1.5513 0.144158 0
M  V30 3 C 1.31033 1.6166 0.237242 0
M  V30 4 C 2.01357 0.431646 0.170339 0
M  V30 5 C 1.33845 -0.755474 0.0153736 0
M  V30 6 C -0.0369075 -0.83486 -0.0797756 0
M  V30 7 C -0.733858 0.349145 -0.0125586 0
M  V30 8 N -2.14078 0.342988 -0.102804 0
M  V30 9 N -0.70216 -2.08255 -0.239822 0
M  V30 10 Br 2.3314 -2.39929 -0.0763632 0
M  V30 11 H 1.7839 2.58213 0.358468 0
M  V30 12 H 3.09183 0.489805 0.244571 0
M  V30 13 H -2.73567 -0.478925 0.0743458 0
M  V30 14 H -2.63547 1.24207 -0.371338 0
M  V30 15 H -1.68585 -2.13187 -0.49952 0
M  V30 16 H -0.169163 -2.9576 -0.0875274 0
M  V30 END ATOM
M  V30 BEGIN BOND
M  V30 1 1 1 2
M  V30 2 2 2 3
M  V30 3 1 3 4
M  V30 4 2 4 5
M  V30 5 1 5 6
M  V30 6 2 6 7
M  V30 7 1 7 8
M  V30 8 1 6 9
M  V30 9 1 5 10
M  V30 10 1 7 2
M  V30 11 1 3 11
M  V30 12 1 4 12
M  V30 13 1 8 13
M  V30 14 1 8 14
M  V30 15 1 9 15
M  V30 16 1 9 16
M  V30 END BOND
M  V30 END CTAB
M  END
