
     RDKit          3D

  0  0  0  0  0  0  0  0  0  0999 V3000
M  V30 BEGIN CTAB
M  V30 COUNTS 34 35 0 0 0
M  V30 BEGIN ATOM
M  V30 1 N 4.69638 -0.694989 2.6623 0
M  V30 2 C 3.85908 -0.839022 1.53052 0
M  V30 3 C 4.08957 -0.130443 0.368961 0
M  V30 4 C 3.26884 -0.284571 -0.711979 0
M  V30 5 C 2.18241 -1.13305 -0.723645 0
M  V30 6 C 1.94546 -1.85223 0.450111 0
M  V30 7 C 2.76839 -1.70314 1.54596 0
M  V30 8 S 1.22799 -1.29062 -2.15406 0
M  V30 9 O 2.12212 -1.42543 -3.3854 0
M  V30 10 O 0.446913 -2.58719 -2.10182 0
M  V30 11 N 0.172595 0.0104918 -2.3831 0
M  V30 12 C -0.882735 0.43893 -1.54378 0
M  V30 13 C -0.77141 0.715819 -0.207591 0
M  V30 14 C -1.86218 1.15878 0.551964 0
M  V30 15 C -3.0979 1.33426 -0.0233379 0
M  V30 16 C -3.24043 1.06412 -1.36744 0
M  V30 17 C -2.16013 0.63005 -2.09769 0
M  V30 18 S -4.42981 1.88381 0.942541 0
M  V30 19 N -5.21728 0.472722 1.58838 0
M  V30 20 O -5.41119 2.70371 0.176834 0
M  V30 21 O -3.86049 2.67554 2.10869 0
M  V30 22 H 4.51597 0.0489241 3.35746 0
M  V30 23 H 5.49438 -1.33321 2.80128 0
M  V30 24 H 4.93671 0.549835 0.336937 0
M  V30 25 H 3.48442 0.297811 -1.62142 0
M  V30 26 H 1.09613 -2.5141 0.437887 0
M  V30 27 H 2.58178 -2.26208 2.45394 0
M  V30 28 H 0.27502 0.624636 -3.26668 0
M  V30 29 H 0.18218 0.608171 0.28336 0
M  V30 30 H -1.67456 1.35283 1.61016 0
M  V30 31 H -4.21902 1.19429 -1.86312 0
M  V30 32 H -2.26743 0.415064 -3.16074 0
M  V30 33 H -4.45549 -0.210894 1.80349 0
M  V30 34 H -5.79629 0.0811814 0.793564 0
M  V30 END ATOM
M  V30 BEGIN BOND
M  V30 1 1 1 2
M  V30 2 2 2 3
M  V30 3 1 3 4
M  V30 4 2 4 5
M  V30 5 1 5 6
M  V30 6 2 6 7
M  V30 7 1 5 8
M  V30 8 2 8 9
M  V30 9 2 8 10
M  V30 10 1 8 11
M  V30 11 1 11 12
M  V30 12 2 12 13
M  V30 13 1 13 14
M  V30 14 2 14 15
M  V30 15 1 15 16
M  V30 16 2 16 17
M  V30 17 1 15 18
M  V30 18 1 18 19
M  V30 19 2 18 20
M  V30 20 2 18 21
M  V30 21 1 7 2
M  V30 22 1 17 12
M  V30 23 1 1 22
M  V30 24 1 1 23
M  V30 25 1 3 24
M  V30 26 1 4 25
M  V30 27 1 6 26
M  V30 28 1 7 27
M  V30 29 1 11 28
M  V30 30 1 13 29
M  V30 31 1 14 30
M  V30 32 1 16 31
M  V30 33 1 17 32
M  V30 34 1 19 33
M  V30 35 1 19 34
M  V30 END BOND
M  V30 END CTAB
M  END
