
     RDKit          3D

  0  0  0  0  0  0  0  0  0  0999 V3000
M  V30 BEGIN CTAB
M  V30 COUNTS 38 38 0 0 0
M  V30 BEGIN ATOM
M  V30 1 C 4.9735 0.181205 0.748093 0
M  V30 2 C 4.47039 -0.672702 -0.403392 0
M  V30 3 C 2.97366 -0.421392 -0.543193 0
M  V30 4 C 2.26261 -0.794926 0.731046 0
M  V30 5 N 0.840281 -0.615241 0.677767 0
M  V30 6 C 0.254209 0.639479 0.493124 0
M  V30 7 O 1.05209 1.65362 0.396076 0
M  V30 8 C -1.14017 0.995776 0.396112 0
M  V30 9 C -1.5315 2.26854 0.871242 0
M  V30 10 C -2.84821 2.66197 0.871969 0
M  V30 11 Br -3.33228 4.38972 1.52151 0
M  V30 12 C -3.82486 1.83388 0.411899 0
M  V30 13 C -3.48357 0.564181 -0.0699525 0
M  V30 14 C -2.14086 0.169741 -0.0677523 0
M  V30 15 C -1.85492 -1.18263 -0.614508 0
M  V30 16 S -4.70972 -0.493061 -0.699876 0
M  V30 17 O -4.6652 -1.81668 -0.0107471 0
M  V30 18 O -4.61746 -0.684464 -2.19634 0
M  V30 19 N -6.26044 0.243073 -0.362354 0
M  V30 20 N 5.18543 -0.398359 -1.61187 0
M  V30 21 H 4.82669 -0.423845 1.68372 0
M  V30 22 H 6.00543 0.507164 0.615734 0
M  V30 23 H 4.3058 1.05997 0.851369 0
M  V30 24 H 4.59672 -1.74823 -0.155574 0
M  V30 25 H 2.78246 0.63562 -0.770127 0
M  V30 26 H 2.54528 -1.0087 -1.38759 0
M  V30 27 H 2.68467 -0.21452 1.60354 0
M  V30 28 H 2.492 -1.88475 0.895496 0
M  V30 29 H 0.277203 -1.48232 0.81514 0
M  V30 30 H -0.773464 2.93037 1.23458 0
M  V30 31 H -4.88557 2.09938 0.393784 0
M  V30 32 H -2.56732 -1.45534 -1.45018 0
M  V30 33 H -0.867118 -1.19173 -1.16617 0
M  V30 34 H -1.87864 -1.98265 0.128289 0
M  V30 35 H -6.2538 0.422148 0.683793 0
M  V30 36 H -6.31597 1.16281 -0.852158 0
M  V30 37 H 6.08451 0.135062 -1.43198 0
M  V30 38 H 5.33817 -1.20077 -2.23052 0
M  V30 END ATOM
M  V30 BEGIN BOND
M  V30 1 1 1 2
M  V30 2 1 2 3
M  V30 3 1 3 4
M  V30 4 1 4 5
M  V30 5 1 5 6
M  V30 6 2 6 7
M  V30 7 1 6 8
M  V30 8 2 8 9
M  V30 9 1 9 10
M  V30 10 1 10 11
M  V30 11 2 10 12
M  V30 12 1 12 13
M  V30 13 2 13 14
M  V30 14 1 14 15
M  V30 15 1 13 16
M  V30 16 2 16 17
M  V30 17 2 16 18
M  V30 18 1 16 19
M  V30 19 1 2 20
M  V30 20 1 14 8
M  V30 21 1 1 21
M  V30 22 1 1 22
M  V30 23 1 1 23
M  V30 24 1 2 24
M  V30 25 1 3 25
M  V30 26 1 3 26
M  V30 27 1 4 27
M  V30 28 1 4 28
M  V30 29 1 5 29
M  V30 30 1 9 30
M  V30 31 1 12 31
M  V30 32 1 15 32
M  V30 33 1 15 33
M  V30 34 1 15 34
M  V30 35 1 19 35
M  V30 36 1 19 36
M  V30 37 1 20 37
M  V30 38 1 20 38
M  V30 END BOND
M  V30 END CTAB
M  END
