
     RDKit          3D

  0  0  0  0  0  0  0  0  0  0999 V3000
M  V30 BEGIN CTAB
M  V30 COUNTS 21 21 0 0 0
M  V30 BEGIN ATOM
M  V30 1 N -3.14259 -0.784722 0.297326 0
M  V30 2 C -1.78941 -0.478928 0.0554268 0
M  V30 3 C -1.27412 0.799246 0.10171 0
M  V30 4 C 0.0543389 1.0374 -0.143192 0
M  V30 5 C 0.928744 0.00509709 -0.446074 0
M  V30 6 C 0.423551 -1.27807 -0.495016 0
M  V30 7 Cl 1.52908 -2.57199 -0.876695 0
M  V30 8 C -0.909623 -1.50851 -0.248233 0
M  V30 9 S 2.59842 0.371847 -0.745032 0
M  V30 10 N 3.67962 -0.369778 0.302108 0
M  V30 11 O 2.90607 -0.0198836 -2.18413 0
M  V30 12 O 2.76852 1.8584 -0.679481 0
M  V30 13 N -2.14478 1.90367 0.412195 0 CHG=1
M  V30 14 O -3.47704 1.82004 0.116059 0 CHG=-1
M  V30 15 O -1.72813 2.94559 0.946424 0
M  V30 16 H -3.56148 -0.533258 1.20568 0
M  V30 17 H -3.71012 -1.25468 -0.424065 0
M  V30 18 H 0.414886 2.06832 -0.0943212 0
M  V30 19 H -1.3103 -2.53009 -0.287559 0
M  V30 20 H 3.50894 -0.32643 1.29149 0
M  V30 21 H 4.23542 -1.15328 -0.0621456 0
M  V30 END ATOM
M  V30 BEGIN BOND
M  V30 1 1 1 2
M  V30 2 2 2 3
M  V30 3 1 3 4
M  V30 4 2 4 5
M  V30 5 1 5 6
M  V30 6 1 6 7
M  V30 7 2 6 8
M  V30 8 1 5 9
M  V30 9 1 9 10
M  V30 10 2 9 11
M  V30 11 2 9 12
M  V30 12 1 3 13
M  V30 13 1 13 14
M  V30 14 2 13 15
M  V30 15 1 8 2
M  V30 16 1 1 16
M  V30 17 1 1 17
M  V30 18 1 4 18
M  V30 19 1 8 19
M  V30 20 1 10 20
M  V30 21 1 10 21
M  V30 END BOND
M  V30 END CTAB
M  END
