
     RDKit          3D

  0  0  0  0  0  0  0  0  0  0999 V3000
M  V30 BEGIN CTAB
M  V30 COUNTS 20 20 0 0 0
M  V30 BEGIN ATOM
M  V30 1 C -2.75508 1.14163 0.321534 0
M  V30 2 C -1.43061 0.467121 0.560386 0 CFG=2
M  V30 3 C -0.65275 0.383466 -0.738266 0
M  V30 4 C 0.657242 -0.272118 -0.555451 0
M  V30 5 O 0.942284 -1.54093 -0.653822 0
M  V30 6 N 2.20383 -1.74811 -0.425746 0
M  V30 7 C 2.7902 -0.556546 -0.161752 0
M  V30 8 N 1.80584 0.351455 -0.248161 0
M  V30 9 N 4.16298 -0.348608 0.139582 0
M  V30 10 N -1.71729 -0.867259 1.06914 0
M  V30 11 H -3.43959 0.456699 -0.229364 0
M  V30 12 H -2.58801 2.018 -0.329829 0
M  V30 13 H -3.24466 1.45911 1.24918 0
M  V30 14 H -0.864998 0.987248 1.34997 0
M  V30 15 H -0.517459 1.44191 -1.09129 0
M  V30 16 H -1.27877 -0.104546 -1.51221 0
M  V30 17 H 4.71527 0.292825 -0.468378 0
M  V30 18 H 4.59822 -0.829921 0.950528 0
M  V30 19 H -0.896879 -1.47564 0.985994 0
M  V30 20 H -2.48977 -1.25578 0.483815 0
M  V30 END ATOM
M  V30 BEGIN BOND
M  V30 1 1 1 2
M  V30 2 1 2 3
M  V30 3 1 3 4
M  V30 4 1 4 5
M  V30 5 1 5 6
M  V30 6 2 6 7
M  V30 7 1 7 8
M  V30 8 1 7 9
M  V30 9 1 2 10
M  V30 10 2 8 4
M  V30 11 1 1 11
M  V30 12 1 1 12
M  V30 13 1 1 13
M  V30 14 1 2 14 CFG=1
M  V30 15 1 3 15
M  V30 16 1 3 16
M  V30 17 1 9 17
M  V30 18 1 9 18
M  V30 19 1 10 19
M  V30 20 1 10 20
M  V30 END BOND
M  V30 END CTAB
M  END
