
     RDKit          3D

  0  0  0  0  0  0  0  0  0  0999 V3000
M  V30 BEGIN CTAB
M  V30 COUNTS 25 26 0 0 0
M  V30 BEGIN ATOM
M  V30 1 N 4.3118 -0.623424 -0.0371967 0
M  V30 2 C 3.96761 0.670261 -0.440935 0
M  V30 3 N 2.77125 1.03975 -0.57156 0
M  V30 4 C 1.66424 0.129166 -0.306278 0
M  V30 5 S 1.72286 -1.4968 0.196358 0
M  V30 6 C 0.0111552 -1.7945 0.261977 0
M  V30 7 C -0.488053 -0.584523 -0.120333 0
M  V30 8 N 0.388057 0.351832 -0.394989 0
M  V30 9 C -1.94593 -0.271771 -0.193466 0
M  V30 10 C -2.33804 1.0832 -0.145616 0
M  V30 11 C -3.64472 1.48191 -0.243672 0
M  V30 12 C -4.63112 0.545887 -0.395072 0
M  V30 13 C -4.27814 -0.770262 -0.445016 0
M  V30 14 C -2.9289 -1.16721 -0.343642 0
M  V30 15 Cl -2.59068 -2.87567 -0.479721 0
M  V30 16 N 4.9939 1.6012 -0.714406 0
M  V30 17 H 4.38815 -0.849507 0.963087 0
M  V30 18 H 4.48852 -1.34875 -0.744269 0
M  V30 19 H -0.452926 -2.73183 0.564283 0
M  V30 20 H -1.57857 1.84715 -0.0249427 0
M  V30 21 H -3.93627 2.53417 -0.205287 0
M  V30 22 H -5.68066 0.872129 -0.472831 0
M  V30 23 H -5.02419 -1.53912 -0.563771 0
M  V30 24 H 5.09827 2.14791 -1.58373 0
M  V30 25 H 5.71238 1.74879 0.0326573 0
M  V30 END ATOM
M  V30 BEGIN BOND
M  V30 1 1 1 2
M  V30 2 2 2 3 CFG=2
M  V30 3 1 3 4
M  V30 4 1 4 5
M  V30 5 1 5 6
M  V30 6 2 6 7
M  V30 7 1 7 8
M  V30 8 1 7 9
M  V30 9 2 9 10
M  V30 10 1 10 11
M  V30 11 2 11 12
M  V30 12 1 12 13
M  V30 13 2 13 14
M  V30 14 1 14 15
M  V30 15 1 2 16
M  V30 16 2 8 4
M  V30 17 1 14 9
M  V30 18 1 1 17
M  V30 19 1 1 18
M  V30 20 1 6 19
M  V30 21 1 10 20
M  V30 22 1 11 21
M  V30 23 1 12 22
M  V30 24 1 13 23
M  V30 25 1 16 24
M  V30 26 1 16 25
M  V30 END BOND
M  V30 END CTAB
M  END
