
     RDKit          3D

  0  0  0  0  0  0  0  0  0  0999 V3000
M  V30 BEGIN CTAB
M  V30 COUNTS 52 55 0 0 0
M  V30 BEGIN ATOM
M  V30 1 N 6.26993 -0.560571 -1.42522 0
M  V30 2 C 5.17775 -0.475493 -0.511062 0
M  V30 3 C 3.90137 -1.11963 -1.05886 0
M  V30 4 N 2.88768 -0.521823 -0.258653 0
M  V30 5 C 3.36077 0.720216 0.363027 0
M  V30 6 C 4.682 0.964582 -0.325104 0
M  V30 7 C 5.637 1.76577 0.526441 0
M  V30 8 C 1.55149 -1.04481 -0.0615929 0
M  V30 9 O 1.26938 -2.11078 -0.645201 0
M  V30 10 N 0.616344 -0.390342 0.744001 0
M  V30 11 C -0.712916 -0.693359 1.06513 0
M  V30 12 C -1.7689 -0.706258 0.0309625 0
M  V30 13 N -1.5668 -1.63768 -1.0227 0
M  V30 14 C -3.10549 -1.09487 0.6786 0
M  V30 15 C -3.64393 -0.0748541 1.61286 0
M  V30 16 C -3.87392 1.23269 0.883797 0
M  V30 17 C -2.55763 1.67106 0.323845 0
M  V30 18 C -1.98426 0.650737 -0.614196 0
M  V30 19 C -2.98377 0.469845 -1.72911 0
M  V30 20 C -4.31544 -0.0230655 -1.16913 0
M  V30 21 C -4.13551 -1.31318 -0.407743 0
M  V30 22 C -4.89341 1.00139 -0.210499 0
M  V30 23 H 7.16283 -0.670553 -0.857944 0
M  V30 24 H 6.24178 -1.38634 -2.05518 0
M  V30 25 H 5.37351 -0.920979 0.479597 0
M  V30 26 H 3.8302 -0.740445 -2.12023 0
M  V30 27 H 3.94566 -2.21769 -1.0203 0
M  V30 28 H 3.49171 0.497216 1.44172 0
M  V30 29 H 2.64578 1.54492 0.17336 0
M  V30 30 H 4.4904 1.41754 -1.31103 0
M  V30 31 H 6.32402 2.29989 -0.192346 0
M  V30 32 H 5.12201 2.561 1.08806 0
M  V30 33 H 6.29568 1.13013 1.15072 0
M  V30 34 H 0.996619 0.518654 1.20029 0
M  V30 35 H -1.10917 -0.0616046 1.92767 0
M  V30 36 H -0.723268 -1.73566 1.53979 0
M  V30 37 H -1.15132 -1.29791 -1.86417 0
M  V30 38 H -1.55138 -2.61501 -0.814127 0
M  V30 39 H -2.93824 -2.04572 1.24004 0
M  V30 40 H -4.59856 -0.477006 2.0228 0
M  V30 41 H -3.01192 0.136931 2.49086 0
M  V30 42 H -4.21777 1.98416 1.59877 0
M  V30 43 H -2.71801 2.59484 -0.247866 0
M  V30 44 H -1.89084 1.90944 1.17215 0
M  V30 45 H -1.0484 1.0378 -1.04745 0
M  V30 46 H -3.20009 1.47645 -2.15064 0
M  V30 47 H -2.69325 -0.213528 -2.52014 0
M  V30 48 H -4.98299 -0.231192 -2.02156 0
M  V30 49 H -3.8689 -2.15033 -1.08667 0
M  V30 50 H -5.10002 -1.51696 0.114741 0
M  V30 51 H -5.78611 0.51637 0.26084 0
M  V30 52 H -5.14167 1.94601 -0.715221 0
M  V30 END ATOM
M  V30 BEGIN BOND
M  V30 1 1 1 2
M  V30 2 1 2 3
M  V30 3 1 3 4
M  V30 4 1 4 5
M  V30 5 1 5 6
M  V30 6 1 6 7
M  V30 7 1 4 8
M  V30 8 2 8 9
M  V30 9 1 8 10
M  V30 10 1 10 11
M  V30 11 1 11 12
M  V30 12 1 12 13
M  V30 13 1 12 14
M  V30 14 1 14 15
M  V30 15 1 15 16
M  V30 16 1 16 17
M  V30 17 1 17 18
M  V30 18 1 18 19
M  V30 19 1 19 20
M  V30 20 1 20 21
M  V30 21 1 20 22
M  V30 22 1 6 2
M  V30 23 1 18 12
M  V30 24 1 21 14
M  V30 25 1 22 16
M  V30 26 1 1 23
M  V30 27 1 1 24
M  V30 28 1 2 25
M  V30 29 1 3 26
M  V30 30 1 3 27
M  V30 31 1 5 28
M  V30 32 1 5 29
M  V30 33 1 6 30
M  V30 34 1 7 31
M  V30 35 1 7 32
M  V30 36 1 7 33
M  V30 37 1 10 34
M  V30 38 1 11 35
M  V30 39 1 11 36
M  V30 40 1 13 37
M  V30 41 1 13 38
M  V30 42 1 14 39
M  V30 43 1 15 40
M  V30 44 1 15 41
M  V30 45 1 16 42
M  V30 46 1 17 43
M  V30 47 1 17 44
M  V30 48 1 18 45
M  V30 49 1 19 46
M  V30 50 1 19 47
M  V30 51 1 20 48
M  V30 52 1 21 49
M  V30 53 1 21 50
M  V30 54 1 22 51
M  V30 55 1 22 52
M  V30 END BOND
M  V30 END CTAB
M  END
