
     RDKit          3D

  0  0  0  0  0  0  0  0  0  0999 V3000
M  V30 BEGIN CTAB
M  V30 COUNTS 27 27 0 0 0
M  V30 BEGIN ATOM
M  V30 1 C -3.09711 0.800771 -0.888824 0
M  V30 2 C -2.69728 -0.163227 0.210069 0
M  V30 3 N -1.29757 -0.378248 0.133123 0
M  V30 4 C -0.469075 0.751027 0.343729 0
M  V30 5 C 0.974026 0.422306 0.239865 0
M  V30 6 N 1.86409 1.39887 0.408552 0
M  V30 7 C 3.20807 1.18603 0.325469 0
M  V30 8 N 4.09907 2.25731 0.517547 0
M  V30 9 N 3.65267 -0.0581433 0.0625085 0
M  V30 10 C 2.75702 -1.05299 -0.10978 0
M  V30 11 N 1.426 -0.815559 -0.0220479 0
M  V30 12 N 3.24333 -2.35859 -0.384699 0
M  V30 13 C -3.51094 -1.43273 0.181651 0
M  V30 14 H -4.19538 0.758739 -1.05663 0
M  V30 15 H -2.76667 1.81505 -0.554929 0
M  V30 16 H -2.55795 0.548886 -1.80269 0
M  V30 17 H -2.96773 0.345934 1.17778 0
M  V30 18 H -0.958628 -1.12144 -0.469232 0
M  V30 19 H -0.705893 1.52146 -0.429003 0
M  V30 20 H -0.603419 1.24022 1.3325 0
M  V30 21 H 4.23754 2.97938 -0.199836 0
M  V30 22 H 4.62809 2.31775 1.40617 0
M  V30 23 H 3.21942 -2.75997 -1.34687 0
M  V30 24 H 3.64239 -2.96134 0.376017 0
M  V30 25 H -2.88682 -2.22992 -0.269815 0
M  V30 26 H -4.44282 -1.22806 -0.380917 0
M  V30 27 H -3.79444 -1.78353 1.20029 0
M  V30 END ATOM
M  V30 BEGIN BOND
M  V30 1 1 1 2
M  V30 2 1 2 3
M  V30 3 1 3 4
M  V30 4 1 4 5
M  V30 5 2 5 6
M  V30 6 1 6 7
M  V30 7 1 7 8
M  V30 8 2 7 9
M  V30 9 1 9 10
M  V30 10 2 10 11
M  V30 11 1 10 12
M  V30 12 1 2 13
M  V30 13 1 11 5
M  V30 14 1 1 14
M  V30 15 1 1 15
M  V30 16 1 1 16
M  V30 17 1 2 17
M  V30 18 1 3 18
M  V30 19 1 4 19
M  V30 20 1 4 20
M  V30 21 1 8 21
M  V30 22 1 8 22
M  V30 23 1 12 23
M  V30 24 1 12 24
M  V30 25 1 13 25
M  V30 26 1 13 26
M  V30 27 1 13 27
M  V30 END BOND
M  V30 END CTAB
M  END
