
     RDKit          3D

  0  0  0  0  0  0  0  0  0  0999 V3000
M  V30 BEGIN CTAB
M  V30 COUNTS 37 38 0 0 0
M  V30 BEGIN ATOM
M  V30 1 O 0.0248508 -0.482852 1.23001 0
M  V30 2 C -0.529348 -0.999439 0.198309 0
M  V30 3 N -1.79969 -0.567097 -0.24998 0
M  V30 4 C -2.44554 0.47061 0.521267 0
M  V30 5 C -2.57215 0.399842 1.89119 0
M  V30 6 C -3.18141 1.36974 2.65016 0
M  V30 7 C -3.69635 2.47783 2.00828 0
M  V30 8 C -3.57945 2.57128 0.618303 0
M  V30 9 C -2.96149 1.57908 -0.113862 0
M  V30 10 C -2.4203 -1.12713 -1.41935 0
M  V30 11 C 0.157111 -2.07729 -0.559073 0
M  V30 12 S 1.80718 -2.40742 0.129242 0
M  V30 13 C 2.801 -0.932128 -0.166051 0
M  V30 14 N 4.06956 -0.98355 0.278193 0
M  V30 15 C 4.84745 0.080186 0.0851914 0
M  V30 16 N 6.18933 0.143895 0.505178 0
M  V30 17 N 4.35381 1.1771 -0.545282 0
M  V30 18 C 3.08824 1.20656 -0.979212 0
M  V30 19 N 2.30613 0.149978 -0.79065 0
M  V30 20 N 2.64635 2.39517 -1.63075 0
M  V30 21 C -0.70517 -3.32157 -0.505132 0
M  V30 22 H -2.17069 -0.46532 2.39683 0
M  V30 23 H -3.26577 1.28114 3.74395 0
M  V30 24 H -4.18363 3.25989 2.58484 0
M  V30 25 H -3.9795 3.43571 0.104683 0
M  V30 26 H -2.90018 1.70447 -1.184 0
M  V30 27 H -2.98285 -2.06386 -1.18726 0
M  V30 28 H -1.65753 -1.30154 -2.17846 0
M  V30 29 H -3.17773 -0.368148 -1.75693 0
M  V30 30 H 0.230689 -1.7542 -1.60929 0
M  V30 31 H 6.93791 -0.295298 -0.0541986 0
M  V30 32 H 6.42999 0.634214 1.38147 0
M  V30 33 H 2.42075 2.44215 -2.63914 0
M  V30 34 H 2.52864 3.29907 -1.09464 0
M  V30 35 H -1.12203 -3.53211 -1.50622 0
M  V30 36 H -0.0140941 -4.17242 -0.277543 0
M  V30 37 H -1.49409 -3.22658 0.273487 0
M  V30 END ATOM
M  V30 BEGIN BOND
M  V30 1 2 1 2
M  V30 2 1 2 3
M  V30 3 1 3 4
M  V30 4 2 4 5
M  V30 5 1 5 6
M  V30 6 2 6 7
M  V30 7 1 7 8
M  V30 8 2 8 9
M  V30 9 1 3 10
M  V30 10 1 2 11
M  V30 11 1 11 12
M  V30 12 1 12 13
M  V30 13 2 13 14
M  V30 14 1 14 15
M  V30 15 1 15 16
M  V30 16 2 15 17
M  V30 17 1 17 18
M  V30 18 2 18 19
M  V30 19 1 18 20
M  V30 20 1 11 21
M  V30 21 1 9 4
M  V30 22 1 19 13
M  V30 23 1 5 22
M  V30 24 1 6 23
M  V30 25 1 7 24
M  V30 26 1 8 25
M  V30 27 1 9 26
M  V30 28 1 10 27
M  V30 29 1 10 28
M  V30 30 1 10 29
M  V30 31 1 11 30
M  V30 32 1 16 31
M  V30 33 1 16 32
M  V30 34 1 20 33
M  V30 35 1 20 34
M  V30 36 1 21 35
M  V30 37 1 21 36
M  V30 38 1 21 37
M  V30 END BOND
M  V30 END CTAB
M  END
