
     RDKit          3D

  0  0  0  0  0  0  0  0  0  0999 V3000
M  V30 BEGIN CTAB
M  V30 COUNTS 24 24 0 0 0
M  V30 BEGIN ATOM
M  V30 1 N 1.47252 -1.68828 -1.13277 0
M  V30 2 C 1.67147 -0.43452 -0.533506 0
M  V30 3 C 0.643394 0.219748 0.104777 0
M  V30 4 N -0.628352 -0.405895 0.142979 0
M  V30 5 C -1.768 0.223057 0.800169 0
M  V30 6 C -2.95833 -0.693164 0.662789 0
M  V30 7 N -3.25774 -0.909768 -0.759611 0
M  V30 8 C 0.893974 1.44756 0.675592 0
M  V30 9 C 2.17124 1.99473 0.594712 0
M  V30 10 C 3.21165 1.34069 -0.047 0
M  V30 11 C 2.95139 0.111969 -0.615502 0
M  V30 12 Cl 4.27359 -0.702011 -1.422 0
M  V30 13 H 1.26935 -1.86544 -2.13259 0
M  V30 14 H 1.53677 -2.53366 -0.499656 0
M  V30 15 H -0.734449 -1.33576 -0.313434 0
M  V30 16 H -2.03773 1.192 0.334697 0
M  V30 17 H -1.57042 0.32447 1.8949 0
M  V30 18 H -2.71634 -1.69896 1.08614 0
M  V30 19 H -3.83637 -0.288536 1.20202 0
M  V30 20 H -4.2846 -0.969526 -0.927286 0
M  V30 21 H -2.94196 -0.0220263 -1.23481 0
M  V30 22 H 0.0829835 1.9462 1.16994 0
M  V30 23 H 2.34814 2.95663 1.04747 0
M  V30 24 H 4.20782 1.79049 -0.0980146 0
M  V30 END ATOM
M  V30 BEGIN BOND
M  V30 1 1 1 2
M  V30 2 2 2 3
M  V30 3 1 3 4
M  V30 4 1 4 5
M  V30 5 1 5 6
M  V30 6 1 6 7
M  V30 7 1 3 8
M  V30 8 2 8 9
M  V30 9 1 9 10
M  V30 10 2 10 11
M  V30 11 1 11 12
M  V30 12 1 11 2
M  V30 13 1 1 13
M  V30 14 1 1 14
M  V30 15 1 4 15
M  V30 16 1 5 16
M  V30 17 1 5 17
M  V30 18 1 6 18
M  V30 19 1 6 19
M  V30 20 1 7 20
M  V30 21 1 7 21
M  V30 22 1 8 22
M  V30 23 1 9 23
M  V30 24 1 10 24
M  V30 END BOND
M  V30 END CTAB
M  END
