
     RDKit          3D

  0  0  0  0  0  0  0  0  0  0999 V3000
M  V30 BEGIN CTAB
M  V30 COUNTS 25 25 0 0 0
M  V30 BEGIN ATOM
M  V30 1 N 1.53787 1.28725 1.57026 0
M  V30 2 C 1.73088 0.0851413 0.82938 0
M  V30 3 C 0.711893 -0.132445 -0.279932 0 CFG=1
M  V30 4 C 1.0659 -1.42209 -0.937998 0
M  V30 5 O -0.0147661 -2.14517 -1.42704 0
M  V30 6 C -0.906938 -2.39143 -0.382082 0
M  V30 7 C -1.49951 -1.08937 0.0463199 0
M  V30 8 N -0.626399 0.0129164 0.167641 0
M  V30 9 S -1.42804 1.40544 -0.464014 0
M  V30 10 O -1.5738 1.33104 -1.95451 0
M  V30 11 O -2.8301 1.44867 0.105577 0
M  V30 12 N -0.662706 2.87923 0.000191286 0
M  V30 13 H 2.13593 2.04737 1.1678 0
M  V30 14 H 1.89013 1.15263 2.55858 0
M  V30 15 H 2.74914 0.11249 0.355668 0
M  V30 16 H 1.76 -0.777546 1.52587 0
M  V30 17 H 0.874131 0.689093 -1.04425 0
M  V30 18 H 1.64111 -2.07429 -0.221676 0
M  V30 19 H 1.74711 -1.21534 -1.78804 0
M  V30 20 H -0.42885 -2.91252 0.464221 0
M  V30 21 H -1.72318 -3.01161 -0.806978 0
M  V30 22 H -2.0256 -1.23194 1.01486 0
M  V30 23 H -2.30798 -0.843293 -0.692164 0
M  V30 24 H -1.03383 3.17815 0.926146 0
M  V30 25 H -0.782401 3.61761 -0.733827 0
M  V30 END ATOM
M  V30 BEGIN BOND
M  V30 1 1 1 2
M  V30 2 1 2 3
M  V30 3 1 3 4
M  V30 4 1 4 5
M  V30 5 1 5 6
M  V30 6 1 6 7
M  V30 7 1 7 8
M  V30 8 1 8 9
M  V30 9 2 9 10
M  V30 10 2 9 11
M  V30 11 1 9 12
M  V30 12 1 8 3
M  V30 13 1 1 13
M  V30 14 1 1 14
M  V30 15 1 2 15
M  V30 16 1 2 16
M  V30 17 1 3 17 CFG=3
M  V30 18 1 4 18
M  V30 19 1 4 19
M  V30 20 1 6 20
M  V30 21 1 6 21
M  V30 22 1 7 22
M  V30 23 1 7 23
M  V30 24 1 12 24
M  V30 25 1 12 25
M  V30 END BOND
M  V30 END CTAB
M  END
