
     RDKit          3D

  0  0  0  0  0  0  0  0  0  0999 V3000
M  V30 BEGIN CTAB
M  V30 COUNTS 44 44 0 0 0
M  V30 BEGIN ATOM
M  V30 1 C 4.87286 1.29158 -0.672899 0
M  V30 2 C 4.31461 0.00407511 -0.0533068 0
M  V30 3 C 2.85638 -0.0275907 -0.455351 0
M  V30 4 C 2.13519 -1.2661 0.0840297 0
M  V30 5 C 0.753081 -1.19373 -0.377943 0
M  V30 6 O 0.437025 -2.07896 -1.25943 0
M  V30 7 N -0.276674 -0.309385 -0.00656711 0
M  V30 8 C -0.057473 0.711797 0.957646 0
M  V30 9 C -1.4009 1.02012 1.61653 0
M  V30 10 C -2.25243 1.61426 0.537282 0
M  V30 11 C -2.47928 0.65074 -0.565352 0
M  V30 12 C -1.5689 -0.504051 -0.663897 0
M  V30 13 C -3.90829 0.102739 -0.437203 0
M  V30 14 N -4.16301 -0.85196 -1.5123 0
M  V30 15 C -4.92609 1.2131 -0.587491 0
M  V30 16 N 2.76257 -2.44639 -0.563865 0
M  V30 17 C 2.343 -1.44113 1.54352 0
M  V30 18 H 4.06887 2.0288 -0.864879 0
M  V30 19 H 5.37797 1.08857 -1.62994 0
M  V30 20 H 5.55853 1.77189 0.0806285 0
M  V30 21 H 4.86248 -0.853437 -0.494538 0
M  V30 22 H 4.46724 0.0273705 1.02904 0
M  V30 23 H 2.38639 0.845453 0.0131828 0
M  V30 24 H 2.77132 -0.0702997 -1.54023 0
M  V30 25 H 0.208684 1.67431 0.431197 0
M  V30 26 H 0.651519 0.5431 1.74524 0
M  V30 27 H -1.25769 1.76628 2.40597 0
M  V30 28 H -1.88636 0.119523 2.01222 0
M  V30 29 H -1.68859 2.51205 0.148165 0
M  V30 30 H -3.22973 1.98319 0.921286 0
M  V30 31 H -2.50847 1.24692 -1.52661 0
M  V30 32 H -1.97842 -1.44867 -0.247646 0
M  V30 33 H -1.39664 -0.720621 -1.75809 0
M  V30 34 H -4.02942 -0.410709 0.54109 0
M  V30 35 H -5.1492 -0.800554 -1.8413 0
M  V30 36 H -3.88409 -1.81587 -1.24434 0
M  V30 37 H -4.58098 2.00935 -1.26406 0
M  V30 38 H -5.21161 1.67308 0.371104 0
M  V30 39 H -5.88134 0.827583 -1.03523 0
M  V30 40 H 3.56846 -2.78548 -0.00380803 0
M  V30 41 H 2.03346 -3.21483 -0.504647 0
M  V30 42 H 3.08939 -2.23453 1.74538 0
M  V30 43 H 2.76765 -0.501902 1.96709 0
M  V30 44 H 1.42888 -1.74968 2.09304 0
M  V30 END ATOM
M  V30 BEGIN BOND
M  V30 1 1 1 2
M  V30 2 1 2 3
M  V30 3 1 3 4
M  V30 4 1 4 5
M  V30 5 2 5 6
M  V30 6 1 5 7
M  V30 7 1 7 8
M  V30 8 1 8 9
M  V30 9 1 9 10
M  V30 10 1 10 11
M  V30 11 1 11 12
M  V30 12 1 11 13
M  V30 13 1 13 14
M  V30 14 1 13 15
M  V30 15 1 4 16
M  V30 16 1 4 17
M  V30 17 1 12 7
M  V30 18 1 1 18
M  V30 19 1 1 19
M  V30 20 1 1 20
M  V30 21 1 2 21
M  V30 22 1 2 22
M  V30 23 1 3 23
M  V30 24 1 3 24
M  V30 25 1 8 25
M  V30 26 1 8 26
M  V30 27 1 9 27
M  V30 28 1 9 28
M  V30 29 1 10 29
M  V30 30 1 10 30
M  V30 31 1 11 31
M  V30 32 1 12 32
M  V30 33 1 12 33
M  V30 34 1 13 34
M  V30 35 1 14 35
M  V30 36 1 14 36
M  V30 37 1 15 37
M  V30 38 1 15 38
M  V30 39 1 15 39
M  V30 40 1 16 40
M  V30 41 1 16 41
M  V30 42 1 17 42
M  V30 43 1 17 43
M  V30 44 1 17 44
M  V30 END BOND
M  V30 END CTAB
M  END
