
     RDKit          3D

  0  0  0  0  0  0  0  0  0  0999 V3000
M  V30 BEGIN CTAB
M  V30 COUNTS 28 29 0 0 0
M  V30 BEGIN ATOM
M  V30 1 N 2.92829 -1.43125 -0.0497534 0
M  V30 2 C 2.52282 -0.414476 0.849202 0
M  V30 3 S 3.16771 -0.471442 2.35401 0
M  V30 4 C 1.58965 0.653258 0.525549 0
M  V30 5 C 0.238315 0.230898 0.143096 0
M  V30 6 C -0.531985 -0.550901 1.15152 0
M  V30 7 C -1.68747 -1.09964 0.299328 0
M  V30 8 C -1.37404 -0.732552 -1.12848 0
M  V30 9 C 0.165917 -0.703499 -1.06664 0
M  V30 10 C -1.66018 0.732265 -1.29506 0
M  V30 11 C -0.647753 1.35694 -0.340283 0
M  V30 12 N -1.29297 1.92016 0.829848 0
M  V30 13 H 3.56164 -1.18561 -0.833465 0
M  V30 14 H 2.61411 -2.41247 0.048298 0
M  V30 15 H 1.51961 1.38864 1.32997 0
M  V30 16 H 2.01827 1.22318 -0.352482 0
M  V30 17 H -0.918558 0.103926 1.96141 0
M  V30 18 H 0.00799049 -1.4216 1.54549 0
M  V30 19 H -2.65744 -0.682478 0.650496 0
M  V30 20 H -1.76603 -2.19924 0.391483 0
M  V30 21 H -1.75957 -1.38731 -1.88056 0
M  V30 22 H 0.482104 -1.73131 -0.81813 0
M  V30 23 H 0.606424 -0.277512 -1.96206 0
M  V30 24 H -1.38926 1.042 -2.33609 0
M  V30 25 H -2.69582 1.00785 -1.02401 0
M  V30 26 H -0.00962619 2.10314 -0.849014 0
M  V30 27 H -0.754278 2.7289 1.21292 0
M  V30 28 H -2.27787 2.21013 0.643412 0
M  V30 END ATOM
M  V30 BEGIN BOND
M  V30 1 1 1 2
M  V30 2 2 2 3
M  V30 3 1 2 4
M  V30 4 1 4 5
M  V30 5 1 5 6
M  V30 6 1 6 7
M  V30 7 1 7 8
M  V30 8 1 8 9
M  V30 9 1 8 10
M  V30 10 1 10 11
M  V30 11 1 11 12
M  V30 12 1 9 5
M  V30 13 1 11 5
M  V30 14 1 1 13
M  V30 15 1 1 14
M  V30 16 1 4 15
M  V30 17 1 4 16
M  V30 18 1 6 17
M  V30 19 1 6 18
M  V30 20 1 7 19
M  V30 21 1 7 20
M  V30 22 1 8 21
M  V30 23 1 9 22
M  V30 24 1 9 23
M  V30 25 1 10 24
M  V30 26 1 10 25
M  V30 27 1 11 26
M  V30 28 1 12 27
M  V30 29 1 12 28
M  V30 END BOND
M  V30 END CTAB
M  END
