
     RDKit          3D

  0  0  0  0  0  0  0  0  0  0999 V3000
M  V30 BEGIN CTAB
M  V30 COUNTS 21 21 0 0 0
M  V30 BEGIN ATOM
M  V30 1 N 2.50599 -1.98671 -0.110715 0
M  V30 2 C 1.68074 -0.834435 -0.0883403 0
M  V30 3 C 2.1831 0.446686 -0.156403 0
M  V30 4 C 1.41136 1.58527 -0.137154 0
M  V30 5 Cl 2.09233 3.20116 -0.226117 0
M  V30 6 C 0.0411755 1.42563 -0.0430855 0
M  V30 7 C -0.522764 0.168343 0.0283558 0
M  V30 8 C 0.296733 -0.952227 0.00548581 0
M  V30 9 C -1.96088 -0.0158383 0.127498 0
M  V30 10 O -2.69289 0.999325 0.147439 0
M  V30 11 C -2.57426 -1.35857 0.204588 0
M  V30 12 N -0.778497 2.60394 -0.0217655 0
M  V30 13 H 3.29011 -2.01818 -0.78581 0
M  V30 14 H 2.34466 -2.78457 0.522775 0
M  V30 15 H 3.26278 0.562655 -0.230269 0
M  V30 16 H -0.162666 -1.92619 0.0623081 0
M  V30 17 H -3.60833 -1.2975 0.6266 0
M  V30 18 H -2.61569 -1.86378 -0.795071 0
M  V30 19 H -2.02257 -2.04658 0.891232 0
M  V30 20 H -1.21433 2.95972 -0.88254 0
M  V30 21 H -0.956093 3.13184 0.86099 0
M  V30 END ATOM
M  V30 BEGIN BOND
M  V30 1 1 1 2
M  V30 2 2 2 3
M  V30 3 1 3 4
M  V30 4 1 4 5
M  V30 5 2 4 6
M  V30 6 1 6 7
M  V30 7 2 7 8
M  V30 8 1 7 9
M  V30 9 2 9 10
M  V30 10 1 9 11
M  V30 11 1 6 12
M  V30 12 1 8 2
M  V30 13 1 1 13
M  V30 14 1 1 14
M  V30 15 1 3 15
M  V30 16 1 8 16
M  V30 17 1 11 17
M  V30 18 1 11 18
M  V30 19 1 11 19
M  V30 20 1 12 20
M  V30 21 1 12 21
M  V30 END BOND
M  V30 END CTAB
M  END
