
     RDKit          3D

  0  0  0  0  0  0  0  0  0  0999 V3000
M  V30 BEGIN CTAB
M  V30 COUNTS 26 27 0 0 0
M  V30 BEGIN ATOM
M  V30 1 N -1.31697 2.65433 -0.304926 0
M  V30 2 C -1.98983 1.42396 -0.267222 0
M  V30 3 C -3.36565 1.40059 -0.376553 0
M  V30 4 C -4.04525 0.205675 -0.342155 0
M  V30 5 C -3.32966 -0.955168 -0.197659 0
M  V30 6 C -1.93808 -0.92203 -0.0877815 0
M  V30 7 C -1.23123 0.255049 -0.118646 0
M  V30 8 N 0.162269 0.38078 -0.0154799 0
M  V30 9 C 1.14219 -0.60061 0.136997 0
M  V30 10 O 0.784386 -1.82201 0.199333 0
M  V30 11 C 2.56991 -0.360247 0.234392 0
M  V30 12 C 3.53503 -1.36362 0.387374 0
M  V30 13 N 3.27587 -2.75317 0.470337 0
M  V30 14 N 4.72171 -0.739981 0.436654 0
M  V30 15 O 4.56154 0.534944 0.328423 0
M  V30 16 N 3.26115 0.784755 0.204669 0 CHG=1
M  V30 17 O 2.74926 2.05495 0.0683765 0 CHG=-1
M  V30 18 H -0.778527 2.97201 0.538464 0
M  V30 19 H -1.29918 3.3062 -1.11716 0
M  V30 20 H -3.94359 2.31875 -0.491803 0
M  V30 21 H -5.1399 0.163605 -0.42739 0
M  V30 22 H -3.87444 -1.87781 -0.172737 0
M  V30 23 H -1.43296 -1.87147 0.0239254 0
M  V30 24 H 0.55319 1.38059 -0.0586194 0
M  V30 25 H 3.41607 -3.33183 -0.380868 0
M  V30 26 H 2.95267 -3.23827 1.33006 0
M  V30 END ATOM
M  V30 BEGIN BOND
M  V30 1 1 1 2
M  V30 2 2 2 3
M  V30 3 1 3 4
M  V30 4 2 4 5
M  V30 5 1 5 6
M  V30 6 2 6 7
M  V30 7 1 7 8
M  V30 8 1 8 9
M  V30 9 2 9 10
M  V30 10 1 9 11
M  V30 11 1 11 12
M  V30 12 1 12 13
M  V30 13 2 12 14
M  V30 14 1 14 15
M  V30 15 1 15 16
M  V30 16 1 16 17
M  V30 17 1 7 2
M  V30 18 2 16 11
M  V30 19 1 1 18
M  V30 20 1 1 19
M  V30 21 1 3 20
M  V30 22 1 4 21
M  V30 23 1 5 22
M  V30 24 1 6 23
M  V30 25 1 8 24
M  V30 26 1 13 25
M  V30 27 1 13 26
M  V30 END BOND
M  V30 END CTAB
M  END
