
     RDKit          3D

  0  0  0  0  0  0  0  0  0  0999 V3000
M  V30 BEGIN CTAB
M  V30 COUNTS 42 44 0 0 0
M  V30 BEGIN ATOM
M  V30 1 N 6.22362 -1.50959 -0.0643201 0
M  V30 2 C 5.00594 -0.936275 -0.394284 0 CFG=2
M  V30 3 C 4.74649 0.469015 0.0892642 0
M  V30 4 C 3.71744 -0.0951434 1.03516 0 CFG=2
M  V30 5 C 3.79491 -1.43336 0.403231 0
M  V30 6 C 2.42516 0.585483 1.11823 0
M  V30 7 N 1.92947 1.20802 2.23124 0
M  V30 8 N 0.759093 1.71759 2.0025 0
M  V30 9 C 0.456052 1.44306 0.734318 0
M  V30 10 N 1.48791 0.741985 0.18722 0
M  V30 11 C 1.51187 0.267157 -1.17339 0
M  V30 12 C -0.793955 1.84186 0.0587868 0
M  V30 13 N -1.75456 0.770062 0.263952 0
M  V30 14 C -3.02536 1.07014 -0.367475 0
M  V30 15 C -3.96712 -0.0358196 -0.139121 0
M  V30 16 C -3.67798 -1.18265 0.568945 0
M  V30 17 C -4.63177 -2.15592 0.723004 0
M  V30 18 C -5.89076 -2.00537 0.175037 0
M  V30 19 N -6.17094 -0.890352 -0.513054 0
M  V30 20 C -5.24632 0.0799012 -0.676394 0
M  V30 21 N -5.59109 1.23549 -1.40979 0
M  V30 22 H 6.87014 -1.00902 0.479758 0
M  V30 23 H 6.49397 -2.28621 -0.614889 0
M  V30 24 H 4.78649 -0.984381 -1.49011 0
M  V30 25 H 5.69749 0.843095 0.571978 0
M  V30 26 H 4.43183 1.21306 -0.634436 0
M  V30 27 H 4.20724 -0.138306 2.05607 0
M  V30 28 H 4.14302 -2.27013 1.07812 0
M  V30 29 H 2.96813 -1.79709 -0.196949 0
M  V30 30 H 2.46857 0.38041 -1.69572 0
M  V30 31 H 1.08444 -0.774956 -1.26649 0
M  V30 32 H 0.78614 0.885434 -1.78532 0
M  V30 33 H -1.15535 2.77804 0.53157 0
M  V30 34 H -0.702458 2.03541 -1.00708 0
M  V30 35 H -1.86897 0.544956 1.27725 0
M  V30 36 H -2.85938 1.21305 -1.43408 0
M  V30 37 H -3.48201 2.0062 0.0506195 0
M  V30 38 H -2.69712 -1.29485 0.992972 0
M  V30 39 H -4.40468 -3.06832 1.28526 0
M  V30 40 H -6.64147 -2.77279 0.297017 0
M  V30 41 H -5.32813 1.31193 -2.40359 0
M  V30 42 H -6.10596 1.99917 -0.944989 0
M  V30 END ATOM
M  V30 BEGIN BOND
M  V30 1 1 1 2
M  V30 2 1 2 3
M  V30 3 1 3 4
M  V30 4 1 4 5
M  V30 5 1 4 6
M  V30 6 2 6 7
M  V30 7 1 7 8
M  V30 8 2 8 9
M  V30 9 1 9 10
M  V30 10 1 10 11
M  V30 11 1 9 12
M  V30 12 1 12 13
M  V30 13 1 13 14
M  V30 14 1 14 15
M  V30 15 2 15 16
M  V30 16 1 16 17
M  V30 17 2 17 18
M  V30 18 1 18 19
M  V30 19 2 19 20
M  V30 20 1 20 21
M  V30 21 1 5 2
M  V30 22 1 10 6
M  V30 23 1 20 15
M  V30 24 1 1 22
M  V30 25 1 1 23
M  V30 26 1 2 24 CFG=3
M  V30 27 1 3 25
M  V30 28 1 3 26
M  V30 29 1 4 27 CFG=1
M  V30 30 1 5 28
M  V30 31 1 5 29
M  V30 32 1 11 30
M  V30 33 1 11 31
M  V30 34 1 11 32
M  V30 35 1 12 33
M  V30 36 1 12 34
M  V30 37 1 13 35
M  V30 38 1 14 36
M  V30 39 1 14 37
M  V30 40 1 16 38
M  V30 41 1 17 39
M  V30 42 1 18 40
M  V30 43 1 21 41
M  V30 44 1 21 42
M  V30 END BOND
M  V30 END CTAB
M  END
