
     RDKit          3D

  0  0  0  0  0  0  0  0  0  0999 V3000
M  V30 BEGIN CTAB
M  V30 COUNTS 33 35 0 0 0
M  V30 BEGIN ATOM
M  V30 1 C -1.9731 -2.57319 0.781855 0
M  V30 2 C -2.12967 -1.93998 -0.565102 0
M  V30 3 C -2.11129 -0.454761 -0.385991 0
M  V30 4 C -1.03334 0.375008 -0.190941 0
M  V30 5 C -1.29858 1.70231 -0.0466328 0
M  V30 6 C -0.396738 2.76559 0.162267 0
M  V30 7 N 1.02422 2.5618 0.244636 0
M  V30 8 N -0.821843 4.02738 0.285386 0
M  V30 9 C -2.11112 4.36607 0.219905 0
M  V30 10 N -3.00999 3.38681 0.0209885 0
M  V30 11 C -2.60824 2.07939 -0.109542 0
M  V30 12 S -3.43244 0.604856 -0.364591 0
M  V30 13 C 0.335496 -0.231578 -0.161767 0
M  V30 14 C 0.96645 -0.56166 -1.33961 0
M  V30 15 C 2.21657 -1.1367 -1.34225 0
M  V30 16 C 2.89129 -1.40716 -0.159498 0
M  V30 17 N 4.16887 -1.99473 -0.183235 0
M  V30 18 C 2.24494 -1.07018 1.02225 0
M  V30 19 C 0.992221 -0.493828 1.01298 0
M  V30 20 H -0.941597 -2.92431 0.939396 0
M  V30 21 H -2.28492 -1.83144 1.57032 0
M  V30 22 H -2.61364 -3.48847 0.893139 0
M  V30 23 H -3.14827 -2.21085 -0.951939 0
M  V30 24 H -1.34068 -2.19647 -1.28962 0
M  V30 25 H 1.54081 2.5677 1.1465 0
M  V30 26 H 1.54652 2.41301 -0.631727 0
M  V30 27 H -2.44917 5.38614 0.3184 0
M  V30 28 H 0.466782 -0.36348 -2.28529 0
M  V30 29 H 2.68942 -1.38676 -2.29175 0
M  V30 30 H 4.98277 -1.45681 -0.528867 0
M  V30 31 H 4.30448 -2.96673 0.143815 0
M  V30 32 H 2.78777 -1.29155 1.92804 0
M  V30 33 H 0.546009 -0.255429 1.96332 0
M  V30 END ATOM
M  V30 BEGIN BOND
M  V30 1 1 1 2
M  V30 2 1 2 3
M  V30 3 2 3 4
M  V30 4 1 4 5
M  V30 5 2 5 6
M  V30 6 1 6 7
M  V30 7 1 6 8
M  V30 8 2 8 9
M  V30 9 1 9 10
M  V30 10 2 10 11
M  V30 11 1 11 12
M  V30 12 1 4 13
M  V30 13 2 13 14
M  V30 14 1 14 15
M  V30 15 2 15 16
M  V30 16 1 16 17
M  V30 17 1 16 18
M  V30 18 2 18 19
M  V30 19 1 12 3
M  V30 20 1 19 13
M  V30 21 1 11 5
M  V30 22 1 1 20
M  V30 23 1 1 21
M  V30 24 1 1 22
M  V30 25 1 2 23
M  V30 26 1 2 24
M  V30 27 1 7 25
M  V30 28 1 7 26
M  V30 29 1 9 27
M  V30 30 1 14 28
M  V30 31 1 15 29
M  V30 32 1 17 30
M  V30 33 1 17 31
M  V30 34 1 18 32
M  V30 35 1 19 33
M  V30 END BOND
M  V30 END CTAB
M  END
