
     RDKit          3D

  0  0  0  0  0  0  0  0  0  0999 V3000
M  V30 BEGIN CTAB
M  V30 COUNTS 25 25 0 0 0
M  V30 BEGIN ATOM
M  V30 1 C 4.36196 -0.116231 0.66009 0
M  V30 2 O 3.29327 -0.663204 -0.08441 0
M  V30 3 C 1.98638 -0.265402 0.0857492 0
M  V30 4 O 1.72384 0.614392 0.930025 0
M  V30 5 C 0.917711 -0.864919 -0.71179 0
M  V30 6 C -0.420612 -0.322673 -0.400761 0
M  V30 7 C -1.28419 -1.07659 0.356232 0
M  V30 8 C -2.55924 -0.610183 0.679072 0
M  V30 9 N -3.41254 -1.41806 1.45865 0
M  V30 10 C -2.97522 0.633124 0.23536 0
M  V30 11 C -2.07773 1.35416 -0.519939 0
M  V30 12 C -0.818431 0.909922 -0.847066 0
M  V30 13 N 0.0387993 1.74295 -1.64084 0
M  V30 14 I -2.70295 3.24764 -1.19948 0
M  V30 15 H 3.95247 0.093272 1.67868 0
M  V30 16 H 4.70513 0.813178 0.150422 0
M  V30 17 H 5.17303 -0.87043 0.706858 0
M  V30 18 H 0.879927 -1.98136 -0.600797 0
M  V30 19 H 1.06013 -0.716191 -1.81378 0
M  V30 20 H -1.01402 -2.06399 0.735099 0
M  V30 21 H -3.54835 -1.29894 2.48174 0
M  V30 22 H -3.93718 -2.17841 0.981313 0
M  V30 23 H -3.97513 1.01446 0.480841 0
M  V30 24 H 0.142207 1.48464 -2.64518 0
M  V30 25 H 0.490736 2.53883 -1.15609 0
M  V30 END ATOM
M  V30 BEGIN BOND
M  V30 1 1 1 2
M  V30 2 1 2 3
M  V30 3 2 3 4
M  V30 4 1 3 5
M  V30 5 1 5 6
M  V30 6 2 6 7
M  V30 7 1 7 8
M  V30 8 1 8 9
M  V30 9 2 8 10
M  V30 10 1 10 11
M  V30 11 2 11 12
M  V30 12 1 12 13
M  V30 13 1 11 14
M  V30 14 1 12 6
M  V30 15 1 1 15
M  V30 16 1 1 16
M  V30 17 1 1 17
M  V30 18 1 5 18
M  V30 19 1 5 19
M  V30 20 1 7 20
M  V30 21 1 9 21
M  V30 22 1 9 22
M  V30 23 1 10 23
M  V30 24 1 13 24
M  V30 25 1 13 25
M  V30 END BOND
M  V30 END CTAB
M  END
