
     RDKit          3D

  0  0  0  0  0  0  0  0  0  0999 V3000
M  V30 BEGIN CTAB
M  V30 COUNTS 28 28 0 0 0
M  V30 BEGIN ATOM
M  V30 1 C -4.29671 -0.327744 -1.46551 0
M  V30 2 S -2.52992 -0.667895 -1.29274 0
M  V30 3 C -1.77728 0.769025 -0.356378 0
M  V30 4 C -0.812275 0.324975 0.657688 0
M  V30 5 C 0.442195 -0.300935 0.389292 0
M  V30 6 C 1.4722 0.496323 -0.120226 0
M  V30 7 C 2.78369 0.0461398 -0.200931 0
M  V30 8 C 3.87278 0.986558 -0.694443 0
M  V30 9 C 3.0904 -1.24662 0.236091 0
M  V30 10 N 2.0826 -2.00575 0.72461 0
M  V30 11 C 0.817787 -1.56992 0.800886 0
M  V30 12 N -0.185339 -2.4463 1.21002 0
M  V30 13 N -0.390751 1.6722 1.28262 0
M  V30 14 H -4.50465 -0.00495806 -2.49814 0
M  V30 15 H -4.95547 -1.12604 -1.16302 0
M  V30 16 H -4.57606 0.567083 -0.784825 0
M  V30 17 H -2.65467 1.20886 0.15218 0
M  V30 18 H -1.45874 1.53093 -1.09689 0
M  V30 19 H -1.30506 -0.183657 1.53546 0
M  V30 20 H 1.31621 1.50674 -0.505672 0
M  V30 21 H 3.46504 2.00469 -0.484022 0
M  V30 22 H 4.80173 0.736794 -0.217322 0
M  V30 23 H 3.87778 0.866763 -1.82941 0
M  V30 24 H 4.09508 -1.56284 0.176356 0
M  V30 25 H -0.782913 -2.35872 2.09948 0
M  V30 26 H -0.407197 -3.27093 0.620469 0
M  V30 27 H -1.24332 1.99631 1.82963 0
M  V30 28 H -0.237145 2.35892 0.533294 0
M  V30 END ATOM
M  V30 BEGIN BOND
M  V30 1 1 1 2
M  V30 2 1 2 3
M  V30 3 1 3 4
M  V30 4 1 4 5
M  V30 5 2 5 6
M  V30 6 1 6 7
M  V30 7 1 7 8
M  V30 8 2 7 9
M  V30 9 1 9 10
M  V30 10 2 10 11
M  V30 11 1 11 12
M  V30 12 1 4 13
M  V30 13 1 11 5
M  V30 14 1 1 14
M  V30 15 1 1 15
M  V30 16 1 1 16
M  V30 17 1 3 17
M  V30 18 1 3 18
M  V30 19 1 4 19
M  V30 20 1 6 20
M  V30 21 1 8 21
M  V30 22 1 8 22
M  V30 23 1 8 23
M  V30 24 1 9 24
M  V30 25 1 12 25
M  V30 26 1 12 26
M  V30 27 1 13 27
M  V30 28 1 13 28
M  V30 END BOND
M  V30 END CTAB
M  END
