
     RDKit          3D

  0  0  0  0  0  0  0  0  0  0999 V3000
M  V30 BEGIN CTAB
M  V30 COUNTS 26 27 0 0 0
M  V30 BEGIN ATOM
M  V30 1 N -4.0648 -0.401514 0.775424 0
M  V30 2 C -2.75942 -0.383296 0.242055 0
M  V30 3 C -2.238 0.808749 -0.201156 0
M  V30 4 N -2.94313 2.03501 -0.153166 0
M  V30 5 C -0.96089 0.836307 -0.724864 0
M  V30 6 C -0.205745 -0.320048 -0.806718 0
M  V30 7 O 1.06427 -0.367678 -1.31293 0
M  V30 8 C 2.21549 -0.196157 -0.58263 0
M  V30 9 C 3.45823 -0.260451 -1.17574 0
M  V30 10 C 4.61347 -0.0824805 -0.410515 0
M  V30 11 N 4.45963 0.149734 0.90483 0
M  V30 12 C 3.2793 0.221391 1.5268 0
M  V30 13 C 2.1317 0.0457122 0.772802 0
M  V30 14 C -0.762944 -1.50746 -0.349887 0
M  V30 15 C -2.02802 -1.54669 0.171201 0
M  V30 16 H -4.81523 -0.970954 0.293794 0
M  V30 17 H -4.31631 0.128834 1.63105 0
M  V30 18 H -3.01642 2.60348 -1.01771 0
M  V30 19 H -3.39459 2.4 0.705883 0
M  V30 20 H -0.517561 1.77101 -1.08639 0
M  V30 21 H 3.54373 -0.451376 -2.24939 0
M  V30 22 H 5.5862 -0.135065 -0.887252 0
M  V30 23 H 3.18499 0.410695 2.59318 0
M  V30 24 H 1.14726 0.0922035 1.218 0
M  V30 25 H -0.185721 -2.42441 -0.406044 0
M  V30 26 H -2.47548 -2.45554 0.52937 0
M  V30 END ATOM
M  V30 BEGIN BOND
M  V30 1 1 1 2
M  V30 2 2 2 3
M  V30 3 1 3 4
M  V30 4 1 3 5
M  V30 5 2 5 6
M  V30 6 1 6 7
M  V30 7 1 7 8
M  V30 8 2 8 9
M  V30 9 1 9 10
M  V30 10 2 10 11
M  V30 11 1 11 12
M  V30 12 2 12 13
M  V30 13 1 6 14
M  V30 14 2 14 15
M  V30 15 1 15 2
M  V30 16 1 13 8
M  V30 17 1 1 16
M  V30 18 1 1 17
M  V30 19 1 4 18
M  V30 20 1 4 19
M  V30 21 1 5 20
M  V30 22 1 9 21
M  V30 23 1 10 22
M  V30 24 1 12 23
M  V30 25 1 13 24
M  V30 26 1 14 25
M  V30 27 1 15 26
M  V30 END BOND
M  V30 END CTAB
M  END
