
     RDKit          3D

  0  0  0  0  0  0  0  0  0  0999 V3000
M  V30 BEGIN CTAB
M  V30 COUNTS 32 34 0 0 0
M  V30 BEGIN ATOM
M  V30 1 N -6.26593 -0.368545 -0.789987 0
M  V30 2 C -4.92038 -0.217583 -0.292159 0
M  V30 3 N -3.91814 -0.981286 -0.757412 0
M  V30 4 C -2.63872 -0.88394 -0.328156 0
M  V30 5 C -1.66154 -1.80809 -0.946389 0
M  V30 6 O -0.336987 -1.58839 -0.598183 0
M  V30 7 C 0.38091 -0.445923 -0.825317 0
M  V30 8 O -0.220471 0.509913 -1.41477 0
M  V30 9 C 1.77477 -0.269816 -0.433924 0
M  V30 10 C 2.42983 -1.29928 0.203469 0
M  V30 11 C 3.75161 -1.19237 0.599084 0
M  V30 12 Cl 4.59458 -2.48385 1.40575 0
M  V30 13 C 4.39692 -0.0222852 0.336448 0
M  V30 14 C 3.75089 1.01526 -0.301242 0
M  V30 15 C 2.42261 0.913142 -0.700967 0
M  V30 16 O 4.64049 2.05048 -0.427723 0
M  V30 17 C 5.94124 1.58376 -0.175408 0
M  V30 18 O 5.68224 0.407587 0.588276 0
M  V30 19 N -2.37878 0.0211534 0.60386 0
M  V30 20 C -3.35993 0.806886 1.09568 0
M  V30 21 N -4.6315 0.69423 0.653873 0
M  V30 22 N -3.04579 1.76865 2.09602 0
M  V30 23 H -6.871 -1.09001 -0.344402 0
M  V30 24 H -6.64056 0.199041 -1.55302 0
M  V30 25 H -1.83916 -1.85656 -2.04205 0
M  V30 26 H -1.93589 -2.8376 -0.570163 0
M  V30 27 H 1.92369 -2.22409 0.412345 0
M  V30 28 H 1.90758 1.71816 -1.20032 0
M  V30 29 H 6.43052 1.37143 -1.13013 0
M  V30 30 H 6.50917 2.30724 0.445358 0
M  V30 31 H -2.75647 2.74523 1.87592 0
M  V30 32 H -3.11581 1.45745 3.0895 0
M  V30 END ATOM
M  V30 BEGIN BOND
M  V30 1 1 1 2
M  V30 2 2 2 3
M  V30 3 1 3 4
M  V30 4 1 4 5
M  V30 5 1 5 6
M  V30 6 1 6 7
M  V30 7 2 7 8
M  V30 8 1 7 9
M  V30 9 2 9 10
M  V30 10 1 10 11
M  V30 11 1 11 12
M  V30 12 2 11 13
M  V30 13 1 13 14
M  V30 14 2 14 15
M  V30 15 1 14 16
M  V30 16 1 16 17
M  V30 17 1 17 18
M  V30 18 2 4 19
M  V30 19 1 19 20
M  V30 20 2 20 21
M  V30 21 1 20 22
M  V30 22 1 21 2
M  V30 23 1 15 9
M  V30 24 1 18 13
M  V30 25 1 1 23
M  V30 26 1 1 24
M  V30 27 1 5 25
M  V30 28 1 5 26
M  V30 29 1 10 27
M  V30 30 1 15 28
M  V30 31 1 17 29
M  V30 32 1 17 30
M  V30 33 1 22 31
M  V30 34 1 22 32
M  V30 END BOND
M  V30 END CTAB
M  END
