
     RDKit          3D

  0  0  0  0  0  0  0  0  0  0999 V3000
M  V30 BEGIN CTAB
M  V30 COUNTS 22 22 0 0 0
M  V30 BEGIN ATOM
M  V30 1 C 1.61557 1.41512 -0.500769 0
M  V30 2 C 0.707509 0.325093 -0.104587 0
M  V30 3 C -0.667006 0.42593 -0.188226 0
M  V30 4 C -1.23378 1.69916 -0.703426 0
M  V30 5 C -1.47349 -0.642031 0.202614 0
M  V30 6 N -2.88778 -0.495228 0.0997562 0
M  V30 7 C -0.877905 -1.79327 0.671129 0
M  V30 8 C 0.496272 -1.92428 0.766535 0
M  V30 9 C 1.27886 -0.845604 0.37074 0
M  V30 10 N 2.6933 -0.959075 0.460612 0
M  V30 11 H 2.21179 1.68499 0.419114 0
M  V30 12 H 2.29508 1.15663 -1.32436 0
M  V30 13 H 1.04049 2.3164 -0.825497 0
M  V30 14 H -0.988303 1.81218 -1.79542 0
M  V30 15 H -0.924758 2.57191 -0.120742 0
M  V30 16 H -2.34797 1.62021 -0.590401 0
M  V30 17 H -3.346 -0.807293 -0.804664 0
M  V30 18 H -3.47569 -0.0979205 0.871521 0
M  V30 19 H -1.54568 -2.60666 0.967085 0
M  V30 20 H 0.949418 -2.83633 1.13711 0
M  V30 21 H 3.15406 -1.88871 0.564511 0
M  V30 22 H 3.32602 -0.131243 0.427373 0
M  V30 END ATOM
M  V30 BEGIN BOND
M  V30 1 1 1 2
M  V30 2 2 2 3
M  V30 3 1 3 4
M  V30 4 1 3 5
M  V30 5 1 5 6
M  V30 6 2 5 7
M  V30 7 1 7 8
M  V30 8 2 8 9
M  V30 9 1 9 10
M  V30 10 1 9 2
M  V30 11 1 1 11
M  V30 12 1 1 12
M  V30 13 1 1 13
M  V30 14 1 4 14
M  V30 15 1 4 15
M  V30 16 1 4 16
M  V30 17 1 6 17
M  V30 18 1 6 18
M  V30 19 1 7 19
M  V30 20 1 8 20
M  V30 21 1 10 21
M  V30 22 1 10 22
M  V30 END BOND
M  V30 END CTAB
M  END
