
     RDKit          3D

  0  0  0  0  0  0  0  0  0  0999 V3000
M  V30 BEGIN CTAB
M  V30 COUNTS 49 49 0 0 0
M  V30 BEGIN ATOM
M  V30 1 N -4.28307 -1.05143 1.40032 0
M  V30 2 C -3.93783 -0.385303 0.179037 0
M  V30 3 C -4.68938 0.919972 0.0343062 0
M  V30 4 C -4.33466 1.61914 -1.2355 0
M  V30 5 C -6.17945 0.614716 0.0558621 0
M  V30 6 C -2.45081 -0.167039 0.0127561 0
M  V30 7 C -1.68931 -1.46443 0.00928042 0
M  V30 8 N -0.273133 -1.13586 -0.156133 0
M  V30 9 C 0.507545 -0.913683 0.97226 0
M  V30 10 O -0.0863814 -1.01963 2.10278 0
M  V30 11 C 1.94639 -0.567672 1.02901 0
M  V30 12 C 2.85127 -1.56424 0.379525 0
M  V30 13 C 4.25811 -0.94646 0.430459 0
M  V30 14 N 4.19819 0.143571 -0.537388 0
M  V30 15 C 3.35293 1.20708 -0.114972 0
M  V30 16 C 2.12355 0.849016 0.626865 0
M  V30 17 S 5.7933 0.762677 -0.766455 0
M  V30 18 O 5.86284 1.75711 -1.86236 0
M  V30 19 O 6.69475 -0.39791 -1.164 0
M  V30 20 N 6.4408 1.39847 0.698599 0
M  V30 21 C 0.271208 -1.05515 -1.48696 0
M  V30 22 H -3.77495 -0.675928 2.23307 0
M  V30 23 H -4.15032 -2.08744 1.29858 0
M  V30 24 H -4.30717 -1.04186 -0.661035 0
M  V30 25 H -4.45012 1.61019 0.88976 0
M  V30 26 H -4.35563 0.922298 -2.10514 0
M  V30 27 H -3.40085 2.21089 -1.18636 0
M  V30 28 H -5.14502 2.3739 -1.45417 0
M  V30 29 H -6.75249 1.53282 0.273236 0
M  V30 30 H -6.4805 0.213875 -0.922365 0
M  V30 31 H -6.32061 -0.165211 0.833106 0
M  V30 32 H -2.3014 0.353932 -0.95255 0
M  V30 33 H -2.10809 0.418793 0.879467 0
M  V30 34 H -2.05747 -2.07065 -0.843237 0
M  V30 35 H -1.88551 -1.96869 0.971682 0
M  V30 36 H 2.23704 -0.615817 2.13324 0
M  V30 37 H 2.91056 -2.46166 1.02971 0
M  V30 38 H 2.67316 -1.79786 -0.660464 0
M  V30 39 H 4.39201 -0.498609 1.43363 0
M  V30 40 H 5.03101 -1.65837 0.141876 0
M  V30 41 H 3.04125 1.75301 -1.05672 0
M  V30 42 H 3.99568 1.95489 0.410539 0
M  V30 43 H 1.19383 1.2473 0.111996 0
M  V30 44 H 2.13505 1.48175 1.57264 0
M  V30 45 H 5.88239 1.07434 1.53346 0
M  V30 46 H 6.46083 2.44359 0.71157 0
M  V30 47 H -0.528645 -0.7458 -2.23147 0
M  V30 48 H 1.0703 -0.335551 -1.62744 0
M  V30 49 H 0.618827 -2.07106 -1.84464 0
M  V30 END ATOM
M  V30 BEGIN BOND
M  V30 1 1 1 2
M  V30 2 1 2 3
M  V30 3 1 3 4
M  V30 4 1 3 5
M  V30 5 1 2 6
M  V30 6 1 6 7
M  V30 7 1 7 8
M  V30 8 1 8 9
M  V30 9 2 9 10
M  V30 10 1 9 11
M  V30 11 1 11 12
M  V30 12 1 12 13
M  V30 13 1 13 14
M  V30 14 1 14 15
M  V30 15 1 15 16
M  V30 16 1 14 17
M  V30 17 2 17 18
M  V30 18 2 17 19
M  V30 19 1 17 20
M  V30 20 1 8 21
M  V30 21 1 16 11
M  V30 22 1 1 22
M  V30 23 1 1 23
M  V30 24 1 2 24
M  V30 25 1 3 25
M  V30 26 1 4 26
M  V30 27 1 4 27
M  V30 28 1 4 28
M  V30 29 1 5 29
M  V30 30 1 5 30
M  V30 31 1 5 31
M  V30 32 1 6 32
M  V30 33 1 6 33
M  V30 34 1 7 34
M  V30 35 1 7 35
M  V30 36 1 11 36
M  V30 37 1 12 37
M  V30 38 1 12 38
M  V30 39 1 13 39
M  V30 40 1 13 40
M  V30 41 1 15 41
M  V30 42 1 15 42
M  V30 43 1 16 43
M  V30 44 1 16 44
M  V30 45 1 20 45
M  V30 46 1 20 46
M  V30 47 1 21 47
M  V30 48 1 21 48
M  V30 49 1 21 49
M  V30 END BOND
M  V30 END CTAB
M  END
