
     RDKit          3D

  0  0  0  0  0  0  0  0  0  0999 V3000
M  V30 BEGIN CTAB
M  V30 COUNTS 38 38 0 0 0
M  V30 BEGIN ATOM
M  V30 1 N 3.00014 -2.24398 0.731105 0
M  V30 2 C 3.05856 -1.16238 -0.216388 0
M  V30 3 C 2.18952 0.0243036 0.222198 0
M  V30 4 C 2.32599 1.07581 -0.825054 0
M  V30 5 C 1.39907 2.21417 -0.482315 0
M  V30 6 C -0.018078 1.66319 -0.562973 0
M  V30 7 C -0.255297 0.554832 0.41319 0
M  V30 8 C 0.810569 -0.482483 0.438701 0
M  V30 9 O -0.263943 1.15535 1.69713 0
M  V30 10 C -1.62935 -0.00344991 0.193249 0
M  V30 11 C -1.8347 -0.560834 -1.19473 0
M  V30 12 N -3.22208 -1.05864 -1.2268 0
M  V30 13 C -1.86485 -1.17559 1.15774 0
M  V30 14 C -2.73285 0.976247 0.431603 0
M  V30 15 H 2.01357 -2.4861 0.906593 0
M  V30 16 H 3.51162 -1.96153 1.59396 0
M  V30 17 H 4.09768 -0.842847 -0.418758 0
M  V30 18 H 2.67517 -1.54787 -1.20556 0
M  V30 19 H 2.67668 0.40597 1.14972 0
M  V30 20 H 2.10422 0.667768 -1.83116 0
M  V30 21 H 3.35274 1.44745 -0.824738 0
M  V30 22 H 1.61343 2.52901 0.543098 0
M  V30 23 H 1.46301 3.02312 -1.22522 0
M  V30 24 H -0.171013 1.36674 -1.61161 0
M  V30 25 H -0.670713 2.51817 -0.26174 0
M  V30 26 H 0.787937 -0.953499 1.46574 0
M  V30 27 H 0.636334 -1.32639 -0.259213 0
M  V30 28 H -0.0170303 0.457089 2.34923 0
M  V30 29 H -1.20135 -1.44831 -1.3339 0
M  V30 30 H -1.78111 0.178719 -1.99082 0
M  V30 31 H -3.85624 -0.305156 -1.57501 0
M  V30 32 H -3.27003 -1.83019 -1.92997 0
M  V30 33 H -1.38815 -2.10353 0.783283 0
M  V30 34 H -1.49667 -0.940318 2.17137 0
M  V30 35 H -2.94369 -1.39739 1.25536 0
M  V30 36 H -3.65389 0.377037 0.662352 0
M  V30 37 H -2.58067 1.62582 1.31243 0
M  V30 38 H -2.86454 1.5697 -0.502077 0
M  V30 END ATOM
M  V30 BEGIN BOND
M  V30 1 1 1 2
M  V30 2 1 2 3
M  V30 3 1 3 4
M  V30 4 1 4 5
M  V30 5 1 5 6
M  V30 6 1 6 7
M  V30 7 1 7 8
M  V30 8 1 7 9
M  V30 9 1 7 10
M  V30 10 1 10 11
M  V30 11 1 11 12
M  V30 12 1 10 13
M  V30 13 1 10 14
M  V30 14 1 8 3
M  V30 15 1 1 15
M  V30 16 1 1 16
M  V30 17 1 2 17
M  V30 18 1 2 18
M  V30 19 1 3 19
M  V30 20 1 4 20
M  V30 21 1 4 21
M  V30 22 1 5 22
M  V30 23 1 5 23
M  V30 24 1 6 24
M  V30 25 1 6 25
M  V30 26 1 8 26
M  V30 27 1 8 27
M  V30 28 1 9 28
M  V30 29 1 11 29
M  V30 30 1 11 30
M  V30 31 1 12 31
M  V30 32 1 12 32
M  V30 33 1 13 33
M  V30 34 1 13 34
M  V30 35 1 13 35
M  V30 36 1 14 36
M  V30 37 1 14 37
M  V30 38 1 14 38
M  V30 END BOND
M  V30 END CTAB
M  END
