
     RDKit          3D

  0  0  0  0  0  0  0  0  0  0999 V3000
M  V30 BEGIN CTAB
M  V30 COUNTS 34 37 0 0 0
M  V30 BEGIN ATOM
M  V30 1 N -0.0687031 -2.64929 0.796027 0
M  V30 2 C -0.0349737 -1.40782 0.123782 0
M  V30 3 C -0.0259044 -1.55593 -1.39687 0
M  V30 4 C 0.00205749 -0.217407 -2.06082 0
M  V30 5 C 0.0580589 0.934055 -1.04518 0
M  V30 6 N 0.0577991 2.14705 -1.75028 0
M  V30 7 C 1.21141 0.652369 -0.179822 0
M  V30 8 C 1.1755 -0.599855 0.452735 0
M  V30 9 C 2.17932 -0.996466 1.28448 0
M  V30 10 C 3.23298 -0.128128 1.48575 0
M  V30 11 C 3.29867 1.1201 0.873881 0
M  V30 12 C 2.27071 1.49818 0.0367915 0
M  V30 13 C -1.16305 0.730376 -0.188904 0
M  V30 14 C -1.20373 -0.519598 0.428986 0
M  V30 15 C -2.2367 -0.866289 1.23563 0
M  V30 16 C -3.24719 0.0745885 1.41788 0
M  V30 17 C -3.20769 1.31902 0.80337 0
M  V30 18 C -2.13917 1.65559 -0.0205807 0
M  V30 19 H 0.154328 -2.55335 1.78821 0
M  V30 20 H -0.918315 -3.16921 0.567572 0
M  V30 21 H -0.940898 -2.12289 -1.65855 0
M  V30 22 H 0.86325 -2.17323 -1.68279 0
M  V30 23 H 0.936243 -0.150328 -2.6824 0
M  V30 24 H -0.886797 -0.113917 -2.69912 0
M  V30 25 H 0.962674 2.56054 -1.98015 0
M  V30 26 H -0.515402 2.06483 -2.63859 0
M  V30 27 H 2.10786 -1.96999 1.74905 0
M  V30 28 H 4.02038 -0.455589 2.14673 0
M  V30 29 H 4.15233 1.77967 1.05995 0
M  V30 30 H 2.29563 2.46091 -0.450592 0
M  V30 31 H -2.24537 -1.83897 1.70212 0
M  V30 32 H -4.08851 -0.16272 2.05348 0
M  V30 33 H -3.99882 2.04566 0.950818 0
M  V30 34 H -2.05797 2.60803 -0.522603 0
M  V30 END ATOM
M  V30 BEGIN BOND
M  V30 1 1 1 2
M  V30 2 1 2 3
M  V30 3 1 3 4
M  V30 4 1 4 5
M  V30 5 1 5 6
M  V30 6 1 5 7
M  V30 7 2 7 8
M  V30 8 1 8 9
M  V30 9 2 9 10
M  V30 10 1 10 11
M  V30 11 2 11 12
M  V30 12 1 5 13
M  V30 13 2 13 14
M  V30 14 1 14 15
M  V30 15 2 15 16
M  V30 16 1 16 17
M  V30 17 2 17 18
M  V30 18 1 8 2
M  V30 19 1 18 13
M  V30 20 1 14 2
M  V30 21 1 12 7
M  V30 22 1 1 19
M  V30 23 1 1 20
M  V30 24 1 3 21
M  V30 25 1 3 22
M  V30 26 1 4 23
M  V30 27 1 4 24
M  V30 28 1 6 25
M  V30 29 1 6 26
M  V30 30 1 9 27
M  V30 31 1 10 28
M  V30 32 1 11 29
M  V30 33 1 12 30
M  V30 34 1 15 31
M  V30 35 1 16 32
M  V30 36 1 17 33
M  V30 37 1 18 34
M  V30 END BOND
M  V30 END CTAB
M  END
