
     RDKit          3D

  0  0  0  0  0  0  0  0  0  0999 V3000
M  V30 BEGIN CTAB
M  V30 COUNTS 28 30 0 0 0
M  V30 BEGIN ATOM
M  V30 1 N 3.14899 1.9918 -0.00170838 0
M  V30 2 C 2.76363 0.638943 0.138763 0
M  V30 3 C 1.42347 0.322322 0.0731696 0
M  V30 4 C 0.38853 1.32977 -0.135586 0
M  V30 5 O 0.710102 2.53354 -0.26227 0
M  V30 6 C -1.03805 0.988274 -0.204843 0
M  V30 7 C -1.41169 -0.327971 -0.0680581 0
M  V30 8 C -2.76704 -0.625381 -0.137278 0
M  V30 9 N -3.16433 -1.98265 0.00284428 0
M  V30 10 C -3.72037 0.352817 -0.335911 0
M  V30 11 Br -5.58463 -0.109007 -0.424455 0
M  V30 12 C -3.34913 1.6743 -0.473545 0
M  V30 13 C -2.00301 1.96959 -0.404786 0
M  V30 14 Br -1.46997 3.77387 -0.590647 0
M  V30 15 C -0.393758 -1.35192 0.141439 0
M  V30 16 O -0.731547 -2.55255 0.266446 0
M  V30 17 C 1.03169 -1.00124 0.209447 0
M  V30 18 C 2.00455 -1.96155 0.407361 0
M  V30 19 Br 1.50835 -3.79077 0.59929 0
M  V30 20 C 3.34532 -1.64475 0.472979 0
M  V30 21 C 3.72945 -0.335198 0.337867 0
M  V30 22 Br 5.59111 0.10479 0.428973 0
M  V30 23 H 3.01372 2.7187 0.721073 0
M  V30 24 H 3.60562 2.25251 -0.920377 0
M  V30 25 H -3.51532 -2.56741 -0.781909 0
M  V30 26 H -3.09889 -2.40876 0.940585 0
M  V30 27 H -4.12114 2.4163 -0.628067 0
M  V30 28 H 4.10433 -2.40837 0.629202 0
M  V30 END ATOM
M  V30 BEGIN BOND
M  V30 1 1 1 2
M  V30 2 2 2 3
M  V30 3 1 3 4
M  V30 4 2 4 5
M  V30 5 1 4 6
M  V30 6 2 6 7
M  V30 7 1 7 8
M  V30 8 1 8 9
M  V30 9 2 8 10
M  V30 10 1 10 11
M  V30 11 1 10 12
M  V30 12 2 12 13
M  V30 13 1 13 14
M  V30 14 1 7 15
M  V30 15 2 15 16
M  V30 16 1 15 17
M  V30 17 2 17 18
M  V30 18 1 18 19
M  V30 19 1 18 20
M  V30 20 2 20 21
M  V30 21 1 21 22
M  V30 22 1 21 2
M  V30 23 1 17 3
M  V30 24 1 13 6
M  V30 25 1 1 23
M  V30 26 1 1 24
M  V30 27 1 9 25
M  V30 28 1 9 26
M  V30 29 1 12 27
M  V30 30 1 20 28
M  V30 END BOND
M  V30 END CTAB
M  END
