
     RDKit          3D

  0  0  0  0  0  0  0  0  0  0999 V3000
M  V30 BEGIN CTAB
M  V30 COUNTS 40 43 0 0 0
M  V30 BEGIN ATOM
M  V30 1 N 5.27367 2.02923 -0.299754 0
M  V30 2 C 5.1123 0.622371 -0.339912 0
M  V30 3 N 6.26752 -0.172519 -0.783456 0
M  V30 4 N 4.11669 -0.063855 -0.0358341 0
M  V30 5 C 2.85107 0.157799 0.424375 0
M  V30 6 O 2.72189 0.311599 1.69885 0
M  V30 7 C 1.66597 0.217964 -0.424495 0
M  V30 8 C 0.412669 -0.252205 0.00358563 0
M  V30 9 C 0.231453 -0.772967 1.36778 0
M  V30 10 C 0.564773 -2.1273 1.8429 0
M  V30 11 C -0.818336 -1.9802 1.34193 0
M  V30 12 N -0.484176 -0.0508491 -0.9617 0
M  V30 13 N 0.166401 0.5328 -1.99739 0
M  V30 14 C 1.46886 0.6994 -1.68139 0
M  V30 15 C -1.88575 -0.282763 -1.01338 0
M  V30 16 C -2.44078 -1.24598 -1.81633 0
M  V30 17 Cl -1.45585 -2.22218 -2.90493 0
M  V30 18 C -3.79998 -1.50805 -1.81302 0
M  V30 19 C -4.6272 -0.776865 -0.970926 0
M  V30 20 C -4.09448 0.186389 -0.168676 0
M  V30 21 N -4.92068 0.89355 0.634106 0
M  V30 22 C -4.48166 1.87281 1.44585 0
M  V30 23 C -3.15868 2.18851 1.48153 0
M  V30 24 C -2.30189 1.45233 0.649271 0
M  V30 25 C -2.72097 0.447485 -0.182478 0
M  V30 26 H 4.46727 2.65054 -0.467907 0
M  V30 27 H 6.20378 2.42676 -0.104977 0
M  V30 28 H 6.99308 -0.465374 -0.136153 0
M  V30 29 H 6.27495 -0.405154 -1.78402 0
M  V30 30 H -0.0550608 -0.0294794 2.1222 0
M  V30 31 H 0.771134 -2.21743 2.9458 0
M  V30 32 H 1.22864 -2.80473 1.2651 0
M  V30 33 H -1.63285 -1.93606 2.0468 0
M  V30 34 H -1.03017 -2.41928 0.340829 0
M  V30 35 H 2.20057 1.13951 -2.33886 0
M  V30 36 H -4.26671 -2.25442 -2.42408 0
M  V30 37 H -5.70425 -0.978987 -0.944392 0
M  V30 38 H -5.14436 2.44899 2.10055 0
M  V30 39 H -2.71848 2.96297 2.09634 0
M  V30 40 H -1.25037 1.72565 0.641664 0
M  V30 END ATOM
M  V30 BEGIN BOND
M  V30 1 1 1 2
M  V30 2 1 2 3
M  V30 3 2 2 4
M  V30 4 1 4 5
M  V30 5 2 5 6
M  V30 6 1 5 7
M  V30 7 2 7 8
M  V30 8 1 8 9
M  V30 9 1 9 10
M  V30 10 1 10 11
M  V30 11 1 8 12
M  V30 12 1 12 13
M  V30 13 2 13 14
M  V30 14 1 12 15
M  V30 15 2 15 16
M  V30 16 1 16 17
M  V30 17 1 16 18
M  V30 18 2 18 19
M  V30 19 1 19 20
M  V30 20 2 20 21
M  V30 21 1 21 22
M  V30 22 2 22 23
M  V30 23 1 23 24
M  V30 24 2 24 25
M  V30 25 1 14 7
M  V30 26 1 25 15
M  V30 27 1 11 9
M  V30 28 1 25 20
M  V30 29 1 1 26
M  V30 30 1 1 27
M  V30 31 1 3 28
M  V30 32 1 3 29
M  V30 33 1 9 30
M  V30 34 1 10 31
M  V30 35 1 10 32
M  V30 36 1 11 33
M  V30 37 1 11 34
M  V30 38 1 14 35
M  V30 39 1 18 36
M  V30 40 1 19 37
M  V30 41 1 22 38
M  V30 42 1 23 39
M  V30 43 1 24 40
M  V30 END BOND
M  V30 END CTAB
M  END
