
     RDKit          3D

  0  0  0  0  0  0  0  0  0  0999 V3000
M  V30 BEGIN CTAB
M  V30 COUNTS 31 32 0 0 0
M  V30 BEGIN ATOM
M  V30 1 N 0.483239 2.08792 0.363294 0
M  V30 2 C 0.18408 0.763889 -0.231401 0
M  V30 3 C 1.31953 -0.0884767 0.189349 0
M  V30 4 C 1.2534 -1.00283 1.21131 0
M  V30 5 N 2.32625 -1.76465 1.58177 0
M  V30 6 C 3.50697 -1.65115 0.955374 0
M  V30 7 C 3.62644 -0.746897 -0.0773502 0
M  V30 8 C 2.54958 0.0246805 -0.456867 0
M  V30 9 N 2.71319 0.96005 -1.54148 0
M  V30 10 C -1.14726 0.384954 0.309298 0
M  V30 11 C -1.69433 -0.922216 -0.155321 0
M  V30 12 C -3.07069 -1.28388 0.408212 0
M  V30 13 C -2.79833 -1.12796 -1.07613 0
M  V30 14 C -2.19426 1.43558 0.144832 0
M  V30 15 H 0.531135 2.82592 -0.338344 0
M  V30 16 H -0.0857298 2.274 1.19175 0
M  V30 17 H 0.212653 0.879975 -1.31207 0
M  V30 18 H 0.363832 -1.18053 1.7978 0
M  V30 19 H 4.3768 -2.25819 1.24223 0
M  V30 20 H 4.56795 -0.629578 -0.605659 0
M  V30 21 H 3.24432 1.82179 -1.35418 0
M  V30 22 H 2.30636 0.753422 -2.46376 0
M  V30 23 H -0.994146 0.259818 1.4302 0
M  V30 24 H -0.976782 -1.77232 -0.0289676 0
M  V30 25 H -3.24712 -2.26588 0.856805 0
M  V30 26 H -3.69921 -0.467024 0.814014 0
M  V30 27 H -3.32098 -0.38229 -1.67353 0
M  V30 28 H -2.83778 -2.13793 -1.58962 0
M  V30 29 H -2.86507 1.41592 1.05489 0
M  V30 30 H -1.78938 2.46672 0.0989418 0
M  V30 31 H -2.84468 1.32716 -0.745383 0
M  V30 END ATOM
M  V30 BEGIN BOND
M  V30 1 1 1 2
M  V30 2 1 2 3
M  V30 3 2 3 4
M  V30 4 1 4 5
M  V30 5 2 5 6
M  V30 6 1 6 7
M  V30 7 2 7 8
M  V30 8 1 8 9
M  V30 9 1 2 10
M  V30 10 1 10 11
M  V30 11 1 11 12
M  V30 12 1 12 13
M  V30 13 1 10 14
M  V30 14 1 8 3
M  V30 15 1 13 11
M  V30 16 1 1 15
M  V30 17 1 1 16
M  V30 18 1 2 17
M  V30 19 1 4 18
M  V30 20 1 6 19
M  V30 21 1 7 20
M  V30 22 1 9 21
M  V30 23 1 9 22
M  V30 24 1 10 23
M  V30 25 1 11 24
M  V30 26 1 12 25
M  V30 27 1 12 26
M  V30 28 1 13 27
M  V30 29 1 13 28
M  V30 30 1 14 29
M  V30 31 1 14 30
M  V30 32 1 14 31
M  V30 END BOND
M  V30 END CTAB
M  END
