
     RDKit          3D

  0  0  0  0  0  0  0  0  0  0999 V3000
M  V30 BEGIN CTAB
M  V30 COUNTS 32 33 0 0 0
M  V30 BEGIN ATOM
M  V30 1 C 5.16321 1.12139 -0.647113 0
M  V30 2 C 4.25665 0.409347 -1.61755 0
M  V30 3 O 2.97884 0.184816 -1.06543 0
M  V30 4 C 2.8048 -0.563492 0.0772715 0
M  V30 5 O 3.82409 -1.04808 0.624019 0
M  V30 6 C 1.44689 -0.781531 0.633387 0
M  V30 7 C 0.333792 -0.269446 0.0617434 0
M  V30 8 C -0.857368 -0.5422 0.670752 0
M  V30 9 S -0.399172 -1.49525 2.01005 0
M  V30 10 C 1.2811 -1.52377 1.76565 0
M  V30 11 N 2.28574 -2.17391 2.56116 0
M  V30 12 C -2.21667 -0.110944 0.261365 0
M  V30 13 C -2.35397 0.661894 -0.86463 0
M  V30 14 C -3.62171 1.08491 -1.27738 0
M  V30 15 C -4.73969 0.725513 -0.552023 0
M  V30 16 C -4.56376 -0.0521568 0.574568 0
M  V30 17 C -3.31214 -0.475794 0.990996 0
M  V30 18 N -6.04453 1.14215 -0.948946 0
M  V30 19 H 4.55739 1.6809 0.102052 0
M  V30 20 H 5.77727 1.84936 -1.21935 0
M  V30 21 H 5.79573 0.408779 -0.0770055 0
M  V30 22 H 4.67231 -0.599974 -1.86721 0
M  V30 23 H 4.13665 1.0225 -2.5347 0
M  V30 24 H 0.327369 0.35806 -0.870482 0
M  V30 25 H 2.36188 -2.01467 3.58931 0
M  V30 26 H 2.97429 -2.82994 2.12951 0
M  V30 27 H -1.50741 0.960358 -1.45302 0
M  V30 28 H -3.7192 1.69491 -2.16801 0
M  V30 29 H -5.41955 -0.336785 1.14396 0
M  V30 30 H -3.15753 -1.08643 1.87281 0
M  V30 31 H -6.23687 1.33828 -1.94869 0
M  V30 32 H -6.82845 1.26119 -0.270321 0
M  V30 END ATOM
M  V30 BEGIN BOND
M  V30 1 1 1 2
M  V30 2 1 2 3
M  V30 3 1 3 4
M  V30 4 2 4 5
M  V30 5 1 4 6
M  V30 6 1 6 7
M  V30 7 2 7 8
M  V30 8 1 8 9
M  V30 9 1 9 10
M  V30 10 1 10 11
M  V30 11 1 8 12
M  V30 12 2 12 13
M  V30 13 1 13 14
M  V30 14 2 14 15
M  V30 15 1 15 16
M  V30 16 2 16 17
M  V30 17 1 15 18
M  V30 18 2 10 6
M  V30 19 1 17 12
M  V30 20 1 1 19
M  V30 21 1 1 20
M  V30 22 1 1 21
M  V30 23 1 2 22
M  V30 24 1 2 23
M  V30 25 1 7 24
M  V30 26 1 11 25
M  V30 27 1 11 26
M  V30 28 1 13 27
M  V30 29 1 14 28
M  V30 30 1 16 29
M  V30 31 1 17 30
M  V30 32 1 18 31
M  V30 33 1 18 32
M  V30 END BOND
M  V30 END CTAB
M  END
