
     RDKit          3D

  0  0  0  0  0  0  0  0  0  0999 V3000
M  V30 BEGIN CTAB
M  V30 COUNTS 33 33 0 0 0
M  V30 BEGIN ATOM
M  V30 1 C -2.61082 0.317282 2.33232 0
M  V30 2 C -1.97322 1.09248 1.21519 0
M  V30 3 N -1.56271 0.283569 0.0771442 0
M  V30 4 C -0.161527 0.109758 -0.131767 0
M  V30 5 C 0.652206 -0.28353 0.927533 0
M  V30 6 C 2.00543 -0.488898 0.787008 0
M  V30 7 C 2.61558 -0.31132 -0.41984 0
M  V30 8 C 1.82624 0.0785414 -1.47958 0
M  V30 9 C 0.449487 0.287518 -1.33654 0
M  V30 10 N -0.28552 0.698988 -2.45823 0
M  V30 11 S 4.34492 -0.589086 -0.556911 0
M  V30 12 O 4.63774 -0.927328 -2.0074 0
M  V30 13 O 4.77664 -1.72976 0.277436 0
M  V30 14 N 5.25089 0.813592 -0.139444 0
M  V30 15 C -2.58943 -0.306586 -0.750803 0
M  V30 16 C -3.39103 -1.38361 -0.113389 0
M  V30 17 H -2.56052 0.905069 3.30102 0
M  V30 18 H -3.65682 0.0366792 2.1596 0
M  V30 19 H -2.03519 -0.619732 2.48115 0
M  V30 20 H -2.75031 1.8505 0.88705 0
M  V30 21 H -1.10311 1.67998 1.61347 0
M  V30 22 H 0.265594 -0.450089 1.92751 0
M  V30 23 H 2.6142 -0.792431 1.62674 0
M  V30 24 H 2.29835 0.228626 -2.46293 0
M  V30 25 H -0.751968 1.61717 -2.47335 0
M  V30 26 H -0.359693 0.0752987 -3.27728 0
M  V30 27 H 4.64653 1.64178 -0.00168841 0
M  V30 28 H 5.88524 0.610988 0.664773 0
M  V30 29 H -3.32248 0.51123 -1.03489 0
M  V30 30 H -2.17092 -0.750516 -1.69998 0
M  V30 31 H -3.63239 -2.19805 -0.870111 0
M  V30 32 H -2.93753 -1.9101 0.718949 0
M  V30 33 H -4.41386 -1.05355 0.217259 0
M  V30 END ATOM
M  V30 BEGIN BOND
M  V30 1 1 1 2
M  V30 2 1 2 3
M  V30 3 1 3 4
M  V30 4 2 4 5
M  V30 5 1 5 6
M  V30 6 2 6 7
M  V30 7 1 7 8
M  V30 8 2 8 9
M  V30 9 1 9 10
M  V30 10 1 7 11
M  V30 11 2 11 12
M  V30 12 2 11 13
M  V30 13 1 11 14
M  V30 14 1 3 15
M  V30 15 1 15 16
M  V30 16 1 9 4
M  V30 17 1 1 17
M  V30 18 1 1 18
M  V30 19 1 1 19
M  V30 20 1 2 20
M  V30 21 1 2 21
M  V30 22 1 5 22
M  V30 23 1 6 23
M  V30 24 1 8 24
M  V30 25 1 10 25
M  V30 26 1 10 26
M  V30 27 1 14 27
M  V30 28 1 14 28
M  V30 29 1 15 29
M  V30 30 1 15 30
M  V30 31 1 16 31
M  V30 32 1 16 32
M  V30 33 1 16 33
M  V30 END BOND
M  V30 END CTAB
M  END
