
     RDKit          3D

  0  0  0  0  0  0  0  0  0  0999 V3000
M  V30 BEGIN CTAB
M  V30 COUNTS 28 29 0 0 0
M  V30 BEGIN ATOM
M  V30 1 N -5.21097 0.209773 0.292559 0
M  V30 2 C -3.78656 0.039241 0.220043 0
M  V30 3 C -3.01915 1.1711 -0.00400782 0
M  V30 4 C -1.6637 1.02739 -0.0749174 0
M  V30 5 C -1.03363 -0.207518 0.0689164 0
M  V30 6 C -1.83628 -1.29642 0.288643 0
M  V30 7 C -3.20026 -1.18009 0.364392 0
M  V30 8 C 0.421796 -0.291135 -0.0174278 0
M  V30 9 C 1.06469 -1.39996 -0.500448 0
M  V30 10 C 2.43334 -1.50508 -0.592563 0
M  V30 11 C 3.20677 -0.421204 -0.170091 0
M  V30 12 N 4.61795 -0.453626 -0.233909 0
M  V30 13 C 2.59853 0.72358 0.326727 0
M  V30 14 C 1.21043 0.764861 0.392988 0
M  V30 15 N 3.40202 1.80107 0.745345 0 CHG=1
M  V30 16 O 2.98699 2.60223 1.76067 0 CHG=-1
M  V30 17 O 4.4812 2.01866 0.191869 0
M  V30 18 H -5.68381 0.378156 1.19844 0
M  V30 19 H -5.74963 0.159155 -0.593371 0
M  V30 20 H -3.44231 2.15526 -0.124052 0
M  V30 21 H -1.00304 1.88016 -0.24914 0
M  V30 22 H -1.3777 -2.28436 0.407423 0
M  V30 23 H -3.85693 -2.02674 0.537557 0
M  V30 24 H 0.469351 -2.22921 -0.823624 0
M  V30 25 H 2.95782 -2.37109 -0.970474 0
M  V30 26 H 5.19163 -0.386895 0.620575 0
M  V30 27 H 5.07987 -0.545562 -1.15441 0
M  V30 28 H 0.741587 1.66827 0.783345 0
M  V30 END ATOM
M  V30 BEGIN BOND
M  V30 1 1 1 2
M  V30 2 2 2 3
M  V30 3 1 3 4
M  V30 4 2 4 5
M  V30 5 1 5 6
M  V30 6 2 6 7
M  V30 7 1 5 8
M  V30 8 2 8 9
M  V30 9 1 9 10
M  V30 10 2 10 11
M  V30 11 1 11 12
M  V30 12 1 11 13
M  V30 13 2 13 14
M  V30 14 1 13 15
M  V30 15 1 15 16
M  V30 16 2 15 17
M  V30 17 1 7 2
M  V30 18 1 14 8
M  V30 19 1 1 18
M  V30 20 1 1 19
M  V30 21 1 3 20
M  V30 22 1 4 21
M  V30 23 1 6 22
M  V30 24 1 7 23
M  V30 25 1 9 24
M  V30 26 1 10 25
M  V30 27 1 12 26
M  V30 28 1 12 27
M  V30 29 1 14 28
M  V30 END BOND
M  V30 END CTAB
M  END
