
     RDKit          3D

  0  0  0  0  0  0  0  0  0  0999 V3000
M  V30 BEGIN CTAB
M  V30 COUNTS 31 33 0 0 0
M  V30 BEGIN ATOM
M  V30 1 N 5.89229 1.07632 -0.902062 0
M  V30 2 C 4.81971 0.367201 -0.29428 0
M  V30 3 C 3.50376 0.627624 -0.583004 0
M  V30 4 C 2.45667 -0.0535929 0.000207365 0
M  V30 5 C 2.77381 -1.03744 0.912613 0
M  V30 6 C 4.07635 -1.346 1.24488 0
M  V30 7 C 5.0877 -0.62444 0.623382 0
M  V30 8 C 1.06207 0.253724 -0.334466 0
M  V30 9 N 0.695519 1.20058 -1.21491 0
M  V30 10 N -0.624121 1.22723 -1.2899 0
M  V30 11 C -1.08912 0.288525 -0.448808 0
M  V30 12 O -0.0305111 -0.271585 0.1043 0
M  V30 13 C -2.49884 -0.0405494 -0.201763 0
M  V30 14 C -3.47371 0.650831 -0.871697 0
M  V30 15 C -4.79995 0.381148 -0.675834 0
M  V30 16 N -5.81657 1.08754 -1.36111 0
M  V30 17 C -5.1441 -0.604668 0.212883 0
M  V30 18 C -4.16122 -1.29614 0.883206 0
M  V30 19 C -2.80738 -1.02688 0.688796 0
M  V30 20 H 6.82788 0.651106 -1.02337 0
M  V30 21 H 5.78388 2.06646 -1.25655 0
M  V30 22 H 3.31466 1.41602 -1.31167 0
M  V30 23 H 1.99713 -1.61421 1.41062 0
M  V30 24 H 4.31645 -2.12203 1.96417 0
M  V30 25 H 6.0945 -0.882056 0.897702 0
M  V30 26 H -3.23126 1.44705 -1.59086 0
M  V30 27 H -6.58745 1.52207 -0.825879 0
M  V30 28 H -5.83876 1.20066 -2.39556 0
M  V30 29 H -6.16694 -0.8821 0.427462 0
M  V30 30 H -4.38592 -2.08589 1.59711 0
M  V30 31 H -2.04653 -1.57652 1.22085 0
M  V30 END ATOM
M  V30 BEGIN BOND
M  V30 1 1 1 2
M  V30 2 2 2 3
M  V30 3 1 3 4
M  V30 4 2 4 5
M  V30 5 1 5 6
M  V30 6 2 6 7
M  V30 7 1 4 8
M  V30 8 2 8 9
M  V30 9 1 9 10
M  V30 10 2 10 11
M  V30 11 1 11 12
M  V30 12 1 11 13
M  V30 13 2 13 14
M  V30 14 1 14 15
M  V30 15 1 15 16
M  V30 16 2 15 17
M  V30 17 1 17 18
M  V30 18 2 18 19
M  V30 19 1 7 2
M  V30 20 1 12 8
M  V30 21 1 19 13
M  V30 22 1 1 20
M  V30 23 1 1 21
M  V30 24 1 3 22
M  V30 25 1 5 23
M  V30 26 1 6 24
M  V30 27 1 7 25
M  V30 28 1 14 26
M  V30 29 1 16 27
M  V30 30 1 16 28
M  V30 31 1 17 29
M  V30 32 1 18 30
M  V30 33 1 19 31
M  V30 END BOND
M  V30 END CTAB
M  END
