
     RDKit          3D

  0  0  0  0  0  0  0  0  0  0999 V3000
M  V30 BEGIN CTAB
M  V30 COUNTS 40 41 0 0 0
M  V30 BEGIN ATOM
M  V30 1 N 4.64573 2.36116 -0.35474 0
M  V30 2 C 3.74038 1.28104 -0.172996 0
M  V30 3 C 3.43404 0.419735 -1.21228 0
M  V30 4 C 2.53119 -0.638376 -1.02694 0
M  V30 5 C 1.93416 -0.835451 0.198052 0
M  V30 6 C 2.23846 0.0201485 1.23095 0
M  V30 7 C 3.12964 1.0643 1.0481 0
M  V30 8 N 1.00664 -1.89354 0.406501 0
M  V30 9 C -0.39915 -1.53681 0.343749 0
M  V30 10 S -1.46661 -2.69596 0.637636 0
M  V30 11 N -0.737358 -0.21046 -0.017306 0
M  V30 12 C -1.95898 0.432858 -0.16064 0
M  V30 13 C -3.17392 -0.157434 0.0224763 0
M  V30 14 C -4.40749 0.506835 -0.134215 0
M  V30 15 C -5.701 -0.18531 0.0801666 0
M  V30 16 C -4.33678 1.83099 -0.494666 0
M  V30 17 C -3.12251 2.45951 -0.68777 0
M  V30 18 C -1.93245 1.7913 -0.529355 0
M  V30 19 N -0.719575 2.4978 -0.733743 0
M  V30 20 C 1.39367 -3.20925 0.654185 0
M  V30 21 O 0.505598 -4.07602 0.943769 0
M  V30 22 C 2.78735 -3.71039 0.604582 0
M  V30 23 H 4.44722 3.12834 -1.04749 0
M  V30 24 H 5.53772 2.41082 0.21086 0
M  V30 25 H 3.89293 0.551827 -2.19859 0
M  V30 26 H 2.29303 -1.32215 -1.85219 0
M  V30 27 H 1.75105 -0.146576 2.20605 0
M  V30 28 H 3.36628 1.73518 1.85864 0
M  V30 29 H 0.121507 0.423632 -0.243435 0
M  V30 30 H -3.29671 -1.18716 0.303973 0
M  V30 31 H -6.06572 -0.506117 -0.926195 0
M  V30 32 H -5.59767 -1.06196 0.743272 0
M  V30 33 H -6.40429 0.57513 0.479855 0
M  V30 34 H -5.27096 2.38824 -0.627072 0
M  V30 35 H -3.10882 3.52534 -0.973773 0
M  V30 36 H -0.435148 2.84649 -1.66143 0
M  V30 37 H -0.102377 2.66826 0.076016 0
M  V30 38 H 3.34259 -3.38967 -0.308621 0
M  V30 39 H 2.81983 -4.81946 0.619825 0
M  V30 40 H 3.31854 -3.33685 1.48626 0
M  V30 END ATOM
M  V30 BEGIN BOND
M  V30 1 1 1 2
M  V30 2 2 2 3
M  V30 3 1 3 4
M  V30 4 2 4 5
M  V30 5 1 5 6
M  V30 6 2 6 7
M  V30 7 1 5 8
M  V30 8 1 8 9
M  V30 9 2 9 10
M  V30 10 1 9 11
M  V30 11 1 11 12
M  V30 12 2 12 13
M  V30 13 1 13 14
M  V30 14 1 14 15
M  V30 15 2 14 16
M  V30 16 1 16 17
M  V30 17 2 17 18
M  V30 18 1 18 19
M  V30 19 1 8 20
M  V30 20 2 20 21
M  V30 21 1 20 22
M  V30 22 1 7 2
M  V30 23 1 18 12
M  V30 24 1 1 23
M  V30 25 1 1 24
M  V30 26 1 3 25
M  V30 27 1 4 26
M  V30 28 1 6 27
M  V30 29 1 7 28
M  V30 30 1 11 29
M  V30 31 1 13 30
M  V30 32 1 15 31
M  V30 33 1 15 32
M  V30 34 1 15 33
M  V30 35 1 16 34
M  V30 36 1 17 35
M  V30 37 1 19 36
M  V30 38 1 19 37
M  V30 39 1 22 38
M  V30 40 1 22 39
M  V30 41 1 22 40
M  V30 END BOND
M  V30 END CTAB
M  END
