
     RDKit          3D

  0  0  0  0  0  0  0  0  0  0999 V3000
M  V30 BEGIN CTAB
M  V30 COUNTS 43 45 0 0 0
M  V30 BEGIN ATOM
M  V30 1 N 6.36052 -1.0148 -0.599113 0
M  V30 2 C 5.51386 -0.0121027 -0.0764073 0
M  V30 3 N 4.49622 -0.261803 0.750651 0
M  V30 4 C 3.66699 0.659775 1.25958 0
M  V30 5 C 2.55092 0.374018 2.18782 0
M  V30 6 O 1.35422 -0.0135304 1.59562 0
M  V30 7 C 1.10172 -1.1076 0.821118 0
M  V30 8 O 2.07197 -1.90744 0.588991 0
M  V30 9 C -0.186442 -1.45142 0.232078 0
M  V30 10 C -1.19162 -0.531891 0.0754875 0
M  V30 11 C -2.41032 -0.912371 -0.487511 0
M  V30 12 C -2.57589 -2.23757 -0.884725 0
M  V30 13 C -1.58526 -3.16952 -0.738406 0
M  V30 14 C -0.392553 -2.77424 -0.180773 0
M  V30 15 Cl 0.867838 -3.95217 0.0170295 0
M  V30 16 N -3.44234 0.0456154 -0.644477 0
M  V30 17 C -3.43792 1.2392 -1.24682 0
M  V30 18 C -2.23756 1.81063 -1.91351 0
M  V30 19 C -4.68816 1.81256 -1.14728 0
M  V30 20 C -5.48393 0.937007 -0.459809 0
M  V30 21 C -4.69939 -0.153738 -0.154269 0
M  V30 22 C -5.16988 -1.35704 0.605727 0
M  V30 23 N 3.93465 1.94359 0.864736 0
M  V30 24 C 4.95726 2.22841 0.0293875 0
M  V30 25 N 5.75254 1.26582 -0.447821 0
M  V30 26 N 5.23962 3.55757 -0.369639 0
M  V30 27 H 6.61005 -1.82187 -0.0214283 0
M  V30 28 H 6.76074 -0.987485 -1.56449 0
M  V30 29 H 2.32343 1.32007 2.7654 0
M  V30 30 H 2.87251 -0.338783 3.00039 0
M  V30 31 H -1.06575 0.500211 0.376661 0
M  V30 32 H -3.50916 -2.55019 -1.32363 0
M  V30 33 H -1.7373 -4.18779 -1.04823 0
M  V30 34 H -2.60392 2.45272 -2.75591 0
M  V30 35 H -1.68196 2.51458 -1.25726 0
M  V30 36 H -1.58952 1.04243 -2.35938 0
M  V30 37 H -4.94971 2.76062 -1.54446 0
M  V30 38 H -6.51833 1.10931 -0.222378 0
M  V30 39 H -5.723 -2.04896 -0.0974579 0
M  V30 40 H -5.92161 -1.01643 1.34194 0
M  V30 41 H -4.33114 -1.8723 1.11518 0
M  V30 42 H 5.72931 3.74037 -1.2778 0
M  V30 43 H 4.9683 4.36654 0.2226 0
M  V30 END ATOM
M  V30 BEGIN BOND
M  V30 1 1 1 2
M  V30 2 2 2 3
M  V30 3 1 3 4
M  V30 4 1 4 5
M  V30 5 1 5 6
M  V30 6 1 6 7
M  V30 7 2 7 8
M  V30 8 1 7 9
M  V30 9 2 9 10
M  V30 10 1 10 11
M  V30 11 2 11 12
M  V30 12 1 12 13
M  V30 13 2 13 14
M  V30 14 1 14 15
M  V30 15 1 11 16
M  V30 16 1 16 17
M  V30 17 1 17 18
M  V30 18 2 17 19
M  V30 19 1 19 20
M  V30 20 2 20 21
M  V30 21 1 21 22
M  V30 22 2 4 23
M  V30 23 1 23 24
M  V30 24 2 24 25
M  V30 25 1 24 26
M  V30 26 1 25 2
M  V30 27 1 14 9
M  V30 28 1 21 16
M  V30 29 1 1 27
M  V30 30 1 1 28
M  V30 31 1 5 29
M  V30 32 1 5 30
M  V30 33 1 10 31
M  V30 34 1 12 32
M  V30 35 1 13 33
M  V30 36 1 18 34
M  V30 37 1 18 35
M  V30 38 1 18 36
M  V30 39 1 19 37
M  V30 40 1 20 38
M  V30 41 1 22 39
M  V30 42 1 22 40
M  V30 43 1 22 41
M  V30 44 1 26 42
M  V30 45 1 26 43
M  V30 END BOND
M  V30 END CTAB
M  END
