
     RDKit          3D

  0  0  0  0  0  0  0  0  0  0999 V3000
M  V30 BEGIN CTAB
M  V30 COUNTS 30 30 0 0 0
M  V30 BEGIN ATOM
M  V30 1 N 4.26494 1.34574 0.486725 0
M  V30 2 N 3.19006 0.867418 -0.260441 0
M  V30 3 C 2.97909 -0.41323 -0.441378 0
M  V30 4 N 1.86899 -0.849549 -1.21012 0
M  V30 5 C 0.574909 -1.07352 -0.622181 0
M  V30 6 C 0.040164 0.278102 -0.210815 0
M  V30 7 C -1.31755 0.0540831 0.406561 0
M  V30 8 C -2.27101 -0.593682 -0.570413 0
M  V30 9 C -3.62186 -0.214177 -0.0735845 0
M  V30 10 C -3.44055 0.828255 1.00555 0
M  V30 11 C -2.04799 1.35898 0.666989 0
M  V30 12 N 3.90003 -1.30657 0.159942 0
M  V30 13 H 5.22392 0.962472 0.338812 0
M  V30 14 H 4.16215 2.09235 1.21243 0
M  V30 15 H 1.97096 -1.02051 -2.23425 0
M  V30 16 H 0.678904 -1.75107 0.248806 0
M  V30 17 H -0.102489 -1.59158 -1.33466 0
M  V30 18 H 0.70603 0.686104 0.558771 0
M  V30 19 H -0.0518471 0.904941 -1.09462 0
M  V30 20 H -1.24716 -0.469523 1.36535 0
M  V30 21 H -2.08822 -0.0698842 -1.55292 0
M  V30 22 H -2.11238 -1.68141 -0.679962 0
M  V30 23 H -4.16319 -1.10007 0.335482 0
M  V30 24 H -4.26235 0.228551 -0.880573 0
M  V30 25 H -3.39481 0.353632 2.00661 0
M  V30 26 H -4.20776 1.61714 0.968875 0
M  V30 27 H -1.6085 1.92198 1.5123 0
M  V30 28 H -2.15643 1.93606 -0.248252 0
M  V30 29 H 4.50134 -1.00767 0.958969 0
M  V30 30 H 4.03262 -2.29338 -0.149133 0
M  V30 END ATOM
M  V30 BEGIN BOND
M  V30 1 1 1 2
M  V30 2 2 2 3 CFG=2
M  V30 3 1 3 4
M  V30 4 1 4 5
M  V30 5 1 5 6
M  V30 6 1 6 7
M  V30 7 1 7 8
M  V30 8 1 8 9
M  V30 9 1 9 10
M  V30 10 1 10 11
M  V30 11 1 3 12
M  V30 12 1 11 7
M  V30 13 1 1 13
M  V30 14 1 1 14
M  V30 15 1 4 15
M  V30 16 1 5 16
M  V30 17 1 5 17
M  V30 18 1 6 18
M  V30 19 1 6 19
M  V30 20 1 7 20
M  V30 21 1 8 21
M  V30 22 1 8 22
M  V30 23 1 9 23
M  V30 24 1 9 24
M  V30 25 1 10 25
M  V30 26 1 10 26
M  V30 27 1 11 27
M  V30 28 1 11 28
M  V30 29 1 12 29
M  V30 30 1 12 30
M  V30 END BOND
M  V30 END CTAB
M  END
