
     RDKit          3D

  0  0  0  0  0  0  0  0  0  0999 V3000
M  V30 BEGIN CTAB
M  V30 COUNTS 22 23 0 0 0
M  V30 BEGIN ATOM
M  V30 1 C 2.58363 1.35187 -0.214203 0
M  V30 2 N 2.2243 -0.0134385 0.182588 0
M  V30 3 C 3.07887 -0.975582 0.551544 0
M  V30 4 N 2.36286 -2.0772 0.837342 0
M  V30 5 C 1.04802 -1.76062 0.632583 0
M  V30 6 C 0.957219 -0.459527 0.219518 0
M  V30 7 C -0.250455 0.273968 -0.10661 0
M  V30 8 N -0.27555 1.57974 -0.515881 0
M  V30 9 N -1.52623 1.94824 -0.731635 0
M  V30 10 C -2.34696 0.915873 -0.475818 0
M  V30 11 N -1.5407 -0.0926796 -0.0962693 0
M  V30 12 N -2.00543 -1.36899 0.264342 0
M  V30 13 N -3.78452 0.897487 -0.585966 0
M  V30 14 H 2.29875 1.55768 -1.25773 0
M  V30 15 H 2.06056 2.04082 0.508982 0
M  V30 16 H 3.67977 1.45836 -0.135303 0
M  V30 17 H 4.17612 -0.910761 0.619809 0
M  V30 18 H 0.2519 -2.46864 0.789172 0
M  V30 19 H -2.35281 -1.97502 -0.510771 0
M  V30 20 H -2.02267 -1.73113 1.22276 0
M  V30 21 H -4.28012 0.488602 -1.39699 0
M  V30 22 H -4.33656 1.32096 0.198542 0
M  V30 END ATOM
M  V30 BEGIN BOND
M  V30 1 1 1 2
M  V30 2 1 2 3
M  V30 3 2 3 4
M  V30 4 1 4 5
M  V30 5 2 5 6
M  V30 6 1 6 7
M  V30 7 2 7 8
M  V30 8 1 8 9
M  V30 9 2 9 10
M  V30 10 1 10 11
M  V30 11 1 11 12
M  V30 12 1 10 13
M  V30 13 1 6 2
M  V30 14 1 11 7
M  V30 15 1 1 14
M  V30 16 1 1 15
M  V30 17 1 1 16
M  V30 18 1 3 17
M  V30 19 1 5 18
M  V30 20 1 12 19
M  V30 21 1 12 20
M  V30 22 1 13 21
M  V30 23 1 13 22
M  V30 END BOND
M  V30 END CTAB
M  END
