
     RDKit          3D

  0  0  0  0  0  0  0  0  0  0999 V3000
M  V30 BEGIN CTAB
M  V30 COUNTS 28 28 0 0 0
M  V30 BEGIN ATOM
M  V30 1 N 3.53808 2.11632 1.51458 0
M  V30 2 C 2.66249 1.23528 0.824935 0
M  V30 3 C 1.30152 1.31194 1.00994 0
M  V30 4 C 0.436372 0.465285 0.349241 0
M  V30 5 N 0.917075 -0.476573 -0.511249 0
M  V30 6 C 2.24032 -0.533212 -0.675561 0
M  V30 7 N 3.08124 0.28823 -0.0346832 0
M  V30 8 N 2.7815 -1.49702 -1.56034 0
M  V30 9 N -0.960847 0.592631 0.581693 0
M  V30 10 C -1.89224 -0.283932 -0.0996904 0
M  V30 11 C -1.5343 -1.70046 0.306316 0
M  V30 12 C -3.29652 0.0733635 0.374965 0
M  V30 13 C -1.85454 -0.129471 -1.58132 0
M  V30 14 H 4.35567 1.8022 2.0408 0
M  V30 15 H 3.31696 3.1343 1.46894 0
M  V30 16 H 0.925899 2.07201 1.70329 0
M  V30 17 H 3.56694 -2.08534 -1.22319 0
M  V30 18 H 2.43728 -1.64859 -2.52708 0
M  V30 19 H -1.27929 1.32301 1.24476 0
M  V30 20 H -0.800076 -1.72339 1.13447 0
M  V30 21 H -1.0414 -2.17376 -0.571796 0
M  V30 22 H -2.47288 -2.25657 0.583345 0
M  V30 23 H -3.9313 -0.830863 0.494529 0
M  V30 24 H -3.23445 0.555792 1.3878 0
M  V30 25 H -3.77009 0.81748 -0.289827 0
M  V30 26 H -2.82667 0.18486 -1.9792 0
M  V30 27 H -1.65337 -1.13893 -2.031 0
M  V30 28 H -1.01337 0.505395 -1.93466 0
M  V30 END ATOM
M  V30 BEGIN BOND
M  V30 1 1 1 2
M  V30 2 2 2 3
M  V30 3 1 3 4
M  V30 4 2 4 5
M  V30 5 1 5 6
M  V30 6 2 6 7
M  V30 7 1 6 8
M  V30 8 1 4 9
M  V30 9 1 9 10
M  V30 10 1 10 11
M  V30 11 1 10 12
M  V30 12 1 10 13
M  V30 13 1 7 2
M  V30 14 1 1 14
M  V30 15 1 1 15
M  V30 16 1 3 16
M  V30 17 1 8 17
M  V30 18 1 8 18
M  V30 19 1 9 19
M  V30 20 1 11 20
M  V30 21 1 11 21
M  V30 22 1 11 22
M  V30 23 1 12 23
M  V30 24 1 12 24
M  V30 25 1 12 25
M  V30 26 1 13 26
M  V30 27 1 13 27
M  V30 28 1 13 28
M  V30 END BOND
M  V30 END CTAB
M  END
