
     RDKit          3D

  0  0  0  0  0  0  0  0  0  0999 V3000
M  V30 BEGIN CTAB
M  V30 COUNTS 22 22 0 0 0
M  V30 BEGIN ATOM
M  V30 1 N 2.37829 0.605706 -0.872351 0
M  V30 2 C 1.48626 -0.413835 -0.440864 0
M  V30 3 N 1.73348 -1.63401 -0.719636 0
M  V30 4 C 0.294333 0.0294978 0.326935 0
M  V30 5 N 0.794104 0.707432 1.51524 0
M  V30 6 C -0.474612 0.987537 -0.550424 0
M  V30 7 C -1.93547 0.7283 -0.305989 0
M  V30 8 C -2.00461 -0.711729 0.111979 0
M  V30 9 C -0.644687 -1.08583 0.658041 0
M  V30 10 H 2.10239 1.48835 -1.33294 0
M  V30 11 H 3.39236 0.438142 -0.705072 0
M  V30 12 H 2.58508 -1.88988 -1.26178 0
M  V30 13 H 0.0709603 0.791066 2.2413 0
M  V30 14 H 1.66586 0.252117 1.85403 0
M  V30 15 H -0.250338 0.80193 -1.63783 0
M  V30 16 H -0.212878 2.02049 -0.287731 0
M  V30 17 H -2.49517 0.851305 -1.26185 0
M  V30 18 H -2.33162 1.35353 0.505571 0
M  V30 19 H -2.22622 -1.33181 -0.75682 0
M  V30 20 H -2.80744 -0.830935 0.85799 0
M  V30 21 H -0.761472 -1.0917 1.78192 0
M  V30 22 H -0.358586 -2.06567 0.280293 0
M  V30 END ATOM
M  V30 BEGIN BOND
M  V30 1 1 1 2
M  V30 2 2 2 3 CFG=2
M  V30 3 1 2 4
M  V30 4 1 4 5
M  V30 5 1 4 6
M  V30 6 1 6 7
M  V30 7 1 7 8
M  V30 8 1 8 9
M  V30 9 1 9 4
M  V30 10 1 1 10
M  V30 11 1 1 11
M  V30 12 1 3 12
M  V30 13 1 5 13
M  V30 14 1 5 14
M  V30 15 1 6 15
M  V30 16 1 6 16
M  V30 17 1 7 17
M  V30 18 1 7 18
M  V30 19 1 8 19
M  V30 20 1 8 20
M  V30 21 1 9 21
M  V30 22 1 9 22
M  V30 END BOND
M  V30 END CTAB
M  END
