
     RDKit          3D

  0  0  0  0  0  0  0  0  0  0999 V3000
M  V30 BEGIN CTAB
M  V30 COUNTS 19 20 0 0 0
M  V30 BEGIN ATOM
M  V30 1 N 3.78651 0.0672837 -0.147338 0
M  V30 2 C 2.4814 0.206561 0.409022 0
M  V30 3 N 1.51611 -0.711838 -0.178489 0
M  V30 4 C 0.191367 -0.266658 -0.11176 0
M  V30 5 C 0.0174351 1.09634 -0.122241 0
M  V30 6 S 1.67574 1.76884 -0.180489 0
M  V30 7 C -1.25287 1.61741 -0.0744609 0
M  V30 8 O -1.43039 2.85822 -0.0838776 0
M  V30 9 N -2.34238 0.802543 -0.0160872 0
M  V30 10 C -2.16165 -0.529256 -0.00558195 0
M  V30 11 N -0.930501 -1.04893 -0.0521016 0
M  V30 12 N -3.30488 -1.40474 0.0563441 0
M  V30 13 H 3.78771 -0.276437 -1.11326 0
M  V30 14 H 4.44579 -0.443752 0.490797 0
M  V30 15 H 2.47702 0.175195 1.51494 0
M  V30 16 H 1.80841 -1.64472 -0.621196 0
M  V30 17 H -3.31176 1.16954 0.0208286 0
M  V30 18 H -3.81372 -1.4861 0.971262 0
M  V30 19 H -3.63934 -1.9495 -0.756309 0
M  V30 END ATOM
M  V30 BEGIN BOND
M  V30 1 1 1 2
M  V30 2 1 2 3
M  V30 3 1 3 4
M  V30 4 2 4 5
M  V30 5 1 5 6
M  V30 6 1 5 7
M  V30 7 2 7 8
M  V30 8 1 7 9
M  V30 9 1 9 10
M  V30 10 2 10 11
M  V30 11 1 10 12
M  V30 12 1 6 2
M  V30 13 1 11 4
M  V30 14 1 1 13
M  V30 15 1 1 14
M  V30 16 1 2 15
M  V30 17 1 3 16
M  V30 18 1 9 17
M  V30 19 1 12 18
M  V30 20 1 12 19
M  V30 END BOND
M  V30 END CTAB
M  END
