
     RDKit          3D

  0  0  0  0  0  0  0  0  0  0999 V3000
M  V30 BEGIN CTAB
M  V30 COUNTS 31 32 0 0 0
M  V30 BEGIN ATOM
M  V30 1 C 4.19457 -0.610558 0.442511 0
M  V30 2 C 2.69736 -0.590394 0.704991 0
M  V30 3 C 2.06124 0.179993 -0.423293 0
M  V30 4 C 2.56434 1.5918 -0.515748 0
M  V30 5 C 1.21843 1.94786 0.0672872 0
M  V30 6 N 0.718455 0.625803 -0.197398 0
M  V30 7 C -0.560854 0.0343333 -0.220365 0
M  V30 8 C -0.768625 -1.29937 -0.514262 0
M  V30 9 C -2.03133 -1.85214 -0.529653 0
M  V30 10 C -3.15925 -1.10917 -0.25345 0
M  V30 11 C -2.96493 0.223671 0.0414579 0
M  V30 12 C -1.7045 0.785067 0.0590817 0
M  V30 13 N -4.09199 1.02672 0.331679 0
M  V30 14 N -4.46365 -1.70204 -0.274477 0
M  V30 15 H 4.69123 -1.45885 0.952755 0
M  V30 16 H 4.39612 -0.623044 -0.655896 0
M  V30 17 H 4.60066 0.332429 0.85336 0
M  V30 18 H 2.5166 -0.12712 1.69109 0
M  V30 19 H 2.35065 -1.63913 0.651423 0
M  V30 20 H 2.23776 -0.351629 -1.38357 0
M  V30 21 H 3.36466 1.84488 0.207713 0
M  V30 22 H 2.73418 1.95009 -1.54421 0
M  V30 23 H 1.23558 2.25637 1.12786 0
M  V30 24 H 0.739416 2.72311 -0.578342 0
M  V30 25 H 0.0892339 -1.92622 -0.73881 0
M  V30 26 H -2.20275 -2.90653 -0.761347 0
M  V30 27 H -1.53761 1.83223 0.289495 0
M  V30 28 H -4.98433 0.961814 -0.171992 0
M  V30 29 H -4.00992 1.72308 1.10065 0
M  V30 30 H -5.02667 -1.69305 -1.16917 0
M  V30 31 H -4.90405 -2.15003 0.54701 0
M  V30 END ATOM
M  V30 BEGIN BOND
M  V30 1 1 1 2
M  V30 2 1 2 3
M  V30 3 1 3 4
M  V30 4 1 4 5
M  V30 5 1 5 6
M  V30 6 1 6 7
M  V30 7 2 7 8
M  V30 8 1 8 9
M  V30 9 2 9 10
M  V30 10 1 10 11
M  V30 11 2 11 12
M  V30 12 1 11 13
M  V30 13 1 10 14
M  V30 14 1 6 3
M  V30 15 1 12 7
M  V30 16 1 1 15
M  V30 17 1 1 16
M  V30 18 1 1 17
M  V30 19 1 2 18
M  V30 20 1 2 19
M  V30 21 1 3 20
M  V30 22 1 4 21
M  V30 23 1 4 22
M  V30 24 1 5 23
M  V30 25 1 5 24
M  V30 26 1 8 25
M  V30 27 1 9 26
M  V30 28 1 12 27
M  V30 29 1 13 28
M  V30 30 1 13 29
M  V30 31 1 14 30
M  V30 32 1 14 31
M  V30 END BOND
M  V30 END CTAB
M  END
