
     RDKit          3D

  0  0  0  0  0  0  0  0  0  0999 V3000
M  V30 BEGIN CTAB
M  V30 COUNTS 46 48 0 0 0
M  V30 BEGIN ATOM
M  V30 1 N 3.46161 -1.91177 -1.58743 0
M  V30 2 C 2.3502 -1.11893 -1.30384 0
M  V30 3 C 2.3347 -0.656231 0.144611 0
M  V30 4 C 1.15509 0.183001 0.457062 0
M  V30 5 O 1.37831 1.42624 0.601152 0
M  V30 6 N -0.169626 -0.284299 0.605042 0
M  V30 7 C -1.3117 0.615071 0.880875 0
M  V30 8 C -2.51912 -0.220986 0.690674 0 CFG=2
M  V30 9 C -2.00798 -1.34785 -0.192842 0 CFG=1
M  V30 10 C -0.694738 -1.63683 0.554476 0
M  V30 11 N -2.87352 -2.48033 -0.207581 0
M  V30 12 C -3.69351 0.442606 0.160472 0
M  V30 13 C -4.87538 0.399644 0.871647 0
M  V30 14 C -6.02649 1.02697 0.39247 0
M  V30 15 C -5.99132 1.70747 -0.818144 0
M  V30 16 C -4.82294 1.75915 -1.53732 0
M  V30 17 C -3.70908 1.12678 -1.02927 0
M  V30 18 C 3.58658 0.152027 0.308959 0
M  V30 19 C 3.75877 1.25932 -0.471448 0
M  V30 20 C 4.91405 2.02615 -0.334964 0
M  V30 21 C 5.88387 1.68612 0.572855 0
M  V30 22 C 5.70622 0.56782 1.35851 0
M  V30 23 C 4.55309 -0.192014 1.21782 0
M  V30 24 F 7.02496 2.43555 0.714107 0
M  V30 25 H 3.28635 -2.87694 -1.61379 0
M  V30 26 H 4.3177 -1.5744 -1.81161 0
M  V30 27 H 2.42542 -0.209254 -1.9731 0
M  V30 28 H 1.39381 -1.58763 -1.52676 0
M  V30 29 H 2.40679 -1.51467 0.82907 0
M  V30 30 H -1.1981 0.902255 1.95592 0
M  V30 31 H -1.19213 1.45625 0.196331 0
M  V30 32 H -2.7509 -0.710308 1.67167 0
M  V30 33 H -1.77589 -1.02889 -1.20819 0
M  V30 34 H -0.0763294 -2.37888 0.0882578 0
M  V30 35 H -0.956812 -1.87583 1.62292 0
M  V30 36 H -3.5344 -2.53826 0.593838 0
M  V30 37 H -2.28829 -3.33855 -0.313893 0
M  V30 38 H -4.98099 -0.110999 1.8227 0
M  V30 39 H -6.96017 1.00806 0.927968 0
M  V30 40 H -6.88638 2.19813 -1.19577 0
M  V30 41 H -4.83273 2.29806 -2.47581 0
M  V30 42 H -2.80953 1.17534 -1.59834 0
M  V30 43 H 3.0241 1.58805 -1.21794 0
M  V30 44 H 5.03805 2.90191 -0.960087 0
M  V30 45 H 6.47415 0.313718 2.06511 0
M  V30 46 H 4.46423 -1.06181 1.86111 0
M  V30 END ATOM
M  V30 BEGIN BOND
M  V30 1 1 1 2
M  V30 2 1 2 3
M  V30 3 1 3 4
M  V30 4 2 4 5
M  V30 5 1 4 6
M  V30 6 1 6 7
M  V30 7 1 7 8
M  V30 8 1 8 9
M  V30 9 1 9 10
M  V30 10 1 9 11
M  V30 11 1 8 12
M  V30 12 2 12 13
M  V30 13 1 13 14
M  V30 14 2 14 15
M  V30 15 1 15 16
M  V30 16 2 16 17
M  V30 17 1 3 18
M  V30 18 2 18 19
M  V30 19 1 19 20
M  V30 20 2 20 21
M  V30 21 1 21 22
M  V30 22 2 22 23
M  V30 23 1 21 24
M  V30 24 1 10 6
M  V30 25 1 17 12
M  V30 26 1 23 18
M  V30 27 1 1 25
M  V30 28 1 1 26
M  V30 29 1 2 27
M  V30 30 1 2 28
M  V30 31 1 3 29
M  V30 32 1 7 30
M  V30 33 1 7 31
M  V30 34 1 8 32 CFG=1
M  V30 35 1 9 33 CFG=3
M  V30 36 1 10 34
M  V30 37 1 10 35
M  V30 38 1 11 36
M  V30 39 1 11 37
M  V30 40 1 13 38
M  V30 41 1 14 39
M  V30 42 1 15 40
M  V30 43 1 16 41
M  V30 44 1 17 42
M  V30 45 1 19 43
M  V30 46 1 20 44
M  V30 47 1 22 45
M  V30 48 1 23 46
M  V30 END BOND
M  V30 END CTAB
M  END
