
     RDKit          3D

  0  0  0  0  0  0  0  0  0  0999 V3000
M  V30 BEGIN CTAB
M  V30 COUNTS 21 20 0 0 0
M  V30 BEGIN ATOM
M  V30 1 N 3.34588 0.669818 0.43188 0
M  V30 2 C 2.25048 -0.239036 0.145485 0
M  V30 3 C 0.934073 0.533035 -0.0357803 0
M  V30 4 C -0.118168 -0.467606 -0.322047 0
M  V30 5 C -1.49345 0.06112 -0.537572 0
M  V30 6 N -2.35695 -1.07322 -0.799878 0
M  V30 7 C -2.05674 0.848218 0.538729 0
M  V30 8 O -3.24179 0.4322 1.12581 0
M  V30 9 O -1.56428 1.9117 1.01573 0
M  V30 10 H 3.78838 0.333313 1.30932 0
M  V30 11 H 4.07988 0.64803 -0.327243 0
M  V30 12 H 2.11965 -1.01286 0.924805 0
M  V30 13 H 2.49573 -0.757016 -0.806256 0
M  V30 14 H 0.735986 1.04739 0.930112 0
M  V30 15 H 1.13077 1.24108 -0.860777 0
M  V30 16 H 0.173664 -1.00483 -1.27169 0
M  V30 17 H -0.0994443 -1.24324 0.461808 0
M  V30 18 H -1.51306 0.695134 -1.47139 0
M  V30 19 H -1.81519 -1.89873 -1.17271 0
M  V30 20 H -2.6942 -1.3995 0.153312 0
M  V30 21 H -4.10122 0.67501 0.614137 0
M  V30 END ATOM
M  V30 BEGIN BOND
M  V30 1 1 1 2
M  V30 2 1 2 3
M  V30 3 1 3 4
M  V30 4 1 4 5
M  V30 5 1 5 6
M  V30 6 1 5 7
M  V30 7 1 7 8
M  V30 8 2 7 9
M  V30 9 1 1 10
M  V30 10 1 1 11
M  V30 11 1 2 12
M  V30 12 1 2 13
M  V30 13 1 3 14
M  V30 14 1 3 15
M  V30 15 1 4 16
M  V30 16 1 4 17
M  V30 17 1 5 18
M  V30 18 1 6 19
M  V30 19 1 6 20
M  V30 20 1 8 21
M  V30 END BOND
M  V30 END CTAB
M  END
