
     RDKit          3D

  0  0  0  0  0  0  0  0  0  0999 V3000
M  V30 BEGIN CTAB
M  V30 COUNTS 35 37 0 0 0
M  V30 BEGIN ATOM
M  V30 1 N -4.34716 1.9263 0.117528 0
M  V30 2 C -3.19414 2.02071 0.120937 0
M  V30 3 C -1.74209 2.13917 0.131394 0
M  V30 4 C -1.26072 3.42044 0.272915 0
M  V30 5 N -2.09663 4.55335 0.400915 0
M  V30 6 N 0.0801753 3.51499 0.280567 0
M  V30 7 C 0.890785 2.42013 0.156873 0
M  V30 8 C 0.443836 1.14116 0.0154686 0
M  V30 9 C -0.958074 1.01239 0.00436918 0
M  V30 10 C -1.64565 -0.249542 -0.134534 0
M  V30 11 C -2.10179 -0.70309 -1.35346 0
M  V30 12 C -2.7697 -1.9094 -1.45161 0
M  V30 13 C -2.98903 -2.68164 -0.313702 0
M  V30 14 C -2.53501 -2.23394 0.910952 0
M  V30 15 C -1.86696 -1.01915 0.983258 0
M  V30 16 Cl -3.82687 -4.21289 -0.382108 0
M  V30 17 C 1.36181 0.166653 -0.0965809 0
M  V30 18 N 1.08834 -1.25742 -0.257303 0
M  V30 19 C 2.67603 0.541901 -0.0588022 0
M  V30 20 S 2.60201 2.22561 0.12979 0
M  V30 21 C 3.90355 -0.252684 -0.152528 0
M  V30 22 O 5.03697 0.298904 -0.093818 0
M  V30 23 O 3.87694 -1.62978 -0.308147 0
M  V30 24 C 5.09646 -2.3425 -0.392831 0
M  V30 25 H -1.93311 5.36513 -0.218309 0
M  V30 26 H -2.86663 4.60661 1.08823 0
M  V30 27 H -1.92853 -0.0926505 -2.25271 0
M  V30 28 H -3.12279 -2.2613 -2.39269 0
M  V30 29 H -2.68388 -2.79668 1.80306 0
M  V30 30 H -1.52343 -0.701536 1.97862 0
M  V30 31 H 1.12277 -1.81632 0.598862 0
M  V30 32 H 0.893488 -1.55693 -1.21637 0
M  V30 33 H 5.95585 -1.78575 0.0265231 0
M  V30 34 H 4.99848 -3.31632 0.163179 0
M  V30 35 H 5.36471 -2.53393 -1.46466 0
M  V30 END ATOM
M  V30 BEGIN BOND
M  V30 1 3 1 2
M  V30 2 1 2 3
M  V30 3 2 3 4
M  V30 4 1 4 5
M  V30 5 1 4 6
M  V30 6 2 6 7
M  V30 7 1 7 8
M  V30 8 2 8 9
M  V30 9 1 9 10
M  V30 10 2 10 11
M  V30 11 1 11 12
M  V30 12 2 12 13
M  V30 13 1 13 14
M  V30 14 2 14 15
M  V30 15 1 13 16
M  V30 16 1 8 17
M  V30 17 1 17 18
M  V30 18 2 17 19
M  V30 19 1 19 20
M  V30 20 1 19 21
M  V30 21 2 21 22
M  V30 22 1 21 23
M  V30 23 1 23 24
M  V30 24 1 9 3
M  V30 25 1 15 10
M  V30 26 1 20 7
M  V30 27 1 5 25
M  V30 28 1 5 26
M  V30 29 1 11 27
M  V30 30 1 12 28
M  V30 31 1 14 29
M  V30 32 1 15 30
M  V30 33 1 18 31
M  V30 34 1 18 32
M  V30 35 1 24 33
M  V30 36 1 24 34
M  V30 37 1 24 35
M  V30 END BOND
M  V30 END CTAB
M  END
