
     RDKit          3D

  0  0  0  0  0  0  0  0  0  0999 V3000
M  V30 BEGIN CTAB
M  V30 COUNTS 42 42 0 0 0
M  V30 BEGIN ATOM
M  V30 1 C -0.426153 4.21873 -0.866365 0
M  V30 2 C 0.43748 3.20013 -0.901811 0
M  V30 3 C 0.291475 2.10485 0.105149 0
M  V30 4 N 0.0804112 0.853255 -0.563346 0
M  V30 5 C 1.09451 -0.0348414 -0.919233 0
M  V30 6 O 0.66781 -1.09941 -1.53037 0
M  V30 7 C 2.52918 -0.00359456 -0.738573 0 CFG=2
M  V30 8 C 3.10471 -1.04901 0.19027 0
M  V30 9 C 2.86735 -2.45819 -0.210952 0
M  V30 10 N 3.48462 -3.40017 0.724585 0
M  V30 11 N 3.10302 1.29321 -0.391402 0
M  V30 12 C -1.33616 0.555011 -0.86407 0
M  V30 13 C -1.97974 -0.169116 0.220292 0
M  V30 14 C -1.29621 -0.506911 1.36466 0
M  V30 15 C -1.90189 -1.19881 2.40675 0
M  V30 16 C -3.2256 -1.5679 2.31316 0
M  V30 17 C -3.9111 -1.23163 1.1707 0
M  V30 18 C -3.3026 -0.534241 0.119046 0
M  V30 19 C -4.14577 -0.235552 -1.04782 0
M  V30 20 H -0.318206 4.99715 -1.58607 0
M  V30 21 H -1.20533 4.2426 -0.127487 0
M  V30 22 H 1.21198 3.17086 -1.64269 0
M  V30 23 H -0.651649 2.31983 0.707244 0
M  V30 24 H 1.15386 2.1584 0.778961 0
M  V30 25 H 2.98221 -0.242227 -1.75853 0
M  V30 26 H 4.22255 -0.889926 0.156118 0
M  V30 27 H 2.83448 -0.838866 1.25471 0
M  V30 28 H 1.79734 -2.74143 -0.302535 0
M  V30 29 H 3.33766 -2.64721 -1.19518 0
M  V30 30 H 4.4304 -3.67649 0.444025 0
M  V30 31 H 3.35427 -3.13854 1.7057 0
M  V30 32 H 3.43479 1.8152 -1.23235 0
M  V30 33 H 3.92872 1.18642 0.258479 0
M  V30 34 H -1.31726 -0.0143478 -1.83146 0
M  V30 35 H -1.81036 1.5208 -1.10364 0
M  V30 36 H -0.242894 -0.213651 1.44004 0
M  V30 37 H -1.37377 -1.46945 3.31095 0
M  V30 38 H -3.71381 -2.11716 3.1356 0
M  V30 39 H -4.96873 -1.52803 1.09904 0
M  V30 40 H -4.73776 -1.16597 -1.27134 0
M  V30 41 H -3.58267 -0.0166396 -1.96828 0
M  V30 42 H -4.90115 0.552859 -0.851981 0
M  V30 END ATOM
M  V30 BEGIN BOND
M  V30 1 2 1 2 CFG=2
M  V30 2 1 2 3
M  V30 3 1 3 4
M  V30 4 1 4 5
M  V30 5 2 5 6
M  V30 6 1 5 7
M  V30 7 1 7 8
M  V30 8 1 8 9
M  V30 9 1 9 10
M  V30 10 1 7 11
M  V30 11 1 4 12
M  V30 12 1 12 13
M  V30 13 2 13 14
M  V30 14 1 14 15
M  V30 15 2 15 16
M  V30 16 1 16 17
M  V30 17 2 17 18
M  V30 18 1 18 19
M  V30 19 1 18 13
M  V30 20 1 1 20
M  V30 21 1 1 21
M  V30 22 1 2 22
M  V30 23 1 3 23
M  V30 24 1 3 24
M  V30 25 1 7 25 CFG=3
M  V30 26 1 8 26
M  V30 27 1 8 27
M  V30 28 1 9 28
M  V30 29 1 9 29
M  V30 30 1 10 30
M  V30 31 1 10 31
M  V30 32 1 11 32
M  V30 33 1 11 33
M  V30 34 1 12 34
M  V30 35 1 12 35
M  V30 36 1 14 36
M  V30 37 1 15 37
M  V30 38 1 16 38
M  V30 39 1 17 39
M  V30 40 1 19 40
M  V30 41 1 19 41
M  V30 42 1 19 42
M  V30 END BOND
M  V30 END CTAB
M  END
