
     RDKit          3D

  0  0  0  0  0  0  0  0  0  0999 V3000
M  V30 BEGIN CTAB
M  V30 COUNTS 22 21 0 0 0
M  V30 BEGIN ATOM
M  V30 1 N -3.86181 0.423515 -0.107457 0
M  V30 2 N -2.81363 -0.351935 0.379451 0
M  V30 3 C -2.09618 -1.23467 -0.380637 0
M  V30 4 O -2.50016 -1.4582 -1.59159 0
M  V30 5 C -0.879553 -1.97469 -0.0197337 0
M  V30 6 S 0.523217 -0.834158 -0.309381 0
M  V30 7 O 0.178963 -0.177011 -1.7568 0
M  V30 8 C 0.551972 0.553856 0.819752 0
M  V30 9 C 1.66408 1.36834 0.0760746 0
M  V30 10 O 1.1127 2.51742 -0.262153 0
M  V30 11 N 2.82184 0.865212 -0.121172 0
M  V30 12 N 4.04152 0.341908 -0.33156 0
M  V30 13 H -3.60589 0.651628 -1.15344 0
M  V30 14 H -3.66494 1.4284 0.343983 0
M  V30 15 H -2.5464 -0.246736 1.44501 0
M  V30 16 H -0.874485 -2.18358 1.0828 0
M  V30 17 H -0.682625 -2.89771 -0.578276 0
M  V30 18 H -0.296354 1.02393 1.18024 0
M  V30 19 H 1.14266 0.159811 1.72106 0
M  V30 20 H 3.40488 2.11257 -0.193365 0
M  V30 21 H 3.91305 -0.722863 -0.574865 0
M  V30 22 H 4.46713 0.634973 -1.33581 0
M  V30 END ATOM
M  V30 BEGIN BOND
M  V30 1 1 1 2
M  V30 2 1 2 3
M  V30 3 2 3 4
M  V30 4 1 3 5
M  V30 5 1 5 6
M  V30 6 2 6 7
M  V30 7 1 6 8
M  V30 8 1 8 9
M  V30 9 2 9 10
M  V30 10 1 9 11
M  V30 11 1 11 12
M  V30 12 1 1 13
M  V30 13 1 1 14
M  V30 14 1 2 15
M  V30 15 1 5 16
M  V30 16 1 5 17
M  V30 17 1 8 18
M  V30 18 1 8 19
M  V30 19 1 11 20
M  V30 20 1 12 21
M  V30 21 1 12 22
M  V30 END BOND
M  V30 END CTAB
M  END
