
     RDKit          3D

  0  0  0  0  0  0  0  0  0  0999 V3000
M  V30 BEGIN CTAB
M  V30 COUNTS 65 67 0 0 0
M  V30 BEGIN ATOM
M  V30 1 C -9.05094 -1.58179 0.33881 0
M  V30 2 O -7.82273 -1.02213 0.679048 0
M  V30 3 C -7.15794 -0.0999902 -0.116754 0
M  V30 4 O -7.70375 0.233872 -1.19124 0
M  V30 5 C -5.83017 0.457791 0.32733 0
M  V30 6 C -5.38592 1.40893 -0.749668 0
M  V30 7 C -4.0431 2.06234 -0.438912 0 CFG=2
M  V30 8 N -2.98994 1.10459 -0.292093 0
M  V30 9 C -1.92549 1.00053 -1.24485 0
M  V30 10 O -1.94608 1.7933 -2.23472 0
M  V30 11 C -0.858549 0.0494338 -1.12031 0
M  V30 12 C 0.0728597 -0.073673 -2.12984 0
M  V30 13 C 1.13071 -0.957814 -2.09652 0
M  V30 14 C 1.28771 -1.77228 -1.00749 0
M  V30 15 C 0.362785 -1.66734 0.022237 0
M  V30 16 C -0.680455 -0.780038 -0.0357543 0
M  V30 17 N 2.37192 -2.69902 -0.920703 0
M  V30 18 C 2.24729 -3.94483 -1.6468 0
M  V30 19 C 3.49652 -2.40407 -0.109211 0
M  V30 20 C 4.77911 -2.23136 -0.870522 0
M  V30 21 C 5.87448 -1.9294 0.147492 0
M  V30 22 C 5.8686 -0.481764 0.494053 0
M  V30 23 C 5.3353 0.513836 -0.258546 0
M  V30 24 N 4.72217 0.202796 -1.50208 0
M  V30 25 C 4.70464 -1.18619 -1.89671 0
M  V30 26 O 4.6252 -1.45005 -3.13453 0
M  V30 27 N 5.38872 1.79268 0.168237 0
M  V30 28 C 5.96153 2.14108 1.33725 0
M  V30 29 N 5.99342 3.505 1.74529 0
M  V30 30 N 6.48929 1.16638 2.0849 0
M  V30 31 C 6.45911 -0.128223 1.69816 0
M  V30 32 N 7.04805 -1.08328 2.56614 0
M  V30 33 C -4.19794 2.92924 0.754679 0
M  V30 34 O -3.41017 2.7397 1.73917 0
M  V30 35 O -5.12689 3.92068 0.877215 0
M  V30 36 C -5.25472 4.74492 2.04499 0
M  V30 37 H -9.85778 -0.981415 0.841613 0
M  V30 38 H -9.21764 -1.46975 -0.736711 0
M  V30 39 H -9.1614 -2.6532 0.662619 0
M  V30 40 H -6.00615 0.92945 1.30331 0
M  V30 41 H -5.16335 -0.420184 0.41968 0
M  V30 42 H -6.13338 2.20581 -0.883643 0
M  V30 43 H -5.34929 0.846049 -1.70116 0
M  V30 44 H -3.81724 2.66918 -1.36578 0
M  V30 45 H -2.99069 0.449853 0.540964 0
M  V30 46 H -0.0272837 0.569112 -3.02069 0
M  V30 47 H 1.79394 -0.974509 -2.94638 0
M  V30 48 H 0.533909 -2.33884 0.864958 0
M  V30 49 H -1.36525 -0.740494 0.787008 0
M  V30 50 H 2.08033 -3.71015 -2.7377 0
M  V30 51 H 1.30178 -4.42378 -1.26461 0
M  V30 52 H 3.11928 -4.59917 -1.51737 0
M  V30 53 H 3.60726 -3.23845 0.628231 0
M  V30 54 H 3.332 -1.48309 0.513242 0
M  V30 55 H 5.01251 -3.2058 -1.3665 0
M  V30 56 H 5.73862 -2.54216 1.05507 0
M  V30 57 H 6.85637 -2.15837 -0.295442 0
M  V30 58 H 4.29445 0.922867 -2.12784 0
M  V30 59 H 5.96606 4.24563 1.0068 0
M  V30 60 H 6.0439 3.73969 2.77141 0
M  V30 61 H 8.08456 -1.23348 2.55989 0
M  V30 62 H 6.46413 -1.63047 3.20311 0
M  V30 63 H -5.89766 5.59515 1.73732 0
M  V30 64 H -4.28635 5.15597 2.3666 0
M  V30 65 H -5.79025 4.20072 2.8544 0
M  V30 END ATOM
M  V30 BEGIN BOND
M  V30 1 1 1 2
M  V30 2 1 2 3
M  V30 3 2 3 4
M  V30 4 1 3 5
M  V30 5 1 5 6
M  V30 6 1 6 7
M  V30 7 1 7 8
M  V30 8 1 8 9
M  V30 9 2 9 10
M  V30 10 1 9 11
M  V30 11 2 11 12
M  V30 12 1 12 13
M  V30 13 2 13 14
M  V30 14 1 14 15
M  V30 15 2 15 16
M  V30 16 1 14 17
M  V30 17 1 17 18
M  V30 18 1 17 19
M  V30 19 1 19 20
M  V30 20 1 20 21
M  V30 21 1 21 22
M  V30 22 2 22 23
M  V30 23 1 23 24
M  V30 24 1 24 25
M  V30 25 2 25 26
M  V30 26 1 23 27
M  V30 27 2 27 28
M  V30 28 1 28 29
M  V30 29 1 28 30
M  V30 30 2 30 31
M  V30 31 1 31 32
M  V30 32 1 7 33
M  V30 33 2 33 34
M  V30 34 1 33 35
M  V30 35 1 35 36
M  V30 36 1 16 11
M  V30 37 1 25 20
M  V30 38 1 31 22
M  V30 39 1 1 37
M  V30 40 1 1 38
M  V30 41 1 1 39
M  V30 42 1 5 40
M  V30 43 1 5 41
M  V30 44 1 6 42
M  V30 45 1 6 43
M  V30 46 1 7 44 CFG=3
M  V30 47 1 8 45
M  V30 48 1 12 46
M  V30 49 1 13 47
M  V30 50 1 15 48
M  V30 51 1 16 49
M  V30 52 1 18 50
M  V30 53 1 18 51
M  V30 54 1 18 52
M  V30 55 1 19 53
M  V30 56 1 19 54
M  V30 57 1 20 55
M  V30 58 1 21 56
M  V30 59 1 21 57
M  V30 60 1 24 58
M  V30 61 1 29 59
M  V30 62 1 29 60
M  V30 63 1 32 61
M  V30 64 1 32 62
M  V30 65 1 36 63
M  V30 66 1 36 64
M  V30 67 1 36 65
M  V30 END BOND
M  V30 END CTAB
M  END
