
     RDKit          3D

  0  0  0  0  0  0  0  0  0  0999 V3000
M  V30 BEGIN CTAB
M  V30 COUNTS 26 27 0 0 0
M  V30 BEGIN ATOM
M  V30 1 N -2.31525 -2.0289 0.157809 0
M  V30 2 C -0.98726 -1.54001 0.0870797 0
M  V30 3 C 0.0958561 -2.38892 0.110428 0
M  V30 4 C 1.35011 -1.86449 0.0392247 0
M  V30 5 C 1.59628 -0.50731 -0.0564759 0
M  V30 6 C 0.504033 0.332371 -0.0790528 0
M  V30 7 C 0.73564 1.68809 -0.175281 0
M  V30 8 C -0.344473 2.556 -0.200781 0
M  V30 9 C -1.62695 2.08117 -0.131817 0
M  V30 10 C -1.8508 0.727463 -0.0360521 0
M  V30 11 N -3.16584 0.202353 0.0375442 0
M  V30 12 C -0.796094 -0.182055 -0.00710712 0
M  V30 13 S 3.2122 0.107296 -0.140231 0
M  V30 14 O 3.59116 1.13876 1.13405 0
M  V30 15 O 3.51206 0.755207 -1.46397 0
M  V30 16 O 4.1838 -1.06091 -0.027449 0
M  V30 17 H -2.76388 -2.25748 -0.778959 0
M  V30 18 H -2.85056 -2.17291 1.03803 0
M  V30 19 H -0.0711792 -3.43478 0.183498 0
M  V30 20 H 2.1891 -2.54598 0.0588702 0
M  V30 21 H 1.7511 2.02348 -0.228352 0
M  V30 22 H -0.162098 3.61241 -0.275779 0
M  V30 23 H -2.47713 2.73801 -0.150102 0
M  V30 24 H -3.65063 -0.0454615 -0.838043 0
M  V30 25 H -3.60082 0.0866206 0.969667 0
M  V30 26 H 3.94163 1.97998 0.773247 0
M  V30 END ATOM
M  V30 BEGIN BOND
M  V30 1 1 1 2
M  V30 2 2 2 3
M  V30 3 1 3 4
M  V30 4 2 4 5
M  V30 5 1 5 6
M  V30 6 2 6 7
M  V30 7 1 7 8
M  V30 8 2 8 9
M  V30 9 1 9 10
M  V30 10 1 10 11
M  V30 11 2 10 12
M  V30 12 1 5 13
M  V30 13 1 13 14
M  V30 14 2 13 15
M  V30 15 2 13 16
M  V30 16 1 12 2
M  V30 17 1 12 6
M  V30 18 1 1 17
M  V30 19 1 1 18
M  V30 20 1 3 19
M  V30 21 1 4 20
M  V30 22 1 7 21
M  V30 23 1 8 22
M  V30 24 1 9 23
M  V30 25 1 11 24
M  V30 26 1 11 25
M  V30 27 1 14 26
M  V30 END BOND
M  V30 END CTAB
M  END
