
     RDKit          3D

  0  0  0  0  0  0  0  0  0  0999 V3000
M  V30 BEGIN CTAB
M  V30 COUNTS 24 24 0 0 0
M  V30 BEGIN ATOM
M  V30 1 N 3.74033 -1.07431 -0.308364 0
M  V30 2 C 3.48041 0.349835 -0.26542 0
M  V30 3 C 1.9993 0.557226 -0.506138 0
M  V30 4 C 1.23537 -0.153649 0.569597 0
M  V30 5 C -0.234747 -0.0141924 0.427997 0
M  V30 6 N -1.06662 -0.832731 -0.259615 0
M  V30 7 N -2.31184 -0.410095 -0.173428 0
M  V30 8 C -2.32098 0.718668 0.589173 0
M  V30 9 N -1.04199 0.934168 0.94036 0
M  V30 10 N -3.48399 1.46396 0.906971 0
M  V30 11 C -3.5057 -0.997295 -0.762568 0
M  V30 12 H 4.6944 -1.29808 -0.665905 0
M  V30 13 H 3.54487 -1.55292 0.590362 0
M  V30 14 H 3.8065 0.766109 0.712234 0
M  V30 15 H 4.06859 0.838941 -1.08125 0
M  V30 16 H 1.79076 0.099861 -1.51286 0
M  V30 17 H 1.77952 1.61819 -0.599426 0
M  V30 18 H 1.53102 -1.23507 0.520574 0
M  V30 19 H 1.60456 0.208505 1.55353 0
M  V30 20 H -4.42382 1.02212 0.948091 0
M  V30 21 H -3.43546 2.48126 1.11028 0
M  V30 22 H -3.98352 -1.73853 -0.0575775 0
M  V30 23 H -4.25088 -0.222803 -0.979279 0
M  V30 24 H -3.21608 -1.52916 -1.69734 0
M  V30 END ATOM
M  V30 BEGIN BOND
M  V30 1 1 1 2
M  V30 2 1 2 3
M  V30 3 1 3 4
M  V30 4 1 4 5
M  V30 5 2 5 6
M  V30 6 1 6 7
M  V30 7 1 7 8
M  V30 8 2 8 9
M  V30 9 1 8 10
M  V30 10 1 7 11
M  V30 11 1 9 5
M  V30 12 1 1 12
M  V30 13 1 1 13
M  V30 14 1 2 14
M  V30 15 1 2 15
M  V30 16 1 3 16
M  V30 17 1 3 17
M  V30 18 1 4 18
M  V30 19 1 4 19
M  V30 20 1 10 20
M  V30 21 1 10 21
M  V30 22 1 11 22
M  V30 23 1 11 23
M  V30 24 1 11 24
M  V30 END BOND
M  V30 END CTAB
M  END
