
     RDKit          3D

  0  0  0  0  0  0  0  0  0  0999 V3000
M  V30 BEGIN CTAB
M  V30 COUNTS 22 22 0 0 0
M  V30 BEGIN ATOM
M  V30 1 O 3.90466 -0.69193 0.63854 0
M  V30 2 C 2.53894 -0.499302 0.631666 0
M  V30 3 O 1.89027 -0.551448 1.71576 0
M  V30 4 C 1.76017 -0.225599 -0.608676 0
M  V30 5 C 0.335382 -0.0230853 -0.342964 0
M  V30 6 C -0.623797 -1.00699 -0.558245 0
M  V30 7 C -1.9646 -0.801355 -0.288639 0
M  V30 8 N -2.94042 -1.8239 -0.513738 0
M  V30 9 C -2.32264 0.432607 0.208878 0
M  V30 10 C -1.41443 1.44529 0.441801 0
M  V30 11 C -0.0626528 1.20245 0.156851 0
M  V30 12 N 0.866436 2.24935 0.386996 0
M  V30 13 I -4.37386 0.733087 0.617794 0
M  V30 14 H 4.35828 -1.49616 0.219561 0
M  V30 15 H 1.99567 -1.02502 -1.33382 0
M  V30 16 H 2.23628 0.708282 -1.03181 0
M  V30 17 H -0.278887 -1.93749 -0.944229 0
M  V30 18 H -3.75089 -1.70555 -1.162 0
M  V30 19 H -2.85001 -2.7404 -0.00975957 0
M  V30 20 H -1.71974 2.40389 0.833018 0
M  V30 21 H 1.85157 2.08762 0.590634 0
M  V30 22 H 0.564272 3.26565 0.352388 0
M  V30 END ATOM
M  V30 BEGIN BOND
M  V30 1 1 1 2
M  V30 2 2 2 3
M  V30 3 1 2 4
M  V30 4 1 4 5
M  V30 5 2 5 6
M  V30 6 1 6 7
M  V30 7 1 7 8
M  V30 8 2 7 9
M  V30 9 1 9 10
M  V30 10 2 10 11
M  V30 11 1 11 12
M  V30 12 1 9 13
M  V30 13 1 11 5
M  V30 14 1 1 14
M  V30 15 1 4 15
M  V30 16 1 4 16
M  V30 17 1 6 17
M  V30 18 1 8 18
M  V30 19 1 8 19
M  V30 20 1 10 20
M  V30 21 1 12 21
M  V30 22 1 12 22
M  V30 END BOND
M  V30 END CTAB
M  END
