
     RDKit          3D

  0  0  0  0  0  0  0  0  0  0999 V3000
M  V30 BEGIN CTAB
M  V30 COUNTS 31 32 0 0 0
M  V30 BEGIN ATOM
M  V30 1 C -1.72526 0.650445 -1.31928 0
M  V30 2 C -1.27124 0.704049 0.154049 0
M  V30 3 C -0.702684 2.10271 0.346672 0
M  V30 4 N -2.38714 0.459046 0.979941 0
M  V30 5 C -2.50005 -0.516199 1.79908 0
M  V30 6 N -3.73277 -0.574854 2.54735 0
M  V30 7 N -1.47581 -1.48375 1.96393 0
M  V30 8 C -0.407724 -1.34039 1.24403 0
M  V30 9 N 0.676462 -2.26972 1.34511 0
M  V30 10 N -0.23832 -0.279907 0.326801 0
M  V30 11 C 0.993119 -0.193172 -0.442164 0
M  V30 12 C 2.07556 0.509745 0.0399673 0
M  V30 13 C 3.25907 0.627054 -0.636355 0
M  V30 14 Cl 4.58558 1.55397 0.0755589 0
M  V30 15 C 3.3843 0.011575 -1.86823 0
M  V30 16 Cl 4.89611 0.173139 -2.7105 0
M  V30 17 C 2.31098 -0.701014 -2.37511 0
M  V30 18 C 1.10795 -0.810831 -1.67022 0
M  V30 19 H -2.56693 1.38064 -1.39339 0
M  V30 20 H -0.859774 0.995083 -1.90338 0
M  V30 21 H -2.08503 -0.356685 -1.5853 0
M  V30 22 H -0.123229 2.13088 1.27199 0
M  V30 23 H -1.54396 2.81559 0.335946 0
M  V30 24 H -0.0945574 2.33395 -0.566618 0
M  V30 25 H -4.66419 -0.573906 2.08289 0
M  V30 26 H -3.72996 -0.620914 3.59665 0
M  V30 27 H 1.24063 -2.25751 2.20839 0
M  V30 28 H 0.871633 -2.92263 0.56931 0
M  V30 29 H 1.98055 0.990486 1.00004 0
M  V30 30 H 2.42883 -1.16847 -3.32786 0
M  V30 31 H 0.297858 -1.36841 -2.0893 0
M  V30 END ATOM
M  V30 BEGIN BOND
M  V30 1 1 1 2
M  V30 2 1 2 3
M  V30 3 1 2 4
M  V30 4 2 4 5
M  V30 5 1 5 6
M  V30 6 1 5 7
M  V30 7 2 7 8
M  V30 8 1 8 9
M  V30 9 1 8 10
M  V30 10 1 10 11
M  V30 11 2 11 12
M  V30 12 1 12 13
M  V30 13 1 13 14
M  V30 14 2 13 15
M  V30 15 1 15 16
M  V30 16 1 15 17
M  V30 17 2 17 18
M  V30 18 1 10 2
M  V30 19 1 18 11
M  V30 20 1 1 19
M  V30 21 1 1 20
M  V30 22 1 1 21
M  V30 23 1 3 22
M  V30 24 1 3 23
M  V30 25 1 3 24
M  V30 26 1 6 25
M  V30 27 1 6 26
M  V30 28 1 9 27
M  V30 29 1 9 28
M  V30 30 1 12 29
M  V30 31 1 17 30
M  V30 32 1 18 31
M  V30 END BOND
M  V30 END CTAB
M  END
