
     RDKit          3D

  0  0  0  0  0  0  0  0  0  0999 V3000
M  V30 BEGIN CTAB
M  V30 COUNTS 38 37 0 0 0
M  V30 BEGIN ATOM
M  V30 1 C -2.70211 0.176886 0.712286 0 CFG=1
M  V30 2 N -2.77673 0.871239 1.9568 0
M  V30 3 C -2.15692 -1.2364 0.866964 0
M  V30 4 S -0.512142 -1.12288 1.55959 0
M  V30 5 S 0.944193 -0.261513 0.40792 0
M  V30 6 C 1.87051 -1.32389 -0.687925 0
M  V30 7 C 2.89819 -0.535153 -1.44588 0 CFG=2
M  V30 8 N 3.59752 -1.4891 -2.31258 0
M  V30 9 C 3.88103 0.00406105 -0.452349 0
M  V30 10 O 3.53627 0.850674 0.407546 0
M  V30 11 O 5.19073 -0.41892 -0.460144 0
M  V30 12 C 6.14728 0.0537889 0.448047 0
M  V30 13 C 6.3811 1.52974 0.399435 0
M  V30 14 C -4.06836 0.037625 0.157583 0
M  V30 15 O -4.24197 -0.532653 -0.943941 0
M  V30 16 O -5.14207 0.531003 0.846427 0
M  V30 17 C -6.43918 0.386001 0.298053 0
M  V30 18 C -6.4798 1.09709 -1.05661 0
M  V30 19 H -2.07514 0.729718 -0.0188994 0
M  V30 20 H -2.66685 1.89324 1.90258 0
M  V30 21 H -2.33787 0.403427 2.75485 0
M  V30 22 H -2.11253 -1.66269 -0.161008 0
M  V30 23 H -2.78188 -1.86068 1.49646 0
M  V30 24 H 2.34663 -2.15243 -0.135753 0
M  V30 25 H 1.16524 -1.78675 -1.42047 0
M  V30 26 H 2.45713 0.297929 -1.9951 0
M  V30 27 H 3.78935 -1.07237 -3.25937 0
M  V30 28 H 3.08607 -2.3739 -2.40698 0
M  V30 29 H 7.1115 -0.474079 0.191843 0
M  V30 30 H 5.9042 -0.283212 1.49322 0
M  V30 31 H 7.48004 1.73227 0.437692 0
M  V30 32 H 5.94776 1.9909 1.31765 0
M  V30 33 H 5.9672 1.93981 -0.531208 0
M  V30 34 H -7.1558 0.930811 0.958267 0
M  V30 35 H -6.66775 -0.682515 0.202829 0
M  V30 36 H -6.49099 0.329861 -1.86833 0
M  V30 37 H -5.55696 1.6946 -1.21523 0
M  V30 38 H -7.33691 1.78844 -1.125 0
M  V30 END ATOM
M  V30 BEGIN BOND
M  V30 1 1 1 2
M  V30 2 1 1 3
M  V30 3 1 3 4
M  V30 4 1 4 5
M  V30 5 1 5 6
M  V30 6 1 6 7
M  V30 7 1 7 8
M  V30 8 1 7 9
M  V30 9 2 9 10
M  V30 10 1 9 11
M  V30 11 1 11 12
M  V30 12 1 12 13
M  V30 13 1 1 14
M  V30 14 2 14 15
M  V30 15 1 14 16
M  V30 16 1 16 17
M  V30 17 1 17 18
M  V30 18 1 1 19 CFG=3
M  V30 19 1 2 20
M  V30 20 1 2 21
M  V30 21 1 3 22
M  V30 22 1 3 23
M  V30 23 1 6 24
M  V30 24 1 6 25
M  V30 25 1 7 26 CFG=3
M  V30 26 1 8 27
M  V30 27 1 8 28
M  V30 28 1 12 29
M  V30 29 1 12 30
M  V30 30 1 13 31
M  V30 31 1 13 32
M  V30 32 1 13 33
M  V30 33 1 17 34
M  V30 34 1 17 35
M  V30 35 1 18 36
M  V30 36 1 18 37
M  V30 37 1 18 38
M  V30 END BOND
M  V30 END CTAB
M  END
