
     RDKit          3D

  0  0  0  0  0  0  0  0  0  0999 V3000
M  V30 BEGIN CTAB
M  V30 COUNTS 45 46 0 0 0
M  V30 BEGIN ATOM
M  V30 1 N 5.92441 0.382254 0.495923 0
M  V30 2 C 5.48136 1.00849 -0.734787 0
M  V30 3 C 3.99412 0.725434 -0.970188 0
M  V30 4 C 3.2628 1.29542 0.196965 0
M  V30 5 N 1.83168 1.13173 0.162491 0
M  V30 6 C 1.16165 -0.0982536 0.156336 0
M  V30 7 N -0.179852 -0.149828 0.119582 0
M  V30 8 C -0.847012 -1.31497 0.116932 0
M  V30 9 N -2.24407 -1.34141 0.0787502 0
M  V30 10 C -3.10284 -0.198903 0.0390411 0
M  V30 11 C -2.9102 0.696805 -1.15052 0
M  V30 12 C -4.14884 1.57506 -1.23626 0
M  V30 13 C -4.49724 2.27018 0.0264759 0
M  V30 14 C -4.16883 1.57865 1.29657 0
M  V30 15 C -2.95313 0.703196 1.26711 0
M  V30 16 C -0.114681 -2.47031 0.153082 0
M  V30 17 C 1.28435 -2.44572 0.191746 0
M  V30 18 N 1.8586 -1.23834 0.191356 0
M  V30 19 N 2.08764 -3.60708 0.230409 0
M  V30 20 N -0.730426 -3.73764 0.154413 0 CHG=1
M  V30 21 O -1.32849 -4.22041 1.13722 0
M  V30 22 O -0.67207 -4.49069 -0.99052 0 CHG=-1
M  V30 23 H 6.82705 -0.124705 0.388869 0
M  V30 24 H 5.92567 1.03326 1.30439 0
M  V30 25 H 5.69878 2.08398 -0.721151 0
M  V30 26 H 6.01215 0.515842 -1.57009 0
M  V30 27 H 3.74946 1.20575 -1.93171 0
M  V30 28 H 3.92688 -0.368009 -1.06701 0
M  V30 29 H 3.56575 2.33823 0.379344 0
M  V30 30 H 3.61661 0.723868 1.10636 0
M  V30 31 H 1.23063 2.01081 0.138861 0
M  V30 32 H -2.71007 -2.29483 0.0791094 0
M  V30 33 H -4.15659 -0.531821 0.042017 0
M  V30 34 H -2.8225 0.167849 -2.10799 0
M  V30 35 H -2.02121 1.34532 -1.00299 0
M  V30 36 H -5.00324 0.985233 -1.66061 0
M  V30 37 H -3.93122 2.34976 -2.01856 0
M  V30 38 H -4.09135 3.31859 0.0104468 0
M  V30 39 H -5.61783 2.42328 0.0183843 0
M  V30 40 H -5.01512 0.971031 1.69784 0
M  V30 41 H -3.98779 2.36943 2.07909 0
M  V30 42 H -2.0698 1.39004 1.12413 0
M  V30 43 H -2.89497 0.136285 2.19919 0
M  V30 44 H 2.50688 -4.07943 -0.588894 0
M  V30 45 H 2.27293 -4.02341 1.16886 0
M  V30 END ATOM
M  V30 BEGIN BOND
M  V30 1 1 1 2
M  V30 2 1 2 3
M  V30 3 1 3 4
M  V30 4 1 4 5
M  V30 5 1 5 6
M  V30 6 2 6 7
M  V30 7 1 7 8
M  V30 8 1 8 9
M  V30 9 1 9 10
M  V30 10 1 10 11
M  V30 11 1 11 12
M  V30 12 1 12 13
M  V30 13 1 13 14
M  V30 14 1 14 15
M  V30 15 2 8 16
M  V30 16 1 16 17
M  V30 17 2 17 18
M  V30 18 1 17 19
M  V30 19 1 16 20
M  V30 20 2 20 21
M  V30 21 1 20 22
M  V30 22 1 18 6
M  V30 23 1 15 10
M  V30 24 1 1 23
M  V30 25 1 1 24
M  V30 26 1 2 25
M  V30 27 1 2 26
M  V30 28 1 3 27
M  V30 29 1 3 28
M  V30 30 1 4 29
M  V30 31 1 4 30
M  V30 32 1 5 31
M  V30 33 1 9 32
M  V30 34 1 10 33
M  V30 35 1 11 34
M  V30 36 1 11 35
M  V30 37 1 12 36
M  V30 38 1 12 37
M  V30 39 1 13 38
M  V30 40 1 13 39
M  V30 41 1 14 40
M  V30 42 1 14 41
M  V30 43 1 15 42
M  V30 44 1 15 43
M  V30 45 1 19 44
M  V30 46 1 19 45
M  V30 END BOND
M  V30 END CTAB
M  END
