
     RDKit          3D

  0  0  0  0  0  0  0  0  0  0999 V3000
M  V30 BEGIN CTAB
M  V30 COUNTS 23 23 0 0 0
M  V30 BEGIN ATOM
M  V30 1 N 2.93924 1.49546 -1.03523 0
M  V30 2 C 1.86694 0.688559 -0.535505 0
M  V30 3 N 0.617548 0.804249 -1.01669 0
M  V30 4 C -0.433919 0.0642098 -0.578236 0
M  V30 5 N -1.73342 0.235715 -1.1642 0
M  V30 6 C -2.86947 -0.481846 -0.661516 0
M  V30 7 C -3.29933 0.045873 0.667978 0
M  V30 8 F -3.6451 1.39701 0.492687 0
M  V30 9 C -0.168764 -0.845943 0.414883 0
M  V30 10 C 1.12956 -0.976961 0.926249 0
M  V30 11 C 2.17864 -0.213473 0.463973 0
M  V30 12 N 3.48881 -0.362678 0.997143 0
M  V30 13 H 3.80599 1.10366 -1.44471 0
M  V30 14 H 2.77975 2.53207 -0.954778 0
M  V30 15 H -1.86212 0.891027 -1.96855 0
M  V30 16 H -3.71978 -0.338324 -1.36247 0
M  V30 17 H -2.64645 -1.57387 -0.600145 0
M  V30 18 H -4.24466 -0.467877 0.977003 0
M  V30 19 H -2.54688 0.0485162 1.46371 0
M  V30 20 H -0.941083 -1.481 0.808311 0
M  V30 21 H 1.3457 -1.68883 1.70628 0
M  V30 22 H 3.77285 -1.287 1.35027 0
M  V30 23 H 4.18595 0.411456 1.05354 0
M  V30 END ATOM
M  V30 BEGIN BOND
M  V30 1 1 1 2
M  V30 2 2 2 3
M  V30 3 1 3 4
M  V30 4 1 4 5
M  V30 5 1 5 6
M  V30 6 1 6 7
M  V30 7 1 7 8
M  V30 8 2 4 9
M  V30 9 1 9 10
M  V30 10 2 10 11
M  V30 11 1 11 12
M  V30 12 1 11 2
M  V30 13 1 1 13
M  V30 14 1 1 14
M  V30 15 1 5 15
M  V30 16 1 6 16
M  V30 17 1 6 17
M  V30 18 1 7 18
M  V30 19 1 7 19
M  V30 20 1 9 20
M  V30 21 1 10 21
M  V30 22 1 12 22
M  V30 23 1 12 23
M  V30 END BOND
M  V30 END CTAB
M  END
