
     RDKit          3D

  0  0  0  0  0  0  0  0  0  0999 V3000
M  V30 BEGIN CTAB
M  V30 COUNTS 26 27 0 0 0
M  V30 BEGIN ATOM
M  V30 1 N 4.70276 0.72912 0.612858 0
M  V30 2 C 3.33272 0.41341 0.403316 0
M  V30 3 C 2.49093 1.32742 -0.178277 0
M  V30 4 C 1.16286 1.02568 -0.383256 0
M  V30 5 C 0.603882 -0.206235 -0.0180115 0
M  V30 6 C 1.46847 -1.10573 0.563461 0
M  V30 7 C 2.79784 -0.806781 0.769821 0
M  V30 8 C -0.81387 -0.468238 -0.255473 0
M  V30 9 C -1.73529 0.51475 0.129206 0
M  V30 10 C -3.07631 0.396467 -0.0293786 0
M  V30 11 N -3.9197 1.45722 0.3974 0
M  V30 12 C -3.58524 -0.760006 -0.605154 0
M  V30 13 C -2.69932 -1.7396 -0.991111 0
M  V30 14 C -1.31748 -1.59762 -0.818489 0
M  V30 15 Cl -0.235412 -2.85686 -1.32653 0
M  V30 16 H 5.04185 1.70357 0.748525 0
M  V30 17 H 5.3923 -0.0325547 0.632252 0
M  V30 18 H 2.89893 2.2866 -0.469391 0
M  V30 19 H 0.473493 1.73494 -0.843493 0
M  V30 20 H 1.07648 -2.06539 0.86264 0
M  V30 21 H 3.46675 -1.53675 1.23348 0
M  V30 22 H -1.34181 1.41476 0.577092 0
M  V30 23 H -4.04218 1.57453 1.42268 0
M  V30 24 H -4.3949 2.08931 -0.264518 0
M  V30 25 H -4.65744 -0.854684 -0.731909 0
M  V30 26 H -3.09034 -2.63731 -1.43774 0
M  V30 END ATOM
M  V30 BEGIN BOND
M  V30 1 1 1 2
M  V30 2 2 2 3
M  V30 3 1 3 4
M  V30 4 2 4 5
M  V30 5 1 5 6
M  V30 6 2 6 7
M  V30 7 1 5 8
M  V30 8 2 8 9
M  V30 9 1 9 10
M  V30 10 1 10 11
M  V30 11 2 10 12
M  V30 12 1 12 13
M  V30 13 2 13 14
M  V30 14 1 14 15
M  V30 15 1 7 2
M  V30 16 1 14 8
M  V30 17 1 1 16
M  V30 18 1 1 17
M  V30 19 1 3 18
M  V30 20 1 4 19
M  V30 21 1 6 20
M  V30 22 1 7 21
M  V30 23 1 9 22
M  V30 24 1 11 23
M  V30 25 1 11 24
M  V30 26 1 12 25
M  V30 27 1 13 26
M  V30 END BOND
M  V30 END CTAB
M  END
