
     RDKit          3D

  0  0  0  0  0  0  0  0  0  0999 V3000
M  V30 BEGIN CTAB
M  V30 COUNTS 21 22 0 0 0
M  V30 BEGIN ATOM
M  V30 1 N 3.61536 1.12261 0.0877942 0
M  V30 2 C 2.30656 0.561964 0.00662357 0
M  V30 3 C 1.99487 -0.619128 0.639607 0
M  V30 4 C 0.704916 -1.15576 0.549679 0
M  V30 5 C -0.285166 -0.524563 -0.168869 0
M  V30 6 C 0.0339761 0.650543 -0.795677 0
M  V30 7 C 1.29641 1.18717 -0.714785 0
M  V30 8 C -1.65725 -1.12161 -0.249393 0
M  V30 9 N -1.89619 -2.39692 -0.48013 0
M  V30 10 N -3.10556 -2.83011 -0.534865 0
M  V30 11 S -4.04241 -1.46418 -0.26268 0
M  V30 12 C -2.78148 -0.337664 -0.0808615 0
M  V30 13 N -2.80837 1.0826 0.182312 0
M  V30 14 H 4.34897 0.811371 -0.557363 0
M  V30 15 H 3.7922 1.84415 0.811839 0
M  V30 16 H 2.78075 -1.10588 1.20107 0
M  V30 17 H 0.478559 -2.06845 1.04358 0
M  V30 18 H -0.707461 1.1725 -1.36445 0
M  V30 19 H 1.57267 2.11441 -1.20135 0
M  V30 20 H -2.02144 1.45457 0.720048 0
M  V30 21 H -3.61989 1.62238 -0.1908 0
M  V30 END ATOM
M  V30 BEGIN BOND
M  V30 1 1 1 2
M  V30 2 2 2 3
M  V30 3 1 3 4
M  V30 4 2 4 5
M  V30 5 1 5 6
M  V30 6 2 6 7
M  V30 7 1 5 8
M  V30 8 1 8 9
M  V30 9 2 9 10
M  V30 10 1 10 11
M  V30 11 1 11 12
M  V30 12 1 12 13
M  V30 13 1 7 2
M  V30 14 2 12 8
M  V30 15 1 1 14
M  V30 16 1 1 15
M  V30 17 1 3 16
M  V30 18 1 4 17
M  V30 19 1 6 18
M  V30 20 1 7 19
M  V30 21 1 13 20
M  V30 22 1 13 21
M  V30 END BOND
M  V30 END CTAB
M  END
