
     RDKit          3D

  0  0  0  0  0  0  0  0  0  0999 V3000
M  V30 BEGIN CTAB
M  V30 COUNTS 39 41 0 0 0
M  V30 BEGIN ATOM
M  V30 1 N 0.65403 4.64253 -0.0273455 0
M  V30 2 N 0.0639553 3.41352 -0.181252 0
M  V30 3 C -1.15131 2.94343 0.337265 0
M  V30 4 O -1.74887 3.86744 1.05027 0
M  V30 5 C -1.77072 1.66146 0.157091 0
M  V30 6 C -1.39226 0.344688 0.201814 0
M  V30 7 C -0.169526 -0.0772689 0.924029 0
M  V30 8 N 1.07522 -0.382593 0.397191 0
M  V30 9 C 1.94584 -0.9337 1.38959 0
M  V30 10 C 3.35449 -0.453838 1.33637 0
M  V30 11 C 3.93629 -0.402994 -0.0476617 0
M  V30 12 C 2.92345 -0.89995 -1.05336 0
M  V30 13 C 1.55571 -0.237762 -0.850228 0
M  V30 14 N -2.37688 -0.467164 -0.206627 0
M  V30 15 N -3.38991 0.377336 -0.502582 0
M  V30 16 N -3.0772 1.61312 -0.304445 0
M  V30 17 C -2.58341 -1.87734 -0.266555 0
M  V30 18 N -1.83073 -2.9111 0.0301948 0
M  V30 19 O -2.46506 -4.02366 -0.0957301 0
M  V30 20 N -3.67024 -3.76662 -0.465848 0
M  V30 21 C -3.79776 -2.4358 -0.590091 0
M  V30 22 N -5.02165 -1.85353 -1.00937 0
M  V30 23 H 1.53191 4.78867 -0.531664 0
M  V30 24 H -0.0467618 5.34221 -0.439979 0
M  V30 25 H 0.562127 2.7039 -0.828712 0
M  V30 26 H -0.518866 -1.31037 1.07972 0
M  V30 27 H -0.159207 0.149464 2.034 0
M  V30 28 H 1.87183 -2.06477 1.28645 0
M  V30 29 H 1.53087 -0.701163 2.39022 0
M  V30 30 H 3.97673 -1.20853 1.91258 0
M  V30 31 H 3.45881 0.502541 1.85751 0
M  V30 32 H 4.29857 0.640418 -0.278786 0
M  V30 33 H 4.8474 -1.06909 -0.150725 0
M  V30 34 H 3.212 -0.740132 -2.08072 0
M  V30 35 H 2.74411 -1.9773 -0.826459 0
M  V30 36 H 0.89348 -0.701469 -1.63677 0
M  V30 37 H 1.68589 0.804673 -1.17796 0
M  V30 38 H -5.23052 -1.92923 -2.05374 0
M  V30 39 H -5.72185 -1.37004 -0.442694 0
M  V30 END ATOM
M  V30 BEGIN BOND
M  V30 1 1 1 2
M  V30 2 1 2 3
M  V30 3 2 3 4
M  V30 4 1 3 5
M  V30 5 2 5 6
M  V30 6 1 6 7
M  V30 7 1 7 8
M  V30 8 1 8 9
M  V30 9 1 9 10
M  V30 10 1 10 11
M  V30 11 1 11 12
M  V30 12 1 12 13
M  V30 13 1 6 14
M  V30 14 1 14 15
M  V30 15 2 15 16
M  V30 16 1 14 17
M  V30 17 2 17 18
M  V30 18 1 18 19
M  V30 19 1 19 20
M  V30 20 2 20 21
M  V30 21 1 21 22
M  V30 22 1 16 5
M  V30 23 1 21 17
M  V30 24 1 13 8
M  V30 25 1 1 23
M  V30 26 1 1 24
M  V30 27 1 2 25
M  V30 28 1 7 26
M  V30 29 1 7 27
M  V30 30 1 9 28
M  V30 31 1 9 29
M  V30 32 1 10 30
M  V30 33 1 10 31
M  V30 34 1 11 32
M  V30 35 1 11 33
M  V30 36 1 12 34
M  V30 37 1 12 35
M  V30 38 1 13 36
M  V30 39 1 13 37
M  V30 40 1 22 38
M  V30 41 1 22 39
M  V30 END BOND
M  V30 END CTAB
M  END
