
     RDKit          3D

  0  0  0  0  0  0  0  0  0  0999 V3000
M  V30 BEGIN CTAB
M  V30 COUNTS 51 52 0 0 0
M  V30 BEGIN ATOM
M  V30 1 N 5.4302 1.39181 -0.25769 0
M  V30 2 C 5.10926 0.068882 0.188745 0
M  V30 3 C 3.64198 -0.245447 -0.158765 0
M  V30 4 C 2.82351 0.758399 0.537537 0
M  V30 5 N 1.39662 0.660394 0.35632 0
M  V30 6 C 0.540855 -0.0804724 1.18081 0
M  V30 7 O 1.15876 -0.697858 2.13407 0
M  V30 8 C -0.901672 -0.265072 1.14445 0
M  V30 9 C -1.39072 -0.653309 -0.248542 0
M  V30 10 C -2.74728 -1.3439 -0.0943974 0
M  V30 11 C -3.64422 -0.783776 -1.17401 0
M  V30 12 C -4.23499 0.536544 -0.870196 0
M  V30 13 C -3.71651 1.29051 0.289004 0
M  V30 14 C -3.19956 0.47959 1.43504 0
M  V30 15 C -1.74603 0.852225 1.65114 0
M  V30 16 C -3.38523 -0.998806 1.21924 0
M  V30 17 N -4.81048 -1.24869 1.06882 0
M  V30 18 C 0.867814 1.37985 -0.778386 0
M  V30 19 C 3.56571 -0.153759 -1.67245 0
M  V30 20 C 3.41904 -1.66553 0.227822 0
M  V30 21 H 6.26601 1.3793 -0.883886 0
M  V30 22 H 5.51365 2.07786 0.5188 0
M  V30 23 H 5.76783 -0.673303 -0.307686 0
M  V30 24 H 5.22152 -0.00768638 1.2768 0
M  V30 25 H 3.13727 1.77023 0.22573 0
M  V30 26 H 3.05918 0.698213 1.63154 0
M  V30 27 H -1.10188 -1.17583 1.82494 0
M  V30 28 H -0.649294 -1.34299 -0.692751 0
M  V30 29 H -1.53255 0.270444 -0.811868 0
M  V30 30 H -2.60024 -2.41591 -0.239698 0
M  V30 31 H -4.43801 -1.5457 -1.34884 0
M  V30 32 H -3.03379 -0.781743 -2.11302 0
M  V30 33 H -5.36036 0.440727 -0.814504 0
M  V30 34 H -4.09034 1.18318 -1.78812 0
M  V30 35 H -4.56485 1.92296 0.687978 0
M  V30 36 H -2.96345 2.06219 -0.0497152 0
M  V30 37 H -3.73433 0.718271 2.39859 0
M  V30 38 H -1.53245 0.981419 2.75587 0
M  V30 39 H -1.4969 1.82089 1.20844 0
M  V30 40 H -3.04152 -1.56022 2.08309 0
M  V30 41 H -5.33249 -1.11278 1.95082 0
M  V30 42 H -5.02049 -2.12424 0.567869 0
M  V30 43 H 0.0220102 2.04964 -0.544672 0
M  V30 44 H 0.642797 0.675615 -1.63428 0
M  V30 45 H 1.63665 2.06714 -1.23909 0
M  V30 46 H 2.69096 -0.706042 -2.07775 0
M  V30 47 H 4.46026 -0.636109 -2.14705 0
M  V30 48 H 3.60043 0.904264 -1.98094 0
M  V30 49 H 4.17673 -2.28094 -0.342432 0
M  V30 50 H 3.67864 -1.85833 1.30065 0
M  V30 51 H 2.44195 -2.08209 -0.0632646 0
M  V30 END ATOM
M  V30 BEGIN BOND
M  V30 1 1 1 2
M  V30 2 1 2 3
M  V30 3 1 3 4
M  V30 4 1 4 5
M  V30 5 1 5 6
M  V30 6 2 6 7
M  V30 7 1 6 8
M  V30 8 1 8 9
M  V30 9 1 9 10
M  V30 10 1 10 11
M  V30 11 1 11 12
M  V30 12 1 12 13
M  V30 13 1 13 14
M  V30 14 1 14 15
M  V30 15 1 14 16
M  V30 16 1 16 17
M  V30 17 1 5 18
M  V30 18 1 3 19
M  V30 19 1 3 20
M  V30 20 1 15 8
M  V30 21 1 16 10
M  V30 22 1 1 21
M  V30 23 1 1 22
M  V30 24 1 2 23
M  V30 25 1 2 24
M  V30 26 1 4 25
M  V30 27 1 4 26
M  V30 28 1 8 27
M  V30 29 1 9 28
M  V30 30 1 9 29
M  V30 31 1 10 30
M  V30 32 1 11 31
M  V30 33 1 11 32
M  V30 34 1 12 33
M  V30 35 1 12 34
M  V30 36 1 13 35
M  V30 37 1 13 36
M  V30 38 1 14 37
M  V30 39 1 15 38
M  V30 40 1 15 39
M  V30 41 1 16 40
M  V30 42 1 17 41
M  V30 43 1 17 42
M  V30 44 1 18 43
M  V30 45 1 18 44
M  V30 46 1 18 45
M  V30 47 1 19 46
M  V30 48 1 19 47
M  V30 49 1 19 48
M  V30 50 1 20 49
M  V30 51 1 20 50
M  V30 52 1 20 51
M  V30 END BOND
M  V30 END CTAB
M  END
