
     RDKit          3D

  0  0  0  0  0  0  0  0  0  0999 V3000
M  V30 BEGIN CTAB
M  V30 COUNTS 24 24 0 0 0
M  V30 BEGIN ATOM
M  V30 1 N -2.49325 1.6956 -0.507701 0
M  V30 2 N -2.07977 0.449508 -0.279345 0
M  V30 3 C -1.6651 -0.800433 -0.0503506 0
M  V30 4 O -2.23131 -1.82796 -0.612053 0
M  V30 5 C -0.552272 -1.24533 0.834016 0
M  V30 6 C 0.46861 -0.273152 1.25356 0
M  V30 7 C 1.27789 0.293946 0.138696 0
M  V30 8 C 1.19633 1.41356 -0.624001 0
M  V30 9 C 2.22104 1.41657 -1.54196 0
M  V30 10 C 2.94732 0.273635 -1.33869 0
M  V30 11 N 2.3678 -0.382906 -0.329177 0
M  V30 12 N -1.09488 -2.06165 1.88237 0
M  V30 13 H -2.51295 2.02724 -1.5128 0
M  V30 14 H -2.12918 2.46196 0.11843 0
M  V30 15 H -3.13909 0.0147884 -1.00933 0
M  V30 16 H 0.0023622 -2.05531 0.176206 0
M  V30 17 H 1.17729 -0.733206 1.96955 0
M  V30 18 H -0.00372137 0.566612 1.83568 0
M  V30 19 H 0.45338 2.17378 -0.508363 0
M  V30 20 H 2.44576 2.16243 -2.29659 0
M  V30 21 H 3.85067 -0.0795144 -1.87193 0
M  V30 22 H 2.75057 -1.30648 0.0285194 0
M  V30 23 H -1.40499 -1.52948 2.71753 0
M  V30 24 H -1.85251 -2.65421 1.52773 0
M  V30 END ATOM
M  V30 BEGIN BOND
M  V30 1 1 1 2
M  V30 2 1 2 3
M  V30 3 2 3 4
M  V30 4 1 3 5
M  V30 5 1 5 6
M  V30 6 1 6 7
M  V30 7 2 7 8
M  V30 8 1 8 9
M  V30 9 2 9 10
M  V30 10 1 10 11
M  V30 11 1 5 12
M  V30 12 1 11 7
M  V30 13 1 1 13
M  V30 14 1 1 14
M  V30 15 1 2 15
M  V30 16 1 5 16
M  V30 17 1 6 17
M  V30 18 1 6 18
M  V30 19 1 8 19
M  V30 20 1 9 20
M  V30 21 1 10 21
M  V30 22 1 11 22
M  V30 23 1 12 23
M  V30 24 1 12 24
M  V30 END BOND
M  V30 END CTAB
M  END
