
     RDKit          3D

  0  0  0  0  0  0  0  0  0  0999 V3000
M  V30 BEGIN CTAB
M  V30 COUNTS 33 34 0 0 0
M  V30 BEGIN ATOM
M  V30 1 N -3.76685 1.15576 -1.42208 0
M  V30 2 C -2.83463 1.43798 -0.34518 0
M  V30 3 C -1.66654 0.485024 -0.496781 0
M  V30 4 C -2.24331 -0.910443 -0.39648 0
M  V30 5 C -1.76982 -1.44248 0.91581 0
M  V30 6 C -0.624241 -0.541568 1.31079 0
M  V30 7 N -0.675164 0.609357 0.485011 0
M  V30 8 S 0.748412 1.42056 0.158167 0
M  V30 9 O 0.963758 2.52781 1.15347 0
M  V30 10 O 0.616232 2.1035 -1.19119 0
M  V30 11 C 2.12887 0.371965 0.186814 0
M  V30 12 C 3.15591 0.551707 1.1293 0
M  V30 13 C 4.24315 -0.290946 1.15355 0
M  V30 14 Cl 5.51296 -0.0457395 2.34046 0
M  V30 15 C 4.36135 -1.33281 0.260593 0
M  V30 16 N 3.38232 -1.50133 -0.635525 0
M  V30 17 C 2.28533 -0.680301 -0.687807 0
M  V30 18 N 1.30252 -0.925964 -1.67915 0
M  V30 19 H -3.67175 1.82642 -2.21351 0
M  V30 20 H -4.75086 1.15529 -1.12701 0
M  V30 21 H -2.53625 2.49587 -0.443948 0
M  V30 22 H -3.37017 1.31754 0.597276 0
M  V30 23 H -1.26578 0.632212 -1.4981 0
M  V30 24 H -1.89911 -1.53853 -1.26274 0
M  V30 25 H -3.33844 -0.926661 -0.406721 0
M  V30 26 H -1.47353 -2.50979 0.849533 0
M  V30 27 H -2.58881 -1.39884 1.67721 0
M  V30 28 H -0.680561 -0.292033 2.38975 0
M  V30 29 H 0.310794 -1.12039 1.18512 0
M  V30 30 H 3.02709 1.37911 1.81212 0
M  V30 31 H 5.23121 -1.99792 0.28882 0
M  V30 32 H 0.942055 -1.87808 -1.84804 0
M  V30 33 H 0.943852 -0.136272 -2.23952 0
M  V30 END ATOM
M  V30 BEGIN BOND
M  V30 1 1 1 2
M  V30 2 1 2 3
M  V30 3 1 3 4
M  V30 4 1 4 5
M  V30 5 1 5 6
M  V30 6 1 6 7
M  V30 7 1 7 8
M  V30 8 2 8 9
M  V30 9 2 8 10
M  V30 10 1 8 11
M  V30 11 2 11 12
M  V30 12 1 12 13
M  V30 13 1 13 14
M  V30 14 2 13 15
M  V30 15 1 15 16
M  V30 16 2 16 17
M  V30 17 1 17 18
M  V30 18 1 7 3
M  V30 19 1 17 11
M  V30 20 1 1 19
M  V30 21 1 1 20
M  V30 22 1 2 21
M  V30 23 1 2 22
M  V30 24 1 3 23
M  V30 25 1 4 24
M  V30 26 1 4 25
M  V30 27 1 5 26
M  V30 28 1 5 27
M  V30 29 1 6 28
M  V30 30 1 6 29
M  V30 31 1 12 30
M  V30 32 1 15 31
M  V30 33 1 18 32
M  V30 34 1 18 33
M  V30 END BOND
M  V30 END CTAB
M  END
