
     RDKit          3D

  0  0  0  0  0  0  0  0  0  0999 V3000
M  V30 BEGIN CTAB
M  V30 COUNTS 39 42 0 0 0
M  V30 BEGIN ATOM
M  V30 1 N 2.81624 -0.651124 0.960742 0
M  V30 2 C 3.38638 0.0235778 -0.122784 0
M  V30 3 N 2.615 0.25517 -1.15394 0
M  V30 4 N 1.28886 -0.169386 -1.13112 0
M  V30 5 C 0.298113 0.508384 -0.775415 0
M  V30 6 C -1.11018 0.22781 -0.691993 0
M  V30 7 C -1.63671 -1.01643 -1.04662 0
M  V30 8 C -0.860834 -2.05096 -1.49313 0
M  V30 9 C -1.40499 -3.29446 -1.84478 0
M  V30 10 C -2.7441 -3.53542 -1.75831 0
M  V30 11 C -3.53466 -2.51096 -1.31334 0
M  V30 12 C -3.00499 -1.28625 -0.966231 0
M  V30 13 C -3.88257 -0.311778 -0.526783 0
M  V30 14 C -3.3864 0.91486 -0.174326 0
M  V30 15 C -2.03428 1.17817 -0.254854 0
M  V30 16 C -1.60947 2.43522 0.116452 0
M  V30 17 C -2.50726 3.42216 0.562244 0
M  V30 18 C -3.82957 3.11476 0.624093 0
M  V30 19 C -4.28864 1.85445 0.256018 0
M  V30 20 C 4.77779 0.450855 -0.106639 0
M  V30 21 N 5.47994 1.10284 -1.05066 0
M  V30 22 O 6.69265 1.28789 -0.62794 0
M  V30 23 N 6.82205 0.782452 0.563143 0
M  V30 24 C 5.64035 0.243708 0.933218 0
M  V30 25 N 5.42459 -0.392153 2.17265 0
M  V30 26 H 2.60385 -1.6672 1.00289 0
M  V30 27 H 2.56869 -0.10601 1.82738 0
M  V30 28 H 0.590836 1.53158 -0.465209 0
M  V30 29 H 0.196237 -1.93998 -1.58802 0
M  V30 30 H -0.751582 -4.08273 -2.19276 0
M  V30 31 H -3.15577 -4.49004 -2.0288 0
M  V30 32 H -4.61016 -2.70074 -1.24278 0
M  V30 33 H -4.9407 -0.534358 -0.469332 0
M  V30 34 H -0.585082 2.73496 0.0894293 0
M  V30 35 H -2.13888 4.38707 0.841861 0
M  V30 36 H -4.52028 3.86612 0.96433 0
M  V30 37 H -5.34927 1.68312 0.33105 0
M  V30 38 H 5.31644 0.163383 3.04715 0
M  V30 39 H 5.36835 -1.42856 2.24519 0
M  V30 END ATOM
M  V30 BEGIN BOND
M  V30 1 1 1 2
M  V30 2 2 2 3
M  V30 3 1 3 4
M  V30 4 2 4 5
M  V30 5 1 5 6
M  V30 6 1 6 7
M  V30 7 2 7 8
M  V30 8 1 8 9
M  V30 9 2 9 10
M  V30 10 1 10 11
M  V30 11 2 11 12
M  V30 12 1 12 13
M  V30 13 2 13 14
M  V30 14 1 14 15
M  V30 15 1 15 16
M  V30 16 2 16 17
M  V30 17 1 17 18
M  V30 18 2 18 19
M  V30 19 1 2 20
M  V30 20 2 20 21
M  V30 21 1 21 22
M  V30 22 1 22 23
M  V30 23 2 23 24
M  V30 24 1 24 25
M  V30 25 2 15 6
M  V30 26 1 24 20
M  V30 27 1 12 7
M  V30 28 1 19 14
M  V30 29 1 1 26
M  V30 30 1 1 27
M  V30 31 1 5 28
M  V30 32 1 8 29
M  V30 33 1 9 30
M  V30 34 1 10 31
M  V30 35 1 11 32
M  V30 36 1 13 33
M  V30 37 1 16 34
M  V30 38 1 17 35
M  V30 39 1 18 36
M  V30 40 1 19 37
M  V30 41 1 25 38
M  V30 42 1 25 39
M  V30 END BOND
M  V30 END CTAB
M  END
