
     RDKit          3D

  0  0  0  0  0  0  0  0  0  0999 V3000
M  V30 BEGIN CTAB
M  V30 COUNTS 27 28 0 0 0
M  V30 BEGIN ATOM
M  V30 1 N -3.03301 -1.09542 1.80983 0
M  V30 2 C -2.12352 -0.393446 0.981034 0
M  V30 3 C -1.20535 -1.04311 0.301627 0
M  V30 4 C -1.1833 -2.51265 0.452662 0
M  V30 5 N -1.14771 -3.66226 0.566345 0
M  V30 6 C -0.242664 -0.394114 -0.559099 0
M  V30 7 C 1.16241 -0.44315 -0.0706507 0
M  V30 8 C 1.46038 0.227882 1.08378 0
M  V30 9 C 2.75772 0.229705 1.60559 0
M  V30 10 N 3.69609 -0.450572 0.931556 0
M  V30 11 C 3.44661 -1.12057 -0.201817 0
M  V30 12 C 2.17323 -1.12292 -0.714887 0
M  V30 13 C -0.584983 0.93558 -1.10848 0
M  V30 14 C 0.0846728 1.34416 -2.35285 0
M  V30 15 N 0.624542 1.64679 -3.33546 0
M  V30 16 C -1.41701 1.81021 -0.624891 0
M  V30 17 N -1.64189 3.04938 -1.26715 0
M  V30 18 S -2.27291 1.38143 0.887554 0
M  V30 19 H -3.9774 -0.702338 1.98901 0
M  V30 20 H -2.80227 -1.99894 2.25643 0
M  V30 21 H -0.206011 -1.05251 -1.50463 0
M  V30 22 H 0.732685 0.800376 1.67713 0
M  V30 23 H 3.00722 0.7558 2.51698 0
M  V30 24 H 4.24087 -1.6558 -0.709711 0
M  V30 25 H 1.9142 -1.64568 -1.62494 0
M  V30 26 H -1.73112 3.17891 -2.29572 0
M  V30 27 H -1.73148 3.93327 -0.689239 0
M  V30 END ATOM
M  V30 BEGIN BOND
M  V30 1 1 1 2
M  V30 2 2 2 3
M  V30 3 1 3 4
M  V30 4 3 4 5
M  V30 5 1 3 6
M  V30 6 1 6 7
M  V30 7 2 7 8
M  V30 8 1 8 9
M  V30 9 2 9 10
M  V30 10 1 10 11
M  V30 11 2 11 12
M  V30 12 1 6 13
M  V30 13 1 13 14
M  V30 14 3 14 15
M  V30 15 2 13 16
M  V30 16 1 16 17
M  V30 17 1 16 18
M  V30 18 1 18 2
M  V30 19 1 12 7
M  V30 20 1 1 19
M  V30 21 1 1 20
M  V30 22 1 6 21
M  V30 23 1 8 22
M  V30 24 1 9 23
M  V30 25 1 11 24
M  V30 26 1 12 25
M  V30 27 1 17 26
M  V30 28 1 17 27
M  V30 END BOND
M  V30 END CTAB
M  END
