
     RDKit          3D

  0  0  0  0  0  0  0  0  0  0999 V3000
M  V30 BEGIN CTAB
M  V30 COUNTS 21 22 0 0 0
M  V30 BEGIN ATOM
M  V30 1 F -0.943515 -0.733935 1.99869 0
M  V30 2 C -1.6651 -0.291899 0.951029 0
M  V30 3 C -3.06138 -0.19265 1.13919 0
M  V30 4 N -3.86907 0.193275 0.161545 0
M  V30 5 C -3.32077 0.48955 -1.02139 0
M  V30 6 C -1.97429 0.406759 -1.24331 0
M  V30 7 C -1.06852 0.000827298 -0.232514 0
M  V30 8 C 0.331897 -0.103328 -0.542489 0
M  V30 9 N 0.743006 -0.223027 -1.8536 0
M  V30 10 N 2.04793 -0.258458 -1.93751 0
M  V30 11 C 2.54973 -0.165129 -0.711528 0
M  V30 12 N 1.46463 -0.0695958 0.128069 0
M  V30 13 N 1.61479 0.0838868 1.49748 0
M  V30 14 N 3.91653 -0.158972 -0.283694 0
M  V30 15 H -3.4736 -0.436113 2.09684 0
M  V30 16 H -3.96653 0.806644 -1.83099 0
M  V30 17 H -1.54314 0.652628 -2.208 0
M  V30 18 H 1.96135 -0.71825 2.09097 0
M  V30 19 H 1.40862 0.971042 2.02331 0
M  V30 20 H 4.57059 -0.936607 -0.439553 0
M  V30 21 H 4.27682 0.683353 0.217452 0
M  V30 END ATOM
M  V30 BEGIN BOND
M  V30 1 1 1 2
M  V30 2 2 2 3
M  V30 3 1 3 4
M  V30 4 2 4 5
M  V30 5 1 5 6
M  V30 6 2 6 7
M  V30 7 1 7 8
M  V30 8 2 8 9
M  V30 9 1 9 10
M  V30 10 2 10 11
M  V30 11 1 11 12
M  V30 12 1 12 13
M  V30 13 1 11 14
M  V30 14 1 7 2
M  V30 15 1 12 8
M  V30 16 1 3 15
M  V30 17 1 5 16
M  V30 18 1 6 17
M  V30 19 1 13 18
M  V30 20 1 13 19
M  V30 21 1 14 20
M  V30 22 1 14 21
M  V30 END BOND
M  V30 END CTAB
M  END
