
     RDKit          3D

  0  0  0  0  0  0  0  0  0  0999 V3000
M  V30 BEGIN CTAB
M  V30 COUNTS 41 43 0 0 0
M  V30 BEGIN ATOM
M  V30 1 N -5.29398 1.66771 -0.363864 0
M  V30 2 C -6.09268 0.4571 -0.243384 0
M  V30 3 C -5.29974 -0.742646 -0.752035 0
M  V30 4 C -4.04383 -0.884002 0.0723975 0
M  V30 5 C -4.07697 -1.66511 1.20917 0
M  V30 6 C -2.93865 -1.79972 1.97359 0
M  V30 7 C -1.78487 -1.14765 1.58459 0
M  V30 8 C -1.73647 -0.374395 0.463189 0
M  V30 9 C -2.9032 -0.248533 -0.300807 0
M  V30 10 C -0.520254 0.295706 -0.0123611 0
M  V30 11 O -0.671148 1.40867 -0.629771 0
M  V30 12 C 0.779369 -0.260449 0.195686 0
M  V30 13 C 1.95112 0.430321 -0.188864 0
M  V30 14 N 2.01773 1.72938 -0.767487 0
M  V30 15 N 3.03019 -0.314502 0.0675614 0
M  V30 16 N 2.6036 -1.43535 0.590992 0
M  V30 17 C 1.25567 -1.44103 0.683704 0
M  V30 18 C 4.38973 0.0419656 -0.182028 0
M  V30 19 C 5.03028 -0.359796 -1.35237 0
M  V30 20 C 6.32026 -0.0539149 -1.64986 0
M  V30 21 C 7.04814 0.696539 -0.749255 0
M  V30 22 F 8.33168 1.00876 -1.03097 0
M  V30 23 C 6.45527 1.12051 0.430265 0
M  V30 24 C 5.13197 0.792152 0.707874 0
M  V30 25 H -4.71853 1.79212 0.494611 0
M  V30 26 H -5.94608 2.45054 -0.54079 0
M  V30 27 H -7.04561 0.54496 -0.766779 0
M  V30 28 H -6.3189 0.323304 0.833059 0
M  V30 29 H -5.89453 -1.65678 -0.645679 0
M  V30 30 H -5.00493 -0.550542 -1.80147 0
M  V30 31 H -4.98901 -2.16461 1.49308 0
M  V30 32 H -2.99037 -2.42548 2.87042 0
M  V30 33 H -0.905431 -1.23806 2.22712 0
M  V30 34 H -2.84593 0.379561 -1.19709 0
M  V30 35 H 2.3058 1.80411 -1.75824 0
M  V30 36 H 1.79487 2.5953 -0.252253 0
M  V30 37 H 0.658682 -2.26034 1.06374 0
M  V30 38 H 4.41346 -0.951691 -2.03067 0
M  V30 39 H 6.75319 -0.403211 -2.58369 0
M  V30 40 H 7.06839 1.70254 1.10144 0
M  V30 41 H 4.68173 1.13655 1.64499 0
M  V30 END ATOM
M  V30 BEGIN BOND
M  V30 1 1 1 2
M  V30 2 1 2 3
M  V30 3 1 3 4
M  V30 4 2 4 5
M  V30 5 1 5 6
M  V30 6 2 6 7
M  V30 7 1 7 8
M  V30 8 2 8 9
M  V30 9 1 8 10
M  V30 10 2 10 11
M  V30 11 1 10 12
M  V30 12 2 12 13
M  V30 13 1 13 14
M  V30 14 1 13 15
M  V30 15 1 15 16
M  V30 16 2 16 17
M  V30 17 1 15 18
M  V30 18 2 18 19
M  V30 19 1 19 20
M  V30 20 2 20 21
M  V30 21 1 21 22
M  V30 22 1 21 23
M  V30 23 2 23 24
M  V30 24 1 9 4
M  V30 25 1 17 12
M  V30 26 1 24 18
M  V30 27 1 1 25
M  V30 28 1 1 26
M  V30 29 1 2 27
M  V30 30 1 2 28
M  V30 31 1 3 29
M  V30 32 1 3 30
M  V30 33 1 5 31
M  V30 34 1 6 32
M  V30 35 1 7 33
M  V30 36 1 9 34
M  V30 37 1 14 35
M  V30 38 1 14 36
M  V30 39 1 17 37
M  V30 40 1 19 38
M  V30 41 1 20 39
M  V30 42 1 23 40
M  V30 43 1 24 41
M  V30 END BOND
M  V30 END CTAB
M  END
