
     RDKit          3D

  0  0  0  0  0  0  0  0  0  0999 V3000
M  V30 BEGIN CTAB
M  V30 COUNTS 15 15 0 0 0
M  V30 BEGIN ATOM
M  V30 1 F 2.89318 -0.0916839 1.47827 0
M  V30 2 C 2.31651 -0.115339 0.22745 0
M  V30 3 C 0.937123 0.462845 0.262192 0
M  V30 4 N 0.620961 1.70799 0.647775 0
M  V30 5 N -0.683617 1.89449 0.558342 0
M  V30 6 C -1.25084 0.754408 0.104996 0
M  V30 7 N -0.229795 -0.106797 -0.0677555 0
M  V30 8 N -0.334884 -1.41764 -0.524956 0
M  V30 9 N -2.62901 0.502419 -0.141868 0
M  V30 10 F 3.12076 0.607894 -0.630792 0
M  V30 11 H 2.29018 -1.15088 -0.12714 0
M  V30 12 H -0.692762 -2.15189 0.123421 0
M  V30 13 H -0.0679134 -1.70732 -1.50377 0
M  V30 14 H -3.05545 0.489232 -1.08399 0
M  V30 15 H -3.23446 0.322271 0.677825 0
M  V30 END ATOM
M  V30 BEGIN BOND
M  V30 1 1 1 2
M  V30 2 1 2 3
M  V30 3 2 3 4
M  V30 4 1 4 5
M  V30 5 2 5 6
M  V30 6 1 6 7
M  V30 7 1 7 8
M  V30 8 1 6 9
M  V30 9 1 2 10
M  V30 10 1 7 3
M  V30 11 1 2 11
M  V30 12 1 8 12
M  V30 13 1 8 13
M  V30 14 1 9 14
M  V30 15 1 9 15
M  V30 END BOND
M  V30 END CTAB
M  END
