
     RDKit          3D

  0  0  0  0  0  0  0  0  0  0999 V3000
M  V30 BEGIN CTAB
M  V30 COUNTS 19 19 0 0 0
M  V30 BEGIN ATOM
M  V30 1 C -2.79462 -0.570782 0.36751 0
M  V30 2 C -1.94936 -0.321566 -0.847122 0
M  V30 3 C -0.521579 -0.0822792 -0.452994 0
M  V30 4 N -0.0835304 1.16298 -0.188614 0
M  V30 5 C 1.21179 1.4049 0.172 0
M  V30 6 N 1.61299 2.73216 0.436991 0
M  V30 7 N 2.06338 0.381288 0.264298 0
M  V30 8 C 1.65934 -0.879084 0.00675914 0
M  V30 9 N 2.5824 -1.94513 0.112102 0
M  V30 10 N 0.373639 -1.0744 -0.34569 0
M  V30 11 H -3.83023 -0.242117 0.150509 0
M  V30 12 H -2.44391 -0.0345037 1.26805 0
M  V30 13 H -2.83312 -1.67452 0.54203 0
M  V30 14 H -2.03353 -1.19242 -1.51957 0
M  V30 15 H -2.37078 0.575123 -1.36148 0
M  V30 16 H 2.27496 2.92569 1.20547 0
M  V30 17 H 1.25429 3.51897 -0.127344 0
M  V30 18 H 2.35465 -2.74267 0.731801 0
M  V30 19 H 3.47323 -1.94165 -0.414702 0
M  V30 END ATOM
M  V30 BEGIN BOND
M  V30 1 1 1 2
M  V30 2 1 2 3
M  V30 3 2 3 4
M  V30 4 1 4 5
M  V30 5 1 5 6
M  V30 6 2 5 7
M  V30 7 1 7 8
M  V30 8 1 8 9
M  V30 9 2 8 10
M  V30 10 1 10 3
M  V30 11 1 1 11
M  V30 12 1 1 12
M  V30 13 1 1 13
M  V30 14 1 2 14
M  V30 15 1 2 15
M  V30 16 1 6 16
M  V30 17 1 6 17
M  V30 18 1 9 18
M  V30 19 1 9 19
M  V30 END BOND
M  V30 END CTAB
M  END
