
     RDKit          3D

  0  0  0  0  0  0  0  0  0  0999 V3000
M  V30 BEGIN CTAB
M  V30 COUNTS 23 22 0 0 0
M  V30 BEGIN ATOM
M  V30 1 C 0.687555 1.84363 0.398874 0
M  V30 2 C 0.431172 0.498672 -0.172576 0
M  V30 3 N 1.44206 -0.235674 -0.467943 0
M  V30 4 N 2.75878 0.18291 -0.272216 0
M  V30 5 C 3.77454 -0.811461 -0.159612 0
M  V30 6 S 3.41225 -2.41344 -0.25677 0
M  V30 7 N 5.13819 -0.481975 0.0400465 0
M  V30 8 C -0.948568 0.0325957 -0.38926 0
M  V30 9 N -1.96512 0.75888 -0.0973715 0
M  V30 10 N -3.2753 0.327695 -0.298326 0
M  V30 11 C -3.78682 -0.843579 0.317381 0
M  V30 12 S -2.81553 -1.7223 1.29574 0
M  V30 13 N -5.11544 -1.29502 0.12343 0
M  V30 14 H 1.20956 1.79701 1.37761 0
M  V30 15 H -0.271628 2.37991 0.566652 0
M  V30 16 H 1.26068 2.47688 -0.333932 0
M  V30 17 H 3.04968 1.17175 -0.202856 0
M  V30 18 H 5.64906 -0.984096 0.791398 0
M  V30 19 H 5.61074 0.231604 -0.539019 0
M  V30 20 H -1.14615 -0.944807 -0.804703 0
M  V30 21 H -3.89089 0.887208 -0.920262 0
M  V30 22 H -5.86366 -0.759905 0.6442 0
M  V30 23 H -5.34516 -2.09649 -0.487487 0
M  V30 END ATOM
M  V30 BEGIN BOND
M  V30 1 1 1 2
M  V30 2 2 2 3
M  V30 3 1 3 4
M  V30 4 1 4 5
M  V30 5 2 5 6
M  V30 6 1 5 7
M  V30 7 1 2 8
M  V30 8 2 8 9
M  V30 9 1 9 10
M  V30 10 1 10 11
M  V30 11 2 11 12
M  V30 12 1 11 13
M  V30 13 1 1 14
M  V30 14 1 1 15
M  V30 15 1 1 16
M  V30 16 1 4 17
M  V30 17 1 7 18
M  V30 18 1 7 19
M  V30 19 1 8 20
M  V30 20 1 10 21
M  V30 21 1 13 22
M  V30 22 1 13 23
M  V30 END BOND
M  V30 END CTAB
M  END
