
     RDKit          3D

  0  0  0  0  0  0  0  0  0  0999 V3000
M  V30 BEGIN CTAB
M  V30 COUNTS 41 43 0 0 0
M  V30 BEGIN ATOM
M  V30 1 C 3.85952 0.931025 -2.30067 0
M  V30 2 C 2.84287 1.91344 -2.81393 0
M  V30 3 O 2.26618 2.68092 -1.80019 0
M  V30 4 C 1.53516 2.22724 -0.732406 0
M  V30 5 C 1.24585 0.894909 -0.499725 0
M  V30 6 C 0.511502 0.508368 0.585839 0
M  V30 7 C 0.0430693 1.45856 1.47597 0
M  V30 8 C 0.329073 2.78528 1.2472 0
M  V30 9 C 1.06569 3.19863 0.162583 0
M  V30 10 O 1.35162 4.54394 -0.0630175 0
M  V30 11 C 0.200172 -0.933224 0.830488 0
M  V30 12 C 0.260822 -1.20418 2.27058 0
M  V30 13 C -0.704112 -1.735 2.99835 0
M  V30 14 N -0.529701 -1.952 4.39483 0
M  V30 15 O -1.88434 -2.06998 2.35378 0
M  V30 16 C -2.07661 -1.86846 0.997881 0
M  V30 17 C -1.08567 -1.31964 0.232416 0
M  V30 18 C -1.32099 -1.1322 -1.13779 0
M  V30 19 C -2.5139 -1.48196 -1.73464 0
M  V30 20 C -3.50799 -2.03309 -0.96402 0
M  V30 21 C -3.27422 -2.2146 0.374129 0
M  V30 22 N -4.73177 -2.39472 -1.56179 0
M  V30 23 C 1.47969 -0.873497 3.00932 0
M  V30 24 N 2.45904 -0.603601 3.57809 0
M  V30 25 H 4.87809 1.2874 -2.60727 0
M  V30 26 H 3.88222 0.866209 -1.18897 0
M  V30 27 H 3.65136 -0.0761046 -2.68871 0
M  V30 28 H 3.29056 2.5719 -3.60144 0
M  V30 29 H 2.05905 1.31581 -3.36636 0
M  V30 30 H 1.60274 0.125195 -1.19112 0
M  V30 31 H -0.542527 1.13174 2.33871 0
M  V30 32 H -0.0322546 3.54025 1.9373 0
M  V30 33 H 1.00783 5.221 0.586401 0
M  V30 34 H 1.02895 -1.53961 0.362498 0
M  V30 35 H -0.105464 -2.82923 4.70992 0
M  V30 36 H -0.829594 -1.23107 5.05993 0
M  V30 37 H -0.565707 -0.701489 -1.78099 0
M  V30 38 H -2.65133 -1.31525 -2.81418 0
M  V30 39 H -4.02649 -2.64807 1.03665 0
M  V30 40 H -5.45965 -1.66883 -1.83134 0
M  V30 41 H -5.00869 -3.37602 -1.77935 0
M  V30 END ATOM
M  V30 BEGIN BOND
M  V30 1 1 1 2
M  V30 2 1 2 3
M  V30 3 1 3 4
M  V30 4 2 4 5
M  V30 5 1 5 6
M  V30 6 2 6 7
M  V30 7 1 7 8
M  V30 8 2 8 9
M  V30 9 1 9 10
M  V30 10 1 6 11
M  V30 11 1 11 12
M  V30 12 2 12 13
M  V30 13 1 13 14
M  V30 14 1 13 15
M  V30 15 1 15 16
M  V30 16 2 16 17
M  V30 17 1 17 18
M  V30 18 2 18 19
M  V30 19 1 19 20
M  V30 20 2 20 21
M  V30 21 1 20 22
M  V30 22 1 12 23
M  V30 23 3 23 24
M  V30 24 1 9 4
M  V30 25 1 17 11
M  V30 26 1 21 16
M  V30 27 1 1 25
M  V30 28 1 1 26
M  V30 29 1 1 27
M  V30 30 1 2 28
M  V30 31 1 2 29
M  V30 32 1 5 30
M  V30 33 1 7 31
M  V30 34 1 8 32
M  V30 35 1 10 33
M  V30 36 1 11 34
M  V30 37 1 14 35
M  V30 38 1 14 36
M  V30 39 1 18 37
M  V30 40 1 19 38
M  V30 41 1 21 39
M  V30 42 1 22 40
M  V30 43 1 22 41
M  V30 END BOND
M  V30 END CTAB
M  END
