
     RDKit          3D

  0  0  0  0  0  0  0  0  0  0999 V3000
M  V30 BEGIN CTAB
M  V30 COUNTS 47 50 0 0 0
M  V30 BEGIN ATOM
M  V30 1 N 6.82293 -0.525934 -0.188461 0
M  V30 2 C 5.49598 -0.11525 0.152145 0
M  V30 3 N 4.54608 -1.01108 0.369018 0
M  V30 4 C 3.26704 -0.641168 0.694998 0
M  V30 5 S 2.04394 -1.88685 1.01672 0
M  V30 6 C 0.428384 -1.17953 1.34579 0
M  V30 7 C -0.185302 -0.65377 0.130948 0
M  V30 8 O 0.513564 0.241353 -0.487692 0
M  V30 9 N -1.42473 -0.982763 -0.440595 0
M  V30 10 C -1.98785 -0.0902899 -1.45342 0
M  V30 11 C -3.48787 -0.215126 -1.565 0
M  V30 12 O -4.0781 -0.765562 -0.368448 0
M  V30 13 C -3.5704 -2.01606 0.0133123 0
M  V30 14 C -2.18308 -2.10267 -0.0362101 0
M  V30 15 C -1.58299 -3.28181 0.30839 0
M  V30 16 C -2.36371 -4.34088 0.696973 0
M  V30 17 C -3.74439 -4.26674 0.754574 0
M  V30 18 C -4.36714 -3.06557 0.400513 0
M  V30 19 C -1.7576 1.3474 -1.03626 0
M  V30 20 C -1.28685 2.30402 -1.89958 0
M  V30 21 C -1.10293 3.61454 -1.48578 0
M  V30 22 C -1.38315 4.01455 -0.193876 0
M  V30 23 C -1.85643 3.04252 0.666815 0
M  V30 24 C -2.04276 1.73603 0.263942 0
M  V30 25 N 3.07538 0.679586 0.771585 0
M  V30 26 C 3.98019 1.61935 0.566758 0
M  V30 27 C 5.27364 1.23803 0.236927 0
M  V30 28 N 3.67842 3.00101 0.679059 0
M  V30 29 H 7.59626 -0.279937 0.461341 0
M  V30 30 H 7.02723 -1.05595 -1.05509 0
M  V30 31 H -0.239689 -1.81479 1.94986 0
M  V30 32 H 0.598522 -0.284499 2.06724 0
M  V30 33 H -1.54027 -0.211196 -2.43428 0
M  V30 34 H -3.95534 0.790636 -1.69647 0
M  V30 35 H -3.73553 -0.788562 -2.45632 0
M  V30 36 H -0.506858 -3.36536 0.245983 0
M  V30 37 H -1.82662 -5.25571 0.960455 0
M  V30 38 H -4.32246 -5.1021 1.06253 0
M  V30 39 H -5.45418 -2.9711 0.433932 0
M  V30 40 H -1.06241 1.99495 -2.92486 0
M  V30 41 H -0.726437 4.38009 -2.18117 0
M  V30 42 H -1.2322 5.03355 0.0985334 0
M  V30 43 H -2.08903 3.31506 1.69632 0
M  V30 44 H -2.41984 0.960317 0.94907 0
M  V30 45 H 6.06402 1.9331 0.0549798 0
M  V30 46 H 2.68753 3.30969 0.761704 0
M  V30 47 H 4.41701 3.7145 0.682141 0
M  V30 END ATOM
M  V30 BEGIN BOND
M  V30 1 1 1 2
M  V30 2 2 2 3
M  V30 3 1 3 4
M  V30 4 1 4 5
M  V30 5 1 5 6
M  V30 6 1 6 7
M  V30 7 2 7 8
M  V30 8 1 7 9
M  V30 9 1 9 10
M  V30 10 1 10 11
M  V30 11 1 11 12
M  V30 12 1 12 13
M  V30 13 2 13 14
M  V30 14 1 14 15
M  V30 15 2 15 16
M  V30 16 1 16 17
M  V30 17 2 17 18
M  V30 18 1 10 19
M  V30 19 2 19 20
M  V30 20 1 20 21
M  V30 21 2 21 22
M  V30 22 1 22 23
M  V30 23 2 23 24
M  V30 24 2 4 25
M  V30 25 1 25 26
M  V30 26 2 26 27
M  V30 27 1 26 28
M  V30 28 1 27 2
M  V30 29 1 14 9
M  V30 30 1 24 19
M  V30 31 1 18 13
M  V30 32 1 1 29
M  V30 33 1 1 30
M  V30 34 1 6 31
M  V30 35 1 6 32
M  V30 36 1 10 33
M  V30 37 1 11 34
M  V30 38 1 11 35
M  V30 39 1 15 36
M  V30 40 1 16 37
M  V30 41 1 17 38
M  V30 42 1 18 39
M  V30 43 1 20 40
M  V30 44 1 21 41
M  V30 45 1 22 42
M  V30 46 1 23 43
M  V30 47 1 24 44
M  V30 48 1 27 45
M  V30 49 1 28 46
M  V30 50 1 28 47
M  V30 END BOND
M  V30 END CTAB
M  END
