
     RDKit          3D

  0  0  0  0  0  0  0  0  0  0999 V3000
M  V30 BEGIN CTAB
M  V30 COUNTS 43 45 0 0 0
M  V30 BEGIN ATOM
M  V30 1 O 1.38601 0.00581217 1.57353 0
M  V30 2 C 1.31495 0.434867 0.393011 0
M  V30 3 C 2.47296 1.20057 -0.113317 0
M  V30 4 C 3.74242 0.430908 0.0114338 0
M  V30 5 C 4.62902 0.648805 1.04613 0
M  V30 6 C 5.80216 -0.0687092 1.15357 0
M  V30 7 C 6.14335 -1.03685 0.232206 0
M  V30 8 C 5.26234 -1.2607 -0.80516 0
M  V30 9 C 4.08921 -0.542568 -0.911818 0
M  V30 10 N 2.27051 1.6411 -1.48702 0
M  V30 11 N 0.156051 0.161132 -0.353948 0
M  V30 12 C -0.93922 -0.581538 0.171717 0
M  V30 13 C -1.225 -1.84403 -0.653164 0
M  V30 14 C -2.12476 -2.69997 0.239986 0
M  V30 15 C -3.43135 -2.0145 0.437388 0
M  V30 16 C -3.37854 -0.549819 0.30626 0
M  V30 17 C -2.21672 0.182187 0.176981 0
M  V30 18 C -2.22154 1.56029 0.0568553 0
M  V30 19 C -3.43065 2.22069 0.0671258 0
M  V30 20 C -4.61739 1.50598 0.196292 0
M  V30 21 C -4.58535 0.131107 0.314608 0
M  V30 22 N -5.84927 2.21231 0.203936 0
M  V30 23 H 2.54542 2.13041 0.493773 0
M  V30 24 H 4.35723 1.42047 1.78076 0
M  V30 25 H 6.45424 0.142643 1.97856 0
M  V30 26 H 7.07522 -1.60482 0.320169 0
M  V30 27 H 5.51996 -2.02046 -1.53702 0
M  V30 28 H 3.38061 -0.703716 -1.72251 0
M  V30 29 H 3.20827 1.86088 -1.89448 0
M  V30 30 H 1.71803 2.52282 -1.53768 0
M  V30 31 H 0.0983758 0.516066 -1.32915 0
M  V30 32 H -0.777588 -0.91485 1.22206 0
M  V30 33 H -1.83631 -1.54682 -1.53078 0
M  V30 34 H -0.297306 -2.37029 -0.923678 0
M  V30 35 H -2.2329 -3.72481 -0.178314 0
M  V30 36 H -1.5987 -2.71566 1.23694 0
M  V30 37 H -4.14641 -2.38071 -0.355662 0
M  V30 38 H -3.86106 -2.31368 1.42888 0
M  V30 39 H -1.26934 2.07883 -0.0419345 0
M  V30 40 H -3.42959 3.3131 -0.0283824 0
M  V30 41 H -5.53218 -0.382511 0.412696 0
M  V30 42 H -6.30346 2.4845 -0.695906 0
M  V30 43 H -6.3217 2.47154 1.09928 0
M  V30 END ATOM
M  V30 BEGIN BOND
M  V30 1 2 1 2
M  V30 2 1 2 3
M  V30 3 1 3 4
M  V30 4 2 4 5
M  V30 5 1 5 6
M  V30 6 2 6 7
M  V30 7 1 7 8
M  V30 8 2 8 9
M  V30 9 1 3 10
M  V30 10 1 2 11
M  V30 11 1 11 12
M  V30 12 1 12 13
M  V30 13 1 13 14
M  V30 14 1 14 15
M  V30 15 1 15 16
M  V30 16 2 16 17
M  V30 17 1 17 18
M  V30 18 2 18 19
M  V30 19 1 19 20
M  V30 20 2 20 21
M  V30 21 1 20 22
M  V30 22 1 9 4
M  V30 23 1 17 12
M  V30 24 1 21 16
M  V30 25 1 3 23
M  V30 26 1 5 24
M  V30 27 1 6 25
M  V30 28 1 7 26
M  V30 29 1 8 27
M  V30 30 1 9 28
M  V30 31 1 10 29
M  V30 32 1 10 30
M  V30 33 1 11 31
M  V30 34 1 12 32
M  V30 35 1 13 33
M  V30 36 1 13 34
M  V30 37 1 14 35
M  V30 38 1 14 36
M  V30 39 1 15 37
M  V30 40 1 15 38
M  V30 41 1 18 39
M  V30 42 1 19 40
M  V30 43 1 21 41
M  V30 44 1 22 42
M  V30 45 1 22 43
M  V30 END BOND
M  V30 END CTAB
M  END
