
     RDKit          3D

  0  0  0  0  0  0  0  0  0  0999 V3000
M  V30 BEGIN CTAB
M  V30 COUNTS 46 49 0 0 0
M  V30 BEGIN ATOM
M  V30 1 C -5.68871 -2.49629 -0.793364 0
M  V30 2 C -5.48752 -1.60439 0.398782 0
M  V30 3 O -4.24412 -0.921956 0.31002 0
M  V30 4 C -3.04003 -1.60527 0.24738 0
M  V30 5 O -3.07169 -2.86216 0.271148 0
M  V30 6 C -1.77429 -0.870766 0.156335 0
M  V30 7 C -0.497406 -1.36934 0.0860161 0
M  V30 8 N -0.179952 -2.75624 0.0904932 0
M  V30 9 N 0.407803 -0.376125 0.0127494 0
M  V30 10 C -0.296292 0.766635 0.0364312 0
M  V30 11 C -1.65499 0.501269 0.125093 0
M  V30 12 N -2.51092 1.52791 0.160166 0
M  V30 13 C -2.03409 2.79822 0.108556 0
M  V30 14 C -2.92008 3.85815 0.144912 0
M  V30 15 C -2.43109 5.15887 0.0920197 0
M  V30 16 C -1.07175 5.39284 0.00385737 0
M  V30 17 C -0.197799 4.32751 -0.0316578 0
M  V30 18 C -0.684521 3.04182 0.0208362 0
M  V30 19 N 0.17994 2.03087 -0.0150363 0
M  V30 20 C 1.81777 -0.529273 -0.0717743 0
M  V30 21 C 2.65828 -0.376704 1.00265 0
M  V30 22 C 4.01462 -0.539435 0.850004 0
M  V30 23 C 4.5809 -0.858199 -0.370762 0
M  V30 24 C 3.72005 -1.0076 -1.43954 0
M  V30 25 C 2.35775 -0.845377 -1.29186 0
M  V30 26 S 6.31151 -1.05527 -0.516855 0
M  V30 27 O 6.72823 -0.673161 -1.91853 0
M  V30 28 O 7.04199 -0.0998055 0.404874 0
M  V30 29 N 6.79385 -2.66658 -0.236371 0
M  V30 30 H -6.72759 -2.43375 -1.19674 0
M  V30 31 H -4.99257 -2.17186 -1.59232 0
M  V30 32 H -5.50042 -3.56066 -0.548921 0
M  V30 33 H -6.2951 -0.884213 0.54247 0
M  V30 34 H -5.48321 -2.27306 1.30765 0
M  V30 35 H 0.115318 -3.17976 -0.795574 0
M  V30 36 H -0.266601 -3.26623 1.00219 0
M  V30 37 H -3.98937 3.68673 0.214037 0
M  V30 38 H -3.10794 5.99283 0.11937 0
M  V30 39 H -0.710358 6.39106 -0.0358691 0
M  V30 40 H 0.857165 4.53535 -0.100533 0
M  V30 41 H 2.2212 -0.129253 1.95145 0
M  V30 42 H 4.70321 -0.423963 1.68622 0
M  V30 43 H 4.13664 -1.25461 -2.39519 0
M  V30 44 H 1.70321 -0.971828 -2.16378 0
M  V30 45 H 6.7988 -3.23277 -1.10435 0
M  V30 46 H 7.71017 -2.71417 0.264181 0
M  V30 END ATOM
M  V30 BEGIN BOND
M  V30 1 1 1 2
M  V30 2 1 2 3
M  V30 3 1 3 4
M  V30 4 2 4 5
M  V30 5 1 4 6
M  V30 6 2 6 7
M  V30 7 1 7 8
M  V30 8 1 7 9
M  V30 9 1 9 10
M  V30 10 2 10 11
M  V30 11 1 11 12
M  V30 12 2 12 13
M  V30 13 1 13 14
M  V30 14 2 14 15
M  V30 15 1 15 16
M  V30 16 2 16 17
M  V30 17 1 17 18
M  V30 18 2 18 19
M  V30 19 1 9 20
M  V30 20 2 20 21
M  V30 21 1 21 22
M  V30 22 2 22 23
M  V30 23 1 23 24
M  V30 24 2 24 25
M  V30 25 1 23 26
M  V30 26 2 26 27
M  V30 27 2 26 28
M  V30 28 1 26 29
M  V30 29 1 11 6
M  V30 30 1 18 13
M  V30 31 1 25 20
M  V30 32 1 19 10
M  V30 33 1 1 30
M  V30 34 1 1 31
M  V30 35 1 1 32
M  V30 36 1 2 33
M  V30 37 1 2 34
M  V30 38 1 8 35
M  V30 39 1 8 36
M  V30 40 1 14 37
M  V30 41 1 15 38
M  V30 42 1 16 39
M  V30 43 1 17 40
M  V30 44 1 21 41
M  V30 45 1 22 42
M  V30 46 1 24 43
M  V30 47 1 25 44
M  V30 48 1 29 45
M  V30 49 1 29 46
M  V30 END BOND
M  V30 END CTAB
M  END
