
     RDKit          3D

  0  0  0  0  0  0  0  0  0  0999 V3000
M  V30 BEGIN CTAB
M  V30 COUNTS 21 22 0 0 0
M  V30 BEGIN ATOM
M  V30 1 N 3.19078 -0.450363 -0.0933213 0
M  V30 2 C 1.78322 -0.676164 -0.112934 0
M  V30 3 C 1.24942 -1.9148 -0.288674 0
M  V30 4 N -0.0732716 -2.02807 -0.292665 0
M  V30 5 C -0.93529 -1.01003 -0.135888 0
M  V30 6 C -0.381838 0.272266 0.0460392 0
M  V30 7 C 0.976962 0.445355 0.0584196 0
M  V30 8 N 1.57253 1.71252 0.23775 0
M  V30 9 C -1.23331 1.31878 0.206871 0
M  V30 10 I -0.525782 3.28342 0.486964 0
M  V30 11 C -2.60501 1.08529 0.185794 0
M  V30 12 C -3.13481 -0.170874 0.00745464 0
M  V30 13 C -2.29346 -1.24813 -0.157767 0
M  V30 14 Br -2.95639 -3.0236 -0.410642 0
M  V30 15 H 3.58828 0.00907533 -0.947849 0
M  V30 16 H 3.72673 -0.741614 0.734127 0
M  V30 17 H 1.91882 -2.77871 -0.421121 0
M  V30 18 H 1.81345 2.05244 1.1858 0
M  V30 19 H 1.7834 2.29151 -0.593897 0
M  V30 20 H -3.25109 1.93562 0.316042 0
M  V30 21 H -4.21335 -0.36392 -0.010501 0
M  V30 END ATOM
M  V30 BEGIN BOND
M  V30 1 1 1 2
M  V30 2 2 2 3
M  V30 3 1 3 4
M  V30 4 2 4 5
M  V30 5 1 5 6
M  V30 6 2 6 7
M  V30 7 1 7 8
M  V30 8 1 6 9
M  V30 9 1 9 10
M  V30 10 2 9 11
M  V30 11 1 11 12
M  V30 12 2 12 13
M  V30 13 1 13 14
M  V30 14 1 7 2
M  V30 15 1 13 5
M  V30 16 1 1 15
M  V30 17 1 1 16
M  V30 18 1 3 17
M  V30 19 1 8 18
M  V30 20 1 8 19
M  V30 21 1 11 20
M  V30 22 1 12 21
M  V30 END BOND
M  V30 END CTAB
M  END
