
     RDKit          3D

  0  0  0  0  0  0  0  0  0  0999 V3000
M  V30 BEGIN CTAB
M  V30 COUNTS 43 43 0 0 0
M  V30 BEGIN ATOM
M  V30 1 N 7.3062 1.58343 -0.23054 0
M  V30 2 C 7.39004 0.151713 -0.0452825 0
M  V30 3 C 6.71009 -0.495408 -1.22932 0
M  V30 4 O 5.38446 -0.145106 -1.35855 0
M  V30 5 C 4.63126 -0.498413 -0.256918 0
M  V30 6 C 3.18386 -0.0537576 -0.530349 0
M  V30 7 O 2.46474 -0.414315 0.570922 0
M  V30 8 C 1.12022 -0.0944163 0.56904 0
M  V30 9 C 0.380105 -0.747149 -0.565644 0
M  V30 10 N -1.01106 -0.375663 -0.510099 0
M  V30 11 C -1.84055 -0.709914 0.564359 0
M  V30 12 O -1.38724 -1.36656 1.52976 0
M  V30 13 C -3.23344 -0.331853 0.63031 0
M  V30 14 C -4.06314 -0.777261 1.66269 0
M  V30 15 C -5.39333 -0.4268 1.74586 0
M  V30 16 C -5.95154 0.388808 0.793577 0
M  V30 17 C -5.14565 0.833049 -0.226249 0
M  V30 18 C -3.79219 0.479972 -0.316008 0
M  V30 19 S -7.6442 0.860385 0.861517 0
M  V30 20 N -8.6491 -0.250217 0.0185353 0
M  V30 21 O -7.74029 2.19621 0.161156 0
M  V30 22 O -8.09803 1.00977 2.27836 0
M  V30 23 H 8.16269 2.0411 0.155009 0
M  V30 24 H 7.22017 1.79738 -1.23524 0
M  V30 25 H 6.94532 -0.115827 0.920199 0
M  V30 26 H 8.4663 -0.179314 -0.0952312 0
M  V30 27 H 6.87049 -1.59726 -1.2626 0
M  V30 28 H 7.24496 -0.102813 -2.14015 0
M  V30 29 H 4.59196 -1.58337 -0.081315 0
M  V30 30 H 4.92518 0.0124426 0.668635 0
M  V30 31 H 2.8292 -0.54894 -1.46184 0
M  V30 32 H 3.18627 1.03712 -0.738088 0
M  V30 33 H 0.742208 -0.384737 1.56934 0
M  V30 34 H 0.965719 1.02379 0.535606 0
M  V30 35 H 0.50382 -1.86593 -0.546833 0
M  V30 36 H 0.851956 -0.44429 -1.52578 0
M  V30 37 H -1.35744 0.170567 -1.34953 0
M  V30 38 H -3.62397 -1.43119 2.42997 0
M  V30 39 H -6.004 -0.792582 2.56173 0
M  V30 40 H -5.53929 1.48679 -1.01383 0
M  V30 41 H -3.19127 0.854198 -1.137 0
M  V30 42 H -9.56794 -0.293904 0.511224 0
M  V30 43 H -8.84355 0.100269 -0.947732 0
M  V30 END ATOM
M  V30 BEGIN BOND
M  V30 1 1 1 2
M  V30 2 1 2 3
M  V30 3 1 3 4
M  V30 4 1 4 5
M  V30 5 1 5 6
M  V30 6 1 6 7
M  V30 7 1 7 8
M  V30 8 1 8 9
M  V30 9 1 9 10
M  V30 10 1 10 11
M  V30 11 2 11 12
M  V30 12 1 11 13
M  V30 13 2 13 14
M  V30 14 1 14 15
M  V30 15 2 15 16
M  V30 16 1 16 17
M  V30 17 2 17 18
M  V30 18 1 16 19
M  V30 19 1 19 20
M  V30 20 2 19 21
M  V30 21 2 19 22
M  V30 22 1 18 13
M  V30 23 1 1 23
M  V30 24 1 1 24
M  V30 25 1 2 25
M  V30 26 1 2 26
M  V30 27 1 3 27
M  V30 28 1 3 28
M  V30 29 1 5 29
M  V30 30 1 5 30
M  V30 31 1 6 31
M  V30 32 1 6 32
M  V30 33 1 8 33
M  V30 34 1 8 34
M  V30 35 1 9 35
M  V30 36 1 9 36
M  V30 37 1 10 37
M  V30 38 1 14 38
M  V30 39 1 15 39
M  V30 40 1 17 40
M  V30 41 1 18 41
M  V30 42 1 20 42
M  V30 43 1 20 43
M  V30 END BOND
M  V30 END CTAB
M  END
