
     RDKit          3D

  0  0  0  0  0  0  0  0  0  0999 V3000
M  V30 BEGIN CTAB
M  V30 COUNTS 27 27 0 0 0
M  V30 BEGIN ATOM
M  V30 1 N -0.338628 2.26006 -0.259045 0
M  V30 2 C 0.617789 1.44508 0.434792 0
M  V30 3 C 0.363925 -0.0127097 0.0982126 0
M  V30 4 N -0.914946 -0.496561 0.453269 0
M  V30 5 S -1.93133 -1.00653 -0.799016 0
M  V30 6 O -1.0717 -1.47664 -1.95591 0
M  V30 7 O -2.81093 -2.16196 -0.384818 0
M  V30 8 N -2.89369 0.32005 -1.33147 0
M  V30 9 C -1.5313 -0.00109387 1.62353 0
M  V30 10 C 1.5055 -0.86581 0.611057 0
M  V30 11 C 2.88036 -0.598289 0.0992704 0
M  V30 12 C 2.18826 -1.81098 -0.400022 0
M  V30 13 H -0.356642 2.02471 -1.25737 0
M  V30 14 H -0.123517 3.26172 -0.0771849 0
M  V30 15 H 0.572371 1.62749 1.52872 0
M  V30 16 H 1.62422 1.77072 0.101123 0
M  V30 17 H 0.433388 -0.0733754 -1.02984 0
M  V30 18 H -2.34169 0.836505 -2.04692 0
M  V30 19 H -3.06458 0.942188 -0.517403 0
M  V30 20 H -2.65018 -0.092456 1.47736 0
M  V30 21 H -1.33121 -0.593984 2.54037 0
M  V30 22 H -1.37372 1.08604 1.79726 0
M  V30 23 H 1.47206 -1.22718 1.66289 0
M  V30 24 H 3.05275 0.215668 -0.640064 0
M  V30 25 H 3.76764 -0.778882 0.744012 0
M  V30 26 H 2.45487 -2.81106 -0.0100773 0
M  V30 27 H 1.80093 -1.78272 -1.43551 0
M  V30 END ATOM
M  V30 BEGIN BOND
M  V30 1 1 1 2
M  V30 2 1 2 3
M  V30 3 1 3 4
M  V30 4 1 4 5
M  V30 5 2 5 6
M  V30 6 2 5 7
M  V30 7 1 5 8
M  V30 8 1 4 9
M  V30 9 1 3 10
M  V30 10 1 10 11
M  V30 11 1 11 12
M  V30 12 1 12 10
M  V30 13 1 1 13
M  V30 14 1 1 14
M  V30 15 1 2 15
M  V30 16 1 2 16
M  V30 17 1 3 17
M  V30 18 1 8 18
M  V30 19 1 8 19
M  V30 20 1 9 20
M  V30 21 1 9 21
M  V30 22 1 9 22
M  V30 23 1 10 23
M  V30 24 1 11 24
M  V30 25 1 11 25
M  V30 26 1 12 26
M  V30 27 1 12 27
M  V30 END BOND
M  V30 END CTAB
M  END
