
     RDKit          3D

  0  0  0  0  0  0  0  0  0  0999 V3000
M  V30 BEGIN CTAB
M  V30 COUNTS 41 41 0 0 0
M  V30 BEGIN ATOM
M  V30 1 C 1.26101 1.97972 -0.115722 0 CFG=2
M  V30 2 C 2.39373 0.95552 -0.186552 0
M  V30 3 C 1.75513 -0.382755 0.112716 0
M  V30 4 C 2.74456 -1.48705 0.079215 0
M  V30 5 O 3.93881 -1.17727 -0.183602 0
M  V30 6 N 2.36505 -2.81987 0.329839 0
M  V30 7 N 3.34983 -3.82635 0.283953 0
M  V30 8 N 0.294818 1.59444 -1.10973 0
M  V30 9 C -1.00379 1.17647 -0.672538 0
M  V30 10 O -1.28348 1.15013 0.552432 0
M  V30 11 O -1.99175 0.790628 -1.54506 0
M  V30 12 C -3.27934 0.3683 -1.24838 0
M  V30 13 C -3.36845 -0.841806 -0.399242 0
M  V30 14 C -3.13602 -2.10806 -0.893575 0
M  V30 15 C -3.22125 -3.24018 -0.113244 0
M  V30 16 C -3.54966 -3.14737 1.22179 0
M  V30 17 C -3.78689 -1.89269 1.74018 0
M  V30 18 C -3.69624 -0.758837 0.936282 0
M  V30 19 C 1.76066 3.35289 -0.309451 0
M  V30 20 O 1.30619 4.00892 -1.28175 0
M  V30 21 N 2.70866 3.9308 0.545323 0
M  V30 22 N 3.17754 5.21942 0.363517 0
M  V30 23 H 0.836808 1.89208 0.894815 0
M  V30 24 H 2.79394 0.979399 -1.22758 0
M  V30 25 H 3.20081 1.20354 0.525852 0
M  V30 26 H 1.0216 -0.57742 -0.698924 0
M  V30 27 H 1.26042 -0.298648 1.10979 0
M  V30 28 H 1.37606 -3.03595 0.54201 0
M  V30 29 H 3.36661 -4.16305 -0.725353 0
M  V30 30 H 3.00381 -4.60771 0.860366 0
M  V30 31 H 0.556118 1.62686 -2.11539 0
M  V30 32 H -3.93288 1.16373 -0.833669 0
M  V30 33 H -3.76352 0.0882492 -2.22987 0
M  V30 34 H -2.87806 -2.1848 -1.94081 0
M  V30 35 H -3.03616 -4.2369 -0.511264 0
M  V30 36 H -3.62606 -4.01709 1.86708 0
M  V30 37 H -4.05027 -1.80478 2.80578 0
M  V30 38 H -3.88961 0.221288 1.36156 0
M  V30 39 H 3.09907 3.39455 1.36411 0
M  V30 40 H 2.42483 5.8494 0.00548772 0
M  V30 41 H 3.4974 5.66225 1.27564 0
M  V30 END ATOM
M  V30 BEGIN BOND
M  V30 1 1 1 2
M  V30 2 1 2 3
M  V30 3 1 3 4
M  V30 4 2 4 5
M  V30 5 1 4 6
M  V30 6 1 6 7
M  V30 7 1 1 8
M  V30 8 1 8 9
M  V30 9 2 9 10
M  V30 10 1 9 11
M  V30 11 1 11 12
M  V30 12 1 12 13
M  V30 13 2 13 14
M  V30 14 1 14 15
M  V30 15 2 15 16
M  V30 16 1 16 17
M  V30 17 2 17 18
M  V30 18 1 1 19
M  V30 19 2 19 20
M  V30 20 1 19 21
M  V30 21 1 21 22
M  V30 22 1 18 13
M  V30 23 1 1 23 CFG=1
M  V30 24 1 2 24
M  V30 25 1 2 25
M  V30 26 1 3 26
M  V30 27 1 3 27
M  V30 28 1 6 28
M  V30 29 1 7 29
M  V30 30 1 7 30
M  V30 31 1 8 31
M  V30 32 1 12 32
M  V30 33 1 12 33
M  V30 34 1 14 34
M  V30 35 1 15 35
M  V30 36 1 16 36
M  V30 37 1 17 37
M  V30 38 1 18 38
M  V30 39 1 21 39
M  V30 40 1 22 40
M  V30 41 1 22 41
M  V30 END BOND
M  V30 END CTAB
M  END
