
     RDKit          3D

  0  0  0  0  0  0  0  0  0  0999 V3000
M  V30 BEGIN CTAB
M  V30 COUNTS 53 56 0 0 0
M  V30 BEGIN ATOM
M  V30 1 C 5.47552 -1.92404 2.61478 0
M  V30 2 N 5.06577 -2.11393 1.24481 0
M  V30 3 N 6.03076 -2.19251 0.24565 0
M  V30 4 C 3.68527 -2.21747 0.951214 0
M  V30 5 N 2.89419 -1.16619 0.684924 0
M  V30 6 C 1.60747 -1.3287 0.41646 0
M  V30 7 C 1.0351 -2.58217 0.400898 0
M  V30 8 C 1.81006 -3.69348 0.66862 0
M  V30 9 C 3.14606 -3.50005 0.945127 0
M  V30 10 C 0.715151 -0.182336 0.122834 0
M  V30 11 C 1.2037 1.10769 0.122408 0
M  V30 12 C 0.393903 2.1867 -0.144715 0
M  V30 13 C -0.950979 1.90585 -0.416115 0
M  V30 14 C -1.46047 0.633453 -0.421481 0
M  V30 15 N -0.580538 -0.362759 -0.145863 0
M  V30 16 C -2.84707 0.322299 -0.697608 0
M  V30 17 C -3.79508 1.27062 -0.981201 0
M  V30 18 C -5.11582 0.941974 -1.23836 0
M  V30 19 C -5.45402 -0.392343 -1.19952 0
M  V30 20 C -4.48261 -1.35727 -0.909603 0
M  V30 21 N -3.24593 -0.953079 -0.676874 0
M  V30 22 N -4.86646 -2.72364 -0.878149 0
M  V30 23 C -3.89457 -3.76885 -0.589903 0
M  V30 24 N -6.1784 -3.13835 -1.11632 0
M  V30 25 C 0.869116 3.55753 -0.152081 0
M  V30 26 C 2.14815 3.86873 -0.530845 0
M  V30 27 C 2.59823 5.16592 -0.5332 0
M  V30 28 C 1.73413 6.18934 -0.141202 0
M  V30 29 C 0.456399 5.91309 0.240986 0
M  V30 30 C 0.0282776 4.59697 0.23402 0
M  V30 31 H 5.35685 -0.849797 2.85632 0
M  V30 32 H 6.5056 -2.25331 2.82069 0
M  V30 33 H 4.82476 -2.47243 3.34368 0
M  V30 34 H 5.61421 -1.91403 -0.687438 0
M  V30 35 H 6.73934 -1.43662 0.452833 0
M  V30 36 H -0.0323809 -2.67365 0.173787 0
M  V30 37 H 1.35756 -4.68895 0.657535 0
M  V30 38 H 3.7406 -4.38057 1.153 0
M  V30 39 H 2.24803 1.29683 0.334992 0
M  V30 40 H -1.61692 2.72606 -0.629024 0
M  V30 41 H -3.54017 2.29809 -1.01286 0
M  V30 42 H -5.87728 1.67975 -1.46361 0
M  V30 43 H -6.45735 -0.728873 -1.38574 0
M  V30 44 H -4.05833 -4.63301 -1.25781 0
M  V30 45 H -2.85345 -3.35472 -0.693922 0
M  V30 46 H -4.006 -4.08256 0.4833 0
M  V30 47 H -6.50159 -2.94299 -2.08039 0
M  V30 48 H -6.78153 -2.57452 -0.474607 0
M  V30 49 H 2.81307 3.08515 -0.830221 0
M  V30 50 H 3.59758 5.46469 -0.824207 0
M  V30 51 H 2.08115 7.21762 -0.139988 0
M  V30 52 H -0.187471 6.727 0.540209 0
M  V30 53 H -0.991578 4.42782 0.54378 0
M  V30 END ATOM
M  V30 BEGIN BOND
M  V30 1 1 1 2
M  V30 2 1 2 3
M  V30 3 1 2 4
M  V30 4 2 4 5
M  V30 5 1 5 6
M  V30 6 2 6 7
M  V30 7 1 7 8
M  V30 8 2 8 9
M  V30 9 1 6 10
M  V30 10 2 10 11
M  V30 11 1 11 12
M  V30 12 2 12 13
M  V30 13 1 13 14
M  V30 14 2 14 15
M  V30 15 1 14 16
M  V30 16 2 16 17
M  V30 17 1 17 18
M  V30 18 2 18 19
M  V30 19 1 19 20
M  V30 20 2 20 21
M  V30 21 1 20 22
M  V30 22 1 22 23
M  V30 23 1 22 24
M  V30 24 1 12 25
M  V30 25 2 25 26
M  V30 26 1 26 27
M  V30 27 2 27 28
M  V30 28 1 28 29
M  V30 29 2 29 30
M  V30 30 1 9 4
M  V30 31 1 15 10
M  V30 32 1 21 16
M  V30 33 1 30 25
M  V30 34 1 1 31
M  V30 35 1 1 32
M  V30 36 1 1 33
M  V30 37 1 3 34
M  V30 38 1 3 35
M  V30 39 1 7 36
M  V30 40 1 8 37
M  V30 41 1 9 38
M  V30 42 1 11 39
M  V30 43 1 13 40
M  V30 44 1 17 41
M  V30 45 1 18 42
M  V30 46 1 19 43
M  V30 47 1 23 44
M  V30 48 1 23 45
M  V30 49 1 23 46
M  V30 50 1 24 47
M  V30 51 1 24 48
M  V30 52 1 26 49
M  V30 53 1 27 50
M  V30 54 1 28 51
M  V30 55 1 29 52
M  V30 56 1 30 53
M  V30 END BOND
M  V30 END CTAB
M  END
