
     RDKit          3D

  0  0  0  0  0  0  0  0  0  0999 V3000
M  V30 BEGIN CTAB
M  V30 COUNTS 45 49 0 0 0
M  V30 BEGIN ATOM
M  V30 1 N 7.04497 0.697355 1.56621 0
M  V30 2 C 5.75579 0.453519 1.01393 0
M  V30 3 N 5.71105 0.0874176 -0.289846 0
M  V30 4 C 4.57027 -0.16842 -0.922452 0
M  V30 5 N 4.49022 -0.55436 -2.28856 0
M  V30 6 C 3.38914 -0.0439612 -0.17893 0
M  V30 7 N 2.22031 -0.285846 -0.754386 0
M  V30 8 C 1.04722 -0.186098 -0.101708 0
M  V30 9 C -0.149031 -0.499961 -0.902662 0
M  V30 10 N -1.43095 -0.214424 -0.42718 0
M  V30 11 C -1.99926 1.108 -0.53552 0
M  V30 12 C -3.30681 1.55297 -0.29798 0
M  V30 13 C -3.6728 2.87066 -0.455583 0
M  V30 14 C -2.69886 3.75749 -0.862424 0
M  V30 15 C -1.40851 3.33562 -1.10153 0
M  V30 16 C -1.06066 1.98813 -0.933721 0
M  V30 17 C -4.46816 0.781129 0.0987299 0
M  V30 18 C -4.53921 -0.461854 0.460645 0
M  V30 19 C -3.47701 -1.41438 0.567208 0
M  V30 20 C -2.14054 -1.29165 0.188878 0
M  V30 21 C -1.34565 -2.37868 0.438676 0
M  V30 22 C -1.7947 -3.55036 1.02705 0
M  V30 23 C -3.11236 -3.6386 1.38567 0
M  V30 24 C -3.94747 -2.57476 1.1561 0
M  V30 25 C 1.11686 0.18734 1.2222 0
M  V30 26 N 2.27311 0.439695 1.83844 0
M  V30 27 C 3.42139 0.327414 1.14692 0
M  V30 28 N 4.62678 0.576071 1.73751 0
M  V30 29 H 7.50097 -0.0823793 2.07726 0
M  V30 30 H 7.54659 1.61026 1.4829 0
M  V30 31 H 4.14941 0.0334504 -3.05567 0
M  V30 32 H 4.81292 -1.53647 -2.52527 0
M  V30 33 H -0.0276096 -0.00573872 -1.96118 0
M  V30 34 H 0.0280302 -1.4973 -1.37779 0
M  V30 35 H -4.69111 3.18924 -0.264501 0
M  V30 36 H -2.95735 4.81881 -0.997979 0
M  V30 37 H -0.637876 4.03429 -1.42328 0
M  V30 38 H -0.0783443 1.71707 -1.14246 0
M  V30 39 H -5.4208 1.30503 0.0974006 0
M  V30 40 H -5.56057 -0.807036 0.714133 0
M  V30 41 H -0.315629 -2.34508 0.184942 0
M  V30 42 H -1.11889 -4.36587 1.19459 0
M  V30 43 H -3.49984 -4.55656 1.85506 0
M  V30 44 H -4.98242 -2.66936 1.44831 0
M  V30 45 H 0.137395 0.258167 1.72246 0
M  V30 END ATOM
M  V30 BEGIN BOND
M  V30 1 1 1 2
M  V30 2 2 2 3
M  V30 3 1 3 4
M  V30 4 1 4 5
M  V30 5 2 4 6
M  V30 6 1 6 7
M  V30 7 2 7 8
M  V30 8 1 8 9
M  V30 9 1 9 10
M  V30 10 1 10 11
M  V30 11 1 11 12
M  V30 12 2 12 13
M  V30 13 1 13 14
M  V30 14 2 14 15
M  V30 15 1 15 16
M  V30 16 1 12 17
M  V30 17 2 17 18
M  V30 18 1 18 19
M  V30 19 2 19 20
M  V30 20 1 20 21
M  V30 21 2 21 22
M  V30 22 1 22 23
M  V30 23 2 23 24
M  V30 24 1 8 25
M  V30 25 2 25 26
M  V30 26 1 26 27
M  V30 27 2 27 28
M  V30 28 1 28 2
M  V30 29 1 27 6
M  V30 30 1 20 10
M  V30 31 2 16 11
M  V30 32 1 24 19
M  V30 33 1 1 29
M  V30 34 1 1 30
M  V30 35 1 5 31
M  V30 36 1 5 32
M  V30 37 1 9 33
M  V30 38 1 9 34
M  V30 39 1 13 35
M  V30 40 1 14 36
M  V30 41 1 15 37
M  V30 42 1 16 38
M  V30 43 1 17 39
M  V30 44 1 18 40
M  V30 45 1 21 41
M  V30 46 1 22 42
M  V30 47 1 23 43
M  V30 48 1 24 44
M  V30 49 1 25 45
M  V30 END BOND
M  V30 END CTAB
M  END
