
     RDKit          3D

  0  0  0  0  0  0  0  0  0  0999 V3000
M  V30 BEGIN CTAB
M  V30 COUNTS 25 25 0 0 0
M  V30 BEGIN ATOM
M  V30 1 N 4.28239 -1.19117 -0.119657 0
M  V30 2 C 3.20209 -0.270864 -0.168201 0
M  V30 3 N 3.43571 0.987868 -0.776881 0
M  V30 4 N 2.03966 -0.585586 0.335469 0
M  V30 5 S 0.784025 0.619403 0.220664 0
M  V30 6 O 1.01607 1.41725 -1.0174 0
M  V30 7 O 0.935541 1.49449 1.41909 0
M  V30 8 C -0.771213 -0.164127 0.12062 0
M  V30 9 C -1.97826 0.475013 0.00795661 0
M  V30 10 C -3.16815 -0.266246 -0.0691958 0
M  V30 11 C -3.18231 -1.63207 -0.0364232 0
M  V30 12 C -1.97765 -2.29086 0.0766954 0
M  V30 13 C -0.825396 -1.56769 0.151208 0
M  V30 14 C -2.05212 1.92384 -0.0279359 0
M  V30 15 O -3.32685 2.49564 -0.22065 0
M  V30 16 O -1.10957 2.70428 0.0929231 0
M  V30 17 H 4.30464 -1.86653 0.671148 0
M  V30 18 H 5.04556 -1.22967 -0.821284 0
M  V30 19 H 3.57593 1.11155 -1.79128 0
M  V30 20 H 3.46667 1.82788 -0.166034 0
M  V30 21 H -4.11265 0.283049 -0.158348 0
M  V30 22 H -4.13175 -2.17668 -0.0991661 0
M  V30 23 H -2.0139 -3.37129 0.10067 0
M  V30 24 H 0.120981 -2.08894 0.240181 0
M  V30 25 H -3.55946 3.36145 0.266107 0
M  V30 END ATOM
M  V30 BEGIN BOND
M  V30 1 1 1 2
M  V30 2 1 2 3
M  V30 3 2 2 4
M  V30 4 1 4 5
M  V30 5 2 5 6
M  V30 6 2 5 7
M  V30 7 1 5 8
M  V30 8 2 8 9
M  V30 9 1 9 10
M  V30 10 2 10 11
M  V30 11 1 11 12
M  V30 12 2 12 13
M  V30 13 1 9 14
M  V30 14 1 14 15
M  V30 15 2 14 16
M  V30 16 1 13 8
M  V30 17 1 1 17
M  V30 18 1 1 18
M  V30 19 1 3 19
M  V30 20 1 3 20
M  V30 21 1 10 21
M  V30 22 1 11 22
M  V30 23 1 12 23
M  V30 24 1 13 24
M  V30 25 1 15 25
M  V30 END BOND
M  V30 END CTAB
M  END
