
     RDKit          3D

  0  0  0  0  0  0  0  0  0  0999 V3000
M  V30 BEGIN CTAB
M  V30 COUNTS 30 31 0 0 0
M  V30 BEGIN ATOM
M  V30 1 O -1.86178 -2.931 0.815521 0
M  V30 2 C -0.909611 -2.17887 0.405375 0
M  V30 3 N 0.425221 -2.56569 0.180521 0
M  V30 4 C 1.13616 -1.61132 -0.229951 0
M  V30 5 C 0.297729 -0.394451 -0.343366 0
M  V30 6 N -0.993507 -0.767139 0.082532 0
M  V30 7 C -2.25417 -0.0850065 0.235214 0
M  V30 8 C -2.41869 1.30319 0.717732 0
M  V30 9 C -2.57709 0.9984 -0.760587 0
M  V30 10 C 0.189135 -0.0304206 -1.84186 0
M  V30 11 C 0.95373 0.758619 0.389867 0
M  V30 12 N 2.2637 0.95659 -0.229141 0
M  V30 13 C 1.03583 0.553693 1.85404 0
M  V30 14 N 2.55689 -1.65118 -0.553807 0
M  V30 15 H -3.11191 -0.765368 0.548914 0
M  V30 16 H -3.42183 1.51529 1.2089 0
M  V30 17 H -1.65631 1.95524 1.09891 0
M  V30 18 H -1.85203 1.52351 -1.36395 0
M  V30 19 H -3.61447 0.95726 -1.18578 0
M  V30 20 H 0.358856 1.03294 -1.9545 0
M  V30 21 H -0.779815 -0.38428 -2.22448 0
M  V30 22 H 0.957052 -0.648451 -2.39117 0
M  V30 23 H 0.383875 1.66678 0.158906 0
M  V30 24 H 3.03394 0.687775 0.453565 0
M  V30 25 H 2.4409 1.96499 -0.430919 0
M  V30 26 H 0.440639 1.29689 2.42552 0
M  V30 27 H 2.10462 0.642067 2.18766 0
M  V30 28 H 0.699309 -0.469565 2.10381 0
M  V30 29 H 3.28134 -1.84458 0.168436 0
M  V30 30 H 2.8923 -1.48591 -1.52591 0
M  V30 END ATOM
M  V30 BEGIN BOND
M  V30 1 2 1 2
M  V30 2 1 2 3
M  V30 3 2 3 4
M  V30 4 1 4 5
M  V30 5 1 5 6
M  V30 6 1 6 7
M  V30 7 1 7 8
M  V30 8 1 8 9
M  V30 9 1 5 10
M  V30 10 1 5 11
M  V30 11 1 11 12
M  V30 12 1 11 13
M  V30 13 1 4 14
M  V30 14 1 6 2
M  V30 15 1 9 7
M  V30 16 1 7 15
M  V30 17 1 8 16
M  V30 18 1 8 17
M  V30 19 1 9 18
M  V30 20 1 9 19
M  V30 21 1 10 20
M  V30 22 1 10 21
M  V30 23 1 10 22
M  V30 24 1 11 23
M  V30 25 1 12 24
M  V30 26 1 12 25
M  V30 27 1 13 26
M  V30 28 1 13 27
M  V30 29 1 13 28
M  V30 30 1 14 29
M  V30 31 1 14 30
M  V30 END BOND
M  V30 END CTAB
M  END
