
     RDKit          3D

  0  0  0  0  0  0  0  0  0  0999 V3000
M  V30 BEGIN CTAB
M  V30 COUNTS 43 45 0 0 0
M  V30 BEGIN ATOM
M  V30 1 N -4.99571 1.24501 0.297546 0
M  V30 2 C -4.64941 -0.108559 0.55196 0
M  V30 3 C -5.06794 -1.04968 -0.591896 0
M  V30 4 C -3.74741 -1.57424 -1.18815 0
M  V30 5 C -2.81803 -0.505447 -0.779854 0
M  V30 6 C -3.23941 -0.421329 0.70943 0
M  V30 7 C -2.26673 0.562527 1.17741 0
M  V30 8 N -1.05548 0.133138 0.499389 0
M  V30 9 C -1.39203 -0.819487 -0.561323 0
M  V30 10 C 0.26256 0.553242 0.795598 0
M  V30 11 O 0.446507 1.38247 1.73486 0
M  V30 12 C 1.4463 0.0653947 0.0535333 0
M  V30 13 C 2.68018 0.700526 0.612306 0
M  V30 14 C 3.92818 0.289505 -0.0543657 0
M  V30 15 C 3.97702 -0.782703 -0.908643 0
M  V30 16 C 5.15919 -1.17009 -1.53808 0
M  V30 17 C 6.31654 -0.466964 -1.30555 0
M  V30 18 C 6.286 0.604037 -0.457304 0
M  V30 19 C 5.10123 0.974282 0.159431 0
M  V30 20 N 2.55784 2.15824 0.499022 0
M  V30 21 H -4.26874 1.79261 -0.210639 0
M  V30 22 H -5.85788 1.24268 -0.326296 0
M  V30 23 H -5.23201 -0.44836 1.45483 0
M  V30 24 H -5.56589 -0.4044 -1.34926 0
M  V30 25 H -5.69393 -1.87279 -0.232137 0
M  V30 26 H -3.85146 -1.70795 -2.28445 0
M  V30 27 H -3.44883 -2.52012 -0.696938 0
M  V30 28 H -2.98389 0.467535 -1.27529 0
M  V30 29 H -3.11393 -1.44608 1.11119 0
M  V30 30 H -2.57241 1.57523 0.909079 0
M  V30 31 H -2.11555 0.444303 2.27804 0
M  V30 32 H -0.738016 -0.706053 -1.44235 0
M  V30 33 H -1.31932 -1.83056 -0.0917648 0
M  V30 34 H 1.35768 0.283758 -1.02767 0
M  V30 35 H 1.53857 -1.04911 0.129209 0
M  V30 36 H 2.80644 0.477918 1.7034 0
M  V30 37 H 3.10061 -1.35991 -1.12073 0
M  V30 38 H 5.18265 -2.0192 -2.21039 0
M  V30 39 H 7.2591 -0.738784 -1.77836 0
M  V30 40 H 7.19765 1.1843 -0.253448 0
M  V30 41 H 5.08319 1.82972 0.835201 0
M  V30 42 H 1.74126 2.43143 -0.0857934 0
M  V30 43 H 2.56532 2.60396 1.43038 0
M  V30 END ATOM
M  V30 BEGIN BOND
M  V30 1 1 1 2
M  V30 2 1 2 3
M  V30 3 1 3 4
M  V30 4 1 4 5
M  V30 5 1 5 6
M  V30 6 1 6 7
M  V30 7 1 7 8
M  V30 8 1 8 9
M  V30 9 1 8 10
M  V30 10 2 10 11
M  V30 11 1 10 12
M  V30 12 1 12 13
M  V30 13 1 13 14
M  V30 14 2 14 15
M  V30 15 1 15 16
M  V30 16 2 16 17
M  V30 17 1 17 18
M  V30 18 2 18 19
M  V30 19 1 13 20
M  V30 20 1 6 2
M  V30 21 1 19 14
M  V30 22 1 9 5
M  V30 23 1 1 21
M  V30 24 1 1 22
M  V30 25 1 2 23
M  V30 26 1 3 24
M  V30 27 1 3 25
M  V30 28 1 4 26
M  V30 29 1 4 27
M  V30 30 1 5 28
M  V30 31 1 6 29
M  V30 32 1 7 30
M  V30 33 1 7 31
M  V30 34 1 9 32
M  V30 35 1 9 33
M  V30 36 1 12 34
M  V30 37 1 12 35
M  V30 38 1 13 36
M  V30 39 1 15 37
M  V30 40 1 16 38
M  V30 41 1 17 39
M  V30 42 1 18 40
M  V30 43 1 19 41
M  V30 44 1 20 42
M  V30 45 1 20 43
M  V30 END BOND
M  V30 END CTAB
M  END
