
     RDKit          3D

  0  0  0  0  0  0  0  0  0  0999 V3000
M  V30 BEGIN CTAB
M  V30 COUNTS 22 22 0 0 0
M  V30 BEGIN ATOM
M  V30 1 N -3.65482 0.135551 -0.30913 0
M  V30 2 C -2.92237 0.919313 0.621848 0
M  V30 3 N -3.52791 1.73918 1.43219 0
M  V30 4 N -1.51028 0.857804 0.723949 0
M  V30 5 C -0.795219 -0.0135607 -0.128753 0
M  V30 6 O -1.43428 -0.710099 -0.954683 0
M  V30 7 C 0.669282 -0.0886413 -0.0349858 0
M  V30 8 C 1.37955 -0.93345 -0.859578 0
M  V30 9 N 0.661366 -1.72069 -1.79243 0
M  V30 10 N 2.74034 -0.998838 -0.767765 0
M  V30 11 C 3.43219 -0.255878 0.114326 0
M  V30 12 O 4.81574 -0.306841 0.224384 0
M  V30 13 C 2.69981 0.58177 0.928577 0
M  V30 14 N 1.35765 0.653131 0.845413 0
M  V30 15 H -3.87237 -0.861142 -0.121345 0
M  V30 16 H -3.96701 0.600359 -1.19153 0
M  V30 17 H -4.56569 1.79155 1.36486 0
M  V30 18 H -0.979752 1.4354 1.4089 0
M  V30 19 H 0.498645 -1.34969 -2.74786 0
M  V30 20 H 0.28433 -2.66117 -1.56819 0
M  V30 21 H 5.44958 -0.0109637 -0.499504 0
M  V30 22 H 3.24123 1.19691 1.65517 0
M  V30 END ATOM
M  V30 BEGIN BOND
M  V30 1 1 1 2
M  V30 2 2 2 3 CFG=2
M  V30 3 1 2 4
M  V30 4 1 4 5
M  V30 5 2 5 6
M  V30 6 1 5 7
M  V30 7 2 7 8
M  V30 8 1 8 9
M  V30 9 1 8 10
M  V30 10 2 10 11
M  V30 11 1 11 12
M  V30 12 1 11 13
M  V30 13 2 13 14
M  V30 14 1 14 7
M  V30 15 1 1 15
M  V30 16 1 1 16
M  V30 17 1 3 17
M  V30 18 1 4 18
M  V30 19 1 9 19
M  V30 20 1 9 20
M  V30 21 1 12 21
M  V30 22 1 13 22
M  V30 END BOND
M  V30 END CTAB
M  END
