
     RDKit          3D

  0  0  0  0  0  0  0  0  0  0999 V3000
M  V30 BEGIN CTAB
M  V30 COUNTS 69 72 0 0 0
M  V30 BEGIN ATOM
M  V30 1 C -2.74866 -2.93256 2.82444 0
M  V30 2 C -2.29107 -2.52233 1.44831 0
M  V30 3 C -1.81847 -1.25648 1.22552 0
M  V30 4 C -1.391 -0.846727 -0.0198197 0
M  V30 5 C -1.44063 -1.73147 -1.06533 0
M  V30 6 C -1.9108 -2.99647 -0.851184 0
M  V30 7 C -1.98189 -3.98921 -1.96177 0
M  V30 8 C -2.33758 -3.4025 0.397058 0
M  V30 9 N -2.82429 -4.712 0.624832 0
M  V30 10 C -0.885397 0.574458 -0.173971 0
M  V30 11 C -0.152554 0.750004 -1.48075 0
M  V30 12 C 1.17423 0.0543752 -1.49229 0
M  V30 13 N 2.03595 0.730104 -0.551446 0
M  V30 14 C 1.37721 1.44804 0.519474 0
M  V30 15 C 0.104405 0.749769 0.938573 0
M  V30 16 C 3.42105 0.679269 -0.672278 0
M  V30 17 O 3.98557 0.0308102 -1.62255 0
M  V30 18 O 4.32011 1.30168 0.190153 0
M  V30 19 C 5.70576 1.26137 0.0984027 0
M  V30 20 C 6.32284 -0.0714831 0.198657 0
M  V30 21 C 7.6567 -0.156325 -0.178642 0
M  V30 22 C 8.37362 -1.33058 -0.133599 0
M  V30 23 C 7.71945 -2.4587 0.308147 0
M  V30 24 C 6.39818 -2.39713 0.686802 0
M  V30 25 C 5.68577 -1.21209 0.638265 0
M  V30 26 C -2.03548 1.49542 -0.0999891 0
M  V30 27 C -3.2426 1.15826 -0.705989 0
M  V30 28 C -4.31259 2.01837 -0.64435 0
M  V30 29 C -5.58674 1.62711 -1.29613 0
M  V30 30 C -4.24815 3.22698 0.00256288 0
M  V30 31 N -5.34723 4.10887 0.0672786 0
M  V30 32 C -3.03166 3.54937 0.603997 0
M  V30 33 C -2.94671 4.8648 1.31348 0
M  V30 34 C -1.94066 2.6898 0.550178 0
M  V30 35 H -2.83626 -2.01763 3.44468 0
M  V30 36 H -2.01362 -3.60971 3.27585 0
M  V30 37 H -3.74327 -3.41098 2.78172 0
M  V30 38 H -1.78418 -0.569832 2.04994 0
M  V30 39 H -1.11648 -1.43206 -2.03229 0
M  V30 40 H -2.72604 -4.789 -1.75469 0
M  V30 41 H -1.00608 -4.50229 -2.1214 0
M  V30 42 H -2.32568 -3.47405 -2.88944 0
M  V30 43 H -3.77096 -4.99969 0.320692 0
M  V30 44 H -2.21275 -5.39096 1.10739 0
M  V30 45 H 0.0917013 1.853 -1.54695 0
M  V30 46 H -0.776778 0.537608 -2.36694 0
M  V30 47 H 1.56765 0.147755 -2.54662 0
M  V30 48 H 1.12804 -1.0376 -1.30923 0
M  V30 49 H 1.26185 2.51679 0.323974 0
M  V30 50 H 2.06902 1.35263 1.40902 0
M  V30 51 H -0.349306 1.32319 1.74884 0
M  V30 52 H 0.449538 -0.214786 1.37215 0
M  V30 53 H 6.10391 1.85988 0.962281 0
M  V30 54 H 6.10986 1.75785 -0.810197 0
M  V30 55 H 8.20986 0.724224 -0.536421 0
M  V30 56 H 9.42916 -1.35871 -0.439807 0
M  V30 57 H 8.27805 -3.38268 0.344207 0
M  V30 58 H 5.88799 -3.29967 1.035 0
M  V30 59 H 4.6567 -1.13624 0.930406 0
M  V30 60 H -3.30335 0.218933 -1.21375 0
M  V30 61 H -5.76489 0.53784 -1.16814 0
M  V30 62 H -6.40798 2.14011 -0.749672 0
M  V30 63 H -5.57185 1.88608 -2.38 0
M  V30 64 H -6.01239 4.13937 0.869189 0
M  V30 65 H -5.49787 4.7584 -0.723631 0
M  V30 66 H -1.89383 5.20308 1.39074 0
M  V30 67 H -3.32628 4.75894 2.34982 0
M  V30 68 H -3.56213 5.57407 0.70661 0
M  V30 69 H -1.04802 3.03333 1.03701 0
M  V30 END ATOM
M  V30 BEGIN BOND
M  V30 1 1 1 2
M  V30 2 2 2 3
M  V30 3 1 3 4
M  V30 4 2 4 5
M  V30 5 1 5 6
M  V30 6 1 6 7
M  V30 7 2 6 8
M  V30 8 1 8 9
M  V30 9 1 4 10
M  V30 10 1 10 11
M  V30 11 1 11 12
M  V30 12 1 12 13
M  V30 13 1 13 14
M  V30 14 1 14 15
M  V30 15 1 13 16
M  V30 16 2 16 17
M  V30 17 1 16 18
M  V30 18 1 18 19
M  V30 19 1 19 20
M  V30 20 2 20 21
M  V30 21 1 21 22
M  V30 22 2 22 23
M  V30 23 1 23 24
M  V30 24 2 24 25
M  V30 25 1 10 26
M  V30 26 2 26 27
M  V30 27 1 27 28
M  V30 28 1 28 29
M  V30 29 2 28 30
M  V30 30 1 30 31
M  V30 31 1 30 32
M  V30 32 1 32 33
M  V30 33 2 32 34
M  V30 34 1 8 2
M  V30 35 1 15 10
M  V30 36 1 25 20
M  V30 37 1 34 26
M  V30 38 1 1 35
M  V30 39 1 1 36
M  V30 40 1 1 37
M  V30 41 1 3 38
M  V30 42 1 5 39
M  V30 43 1 7 40
M  V30 44 1 7 41
M  V30 45 1 7 42
M  V30 46 1 9 43
M  V30 47 1 9 44
M  V30 48 1 11 45
M  V30 49 1 11 46
M  V30 50 1 12 47
M  V30 51 1 12 48
M  V30 52 1 14 49
M  V30 53 1 14 50
M  V30 54 1 15 51
M  V30 55 1 15 52
M  V30 56 1 19 53
M  V30 57 1 19 54
M  V30 58 1 21 55
M  V30 59 1 22 56
M  V30 60 1 23 57
M  V30 61 1 24 58
M  V30 62 1 25 59
M  V30 63 1 27 60
M  V30 64 1 29 61
M  V30 65 1 29 62
M  V30 66 1 29 63
M  V30 67 1 31 64
M  V30 68 1 31 65
M  V30 69 1 33 66
M  V30 70 1 33 67
M  V30 71 1 33 68
M  V30 72 1 34 69
M  V30 END BOND
M  V30 END CTAB
M  END
