
     RDKit          3D

  0  0  0  0  0  0  0  0  0  0999 V3000
M  V30 BEGIN CTAB
M  V30 COUNTS 31 31 0 0 0
M  V30 BEGIN ATOM
M  V30 1 N 2.11011 1.37312 1.06224 0
M  V30 2 C 2.55451 0.383972 0.119249 0
M  V30 3 C 1.65162 0.193877 -1.04949 0
M  V30 4 C 0.266975 -0.237919 -0.71975 0
M  V30 5 C 0.189346 -1.54835 0.00758976 0
M  V30 6 C -0.984655 -1.64096 0.916195 0
M  V30 7 C -2.21302 -0.953244 0.444294 0
M  V30 8 C -2.00458 0.391069 -0.155954 0
M  V30 9 C -0.530998 0.774781 0.0529231 0
M  V30 10 C -2.81961 1.48291 0.48691 0
M  V30 11 F -2.51261 2.66184 -0.182088 0
M  V30 12 F -4.16119 1.23845 0.482995 0
M  V30 13 F -2.31578 1.64236 1.78163 0
M  V30 14 N 2.24364 -0.805594 -1.91935 0
M  V30 15 H 2.75218 1.35394 1.87809 0
M  V30 16 H 2.09724 2.32459 0.65967 0
M  V30 17 H 2.79157 -0.564569 0.65607 0
M  V30 18 H 3.53763 0.743783 -0.276353 0
M  V30 19 H 1.60042 1.14019 -1.60963 0
M  V30 20 H -0.269561 -0.383863 -1.69637 0
M  V30 21 H 0.166421 -2.39587 -0.738096 0
M  V30 22 H 1.10586 -1.71155 0.59887 0
M  V30 23 H -1.23403 -2.73767 1.02388 0
M  V30 24 H -0.761008 -1.30155 1.94791 0
M  V30 25 H -2.92063 -0.894616 1.32314 0
M  V30 26 H -2.74684 -1.62987 -0.279717 0
M  V30 27 H -2.21146 0.342779 -1.23233 0
M  V30 28 H -0.385139 0.679213 1.1616 0
M  V30 29 H -0.40158 1.79838 -0.313555 0
M  V30 30 H 3.10553 -1.223 -1.5346 0
M  V30 31 H 2.29963 -0.496641 -2.89597 0
M  V30 END ATOM
M  V30 BEGIN BOND
M  V30 1 1 1 2
M  V30 2 1 2 3
M  V30 3 1 3 4
M  V30 4 1 4 5
M  V30 5 1 5 6
M  V30 6 1 6 7
M  V30 7 1 7 8
M  V30 8 1 8 9
M  V30 9 1 8 10
M  V30 10 1 10 11
M  V30 11 1 10 12
M  V30 12 1 10 13
M  V30 13 1 3 14
M  V30 14 1 9 4
M  V30 15 1 1 15
M  V30 16 1 1 16
M  V30 17 1 2 17
M  V30 18 1 2 18
M  V30 19 1 3 19
M  V30 20 1 4 20
M  V30 21 1 5 21
M  V30 22 1 5 22
M  V30 23 1 6 23
M  V30 24 1 6 24
M  V30 25 1 7 25
M  V30 26 1 7 26
M  V30 27 1 8 27
M  V30 28 1 9 28
M  V30 29 1 9 29
M  V30 30 1 14 30
M  V30 31 1 14 31
M  V30 END BOND
M  V30 END CTAB
M  END
