
     RDKit          3D

  0  0  0  0  0  0  0  0  0  0999 V3000
M  V30 BEGIN CTAB
M  V30 COUNTS 16 16 0 0 0
M  V30 BEGIN ATOM
M  V30 1 S 3.64647 -0.0702044 -0.414064 0
M  V30 2 C 1.85372 -0.159923 -0.241028 0
M  V30 3 C 1.20291 -1.364 -0.0644295 0
M  V30 4 C -0.16738 -1.45906 0.0704477 0
M  V30 5 C -0.932068 -0.311944 0.0291793 0
M  V30 6 C -0.267312 0.886421 -0.148143 0
M  V30 7 N 1.08746 0.945399 -0.278099 0
M  V30 8 N -1.04942 2.06031 -0.190409 0
M  V30 9 N -2.34112 -0.397789 0.166755 0
M  V30 10 H 4.19559 0.413713 0.805959 0
M  V30 11 H 1.82425 -2.25824 -0.0345531 0
M  V30 12 H -0.670079 -2.42905 0.210724 0
M  V30 13 H -1.12787 2.57629 -1.08476 0
M  V30 14 H -1.54299 2.41862 0.637825 0
M  V30 15 H -2.99313 -0.503112 -0.618742 0
M  V30 16 H -2.71904 -0.347435 1.15334 0
M  V30 END ATOM
M  V30 BEGIN BOND
M  V30 1 1 1 2
M  V30 2 2 2 3
M  V30 3 1 3 4
M  V30 4 2 4 5
M  V30 5 1 5 6
M  V30 6 2 6 7
M  V30 7 1 6 8
M  V30 8 1 5 9
M  V30 9 1 7 2
M  V30 10 1 1 10
M  V30 11 1 3 11
M  V30 12 1 4 12
M  V30 13 1 8 13
M  V30 14 1 8 14
M  V30 15 1 9 15
M  V30 16 1 9 16
M  V30 END BOND
M  V30 END CTAB
M  END
