
     RDKit          3D

  0  0  0  0  0  0  0  0  0  0999 V3000
M  V30 BEGIN CTAB
M  V30 COUNTS 46 49 0 0 0
M  V30 BEGIN ATOM
M  V30 1 O 5.45495 2.63893 1.11303 0
M  V30 2 C 5.53441 1.42578 0.794453 0 CFG=2
M  V30 3 C 4.79007 0.989512 -0.470035 0
M  V30 4 C 4.54864 -0.336281 0.264658 0 CFG=1
M  V30 5 C 4.63505 0.430091 1.54163 0
M  V30 6 C 3.2511 -0.963846 -0.048584 0
M  V30 7 C 2.04581 -0.333438 0.063957 0
M  V30 8 C 0.898949 -1.00384 -0.251402 0
M  V30 9 N 0.984029 -2.27218 -0.666356 0
M  V30 10 C 2.15432 -2.92431 -0.788941 0
M  V30 11 N 3.26506 -2.2387 -0.471434 0
M  V30 12 N 2.26099 -4.27213 -1.2286 0
M  V30 13 N -0.368539 -0.379912 -0.146024 0
M  V30 14 C -1.58036 -1.11149 -0.486874 0
M  V30 15 C -2.41798 -0.209283 -1.39988 0
M  V30 16 C -2.89513 0.947676 -0.545125 0
M  V30 17 C -1.9929 1.18023 0.63993 0
M  V30 18 C -0.532815 0.984436 0.2944 0
M  V30 19 C -4.25043 0.57513 -0.0424903 0
M  V30 20 N -4.52729 -0.464818 0.759825 0
M  V30 21 N -5.82841 -0.483651 0.996423 0
M  V30 22 C -6.40659 0.542703 0.350471 0
M  V30 23 N -5.4176 1.18736 -0.286922 0
M  V30 24 N -7.79767 0.897027 0.331618 0
M  V30 25 H 5.68077 3.37446 0.910155 0
M  V30 26 H 6.57519 1.02558 0.732468 0
M  V30 27 H 5.40318 0.912799 -1.36833 0
M  V30 28 H 3.87328 1.61342 -0.552366 0
M  V30 29 H 5.41745 -0.977123 0.121644 0
M  V30 30 H 5.23901 -0.0367871 2.3418 0
M  V30 31 H 3.73642 0.968485 1.87443 0
M  V30 32 H 2.03605 0.684246 0.401613 0
M  V30 33 H 2.12223 -5.01984 -0.51519 0
M  V30 34 H 2.46561 -4.55313 -2.20232 0
M  V30 35 H -1.33292 -2.0714 -1.02015 0
M  V30 36 H -2.13614 -1.4065 0.418244 0
M  V30 37 H -1.74836 0.110667 -2.21651 0
M  V30 38 H -3.25938 -0.839873 -1.75171 0
M  V30 39 H -3.01979 1.84716 -1.17655 0
M  V30 40 H -2.15672 2.20432 1.0011 0
M  V30 41 H -2.27498 0.448451 1.43055 0
M  V30 42 H -0.242109 1.73027 -0.456579 0
M  V30 43 H 0.0316954 1.08828 1.2545 0
M  V30 44 H -5.58081 2.03889 -0.87708 0
M  V30 45 H -8.37342 0.717078 -0.517877 0
M  V30 46 H -8.26393 1.33554 1.14934 0
M  V30 END ATOM
M  V30 BEGIN BOND
M  V30 1 1 1 2
M  V30 2 1 2 3
M  V30 3 1 3 4
M  V30 4 1 4 5
M  V30 5 1 4 6
M  V30 6 2 6 7
M  V30 7 1 7 8
M  V30 8 2 8 9
M  V30 9 1 9 10
M  V30 10 2 10 11
M  V30 11 1 10 12
M  V30 12 1 8 13
M  V30 13 1 13 14
M  V30 14 1 14 15
M  V30 15 1 15 16
M  V30 16 1 16 17
M  V30 17 1 17 18
M  V30 18 1 16 19
M  V30 19 2 19 20
M  V30 20 1 20 21
M  V30 21 2 21 22
M  V30 22 1 22 23
M  V30 23 1 22 24
M  V30 24 1 5 2
M  V30 25 1 11 6
M  V30 26 1 18 13
M  V30 27 1 23 19
M  V30 28 1 1 25
M  V30 29 1 2 26 CFG=3
M  V30 30 1 3 27
M  V30 31 1 3 28
M  V30 32 1 4 29 CFG=1
M  V30 33 1 5 30
M  V30 34 1 5 31
M  V30 35 1 7 32
M  V30 36 1 12 33
M  V30 37 1 12 34
M  V30 38 1 14 35
M  V30 39 1 14 36
M  V30 40 1 15 37
M  V30 41 1 15 38
M  V30 42 1 16 39
M  V30 43 1 17 40
M  V30 44 1 17 41
M  V30 45 1 18 42
M  V30 46 1 18 43
M  V30 47 1 23 44
M  V30 48 1 24 45
M  V30 49 1 24 46
M  V30 END BOND
M  V30 END CTAB
M  END
