
     RDKit          3D

  0  0  0  0  0  0  0  0  0  0999 V3000
M  V30 BEGIN CTAB
M  V30 COUNTS 30 31 0 0 0
M  V30 BEGIN ATOM
M  V30 1 N 4.53896 -1.19273 -0.354211 0
M  V30 2 N 3.26728 -1.6609 -0.166546 0
M  V30 3 C 2.09102 -0.879058 -0.168773 0
M  V30 4 N 0.875597 -1.46824 0.00940721 0
M  V30 5 C -0.268611 -0.764038 0.00904877 0
M  V30 6 C -1.50339 -1.37067 0.190937 0
M  V30 7 C -2.67451 -0.636508 0.188793 0
M  V30 8 C -3.99405 -1.30808 0.385957 0
M  V30 9 C -2.67293 0.731056 0.00625361 0
M  V30 10 C -1.44894 1.33694 -0.174821 0
M  V30 11 C -0.267175 0.601968 -0.173359 0
M  V30 12 N 0.92365 1.19959 -0.350429 0
M  V30 13 C 2.08383 0.484077 -0.349723 0
M  V30 14 N 3.33741 1.14886 -0.529464 0
M  V30 15 N 3.93769 1.70147 0.607662 0
M  V30 16 C -3.91818 1.53923 0.00112381 0
M  V30 17 H 5.28362 -1.61615 0.206622 0
M  V30 18 H 4.78791 -0.966955 -1.33819 0
M  V30 19 H 3.17263 -2.70415 -0.00679294 0
M  V30 20 H -1.50469 -2.45478 0.335316 0
M  V30 21 H -3.93097 -2.1012 1.17141 0
M  V30 22 H -4.24606 -1.77283 -0.59485 0
M  V30 23 H -4.76269 -0.566287 0.676291 0
M  V30 24 H -1.39582 2.42644 -0.324673 0
M  V30 25 H 3.74594 1.19284 -1.487 0
M  V30 26 H 3.66538 1.10838 1.4414 0
M  V30 27 H 3.63238 2.68183 0.793747 0
M  V30 28 H -4.29231 1.72004 1.03955 0
M  V30 29 H -4.73965 1.06694 -0.572868 0
M  V30 30 H -3.72333 2.52291 -0.471829 0
M  V30 END ATOM
M  V30 BEGIN BOND
M  V30 1 1 1 2
M  V30 2 1 2 3
M  V30 3 2 3 4
M  V30 4 1 4 5
M  V30 5 2 5 6
M  V30 6 1 6 7
M  V30 7 1 7 8
M  V30 8 2 7 9
M  V30 9 1 9 10
M  V30 10 2 10 11
M  V30 11 1 11 12
M  V30 12 2 12 13
M  V30 13 1 13 14
M  V30 14 1 14 15
M  V30 15 1 9 16
M  V30 16 1 13 3
M  V30 17 1 11 5
M  V30 18 1 1 17
M  V30 19 1 1 18
M  V30 20 1 2 19
M  V30 21 1 6 20
M  V30 22 1 8 21
M  V30 23 1 8 22
M  V30 24 1 8 23
M  V30 25 1 10 24
M  V30 26 1 14 25
M  V30 27 1 15 26
M  V30 28 1 15 27
M  V30 29 1 16 28
M  V30 30 1 16 29
M  V30 31 1 16 30
M  V30 END BOND
M  V30 END CTAB
M  END
