
     RDKit          3D

  0  0  0  0  0  0  0  0  0  0999 V3000
M  V30 BEGIN CTAB
M  V30 COUNTS 26 26 0 0 0
M  V30 BEGIN ATOM
M  V30 1 N -2.15627 -2.27939 -0.194452 0
M  V30 2 C -2.42813 -0.891556 -0.0416029 0
M  V30 3 C -3.72256 -0.419966 0.0323729 0
M  V30 4 C -3.98013 0.927481 0.180655 0
M  V30 5 C -2.9065 1.78953 0.252816 0
M  V30 6 C -1.60544 1.29198 0.175954 0
M  V30 7 C -1.33587 -0.0495583 0.0280805 0
M  V30 8 C 0.0317556 -0.546404 -0.0499343 0
M  V30 9 O 0.170745 -1.81587 -0.187736 0
M  V30 10 N 1.16809 0.295798 0.0189591 0
M  V30 11 C 2.48568 -0.29128 -0.0677569 0
M  V30 12 C 3.57816 0.746878 0.0228225 0
M  V30 13 N 4.84394 0.0435137 -0.0754652 0
M  V30 14 F -3.12056 3.13339 0.399915 0
M  V30 15 H -1.94717 -2.71662 -1.12257 0
M  V30 16 H -2.15202 -2.94297 0.628659 0
M  V30 17 H -4.53508 -1.1287 -0.0282453 0
M  V30 18 H -4.99505 1.30925 0.239936 0
M  V30 19 H -0.811675 2.01921 0.238878 0
M  V30 20 H 1.06418 1.32028 0.130023 0
M  V30 21 H 2.58689 -0.99453 0.784914 0
M  V30 22 H 2.52738 -0.844473 -1.02657 0
M  V30 23 H 3.5513 1.20079 1.035 0
M  V30 24 H 3.46506 1.55773 -0.698228 0
M  V30 25 H 5.4817 0.259646 0.717122 0
M  V30 26 H 4.74156 -0.974154 -0.154683 0
M  V30 END ATOM
M  V30 BEGIN BOND
M  V30 1 1 1 2
M  V30 2 2 2 3
M  V30 3 1 3 4
M  V30 4 2 4 5
M  V30 5 1 5 6
M  V30 6 2 6 7
M  V30 7 1 7 8
M  V30 8 2 8 9
M  V30 9 1 8 10
M  V30 10 1 10 11
M  V30 11 1 11 12
M  V30 12 1 12 13
M  V30 13 1 5 14
M  V30 14 1 7 2
M  V30 15 1 1 15
M  V30 16 1 1 16
M  V30 17 1 3 17
M  V30 18 1 4 18
M  V30 19 1 6 19
M  V30 20 1 10 20
M  V30 21 1 11 21
M  V30 22 1 11 22
M  V30 23 1 12 23
M  V30 24 1 12 24
M  V30 25 1 13 25
M  V30 26 1 13 26
M  V30 END BOND
M  V30 END CTAB
M  END
