
     RDKit          3D

  0  0  0  0  0  0  0  0  0  0999 V3000
M  V30 BEGIN CTAB
M  V30 COUNTS 41 42 0 0 0
M  V30 BEGIN ATOM
M  V30 1 C 5.24436 -1.8942 -0.419358 0
M  V30 2 C 4.81522 -1.92098 -1.87387 0
M  V30 3 N 3.93133 -0.858037 -2.2202 0
M  V30 4 C 2.61283 -0.773619 -1.58696 0
M  V30 5 O 2.38261 -1.69671 -0.802039 0
M  V30 6 N 1.83909 0.29184 -1.9524 0
M  V30 7 C 0.301819 -0.311357 -1.37668 0
M  V30 8 O 0.42954 -1.38353 -0.9801 0
M  V30 9 C -0.653405 0.727105 -1.58202 0
M  V30 10 C -0.369851 1.82359 -0.613965 0
M  V30 11 C -0.501147 1.55515 0.735807 0
M  V30 12 C -0.245486 2.52691 1.67707 0
M  V30 13 C 0.142843 3.77681 1.28147 0
M  V30 14 C 0.269656 4.03425 -0.0691394 0
M  V30 15 C 0.0154859 3.06557 -1.01263 0
M  V30 16 S -2.34947 0.2819 -1.68486 0
M  V30 17 C -3.1244 -0.418946 -0.282845 0
M  V30 18 N -3.09218 -1.74999 -0.115255 0
M  V30 19 C -3.66858 -2.35145 0.922701 0
M  V30 20 N -3.62792 -3.76168 1.08003 0
M  V30 21 N -4.30232 -1.57701 1.82503 0
M  V30 22 C -4.36883 -0.24968 1.71497 0
M  V30 23 N -3.75992 0.312521 0.630412 0
M  V30 24 N -5.05369 0.517665 2.68808 0
M  V30 25 H 4.48015 -2.40163 0.233767 0
M  V30 26 H 6.14597 -2.56433 -0.36419 0
M  V30 27 H 5.50248 -0.889974 -0.0664033 0
M  V30 28 H 4.2453 -2.89109 -1.97953 0
M  V30 29 H 5.69265 -2.0355 -2.50439 0
M  V30 30 H 4.22121 -0.154017 -2.91584 0
M  V30 31 H 1.28803 1.0395 -2.20504 0
M  V30 32 H -0.400798 1.20342 -2.60594 0
M  V30 33 H -0.797584 0.58687 1.12954 0
M  V30 34 H -0.345814 2.31846 2.74876 0
M  V30 35 H 0.34022 4.52511 2.02226 0
M  V30 36 H 0.583507 5.03297 -0.397622 0
M  V30 37 H 0.118423 3.2654 -2.06993 0
M  V30 38 H -4.34626 -4.33956 0.551028 0
M  V30 39 H -2.90378 -4.20615 1.70723 0
M  V30 40 H -5.79041 0.0325148 3.27372 0
M  V30 41 H -4.90089 1.51188 2.87972 0
M  V30 END ATOM
M  V30 BEGIN BOND
M  V30 1 1 1 2
M  V30 2 1 2 3
M  V30 3 1 3 4
M  V30 4 2 4 5
M  V30 5 1 4 6
M  V30 6 1 6 7
M  V30 7 2 7 8
M  V30 8 1 7 9
M  V30 9 1 9 10
M  V30 10 2 10 11
M  V30 11 1 11 12
M  V30 12 2 12 13
M  V30 13 1 13 14
M  V30 14 2 14 15
M  V30 15 1 9 16
M  V30 16 1 16 17
M  V30 17 2 17 18
M  V30 18 1 18 19
M  V30 19 1 19 20
M  V30 20 2 19 21
M  V30 21 1 21 22
M  V30 22 2 22 23
M  V30 23 1 22 24
M  V30 24 1 15 10
M  V30 25 1 23 17
M  V30 26 1 1 25
M  V30 27 1 1 26
M  V30 28 1 1 27
M  V30 29 1 2 28
M  V30 30 1 2 29
M  V30 31 1 3 30
M  V30 32 1 6 31
M  V30 33 1 9 32
M  V30 34 1 11 33
M  V30 35 1 12 34
M  V30 36 1 13 35
M  V30 37 1 14 36
M  V30 38 1 15 37
M  V30 39 1 20 38
M  V30 40 1 20 39
M  V30 41 1 24 40
M  V30 42 1 24 41
M  V30 END BOND
M  V30 END CTAB
M  END
