
     RDKit          3D

  0  0  0  0  0  0  0  0  0  0999 V3000
M  V30 BEGIN CTAB
M  V30 COUNTS 45 47 0 0 0
M  V30 BEGIN ATOM
M  V30 1 O 0.610527 -2.13473 -1.80086 0
M  V30 2 C 0.566837 -1.23856 -1.4408 0
M  V30 3 C -0.721232 -0.475036 -1.41509 0 CFG=2
M  V30 4 C -1.43244 -0.771444 -0.0996154 0
M  V30 5 C -2.69861 -0.00474901 -0.072731 0
M  V30 6 C -3.17184 0.903035 -0.989565 0
M  V30 7 N -4.35742 1.32934 -0.52242 0
M  V30 8 C -4.67163 0.739521 0.652619 0
M  V30 9 C -3.63225 -0.109528 0.953839 0
M  V30 10 C -3.68994 -0.852936 2.11896 0
M  V30 11 C -4.75531 -0.775462 2.99521 0
M  V30 12 C -5.79878 0.089266 2.67491 0
M  V30 13 C -5.74367 0.828532 1.51833 0
M  V30 14 N -1.54447 -1.0076 -2.5079 0
M  V30 15 N 1.72076 -0.592907 -0.918496 0
M  V30 16 C 1.63464 0.752591 -0.430047 0
M  V30 17 C 2.76719 0.899828 0.599674 0
M  V30 18 N 3.98327 0.903294 -0.171311 0
M  V30 19 C 4.15449 -0.269537 -0.970964 0
M  V30 20 C 3.01729 -1.24371 -0.860079 0
M  V30 21 S 5.35443 1.43541 0.677107 0
M  V30 22 O 5.00534 2.8013 1.25756 0
M  V30 23 O 6.5562 1.60898 -0.169357 0
M  V30 24 N 5.6845 0.410683 2.01148 0
M  V30 25 H -0.601264 0.607098 -1.49828 0
M  V30 26 H -0.774282 -0.531947 0.743396 0
M  V30 27 H -1.62038 -1.8721 -0.0224907 0
M  V30 28 H -2.68247 1.22413 -1.92309 0
M  V30 29 H -4.96533 2.03505 -1.0128 0
M  V30 30 H -2.86049 -1.50677 2.3199 0
M  V30 31 H -4.80735 -1.3514 3.90654 0
M  V30 32 H -6.63497 0.132583 3.38908 0
M  V30 33 H -6.56135 1.48993 1.29285 0
M  V30 34 H -0.885614 -1.0412 -3.3424 0
M  V30 35 H -1.78578 -1.97958 -2.25742 0
M  V30 36 H 0.691594 1.07085 -0.00735554 0
M  V30 37 H 1.84724 1.41092 -1.31202 0
M  V30 38 H 2.69504 1.84407 1.14301 0
M  V30 39 H 2.73741 -0.00842697 1.21362 0
M  V30 40 H 4.23426 0.0157674 -2.03516 0
M  V30 41 H 5.09661 -0.769591 -0.689876 0
M  V30 42 H 3.06213 -1.79678 0.100068 0
M  V30 43 H 3.04004 -1.9962 -1.67065 0
M  V30 44 H 6.73328 0.294685 2.08797 0
M  V30 45 H 5.2038 -0.496687 1.9134 0
M  V30 END ATOM
M  V30 BEGIN BOND
M  V30 1 2 1 2
M  V30 2 1 2 3
M  V30 3 1 3 4
M  V30 4 1 4 5
M  V30 5 2 5 6
M  V30 6 1 6 7
M  V30 7 1 7 8
M  V30 8 2 8 9
M  V30 9 1 9 10
M  V30 10 2 10 11
M  V30 11 1 11 12
M  V30 12 2 12 13
M  V30 13 1 3 14
M  V30 14 1 2 15
M  V30 15 1 15 16
M  V30 16 1 16 17
M  V30 17 1 17 18
M  V30 18 1 18 19
M  V30 19 1 19 20
M  V30 20 1 18 21
M  V30 21 2 21 22
M  V30 22 2 21 23
M  V30 23 1 21 24
M  V30 24 1 9 5
M  V30 25 1 20 15
M  V30 26 1 13 8
M  V30 27 1 3 25 CFG=3
M  V30 28 1 4 26
M  V30 29 1 4 27
M  V30 30 1 6 28
M  V30 31 1 7 29
M  V30 32 1 10 30
M  V30 33 1 11 31
M  V30 34 1 12 32
M  V30 35 1 13 33
M  V30 36 1 14 34
M  V30 37 1 14 35
M  V30 38 1 16 36
M  V30 39 1 16 37
M  V30 40 1 17 38
M  V30 41 1 17 39
M  V30 42 1 19 40
M  V30 43 1 19 41
M  V30 44 1 20 42
M  V30 45 1 20 43
M  V30 46 1 24 44
M  V30 47 1 24 45
M  V30 END BOND
M  V30 END CTAB
M  END
