
     RDKit          3D

  0  0  0  0  0  0  0  0  0  0999 V3000
M  V30 BEGIN CTAB
M  V30 COUNTS 30 29 0 0 0
M  V30 BEGIN ATOM
M  V30 1 C 4.17844 0.491655 0.906031 0
M  V30 2 C 3.01861 -0.322131 1.3778 0
M  V30 3 O 2.05076 -0.567199 0.388123 0
M  V30 4 C 1.3442 0.415846 -0.283097 0
M  V30 5 O 1.56405 1.59703 -0.0096426 0
M  V30 6 C 0.36389 0.00495062 -1.29136 0
M  V30 7 C -0.962915 -0.450542 -0.792631 0
M  V30 8 C -1.68715 0.583386 -0.0188194 0
M  V30 9 N -1.05794 1.06717 1.16926 0
M  V30 10 C -3.06421 0.0796357 0.385536 0
M  V30 11 N -0.886232 -1.71246 -0.0742661 0
M  V30 12 C -1.8087 -0.741042 -2.04049 0
M  V30 13 H 4.07204 1.58226 1.1758 0
M  V30 14 H 4.3994 0.364087 -0.172253 0
M  V30 15 H 5.08338 0.156371 1.45676 0
M  V30 16 H 2.61201 0.155896 2.28606 0
M  V30 17 H 3.40669 -1.323 1.68796 0
M  V30 18 H 0.82767 -0.750025 -1.99925 0
M  V30 19 H 0.154889 0.911449 -1.94166 0
M  V30 20 H -1.87339 1.45976 -0.685567 0
M  V30 21 H -1.31393 0.471986 1.99068 0
M  V30 22 H -1.48597 2.01655 1.3844 0
M  V30 23 H -3.84573 0.438368 -0.303401 0
M  V30 24 H -3.35292 0.441445 1.40585 0
M  V30 25 H -3.12798 -1.01906 0.430232 0
M  V30 26 H -0.909249 -1.5773 0.965914 0
M  V30 27 H -1.72238 -2.28922 -0.307604 0
M  V30 28 H -1.4796 -0.117016 -2.89172 0
M  V30 29 H -2.87699 -0.582518 -1.84587 0
M  V30 30 H -1.62077 -1.80094 -2.35277 0
M  V30 END ATOM
M  V30 BEGIN BOND
M  V30 1 1 1 2
M  V30 2 1 2 3
M  V30 3 1 3 4
M  V30 4 2 4 5
M  V30 5 1 4 6
M  V30 6 1 6 7
M  V30 7 1 7 8
M  V30 8 1 8 9
M  V30 9 1 8 10
M  V30 10 1 7 11
M  V30 11 1 7 12
M  V30 12 1 1 13
M  V30 13 1 1 14
M  V30 14 1 1 15
M  V30 15 1 2 16
M  V30 16 1 2 17
M  V30 17 1 6 18
M  V30 18 1 6 19
M  V30 19 1 8 20
M  V30 20 1 9 21
M  V30 21 1 9 22
M  V30 22 1 10 23
M  V30 23 1 10 24
M  V30 24 1 10 25
M  V30 25 1 11 26
M  V30 26 1 11 27
M  V30 27 1 12 28
M  V30 28 1 12 29
M  V30 29 1 12 30
M  V30 END BOND
M  V30 END CTAB
M  END
