
     RDKit          3D

  0  0  0  0  0  0  0  0  0  0999 V3000
M  V30 BEGIN CTAB
M  V30 COUNTS 27 28 0 0 0
M  V30 BEGIN ATOM
M  V30 1 N -4.27054 0.518883 -0.242318 0
M  V30 2 C -2.96152 -0.0360492 -0.158851 0
M  V30 3 C -1.98459 0.399607 -1.05171 0
M  V30 4 N -2.34868 1.39034 -2.01718 0
M  V30 5 C -0.720603 -0.126813 -0.980797 0
M  V30 6 C -0.32766 -1.07091 -0.0802485 0
M  V30 7 S 1.26286 -1.79769 0.0917103 0
M  V30 8 C 2.35189 -1.10118 1.29266 0
M  V30 9 C 2.99736 0.202206 1.03707 0
M  V30 10 C 3.91729 0.232374 -0.19072 0
M  V30 11 C 2.69927 1.1903 0.0152649 0
M  V30 12 C -1.32352 -1.49818 0.811042 0
M  V30 13 C -2.60593 -0.999885 0.779147 0
M  V30 14 H -4.80361 0.56369 -1.13143 0
M  V30 15 H -4.71572 0.892533 0.602445 0
M  V30 16 H -3.16478 1.9957 -1.8926 0
M  V30 17 H -1.76446 1.4974 -2.87208 0
M  V30 18 H 0.0112576 0.224978 -1.68971 0
M  V30 19 H 1.77969 -1.09296 2.28956 0
M  V30 20 H 3.143 -1.90054 1.53793 0
M  V30 21 H 3.52409 0.629473 1.96323 0
M  V30 22 H 4.91148 0.67053 -0.0842667 0
M  V30 23 H 3.80295 -0.567269 -0.94655 0
M  V30 24 H 3.02919 2.25732 0.214989 0
M  V30 25 H 2.00652 1.13494 -0.815481 0
M  V30 26 H -1.09043 -2.2524 1.56403 0
M  V30 27 H -3.35481 -1.3564 1.48843 0
M  V30 END ATOM
M  V30 BEGIN BOND
M  V30 1 1 1 2
M  V30 2 2 2 3
M  V30 3 1 3 4
M  V30 4 1 3 5
M  V30 5 2 5 6
M  V30 6 1 6 7
M  V30 7 1 7 8
M  V30 8 1 8 9
M  V30 9 1 9 10
M  V30 10 1 10 11
M  V30 11 1 6 12
M  V30 12 2 12 13
M  V30 13 1 13 2
M  V30 14 1 11 9
M  V30 15 1 1 14
M  V30 16 1 1 15
M  V30 17 1 4 16
M  V30 18 1 4 17
M  V30 19 1 5 18
M  V30 20 1 8 19
M  V30 21 1 8 20
M  V30 22 1 9 21
M  V30 23 1 10 22
M  V30 24 1 10 23
M  V30 25 1 11 24
M  V30 26 1 11 25
M  V30 27 1 12 26
M  V30 28 1 13 27
M  V30 END BOND
M  V30 END CTAB
M  END
