
     RDKit          3D

  0  0  0  0  0  0  0  0  0  0999 V3000
M  V30 BEGIN CTAB
M  V30 COUNTS 25 25 0 0 0
M  V30 BEGIN ATOM
M  V30 1 O 2.45856 1.82485 1.33598 0
M  V30 2 C 2.07919 0.58802 1.07279 0
M  V30 3 O 1.77125 -0.150384 2.06206 0
M  V30 4 C 2.00718 0.0443166 -0.266885 0 CFG=2
M  V30 5 C 0.818407 0.395741 -1.11766 0
M  V30 6 C -0.486788 -0.00724139 -0.653117 0
M  V30 7 C -0.982333 -1.24024 -1.11451 0
M  V30 8 C -2.19502 -1.73436 -0.690658 0
M  V30 9 C -2.9623 -1.02429 0.207496 0
M  V30 10 C -2.46997 0.178544 0.651756 0
M  V30 11 C -1.23981 0.69613 0.230012 0
M  V30 12 N -0.870555 1.97602 0.735169 0
M  V30 13 N 2.06776 -1.43667 -0.13478 0
M  V30 14 H 3.08133 2.1251 1.96771 0
M  V30 15 H 2.91355 0.301628 -0.848109 0
M  V30 16 H 1.03985 -0.0617287 -2.12895 0
M  V30 17 H 0.90214 1.50352 -1.34015 0
M  V30 18 H -0.39766 -1.82493 -1.83001 0
M  V30 19 H -2.58995 -2.68157 -1.0368 0
M  V30 20 H -3.91402 -1.43072 0.529771 0
M  V30 21 H -3.04547 0.765118 1.35591 0
M  V30 22 H -0.712886 2.12786 1.73996 0
M  V30 23 H -0.773281 2.73707 0.0254772 0
M  V30 24 H 1.21036 -1.81302 0.310059 0
M  V30 25 H 2.29046 -1.85876 -1.06251 0
M  V30 END ATOM
M  V30 BEGIN BOND
M  V30 1 1 1 2
M  V30 2 2 2 3
M  V30 3 1 2 4
M  V30 4 1 4 5
M  V30 5 1 5 6
M  V30 6 2 6 7
M  V30 7 1 7 8
M  V30 8 2 8 9
M  V30 9 1 9 10
M  V30 10 2 10 11
M  V30 11 1 11 12
M  V30 12 1 4 13
M  V30 13 1 11 6
M  V30 14 1 1 14
M  V30 15 1 4 15 CFG=3
M  V30 16 1 5 16
M  V30 17 1 5 17
M  V30 18 1 7 18
M  V30 19 1 8 19
M  V30 20 1 9 20
M  V30 21 1 10 21
M  V30 22 1 12 22
M  V30 23 1 12 23
M  V30 24 1 13 24
M  V30 25 1 13 25
M  V30 END BOND
M  V30 END CTAB
M  END
