
     RDKit          3D

  0  0  0  0  0  0  0  0  0  0999 V3000
M  V30 BEGIN CTAB
M  V30 COUNTS 58 61 0 0 0
M  V30 BEGIN ATOM
M  V30 1 C 8.8078 -0.57066 1.78027 0
M  V30 2 C 7.57068 -1.32045 1.45306 0
M  V30 3 C 7.3579 -2.55792 2.02913 0
M  V30 4 C 6.22034 -3.25467 1.73241 0
M  V30 5 C 5.30821 -2.70202 0.86054 0
M  V30 6 C 5.49649 -1.45914 0.266443 0
M  V30 7 C 6.65858 -0.769349 0.582094 0
M  V30 8 N 4.53773 -0.9121 -0.630628 0
M  V30 9 N 3.95353 -1.54336 -1.61909 0
M  V30 10 N 3.10351 -0.728402 -2.26324 0
M  V30 11 C 3.13986 0.482658 -1.66495 0
M  V30 12 C 4.05119 0.338833 -0.639967 0
M  V30 13 N 4.41348 1.3623 0.262549 0
M  V30 14 C 2.3754 1.69417 -2.025 0
M  V30 15 O 2.55384 2.71371 -1.34436 0
M  V30 16 N 1.47822 1.68116 -3.10484 0
M  V30 17 C 0.719128 2.84544 -3.46297 0
M  V30 18 C -0.203943 3.22088 -2.33499 0
M  V30 19 N -1.0847 2.07482 -2.0952 0
M  V30 20 C -2.0731 2.13244 -1.07888 0
M  V30 21 O -2.17075 3.20204 -0.386825 0
M  V30 22 C -2.95066 0.999304 -0.835135 0
M  V30 23 N -2.96307 -0.176899 -1.47686 0
M  V30 24 N -3.91899 -0.921547 -0.939076 0
M  V30 25 N -4.53997 -0.279146 0.0365197 0
M  V30 26 C -3.94452 0.933155 0.117755 0
M  V30 27 N -4.32474 1.92888 1.05012 0
M  V30 28 C -5.61317 -0.757248 0.839281 0
M  V30 29 C -5.45223 -0.837646 2.20753 0
M  V30 30 C -6.48378 -1.30105 3.01692 0
M  V30 31 C -7.68445 -1.68841 2.47109 0
M  V30 32 C -7.86107 -1.6141 1.10572 0
M  V30 33 C -6.82843 -1.15277 0.320633 0
M  V30 34 C -9.17171 -2.04091 0.548819 0
M  V30 35 H 9.66276 -1.00252 1.20588 0
M  V30 36 H 8.74977 0.489274 1.5037 0
M  V30 37 H 9.06639 -0.697166 2.85646 0
M  V30 38 H 8.07169 -3.00722 2.72101 0
M  V30 39 H 6.06752 -4.23105 2.19614 0
M  V30 40 H 4.4028 -3.25403 0.622918 0
M  V30 41 H 6.78919 0.201023 0.108253 0
M  V30 42 H 5.14241 2.07769 0.102905 0
M  V30 43 H 3.88874 1.39296 1.17958 0
M  V30 44 H 1.33273 0.806577 -3.69183 0
M  V30 45 H 1.39267 3.716 -3.70488 0
M  V30 46 H 0.1178 2.60915 -4.39236 0
M  V30 47 H 0.358533 3.4684 -1.45014 0
M  V30 48 H -0.818613 4.12018 -2.60294 0
M  V30 49 H -1.01135 1.20122 -2.65405 0
M  V30 50 H -5.16649 2.51369 0.7923 0
M  V30 51 H -3.85767 2.12726 1.94282 0
M  V30 52 H -4.5057 -0.530221 2.61773 0
M  V30 53 H -6.29223 -1.33788 4.06927 0
M  V30 54 H -8.46674 -2.04507 3.13602 0
M  V30 55 H -6.9804 -1.10132 -0.73193 0
M  V30 56 H -8.98371 -2.47683 -0.452725 0
M  V30 57 H -9.8981 -1.18779 0.508756 0
M  V30 58 H -9.53859 -2.87428 1.18283 0
M  V30 END ATOM
M  V30 BEGIN BOND
M  V30 1 1 1 2
M  V30 2 2 2 3
M  V30 3 1 3 4
M  V30 4 2 4 5
M  V30 5 1 5 6
M  V30 6 2 6 7
M  V30 7 1 6 8
M  V30 8 1 8 9
M  V30 9 2 9 10
M  V30 10 1 10 11
M  V30 11 2 11 12
M  V30 12 1 12 13
M  V30 13 1 11 14
M  V30 14 2 14 15
M  V30 15 1 14 16
M  V30 16 1 16 17
M  V30 17 1 17 18
M  V30 18 1 18 19
M  V30 19 1 19 20
M  V30 20 2 20 21
M  V30 21 1 20 22
M  V30 22 1 22 23
M  V30 23 2 23 24
M  V30 24 1 24 25
M  V30 25 1 25 26
M  V30 26 1 26 27
M  V30 27 1 25 28
M  V30 28 2 28 29
M  V30 29 1 29 30
M  V30 30 2 30 31
M  V30 31 1 31 32
M  V30 32 2 32 33
M  V30 33 1 32 34
M  V30 34 1 7 2
M  V30 35 1 12 8
M  V30 36 2 26 22
M  V30 37 1 33 28
M  V30 38 1 1 35
M  V30 39 1 1 36
M  V30 40 1 1 37
M  V30 41 1 3 38
M  V30 42 1 4 39
M  V30 43 1 5 40
M  V30 44 1 7 41
M  V30 45 1 13 42
M  V30 46 1 13 43
M  V30 47 1 16 44
M  V30 48 1 17 45
M  V30 49 1 17 46
M  V30 50 1 18 47
M  V30 51 1 18 48
M  V30 52 1 19 49
M  V30 53 1 27 50
M  V30 54 1 27 51
M  V30 55 1 29 52
M  V30 56 1 30 53
M  V30 57 1 31 54
M  V30 58 1 33 55
M  V30 59 1 34 56
M  V30 60 1 34 57
M  V30 61 1 34 58
M  V30 END BOND
M  V30 END CTAB
M  END
