
     RDKit          3D

  0  0  0  0  0  0  0  0  0  0999 V3000
M  V30 BEGIN CTAB
M  V30 COUNTS 25 26 0 0 0
M  V30 BEGIN ATOM
M  V30 1 N 1.54653 1.91641 -0.489403 0
M  V30 2 C 2.08232 0.638094 -0.182972 0
M  V30 3 C 3.45677 0.405569 -0.141285 0
M  V30 4 C 3.96444 -0.84274 0.158128 0
M  V30 5 C 3.05783 -1.85112 0.414484 0
M  V30 6 C 1.6965 -1.6206 0.373145 0
M  V30 7 C 1.18564 -0.375956 0.0746626 0
M  V30 8 C -0.251679 -0.124767 0.029144 0
M  V30 9 N -1.24475 -1.00218 0.254517 0
M  V30 10 N -2.41967 -0.440289 0.130181 0
M  V30 11 C -2.18951 0.848924 -0.187407 0
M  V30 12 N -0.840583 1.04976 -0.251375 0
M  V30 13 N -3.17582 1.8378 -0.418155 0
M  V30 14 C -3.7546 -1.03016 0.289052 0
M  V30 15 H 1.50064 2.60387 0.30583 0
M  V30 16 H 1.20974 2.19214 -1.43221 0
M  V30 17 H 4.12026 1.21574 -0.346535 0
M  V30 18 H 5.02987 -0.989198 0.182186 0
M  V30 19 H 3.48259 -2.82626 0.64808 0
M  V30 20 H 0.999915 -2.42173 0.576565 0
M  V30 21 H -3.29533 2.32114 -1.33666 0
M  V30 22 H -3.83353 2.11621 0.36139 0
M  V30 23 H -4.42615 -0.734873 -0.537395 0
M  V30 24 H -3.6903 -2.13608 0.270403 0
M  V30 25 H -4.21113 -0.749717 1.25563 0
M  V30 END ATOM
M  V30 BEGIN BOND
M  V30 1 1 1 2
M  V30 2 2 2 3
M  V30 3 1 3 4
M  V30 4 2 4 5
M  V30 5 1 5 6
M  V30 6 2 6 7
M  V30 7 1 7 8
M  V30 8 2 8 9
M  V30 9 1 9 10
M  V30 10 1 10 11
M  V30 11 2 11 12
M  V30 12 1 11 13
M  V30 13 1 10 14
M  V30 14 1 7 2
M  V30 15 1 12 8
M  V30 16 1 1 15
M  V30 17 1 1 16
M  V30 18 1 3 17
M  V30 19 1 4 18
M  V30 20 1 5 19
M  V30 21 1 6 20
M  V30 22 1 13 21
M  V30 23 1 13 22
M  V30 24 1 14 23
M  V30 25 1 14 24
M  V30 26 1 14 25
M  V30 END BOND
M  V30 END CTAB
M  END
