
     RDKit          3D

  0  0  0  0  0  0  0  0  0  0999 V3000
M  V30 BEGIN CTAB
M  V30 COUNTS 20 20 0 0 0
M  V30 BEGIN ATOM
M  V30 1 N 3.2197 -3.27332 0.273122 0
M  V30 2 C 2.45488 -2.41075 0.18694 0
M  V30 3 C 1.47548 -1.33962 0.0908345 0
M  V30 4 C 1.85812 -0.0390364 -0.162363 0
M  V30 5 C 0.900953 0.949838 -0.246475 0
M  V30 6 N 1.26104 2.31054 -0.507885 0
M  V30 7 C -0.448683 0.699508 -0.0869159 0
M  V30 8 C -0.837681 -0.60255 0.16708 0
M  V30 9 C 0.127559 -1.58723 0.249783 0
M  V30 10 C -2.28994 -0.874158 0.33914 0
M  V30 11 F -2.40852 -2.23756 0.580022 0
M  V30 12 F -2.8002 -0.223306 1.444 0
M  V30 13 F -3.00587 -0.576359 -0.80128 0
M  V30 14 N -1.41294 1.72766 -0.177055 0
M  V30 15 H 2.89378 0.187734 -0.290666 0
M  V30 16 H 1.14184 2.97673 0.291421 0
M  V30 17 H 1.61659 2.64356 -1.41104 0
M  V30 18 H -0.194335 -2.60033 0.449084 0
M  V30 19 H -1.39816 2.50691 0.514913 0
M  V30 20 H -2.15359 1.76173 -0.902665 0
M  V30 END ATOM
M  V30 BEGIN BOND
M  V30 1 3 1 2
M  V30 2 1 2 3
M  V30 3 2 3 4
M  V30 4 1 4 5
M  V30 5 1 5 6
M  V30 6 2 5 7
M  V30 7 1 7 8
M  V30 8 2 8 9
M  V30 9 1 8 10
M  V30 10 1 10 11
M  V30 11 1 10 12
M  V30 12 1 10 13
M  V30 13 1 7 14
M  V30 14 1 9 3
M  V30 15 1 4 15
M  V30 16 1 6 16
M  V30 17 1 6 17
M  V30 18 1 9 18
M  V30 19 1 14 19
M  V30 20 1 14 20
M  V30 END BOND
M  V30 END CTAB
M  END
