
     RDKit          3D

  0  0  0  0  0  0  0  0  0  0999 V3000
M  V30 BEGIN CTAB
M  V30 COUNTS 30 31 0 0 0
M  V30 BEGIN ATOM
M  V30 1 N -0.0632295 1.26665 2.06447 0
M  V30 2 N -0.197875 -0.0915604 1.83534 0
M  V30 3 C -0.123689 -0.439241 0.424903 0
M  V30 4 C 1.16653 -0.025232 -0.103156 0
M  V30 5 C 1.31066 0.852143 -1.15319 0
M  V30 6 C 2.56247 1.20594 -1.608 0
M  V30 7 C 3.68454 0.679257 -1.00946 0
M  V30 8 N 3.55659 -0.16837 0.00472705 0
M  V30 9 C 2.32077 -0.52033 0.456912 0
M  V30 10 N 2.18769 -1.43393 1.54919 0
M  V30 11 C -1.31732 0.133485 -0.254696 0
M  V30 12 C -2.61006 -0.409038 0.31921 0
M  V30 13 C -3.15488 -0.423316 -1.09279 0
M  V30 14 C -1.71535 -0.45455 -1.56833 0
M  V30 15 H -0.754834 1.85317 1.54996 0
M  V30 16 H -0.262392 1.42432 3.081 0
M  V30 17 H -1.09548 -0.486264 2.22107 0
M  V30 18 H -0.184614 -1.55169 0.374896 0
M  V30 19 H 0.433131 1.26925 -1.62758 0
M  V30 20 H 2.65986 1.91074 -2.45087 0
M  V30 21 H 4.6742 0.971524 -1.38399 0
M  V30 22 H 1.79771 -2.36954 1.34512 0
M  V30 23 H 2.46743 -1.17693 2.5039 0
M  V30 24 H -1.32806 1.24402 -0.309066 0
M  V30 25 H -2.48278 -1.44473 0.672627 0
M  V30 26 H -3.13328 0.271242 1.01662 0
M  V30 27 H -3.70176 0.510623 -1.29181 0
M  V30 28 H -3.72149 -1.35352 -1.35145 0
M  V30 29 H -1.6077 0.242828 -2.44541 0
M  V30 30 H -1.36679 -1.48694 -1.77016 0
M  V30 END ATOM
M  V30 BEGIN BOND
M  V30 1 1 1 2
M  V30 2 1 2 3
M  V30 3 1 3 4
M  V30 4 2 4 5
M  V30 5 1 5 6
M  V30 6 2 6 7
M  V30 7 1 7 8
M  V30 8 2 8 9
M  V30 9 1 9 10
M  V30 10 1 3 11
M  V30 11 1 11 12
M  V30 12 1 12 13
M  V30 13 1 13 14
M  V30 14 1 9 4
M  V30 15 1 14 11
M  V30 16 1 1 15
M  V30 17 1 1 16
M  V30 18 1 2 17
M  V30 19 1 3 18
M  V30 20 1 5 19
M  V30 21 1 6 20
M  V30 22 1 7 21
M  V30 23 1 10 22
M  V30 24 1 10 23
M  V30 25 1 11 24
M  V30 26 1 12 25
M  V30 27 1 12 26
M  V30 28 1 13 27
M  V30 29 1 13 28
M  V30 30 1 14 29
M  V30 31 1 14 30
M  V30 END BOND
M  V30 END CTAB
M  END
