
     RDKit          3D

  0  0  0  0  0  0  0  0  0  0999 V3000
M  V30 BEGIN CTAB
M  V30 COUNTS 48 48 0 0 0
M  V30 BEGIN ATOM
M  V30 1 N 6.78499 1.95568 -2.31297 0
M  V30 2 C 6.01598 1.18324 -1.42562 0
M  V30 3 C 4.91594 2.02179 -0.762267 0
M  V30 4 C 4.11429 1.18793 0.171823 0
M  V30 5 C 2.98524 0.516698 -0.285958 0
M  V30 6 C 2.22797 -0.262177 0.566236 0
M  V30 7 N 1.07075 -0.954683 0.112669 0
M  V30 8 C 0.310498 -1.75486 1.04093 0
M  V30 9 C -0.883164 -2.3719 0.346065 0 CFG=1
M  V30 10 N -1.62819 -3.1864 1.32004 0
M  V30 11 C -1.78484 -1.21283 -0.0835812 0
M  V30 12 C -3.01451 -1.71928 -0.790885 0
M  V30 13 C -3.85688 -0.533081 -1.18839 0
M  V30 14 N -4.26763 0.233771 -0.0297539 0
M  V30 15 C -5.06138 1.40696 -0.134525 0
M  V30 16 N -4.55743 2.52432 0.249097 0
M  V30 17 N -6.37843 1.38211 -0.643989 0
M  V30 18 N -7.43611 0.976828 0.160132 0 CHG=1
M  V30 19 O -7.58336 -0.357731 0.487931 0 CHG=-1
M  V30 20 O -8.29289 1.75644 0.624416 0
M  V30 21 C 2.62681 -0.3516 1.87956 0
M  V30 22 C 3.73389 0.288981 2.39034 0
M  V30 23 C 4.46871 1.06314 1.49869 0
M  V30 24 H 7.45025 2.54919 -1.82124 0
M  V30 25 H 7.20025 1.40687 -3.04414 0
M  V30 26 H 5.47218 0.399371 -2.01321 0
M  V30 27 H 6.60667 0.676 -0.645691 0
M  V30 28 H 5.38603 2.85189 -0.164176 0
M  V30 29 H 4.28129 2.48787 -1.52623 0
M  V30 30 H 2.70669 0.616222 -1.33407 0
M  V30 31 H 0.804261 -0.867278 -0.884095 0
M  V30 32 H 0.928918 -2.61455 1.41603 0
M  V30 33 H 0.00526603 -1.17488 1.94114 0
M  V30 34 H -0.571181 -3.00555 -0.479016 0
M  V30 35 H -2.22762 -2.51116 1.87103 0
M  V30 36 H -0.979979 -3.65857 1.9915 0
M  V30 37 H -2.03296 -0.685498 0.856456 0
M  V30 38 H -1.17601 -0.548408 -0.71698 0
M  V30 39 H -2.66177 -2.1948 -1.7386 0
M  V30 40 H -3.54321 -2.4729 -0.206308 0
M  V30 41 H -4.73423 -0.930021 -1.73941 0
M  V30 42 H -3.23243 0.083723 -1.88195 0
M  V30 43 H -3.96625 -0.0971774 0.910344 0
M  V30 44 H -5.10548 3.38859 0.185982 0
M  V30 45 H -6.53614 1.67325 -1.63091 0
M  V30 46 H 2.02538 -0.971092 2.55957 0
M  V30 47 H 4.04131 0.212701 3.42862 0
M  V30 48 H 5.34852 1.59286 1.83181 0
M  V30 END ATOM
M  V30 BEGIN BOND
M  V30 1 1 1 2
M  V30 2 1 2 3
M  V30 3 1 3 4
M  V30 4 2 4 5
M  V30 5 1 5 6
M  V30 6 1 6 7
M  V30 7 1 7 8
M  V30 8 1 8 9
M  V30 9 1 9 10
M  V30 10 1 9 11
M  V30 11 1 11 12
M  V30 12 1 12 13
M  V30 13 1 13 14
M  V30 14 1 14 15
M  V30 15 2 15 16 CFG=2
M  V30 16 1 15 17
M  V30 17 1 17 18
M  V30 18 1 18 19
M  V30 19 2 18 20
M  V30 20 2 6 21
M  V30 21 1 21 22
M  V30 22 2 22 23
M  V30 23 1 23 4
M  V30 24 1 1 24
M  V30 25 1 1 25
M  V30 26 1 2 26
M  V30 27 1 2 27
M  V30 28 1 3 28
M  V30 29 1 3 29
M  V30 30 1 5 30
M  V30 31 1 7 31
M  V30 32 1 8 32
M  V30 33 1 8 33
M  V30 34 1 9 34 CFG=3
M  V30 35 1 10 35
M  V30 36 1 10 36
M  V30 37 1 11 37
M  V30 38 1 11 38
M  V30 39 1 12 39
M  V30 40 1 12 40
M  V30 41 1 13 41
M  V30 42 1 13 42
M  V30 43 1 14 43
M  V30 44 1 16 44
M  V30 45 1 17 45
M  V30 46 1 21 46
M  V30 47 1 22 47
M  V30 48 1 23 48
M  V30 END BOND
M  V30 END CTAB
M  END
