
     RDKit          3D

  0  0  0  0  0  0  0  0  0  0999 V3000
M  V30 BEGIN CTAB
M  V30 COUNTS 26 27 0 0 0
M  V30 BEGIN ATOM
M  V30 1 N -5.70753 -0.141941 -0.0351363 0
M  V30 2 C -4.29753 -0.181322 0.0793631 0
M  V30 3 N -3.61937 -1.1563 -0.548593 0
M  V30 4 C -2.28157 -1.26477 -0.490766 0
M  V30 5 Cl -1.51768 -2.57896 -1.35239 0
M  V30 6 C -1.54228 -0.355818 0.233401 0
M  V30 7 N -0.14751 -0.448565 0.308216 0
M  V30 8 N 0.596151 0.12224 -0.547942 0
M  V30 9 C 2.01404 0.041961 -0.492126 0
M  V30 10 C 2.78466 1.17754 -0.300261 0
M  V30 11 C 4.17453 1.10187 -0.245157 0
M  V30 12 C 4.80958 -0.115036 -0.381949 0
M  V30 13 Cl 6.54799 -0.241484 -0.317401 0
M  V30 14 C 4.06405 -1.2585 -0.573712 0
M  V30 15 C 2.68986 -1.15736 -0.624588 0
M  V30 16 C -2.24394 0.649666 0.880776 0
M  V30 17 N -1.51937 1.60767 1.63849 0
M  V30 18 N -3.58532 0.710883 0.788826 0
M  V30 19 H -6.22941 0.630989 -0.49027 0
M  V30 20 H -6.255 -0.930968 0.358176 0
M  V30 21 H 2.28634 2.12806 -0.193522 0
M  V30 22 H 4.7971 1.97621 -0.0960497 0
M  V30 23 H 4.58529 -2.20683 -0.679067 0
M  V30 24 H 2.08672 -2.03841 -0.773694 0
M  V30 25 H -1.47765 2.59719 1.34525 0
M  V30 26 H -1.01214 1.33196 2.51013 0
M  V30 END ATOM
M  V30 BEGIN BOND
M  V30 1 1 1 2
M  V30 2 2 2 3
M  V30 3 1 3 4
M  V30 4 1 4 5
M  V30 5 2 4 6
M  V30 6 1 6 7
M  V30 7 2 7 8 CFG=2
M  V30 8 1 8 9
M  V30 9 2 9 10
M  V30 10 1 10 11
M  V30 11 2 11 12
M  V30 12 1 12 13
M  V30 13 1 12 14
M  V30 14 2 14 15
M  V30 15 1 6 16
M  V30 16 1 16 17
M  V30 17 2 16 18
M  V30 18 1 18 2
M  V30 19 1 15 9
M  V30 20 1 1 19
M  V30 21 1 1 20
M  V30 22 1 10 21
M  V30 23 1 11 22
M  V30 24 1 14 23
M  V30 25 1 15 24
M  V30 26 1 17 25
M  V30 27 1 17 26
M  V30 END BOND
M  V30 END CTAB
M  END
