
     RDKit          3D

  0  0  0  0  0  0  0  0  0  0999 V3000
M  V30 BEGIN CTAB
M  V30 COUNTS 47 48 0 0 0
M  V30 BEGIN ATOM
M  V30 1 C -6.34555 -0.236697 0.262023 0
M  V30 2 C -5.17668 0.604415 -0.153359 0
M  V30 3 C -4.05569 -0.3076 -0.60103 0
M  V30 4 C -2.84609 0.506883 -1.04203 0
M  V30 5 C -2.09171 0.983432 0.177977 0
M  V30 6 N -1.57759 -0.117711 0.945544 0
M  V30 7 C -2.18296 -1.35858 0.725681 0
M  V30 8 C -3.70018 -1.24404 0.515039 0
M  V30 9 C -0.185834 -0.11817 1.11786 0
M  V30 10 C 0.576438 -0.31198 -0.202718 0
M  V30 11 O 1.85298 -0.280432 -0.119057 0
M  V30 12 C 3.13356 -0.262952 -0.0230131 0
M  V30 13 C 3.87423 -1.13162 0.784075 0
M  V30 14 C 5.23389 -1.09708 0.859739 0
M  V30 15 C 5.96335 -0.168232 0.118887 0
M  V30 16 C 5.26041 0.693958 -0.678784 0
M  V30 17 C 3.90758 0.67831 -0.772576 0
M  V30 18 S 7.68621 -0.0754524 0.202401 0
M  V30 19 O 8.39768 -1.02294 -0.686937 0
M  V30 20 O 8.08343 -0.407625 1.63654 0
M  V30 21 N 8.19068 1.56928 -0.0427461 0
M  V30 22 N -5.52143 1.53088 -1.21823 0
M  V30 23 H -6.97682 -0.449687 -0.647187 0
M  V30 24 H -6.9603 0.291641 1.03595 0
M  V30 25 H -5.98467 -1.21895 0.626701 0
M  V30 26 H -4.81354 1.16988 0.750066 0
M  V30 27 H -4.42261 -0.83558 -1.50895 0
M  V30 28 H -3.23284 1.40444 -1.57026 0
M  V30 29 H -2.27074 -0.0842406 -1.74898 0
M  V30 30 H -1.28717 1.65407 -0.102853 0
M  V30 31 H -2.81328 1.51852 0.825688 0
M  V30 32 H -1.72774 -1.96439 -0.103191 0
M  V30 33 H -2.07452 -1.98757 1.64477 0
M  V30 34 H -4.04998 -2.24564 0.218374 0
M  V30 35 H -4.17084 -0.983856 1.4839 0
M  V30 36 H 0.243586 0.755202 1.6395 0
M  V30 37 H 0.097947 -1.02776 1.72438 0
M  V30 38 H 0.13763 -1.24897 -0.691876 0
M  V30 39 H 0.199845 0.486977 -0.936143 0
M  V30 40 H 3.27193 -1.85512 1.36042 0
M  V30 41 H 5.77055 -1.77579 1.48504 0
M  V30 42 H 5.81252 1.43127 -1.26748 0
M  V30 43 H 3.33742 1.35435 -1.39483 0
M  V30 44 H 7.9576 1.77658 -1.0673 0
M  V30 45 H 7.55358 2.19268 0.478085 0
M  V30 46 H -5.89265 0.993469 -1.99709 0
M  V30 47 H -6.18163 2.22242 -0.85456 0
M  V30 END ATOM
M  V30 BEGIN BOND
M  V30 1 1 1 2
M  V30 2 1 2 3
M  V30 3 1 3 4
M  V30 4 1 4 5
M  V30 5 1 5 6
M  V30 6 1 6 7
M  V30 7 1 7 8
M  V30 8 1 6 9
M  V30 9 1 9 10
M  V30 10 1 10 11
M  V30 11 1 11 12
M  V30 12 2 12 13
M  V30 13 1 13 14
M  V30 14 2 14 15
M  V30 15 1 15 16
M  V30 16 2 16 17
M  V30 17 1 15 18
M  V30 18 2 18 19
M  V30 19 2 18 20
M  V30 20 1 18 21
M  V30 21 1 2 22
M  V30 22 1 8 3
M  V30 23 1 17 12
M  V30 24 1 1 23
M  V30 25 1 1 24
M  V30 26 1 1 25
M  V30 27 1 2 26
M  V30 28 1 3 27
M  V30 29 1 4 28
M  V30 30 1 4 29
M  V30 31 1 5 30
M  V30 32 1 5 31
M  V30 33 1 7 32
M  V30 34 1 7 33
M  V30 35 1 8 34
M  V30 36 1 8 35
M  V30 37 1 9 36
M  V30 38 1 9 37
M  V30 39 1 10 38
M  V30 40 1 10 39
M  V30 41 1 13 40
M  V30 42 1 14 41
M  V30 43 1 16 42
M  V30 44 1 17 43
M  V30 45 1 21 44
M  V30 46 1 21 45
M  V30 47 1 22 46
M  V30 48 1 22 47
M  V30 END BOND
M  V30 END CTAB
M  END
