
     RDKit          3D

  0  0  0  0  0  0  0  0  0  0999 V3000
M  V30 BEGIN CTAB
M  V30 COUNTS 19 19 0 0 0
M  V30 BEGIN ATOM
M  V30 1 N -2.18466 1.85654 -0.663859 0
M  V30 2 N -2.34522 0.551042 -0.378583 0
M  V30 3 C -1.54436 -0.373644 -0.0793915 0
M  V30 4 C -0.119808 -0.170446 0.024841 0
M  V30 5 C 0.536035 1.02761 -0.18293 0
M  V30 6 C 1.93367 1.15639 -0.0643237 0
M  V30 7 C 2.68819 0.0672813 0.267999 0
M  V30 8 C 2.01879 -1.10931 0.46936 0
M  V30 9 C 0.677275 -1.2699 0.364079 0
M  V30 10 Cl -0.0568282 -2.85842 0.653936 0
M  V30 11 Cl 4.44185 0.187024 0.426527 0
M  V30 12 N -2.11518 -1.66676 0.159421 0
M  V30 13 H -2.0326 2.25596 -1.62882 0
M  V30 14 H -2.21395 2.56953 0.12794 0
M  V30 15 H -0.00833067 1.92002 -0.447377 0
M  V30 16 H 2.38118 2.12671 -0.241477 0
M  V30 17 H 2.6097 -1.98072 0.733896 0
M  V30 18 H -2.43782 -1.96958 1.09838 0
M  V30 19 H -2.22794 -2.31932 -0.639619 0
M  V30 END ATOM
M  V30 BEGIN BOND
M  V30 1 1 1 2
M  V30 2 2 2 3
M  V30 3 1 3 4
M  V30 4 2 4 5
M  V30 5 1 5 6
M  V30 6 2 6 7
M  V30 7 1 7 8
M  V30 8 2 8 9
M  V30 9 1 9 10
M  V30 10 1 7 11
M  V30 11 1 3 12
M  V30 12 1 9 4
M  V30 13 1 1 13
M  V30 14 1 1 14
M  V30 15 1 5 15
M  V30 16 1 6 16
M  V30 17 1 8 17
M  V30 18 1 12 18
M  V30 19 1 12 19
M  V30 END BOND
M  V30 END CTAB
M  END
