
     RDKit          3D

  0  0  0  0  0  0  0  0  0  0999 V3000
M  V30 BEGIN CTAB
M  V30 COUNTS 25 26 0 0 0
M  V30 BEGIN ATOM
M  V30 1 N -4.07219 1.20987 2.1697 0
M  V30 2 C -3.10634 0.829984 1.17989 0
M  V30 3 N -1.83077 0.686942 1.56162 0
M  V30 4 C -0.842081 0.323637 0.668811 0
M  V30 5 N 0.463265 0.180856 1.15574 0
M  V30 6 C 1.59595 -0.170255 0.393977 0
M  V30 7 C 1.70948 -0.14167 -0.960636 0
M  V30 8 C 2.9007 -0.542638 -1.59817 0
M  V30 9 C 3.99358 -0.975939 -0.902462 0
M  V30 10 Br 5.59394 -1.51378 -1.78262 0
M  V30 11 C 3.891 -1.00878 0.472152 0
M  V30 12 C 2.73251 -0.619494 1.0986 0
M  V30 13 N -1.27711 0.135283 -0.578005 0
M  V30 14 C -2.53858 0.271211 -0.981555 0
M  V30 15 N -2.8437 0.0361988 -2.34038 0
M  V30 16 N -3.48617 0.627735 -0.0867058 0
M  V30 17 H -4.66228 2.03911 1.95074 0
M  V30 18 H -4.16955 0.678299 3.05553 0
M  V30 19 H 0.575711 0.36571 2.20979 0
M  V30 20 H 0.890935 0.201683 -1.55734 0
M  V30 21 H 2.94699 -0.504986 -2.6646 0
M  V30 22 H 4.76681 -1.35515 1.01888 0
M  V30 23 H 2.67648 -0.654037 2.17078 0
M  V30 24 H -3.43062 -0.768733 -2.59152 0
M  V30 25 H -2.47795 0.668944 -3.06221 0
M  V30 END ATOM
M  V30 BEGIN BOND
M  V30 1 1 1 2
M  V30 2 2 2 3
M  V30 3 1 3 4
M  V30 4 1 4 5
M  V30 5 1 5 6
M  V30 6 2 6 7
M  V30 7 1 7 8
M  V30 8 2 8 9
M  V30 9 1 9 10
M  V30 10 1 9 11
M  V30 11 2 11 12
M  V30 12 2 4 13
M  V30 13 1 13 14
M  V30 14 1 14 15
M  V30 15 2 14 16
M  V30 16 1 16 2
M  V30 17 1 12 6
M  V30 18 1 1 17
M  V30 19 1 1 18
M  V30 20 1 5 19
M  V30 21 1 7 20
M  V30 22 1 8 21
M  V30 23 1 11 22
M  V30 24 1 12 23
M  V30 25 1 15 24
M  V30 26 1 15 25
M  V30 END BOND
M  V30 END CTAB
M  END
