
     RDKit          3D

  0  0  0  0  0  0  0  0  0  0999 V3000
M  V30 BEGIN CTAB
M  V30 COUNTS 38 38 0 0 0
M  V30 BEGIN ATOM
M  V30 1 N 5.41958 -1.67001 -0.194913 0
M  V30 2 C 4.01957 -1.50942 0.180418 0
M  V30 3 C 3.8433 -0.13869 0.764551 0
M  V30 4 N 2.49596 0.143949 1.18422 0
M  V30 5 C 1.39216 0.153028 0.306658 0
M  V30 6 O 1.64315 -0.10074 -0.899362 0
M  V30 7 C 0.0809591 0.451094 0.867994 0
M  V30 8 C -1.05925 0.572952 -0.105022 0
M  V30 9 C -0.785384 1.69521 -1.04794 0
M  V30 10 N -1.84422 1.88457 -2.02493 0
M  V30 11 C -1.18695 -0.752716 -0.812436 0
M  V30 12 C -2.48027 -1.4488 -0.657909 0
M  V30 13 C -3.693 -0.560527 -0.75216 0
M  V30 14 C -3.58283 0.66732 0.0971993 0
M  V30 15 C -2.27243 0.836618 0.765988 0
M  V30 16 H 5.97657 -2.15132 0.543985 0
M  V30 17 H 5.80542 -0.718148 -0.385455 0
M  V30 18 H 3.75716 -2.3062 0.902712 0
M  V30 19 H 3.43955 -1.68838 -0.724935 0
M  V30 20 H 4.15667 0.623671 0.00960941 0
M  V30 21 H 4.55974 -0.0293138 1.62118 0
M  V30 22 H 2.35974 0.351471 2.21001 0
M  V30 23 H 0.107784 1.35917 1.54118 0
M  V30 24 H -0.195258 -0.373879 1.59429 0
M  V30 25 H -0.704528 2.68795 -0.519393 0
M  V30 26 H 0.142843 1.57266 -1.60516 0
M  V30 27 H -1.88982 2.8414 -2.39911 0
M  V30 28 H -1.87413 1.12929 -2.7295 0
M  V30 29 H -1.00949 -0.575726 -1.91456 0
M  V30 30 H -0.378712 -1.45227 -0.515697 0
M  V30 31 H -2.59506 -2.22575 -1.44162 0
M  V30 32 H -2.55861 -1.99649 0.324378 0
M  V30 33 H -4.55836 -1.1648 -0.406889 0
M  V30 34 H -3.93247 -0.325454 -1.83123 0
M  V30 35 H -4.35112 0.619717 0.926279 0
M  V30 36 H -3.88803 1.59214 -0.469396 0
M  V30 37 H -2.17462 1.86128 1.15988 0
M  V30 38 H -2.18561 0.14516 1.64667 0
M  V30 END ATOM
M  V30 BEGIN BOND
M  V30 1 1 1 2
M  V30 2 1 2 3
M  V30 3 1 3 4
M  V30 4 1 4 5
M  V30 5 2 5 6
M  V30 6 1 5 7
M  V30 7 1 7 8
M  V30 8 1 8 9
M  V30 9 1 9 10
M  V30 10 1 8 11
M  V30 11 1 11 12
M  V30 12 1 12 13
M  V30 13 1 13 14
M  V30 14 1 14 15
M  V30 15 1 15 8
M  V30 16 1 1 16
M  V30 17 1 1 17
M  V30 18 1 2 18
M  V30 19 1 2 19
M  V30 20 1 3 20
M  V30 21 1 3 21
M  V30 22 1 4 22
M  V30 23 1 7 23
M  V30 24 1 7 24
M  V30 25 1 9 25
M  V30 26 1 9 26
M  V30 27 1 10 27
M  V30 28 1 10 28
M  V30 29 1 11 29
M  V30 30 1 11 30
M  V30 31 1 12 31
M  V30 32 1 12 32
M  V30 33 1 13 33
M  V30 34 1 13 34
M  V30 35 1 14 35
M  V30 36 1 14 36
M  V30 37 1 15 37
M  V30 38 1 15 38
M  V30 END BOND
M  V30 END CTAB
M  END
