
     RDKit          3D

  0  0  0  0  0  0  0  0  0  0999 V3000
M  V30 BEGIN CTAB
M  V30 COUNTS 63 65 0 0 0
M  V30 BEGIN ATOM
M  V30 1 C 5.53689 -2.31286 -0.749395 0
M  V30 2 C 4.36139 -1.4433 -1.20687 0
M  V30 3 C 3.28366 -2.31116 -1.80241 0
M  V30 4 C 2.12489 -1.5108 -2.3024 0
M  V30 5 C 1.51774 -0.730517 -1.116 0
M  V30 6 C 0.34514 0.0485711 -1.54221 0
M  V30 7 C -0.387459 0.796566 -0.449752 0
M  V30 8 C -0.907121 -0.165423 0.597348 0
M  V30 9 C -1.85156 -1.16183 0.0917131 0
M  V30 10 C -2.24314 -2.16766 1.22952 0
M  V30 11 C -3.20888 -3.12231 0.566408 0
M  V30 12 C -3.71062 -4.17964 1.49834 0
M  V30 13 C -4.4269 -3.50703 2.65497 0
M  V30 14 C -1.50442 1.53329 -1.05635 0
M  V30 15 C -2.57821 1.13333 -1.88324 0
M  V30 16 C -3.47231 2.08133 -2.31832 0
M  V30 17 Br -4.92619 1.54133 -3.43494 0
M  V30 18 C -3.36438 3.42743 -1.97874 0
M  V30 19 C -2.3238 3.82244 -1.17899 0
M  V30 20 C -1.40872 2.85455 -0.733268 0
M  V30 21 C -0.203179 3.02696 0.0791363 0
M  V30 22 C 0.352287 4.16791 0.673972 0
M  V30 23 C 1.50679 4.09012 1.41696 0
M  V30 24 N 2.05827 5.25096 2.01228 0
M  V30 25 C 2.14999 2.88997 1.59877 0
M  V30 26 N 3.35407 2.78204 2.3686 0
M  V30 27 C 1.58841 1.76741 1.00421 0
M  V30 28 C 0.420159 1.83229 0.2475 0
M  V30 29 H 5.67478 -3.17874 -1.41552 0
M  V30 30 H 5.35777 -2.69565 0.267235 0
M  V30 31 H 6.43788 -1.6609 -0.813174 0
M  V30 32 H 4.68189 -0.705858 -1.94919 0
M  V30 33 H 3.95816 -1.00763 -0.259072 0
M  V30 34 H 2.96063 -3.0101 -0.975415 0
M  V30 35 H 3.70171 -2.97703 -2.60364 0
M  V30 36 H 2.43712 -0.833158 -3.09694 0
M  V30 37 H 1.32365 -2.2143 -2.61443 0
M  V30 38 H 2.37545 -0.0481591 -0.789596 0
M  V30 39 H 1.39646 -1.45535 -0.308804 0
M  V30 40 H -0.395697 -0.629107 -2.0006 0
M  V30 41 H 0.658575 0.833744 -2.2714 0
M  V30 42 H -1.31318 0.460105 1.43426 0
M  V30 43 H 0.0225179 -0.639621 1.04197 0
M  V30 44 H -1.53313 -1.75684 -0.759845 0
M  V30 45 H -2.87403 -0.751381 -0.138394 0
M  V30 46 H -2.73074 -1.5524 2.01352 0
M  V30 47 H -1.34026 -2.66002 1.61293 0
M  V30 48 H -2.75886 -3.51502 -0.35437 0
M  V30 49 H -4.10151 -2.50607 0.266209 0
M  V30 50 H -2.92466 -4.82062 1.91493 0
M  V30 51 H -4.46728 -4.77704 0.952465 0
M  V30 52 H -3.65844 -2.93947 3.21674 0
M  V30 53 H -4.84374 -4.31111 3.29212 0
M  V30 54 H -5.24367 -2.84266 2.2974 0
M  V30 55 H -2.64526 0.099047 -2.17168 0
M  V30 56 H -4.11044 4.10831 -2.36255 0
M  V30 57 H -2.19269 4.84213 -0.888252 0
M  V30 58 H -0.173619 5.11895 0.519978 0
M  V30 59 H 1.80308 5.47282 2.98713 0
M  V30 60 H 2.70276 5.82498 1.41887 0
M  V30 61 H 3.52073 1.95927 2.98444 0
M  V30 62 H 4.1017 3.51088 2.34489 0
M  V30 63 H 2.10952 0.824022 1.19935 0
M  V30 END ATOM
M  V30 BEGIN BOND
M  V30 1 1 1 2
M  V30 2 1 2 3
M  V30 3 1 3 4
M  V30 4 1 4 5
M  V30 5 1 5 6
M  V30 6 1 6 7
M  V30 7 1 7 8
M  V30 8 1 8 9
M  V30 9 1 9 10
M  V30 10 1 10 11
M  V30 11 1 11 12
M  V30 12 1 12 13
M  V30 13 1 7 14
M  V30 14 2 14 15
M  V30 15 1 15 16
M  V30 16 1 16 17
M  V30 17 2 16 18
M  V30 18 1 18 19
M  V30 19 2 19 20
M  V30 20 1 20 21
M  V30 21 2 21 22
M  V30 22 1 22 23
M  V30 23 1 23 24
M  V30 24 2 23 25
M  V30 25 1 25 26
M  V30 26 1 25 27
M  V30 27 2 27 28
M  V30 28 1 28 7
M  V30 29 1 20 14
M  V30 30 1 28 21
M  V30 31 1 1 29
M  V30 32 1 1 30
M  V30 33 1 1 31
M  V30 34 1 2 32
M  V30 35 1 2 33
M  V30 36 1 3 34
M  V30 37 1 3 35
M  V30 38 1 4 36
M  V30 39 1 4 37
M  V30 40 1 5 38
M  V30 41 1 5 39
M  V30 42 1 6 40
M  V30 43 1 6 41
M  V30 44 1 8 42
M  V30 45 1 8 43
M  V30 46 1 9 44
M  V30 47 1 9 45
M  V30 48 1 10 46
M  V30 49 1 10 47
M  V30 50 1 11 48
M  V30 51 1 11 49
M  V30 52 1 12 50
M  V30 53 1 12 51
M  V30 54 1 13 52
M  V30 55 1 13 53
M  V30 56 1 13 54
M  V30 57 1 15 55
M  V30 58 1 18 56
M  V30 59 1 19 57
M  V30 60 1 22 58
M  V30 61 1 24 59
M  V30 62 1 24 60
M  V30 63 1 26 61
M  V30 64 1 26 62
M  V30 65 1 27 63
M  V30 END BOND
M  V30 END CTAB
M  END
