
     RDKit          3D

  0  0  0  0  0  0  0  0  0  0999 V3000
M  V30 BEGIN CTAB
M  V30 COUNTS 17 17 0 0 0
M  V30 BEGIN ATOM
M  V30 1 N -2.56671 -2.72276 -0.0117383 0
M  V30 2 C -1.96946 -1.75172 -0.012979 0
M  V30 3 C -1.22163 -0.516066 -0.0180294 0
M  V30 4 C -1.84139 0.716876 -0.0478046 0
M  V30 5 F -3.18658 0.798816 -0.0733984 0
M  V30 6 C -1.03801 1.84334 -0.0502039 0
M  V30 7 C 0.334048 1.77325 -0.0243013 0
M  V30 8 C 0.920817 0.522245 0.00514884 0
M  V30 9 C 0.153091 -0.625861 0.00851944 0
M  V30 10 N 0.826367 -1.87948 0.0395704 0
M  V30 11 N 2.35804 0.394285 0.0330999 0
M  V30 12 H -1.56252 2.81028 -0.0742519 0
M  V30 13 H 0.914421 2.66858 -0.0272654 0
M  V30 14 H 1.39871 -2.25175 -0.733705 0
M  V30 15 H 0.746199 -2.47963 0.900105 0
M  V30 16 H 2.89797 1.08013 0.576435 0
M  V30 17 H 2.83663 -0.38055 -0.489201 0
M  V30 END ATOM
M  V30 BEGIN BOND
M  V30 1 3 1 2
M  V30 2 1 2 3
M  V30 3 2 3 4
M  V30 4 1 4 5
M  V30 5 1 4 6
M  V30 6 2 6 7
M  V30 7 1 7 8
M  V30 8 2 8 9
M  V30 9 1 9 10
M  V30 10 1 8 11
M  V30 11 1 9 3
M  V30 12 1 6 12
M  V30 13 1 7 13
M  V30 14 1 10 14
M  V30 15 1 10 15
M  V30 16 1 11 16
M  V30 17 1 11 17
M  V30 END BOND
M  V30 END CTAB
M  END
