
     RDKit          3D

  0  0  0  0  0  0  0  0  0  0999 V3000
M  V30 BEGIN CTAB
M  V30 COUNTS 43 45 0 0 0
M  V30 BEGIN ATOM
M  V30 1 C -4.49385 2.61773 1.60256 0
M  V30 2 C -3.00695 2.65042 1.29144 0
M  V30 3 C -2.76714 1.6537 0.173342 0
M  V30 4 O -3.17533 0.392821 0.65123 0
M  V30 5 C -2.67581 -0.758703 0.0518643 0
M  V30 6 C -3.41856 -1.91487 0.224765 0
M  V30 7 C -2.93025 -3.05717 -0.365253 0
M  V30 8 C -1.75378 -3.02102 -1.08858 0
M  V30 9 N -1.0752 -1.87708 -1.22457 0
M  V30 10 C -1.50539 -0.73722 -0.671356 0
M  V30 11 N -0.762503 0.474431 -0.830408 0
M  V30 12 C -1.32871 1.62182 -0.190821 0
M  V30 13 O -0.586875 2.59992 0.0562093 0
M  V30 14 C 0.472678 0.534034 -1.58417 0
M  V30 15 C 1.65904 0.273319 -0.743986 0
M  V30 16 C 2.89189 0.304676 -1.35797 0
M  V30 17 C 4.05806 0.0739892 -0.658198 0
M  V30 18 C 3.99582 -0.195272 0.689413 0
M  V30 19 C 2.76824 -0.228975 1.313 0
M  V30 20 C 1.61294 0.00295875 0.603038 0
M  V30 21 C 5.27334 -0.443523 1.43382 0
M  V30 22 N 5.80338 0.806481 1.95551 0
M  V30 23 N -1.29028 -4.24932 -1.68464 0
M  V30 24 H -4.94012 3.6346 1.52888 0
M  V30 25 H -4.66399 2.1619 2.61139 0
M  V30 26 H -5.05784 1.98573 0.883268 0
M  V30 27 H -2.41568 2.37551 2.17696 0
M  V30 28 H -2.74234 3.65399 0.89321 0
M  V30 29 H -3.40129 1.99395 -0.680598 0
M  V30 30 H -4.33393 -1.91188 0.79571 0
M  V30 31 H -3.49175 -3.99447 -0.250391 0
M  V30 32 H 0.532145 1.53639 -2.0479 0
M  V30 33 H 0.471023 -0.259237 -2.38253 0
M  V30 34 H 2.99255 0.511915 -2.41491 0
M  V30 35 H 5.03833 0.0957962 -1.13107 0
M  V30 36 H 2.75508 -0.443425 2.37277 0
M  V30 37 H 0.633716 -0.0221123 1.09154 0
M  V30 38 H 6.02261 -0.955539 0.819915 0
M  V30 39 H 5.06833 -1.11252 2.31502 0
M  V30 40 H 5.22207 1.63409 1.63203 0
M  V30 41 H 6.81281 0.933075 1.69828 0
M  V30 42 H -1.18559 -4.31887 -2.71726 0
M  V30 43 H -1.08092 -5.02203 -1.01261 0
M  V30 END ATOM
M  V30 BEGIN BOND
M  V30 1 1 1 2
M  V30 2 1 2 3
M  V30 3 1 3 4
M  V30 4 1 4 5
M  V30 5 2 5 6
M  V30 6 1 6 7
M  V30 7 2 7 8
M  V30 8 1 8 9
M  V30 9 2 9 10
M  V30 10 1 10 11
M  V30 11 1 11 12
M  V30 12 2 12 13
M  V30 13 1 11 14
M  V30 14 1 14 15
M  V30 15 2 15 16
M  V30 16 1 16 17
M  V30 17 2 17 18
M  V30 18 1 18 19
M  V30 19 2 19 20
M  V30 20 1 18 21
M  V30 21 1 21 22
M  V30 22 1 8 23
M  V30 23 1 12 3
M  V30 24 1 20 15
M  V30 25 1 10 5
M  V30 26 1 1 24
M  V30 27 1 1 25
M  V30 28 1 1 26
M  V30 29 1 2 27
M  V30 30 1 2 28
M  V30 31 1 3 29
M  V30 32 1 6 30
M  V30 33 1 7 31
M  V30 34 1 14 32
M  V30 35 1 14 33
M  V30 36 1 16 34
M  V30 37 1 17 35
M  V30 38 1 19 36
M  V30 39 1 20 37
M  V30 40 1 21 38
M  V30 41 1 21 39
M  V30 42 1 22 40
M  V30 43 1 22 41
M  V30 44 1 23 42
M  V30 45 1 23 43
M  V30 END BOND
M  V30 END CTAB
M  END
