
     RDKit          3D

  0  0  0  0  0  0  0  0  0  0999 V3000
M  V30 BEGIN CTAB
M  V30 COUNTS 32 33 0 0 0
M  V30 BEGIN ATOM
M  V30 1 Cl -1.805 2.84457 1.49003 0
M  V30 2 C -0.220006 2.13433 1.29542 0
M  V30 3 C -0.0526324 1.02299 0.554276 0
M  V30 4 C -1.23562 0.467263 -0.0548351 0
M  V30 5 C -1.4168 0.200329 -1.37848 0
M  V30 6 C -2.58192 -0.384048 -1.87729 0
M  V30 7 C -3.59975 -0.714321 -1.0442 0
M  V30 8 C -3.44585 -0.455019 0.305425 0
M  V30 9 C -2.28434 0.126913 0.801349 0
M  V30 10 O -4.46767 -0.779625 1.18952 0
M  V30 11 N -4.78157 -1.31232 -1.55608 0
M  V30 12 C 1.2832 0.468091 0.527457 0
M  V30 13 C 1.96204 0.213868 1.73213 0
M  V30 14 C 3.24916 -0.295141 1.73731 0
M  V30 15 C 3.89014 -0.563573 0.546412 0
M  V30 16 C 3.25659 -0.32711 -0.659972 0
M  V30 17 C 1.96296 0.185606 -0.609431 0
M  V30 18 O 3.88445 -0.590782 -1.86766 0
M  V30 19 N 5.2077 -1.09122 0.509571 0
M  V30 20 Cl 1.1029 2.94122 2.06958 0
M  V30 21 H -0.682029 0.435613 -2.10914 0
M  V30 22 H -2.69017 -0.579944 -2.92376 0
M  V30 23 H -2.24902 0.281938 1.86813 0
M  V30 24 H -5.32274 -1.20196 0.868743 0
M  V30 25 H -4.90014 -2.33885 -1.43593 0
M  V30 26 H -5.51007 -0.748576 -2.03704 0
M  V30 27 H 1.44061 0.416412 2.65843 0
M  V30 28 H 3.75707 -0.484535 2.69554 0
M  V30 29 H 1.50663 0.366843 -1.57473 0
M  V30 30 H 3.3651 -0.395905 -2.71131 0
M  V30 31 H 5.34892 -2.11237 0.386031 0
M  V30 32 H 6.02787 -0.466856 0.6045 0
M  V30 END ATOM
M  V30 BEGIN BOND
M  V30 1 1 1 2
M  V30 2 2 2 3 CFG=2
M  V30 3 1 3 4
M  V30 4 2 4 5
M  V30 5 1 5 6
M  V30 6 2 6 7
M  V30 7 1 7 8
M  V30 8 2 8 9
M  V30 9 1 8 10
M  V30 10 1 7 11
M  V30 11 1 3 12
M  V30 12 2 12 13
M  V30 13 1 13 14
M  V30 14 2 14 15
M  V30 15 1 15 16
M  V30 16 2 16 17
M  V30 17 1 16 18
M  V30 18 1 15 19
M  V30 19 1 2 20
M  V30 20 1 9 4
M  V30 21 1 17 12
M  V30 22 1 5 21
M  V30 23 1 6 22
M  V30 24 1 9 23
M  V30 25 1 10 24
M  V30 26 1 11 25
M  V30 27 1 11 26
M  V30 28 1 13 27
M  V30 29 1 14 28
M  V30 30 1 17 29
M  V30 31 1 18 30
M  V30 32 1 19 31
M  V30 33 1 19 32
M  V30 END BOND
M  V30 END CTAB
M  END
