
     RDKit          3D

  0  0  0  0  0  0  0  0  0  0999 V3000
M  V30 BEGIN CTAB
M  V30 COUNTS 29 30 0 0 0
M  V30 BEGIN ATOM
M  V30 1 N 4.45338 1.55876 -0.71015 0
M  V30 2 C 3.30311 0.798743 -0.355637 0
M  V30 3 C 2.09385 1.44895 -0.159196 0
M  V30 4 C 0.939051 0.769372 0.186378 0
M  V30 5 C 0.994712 -0.620835 0.34256 0
M  V30 6 C 2.1875 -1.28674 0.151773 0
M  V30 7 C 3.32813 -0.571021 -0.194934 0
M  V30 8 C 2.27243 -2.76315 0.311661 0
M  V30 9 S -0.442565 -1.56693 0.784871 0
M  V30 10 C -1.85115 -0.491349 0.97522 0
M  V30 11 N -2.1952 0.0936103 2.11569 0
M  V30 12 N -3.26443 0.811143 1.92385 0
M  V30 13 C -3.65088 0.711066 0.634148 0
M  V30 14 N -2.7489 -0.113447 0.0516074 0
M  V30 15 N -2.76367 -0.496502 -1.28591 0
M  V30 16 C -4.81784 1.36978 0.00252178 0
M  V30 17 H 4.66458 1.80009 -1.70316 0
M  V30 18 H 5.12601 1.90128 0.0119657 0
M  V30 19 H 2.0704 2.52051 -0.28404 0
M  V30 20 H -0.00504047 1.27392 0.34019 0
M  V30 21 H 4.25571 -1.11448 -0.339825 0
M  V30 22 H 3.09065 -3.1633 -0.318978 0
M  V30 23 H 2.51077 -2.93532 1.40068 0
M  V30 24 H 1.29512 -3.24324 0.118198 0
M  V30 25 H -2.71756 -1.4923 -1.53637 0
M  V30 26 H -2.82189 0.243452 -2.01664 0
M  V30 27 H -5.20196 2.1417 0.70719 0
M  V30 28 H -4.52132 1.82738 -0.973765 0
M  V30 29 H -5.583 0.588856 -0.179912 0
M  V30 END ATOM
M  V30 BEGIN BOND
M  V30 1 1 1 2
M  V30 2 2 2 3
M  V30 3 1 3 4
M  V30 4 2 4 5
M  V30 5 1 5 6
M  V30 6 2 6 7
M  V30 7 1 6 8
M  V30 8 1 5 9
M  V30 9 1 9 10
M  V30 10 2 10 11
M  V30 11 1 11 12
M  V30 12 2 12 13
M  V30 13 1 13 14
M  V30 14 1 14 15
M  V30 15 1 13 16
M  V30 16 1 7 2
M  V30 17 1 14 10
M  V30 18 1 1 17
M  V30 19 1 1 18
M  V30 20 1 3 19
M  V30 21 1 4 20
M  V30 22 1 7 21
M  V30 23 1 8 22
M  V30 24 1 8 23
M  V30 25 1 8 24
M  V30 26 1 15 25
M  V30 27 1 15 26
M  V30 28 1 16 27
M  V30 29 1 16 28
M  V30 30 1 16 29
M  V30 END BOND
M  V30 END CTAB
M  END
