
     RDKit          3D

  0  0  0  0  0  0  0  0  0  0999 V3000
M  V30 BEGIN CTAB
M  V30 COUNTS 25 25 0 0 0
M  V30 BEGIN ATOM
M  V30 1 C 3.8324 -0.488984 -0.728944 0
M  V30 2 C 2.96977 -1.37028 0.12685 0
M  V30 3 O 1.59517 -1.10851 -0.0203839 0
M  V30 4 C 1.00012 0.108115 0.249758 0
M  V30 5 O 1.72953 1.03697 0.651005 0
M  V30 6 C -0.456205 0.303006 0.0688282 0
M  V30 7 C -1.05503 1.49601 0.331205 0
M  V30 8 N -0.295857 2.60609 0.792193 0
M  V30 9 C -2.42067 1.67381 0.160038 0
M  V30 10 C -3.21171 0.634916 -0.284664 0
M  V30 11 C -2.61031 -0.573307 -0.551222 0
M  V30 12 C -1.23727 -0.744191 -0.376741 0
M  V30 13 I -0.428347 -2.63085 -0.814423 0
M  V30 14 N -3.42434 -1.6462 -1.01001 0
M  V30 15 H 4.65119 -1.07077 -1.20137 0
M  V30 16 H 4.35709 0.254622 -0.06206 0
M  V30 17 H 3.27826 0.0118535 -1.54202 0
M  V30 18 H 3.12563 -2.42445 -0.235417 0
M  V30 19 H 3.3137 -1.31719 1.18116 0
M  V30 20 H 0.163905 3.18811 0.0528473 0
M  V30 21 H -0.229417 2.78974 1.8086 0
M  V30 22 H -2.90245 2.6187 0.36661 0
M  V30 23 H -4.29551 0.759911 -0.425386 0
M  V30 24 H -3.25468 -2.59337 -0.653114 0
M  V30 25 H -4.19495 -1.51377 -1.70054 0
M  V30 END ATOM
M  V30 BEGIN BOND
M  V30 1 1 1 2
M  V30 2 1 2 3
M  V30 3 1 3 4
M  V30 4 2 4 5
M  V30 5 1 4 6
M  V30 6 2 6 7
M  V30 7 1 7 8
M  V30 8 1 7 9
M  V30 9 2 9 10
M  V30 10 1 10 11
M  V30 11 2 11 12
M  V30 12 1 12 13
M  V30 13 1 11 14
M  V30 14 1 12 6
M  V30 15 1 1 15
M  V30 16 1 1 16
M  V30 17 1 1 17
M  V30 18 1 2 18
M  V30 19 1 2 19
M  V30 20 1 8 20
M  V30 21 1 8 21
M  V30 22 1 9 22
M  V30 23 1 10 23
M  V30 24 1 14 24
M  V30 25 1 14 25
M  V30 END BOND
M  V30 END CTAB
M  END
