
     RDKit          3D

  0  0  0  0  0  0  0  0  0  0999 V3000
M  V30 BEGIN CTAB
M  V30 COUNTS 47 49 0 0 0
M  V30 BEGIN ATOM
M  V30 1 N -7.09191 -1.36632 -0.438153 0
M  V30 2 C -5.85897 -0.667478 -0.30054 0
M  V30 3 C -5.81418 0.620071 0.205432 0
M  V30 4 C -4.65395 1.31544 0.349411 0
M  V30 5 C -3.46642 0.691975 -0.0332038 0
M  V30 6 C -3.45139 -0.592696 -0.543813 0
M  V30 7 C -4.68978 -1.25844 -0.667661 0
M  V30 8 O -2.36427 -1.2972 -0.942489 0
M  V30 9 C -1.04139 -0.928322 -0.911401 0
M  V30 10 C -0.423462 -0.692245 0.437523 0
M  V30 11 N 0.977645 -0.325209 0.193953 0
M  V30 12 C 1.99521 -1.30843 0.129567 0
M  V30 13 O 1.77415 -2.46197 0.531994 0
M  V30 14 C 3.31618 -0.953891 -0.417403 0
M  V30 15 O 3.55483 0.426445 -0.257001 0
M  V30 16 C 2.59545 1.39134 -0.200433 0
M  V30 17 C 1.27377 1.04412 0.0276111 0
M  V30 18 N 0.376185 2.03548 0.0729068 0
M  V30 19 C 0.732371 3.32252 -0.0952088 0
M  V30 20 N -0.250449 4.34829 -0.0402899 0
M  V30 21 C 2.05459 3.68377 -0.324686 0
M  V30 22 C 2.99885 2.71178 -0.378623 0
M  V30 23 C 4.44765 -1.6895 0.253723 0
M  V30 24 C 4.29848 -3.16512 0.0959861 0
M  V30 25 C 4.59826 -1.23919 1.66897 0
M  V30 26 H -7.36259 -2.11909 0.230242 0
M  V30 27 H -7.7242 -1.11591 -1.21836 0
M  V30 28 H -6.74938 1.06348 0.487861 0
M  V30 29 H -4.59467 2.3126 0.738468 0
M  V30 30 H -2.54443 1.23706 0.0560495 0
M  V30 31 H -4.67894 -2.26845 -1.0698 0
M  V30 32 H -0.872719 0.00903966 -1.53946 0
M  V30 33 H -0.443563 -1.74837 -1.41451 0
M  V30 34 H -0.443388 -1.67072 1.01801 0
M  V30 35 H -0.90057 0.0585522 1.0541 0
M  V30 36 H 3.29048 -1.17005 -1.51334 0
M  V30 37 H -0.288102 5.1131 -0.727743 0
M  V30 38 H -0.962435 4.33602 0.717447 0
M  V30 39 H 2.28683 4.72362 -0.452268 0
M  V30 40 H 4.02833 2.98698 -0.556748 0
M  V30 41 H 5.38287 -1.38121 -0.289998 0
M  V30 42 H 3.6484 -3.37598 -0.78275 0
M  V30 43 H 3.92119 -3.66679 1.00838 0
M  V30 44 H 5.28413 -3.6279 -0.129073 0
M  V30 45 H 3.62043 -1.36645 2.17522 0
M  V30 46 H 4.81192 -0.144446 1.65203 0
M  V30 47 H 5.40294 -1.83029 2.14005 0
M  V30 END ATOM
M  V30 BEGIN BOND
M  V30 1 1 1 2
M  V30 2 2 2 3
M  V30 3 1 3 4
M  V30 4 2 4 5
M  V30 5 1 5 6
M  V30 6 2 6 7
M  V30 7 1 6 8
M  V30 8 1 8 9
M  V30 9 1 9 10
M  V30 10 1 10 11
M  V30 11 1 11 12
M  V30 12 2 12 13
M  V30 13 1 12 14
M  V30 14 1 14 15
M  V30 15 1 15 16
M  V30 16 2 16 17
M  V30 17 1 17 18
M  V30 18 2 18 19
M  V30 19 1 19 20
M  V30 20 1 19 21
M  V30 21 2 21 22
M  V30 22 1 14 23
M  V30 23 1 23 24
M  V30 24 1 23 25
M  V30 25 1 7 2
M  V30 26 1 17 11
M  V30 27 1 22 16
M  V30 28 1 1 26
M  V30 29 1 1 27
M  V30 30 1 3 28
M  V30 31 1 4 29
M  V30 32 1 5 30
M  V30 33 1 7 31
M  V30 34 1 9 32
M  V30 35 1 9 33
M  V30 36 1 10 34
M  V30 37 1 10 35
M  V30 38 1 14 36
M  V30 39 1 20 37
M  V30 40 1 20 38
M  V30 41 1 21 39
M  V30 42 1 22 40
M  V30 43 1 23 41
M  V30 44 1 24 42
M  V30 45 1 24 43
M  V30 46 1 24 44
M  V30 47 1 25 45
M  V30 48 1 25 46
M  V30 49 1 25 47
M  V30 END BOND
M  V30 END CTAB
M  END
