
     RDKit          3D

  0  0  0  0  0  0  0  0  0  0999 V3000
M  V30 BEGIN CTAB
M  V30 COUNTS 32 34 0 0 0
M  V30 BEGIN ATOM
M  V30 1 N 5.6654 0.578531 -1.31775 0
M  V30 2 C 4.36541 0.354479 -0.781743 0
M  V30 3 N 3.63549 1.32326 -0.227922 0
M  V30 4 C 2.40734 1.14929 0.289794 0
M  V30 5 C 1.86095 -0.114104 0.247397 0
M  V30 6 C 0.599541 -0.32456 0.772766 0
M  V30 7 C -0.132957 0.710362 1.34443 0
M  V30 8 C -1.46661 0.470666 1.9268 0
M  V30 9 C -2.53291 0.184639 0.962334 0
M  V30 10 C -2.93515 -1.14314 0.72313 0
M  V30 11 C -3.91462 -1.46859 -0.181557 0
M  V30 12 C -4.55879 -0.490954 -0.908933 0
M  V30 13 C -4.18212 0.809528 -0.69059 0
M  V30 14 C -3.18129 1.13639 0.234576 0
M  V30 15 Cl -2.77396 2.82573 0.464413 0
M  V30 16 C 0.449174 1.94667 1.36568 0
M  V30 17 N 1.69876 2.14797 0.842991 0
M  V30 18 C 2.60184 -1.12617 -0.321838 0
M  V30 19 N 2.09128 -2.44397 -0.390867 0
M  V30 20 N 3.82713 -0.888018 -0.823294 0
M  V30 21 H 5.92416 1.53297 -1.63789 0
M  V30 22 H 6.33759 -0.191572 -1.38744 0
M  V30 23 H 0.184328 -1.3041 0.735737 0
M  V30 24 H -1.40893 -0.420119 2.62374 0
M  V30 25 H -1.756 1.30197 2.63861 0
M  V30 26 H -2.41562 -1.90303 1.30618 0
M  V30 27 H -4.18579 -2.5025 -0.327943 0
M  V30 28 H -5.34507 -0.741029 -1.63584 0
M  V30 29 H -4.65143 1.62243 -1.22924 0
M  V30 30 H -0.00126086 2.82831 1.78967 0
M  V30 31 H 1.5141 -2.81043 0.38859 0
M  V30 32 H 2.28 -3.05092 -1.20103 0
M  V30 END ATOM
M  V30 BEGIN BOND
M  V30 1 1 1 2
M  V30 2 2 2 3
M  V30 3 1 3 4
M  V30 4 2 4 5
M  V30 5 1 5 6
M  V30 6 2 6 7
M  V30 7 1 7 8
M  V30 8 1 8 9
M  V30 9 2 9 10
M  V30 10 1 10 11
M  V30 11 2 11 12
M  V30 12 1 12 13
M  V30 13 2 13 14
M  V30 14 1 14 15
M  V30 15 1 7 16
M  V30 16 2 16 17
M  V30 17 1 5 18
M  V30 18 1 18 19
M  V30 19 2 18 20
M  V30 20 1 20 2
M  V30 21 1 17 4
M  V30 22 1 14 9
M  V30 23 1 1 21
M  V30 24 1 1 22
M  V30 25 1 6 23
M  V30 26 1 8 24
M  V30 27 1 8 25
M  V30 28 1 10 26
M  V30 29 1 11 27
M  V30 30 1 12 28
M  V30 31 1 13 29
M  V30 32 1 16 30
M  V30 33 1 19 31
M  V30 34 1 19 32
M  V30 END BOND
M  V30 END CTAB
M  END
