
     RDKit          3D

  0  0  0  0  0  0  0  0  0  0999 V3000
M  V30 BEGIN CTAB
M  V30 COUNTS 28 29 0 0 0
M  V30 BEGIN ATOM
M  V30 1 N 1.08092 2.59752 0.190975 0
M  V30 2 C 1.84389 1.4271 0.0576923 0
M  V30 3 N 3.17985 1.66107 -0.158274 0
M  V30 4 C 4.07617 0.694245 -0.27918 0
M  V30 5 C 3.63376 -0.594212 -0.181985 0
M  V30 6 C 2.28981 -0.85856 0.0351048 0
M  V30 7 C 1.34036 0.170727 0.162809 0
M  V30 8 C -0.0533143 -0.120579 0.322735 0
M  V30 9 C -1.07211 0.703699 0.187788 0
M  V30 10 C -2.43818 0.104357 0.42312 0
M  V30 11 C -2.55356 -1.13793 -0.423955 0
M  V30 12 N -1.35599 -1.95698 -0.353986 0
M  V30 13 C -0.488508 -1.50517 0.730928 0
M  V30 14 N -3.42929 1.08222 0.00128727 0
M  V30 15 Cl 4.74326 -1.91596 -0.329703 0
M  V30 16 H 0.743457 2.87238 1.13366 0
M  V30 17 H 0.847457 3.19331 -0.624081 0
M  V30 18 H 5.12943 0.945715 -0.450741 0
M  V30 19 H 1.93225 -1.87064 0.1009 0
M  V30 20 H -0.960278 1.72133 -0.0889123 0
M  V30 21 H -2.55124 -0.120832 1.47823 0
M  V30 22 H -3.44644 -1.72711 -0.196989 0
M  V30 23 H -2.62165 -0.803201 -1.4993 0
M  V30 24 H -1.57253 -2.97377 -0.274479 0
M  V30 25 H -1.06145 -1.42812 1.68706 0
M  V30 26 H 0.307125 -2.2089 0.872658 0
M  V30 27 H -3.18374 1.41674 -0.963507 0
M  V30 28 H -4.35948 0.631563 0.0303591 0
M  V30 END ATOM
M  V30 BEGIN BOND
M  V30 1 1 1 2
M  V30 2 2 2 3
M  V30 3 1 3 4
M  V30 4 2 4 5
M  V30 5 1 5 6
M  V30 6 2 6 7
M  V30 7 1 7 8
M  V30 8 2 8 9
M  V30 9 1 9 10
M  V30 10 1 10 11
M  V30 11 1 11 12
M  V30 12 1 12 13
M  V30 13 1 10 14
M  V30 14 1 5 15
M  V30 15 1 7 2
M  V30 16 1 13 8
M  V30 17 1 1 16
M  V30 18 1 1 17
M  V30 19 1 4 18
M  V30 20 1 6 19
M  V30 21 1 9 20
M  V30 22 1 10 21
M  V30 23 1 11 22
M  V30 24 1 11 23
M  V30 25 1 12 24
M  V30 26 1 13 25
M  V30 27 1 13 26
M  V30 28 1 14 27
M  V30 29 1 14 28
M  V30 END BOND
M  V30 END CTAB
M  END
