
     RDKit          3D

  0  0  0  0  0  0  0  0  0  0999 V3000
M  V30 BEGIN CTAB
M  V30 COUNTS 67 70 0 0 0
M  V30 BEGIN ATOM
M  V30 1 N 10.5103 0.896774 -0.0845106 0
M  V30 2 C 9.13164 0.562605 -0.104272 0
M  V30 3 N 8.74868 -0.704611 0.0095175 0
M  V30 4 C 7.43534 -1.01257 -0.0104628 0
M  V30 5 O 7.11136 -2.24149 0.101718 0
M  V30 6 N 6.46293 -0.091743 -0.141937 0
M  V30 7 C 6.85384 1.20257 -0.258185 0
M  V30 8 C 8.18547 1.55296 -0.241809 0
M  V30 9 C 5.10934 -0.488282 -0.155223 0 CFG=2
M  V30 10 O 4.51315 -0.448307 -1.41691 0
M  V30 11 C 3.20856 -0.874791 -1.07505 0 CFG=2
M  V30 12 C 2.29987 -0.836057 -2.28028 0
M  V30 13 O 2.84089 -1.68885 -3.23738 0
M  V30 14 C 2.84284 0.127932 -0.0238768 0 CFG=1
M  V30 15 O 1.89433 -0.424036 0.82646 0
M  V30 16 P 0.510726 0.507602 0.95066 0
M  V30 17 O 0.29059 1.42929 -0.436508 0
M  V30 18 O 0.709094 1.44254 2.14741 0
M  V30 19 O -0.859118 -0.412811 1.29141 0
M  V30 20 C -1.93676 0.382266 1.66688 0
M  V30 21 C -3.16076 -0.446737 1.97075 0 CFG=1
M  V30 22 O -4.23969 0.308277 2.34507 0
M  V30 23 C -5.407 -0.253575 1.86532 0 CFG=2
M  V30 24 C -5.04149 -1.56179 1.26335 0 CFG=2
M  V30 25 O -4.87416 -2.48756 2.30443 0
M  V30 26 C -3.62073 -1.24129 0.768961 0 CFG=2
M  V30 27 O -2.90329 -2.38382 0.531427 0
M  V30 28 P -2.35235 -2.33744 -1.06708 0
M  V30 29 O -3.28937 -3.42734 -1.95699 0
M  V30 30 O -2.38794 -0.794808 -1.71914 0
M  V30 31 O -0.920356 -2.83228 -1.09262 0
M  V30 32 N -6.06356 0.671345 1.01962 0
M  V30 33 C -6.97176 0.344229 0.064463 0
M  V30 34 C -7.58387 1.30046 -0.737011 0
M  V30 35 C -7.26758 2.62653 -0.566765 0
M  V30 36 N -7.88977 3.60904 -1.38339 0
M  V30 37 N -6.36776 2.92095 0.38366 0
M  V30 38 C -5.7842 1.98479 1.15099 0
M  V30 39 O -4.95418 2.40869 2.00729 0
M  V30 40 C 4.18053 0.344003 0.676021 0 CFG=1
M  V30 41 O 4.08073 -0.206708 1.94887 0
M  V30 42 H 11.2191 0.330457 -0.615985 0
M  V30 43 H 10.8493 1.71872 0.463233 0
M  V30 44 H 6.05766 1.92402 -0.362611 0
M  V30 45 H 8.43929 2.60321 -0.338698 0
M  V30 46 H 5.01247 -1.5366 0.195303 0
M  V30 47 H 3.3122 -1.86675 -0.628905 0
M  V30 48 H 1.31824 -1.20981 -1.9663 0
M  V30 49 H 2.28393 0.20913 -2.64123 0
M  V30 50 H 3.1882 -2.51716 -2.78496 0
M  V30 51 H 2.4383 1.07503 -0.423743 0
M  V30 52 H 0.283494 2.40797 -0.215262 0
M  V30 53 H -2.19155 1.00666 0.774289 0
M  V30 54 H -1.67415 1.01808 2.53499 0
M  V30 55 H -2.95974 -1.17612 2.79334 0
M  V30 56 H -6.06305 -0.450153 2.74887 0
M  V30 57 H -5.67517 -1.96421 0.500088 0
M  V30 58 H -5.51693 -2.32099 3.04056 0
M  V30 59 H -3.66758 -0.547774 -0.0953633 0
M  V30 60 H -4.01667 -3.81643 -1.44351 0
M  V30 61 H -2.61001 -0.748132 -2.66271 0
M  V30 62 H -7.18296 -0.70498 -0.0264005 0
M  V30 63 H -8.2931 0.958977 -1.47168 0
M  V30 64 H -8.62545 4.20492 -0.956283 0
M  V30 65 H -7.62192 3.74205 -2.40041 0
M  V30 66 H 4.37847 1.41156 0.673138 0
M  V30 67 H 4.27309 -1.17763 1.86239 0
M  V30 END ATOM
M  V30 BEGIN BOND
M  V30 1 1 1 2
M  V30 2 2 2 3
M  V30 3 1 3 4
M  V30 4 2 4 5
M  V30 5 1 4 6
M  V30 6 1 6 7
M  V30 7 2 7 8
M  V30 8 1 6 9
M  V30 9 1 9 10
M  V30 10 1 10 11
M  V30 11 1 11 12
M  V30 12 1 12 13
M  V30 13 1 11 14
M  V30 14 1 14 15
M  V30 15 1 15 16
M  V30 16 1 16 17
M  V30 17 2 16 18
M  V30 18 1 16 19
M  V30 19 1 19 20
M  V30 20 1 20 21
M  V30 21 1 21 22
M  V30 22 1 22 23
M  V30 23 1 23 24
M  V30 24 1 24 25
M  V30 25 1 24 26
M  V30 26 1 26 27
M  V30 27 1 27 28
M  V30 28 1 28 29
M  V30 29 1 28 30
M  V30 30 2 28 31
M  V30 31 1 23 32
M  V30 32 1 32 33
M  V30 33 2 33 34
M  V30 34 1 34 35
M  V30 35 1 35 36
M  V30 36 2 35 37
M  V30 37 1 37 38
M  V30 38 2 38 39
M  V30 39 1 14 40
M  V30 40 1 40 41
M  V30 41 1 8 2
M  V30 42 1 40 9
M  V30 43 1 26 21
M  V30 44 1 38 32
M  V30 45 1 1 42
M  V30 46 1 1 43
M  V30 47 1 7 44
M  V30 48 1 8 45
M  V30 49 1 9 46 CFG=1
M  V30 50 1 11 47 CFG=1
M  V30 51 1 12 48
M  V30 52 1 12 49
M  V30 53 1 13 50
M  V30 54 1 14 51 CFG=3
M  V30 55 1 17 52
M  V30 56 1 20 53
M  V30 57 1 20 54
M  V30 58 1 21 55 CFG=1
M  V30 59 1 23 56 CFG=1
M  V30 60 1 24 57 CFG=3
M  V30 61 1 25 58
M  V30 62 1 26 59 CFG=3
M  V30 63 1 29 60
M  V30 64 1 30 61
M  V30 65 1 33 62
M  V30 66 1 34 63
M  V30 67 1 36 64
M  V30 68 1 36 65
M  V30 69 1 40 66 CFG=1
M  V30 70 1 41 67
M  V30 END BOND
M  V30 END CTAB
M  END
