
     RDKit          3D

  0  0  0  0  0  0  0  0  0  0999 V3000
M  V30 BEGIN CTAB
M  V30 COUNTS 31 32 0 0 0
M  V30 BEGIN ATOM
M  V30 1 N -4.45208 -0.645122 0.510508 0
M  V30 2 C -3.07904 -0.188391 0.589491 0
M  V30 3 C -2.70347 0.639942 -0.631989 0
M  V30 4 C -1.22528 0.579431 -0.875197 0
M  V30 5 C -0.507233 0.525136 0.467521 0
M  V30 6 C -0.789439 -0.786062 1.17073 0
M  V30 7 C -2.09692 -1.34316 0.651574 0
M  V30 8 C 0.97985 0.571014 0.223809 0
M  V30 9 N 1.68494 -0.356756 -0.44833 0
M  V30 10 N 2.96745 -0.0371692 -0.494386 0
M  V30 11 C 3.08376 1.12415 0.165172 0
M  V30 12 N 1.85771 1.50171 0.609593 0
M  V30 13 N 4.32226 1.81188 0.342947 0
M  V30 14 C 4.02527 -0.822088 -1.14695 0
M  V30 15 H -4.48446 -1.38571 -0.238505 0
M  V30 16 H -4.65055 -1.14381 1.40425 0
M  V30 17 H -2.98676 0.470111 1.4747 0
M  V30 18 H -3.08778 1.67412 -0.541803 0
M  V30 19 H -3.22832 0.186447 -1.49652 0
M  V30 20 H -0.920838 1.52658 -1.36167 0
M  V30 21 H -0.971839 -0.290618 -1.50729 0
M  V30 22 H -0.825814 1.40342 1.04029 0
M  V30 23 H -0.910728 -0.60402 2.26895 0
M  V30 24 H 0.0144752 -1.51239 0.962288 0
M  V30 25 H -1.93349 -1.69856 -0.385474 0
M  V30 26 H -2.47373 -2.17828 1.26825 0
M  V30 27 H 4.9853 1.61534 1.11472 0
M  V30 28 H 4.58868 2.55802 -0.33551 0
M  V30 29 H 3.86909 -0.889172 -2.2373 0
M  V30 30 H 3.93922 -1.86024 -0.74417 0
M  V30 31 H 5.00976 -0.445758 -0.851271 0
M  V30 END ATOM
M  V30 BEGIN BOND
M  V30 1 1 1 2
M  V30 2 1 2 3
M  V30 3 1 3 4
M  V30 4 1 4 5
M  V30 5 1 5 6
M  V30 6 1 6 7
M  V30 7 1 5 8
M  V30 8 2 8 9
M  V30 9 1 9 10
M  V30 10 1 10 11
M  V30 11 2 11 12
M  V30 12 1 11 13
M  V30 13 1 10 14
M  V30 14 1 7 2
M  V30 15 1 12 8
M  V30 16 1 1 15
M  V30 17 1 1 16
M  V30 18 1 2 17
M  V30 19 1 3 18
M  V30 20 1 3 19
M  V30 21 1 4 20
M  V30 22 1 4 21
M  V30 23 1 5 22
M  V30 24 1 6 23
M  V30 25 1 6 24
M  V30 26 1 7 25
M  V30 27 1 7 26
M  V30 28 1 13 27
M  V30 29 1 13 28
M  V30 30 1 14 29
M  V30 31 1 14 30
M  V30 32 1 14 31
M  V30 END BOND
M  V30 END CTAB
M  END
