
     RDKit          3D

  0  0  0  0  0  0  0  0  0  0999 V3000
M  V30 BEGIN CTAB
M  V30 COUNTS 21 22 0 0 0
M  V30 BEGIN ATOM
M  V30 1 N -3.58475 0.307463 -0.135586 0
M  V30 2 C -2.26719 -0.241483 -0.0807915 0
M  V30 3 C -2.10222 -1.60282 -0.152212 0
M  V30 4 C -0.836448 -2.13386 -0.0997678 0
M  V30 5 C 0.254088 -1.28868 0.0243109 0
M  V30 6 N 0.0800148 0.0419867 0.0932634 0
M  V30 7 C -1.15079 0.593713 0.0444096 0
M  V30 8 N -1.36749 1.98805 0.114353 0
M  V30 9 S 1.86814 -2.01295 0.0883541 0
M  V30 10 C 3.11394 -0.708041 0.25066 0
M  V30 11 N 2.91153 0.602252 0.316473 0
M  V30 12 C 3.93644 1.38794 0.432568 0
M  V30 13 N 5.1497 0.830432 0.479922 0
M  V30 14 S 4.8098 -0.814745 0.357575 0
M  V30 15 H -4.35215 0.0272105 0.506631 0
M  V30 16 H -3.77005 1.02137 -0.858699 0
M  V30 17 H -2.96393 -2.23773 -0.248256 0
M  V30 18 H -0.662609 -3.22088 -0.153987 0
M  V30 19 H -1.65533 2.40843 1.00979 0
M  V30 20 H -1.23323 2.55933 -0.733523 0
M  V30 21 H 3.82253 2.493 0.491872 0
M  V30 END ATOM
M  V30 BEGIN BOND
M  V30 1 1 1 2
M  V30 2 2 2 3
M  V30 3 1 3 4
M  V30 4 2 4 5
M  V30 5 1 5 6
M  V30 6 2 6 7
M  V30 7 1 7 8
M  V30 8 1 5 9
M  V30 9 1 9 10
M  V30 10 2 10 11
M  V30 11 1 11 12
M  V30 12 2 12 13
M  V30 13 1 13 14
M  V30 14 1 7 2
M  V30 15 1 14 10
M  V30 16 1 1 15
M  V30 17 1 1 16
M  V30 18 1 3 17
M  V30 19 1 4 18
M  V30 20 1 8 19
M  V30 21 1 8 20
M  V30 22 1 12 21
M  V30 END BOND
M  V30 END CTAB
M  END
