
     RDKit          3D

  0  0  0  0  0  0  0  0  0  0999 V3000
M  V30 BEGIN CTAB
M  V30 COUNTS 37 39 0 0 0
M  V30 BEGIN ATOM
M  V30 1 N 6.66511 0.819937 0.524483 0
M  V30 2 C 5.26605 0.637703 0.284847 0
M  V30 3 C 4.37522 1.67338 0.244521 0
M  V30 4 C 3.04839 1.41107 0.00855187 0
M  V30 5 C 2.57514 0.127797 -0.191607 0
M  V30 6 C 3.51615 -0.874386 -0.140102 0
M  V30 7 N 4.83975 -0.628231 0.0938334 0
M  V30 8 N 1.21016 -0.15579 -0.439504 0
M  V30 9 C 0.322292 0.994452 -0.571692 0
M  V30 10 C -1.05816 0.62224 -1.02087 0
M  V30 11 N -1.5491 -0.468918 -0.200036 0
M  V30 12 C -0.63643 -1.4786 0.297661 0
M  V30 13 C 0.624775 -1.44889 -0.568358 0
M  V30 14 C -2.93872 -0.5316 0.107961 0
M  V30 15 C -3.45273 -1.54553 0.885206 0
M  V30 16 C -4.80215 -1.54447 1.14269 0
M  V30 17 Cl -5.48743 -2.80851 2.12017 0
M  V30 18 N -5.5955 -0.565448 0.638983 0
M  V30 19 C -5.08439 0.415553 -0.115649 0
M  V30 20 N -3.78213 0.426819 -0.372371 0
M  V30 21 N -5.90673 1.46174 -0.658772 0
M  V30 22 H 7.24681 1.50736 0.0325753 0
M  V30 23 H 7.10083 0.208168 1.24566 0
M  V30 24 H 4.70959 2.67616 0.395274 0
M  V30 25 H 2.31024 2.22322 -0.0283975 0
M  V30 26 H 3.28637 -1.92129 -0.280165 0
M  V30 27 H 0.749192 1.77337 -1.24641 0
M  V30 28 H 0.25052 1.45397 0.434087 0
M  V30 29 H -1.6911 1.52078 -0.925843 0
M  V30 30 H -1.09872 0.31324 -2.08477 0
M  V30 31 H -1.05967 -2.50028 0.188037 0
M  V30 32 H -0.370239 -1.30368 1.33967 0
M  V30 33 H 1.31061 -2.23592 -0.244999 0
M  V30 34 H 0.323857 -1.68652 -1.61616 0
M  V30 35 H -2.78191 -2.29728 1.26028 0
M  V30 36 H -6.3127 1.40052 -1.62085 0
M  V30 37 H -6.12326 2.32786 -0.0922741 0
M  V30 END ATOM
M  V30 BEGIN BOND
M  V30 1 1 1 2
M  V30 2 2 2 3
M  V30 3 1 3 4
M  V30 4 2 4 5
M  V30 5 1 5 6
M  V30 6 2 6 7
M  V30 7 1 5 8
M  V30 8 1 8 9
M  V30 9 1 9 10
M  V30 10 1 10 11
M  V30 11 1 11 12
M  V30 12 1 12 13
M  V30 13 1 11 14
M  V30 14 2 14 15
M  V30 15 1 15 16
M  V30 16 1 16 17
M  V30 17 2 16 18
M  V30 18 1 18 19
M  V30 19 2 19 20
M  V30 20 1 19 21
M  V30 21 1 7 2
M  V30 22 1 13 8
M  V30 23 1 20 14
M  V30 24 1 1 22
M  V30 25 1 1 23
M  V30 26 1 3 24
M  V30 27 1 4 25
M  V30 28 1 6 26
M  V30 29 1 9 27
M  V30 30 1 9 28
M  V30 31 1 10 29
M  V30 32 1 10 30
M  V30 33 1 12 31
M  V30 34 1 12 32
M  V30 35 1 13 33
M  V30 36 1 13 34
M  V30 37 1 15 35
M  V30 38 1 21 36
M  V30 39 1 21 37
M  V30 END BOND
M  V30 END CTAB
M  END
