
     RDKit          3D

  0  0  0  0  0  0  0  0  0  0999 V3000
M  V30 BEGIN CTAB
M  V30 COUNTS 22 22 0 0 0
M  V30 BEGIN ATOM
M  V30 1 N 3.4216 0.877793 0.748225 0
M  V30 2 C 2.8889 -0.316534 0.139355 0
M  V30 3 C 1.38356 -0.275862 0.105101 0
M  V30 4 C 0.713077 -1.34638 -0.447608 0
M  V30 5 Cl 1.60417 -2.71064 -1.08898 0
M  V30 6 C -0.677912 -1.31495 -0.482292 0
M  V30 7 Cl -1.50559 -2.66712 -1.17972 0
M  V30 8 C -1.37266 -0.231622 0.027466 0
M  V30 9 C -2.8764 -0.240946 -0.0314009 0
M  V30 10 N -3.40146 0.959612 0.542342 0
M  V30 11 C -0.712709 0.844979 0.582796 0
M  V30 12 Cl -1.58445 2.23116 1.23568 0
M  V30 13 C 0.669108 0.789329 0.605195 0
M  V30 14 Cl 1.52449 2.13735 1.30158 0
M  V30 15 H 4.02643 0.601484 1.54131 0
M  V30 16 H 3.92573 1.41574 0.00359465 0
M  V30 17 H 3.20964 -1.23648 0.632798 0
M  V30 18 H 3.18622 -0.39115 -0.948242 0
M  V30 19 H -3.17398 -0.251786 -1.11044 0
M  V30 20 H -3.28147 -1.17309 0.416575 0
M  V30 21 H -4.17411 0.682517 1.19941 0
M  V30 22 H -3.79218 1.61659 -0.181554 0
M  V30 END ATOM
M  V30 BEGIN BOND
M  V30 1 1 1 2
M  V30 2 1 2 3
M  V30 3 2 3 4
M  V30 4 1 4 5
M  V30 5 1 4 6
M  V30 6 1 6 7
M  V30 7 2 6 8
M  V30 8 1 8 9
M  V30 9 1 9 10
M  V30 10 1 8 11
M  V30 11 1 11 12
M  V30 12 2 11 13
M  V30 13 1 13 14
M  V30 14 1 13 3
M  V30 15 1 1 15
M  V30 16 1 1 16
M  V30 17 1 2 17
M  V30 18 1 2 18
M  V30 19 1 9 19
M  V30 20 1 9 20
M  V30 21 1 10 21
M  V30 22 1 10 22
M  V30 END BOND
M  V30 END CTAB
M  END
