
     RDKit          3D

  0  0  0  0  0  0  0  0  0  0999 V3000
M  V30 BEGIN CTAB
M  V30 COUNTS 28 30 0 0 0
M  V30 BEGIN ATOM
M  V30 1 N -2.53339 2.42941 0.213437 0
M  V30 2 C -2.33086 1.02766 0.196384 0
M  V30 3 C -3.37797 0.123009 0.285961 0
M  V30 4 C -3.12758 -1.22932 0.264804 0
M  V30 5 C -1.83412 -1.68817 0.154415 0
M  V30 6 N -1.55656 -3.0798 0.130934 0
M  V30 7 C -0.763294 -0.810265 0.0628142 0
M  V30 8 C -1.02237 0.547118 0.0847137 0
M  V30 9 C 0.0971399 1.47368 -0.0110685 0
M  V30 10 O -0.143855 2.70312 0.00929992 0
M  V30 11 C 1.45418 0.960368 -0.126893 0
M  V30 12 C 1.69879 -0.415596 -0.14755 0
M  V30 13 C 2.97749 -0.924313 -0.256683 0
M  V30 14 C 4.03119 -0.0375826 -0.346839 0
M  V30 15 C 3.81628 1.33219 -0.328712 0
M  V30 16 C 2.53638 1.79862 -0.219467 0
M  V30 17 C 0.585043 -1.34762 -0.0522593 0
M  V30 18 O 0.766265 -2.59736 -0.0675218 0
M  V30 19 H -2.72 2.90024 1.11927 0
M  V30 20 H -2.50513 3.01837 -0.639858 0
M  V30 21 H -4.36994 0.494404 0.370632 0
M  V30 22 H -3.91115 -1.9715 0.331839 0
M  V30 23 H -1.26076 -3.53748 1.03874 0
M  V30 24 H -1.64761 -3.61389 -0.762554 0
M  V30 25 H 3.15046 -2.0092 -0.271277 0
M  V30 26 H 5.02688 -0.432124 -0.431829 0
M  V30 27 H 4.64465 2.01792 -0.399576 0
M  V30 28 H 2.31984 2.86814 -0.201167 0
M  V30 END ATOM
M  V30 BEGIN BOND
M  V30 1 1 1 2
M  V30 2 2 2 3
M  V30 3 1 3 4
M  V30 4 2 4 5
M  V30 5 1 5 6
M  V30 6 1 5 7
M  V30 7 2 7 8
M  V30 8 1 8 9
M  V30 9 2 9 10
M  V30 10 1 9 11
M  V30 11 2 11 12
M  V30 12 1 12 13
M  V30 13 2 13 14
M  V30 14 1 14 15
M  V30 15 2 15 16
M  V30 16 1 12 17
M  V30 17 2 17 18
M  V30 18 1 8 2
M  V30 19 1 16 11
M  V30 20 1 17 7
M  V30 21 1 1 19
M  V30 22 1 1 20
M  V30 23 1 3 21
M  V30 24 1 4 22
M  V30 25 1 6 23
M  V30 26 1 6 24
M  V30 27 1 13 25
M  V30 28 1 14 26
M  V30 29 1 15 27
M  V30 30 1 16 28
M  V30 END BOND
M  V30 END CTAB
M  END
