
     RDKit          3D

  0  0  0  0  0  0  0  0  0  0999 V3000
M  V30 BEGIN CTAB
M  V30 COUNTS 33 35 0 0 0
M  V30 BEGIN ATOM
M  V30 1 N -3.71051 2.25828 -0.414691 0
M  V30 2 C -2.59055 2.02358 -0.241612 0
M  V30 3 C -1.19159 1.70903 -0.0401908 0
M  V30 4 C -0.49493 2.50507 0.742036 0
M  V30 5 N -1.15808 3.63928 1.35194 0
M  V30 6 O 0.828828 2.31334 1.00794 0
M  V30 7 C 1.50062 1.23221 0.438209 0
M  V30 8 C 0.857119 0.349757 -0.38972 0
M  V30 9 C -0.584465 0.534733 -0.693382 0
M  V30 10 C -1.3656 -0.695622 -0.497147 0
M  V30 11 C -1.58389 -1.54771 -1.54073 0
M  V30 12 C -2.30279 -2.71519 -1.43616 0
M  V30 13 C -2.82656 -3.03038 -0.202866 0
M  V30 14 C -2.63422 -2.20047 0.887681 0
M  V30 15 C -1.89486 -1.02259 0.730792 0
M  V30 16 Br -3.36176 -2.6389 2.59948 0
M  V30 17 C 1.5633 -0.71668 -0.939181 0
M  V30 18 C 2.88937 -0.861849 -0.639857 0
M  V30 19 C 3.58483 0.00130788 0.190215 0
M  V30 20 C 2.85394 1.03839 0.710999 0
M  V30 21 N 4.96319 -0.188811 0.473315 0
M  V30 22 H -2.06489 4.00233 0.98454 0
M  V30 23 H -0.746096 4.11123 2.163 0
M  V30 24 H -0.605283 0.778988 -1.79912 0
M  V30 25 H -1.17378 -1.3031 -2.51112 0
M  V30 26 H -2.47955 -3.39266 -2.25416 0
M  V30 27 H -3.3972 -3.94255 -0.0884141 0
M  V30 28 H -1.72053 -0.344418 1.55924 0
M  V30 29 H 1.07483 -1.41381 -1.58837 0
M  V30 30 H 3.497 -1.68414 -1.04429 0
M  V30 31 H 3.33692 1.7456 1.36467 0
M  V30 32 H 5.51222 -0.804185 -0.153341 0
M  V30 33 H 5.42497 0.259937 1.2703 0
M  V30 END ATOM
M  V30 BEGIN BOND
M  V30 1 3 1 2
M  V30 2 1 2 3
M  V30 3 2 3 4
M  V30 4 1 4 5
M  V30 5 1 4 6
M  V30 6 1 6 7
M  V30 7 2 7 8
M  V30 8 1 8 9
M  V30 9 1 9 10
M  V30 10 2 10 11
M  V30 11 1 11 12
M  V30 12 2 12 13
M  V30 13 1 13 14
M  V30 14 2 14 15
M  V30 15 1 14 16
M  V30 16 1 8 17
M  V30 17 2 17 18
M  V30 18 1 18 19
M  V30 19 2 19 20
M  V30 20 1 19 21
M  V30 21 1 9 3
M  V30 22 1 15 10
M  V30 23 1 20 7
M  V30 24 1 5 22
M  V30 25 1 5 23
M  V30 26 1 9 24
M  V30 27 1 11 25
M  V30 28 1 12 26
M  V30 29 1 13 27
M  V30 30 1 15 28
M  V30 31 1 17 29
M  V30 32 1 18 30
M  V30 33 1 20 31
M  V30 34 1 21 32
M  V30 35 1 21 33
M  V30 END BOND
M  V30 END CTAB
M  END
