
     RDKit          3D

  0  0  0  0  0  0  0  0  0  0999 V3000
M  V30 BEGIN CTAB
M  V30 COUNTS 18 18 0 0 0
M  V30 BEGIN ATOM
M  V30 1 N -3.24099 0.71979 0.0606746 0
M  V30 2 C -1.88165 0.370848 0.499531 0
M  V30 3 C -1.11055 0.0388899 -0.75888 0
M  V30 4 C 0.271045 -0.326001 -0.428189 0
M  V30 5 N 1.2965 0.538941 -0.348797 0
M  V30 6 C 2.40747 -0.141055 -0.0263793 0
M  V30 7 N 3.69362 0.426987 0.148756 0
M  V30 8 N 2.03541 -1.41795 0.0856126 0
M  V30 9 N 0.743454 -1.55113 -0.154248 0
M  V30 10 H -3.46256 0.029116 -0.705193 0
M  V30 11 H -3.14832 1.64692 -0.452921 0
M  V30 12 H -1.99177 -0.564593 1.10553 0
M  V30 13 H -1.43623 1.16929 1.09258 0
M  V30 14 H -1.1046 0.989487 -1.36873 0
M  V30 15 H -1.66622 -0.764989 -1.27996 0
M  V30 16 H 4.5659 -0.111398 -0.074847 0
M  V30 17 H 3.81604 1.40215 0.506906 0
M  V30 18 H 0.213455 -2.45531 -0.128441 0
M  V30 END ATOM
M  V30 BEGIN BOND
M  V30 1 1 1 2
M  V30 2 1 2 3
M  V30 3 1 3 4
M  V30 4 2 4 5
M  V30 5 1 5 6
M  V30 6 1 6 7
M  V30 7 2 6 8
M  V30 8 1 8 9
M  V30 9 1 9 4
M  V30 10 1 1 10
M  V30 11 1 1 11
M  V30 12 1 2 12
M  V30 13 1 2 13
M  V30 14 1 3 14
M  V30 15 1 3 15
M  V30 16 1 7 16
M  V30 17 1 7 17
M  V30 18 1 9 18
M  V30 END BOND
M  V30 END CTAB
M  END
