
     RDKit          3D

  0  0  0  0  0  0  0  0  0  0999 V3000
M  V30 BEGIN CTAB
M  V30 COUNTS 55 59 0 0 0
M  V30 BEGIN ATOM
M  V30 1 C 7.3845 0.939486 -2.65057 0
M  V30 2 O 6.95955 1.6264 -1.4959 0
M  V30 3 C 6.08105 1.00584 -0.635505 0
M  V30 4 C 5.61238 1.59733 0.513767 0
M  V30 5 C 4.73222 0.961486 1.36569 0
M  V30 6 C 4.28432 -0.311137 1.08932 0
M  V30 7 C 4.75646 -0.914496 -0.0741828 0
M  V30 8 C 5.62605 -0.286745 -0.916092 0
M  V30 9 C 3.34581 -0.998866 1.98416 0
M  V30 10 N 1.99003 -1.05648 1.48045 0
M  V30 11 C 1.09388 0.0257445 1.53312 0
M  V30 12 O 1.55696 1.09252 2.07123 0
M  V30 13 C -0.274718 0.02193 1.03873 0
M  V30 14 C -1.17361 1.09313 1.10886 0
M  V30 15 N -0.836621 2.34388 1.69691 0
M  V30 16 N -2.32984 0.721661 0.548914 0
M  V30 17 C -2.24658 -0.552859 0.104921 0
M  V30 18 C -0.964281 -0.990414 0.41029 0
M  V30 19 N -0.59103 -2.24824 0.074336 0
M  V30 20 C -1.45323 -3.0687 -0.549583 0
M  V30 21 C -1.04908 -4.36919 -0.893171 0
M  V30 22 C -1.90709 -5.22712 -1.53234 0
M  V30 23 C -3.16978 -4.76018 -1.81899 0
M  V30 24 C -3.58612 -3.48998 -1.49162 0
M  V30 25 C -2.71713 -2.60919 -0.839851 0
M  V30 26 N -3.13829 -1.35862 -0.524635 0
M  V30 27 C -3.51517 1.53553 0.423026 0
M  V30 28 C -4.08824 1.82718 -0.796207 0
M  V30 29 C -5.22327 2.59604 -0.926953 0
M  V30 30 C -5.84178 3.1145 0.194311 0
M  V30 31 C -5.27662 2.82894 1.41825 0
M  V30 32 C -4.13779 2.05724 1.5453 0
M  V30 33 N -7.01881 3.91082 0.0736579 0
M  V30 34 H 8.20876 1.5531 -3.10354 0
M  V30 35 H 7.82267 -0.0643558 -2.39371 0
M  V30 36 H 6.59925 0.806659 -3.39308 0
M  V30 37 H 5.96804 2.59622 0.723824 0
M  V30 38 H 4.39696 1.46781 2.25937 0
M  V30 39 H 4.39341 -1.93146 -0.285219 0
M  V30 40 H 5.98896 -0.775183 -1.8286 0
M  V30 41 H 3.37163 -0.595451 3.02224 0
M  V30 42 H 3.70433 -2.05399 2.08768 0
M  V30 43 H 1.69227 -1.96316 1.06113 0
M  V30 44 H -0.75214 2.48152 2.73112 0
M  V30 45 H -0.662011 3.17373 1.08074 0
M  V30 46 H -0.0289631 -4.68012 -0.635793 0
M  V30 47 H -1.57738 -6.22859 -1.78979 0
M  V30 48 H -3.84415 -5.44023 -2.32268 0
M  V30 49 H -4.57955 -3.12058 -1.71598 0
M  V30 50 H -3.59895 1.4163 -1.67827 0
M  V30 51 H -5.65519 2.81199 -1.89189 0
M  V30 52 H -5.76841 3.23871 2.28848 0
M  V30 53 H -3.6862 1.82721 2.50481 0
M  V30 54 H -7.70535 3.74954 -0.685231 0
M  V30 55 H -7.17213 4.67291 0.782165 0
M  V30 END ATOM
M  V30 BEGIN BOND
M  V30 1 1 1 2
M  V30 2 1 2 3
M  V30 3 2 3 4
M  V30 4 1 4 5
M  V30 5 2 5 6
M  V30 6 1 6 7
M  V30 7 2 7 8
M  V30 8 1 6 9
M  V30 9 1 9 10
M  V30 10 1 10 11
M  V30 11 2 11 12
M  V30 12 1 11 13
M  V30 13 2 13 14
M  V30 14 1 14 15
M  V30 15 1 14 16
M  V30 16 1 16 17
M  V30 17 2 17 18
M  V30 18 1 18 19
M  V30 19 2 19 20
M  V30 20 1 20 21
M  V30 21 2 21 22
M  V30 22 1 22 23
M  V30 23 2 23 24
M  V30 24 1 24 25
M  V30 25 2 25 26
M  V30 26 1 16 27
M  V30 27 2 27 28
M  V30 28 1 28 29
M  V30 29 2 29 30
M  V30 30 1 30 31
M  V30 31 2 31 32
M  V30 32 1 30 33
M  V30 33 1 8 3
M  V30 34 1 18 13
M  V30 35 1 25 20
M  V30 36 1 32 27
M  V30 37 1 26 17
M  V30 38 1 1 34
M  V30 39 1 1 35
M  V30 40 1 1 36
M  V30 41 1 4 37
M  V30 42 1 5 38
M  V30 43 1 7 39
M  V30 44 1 8 40
M  V30 45 1 9 41
M  V30 46 1 9 42
M  V30 47 1 10 43
M  V30 48 1 15 44
M  V30 49 1 15 45
M  V30 50 1 21 46
M  V30 51 1 22 47
M  V30 52 1 23 48
M  V30 53 1 24 49
M  V30 54 1 28 50
M  V30 55 1 29 51
M  V30 56 1 31 52
M  V30 57 1 32 53
M  V30 58 1 33 54
M  V30 59 1 33 55
M  V30 END BOND
M  V30 END CTAB
M  END
