
     RDKit          3D

  0  0  0  0  0  0  0  0  0  0999 V3000
M  V30 BEGIN CTAB
M  V30 COUNTS 34 35 0 0 0
M  V30 BEGIN ATOM
M  V30 1 N -1.99637 1.53856 -0.892428 0
M  V30 2 C -3.04333 0.684774 -0.435438 0
M  V30 3 C -2.55409 -0.499891 0.370343 0
M  V30 4 C -1.62672 -1.39048 -0.394513 0
M  V30 5 C -0.629107 -1.98457 0.577503 0
M  V30 6 C 0.258592 -0.889069 1.11243 0
M  V30 7 N -0.525544 0.242809 1.55424 0
M  V30 8 C -1.91546 -0.0893995 1.65507 0
M  V30 9 C 1.25997 -0.439745 0.124914 0
M  V30 10 C 1.53833 -1.07834 -1.05947 0
M  V30 11 C 2.5065 -0.554459 -1.90724 0
M  V30 12 C 3.20724 0.592331 -1.60596 0
M  V30 13 C 2.93675 1.25406 -0.406 0
M  V30 14 C 1.97023 0.707677 0.412449 0
M  V30 15 N 3.6425 2.43448 -0.0723065 0
M  V30 16 H -1.5909 2.12103 -0.148964 0
M  V30 17 H -1.34244 1.12287 -1.5599 0
M  V30 18 H -3.68999 1.28064 0.256269 0
M  V30 19 H -3.68988 0.315611 -1.22986 0
M  V30 20 H -3.47553 -1.11433 0.591958 0
M  V30 21 H -2.16518 -2.26729 -0.847043 0
M  V30 22 H -1.12491 -0.878593 -1.23159 0
M  V30 23 H -0.067722 -2.82404 0.174489 0
M  V30 24 H -1.23547 -2.38446 1.43281 0
M  V30 25 H 0.841019 -1.28557 1.98996 0
M  V30 26 H -0.18798 0.529311 2.49527 0
M  V30 27 H -2.43732 0.834763 2.02744 0
M  V30 28 H -2.10712 -0.855556 2.45941 0
M  V30 29 H 0.997912 -1.98662 -1.32074 0
M  V30 30 H 2.69607 -1.09396 -2.83849 0
M  V30 31 H 3.95719 1.00276 -2.25713 0
M  V30 32 H 1.77961 1.25119 1.35011 0
M  V30 33 H 4.66815 2.37764 0.0718837 0
M  V30 34 H 3.145 3.32584 0.0238347 0
M  V30 END ATOM
M  V30 BEGIN BOND
M  V30 1 1 1 2
M  V30 2 1 2 3
M  V30 3 1 3 4
M  V30 4 1 4 5
M  V30 5 1 5 6
M  V30 6 1 6 7
M  V30 7 1 7 8
M  V30 8 1 6 9
M  V30 9 2 9 10
M  V30 10 1 10 11
M  V30 11 2 11 12
M  V30 12 1 12 13
M  V30 13 2 13 14
M  V30 14 1 13 15
M  V30 15 1 8 3
M  V30 16 1 14 9
M  V30 17 1 1 16
M  V30 18 1 1 17
M  V30 19 1 2 18
M  V30 20 1 2 19
M  V30 21 1 3 20
M  V30 22 1 4 21
M  V30 23 1 4 22
M  V30 24 1 5 23
M  V30 25 1 5 24
M  V30 26 1 6 25
M  V30 27 1 7 26
M  V30 28 1 8 27
M  V30 29 1 8 28
M  V30 30 1 10 29
M  V30 31 1 11 30
M  V30 32 1 12 31
M  V30 33 1 14 32
M  V30 34 1 15 33
M  V30 35 1 15 34
M  V30 END BOND
M  V30 END CTAB
M  END
