
     RDKit          3D

  0  0  0  0  0  0  0  0  0  0999 V3000
M  V30 BEGIN CTAB
M  V30 COUNTS 44 44 0 0 0
M  V30 BEGIN ATOM
M  V30 1 N -2.05156 1.64736 0.913397 0
M  V30 2 C -3.25219 0.90424 1.05091 0
M  V30 3 C -3.65097 -0.00647899 -0.0268434 0
M  V30 4 C -2.83995 -1.1483 -0.429656 0
M  V30 5 N -1.47595 -0.911835 -0.875266 0
M  V30 6 C -0.464074 -1.06704 0.068525 0
M  V30 7 O -0.831586 -1.47825 1.26727 0
M  V30 8 C 0.955954 -0.857204 -0.021587 0
M  V30 9 C 1.61814 -0.329423 -1.08814 0
M  V30 10 C 3.01939 -0.186469 -1.10548 0
M  V30 11 C 3.79095 -0.573325 -0.0423681 0
M  V30 12 C 3.13568 -1.10105 1.02764 0
M  V30 13 C 1.76817 -1.24777 1.06022 0
M  V30 14 C 5.26203 -0.441538 -0.0184832 0
M  V30 15 S 5.6773 1.15955 0.664127 0
M  V30 16 O 5.08322 2.23576 -0.190146 0
M  V30 17 O 7.16364 1.33188 0.710571 0
M  V30 18 N 5.0441 1.25904 2.25361 0
M  V30 19 C -1.26382 -0.571915 -2.23991 0
M  V30 20 C -3.99355 0.886238 -1.2487 0
M  V30 21 C -5.05549 -0.531653 0.387528 0
M  V30 22 H -2.15562 2.61823 0.591869 0
M  V30 23 H -1.34789 1.50978 1.66593 0
M  V30 24 H -3.28974 0.421691 2.07344 0
M  V30 25 H -4.08035 1.67629 1.13228 0
M  V30 26 H -2.85633 -1.93105 0.385816 0
M  V30 27 H -3.36947 -1.65999 -1.28444 0
M  V30 28 H 1.12228 0.0208167 -1.96071 0
M  V30 29 H 3.51238 0.238305 -1.97436 0
M  V30 30 H 3.68806 -1.42994 1.90927 0
M  V30 31 H 1.29858 -1.67594 1.93884 0
M  V30 32 H 5.73051 -1.24859 0.556636 0
M  V30 33 H 5.71326 -0.467257 -1.03458 0
M  V30 34 H 5.79343 1.08918 2.98183 0
M  V30 35 H 4.70303 2.23805 2.4355 0
M  V30 36 H -2.24089 -0.722395 -2.82656 0
M  V30 37 H -1.05747 0.509015 -2.43451 0
M  V30 38 H -0.573405 -1.25473 -2.79717 0
M  V30 39 H -3.09569 1.41361 -1.56364 0
M  V30 40 H -4.79837 1.59061 -0.961784 0
M  V30 41 H -4.31402 0.19066 -2.04724 0
M  V30 42 H -5.59593 0.227542 0.954672 0
M  V30 43 H -4.84498 -1.37629 1.08228 0
M  V30 44 H -5.5808 -0.949414 -0.473143 0
M  V30 END ATOM
M  V30 BEGIN BOND
M  V30 1 1 1 2
M  V30 2 1 2 3
M  V30 3 1 3 4
M  V30 4 1 4 5
M  V30 5 1 5 6
M  V30 6 2 6 7
M  V30 7 1 6 8
M  V30 8 2 8 9
M  V30 9 1 9 10
M  V30 10 2 10 11
M  V30 11 1 11 12
M  V30 12 2 12 13
M  V30 13 1 11 14
M  V30 14 1 14 15
M  V30 15 2 15 16
M  V30 16 2 15 17
M  V30 17 1 15 18
M  V30 18 1 5 19
M  V30 19 1 3 20
M  V30 20 1 3 21
M  V30 21 1 13 8
M  V30 22 1 1 22
M  V30 23 1 1 23
M  V30 24 1 2 24
M  V30 25 1 2 25
M  V30 26 1 4 26
M  V30 27 1 4 27
M  V30 28 1 9 28
M  V30 29 1 10 29
M  V30 30 1 12 30
M  V30 31 1 13 31
M  V30 32 1 14 32
M  V30 33 1 14 33
M  V30 34 1 18 34
M  V30 35 1 18 35
M  V30 36 1 19 36
M  V30 37 1 19 37
M  V30 38 1 19 38
M  V30 39 1 20 39
M  V30 40 1 20 40
M  V30 41 1 20 41
M  V30 42 1 21 42
M  V30 43 1 21 43
M  V30 44 1 21 44
M  V30 END BOND
M  V30 END CTAB
M  END
