
     RDKit          3D

  0  0  0  0  0  0  0  0  0  0999 V3000
M  V30 BEGIN CTAB
M  V30 COUNTS 60 59 0 0 0
M  V30 BEGIN ATOM
M  V30 1 C -1.25676 -3.75124 0.899686 0
M  V30 2 C -0.945208 -2.99021 -0.396424 0
M  V30 3 C 0.0120359 -1.87464 -0.152696 0
M  V30 4 C -0.48973 -0.824236 0.819299 0 CFG=2
M  V30 5 N -1.67082 -0.127539 0.4146 0
M  V30 6 C -2.14165 0.161589 -0.877816 0
M  V30 7 O -1.51198 -0.171012 -1.91339 0
M  V30 8 C -3.4382 0.894725 -1.08911 0 CFG=1
M  V30 9 N -3.42608 1.36892 -2.46737 0
M  V30 10 C -4.6419 0.0365364 -0.833678 0
M  V30 11 C -4.76175 -0.518386 0.539579 0
M  V30 12 C -5.92771 0.705939 -1.22307 0
M  V30 13 C -6.15849 1.99264 -0.461331 0
M  V30 14 C 0.552774 0.0980967 1.27391 0
M  V30 15 O 0.360124 1.35834 1.27728 0
M  V30 16 N 1.8218 -0.3542 1.73168 0
M  V30 17 C 2.83467 0.574415 2.17484 0
M  V30 18 C 4.11445 0.273457 1.43718 0
M  V30 19 P 3.93674 0.437509 -0.346558 0
M  V30 20 O 3.00411 1.7608 -0.794021 0
M  V30 21 O 3.4058 -0.849565 -0.968161 0
M  V30 22 C 5.59142 0.694715 -1.09916 0
M  V30 23 C 5.87536 2.17689 -1.02421 0
M  V30 24 N 5.48902 0.262026 -2.47527 0
M  V30 25 C 3.05867 0.346524 3.63772 0
M  V30 26 O 3.98335 1.10464 4.32472 0
M  V30 27 O 2.41377 -0.529256 4.25198 0
M  V30 28 H -0.378157 -3.63314 1.56948 0
M  V30 29 H -2.19239 -3.34763 1.33931 0
M  V30 30 H -1.41028 -4.81866 0.639158 0
M  V30 31 H -0.523617 -3.69386 -1.1407 0
M  V30 32 H -1.91098 -2.64921 -0.795933 0
M  V30 33 H 0.306896 -1.41148 -1.09276 0
M  V30 34 H 0.949292 -2.33832 0.272729 0
M  V30 35 H -0.78701 -1.48734 1.72231 0
M  V30 36 H -2.30234 0.250755 1.20677 0
M  V30 37 H -3.44016 1.75637 -0.405729 0
M  V30 38 H -2.97476 0.639414 -3.0631 0
M  V30 39 H -2.775 2.19614 -2.47677 0
M  V30 40 H -4.53792 -0.848976 -1.52679 0
M  V30 41 H -5.80256 -0.922642 0.732528 0
M  V30 42 H -4.66259 0.322047 1.27197 0
M  V30 43 H -4.03113 -1.31109 0.795257 0
M  V30 44 H -6.75458 -0.00115236 -1.00989 0
M  V30 45 H -5.92939 0.873404 -2.32526 0
M  V30 46 H -7.22674 2.08496 -0.153915 0
M  V30 47 H -5.58659 1.98767 0.510321 0
M  V30 48 H -5.9327 2.89543 -1.06401 0
M  V30 49 H 1.9955 -1.3961 1.73595 0
M  V30 50 H 2.49044 1.63234 2.01585 0
M  V30 51 H 4.39406 -0.77357 1.72102 0
M  V30 52 H 4.91812 0.941302 1.83294 0
M  V30 53 H 3.5549 2.51673 -1.09492 0
M  V30 54 H 6.34303 0.0835944 -0.570352 0
M  V30 55 H 5.35845 2.57744 -0.138747 0
M  V30 56 H 5.43168 2.65757 -1.92519 0
M  V30 57 H 6.97783 2.31277 -0.999625 0
M  V30 58 H 6.41623 0.152831 -2.94224 0
M  V30 59 H 4.97299 -0.661215 -2.51257 0
M  V30 60 H 4.96568 1.15614 4.08935 0
M  V30 END ATOM
M  V30 BEGIN BOND
M  V30 1 1 1 2
M  V30 2 1 2 3
M  V30 3 1 3 4
M  V30 4 1 4 5
M  V30 5 1 5 6
M  V30 6 2 6 7
M  V30 7 1 6 8
M  V30 8 1 8 9
M  V30 9 1 8 10
M  V30 10 1 10 11
M  V30 11 1 10 12
M  V30 12 1 12 13
M  V30 13 1 4 14
M  V30 14 2 14 15
M  V30 15 1 14 16
M  V30 16 1 16 17
M  V30 17 1 17 18
M  V30 18 1 18 19
M  V30 19 1 19 20
M  V30 20 2 19 21
M  V30 21 1 19 22
M  V30 22 1 22 23
M  V30 23 1 22 24
M  V30 24 1 17 25
M  V30 25 1 25 26
M  V30 26 2 25 27
M  V30 27 1 1 28
M  V30 28 1 1 29
M  V30 29 1 1 30
M  V30 30 1 2 31
M  V30 31 1 2 32
M  V30 32 1 3 33
M  V30 33 1 3 34
M  V30 34 1 4 35 CFG=1
M  V30 35 1 5 36
M  V30 36 1 8 37 CFG=1
M  V30 37 1 9 38
M  V30 38 1 9 39
M  V30 39 1 10 40
M  V30 40 1 11 41
M  V30 41 1 11 42
M  V30 42 1 11 43
M  V30 43 1 12 44
M  V30 44 1 12 45
M  V30 45 1 13 46
M  V30 46 1 13 47
M  V30 47 1 13 48
M  V30 48 1 16 49
M  V30 49 1 17 50
M  V30 50 1 18 51
M  V30 51 1 18 52
M  V30 52 1 20 53
M  V30 53 1 22 54
M  V30 54 1 23 55
M  V30 55 1 23 56
M  V30 56 1 23 57
M  V30 57 1 24 58
M  V30 58 1 24 59
M  V30 59 1 26 60
M  V30 END BOND
M  V30 END CTAB
M  END
