
     RDKit          3D

  0  0  0  0  0  0  0  0  0  0999 V3000
M  V30 BEGIN CTAB
M  V30 COUNTS 31 32 0 0 0
M  V30 BEGIN ATOM
M  V30 1 N 4.80617 0.242871 1.00776 0
M  V30 2 C 4.55641 -0.301595 -0.281866 0
M  V30 3 N 3.33795 -0.444235 -0.712924 0
M  V30 4 C 2.21995 -0.0688952 0.0718498 0
M  V30 5 S 2.23363 0.601415 1.63629 0
M  V30 6 C 0.525537 0.755775 1.85799 0
M  V30 7 C 0.066854 0.2605 0.66575 0
M  V30 8 N 0.943044 -0.141338 -0.200495 0
M  V30 9 C -1.40814 0.189105 0.379796 0
M  V30 10 C -1.8488 -1.20594 0.0632319 0
M  V30 11 C -3.36291 -1.20966 0.0358886 0
M  V30 12 C -3.95289 0.072237 -0.439239 0
M  V30 13 C -3.07384 0.877153 -1.33414 0
M  V30 14 C -1.67155 1.04584 -0.840263 0
M  V30 15 F -5.106 -0.242694 -1.16214 0
M  V30 16 F -4.37502 0.899402 0.59583 0
M  V30 17 N 5.66702 -0.676818 -1.06696 0
M  V30 18 H 4.84933 -0.304301 1.87859 0
M  V30 19 H 4.95582 1.28619 1.05602 0
M  V30 20 H -0.049995 1.14264 2.71366 0
M  V30 21 H -1.98547 0.567769 1.21621 0
M  V30 22 H -1.52225 -1.54382 -0.951031 0
M  V30 23 H -1.5408 -1.93843 0.830127 0
M  V30 24 H -3.75142 -2.09489 -0.543303 0
M  V30 25 H -3.71381 -1.38001 1.09557 0
M  V30 26 H -3.06598 0.522537 -2.39454 0
M  V30 27 H -3.52594 1.9107 -1.39366 0
M  V30 28 H -0.934771 0.701482 -1.61789 0
M  V30 29 H -1.41239 2.099 -0.631666 0
M  V30 30 H 6.56909 -1.02364 -0.68927 0
M  V30 31 H 5.57117 -0.598353 -2.11109 0
M  V30 END ATOM
M  V30 BEGIN BOND
M  V30 1 1 1 2
M  V30 2 2 2 3 CFG=2
M  V30 3 1 3 4
M  V30 4 1 4 5
M  V30 5 1 5 6
M  V30 6 2 6 7
M  V30 7 1 7 8
M  V30 8 1 7 9
M  V30 9 1 9 10
M  V30 10 1 10 11
M  V30 11 1 11 12
M  V30 12 1 12 13
M  V30 13 1 13 14
M  V30 14 1 12 15
M  V30 15 1 12 16
M  V30 16 1 2 17
M  V30 17 2 8 4
M  V30 18 1 14 9
M  V30 19 1 1 18
M  V30 20 1 1 19
M  V30 21 1 6 20
M  V30 22 1 9 21
M  V30 23 1 10 22
M  V30 24 1 10 23
M  V30 25 1 11 24
M  V30 26 1 11 25
M  V30 27 1 13 26
M  V30 28 1 13 27
M  V30 29 1 14 28
M  V30 30 1 14 29
M  V30 31 1 17 30
M  V30 32 1 17 31
M  V30 END BOND
M  V30 END CTAB
M  END
