
     RDKit          3D

  0  0  0  0  0  0  0  0  0  0999 V3000
M  V30 BEGIN CTAB
M  V30 COUNTS 57 58 0 0 0
M  V30 BEGIN ATOM
M  V30 1 N 7.76379 -0.354333 0.26643 0
M  V30 2 C 6.31817 -0.420063 0.37641 0
M  V30 3 C 5.76856 0.954594 0.0745267 0
M  V30 4 N 4.32341 0.991028 0.162864 0
M  V30 5 C 3.68436 0.243435 -0.870566 0
M  V30 6 C 2.19628 0.302442 -0.80445 0
M  V30 7 N 1.61112 0.513309 0.471275 0
M  V30 8 C 2.44956 0.890564 1.58977 0
M  V30 9 C 3.86277 0.406341 1.42171 0
M  V30 10 C 0.186018 0.399324 0.768263 0
M  V30 11 O -0.0503981 0.592823 1.98004 0
M  V30 12 C -0.790678 0.105563 -0.206361 0
M  V30 13 O -0.313078 0.0680435 -1.42977 0
M  V30 14 N -2.18839 -0.160207 -0.156883 0
M  V30 15 C -2.80758 -0.341102 -1.481 0
M  V30 16 C -2.11601 -1.49272 -2.23277 0
M  V30 17 C -2.51666 0.915223 -2.33627 0
M  V30 18 C -4.24097 -0.644227 -1.54072 0
M  V30 19 C -5.04952 -0.264567 -0.326653 0
M  V30 20 C -4.37632 -0.778051 0.902183 0
M  V30 21 C -2.94971 -0.269614 1.04639 0
M  V30 22 C -3.01807 1.05167 1.83909 0
M  V30 23 C -2.32177 -1.29184 2.00707 0
M  V30 24 N -5.36639 1.14937 -0.290463 0
M  V30 25 H 8.17079 -0.496075 1.23992 0
M  V30 26 H 8.16035 -1.16125 -0.281826 0
M  V30 27 H 5.9806 -1.1767 -0.360854 0
M  V30 28 H 6.02102 -0.736523 1.4006 0
M  V30 29 H 6.20567 1.67704 0.776538 0
M  V30 30 H 6.09072 1.2184 -0.94104 0
M  V30 31 H 4.06995 -0.800226 -0.954789 0
M  V30 32 H 4.00172 0.721386 -1.84574 0
M  V30 33 H 1.84754 -0.714021 -1.15249 0
M  V30 34 H 1.84283 1.09163 -1.52836 0
M  V30 35 H 2.034 0.544227 2.55778 0
M  V30 36 H 2.51964 2.01836 1.62554 0
M  V30 37 H 3.955 -0.684468 1.37125 0
M  V30 38 H 4.49901 0.788319 2.2199 0
M  V30 39 H -1.53949 -1.14919 -3.0999 0
M  V30 40 H -2.88334 -2.24314 -2.59222 0
M  V30 41 H -1.43239 -2.04113 -1.55476 0
M  V30 42 H -2.0546 1.67769 -1.72386 0
M  V30 43 H -1.86308 0.616361 -3.16053 0
M  V30 44 H -3.46532 1.25217 -2.8218 0
M  V30 45 H -4.70254 -0.120832 -2.40701 0
M  V30 46 H -4.40164 -1.75551 -1.65927 0
M  V30 47 H -6.02248 -0.794115 -0.417478 0
M  V30 48 H -4.31158 -1.88171 0.799162 0
M  V30 49 H -4.92899 -0.457951 1.79249 0
M  V30 50 H -2.67981 0.939116 2.8802 0
M  V30 51 H -4.0871 1.37232 1.93183 0
M  V30 52 H -2.47799 1.86826 1.36342 0
M  V30 53 H -2.19561 -0.918933 3.01841 0
M  V30 54 H -3.07943 -2.1282 2.10686 0
M  V30 55 H -1.45131 -1.79833 1.54765 0
M  V30 56 H -5.83716 1.41665 -1.17105 0
M  V30 57 H -6.04347 1.28936 0.493553 0
M  V30 END ATOM
M  V30 BEGIN BOND
M  V30 1 1 1 2
M  V30 2 1 2 3
M  V30 3 1 3 4
M  V30 4 1 4 5
M  V30 5 1 5 6
M  V30 6 1 6 7
M  V30 7 1 7 8
M  V30 8 1 8 9
M  V30 9 1 7 10
M  V30 10 2 10 11
M  V30 11 1 10 12
M  V30 12 2 12 13
M  V30 13 1 12 14
M  V30 14 1 14 15
M  V30 15 1 15 16
M  V30 16 1 15 17
M  V30 17 1 15 18
M  V30 18 1 18 19
M  V30 19 1 19 20
M  V30 20 1 20 21
M  V30 21 1 21 22
M  V30 22 1 21 23
M  V30 23 1 19 24
M  V30 24 1 9 4
M  V30 25 1 21 14
M  V30 26 1 1 25
M  V30 27 1 1 26
M  V30 28 1 2 27
M  V30 29 1 2 28
M  V30 30 1 3 29
M  V30 31 1 3 30
M  V30 32 1 5 31
M  V30 33 1 5 32
M  V30 34 1 6 33
M  V30 35 1 6 34
M  V30 36 1 8 35
M  V30 37 1 8 36
M  V30 38 1 9 37
M  V30 39 1 9 38
M  V30 40 1 16 39
M  V30 41 1 16 40
M  V30 42 1 16 41
M  V30 43 1 17 42
M  V30 44 1 17 43
M  V30 45 1 17 44
M  V30 46 1 18 45
M  V30 47 1 18 46
M  V30 48 1 19 47
M  V30 49 1 20 48
M  V30 50 1 20 49
M  V30 51 1 22 50
M  V30 52 1 22 51
M  V30 53 1 22 52
M  V30 54 1 23 53
M  V30 55 1 23 54
M  V30 56 1 23 55
M  V30 57 1 24 56
M  V30 58 1 24 57
M  V30 END BOND
M  V30 END CTAB
M  END
