
     RDKit          3D

  0  0  0  0  0  0  0  0  0  0999 V3000
M  V30 BEGIN CTAB
M  V30 COUNTS 50 52 0 0 0
M  V30 BEGIN ATOM
M  V30 1 C 6.93618 -1.91689 0.846071 0
M  V30 2 O 5.79765 -1.18085 0.61588 0
M  V30 3 C 5.7415 0.0106985 1.25121 0
M  V30 4 C 4.5543 0.813793 1.03164 0
M  V30 5 O 4.53686 1.93692 1.66749 0
M  V30 6 N 3.4471 0.506235 0.219589 0
M  V30 7 C 3.48924 -0.72966 -0.481765 0
M  V30 8 C 2.29592 -1.02493 -1.36663 0
M  V30 9 C 1.01509 -0.980332 -0.554635 0
M  V30 10 N 0.513835 0.372272 -0.601662 0
M  V30 11 C 1.38941 1.54231 -0.740501 0
M  V30 12 C 2.44838 1.57323 0.285338 0
M  V30 13 C -0.873035 0.614257 -0.508521 0
M  V30 14 N -1.31358 1.87964 -0.643268 0
M  V30 15 C -2.60977 2.23276 -0.571843 0
M  V30 16 N -3.03885 3.58043 -0.718974 0
M  V30 17 N -3.50206 1.23566 -0.350721 0
M  V30 18 C -3.13846 -0.051172 -0.205722 0
M  V30 19 C -1.79966 -0.37847 -0.284527 0
M  V30 20 C -4.19619 -1.06275 0.0315751 0 CFG=2
M  V30 21 C -5.37885 -0.960322 -0.906702 0
M  V30 22 C -6.28497 -0.98157 0.293414 0 CFG=1
M  V30 23 C -5.10754 -0.628964 1.15898 0
M  V30 24 N -7.27891 0.0744213 0.328823 0
M  V30 25 H 7.86629 -1.39132 0.531225 0
M  V30 26 H 6.89451 -2.85383 0.250584 0
M  V30 27 H 7.01137 -2.23819 1.91851 0
M  V30 28 H 6.66365 0.612577 0.992487 0
M  V30 29 H 5.78242 -0.204856 2.3666 0
M  V30 30 H 3.5399 -1.57762 0.226088 0
M  V30 31 H 4.38401 -0.728237 -1.15848 0
M  V30 32 H 2.44541 -2.02887 -1.8113 0
M  V30 33 H 2.26239 -0.300454 -2.18839 0
M  V30 34 H 1.27097 -1.31203 0.470119 0
M  V30 35 H 0.28333 -1.67751 -1.03611 0
M  V30 36 H 1.74789 1.61471 -1.77945 0
M  V30 37 H 0.740473 2.45776 -0.600412 0
M  V30 38 H 2.01208 1.53181 1.30382 0
M  V30 39 H 2.95329 2.5808 0.215896 0
M  V30 40 H -3.92573 3.84103 -1.19374 0
M  V30 41 H -2.45274 4.35174 -0.341348 0
M  V30 42 H -1.51491 -1.39543 -0.168085 0
M  V30 43 H -3.83954 -2.08973 0.166677 0
M  V30 44 H -5.42892 -0.0253004 -1.50385 0
M  V30 45 H -5.46148 -1.89247 -1.50319 0
M  V30 46 H -6.67762 -1.98532 0.559026 0
M  V30 47 H -4.98177 -1.25983 2.07191 0
M  V30 48 H -5.01229 0.465083 1.38526 0
M  V30 49 H -7.25669 0.458064 1.31909 0
M  V30 50 H -6.94985 0.851804 -0.28749 0
M  V30 END ATOM
M  V30 BEGIN BOND
M  V30 1 1 1 2
M  V30 2 1 2 3
M  V30 3 1 3 4
M  V30 4 2 4 5
M  V30 5 1 4 6
M  V30 6 1 6 7
M  V30 7 1 7 8
M  V30 8 1 8 9
M  V30 9 1 9 10
M  V30 10 1 10 11
M  V30 11 1 11 12
M  V30 12 1 10 13
M  V30 13 2 13 14
M  V30 14 1 14 15
M  V30 15 1 15 16
M  V30 16 2 15 17
M  V30 17 1 17 18
M  V30 18 2 18 19
M  V30 19 1 18 20
M  V30 20 1 20 21
M  V30 21 1 21 22
M  V30 22 1 22 23
M  V30 23 1 22 24
M  V30 24 1 12 6
M  V30 25 1 19 13
M  V30 26 1 23 20
M  V30 27 1 1 25
M  V30 28 1 1 26
M  V30 29 1 1 27
M  V30 30 1 3 28
M  V30 31 1 3 29
M  V30 32 1 7 30
M  V30 33 1 7 31
M  V30 34 1 8 32
M  V30 35 1 8 33
M  V30 36 1 9 34
M  V30 37 1 9 35
M  V30 38 1 11 36
M  V30 39 1 11 37
M  V30 40 1 12 38
M  V30 41 1 12 39
M  V30 42 1 16 40
M  V30 43 1 16 41
M  V30 44 1 19 42
M  V30 45 1 20 43 CFG=1
M  V30 46 1 21 44
M  V30 47 1 21 45
M  V30 48 1 22 46 CFG=1
M  V30 49 1 23 47
M  V30 50 1 23 48
M  V30 51 1 24 49
M  V30 52 1 24 50
M  V30 END BOND
M  V30 END CTAB
M  END
