
     RDKit          3D

  0  0  0  0  0  0  0  0  0  0999 V3000
M  V30 BEGIN CTAB
M  V30 COUNTS 44 47 0 0 0
M  V30 BEGIN ATOM
M  V30 1 N 6.31464 -1.54708 0.245583 0
M  V30 2 C 5.02704 -0.858597 0.192441 0
M  V30 3 C 4.17424 -1.22736 -1.00287 0
M  V30 4 C 2.98135 -1.34916 -0.0816305 0
M  V30 5 C 3.97021 -1.49412 1.07105 0
M  V30 6 C 2.1095 -0.173465 0.00252638 0
M  V30 7 C 0.71565 -0.241792 -0.0583602 0
M  V30 8 C -0.0580238 0.887872 0.0249717 0
M  V30 9 N 0.579737 2.06795 0.168074 0
M  V30 10 C 1.92183 2.17263 0.2306 0
M  V30 11 N 2.64211 1.04142 0.145045 0
M  V30 12 N 2.60863 3.39507 0.379842 0
M  V30 13 N -1.46001 0.756708 -0.0425126 0
M  V30 14 C -2.19309 1.97538 0.0514215 0
M  V30 15 C -3.05534 2.07764 1.28245 0
M  V30 16 O -4.08641 1.13902 1.33173 0
M  V30 17 C -4.3303 0.102862 0.4422 0
M  V30 18 C -3.401 -0.65995 -0.227636 0
M  V30 19 C -1.9192 -0.602615 -0.196636 0
M  V30 20 C -3.80364 -1.67432 -1.09635 0
M  V30 21 C -5.17223 -1.89863 -1.27119 0
M  V30 22 C -6.11731 -1.14526 -0.609231 0
M  V30 23 C -5.6739 -0.158207 0.235361 0
M  V30 24 H 7.03138 -1.00108 0.749229 0
M  V30 25 H 6.60522 -1.86147 -0.68892 0
M  V30 26 H 5.18727 0.212118 0.351719 0
M  V30 27 H 4.08917 -0.447357 -1.78402 0
M  V30 28 H 4.47509 -2.22635 -1.36734 0
M  V30 29 H 2.40626 -2.28334 -0.197781 0
M  V30 30 H 4.24951 -2.55519 1.26766 0
M  V30 31 H 3.71097 -0.904867 1.96452 0
M  V30 32 H 0.292001 -1.22284 -0.173206 0
M  V30 33 H 2.3299 4.24297 -0.144839 0
M  V30 34 H 3.41683 3.46832 1.0269 0
M  V30 35 H -1.51201 2.8512 0.0641743 0
M  V30 36 H -2.82069 2.08656 -0.853387 0
M  V30 37 H -3.52897 3.08965 1.25421 0
M  V30 38 H -2.41406 2.06901 2.19505 0
M  V30 39 H -1.48274 -0.969522 -1.165 0
M  V30 40 H -1.58889 -1.2594 0.639187 0
M  V30 41 H -3.09757 -2.28638 -1.63335 0
M  V30 42 H -5.51962 -2.68211 -1.94173 0
M  V30 43 H -7.18518 -1.33663 -0.759727 0
M  V30 44 H -6.41838 0.430715 0.752871 0
M  V30 END ATOM
M  V30 BEGIN BOND
M  V30 1 1 1 2
M  V30 2 1 2 3
M  V30 3 1 3 4
M  V30 4 1 4 5
M  V30 5 1 4 6
M  V30 6 2 6 7
M  V30 7 1 7 8
M  V30 8 2 8 9
M  V30 9 1 9 10
M  V30 10 2 10 11
M  V30 11 1 10 12
M  V30 12 1 8 13
M  V30 13 1 13 14
M  V30 14 1 14 15
M  V30 15 1 15 16
M  V30 16 1 16 17
M  V30 17 2 17 18
M  V30 18 1 18 19
M  V30 19 1 18 20
M  V30 20 2 20 21
M  V30 21 1 21 22
M  V30 22 2 22 23
M  V30 23 1 5 2
M  V30 24 1 11 6
M  V30 25 1 19 13
M  V30 26 1 23 17
M  V30 27 1 1 24
M  V30 28 1 1 25
M  V30 29 1 2 26
M  V30 30 1 3 27
M  V30 31 1 3 28
M  V30 32 1 4 29
M  V30 33 1 5 30
M  V30 34 1 5 31
M  V30 35 1 7 32
M  V30 36 1 12 33
M  V30 37 1 12 34
M  V30 38 1 14 35
M  V30 39 1 14 36
M  V30 40 1 15 37
M  V30 41 1 15 38
M  V30 42 1 19 39
M  V30 43 1 19 40
M  V30 44 1 20 41
M  V30 45 1 21 42
M  V30 46 1 22 43
M  V30 47 1 23 44
M  V30 END BOND
M  V30 END CTAB
M  END
