
     RDKit          3D

  0  0  0  0  0  0  0  0  0  0999 V3000
M  V30 BEGIN CTAB
M  V30 COUNTS 51 52 0 0 0
M  V30 BEGIN ATOM
M  V30 1 N 2.17724 2.20583 -1.78823 0
M  V30 2 C 2.70789 0.914203 -1.43809 0
M  V30 3 C 4.21458 0.855917 -1.525 0
M  V30 4 C 4.58954 -0.606581 -1.46699 0
M  V30 5 C 3.91164 -1.35545 -0.369506 0
M  V30 6 C 3.08133 -0.562454 0.558145 0
M  V30 7 C 2.37278 0.608264 -0.00737392 0
M  V30 8 C 2.05334 -1.43082 1.23253 0
M  V30 9 O 2.07123 -2.62693 0.894199 0
M  V30 10 N 1.1793 -0.871544 2.15732 0
M  V30 11 C 0.149778 -1.52258 2.88229 0
M  V30 12 C -0.946654 -2.09672 2.08829 0
M  V30 13 C -1.70591 -1.13235 1.26377 0
M  V30 14 C -1.57708 0.234278 1.32331 0
M  V30 15 C -2.32095 1.08078 0.508365 0
M  V30 16 C -3.20814 0.50932 -0.377785 0
M  V30 17 C -3.34787 -0.862463 -0.447697 0
M  V30 18 C -2.61145 -1.69925 0.358775 0
M  V30 19 C -4.0112 1.35989 -1.25576 0
M  V30 20 C -3.16752 2.22987 -2.16185 0
M  V30 21 C -4.84981 2.3121 -0.410305 0
M  V30 22 N -0.646208 -3.22692 1.25967 0
M  V30 23 H 1.98492 2.79476 -0.953768 0
M  V30 24 H 1.37518 2.16011 -2.45172 0
M  V30 25 H 2.23372 0.144872 -2.07392 0
M  V30 26 H 4.64032 1.38174 -0.624477 0
M  V30 27 H 4.58629 1.26354 -2.47252 0
M  V30 28 H 4.35941 -1.02981 -2.46924 0
M  V30 29 H 5.69611 -0.638345 -1.37066 0
M  V30 30 H 3.31522 -2.17259 -0.830639 0
M  V30 31 H 4.70186 -1.87777 0.226833 0
M  V30 32 H 3.71067 -0.185649 1.42118 0
M  V30 33 H 1.26089 0.495777 0.0393395 0
M  V30 34 H 2.57746 1.56001 0.567356 0
M  V30 35 H 1.34816 0.196801 2.32359 0
M  V30 36 H 0.623147 -2.39256 3.44891 0
M  V30 37 H -0.285742 -0.843349 3.66412 0
M  V30 38 H -1.72361 -2.50482 2.83984 0
M  V30 39 H -0.905364 0.686373 2.00611 0
M  V30 40 H -2.23538 2.13645 0.539533 0
M  V30 41 H -4.05142 -1.3298 -1.14932 0
M  V30 42 H -2.73295 -2.78308 0.29307 0
M  V30 43 H -4.67137 0.757874 -1.8786 0
M  V30 44 H -3.83544 2.51402 -3.02013 0
M  V30 45 H -2.80743 3.1451 -1.69394 0
M  V30 46 H -2.31843 1.67893 -2.60268 0
M  V30 47 H -5.06028 1.85417 0.558218 0
M  V30 48 H -5.78523 2.58618 -0.895453 0
M  V30 49 H -4.23077 3.22569 -0.218451 0
M  V30 50 H -1.16906 -4.08546 1.46936 0
M  V30 51 H -0.716738 -3.05557 0.240714 0
M  V30 END ATOM
M  V30 BEGIN BOND
M  V30 1 1 1 2
M  V30 2 1 2 3
M  V30 3 1 3 4
M  V30 4 1 4 5
M  V30 5 1 5 6
M  V30 6 1 6 7
M  V30 7 1 6 8
M  V30 8 2 8 9
M  V30 9 1 8 10
M  V30 10 1 10 11
M  V30 11 1 11 12
M  V30 12 1 12 13
M  V30 13 2 13 14
M  V30 14 1 14 15
M  V30 15 2 15 16
M  V30 16 1 16 17
M  V30 17 2 17 18
M  V30 18 1 16 19
M  V30 19 1 19 20
M  V30 20 1 19 21
M  V30 21 1 12 22
M  V30 22 1 7 2
M  V30 23 1 18 13
M  V30 24 1 1 23
M  V30 25 1 1 24
M  V30 26 1 2 25
M  V30 27 1 3 26
M  V30 28 1 3 27
M  V30 29 1 4 28
M  V30 30 1 4 29
M  V30 31 1 5 30
M  V30 32 1 5 31
M  V30 33 1 6 32
M  V30 34 1 7 33
M  V30 35 1 7 34
M  V30 36 1 10 35
M  V30 37 1 11 36
M  V30 38 1 11 37
M  V30 39 1 12 38
M  V30 40 1 14 39
M  V30 41 1 15 40
M  V30 42 1 17 41
M  V30 43 1 18 42
M  V30 44 1 19 43
M  V30 45 1 20 44
M  V30 46 1 20 45
M  V30 47 1 20 46
M  V30 48 1 21 47
M  V30 49 1 21 48
M  V30 50 1 21 49
M  V30 51 1 22 50
M  V30 52 1 22 51
M  V30 END BOND
M  V30 END CTAB
M  END
