
     RDKit          3D

  0  0  0  0  0  0  0  0  0  0999 V3000
M  V30 BEGIN CTAB
M  V30 COUNTS 53 53 0 0 0
M  V30 BEGIN ATOM
M  V30 1 C -1.13901 -1.47325 -0.108507 0 CFG=1
M  V30 2 C -2.05214 -2.54042 -0.579824 0
M  V30 3 C -0.499986 -0.677113 -1.18471 0
M  V30 4 C 0.334811 -1.63753 -2.04439 0
M  V30 5 C -1.6639 -0.651499 1.06658 0 CFG=2
M  V30 6 N -2.84677 0.0293006 0.891395 0
M  V30 7 C -3.12158 1.04729 0.0121905 0
M  V30 8 C -4.5354 1.60365 0.262596 0 CFG=1
M  V30 9 N -4.81578 2.68996 -0.658849 0
M  V30 10 C -5.58567 0.554717 -0.0196093 0
M  V30 11 S -7.25027 1.27982 0.288434 0
M  V30 12 C -0.480879 0.158888 1.4839 0
M  V30 13 O -0.348119 1.36463 1.30312 0
M  V30 14 N 0.557167 -0.545568 2.14269 0
M  V30 15 C 1.78094 0.0746238 2.59434 0
M  V30 16 C 2.74208 0.121483 1.49501 0
M  V30 17 C 3.52101 -1.00653 1.24086 0
M  V30 18 C 4.44221 -0.957029 0.236296 0
M  V30 19 C 4.66818 0.152798 -0.5706 0
M  V30 20 C 3.88367 1.24851 -0.295475 0
M  V30 21 C 2.92725 1.2292 0.732544 0
M  V30 22 S 5.90543 0.1394 -1.80885 0
M  V30 23 N 7.3645 0.874551 -1.18509 0
M  V30 24 O 5.48063 0.734527 -3.09403 0
M  V30 25 O 6.27739 -1.32582 -2.02202 0
M  V30 26 H -0.272616 -2.03847 0.381467 0
M  V30 27 H -2.21505 -3.26628 0.257716 0
M  V30 28 H -2.99536 -2.16384 -1.02304 0
M  V30 29 H -1.496 -3.11823 -1.36332 0
M  V30 30 H 0.202325 0.0941154 -0.815194 0
M  V30 31 H -1.23514 -0.227433 -1.85233 0
M  V30 32 H -0.278144 -2.21728 -2.73688 0
M  V30 33 H 0.97949 -2.27872 -1.41552 0
M  V30 34 H 1.0586 -1.05793 -2.68083 0
M  V30 35 H -1.79922 -1.39902 1.87789 0
M  V30 36 H -3.64328 -0.620137 1.07172 0
M  V30 37 H -2.39304 1.86729 -0.0850684 0
M  V30 38 H -3.2314 0.633291 -1.04028 0
M  V30 39 H -4.64746 1.9143 1.31589 0
M  V30 40 H -5.10104 3.53925 -0.12074 0
M  V30 41 H -3.9872 2.90989 -1.21087 0
M  V30 42 H -5.52536 -0.286921 0.707733 0
M  V30 43 H -5.52353 0.130067 -1.04183 0
M  V30 44 H -7.06462 2.52591 0.953146 0
M  V30 45 H 0.434047 -1.59867 2.32241 0
M  V30 46 H 2.21036 -0.441515 3.47563 0
M  V30 47 H 1.5101 1.0952 2.93592 0
M  V30 48 H 3.37336 -1.91093 1.85347 0
M  V30 49 H 5.05634 -1.82449 0.0236484 0
M  V30 50 H 4.01379 2.1567 -0.890243 0
M  V30 51 H 2.34836 2.15803 0.890545 0
M  V30 52 H 7.52408 1.73286 -1.75597 0
M  V30 53 H 7.15184 1.20439 -0.213071 0
M  V30 END ATOM
M  V30 BEGIN BOND
M  V30 1 1 1 2
M  V30 2 1 1 3
M  V30 3 1 3 4
M  V30 4 1 1 5
M  V30 5 1 5 6
M  V30 6 1 6 7
M  V30 7 1 7 8
M  V30 8 1 8 9
M  V30 9 1 8 10
M  V30 10 1 10 11
M  V30 11 1 5 12
M  V30 12 2 12 13
M  V30 13 1 12 14
M  V30 14 1 14 15
M  V30 15 1 15 16
M  V30 16 2 16 17
M  V30 17 1 17 18
M  V30 18 2 18 19
M  V30 19 1 19 20
M  V30 20 2 20 21
M  V30 21 1 19 22
M  V30 22 1 22 23
M  V30 23 2 22 24
M  V30 24 2 22 25
M  V30 25 1 21 16
M  V30 26 1 1 26 CFG=1
M  V30 27 1 2 27
M  V30 28 1 2 28
M  V30 29 1 2 29
M  V30 30 1 3 30
M  V30 31 1 3 31
M  V30 32 1 4 32
M  V30 33 1 4 33
M  V30 34 1 4 34
M  V30 35 1 5 35 CFG=1
M  V30 36 1 6 36
M  V30 37 1 7 37
M  V30 38 1 7 38
M  V30 39 1 8 39 CFG=1
M  V30 40 1 9 40
M  V30 41 1 9 41
M  V30 42 1 10 42
M  V30 43 1 10 43
M  V30 44 1 11 44
M  V30 45 1 14 45
M  V30 46 1 15 46
M  V30 47 1 15 47
M  V30 48 1 17 48
M  V30 49 1 18 49
M  V30 50 1 20 50
M  V30 51 1 21 51
M  V30 52 1 23 52
M  V30 53 1 23 53
M  V30 END BOND
M  V30 END CTAB
M  END
