
     RDKit          3D

  0  0  0  0  0  0  0  0  0  0999 V3000
M  V30 BEGIN CTAB
M  V30 COUNTS 22 22 0 0 0
M  V30 BEGIN ATOM
M  V30 1 C -3.32594 1.00751 0.953065 0
M  V30 2 O -2.57468 0.351285 0.00166394 0
M  V30 3 C -1.22302 0.375427 0.223649 0
M  V30 4 C -0.545555 -0.374447 -0.887904 0
M  V30 5 C 0.956537 -0.417699 -0.693333 0
M  V30 6 C 1.71116 -1.30661 -1.413 0
M  V30 7 S 3.28755 -0.945686 -0.827378 0
M  V30 8 C 2.88121 0.289648 0.272898 0
M  V30 9 N 1.56748 0.363651 0.137865 0
M  V30 10 N 3.68459 1.08422 1.14653 0
M  V30 11 N -1.02228 -1.74027 -0.902418 0
M  V30 12 H -3.16831 0.552666 1.96086 0
M  V30 13 H -4.39544 0.917758 0.643895 0
M  V30 14 H -3.0955 2.08453 1.00746 0
M  V30 15 H -0.936087 -0.0802901 1.20735 0
M  V30 16 H -0.887936 1.4277 0.275418 0
M  V30 17 H -0.811825 0.089093 -1.84587 0
M  V30 18 H 1.37002 -2.04385 -2.1606 0
M  V30 19 H 4.42425 1.73627 0.781127 0
M  V30 20 H 3.57624 1.05547 2.18224 0
M  V30 21 H -0.913397 -2.11087 -1.88031 0
M  V30 22 H -0.559065 -2.31549 -0.183207 0
M  V30 END ATOM
M  V30 BEGIN BOND
M  V30 1 1 1 2
M  V30 2 1 2 3
M  V30 3 1 3 4
M  V30 4 1 4 5
M  V30 5 2 5 6
M  V30 6 1 6 7
M  V30 7 1 7 8
M  V30 8 2 8 9
M  V30 9 1 8 10
M  V30 10 1 4 11
M  V30 11 1 9 5
M  V30 12 1 1 12
M  V30 13 1 1 13
M  V30 14 1 1 14
M  V30 15 1 3 15
M  V30 16 1 3 16
M  V30 17 1 4 17
M  V30 18 1 6 18
M  V30 19 1 10 19
M  V30 20 1 10 20
M  V30 21 1 11 21
M  V30 22 1 11 22
M  V30 END BOND
M  V30 END CTAB
M  END
