
     RDKit          3D

  0  0  0  0  0  0  0  0  0  0999 V3000
M  V30 BEGIN CTAB
M  V30 COUNTS 19 19 0 0 0
M  V30 BEGIN ATOM
M  V30 1 O -1.4742 0.956025 1.40212 0
M  V30 2 C -2.0687 0.875428 0.298372 0
M  V30 3 C -1.52234 -0.346464 -0.420816 0 CFG=1
M  V30 4 C -0.0443121 -0.140847 -0.564068 0
M  V30 5 N 0.632881 0.108964 -1.71052 0
M  V30 6 N 1.9235 0.233912 -1.45769 0
M  V30 7 C 2.10101 0.0657693 -0.136332 0
M  V30 8 N 0.874645 -0.167304 0.417207 0
M  V30 9 N 3.31493 0.112351 0.594091 0
M  V30 10 N -1.81034 -1.48393 0.441142 0
M  V30 11 H -1.51483 1.09361 2.12674 0
M  V30 12 H -1.79505 1.78603 -0.288442 0
M  V30 13 H -3.15858 0.799615 0.462323 0
M  V30 14 H -1.99158 -0.509324 -1.39857 0
M  V30 15 H 2.68656 0.427828 -2.14164 0
M  V30 16 H 4.15548 0.61859 0.230136 0
M  V30 17 H 3.38367 -0.36454 1.51534 0
M  V30 18 H -1.02597 -2.13471 0.533823 0
M  V30 19 H -2.66679 -1.931 0.0967863 0
M  V30 END ATOM
M  V30 BEGIN BOND
M  V30 1 1 1 2
M  V30 2 1 2 3
M  V30 3 1 3 4
M  V30 4 2 4 5
M  V30 5 1 5 6
M  V30 6 1 6 7
M  V30 7 2 7 8
M  V30 8 1 7 9
M  V30 9 1 3 10
M  V30 10 1 8 4
M  V30 11 1 1 11
M  V30 12 1 2 12
M  V30 13 1 2 13
M  V30 14 1 3 14 CFG=3
M  V30 15 1 6 15
M  V30 16 1 9 16
M  V30 17 1 9 17
M  V30 18 1 10 18
M  V30 19 1 10 19
M  V30 END BOND
M  V30 END CTAB
M  END
