
     RDKit          3D

  0  0  0  0  0  0  0  0  0  0999 V3000
M  V30 BEGIN CTAB
M  V30 COUNTS 76 79 0 0 0
M  V30 BEGIN ATOM
M  V30 1 C -5.77766 -1.18827 1.13944 0
M  V30 2 N -4.93885 -0.727183 0.00958904 0
M  V30 3 C -5.52447 0.277131 -0.811774 0
M  V30 4 C -6.12619 1.41286 -0.0758201 0
M  V30 5 N -7.48458 1.49073 0.000283344 0
M  V30 6 C -8.06041 2.51351 0.669494 0
M  V30 7 C -9.45019 2.5635 0.726232 0
M  V30 8 N -10.1933 1.54267 0.0827432 0
M  V30 9 N -10.0062 3.58136 1.39253 0
M  V30 10 C -9.30047 4.52937 1.98937 0
M  V30 11 N -10.0042 5.57413 2.66737 0
M  V30 12 N -7.96251 4.50797 1.95255 0
M  V30 13 C -7.33097 3.48612 1.28284 0
M  V30 14 N -5.98746 3.43612 1.22674 0
M  V30 15 C -5.41178 2.40098 0.548394 0
M  V30 16 C -3.66893 -1.33993 -0.152515 0
M  V30 17 C -2.8627 -1.0411 -1.21926 0
M  V30 18 C -1.62901 -1.66364 -1.37635 0
M  V30 19 C -1.16114 -2.59466 -0.487019 0
M  V30 20 C -1.97409 -2.89307 0.585964 0
M  V30 21 C -3.20714 -2.27846 0.754498 0
M  V30 22 C 0.138846 -3.26806 -0.674296 0
M  V30 23 O 0.369405 -4.26098 0.0846004 0
M  V30 24 N 1.07432 -2.83829 -1.64087 0
M  V30 25 C 2.33214 -3.60205 -1.75252 0
M  V30 26 C 3.4694 -2.757 -1.26607 0
M  V30 27 C 4.77001 -3.48971 -1.33654 0
M  V30 28 C 5.93984 -2.67317 -0.805408 0
M  V30 29 C 5.79028 -2.31177 0.638295 0
M  V30 30 N 6.91936 -1.5446 1.07584 0
M  V30 31 C 7.25268 -0.295156 0.538605 0
M  V30 32 O 6.55623 0.222303 -0.362509 0
M  V30 33 O 8.37291 0.424559 0.981283 0
M  V30 34 C 8.68556 1.69335 0.42661 0
M  V30 35 C 7.59557 2.68067 0.646564 0
M  V30 36 C 6.90272 3.28957 -0.372251 0
M  V30 37 C 5.8979 4.19067 -0.0948256 0
M  V30 38 C 5.56298 4.5033 1.2166 0
M  V30 39 C 6.26816 3.88204 2.21883 0
M  V30 40 C 7.28376 2.96975 1.97403 0
M  V30 41 C 2.49678 -3.91153 -3.18793 0
M  V30 42 O 3.47439 -4.74113 -3.65546 0
M  V30 43 O 1.67536 -3.37568 -4.01834 0
M  V30 44 H -5.77269 -2.29709 1.07373 0
M  V30 45 H -6.8239 -0.857147 1.03753 0
M  V30 46 H -5.30848 -0.790406 2.04443 0
M  V30 47 H -6.3287 -0.19192 -1.45084 0
M  V30 48 H -4.81114 0.715846 -1.55334 0
M  V30 49 H -9.76572 0.585124 -0.0175781 0
M  V30 50 H -11.1455 1.66895 -0.305592 0
M  V30 51 H -10.4258 6.31663 2.08466 0
M  V30 52 H -10.1093 5.62277 3.69934 0
M  V30 53 H -4.32447 2.33138 0.482447 0
M  V30 54 H -3.19246 -0.305585 -1.97026 0
M  V30 55 H -1.04617 -1.38424 -2.24605 0
M  V30 56 H -1.60249 -3.63044 1.29546 0
M  V30 57 H -3.82824 -2.52263 1.60177 0
M  V30 58 H 0.873242 -2.02537 -2.23827 0
M  V30 59 H 2.24975 -4.47195 -1.10717 0
M  V30 60 H 3.32523 -2.44957 -0.204887 0
M  V30 61 H 3.57265 -1.80459 -1.82878 0
M  V30 62 H 4.68296 -4.39519 -0.690483 0
M  V30 63 H 5.06891 -3.83045 -2.34309 0
M  V30 64 H 6.84601 -3.34797 -0.890232 0
M  V30 65 H 6.14677 -1.84185 -1.48071 0
M  V30 66 H 4.85349 -1.75194 0.853622 0
M  V30 67 H 5.75594 -3.27846 1.20518 0
M  V30 68 H 7.53995 -1.93952 1.84239 0
M  V30 69 H 9.65902 2.06524 0.763734 0
M  V30 70 H 8.76104 1.54572 -0.672607 0
M  V30 71 H 7.16298 3.04768 -1.38864 0
M  V30 72 H 5.35658 4.66769 -0.911473 0
M  V30 73 H 4.77621 5.20992 1.44983 0
M  V30 74 H 6.06663 4.06789 3.27326 0
M  V30 75 H 7.82536 2.49659 2.77583 0
M  V30 76 H 3.19607 -5.60229 -4.1344 0
M  V30 END ATOM
M  V30 BEGIN BOND
M  V30 1 1 1 2
M  V30 2 1 2 3
M  V30 3 1 3 4
M  V30 4 2 4 5
M  V30 5 1 5 6
M  V30 6 2 6 7
M  V30 7 1 7 8
M  V30 8 1 7 9
M  V30 9 2 9 10
M  V30 10 1 10 11
M  V30 11 1 10 12
M  V30 12 2 12 13
M  V30 13 1 13 14
M  V30 14 2 14 15
M  V30 15 1 2 16
M  V30 16 2 16 17
M  V30 17 1 17 18
M  V30 18 2 18 19
M  V30 19 1 19 20
M  V30 20 2 20 21
M  V30 21 1 19 22
M  V30 22 2 22 23
M  V30 23 1 22 24
M  V30 24 1 24 25
M  V30 25 1 25 26
M  V30 26 1 26 27
M  V30 27 1 27 28
M  V30 28 1 28 29
M  V30 29 1 29 30
M  V30 30 1 30 31
M  V30 31 2 31 32
M  V30 32 1 31 33
M  V30 33 1 33 34
M  V30 34 1 34 35
M  V30 35 2 35 36
M  V30 36 1 36 37
M  V30 37 2 37 38
M  V30 38 1 38 39
M  V30 39 2 39 40
M  V30 40 1 25 41
M  V30 41 1 41 42
M  V30 42 2 41 43
M  V30 43 1 15 4
M  V30 44 1 21 16
M  V30 45 1 40 35
M  V30 46 1 13 6
M  V30 47 1 1 44
M  V30 48 1 1 45
M  V30 49 1 1 46
M  V30 50 1 3 47
M  V30 51 1 3 48
M  V30 52 1 8 49
M  V30 53 1 8 50
M  V30 54 1 11 51
M  V30 55 1 11 52
M  V30 56 1 15 53
M  V30 57 1 17 54
M  V30 58 1 18 55
M  V30 59 1 20 56
M  V30 60 1 21 57
M  V30 61 1 24 58
M  V30 62 1 25 59
M  V30 63 1 26 60
M  V30 64 1 26 61
M  V30 65 1 27 62
M  V30 66 1 27 63
M  V30 67 1 28 64
M  V30 68 1 28 65
M  V30 69 1 29 66
M  V30 70 1 29 67
M  V30 71 1 30 68
M  V30 72 1 34 69
M  V30 73 1 34 70
M  V30 74 1 36 71
M  V30 75 1 37 72
M  V30 76 1 38 73
M  V30 77 1 39 74
M  V30 78 1 40 75
M  V30 79 1 42 76
M  V30 END BOND
M  V30 END CTAB
M  END
