
     RDKit          3D

  0  0  0  0  0  0  0  0  0  0999 V3000
M  V30 BEGIN CTAB
M  V30 COUNTS 21 22 0 0 0
M  V30 BEGIN ATOM
M  V30 1 F -3.43462 2.05729 0.880502 0
M  V30 2 C -2.59363 1.0767 0.454755 0
M  V30 3 C -1.22294 1.21353 0.523201 0
M  V30 4 C -0.374697 0.21047 0.0876365 0
M  V30 5 C -0.868801 -0.968097 -0.433198 0
M  V30 6 C -2.24475 -1.11063 -0.504177 0
M  V30 7 C -3.07741 -0.10574 -0.0677114 0
M  V30 8 F -4.43762 -0.263669 -0.145357 0
M  V30 9 F -2.73362 -2.27661 -1.01944 0
M  V30 10 N -0.0332994 -1.94692 -0.85818 0
M  V30 11 C 1.31011 -1.77493 -0.774439 0
M  V30 12 C 1.86488 -0.620304 -0.263763 0
M  V30 13 C 1.01026 0.371861 0.166969 0
M  V30 14 N 1.49739 1.59149 0.705808 0
M  V30 15 N 3.2708 -0.419494 -0.16701 0
M  V30 16 H -0.80996 2.12828 0.927623 0
M  V30 17 H 1.9676 -2.5751 -1.12202 0
M  V30 18 H 1.1212 2.51222 0.390126 0
M  V30 19 H 2.24779 1.61868 1.43601 0
M  V30 20 H 3.81653 0.0384392 -0.926251 0
M  V30 21 H 3.7248 -0.757455 0.708911 0
M  V30 END ATOM
M  V30 BEGIN BOND
M  V30 1 1 1 2
M  V30 2 2 2 3
M  V30 3 1 3 4
M  V30 4 2 4 5
M  V30 5 1 5 6
M  V30 6 2 6 7
M  V30 7 1 7 8
M  V30 8 1 6 9
M  V30 9 1 5 10
M  V30 10 2 10 11
M  V30 11 1 11 12
M  V30 12 2 12 13
M  V30 13 1 13 14
M  V30 14 1 12 15
M  V30 15 1 7 2
M  V30 16 1 13 4
M  V30 17 1 3 16
M  V30 18 1 11 17
M  V30 19 1 14 18
M  V30 20 1 14 19
M  V30 21 1 15 20
M  V30 22 1 15 21
M  V30 END BOND
M  V30 END CTAB
M  END
