
     RDKit          3D

  0  0  0  0  0  0  0  0  0  0999 V3000
M  V30 BEGIN CTAB
M  V30 COUNTS 78 81 0 0 0
M  V30 BEGIN ATOM
M  V30 1 C 1.92911 0.0448931 3.40924 0
M  V30 2 C 1.44845 0.497846 2.04722 0 CFG=2
M  V30 3 C -0.0154062 0.785527 2.13259 0
M  V30 4 N -0.759394 0.139444 1.00934 0
M  V30 5 C -0.190157 0.202617 -0.305134 0 CFG=1
M  V30 6 C -0.316512 1.53104 -0.976828 0
M  V30 7 C -1.65371 2.07847 -1.21441 0
M  V30 8 C -1.55595 3.42243 -1.89682 0
M  V30 9 N -0.834806 4.35347 -1.06135 0
M  V30 10 C -0.586808 5.6848 -1.47676 0
M  V30 11 N -1.2244 6.73511 -0.755106 0
M  V30 12 N 0.178351 6.00039 -2.46514 0
M  V30 13 C 1.33718 -0.0346569 -0.199337 0
M  V30 14 N 1.65705 -0.56351 1.11325 0
M  V30 15 C 2.98427 -1.09331 1.05872 0
M  V30 16 C 3.98677 -0.11229 0.492965 0
M  V30 17 C 5.34943 -0.677839 0.438765 0
M  V30 18 C 6.40421 -0.409394 1.28521 0
M  V30 19 N 7.47644 -1.12026 0.90931 0
M  V30 20 C 7.18654 -1.86584 -0.167831 0
M  V30 21 C 5.86692 -1.59993 -0.470294 0
M  V30 22 C 5.32234 -2.24752 -1.54865 0
M  V30 23 C 6.06514 -3.13845 -2.3113 0
M  V30 24 C 7.37657 -3.39618 -2.00227 0
M  V30 25 C 7.94806 -2.75052 -0.913527 0
M  V30 26 C -1.94707 -0.455368 1.36406 0
M  V30 27 O -2.28527 -0.365375 2.62122 0
M  V30 28 C -2.95508 -1.19869 0.603472 0 CFG=2
M  V30 29 N -2.73579 -1.48054 -0.753236 0
M  V30 30 C -4.27757 -0.41286 0.749289 0
M  V30 31 C -5.38907 -1.08057 0.0102229 0
M  V30 32 C -6.00578 -2.17369 0.561649 0
M  V30 33 C -5.62943 -2.73169 1.90493 0
M  V30 34 C -7.03652 -2.78224 -0.16497 0
M  V30 35 C -7.44784 -2.32836 -1.39767 0
M  V30 36 Cl -8.75101 -3.12631 -2.28019 0
M  V30 37 C -6.80109 -1.22196 -1.92091 0
M  V30 38 C -5.79288 -0.616742 -1.22414 0
M  V30 39 H 1.45818 0.695679 4.15943 0
M  V30 40 H 1.55588 -0.991752 3.56745 0
M  V30 41 H 3.02605 0.130456 3.51862 0
M  V30 42 H 1.94374 1.44782 1.7533 0
M  V30 43 H -0.412038 0.345522 3.0627 0
M  V30 44 H -0.251432 1.86898 2.15166 0
M  V30 45 H -0.523281 -0.584379 -0.981973 0
M  V30 46 H 0.314549 2.26354 -0.446253 0
M  V30 47 H 0.181385 1.41488 -1.98804 0
M  V30 48 H -2.31588 1.46499 -1.85358 0
M  V30 49 H -2.1351 2.2887 -0.213406 0
M  V30 50 H -2.61424 3.80324 -1.97195 0
M  V30 51 H -1.09614 3.34483 -2.90725 0
M  V30 52 H -0.478617 4.075 -0.125373 0
M  V30 53 H -2.11808 6.57187 -0.238188 0
M  V30 54 H -0.83319 7.69397 -0.712934 0
M  V30 55 H 0.683162 5.3041 -3.04674 0
M  V30 56 H 1.81939 0.952415 -0.300817 0
M  V30 57 H 1.70109 -0.686359 -0.986571 0
M  V30 58 H 3.31563 -1.4272 2.0461 0
M  V30 59 H 2.9488 -1.94613 0.318995 0
M  V30 60 H 4.02451 0.812055 1.08241 0
M  V30 61 H 3.70886 0.180127 -0.545104 0
M  V30 62 H 6.42538 0.265368 2.14374 0
M  V30 63 H 8.41109 -1.10909 1.37652 0
M  V30 64 H 4.29982 -2.04275 -1.78555 0
M  V30 65 H 5.56262 -3.60743 -3.14496 0
M  V30 66 H 7.93363 -4.10105 -2.62037 0
M  V30 67 H 8.9835 -2.97776 -0.700309 0
M  V30 68 H -3.19068 -2.17789 1.11344 0
M  V30 69 H -2.19349 -2.3011 -1.0192 0
M  V30 70 H -2.99273 -0.798964 -1.46216 0
M  V30 71 H -4.52339 -0.282335 1.79928 0
M  V30 72 H -4.12165 0.584957 0.30236 0
M  V30 73 H -6.60514 -3.115 2.32586 0
M  V30 74 H -4.987 -3.60747 1.79437 0
M  V30 75 H -5.27727 -1.98078 2.60866 0
M  V30 76 H -7.52983 -3.65255 0.27162 0
M  V30 77 H -7.13629 -0.868583 -2.90316 0
M  V30 78 H -5.28706 0.258137 -1.64825 0
M  V30 END ATOM
M  V30 BEGIN BOND
M  V30 1 1 1 2
M  V30 2 1 2 3
M  V30 3 1 3 4
M  V30 4 1 4 5
M  V30 5 1 5 6
M  V30 6 1 6 7
M  V30 7 1 7 8
M  V30 8 1 8 9
M  V30 9 1 9 10
M  V30 10 1 10 11
M  V30 11 2 10 12 CFG=2
M  V30 12 1 5 13
M  V30 13 1 13 14
M  V30 14 1 14 15
M  V30 15 1 15 16
M  V30 16 1 16 17
M  V30 17 2 17 18
M  V30 18 1 18 19
M  V30 19 1 19 20
M  V30 20 2 20 21
M  V30 21 1 21 22
M  V30 22 2 22 23
M  V30 23 1 23 24
M  V30 24 2 24 25
M  V30 25 1 4 26
M  V30 26 2 26 27
M  V30 27 1 26 28
M  V30 28 1 28 29
M  V30 29 1 28 30
M  V30 30 1 30 31
M  V30 31 2 31 32
M  V30 32 1 32 33
M  V30 33 1 32 34
M  V30 34 2 34 35
M  V30 35 1 35 36
M  V30 36 1 35 37
M  V30 37 2 37 38
M  V30 38 1 14 2
M  V30 39 1 21 17
M  V30 40 1 38 31
M  V30 41 1 25 20
M  V30 42 1 1 39
M  V30 43 1 1 40
M  V30 44 1 1 41
M  V30 45 1 2 42 CFG=3
M  V30 46 1 3 43
M  V30 47 1 3 44
M  V30 48 1 5 45 CFG=3
M  V30 49 1 6 46
M  V30 50 1 6 47
M  V30 51 1 7 48
M  V30 52 1 7 49
M  V30 53 1 8 50
M  V30 54 1 8 51
M  V30 55 1 9 52
M  V30 56 1 11 53
M  V30 57 1 11 54
M  V30 58 1 12 55
M  V30 59 1 13 56
M  V30 60 1 13 57
M  V30 61 1 15 58
M  V30 62 1 15 59
M  V30 63 1 16 60
M  V30 64 1 16 61
M  V30 65 1 18 62
M  V30 66 1 19 63
M  V30 67 1 22 64
M  V30 68 1 23 65
M  V30 69 1 24 66
M  V30 70 1 25 67
M  V30 71 1 28 68 CFG=1
M  V30 72 1 29 69
M  V30 73 1 29 70
M  V30 74 1 30 71
M  V30 75 1 30 72
M  V30 76 1 33 73
M  V30 77 1 33 74
M  V30 78 1 33 75
M  V30 79 1 34 76
M  V30 80 1 37 77
M  V30 81 1 38 78
M  V30 END BOND
M  V30 END CTAB
M  END
