
     RDKit          3D

  0  0  0  0  0  0  0  0  0  0999 V3000
M  V30 BEGIN CTAB
M  V30 COUNTS 40 41 0 0 0
M  V30 BEGIN ATOM
M  V30 1 N -6.34738 0.188818 -0.240949 0
M  V30 2 C -5.14132 -0.0701949 0.477849 0
M  V30 3 C -3.93474 0.613664 -0.182156 0
M  V30 4 C -2.6778 0.313925 0.610643 0
M  V30 5 O -2.40568 -1.03057 0.684909 0
M  V30 6 C -2.11804 -1.60072 -0.549519 0
M  V30 7 C -0.998541 -0.906179 -1.26496 0
M  V30 8 N -0.55988 0.218343 -0.46715 0
M  V30 9 C -1.5685 1.1284 0.0291406 0
M  V30 10 C 0.799059 0.437229 -0.172338 0
M  V30 11 O 1.14651 1.42048 0.521322 0
M  V30 12 C 1.80495 -0.524807 -0.703594 0
M  V30 13 N 3.14317 -0.136593 -0.297955 0
M  V30 14 N 3.95283 0.660253 -0.966819 0
M  V30 15 C 5.11667 0.826932 -0.335896 0
M  V30 16 C 5.02501 0.0695657 0.82527 0
M  V30 17 C 3.77315 -0.524857 0.822034 0
M  V30 18 N 3.29738 -1.38292 1.84924 0
M  V30 19 C 6.28434 1.65547 -0.77888 0
M  V30 20 H -6.20582 0.448309 -1.22234 0
M  V30 21 H -6.94788 -0.661054 -0.204255 0
M  V30 22 H -5.18073 0.1649 1.55217 0
M  V30 23 H -4.92067 -1.17031 0.382987 0
M  V30 24 H -4.16536 1.69819 -0.146656 0
M  V30 25 H -3.87603 0.313367 -1.22882 0
M  V30 26 H -2.87497 0.670096 1.64357 0
M  V30 27 H -3.04037 -1.69839 -1.15061 0
M  V30 28 H -1.77526 -2.64852 -0.331198 0
M  V30 29 H -0.145868 -1.5759 -1.49232 0
M  V30 30 H -1.40278 -0.549703 -2.24441 0
M  V30 31 H -1.90337 1.75334 -0.837353 0
M  V30 32 H -1.15241 1.82429 0.782278 0
M  V30 33 H 1.6943 -0.520565 -1.81434 0
M  V30 34 H 1.5599 -1.53233 -0.326497 0
M  V30 35 H 5.81643 -0.00394128 1.55828 0
M  V30 36 H 3.01247 -0.953061 2.75115 0
M  V30 37 H 3.2146 -2.41611 1.75939 0
M  V30 38 H 7.09651 0.984516 -1.12087 0
M  V30 39 H 5.95254 2.26825 -1.62375 0
M  V30 40 H 6.65358 2.24838 0.0785337 0
M  V30 END ATOM
M  V30 BEGIN BOND
M  V30 1 1 1 2
M  V30 2 1 2 3
M  V30 3 1 3 4
M  V30 4 1 4 5
M  V30 5 1 5 6
M  V30 6 1 6 7
M  V30 7 1 7 8
M  V30 8 1 8 9
M  V30 9 1 8 10
M  V30 10 2 10 11
M  V30 11 1 10 12
M  V30 12 1 12 13
M  V30 13 1 13 14
M  V30 14 2 14 15
M  V30 15 1 15 16
M  V30 16 2 16 17
M  V30 17 1 17 18
M  V30 18 1 15 19
M  V30 19 1 9 4
M  V30 20 1 17 13
M  V30 21 1 1 20
M  V30 22 1 1 21
M  V30 23 1 2 22
M  V30 24 1 2 23
M  V30 25 1 3 24
M  V30 26 1 3 25
M  V30 27 1 4 26
M  V30 28 1 6 27
M  V30 29 1 6 28
M  V30 30 1 7 29
M  V30 31 1 7 30
M  V30 32 1 9 31
M  V30 33 1 9 32
M  V30 34 1 12 33
M  V30 35 1 12 34
M  V30 36 1 16 35
M  V30 37 1 18 36
M  V30 38 1 18 37
M  V30 39 1 19 38
M  V30 40 1 19 39
M  V30 41 1 19 40
M  V30 END BOND
M  V30 END CTAB
M  END
