
     RDKit          3D

  0  0  0  0  0  0  0  0  0  0999 V3000
M  V30 BEGIN CTAB
M  V30 COUNTS 49 50 0 0 0
M  V30 BEGIN ATOM
M  V30 1 N -7.12615 0.358844 2.695 0
M  V30 2 C -7.13334 0.0576437 1.31266 0
M  V30 3 N -8.23067 0.199841 0.677681 0
M  V30 4 C -5.91079 -0.399092 0.659331 0
M  V30 5 C -5.89674 -0.698957 -0.692151 0
M  V30 6 C -4.7515 -1.12609 -1.30509 0
M  V30 7 Br -4.71519 -1.54703 -3.18294 0
M  V30 8 C -3.56865 -1.2641 -0.555324 0
M  V30 9 O -2.44972 -1.6993 -1.22523 0
M  V30 10 C -1.59864 -0.880062 -1.96436 0
M  V30 11 C -0.902176 0.214384 -1.21627 0
M  V30 12 C -0.0711121 1.04043 -2.21294 0
M  V30 13 C 0.666324 2.14502 -1.51804 0
M  V30 14 C 1.68084 1.66229 -0.518005 0
M  V30 15 O 2.70147 0.895478 -1.11822 0
M  V30 16 C 3.73394 0.422963 -0.330994 0
M  V30 17 C 4.81466 1.28342 -0.162909 0
M  V30 18 Br 4.7685 2.98661 -1.01096 0
M  V30 19 C 5.90214 0.903888 0.608098 0
M  V30 20 C 5.97103 -0.315301 1.23453 0
M  V30 21 C 4.89598 -1.1618 1.06227 0
M  V30 22 C 3.78405 -0.800902 0.286619 0
M  V30 23 Br 2.33893 -2.03732 0.0676657 0
M  V30 24 C 7.07523 -0.760167 2.04662 0
M  V30 25 N 7.06649 -2.05478 2.66746 0
M  V30 26 N 8.10527 -0.0287028 2.2502 0
M  V30 27 C -3.57582 -0.971401 0.780033 0
M  V30 28 Br -2.02161 -1.19522 1.90647 0
M  V30 29 C -4.75308 -0.536535 1.38667 0
M  V30 30 H -7.63749 -0.250024 3.35299 0
M  V30 31 H -6.60657 1.18887 3.03139 0
M  V30 32 H -8.43419 0.0362428 -0.306624 0
M  V30 33 H -6.80324 -0.59608 -1.27992 0
M  V30 34 H -2.17037 -0.353472 -2.7925 0
M  V30 35 H -0.828886 -1.4846 -2.5123 0
M  V30 36 H -0.226518 -0.191031 -0.440803 0
M  V30 37 H -1.65188 0.91745 -0.809886 0
M  V30 38 H 0.61862 0.372015 -2.76789 0
M  V30 39 H -0.739613 1.51067 -2.96127 0
M  V30 40 H -0.108967 2.79455 -1.0129 0
M  V30 41 H 1.17506 2.76729 -2.31113 0
M  V30 42 H 1.22744 1.03354 0.271978 0
M  V30 43 H 2.12235 2.59311 -0.0521049 0
M  V30 44 H 6.72676 1.58862 0.722731 0
M  V30 45 H 4.85393 -2.14367 1.51401 0
M  V30 46 H 7.90316 -2.66916 2.58586 0
M  V30 47 H 6.25549 -2.41678 3.20287 0
M  V30 48 H 8.25379 0.91733 1.87339 0
M  V30 49 H -4.72856 -0.308957 2.45357 0
M  V30 END ATOM
M  V30 BEGIN BOND
M  V30 1 1 1 2
M  V30 2 2 2 3 CFG=2
M  V30 3 1 2 4
M  V30 4 2 4 5
M  V30 5 1 5 6
M  V30 6 1 6 7
M  V30 7 2 6 8
M  V30 8 1 8 9
M  V30 9 1 9 10
M  V30 10 1 10 11
M  V30 11 1 11 12
M  V30 12 1 12 13
M  V30 13 1 13 14
M  V30 14 1 14 15
M  V30 15 1 15 16
M  V30 16 2 16 17
M  V30 17 1 17 18
M  V30 18 1 17 19
M  V30 19 2 19 20
M  V30 20 1 20 21
M  V30 21 2 21 22
M  V30 22 1 22 23
M  V30 23 1 20 24
M  V30 24 1 24 25
M  V30 25 2 24 26 CFG=2
M  V30 26 1 8 27
M  V30 27 1 27 28
M  V30 28 2 27 29
M  V30 29 1 29 4
M  V30 30 1 22 16
M  V30 31 1 1 30
M  V30 32 1 1 31
M  V30 33 1 3 32
M  V30 34 1 5 33
M  V30 35 1 10 34
M  V30 36 1 10 35
M  V30 37 1 11 36
M  V30 38 1 11 37
M  V30 39 1 12 38
M  V30 40 1 12 39
M  V30 41 1 13 40
M  V30 42 1 13 41
M  V30 43 1 14 42
M  V30 44 1 14 43
M  V30 45 1 19 44
M  V30 46 1 21 45
M  V30 47 1 25 46
M  V30 48 1 25 47
M  V30 49 1 26 48
M  V30 50 1 29 49
M  V30 END BOND
M  V30 END CTAB
M  END
