
     RDKit          3D

  0  0  0  0  0  0  0  0  0  0999 V3000
M  V30 BEGIN CTAB
M  V30 COUNTS 45 48 0 0 0
M  V30 BEGIN ATOM
M  V30 1 N -7.501 2.6708 0.511948 0
M  V30 2 C -7.521 1.35225 0.00795171 0
M  V30 3 N -8.64868 0.809286 -0.286861 0
M  V30 4 C -6.31053 0.570711 -0.195825 0
M  V30 5 C -5.05159 1.08237 0.0981172 0
M  V30 6 C -3.8968 0.349956 -0.0912386 0
M  V30 7 C -3.95961 -0.933349 -0.586294 0
M  V30 8 C -5.19877 -1.44382 -0.878241 0
M  V30 9 C -6.35581 -0.714736 -0.690334 0
M  V30 10 N -2.69758 -1.38985 -0.661677 0
M  V30 11 C -1.83322 -0.457103 -0.237607 0
M  V30 12 N -2.59074 0.601255 0.107165 0
M  V30 13 C -0.402363 -0.588234 -0.174761 0
M  V30 14 C 0.181605 -1.76721 -0.580958 0
M  V30 15 C 1.56993 -1.89558 -0.519467 0
M  V30 16 C 2.39217 -0.897346 -0.0705063 0
M  V30 17 C 1.78008 0.288401 0.336015 0
M  V30 18 C 0.422582 0.440845 0.286247 0
M  V30 19 C 3.84169 -1.03842 -0.00893938 0
M  V30 20 C 4.6976 0.0109578 -0.172178 0
M  V30 21 C 6.07468 -0.115397 -0.114981 0
M  V30 22 C 6.57385 -1.37832 0.120226 0
M  V30 23 C 5.74094 -2.46041 0.289787 0
M  V30 24 C 4.36254 -2.28801 0.224462 0
M  V30 25 C 6.94678 1.03633 -0.295565 0
M  V30 26 N 6.42684 2.3331 -0.537342 0
M  V30 27 N 8.22337 0.898243 -0.238638 0
M  V30 28 H -7.44799 2.87997 1.52536 0
M  V30 29 H -7.54083 3.46334 -0.155043 0
M  V30 30 H -9.56872 1.28112 -0.178795 0
M  V30 31 H -4.99119 2.08309 0.484989 0
M  V30 32 H -5.30068 -2.43543 -1.26497 0
M  V30 33 H -7.33975 -1.13387 -0.927471 0
M  V30 34 H -2.20917 1.49691 0.479121 0
M  V30 35 H -0.399271 -2.59253 -0.944385 0
M  V30 36 H 1.99471 -2.8242 -0.84211 0
M  V30 37 H 2.40601 1.10062 0.697629 0
M  V30 38 H -0.0607647 1.33998 0.593001 0
M  V30 39 H 4.28863 0.981575 -0.35379 0
M  V30 40 H 7.66848 -1.47401 0.164935 0
M  V30 41 H 6.18741 -3.42183 0.470492 0
M  V30 42 H 3.75423 -3.16164 0.362918 0
M  V30 43 H 6.80755 2.99574 -1.24094 0
M  V30 44 H 5.60495 2.65646 0.0236439 0
M  V30 45 H 8.87943 1.68796 -0.360922 0
M  V30 END ATOM
M  V30 BEGIN BOND
M  V30 1 1 1 2
M  V30 2 2 2 3 CFG=2
M  V30 3 1 2 4
M  V30 4 2 4 5
M  V30 5 1 5 6
M  V30 6 2 6 7
M  V30 7 1 7 8
M  V30 8 2 8 9
M  V30 9 1 7 10
M  V30 10 2 10 11
M  V30 11 1 11 12
M  V30 12 1 11 13
M  V30 13 2 13 14
M  V30 14 1 14 15
M  V30 15 2 15 16
M  V30 16 1 16 17
M  V30 17 2 17 18
M  V30 18 1 16 19
M  V30 19 2 19 20
M  V30 20 1 20 21
M  V30 21 2 21 22
M  V30 22 1 22 23
M  V30 23 2 23 24
M  V30 24 1 21 25
M  V30 25 1 25 26
M  V30 26 2 25 27 CFG=2
M  V30 27 1 9 4
M  V30 28 1 18 13
M  V30 29 1 24 19
M  V30 30 1 12 6
M  V30 31 1 1 28
M  V30 32 1 1 29
M  V30 33 1 3 30
M  V30 34 1 5 31
M  V30 35 1 8 32
M  V30 36 1 9 33
M  V30 37 1 12 34
M  V30 38 1 14 35
M  V30 39 1 15 36
M  V30 40 1 17 37
M  V30 41 1 18 38
M  V30 42 1 20 39
M  V30 43 1 22 40
M  V30 44 1 23 41
M  V30 45 1 24 42
M  V30 46 1 26 43
M  V30 47 1 26 44
M  V30 48 1 27 45
M  V30 END BOND
M  V30 END CTAB
M  END
