
     RDKit          3D

  0  0  0  0  0  0  0  0  0  0999 V3000
M  V30 BEGIN CTAB
M  V30 COUNTS 43 44 0 0 0
M  V30 BEGIN ATOM
M  V30 1 O -0.249621 1.37278 0.00903837 0
M  V30 2 C -0.584639 0.535276 0.865241 0
M  V30 3 C -1.9738 0.693384 1.40959 0
M  V30 4 C -2.93728 0.438861 0.289923 0
M  V30 5 C -4.37708 0.586284 0.806867 0
M  V30 6 C -5.27098 0.0424193 -0.316498 0
M  V30 7 O -4.9332 0.632216 -1.53154 0
M  V30 8 C -4.16668 1.771 -1.36838 0
M  V30 9 C -2.7926 1.48914 -0.789235 0
M  V30 10 N -2.22688 -0.329475 2.43488 0
M  V30 11 N 0.214737 -0.516991 1.34784 0
M  V30 12 C 1.53049 -0.844214 0.979217 0
M  V30 13 C 2.13784 -1.94804 1.59614 0
M  V30 14 C 3.41438 -2.3471 1.30603 0
M  V30 15 C 4.16561 -1.66101 0.3746 0
M  V30 16 C 3.61406 -0.565697 -0.262382 0
M  V30 17 C 2.31094 -0.188487 0.0586778 0
M  V30 18 S 4.46983 0.35926 -1.44189 0
M  V30 19 O 4.94339 -0.450954 -2.60696 0
M  V30 20 O 5.6812 0.980575 -0.765645 0
M  V30 21 N 3.50516 1.63706 -2.02903 0
M  V30 22 C 5.54514 -2.04407 0.0212999 0
M  V30 23 H -2.148 1.7095 1.81067 0
M  V30 24 H -2.83396 -0.595647 -0.103266 0
M  V30 25 H -4.57948 1.66041 0.954397 0
M  V30 26 H -4.5263 0.000213303 1.72244 0
M  V30 27 H -5.01116 -1.03796 -0.410505 0
M  V30 28 H -6.32612 0.119031 -0.0590269 0
M  V30 29 H -3.97271 2.16142 -2.41005 0
M  V30 30 H -4.69071 2.59857 -0.850802 0
M  V30 31 H -2.08704 1.1508 -1.59452 0
M  V30 32 H -2.44788 2.42315 -0.289794 0
M  V30 33 H -2.72653 0.136718 3.23067 0
M  V30 34 H -2.73992 -1.14502 2.04704 0
M  V30 35 H -0.228301 -1.15566 2.09195 0
M  V30 36 H 1.60496 -2.52897 2.33468 0
M  V30 37 H 3.88773 -3.20017 1.78087 0
M  V30 38 H 1.89759 0.668522 -0.448515 0
M  V30 39 H 3.18214 1.47661 -3.00796 0
M  V30 40 H 4.00754 2.55211 -2.01811 0
M  V30 41 H 5.73638 -3.04314 0.512879 0
M  V30 42 H 5.67194 -2.22558 -1.05837 0
M  V30 43 H 6.30983 -1.3671 0.453545 0
M  V30 END ATOM
M  V30 BEGIN BOND
M  V30 1 2 1 2
M  V30 2 1 2 3
M  V30 3 1 3 4
M  V30 4 1 4 5
M  V30 5 1 5 6
M  V30 6 1 6 7
M  V30 7 1 7 8
M  V30 8 1 8 9
M  V30 9 1 3 10
M  V30 10 1 2 11
M  V30 11 1 11 12
M  V30 12 2 12 13
M  V30 13 1 13 14
M  V30 14 2 14 15
M  V30 15 1 15 16
M  V30 16 2 16 17
M  V30 17 1 16 18
M  V30 18 2 18 19
M  V30 19 2 18 20
M  V30 20 1 18 21
M  V30 21 1 15 22
M  V30 22 1 9 4
M  V30 23 1 17 12
M  V30 24 1 3 23
M  V30 25 1 4 24
M  V30 26 1 5 25
M  V30 27 1 5 26
M  V30 28 1 6 27
M  V30 29 1 6 28
M  V30 30 1 8 29
M  V30 31 1 8 30
M  V30 32 1 9 31
M  V30 33 1 9 32
M  V30 34 1 10 33
M  V30 35 1 10 34
M  V30 36 1 11 35
M  V30 37 1 13 36
M  V30 38 1 14 37
M  V30 39 1 17 38
M  V30 40 1 21 39
M  V30 41 1 21 40
M  V30 42 1 22 41
M  V30 43 1 22 42
M  V30 44 1 22 43
M  V30 END BOND
M  V30 END CTAB
M  END
