
     RDKit          3D

  0  0  0  0  0  0  0  0  0  0999 V3000
M  V30 BEGIN CTAB
M  V30 COUNTS 31 32 0 0 0
M  V30 BEGIN ATOM
M  V30 1 C 5.25813 1.02281 0.959 0
M  V30 2 O 4.93101 -0.148782 0.243409 0
M  V30 3 C 3.59815 -0.380099 -0.0574888 0
M  V30 4 C 3.28866 -1.53083 -0.758857 0
M  V30 5 C 1.96144 -1.80246 -1.08224 0
M  V30 6 C 0.951589 -0.938382 -0.711919 0
M  V30 7 C 1.30432 0.197446 -0.0136923 0
M  V30 8 O 0.288478 1.08902 0.371705 0
M  V30 9 C -1.03559 0.831457 0.0568938 0
M  V30 10 C -1.60564 1.281 -1.12612 0
M  V30 11 C -2.92607 1.00254 -1.39968 0
M  V30 12 C -3.69848 0.282185 -0.517801 0
M  V30 13 N -5.05479 -0.0264702 -0.756491 0
M  V30 14 C -3.15491 -0.183448 0.679339 0
M  V30 15 N -3.94278 -0.925432 1.59231 0
M  V30 16 C -1.82802 0.111394 0.926186 0
M  V30 17 C 2.60862 0.499973 0.324596 0
M  V30 18 H 6.3336 1.14556 1.11368 0
M  V30 19 H 4.84863 1.88306 0.358887 0
M  V30 20 H 4.72037 0.967919 1.94546 0
M  V30 21 H 4.04338 -2.23395 -1.06862 0
M  V30 22 H 1.68804 -2.70279 -1.63493 0
M  V30 23 H -0.0949909 -1.15675 -0.969342 0
M  V30 24 H -1.0081 1.84821 -1.82691 0
M  V30 25 H -3.38096 1.35765 -2.33694 0
M  V30 26 H -5.73568 0.0562735 0.0161103 0
M  V30 27 H -5.35772 -0.331222 -1.69514 0
M  V30 28 H -3.83697 -1.95255 1.64183 0
M  V30 29 H -4.6153 -0.424946 2.19842 0
M  V30 30 H -1.4047 -0.254911 1.8654 0
M  V30 31 H 2.85631 1.41653 0.883388 0
M  V30 END ATOM
M  V30 BEGIN BOND
M  V30 1 1 1 2
M  V30 2 1 2 3
M  V30 3 2 3 4
M  V30 4 1 4 5
M  V30 5 2 5 6
M  V30 6 1 6 7
M  V30 7 1 7 8
M  V30 8 1 8 9
M  V30 9 2 9 10
M  V30 10 1 10 11
M  V30 11 2 11 12
M  V30 12 1 12 13
M  V30 13 1 12 14
M  V30 14 1 14 15
M  V30 15 2 14 16
M  V30 16 2 7 17
M  V30 17 1 17 3
M  V30 18 1 16 9
M  V30 19 1 1 18
M  V30 20 1 1 19
M  V30 21 1 1 20
M  V30 22 1 4 21
M  V30 23 1 5 22
M  V30 24 1 6 23
M  V30 25 1 10 24
M  V30 26 1 11 25
M  V30 27 1 13 26
M  V30 28 1 13 27
M  V30 29 1 15 28
M  V30 30 1 15 29
M  V30 31 1 16 30
M  V30 32 1 17 31
M  V30 END BOND
M  V30 END CTAB
M  END
