
     RDKit          3D

  0  0  0  0  0  0  0  0  0  0999 V3000
M  V30 BEGIN CTAB
M  V30 COUNTS 35 37 0 0 0
M  V30 BEGIN ATOM
M  V30 1 N -2.09073 -3.59861 -0.561799 0
M  V30 2 C -1.16035 -2.9277 -0.408386 0
M  V30 3 C 0.00102822 -2.08307 -0.203409 0
M  V30 4 C 1.01984 -2.49585 0.507108 0
M  V30 5 N 1.01763 -3.78667 1.09989 0
M  V30 6 O 2.11567 -1.66734 0.685702 0
M  V30 7 C 2.19793 -0.388218 0.13896 0
M  V30 8 C 1.13752 0.0660648 -0.611905 0
M  V30 9 C -0.0678108 -0.736727 -0.856491 0
M  V30 10 C -1.33305 -0.0514244 -0.545163 0
M  V30 11 C -1.97818 0.639844 -1.54521 0
M  V30 12 C -3.16727 1.30268 -1.31476 0
M  V30 13 C -3.7232 1.26843 -0.0396391 0
M  V30 14 C -3.1048 0.585749 0.98692 0
M  V30 15 C -1.91972 -0.0582491 0.700979 0
M  V30 16 N -3.65469 0.539827 2.28874 0 CHG=1
M  V30 17 O -3.07361 -0.083936 3.1922 0
M  V30 18 O -4.82896 1.17167 2.59402 0 CHG=-1
M  V30 19 C 1.23424 1.3311 -1.14523 0
M  V30 20 C 2.34495 2.11404 -0.93846 0
M  V30 21 C 3.40042 1.65332 -0.187046 0
M  V30 22 C 3.33195 0.39353 0.358218 0
M  V30 23 N 4.56436 2.41086 0.058678 0
M  V30 24 H 1.53066 -4.5666 0.59977 0
M  V30 25 H 0.542962 -4.01514 1.99618 0
M  V30 26 H -0.0666965 -0.972124 -1.96148 0
M  V30 27 H -1.54564 0.672358 -2.55835 0
M  V30 28 H -3.65605 1.83926 -2.11594 0
M  V30 29 H -4.65689 1.78441 0.156515 0
M  V30 30 H -1.42091 -0.595185 1.48253 0
M  V30 31 H 0.435571 1.75578 -1.74958 0
M  V30 32 H 2.40246 3.09711 -1.36191 0
M  V30 33 H 4.15895 0.00539899 0.959476 0
M  V30 34 H 4.7634 2.79719 0.99949 0
M  V30 35 H 5.24902 2.59824 -0.700612 0
M  V30 END ATOM
M  V30 BEGIN BOND
M  V30 1 3 1 2
M  V30 2 1 2 3
M  V30 3 2 3 4
M  V30 4 1 4 5
M  V30 5 1 4 6
M  V30 6 1 6 7
M  V30 7 2 7 8
M  V30 8 1 8 9
M  V30 9 1 9 10
M  V30 10 2 10 11
M  V30 11 1 11 12
M  V30 12 2 12 13
M  V30 13 1 13 14
M  V30 14 2 14 15
M  V30 15 1 14 16
M  V30 16 2 16 17
M  V30 17 1 16 18
M  V30 18 1 8 19
M  V30 19 2 19 20
M  V30 20 1 20 21
M  V30 21 2 21 22
M  V30 22 1 21 23
M  V30 23 1 9 3
M  V30 24 1 15 10
M  V30 25 1 22 7
M  V30 26 1 5 24
M  V30 27 1 5 25
M  V30 28 1 9 26
M  V30 29 1 11 27
M  V30 30 1 12 28
M  V30 31 1 13 29
M  V30 32 1 15 30
M  V30 33 1 19 31
M  V30 34 1 20 32
M  V30 35 1 22 33
M  V30 36 1 23 34
M  V30 37 1 23 35
M  V30 END BOND
M  V30 END CTAB
M  END
