
     RDKit          3D

  0  0  0  0  0  0  0  0  0  0999 V3000
M  V30 BEGIN CTAB
M  V30 COUNTS 54 56 0 0 0
M  V30 BEGIN ATOM
M  V30 1 O 0.00355909 -2.37959 -1.26974 0
M  V30 2 C 0.955731 -1.66427 -0.952594 0
M  V30 3 N 0.904619 -0.318733 -0.564227 0
M  V30 4 C -0.280012 0.440767 -0.475647 0
M  V30 5 C -1.54941 -0.00103623 -0.748637 0
M  V30 6 C -2.6639 0.838935 -0.628583 0
M  V30 7 C -2.47175 2.13704 -0.226544 0
M  V30 8 C -1.21155 2.62809 0.0598356 0
M  V30 9 C -0.1359 1.78077 -0.0667626 0
M  V30 10 Cl 1.45652 2.39963 0.29465 0
M  V30 11 S -4.25735 0.226429 -0.988256 0
M  V30 12 O -4.09081 -0.884274 -2.00058 0
M  V30 13 O -5.12207 1.30217 -1.57547 0
M  V30 14 N -4.99327 -0.434072 0.397296 0
M  V30 15 C -5.19747 0.488357 1.46214 0
M  V30 16 C -6.50898 1.2132 1.41831 0
M  V30 17 C -7.66626 0.303975 1.18383 0
M  V30 18 C -7.27319 -1.13633 1.00372 0
M  V30 19 C -6.07166 -1.32353 0.14053 0
M  V30 20 C 2.30762 -2.35979 -1.00355 0
M  V30 21 O 3.31262 -1.4618 -0.626926 0
M  V30 22 C 4.62607 -1.8976 -0.606128 0
M  V30 23 O 4.87477 -3.07316 -0.922349 0
M  V30 24 C 5.70201 -0.968405 -0.212354 0
M  V30 25 C 5.39361 0.322504 0.130874 0
M  V30 26 C 6.36335 1.22519 0.50488 0
M  V30 27 N 6.08138 2.55965 0.863869 0
M  V30 28 C 7.67254 0.765986 0.518375 0
M  V30 29 C 7.99373 -0.527817 0.175748 0
M  V30 30 C 6.99923 -1.4091 -0.194785 0
M  V30 31 N 9.35172 -0.969648 0.199856 0
M  V30 32 H 1.84793 0.162215 -0.316749 0
M  V30 33 H -1.72505 -1.00056 -1.06135 0
M  V30 34 H -3.35882 2.77067 -0.141215 0
M  V30 35 H -1.06743 3.66234 0.379143 0
M  V30 36 H -4.39035 1.25541 1.42194 0
M  V30 37 H -5.16439 -0.0783137 2.42044 0
M  V30 38 H -6.49028 2.03045 0.642576 0
M  V30 39 H -6.61236 1.74971 2.40639 0
M  V30 40 H -8.34382 0.343866 2.072 0
M  V30 41 H -8.28384 0.677079 0.320585 0
M  V30 42 H -8.1373 -1.63395 0.472524 0
M  V30 43 H -7.1987 -1.67565 1.97481 0
M  V30 44 H -6.32681 -1.31591 -0.950825 0
M  V30 45 H -5.69233 -2.37087 0.325985 0
M  V30 46 H 2.42698 -2.77279 -2.01205 0
M  V30 47 H 2.25548 -3.16507 -0.258819 0
M  V30 48 H 4.37585 0.676569 0.119527 0
M  V30 49 H 5.15711 2.96249 0.626259 0
M  V30 50 H 6.76902 3.14215 1.35483 0
M  V30 51 H 8.46801 1.43189 0.803341 0
M  V30 52 H 7.27358 -2.40803 -0.45634 0
M  V30 53 H 10.1246 -0.309506 0.399354 0
M  V30 54 H 9.5874 -1.95775 0.0182983 0
M  V30 END ATOM
M  V30 BEGIN BOND
M  V30 1 2 1 2
M  V30 2 1 2 3
M  V30 3 1 3 4
M  V30 4 2 4 5
M  V30 5 1 5 6
M  V30 6 2 6 7
M  V30 7 1 7 8
M  V30 8 2 8 9
M  V30 9 1 9 10
M  V30 10 1 6 11
M  V30 11 2 11 12
M  V30 12 2 11 13
M  V30 13 1 11 14
M  V30 14 1 14 15
M  V30 15 1 15 16
M  V30 16 1 16 17
M  V30 17 1 17 18
M  V30 18 1 18 19
M  V30 19 1 2 20
M  V30 20 1 20 21
M  V30 21 1 21 22
M  V30 22 2 22 23
M  V30 23 1 22 24
M  V30 24 2 24 25
M  V30 25 1 25 26
M  V30 26 1 26 27
M  V30 27 2 26 28
M  V30 28 1 28 29
M  V30 29 2 29 30
M  V30 30 1 29 31
M  V30 31 1 9 4
M  V30 32 1 19 14
M  V30 33 1 30 24
M  V30 34 1 3 32
M  V30 35 1 5 33
M  V30 36 1 7 34
M  V30 37 1 8 35
M  V30 38 1 15 36
M  V30 39 1 15 37
M  V30 40 1 16 38
M  V30 41 1 16 39
M  V30 42 1 17 40
M  V30 43 1 17 41
M  V30 44 1 18 42
M  V30 45 1 18 43
M  V30 46 1 19 44
M  V30 47 1 19 45
M  V30 48 1 20 46
M  V30 49 1 20 47
M  V30 50 1 25 48
M  V30 51 1 27 49
M  V30 52 1 27 50
M  V30 53 1 28 51
M  V30 54 1 30 52
M  V30 55 1 31 53
M  V30 56 1 31 54
M  V30 END BOND
M  V30 END CTAB
M  END
