
     RDKit          3D

  0  0  0  0  0  0  0  0  0  0999 V3000
M  V30 BEGIN CTAB
M  V30 COUNTS 36 37 0 0 0
M  V30 BEGIN ATOM
M  V30 1 C -2.32929 1.64721 -1.86291 0
M  V30 2 C -3.16819 0.808162 -0.956967 0
M  V30 3 C -4.53453 0.892371 -1.02228 0
M  V30 4 C -5.35803 0.144825 -0.213358 0
M  V30 5 C -4.77457 -0.705761 0.680164 0
M  V30 6 C -3.39242 -0.82038 0.777494 0
M  V30 7 C -2.57373 -0.0724155 -0.0317999 0
M  V30 8 N -1.16517 -0.119184 -0.00789881 0
M  V30 9 C -0.326729 -0.895521 0.803676 0
M  V30 10 O -0.813893 -1.6769 1.64506 0
M  V30 11 C 1.14714 -0.827564 0.704105 0
M  V30 12 C 1.88417 -1.64982 1.56637 0
M  V30 13 N 1.22856 -2.50784 2.49251 0
M  V30 14 C 3.25243 -1.58827 1.47553 0
M  V30 15 C 3.87775 -0.755498 0.576904 0
M  V30 16 Cl 5.62708 -0.742543 0.530788 0
M  V30 17 C 3.18143 0.0594356 -0.278299 0
M  V30 18 C 1.78454 -0.00053356 -0.188621 0
M  V30 19 S 3.98004 1.1195 -1.42219 0
M  V30 20 N 4.97779 2.22407 -0.540287 0
M  V30 21 O 3.01216 1.88585 -2.23429 0
M  V30 22 O 4.83129 0.227332 -2.30697 0
M  V30 23 H -1.80998 1.02446 -2.60311 0
M  V30 24 H -1.60732 2.23393 -1.22309 0
M  V30 25 H -2.96929 2.40114 -2.33897 0
M  V30 26 H -4.96549 1.5864 -1.75214 0
M  V30 27 H -6.43403 0.26213 -0.318974 0
M  V30 28 H -5.44139 -1.30004 1.32346 0
M  V30 29 H -3.05183 -1.51856 1.51329 0
M  V30 30 H -0.647628 0.515642 -0.694039 0
M  V30 31 H 0.851554 -2.19392 3.41146 0
M  V30 32 H 1.10924 -3.51584 2.25338 0
M  V30 33 H 3.81022 -2.23782 2.15712 0
M  V30 34 H 1.25061 0.652911 -0.874811 0
M  V30 35 H 4.65138 2.27164 0.450074 0
M  V30 36 H 4.90613 3.17142 -0.974114 0
M  V30 END ATOM
M  V30 BEGIN BOND
M  V30 1 1 1 2
M  V30 2 2 2 3
M  V30 3 1 3 4
M  V30 4 2 4 5
M  V30 5 1 5 6
M  V30 6 2 6 7
M  V30 7 1 7 8
M  V30 8 1 8 9
M  V30 9 2 9 10
M  V30 10 1 9 11
M  V30 11 2 11 12
M  V30 12 1 12 13
M  V30 13 1 12 14
M  V30 14 2 14 15
M  V30 15 1 15 16
M  V30 16 1 15 17
M  V30 17 2 17 18
M  V30 18 1 17 19
M  V30 19 1 19 20
M  V30 20 2 19 21
M  V30 21 2 19 22
M  V30 22 1 7 2
M  V30 23 1 18 11
M  V30 24 1 1 23
M  V30 25 1 1 24
M  V30 26 1 1 25
M  V30 27 1 3 26
M  V30 28 1 4 27
M  V30 29 1 5 28
M  V30 30 1 6 29
M  V30 31 1 8 30
M  V30 32 1 13 31
M  V30 33 1 13 32
M  V30 34 1 14 33
M  V30 35 1 18 34
M  V30 36 1 20 35
M  V30 37 1 20 36
M  V30 END BOND
M  V30 END CTAB
M  END
