
     RDKit          3D

  0  0  0  0  0  0  0  0  0  0999 V3000
M  V30 BEGIN CTAB
M  V30 COUNTS 33 33 0 0 0
M  V30 BEGIN ATOM
M  V30 1 N 5.12561 0.946681 -1.42952 0
M  V30 2 C 5.22705 0.482442 -0.0601504 0
M  V30 3 C 4.13834 -0.533684 0.211182 0
M  V30 4 C 2.78729 0.0788147 0.00379047 0
M  V30 5 O 1.78951 -0.889837 0.26333 0
M  V30 6 C 0.431832 -0.621666 0.155801 0
M  V30 7 C -0.207008 -0.82516 -1.04915 0
M  V30 8 Br 0.77511 -1.47061 -2.55209 0
M  V30 9 C -1.55649 -0.545823 -1.11127 0
M  V30 10 C -2.28201 -0.0775454 -0.030856 0
M  V30 11 C -1.63268 0.125344 1.18006 0
M  V30 12 C -0.282611 -0.155082 1.23882 0
M  V30 13 Br 0.623968 0.116845 2.88982 0
M  V30 14 C -3.71645 0.181848 -0.228304 0
M  V30 15 O -4.26492 -0.891786 -0.928219 0
M  V30 16 C -4.48689 0.334408 1.04987 0
M  V30 17 N -5.88024 0.589361 0.67768 0
M  V30 18 H 6.06706 1.25874 -1.72486 0
M  V30 19 H 4.79854 0.192551 -2.07179 0
M  V30 20 H 5.09324 1.3066 0.667619 0
M  V30 21 H 6.2364 0.0600018 0.0768872 0
M  V30 22 H 4.21955 -0.868948 1.27363 0
M  V30 23 H 4.27394 -1.39907 -0.450486 0
M  V30 24 H 2.66449 0.416801 -1.04702 0
M  V30 25 H 2.653 0.955453 0.643809 0
M  V30 26 H -2.05701 -0.706241 -2.05877 0
M  V30 27 H -2.20854 0.485661 1.99779 0
M  V30 28 H -3.82348 1.10069 -0.812067 0
M  V30 29 H -3.68507 -1.69981 -0.839822 0
M  V30 30 H -4.10432 1.16902 1.68206 0
M  V30 31 H -4.47454 -0.571399 1.681 0
M  V30 32 H -6.20509 1.51764 1.03338 0
M  V30 33 H -6.03759 0.524224 -0.332179 0
M  V30 END ATOM
M  V30 BEGIN BOND
M  V30 1 1 1 2
M  V30 2 1 2 3
M  V30 3 1 3 4
M  V30 4 1 4 5
M  V30 5 1 5 6
M  V30 6 2 6 7
M  V30 7 1 7 8
M  V30 8 1 7 9
M  V30 9 2 9 10
M  V30 10 1 10 11
M  V30 11 2 11 12
M  V30 12 1 12 13
M  V30 13 1 10 14
M  V30 14 1 14 15
M  V30 15 1 14 16
M  V30 16 1 16 17
M  V30 17 1 12 6
M  V30 18 1 1 18
M  V30 19 1 1 19
M  V30 20 1 2 20
M  V30 21 1 2 21
M  V30 22 1 3 22
M  V30 23 1 3 23
M  V30 24 1 4 24
M  V30 25 1 4 25
M  V30 26 1 9 26
M  V30 27 1 11 27
M  V30 28 1 14 28
M  V30 29 1 15 29
M  V30 30 1 16 30
M  V30 31 1 16 31
M  V30 32 1 17 32
M  V30 33 1 17 33
M  V30 END BOND
M  V30 END CTAB
M  END
