
     RDKit          3D

  0  0  0  0  0  0  0  0  0  0999 V3000
M  V30 BEGIN CTAB
M  V30 COUNTS 56 59 0 0 0
M  V30 BEGIN ATOM
M  V30 1 C -3.26484 -3.60076 -1.21721 0
M  V30 2 C -2.75543 -3.38726 0.189852 0
M  V30 3 N -2.1374 -2.08175 0.354412 0
M  V30 4 C -0.725208 -1.98994 0.0900551 0
M  V30 5 C -0.24097 -0.560911 -0.0704641 0
M  V30 6 C 0.357643 -0.0652124 1.20579 0
M  V30 7 C 1.83772 0.0257785 1.23701 0
M  V30 8 N 2.46566 0.36152 0.0012919 0
M  V30 9 C 1.65856 0.589157 -1.1778 0
M  V30 10 C 0.681699 -0.537457 -1.24771 0
M  V30 11 C 3.87767 0.477258 -0.0944296 0
M  V30 12 C 4.6584 0.259616 1.03908 0
M  V30 13 C 6.00704 0.378542 0.911324 0
M  V30 14 N 6.81125 0.156268 2.07084 0
M  V30 15 N 6.55621 0.69601 -0.274636 0
M  V30 16 C 5.82003 0.910101 -1.38081 0
M  V30 17 N 4.48553 0.792586 -1.25503 0
M  V30 18 N 6.45004 1.24626 -2.62352 0
M  V30 19 C -1.40015 0.375643 -0.424538 0
M  V30 20 C -2.46953 0.356757 0.64966 0
M  V30 21 C -2.9575 -1.02131 0.7538 0
M  V30 22 O -4.109 -1.24539 1.20076 0
M  V30 23 C -3.50791 1.31717 0.233986 0
M  V30 24 C -3.82586 2.3647 1.06772 0
M  V30 25 C -4.7874 3.30722 0.75069 0
M  V30 26 C -5.45944 3.20468 -0.441855 0
M  V30 27 C -5.15842 2.16463 -1.2928 0
M  V30 28 C -4.18371 1.21852 -0.959564 0
M  V30 29 H -3.7231 -2.71954 -1.66294 0
M  V30 30 H -4.0666 -4.3875 -1.1365 0
M  V30 31 H -2.47951 -4.06454 -1.8637 0
M  V30 32 H -3.58477 -3.54187 0.910714 0
M  V30 33 H -2.00003 -4.16129 0.401859 0
M  V30 34 H -0.507953 -2.60796 -0.808031 0
M  V30 35 H -0.180654 -2.43016 0.929618 0
M  V30 36 H -0.0605097 0.940414 1.50926 0
M  V30 37 H 0.0409624 -0.749912 2.02237 0
M  V30 38 H 2.29995 -0.912933 1.61287 0
M  V30 39 H 2.14085 0.814479 1.98325 0
M  V30 40 H 1.19451 1.58608 -1.13775 0
M  V30 41 H 2.28597 0.533829 -2.11488 0
M  V30 42 H 0.0826694 -0.435711 -2.17632 0
M  V30 43 H 1.26248 -1.4873 -1.23689 0
M  V30 44 H 4.13286 0.00806473 1.95372 0
M  V30 45 H 7.46663 -0.644239 2.05157 0
M  V30 46 H 6.77862 0.740689 2.91942 0
M  V30 47 H 6.05253 0.968019 -3.54423 0
M  V30 48 H 7.34369 1.79041 -2.65355 0
M  V30 49 H -0.985217 1.37252 -0.585329 0
M  V30 50 H -1.88925 -0.0247976 -1.34826 0
M  V30 51 H -2.07341 0.641367 1.63655 0
M  V30 52 H -3.30694 2.46005 2.00924 0
M  V30 53 H -5.03391 4.13014 1.41079 0
M  V30 54 H -6.22172 3.95378 -0.690751 0
M  V30 55 H -5.69854 2.10239 -2.2255 0
M  V30 56 H -3.95431 0.413095 -1.62425 0
M  V30 END ATOM
M  V30 BEGIN BOND
M  V30 1 1 1 2
M  V30 2 1 2 3
M  V30 3 1 3 4
M  V30 4 1 4 5
M  V30 5 1 5 6
M  V30 6 1 6 7
M  V30 7 1 7 8
M  V30 8 1 8 9
M  V30 9 1 9 10
M  V30 10 1 8 11
M  V30 11 2 11 12
M  V30 12 1 12 13
M  V30 13 1 13 14
M  V30 14 2 13 15
M  V30 15 1 15 16
M  V30 16 2 16 17
M  V30 17 1 16 18
M  V30 18 1 5 19
M  V30 19 1 19 20
M  V30 20 1 20 21
M  V30 21 2 21 22
M  V30 22 1 20 23
M  V30 23 2 23 24
M  V30 24 1 24 25
M  V30 25 2 25 26
M  V30 26 1 26 27
M  V30 27 2 27 28
M  V30 28 1 21 3
M  V30 29 1 28 23
M  V30 30 1 10 5
M  V30 31 1 17 11
M  V30 32 1 1 29
M  V30 33 1 1 30
M  V30 34 1 1 31
M  V30 35 1 2 32
M  V30 36 1 2 33
M  V30 37 1 4 34
M  V30 38 1 4 35
M  V30 39 1 6 36
M  V30 40 1 6 37
M  V30 41 1 7 38
M  V30 42 1 7 39
M  V30 43 1 9 40
M  V30 44 1 9 41
M  V30 45 1 10 42
M  V30 46 1 10 43
M  V30 47 1 12 44
M  V30 48 1 14 45
M  V30 49 1 14 46
M  V30 50 1 18 47
M  V30 51 1 18 48
M  V30 52 1 19 49
M  V30 53 1 19 50
M  V30 54 1 20 51
M  V30 55 1 24 52
M  V30 56 1 25 53
M  V30 57 1 26 54
M  V30 58 1 27 55
M  V30 59 1 28 56
M  V30 END BOND
M  V30 END CTAB
M  END
