
     RDKit          3D

  0  0  0  0  0  0  0  0  0  0999 V3000
M  V30 BEGIN CTAB
M  V30 COUNTS 56 58 0 0 0
M  V30 BEGIN ATOM
M  V30 1 C 5.75853 1.96299 -0.308986 0
M  V30 2 C 5.76481 0.80531 0.651383 0
M  V30 3 O 4.48089 0.429853 1.05108 0
M  V30 4 C 3.78434 0.0666801 -0.082604 0
M  V30 5 C 2.41867 0.78236 -0.22448 0
M  V30 6 C 1.97349 -0.442271 -0.911648 0
M  V30 7 C 2.93761 -1.18803 0.0568559 0
M  V30 8 C 2.28768 -1.40457 1.37234 0
M  V30 9 C 3.55738 -2.42238 -0.549671 0
M  V30 10 N 2.53511 -0.51429 -2.27844 0
M  V30 11 C 0.613352 -0.928695 -0.879142 0
M  V30 12 O 0.414664 -1.87136 -1.75986 0
M  V30 13 N -0.473154 -0.536824 -0.0630603 0
M  V30 14 C -1.78638 -1.20887 -0.151308 0
M  V30 15 C -2.66102 0.0268696 -0.247738 0 CFG=2
M  V30 16 C -2.19126 0.732386 1.01658 0 CFG=1
M  V30 17 C -0.672538 0.481377 0.925778 0
M  V30 18 C -2.53145 2.18767 0.931848 0
M  V30 19 N -3.95632 2.41028 0.795002 0
M  V30 20 C -4.09269 -0.282205 -0.234502 0
M  V30 21 C -4.87875 0.126778 -1.29321 0
M  V30 22 C -6.2511 -0.145379 -1.32509 0
M  V30 23 C -6.85389 -0.834994 -0.289041 0
M  V30 24 C -6.05159 -1.23374 0.757135 0
M  V30 25 C -4.69012 -0.962764 0.786947 0
M  V30 26 H 6.72054 2.53353 -0.212279 0
M  V30 27 H 5.73025 1.62843 -1.37288 0
M  V30 28 H 4.90994 2.64276 -0.162442 0
M  V30 29 H 6.43305 0.99135 1.53477 0
M  V30 30 H 6.26923 -0.0466614 0.107694 0
M  V30 31 H 4.29873 0.122937 -1.04008 0
M  V30 32 H 1.98212 1.02798 0.747777 0
M  V30 33 H 2.56914 1.68942 -0.851274 0
M  V30 34 H 2.19677 -0.530687 2.01881 0
M  V30 35 H 2.90353 -2.15231 1.95503 0
M  V30 36 H 1.30505 -1.94211 1.21622 0
M  V30 37 H 2.83541 -2.85369 -1.25614 0
M  V30 38 H 4.53912 -2.18835 -0.987601 0
M  V30 39 H 3.67659 -3.15864 0.279407 0
M  V30 40 H 2.74469 0.445244 -2.6362 0
M  V30 41 H 3.35136 -1.14935 -2.31549 0
M  V30 42 H -1.88013 -1.82508 -1.04301 0
M  V30 43 H -2.0084 -1.75842 0.787763 0
M  V30 44 H -2.3628 0.577361 -1.13845 0
M  V30 45 H -2.61447 0.254722 1.91142 0
M  V30 46 H -0.277912 1.47374 0.615475 0
M  V30 47 H -0.335532 0.141289 1.90305 0
M  V30 48 H -2.15928 2.65678 1.88996 0
M  V30 49 H -2.01744 2.70909 0.120953 0
M  V30 50 H -4.29228 2.98572 1.62238 0
M  V30 51 H -4.18078 2.95573 -0.086512 0
M  V30 52 H -4.4157 0.666332 -2.10715 0
M  V30 53 H -6.87426 0.174521 -2.15645 0
M  V30 54 H -7.91293 -1.05633 -0.292815 0
M  V30 55 H -6.51282 -1.77172 1.56888 0
M  V30 56 H -4.05706 -1.27981 1.61688 0
M  V30 END ATOM
M  V30 BEGIN BOND
M  V30 1 1 1 2
M  V30 2 1 2 3
M  V30 3 1 3 4
M  V30 4 1 4 5
M  V30 5 1 5 6
M  V30 6 1 6 7
M  V30 7 1 7 8
M  V30 8 1 7 9
M  V30 9 1 6 10
M  V30 10 1 6 11
M  V30 11 2 11 12
M  V30 12 1 11 13
M  V30 13 1 13 14
M  V30 14 1 14 15
M  V30 15 1 15 16
M  V30 16 1 16 17
M  V30 17 1 16 18
M  V30 18 1 18 19
M  V30 19 1 15 20
M  V30 20 2 20 21
M  V30 21 1 21 22
M  V30 22 2 22 23
M  V30 23 1 23 24
M  V30 24 2 24 25
M  V30 25 1 7 4
M  V30 26 1 17 13
M  V30 27 1 25 20
M  V30 28 1 1 26
M  V30 29 1 1 27
M  V30 30 1 1 28
M  V30 31 1 2 29
M  V30 32 1 2 30
M  V30 33 1 4 31
M  V30 34 1 5 32
M  V30 35 1 5 33
M  V30 36 1 8 34
M  V30 37 1 8 35
M  V30 38 1 8 36
M  V30 39 1 9 37
M  V30 40 1 9 38
M  V30 41 1 9 39
M  V30 42 1 10 40
M  V30 43 1 10 41
M  V30 44 1 14 42
M  V30 45 1 14 43
M  V30 46 1 15 44 CFG=3
M  V30 47 1 16 45 CFG=1
M  V30 48 1 17 46
M  V30 49 1 17 47
M  V30 50 1 18 48
M  V30 51 1 18 49
M  V30 52 1 19 50
M  V30 53 1 19 51
M  V30 54 1 21 52
M  V30 55 1 22 53
M  V30 56 1 23 54
M  V30 57 1 24 55
M  V30 58 1 25 56
M  V30 END BOND
M  V30 END CTAB
M  END
