
     RDKit          3D

  0  0  0  0  0  0  0  0  0  0999 V3000
M  V30 BEGIN CTAB
M  V30 COUNTS 68 69 0 0 0
M  V30 BEGIN ATOM
M  V30 1 N 9.32121 2.69096 -0.369787 0
M  V30 2 S 7.80657 3.49456 -0.0810387 0
M  V30 3 O 7.62997 4.61219 -1.02971 0
M  V30 4 O 7.71564 3.9638 1.34124 0
M  V30 5 C 6.55335 2.28725 -0.335503 0
M  V30 6 C 5.96693 2.06749 -1.55341 0
M  V30 7 C 4.98166 1.08186 -1.68577 0
M  V30 8 C 4.59233 0.335533 -0.625054 0
M  V30 9 N 3.60119 -0.677478 -0.631995 0
M  V30 10 C 2.65981 -0.980322 -1.62532 0
M  V30 11 O 2.65839 -0.283935 -2.6757 0
M  V30 12 C 1.66033 -2.04683 -1.56704 0
M  V30 13 N 1.54586 -2.85273 -0.424061 0
M  V30 14 C 0.993676 -2.18084 0.697427 0
M  V30 15 C -0.505617 -1.94876 0.551503 0
M  V30 16 N -1.09228 -1.22159 1.63639 0
M  V30 17 C -1.07764 -1.95072 2.87617 0
M  V30 18 C -1.55286 -1.13982 3.99874 0
M  V30 19 O -1.61391 -1.7282 5.27417 0
M  V30 20 O -1.92138 0.0550562 3.95203 0
M  V30 21 C -2.40418 -0.822421 1.24109 0
M  V30 22 C -2.2942 0.328643 0.210251 0
M  V30 23 O -1.09888 0.684869 -0.0324829 0
M  V30 24 N -3.41355 0.816347 -0.304886 0
M  V30 25 C -4.56544 1.31828 -0.835046 0
M  V30 26 C -4.77974 2.09188 -1.94502 0
M  V30 27 C -6.02091 2.52104 -2.32247 0
M  V30 28 C -7.14609 2.20265 -1.61 0
M  V30 29 C -6.96805 1.42869 -0.494361 0
M  V30 30 C -5.7571 0.991117 -0.0966467 0
M  V30 31 S -8.71543 2.77055 -2.10392 0
M  V30 32 N -8.97247 4.29999 -1.29503 0
M  V30 33 O -9.80349 1.85518 -1.56294 0
M  V30 34 O -8.86372 2.91541 -3.5718 0
M  V30 35 C 2.43546 -3.87537 -0.176773 0
M  V30 36 C 2.06426 -4.78437 0.926303 0
M  V30 37 O 0.815098 -5.00735 1.44939 0
M  V30 38 O 2.98644 -5.49269 1.5106 0
M  V30 39 C 5.20583 0.57557 0.621575 0
M  V30 40 C 6.17015 1.53739 0.753283 0
M  V30 41 H 9.33251 1.78665 0.126334 0
M  V30 42 H 9.46297 2.53353 -1.37297 0
M  V30 43 H 6.27707 2.6624 -2.4213 0
M  V30 44 H 4.56078 0.943889 -2.65754 0
M  V30 45 H 3.5879 -1.32086 0.236205 0
M  V30 46 H 0.670064 -1.55392 -1.78546 0
M  V30 47 H 1.76367 -2.75561 -2.45629 0
M  V30 48 H 1.48884 -1.16993 0.780611 0
M  V30 49 H 1.17048 -2.75397 1.61392 0
M  V30 50 H -0.980244 -2.98595 0.596758 0
M  V30 51 H -0.814789 -1.55812 -0.409604 0
M  V30 52 H -1.57283 -2.94052 2.80832 0
M  V30 53 H -0.00328338 -2.18953 3.10415 0
M  V30 54 H -2.33732 -2.35984 5.54891 0
M  V30 55 H -2.90008 -1.62356 0.607632 0
M  V30 56 H -3.11867 -0.583169 2.01161 0
M  V30 57 H -2.64385 1.76809 -0.953807 0
M  V30 58 H -3.9339 2.37983 -2.58 0
M  V30 59 H -6.13738 3.13258 -3.22047 0
M  V30 60 H -7.87163 1.16984 0.0695518 0
M  V30 61 H -5.60064 0.373068 0.793564 0
M  V30 62 H -8.62052 4.12841 -0.305132 0
M  V30 63 H -8.27168 4.95043 -1.7243 0
M  V30 64 H 3.49396 -3.55002 0.0575099 0
M  V30 65 H 2.51649 -4.54666 -1.12053 0
M  V30 66 H 0.111771 -5.59142 1.00986 0
M  V30 67 H 4.92991 0.011418 1.49502 0
M  V30 68 H 6.64317 1.71012 1.72409 0
M  V30 END ATOM
M  V30 BEGIN BOND
M  V30 1 1 1 2
M  V30 2 2 2 3
M  V30 3 2 2 4
M  V30 4 1 2 5
M  V30 5 2 5 6
M  V30 6 1 6 7
M  V30 7 2 7 8
M  V30 8 1 8 9
M  V30 9 1 9 10
M  V30 10 2 10 11
M  V30 11 1 10 12
M  V30 12 1 12 13
M  V30 13 1 13 14
M  V30 14 1 14 15
M  V30 15 1 15 16
M  V30 16 1 16 17
M  V30 17 1 17 18
M  V30 18 1 18 19
M  V30 19 2 18 20
M  V30 20 1 16 21
M  V30 21 1 21 22
M  V30 22 2 22 23
M  V30 23 1 22 24
M  V30 24 1 24 25
M  V30 25 2 25 26
M  V30 26 1 26 27
M  V30 27 2 27 28
M  V30 28 1 28 29
M  V30 29 2 29 30
M  V30 30 1 28 31
M  V30 31 1 31 32
M  V30 32 2 31 33
M  V30 33 2 31 34
M  V30 34 1 13 35
M  V30 35 1 35 36
M  V30 36 1 36 37
M  V30 37 2 36 38
M  V30 38 1 8 39
M  V30 39 2 39 40
M  V30 40 1 40 5
M  V30 41 1 30 25
M  V30 42 1 1 41
M  V30 43 1 1 42
M  V30 44 1 6 43
M  V30 45 1 7 44
M  V30 46 1 9 45
M  V30 47 1 12 46
M  V30 48 1 12 47
M  V30 49 1 14 48
M  V30 50 1 14 49
M  V30 51 1 15 50
M  V30 52 1 15 51
M  V30 53 1 17 52
M  V30 54 1 17 53
M  V30 55 1 19 54
M  V30 56 1 21 55
M  V30 57 1 21 56
M  V30 58 1 24 57
M  V30 59 1 26 58
M  V30 60 1 27 59
M  V30 61 1 29 60
M  V30 62 1 30 61
M  V30 63 1 32 62
M  V30 64 1 32 63
M  V30 65 1 35 64
M  V30 66 1 35 65
M  V30 67 1 37 66
M  V30 68 1 39 67
M  V30 69 1 40 68
M  V30 END BOND
M  V30 END CTAB
M  END
