
     RDKit          3D

  0  0  0  0  0  0  0  0  0  0999 V3000
M  V30 BEGIN CTAB
M  V30 COUNTS 16 16 0 0 0
M  V30 BEGIN ATOM
M  V30 1 N -0.310246 -1.97486 0.675248 0
M  V30 2 C -0.933237 -0.73171 0.336325 0
M  V30 3 N -2.1691 -0.317662 0.566759 0
M  V30 4 C -2.35282 0.923623 0.081991 0
M  V30 5 C -1.15616 1.30885 -0.487007 0
M  V30 6 N -0.304282 0.283228 -0.320187 0
M  V30 7 S 1.34994 0.269428 -0.866534 0
M  V30 8 O 1.66357 1.58974 -1.50885 0
M  V30 9 O 1.58222 -0.857895 -1.82293 0
M  V30 10 N 2.37225 0.0999724 0.504184 0
M  V30 11 H -0.235868 -2.69154 -0.0650162 0
M  V30 12 H 0.033217 -2.091 1.64398 0
M  V30 13 H -3.24491 1.54146 0.108013 0
M  V30 14 H -0.931886 2.24896 -0.975488 0
M  V30 15 H 2.61123 1.00945 0.953896 0
M  V30 16 H 2.02608 -0.610039 1.17562 0
M  V30 END ATOM
M  V30 BEGIN BOND
M  V30 1 1 1 2
M  V30 2 2 2 3
M  V30 3 1 3 4
M  V30 4 2 4 5
M  V30 5 1 5 6
M  V30 6 1 6 7
M  V30 7 2 7 8
M  V30 8 2 7 9
M  V30 9 1 7 10
M  V30 10 1 6 2
M  V30 11 1 1 11
M  V30 12 1 1 12
M  V30 13 1 4 13
M  V30 14 1 5 14
M  V30 15 1 10 15
M  V30 16 1 10 16
M  V30 END BOND
M  V30 END CTAB
M  END
