
     RDKit          3D

  0  0  0  0  0  0  0  0  0  0999 V3000
M  V30 BEGIN CTAB
M  V30 COUNTS 146 149 0 0 0
M  V30 BEGIN ATOM
M  V30 1 C -2.97526 -0.590559 3.90993 0
M  V30 2 C -1.72537 -1.28982 3.52553 0
M  V30 3 C -1.33559 -1.24823 2.08816 0 CFG=2
M  V30 4 C -0.0370154 -2.02212 1.94495 0
M  V30 5 C -1.16029 0.113761 1.48738 0 CFG=2
M  V30 6 N -0.176648 0.862727 2.19571 0
M  V30 7 C 1.00769 1.37548 1.62828 0
M  V30 8 O 1.15396 1.13525 0.383808 0
M  V30 9 C 2.06805 2.12909 2.26319 0 CFG=2
M  V30 10 C 1.71015 3.23467 3.17945 0
M  V30 11 C 0.909823 4.33634 2.68862 0
M  V30 12 C 1.49476 5.41432 2.06187 0
M  V30 13 C 0.793139 6.52231 1.61946 0
M  V30 14 C -0.579115 6.53932 1.82459 0
M  V30 15 O -1.28452 7.62679 1.39367 0
M  V30 16 C -1.17324 5.46133 2.45146 0
M  V30 17 C -0.458553 4.36838 2.88448 0
M  V30 18 N 3.1578 2.52509 1.37147 0
M  V30 19 C 4.50384 2.1976 1.62652 0
M  V30 20 O 4.68238 1.52934 2.70786 0
M  V30 21 C 5.68325 2.51735 0.837248 0 CFG=1
M  V30 22 N 6.6391 1.48527 0.604293 0
M  V30 23 C 6.62913 0.11615 0.88209 0
M  V30 24 O 5.66309 -0.450874 1.40648 0
M  V30 25 C 7.8393 -0.738422 0.53694 0 CFG=2
M  V30 26 C 8.30819 -0.549366 -0.848745 0
M  V30 27 C 9.54146 -1.41728 -1.09639 0
M  V30 28 C 10.0306 -1.18357 -2.50987 0
M  V30 29 N 11.2061 -1.92869 -2.7997 0
M  V30 30 C 11.1817 -3.33464 -2.9136 0
M  V30 31 N 10.4931 -3.90135 -4.0122 0
M  V30 32 N 11.7754 -4.10045 -2.04191 0
M  V30 33 N 7.50791 -2.08053 0.864717 0
M  V30 34 C 6.8529 -3.01037 0.0361262 0
M  V30 35 O 6.50237 -2.73447 -1.11929 0
M  V30 36 C 6.55997 -4.37202 0.568027 0 CFG=1
M  V30 37 N 5.74179 -5.11263 -0.414808 0
M  V30 38 C 7.76025 -5.21215 0.844217 0
M  V30 39 C 8.59105 -5.49859 -0.325034 0
M  V30 40 O 9.74607 -6.24975 -0.13275 0
M  V30 41 O 8.33498 -5.11831 -1.48165 0
M  V30 42 C 5.51567 3.36119 -0.36819 0
M  V30 43 C 4.9562 4.72106 -0.0205742 0
M  V30 44 C 4.69522 2.67037 -1.45233 0
M  V30 45 C -2.41923 0.800686 1.12581 0
M  V30 46 O -2.77865 1.7888 1.76412 0
M  V30 47 N -3.21646 0.333548 0.0458595 0
M  V30 48 C -4.47083 0.910314 -0.411648 0 CFG=1
M  V30 49 C -4.44705 2.34196 -0.72123 0
M  V30 50 C -3.49979 2.86549 -1.69501 0
M  V30 51 C -3.45888 4.18638 -2.06535 0
M  V30 52 N -2.48319 4.34537 -2.94585 0
M  V30 53 C -1.91805 3.13944 -3.13112 0
M  V30 54 N -2.54484 2.2288 -2.35834 0
M  V30 55 C -5.33672 0.00753522 -1.09615 0
M  V30 56 O -5.43595 -1.20764 -0.521111 0
M  V30 57 N -6.13849 0.0362086 -2.24862 0
M  V30 58 C -6.2537 1.14067 -3.16613 0
M  V30 59 C -6.85604 0.584029 -4.47133 0
M  V30 60 C -6.6856 -0.918753 -4.27693 0
M  V30 61 C -7.01312 -0.979913 -2.8021 0 CFG=2
M  V30 62 C -8.40424 -0.932624 -2.49493 0
M  V30 63 O -9.19613 -0.872973 -3.52662 0
M  V30 64 N -9.10678 -0.937627 -1.28916 0
M  V30 65 C -10.5456 -0.856688 -1.18639 0 CFG=1
M  V30 66 C -11.2525 -2.14494 -0.99156 0
M  V30 67 C -10.9276 -2.93611 0.1832 0
M  V30 68 C -11.5957 -2.77221 1.37577 0
M  V30 69 C -11.2552 -3.54495 2.47903 0
M  V30 70 C -10.2654 -4.46884 2.40297 0
M  V30 71 C -9.58082 -4.65578 1.23457 0
M  V30 72 C -9.93036 -3.87908 0.138643 0
M  V30 73 C -10.9319 0.114167 -0.14867 0
M  V30 74 O -12.2863 0.411325 0.100561 0
M  V30 75 O -10.0946 0.716184 0.550605 0
M  V30 76 H -3.35375 -1.11079 4.85366 0
M  V30 77 H -3.80959 -0.695563 3.20462 0
M  V30 78 H -2.81536 0.461438 4.27923 0
M  V30 79 H -0.902108 -0.956816 4.20702 0
M  V30 80 H -1.85682 -2.38539 3.80061 0
M  V30 81 H -2.09885 -1.85632 1.54281 0
M  V30 82 H 0.824055 -1.30817 1.91084 0
M  V30 83 H -0.0833158 -2.58169 1.00475 0
M  V30 84 H 0.068526 -2.73763 2.80644 0
M  V30 85 H -0.679904 -0.0784 0.458899 0
M  V30 86 H -0.319524 1.05995 3.22352 0
M  V30 87 H 2.60368 1.35644 2.95057 0
M  V30 88 H 1.22266 2.82305 4.11501 0
M  V30 89 H 2.70297 3.61493 3.60083 0
M  V30 90 H 2.58112 5.45138 1.88019 0
M  V30 91 H 1.28603 7.36921 1.12328 0
M  V30 92 H -1.7157 7.7995 0.521463 0
M  V30 93 H -2.24487 5.50653 2.59773 0
M  V30 94 H -0.983702 3.53152 3.37903 0
M  V30 95 H 2.90544 3.06237 0.527188 0
M  V30 96 H 6.3193 3.23028 1.56963 0
M  V30 97 H 7.53402 1.85985 0.11766 0
M  V30 98 H 8.65179 -0.363621 1.24531 0
M  V30 99 H 8.70299 0.529159 -0.953636 0
M  V30 100 H 7.60495 -0.688924 -1.65862 0
M  V30 101 H 10.3638 -1.13798 -0.380747 0
M  V30 102 H 9.34943 -2.49062 -0.968498 0
M  V30 103 H 9.22479 -1.50847 -3.21923 0
M  V30 104 H 10.1684 -0.0713038 -2.59155 0
M  V30 105 H 12.1142 -1.44668 -2.93728 0
M  V30 106 H 10.9957 -4.40971 -4.77195 0
M  V30 107 H 9.43417 -3.80509 -4.0615 0
M  V30 108 H 12.2748 -3.65814 -1.25129 0
M  V30 109 H 7.79541 -2.40638 1.86575 0
M  V30 110 H 5.94672 -4.26399 1.48115 0
M  V30 111 H 5.8368 -6.13971 -0.165958 0
M  V30 112 H 4.75294 -4.855 -0.211877 0
M  V30 113 H 8.32156 -4.7608 1.69173 0
M  V30 114 H 7.39771 -6.19584 1.26218 0
M  V30 115 H 10.379 -5.95057 0.610032 0
M  V30 116 H 6.51647 3.54111 -0.864235 0
M  V30 117 H 4.85807 4.86476 1.07332 0
M  V30 118 H 3.99717 4.85834 -0.569317 0
M  V30 119 H 5.64687 5.48845 -0.405397 0
M  V30 120 H 4.02842 3.4294 -1.91156 0
M  V30 121 H 4.16404 1.78487 -1.06643 0
M  V30 122 H 5.34749 2.31452 -2.30125 0
M  V30 123 H -2.878 -0.499591 -0.469773 0
M  V30 124 H -5.00659 0.975853 0.682742 0
M  V30 125 H -5.52003 2.63508 -0.973926 0
M  V30 126 H -4.28597 2.99082 0.214639 0
M  V30 127 H -4.10464 5.0042 -1.72295 0
M  V30 128 H -1.09237 2.88888 -3.7853 0
M  V30 129 H -2.3116 1.19536 -2.30193 0
M  V30 130 H -5.1806 1.35035 -3.48693 0
M  V30 131 H -6.79752 2.00192 -2.82259 0
M  V30 132 H -7.89377 0.907373 -4.57418 0
M  V30 133 H -6.25504 0.863089 -5.35876 0
M  V30 134 H -5.72357 -1.31619 -4.56377 0
M  V30 135 H -7.56271 -1.34763 -4.86496 0
M  V30 136 H -6.57248 -1.95467 -2.43484 0
M  V30 137 H -8.56078 -1.01054 -0.405006 0
M  V30 138 H -10.9731 -0.449397 -2.16051 0
M  V30 139 H -12.3643 -1.90545 -1.0212 0
M  V30 140 H -11.1094 -2.75985 -1.92978 0
M  V30 141 H -12.3905 -2.07516 1.5232 0
M  V30 142 H -11.7884 -3.40149 3.41146 0
M  V30 143 H -10.0312 -5.04924 3.28068 0
M  V30 144 H -8.80126 -5.39796 1.19458 0
M  V30 145 H -9.36689 -4.0527 -0.767211 0
M  V30 146 H -12.4887 1.39169 0.281316 0
M  V30 END ATOM
M  V30 BEGIN BOND
M  V30 1 1 1 2
M  V30 2 1 2 3
M  V30 3 1 3 4
M  V30 4 1 3 5
M  V30 5 1 5 6
M  V30 6 1 6 7
M  V30 7 2 7 8
M  V30 8 1 7 9
M  V30 9 1 9 10
M  V30 10 1 10 11
M  V30 11 2 11 12
M  V30 12 1 12 13
M  V30 13 2 13 14
M  V30 14 1 14 15
M  V30 15 1 14 16
M  V30 16 2 16 17
M  V30 17 1 9 18
M  V30 18 1 18 19
M  V30 19 2 19 20
M  V30 20 1 19 21
M  V30 21 1 21 22
M  V30 22 1 22 23
M  V30 23 2 23 24
M  V30 24 1 23 25
M  V30 25 1 25 26
M  V30 26 1 26 27
M  V30 27 1 27 28
M  V30 28 1 28 29
M  V30 29 1 29 30
M  V30 30 1 30 31
M  V30 31 2 30 32 CFG=2
M  V30 32 1 25 33
M  V30 33 1 33 34
M  V30 34 2 34 35
M  V30 35 1 34 36
M  V30 36 1 36 37
M  V30 37 1 36 38
M  V30 38 1 38 39
M  V30 39 1 39 40
M  V30 40 2 39 41
M  V30 41 1 21 42
M  V30 42 1 42 43
M  V30 43 1 42 44
M  V30 44 1 5 45
M  V30 45 2 45 46
M  V30 46 1 45 47
M  V30 47 1 47 48
M  V30 48 1 48 49
M  V30 49 1 49 50
M  V30 50 2 50 51
M  V30 51 1 51 52
M  V30 52 2 52 53
M  V30 53 1 53 54
M  V30 54 1 48 55
M  V30 55 2 55 56
M  V30 56 1 55 57
M  V30 57 1 57 58
M  V30 58 1 58 59
M  V30 59 1 59 60
M  V30 60 1 60 61
M  V30 61 1 61 62
M  V30 62 2 62 63
M  V30 63 1 62 64
M  V30 64 1 64 65
M  V30 65 1 65 66
M  V30 66 1 66 67
M  V30 67 2 67 68
M  V30 68 1 68 69
M  V30 69 2 69 70
M  V30 70 1 70 71
M  V30 71 2 71 72
M  V30 72 1 65 73
M  V30 73 1 73 74
M  V30 74 2 73 75
M  V30 75 1 17 11
M  V30 76 1 54 50
M  V30 77 1 61 57
M  V30 78 1 72 67
M  V30 79 1 1 76
M  V30 80 1 1 77
M  V30 81 1 1 78
M  V30 82 1 2 79
M  V30 83 1 2 80
M  V30 84 1 3 81 CFG=3
M  V30 85 1 4 82
M  V30 86 1 4 83
M  V30 87 1 4 84
M  V30 88 1 5 85 CFG=3
M  V30 89 1 6 86
M  V30 90 1 9 87 CFG=1
M  V30 91 1 10 88
M  V30 92 1 10 89
M  V30 93 1 12 90
M  V30 94 1 13 91
M  V30 95 1 15 92
M  V30 96 1 16 93
M  V30 97 1 17 94
M  V30 98 1 18 95
M  V30 99 1 21 96 CFG=1
M  V30 100 1 22 97
M  V30 101 1 25 98 CFG=1
M  V30 102 1 26 99
M  V30 103 1 26 100
M  V30 104 1 27 101
M  V30 105 1 27 102
M  V30 106 1 28 103
M  V30 107 1 28 104
M  V30 108 1 29 105
M  V30 109 1 31 106
M  V30 110 1 31 107
M  V30 111 1 32 108
M  V30 112 1 33 109
M  V30 113 1 36 110 CFG=1
M  V30 114 1 37 111
M  V30 115 1 37 112
M  V30 116 1 38 113
M  V30 117 1 38 114
M  V30 118 1 40 115
M  V30 119 1 42 116
M  V30 120 1 43 117
M  V30 121 1 43 118
M  V30 122 1 43 119
M  V30 123 1 44 120
M  V30 124 1 44 121
M  V30 125 1 44 122
M  V30 126 1 47 123
M  V30 127 1 48 124 CFG=1
M  V30 128 1 49 125
M  V30 129 1 49 126
M  V30 130 1 51 127
M  V30 131 1 53 128
M  V30 132 1 54 129
M  V30 133 1 58 130
M  V30 134 1 58 131
M  V30 135 1 59 132
M  V30 136 1 59 133
M  V30 137 1 60 134
M  V30 138 1 60 135
M  V30 139 1 61 136 CFG=1
M  V30 140 1 64 137
M  V30 141 1 65 138 CFG=3
M  V30 142 1 66 139
M  V30 143 1 66 140
M  V30 144 1 68 141
M  V30 145 1 69 142
M  V30 146 1 70 143
M  V30 147 1 71 144
M  V30 148 1 72 145
M  V30 149 1 74 146
M  V30 END BOND
M  V30 END CTAB
M  END
