
     RDKit          3D

  0  0  0  0  0  0  0  0  0  0999 V3000
M  V30 BEGIN CTAB
M  V30 COUNTS 40 41 0 0 0
M  V30 BEGIN ATOM
M  V30 1 N 1.25711 1.16498 5.27194 0
M  V30 2 C 1.045 0.645509 4.26279 0
M  V30 3 C 0.795078 -0.0177016 2.94671 0
M  V30 4 C -0.316238 -0.670505 2.80736 0
M  V30 5 N -0.77997 -1.36856 1.69007 0
M  V30 6 C -1.87529 -0.769981 0.957858 0
M  V30 7 C -2.3968 -1.38938 -0.158354 0
M  V30 8 C -3.43946 -0.845156 -0.877044 0
M  V30 9 C -4.00739 0.359298 -0.49782 0
M  V30 10 C -3.4801 0.973828 0.620809 0
M  V30 11 C -2.43711 0.427835 1.33837 0
M  V30 12 S -5.33152 1.05585 -1.40593 0
M  V30 13 O -5.30275 2.55438 -1.30326 0
M  V30 14 O -5.2925 0.637652 -2.84935 0
M  V30 15 N -6.80203 0.435221 -0.699697 0
M  V30 16 C 1.80258 0.118782 1.94193 0
M  V30 17 O 2.83465 0.815675 2.29413 0
M  V30 18 N 1.83607 -0.384218 0.649876 0
M  V30 19 C 2.91358 -0.168695 -0.295399 0
M  V30 20 C 3.67902 0.944641 -0.313634 0
M  V30 21 C 4.71314 1.03706 -1.24127 0
M  V30 22 C 5.01294 0.068286 -2.14845 0
M  V30 23 C 4.22465 -1.07188 -2.1272 0
M  V30 24 C 3.21054 -1.17714 -1.22618 0
M  V30 25 Cl 4.4945 -2.40502 -3.24041 0
M  V30 26 N 6.06792 0.166298 -3.09232 0
M  V30 27 H -0.99721 -0.685163 3.68085 0
M  V30 28 H -0.411244 -2.2739 1.37051 0
M  V30 29 H -1.96735 -2.33418 -0.474005 0
M  V30 30 H -3.8625 -1.32547 -1.76372 0
M  V30 31 H -3.93402 1.92441 0.913635 0
M  V30 32 H -2.05467 0.959103 2.22231 0
M  V30 33 H -6.98772 0.960346 0.190482 0
M  V30 34 H -7.61038 0.558028 -1.32611 0
M  V30 35 H 1.0782 -0.97731 0.210683 0
M  V30 36 H 3.50371 1.77408 0.352342 0
M  V30 37 H 5.30841 1.94692 -1.22604 0
M  V30 38 H 2.59018 -2.08233 -1.21456 0
M  V30 39 H 6.37903 -0.671686 -3.6167 0
M  V30 40 H 6.53995 1.09009 -3.2649 0
M  V30 END ATOM
M  V30 BEGIN BOND
M  V30 1 3 1 2
M  V30 2 1 2 3
M  V30 3 2 3 4
M  V30 4 1 4 5
M  V30 5 1 5 6
M  V30 6 2 6 7
M  V30 7 1 7 8
M  V30 8 2 8 9
M  V30 9 1 9 10
M  V30 10 2 10 11
M  V30 11 1 9 12
M  V30 12 2 12 13
M  V30 13 2 12 14
M  V30 14 1 12 15
M  V30 15 1 3 16
M  V30 16 2 16 17
M  V30 17 1 16 18
M  V30 18 1 18 19
M  V30 19 2 19 20
M  V30 20 1 20 21
M  V30 21 2 21 22
M  V30 22 1 22 23
M  V30 23 2 23 24
M  V30 24 1 23 25
M  V30 25 1 22 26
M  V30 26 1 11 6
M  V30 27 1 24 19
M  V30 28 1 4 27
M  V30 29 1 5 28
M  V30 30 1 7 29
M  V30 31 1 8 30
M  V30 32 1 10 31
M  V30 33 1 11 32
M  V30 34 1 15 33
M  V30 35 1 15 34
M  V30 36 1 18 35
M  V30 37 1 20 36
M  V30 38 1 21 37
M  V30 39 1 24 38
M  V30 40 1 26 39
M  V30 41 1 26 40
M  V30 END BOND
M  V30 END CTAB
M  END
