
     RDKit          3D

  0  0  0  0  0  0  0  0  0  0999 V3000
M  V30 BEGIN CTAB
M  V30 COUNTS 29 29 0 0 0
M  V30 BEGIN ATOM
M  V30 1 N 3.81634 -1.51939 0.347482 0
M  V30 2 C 2.57518 -1.32094 -0.386713 0
M  V30 3 C 2.57426 0.0842907 -0.905736 0
M  V30 4 S 1.1039 0.505737 -1.84105 0
M  V30 5 C -0.373496 0.533932 -0.876583 0
M  V30 6 C -0.837121 1.65992 -0.230692 0
M  V30 7 C -2.00399 1.57849 0.500123 0
M  V30 8 C -2.70925 0.373661 0.58741 0
M  V30 9 C -2.2549 -0.760291 -0.0548276 0
M  V30 10 C -1.09321 -0.653836 -0.774824 0
M  V30 11 C -3.01975 -2.04556 0.0467694 0
M  V30 12 N -3.91241 0.338009 1.35711 0
M  V30 13 C 2.84884 1.12288 0.158092 0
M  V30 14 H 3.93008 -0.771444 1.05864 0
M  V30 15 H 4.63524 -1.487 -0.291009 0
M  V30 16 H 2.50978 -1.9977 -1.25027 0
M  V30 17 H 1.75763 -1.52917 0.325676 0
M  V30 18 H 3.44212 0.151881 -1.62274 0
M  V30 19 H -0.264355 2.59102 -0.31591 0
M  V30 20 H -2.35812 2.46887 1.00151 0
M  V30 21 H -0.743877 -1.54752 -1.27613 0
M  V30 22 H -2.74357 -2.6131 0.948528 0
M  V30 23 H -2.78139 -2.61322 -0.897246 0
M  V30 24 H -4.11377 -1.86592 1.4526e-05 0
M  V30 25 H -4.27607 -0.551411 1.71547 0
M  V30 26 H -4.41884 1.22366 1.55199 0
M  V30 27 H 3.93382 1.15463 0.384798 0
M  V30 28 H 2.20707 1.02559 1.04564 0
M  V30 29 H 2.56986 2.11311 -0.305531 0
M  V30 END ATOM
M  V30 BEGIN BOND
M  V30 1 1 1 2
M  V30 2 1 2 3
M  V30 3 1 3 4
M  V30 4 1 4 5
M  V30 5 2 5 6
M  V30 6 1 6 7
M  V30 7 2 7 8
M  V30 8 1 8 9
M  V30 9 2 9 10
M  V30 10 1 9 11
M  V30 11 1 8 12
M  V30 12 1 3 13
M  V30 13 1 10 5
M  V30 14 1 1 14
M  V30 15 1 1 15
M  V30 16 1 2 16
M  V30 17 1 2 17
M  V30 18 1 3 18
M  V30 19 1 6 19
M  V30 20 1 7 20
M  V30 21 1 10 21
M  V30 22 1 11 22
M  V30 23 1 11 23
M  V30 24 1 11 24
M  V30 25 1 12 25
M  V30 26 1 12 26
M  V30 27 1 13 27
M  V30 28 1 13 28
M  V30 29 1 13 29
M  V30 END BOND
M  V30 END CTAB
M  END
