
     RDKit          3D

  0  0  0  0  0  0  0  0  0  0999 V3000
M  V30 BEGIN CTAB
M  V30 COUNTS 59 61 0 0 0
M  V30 BEGIN ATOM
M  V30 1 C 10.1462 0.695815 1.15756 0
M  V30 2 C 9.10504 1.77604 1.19695 0
M  V30 3 O 7.78997 1.3245 1.11234 0
M  V30 4 C 7.24103 0.614193 0.0845733 0
M  V30 5 O 7.94699 0.322052 -0.886501 0
M  V30 6 C 5.81255 0.213395 0.163073 0 CFG=1
M  V30 7 N 5.20201 0.668726 1.38886 0
M  V30 8 C 5.0175 0.853917 -0.977747 0
M  V30 9 C 3.6149 0.3941 -0.809769 0
M  V30 10 C 3.24348 -0.771184 -1.44264 0
M  V30 11 C 1.93689 -1.22716 -1.30415 0
M  V30 12 C 0.998495 -0.567954 -0.564226 0
M  V30 13 C 1.36954 0.589963 0.0639877 0
M  V30 14 C 2.68476 1.0701 -0.0616952 0
M  V30 15 C -0.365253 -1.12151 -0.470173 0
M  V30 16 N -0.660052 -2.27666 -1.12219 0
M  V30 17 C -1.86442 -2.81058 -1.06839 0
M  V30 18 N -2.19691 -4.0387 -1.7553 0
M  V30 19 N -2.83745 -2.24217 -0.375767 0
M  V30 20 C -2.62866 -1.10369 0.294027 0
M  V30 21 O -3.64807 -0.505862 1.02115 0
M  V30 22 C -4.93165 -1.07956 1.07525 0 CFG=2
M  V30 23 C -5.96647 -0.153844 0.531386 0
M  V30 24 C -5.94525 1.16332 0.903826 0
M  V30 25 C -6.92788 1.98983 0.373134 0
M  V30 26 C -7.89769 1.54764 -0.490798 0
M  V30 27 C -8.94193 2.45218 -1.04767 0
M  V30 28 C -7.88182 0.208496 -0.840736 0
M  V30 29 C -6.92132 -0.643272 -0.333827 0
M  V30 30 C -5.28806 -1.50804 2.48954 0
M  V30 31 F -4.33195 -2.44346 2.87491 0
M  V30 32 F -5.34748 -0.439008 3.35282 0
M  V30 33 F -6.50131 -2.15811 2.52558 0
M  V30 34 C -1.37542 -0.53319 0.247729 0
M  V30 35 H 10.15 0.131124 0.204918 0
M  V30 36 H 10.1009 0.026785 2.05159 0
M  V30 37 H 11.1357 1.19976 1.21755 0
M  V30 38 H 9.22554 2.31564 2.15971 0
M  V30 39 H 9.32386 2.4881 0.392418 0
M  V30 40 H 5.69609 -0.888752 0.135435 0
M  V30 41 H 5.15688 1.71234 1.44394 0
M  V30 42 H 5.70021 0.255217 2.21467 0
M  V30 43 H 5.42099 0.46275 -1.93822 0
M  V30 44 H 5.11805 1.93793 -0.974295 0
M  V30 45 H 3.97382 -1.30543 -2.03223 0
M  V30 46 H 1.6512 -2.14247 -1.80328 0
M  V30 47 H 0.668761 1.14438 0.656858 0
M  V30 48 H 2.95508 1.97869 0.438142 0
M  V30 49 H -1.80326 -4.13412 -2.71576 0
M  V30 50 H -2.78594 -4.72788 -1.27059 0
M  V30 51 H -4.92608 -2.0087 0.469795 0
M  V30 52 H -5.20896 1.58789 1.58376 0
M  V30 53 H -6.93202 3.02809 0.650675 0
M  V30 54 H -8.40103 3.22436 -1.64881 0
M  V30 55 H -9.6783 1.88868 -1.62551 0
M  V30 56 H -9.42652 3.01913 -0.212114 0
M  V30 57 H -8.6376 -0.176335 -1.5249 0
M  V30 58 H -6.95686 -1.67536 -0.640222 0
M  V30 59 H -1.1709 0.397845 0.784249 0
M  V30 END ATOM
M  V30 BEGIN BOND
M  V30 1 1 1 2
M  V30 2 1 2 3
M  V30 3 1 3 4
M  V30 4 2 4 5
M  V30 5 1 4 6
M  V30 6 1 6 7
M  V30 7 1 6 8
M  V30 8 1 8 9
M  V30 9 2 9 10
M  V30 10 1 10 11
M  V30 11 2 11 12
M  V30 12 1 12 13
M  V30 13 2 13 14
M  V30 14 1 12 15
M  V30 15 2 15 16
M  V30 16 1 16 17
M  V30 17 1 17 18
M  V30 18 2 17 19
M  V30 19 1 19 20
M  V30 20 1 20 21
M  V30 21 1 21 22
M  V30 22 1 22 23
M  V30 23 2 23 24
M  V30 24 1 24 25
M  V30 25 2 25 26
M  V30 26 1 26 27
M  V30 27 1 26 28
M  V30 28 2 28 29
M  V30 29 1 22 30
M  V30 30 1 30 31
M  V30 31 1 30 32
M  V30 32 1 30 33
M  V30 33 2 20 34
M  V30 34 1 14 9
M  V30 35 1 34 15
M  V30 36 1 29 23
M  V30 37 1 1 35
M  V30 38 1 1 36
M  V30 39 1 1 37
M  V30 40 1 2 38
M  V30 41 1 2 39
M  V30 42 1 6 40 CFG=3
M  V30 43 1 7 41
M  V30 44 1 7 42
M  V30 45 1 8 43
M  V30 46 1 8 44
M  V30 47 1 10 45
M  V30 48 1 11 46
M  V30 49 1 13 47
M  V30 50 1 14 48
M  V30 51 1 18 49
M  V30 52 1 18 50
M  V30 53 1 22 51 CFG=3
M  V30 54 1 24 52
M  V30 55 1 25 53
M  V30 56 1 27 54
M  V30 57 1 27 55
M  V30 58 1 27 56
M  V30 59 1 28 57
M  V30 60 1 29 58
M  V30 61 1 34 59
M  V30 END BOND
M  V30 END CTAB
M  END
