
     RDKit          3D

  0  0  0  0  0  0  0  0  0  0999 V3000
M  V30 BEGIN CTAB
M  V30 COUNTS 22 22 0 0 0
M  V30 BEGIN ATOM
M  V30 1 O 3.04248 1.0085 0.739342 0
M  V30 2 C 2.36255 0.136291 -0.0514057 0
M  V30 3 O 2.67889 -1.10858 -0.088886 0
M  V30 4 C 1.21964 0.536804 -0.908175 0
M  V30 5 C -0.0748862 0.0964164 -0.35634 0
M  V30 6 C -0.635296 0.973192 0.587906 0
M  V30 7 N -0.00496988 2.22266 0.912888 0
M  V30 8 C -1.80824 0.658567 1.1955 0
M  V30 9 C -2.41982 -0.545168 0.853206 0
M  V30 10 C -1.89004 -1.4361 -0.078507 0
M  V30 11 C -0.681318 -1.06925 -0.677339 0
M  V30 12 N -0.126086 -1.99121 -1.62208 0
M  V30 13 Br -2.79138 -3.05978 -0.479485 0
M  V30 14 H 3.57296 0.697815 1.57861 0
M  V30 15 H 1.21744 1.65335 -1.07666 0
M  V30 16 H 1.32409 0.0804256 -1.91062 0
M  V30 17 H 0.51464 2.28655 1.80534 0
M  V30 18 H -0.0567491 3.05719 0.274154 0
M  V30 19 H -2.25497 1.33052 1.93002 0
M  V30 20 H -3.34715 -0.849002 1.30672 0
M  V30 21 H 0.196397 -2.94291 -1.30926 0
M  V30 22 H -0.0381958 -1.73628 -2.62494 0
M  V30 END ATOM
M  V30 BEGIN BOND
M  V30 1 1 1 2
M  V30 2 2 2 3
M  V30 3 1 2 4
M  V30 4 1 4 5
M  V30 5 2 5 6
M  V30 6 1 6 7
M  V30 7 1 6 8
M  V30 8 2 8 9
M  V30 9 1 9 10
M  V30 10 2 10 11
M  V30 11 1 11 12
M  V30 12 1 10 13
M  V30 13 1 11 5
M  V30 14 1 1 14
M  V30 15 1 4 15
M  V30 16 1 4 16
M  V30 17 1 7 17
M  V30 18 1 7 18
M  V30 19 1 8 19
M  V30 20 1 9 20
M  V30 21 1 12 21
M  V30 22 1 12 22
M  V30 END BOND
M  V30 END CTAB
M  END
