
     RDKit          3D

  0  0  0  0  0  0  0  0  0  0999 V3000
M  V30 BEGIN CTAB
M  V30 COUNTS 25 24 0 0 0
M  V30 BEGIN ATOM
M  V30 1 C 1.31237 1.31322 -1.3999 0
M  V30 2 C 0.471758 0.237881 -0.766285 0
M  V30 3 C 0.970902 -0.131618 0.611118 0
M  V30 4 C 2.35435 -0.727047 0.58088 0
M  V30 5 O 3.31002 0.173686 0.134057 0
M  V30 6 O 0.97695 0.948615 1.45728 0
M  V30 7 N -0.877826 0.739244 -0.614913 0
M  V30 8 C -1.9227 -0.022407 -0.0508642 0
M  V30 9 N -2.16557 -0.0645877 1.21537 0
M  V30 10 N -3.20597 -0.826544 1.74689 0
M  V30 11 N -2.74371 -0.777876 -0.929113 0
M  V30 12 H 1.66185 2.08017 -0.692771 0
M  V30 13 H 2.13808 0.820112 -1.96083 0
M  V30 14 H 0.674225 1.83752 -2.15285 0
M  V30 15 H 0.431583 -0.618842 -1.44783 0
M  V30 16 H 0.286788 -0.893086 1.03864 0
M  V30 17 H 2.38372 -1.68305 0.0115452 0
M  V30 18 H 2.61639 -0.987064 1.62748 0
M  V30 19 H 4.06769 -0.35844 -0.21871 0
M  V30 20 H 1.72335 1.56961 1.31645 0
M  V30 21 H -1.11946 1.70181 -0.927019 0
M  V30 22 H -4.04887 -0.350095 2.15969 0
M  V30 23 H -3.20934 -1.86296 1.76542 0
M  V30 24 H -2.48252 -1.76052 -1.15032 0
M  V30 25 H -3.60406 -0.357747 -1.35342 0
M  V30 END ATOM
M  V30 BEGIN BOND
M  V30 1 1 1 2
M  V30 2 1 2 3
M  V30 3 1 3 4
M  V30 4 1 4 5
M  V30 5 1 3 6
M  V30 6 1 2 7
M  V30 7 1 7 8
M  V30 8 2 8 9 CFG=2
M  V30 9 1 9 10
M  V30 10 1 8 11
M  V30 11 1 1 12
M  V30 12 1 1 13
M  V30 13 1 1 14
M  V30 14 1 2 15
M  V30 15 1 3 16
M  V30 16 1 4 17
M  V30 17 1 4 18
M  V30 18 1 5 19
M  V30 19 1 6 20
M  V30 20 1 7 21
M  V30 21 1 10 22
M  V30 22 1 10 23
M  V30 23 1 11 24
M  V30 24 1 11 25
M  V30 END BOND
M  V30 END CTAB
M  END
