
     RDKit          3D

  0  0  0  0  0  0  0  0  0  0999 V3000
M  V30 BEGIN CTAB
M  V30 COUNTS 25 26 0 0 0
M  V30 BEGIN ATOM
M  V30 1 N -1.64329 -0.853979 2.18561 0
M  V30 2 C -1.87635 -0.265706 0.934168 0
M  V30 3 C -3.14811 0.117854 0.578969 0
M  V30 4 C -3.33911 0.692327 -0.658157 0
M  V30 5 C -2.25277 0.870491 -1.51319 0
M  V30 6 C -0.987137 0.486435 -1.15433 0
M  V30 7 C -0.779737 -0.0901746 0.0809448 0
M  V30 8 C 0.489372 -0.489109 0.47244 0
M  V30 9 C 1.58854 -0.328999 -0.346525 0
M  V30 10 C 1.36461 0.249447 -1.5792 0
M  V30 11 C 0.101699 0.652711 -1.98317 0
M  V30 12 S 3.18045 -0.842674 0.174943 0
M  V30 13 N 3.97919 0.466495 0.996073 0
M  V30 14 O 4.02701 -1.17307 -1.03097 0
M  V30 15 O 3.12587 -2.06715 1.03068 0
M  V30 16 H -1.53184 -0.242026 3.01714 0
M  V30 17 H -1.58397 -1.88612 2.2739 0
M  V30 18 H -3.96877 -0.0356689 1.26826 0
M  V30 19 H -4.33609 1.01246 -0.981146 0
M  V30 20 H -2.37716 1.31907 -2.48939 0
M  V30 21 H 0.598199 -0.941684 1.46419 0
M  V30 22 H 2.21728 0.377292 -2.22284 0
M  V30 23 H -0.0769144 1.10752 -2.95133 0
M  V30 24 H 3.71042 1.33558 0.48722 0
M  V30 25 H 3.51862 0.528674 1.9457 0
M  V30 END ATOM
M  V30 BEGIN BOND
M  V30 1 1 1 2
M  V30 2 2 2 3
M  V30 3 1 3 4
M  V30 4 2 4 5
M  V30 5 1 5 6
M  V30 6 2 6 7
M  V30 7 1 7 8
M  V30 8 2 8 9
M  V30 9 1 9 10
M  V30 10 2 10 11
M  V30 11 1 9 12
M  V30 12 1 12 13
M  V30 13 2 12 14
M  V30 14 2 12 15
M  V30 15 1 7 2
M  V30 16 1 11 6
M  V30 17 1 1 16
M  V30 18 1 1 17
M  V30 19 1 3 18
M  V30 20 1 4 19
M  V30 21 1 5 20
M  V30 22 1 8 21
M  V30 23 1 10 22
M  V30 24 1 11 23
M  V30 25 1 13 24
M  V30 26 1 13 25
M  V30 END BOND
M  V30 END CTAB
M  END
