
     RDKit          3D

  0  0  0  0  0  0  0  0  0  0999 V3000
M  V30 BEGIN CTAB
M  V30 COUNTS 37 38 0 0 0
M  V30 BEGIN ATOM
M  V30 1 N 5.24609 0.593664 0.0317451 0
M  V30 2 C 3.93368 1.02219 0.420117 0
M  V30 3 C 2.88156 0.0483534 -0.00043503 0
M  V30 4 C 3.23294 -1.20075 -0.450778 0
M  V30 5 C 2.23165 -2.05888 -0.852558 0
M  V30 6 C 0.911464 -1.63819 -0.790636 0
M  V30 7 C 0.509327 -0.389554 -0.343033 0
M  V30 8 C 1.53343 0.445072 0.0527873 0
M  V30 9 C -0.85226 0.0947666 -0.333183 0
M  V30 10 C -1.01449 1.25323 0.602975 0
M  V30 11 C -2.20722 2.11455 0.210496 0
M  V30 12 N -3.14082 1.33342 -0.513827 0
M  V30 13 C -3.27925 -0.0185057 -0.0608074 0
M  V30 14 C -1.9862 -0.830277 -0.20437 0
M  V30 15 C -3.87958 -0.110897 1.32158 0
M  V30 16 N -0.0457906 -2.55051 -1.20795 0
M  V30 17 H 5.56192 -0.232157 0.561691 0
M  V30 18 H 5.903 1.37816 0.239352 0
M  V30 19 H 3.86226 1.13936 1.52783 0
M  V30 20 H 3.69412 1.97669 -0.0873535 0
M  V30 21 H 4.26486 -1.512 -0.495441 0
M  V30 22 H 2.47826 -3.05078 -1.2072 0
M  V30 23 H 1.43044 1.45228 0.424798 0
M  V30 24 H -0.981182 0.581864 -1.37889 0
M  V30 25 H -0.184592 1.93164 0.741113 0
M  V30 26 H -1.24916 0.887324 1.6614 0
M  V30 27 H -2.64325 2.57345 1.11667 0
M  V30 28 H -1.81278 2.91929 -0.456399 0
M  V30 29 H -3.07569 1.42599 -1.53832 0
M  V30 30 H -4.09303 -0.440132 -0.73959 0
M  V30 31 H -1.90579 -1.44974 0.692371 0
M  V30 32 H -2.19379 -1.43188 -1.14495 0
M  V30 33 H -3.71569 -1.12291 1.74811 0
M  V30 34 H -5.00551 -0.0296603 1.23176 0
M  V30 35 H -3.58439 0.691614 2.00239 0
M  V30 36 H -0.198959 -2.68509 -2.23025 0
M  V30 37 H -0.625569 -3.11102 -0.551201 0
M  V30 END ATOM
M  V30 BEGIN BOND
M  V30 1 1 1 2
M  V30 2 1 2 3
M  V30 3 2 3 4
M  V30 4 1 4 5
M  V30 5 2 5 6
M  V30 6 1 6 7
M  V30 7 2 7 8
M  V30 8 1 7 9
M  V30 9 1 9 10
M  V30 10 1 10 11
M  V30 11 1 11 12
M  V30 12 1 12 13
M  V30 13 1 13 14
M  V30 14 1 13 15
M  V30 15 1 6 16
M  V30 16 1 8 3
M  V30 17 1 14 9
M  V30 18 1 1 17
M  V30 19 1 1 18
M  V30 20 1 2 19
M  V30 21 1 2 20
M  V30 22 1 4 21
M  V30 23 1 5 22
M  V30 24 1 8 23
M  V30 25 1 9 24
M  V30 26 1 10 25
M  V30 27 1 10 26
M  V30 28 1 11 27
M  V30 29 1 11 28
M  V30 30 1 12 29
M  V30 31 1 13 30
M  V30 32 1 14 31
M  V30 33 1 14 32
M  V30 34 1 15 33
M  V30 35 1 15 34
M  V30 36 1 15 35
M  V30 37 1 16 36
M  V30 38 1 16 37
M  V30 END BOND
M  V30 END CTAB
M  END
