
     RDKit          3D

  0  0  0  0  0  0  0  0  0  0999 V3000
M  V30 BEGIN CTAB
M  V30 COUNTS 20 20 0 0 0
M  V30 BEGIN ATOM
M  V30 1 C 3.09712 -0.356384 0.268816 0
M  V30 2 O 2.10181 -0.170138 -0.700283 0
M  V30 3 C 0.744335 -0.222985 -0.463136 0
M  V30 4 C 0.0924432 0.943401 -0.115647 0
M  V30 5 N 0.822619 2.16564 -0.00918803 0
M  V30 6 C -1.28211 0.950976 0.136451 0
M  V30 7 C -2.00793 -0.220469 0.0391609 0
M  V30 8 C -1.3142 -1.36714 -0.312089 0
M  V30 9 C 0.0221499 -1.38405 -0.559055 0
M  V30 10 F 0.715144 -2.508 -0.905733 0
M  V30 11 Cl -2.20061 -2.87122 -0.445276 0
M  V30 12 N -3.40343 -0.276392 0.282636 0
M  V30 13 H 3.23972 0.604366 0.811221 0
M  V30 14 H 4.05705 -0.592857 -0.224842 0
M  V30 15 H 2.82188 -1.1116 1.03444 0
M  V30 16 H 0.548091 2.86163 0.717525 0
M  V30 17 H 1.61626 2.33717 -0.661154 0
M  V30 18 H -1.79844 1.84714 0.406264 0
M  V30 19 H -3.99341 -0.807814 -0.387186 0
M  V30 20 H -3.87849 0.178715 1.08708 0
M  V30 END ATOM
M  V30 BEGIN BOND
M  V30 1 1 1 2
M  V30 2 1 2 3
M  V30 3 2 3 4
M  V30 4 1 4 5
M  V30 5 1 4 6
M  V30 6 2 6 7
M  V30 7 1 7 8
M  V30 8 2 8 9
M  V30 9 1 9 10
M  V30 10 1 8 11
M  V30 11 1 7 12
M  V30 12 1 9 3
M  V30 13 1 1 13
M  V30 14 1 1 14
M  V30 15 1 1 15
M  V30 16 1 5 16
M  V30 17 1 5 17
M  V30 18 1 6 18
M  V30 19 1 12 19
M  V30 20 1 12 20
M  V30 END BOND
M  V30 END CTAB
M  END
