
     RDKit          3D

  0  0  0  0  0  0  0  0  0  0999 V3000
M  V30 BEGIN CTAB
M  V30 COUNTS 28 28 0 0 0
M  V30 BEGIN ATOM
M  V30 1 C -3.65039 0.306962 1.40369 0
M  V30 2 C -2.33703 0.672418 0.74971 0
M  V30 3 C -1.65827 -0.56436 0.19829 0
M  V30 4 C -0.372179 -0.186673 -0.439121 0
M  V30 5 C -0.413994 0.356761 -1.70504 0
M  V30 6 C 0.804769 0.702355 -2.28143 0
M  V30 7 C 1.98128 0.498476 -1.59332 0
M  V30 8 C 2.02189 -0.044921 -0.327682 0
M  V30 9 C 0.80608 -0.390219 0.248552 0
M  V30 10 S 3.52346 -0.293539 0.523726 0
M  V30 11 O 3.38646 -1.47657 1.45001 0
M  V30 12 O 4.64024 -0.592918 -0.445801 0
M  V30 13 N 3.96795 1.07303 1.47169 0
M  V30 14 N -2.4681 -1.26399 -0.747268 0
M  V30 15 H -3.56235 0.352686 2.52593 0
M  V30 16 H -3.96155 -0.714465 1.08926 0
M  V30 17 H -4.39307 1.07039 1.13505 0
M  V30 18 H -1.69188 1.12306 1.53049 0
M  V30 19 H -2.51572 1.37752 -0.0737727 0
M  V30 20 H -1.49528 -1.24154 1.06774 0
M  V30 21 H -1.33609 0.521116 -2.25439 0
M  V30 22 H 0.804387 1.13639 -3.28654 0
M  V30 23 H 2.9358 0.764337 -2.03365 0
M  V30 24 H 0.836862 -0.818067 1.24488 0
M  V30 25 H 4.44804 1.77139 0.850031 0
M  V30 26 H 4.71838 0.751604 2.13966 0
M  V30 27 H -2.78333 -0.735018 -1.56302 0
M  V30 28 H -2.23635 -2.25087 -0.877672 0
M  V30 END ATOM
M  V30 BEGIN BOND
M  V30 1 1 1 2
M  V30 2 1 2 3
M  V30 3 1 3 4
M  V30 4 2 4 5
M  V30 5 1 5 6
M  V30 6 2 6 7
M  V30 7 1 7 8
M  V30 8 2 8 9
M  V30 9 1 8 10
M  V30 10 2 10 11
M  V30 11 2 10 12
M  V30 12 1 10 13
M  V30 13 1 3 14
M  V30 14 1 9 4
M  V30 15 1 1 15
M  V30 16 1 1 16
M  V30 17 1 1 17
M  V30 18 1 2 18
M  V30 19 1 2 19
M  V30 20 1 3 20
M  V30 21 1 5 21
M  V30 22 1 6 22
M  V30 23 1 7 23
M  V30 24 1 9 24
M  V30 25 1 13 25
M  V30 26 1 13 26
M  V30 27 1 14 27
M  V30 28 1 14 28
M  V30 END BOND
M  V30 END CTAB
M  END
