
     RDKit          3D

  0  0  0  0  0  0  0  0  0  0999 V3000
M  V30 BEGIN CTAB
M  V30 COUNTS 30 31 0 0 0
M  V30 BEGIN ATOM
M  V30 1 N 3.81339 0.480816 1.1038 0
M  V30 2 C 3.41602 0.749967 -0.218117 0
M  V30 3 N 2.39462 0.208851 -0.768587 0
M  V30 4 C 1.59018 -0.717063 -0.0488173 0
M  V30 5 C 2.09594 -1.79216 0.651845 0
M  V30 6 C 1.2617 -2.66457 1.34429 0
M  V30 7 C -0.105924 -2.49873 1.36431 0
M  V30 8 C -0.626578 -1.42903 0.668754 0
M  V30 9 C 0.197316 -0.566596 -0.0156187 0
M  V30 10 O -1.99993 -1.25698 0.685027 0
M  V30 11 C -2.63118 -0.208901 0.0163836 0
M  V30 12 C -2.85998 1.00109 0.635254 0
M  V30 13 C -3.48598 2.0567 -0.0112682 0
M  V30 14 C -3.9039 1.9023 -1.3341 0
M  V30 15 C -3.68191 0.697193 -1.96666 0
M  V30 16 C -3.05178 -0.339768 -1.28953 0
M  V30 17 N 4.22174 1.68574 -0.955862 0
M  V30 18 H 4.81834 0.354251 1.35376 0
M  V30 19 H 3.09482 0.402994 1.86333 0
M  V30 20 H 3.16537 -1.96029 0.657842 0
M  V30 21 H 1.68927 -3.50473 1.88908 0
M  V30 22 H -0.729929 -3.19588 1.91347 0
M  V30 23 H -0.202059 0.281359 -0.568325 0
M  V30 24 H -2.55532 1.17246 1.65984 0
M  V30 25 H -3.66959 3.00894 0.46633 0
M  V30 26 H -4.39925 2.73412 -1.84962 0
M  V30 27 H -4.01798 0.610477 -2.99252 0
M  V30 28 H -2.88035 -1.27954 -1.78793 0
M  V30 29 H 4.27017 1.64009 -1.9961 0
M  V30 30 H 4.77279 2.42693 -0.470266 0
M  V30 END ATOM
M  V30 BEGIN BOND
M  V30 1 1 1 2
M  V30 2 2 2 3 CFG=2
M  V30 3 1 3 4
M  V30 4 2 4 5
M  V30 5 1 5 6
M  V30 6 2 6 7
M  V30 7 1 7 8
M  V30 8 2 8 9
M  V30 9 1 8 10
M  V30 10 1 10 11
M  V30 11 2 11 12
M  V30 12 1 12 13
M  V30 13 2 13 14
M  V30 14 1 14 15
M  V30 15 2 15 16
M  V30 16 1 2 17
M  V30 17 1 9 4
M  V30 18 1 16 11
M  V30 19 1 1 18
M  V30 20 1 1 19
M  V30 21 1 5 20
M  V30 22 1 6 21
M  V30 23 1 7 22
M  V30 24 1 9 23
M  V30 25 1 12 24
M  V30 26 1 13 25
M  V30 27 1 14 26
M  V30 28 1 15 27
M  V30 29 1 16 28
M  V30 30 1 17 29
M  V30 31 1 17 30
M  V30 END BOND
M  V30 END CTAB
M  END
