
     RDKit          3D

  0  0  0  0  0  0  0  0  0  0999 V3000
M  V30 BEGIN CTAB
M  V30 COUNTS 35 36 0 0 0
M  V30 BEGIN ATOM
M  V30 1 N -5.92264 0.570461 -0.639468 0
M  V30 2 C -4.50519 0.483383 -0.488378 0
M  V30 3 C -3.68213 1.56046 -0.72804 0
M  V30 4 C -2.32583 1.46783 -0.582372 0
M  V30 5 C -1.66603 0.292373 -0.184366 0
M  V30 6 C -2.5178 -0.763306 0.0494169 0
M  V30 7 C -3.90834 -0.686666 -0.0959229 0
M  V30 8 C -0.244773 0.315522 0.0464128 0
M  V30 9 O 0.163096 1.54482 0.372269 0
M  V30 10 N 0.75186 -0.653847 -0.00130242 0
M  V30 11 C 2.04436 -0.168024 0.559795 0
M  V30 12 C 2.50897 -0.713113 1.70895 0
M  V30 13 C 3.72029 -0.258939 2.23557 0
M  V30 14 C 4.43036 0.731543 1.59063 0
M  V30 15 C 3.91772 1.26024 0.418479 0
M  V30 16 C 2.718 0.804279 -0.0950363 0
M  V30 17 N 4.61447 2.28728 -0.287059 0
M  V30 18 C 0.86325 -1.93114 -0.513407 0
M  V30 19 O 2.0051 -2.5452 -0.351062 0
M  V30 20 C -0.100792 -2.75126 -1.24345 0
M  V30 21 H -6.43711 1.47921 -0.598268 0
M  V30 22 H -6.43736 -0.317511 -0.795021 0
M  V30 23 H -4.14172 2.50795 -1.04239 0
M  V30 24 H -1.69948 2.31918 -0.778396 0
M  V30 25 H -2.11618 -1.69813 0.421795 0
M  V30 26 H -4.54074 -1.5418 0.0963394 0
M  V30 27 H 1.99357 -1.49885 2.26511 0
M  V30 28 H 4.097 -0.693427 3.15726 0
M  V30 29 H 5.36895 1.08099 2.00237 0
M  V30 30 H 2.32843 1.23614 -1.02534 0
M  V30 31 H 5.16389 2.04619 -1.13673 0
M  V30 32 H 4.54445 3.25216 0.0818189 0
M  V30 33 H 0.428047 -3.51951 -1.90457 0
M  V30 34 H -0.719345 -3.32209 -0.529613 0
M  V30 35 H -0.696365 -2.17721 -1.98603 0
M  V30 END ATOM
M  V30 BEGIN BOND
M  V30 1 1 1 2
M  V30 2 2 2 3
M  V30 3 1 3 4
M  V30 4 2 4 5
M  V30 5 1 5 6
M  V30 6 2 6 7
M  V30 7 1 5 8
M  V30 8 2 8 9
M  V30 9 1 8 10
M  V30 10 1 10 11
M  V30 11 2 11 12
M  V30 12 1 12 13
M  V30 13 2 13 14
M  V30 14 1 14 15
M  V30 15 2 15 16
M  V30 16 1 15 17
M  V30 17 1 10 18
M  V30 18 2 18 19
M  V30 19 1 18 20
M  V30 20 1 7 2
M  V30 21 1 16 11
M  V30 22 1 1 21
M  V30 23 1 1 22
M  V30 24 1 3 23
M  V30 25 1 4 24
M  V30 26 1 6 25
M  V30 27 1 7 26
M  V30 28 1 12 27
M  V30 29 1 13 28
M  V30 30 1 14 29
M  V30 31 1 16 30
M  V30 32 1 17 31
M  V30 33 1 17 32
M  V30 34 1 20 33
M  V30 35 1 20 34
M  V30 36 1 20 35
M  V30 END BOND
M  V30 END CTAB
M  END
