
     RDKit          3D

  0  0  0  0  0  0  0  0  0  0999 V3000
M  V30 BEGIN CTAB
M  V30 COUNTS 29 31 0 0 0
M  V30 BEGIN ATOM
M  V30 1 N 2.18365 -0.962047 -2.42359 0
M  V30 2 C 2.82887 -0.756064 -1.18024 0
M  V30 3 N 4.05669 -1.27881 -1.0147 0
M  V30 4 C 4.75165 -1.13764 0.1304 0
M  V30 5 N 4.21595 -0.454555 1.15279 0
M  V30 6 C 2.97438 0.106672 1.06389 0
M  V30 7 N 2.44345 0.821381 2.16795 0
M  V30 8 C 2.29251 -0.0578955 -0.122328 0
M  V30 9 N 1.01194 0.505217 -0.251933 0
M  V30 10 C -0.192235 -0.1599 0.0840149 0
M  V30 11 O -0.122319 -1.32756 0.526779 0
M  V30 12 C -1.46351 0.523805 -0.0924158 0
M  V30 13 N -1.55581 1.77861 -0.567047 0
M  V30 14 C -2.70294 2.44425 -0.744908 0
M  V30 15 N -3.86068 1.83474 -0.43342 0
M  V30 16 C -3.84194 0.584497 0.0444095 0
M  V30 17 C -2.66475 -0.107138 0.230211 0
M  V30 18 N -2.91645 -1.32372 0.713348 0
M  V30 19 C -4.2532 -1.41105 0.836783 0
M  V30 20 N -4.83012 -0.265418 0.436608 0
M  V30 21 H 2.16174 -1.91774 -2.84189 0
M  V30 22 H 1.71598 -0.202695 -2.96458 0
M  V30 23 H 5.74815 -1.57375 0.23623 0
M  V30 24 H 2.15143 0.356739 3.04991 0
M  V30 25 H 2.33898 1.85362 2.09963 0
M  V30 26 H 0.985104 1.49715 -0.630274 0
M  V30 27 H -2.76854 3.45281 -1.12698 0
M  V30 28 H -4.84002 -2.25527 1.19979 0
M  V30 29 H -5.84799 -0.0473848 0.421566 0
M  V30 END ATOM
M  V30 BEGIN BOND
M  V30 1 1 1 2
M  V30 2 2 2 3
M  V30 3 1 3 4
M  V30 4 2 4 5
M  V30 5 1 5 6
M  V30 6 1 6 7
M  V30 7 2 6 8
M  V30 8 1 8 9
M  V30 9 1 9 10
M  V30 10 2 10 11
M  V30 11 1 10 12
M  V30 12 2 12 13
M  V30 13 1 13 14
M  V30 14 2 14 15
M  V30 15 1 15 16
M  V30 16 2 16 17
M  V30 17 1 17 18
M  V30 18 2 18 19
M  V30 19 1 19 20
M  V30 20 1 8 2
M  V30 21 1 17 12
M  V30 22 1 20 16
M  V30 23 1 1 21
M  V30 24 1 1 22
M  V30 25 1 4 23
M  V30 26 1 7 24
M  V30 27 1 7 25
M  V30 28 1 9 26
M  V30 29 1 14 27
M  V30 30 1 19 28
M  V30 31 1 20 29
M  V30 END BOND
M  V30 END CTAB
M  END
