
     RDKit          3D

  0  0  0  0  0  0  0  0  0  0999 V3000
M  V30 BEGIN CTAB
M  V30 COUNTS 26 26 0 0 0
M  V30 BEGIN ATOM
M  V30 1 C 4.80382 0.131489 -0.256609 0
M  V30 2 C 3.6498 -0.842828 -0.13459 0
M  V30 3 C 2.35746 -0.0183278 -0.139547 0
M  V30 4 S 1.005 -1.2153 0.00704012 0
M  V30 5 C -0.547095 -0.297493 0.00660926 0
M  V30 6 C -1.75922 -0.92961 0.105514 0
M  V30 7 C -2.9448 -0.220542 0.104623 0
M  V30 8 N -4.21137 -0.841109 0.205012 0
M  V30 9 N -4.4117 -2.21481 0.314567 0
M  V30 10 N -2.85987 1.11404 0.00278764 0
M  V30 11 C -1.69125 1.77425 -0.0963008 0
M  V30 12 N -0.561587 1.04726 -0.0916753 0
M  V30 13 N -1.63514 3.19266 -0.203058 0
M  V30 14 H 4.81997 0.736081 0.678502 0
M  V30 15 H 4.6048 0.787335 -1.12383 0
M  V30 16 H 5.74 -0.444629 -0.351807 0
M  V30 17 H 3.77573 -1.36007 0.832575 0
M  V30 18 H 3.57873 -1.54671 -0.96552 0
M  V30 19 H 2.38153 0.67289 0.734588 0
M  V30 20 H 2.28857 0.60754 -1.04021 0
M  V30 21 H -1.7805 -2.01487 0.186255 0
M  V30 22 H -5.05643 -0.240598 0.197492 0
M  V30 23 H -4.55498 -2.69252 -0.587446 0
M  V30 24 H -3.79196 -2.68797 0.97813 0
M  V30 25 H -1.06895 3.7732 0.480441 0
M  V30 26 H -2.13057 3.73064 -0.93524 0
M  V30 END ATOM
M  V30 BEGIN BOND
M  V30 1 1 1 2
M  V30 2 1 2 3
M  V30 3 1 3 4
M  V30 4 1 4 5
M  V30 5 2 5 6
M  V30 6 1 6 7
M  V30 7 1 7 8
M  V30 8 1 8 9
M  V30 9 2 7 10
M  V30 10 1 10 11
M  V30 11 2 11 12
M  V30 12 1 11 13
M  V30 13 1 12 5
M  V30 14 1 1 14
M  V30 15 1 1 15
M  V30 16 1 1 16
M  V30 17 1 2 17
M  V30 18 1 2 18
M  V30 19 1 3 19
M  V30 20 1 3 20
M  V30 21 1 6 21
M  V30 22 1 8 22
M  V30 23 1 9 23
M  V30 24 1 9 24
M  V30 25 1 13 25
M  V30 26 1 13 26
M  V30 END BOND
M  V30 END CTAB
M  END
