
     RDKit          3D

  0  0  0  0  0  0  0  0  0  0999 V3000
M  V30 BEGIN CTAB
M  V30 COUNTS 56 59 0 0 0
M  V30 BEGIN ATOM
M  V30 1 N 3.51406 3.03795 -3.48237 0
M  V30 2 C 2.49129 2.45916 -2.67146 0
M  V30 3 N 2.76309 1.56877 -1.70226 0
M  V30 4 C 1.80344 1.02206 -0.938071 0
M  V30 5 C 2.11568 0.0539206 0.135683 0
M  V30 6 O 3.49785 -0.131309 0.156609 0
M  V30 7 C 3.87311 -1.02648 1.1763 0
M  V30 8 C 5.34628 -1.16277 1.1559 0
M  V30 9 C 6.06392 -1.41098 2.30158 0
M  V30 10 C 7.45324 -1.53678 2.27865 0
M  V30 11 Cl 8.35758 -1.85184 3.75655 0
M  V30 12 C 8.1478 -1.41559 1.10341 0
M  V30 13 C 7.42942 -1.16732 -0.0418043 0
M  V30 14 C 6.07439 -1.04289 -0.0321412 0
M  V30 15 C 0.475332 1.35706 -1.11948 0
M  V30 16 C 0.195455 2.27256 -2.115 0
M  V30 17 N -1.15062 2.63349 -2.32324 0
M  V30 18 N 1.20681 2.7994 -2.86437 0
M  V30 19 C -0.568567 0.749321 -0.304471 0
M  V30 20 C -1.30392 -0.331927 -0.724003 0
M  V30 21 C -2.2866 -0.908133 0.0776865 0
M  V30 22 C -2.57493 -0.425165 1.33435 0
M  V30 23 N -3.55888 -0.953973 2.17737 0
M  V30 24 C -4.61535 -1.80273 1.72824 0
M  V30 25 C -5.65536 -1.14051 0.917511 0
M  V30 26 C -6.5077 -0.203988 1.51986 0
M  V30 27 C -7.51075 0.436047 0.830315 0
M  V30 28 C -7.70837 0.168118 -0.499177 0
M  V30 29 Cl -9.00453 1.00402 -1.35484 0
M  V30 30 C -6.89735 -0.741792 -1.1298 0
M  V30 31 C -5.89089 -1.37507 -0.410532 0
M  V30 32 C -1.82088 0.680398 1.75983 0
M  V30 33 C -0.853958 1.2371 0.955462 0
M  V30 34 H 4.13089 2.4754 -4.10888 0
M  V30 35 H 3.65544 4.08864 -3.44839 0
M  V30 36 H 1.67315 -0.92243 -0.09219 0
M  V30 37 H 1.84693 0.4381 1.14699 0
M  V30 38 H 3.53496 -0.666839 2.16761 0
M  V30 39 H 3.41395 -2.00696 0.92679 0
M  V30 40 H 5.56945 -1.51678 3.25132 0
M  V30 41 H 9.22181 -1.51102 1.07502 0
M  V30 42 H 7.96184 -1.06872 -0.986385 0
M  V30 43 H 5.46594 -0.845963 -0.925545 0
M  V30 44 H -1.76503 1.99965 -2.88985 0
M  V30 45 H -1.57579 3.49731 -1.94546 0
M  V30 46 H -1.13574 -0.756727 -1.68433 0
M  V30 47 H -2.84231 -1.77313 -0.288893 0
M  V30 48 H -3.50905 -0.706484 3.21002 0
M  V30 49 H -5.15471 -2.19454 2.64164 0
M  V30 50 H -4.22284 -2.66433 1.12811 0
M  V30 51 H -6.3483 0.0132852 2.58932 0
M  V30 52 H -8.15139 1.15524 1.32902 0
M  V30 53 H -7.0648 -0.947589 -2.19208 0
M  V30 54 H -5.26686 -2.08369 -0.923574 0
M  V30 55 H -2.04764 1.06021 2.75312 0
M  V30 56 H -0.289983 2.08725 1.31498 0
M  V30 END ATOM
M  V30 BEGIN BOND
M  V30 1 1 1 2
M  V30 2 2 2 3
M  V30 3 1 3 4
M  V30 4 1 4 5
M  V30 5 1 5 6
M  V30 6 1 6 7
M  V30 7 1 7 8
M  V30 8 2 8 9
M  V30 9 1 9 10
M  V30 10 1 10 11
M  V30 11 2 10 12
M  V30 12 1 12 13
M  V30 13 2 13 14
M  V30 14 2 4 15
M  V30 15 1 15 16
M  V30 16 1 16 17
M  V30 17 2 16 18
M  V30 18 1 15 19
M  V30 19 2 19 20
M  V30 20 1 20 21
M  V30 21 2 21 22
M  V30 22 1 22 23
M  V30 23 1 23 24
M  V30 24 1 24 25
M  V30 25 2 25 26
M  V30 26 1 26 27
M  V30 27 2 27 28
M  V30 28 1 28 29
M  V30 29 1 28 30
M  V30 30 2 30 31
M  V30 31 1 22 32
M  V30 32 2 32 33
M  V30 33 1 18 2
M  V30 34 1 33 19
M  V30 35 1 14 8
M  V30 36 1 31 25
M  V30 37 1 1 34
M  V30 38 1 1 35
M  V30 39 1 5 36
M  V30 40 1 5 37
M  V30 41 1 7 38
M  V30 42 1 7 39
M  V30 43 1 9 40
M  V30 44 1 12 41
M  V30 45 1 13 42
M  V30 46 1 14 43
M  V30 47 1 17 44
M  V30 48 1 17 45
M  V30 49 1 20 46
M  V30 50 1 21 47
M  V30 51 1 23 48
M  V30 52 1 24 49
M  V30 53 1 24 50
M  V30 54 1 26 51
M  V30 55 1 27 52
M  V30 56 1 30 53
M  V30 57 1 31 54
M  V30 58 1 32 55
M  V30 59 1 33 56
M  V30 END BOND
M  V30 END CTAB
M  END
