
     RDKit          3D

  0  0  0  0  0  0  0  0  0  0999 V3000
M  V30 BEGIN CTAB
M  V30 COUNTS 32 33 0 0 0
M  V30 BEGIN ATOM
M  V30 1 O 0.805694 -2.51925 0.117016 0
M  V30 2 C 0.661183 -1.27494 0.0527392 0
M  V30 3 C 1.81887 -0.381406 0.0545734 0
M  V30 4 C 3.13525 -1.14759 0.140748 0
M  V30 5 C 4.20289 -0.0778993 0.13084 0
M  V30 6 C 5.56176 -0.254367 0.190739 0
M  V30 7 C 6.32034 0.845492 0.167677 0
M  V30 8 C 5.68801 2.054 0.0866998 0
M  V30 9 S 4.03903 1.61863 0.0446352 0
M  V30 10 O -0.607482 -0.755323 -0.0200719 0
M  V30 11 C -1.78638 -1.55085 -0.0273414 0
M  V30 12 C -2.96166 -0.637451 -0.115187 0
M  V30 13 N -3.49323 -0.244181 -1.28933 0
M  V30 14 C -4.55648 0.582619 -1.34272 0
M  V30 15 N -5.12263 1.00181 -2.57359 0
M  V30 16 N -5.0855 1.01471 -0.186019 0
M  V30 17 C -4.58024 0.642374 1.01381 0
M  V30 18 N -3.5098 -0.190863 1.01912 0
M  V30 19 N -5.13361 1.09462 2.23905 0
M  V30 20 H 1.83061 0.327552 0.921051 0
M  V30 21 H 1.85782 0.235614 -0.852488 0
M  V30 22 H 3.16547 -1.7106 1.09445 0
M  V30 23 H 3.20492 -1.77833 -0.751232 0
M  V30 24 H 5.9524 -1.29677 0.25471 0
M  V30 25 H 7.42701 0.806691 0.211509 0
M  V30 26 H 6.1493 3.05891 0.0568322 0
M  V30 27 H -1.79705 -2.19806 -0.929047 0
M  V30 28 H -1.80103 -2.10936 0.92059 0
M  V30 29 H -4.58358 1.40442 -3.36292 0
M  V30 30 H -6.15766 0.89351 -2.68419 0
M  V30 31 H -4.50623 1.55558 2.92855 0
M  V30 32 H -6.13798 0.990717 2.48881 0
M  V30 END ATOM
M  V30 BEGIN BOND
M  V30 1 2 1 2
M  V30 2 1 2 3
M  V30 3 1 3 4
M  V30 4 1 4 5
M  V30 5 2 5 6
M  V30 6 1 6 7
M  V30 7 2 7 8
M  V30 8 1 8 9
M  V30 9 1 2 10
M  V30 10 1 10 11
M  V30 11 1 11 12
M  V30 12 2 12 13
M  V30 13 1 13 14
M  V30 14 1 14 15
M  V30 15 2 14 16
M  V30 16 1 16 17
M  V30 17 2 17 18
M  V30 18 1 17 19
M  V30 19 1 9 5
M  V30 20 1 18 12
M  V30 21 1 3 20
M  V30 22 1 3 21
M  V30 23 1 4 22
M  V30 24 1 4 23
M  V30 25 1 6 24
M  V30 26 1 7 25
M  V30 27 1 8 26
M  V30 28 1 11 27
M  V30 29 1 11 28
M  V30 30 1 15 29
M  V30 31 1 15 30
M  V30 32 1 19 31
M  V30 33 1 19 32
M  V30 END BOND
M  V30 END CTAB
M  END
