
     RDKit          3D

  0  0  0  0  0  0  0  0  0  0999 V3000
M  V30 BEGIN CTAB
M  V30 COUNTS 27 27 0 0 0
M  V30 BEGIN ATOM
M  V30 1 N -2.25528 -0.103169 2.39294 0
M  V30 2 N -1.41157 -0.589779 1.41688 0
M  V30 3 C -1.68009 -0.50516 0.159433 0
M  V30 4 N -0.767288 -1.02712 -0.796343 0
M  V30 5 C 0.224476 -0.212967 -1.46227 0
M  V30 6 C 1.16451 0.412289 -0.502802 0
M  V30 7 C 2.33122 -0.213446 -0.119359 0
M  V30 8 C 3.18416 0.409635 0.783319 0
M  V30 9 C 2.86417 1.64757 1.29233 0
M  V30 10 C 1.69359 2.25465 0.895678 0
M  V30 11 C 0.838735 1.64878 0.00169264 0
M  V30 12 C -0.820145 -2.4343 -1.1275 0
M  V30 13 N -2.90227 0.119818 -0.210805 0
M  V30 14 H -2.15547 -0.486225 3.36055 0
M  V30 15 H -2.98559 0.615809 2.24695 0
M  V30 16 H -0.308574 0.593342 -2.05221 0
M  V30 17 H 0.740094 -0.822802 -2.22325 0
M  V30 18 H 2.61775 -1.18314 -0.495193 0
M  V30 19 H 4.12176 -0.06503 1.10769 0
M  V30 20 H 3.52724 2.15916 2.00975 0
M  V30 21 H 1.46787 3.24303 1.32104 0
M  V30 22 H -0.0936853 2.13941 -0.310181 0
M  V30 23 H 0.163627 -2.80451 -1.47206 0
M  V30 24 H -1.53194 -2.5227 -1.99238 0
M  V30 25 H -1.22748 -3.00302 -0.266094 0
M  V30 26 H -3.77153 0.051892 0.394279 0
M  V30 27 H -3.02828 0.677984 -1.08568 0
M  V30 END ATOM
M  V30 BEGIN BOND
M  V30 1 1 1 2
M  V30 2 2 2 3 CFG=2
M  V30 3 1 3 4
M  V30 4 1 4 5
M  V30 5 1 5 6
M  V30 6 2 6 7
M  V30 7 1 7 8
M  V30 8 2 8 9
M  V30 9 1 9 10
M  V30 10 2 10 11
M  V30 11 1 4 12
M  V30 12 1 3 13
M  V30 13 1 11 6
M  V30 14 1 1 14
M  V30 15 1 1 15
M  V30 16 1 5 16
M  V30 17 1 5 17
M  V30 18 1 7 18
M  V30 19 1 8 19
M  V30 20 1 9 20
M  V30 21 1 10 21
M  V30 22 1 11 22
M  V30 23 1 12 23
M  V30 24 1 12 24
M  V30 25 1 12 25
M  V30 26 1 13 26
M  V30 27 1 13 27
M  V30 END BOND
M  V30 END CTAB
M  END
