
     RDKit          3D

  0  0  0  0  0  0  0  0  0  0999 V3000
M  V30 BEGIN CTAB
M  V30 COUNTS 25 25 0 0 0
M  V30 BEGIN ATOM
M  V30 1 C -3.31394 -0.282714 -0.824717 0
M  V30 2 C -1.93893 -0.512153 -0.188325 0
M  V30 3 C -2.05414 -0.120774 1.24383 0
M  V30 4 C -0.958076 0.281839 -0.98124 0
M  V30 5 C 0.43137 0.201088 -0.536185 0
M  V30 6 N 1.28111 -0.720851 -0.990735 0
M  V30 7 C 2.57826 -0.774408 -0.559432 0
M  V30 8 N 3.49746 -1.74522 -1.02913 0
M  V30 9 N 2.98106 0.135825 0.34485 0
M  V30 10 C 2.14917 1.07484 0.820143 0
M  V30 11 N 2.63513 1.99947 1.76689 0
M  V30 12 N 0.881098 1.08152 0.360539 0
M  V30 13 H -3.31698 0.656814 -1.42953 0
M  V30 14 H -4.09864 -0.200422 -0.0483355 0
M  V30 15 H -3.5908 -1.13238 -1.4798 0
M  V30 16 H -1.75824 -1.6058 -0.240188 0
M  V30 17 H -2.46548 -0.976955 1.85627 0
M  V30 18 H -1.14223 0.228342 1.72583 0
M  V30 19 H -2.81877 0.697418 1.39707 0
M  V30 20 H -1.33111 1.34378 -1.00027 0
M  V30 21 H -0.984588 -0.0674565 -2.04619 0
M  V30 22 H 3.68543 -1.89067 -2.04446 0
M  V30 23 H 4.02179 -2.3536 -0.35117 0
M  V30 24 H 3.35183 1.71426 2.45308 0
M  V30 25 H 2.2782 2.96819 1.78119 0
M  V30 END ATOM
M  V30 BEGIN BOND
M  V30 1 1 1 2
M  V30 2 1 2 3
M  V30 3 1 2 4
M  V30 4 1 4 5
M  V30 5 2 5 6
M  V30 6 1 6 7
M  V30 7 1 7 8
M  V30 8 2 7 9
M  V30 9 1 9 10
M  V30 10 1 10 11
M  V30 11 2 10 12
M  V30 12 1 12 5
M  V30 13 1 1 13
M  V30 14 1 1 14
M  V30 15 1 1 15
M  V30 16 1 2 16
M  V30 17 1 3 17
M  V30 18 1 3 18
M  V30 19 1 3 19
M  V30 20 1 4 20
M  V30 21 1 4 21
M  V30 22 1 8 22
M  V30 23 1 8 23
M  V30 24 1 11 24
M  V30 25 1 11 25
M  V30 END BOND
M  V30 END CTAB
M  END
