
     RDKit          3D

  0  0  0  0  0  0  0  0  0  0999 V3000
M  V30 BEGIN CTAB
M  V30 COUNTS 23 23 0 0 0
M  V30 BEGIN ATOM
M  V30 1 N -3.65324 -0.831363 -0.0945556 0
M  V30 2 N -2.58235 0.0601756 -0.173189 0
M  V30 3 C -1.28986 -0.327415 0.336881 0
M  V30 4 O -1.18183 -1.45388 0.833463 0
M  V30 5 C -0.211953 0.626401 0.231815 0
M  V30 6 C -0.500787 1.95436 0.603636 0
M  V30 7 C 0.429946 2.94461 0.485078 0
M  V30 8 C 1.70254 2.6686 -0.0114425 0
M  V30 9 N 1.95971 1.41764 -0.355746 0
M  V30 10 C 1.03694 0.395889 -0.244519 0
M  V30 11 C 1.54184 -0.892206 -0.604923 0
M  V30 12 O 1.938 -1.01514 -1.81818 0
M  V30 13 N 1.65604 -2.01475 0.214119 0
M  V30 14 N 2.17448 -3.24126 -0.28935 0
M  V30 15 H -4.43591 -0.559955 -0.726878 0
M  V30 16 H -3.3007 -1.76068 -0.470757 0
M  V30 17 H -2.76746 0.993186 -0.61068 0
M  V30 18 H -1.48453 2.17284 0.987997 0
M  V30 19 H 0.255201 3.9807 0.759752 0
M  V30 20 H 2.45698 3.43294 -0.113449 0
M  V30 21 H 1.42036 -2.07998 1.24369 0
M  V30 22 H 1.65948 -3.37881 -1.19189 0
M  V30 23 H 3.1771 -3.09189 -0.555667 0
M  V30 END ATOM
M  V30 BEGIN BOND
M  V30 1 1 1 2
M  V30 2 1 2 3
M  V30 3 2 3 4
M  V30 4 1 3 5
M  V30 5 2 5 6
M  V30 6 1 6 7
M  V30 7 2 7 8
M  V30 8 1 8 9
M  V30 9 2 9 10
M  V30 10 1 10 11
M  V30 11 2 11 12
M  V30 12 1 11 13
M  V30 13 1 13 14
M  V30 14 1 10 5
M  V30 15 1 1 15
M  V30 16 1 1 16
M  V30 17 1 2 17
M  V30 18 1 6 18
M  V30 19 1 7 19
M  V30 20 1 8 20
M  V30 21 1 13 21
M  V30 22 1 14 22
M  V30 23 1 14 23
M  V30 END BOND
M  V30 END CTAB
M  END
