
     RDKit          3D

  0  0  0  0  0  0  0  0  0  0999 V3000
M  V30 BEGIN CTAB
M  V30 COUNTS 21 21 0 0 0
M  V30 BEGIN ATOM
M  V30 1 C -1.68932 -1.40538 0.00728637 0
M  V30 2 C -0.690843 -0.31616 0.0235435 0
M  V30 3 C -1.0823 0.991647 0.190222 0
M  V30 4 C -0.102725 1.98318 0.201117 0
M  V30 5 C 1.23142 1.67167 0.0495032 0
M  V30 6 C 1.5755 0.347288 -0.114666 0
M  V30 7 N 2.9424 -0.00251175 -0.27468 0
M  V30 8 C 0.642115 -0.675902 -0.133144 0
M  V30 9 N 0.9931 -2.03072 -0.301034 0
M  V30 10 N -2.45631 1.31064 0.347696 0 CHG=1
M  V30 11 O -2.70132 2.42295 1.16072 0 CHG=-1
M  V30 12 O -3.39142 0.688107 -0.170607 0
M  V30 13 H -2.33028 -1.39761 -0.915797 0
M  V30 14 H -2.39421 -1.31576 0.859384 0
M  V30 15 H -1.20449 -2.41145 -0.00941598 0
M  V30 16 H -0.473775 2.99146 0.335736 0
M  V30 17 H 1.97433 2.47516 0.0603429 0
M  V30 18 H 3.48538 0.108492 -1.15561 0
M  V30 19 H 3.43872 -0.396846 0.547484 0
M  V30 20 H 0.845819 -2.67906 0.481195 0
M  V30 21 H 1.38821 -2.3592 -1.18928 0
M  V30 END ATOM
M  V30 BEGIN BOND
M  V30 1 1 1 2
M  V30 2 2 2 3
M  V30 3 1 3 4
M  V30 4 2 4 5
M  V30 5 1 5 6
M  V30 6 1 6 7
M  V30 7 2 6 8
M  V30 8 1 8 9
M  V30 9 1 3 10
M  V30 10 1 10 11
M  V30 11 2 10 12
M  V30 12 1 8 2
M  V30 13 1 1 13
M  V30 14 1 1 14
M  V30 15 1 1 15
M  V30 16 1 4 16
M  V30 17 1 5 17
M  V30 18 1 7 18
M  V30 19 1 7 19
M  V30 20 1 9 20
M  V30 21 1 9 21
M  V30 END BOND
M  V30 END CTAB
M  END
