
     RDKit          3D

  0  0  0  0  0  0  0  0  0  0999 V3000
M  V30 BEGIN CTAB
M  V30 COUNTS 34 36 0 0 0
M  V30 BEGIN ATOM
M  V30 1 N 7.98767 1.16305 -0.252373 0
M  V30 2 C 6.64784 1.20793 0.218674 0
M  V30 3 N 6.19244 1.65862 1.39151 0
M  V30 4 N 4.9585 1.64897 1.63431 0
M  V30 5 C 4.09585 1.19199 0.732652 0
M  V30 6 S 5.16638 0.751593 -0.534048 0
M  V30 7 S 2.30444 1.19707 0.786142 0
M  V30 8 C 1.66324 0.38739 -0.681824 0
M  V30 9 C 0.966665 -0.888327 -0.417719 0
M  V30 10 C 1.52378 -2.1052 -0.429655 0
M  V30 11 C 0.714899 -3.22601 -0.224404 0
M  V30 12 C -0.646114 -3.07875 -0.0117073 0
M  V30 13 C -1.24169 -1.8435 0.0071336 0
M  V30 14 C -0.424066 -0.766267 -0.195547 0
M  V30 15 C -2.6827 -1.62144 0.194151 0
M  V30 16 S -3.5275 -1.18831 -1.38903 0
M  V30 17 C -4.77237 0.0745037 -1.00944 0
M  V30 18 N -6.05099 -0.125536 -0.694709 0
M  V30 19 N -6.78593 0.86326 -0.41952 0
M  V30 20 C -6.28538 2.09338 -0.442781 0
M  V30 21 S -4.66385 1.77017 -0.890952 0
M  V30 22 N -6.93593 3.34433 -0.142075 0
M  V30 23 H 8.5828 2.00403 -0.163251 0
M  V30 24 H 8.36655 0.313868 -0.676656 0
M  V30 25 H 2.50586 0.101829 -1.38901 0
M  V30 26 H 1.0336 1.061 -1.3302 0
M  V30 27 H 2.59362 -2.28487 -0.588492 0
M  V30 28 H 1.15394 -4.20838 -0.227521 0
M  V30 29 H -1.25386 -3.95853 0.143695 0
M  V30 30 H -0.847431 0.22992 -0.191672 0
M  V30 31 H -2.86919 -0.785332 0.92797 0
M  V30 32 H -3.20117 -2.50956 0.604137 0
M  V30 33 H -6.36528 4.20855 -0.24978 0
M  V30 34 H -7.90462 3.31856 0.159423 0
M  V30 END ATOM
M  V30 BEGIN BOND
M  V30 1 1 1 2
M  V30 2 2 2 3
M  V30 3 1 3 4
M  V30 4 2 4 5
M  V30 5 1 5 6
M  V30 6 1 5 7
M  V30 7 1 7 8
M  V30 8 1 8 9
M  V30 9 2 9 10
M  V30 10 1 10 11
M  V30 11 2 11 12
M  V30 12 1 12 13
M  V30 13 2 13 14
M  V30 14 1 13 15
M  V30 15 1 15 16
M  V30 16 1 16 17
M  V30 17 2 17 18
M  V30 18 1 18 19
M  V30 19 2 19 20
M  V30 20 1 20 21
M  V30 21 1 20 22
M  V30 22 1 6 2
M  V30 23 1 14 9
M  V30 24 1 21 17
M  V30 25 1 1 23
M  V30 26 1 1 24
M  V30 27 1 8 25
M  V30 28 1 8 26
M  V30 29 1 10 27
M  V30 30 1 11 28
M  V30 31 1 12 29
M  V30 32 1 14 30
M  V30 33 1 15 31
M  V30 34 1 15 32
M  V30 35 1 22 33
M  V30 36 1 22 34
M  V30 END BOND
M  V30 END CTAB
M  END
