
     RDKit          3D

  0  0  0  0  0  0  0  0  0  0999 V3000
M  V30 BEGIN CTAB
M  V30 COUNTS 23 23 0 0 0
M  V30 BEGIN ATOM
M  V30 1 O -3.59228 -1.98811 -0.638916 0
M  V30 2 N -2.35695 -1.42206 -0.518006 0
M  V30 3 C -2.22005 -0.201142 -0.13657 0
M  V30 4 C -0.888386 0.381896 -0.0148618 0
M  V30 5 C -0.74065 1.69208 0.394408 0
M  V30 6 C 0.536722 2.20441 0.496222 0
M  V30 7 C 1.67008 1.45941 0.205382 0
M  V30 8 C 1.51433 0.150888 -0.202976 0
M  V30 9 C 0.240442 -0.3561 -0.303259 0
M  V30 10 S 2.91119 -0.833094 -0.582335 0
M  V30 11 O 4.0545 0.0540256 -0.987425 0
M  V30 12 O 2.64267 -1.80709 -1.67856 0
M  V30 13 N 3.41918 -1.64037 0.881365 0
M  V30 14 N -3.38491 0.553695 0.158888 0
M  V30 15 H -3.92403 -2.53845 -1.3945 0
M  V30 16 H -1.62278 2.30699 0.631911 0
M  V30 17 H 0.619283 3.2451 0.822969 0
M  V30 18 H 2.66398 1.91104 0.301452 0
M  V30 19 H 0.137553 -1.39799 -0.629426 0
M  V30 20 H 2.84612 -2.52239 1.02137 0
M  V30 21 H 3.19897 -0.961821 1.65209 0
M  V30 22 H -3.55192 1.04151 1.06671 0
M  V30 23 H -4.17305 0.667593 -0.545922 0
M  V30 END ATOM
M  V30 BEGIN BOND
M  V30 1 1 1 2
M  V30 2 2 2 3 CFG=2
M  V30 3 1 3 4
M  V30 4 2 4 5
M  V30 5 1 5 6
M  V30 6 2 6 7
M  V30 7 1 7 8
M  V30 8 2 8 9
M  V30 9 1 8 10
M  V30 10 2 10 11
M  V30 11 2 10 12
M  V30 12 1 10 13
M  V30 13 1 3 14
M  V30 14 1 9 4
M  V30 15 1 1 15
M  V30 16 1 5 16
M  V30 17 1 6 17
M  V30 18 1 7 18
M  V30 19 1 9 19
M  V30 20 1 13 20
M  V30 21 1 13 21
M  V30 22 1 14 22
M  V30 23 1 14 23
M  V30 END BOND
M  V30 END CTAB
M  END
