
     RDKit          3D

  0  0  0  0  0  0  0  0  0  0999 V3000
M  V30 BEGIN CTAB
M  V30 COUNTS 30 31 0 0 0
M  V30 BEGIN ATOM
M  V30 1 N 0.00902981 -1.65712 -1.2764 0
M  V30 2 N -0.19569 -0.296702 -0.936425 0
M  V30 3 C 0.795725 0.691155 -1.21035 0
M  V30 4 C 2.07701 0.441532 -0.522368 0
M  V30 5 C 2.26265 0.97064 0.735189 0
M  V30 6 C 3.43251 0.777421 1.43687 0
M  V30 7 C 4.42589 0.0380612 0.854423 0
M  V30 8 C 4.22596 -0.486394 -0.407097 0
M  V30 9 C 3.0605 -0.298745 -1.1159 0
M  V30 10 C -1.41938 0.035968 -0.315094 0
M  V30 11 C -1.80148 1.29222 0.0950357 0
M  V30 12 C -3.04404 1.49527 0.700233 0
M  V30 13 O -3.34007 2.65393 1.05266 0
M  V30 14 N -3.8562 0.440466 0.873035 0
M  V30 15 C -3.48667 -0.792008 0.473156 0
M  V30 16 N -4.4275 -1.84596 0.70535 0
M  V30 17 N -2.30957 -0.987153 -0.100755 0
M  V30 18 H -0.39946 -2.20654 -0.497362 0
M  V30 19 H -0.52054 -1.80904 -2.16269 0
M  V30 20 H 0.450163 1.68878 -0.935313 0
M  V30 21 H 1.05438 0.725926 -2.31299 0
M  V30 22 H 1.49132 1.56942 1.23758 0
M  V30 23 H 3.56168 1.19589 2.41579 0
M  V30 24 H 5.35852 -0.119958 1.40565 0
M  V30 25 H 5.02855 -1.07881 -0.867203 0
M  V30 26 H 2.98831 -0.743186 -2.0937 0
M  V30 27 H -1.14654 2.12357 -0.0464293 0
M  V30 28 H -4.77935 0.61009 1.32603 0
M  V30 29 H -4.58625 -2.50668 -0.0813364 0
M  V30 30 H -4.90947 -1.92205 1.6176 0
M  V30 END ATOM
M  V30 BEGIN BOND
M  V30 1 1 1 2
M  V30 2 1 2 3
M  V30 3 1 3 4
M  V30 4 2 4 5
M  V30 5 1 5 6
M  V30 6 2 6 7
M  V30 7 1 7 8
M  V30 8 2 8 9
M  V30 9 1 2 10
M  V30 10 2 10 11
M  V30 11 1 11 12
M  V30 12 2 12 13
M  V30 13 1 12 14
M  V30 14 1 14 15
M  V30 15 1 15 16
M  V30 16 2 15 17
M  V30 17 1 9 4
M  V30 18 1 17 10
M  V30 19 1 1 18
M  V30 20 1 1 19
M  V30 21 1 3 20
M  V30 22 1 3 21
M  V30 23 1 5 22
M  V30 24 1 6 23
M  V30 25 1 7 24
M  V30 26 1 8 25
M  V30 27 1 9 26
M  V30 28 1 11 27
M  V30 29 1 14 28
M  V30 30 1 16 29
M  V30 31 1 16 30
M  V30 END BOND
M  V30 END CTAB
M  END
