
     RDKit          3D

  0  0  0  0  0  0  0  0  0  0999 V3000
M  V30 BEGIN CTAB
M  V30 COUNTS 122 125 0 0 0
M  V30 BEGIN ATOM
M  V30 1 N 10.1693 1.01489 -3.39664 0
M  V30 2 C 10.4562 2.13848 -2.59316 0 CFG=2
M  V30 3 C 11.9432 2.31186 -2.40563 0
M  V30 4 C 12.5989 1.14058 -1.73643 0
M  V30 5 C 12.7587 1.10032 -0.379742 0
M  V30 6 C 13.3594 0.0422714 0.240555 0
M  V30 7 C 13.816 -1.01568 -0.527547 0
M  V30 8 C 13.6669 -0.994505 -1.89483 0
M  V30 9 C 13.0515 0.0921556 -2.50244 0
M  V30 10 C 9.72097 2.13529 -1.32052 0
M  V30 11 O 9.93086 3.08341 -0.527688 0
M  V30 12 N 8.78576 1.11839 -0.917315 0
M  V30 13 C 8.19251 1.29095 0.425585 0 CFG=2
M  V30 14 C 9.15762 0.822748 1.44945 0
M  V30 15 C 9.55363 -0.56433 1.54498 0
M  V30 16 C 9.50284 -1.1658 2.80962 0
M  V30 17 C 9.76603 -2.48395 3.06366 0
M  V30 18 C 10.116 -3.32143 1.99441 0
M  V30 19 C 10.173 -2.76561 0.756174 0
M  V30 20 C 9.90265 -1.43143 0.53664 0
M  V30 21 C 6.81747 0.78828 0.49615 0
M  V30 22 O 6.04502 1.06485 -0.495118 0
M  V30 23 N 6.28815 0.0322682 1.5316 0
M  V30 24 C 5.02535 -0.546026 1.81302 0
M  V30 25 C 4.01107 0.502299 2.11145 0
M  V30 26 C 2.69994 0.03769 2.57438 0
M  V30 27 C 1.77933 -0.724327 1.69624 0
M  V30 28 C 1.36928 0.160173 0.552436 0
M  V30 29 C 0.343976 -0.455835 -0.348258 0
M  V30 30 C -0.950678 -0.784541 0.304242 0
M  V30 31 C -1.71581 0.398951 0.867115 0
M  V30 32 C -2.02226 1.42233 -0.171479 0
M  V30 33 C -2.79852 0.954434 -1.34867 0
M  V30 34 C -4.19877 0.552404 -1.2492 0
M  V30 35 C -4.64846 -0.430374 -0.231347 0
M  V30 36 N -6.01847 -0.844075 -0.502846 0
M  V30 37 C -6.82915 -1.55281 0.38491 0
M  V30 38 O -6.46667 -1.86143 1.51832 0
M  V30 39 C -8.24116 -1.93621 -0.0906463 0 CFG=1
M  V30 40 C -8.7292 -3.00778 0.806401 0
M  V30 41 C -10.077 -3.50097 0.485299 0
M  V30 42 C -11.2181 -2.91955 0.988879 0
M  V30 43 C -12.4757 -3.43847 0.703165 0
M  V30 44 C -12.5992 -4.54586 -0.0919601 0
M  V30 45 C -11.4656 -5.13912 -0.605289 0
M  V30 46 C -10.2202 -4.62673 -0.32434 0
M  V30 47 N -9.00802 -0.728133 0.0781789 0
M  V30 48 C -9.00891 0.134358 1.15714 0
M  V30 49 O -8.39823 -0.00537659 2.22559 0
M  V30 50 C -9.83607 1.41345 1.03201 0 CFG=2
M  V30 51 N -10.429 1.76808 2.2608 0
M  V30 52 C -10.6443 1.38277 -0.20402 0
M  V30 53 C -11.4308 2.59452 -0.479094 0
M  V30 54 C -10.7919 3.60398 -1.20039 0
M  V30 55 C -11.4581 4.75569 -1.56858 0
M  V30 56 C -12.778 4.9183 -1.21958 0
M  V30 57 C -13.4242 3.94765 -0.512255 0
M  V30 58 C -12.7304 2.77876 -0.143936 0
M  V30 59 H 10.2274 0.15074 -2.9742 0
M  V30 60 H 10.1682 1.15786 -4.36574 0
M  V30 61 H 10.1255 3.03567 -3.17633 0
M  V30 62 H 12.4697 2.49283 -3.36903 0
M  V30 63 H 12.1413 3.20425 -1.77886 0
M  V30 64 H 12.418 1.90433 0.23766 0
M  V30 65 H 13.4857 0.00170666 1.33417 0
M  V30 66 H 14.2862 -1.84914 0.00536806 0
M  V30 67 H 14.0374 -1.82927 -2.51852 0
M  V30 68 H 12.9465 0.084379 -3.58849 0
M  V30 69 H 8.51444 0.327836 -1.5111 0
M  V30 70 H 8.15594 2.41413 0.572859 0
M  V30 71 H 8.76082 1.1689 2.45748 0
M  V30 72 H 10.0698 1.48437 1.33461 0
M  V30 73 H 9.23768 -0.562991 3.69462 0
M  V30 74 H 9.72645 -2.93578 4.03613 0
M  V30 75 H 10.3256 -4.37675 2.21859 0
M  V30 76 H 10.4398 -3.40686 -0.109251 0
M  V30 77 H 9.98884 -1.07384 -0.445311 0
M  V30 78 H 6.98788 -0.133415 2.35429 0
M  V30 79 H 5.07162 -1.32082 2.61125 0
M  V30 80 H 4.62758 -1.12876 0.917012 0
M  V30 81 H 3.84617 1.18158 1.23549 0
M  V30 82 H 4.44759 1.16903 2.89012 0
M  V30 83 H 2.78935 -0.496029 3.59321 0
M  V30 84 H 2.12609 0.971363 2.89712 0
M  V30 85 H 0.951851 -1.10012 2.29908 0
M  V30 86 H 2.30333 -1.65012 1.32021 0
M  V30 87 H 2.29806 0.463624 0.0352293 0
M  V30 88 H 0.928633 1.09427 0.955721 0
M  V30 89 H 0.766634 -1.40208 -0.739303 0
M  V30 90 H 0.120657 0.171401 -1.2352 0
M  V30 91 H -1.6122 -1.21904 -0.477242 0
M  V30 92 H -0.79832 -1.58948 1.04723 0
M  V30 93 H -0.987535 0.861563 1.60862 0
M  V30 94 H -2.58232 0.159809 1.45501 0
M  V30 95 H -2.68295 2.19697 0.347863 0
M  V30 96 H -1.153 2.00926 -0.523618 0
M  V30 97 H -2.18485 0.194384 -1.95568 0
M  V30 98 H -2.80453 1.81967 -2.13737 0
M  V30 99 H -4.66701 0.353979 -2.26178 0
M  V30 100 H -4.7633 1.53841 -0.973179 0
M  V30 101 H -4.70967 0.0857762 0.784103 0
M  V30 102 H -4.04629 -1.34634 -0.171376 0
M  V30 103 H -6.40307 -0.561786 -1.45502 0
M  V30 104 H -8.09458 -2.26752 -1.10732 0
M  V30 105 H -8.66794 -2.71401 1.88918 0
M  V30 106 H -8.04492 -3.89616 0.700474 0
M  V30 107 H -11.1326 -2.05256 1.61718 0
M  V30 108 H -13.3605 -2.94539 1.12068 0
M  V30 109 H -13.5633 -4.98188 -0.341123 0
M  V30 110 H -11.5741 -6.01503 -1.2313 0
M  V30 111 H -9.3825 -5.13612 -0.757307 0
M  V30 112 H -9.64259 -0.538581 -0.76306 0
M  V30 113 H -9.00714 2.19815 0.836864 0
M  V30 114 H -9.75979 2.35514 2.8491 0
M  V30 115 H -10.626 0.933844 2.86771 0
M  V30 116 H -11.2912 0.46603 -0.234051 0
M  V30 117 H -9.95264 1.26653 -1.10682 0
M  V30 118 H -9.75675 3.47954 -1.47055 0
M  V30 119 H -10.9174 5.52663 -2.13972 0
M  V30 120 H -13.3017 5.80745 -1.50985 0
M  V30 121 H -14.4625 4.06066 -0.234299 0
M  V30 122 H -13.2463 2.02555 0.410586 0
M  V30 END ATOM
M  V30 BEGIN BOND
M  V30 1 1 1 2
M  V30 2 1 2 3
M  V30 3 1 3 4
M  V30 4 2 4 5
M  V30 5 1 5 6
M  V30 6 2 6 7
M  V30 7 1 7 8
M  V30 8 2 8 9
M  V30 9 1 2 10
M  V30 10 2 10 11
M  V30 11 1 10 12
M  V30 12 1 12 13
M  V30 13 1 13 14
M  V30 14 1 14 15
M  V30 15 2 15 16
M  V30 16 1 16 17
M  V30 17 2 17 18
M  V30 18 1 18 19
M  V30 19 2 19 20
M  V30 20 1 13 21
M  V30 21 2 21 22
M  V30 22 1 21 23
M  V30 23 1 23 24
M  V30 24 1 24 25
M  V30 25 1 25 26
M  V30 26 1 26 27
M  V30 27 1 27 28
M  V30 28 1 28 29
M  V30 29 1 29 30
M  V30 30 1 30 31
M  V30 31 1 31 32
M  V30 32 1 32 33
M  V30 33 1 33 34
M  V30 34 1 34 35
M  V30 35 1 35 36
M  V30 36 1 36 37
M  V30 37 2 37 38
M  V30 38 1 37 39
M  V30 39 1 39 40
M  V30 40 1 40 41
M  V30 41 2 41 42
M  V30 42 1 42 43
M  V30 43 2 43 44
M  V30 44 1 44 45
M  V30 45 2 45 46
M  V30 46 1 39 47
M  V30 47 1 47 48
M  V30 48 2 48 49
M  V30 49 1 48 50
M  V30 50 1 50 51
M  V30 51 1 50 52
M  V30 52 1 52 53
M  V30 53 2 53 54
M  V30 54 1 54 55
M  V30 55 2 55 56
M  V30 56 1 56 57
M  V30 57 2 57 58
M  V30 58 1 9 4
M  V30 59 1 20 15
M  V30 60 1 46 41
M  V30 61 1 58 53
M  V30 62 1 1 59
M  V30 63 1 1 60
M  V30 64 1 2 61 CFG=3
M  V30 65 1 3 62
M  V30 66 1 3 63
M  V30 67 1 5 64
M  V30 68 1 6 65
M  V30 69 1 7 66
M  V30 70 1 8 67
M  V30 71 1 9 68
M  V30 72 1 12 69
M  V30 73 1 13 70 CFG=1
M  V30 74 1 14 71
M  V30 75 1 14 72
M  V30 76 1 16 73
M  V30 77 1 17 74
M  V30 78 1 18 75
M  V30 79 1 19 76
M  V30 80 1 20 77
M  V30 81 1 23 78
M  V30 82 1 24 79
M  V30 83 1 24 80
M  V30 84 1 25 81
M  V30 85 1 25 82
M  V30 86 1 26 83
M  V30 87 1 26 84
M  V30 88 1 27 85
M  V30 89 1 27 86
M  V30 90 1 28 87
M  V30 91 1 28 88
M  V30 92 1 29 89
M  V30 93 1 29 90
M  V30 94 1 30 91
M  V30 95 1 30 92
M  V30 96 1 31 93
M  V30 97 1 31 94
M  V30 98 1 32 95
M  V30 99 1 32 96
M  V30 100 1 33 97
M  V30 101 1 33 98
M  V30 102 1 34 99
M  V30 103 1 34 100
M  V30 104 1 35 101
M  V30 105 1 35 102
M  V30 106 1 36 103
M  V30 107 1 39 104 CFG=3
M  V30 108 1 40 105
M  V30 109 1 40 106
M  V30 110 1 42 107
M  V30 111 1 43 108
M  V30 112 1 44 109
M  V30 113 1 45 110
M  V30 114 1 46 111
M  V30 115 1 47 112
M  V30 116 1 50 113 CFG=3
M  V30 117 1 51 114
M  V30 118 1 51 115
M  V30 119 1 52 116
M  V30 120 1 52 117
M  V30 121 1 54 118
M  V30 122 1 55 119
M  V30 123 1 56 120
M  V30 124 1 57 121
M  V30 125 1 58 122
M  V30 END BOND
M  V30 END CTAB
M  END
