
     RDKit          3D

  0  0  0  0  0  0  0  0  0  0999 V3000
M  V30 BEGIN CTAB
M  V30 COUNTS 41 42 0 0 0
M  V30 BEGIN ATOM
M  V30 1 C -1.42621 -1.74467 1.24825 0
M  V30 2 C -0.342099 -0.783785 0.929461 0
M  V30 3 N -0.368332 -0.0415788 -0.235352 0
M  V30 4 C -1.26058 0.979191 -0.497198 0
M  V30 5 C -2.68727 0.752096 -0.59553 0
M  V30 6 N -3.52021 1.78894 -0.274502 0
M  V30 7 C -4.85393 1.68329 -0.342368 0
M  V30 8 N -5.67631 2.81089 0.00655155 0
M  V30 9 N -5.41993 0.547636 -0.730976 0
M  V30 10 C -4.63976 -0.496156 -1.05582 0
M  V30 11 N -3.31263 -0.366869 -0.980243 0
M  V30 12 N -5.22562 -1.70855 -1.46612 0
M  V30 13 C 0.589511 -0.37076 -1.24654 0
M  V30 14 C 2.00104 -0.245679 -0.787594 0
M  V30 15 C 2.40116 0.493483 0.293374 0
M  V30 16 C 3.74488 0.530691 0.648863 0
M  V30 17 C 4.7133 -0.138727 -0.026366 0
M  V30 18 C 4.29482 -0.891625 -1.12997 0
M  V30 19 C 2.97352 -0.94448 -1.50241 0
M  V30 20 F 5.21174 -1.59352 -1.8588 0
M  V30 21 O 6.05712 -0.167484 0.243962 0
M  V30 22 C 6.60391 0.538084 1.31698 0
M  V30 23 H -1.68555 -2.45235 0.424717 0
M  V30 24 H -1.0675 -2.44006 2.08141 0
M  V30 25 H -2.33903 -1.28757 1.70596 0
M  V30 26 H 0.627628 -1.37056 0.95924 0
M  V30 27 H -0.249224 -0.0931702 1.80407 0
M  V30 28 H -1.10267 1.78864 0.290714 0
M  V30 29 H -0.938327 1.50096 -1.44335 0
M  V30 30 H -5.29472 3.58002 0.587092 0
M  V30 31 H -6.65519 2.83371 -0.334736 0
M  V30 32 H -6.22835 -1.90748 -1.30912 0
M  V30 33 H -4.64146 -2.4199 -1.93612 0
M  V30 34 H 0.436877 -1.42685 -1.54251 0
M  V30 35 H 0.479036 0.231609 -2.16396 0
M  V30 36 H 1.66469 1.03706 0.851148 0
M  V30 37 H 4.02858 1.12307 1.5051 0
M  V30 38 H 2.66664 -1.53772 -2.36572 0
M  V30 39 H 7.21375 1.4112 0.98067 0
M  V30 40 H 5.89712 0.902206 2.06782 0
M  V30 41 H 7.32961 -0.103256 1.89104 0
M  V30 END ATOM
M  V30 BEGIN BOND
M  V30 1 1 1 2
M  V30 2 1 2 3
M  V30 3 1 3 4
M  V30 4 1 4 5
M  V30 5 2 5 6
M  V30 6 1 6 7
M  V30 7 1 7 8
M  V30 8 2 7 9
M  V30 9 1 9 10
M  V30 10 2 10 11
M  V30 11 1 10 12
M  V30 12 1 3 13
M  V30 13 1 13 14
M  V30 14 2 14 15
M  V30 15 1 15 16
M  V30 16 2 16 17
M  V30 17 1 17 18
M  V30 18 2 18 19
M  V30 19 1 18 20
M  V30 20 1 17 21
M  V30 21 1 21 22
M  V30 22 1 11 5
M  V30 23 1 19 14
M  V30 24 1 1 23
M  V30 25 1 1 24
M  V30 26 1 1 25
M  V30 27 1 2 26
M  V30 28 1 2 27
M  V30 29 1 4 28
M  V30 30 1 4 29
M  V30 31 1 8 30
M  V30 32 1 8 31
M  V30 33 1 12 32
M  V30 34 1 12 33
M  V30 35 1 13 34
M  V30 36 1 13 35
M  V30 37 1 15 36
M  V30 38 1 16 37
M  V30 39 1 19 38
M  V30 40 1 22 39
M  V30 41 1 22 40
M  V30 42 1 22 41
M  V30 END BOND
M  V30 END CTAB
M  END
