
     RDKit          3D

  0  0  0  0  0  0  0  0  0  0999 V3000
M  V30 BEGIN CTAB
M  V30 COUNTS 82 81 0 0 0
M  V30 BEGIN ATOM
M  V30 1 N -10.243 0.451009 -4.32321 0
M  V30 2 C -9.73434 1.57234 -3.57346 0
M  V30 3 C -10.0728 1.34797 -2.09748 0
M  V30 4 O -9.62689 2.35831 -1.31434 0
M  V30 5 C -8.29806 2.64515 -1.27153 0
M  V30 6 C -7.44921 1.51265 -0.734389 0
M  V30 7 O -7.4822 0.366218 -1.40982 0
M  V30 8 C -6.7227 -0.683365 -1.03285 0
M  V30 9 C -6.91534 -1.22909 0.334357 0
M  V30 10 O -6.66373 -0.435896 1.40064 0
M  V30 11 C -5.33573 -0.0343634 1.57559 0
M  V30 12 C -4.41419 -1.20008 1.76595 0
M  V30 13 O -3.11913 -0.805152 1.92952 0
M  V30 14 C -2.92734 -0.0188057 3.02747 0
M  V30 15 C -1.51817 0.396824 3.29729 0
M  V30 16 O -0.636596 -0.60279 3.52297 0
M  V30 17 C -0.4246 -1.51916 2.53193 0
M  V30 18 C 0.66194 -2.50267 2.97872 0
M  V30 19 O 1.85861 -1.92297 3.2551 0
M  V30 20 C 2.48863 -1.23428 2.27221 0
M  V30 21 C 2.84513 -1.95094 1.03259 0
M  V30 22 O 3.67061 -3.0143 1.14196 0
M  V30 23 C 4.9044 -2.84157 1.67589 0
M  V30 24 C 5.78411 -1.84051 0.910025 0
M  V30 25 O 6.9461 -1.7667 1.53095 0
M  V30 26 C 8.00499 -1.01623 1.21287 0
M  V30 27 C 7.68796 0.446051 1.22025 0
M  V30 28 O 6.78384 0.854359 0.351697 0
M  V30 29 C 6.98808 1.09526 -0.955095 0
M  V30 30 C 7.54881 0.0903018 -1.87366 0
M  V30 31 O 7.67449 0.483987 -3.14866 0
M  V30 32 C 8.51311 1.33983 -3.65471 0
M  V30 33 C 8.62262 2.7665 -3.2493 0
M  V30 34 N 9.67838 3.39264 -4.09595 0
M  V30 35 H -11.2588 0.541622 -4.52598 0
M  V30 36 H -9.71521 0.420542 -5.23398 0
M  V30 37 H -8.65274 1.68332 -3.66947 0
M  V30 38 H -10.2895 2.47281 -3.91826 0
M  V30 39 H -9.80315 0.328736 -1.8362 0
M  V30 40 H -11.2157 1.35578 -2.00193 0
M  V30 41 H -8.16393 3.4854 -0.529691 0
M  V30 42 H -7.90598 2.96801 -2.27425 0
M  V30 43 H -7.79977 1.39957 0.341248 0
M  V30 44 H -6.39642 1.92145 -0.679314 0
M  V30 45 H -6.96173 -1.54632 -1.7404 0
M  V30 46 H -5.62112 -0.501385 -1.23953 0
M  V30 47 H -8.02755 -1.4978 0.408178 0
M  V30 48 H -6.43179 -2.23468 0.380881 0
M  V30 49 H -5.35736 0.546959 2.54768 0
M  V30 50 H -4.96457 0.615351 0.772393 0
M  V30 51 H -4.54543 -1.90641 0.911643 0
M  V30 52 H -4.70687 -1.73626 2.72191 0
M  V30 53 H -3.51579 0.953645 2.96825 0
M  V30 54 H -3.39414 -0.526762 3.91237 0
M  V30 55 H -1.12929 1.00821 2.42845 0
M  V30 56 H -1.47954 1.09012 4.19784 0
M  V30 57 H -0.206744 -1.05331 1.57385 0
M  V30 58 H -1.33815 -2.17094 2.39167 0
M  V30 59 H 0.685037 -3.2957 2.21306 0
M  V30 60 H 0.277601 -2.96562 3.91266 0
M  V30 61 H 1.81109 -0.377402 1.97982 0
M  V30 62 H 3.36567 -0.705083 2.74954 0
M  V30 63 H 3.23527 -1.18701 0.3038 0
M  V30 64 H 1.89037 -2.29763 0.562658 0
M  V30 65 H 5.45053 -3.81158 1.61184 0
M  V30 66 H 4.90563 -2.57651 2.75935 0
M  V30 67 H 5.20692 -0.895957 0.748103 0
M  V30 68 H 5.94689 -2.23697 -0.138544 0
M  V30 69 H 8.58889 -1.36871 0.334273 0
M  V30 70 H 8.77147 -1.13465 2.08129 0
M  V30 71 H 8.65165 1.05519 1.2057 0
M  V30 72 H 7.25551 0.63898 2.26998 0
M  V30 73 H 5.91193 1.28699 -1.37684 0
M  V30 74 H 7.46894 2.11293 -1.0044 0
M  V30 75 H 7.00413 -0.884 -1.76217 0
M  V30 76 H 8.61747 -0.201538 -1.56109 0
M  V30 77 H 9.58819 0.921693 -3.47493 0
M  V30 78 H 8.50152 1.34017 -4.80714 0
M  V30 79 H 7.71682 3.3469 -3.39351 0
M  V30 80 H 9.06814 2.91661 -2.21632 0
M  V30 81 H 9.3363 3.37028 -5.0829 0
M  V30 82 H 10.5476 2.83042 -3.95028 0
M  V30 END ATOM
M  V30 BEGIN BOND
M  V30 1 1 1 2
M  V30 2 1 2 3
M  V30 3 1 3 4
M  V30 4 1 4 5
M  V30 5 1 5 6
M  V30 6 1 6 7
M  V30 7 1 7 8
M  V30 8 1 8 9
M  V30 9 1 9 10
M  V30 10 1 10 11
M  V30 11 1 11 12
M  V30 12 1 12 13
M  V30 13 1 13 14
M  V30 14 1 14 15
M  V30 15 1 15 16
M  V30 16 1 16 17
M  V30 17 1 17 18
M  V30 18 1 18 19
M  V30 19 1 19 20
M  V30 20 1 20 21
M  V30 21 1 21 22
M  V30 22 1 22 23
M  V30 23 1 23 24
M  V30 24 1 24 25
M  V30 25 1 25 26
M  V30 26 1 26 27
M  V30 27 1 27 28
M  V30 28 1 28 29
M  V30 29 1 29 30
M  V30 30 1 30 31
M  V30 31 1 31 32
M  V30 32 1 32 33
M  V30 33 1 33 34
M  V30 34 1 1 35
M  V30 35 1 1 36
M  V30 36 1 2 37
M  V30 37 1 2 38
M  V30 38 1 3 39
M  V30 39 1 3 40
M  V30 40 1 5 41
M  V30 41 1 5 42
M  V30 42 1 6 43
M  V30 43 1 6 44
M  V30 44 1 8 45
M  V30 45 1 8 46
M  V30 46 1 9 47
M  V30 47 1 9 48
M  V30 48 1 11 49
M  V30 49 1 11 50
M  V30 50 1 12 51
M  V30 51 1 12 52
M  V30 52 1 14 53
M  V30 53 1 14 54
M  V30 54 1 15 55
M  V30 55 1 15 56
M  V30 56 1 17 57
M  V30 57 1 17 58
M  V30 58 1 18 59
M  V30 59 1 18 60
M  V30 60 1 20 61
M  V30 61 1 20 62
M  V30 62 1 21 63
M  V30 63 1 21 64
M  V30 64 1 23 65
M  V30 65 1 23 66
M  V30 66 1 24 67
M  V30 67 1 24 68
M  V30 68 1 26 69
M  V30 69 1 26 70
M  V30 70 1 27 71
M  V30 71 1 27 72
M  V30 72 1 29 73
M  V30 73 1 29 74
M  V30 74 1 30 75
M  V30 75 1 30 76
M  V30 76 1 32 77
M  V30 77 1 32 78
M  V30 78 1 33 79
M  V30 79 1 33 80
M  V30 80 1 34 81
M  V30 81 1 34 82
M  V30 END BOND
M  V30 END CTAB
M  END
