
     RDKit          3D

  0  0  0  0  0  0  0  0  0  0999 V3000
M  V30 BEGIN CTAB
M  V30 COUNTS 39 40 0 0 0
M  V30 BEGIN ATOM
M  V30 1 N 5.25254 -2.55317 0.952784 0
M  V30 2 C 4.56109 -1.45475 0.365154 0
M  V30 3 N 3.39519 -1.16114 0.833219 0
M  V30 4 N 2.59745 -0.133658 0.379722 0
M  V30 5 C 1.2942 -0.245918 0.452578 0
M  V30 6 C 0.504767 0.864056 -0.0385761 0
M  V30 7 C 1.17358 2.01849 -0.482683 0
M  V30 8 C 0.475393 3.1204 -0.907884 0
M  V30 9 C -0.907137 3.09715 -0.900329 0
M  V30 10 C -1.53053 1.96198 -0.464759 0
M  V30 11 C -0.859606 0.806014 -0.0197148 0
M  V30 12 N -1.61215 -0.298834 0.339752 0
M  V30 13 C -2.95672 -0.0284856 0.910858 0
M  V30 14 C -4.03644 -0.365845 -0.0569113 0
M  V30 15 C -3.5253 -1.41358 -1.02773 0
M  V30 16 C -2.69612 -2.37394 -0.18698 0
M  V30 17 C -1.37309 -1.69789 0.221951 0
M  V30 18 N 1.15291 4.28565 -1.35609 0 CHG=1
M  V30 19 O 0.512365 5.26653 -1.73455 0
M  V30 20 O 2.51214 4.30313 -1.36149 0 CHG=-1
M  V30 21 N 5.18328 -0.75607 -0.685308 0
M  V30 22 H 5.26427 -3.51299 0.557551 0
M  V30 23 H 5.7794 -2.38724 1.83231 0
M  V30 24 H 0.961042 -1.15383 0.88999 0
M  V30 25 H 2.26281 2.00602 -0.47699 0
M  V30 26 H -1.45301 3.97565 -1.23844 0
M  V30 27 H -2.60967 1.92233 -0.454557 0
M  V30 28 H -3.06815 0.992112 1.26116 0
M  V30 29 H -3.02786 -0.6614 1.84716 0
M  V30 30 H -4.51011 0.49306 -0.522016 0
M  V30 31 H -4.84865 -0.887082 0.532653 0
M  V30 32 H -2.87263 -0.974776 -1.8006 0
M  V30 33 H -4.34818 -1.99467 -1.46472 0
M  V30 34 H -3.25618 -2.66323 0.704025 0
M  V30 35 H -2.4555 -3.29632 -0.742673 0
M  V30 36 H -1.12555 -2.21069 1.19263 0
M  V30 37 H -0.67927 -1.96791 -0.601817 0
M  V30 38 H 5.69586 0.130863 -0.429448 0
M  V30 39 H 5.17358 -1.05003 -1.68844 0
M  V30 END ATOM
M  V30 BEGIN BOND
M  V30 1 1 1 2
M  V30 2 2 2 3
M  V30 3 1 3 4
M  V30 4 2 4 5
M  V30 5 1 5 6
M  V30 6 2 6 7
M  V30 7 1 7 8
M  V30 8 2 8 9
M  V30 9 1 9 10
M  V30 10 2 10 11
M  V30 11 1 11 12
M  V30 12 1 12 13
M  V30 13 1 13 14
M  V30 14 1 14 15
M  V30 15 1 15 16
M  V30 16 1 16 17
M  V30 17 1 8 18
M  V30 18 2 18 19
M  V30 19 1 18 20
M  V30 20 1 2 21
M  V30 21 1 11 6
M  V30 22 1 17 12
M  V30 23 1 1 22
M  V30 24 1 1 23
M  V30 25 1 5 24
M  V30 26 1 7 25
M  V30 27 1 9 26
M  V30 28 1 10 27
M  V30 29 1 13 28
M  V30 30 1 13 29
M  V30 31 1 14 30
M  V30 32 1 14 31
M  V30 33 1 15 32
M  V30 34 1 15 33
M  V30 35 1 16 34
M  V30 36 1 16 35
M  V30 37 1 17 36
M  V30 38 1 17 37
M  V30 39 1 21 38
M  V30 40 1 21 39
M  V30 END BOND
M  V30 END CTAB
M  END
