
     RDKit          3D

  0  0  0  0  0  0  0  0  0  0999 V3000
M  V30 BEGIN CTAB
M  V30 COUNTS 69 72 0 0 0
M  V30 BEGIN ATOM
M  V30 1 N 5.25571 -1.99322 -2.13309 0
M  V30 2 C 4.00669 -2.11586 -1.39667 0
M  V30 3 C 4.01722 -1.14374 -0.251516 0
M  V30 4 C 2.76235 -1.21409 0.553899 0
M  V30 5 C 2.80634 -0.225979 1.72926 0
M  V30 6 C 1.46815 -0.366163 2.41095 0
M  V30 7 N 0.4578 0.251739 1.52501 0
M  V30 8 C 0.857552 0.387092 0.146607 0
M  V30 9 C 1.56803 -0.870152 -0.307084 0
M  V30 10 C -0.790071 0.634579 2.06051 0
M  V30 11 O -1.01092 0.403485 3.27508 0
M  V30 12 C -1.83261 1.27885 1.28126 0 CFG=2
M  V30 13 C -1.84892 2.78389 1.34981 0
M  V30 14 C -0.679301 3.50453 0.906612 0
M  V30 15 C 0.330281 3.81164 1.79674 0
M  V30 16 C 1.45017 4.51322 1.40548 0
M  V30 17 C 1.57653 4.92086 0.106433 0
M  V30 18 C 0.599901 4.64202 -0.8241 0
M  V30 19 C -0.508411 3.93828 -0.400983 0
M  V30 20 C 0.755158 5.08919 -2.20899 0
M  V30 21 N -0.2668 4.78675 -3.14993 0
M  V30 22 N 1.80211 5.74116 -2.54928 0
M  V30 23 N -3.15711 0.879944 1.81759 0
M  V30 24 S -4.0824 0.113818 0.612903 0
M  V30 25 O -5.45185 -0.27019 1.096 0
M  V30 26 O -4.16552 1.03602 -0.579508 0
M  V30 27 C -3.32311 -1.35499 0.0367194 0
M  V30 28 C -3.59613 -2.52459 0.725089 0
M  V30 29 C -3.05972 -3.73867 0.35858 0
M  V30 30 C -2.22236 -3.77595 -0.735278 0
M  V30 31 C -1.68381 -4.98662 -1.10466 0
M  V30 32 C -1.96855 -6.12883 -0.40764 0
M  V30 33 C -2.80095 -6.07069 0.673662 0
M  V30 34 C -3.35637 -4.86471 1.06664 0
M  V30 35 C -1.95722 -2.62067 -1.40945 0
M  V30 36 C -2.4875 -1.3851 -1.05705 0
M  V30 37 H 5.39669 -2.8756 -2.68931 0
M  V30 38 H 6.05306 -1.95915 -1.45055 0
M  V30 39 H 3.14854 -2.01837 -2.06551 0
M  V30 40 H 3.96469 -3.17172 -1.00112 0
M  V30 41 H 4.92522 -1.28489 0.378479 0
M  V30 42 H 4.09992 -0.10599 -0.639635 0
M  V30 43 H 2.66372 -2.21143 0.995486 0
M  V30 44 H 3.58877 -0.564763 2.45792 0
M  V30 45 H 2.93808 0.802139 1.40662 0
M  V30 46 H 1.42377 0.0893838 3.40041 0
M  V30 47 H 1.22448 -1.45767 2.45452 0
M  V30 48 H -0.0168111 0.493478 -0.55051 0
M  V30 49 H 1.57593 1.23034 -0.0188599 0
M  V30 50 H 0.889942 -1.73588 -0.411048 0
M  V30 51 H 1.93713 -0.630205 -1.33878 0
M  V30 52 H -1.79852 0.963026 0.238819 0
M  V30 53 H -2.75101 3.09409 0.739981 0
M  V30 54 H -2.11453 3.09468 2.39932 0
M  V30 55 H 0.295025 3.51834 2.84475 0
M  V30 56 H 2.24072 4.75453 2.10026 0
M  V30 57 H 2.44365 5.47997 -0.256192 0
M  V30 58 H -1.28266 3.70992 -1.11223 0
M  V30 59 H -1.28671 4.87991 -2.97705 0
M  V30 60 H 0.0364687 4.44434 -4.0871 0
M  V30 61 H 1.99956 6.09595 -3.49565 0
M  V30 62 H -3.62928 1.73011 2.13876 0
M  V30 63 H -4.252 -2.4959 1.58161 0
M  V30 64 H -1.02801 -4.97259 -1.97366 0
M  V30 65 H -1.52394 -7.06096 -0.731231 0
M  V30 66 H -3.03364 -6.96093 1.23139 0
M  V30 67 H -4.02308 -4.80946 1.93066 0
M  V30 68 H -1.29717 -2.64139 -2.27375 0
M  V30 69 H -2.27238 -0.490132 -1.59488 0
M  V30 END ATOM
M  V30 BEGIN BOND
M  V30 1 1 1 2
M  V30 2 1 2 3
M  V30 3 1 3 4
M  V30 4 1 4 5
M  V30 5 1 5 6
M  V30 6 1 6 7
M  V30 7 1 7 8
M  V30 8 1 8 9
M  V30 9 1 7 10
M  V30 10 2 10 11
M  V30 11 1 10 12
M  V30 12 1 12 13
M  V30 13 1 13 14
M  V30 14 2 14 15
M  V30 15 1 15 16
M  V30 16 2 16 17
M  V30 17 1 17 18
M  V30 18 2 18 19
M  V30 19 1 18 20
M  V30 20 1 20 21
M  V30 21 2 20 22 CFG=2
M  V30 22 1 12 23
M  V30 23 1 23 24
M  V30 24 2 24 25
M  V30 25 2 24 26
M  V30 26 1 24 27
M  V30 27 2 27 28
M  V30 28 1 28 29
M  V30 29 2 29 30
M  V30 30 1 30 31
M  V30 31 2 31 32
M  V30 32 1 32 33
M  V30 33 2 33 34
M  V30 34 1 30 35
M  V30 35 2 35 36
M  V30 36 1 9 4
M  V30 37 1 19 14
M  V30 38 1 36 27
M  V30 39 1 34 29
M  V30 40 1 1 37
M  V30 41 1 1 38
M  V30 42 1 2 39
M  V30 43 1 2 40
M  V30 44 1 3 41
M  V30 45 1 3 42
M  V30 46 1 4 43
M  V30 47 1 5 44
M  V30 48 1 5 45
M  V30 49 1 6 46
M  V30 50 1 6 47
M  V30 51 1 8 48
M  V30 52 1 8 49
M  V30 53 1 9 50
M  V30 54 1 9 51
M  V30 55 1 12 52 CFG=3
M  V30 56 1 13 53
M  V30 57 1 13 54
M  V30 58 1 15 55
M  V30 59 1 16 56
M  V30 60 1 17 57
M  V30 61 1 19 58
M  V30 62 1 21 59
M  V30 63 1 21 60
M  V30 64 1 22 61
M  V30 65 1 23 62
M  V30 66 1 28 63
M  V30 67 1 31 64
M  V30 68 1 32 65
M  V30 69 1 33 66
M  V30 70 1 34 67
M  V30 71 1 35 68
M  V30 72 1 36 69
M  V30 END BOND
M  V30 END CTAB
M  END
