
     RDKit          3D

  0  0  0  0  0  0  0  0  0  0999 V3000
M  V30 BEGIN CTAB
M  V30 COUNTS 33 35 0 0 0
M  V30 BEGIN ATOM
M  V30 1 N -6.07025 0.93362 0.126744 0
M  V30 2 C -4.75543 0.66621 -0.339271 0
M  V30 3 C -4.37839 -0.64416 -0.460699 0
M  V30 4 C -3.1113 -0.953265 -0.909277 0
M  V30 5 N -2.72524 -2.32124 -1.03056 0
M  V30 6 N -2.25013 0.0342884 -1.22604 0
M  V30 7 C -2.62454 1.31174 -1.10517 0
M  V30 8 N -3.86775 1.61973 -0.665006 0
M  V30 9 S -1.44858 2.58229 -1.53866 0
M  V30 10 C -0.493742 2.96911 -0.0458596 0
M  V30 11 C 0.330196 1.75266 0.304585 0
M  V30 12 N -0.0242924 0.730446 1.09823 0
M  V30 13 N 0.986376 -0.119259 1.1351 0
M  V30 14 C 1.99132 0.348089 0.370116 0
M  V30 15 O 1.54326 1.4814 -0.108409 0
M  V30 16 C 3.27463 -0.301924 0.154597 0
M  V30 17 C 4.2796 0.204944 -0.638258 0
M  V30 18 C 5.48697 -0.450505 -0.812651 0
M  V30 19 C 5.7121 -1.66328 -0.174134 0
M  V30 20 C 4.71736 -2.17378 0.616031 0
M  V30 21 C 3.52403 -1.50286 0.774239 0
M  V30 22 Br 2.16595 -2.27427 1.89752 0
M  V30 23 H -6.21076 1.26589 1.10299 0
M  V30 24 H -6.88195 0.797589 -0.505068 0
M  V30 25 H -5.03204 -1.46969 -0.219557 0
M  V30 26 H -2.80287 -2.78297 -1.94368 0
M  V30 27 H -2.36796 -2.83017 -0.178049 0
M  V30 28 H -1.14007 3.19871 0.802808 0
M  V30 29 H 0.232376 3.7905 -0.223168 0
M  V30 30 H 4.11581 1.14339 -1.13773 0
M  V30 31 H 6.28268 -0.0455712 -1.44254 0
M  V30 32 H 6.67241 -2.18035 -0.314946 0
M  V30 33 H 4.87023 -3.11731 1.12337 0
M  V30 END ATOM
M  V30 BEGIN BOND
M  V30 1 1 1 2
M  V30 2 2 2 3
M  V30 3 1 3 4
M  V30 4 1 4 5
M  V30 5 2 4 6
M  V30 6 1 6 7
M  V30 7 2 7 8
M  V30 8 1 7 9
M  V30 9 1 9 10
M  V30 10 1 10 11
M  V30 11 2 11 12
M  V30 12 1 12 13
M  V30 13 2 13 14
M  V30 14 1 14 15
M  V30 15 1 14 16
M  V30 16 2 16 17
M  V30 17 1 17 18
M  V30 18 2 18 19
M  V30 19 1 19 20
M  V30 20 2 20 21
M  V30 21 1 21 22
M  V30 22 1 8 2
M  V30 23 1 15 11
M  V30 24 1 21 16
M  V30 25 1 1 23
M  V30 26 1 1 24
M  V30 27 1 3 25
M  V30 28 1 5 26
M  V30 29 1 5 27
M  V30 30 1 10 28
M  V30 31 1 10 29
M  V30 32 1 17 30
M  V30 33 1 18 31
M  V30 34 1 19 32
M  V30 35 1 20 33
M  V30 END BOND
M  V30 END CTAB
M  END
