
     RDKit          3D

  0  0  0  0  0  0  0  0  0  0999 V3000
M  V30 BEGIN CTAB
M  V30 COUNTS 25 25 0 0 0
M  V30 BEGIN ATOM
M  V30 1 C 2.7116 0.0820126 1.02017 0
M  V30 2 C 1.89228 -0.0989074 -0.277834 0
M  V30 3 C 0.43666 -0.0841693 -0.0593763 0
M  V30 4 N -0.396138 -1.10106 0.220068 0
M  V30 5 N -1.68467 -0.704613 0.147057 0
M  V30 6 C -1.6664 0.629833 -0.192266 0
M  V30 7 C -0.35748 1.01724 -0.323621 0
M  V30 8 N 0.0596342 2.33752 -0.579744 0
M  V30 9 N -2.83259 1.39727 -0.30678 0
M  V30 10 C -2.85006 -1.52706 0.320077 0
M  V30 11 C 2.28172 -1.53069 -0.74314 0
M  V30 12 H 2.59629 -0.763652 1.68795 0
M  V30 13 H 3.74915 0.261568 0.681101 0
M  V30 14 H 2.36053 1.01069 1.53474 0
M  V30 15 H 2.19014 0.613625 -1.04306 0
M  V30 16 H 0.338747 2.89431 0.281578 0
M  V30 17 H 0.11127 2.7202 -1.5326 0
M  V30 18 H -2.76341 2.45422 -0.149097 0
M  V30 19 H -3.79684 1.04713 -0.53117 0
M  V30 20 H -3.46695 -1.54681 -0.631229 0
M  V30 21 H -3.54158 -1.03299 1.05819 0
M  V30 22 H -2.583 -2.54466 0.574188 0
M  V30 23 H 1.4392 -2.02696 -1.19024 0
M  V30 24 H 3.18543 -1.43752 -1.34847 0
M  V30 25 H 2.58646 -2.06654 0.20659 0
M  V30 END ATOM
M  V30 BEGIN BOND
M  V30 1 1 1 2
M  V30 2 1 2 3
M  V30 3 2 3 4
M  V30 4 1 4 5
M  V30 5 1 5 6
M  V30 6 2 6 7
M  V30 7 1 7 8
M  V30 8 1 6 9
M  V30 9 1 5 10
M  V30 10 1 2 11
M  V30 11 1 7 3
M  V30 12 1 1 12
M  V30 13 1 1 13
M  V30 14 1 1 14
M  V30 15 1 2 15
M  V30 16 1 8 16
M  V30 17 1 8 17
M  V30 18 1 9 18
M  V30 19 1 9 19
M  V30 20 1 10 20
M  V30 21 1 10 21
M  V30 22 1 10 22
M  V30 23 1 11 23
M  V30 24 1 11 24
M  V30 25 1 11 25
M  V30 END BOND
M  V30 END CTAB
M  END
