
     RDKit          3D

  0  0  0  0  0  0  0  0  0  0999 V3000
M  V30 BEGIN CTAB
M  V30 COUNTS 18 18 0 0 0
M  V30 BEGIN ATOM
M  V30 1 N 2.62668 1.06601 0.668619 0
M  V30 2 N 2.23808 -0.0615721 0.0456899 0
M  V30 3 C 1.13952 -0.572511 -0.268682 0
M  V30 4 N 1.28663 -1.85826 -0.958448 0
M  V30 5 C -0.199986 -0.11212 -0.0664701 0
M  V30 6 C -1.29341 -0.865779 -0.511851 0
M  V30 7 C -2.60071 -0.479967 -0.34881 0
M  V30 8 N -2.84781 0.682139 0.270687 0
M  V30 9 C -1.84017 1.46235 0.727429 0
M  V30 10 C -0.512796 1.05465 0.553261 0
M  V30 11 H 3.11313 1.82021 0.104305 0
M  V30 12 H 2.50256 1.30161 1.68786 0
M  V30 13 H 1.32666 -1.92225 -1.98692 0
M  V30 14 H 1.34623 -2.68606 -0.335517 0
M  V30 15 H -1.09078 -1.80465 -1.01226 0
M  V30 16 H -3.39721 -1.12368 -0.724437 0
M  V30 17 H -2.03628 2.3946 1.22448 0
M  V30 18 H 0.239661 1.70528 0.931067 0
M  V30 END ATOM
M  V30 BEGIN BOND
M  V30 1 1 1 2
M  V30 2 2 2 3 CFG=2
M  V30 3 1 3 4
M  V30 4 1 3 5
M  V30 5 2 5 6
M  V30 6 1 6 7
M  V30 7 2 7 8
M  V30 8 1 8 9
M  V30 9 2 9 10
M  V30 10 1 10 5
M  V30 11 1 1 11
M  V30 12 1 1 12
M  V30 13 1 4 13
M  V30 14 1 4 14
M  V30 15 1 6 15
M  V30 16 1 7 16
M  V30 17 1 9 17
M  V30 18 1 10 18
M  V30 END BOND
M  V30 END CTAB
M  END
