
     RDKit          3D

  0  0  0  0  0  0  0  0  0  0999 V3000
M  V30 BEGIN CTAB
M  V30 COUNTS 24 24 0 0 0
M  V30 BEGIN ATOM
M  V30 1 N -2.40779 1.18015 -0.682142 0
M  V30 2 C -2.44711 -0.22754 -1.01687 0
M  V30 3 C -1.60245 -0.943452 0.0225563 0
M  V30 4 C -0.200531 -0.488784 0.0361967 0
M  V30 5 C 0.589578 -0.720924 1.13294 0
M  V30 6 C 1.90369 -0.286516 1.11958 0
M  V30 7 C 2.4283 0.372648 0.0264377 0
M  V30 8 N 1.63921 0.592122 -1.04133 0
M  V30 9 C 0.339415 0.16908 -1.04308 0
M  V30 10 C 3.83355 0.850207 -0.0168952 0
M  V30 11 N -2.27361 -0.665581 1.28755 0
M  V30 12 H -3.23367 1.7096 -0.990383 0
M  V30 13 H -2.05913 1.38472 0.257395 0
M  V30 14 H -2.17189 -0.457013 -2.04034 0
M  V30 15 H -3.49498 -0.568074 -0.838878 0
M  V30 16 H -1.6035 -2.04427 -0.116168 0
M  V30 17 H 0.183231 -1.24369 2.00694 0
M  V30 18 H 2.55772 -0.445854 1.95393 0
M  V30 19 H -0.297738 0.343655 -1.90474 0
M  V30 20 H 3.86093 1.89854 -0.379501 0
M  V30 21 H 4.42431 0.23428 -0.741075 0
M  V30 22 H 4.29011 0.791561 1.0019 0
M  V30 23 H -1.8234 0.0969222 1.82241 0
M  V30 24 H -2.43425 -1.53179 1.83928 0
M  V30 END ATOM
M  V30 BEGIN BOND
M  V30 1 1 1 2
M  V30 2 1 2 3
M  V30 3 1 3 4
M  V30 4 2 4 5
M  V30 5 1 5 6
M  V30 6 2 6 7
M  V30 7 1 7 8
M  V30 8 2 8 9
M  V30 9 1 7 10
M  V30 10 1 3 11
M  V30 11 1 9 4
M  V30 12 1 1 12
M  V30 13 1 1 13
M  V30 14 1 2 14
M  V30 15 1 2 15
M  V30 16 1 3 16
M  V30 17 1 5 17
M  V30 18 1 6 18
M  V30 19 1 9 19
M  V30 20 1 10 20
M  V30 21 1 10 21
M  V30 22 1 10 22
M  V30 23 1 11 23
M  V30 24 1 11 24
M  V30 END BOND
M  V30 END CTAB
M  END
