
     RDKit          3D

  0  0  0  0  0  0  0  0  0  0999 V3000
M  V30 BEGIN CTAB
M  V30 COUNTS 50 51 0 0 0
M  V30 BEGIN ATOM
M  V30 1 C -4.56675 2.17061 -0.493611 0
M  V30 2 C -3.83718 1.14775 -1.34153 0
M  V30 3 C -2.68427 0.624237 -0.447632 0
M  V30 4 C -1.89861 -0.382656 -1.16724 0
M  V30 5 C -0.755228 -1.06038 -0.530844 0
M  V30 6 C -1.07089 -1.8351 0.708127 0
M  V30 7 C -2.1044 -2.94535 0.396759 0
M  V30 8 C 0.522499 -0.303812 -0.560415 0
M  V30 9 C 0.613097 0.994818 0.102189 0
M  V30 10 C 0.397104 1.18938 1.45609 0
M  V30 11 C 0.512628 2.43318 2.00509 0
M  V30 12 C 0.841683 3.56296 1.2891 0
M  V30 13 N 0.951195 4.84162 1.90368 0
M  V30 14 C 1.05833 3.38174 -0.0562111 0
M  V30 15 C 0.942641 2.11795 -0.622921 0
M  V30 16 C 1.74996 -1.14751 -0.426802 0
M  V30 17 C 2.47706 -1.57368 -1.54221 0
M  V30 18 C 3.61272 -2.3276 -1.47686 0
M  V30 19 C 4.11374 -2.71811 -0.262386 0
M  V30 20 N 5.30375 -3.50975 -0.161218 0
M  V30 21 C 3.42345 -2.31699 0.869198 0
M  V30 22 C 2.2806 -1.55673 0.772752 0
M  V30 23 H -4.8049 1.71172 0.502766 0
M  V30 24 H -3.88998 3.03057 -0.269621 0
M  V30 25 H -5.46745 2.54505 -0.996191 0
M  V30 26 H -4.50313 0.305161 -1.55088 0
M  V30 27 H -3.45515 1.5949 -2.25781 0
M  V30 28 H -2.1242 1.58427 -0.236025 0
M  V30 29 H -3.16523 0.330515 0.477741 0
M  V30 30 H -2.64629 -1.11598 -1.61023 0
M  V30 31 H -1.50119 0.117365 -2.10528 0
M  V30 32 H -0.546639 -1.94488 -1.25019 0
M  V30 33 H -1.46511 -1.31107 1.55617 0
M  V30 34 H -0.175993 -2.40681 1.00584 0
M  V30 35 H -2.95804 -2.54281 -0.1579 0
M  V30 36 H -1.61539 -3.78631 -0.137033 0
M  V30 37 H -2.4916 -3.35263 1.35416 0
M  V30 38 H 0.590915 -0.0110826 -1.695 0
M  V30 39 H 0.134304 0.338933 2.0662 0
M  V30 40 H 0.339938 2.57775 3.07746 0
M  V30 41 H 1.1863 4.97129 2.90966 0
M  V30 42 H 0.787102 5.67481 1.31222 0
M  V30 43 H 1.32076 4.23602 -0.671557 0
M  V30 44 H 1.13662 2.07203 -1.71305 0
M  V30 45 H 2.13997 -1.30177 -2.55254 0
M  V30 46 H 4.16916 -2.65246 -2.35706 0
M  V30 47 H 6.06018 -3.11929 0.441821 0
M  V30 48 H 5.42927 -4.41731 -0.647321 0
M  V30 49 H 3.83257 -2.63393 1.82133 0
M  V30 50 H 1.80008 -1.28066 1.6913 0
M  V30 END ATOM
M  V30 BEGIN BOND
M  V30 1 1 1 2
M  V30 2 1 2 3
M  V30 3 1 3 4
M  V30 4 1 4 5
M  V30 5 1 5 6
M  V30 6 1 6 7
M  V30 7 1 5 8
M  V30 8 1 8 9
M  V30 9 2 9 10
M  V30 10 1 10 11
M  V30 11 2 11 12
M  V30 12 1 12 13
M  V30 13 1 12 14
M  V30 14 2 14 15
M  V30 15 1 8 16
M  V30 16 2 16 17
M  V30 17 1 17 18
M  V30 18 2 18 19
M  V30 19 1 19 20
M  V30 20 1 19 21
M  V30 21 2 21 22
M  V30 22 1 15 9
M  V30 23 1 22 16
M  V30 24 1 1 23
M  V30 25 1 1 24
M  V30 26 1 1 25
M  V30 27 1 2 26
M  V30 28 1 2 27
M  V30 29 1 3 28
M  V30 30 1 3 29
M  V30 31 1 4 30
M  V30 32 1 4 31
M  V30 33 1 5 32
M  V30 34 1 6 33
M  V30 35 1 6 34
M  V30 36 1 7 35
M  V30 37 1 7 36
M  V30 38 1 7 37
M  V30 39 1 8 38
M  V30 40 1 10 39
M  V30 41 1 11 40
M  V30 42 1 13 41
M  V30 43 1 13 42
M  V30 44 1 14 43
M  V30 45 1 15 44
M  V30 46 1 17 45
M  V30 47 1 18 46
M  V30 48 1 20 47
M  V30 49 1 20 48
M  V30 50 1 21 49
M  V30 51 1 22 50
M  V30 END BOND
M  V30 END CTAB
M  END
