
     RDKit          3D

  0  0  0  0  0  0  0  0  0  0999 V3000
M  V30 BEGIN CTAB
M  V30 COUNTS 50 53 0 0 0
M  V30 BEGIN ATOM
M  V30 1 N 6.62108 2.3447 -1.1575 0
M  V30 2 C 5.91275 1.16502 -0.792884 0
M  V30 3 N 6.61085 0.117437 -0.330851 0
M  V30 4 C 6.01085 -1.01906 0.0289933 0
M  V30 5 N 6.74771 -2.12958 0.518435 0
M  V30 6 N 4.66621 -1.11059 -0.0770677 0
M  V30 7 C 3.90544 -0.100112 -0.531839 0
M  V30 8 C 4.54107 1.06487 -0.89856 0
M  V30 9 N 2.50117 -0.252917 -0.621351 0
M  V30 10 C 1.87508 -1.48889 -0.227083 0
M  V30 11 C 0.699442 -1.22166 0.691938 0
M  V30 12 C -0.256627 -0.232469 0.0845933 0
M  V30 13 C 0.243248 0.283618 -1.23283 0
M  V30 14 C 1.6491 0.809332 -1.10509 0
M  V30 15 C -1.63909 -0.85605 -0.151121 0
M  V30 16 N -2.53966 0.301864 -0.21212 0
M  V30 17 C -1.89392 1.38165 0.454623 0
M  V30 18 O -2.3268 2.56403 0.575175 0
M  V30 19 C -0.599297 0.901259 1.00384 0
M  V30 20 C -3.8441 0.402778 -0.81463 0
M  V30 21 C -4.9463 0.0668377 0.0947341 0
M  V30 22 C -5.36798 -1.246 0.154626 0
M  V30 23 C -6.40548 -1.53605 1.01697 0
M  V30 24 C -7.01246 -0.570846 1.79748 0
M  V30 25 C -6.59131 0.742218 1.73812 0
M  V30 26 C -5.55737 1.03357 0.87929 0
M  V30 27 H 6.9229 2.98496 -0.390467 0
M  V30 28 H 6.81428 2.52988 -2.17259 0
M  V30 29 H 7.02496 -2.893 -0.130132 0
M  V30 30 H 6.99591 -2.15311 1.52791 0
M  V30 31 H 3.98635 1.91449 -1.27208 0
M  V30 32 H 1.46527 -2.00095 -1.11916 0
M  V30 33 H 2.57921 -2.12918 0.348273 0
M  V30 34 H 1.12562 -0.869902 1.666 0
M  V30 35 H 0.194757 -2.18661 0.918681 0
M  V30 36 H -0.438353 1.06832 -1.59593 0
M  V30 37 H 0.280617 -0.552278 -1.96951 0
M  V30 38 H 2.02797 1.05479 -2.14037 0
M  V30 39 H 1.72471 1.73638 -0.520843 0
M  V30 40 H -1.57776 -1.39003 -1.09882 0
M  V30 41 H -1.85568 -1.48721 0.716242 0
M  V30 42 H 0.19161 1.67394 0.951705 0
M  V30 43 H -0.755709 0.553976 2.04316 0
M  V30 44 H -3.94938 -0.236227 -1.71786 0
M  V30 45 H -3.97622 1.45749 -1.19737 0
M  V30 46 H -4.92043 -2.0357 -0.439856 0
M  V30 47 H -6.73096 -2.58563 1.05437 0
M  V30 48 H -7.82545 -0.869505 2.45586 0
M  V30 49 H -7.07776 1.49398 2.35836 0
M  V30 50 H -5.23006 2.07627 0.838568 0
M  V30 END ATOM
M  V30 BEGIN BOND
M  V30 1 1 1 2
M  V30 2 2 2 3
M  V30 3 1 3 4
M  V30 4 1 4 5
M  V30 5 2 4 6
M  V30 6 1 6 7
M  V30 7 2 7 8
M  V30 8 1 7 9
M  V30 9 1 9 10
M  V30 10 1 10 11
M  V30 11 1 11 12
M  V30 12 1 12 13
M  V30 13 1 13 14
M  V30 14 1 12 15
M  V30 15 1 15 16
M  V30 16 1 16 17
M  V30 17 2 17 18
M  V30 18 1 17 19
M  V30 19 1 16 20
M  V30 20 1 20 21
M  V30 21 2 21 22
M  V30 22 1 22 23
M  V30 23 2 23 24
M  V30 24 1 24 25
M  V30 25 2 25 26
M  V30 26 1 8 2
M  V30 27 1 14 9
M  V30 28 1 26 21
M  V30 29 1 19 12
M  V30 30 1 1 27
M  V30 31 1 1 28
M  V30 32 1 5 29
M  V30 33 1 5 30
M  V30 34 1 8 31
M  V30 35 1 10 32
M  V30 36 1 10 33
M  V30 37 1 11 34
M  V30 38 1 11 35
M  V30 39 1 13 36
M  V30 40 1 13 37
M  V30 41 1 14 38
M  V30 42 1 14 39
M  V30 43 1 15 40
M  V30 44 1 15 41
M  V30 45 1 19 42
M  V30 46 1 19 43
M  V30 47 1 20 44
M  V30 48 1 20 45
M  V30 49 1 22 46
M  V30 50 1 23 47
M  V30 51 1 24 48
M  V30 52 1 25 49
M  V30 53 1 26 50
M  V30 END BOND
M  V30 END CTAB
M  END
