
     RDKit          3D

  0  0  0  0  0  0  0  0  0  0999 V3000
M  V30 BEGIN CTAB
M  V30 COUNTS 24 25 0 0 0
M  V30 BEGIN ATOM
M  V30 1 N 1.33201 1.92733 0.690584 0
M  V30 2 C 1.67318 0.612118 0.324592 0
M  V30 3 C 3.00031 0.228824 0.450635 0
M  V30 4 N 3.36656 -1.02237 0.118401 0
M  V30 5 C 2.44568 -1.87918 -0.327695 0
M  V30 6 C 1.10536 -1.52131 -0.464567 0
M  V30 7 C 0.707898 -0.244424 -0.130653 0
M  V30 8 C -0.668975 0.179468 -0.269471 0
M  V30 9 C -1.72823 -0.583335 0.239049 0
M  V30 10 N -1.45734 -1.78352 0.919839 0
M  V30 11 C -3.02499 -0.150476 0.0755328 0
M  V30 12 N -3.31619 0.993582 -0.563008 0
M  V30 13 C -2.34209 1.76145 -1.06907 0
M  V30 14 C -1.02999 1.34299 -0.914957 0
M  V30 15 H 0.769899 2.09383 1.53972 0
M  V30 16 H 1.64196 2.72284 0.111934 0
M  V30 17 H 3.75293 0.937501 0.821062 0
M  V30 18 H 2.72636 -2.88183 -0.591459 0
M  V30 19 H 0.386744 -2.22976 -0.824806 0
M  V30 20 H -1.90883 -2.68102 0.589336 0
M  V30 21 H -0.812555 -1.74262 1.73431 0
M  V30 22 H -3.86118 -0.74675 0.473324 0
M  V30 23 H -2.5341 2.69668 -1.59499 0
M  V30 24 H -0.224439 1.96998 -1.33765 0
M  V30 END ATOM
M  V30 BEGIN BOND
M  V30 1 1 1 2
M  V30 2 2 2 3
M  V30 3 1 3 4
M  V30 4 2 4 5
M  V30 5 1 5 6
M  V30 6 2 6 7
M  V30 7 1 7 8
M  V30 8 2 8 9
M  V30 9 1 9 10
M  V30 10 1 9 11
M  V30 11 2 11 12
M  V30 12 1 12 13
M  V30 13 2 13 14
M  V30 14 1 7 2
M  V30 15 1 14 8
M  V30 16 1 1 15
M  V30 17 1 1 16
M  V30 18 1 3 17
M  V30 19 1 5 18
M  V30 20 1 6 19
M  V30 21 1 10 20
M  V30 22 1 10 21
M  V30 23 1 11 22
M  V30 24 1 13 23
M  V30 25 1 14 24
M  V30 END BOND
M  V30 END CTAB
M  END
