
     RDKit          3D

  0  0  0  0  0  0  0  0  0  0999 V3000
M  V30 BEGIN CTAB
M  V30 COUNTS 23 23 0 0 0
M  V30 BEGIN ATOM
M  V30 1 N 3.87858 1.02603 0.179444 0
M  V30 2 N 2.57022 0.704776 -0.132713 0
M  V30 3 C 1.98722 -0.481635 0.308058 0
M  V30 4 O 2.75943 -1.25685 1.0102 0
M  V30 5 C 0.620465 -0.935709 0.0582834 0
M  V30 6 C 0.317336 -2.29362 -0.0981525 0
M  V30 7 N -0.986841 -2.38648 -0.373553 0
M  V30 8 N -1.53109 -1.16302 -0.402679 0
M  V30 9 C -0.558489 -0.263351 -0.137262 0
M  V30 10 C -0.723111 1.19696 -0.021241 0
M  V30 11 N -2.09885 1.6247 -0.263074 0
M  V30 12 C -2.93171 -0.895792 -0.679256 0
M  V30 13 H 4.35879 0.40369 0.811457 0
M  V30 14 H 4.41495 1.45005 -0.602769 0
M  V30 15 H 2.05713 1.37916 -0.711564 0
M  V30 16 H 1.05168 -3.10758 -0.00302447 0
M  V30 17 H -0.479526 1.54278 1.03443 0
M  V30 18 H -0.129125 1.76772 -0.742502 0
M  V30 19 H -2.39333 2.33127 0.46821 0
M  V30 20 H -2.21357 2.00286 -1.24663 0
M  V30 21 H -3.42524 -1.87694 -0.947104 0
M  V30 22 H -3.46719 -0.49379 0.209822 0
M  V30 23 H -3.07772 -0.275234 -1.5952 0
M  V30 END ATOM
M  V30 BEGIN BOND
M  V30 1 1 1 2
M  V30 2 1 2 3
M  V30 3 2 3 4
M  V30 4 1 3 5
M  V30 5 1 5 6
M  V30 6 2 6 7
M  V30 7 1 7 8
M  V30 8 1 8 9
M  V30 9 1 9 10
M  V30 10 1 10 11
M  V30 11 1 8 12
M  V30 12 2 9 5
M  V30 13 1 1 13
M  V30 14 1 1 14
M  V30 15 1 2 15
M  V30 16 1 6 16
M  V30 17 1 10 17
M  V30 18 1 10 18
M  V30 19 1 11 19
M  V30 20 1 11 20
M  V30 21 1 12 21
M  V30 22 1 12 22
M  V30 23 1 12 23
M  V30 END BOND
M  V30 END CTAB
M  END
