
     RDKit          3D

  0  0  0  0  0  0  0  0  0  0999 V3000
M  V30 BEGIN CTAB
M  V30 COUNTS 24 23 0 0 0
M  V30 BEGIN ATOM
M  V30 1 C -1.68122 -0.261438 -1.7233 0
M  V30 2 C -0.952128 -0.517916 -0.388054 0
M  V30 3 C -1.72656 0.164014 0.71836 0
M  V30 4 N -3.08417 -0.34006 0.809543 0
M  V30 5 C 0.417191 0.114968 -0.459689 0
M  V30 6 C 1.16268 -0.111409 0.806878 0
M  V30 7 C 2.55119 0.522042 0.70516 0
M  V30 8 N 3.27575 -0.0814039 -0.395989 0
M  V30 9 H -2.31296 0.619355 -1.58948 0
M  V30 10 H -0.913941 -0.0463554 -2.50898 0
M  V30 11 H -2.32652 -1.1219 -1.98301 0
M  V30 12 H -0.89668 -1.61125 -0.234469 0
M  V30 13 H -1.72677 1.24872 0.524476 0
M  V30 14 H -1.2476 -0.0183538 1.69925 0
M  V30 15 H -3.64373 0.42222 1.27298 0
M  V30 16 H -3.14915 -1.24977 1.27908 0
M  V30 17 H 1.02393 -0.291824 -1.29559 0
M  V30 18 H 0.354052 1.21034 -0.651301 0
M  V30 19 H 0.684334 0.418337 1.65974 0
M  V30 20 H 1.28063 -1.17528 1.00475 0
M  V30 21 H 3.09613 0.218364 1.63659 0
M  V30 22 H 2.50959 1.60935 0.62945 0
M  V30 23 H 4.30114 0.00367507 -0.196666 0
M  V30 24 H 3.00482 0.275579 -1.31972 0
M  V30 END ATOM
M  V30 BEGIN BOND
M  V30 1 1 1 2
M  V30 2 1 2 3
M  V30 3 1 3 4
M  V30 4 1 2 5
M  V30 5 1 5 6
M  V30 6 1 6 7
M  V30 7 1 7 8
M  V30 8 1 1 9
M  V30 9 1 1 10
M  V30 10 1 1 11
M  V30 11 1 2 12
M  V30 12 1 3 13
M  V30 13 1 3 14
M  V30 14 1 4 15
M  V30 15 1 4 16
M  V30 16 1 5 17
M  V30 17 1 5 18
M  V30 18 1 6 19
M  V30 19 1 6 20
M  V30 20 1 7 21
M  V30 21 1 7 22
M  V30 22 1 8 23
M  V30 23 1 8 24
M  V30 END BOND
M  V30 END CTAB
M  END
