
     RDKit          3D

  0  0  0  0  0  0  0  0  0  0999 V3000
M  V30 BEGIN CTAB
M  V30 COUNTS 129 135 0 0 0
M  V30 BEGIN ATOM
M  V30 1 C -6.42777 0.418654 -0.0783387 0 CFG=2
M  V30 2 C -6.87852 1.12547 -1.28357 0
M  V30 3 C -8.36172 1.36673 -1.23663 0 CFG=2
M  V30 4 C -8.70182 2.30852 -2.44525 0
M  V30 5 C -8.62705 2.20139 -0.0274947 0
M  V30 6 C -8.15106 1.6801 1.26072 0
M  V30 7 C -6.82468 0.995113 1.25279 0 CFG=1
M  V30 8 C -7.00046 -0.206365 2.21526 0
M  V30 9 C -5.71681 1.81321 1.80927 0
M  V30 10 C -4.61229 2.23243 0.915797 0
M  V30 11 C -3.9331 1.17874 0.108209 0 CFG=2
M  V30 12 C -3.76053 1.71001 -1.2959 0
M  V30 13 C -4.98315 0.0952297 -0.0105099 0
M  V30 14 C -4.63186 -1.17377 -0.0517755 0
M  V30 15 C -3.24694 -1.62612 0.00781054 0
M  V30 16 O -3.07152 -2.87108 0.0681876 0
M  V30 17 C -2.20687 -0.604893 -0.00778585 0 CFG=2
M  V30 18 C -0.836571 -1.12994 0.288913 0 CFG=1
M  V30 19 C -0.787096 -2.14985 1.37272 0
M  V30 20 C -0.402429 -1.90398 -0.981614 0
M  V30 21 C 0.988604 -2.40201 -0.877247 0
M  V30 22 C 2.02701 -1.29977 -0.677421 0 CFG=2
M  V30 23 O 3.22827 -1.9194 -0.315827 0
M  V30 24 C 4.16751 -1.86963 -1.36019 0 CFG=2
M  V30 25 O 4.11223 -3.14462 -1.91004 0
M  V30 26 C 5.12289 -4.00722 -1.85405 0 CFG=1
M  V30 27 C 6.5145 -3.47554 -2.1023 0 CFG=1
M  V30 28 O 6.95615 -3.92842 -3.33636 0
M  V30 29 C 6.39967 -1.96837 -2.20521 0 CFG=2
M  V30 30 O 7.55103 -1.30055 -2.38229 0
M  V30 31 C 5.56036 -1.53437 -0.981514 0 CFG=1
M  V30 32 O 5.90382 -0.235481 -0.780997 0
M  V30 33 C 6.48023 0.084581 0.450917 0 CFG=2
M  V30 34 O 5.63704 0.966782 1.03495 0
M  V30 35 C 5.90091 2.2564 1.21817 0 CFG=1
M  V30 36 C 7.25225 2.61962 1.79168 0 CFG=1
M  V30 37 O 7.0723 2.805 3.17657 0
M  V30 38 C 8.17254 1.48148 1.60919 0 CFG=2
M  V30 39 O 9.47273 1.95876 1.44793 0
M  V30 40 C 7.86162 0.637624 0.381072 0 CFG=1
M  V30 41 O 8.84668 -0.387199 0.498136 0
M  V30 42 C 5.78824 3.01297 -0.0572112 0
M  V30 43 O 5.4804 2.51859 -1.16711 0
M  V30 44 N 6.04239 4.4219 -0.0673257 0
M  V30 45 N 5.95743 5.19337 -1.21895 0
M  V30 46 C 5.14088 -4.729 -0.562379 0
M  V30 47 O 4.25364 -4.5394 0.290435 0
M  V30 48 N 6.18248 -5.64422 -0.300778 0
M  V30 49 N 6.27503 -6.37047 0.898661 0
M  V30 50 C 1.60597 -0.330066 0.356505 0
M  V30 51 C 2.16706 -0.572014 1.72377 0
M  V30 52 C 2.24637 1.01804 -0.0647254 0
M  V30 53 C 0.144625 -0.0230588 0.319767 0 CFG=2
M  V30 54 C -0.238452 1.12395 1.20857 0
M  V30 55 C -1.53364 1.62532 0.616591 0
M  V30 56 C -2.65388 0.61954 0.70567 0 CFG=1
M  V30 57 C -2.82823 0.455382 2.19827 0
M  V30 58 C -9.21309 0.199833 -1.39595 0
M  V30 59 O -8.79152 -0.919894 -1.663 0
M  V30 60 O -10.5821 0.369634 -1.23713 0
M  V30 61 C -11.5033 -0.691947 -1.37074 0
M  V30 62 H -7.00267 -0.540933 -0.136977 0
M  V30 63 H -6.45375 2.12951 -1.45316 0
M  V30 64 H -6.72599 0.451269 -2.15953 0
M  V30 65 H -9.63704 2.84554 -2.24047 0
M  V30 66 H -7.884 3.02821 -2.58692 0
M  V30 67 H -8.85849 1.68818 -3.35124 0
M  V30 68 H -9.70831 2.44199 0.0447165 0
M  V30 69 H -8.12693 3.19774 -0.21048 0
M  V30 70 H -8.98111 1.07044 1.71778 0
M  V30 71 H -8.05155 2.55466 1.97249 0
M  V30 72 H -7.69085 0.112917 3.04889 0
M  V30 73 H -7.47636 -1.04739 1.7227 0
M  V30 74 H -6.03841 -0.438309 2.7166 0
M  V30 75 H -6.1972 2.79171 2.14196 0
M  V30 76 H -5.3642 1.42124 2.80842 0
M  V30 77 H -3.90885 2.83456 1.55153 0
M  V30 78 H -5.05025 3.04131 0.247231 0
M  V30 79 H -4.34429 1.13454 -2.06404 0
M  V30 80 H -4.02753 2.80973 -1.35475 0
M  V30 81 H -2.762 1.70911 -1.70609 0
M  V30 82 H -5.41092 -1.96729 -0.137069 0
M  V30 83 H -2.13019 -0.266131 -1.09295 0
M  V30 84 H -0.645049 -3.20057 1.02704 0
M  V30 85 H -1.73384 -2.21483 1.99276 0
M  V30 86 H -0.0136475 -2.00017 2.15027 0
M  V30 87 H -1.05781 -2.70648 -1.25977 0
M  V30 88 H -0.431689 -1.14033 -1.79787 0
M  V30 89 H 1.24115 -2.89783 -1.83525 0
M  V30 90 H 1.16733 -3.13719 -0.081813 0
M  V30 91 H 2.17748 -0.874202 -1.68917 0
M  V30 92 H 3.73512 -1.20626 -2.18011 0
M  V30 93 H 4.94206 -4.78146 -2.68971 0
M  V30 94 H 7.25273 -3.73314 -1.34884 0
M  V30 95 H 7.81083 -3.49121 -3.55635 0
M  V30 96 H 5.74377 -1.77372 -3.09094 0
M  V30 97 H 7.53999 -0.686827 -3.15536 0
M  V30 98 H 5.80643 -2.19405 -0.114842 0
M  V30 99 H 6.51982 -0.838488 1.09937 0
M  V30 100 H 5.12588 2.75102 1.88773 0
M  V30 101 H 7.6972 3.51778 1.35939 0
M  V30 102 H 7.90772 2.83293 3.66853 0
M  V30 103 H 8.21508 0.800787 2.5072 0
M  V30 104 H 10.1318 1.25068 1.30618 0
M  V30 105 H 8.05838 1.23474 -0.506587 0
M  V30 106 H 9.39525 -0.377046 -0.333545 0
M  V30 107 H 6.30057 4.89099 0.824543 0
M  V30 108 H 5.42006 6.05532 -0.969741 0
M  V30 109 H 6.90097 5.54347 -1.53802 0
M  V30 110 H 6.93138 -5.81305 -1.00477 0
M  V30 111 H 5.30955 -6.77073 1.06631 0
M  V30 112 H 6.55324 -5.77486 1.70316 0
M  V30 113 H 3.12887 -0.0616713 1.91814 0
M  V30 114 H 2.36219 -1.65879 1.90723 0
M  V30 115 H 1.46587 -0.154901 2.48135 0
M  V30 116 H 2.50735 1.62715 0.806938 0
M  V30 117 H 1.60799 1.54122 -0.78284 0
M  V30 118 H 3.20505 0.8068 -0.624641 0
M  V30 119 H 0.0372264 0.444942 -0.722379 0
M  V30 120 H 0.508367 1.94478 0.979779 0
M  V30 121 H -0.212896 0.971041 2.25931 0
M  V30 122 H -1.75954 2.56147 1.1652 0
M  V30 123 H -1.22381 1.83989 -0.450679 0
M  V30 124 H -2.97006 1.44866 2.68569 0
M  V30 125 H -3.65508 -0.224579 2.46428 0
M  V30 126 H -1.9542 0.041415 2.70443 0
M  V30 127 H -12.1467 -0.605171 -2.25259 0
M  V30 128 H -12.154 -0.689741 -0.472262 0
M  V30 129 H -10.9238 -1.63616 -1.35199 0
M  V30 END ATOM
M  V30 BEGIN BOND
M  V30 1 1 1 2
M  V30 2 1 2 3
M  V30 3 1 3 4
M  V30 4 1 3 5
M  V30 5 1 5 6
M  V30 6 1 6 7
M  V30 7 1 7 8 CFG=1
M  V30 8 1 7 9
M  V30 9 1 9 10
M  V30 10 1 10 11
M  V30 11 1 11 12 CFG=3
M  V30 12 1 11 13
M  V30 13 2 13 14
M  V30 14 1 14 15
M  V30 15 2 15 16
M  V30 16 1 15 17
M  V30 17 1 17 18
M  V30 18 1 18 19 CFG=1
M  V30 19 1 18 20
M  V30 20 1 20 21
M  V30 21 1 21 22
M  V30 22 1 22 23
M  V30 23 1 23 24
M  V30 24 1 24 25
M  V30 25 1 25 26
M  V30 26 1 26 27
M  V30 27 1 27 28
M  V30 28 1 27 29
M  V30 29 1 29 30
M  V30 30 1 29 31
M  V30 31 1 31 32
M  V30 32 1 32 33
M  V30 33 1 33 34
M  V30 34 1 34 35
M  V30 35 1 35 36
M  V30 36 1 36 37
M  V30 37 1 36 38
M  V30 38 1 38 39
M  V30 39 1 38 40
M  V30 40 1 40 41
M  V30 41 1 35 42
M  V30 42 2 42 43
M  V30 43 1 42 44
M  V30 44 1 44 45
M  V30 45 1 26 46
M  V30 46 2 46 47
M  V30 47 1 46 48
M  V30 48 1 48 49
M  V30 49 1 22 50
M  V30 50 1 50 51
M  V30 51 1 50 52
M  V30 52 1 50 53
M  V30 53 1 53 54
M  V30 54 1 54 55
M  V30 55 1 55 56
M  V30 56 1 56 57 CFG=1
M  V30 57 1 3 58 CFG=1
M  V30 58 2 58 59
M  V30 59 1 58 60
M  V30 60 1 60 61
M  V30 61 1 7 1
M  V30 62 1 56 11
M  V30 63 1 13 1
M  V30 64 1 56 17
M  V30 65 1 53 18
M  V30 66 1 31 24
M  V30 67 1 40 33
M  V30 68 1 1 62 CFG=3
M  V30 69 1 2 63
M  V30 70 1 2 64
M  V30 71 1 4 65
M  V30 72 1 4 66
M  V30 73 1 4 67
M  V30 74 1 5 68
M  V30 75 1 5 69
M  V30 76 1 6 70
M  V30 77 1 6 71
M  V30 78 1 8 72
M  V30 79 1 8 73
M  V30 80 1 8 74
M  V30 81 1 9 75
M  V30 82 1 9 76
M  V30 83 1 10 77
M  V30 84 1 10 78
M  V30 85 1 12 79
M  V30 86 1 12 80
M  V30 87 1 12 81
M  V30 88 1 14 82
M  V30 89 1 17 83 CFG=3
M  V30 90 1 19 84
M  V30 91 1 19 85
M  V30 92 1 19 86
M  V30 93 1 20 87
M  V30 94 1 20 88
M  V30 95 1 21 89
M  V30 96 1 21 90
M  V30 97 1 22 91 CFG=3
M  V30 98 1 24 92 CFG=3
M  V30 99 1 26 93 CFG=3
M  V30 100 1 27 94 CFG=1
M  V30 101 1 28 95
M  V30 102 1 29 96 CFG=3
M  V30 103 1 30 97
M  V30 104 1 31 98 CFG=1
M  V30 105 1 33 99 CFG=1
M  V30 106 1 35 100 CFG=1
M  V30 107 1 36 101 CFG=3
M  V30 108 1 37 102
M  V30 109 1 38 103 CFG=1
M  V30 110 1 39 104
M  V30 111 1 40 105 CFG=3
M  V30 112 1 41 106
M  V30 113 1 44 107
M  V30 114 1 45 108
M  V30 115 1 45 109
M  V30 116 1 48 110
M  V30 117 1 49 111
M  V30 118 1 49 112
M  V30 119 1 51 113
M  V30 120 1 51 114
M  V30 121 1 51 115
M  V30 122 1 52 116
M  V30 123 1 52 117
M  V30 124 1 52 118
M  V30 125 1 53 119 CFG=3
M  V30 126 1 54 120
M  V30 127 1 54 121
M  V30 128 1 55 122
M  V30 129 1 55 123
M  V30 130 1 57 124
M  V30 131 1 57 125
M  V30 132 1 57 126
M  V30 133 1 61 127
M  V30 134 1 61 128
M  V30 135 1 61 129
M  V30 END BOND
M  V30 END CTAB
M  END
