
     RDKit          3D

  0  0  0  0  0  0  0  0  0  0999 V3000
M  V30 BEGIN CTAB
M  V30 COUNTS 48 50 0 0 0
M  V30 BEGIN ATOM
M  V30 1 C 5.13632 -1.54286 -0.161059 0
M  V30 2 C 4.96505 -0.105823 0.180334 0
M  V30 3 N 6.00975 0.740672 0.152214 0
M  V30 4 C 5.91173 2.06471 0.455576 0
M  V30 5 N 7.04929 2.89773 0.404705 0
M  V30 6 N 4.69955 2.53437 0.799365 0
M  V30 7 C 3.59475 1.7697 0.857436 0
M  V30 8 N 2.34316 2.33464 1.22533 0
M  V30 9 C 3.74585 0.436312 0.54147 0
M  V30 10 C 2.59991 -0.437049 0.580541 0
M  V30 11 C 2.43106 -1.31249 1.62421 0
M  V30 12 C 1.32413 -2.13239 1.63419 0
M  V30 13 C 0.372122 -2.1102 0.632565 0
M  V30 14 C -0.817102 -3.03184 0.692222 0
M  V30 15 N -1.79108 -2.66106 -0.28459 0
M  V30 16 C -2.62826 -1.52047 -0.034774 0
M  V30 17 O -2.47148 -0.904417 1.02427 0
M  V30 18 N -3.58498 -1.16693 -1.01451 0
M  V30 19 C -4.50358 -0.0927782 -0.930683 0
M  V30 20 C -5.06529 0.328989 -2.14227 0
M  V30 21 C -5.97899 1.35006 -2.109 0
M  V30 22 C -6.35814 1.97046 -0.921977 0
M  V30 23 C -5.81784 1.56962 0.273425 0
M  V30 24 C -4.88561 0.528065 0.241663 0
M  V30 25 N -6.19262 2.1754 1.49876 0 CHG=1
M  V30 26 O -5.66696 1.76149 2.69438 0 CHG=-1
M  V30 27 O -7.01118 3.099 1.48474 0
M  V30 28 C 0.570255 -1.22333 -0.39741 0
M  V30 29 C 1.671 -0.390513 -0.431046 0
M  V30 30 H 4.79253 -2.22203 0.638111 0
M  V30 31 H 6.22732 -1.72625 -0.264446 0
M  V30 32 H 4.70703 -1.79227 -1.1581 0
M  V30 33 H 7.09639 3.65111 -0.296781 0
M  V30 34 H 7.82869 2.75688 1.06303 0
M  V30 35 H 1.59822 2.30718 0.474843 0
M  V30 36 H 2.10871 2.75255 2.12602 0
M  V30 37 H 3.15415 -1.38039 2.45722 0
M  V30 38 H 1.14077 -2.8488 2.43785 0
M  V30 39 H -1.21004 -3.01664 1.73048 0
M  V30 40 H -0.412442 -4.05254 0.508947 0
M  V30 41 H -1.88757 -3.22577 -1.17855 0
M  V30 42 H -3.62897 -1.76363 -1.89945 0
M  V30 43 H -4.78555 -0.140536 -3.08011 0
M  V30 44 H -6.41378 1.6723 -3.06511 0
M  V30 45 H -7.08113 2.76681 -0.944806 0
M  V30 46 H -4.48454 0.225965 1.18703 0
M  V30 47 H -0.172848 -1.19341 -1.19578 0
M  V30 48 H 1.77226 0.3004 -1.28981 0
M  V30 END ATOM
M  V30 BEGIN BOND
M  V30 1 1 1 2
M  V30 2 2 2 3
M  V30 3 1 3 4
M  V30 4 1 4 5
M  V30 5 2 4 6
M  V30 6 1 6 7
M  V30 7 1 7 8
M  V30 8 2 7 9
M  V30 9 1 9 10
M  V30 10 2 10 11
M  V30 11 1 11 12
M  V30 12 2 12 13
M  V30 13 1 13 14
M  V30 14 1 14 15
M  V30 15 1 15 16
M  V30 16 2 16 17
M  V30 17 1 16 18
M  V30 18 1 18 19
M  V30 19 2 19 20
M  V30 20 1 20 21
M  V30 21 2 21 22
M  V30 22 1 22 23
M  V30 23 2 23 24
M  V30 24 1 23 25
M  V30 25 1 25 26
M  V30 26 2 25 27
M  V30 27 1 13 28
M  V30 28 2 28 29
M  V30 29 1 9 2
M  V30 30 1 29 10
M  V30 31 1 24 19
M  V30 32 1 1 30
M  V30 33 1 1 31
M  V30 34 1 1 32
M  V30 35 1 5 33
M  V30 36 1 5 34
M  V30 37 1 8 35
M  V30 38 1 8 36
M  V30 39 1 11 37
M  V30 40 1 12 38
M  V30 41 1 14 39
M  V30 42 1 14 40
M  V30 43 1 15 41
M  V30 44 1 18 42
M  V30 45 1 20 43
M  V30 46 1 21 44
M  V30 47 1 22 45
M  V30 48 1 24 46
M  V30 49 1 28 47
M  V30 50 1 29 48
M  V30 END BOND
M  V30 END CTAB
M  END
