
     RDKit          3D

  0  0  0  0  0  0  0  0  0  0999 V3000
M  V30 BEGIN CTAB
M  V30 COUNTS 32 32 0 0 0
M  V30 BEGIN ATOM
M  V30 1 C 5.16681 1.24465 0.0531863 0
M  V30 2 C 4.82387 -0.209855 0.0983317 0
M  V30 3 O 3.53392 -0.52427 0.475837 0
M  V30 4 C 2.37119 -0.120663 -0.212588 0
M  V30 5 O 2.59291 0.565898 -1.22817 0
M  V30 6 C 1.08558 -0.513429 0.289306 0
M  V30 7 C -0.142504 -0.099748 -0.353746 0
M  V30 8 C -0.343628 0.784771 -1.35872 0
M  V30 9 C -1.62639 1.0701 -1.85288 0
M  V30 10 C -2.71889 0.437225 -1.30471 0
M  V30 11 C -2.56073 -0.476985 -0.272055 0
M  V30 12 C -1.29735 -0.721039 0.173078 0
M  V30 13 N -1.17131 -1.67935 1.24966 0
M  V30 14 O -3.68686 -1.11928 0.281781 0
M  V30 15 C -4.37495 -0.546167 1.38288 0
M  V30 16 N -4.01676 0.729084 -1.80503 0
M  V30 17 H 5.84412 1.50609 -0.798924 0
M  V30 18 H 4.27739 1.87571 -0.0585581 0
M  V30 19 H 5.69264 1.56857 1.00113 0
M  V30 20 H 5.15778 -0.695245 -0.842917 0
M  V30 21 H 5.50407 -0.666238 0.879363 0
M  V30 22 H 0.998061 -0.222116 1.38875 0
M  V30 23 H 1.05672 -1.65536 0.36713 0
M  V30 24 H 0.503419 1.29045 -1.79133 0
M  V30 25 H -1.71149 1.79134 -2.65897 0
M  V30 26 H -1.2697 -1.29942 2.2003 0
M  V30 27 H -0.993702 -2.66136 0.98118 0
M  V30 28 H -3.91777 0.390756 1.72978 0
M  V30 29 H -4.35038 -1.28761 2.20549 0
M  V30 30 H -5.43736 -0.43374 1.08285 0
M  V30 31 H -4.442 1.68316 -1.65554 0
M  V30 32 H -4.54672 -0.00593697 -2.3221 0
M  V30 END ATOM
M  V30 BEGIN BOND
M  V30 1 1 1 2
M  V30 2 1 2 3
M  V30 3 1 3 4
M  V30 4 2 4 5
M  V30 5 1 4 6
M  V30 6 1 6 7
M  V30 7 2 7 8
M  V30 8 1 8 9
M  V30 9 2 9 10
M  V30 10 1 10 11
M  V30 11 2 11 12
M  V30 12 1 12 13
M  V30 13 1 11 14
M  V30 14 1 14 15
M  V30 15 1 10 16
M  V30 16 1 12 7
M  V30 17 1 1 17
M  V30 18 1 1 18
M  V30 19 1 1 19
M  V30 20 1 2 20
M  V30 21 1 2 21
M  V30 22 1 6 22
M  V30 23 1 6 23
M  V30 24 1 8 24
M  V30 25 1 9 25
M  V30 26 1 13 26
M  V30 27 1 13 27
M  V30 28 1 15 28
M  V30 29 1 15 29
M  V30 30 1 15 30
M  V30 31 1 16 31
M  V30 32 1 16 32
M  V30 END BOND
M  V30 END CTAB
M  END
