
     RDKit          3D

  0  0  0  0  0  0  0  0  0  0999 V3000
M  V30 BEGIN CTAB
M  V30 COUNTS 30 30 0 0 0
M  V30 BEGIN ATOM
M  V30 1 N 3.71293 1.57777 0.470496 0
M  V30 2 C 3.96846 0.615754 -0.529621 0
M  V30 3 N 4.31141 0.939196 -1.72804 0
M  V30 4 N 3.83799 -0.75513 -0.184902 0
M  V30 5 C 2.67999 -1.28562 -0.0964327 0
M  V30 6 S 1.23774 -0.321625 -0.401041 0
M  V30 7 C -0.285627 -1.25888 -0.223706 0
M  V30 8 C -1.43148 -0.282993 -0.519056 0
M  V30 9 C -1.30801 0.824317 0.505413 0
M  V30 10 C -2.41004 1.84914 0.360339 0
M  V30 11 C -3.72128 1.143 0.428955 0
M  V30 12 C -3.84906 -0.0956443 0.0387338 0
M  V30 13 C -2.76074 -0.946189 -0.505643 0
M  V30 14 N 2.57155 -2.65209 0.248022 0
M  V30 15 H 2.75032 1.66311 0.859035 0
M  V30 16 H 4.45082 2.21321 0.841896 0
M  V30 17 H 4.39677 1.95587 -1.94291 0
M  V30 18 H -0.402726 -1.50746 0.869281 0
M  V30 19 H -0.338127 -2.15762 -0.846353 0
M  V30 20 H -1.18766 0.166257 -1.50924 0
M  V30 21 H -1.24913 0.389655 1.50888 0
M  V30 22 H -0.343196 1.33689 0.315763 0
M  V30 23 H -2.28664 2.57609 1.18955 0
M  V30 24 H -2.25771 2.37409 -0.593143 0
M  V30 25 H -4.56437 1.70549 0.817975 0
M  V30 26 H -4.83213 -0.55483 0.114012 0
M  V30 27 H -2.76269 -1.90511 0.0808498 0
M  V30 28 H -3.03007 -1.24327 -1.54168 0
M  V30 29 H 3.29832 -3.30915 -0.0934772 0
M  V30 30 H 1.80437 -3.05425 0.828108 0
M  V30 END ATOM
M  V30 BEGIN BOND
M  V30 1 1 1 2
M  V30 2 2 2 3 CFG=2
M  V30 3 1 2 4
M  V30 4 2 4 5 CFG=2
M  V30 5 1 5 6
M  V30 6 1 6 7
M  V30 7 1 7 8
M  V30 8 1 8 9
M  V30 9 1 9 10
M  V30 10 1 10 11
M  V30 11 2 11 12
M  V30 12 1 12 13
M  V30 13 1 5 14
M  V30 14 1 13 8
M  V30 15 1 1 15
M  V30 16 1 1 16
M  V30 17 1 3 17
M  V30 18 1 7 18
M  V30 19 1 7 19
M  V30 20 1 8 20
M  V30 21 1 9 21
M  V30 22 1 9 22
M  V30 23 1 10 23
M  V30 24 1 10 24
M  V30 25 1 11 25
M  V30 26 1 12 26
M  V30 27 1 13 27
M  V30 28 1 13 28
M  V30 29 1 14 29
M  V30 30 1 14 30
M  V30 END BOND
M  V30 END CTAB
M  END
