
     RDKit          3D

  0  0  0  0  0  0  0  0  0  0999 V3000
M  V30 BEGIN CTAB
M  V30 COUNTS 31 33 0 0 0
M  V30 BEGIN ATOM
M  V30 1 N -5.46812 1.83862 -0.636472 0
M  V30 2 C -4.1858 1.21528 -0.438417 0
M  V30 3 C -3.08201 1.81421 -0.996991 0
M  V30 4 C -1.81824 1.25053 -0.834333 0
M  V30 5 C -1.66885 0.0973959 -0.117512 0
M  V30 6 C -2.80862 -0.484991 0.436114 0
M  V30 7 C -4.0721 0.051848 0.290642 0
M  V30 8 C -2.36589 -1.61236 1.09013 0
M  V30 9 C -1.00705 -1.67804 0.918044 0
M  V30 10 N -0.57154 -0.620728 0.17054 0
M  V30 11 C 0.781778 -0.381549 -0.196368 0
M  V30 12 O 1.10349 0.612304 -0.885194 0
M  V30 13 C 1.81178 -1.35675 0.267399 0
M  V30 14 N 3.12541 -0.999997 -0.168709 0
M  V30 15 N 3.78024 -1.32902 -1.27461 0
M  V30 16 N 4.9848 -0.786873 -1.29916 0
M  V30 17 C 5.14888 -0.0724737 -0.180516 0
M  V30 18 C 3.97353 -0.214248 0.521705 0
M  V30 19 N 6.26689 0.695113 0.259787 0
M  V30 20 H -6.29179 1.2015 -0.596594 0
M  V30 21 H -5.54389 2.87324 -0.808873 0
M  V30 22 H -3.18857 2.73747 -1.57297 0
M  V30 23 H -0.96005 1.74749 -1.28871 0
M  V30 24 H -4.96137 -0.389592 0.714269 0
M  V30 25 H -2.99427 -2.29804 1.62944 0
M  V30 26 H -0.370111 -2.45666 1.31752 0
M  V30 27 H 1.796 -1.35117 1.37579 0
M  V30 28 H 1.50811 -2.38326 -0.0466777 0
M  V30 29 H 3.78195 0.252825 1.49477 0
M  V30 30 H 7.22893 0.345255 0.317858 0
M  V30 31 H 6.0665 1.68266 0.538109 0
M  V30 END ATOM
M  V30 BEGIN BOND
M  V30 1 1 1 2
M  V30 2 2 2 3
M  V30 3 1 3 4
M  V30 4 2 4 5
M  V30 5 1 5 6
M  V30 6 2 6 7
M  V30 7 1 6 8
M  V30 8 2 8 9
M  V30 9 1 9 10
M  V30 10 1 10 11
M  V30 11 2 11 12
M  V30 12 1 11 13
M  V30 13 1 13 14
M  V30 14 1 14 15
M  V30 15 2 15 16
M  V30 16 1 16 17
M  V30 17 2 17 18
M  V30 18 1 17 19
M  V30 19 1 7 2
M  V30 20 1 18 14
M  V30 21 1 10 5
M  V30 22 1 1 20
M  V30 23 1 1 21
M  V30 24 1 3 22
M  V30 25 1 4 23
M  V30 26 1 7 24
M  V30 27 1 8 25
M  V30 28 1 9 26
M  V30 29 1 13 27
M  V30 30 1 13 28
M  V30 31 1 18 29
M  V30 32 1 19 30
M  V30 33 1 19 31
M  V30 END BOND
M  V30 END CTAB
M  END
