
     RDKit          3D

  0  0  0  0  0  0  0  0  0  0999 V3000
M  V30 BEGIN CTAB
M  V30 COUNTS 31 32 0 0 0
M  V30 BEGIN ATOM
M  V30 1 C 4.76836 1.39683 0.945049 0
M  V30 2 C 4.23743 0.122686 0.315628 0
M  V30 3 C 2.74295 0.191724 0.342254 0
M  V30 4 O 2.13175 -0.945625 -0.220321 0
M  V30 5 C 0.790008 -1.14886 -0.326929 0
M  V30 6 C 0.312128 -2.30592 -0.898579 0
M  V30 7 C -1.04423 -2.55714 -1.02887 0
M  V30 8 C -1.9603 -1.61345 -0.569066 0
M  V30 9 C -1.51459 -0.438917 0.0110245 0
M  V30 10 C -0.137066 -0.237297 0.117014 0
M  V30 11 C -2.38588 0.53483 0.485839 0
M  V30 12 N -1.89088 1.70798 1.06548 0
M  V30 13 C -3.73374 0.28369 0.355636 0
M  V30 14 C -4.12645 -0.889755 -0.223662 0
M  V30 15 N -3.29114 -1.83458 -0.684422 0
M  V30 16 N -4.70052 1.22214 0.812642 0
M  V30 17 H 5.56162 1.18808 1.7049 0
M  V30 18 H 3.95727 1.97506 1.43923 0
M  V30 19 H 5.21056 2.07456 0.189073 0
M  V30 20 H 4.66205 0.0658307 -0.69512 0
M  V30 21 H 4.59502 -0.71273 0.97293 0
M  V30 22 H 2.43736 0.21118 1.42259 0
M  V30 23 H 2.42001 1.14086 -0.103406 0
M  V30 24 H 1.03125 -3.04579 -1.25908 0
M  V30 25 H -1.44505 -3.45182 -1.47104 0
M  V30 26 H 0.202433 0.668441 0.564325 0
M  V30 27 H -1.09058 2.25862 0.686344 0
M  V30 28 H -2.34575 2.07989 1.95069 0
M  V30 29 H -5.21093 -1.06595 -0.3157 0
M  V30 30 H -5.65865 1.18478 0.397179 0
M  V30 31 H -4.52443 1.94066 1.52781 0
M  V30 END ATOM
M  V30 BEGIN BOND
M  V30 1 1 1 2
M  V30 2 1 2 3
M  V30 3 1 3 4
M  V30 4 1 4 5
M  V30 5 2 5 6
M  V30 6 1 6 7
M  V30 7 2 7 8
M  V30 8 1 8 9
M  V30 9 2 9 10
M  V30 10 1 9 11
M  V30 11 1 11 12
M  V30 12 2 11 13
M  V30 13 1 13 14
M  V30 14 2 14 15
M  V30 15 1 13 16
M  V30 16 1 10 5
M  V30 17 1 15 8
M  V30 18 1 1 17
M  V30 19 1 1 18
M  V30 20 1 1 19
M  V30 21 1 2 20
M  V30 22 1 2 21
M  V30 23 1 3 22
M  V30 24 1 3 23
M  V30 25 1 6 24
M  V30 26 1 7 25
M  V30 27 1 10 26
M  V30 28 1 12 27
M  V30 29 1 12 28
M  V30 30 1 14 29
M  V30 31 1 16 30
M  V30 32 1 16 31
M  V30 END BOND
M  V30 END CTAB
M  END
