
     RDKit          3D

  0  0  0  0  0  0  0  0  0  0999 V3000
M  V30 BEGIN CTAB
M  V30 COUNTS 44 46 0 0 0
M  V30 BEGIN ATOM
M  V30 1 N 7.65343 1.25991 1.47866 0
M  V30 2 C 7.08154 0.740699 0.298792 0
M  V30 3 C 7.88468 0.305549 -0.726414 0
M  V30 4 C 7.34446 -0.210384 -1.89961 0
M  V30 5 C 5.95498 -0.266243 -1.98853 0
M  V30 6 C 5.12976 0.162843 -0.976357 0
M  V30 7 C 5.68673 0.668111 0.171138 0
M  V30 8 C 3.66941 0.0584218 -1.19849 0
M  V30 9 O 3.25314 -0.0221423 -2.39085 0
M  V30 10 N 2.82849 0.0534214 -0.0818232 0
M  V30 11 C 1.42666 -0.0378615 -0.0310503 0
M  V30 12 C 0.686846 -0.386057 -1.12336 0
M  V30 13 C -0.688982 -0.437297 -0.999416 0
M  V30 14 C -1.3758 -0.158544 0.164279 0
M  V30 15 C -0.629148 0.187407 1.25022 0
M  V30 16 C 0.746283 0.251063 1.16974 0
M  V30 17 N -2.77424 -0.259204 0.161305 0
M  V30 18 C -3.70049 0.159728 1.11444 0
M  V30 19 O -3.33818 0.724178 2.16927 0
M  V30 20 C -5.1303 -0.0366733 0.934197 0
M  V30 21 C -5.97658 0.16596 2.02629 0
M  V30 22 C -7.33913 -0.000786948 1.91345 0
M  V30 23 C -7.9009 -0.3758 0.704496 0
M  V30 24 C -7.0988 -0.585388 -0.397423 0
M  V30 25 C -5.73711 -0.403937 -0.2287 0
M  V30 26 N -7.67644 -0.967559 -1.62756 0
M  V30 27 H 8.46918 1.93317 1.38677 0
M  V30 28 H 7.35229 1.04652 2.43931 0
M  V30 29 H 8.97863 0.339602 -0.678981 0
M  V30 30 H 7.96598 -0.556 -2.71367 0
M  V30 31 H 5.51495 -0.663862 -2.89201 0
M  V30 32 H 5.05937 1.01747 0.97954 0
M  V30 33 H 3.31056 0.120547 0.874873 0
M  V30 34 H 1.10047 -0.637541 -2.08959 0
M  V30 35 H -1.25973 -0.71188 -1.87011 0
M  V30 36 H -1.07825 0.419402 2.22313 0
M  V30 37 H 1.32732 0.529255 2.04581 0
M  V30 38 H -3.2199 -0.73879 -0.69856 0
M  V30 39 H -5.58781 0.462269 3.00256 0
M  V30 40 H -8.02111 0.149261 2.74324 0
M  V30 41 H -8.97505 -0.505298 0.623187 0
M  V30 42 H -5.1419 -0.571558 -1.10596 0
M  V30 43 H -8.0705 -0.258252 -2.26367 0
M  V30 44 H -7.70479 -1.96373 -1.89256 0
M  V30 END ATOM
M  V30 BEGIN BOND
M  V30 1 1 1 2
M  V30 2 2 2 3
M  V30 3 1 3 4
M  V30 4 2 4 5
M  V30 5 1 5 6
M  V30 6 2 6 7
M  V30 7 1 6 8
M  V30 8 2 8 9
M  V30 9 1 8 10
M  V30 10 1 10 11
M  V30 11 2 11 12
M  V30 12 1 12 13
M  V30 13 2 13 14
M  V30 14 1 14 15
M  V30 15 2 15 16
M  V30 16 1 14 17
M  V30 17 1 17 18
M  V30 18 2 18 19
M  V30 19 1 18 20
M  V30 20 2 20 21
M  V30 21 1 21 22
M  V30 22 2 22 23
M  V30 23 1 23 24
M  V30 24 2 24 25
M  V30 25 1 24 26
M  V30 26 1 7 2
M  V30 27 1 16 11
M  V30 28 1 25 20
M  V30 29 1 1 27
M  V30 30 1 1 28
M  V30 31 1 3 29
M  V30 32 1 4 30
M  V30 33 1 5 31
M  V30 34 1 7 32
M  V30 35 1 10 33
M  V30 36 1 12 34
M  V30 37 1 13 35
M  V30 38 1 15 36
M  V30 39 1 16 37
M  V30 40 1 17 38
M  V30 41 1 21 39
M  V30 42 1 22 40
M  V30 43 1 23 41
M  V30 44 1 25 42
M  V30 45 1 26 43
M  V30 46 1 26 44
M  V30 END BOND
M  V30 END CTAB
M  END
