
     RDKit          3D

  0  0  0  0  0  0  0  0  0  0999 V3000
M  V30 BEGIN CTAB
M  V30 COUNTS 46 47 0 0 0
M  V30 BEGIN ATOM
M  V30 1 O -3.26931 -0.191701 2.13689 0
M  V30 2 C -3.70734 0.164836 0.992337 0
M  V30 3 C -5.12566 0.0409103 0.716399 0
M  V30 4 C -5.65819 0.408009 -0.494078 0
M  V30 5 C -7.02825 0.285021 -0.75188 0
M  V30 6 C -7.85086 -0.207894 0.214744 0
M  V30 7 C -7.32736 -0.577814 1.4289 0
M  V30 8 C -5.99813 -0.46258 1.68996 0
M  V30 9 N -9.24496 -0.323816 -0.0722583 0
M  V30 10 N -2.80551 0.66345 0.0413628 0
M  V30 11 C -1.36901 0.789118 0.320486 0
M  V30 12 C -0.713514 1.34957 -0.902151 0
M  V30 13 C 0.775538 1.54897 -0.776313 0
M  V30 14 C 1.4144 0.209149 -0.494547 0
M  V30 15 N 2.83789 0.3182 -0.367552 0
M  V30 16 C 3.61811 -0.825379 -0.103162 0
M  V30 17 O 3.02617 -1.93686 0.0166038 0
M  V30 18 C 5.08905 -0.76803 0.0370212 0
M  V30 19 C 5.80015 0.402264 -0.080025 0
M  V30 20 C 7.19234 0.413118 0.0596628 0
M  V30 21 C 7.89583 -0.743753 0.318258 0
M  V30 22 C 7.16571 -1.90909 0.432572 0
M  V30 23 C 5.788 -1.92727 0.295541 0
M  V30 24 N 9.31028 -0.759367 0.464479 0
M  V30 25 H -5.08277 0.798931 -1.29363 0
M  V30 26 H -7.41939 0.585529 -1.72359 0
M  V30 27 H -8.01381 -0.969477 2.18294 0
M  V30 28 H -5.61575 -0.760448 2.65085 0
M  V30 29 H -9.61501 -0.413495 -1.03045 0
M  V30 30 H -9.90334 -0.316471 0.721923 0
M  V30 31 H -3.15037 0.955562 -0.890431 0
M  V30 32 H -1.18004 1.36487 1.22616 0
M  V30 33 H -1.01928 -0.26665 0.506982 0
M  V30 34 H -0.903928 0.6037 -1.72939 0
M  V30 35 H -1.20911 2.27693 -1.25071 0
M  V30 36 H 1.00963 2.26243 0.0486229 0
M  V30 37 H 1.15871 1.94801 -1.7279 0
M  V30 38 H 1.19319 -0.475726 -1.33732 0
M  V30 39 H 0.996132 -0.234654 0.437955 0
M  V30 40 H 3.28931 1.24576 -0.471828 0
M  V30 41 H 5.29973 1.32863 -0.280701 0
M  V30 42 H 7.75219 1.33657 -0.0328268 0
M  V30 43 H 7.69731 -2.83227 0.635909 0
M  V30 44 H 5.20768 -2.84464 0.38497 0
M  V30 45 H 9.85542 0.0984165 0.693835 0
M  V30 46 H 9.83812 -1.65057 0.341717 0
M  V30 END ATOM
M  V30 BEGIN BOND
M  V30 1 2 1 2
M  V30 2 1 2 3
M  V30 3 2 3 4
M  V30 4 1 4 5
M  V30 5 2 5 6
M  V30 6 1 6 7
M  V30 7 2 7 8
M  V30 8 1 6 9
M  V30 9 1 2 10
M  V30 10 1 10 11
M  V30 11 1 11 12
M  V30 12 1 12 13
M  V30 13 1 13 14
M  V30 14 1 14 15
M  V30 15 1 15 16
M  V30 16 2 16 17
M  V30 17 1 16 18
M  V30 18 2 18 19
M  V30 19 1 19 20
M  V30 20 2 20 21
M  V30 21 1 21 22
M  V30 22 2 22 23
M  V30 23 1 21 24
M  V30 24 1 8 3
M  V30 25 1 23 18
M  V30 26 1 4 25
M  V30 27 1 5 26
M  V30 28 1 7 27
M  V30 29 1 8 28
M  V30 30 1 9 29
M  V30 31 1 9 30
M  V30 32 1 10 31
M  V30 33 1 11 32
M  V30 34 1 11 33
M  V30 35 1 12 34
M  V30 36 1 12 35
M  V30 37 1 13 36
M  V30 38 1 13 37
M  V30 39 1 14 38
M  V30 40 1 14 39
M  V30 41 1 15 40
M  V30 42 1 19 41
M  V30 43 1 20 42
M  V30 44 1 22 43
M  V30 45 1 23 44
M  V30 46 1 24 45
M  V30 47 1 24 46
M  V30 END BOND
M  V30 END CTAB
M  END
