
     RDKit          3D

  0  0  0  0  0  0  0  0  0  0999 V3000
M  V30 BEGIN CTAB
M  V30 COUNTS 22 23 0 0 0
M  V30 BEGIN ATOM
M  V30 1 N 4.83757 -0.548062 -0.229238 0
M  V30 2 C 3.56373 0.0585804 -0.059894 0
M  V30 3 N 3.282 1.34889 0.221623 0
M  V30 4 N 1.96907 1.52983 0.302417 0
M  V30 5 C 1.33173 0.371691 0.078613 0
M  V30 6 C 2.31097 -0.558448 -0.149505 0
M  V30 7 C -0.120289 0.123625 0.0733662 0
M  V30 8 N -0.743526 -1.04557 -0.153232 0
M  V30 9 C -2.07477 -0.847727 -0.0682568 0
M  V30 10 N -2.28955 0.452411 0.213184 0
M  V30 11 N -1.09967 1.01812 0.293988 0
M  V30 12 C -3.59415 1.10465 0.393243 0
M  V30 13 N -3.0951 -1.82012 -0.240437 0
M  V30 14 H 5.57158 -0.139936 -0.853062 0
M  V30 15 H 5.05068 -1.41834 0.276379 0
M  V30 16 H 1.54656 2.45847 0.512164 0
M  V30 17 H 2.17377 -1.59616 -0.364109 0
M  V30 18 H -3.4749 1.90135 1.18262 0
M  V30 19 H -3.94943 1.5542 -0.544812 0
M  V30 20 H -4.29149 0.369787 0.816596 0
M  V30 21 H -2.95355 -2.56826 -0.943814 0
M  V30 22 H -3.95122 -1.74899 0.345628 0
M  V30 END ATOM
M  V30 BEGIN BOND
M  V30 1 1 1 2
M  V30 2 2 2 3
M  V30 3 1 3 4
M  V30 4 1 4 5
M  V30 5 2 5 6
M  V30 6 1 5 7
M  V30 7 1 7 8
M  V30 8 2 8 9
M  V30 9 1 9 10
M  V30 10 1 10 11
M  V30 11 1 10 12
M  V30 12 1 9 13
M  V30 13 1 6 2
M  V30 14 2 11 7
M  V30 15 1 1 14
M  V30 16 1 1 15
M  V30 17 1 4 16
M  V30 18 1 6 17
M  V30 19 1 12 18
M  V30 20 1 12 19
M  V30 21 1 12 20
M  V30 22 1 13 21
M  V30 23 1 13 22
M  V30 END BOND
M  V30 END CTAB
M  END
