
     RDKit          3D

  0  0  0  0  0  0  0  0  0  0999 V3000
M  V30 BEGIN CTAB
M  V30 COUNTS 16 15 0 0 0
M  V30 BEGIN ATOM
M  V30 1 N -2.55301 0.256136 -0.0595352 0
M  V30 2 C -1.19972 0.507677 0.444391 0
M  V30 3 C -0.274099 -0.11251 -0.54524 0
M  V30 4 C 0.839021 -0.939905 0.0518738 0
M  V30 5 O 1.72292 -0.198942 0.764307 0
M  V30 6 N 2.52268 0.434149 -0.143642 0
M  V30 7 H -2.79588 -0.764332 0.10766 0
M  V30 8 H -3.25854 0.912079 0.212758 0
M  V30 9 H -1.11967 0.16467 1.45508 0
M  V30 10 H -1.12115 1.64522 0.43238 0
M  V30 11 H 0.327664 0.713091 -1.0944 0
M  V30 12 H -0.750999 -0.68991 -1.33492 0
M  V30 13 H 0.342486 -1.69688 0.760081 0
M  V30 14 H 1.29176 -1.549 -0.729515 0
M  V30 15 H 2.7611 1.39257 0.238684 0
M  V30 16 H 3.26544 -0.074112 -0.566505 0
M  V30 END ATOM
M  V30 BEGIN BOND
M  V30 1 1 1 2
M  V30 2 1 2 3
M  V30 3 1 3 4
M  V30 4 1 4 5
M  V30 5 1 5 6
M  V30 6 1 1 7
M  V30 7 1 1 8
M  V30 8 1 2 9
M  V30 9 1 2 10
M  V30 10 1 3 11
M  V30 11 1 3 12
M  V30 12 1 4 13
M  V30 13 1 4 14
M  V30 14 1 6 15
M  V30 15 1 6 16
M  V30 END BOND
M  V30 END CTAB
M  END
