
     RDKit          3D

  0  0  0  0  0  0  0  0  0  0999 V3000
M  V30 BEGIN CTAB
M  V30 COUNTS 30 31 0 0 0
M  V30 BEGIN ATOM
M  V30 1 N -6.05027 -0.173606 0.0384282 0
M  V30 2 C -4.6369 -0.0681117 0.263119 0
M  V30 3 C -3.81508 0.0162478 -0.835821 0
M  V30 4 C -2.43636 0.1203 -0.678061 0
M  V30 5 C -1.8879 0.13914 0.576454 0
M  V30 6 C -2.74403 0.0525208 1.66009 0
M  V30 7 C -4.10917 -0.0509934 1.53634 0
M  V30 8 C -0.411231 0.23993 0.780354 0
M  V30 9 O -0.100552 0.634072 1.92012 0
M  V30 10 N 0.475515 -0.096777 -0.263344 0
M  V30 11 C 1.87222 -0.0386766 -0.186572 0
M  V30 12 C 2.58185 0.350642 0.904927 0
M  V30 13 C 3.98586 0.378209 0.891929 0
M  V30 14 C 4.68026 0.00827787 -0.236494 0
M  V30 15 C 3.9652 -0.386731 -1.34428 0
M  V30 16 C 2.59207 -0.41285 -1.32911 0
M  V30 17 Cl 1.7316 -0.928275 -2.77967 0
M  V30 18 N 6.11407 0.0351481 -0.253511 0
M  V30 19 H -6.56033 -1.05867 0.0566302 0
M  V30 20 H -6.57992 0.706046 -0.153523 0
M  V30 21 H -4.24945 0.00102553 -1.82322 0
M  V30 22 H -1.82217 0.190109 -1.58142 0
M  V30 23 H -2.30496 0.0680857 2.64859 0
M  V30 24 H -4.76772 -0.118214 2.40186 0
M  V30 25 H 0.00786168 -0.423122 -1.16972 0
M  V30 26 H 2.14317 0.65946 1.83747 0
M  V30 27 H 4.51327 0.69276 1.77687 0
M  V30 28 H 4.54355 -0.671505 -2.21586 0
M  V30 29 H 6.57137 0.821158 -0.770073 0
M  V30 30 H 6.69821 -0.685606 0.220621 0
M  V30 END ATOM
M  V30 BEGIN BOND
M  V30 1 1 1 2
M  V30 2 2 2 3
M  V30 3 1 3 4
M  V30 4 2 4 5
M  V30 5 1 5 6
M  V30 6 2 6 7
M  V30 7 1 5 8
M  V30 8 2 8 9
M  V30 9 1 8 10
M  V30 10 1 10 11
M  V30 11 2 11 12
M  V30 12 1 12 13
M  V30 13 2 13 14
M  V30 14 1 14 15
M  V30 15 2 15 16
M  V30 16 1 16 17
M  V30 17 1 14 18
M  V30 18 1 7 2
M  V30 19 1 16 11
M  V30 20 1 1 19
M  V30 21 1 1 20
M  V30 22 1 3 21
M  V30 23 1 4 22
M  V30 24 1 6 23
M  V30 25 1 7 24
M  V30 26 1 10 25
M  V30 27 1 12 26
M  V30 28 1 13 27
M  V30 29 1 15 28
M  V30 30 1 18 29
M  V30 31 1 18 30
M  V30 END BOND
M  V30 END CTAB
M  END
