
     RDKit          3D

  0  0  0  0  0  0  0  0  0  0999 V3000
M  V30 BEGIN CTAB
M  V30 COUNTS 21 21 0 0 0
M  V30 BEGIN ATOM
M  V30 1 N 2.19542 1.8325 -0.697822 0
M  V30 2 N 2.59164 0.867496 0.224973 0
M  V30 3 C 2.08516 -0.317876 0.289668 0
M  V30 4 N 1.06637 -0.620353 -0.651124 0
M  V30 5 C -0.303969 -0.369656 -0.36914 0
M  V30 6 C -0.682814 0.182911 0.846095 0
M  V30 7 C -1.98727 0.449215 1.1796 0
M  V30 8 C -2.9738 0.155837 0.267429 0
M  V30 9 C -2.62239 -0.392783 -0.944678 0
M  V30 10 C -1.31114 -0.653999 -1.26468 0
M  V30 11 F -3.60677 -0.682225 -1.84707 0
M  V30 12 Cl -4.67433 0.478545 0.644679 0
M  V30 13 N 2.52809 -1.2802 1.26135 0
M  V30 14 H 1.28135 1.83371 -1.18847 0
M  V30 15 H 2.85785 2.60303 -0.910208 0
M  V30 16 H 1.36351 -1.03362 -1.5569 0
M  V30 17 H 0.113003 0.414303 1.56955 0
M  V30 18 H -2.26003 0.884155 2.14184 0
M  V30 19 H -1.04227 -1.08631 -2.22163 0
M  V30 20 H 2.20553 -1.22089 2.25233 0
M  V30 21 H 3.17687 -2.0438 0.974197 0
M  V30 END ATOM
M  V30 BEGIN BOND
M  V30 1 1 1 2
M  V30 2 2 2 3
M  V30 3 1 3 4
M  V30 4 1 4 5
M  V30 5 2 5 6
M  V30 6 1 6 7
M  V30 7 2 7 8
M  V30 8 1 8 9
M  V30 9 2 9 10
M  V30 10 1 9 11
M  V30 11 1 8 12
M  V30 12 1 3 13
M  V30 13 1 10 5
M  V30 14 1 1 14
M  V30 15 1 1 15
M  V30 16 1 4 16
M  V30 17 1 6 17
M  V30 18 1 7 18
M  V30 19 1 10 19
M  V30 20 1 13 20
M  V30 21 1 13 21
M  V30 END BOND
M  V30 END CTAB
M  END
