
     RDKit          3D

  0  0  0  0  0  0  0  0  0  0999 V3000
M  V30 BEGIN CTAB
M  V30 COUNTS 25 25 0 0 0
M  V30 BEGIN ATOM
M  V30 1 N 4.19656 0.695764 0.388847 0
M  V30 2 C 2.86612 0.662377 -0.233948 0
M  V30 3 C 2.41072 -0.772353 -0.205377 0
M  V30 4 N 1.12783 -1.01496 -0.764804 0
M  V30 5 C -0.1157 -0.550345 -0.238918 0
M  V30 6 C -0.243085 0.0395722 1.00048 0
M  V30 7 C -1.46705 0.497425 1.48874 0
M  V30 8 C -2.60666 0.36992 0.730488 0
M  V30 9 C -2.49066 -0.218079 -0.508495 0
M  V30 10 C -1.28585 -0.67047 -0.993312 0
M  V30 11 N -3.69534 -0.340134 -1.28159 0
M  V30 12 C -3.89464 0.837933 1.21407 0
M  V30 13 N -4.91952 1.19689 1.61397 0
M  V30 14 H 4.1098 0.19319 1.31182 0
M  V30 15 H 4.45287 1.67091 0.580036 0
M  V30 16 H 2.16119 1.32154 0.266245 0
M  V30 17 H 2.99301 1.04415 -1.27176 0
M  V30 18 H 3.16288 -1.37815 -0.766388 0
M  V30 19 H 2.4914 -1.09903 0.861228 0
M  V30 20 H 1.06561 -1.59079 -1.65279 0
M  V30 21 H 0.649302 0.140584 1.61896 0
M  V30 22 H -1.522 0.955249 2.46829 0
M  V30 23 H -1.22312 -1.13686 -1.98833 0
M  V30 24 H -4.08466 0.449206 -1.81891 0
M  V30 25 H -4.139 -1.30355 -1.24772 0
M  V30 END ATOM
M  V30 BEGIN BOND
M  V30 1 1 1 2
M  V30 2 1 2 3
M  V30 3 1 3 4
M  V30 4 1 4 5
M  V30 5 2 5 6
M  V30 6 1 6 7
M  V30 7 2 7 8
M  V30 8 1 8 9
M  V30 9 2 9 10
M  V30 10 1 9 11
M  V30 11 1 8 12
M  V30 12 3 12 13
M  V30 13 1 10 5
M  V30 14 1 1 14
M  V30 15 1 1 15
M  V30 16 1 2 16
M  V30 17 1 2 17
M  V30 18 1 3 18
M  V30 19 1 3 19
M  V30 20 1 4 20
M  V30 21 1 6 21
M  V30 22 1 7 22
M  V30 23 1 10 23
M  V30 24 1 11 24
M  V30 25 1 11 25
M  V30 END BOND
M  V30 END CTAB
M  END
