
     RDKit          3D

  0  0  0  0  0  0  0  0  0  0999 V3000
M  V30 BEGIN CTAB
M  V30 COUNTS 24 25 0 0 0
M  V30 BEGIN ATOM
M  V30 1 N 3.35652 1.76815 -1.75788 0
M  V30 2 C 2.65937 0.891653 -0.888152 0
M  V30 3 N 1.31844 0.808654 -0.848388 0
M  V30 4 C 0.653683 -0.0181404 -0.028228 0
M  V30 5 N 1.34819 -0.80653 0.798224 0
M  V30 6 C 2.69266 -0.759033 0.794751 0
M  V30 7 N 3.4245 -1.59739 1.67335 0
M  V30 8 N 3.34584 0.0866942 -0.0450923 0
M  V30 9 C -0.802646 -0.0539563 -0.0403841 0
M  V30 10 C -1.51746 0.768148 -0.901954 0
M  V30 11 C -2.89537 0.770234 -0.950041 0
M  V30 12 C -3.62478 -0.0603292 -0.128026 0
M  V30 13 C -2.91377 -0.87459 0.725422 0
M  V30 14 C -1.53621 -0.879364 0.77624 0
M  V30 15 C -5.06407 -0.0941763 -0.141543 0
M  V30 16 N -6.21945 -0.112671 -0.169969 0
M  V30 17 H 3.93943 2.5634 -1.39462 0
M  V30 18 H 3.31929 1.65952 -2.79253 0
M  V30 19 H 4.40006 -1.85606 1.44255 0
M  V30 20 H 3.00187 -1.96074 2.54936 0
M  V30 21 H -0.960517 1.42647 -1.55421 0
M  V30 22 H -3.43245 1.41738 -1.6274 0
M  V30 23 H -3.4727 -1.54685 1.39182 0
M  V30 24 H -1.02041 -1.54047 1.46712 0
M  V30 END ATOM
M  V30 BEGIN BOND
M  V30 1 1 1 2
M  V30 2 2 2 3
M  V30 3 1 3 4
M  V30 4 2 4 5
M  V30 5 1 5 6
M  V30 6 1 6 7
M  V30 7 2 6 8
M  V30 8 1 4 9
M  V30 9 2 9 10
M  V30 10 1 10 11
M  V30 11 2 11 12
M  V30 12 1 12 13
M  V30 13 2 13 14
M  V30 14 1 12 15
M  V30 15 3 15 16
M  V30 16 1 8 2
M  V30 17 1 14 9
M  V30 18 1 1 17
M  V30 19 1 1 18
M  V30 20 1 7 19
M  V30 21 1 7 20
M  V30 22 1 10 21
M  V30 23 1 11 22
M  V30 24 1 13 23
M  V30 25 1 14 24
M  V30 END BOND
M  V30 END CTAB
M  END
