
     RDKit          3D

  0  0  0  0  0  0  0  0  0  0999 V3000
M  V30 BEGIN CTAB
M  V30 COUNTS 39 40 0 0 0
M  V30 BEGIN ATOM
M  V30 1 N -4.90073 -3.09667 -1.09657 0
M  V30 2 C -4.68778 -1.65668 -0.905914 0
M  V30 3 C -4.67418 -1.3379 0.56162 0
M  V30 4 O -4.46659 -0.000209652 0.786918 0
M  V30 5 C -3.46584 0.869667 0.558964 0
M  V30 6 C -3.67517 2.20623 0.937049 0
M  V30 7 C -2.73886 3.1911 0.766071 0
M  V30 8 C -1.54057 2.84348 0.19605 0
M  V30 9 C -1.2579 1.54878 -0.203518 0
M  V30 10 C -2.24362 0.589122 -0.00735301 0
M  V30 11 C 0.0524755 1.26401 -0.786862 0
M  V30 12 C 0.927514 0.419113 0.0922545 0
M  V30 13 O 0.546902 -0.0172844 1.18211 0
M  V30 14 N 2.21871 0.149565 -0.413486 0
M  V30 15 C 3.11941 -0.648887 0.361922 0
M  V30 16 C 4.56947 -0.417762 -0.0189853 0
M  V30 17 C 4.93524 0.272745 -1.12956 0
M  V30 18 S 6.6661 0.202142 -1.02539 0
M  V30 19 C 6.78006 -0.692593 0.409046 0
M  V30 20 N 5.52542 -0.899325 0.746464 0
M  V30 21 N 7.91995 -1.16135 1.14723 0
M  V30 22 H -5.91468 -3.25815 -0.988611 0
M  V30 23 H -4.40448 -3.59375 -0.292053 0
M  V30 24 H -3.76611 -1.31483 -1.38004 0
M  V30 25 H -5.57542 -1.12731 -1.34358 0
M  V30 26 H -3.92263 -2.00299 1.0904 0
M  V30 27 H -5.67452 -1.67282 1.00275 0
M  V30 28 H -4.63517 2.47644 1.38783 0
M  V30 29 H -2.92029 4.22883 1.06296 0
M  V30 30 H -0.816628 3.64162 0.0671555 0
M  V30 31 H -2.007 -0.425835 -0.299304 0
M  V30 32 H -0.0215162 0.711311 -1.77054 0
M  V30 33 H 0.598722 2.21071 -0.939578 0
M  V30 34 H 2.49721 0.530915 -1.34265 0
M  V30 35 H 3.0677 -0.445053 1.45752 0
M  V30 36 H 2.8468 -1.72361 0.132938 0
M  V30 37 H 4.33623 0.764327 -1.91896 0
M  V30 38 H 8.42422 -0.506187 1.79858 0
M  V30 39 H 8.27757 -2.12089 1.06634 0
M  V30 END ATOM
M  V30 BEGIN BOND
M  V30 1 1 1 2
M  V30 2 1 2 3
M  V30 3 1 3 4
M  V30 4 1 4 5
M  V30 5 2 5 6
M  V30 6 1 6 7
M  V30 7 2 7 8
M  V30 8 1 8 9
M  V30 9 2 9 10
M  V30 10 1 9 11
M  V30 11 1 11 12
M  V30 12 2 12 13
M  V30 13 1 12 14
M  V30 14 1 14 15
M  V30 15 1 15 16
M  V30 16 2 16 17
M  V30 17 1 17 18
M  V30 18 1 18 19
M  V30 19 2 19 20
M  V30 20 1 19 21
M  V30 21 1 10 5
M  V30 22 1 20 16
M  V30 23 1 1 22
M  V30 24 1 1 23
M  V30 25 1 2 24
M  V30 26 1 2 25
M  V30 27 1 3 26
M  V30 28 1 3 27
M  V30 29 1 6 28
M  V30 30 1 7 29
M  V30 31 1 8 30
M  V30 32 1 10 31
M  V30 33 1 11 32
M  V30 34 1 11 33
M  V30 35 1 14 34
M  V30 36 1 15 35
M  V30 37 1 15 36
M  V30 38 1 17 37
M  V30 39 1 21 38
M  V30 40 1 21 39
M  V30 END BOND
M  V30 END CTAB
M  END
