
     RDKit          3D

  0  0  0  0  0  0  0  0  0  0999 V3000
M  V30 BEGIN CTAB
M  V30 COUNTS 28 29 0 0 0
M  V30 BEGIN ATOM
M  V30 1 N -3.47218 -2.09384 0.475162 0
M  V30 2 C -3.07182 -0.797562 0.0899779 0
M  V30 3 C -3.74702 0.342406 0.472324 0
M  V30 4 C -3.27354 1.5784 0.120114 0
M  V30 5 N -3.94498 2.73036 0.543775 0
M  V30 6 N -2.10373 1.66809 -0.631953 0
M  V30 7 C -1.47873 0.585721 -0.987216 0
M  V30 8 S 0.0618012 0.499898 -2.03177 0
M  V30 9 C 1.03991 -0.825904 -1.2297 0
M  V30 10 C 2.2463 -0.361677 -0.543277 0
M  V30 11 C 3.42729 -0.175673 -1.26997 0
M  V30 12 C 4.67518 0.00640227 -0.630861 0
M  V30 13 C 4.76969 0.0119398 0.748528 0
M  V30 14 C 3.56597 -0.170599 1.46699 0
M  V30 15 F 3.69886 -0.115767 2.84697 0
M  V30 16 C 2.36787 -0.347403 0.831212 0
M  V30 17 F 1.18898 -0.480241 1.55765 0
M  V30 18 N -1.9302 -0.631548 -0.639667 0
M  V30 19 H -4.45552 -2.38291 0.341514 0
M  V30 20 H -2.78402 -2.80294 0.876815 0
M  V30 21 H -4.67177 0.27672 1.0683 0
M  V30 22 H -4.90985 2.92892 0.13738 0
M  V30 23 H -3.59228 3.40475 1.26185 0
M  V30 24 H 0.364518 -1.36179 -0.561978 0
M  V30 25 H 1.31624 -1.59984 -2.02737 0
M  V30 26 H 3.42117 -0.170065 -2.34119 0
M  V30 27 H 5.55585 0.142124 -1.22098 0
M  V30 28 H 5.73598 0.142023 1.27737 0
M  V30 END ATOM
M  V30 BEGIN BOND
M  V30 1 1 1 2
M  V30 2 2 2 3
M  V30 3 1 3 4
M  V30 4 1 4 5
M  V30 5 2 4 6
M  V30 6 1 6 7
M  V30 7 1 7 8
M  V30 8 1 8 9
M  V30 9 1 9 10
M  V30 10 2 10 11
M  V30 11 1 11 12
M  V30 12 2 12 13
M  V30 13 1 13 14
M  V30 14 1 14 15
M  V30 15 2 14 16
M  V30 16 1 16 17
M  V30 17 2 7 18
M  V30 18 1 18 2
M  V30 19 1 16 10
M  V30 20 1 1 19
M  V30 21 1 1 20
M  V30 22 1 3 21
M  V30 23 1 5 22
M  V30 24 1 5 23
M  V30 25 1 9 24
M  V30 26 1 9 25
M  V30 27 1 11 26
M  V30 28 1 12 27
M  V30 29 1 13 28
M  V30 END BOND
M  V30 END CTAB
M  END
