
     RDKit          3D

  0  0  0  0  0  0  0  0  0  0999 V3000
M  V30 BEGIN CTAB
M  V30 COUNTS 31 32 0 0 0
M  V30 BEGIN ATOM
M  V30 1 N -3.04154 1.36323 -0.560138 0
M  V30 2 C -2.7364 0.0348864 -0.898492 0 CFG=2
M  V30 3 C -3.14556 -0.850819 0.265922 0
M  V30 4 C -2.52479 -0.286072 1.50809 0
M  V30 5 C -1.0207 -0.32446 1.37823 0
M  V30 6 C -0.564445 0.4083 0.145657 0 CFG=2
M  V30 7 C -1.245 -0.10538 -1.10487 0
M  V30 8 C 0.914194 0.267757 0.0432906 0
M  V30 9 N 1.64716 -0.841516 -0.0849173 0
M  V30 10 N 2.93349 -0.564338 -0.144194 0
M  V30 11 C 3.021 0.773101 -0.0499636 0
M  V30 12 N 1.79709 1.28224 0.0640273 0
M  V30 13 N 4.21743 1.53716 -0.0673644 0
M  V30 14 C 4.05402 -1.46162 -0.280673 0
M  V30 15 H -3.81661 1.4455 0.054805 0
M  V30 16 H -2.83791 2.10921 -1.14572 0
M  V30 17 H -3.31079 -0.258504 -1.80429 0
M  V30 18 H -4.25889 -0.78493 0.320628 0
M  V30 19 H -2.82137 -1.89476 0.14235 0
M  V30 20 H -2.82608 0.747678 1.70662 0
M  V30 21 H -2.79419 -0.911503 2.40648 0
M  V30 22 H -0.643588 -1.35563 1.40602 0
M  V30 23 H -0.585811 0.223728 2.25253 0
M  V30 24 H -0.832068 1.47464 0.241707 0
M  V30 25 H -0.947718 -1.14494 -1.30507 0
M  V30 26 H -0.923829 0.51823 -1.94203 0
M  V30 27 H 4.9962 1.2192 -0.678964 0
M  V30 28 H 4.27602 2.37385 0.520253 0
M  V30 29 H 4.94414 -1.01092 0.205853 0
M  V30 30 H 3.7951 -2.45769 0.117878 0
M  V30 31 H 4.28146 -1.52563 -1.36893 0
M  V30 END ATOM
M  V30 BEGIN BOND
M  V30 1 1 1 2
M  V30 2 1 2 3
M  V30 3 1 3 4
M  V30 4 1 4 5
M  V30 5 1 5 6
M  V30 6 1 6 7
M  V30 7 1 6 8
M  V30 8 2 8 9
M  V30 9 1 9 10
M  V30 10 1 10 11
M  V30 11 2 11 12
M  V30 12 1 11 13
M  V30 13 1 10 14
M  V30 14 1 7 2
M  V30 15 1 12 8
M  V30 16 1 1 15
M  V30 17 1 1 16
M  V30 18 1 2 17 CFG=3
M  V30 19 1 3 18
M  V30 20 1 3 19
M  V30 21 1 4 20
M  V30 22 1 4 21
M  V30 23 1 5 22
M  V30 24 1 5 23
M  V30 25 1 6 24 CFG=1
M  V30 26 1 7 25
M  V30 27 1 7 26
M  V30 28 1 13 27
M  V30 29 1 13 28
M  V30 30 1 14 29
M  V30 31 1 14 30
M  V30 32 1 14 31
M  V30 END BOND
M  V30 END CTAB
M  END
