
     RDKit          3D

  0  0  0  0  0  0  0  0  0  0999 V3000
M  V30 BEGIN CTAB
M  V30 COUNTS 54 58 0 0 0
M  V30 BEGIN ATOM
M  V30 1 O 7.33005 -0.900561 -0.914193 0
M  V30 2 C 6.33837 -0.748119 -1.71373 0
M  V30 3 N 5.09472 -0.528859 -1.35755 0
M  V30 4 C 3.79251 -0.298838 -0.972773 0
M  V30 5 C 2.82924 -0.228647 -2.04722 0
M  V30 6 C 1.49619 -0.0537794 -1.80498 0
M  V30 7 C 1.04471 0.0589852 -0.515075 0
M  V30 8 C 1.93282 0.00252785 0.537752 0
M  V30 9 C 3.27187 -0.172228 0.275437 0
M  V30 10 C -0.382908 0.176595 -0.206408 0
M  V30 11 N -0.815403 0.210055 1.10395 0
M  V30 12 C -2.14664 0.310248 1.09322 0
M  V30 13 C -2.52351 0.341188 -0.208225 0
M  V30 14 O -1.4292 0.258559 -0.956228 0
M  V30 15 C -3.85593 0.436518 -0.525162 0
M  V30 16 C -4.80727 0.505696 0.458596 0
M  V30 17 C -4.46115 0.47701 1.82234 0
M  V30 18 C -3.10019 0.376883 2.07904 0
M  V30 19 N -5.38865 0.637638 2.75502 0
M  V30 20 C -6.33921 0.800007 3.71546 0
M  V30 21 O -6.22487 0.172799 4.8716 0
M  V30 22 C -7.56957 1.63687 3.69494 0
M  V30 23 S -9.08374 0.836934 3.26927 0
M  V30 24 C -9.21281 0.324575 1.54895 0
M  V30 25 N -9.66231 1.03987 0.533478 0
M  V30 26 N -9.74615 0.593657 -0.628139 0
M  V30 27 C -9.35031 -0.701736 -0.834422 0
M  V30 28 S -8.88048 -1.14873 0.741711 0
M  V30 29 N -9.39254 -1.38334 -2.08752 0
M  V30 30 C 6.80325 -0.85168 -3.1711 0
M  V30 31 S 8.43877 -1.5658 -3.26071 0
M  V30 32 C 9.60933 -0.685374 -2.25938 0
M  V30 33 N 10.3209 0.405372 -2.51142 0
M  V30 34 N 11.1492 0.842263 -1.66604 0
M  V30 35 C 11.3246 0.219018 -0.510617 0
M  V30 36 S 10.2189 -1.07936 -0.6636 0
M  V30 37 N 12.1932 0.535512 0.597065 0
M  V30 38 H 5.45722 -0.501172 -0.0162339 0
M  V30 39 H 3.27022 -0.310593 -3.02469 0
M  V30 40 H 0.797092 -0.00934207 -2.64131 0
M  V30 41 H 1.5747 0.0932213 1.55202 0
M  V30 42 H 3.92327 -0.193006 1.164 0
M  V30 43 H -4.17898 0.465646 -1.55861 0
M  V30 44 H -5.84852 0.592957 0.234467 0
M  V30 45 H -2.75111 0.337965 3.12547 0
M  V30 46 H -4.88474 -0.424065 3.45191 0
M  V30 47 H -7.67724 2.06629 4.74229 0
M  V30 48 H -7.38355 2.58814 3.09186 0
M  V30 49 H -8.93379 -2.31652 -2.21825 0
M  V30 50 H -9.89361 -0.917395 -2.86502 0
M  V30 51 H 6.01723 -1.53265 -3.63112 0
M  V30 52 H 6.70159 0.161808 -3.64741 0
M  V30 53 H 11.904 1.23754 1.29648 0
M  V30 54 H 13.0903 0.044203 0.660813 0
M  V30 END ATOM
M  V30 BEGIN BOND
M  V30 1 2 1 2
M  V30 2 1 2 3
M  V30 3 1 3 4
M  V30 4 2 4 5
M  V30 5 1 5 6
M  V30 6 2 6 7
M  V30 7 1 7 8
M  V30 8 2 8 9
M  V30 9 1 7 10
M  V30 10 2 10 11
M  V30 11 1 11 12
M  V30 12 2 12 13
M  V30 13 1 13 14
M  V30 14 1 13 15
M  V30 15 2 15 16
M  V30 16 1 16 17
M  V30 17 2 17 18
M  V30 18 1 17 19
M  V30 19 1 19 20
M  V30 20 2 20 21
M  V30 21 1 20 22
M  V30 22 1 22 23
M  V30 23 1 23 24
M  V30 24 2 24 25
M  V30 25 1 25 26
M  V30 26 2 26 27
M  V30 27 1 27 28
M  V30 28 1 27 29
M  V30 29 1 2 30
M  V30 30 1 30 31
M  V30 31 1 31 32
M  V30 32 2 32 33
M  V30 33 1 33 34
M  V30 34 2 34 35
M  V30 35 1 35 36
M  V30 36 1 35 37
M  V30 37 1 9 4
M  V30 38 1 14 10
M  V30 39 1 28 24
M  V30 40 1 36 32
M  V30 41 1 18 12
M  V30 42 1 3 38
M  V30 43 1 5 39
M  V30 44 1 6 40
M  V30 45 1 8 41
M  V30 46 1 9 42
M  V30 47 1 15 43
M  V30 48 1 16 44
M  V30 49 1 18 45
M  V30 50 1 19 46
M  V30 51 1 22 47
M  V30 52 1 22 48
M  V30 53 1 29 49
M  V30 54 1 29 50
M  V30 55 1 30 51
M  V30 56 1 30 52
M  V30 57 1 37 53
M  V30 58 1 37 54
M  V30 END BOND
M  V30 END CTAB
M  END
