
     RDKit          3D

  0  0  0  0  0  0  0  0  0  0999 V3000
M  V30 BEGIN CTAB
M  V30 COUNTS 28 28 0 0 0
M  V30 BEGIN ATOM
M  V30 1 N -2.40144 -1.80502 0.717905 0
M  V30 2 C -1.34743 -1.29202 -0.167218 0
M  V30 3 C -1.38177 0.20983 -0.113997 0
M  V30 4 C -0.334842 0.849862 -0.993818 0
M  V30 5 C 1.01917 0.453941 -0.610262 0
M  V30 6 C 1.68816 1.22065 0.333687 0
M  V30 7 C 2.96065 0.87926 0.713948 0
M  V30 8 C 3.56856 -0.222996 0.157104 0
M  V30 9 C 2.88513 -0.983851 -0.789605 0
M  V30 10 C 1.605 -0.650797 -1.18032 0
M  V30 11 F 4.82146 -0.519266 0.562782 0
M  V30 12 N -2.70733 0.659142 -0.549148 0
M  V30 13 C -1.20571 0.73151 1.29542 0
M  V30 14 H -3.32882 -1.38635 0.490946 0
M  V30 15 H -2.4174 -2.84752 0.534657 0
M  V30 16 H -1.61053 -1.61167 -1.19223 0
M  V30 17 H -0.412068 -1.72769 0.189356 0
M  V30 18 H -0.54332 0.619386 -2.06588 0
M  V30 19 H -0.479724 1.95565 -0.894478 0
M  V30 20 H 1.19399 2.08155 0.758587 0
M  V30 21 H 3.43507 1.51427 1.4551 0
M  V30 22 H 3.42246 -1.83742 -1.18678 0
M  V30 23 H 1.12519 -1.27994 -1.91969 0
M  V30 24 H -3.33749 0.644397 0.295566 0
M  V30 25 H -2.63683 1.68856 -0.801297 0
M  V30 26 H -1.14882 1.83988 1.21554 0
M  V30 27 H -2.09209 0.521338 1.92801 0
M  V30 28 H -0.339236 0.295309 1.81611 0
M  V30 END ATOM
M  V30 BEGIN BOND
M  V30 1 1 1 2
M  V30 2 1 2 3
M  V30 3 1 3 4
M  V30 4 1 4 5
M  V30 5 2 5 6
M  V30 6 1 6 7
M  V30 7 2 7 8
M  V30 8 1 8 9
M  V30 9 2 9 10
M  V30 10 1 8 11
M  V30 11 1 3 12
M  V30 12 1 3 13
M  V30 13 1 10 5
M  V30 14 1 1 14
M  V30 15 1 1 15
M  V30 16 1 2 16
M  V30 17 1 2 17
M  V30 18 1 4 18
M  V30 19 1 4 19
M  V30 20 1 6 20
M  V30 21 1 7 21
M  V30 22 1 9 22
M  V30 23 1 10 23
M  V30 24 1 12 24
M  V30 25 1 12 25
M  V30 26 1 13 26
M  V30 27 1 13 27
M  V30 28 1 13 28
M  V30 END BOND
M  V30 END CTAB
M  END
