
     RDKit          3D

  0  0  0  0  0  0  0  0  0  0999 V3000
M  V30 BEGIN CTAB
M  V30 COUNTS 48 49 0 0 0
M  V30 BEGIN ATOM
M  V30 1 N 3.06718 -2.26972 1.38668 0
M  V30 2 C 1.85767 -1.50013 1.40161 0
M  V30 3 C 1.2693 -1.12887 0.0961782 0
M  V30 4 C 2.04531 -0.297985 -0.839549 0
M  V30 5 C 3.3113 -0.918842 -1.27857 0
M  V30 6 C 4.54296 -0.142814 -0.866151 0
M  V30 7 C 4.45167 1.20336 -1.55075 0
M  V30 8 C 3.13649 1.88563 -1.30163 0
M  V30 9 C 2.21464 1.13935 -0.380404 0
M  V30 10 N -0.11153 -0.628369 0.25538 0
M  V30 11 C -1.24618 -1.32816 -0.207997 0
M  V30 12 O -1.02614 -2.43899 -0.784762 0
M  V30 13 C -2.62798 -0.813885 -0.0415442 0
M  V30 14 C -2.8991 -0.651432 1.42475 0
M  V30 15 C -4.08248 0.182495 1.74883 0
M  V30 16 C -4.26247 1.39201 0.895648 0
M  V30 17 C -4.26383 0.917878 -0.56331 0
M  V30 18 C -2.83303 0.456484 -0.829543 0
M  V30 19 N -4.68904 1.94131 -1.46584 0
M  V30 20 H 3.74777 -2.03168 2.11747 0
M  V30 21 H 2.9116 -3.27831 1.24153 0
M  V30 22 H 2.05785 -0.629684 2.0694 0
M  V30 23 H 1.12568 -2.11758 2.01169 0
M  V30 24 H 1.1077 -2.12131 -0.447956 0
M  V30 25 H 1.39642 -0.194879 -1.77067 0
M  V30 26 H 3.38587 -0.928517 -2.42721 0
M  V30 27 H 3.45543 -1.98006 -1.03106 0
M  V30 28 H 5.41612 -0.66536 -1.3162 0
M  V30 29 H 4.71099 -0.0604336 0.202397 0
M  V30 30 H 5.32819 1.81663 -1.26248 0
M  V30 31 H 4.53021 1.01668 -2.64313 0
M  V30 32 H 2.59322 2.12893 -2.22972 0
M  V30 33 H 3.3737 2.86299 -0.801767 0
M  V30 34 H 2.57171 1.23537 0.640541 0
M  V30 35 H 1.2189 1.62442 -0.451105 0
M  V30 36 H -0.263886 0.28905 0.73405 0
M  V30 37 H -3.32355 -1.56726 -0.45133 0
M  V30 38 H -3.07758 -1.68314 1.83638 0
M  V30 39 H -1.98065 -0.290998 1.96874 0
M  V30 40 H -3.96053 0.543794 2.81218 0
M  V30 41 H -5.04591 -0.38381 1.75858 0
M  V30 42 H -3.43518 2.10777 1.06427 0
M  V30 43 H -5.22859 1.86115 1.14085 0
M  V30 44 H -4.94534 0.0435115 -0.596558 0
M  V30 45 H -2.13677 1.25301 -0.545544 0
M  V30 46 H -2.75983 0.214985 -1.89989 0
M  V30 47 H -5.47846 2.47212 -1.00762 0
M  V30 48 H -5.14983 1.46328 -2.29574 0
M  V30 END ATOM
M  V30 BEGIN BOND
M  V30 1 1 1 2
M  V30 2 1 2 3
M  V30 3 1 3 4
M  V30 4 1 4 5
M  V30 5 1 5 6
M  V30 6 1 6 7
M  V30 7 1 7 8
M  V30 8 1 8 9
M  V30 9 1 3 10
M  V30 10 1 10 11
M  V30 11 2 11 12
M  V30 12 1 11 13
M  V30 13 1 13 14
M  V30 14 1 14 15
M  V30 15 1 15 16
M  V30 16 1 16 17
M  V30 17 1 17 18
M  V30 18 1 17 19
M  V30 19 1 9 4
M  V30 20 1 18 13
M  V30 21 1 1 20
M  V30 22 1 1 21
M  V30 23 1 2 22
M  V30 24 1 2 23
M  V30 25 1 3 24
M  V30 26 1 4 25
M  V30 27 1 5 26
M  V30 28 1 5 27
M  V30 29 1 6 28
M  V30 30 1 6 29
M  V30 31 1 7 30
M  V30 32 1 7 31
M  V30 33 1 8 32
M  V30 34 1 8 33
M  V30 35 1 9 34
M  V30 36 1 9 35
M  V30 37 1 10 36
M  V30 38 1 13 37
M  V30 39 1 14 38
M  V30 40 1 14 39
M  V30 41 1 15 40
M  V30 42 1 15 41
M  V30 43 1 16 42
M  V30 44 1 16 43
M  V30 45 1 17 44
M  V30 46 1 18 45
M  V30 47 1 18 46
M  V30 48 1 19 47
M  V30 49 1 19 48
M  V30 END BOND
M  V30 END CTAB
M  END
