
     RDKit          3D

  0  0  0  0  0  0  0  0  0  0999 V3000
M  V30 BEGIN CTAB
M  V30 COUNTS 182 186 0 0 0
M  V30 BEGIN ATOM
M  V30 1 C -4.24395 -1.98733 -3.73148 0
M  V30 2 C -3.6723 -1.91594 -2.29043 0
M  V30 3 C -2.45142 -1.04796 -2.37438 0 CFG=2
M  V30 4 C -1.44774 -1.65743 -3.34146 0
M  V30 5 C -1.78796 -0.792964 -1.00759 0 CFG=2
M  V30 6 N -2.87951 -0.156503 -0.197634 0
M  V30 7 C -3.63499 -0.927304 0.707097 0
M  V30 8 O -3.3092 -2.17101 0.79427 0
M  V30 9 C -4.73674 -0.399994 1.50118 0 CFG=2
M  V30 10 C -4.39643 -0.121035 2.94339 0
M  V30 11 C -3.357 0.949969 3.02148 0
M  V30 12 C -2.01237 0.730363 2.98926 0
M  V30 13 C -1.10473 1.81064 3.05555 0
M  V30 14 C -1.55405 3.10663 3.15681 0
M  V30 15 O -0.721416 4.22656 3.2214 0
M  V30 16 C -2.9247 3.31276 3.19198 0
M  V30 17 C -3.80839 2.26682 3.12562 0
M  V30 18 N -5.91863 -1.27251 1.45278 0
M  V30 19 C -7.18677 -0.675719 1.19423 0
M  V30 20 O -7.24491 0.566763 1.06262 0
M  V30 21 C -8.45986 -1.45597 1.05746 0 CFG=1
M  V30 22 N -9.55307 -0.57823 0.791113 0
M  V30 23 C -10.9345 -0.76159 0.691286 0
M  V30 24 O -11.4843 -1.85514 0.82585 0
M  V30 25 C -11.8055 0.41453 0.393786 0 CFG=2
M  V30 26 C -12.5278 0.873347 1.62346 0
M  V30 27 C -13.4452 -0.172304 2.21401 0
M  V30 28 C -14.2025 0.34114 3.42922 0
M  V30 29 N -15.07 -0.690262 3.94269 0
M  V30 30 C -16.2129 -1.17498 3.26754 0
M  V30 31 N -16.3048 -2.54952 2.94989 0
M  V30 32 N -17.1779 -0.393789 2.93469 0
M  V30 33 N -12.7682 0.131642 -0.674345 0
M  V30 34 C -12.4442 0.417816 -2.02639 0
M  V30 35 O -11.3107 0.890584 -2.33009 0
M  V30 36 C -13.409 0.181921 -3.11074 0 CFG=1
M  V30 37 N -12.807 0.0682296 -4.42941 0
M  V30 38 C -14.3506 -0.95946 -2.89235 0
M  V30 39 C -13.6571 -2.24526 -2.70712 0
M  V30 40 O -14.317 -3.41708 -2.50362 0
M  V30 41 O -12.3949 -2.24539 -2.74151 0
M  V30 42 C -8.16464 -2.28347 -0.223733 0
M  V30 43 C -7.92539 -1.41532 -1.40687 0
M  V30 44 C -9.12476 -3.36489 -0.486532 0
M  V30 45 C -0.707362 0.155717 -1.12208 0
M  V30 46 O -0.870464 1.33624 -0.616928 0
M  V30 47 N 0.59555 0.0109334 -1.73413 0
M  V30 48 C 1.54794 1.07315 -1.76621 0 CFG=2
M  V30 49 C 2.36308 1.16374 -3.01002 0
M  V30 50 C 1.68078 1.35532 -4.26862 0
M  V30 51 C 1.39587 0.349705 -5.18683 0
M  V30 52 N 0.776835 0.915674 -6.20813 0
M  V30 53 C 0.66229 2.231 -5.96848 0
M  V30 54 N 1.21215 2.51642 -4.77819 0
M  V30 55 C 2.66633 0.838154 -0.717368 0
M  V30 56 O 3.00133 -0.365144 -0.656999 0
M  V30 57 N 3.17067 1.90093 -0.00462702 0
M  V30 58 C 2.56291 3.26596 0.023106 0
M  V30 59 C 2.85345 3.74261 1.45059 0
M  V30 60 C 3.69754 2.62968 2.06987 0
M  V30 61 C 4.3615 2.10446 0.771631 0 CFG=1
M  V30 62 C 5.26735 1.00456 0.939384 0
M  V30 63 O 4.9163 -0.116495 1.34228 0
M  V30 64 N 6.68254 1.15281 0.629644 0
M  V30 65 C 7.67718 0.167277 0.737104 0 CFG=1
M  V30 66 C 7.88517 -0.49411 -0.668198 0
M  V30 67 C 8.30694 0.529228 -1.63461 0
M  V30 68 C 9.60087 0.812286 -2.00062 0
M  V30 69 C 9.93543 1.81806 -2.88316 0
M  V30 70 C 8.92789 2.60219 -3.44884 0
M  V30 71 C 7.65292 2.34655 -3.10983 0
M  V30 72 C 7.32263 1.32509 -2.21236 0
M  V30 73 C 9.04376 0.731347 1.11229 0
M  V30 74 O 9.05702 1.97121 1.14783 0
M  V30 75 N 10.0795 -0.117536 1.35267 0
M  V30 76 C 11.452 -0.0699436 1.64937 0 CFG=1
M  V30 77 C 11.9909 0.902602 2.6373 0
M  V30 78 C 11.962 2.33345 2.28438 0
M  V30 79 C 11.9081 3.36928 3.18015 0
M  V30 80 N 12.0092 4.51683 2.4635 0
M  V30 81 C 12.1221 4.1862 1.16666 0
M  V30 82 N 12.0944 2.85115 1.02886 0
M  V30 83 C 12.1232 -1.36415 1.88319 0
M  V30 84 O 11.3648 -2.39029 1.91431 0
M  V30 85 N 13.5269 -1.5088 2.06243 0
M  V30 86 C 14.12 -2.82739 2.29511 0 CFG=1
M  V30 87 C 14.6799 -3.45301 1.06447 0
M  V30 88 C 15.7585 -2.7607 0.342952 0
M  V30 89 C 17.0216 -2.53136 1.14388 0
M  V30 90 C 15.4089 -1.49887 -0.370765 0
M  V30 91 C 14.9985 -2.83828 3.46813 0
M  V30 92 O 15.6145 -4.02552 3.83282 0
M  V30 93 O 15.2028 -1.82 4.13831 0
M  V30 94 H -5.36246 -1.96418 -3.65864 0
M  V30 95 H -3.91949 -1.07631 -4.23405 0
M  V30 96 H -3.87343 -2.88651 -4.20898 0
M  V30 97 H -3.46274 -2.92984 -1.93892 0
M  V30 98 H -4.45277 -1.4245 -1.698 0
M  V30 99 H -2.73784 -0.0518961 -2.75702 0
M  V30 100 H -1.99977 -2.23153 -4.1445 0
M  V30 101 H -0.821483 -2.40645 -2.83788 0
M  V30 102 H -0.891388 -0.880583 -3.87313 0
M  V30 103 H -1.5905 -1.74754 -0.53486 0
M  V30 104 H -3.01232 0.85783 -0.358789 0
M  V30 105 H -5.06834 0.579261 1.02859 0
M  V30 106 H -4.07716 -1.04109 3.48066 0
M  V30 107 H -5.31468 0.253373 3.44617 0
M  V30 108 H -1.63332 -0.271247 2.91273 0
M  V30 109 H -0.0472008 1.63154 3.0321 0
M  V30 110 H -0.448899 4.68135 2.33802 0
M  V30 111 H -3.28933 4.33714 3.27532 0
M  V30 112 H -4.8866 2.41539 3.15995 0
M  V30 113 H -5.86558 -2.29399 1.61047 0
M  V30 114 H -8.69009 -2.19217 1.81171 0
M  V30 115 H -9.23971 0.450078 0.63634 0
M  V30 116 H -11.1477 1.21607 0.0244847 0
M  V30 117 H -11.7673 1.1402 2.3882 0
M  V30 118 H -13.1436 1.78315 1.40316 0
M  V30 119 H -14.1373 -0.522173 1.44472 0
M  V30 120 H -12.7958 -0.989786 2.63376 0
M  V30 121 H -14.7677 1.26017 3.14277 0
M  V30 122 H -13.4945 0.642347 4.21876 0
M  V30 123 H -14.8639 -1.13083 4.88531 0
M  V30 124 H -17.1809 -3.04586 3.21545 0
M  V30 125 H -15.5421 -3.04569 2.47749 0
M  V30 126 H -18.0275 -0.778866 2.43087 0
M  V30 127 H -13.698 -0.269661 -0.468472 0
M  V30 128 H -14.0821 1.10824 -3.21785 0
M  V30 129 H -12.5836 1.02141 -4.84437 0
M  V30 130 H -11.9252 -0.468075 -4.38901 0
M  V30 131 H -14.9908 -1.0191 -3.8145 0
M  V30 132 H -15.0621 -0.80459 -2.0573 0
M  V30 133 H -15.2566 -3.65202 -2.76008 0
M  V30 134 H -7.16368 -2.79871 -0.00747903 0
M  V30 135 H -8.1036 -0.330859 -1.22688 0
M  V30 136 H -8.62438 -1.71646 -2.21367 0
M  V30 137 H -6.88696 -1.55696 -1.8154 0
M  V30 138 H -9.9625 -3.09772 -1.19126 0
M  V30 139 H -9.53211 -3.84255 0.440913 0
M  V30 140 H -8.5932 -4.21161 -1.00787 0
M  V30 141 H 0.806117 -0.918168 -2.15522 0
M  V30 142 H 1.06661 2.01931 -1.5304 0
M  V30 143 H 3.04671 0.238036 -3.05246 0
M  V30 144 H 3.10036 2.01635 -2.9083 0
M  V30 145 H 1.6669 -0.691094 -5.00746 0
M  V30 146 H 0.191848 2.94526 -6.66375 0
M  V30 147 H 1.27012 3.45152 -4.32652 0
M  V30 148 H 1.49279 3.2479 -0.13552 0
M  V30 149 H 3.13596 3.87872 -0.67824 0
M  V30 150 H 1.90919 3.91994 1.97946 0
M  V30 151 H 3.45079 4.66383 1.47856 0
M  V30 152 H 4.48296 3.00708 2.74159 0
M  V30 153 H 3.07302 1.81788 2.45799 0
M  V30 154 H 4.86897 3.00024 0.279585 0
M  V30 155 H 6.95151 2.10578 0.29324 0
M  V30 156 H 7.43621 -0.648259 1.37967 0
M  V30 157 H 8.56443 -1.32121 -0.521595 0
M  V30 158 H 6.89106 -0.870688 -0.95663 0
M  V30 159 H 10.4219 0.224601 -1.59644 0
M  V30 160 H 10.9678 2.01059 -3.14182 0
M  V30 161 H 9.18828 3.40158 -4.14466 0
M  V30 162 H 6.84706 2.96023 -3.53821 0
M  V30 163 H 6.28599 1.18515 -2.0076 0
M  V30 164 H 9.75022 -1.20172 1.29277 0
M  V30 165 H 11.9098 0.293827 0.607275 0
M  V30 166 H 11.3828 0.805787 3.59767 0
M  V30 167 H 13.0396 0.685407 2.94504 0
M  V30 168 H 11.8061 3.31639 4.26679 0
M  V30 169 H 12.224 4.86576 0.311045 0
M  V30 170 H 12.1617 2.27577 0.185885 0
M  V30 171 H 14.1408 -0.679732 2.03136 0
M  V30 172 H 13.2297 -3.47636 2.56504 0
M  V30 173 H 13.8195 -3.6449 0.382334 0
M  V30 174 H 15.0908 -4.45491 1.39486 0
M  V30 175 H 16.083 -3.4872 -0.47603 0
M  V30 176 H 16.9666 -1.67392 1.83698 0
M  V30 177 H 17.8686 -2.27598 0.435189 0
M  V30 178 H 17.3925 -3.46405 1.63707 0
M  V30 179 H 14.3946 -1.46721 -0.788559 0
M  V30 180 H 16.1018 -1.40608 -1.25907 0
M  V30 181 H 15.6694 -0.555381 0.214494 0
M  V30 182 H 15.4307 -4.42779 4.7648 0
M  V30 END ATOM
M  V30 BEGIN BOND
M  V30 1 1 1 2
M  V30 2 1 2 3
M  V30 3 1 3 4
M  V30 4 1 3 5
M  V30 5 1 5 6
M  V30 6 1 6 7
M  V30 7 2 7 8
M  V30 8 1 7 9
M  V30 9 1 9 10
M  V30 10 1 10 11
M  V30 11 2 11 12
M  V30 12 1 12 13
M  V30 13 2 13 14
M  V30 14 1 14 15
M  V30 15 1 14 16
M  V30 16 2 16 17
M  V30 17 1 9 18
M  V30 18 1 18 19
M  V30 19 2 19 20
M  V30 20 1 19 21
M  V30 21 1 21 22
M  V30 22 1 22 23
M  V30 23 2 23 24
M  V30 24 1 23 25
M  V30 25 1 25 26
M  V30 26 1 26 27
M  V30 27 1 27 28
M  V30 28 1 28 29
M  V30 29 1 29 30
M  V30 30 1 30 31
M  V30 31 2 30 32 CFG=2
M  V30 32 1 25 33
M  V30 33 1 33 34
M  V30 34 2 34 35
M  V30 35 1 34 36
M  V30 36 1 36 37
M  V30 37 1 36 38
M  V30 38 1 38 39
M  V30 39 1 39 40
M  V30 40 2 39 41
M  V30 41 1 21 42
M  V30 42 1 42 43
M  V30 43 1 42 44
M  V30 44 1 5 45
M  V30 45 2 45 46
M  V30 46 1 45 47
M  V30 47 1 47 48
M  V30 48 1 48 49
M  V30 49 1 49 50
M  V30 50 2 50 51
M  V30 51 1 51 52
M  V30 52 2 52 53
M  V30 53 1 53 54
M  V30 54 1 48 55
M  V30 55 2 55 56
M  V30 56 1 55 57
M  V30 57 1 57 58
M  V30 58 1 58 59
M  V30 59 1 59 60
M  V30 60 1 60 61
M  V30 61 1 61 62
M  V30 62 2 62 63
M  V30 63 1 62 64
M  V30 64 1 64 65
M  V30 65 1 65 66
M  V30 66 1 66 67
M  V30 67 2 67 68
M  V30 68 1 68 69
M  V30 69 2 69 70
M  V30 70 1 70 71
M  V30 71 2 71 72
M  V30 72 1 65 73
M  V30 73 2 73 74
M  V30 74 1 73 75
M  V30 75 1 75 76
M  V30 76 1 76 77
M  V30 77 1 77 78
M  V30 78 2 78 79
M  V30 79 1 79 80
M  V30 80 2 80 81
M  V30 81 1 81 82
M  V30 82 1 76 83
M  V30 83 2 83 84
M  V30 84 1 83 85
M  V30 85 1 85 86
M  V30 86 1 86 87
M  V30 87 1 87 88
M  V30 88 1 88 89
M  V30 89 1 88 90
M  V30 90 1 86 91
M  V30 91 1 91 92
M  V30 92 2 91 93
M  V30 93 1 17 11
M  V30 94 1 54 50
M  V30 95 1 61 57
M  V30 96 1 72 67
M  V30 97 1 82 78
M  V30 98 1 1 94
M  V30 99 1 1 95
M  V30 100 1 1 96
M  V30 101 1 2 97
M  V30 102 1 2 98
M  V30 103 1 3 99 CFG=3
M  V30 104 1 4 100
M  V30 105 1 4 101
M  V30 106 1 4 102
M  V30 107 1 5 103 CFG=1
M  V30 108 1 6 104
M  V30 109 1 9 105 CFG=3
M  V30 110 1 10 106
M  V30 111 1 10 107
M  V30 112 1 12 108
M  V30 113 1 13 109
M  V30 114 1 15 110
M  V30 115 1 16 111
M  V30 116 1 17 112
M  V30 117 1 18 113
M  V30 118 1 21 114 CFG=1
M  V30 119 1 22 115
M  V30 120 1 25 116 CFG=3
M  V30 121 1 26 117
M  V30 122 1 26 118
M  V30 123 1 27 119
M  V30 124 1 27 120
M  V30 125 1 28 121
M  V30 126 1 28 122
M  V30 127 1 29 123
M  V30 128 1 31 124
M  V30 129 1 31 125
M  V30 130 1 32 126
M  V30 131 1 33 127
M  V30 132 1 36 128 CFG=3
M  V30 133 1 37 129
M  V30 134 1 37 130
M  V30 135 1 38 131
M  V30 136 1 38 132
M  V30 137 1 40 133
M  V30 138 1 42 134
M  V30 139 1 43 135
M  V30 140 1 43 136
M  V30 141 1 43 137
M  V30 142 1 44 138
M  V30 143 1 44 139
M  V30 144 1 44 140
M  V30 145 1 47 141
M  V30 146 1 48 142 CFG=1
M  V30 147 1 49 143
M  V30 148 1 49 144
M  V30 149 1 51 145
M  V30 150 1 53 146
M  V30 151 1 54 147
M  V30 152 1 58 148
M  V30 153 1 58 149
M  V30 154 1 59 150
M  V30 155 1 59 151
M  V30 156 1 60 152
M  V30 157 1 60 153
M  V30 158 1 61 154 CFG=3
M  V30 159 1 64 155
M  V30 160 1 65 156 CFG=1
M  V30 161 1 66 157
M  V30 162 1 66 158
M  V30 163 1 68 159
M  V30 164 1 69 160
M  V30 165 1 70 161
M  V30 166 1 71 162
M  V30 167 1 72 163
M  V30 168 1 75 164
M  V30 169 1 76 165 CFG=3
M  V30 170 1 77 166
M  V30 171 1 77 167
M  V30 172 1 79 168
M  V30 173 1 81 169
M  V30 174 1 82 170
M  V30 175 1 85 171
M  V30 176 1 86 172 CFG=1
M  V30 177 1 87 173
M  V30 178 1 87 174
M  V30 179 1 88 175
M  V30 180 1 89 176
M  V30 181 1 89 177
M  V30 182 1 89 178
M  V30 183 1 90 179
M  V30 184 1 90 180
M  V30 185 1 90 181
M  V30 186 1 92 182
M  V30 END BOND
M  V30 END CTAB
M  END
