
     RDKit          3D

  0  0  0  0  0  0  0  0  0  0999 V3000
M  V30 BEGIN CTAB
M  V30 COUNTS 28 28 0 0 0
M  V30 BEGIN ATOM
M  V30 1 C 5.22584 -0.0138524 -0.698247 0
M  V30 2 S 3.80043 -0.849646 -1.44292 0
M  V30 3 C 2.35687 -0.77867 -0.326119 0
M  V30 4 C 1.9664 0.679675 -0.238989 0
M  V30 5 N 0.840661 0.939525 0.600165 0
M  V30 6 C -0.457618 0.495875 0.300073 0
M  V30 7 C -0.821866 -0.0636538 -0.90363 0
M  V30 8 C -2.10687 -0.495708 -1.1547 0
M  V30 9 C -3.11181 -0.395673 -0.217029 0
M  V30 10 C -2.76014 0.16354 0.993473 0
M  V30 11 C -1.48017 0.597068 1.25221 0
M  V30 12 N -3.78443 0.281123 1.98921 0
M  V30 13 N -4.43374 -0.848 -0.49448 0
M  V30 14 H 6.17135 -0.306872 -1.19489 0
M  V30 15 H 5.29831 -0.312179 0.353927 0
M  V30 16 H 5.15016 1.09479 -0.805855 0
M  V30 17 H 2.72292 -1.06741 0.697528 0
M  V30 18 H 1.59578 -1.45114 -0.700225 0
M  V30 19 H 2.89242 1.20519 0.143807 0
M  V30 20 H 1.83201 1.11538 -1.2609 0
M  V30 21 H 0.993845 1.48805 1.48095 0
M  V30 22 H -0.108877 -0.170712 -1.68564 0
M  V30 23 H -2.38139 -0.940093 -2.12095 0
M  V30 24 H -1.21092 1.04249 2.22245 0
M  V30 25 H -4.57497 -0.395587 2.00472 0
M  V30 26 H -3.75602 1.04464 2.71358 0
M  V30 27 H -5.25699 -0.589417 0.0806512 0
M  V30 28 H -4.60121 -1.46872 -1.31003 0
M  V30 END ATOM
M  V30 BEGIN BOND
M  V30 1 1 1 2
M  V30 2 1 2 3
M  V30 3 1 3 4
M  V30 4 1 4 5
M  V30 5 1 5 6
M  V30 6 2 6 7
M  V30 7 1 7 8
M  V30 8 2 8 9
M  V30 9 1 9 10
M  V30 10 2 10 11
M  V30 11 1 10 12
M  V30 12 1 9 13
M  V30 13 1 11 6
M  V30 14 1 1 14
M  V30 15 1 1 15
M  V30 16 1 1 16
M  V30 17 1 3 17
M  V30 18 1 3 18
M  V30 19 1 4 19
M  V30 20 1 4 20
M  V30 21 1 5 21
M  V30 22 1 7 22
M  V30 23 1 8 23
M  V30 24 1 11 24
M  V30 25 1 12 25
M  V30 26 1 12 26
M  V30 27 1 13 27
M  V30 28 1 13 28
M  V30 END BOND
M  V30 END CTAB
M  END
