
     RDKit          3D

  0  0  0  0  0  0  0  0  0  0999 V3000
M  V30 BEGIN CTAB
M  V30 COUNTS 173 178 0 0 0
M  V30 BEGIN ATOM
M  V30 1 C 5.84784 3.98224 -1.30588 0 CFG=1
M  V30 2 C 4.62443 3.15652 -1.32032 0
M  V30 3 C 4.95818 1.87893 -0.600416 0 CFG=2
M  V30 4 N 6.25542 2.1484 0.0914477 0
M  V30 5 C 6.99476 1.10593 0.695562 0
M  V30 6 O 6.23011 -0.0387077 0.625836 0
M  V30 7 C 8.21752 0.79224 1.33721 0 CFG=2
M  V30 8 C 9.36514 1.66267 1.52855 0
M  V30 9 C 10.5638 1.04718 2.25353 0
M  V30 10 C 11.5831 2.1949 2.32835 0
M  V30 11 N 12.8104 1.82514 2.95858 0
M  V30 12 C 13.7151 0.921018 2.34069 0
M  V30 13 N 13.5874 0.566957 0.956972 0
M  V30 14 N 14.6713 0.414944 3.0384 0
M  V30 15 N 8.70504 -0.556872 0.953638 0
M  V30 16 C 9.55044 -0.770639 -0.158813 0
M  V30 17 O 9.87202 0.243695 -0.840489 0
M  V30 18 C 10.067 -2.08488 -0.571375 0 CFG=2
M  V30 19 C 11.063 -2.71876 0.336082 0
M  V30 20 C 10.6408 -3.01183 1.72236 0
M  V30 21 C 11.8187 -3.68888 2.42982 0
M  V30 22 N 12.9679 -2.8081 2.44606 0
M  V30 23 N 10.7095 -1.88961 -1.87577 0
M  V30 24 C 10.1422 -2.56738 -2.99959 0
M  V30 25 C 10.7625 -2.38258 -4.33292 0
M  V30 26 O 9.14815 -3.29511 -2.85399 0
M  V30 27 C 6.39341 3.52636 0.0707466 0 CFG=1
M  V30 28 C 7.53614 4.35975 0.396392 0
M  V30 29 C 8.49598 4.59116 -0.76624 0
M  V30 30 C 8.24225 3.71379 -1.94662 0
M  V30 31 C 6.79238 3.6765 -2.39288 0
M  V30 32 C 4.92844 0.749704 -1.49858 0
M  V30 33 O 5.90952 0.146719 -1.91131 0
M  V30 34 N 3.63738 0.285465 -1.95592 0
M  V30 35 C 3.37968 -0.852634 -2.82558 0
M  V30 36 C 2.49143 -0.18165 -3.86849 0
M  V30 37 C 1.57494 0.650257 -3.03592 0
M  V30 38 C 2.34282 0.8532 -1.72641 0 CFG=1
M  V30 39 C 1.56295 0.291226 -0.589229 0
M  V30 40 O 1.63634 -0.915557 -0.322727 0
M  V30 41 N 0.735562 1.15044 0.187589 0
M  V30 42 C -0.108697 0.845829 1.28371 0
M  V30 43 C -1.28559 0.0237134 1.00854 0
M  V30 44 O -2.03275 -0.230768 2.00816 0
M  V30 45 N -1.62719 -0.473509 -0.255475 0
M  V30 46 C -2.81291 -1.24757 -0.486753 0 CFG=1
M  V30 47 C -2.84866 -1.60546 -1.9913 0
M  V30 48 C -2.93701 -2.47453 0.330085 0
M  V30 49 C -1.89714 -3.48827 0.159605 0
M  V30 50 C -2.06191 -4.43515 -0.842815 0
M  V30 51 C -1.14428 -5.43349 -1.06429 0
M  V30 52 C -0.0339617 -5.48414 -0.260531 0
M  V30 53 C 0.189112 -4.57868 0.748092 0
M  V30 54 C -0.775981 -3.58253 0.93201 0
M  V30 55 C -3.97058 -0.303228 -0.337406 0
M  V30 56 O -3.72787 0.909341 -0.108923 0
M  V30 57 N -5.31582 -0.710802 -0.443761 0
M  V30 58 C -6.39595 0.233537 -0.318273 0 CFG=1
M  V30 59 C -7.13483 0.373736 -1.65104 0
M  V30 60 O -7.67073 -0.832487 -2.03264 0
M  V30 61 C -7.30235 -0.0527523 0.810038 0
M  V30 62 O -6.77491 -0.542332 1.84775 0
M  V30 63 N -8.65426 0.200294 0.747884 0
M  V30 64 C -9.65005 -0.011542 1.78386 0 CFG=2
M  V30 65 C -10.3135 -1.3084 1.80121 0
M  V30 66 C -11.0494 -1.79232 0.652789 0
M  V30 67 C -12.3912 -1.59015 0.516002 0
M  V30 68 C -13.1235 -2.05302 -0.572942 0
M  V30 69 C -12.4974 -2.75635 -1.58541 0
M  V30 70 C -13.1916 -3.2303 -2.67993 0
M  V30 71 C -14.5373 -3.0256 -2.81834 0
M  V30 72 C -15.1817 -2.32042 -1.81028 0
M  V30 73 C -14.4736 -1.8528 -0.719208 0
M  V30 74 C -11.1332 -2.97582 -1.46936 0
M  V30 75 C -10.4323 -2.50883 -0.386344 0
M  V30 76 C -10.369 1.22136 2.04606 0
M  V30 77 O -9.74652 2.31352 1.71588 0
M  V30 78 N -11.6453 1.44489 2.60506 0
M  V30 79 C -12.1383 2.78167 2.79899 0 CFG=1
M  V30 80 C -13.0432 3.32192 1.74623 0 CFG=1
M  V30 81 C -12.3631 3.3441 0.369416 0
M  V30 82 C -14.4426 2.90149 1.70047 0
M  V30 83 C -14.7677 1.47072 1.5167 0
M  V30 84 C -12.6976 3.04207 4.13804 0
M  V30 85 O -13.1258 4.31104 4.45015 0
M  V30 86 O -12.7691 2.08214 4.97748 0
M  V30 87 H 5.56245 5.03866 -1.20003 0
M  V30 88 H 3.75183 3.67032 -0.841067 0
M  V30 89 H 4.32053 2.86784 -2.37717 0
M  V30 90 H 4.25778 1.76659 0.279807 0
M  V30 91 H 7.89903 0.559198 2.45995 0
M  V30 92 H 9.72597 2.15239 0.611012 0
M  V30 93 H 9.08873 2.52664 2.23661 0
M  V30 94 H 10.2538 0.856848 3.31953 0
M  V30 95 H 11.0204 0.222032 1.75245 0
M  V30 96 H 11.1286 3.05223 2.90409 0
M  V30 97 H 11.7508 2.60524 1.29953 0
M  V30 98 H 13.0691 2.21208 3.88866 0
M  V30 99 H 13.1039 1.20271 0.29558 0
M  V30 100 H 13.9703 -0.320986 0.572452 0
M  V30 101 H 14.8306 0.629041 4.05016 0
M  V30 102 H 8.38705 -1.36968 1.51714 0
M  V30 103 H 9.18864 -2.7565 -0.678192 0
M  V30 104 H 11.9873 -2.06763 0.318458 0
M  V30 105 H 11.4303 -3.68139 -0.119456 0
M  V30 106 H 9.74471 -3.63718 1.73149 0
M  V30 107 H 10.3976 -2.06417 2.28805 0
M  V30 108 H 11.5509 -3.91097 3.46927 0
M  V30 109 H 12.0978 -4.61599 1.91796 0
M  V30 110 H 13.8585 -3.32189 2.61995 0
M  V30 111 H 12.8229 -1.99344 3.08715 0
M  V30 112 H 11.5387 -1.28635 -1.98012 0
M  V30 113 H 9.98768 -2.59808 -5.09057 0
M  V30 114 H 11.1357 -1.34478 -4.48543 0
M  V30 115 H 11.6071 -3.06978 -4.51581 0
M  V30 116 H 5.51913 3.91405 0.75816 0
M  V30 117 H 7.06171 5.44188 0.484802 0
M  V30 118 H 7.97374 4.27431 1.36513 0
M  V30 119 H 9.53276 4.38671 -0.415197 0
M  V30 120 H 8.50452 5.63911 -1.1286 0
M  V30 121 H 8.84867 4.10407 -2.77877 0
M  V30 122 H 8.60918 2.6931 -1.71709 0
M  V30 123 H 6.64562 2.72402 -2.9342 0
M  V30 124 H 6.68339 4.48177 -3.1757 0
M  V30 125 H 4.29993 -1.18001 -3.3505 0
M  V30 126 H 2.80696 -1.65404 -2.36951 0
M  V30 127 H 3.07201 0.469394 -4.55876 0
M  V30 128 H 1.87117 -0.929542 -4.40455 0
M  V30 129 H 0.621813 0.164344 -2.79288 0
M  V30 130 H 1.31221 1.62749 -3.51811 0
M  V30 131 H 2.33031 1.95225 -1.57508 0
M  V30 132 H 0.780923 2.18334 -0.122024 0
M  V30 133 H -0.388773 1.78905 1.84061 0
M  V30 134 H 0.508335 0.297398 2.07724 0
M  V30 135 H -1.0027 -0.275085 -1.08683 0
M  V30 136 H -2.01796 -2.23851 -2.29072 0
M  V30 137 H -2.79622 -0.652612 -2.54986 0
M  V30 138 H -3.81937 -2.07117 -2.24768 0
M  V30 139 H -3.91123 -2.98474 0.0158885 0
M  V30 140 H -3.1379 -2.27814 1.4261 0
M  V30 141 H -2.92973 -4.38629 -1.45729 0
M  V30 142 H -1.29969 -6.16071 -1.86186 0
M  V30 143 H 0.716505 -6.25904 -0.397209 0
M  V30 144 H 1.06905 -4.62859 1.38014 0
M  V30 145 H -0.573857 -2.89337 1.72461 0
M  V30 146 H -5.53897 -1.70701 -0.614876 0
M  V30 147 H -5.9576 1.2806 -0.168439 0
M  V30 148 H -6.34439 0.695062 -2.3839 0
M  V30 149 H -7.83878 1.22076 -1.59462 0
M  V30 150 H -7.32364 -1.06824 -2.93136 0
M  V30 151 H -9.04343 0.599875 -0.167905 0
M  V30 152 H -8.93396 -0.0825737 2.72945 0
M  V30 153 H -11.0005 -1.38891 2.69601 0
M  V30 154 H -9.54243 -2.11584 2.03918 0
M  V30 155 H -12.9281 -1.04175 1.2979 0
M  V30 156 H -12.6595 -3.77096 -3.4424 0
M  V30 157 H -15.0981 -3.39215 -3.68375 0
M  V30 158 H -16.235 -2.17189 -1.94422 0
M  V30 159 H -15.0097 -1.31635 0.0393185 0
M  V30 160 H -10.6571 -3.52459 -2.25424 0
M  V30 161 H -9.39123 -2.68988 -0.313994 0
M  V30 162 H -12.2356 0.643656 2.88477 0
M  V30 163 H -11.2076 3.44242 2.71651 0
M  V30 164 H -13.0835 4.44935 1.98629 0
M  V30 165 H -12.1056 2.3504 0.0251796 0
M  V30 166 H -11.5609 4.09535 0.353495 0
M  V30 167 H -13.1492 3.74808 -0.334965 0
M  V30 168 H -14.9267 3.4596 0.835458 0
M  V30 169 H -15.0619 3.26328 2.5758 0
M  V30 170 H -14.1321 0.981509 0.737556 0
M  V30 171 H -15.8014 1.41518 1.0559 0
M  V30 172 H -14.8529 0.877421 2.44947 0
M  V30 173 H -13.8628 4.7819 3.95589 0
M  V30 END ATOM
M  V30 BEGIN BOND
M  V30 1 1 1 2
M  V30 2 1 2 3
M  V30 3 1 3 4
M  V30 4 1 4 5
M  V30 5 2 5 6
M  V30 6 1 5 7
M  V30 7 1 7 8
M  V30 8 1 8 9
M  V30 9 1 9 10
M  V30 10 1 10 11
M  V30 11 1 11 12
M  V30 12 1 12 13
M  V30 13 2 12 14 CFG=2
M  V30 14 1 7 15
M  V30 15 1 15 16
M  V30 16 2 16 17
M  V30 17 1 16 18
M  V30 18 1 18 19
M  V30 19 1 19 20
M  V30 20 1 20 21
M  V30 21 1 21 22
M  V30 22 1 18 23
M  V30 23 1 23 24
M  V30 24 1 24 25
M  V30 25 2 24 26
M  V30 26 1 4 27
M  V30 27 1 27 28
M  V30 28 1 28 29
M  V30 29 1 29 30
M  V30 30 1 30 31
M  V30 31 1 3 32
M  V30 32 2 32 33
M  V30 33 1 32 34
M  V30 34 1 34 35
M  V30 35 1 35 36
M  V30 36 1 36 37
M  V30 37 1 37 38
M  V30 38 1 38 39
M  V30 39 2 39 40
M  V30 40 1 39 41
M  V30 41 1 41 42
M  V30 42 1 42 43
M  V30 43 2 43 44
M  V30 44 1 43 45
M  V30 45 1 45 46
M  V30 46 1 46 47
M  V30 47 1 46 48
M  V30 48 1 48 49
M  V30 49 2 49 50
M  V30 50 1 50 51
M  V30 51 2 51 52
M  V30 52 1 52 53
M  V30 53 2 53 54
M  V30 54 1 46 55 CFG=3
M  V30 55 2 55 56
M  V30 56 1 55 57
M  V30 57 1 57 58
M  V30 58 1 58 59
M  V30 59 1 59 60
M  V30 60 1 58 61
M  V30 61 2 61 62
M  V30 62 1 61 63
M  V30 63 1 63 64
M  V30 64 1 64 65
M  V30 65 1 65 66
M  V30 66 2 66 67
M  V30 67 1 67 68
M  V30 68 2 68 69
M  V30 69 1 69 70
M  V30 70 2 70 71
M  V30 71 1 71 72
M  V30 72 2 72 73
M  V30 73 1 69 74
M  V30 74 2 74 75
M  V30 75 1 64 76
M  V30 76 2 76 77
M  V30 77 1 76 78
M  V30 78 1 78 79
M  V30 79 1 79 80
M  V30 80 1 80 81
M  V30 81 1 80 82
M  V30 82 1 82 83
M  V30 83 1 79 84
M  V30 84 1 84 85
M  V30 85 2 84 86
M  V30 86 1 27 1
M  V30 87 1 38 34
M  V30 88 1 54 49
M  V30 89 1 75 66
M  V30 90 1 31 1
M  V30 91 1 73 68
M  V30 92 1 1 87 CFG=1
M  V30 93 1 2 88
M  V30 94 1 2 89
M  V30 95 1 3 90 CFG=1
M  V30 96 1 7 91 CFG=1
M  V30 97 1 8 92
M  V30 98 1 8 93
M  V30 99 1 9 94
M  V30 100 1 9 95
M  V30 101 1 10 96
M  V30 102 1 10 97
M  V30 103 1 11 98
M  V30 104 1 13 99
M  V30 105 1 13 100
M  V30 106 1 14 101
M  V30 107 1 15 102
M  V30 108 1 18 103 CFG=3
M  V30 109 1 19 104
M  V30 110 1 19 105
M  V30 111 1 20 106
M  V30 112 1 20 107
M  V30 113 1 21 108
M  V30 114 1 21 109
M  V30 115 1 22 110
M  V30 116 1 22 111
M  V30 117 1 23 112
M  V30 118 1 25 113
M  V30 119 1 25 114
M  V30 120 1 25 115
M  V30 121 1 27 116 CFG=1
M  V30 122 1 28 117
M  V30 123 1 28 118
M  V30 124 1 29 119
M  V30 125 1 29 120
M  V30 126 1 30 121
M  V30 127 1 30 122
M  V30 128 1 31 123
M  V30 129 1 31 124
M  V30 130 1 35 125
M  V30 131 1 35 126
M  V30 132 1 36 127
M  V30 133 1 36 128
M  V30 134 1 37 129
M  V30 135 1 37 130
M  V30 136 1 38 131 CFG=1
M  V30 137 1 41 132
M  V30 138 1 42 133
M  V30 139 1 42 134
M  V30 140 1 45 135
M  V30 141 1 47 136
M  V30 142 1 47 137
M  V30 143 1 47 138
M  V30 144 1 48 139
M  V30 145 1 48 140
M  V30 146 1 50 141
M  V30 147 1 51 142
M  V30 148 1 52 143
M  V30 149 1 53 144
M  V30 150 1 54 145
M  V30 151 1 57 146
M  V30 152 1 58 147 CFG=1
M  V30 153 1 59 148
M  V30 154 1 59 149
M  V30 155 1 60 150
M  V30 156 1 63 151
M  V30 157 1 64 152 CFG=1
M  V30 158 1 65 153
M  V30 159 1 65 154
M  V30 160 1 67 155
M  V30 161 1 70 156
M  V30 162 1 71 157
M  V30 163 1 72 158
M  V30 164 1 73 159
M  V30 165 1 74 160
M  V30 166 1 75 161
M  V30 167 1 78 162
M  V30 168 1 79 163 CFG=1
M  V30 169 1 80 164 CFG=1
M  V30 170 1 81 165
M  V30 171 1 81 166
M  V30 172 1 81 167
M  V30 173 1 82 168
M  V30 174 1 82 169
M  V30 175 1 83 170
M  V30 176 1 83 171
M  V30 177 1 83 172
M  V30 178 1 85 173
M  V30 END BOND
M  V30 END CTAB
M  END
