
     RDKit          3D

 34 37  0  0  0  0  0  0  0  0999 V2000
    1.0729   -0.3400   -2.5327 N   0  0  0  0  0  0  0  0  0  0  0  0
    0.5480   -0.7992   -1.2292 C   0  0  1  0  0  0  0  0  0  0  0  0
    1.3926   -0.1963   -0.0251 C   0  0  2  0  0  0  0  0  0  0  0  0
    2.4355   -1.1434    0.4230 N   0  0  0  0  0  0  0  0  0  0  0  0
    0.4124    0.2621    1.1169 C   0  0  0  0  0  0  0  0  0  0  0  0
   -0.3880    1.4034    0.4804 C   0  0  0  0  0  0  0  0  0  0  0  0
   -1.1136    1.0070   -0.6744 C   0  0  0  0  0  0  0  0  0  0  0  0
   -1.8782    1.9279   -1.3768 C   0  0  0  0  0  0  0  0  0  0  0  0
   -1.9170    3.2487   -0.9242 C   0  0  0  0  0  0  0  0  0  0  0  0
   -1.2021    3.6386    0.2191 C   0  0  0  0  0  0  0  0  0  0  0  0
   -0.4319    2.7161    0.9300 C   0  0  0  0  0  0  0  0  0  0  0  0
   -0.9757   -0.4785   -1.0050 C   0  0  0  0  0  0  0  0  0  0  0  0
   -1.3346   -1.2591    0.2640 C   0  0  0  0  0  0  0  0  0  0  0  0
   -2.2913   -2.2603    0.3603 C   0  0  0  0  0  0  0  0  0  0  0  0
   -2.4812   -2.8842    1.5950 C   0  0  0  0  0  0  0  0  0  0  0  0
   -1.7229   -2.5077    2.7146 C   0  0  0  0  0  0  0  0  0  0  0  0
   -0.7625   -1.4979    2.6220 C   0  0  0  0  0  0  0  0  0  0  0  0
   -0.5691   -0.8751    1.3970 C   0  0  0  0  0  0  0  0  0  0  0  0
    2.0344   -0.6612   -2.6301 H   0  0  0  0  0  0  0  0  0  0  0  0
    0.5433   -0.7855   -3.2803 H   0  0  0  0  0  0  0  0  0  0  0  0
    0.6616   -1.8935   -1.2310 H   0  0  0  0  0  0  0  0  0  0  0  0
    1.9317    0.6949   -0.3794 H   0  0  0  0  0  0  0  0  0  0  0  0
    2.9895   -0.7055    1.1574 H   0  0  0  0  0  0  0  0  0  0  0  0
    3.0726   -1.3197   -0.3518 H   0  0  0  0  0  0  0  0  0  0  0  0
    0.9420    0.5923    2.0165 H   0  0  0  0  0  0  0  0  0  0  0  0
   -2.4374    1.6336   -2.2589 H   0  0  0  0  0  0  0  0  0  0  0  0
   -2.5105    3.9841   -1.4619 H   0  0  0  0  0  0  0  0  0  0  0  0
   -1.2503    4.6720    0.5541 H   0  0  0  0  0  0  0  0  0  0  0  0
    0.1173    3.0254    1.8133 H   0  0  0  0  0  0  0  0  0  0  0  0
   -1.5971   -0.7801   -1.8546 H   0  0  0  0  0  0  0  0  0  0  0  0
   -2.8820   -2.5567   -0.5004 H   0  0  0  0  0  0  0  0  0  0  0  0
   -3.2254   -3.6709    1.6924 H   0  0  0  0  0  0  0  0  0  0  0  0
   -1.8881   -3.0070    3.6663 H   0  0  0  0  0  0  0  0  0  0  0  0
   -0.1837   -1.2096    3.4935 H   0  0  0  0  0  0  0  0  0  0  0  0
  1  2  1  0
  2  3  1  0
  3  4  1  0
  3  5  1  0
  5  6  1  0
  6  7  2  0
  7  8  1  0
  8  9  2  0
  9 10  1  0
 10 11  2  0
  7 12  1  0
 12 13  1  0
 13 14  2  0
 14 15  1  0
 15 16  2  0
 16 17  1  0
 17 18  2  0
 12  2  1  0
 18  5  1  0
 11  6  1  0
 18 13  1  0
  1 19  1  0
  1 20  1  0
  2 21  1  6
  3 22  1  6
  4 23  1  0
  4 24  1  0
  5 25  1  0
  8 26  1  0
  9 27  1  0
 10 28  1  0
 11 29  1  0
 12 30  1  0
 14 31  1  0
 15 32  1  0
 16 33  1  0
 17 34  1  0
M  END
