
     RDKit          3D

  0  0  0  0  0  0  0  0  0  0999 V3000
M  V30 BEGIN CTAB
M  V30 COUNTS 43 43 0 0 0
M  V30 BEGIN ATOM
M  V30 1 C 5.512 -1.56402 -0.172092 0
M  V30 2 C 4.68009 -0.69998 -1.07844 0
M  V30 3 C 4.70373 0.754516 -0.676543 0
M  V30 4 C 4.16064 0.919285 0.735725 0
M  V30 5 N 2.81577 0.455094 0.851672 0
M  V30 6 C 2.3562 0.635157 2.22102 0
M  V30 7 C 1.88632 1.08348 -0.067215 0
M  V30 8 C 0.529254 0.482445 0.205546 0
M  V30 9 N -0.493319 1.0434 -0.666626 0
M  V30 10 C -1.81546 0.55677 -0.506319 0
M  V30 11 C -2.80272 1.06846 -1.31674 0
M  V30 12 Cl -2.36311 2.28598 -2.4922 0
M  V30 13 N -4.07911 0.616791 -1.18131 0
M  V30 14 C -4.35035 -0.325396 -0.253137 0
M  V30 15 C -5.71658 -0.811037 -0.10598 0
M  V30 16 O -5.98964 -1.6906 0.75516 0
M  V30 17 N -6.75221 -0.304432 -0.924168 0
M  V30 18 N -8.04711 -0.783216 -0.76503 0
M  V30 19 C -3.37765 -0.851743 0.56894 0
M  V30 20 N -3.68355 -1.85059 1.5479 0
M  V30 21 N -2.1251 -0.385969 0.412084 0
M  V30 22 H 6.03376 -0.996932 0.611766 0
M  V30 23 H 6.26479 -2.14069 -0.780527 0
M  V30 24 H 4.86 -2.36179 0.276332 0
M  V30 25 H 5.08381 -0.764063 -2.11916 0
M  V30 26 H 3.62441 -1.06364 -1.13862 0
M  V30 27 H 5.7808 1.06822 -0.708263 0
M  V30 28 H 4.16061 1.34954 -1.40575 0
M  V30 29 H 4.20695 1.98671 1.04916 0
M  V30 30 H 4.77208 0.360025 1.46359 0
M  V30 31 H 3.22012 0.595471 2.91117 0
M  V30 32 H 1.8764 1.62397 2.37336 0
M  V30 33 H 1.59337 -0.148684 2.47097 0
M  V30 34 H 2.21299 0.876638 -1.10793 0
M  V30 35 H 1.83077 2.17427 0.102962 0
M  V30 36 H 0.248674 0.771259 1.24105 0
M  V30 37 H 0.533583 -0.609729 0.13754 0
M  V30 38 H -0.262102 1.76851 -1.37471 0
M  V30 39 H -6.52175 0.418387 -1.63018 0
M  V30 40 H -8.23753 -1.02186 0.230428 0
M  V30 41 H -8.72837 -0.0636815 -1.0508 0
M  V30 42 H -3.65436 -2.87245 1.33141 0
M  V30 43 H -3.94713 -1.58388 2.5155 0
M  V30 END ATOM
M  V30 BEGIN BOND
M  V30 1 1 1 2
M  V30 2 1 2 3
M  V30 3 1 3 4
M  V30 4 1 4 5
M  V30 5 1 5 6
M  V30 6 1 5 7
M  V30 7 1 7 8
M  V30 8 1 8 9
M  V30 9 1 9 10
M  V30 10 2 10 11
M  V30 11 1 11 12
M  V30 12 1 11 13
M  V30 13 2 13 14
M  V30 14 1 14 15
M  V30 15 2 15 16
M  V30 16 1 15 17
M  V30 17 1 17 18
M  V30 18 1 14 19
M  V30 19 1 19 20
M  V30 20 2 19 21
M  V30 21 1 21 10
M  V30 22 1 1 22
M  V30 23 1 1 23
M  V30 24 1 1 24
M  V30 25 1 2 25
M  V30 26 1 2 26
M  V30 27 1 3 27
M  V30 28 1 3 28
M  V30 29 1 4 29
M  V30 30 1 4 30
M  V30 31 1 6 31
M  V30 32 1 6 32
M  V30 33 1 6 33
M  V30 34 1 7 34
M  V30 35 1 7 35
M  V30 36 1 8 36
M  V30 37 1 8 37
M  V30 38 1 9 38
M  V30 39 1 17 39
M  V30 40 1 18 40
M  V30 41 1 18 41
M  V30 42 1 20 42
M  V30 43 1 20 43
M  V30 END BOND
M  V30 END CTAB
M  END
