
     RDKit          3D

  0  0  0  0  0  0  0  0  0  0999 V3000
M  V30 BEGIN CTAB
M  V30 COUNTS 42 45 0 0 0
M  V30 BEGIN ATOM
M  V30 1 N 7.95923 2.15013 -0.216044 0
M  V30 2 C 7.64997 0.75958 -0.199449 0
M  V30 3 N 8.62965 -0.05399 -0.226607 0
M  V30 4 C 6.27189 0.298729 -0.153433 0
M  V30 5 C 5.26642 1.26124 -0.126166 0
M  V30 6 C 3.9302 0.905618 -0.0819921 0
M  V30 7 C 3.58107 -0.414014 -0.0644888 0
M  V30 8 C 4.54345 -1.37972 -0.090371 0
M  V30 9 C 5.89003 -1.01775 -0.134907 0
M  V30 10 C 2.16632 -0.786802 -0.017752 0
M  V30 11 C 1.62872 -2.04471 0.00547862 0
M  V30 12 C 0.287426 -2.14388 0.0485406 0
M  V30 13 C -0.427967 -0.983591 0.0655622 0
M  V30 14 S 0.780442 0.215959 0.0213247 0
M  V30 15 C -1.90301 -0.83041 0.111621 0
M  V30 16 N -2.81911 -1.80579 0.145458 0
M  V30 17 C -4.05623 -1.26462 0.182057 0
M  V30 18 C -3.89169 0.101372 0.170148 0
M  V30 19 N -2.56135 0.337518 0.126788 0
M  V30 20 C -5.00195 0.911127 0.201403 0
M  V30 21 C -6.29014 0.407683 0.244733 0
M  V30 22 C -6.45761 -0.961098 0.256748 0
M  V30 23 C -5.33988 -1.76415 0.225224 0
M  V30 24 C -7.43039 1.30048 0.27653 0
M  V30 25 N -7.20387 2.69977 0.262448 0
M  V30 26 N -8.63315 0.868603 0.316823 0
M  V30 27 H 7.7063 2.71822 -1.03959 0
M  V30 28 H 8.43392 2.59284 0.588869 0
M  V30 29 H 8.54853 -1.08724 -0.218999 0
M  V30 30 H 5.53923 2.29507 -0.139856 0
M  V30 31 H 3.14232 1.64666 -0.0605609 0
M  V30 32 H 4.30517 -2.44387 -0.0776306 0
M  V30 33 H 6.66859 -1.7755 -0.15596 0
M  V30 34 H 2.3206 -2.91854 -0.0121912 0
M  V30 35 H -0.245632 -3.11469 0.0702136 0
M  V30 36 H -2.08366 1.28736 0.106982 0
M  V30 37 H -4.88041 2.00332 0.192202 0
M  V30 38 H -7.41993 -1.44739 0.289655 0
M  V30 39 H -5.47136 -2.84054 0.234666 0
M  V30 40 H -6.49479 3.0758 0.942751 0
M  V30 41 H -7.69829 3.362 -0.379148 0
M  V30 42 H -8.93905 -0.120821 0.331395 0
M  V30 END ATOM
M  V30 BEGIN BOND
M  V30 1 1 1 2
M  V30 2 2 2 3 CFG=2
M  V30 3 1 2 4
M  V30 4 2 4 5
M  V30 5 1 5 6
M  V30 6 2 6 7
M  V30 7 1 7 8
M  V30 8 2 8 9
M  V30 9 1 7 10
M  V30 10 2 10 11
M  V30 11 1 11 12
M  V30 12 2 12 13
M  V30 13 1 13 14
M  V30 14 1 13 15
M  V30 15 2 15 16
M  V30 16 1 16 17
M  V30 17 2 17 18
M  V30 18 1 18 19
M  V30 19 1 18 20
M  V30 20 2 20 21
M  V30 21 1 21 22
M  V30 22 2 22 23
M  V30 23 1 21 24
M  V30 24 1 24 25
M  V30 25 2 24 26 CFG=2
M  V30 26 1 9 4
M  V30 27 1 14 10
M  V30 28 1 19 15
M  V30 29 1 23 17
M  V30 30 1 1 27
M  V30 31 1 1 28
M  V30 32 1 3 29
M  V30 33 1 5 30
M  V30 34 1 6 31
M  V30 35 1 8 32
M  V30 36 1 9 33
M  V30 37 1 11 34
M  V30 38 1 12 35
M  V30 39 1 19 36
M  V30 40 1 20 37
M  V30 41 1 22 38
M  V30 42 1 23 39
M  V30 43 1 25 40
M  V30 44 1 25 41
M  V30 45 1 26 42
M  V30 END BOND
M  V30 END CTAB
M  END
