
     RDKit          3D

  0  0  0  0  0  0  0  0  0  0999 V3000
M  V30 BEGIN CTAB
M  V30 COUNTS 42 43 0 0 0
M  V30 BEGIN ATOM
M  V30 1 N 5.51987 -0.61354 -2.07194 0
M  V30 2 C 4.8618 -1.67993 -1.36265 0
M  V30 3 C 3.40853 -1.90907 -1.74629 0
M  V30 4 C 2.94396 -1.59125 -0.329883 0
M  V30 5 C 4.39289 -1.34657 0.0240775 0
M  V30 6 C 2.0749 -0.392898 -0.233198 0
M  V30 7 C 0.862831 -0.440642 0.435332 0
M  V30 8 C 0.0543121 0.660239 0.529594 0
M  V30 9 N -1.21392 0.619177 1.22627 0
M  V30 10 C -1.95985 1.81631 1.2557 0
M  V30 11 C -3.31495 1.84656 1.84455 0
M  V30 12 O -4.29825 1.09695 1.34069 0
M  V30 13 C -4.36245 -0.229898 1.37618 0
M  V30 14 C -4.31017 -0.883034 -0.0093833 0
M  V30 15 C -5.65254 -0.747348 2.03233 0
M  V30 16 N 0.470868 1.79782 -0.0482567 0
M  V30 17 C 1.64939 1.88659 -0.71143 0
M  V30 18 N 2.41207 0.784033 -0.780453 0
M  V30 19 N 2.08122 3.09095 -1.31823 0
M  V30 20 H 6.55616 -0.76253 -1.96079 0
M  V30 21 H 5.32584 0.325793 -1.68157 0
M  V30 22 H 5.42606 -2.62582 -1.46846 0
M  V30 23 H 3.05216 -1.15919 -2.48483 0
M  V30 24 H 3.1752 -2.96742 -2.03147 0
M  V30 25 H 2.50307 -2.45876 0.177517 0
M  V30 26 H 4.75173 -2.1034 0.760887 0
M  V30 27 H 4.61693 -0.321664 0.381088 0
M  V30 28 H 0.515059 -1.3522 0.905924 0
M  V30 29 H -1.44106 -0.279505 1.64604 0
M  V30 30 H -2.00989 2.29322 0.223419 0
M  V30 31 H -1.31673 2.56037 1.84118 0
M  V30 32 H -3.69558 2.93439 1.89558 0
M  V30 33 H -3.23922 1.63839 2.98127 0
M  V30 34 H -3.54179 -0.693004 1.93859 0
M  V30 35 H -4.83307 -0.239628 -0.757017 0
M  V30 36 H -3.25481 -1.07648 -0.268759 0
M  V30 37 H -4.79344 -1.87737 0.078565 0
M  V30 38 H -6.41018 0.0354099 1.93839 0
M  V30 39 H -5.45191 -1.03662 3.0887 0
M  V30 40 H -6.00801 -1.66721 1.52769 0
M  V30 41 H 2.89793 3.62649 -0.972309 0
M  V30 42 H 1.555 3.4423 -2.13813 0
M  V30 END ATOM
M  V30 BEGIN BOND
M  V30 1 1 1 2
M  V30 2 1 2 3
M  V30 3 1 3 4
M  V30 4 1 4 5
M  V30 5 1 4 6
M  V30 6 2 6 7
M  V30 7 1 7 8
M  V30 8 1 8 9
M  V30 9 1 9 10
M  V30 10 1 10 11
M  V30 11 1 11 12
M  V30 12 1 12 13
M  V30 13 1 13 14
M  V30 14 1 13 15
M  V30 15 2 8 16
M  V30 16 1 16 17
M  V30 17 2 17 18
M  V30 18 1 17 19
M  V30 19 1 5 2
M  V30 20 1 18 6
M  V30 21 1 1 20
M  V30 22 1 1 21
M  V30 23 1 2 22
M  V30 24 1 3 23
M  V30 25 1 3 24
M  V30 26 1 4 25
M  V30 27 1 5 26
M  V30 28 1 5 27
M  V30 29 1 7 28
M  V30 30 1 9 29
M  V30 31 1 10 30
M  V30 32 1 10 31
M  V30 33 1 11 32
M  V30 34 1 11 33
M  V30 35 1 13 34
M  V30 36 1 14 35
M  V30 37 1 14 36
M  V30 38 1 14 37
M  V30 39 1 15 38
M  V30 40 1 15 39
M  V30 41 1 15 40
M  V30 42 1 19 41
M  V30 43 1 19 42
M  V30 END BOND
M  V30 END CTAB
M  END
