
     RDKit          3D

  0  0  0  0  0  0  0  0  0  0999 V3000
M  V30 BEGIN CTAB
M  V30 COUNTS 24 23 0 0 0
M  V30 BEGIN ATOM
M  V30 1 C -0.986143 -0.882833 0.12835 0
M  V30 2 N -1.15482 -1.11377 1.54056 0
M  V30 3 C 0.445711 -0.870091 -0.307375 0
M  V30 4 C 1.25667 0.21028 0.38417 0
M  V30 5 C 2.67702 0.0703951 -0.180623 0
M  V30 6 N 3.55912 1.05575 0.405729 0
M  V30 7 C -1.63581 0.393578 -0.320304 0
M  V30 8 C -3.08669 0.414166 -0.069712 0
M  V30 9 O -3.8229 1.52274 -0.428709 0
M  V30 10 O -3.63062 -0.569716 0.463221 0
M  V30 11 H -1.4838 -1.72259 -0.399494 0
M  V30 12 H -0.315506 -0.983925 2.10558 0
M  V30 13 H -1.50915 -2.08945 1.74327 0
M  V30 14 H 0.463214 -0.631009 -1.39047 0
M  V30 15 H 0.918445 -1.85802 -0.196021 0
M  V30 16 H 0.92496 1.22293 0.0773463 0
M  V30 17 H 1.30958 0.0892681 1.46655 0
M  V30 18 H 3.04919 -0.938925 0.135875 0
M  V30 19 H 2.67823 0.0769195 -1.27964 0
M  V30 20 H 2.97998 1.83044 0.844172 0
M  V30 21 H 4.1743 1.49769 -0.326089 0
M  V30 22 H -1.49021 0.446311 -1.43883 0
M  V30 23 H -1.1194 1.27916 0.126782 0
M  V30 24 H -4.20139 1.55069 -1.36791 0
M  V30 END ATOM
M  V30 BEGIN BOND
M  V30 1 1 1 2
M  V30 2 1 1 3
M  V30 3 1 3 4
M  V30 4 1 4 5
M  V30 5 1 5 6
M  V30 6 1 1 7
M  V30 7 1 7 8
M  V30 8 1 8 9
M  V30 9 2 8 10
M  V30 10 1 1 11
M  V30 11 1 2 12
M  V30 12 1 2 13
M  V30 13 1 3 14
M  V30 14 1 3 15
M  V30 15 1 4 16
M  V30 16 1 4 17
M  V30 17 1 5 18
M  V30 18 1 5 19
M  V30 19 1 6 20
M  V30 20 1 6 21
M  V30 21 1 7 22
M  V30 22 1 7 23
M  V30 23 1 9 24
M  V30 END BOND
M  V30 END CTAB
M  END
