
     RDKit          3D

  0  0  0  0  0  0  0  0  0  0999 V3000
M  V30 BEGIN CTAB
M  V30 COUNTS 29 30 0 0 0
M  V30 BEGIN ATOM
M  V30 1 C -0.412724 -0.440377 -2.28966 0
M  V30 2 C -0.606094 0.192891 -0.906567 0
M  V30 3 C 0.709245 0.202608 -0.25345 0
M  V30 4 N 1.31811 -0.961832 -0.00937204 0
M  V30 5 C 2.5427 -1.01777 0.59545 0
M  V30 6 N 3.16082 -2.27207 0.839654 0
M  V30 7 N 3.09787 0.161259 0.929664 0
M  V30 8 C 2.52593 1.35871 0.705559 0
M  V30 9 N 1.31137 1.34084 0.102032 0
M  V30 10 N 3.15615 2.57904 1.07906 0
M  V30 11 C -1.62282 -0.646265 -0.18974 0
M  V30 12 C -1.97297 -0.204991 1.20556 0
M  V30 13 C -3.07987 0.644626 0.616 0
M  V30 14 C -3.02052 -0.23747 -0.612741 0
M  V30 15 H 0.195687 0.218133 -2.92888 0
M  V30 16 H -1.37352 -0.691012 -2.7409 0
M  V30 17 H 0.16546 -1.38433 -2.14546 0
M  V30 18 H -0.952975 1.24779 -1.02627 0
M  V30 19 H 2.903 -2.80749 1.67036 0
M  V30 20 H 3.86897 -2.62416 0.163682 0
M  V30 21 H 4.18055 2.75657 0.990838 0
M  V30 22 H 2.57127 3.33921 1.46115 0
M  V30 23 H -1.41162 -1.7264 -0.311212 0
M  V30 24 H -1.18331 0.379822 1.7294 0
M  V30 25 H -2.40004 -1.03849 1.79481 0
M  V30 26 H -4.0507 0.554148 1.18419 0
M  V30 27 H -2.78608 1.70994 0.440946 0
M  V30 28 H -3.7817 -1.03613 -0.571353 0
M  V30 29 H -3.0522 0.403222 -1.52275 0
M  V30 END ATOM
M  V30 BEGIN BOND
M  V30 1 1 1 2
M  V30 2 1 2 3
M  V30 3 2 3 4
M  V30 4 1 4 5
M  V30 5 1 5 6
M  V30 6 2 5 7
M  V30 7 1 7 8
M  V30 8 2 8 9
M  V30 9 1 8 10
M  V30 10 1 2 11
M  V30 11 1 11 12
M  V30 12 1 12 13
M  V30 13 1 13 14
M  V30 14 1 9 3
M  V30 15 1 14 11
M  V30 16 1 1 15
M  V30 17 1 1 16
M  V30 18 1 1 17
M  V30 19 1 2 18
M  V30 20 1 6 19
M  V30 21 1 6 20
M  V30 22 1 10 21
M  V30 23 1 10 22
M  V30 24 1 11 23
M  V30 25 1 12 24
M  V30 26 1 12 25
M  V30 27 1 13 26
M  V30 28 1 13 27
M  V30 29 1 14 28
M  V30 30 1 14 29
M  V30 END BOND
M  V30 END CTAB
M  END
