
     RDKit          3D

  0  0  0  0  0  0  0  0  0  0999 V3000
M  V30 BEGIN CTAB
M  V30 COUNTS 67 71 0 0 0
M  V30 BEGIN ATOM
M  V30 1 C 4.75508 2.99008 -2.72649 0
M  V30 2 C 4.65496 1.81363 -1.7555 0
M  V30 3 C 4.20149 2.33786 -0.425355 0
M  V30 4 C 4.10393 1.22952 0.541092 0
M  V30 5 N 5.17082 0.838883 1.29157 0
M  V30 6 C 4.77414 -0.15455 2.08368 0
M  V30 7 C 3.45272 -0.401879 1.84175 0
M  V30 8 N 3.05932 0.460136 0.889328 0
M  V30 9 C 1.71559 0.509096 0.348192 0
M  V30 10 C 1.60469 -0.464267 -0.775837 0
M  V30 11 O 2.59569 -1.19328 -1.07494 0
M  V30 12 N 0.400942 -0.589598 -1.52207 0
M  V30 13 C 0.465131 -1.57697 -2.58315 0
M  V30 14 C -0.86271 -2.3466 -2.4926 0 CFG=1
M  V30 15 O -0.829114 -3.49875 -3.26182 0
M  V30 16 C -1.03796 -2.65236 -1.0295 0
M  V30 17 C -2.01343 -1.78026 -0.328398 0 CFG=1
M  V30 18 C -1.69767 -0.34883 -0.228421 0 CFG=1
M  V30 19 C -0.729922 0.237789 -1.18062 0
M  V30 20 N -2.96212 0.388926 -0.416211 0
M  V30 21 C -3.5632 0.67851 -1.60146 0
M  V30 22 N -4.69943 1.36315 -1.37977 0
M  V30 23 C -4.81497 1.50496 -0.0616033 0
M  V30 24 C -3.7397 0.902375 0.541148 0
M  V30 25 N -3.61023 0.90165 1.89838 0
M  V30 26 C -4.52514 1.48736 2.69156 0
M  V30 27 N -4.4208 1.5051 4.10986 0
M  V30 28 N -5.58392 2.08062 2.09637 0
M  V30 29 C -5.75646 2.10849 0.768249 0
M  V30 30 N -6.86423 2.72839 0.133172 0
M  V30 31 C -3.39453 -2.08185 -0.906667 0
M  V30 32 O -2.09191 -2.28262 0.998619 0
M  V30 33 C 2.78456 -1.40498 2.5456 0
M  V30 34 C 3.44669 -2.14623 3.48087 0
M  V30 35 C 4.78705 -1.90015 3.73074 0
M  V30 36 C 5.44222 -0.913699 3.03788 0
M  V30 37 H 3.92361 3.66038 -2.54548 0
M  V30 38 H 5.70293 3.53258 -2.47474 0
M  V30 39 H 4.77229 2.60158 -3.75281 0
M  V30 40 H 3.96922 1.06511 -2.15035 0
M  V30 41 H 5.64133 1.34401 -1.63776 0
M  V30 42 H 4.89155 3.10968 -0.0151029 0
M  V30 43 H 3.19477 2.83678 -0.511117 0
M  V30 44 H 0.984808 0.240577 1.14012 0
M  V30 45 H 1.51793 1.55163 0.015636 0
M  V30 46 H 1.25473 -2.30329 -2.30957 0
M  V30 47 H 0.593713 -1.12681 -3.58439 0
M  V30 48 H -1.63278 -1.62071 -2.82586 0
M  V30 49 H -0.41996 -3.27766 -4.13503 0
M  V30 50 H -0.0649956 -2.6448 -0.48086 0
M  V30 51 H -1.40405 -3.70074 -0.960521 0
M  V30 52 H -1.35275 -0.0694671 0.811879 0
M  V30 53 H -0.332365 1.18499 -0.74198 0
M  V30 54 H -1.2018 0.558254 -2.14141 0
M  V30 55 H -3.18239 0.397699 -2.58516 0
M  V30 56 H -4.8453 0.750404 4.66527 0
M  V30 57 H -3.92114 2.26782 4.61715 0
M  V30 58 H -7.79149 2.24358 0.257534 0
M  V30 59 H -6.7971 3.59556 -0.419433 0
M  V30 60 H -4.19984 -1.58688 -0.329232 0
M  V30 61 H -3.45419 -1.96566 -1.98485 0
M  V30 62 H -3.54609 -3.18466 -0.707045 0
M  V30 63 H -2.95298 -2.03696 1.41611 0
M  V30 64 H 1.74413 -1.58001 2.33682 0
M  V30 65 H 2.91558 -2.91614 4.01431 0
M  V30 66 H 5.28427 -2.50477 4.47811 0
M  V30 67 H 6.49081 -0.751729 3.26212 0
M  V30 END ATOM
M  V30 BEGIN BOND
M  V30 1 1 1 2
M  V30 2 1 2 3
M  V30 3 1 3 4
M  V30 4 2 4 5
M  V30 5 1 5 6
M  V30 6 2 6 7
M  V30 7 1 7 8
M  V30 8 1 8 9
M  V30 9 1 9 10
M  V30 10 2 10 11
M  V30 11 1 10 12
M  V30 12 1 12 13
M  V30 13 1 13 14
M  V30 14 1 14 15
M  V30 15 1 14 16
M  V30 16 1 16 17
M  V30 17 1 17 18
M  V30 18 1 18 19
M  V30 19 1 18 20
M  V30 20 1 20 21
M  V30 21 2 21 22
M  V30 22 1 22 23
M  V30 23 2 23 24
M  V30 24 1 24 25
M  V30 25 2 25 26
M  V30 26 1 26 27
M  V30 27 1 26 28
M  V30 28 2 28 29
M  V30 29 1 29 30
M  V30 30 1 17 31
M  V30 31 1 17 32 CFG=1
M  V30 32 1 7 33
M  V30 33 2 33 34
M  V30 34 1 34 35
M  V30 35 2 35 36
M  V30 36 1 8 4
M  V30 37 1 19 12
M  V30 38 1 24 20
M  V30 39 1 36 6
M  V30 40 1 29 23
M  V30 41 1 1 37
M  V30 42 1 1 38
M  V30 43 1 1 39
M  V30 44 1 2 40
M  V30 45 1 2 41
M  V30 46 1 3 42
M  V30 47 1 3 43
M  V30 48 1 9 44
M  V30 49 1 9 45
M  V30 50 1 13 46
M  V30 51 1 13 47
M  V30 52 1 14 48 CFG=3
M  V30 53 1 15 49
M  V30 54 1 16 50
M  V30 55 1 16 51
M  V30 56 1 18 52 CFG=1
M  V30 57 1 19 53
M  V30 58 1 19 54
M  V30 59 1 21 55
M  V30 60 1 27 56
M  V30 61 1 27 57
M  V30 62 1 30 58
M  V30 63 1 30 59
M  V30 64 1 31 60
M  V30 65 1 31 61
M  V30 66 1 31 62
M  V30 67 1 32 63
M  V30 68 1 33 64
M  V30 69 1 34 65
M  V30 70 1 35 66
M  V30 71 1 36 67
M  V30 END BOND
M  V30 END CTAB
M  END
