
     RDKit          3D

  0  0  0  0  0  0  0  0  0  0999 V3000
M  V30 BEGIN CTAB
M  V30 COUNTS 24 24 0 0 0
M  V30 BEGIN ATOM
M  V30 1 N -0.808614 0.79247 1.66988 0
M  V30 2 C -0.661386 -0.437441 0.902641 0
M  V30 3 C 0.801995 -0.691699 0.62064 0
M  V30 4 C 1.34697 -1.94036 0.768717 0
M  V30 5 S 2.98194 -1.65363 0.330687 0
M  V30 6 C 2.8662 0.014965 -0.00780229 0
M  V30 7 N 1.58981 0.264013 0.230689 0
M  V30 8 N 3.82504 0.98095 -0.439205 0
M  V30 9 C -1.46064 -0.35807 -0.351856 0
M  V30 10 C -2.91063 -0.160088 0.0397377 0
M  V30 11 C -1.06638 0.854356 -1.17873 0
M  V30 12 H -0.101652 1.47117 1.2555 0
M  V30 13 H -0.494772 0.546872 2.65698 0
M  V30 14 H -1.04723 -1.23737 1.55152 0
M  V30 15 H 0.836733 -2.86781 1.08873 0
M  V30 16 H 4.38349 1.58916 0.190301 0
M  V30 17 H 3.97495 1.08246 -1.46272 0
M  V30 18 H -1.34559 -1.25536 -0.974532 0
M  V30 19 H -3.60132 -0.508718 -0.731024 0
M  V30 20 H -3.07883 -0.778892 0.954524 0
M  V30 21 H -3.12474 0.887262 0.31917 0
M  V30 22 H -0.962668 1.75453 -0.571518 0
M  V30 23 H -0.109071 0.661789 -1.68735 0
M  V30 24 H -1.83363 0.989436 -1.98218 0
M  V30 END ATOM
M  V30 BEGIN BOND
M  V30 1 1 1 2
M  V30 2 1 2 3
M  V30 3 2 3 4
M  V30 4 1 4 5
M  V30 5 1 5 6
M  V30 6 2 6 7
M  V30 7 1 6 8
M  V30 8 1 2 9
M  V30 9 1 9 10
M  V30 10 1 9 11
M  V30 11 1 7 3
M  V30 12 1 1 12
M  V30 13 1 1 13
M  V30 14 1 2 14
M  V30 15 1 4 15
M  V30 16 1 8 16
M  V30 17 1 8 17
M  V30 18 1 9 18
M  V30 19 1 10 19
M  V30 20 1 10 20
M  V30 21 1 10 21
M  V30 22 1 11 22
M  V30 23 1 11 23
M  V30 24 1 11 24
M  V30 END BOND
M  V30 END CTAB
M  END
