
     RDKit          3D

  0  0  0  0  0  0  0  0  0  0999 V3000
M  V30 BEGIN CTAB
M  V30 COUNTS 101 106 0 0 0
M  V30 BEGIN ATOM
M  V30 1 N -0.300009 -3.29646 -0.673356 0
M  V30 2 C 0.531502 -2.50129 -0.75485 0
M  V30 3 C 1.56408 -1.4924 -0.877574 0
M  V30 4 C 2.56538 -1.40622 0.102808 0
M  V30 5 C 3.57352 -0.475851 0.0613579 0
M  V30 6 C 3.56805 0.407482 -1.02634 0
M  V30 7 C 2.5899 0.342817 -2.00929 0
M  V30 8 C 1.60877 -0.606257 -1.91085 0
M  V30 9 C 0.526306 -0.656121 -2.93513 0
M  V30 10 C -0.716658 -0.0739696 -2.39033 0
M  V30 11 C -0.647426 0.696539 -1.2578 0
M  V30 12 C -1.78815 1.22739 -0.722386 0
M  V30 13 C -3.05843 1.00633 -1.30525 0
M  V30 14 C -3.10293 0.239277 -2.43067 0
M  V30 15 C -1.92596 -0.299279 -2.96884 0
M  V30 16 C -2.05944 -1.10405 -4.16024 0
M  V30 17 N -2.15543 -1.76704 -5.10909 0
M  V30 18 N -4.19423 1.5575 -0.658307 0
M  V30 19 C -5.48684 1.64525 -1.18021 0
M  V30 20 O -5.8692 1.27025 -2.29174 0
M  V30 21 C -6.52188 2.26067 -0.288944 0
M  V30 22 S -8.17 2.26871 -0.955524 0
M  V30 23 C -8.84274 0.627636 -1.15577 0
M  V30 24 N -8.1197 -0.431962 -1.13112 0
M  V30 25 C -8.7059 -1.71653 -1.28218 0
M  V30 26 N -9.9515 -1.86412 -1.42685 0
M  V30 27 C -10.8847 -0.766177 -1.44049 0
M  V30 28 N -10.2109 0.482891 -1.49233 0
M  V30 29 C -11.7103 -0.848554 -0.179157 0
M  V30 30 C -12.2224 -2.10567 0.168446 0
M  V30 31 C -12.9791 -2.30966 1.29166 0
M  V30 32 C -13.2545 -1.2538 2.11675 0
M  V30 33 C -12.7739 -0.00953176 1.8131 0
M  V30 34 C -11.9997 0.17618 0.655935 0
M  V30 35 O -11.5218 1.45667 0.369986 0
M  V30 36 C -11.7756 2.56781 1.18307 0
M  V30 37 O -14.0221 -1.43712 3.26714 0
M  V30 38 C -14.3174 -0.371621 4.13057 0
M  V30 39 N -7.8972 -2.89729 -1.28099 0
M  V30 40 N 4.57603 -0.332662 1.04287 0
M  V30 41 C 4.74943 -1.11398 2.20167 0
M  V30 42 O 4.00745 -2.07742 2.50863 0
M  V30 43 C 5.87582 -0.79862 3.15039 0
M  V30 44 S 6.87633 0.526988 2.48614 0
M  V30 45 C 7.85521 0.0315057 1.0675 0
M  V30 46 N 7.88105 -1.16769 0.606205 0
M  V30 47 C 8.68241 -1.48941 -0.522215 0
M  V30 48 N 9.40276 -0.600031 -1.11611 0
M  V30 49 C 9.47696 0.7853 -0.717314 0
M  V30 50 N 8.64135 1.03847 0.44777 0
M  V30 51 C 10.8398 1.25233 -0.385645 0
M  V30 52 C 11.2692 2.47179 -0.819041 0
M  V30 53 C 12.5167 2.97893 -0.529524 0
M  V30 54 C 13.3642 2.18289 0.248324 0
M  V30 55 C 12.9572 0.948849 0.697843 0
M  V30 56 C 11.6765 0.487033 0.370883 0
M  V30 57 O 11.3564 -0.761076 0.864236 0
M  V30 58 C 12.1806 -1.57527 1.63858 0
M  V30 59 O 14.6216 2.64204 0.566977 0
M  V30 60 C 15.5055 1.89192 1.34134 0
M  V30 61 N 8.70212 -2.8324 -1.02049 0
M  V30 62 H 2.48175 -2.12749 0.892843 0
M  V30 63 H 4.35779 1.13654 -1.06206 0
M  V30 64 H 2.66339 1.06418 -2.81432 0
M  V30 65 H 0.358803 -1.67341 -3.31396 0
M  V30 66 H 0.840844 -0.0198876 -3.78445 0
M  V30 67 H 0.283623 0.913957 -0.747818 0
M  V30 68 H -1.78335 1.8464 0.172379 0
M  V30 69 H -4.02993 0.0219316 -2.92896 0
M  V30 70 H -4.05759 1.94769 0.349629 0
M  V30 71 H -6.17837 3.2839 -0.0680597 0
M  V30 72 H -6.54494 1.71089 0.68787 0
M  V30 73 H -11.5736 -0.87625 -2.32607 0
M  V30 74 H -10.7184 1.3739 -1.81977 0
M  V30 75 H -12.0108 -2.95005 -0.476029 0
M  V30 76 H -13.38 -3.28654 1.56767 0
M  V30 77 H -12.9668 0.854767 2.43529 0
M  V30 78 H -12.8855 2.69021 1.26129 0
M  V30 79 H -11.2984 2.48711 2.18728 0
M  V30 80 H -11.3826 3.489 0.727324 0
M  V30 81 H -14.7214 -0.780886 5.09712 0
M  V30 82 H -15.0667 0.332053 3.73856 0
M  V30 83 H -13.3482 0.146039 4.36443 0
M  V30 84 H -7.77375 -3.41684 -0.402426 0
M  V30 85 H -7.45755 -3.20455 -2.15301 0
M  V30 86 H 5.27496 0.465128 0.890587 0
M  V30 87 H 5.44222 -0.461745 4.10738 0
M  V30 88 H 6.4496 -1.73722 3.27431 0
M  V30 89 H 9.06431 1.39687 -1.56315 0
M  V30 90 H 8.63006 2.01685 0.831214 0
M  V30 91 H 10.6063 3.0717 -1.41524 0
M  V30 92 H 12.8098 3.93842 -0.889089 0
M  V30 93 H 13.6419 0.370781 1.29049 0
M  V30 94 H 12.6723 -1.00429 2.45782 0
M  V30 95 H 13.0021 -2.05456 1.03055 0
M  V30 96 H 11.5348 -2.35928 2.11036 0
M  V30 97 H 15.6558 0.893418 0.895263 0
M  V30 98 H 15.1027 1.73402 2.36961 0
M  V30 99 H 16.4905 2.40946 1.42442 0
M  V30 100 H 7.94281 -3.23696 -1.60955 0
M  V30 101 H 9.51524 -3.43719 -0.783973 0
M  V30 END ATOM
M  V30 BEGIN BOND
M  V30 1 3 1 2
M  V30 2 1 2 3
M  V30 3 2 3 4
M  V30 4 1 4 5
M  V30 5 2 5 6
M  V30 6 1 6 7
M  V30 7 2 7 8
M  V30 8 1 8 9
M  V30 9 1 9 10
M  V30 10 2 10 11
M  V30 11 1 11 12
M  V30 12 2 12 13
M  V30 13 1 13 14
M  V30 14 2 14 15
M  V30 15 1 15 16
M  V30 16 3 16 17
M  V30 17 1 13 18
M  V30 18 1 18 19
M  V30 19 2 19 20
M  V30 20 1 19 21
M  V30 21 1 21 22
M  V30 22 1 22 23
M  V30 23 2 23 24
M  V30 24 1 24 25
M  V30 25 2 25 26
M  V30 26 1 26 27
M  V30 27 1 27 28
M  V30 28 1 27 29
M  V30 29 2 29 30
M  V30 30 1 30 31
M  V30 31 2 31 32
M  V30 32 1 32 33
M  V30 33 2 33 34
M  V30 34 1 34 35
M  V30 35 1 35 36
M  V30 36 1 32 37
M  V30 37 1 37 38
M  V30 38 1 25 39
M  V30 39 1 5 40
M  V30 40 1 40 41
M  V30 41 2 41 42
M  V30 42 1 41 43
M  V30 43 1 43 44
M  V30 44 1 44 45
M  V30 45 2 45 46
M  V30 46 1 46 47
M  V30 47 2 47 48
M  V30 48 1 48 49
M  V30 49 1 49 50
M  V30 50 1 49 51
M  V30 51 2 51 52
M  V30 52 1 52 53
M  V30 53 2 53 54
M  V30 54 1 54 55
M  V30 55 2 55 56
M  V30 56 1 56 57
M  V30 57 1 57 58
M  V30 58 1 54 59
M  V30 59 1 59 60
M  V30 60 1 47 61
M  V30 61 1 8 3
M  V30 62 1 15 10
M  V30 63 1 28 23
M  V30 64 1 34 29
M  V30 65 1 50 45
M  V30 66 1 56 51
M  V30 67 1 4 62
M  V30 68 1 6 63
M  V30 69 1 7 64
M  V30 70 1 9 65
M  V30 71 1 9 66
M  V30 72 1 11 67
M  V30 73 1 12 68
M  V30 74 1 14 69
M  V30 75 1 18 70
M  V30 76 1 21 71
M  V30 77 1 21 72
M  V30 78 1 27 73
M  V30 79 1 28 74
M  V30 80 1 30 75
M  V30 81 1 31 76
M  V30 82 1 33 77
M  V30 83 1 36 78
M  V30 84 1 36 79
M  V30 85 1 36 80
M  V30 86 1 38 81
M  V30 87 1 38 82
M  V30 88 1 38 83
M  V30 89 1 39 84
M  V30 90 1 39 85
M  V30 91 1 40 86
M  V30 92 1 43 87
M  V30 93 1 43 88
M  V30 94 1 49 89
M  V30 95 1 50 90
M  V30 96 1 52 91
M  V30 97 1 53 92
M  V30 98 1 55 93
M  V30 99 1 58 94
M  V30 100 1 58 95
M  V30 101 1 58 96
M  V30 102 1 60 97
M  V30 103 1 60 98
M  V30 104 1 60 99
M  V30 105 1 61 100
M  V30 106 1 61 101
M  V30 END BOND
M  V30 END CTAB
M  END
