
     RDKit          3D

  0  0  0  0  0  0  0  0  0  0999 V3000
M  V30 BEGIN CTAB
M  V30 COUNTS 57 60 0 0 0
M  V30 BEGIN ATOM
M  V30 1 N 1.97461 -0.401096 -2.12901 0
M  V30 2 C 2.11108 0.0149057 -0.783193 0
M  V30 3 N 1.11174 -0.00663698 0.130082 0
M  V30 4 C 1.30456 0.401562 1.39303 0
M  V30 5 C 0.264826 0.414971 2.4483 0
M  V30 6 S 0.308231 -1.18186 3.29667 0
M  V30 7 C -0.254166 -2.4799 2.19337 0
M  V30 8 C -1.68898 -2.30795 1.90255 0
M  V30 9 N -2.60373 -2.88193 2.69527 0
M  V30 10 C -3.92305 -2.73264 2.43963 0
M  V30 11 N -4.89561 -3.35609 3.30135 0
M  V30 12 N -4.28458 -2.0055 1.38709 0
M  V30 13 C -3.42871 -1.41782 0.572782 0
M  V30 14 N -2.10269 -1.59213 0.864421 0
M  V30 15 N -3.80147 -0.645852 -0.542708 0
M  V30 16 C -5.0987 -0.334361 -1.00291 0
M  V30 17 C -6.24535 -0.422772 -0.261773 0
M  V30 18 C -7.50438 -0.115902 -0.810326 0
M  V30 19 C -7.64506 0.287298 -2.11366 0
M  V30 20 C -6.49199 0.377086 -2.85937 0
M  V30 21 C -5.25659 0.0827632 -2.34481 0
M  V30 22 C -8.96393 0.614897 -2.71102 0
M  V30 23 N 2.52911 0.834557 1.72259 0
M  V30 24 C 3.58197 0.884955 0.858413 0
M  V30 25 N 3.31177 0.461611 -0.381719 0
M  V30 26 N 4.79016 1.38245 1.33249 0
M  V30 27 C 5.9821 1.49243 0.590206 0
M  V30 28 C 6.23711 0.715376 -0.496656 0
M  V30 29 C 7.428 0.909751 -1.19163 0
M  V30 30 C 8.3542 1.84552 -0.831749 0
M  V30 31 C 8.06252 2.6149 0.276266 0
M  V30 32 C 6.91243 2.46606 0.991262 0
M  V30 33 C 9.61735 2.02684 -1.59885 0
M  V30 34 H 1.9369 0.322165 -2.87971 0
M  V30 35 H 1.90861 -1.38627 -2.42652 0
M  V30 36 H 0.504852 1.20945 3.18655 0
M  V30 37 H -0.727348 0.608025 1.9875 0
M  V30 38 H -0.0420043 -3.45967 2.69035 0
M  V30 39 H 0.360405 -2.50465 1.25421 0
M  V30 40 H -5.10321 -2.87901 4.20204 0
M  V30 41 H -5.38314 -4.24347 3.05825 0
M  V30 42 H -2.98015 -0.242644 -1.11106 0
M  V30 43 H -6.2024 -0.718647 0.770509 0
M  V30 44 H -8.37892 -0.200632 -0.188291 0
M  V30 45 H -6.60733 0.699167 -3.89799 0
M  V30 46 H -4.36799 0.155409 -2.93352 0
M  V30 47 H -9.07036 1.72038 -2.70901 0
M  V30 48 H -9.80145 0.179716 -2.13172 0
M  V30 49 H -9.06597 0.214869 -3.75005 0
M  V30 50 H 4.81054 1.71026 2.35871 0
M  V30 51 H 5.58015 -0.0735245 -0.862387 0
M  V30 52 H 7.60362 0.272636 -2.05763 0
M  V30 53 H 8.80108 3.35942 0.562277 0
M  V30 54 H 6.68876 3.08111 1.86867 0
M  V30 55 H 10.337 1.23066 -1.31771 0
M  V30 56 H 9.42812 2.00814 -2.69278 0
M  V30 57 H 10.0775 2.99164 -1.26814 0
M  V30 END ATOM
M  V30 BEGIN BOND
M  V30 1 1 1 2
M  V30 2 2 2 3
M  V30 3 1 3 4
M  V30 4 1 4 5
M  V30 5 1 5 6
M  V30 6 1 6 7
M  V30 7 1 7 8
M  V30 8 2 8 9
M  V30 9 1 9 10
M  V30 10 1 10 11
M  V30 11 2 10 12
M  V30 12 1 12 13
M  V30 13 2 13 14
M  V30 14 1 13 15
M  V30 15 1 15 16
M  V30 16 2 16 17
M  V30 17 1 17 18
M  V30 18 2 18 19
M  V30 19 1 19 20
M  V30 20 2 20 21
M  V30 21 1 19 22
M  V30 22 2 4 23
M  V30 23 1 23 24
M  V30 24 2 24 25
M  V30 25 1 24 26
M  V30 26 1 26 27
M  V30 27 2 27 28
M  V30 28 1 28 29
M  V30 29 2 29 30
M  V30 30 1 30 31
M  V30 31 2 31 32
M  V30 32 1 30 33
M  V30 33 1 25 2
M  V30 34 1 32 27
M  V30 35 1 14 8
M  V30 36 1 21 16
M  V30 37 1 1 34
M  V30 38 1 1 35
M  V30 39 1 5 36
M  V30 40 1 5 37
M  V30 41 1 7 38
M  V30 42 1 7 39
M  V30 43 1 11 40
M  V30 44 1 11 41
M  V30 45 1 15 42
M  V30 46 1 17 43
M  V30 47 1 18 44
M  V30 48 1 20 45
M  V30 49 1 21 46
M  V30 50 1 22 47
M  V30 51 1 22 48
M  V30 52 1 22 49
M  V30 53 1 26 50
M  V30 54 1 28 51
M  V30 55 1 29 52
M  V30 56 1 31 53
M  V30 57 1 32 54
M  V30 58 1 33 55
M  V30 59 1 33 56
M  V30 60 1 33 57
M  V30 END BOND
M  V30 END CTAB
M  END
