
     RDKit          3D

  0  0  0  0  0  0  0  0  0  0999 V3000
M  V30 BEGIN CTAB
M  V30 COUNTS 51 54 0 0 0
M  V30 BEGIN ATOM
M  V30 1 N 0.839712 2.67831 2.5647 0
M  V30 2 C -0.026076 2.35163 1.88925 0
M  V30 3 C -1.1013 1.92393 1.05278 0
M  V30 4 C -2.22018 2.75085 0.957161 0
M  V30 5 N -2.29858 3.98 1.66462 0
M  V30 6 N -3.2364 2.35532 0.172025 0
M  V30 7 C -3.21563 1.20959 -0.514986 0
M  V30 8 C -2.1274 0.397351 -0.427188 0
M  V30 9 C -1.05127 0.736719 0.356391 0
M  V30 10 C 0.154608 -0.087246 0.493106 0
M  V30 11 C 1.19949 0.0777988 -0.391367 0
M  V30 12 C 2.35284 -0.678679 -0.310284 0
M  V30 13 C 3.41444 -0.411853 -1.27646 0
M  V30 14 N 4.47144 0.434381 -0.801103 0
M  V30 15 C 5.61403 0.0695293 -0.232942 0
M  V30 16 N 6.31382 1.20479 0.076321 0
M  V30 17 C 5.58935 2.26905 -0.308126 0
M  V30 18 N 4.47098 1.75482 -0.839643 0
M  V30 19 C 2.46809 -1.60906 0.659337 0
M  V30 20 C 1.41088 -1.77994 1.55924 0
M  V30 21 C 0.256112 -1.03806 1.49652 0
M  V30 22 C -0.850804 -1.22875 2.4666 0
M  V30 23 C 3.61915 -2.50199 0.859201 0
M  V30 24 C -2.0595 -0.866339 -1.17342 0
M  V30 25 C -3.32005 -1.26136 -1.86071 0
M  V30 26 C -4.14646 -0.131655 -2.38326 0
M  V30 27 C -4.42191 0.921523 -1.33818 0
M  V30 28 N -4.18001 -2.09776 -1.04555 0
M  V30 29 H -2.6127 3.9485 2.66196 0
M  V30 30 H -2.04835 4.90299 1.20304 0
M  V30 31 H 1.09292 0.827319 -1.16423 0
M  V30 32 H 2.96269 0.127694 -2.16217 0
M  V30 33 H 3.91846 -1.34821 -1.62801 0
M  V30 34 H 6.04692 -0.891164 -0.00521311 0
M  V30 35 H 5.84949 3.29897 -0.211027 0
M  V30 36 H 1.47652 -2.53005 2.36107 0
M  V30 37 H -1.61088 -0.448657 2.41058 0
M  V30 38 H -1.34715 -2.19488 2.19211 0
M  V30 39 H -0.464727 -1.38361 3.50098 0
M  V30 40 H 4.17442 -2.72152 -0.0718105 0
M  V30 41 H 4.27805 -2.11989 1.67152 0
M  V30 42 H 3.24503 -3.48322 1.21752 0
M  V30 43 H -1.7567 -1.68233 -0.489181 0
M  V30 44 H -1.2524 -0.802001 -1.94776 0
M  V30 45 H -3.03923 -1.89239 -2.75406 0
M  V30 46 H -3.68254 0.304864 -3.30009 0
M  V30 47 H -5.11807 -0.554577 -2.71224 0
M  V30 48 H -4.70209 1.84942 -1.87265 0
M  V30 49 H -5.25899 0.641398 -0.680831 0
M  V30 50 H -3.7255 -2.22697 -0.120932 0
M  V30 51 H -4.34453 -3.0446 -1.4626 0
M  V30 END ATOM
M  V30 BEGIN BOND
M  V30 1 3 1 2
M  V30 2 1 2 3
M  V30 3 2 3 4
M  V30 4 1 4 5
M  V30 5 1 4 6
M  V30 6 2 6 7
M  V30 7 1 7 8
M  V30 8 2 8 9
M  V30 9 1 9 10
M  V30 10 2 10 11
M  V30 11 1 11 12
M  V30 12 1 12 13
M  V30 13 1 13 14
M  V30 14 1 14 15
M  V30 15 2 15 16
M  V30 16 1 16 17
M  V30 17 2 17 18
M  V30 18 2 12 19
M  V30 19 1 19 20
M  V30 20 2 20 21
M  V30 21 1 21 22
M  V30 22 1 19 23
M  V30 23 1 8 24
M  V30 24 1 24 25
M  V30 25 1 25 26
M  V30 26 1 26 27
M  V30 27 1 25 28
M  V30 28 1 9 3
M  V30 29 1 21 10
M  V30 30 1 27 7
M  V30 31 1 18 14
M  V30 32 1 5 29
M  V30 33 1 5 30
M  V30 34 1 11 31
M  V30 35 1 13 32
M  V30 36 1 13 33
M  V30 37 1 15 34
M  V30 38 1 17 35
M  V30 39 1 20 36
M  V30 40 1 22 37
M  V30 41 1 22 38
M  V30 42 1 22 39
M  V30 43 1 23 40
M  V30 44 1 23 41
M  V30 45 1 23 42
M  V30 46 1 24 43
M  V30 47 1 24 44
M  V30 48 1 25 45
M  V30 49 1 26 46
M  V30 50 1 26 47
M  V30 51 1 27 48
M  V30 52 1 27 49
M  V30 53 1 28 50
M  V30 54 1 28 51
M  V30 END BOND
M  V30 END CTAB
M  END
