
     RDKit          3D

  0  0  0  0  0  0  0  0  0  0999 V3000
M  V30 BEGIN CTAB
M  V30 COUNTS 23 23 0 0 0
M  V30 BEGIN ATOM
M  V30 1 N 4.12203 0.62068 0.520373 0
M  V30 2 N 2.85042 0.000655617 0.602097 0
M  V30 3 C 1.7507 0.451589 -0.139654 0
M  V30 4 O 2.00794 1.47014 -0.891211 0
M  V30 5 C 0.398878 -0.0750289 -0.161833 0
M  V30 6 C -0.626461 0.479848 -0.962993 0
M  V30 7 C -1.73758 -0.25539 -0.732701 0
M  V30 8 N -1.4128 -1.19784 0.15119 0
M  V30 9 N -0.126149 -1.10515 0.508079 0
M  V30 10 C 0.553752 -1.97801 1.45423 0
M  V30 11 C -3.10613 -0.0801321 -1.33735 0
M  V30 12 N -3.82333 0.822006 -0.459334 0
M  V30 13 H 4.16028 1.23577 -0.333508 0
M  V30 14 H 4.80045 -0.152254 0.332839 0
M  V30 15 H 2.82827 -0.799785 1.25345 0
M  V30 16 H -0.521391 1.3267 -1.62365 0
M  V30 17 H -0.208168 -2.74327 1.80984 0
M  V30 18 H 0.866821 -1.46388 2.37763 0
M  V30 19 H 1.33704 -2.60399 0.982064 0
M  V30 20 H -3.64998 -1.05405 -1.34781 0
M  V30 21 H -2.98029 0.3053 -2.35345 0
M  V30 22 H -3.14872 1.43073 0.0770631 0
M  V30 23 H -4.33557 0.266283 0.274644 0
M  V30 END ATOM
M  V30 BEGIN BOND
M  V30 1 1 1 2
M  V30 2 1 2 3
M  V30 3 2 3 4
M  V30 4 1 3 5
M  V30 5 2 5 6
M  V30 6 1 6 7
M  V30 7 2 7 8
M  V30 8 1 8 9
M  V30 9 1 9 10
M  V30 10 1 7 11
M  V30 11 1 11 12
M  V30 12 1 9 5
M  V30 13 1 1 13
M  V30 14 1 1 14
M  V30 15 1 2 15
M  V30 16 1 6 16
M  V30 17 1 10 17
M  V30 18 1 10 18
M  V30 19 1 10 19
M  V30 20 1 11 20
M  V30 21 1 11 21
M  V30 22 1 12 22
M  V30 23 1 12 23
M  V30 END BOND
M  V30 END CTAB
M  END
