
     RDKit          3D

  0  0  0  0  0  0  0  0  0  0999 V3000
M  V30 BEGIN CTAB
M  V30 COUNTS 111 113 0 0 0
M  V30 BEGIN ATOM
M  V30 1 N -8.16108 -1.93812 -1.66125 0
M  V30 2 C -7.44196 -1.83801 -2.86523 0
M  V30 3 N -7.8696 -2.43618 -3.91336 0
M  V30 4 N -6.2601 -1.08624 -2.91419 0
M  V30 5 C -5.9002 -0.0744139 -1.91978 0
M  V30 6 C -4.57124 0.525523 -2.23914 0
M  V30 7 C -4.07129 1.59301 -1.35122 0
M  V30 8 C -3.86064 1.25375 0.0967058 0 CFG=2
M  V30 9 N -2.94767 0.175859 0.297755 0
M  V30 10 C -1.57324 0.280323 0.480218 0
M  V30 11 O -0.960756 1.40758 0.479096 0
M  V30 12 C -0.649278 -0.880992 0.689078 0 CFG=2
M  V30 13 C -0.140353 -0.93798 2.09114 0
M  V30 14 C -1.15628 -1.08841 3.14394 0
M  V30 15 O -0.773278 -1.00717 4.47272 0
M  V30 16 O -2.36215 -1.28608 2.90939 0
M  V30 17 N 0.538609 -0.689453 -0.153017 0
M  V30 18 C 0.864319 -1.59867 -1.1869 0
M  V30 19 O 0.0541873 -2.58837 -1.29741 0
M  V30 20 C 2.01318 -1.48402 -2.10052 0
M  V30 21 C 2.21755 -2.72422 -2.92567 0
M  V30 22 C 2.64891 -3.89538 -2.07532 0 CFG=2
M  V30 23 N 3.91572 -3.6737 -1.41332 0
M  V30 24 C 5.02408 -2.96892 -1.90022 0
M  V30 25 O 5.00725 -2.43913 -3.02992 0
M  V30 26 C 6.23061 -2.82945 -1.12582 0
M  V30 27 C 6.27677 -2.86264 0.237686 0
M  V30 28 C 7.50538 -2.75082 0.906475 0
M  V30 29 C 8.69262 -2.60595 0.180414 0
M  V30 30 N 9.91348 -2.54568 0.880608 0
M  V30 31 C 11.1606 -2.24039 0.269 0
M  V30 32 C 11.4119 -0.793136 0.137993 0
M  V30 33 C 11.1948 -0.0157437 -0.965725 0
M  V30 34 N 11.5091 1.30983 -0.944503 0
M  V30 35 C 12.0302 1.85699 0.153685 0
M  V30 36 N 12.3622 3.15059 0.211572 0
M  V30 37 C 12.8982 3.68268 1.32872 0
M  V30 38 N 13.2393 5.05517 1.35645 0
M  V30 39 N 13.1208 2.93396 2.43343 0
M  V30 40 C 12.8113 1.63841 2.43931 0
M  V30 41 O 12.9937 0.908106 3.42199 0
M  V30 42 C 12.2614 1.09355 1.29051 0
M  V30 43 N 11.9491 -0.201491 1.25312 0
M  V30 44 C 8.63421 -2.57419 -1.17427 0
M  V30 45 C 7.4316 -2.68271 -1.82279 0
M  V30 46 C 2.63331 -5.12059 -2.88687 0
M  V30 47 O 1.44928 -5.40295 -3.57928 0
M  V30 48 O 3.57764 -5.92662 -3.01233 0
M  V30 49 C -5.08575 1.23492 0.891829 0
M  V30 50 O -5.3536 0.272834 1.68596 0
M  V30 51 N -6.06431 2.2625 0.854022 0
M  V30 52 C -7.28006 2.25818 1.61033 0 CFG=1
M  V30 53 C -7.22534 3.23961 2.77782 0
M  V30 54 C -6.10599 2.84994 3.66988 0
M  V30 55 O -6.40862 2.1376 4.82436 0
M  V30 56 O -4.90634 3.12338 3.4468 0
M  V30 57 C -8.40089 2.70381 0.758105 0
M  V30 58 O -8.13236 2.99217 -0.461392 0
M  V30 59 N -9.72532 2.82614 1.22151 0
M  V30 60 C -10.7533 3.28176 0.314746 0 CFG=1
M  V30 61 C -11.9088 2.33368 0.196678 0
M  V30 62 S -11.393 0.713205 -0.4076 0
M  V30 63 C -11.3212 4.5823 0.826975 0
M  V30 64 O -12.3077 5.18679 0.0924667 0
M  V30 65 O -10.8841 5.06427 1.88805 0
M  V30 66 H -9.13424 -1.61602 -1.61086 0
M  V30 67 H -7.70621 -2.33646 -0.822693 0
M  V30 68 H -7.42478 -2.43164 -4.84518 0
M  V30 69 H -5.58996 -1.23655 -3.69263 0
M  V30 70 H -5.83469 -0.571454 -0.933857 0
M  V30 71 H -6.7457 0.643544 -1.89498 0
M  V30 72 H -4.67839 0.971583 -3.27496 0
M  V30 73 H -3.85233 -0.326965 -2.356 0
M  V30 74 H -3.17079 2.12239 -1.75586 0
M  V30 75 H -4.86049 2.41478 -1.37011 0
M  V30 76 H -3.27998 2.17832 0.482982 0
M  V30 77 H -3.37328 -0.793239 0.295629 0
M  V30 78 H -1.15154 -1.81878 0.430848 0
M  V30 79 H 0.332784 0.077563 2.2855 0
M  V30 80 H 0.711493 -1.63968 2.21537 0
M  V30 81 H -0.904277 -1.81692 5.08536 0
M  V30 82 H 1.17263 0.123163 -0.00350152 0
M  V30 83 H 1.95741 -0.582267 -2.73433 0
M  V30 84 H 2.91668 -1.37634 -1.43853 0
M  V30 85 H 2.86533 -2.54185 -3.78189 0
M  V30 86 H 1.2232 -3.0189 -3.41006 0
M  V30 87 H 1.91082 -4.02358 -1.22775 0
M  V30 88 H 4.05721 -4.09089 -0.425768 0
M  V30 89 H 5.35305 -2.97984 0.811268 0
M  V30 90 H 7.46621 -2.78434 1.97906 0
M  V30 91 H 9.93201 -2.73221 1.93111 0
M  V30 92 H 11.9834 -2.71187 0.892963 0
M  V30 93 H 11.2641 -2.66944 -0.757174 0
M  V30 94 H 10.7791 -0.459058 -1.85876 0
M  V30 95 H 12.6256 5.77913 0.935008 0
M  V30 96 H 14.1378 5.34378 1.81503 0
M  V30 97 H 13.5358 3.4064 3.26066 0
M  V30 98 H 9.52498 -2.47515 -1.76275 0
M  V30 99 H 7.40362 -2.6521 -2.9024 0
M  V30 100 H 0.57187 -4.95737 -3.41544 0
M  V30 101 H -5.88318 3.07706 0.231802 0
M  V30 102 H -7.51976 1.26624 2.04577 0
M  V30 103 H -8.16606 3.15705 3.35663 0
M  V30 104 H -7.15522 4.28399 2.44016 0
M  V30 105 H -7.05945 1.38827 4.88684 0
M  V30 106 H -9.91782 2.57402 2.22703 0
M  V30 107 H -10.2938 3.44417 -0.683363 0
M  V30 108 H -12.6708 2.82646 -0.44473 0
M  V30 109 H -12.3933 2.26646 1.21427 0
M  V30 110 H -12.2077 0.3652 -1.48956 0
M  V30 111 H -12.367 6.19276 0.0820444 0
M  V30 END ATOM
M  V30 BEGIN BOND
M  V30 1 1 1 2
M  V30 2 2 2 3 CFG=2
M  V30 3 1 2 4
M  V30 4 1 4 5
M  V30 5 1 5 6
M  V30 6 1 6 7
M  V30 7 1 7 8
M  V30 8 1 8 9
M  V30 9 1 9 10
M  V30 10 2 10 11
M  V30 11 1 10 12
M  V30 12 1 12 13
M  V30 13 1 13 14
M  V30 14 1 14 15
M  V30 15 2 14 16
M  V30 16 1 12 17
M  V30 17 1 17 18
M  V30 18 2 18 19
M  V30 19 1 18 20
M  V30 20 1 20 21
M  V30 21 1 21 22
M  V30 22 1 22 23
M  V30 23 1 23 24
M  V30 24 2 24 25
M  V30 25 1 24 26
M  V30 26 2 26 27
M  V30 27 1 27 28
M  V30 28 2 28 29
M  V30 29 1 29 30
M  V30 30 1 30 31
M  V30 31 1 31 32
M  V30 32 2 32 33
M  V30 33 1 33 34
M  V30 34 2 34 35
M  V30 35 1 35 36
M  V30 36 2 36 37
M  V30 37 1 37 38
M  V30 38 1 37 39
M  V30 39 1 39 40
M  V30 40 2 40 41
M  V30 41 1 40 42
M  V30 42 2 42 43
M  V30 43 1 29 44
M  V30 44 2 44 45
M  V30 45 1 22 46
M  V30 46 1 46 47
M  V30 47 2 46 48
M  V30 48 1 8 49
M  V30 49 2 49 50
M  V30 50 1 49 51
M  V30 51 1 51 52
M  V30 52 1 52 53
M  V30 53 1 53 54
M  V30 54 1 54 55
M  V30 55 2 54 56
M  V30 56 1 52 57
M  V30 57 2 57 58
M  V30 58 1 57 59
M  V30 59 1 59 60
M  V30 60 1 60 61
M  V30 61 1 61 62
M  V30 62 1 60 63
M  V30 63 1 63 64
M  V30 64 2 63 65
M  V30 65 1 45 26
M  V30 66 1 43 32
M  V30 67 1 42 35
M  V30 68 1 1 66
M  V30 69 1 1 67
M  V30 70 1 3 68
M  V30 71 1 4 69
M  V30 72 1 5 70
M  V30 73 1 5 71
M  V30 74 1 6 72
M  V30 75 1 6 73
M  V30 76 1 7 74
M  V30 77 1 7 75
M  V30 78 1 8 76 CFG=1
M  V30 79 1 9 77
M  V30 80 1 12 78 CFG=3
M  V30 81 1 13 79
M  V30 82 1 13 80
M  V30 83 1 15 81
M  V30 84 1 17 82
M  V30 85 1 20 83
M  V30 86 1 20 84
M  V30 87 1 21 85
M  V30 88 1 21 86
M  V30 89 1 22 87 CFG=1
M  V30 90 1 23 88
M  V30 91 1 27 89
M  V30 92 1 28 90
M  V30 93 1 30 91
M  V30 94 1 31 92
M  V30 95 1 31 93
M  V30 96 1 33 94
M  V30 97 1 38 95
M  V30 98 1 38 96
M  V30 99 1 39 97
M  V30 100 1 44 98
M  V30 101 1 45 99
M  V30 102 1 47 100
M  V30 103 1 51 101
M  V30 104 1 52 102 CFG=1
M  V30 105 1 53 103
M  V30 106 1 53 104
M  V30 107 1 55 105
M  V30 108 1 59 106
M  V30 109 1 60 107 CFG=3
M  V30 110 1 61 108
M  V30 111 1 61 109
M  V30 112 1 62 110
M  V30 113 1 64 111
M  V30 END BOND
M  V30 END CTAB
M  END
