
     RDKit          3D

  0  0  0  0  0  0  0  0  0  0999 V3000
M  V30 BEGIN CTAB
M  V30 COUNTS 35 36 0 0 0
M  V30 BEGIN ATOM
M  V30 1 C -0.939573 4.12856 1.48881 0
M  V30 2 O -0.781915 3.03645 0.608676 0
M  V30 3 C 0.181747 2.06064 0.764633 0
M  V30 4 O 0.954827 2.13265 1.72008 0
M  V30 5 C 0.223033 0.975957 -0.241758 0
M  V30 6 C -1.04778 0.208392 -0.324189 0
M  V30 7 C -1.60238 -0.214928 -1.51356 0
M  V30 8 C -2.79109 -0.930348 -1.55722 0
M  V30 9 C -3.45853 -1.24153 -0.39997 0
M  V30 10 N -4.66611 -1.96849 -0.446351 0
M  V30 11 C -2.92402 -0.829864 0.794427 0
M  V30 12 C -1.74354 -0.12075 0.820055 0
M  V30 13 C 1.39846 0.0892701 -0.121093 0
M  V30 14 C 1.78328 -0.46611 1.08174 0
M  V30 15 C 2.90047 -1.29065 1.13854 0
M  V30 16 C 3.65864 -1.58794 0.0326112 0
M  V30 17 N 4.79799 -2.42216 0.061434 0
M  V30 18 C 3.28457 -1.03971 -1.17406 0
M  V30 19 C 2.19233 -0.233644 -1.22891 0
M  V30 20 H -0.00253428 4.679 1.66968 0
M  V30 21 H -1.64137 4.83879 1.00407 0
M  V30 22 H -1.41633 3.82666 2.44872 0
M  V30 23 H 0.344323 1.49684 -1.24268 0
M  V30 24 H -1.10976 0.00888263 -2.44426 0
M  V30 25 H -3.20512 -1.25157 -2.51306 0
M  V30 26 H -4.66108 -2.97637 -0.715906 0
M  V30 27 H -5.59731 -1.55235 -0.221499 0
M  V30 28 H -3.43505 -1.06401 1.73424 0
M  V30 29 H -1.3812 0.172066 1.8092 0
M  V30 30 H 1.22139 -0.27459 2.00611 0
M  V30 31 H 3.19642 -1.72391 2.09112 0
M  V30 32 H 4.78181 -3.45846 0.0516462 0
M  V30 33 H 5.74152 -1.97128 0.0955135 0
M  V30 34 H 3.84073 -1.23203 -2.09813 0
M  V30 35 H 1.90316 0.196537 -2.18955 0
M  V30 END ATOM
M  V30 BEGIN BOND
M  V30 1 1 1 2
M  V30 2 1 2 3
M  V30 3 2 3 4
M  V30 4 1 3 5
M  V30 5 1 5 6
M  V30 6 2 6 7
M  V30 7 1 7 8
M  V30 8 2 8 9
M  V30 9 1 9 10
M  V30 10 1 9 11
M  V30 11 2 11 12
M  V30 12 1 5 13
M  V30 13 2 13 14
M  V30 14 1 14 15
M  V30 15 2 15 16
M  V30 16 1 16 17
M  V30 17 1 16 18
M  V30 18 2 18 19
M  V30 19 1 12 6
M  V30 20 1 19 13
M  V30 21 1 1 20
M  V30 22 1 1 21
M  V30 23 1 1 22
M  V30 24 1 5 23
M  V30 25 1 7 24
M  V30 26 1 8 25
M  V30 27 1 10 26
M  V30 28 1 10 27
M  V30 29 1 11 28
M  V30 30 1 12 29
M  V30 31 1 14 30
M  V30 32 1 15 31
M  V30 33 1 17 32
M  V30 34 1 17 33
M  V30 35 1 18 34
M  V30 36 1 19 35
M  V30 END BOND
M  V30 END CTAB
M  END
