
     RDKit          3D

  0  0  0  0  0  0  0  0  0  0999 V3000
M  V30 BEGIN CTAB
M  V30 COUNTS 34 35 0 0 0
M  V30 BEGIN ATOM
M  V30 1 C 4.96503 0.479032 -0.281109 0
M  V30 2 C 4.12662 -0.473117 0.546131 0
M  V30 3 C 2.66705 -0.301909 0.259913 0
M  V30 4 C 2.05175 -1.0315 -0.73349 0
M  V30 5 C 0.709127 -0.876729 -0.999289 0
M  V30 6 C -0.0868314 0.019551 -0.280899 0
M  V30 7 C 0.520138 0.74057 0.699598 0
M  V30 8 C 1.88669 0.58282 0.970315 0
M  V30 9 C -1.52387 0.112613 -0.675004 0
M  V30 10 C -2.21552 -1.13362 -0.299982 0
M  V30 11 C -2.75888 -1.36042 0.871083 0
M  V30 12 N -3.40159 -2.57544 1.16118 0
M  V30 13 S -2.66188 -0.0152926 2.07876 0
M  V30 14 C -2.76451 1.42224 0.957473 0
M  V30 15 C -2.2062 1.31215 -0.233524 0
M  V30 16 C -2.274 2.45453 -1.15905 0
M  V30 17 N -2.32972 3.34077 -1.89943 0
M  V30 18 N -3.40291 2.60771 1.31739 0
M  V30 19 C -2.30346 -2.21372 -1.32129 0
M  V30 20 N -2.36512 -3.05741 -2.09277 0
M  V30 21 H 4.30725 1.32349 -0.577428 0
M  V30 22 H 5.86245 0.839262 0.26853 0
M  V30 23 H 5.25804 -0.025345 -1.2396 0
M  V30 24 H 4.27288 -0.27537 1.6217 0
M  V30 25 H 4.45582 -1.51615 0.332381 0
M  V30 26 H 2.67688 -1.73479 -1.29704 0
M  V30 27 H 0.255558 -1.45304 -1.77346 0
M  V30 28 H -0.0398121 1.44546 1.26662 0
M  V30 29 H 2.3595 1.16109 1.75284 0
M  V30 30 H -1.45461 0.136088 -1.82656 0
M  V30 31 H -4.2662 -2.84792 0.644805 0
M  V30 32 H -3.01095 -3.19809 1.89091 0
M  V30 33 H -2.96361 3.5346 1.16615 0
M  V30 34 H -4.34512 2.57789 1.75011 0
M  V30 END ATOM
M  V30 BEGIN BOND
M  V30 1 1 1 2
M  V30 2 1 2 3
M  V30 3 2 3 4
M  V30 4 1 4 5
M  V30 5 2 5 6
M  V30 6 1 6 7
M  V30 7 2 7 8
M  V30 8 1 6 9
M  V30 9 1 9 10
M  V30 10 2 10 11
M  V30 11 1 11 12
M  V30 12 1 11 13
M  V30 13 1 13 14
M  V30 14 2 14 15
M  V30 15 1 15 16
M  V30 16 3 16 17
M  V30 17 1 14 18
M  V30 18 1 10 19
M  V30 19 3 19 20
M  V30 20 1 8 3
M  V30 21 1 15 9
M  V30 22 1 1 21
M  V30 23 1 1 22
M  V30 24 1 1 23
M  V30 25 1 2 24
M  V30 26 1 2 25
M  V30 27 1 4 26
M  V30 28 1 5 27
M  V30 29 1 7 28
M  V30 30 1 8 29
M  V30 31 1 9 30
M  V30 32 1 12 31
M  V30 33 1 12 32
M  V30 34 1 18 33
M  V30 35 1 18 34
M  V30 END BOND
M  V30 END CTAB
M  END
