
     RDKit          3D

  0  0  0  0  0  0  0  0  0  0999 V3000
M  V30 BEGIN CTAB
M  V30 COUNTS 17 17 0 0 0
M  V30 BEGIN ATOM
M  V30 1 Cl 2.54938 -2.92016 -0.21385 0
M  V30 2 C 1.49856 -1.52418 -0.111104 0
M  V30 3 C 0.137342 -1.74664 -0.129192 0
M  V30 4 C -0.752857 -0.668406 -0.0499207 0
M  V30 5 N -2.16019 -0.848365 -0.0649465 0
M  V30 6 C -0.256005 0.620873 0.0466193 0
M  V30 7 C 1.10664 0.856853 0.0657143 0
M  V30 8 C 1.96764 -0.23932 -0.014927 0
M  V30 9 O 1.60837 2.14618 0.162258 0
M  V30 10 N -1.12194 1.74771 0.129534 0
M  V30 11 H -0.286799 -2.75239 -0.204544 0
M  V30 12 H -2.68727 -1.29575 -0.836803 0
M  V30 13 H -2.70958 -0.510768 0.751624 0
M  V30 14 H 3.03995 -0.0832376 -0.00211232 0
M  V30 15 H 0.953685 2.91479 0.218769 0
M  V30 16 H -1.63475 2.01746 -0.737204 0
M  V30 17 H -1.25216 2.28534 0.990085 0
M  V30 END ATOM
M  V30 BEGIN BOND
M  V30 1 1 1 2
M  V30 2 2 2 3
M  V30 3 1 3 4
M  V30 4 1 4 5
M  V30 5 2 4 6
M  V30 6 1 6 7
M  V30 7 2 7 8
M  V30 8 1 7 9
M  V30 9 1 6 10
M  V30 10 1 8 2
M  V30 11 1 3 11
M  V30 12 1 5 12
M  V30 13 1 5 13
M  V30 14 1 8 14
M  V30 15 1 9 15
M  V30 16 1 10 16
M  V30 17 1 10 17
M  V30 END BOND
M  V30 END CTAB
M  END
