
     RDKit          3D

  0  0  0  0  0  0  0  0  0  0999 V3000
M  V30 BEGIN CTAB
M  V30 COUNTS 36 35 0 0 0
M  V30 BEGIN ATOM
M  V30 1 N -4.41221 -2.99325 1.30996 0
M  V30 2 N -4.48094 -1.82446 0.549899 0
M  V30 3 C -3.29901 -1.06469 0.353129 0
M  V30 4 S -1.93737 -1.61089 1.05036 0
M  V30 5 N -3.3448 0.130402 -0.418285 0
M  V30 6 C -2.26106 1.00275 -0.719433 0
M  V30 7 C -1.69101 1.73212 0.444748 0
M  V30 8 C -0.616583 2.66453 -0.0248993 0
M  V30 9 C 0.542014 2.08166 -0.7247 0
M  V30 10 C 1.37209 1.09112 0.0405921 0
M  V30 11 C 2.51928 0.692675 -0.873799 0
M  V30 12 N 3.41534 -0.239948 -0.266127 0
M  V30 13 C 3.0887 -1.58186 -0.0137812 0
M  V30 14 S 1.65465 -2.20184 -0.447277 0
M  V30 15 N 4.02742 -2.4292 0.603876 0
M  V30 16 N 5.27188 -1.92173 0.957257 0
M  V30 17 H -5.27414 -3.57452 1.15089 0
M  V30 18 H -4.29402 -2.83065 2.31697 0
M  V30 19 H -5.38782 -1.50426 0.126212 0
M  V30 20 H -4.29465 0.415168 -0.819848 0
M  V30 21 H -2.58451 1.75974 -1.4586 0
M  V30 22 H -1.44497 0.428403 -1.215 0
M  V30 23 H -2.4635 2.39337 0.936203 0
M  V30 24 H -1.22726 1.05094 1.18963 0
M  V30 25 H -0.258101 3.30942 0.831703 0
M  V30 26 H -1.10144 3.39594 -0.74465 0
M  V30 27 H 1.26667 2.87458 -1.07049 0
M  V30 28 H 0.169549 1.59095 -1.65485 0
M  V30 29 H 0.736345 0.208808 0.243564 0
M  V30 30 H 1.75013 1.51451 0.991183 0
M  V30 31 H 2.09457 0.171773 -1.78167 0
M  V30 32 H 3.02341 1.59101 -1.28252 0
M  V30 33 H 4.37423 0.161948 -0.0105554 0
M  V30 34 H 3.80044 -3.42035 0.795936 0
M  V30 35 H 5.9997 -2.06292 0.232867 0
M  V30 36 H 5.26698 -1.00123 1.40457 0
M  V30 END ATOM
M  V30 BEGIN BOND
M  V30 1 1 1 2
M  V30 2 1 2 3
M  V30 3 2 3 4
M  V30 4 1 3 5
M  V30 5 1 5 6
M  V30 6 1 6 7
M  V30 7 1 7 8
M  V30 8 1 8 9
M  V30 9 1 9 10
M  V30 10 1 10 11
M  V30 11 1 11 12
M  V30 12 1 12 13
M  V30 13 2 13 14
M  V30 14 1 13 15
M  V30 15 1 15 16
M  V30 16 1 1 17
M  V30 17 1 1 18
M  V30 18 1 2 19
M  V30 19 1 5 20
M  V30 20 1 6 21
M  V30 21 1 6 22
M  V30 22 1 7 23
M  V30 23 1 7 24
M  V30 24 1 8 25
M  V30 25 1 8 26
M  V30 26 1 9 27
M  V30 27 1 9 28
M  V30 28 1 10 29
M  V30 29 1 10 30
M  V30 30 1 11 31
M  V30 31 1 11 32
M  V30 32 1 12 33
M  V30 33 1 15 34
M  V30 34 1 16 35
M  V30 35 1 16 36
M  V30 END BOND
M  V30 END CTAB
M  END
