
     RDKit          3D

  0  0  0  0  0  0  0  0  0  0999 V3000
M  V30 BEGIN CTAB
M  V30 COUNTS 39 40 0 0 0
M  V30 BEGIN ATOM
M  V30 1 N 4.6585 0.845861 0.643184 0
M  V30 2 C 4.41397 -0.444156 0.197063 0
M  V30 3 C 3.03899 -0.683343 -0.299225 0
M  V30 4 N 1.93899 -0.545645 0.563133 0
M  V30 5 C 1.53764 0.711607 1.03253 0
M  V30 6 C 0.858768 1.58445 0.0159763 0
M  V30 7 C -0.333826 1.1658 -0.663706 0
M  V30 8 C -1.06832 -0.0852267 -0.40091 0 CFG=1
M  V30 9 C -0.462775 -0.94194 0.6983 0
M  V30 10 C 0.849454 -1.44694 0.25674 0
M  V30 11 C -2.49009 0.104497 0.00431633 0
M  V30 12 C -2.98774 1.23127 0.620005 0
M  V30 13 C -4.31562 1.32907 1.01378 0
M  V30 14 C -5.19743 0.286241 0.800238 0
M  V30 15 N -4.71856 -0.804827 0.203791 0
M  V30 16 C -3.45561 -0.900642 -0.170977 0
M  V30 17 N -2.99261 -2.09082 -0.837427 0
M  V30 18 H 5.00026 1.46627 -0.064337 0
M  V30 19 H 4.97285 0.995682 1.56595 0
M  V30 20 H 5.19142 -0.646986 -0.611082 0
M  V30 21 H 4.68392 -1.20762 0.976241 0
M  V30 22 H 2.89126 -0.150124 -1.29435 0
M  V30 23 H 3.03294 -1.77791 -0.644589 0
M  V30 24 H 0.949485 0.675221 1.99812 0
M  V30 25 H 2.43028 1.27871 1.35459 0
M  V30 26 H 1.70656 1.85211 -0.695804 0
M  V30 27 H 0.721055 2.57604 0.555368 0
M  V30 28 H -1.08958 1.99078 -0.694291 0
M  V30 29 H -0.0706204 1.14054 -1.78636 0
M  V30 30 H -1.07764 -0.752377 -1.27913 0
M  V30 31 H -0.559691 -0.521318 1.69061 0
M  V30 32 H -1.12476 -1.86148 0.750313 0
M  V30 33 H 1.10741 -2.46768 0.610264 0
M  V30 34 H 0.835474 -1.51941 -0.875213 0
M  V30 35 H -2.29777 2.0562 0.806572 0
M  V30 36 H -4.66265 2.23856 1.4963 0
M  V30 37 H -6.2431 0.373202 1.11225 0
M  V30 38 H -2.62656 -2.08807 -1.80676 0
M  V30 39 H -3.04428 -2.96559 -0.286547 0
M  V30 END ATOM
M  V30 BEGIN BOND
M  V30 1 1 1 2
M  V30 2 1 2 3
M  V30 3 1 3 4
M  V30 4 1 4 5
M  V30 5 1 5 6
M  V30 6 1 6 7
M  V30 7 1 7 8
M  V30 8 1 8 9
M  V30 9 1 9 10
M  V30 10 1 8 11
M  V30 11 2 11 12
M  V30 12 1 12 13
M  V30 13 2 13 14
M  V30 14 1 14 15
M  V30 15 2 15 16
M  V30 16 1 16 17
M  V30 17 1 10 4
M  V30 18 1 16 11
M  V30 19 1 1 18
M  V30 20 1 1 19
M  V30 21 1 2 20
M  V30 22 1 2 21
M  V30 23 1 3 22
M  V30 24 1 3 23
M  V30 25 1 5 24
M  V30 26 1 5 25
M  V30 27 1 6 26
M  V30 28 1 6 27
M  V30 29 1 7 28
M  V30 30 1 7 29
M  V30 31 1 8 30 CFG=3
M  V30 32 1 9 31
M  V30 33 1 9 32
M  V30 34 1 10 33
M  V30 35 1 10 34
M  V30 36 1 12 35
M  V30 37 1 13 36
M  V30 38 1 14 37
M  V30 39 1 17 38
M  V30 40 1 17 39
M  V30 END BOND
M  V30 END CTAB
M  END
