
     RDKit          3D

  0  0  0  0  0  0  0  0  0  0999 V3000
M  V30 BEGIN CTAB
M  V30 COUNTS 39 38 0 0 0
M  V30 BEGIN ATOM
M  V30 1 C -2.88478 0.837913 1.82056 0
M  V30 2 C -3.07266 0.426685 0.37753 0
M  V30 3 C -4.17248 -0.623371 0.363351 0
M  V30 4 C -3.52679 1.65151 -0.385756 0
M  V30 5 O -1.93189 -0.146907 -0.187993 0
M  V30 6 C -0.710706 0.47171 -0.313883 0
M  V30 7 O -0.604467 1.63935 0.108437 0
M  V30 8 N 0.446596 -0.142594 -0.900203 0
M  V30 9 C 0.259137 -1.49215 -1.36862 0
M  V30 10 C 0.518259 -2.56669 -0.378629 0
M  V30 11 N 0.257329 -3.84367 -1.07148 0
M  V30 12 C 1.65492 0.606637 -0.996013 0
M  V30 13 C 2.48509 0.427735 0.248878 0
M  V30 14 C 3.77733 1.22764 0.161663 0
M  V30 15 O 4.47553 1.01334 1.32846 0
M  V30 16 N 5.64939 1.67333 1.37424 0
M  V30 17 H -3.89105 1.10952 2.21837 0
M  V30 18 H -2.23513 1.70174 1.95595 0
M  V30 19 H -2.53654 -0.033726 2.44176 0
M  V30 20 H -3.70516 -1.56145 0.753867 0
M  V30 21 H -4.50424 -0.733441 -0.688922 0
M  V30 22 H -4.99927 -0.313815 1.03769 0
M  V30 23 H -3.0306 2.55002 0.0435519 0
M  V30 24 H -3.25052 1.51669 -1.43521 0
M  V30 25 H -4.61309 1.79926 -0.259348 0
M  V30 26 H -0.753175 -1.57896 -1.77922 0
M  V30 27 H 0.954954 -1.68127 -2.24071 0
M  V30 28 H -0.291458 -2.50812 0.402838 0
M  V30 29 H 1.50983 -2.60882 0.0624882 0
M  V30 30 H -0.453296 -3.68632 -1.8059 0
M  V30 31 H 1.12677 -4.27923 -1.39663 0
M  V30 32 H 2.26177 0.368898 -1.89314 0
M  V30 33 H 1.39072 1.69988 -1.03115 0
M  V30 34 H 1.89152 0.854381 1.10301 0
M  V30 35 H 2.68653 -0.620326 0.526958 0
M  V30 36 H 4.34308 0.930387 -0.752374 0
M  V30 37 H 3.52852 2.29678 0.0366953 0
M  V30 38 H 6.39438 1.05588 0.939247 0
M  V30 39 H 5.55561 2.56158 0.815838 0
M  V30 END ATOM
M  V30 BEGIN BOND
M  V30 1 1 1 2
M  V30 2 1 2 3
M  V30 3 1 2 4
M  V30 4 1 2 5
M  V30 5 1 5 6
M  V30 6 2 6 7
M  V30 7 1 6 8
M  V30 8 1 8 9
M  V30 9 1 9 10
M  V30 10 1 10 11
M  V30 11 1 8 12
M  V30 12 1 12 13
M  V30 13 1 13 14
M  V30 14 1 14 15
M  V30 15 1 15 16
M  V30 16 1 1 17
M  V30 17 1 1 18
M  V30 18 1 1 19
M  V30 19 1 3 20
M  V30 20 1 3 21
M  V30 21 1 3 22
M  V30 22 1 4 23
M  V30 23 1 4 24
M  V30 24 1 4 25
M  V30 25 1 9 26
M  V30 26 1 9 27
M  V30 27 1 10 28
M  V30 28 1 10 29
M  V30 29 1 11 30
M  V30 30 1 11 31
M  V30 31 1 12 32
M  V30 32 1 12 33
M  V30 33 1 13 34
M  V30 34 1 13 35
M  V30 35 1 14 36
M  V30 36 1 14 37
M  V30 37 1 16 38
M  V30 38 1 16 39
M  V30 END BOND
M  V30 END CTAB
M  END
