
     RDKit          3D

  0  0  0  0  0  0  0  0  0  0999 V3000
M  V30 BEGIN CTAB
M  V30 COUNTS 78 82 0 0 0
M  V30 BEGIN ATOM
M  V30 1 N 3.90482 0.922515 4.51449 0
M  V30 2 C 3.95882 1.70791 3.33167 0
M  V30 3 C 2.92816 1.67232 2.39005 0
M  V30 4 C 2.95705 2.41539 1.24809 0
M  V30 5 C 1.90476 2.42443 0.221604 0
M  V30 6 N 0.967024 1.32501 0.288475 0
M  V30 7 C 1.48414 0.0364427 -0.0873015 0 CFG=2
M  V30 8 C 2.53842 0.188609 -1.13989 0
M  V30 9 C 3.15039 -1.06557 -1.60741 0
M  V30 10 C 2.67963 -1.68121 -2.72394 0
M  V30 11 C 3.21413 -2.88108 -3.20636 0
M  V30 12 C 4.25886 -3.43472 -2.49874 0
M  V30 13 C 4.73278 -2.80095 -1.36259 0
M  V30 14 C 4.18922 -1.62146 -0.909123 0
M  V30 15 C 0.392569 -0.913505 -0.512631 0 CFG=2
M  V30 16 O -0.260501 -0.500327 -1.66201 0
M  V30 17 C -0.52186 -1.18918 0.65051 0 CFG=1
M  V30 18 O 0.11118 -0.950887 1.86798 0
M  V30 19 C -1.80154 -0.409567 0.470682 0 CFG=1
M  V30 20 C -2.8206 -0.747839 1.53271 0
M  V30 21 C -3.23628 -2.14555 1.57401 0
M  V30 22 C -4.26398 -2.65083 0.803793 0
M  V30 23 C -4.64881 -3.99184 0.876218 0
M  V30 24 C -4.00292 -4.83966 1.72531 0
M  V30 25 C -2.97312 -4.36596 2.50741 0
M  V30 26 C -2.61285 -3.03553 2.41635 0
M  V30 27 N -1.55643 1.02455 0.43186 0
M  V30 28 C -2.66518 1.84049 0.0203969 0
M  V30 29 C -3.18753 1.53711 -1.34513 0
M  V30 30 C -2.60322 2.09252 -2.4543 0
M  V30 31 C -3.05035 1.85687 -3.73585 0
M  V30 32 N -2.42513 2.44486 -4.86548 0
M  V30 33 C -4.13529 1.02013 -3.86507 0
M  V30 34 C -4.72429 0.462352 -2.76725 0
M  V30 35 C -4.26029 0.713059 -1.50332 0
M  V30 36 C -0.351346 1.72826 0.7689 0
M  V30 37 N -0.348607 2.70424 1.49407 0
M  V30 38 C -1.24884 3.44732 2.17445 0
M  V30 39 N -2.00245 4.07875 2.77593 0
M  V30 40 C 4.04847 3.23493 1.01519 0
M  V30 41 C 5.0832 3.29818 1.9177 0
M  V30 42 C 5.02264 2.53333 3.06272 0
M  V30 43 H 3.33217 1.2706 5.30581 0
M  V30 44 H 4.40623 0.0222435 4.62777 0
M  V30 45 H 2.08646 1.03487 2.5971 0
M  V30 46 H 2.35871 2.54603 -0.800286 0
M  V30 47 H 1.37073 3.41386 0.357524 0
M  V30 48 H 1.98481 -0.476013 0.794658 0
M  V30 49 H 3.39349 0.808804 -0.799902 0
M  V30 50 H 2.03829 0.657506 -2.03626 0
M  V30 51 H 1.85746 -1.30423 -3.35411 0
M  V30 52 H 2.83502 -3.36653 -4.09541 0
M  V30 53 H 4.69209 -4.37226 -2.85715 0
M  V30 54 H 5.56861 -3.28324 -0.832683 0
M  V30 55 H 4.59934 -1.16928 -0.0149037 0
M  V30 56 H 0.867116 -1.89474 -0.804092 0
M  V30 57 H 0.0115333 0.393856 -1.97579 0
M  V30 58 H -0.797856 -2.26386 0.638014 0
M  V30 59 H -0.328976 -0.33009 2.46153 0
M  V30 60 H -2.22456 -0.68874 -0.508257 0
M  V30 61 H -2.34664 -0.416704 2.50793 0
M  V30 62 H -3.72256 -0.110803 1.45957 0
M  V30 63 H -4.78763 -2.0001 0.126789 0
M  V30 64 H -5.45661 -4.36381 0.262904 0
M  V30 65 H -4.26838 -5.90479 1.81892 0
M  V30 66 H -2.45536 -5.05086 3.18979 0
M  V30 67 H -1.808 -2.705 3.04821 0
M  V30 68 H -3.5458 1.77039 0.707946 0
M  V30 69 H -2.42062 2.9546 0.0394714 0
M  V30 70 H -1.74007 2.76046 -2.37203 0
M  V30 71 H -2.87531 2.43585 -5.78825 0
M  V30 72 H -1.49259 2.89205 -4.75005 0
M  V30 73 H -4.5074 0.819227 -4.87907 0
M  V30 74 H -5.57285 -0.192362 -2.87266 0
M  V30 75 H -4.76976 0.250324 -0.652463 0
M  V30 76 H 4.09869 3.83509 0.119172 0
M  V30 77 H 5.95174 3.95271 1.72909 0
M  V30 78 H 5.84364 2.59102 3.767 0
M  V30 END ATOM
M  V30 BEGIN BOND
M  V30 1 1 1 2
M  V30 2 2 2 3
M  V30 3 1 3 4
M  V30 4 1 4 5
M  V30 5 1 5 6
M  V30 6 1 6 7
M  V30 7 1 7 8
M  V30 8 1 8 9
M  V30 9 2 9 10
M  V30 10 1 10 11
M  V30 11 2 11 12
M  V30 12 1 12 13
M  V30 13 2 13 14
M  V30 14 1 7 15
M  V30 15 1 15 16
M  V30 16 1 15 17
M  V30 17 1 17 18
M  V30 18 1 17 19
M  V30 19 1 19 20
M  V30 20 1 20 21
M  V30 21 2 21 22
M  V30 22 1 22 23
M  V30 23 2 23 24
M  V30 24 1 24 25
M  V30 25 2 25 26
M  V30 26 1 19 27
M  V30 27 1 27 28
M  V30 28 1 28 29
M  V30 29 2 29 30
M  V30 30 1 30 31
M  V30 31 1 31 32
M  V30 32 2 31 33
M  V30 33 1 33 34
M  V30 34 2 34 35
M  V30 35 1 27 36
M  V30 36 2 36 37
M  V30 37 1 37 38
M  V30 38 3 38 39
M  V30 39 2 4 40
M  V30 40 1 40 41
M  V30 41 2 41 42
M  V30 42 1 42 2
M  V30 43 1 36 6
M  V30 44 1 14 9
M  V30 45 1 26 21
M  V30 46 1 35 29
M  V30 47 1 1 43
M  V30 48 1 1 44
M  V30 49 1 3 45
M  V30 50 1 5 46
M  V30 51 1 5 47
M  V30 52 1 7 48 CFG=1
M  V30 53 1 8 49
M  V30 54 1 8 50
M  V30 55 1 10 51
M  V30 56 1 11 52
M  V30 57 1 12 53
M  V30 58 1 13 54
M  V30 59 1 14 55
M  V30 60 1 15 56 CFG=3
M  V30 61 1 16 57
M  V30 62 1 17 58 CFG=1
M  V30 63 1 18 59
M  V30 64 1 19 60 CFG=3
M  V30 65 1 20 61
M  V30 66 1 20 62
M  V30 67 1 22 63
M  V30 68 1 23 64
M  V30 69 1 24 65
M  V30 70 1 25 66
M  V30 71 1 26 67
M  V30 72 1 28 68
M  V30 73 1 28 69
M  V30 74 1 30 70
M  V30 75 1 32 71
M  V30 76 1 32 72
M  V30 77 1 33 73
M  V30 78 1 34 74
M  V30 79 1 35 75
M  V30 80 1 40 76
M  V30 81 1 41 77
M  V30 82 1 42 78
M  V30 END BOND
M  V30 END CTAB
M  END
