
     RDKit          3D

  0  0  0  0  0  0  0  0  0  0999 V3000
M  V30 BEGIN CTAB
M  V30 COUNTS 26 25 0 0 0
M  V30 BEGIN ATOM
M  V30 1 N -4.35805 1.12711 1.07868 0
M  V30 2 C -4.35262 0.0538863 0.103842 0
M  V30 3 C -3.00879 0.0588054 -0.603617 0
M  V30 4 N -1.94005 -0.14035 0.321494 0
M  V30 5 C -0.603154 -0.168259 -0.142017 0
M  V30 6 O -0.368233 -0.0157167 -1.37694 0
M  V30 7 C 0.507195 -0.369104 0.774638 0
M  V30 8 O 0.304595 -0.522758 2.00244 0
M  V30 9 N 1.82995 -0.391026 0.273274 0
M  V30 10 C 2.93844 -0.588783 1.16819 0
M  V30 11 C 4.25045 -0.57554 0.414346 0
M  V30 12 N 4.36722 0.715876 -0.232997 0
M  V30 13 H -4.99791 1.90539 0.828214 0
M  V30 14 H -3.3994 1.48589 1.22996 0
M  V30 15 H -4.43314 -0.897585 0.67614 0
M  V30 16 H -5.18987 0.110575 -0.594158 0
M  V30 17 H -2.99698 -0.703385 -1.40659 0
M  V30 18 H -2.85039 1.05192 -1.09833 0
M  V30 19 H -2.13497 -0.263426 1.32053 0
M  V30 20 H 2.02231 -0.264564 -0.750155 0
M  V30 21 H 2.87015 -1.55589 1.70395 0
M  V30 22 H 2.97852 0.244843 1.90102 0
M  V30 23 H 4.27189 -1.34097 -0.388781 0
M  V30 24 H 5.06045 -0.785547 1.11149 0
M  V30 25 H 5.35054 1.06424 -0.254424 0
M  V30 26 H 3.88184 0.764377 -1.13392 0
M  V30 END ATOM
M  V30 BEGIN BOND
M  V30 1 1 1 2
M  V30 2 1 2 3
M  V30 3 1 3 4
M  V30 4 1 4 5
M  V30 5 2 5 6
M  V30 6 1 5 7
M  V30 7 2 7 8
M  V30 8 1 7 9
M  V30 9 1 9 10
M  V30 10 1 10 11
M  V30 11 1 11 12
M  V30 12 1 1 13
M  V30 13 1 1 14
M  V30 14 1 2 15
M  V30 15 1 2 16
M  V30 16 1 3 17
M  V30 17 1 3 18
M  V30 18 1 4 19
M  V30 19 1 9 20
M  V30 20 1 10 21
M  V30 21 1 10 22
M  V30 22 1 11 23
M  V30 23 1 11 24
M  V30 24 1 12 25
M  V30 25 1 12 26
M  V30 END BOND
M  V30 END CTAB
M  END
