
     RDKit          3D

  0  0  0  0  0  0  0  0  0  0999 V3000
M  V30 BEGIN CTAB
M  V30 COUNTS 30 30 0 0 0
M  V30 BEGIN ATOM
M  V30 1 N 4.17985 1.11158 0.110576 0
M  V30 2 C 3.02231 0.629289 0.819178 0
M  V30 3 C 1.89263 0.4373 -0.158508 0
M  V30 4 N 0.69174 -0.035458 0.423311 0
M  V30 5 C 0.662435 -1.3379 0.932847 0
M  V30 6 C -0.386455 -2.13143 0.181802 0
M  V30 7 C -1.76205 -1.54651 0.36957 0
M  V30 8 C -1.72476 -0.0346529 0.617661 0 CFG=1
M  V30 9 C -0.510201 0.550415 -0.0423867 0
M  V30 10 C -2.95431 0.588574 -0.00154194 0
M  V30 11 N -3.06923 1.99285 0.15174 0
M  V30 12 H 4.01294 1.91201 -0.497751 0
M  V30 13 H 4.78892 0.384213 -0.26497 0
M  V30 14 H 3.28072 -0.335714 1.30307 0
M  V30 15 H 2.7386 1.39359 1.54688 0
M  V30 16 H 2.19897 -0.232241 -0.976303 0
M  V30 17 H 1.67969 1.43775 -0.606113 0
M  V30 18 H 1.6192 -1.88356 0.845951 0
M  V30 19 H 0.333057 -1.31891 2.00063 0
M  V30 20 H -0.130503 -2.03155 -0.911854 0
M  V30 21 H -0.37264 -3.19571 0.500154 0
M  V30 22 H -2.40718 -1.72125 -0.533627 0
M  V30 23 H -2.22576 -2.03587 1.23777 0
M  V30 24 H -1.73524 0.125254 1.71339 0
M  V30 25 H -0.615139 0.399449 -1.13839 0
M  V30 26 H -0.453016 1.63651 0.180601 0
M  V30 27 H -3.02083 0.351181 -1.09251 0
M  V30 28 H -3.83475 0.0981618 0.470387 0
M  V30 29 H -3.68293 2.26003 0.921323 0
M  V30 30 H -2.21607 2.53259 -0.0100211 0
M  V30 END ATOM
M  V30 BEGIN BOND
M  V30 1 1 1 2
M  V30 2 1 2 3
M  V30 3 1 3 4
M  V30 4 1 4 5
M  V30 5 1 5 6
M  V30 6 1 6 7
M  V30 7 1 7 8
M  V30 8 1 8 9
M  V30 9 1 8 10
M  V30 10 1 10 11
M  V30 11 1 9 4
M  V30 12 1 1 12
M  V30 13 1 1 13
M  V30 14 1 2 14
M  V30 15 1 2 15
M  V30 16 1 3 16
M  V30 17 1 3 17
M  V30 18 1 5 18
M  V30 19 1 5 19
M  V30 20 1 6 20
M  V30 21 1 6 21
M  V30 22 1 7 22
M  V30 23 1 7 23
M  V30 24 1 8 24 CFG=1
M  V30 25 1 9 25
M  V30 26 1 9 26
M  V30 27 1 10 27
M  V30 28 1 10 28
M  V30 29 1 11 29
M  V30 30 1 11 30
M  V30 END BOND
M  V30 END CTAB
M  END
