
     RDKit          3D

  0  0  0  0  0  0  0  0  0  0999 V3000
M  V30 BEGIN CTAB
M  V30 COUNTS 50 53 0 0 0
M  V30 BEGIN ATOM
M  V30 1 N 8.73641 -1.98929 -0.880685 0
M  V30 2 C 8.65837 -0.711489 -0.250161 0
M  V30 3 N 9.75656 -0.115283 -0.018125 0
M  V30 4 C 7.34741 -0.177837 0.083196 0
M  V30 5 C 6.19011 -0.912235 -0.213323 0
M  V30 6 C 4.92565 -0.466951 0.0741737 0
M  V30 7 C 4.78702 0.760757 0.683452 0
M  V30 8 O 3.50095 0.953743 0.848486 0
M  V30 9 C 2.78813 -0.0264269 0.407168 0
M  V30 10 C 1.28838 -0.174364 0.416827 0
M  V30 11 C 0.790278 0.413591 -0.86622 0
M  V30 12 C -0.707336 0.332344 -0.995239 0
M  V30 13 C -1.40113 1.07638 0.123918 0
M  V30 14 C -2.87708 0.936859 -0.0964944 0
M  V30 15 C -3.64501 -0.0887407 0.420694 0
M  V30 16 C -4.95323 0.0887484 0.025659 0
M  V30 17 C -4.93273 1.24707 -0.737994 0
M  V30 18 O -3.68054 1.69309 -0.768238 0
M  V30 19 C -6.1024 1.71047 -1.29322 0
M  V30 20 C -7.31058 1.07252 -1.12639 0
M  V30 21 C -7.35752 -0.0850599 -0.368833 0
M  V30 22 C -6.16125 -0.540621 0.186834 0
M  V30 23 C -8.58589 -0.821844 -0.140757 0
M  V30 24 N -8.51842 -2.0087 0.66044 0
M  V30 25 N -9.69353 -0.443881 -0.626176 0
M  V30 26 C 3.66103 -0.964719 -0.100496 0
M  V30 27 C 5.91891 1.49073 0.979194 0
M  V30 28 C 7.1968 1.04768 0.692058 0
M  V30 29 H 8.87625 -2.12595 -1.89648 0
M  V30 30 H 8.63958 -2.81759 -0.2262 0
M  V30 31 H 9.83323 0.804051 0.428238 0
M  V30 32 H 6.31396 -1.88151 -0.695139 0
M  V30 33 H 1.043 -1.23468 0.525873 0
M  V30 34 H 0.86311 0.402843 1.27107 0
M  V30 35 H 1.30705 -0.0515986 -1.71003 0
M  V30 36 H 1.08084 1.50257 -0.868195 0
M  V30 37 H -0.965559 -0.76351 -0.908659 0
M  V30 38 H -1.08953 0.696766 -1.94371 0
M  V30 39 H -1.09583 2.12951 0.0853044 0
M  V30 40 H -1.15021 0.648673 1.13098 0
M  V30 41 H -3.32068 -0.919552 1.04031 0
M  V30 42 H -6.09311 2.61199 -1.88897 0
M  V30 43 H -8.22628 1.47901 -1.59003 0
M  V30 44 H -6.19838 -1.43902 0.774625 0
M  V30 45 H -8.5611 -1.99156 1.69433 0
M  V30 46 H -8.42313 -2.90559 0.155283 0
M  V30 47 H -9.83004 0.389309 -1.20753 0
M  V30 48 H 3.4537 -1.91635 -0.555515 0
M  V30 49 H 5.84554 2.46197 1.45921 0
M  V30 50 H 8.07821 1.62369 0.926068 0
M  V30 END ATOM
M  V30 BEGIN BOND
M  V30 1 1 1 2
M  V30 2 2 2 3 CFG=2
M  V30 3 1 2 4
M  V30 4 2 4 5
M  V30 5 1 5 6
M  V30 6 2 6 7
M  V30 7 1 7 8
M  V30 8 1 8 9
M  V30 9 1 9 10
M  V30 10 1 10 11
M  V30 11 1 11 12
M  V30 12 1 12 13
M  V30 13 1 13 14
M  V30 14 2 14 15
M  V30 15 1 15 16
M  V30 16 2 16 17
M  V30 17 1 17 18
M  V30 18 1 17 19
M  V30 19 2 19 20
M  V30 20 1 20 21
M  V30 21 2 21 22
M  V30 22 1 21 23
M  V30 23 1 23 24
M  V30 24 2 23 25 CFG=2
M  V30 25 2 9 26
M  V30 26 1 7 27
M  V30 27 2 27 28
M  V30 28 1 28 4
M  V30 29 1 26 6
M  V30 30 1 18 14
M  V30 31 1 22 16
M  V30 32 1 1 29
M  V30 33 1 1 30
M  V30 34 1 3 31
M  V30 35 1 5 32
M  V30 36 1 10 33
M  V30 37 1 10 34
M  V30 38 1 11 35
M  V30 39 1 11 36
M  V30 40 1 12 37
M  V30 41 1 12 38
M  V30 42 1 13 39
M  V30 43 1 13 40
M  V30 44 1 15 41
M  V30 45 1 19 42
M  V30 46 1 20 43
M  V30 47 1 22 44
M  V30 48 1 24 45
M  V30 49 1 24 46
M  V30 50 1 25 47
M  V30 51 1 26 48
M  V30 52 1 27 49
M  V30 53 1 28 50
M  V30 END BOND
M  V30 END CTAB
M  END
