
     RDKit          3D

  0  0  0  0  0  0  0  0  0  0999 V3000
M  V30 BEGIN CTAB
M  V30 COUNTS 25 26 0 0 0
M  V30 BEGIN ATOM
M  V30 1 N 2.95619 -2.03148 -0.105032 0
M  V30 2 C 1.91457 -1.0879 -0.0658797 0
M  V30 3 N 0.581198 -1.27431 -0.0293844 0
M  V30 4 C -0.0409821 -0.0829523 0.000173877 0
M  V30 5 N 0.946832 0.830117 -0.0192705 0
M  V30 6 N 2.13004 0.241741 -0.0590418 0
M  V30 7 C 3.40696 0.928446 -0.0890111 0
M  V30 8 C -1.47167 0.199541 0.0440658 0
M  V30 9 C -2.0374 1.45647 0.0726199 0
M  V30 10 N -1.31706 2.70381 0.0641516 0
M  V30 11 C -3.40065 1.31356 0.110399 0
M  V30 12 N -3.63106 -0.014735 0.104028 0
M  V30 13 N -2.47838 -0.67738 0.0644205 0
M  V30 14 C -2.35817 -2.1437 0.0466445 0
M  V30 15 H 3.64792 -1.97707 -0.875005 0
M  V30 16 H 3.02288 -2.76267 0.625237 0
M  V30 17 H 3.35826 1.92815 0.372372 0
M  V30 18 H 4.19237 0.367185 0.458144 0
M  V30 19 H 3.76012 1.08512 -1.14333 0
M  V30 20 H -1.4669 3.42684 0.797513 0
M  V30 21 H -0.616475 2.93614 -0.674421 0
M  V30 22 H -4.11326 2.12201 0.138777 0
M  V30 23 H -1.62018 -2.48164 -0.700063 0
M  V30 24 H -3.32168 -2.58668 -0.214218 0
M  V30 25 H -2.04349 -2.41859 1.07611 0
M  V30 END ATOM
M  V30 BEGIN BOND
M  V30 1 1 1 2
M  V30 2 2 2 3
M  V30 3 1 3 4
M  V30 4 2 4 5
M  V30 5 1 5 6
M  V30 6 1 6 7
M  V30 7 1 4 8
M  V30 8 2 8 9
M  V30 9 1 9 10
M  V30 10 1 9 11
M  V30 11 2 11 12
M  V30 12 1 12 13
M  V30 13 1 13 14
M  V30 14 1 6 2
M  V30 15 1 13 8
M  V30 16 1 1 15
M  V30 17 1 1 16
M  V30 18 1 7 17
M  V30 19 1 7 18
M  V30 20 1 7 19
M  V30 21 1 10 20
M  V30 22 1 10 21
M  V30 23 1 11 22
M  V30 24 1 14 23
M  V30 25 1 14 24
M  V30 26 1 14 25
M  V30 END BOND
M  V30 END CTAB
M  END
