
     RDKit          3D

  0  0  0  0  0  0  0  0  0  0999 V3000
M  V30 BEGIN CTAB
M  V30 COUNTS 31 32 0 0 0
M  V30 BEGIN ATOM
M  V30 1 N -1.83896 -0.696875 1.80876 0
M  V30 2 C -2.32505 0.013642 0.684519 0
M  V30 3 C -3.30389 0.989789 0.841182 0
M  V30 4 C -3.80183 1.69751 -0.230299 0
M  V30 5 N -3.35371 1.46265 -1.45572 0
M  V30 6 C -2.4029 0.518226 -1.62804 0
M  V30 7 C -1.87152 -0.216781 -0.594635 0
M  V30 8 C -0.837951 -1.22319 -0.831451 0
M  V30 9 C 0.531113 -0.778445 -0.468779 0
M  V30 10 C 0.866318 0.392791 0.00692402 0
M  V30 11 C 2.23419 0.790009 0.351232 0
M  V30 12 C 3.21553 -0.354402 0.265996 0
M  V30 13 N 2.50242 -1.59255 0.509662 0
M  V30 14 C 1.63881 -1.77689 -0.666212 0
M  V30 15 N 2.73478 1.86424 -0.488932 0
M  V30 16 H -2.20156 -1.63294 2.0589 0
M  V30 17 H -1.10318 -0.263077 2.39101 0
M  V30 18 H -3.69383 1.20867 1.83166 0
M  V30 19 H -4.56541 2.4582 -0.103875 0
M  V30 20 H -2.05597 0.348096 -2.64045 0
M  V30 21 H -1.02232 -2.1533 -0.217138 0
M  V30 22 H -0.790703 -1.58728 -1.88856 0
M  V30 23 H 0.0558481 1.11695 0.15058 0
M  V30 24 H 2.28171 1.17766 1.40376 0
M  V30 25 H 3.71296 -0.410828 -0.726359 0
M  V30 26 H 4.01207 -0.218892 1.02868 0
M  V30 27 H 1.85469 -1.48145 1.3193 0
M  V30 28 H 1.27779 -2.81387 -0.645593 0
M  V30 29 H 2.19625 -1.5564 -1.60911 0
M  V30 30 H 3.76244 1.9516 -0.243018 0
M  V30 31 H 2.29188 2.76713 -0.213987 0
M  V30 END ATOM
M  V30 BEGIN BOND
M  V30 1 1 1 2
M  V30 2 2 2 3
M  V30 3 1 3 4
M  V30 4 2 4 5
M  V30 5 1 5 6
M  V30 6 2 6 7
M  V30 7 1 7 8
M  V30 8 1 8 9
M  V30 9 2 9 10
M  V30 10 1 10 11
M  V30 11 1 11 12
M  V30 12 1 12 13
M  V30 13 1 13 14
M  V30 14 1 11 15
M  V30 15 1 7 2
M  V30 16 1 14 9
M  V30 17 1 1 16
M  V30 18 1 1 17
M  V30 19 1 3 18
M  V30 20 1 4 19
M  V30 21 1 6 20
M  V30 22 1 8 21
M  V30 23 1 8 22
M  V30 24 1 10 23
M  V30 25 1 11 24
M  V30 26 1 12 25
M  V30 27 1 12 26
M  V30 28 1 13 27
M  V30 29 1 14 28
M  V30 30 1 14 29
M  V30 31 1 15 30
M  V30 32 1 15 31
M  V30 END BOND
M  V30 END CTAB
M  END
