
     RDKit          3D

  0  0  0  0  0  0  0  0  0  0999 V3000
M  V30 BEGIN CTAB
M  V30 COUNTS 27 27 0 0 0
M  V30 BEGIN ATOM
M  V30 1 C -3.10586 -0.931571 0.235953 0
M  V30 2 C -1.64811 -1.07184 0.468918 0
M  V30 3 C -0.915391 0.0828738 -0.320832 0
M  V30 4 C 0.547888 -0.158345 -0.0141581 0
M  V30 5 C 0.94493 -0.353142 1.27161 0
M  V30 6 C 2.30492 -0.486146 1.6078 0
M  V30 7 C 3.2826 -0.421972 0.641663 0
M  V30 8 C 2.92084 -0.210899 -0.684896 0
M  V30 9 C 1.54854 -0.0898464 -0.969905 0
M  V30 10 N 1.16729 0.0262574 -2.32757 0
M  V30 11 N -1.41587 1.29396 0.230804 0
M  V30 12 N -1.04211 2.43054 -0.357809 0
M  V30 13 H -3.25946 -0.541854 -0.818406 0
M  V30 14 H -3.54402 -0.195101 0.907874 0
M  V30 15 H -3.55839 -1.96125 0.314923 0
M  V30 16 H -1.38564 -1.05602 1.53068 0
M  V30 17 H -1.2152 -2.00293 -0.00100354 0
M  V30 18 H -1.15974 -0.0351831 -1.35555 0
M  V30 19 H 0.218053 -0.394385 2.09476 0
M  V30 20 H 2.56562 -0.628987 2.67466 0
M  V30 21 H 4.32744 -0.519401 0.903424 0
M  V30 22 H 3.69038 -0.170016 -1.41444 0
M  V30 23 H 1.77103 0.567361 -2.97907 0
M  V30 24 H 0.30102 -0.438153 -2.64186 0
M  V30 25 H -1.64858 1.28079 1.2407 0
M  V30 26 H -0.0560692 2.74348 -0.324774 0
M  V30 27 H -1.63611 3.2418 0.0865195 0
M  V30 END ATOM
M  V30 BEGIN BOND
M  V30 1 1 1 2
M  V30 2 1 2 3
M  V30 3 1 3 4
M  V30 4 2 4 5
M  V30 5 1 5 6
M  V30 6 2 6 7
M  V30 7 1 7 8
M  V30 8 2 8 9
M  V30 9 1 9 10
M  V30 10 1 3 11
M  V30 11 1 11 12
M  V30 12 1 9 4
M  V30 13 1 1 13
M  V30 14 1 1 14
M  V30 15 1 1 15
M  V30 16 1 2 16
M  V30 17 1 2 17
M  V30 18 1 3 18
M  V30 19 1 5 19
M  V30 20 1 6 20
M  V30 21 1 7 21
M  V30 22 1 8 22
M  V30 23 1 10 23
M  V30 24 1 10 24
M  V30 25 1 11 25
M  V30 26 1 12 26
M  V30 27 1 12 27
M  V30 END BOND
M  V30 END CTAB
M  END
