
     RDKit          3D

  0  0  0  0  0  0  0  0  0  0999 V3000
M  V30 BEGIN CTAB
M  V30 COUNTS 55 58 0 0 0
M  V30 BEGIN ATOM
M  V30 1 N 0.299086 3.04392 -0.421977 0
M  V30 2 N 0.119095 1.71458 -0.760504 0
M  V30 3 Si -1.558 1.17855 -0.663062 0 VAL=4
M  V30 4 C -2.32078 1.49175 1.00755 0
M  V30 5 C -2.92516 2.8504 1.133 0
M  V30 6 C -3.74383 3.25412 -0.0506047 0
M  V30 7 C -2.86924 3.5516 -1.25745 0
M  V30 8 C -2.53461 2.22661 -1.89783 0
M  V30 9 O -1.69549 -0.425634 -1.15954 0
M  V30 10 Si -0.683581 -1.51937 -0.358926 0 VAL=4
M  V30 11 N 0.992918 -1.00582 -0.235655 0
M  V30 12 P 1.26172 0.665771 -0.00852293 0
M  V30 13 O 1.21299 0.945668 1.48598 0
M  V30 14 O 2.82167 1.11963 -0.540413 0
M  V30 15 C 4.00336 0.629248 -0.0468567 0
M  V30 16 C 5.23637 1.04519 -0.528868 0
M  V30 17 C 6.40549 0.538103 -0.0170249 0
M  V30 18 C 6.40319 -0.39598 0.986961 0
M  V30 19 C 5.20528 -0.829842 1.48724 0
M  V30 20 C 4.01974 -0.30553 0.957366 0
M  V30 21 N 1.79655 -1.49259 -1.27577 0
M  V30 22 C -0.735553 -3.12547 -1.347 0
M  V30 23 C -2.05904 -3.79697 -0.968404 0
M  V30 24 C -1.95675 -4.18063 0.477306 0
M  V30 25 C -2.32204 -3.02187 1.3494 0
M  V30 26 C -1.27591 -1.93137 1.36501 0
M  V30 27 H 1.24949 3.328 -0.741036 0
M  V30 28 H 0.225735 3.24289 0.596065 0
M  V30 29 H -1.60821 1.33512 1.83645 0
M  V30 30 H -3.14034 0.749951 1.13006 0
M  V30 31 H -3.61531 2.82502 2.01739 0
M  V30 32 H -2.19902 3.65714 1.33861 0
M  V30 33 H -4.23407 4.23442 0.212312 0
M  V30 34 H -4.55385 2.56778 -0.309864 0
M  V30 35 H -1.99044 4.13343 -0.967576 0
M  V30 36 H -3.43246 4.15339 -1.99844 0
M  V30 37 H -1.89848 2.42763 -2.77919 0
M  V30 38 H -3.49153 1.73383 -2.1578 0
M  V30 39 H 5.21574 1.79093 -1.32986 0
M  V30 40 H 7.36917 0.869162 -0.400209 0
M  V30 41 H 7.31172 -0.804612 1.40041 0
M  V30 42 H 5.16289 -1.56916 2.28302 0
M  V30 43 H 3.07003 -0.650395 1.35502 0
M  V30 44 H 2.28792 -0.731758 -1.78579 0
M  V30 45 H 2.40853 -2.24526 -0.931157 0
M  V30 46 H -0.801582 -2.88313 -2.42856 0
M  V30 47 H 0.126516 -3.75743 -1.12786 0
M  V30 48 H -2.27955 -4.64951 -1.638 0
M  V30 49 H -2.8637 -3.04454 -1.0939 0
M  V30 50 H -2.66564 -5.01031 0.716496 0
M  V30 51 H -0.927245 -4.50942 0.705397 0
M  V30 52 H -2.3899 -3.41653 2.40183 0
M  V30 53 H -3.32744 -2.62955 1.11061 0
M  V30 54 H -0.424638 -2.3087 1.97597 0
M  V30 55 H -1.68179 -1.06247 1.89821 0
M  V30 END ATOM
M  V30 BEGIN BOND
M  V30 1 1 1 2
M  V30 2 1 2 3
M  V30 3 1 3 4
M  V30 4 1 4 5
M  V30 5 1 5 6
M  V30 6 1 6 7
M  V30 7 1 7 8
M  V30 8 1 3 9
M  V30 9 1 9 10
M  V30 10 1 10 11
M  V30 11 1 11 12
M  V30 12 2 12 13
M  V30 13 1 12 14
M  V30 14 1 14 15
M  V30 15 2 15 16
M  V30 16 1 16 17
M  V30 17 2 17 18
M  V30 18 1 18 19
M  V30 19 2 19 20
M  V30 20 1 11 21
M  V30 21 1 10 22
M  V30 22 1 22 23
M  V30 23 1 23 24
M  V30 24 1 24 25
M  V30 25 1 25 26
M  V30 26 1 12 2
M  V30 27 1 20 15
M  V30 28 1 8 3
M  V30 29 1 26 10
M  V30 30 1 1 27
M  V30 31 1 1 28
M  V30 32 1 4 29
M  V30 33 1 4 30
M  V30 34 1 5 31
M  V30 35 1 5 32
M  V30 36 1 6 33
M  V30 37 1 6 34
M  V30 38 1 7 35
M  V30 39 1 7 36
M  V30 40 1 8 37
M  V30 41 1 8 38
M  V30 42 1 16 39
M  V30 43 1 17 40
M  V30 44 1 18 41
M  V30 45 1 19 42
M  V30 46 1 20 43
M  V30 47 1 21 44
M  V30 48 1 21 45
M  V30 49 1 22 46
M  V30 50 1 22 47
M  V30 51 1 23 48
M  V30 52 1 23 49
M  V30 53 1 24 50
M  V30 54 1 24 51
M  V30 55 1 25 52
M  V30 56 1 25 53
M  V30 57 1 26 54
M  V30 58 1 26 55
M  V30 END BOND
M  V30 END CTAB
M  END
