
     RDKit          3D

  0  0  0  0  0  0  0  0  0  0999 V3000
M  V30 BEGIN CTAB
M  V30 COUNTS 27 27 0 0 0
M  V30 BEGIN ATOM
M  V30 1 C -2.59252 -0.943568 -0.952694 0
M  V30 2 C -1.35401 0.00188473 -0.886922 0
M  V30 3 C -1.74749 1.15606 0.030369 0
M  V30 4 N -2.11152 0.696816 1.36432 0
M  V30 5 C -0.27881 -0.791709 -0.268877 0
M  V30 6 C 1.04327 -0.175848 -0.113072 0
M  V30 7 C 1.44976 0.99376 -0.698365 0
M  V30 8 C 2.71957 1.52443 -0.516295 0
M  V30 9 Cl 3.18283 3.04677 -1.28277 0
M  V30 10 C 3.59359 0.828014 0.289322 0
M  V30 11 N 3.20903 -0.332363 0.875112 0
M  V30 12 C 1.95864 -0.829447 0.680258 0
M  V30 13 N 1.68173 -2.07589 1.344 0
M  V30 14 H -2.57516 -1.67319 -0.126713 0
M  V30 15 H -2.48109 -1.50328 -1.90126 0
M  V30 16 H -3.46333 -0.29364 -1.01108 0
M  V30 17 H -1.19277 0.393001 -1.87333 0
M  V30 18 H -0.924162 1.85731 0.0980834 0
M  V30 19 H -2.6155 1.72794 -0.394726 0
M  V30 20 H -2.47176 1.56788 1.85742 0
M  V30 21 H -2.97142 0.0925708 1.30249 0
M  V30 22 H -0.118906 -1.77698 -0.811178 0
M  V30 23 H -0.570204 -1.14088 0.77793 0
M  V30 24 H 0.79771 1.54268 -1.34303 0
M  V30 25 H 4.61203 1.22068 0.45318 0
M  V30 26 H 2.12943 -2.94484 0.922872 0
M  V30 27 H 1.09107 -2.16815 2.18496 0
M  V30 END ATOM
M  V30 BEGIN BOND
M  V30 1 1 1 2
M  V30 2 1 2 3
M  V30 3 1 3 4
M  V30 4 1 2 5
M  V30 5 1 5 6
M  V30 6 2 6 7
M  V30 7 1 7 8
M  V30 8 1 8 9
M  V30 9 2 8 10
M  V30 10 1 10 11
M  V30 11 2 11 12
M  V30 12 1 12 13
M  V30 13 1 12 6
M  V30 14 1 1 14
M  V30 15 1 1 15
M  V30 16 1 1 16
M  V30 17 1 2 17
M  V30 18 1 3 18
M  V30 19 1 3 19
M  V30 20 1 4 20
M  V30 21 1 4 21
M  V30 22 1 5 22
M  V30 23 1 5 23
M  V30 24 1 7 24
M  V30 25 1 10 25
M  V30 26 1 13 26
M  V30 27 1 13 27
M  V30 END BOND
M  V30 END CTAB
M  END
