
     RDKit          3D

  0  0  0  0  0  0  0  0  0  0999 V3000
M  V30 BEGIN CTAB
M  V30 COUNTS 104 103 0 0 0
M  V30 BEGIN ATOM
M  V30 1 C 1.63372 -0.896118 -3.71431 0
M  V30 2 C 0.434687 -1.77563 -3.73394 0
M  V30 3 C 0.0468615 -2.39536 -2.44062 0 CFG=2
M  V30 4 C -1.20215 -3.25158 -2.74477 0
M  V30 5 C -0.301602 -1.48379 -1.32801 0 CFG=2
M  V30 6 N -1.42461 -0.613332 -1.63283 0
M  V30 7 C -2.55355 -0.485464 -0.801072 0
M  V30 8 O -2.46041 -1.21624 0.280586 0
M  V30 9 C -3.75985 0.296281 -0.973245 0 CFG=2
M  V30 10 C -3.80919 1.76033 -0.969645 0
M  V30 11 C -3.11228 2.64569 -1.89581 0
M  V30 12 C -3.62276 4.09231 -1.48859 0
M  V30 13 C -1.60921 2.77868 -1.71503 0
M  V30 14 N -4.72714 -0.137972 0.0916949 0
M  V30 15 C -5.90926 -0.746734 -0.270801 0
M  V30 16 O -6.18089 -0.947029 -1.49434 0
M  V30 17 C -6.97044 -1.22448 0.680269 0 CFG=1
M  V30 18 N -6.55773 -0.93522 2.04307 0
M  V30 19 C -8.29748 -0.641204 0.329267 0
M  V30 20 C -9.46938 -1.01807 1.1319 0
M  V30 21 C -9.47677 -0.690641 2.584 0
M  V30 22 N -9.34053 0.710277 2.87495 0
M  V30 23 C -10.3583 1.66433 2.56585 0
M  V30 24 N -11.6317 1.16588 2.22211 0
M  V30 25 N -10.106 2.91488 2.6064 0
M  V30 26 C 0.7676 -0.775671 -0.654219 0
M  V30 27 O 0.660746 0.436626 -0.3283 0
M  V30 28 N 2.04495 -1.35346 -0.282421 0
M  V30 29 C 3.03445 -0.598603 0.393654 0 CFG=1
M  V30 30 C 3.3312 -1.00337 1.79713 0
M  V30 31 C 3.8332 -2.35809 2.07058 0
M  V30 32 C 2.94228 -3.50401 1.67425 0
M  V30 33 C 5.27237 -2.59877 1.6573 0
M  V30 34 C 4.29202 -0.367114 -0.371108 0
M  V30 35 O 4.54252 -0.881814 -1.48528 0
M  V30 36 N 5.24316 0.505629 0.235088 0
M  V30 37 C 6.52494 0.845579 -0.369277 0 CFG=1
M  V30 38 C 6.45276 2.26082 -0.955168 0
M  V30 39 C 7.61075 0.89444 0.632543 0
M  V30 40 O 7.34303 0.643683 1.83136 0
M  V30 41 N 8.9478 1.21661 0.297092 0
M  V30 42 C 10.0156 1.27717 1.2719 0 CFG=1
M  V30 43 C 11.2244 0.481345 0.909209 0
M  V30 44 O 12.2148 0.592403 1.8975 0
M  V30 45 C 10.4557 2.71187 1.40153 0
M  V30 46 O 11.4609 3.08268 2.26686 0
M  V30 47 O 9.90245 3.61264 0.70907 0
M  V30 48 H 1.85613 -0.604088 -4.78139 0
M  V30 49 H 1.52288 0.0492645 -3.16716 0
M  V30 50 H 2.49742 -1.51837 -3.39862 0
M  V30 51 H 0.687842 -2.63571 -4.42271 0
M  V30 52 H -0.401658 -1.25514 -4.2515 0
M  V30 53 H 0.815087 -3.13581 -2.16572 0
M  V30 54 H -1.50872 -3.64861 -1.75467 0
M  V30 55 H -2.0339 -2.64371 -3.11324 0
M  V30 56 H -0.97775 -4.03608 -3.47672 0
M  V30 57 H -0.735619 -2.17171 -0.505584 0
M  V30 58 H -1.41396 -0.0732072 -2.52815 0
M  V30 59 H -4.28874 -0.0684492 -1.93088 0
M  V30 60 H -3.58631 2.17641 0.0820022 0
M  V30 61 H -4.92597 2.04928 -1.03662 0
M  V30 62 H -3.32931 2.49683 -2.95745 0
M  V30 63 H -4.67477 3.98567 -1.16058 0
M  V30 64 H -3.47572 4.76904 -2.3281 0
M  V30 65 H -3.02653 4.32995 -0.595828 0
M  V30 66 H -1.27945 3.86408 -1.72574 0
M  V30 67 H -1.34125 2.4131 -0.713951 0
M  V30 68 H -1.01719 2.25806 -2.48025 0
M  V30 69 H -4.44065 0.0493085 1.0508 0
M  V30 70 H -7.02189 -2.32334 0.596255 0
M  V30 71 H -6.19927 0.0640948 2.07358 0
M  V30 72 H -5.77493 -1.55123 2.3258 0
M  V30 73 H -8.52991 -0.848481 -0.757701 0
M  V30 74 H -8.16003 0.479741 0.348026 0
M  V30 75 H -9.66527 -2.12737 1.00595 0
M  V30 76 H -10.4195 -0.555762 0.711807 0
M  V30 77 H -10.4586 -1.03001 3.06035 0
M  V30 78 H -8.7252 -1.28232 3.12009 0
M  V30 79 H -8.46681 1.04614 3.32787 0
M  V30 80 H -12.2211 0.740964 2.94804 0
M  V30 81 H -11.9698 1.22798 1.2496 0
M  V30 82 H -10.7925 3.65348 2.39553 0
M  V30 83 H 2.18899 -2.3328 -0.55047 0
M  V30 84 H 2.6097 0.455826 0.49752 0
M  V30 85 H 4.00543 -0.275062 2.26246 0
M  V30 86 H 2.36779 -0.898738 2.39883 0
M  V30 87 H 3.88579 -2.43081 3.20531 0
M  V30 88 H 3.23477 -4.01896 0.750364 0
M  V30 89 H 2.93442 -4.32833 2.45208 0
M  V30 90 H 1.87488 -3.14546 1.67665 0
M  V30 91 H 5.45572 -2.61558 0.590967 0
M  V30 92 H 5.59736 -3.59119 2.0666 0
M  V30 93 H 5.931 -1.83881 2.12223 0
M  V30 94 H 5.08146 0.974098 1.16784 0
M  V30 95 H 6.76735 0.195914 -1.21113 0
M  V30 96 H 7.39434 2.42039 -1.5077 0
M  V30 97 H 5.61854 2.38379 -1.65502 0
M  V30 98 H 6.36426 2.92803 -0.0682186 0
M  V30 99 H 9.2267 1.43 -0.692177 0
M  V30 100 H 9.66753 0.992577 2.26634 0
M  V30 101 H 11.6686 0.800006 -0.0532273 0
M  V30 102 H 10.9188 -0.590343 0.799959 0
M  V30 103 H 11.8596 0.71331 2.79459 0
M  V30 104 H 11.4785 3.93772 2.80939 0
M  V30 END ATOM
M  V30 BEGIN BOND
M  V30 1 1 1 2
M  V30 2 1 2 3
M  V30 3 1 3 4
M  V30 4 1 3 5
M  V30 5 1 5 6
M  V30 6 1 6 7
M  V30 7 2 7 8
M  V30 8 1 7 9
M  V30 9 1 9 10
M  V30 10 1 10 11
M  V30 11 1 11 12
M  V30 12 1 11 13
M  V30 13 1 9 14
M  V30 14 1 14 15
M  V30 15 2 15 16
M  V30 16 1 15 17
M  V30 17 1 17 18
M  V30 18 1 17 19
M  V30 19 1 19 20
M  V30 20 1 20 21
M  V30 21 1 21 22
M  V30 22 1 22 23
M  V30 23 1 23 24
M  V30 24 2 23 25 CFG=2
M  V30 25 1 5 26
M  V30 26 2 26 27
M  V30 27 1 26 28
M  V30 28 1 28 29
M  V30 29 1 29 30
M  V30 30 1 30 31
M  V30 31 1 31 32
M  V30 32 1 31 33
M  V30 33 1 29 34
M  V30 34 2 34 35
M  V30 35 1 34 36
M  V30 36 1 36 37
M  V30 37 1 37 38
M  V30 38 1 37 39
M  V30 39 2 39 40
M  V30 40 1 39 41
M  V30 41 1 41 42
M  V30 42 1 42 43
M  V30 43 1 43 44
M  V30 44 1 42 45
M  V30 45 1 45 46
M  V30 46 2 45 47
M  V30 47 1 1 48
M  V30 48 1 1 49
M  V30 49 1 1 50
M  V30 50 1 2 51
M  V30 51 1 2 52
M  V30 52 1 3 53 CFG=1
M  V30 53 1 4 54
M  V30 54 1 4 55
M  V30 55 1 4 56
M  V30 56 1 5 57 CFG=1
M  V30 57 1 6 58
M  V30 58 1 9 59 CFG=3
M  V30 59 1 10 60
M  V30 60 1 10 61
M  V30 61 1 11 62
M  V30 62 1 12 63
M  V30 63 1 12 64
M  V30 64 1 12 65
M  V30 65 1 13 66
M  V30 66 1 13 67
M  V30 67 1 13 68
M  V30 68 1 14 69
M  V30 69 1 17 70 CFG=1
M  V30 70 1 18 71
M  V30 71 1 18 72
M  V30 72 1 19 73
M  V30 73 1 19 74
M  V30 74 1 20 75
M  V30 75 1 20 76
M  V30 76 1 21 77
M  V30 77 1 21 78
M  V30 78 1 22 79
M  V30 79 1 24 80
M  V30 80 1 24 81
M  V30 81 1 25 82
M  V30 82 1 28 83
M  V30 83 1 29 84 CFG=1
M  V30 84 1 30 85
M  V30 85 1 30 86
M  V30 86 1 31 87
M  V30 87 1 32 88
M  V30 88 1 32 89
M  V30 89 1 32 90
M  V30 90 1 33 91
M  V30 91 1 33 92
M  V30 92 1 33 93
M  V30 93 1 36 94
M  V30 94 1 37 95 CFG=3
M  V30 95 1 38 96
M  V30 96 1 38 97
M  V30 97 1 38 98
M  V30 98 1 41 99
M  V30 99 1 42 100 CFG=1
M  V30 100 1 43 101
M  V30 101 1 43 102
M  V30 102 1 44 103
M  V30 103 1 46 104
M  V30 END BOND
M  V30 END CTAB
M  END
