
     RDKit          3D

  0  0  0  0  0  0  0  0  0  0999 V3000
M  V30 BEGIN CTAB
M  V30 COUNTS 61 65 0 0 0
M  V30 BEGIN ATOM
M  V30 1 N -7.64211 0.33213 0.15403 0
M  V30 2 C -6.63786 -0.0305901 1.05539 0
M  V30 3 C -5.99889 -1.36932 0.674625 0 CFG=1
M  V30 4 C -5.40181 -1.25002 -0.684557 0
M  V30 5 C -4.03621 -0.609405 -0.700355 0
M  V30 6 C -3.15728 -0.989688 0.440609 0 CFG=1
M  V30 7 C -3.67301 -2.09604 1.31031 0
M  V30 8 C -5.06719 -1.80566 1.74848 0
M  V30 9 C -1.7257 -1.16637 0.0523072 0
M  V30 10 N -0.669217 -0.461266 0.457104 0
M  V30 11 C 0.484069 -0.923431 -0.12367 0
M  V30 12 C 0.116482 -1.97125 -0.927571 0
M  V30 13 N -1.23149 -2.09035 -0.797726 0
M  V30 14 C -1.90153 -3.05524 -1.4707 0
M  V30 15 C -1.1948 -3.9029 -2.27719 0
M  V30 16 N 0.134923 -3.79081 -2.40629 0
M  V30 17 C 0.818368 -2.83581 -1.74399 0
M  V30 18 N 2.22813 -2.72891 -1.8437 0
M  V30 19 C 1.80878 -0.387849 0.128422 0
M  V30 20 C 2.25008 -0.369599 1.44833 0
M  V30 21 C 3.46398 0.168671 1.79897 0
M  V30 22 C 4.31042 0.721724 0.848998 0
M  V30 23 C 3.90379 0.720626 -0.463253 0
M  V30 24 O 4.68291 1.25261 -1.46312 0
M  V30 25 C 5.91478 1.85452 -1.26041 0
M  V30 26 C 5.89518 3.08456 -0.437065 0
M  V30 27 C 7.01487 3.56568 0.216773 0
M  V30 28 C 6.99135 4.71604 0.968987 0
M  V30 29 C 5.80329 5.40375 1.06611 0
M  V30 30 C 4.65838 4.93794 0.414832 0
M  V30 31 C 4.7043 3.79103 -0.328395 0
M  V30 32 C 2.65086 0.16033 -0.793356 0
M  V30 33 H -8.27633 -0.361035 -0.0839879 0
M  V30 34 H -7.88446 1.26209 0.0225775 0
M  V30 35 H -5.89192 0.765962 1.17388 0
M  V30 36 H -7.12555 -0.188507 2.05369 0
M  V30 37 H -6.86984 -2.08281 0.58323 0
M  V30 38 H -5.33976 -2.24646 -1.20278 0
M  V30 39 H -6.08516 -0.638392 -1.31995 0
M  V30 40 H -4.23398 0.505015 -0.73824 0
M  V30 41 H -3.50569 -0.837922 -1.64719 0
M  V30 42 H -3.15399 -0.0816764 1.12638 0
M  V30 43 H -3.58193 -3.10428 0.930323 0
M  V30 44 H -3.03376 -2.06635 2.24298 0
M  V30 45 H -5.47016 -2.74572 2.21785 0
M  V30 46 H -5.07221 -1.05982 2.5899 0
M  V30 47 H -2.99857 -3.14642 -1.36362 0
M  V30 48 H -1.73354 -4.68743 -2.82602 0
M  V30 49 H 2.71839 -2.37657 -2.68389 0
M  V30 50 H 2.80587 -3.02294 -1.0211 0
M  V30 51 H 1.61285 -0.792804 2.20919 0
M  V30 52 H 3.81068 0.182837 2.83643 0
M  V30 53 H 5.28107 1.12884 1.15783 0
M  V30 54 H 6.56502 1.1002 -0.73852 0
M  V30 55 H 6.46145 2.06338 -2.20907 0
M  V30 56 H 7.93699 3.01057 0.12725 0
M  V30 57 H 7.85075 5.10155 1.48162 0
M  V30 58 H 5.76309 6.30705 1.65028 0
M  V30 59 H 3.74908 5.4946 0.509194 0
M  V30 60 H 3.82403 3.43414 -0.828292 0
M  V30 61 H 2.37973 0.207847 -1.83919 0
M  V30 END ATOM
M  V30 BEGIN BOND
M  V30 1 1 1 2
M  V30 2 1 2 3
M  V30 3 1 3 4
M  V30 4 1 4 5
M  V30 5 1 5 6
M  V30 6 1 6 7
M  V30 7 1 7 8
M  V30 8 1 6 9
M  V30 9 2 9 10
M  V30 10 1 10 11
M  V30 11 2 11 12
M  V30 12 1 12 13
M  V30 13 1 13 14
M  V30 14 2 14 15
M  V30 15 1 15 16
M  V30 16 2 16 17
M  V30 17 1 17 18
M  V30 18 1 11 19
M  V30 19 2 19 20
M  V30 20 1 20 21
M  V30 21 2 21 22
M  V30 22 1 22 23
M  V30 23 1 23 24
M  V30 24 1 24 25
M  V30 25 1 25 26
M  V30 26 2 26 27
M  V30 27 1 27 28
M  V30 28 2 28 29
M  V30 29 1 29 30
M  V30 30 2 30 31
M  V30 31 2 23 32
M  V30 32 1 8 3
M  V30 33 1 13 9
M  V30 34 1 32 19
M  V30 35 1 17 12
M  V30 36 1 31 26
M  V30 37 1 1 33
M  V30 38 1 1 34
M  V30 39 1 2 35
M  V30 40 1 2 36
M  V30 41 1 3 37 CFG=3
M  V30 42 1 4 38
M  V30 43 1 4 39
M  V30 44 1 5 40
M  V30 45 1 5 41
M  V30 46 1 6 42 CFG=1
M  V30 47 1 7 43
M  V30 48 1 7 44
M  V30 49 1 8 45
M  V30 50 1 8 46
M  V30 51 1 14 47
M  V30 52 1 15 48
M  V30 53 1 18 49
M  V30 54 1 18 50
M  V30 55 1 20 51
M  V30 56 1 21 52
M  V30 57 1 22 53
M  V30 58 1 25 54
M  V30 59 1 25 55
M  V30 60 1 27 56
M  V30 61 1 28 57
M  V30 62 1 29 58
M  V30 63 1 30 59
M  V30 64 1 31 60
M  V30 65 1 32 61
M  V30 END BOND
M  V30 END CTAB
M  END
