
     RDKit          3D

  0  0  0  0  0  0  0  0  0  0999 V3000
M  V30 BEGIN CTAB
M  V30 COUNTS 49 52 0 0 0
M  V30 BEGIN ATOM
M  V30 1 N -2.78363 3.64748 -1.89232 0
M  V30 2 C -2.45215 2.51258 -1.09956 0
M  V30 3 N -1.15515 2.29148 -0.740196 0
M  V30 4 C -0.879891 1.21269 0.00676108 0
M  V30 5 C 0.545507 0.923622 0.431095 0
M  V30 6 S 1.25864 -0.112241 -0.870052 0
M  V30 7 C 2.96836 -0.505935 -0.442416 0
M  V30 8 N 4.02645 0.213002 -0.775171 0
M  V30 9 C 5.1151 -0.382407 -0.289112 0
M  V30 10 C 4.70182 -1.5012 0.360833 0
M  V30 11 N 3.36806 -1.55985 0.254368 0
M  V30 12 N 2.55277 -2.56494 0.790894 0
M  V30 13 C 6.47702 0.112904 -0.450528 0
M  V30 14 C 6.73833 1.27128 -1.14096 0
M  V30 15 C 8.01618 1.73952 -1.2946 0
M  V30 16 C 9.04389 1.01292 -0.734007 0
M  V30 17 C 8.79397 -0.153477 -0.0373658 0
M  V30 18 C 7.51193 -0.617186 0.113026 0
M  V30 19 N -1.84735 0.397074 0.376032 0
M  V30 20 C -3.1524 0.58037 0.0398794 0
M  V30 21 N -3.39858 1.66077 -0.703274 0
M  V30 22 N -4.1258 -0.351259 0.483403 0
M  V30 23 C -5.48592 -0.400831 0.289219 0
M  V30 24 C -6.18964 0.518572 -0.427016 0
M  V30 25 C -7.57255 0.417025 -0.592115 0
M  V30 26 C -8.2698 -0.623068 -0.0315087 0
M  V30 27 C -7.58705 -1.56192 0.693917 0
M  V30 28 C -6.22544 -1.44777 0.847254 0
M  V30 29 C -5.52774 -2.48956 1.64269 0
M  V30 30 H -3.66349 4.14608 -1.6578 0
M  V30 31 H -2.20293 3.99883 -2.68011 0
M  V30 32 H 0.506929 0.32513 1.36261 0
M  V30 33 H 1.09159 1.85454 0.59435 0
M  V30 34 H 5.36413 -2.2152 0.874827 0
M  V30 35 H 2.20253 -2.51735 1.7692 0
M  V30 36 H 2.28108 -3.3822 0.217163 0
M  V30 37 H 5.9143 1.84948 -1.58773 0
M  V30 38 H 8.22634 2.66628 -1.84687 0
M  V30 39 H 10.0811 1.3522 -0.83341 0
M  V30 40 H 9.59389 -0.72878 0.40502 0
M  V30 41 H 7.27317 -1.53187 0.65476 0
M  V30 42 H -3.69659 -1.15101 1.07452 0
M  V30 43 H -5.75293 1.37798 -0.91358 0
M  V30 44 H -8.12852 1.15024 -1.16245 0
M  V30 45 H -9.34216 -0.743373 -0.132446 0
M  V30 46 H -8.13127 -2.37721 1.13375 0
M  V30 47 H -4.92076 -3.15287 0.996782 0
M  V30 48 H -4.90751 -2.02521 2.46064 0
M  V30 49 H -6.25383 -3.13533 2.17631 0
M  V30 END ATOM
M  V30 BEGIN BOND
M  V30 1 1 1 2
M  V30 2 2 2 3
M  V30 3 1 3 4
M  V30 4 1 4 5
M  V30 5 1 5 6
M  V30 6 1 6 7
M  V30 7 2 7 8
M  V30 8 1 8 9
M  V30 9 2 9 10
M  V30 10 1 10 11
M  V30 11 1 11 12
M  V30 12 1 9 13
M  V30 13 2 13 14
M  V30 14 1 14 15
M  V30 15 2 15 16
M  V30 16 1 16 17
M  V30 17 2 17 18
M  V30 18 2 4 19
M  V30 19 1 19 20
M  V30 20 2 20 21
M  V30 21 1 20 22
M  V30 22 1 22 23
M  V30 23 2 23 24
M  V30 24 1 24 25
M  V30 25 2 25 26
M  V30 26 1 26 27
M  V30 27 2 27 28
M  V30 28 1 28 29
M  V30 29 1 21 2
M  V30 30 1 28 23
M  V30 31 1 11 7
M  V30 32 1 18 13
M  V30 33 1 1 30
M  V30 34 1 1 31
M  V30 35 1 5 32
M  V30 36 1 5 33
M  V30 37 1 10 34
M  V30 38 1 12 35
M  V30 39 1 12 36
M  V30 40 1 14 37
M  V30 41 1 15 38
M  V30 42 1 16 39
M  V30 43 1 17 40
M  V30 44 1 18 41
M  V30 45 1 22 42
M  V30 46 1 24 43
M  V30 47 1 25 44
M  V30 48 1 26 45
M  V30 49 1 27 46
M  V30 50 1 29 47
M  V30 51 1 29 48
M  V30 52 1 29 49
M  V30 END BOND
M  V30 END CTAB
M  END
