
     RDKit          3D

  0  0  0  0  0  0  0  0  0  0999 V3000
M  V30 BEGIN CTAB
M  V30 COUNTS 36 36 0 0 0
M  V30 BEGIN ATOM
M  V30 1 N -1.08366 -2.28872 0.642659 0
M  V30 2 C -2.04267 -1.53551 1.43879 0
M  V30 3 C -1.78759 -0.062242 1.3873 0
M  V30 4 N -1.85934 0.491559 0.0656406 0
M  V30 5 C -3.10415 0.998566 -0.477212 0
M  V30 6 C -3.3074 2.46639 -0.178062 0
M  V30 7 N -4.56625 2.8636 -0.759398 0
M  V30 8 C -0.696465 0.561584 -0.764521 0
M  V30 9 O -0.750526 1.04578 -1.92488 0
M  V30 10 O 0.543042 0.104451 -0.341418 0
M  V30 11 C 1.66449 0.196257 -1.2017 0
M  V30 12 C 2.89183 -0.337224 -0.583966 0
M  V30 13 C 3.76407 0.431605 0.158597 0
M  V30 14 C 4.91349 -0.10681 0.726852 0
M  V30 15 C 5.20283 -1.44264 0.552503 0
M  V30 16 C 4.35297 -2.23303 -0.181921 0
M  V30 17 C 3.21917 -1.67296 -0.734793 0
M  V30 18 H -1.03341 -3.2805 0.939842 0
M  V30 19 H -1.26407 -2.16375 -0.378601 0
M  V30 20 H -1.88744 -1.86346 2.49136 0
M  V30 21 H -3.08745 -1.80411 1.18804 0
M  V30 22 H -2.4673 0.423463 2.1137 0
M  V30 23 H -0.740692 0.101943 1.75153 0
M  V30 24 H -3.98468 0.451677 -0.0866987 0
M  V30 25 H -3.13031 0.872813 -1.58524 0
M  V30 26 H -2.46268 3.07696 -0.564309 0
M  V30 27 H -3.36447 2.64235 0.916518 0
M  V30 28 H -5.10912 3.52773 -0.199868 0
M  V30 29 H -4.47375 3.11227 -1.76796 0
M  V30 30 H 1.41231 -0.374418 -2.11575 0
M  V30 31 H 1.83389 1.25988 -1.52107 0
M  V30 32 H 3.53187 1.46029 0.287063 0
M  V30 33 H 5.59134 0.493667 1.3047 0
M  V30 34 H 6.11234 -1.83764 1.01035 0
M  V30 35 H 4.60506 -3.27667 -0.302039 0
M  V30 36 H 2.56472 -2.30315 -1.30605 0
M  V30 END ATOM
M  V30 BEGIN BOND
M  V30 1 1 1 2
M  V30 2 1 2 3
M  V30 3 1 3 4
M  V30 4 1 4 5
M  V30 5 1 5 6
M  V30 6 1 6 7
M  V30 7 1 4 8
M  V30 8 2 8 9
M  V30 9 1 8 10
M  V30 10 1 10 11
M  V30 11 1 11 12
M  V30 12 2 12 13
M  V30 13 1 13 14
M  V30 14 2 14 15
M  V30 15 1 15 16
M  V30 16 2 16 17
M  V30 17 1 17 12
M  V30 18 1 1 18
M  V30 19 1 1 19
M  V30 20 1 2 20
M  V30 21 1 2 21
M  V30 22 1 3 22
M  V30 23 1 3 23
M  V30 24 1 5 24
M  V30 25 1 5 25
M  V30 26 1 6 26
M  V30 27 1 6 27
M  V30 28 1 7 28
M  V30 29 1 7 29
M  V30 30 1 11 30
M  V30 31 1 11 31
M  V30 32 1 13 32
M  V30 33 1 14 33
M  V30 34 1 15 34
M  V30 35 1 16 35
M  V30 36 1 17 36
M  V30 END BOND
M  V30 END CTAB
M  END
