
     RDKit          3D

  0  0  0  0  0  0  0  0  0  0999 V3000
M  V30 BEGIN CTAB
M  V30 COUNTS 138 142 0 0 0
M  V30 BEGIN ATOM
M  V30 1 C 5.49336 5.33301 1.65315 0
M  V30 2 C 6.20319 4.63808 2.78336 0
M  V30 3 C 7.40192 5.43158 3.23082 0
M  V30 4 C 6.51467 3.22713 2.38431 0 CFG=2
M  V30 5 N 5.2639 2.56108 2.08659 0
M  V30 6 C 5.07408 1.84639 0.907667 0
M  V30 7 O 6.04466 1.77659 0.0764234 0
M  V30 8 C 3.79383 1.1467 0.5503 0 CFG=1
M  V30 9 C 2.7758 2.25146 0.375402 0
M  V30 10 S 1.94466 2.65549 1.93558 0
M  V30 11 S 0.501099 4.17588 1.52777 0
M  V30 12 C -0.0319964 3.93287 -0.179856 0
M  V30 13 C -1.50687 4.17934 -0.39 0 CFG=2
M  V30 14 N -1.66383 5.64099 -0.183733 0
M  V30 15 C -1.89409 6.48889 -1.28158 0
M  V30 16 O -1.96339 5.99682 -2.43224 0
M  V30 17 C -2.05049 7.94272 -1.10082 0 CFG=1
M  V30 18 N -1.86676 8.60773 -2.40129 0
M  V30 19 C -3.43441 8.26846 -0.58382 0
M  V30 20 C -3.74775 7.64578 0.709194 0
M  V30 21 O -3.38202 8.22068 1.92816 0
M  V30 22 O -4.37023 6.54825 0.801564 0
M  V30 23 C -2.38764 3.52469 0.579627 0
M  V30 24 O -2.28937 3.98228 1.78077 0
M  V30 25 N -3.31598 2.48228 0.384919 0
M  V30 26 C -3.07874 1.13933 -0.0774255 0 CFG=1
M  V30 27 C -3.02553 1.02193 -1.57764 0
M  V30 28 C -4.29489 1.42387 -2.22238 0
M  V30 29 C -4.53543 2.70911 -2.61554 0
M  V30 30 C -5.71318 3.10567 -3.2249 0
M  V30 31 C -6.69643 2.18633 -3.45408 0
M  V30 32 C -6.49595 0.868398 -3.07062 0
M  V30 33 C -5.31633 0.511023 -2.46987 0
M  V30 34 C -2.03088 0.39751 0.645004 0
M  V30 35 O -1.37319 1.06117 1.5231 0
M  V30 36 N -1.67373 -0.938843 0.487145 0
M  V30 37 C -2.63903 -2.05046 0.424594 0 CFG=2
M  V30 38 C -3.42564 -2.15612 1.66017 0
M  V30 39 C -4.45622 -3.20307 1.76681 0
M  V30 40 C -5.8015 -3.02619 1.3555 0
M  V30 41 N -6.48483 -4.15697 1.53513 0
M  V30 42 C -5.66198 -5.07417 2.04532 0
M  V30 43 C -4.40918 -4.50689 2.19575 0
M  V30 44 C -3.36237 -5.23724 2.7322 0
M  V30 45 C -3.54951 -6.54035 3.12333 0
M  V30 46 C -4.81718 -7.11393 2.96901 0
M  V30 47 C -5.85765 -6.38622 2.43599 0
M  V30 48 C -2.02713 -3.27583 -0.0858178 0
M  V30 49 O -2.8855 -4.12207 -0.585947 0
M  V30 50 N -0.668374 -3.64469 -0.110185 0
M  V30 51 C 0.210899 -3.76884 0.979789 0 CFG=1
M  V30 52 C 0.350517 -5.31203 1.23707 0
M  V30 53 C 0.907677 -5.97152 0.0287652 0
M  V30 54 C 1.07872 -7.45193 0.119424 0
M  V30 55 C 1.9841 -7.97776 1.16441 0
M  V30 56 N 1.66095 -7.70405 2.51982 0
M  V30 57 C 1.62199 -3.37113 0.747314 0
M  V30 58 O 2.35555 -3.67272 1.77596 0
M  V30 59 N 2.25696 -2.77483 -0.311786 0
M  V30 60 C 2.17376 -1.43643 -0.866842 0 CFG=2
M  V30 61 C 1.57629 -1.40611 -2.25229 0
M  V30 62 C 2.29624 -2.17319 -3.27196 0
M  V30 63 C 3.26469 -1.60055 -4.09447 0
M  V30 64 C 3.938 -2.31356 -5.05534 0
M  V30 65 C 3.67549 -3.65249 -5.24639 0
M  V30 66 O 4.35027 -4.39432 -6.21839 0
M  V30 67 C 2.7171 -4.22939 -4.4361 0
M  V30 68 C 2.02719 -3.51907 -3.45845 0
M  V30 69 C 3.56788 -0.897331 -0.960439 0
M  V30 70 O 4.4271 -1.76584 -1.31775 0
M  V30 71 N 3.97835 0.41059 -0.700417 0
M  V30 72 C 7.26872 2.49651 3.44494 0
M  V30 73 O 8.49719 2.88418 3.92703 0
M  V30 74 O 6.75377 1.45911 3.93327 0
M  V30 75 H 5.18365 4.59785 0.909593 0
M  V30 76 H 4.57891 5.83827 2.02952 0
M  V30 77 H 6.16927 6.06173 1.15955 0
M  V30 78 H 5.49475 4.56595 3.66166 0
M  V30 79 H 7.68836 5.178 4.25951 0
M  V30 80 H 7.06091 6.5066 3.27125 0
M  V30 81 H 8.2191 5.30938 2.49799 0
M  V30 82 H 7.20001 3.23835 1.50847 0
M  V30 83 H 4.50298 2.63001 2.7885 0
M  V30 84 H 3.51371 0.541233 1.40426 0
M  V30 85 H 2.0548 2.01636 -0.444731 0
M  V30 86 H 3.27547 3.21265 0.0474269 0
M  V30 87 H 0.251081 2.92066 -0.575882 0
M  V30 88 H 0.574424 4.64539 -0.797158 0
M  V30 89 H -1.71135 3.94301 -1.4555 0
M  V30 90 H -1.58021 5.94845 0.802186 0
M  V30 91 H -1.32052 8.40669 -0.412416 0
M  V30 92 H -2.78635 8.5996 -2.86333 0
M  V30 93 H -1.122 8.07704 -2.90618 0
M  V30 94 H -3.45587 9.37476 -0.424418 0
M  V30 95 H -4.15138 7.96343 -1.3789 0
M  V30 96 H -2.69195 8.94321 2.01313 0
M  V30 97 H -4.35185 2.71749 0.617906 0
M  V30 98 H -4.03248 0.523067 0.178619 0
M  V30 99 H -2.69173 0.0125877 -1.90606 0
M  V30 100 H -2.24492 1.70772 -1.96623 0
M  V30 101 H -3.77079 3.47226 -2.44828 0
M  V30 102 H -5.85254 4.12773 -3.51431 0
M  V30 103 H -7.6455 2.46509 -3.93585 0
M  V30 104 H -7.28971 0.143111 -3.2591 0
M  V30 105 H -5.11573 -0.513168 -2.15299 0
M  V30 106 H -0.676666 -1.2081 0.408657 0
M  V30 107 H -3.38989 -1.63956 -0.355669 0
M  V30 108 H -2.77918 -2.30848 2.58177 0
M  V30 109 H -3.88835 -1.13722 1.89443 0
M  V30 110 H -6.2088 -2.11923 0.959863 0
M  V30 111 H -7.4936 -4.35343 1.33038 0
M  V30 112 H -2.3725 -4.76915 2.84735 0
M  V30 113 H -2.73833 -7.12858 3.54697 0
M  V30 114 H -4.92769 -8.13456 3.28365 0
M  V30 115 H -6.85595 -6.83495 2.31195 0
M  V30 116 H -0.267839 -3.86236 -1.07754 0
M  V30 117 H -0.162542 -3.32298 1.92064 0
M  V30 118 H -0.672305 -5.66299 1.40674 0
M  V30 119 H 0.946363 -5.34476 2.14579 0
M  V30 120 H 0.176722 -5.80953 -0.822092 0
M  V30 121 H 1.8896 -5.51158 -0.231403 0
M  V30 122 H 0.087317 -7.98533 0.0950942 0
M  V30 123 H 1.53486 -7.7633 -0.876135 0
M  V30 124 H 3.04324 -7.62403 1.0094 0
M  V30 125 H 2.06174 -9.09567 0.986838 0
M  V30 126 H 1.9659 -8.44521 3.19042 0
M  V30 127 H 0.615489 -7.6723 2.61899 0
M  V30 128 H 2.96899 -3.38083 -0.854551 0
M  V30 129 H 1.53901 -0.749515 -0.254991 0
M  V30 130 H 1.5929 -0.310816 -2.54498 0
M  V30 131 H 0.493004 -1.653 -2.24544 0
M  V30 132 H 3.48552 -0.546428 -3.9595 0
M  V30 133 H 4.69904 -1.88604 -5.70943 0
M  V30 134 H 3.95217 -4.44655 -7.16609 0
M  V30 135 H 2.51359 -5.29852 -4.59629 0
M  V30 136 H 1.29249 -4.05886 -2.86982 0
M  V30 137 H 4.47484 0.929513 -1.46391 0
M  V30 138 H 9.38292 2.60606 3.5466 0
M  V30 END ATOM
M  V30 BEGIN BOND
M  V30 1 1 1 2
M  V30 2 1 2 3
M  V30 3 1 2 4
M  V30 4 1 4 5
M  V30 5 1 5 6
M  V30 6 2 6 7
M  V30 7 1 6 8
M  V30 8 1 8 9
M  V30 9 1 9 10
M  V30 10 1 10 11
M  V30 11 1 11 12
M  V30 12 1 12 13
M  V30 13 1 13 14
M  V30 14 1 14 15
M  V30 15 2 15 16
M  V30 16 1 15 17
M  V30 17 1 17 18
M  V30 18 1 17 19
M  V30 19 1 19 20
M  V30 20 1 20 21
M  V30 21 2 20 22
M  V30 22 1 13 23
M  V30 23 2 23 24
M  V30 24 1 23 25
M  V30 25 1 25 26
M  V30 26 1 26 27
M  V30 27 1 27 28
M  V30 28 2 28 29
M  V30 29 1 29 30
M  V30 30 2 30 31
M  V30 31 1 31 32
M  V30 32 2 32 33
M  V30 33 1 26 34
M  V30 34 2 34 35
M  V30 35 1 34 36
M  V30 36 1 36 37
M  V30 37 1 37 38
M  V30 38 1 38 39
M  V30 39 2 39 40
M  V30 40 1 40 41
M  V30 41 1 41 42
M  V30 42 2 42 43
M  V30 43 1 43 44
M  V30 44 2 44 45
M  V30 45 1 45 46
M  V30 46 2 46 47
M  V30 47 1 37 48
M  V30 48 2 48 49
M  V30 49 1 48 50
M  V30 50 1 50 51
M  V30 51 1 51 52
M  V30 52 1 52 53
M  V30 53 1 53 54
M  V30 54 1 54 55
M  V30 55 1 55 56
M  V30 56 1 51 57
M  V30 57 2 57 58
M  V30 58 1 57 59
M  V30 59 1 59 60
M  V30 60 1 60 61
M  V30 61 1 61 62
M  V30 62 2 62 63
M  V30 63 1 63 64
M  V30 64 2 64 65
M  V30 65 1 65 66
M  V30 66 1 65 67
M  V30 67 2 67 68
M  V30 68 1 60 69
M  V30 69 2 69 70
M  V30 70 1 69 71
M  V30 71 1 4 72
M  V30 72 1 72 73
M  V30 73 2 72 74
M  V30 74 1 71 8
M  V30 75 1 33 28
M  V30 76 1 43 39
M  V30 77 1 68 62
M  V30 78 1 47 42
M  V30 79 1 1 75
M  V30 80 1 1 76
M  V30 81 1 1 77
M  V30 82 1 2 78
M  V30 83 1 3 79
M  V30 84 1 3 80
M  V30 85 1 3 81
M  V30 86 1 4 82 CFG=3
M  V30 87 1 5 83
M  V30 88 1 8 84 CFG=1
M  V30 89 1 9 85
M  V30 90 1 9 86
M  V30 91 1 12 87
M  V30 92 1 12 88
M  V30 93 1 13 89 CFG=3
M  V30 94 1 14 90
M  V30 95 1 17 91 CFG=1
M  V30 96 1 18 92
M  V30 97 1 18 93
M  V30 98 1 19 94
M  V30 99 1 19 95
M  V30 100 1 21 96
M  V30 101 1 25 97
M  V30 102 1 26 98 CFG=1
M  V30 103 1 27 99
M  V30 104 1 27 100
M  V30 105 1 29 101
M  V30 106 1 30 102
M  V30 107 1 31 103
M  V30 108 1 32 104
M  V30 109 1 33 105
M  V30 110 1 36 106
M  V30 111 1 37 107 CFG=3
M  V30 112 1 38 108
M  V30 113 1 38 109
M  V30 114 1 40 110
M  V30 115 1 41 111
M  V30 116 1 44 112
M  V30 117 1 45 113
M  V30 118 1 46 114
M  V30 119 1 47 115
M  V30 120 1 50 116
M  V30 121 1 51 117 CFG=1
M  V30 122 1 52 118
M  V30 123 1 52 119
M  V30 124 1 53 120
M  V30 125 1 53 121
M  V30 126 1 54 122
M  V30 127 1 54 123
M  V30 128 1 55 124
M  V30 129 1 55 125
M  V30 130 1 56 126
M  V30 131 1 56 127
M  V30 132 1 59 128
M  V30 133 1 60 129 CFG=1
M  V30 134 1 61 130
M  V30 135 1 61 131
M  V30 136 1 63 132
M  V30 137 1 64 133
M  V30 138 1 66 134
M  V30 139 1 67 135
M  V30 140 1 68 136
M  V30 141 1 71 137
M  V30 142 1 73 138
M  V30 END BOND
M  V30 END CTAB
M  END
