
     RDKit          3D

  0  0  0  0  0  0  0  0  0  0999 V3000
M  V30 BEGIN CTAB
M  V30 COUNTS 23 22 0 0 0
M  V30 BEGIN ATOM
M  V30 1 N -3.19 -0.669322 0.0127889 0
M  V30 2 C -1.76327 -0.860314 -0.262773 0
M  V30 3 C -1.02054 0.155796 0.535963 0
M  V30 4 N 0.384111 0.154459 0.421111 0
M  V30 5 S 0.830117 1.21411 -0.880847 0
M  V30 6 O -0.307188 1.21063 -1.86187 0
M  V30 7 O 2.05498 0.703938 -1.59614 0
M  V30 8 N 1.08143 2.81553 -0.359874 0
M  V30 9 C 1.02395 -1.09614 0.23478 0
M  V30 10 C 2.39146 -1.09262 0.925166 0
M  V30 11 H -3.43541 0.340495 0.065801 0
M  V30 12 H -3.78808 -1.08067 -0.737624 0
M  V30 13 H -1.64498 -0.792461 -1.34285 0
M  V30 14 H -1.48058 -1.89095 0.0361128 0
M  V30 15 H -1.27923 -0.0480356 1.61861 0
M  V30 16 H -1.43242 1.17372 0.34593 0
M  V30 17 H 1.28227 2.92548 0.644049 0
M  V30 18 H 0.386423 3.5033 -0.738378 0
M  V30 19 H 1.25163 -1.29062 -0.835566 0
M  V30 20 H 0.474198 -1.97943 0.595744 0
M  V30 21 H 2.97751 -1.91921 0.472429 0
M  V30 22 H 2.29977 -1.32795 2.0007 0
M  V30 23 H 2.90384 -0.149734 0.706742 0
M  V30 END ATOM
M  V30 BEGIN BOND
M  V30 1 1 1 2
M  V30 2 1 2 3
M  V30 3 1 3 4
M  V30 4 1 4 5
M  V30 5 2 5 6
M  V30 6 2 5 7
M  V30 7 1 5 8
M  V30 8 1 4 9
M  V30 9 1 9 10
M  V30 10 1 1 11
M  V30 11 1 1 12
M  V30 12 1 2 13
M  V30 13 1 2 14
M  V30 14 1 3 15
M  V30 15 1 3 16
M  V30 16 1 8 17
M  V30 17 1 8 18
M  V30 18 1 9 19
M  V30 19 1 9 20
M  V30 20 1 10 21
M  V30 21 1 10 22
M  V30 22 1 10 23
M  V30 END BOND
M  V30 END CTAB
M  END
