
     RDKit          3D

  0  0  0  0  0  0  0  0  0  0999 V3000
M  V30 BEGIN CTAB
M  V30 COUNTS 50 51 0 0 0
M  V30 BEGIN ATOM
M  V30 1 N 8.08875 -0.00108491 -0.174995 0
M  V30 2 C 6.70321 -0.264971 -0.525196 0
M  V30 3 C 5.86956 0.881743 0.0349157 0
M  V30 4 N 4.49413 0.66519 -0.292147 0
M  V30 5 C 3.70555 1.74956 0.232367 0
M  V30 6 C 2.36395 1.77943 -0.41953 0
M  V30 7 N 1.74973 0.467732 -0.23878 0
M  V30 8 C 2.47232 -0.699718 0.0670505 0
M  V30 9 C 3.97162 -0.621201 0.0429761 0
M  V30 10 C 0.318293 0.467038 -0.430455 0
M  V30 11 O -0.213749 1.59062 -0.761856 0
M  V30 12 C -0.489419 -0.68697 -0.274238 0
M  V30 13 O 0.0832099 -1.75414 0.183507 0
M  V30 14 N -1.85835 -0.765166 -0.579579 0
M  V30 15 C -2.65319 0.262114 -1.1176 0
M  V30 16 C -3.82368 0.443269 -0.102667 0
M  V30 17 N -4.65074 -0.658159 -0.246363 0
M  V30 18 C -4.04746 -1.92892 -0.452472 0
M  V30 19 C -2.59005 -2.02308 -0.335329 0
M  V30 20 C -5.82887 -0.677375 0.527219 0
M  V30 21 C -6.9226 0.267442 0.194475 0
M  V30 22 N -6.65702 1.65687 0.275102 0
M  V30 23 H 8.73177 -0.645382 -0.693055 0
M  V30 24 H 8.16776 -0.0604049 0.849786 0
M  V30 25 H 6.52328 -0.291357 -1.61049 0
M  V30 26 H 6.34109 -1.19808 -0.0403089 0
M  V30 27 H 6.05626 1.04922 1.11151 0
M  V30 28 H 6.2069 1.79915 -0.486068 0
M  V30 29 H 3.61996 1.77359 1.32621 0
M  V30 30 H 4.24545 2.689 -0.0896984 0
M  V30 31 H 1.75533 2.55639 0.125062 0
M  V30 32 H 2.38648 2.09961 -1.46969 0
M  V30 33 H 2.16718 -1.12841 1.04232 0
M  V30 34 H 2.17347 -1.47544 -0.70701 0
M  V30 35 H 4.38283 -0.898979 1.03354 0
M  V30 36 H 4.38033 -1.36047 -0.668187 0
M  V30 37 H -2.24519 1.21633 -1.38893 0
M  V30 38 H -3.20962 -0.194448 -2.02016 0
M  V30 39 H -3.36243 0.419905 0.927923 0
M  V30 40 H -4.26747 1.40752 -0.280673 0
M  V30 41 H -4.36962 -2.29475 -1.46948 0
M  V30 42 H -4.52411 -2.65027 0.253429 0
M  V30 43 H -2.24045 -2.33675 0.691476 0
M  V30 44 H -2.12986 -2.76133 -1.02285 0
M  V30 45 H -6.24989 -1.72793 0.568723 0
M  V30 46 H -5.57504 -0.483433 1.62151 0
M  V30 47 H -7.81162 -0.00686109 0.830156 0
M  V30 48 H -7.25278 0.0431595 -0.862514 0
M  V30 49 H -6.69866 2.12649 -0.662673 0
M  V30 50 H -7.28657 2.18368 0.924883 0
M  V30 END ATOM
M  V30 BEGIN BOND
M  V30 1 1 1 2
M  V30 2 1 2 3
M  V30 3 1 3 4
M  V30 4 1 4 5
M  V30 5 1 5 6
M  V30 6 1 6 7
M  V30 7 1 7 8
M  V30 8 1 8 9
M  V30 9 1 7 10
M  V30 10 2 10 11
M  V30 11 1 10 12
M  V30 12 2 12 13
M  V30 13 1 12 14
M  V30 14 1 14 15
M  V30 15 1 15 16
M  V30 16 1 16 17
M  V30 17 1 17 18
M  V30 18 1 18 19
M  V30 19 1 17 20
M  V30 20 1 20 21
M  V30 21 1 21 22
M  V30 22 1 9 4
M  V30 23 1 19 14
M  V30 24 1 1 23
M  V30 25 1 1 24
M  V30 26 1 2 25
M  V30 27 1 2 26
M  V30 28 1 3 27
M  V30 29 1 3 28
M  V30 30 1 5 29
M  V30 31 1 5 30
M  V30 32 1 6 31
M  V30 33 1 6 32
M  V30 34 1 8 33
M  V30 35 1 8 34
M  V30 36 1 9 35
M  V30 37 1 9 36
M  V30 38 1 15 37
M  V30 39 1 15 38
M  V30 40 1 16 39
M  V30 41 1 16 40
M  V30 42 1 18 41
M  V30 43 1 18 42
M  V30 44 1 19 43
M  V30 45 1 19 44
M  V30 46 1 20 45
M  V30 47 1 20 46
M  V30 48 1 21 47
M  V30 49 1 21 48
M  V30 50 1 22 49
M  V30 51 1 22 50
M  V30 END BOND
M  V30 END CTAB
M  END
