
     RDKit          3D

 26 28  0  0  0  0  0  0  0  0999 V2000
    1.0941   -2.1580    3.6564 N   0  0  0  0  0  0  0  0  0  0  0  0
    0.4333   -1.2503    2.8329 C   0  0  0  0  0  0  0  0  0  0  0  0
    0.8357   -1.2055    1.5558 N   0  0  0  0  0  0  0  0  0  0  0  0
    0.2572   -0.3389    0.6853 C   0  0  0  0  0  0  0  0  0  0  0  0
    0.6615   -0.2831   -0.6619 C   0  0  0  0  0  0  0  0  0  0  0  0
    1.6385   -1.0983   -1.1379 N   0  0  0  0  0  0  0  0  0  0  0  0
    2.0163   -1.0353   -2.4224 C   0  0  0  0  0  0  0  0  0  0  0  0
    3.0311   -1.8988   -2.8464 N   0  0  0  0  0  0  0  0  0  0  0  0
    1.4420   -0.1505   -3.3172 C   0  0  0  0  0  0  0  0  0  0  0  0
    0.4381    0.6953   -2.8654 C   0  0  0  0  0  0  0  0  0  0  0  0
    0.0315    0.6407   -1.5285 C   0  0  0  0  0  0  0  0  0  0  0  0
   -0.9804    1.4883   -1.0679 C   0  0  0  0  0  0  0  0  0  0  0  0
   -1.3816    1.4298    0.2581 C   0  0  0  0  0  0  0  0  0  0  0  0
   -0.7716    0.5250    1.1315 C   0  0  0  0  0  0  0  0  0  0  0  0
   -1.1726    0.4627    2.4709 C   0  0  0  0  0  0  0  0  0  0  0  0
   -0.5615   -0.4364    3.3335 C   0  0  0  0  0  0  0  0  0  0  0  0
    1.7505   -2.6512    3.0521 H   0  0  0  0  0  0  0  0  0  0  0  0
    0.4438   -2.7979    4.0954 H   0  0  0  0  0  0  0  0  0  0  0  0
    3.8202   -1.3594   -3.1859 H   0  0  0  0  0  0  0  0  0  0  0  0
    2.6911   -2.4866   -3.5997 H   0  0  0  0  0  0  0  0  0  0  0  0
    1.7628   -0.1128   -4.3518 H   0  0  0  0  0  0  0  0  0  0  0  0
   -0.0203    1.3928   -3.5617 H   0  0  0  0  0  0  0  0  0  0  0  0
   -1.4623    2.1978   -1.7370 H   0  0  0  0  0  0  0  0  0  0  0  0
   -2.1703    2.0942    0.6043 H   0  0  0  0  0  0  0  0  0  0  0  0
   -1.9544    1.1137    2.8532 H   0  0  0  0  0  0  0  0  0  0  0  0
   -0.8477   -0.4873    4.3775 H   0  0  0  0  0  0  0  0  0  0  0  0
  1  2  1  0
  2  3  2  0
  3  4  1  0
  4  5  2  0
  5  6  1  0
  6  7  2  0
  7  8  1  0
  7  9  1  0
  9 10  2  0
  5 11  1  0
 11 12  2  0
 12 13  1  0
  4 14  1  0
 14 15  1  0
 15 16  2  0
 16  2  1  0
 11 10  1  0
 14 13  2  0
  1 17  1  0
  1 18  1  0
  8 19  1  0
  8 20  1  0
  9 21  1  0
 10 22  1  0
 12 23  1  0
 13 24  1  0
 15 25  1  0
 16 26  1  0
M  END
