
     RDKit          3D

  0  0  0  0  0  0  0  0  0  0999 V3000
M  V30 BEGIN CTAB
M  V30 COUNTS 31 31 0 0 0
M  V30 BEGIN ATOM
M  V30 1 O 3.08535 0.381193 1.85754 0
M  V30 2 C 3.61804 0.665782 0.638978 0
M  V30 3 C 3.04404 -0.00186111 -0.542347 0
M  V30 4 C 1.6155 0.225638 -0.831975 0
M  V30 5 N 0.682043 -0.166658 0.160547 0
M  V30 6 C -0.709763 0.026057 -0.036814 0
M  V30 7 C -1.16307 0.605968 -1.21786 0
M  V30 8 C -2.51648 0.790123 -1.40279 0
M  V30 9 C -3.41032 0.400787 -0.421506 0
M  V30 10 C -2.99192 -0.175591 0.75741 0
M  V30 11 C -1.63753 -0.357704 0.937767 0
M  V30 12 N -3.95928 -0.555225 1.72939 0
M  V30 13 N -4.81542 0.590136 -0.60958 0
M  V30 14 C 3.34604 -1.50626 -0.485924 0
M  V30 15 H 3.71858 0.387695 2.60696 0
M  V30 16 H 4.71346 0.41336 0.681249 0
M  V30 17 H 3.59513 1.77813 0.507399 0
M  V30 18 H 3.62524 0.3567 -1.44057 0
M  V30 19 H 1.37002 -0.357298 -1.76887 0
M  V30 20 H 1.45147 1.30454 -1.10871 0
M  V30 21 H 0.990814 -0.602898 1.04963 0
M  V30 22 H -0.430414 0.89771 -1.96299 0
M  V30 23 H -2.87025 1.23931 -2.31722 0
M  V30 24 H -1.31163 -0.814257 1.87249 0
M  V30 25 H -4.44161 0.136396 2.34545 0
M  V30 26 H -4.2279 -1.55609 1.86571 0
M  V30 27 H -5.32323 1.41309 -0.219551 0
M  V30 28 H -5.36079 -0.105843 -1.14965 0
M  V30 29 H 4.4404 -1.57409 -0.242356 0
M  V30 30 H 3.169 -1.88212 -1.5215 0
M  V30 31 H 2.70448 -1.95672 0.269677 0
M  V30 END ATOM
M  V30 BEGIN BOND
M  V30 1 1 1 2
M  V30 2 1 2 3
M  V30 3 1 3 4
M  V30 4 1 4 5
M  V30 5 1 5 6
M  V30 6 2 6 7
M  V30 7 1 7 8
M  V30 8 2 8 9
M  V30 9 1 9 10
M  V30 10 2 10 11
M  V30 11 1 10 12
M  V30 12 1 9 13
M  V30 13 1 3 14
M  V30 14 1 11 6
M  V30 15 1 1 15
M  V30 16 1 2 16
M  V30 17 1 2 17
M  V30 18 1 3 18
M  V30 19 1 4 19
M  V30 20 1 4 20
M  V30 21 1 5 21
M  V30 22 1 7 22
M  V30 23 1 8 23
M  V30 24 1 11 24
M  V30 25 1 12 25
M  V30 26 1 12 26
M  V30 27 1 13 27
M  V30 28 1 13 28
M  V30 29 1 14 29
M  V30 30 1 14 30
M  V30 31 1 14 31
M  V30 END BOND
M  V30 END CTAB
M  END
