
     RDKit          3D

  0  0  0  0  0  0  0  0  0  0999 V3000
M  V30 BEGIN CTAB
M  V30 COUNTS 25 25 0 0 0
M  V30 BEGIN ATOM
M  V30 1 Cl 5.0925 -0.985834 0.030117 0
M  V30 2 C 3.63003 0.00573944 0.116396 0
M  V30 3 C 2.42506 -0.848872 0.0958782 0
M  V30 4 O 2.57119 -2.09014 0.0247544 0
M  V30 5 C 1.07908 -0.283299 0.156163 0
M  V30 6 C 0.916 1.09951 0.235386 0
M  V30 7 C -0.338715 1.67047 0.293974 0
M  V30 8 N -0.465095 3.091 0.374451 0
M  V30 9 C -1.42221 0.831811 0.271697 0
M  V30 10 C -1.28828 -0.527661 0.194391 0
M  V30 11 C -0.0379147 -1.08397 0.136696 0
M  V30 12 N 0.0880219 -2.5098 0.0558989 0
M  V30 13 O -2.40633 -1.33759 0.174442 0
M  V30 14 C -3.67768 -0.751415 0.234228 0
M  V30 15 H 3.67995 0.624251 1.0471 0
M  V30 16 H 3.62096 0.681147 -0.760447 0
M  V30 17 H 1.77959 1.75482 0.252436 0
M  V30 18 H -1.23771 3.58703 -0.0865311 0
M  V30 19 H 0.245102 3.61488 0.912223 0
M  V30 20 H -2.39892 1.31966 0.319676 0
M  V30 21 H -0.105594 -3.01437 -0.832615 0
M  V30 22 H 0.374597 -3.07731 0.877357 0
M  V30 23 H -3.95325 -0.20971 -0.710232 0
M  V30 24 H -4.41595 -1.5479 0.475169 0
M  V30 25 H -3.75444 -0.0124498 1.06232 0
M  V30 END ATOM
M  V30 BEGIN BOND
M  V30 1 1 1 2
M  V30 2 1 2 3
M  V30 3 2 3 4
M  V30 4 1 3 5
M  V30 5 2 5 6
M  V30 6 1 6 7
M  V30 7 1 7 8
M  V30 8 2 7 9
M  V30 9 1 9 10
M  V30 10 2 10 11
M  V30 11 1 11 12
M  V30 12 1 10 13
M  V30 13 1 13 14
M  V30 14 1 11 5
M  V30 15 1 2 15
M  V30 16 1 2 16
M  V30 17 1 6 17
M  V30 18 1 8 18
M  V30 19 1 8 19
M  V30 20 1 9 20
M  V30 21 1 12 21
M  V30 22 1 12 22
M  V30 23 1 14 23
M  V30 24 1 14 24
M  V30 25 1 14 25
M  V30 END BOND
M  V30 END CTAB
M  END
