
     RDKit          3D

  0  0  0  0  0  0  0  0  0  0999 V3000
M  V30 BEGIN CTAB
M  V30 COUNTS 20 20 0 0 0
M  V30 BEGIN ATOM
M  V30 1 N -3.73502 -0.989719 -0.0879788 0
M  V30 2 C -2.4211 -0.43879 -0.0862796 0
M  V30 3 C -1.40027 -0.925117 0.700098 0
M  V30 4 C -0.124952 -0.335902 0.65496 0
M  V30 5 C 0.131622 0.72322 -0.161028 0
M  V30 6 N -0.886981 1.18793 -0.928402 0
M  V30 7 C -2.09672 0.633519 -0.889775 0
M  V30 8 N 1.40073 1.30655 -0.227124 0
M  V30 9 S 2.69377 0.764784 0.744093 0
M  V30 10 O 3.81075 1.81806 0.592965 0
M  V30 11 O 2.27128 0.700138 2.17228 0
M  V30 12 N 3.33429 -0.743371 0.2048 0
M  V30 13 H -3.99307 -1.57248 -0.91626 0
M  V30 14 H -4.42153 -0.837388 0.6791 0
M  V30 15 H -1.59209 -1.75578 1.34401 0
M  V30 16 H 0.65097 -0.74889 1.27445 0
M  V30 17 H -2.89556 1.02303 -1.51311 0
M  V30 18 H 1.54176 2.09599 -0.89884 0
M  V30 19 H 3.77861 -1.26884 0.990467 0
M  V30 20 H 3.9535 -0.636943 -0.61826 0
M  V30 END ATOM
M  V30 BEGIN BOND
M  V30 1 1 1 2
M  V30 2 2 2 3
M  V30 3 1 3 4
M  V30 4 2 4 5
M  V30 5 1 5 6
M  V30 6 2 6 7
M  V30 7 1 5 8
M  V30 8 1 8 9
M  V30 9 2 9 10
M  V30 10 2 9 11
M  V30 11 1 9 12
M  V30 12 1 7 2
M  V30 13 1 1 13
M  V30 14 1 1 14
M  V30 15 1 3 15
M  V30 16 1 4 16
M  V30 17 1 7 17
M  V30 18 1 8 18
M  V30 19 1 12 19
M  V30 20 1 12 20
M  V30 END BOND
M  V30 END CTAB
M  END
