
     RDKit          3D

  0  0  0  0  0  0  0  0  0  0999 V3000
M  V30 BEGIN CTAB
M  V30 COUNTS 25 25 0 0 0
M  V30 BEGIN ATOM
M  V30 1 C -3.59621 -0.300767 0.0298 0
M  V30 2 C -2.95373 0.0715472 -1.31401 0
M  V30 3 C -1.54606 0.503599 -0.984549 0
M  V30 4 O -0.804049 -0.524639 -0.358001 0
M  V30 5 C 0.507256 -0.220871 -0.0155106 0
M  V30 6 N 1.07018 0.976557 -0.253248 0
M  V30 7 C 2.34701 1.25238 0.0874194 0
M  V30 8 N 2.86407 2.54564 -0.20069 0
M  V30 9 C 3.13106 0.298332 0.701704 0
M  V30 10 C 2.60169 -0.947205 0.968353 0
M  V30 11 C 1.27936 -1.17224 0.593693 0
M  V30 12 N 0.731088 -2.44234 0.862673 0
M  V30 13 H -4.59625 -0.722958 -0.182203 0
M  V30 14 H -2.95792 -1.09905 0.457975 0
M  V30 15 H -3.61548 0.561694 0.718668 0
M  V30 16 H -2.99054 -0.820787 -1.93319 0
M  V30 17 H -3.55231 0.911903 -1.70113 0
M  V30 18 H -1.01716 0.751753 -1.93459 0
M  V30 19 H -1.5276 1.37019 -0.31099 0
M  V30 20 H 2.75336 3.35489 0.464703 0
M  V30 21 H 3.3823 2.72773 -1.10866 0
M  V30 22 H 4.15807 0.530413 0.972019 0
M  V30 23 H 3.20583 -1.70514 1.44989 0
M  V30 24 H 1.35206 -3.27535 0.713638 0
M  V30 25 H -0.226015 -2.62527 1.19287 0
M  V30 END ATOM
M  V30 BEGIN BOND
M  V30 1 1 1 2
M  V30 2 1 2 3
M  V30 3 1 3 4
M  V30 4 1 4 5
M  V30 5 2 5 6
M  V30 6 1 6 7
M  V30 7 1 7 8
M  V30 8 2 7 9
M  V30 9 1 9 10
M  V30 10 2 10 11
M  V30 11 1 11 12
M  V30 12 1 11 5
M  V30 13 1 1 13
M  V30 14 1 1 14
M  V30 15 1 1 15
M  V30 16 1 2 16
M  V30 17 1 2 17
M  V30 18 1 3 18
M  V30 19 1 3 19
M  V30 20 1 8 20
M  V30 21 1 8 21
M  V30 22 1 9 22
M  V30 23 1 10 23
M  V30 24 1 12 24
M  V30 25 1 12 25
M  V30 END BOND
M  V30 END CTAB
M  END
