
     RDKit          3D

  0  0  0  0  0  0  0  0  0  0999 V3000
M  V30 BEGIN CTAB
M  V30 COUNTS 32 31 0 0 0
M  V30 BEGIN ATOM
M  V30 1 C -3.99518 -0.804027 0.277827 0 CFG=1
M  V30 2 N -4.87691 -0.496149 -0.834261 0
M  V30 3 C -2.74526 0.0210788 0.213126 0
M  V30 4 C -1.93755 -0.185633 -1.04416 0
M  V30 5 S -0.480308 0.887642 -0.926755 0
M  V30 6 S 0.712404 0.117816 0.677394 0
M  V30 7 C 1.86446 -1.08813 -0.0290202 0
M  V30 8 C 2.82581 -0.321281 -0.925157 0
M  V30 9 C 3.59316 0.714188 -0.111957 0 CFG=1
M  V30 10 N 4.35132 0.0351482 0.935062 0
M  V30 11 C 4.47416 1.5341 -0.961739 0
M  V30 12 O 5.82756 1.59343 -0.685715 0
M  V30 13 O 4.02814 2.18348 -1.93387 0
M  V30 14 C -4.68975 -0.405068 1.55297 0
M  V30 15 O -4.10904 -0.522023 2.80025 0
M  V30 16 O -5.87419 0.0672362 1.49341 0
M  V30 17 H -3.7445 -1.86357 0.356466 0
M  V30 18 H -5.86771 -0.587997 -0.494444 0
M  V30 19 H -4.65606 0.492059 -1.10493 0
M  V30 20 H -2.99294 1.10497 0.303842 0
M  V30 21 H -2.07212 -0.293068 1.05388 0
M  V30 22 H -1.68268 -1.25572 -1.13694 0
M  V30 23 H -2.56211 0.0792562 -1.92825 0
M  V30 24 H 1.36391 -1.88345 -0.591283 0
M  V30 25 H 2.44992 -1.5162 0.807065 0
M  V30 26 H 2.29824 0.201594 -1.73988 0
M  V30 27 H 3.57555 -1.00502 -1.39506 0
M  V30 28 H 2.86678 1.39493 0.379413 0
M  V30 29 H 5.30467 0.411838 1.00084 0
M  V30 30 H 4.43403 -0.999231 0.732733 0
M  V30 31 H 6.09672 2.08095 0.14943 0
M  V30 32 H -3.78051 0.306849 3.29416 0
M  V30 END ATOM
M  V30 BEGIN BOND
M  V30 1 1 1 2
M  V30 2 1 1 3
M  V30 3 1 3 4
M  V30 4 1 4 5
M  V30 5 1 5 6
M  V30 6 1 6 7
M  V30 7 1 7 8
M  V30 8 1 8 9
M  V30 9 1 9 10
M  V30 10 1 9 11
M  V30 11 1 11 12
M  V30 12 2 11 13
M  V30 13 1 1 14
M  V30 14 1 14 15
M  V30 15 2 14 16
M  V30 16 1 1 17 CFG=1
M  V30 17 1 2 18
M  V30 18 1 2 19
M  V30 19 1 3 20
M  V30 20 1 3 21
M  V30 21 1 4 22
M  V30 22 1 4 23
M  V30 23 1 7 24
M  V30 24 1 7 25
M  V30 25 1 8 26
M  V30 26 1 8 27
M  V30 27 1 9 28 CFG=1
M  V30 28 1 10 29
M  V30 29 1 10 30
M  V30 30 1 12 31
M  V30 31 1 15 32
M  V30 END BOND
M  V30 END CTAB
M  END
