
     RDKit          3D

  0  0  0  0  0  0  0  0  0  0999 V3000
M  V30 BEGIN CTAB
M  V30 COUNTS 34 35 0 0 0
M  V30 BEGIN ATOM
M  V30 1 C -1.30617 -1.75023 -2.0086 0
M  V30 2 C -1.00371 -0.285339 -2.1962 0
M  V30 3 C -1.66059 0.488026 -1.13022 0
M  V30 4 C -1.09197 0.581224 0.103887 0
M  V30 5 C -1.77993 1.31565 1.06812 0
M  V30 6 N -1.17761 1.40185 2.34553 0
M  V30 7 N -2.95969 1.90321 0.77012 0
M  V30 8 C -3.51859 1.81126 -0.446815 0
M  V30 9 N -4.77907 2.44835 -0.740063 0
M  V30 10 N -2.86454 1.10744 -1.37796 0
M  V30 11 C 0.182385 -0.043802 0.397797 0
M  V30 12 C 0.317396 -1.27921 0.953448 0
M  V30 13 C 1.56163 -1.81909 1.20937 0
M  V30 14 C 2.72476 -1.13444 0.91486 0
M  V30 15 O 3.98225 -1.64738 1.15878 0
M  V30 16 C 5.13834 -0.908151 0.839776 0
M  V30 17 C 2.61818 0.11713 0.352046 0
M  V30 18 C 1.38221 0.62999 0.108493 0
M  V30 19 H -0.40029 -2.37528 -1.86371 0
M  V30 20 H -1.92766 -1.86303 -1.10118 0
M  V30 21 H -1.92403 -2.15527 -2.84954 0
M  V30 22 H 0.123009 -0.206387 -2.13114 0
M  V30 23 H -1.35879 -0.00635968 -3.20754 0
M  V30 24 H -0.264573 1.85295 2.55895 0
M  V30 25 H -1.69095 0.976619 3.14803 0
M  V30 26 H -5.58164 1.8593 -0.984188 0
M  V30 27 H -4.91779 3.47799 -0.717062 0
M  V30 28 H -0.605431 -1.81757 1.18502 0
M  V30 29 H 1.6165 -2.79747 1.64935 0
M  V30 30 H 6.03332 -1.49784 1.16525 0
M  V30 31 H 5.19681 0.0665049 1.33618 0
M  V30 32 H 5.14959 -0.784927 -0.267777 0
M  V30 33 H 3.48322 0.723048 0.0897945 0
M  V30 34 H 1.3034 1.61122 -0.332791 0
M  V30 END ATOM
M  V30 BEGIN BOND
M  V30 1 1 1 2
M  V30 2 1 2 3
M  V30 3 2 3 4
M  V30 4 1 4 5
M  V30 5 1 5 6
M  V30 6 2 5 7
M  V30 7 1 7 8
M  V30 8 1 8 9
M  V30 9 2 8 10
M  V30 10 1 4 11
M  V30 11 2 11 12
M  V30 12 1 12 13
M  V30 13 2 13 14
M  V30 14 1 14 15
M  V30 15 1 15 16
M  V30 16 1 14 17
M  V30 17 2 17 18
M  V30 18 1 10 3
M  V30 19 1 18 11
M  V30 20 1 1 19
M  V30 21 1 1 20
M  V30 22 1 1 21
M  V30 23 1 2 22
M  V30 24 1 2 23
M  V30 25 1 6 24
M  V30 26 1 6 25
M  V30 27 1 9 26
M  V30 28 1 9 27
M  V30 29 1 12 28
M  V30 30 1 13 29
M  V30 31 1 16 30
M  V30 32 1 16 31
M  V30 33 1 16 32
M  V30 34 1 17 33
M  V30 35 1 18 34
M  V30 END BOND
M  V30 END CTAB
M  END
