
     RDKit          3D

  0  0  0  0  0  0  0  0  0  0999 V3000
M  V30 BEGIN CTAB
M  V30 COUNTS 33 34 0 0 0
M  V30 BEGIN ATOM
M  V30 1 N 6.35684 -0.00304088 -0.0103622 0
M  V30 2 S 5.02103 0.635764 -0.930813 0
M  V30 3 O 5.05748 0.168893 -2.34848 0
M  V30 4 O 5.16473 2.14348 -0.882159 0
M  V30 5 C 3.50914 0.199665 -0.152852 0
M  V30 6 C 2.91461 0.999597 0.798961 0
M  V30 7 C 1.72778 0.649302 1.4044 0
M  V30 8 C 1.07554 -0.529785 1.08116 0
M  V30 9 O -0.114018 -0.908102 1.6699 0
M  V30 10 C -1.30569 -0.502825 1.0699 0
M  V30 11 C -1.25415 0.252615 -0.0767751 0
M  V30 12 C -2.39877 0.675198 -0.703629 0
M  V30 13 C -3.62358 0.340109 -0.180062 0
M  V30 14 C -3.67514 -0.41968 0.973216 0
M  V30 15 C -2.53603 -0.849485 1.6111 0
M  V30 16 S -5.1319 0.83443 -0.911228 0
M  V30 17 N -5.57702 -0.4192 -2.04152 0
M  V30 18 O -6.16914 1.03587 0.127834 0
M  V30 19 O -4.86921 2.10832 -1.66076 0
M  V30 20 C 1.66476 -1.32889 0.133642 0
M  V30 21 C 2.85149 -0.969511 -0.465678 0
M  V30 22 H 6.76638 -0.825218 -0.513771 0
M  V30 23 H 6.01615 -0.271616 0.937822 0
M  V30 24 H 3.38747 1.93675 1.08805 0
M  V30 25 H 1.24624 1.28057 2.16428 0
M  V30 26 H -0.294987 0.528625 -0.50741 0
M  V30 27 H -2.3635 1.27313 -1.61117 0
M  V30 28 H -4.62126 -0.703328 1.41529 0
M  V30 29 H -2.5406 -1.44134 2.50902 0
M  V30 30 H -4.69952 -0.855304 -2.40696 0
M  V30 31 H -6.03716 -1.16194 -1.46128 0
M  V30 32 H 1.16208 -2.24798 -0.122366 0
M  V30 33 H 3.28996 -1.62507 -1.21126 0
M  V30 END ATOM
M  V30 BEGIN BOND
M  V30 1 1 1 2
M  V30 2 2 2 3
M  V30 3 2 2 4
M  V30 4 1 2 5
M  V30 5 2 5 6
M  V30 6 1 6 7
M  V30 7 2 7 8
M  V30 8 1 8 9
M  V30 9 1 9 10
M  V30 10 2 10 11
M  V30 11 1 11 12
M  V30 12 2 12 13
M  V30 13 1 13 14
M  V30 14 2 14 15
M  V30 15 1 13 16
M  V30 16 1 16 17
M  V30 17 2 16 18
M  V30 18 2 16 19
M  V30 19 1 8 20
M  V30 20 2 20 21
M  V30 21 1 21 5
M  V30 22 1 15 10
M  V30 23 1 1 22
M  V30 24 1 1 23
M  V30 25 1 6 24
M  V30 26 1 7 25
M  V30 27 1 11 26
M  V30 28 1 12 27
M  V30 29 1 14 28
M  V30 30 1 15 29
M  V30 31 1 17 30
M  V30 32 1 17 31
M  V30 33 1 20 32
M  V30 34 1 21 33
M  V30 END BOND
M  V30 END CTAB
M  END
