
     RDKit          3D

  0  0  0  0  0  0  0  0  0  0999 V3000
M  V30 BEGIN CTAB
M  V30 COUNTS 50 53 0 0 0
M  V30 BEGIN ATOM
M  V30 1 C -5.99566 -2.34395 -0.484291 0
M  V30 2 O -4.82668 -2.06373 -1.01215 0
M  V30 3 C -4.30903 -0.926238 -1.40387 0
M  V30 4 C -4.22367 0.14651 -0.387866 0
M  V30 5 C -5.31266 0.885564 -0.0615126 0
M  V30 6 C -5.30522 2.0101 0.710499 0
M  V30 7 C -6.54447 2.8117 0.870417 0
M  V30 8 N -4.10534 2.40699 1.19977 0
M  V30 9 C -2.97995 1.69216 0.896928 0
M  V30 10 C -2.96577 0.575247 0.119727 0
M  V30 11 C -1.78466 -0.00413855 -0.120602 0
M  V30 12 N -1.57292 -1.27529 -0.82321 0
M  V30 13 C -0.669565 0.593496 0.442382 0
M  V30 14 S -1.30378 1.90106 1.28059 0
M  V30 15 C 0.718916 0.287654 0.00844006 0
M  V30 16 N 0.800858 0.264488 -1.38714 0
M  V30 17 C 1.95514 0.0134081 -1.98069 0
M  V30 18 N 1.97568 0.106921 -3.42894 0
M  V30 19 N 3.03035 -0.220303 -1.22862 0
M  V30 20 C 2.98413 -0.202489 0.147417 0
M  V30 21 N 1.78174 0.061296 0.717223 0
M  V30 22 N 4.19124 -0.398069 0.809963 0
M  V30 23 C 4.82931 0.849515 1.3221 0
M  V30 24 C 5.94871 1.03722 0.254059 0
M  V30 25 C 6.92519 -0.0843186 0.524175 0
M  V30 26 C 6.31618 -1.42096 0.319819 0
M  V30 27 C 4.94427 -1.59172 1.00236 0
M  V30 28 H -5.9783 -3.47507 -0.233805 0
M  V30 29 H -6.21992 -1.86984 0.507116 0
M  V30 30 H -6.83747 -2.2786 -1.20369 0
M  V30 31 H -3.47677 -0.983121 -2.09192 0
M  V30 32 H -5.13104 -0.495662 -2.183 0
M  V30 33 H -6.3096 0.584825 -0.46095 0
M  V30 34 H -6.40478 3.65317 1.61026 0
M  V30 35 H -7.45206 2.24918 0.970023 0
M  V30 36 H -6.66714 3.40301 -0.109917 0
M  V30 37 H -1.15498 -1.25282 -1.75055 0
M  V30 38 H -1.86016 -2.18918 -0.370609 0
M  V30 39 H 2.55201 -0.45718 -4.01373 0
M  V30 40 H 1.3099 0.861634 -3.79669 0
M  V30 41 H 4.13716 1.69648 1.31522 0
M  V30 42 H 5.34688 0.622305 2.24727 0
M  V30 43 H 5.44065 0.790672 -0.730517 0
M  V30 44 H 6.36541 2.02989 0.269839 0
M  V30 45 H 7.29788 0.0736146 1.56269 0
M  V30 46 H 7.75849 0.0263895 -0.214462 0
M  V30 47 H 6.2471 -1.64742 -0.766741 0
M  V30 48 H 6.97457 -2.19278 0.758018 0
M  V30 49 H 5.0705 -1.80068 2.06655 0
M  V30 50 H 4.48935 -2.46095 0.500945 0
M  V30 END ATOM
M  V30 BEGIN BOND
M  V30 1 1 1 2
M  V30 2 1 2 3
M  V30 3 1 3 4
M  V30 4 2 4 5
M  V30 5 1 5 6
M  V30 6 1 6 7
M  V30 7 2 6 8
M  V30 8 1 8 9
M  V30 9 2 9 10
M  V30 10 1 10 11
M  V30 11 1 11 12
M  V30 12 2 11 13
M  V30 13 1 13 14
M  V30 14 1 13 15
M  V30 15 2 15 16
M  V30 16 1 16 17
M  V30 17 1 17 18
M  V30 18 2 17 19
M  V30 19 1 19 20
M  V30 20 2 20 21
M  V30 21 1 20 22
M  V30 22 1 22 23
M  V30 23 1 23 24
M  V30 24 1 24 25
M  V30 25 1 25 26
M  V30 26 1 26 27
M  V30 27 1 10 4
M  V30 28 1 21 15
M  V30 29 1 27 22
M  V30 30 1 14 9
M  V30 31 1 1 28
M  V30 32 1 1 29
M  V30 33 1 1 30
M  V30 34 1 3 31
M  V30 35 1 3 32
M  V30 36 1 5 33
M  V30 37 1 7 34
M  V30 38 1 7 35
M  V30 39 1 7 36
M  V30 40 1 12 37
M  V30 41 1 12 38
M  V30 42 1 18 39
M  V30 43 1 18 40
M  V30 44 1 23 41
M  V30 45 1 23 42
M  V30 46 1 24 43
M  V30 47 1 24 44
M  V30 48 1 25 45
M  V30 49 1 25 46
M  V30 50 1 26 47
M  V30 51 1 26 48
M  V30 52 1 27 49
M  V30 53 1 27 50
M  V30 END BOND
M  V30 END CTAB
M  END
