
     RDKit          3D

  0  0  0  0  0  0  0  0  0  0999 V3000
M  V30 BEGIN CTAB
M  V30 COUNTS 33 33 0 0 0
M  V30 BEGIN ATOM
M  V30 1 C -3.93695 1.19351 0.652951 0
M  V30 2 C -2.78347 0.240396 0.88241 0
M  V30 3 C -1.81868 0.416258 -0.308601 0
M  V30 4 N -0.709646 -0.464786 -0.138379 0
M  V30 5 C 0.635233 -0.0455166 -0.0489341 0
M  V30 6 C 0.99965 1.26518 -0.127114 0
M  V30 7 C 2.34127 1.60058 -0.0293823 0
M  V30 8 C 3.34277 0.675671 0.144491 0
M  V30 9 C 2.98411 -0.667116 0.225946 0
M  V30 10 C 1.65759 -0.995417 0.129049 0
M  V30 11 N 3.9843 -1.65875 0.40522 0
M  V30 12 N 4.70888 1.04441 0.24168 0
M  V30 13 C -1.01646 -1.90079 -0.0556747 0
M  V30 14 C -2.57637 0.0160943 -1.58454 0
M  V30 15 H -3.72275 1.90344 -0.187359 0
M  V30 16 H -4.78869 0.563092 0.268029 0
M  V30 17 H -4.25141 1.70548 1.57099 0
M  V30 18 H -3.1215 -0.80998 0.943256 0
M  V30 19 H -2.2649 0.498003 1.80651 0
M  V30 20 H -1.54958 1.47099 -0.323431 0
M  V30 21 H 0.297137 2.06485 -0.262634 0
M  V30 22 H 2.61655 2.64397 -0.0931454 0
M  V30 23 H 1.34833 -2.03367 0.188789 0
M  V30 24 H 4.76872 -1.79657 -0.266565 0
M  V30 25 H 3.88846 -2.26264 1.27524 0
M  V30 26 H 5.28966 1.19578 -0.585463 0
M  V30 27 H 5.11353 1.15926 1.19134 0
M  V30 28 H -0.40923 -2.41032 -0.860496 0
M  V30 29 H -0.760383 -2.31794 0.923641 0
M  V30 30 H -2.07702 -2.11375 -0.2729 0
M  V30 31 H -3.45853 -0.572119 -1.31668 0
M  V30 32 H -1.89532 -0.558315 -2.25637 0
M  V30 33 H -2.83528 0.950717 -2.13188 0
M  V30 END ATOM
M  V30 BEGIN BOND
M  V30 1 1 1 2
M  V30 2 1 2 3
M  V30 3 1 3 4
M  V30 4 1 4 5
M  V30 5 2 5 6
M  V30 6 1 6 7
M  V30 7 2 7 8
M  V30 8 1 8 9
M  V30 9 2 9 10
M  V30 10 1 9 11
M  V30 11 1 8 12
M  V30 12 1 4 13
M  V30 13 1 3 14
M  V30 14 1 10 5
M  V30 15 1 1 15
M  V30 16 1 1 16
M  V30 17 1 1 17
M  V30 18 1 2 18
M  V30 19 1 2 19
M  V30 20 1 3 20
M  V30 21 1 6 21
M  V30 22 1 7 22
M  V30 23 1 10 23
M  V30 24 1 11 24
M  V30 25 1 11 25
M  V30 26 1 12 26
M  V30 27 1 12 27
M  V30 28 1 13 28
M  V30 29 1 13 29
M  V30 30 1 13 30
M  V30 31 1 14 31
M  V30 32 1 14 32
M  V30 33 1 14 33
M  V30 END BOND
M  V30 END CTAB
M  END
