
     RDKit          3D

  0  0  0  0  0  0  0  0  0  0999 V3000
M  V30 BEGIN CTAB
M  V30 COUNTS 21 20 0 0 0
M  V30 BEGIN ATOM
M  V30 1 N 2.87783 -0.251142 -0.573529 0
M  V30 2 C 1.564 -0.608262 -0.111477 0
M  V30 3 C 0.571254 0.520732 -0.264381 0
M  V30 4 C -0.799212 0.149287 0.217226 0
M  V30 5 C -1.70836 1.34373 0.0195231 0
M  V30 6 F -1.72183 1.6455 -1.34733 0
M  V30 7 F -2.97973 0.932973 0.428276 0
M  V30 8 N -0.822583 -0.169204 1.63117 0
M  V30 9 C -1.33497 -0.972985 -0.629877 0
M  V30 10 H 3.15867 0.705708 -0.343153 0
M  V30 11 H 3.55456 -0.969928 -0.23624 0
M  V30 12 H 1.16294 -1.47063 -0.680141 0
M  V30 13 H 1.65705 -0.948489 0.939337 0
M  V30 14 H 0.491534 0.740027 -1.34999 0
M  V30 15 H 0.983188 1.39317 0.265954 0
M  V30 16 H -1.33685 2.19183 0.621449 0
M  V30 17 H -0.547112 -1.13195 1.85071 0
M  V30 18 H -0.288625 0.572007 2.12409 0
M  V30 19 H -0.915438 -1.95582 -0.343374 0
M  V30 20 H -2.44353 -1.00271 -0.528732 0
M  V30 21 H -1.12279 -0.713857 -1.6895 0
M  V30 END ATOM
M  V30 BEGIN BOND
M  V30 1 1 1 2
M  V30 2 1 2 3
M  V30 3 1 3 4
M  V30 4 1 4 5
M  V30 5 1 5 6
M  V30 6 1 5 7
M  V30 7 1 4 8
M  V30 8 1 4 9
M  V30 9 1 1 10
M  V30 10 1 1 11
M  V30 11 1 2 12
M  V30 12 1 2 13
M  V30 13 1 3 14
M  V30 14 1 3 15
M  V30 15 1 5 16
M  V30 16 1 8 17
M  V30 17 1 8 18
M  V30 18 1 9 19
M  V30 19 1 9 20
M  V30 20 1 9 21
M  V30 END BOND
M  V30 END CTAB
M  END
