
     RDKit          3D

  0  0  0  0  0  0  0  0  0  0999 V3000
M  V30 BEGIN CTAB
M  V30 COUNTS 46 48 0 0 0
M  V30 BEGIN ATOM
M  V30 1 N -8.11868 2.37101 -0.310479 0
M  V30 2 C -7.06761 1.43078 -0.0700201 0
M  V30 3 N -5.784 1.80583 -0.208147 0
M  V30 4 C -4.79757 0.906739 0.0222644 0
M  V30 5 C -3.37147 1.28238 -0.119509 0
M  V30 6 O -2.59889 0.160284 0.180076 0
M  V30 7 C -1.18168 0.183852 0.139193 0
M  V30 8 O -0.725565 1.28447 -0.184089 0
M  V30 9 C -0.481591 -1.04435 0.471259 0
M  V30 10 C -1.24035 -2.19903 0.745173 0
M  V30 11 C -0.664392 -3.39297 1.01428 0
M  V30 12 C 0.693109 -3.46399 1.01682 0
M  V30 13 C 1.48844 -2.36125 0.755758 0
M  V30 14 C 0.907498 -1.15083 0.483412 0
M  V30 15 N 1.74131 -0.0253328 0.294246 0
M  V30 16 C 3.12204 0.0137097 0.0372209 0
M  V30 17 O 3.82866 -0.985971 -0.0700597 0
M  V30 18 C 3.79707 1.33696 -0.119532 0
M  V30 19 C 5.2349 1.19011 -0.383035 0
M  V30 20 C 6.08209 1.15515 0.713356 0
M  V30 21 C 7.43739 1.01881 0.515113 0
M  V30 22 C 7.94359 0.918917 -0.747902 0
M  V30 23 C 7.09954 0.95429 -1.82711 0
M  V30 24 C 5.74991 1.08924 -1.64966 0
M  V30 25 N -5.15679 -0.325773 0.380538 0
M  V30 26 C -6.42448 -0.745944 0.531063 0
M  V30 27 N -7.39297 0.163518 0.297269 0
M  V30 28 N -6.76387 -2.0747 0.916142 0
M  V30 29 H -9.06251 2.23923 0.0895181 0
M  V30 30 H -7.89255 3.2111 -0.916493 0
M  V30 31 H -3.13414 2.16308 0.510055 0
M  V30 32 H -3.21669 1.5146 -1.21091 0
M  V30 33 H -2.3308 -2.06949 0.726996 0
M  V30 34 H -1.31582 -4.23356 1.21449 0
M  V30 35 H 1.1351 -4.44599 1.23765 0
M  V30 36 H 2.55552 -2.56151 0.802776 0
M  V30 37 H 1.2589 0.927981 0.393267 0
M  V30 38 H 3.35545 1.93225 -0.948943 0
M  V30 39 H 3.65012 1.94615 0.801999 0
M  V30 40 H 5.72578 1.23059 1.72691 0
M  V30 41 H 8.09713 0.992204 1.38391 0
M  V30 42 H 9.02776 0.809042 -0.926251 0
M  V30 43 H 7.50654 0.873314 -2.85869 0
M  V30 44 H 5.06816 1.11784 -2.52037 0
M  V30 45 H -6.48813 -2.90461 0.314804 0
M  V30 46 H -7.29548 -2.23815 1.80905 0
M  V30 END ATOM
M  V30 BEGIN BOND
M  V30 1 1 1 2
M  V30 2 2 2 3
M  V30 3 1 3 4
M  V30 4 1 4 5
M  V30 5 1 5 6
M  V30 6 1 6 7
M  V30 7 2 7 8
M  V30 8 1 7 9
M  V30 9 2 9 10
M  V30 10 1 10 11
M  V30 11 2 11 12
M  V30 12 1 12 13
M  V30 13 2 13 14
M  V30 14 1 14 15
M  V30 15 1 15 16
M  V30 16 2 16 17
M  V30 17 1 16 18
M  V30 18 1 18 19
M  V30 19 2 19 20
M  V30 20 1 20 21
M  V30 21 2 21 22
M  V30 22 1 22 23
M  V30 23 2 23 24
M  V30 24 2 4 25
M  V30 25 1 25 26
M  V30 26 2 26 27
M  V30 27 1 26 28
M  V30 28 1 27 2
M  V30 29 1 14 9
M  V30 30 1 24 19
M  V30 31 1 1 29
M  V30 32 1 1 30
M  V30 33 1 5 31
M  V30 34 1 5 32
M  V30 35 1 10 33
M  V30 36 1 11 34
M  V30 37 1 12 35
M  V30 38 1 13 36
M  V30 39 1 15 37
M  V30 40 1 18 38
M  V30 41 1 18 39
M  V30 42 1 20 40
M  V30 43 1 21 41
M  V30 44 1 22 42
M  V30 45 1 23 43
M  V30 46 1 24 44
M  V30 47 1 28 45
M  V30 48 1 28 46
M  V30 END BOND
M  V30 END CTAB
M  END
