
     RDKit          3D

  0  0  0  0  0  0  0  0  0  0999 V3000
M  V30 BEGIN CTAB
M  V30 COUNTS 39 41 0 0 0
M  V30 BEGIN ATOM
M  V30 1 C -0.859836 -0.2539 -1.92763 0
M  V30 2 C -1.29879 -0.0723897 -0.527644 0
M  V30 3 C -0.354774 -0.0360533 0.530301 0
M  V30 4 C 1.02005 0.136328 0.101555 0
M  V30 5 N 2.06895 -0.805005 0.343321 0
M  V30 6 N 1.91381 -2.1515 0.619371 0
M  V30 7 O 0.780759 -2.72031 0.557495 0
M  V30 8 C 3.43687 -0.297145 0.180496 0
M  V30 9 C 4.32667 -1.18915 -0.442579 0
M  V30 10 C 5.64685 -0.760367 -0.657651 0
M  V30 11 Cl 6.75606 -1.79932 -1.49259 0
M  V30 12 C 6.06434 0.503993 -0.286775 0
M  V30 13 Cl 7.71196 1.07899 -0.596822 0
M  V30 14 C 5.19831 1.36843 0.318684 0
M  V30 15 C 3.8898 0.915356 0.527852 0
M  V30 16 C -0.807232 0.108216 1.81461 0
M  V30 17 C -2.09575 0.222525 2.15675 0
M  V30 18 C -3.02123 0.198911 1.14003 0
M  V30 19 C -2.67279 0.0459908 -0.167153 0
M  V30 20 C -3.64141 0.0295559 -1.14476 0
M  V30 21 N -3.28447 -0.362617 -2.46199 0
M  V30 22 N -4.9412 0.199002 -0.812703 0
M  V30 23 C -5.26317 0.364623 0.462866 0
M  V30 24 N -6.68236 0.70133 0.763997 0
M  V30 25 N -4.36746 0.366812 1.41588 0
M  V30 26 H -0.817209 -1.27426 -2.31022 0
M  V30 27 H -1.05398 0.600474 -2.61233 0
M  V30 28 H 0.313039 -0.0693797 -1.89262 0
M  V30 29 H 1.21296 0.901335 -0.717334 0
M  V30 30 H 1.40766 0.997694 0.976656 0
M  V30 31 H 3.95448 -2.15939 -0.718492 0
M  V30 32 H 5.51139 2.39638 0.631335 0
M  V30 33 H 3.23789 1.61506 1.02671 0
M  V30 34 H -0.0855033 0.126664 2.67119 0
M  V30 35 H -2.50967 0.384641 3.19988 0
M  V30 36 H -3.34155 0.256717 -3.26245 0
M  V30 37 H -3.01824 -1.39335 -2.61815 0
M  V30 38 H -6.92663 1.75778 0.623741 0
M  V30 39 H -7.40858 0.0673293 1.02379 0
M  V30 END ATOM
M  V30 BEGIN BOND
M  V30 1 1 1 2
M  V30 2 2 2 3
M  V30 3 1 3 4
M  V30 4 1 4 5
M  V30 5 1 5 6
M  V30 6 2 6 7
M  V30 7 1 5 8
M  V30 8 2 8 9
M  V30 9 1 9 10
M  V30 10 1 10 11
M  V30 11 2 10 12
M  V30 12 1 12 13
M  V30 13 1 12 14
M  V30 14 2 14 15
M  V30 15 1 3 16
M  V30 16 2 16 17
M  V30 17 1 17 18
M  V30 18 2 18 19
M  V30 19 1 19 20
M  V30 20 1 20 21
M  V30 21 2 20 22
M  V30 22 1 22 23
M  V30 23 1 23 24
M  V30 24 2 23 25
M  V30 25 1 19 2
M  V30 26 1 15 8
M  V30 27 1 25 18
M  V30 28 1 1 26
M  V30 29 1 1 27
M  V30 30 1 1 28
M  V30 31 1 4 29
M  V30 32 1 4 30
M  V30 33 1 9 31
M  V30 34 1 14 32
M  V30 35 1 15 33
M  V30 36 1 16 34
M  V30 37 1 17 35
M  V30 38 1 21 36
M  V30 39 1 21 37
M  V30 40 1 24 38
M  V30 41 1 24 39
M  V30 END BOND
M  V30 END CTAB
M  END
