
     RDKit          3D

  0  0  0  0  0  0  0  0  0  0999 V3000
M  V30 BEGIN CTAB
M  V30 COUNTS 31 30 0 0 0
M  V30 BEGIN ATOM
M  V30 1 C -4.15416 -0.665968 -0.0507044 0
M  V30 2 O -3.21632 0.234682 -0.429241 0
M  V30 3 C -2.16975 0.497739 0.385073 0
M  V30 4 N -2.02143 1.86769 0.784231 0
M  V30 5 C -0.877141 0.136249 -0.355491 0
M  V30 6 C 0.30311 0.433328 0.537939 0
M  V30 7 C 1.61165 0.136511 -0.107134 0
M  V30 8 N 1.76121 -1.22255 -0.47677 0
M  V30 9 C 2.73977 0.672466 0.736614 0
M  V30 10 C 4.07033 0.415105 0.159555 0
M  V30 11 O 5.16989 0.876072 0.874007 0
M  V30 12 O 4.29406 -0.17841 -0.91054 0
M  V30 13 C -0.868875 -1.32176 -0.644844 0
M  V30 14 O -0.889144 -2.20596 0.417247 0
M  V30 15 O -0.844992 -1.69954 -1.83602 0
M  V30 16 H -3.68794 -1.65734 0.101937 0
M  V30 17 H -4.85921 -0.806485 -0.916 0
M  V30 18 H -4.74539 -0.382131 0.842946 0
M  V30 19 H -2.21634 -0.106601 1.29425 0
M  V30 20 H -2.59339 2.16897 1.56741 0
M  V30 21 H -1.85675 2.52869 0.0274301 0
M  V30 22 H -0.760947 0.736349 -1.28064 0
M  V30 23 H 0.188884 -0.123572 1.50642 0
M  V30 24 H 0.220212 1.51286 0.837535 0
M  V30 25 H 1.67441 0.731112 -1.07172 0
M  V30 26 H 2.20364 -1.83715 0.226465 0
M  V30 27 H 2.1822 -1.3497 -1.40123 0
M  V30 28 H 2.71176 0.200511 1.74046 0
M  V30 29 H 2.65014 1.76791 0.881975 0
M  V30 30 H 5.09646 1.8191 1.24367 0
M  V30 31 H -1.11593 -3.17816 0.233194 0
M  V30 END ATOM
M  V30 BEGIN BOND
M  V30 1 1 1 2
M  V30 2 1 2 3
M  V30 3 1 3 4
M  V30 4 1 3 5
M  V30 5 1 5 6
M  V30 6 1 6 7
M  V30 7 1 7 8
M  V30 8 1 7 9
M  V30 9 1 9 10
M  V30 10 1 10 11
M  V30 11 2 10 12
M  V30 12 1 5 13
M  V30 13 1 13 14
M  V30 14 2 13 15
M  V30 15 1 1 16
M  V30 16 1 1 17
M  V30 17 1 1 18
M  V30 18 1 3 19
M  V30 19 1 4 20
M  V30 20 1 4 21
M  V30 21 1 5 22
M  V30 22 1 6 23
M  V30 23 1 6 24
M  V30 24 1 7 25
M  V30 25 1 8 26
M  V30 26 1 8 27
M  V30 27 1 9 28
M  V30 28 1 9 29
M  V30 29 1 11 30
M  V30 30 1 14 31
M  V30 END BOND
M  V30 END CTAB
M  END
