
     RDKit          3D

  0  0  0  0  0  0  0  0  0  0999 V3000
M  V30 BEGIN CTAB
M  V30 COUNTS 32 32 0 0 0
M  V30 BEGIN ATOM
M  V30 1 N 4.30138 1.07742 0.584943 0
M  V30 2 C 4.34307 -0.129002 -0.135496 0
M  V30 3 C 3.18521 -1.03613 0.199354 0
M  V30 4 N 1.9591 -0.331905 -0.131737 0
M  V30 5 C 0.708578 -0.954695 0.082909 0
M  V30 6 O 0.657944 -2.11409 0.558728 0
M  V30 7 C -0.526465 -0.252673 -0.247567 0 CFG=2
M  V30 8 C -0.609776 1.03315 0.57002 0
M  V30 9 C -2.0062 1.25151 1.09455 0
M  V30 10 C -2.96205 1.10435 -0.0877009 0
M  V30 11 C -2.92413 -0.285909 -0.641756 0 CFG=1
M  V30 12 C -1.7672 -1.06298 -0.0457528 0
M  V30 13 N -4.16949 -1.00233 -0.420361 0
M  V30 14 H 4.95057 1.75913 0.395537 0
M  V30 15 H 3.83894 1.08139 1.43653 0
M  V30 16 H 4.28892 0.119835 -1.22273 0
M  V30 17 H 5.32068 -0.620677 0.091525 0
M  V30 18 H 3.21993 -1.9776 -0.377275 0
M  V30 19 H 3.18119 -1.22187 1.30108 0
M  V30 20 H 1.97305 0.630333 -0.527589 0
M  V30 21 H -0.49889 0.0367514 -1.33076 0
M  V30 22 H 0.137847 0.9889 1.38246 0
M  V30 23 H -0.354215 1.9046 -0.0638895 0
M  V30 24 H -2.27299 0.587244 1.92877 0
M  V30 25 H -2.05855 2.3188 1.42954 0
M  V30 26 H -4.00164 1.37867 0.192877 0
M  V30 27 H -2.61291 1.82421 -0.856537 0
M  V30 28 H -2.76622 -0.281805 -1.74765 0
M  V30 29 H -1.9649 -1.30096 1.01987 0
M  V30 30 H -1.66799 -2.00351 -0.648531 0
M  V30 31 H -4.89639 -0.535865 -0.980569 0
M  V30 32 H -4.0064 -1.98427 -0.73514 0
M  V30 END ATOM
M  V30 BEGIN BOND
M  V30 1 1 1 2
M  V30 2 1 2 3
M  V30 3 1 3 4
M  V30 4 1 4 5
M  V30 5 2 5 6
M  V30 6 1 5 7
M  V30 7 1 7 8
M  V30 8 1 8 9
M  V30 9 1 9 10
M  V30 10 1 10 11
M  V30 11 1 11 12
M  V30 12 1 11 13
M  V30 13 1 12 7
M  V30 14 1 1 14
M  V30 15 1 1 15
M  V30 16 1 2 16
M  V30 17 1 2 17
M  V30 18 1 3 18
M  V30 19 1 3 19
M  V30 20 1 4 20
M  V30 21 1 7 21 CFG=3
M  V30 22 1 8 22
M  V30 23 1 8 23
M  V30 24 1 9 24
M  V30 25 1 9 25
M  V30 26 1 10 26
M  V30 27 1 10 27
M  V30 28 1 11 28 CFG=3
M  V30 29 1 12 29
M  V30 30 1 12 30
M  V30 31 1 13 31
M  V30 32 1 13 32
M  V30 END BOND
M  V30 END CTAB
M  END
