
     RDKit          3D

  0  0  0  0  0  0  0  0  0  0999 V3000
M  V30 BEGIN CTAB
M  V30 COUNTS 48 49 0 0 0
M  V30 BEGIN ATOM
M  V30 1 C -5.59237 0.682489 -1.75417 0
M  V30 2 C -5.18059 1.26442 -0.422103 0
M  V30 3 C -3.81303 0.834581 -0.114541 0
M  V30 4 C -2.7855 1.72328 -0.405976 0
M  V30 5 C -1.45652 1.38399 -0.163549 0
M  V30 6 C -1.09849 0.168737 0.369878 0
M  V30 7 C -2.12961 -0.70332 0.654047 0
M  V30 8 C -3.46111 -0.373068 0.415476 0
M  V30 9 S -4.69076 -1.5151 0.828084 0
M  V30 10 O -5.46545 -2.05721 -0.315238 0
M  V30 11 O -5.54396 -0.929972 1.91439 0
M  V30 12 N -3.904 -2.90999 1.53769 0
M  V30 13 N 0.221802 -0.231121 0.657798 0
M  V30 14 C 1.38211 0.556563 0.697202 0
M  V30 15 O 1.36488 1.78596 0.473586 0
M  V30 16 C 2.72563 -0.0336653 1.01083 0
M  V30 17 C 3.64291 1.09256 1.45425 0
M  V30 18 C 4.26669 1.86004 0.346905 0
M  V30 19 C 4.84361 0.997178 -0.753622 0
M  V30 20 C 3.7125 0.137138 -1.28331 0
M  V30 21 C 3.31336 -0.78757 -0.133528 0
M  V30 22 C 2.40608 -1.81724 -0.701785 0
M  V30 23 N 4.55301 -1.40961 0.306196 0
M  V30 24 H -5.76221 1.51789 -2.50439 0
M  V30 25 H -4.81668 0.00203112 -2.18407 0
M  V30 26 H -6.55924 0.167362 -1.71095 0
M  V30 27 H -5.22505 2.36623 -0.497982 0
M  V30 28 H -5.92821 0.903433 0.315926 0
M  V30 29 H -3.01155 2.69358 -0.827131 0
M  V30 30 H -0.715506 2.12813 -0.42744 0
M  V30 31 H -1.86428 -1.67085 1.07784 0
M  V30 32 H -3.27345 -3.26996 0.759328 0
M  V30 33 H -3.24806 -2.62031 2.29671 0
M  V30 34 H 0.367239 -1.26636 0.878965 0
M  V30 35 H 2.58418 -0.715662 1.8693 0
M  V30 36 H 2.9856 1.81831 2.01878 0
M  V30 37 H 4.39444 0.702111 2.15 0
M  V30 38 H 3.60707 2.66274 -0.0307785 0
M  V30 39 H 5.16004 2.39067 0.792348 0
M  V30 40 H 5.27687 1.64742 -1.52365 0
M  V30 41 H 5.5999 0.341199 -0.303231 0
M  V30 42 H 4.18451 -0.526756 -2.06055 0
M  V30 43 H 2.8695 0.710925 -1.66988 0
M  V30 44 H 2.17906 -2.56547 0.0679876 0
M  V30 45 H 1.5521 -1.36225 -1.20838 0
M  V30 46 H 2.97666 -2.38399 -1.49015 0
M  V30 47 H 4.41203 -2.4288 0.387768 0
M  V30 48 H 4.94386 -0.960699 1.14266 0
M  V30 END ATOM
M  V30 BEGIN BOND
M  V30 1 1 1 2
M  V30 2 1 2 3
M  V30 3 2 3 4
M  V30 4 1 4 5
M  V30 5 2 5 6
M  V30 6 1 6 7
M  V30 7 2 7 8
M  V30 8 1 8 9
M  V30 9 2 9 10
M  V30 10 2 9 11
M  V30 11 1 9 12
M  V30 12 1 6 13
M  V30 13 1 13 14
M  V30 14 2 14 15
M  V30 15 1 14 16
M  V30 16 1 16 17
M  V30 17 1 17 18
M  V30 18 1 18 19
M  V30 19 1 19 20
M  V30 20 1 20 21
M  V30 21 1 21 22
M  V30 22 1 21 23
M  V30 23 1 8 3
M  V30 24 1 21 16
M  V30 25 1 1 24
M  V30 26 1 1 25
M  V30 27 1 1 26
M  V30 28 1 2 27
M  V30 29 1 2 28
M  V30 30 1 4 29
M  V30 31 1 5 30
M  V30 32 1 7 31
M  V30 33 1 12 32
M  V30 34 1 12 33
M  V30 35 1 13 34
M  V30 36 1 16 35
M  V30 37 1 17 36
M  V30 38 1 17 37
M  V30 39 1 18 38
M  V30 40 1 18 39
M  V30 41 1 19 40
M  V30 42 1 19 41
M  V30 43 1 20 42
M  V30 44 1 20 43
M  V30 45 1 22 44
M  V30 46 1 22 45
M  V30 47 1 22 46
M  V30 48 1 23 47
M  V30 49 1 23 48
M  V30 END BOND
M  V30 END CTAB
M  END
