
     RDKit          3D

  0  0  0  0  0  0  0  0  0  0999 V3000
M  V30 BEGIN CTAB
M  V30 COUNTS 12 11 0 0 0
M  V30 BEGIN ATOM
M  V30 1 Cl 2.63667 0.409022 -0.931024 0
M  V30 2 C 1.39397 0.424174 0.317788 0
M  V30 3 P -0.20943 -0.0118527 -0.458585 0
M  V30 4 O -0.104609 0.122431 -1.98035 0
M  V30 5 N -0.486377 -1.69886 -0.126981 0
M  V30 6 N -1.39285 1.0431 0.1159 0
M  V30 7 H 1.31982 1.40832 0.845082 0
M  V30 8 H 1.64407 -0.311279 1.12423 0
M  V30 9 H 0.205146 -2.12211 0.508436 0
M  V30 10 H -1.46415 -1.94816 0.0291068 0
M  V30 11 H -1.79919 0.899232 1.0294 0
M  V30 12 H -1.74307 1.78599 -0.472996 0
M  V30 END ATOM
M  V30 BEGIN BOND
M  V30 1 1 1 2
M  V30 2 1 2 3
M  V30 3 2 3 4
M  V30 4 1 3 5
M  V30 5 1 3 6
M  V30 6 1 2 7
M  V30 7 1 2 8
M  V30 8 1 5 9
M  V30 9 1 5 10
M  V30 10 1 6 11
M  V30 11 1 6 12
M  V30 END BOND
M  V30 END CTAB
M  END
