
     RDKit          3D

  0  0  0  0  0  0  0  0  0  0999 V3000
M  V30 BEGIN CTAB
M  V30 COUNTS 19 20 0 0 0
M  V30 BEGIN ATOM
M  V30 1 C 3.82099 -0.111472 0.135141 0
M  V30 2 C 2.35014 -0.320793 0.0992185 0
M  V30 3 N 1.38858 0.561424 0.149304 0
M  V30 4 C 0.142164 0.193503 0.105401 0
M  V30 5 C -0.118427 -1.1493 0.00507649 0
M  V30 6 S 1.48852 -1.79283 -0.01881 0
M  V30 7 N -1.38625 -1.65852 -0.0493165 0
M  V30 8 C -2.44977 -0.822573 -0.00400091 0
M  V30 9 N -3.75973 -1.36418 -0.0613089 0
M  V30 10 N -2.22575 0.488667 0.0935348 0
M  V30 11 C -0.997554 1.01818 0.148834 0
M  V30 12 N -0.820668 2.44336 0.25392 0
M  V30 13 H 4.0424 0.88298 0.586605 0
M  V30 14 H 4.31998 -0.898198 0.774939 0
M  V30 15 H 4.25237 -0.227353 -0.867187 0
M  V30 16 H -4.32127 -1.39312 -0.937459 0
M  V30 17 H -4.20376 -1.75702 0.796108 0
M  V30 18 H -1.37905 2.97022 0.945418 0
M  V30 19 H -0.142906 2.93703 -0.354657 0
M  V30 END ATOM
M  V30 BEGIN BOND
M  V30 1 1 1 2
M  V30 2 2 2 3
M  V30 3 1 3 4
M  V30 4 2 4 5
M  V30 5 1 5 6
M  V30 6 1 5 7
M  V30 7 2 7 8
M  V30 8 1 8 9
M  V30 9 1 8 10
M  V30 10 2 10 11
M  V30 11 1 11 12
M  V30 12 1 6 2
M  V30 13 1 11 4
M  V30 14 1 1 13
M  V30 15 1 1 14
M  V30 16 1 1 15
M  V30 17 1 9 16
M  V30 18 1 9 17
M  V30 19 1 12 18
M  V30 20 1 12 19
M  V30 END BOND
M  V30 END CTAB
M  END
