
     RDKit          3D

  0  0  0  0  0  0  0  0  0  0999 V3000
M  V30 BEGIN CTAB
M  V30 COUNTS 43 46 0 0 0
M  V30 BEGIN ATOM
M  V30 1 N 4.25279 2.3633 -0.627183 0
M  V30 2 N 4.18703 1.00906 -0.304329 0
M  V30 3 C 3.01961 0.320034 -0.247392 0
M  V30 4 S 1.40784 1.01648 -0.569417 0
M  V30 5 C 0.123694 -0.264744 -0.372364 0
M  V30 6 C 0.236122 -1.31784 -1.40625 0
M  V30 7 C -0.745734 -2.4366 -1.3532 0
M  V30 8 S -2.45903 -2.04826 -1.48609 0
M  V30 9 C -3.24194 -1.33714 -0.0712511 0
M  V30 10 N -2.78908 -1.07114 1.1463 0
M  V30 11 N -3.72833 -0.536478 1.86142 0
M  V30 12 C -4.8441 -0.44328 1.09346 0
M  V30 13 N -4.54669 -0.939087 -0.106665 0
M  V30 14 N -5.40239 -1.04817 -1.23662 0
M  V30 15 C -6.12312 0.107395 1.53151 0
M  V30 16 C -7.27016 0.225435 0.801106 0
M  V30 17 C -8.21925 0.805481 1.63938 0
M  V30 18 C -7.59472 1.00993 2.84128 0
M  V30 19 O -6.37287 0.590463 2.74083 0
M  V30 20 N 3.36334 -0.932545 0.0895111 0
M  V30 21 N 4.67234 -1.0127 0.233084 0
M  V30 22 C 5.23253 0.208896 -0.0106553 0
M  V30 23 C 6.65632 0.528715 0.0467018 0
M  V30 24 C 7.22193 1.75607 -0.193218 0
M  V30 25 C 8.60468 1.61518 -0.030382 0
M  V30 26 C 8.78044 0.290654 0.30204 0
M  V30 27 O 7.60568 -0.308588 0.335011 0
M  V30 28 H 4.13468 2.62782 -1.62548 0
M  V30 29 H 4.41197 3.11532 0.0711911 0
M  V30 30 H 0.108677 -0.648811 0.658064 0
M  V30 31 H -0.831054 0.276651 -0.550143 0
M  V30 32 H 1.302 -1.71886 -1.40001 0
M  V30 33 H 0.17075 -0.877978 -2.45445 0
M  V30 34 H -0.486053 -3.11464 -2.23318 0
M  V30 35 H -0.583118 -3.07211 -0.431782 0
M  V30 36 H -5.759 -1.98108 -1.48461 0
M  V30 37 H -5.61925 -0.175877 -1.74821 0
M  V30 38 H -7.49113 -0.0422509 -0.210562 0
M  V30 39 H -9.23945 1.04912 1.40653 0
M  V30 40 H -8.04632 1.44939 3.72914 0
M  V30 41 H 6.78589 2.69443 -0.457909 0
M  V30 42 H 9.35242 2.40498 -0.14956 0
M  V30 43 H 9.76208 -0.136612 0.495446 0
M  V30 END ATOM
M  V30 BEGIN BOND
M  V30 1 1 1 2
M  V30 2 1 2 3
M  V30 3 1 3 4
M  V30 4 1 4 5
M  V30 5 1 5 6
M  V30 6 1 6 7
M  V30 7 1 7 8
M  V30 8 1 8 9
M  V30 9 2 9 10
M  V30 10 1 10 11
M  V30 11 2 11 12
M  V30 12 1 12 13
M  V30 13 1 13 14
M  V30 14 1 12 15
M  V30 15 2 15 16
M  V30 16 1 16 17
M  V30 17 2 17 18
M  V30 18 1 18 19
M  V30 19 2 3 20
M  V30 20 1 20 21
M  V30 21 2 21 22
M  V30 22 1 22 23
M  V30 23 2 23 24
M  V30 24 1 24 25
M  V30 25 2 25 26
M  V30 26 1 26 27
M  V30 27 1 22 2
M  V30 28 1 27 23
M  V30 29 1 13 9
M  V30 30 1 19 15
M  V30 31 1 1 28
M  V30 32 1 1 29
M  V30 33 1 5 30
M  V30 34 1 5 31
M  V30 35 1 6 32
M  V30 36 1 6 33
M  V30 37 1 7 34
M  V30 38 1 7 35
M  V30 39 1 14 36
M  V30 40 1 14 37
M  V30 41 1 16 38
M  V30 42 1 17 39
M  V30 43 1 18 40
M  V30 44 1 24 41
M  V30 45 1 25 42
M  V30 46 1 26 43
M  V30 END BOND
M  V30 END CTAB
M  END
