
     RDKit          3D

  0  0  0  0  0  0  0  0  0  0999 V3000
M  V30 BEGIN CTAB
M  V30 COUNTS 19 19 0 0 0
M  V30 BEGIN ATOM
M  V30 1 N -0.870899 -1.5327 -1.2075 0
M  V30 2 C -0.750146 -0.707591 -0.0217849 0
M  V30 3 C 0.69077 -0.371307 0.180048 0
M  V30 4 C 1.26839 0.82913 0.490721 0
M  V30 5 C 2.61236 0.852737 0.616304 0
M  V30 6 C 3.28109 -0.320216 0.423306 0
M  V30 7 S 2.02617 -1.41712 0.0742364 0
M  V30 8 Cl 5.02288 -0.578947 0.523693 0
M  V30 9 C -1.57428 0.534659 -0.195525 0
M  V30 10 N -2.96492 0.165301 -0.393107 0
M  V30 11 H -1.75133 -1.34243 -1.72952 0
M  V30 12 H -0.0756603 -1.25224 -1.8456 0
M  V30 13 H -1.0887 -1.28634 0.861477 0
M  V30 14 H 0.629593 1.73918 0.62971 0
M  V30 15 H 3.17055 1.78149 0.866626 0
M  V30 16 H -1.2449 1.07509 -1.10509 0
M  V30 17 H -1.53646 1.22119 0.64734 0
M  V30 18 H -3.27268 -0.336841 0.462121 0
M  V30 19 H -3.57182 0.946952 -0.656406 0
M  V30 END ATOM
M  V30 BEGIN BOND
M  V30 1 1 1 2
M  V30 2 1 2 3
M  V30 3 2 3 4
M  V30 4 1 4 5
M  V30 5 2 5 6
M  V30 6 1 6 7
M  V30 7 1 6 8
M  V30 8 1 2 9
M  V30 9 1 9 10
M  V30 10 1 7 3
M  V30 11 1 1 11
M  V30 12 1 1 12
M  V30 13 1 2 13
M  V30 14 1 4 14
M  V30 15 1 5 15
M  V30 16 1 9 16
M  V30 17 1 9 17
M  V30 18 1 10 18
M  V30 19 1 10 19
M  V30 END BOND
M  V30 END CTAB
M  END
