
     RDKit          3D

  0  0  0  0  0  0  0  0  0  0999 V3000
M  V30 BEGIN CTAB
M  V30 COUNTS 142 141 0 0 0
M  V30 BEGIN ATOM
M  V30 1 C -16.3534 -1.90852 -2.2412 0
M  V30 2 C -15.0675 -1.884 -1.41685 0
M  V30 3 C -15.4345 -1.69282 0.0262751 0
M  V30 4 C -14.228 -1.67002 0.917065 0
M  V30 5 C -13.2879 -0.550764 0.557093 0
M  V30 6 C -12.0911 -0.583877 1.46696 0
M  V30 7 C -12.4072 -0.400645 2.92096 0
M  V30 8 C -11.0872 -0.437473 3.71547 0
M  V30 9 C -10.3845 -1.70887 3.56612 0
M  V30 10 C -9.19702 -1.81446 3.05244 0
M  V30 11 C -8.38878 -0.678833 2.54316 0
M  V30 12 C -8.11734 -0.954846 1.07077 0
M  V30 13 C -7.36969 0.13875 0.408816 0
M  V30 14 C -6.00484 0.342181 1.09632 0
M  V30 15 C -5.31039 1.4945 0.420596 0
M  V30 16 C -4.00435 1.91482 0.881666 0
M  V30 17 C -2.82809 0.994429 0.78126 0
M  V30 18 C -2.5263 0.565361 -0.575878 0
M  V30 19 O -3.36394 -0.248879 -1.09608 0
M  V30 20 N -1.42534 0.947332 -1.36049 0
M  V30 21 C -1.28736 0.415608 -2.72761 0
M  V30 22 C -1.91563 1.26195 -3.77374 0
M  V30 23 C -3.37961 1.48496 -3.66214 0
M  V30 24 N -3.76728 2.34018 -4.80019 0
M  V30 25 C -0.423527 1.81944 -0.87435 0
M  V30 26 C 0.847174 1.26933 -0.362156 0
M  V30 27 C 0.758593 0.288132 0.71856 0
M  V30 28 C 2.12272 -0.176614 1.24281 0
M  V30 29 N 2.8516 0.916609 1.79625 0
M  V30 30 C 2.5307 1.30074 3.18105 0
M  V30 31 C 3.41672 0.72425 4.20972 0
M  V30 32 C 3.46115 -0.74484 4.38218 0
M  V30 33 N 2.22316 -1.34319 4.79365 0
M  V30 34 C 3.82058 1.65595 1.09017 0
M  V30 35 O 4.31904 2.72156 1.59059 0
M  V30 36 C 4.34816 1.28689 -0.228113 0
M  V30 37 C 4.45051 2.49078 -1.15567 0
M  V30 38 C 5.02774 2.13592 -2.49255 0
M  V30 39 C 6.46535 1.62718 -2.40132 0
M  V30 40 C 7.27209 2.73713 -1.83005 0
M  V30 41 C 8.72795 2.51074 -1.66271 0
M  V30 42 C 9.44599 2.17914 -2.95317 0
M  V30 43 C 10.8763 2.03783 -2.64968 0
M  V30 44 C 11.5518 0.966668 -2.82707 0
M  V30 45 C 11.062 -0.298389 -3.34768 0
M  V30 46 C 11.2711 -1.423 -2.31649 0
M  V30 47 C 10.547 -1.15526 -1.06511 0
M  V30 48 C 10.6674 -2.12519 0.0471467 0
M  V30 49 C 11.9182 -2.34047 0.763859 0
M  V30 50 C 13.1485 -2.81507 0.108507 0
M  V30 51 C 14.2204 -2.98343 1.21659 0
M  V30 52 C 15.4962 -3.46389 0.591667 0
M  V30 53 H -17.2066 -2.25881 -1.64255 0
M  V30 54 H -16.2282 -2.57439 -3.12363 0
M  V30 55 H -16.5677 -0.899249 -2.60484 0
M  V30 56 H -14.6083 -2.88881 -1.55973 0
M  V30 57 H -14.3687 -1.12781 -1.80888 0
M  V30 58 H -16.0418 -2.60061 0.312732 0
M  V30 59 H -16.0628 -0.792042 0.170324 0
M  V30 60 H -14.5454 -1.53141 1.98391 0
M  V30 61 H -13.6964 -2.64245 0.826608 0
M  V30 62 H -13.8488 0.41812 0.716741 0
M  V30 63 H -12.9622 -0.58112 -0.50696 0
M  V30 64 H -11.5358 -1.55215 1.32275 0
M  V30 65 H -11.398 0.215738 1.10544 0
M  V30 66 H -12.7884 0.629352 3.07223 0
M  V30 67 H -13.1146 -1.129 3.31112 0
M  V30 68 H -10.5628 0.472656 3.42953 0
M  V30 69 H -11.4318 -0.342342 4.78742 0
M  V30 70 H -10.9023 -2.62633 3.91268 0
M  V30 71 H -8.72902 -2.80998 2.97281 0
M  V30 72 H -7.44082 -0.702491 3.14276 0
M  V30 73 H -8.80495 0.313596 2.68825 0
M  V30 74 H -7.52216 -1.90012 1.03876 0
M  V30 75 H -9.10628 -1.14149 0.610575 0
M  V30 76 H -7.91631 1.10334 0.363789 0
M  V30 77 H -7.16834 -0.176757 -0.648368 0
M  V30 78 H -5.43217 -0.577692 0.872911 0
M  V30 79 H -6.13597 0.509571 2.17393 0
M  V30 80 H -5.31104 1.34339 -0.694194 0
M  V30 81 H -6.02535 2.37079 0.546494 0
M  V30 82 H -4.09419 2.14239 2.00125 0
M  V30 83 H -3.78155 2.93167 0.462876 0
M  V30 84 H -3.03851 0.141454 1.46966 0
M  V30 85 H -1.97009 1.52119 1.22383 0
M  V30 86 H -1.82763 -0.581445 -2.72932 0
M  V30 87 H -0.235926 0.141109 -2.95189 0
M  V30 88 H -1.3464 2.24113 -3.77733 0
M  V30 89 H -1.72917 0.867392 -4.80696 0
M  V30 90 H -3.71356 2.04756 -2.77516 0
M  V30 91 H -3.96903 0.567015 -3.78198 0
M  V30 92 H -3.38349 3.30511 -4.6912 0
M  V30 93 H -3.41256 1.96576 -5.70141 0
M  V30 94 H -0.895744 2.50782 -0.110298 0
M  V30 95 H -0.199186 2.54394 -1.7205 0
M  V30 96 H 1.4293 2.16227 0.0513514 0
M  V30 97 H 1.50599 0.902238 -1.20593 0
M  V30 98 H 0.236055 0.716691 1.60693 0
M  V30 99 H 0.236043 -0.651783 0.429925 0
M  V30 100 H 2.62428 -0.650827 0.36249 0
M  V30 101 H 1.90189 -0.988887 1.93238 0
M  V30 102 H 2.48611 2.40515 3.24165 0
M  V30 103 H 1.46936 0.97358 3.40296 0
M  V30 104 H 4.45346 1.16917 4.11551 0
M  V30 105 H 3.07652 1.14654 5.21278 0
M  V30 106 H 4.2287 -1.0625 5.14869 0
M  V30 107 H 3.75475 -1.22191 3.40364 0
M  V30 108 H 2.43466 -2.35393 5.04567 0
M  V30 109 H 1.94391 -0.895876 5.70591 0
M  V30 110 H 5.42519 0.98686 -0.0312305 0
M  V30 111 H 3.80676 0.498153 -0.746727 0
M  V30 112 H 4.95079 3.34962 -0.688808 0
M  V30 113 H 3.39923 2.83696 -1.33449 0
M  V30 114 H 5.01739 3.09535 -3.09244 0
M  V30 115 H 4.38409 1.43705 -3.04487 0
M  V30 116 H 6.44916 0.75199 -1.72353 0
M  V30 117 H 6.82191 1.24174 -3.3679 0
M  V30 118 H 7.07764 3.70367 -2.37529 0
M  V30 119 H 6.86976 2.93496 -0.788978 0
M  V30 120 H 8.95449 1.78288 -0.860231 0
M  V30 121 H 9.17105 3.49264 -1.31381 0
M  V30 122 H 9.06762 1.29415 -3.44466 0
M  V30 123 H 9.2445 3.03162 -3.64911 0
M  V30 124 H 11.3677 2.94611 -2.23941 0
M  V30 125 H 12.6285 0.998724 -2.55736 0
M  V30 126 H 10.0482 -0.374868 -3.69353 0
M  V30 127 H 11.7136 -0.586805 -4.21935 0
M  V30 128 H 10.7996 -2.35267 -2.77176 0
M  V30 129 H 12.3184 -1.63098 -2.24842 0
M  V30 130 H 9.4231 -1.04119 -1.26843 0
M  V30 131 H 10.7915 -0.141965 -0.630245 0
M  V30 132 H 10.2396 -3.13169 -0.344866 0
M  V30 133 H 9.87537 -1.89409 0.857667 0
M  V30 134 H 11.7537 -3.03303 1.67557 0
M  V30 135 H 12.144 -1.35907 1.33917 0
M  V30 136 H 13.0159 -3.79469 -0.370644 0
M  V30 137 H 13.6107 -2.11736 -0.627258 0
M  V30 138 H 14.3777 -1.96245 1.62635 0
M  V30 139 H 13.8821 -3.69975 1.96685 0
M  V30 140 H 16.3912 -2.9929 1.06804 0
M  V30 141 H 15.4638 -3.23852 -0.489729 0
M  V30 142 H 15.5976 -4.57545 0.713871 0
M  V30 END ATOM
M  V30 BEGIN BOND
M  V30 1 1 1 2
M  V30 2 1 2 3
M  V30 3 1 3 4
M  V30 4 1 4 5
M  V30 5 1 5 6
M  V30 6 1 6 7
M  V30 7 1 7 8
M  V30 8 1 8 9
M  V30 9 2 9 10
M  V30 10 1 10 11
M  V30 11 1 11 12
M  V30 12 1 12 13
M  V30 13 1 13 14
M  V30 14 1 14 15
M  V30 15 1 15 16
M  V30 16 1 16 17
M  V30 17 1 17 18
M  V30 18 2 18 19
M  V30 19 1 18 20
M  V30 20 1 20 21
M  V30 21 1 21 22
M  V30 22 1 22 23
M  V30 23 1 23 24
M  V30 24 1 20 25
M  V30 25 1 25 26
M  V30 26 1 26 27
M  V30 27 1 27 28
M  V30 28 1 28 29
M  V30 29 1 29 30
M  V30 30 1 30 31
M  V30 31 1 31 32
M  V30 32 1 32 33
M  V30 33 1 29 34
M  V30 34 2 34 35
M  V30 35 1 34 36
M  V30 36 1 36 37
M  V30 37 1 37 38
M  V30 38 1 38 39
M  V30 39 1 39 40
M  V30 40 1 40 41
M  V30 41 1 41 42
M  V30 42 1 42 43
M  V30 43 2 43 44
M  V30 44 1 44 45
M  V30 45 1 45 46
M  V30 46 1 46 47
M  V30 47 1 47 48
M  V30 48 1 48 49
M  V30 49 1 49 50
M  V30 50 1 50 51
M  V30 51 1 51 52
M  V30 52 1 1 53
M  V30 53 1 1 54
M  V30 54 1 1 55
M  V30 55 1 2 56
M  V30 56 1 2 57
M  V30 57 1 3 58
M  V30 58 1 3 59
M  V30 59 1 4 60
M  V30 60 1 4 61
M  V30 61 1 5 62
M  V30 62 1 5 63
M  V30 63 1 6 64
M  V30 64 1 6 65
M  V30 65 1 7 66
M  V30 66 1 7 67
M  V30 67 1 8 68
M  V30 68 1 8 69
M  V30 69 1 9 70
M  V30 70 1 10 71
M  V30 71 1 11 72
M  V30 72 1 11 73
M  V30 73 1 12 74
M  V30 74 1 12 75
M  V30 75 1 13 76
M  V30 76 1 13 77
M  V30 77 1 14 78
M  V30 78 1 14 79
M  V30 79 1 15 80
M  V30 80 1 15 81
M  V30 81 1 16 82
M  V30 82 1 16 83
M  V30 83 1 17 84
M  V30 84 1 17 85
M  V30 85 1 21 86
M  V30 86 1 21 87
M  V30 87 1 22 88
M  V30 88 1 22 89
M  V30 89 1 23 90
M  V30 90 1 23 91
M  V30 91 1 24 92
M  V30 92 1 24 93
M  V30 93 1 25 94
M  V30 94 1 25 95
M  V30 95 1 26 96
M  V30 96 1 26 97
M  V30 97 1 27 98
M  V30 98 1 27 99
M  V30 99 1 28 100
M  V30 100 1 28 101
M  V30 101 1 30 102
M  V30 102 1 30 103
M  V30 103 1 31 104
M  V30 104 1 31 105
M  V30 105 1 32 106
M  V30 106 1 32 107
M  V30 107 1 33 108
M  V30 108 1 33 109
M  V30 109 1 36 110
M  V30 110 1 36 111
M  V30 111 1 37 112
M  V30 112 1 37 113
M  V30 113 1 38 114
M  V30 114 1 38 115
M  V30 115 1 39 116
M  V30 116 1 39 117
M  V30 117 1 40 118
M  V30 118 1 40 119
M  V30 119 1 41 120
M  V30 120 1 41 121
M  V30 121 1 42 122
M  V30 122 1 42 123
M  V30 123 1 43 124
M  V30 124 1 44 125
M  V30 125 1 45 126
M  V30 126 1 45 127
M  V30 127 1 46 128
M  V30 128 1 46 129
M  V30 129 1 47 130
M  V30 130 1 47 131
M  V30 131 1 48 132
M  V30 132 1 48 133
M  V30 133 1 49 134
M  V30 134 1 49 135
M  V30 135 1 50 136
M  V30 136 1 50 137
M  V30 137 1 51 138
M  V30 138 1 51 139
M  V30 139 1 52 140
M  V30 140 1 52 141
M  V30 141 1 52 142
M  V30 END BOND
M  V30 END CTAB
M  END
