
     RDKit          3D

  0  0  0  0  0  0  0  0  0  0999 V3000
M  V30 BEGIN CTAB
M  V30 COUNTS 31 32 0 0 0
M  V30 BEGIN ATOM
M  V30 1 N 4.52633 -0.893897 -0.0480814 0
M  V30 2 C 3.23803 -0.807852 -0.631771 0
M  V30 3 N 2.77954 -1.23708 -1.81751 0
M  V30 4 N 1.47668 -0.933667 -1.94752 0
M  V30 5 C 1.04767 -0.296631 -0.847955 0
M  V30 6 C 2.1354 -0.209205 -0.014729 0
M  V30 7 C -0.31161 0.218407 -0.561402 0 CFG=2
M  V30 8 C -0.282305 1.69951 -0.802037 0
M  V30 9 C -1.47049 2.43157 -0.281266 0
M  V30 10 C -1.79897 2.00078 1.1232 0
M  V30 11 C -1.82769 0.515416 1.28848 0
M  V30 12 N -0.655348 -0.15169 0.777348 0
M  V30 13 S -0.911637 -1.83972 0.878722 0
M  V30 14 O 0.294855 -2.64614 0.532962 0
M  V30 15 O -1.28721 -2.18134 2.31046 0
M  V30 16 N -2.21218 -2.36916 -0.117771 0
M  V30 17 H 5.15048 -1.70244 -0.242942 0
M  V30 18 H 4.89334 -0.156534 0.592736 0
M  V30 19 H 0.923203 -1.18338 -2.80801 0
M  V30 20 H 2.11302 0.255818 0.960993 0
M  V30 21 H -0.996191 -0.221999 -1.32468 0
M  V30 22 H -0.158211 1.88598 -1.86743 0
M  V30 23 H 0.627372 2.09514 -0.267764 0
M  V30 24 H -2.34287 2.36675 -0.971588 0
M  V30 25 H -1.20446 3.51566 -0.228687 0
M  V30 26 H -2.79402 2.39739 1.37529 0
M  V30 27 H -1.0635 2.45337 1.81711 0
M  V30 28 H -2.77567 0.0917235 0.90597 0
M  V30 29 H -1.83604 0.314919 2.40049 0
M  V30 30 H -2.14387 -3.35684 -0.386258 0
M  V30 31 H -3.13367 -2.05484 0.203622 0
M  V30 END ATOM
M  V30 BEGIN BOND
M  V30 1 1 1 2
M  V30 2 2 2 3
M  V30 3 1 3 4
M  V30 4 1 4 5
M  V30 5 2 5 6
M  V30 6 1 5 7
M  V30 7 1 7 8
M  V30 8 1 8 9
M  V30 9 1 9 10
M  V30 10 1 10 11
M  V30 11 1 11 12
M  V30 12 1 12 13
M  V30 13 2 13 14
M  V30 14 2 13 15
M  V30 15 1 13 16
M  V30 16 1 6 2
M  V30 17 1 12 7
M  V30 18 1 1 17
M  V30 19 1 1 18
M  V30 20 1 4 19
M  V30 21 1 6 20
M  V30 22 1 7 21 CFG=3
M  V30 23 1 8 22
M  V30 24 1 8 23
M  V30 25 1 9 24
M  V30 26 1 9 25
M  V30 27 1 10 26
M  V30 28 1 10 27
M  V30 29 1 11 28
M  V30 30 1 11 29
M  V30 31 1 16 30
M  V30 32 1 16 31
M  V30 END BOND
M  V30 END CTAB
M  END
