
     RDKit          3D

  0  0  0  0  0  0  0  0  0  0999 V3000
M  V30 BEGIN CTAB
M  V30 COUNTS 30 30 0 0 0
M  V30 BEGIN ATOM
M  V30 1 N -4.32454 -0.0847264 0.268905 0
M  V30 2 C -3.00295 0.295399 -0.0888112 0
M  V30 3 C -2.02747 -0.835115 0.156172 0
M  V30 4 N -0.739561 -0.423913 -0.19966 0
M  V30 5 C -0.419836 -0.190729 -1.54487 0
M  V30 6 C 0.967243 0.383494 -1.6849 0
M  V30 7 C 1.41188 1.15998 -0.47463 0
M  V30 8 C 1.21215 0.437911 0.814666 0 CFG=1
M  V30 9 C 0.330421 -0.791777 0.663604 0
M  V30 10 S 2.75408 -0.0390269 1.57292 0
M  V30 11 O 2.4468 -0.80064 2.83961 0
M  V30 12 O 3.56637 1.1486 1.96652 0
M  V30 13 N 3.69779 -1.04616 0.552464 0
M  V30 14 H -4.42816 -0.149632 1.279 0
M  V30 15 H -5.01252 0.486142 -0.208776 0
M  V30 16 H -2.97452 0.611336 -1.15131 0
M  V30 17 H -2.73087 1.18098 0.548169 0
M  V30 18 H -2.37786 -1.72349 -0.411373 0
M  V30 19 H -2.05243 -1.04941 1.24491 0
M  V30 20 H -1.16207 0.502548 -1.98961 0
M  V30 21 H -0.418264 -1.13194 -2.16018 0
M  V30 22 H 1.70478 -0.397469 -1.96105 0
M  V30 23 H 0.935577 1.0998 -2.53446 0
M  V30 24 H 2.48679 1.40756 -0.620344 0
M  V30 25 H 0.841028 2.10027 -0.453602 0
M  V30 26 H 0.696861 1.0865 1.5665 0
M  V30 27 H 0.937494 -1.63656 0.343439 0
M  V30 28 H -0.0922657 -1.02466 1.6614 0
M  V30 29 H 3.17889 -1.37906 -0.289067 0
M  V30 30 H 4.59517 -0.574493 0.294359 0
M  V30 END ATOM
M  V30 BEGIN BOND
M  V30 1 1 1 2
M  V30 2 1 2 3
M  V30 3 1 3 4
M  V30 4 1 4 5
M  V30 5 1 5 6
M  V30 6 1 6 7
M  V30 7 1 7 8
M  V30 8 1 8 9
M  V30 9 1 8 10
M  V30 10 2 10 11
M  V30 11 2 10 12
M  V30 12 1 10 13
M  V30 13 1 9 4
M  V30 14 1 1 14
M  V30 15 1 1 15
M  V30 16 1 2 16
M  V30 17 1 2 17
M  V30 18 1 3 18
M  V30 19 1 3 19
M  V30 20 1 5 20
M  V30 21 1 5 21
M  V30 22 1 6 22
M  V30 23 1 6 23
M  V30 24 1 7 24
M  V30 25 1 7 25
M  V30 26 1 8 26 CFG=1
M  V30 27 1 9 27
M  V30 28 1 9 28
M  V30 29 1 13 29
M  V30 30 1 13 30
M  V30 END BOND
M  V30 END CTAB
M  END
