
     RDKit          3D

  0  0  0  0  0  0  0  0  0  0999 V3000
M  V30 BEGIN CTAB
M  V30 COUNTS 22 22 0 0 0
M  V30 BEGIN ATOM
M  V30 1 N -3.11372 1.21662 1.34879 0
M  V30 2 C -2.49696 0.243524 0.531093 0
M  V30 3 C -3.18829 -0.763882 -0.0993025 0
M  V30 4 C -2.51969 -1.67307 -0.878273 0
M  V30 5 N -1.18848 -1.55252 -1.00572 0
M  V30 6 C -0.47632 -0.573038 -0.399297 0
M  V30 7 N -1.1615 0.298008 0.354249 0
M  V30 8 C 1.00662 -0.476534 -0.569067 0
M  V30 9 N 1.46166 0.658902 0.194594 0
M  V30 10 S 3.13801 0.915327 0.111382 0
M  V30 11 O 3.70182 0.53686 -1.23673 0
M  V30 12 O 3.38178 2.41186 0.249332 0
M  V30 13 N 4.01372 0.0894839 1.33656 0
M  V30 14 H -2.87414 2.22396 1.22201 0
M  V30 15 H -3.78963 0.911491 2.05596 0
M  V30 16 H -4.24991 -0.807976 0.0407183 0
M  V30 17 H -3.07842 -2.47551 -1.37909 0
M  V30 18 H 1.41937 -1.42093 -0.157986 0
M  V30 19 H 1.30288 -0.35587 -1.61389 0
M  V30 20 H 0.871655 1.4876 0.115162 0
M  V30 21 H 4.48244 -0.727052 0.912772 0
M  V30 22 H 3.35709 -0.167249 2.10591 0
M  V30 END ATOM
M  V30 BEGIN BOND
M  V30 1 1 1 2
M  V30 2 2 2 3
M  V30 3 1 3 4
M  V30 4 2 4 5
M  V30 5 1 5 6
M  V30 6 2 6 7
M  V30 7 1 6 8
M  V30 8 1 8 9
M  V30 9 1 9 10
M  V30 10 2 10 11
M  V30 11 2 10 12
M  V30 12 1 10 13
M  V30 13 1 7 2
M  V30 14 1 1 14
M  V30 15 1 1 15
M  V30 16 1 3 16
M  V30 17 1 4 17
M  V30 18 1 8 18
M  V30 19 1 8 19
M  V30 20 1 9 20
M  V30 21 1 13 21
M  V30 22 1 13 22
M  V30 END BOND
M  V30 END CTAB
M  END
