
     RDKit          3D

  0  0  0  0  0  0  0  0  0  0999 V3000
M  V30 BEGIN CTAB
M  V30 COUNTS 32 31 0 0 0
M  V30 BEGIN ATOM
M  V30 1 C -3.43951 -0.881697 -0.823779 0
M  V30 2 C -2.67058 0.150143 0.000998074 0
M  V30 3 C -2.80648 1.4364 -0.746432 0
M  V30 4 C -3.3808 0.223772 1.34233 0
M  V30 5 O -1.38576 -0.355307 0.0916428 0
M  V30 6 C -0.316345 0.215586 0.73964 0
M  V30 7 O -0.513818 1.29683 1.30513 0
M  V30 8 C 0.981582 -0.501963 0.711767 0 CFG=1
M  V30 9 N 0.903953 -1.73023 -0.0204522 0
M  V30 10 C 2.10551 0.350832 0.197218 0
M  V30 11 C 3.36086 -0.524973 0.230759 0
M  V30 12 C 4.54924 0.1805 -0.247975 0
M  V30 13 N 4.58954 0.694971 -1.55895 0
M  V30 14 S 5.83232 0.364506 0.75991 0
M  V30 15 H -2.77664 -1.13038 -1.68003 0
M  V30 16 H -4.37788 -0.527624 -1.19504 0
M  V30 17 H -3.50741 -1.7857 -0.190546 0
M  V30 18 H -2.64777 1.23212 -1.84158 0
M  V30 19 H -3.87175 1.76505 -0.645308 0
M  V30 20 H -2.18733 2.25312 -0.385436 0
M  V30 21 H -4.10725 1.05281 1.31865 0
M  V30 22 H -2.69734 0.38364 2.18224 0
M  V30 23 H -3.92231 -0.72999 1.54487 0
M  V30 24 H 1.23715 -0.761014 1.77295 0
M  V30 25 H 0.645816 -1.5287 -1.00688 0
M  V30 26 H 0.274152 -2.42777 0.431056 0
M  V30 27 H 2.30327 1.21758 0.866389 0
M  V30 28 H 1.92343 0.634295 -0.845361 0
M  V30 29 H 3.49277 -0.875567 1.27439 0
M  V30 30 H 3.20744 -1.42635 -0.410919 0
M  V30 31 H 4.42963 0.0442684 -2.34509 0
M  V30 32 H 4.77231 1.69082 -1.74598 0
M  V30 END ATOM
M  V30 BEGIN BOND
M  V30 1 1 1 2
M  V30 2 1 2 3
M  V30 3 1 2 4
M  V30 4 1 2 5
M  V30 5 1 5 6
M  V30 6 2 6 7
M  V30 7 1 6 8
M  V30 8 1 8 9
M  V30 9 1 8 10
M  V30 10 1 10 11
M  V30 11 1 11 12
M  V30 12 1 12 13
M  V30 13 2 12 14
M  V30 14 1 1 15
M  V30 15 1 1 16
M  V30 16 1 1 17
M  V30 17 1 3 18
M  V30 18 1 3 19
M  V30 19 1 3 20
M  V30 20 1 4 21
M  V30 21 1 4 22
M  V30 22 1 4 23
M  V30 23 1 8 24 CFG=1
M  V30 24 1 9 25
M  V30 25 1 9 26
M  V30 26 1 10 27
M  V30 27 1 10 28
M  V30 28 1 11 29
M  V30 29 1 11 30
M  V30 30 1 13 31
M  V30 31 1 13 32
M  V30 END BOND
M  V30 END CTAB
M  END
