
     RDKit          3D

  0  0  0  0  0  0  0  0  0  0999 V3000
M  V30 BEGIN CTAB
M  V30 COUNTS 37 39 0 0 0
M  V30 BEGIN ATOM
M  V30 1 N 1.24502 3.46019 -1.89955 0
M  V30 2 C 0.395899 2.7928 -1.48464 0
M  V30 3 C -0.660502 1.94777 -0.946508 0
M  V30 4 C -1.72076 2.51719 -0.420668 0
M  V30 5 N -1.83558 3.96029 -0.377207 0
M  V30 6 O -2.78668 1.81421 0.119999 0
M  V30 7 C -2.74084 0.421298 0.109879 0
M  V30 8 C -1.66434 -0.226765 -0.423353 0
M  V30 9 C -0.516361 0.5049 -1.00074 0
M  V30 10 C 0.777209 0.0260102 -0.449466 0
M  V30 11 C 1.29659 0.520003 0.74097 0
M  V30 12 C 2.50133 0.0660729 1.23284 0
M  V30 13 C 3.23252 -0.900331 0.551248 0
M  V30 14 C 2.7218 -1.39569 -0.632972 0
M  V30 15 C 1.51399 -0.928001 -1.1082 0
M  V30 16 S 4.80312 -1.50267 1.17757 0
M  V30 17 C 6.1384 -0.468127 0.51478 0
M  V30 18 C -1.68936 -1.61648 -0.399174 0
M  V30 19 C -2.70965 -2.3657 0.11798 0
M  V30 20 C -3.79298 -1.69064 0.654673 0
M  V30 21 C -3.81041 -0.311897 0.651645 0
M  V30 22 N -4.8627 -2.42811 1.19659 0
M  V30 23 H -2.22778 4.4155 -1.22453 0
M  V30 24 H -1.55817 4.53042 0.420707 0
M  V30 25 H -0.515922 0.193285 -2.09395 0
M  V30 26 H 0.719481 1.27168 1.26321 0
M  V30 27 H 2.89309 0.451954 2.14959 0
M  V30 28 H 3.29282 -2.15032 -1.16514 0
M  V30 29 H 1.1112 -1.31819 -2.04147 0
M  V30 30 H 6.04675 0.543725 0.939157 0
M  V30 31 H 7.11084 -0.925466 0.800169 0
M  V30 32 H 6.02901 -0.454969 -0.595671 0
M  V30 33 H -0.837251 -2.1209 -0.823454 0
M  V30 34 H -2.70547 -3.45307 0.125063 0
M  V30 35 H -4.6391 0.251999 1.06174 0
M  V30 36 H -5.63566 -1.97159 1.72225 0
M  V30 37 H -4.91957 -3.46038 1.09081 0
M  V30 END ATOM
M  V30 BEGIN BOND
M  V30 1 3 1 2
M  V30 2 1 2 3
M  V30 3 2 3 4
M  V30 4 1 4 5
M  V30 5 1 4 6
M  V30 6 1 6 7
M  V30 7 2 7 8
M  V30 8 1 8 9
M  V30 9 1 9 10
M  V30 10 2 10 11
M  V30 11 1 11 12
M  V30 12 2 12 13
M  V30 13 1 13 14
M  V30 14 2 14 15
M  V30 15 1 13 16
M  V30 16 1 16 17
M  V30 17 1 8 18
M  V30 18 2 18 19
M  V30 19 1 19 20
M  V30 20 2 20 21
M  V30 21 1 20 22
M  V30 22 1 9 3
M  V30 23 1 15 10
M  V30 24 1 21 7
M  V30 25 1 5 23
M  V30 26 1 5 24
M  V30 27 1 9 25
M  V30 28 1 11 26
M  V30 29 1 12 27
M  V30 30 1 14 28
M  V30 31 1 15 29
M  V30 32 1 17 30
M  V30 33 1 17 31
M  V30 34 1 17 32
M  V30 35 1 18 33
M  V30 36 1 19 34
M  V30 37 1 21 35
M  V30 38 1 22 36
M  V30 39 1 22 37
M  V30 END BOND
M  V30 END CTAB
M  END
