
     RDKit          3D

  0  0  0  0  0  0  0  0  0  0999 V3000
M  V30 BEGIN CTAB
M  V30 COUNTS 27 28 0 0 0
M  V30 BEGIN ATOM
M  V30 1 N -0.726072 2.72028 0.693557 0
M  V30 2 N 0.301468 1.82414 0.987399 0
M  V30 3 C 0.461531 0.826593 -0.0639536 0
M  V30 4 C 1.61343 -0.0181533 0.330186 0
M  V30 5 C 2.48428 0.175844 1.39875 0
M  V30 6 N 3.38433 -0.791663 1.43868 0
M  V30 7 N 3.1328 -1.60362 0.440873 0
M  V30 8 C 2.0479 -1.16735 -0.272943 0
M  V30 9 N 1.57236 -1.86284 -1.41108 0
M  V30 10 C -0.771485 0.0950674 -0.333633 0
M  V30 11 C -1.84454 0.0822503 0.477302 0
M  V30 12 C -2.92099 -0.775026 -0.126046 0
M  V30 13 C -2.49304 -0.746064 -1.59199 0
M  V30 14 O -1.08874 -0.701026 -1.41831 0
M  V30 15 H -0.321192 3.68307 0.810956 0
M  V30 16 H -0.954629 2.61101 -0.310221 0
M  V30 17 H 0.219761 1.40155 1.92797 0
M  V30 18 H 0.783788 1.38897 -0.975538 0
M  V30 19 H 2.39095 1.01547 2.06836 0
M  V30 20 H 4.17399 -0.922191 2.12853 0
M  V30 21 H 0.999092 -2.72202 -1.29145 0
M  V30 22 H 1.79314 -1.51935 -2.36207 0
M  V30 23 H -1.94297 0.587432 1.40839 0
M  V30 24 H -2.76041 -1.80917 0.230823 0
M  V30 25 H -3.91927 -0.378147 0.0355718 0
M  V30 26 H -2.78241 0.218793 -2.06743 0
M  V30 27 H -2.83308 -1.61385 -2.15268 0
M  V30 END ATOM
M  V30 BEGIN BOND
M  V30 1 1 1 2
M  V30 2 1 2 3
M  V30 3 1 3 4
M  V30 4 2 4 5
M  V30 5 1 5 6
M  V30 6 1 6 7
M  V30 7 2 7 8
M  V30 8 1 8 9
M  V30 9 1 3 10
M  V30 10 2 10 11
M  V30 11 1 11 12
M  V30 12 1 12 13
M  V30 13 1 13 14
M  V30 14 1 8 4
M  V30 15 1 14 10
M  V30 16 1 1 15
M  V30 17 1 1 16
M  V30 18 1 2 17
M  V30 19 1 3 18
M  V30 20 1 5 19
M  V30 21 1 6 20
M  V30 22 1 9 21
M  V30 23 1 9 22
M  V30 24 1 11 23
M  V30 25 1 12 24
M  V30 26 1 12 25
M  V30 27 1 13 26
M  V30 28 1 13 27
M  V30 END BOND
M  V30 END CTAB
M  END
