
     RDKit          3D

  0  0  0  0  0  0  0  0  0  0999 V3000
M  V30 BEGIN CTAB
M  V30 COUNTS 36 37 0 0 0
M  V30 BEGIN ATOM
M  V30 1 F 1.10535 2.27627 -0.242626 0
M  V30 2 C 1.93658 1.21336 -0.159541 0
M  V30 3 C 1.37451 -0.0495525 -0.031713 0
M  V30 4 C 2.22673 -1.13055 0.0526524 0
M  V30 5 C 3.58975 -0.948841 0.0101724 0
M  V30 6 C 4.15931 0.300344 -0.116523 0
M  V30 7 C 3.3036 1.40327 -0.20286 0
M  V30 8 F 3.80277 2.65819 -0.328775 0
M  V30 9 N 5.56037 0.483691 -0.159876 0
M  V30 10 N 4.44039 -2.0801 0.0992361 0
M  V30 11 B -0.162933 -0.195248 0.0107037 0
M  V30 12 O -0.971381 -0.66205 -1.09602 0
M  V30 13 C -2.25183 -0.138237 -0.884044 0
M  V30 14 C -2.33662 0.214445 0.544922 0
M  V30 15 O -1.03274 0.570507 0.926806 0
M  V30 16 C -3.20752 1.41813 0.841074 0
M  V30 17 C -2.76404 -0.907407 1.45251 0
M  V30 18 C -3.24529 -1.16654 -1.34767 0
M  V30 19 C -2.389 1.07032 -1.77794 0
M  V30 20 H 1.84904 -2.13348 0.152879 0
M  V30 21 H 5.95254 1.44267 -0.183278 0
M  V30 22 H 6.17354 -0.358868 -0.167398 0
M  V30 23 H 4.99555 -2.32618 -0.748104 0
M  V30 24 H 4.48877 -2.6238 0.986091 0
M  V30 25 H -4.07218 1.45666 0.17186 0
M  V30 26 H -2.6065 2.36206 0.782618 0
M  V30 27 H -3.56175 1.37152 1.90133 0
M  V30 28 H -1.94791 -1.66866 1.58993 0
M  V30 29 H -2.90073 -0.458033 2.47766 0
M  V30 30 H -3.71666 -1.36649 1.18829 0
M  V30 31 H -3.33151 -2.04133 -0.708696 0
M  V30 32 H -4.23464 -0.665615 -1.53421 0
M  V30 33 H -2.90914 -1.5137 -2.35017 0
M  V30 34 H -2.60632 1.9988 -1.22493 0
M  V30 35 H -1.48334 1.24536 -2.39803 0
M  V30 36 H -3.22681 0.949085 -2.52241 0
M  V30 END ATOM
M  V30 BEGIN BOND
M  V30 1 1 1 2
M  V30 2 2 2 3
M  V30 3 1 3 4
M  V30 4 2 4 5
M  V30 5 1 5 6
M  V30 6 2 6 7
M  V30 7 1 7 8
M  V30 8 1 6 9
M  V30 9 1 5 10
M  V30 10 1 3 11
M  V30 11 1 11 12
M  V30 12 1 12 13
M  V30 13 1 13 14
M  V30 14 1 14 15
M  V30 15 1 14 16
M  V30 16 1 14 17
M  V30 17 1 13 18
M  V30 18 1 13 19
M  V30 19 1 7 2
M  V30 20 1 15 11
M  V30 21 1 4 20
M  V30 22 1 9 21
M  V30 23 1 9 22
M  V30 24 1 10 23
M  V30 25 1 10 24
M  V30 26 1 16 25
M  V30 27 1 16 26
M  V30 28 1 16 27
M  V30 29 1 17 28
M  V30 30 1 17 29
M  V30 31 1 17 30
M  V30 32 1 18 31
M  V30 33 1 18 32
M  V30 34 1 18 33
M  V30 35 1 19 34
M  V30 36 1 19 35
M  V30 37 1 19 36
M  V30 END BOND
M  V30 END CTAB
M  END
