
     RDKit          3D

  0  0  0  0  0  0  0  0  0  0999 V3000
M  V30 BEGIN CTAB
M  V30 COUNTS 37 36 0 0 0
M  V30 BEGIN ATOM
M  V30 1 C 0.609589 -1.25899 0.39864 0 CFG=1
M  V30 2 N 1.1637 -2.58162 0.527114 0
M  V30 3 C 1.2587 -0.521819 -0.731432 0
M  V30 4 C 2.74781 -0.377542 -0.525013 0
M  V30 5 C 3.06183 0.377961 0.733278 0
M  V30 6 C 4.56655 0.494728 0.891359 0
M  V30 7 N 5.1306 1.20312 -0.246568 0
M  V30 8 C -0.84429 -1.39883 0.143314 0
M  V30 9 O -1.40624 -2.52472 0.0708604 0
M  V30 10 N -1.62742 -0.225478 -0.0248462 0
M  V30 11 C -3.03313 -0.31697 -0.272894 0 CFG=1
M  V30 12 C -3.88366 0.293913 0.797549 0
M  V30 13 C -3.67519 1.72449 1.02507 0
M  V30 14 O -4.38172 2.37842 2.01633 0
M  V30 15 O -2.8624 2.36516 0.330907 0
M  V30 16 C -3.37283 0.240402 -1.62442 0
M  V30 17 O -4.67268 0.251154 -2.06792 0
M  V30 18 O -2.45272 0.697281 -2.34543 0
M  V30 19 H 0.747867 -0.697181 1.32541 0
M  V30 20 H 1.1708 -3.10615 -0.366621 0
M  V30 21 H 0.832055 -3.095 1.34602 0
M  V30 22 H 1.05516 -1.01702 -1.69782 0
M  V30 23 H 0.819204 0.505415 -0.801546 0
M  V30 24 H 3.21736 0.13887 -1.36191 0
M  V30 25 H 3.1936 -1.3936 -0.418761 0
M  V30 26 H 2.60401 1.37088 0.757505 0
M  V30 27 H 2.69982 -0.196965 1.62166 0
M  V30 28 H 4.76814 1.12138 1.78996 0
M  V30 29 H 5.04232 -0.49421 0.934843 0
M  V30 30 H 5.54085 0.582532 -0.954965 0
M  V30 31 H 4.45671 1.89942 -0.634096 0
M  V30 32 H -1.1448 0.693562 0.0362107 0
M  V30 33 H -3.33464 -1.39457 -0.323106 0
M  V30 34 H -4.96958 0.0857603 0.555522 0
M  V30 35 H -3.66796 -0.297506 1.73398 0
M  V30 36 H -4.3043 3.38135 2.14706 0
M  V30 37 H -5.0531 1.09238 -2.50633 0
M  V30 END ATOM
M  V30 BEGIN BOND
M  V30 1 1 1 2
M  V30 2 1 1 3
M  V30 3 1 3 4
M  V30 4 1 4 5
M  V30 5 1 5 6
M  V30 6 1 6 7
M  V30 7 1 1 8
M  V30 8 2 8 9
M  V30 9 1 8 10
M  V30 10 1 10 11
M  V30 11 1 11 12
M  V30 12 1 12 13
M  V30 13 1 13 14
M  V30 14 2 13 15
M  V30 15 1 11 16
M  V30 16 1 16 17
M  V30 17 2 16 18
M  V30 18 1 1 19 CFG=1
M  V30 19 1 2 20
M  V30 20 1 2 21
M  V30 21 1 3 22
M  V30 22 1 3 23
M  V30 23 1 4 24
M  V30 24 1 4 25
M  V30 25 1 5 26
M  V30 26 1 5 27
M  V30 27 1 6 28
M  V30 28 1 6 29
M  V30 29 1 7 30
M  V30 30 1 7 31
M  V30 31 1 10 32
M  V30 32 1 11 33 CFG=3
M  V30 33 1 12 34
M  V30 34 1 12 35
M  V30 35 1 14 36
M  V30 36 1 17 37
M  V30 END BOND
M  V30 END CTAB
M  END
