
     RDKit          3D

  0  0  0  0  0  0  0  0  0  0999 V3000
M  V30 BEGIN CTAB
M  V30 COUNTS 32 33 0 0 0
M  V30 BEGIN ATOM
M  V30 1 N 5.16224 1.30001 -0.0970978 0
M  V30 2 C 3.96604 0.630078 0.249099 0
M  V30 3 C 2.79379 1.32635 0.162429 0
M  V30 4 C 1.56465 0.700167 0.498603 0
M  V30 5 O 0.412042 1.29364 0.443872 0
M  V30 6 C -0.878461 1.50125 0.523204 0
M  V30 7 C -1.71211 0.627984 -0.383219 0
M  V30 8 C -1.56677 -0.808257 -0.103393 0
M  V30 9 C -2.7835 -1.63521 -0.476029 0
M  V30 10 C -3.69902 -0.955117 -1.39327 0
M  V30 11 C -3.90221 0.36802 -1.37556 0
M  V30 12 C -3.13587 1.13295 -0.355803 0
M  V30 13 N 1.68259 -0.595175 0.893139 0
M  V30 14 C 2.80105 -1.2822 0.982981 0
M  V30 15 N 2.86802 -2.64511 1.40458 0
M  V30 16 N 3.94732 -0.65867 0.657015 0
M  V30 17 H 5.94458 0.755794 -0.498557 0
M  V30 18 H 5.2748 2.31753 0.0404029 0
M  V30 19 H 2.69508 2.35502 -0.150309 0
M  V30 20 H -1.2307 2.55749 0.270518 0
M  V30 21 H -1.28816 1.30008 1.58078 0
M  V30 22 H -1.34592 0.825608 -1.42387 0
M  V30 23 H -1.28213 -0.98303 0.959534 0
M  V30 24 H -0.748175 -1.22151 -0.726493 0
M  V30 25 H -3.32868 -1.84036 0.482217 0
M  V30 26 H -2.50668 -2.61204 -0.919989 0
M  V30 27 H -4.24616 -1.52519 -2.12451 0
M  V30 28 H -4.59293 0.823544 -2.07851 0
M  V30 29 H -3.09214 2.19241 -0.738334 0
M  V30 30 H -3.60613 1.08045 0.626599 0
M  V30 31 H 3.47921 -3.30246 0.865213 0
M  V30 32 H 2.35433 -3.02405 2.20476 0
M  V30 END ATOM
M  V30 BEGIN BOND
M  V30 1 1 1 2
M  V30 2 2 2 3
M  V30 3 1 3 4
M  V30 4 1 4 5
M  V30 5 1 5 6
M  V30 6 1 6 7
M  V30 7 1 7 8
M  V30 8 1 8 9
M  V30 9 1 9 10
M  V30 10 2 10 11
M  V30 11 1 11 12
M  V30 12 2 4 13
M  V30 13 1 13 14
M  V30 14 1 14 15
M  V30 15 2 14 16
M  V30 16 1 16 2
M  V30 17 1 12 7
M  V30 18 1 1 17
M  V30 19 1 1 18
M  V30 20 1 3 19
M  V30 21 1 6 20
M  V30 22 1 6 21
M  V30 23 1 7 22
M  V30 24 1 8 23
M  V30 25 1 8 24
M  V30 26 1 9 25
M  V30 27 1 9 26
M  V30 28 1 10 27
M  V30 29 1 11 28
M  V30 30 1 12 29
M  V30 31 1 12 30
M  V30 32 1 15 31
M  V30 33 1 15 32
M  V30 END BOND
M  V30 END CTAB
M  END
