
     RDKit          3D

  0  0  0  0  0  0  0  0  0  0999 V3000
M  V30 BEGIN CTAB
M  V30 COUNTS 45 45 0 0 0
M  V30 BEGIN ATOM
M  V30 1 C 0.719653 1.19165 -0.136569 0
M  V30 2 C 0.154715 0.464162 1.08069 0
M  V30 3 C -1.25718 0.774061 1.20895 0
M  V30 4 O -1.47852 1.61711 2.20708 0
M  V30 5 N -2.41339 0.414378 0.548798 0
M  V30 6 C -3.65545 1.0932 1.01562 0
M  V30 7 C -3.9356 0.712224 2.45122 0
M  V30 8 C -3.56038 2.57399 0.891731 0
M  V30 9 C -2.59717 -0.551477 -0.466702 0
M  V30 10 C -2.47893 -1.99926 -0.0167577 0
M  V30 11 C -1.84702 -0.385184 -1.75061 0
M  V30 12 S 0.621082 -1.24544 1.01661 0
M  V30 13 C 2.3493 -1.58748 1.22039 0
M  V30 14 C 3.23698 -1.1402 0.126387 0
M  V30 15 N 3.45824 -1.96833 -0.93194 0
M  V30 16 C 4.26712 -1.63541 -1.95329 0
M  V30 17 N 4.4702 -2.53489 -3.03739 0
M  V30 18 N 4.85995 -0.444683 -1.89977 0
M  V30 19 C 4.68537 0.428042 -0.878731 0
M  V30 20 N 3.85997 0.0434671 0.125715 0
M  V30 21 N 5.35546 1.68244 -0.897561 0
M  V30 22 H 1.03249 0.469366 -0.908579 0
M  V30 23 H 1.52921 1.91312 0.141327 0
M  V30 24 H -0.0689002 1.84249 -0.61233 0
M  V30 25 H 0.705914 0.980302 1.9475 0
M  V30 26 H -4.48667 0.717736 0.398561 0
M  V30 27 H -3.21111 -0.0189526 2.82348 0
M  V30 28 H -3.87206 1.61923 3.08595 0
M  V30 29 H -4.95607 0.299216 2.58585 0
M  V30 30 H -2.76758 2.94357 0.226292 0
M  V30 31 H -3.47341 3.02566 1.90707 0
M  V30 32 H -4.52384 2.95679 0.492365 0
M  V30 33 H -3.71379 -0.525933 -0.820574 0
M  V30 34 H -1.72047 -2.57858 -0.531007 0
M  V30 35 H -3.44977 -2.54881 -0.250634 0
M  V30 36 H -2.3646 -2.11836 1.07439 0
M  V30 37 H -0.870594 -0.930145 -1.77236 0
M  V30 38 H -1.72298 0.694497 -2.02462 0
M  V30 39 H -2.46047 -0.801358 -2.58468 0
M  V30 40 H 2.73774 -1.23098 2.21534 0
M  V30 41 H 2.46341 -2.71439 1.30032 0
M  V30 42 H 5.26584 -3.20445 -2.95364 0
M  V30 43 H 3.88503 -2.55595 -3.87818 0
M  V30 44 H 4.98541 2.51565 -1.41567 0
M  V30 45 H 6.24287 1.74792 -0.370045 0
M  V30 END ATOM
M  V30 BEGIN BOND
M  V30 1 1 1 2
M  V30 2 1 2 3
M  V30 3 2 3 4
M  V30 4 1 3 5
M  V30 5 1 5 6
M  V30 6 1 6 7
M  V30 7 1 6 8
M  V30 8 1 5 9
M  V30 9 1 9 10
M  V30 10 1 9 11
M  V30 11 1 2 12
M  V30 12 1 12 13
M  V30 13 1 13 14
M  V30 14 2 14 15
M  V30 15 1 15 16
M  V30 16 1 16 17
M  V30 17 2 16 18
M  V30 18 1 18 19
M  V30 19 2 19 20
M  V30 20 1 19 21
M  V30 21 1 20 14
M  V30 22 1 1 22
M  V30 23 1 1 23
M  V30 24 1 1 24
M  V30 25 1 2 25
M  V30 26 1 6 26
M  V30 27 1 7 27
M  V30 28 1 7 28
M  V30 29 1 7 29
M  V30 30 1 8 30
M  V30 31 1 8 31
M  V30 32 1 8 32
M  V30 33 1 9 33
M  V30 34 1 10 34
M  V30 35 1 10 35
M  V30 36 1 10 36
M  V30 37 1 11 37
M  V30 38 1 11 38
M  V30 39 1 11 39
M  V30 40 1 13 40
M  V30 41 1 13 41
M  V30 42 1 17 42
M  V30 43 1 17 43
M  V30 44 1 21 44
M  V30 45 1 21 45
M  V30 END BOND
M  V30 END CTAB
M  END
