
     RDKit          3D

  0  0  0  0  0  0  0  0  0  0999 V3000
M  V30 BEGIN CTAB
M  V30 COUNTS 30 30 0 0 0
M  V30 BEGIN ATOM
M  V30 1 O 1.86146 0.854615 -0.576458 0
M  V30 2 C 1.99378 -0.377058 -0.533889 0
M  V30 3 N 0.885246 -1.2418 -0.466337 0
M  V30 4 C -0.452382 -0.840843 -0.447935 0
M  V30 5 C -0.955955 0.376025 -0.833357 0
M  V30 6 C -2.33076 0.636596 -0.734892 0
M  V30 7 C -3.21961 -0.286359 -0.262261 0
M  V30 8 C -2.71776 -1.50984 0.125271 0
M  V30 9 C -1.38084 -1.77859 0.0358303 0
M  V30 10 S -4.92389 0.0798938 -0.166796 0
M  V30 11 O -5.74707 -1.16494 -0.331625 0
M  V30 12 O -5.33026 1.01958 -1.27825 0
M  V30 13 N -5.33714 0.817047 1.34002 0
M  V30 14 C 3.39309 -0.945404 -0.55666 0
M  V30 15 N 4.34375 0.144854 -0.611684 0
M  V30 16 C 4.56831 1.02193 0.47288 0
M  V30 17 S 3.76211 0.806975 1.86045 0
M  V30 18 N 5.50046 2.08012 0.374822 0
M  V30 19 H 1.11488 -2.29575 -0.433504 0
M  V30 20 H -0.3095 1.1402 -1.22642 0
M  V30 21 H -2.70383 1.60801 -1.04451 0
M  V30 22 H -3.45186 -2.22464 0.497721 0
M  V30 23 H -1.01807 -2.7488 0.350258 0
M  V30 24 H -6.34543 1.069 1.34906 0
M  V30 25 H -4.79076 1.70658 1.38286 0
M  V30 26 H 3.51705 -1.56293 0.361522 0
M  V30 27 H 3.46162 -1.5635 -1.45633 0
M  V30 28 H 4.89725 0.284895 -1.51953 0
M  V30 29 H 6.51102 1.82395 0.490849 0
M  V30 30 H 5.2051 3.07017 0.196688 0
M  V30 END ATOM
M  V30 BEGIN BOND
M  V30 1 2 1 2
M  V30 2 1 2 3
M  V30 3 1 3 4
M  V30 4 2 4 5
M  V30 5 1 5 6
M  V30 6 2 6 7
M  V30 7 1 7 8
M  V30 8 2 8 9
M  V30 9 1 7 10
M  V30 10 2 10 11
M  V30 11 2 10 12
M  V30 12 1 10 13
M  V30 13 1 2 14
M  V30 14 1 14 15
M  V30 15 1 15 16
M  V30 16 2 16 17
M  V30 17 1 16 18
M  V30 18 1 9 4
M  V30 19 1 3 19
M  V30 20 1 5 20
M  V30 21 1 6 21
M  V30 22 1 8 22
M  V30 23 1 9 23
M  V30 24 1 13 24
M  V30 25 1 13 25
M  V30 26 1 14 26
M  V30 27 1 14 27
M  V30 28 1 15 28
M  V30 29 1 18 29
M  V30 30 1 18 30
M  V30 END BOND
M  V30 END CTAB
M  END
