
     RDKit          3D

  0  0  0  0  0  0  0  0  0  0999 V3000
M  V30 BEGIN CTAB
M  V30 COUNTS 53 56 0 0 0
M  V30 BEGIN ATOM
M  V30 1 N 6.66343 3.33713 -0.0831661 0
M  V30 2 C 6.28618 2.00396 -0.341202 0
M  V30 3 C 5.8057 1.60503 -1.57578 0
M  V30 4 C 5.43933 0.298075 -1.81785 0
M  V30 5 C 5.566 -0.614369 -0.782687 0
M  V30 6 C 6.04299 -0.232154 0.452586 0
M  V30 7 C 6.40787 1.08323 0.684062 0
M  V30 8 S 5.12129 -2.27774 -1.02281 0
M  V30 9 O 5.36846 -2.69833 -2.43592 0
M  V30 10 O 5.94045 -3.1336 -0.0987169 0
M  V30 11 C 3.43019 -2.55676 -0.627349 0
M  V30 12 C 3.09813 -2.90596 0.650453 0
M  V30 13 C 1.75719 -3.13165 0.982209 0
M  V30 14 C 0.759133 -3.00996 0.0482933 0
M  V30 15 C 1.11593 -2.65812 -1.22941 0
M  V30 16 C 2.45175 -2.42964 -1.57476 0
M  V30 17 O -0.545768 -3.22876 0.36776 0
M  V30 18 C -1.42732 -2.2673 0.822135 0
M  V30 19 C -2.73189 -2.60047 1.11694 0
M  V30 20 C -3.63694 -1.63811 1.57811 0
M  V30 21 C -3.22227 -0.321705 1.74471 0
M  V30 22 C -1.91798 0.00888511 1.44943 0
M  V30 23 C -1.02554 -0.96058 0.990272 0
M  V30 24 S -4.3774 0.858621 2.32298 0
M  V30 25 O -5.37742 0.135327 3.18085 0
M  V30 26 O -3.73813 1.90935 3.16413 0
M  V30 27 C -5.17151 1.55609 0.916181 0
M  V30 28 C -6.32527 1.00391 0.39387 0
M  V30 29 C -6.94184 1.55692 -0.709569 0
M  V30 30 C -6.4391 2.67733 -1.33712 0
M  V30 31 C -5.28151 3.23053 -0.81228 0
M  V30 32 C -4.66517 2.6768 0.291657 0
M  V30 33 N -7.08219 3.24189 -2.47614 0
M  V30 34 H 7.65443 3.6357 -0.248129 0
M  V30 35 H 5.97016 4.04731 0.274027 0
M  V30 36 H 5.7114 2.33202 -2.37967 0
M  V30 37 H 5.06317 0.0143169 -2.8043 0
M  V30 38 H 6.12695 -0.971622 1.23264 0
M  V30 39 H 6.78439 1.37866 1.66348 0
M  V30 40 H 3.84937 -3.01122 1.40909 0
M  V30 41 H 1.55617 -3.40435 2.00565 0
M  V30 42 H 0.397872 -2.53931 -2.02869 0
M  V30 43 H 2.73023 -2.1562 -2.56724 0
M  V30 44 H -3.04609 -3.63019 0.98377 0
M  V30 45 H -4.6571 -1.89211 1.81005 0
M  V30 46 H -1.62192 1.03401 1.5867 0
M  V30 47 H -0.0121188 -0.7081 0.759897 0
M  V30 48 H -6.70582 0.124863 0.898964 0
M  V30 49 H -7.85717 1.08309 -1.0892 0
M  V30 50 H -4.90616 4.10698 -1.31962 0
M  V30 51 H -3.76376 3.12162 0.68669 0
M  V30 52 H -6.51563 3.47501 -3.318 0
M  V30 53 H -8.10517 3.44164 -2.52397 0
M  V30 END ATOM
M  V30 BEGIN BOND
M  V30 1 1 1 2
M  V30 2 2 2 3
M  V30 3 1 3 4
M  V30 4 2 4 5
M  V30 5 1 5 6
M  V30 6 2 6 7
M  V30 7 1 5 8
M  V30 8 2 8 9
M  V30 9 2 8 10
M  V30 10 1 8 11
M  V30 11 2 11 12
M  V30 12 1 12 13
M  V30 13 2 13 14
M  V30 14 1 14 15
M  V30 15 2 15 16
M  V30 16 1 14 17
M  V30 17 1 17 18
M  V30 18 2 18 19
M  V30 19 1 19 20
M  V30 20 2 20 21
M  V30 21 1 21 22
M  V30 22 2 22 23
M  V30 23 1 21 24
M  V30 24 2 24 25
M  V30 25 2 24 26
M  V30 26 1 24 27
M  V30 27 2 27 28
M  V30 28 1 28 29
M  V30 29 2 29 30
M  V30 30 1 30 31
M  V30 31 2 31 32
M  V30 32 1 30 33
M  V30 33 1 7 2
M  V30 34 1 16 11
M  V30 35 1 23 18
M  V30 36 1 32 27
M  V30 37 1 1 34
M  V30 38 1 1 35
M  V30 39 1 3 36
M  V30 40 1 4 37
M  V30 41 1 6 38
M  V30 42 1 7 39
M  V30 43 1 12 40
M  V30 44 1 13 41
M  V30 45 1 15 42
M  V30 46 1 16 43
M  V30 47 1 19 44
M  V30 48 1 20 45
M  V30 49 1 22 46
M  V30 50 1 23 47
M  V30 51 1 28 48
M  V30 52 1 29 49
M  V30 53 1 31 50
M  V30 54 1 32 51
M  V30 55 1 33 52
M  V30 56 1 33 53
M  V30 END BOND
M  V30 END CTAB
M  END
