
     RDKit          3D

  0  0  0  0  0  0  0  0  0  0999 V3000
M  V30 BEGIN CTAB
M  V30 COUNTS 48 53 0 0 0
M  V30 BEGIN ATOM
M  V30 1 N 1.80119 -4.52085 -0.16902 0
M  V30 2 C 1.23779 -3.21952 -0.113016 0
M  V30 3 C -0.111275 -2.98592 -0.0881622 0
M  V30 4 C -0.592684 -1.66737 -0.0319695 0
M  V30 5 C 0.264949 -0.591033 -0.00132335 0
M  V30 6 C 1.65655 -0.818357 -0.02805 0
M  V30 7 C 2.08646 -2.11425 -0.0812573 0
M  V30 8 C 2.49582 0.262012 0.00560098 0
M  V30 9 N 1.93498 1.5097 0.0665282 0
M  V30 10 C 0.628963 1.72964 0.0930924 0
M  V30 11 C -0.259997 0.681955 0.0600743 0
M  V30 12 C -1.63574 0.847974 0.0796443 0
M  V30 13 C -2.11821 2.12191 0.131309 0
M  V30 14 C -1.2585 3.21588 0.165903 0
M  V30 15 N -1.78943 4.52943 0.220323 0
M  V30 16 C 0.0907459 3.0152 0.14715 0
M  V30 17 C -2.49655 -0.221115 0.0481543 0
M  V30 18 N -1.90827 -1.44959 -0.0073423 0
M  V30 19 C -3.93906 -0.108157 0.0574656 0
M  V30 20 C -4.67936 0.562607 0.987758 0
M  V30 21 C -6.07561 0.636293 0.921715 0
M  V30 22 C -6.74879 0.0178551 -0.108714 0
M  V30 23 C -6.02691 -0.66526 -1.05948 0
M  V30 24 C -4.66155 -0.722316 -0.972346 0
M  V30 25 C 3.94169 0.115323 -0.00869096 0
M  V30 26 C 4.67236 -0.570538 -0.940739 0
M  V30 27 C 6.03576 -0.681427 -0.891822 0
M  V30 28 C 6.727 -0.0854847 0.129835 0
M  V30 29 C 6.03396 0.620773 1.09833 0
M  V30 30 C 4.66899 0.719421 1.0308 0
M  V30 31 H 1.97166 -4.94573 -1.10924 0
M  V30 32 H 2.05529 -5.07843 0.674597 0
M  V30 33 H -0.817866 -3.78923 -0.110609 0
M  V30 34 H 3.12878 -2.3284 -0.0795302 0
M  V30 35 H -3.16279 2.33934 0.127049 0
M  V30 36 H -2.81385 4.67987 0.118989 0
M  V30 37 H -1.15758 5.34195 0.361188 0
M  V30 38 H 0.786566 3.84342 0.173487 0
M  V30 39 H -4.17324 1.05013 1.81365 0
M  V30 40 H -6.63797 1.17499 1.67237 0
M  V30 41 H -7.8306 0.0503773 -0.197413 0
M  V30 42 H -6.55632 -1.15862 -1.88023 0
M  V30 43 H -4.10658 -1.25566 -1.71575 0
M  V30 44 H 4.15058 -1.04036 -1.75964 0
M  V30 45 H 6.61156 -1.23335 -1.64322 0
M  V30 46 H 7.80657 -0.182563 0.154409 0
M  V30 47 H 6.60893 1.09222 1.91077 0
M  V30 48 H 4.16157 1.27527 1.7991 0
M  V30 END ATOM
M  V30 BEGIN BOND
M  V30 1 1 1 2
M  V30 2 2 2 3
M  V30 3 1 3 4
M  V30 4 2 4 5
M  V30 5 1 5 6
M  V30 6 2 6 7
M  V30 7 1 6 8
M  V30 8 2 8 9
M  V30 9 1 9 10
M  V30 10 2 10 11
M  V30 11 1 11 12
M  V30 12 2 12 13
M  V30 13 1 13 14
M  V30 14 1 14 15
M  V30 15 2 14 16
M  V30 16 1 12 17
M  V30 17 2 17 18
M  V30 18 1 17 19
M  V30 19 2 19 20
M  V30 20 1 20 21
M  V30 21 2 21 22
M  V30 22 1 22 23
M  V30 23 2 23 24
M  V30 24 1 8 25
M  V30 25 2 25 26
M  V30 26 1 26 27
M  V30 27 2 27 28
M  V30 28 1 28 29
M  V30 29 2 29 30
M  V30 30 1 7 2
M  V30 31 1 16 10
M  V30 32 1 24 19
M  V30 33 1 30 25
M  V30 34 1 18 4
M  V30 35 1 11 5
M  V30 36 1 1 31
M  V30 37 1 1 32
M  V30 38 1 3 33
M  V30 39 1 7 34
M  V30 40 1 13 35
M  V30 41 1 15 36
M  V30 42 1 15 37
M  V30 43 1 16 38
M  V30 44 1 20 39
M  V30 45 1 21 40
M  V30 46 1 22 41
M  V30 47 1 23 42
M  V30 48 1 24 43
M  V30 49 1 26 44
M  V30 50 1 27 45
M  V30 51 1 28 46
M  V30 52 1 29 47
M  V30 53 1 30 48
M  V30 END BOND
M  V30 END CTAB
M  END
