
     RDKit          3D

  0  0  0  0  0  0  0  0  0  0999 V3000
M  V30 BEGIN CTAB
M  V30 COUNTS 38 40 0 0 0
M  V30 BEGIN ATOM
M  V30 1 C -3.22226 2.02976 1.5103 0
M  V30 2 C -3.92179 1.02129 0.651784 0
M  V30 3 C -5.24507 0.792742 0.800679 0
M  V30 4 C -5.85946 -0.27462 0.13615 0
M  V30 5 C -5.06715 -1.04988 -0.650359 0
M  V30 6 C -3.69307 -0.801184 -0.797535 0
M  V30 7 C -3.11388 0.248371 -0.144523 0
M  V30 8 C -1.72582 0.707169 -0.435214 0
M  V30 9 N -0.686889 -0.0487632 0.103258 0
M  V30 10 C 0.619419 -0.240944 -0.373635 0
M  V30 11 C 1.67553 0.0907393 0.481803 0
M  V30 12 C 2.95513 -0.187897 0.122421 0
M  V30 13 C 3.22453 -0.789049 -1.08242 0
M  V30 14 C 2.19383 -1.12555 -1.9629 0
M  V30 15 C 0.904161 -0.839124 -1.58009 0
M  V30 16 N 4.44616 -1.10497 -1.4483 0
M  V30 17 C 5.50351 -0.860973 -0.663546 0
M  V30 18 N 6.82665 -1.2631 -1.05369 0
M  V30 19 N 5.26722 -0.261955 0.544556 0
M  V30 20 C 4.03654 0.0741918 0.951509 0
M  V30 21 N 3.76988 0.703625 2.21299 0
M  V30 22 H -2.70225 1.36302 2.31413 0
M  V30 23 H -3.947 2.60533 2.1179 0
M  V30 24 H -2.51205 2.66544 1.02633 0
M  V30 25 H -5.90392 1.41283 1.42356 0
M  V30 26 H -6.94611 -0.469021 0.244459 0
M  V30 27 H -5.48833 -1.88421 -1.2002 0
M  V30 28 H -3.09449 -1.42775 -1.45528 0
M  V30 29 H -1.65332 0.505935 -1.60259 0
M  V30 30 H -1.60624 1.8132 -0.404878 0
M  V30 31 H -0.861225 -0.612783 1.02944 0
M  V30 32 H 1.49099 0.561966 1.40737 0
M  V30 33 H 2.39268 -1.59292 -2.91596 0
M  V30 34 H 0.0502715 -1.06721 -2.23281 0
M  V30 35 H 7.30791 -1.93495 -0.43494 0
M  V30 36 H 7.23187 -0.902981 -1.91853 0
M  V30 37 H 3.80997 0.152712 3.0671 0
M  V30 38 H 3.54406 1.70203 2.21165 0
M  V30 END ATOM
M  V30 BEGIN BOND
M  V30 1 1 1 2
M  V30 2 2 2 3
M  V30 3 1 3 4
M  V30 4 2 4 5
M  V30 5 1 5 6
M  V30 6 2 6 7
M  V30 7 1 7 8
M  V30 8 1 8 9
M  V30 9 1 9 10
M  V30 10 2 10 11
M  V30 11 1 11 12
M  V30 12 2 12 13
M  V30 13 1 13 14
M  V30 14 2 14 15
M  V30 15 1 13 16
M  V30 16 2 16 17
M  V30 17 1 17 18
M  V30 18 1 17 19
M  V30 19 2 19 20
M  V30 20 1 20 21
M  V30 21 1 7 2
M  V30 22 1 15 10
M  V30 23 1 20 12
M  V30 24 1 1 22
M  V30 25 1 1 23
M  V30 26 1 1 24
M  V30 27 1 3 25
M  V30 28 1 4 26
M  V30 29 1 5 27
M  V30 30 1 6 28
M  V30 31 1 8 29
M  V30 32 1 8 30
M  V30 33 1 9 31
M  V30 34 1 11 32
M  V30 35 1 14 33
M  V30 36 1 15 34
M  V30 37 1 18 35
M  V30 38 1 18 36
M  V30 39 1 21 37
M  V30 40 1 21 38
M  V30 END BOND
M  V30 END CTAB
M  END
