
     RDKit          3D

  0  0  0  0  0  0  0  0  0  0999 V3000
M  V30 BEGIN CTAB
M  V30 COUNTS 29 29 0 0 0
M  V30 BEGIN ATOM
M  V30 1 C -0.777956 1.50746 1.0341 0
M  V30 2 C -0.907851 0.351595 0.0479309 0
M  V30 3 C 0.374545 0.075396 -0.663132 0
M  V30 4 C 1.53169 -0.285827 0.185621 0
M  V30 5 C 2.7195 -0.51621 -0.728774 0
M  V30 6 N 3.84361 -0.868898 0.118937 0
M  V30 7 N -1.52025 -0.774979 0.69066 0
M  V30 8 C -1.00689 -1.63994 1.73024 0
M  V30 9 C -2.82917 -0.918649 0.0975657 0
M  V30 10 O -3.67028 -1.80712 0.40513 0
M  V30 11 N -2.99282 0.103432 -0.87625 0
M  V30 12 C -1.94036 0.841409 -0.939084 0
M  V30 13 N -1.7612 1.95422 -1.80264 0
M  V30 14 H -1.83785 1.78693 1.28008 0
M  V30 15 H -0.189496 1.25219 1.91325 0
M  V30 16 H -0.370208 2.36757 0.453088 0
M  V30 17 H 0.188122 -0.726026 -1.40613 0
M  V30 18 H 0.646173 1.02708 -1.2017 0
M  V30 19 H 1.4329 -1.13878 0.848849 0
M  V30 20 H 1.77807 0.597979 0.828873 0
M  V30 21 H 2.53397 -1.36795 -1.41294 0
M  V30 22 H 2.92881 0.361204 -1.36579 0
M  V30 23 H 3.48353 -1.31915 0.982159 0
M  V30 24 H 4.40632 -0.0356941 0.408566 0
M  V30 25 H -1.85321 -2.04684 2.32741 0
M  V30 26 H -0.480109 -2.51209 1.30949 0
M  V30 27 H -0.364539 -1.04619 2.4358 0
M  V30 28 H -1.36898 1.83933 -2.78112 0
M  V30 29 H -1.99605 2.93854 -1.54402 0
M  V30 END ATOM
M  V30 BEGIN BOND
M  V30 1 1 1 2
M  V30 2 1 2 3
M  V30 3 1 3 4
M  V30 4 1 4 5
M  V30 5 1 5 6
M  V30 6 1 2 7
M  V30 7 1 7 8
M  V30 8 1 7 9
M  V30 9 2 9 10
M  V30 10 1 9 11
M  V30 11 2 11 12
M  V30 12 1 12 13
M  V30 13 1 12 2
M  V30 14 1 1 14
M  V30 15 1 1 15
M  V30 16 1 1 16
M  V30 17 1 3 17
M  V30 18 1 3 18
M  V30 19 1 4 19
M  V30 20 1 4 20
M  V30 21 1 5 21
M  V30 22 1 5 22
M  V30 23 1 6 23
M  V30 24 1 6 24
M  V30 25 1 8 25
M  V30 26 1 8 26
M  V30 27 1 8 27
M  V30 28 1 13 28
M  V30 29 1 13 29
M  V30 END BOND
M  V30 END CTAB
M  END
