
     RDKit          3D

  0  0  0  0  0  0  0  0  0  0999 V3000
M  V30 BEGIN CTAB
M  V30 COUNTS 51 55 0 0 0
M  V30 BEGIN ATOM
M  V30 1 O 2.85029 -1.42906 -1.23762 0
M  V30 2 C 2.61058 -0.243146 -0.834209 0
M  V30 3 C 1.23233 0.0649589 -0.510585 0
M  V30 4 C 0.143222 -0.790386 -0.591784 0
M  V30 5 N 0.237311 -2.14136 -1.02174 0
M  V30 6 N -0.984265 -0.182996 -0.218021 0
M  V30 7 C -0.63222 1.06873 0.107305 0
M  V30 8 C 0.735634 1.26167 -0.060989 0
M  V30 9 N 1.30339 2.44633 0.207907 0
M  V30 10 C 0.56543 3.46417 0.642775 0
M  V30 11 C 1.1155 4.70653 0.932294 0
M  V30 12 C 0.340553 5.74611 1.37997 0
M  V30 13 C -1.01382 5.58452 1.55564 0
M  V30 14 C -1.57935 4.36966 1.27712 0
M  V30 15 C -0.786904 3.31993 0.823422 0
M  V30 16 N -1.33743 2.12821 0.549496 0
M  V30 17 C -2.28988 -0.764217 -0.179161 0
M  V30 18 C -3.38328 -0.183386 -0.789821 0
M  V30 19 C -4.63764 -0.772266 -0.73415 0
M  V30 20 C -4.8201 -1.95515 -0.0650079 0
M  V30 21 C -3.74635 -2.56008 0.555483 0
M  V30 22 C -2.51075 -1.95421 0.485108 0
M  V30 23 S -6.39825 -2.7452 0.0346343 0
M  V30 24 O -7.48724 -1.71286 -0.0107413 0
M  V30 25 O -6.47743 -3.52359 1.31633 0
M  V30 26 N -6.61855 -3.83124 -1.28264 0
M  V30 27 N 3.70286 0.638701 -0.745486 0
M  V30 28 C 5.04173 0.194192 -1.1018 0
M  V30 29 C 5.48663 -0.911839 -0.244725 0
M  V30 30 C 6.65361 -1.62908 -0.424111 0
M  V30 31 C 6.69177 -2.56466 0.585022 0
M  V30 32 C 5.54718 -2.36709 1.32395 0
M  V30 33 O 4.8541 -1.38749 0.814429 0
M  V30 34 H 0.203211 -2.41943 -2.01385 0
M  V30 35 H 0.34497 -2.87092 -0.293154 0
M  V30 36 H 2.1844 4.81416 0.787553 0
M  V30 37 H 0.825274 6.6881 1.58824 0
M  V30 38 H -1.56463 6.443 1.9105 0
M  V30 39 H -2.64107 4.24248 1.41467 0
M  V30 40 H -3.26526 0.737802 -1.31666 0
M  V30 41 H -5.48426 -0.323542 -1.20637 0
M  V30 42 H -3.89831 -3.50918 1.09105 0
M  V30 43 H -1.69533 -2.44124 0.972976 0
M  V30 44 H -7.63461 -4.06214 -1.34721 0
M  V30 45 H -6.32226 -3.42793 -2.19009 0
M  V30 46 H 3.55108 1.6164 -0.422413 0
M  V30 47 H 5.73219 1.03532 -0.969574 0
M  V30 48 H 5.07503 -0.0750917 -2.18492 0
M  V30 49 H 7.41284 -1.52635 -1.17442 0
M  V30 50 H 7.47847 -3.31393 0.759806 0
M  V30 51 H 5.28962 -2.95193 2.1905 0
M  V30 END ATOM
M  V30 BEGIN BOND
M  V30 1 2 1 2
M  V30 2 1 2 3
M  V30 3 2 3 4
M  V30 4 1 4 5
M  V30 5 1 4 6
M  V30 6 1 6 7
M  V30 7 2 7 8
M  V30 8 1 8 9
M  V30 9 2 9 10
M  V30 10 1 10 11
M  V30 11 2 11 12
M  V30 12 1 12 13
M  V30 13 2 13 14
M  V30 14 1 14 15
M  V30 15 2 15 16
M  V30 16 1 6 17
M  V30 17 2 17 18
M  V30 18 1 18 19
M  V30 19 2 19 20
M  V30 20 1 20 21
M  V30 21 2 21 22
M  V30 22 1 20 23
M  V30 23 2 23 24
M  V30 24 2 23 25
M  V30 25 1 23 26
M  V30 26 1 2 27
M  V30 27 1 27 28
M  V30 28 1 28 29
M  V30 29 2 29 30
M  V30 30 1 30 31
M  V30 31 2 31 32
M  V30 32 1 32 33
M  V30 33 1 8 3
M  V30 34 1 15 10
M  V30 35 1 22 17
M  V30 36 1 33 29
M  V30 37 1 16 7
M  V30 38 1 5 34
M  V30 39 1 5 35
M  V30 40 1 11 36
M  V30 41 1 12 37
M  V30 42 1 13 38
M  V30 43 1 14 39
M  V30 44 1 18 40
M  V30 45 1 19 41
M  V30 46 1 21 42
M  V30 47 1 22 43
M  V30 48 1 26 44
M  V30 49 1 26 45
M  V30 50 1 27 46
M  V30 51 1 28 47
M  V30 52 1 28 48
M  V30 53 1 30 49
M  V30 54 1 31 50
M  V30 55 1 32 51
M  V30 END BOND
M  V30 END CTAB
M  END
