
     RDKit          3D

  0  0  0  0  0  0  0  0  0  0999 V3000
M  V30 BEGIN CTAB
M  V30 COUNTS 25 26 0 0 0
M  V30 BEGIN ATOM
M  V30 1 N 3.01455 -1.05829 1.2625 0
M  V30 2 C 2.75912 -0.127351 0.211275 0
M  V30 3 C 1.31867 0.0594473 -0.0708094 0
M  V30 4 C 0.37709 -0.632701 0.652748 0
M  V30 5 C -0.97057 -0.406847 0.331861 0
M  V30 6 C -2.18834 -1.02878 0.973811 0
M  V30 7 C -3.25728 0.000325976 0.582096 0
M  V30 8 C -2.81486 0.487066 -0.769869 0
M  V30 9 C -1.33536 0.460679 -0.654567 0
M  V30 10 N -0.365571 1.13675 -1.35857 0
M  V30 11 C 0.929092 0.932612 -1.06442 0
M  V30 12 N 1.98149 1.60956 -1.7651 0
M  V30 13 H 3.0848 -2.01857 0.863359 0
M  V30 14 H 3.81233 -0.759194 1.8252 0
M  V30 15 H 3.24941 -0.452575 -0.752878 0
M  V30 16 H 3.25716 0.836744 0.462598 0
M  V30 17 H 0.653519 -1.3128 1.42527 0
M  V30 18 H -2.11627 -1.02758 2.06899 0
M  V30 19 H -2.39202 -2.0178 0.569573 0
M  V30 20 H -4.25455 -0.44746 0.545247 0
M  V30 21 H -3.22729 0.84811 1.27443 0
M  V30 22 H -3.07709 -0.301134 -1.52434 0
M  V30 23 H -3.21133 1.47866 -1.02969 0
M  V30 24 H 2.71577 2.14659 -1.25368 0
M  V30 25 H 2.05756 1.59452 -2.80504 0
M  V30 END ATOM
M  V30 BEGIN BOND
M  V30 1 1 1 2
M  V30 2 1 2 3
M  V30 3 2 3 4
M  V30 4 1 4 5
M  V30 5 1 5 6
M  V30 6 1 6 7
M  V30 7 1 7 8
M  V30 8 1 8 9
M  V30 9 1 9 10
M  V30 10 2 10 11
M  V30 11 1 11 12
M  V30 12 1 11 3
M  V30 13 2 9 5
M  V30 14 1 1 13
M  V30 15 1 1 14
M  V30 16 1 2 15
M  V30 17 1 2 16
M  V30 18 1 4 17
M  V30 19 1 6 18
M  V30 20 1 6 19
M  V30 21 1 7 20
M  V30 22 1 7 21
M  V30 23 1 8 22
M  V30 24 1 8 23
M  V30 25 1 12 24
M  V30 26 1 12 25
M  V30 END BOND
M  V30 END CTAB
M  END
