
     RDKit          3D

  0  0  0  0  0  0  0  0  0  0999 V3000
M  V30 BEGIN CTAB
M  V30 COUNTS 36 38 0 0 0
M  V30 BEGIN ATOM
M  V30 1 N -6.0178 1.69257 0.33747 0
M  V30 2 C -4.64105 1.38668 0.392184 0
M  V30 3 C -4.14482 0.112203 0.313333 0
M  V30 4 N -5.051 -0.87779 0.176502 0
M  V30 5 C -4.62981 -2.13127 0.0950545 0
M  V30 6 C -3.27804 -2.39486 0.151855 0
M  V30 7 C -2.32603 -1.38716 0.29286 0
M  V30 8 C -2.80177 -0.103569 0.373665 0
M  V30 9 C -1.933 0.951398 0.513816 0
M  V30 10 C -2.42487 2.23062 0.593325 0
M  V30 11 C -3.77617 2.45047 0.532858 0
M  V30 12 N -0.516977 0.745337 0.579153 0
M  V30 13 N 0.196267 0.448338 -0.400533 0
M  V30 14 C 1.59481 0.240837 -0.356863 0
M  V30 15 C 2.40756 0.824108 -1.29982 0
M  V30 16 C 3.79386 0.632273 -1.27561 0
M  V30 17 C 4.33565 -0.157591 -0.282661 0
M  V30 18 C 3.53731 -0.752067 0.673218 0
M  V30 19 C 2.15555 -0.541391 0.62231 0
M  V30 20 S 6.08429 -0.379384 -0.279897 0
M  V30 21 N 6.55219 -1.74233 -1.21158 0
M  V30 22 O 6.57563 -0.618561 1.13761 0
M  V30 23 O 6.75361 0.873361 -0.76551 0
M  V30 24 H -6.66848 1.30088 1.03511 0
M  V30 25 H -6.37744 2.31198 -0.404685 0
M  V30 26 H -5.31286 -2.98579 -0.0172539 0
M  V30 27 H -2.92842 -3.41927 0.085612 0
M  V30 28 H -1.27772 -1.55658 0.339882 0
M  V30 29 H -1.76307 3.06603 0.70278 0
M  V30 30 H -4.16269 3.45679 0.595433 0
M  V30 31 H 1.99709 1.45004 -2.08994 0
M  V30 32 H 4.45018 1.08168 -2.00738 0
M  V30 33 H 3.99854 -1.36443 1.4359 0
M  V30 34 H 1.53293 -1.00839 1.37243 0
M  V30 35 H 7.26194 -2.33902 -0.745454 0
M  V30 36 H 6.8046 -1.49614 -2.19239 0
M  V30 END ATOM
M  V30 BEGIN BOND
M  V30 1 1 1 2
M  V30 2 2 2 3
M  V30 3 1 3 4
M  V30 4 2 4 5
M  V30 5 1 5 6
M  V30 6 2 6 7
M  V30 7 1 7 8
M  V30 8 2 8 9
M  V30 9 1 9 10
M  V30 10 2 10 11
M  V30 11 1 9 12
M  V30 12 2 12 13
M  V30 13 1 13 14
M  V30 14 2 14 15
M  V30 15 1 15 16
M  V30 16 2 16 17
M  V30 17 1 17 18
M  V30 18 2 18 19
M  V30 19 1 17 20
M  V30 20 1 20 21
M  V30 21 2 20 22
M  V30 22 2 20 23
M  V30 23 1 11 2
M  V30 24 1 19 14
M  V30 25 1 8 3
M  V30 26 1 1 24
M  V30 27 1 1 25
M  V30 28 1 5 26
M  V30 29 1 6 27
M  V30 30 1 7 28
M  V30 31 1 10 29
M  V30 32 1 11 30
M  V30 33 1 15 31
M  V30 34 1 16 32
M  V30 35 1 18 33
M  V30 36 1 19 34
M  V30 37 1 21 35
M  V30 38 1 21 36
M  V30 END BOND
M  V30 END CTAB
M  END
