
     RDKit          3D

  0  0  0  0  0  0  0  0  0  0999 V3000
M  V30 BEGIN CTAB
M  V30 COUNTS 25 25 0 0 0
M  V30 BEGIN ATOM
M  V30 1 C 4.84005 -0.691514 0.383143 0
M  V30 2 C 4.15662 0.303842 0.366073 0
M  V30 3 C 3.33907 1.52128 0.358122 0
M  V30 4 N 1.92301 1.19475 0.494723 0
M  V30 5 C 1.26879 0.383709 -0.447399 0
M  V30 6 O 1.91632 -0.0658706 -1.42178 0
M  V30 7 C -0.128983 0.0578363 -0.317959 0
M  V30 8 C -0.726032 -0.741848 -1.26714 0
M  V30 9 C -2.04639 -1.10058 -1.22234 0
M  V30 10 N -2.61262 -1.9426 -2.24969 0
M  V30 11 C -2.83498 -0.660885 -0.2011 0
M  V30 12 C -2.26879 0.140927 0.765121 0
M  V30 13 C -0.922951 0.50335 0.714553 0
M  V30 14 N -3.04207 0.620148 1.83955 0
M  V30 15 H 5.45101 -1.55924 0.401126 0
M  V30 16 H 3.44633 2.05532 -0.63115 0
M  V30 17 H 3.6713 2.24003 1.11678 0
M  V30 18 H 1.39951 1.57244 1.30412 0
M  V30 19 H -0.14383 -1.12254 -2.1064 0
M  V30 20 H -3.1893 -2.75917 -2.00056 0
M  V30 21 H -2.44295 -1.73158 -3.24772 0
M  V30 22 H -3.89022 -0.95218 -0.172311 0
M  V30 23 H -0.534176 1.13301 1.49832 0
M  V30 24 H -4.04139 0.863069 1.75797 0
M  V30 25 H -2.58733 0.738304 2.76995 0
M  V30 END ATOM
M  V30 BEGIN BOND
M  V30 1 3 1 2
M  V30 2 1 2 3
M  V30 3 1 3 4
M  V30 4 1 4 5
M  V30 5 2 5 6
M  V30 6 1 5 7
M  V30 7 2 7 8
M  V30 8 1 8 9
M  V30 9 1 9 10
M  V30 10 2 9 11
M  V30 11 1 11 12
M  V30 12 2 12 13
M  V30 13 1 12 14
M  V30 14 1 13 7
M  V30 15 1 1 15
M  V30 16 1 3 16
M  V30 17 1 3 17
M  V30 18 1 4 18
M  V30 19 1 8 19
M  V30 20 1 10 20
M  V30 21 1 10 21
M  V30 22 1 11 22
M  V30 23 1 13 23
M  V30 24 1 14 24
M  V30 25 1 14 25
M  V30 END BOND
M  V30 END CTAB
M  END
