
     RDKit          3D

  0  0  0  0  0  0  0  0  0  0999 V3000
M  V30 BEGIN CTAB
M  V30 COUNTS 52 56 0 0 0
M  V30 BEGIN ATOM
M  V30 1 N 9.03676 2.2714 0.331028 0
M  V30 2 C 7.88444 1.43608 0.431303 0
M  V30 3 C 7.17566 1.07465 -0.693892 0
M  V30 4 C 6.06949 0.271611 -0.597457 0
M  V30 5 C 5.63988 -0.192481 0.622841 0
M  V30 6 C 6.32602 0.150673 1.76269 0
M  V30 7 C 7.4354 0.959402 1.64066 0
M  V30 8 N 4.48293 -1.01883 0.636743 0
M  V30 9 N 3.33584 -0.600137 0.94175 0
M  V30 10 C 2.258 -1.52485 0.916092 0
M  V30 11 C 2.33072 -2.77433 1.48548 0
M  V30 12 C 1.2694 -3.66643 1.44861 0
M  V30 13 C 0.118996 -3.23752 0.80489 0
M  V30 14 C 0.0181175 -1.98712 0.223862 0
M  V30 15 C 1.09114 -1.12281 0.27772 0
M  V30 16 C 1.00498 0.210943 -0.334604 0
M  V30 17 O 1.99916 0.963573 -0.263399 0
M  V30 18 C -0.224584 0.609054 -0.998219 0
M  V30 19 C -0.310899 1.87563 -1.58529 0
M  V30 20 C -1.45011 2.29849 -2.22783 0
M  V30 21 C -2.52332 1.43887 -2.28361 0
M  V30 22 C -2.4993 0.171467 -1.72064 0
M  V30 23 N -3.58064 -0.686441 -1.78589 0
M  V30 24 N -4.65299 -0.917807 -1.38963 0
M  V30 25 C -5.62174 -0.429627 -0.512918 0
M  V30 26 C -6.68212 0.333889 -0.966485 0
M  V30 27 C -7.66373 0.836903 -0.132268 0
M  V30 28 C -7.61842 0.587025 1.22741 0
M  V30 29 N -8.62028 1.10029 2.08672 0
M  V30 30 C -6.57051 -0.17069 1.70105 0
M  V30 31 C -5.59203 -0.671879 0.865259 0
M  V30 32 C -1.32219 -0.213957 -1.07971 0
M  V30 33 C -1.18793 -1.53403 -0.454447 0
M  V30 34 O -2.15307 -2.32405 -0.497376 0
M  V30 35 H 9.57956 2.25933 -0.557758 0
M  V30 36 H 9.27629 2.85586 1.16079 0
M  V30 37 H 7.51363 1.43777 -1.64679 0
M  V30 38 H 5.52268 -0.00222598 -1.50609 0
M  V30 39 H 5.99359 -0.212527 2.72652 0
M  V30 40 H 7.97281 1.22819 2.54014 0
M  V30 41 H 3.25233 -3.05064 1.97156 0
M  V30 42 H 1.34971 -4.64538 1.90368 0
M  V30 43 H -0.733189 -3.89545 0.750962 0
M  V30 44 H 0.52548 2.5559 -1.54741 0
M  V30 45 H -1.54465 3.28535 -2.69575 0
M  V30 46 H -3.43203 1.77129 -2.79471 0
M  V30 47 H -6.70062 0.522117 -2.05191 0
M  V30 48 H -8.47983 1.43036 -0.521106 0
M  V30 49 H -9.23065 1.8927 1.81657 0
M  V30 50 H -8.76903 0.686351 3.02182 0
M  V30 51 H -6.53523 -0.367353 2.77295 0
M  V30 52 H -4.76389 -1.26858 1.22622 0
M  V30 END ATOM
M  V30 BEGIN BOND
M  V30 1 1 1 2
M  V30 2 2 2 3
M  V30 3 1 3 4
M  V30 4 2 4 5
M  V30 5 1 5 6
M  V30 6 2 6 7
M  V30 7 1 5 8
M  V30 8 2 8 9
M  V30 9 1 9 10
M  V30 10 2 10 11
M  V30 11 1 11 12
M  V30 12 2 12 13
M  V30 13 1 13 14
M  V30 14 2 14 15
M  V30 15 1 15 16
M  V30 16 2 16 17
M  V30 17 1 16 18
M  V30 18 2 18 19
M  V30 19 1 19 20
M  V30 20 2 20 21
M  V30 21 1 21 22
M  V30 22 1 22 23
M  V30 23 2 23 24
M  V30 24 1 24 25
M  V30 25 2 25 26
M  V30 26 1 26 27
M  V30 27 2 27 28
M  V30 28 1 28 29
M  V30 29 1 28 30
M  V30 30 2 30 31
M  V30 31 2 22 32
M  V30 32 1 32 33
M  V30 33 2 33 34
M  V30 34 1 7 2
M  V30 35 1 15 10
M  V30 36 1 32 18
M  V30 37 1 33 14
M  V30 38 1 31 25
M  V30 39 1 1 35
M  V30 40 1 1 36
M  V30 41 1 3 37
M  V30 42 1 4 38
M  V30 43 1 6 39
M  V30 44 1 7 40
M  V30 45 1 11 41
M  V30 46 1 12 42
M  V30 47 1 13 43
M  V30 48 1 19 44
M  V30 49 1 20 45
M  V30 50 1 21 46
M  V30 51 1 26 47
M  V30 52 1 27 48
M  V30 53 1 29 49
M  V30 54 1 29 50
M  V30 55 1 30 51
M  V30 56 1 31 52
M  V30 END BOND
M  V30 END CTAB
M  END
