
     RDKit          3D

  0  0  0  0  0  0  0  0  0  0999 V3000
M  V30 BEGIN CTAB
M  V30 COUNTS 45 46 0 0 0
M  V30 BEGIN ATOM
M  V30 1 N -4.2638 1.4928 0.126322 0
M  V30 2 C -4.19572 0.136852 0.659608 0
M  V30 3 C -5.00431 -0.806922 -0.16576 0
M  V30 4 C -4.38199 -1.19316 -1.46443 0
M  V30 5 C -2.95309 -1.65179 -1.21674 0
M  V30 6 C -2.21123 -0.480706 -0.629156 0
M  V30 7 C -2.74179 -0.226647 0.759346 0
M  V30 8 C -0.729003 -0.693021 -0.613239 0
M  V30 9 O -0.346672 -1.78675 -1.08029 0
M  V30 10 N 0.090447 0.309386 -0.0966402 0
M  V30 11 C 1.49036 0.353811 0.0294585 0
M  V30 12 C 2.3059 -0.685288 -0.379661 0
M  V30 13 C 3.69754 -0.614727 -0.242295 0
M  V30 14 C 4.22537 0.522907 0.313217 0
M  V30 15 C 3.44104 1.57832 0.732093 0
M  V30 16 C 2.09021 1.48535 0.58766 0
M  V30 17 C 1.238 2.59029 1.02377 0
M  V30 18 C 4.01257 2.80427 1.33093 0
M  V30 19 S 4.72882 -1.93291 -0.761542 0
M  V30 20 O 6.02805 -1.44053 -1.2808 0
M  V30 21 O 4.02544 -2.67085 -1.86387 0
M  V30 22 N 4.97931 -3.06303 0.5294 0
M  V30 23 H -4.89462 2.05733 0.729199 0
M  V30 24 H -4.52976 1.51122 -0.881022 0
M  V30 25 H -4.63654 0.12834 1.69526 0
M  V30 26 H -5.98989 -0.300245 -0.37028 0
M  V30 27 H -5.22994 -1.73547 0.411295 0
M  V30 28 H -4.32862 -0.35445 -2.17479 0
M  V30 29 H -4.97743 -2.01596 -1.9009 0
M  V30 30 H -2.49601 -1.98032 -2.17701 0
M  V30 31 H -2.94802 -2.54016 -0.552614 0
M  V30 32 H -2.44467 0.41039 -1.24767 0
M  V30 33 H -2.54927 -1.09511 1.4241 0
M  V30 34 H -2.21803 0.678041 1.17816 0
M  V30 35 H -0.426693 1.1805 0.259316 0
M  V30 36 H 1.92255 -1.59861 -0.822561 0
M  V30 37 H 5.29337 0.580244 0.420082 0
M  V30 38 H 0.516699 2.26418 1.81588 0
M  V30 39 H 1.77131 3.45905 1.40817 0
M  V30 40 H 0.607383 2.93667 0.179142 0
M  V30 41 H 3.75831 3.72268 0.72827 0
M  V30 42 H 3.77932 2.94025 2.38694 0
M  V30 43 H 5.12264 2.71891 1.24916 0
M  V30 44 H 4.26519 -2.96412 1.27596 0
M  V30 45 H 5.10725 -4.03099 0.187854 0
M  V30 END ATOM
M  V30 BEGIN BOND
M  V30 1 1 1 2
M  V30 2 1 2 3
M  V30 3 1 3 4
M  V30 4 1 4 5
M  V30 5 1 5 6
M  V30 6 1 6 7
M  V30 7 1 6 8
M  V30 8 2 8 9
M  V30 9 1 8 10
M  V30 10 1 10 11
M  V30 11 2 11 12
M  V30 12 1 12 13
M  V30 13 2 13 14
M  V30 14 1 14 15
M  V30 15 2 15 16
M  V30 16 1 16 17
M  V30 17 1 15 18
M  V30 18 1 13 19
M  V30 19 2 19 20
M  V30 20 2 19 21
M  V30 21 1 19 22
M  V30 22 1 7 2
M  V30 23 1 16 11
M  V30 24 1 1 23
M  V30 25 1 1 24
M  V30 26 1 2 25
M  V30 27 1 3 26
M  V30 28 1 3 27
M  V30 29 1 4 28
M  V30 30 1 4 29
M  V30 31 1 5 30
M  V30 32 1 5 31
M  V30 33 1 6 32
M  V30 34 1 7 33
M  V30 35 1 7 34
M  V30 36 1 10 35
M  V30 37 1 12 36
M  V30 38 1 14 37
M  V30 39 1 17 38
M  V30 40 1 17 39
M  V30 41 1 17 40
M  V30 42 1 18 41
M  V30 43 1 18 42
M  V30 44 1 18 43
M  V30 45 1 22 44
M  V30 46 1 22 45
M  V30 END BOND
M  V30 END CTAB
M  END
