
     RDKit          3D

  0  0  0  0  0  0  0  0  0  0999 V3000
M  V30 BEGIN CTAB
M  V30 COUNTS 35 35 0 0 0
M  V30 BEGIN ATOM
M  V30 1 O -1.45777 -1.76658 0.0832396 0
M  V30 2 C -1.99558 -0.784441 -0.508319 0
M  V30 3 C -3.35586 -0.399923 -0.0271895 0
M  V30 4 N -3.80169 0.716721 -0.814196 0
M  V30 5 C -3.28507 0.0553973 1.43418 0
M  V30 6 C -4.28543 -1.57673 -0.0765975 0
M  V30 7 N -1.35149 -0.0888193 -1.56288 0
M  V30 8 C -0.0546857 -0.443402 -2.03347 0
M  V30 9 C 1.05313 -0.0228458 -1.15593 0
M  V30 10 C 2.34071 -0.313911 -1.55701 0
M  V30 11 C 3.43639 0.0432441 -0.794954 0
M  V30 12 C 3.28742 0.70778 0.402389 0
M  V30 13 C 1.99615 0.997991 0.801353 0
M  V30 14 C 0.901971 0.637781 0.0338249 0
M  V30 15 S 4.68466 1.15999 1.36879 0
M  V30 16 O 5.8873 1.4298 0.499002 0
M  V30 17 O 4.34291 2.3867 2.15762 0
M  V30 18 N 5.09532 -0.104528 2.48383 0
M  V30 19 H -4.40979 0.444788 -1.60914 0
M  V30 20 H -4.16517 1.51345 -0.265961 0
M  V30 21 H -2.42903 -0.431796 1.95956 0
M  V30 22 H -3.08238 1.1529 1.43595 0
M  V30 23 H -4.20507 -0.21373 1.97561 0
M  V30 24 H -4.31942 -2.13963 0.884498 0
M  V30 25 H -5.29688 -1.19589 -0.323961 0
M  V30 26 H -3.89231 -2.28006 -0.837544 0
M  V30 27 H -1.85803 0.707425 -1.99817 0
M  V30 28 H 0.163383 -0.0464726 -3.05634 0
M  V30 29 H 0.053168 -1.56126 -2.14794 0
M  V30 30 H 2.4965 -0.839659 -2.50091 0
M  V30 31 H 4.4424 -0.189001 -1.11732 0
M  V30 32 H 1.89139 1.52186 1.74689 0
M  V30 33 H -0.0966238 0.880844 0.375895 0
M  V30 34 H 5.18914 -1.00429 1.9283 0
M  V30 35 H 6.08035 0.120189 2.8169 0
M  V30 END ATOM
M  V30 BEGIN BOND
M  V30 1 2 1 2
M  V30 2 1 2 3
M  V30 3 1 3 4
M  V30 4 1 3 5
M  V30 5 1 3 6
M  V30 6 1 2 7
M  V30 7 1 7 8
M  V30 8 1 8 9
M  V30 9 2 9 10
M  V30 10 1 10 11
M  V30 11 2 11 12
M  V30 12 1 12 13
M  V30 13 2 13 14
M  V30 14 1 12 15
M  V30 15 2 15 16
M  V30 16 2 15 17
M  V30 17 1 15 18
M  V30 18 1 14 9
M  V30 19 1 4 19
M  V30 20 1 4 20
M  V30 21 1 5 21
M  V30 22 1 5 22
M  V30 23 1 5 23
M  V30 24 1 6 24
M  V30 25 1 6 25
M  V30 26 1 6 26
M  V30 27 1 7 27
M  V30 28 1 8 28
M  V30 29 1 8 29
M  V30 30 1 10 30
M  V30 31 1 11 31
M  V30 32 1 13 32
M  V30 33 1 14 33
M  V30 34 1 18 34
M  V30 35 1 18 35
M  V30 END BOND
M  V30 END CTAB
M  END
