
     RDKit          3D

  0  0  0  0  0  0  0  0  0  0999 V3000
M  V30 BEGIN CTAB
M  V30 COUNTS 35 37 0 0 0
M  V30 BEGIN ATOM
M  V30 1 N -0.733946 -1.54227 -2.52443 0
M  V30 2 C 0.201416 -0.942873 -1.63419 0
M  V30 3 N 1.52517 -1.07483 -1.59316 0
M  V30 4 N 2.05067 -0.346708 -0.606377 0
M  V30 5 C 1.04908 0.267441 0.00208203 0
M  V30 6 N 1.13942 1.1439 1.10589 0
M  V30 7 C -0.127474 -0.0793838 -0.611468 0
M  V30 8 N -1.43883 0.356845 -0.272222 0
M  V30 9 N -2.3823 -0.415975 0.0289628 0
M  V30 10 C -3.68391 0.0479694 0.364062 0
M  V30 11 C -4.66222 0.323909 -0.56441 0
M  V30 12 C -5.92496 0.773333 -0.250085 0
M  V30 13 C -6.21556 0.955978 1.10734 0
M  V30 14 C -5.24529 0.683592 2.04908 0
M  V30 15 C -3.97607 0.230723 1.71461 0
M  V30 16 C 3.43447 -0.299732 -0.333538 0
M  V30 17 C 4.18981 -1.46628 -0.425266 0
M  V30 18 C 5.5435 -1.42711 -0.159722 0
M  V30 19 C 6.18848 -0.253307 0.199978 0
M  V30 20 C 5.40054 0.876489 0.278081 0
M  V30 21 C 4.04612 0.874535 0.0199135 0
M  V30 22 H -0.794395 -2.57367 -2.67591 0
M  V30 23 H -1.39496 -0.939539 -3.05642 0
M  V30 24 H 1.05199 0.714341 2.06447 0
M  V30 25 H 1.28222 2.16001 1.06249 0
M  V30 26 H -4.41973 0.177141 -1.60566 0
M  V30 27 H -6.66685 0.978924 -1.01364 0
M  V30 28 H -7.19592 1.3091 1.41963 0
M  V30 29 H -5.47134 0.825499 3.10225 0
M  V30 30 H -3.22351 0.0211642 2.47279 0
M  V30 31 H 3.73487 -2.41408 -0.703173 0
M  V30 32 H 6.17445 -2.31722 -0.219318 0
M  V30 33 H 7.25207 -0.215567 0.410019 0
M  V30 34 H 5.85335 1.81866 0.55445 0
M  V30 35 H 3.43966 1.76902 0.0850575 0
M  V30 END ATOM
M  V30 BEGIN BOND
M  V30 1 1 1 2
M  V30 2 2 2 3
M  V30 3 1 3 4
M  V30 4 1 4 5
M  V30 5 1 5 6
M  V30 6 2 5 7
M  V30 7 1 7 8
M  V30 8 2 8 9
M  V30 9 1 9 10
M  V30 10 2 10 11
M  V30 11 1 11 12
M  V30 12 2 12 13
M  V30 13 1 13 14
M  V30 14 2 14 15
M  V30 15 1 4 16
M  V30 16 2 16 17
M  V30 17 1 17 18
M  V30 18 2 18 19
M  V30 19 1 19 20
M  V30 20 2 20 21
M  V30 21 1 7 2
M  V30 22 1 15 10
M  V30 23 1 21 16
M  V30 24 1 1 22
M  V30 25 1 1 23
M  V30 26 1 6 24
M  V30 27 1 6 25
M  V30 28 1 11 26
M  V30 29 1 12 27
M  V30 30 1 13 28
M  V30 31 1 14 29
M  V30 32 1 15 30
M  V30 33 1 17 31
M  V30 34 1 18 32
M  V30 35 1 19 33
M  V30 36 1 20 34
M  V30 37 1 21 35
M  V30 END BOND
M  V30 END CTAB
M  END
