
     RDKit          3D

  0  0  0  0  0  0  0  0  0  0999 V3000
M  V30 BEGIN CTAB
M  V30 COUNTS 35 37 0 0 0
M  V30 BEGIN ATOM
M  V30 1 N 6.66415 0.87035 1.18875 0
M  V30 2 N 5.58665 0.195652 0.547068 0
M  V30 3 C 4.28459 0.535745 0.974111 0
M  V30 4 O 4.08355 1.40527 1.88823 0
M  V30 5 C 3.10251 -0.0921447 0.388538 0
M  V30 6 C 3.26132 -1.18281 -0.426735 0
M  V30 7 C 2.13521 -1.76009 -0.975098 0
M  V30 8 C 0.883356 -1.24441 -0.703078 0
M  V30 9 C 0.727395 -0.143134 0.120739 0
M  V30 10 C 1.85643 0.415243 0.65489 0
M  V30 11 N -0.496506 0.344482 0.375441 0
M  V30 12 C -1.63739 -0.209176 -0.155311 0
M  V30 13 N -1.46155 -1.25217 -0.935188 0
M  V30 14 C -0.240014 -1.80543 -1.23914 0
M  V30 15 O -0.16998 -2.80505 -1.99448 0
M  V30 16 N -2.57263 -1.86656 -1.56525 0
M  V30 17 C -2.91706 0.438307 0.180044 0
M  V30 18 C -2.83621 1.6996 0.799986 0
M  V30 19 C -3.94785 2.38065 1.18791 0
M  V30 20 C -5.21917 1.84789 0.983005 0
M  V30 21 C -5.32808 0.620788 0.381914 0
M  V30 22 C -4.1535 -0.0494045 -0.0029295 0
M  V30 23 I -7.20277 -0.2644 0.0306029 0
M  V30 24 H 6.34132 1.7229 1.65829 0
M  V30 25 H 7.45265 1.0124 0.520584 0
M  V30 26 H 5.77774 -0.504185 -0.195723 0
M  V30 27 H 4.22512 -1.62051 -0.663338 0
M  V30 28 H 2.20254 -2.62744 -1.62926 0
M  V30 29 H 1.73379 1.28484 1.30544 0
M  V30 30 H -2.89273 -2.77282 -1.16157 0
M  V30 31 H -3.04207 -1.42942 -2.40015 0
M  V30 32 H -1.87054 2.13824 0.970635 0
M  V30 33 H -3.93394 3.34806 1.66523 0
M  V30 34 H -6.09849 2.38126 1.28672 0
M  V30 35 H -4.29785 -1.01253 -0.442385 0
M  V30 END ATOM
M  V30 BEGIN BOND
M  V30 1 1 1 2
M  V30 2 1 2 3
M  V30 3 2 3 4
M  V30 4 1 3 5
M  V30 5 2 5 6
M  V30 6 1 6 7
M  V30 7 2 7 8
M  V30 8 1 8 9
M  V30 9 2 9 10
M  V30 10 1 9 11
M  V30 11 2 11 12
M  V30 12 1 12 13
M  V30 13 1 13 14
M  V30 14 2 14 15
M  V30 15 1 13 16
M  V30 16 1 12 17
M  V30 17 2 17 18
M  V30 18 1 18 19
M  V30 19 2 19 20
M  V30 20 1 20 21
M  V30 21 2 21 22
M  V30 22 1 21 23
M  V30 23 1 10 5
M  V30 24 1 22 17
M  V30 25 1 14 8
M  V30 26 1 1 24
M  V30 27 1 1 25
M  V30 28 1 2 26
M  V30 29 1 6 27
M  V30 30 1 7 28
M  V30 31 1 10 29
M  V30 32 1 16 30
M  V30 33 1 16 31
M  V30 34 1 18 32
M  V30 35 1 19 33
M  V30 36 1 20 34
M  V30 37 1 22 35
M  V30 END BOND
M  V30 END CTAB
M  END
