
     RDKit          3D

  0  0  0  0  0  0  0  0  0  0999 V3000
M  V30 BEGIN CTAB
M  V30 COUNTS 45 47 0 0 0
M  V30 BEGIN ATOM
M  V30 1 C 6.39023 1.91158 0.301409 0
M  V30 2 O 6.276 1.41494 -0.986064 0
M  V30 3 C 6.18833 0.0678156 -1.06856 0
M  V30 4 C 4.90313 -0.445348 -0.465661 0
M  V30 5 N 4.72749 -1.64809 0.0768165 0
M  V30 6 C 3.5936 -2.02932 0.496157 0
M  V30 7 C 2.50979 -1.08518 0.352719 0
M  V30 8 S 3.33738 0.19782 -0.368013 0
M  V30 9 C 1.22045 -1.3539 0.986143 0
M  V30 10 N 0.0727372 -1.27389 0.181578 0
M  V30 11 C -0.700703 -0.165811 -0.0815863 0
M  V30 12 C -2.06728 -0.249222 0.162393 0
M  V30 13 C -2.86577 0.795403 -0.0646467 0
M  V30 14 N -2.33812 1.96261 -0.55014 0
M  V30 15 C -0.969571 2.01 -0.793515 0
M  V30 16 N -0.190476 0.955172 -0.549932 0
M  V30 17 N -0.469214 3.14961 -1.45276 0
M  V30 18 C -4.30402 0.903481 0.285094 0
M  V30 19 C -5.18088 1.19155 -0.941823 0
M  V30 20 C -6.21383 0.303836 -0.242532 0
M  V30 21 C -5.05923 -0.369684 0.47125 0
M  V30 22 N -6.91457 -0.530972 -1.17205 0
M  V30 23 C 3.24361 -3.41965 0.978875 0
M  V30 24 H 6.3932 3.00904 0.239581 0
M  V30 25 H 7.40829 1.60122 0.721623 0
M  V30 26 H 5.67127 1.42546 0.954488 0
M  V30 27 H 6.3254 -0.403166 -2.02889 0
M  V30 28 H 6.98306 -0.355583 -0.352068 0
M  V30 29 H 1.09253 -0.248677 1.60661 0
M  V30 30 H 1.15955 -1.95975 1.85642 0
M  V30 31 H -0.121873 -2.18856 -0.356153 0
M  V30 32 H -2.49165 -1.17296 0.505799 0
M  V30 33 H -0.264307 2.98676 -2.4818 0
M  V30 34 H -0.330068 4.03674 -1.01227 0
M  V30 35 H -4.56179 1.67 1.05331 0
M  V30 36 H -4.69303 0.665255 -1.79425 0
M  V30 37 H -5.4375 2.23103 -1.07839 0
M  V30 38 H -6.82311 0.956251 0.413912 0
M  V30 39 H -5.2268 -0.677698 1.51545 0
M  V30 40 H -4.68986 -1.22432 -0.124562 0
M  V30 41 H -7.24566 -1.42639 -0.747865 0
M  V30 42 H -7.70449 0.0637643 -1.53612 0
M  V30 43 H 2.56131 -3.86095 0.153489 0
M  V30 44 H 2.70824 -3.34696 1.91005 0
M  V30 45 H 4.09821 -4.07327 0.937605 0
M  V30 END ATOM
M  V30 BEGIN BOND
M  V30 1 1 1 2
M  V30 2 1 2 3
M  V30 3 1 3 4
M  V30 4 2 4 5
M  V30 5 1 5 6
M  V30 6 2 6 7
M  V30 7 1 7 8
M  V30 8 1 7 9
M  V30 9 1 9 10
M  V30 10 1 10 11
M  V30 11 2 11 12
M  V30 12 1 12 13
M  V30 13 2 13 14
M  V30 14 1 14 15
M  V30 15 2 15 16
M  V30 16 1 15 17
M  V30 17 1 13 18
M  V30 18 1 18 19
M  V30 19 1 19 20
M  V30 20 1 20 21
M  V30 21 1 20 22
M  V30 22 1 6 23
M  V30 23 1 8 4
M  V30 24 1 16 11
M  V30 25 1 21 18
M  V30 26 1 1 24
M  V30 27 1 1 25
M  V30 28 1 1 26
M  V30 29 1 3 27
M  V30 30 1 3 28
M  V30 31 1 9 29
M  V30 32 1 9 30
M  V30 33 1 10 31
M  V30 34 1 12 32
M  V30 35 1 17 33
M  V30 36 1 17 34
M  V30 37 1 18 35
M  V30 38 1 19 36
M  V30 39 1 19 37
M  V30 40 1 20 38
M  V30 41 1 21 39
M  V30 42 1 21 40
M  V30 43 1 22 41
M  V30 44 1 22 42
M  V30 45 1 23 43
M  V30 46 1 23 44
M  V30 47 1 23 45
M  V30 END BOND
M  V30 END CTAB
M  END
