
     RDKit          3D

  0  0  0  0  0  0  0  0  0  0999 V3000
M  V30 BEGIN CTAB
M  V30 COUNTS 47 50 0 0 0
M  V30 BEGIN ATOM
M  V30 1 N 7.10318 -0.0470518 0.380203 0
M  V30 2 C 6.41289 0.342225 -0.803302 0 CFG=2
M  V30 3 C 5.37556 1.37865 -0.422169 0
M  V30 4 C 4.35948 0.790194 0.526095 0
M  V30 5 C 3.707 -0.38675 -0.171765 0 CFG=1
M  V30 6 C 4.75249 -1.45368 -0.418908 0
M  V30 7 C 5.75135 -0.876427 -1.41016 0
M  V30 8 N 2.58193 -0.88417 0.569156 0
M  V30 9 N 2.52073 -1.71898 1.58094 0
M  V30 10 N 1.27434 -1.90501 1.96275 0
M  V30 11 C 0.463451 -1.16752 1.17862 0
M  V30 12 C 1.29196 -0.525813 0.301762 0
M  V30 13 C -1.00618 -1.0493 1.22281 0
M  V30 14 O -1.583 -1.7111 2.09179 0
M  V30 15 N -1.65302 -0.217255 0.30428 0
M  V30 16 C -3.02595 0.0253839 0.178341 0
M  V30 17 C -3.98684 -0.709227 0.797794 0
M  V30 18 C -5.3306 -0.465356 0.690151 0
M  V30 19 C -6.29344 -1.35595 1.43008 0
M  V30 20 C -5.8025 0.599159 -0.0982884 0
M  V30 21 C -4.85834 1.35569 -0.734226 0
M  V30 22 C -3.50663 1.08719 -0.607875 0
M  V30 23 S -5.83221 2.50137 -1.55548 0
M  V30 24 C -7.3849 1.94616 -1.03803 0
M  V30 25 N -7.05403 0.924308 -0.273822 0
M  V30 26 N -8.67823 2.46618 -1.36053 0
M  V30 27 H 6.8188 0.416123 1.24179 0
M  V30 28 H 7.18693 -1.03828 0.507064 0
M  V30 29 H 7.06169 0.776735 -1.58016 0
M  V30 30 H 5.90132 2.19034 0.107463 0
M  V30 31 H 4.81265 1.73435 -1.31145 0
M  V30 32 H 3.56541 1.5573 0.668289 0
M  V30 33 H 4.78695 0.432552 1.46476 0
M  V30 34 H 3.38698 -0.0222716 -1.17478 0
M  V30 35 H 4.24195 -2.28539 -0.946496 0
M  V30 36 H 5.27734 -1.75733 0.487025 0
M  V30 37 H 5.15264 -0.510015 -2.2799 0
M  V30 38 H 6.53846 -1.58587 -1.68814 0
M  V30 39 H 0.995376 0.167302 -0.494238 0
M  V30 40 H -1.03508 0.315375 -0.409873 0
M  V30 41 H -3.73062 -1.57726 1.43305 0
M  V30 42 H -6.4977 -2.22497 0.763431 0
M  V30 43 H -5.75414 -1.75522 2.3121 0
M  V30 44 H -7.21236 -0.802427 1.70944 0
M  V30 45 H -2.81107 1.71385 -1.12957 0
M  V30 46 H -9.19108 3.00614 -0.648531 0
M  V30 47 H -9.09298 2.30603 -2.28662 0
M  V30 END ATOM
M  V30 BEGIN BOND
M  V30 1 1 1 2
M  V30 2 1 2 3
M  V30 3 1 3 4
M  V30 4 1 4 5
M  V30 5 1 5 6
M  V30 6 1 6 7
M  V30 7 1 5 8
M  V30 8 1 8 9
M  V30 9 2 9 10
M  V30 10 1 10 11
M  V30 11 2 11 12
M  V30 12 1 11 13
M  V30 13 2 13 14
M  V30 14 1 13 15
M  V30 15 1 15 16
M  V30 16 2 16 17
M  V30 17 1 17 18
M  V30 18 1 18 19
M  V30 19 2 18 20
M  V30 20 1 20 21
M  V30 21 2 21 22
M  V30 22 1 21 23
M  V30 23 1 23 24
M  V30 24 2 24 25
M  V30 25 1 24 26
M  V30 26 1 7 2
M  V30 27 1 12 8
M  V30 28 1 22 16
M  V30 29 1 25 20
M  V30 30 1 1 27
M  V30 31 1 1 28
M  V30 32 1 2 29 CFG=3
M  V30 33 1 3 30
M  V30 34 1 3 31
M  V30 35 1 4 32
M  V30 36 1 4 33
M  V30 37 1 5 34 CFG=3
M  V30 38 1 6 35
M  V30 39 1 6 36
M  V30 40 1 7 37
M  V30 41 1 7 38
M  V30 42 1 12 39
M  V30 43 1 15 40
M  V30 44 1 17 41
M  V30 45 1 19 42
M  V30 46 1 19 43
M  V30 47 1 19 44
M  V30 48 1 22 45
M  V30 49 1 26 46
M  V30 50 1 26 47
M  V30 END BOND
M  V30 END CTAB
M  END
