
     RDKit          3D

  0  0  0  0  0  0  0  0  0  0999 V3000
M  V30 BEGIN CTAB
M  V30 COUNTS 25 25 0 0 0
M  V30 BEGIN ATOM
M  V30 1 O 3.4452 -0.598866 1.31628 0
M  V30 2 C 2.78535 0.251657 0.425437 0
M  V30 3 O 3.02201 1.50796 0.561252 0
M  V30 4 C 1.86485 -0.174078 -0.624491 0
M  V30 5 C 0.431085 -0.0760492 -0.342417 0
M  V30 6 C -0.305693 1.07396 -0.388117 0
M  V30 7 C 0.284097 2.38275 -0.724674 0
M  V30 8 C -1.69553 1.06605 -0.113913 0
M  V30 9 C -2.31513 -0.121173 0.205356 0
M  V30 10 C -1.5725 -1.2877 0.254391 0
M  V30 11 C -0.221563 -1.27832 -0.0124815 0
M  V30 12 N 0.533651 -2.49414 0.0308012 0
M  V30 13 N -3.70143 -0.176494 0.482925 0
M  V30 14 H 3.10791 -0.869888 2.22369 0
M  V30 15 H 2.1327 -1.22443 -0.947099 0
M  V30 16 H 2.13141 0.421168 -1.55146 0
M  V30 17 H -0.541994 3.00658 -1.21073 0
M  V30 18 H 0.610567 2.87362 0.197157 0
M  V30 19 H 1.13971 2.3217 -1.41604 0
M  V30 20 H -2.25649 1.9707 -0.141434 0
M  V30 21 H -2.04965 -2.24904 0.50742 0
M  V30 22 H 0.612642 -2.98388 0.939936 0
M  V30 23 H 0.99103 -2.92404 -0.794695 0
M  V30 24 H -4.2849 -0.829298 -0.0939594 0
M  V30 25 H -4.14733 0.411268 1.21687 0
M  V30 END ATOM
M  V30 BEGIN BOND
M  V30 1 1 1 2
M  V30 2 2 2 3
M  V30 3 1 2 4
M  V30 4 1 4 5
M  V30 5 2 5 6
M  V30 6 1 6 7
M  V30 7 1 6 8
M  V30 8 2 8 9
M  V30 9 1 9 10
M  V30 10 2 10 11
M  V30 11 1 11 12
M  V30 12 1 9 13
M  V30 13 1 11 5
M  V30 14 1 1 14
M  V30 15 1 4 15
M  V30 16 1 4 16
M  V30 17 1 7 17
M  V30 18 1 7 18
M  V30 19 1 7 19
M  V30 20 1 8 20
M  V30 21 1 10 21
M  V30 22 1 12 22
M  V30 23 1 12 23
M  V30 24 1 13 24
M  V30 25 1 13 25
M  V30 END BOND
M  V30 END CTAB
M  END
