
     RDKit          3D

  0  0  0  0  0  0  0  0  0  0999 V3000
M  V30 BEGIN CTAB
M  V30 COUNTS 32 32 0 0 0
M  V30 BEGIN ATOM
M  V30 1 C -3.03322 -0.794103 -0.780466 0
M  V30 2 C -2.73932 0.0353679 0.441012 0
M  V30 3 C -3.6683 1.23042 0.506142 0
M  V30 4 C -1.32224 0.629199 0.255312 0
M  V30 5 C -0.333613 -0.465364 0.120528 0
M  V30 6 C 1.06219 -0.131604 -0.0649574 0
M  V30 7 C 1.6422 1.10551 -0.153299 0
M  V30 8 N 0.831902 2.25791 -0.0604669 0
M  V30 9 N 2.97055 1.30485 -0.328102 0
M  V30 10 C 3.7828 0.245983 -0.422694 0
M  V30 11 N 5.15917 0.499994 -0.604303 0
M  V30 12 N 3.25335 -0.978384 -0.341081 0
M  V30 13 C 1.9463 -1.21828 -0.168621 0
M  V30 14 C 1.4297 -2.62823 -0.0869093 0
M  V30 15 H -4.14525 -0.900963 -0.901965 0
M  V30 16 H -2.59274 -1.81546 -0.646603 0
M  V30 17 H -2.60399 -0.302343 -1.69218 0
M  V30 18 H -2.76681 -0.576749 1.35892 0
M  V30 19 H -4.71269 0.944813 0.739077 0
M  V30 20 H -3.27654 1.89243 1.32486 0
M  V30 21 H -3.59852 1.76673 -0.444616 0
M  V30 22 H -1.19832 1.25607 1.14907 0
M  V30 23 H -1.42373 1.19198 -0.698868 0
M  V30 24 H -0.393369 -1.05732 1.08885 0
M  V30 25 H -0.646292 -1.16667 -0.702907 0
M  V30 26 H 0.38293 2.71682 -0.861968 0
M  V30 27 H 0.663769 2.70088 0.880552 0
M  V30 28 H 5.6081 0.262331 -1.49619 0
M  V30 29 H 5.70068 0.921578 0.159734 0
M  V30 30 H 1.02795 -2.76351 0.935866 0
M  V30 31 H 0.713545 -2.85263 -0.885242 0
M  V30 32 H 2.27985 -3.31126 -0.192097 0
M  V30 END ATOM
M  V30 BEGIN BOND
M  V30 1 1 1 2
M  V30 2 1 2 3
M  V30 3 1 2 4
M  V30 4 1 4 5
M  V30 5 1 5 6
M  V30 6 2 6 7
M  V30 7 1 7 8
M  V30 8 1 7 9
M  V30 9 2 9 10
M  V30 10 1 10 11
M  V30 11 1 10 12
M  V30 12 2 12 13
M  V30 13 1 13 14
M  V30 14 1 13 6
M  V30 15 1 1 15
M  V30 16 1 1 16
M  V30 17 1 1 17
M  V30 18 1 2 18
M  V30 19 1 3 19
M  V30 20 1 3 20
M  V30 21 1 3 21
M  V30 22 1 4 22
M  V30 23 1 4 23
M  V30 24 1 5 24
M  V30 25 1 5 25
M  V30 26 1 8 26
M  V30 27 1 8 27
M  V30 28 1 11 28
M  V30 29 1 11 29
M  V30 30 1 14 30
M  V30 31 1 14 31
M  V30 32 1 14 32
M  V30 END BOND
M  V30 END CTAB
M  END
