
     RDKit          3D

  0  0  0  0  0  0  0  0  0  0999 V3000
M  V30 BEGIN CTAB
M  V30 COUNTS 31 33 0 0 0
M  V30 BEGIN ATOM
M  V30 1 N -2.17919 -0.487634 2.75387 0
M  V30 2 C -2.62687 -0.360476 1.40466 0
M  V30 3 N -1.84499 -0.729934 0.370605 0
M  V30 4 C -2.23756 -0.62025 -0.907584 0
M  V30 5 C -1.29942 -1.06019 -1.96821 0
M  V30 6 S -0.202928 0.289362 -2.48471 0
M  V30 7 C 0.867371 0.675866 -1.10431 0
M  V30 8 N 0.552226 1.57793 -0.160774 0
M  V30 9 C 1.3726 1.85582 0.876684 0
M  V30 10 N 2.56046 1.24339 1.02847 0
M  V30 11 C 2.92096 0.332536 0.10985 0
M  V30 12 C 2.09406 0.0383656 -0.95411 0
M  V30 13 C 2.7511 -0.917165 -1.69151 0
M  V30 14 N 3.91091 -1.16545 -1.07992 0
M  V30 15 N 4.03209 -0.423266 0.00666833 0
M  V30 16 C 5.17164 -0.436157 0.917217 0
M  V30 17 N -3.45341 -0.124322 -1.15869 0
M  V30 18 C -4.279 0.261608 -0.161225 0
M  V30 19 N -3.84344 0.133229 1.0993 0
M  V30 20 N -5.56656 0.785294 -0.40888 0
M  V30 21 H -1.58911 0.28458 3.1387 0
M  V30 22 H -2.44186 -1.32473 3.31037 0
M  V30 23 H -1.84636 -1.52049 -2.83341 0
M  V30 24 H -0.695555 -1.89044 -1.53572 0
M  V30 25 H 1.09588 2.5874 1.62358 0
M  V30 26 H 2.33237 -1.341 -2.59655 0
M  V30 27 H 4.99093 -1.05051 1.81766 0
M  V30 28 H 5.49995 0.566642 1.21749 0
M  V30 29 H 6.04528 -0.894667 0.372961 0
M  V30 30 H -5.81766 1.73696 -0.092091 0
M  V30 31 H -6.2739 0.222269 -0.910403 0
M  V30 END ATOM
M  V30 BEGIN BOND
M  V30 1 1 1 2
M  V30 2 2 2 3
M  V30 3 1 3 4
M  V30 4 1 4 5
M  V30 5 1 5 6
M  V30 6 1 6 7
M  V30 7 2 7 8
M  V30 8 1 8 9
M  V30 9 2 9 10
M  V30 10 1 10 11
M  V30 11 2 11 12
M  V30 12 1 12 13
M  V30 13 2 13 14
M  V30 14 1 14 15
M  V30 15 1 15 16
M  V30 16 2 4 17
M  V30 17 1 17 18
M  V30 18 2 18 19
M  V30 19 1 18 20
M  V30 20 1 19 2
M  V30 21 1 12 7
M  V30 22 1 15 11
M  V30 23 1 1 21
M  V30 24 1 1 22
M  V30 25 1 5 23
M  V30 26 1 5 24
M  V30 27 1 9 25
M  V30 28 1 13 26
M  V30 29 1 16 27
M  V30 30 1 16 28
M  V30 31 1 16 29
M  V30 32 1 20 30
M  V30 33 1 20 31
M  V30 END BOND
M  V30 END CTAB
M  END
