
     RDKit          3D

  0  0  0  0  0  0  0  0  0  0999 V3000
M  V30 BEGIN CTAB
M  V30 COUNTS 25 25 0 0 0
M  V30 BEGIN ATOM
M  V30 1 C -3.15377 0.302214 0.88029 0
M  V30 2 C -2.49978 0.0889567 -0.453972 0 CFG=2
M  V30 3 C -1.04118 -0.156513 -0.30906 0
M  V30 4 C -0.212019 -0.117828 -1.41017 0
M  V30 5 C 1.13585 -0.345533 -1.27065 0
M  V30 6 C 1.69996 -0.616009 -0.0491522 0
M  V30 7 C 0.87346 -0.654443 1.04756 0
M  V30 8 C -0.483328 -0.425561 0.909326 0
M  V30 9 S 3.4089 -0.896418 0.0725001 0
M  V30 10 O 3.67912 -1.87202 1.1816 0
M  V30 11 O 3.95463 -1.51233 -1.18991 0
M  V30 12 N 4.27731 0.563722 0.353013 0
M  V30 13 N -2.78822 1.22313 -1.29679 0
M  V30 14 H -2.59269 1.07538 1.41862 0
M  V30 15 H -4.17024 0.707216 0.687248 0
M  V30 16 H -3.19071 -0.602919 1.50725 0
M  V30 17 H -2.92207 -0.812971 -0.977675 0
M  V30 18 H -0.682368 0.0990891 -2.37158 0
M  V30 19 H 1.74368 -0.304796 -2.1601 0
M  V30 20 H 1.28569 -0.863359 2.01474 0
M  V30 21 H -1.08049 -0.468454 1.80219 0
M  V30 22 H 4.29597 0.735886 1.38095 0
M  V30 23 H 3.80333 1.31451 -0.182198 0
M  V30 24 H -3.36557 1.93304 -0.811186 0
M  V30 25 H -1.97547 1.60601 -1.78717 0
M  V30 END ATOM
M  V30 BEGIN BOND
M  V30 1 1 1 2
M  V30 2 1 2 3
M  V30 3 2 3 4
M  V30 4 1 4 5
M  V30 5 2 5 6
M  V30 6 1 6 7
M  V30 7 2 7 8
M  V30 8 1 6 9
M  V30 9 2 9 10
M  V30 10 2 9 11
M  V30 11 1 9 12
M  V30 12 1 2 13
M  V30 13 1 8 3
M  V30 14 1 1 14
M  V30 15 1 1 15
M  V30 16 1 1 16
M  V30 17 1 2 17 CFG=3
M  V30 18 1 4 18
M  V30 19 1 5 19
M  V30 20 1 7 20
M  V30 21 1 8 21
M  V30 22 1 12 22
M  V30 23 1 12 23
M  V30 24 1 13 24
M  V30 25 1 13 25
M  V30 END BOND
M  V30 END CTAB
M  END
