
     RDKit          3D

  0  0  0  0  0  0  0  0  0  0999 V3000
M  V30 BEGIN CTAB
M  V30 COUNTS 16 16 0 0 0
M  V30 BEGIN ATOM
M  V30 1 Cl -3.15095 -1.09135 0.0102471 0
M  V30 2 C -1.43179 -0.739831 0.0268015 0
M  V30 3 C -0.513302 -1.75602 0.153553 0
M  V30 4 C 0.831534 -1.4965 0.168019 0
M  V30 5 C 1.2223 -0.179268 0.0506185 0
M  V30 6 C 0.315402 0.851753 -0.0772408 0
M  V30 7 C -1.04919 0.583923 -0.0914834 0
M  V30 8 N -1.98073 1.64256 -0.22281 0
M  V30 9 Cl 0.811231 2.529 -0.226804 0
M  V30 10 N 2.61312 0.137997 0.0608023 0
M  V30 11 H -0.822313 -2.78207 0.244873 0
M  V30 12 H 1.58995 -2.26512 0.265754 0
M  V30 13 H -2.87411 1.47207 -0.72178 0
M  V30 14 H -1.78209 2.58213 0.171801 0
M  V30 15 H 3.02606 0.35599 0.994403 0
M  V30 16 H 3.19488 0.154728 -0.806754 0
M  V30 END ATOM
M  V30 BEGIN BOND
M  V30 1 1 1 2
M  V30 2 2 2 3
M  V30 3 1 3 4
M  V30 4 2 4 5
M  V30 5 1 5 6
M  V30 6 2 6 7
M  V30 7 1 7 8
M  V30 8 1 6 9
M  V30 9 1 5 10
M  V30 10 1 7 2
M  V30 11 1 3 11
M  V30 12 1 4 12
M  V30 13 1 8 13
M  V30 14 1 8 14
M  V30 15 1 10 15
M  V30 16 1 10 16
M  V30 END BOND
M  V30 END CTAB
M  END
