
     RDKit          3D

  0  0  0  0  0  0  0  0  0  0999 V3000
M  V30 BEGIN CTAB
M  V30 COUNTS 34 35 0 0 0
M  V30 BEGIN ATOM
M  V30 1 C -4.3632 2.21348 1.20069 0
M  V30 2 O -3.14549 1.61023 0.806356 0
M  V30 3 C -3.1477 0.323313 0.231112 0
M  V30 4 O -4.27164 -0.207549 0.108708 0
M  V30 5 C -1.89363 -0.299662 -0.17576 0
M  V30 6 C -0.686798 0.387265 0.00774334 0
M  V30 7 C 0.508875 -0.18253 -0.369429 0
M  V30 8 C 0.465449 -1.44174 -0.928083 0
M  V30 9 C -0.710111 -2.13514 -1.11761 0
M  V30 10 C -1.92328 -1.55132 -0.732278 0
M  V30 11 C -3.18836 -2.29374 -0.934474 0
M  V30 12 C 1.7799 0.552207 -0.176919 0
M  V30 13 C 1.88038 1.87843 -0.569227 0
M  V30 14 C 3.06194 2.5678 -0.397466 0
M  V30 15 N 4.12068 1.94819 0.153648 0
M  V30 16 C 4.09499 0.672888 0.554581 0
M  V30 17 C 2.8999 -0.0246859 0.381044 0
M  V30 18 N 2.84497 -1.37903 0.803309 0
M  V30 19 N 5.23486 0.0429167 1.13601 0
M  V30 20 H -5.13986 1.87056 0.455751 0
M  V30 21 H -4.29878 3.29806 1.24599 0
M  V30 22 H -4.68757 1.73967 2.16401 0
M  V30 23 H -0.722763 1.37185 0.451576 0
M  V30 24 H 1.39063 -1.92604 -1.24321 0
M  V30 25 H -0.744854 -3.12151 -1.55502 0
M  V30 26 H -3.64951 -2.56108 0.024807 0
M  V30 27 H -3.87561 -1.82893 -1.66465 0
M  V30 28 H -2.93376 -3.29719 -1.39894 0
M  V30 29 H 1.00053 2.33635 -1.00893 0
M  V30 30 H 3.1312 3.60379 -0.706987 0
M  V30 31 H 3.38292 -2.1432 0.351667 0
M  V30 32 H 2.23242 -1.61437 1.60789 0
M  V30 33 H 5.91256 -0.460217 0.519708 0
M  V30 34 H 5.44071 0.0509218 2.1519 0
M  V30 END ATOM
M  V30 BEGIN BOND
M  V30 1 1 1 2
M  V30 2 1 2 3
M  V30 3 2 3 4
M  V30 4 1 3 5
M  V30 5 2 5 6
M  V30 6 1 6 7
M  V30 7 2 7 8
M  V30 8 1 8 9
M  V30 9 2 9 10
M  V30 10 1 10 11
M  V30 11 1 7 12
M  V30 12 2 12 13
M  V30 13 1 13 14
M  V30 14 2 14 15
M  V30 15 1 15 16
M  V30 16 2 16 17
M  V30 17 1 17 18
M  V30 18 1 16 19
M  V30 19 1 10 5
M  V30 20 1 17 12
M  V30 21 1 1 20
M  V30 22 1 1 21
M  V30 23 1 1 22
M  V30 24 1 6 23
M  V30 25 1 8 24
M  V30 26 1 9 25
M  V30 27 1 11 26
M  V30 28 1 11 27
M  V30 29 1 11 28
M  V30 30 1 13 29
M  V30 31 1 14 30
M  V30 32 1 18 31
M  V30 33 1 18 32
M  V30 34 1 19 33
M  V30 35 1 19 34
M  V30 END BOND
M  V30 END CTAB
M  END
