
     RDKit          3D

  0  0  0  0  0  0  0  0  0  0999 V3000
M  V30 BEGIN CTAB
M  V30 COUNTS 23 23 0 0 0
M  V30 BEGIN ATOM
M  V30 1 C 3.68392 0.0880688 -0.750847 0
M  V30 2 C 3.00893 0.723611 0.441644 0
M  V30 3 O 1.64814 0.785274 0.331546 0
M  V30 4 C 1.02979 -0.443301 0.195583 0
M  V30 5 C -0.439015 -0.240562 0.0860578 0
M  V30 6 N -0.998584 0.976638 0.122449 0
M  V30 7 C -2.35005 1.08495 0.0162504 0
M  V30 8 N -2.95432 2.3597 0.0527935 0
M  V30 9 N -3.08131 -0.041103 -0.122416 0
M  V30 10 C -2.52736 -1.26646 -0.159841 0
M  V30 11 N -1.189 -1.35693 -0.0535193 0
M  V30 12 N -3.31084 -2.44117 -0.306261 0
M  V30 13 H 4.77516 0.368909 -0.66971 0
M  V30 14 H 3.64695 -1.00359 -0.751054 0
M  V30 15 H 3.30665 0.544156 -1.6857 0
M  V30 16 H 3.37238 0.220283 1.3695 0
M  V30 17 H 3.39269 1.76557 0.5031 0
M  V30 18 H 1.194 -1.12285 1.048 0
M  V30 19 H 1.36031 -0.878674 -0.77204 0
M  V30 20 H -3.09825 2.82606 0.961183 0
M  V30 21 H -3.25182 2.82684 -0.816736 0
M  V30 22 H -3.28524 -3.00263 -1.18095 0
M  V30 23 H -3.93312 -2.77279 0.459191 0
M  V30 END ATOM
M  V30 BEGIN BOND
M  V30 1 1 1 2
M  V30 2 1 2 3
M  V30 3 1 3 4
M  V30 4 1 4 5
M  V30 5 2 5 6
M  V30 6 1 6 7
M  V30 7 1 7 8
M  V30 8 2 7 9
M  V30 9 1 9 10
M  V30 10 2 10 11
M  V30 11 1 10 12
M  V30 12 1 11 5
M  V30 13 1 1 13
M  V30 14 1 1 14
M  V30 15 1 1 15
M  V30 16 1 2 16
M  V30 17 1 2 17
M  V30 18 1 4 18
M  V30 19 1 4 19
M  V30 20 1 8 20
M  V30 21 1 8 21
M  V30 22 1 12 22
M  V30 23 1 12 23
M  V30 END BOND
M  V30 END CTAB
M  END
