
     RDKit          3D

  0  0  0  0  0  0  0  0  0  0999 V3000
M  V30 BEGIN CTAB
M  V30 COUNTS 41 42 0 0 0
M  V30 BEGIN ATOM
M  V30 1 N 4.74808 -0.7792 -1.96691 0
M  V30 2 C 5.29939 -0.469018 -0.695433 0
M  V30 3 N 6.01492 -1.39147 -0.149485 0
M  V30 4 C 5.1039 0.799733 0.0025607 0
M  V30 5 C 3.67001 1.0899 0.285765 0
M  V30 6 C 3.09209 0.667984 1.4576 0
M  V30 7 C 1.76056 0.939286 1.71693 0
M  V30 8 C 0.962543 1.63212 0.831596 0
M  V30 9 C 1.53587 2.06022 -0.349656 0
M  V30 10 C 2.8781 1.78415 -0.605992 0
M  V30 11 C -0.469642 1.89859 1.16027 0
M  V30 12 C -1.36715 0.845028 0.697229 0
M  V30 13 C -1.928 0.906774 -0.555946 0
M  V30 14 C -2.77226 -0.0849478 -0.990667 0
M  V30 15 C -3.05933 -1.15368 -0.159459 0
M  V30 16 C -2.51524 -1.24155 1.0937 0
M  V30 17 C -1.67343 -0.229144 1.49563 0
M  V30 18 C -3.97328 -2.20221 -0.663732 0
M  V30 19 C -5.34785 -1.81555 -0.292196 0
M  V30 20 N -6.04328 -2.59151 0.456689 0
M  V30 21 N -5.93228 -0.609537 -0.73561 0
M  V30 22 H 4.04716 -1.54905 -2.01349 0
M  V30 23 H 4.99925 -0.291978 -2.83389 0
M  V30 24 H 6.46832 -1.26272 0.790895 0
M  V30 25 H 5.50045 1.64852 -0.611076 0
M  V30 26 H 5.618 0.777584 0.975684 0
M  V30 27 H 3.66574 0.113196 2.20541 0
M  V30 28 H 1.28063 0.608469 2.6517 0
M  V30 29 H 0.924611 2.60612 -1.05764 0
M  V30 30 H 3.28824 2.13171 -1.5321 0
M  V30 31 H -0.615052 2.03281 2.25688 0
M  V30 32 H -0.734214 2.90355 0.716305 0
M  V30 33 H -1.67739 1.75861 -1.17295 0
M  V30 34 H -3.18712 0.0147284 -1.98991 0
M  V30 35 H -2.77334 -2.09749 1.70061 0
M  V30 36 H -1.25385 -0.319137 2.49175 0
M  V30 37 H -3.90482 -2.22908 -1.77343 0
M  V30 38 H -3.7046 -3.17198 -0.205396 0
M  V30 39 H -5.64227 -3.47007 0.790387 0
M  V30 40 H -6.80247 -0.579671 -1.29429 0
M  V30 41 H -5.48101 0.319924 -0.500226 0
M  V30 END ATOM
M  V30 BEGIN BOND
M  V30 1 1 1 2
M  V30 2 2 2 3 CFG=2
M  V30 3 1 2 4
M  V30 4 1 4 5
M  V30 5 2 5 6
M  V30 6 1 6 7
M  V30 7 2 7 8
M  V30 8 1 8 9
M  V30 9 2 9 10
M  V30 10 1 8 11
M  V30 11 1 11 12
M  V30 12 2 12 13
M  V30 13 1 13 14
M  V30 14 2 14 15
M  V30 15 1 15 16
M  V30 16 2 16 17
M  V30 17 1 15 18
M  V30 18 1 18 19
M  V30 19 2 19 20 CFG=2
M  V30 20 1 19 21
M  V30 21 1 10 5
M  V30 22 1 17 12
M  V30 23 1 1 22
M  V30 24 1 1 23
M  V30 25 1 3 24
M  V30 26 1 4 25
M  V30 27 1 4 26
M  V30 28 1 6 27
M  V30 29 1 7 28
M  V30 30 1 9 29
M  V30 31 1 10 30
M  V30 32 1 11 31
M  V30 33 1 11 32
M  V30 34 1 13 33
M  V30 35 1 14 34
M  V30 36 1 16 35
M  V30 37 1 17 36
M  V30 38 1 18 37
M  V30 39 1 18 38
M  V30 40 1 20 39
M  V30 41 1 21 40
M  V30 42 1 21 41
M  V30 END BOND
M  V30 END CTAB
M  END
