
     RDKit          3D

  0  0  0  0  0  0  0  0  0  0999 V3000
M  V30 BEGIN CTAB
M  V30 COUNTS 28 29 0 0 0
M  V30 BEGIN ATOM
M  V30 1 N 3.65031 -0.317223 0.269888 0
M  V30 2 C 2.49236 0.433358 -0.0987727 0
M  V30 3 C 2.56127 1.72254 -0.535503 0
M  V30 4 N 1.47189 2.40783 -0.876248 0
M  V30 5 C 0.274418 1.80937 -0.787697 0
M  V30 6 C 0.107355 0.481626 -0.347625 0
M  V30 7 C 1.24108 -0.202016 -0.000236909 0
M  V30 8 C 1.2408 -1.56848 0.566749 0
M  V30 9 C -1.23929 0.00695049 -0.208933 0
M  V30 10 C -1.79542 -1.22451 -0.43082 0
M  V30 11 N -1.26132 -2.39623 -1.06117 0
M  V30 12 C -3.13565 -1.24637 -0.0164306 0
M  V30 13 N -3.35699 -0.0336913 0.440988 0
M  V30 14 N -2.27842 0.723005 0.345717 0
M  V30 15 C -2.25626 2.0947 0.814086 0
M  V30 16 H 4.43361 0.22921 0.733061 0
M  V30 17 H 3.75587 -1.33563 0.110842 0
M  V30 18 H 3.56479 2.16353 -0.590396 0
M  V30 19 H -0.618666 2.33361 -1.08587 0
M  V30 20 H 1.51999 -2.3166 -0.168024 0
M  V30 21 H 0.396415 -1.79003 1.23322 0
M  V30 22 H 2.12524 -1.57961 1.31222 0
M  V30 23 H -0.916412 -2.40616 -2.02801 0
M  V30 24 H -1.22539 -3.28217 -0.498504 0
M  V30 25 H -3.83541 -2.0826 -0.0637351 0
M  V30 26 H -1.28445 2.39471 1.24876 0
M  V30 27 H -2.64777 2.7951 0.0427631 0
M  V30 28 H -2.98393 2.18578 1.67967 0
M  V30 END ATOM
M  V30 BEGIN BOND
M  V30 1 1 1 2
M  V30 2 2 2 3
M  V30 3 1 3 4
M  V30 4 2 4 5
M  V30 5 1 5 6
M  V30 6 2 6 7
M  V30 7 1 7 8
M  V30 8 1 6 9
M  V30 9 2 9 10
M  V30 10 1 10 11
M  V30 11 1 10 12
M  V30 12 2 12 13
M  V30 13 1 13 14
M  V30 14 1 14 15
M  V30 15 1 7 2
M  V30 16 1 14 9
M  V30 17 1 1 16
M  V30 18 1 1 17
M  V30 19 1 3 18
M  V30 20 1 5 19
M  V30 21 1 8 20
M  V30 22 1 8 21
M  V30 23 1 8 22
M  V30 24 1 11 23
M  V30 25 1 11 24
M  V30 26 1 12 25
M  V30 27 1 15 26
M  V30 28 1 15 27
M  V30 29 1 15 28
M  V30 END BOND
M  V30 END CTAB
M  END
