
     RDKit          3D

  0  0  0  0  0  0  0  0  0  0999 V3000
M  V30 BEGIN CTAB
M  V30 COUNTS 64 70 0 0 0
M  V30 BEGIN ATOM
M  V30 1 C -3.23806 3.46187 0.703725 0
M  V30 2 C -3.4088 2.99003 -0.690971 0
M  V30 3 C -3.20162 1.66615 -1.05044 0
M  V30 4 C -3.39123 1.2944 -2.36545 0
M  V30 5 C -3.77814 2.21762 -3.30447 0
M  V30 6 C -3.99293 3.54792 -2.97799 0
M  V30 7 C -3.79626 3.8888 -1.6593 0
M  V30 8 N -2.81348 0.70712 -0.0801271 0
M  V30 9 C -1.59275 0.62653 0.444705 0
M  V30 10 C -0.511839 1.50756 -0.00966287 0
M  V30 11 N 0.649345 0.769199 -0.515638 0
M  V30 12 N 1.66809 0.338067 0.208378 0
M  V30 13 C 2.57231 -0.314025 -0.550013 0
M  V30 14 C 2.09196 -0.288154 -1.82964 0
M  V30 15 C 2.51795 -0.738233 -3.05368 0
M  V30 16 N 3.75209 -1.39832 -3.15971 0
M  V30 17 N 1.81178 -0.546228 -4.20317 0
M  V30 18 C 0.655175 0.113261 -4.1158 0
M  V30 19 N 0.210397 0.567091 -2.94469 0
M  V30 20 C 0.866965 0.40449 -1.78728 0
M  V30 21 C 3.84559 -0.895217 -0.0470923 0
M  V30 22 C 4.14476 -2.21878 -0.200678 0
M  V30 23 C 5.35941 -2.67043 0.272885 0
M  V30 24 C 6.25576 -1.78721 0.894474 0
M  V30 25 S 7.80655 -1.89167 1.60493 0
M  V30 26 C 7.99325 -0.234766 2.06396 0
M  V30 27 N 9.09034 0.401056 2.7256 0
M  V30 28 N 6.85584 0.282983 1.64158 0
M  V30 29 C 5.96449 -0.460006 1.05355 0
M  V30 30 C 4.72123 -0.0289505 0.561352 0
M  V30 31 C -1.33517 -0.333682 1.41782 0
M  V30 32 C -2.31332 -1.20057 1.84717 0
M  V30 33 C -2.03344 -2.14346 2.81187 0
M  V30 34 C -3.02538 -3.00518 3.23058 0
M  V30 35 C -4.26586 -2.88077 2.6567 0
M  V30 36 C -4.60448 -1.95707 1.6877 0
M  V30 37 C -5.97236 -1.88076 1.11025 0
M  V30 38 C -3.58256 -1.10461 1.2887 0
M  V30 39 C -3.79251 -0.152174 0.341204 0
M  V30 40 O -4.91761 -0.0459545 -0.173187 0
M  V30 41 H -2.32339 4.10241 0.749629 0
M  V30 42 H -3.0911 2.62312 1.41047 0
M  V30 43 H -4.15355 4.04508 0.986958 0
M  V30 44 H -3.23021 0.262829 -2.64682 0
M  V30 45 H -3.9235 1.91296 -4.33279 0
M  V30 46 H -4.29588 4.24622 -3.74023 0
M  V30 47 H -3.96614 4.93621 -1.4065 0
M  V30 48 H -0.855512 2.20055 -0.834871 0
M  V30 49 H -0.227116 2.17747 0.82756 0
M  V30 50 H 3.82593 -2.42203 -3.35137 0
M  V30 51 H 4.65669 -0.876229 -3.04793 0
M  V30 52 H 0.101329 0.256081 -5.05633 0
M  V30 53 H 3.4769 -2.91155 -0.651049 0
M  V30 54 H 5.69668 -3.69402 0.203516 0
M  V30 55 H 9.19729 0.393302 3.75098 0
M  V30 56 H 9.79249 0.881054 2.14189 0
M  V30 57 H 4.43208 1.03544 0.662663 0
M  V30 58 H -0.326809 -0.377006 1.83134 0
M  V30 59 H -1.04412 -2.21787 3.24684 0
M  V30 60 H -2.82234 -3.76793 4.00196 0
M  V30 61 H -5.04429 -3.56064 2.98848 0
M  V30 62 H -6.04585 -2.18846 0.0628322 0
M  V30 63 H -6.5624 -2.69258 1.64393 0
M  V30 64 H -6.53268 -0.972351 1.39385 0
M  V30 END ATOM
M  V30 BEGIN BOND
M  V30 1 1 1 2
M  V30 2 2 2 3
M  V30 3 1 3 4
M  V30 4 2 4 5
M  V30 5 1 5 6
M  V30 6 2 6 7
M  V30 7 1 3 8
M  V30 8 1 8 9
M  V30 9 1 9 10
M  V30 10 1 10 11
M  V30 11 1 11 12
M  V30 12 2 12 13
M  V30 13 1 13 14
M  V30 14 2 14 15
M  V30 15 1 15 16
M  V30 16 1 15 17
M  V30 17 2 17 18
M  V30 18 1 18 19
M  V30 19 2 19 20
M  V30 20 1 13 21
M  V30 21 2 21 22
M  V30 22 1 22 23
M  V30 23 2 23 24
M  V30 24 1 24 25
M  V30 25 1 25 26
M  V30 26 1 26 27
M  V30 27 2 26 28
M  V30 28 1 28 29
M  V30 29 2 29 30
M  V30 30 2 9 31
M  V30 31 1 31 32
M  V30 32 2 32 33
M  V30 33 1 33 34
M  V30 34 2 34 35
M  V30 35 1 35 36
M  V30 36 1 36 37
M  V30 37 2 36 38
M  V30 38 1 38 39
M  V30 39 2 39 40
M  V30 40 1 7 2
M  V30 41 1 39 8
M  V30 42 1 20 11
M  V30 43 1 30 21
M  V30 44 1 38 32
M  V30 45 1 20 14
M  V30 46 1 29 24
M  V30 47 1 1 41
M  V30 48 1 1 42
M  V30 49 1 1 43
M  V30 50 1 4 44
M  V30 51 1 5 45
M  V30 52 1 6 46
M  V30 53 1 7 47
M  V30 54 1 10 48
M  V30 55 1 10 49
M  V30 56 1 16 50
M  V30 57 1 16 51
M  V30 58 1 18 52
M  V30 59 1 22 53
M  V30 60 1 23 54
M  V30 61 1 27 55
M  V30 62 1 27 56
M  V30 63 1 30 57
M  V30 64 1 31 58
M  V30 65 1 33 59
M  V30 66 1 34 60
M  V30 67 1 35 61
M  V30 68 1 37 62
M  V30 69 1 37 63
M  V30 70 1 37 64
M  V30 END BOND
M  V30 END CTAB
M  END
