
     RDKit          3D

  0  0  0  0  0  0  0  0  0  0999 V3000
M  V30 BEGIN CTAB
M  V30 COUNTS 31 31 0 0 0
M  V30 BEGIN ATOM
M  V30 1 C 4.00076 -0.614567 -1.09534 0
M  V30 2 C 3.20999 -0.424494 0.161186 0
M  V30 3 C 3.86211 -1.1679 1.2801 0
M  V30 4 O 1.84249 -0.710851 0.0140073 0
M  V30 5 C 0.842049 0.246412 0.175255 0
M  V30 6 O 1.24534 1.37888 0.460215 0
M  V30 7 C -0.559277 -0.0675374 0.0197672 0
M  V30 8 C -0.836941 -1.40809 -0.3187 0
M  V30 9 C -2.11167 -1.8668 -0.503544 0
M  V30 10 C -3.1808 -0.981583 -0.353328 0
M  V30 11 N -4.48241 -1.49262 -0.552349 0
M  V30 12 C -2.92964 0.328802 -0.0236329 0
M  V30 13 C -1.6106 0.791663 0.164834 0
M  V30 14 S -1.34826 2.45916 0.583243 0
M  V30 15 N -2.89601 3.28067 0.686501 0
M  V30 16 O -0.681972 2.62403 1.91394 0
M  V30 17 O -0.581268 3.17135 -0.456683 0
M  V30 18 H 4.05568 0.305419 -1.71845 0
M  V30 19 H 5.04801 -0.843329 -0.80423 0
M  V30 20 H 3.64546 -1.49088 -1.67836 0
M  V30 21 H 3.27775 0.673752 0.418338 0
M  V30 22 H 4.56014 -1.97538 0.928551 0
M  V30 23 H 3.14402 -1.6497 1.96776 0
M  V30 24 H 4.49279 -0.500076 1.91428 0
M  V30 25 H -0.0139264 -2.113 -0.440001 0
M  V30 26 H -2.28939 -2.91808 -0.766631 0
M  V30 27 H -5.02653 -1.81529 0.260164 0
M  V30 28 H -4.88566 -1.54333 -1.49816 0
M  V30 29 H -3.7538 1.02182 0.094716 0
M  V30 30 H -2.64781 4.30192 0.689278 0
M  V30 31 H -3.39063 2.99965 1.55675 0
M  V30 END ATOM
M  V30 BEGIN BOND
M  V30 1 1 1 2
M  V30 2 1 2 3
M  V30 3 1 2 4
M  V30 4 1 4 5
M  V30 5 2 5 6
M  V30 6 1 5 7
M  V30 7 2 7 8
M  V30 8 1 8 9
M  V30 9 2 9 10
M  V30 10 1 10 11
M  V30 11 1 10 12
M  V30 12 2 12 13
M  V30 13 1 13 14
M  V30 14 1 14 15
M  V30 15 2 14 16
M  V30 16 2 14 17
M  V30 17 1 13 7
M  V30 18 1 1 18
M  V30 19 1 1 19
M  V30 20 1 1 20
M  V30 21 1 2 21
M  V30 22 1 3 22
M  V30 23 1 3 23
M  V30 24 1 3 24
M  V30 25 1 8 25
M  V30 26 1 9 26
M  V30 27 1 11 27
M  V30 28 1 11 28
M  V30 29 1 12 29
M  V30 30 1 15 30
M  V30 31 1 15 31
M  V30 END BOND
M  V30 END CTAB
M  END
