
     RDKit          3D

  0  0  0  0  0  0  0  0  0  0999 V3000
M  V30 BEGIN CTAB
M  V30 COUNTS 31 31 0 0 0
M  V30 BEGIN ATOM
M  V30 1 C 0.211635 -1.71446 0.956681 0
M  V30 2 C 0.0380122 -0.68479 -0.168762 0
M  V30 3 C -0.313485 -1.42802 -1.39764 0
M  V30 4 C -1.11668 0.20412 0.261917 0
M  V30 5 C -2.06244 0.504469 -0.86733 0
M  V30 6 N -1.82703 -0.327655 1.39659 0
M  V30 7 C -0.48774 1.52591 0.680229 0
M  V30 8 C 0.672811 1.61662 -0.291654 0
M  V30 9 C 1.21834 0.186825 -0.222486 0
M  V30 10 C 2.0729 0.140202 1.05305 0
M  V30 11 N 2.11439 -0.000652612 -1.30677 0
M  V30 12 H 0.910532 -2.47917 0.562184 0
M  V30 13 H 0.516068 -1.25649 1.89591 0
M  V30 14 H -0.749396 -2.23817 1.13267 0
M  V30 15 H -0.22691 -0.895296 -2.33744 0
M  V30 16 H -1.39603 -1.74001 -1.30463 0
M  V30 17 H 0.242846 -2.40993 -1.38621 0
M  V30 18 H -1.58056 0.552772 -1.8551 0
M  V30 19 H -2.48371 1.53268 -0.687387 0
M  V30 20 H -2.92192 -0.181066 -0.823596 0
M  V30 21 H -1.53603 0.117439 2.30853 0
M  V30 22 H -2.84122 -0.0630998 1.28838 0
M  V30 23 H -0.193577 1.55613 1.72445 0
M  V30 24 H -1.22909 2.34223 0.505499 0
M  V30 25 H 1.41309 2.36102 0.000146332 0
M  V30 26 H 0.225004 1.78841 -1.2938 0
M  V30 27 H 1.5435 0.505708 1.9249 0
M  V30 28 H 2.96376 0.789219 0.810104 0
M  V30 29 H 2.46459 -0.886309 1.12117 0
M  V30 30 H 1.72211 -0.311077 -2.1904 0
M  V30 31 H 2.63625 0.892442 -1.48922 0
M  V30 END ATOM
M  V30 BEGIN BOND
M  V30 1 1 1 2
M  V30 2 1 2 3
M  V30 3 1 2 4
M  V30 4 1 4 5
M  V30 5 1 4 6
M  V30 6 1 4 7
M  V30 7 1 7 8
M  V30 8 1 8 9
M  V30 9 1 9 10
M  V30 10 1 9 11
M  V30 11 1 9 2
M  V30 12 1 1 12
M  V30 13 1 1 13
M  V30 14 1 1 14
M  V30 15 1 3 15
M  V30 16 1 3 16
M  V30 17 1 3 17
M  V30 18 1 5 18
M  V30 19 1 5 19
M  V30 20 1 5 20
M  V30 21 1 6 21
M  V30 22 1 6 22
M  V30 23 1 7 23
M  V30 24 1 7 24
M  V30 25 1 8 25
M  V30 26 1 8 26
M  V30 27 1 10 27
M  V30 28 1 10 28
M  V30 29 1 10 29
M  V30 30 1 11 30
M  V30 31 1 11 31
M  V30 END BOND
M  V30 END CTAB
M  END
