
     RDKit          3D

  0  0  0  0  0  0  0  0  0  0999 V3000
M  V30 BEGIN CTAB
M  V30 COUNTS 66 71 0 0 0
M  V30 BEGIN ATOM
M  V30 1 N 8.05249 0.150912 3.80388 0
M  V30 2 C 7.89755 -0.337032 2.47951 0
M  V30 3 N 7.04559 0.213615 1.59714 0
M  V30 4 C 6.97949 -0.329399 0.369569 0
M  V30 5 C 7.74944 -1.41942 -0.00529204 0
M  V30 6 N 7.48302 -1.75624 -1.28824 0
M  V30 7 C 6.55312 -0.88006 -1.70665 0
M  V30 8 N 6.23429 -0.0136987 -0.730326 0
M  V30 9 C 5.27199 1.08784 -0.77778 0 CFG=1
M  V30 10 C 5.06439 1.49818 -2.20173 0
M  V30 11 C 3.68155 0.900219 -2.48944 0 CFG=2
M  V30 12 O 2.97277 1.6918 -3.37746 0
M  V30 13 C 3.05662 1.00444 -1.09792 0 CFG=1
M  V30 14 C 1.86295 0.109093 -0.98955 0
M  V30 15 O 0.853066 0.557667 -1.8396 0
M  V30 16 P -0.449181 -0.531799 -1.63357 0
M  V30 17 O -1.56599 -0.415497 -2.86495 0
M  V30 18 O 0.165096 -1.92767 -1.66327 0
M  V30 19 O -1.09266 -0.23596 -0.108333 0
M  V30 20 C -2.47671 -0.25292 -0.100383 0 CFG=1
M  V30 21 C -2.88478 -1.34204 0.89933 0
M  V30 22 C -4.14113 -0.774505 1.47912 0 CFG=1
M  V30 23 O -3.91017 0.573899 1.54189 0
M  V30 24 C -3.08908 0.959436 0.511958 0 CFG=2
M  V30 25 C -3.93456 1.74485 -0.488125 0
M  V30 26 O -4.49294 2.87006 0.114172 0
M  V30 27 N -5.31037 -1.14393 0.746117 0
M  V30 28 C -5.39473 -1.9983 -0.288595 0
M  V30 29 N -6.67671 -2.0798 -0.708276 0
M  V30 30 C -7.41131 -1.26556 0.0724823 0
M  V30 31 C -6.54892 -0.678056 0.986667 0
M  V30 32 N -7.05323 0.181716 1.87925 0
M  V30 33 C -8.35491 0.478817 1.9035 0
M  V30 34 N -8.8317 1.39798 2.87331 0
M  V30 35 N -9.23162 -0.0575155 1.04642 0
M  V30 36 C -8.7455 -0.92879 0.135636 0
M  V30 37 O -9.51703 -1.47184 -0.702889 0
M  V30 38 O 4.08612 0.612591 -0.282576 0
M  V30 39 C 8.6089 -1.95588 0.922534 0
M  V30 40 O 9.32825 -2.95411 0.612201 0
M  V30 41 N 8.66643 -1.40446 2.14689 0
M  V30 42 H 7.38112 -0.0257445 4.58023 0
M  V30 43 H 8.89174 0.726275 4.0253 0
M  V30 44 H 6.10916 -0.867304 -2.70872 0
M  V30 45 H 5.64859 1.96425 -0.196896 0
M  V30 46 H 5.824 1.14315 -2.90213 0
M  V30 47 H 5.01578 2.60558 -2.27315 0
M  V30 48 H 3.79433 -0.145503 -2.81646 0
M  V30 49 H 2.32849 1.12845 -3.84487 0
M  V30 50 H 2.75691 2.06241 -0.973349 0
M  V30 51 H 2.18844 -0.913963 -1.30238 0
M  V30 52 H 1.53914 0.0475614 0.0591529 0
M  V30 53 H -1.21356 0.164783 -3.59491 0
M  V30 54 H -2.89306 -0.460731 -1.11117 0
M  V30 55 H -2.13375 -1.41314 1.70687 0
M  V30 56 H -2.9781 -2.32222 0.439016 0
M  V30 57 H -4.21863 -1.17384 2.52898 0
M  V30 58 H -2.29717 1.66594 0.852144 0
M  V30 59 H -3.31869 2.02888 -1.38498 0
M  V30 60 H -4.77885 1.14015 -0.878537 0
M  V30 61 H -4.61105 3.55643 -0.584841 0
M  V30 62 H -4.60417 -2.56852 -0.765903 0
M  V30 63 H -8.83928 2.40905 2.68727 0
M  V30 64 H -9.17789 1.03944 3.7849 0
M  V30 65 H -10.2469 0.159153 1.0473 0
M  V30 66 H 9.33354 -1.82916 2.85053 0
M  V30 END ATOM
M  V30 BEGIN BOND
M  V30 1 1 1 2
M  V30 2 2 2 3
M  V30 3 1 3 4
M  V30 4 2 4 5
M  V30 5 1 5 6
M  V30 6 2 6 7
M  V30 7 1 7 8
M  V30 8 1 8 9
M  V30 9 1 9 10
M  V30 10 1 10 11
M  V30 11 1 11 12
M  V30 12 1 11 13
M  V30 13 1 13 14
M  V30 14 1 14 15
M  V30 15 1 15 16
M  V30 16 1 16 17
M  V30 17 2 16 18
M  V30 18 1 16 19
M  V30 19 1 19 20
M  V30 20 1 20 21
M  V30 21 1 21 22
M  V30 22 1 22 23
M  V30 23 1 23 24
M  V30 24 1 24 25
M  V30 25 1 25 26
M  V30 26 1 22 27
M  V30 27 1 27 28
M  V30 28 2 28 29
M  V30 29 1 29 30
M  V30 30 2 30 31
M  V30 31 1 31 32
M  V30 32 2 32 33
M  V30 33 1 33 34
M  V30 34 1 33 35
M  V30 35 1 35 36
M  V30 36 2 36 37
M  V30 37 1 13 38
M  V30 38 1 5 39
M  V30 39 2 39 40
M  V30 40 1 39 41
M  V30 41 1 41 2
M  V30 42 1 8 4
M  V30 43 1 38 9
M  V30 44 1 24 20
M  V30 45 1 31 27
M  V30 46 1 36 30
M  V30 47 1 1 42
M  V30 48 1 1 43
M  V30 49 1 7 44
M  V30 50 1 9 45 CFG=1
M  V30 51 1 10 46
M  V30 52 1 10 47
M  V30 53 1 11 48 CFG=3
M  V30 54 1 12 49
M  V30 55 1 13 50 CFG=1
M  V30 56 1 14 51
M  V30 57 1 14 52
M  V30 58 1 17 53
M  V30 59 1 20 54 CFG=3
M  V30 60 1 21 55
M  V30 61 1 21 56
M  V30 62 1 22 57 CFG=1
M  V30 63 1 24 58 CFG=1
M  V30 64 1 25 59
M  V30 65 1 25 60
M  V30 66 1 26 61
M  V30 67 1 28 62
M  V30 68 1 34 63
M  V30 69 1 34 64
M  V30 70 1 35 65
M  V30 71 1 41 66
M  V30 END BOND
M  V30 END CTAB
M  END
