
     RDKit          3D

  0  0  0  0  0  0  0  0  0  0999 V3000
M  V30 BEGIN CTAB
M  V30 COUNTS 43 44 0 0 0
M  V30 BEGIN ATOM
M  V30 1 N -4.56571 0.830119 2.25224 0
M  V30 2 C -5.56197 0.332541 1.34348 0
M  V30 3 C -5.18436 -0.874903 0.562891 0
M  V30 4 C -4.01343 -0.751894 -0.324622 0
M  V30 5 N -2.75692 -0.452961 0.288659 0
M  V30 6 C -1.59706 -0.264547 -0.549444 0
M  V30 7 N -0.402218 0.0149017 -0.0461257 0
M  V30 8 C 0.735727 0.204405 -0.796949 0
M  V30 9 N 1.9488 0.496901 -0.146108 0
M  V30 10 C 1.90677 0.579436 1.31973 0
M  V30 11 C 3.26953 0.897476 1.88368 0
M  V30 12 C 4.23431 -0.196442 1.60877 0
M  V30 13 C 5.26472 0.416979 0.728329 0
M  V30 14 C 4.9266 1.86913 0.733563 0
M  V30 15 O 3.7845 2.08289 1.44657 0
M  V30 16 C 0.648094 0.102174 -2.14579 0
M  V30 17 C -0.625479 -0.195788 -2.68378 0
M  V30 18 N -1.6879 -0.366544 -1.88379 0
M  V30 19 N -0.712513 -0.301959 -4.09749 0
M  V30 20 N 1.71753 0.269233 -3.02909 0 CHG=1
M  V30 21 O 2.87879 0.527525 -2.74968 0
M  V30 22 O 1.51297 0.140527 -4.41763 0 CHG=-1
M  V30 23 H -4.93301 1.5635 2.89512 0
M  V30 24 H -4.3204 0.0207134 2.8929 0
M  V30 25 H -5.92202 1.16838 0.68205 0
M  V30 26 H -6.46437 0.0981866 1.98258 0
M  V30 27 H -5.06962 -1.78151 1.1967 0
M  V30 28 H -6.06827 -1.12996 -0.0985954 0
M  V30 29 H -4.16658 -0.0325453 -1.16038 0
M  V30 30 H -3.88145 -1.75624 -0.831 0
M  V30 31 H -2.56255 -0.357804 1.30825 0
M  V30 32 H 2.83593 0.65208 -0.613674 0
M  V30 33 H 1.61066 -0.414523 1.71389 0
M  V30 34 H 1.13202 1.29802 1.65637 0
M  V30 35 H 3.13683 0.969348 2.98903 0
M  V30 36 H 3.69398 -1.04236 1.1321 0
M  V30 37 H 4.68703 -0.608837 2.55198 0
M  V30 38 H 6.2775 0.29934 1.20433 0
M  V30 39 H 5.28515 -0.0469406 -0.275425 0
M  V30 40 H 4.72775 2.16208 -0.339223 0
M  V30 41 H 5.7907 2.49982 1.07639 0
M  V30 42 H -0.934165 0.587459 -4.62642 0
M  V30 43 H -0.575937 -1.17581 -4.6344 0
M  V30 END ATOM
M  V30 BEGIN BOND
M  V30 1 1 1 2
M  V30 2 1 2 3
M  V30 3 1 3 4
M  V30 4 1 4 5
M  V30 5 1 5 6
M  V30 6 2 6 7
M  V30 7 1 7 8
M  V30 8 1 8 9
M  V30 9 1 9 10
M  V30 10 1 10 11
M  V30 11 1 11 12
M  V30 12 1 12 13
M  V30 13 1 13 14
M  V30 14 1 14 15
M  V30 15 2 8 16
M  V30 16 1 16 17
M  V30 17 2 17 18
M  V30 18 1 17 19
M  V30 19 1 16 20
M  V30 20 2 20 21
M  V30 21 1 20 22
M  V30 22 1 18 6
M  V30 23 1 15 11
M  V30 24 1 1 23
M  V30 25 1 1 24
M  V30 26 1 2 25
M  V30 27 1 2 26
M  V30 28 1 3 27
M  V30 29 1 3 28
M  V30 30 1 4 29
M  V30 31 1 4 30
M  V30 32 1 5 31
M  V30 33 1 9 32
M  V30 34 1 10 33
M  V30 35 1 10 34
M  V30 36 1 11 35
M  V30 37 1 12 36
M  V30 38 1 12 37
M  V30 39 1 13 38
M  V30 40 1 13 39
M  V30 41 1 14 40
M  V30 42 1 14 41
M  V30 43 1 19 42
M  V30 44 1 19 43
M  V30 END BOND
M  V30 END CTAB
M  END
