
     RDKit          3D

  0  0  0  0  0  0  0  0  0  0999 V3000
M  V30 BEGIN CTAB
M  V30 COUNTS 23 23 0 0 0
M  V30 BEGIN ATOM
M  V30 1 N 4.82531 0.350322 -0.0834183 0
M  V30 2 C 3.50458 -0.0791537 0.225617 0
M  V30 3 S 3.36259 -1.41228 1.12792 0
M  V30 4 N 2.41462 0.614669 -0.261206 0
M  V30 5 C 1.03184 0.380493 -0.0722684 0
M  V30 6 C 0.148488 0.820887 -1.05538 0
M  V30 7 C -1.20907 0.682495 -0.988288 0
M  V30 8 C -1.76117 0.0724058 0.11101 0
M  V30 9 C -0.901078 -0.366719 1.08924 0
M  V30 10 C 0.470898 -0.22754 1.02366 0
M  V30 11 S -3.49337 -0.110319 0.207288 0
M  V30 12 N -3.95346 -1.6024 -0.500434 0
M  V30 13 O -4.12099 1.0143 -0.564499 0
M  V30 14 O -3.9655 -0.0440487 1.62111 0
M  V30 15 H 5.18908 1.21352 0.354826 0
M  V30 16 H 5.43621 -0.173038 -0.733641 0
M  V30 17 H 2.61928 1.48111 -0.882656 0
M  V30 18 H 0.549188 1.30969 -1.94366 0
M  V30 19 H -1.85104 1.04313 -1.78133 0
M  V30 20 H -1.35426 -0.854307 1.9661 0
M  V30 21 H 1.07595 -0.589234 1.85356 0
M  V30 22 H -4.83709 -1.5075 -1.06621 0
M  V30 23 H -3.18102 -2.0165 -1.09771 0
M  V30 END ATOM
M  V30 BEGIN BOND
M  V30 1 1 1 2
M  V30 2 2 2 3
M  V30 3 1 2 4
M  V30 4 1 4 5
M  V30 5 2 5 6
M  V30 6 1 6 7
M  V30 7 2 7 8
M  V30 8 1 8 9
M  V30 9 2 9 10
M  V30 10 1 8 11
M  V30 11 1 11 12
M  V30 12 2 11 13
M  V30 13 2 11 14
M  V30 14 1 10 5
M  V30 15 1 1 15
M  V30 16 1 1 16
M  V30 17 1 4 17
M  V30 18 1 6 18
M  V30 19 1 7 19
M  V30 20 1 9 20
M  V30 21 1 10 21
M  V30 22 1 12 22
M  V30 23 1 12 23
M  V30 END BOND
M  V30 END CTAB
M  END
