
     RDKit          3D

  0  0  0  0  0  0  0  0  0  0999 V3000
M  V30 BEGIN CTAB
M  V30 COUNTS 47 48 0 0 0
M  V30 BEGIN ATOM
M  V30 1 N 6.22387 -2.40304 -1.09376 0
M  V30 2 C 5.52345 -1.11003 -1.18357 0
M  V30 3 C 5.64821 -0.477165 0.178988 0
M  V30 4 C 4.98594 0.867937 0.27972 0
M  V30 5 C 3.5057 0.781504 -0.0158513 0
M  V30 6 C 2.8213 -0.126766 0.939492 0
M  V30 7 C 1.35745 -0.280891 0.747794 0
M  V30 8 C 0.545515 0.933343 0.895714 0
M  V30 9 O 1.06072 2.01709 1.20896 0
M  V30 10 C -0.885797 0.865562 0.672355 0
M  V30 11 C -1.78137 1.90996 0.771437 0
M  V30 12 N -1.40005 3.22841 1.11308 0
M  V30 13 N -3.0268 1.48404 0.500774 0
M  V30 14 N -2.96389 0.170621 0.224173 0
M  V30 15 C -1.67155 -0.221756 0.323585 0
M  V30 16 O -1.25916 -1.39395 0.127554 0
M  V30 17 C -4.0711 -0.650816 -0.10931 0
M  V30 18 C -4.0448 -1.49393 -1.19552 0
M  V30 19 C -5.12867 -2.30447 -1.52766 0
M  V30 20 C -6.25458 -2.24977 -0.735456 0
M  V30 21 C -6.31584 -1.41966 0.356656 0
M  V30 22 C -5.21069 -0.616995 0.665224 0
M  V30 23 C -4.20086 2.33635 0.518879 0
M  V30 24 H 6.96021 -2.34229 -0.367394 0
M  V30 25 H 5.48536 -3.06906 -0.731601 0
M  V30 26 H 6.0494 -0.46547 -1.90175 0
M  V30 27 H 4.49592 -1.29082 -1.5045 0
M  V30 28 H 6.75856 -0.308014 0.332057 0
M  V30 29 H 5.25376 -1.11941 0.999783 0
M  V30 30 H 5.07055 1.17699 1.35454 0
M  V30 31 H 5.4837 1.63069 -0.341242 0
M  V30 32 H 3.4328 0.382784 -1.05337 0
M  V30 33 H 3.07665 1.78758 -0.0375567 0
M  V30 34 H 3.24424 -1.175 0.88131 0
M  V30 35 H 2.98723 0.235167 1.98631 0
M  V30 36 H 0.945454 -1.01016 1.51283 0
M  V30 37 H 1.11942 -0.781377 -0.231743 0
M  V30 38 H -0.703355 3.75862 0.569596 0
M  V30 39 H -1.82146 3.71148 1.94095 0
M  V30 40 H -3.14787 -1.52736 -1.81429 0
M  V30 41 H -5.06164 -2.94196 -2.37903 0
M  V30 42 H -7.11199 -2.86943 -0.970513 0
M  V30 43 H -7.18921 -1.37026 0.980179 0
M  V30 44 H -5.21489 0.0503165 1.51416 0
M  V30 45 H -4.59989 2.36946 1.55824 0
M  V30 46 H -4.99843 1.95499 -0.138381 0
M  V30 47 H -3.97151 3.36697 0.173493 0
M  V30 END ATOM
M  V30 BEGIN BOND
M  V30 1 1 1 2
M  V30 2 1 2 3
M  V30 3 1 3 4
M  V30 4 1 4 5
M  V30 5 1 5 6
M  V30 6 1 6 7
M  V30 7 1 7 8
M  V30 8 2 8 9
M  V30 9 1 8 10
M  V30 10 2 10 11
M  V30 11 1 11 12
M  V30 12 1 11 13
M  V30 13 1 13 14
M  V30 14 1 14 15
M  V30 15 2 15 16
M  V30 16 1 14 17
M  V30 17 2 17 18
M  V30 18 1 18 19
M  V30 19 2 19 20
M  V30 20 1 20 21
M  V30 21 2 21 22
M  V30 22 1 13 23
M  V30 23 1 15 10
M  V30 24 1 22 17
M  V30 25 1 1 24
M  V30 26 1 1 25
M  V30 27 1 2 26
M  V30 28 1 2 27
M  V30 29 1 3 28
M  V30 30 1 3 29
M  V30 31 1 4 30
M  V30 32 1 4 31
M  V30 33 1 5 32
M  V30 34 1 5 33
M  V30 35 1 6 34
M  V30 36 1 6 35
M  V30 37 1 7 36
M  V30 38 1 7 37
M  V30 39 1 12 38
M  V30 40 1 12 39
M  V30 41 1 18 40
M  V30 42 1 19 41
M  V30 43 1 20 42
M  V30 44 1 21 43
M  V30 45 1 22 44
M  V30 46 1 23 45
M  V30 47 1 23 46
M  V30 48 1 23 47
M  V30 END BOND
M  V30 END CTAB
M  END
