
     RDKit          3D

  0  0  0  0  0  0  0  0  0  0999 V3000
M  V30 BEGIN CTAB
M  V30 COUNTS 20 20 0 0 0
M  V30 BEGIN ATOM
M  V30 1 O -2.57643 1.37134 -0.580072 0
M  V30 2 C -1.20153 1.54645 -0.563571 0
M  V30 3 O -0.714095 2.65826 -0.87077 0
M  V30 4 C -0.382063 0.409754 -0.183632 0
M  V30 5 C -0.962443 -0.796285 0.147037 0
M  V30 6 N -2.3858 -0.940707 0.11903 0
M  V30 7 C -0.144524 -1.85296 0.502995 0
M  V30 8 C 1.22782 -1.7166 0.530862 0
M  V30 9 C 1.76896 -0.489748 0.192026 0
M  V30 10 C 0.991456 0.586055 -0.167613 0
M  V30 11 N 1.56761 1.83664 -0.511756 0
M  V30 12 O 3.16022 -0.318913 0.210558 0
M  V30 13 H -3.1061 1.54854 0.269528 0
M  V30 14 H -2.84492 -1.08589 -0.806978 0
M  V30 15 H -2.93503 -0.899787 1.0071 0
M  V30 16 H -0.646757 -2.78151 0.754826 0
M  V30 17 H 1.83673 -2.56381 0.813903 0
M  V30 18 H 1.67509 2.62122 0.174663 0
M  V30 19 H 1.88724 1.94125 -1.50485 0
M  V30 20 H 3.78457 -1.0733 0.466713 0
M  V30 END ATOM
M  V30 BEGIN BOND
M  V30 1 1 1 2
M  V30 2 2 2 3
M  V30 3 1 2 4
M  V30 4 2 4 5
M  V30 5 1 5 6
M  V30 6 1 5 7
M  V30 7 2 7 8
M  V30 8 1 8 9
M  V30 9 2 9 10
M  V30 10 1 10 11
M  V30 11 1 9 12
M  V30 12 1 10 4
M  V30 13 1 1 13
M  V30 14 1 6 14
M  V30 15 1 6 15
M  V30 16 1 7 16
M  V30 17 1 8 17
M  V30 18 1 11 18
M  V30 19 1 11 19
M  V30 20 1 12 20
M  V30 END BOND
M  V30 END CTAB
M  END
