
     RDKit          3D

  0  0  0  0  0  0  0  0  0  0999 V3000
M  V30 BEGIN CTAB
M  V30 COUNTS 44 46 0 0 0
M  V30 BEGIN ATOM
M  V30 1 N -2.41792 3.00897 -2.94448 0
M  V30 2 C -2.81355 1.78722 -2.34779 0
M  V30 3 C -3.8756 1.71768 -1.47446 0
M  V30 4 C -4.2022 0.494242 -0.933122 0
M  V30 5 C -3.47679 -0.634906 -1.26263 0
M  V30 6 C -2.42518 -0.562324 -2.12822 0
M  V30 7 C -2.08766 0.644442 -2.67459 0
M  V30 8 S -3.92763 -2.18434 -0.547288 0
M  V30 9 O -3.68296 -3.29534 -1.50747 0
M  V30 10 O -5.40752 -2.11935 -0.301886 0
M  V30 11 N -3.05647 -2.37552 0.933238 0
M  V30 12 C -1.63644 -2.4216 0.977852 0
M  V30 13 C -0.905079 -3.17938 0.0877267 0
M  V30 14 C 0.473126 -3.21323 0.145473 0
M  V30 15 C 1.19347 -2.49031 1.09742 0
M  V30 16 C 0.456984 -1.735 1.98438 0
M  V30 17 C -0.927101 -1.70461 1.92177 0
M  V30 18 S 2.9404 -2.58696 1.114 0
M  V30 19 O 3.35145 -2.33275 2.55995 0
M  V30 20 O 3.39309 -4.00251 0.827901 0
M  V30 21 N 3.69349 -1.46397 0.0651686 0
M  V30 22 C 3.52938 -0.0688777 0.248003 0
M  V30 23 N 2.84726 0.623756 1.15146 0
M  V30 24 N 2.84239 1.88335 1.12267 0
M  V30 25 C 3.52254 2.53317 0.184165 0
M  V30 26 S 4.19629 1.20907 -0.690237 0
M  V30 27 S 3.69309 4.25675 -0.0950033 0
M  V30 28 N 5.07104 4.78209 0.80634 0
M  V30 29 O 2.46832 4.97534 0.322969 0
M  V30 30 O 4.02308 4.48625 -1.5552 0
M  V30 31 H -2.02872 3.05492 -3.90488 0
M  V30 32 H -2.52781 3.8788 -2.38817 0
M  V30 33 H -4.43753 2.58786 -1.21821 0
M  V30 34 H -5.01787 0.409154 -0.255193 0
M  V30 35 H -1.85857 -1.471 -2.37973 0
M  V30 36 H -1.25624 0.711364 -3.3611 0
M  V30 37 H -3.62431 -2.45738 1.80951 0
M  V30 38 H -1.41379 -3.76227 -0.67429 0
M  V30 39 H 1.04932 -3.80577 -0.550249 0
M  V30 40 H 0.987022 -1.1597 2.74451 0
M  V30 41 H -1.50704 -1.11309 2.61595 0
M  V30 42 H 4.28089 -1.79288 -0.719321 0
M  V30 43 H 4.74578 4.89388 1.80008 0
M  V30 44 H 5.75557 3.99477 0.81001 0
M  V30 END ATOM
M  V30 BEGIN BOND
M  V30 1 1 1 2
M  V30 2 2 2 3
M  V30 3 1 3 4
M  V30 4 2 4 5
M  V30 5 1 5 6
M  V30 6 2 6 7
M  V30 7 1 5 8
M  V30 8 2 8 9
M  V30 9 2 8 10
M  V30 10 1 8 11
M  V30 11 1 11 12
M  V30 12 2 12 13
M  V30 13 1 13 14
M  V30 14 2 14 15
M  V30 15 1 15 16
M  V30 16 2 16 17
M  V30 17 1 15 18
M  V30 18 2 18 19
M  V30 19 2 18 20
M  V30 20 1 18 21
M  V30 21 1 21 22
M  V30 22 2 22 23
M  V30 23 1 23 24
M  V30 24 2 24 25
M  V30 25 1 25 26
M  V30 26 1 25 27
M  V30 27 1 27 28
M  V30 28 2 27 29
M  V30 29 2 27 30
M  V30 30 1 7 2
M  V30 31 1 17 12
M  V30 32 1 26 22
M  V30 33 1 1 31
M  V30 34 1 1 32
M  V30 35 1 3 33
M  V30 36 1 4 34
M  V30 37 1 6 35
M  V30 38 1 7 36
M  V30 39 1 11 37
M  V30 40 1 13 38
M  V30 41 1 14 39
M  V30 42 1 16 40
M  V30 43 1 17 41
M  V30 44 1 21 42
M  V30 45 1 28 43
M  V30 46 1 28 44
M  V30 END BOND
M  V30 END CTAB
M  END
