
     RDKit          3D

  0  0  0  0  0  0  0  0  0  0999 V3000
M  V30 BEGIN CTAB
M  V30 COUNTS 81 80 0 0 0
M  V30 BEGIN ATOM
M  V30 1 C 4.62627 -6.76383 -0.446114 0
M  V30 2 C 5.08879 -5.39753 -0.866382 0
M  V30 3 C 6.58093 -5.31335 -1.07846 0
M  V30 4 O 4.72753 -4.40129 0.0711015 0
M  V30 5 C 3.90508 -3.38538 -0.31728 0
M  V30 6 O 3.49068 -3.37325 -1.51857 0
M  V30 7 C 3.45354 -2.2858 0.558699 0
M  V30 8 N 2.5925 -1.35975 -0.151462 0
M  V30 9 C 2.05236 -0.230954 0.484361 0
M  V30 10 O 2.3825 -0.0737829 1.7433 0
M  V30 11 C 1.1822 0.808717 -0.0185251 0 CFG=2
M  V30 12 C 1.04161 0.86437 -1.49777 0
M  V30 13 S 0.292751 -0.643631 -2.19263 0
M  V30 14 S -1.71318 -0.857131 -1.58892 0
M  V30 15 C -1.90875 -1.77773 -0.0633331 0
M  V30 16 C -3.39004 -1.84748 0.25019 0 CFG=2
M  V30 17 N -3.88319 -0.487467 0.394434 0
M  V30 18 C -4.83811 0.0846882 -0.465885 0
M  V30 19 O -5.30502 -0.579441 -1.40702 0
M  V30 20 C -5.28829 1.47499 -0.253687 0
M  V30 21 C -6.30054 1.81488 -1.30163 0
M  V30 22 C -6.87531 3.18984 -1.2354 0 CFG=2
M  V30 23 N -7.83621 3.25723 -2.36185 0
M  V30 24 C -5.84125 4.21864 -1.48412 0
M  V30 25 O -5.8304 4.96745 -2.67522 0
M  V30 26 O -4.92888 4.48536 -0.671789 0
M  V30 27 C -3.63957 -2.61709 1.48954 0
M  V30 28 O -4.21746 -2.05437 2.4502 0
M  V30 29 N -3.22919 -3.96273 1.57861 0
M  V30 30 C -3.48035 -4.69701 2.79413 0
M  V30 31 C -2.97861 -6.08173 2.69712 0
M  V30 32 O -3.1262 -6.94564 3.77922 0
M  V30 33 O -2.42416 -6.4668 1.64138 0
M  V30 34 N 1.47894 2.14255 0.498238 0
M  V30 35 C 2.62434 2.88096 0.144166 0
M  V30 36 O 3.45606 2.40291 -0.64762 0
M  V30 37 C 2.843 4.22203 0.709676 0
M  V30 38 C 4.15306 4.79943 0.186837 0
M  V30 39 C 4.34717 6.18478 0.790145 0 CFG=2
M  V30 40 N 3.24814 7.04938 0.408969 0
M  V30 41 C 5.64241 6.75947 0.41668 0
M  V30 42 O 6.79858 6.02665 0.740455 0
M  V30 43 O 5.78582 7.8429 -0.162314 0
M  V30 44 H 4.56611 -7.45686 -1.30292 0
M  V30 45 H 3.56418 -6.64651 -0.0929398 0
M  V30 46 H 5.23379 -7.21157 0.347296 0
M  V30 47 H 4.61097 -5.19359 -1.86773 0
M  V30 48 H 6.80076 -4.26902 -1.3869 0
M  V30 49 H 6.87508 -5.95705 -1.92834 0
M  V30 50 H 7.15592 -5.49645 -0.16001 0
M  V30 51 H 4.37222 -1.77504 0.94178 0
M  V30 52 H 2.89197 -2.66501 1.44952 0
M  V30 53 H 2.41095 -1.56601 -1.1367 0
M  V30 54 H 0.117657 0.556569 0.344193 0
M  V30 55 H 0.317214 1.68966 -1.78037 0
M  V30 56 H 1.991 1.09952 -2.04692 0
M  V30 57 H -1.4156 -1.22198 0.758308 0
M  V30 58 H -1.45552 -2.78864 -0.113775 0
M  V30 59 H -3.88673 -2.31013 -0.627974 0
M  V30 60 H -3.51116 0.107183 1.18263 0
M  V30 61 H -5.71063 1.53014 0.773409 0
M  V30 62 H -4.41343 2.1785 -0.22696 0
M  V30 63 H -7.1084 1.05511 -1.21982 0
M  V30 64 H -5.88962 1.68642 -2.34019 0
M  V30 65 H -7.45843 3.39117 -0.314483 0
M  V30 66 H -8.52821 4.0121 -2.15695 0
M  V30 67 H -8.31055 2.32018 -2.47528 0
M  V30 68 H -6.2447 4.50525 -3.48643 0
M  V30 69 H -2.753 -4.40214 0.767811 0
M  V30 70 H -4.583 -4.70172 2.99949 0
M  V30 71 H -2.96353 -4.15217 3.62067 0
M  V30 72 H -3.53056 -6.64187 4.63225 0
M  V30 73 H 0.801851 2.58936 1.17938 0
M  V30 74 H 2.87491 4.14105 1.80895 0
M  V30 75 H 2.01124 4.90458 0.450979 0
M  V30 76 H 5.00896 4.15262 0.457545 0
M  V30 77 H 4.10887 4.89553 -0.915617 0
M  V30 78 H 4.3201 6.07817 1.90392 0
M  V30 79 H 2.38828 6.85587 0.989734 0
M  V30 80 H 2.97565 6.85081 -0.593527 0
M  V30 81 H 7.60583 5.98193 0.144483 0
M  V30 END ATOM
M  V30 BEGIN BOND
M  V30 1 1 1 2
M  V30 2 1 2 3
M  V30 3 1 2 4
M  V30 4 1 4 5
M  V30 5 2 5 6
M  V30 6 1 5 7
M  V30 7 1 7 8
M  V30 8 1 8 9
M  V30 9 2 9 10
M  V30 10 1 9 11
M  V30 11 1 11 12
M  V30 12 1 12 13
M  V30 13 1 13 14
M  V30 14 1 14 15
M  V30 15 1 15 16
M  V30 16 1 16 17
M  V30 17 1 17 18
M  V30 18 2 18 19
M  V30 19 1 18 20
M  V30 20 1 20 21
M  V30 21 1 21 22
M  V30 22 1 22 23
M  V30 23 1 22 24
M  V30 24 1 24 25
M  V30 25 2 24 26
M  V30 26 1 16 27
M  V30 27 2 27 28
M  V30 28 1 27 29
M  V30 29 1 29 30
M  V30 30 1 30 31
M  V30 31 1 31 32
M  V30 32 2 31 33
M  V30 33 1 11 34
M  V30 34 1 34 35
M  V30 35 2 35 36
M  V30 36 1 35 37
M  V30 37 1 37 38
M  V30 38 1 38 39
M  V30 39 1 39 40
M  V30 40 1 39 41
M  V30 41 1 41 42
M  V30 42 2 41 43
M  V30 43 1 1 44
M  V30 44 1 1 45
M  V30 45 1 1 46
M  V30 46 1 2 47
M  V30 47 1 3 48
M  V30 48 1 3 49
M  V30 49 1 3 50
M  V30 50 1 7 51
M  V30 51 1 7 52
M  V30 52 1 8 53
M  V30 53 1 11 54 CFG=1
M  V30 54 1 12 55
M  V30 55 1 12 56
M  V30 56 1 15 57
M  V30 57 1 15 58
M  V30 58 1 16 59 CFG=3
M  V30 59 1 17 60
M  V30 60 1 20 61
M  V30 61 1 20 62
M  V30 62 1 21 63
M  V30 63 1 21 64
M  V30 64 1 22 65 CFG=1
M  V30 65 1 23 66
M  V30 66 1 23 67
M  V30 67 1 25 68
M  V30 68 1 29 69
M  V30 69 1 30 70
M  V30 70 1 30 71
M  V30 71 1 32 72
M  V30 72 1 34 73
M  V30 73 1 37 74
M  V30 74 1 37 75
M  V30 75 1 38 76
M  V30 76 1 38 77
M  V30 77 1 39 78 CFG=1
M  V30 78 1 40 79
M  V30 79 1 40 80
M  V30 80 1 42 81
M  V30 END BOND
M  V30 END CTAB
M  END
