
     RDKit          3D

  0  0  0  0  0  0  0  0  0  0999 V3000
M  V30 BEGIN CTAB
M  V30 COUNTS 45 45 0 0 0
M  V30 BEGIN ATOM
M  V30 1 O 0.546898 2.56914 -1.18183 0
M  V30 2 C 0.0340764 1.98382 -0.70763 0
M  V30 3 N 0.533197 0.918212 0.116638 0
M  V30 4 C 1.93341 0.749456 0.235751 0
M  V30 5 C 2.69034 1.84463 0.543625 0
M  V30 6 C 4.03728 1.72388 0.656477 0
M  V30 7 C 4.65768 0.4955 0.460602 0
M  V30 8 C 3.9288 -0.636514 0.143774 0
M  V30 9 C 2.56613 -0.481915 0.0390403 0
M  V30 10 S 4.68171 -2.18781 -0.127352 0
M  V30 11 O 3.57826 -3.13445 -0.586374 0
M  V30 12 O 5.26056 -2.70175 1.12261 0
M  V30 13 N 5.8651 -2.14184 -1.3654 0
M  V30 14 C 6.11864 0.345938 0.601107 0
M  V30 15 C -1.50073 2.0571 -0.719926 0
M  V30 16 N -2.10739 1.15376 0.0784919 0
M  V30 17 C -2.71416 0.250229 0.877156 0
M  V30 18 O -2.60074 0.0981144 2.13003 0
M  V30 19 C -3.66719 -0.758417 0.269302 0 CFG=2
M  V30 20 C -5.08168 -0.411334 0.679442 0
M  V30 21 C -5.44578 0.942774 0.206422 0
M  V30 22 C -5.98684 -1.52099 0.183922 0
M  V30 23 N -3.32626 -2.02387 0.947031 0
M  V30 24 H -0.121891 0.259164 0.634146 0
M  V30 25 H 2.19922 2.80458 0.698484 0
M  V30 26 H 4.61062 2.59925 0.909825 0
M  V30 27 H 1.93222 -1.334 -0.207724 0
M  V30 28 H 5.69278 -1.38656 -2.06569 0
M  V30 29 H 6.82724 -2.22035 -1.0452 0
M  V30 30 H 6.56574 0.287525 -0.410255 0
M  V30 31 H 6.36077 -0.510176 1.26355 0
M  V30 32 H 6.52925 1.25586 1.08568 0
M  V30 33 H -1.80221 3.12407 -0.615146 0
M  V30 34 H -1.69457 1.84393 -1.83725 0
M  V30 35 H -1.50374 1.72538 1.16956 0
M  V30 36 H -3.55419 -0.887708 -0.796616 0
M  V30 37 H -5.10891 -0.389936 1.80242 0
M  V30 38 H -6.14146 0.854008 -0.664242 0
M  V30 39 H -5.88264 1.58484 1.00691 0
M  V30 40 H -4.56855 1.49865 -0.177255 0
M  V30 41 H -5.9584 -1.51583 -0.93626 0
M  V30 42 H -7.01708 -1.41987 0.591618 0
M  V30 43 H -5.50746 -2.46676 0.48641 0
M  V30 44 H -2.36419 -2.02208 1.30333 0
M  V30 45 H -3.49385 -2.81766 0.271073 0
M  V30 END ATOM
M  V30 BEGIN BOND
M  V30 1 2 1 2
M  V30 2 1 2 3
M  V30 3 1 3 4
M  V30 4 2 4 5
M  V30 5 1 5 6
M  V30 6 2 6 7
M  V30 7 1 7 8
M  V30 8 2 8 9
M  V30 9 1 8 10
M  V30 10 2 10 11
M  V30 11 2 10 12
M  V30 12 1 10 13
M  V30 13 1 7 14
M  V30 14 1 2 15
M  V30 15 1 15 16
M  V30 16 1 16 17
M  V30 17 2 17 18
M  V30 18 1 17 19
M  V30 19 1 19 20
M  V30 20 1 20 21
M  V30 21 1 20 22
M  V30 22 1 19 23
M  V30 23 1 9 4
M  V30 24 1 3 24
M  V30 25 1 5 25
M  V30 26 1 6 26
M  V30 27 1 9 27
M  V30 28 1 13 28
M  V30 29 1 13 29
M  V30 30 1 14 30
M  V30 31 1 14 31
M  V30 32 1 14 32
M  V30 33 1 15 33
M  V30 34 1 15 34
M  V30 35 1 16 35
M  V30 36 1 19 36 CFG=3
M  V30 37 1 20 37
M  V30 38 1 21 38
M  V30 39 1 21 39
M  V30 40 1 21 40
M  V30 41 1 22 41
M  V30 42 1 22 42
M  V30 43 1 22 43
M  V30 44 1 23 44
M  V30 45 1 23 45
M  V30 END BOND
M  V30 END CTAB
M  END
