
     RDKit          3D

  0  0  0  0  0  0  0  0  0  0999 V3000
M  V30 BEGIN CTAB
M  V30 COUNTS 40 42 0 0 0
M  V30 BEGIN ATOM
M  V30 1 N 6.92348 0.463206 -0.700358 0
M  V30 2 C 6.39677 0.510426 0.640142 0
M  V30 3 C 4.98007 0.0630251 0.591179 0
M  V30 4 C 3.99769 1.0006 0.390497 0
M  V30 5 C 2.65313 0.629996 0.336785 0
M  V30 6 C 2.29168 -0.68744 0.485051 0
M  V30 7 C 3.26788 -1.63477 0.686562 0
M  V30 8 C 4.59437 -1.24922 0.736888 0
M  V30 9 C 0.889294 -1.06848 0.428286 0
M  V30 10 N 0.391862 -2.3103 0.555933 0
M  V30 11 O -0.899054 -2.28021 0.452825 0
M  V30 12 C -1.28717 -1.04487 0.258072 0
M  V30 13 N -0.18301 -0.283194 0.241116 0
M  V30 14 C -2.68059 -0.567755 0.0874005 0
M  V30 15 C -3.05604 0.422397 1.19825 0
M  V30 16 C -4.57604 0.469852 1.20497 0
M  V30 17 C -5.15191 0.287602 -0.175819 0
M  V30 18 C -4.23328 0.767122 -1.26247 0
M  V30 19 C -2.86966 0.16483 -1.2137 0
M  V30 20 N -4.83464 0.424581 -2.53816 0
M  V30 21 H 7.44654 1.33157 -0.947676 0
M  V30 22 H 6.19495 0.310432 -1.42931 0
M  V30 23 H 6.40892 1.58377 0.981933 0
M  V30 24 H 6.98012 -0.0906366 1.35718 0
M  V30 25 H 4.26045 2.04973 0.270499 0
M  V30 26 H 1.94476 1.41242 0.177868 0
M  V30 27 H 3.01769 -2.68961 0.808281 0
M  V30 28 H 5.3456 -1.99743 0.894524 0
M  V30 29 H -3.37018 -1.42398 0.148777 0
M  V30 30 H -2.66607 0.0518285 2.16326 0
M  V30 31 H -2.68765 1.43351 0.930816 0
M  V30 32 H -4.9053 -0.409677 1.8102 0
M  V30 33 H -4.96461 1.37033 1.72227 0
M  V30 34 H -5.46033 -0.759222 -0.377759 0
M  V30 35 H -6.07811 0.902457 -0.222797 0
M  V30 36 H -4.20209 1.89188 -1.2258 0
M  V30 37 H -2.60729 -0.441286 -2.09987 0
M  V30 38 H -2.12534 1.01409 -1.20725 0
M  V30 39 H -4.80218 1.21869 -3.21438 0
M  V30 40 H -4.34474 -0.426944 -2.9442 0
M  V30 END ATOM
M  V30 BEGIN BOND
M  V30 1 1 1 2
M  V30 2 1 2 3
M  V30 3 2 3 4
M  V30 4 1 4 5
M  V30 5 2 5 6
M  V30 6 1 6 7
M  V30 7 2 7 8
M  V30 8 1 6 9
M  V30 9 2 9 10
M  V30 10 1 10 11
M  V30 11 1 11 12
M  V30 12 2 12 13
M  V30 13 1 12 14
M  V30 14 1 14 15
M  V30 15 1 15 16
M  V30 16 1 16 17
M  V30 17 1 17 18
M  V30 18 1 18 19
M  V30 19 1 18 20
M  V30 20 1 8 3
M  V30 21 1 13 9
M  V30 22 1 19 14
M  V30 23 1 1 21
M  V30 24 1 1 22
M  V30 25 1 2 23
M  V30 26 1 2 24
M  V30 27 1 4 25
M  V30 28 1 5 26
M  V30 29 1 7 27
M  V30 30 1 8 28
M  V30 31 1 14 29
M  V30 32 1 15 30
M  V30 33 1 15 31
M  V30 34 1 16 32
M  V30 35 1 16 33
M  V30 36 1 17 34
M  V30 37 1 17 35
M  V30 38 1 18 36
M  V30 39 1 19 37
M  V30 40 1 19 38
M  V30 41 1 20 39
M  V30 42 1 20 40
M  V30 END BOND
M  V30 END CTAB
M  END
