
     RDKit          3D

  0  0  0  0  0  0  0  0  0  0999 V3000
M  V30 BEGIN CTAB
M  V30 COUNTS 62 63 0 0 0
M  V30 BEGIN ATOM
M  V30 1 N 9.02908 0.529267 -1.11002 0
M  V30 2 C 7.97327 0.112087 -0.25951 0
M  V30 3 N 8.17082 -0.999276 0.471058 0
M  V30 4 C 7.17645 -1.4023 1.27961 0
M  V30 5 Cl 7.34774 -2.83792 2.26611 0
M  V30 6 C 6.00076 -0.691495 1.34749 0
M  V30 7 C 5.80482 0.453149 0.59122 0
M  V30 8 N 4.59636 1.18792 0.672127 0
M  V30 9 C 4.36661 2.34283 -0.100844 0
M  V30 10 C 4.31977 2.17404 -1.5517 0
M  V30 11 C 3.28376 1.41866 -2.23013 0
M  V30 12 C 2.94536 0.0188731 -2.13884 0
M  V30 13 C 2.43845 -0.633544 -0.925194 0
M  V30 14 C 1.15955 0.00631787 -0.378274 0
M  V30 15 C 0.780249 -0.776774 0.854045 0
M  V30 16 C -0.472907 -0.251837 1.50235 0
M  V30 17 C -1.6679 -0.304869 0.581351 0
M  V30 18 C -2.83935 0.248773 1.36206 0
M  V30 19 C -4.12664 0.272898 0.578678 0
M  V30 20 C -4.53449 -1.09194 0.14001 0
M  V30 21 N -5.7662 -1.11006 -0.595206 0
M  V30 22 C -7.03164 -0.926449 -0.00984425 0
M  V30 23 C -7.15573 -0.79886 1.34877 0
M  V30 24 C -8.41958 -0.600228 1.87112 0
M  V30 25 Cl -8.60666 -0.431973 3.61548 0
M  V30 26 N -9.48144 -0.536697 1.06837 0
M  V30 27 C -9.37745 -0.659637 -0.255254 0
M  V30 28 N -10.5022 -0.594929 -1.13203 0
M  V30 29 N -8.1531 -0.85188 -0.763664 0
M  V30 30 N 6.83033 0.812111 -0.200268 0
M  V30 31 H 8.84322 1.22943 -1.88662 0
M  V30 32 H 9.9988 0.184621 -1.01972 0
M  V30 33 H 5.17976 -0.991576 1.99062 0
M  V30 34 H 3.86725 0.859484 1.34171 0
M  V30 35 H 5.21237 3.08457 0.176763 0
M  V30 36 H 3.46521 2.92736 0.289285 0
M  V30 37 H 4.30462 3.2589 -2.01319 0
M  V30 38 H 5.36044 1.87272 -1.95809 0
M  V30 39 H 2.31872 2.07139 -2.10739 0
M  V30 40 H 3.45904 1.66663 -3.37654 0
M  V30 41 H 2.18611 -0.198486 -2.9909 0
M  V30 42 H 3.82236 -0.642959 -2.48819 0
M  V30 43 H 3.12425 -0.999428 -0.182594 0
M  V30 44 H 1.99312 -1.65092 -1.32792 0
M  V30 45 H 0.420805 -0.0345393 -1.17829 0
M  V30 46 H 1.32601 1.04732 -0.0756044 0
M  V30 47 H 0.69525 -1.86118 0.644912 0
M  V30 48 H 1.60222 -0.653028 1.58895 0
M  V30 49 H -0.327456 0.766672 1.87107 0
M  V30 50 H -0.700472 -0.909955 2.36277 0
M  V30 51 H -1.5543 0.312295 -0.32196 0
M  V30 52 H -1.86109 -1.34316 0.260248 0
M  V30 53 H -2.62456 1.25179 1.77535 0
M  V30 54 H -3.05169 -0.390465 2.26972 0
M  V30 55 H -4.90578 0.72723 1.19735 0
M  V30 56 H -3.97922 0.924068 -0.340358 0
M  V30 57 H -3.72771 -1.54024 -0.484784 0
M  V30 58 H -4.607 -1.75017 1.03961 0
M  V30 59 H -5.74449 -1.27107 -1.64975 0
M  V30 60 H -6.33502 -0.856717 2.05284 0
M  V30 61 H -10.4549 -0.135847 -2.06048 0
M  V30 62 H -11.394 -1.03102 -0.808433 0
M  V30 END ATOM
M  V30 BEGIN BOND
M  V30 1 1 1 2
M  V30 2 2 2 3
M  V30 3 1 3 4
M  V30 4 1 4 5
M  V30 5 2 4 6
M  V30 6 1 6 7
M  V30 7 1 7 8
M  V30 8 1 8 9
M  V30 9 1 9 10
M  V30 10 1 10 11
M  V30 11 1 11 12
M  V30 12 1 12 13
M  V30 13 1 13 14
M  V30 14 1 14 15
M  V30 15 1 15 16
M  V30 16 1 16 17
M  V30 17 1 17 18
M  V30 18 1 18 19
M  V30 19 1 19 20
M  V30 20 1 20 21
M  V30 21 1 21 22
M  V30 22 2 22 23
M  V30 23 1 23 24
M  V30 24 1 24 25
M  V30 25 2 24 26
M  V30 26 1 26 27
M  V30 27 1 27 28
M  V30 28 2 27 29
M  V30 29 2 7 30
M  V30 30 1 30 2
M  V30 31 1 29 22
M  V30 32 1 1 31
M  V30 33 1 1 32
M  V30 34 1 6 33
M  V30 35 1 8 34
M  V30 36 1 9 35
M  V30 37 1 9 36
M  V30 38 1 10 37
M  V30 39 1 10 38
M  V30 40 1 11 39
M  V30 41 1 11 40
M  V30 42 1 12 41
M  V30 43 1 12 42
M  V30 44 1 13 43
M  V30 45 1 13 44
M  V30 46 1 14 45
M  V30 47 1 14 46
M  V30 48 1 15 47
M  V30 49 1 15 48
M  V30 50 1 16 49
M  V30 51 1 16 50
M  V30 52 1 17 51
M  V30 53 1 17 52
M  V30 54 1 18 53
M  V30 55 1 18 54
M  V30 56 1 19 55
M  V30 57 1 19 56
M  V30 58 1 20 57
M  V30 59 1 20 58
M  V30 60 1 21 59
M  V30 61 1 23 60
M  V30 62 1 28 61
M  V30 63 1 28 62
M  V30 END BOND
M  V30 END CTAB
M  END
