
     RDKit          3D

  0  0  0  0  0  0  0  0  0  0999 V3000
M  V30 BEGIN CTAB
M  V30 COUNTS 28 27 0 0 0
M  V30 BEGIN ATOM
M  V30 1 N 4.75108 1.07176 -0.766696 0
M  V30 2 C 3.80188 0.565727 0.172913 0
M  V30 3 C 2.55068 0.0563491 -0.461131 0
M  V30 4 N 1.61802 -0.446302 0.527444 0
M  V30 5 C 0.352304 -0.985975 0.178404 0
M  V30 6 N 0.297336 -1.90744 -0.716702 0
M  V30 7 C -0.900953 -0.552252 0.780264 0
M  V30 8 N -0.830549 0.378093 1.68021 0
M  V30 9 N -2.1562 -1.12389 0.400017 0
M  V30 10 C -2.89324 -0.732075 -0.75734 0
M  V30 11 C -3.44792 0.672204 -0.656308 0
M  V30 12 N -4.34394 0.836219 0.45886 0
M  V30 13 H 5.1018 2.0187 -0.575697 0
M  V30 14 H 5.49032 0.39986 -1.03117 0
M  V30 15 H 4.27767 -0.273072 0.730303 0
M  V30 16 H 3.51879 1.40314 0.853665 0
M  V30 17 H 2.05408 0.875617 -1.02534 0
M  V30 18 H 2.82272 -0.726319 -1.202 0
M  V30 19 H 1.93601 -0.388469 1.53867 0
M  V30 20 H -0.56788 -2.3652 -1.04231 0
M  V30 21 H 0.053731 0.796935 1.96464 0
M  V30 22 H -2.53023 -1.8698 1.02522 0
M  V30 23 H -2.22546 -0.737039 -1.65212 0
M  V30 24 H -3.72364 -1.40842 -0.961311 0
M  V30 25 H -2.64169 1.41894 -0.616461 0
M  V30 26 H -4.04799 0.891642 -1.57761 0
M  V30 27 H -4.32511 1.83938 0.7379 0
M  V30 28 H -3.9916 0.291688 1.27604 0
M  V30 END ATOM
M  V30 BEGIN BOND
M  V30 1 1 1 2
M  V30 2 1 2 3
M  V30 3 1 3 4
M  V30 4 1 4 5
M  V30 5 2 5 6 CFG=2
M  V30 6 1 5 7
M  V30 7 2 7 8 CFG=2
M  V30 8 1 7 9
M  V30 9 1 9 10
M  V30 10 1 10 11
M  V30 11 1 11 12
M  V30 12 1 1 13
M  V30 13 1 1 14
M  V30 14 1 2 15
M  V30 15 1 2 16
M  V30 16 1 3 17
M  V30 17 1 3 18
M  V30 18 1 4 19
M  V30 19 1 6 20
M  V30 20 1 8 21
M  V30 21 1 9 22
M  V30 22 1 10 23
M  V30 23 1 10 24
M  V30 24 1 11 25
M  V30 25 1 11 26
M  V30 26 1 12 27
M  V30 27 1 12 28
M  V30 END BOND
M  V30 END CTAB
M  END
