
     RDKit          3D

  0  0  0  0  0  0  0  0  0  0999 V3000
M  V30 BEGIN CTAB
M  V30 COUNTS 19 20 0 0 0
M  V30 BEGIN ATOM
M  V30 1 Cl -1.94416 2.57359 1.49131 0
M  V30 2 C -2.192 1.01174 0.666551 0
M  V30 3 C -3.39914 0.51491 0.387572 0
M  V30 4 C -3.45542 -0.696094 -0.249894 0
M  V30 5 S -1.80837 -1.09761 -0.436695 0
M  V30 6 C -1.10262 0.271606 0.293512 0
M  V30 7 C 0.328026 0.56544 0.469043 0
M  V30 8 N 0.886638 1.63449 1.03928 0
M  V30 9 N 2.21452 1.5336 1.00576 0
M  V30 10 C 2.45471 0.362453 0.39358 0
M  V30 11 N 1.3015 -0.253115 0.053017 0
M  V30 12 N 1.12703 -1.46838 -0.588415 0
M  V30 13 N 3.7498 -0.156062 0.139985 0
M  V30 14 H -4.35791 1.01423 0.635936 0
M  V30 15 H -4.33294 -1.27723 -0.56832 0
M  V30 16 H 1.14065 -1.51043 -1.62433 0
M  V30 17 H 0.981074 -2.35028 -0.0561766 0
M  V30 18 H 4.40777 0.395336 -0.466821 0
M  V30 19 H 4.00083 -1.0682 0.566915 0
M  V30 END ATOM
M  V30 BEGIN BOND
M  V30 1 1 1 2
M  V30 2 1 2 3
M  V30 3 2 3 4
M  V30 4 1 4 5
M  V30 5 1 5 6
M  V30 6 1 6 7
M  V30 7 2 7 8
M  V30 8 1 8 9
M  V30 9 2 9 10
M  V30 10 1 10 11
M  V30 11 1 11 12
M  V30 12 1 10 13
M  V30 13 2 6 2
M  V30 14 1 11 7
M  V30 15 1 3 14
M  V30 16 1 4 15
M  V30 17 1 12 16
M  V30 18 1 12 17
M  V30 19 1 13 18
M  V30 20 1 13 19
M  V30 END BOND
M  V30 END CTAB
M  END
