
     RDKit          3D

  0  0  0  0  0  0  0  0  0  0999 V3000
M  V30 BEGIN CTAB
M  V30 COUNTS 45 46 0 0 0
M  V30 BEGIN ATOM
M  V30 1 N 2.84262 1.59819 -3.22163 0
M  V30 2 C 2.44608 1.20195 -1.91299 0
M  V30 3 N 1.31135 1.60347 -1.32649 0
M  V30 4 C 0.93567 1.23066 -0.092079 0
M  V30 5 C -0.308094 1.7197 0.480575 0
M  V30 6 N -1.51747 1.01799 0.162312 0
M  V30 7 C -2.66753 1.60297 0.796297 0
M  V30 8 C -2.99156 0.914877 2.07907 0
M  V30 9 C -3.11551 -0.557566 1.89444 0
M  V30 10 C -1.92788 -1.17231 1.20598 0
M  V30 11 C -1.47323 -0.363809 0.0055752 0
M  V30 12 C -2.21946 -0.883645 -1.1887 0
M  V30 13 N -3.62955 -0.593536 -1.19538 0
M  V30 14 C -1.67225 -0.380609 -2.5126 0
M  V30 15 N 1.77803 0.406028 0.555592 0
M  V30 16 C 2.93099 -0.0337699 0.0251424 0
M  V30 17 N 3.24983 0.375706 -1.21392 0
M  V30 18 N 3.79841 -0.905199 0.737843 0
M  V30 19 C 3.71748 -2.33866 0.681295 0
M  V30 20 C 4.82562 -0.310921 1.57113 0
M  V30 21 H 3.5813 2.3532 -3.2596 0
M  V30 22 H 2.46111 1.20199 -4.0903 0
M  V30 23 H -0.164197 1.74519 1.6028 0
M  V30 24 H -0.507845 2.80572 0.231605 0
M  V30 25 H -3.5382 1.55077 0.121638 0
M  V30 26 H -2.48743 2.69062 1.0347 0
M  V30 27 H -3.96805 1.3058 2.47669 0
M  V30 28 H -2.24826 1.17122 2.87318 0
M  V30 29 H -4.07182 -0.819254 1.39594 0
M  V30 30 H -3.17632 -1.02243 2.91646 0
M  V30 31 H -1.07529 -1.30167 1.89825 0
M  V30 32 H -2.2265 -2.17925 0.852486 0
M  V30 33 H -0.404686 -0.704291 -0.153559 0
M  V30 34 H -2.15757 -2.01146 -1.25489 0
M  V30 35 H -3.94344 -0.053794 -2.01602 0
M  V30 36 H -4.22075 -1.39142 -0.938165 0
M  V30 37 H -1.36549 0.663884 -2.48924 0
M  V30 38 H -0.793525 -0.984494 -2.8401 0
M  V30 39 H -2.44991 -0.513203 -3.28079 0
M  V30 40 H 3.84659 -2.74111 1.70802 0
M  V30 41 H 2.75347 -2.67557 0.243055 0
M  V30 42 H 4.55718 -2.72205 0.0585044 0
M  V30 43 H 5.81918 -0.535544 1.13152 0
M  V30 44 H 4.71717 0.788492 1.64227 0
M  V30 45 H 4.74974 -0.752846 2.60407 0
M  V30 END ATOM
M  V30 BEGIN BOND
M  V30 1 1 1 2
M  V30 2 2 2 3
M  V30 3 1 3 4
M  V30 4 1 4 5
M  V30 5 1 5 6
M  V30 6 1 6 7
M  V30 7 1 7 8
M  V30 8 1 8 9
M  V30 9 1 9 10
M  V30 10 1 10 11
M  V30 11 1 11 12
M  V30 12 1 12 13
M  V30 13 1 12 14
M  V30 14 2 4 15
M  V30 15 1 15 16
M  V30 16 2 16 17
M  V30 17 1 16 18
M  V30 18 1 18 19
M  V30 19 1 18 20
M  V30 20 1 17 2
M  V30 21 1 11 6
M  V30 22 1 1 21
M  V30 23 1 1 22
M  V30 24 1 5 23
M  V30 25 1 5 24
M  V30 26 1 7 25
M  V30 27 1 7 26
M  V30 28 1 8 27
M  V30 29 1 8 28
M  V30 30 1 9 29
M  V30 31 1 9 30
M  V30 32 1 10 31
M  V30 33 1 10 32
M  V30 34 1 11 33
M  V30 35 1 12 34
M  V30 36 1 13 35
M  V30 37 1 13 36
M  V30 38 1 14 37
M  V30 39 1 14 38
M  V30 40 1 14 39
M  V30 41 1 19 40
M  V30 42 1 19 41
M  V30 43 1 19 42
M  V30 44 1 20 43
M  V30 45 1 20 44
M  V30 46 1 20 45
M  V30 END BOND
M  V30 END CTAB
M  END
