
     RDKit          3D

  0  0  0  0  0  0  0  0  0  0999 V3000
M  V30 BEGIN CTAB
M  V30 COUNTS 55 56 0 0 0
M  V30 BEGIN ATOM
M  V30 1 N -2.4475 2.84315 0.4388 0
M  V30 2 C -2.50689 2.0919 -0.801442 0
M  V30 3 C -2.62845 0.596532 -0.554184 0
M  V30 4 N -1.46265 0.216232 0.222925 0
M  V30 5 C -1.09433 -1.05423 0.647029 0
M  V30 6 O -1.74109 -2.07182 0.401578 0
M  V30 7 C 0.169812 -1.18729 1.45383 0
M  V30 8 C 0.526254 -2.58711 1.79308 0
M  V30 9 C 2.02781 -2.49916 1.88199 0
M  V30 10 O 2.7004 -3.19903 2.65123 0
M  V30 11 N 2.42448 -1.50549 0.946013 0
M  V30 12 C 1.32847 -0.62399 0.648806 0
M  V30 13 C 3.74267 -1.40623 0.391794 0
M  V30 14 C 4.452 -2.49782 -0.05821 0
M  V30 15 C 5.71871 -2.36293 -0.585111 0
M  V30 16 C 6.2847 -1.0983 -0.659387 0
M  V30 17 C 5.61363 0.0239709 -0.2221 0
M  V30 18 C 4.36291 -0.160036 0.29065 0
M  V30 19 S 6.34581 1.5941 -0.305911 0
M  V30 20 O 5.36271 2.56738 -0.8869 0
M  V30 21 O 7.54555 1.53475 -1.21525 0
M  V30 22 N 6.90184 2.11309 1.26636 0
M  V30 23 C -3.8476 0.154193 0.123588 0
M  V30 24 C -5.17189 0.367157 -0.474254 0
M  V30 25 C -6.16207 -0.257154 0.546254 0
M  V30 26 C -5.68312 1.73546 -0.704334 0
M  V30 27 C -2.42124 -0.0510846 -1.91759 0
M  V30 28 H -3.23238 3.49746 0.544984 0
M  V30 29 H -2.27996 2.21738 1.25918 0
M  V30 30 H -3.23849 2.50915 -1.48344 0
M  V30 31 H -1.4935 2.28414 -1.27831 0
M  V30 32 H -0.815641 1.02246 0.500234 0
M  V30 33 H 0.111653 -0.598616 2.39665 0
M  V30 34 H 0.235455 -3.31311 1.01847 0
M  V30 35 H 0.114914 -2.8994 2.79888 0
M  V30 36 H 1.07171 -0.606303 -0.443781 0
M  V30 37 H 1.50283 0.409237 0.973062 0
M  V30 38 H 3.94604 -3.46814 0.0300196 0
M  V30 39 H 6.2576 -3.24049 -0.935028 0
M  V30 40 H 7.28602 -0.984045 -1.07315 0
M  V30 41 H 3.82105 0.716673 0.642852 0
M  V30 42 H 7.13071 3.14475 1.18003 0
M  V30 43 H 6.10832 2.01991 1.96593 0
M  V30 44 H -3.79705 -0.945677 0.368621 0
M  V30 45 H -3.89345 0.60933 1.17225 0
M  V30 46 H -5.33073 -0.300382 -1.3862 0
M  V30 47 H -6.45587 0.572745 1.21346 0
M  V30 48 H -5.66705 -1.02092 1.15581 0
M  V30 49 H -7.07963 -0.607152 0.0289938 0
M  V30 50 H -5.5024 2.02199 -1.7719 0
M  V30 51 H -6.81453 1.78628 -0.614145 0
M  V30 52 H -5.32625 2.53318 -0.0709775 0
M  V30 53 H -1.55664 0.442039 -2.42964 0
M  V30 54 H -3.28621 0.0472322 -2.56775 0
M  V30 55 H -2.15741 -1.12598 -1.84476 0
M  V30 END ATOM
M  V30 BEGIN BOND
M  V30 1 1 1 2
M  V30 2 1 2 3
M  V30 3 1 3 4
M  V30 4 1 4 5
M  V30 5 2 5 6
M  V30 6 1 5 7
M  V30 7 1 7 8
M  V30 8 1 8 9
M  V30 9 2 9 10
M  V30 10 1 9 11
M  V30 11 1 11 12
M  V30 12 1 11 13
M  V30 13 2 13 14
M  V30 14 1 14 15
M  V30 15 2 15 16
M  V30 16 1 16 17
M  V30 17 2 17 18
M  V30 18 1 17 19
M  V30 19 2 19 20
M  V30 20 2 19 21
M  V30 21 1 19 22
M  V30 22 1 3 23
M  V30 23 1 23 24
M  V30 24 1 24 25
M  V30 25 1 24 26
M  V30 26 1 3 27
M  V30 27 1 12 7
M  V30 28 1 18 13
M  V30 29 1 1 28
M  V30 30 1 1 29
M  V30 31 1 2 30
M  V30 32 1 2 31
M  V30 33 1 4 32
M  V30 34 1 7 33
M  V30 35 1 8 34
M  V30 36 1 8 35
M  V30 37 1 12 36
M  V30 38 1 12 37
M  V30 39 1 14 38
M  V30 40 1 15 39
M  V30 41 1 16 40
M  V30 42 1 18 41
M  V30 43 1 22 42
M  V30 44 1 22 43
M  V30 45 1 23 44
M  V30 46 1 23 45
M  V30 47 1 24 46
M  V30 48 1 25 47
M  V30 49 1 25 48
M  V30 50 1 25 49
M  V30 51 1 26 50
M  V30 52 1 26 51
M  V30 53 1 26 52
M  V30 54 1 27 53
M  V30 55 1 27 54
M  V30 56 1 27 55
M  V30 END BOND
M  V30 END CTAB
M  END
