
     RDKit          3D

  0  0  0  0  0  0  0  0  0  0999 V3000
M  V30 BEGIN CTAB
M  V30 COUNTS 57 60 0 0 0
M  V30 BEGIN ATOM
M  V30 1 C -4.14311 -0.520752 -0.345689 0 CFG=1
M  V30 2 C -3.06878 0.267893 0.370574 0 CFG=1
M  V30 3 C -3.64372 1.04135 1.52239 0
M  V30 4 C -2.11319 -0.763543 0.830047 0
M  V30 5 S -0.427186 -0.502162 1.28231 0
M  V30 6 C 0.0642293 1.21707 1.05718 0 CFG=2
M  V30 7 C 0.0604043 1.61607 -0.378863 0
M  V30 8 N 1.35813 2.07763 -0.712757 0
M  V30 9 C 2.09537 2.27872 0.501802 0 CFG=2
M  V30 10 C 3.58191 2.0404 0.316945 0
M  V30 11 S 3.88099 0.328315 -0.236153 0
M  V30 12 C 5.64004 0.123081 -0.433529 0
M  V30 13 N 6.50887 1.12102 -0.194409 0
M  V30 14 C 7.82681 0.928798 -0.355159 0
M  V30 15 N 8.7238 1.99008 -0.100124 0
M  V30 16 N 8.31499 -0.254677 -0.755975 0
M  V30 17 C 7.50353 -1.29739 -1.0131 0
M  V30 18 N 7.97656 -2.55393 -1.43528 0
M  V30 19 C 6.13782 -1.09078 -0.8442 0
M  V30 20 C 1.50415 1.32452 1.49958 0
M  V30 21 C -2.74122 -1.95989 0.833076 0
M  V30 22 N -4.07151 -1.78799 0.397373 0
M  V30 23 C -5.4442 -1.93192 0.132933 0
M  V30 24 O -6.17819 -2.92995 -0.0277037 0
M  V30 25 C -5.52194 -0.445001 0.149443 0 CFG=2
M  V30 26 C -6.56334 0.142923 -0.756558 0 CFG=1
M  V30 27 C -6.73096 -0.589186 -2.04757 0
M  V30 28 O -7.78662 0.0892807 -0.0570921 0
M  V30 29 C -2.07594 -3.18821 1.23725 0
M  V30 30 O -2.74952 -4.40673 1.22928 0
M  V30 31 O -0.875186 -3.22171 1.61063 0
M  V30 32 H -3.90138 -0.679575 -1.37551 0
M  V30 33 H -2.56033 0.963634 -0.312361 0
M  V30 34 H -4.51289 1.66053 1.21564 0
M  V30 35 H -2.89928 1.75282 1.92028 0
M  V30 36 H -3.89098 0.331738 2.32965 0
M  V30 37 H -0.560699 1.90833 1.68817 0
M  V30 38 H -0.708791 2.41497 -0.572163 0
M  V30 39 H -0.170078 0.702645 -0.973911 0
M  V30 40 H 1.86034 1.55295 -1.44546 0
M  V30 41 H 1.9728 3.3142 0.869391 0
M  V30 42 H 4.0996 2.26071 1.27224 0
M  V30 43 H 3.94534 2.76065 -0.439576 0
M  V30 44 H 9.00199 2.22416 0.868016 0
M  V30 45 H 9.12719 2.56366 -0.884533 0
M  V30 46 H 8.24616 -3.25951 -0.696826 0
M  V30 47 H 8.08297 -2.84525 -2.42209 0
M  V30 48 H 5.48901 -1.93134 -1.05192 0
M  V30 49 H 1.97146 0.342952 1.41483 0
M  V30 50 H 1.52319 1.73601 2.53116 0
M  V30 51 H -5.60331 -0.0542338 1.16702 0
M  V30 52 H -6.32658 1.20923 -0.889756 0
M  V30 53 H -7.13208 0.116873 -2.82202 0
M  V30 54 H -7.53268 -1.37182 -1.93431 0
M  V30 55 H -5.8393 -1.12406 -2.39817 0
M  V30 56 H -7.90729 -0.783318 0.399604 0
M  V30 57 H -2.81739 -4.9103 2.10284 0
M  V30 END ATOM
M  V30 BEGIN BOND
M  V30 1 1 1 2
M  V30 2 1 2 3
M  V30 3 1 2 4
M  V30 4 1 4 5
M  V30 5 1 5 6
M  V30 6 1 6 7
M  V30 7 1 7 8
M  V30 8 1 8 9
M  V30 9 1 9 10
M  V30 10 1 10 11
M  V30 11 1 11 12
M  V30 12 2 12 13
M  V30 13 1 13 14
M  V30 14 1 14 15
M  V30 15 2 14 16
M  V30 16 1 16 17
M  V30 17 1 17 18
M  V30 18 2 17 19
M  V30 19 1 9 20
M  V30 20 2 4 21
M  V30 21 1 21 22
M  V30 22 1 22 23
M  V30 23 2 23 24
M  V30 24 1 23 25
M  V30 25 1 25 26
M  V30 26 1 26 27
M  V30 27 1 26 28
M  V30 28 1 21 29
M  V30 29 1 29 30
M  V30 30 2 29 31
M  V30 31 1 22 1
M  V30 32 1 25 1
M  V30 33 1 20 6
M  V30 34 1 19 12
M  V30 35 1 1 32 CFG=3
M  V30 36 1 2 33 CFG=3
M  V30 37 1 3 34
M  V30 38 1 3 35
M  V30 39 1 3 36
M  V30 40 1 6 37 CFG=1
M  V30 41 1 7 38
M  V30 42 1 7 39
M  V30 43 1 8 40
M  V30 44 1 9 41 CFG=1
M  V30 45 1 10 42
M  V30 46 1 10 43
M  V30 47 1 15 44
M  V30 48 1 15 45
M  V30 49 1 18 46
M  V30 50 1 18 47
M  V30 51 1 19 48
M  V30 52 1 20 49
M  V30 53 1 20 50
M  V30 54 1 25 51 CFG=1
M  V30 55 1 26 52 CFG=3
M  V30 56 1 27 53
M  V30 57 1 27 54
M  V30 58 1 27 55
M  V30 59 1 28 56
M  V30 60 1 30 57
M  V30 END BOND
M  V30 END CTAB
M  END
