
     RDKit          3D

  0  0  0  0  0  0  0  0  0  0999 V3000
M  V30 BEGIN CTAB
M  V30 COUNTS 26 27 0 0 0
M  V30 BEGIN ATOM
M  V30 1 O -3.23279 -1.4528 -1.15484 0
M  V30 2 C -3.36508 -0.283161 -0.433106 0
M  V30 3 O -4.14479 0.60252 -0.898221 0
M  V30 4 C -2.61929 -0.0883132 0.828152 0
M  V30 5 N -1.28769 0.426214 0.533319 0
M  V30 6 C -1.00964 1.73536 0.400945 0
M  V30 7 C 0.326171 1.91026 0.109836 0
M  V30 8 C 0.881015 0.648952 0.0640179 0
M  V30 9 C -0.146032 -0.231401 0.329524 0
M  V30 10 C 0.134188 -1.59581 0.351563 0
M  V30 11 C 1.42913 -2.00994 0.107933 0
M  V30 12 C 2.46991 -1.14591 -0.158233 0
M  V30 13 C 2.1912 0.202807 -0.180242 0
M  V30 14 N 3.80408 -1.63149 -0.404509 0
M  V30 15 N 1.01203 3.14227 -0.104396 0
M  V30 16 H -4.05194 -1.78738 -1.66148 0
M  V30 17 H -2.54948 -0.995253 1.45674 0
M  V30 18 H -3.14477 0.686928 1.41727 0
M  V30 19 H -1.6867 2.58811 0.492327 0
M  V30 20 H -0.679834 -2.25492 0.560087 0
M  V30 21 H 1.64838 -3.07134 0.1255 0
M  V30 22 H 2.96031 0.935105 -0.38365 0
M  V30 23 H 4.30406 -1.28399 -1.2524 0
M  V30 24 H 4.25768 -2.32281 0.256872 0
M  V30 25 H 2.01374 3.30651 0.115285 0
M  V30 26 H 0.486148 3.96949 -0.518307 0
M  V30 END ATOM
M  V30 BEGIN BOND
M  V30 1 1 1 2
M  V30 2 2 2 3
M  V30 3 1 2 4
M  V30 4 1 4 5
M  V30 5 1 5 6
M  V30 6 2 6 7
M  V30 7 1 7 8
M  V30 8 2 8 9
M  V30 9 1 9 10
M  V30 10 2 10 11
M  V30 11 1 11 12
M  V30 12 2 12 13
M  V30 13 1 12 14
M  V30 14 1 7 15
M  V30 15 1 9 5
M  V30 16 1 13 8
M  V30 17 1 1 16
M  V30 18 1 4 17
M  V30 19 1 4 18
M  V30 20 1 6 19
M  V30 21 1 10 20
M  V30 22 1 11 21
M  V30 23 1 13 22
M  V30 24 1 14 23
M  V30 25 1 14 24
M  V30 26 1 15 25
M  V30 27 1 15 26
M  V30 END BOND
M  V30 END CTAB
M  END
