
     RDKit          3D

  0  0  0  0  0  0  0  0  0  0999 V3000
M  V30 BEGIN CTAB
M  V30 COUNTS 16 16 0 0 0
M  V30 BEGIN ATOM
M  V30 1 N -2.83652 0.293568 0.0318492 0
M  V30 2 C -1.43426 0.120671 0.0139514 0
M  V30 3 C -0.586413 1.22362 0.0719087 0
M  V30 4 C 0.785234 1.06192 0.0548505 0
M  V30 5 Cl 1.81252 2.47698 0.12953 0
M  V30 6 C 1.38022 -0.179893 -0.0192701 0
M  V30 7 N 2.79115 -0.371026 -0.0382297 0
M  V30 8 C 0.54868 -1.27959 -0.0771387 0
M  V30 9 C -0.826316 -1.11827 -0.0600839 0
M  V30 10 H -3.45329 -0.381829 -0.454985 0
M  V30 11 H -3.27881 1.09237 0.527472 0
M  V30 12 H -1.06869 2.19294 0.129866 0
M  V30 13 H 3.33924 -0.435283 0.854283 0
M  V30 14 H 3.33483 -0.454407 -0.923074 0
M  V30 15 H 0.984066 -2.26928 -0.135993 0
M  V30 16 H -1.49163 -1.97247 -0.104937 0
M  V30 END ATOM
M  V30 BEGIN BOND
M  V30 1 1 1 2
M  V30 2 2 2 3
M  V30 3 1 3 4
M  V30 4 1 4 5
M  V30 5 2 4 6
M  V30 6 1 6 7
M  V30 7 1 6 8
M  V30 8 2 8 9
M  V30 9 1 9 2
M  V30 10 1 1 10
M  V30 11 1 1 11
M  V30 12 1 3 12
M  V30 13 1 7 13
M  V30 14 1 7 14
M  V30 15 1 8 15
M  V30 16 1 9 16
M  V30 END BOND
M  V30 END CTAB
M  END
