
     RDKit          3D

  0  0  0  0  0  0  0  0  0  0999 V3000
M  V30 BEGIN CTAB
M  V30 COUNTS 41 42 0 0 0
M  V30 BEGIN ATOM
M  V30 1 N -6.16271 0.848888 0.70174 0
M  V30 2 C -5.48088 0.597952 -0.541209 0
M  V30 3 C -3.98816 0.743716 -0.34242 0 CFG=1
M  V30 4 C -3.42827 -0.194736 0.664917 0
M  V30 5 C -2.47132 -1.20137 0.133455 0
M  V30 6 C -1.48041 -0.690903 -0.843204 0 CFG=1
M  V30 7 C -1.80942 0.668579 -1.40901 0
M  V30 8 C -3.31544 0.658673 -1.69647 0
M  V30 9 C -0.0875906 -0.63163 -0.270912 0
M  V30 10 O 0.13574 -0.993979 0.918781 0
M  V30 11 O 0.979898 -0.188874 -1.00543 0
M  V30 12 C 2.28493 -0.110952 -0.535297 0
M  V30 13 C 3.17404 -1.15878 -0.655554 0
M  V30 14 C 4.4693 -1.09571 -0.194653 0
M  V30 15 C 4.92748 0.0548645 0.419879 0
M  V30 16 C 4.06622 1.11406 0.554047 0
M  V30 17 C 2.75276 1.03199 0.0794229 0
M  V30 18 S 6.57771 0.0924053 0.989987 0
M  V30 19 N 6.72252 -0.457106 2.61136 0
M  V30 20 O 7.15251 1.47724 0.813246 0
M  V30 21 O 7.39105 -0.816178 0.0857426 0
M  V30 22 H -6.99433 0.244529 0.757942 0
M  V30 23 H -5.52222 0.795497 1.50439 0
M  V30 24 H -5.7577 -0.365913 -1.00833 0
M  V30 25 H -5.79441 1.40624 -1.24855 0
M  V30 26 H -3.83253 1.80857 0.00163249 0
M  V30 27 H -2.90616 0.375063 1.47774 0
M  V30 28 H -4.23887 -0.762888 1.20926 0
M  V30 29 H -1.9986 -1.71241 1.01486 0
M  V30 30 H -3.07676 -2.01408 -0.364817 0
M  V30 31 H -1.39001 -1.381 -1.73195 0
M  V30 32 H -1.22944 0.828938 -2.33646 0
M  V30 33 H -1.56414 1.4176 -0.621988 0
M  V30 34 H -3.53628 1.54967 -2.29134 0
M  V30 35 H -3.52178 -0.29432 -2.20593 0
M  V30 36 H 2.81667 -2.05957 -1.13622 0
M  V30 37 H 5.10236 -1.9611 -0.328029 0
M  V30 38 H 4.42827 2.01405 1.03597 0
M  V30 39 H 2.07424 1.86149 0.183136 0
M  V30 40 H 7.59255 -0.0086453 3.00363 0
M  V30 41 H 6.93918 -1.48986 2.57136 0
M  V30 END ATOM
M  V30 BEGIN BOND
M  V30 1 1 1 2
M  V30 2 1 2 3
M  V30 3 1 3 4
M  V30 4 1 4 5
M  V30 5 1 5 6
M  V30 6 1 6 7
M  V30 7 1 7 8
M  V30 8 1 6 9
M  V30 9 2 9 10
M  V30 10 1 9 11
M  V30 11 1 11 12
M  V30 12 2 12 13
M  V30 13 1 13 14
M  V30 14 2 14 15
M  V30 15 1 15 16
M  V30 16 2 16 17
M  V30 17 1 15 18
M  V30 18 1 18 19
M  V30 19 2 18 20
M  V30 20 2 18 21
M  V30 21 1 8 3
M  V30 22 1 17 12
M  V30 23 1 1 22
M  V30 24 1 1 23
M  V30 25 1 2 24
M  V30 26 1 2 25
M  V30 27 1 3 26 CFG=1
M  V30 28 1 4 27
M  V30 29 1 4 28
M  V30 30 1 5 29
M  V30 31 1 5 30
M  V30 32 1 6 31 CFG=3
M  V30 33 1 7 32
M  V30 34 1 7 33
M  V30 35 1 8 34
M  V30 36 1 8 35
M  V30 37 1 13 36
M  V30 38 1 14 37
M  V30 39 1 16 38
M  V30 40 1 17 39
M  V30 41 1 19 40
M  V30 42 1 19 41
M  V30 END BOND
M  V30 END CTAB
M  END
