
     RDKit          3D

  0  0  0  0  0  0  0  0  0  0999 V3000
M  V30 BEGIN CTAB
M  V30 COUNTS 24 23 0 0 0
M  V30 BEGIN ATOM
M  V30 1 N 3.43534 0.310334 -0.973452 0
M  V30 2 C 2.95857 -0.81596 -0.243709 0
M  V30 3 C 1.73287 -0.523862 0.584544 0
M  V30 4 F 1.34925 -1.66956 1.25044 0
M  V30 5 F 2.05539 0.439332 1.51507 0
M  V30 6 C 0.570991 -0.080473 -0.291342 0
M  V30 7 C -0.593562 0.18296 0.638509 0
M  V30 8 C -1.82273 0.634545 -0.114067 0
M  V30 9 N -2.24596 -0.371978 -1.06705 0
M  V30 10 C -2.94228 0.896126 0.820585 0
M  V30 11 O -4.13652 0.222256 0.691263 0
M  V30 12 O -2.79318 1.75118 1.74797 0
M  V30 13 H 4.4339 0.30999 -1.1868 0
M  V30 14 H 3.0478 1.22371 -0.662323 0
M  V30 15 H 2.7692 -1.65196 -0.963289 0
M  V30 16 H 3.75937 -1.14083 0.451995 0
M  V30 17 H 0.250964 -0.883652 -0.978496 0
M  V30 18 H 0.852348 0.806739 -0.886103 0
M  V30 19 H -0.858785 -0.819885 1.0846 0
M  V30 20 H -0.291106 0.88033 1.42132 0
M  V30 21 H -1.62514 1.57015 -0.691689 0
M  V30 22 H -3.2765 -0.527574 -1.04543 0
M  V30 23 H -1.7861 -1.26803 -0.868741 0
M  V30 24 H -4.84413 0.526105 0.041971 0
M  V30 END ATOM
M  V30 BEGIN BOND
M  V30 1 1 1 2
M  V30 2 1 2 3
M  V30 3 1 3 4
M  V30 4 1 3 5
M  V30 5 1 3 6
M  V30 6 1 6 7
M  V30 7 1 7 8
M  V30 8 1 8 9
M  V30 9 1 8 10
M  V30 10 1 10 11
M  V30 11 2 10 12
M  V30 12 1 1 13
M  V30 13 1 1 14
M  V30 14 1 2 15
M  V30 15 1 2 16
M  V30 16 1 6 17
M  V30 17 1 6 18
M  V30 18 1 7 19
M  V30 19 1 7 20
M  V30 20 1 8 21
M  V30 21 1 9 22
M  V30 22 1 9 23
M  V30 23 1 11 24
M  V30 END BOND
M  V30 END CTAB
M  END
