
     RDKit          3D

  0  0  0  0  0  0  0  0  0  0999 V3000
M  V30 BEGIN CTAB
M  V30 COUNTS 24 24 0 0 0
M  V30 BEGIN ATOM
M  V30 1 C -3.50198 -0.887822 0.290378 0
M  V30 2 N -2.07455 -1.10802 0.188092 0
M  V30 3 C -1.15358 -0.0316083 0.202481 0
M  V30 4 C -1.54994 1.2862 0.313989 0
M  V30 5 C -0.60888 2.28416 0.322036 0
M  V30 6 C 0.757175 2.00341 0.219395 0
M  V30 7 C 1.14956 0.691757 0.108536 0
M  V30 8 C 0.207044 -0.311342 0.100238 0
M  V30 9 N 0.618736 -1.64969 -0.0135957 0
M  V30 10 S 2.83881 0.286596 -0.0221929 0
M  V30 11 O 3.16807 -0.635124 1.14547 0
M  V30 12 O 3.66695 1.53633 0.0744851 0
M  V30 13 N 3.23362 -0.536989 -1.45148 0
M  V30 14 H -3.7914 -0.581448 1.33434 0
M  V30 15 H -3.82625 -0.0123582 -0.343527 0
M  V30 16 H -4.07738 -1.76339 -0.0429397 0
M  V30 17 H -1.73738 -2.08123 0.103154 0
M  V30 18 H -2.61279 1.46112 0.390979 0
M  V30 19 H -0.95051 3.30753 0.410704 0
M  V30 20 H 1.45398 2.83277 0.231336 0
M  V30 21 H 0.739873 -2.31479 0.76866 0
M  V30 22 H 0.823524 -2.01182 -0.983018 0
M  V30 23 H 4.08466 -0.198358 -1.93625 0
M  V30 24 H 3.14263 -1.56588 -1.41127 0
M  V30 END ATOM
M  V30 BEGIN BOND
M  V30 1 1 1 2
M  V30 2 1 2 3
M  V30 3 2 3 4
M  V30 4 1 4 5
M  V30 5 2 5 6
M  V30 6 1 6 7
M  V30 7 2 7 8
M  V30 8 1 8 9
M  V30 9 1 7 10
M  V30 10 2 10 11
M  V30 11 2 10 12
M  V30 12 1 10 13
M  V30 13 1 8 3
M  V30 14 1 1 14
M  V30 15 1 1 15
M  V30 16 1 1 16
M  V30 17 1 2 17
M  V30 18 1 4 18
M  V30 19 1 5 19
M  V30 20 1 6 20
M  V30 21 1 9 21
M  V30 22 1 9 22
M  V30 23 1 13 23
M  V30 24 1 13 24
M  V30 END BOND
M  V30 END CTAB
M  END
