
     RDKit          3D

  0  0  0  0  0  0  0  0  0  0999 V3000
M  V30 BEGIN CTAB
M  V30 COUNTS 71 72 0 0 0
M  V30 BEGIN ATOM
M  V30 1 C -1.65192 1.53761 -0.768897 0
M  V30 2 N -2.47277 1.70785 0.357128 0
M  V30 3 C -3.48222 2.68112 0.549362 0
M  V30 4 O -3.68473 3.52042 -0.357303 0
M  V30 5 C -4.31659 2.75476 1.77108 0 CFG=2
M  V30 6 C -3.96276 3.82769 2.73417 0
M  V30 7 C -3.76322 3.17503 4.08487 0
M  V30 8 C -3.39302 1.77035 3.67259 0
M  V30 9 N -4.23428 1.5392 2.54378 0
M  V30 10 C -4.87956 0.327458 2.22503 0
M  V30 11 O -5.59792 0.32673 1.16063 0
M  V30 12 C -4.78805 -0.917595 3.01506 0 CFG=2
M  V30 13 C -3.36068 -1.32203 3.24569 0
M  V30 14 N -5.5409 -1.9635 2.3144 0
M  V30 15 C -0.827888 2.65315 -1.20864 0
M  V30 16 O -0.800866 3.77962 -0.671128 0
M  V30 17 N 0.0239165 2.44241 -2.35737 0
M  V30 18 C 0.885026 3.36119 -3.021 0
M  V30 19 C 1.03791 2.87017 -4.44218 0
M  V30 20 C 0.134219 1.65942 -4.4918 0
M  V30 21 C 0.163981 1.16863 -3.04881 0 CFG=1
M  V30 22 C 1.46766 0.521688 -2.82587 0
M  V30 23 O 2.51633 1.16025 -2.74751 0
M  V30 24 N 1.53077 -0.89786 -2.68927 0
M  V30 25 C 2.85938 -1.56038 -2.4743 0 CFG=1
M  V30 26 C 3.05176 -1.62053 -1.00016 0
M  V30 27 C 4.23649 -2.20194 -0.393456 0
M  V30 28 C 4.45584 -3.67054 -0.591852 0
M  V30 29 N 5.69829 -4.06581 0.0973083 0
M  V30 30 C 5.77676 -4.05825 1.50419 0
M  V30 31 N 6.93383 -3.48319 2.11841 0
M  V30 32 N 4.86691 -4.53944 2.26203 0
M  V30 33 C 2.78145 -2.78973 -3.22841 0
M  V30 34 O 3.80814 -3.20835 -4.05282 0
M  V30 35 O 1.7533 -3.56461 -3.19086 0
M  V30 36 H -0.992699 0.640229 -0.602689 0
M  V30 37 H -2.26749 1.22029 -1.6584 0
M  V30 38 H -2.34665 1.03518 1.17836 0
M  V30 39 H -5.36739 2.92941 1.38134 0
M  V30 40 H -4.81926 4.56916 2.81264 0
M  V30 41 H -3.06059 4.41455 2.51366 0
M  V30 42 H -2.91363 3.61865 4.65555 0
M  V30 43 H -4.67702 3.22775 4.68342 0
M  V30 44 H -2.30182 1.70605 3.45966 0
M  V30 45 H -3.58484 1.08824 4.52379 0
M  V30 46 H -5.26104 -0.754848 4.00266 0
M  V30 47 H -3.13831 -2.32238 2.77327 0
M  V30 48 H -2.63183 -0.636107 2.81791 0
M  V30 49 H -3.14079 -1.44353 4.34033 0
M  V30 50 H -6.53087 -1.65982 2.20623 0
M  V30 51 H -5.12847 -1.99732 1.34057 0
M  V30 52 H 0.424187 4.38841 -3.09384 0
M  V30 53 H 1.86927 3.52597 -2.54994 0
M  V30 54 H 2.07117 2.56283 -4.69373 0
M  V30 55 H 0.721182 3.64848 -5.18132 0
M  V30 56 H 0.49306 0.888176 -5.18628 0
M  V30 57 H -0.886632 2.02363 -4.72746 0
M  V30 58 H -0.6922 0.51714 -2.8326 0
M  V30 59 H 0.720695 -1.52213 -2.72327 0
M  V30 60 H 3.65625 -0.887118 -2.86424 0
M  V30 61 H 2.13047 -2.16731 -0.594911 0
M  V30 62 H 2.89075 -0.576666 -0.546602 0
M  V30 63 H 5.2018 -1.71097 -0.694752 0
M  V30 64 H 4.23454 -2.03235 0.734978 0
M  V30 65 H 3.62239 -4.22587 -0.0748552 0
M  V30 66 H 4.52577 -4.01936 -1.61377 0
M  V30 67 H 6.51724 -4.33814 -0.460788 0
M  V30 68 H 7.50406 -2.81163 1.56623 0
M  V30 69 H 7.17213 -3.7394 3.09228 0
M  V30 70 H 3.97786 -4.9836 1.92359 0
M  V30 71 H 4.78412 -3.0966 -3.88868 0
M  V30 END ATOM
M  V30 BEGIN BOND
M  V30 1 1 1 2
M  V30 2 1 2 3
M  V30 3 2 3 4
M  V30 4 1 3 5
M  V30 5 1 5 6
M  V30 6 1 6 7
M  V30 7 1 7 8
M  V30 8 1 8 9
M  V30 9 1 9 10
M  V30 10 2 10 11
M  V30 11 1 10 12
M  V30 12 1 12 13
M  V30 13 1 12 14
M  V30 14 1 1 15
M  V30 15 2 15 16
M  V30 16 1 15 17
M  V30 17 1 17 18
M  V30 18 1 18 19
M  V30 19 1 19 20
M  V30 20 1 20 21
M  V30 21 1 21 22
M  V30 22 2 22 23
M  V30 23 1 22 24
M  V30 24 1 24 25
M  V30 25 1 25 26
M  V30 26 1 26 27
M  V30 27 1 27 28
M  V30 28 1 28 29
M  V30 29 1 29 30
M  V30 30 1 30 31
M  V30 31 2 30 32 CFG=2
M  V30 32 1 25 33
M  V30 33 1 33 34
M  V30 34 2 33 35
M  V30 35 1 9 5
M  V30 36 1 21 17
M  V30 37 1 1 36
M  V30 38 1 1 37
M  V30 39 1 2 38
M  V30 40 1 5 39 CFG=3
M  V30 41 1 6 40
M  V30 42 1 6 41
M  V30 43 1 7 42
M  V30 44 1 7 43
M  V30 45 1 8 44
M  V30 46 1 8 45
M  V30 47 1 12 46 CFG=1
M  V30 48 1 13 47
M  V30 49 1 13 48
M  V30 50 1 13 49
M  V30 51 1 14 50
M  V30 52 1 14 51
M  V30 53 1 18 52
M  V30 54 1 18 53
M  V30 55 1 19 54
M  V30 56 1 19 55
M  V30 57 1 20 56
M  V30 58 1 20 57
M  V30 59 1 21 58 CFG=3
M  V30 60 1 24 59
M  V30 61 1 25 60 CFG=3
M  V30 62 1 26 61
M  V30 63 1 26 62
M  V30 64 1 27 63
M  V30 65 1 27 64
M  V30 66 1 28 65
M  V30 67 1 28 66
M  V30 68 1 29 67
M  V30 69 1 31 68
M  V30 70 1 31 69
M  V30 71 1 32 70
M  V30 72 1 34 71
M  V30 END BOND
M  V30 END CTAB
M  END
