
     RDKit          3D

  0  0  0  0  0  0  0  0  0  0999 V3000
M  V30 BEGIN CTAB
M  V30 COUNTS 45 46 0 0 0
M  V30 BEGIN ATOM
M  V30 1 N 3.95132 -0.0497855 -1.98864 0
M  V30 2 C 3.37272 -1.19572 -1.32636 0
M  V30 3 C 2.83803 -0.895651 0.0524908 0
M  V30 4 C 3.84983 -0.394898 1.02198 0
M  V30 5 C 4.64168 0.833331 0.855723 0
M  V30 6 C 5.3023 -0.532204 0.73861 0
M  V30 7 N 1.74342 0.0356442 -0.110418 0
M  V30 8 C 0.382879 -0.285124 0.204344 0
M  V30 9 O 0.201523 -1.44956 0.638734 0
M  V30 10 C -0.715195 0.663832 0.0358664 0
M  V30 11 C -2.064 0.21395 0.456879 0
M  V30 12 C -2.23321 -0.150566 1.88574 0
M  V30 13 N -1.94445 0.928808 2.8044 0
M  V30 14 C -2.51446 -1.01018 -0.357278 0
M  V30 15 C -4.03242 -1.00102 -0.485105 0
M  V30 16 C -4.41217 -0.000577782 -1.57682 0
M  V30 17 C -3.41987 1.15226 -1.43713 0
M  V30 18 C -3.04923 1.31637 0.0318356 0
M  V30 19 H 3.23323 0.516287 -2.50487 0
M  V30 20 H 4.63282 -0.377938 -2.70953 0
M  V30 21 H 4.09219 -2.04209 -1.30772 0
M  V30 22 H 2.50115 -1.56603 -1.92305 0
M  V30 23 H 2.45689 -1.88242 0.454172 0
M  V30 24 H 3.59201 -0.643094 2.09668 0
M  V30 25 H 4.68101 1.44253 -0.053332 0
M  V30 26 H 4.87813 1.43755 1.77387 0
M  V30 27 H 5.64592 -0.887783 -0.234619 0
M  V30 28 H 6.00642 -0.819882 1.56612 0
M  V30 29 H 1.9253 0.993388 -0.472606 0
M  V30 30 H -0.723469 0.976814 -1.04942 0
M  V30 31 H -0.411048 1.61375 0.565433 0
M  V30 32 H -3.30125 -0.424082 2.03837 0
M  V30 33 H -1.6602 -1.06037 2.10748 0
M  V30 34 H -0.958289 0.80531 3.13544 0
M  V30 35 H -2.58449 0.967594 3.60959 0
M  V30 36 H -2.10068 -0.946255 -1.37843 0
M  V30 37 H -2.20137 -1.94131 0.128509 0
M  V30 38 H -4.41385 -2.01064 -0.708979 0
M  V30 39 H -4.53335 -0.658346 0.42961 0
M  V30 40 H -5.44535 0.388229 -1.37138 0
M  V30 41 H -4.40292 -0.451321 -2.56904 0
M  V30 42 H -3.85211 2.10975 -1.78225 0
M  V30 43 H -2.50604 0.96605 -2.04102 0
M  V30 44 H -2.50637 2.30132 0.103025 0
M  V30 45 H -3.94301 1.33185 0.653097 0
M  V30 END ATOM
M  V30 BEGIN BOND
M  V30 1 1 1 2
M  V30 2 1 2 3
M  V30 3 1 3 4
M  V30 4 1 4 5
M  V30 5 1 5 6
M  V30 6 1 3 7
M  V30 7 1 7 8
M  V30 8 2 8 9
M  V30 9 1 8 10
M  V30 10 1 10 11
M  V30 11 1 11 12
M  V30 12 1 12 13
M  V30 13 1 11 14
M  V30 14 1 14 15
M  V30 15 1 15 16
M  V30 16 1 16 17
M  V30 17 1 17 18
M  V30 18 1 6 4
M  V30 19 1 18 11
M  V30 20 1 1 19
M  V30 21 1 1 20
M  V30 22 1 2 21
M  V30 23 1 2 22
M  V30 24 1 3 23
M  V30 25 1 4 24
M  V30 26 1 5 25
M  V30 27 1 5 26
M  V30 28 1 6 27
M  V30 29 1 6 28
M  V30 30 1 7 29
M  V30 31 1 10 30
M  V30 32 1 10 31
M  V30 33 1 12 32
M  V30 34 1 12 33
M  V30 35 1 13 34
M  V30 36 1 13 35
M  V30 37 1 14 36
M  V30 38 1 14 37
M  V30 39 1 15 38
M  V30 40 1 15 39
M  V30 41 1 16 40
M  V30 42 1 16 41
M  V30 43 1 17 42
M  V30 44 1 17 43
M  V30 45 1 18 44
M  V30 46 1 18 45
M  V30 END BOND
M  V30 END CTAB
M  END
