
     RDKit          3D

  0  0  0  0  0  0  0  0  0  0999 V3000
M  V30 BEGIN CTAB
M  V30 COUNTS 39 41 0 0 0
M  V30 BEGIN ATOM
M  V30 1 N 8.26515 1.46489 -1.07394 0
M  V30 2 C 7.26946 0.928658 -0.811522 0
M  V30 3 C 6.04017 0.241338 -0.492517 0
M  V30 4 C 4.86388 0.949133 -0.533569 0
M  V30 5 C 3.65629 0.280614 -0.221898 0
M  V30 6 C 3.79116 -1.03847 0.0967537 0
M  V30 7 N 4.98692 -1.70564 0.125213 0
M  V30 8 C 6.15162 -1.08974 -0.168067 0
M  V30 9 N 7.37943 -1.80006 -0.132426 0
M  V30 10 S 2.19444 -1.53162 0.409757 0
M  V30 11 C 1.3855 -0.0545395 0.130374 0
M  V30 12 C 2.40878 0.798992 -0.206528 0
M  V30 13 N 2.10435 2.1982 -0.525547 0
M  V30 14 C -0.0485651 0.252602 0.221246 0
M  V30 15 O -0.444762 1.38645 -0.0197184 0
M  V30 16 N -0.92912 -0.779568 0.586687 0
M  V30 17 C -2.35045 -0.616705 0.712645 0
M  V30 18 C -3.01058 -0.17488 -0.571188 0
M  V30 19 C -4.47542 -0.0480111 -0.291083 0
M  V30 20 C -5.01459 1.14941 0.152309 0
M  V30 21 C -6.36584 1.27427 0.412982 0
M  V30 22 C -7.16506 0.166135 0.217609 0
M  V30 23 C -6.65823 -1.01919 -0.216851 0
M  V30 24 C -5.30869 -1.13882 -0.47569 0
M  V30 25 Cl -7.68986 -2.41387 -0.45848 0
M  V30 26 H 4.8877 1.99386 -0.801311 0
M  V30 27 H 8.17574 -1.58366 -0.789234 0
M  V30 28 H 7.56524 -2.57601 0.54423 0
M  V30 29 H 1.8108 2.86836 0.202486 0
M  V30 30 H 2.18424 2.53077 -1.50914 0
M  V30 31 H -0.55373 -1.75603 0.790144 0
M  V30 32 H -2.52727 0.136738 1.50628 0
M  V30 33 H -2.86209 -1.5406 1.04519 0
M  V30 34 H -2.6741 0.803524 -0.926055 0
M  V30 35 H -2.85972 -0.913031 -1.3832 0
M  V30 36 H -4.33196 1.97737 0.284136 0
M  V30 37 H -6.73005 2.21754 0.752238 0
M  V30 38 H -8.21152 0.258725 0.418266 0
M  V30 39 H -4.90928 -2.09714 -0.825229 0
M  V30 END ATOM
M  V30 BEGIN BOND
M  V30 1 3 1 2
M  V30 2 1 2 3
M  V30 3 2 3 4
M  V30 4 1 4 5
M  V30 5 2 5 6
M  V30 6 1 6 7
M  V30 7 2 7 8
M  V30 8 1 8 9
M  V30 9 1 6 10
M  V30 10 1 10 11
M  V30 11 2 11 12
M  V30 12 1 12 13
M  V30 13 1 11 14
M  V30 14 2 14 15
M  V30 15 1 14 16
M  V30 16 1 16 17
M  V30 17 1 17 18
M  V30 18 1 18 19
M  V30 19 2 19 20
M  V30 20 1 20 21
M  V30 21 2 21 22
M  V30 22 1 22 23
M  V30 23 2 23 24
M  V30 24 1 23 25
M  V30 25 1 8 3
M  V30 26 1 24 19
M  V30 27 1 12 5
M  V30 28 1 4 26
M  V30 29 1 9 27
M  V30 30 1 9 28
M  V30 31 1 13 29
M  V30 32 1 13 30
M  V30 33 1 16 31
M  V30 34 1 17 32
M  V30 35 1 17 33
M  V30 36 1 18 34
M  V30 37 1 18 35
M  V30 38 1 20 36
M  V30 39 1 21 37
M  V30 40 1 22 38
M  V30 41 1 24 39
M  V30 END BOND
M  V30 END CTAB
M  END
