
     RDKit          3D

  0  0  0  0  0  0  0  0  0  0999 V3000
M  V30 BEGIN CTAB
M  V30 COUNTS 18 18 0 0 0
M  V30 BEGIN ATOM
M  V30 1 N 2.6264 -0.133155 -0.579236 0
M  V30 2 C 1.90262 -0.157164 0.637727 0
M  V30 3 C 0.484892 0.191748 0.346316 0
M  V30 4 C -0.473998 -0.743748 0.033747 0
M  V30 5 C -1.79058 -0.427488 -0.237638 0
M  V30 6 N -2.75085 -1.45398 -0.559498 0
M  V30 7 N -2.14936 0.85626 -0.193549 0
M  V30 8 C -1.25216 1.81164 0.106801 0
M  V30 9 C 0.0591707 1.51521 0.378931 0
M  V30 10 H 3.30746 0.623574 -0.702509 0
M  V30 11 H 2.8066 -1.01344 -1.04442 0
M  V30 12 H 2.34457 0.460033 1.43236 0
M  V30 13 H 1.92217 -1.21514 1.02809 0
M  V30 14 H -0.150381 -1.77653 0.00631746 0
M  V30 15 H -2.50755 -2.0381 -1.38888 0
M  V30 16 H -3.61161 -1.61036 -0.0239111 0
M  V30 17 H -1.55766 2.84353 0.138289 0
M  V30 18 H 0.79027 2.26711 0.62106 0
M  V30 END ATOM
M  V30 BEGIN BOND
M  V30 1 1 1 2
M  V30 2 1 2 3
M  V30 3 2 3 4
M  V30 4 1 4 5
M  V30 5 1 5 6
M  V30 6 2 5 7
M  V30 7 1 7 8
M  V30 8 2 8 9
M  V30 9 1 9 3
M  V30 10 1 1 10
M  V30 11 1 1 11
M  V30 12 1 2 12
M  V30 13 1 2 13
M  V30 14 1 4 14
M  V30 15 1 6 15
M  V30 16 1 6 16
M  V30 17 1 8 17
M  V30 18 1 9 18
M  V30 END BOND
M  V30 END CTAB
M  END
