
     RDKit          3D

  0  0  0  0  0  0  0  0  0  0999 V3000
M  V30 BEGIN CTAB
M  V30 COUNTS 77 82 0 0 0
M  V30 BEGIN ATOM
M  V30 1 C 7.52439 1.74806 -1.67016 0
M  V30 2 C 6.8854 1.72356 -0.287224 0
M  V30 3 N 6.75938 0.342584 0.138534 0
M  V30 4 C 5.7543 -0.528321 -0.0372169 0
M  V30 5 C 4.47041 -0.20745 -0.762443 0
M  V30 6 C 3.48741 0.31116 0.228245 0
M  V30 7 C 2.15442 0.694922 -0.288678 0
M  V30 8 C 1.37802 -0.39367 -0.907305 0
M  V30 9 O 1.79957 -1.56895 -0.819262 0
M  V30 10 N 0.1585 -0.167065 -1.60484 0
M  V30 11 C -0.544087 -1.28938 -2.17942 0
M  V30 12 C -2.036 -1.11745 -2.03873 0
M  V30 13 C -2.28147 -0.0846804 -0.962417 0
M  V30 14 C -1.83884 1.25397 -1.56092 0
M  V30 15 C -0.347167 1.19131 -1.71992 0
M  V30 16 O -1.54766 -0.439945 0.146812 0
M  V30 17 C -1.81158 0.360685 1.25501 0
M  V30 18 C -3.22789 0.100193 1.77581 0 CFG=2
M  V30 19 C -3.94785 -0.664152 0.714187 0 CFG=2
M  V30 20 C -3.78082 -0.0195123 -0.63312 0
M  V30 21 N -5.32061 -0.950103 1.03591 0
M  V30 22 C -5.79007 -1.72029 2.03119 0
M  V30 23 N -7.12715 -1.75058 2.02009 0
M  V30 24 C -7.5495 -0.998857 1.01535 0
M  V30 25 C -6.41454 -0.49062 0.389966 0
M  V30 26 N -6.61933 0.310416 -0.670886 0
M  V30 27 C -7.8305 0.639607 -1.14946 0
M  V30 28 N -8.02144 1.48626 -2.27013 0
M  V30 29 N -8.91581 0.139979 -0.533544 0
M  V30 30 C -8.79628 -0.668667 0.534433 0
M  V30 31 N -9.9602 -1.17969 1.16256 0
M  V30 32 C -3.82804 1.42184 2.11393 0
M  V30 33 O -3.18125 -0.681257 2.93592 0
M  V30 34 N 6.12528 -1.67222 0.541984 0
M  V30 35 C 7.34747 -1.55728 1.08705 0
M  V30 36 C 7.76015 -0.268645 0.832214 0
M  V30 37 C 8.99116 0.115457 1.28689 0
M  V30 38 C 9.81515 -0.747171 1.98438 0
M  V30 39 C 9.411 -2.03764 2.24393 0
M  V30 40 C 8.17234 -2.44119 1.79244 0
M  V30 41 H 8.61296 1.65338 -1.63938 0
M  V30 42 H 7.28163 2.73407 -2.12088 0
M  V30 43 H 7.10453 0.945485 -2.3071 0
M  V30 44 H 5.90277 2.19296 -0.283721 0
M  V30 45 H 7.55224 2.29491 0.402186 0
M  V30 46 H 4.71996 0.547972 -1.53878 0
M  V30 47 H 4.12129 -1.15282 -1.19929 0
M  V30 48 H 3.35455 -0.395001 1.09946 0
M  V30 49 H 3.93439 1.24157 0.691204 0
M  V30 50 H 2.21766 1.58525 -0.953363 0
M  V30 51 H 1.56314 1.06499 0.599958 0
M  V30 52 H -0.287861 -2.19402 -1.5517 0
M  V30 53 H -0.244771 -1.45423 -3.23756 0
M  V30 54 H -2.53768 -2.06044 -1.69938 0
M  V30 55 H -2.49658 -0.784853 -3.01551 0
M  V30 56 H -2.21609 2.11175 -1.01049 0
M  V30 57 H -2.27903 1.2616 -2.60087 0
M  V30 58 H 0.0167522 1.58893 -2.68939 0
M  V30 59 H 0.119136 1.81172 -0.923841 0
M  V30 60 H -1.66575 1.41043 0.961762 0
M  V30 61 H -1.09561 0.0993906 2.03898 0
M  V30 62 H -3.42847 -1.66656 0.641904 0
M  V30 63 H -4.31361 -0.645435 -1.3772 0
M  V30 64 H -4.1316 1.03516 -0.661463 0
M  V30 65 H -5.12069 -2.23419 2.73345 0
M  V30 66 H -7.70083 1.26841 -3.2229 0
M  V30 67 H -8.52123 2.39097 -2.11679 0
M  V30 68 H -10.5576 -0.549164 1.71286 0
M  V30 69 H -10.2149 -2.16789 1.07665 0
M  V30 70 H -4.89972 1.36519 2.38833 0
M  V30 71 H -3.62011 2.19636 1.35398 0
M  V30 72 H -3.3047 1.78133 3.04922 0
M  V30 73 H -3.16914 -0.0754769 3.70828 0
M  V30 74 H 9.31381 1.13987 1.08127 0
M  V30 75 H 10.783 -0.396114 2.32469 0
M  V30 76 H 10.0727 -2.70154 2.79378 0
M  V30 77 H 7.85917 -3.43916 1.99279 0
M  V30 END ATOM
M  V30 BEGIN BOND
M  V30 1 1 1 2
M  V30 2 1 2 3
M  V30 3 1 3 4
M  V30 4 1 4 5
M  V30 5 1 5 6
M  V30 6 1 6 7
M  V30 7 1 7 8
M  V30 8 2 8 9
M  V30 9 1 8 10
M  V30 10 1 10 11
M  V30 11 1 11 12
M  V30 12 1 12 13
M  V30 13 1 13 14
M  V30 14 1 14 15
M  V30 15 1 13 16
M  V30 16 1 16 17
M  V30 17 1 17 18
M  V30 18 1 18 19
M  V30 19 1 19 20
M  V30 20 1 19 21
M  V30 21 1 21 22
M  V30 22 2 22 23
M  V30 23 1 23 24
M  V30 24 2 24 25
M  V30 25 1 25 26
M  V30 26 2 26 27
M  V30 27 1 27 28
M  V30 28 1 27 29
M  V30 29 2 29 30
M  V30 30 1 30 31
M  V30 31 1 18 32
M  V30 32 1 18 33 CFG=1
M  V30 33 2 4 34
M  V30 34 1 34 35
M  V30 35 2 35 36
M  V30 36 1 36 37
M  V30 37 2 37 38
M  V30 38 1 38 39
M  V30 39 2 39 40
M  V30 40 1 36 3
M  V30 41 1 15 10
M  V30 42 1 25 21
M  V30 43 1 40 35
M  V30 44 1 20 13
M  V30 45 1 30 24
M  V30 46 1 1 41
M  V30 47 1 1 42
M  V30 48 1 1 43
M  V30 49 1 2 44
M  V30 50 1 2 45
M  V30 51 1 5 46
M  V30 52 1 5 47
M  V30 53 1 6 48
M  V30 54 1 6 49
M  V30 55 1 7 50
M  V30 56 1 7 51
M  V30 57 1 11 52
M  V30 58 1 11 53
M  V30 59 1 12 54
M  V30 60 1 12 55
M  V30 61 1 14 56
M  V30 62 1 14 57
M  V30 63 1 15 58
M  V30 64 1 15 59
M  V30 65 1 17 60
M  V30 66 1 17 61
M  V30 67 1 19 62 CFG=3
M  V30 68 1 20 63
M  V30 69 1 20 64
M  V30 70 1 22 65
M  V30 71 1 28 66
M  V30 72 1 28 67
M  V30 73 1 31 68
M  V30 74 1 31 69
M  V30 75 1 32 70
M  V30 76 1 32 71
M  V30 77 1 32 72
M  V30 78 1 33 73
M  V30 79 1 37 74
M  V30 80 1 38 75
M  V30 81 1 39 76
M  V30 82 1 40 77
M  V30 END BOND
M  V30 END CTAB
M  END
