
     RDKit          3D

  0  0  0  0  0  0  0  0  0  0999 V3000
M  V30 BEGIN CTAB
M  V30 COUNTS 29 28 0 0 0
M  V30 BEGIN ATOM
M  V30 1 C -1.31361 3.0773 -0.502497 0
M  V30 2 C 0.0573208 2.51819 -0.406931 0
M  V30 3 P 0.133614 0.763522 -0.0209489 0
M  V30 4 O 0.22682 -0.0158388 -1.30771 0
M  V30 5 C -1.27252 0.185003 0.918018 0
M  V30 6 C -2.20514 -0.674788 0.163366 0
M  V30 7 O -2.97429 -0.170174 -0.683958 0
M  V30 8 N -2.28261 -2.08557 0.355748 0
M  V30 9 N -3.14026 -2.93785 -0.299308 0
M  V30 10 C 1.63482 0.485864 0.983787 0
M  V30 11 C 2.72313 -0.132034 0.244565 0
M  V30 12 O 3.72136 0.585417 -0.0818638 0
M  V30 13 N 2.70239 -1.49547 -0.115063 0
M  V30 14 N 3.78871 -2.05865 -0.832845 0
M  V30 15 H -2.06384 2.63048 0.182375 0
M  V30 16 H -1.26298 4.16649 -0.201219 0
M  V30 17 H -1.7427 3.10002 -1.52867 0
M  V30 18 H 0.586259 2.70645 -1.36871 0
M  V30 19 H 0.625593 3.09223 0.37451 0
M  V30 20 H -1.87383 0.998072 1.37543 0
M  V30 21 H -0.933539 -0.406495 1.83088 0
M  V30 22 H -1.62065 -2.47638 1.07042 0
M  V30 23 H -4.12561 -2.94311 0.0353686 0
M  V30 24 H -2.98712 -3.13983 -1.2753 0
M  V30 25 H 1.40214 -0.181584 1.86114 0
M  V30 26 H 1.92438 1.45142 1.46466 0
M  V30 27 H 1.90653 -2.12565 0.116349 0
M  V30 28 H 3.72403 -3.10238 -0.82856 0
M  V30 29 H 4.6416 -1.81464 -0.250611 0
M  V30 END ATOM
M  V30 BEGIN BOND
M  V30 1 1 1 2
M  V30 2 1 2 3
M  V30 3 2 3 4
M  V30 4 1 3 5
M  V30 5 1 5 6
M  V30 6 2 6 7
M  V30 7 1 6 8
M  V30 8 1 8 9
M  V30 9 1 3 10
M  V30 10 1 10 11
M  V30 11 2 11 12
M  V30 12 1 11 13
M  V30 13 1 13 14
M  V30 14 1 1 15
M  V30 15 1 1 16
M  V30 16 1 1 17
M  V30 17 1 2 18
M  V30 18 1 2 19
M  V30 19 1 5 20
M  V30 20 1 5 21
M  V30 21 1 8 22
M  V30 22 1 9 23
M  V30 23 1 9 24
M  V30 24 1 10 25
M  V30 25 1 10 26
M  V30 26 1 13 27
M  V30 27 1 14 28
M  V30 28 1 14 29
M  V30 END BOND
M  V30 END CTAB
M  END
