
     RDKit          3D

  0  0  0  0  0  0  0  0  0  0999 V3000
M  V30 BEGIN CTAB
M  V30 COUNTS 47 47 0 0 0
M  V30 BEGIN ATOM
M  V30 1 N 4.27932 -0.806604 1.3888 0
M  V30 2 C 3.57379 -0.830815 0.119639 0
M  V30 3 C 3.93291 0.384575 -0.712949 0
M  V30 4 C 5.44032 0.401006 -0.984713 0
M  V30 5 C 3.57468 1.67793 -0.0678229 0
M  V30 6 C 2.09953 -0.885968 0.43706 0
M  V30 7 C 1.2586 -0.916558 -0.811458 0
M  V30 8 N -0.155961 -0.974972 -0.49647 0
M  V30 9 C -0.896482 0.216323 -0.33918 0
M  V30 10 O -0.183142 1.28735 -0.506596 0
M  V30 11 C -2.30133 0.372876 -0.0256538 0
M  V30 12 N -2.60641 1.80873 0.0229627 0
M  V30 13 C -3.27584 -0.227567 -1.01835 0
M  V30 14 C -4.55986 0.565628 -0.829313 0
M  V30 15 C -4.99406 0.731544 0.563482 0
M  V30 16 C -4.05629 0.507849 1.67307 0
M  V30 17 C -2.75706 -0.169016 1.30714 0
M  V30 18 C -0.757438 -2.2726 -0.355049 0
M  V30 19 H 3.792 -0.201074 2.07269 0
M  V30 20 H 4.41609 -1.78807 1.7093 0
M  V30 21 H 3.86819 -1.73316 -0.452884 0
M  V30 22 H 3.47234 0.331574 -1.71805 0
M  V30 23 H 5.95908 0.209551 -0.0118091 0
M  V30 24 H 5.72449 -0.299228 -1.77376 0
M  V30 25 H 5.68887 1.44559 -1.25235 0
M  V30 26 H 2.72216 2.19536 -0.590866 0
M  V30 27 H 3.23647 1.57456 0.987833 0
M  V30 28 H 4.39712 2.42492 -0.0526161 0
M  V30 29 H 1.91743 -1.74179 1.10116 0
M  V30 30 H 1.85777 0.0253149 1.0295 0
M  V30 31 H 1.58096 -1.79115 -1.4342 0
M  V30 32 H 1.50471 -0.0150598 -1.41693 0
M  V30 33 H -1.89642 2.25664 0.629303 0
M  V30 34 H -2.50981 2.23053 -0.923293 0
M  V30 35 H -2.95099 -0.173304 -2.05296 0
M  V30 36 H -3.56098 -1.27376 -0.689736 0
M  V30 37 H -4.38613 1.53936 -1.34889 0
M  V30 38 H -5.3316 0.0438378 -1.46349 0
M  V30 39 H -5.88993 0.0588412 0.729312 0
M  V30 40 H -5.4384 1.76723 0.667167 0
M  V30 41 H -4.49621 -0.0884444 2.50827 0
M  V30 42 H -3.7624 1.48328 2.14704 0
M  V30 43 H -2.95015 -1.25459 1.19833 0
M  V30 44 H -1.98259 -0.0511767 2.08578 0
M  V30 45 H -1.04001 -2.53413 0.684515 0
M  V30 46 H 0.015636 -3.05407 -0.633269 0
M  V30 47 H -1.57298 -2.45729 -1.09971 0
M  V30 END ATOM
M  V30 BEGIN BOND
M  V30 1 1 1 2
M  V30 2 1 2 3
M  V30 3 1 3 4
M  V30 4 1 3 5
M  V30 5 1 2 6
M  V30 6 1 6 7
M  V30 7 1 7 8
M  V30 8 1 8 9
M  V30 9 2 9 10
M  V30 10 1 9 11
M  V30 11 1 11 12
M  V30 12 1 11 13
M  V30 13 1 13 14
M  V30 14 1 14 15
M  V30 15 1 15 16
M  V30 16 1 16 17
M  V30 17 1 8 18
M  V30 18 1 17 11
M  V30 19 1 1 19
M  V30 20 1 1 20
M  V30 21 1 2 21
M  V30 22 1 3 22
M  V30 23 1 4 23
M  V30 24 1 4 24
M  V30 25 1 4 25
M  V30 26 1 5 26
M  V30 27 1 5 27
M  V30 28 1 5 28
M  V30 29 1 6 29
M  V30 30 1 6 30
M  V30 31 1 7 31
M  V30 32 1 7 32
M  V30 33 1 12 33
M  V30 34 1 12 34
M  V30 35 1 13 35
M  V30 36 1 13 36
M  V30 37 1 14 37
M  V30 38 1 14 38
M  V30 39 1 15 39
M  V30 40 1 15 40
M  V30 41 1 16 41
M  V30 42 1 16 42
M  V30 43 1 17 43
M  V30 44 1 17 44
M  V30 45 1 18 45
M  V30 46 1 18 46
M  V30 47 1 18 47
M  V30 END BOND
M  V30 END CTAB
M  END
