
     RDKit          3D

  0  0  0  0  0  0  0  0  0  0999 V3000
M  V30 BEGIN CTAB
M  V30 COUNTS 48 51 0 0 0
M  V30 BEGIN ATOM
M  V30 1 C 6.02996 -3.30387 -1.44341 0
M  V30 2 C 5.06865 -3.12374 -0.545926 0
M  V30 3 C 5.15487 -1.96072 0.355169 0
M  V30 4 N 3.99285 -1.12465 0.15371 0
M  V30 5 C 2.71468 -1.62114 0.422775 0
M  V30 6 O 2.61147 -2.81685 0.853799 0
M  V30 7 C 1.50801 -0.86045 0.241363 0
M  V30 8 C 0.239578 -1.38436 0.519914 0
M  V30 9 N -0.0831319 -2.69793 1.00938 0
M  V30 10 N -0.634555 -0.420397 0.241923 0
M  V30 11 C 0.0170001 0.69515 -0.201382 0
M  V30 12 C 1.37964 0.446026 -0.212643 0
M  V30 13 N 2.25874 1.38897 -0.611434 0
M  V30 14 C 1.8188 2.58738 -1.0044 0
M  V30 15 C 2.68573 3.58688 -1.42234 0
M  V30 16 C 2.25667 4.82748 -1.83105 0
M  V30 17 C 0.900497 5.04869 -1.81035 0
M  V30 18 C 0.0224338 4.07548 -1.40092 0
M  V30 19 C 0.467021 2.8238 -0.989416 0
M  V30 20 N -0.426648 1.89589 -0.594899 0
M  V30 21 C -2.06235 -0.504956 0.376373 0
M  V30 22 C -2.66581 -1.12243 1.4521 0
M  V30 23 C -4.04167 -1.20361 1.58135 0
M  V30 24 C -4.82532 -0.64301 0.592167 0
M  V30 25 C -4.26803 -0.0203854 -0.493032 0
M  V30 26 C -2.89736 0.040035 -0.585957 0
M  V30 27 S -6.56507 -0.73558 0.738025 0
M  V30 28 O -7.14411 -0.649348 -0.666791 0
M  V30 29 O -6.96586 -2.01025 1.41503 0
M  V30 30 N -7.18918 0.64899 1.59915 0
M  V30 31 H 6.00652 -4.1463 -2.12644 0
M  V30 32 H 6.85519 -2.62341 -1.51869 0
M  V30 33 H 4.26728 -3.82229 -0.498017 0
M  V30 34 H 5.17998 -2.27107 1.42699 0
M  V30 35 H 6.06999 -1.34811 0.146171 0
M  V30 36 H 4.10458 -0.153002 -0.191258 0
M  V30 37 H 0.211403 -3.01316 1.96009 0
M  V30 38 H -0.622701 -3.38636 0.436098 0
M  V30 39 H 3.7583 3.36653 -1.42261 0
M  V30 40 H 2.9607 5.59866 -2.15609 0
M  V30 41 H 0.554189 6.03948 -2.13649 0
M  V30 42 H -1.05826 4.28164 -1.39503 0
M  V30 43 H -2.06828 -1.56504 2.23287 0
M  V30 44 H -4.53382 -1.68195 2.41448 0
M  V30 45 H -4.86182 0.426996 -1.28216 0
M  V30 46 H -2.46617 0.53411 -1.44721 0
M  V30 47 H -6.58582 1.46526 1.33554 0
M  V30 48 H -7.12878 0.436937 2.63526 0
M  V30 END ATOM
M  V30 BEGIN BOND
M  V30 1 2 1 2 CFG=2
M  V30 2 1 2 3
M  V30 3 1 3 4
M  V30 4 1 4 5
M  V30 5 2 5 6
M  V30 6 1 5 7
M  V30 7 2 7 8
M  V30 8 1 8 9
M  V30 9 1 8 10
M  V30 10 1 10 11
M  V30 11 2 11 12
M  V30 12 1 12 13
M  V30 13 2 13 14
M  V30 14 1 14 15
M  V30 15 2 15 16
M  V30 16 1 16 17
M  V30 17 2 17 18
M  V30 18 1 18 19
M  V30 19 2 19 20
M  V30 20 1 10 21
M  V30 21 2 21 22
M  V30 22 1 22 23
M  V30 23 2 23 24
M  V30 24 1 24 25
M  V30 25 2 25 26
M  V30 26 1 24 27
M  V30 27 2 27 28
M  V30 28 2 27 29
M  V30 29 1 27 30
M  V30 30 1 12 7
M  V30 31 1 19 14
M  V30 32 1 26 21
M  V30 33 1 20 11
M  V30 34 1 1 31
M  V30 35 1 1 32
M  V30 36 1 2 33
M  V30 37 1 3 34
M  V30 38 1 3 35
M  V30 39 1 4 36
M  V30 40 1 9 37
M  V30 41 1 9 38
M  V30 42 1 15 39
M  V30 43 1 16 40
M  V30 44 1 17 41
M  V30 45 1 18 42
M  V30 46 1 22 43
M  V30 47 1 23 44
M  V30 48 1 25 45
M  V30 49 1 26 46
M  V30 50 1 30 47
M  V30 51 1 30 48
M  V30 END BOND
M  V30 END CTAB
M  END
