
     RDKit          3D

  0  0  0  0  0  0  0  0  0  0999 V3000
M  V30 BEGIN CTAB
M  V30 COUNTS 44 46 0 0 0
M  V30 BEGIN ATOM
M  V30 1 N -8.13309 -1.65089 -1.10156 0
M  V30 2 C -7.10515 -0.792754 -0.617063 0
M  V30 3 C -6.57396 -0.999796 0.646126 0
M  V30 4 C -5.58291 -0.203283 1.16616 0
M  V30 5 C -5.12058 0.820207 0.396716 0
M  V30 6 C -5.60643 1.06597 -0.848274 0
M  V30 7 C -6.62238 0.253885 -1.38552 0
M  V30 8 C -4.04879 1.69004 0.975669 0
M  V30 9 O -4.57251 2.71622 1.57114 0
M  V30 10 N -2.77085 1.37744 0.850094 0
M  V30 11 C -1.4641 1.05783 0.721717 0
M  V30 12 C -0.78173 0.420222 1.74766 0
M  V30 13 C 0.549887 0.0946223 1.63585 0
M  V30 14 C 1.23476 0.418199 0.453394 0
M  V30 15 N 2.6057 0.0874041 0.412567 0
M  V30 16 C 3.36283 -0.13168 -0.755745 0
M  V30 17 O 2.88268 -0.067477 -1.90544 0
M  V30 18 C 4.79444 -0.450541 -0.578313 0
M  V30 19 C 5.37785 -1.59642 -1.06689 0
M  V30 20 C 6.72739 -1.84493 -0.882571 0
M  V30 21 C 7.48684 -0.901856 -0.186427 0
M  V30 22 N 8.86666 -1.114 0.0300071 0
M  V30 23 C 6.89995 0.242648 0.300148 0
M  V30 24 C 5.55319 0.475033 0.107732 0
M  V30 25 C 0.558523 1.04854 -0.559405 0
M  V30 26 C -0.763441 1.35749 -0.418755 0
M  V30 27 H -8.36854 -1.64341 -2.09793 0
M  V30 28 H -8.62565 -2.26323 -0.437872 0
M  V30 29 H -6.96193 -1.82785 1.24133 0
M  V30 30 H -5.17969 -0.384433 2.17595 0
M  V30 31 H -5.24557 1.87111 -1.46245 0
M  V30 32 H -7.00458 0.455774 -2.36768 0
M  V30 33 H -2.39006 2.51711 1.52579 0
M  V30 34 H -1.26521 0.141577 2.69511 0
M  V30 35 H 1.07754 -0.396012 2.41906 0
M  V30 36 H 3.1037 -0.00265819 1.34506 0
M  V30 37 H 4.77295 -2.31797 -1.60502 0
M  V30 38 H 7.23466 -2.71987 -1.24157 0
M  V30 39 H 9.55197 -0.748119 -0.648842 0
M  V30 40 H 9.18493 -1.63367 0.863171 0
M  V30 41 H 7.46141 1.01279 0.848612 0
M  V30 42 H 5.10513 1.38719 0.495219 0
M  V30 43 H 1.07513 1.31479 -1.46255 0
M  V30 44 H -1.28099 1.86477 -1.24273 0
M  V30 END ATOM
M  V30 BEGIN BOND
M  V30 1 1 1 2
M  V30 2 2 2 3
M  V30 3 1 3 4
M  V30 4 2 4 5
M  V30 5 1 5 6
M  V30 6 2 6 7
M  V30 7 1 5 8
M  V30 8 2 8 9
M  V30 9 1 8 10
M  V30 10 1 10 11
M  V30 11 2 11 12
M  V30 12 1 12 13
M  V30 13 2 13 14
M  V30 14 1 14 15
M  V30 15 1 15 16
M  V30 16 2 16 17
M  V30 17 1 16 18
M  V30 18 2 18 19
M  V30 19 1 19 20
M  V30 20 2 20 21
M  V30 21 1 21 22
M  V30 22 1 21 23
M  V30 23 2 23 24
M  V30 24 1 14 25
M  V30 25 2 25 26
M  V30 26 1 7 2
M  V30 27 1 26 11
M  V30 28 1 24 18
M  V30 29 1 1 27
M  V30 30 1 1 28
M  V30 31 1 3 29
M  V30 32 1 4 30
M  V30 33 1 6 31
M  V30 34 1 7 32
M  V30 35 1 10 33
M  V30 36 1 12 34
M  V30 37 1 13 35
M  V30 38 1 15 36
M  V30 39 1 19 37
M  V30 40 1 20 38
M  V30 41 1 22 39
M  V30 42 1 22 40
M  V30 43 1 23 41
M  V30 44 1 24 42
M  V30 45 1 25 43
M  V30 46 1 26 44
M  V30 END BOND
M  V30 END CTAB
M  END
