
     RDKit          3D

  0  0  0  0  0  0  0  0  0  0999 V3000
M  V30 BEGIN CTAB
M  V30 COUNTS 32 32 0 0 0
M  V30 BEGIN ATOM
M  V30 1 N 4.62099 0.479694 1.00868 0
M  V30 2 C 4.20648 -0.870712 0.87338 0
M  V30 3 C 3.09974 -0.89106 -0.158595 0
M  V30 4 N 1.97493 -0.0775835 0.239587 0
M  V30 5 C 0.861701 -0.00386392 -0.635218 0
M  V30 6 O 0.882636 -0.632702 -1.70738 0
M  V30 7 C -0.347917 0.805298 -0.320851 0 CFG=2
M  V30 8 C -0.924308 0.26005 0.968107 0
M  V30 9 C -2.39979 0.566026 0.962852 0
M  V30 10 C -3.0576 -0.351749 -0.0385249 0 CFG=2
M  V30 11 C -2.36556 -0.255952 -1.35604 0
M  V30 12 C -1.33227 0.81748 -1.44328 0
M  V30 13 N -4.48523 -0.119529 -0.130219 0
M  V30 14 H 4.93745 0.87043 0.157201 0
M  V30 15 H 3.99633 1.01837 1.53272 0
M  V30 16 H 3.90565 -1.30667 1.82797 0
M  V30 17 H 5.08686 -1.43232 0.500829 0
M  V30 18 H 3.45994 -0.521023 -1.12944 0
M  V30 19 H 2.78568 -1.9605 -0.286605 0
M  V30 20 H 1.96625 0.454495 1.15491 0
M  V30 21 H -0.0088513 1.86686 -0.137733 0
M  V30 22 H -0.81377 -0.850411 0.931379 0
M  V30 23 H -0.394177 0.680394 1.8386 0
M  V30 24 H -2.53673 1.62452 0.721906 0
M  V30 25 H -2.81038 0.33461 1.97809 0
M  V30 26 H -2.93408 -1.39331 0.339808 0
M  V30 27 H -3.12921 -0.0648669 -2.13648 0
M  V30 28 H -1.87048 -1.22048 -1.64061 0
M  V30 29 H -0.784753 0.6788 -2.40498 0
M  V30 30 H -1.84972 1.808 -1.54418 0
M  V30 31 H -5.03975 -0.974324 -0.2786 0
M  V30 32 H -4.70005 0.662006 -0.767743 0
M  V30 END ATOM
M  V30 BEGIN BOND
M  V30 1 1 1 2
M  V30 2 1 2 3
M  V30 3 1 3 4
M  V30 4 1 4 5
M  V30 5 2 5 6
M  V30 6 1 5 7
M  V30 7 1 7 8
M  V30 8 1 8 9
M  V30 9 1 9 10
M  V30 10 1 10 11
M  V30 11 1 11 12
M  V30 12 1 10 13
M  V30 13 1 12 7
M  V30 14 1 1 14
M  V30 15 1 1 15
M  V30 16 1 2 16
M  V30 17 1 2 17
M  V30 18 1 3 18
M  V30 19 1 3 19
M  V30 20 1 4 20
M  V30 21 1 7 21 CFG=1
M  V30 22 1 8 22
M  V30 23 1 8 23
M  V30 24 1 9 24
M  V30 25 1 9 25
M  V30 26 1 10 26 CFG=1
M  V30 27 1 11 27
M  V30 28 1 11 28
M  V30 29 1 12 29
M  V30 30 1 12 30
M  V30 31 1 13 31
M  V30 32 1 13 32
M  V30 END BOND
M  V30 END CTAB
M  END
