
     RDKit          3D

  0  0  0  0  0  0  0  0  0  0999 V3000
M  V30 BEGIN CTAB
M  V30 COUNTS 54 56 0 0 0
M  V30 BEGIN ATOM
M  V30 1 C -5.67928 1.4138 -3.68857 0
M  V30 2 O -6.41642 0.608646 -2.78747 0
M  V30 3 C -5.97031 0.360583 -1.49612 0
M  V30 4 C -4.76193 0.922752 -1.07093 0
M  V30 5 C -4.27765 0.705264 0.198925 0
M  V30 6 C -5.0213 -0.0869422 1.04859 0
M  V30 7 C -6.21291 -0.655907 0.668602 0
M  V30 8 C -6.68455 -0.426065 -0.617878 0
M  V30 9 O -7.87621 -0.970741 -1.06657 0
M  V30 10 C -8.67565 -1.77538 -0.242279 0
M  V30 11 C -2.97246 1.30449 0.650274 0
M  V30 12 C -1.90073 0.424008 0.0951361 0
M  V30 13 N -1.2199 0.681514 -1.05951 0
M  V30 14 N -0.357824 -0.294727 -1.28127 0
M  V30 15 C -0.455787 -1.19817 -0.293536 0
M  V30 16 N -1.40346 -0.740567 0.539276 0
M  V30 17 N -1.83561 -1.36629 1.72014 0
M  V30 18 S 0.49973 -2.68823 -0.184896 0
M  V30 19 C 1.99828 -2.38277 0.730592 0
M  V30 20 C 2.95507 -1.45582 0.0672901 0
M  V30 21 O 2.55144 -0.942699 -1.02575 0
M  V30 22 N 4.19697 -1.21876 0.6672 0
M  V30 23 C 5.24884 -0.397912 0.247825 0
M  V30 24 C 5.0894 0.540667 -0.736208 0
M  V30 25 C 6.18952 1.3116 -1.11099 0
M  V30 26 C 7.43355 1.1521 -0.514921 0
M  V30 27 C 7.58547 0.202918 0.476932 0
M  V30 28 C 6.50717 -0.561163 0.852894 0
M  V30 29 S 9.16771 0.0405992 1.19604 0
M  V30 30 O 10.2025 0.39781 0.147222 0
M  V30 31 O 9.44244 -1.38483 1.59273 0
M  V30 32 N 9.38122 1.02996 2.5821 0
M  V30 33 H -4.60701 1.1005 -3.70615 0
M  V30 34 H -6.05138 1.30401 -4.73133 0
M  V30 35 H -5.65479 2.4903 -3.36784 0
M  V30 36 H -4.19457 1.53998 -1.75474 0
M  V30 37 H -4.6288 -0.245573 2.04691 0
M  V30 38 H -6.77742 -1.27448 1.3555 0
M  V30 39 H -9.74783 -1.79221 -0.589673 0
M  V30 40 H -8.70972 -1.33245 0.762943 0
M  V30 41 H -8.33745 -2.84939 -0.234529 0
M  V30 42 H -2.852 2.29811 0.229441 0
M  V30 43 H -2.89024 1.24942 1.75315 0
M  V30 44 H -2.63939 -2.01795 1.72169 0
M  V30 45 H -1.34242 -1.17513 2.61729 0
M  V30 46 H 2.50396 -3.38137 0.894379 0
M  V30 47 H 1.73991 -1.92635 1.71571 0
M  V30 48 H 4.35707 -1.74787 1.59068 0
M  V30 49 H 4.16664 0.74412 -1.25378 0
M  V30 50 H 6.03338 2.05294 -1.89611 0
M  V30 51 H 8.24746 1.79035 -0.850652 0
M  V30 52 H 6.65975 -1.29509 1.636 0
M  V30 53 H 9.23823 2.03545 2.42636 0
M  V30 54 H 8.75929 0.674866 3.32989 0
M  V30 END ATOM
M  V30 BEGIN BOND
M  V30 1 1 1 2
M  V30 2 1 2 3
M  V30 3 2 3 4
M  V30 4 1 4 5
M  V30 5 2 5 6
M  V30 6 1 6 7
M  V30 7 2 7 8
M  V30 8 1 8 9
M  V30 9 1 9 10
M  V30 10 1 5 11
M  V30 11 1 11 12
M  V30 12 2 12 13
M  V30 13 1 13 14
M  V30 14 2 14 15
M  V30 15 1 15 16
M  V30 16 1 16 17
M  V30 17 1 15 18
M  V30 18 1 18 19
M  V30 19 1 19 20
M  V30 20 2 20 21
M  V30 21 1 20 22
M  V30 22 1 22 23
M  V30 23 2 23 24
M  V30 24 1 24 25
M  V30 25 2 25 26
M  V30 26 1 26 27
M  V30 27 2 27 28
M  V30 28 1 27 29
M  V30 29 2 29 30
M  V30 30 2 29 31
M  V30 31 1 29 32
M  V30 32 1 8 3
M  V30 33 1 16 12
M  V30 34 1 28 23
M  V30 35 1 1 33
M  V30 36 1 1 34
M  V30 37 1 1 35
M  V30 38 1 4 36
M  V30 39 1 6 37
M  V30 40 1 7 38
M  V30 41 1 10 39
M  V30 42 1 10 40
M  V30 43 1 10 41
M  V30 44 1 11 42
M  V30 45 1 11 43
M  V30 46 1 17 44
M  V30 47 1 17 45
M  V30 48 1 19 46
M  V30 49 1 19 47
M  V30 50 1 22 48
M  V30 51 1 24 49
M  V30 52 1 25 50
M  V30 53 1 26 51
M  V30 54 1 28 52
M  V30 55 1 32 53
M  V30 56 1 32 54
M  V30 END BOND
M  V30 END CTAB
M  END
