
     RDKit          3D

  0  0  0  0  0  0  0  0  0  0999 V3000
M  V30 BEGIN CTAB
M  V30 COUNTS 21 21 0 0 0
M  V30 BEGIN ATOM
M  V30 1 N -3.48265 -0.985993 0.00662754 0
M  V30 2 N -3.09058 0.340901 -0.145464 0
M  V30 3 C -1.85515 0.665603 0.0649398 0
M  V30 4 N -0.942907 -0.357924 0.446218 0
M  V30 5 C 0.444268 -0.319887 0.157945 0
M  V30 6 C 0.981655 -0.853107 -1.01097 0
M  V30 7 F 0.174947 -1.4346 -1.92259 0
M  V30 8 C 2.33592 -0.802193 -1.26582 0
M  V30 9 C 3.18598 -0.21552 -0.355496 0
M  V30 10 C 2.68733 0.322601 0.812778 0
M  V30 11 C 1.31117 0.257305 1.04558 0
M  V30 12 Br 0.670993 1.00628 2.6576 0
M  V30 13 N -1.50702 2.01794 -0.101258 0
M  V30 14 H -3.44486 -1.41993 0.947869 0
M  V30 15 H -3.80218 -1.49878 -0.836833 0
M  V30 16 H -1.29914 -1.17996 0.962463 0
M  V30 17 H 2.76955 -1.20929 -2.16435 0
M  V30 18 H 4.26443 -0.150337 -0.510903 0
M  V30 19 H 3.35659 0.786749 1.53383 0
M  V30 20 H -1.44342 2.63774 0.719176 0
M  V30 21 H -1.31495 2.39238 -1.04135 0
M  V30 END ATOM
M  V30 BEGIN BOND
M  V30 1 1 1 2
M  V30 2 2 2 3
M  V30 3 1 3 4
M  V30 4 1 4 5
M  V30 5 2 5 6
M  V30 6 1 6 7
M  V30 7 1 6 8
M  V30 8 2 8 9
M  V30 9 1 9 10
M  V30 10 2 10 11
M  V30 11 1 11 12
M  V30 12 1 3 13
M  V30 13 1 11 5
M  V30 14 1 1 14
M  V30 15 1 1 15
M  V30 16 1 4 16
M  V30 17 1 8 17
M  V30 18 1 9 18
M  V30 19 1 10 19
M  V30 20 1 13 20
M  V30 21 1 13 21
M  V30 END BOND
M  V30 END CTAB
M  END
