
     RDKit          3D

  0  0  0  0  0  0  0  0  0  0999 V3000
M  V30 BEGIN CTAB
M  V30 COUNTS 26 27 0 0 0
M  V30 BEGIN ATOM
M  V30 1 Br 4.10758 2.48587 0.364903 0
M  V30 2 C 3.0232 0.959348 0.0254425 0
M  V30 3 C 3.53415 -0.282543 0.313086 0
M  V30 4 C 2.77168 -1.41139 0.0761223 0
M  V30 5 C 1.51155 -1.24672 -0.447006 0
M  V30 6 C 0.956311 -0.00422057 -0.753401 0
M  V30 7 C 1.73867 1.1004 -0.506187 0
M  V30 8 C -0.405701 0.0795884 -1.32489 0
M  V30 9 C -1.48882 0.156083 -0.344682 0
M  V30 10 C -1.88116 1.26617 0.357935 0
M  V30 11 N -1.37325 2.60544 0.318525 0
M  V30 12 N -2.91133 0.907336 1.16391 0
M  V30 13 N -3.1559 -0.384634 0.971472 0
M  V30 14 C -2.29753 -0.882717 0.0474402 0
M  V30 15 N -2.31088 -2.25377 -0.373239 0
M  V30 16 H 4.54515 -0.412754 0.732527 0
M  V30 17 H 3.17828 -2.41106 0.302465 0
M  V30 18 H 0.875178 -2.11232 -0.650314 0
M  V30 19 H 1.41125 2.09868 -0.708546 0
M  V30 20 H -0.379203 0.941295 -2.0272 0
M  V30 21 H -0.536101 -0.81678 -1.99392 0
M  V30 22 H -0.744893 2.90986 1.0941 0
M  V30 23 H -1.64712 3.22405 -0.477023 0
M  V30 24 H -3.89225 -0.937425 1.45199 0
M  V30 25 H -1.44062 -2.84342 -0.388333 0
M  V30 26 H -3.18823 -2.73436 -0.684576 0
M  V30 END ATOM
M  V30 BEGIN BOND
M  V30 1 1 1 2
M  V30 2 2 2 3
M  V30 3 1 3 4
M  V30 4 2 4 5
M  V30 5 1 5 6
M  V30 6 2 6 7
M  V30 7 1 6 8
M  V30 8 1 8 9
M  V30 9 1 9 10
M  V30 10 1 10 11
M  V30 11 2 10 12
M  V30 12 1 12 13
M  V30 13 1 13 14
M  V30 14 1 14 15
M  V30 15 1 7 2
M  V30 16 2 14 9
M  V30 17 1 3 16
M  V30 18 1 4 17
M  V30 19 1 5 18
M  V30 20 1 7 19
M  V30 21 1 8 20
M  V30 22 1 8 21
M  V30 23 1 11 22
M  V30 24 1 11 23
M  V30 25 1 13 24
M  V30 26 1 15 25
M  V30 27 1 15 26
M  V30 END BOND
M  V30 END CTAB
M  END
