
     RDKit          3D

  0  0  0  0  0  0  0  0  0  0999 V3000
M  V30 BEGIN CTAB
M  V30 COUNTS 36 38 0 0 0
M  V30 BEGIN ATOM
M  V30 1 N -7.83535 -1.3547 -0.833718 0
M  V30 2 C -6.81118 -0.863993 -0.617464 0
M  V30 3 C -5.50014 -0.263895 -0.347482 0
M  V30 4 C -4.36853 -1.00931 -0.497393 0
M  V30 5 C -3.08021 -0.49332 -0.254438 0
M  V30 6 C -3.06881 0.814725 0.142809 0
M  V30 7 N -4.20737 1.56416 0.293475 0
M  V30 8 C -5.4231 1.04971 0.0558602 0
M  V30 9 N -6.61372 1.81613 0.208175 0
M  V30 10 S -1.4035 1.13267 0.350934 0
M  V30 11 C -0.776181 -0.395988 -0.0703292 0
M  V30 12 C -1.89203 -1.12072 -0.364874 0
M  V30 13 N -1.75858 -2.51157 -0.777488 0
M  V30 14 C 0.640139 -0.83567 -0.108784 0
M  V30 15 O 0.865403 -1.99067 -0.443825 0
M  V30 16 N 1.59441 0.0982966 0.238163 0
M  V30 17 C 2.98733 -0.0562626 0.287228 0
M  V30 18 C 3.65339 -1.24339 0.125035 0
M  V30 19 C 5.0401 -1.28788 0.17964 0
M  V30 20 C 5.77457 -0.153745 0.395968 0
M  V30 21 C 5.13471 1.04972 0.562294 0
M  V30 22 C 3.76954 1.09577 0.508762 0
M  V30 23 C 5.97822 2.25136 0.79461 0
M  V30 24 F 6.84955 2.47882 -0.263806 0
M  V30 25 F 5.16377 3.37497 0.895305 0
M  V30 26 F 6.70477 2.1344 1.95447 0
M  V30 27 Cl 7.52864 -0.241773 0.459555 0
M  V30 28 H -4.50407 -2.04024 -0.818981 0
M  V30 29 H -7.17719 1.75953 1.09117 0
M  V30 30 H -6.9834 2.45848 -0.526582 0
M  V30 31 H -1.24843 -2.66915 -1.66054 0
M  V30 32 H -2.14341 -3.29308 -0.232523 0
M  V30 33 H 1.22487 1.07022 0.508939 0
M  V30 34 H 3.08954 -2.14589 -0.040229 0
M  V30 35 H 5.49965 -2.25885 0.0429412 0
M  V30 36 H 3.2966 2.08115 0.646826 0
M  V30 END ATOM
M  V30 BEGIN BOND
M  V30 1 3 1 2
M  V30 2 1 2 3
M  V30 3 2 3 4
M  V30 4 1 4 5
M  V30 5 2 5 6
M  V30 6 1 6 7
M  V30 7 2 7 8
M  V30 8 1 8 9
M  V30 9 1 6 10
M  V30 10 1 10 11
M  V30 11 2 11 12
M  V30 12 1 12 13
M  V30 13 1 11 14
M  V30 14 2 14 15
M  V30 15 1 14 16
M  V30 16 1 16 17
M  V30 17 2 17 18
M  V30 18 1 18 19
M  V30 19 2 19 20
M  V30 20 1 20 21
M  V30 21 2 21 22
M  V30 22 1 21 23
M  V30 23 1 23 24
M  V30 24 1 23 25
M  V30 25 1 23 26
M  V30 26 1 20 27
M  V30 27 1 8 3
M  V30 28 1 22 17
M  V30 29 1 12 5
M  V30 30 1 4 28
M  V30 31 1 9 29
M  V30 32 1 9 30
M  V30 33 1 13 31
M  V30 34 1 13 32
M  V30 35 1 16 33
M  V30 36 1 18 34
M  V30 37 1 19 35
M  V30 38 1 22 36
M  V30 END BOND
M  V30 END CTAB
M  END
