
     RDKit          3D

  0  0  0  0  0  0  0  0  0  0999 V3000
M  V30 BEGIN CTAB
M  V30 COUNTS 28 29 0 0 0
M  V30 BEGIN ATOM
M  V30 1 N -3.59984 -2.33851 0.594315 0
M  V30 2 N -2.86578 -1.97763 -0.50562 0
M  V30 3 C -2.16922 -0.743323 -0.467231 0
M  V30 4 C -0.847236 -0.674656 -0.141392 0
M  V30 5 C -0.184028 0.532195 -0.105595 0
M  V30 6 N -0.900233 1.65803 -0.40897 0
M  V30 7 C -2.20522 1.56943 -0.726652 0
M  V30 8 N -2.85742 0.398165 -0.764124 0
M  V30 9 N -2.86845 2.78997 -1.01001 0
M  V30 10 N 1.169 0.659167 0.245177 0
M  V30 11 C 1.99678 0.466505 1.41532 0
M  V30 12 C 3.18109 0.286033 0.511704 0
M  V30 13 C 2.35151 1.04716 -0.490634 0
M  V30 14 C 3.38403 -1.14959 0.115065 0
M  V30 15 H -3.32956 -3.17979 1.10312 0
M  V30 16 H -4.07348 -1.58794 1.10087 0
M  V30 17 H -2.77896 -2.5462 -1.37367 0
M  V30 18 H -0.333413 -1.60496 0.0875498 0
M  V30 19 H -3.64624 3.11612 -0.440437 0
M  V30 20 H -2.54203 3.35292 -1.81573 0
M  V30 21 H 1.76925 -0.440749 2.00488 0
M  V30 22 H 2.07814 1.40769 2.02834 0
M  V30 23 H 4.09569 0.811713 0.856253 0
M  V30 24 H 2.48417 2.14196 -0.434605 0
M  V30 25 H 2.40731 0.640504 -1.53228 0
M  V30 26 H 4.45608 -1.45722 0.18436 0
M  V30 27 H 2.97664 -1.39279 -0.882431 0
M  V30 28 H 2.85144 -1.7842 0.852431 0
M  V30 END ATOM
M  V30 BEGIN BOND
M  V30 1 1 1 2
M  V30 2 1 2 3
M  V30 3 2 3 4
M  V30 4 1 4 5
M  V30 5 2 5 6
M  V30 6 1 6 7
M  V30 7 2 7 8
M  V30 8 1 7 9
M  V30 9 1 5 10
M  V30 10 1 10 11
M  V30 11 1 11 12
M  V30 12 1 12 13
M  V30 13 1 12 14
M  V30 14 1 8 3
M  V30 15 1 13 10
M  V30 16 1 1 15
M  V30 17 1 1 16
M  V30 18 1 2 17
M  V30 19 1 4 18
M  V30 20 1 9 19
M  V30 21 1 9 20
M  V30 22 1 11 21
M  V30 23 1 11 22
M  V30 24 1 12 23
M  V30 25 1 13 24
M  V30 26 1 13 25
M  V30 27 1 14 26
M  V30 28 1 14 27
M  V30 29 1 14 28
M  V30 END BOND
M  V30 END CTAB
M  END
