
     RDKit          3D

  0  0  0  0  0  0  0  0  0  0999 V3000
M  V30 BEGIN CTAB
M  V30 COUNTS 24 24 0 0 0
M  V30 BEGIN ATOM
M  V30 1 N -3.65393 0.5815 0.098263 0
M  V30 2 C -3.17621 0.852329 -1.20383 0
M  V30 3 N -3.89338 0.483434 -2.24833 0
M  V30 4 S -1.63356 1.68285 -1.42258 0
M  V30 5 C -0.736678 2.07171 0.0692076 0
M  V30 6 C -0.209752 0.810444 0.720271 0
M  V30 7 C -0.847061 0.227814 1.77612 0
M  V30 8 S 0.171544 -1.14202 2.06601 0
M  V30 9 C 1.31082 -0.866818 0.838594 0
M  V30 10 N 0.87005 0.236342 0.273971 0
M  V30 11 N 2.48139 -1.61814 0.469203 0
M  V30 12 C 3.31924 -1.22275 -0.596542 0
M  V30 13 N 4.04754 -0.146481 -0.443231 0
M  V30 14 N 3.36229 -1.97683 -1.79537 0
M  V30 15 H -4.02589 -0.374922 0.304923 0
M  V30 16 H -3.64123 1.30955 0.842343 0
M  V30 17 H -4.79898 -0.00069037 -2.09838 0
M  V30 18 H 0.0988727 2.78297 -0.098683 0
M  V30 19 H -1.43596 2.58498 0.786496 0
M  V30 20 H -1.75481 0.527312 2.3321 0
M  V30 21 H 2.71188 -2.48289 1.01378 0
M  V30 22 H 4.68684 0.194829 -1.19686 0
M  V30 23 H 4.23511 -2.06201 -2.33564 0
M  V30 24 H 2.51185 -2.4525 -2.13908 0
M  V30 END ATOM
M  V30 BEGIN BOND
M  V30 1 1 1 2
M  V30 2 2 2 3 CFG=2
M  V30 3 1 2 4
M  V30 4 1 4 5
M  V30 5 1 5 6
M  V30 6 2 6 7
M  V30 7 1 7 8
M  V30 8 1 8 9
M  V30 9 2 9 10
M  V30 10 1 9 11
M  V30 11 1 11 12
M  V30 12 2 12 13 CFG=2
M  V30 13 1 12 14
M  V30 14 1 10 6
M  V30 15 1 1 15
M  V30 16 1 1 16
M  V30 17 1 3 17
M  V30 18 1 5 18
M  V30 19 1 5 19
M  V30 20 1 7 20
M  V30 21 1 11 21
M  V30 22 1 13 22
M  V30 23 1 14 23
M  V30 24 1 14 24
M  V30 END BOND
M  V30 END CTAB
M  END
