
     RDKit          3D

  0  0  0  0  0  0  0  0  0  0999 V3000
M  V30 BEGIN CTAB
M  V30 COUNTS 29 29 0 0 0
M  V30 BEGIN ATOM
M  V30 1 N 3.97574 2.14545 2.07943 0
M  V30 2 C 3.23195 1.40421 1.55673 0
M  V30 3 C 2.34184 0.498907 0.901413 0
M  V30 4 C 2.51545 -0.860134 0.788366 0
M  V30 5 N 3.63594 -1.58585 1.32075 0
M  V30 6 N 1.46597 -1.32532 0.110142 0
M  V30 7 N 0.620204 -0.365359 -0.227053 0
M  V30 8 C 1.15673 0.786106 0.262989 0
M  V30 9 N 0.576612 2.06447 0.128999 0
M  V30 10 C -0.628932 -0.433607 -0.958203 0
M  V30 11 C -1.78408 -0.0929919 -0.0502584 0
M  V30 12 C -1.89332 -1.03108 1.1205 0
M  V30 13 C -3.05435 -0.263297 -0.889356 0
M  V30 14 C -0.653807 0.562539 -2.11198 0
M  V30 15 H 4.14017 -2.28699 0.730931 0
M  V30 16 H 3.98299 -1.4452 2.29484 0
M  V30 17 H 0.713953 2.62176 -0.729712 0
M  V30 18 H 0.0083187 2.44484 0.900643 0
M  V30 19 H -0.804276 -1.4267 -1.37687 0
M  V30 20 H -1.77675 0.975959 0.254988 0
M  V30 21 H -2.12927 -0.480525 2.07235 0
M  V30 22 H -2.74805 -1.74931 0.999104 0
M  V30 23 H -0.973168 -1.59344 1.31722 0
M  V30 24 H -3.8298 0.469133 -0.568701 0
M  V30 25 H -3.45847 -1.31045 -0.779324 0
M  V30 26 H -2.81415 -0.148653 -1.97721 0
M  V30 27 H 0.427528 0.823343 -2.2925 0
M  V30 28 H -1.08719 0.0985186 -3.03586 0
M  V30 29 H -1.1578 1.50367 -1.84236 0
M  V30 END ATOM
M  V30 BEGIN BOND
M  V30 1 3 1 2
M  V30 2 1 2 3
M  V30 3 1 3 4
M  V30 4 1 4 5
M  V30 5 2 4 6
M  V30 6 1 6 7
M  V30 7 1 7 8
M  V30 8 1 8 9
M  V30 9 1 7 10
M  V30 10 1 10 11
M  V30 11 1 11 12
M  V30 12 1 11 13
M  V30 13 1 10 14
M  V30 14 2 8 3
M  V30 15 1 5 15
M  V30 16 1 5 16
M  V30 17 1 9 17
M  V30 18 1 9 18
M  V30 19 1 10 19
M  V30 20 1 11 20
M  V30 21 1 12 21
M  V30 22 1 12 22
M  V30 23 1 12 23
M  V30 24 1 13 24
M  V30 25 1 13 25
M  V30 26 1 13 26
M  V30 27 1 14 27
M  V30 28 1 14 28
M  V30 29 1 14 29
M  V30 END BOND
M  V30 END CTAB
M  END
