
     RDKit          3D

  0  0  0  0  0  0  0  0  0  0999 V3000
M  V30 BEGIN CTAB
M  V30 COUNTS 21 21 0 0 0
M  V30 BEGIN ATOM
M  V30 1 N -3.5032 0.820904 0.860172 0
M  V30 2 N -2.11251 0.866877 0.791148 0
M  V30 3 C -1.48677 -0.106293 0.24141 0
M  V30 4 C -0.0202049 -0.0333247 0.181405 0
M  V30 5 C 0.669222 1.04791 0.699617 0
M  V30 6 C 2.04083 1.14156 0.65669 0
M  V30 7 C 2.7467 0.111706 0.0719044 0
M  V30 8 N 2.10621 -0.953513 -0.441218 0
M  V30 9 C 0.749916 -1.02631 -0.388431 0
M  V30 10 N 4.16425 0.164634 0.00460493 0
M  V30 11 C -2.24099 -1.2454 -0.302648 0
M  V30 12 H -3.91866 0.173028 1.57079 0
M  V30 13 H -4.11244 1.39827 0.240246 0
M  V30 14 H 0.108191 1.85657 1.15926 0
M  V30 15 H 2.61127 1.96774 1.04974 0
M  V30 16 H 0.285648 -1.89458 -0.810551 0
M  V30 17 H 4.61075 -0.103773 -0.89678 0
M  V30 18 H 4.79271 0.450062 0.783535 0
M  V30 19 H -2.70383 -1.02286 -1.30049 0
M  V30 20 H -1.67707 -2.18813 -0.324509 0
M  V30 21 H -3.11004 -1.42508 0.389511 0
M  V30 END ATOM
M  V30 BEGIN BOND
M  V30 1 1 1 2
M  V30 2 2 2 3 CFG=2
M  V30 3 1 3 4
M  V30 4 2 4 5
M  V30 5 1 5 6
M  V30 6 2 6 7
M  V30 7 1 7 8
M  V30 8 2 8 9
M  V30 9 1 7 10
M  V30 10 1 3 11
M  V30 11 1 9 4
M  V30 12 1 1 12
M  V30 13 1 1 13
M  V30 14 1 5 14
M  V30 15 1 6 15
M  V30 16 1 9 16
M  V30 17 1 10 17
M  V30 18 1 10 18
M  V30 19 1 11 19
M  V30 20 1 11 20
M  V30 21 1 11 21
M  V30 END BOND
M  V30 END CTAB
M  END
