
     RDKit          3D

  0  0  0  0  0  0  0  0  0  0999 V3000
M  V30 BEGIN CTAB
M  V30 COUNTS 20 20 0 0 0
M  V30 BEGIN ATOM
M  V30 1 F -1.60045 2.46083 -0.829831 0
M  V30 2 C -0.551088 1.66457 -0.503525 0
M  V30 3 C 0.665119 2.20665 -0.152448 0
M  V30 4 C 1.76455 1.44653 0.188037 0
M  V30 5 C 1.58533 0.0710935 0.160254 0
M  V30 6 C 0.36928 -0.490752 -0.190415 0
M  V30 7 C -0.711196 0.298739 -0.525811 0
M  V30 8 O -1.91336 -0.300805 -0.871655 0
M  V30 9 C -2.91759 -0.611518 0.078176 0
M  V30 10 F -2.47712 -1.47932 1.04358 0
M  V30 11 F -3.94987 -1.24551 -0.599679 0
M  V30 12 F -3.4433 0.519288 0.67385 0
M  V30 13 N 0.267173 -1.92127 -0.194345 0
M  V30 14 N 2.68901 -0.753386 0.503219 0
M  V30 15 H 0.791912 3.28508 -0.134734 0
M  V30 16 H 2.72361 1.86582 0.465035 0
M  V30 17 H -0.323816 -2.4318 -0.893428 0
M  V30 18 H 0.796767 -2.44824 0.517818 0
M  V30 19 H 3.65424 -0.512867 0.201993 0
M  V30 20 H 2.58079 -1.62314 1.06391 0
M  V30 END ATOM
M  V30 BEGIN BOND
M  V30 1 1 1 2
M  V30 2 2 2 3
M  V30 3 1 3 4
M  V30 4 2 4 5
M  V30 5 1 5 6
M  V30 6 2 6 7
M  V30 7 1 7 8
M  V30 8 1 8 9
M  V30 9 1 9 10
M  V30 10 1 9 11
M  V30 11 1 9 12
M  V30 12 1 6 13
M  V30 13 1 5 14
M  V30 14 1 7 2
M  V30 15 1 3 15
M  V30 16 1 4 16
M  V30 17 1 13 17
M  V30 18 1 13 18
M  V30 19 1 14 19
M  V30 20 1 14 20
M  V30 END BOND
M  V30 END CTAB
M  END
