
     RDKit          3D

  0  0  0  0  0  0  0  0  0  0999 V3000
M  V30 BEGIN CTAB
M  V30 COUNTS 52 54 0 0 0
M  V30 BEGIN ATOM
M  V30 1 N -8.77061 -1.61768 -1.73336 0
M  V30 2 C -8.68027 -1.54222 -0.287195 0
M  V30 3 C -8.40564 -0.153093 0.185388 0
M  V30 4 C -7.13925 0.400395 -0.333052 0
M  V30 5 C -5.93471 0.251878 0.332903 0
M  V30 6 C -4.75528 0.77415 -0.161604 0
M  V30 7 C -4.83727 1.45988 -1.36713 0
M  V30 8 C -6.02757 1.61787 -2.04449 0
M  V30 9 Br -6.04832 2.57054 -3.68751 0
M  V30 10 C -7.1833 1.08921 -1.53093 0
M  V30 11 C -3.51491 0.609885 0.543584 0
M  V30 12 C -2.46983 0.481043 1.15853 0
M  V30 13 C -1.24715 0.342616 1.90235 0
M  V30 14 C -1.25347 0.127581 3.28206 0
M  V30 15 C -0.0829635 -0.00475063 3.99298 0
M  V30 16 C 1.11436 0.0779933 3.32152 0
M  V30 17 C 1.1856 0.290148 1.95266 0
M  V30 18 C -0.023441 0.418713 1.27042 0
M  V30 19 C 2.43866 0.376401 1.25211 0
M  V30 20 C 3.49582 0.468864 0.656663 0
M  V30 21 C 4.73298 0.594756 -0.0605935 0
M  V30 22 C 5.58106 -0.489026 -0.265005 0
M  V30 23 C 6.76586 -0.374266 -0.950489 0
M  V30 24 C 7.60603 -1.57712 -1.12128 0
M  V30 25 C 8.59386 -1.75927 -0.00351065 0
M  V30 26 N 9.48959 -0.611067 0.0738104 0
M  V30 27 C 7.10929 0.860541 -1.44418 0
M  V30 28 C 6.31498 1.96311 -1.27422 0
M  V30 29 Br 6.82103 3.65045 -1.96924 0
M  V30 30 C 5.13315 1.82306 -0.584178 0
M  V30 31 H -9.20303 -2.50935 -2.0371 0
M  V30 32 H -7.87581 -1.40974 -2.2053 0
M  V30 33 H -7.87268 -2.22239 0.0868621 0
M  V30 34 H -9.67336 -1.84437 0.104744 0
M  V30 35 H -9.24539 0.501385 -0.147111 0
M  V30 36 H -8.3885 -0.137815 1.28241 0
M  V30 37 H -5.92975 -0.296993 1.27712 0
M  V30 38 H -3.90007 1.86435 -1.74198 0
M  V30 39 H -8.14745 1.19988 -2.04989 0
M  V30 40 H -2.21514 0.0706712 3.76012 0
M  V30 41 H -0.0663439 -0.170556 5.05424 0
M  V30 42 H 2.03348 -0.0231729 3.86216 0
M  V30 43 H 0.0573713 0.582806 0.208647 0
M  V30 44 H 5.25025 -1.43195 0.150027 0
M  V30 45 H 8.18635 -1.52192 -2.06583 0
M  V30 46 H 6.95087 -2.47648 -1.14642 0
M  V30 47 H 9.24217 -2.62663 -0.282351 0
M  V30 48 H 8.13716 -2.00111 0.961548 0
M  V30 49 H 10.1343 -0.650777 -0.766066 0
M  V30 50 H 10.0293 -0.633478 0.967151 0
M  V30 51 H 8.03266 0.958861 -1.9806 0
M  V30 52 H 4.45529 2.65818 -0.413141 0
M  V30 END ATOM
M  V30 BEGIN BOND
M  V30 1 1 1 2
M  V30 2 1 2 3
M  V30 3 1 3 4
M  V30 4 2 4 5
M  V30 5 1 5 6
M  V30 6 2 6 7
M  V30 7 1 7 8
M  V30 8 1 8 9
M  V30 9 2 8 10
M  V30 10 1 6 11
M  V30 11 3 11 12
M  V30 12 1 12 13
M  V30 13 2 13 14
M  V30 14 1 14 15
M  V30 15 2 15 16
M  V30 16 1 16 17
M  V30 17 2 17 18
M  V30 18 1 17 19
M  V30 19 3 19 20
M  V30 20 1 20 21
M  V30 21 2 21 22
M  V30 22 1 22 23
M  V30 23 1 23 24
M  V30 24 1 24 25
M  V30 25 1 25 26
M  V30 26 2 23 27
M  V30 27 1 27 28
M  V30 28 1 28 29
M  V30 29 2 28 30
M  V30 30 1 10 4
M  V30 31 1 18 13
M  V30 32 1 30 21
M  V30 33 1 1 31
M  V30 34 1 1 32
M  V30 35 1 2 33
M  V30 36 1 2 34
M  V30 37 1 3 35
M  V30 38 1 3 36
M  V30 39 1 5 37
M  V30 40 1 7 38
M  V30 41 1 10 39
M  V30 42 1 14 40
M  V30 43 1 15 41
M  V30 44 1 16 42
M  V30 45 1 18 43
M  V30 46 1 22 44
M  V30 47 1 24 45
M  V30 48 1 24 46
M  V30 49 1 25 47
M  V30 50 1 25 48
M  V30 51 1 26 49
M  V30 52 1 26 50
M  V30 53 1 27 51
M  V30 54 1 30 52
M  V30 END BOND
M  V30 END CTAB
M  END
