
     RDKit          3D

  0  0  0  0  0  0  0  0  0  0999 V3000
M  V30 BEGIN CTAB
M  V30 COUNTS 47 50 0 0 0
M  V30 BEGIN ATOM
M  V30 1 C 6.32094 1.5706 -1.06881 0
M  V30 2 O 5.91685 0.631352 -0.0938642 0
M  V30 3 C 4.589 0.378839 0.0922291 0
M  V30 4 C 3.64403 1.03507 -0.665518 0
M  V30 5 C 2.31062 0.766616 -0.462793 0
M  V30 6 C 1.93701 -0.158621 0.499188 0
M  V30 7 C 2.88646 -0.823914 1.26687 0
M  V30 8 C 4.22325 -0.554455 1.06328 0
M  V30 9 O 5.23407 -1.17278 1.78478 0
M  V30 10 C 4.84463 -2.1166 2.76559 0
M  V30 11 N 0.633512 -0.410688 0.686339 0
M  V30 12 C -0.287184 0.231247 -0.0546524 0
M  V30 13 N 0.0788199 1.13024 -0.989156 0
M  V30 14 C 1.36837 1.43072 -1.22874 0
M  V30 15 N 1.74053 2.38517 -2.22192 0
M  V30 16 N -1.68196 -0.0179812 0.12385 0
M  V30 17 C -2.78566 0.588886 -0.591198 0
M  V30 18 C -3.90866 -0.39529 -0.552258 0 CFG=1
M  V30 19 C -3.43051 -1.53764 0.342252 0 CFG=2
M  V30 20 C -2.25007 -0.935841 1.06597 0
M  V30 21 N -3.11644 -2.70998 -0.404501 0
M  V30 22 C -5.17272 0.206978 0.0594078 0
M  V30 23 C -5.81454 1.37788 -0.545673 0
M  V30 24 C -6.47222 0.00584199 -0.660682 0
M  V30 25 H 6.02046 2.61107 -0.787571 0
M  V30 26 H 7.44257 1.53923 -1.12809 0
M  V30 27 H 5.86243 1.37363 -2.06004 0
M  V30 28 H 3.90915 1.76582 -1.42715 0
M  V30 29 H 2.58504 -1.54322 2.01406 0
M  V30 30 H 4.22017 -1.62755 3.56886 0
M  V30 31 H 5.69885 -2.65395 3.1977 0
M  V30 32 H 4.14637 -2.84947 2.28608 0
M  V30 33 H 1.43801 3.37334 -2.20137 0
M  V30 34 H 2.3532 2.03804 -3.00128 0
M  V30 35 H -3.06064 1.58749 -0.192106 0
M  V30 36 H -2.42906 0.782084 -1.64426 0
M  V30 37 H -4.11013 -0.788147 -1.558 0
M  V30 38 H -4.20323 -1.7744 1.09395 0
M  V30 39 H -1.5592 -1.67417 1.47157 0
M  V30 40 H -2.65749 -0.324541 1.91454 0
M  V30 41 H -3.29989 -3.60496 0.0621112 0
M  V30 42 H -2.2706 -2.6629 -0.979561 0
M  V30 43 H -5.24028 0.0720051 1.15941 0
M  V30 44 H -5.44015 1.87216 -1.45149 0
M  V30 45 H -6.31045 2.10482 0.160257 0
M  V30 46 H -6.48859 -0.379871 -1.69655 0
M  V30 47 H -7.41466 -0.142166 -0.070833 0
M  V30 END ATOM
M  V30 BEGIN BOND
M  V30 1 1 1 2
M  V30 2 1 2 3
M  V30 3 2 3 4
M  V30 4 1 4 5
M  V30 5 2 5 6
M  V30 6 1 6 7
M  V30 7 2 7 8
M  V30 8 1 8 9
M  V30 9 1 9 10
M  V30 10 1 6 11
M  V30 11 2 11 12
M  V30 12 1 12 13
M  V30 13 2 13 14
M  V30 14 1 14 15
M  V30 15 1 12 16
M  V30 16 1 16 17
M  V30 17 1 17 18
M  V30 18 1 18 19
M  V30 19 1 19 20
M  V30 20 1 19 21
M  V30 21 1 18 22
M  V30 22 1 22 23
M  V30 23 1 23 24
M  V30 24 1 8 3
M  V30 25 1 20 16
M  V30 26 1 24 22
M  V30 27 1 14 5
M  V30 28 1 1 25
M  V30 29 1 1 26
M  V30 30 1 1 27
M  V30 31 1 4 28
M  V30 32 1 7 29
M  V30 33 1 10 30
M  V30 34 1 10 31
M  V30 35 1 10 32
M  V30 36 1 15 33
M  V30 37 1 15 34
M  V30 38 1 17 35
M  V30 39 1 17 36
M  V30 40 1 18 37 CFG=3
M  V30 41 1 19 38 CFG=1
M  V30 42 1 20 39
M  V30 43 1 20 40
M  V30 44 1 21 41
M  V30 45 1 21 42
M  V30 46 1 22 43
M  V30 47 1 23 44
M  V30 48 1 23 45
M  V30 49 1 24 46
M  V30 50 1 24 47
M  V30 END BOND
M  V30 END CTAB
M  END
