
     RDKit          3D

  0  0  0  0  0  0  0  0  0  0999 V3000
M  V30 BEGIN CTAB
M  V30 COUNTS 37 38 0 0 0
M  V30 BEGIN ATOM
M  V30 1 N -2.30692 -2.27562 2.24472 0
M  V30 2 C -2.34185 -1.26997 1.2347 0
M  V30 3 N -1.20993 -0.720477 0.752787 0
M  V30 4 C -1.26217 0.219919 -0.199567 0
M  V30 5 C -0.0485584 0.830929 -0.728899 0
M  V30 6 O 1.0919 0.179353 -0.163238 0
M  V30 7 C 2.37184 0.584008 -0.516438 0
M  V30 8 O 2.45293 1.53028 -1.33671 0
M  V30 9 C 3.59566 -0.00504862 -0.00783418 0
M  V30 10 C 3.61342 -1.03993 0.893883 0
M  V30 11 C 4.76622 -1.602 1.37669 0
M  V30 12 C 5.98103 -1.09793 0.930059 0
M  V30 13 C 5.99555 -0.0588705 0.0245568 0
M  V30 14 C 4.82676 0.485128 -0.442088 0
M  V30 15 N 4.82985 1.56456 -1.3817 0
M  V30 16 Cl 7.45539 -1.8177 1.54634 0
M  V30 17 N -2.45697 0.643796 -0.706212 0
M  V30 18 C -3.60002 0.110786 -0.243423 0
M  V30 19 N -3.51959 -0.836444 0.719958 0
M  V30 20 N -4.84368 0.533937 -0.766224 0
M  V30 21 C -5.53442 -0.289307 -1.71438 0
M  V30 22 C -5.40308 1.79287 -0.356813 0
M  V30 23 H -2.94351 -2.201 3.06435 0
M  V30 24 H -1.6658 -3.08794 2.19349 0
M  V30 25 H 0.0462439 0.673132 -1.82162 0
M  V30 26 H 0.0165603 1.90856 -0.459918 0
M  V30 27 H 2.66748 -1.43107 1.24032 0
M  V30 28 H 4.73535 -2.42829 2.09485 0
M  V30 29 H 6.94889 0.333182 -0.32348 0
M  V30 30 H 4.68448 2.54286 -1.03824 0
M  V30 31 H 4.97497 1.39847 -2.40442 0
M  V30 32 H -6.21537 0.340174 -2.3526 0
M  V30 33 H -6.2133 -1.00397 -1.16534 0
M  V30 34 H -4.86728 -0.871364 -2.38492 0
M  V30 35 H -5.95141 1.6197 0.604439 0
M  V30 36 H -6.10871 2.20925 -1.1367 0
M  V30 37 H -4.56195 2.53605 -0.207067 0
M  V30 END ATOM
M  V30 BEGIN BOND
M  V30 1 1 1 2
M  V30 2 2 2 3
M  V30 3 1 3 4
M  V30 4 1 4 5
M  V30 5 1 5 6
M  V30 6 1 6 7
M  V30 7 2 7 8
M  V30 8 1 7 9
M  V30 9 2 9 10
M  V30 10 1 10 11
M  V30 11 2 11 12
M  V30 12 1 12 13
M  V30 13 2 13 14
M  V30 14 1 14 15
M  V30 15 1 12 16
M  V30 16 2 4 17
M  V30 17 1 17 18
M  V30 18 2 18 19
M  V30 19 1 18 20
M  V30 20 1 20 21
M  V30 21 1 20 22
M  V30 22 1 19 2
M  V30 23 1 14 9
M  V30 24 1 1 23
M  V30 25 1 1 24
M  V30 26 1 5 25
M  V30 27 1 5 26
M  V30 28 1 10 27
M  V30 29 1 11 28
M  V30 30 1 13 29
M  V30 31 1 15 30
M  V30 32 1 15 31
M  V30 33 1 21 32
M  V30 34 1 21 33
M  V30 35 1 21 34
M  V30 36 1 22 35
M  V30 37 1 22 36
M  V30 38 1 22 37
M  V30 END BOND
M  V30 END CTAB
M  END
