
     RDKit          3D

  0  0  0  0  0  0  0  0  0  0999 V3000
M  V30 BEGIN CTAB
M  V30 COUNTS 19 19 0 0 0
M  V30 BEGIN ATOM
M  V30 1 N 2.96254 -0.328496 -0.838539 0
M  V30 2 C 2.26006 0.294673 0.23257 0
M  V30 3 C 0.783534 0.147629 0.134195 0
M  V30 4 C 0.160284 -0.526803 -0.894992 0
M  V30 5 C -1.21429 -0.63993 -0.948208 0
M  V30 6 F -1.83133 -1.30864 -1.96873 0
M  V30 7 C -2.03209 -0.0899247 0.0157725 0
M  V30 8 C -1.41456 0.585857 1.04767 0
M  V30 9 C -0.025337 0.70134 1.10331 0
M  V30 10 Br 0.823421 1.64024 2.53793 0
M  V30 11 N -3.45418 -0.217969 -0.0569798 0
M  V30 12 H 3.78341 0.229041 -1.19014 0
M  V30 13 H 3.2618 -1.28528 -0.571607 0
M  V30 14 H 2.61499 -0.127939 1.18651 0
M  V30 15 H 2.5558 1.38296 0.237915 0
M  V30 16 H 0.793461 -0.966481 -1.66369 0
M  V30 17 H -2.00524 1.03708 1.83093 0
M  V30 18 H -4.02746 -0.58423 0.727864 0
M  V30 19 H -3.99481 0.0568836 -0.92178 0
M  V30 END ATOM
M  V30 BEGIN BOND
M  V30 1 1 1 2
M  V30 2 1 2 3
M  V30 3 2 3 4
M  V30 4 1 4 5
M  V30 5 1 5 6
M  V30 6 2 5 7
M  V30 7 1 7 8
M  V30 8 2 8 9
M  V30 9 1 9 10
M  V30 10 1 7 11
M  V30 11 1 9 3
M  V30 12 1 1 12
M  V30 13 1 1 13
M  V30 14 1 2 14
M  V30 15 1 2 15
M  V30 16 1 4 16
M  V30 17 1 8 17
M  V30 18 1 11 18
M  V30 19 1 11 19
M  V30 END BOND
M  V30 END CTAB
M  END
