
     RDKit          3D

  0  0  0  0  0  0  0  0  0  0999 V3000
M  V30 BEGIN CTAB
M  V30 COUNTS 55 58 0 0 0
M  V30 BEGIN ATOM
M  V30 1 O 8.01706 1.14954 0.540837 0
M  V30 2 C 8.62886 0.633813 -0.522206 0
M  V30 3 O 9.62723 1.22373 -1.06082 0
M  V30 4 C 8.22855 -0.642234 -1.16967 0
M  V30 5 O 7.09812 -1.23187 -0.631717 0
M  V30 6 C 5.81979 -0.734596 -0.608726 0
M  V30 7 C 4.79374 -1.42865 -0.0135521 0
M  V30 8 C 3.51228 -0.983106 0.03397 0
M  V30 9 C 3.17212 0.241392 -0.539618 0
M  V30 10 C 4.20793 0.940687 -1.13997 0
M  V30 11 C 5.49703 0.489064 -1.18615 0
M  V30 12 C 1.82281 0.775804 -0.534328 0
M  V30 13 O 1.58582 1.82015 -1.18752 0
M  V30 14 N 0.769605 0.169602 0.173603 0
M  V30 15 C -0.586389 0.703394 0.176337 0 CFG=2
M  V30 16 C -0.975651 1.24245 1.50864 0
M  V30 17 C -1.05671 0.0853031 2.46238 0
M  V30 18 C -2.12789 -0.896066 2.08984 0
M  V30 19 C -2.26167 -1.16132 0.638892 0 CFG=2
M  V30 20 C -1.55626 -0.292114 -0.319184 0 CFG=2
M  V30 21 O -0.852153 -1.05875 -1.29793 0
M  V30 22 N -3.68654 -1.32726 0.305211 0
M  V30 23 C -4.35598 -2.48365 0.148264 0
M  V30 24 N -5.64164 -2.23824 -0.151436 0
M  V30 25 C -5.82694 -0.929086 -0.194423 0
M  V30 26 C -4.6021 -0.352689 0.0916274 0
M  V30 27 N -4.48609 0.979468 0.12053 0
M  V30 28 C -5.52946 1.7892 -0.120386 0
M  V30 29 N -5.39452 3.2137 -0.0856099 0
M  V30 30 N -6.71294 1.20466 -0.396473 0
M  V30 31 C -6.91881 -0.12211 -0.446612 0
M  V30 32 N -8.19683 -0.673387 -0.742511 0
M  V30 33 H 8.1693 1.83543 1.16633 0
M  V30 34 H 9.10175 -1.34569 -1.19141 0
M  V30 35 H 8.00026 -0.379943 -2.22649 0
M  V30 36 H 5.00568 -2.39417 0.45193 0
M  V30 37 H 2.7368 -1.58266 0.524606 0
M  V30 38 H 3.9671 1.91799 -1.60207 0
M  V30 39 H 6.27805 1.0675 -1.68071 0
M  V30 40 H 0.977756 -0.696566 0.718219 0
M  V30 41 H -0.548506 1.60247 -0.515726 0
M  V30 42 H -1.89076 1.8243 1.44772 0
M  V30 43 H -0.104432 1.86872 1.87183 0
M  V30 44 H -0.0872622 -0.452933 2.44629 0
M  V30 45 H -1.18735 0.506582 3.47522 0
M  V30 46 H -2.04448 -1.83321 2.69498 0
M  V30 47 H -3.09903 -0.44134 2.44228 0
M  V30 48 H -1.80457 -2.20071 0.497077 0
M  V30 49 H -2.29608 0.274406 -0.963454 0
M  V30 50 H -1.29138 -1.95044 -1.27335 0
M  V30 51 H -3.86804 -3.46011 0.262919 0
M  V30 52 H -6.08708 3.78167 -0.599426 0
M  V30 53 H -4.63599 3.68839 0.431386 0
M  V30 54 H -8.82756 -0.992703 -0.0063921 0
M  V30 55 H -8.47651 -0.743831 -1.73559 0
M  V30 END ATOM
M  V30 BEGIN BOND
M  V30 1 1 1 2
M  V30 2 2 2 3
M  V30 3 1 2 4
M  V30 4 1 4 5
M  V30 5 1 5 6
M  V30 6 2 6 7
M  V30 7 1 7 8
M  V30 8 2 8 9
M  V30 9 1 9 10
M  V30 10 2 10 11
M  V30 11 1 9 12
M  V30 12 2 12 13
M  V30 13 1 12 14
M  V30 14 1 14 15
M  V30 15 1 15 16
M  V30 16 1 16 17
M  V30 17 1 17 18
M  V30 18 1 18 19
M  V30 19 1 19 20
M  V30 20 1 20 21
M  V30 21 1 19 22
M  V30 22 1 22 23
M  V30 23 2 23 24
M  V30 24 1 24 25
M  V30 25 2 25 26
M  V30 26 1 26 27
M  V30 27 2 27 28
M  V30 28 1 28 29
M  V30 29 1 28 30
M  V30 30 2 30 31
M  V30 31 1 31 32
M  V30 32 1 11 6
M  V30 33 1 20 15
M  V30 34 1 26 22
M  V30 35 1 31 25
M  V30 36 1 1 33
M  V30 37 1 4 34
M  V30 38 1 4 35
M  V30 39 1 7 36
M  V30 40 1 8 37
M  V30 41 1 10 38
M  V30 42 1 11 39
M  V30 43 1 14 40
M  V30 44 1 15 41 CFG=3
M  V30 45 1 16 42
M  V30 46 1 16 43
M  V30 47 1 17 44
M  V30 48 1 17 45
M  V30 49 1 18 46
M  V30 50 1 18 47
M  V30 51 1 19 48 CFG=1
M  V30 52 1 20 49 CFG=3
M  V30 53 1 21 50
M  V30 54 1 23 51
M  V30 55 1 29 52
M  V30 56 1 29 53
M  V30 57 1 32 54
M  V30 58 1 32 55
M  V30 END BOND
M  V30 END CTAB
M  END
