
     RDKit          3D

  0  0  0  0  0  0  0  0  0  0999 V3000
M  V30 BEGIN CTAB
M  V30 COUNTS 25 25 0 0 0
M  V30 BEGIN ATOM
M  V30 1 C 3.54214 1.0272 0.00784394 0
M  V30 2 C 2.63159 -0.161084 0.00406958 0
M  V30 3 C 1.16633 0.235935 0.0926766 0
M  V30 4 C 0.37547 -1.06896 0.078213 0
M  V30 5 C -1.08634 -0.746219 0.164181 0
M  V30 6 C -1.93706 -0.90457 1.22235 0
M  V30 7 N -3.18022 -0.549008 1.05922 0
M  V30 8 C -3.57815 -0.056331 -0.096389 0
M  V30 9 S -2.14889 -0.0829564 -1.02184 0
M  V30 10 N -4.87822 0.393849 -0.495149 0
M  V30 11 O 0.607214 -1.71893 -1.11706 0
M  V30 12 N 0.978655 0.971635 1.3039 0
M  V30 13 H 3.14116 1.8557 -0.619118 0
M  V30 14 H 4.5304 0.739904 -0.411956 0
M  V30 15 H 3.71588 1.41537 1.02492 0
M  V30 16 H 2.82984 -0.773354 0.929674 0
M  V30 17 H 2.79599 -0.848569 -0.841382 0
M  V30 18 H 0.844497 0.831532 -0.77892 0
M  V30 19 H 0.604341 -1.71584 0.922201 0
M  V30 20 H -1.57666 -1.32119 2.18281 0
M  V30 21 H -5.22983 0.105597 -1.42197 0
M  V30 22 H -5.41936 0.997963 0.171285 0
M  V30 23 H 0.231936 -1.19304 -1.86153 0
M  V30 24 H 0.268636 0.579723 1.94364 0
M  V30 25 H 0.770652 1.98564 1.1542 0
M  V30 END ATOM
M  V30 BEGIN BOND
M  V30 1 1 1 2
M  V30 2 1 2 3
M  V30 3 1 3 4
M  V30 4 1 4 5
M  V30 5 2 5 6
M  V30 6 1 6 7
M  V30 7 2 7 8
M  V30 8 1 8 9
M  V30 9 1 8 10
M  V30 10 1 4 11
M  V30 11 1 3 12
M  V30 12 1 9 5
M  V30 13 1 1 13
M  V30 14 1 1 14
M  V30 15 1 1 15
M  V30 16 1 2 16
M  V30 17 1 2 17
M  V30 18 1 3 18
M  V30 19 1 4 19
M  V30 20 1 6 20
M  V30 21 1 10 21
M  V30 22 1 10 22
M  V30 23 1 11 23
M  V30 24 1 12 24
M  V30 25 1 12 25
M  V30 END BOND
M  V30 END CTAB
M  END
