
     RDKit          3D

  0  0  0  0  0  0  0  0  0  0999 V3000
M  V30 BEGIN CTAB
M  V30 COUNTS 57 60 0 0 0
M  V30 BEGIN ATOM
M  V30 1 N 6.8969 0.605576 -0.805061 0
M  V30 2 C 6.72924 0.849049 0.565107 0 CFG=2
M  V30 3 C 5.99825 -0.20681 1.35018 0
M  V30 4 C 4.75565 0.651319 1.44385 0 CFG=1
M  V30 5 C 5.56694 1.78944 0.821767 0
M  V30 6 C 3.63657 0.194548 0.589808 0
M  V30 7 C 2.33299 0.22272 1.02325 0
M  V30 8 C 1.32987 -0.220262 0.176751 0
M  V30 9 N -0.0370042 -0.221195 0.555611 0
M  V30 10 C -1.00607 -0.68498 -0.36957 0
M  V30 11 C -2.41677 -0.679416 0.074302 0
M  V30 12 C -3.2323 -1.21959 -1.11704 0
M  V30 13 C -2.90205 -2.67978 -1.06147 0
M  V30 14 C -2.67948 -3.06033 0.364276 0
M  V30 15 C -2.77362 -1.73208 1.08818 0
M  V30 16 N -2.87766 0.58861 0.393341 0
M  V30 17 C -2.94427 1.5971 -0.564776 0
M  V30 18 C -4.39883 2.02061 -0.745402 0
M  V30 19 C -5.08752 2.27006 0.564653 0
M  V30 20 C -4.93717 1.06455 1.47722 0
M  V30 21 C -3.4481 0.836252 1.6575 0
M  V30 22 N 1.65473 -0.667311 -1.04856 0
M  V30 23 C 2.91355 -0.690265 -1.45563 0
M  V30 24 N 3.88329 -0.264098 -0.642572 0
M  V30 25 N 3.29965 -1.15683 -2.73866 0
M  V30 26 H 6.5357 1.30558 -1.38441 0
M  V30 27 H 7.02041 -0.277111 -1.1596 0
M  V30 28 H 7.689 1.1484 1.05007 0
M  V30 29 H 6.4223 -0.384947 2.33916 0
M  V30 30 H 5.7774 -1.12754 0.749915 0
M  V30 31 H 4.4602 0.964429 2.46742 0
M  V30 32 H 5.87211 2.58263 1.55307 0
M  V30 33 H 5.11428 2.20803 -0.0861592 0
M  V30 34 H 2.06911 0.577474 1.99595 0
M  V30 35 H -0.245425 0.129913 1.51588 0
M  V30 36 H -0.929918 -0.0866735 -1.30188 0
M  V30 37 H -0.666546 -1.71559 -0.694318 0
M  V30 38 H -2.88115 -0.810443 -2.06369 0
M  V30 39 H -4.31888 -1.08771 -0.947482 0
M  V30 40 H -3.72535 -3.28366 -1.53476 0
M  V30 41 H -1.99182 -2.94145 -1.63909 0
M  V30 42 H -3.48089 -3.77133 0.658744 0
M  V30 43 H -1.71613 -3.57217 0.544374 0
M  V30 44 H -3.85391 -1.59444 1.32677 0
M  V30 45 H -2.22672 -1.69164 2.0206 0
M  V30 46 H -2.3786 2.49444 -0.223189 0
M  V30 47 H -2.56959 1.24668 -1.53554 0
M  V30 48 H -4.3737 2.95793 -1.34255 0
M  V30 49 H -4.90032 1.20768 -1.32212 0
M  V30 50 H -4.6145 3.14687 1.048 0
M  V30 51 H -6.1617 2.45695 0.324009 0
M  V30 52 H -5.38258 0.208737 0.925579 0
M  V30 53 H -5.44571 1.24829 2.43983 0
M  V30 54 H -3.03859 1.8203 2.03456 0
M  V30 55 H -3.19576 0.0878228 2.3961 0
M  V30 56 H 2.82019 -0.794819 -3.5832 0
M  V30 57 H 4.06031 -1.85952 -2.83633 0
M  V30 END ATOM
M  V30 BEGIN BOND
M  V30 1 1 1 2
M  V30 2 1 2 3
M  V30 3 1 3 4
M  V30 4 1 4 5
M  V30 5 1 4 6
M  V30 6 2 6 7
M  V30 7 1 7 8
M  V30 8 1 8 9
M  V30 9 1 9 10
M  V30 10 1 10 11
M  V30 11 1 11 12
M  V30 12 1 12 13
M  V30 13 1 13 14
M  V30 14 1 14 15
M  V30 15 1 11 16
M  V30 16 1 16 17
M  V30 17 1 17 18
M  V30 18 1 18 19
M  V30 19 1 19 20
M  V30 20 1 20 21
M  V30 21 2 8 22
M  V30 22 1 22 23
M  V30 23 2 23 24
M  V30 24 1 23 25
M  V30 25 1 5 2
M  V30 26 1 24 6
M  V30 27 1 15 11
M  V30 28 1 21 16
M  V30 29 1 1 26
M  V30 30 1 1 27
M  V30 31 1 2 28 CFG=1
M  V30 32 1 3 29
M  V30 33 1 3 30
M  V30 34 1 4 31 CFG=1
M  V30 35 1 5 32
M  V30 36 1 5 33
M  V30 37 1 7 34
M  V30 38 1 9 35
M  V30 39 1 10 36
M  V30 40 1 10 37
M  V30 41 1 12 38
M  V30 42 1 12 39
M  V30 43 1 13 40
M  V30 44 1 13 41
M  V30 45 1 14 42
M  V30 46 1 14 43
M  V30 47 1 15 44
M  V30 48 1 15 45
M  V30 49 1 17 46
M  V30 50 1 17 47
M  V30 51 1 18 48
M  V30 52 1 18 49
M  V30 53 1 19 50
M  V30 54 1 19 51
M  V30 55 1 20 52
M  V30 56 1 20 53
M  V30 57 1 21 54
M  V30 58 1 21 55
M  V30 59 1 25 56
M  V30 60 1 25 57
M  V30 END BOND
M  V30 END CTAB
M  END
