
     RDKit          3D

  0  0  0  0  0  0  0  0  0  0999 V3000
M  V30 BEGIN CTAB
M  V30 COUNTS 27 28 0 0 0
M  V30 BEGIN ATOM
M  V30 1 F -3.27854 -2.10562 -0.741443 0
M  V30 2 C -3.00715 -1.03631 0.0868318 0
M  V30 3 C -3.21632 0.253005 -0.677089 0
M  V30 4 C -2.09234 1.07793 -0.145538 0
M  V30 5 N -0.988514 0.175968 0.0963275 0
M  V30 6 C -1.57494 -1.03661 0.561443 0
M  V30 7 C 0.37545 0.561543 -0.135166 0
M  V30 8 N 0.659501 1.76293 -0.707572 0
M  V30 9 C 1.89255 2.20293 -0.969676 0
M  V30 10 C 2.94021 1.37632 -0.633593 0
M  V30 11 C 2.74006 0.147985 -0.052369 0
M  V30 12 C 1.43454 -0.241977 0.189984 0
M  V30 13 N 1.24575 -1.5014 0.795233 0
M  V30 14 N 3.84513 -0.707157 0.29431 0
M  V30 15 H -3.71883 -1.00657 0.940719 0
M  V30 16 H -4.17079 0.755593 -0.416536 0
M  V30 17 H -3.17647 0.127925 -1.76101 0
M  V30 18 H -1.81994 1.91593 -0.812938 0
M  V30 19 H -2.35199 1.51849 0.853824 0
M  V30 20 H -1.50505 -1.12737 1.66948 0
M  V30 21 H -1.13935 -1.95612 0.118876 0
M  V30 22 H 2.11081 3.15642 -1.42372 0
M  V30 23 H 3.97689 1.67031 -0.818742 0
M  V30 24 H 1.0904 -1.53689 1.82167 0
M  V30 25 H 1.25286 -2.39841 0.273712 0
M  V30 26 H 4.74959 -0.661853 -0.207232 0
M  V30 27 H 3.72648 -1.38696 1.07021 0
M  V30 END ATOM
M  V30 BEGIN BOND
M  V30 1 1 1 2
M  V30 2 1 2 3
M  V30 3 1 3 4
M  V30 4 1 4 5
M  V30 5 1 5 6
M  V30 6 1 5 7
M  V30 7 2 7 8
M  V30 8 1 8 9
M  V30 9 2 9 10
M  V30 10 1 10 11
M  V30 11 2 11 12
M  V30 12 1 12 13
M  V30 13 1 11 14
M  V30 14 1 6 2
M  V30 15 1 12 7
M  V30 16 1 2 15
M  V30 17 1 3 16
M  V30 18 1 3 17
M  V30 19 1 4 18
M  V30 20 1 4 19
M  V30 21 1 6 20
M  V30 22 1 6 21
M  V30 23 1 9 22
M  V30 24 1 10 23
M  V30 25 1 13 24
M  V30 26 1 13 25
M  V30 27 1 14 26
M  V30 28 1 14 27
M  V30 END BOND
M  V30 END CTAB
M  END
