
     RDKit          3D

  0  0  0  0  0  0  0  0  0  0999 V3000
M  V30 BEGIN CTAB
M  V30 COUNTS 26 27 0 0 0
M  V30 BEGIN ATOM
M  V30 1 C 3.80892 -0.105566 0.809305 0
M  V30 2 C 3.09588 0.382326 -0.417239 0
M  V30 3 C 1.68024 -0.149165 -0.497046 0 CFG=2
M  V30 4 C 0.924393 0.327299 -1.73329 0
M  V30 5 C 0.576559 0.789578 -0.312358 0 CFG=1
M  V30 6 C -0.773204 0.36126 0.119711 0
M  V30 7 N -1.22339 -0.89613 -0.143157 0
M  V30 8 C -2.44293 -1.29526 0.242798 0
M  V30 9 N -2.90261 -2.60587 -0.0354001 0
M  V30 10 N -3.24561 -0.44902 0.901771 0
M  V30 11 C -2.83833 0.820189 1.18766 0
M  V30 12 N -1.61167 1.1711 0.780991 0
M  V30 13 N -3.71807 1.67447 1.8832 0
M  V30 14 H 4.90702 -0.0377935 0.623098 0
M  V30 15 H 3.58828 0.588739 1.63844 0
M  V30 16 H 3.59305 -1.15567 1.02757 0
M  V30 17 H 3.0448 1.48013 -0.459457 0
M  V30 18 H 3.69985 0.0658868 -1.30767 0
M  V30 19 H 1.60072 -1.23581 -0.231803 0
M  V30 20 H 0.294802 -0.445719 -2.19486 0
M  V30 21 H 1.38034 1.11962 -2.35184 0
M  V30 22 H 0.822821 1.83746 -0.036919 0
M  V30 23 H -3.45149 -2.79196 -0.919346 0
M  V30 24 H -2.73346 -3.42134 0.58625 0
M  V30 25 H -4.30579 2.34 1.36161 0
M  V30 26 H -3.77114 1.63125 2.91068 0
M  V30 END ATOM
M  V30 BEGIN BOND
M  V30 1 1 1 2
M  V30 2 1 2 3
M  V30 3 1 3 4
M  V30 4 1 4 5
M  V30 5 1 5 6
M  V30 6 2 6 7
M  V30 7 1 7 8
M  V30 8 1 8 9
M  V30 9 2 8 10
M  V30 10 1 10 11
M  V30 11 2 11 12
M  V30 12 1 11 13
M  V30 13 1 5 3
M  V30 14 1 12 6
M  V30 15 1 1 14
M  V30 16 1 1 15
M  V30 17 1 1 16
M  V30 18 1 2 17
M  V30 19 1 2 18
M  V30 20 1 3 19 CFG=1
M  V30 21 1 4 20
M  V30 22 1 4 21
M  V30 23 1 5 22 CFG=3
M  V30 24 1 9 23
M  V30 25 1 9 24
M  V30 26 1 13 25
M  V30 27 1 13 26
M  V30 END BOND
M  V30 END CTAB
M  END
