
     RDKit          3D

  0  0  0  0  0  0  0  0  0  0999 V3000
M  V30 BEGIN CTAB
M  V30 COUNTS 21 22 0 0 0
M  V30 BEGIN ATOM
M  V30 1 N -2.75648 1.54764 -0.434632 0
M  V30 2 C -2.25952 0.2232 -0.274394 0
M  V30 3 C -3.12827 -0.833231 -0.269534 0
M  V30 4 C -2.56695 -2.08186 -0.109442 0
M  V30 5 N -1.2704 -2.28075 0.0333779 0
M  V30 6 C -0.334755 -1.23934 0.0362878 0
M  V30 7 C -0.877396 -0.0138212 -0.120034 0
M  V30 8 N -0.0846479 1.15208 -0.141536 0
M  V30 9 S 1.2971 -1.65709 0.23023 0
M  V30 10 C 2.61862 -0.542251 0.264489 0
M  V30 11 N 2.8585 0.738324 0.179565 0
M  V30 12 N 4.0029 1.23863 0.248587 0
M  V30 13 C 5.05285 0.440468 0.418197 0
M  V30 14 S 4.28905 -1.07565 0.472068 0
M  V30 15 H -3.63365 1.83722 0.031858 0
M  V30 16 H -2.2281 2.23731 -1.03178 0
M  V30 17 H -4.19413 -0.707591 -0.383737 0
M  V30 18 H -3.28863 -2.91501 -0.109151 0
M  V30 19 H 0.297565 1.58333 -1.00264 0
M  V30 20 H 0.0973026 1.5942 0.785305 0
M  V30 21 H 6.10905 0.754182 0.494421 0
M  V30 END ATOM
M  V30 BEGIN BOND
M  V30 1 1 1 2
M  V30 2 2 2 3
M  V30 3 1 3 4
M  V30 4 2 4 5
M  V30 5 1 5 6
M  V30 6 2 6 7
M  V30 7 1 7 8
M  V30 8 1 6 9
M  V30 9 1 9 10
M  V30 10 2 10 11
M  V30 11 1 11 12
M  V30 12 2 12 13
M  V30 13 1 13 14
M  V30 14 1 7 2
M  V30 15 1 14 10
M  V30 16 1 1 15
M  V30 17 1 1 16
M  V30 18 1 3 17
M  V30 19 1 4 18
M  V30 20 1 8 19
M  V30 21 1 8 20
M  V30 22 1 13 21
M  V30 END BOND
M  V30 END CTAB
M  END
