
     RDKit          3D

  0  0  0  0  0  0  0  0  0  0999 V3000
M  V30 BEGIN CTAB
M  V30 COUNTS 25 26 0 0 0
M  V30 BEGIN ATOM
M  V30 1 C -1.05964 -1.83739 -0.270207 0
M  V30 2 C -1.00234 -0.374574 0.124241 0
M  V30 3 C -2.03135 0.0180649 1.18446 0
M  V30 4 C -2.27464 1.2605 0.355487 0
M  V30 5 C -1.76405 0.491696 -0.832844 0
M  V30 6 C 0.334762 0.0860479 0.506995 0
M  V30 7 N 0.670824 0.642328 1.67121 0
M  V30 8 N 1.94349 0.949333 1.73553 0
M  V30 9 C 2.45189 0.560172 0.529403 0
M  V30 10 N 1.461 0.02754 -0.234888 0
M  V30 11 N 1.66844 -0.463613 -1.51622 0
M  V30 12 N 3.81532 0.728624 0.20296 0
M  V30 13 H -2.01929 -2.26199 0.0996484 0
M  V30 14 H -0.996445 -1.85429 -1.38794 0
M  V30 15 H -0.229228 -2.37409 0.222439 0
M  V30 16 H -1.5415 0.205758 2.17288 0
M  V30 17 H -2.88052 -0.688825 1.23482 0
M  V30 18 H -3.3536 1.55219 0.28007 0
M  V30 19 H -1.59621 2.07927 0.680627 0
M  V30 20 H -2.56708 -0.117523 -1.30811 0
M  V30 21 H -1.15303 1.06225 -1.55504 0
M  V30 22 H 1.39308 0.110825 -2.33207 0
M  V30 23 H 2.09594 -1.3914 -1.72183 0
M  V30 24 H 4.12887 1.58895 -0.273849 0
M  V30 25 H 4.50528 0.000140314 0.432223 0
M  V30 END ATOM
M  V30 BEGIN BOND
M  V30 1 1 1 2
M  V30 2 1 2 3
M  V30 3 1 3 4
M  V30 4 1 4 5
M  V30 5 1 2 6
M  V30 6 2 6 7
M  V30 7 1 7 8
M  V30 8 2 8 9
M  V30 9 1 9 10
M  V30 10 1 10 11
M  V30 11 1 9 12
M  V30 12 1 5 2
M  V30 13 1 10 6
M  V30 14 1 1 13
M  V30 15 1 1 14
M  V30 16 1 1 15
M  V30 17 1 3 16
M  V30 18 1 3 17
M  V30 19 1 4 18
M  V30 20 1 4 19
M  V30 21 1 5 20
M  V30 22 1 5 21
M  V30 23 1 11 22
M  V30 24 1 11 23
M  V30 25 1 12 24
M  V30 26 1 12 25
M  V30 END BOND
M  V30 END CTAB
M  END
