
     RDKit          3D

  0  0  0  0  0  0  0  0  0  0999 V3000
M  V30 BEGIN CTAB
M  V30 COUNTS 23 23 0 0 0
M  V30 BEGIN ATOM
M  V30 1 N -4.24632 0.0488351 0.804155 0
M  V30 2 C -3.66875 -0.659779 -0.315171 0
M  V30 3 C -2.16378 -0.743972 -0.227927 0
M  V30 4 S -1.39531 0.892124 -0.19917 0
M  V30 5 C 0.379857 0.6508 -0.0949111 0
M  V30 6 C 1.20721 1.75024 -0.0577295 0
M  V30 7 C 2.58706 1.62441 0.022725 0
M  V30 8 C 3.15351 0.36772 0.0670956 0
M  V30 9 C 2.31891 -0.727006 0.0294522 0
M  V30 10 C 0.952122 -0.601483 -0.0502485 0
M  V30 11 Cl 2.98521 -2.35106 0.0830017 0
M  V30 12 N 4.5705 0.218395 0.149893 0
M  V30 13 H -5.22075 0.342272 0.499714 0
M  V30 14 H -4.27143 -0.515628 1.67781 0
M  V30 15 H -3.94821 -0.147705 -1.2363 0
M  V30 16 H -4.04749 -1.70057 -0.387819 0
M  V30 17 H -1.80848 -1.29724 0.647477 0
M  V30 18 H -1.82055 -1.25084 -1.15871 0
M  V30 19 H 0.762115 2.7247 -0.09248 0
M  V30 20 H 3.23185 2.50644 0.0514628 0
M  V30 21 H 0.268442 -1.44365 -0.0816011 0
M  V30 22 H 4.95466 -0.445172 0.837457 0
M  V30 23 H 5.21963 0.758171 -0.461399 0
M  V30 END ATOM
M  V30 BEGIN BOND
M  V30 1 1 1 2
M  V30 2 1 2 3
M  V30 3 1 3 4
M  V30 4 1 4 5
M  V30 5 2 5 6
M  V30 6 1 6 7
M  V30 7 2 7 8
M  V30 8 1 8 9
M  V30 9 2 9 10
M  V30 10 1 9 11
M  V30 11 1 8 12
M  V30 12 1 10 5
M  V30 13 1 1 13
M  V30 14 1 1 14
M  V30 15 1 2 15
M  V30 16 1 2 16
M  V30 17 1 3 17
M  V30 18 1 3 18
M  V30 19 1 6 19
M  V30 20 1 7 20
M  V30 21 1 10 21
M  V30 22 1 12 22
M  V30 23 1 12 23
M  V30 END BOND
M  V30 END CTAB
M  END
