
     RDKit          3D

  0  0  0  0  0  0  0  0  0  0999 V3000
M  V30 BEGIN CTAB
M  V30 COUNTS 44 43 0 0 0
M  V30 BEGIN ATOM
M  V30 1 N -6.89951 1.72745 0.612368 0
M  V30 2 C -6.78331 0.30988 0.903409 0
M  V30 3 C -5.62723 -0.224924 0.0822294 0
M  V30 4 C -4.3858 0.524661 0.495646 0
M  V30 5 O -3.26006 0.104733 -0.205364 0
M  V30 6 C -2.17775 0.855658 0.250531 0
M  V30 7 C -0.934761 0.386658 -0.528745 0
M  V30 8 C -0.735223 -1.0627 -0.256709 0
M  V30 9 C 0.45249 -1.60056 -0.996393 0
M  V30 10 C 1.70075 -0.885189 -0.570534 0
M  V30 11 C 2.85977 -1.49498 -1.34675 0
M  V30 12 O 4.04288 -0.889405 -1.01324 0
M  V30 13 C 4.4028 -0.974759 0.30902 0
M  V30 14 C 5.74267 -0.251734 0.492278 0
M  V30 15 C 5.5448 1.1988 0.0758395 0
M  V30 16 N 6.77505 1.95323 0.221433 0
M  V30 17 H -6.30306 2.24718 1.27618 0
M  V30 18 H -6.54254 1.93665 -0.351555 0
M  V30 19 H -7.74239 -0.179116 0.647403 0
M  V30 20 H -6.50734 0.200755 1.97143 0
M  V30 21 H -5.80323 -0.0266195 -0.986042 0
M  V30 22 H -5.45096 -1.29653 0.295662 0
M  V30 23 H -4.58133 1.6075 0.387938 0
M  V30 24 H -4.16093 0.362725 1.58208 0
M  V30 25 H -2.2805 1.9293 0.00864173 0
M  V30 26 H -2.00664 0.713837 1.33199 0
M  V30 27 H -0.0680816 1.02361 -0.266279 0
M  V30 28 H -1.11269 0.538267 -1.61159 0
M  V30 29 H -0.545605 -1.21945 0.82917 0
M  V30 30 H -1.65829 -1.61391 -0.543573 0
M  V30 31 H 0.302738 -1.39476 -2.08846 0
M  V30 32 H 0.533421 -2.70186 -0.889112 0
M  V30 33 H 1.847 -1.12582 0.509772 0
M  V30 34 H 1.64932 0.194507 -0.761746 0
M  V30 35 H 2.65541 -1.28759 -2.41642 0
M  V30 36 H 2.87416 -2.59604 -1.2426 0
M  V30 37 H 3.67981 -0.342856 0.90386 0
M  V30 38 H 4.42777 -1.98234 0.727232 0
M  V30 39 H 6.51297 -0.720853 -0.153432 0
M  V30 40 H 6.05897 -0.248319 1.55421 0
M  V30 41 H 4.78817 1.66661 0.7369 0
M  V30 42 H 5.15131 1.26883 -0.962569 0
M  V30 43 H 6.93032 2.14958 1.23191 0
M  V30 44 H 6.63463 2.87355 -0.24601 0
M  V30 END ATOM
M  V30 BEGIN BOND
M  V30 1 1 1 2
M  V30 2 1 2 3
M  V30 3 1 3 4
M  V30 4 1 4 5
M  V30 5 1 5 6
M  V30 6 1 6 7
M  V30 7 1 7 8
M  V30 8 1 8 9
M  V30 9 1 9 10
M  V30 10 1 10 11
M  V30 11 1 11 12
M  V30 12 1 12 13
M  V30 13 1 13 14
M  V30 14 1 14 15
M  V30 15 1 15 16
M  V30 16 1 1 17
M  V30 17 1 1 18
M  V30 18 1 2 19
M  V30 19 1 2 20
M  V30 20 1 3 21
M  V30 21 1 3 22
M  V30 22 1 4 23
M  V30 23 1 4 24
M  V30 24 1 6 25
M  V30 25 1 6 26
M  V30 26 1 7 27
M  V30 27 1 7 28
M  V30 28 1 8 29
M  V30 29 1 8 30
M  V30 30 1 9 31
M  V30 31 1 9 32
M  V30 32 1 10 33
M  V30 33 1 10 34
M  V30 34 1 11 35
M  V30 35 1 11 36
M  V30 36 1 13 37
M  V30 37 1 13 38
M  V30 38 1 14 39
M  V30 39 1 14 40
M  V30 40 1 15 41
M  V30 41 1 15 42
M  V30 42 1 16 43
M  V30 43 1 16 44
M  V30 END BOND
M  V30 END CTAB
M  END
