
     RDKit          3D

  0  0  0  0  0  0  0  0  0  0999 V3000
M  V30 BEGIN CTAB
M  V30 COUNTS 99 100 0 0 0
M  V30 BEGIN ATOM
M  V30 1 C 7.25031 -0.446913 0.0207786 0 CFG=1
M  V30 2 N 8.16792 -1.50207 -0.536989 0
M  V30 3 C 7.11143 0.58685 -1.06362 0
M  V30 4 C 6.25613 1.71138 -0.653147 0
M  V30 5 C 6.13218 2.78785 -1.72081 0
M  V30 6 C 7.50201 3.33436 -2.01829 0
M  V30 7 N 7.31658 4.3766 -3.029 0
M  V30 8 C 5.98599 -1.06603 0.383579 0
M  V30 9 O 5.77393 -2.25406 -0.0670203 0
M  V30 10 N 4.96253 -0.539742 1.17087 0
M  V30 11 C 3.73172 -1.30789 1.46653 0 CFG=1
M  V30 12 C 3.40723 -1.20294 2.91362 0
M  V30 13 C 2.21833 -1.94346 3.39755 0
M  V30 14 C 2.31202 -3.43663 3.20176 0
M  V30 15 C 1.93973 -1.68056 4.87237 0
M  V30 16 C 2.66319 -0.738074 0.615 0
M  V30 17 O 2.69228 0.483431 0.336147 0
M  V30 18 N 1.61342 -1.53864 0.100378 0
M  V30 19 C 0.576558 -1.03534 -0.743444 0 CFG=1
M  V30 20 C 0.638192 -1.62796 -2.13583 0
M  V30 21 C 1.96142 -1.28694 -2.80448 0
M  V30 22 C 0.506296 -3.12478 -2.13221 0
M  V30 23 C -0.783545 -1.08899 -0.19167 0
M  V30 24 O -0.935057 -1.53604 0.964354 0
M  V30 25 N -1.88905 -0.649229 -0.945491 0
M  V30 26 C -3.25954 -0.640856 -0.587028 0 CFG=1
M  V30 27 C -3.83935 -1.82287 0.114699 0
M  V30 28 C -3.79746 -3.06137 -0.697106 0
M  V30 29 C -2.8794 -4.05325 -0.580897 0
M  V30 30 C -2.86289 -5.19434 -1.39328 0
M  V30 31 C -3.81105 -5.3499 -2.36816 0
M  V30 32 C -4.7498 -4.36197 -2.50524 0
M  V30 33 C -4.76332 -3.24631 -1.70904 0
M  V30 34 C -3.72986 0.674354 -0.157454 0
M  V30 35 O -2.92438 1.67078 -0.114697 0
M  V30 36 N -5.05894 0.95258 0.227877 0
M  V30 37 C -5.51991 2.28962 0.641682 0 CFG=1
M  V30 38 C -6.67072 2.69228 -0.20962 0
M  V30 39 C -7.22589 4.00637 0.110513 0
M  V30 40 C -6.67614 5.1707 -0.424609 0
M  V30 41 C -7.24969 6.40115 -0.161138 0
M  V30 42 C -8.36966 6.5512 0.625242 0
M  V30 43 C -8.92821 5.40109 1.16587 0
M  V30 44 C -8.35704 4.18433 0.901886 0
M  V30 45 C -5.82063 2.31851 2.06924 0
M  V30 46 O -6.1535 3.48745 2.72926 0
M  V30 47 O -5.79372 1.27988 2.80801 0
M  V30 48 H 7.81087 -0.00521274 0.850916 0
M  V30 49 H 8.07538 -2.3343 0.0787087 0
M  V30 50 H 9.13022 -1.11921 -0.416593 0
M  V30 51 H 8.14986 0.991718 -1.25158 0
M  V30 52 H 6.74423 0.0578999 -1.97505 0
M  V30 53 H 5.19684 1.42739 -0.443629 0
M  V30 54 H 6.65323 2.12398 0.314733 0
M  V30 55 H 5.476 3.57863 -1.26705 0
M  V30 56 H 5.65975 2.32413 -2.5999 0
M  V30 57 H 8.12892 2.52888 -2.47247 0
M  V30 58 H 7.96401 3.68914 -1.09873 0
M  V30 59 H 7.21319 5.29085 -2.53913 0
M  V30 60 H 8.15116 4.33776 -3.65323 0
M  V30 61 H 5.01285 0.382573 1.59208 0
M  V30 62 H 3.917 -2.32363 1.0794 0
M  V30 63 H 3.21237 -0.110906 3.13269 0
M  V30 64 H 4.26079 -1.45736 3.57904 0
M  V30 65 H 1.27714 -1.63235 2.85537 0
M  V30 66 H 1.9378 -3.92348 4.12386 0
M  V30 67 H 1.6607 -3.81144 2.37563 0
M  V30 68 H 3.36261 -3.78431 3.06756 0
M  V30 69 H 2.83572 -1.99797 5.43201 0
M  V30 70 H 1.64025 -0.639994 5.06827 0
M  V30 71 H 1.11873 -2.39039 5.16105 0
M  V30 72 H 1.59177 -2.54677 0.339315 0
M  V30 73 H 0.793563 0.0756021 -0.871624 0
M  V30 74 H -0.150156 -1.18428 -2.75542 0
M  V30 75 H 1.87399 -0.420528 -3.49949 0
M  V30 76 H 2.77657 -1.17874 -2.05587 0
M  V30 77 H 2.23002 -2.15252 -3.44683 0
M  V30 78 H 0.404469 -3.43034 -1.07114 0
M  V30 79 H -0.365334 -3.46924 -2.74314 0
M  V30 80 H 1.39288 -3.65678 -2.53705 0
M  V30 81 H -1.68839 -0.246484 -1.93485 0
M  V30 82 H -3.80179 -0.762765 -1.64791 0
M  V30 83 H -4.90968 -1.60393 0.317804 0
M  V30 84 H -3.38899 -2.00914 1.11271 0
M  V30 85 H -2.11078 -3.98466 0.184661 0
M  V30 86 H -2.12692 -5.96674 -1.28408 0
M  V30 87 H -3.82563 -6.23123 -3.02082 0
M  V30 88 H -5.50146 -4.49784 -3.28993 0
M  V30 89 H -5.49791 -2.48089 -1.82055 0
M  V30 90 H -5.75781 0.184515 0.218151 0
M  V30 91 H -4.6467 2.96589 0.477521 0
M  V30 92 H -6.40224 2.66989 -1.3093 0
M  V30 93 H -7.52744 1.95712 -0.126841 0
M  V30 94 H -5.78344 5.06491 -1.0523 0
M  V30 95 H -6.78148 7.29262 -0.608282 0
M  V30 96 H -8.80746 7.51734 0.82294 0
M  V30 97 H -9.81918 5.47774 1.79635 0
M  V30 98 H -8.77599 3.2531 1.31452 0
M  V30 99 H -6.65478 3.53817 3.59002 0
M  V30 END ATOM
M  V30 BEGIN BOND
M  V30 1 1 1 2
M  V30 2 1 1 3
M  V30 3 1 3 4
M  V30 4 1 4 5
M  V30 5 1 5 6
M  V30 6 1 6 7
M  V30 7 1 1 8
M  V30 8 2 8 9
M  V30 9 1 8 10
M  V30 10 1 10 11
M  V30 11 1 11 12
M  V30 12 1 12 13
M  V30 13 1 13 14
M  V30 14 1 13 15
M  V30 15 1 11 16
M  V30 16 2 16 17
M  V30 17 1 16 18
M  V30 18 1 18 19
M  V30 19 1 19 20
M  V30 20 1 20 21
M  V30 21 1 20 22
M  V30 22 1 19 23
M  V30 23 2 23 24
M  V30 24 1 23 25
M  V30 25 1 25 26
M  V30 26 1 26 27
M  V30 27 1 27 28
M  V30 28 2 28 29
M  V30 29 1 29 30
M  V30 30 2 30 31
M  V30 31 1 31 32
M  V30 32 2 32 33
M  V30 33 1 26 34
M  V30 34 2 34 35
M  V30 35 1 34 36
M  V30 36 1 36 37
M  V30 37 1 37 38
M  V30 38 1 38 39
M  V30 39 2 39 40
M  V30 40 1 40 41
M  V30 41 2 41 42
M  V30 42 1 42 43
M  V30 43 2 43 44
M  V30 44 1 37 45
M  V30 45 1 45 46
M  V30 46 2 45 47
M  V30 47 1 33 28
M  V30 48 1 44 39
M  V30 49 1 1 48 CFG=1
M  V30 50 1 2 49
M  V30 51 1 2 50
M  V30 52 1 3 51
M  V30 53 1 3 52
M  V30 54 1 4 53
M  V30 55 1 4 54
M  V30 56 1 5 55
M  V30 57 1 5 56
M  V30 58 1 6 57
M  V30 59 1 6 58
M  V30 60 1 7 59
M  V30 61 1 7 60
M  V30 62 1 10 61
M  V30 63 1 11 62 CFG=3
M  V30 64 1 12 63
M  V30 65 1 12 64
M  V30 66 1 13 65
M  V30 67 1 14 66
M  V30 68 1 14 67
M  V30 69 1 14 68
M  V30 70 1 15 69
M  V30 71 1 15 70
M  V30 72 1 15 71
M  V30 73 1 18 72
M  V30 74 1 19 73 CFG=3
M  V30 75 1 20 74
M  V30 76 1 21 75
M  V30 77 1 21 76
M  V30 78 1 21 77
M  V30 79 1 22 78
M  V30 80 1 22 79
M  V30 81 1 22 80
M  V30 82 1 25 81
M  V30 83 1 26 82 CFG=3
M  V30 84 1 27 83
M  V30 85 1 27 84
M  V30 86 1 29 85
M  V30 87 1 30 86
M  V30 88 1 31 87
M  V30 89 1 32 88
M  V30 90 1 33 89
M  V30 91 1 36 90
M  V30 92 1 37 91 CFG=1
M  V30 93 1 38 92
M  V30 94 1 38 93
M  V30 95 1 40 94
M  V30 96 1 41 95
M  V30 97 1 42 96
M  V30 98 1 43 97
M  V30 99 1 44 98
M  V30 100 1 46 99
M  V30 END BOND
M  V30 END CTAB
M  END
