
     RDKit          3D

  0  0  0  0  0  0  0  0  0  0999 V3000
M  V30 BEGIN CTAB
M  V30 COUNTS 33 34 0 0 0
M  V30 BEGIN ATOM
M  V30 1 N 1.79785 2.05081 -1.19651 0
M  V30 2 C 2.26784 0.896019 -0.515617 0
M  V30 3 N 3.62266 0.910435 -0.311438 0
M  V30 4 C 4.2624 -0.103628 0.252118 0
M  V30 5 C 3.50967 -1.19271 0.632732 0
M  V30 6 C 2.14459 -1.23014 0.439179 0
M  V30 7 C 1.47187 -0.155064 -0.155845 0
M  V30 8 C -0.00288921 -0.158768 -0.306985 0 CFG=1
M  V30 9 C -0.347187 -1.69768 -0.385848 0
M  V30 10 C -1.75291 -1.85932 -0.921967 0
M  V30 11 C -2.64006 -1.1305 0.0715613 0
M  V30 12 C -1.8321 -0.573822 1.2296 0
M  V30 13 N -0.757675 0.301542 0.802053 0
M  V30 14 S -1.28778 1.88741 0.898155 0
M  V30 15 O -2.22627 1.94427 2.14748 0
M  V30 16 O -0.277157 2.93414 1.23422 0
M  V30 17 N -2.33949 2.35459 -0.388151 0
M  V30 18 H 1.93345 2.95856 -0.702559 0
M  V30 19 H 1.34574 2.07797 -2.12044 0
M  V30 20 H 5.35089 -0.0831384 0.409781 0
M  V30 21 H 4.03305 -2.02246 1.09072 0
M  V30 22 H 1.65065 -2.12473 0.771666 0
M  V30 23 H -0.365584 0.270214 -1.23903 0
M  V30 24 H -0.329563 -2.14034 0.617382 0
M  V30 25 H 0.416793 -2.18056 -0.99281 0
M  V30 26 H -1.87211 -1.49005 -1.93789 0
M  V30 27 H -2.00236 -2.93551 -0.82031 0
M  V30 28 H -3.40119 -1.78771 0.522515 0
M  V30 29 H -3.14814 -0.31342 -0.442534 0
M  V30 30 H -1.52661 -1.34458 1.96015 0
M  V30 31 H -2.59207 0.0342 1.81134 0
M  V30 32 H -3.2423 2.76845 -0.0720865 0
M  V30 33 H -1.86402 3.13551 -0.91804 0
M  V30 END ATOM
M  V30 BEGIN BOND
M  V30 1 1 1 2
M  V30 2 2 2 3
M  V30 3 1 3 4
M  V30 4 2 4 5
M  V30 5 1 5 6
M  V30 6 2 6 7
M  V30 7 1 7 8
M  V30 8 1 8 9
M  V30 9 1 9 10
M  V30 10 1 10 11
M  V30 11 1 11 12
M  V30 12 1 12 13
M  V30 13 1 13 14
M  V30 14 2 14 15
M  V30 15 2 14 16
M  V30 16 1 14 17
M  V30 17 1 7 2
M  V30 18 1 13 8
M  V30 19 1 1 18
M  V30 20 1 1 19
M  V30 21 1 4 20
M  V30 22 1 5 21
M  V30 23 1 6 22
M  V30 24 1 8 23 CFG=3
M  V30 25 1 9 24
M  V30 26 1 9 25
M  V30 27 1 10 26
M  V30 28 1 10 27
M  V30 29 1 11 28
M  V30 30 1 11 29
M  V30 31 1 12 30
M  V30 32 1 12 31
M  V30 33 1 17 32
M  V30 34 1 17 33
M  V30 END BOND
M  V30 END CTAB
M  END
