
     RDKit          3D

  0  0  0  0  0  0  0  0  0  0999 V3000
M  V30 BEGIN CTAB
M  V30 COUNTS 30 31 0 0 0
M  V30 BEGIN ATOM
M  V30 1 N 5.55306 -0.20473 -0.0353007 0
M  V30 2 N 4.26552 -0.670722 0.285455 0
M  V30 3 C 3.14961 0.100206 -0.0824918 0
M  V30 4 O 3.30693 1.20292 -0.696669 0
M  V30 5 C 1.76793 -0.288612 0.200531 0
M  V30 6 C 1.45283 -1.4667 0.863808 0
M  V30 7 C 0.138396 -1.81851 1.1231 0
M  V30 8 C -0.911717 -1.01796 0.735809 0
M  V30 9 C -0.61895 0.171935 0.0671711 0
M  V30 10 C 0.697985 0.497241 -0.177684 0
M  V30 11 C -1.63138 1.01723 -0.346602 0
M  V30 12 N -1.26429 2.2093 -1.02017 0
M  V30 13 N -1.10789 2.33701 -2.3832 0
M  V30 14 C -2.93006 0.64622 -0.0775558 0
M  V30 15 C -3.2203 -0.546923 0.592738 0
M  V30 16 N -2.19065 -1.30773 0.959217 0
M  V30 17 C -4.6467 -0.87638 0.845366 0
M  V30 18 H 6.26226 -0.533508 0.641008 0
M  V30 19 H 5.73743 -0.516091 -1.01566 0
M  V30 20 H 4.16541 -1.56682 0.783202 0
M  V30 21 H 2.27103 -2.12114 1.18242 0
M  V30 22 H -0.0476346 -2.74662 1.64253 0
M  V30 23 H 0.941116 1.43323 -0.704296 0
M  V30 24 H -1.10127 3.05769 -0.416162 0
M  V30 25 H -0.357544 3.02025 -2.56575 0
M  V30 26 H -0.969148 1.4469 -2.88521 0
M  V30 27 H -3.71783 1.31232 -0.40412 0
M  V30 28 H -5.28681 -0.48924 0.0511277 0
M  V30 29 H -4.93277 -0.328333 1.78183 0
M  V30 30 H -4.77457 -1.95245 1.05555 0
M  V30 END ATOM
M  V30 BEGIN BOND
M  V30 1 1 1 2
M  V30 2 1 2 3
M  V30 3 2 3 4
M  V30 4 1 3 5
M  V30 5 2 5 6
M  V30 6 1 6 7
M  V30 7 2 7 8
M  V30 8 1 8 9
M  V30 9 2 9 10
M  V30 10 1 9 11
M  V30 11 1 11 12
M  V30 12 1 12 13
M  V30 13 2 11 14
M  V30 14 1 14 15
M  V30 15 2 15 16
M  V30 16 1 15 17
M  V30 17 1 10 5
M  V30 18 1 16 8
M  V30 19 1 1 18
M  V30 20 1 1 19
M  V30 21 1 2 20
M  V30 22 1 6 21
M  V30 23 1 7 22
M  V30 24 1 10 23
M  V30 25 1 12 24
M  V30 26 1 13 25
M  V30 27 1 13 26
M  V30 28 1 14 27
M  V30 29 1 17 28
M  V30 30 1 17 29
M  V30 31 1 17 30
M  V30 END BOND
M  V30 END CTAB
M  END
