
     RDKit          3D

  0  0  0  0  0  0  0  0  0  0999 V3000
M  V30 BEGIN CTAB
M  V30 COUNTS 21 20 0 0 0
M  V30 BEGIN ATOM
M  V30 1 C -2.92506 -1.49381 -0.259569 0
M  V30 2 C -2.12861 -0.935588 0.467412 0
M  V30 3 C -1.15423 -0.28288 1.33848 0
M  V30 4 C -0.199749 0.480906 0.471357 0
M  V30 5 N 0.500209 -0.345578 -0.448407 0
M  V30 6 C 1.76662 -0.546553 -0.394219 0
M  V30 7 N 2.53019 0.0747276 0.624086 0
M  V30 8 N 2.43434 -1.3731 -1.32227 0
M  V30 9 C -0.842228 1.61411 -0.271528 0
M  V30 10 O -1.74183 1.21184 -1.22749 0
M  V30 11 H -3.61371 -1.98847 -0.91161 0
M  V30 12 H -0.578782 -1.03877 1.90113 0
M  V30 13 H -1.62684 0.387978 2.07522 0
M  V30 14 H 0.561418 0.942557 1.16248 0
M  V30 15 H 3.01457 0.980488 0.49837 0
M  V30 16 H 2.60397 -0.417363 1.55516 0
M  V30 17 H 3.15238 -0.960223 -1.94487 0
M  V30 18 H 2.20961 -2.37856 -1.38013 0
M  V30 19 H -1.27492 2.37144 0.432692 0
M  V30 20 H -0.0207665 2.16041 -0.800945 0
M  V30 21 H -2.66659 1.53644 -1.08719 0
M  V30 END ATOM
M  V30 BEGIN BOND
M  V30 1 3 1 2
M  V30 2 1 2 3
M  V30 3 1 3 4
M  V30 4 1 4 5
M  V30 5 2 5 6 CFG=2
M  V30 6 1 6 7
M  V30 7 1 6 8
M  V30 8 1 4 9
M  V30 9 1 9 10
M  V30 10 1 1 11
M  V30 11 1 3 12
M  V30 12 1 3 13
M  V30 13 1 4 14
M  V30 14 1 7 15
M  V30 15 1 7 16
M  V30 16 1 8 17
M  V30 17 1 8 18
M  V30 18 1 9 19
M  V30 19 1 9 20
M  V30 20 1 10 21
M  V30 END BOND
M  V30 END CTAB
M  END
