
     RDKit          3D

  0  0  0  0  0  0  0  0  0  0999 V3000
M  V30 BEGIN CTAB
M  V30 COUNTS 26 26 0 0 0
M  V30 BEGIN ATOM
M  V30 1 C 4.29443 -0.985143 -0.710049 0
M  V30 2 C 3.58404 -0.450696 0.514268 0
M  V30 3 O 2.19206 -0.31723 0.256918 0
M  V30 4 C 1.2875 0.14214 1.17316 0
M  V30 5 O 1.73177 0.4612 2.30682 0
M  V30 6 C -0.14992 0.29198 0.942377 0
M  V30 7 C -0.982344 0.765446 1.93258 0
M  V30 8 C -2.33956 0.927556 1.77471 0
M  V30 9 C -2.89917 0.599009 0.560553 0
M  V30 10 C -2.09745 0.12224 -0.453486 0
M  V30 11 C -0.719989 -0.0365379 -0.276564 0
M  V30 12 C 0.0797997 -0.540407 -1.37028 0
M  V30 13 N 0.702712 -0.94552 -2.25824 0
M  V30 14 N -2.63736 -0.226814 -1.71796 0
M  V30 15 N -4.2886 0.74928 0.353346 0
M  V30 16 H 5.28093 -1.38429 -0.384492 0
M  V30 17 H 4.42092 -0.177025 -1.46135 0
M  V30 18 H 3.67135 -1.76769 -1.17844 0
M  V30 19 H 3.77718 -1.08013 1.40478 0
M  V30 20 H 3.95169 0.575341 0.737609 0
M  V30 21 H -0.522156 1.01972 2.88485 0
M  V30 22 H -2.96897 1.31147 2.59883 0
M  V30 23 H -3.2801 0.409782 -2.22864 0
M  V30 24 H -2.40321 -1.13283 -2.16917 0
M  V30 25 H -4.94535 -0.0389684 0.187581 0
M  V30 26 H -4.7402 1.70812 0.357834 0
M  V30 END ATOM
M  V30 BEGIN BOND
M  V30 1 1 1 2
M  V30 2 1 2 3
M  V30 3 1 3 4
M  V30 4 2 4 5
M  V30 5 1 4 6
M  V30 6 2 6 7
M  V30 7 1 7 8
M  V30 8 2 8 9
M  V30 9 1 9 10
M  V30 10 2 10 11
M  V30 11 1 11 12
M  V30 12 3 12 13
M  V30 13 1 10 14
M  V30 14 1 9 15
M  V30 15 1 11 6
M  V30 16 1 1 16
M  V30 17 1 1 17
M  V30 18 1 1 18
M  V30 19 1 2 19
M  V30 20 1 2 20
M  V30 21 1 7 21
M  V30 22 1 8 22
M  V30 23 1 14 23
M  V30 24 1 14 24
M  V30 25 1 15 25
M  V30 26 1 15 26
M  V30 END BOND
M  V30 END CTAB
M  END
