
     RDKit          3D

  0  0  0  0  0  0  0  0  0  0999 V3000
M  V30 BEGIN CTAB
M  V30 COUNTS 41 43 0 0 0
M  V30 BEGIN ATOM
M  V30 1 N -4.45202 4.61171 0.00683944 0
M  V30 2 C -4.70822 3.23409 -0.198516 0
M  V30 3 S -6.18769 2.69714 -0.592142 0
M  V30 4 N -3.66251 2.25995 -0.0544735 0
M  V30 5 N -3.74647 0.899371 -0.188791 0
M  V30 6 C -2.58996 0.28733 0.0158937 0
M  V30 7 C -1.60903 1.27594 0.328052 0
M  V30 8 N -0.424794 1.16687 0.764591 0
M  V30 9 N 0.20698 0.0160267 1.05972 0
M  V30 10 C 1.57556 -0.121343 0.621674 0
M  V30 11 C 2.55093 -0.115112 1.613 0
M  V30 12 C 3.89085 -0.233376 1.30724 0
M  V30 13 C 4.3099 -0.362825 0.000437706 0
M  V30 14 C 3.33999 -0.36578 -0.966093 0
M  V30 15 C 1.97817 -0.246879 -0.66628 0
M  V30 16 S 6.01803 -0.514717 -0.368711 0
M  V30 17 O 6.74509 -1.09368 0.830045 0
M  V30 18 O 6.16048 -1.41238 -1.56176 0
M  V30 19 N 6.73853 1.01839 -0.691253 0
M  V30 20 C -2.32956 2.59483 0.275304 0
M  V30 21 O -1.78933 3.68697 0.489367 0
M  V30 22 C -2.51164 -1.15981 -0.0660357 0
M  V30 23 C -1.55061 -1.94759 -0.592347 0
M  V30 24 C -1.5822 -3.31704 -0.513887 0
M  V30 25 C -2.62002 -3.94818 0.11647 0
M  V30 26 C -3.61783 -3.17636 0.662631 0
M  V30 27 C -3.58734 -1.81401 0.585477 0
M  V30 28 H -4.24106 5.20238 -0.827407 0
M  V30 29 H -4.46831 5.06147 0.947406 0
M  V30 30 H -0.134598 -0.793702 1.6113 0
M  V30 31 H 2.22444 -0.0138745 2.64695 0
M  V30 32 H 4.57722 -0.224751 2.1189 0
M  V30 33 H 3.65251 -0.465021 -1.98597 0
M  V30 34 H 1.2323 -0.242978 -1.45026 0
M  V30 35 H 6.05442 1.79945 -0.590345 0
M  V30 36 H 7.60443 1.18533 -0.119178 0
M  V30 37 H -0.745197 -1.52297 -1.13805 0
M  V30 38 H -0.802994 -3.93932 -0.940742 0
M  V30 39 H -2.66741 -5.01507 0.191324 0
M  V30 40 H -4.4411 -3.69806 1.16615 0
M  V30 41 H -4.38994 -1.25241 1.02829 0
M  V30 END ATOM
M  V30 BEGIN BOND
M  V30 1 1 1 2
M  V30 2 2 2 3
M  V30 3 1 2 4
M  V30 4 1 4 5
M  V30 5 2 5 6
M  V30 6 1 6 7
M  V30 7 2 7 8
M  V30 8 1 8 9
M  V30 9 1 9 10
M  V30 10 2 10 11
M  V30 11 1 11 12
M  V30 12 2 12 13
M  V30 13 1 13 14
M  V30 14 2 14 15
M  V30 15 1 13 16
M  V30 16 2 16 17
M  V30 17 2 16 18
M  V30 18 1 16 19
M  V30 19 1 7 20
M  V30 20 2 20 21
M  V30 21 1 6 22
M  V30 22 2 22 23
M  V30 23 1 23 24
M  V30 24 2 24 25
M  V30 25 1 25 26
M  V30 26 2 26 27
M  V30 27 1 20 4
M  V30 28 1 27 22
M  V30 29 1 15 10
M  V30 30 1 1 28
M  V30 31 1 1 29
M  V30 32 1 9 30
M  V30 33 1 11 31
M  V30 34 1 12 32
M  V30 35 1 14 33
M  V30 36 1 15 34
M  V30 37 1 19 35
M  V30 38 1 19 36
M  V30 39 1 23 37
M  V30 40 1 24 38
M  V30 41 1 25 39
M  V30 42 1 26 40
M  V30 43 1 27 41
M  V30 END BOND
M  V30 END CTAB
M  END
