
     RDKit          3D

  0  0  0  0  0  0  0  0  0  0999 V3000
M  V30 BEGIN CTAB
M  V30 COUNTS 37 39 0 0 0
M  V30 BEGIN ATOM
M  V30 1 N 5.48211 -0.195594 0.80879 0
M  V30 2 C 4.08455 -0.186351 0.45168 0
M  V30 3 C 3.5346 0.885853 -0.221109 0
M  V30 4 C 2.17561 0.881925 -0.561768 0
M  V30 5 C 1.38415 -0.186265 -0.228603 0
M  V30 6 C 1.99433 -1.22141 0.440212 0
M  V30 7 N 3.28704 -1.21542 0.763067 0
M  V30 8 C -0.00737864 -0.270803 -0.571326 0 CFG=1
M  V30 9 C -0.945355 -0.821763 0.439539 0
M  V30 10 C -0.747529 -0.988401 1.7588 0
M  V30 11 C -1.76113 -1.52519 2.54479 0
M  V30 12 C -2.96503 -1.89031 2.00417 0
M  V30 13 C -3.17019 -1.719 0.648814 0
M  V30 14 C -2.1787 -1.19399 -0.121431 0
M  V30 15 C -2.3088 -0.967335 -1.5812 0
M  V30 16 C -1.71597 0.332609 -2.05175 0
M  V30 17 N -0.656668 0.829048 -1.18428 0
M  V30 18 S -1.26362 2.08213 -0.263451 0
M  V30 19 O -2.73568 2.35023 -0.57104 0
M  V30 20 O -1.18805 1.94487 1.22004 0
M  V30 21 N -0.42881 3.57832 -0.623037 0
M  V30 22 H 5.72391 -0.557602 1.74318 0
M  V30 23 H 6.17745 0.154962 0.126608 0
M  V30 24 H 4.17526 1.71988 -0.475065 0
M  V30 25 H 1.84264 1.74331 -1.08701 0
M  V30 26 H 1.41419 -2.11698 0.730072 0
M  V30 27 H -0.0329463 -1.08878 -1.39794 0
M  V30 28 H 0.196901 -0.687582 2.19536 0
M  V30 29 H -1.55425 -1.64027 3.59981 0
M  V30 30 H -3.73013 -2.30793 2.66441 0
M  V30 31 H -4.12627 -2.01154 0.235199 0
M  V30 32 H -1.81112 -1.79621 -2.1247 0
M  V30 33 H -3.39192 -1.02067 -1.8718 0
M  V30 34 H -2.52812 1.08043 -2.12716 0
M  V30 35 H -1.30033 0.196039 -3.06343 0
M  V30 36 H 0.154579 3.46995 -1.4831 0
M  V30 37 H -1.07929 4.35983 -0.765322 0
M  V30 END ATOM
M  V30 BEGIN BOND
M  V30 1 1 1 2
M  V30 2 2 2 3
M  V30 3 1 3 4
M  V30 4 2 4 5
M  V30 5 1 5 6
M  V30 6 2 6 7
M  V30 7 1 5 8
M  V30 8 1 8 9
M  V30 9 2 9 10
M  V30 10 1 10 11
M  V30 11 2 11 12
M  V30 12 1 12 13
M  V30 13 2 13 14
M  V30 14 1 14 15
M  V30 15 1 15 16
M  V30 16 1 16 17
M  V30 17 1 17 18
M  V30 18 2 18 19
M  V30 19 2 18 20
M  V30 20 1 18 21
M  V30 21 1 7 2
M  V30 22 1 17 8
M  V30 23 1 14 9
M  V30 24 1 1 22
M  V30 25 1 1 23
M  V30 26 1 3 24
M  V30 27 1 4 25
M  V30 28 1 6 26
M  V30 29 1 8 27 CFG=3
M  V30 30 1 10 28
M  V30 31 1 11 29
M  V30 32 1 12 30
M  V30 33 1 13 31
M  V30 34 1 15 32
M  V30 35 1 15 33
M  V30 36 1 16 34
M  V30 37 1 16 35
M  V30 38 1 21 36
M  V30 39 1 21 37
M  V30 END BOND
M  V30 END CTAB
M  END
