
     RDKit          3D

  0  0  0  0  0  0  0  0  0  0999 V3000
M  V30 BEGIN CTAB
M  V30 COUNTS 26 27 0 0 0
M  V30 BEGIN ATOM
M  V30 1 N 2.00711 -1.97606 -0.499978 0
M  V30 2 C 1.90817 -0.559606 -0.251661 0
M  V30 3 C 2.97046 0.28967 -0.469976 0
M  V30 4 C 2.47399 1.54773 -0.115667 0
M  V30 5 N 1.20077 1.37592 0.274969 0
M  V30 6 N 0.840329 0.113756 0.200573 0
M  V30 7 C -0.422226 -0.514164 0.518195 0
M  V30 8 C -1.36112 -0.583253 -0.625681 0
M  V30 9 C -2.66237 -1.24943 -0.232365 0
M  V30 10 C -3.3267 0.101985 -0.174792 0
M  V30 11 C -2.14752 0.654448 -0.952546 0
M  V30 12 N 3.20377 2.75018 -0.171272 0
M  V30 13 H 2.39959 -2.3606 -1.38635 0
M  V30 14 H 1.68233 -2.6461 0.214866 0
M  V30 15 H 3.97155 0.0820893 -0.82936 0
M  V30 16 H -0.204456 -1.54356 0.863162 0
M  V30 17 H -0.920308 -0.0135871 1.39552 0
M  V30 18 H -0.961084 -1.05565 -1.52967 0
M  V30 19 H -3.07795 -1.95034 -0.983581 0
M  V30 20 H -2.62832 -1.76885 0.755822 0
M  V30 21 H -3.44191 0.524263 0.841769 0
M  V30 22 H -4.26439 0.0760436 -0.768917 0
M  V30 23 H -2.39717 0.727951 -2.03075 0
M  V30 24 H -1.80083 1.59095 -0.479029 0
M  V30 25 H 3.08748 3.47836 0.547748 0
M  V30 26 H 3.87082 2.90785 -0.948916 0
M  V30 END ATOM
M  V30 BEGIN BOND
M  V30 1 1 1 2
M  V30 2 2 2 3
M  V30 3 1 3 4
M  V30 4 2 4 5
M  V30 5 1 5 6
M  V30 6 1 6 7
M  V30 7 1 7 8
M  V30 8 1 8 9
M  V30 9 1 9 10
M  V30 10 1 10 11
M  V30 11 1 4 12
M  V30 12 1 6 2
M  V30 13 1 11 8
M  V30 14 1 1 13
M  V30 15 1 1 14
M  V30 16 1 3 15
M  V30 17 1 7 16
M  V30 18 1 7 17
M  V30 19 1 8 18
M  V30 20 1 9 19
M  V30 21 1 9 20
M  V30 22 1 10 21
M  V30 23 1 10 22
M  V30 24 1 11 23
M  V30 25 1 11 24
M  V30 26 1 12 25
M  V30 27 1 12 26
M  V30 END BOND
M  V30 END CTAB
M  END
