
     RDKit          3D

  0  0  0  0  0  0  0  0  0  0999 V3000
M  V30 BEGIN CTAB
M  V30 COUNTS 22 22 0 0 0
M  V30 BEGIN ATOM
M  V30 1 N -2.56889 1.95578 0.212223 0
M  V30 2 C -1.89819 0.727812 -0.0353477 0
M  V30 3 C -2.59704 -0.454493 0.0598144 0
M  V30 4 C -1.90314 -1.61865 -0.189293 0
M  V30 5 C -0.563795 -1.59734 -0.520109 0
M  V30 6 C 0.148808 -0.414038 -0.618616 0
M  V30 7 C 1.58989 -0.414605 -0.976139 0
M  V30 8 S 2.63564 -0.518891 0.433908 0
M  V30 9 N 2.3267 0.843552 1.44884 0
M  V30 10 O 4.05968 -0.522506 -0.0440337 0
M  V30 11 O 2.35361 -1.79615 1.19134 0
M  V30 12 C -0.559625 0.743412 -0.366346 0
M  V30 13 H -2.05174 2.85895 0.288932 0
M  V30 14 H -3.60588 1.99918 0.326652 0
M  V30 15 H -3.66651 -0.471357 0.323986 0
M  V30 16 H -2.47988 -2.54279 -0.107337 0
M  V30 17 H -0.0331226 -2.5186 -0.712661 0
M  V30 18 H 1.83092 -1.21927 -1.72044 0
M  V30 19 H 1.83286 0.540284 -1.50454 0
M  V30 20 H 1.99232 1.67119 0.903198 0
M  V30 21 H 3.1504 1.07461 2.05132 0
M  V30 22 H 0.00699156 1.67392 -0.445353 0
M  V30 END ATOM
M  V30 BEGIN BOND
M  V30 1 1 1 2
M  V30 2 2 2 3
M  V30 3 1 3 4
M  V30 4 2 4 5
M  V30 5 1 5 6
M  V30 6 1 6 7
M  V30 7 1 7 8
M  V30 8 1 8 9
M  V30 9 2 8 10
M  V30 10 2 8 11
M  V30 11 2 6 12
M  V30 12 1 12 2
M  V30 13 1 1 13
M  V30 14 1 1 14
M  V30 15 1 3 15
M  V30 16 1 4 16
M  V30 17 1 5 17
M  V30 18 1 7 18
M  V30 19 1 7 19
M  V30 20 1 9 20
M  V30 21 1 9 21
M  V30 22 1 12 22
M  V30 END BOND
M  V30 END CTAB
M  END
