
     RDKit          3D

  0  0  0  0  0  0  0  0  0  0999 V3000
M  V30 BEGIN CTAB
M  V30 COUNTS 48 50 0 0 0
M  V30 BEGIN ATOM
M  V30 1 N -5.86075 -1.19313 -2.47561 0
M  V30 2 C -5.50314 -0.568164 -1.22944 0
M  V30 3 C -4.4303 0.473717 -1.43238 0
M  V30 4 C -3.42082 -0.514984 -0.881966 0
M  V30 5 C -4.54239 -1.38133 -0.419808 0
M  V30 6 C -2.61285 0.105966 0.202942 0
M  V30 7 C -1.25835 0.283436 0.0422605 0
M  V30 8 C -0.495786 0.829911 1.03687 0
M  V30 9 N -1.1194 1.19393 2.19378 0
M  V30 10 C -2.44555 1.03265 2.37948 0
M  V30 11 N -3.15614 0.485797 1.35955 0
M  V30 12 N -3.04869 1.42974 3.59104 0
M  V30 13 N 0.897811 1.04047 0.87693 0
M  V30 14 C 1.40345 1.6009 -0.318599 0
M  V30 15 C 2.16459 0.776293 -1.26902 0
M  V30 16 N 3.3455 0.116566 -0.818665 0
M  V30 17 N 4.54235 0.684766 -0.703931 0
M  V30 18 C 5.45662 -0.15676 -0.237793 0
M  V30 19 C 4.80017 -1.34893 -0.0397753 0
M  V30 20 C 3.50031 -1.15215 -0.407227 0
M  V30 21 C 2.47453 -2.23423 -0.36898 0
M  V30 22 C 6.89765 0.131157 0.0179615 0
M  V30 23 C 1.7674 0.654484 1.9665 0
M  V30 24 H -5.03708 -1.74349 -2.80377 0
M  V30 25 H -6.2319 -0.525631 -3.17981 0
M  V30 26 H -6.35624 -0.125699 -0.666253 0
M  V30 27 H -4.56592 1.37224 -0.815508 0
M  V30 28 H -4.23817 0.687473 -2.51822 0
M  V30 29 H -2.76589 -0.946259 -1.6703 0
M  V30 30 H -4.50559 -2.43272 -0.792218 0
M  V30 31 H -4.66634 -1.31337 0.685747 0
M  V30 32 H -0.815935 -0.0293234 -0.906022 0
M  V30 33 H -2.94951 2.40313 3.91256 0
M  V30 34 H -3.58696 0.753062 4.14638 0
M  V30 35 H 2.06479 2.46401 -0.0103484 0
M  V30 36 H 0.572895 2.10325 -0.9257 0
M  V30 37 H 1.48402 0.0729115 -1.84205 0
M  V30 38 H 2.50183 1.48094 -2.10018 0
M  V30 39 H 5.29793 -2.24161 0.340488 0
M  V30 40 H 2.02657 -2.31037 0.631657 0
M  V30 41 H 2.9739 -3.20136 -0.611136 0
M  V30 42 H 1.67393 -2.0529 -1.13713 0
M  V30 43 H 7.02122 1.12807 0.522588 0
M  V30 44 H 7.49544 0.148061 -0.923205 0
M  V30 45 H 7.3041 -0.631901 0.683137 0
M  V30 46 H 2.80424 0.994318 1.83708 0
M  V30 47 H 1.71931 -0.45822 2.12859 0
M  V30 48 H 1.42316 1.09223 2.94951 0
M  V30 END ATOM
M  V30 BEGIN BOND
M  V30 1 1 1 2
M  V30 2 1 2 3
M  V30 3 1 3 4
M  V30 4 1 4 5
M  V30 5 1 4 6
M  V30 6 2 6 7
M  V30 7 1 7 8
M  V30 8 2 8 9
M  V30 9 1 9 10
M  V30 10 2 10 11
M  V30 11 1 10 12
M  V30 12 1 8 13
M  V30 13 1 13 14
M  V30 14 1 14 15
M  V30 15 1 15 16
M  V30 16 1 16 17
M  V30 17 2 17 18
M  V30 18 1 18 19
M  V30 19 2 19 20
M  V30 20 1 20 21
M  V30 21 1 18 22
M  V30 22 1 13 23
M  V30 23 1 5 2
M  V30 24 1 11 6
M  V30 25 1 20 16
M  V30 26 1 1 24
M  V30 27 1 1 25
M  V30 28 1 2 26
M  V30 29 1 3 27
M  V30 30 1 3 28
M  V30 31 1 4 29
M  V30 32 1 5 30
M  V30 33 1 5 31
M  V30 34 1 7 32
M  V30 35 1 12 33
M  V30 36 1 12 34
M  V30 37 1 14 35
M  V30 38 1 14 36
M  V30 39 1 15 37
M  V30 40 1 15 38
M  V30 41 1 19 39
M  V30 42 1 21 40
M  V30 43 1 21 41
M  V30 44 1 21 42
M  V30 45 1 22 43
M  V30 46 1 22 44
M  V30 47 1 22 45
M  V30 48 1 23 46
M  V30 49 1 23 47
M  V30 50 1 23 48
M  V30 END BOND
M  V30 END CTAB
M  END
