
     RDKit          3D

  0  0  0  0  0  0  0  0  0  0999 V3000
M  V30 BEGIN CTAB
M  V30 COUNTS 48 48 0 0 0
M  V30 BEGIN ATOM
M  V30 1 N -2.29081 -1.66415 1.74864 0
M  V30 2 C -1.91723 -0.875377 2.88029 0
M  V30 3 C -2.12748 0.590799 2.79442 0
M  V30 4 N -1.24083 1.09197 1.60768 0
M  V30 5 C -1.98709 1.1829 0.454621 0
M  V30 6 O -1.61753 1.7477 -0.643244 0
M  V30 7 O -3.27117 0.654494 0.351825 0
M  V30 8 C -4.05909 0.751942 -0.81998 0
M  V30 9 C -4.35183 2.19635 -1.1677 0
M  V30 10 C -5.38025 0.072381 -0.547978 0
M  V30 11 C -3.36832 0.084804 -1.99608 0
M  V30 12 C 0.0472621 1.10402 2.05253 0
M  V30 13 C 1.15309 0.702142 1.54875 0
M  V30 14 C 1.19475 0.0470141 0.255074 0
M  V30 15 O 0.157128 -0.309777 -0.315592 0
M  V30 16 N 2.40123 -0.175201 -0.320989 0
M  V30 17 C 3.59367 -0.394885 -0.890446 0
M  V30 18 C 3.93369 -1.70814 -1.34366 0
M  V30 19 C 5.20943 -1.97031 -1.72948 0
M  V30 20 C 6.1634 -0.994381 -1.68821 0
M  V30 21 C 5.84722 0.267696 -1.25823 0
M  V30 22 C 4.57867 0.587409 -0.859685 0
M  V30 23 Cl 4.20286 2.26834 -0.44108 0
M  V30 24 N 7.49847 -1.27838 -2.10337 0
M  V30 25 C 2.40075 0.816359 2.34756 0
M  V30 26 N 3.39271 0.882932 2.97779 0
M  V30 27 H -1.59583 -2.42545 1.57256 0
M  V30 28 H -3.21417 -2.15289 1.88856 0
M  V30 29 H -2.47625 -1.29214 3.76977 0
M  V30 30 H -0.825772 -1.06227 3.15329 0
M  V30 31 H -1.79885 1.17438 3.65572 0
M  V30 32 H -3.14809 0.81118 2.49305 0
M  V30 33 H -4.62149 2.7085 -0.206386 0
M  V30 34 H -3.57597 2.69903 -1.7463 0
M  V30 35 H -5.33853 2.18498 -1.72599 0
M  V30 36 H -5.61877 0.297709 0.529554 0
M  V30 37 H -5.32923 -1.02386 -0.715716 0
M  V30 38 H -6.22158 0.523742 -1.13072 0
M  V30 39 H -2.68642 -0.707358 -1.62138 0
M  V30 40 H -2.84238 0.819146 -2.62488 0
M  V30 41 H -4.13704 -0.402533 -2.62134 0
M  V30 42 H 0.194253 1.59377 3.10527 0
M  V30 43 H 1.81021 -0.588536 -1.50748 0
M  V30 44 H 3.1545 -2.45454 -1.35789 0
M  V30 45 H 5.50145 -2.95665 -2.07836 0
M  V30 46 H 6.61523 1.05216 -1.22496 0
M  V30 47 H 8.15735 -1.71673 -1.43832 0
M  V30 48 H 7.8347 -1.05406 -3.06152 0
M  V30 END ATOM
M  V30 BEGIN BOND
M  V30 1 1 1 2
M  V30 2 1 2 3
M  V30 3 1 3 4
M  V30 4 1 4 5
M  V30 5 2 5 6
M  V30 6 1 5 7
M  V30 7 1 7 8
M  V30 8 1 8 9
M  V30 9 1 8 10
M  V30 10 1 8 11
M  V30 11 1 4 12
M  V30 12 2 12 13
M  V30 13 1 13 14
M  V30 14 2 14 15
M  V30 15 1 14 16
M  V30 16 1 16 17
M  V30 17 2 17 18
M  V30 18 1 18 19
M  V30 19 2 19 20
M  V30 20 1 20 21
M  V30 21 2 21 22
M  V30 22 1 22 23
M  V30 23 1 20 24
M  V30 24 1 13 25
M  V30 25 3 25 26
M  V30 26 1 22 17
M  V30 27 1 1 27
M  V30 28 1 1 28
M  V30 29 1 2 29
M  V30 30 1 2 30
M  V30 31 1 3 31
M  V30 32 1 3 32
M  V30 33 1 9 33
M  V30 34 1 9 34
M  V30 35 1 9 35
M  V30 36 1 10 36
M  V30 37 1 10 37
M  V30 38 1 10 38
M  V30 39 1 11 39
M  V30 40 1 11 40
M  V30 41 1 11 41
M  V30 42 1 12 42
M  V30 43 1 16 43
M  V30 44 1 18 44
M  V30 45 1 19 45
M  V30 46 1 21 46
M  V30 47 1 24 47
M  V30 48 1 24 48
M  V30 END BOND
M  V30 END CTAB
M  END
