
     RDKit          3D

  0  0  0  0  0  0  0  0  0  0999 V3000
M  V30 BEGIN CTAB
M  V30 COUNTS 31 31 0 0 0
M  V30 BEGIN ATOM
M  V30 1 C 2.42184 2.01474 -0.088162 0
M  V30 2 C 1.15593 1.54242 -0.715383 0
M  V30 3 C 0.632957 0.266839 -0.0831426 0
M  V30 4 C -0.6366 -0.201019 -0.718071 0
M  V30 5 C -1.77754 0.714813 -0.684013 0
M  V30 6 C -2.78482 0.102743 0.261869 0
M  V30 7 C -2.71019 -1.34903 -0.246734 0
M  V30 8 C -1.17174 -1.49359 -0.153054 0
M  V30 9 C 1.75987 -0.735476 -0.23017 0
M  V30 10 N 1.40753 -2.01647 0.336096 0
M  V30 11 N 0.466826 0.489961 1.332 0
M  V30 12 H 2.53348 1.82283 0.972926 0
M  V30 13 H 2.46281 3.137 -0.212991 0
M  V30 14 H 3.33006 1.65739 -0.655446 0
M  V30 15 H 1.40075 1.39391 -1.78811 0
M  V30 16 H 0.385059 2.34285 -0.57792 0
M  V30 17 H -0.385672 -0.419525 -1.79145 0
M  V30 18 H -1.58087 1.77161 -0.48121 0
M  V30 19 H -2.30302 0.715769 -1.68754 0
M  V30 20 H -3.80263 0.507845 0.127106 0
M  V30 21 H -2.44696 0.115787 1.31321 0
M  V30 22 H -3.22002 -2.04528 0.420215 0
M  V30 23 H -3.03251 -1.38656 -1.30392 0
M  V30 24 H -0.921922 -2.39151 -0.715213 0
M  V30 25 H -1.0255 -1.60068 0.942121 0
M  V30 26 H 2.64917 -0.377935 0.333004 0
M  V30 27 H 1.9644 -0.823154 -1.31576 0
M  V30 28 H 1.4397 -2.74674 -0.420195 0
M  V30 29 H 2.06743 -2.3331 1.0787 0
M  V30 30 H 0.644012 1.45498 1.64221 0
M  V30 31 H 1.07814 -0.131408 1.90265 0
M  V30 END ATOM
M  V30 BEGIN BOND
M  V30 1 1 1 2
M  V30 2 1 2 3
M  V30 3 1 3 4
M  V30 4 1 4 5
M  V30 5 1 5 6
M  V30 6 1 6 7
M  V30 7 1 7 8
M  V30 8 1 3 9
M  V30 9 1 9 10
M  V30 10 1 3 11
M  V30 11 1 8 4
M  V30 12 1 1 12
M  V30 13 1 1 13
M  V30 14 1 1 14
M  V30 15 1 2 15
M  V30 16 1 2 16
M  V30 17 1 4 17
M  V30 18 1 5 18
M  V30 19 1 5 19
M  V30 20 1 6 20
M  V30 21 1 6 21
M  V30 22 1 7 22
M  V30 23 1 7 23
M  V30 24 1 8 24
M  V30 25 1 8 25
M  V30 26 1 9 26
M  V30 27 1 9 27
M  V30 28 1 10 28
M  V30 29 1 10 29
M  V30 30 1 11 30
M  V30 31 1 11 31
M  V30 END BOND
M  V30 END CTAB
M  END
