
     RDKit          3D

  0  0  0  0  0  0  0  0  0  0999 V3000
M  V30 BEGIN CTAB
M  V30 COUNTS 37 38 0 0 0
M  V30 BEGIN ATOM
M  V30 1 N -3.96042 -1.11155 -0.103384 0
M  V30 2 C -2.56205 -1.09078 0.280353 0
M  V30 3 C -1.79433 -0.121789 -0.60511 0
M  V30 4 C -2.32482 1.24867 -0.485856 0
M  V30 5 C -2.32258 2.00796 0.782127 0
M  V30 6 C -1.41533 2.43742 -0.311379 0
M  V30 7 N -0.394709 -0.323787 -0.566192 0
M  V30 8 C 0.320645 -0.223338 0.629849 0
M  V30 9 C 1.7751 -0.478557 0.308086 0
M  V30 10 C 2.24798 -1.7823 0.194587 0
M  V30 11 C 3.5847 -2.01595 -0.0979262 0
M  V30 12 C 4.46731 -0.968045 -0.281251 0
M  V30 13 C 4.00677 0.32894 -0.170435 0
M  V30 14 C 2.68225 0.543484 0.119288 0
M  V30 15 N 4.85929 1.44986 -0.346263 0
M  V30 16 C -2.17199 -0.590058 -2.03673 0
M  V30 17 H -4.31743 -2.0888 -0.261499 0
M  V30 18 H -4.5903 -0.704214 0.619943 0
M  V30 19 H -2.19622 -2.13257 0.196015 0
M  V30 20 H -2.49749 -0.825616 1.35147 0
M  V30 21 H -3.27824 1.41853 -1.09395 0
M  V30 22 H -3.16468 2.69365 0.989344 0
M  V30 23 H -1.91444 1.57554 1.73172 0
M  V30 24 H -0.345071 2.31241 -0.349296 0
M  V30 25 H -1.74214 3.34379 -0.911256 0
M  V30 26 H -0.142 -1.20585 -1.06237 0
M  V30 27 H 0.0881425 -1.00182 1.39415 0
M  V30 28 H 0.307863 0.723619 1.18714 0
M  V30 29 H 1.53714 -2.58416 0.342665 0
M  V30 30 H 3.91907 -3.03529 -0.179363 0
M  V30 31 H 5.51398 -1.11166 -0.51009 0
M  V30 32 H 2.32143 1.55456 0.205738 0
M  V30 33 H 5.42101 1.49093 -1.21923 0
M  V30 34 H 4.96571 2.23402 0.33143 0
M  V30 35 H -3.28127 -0.487695 -2.09564 0
M  V30 36 H -1.74529 0.138699 -2.74783 0
M  V30 37 H -1.85758 -1.61826 -2.19982 0
M  V30 END ATOM
M  V30 BEGIN BOND
M  V30 1 1 1 2
M  V30 2 1 2 3
M  V30 3 1 3 4
M  V30 4 1 4 5
M  V30 5 1 5 6
M  V30 6 1 3 7
M  V30 7 1 7 8
M  V30 8 1 8 9
M  V30 9 2 9 10
M  V30 10 1 10 11
M  V30 11 2 11 12
M  V30 12 1 12 13
M  V30 13 2 13 14
M  V30 14 1 13 15
M  V30 15 1 3 16
M  V30 16 1 6 4
M  V30 17 1 14 9
M  V30 18 1 1 17
M  V30 19 1 1 18
M  V30 20 1 2 19
M  V30 21 1 2 20
M  V30 22 1 4 21
M  V30 23 1 5 22
M  V30 24 1 5 23
M  V30 25 1 6 24
M  V30 26 1 6 25
M  V30 27 1 7 26
M  V30 28 1 8 27
M  V30 29 1 8 28
M  V30 30 1 10 29
M  V30 31 1 11 30
M  V30 32 1 12 31
M  V30 33 1 14 32
M  V30 34 1 15 33
M  V30 35 1 15 34
M  V30 36 1 16 35
M  V30 37 1 16 36
M  V30 38 1 16 37
M  V30 END BOND
M  V30 END CTAB
M  END
