
     RDKit          3D

  0  0  0  0  0  0  0  0  0  0999 V3000
M  V30 BEGIN CTAB
M  V30 COUNTS 26 25 0 0 0
M  V30 BEGIN ATOM
M  V30 1 N -3.87787 -0.570233 -0.907417 0
M  V30 2 C -3.14883 0.357671 -0.059617 0
M  V30 3 C -1.70894 -0.148138 0.0426697 0
M  V30 4 C -0.870542 0.732022 0.891945 0
M  V30 5 C 0.512415 0.216088 1.0567 0
M  V30 6 C 1.37314 0.0412897 -0.12815 0
M  V30 7 N 0.973674 -0.864541 -1.14142 0
M  V30 8 P 3.04751 -0.504274 0.416751 0
M  V30 9 O 4.05434 -0.668632 -0.908233 0
M  V30 10 O 3.64019 0.611089 1.54914 0
M  V30 11 O 2.86484 -1.85037 1.08195 0
M  V30 12 H -4.80673 -0.163625 -1.19548 0
M  V30 13 H -3.33589 -0.671979 -1.79362 0
M  V30 14 H -3.5697 0.359913 0.962592 0
M  V30 15 H -3.1955 1.35965 -0.496176 0
M  V30 16 H -1.70993 -1.17359 0.434156 0
M  V30 17 H -1.28473 -0.132091 -1.00453 0
M  V30 18 H -0.805963 1.78739 0.463686 0
M  V30 19 H -1.30307 0.878261 1.91921 0
M  V30 20 H 1.08091 0.792879 1.84535 0
M  V30 21 H 0.419952 -0.804487 1.57353 0
M  V30 22 H 1.55511 1.05625 -0.616698 0
M  V30 23 H 1.30169 -1.82809 -0.981613 0
M  V30 24 H 1.19952 -0.535472 -2.11124 0
M  V30 25 H 4.37654 0.231431 -1.18623 0
M  V30 26 H 3.21787 1.4916 1.31383 0
M  V30 END ATOM
M  V30 BEGIN BOND
M  V30 1 1 1 2
M  V30 2 1 2 3
M  V30 3 1 3 4
M  V30 4 1 4 5
M  V30 5 1 5 6
M  V30 6 1 6 7
M  V30 7 1 6 8
M  V30 8 1 8 9
M  V30 9 1 8 10
M  V30 10 2 8 11
M  V30 11 1 1 12
M  V30 12 1 1 13
M  V30 13 1 2 14
M  V30 14 1 2 15
M  V30 15 1 3 16
M  V30 16 1 3 17
M  V30 17 1 4 18
M  V30 18 1 4 19
M  V30 19 1 5 20
M  V30 20 1 5 21
M  V30 21 1 6 22
M  V30 22 1 7 23
M  V30 23 1 7 24
M  V30 24 1 9 25
M  V30 25 1 10 26
M  V30 END BOND
M  V30 END CTAB
M  END
