
     RDKit          3D

  0  0  0  0  0  0  0  0  0  0999 V3000
M  V30 BEGIN CTAB
M  V30 COUNTS 32 32 0 0 0
M  V30 BEGIN ATOM
M  V30 1 C -2.00425 0.866288 1.45647 0
M  V30 2 C -2.66004 -0.334573 0.943588 0
M  V30 3 C -2.12583 -1.05494 -0.229889 0
M  V30 4 S -0.508606 -1.71571 -0.183853 0
M  V30 5 C 0.88378 -0.678912 -0.26524 0
M  V30 6 C 0.927002 0.662181 -0.542338 0
M  V30 7 C 2.11324 1.34835 -0.538035 0
M  V30 8 C 3.2915 0.714197 -0.257691 0
M  V30 9 C 3.30262 -0.633154 0.0265659 0
M  V30 10 C 2.11403 -1.28932 0.0161871 0
M  V30 11 N 4.55441 -1.27283 0.316961 0
M  V30 12 N 4.524 1.43171 -0.255179 0
M  V30 13 C -2.45161 -0.319138 -1.54554 0
M  V30 14 C -4.10754 0.0585231 0.584502 0
M  V30 15 H -2.70302 1.33524 2.20629 0
M  V30 16 H -1.07704 0.649537 2.06174 0
M  V30 17 H -1.79569 1.6644 0.726797 0
M  V30 18 H -2.77037 -1.07524 1.76981 0
M  V30 19 H -2.80969 -1.96742 -0.322077 0
M  V30 20 H -0.00593644 1.15859 -0.784992 0
M  V30 21 H 2.13985 2.41692 -0.759211 0
M  V30 22 H 2.16572 -2.3639 0.248073 0
M  V30 23 H 5.01265 -1.76239 -0.481601 0
M  V30 24 H 5.00931 -1.27595 1.23342 0
M  V30 25 H 4.55833 2.4345 -0.522686 0
M  V30 26 H 5.39974 0.97353 0.0102988 0
M  V30 27 H -1.90646 -0.782244 -2.36814 0
M  V30 28 H -2.26223 0.761775 -1.464 0
M  V30 29 H -3.53347 -0.419471 -1.77337 0
M  V30 30 H -4.69492 0.220998 1.5238 0
M  V30 31 H -4.56595 -0.731768 -0.0466418 0
M  V30 32 H -4.01354 0.980199 -0.0197631 0
M  V30 END ATOM
M  V30 BEGIN BOND
M  V30 1 1 1 2
M  V30 2 1 2 3
M  V30 3 1 3 4
M  V30 4 1 4 5
M  V30 5 2 5 6
M  V30 6 1 6 7
M  V30 7 2 7 8
M  V30 8 1 8 9
M  V30 9 2 9 10
M  V30 10 1 9 11
M  V30 11 1 8 12
M  V30 12 1 3 13
M  V30 13 1 2 14
M  V30 14 1 10 5
M  V30 15 1 1 15
M  V30 16 1 1 16
M  V30 17 1 1 17
M  V30 18 1 2 18
M  V30 19 1 3 19
M  V30 20 1 6 20
M  V30 21 1 7 21
M  V30 22 1 10 22
M  V30 23 1 11 23
M  V30 24 1 11 24
M  V30 25 1 12 25
M  V30 26 1 12 26
M  V30 27 1 13 27
M  V30 28 1 13 28
M  V30 29 1 13 29
M  V30 30 1 14 30
M  V30 31 1 14 31
M  V30 32 1 14 32
M  V30 END BOND
M  V30 END CTAB
M  END
