
     RDKit          3D

  0  0  0  0  0  0  0  0  0  0999 V3000
M  V30 BEGIN CTAB
M  V30 COUNTS 16 15 0 0 0
M  V30 BEGIN ATOM
M  V30 1 C -1.03867 -0.236997 -0.155799 0
M  V30 2 C -0.701643 0.995547 -0.9448 0
M  V30 3 N -2.29763 -0.250957 0.488841 0
M  V30 4 C 0.122202 -0.378381 0.845822 0
M  V30 5 O -0.140874 -0.429426 2.05048 0
M  V30 6 N 1.41727 -0.442608 0.295271 0
M  V30 7 N 2.58267 -0.500412 -0.199996 0
M  V30 8 H -0.939403 -1.13047 -0.803059 0
M  V30 9 H -0.0868723 0.677773 -1.83486 0
M  V30 10 H -0.0222602 1.68655 -0.391338 0
M  V30 11 H -1.61941 1.48159 -1.30788 0
M  V30 12 H -3.04292 -0.175656 -0.239634 0
M  V30 13 H -2.44137 0.349796 1.29135 0
M  V30 14 H 1.93159 -0.539621 1.55403 0
M  V30 15 H 3.23855 0.286246 -0.199116 0
M  V30 16 H 3.03877 -1.39297 -0.449316 0
M  V30 END ATOM
M  V30 BEGIN BOND
M  V30 1 1 1 2
M  V30 2 1 1 3
M  V30 3 1 1 4
M  V30 4 2 4 5
M  V30 5 1 4 6
M  V30 6 1 6 7
M  V30 7 1 1 8
M  V30 8 1 2 9
M  V30 9 1 2 10
M  V30 10 1 2 11
M  V30 11 1 3 12
M  V30 12 1 3 13
M  V30 13 1 6 14
M  V30 14 1 7 15
M  V30 15 1 7 16
M  V30 END BOND
M  V30 END CTAB
M  END
