
     RDKit          3D

  0  0  0  0  0  0  0  0  0  0999 V3000
M  V30 BEGIN CTAB
M  V30 COUNTS 44 44 0 0 0
M  V30 BEGIN ATOM
M  V30 1 C -2.51769 2.32966 0.95048 0
M  V30 2 C -3.1445 0.988909 1.18483 0
M  V30 3 C -2.66208 0.0442567 0.106853 0
M  V30 4 N -1.20944 -0.0247796 0.219488 0
M  V30 5 C -0.414449 -0.817729 -0.64038 0
M  V30 6 O -0.876001 -1.52665 -1.5718 0
M  V30 7 C 1.04222 -0.864639 -0.497023 0
M  V30 8 C 1.85371 -1.34228 -1.50688 0
M  V30 9 C 3.21184 -1.37499 -1.32718 0
M  V30 10 C 3.8426 -0.951269 -0.173269 0
M  V30 11 C 3.01357 -0.478703 0.821151 0
M  V30 12 C 1.6242 -0.433213 0.666898 0
M  V30 13 C 5.32895 -1.00189 -0.0131052 0
M  V30 14 S 6.0254 0.538358 -0.590283 0
M  V30 15 O 7.52209 0.432271 -0.453541 0
M  V30 16 O 5.65989 0.665749 -2.0453 0
M  V30 17 N 5.42095 1.8727 0.297261 0
M  V30 18 C -3.02835 0.62368 -1.21435 0
M  V30 19 N -4.43006 0.827855 -1.41669 0
M  V30 20 C -3.20777 -1.31184 0.391263 0
M  V30 21 C -4.69565 -1.42484 0.42644 0
M  V30 22 H -3.26182 3.00208 0.439296 0
M  V30 23 H -1.5812 2.29217 0.389108 0
M  V30 24 H -2.27265 2.82956 1.93067 0
M  V30 25 H -2.73959 0.603425 2.1625 0
M  V30 26 H -4.21793 1.05717 1.29275 0
M  V30 27 H -0.735822 0.535234 0.961953 0
M  V30 28 H 1.39438 -1.67936 -2.4167 0
M  V30 29 H 3.87215 -1.7454 -2.10439 0
M  V30 30 H 3.45649 -0.130806 1.75422 0
M  V30 31 H 1.06432 -0.0521355 1.50138 0
M  V30 32 H 5.5254 -1.16572 1.05057 0
M  V30 33 H 5.67163 -1.85006 -0.639276 0
M  V30 34 H 5.33597 2.73321 -0.297046 0
M  V30 35 H 6.11752 2.12478 1.0494 0
M  V30 36 H -2.65692 0.0640603 -2.08896 0
M  V30 37 H -2.54146 1.63049 -1.27923 0
M  V30 38 H -4.86239 0.277285 -2.16098 0
M  V30 39 H -4.98384 1.0479 -0.597133 0
M  V30 40 H -2.8517 -1.57412 1.43294 0
M  V30 41 H -2.83199 -2.12789 -0.239589 0
M  V30 42 H -5.22029 -0.688211 1.04239 0
M  V30 43 H -4.92435 -2.42229 0.907751 0
M  V30 44 H -5.11534 -1.53198 -0.60531 0
M  V30 END ATOM
M  V30 BEGIN BOND
M  V30 1 1 1 2
M  V30 2 1 2 3
M  V30 3 1 3 4
M  V30 4 1 4 5
M  V30 5 2 5 6
M  V30 6 1 5 7
M  V30 7 2 7 8
M  V30 8 1 8 9
M  V30 9 2 9 10
M  V30 10 1 10 11
M  V30 11 2 11 12
M  V30 12 1 10 13
M  V30 13 1 13 14
M  V30 14 2 14 15
M  V30 15 2 14 16
M  V30 16 1 14 17
M  V30 17 1 3 18
M  V30 18 1 18 19
M  V30 19 1 3 20
M  V30 20 1 20 21
M  V30 21 1 12 7
M  V30 22 1 1 22
M  V30 23 1 1 23
M  V30 24 1 1 24
M  V30 25 1 2 25
M  V30 26 1 2 26
M  V30 27 1 4 27
M  V30 28 1 8 28
M  V30 29 1 9 29
M  V30 30 1 11 30
M  V30 31 1 12 31
M  V30 32 1 13 32
M  V30 33 1 13 33
M  V30 34 1 17 34
M  V30 35 1 17 35
M  V30 36 1 18 36
M  V30 37 1 18 37
M  V30 38 1 19 38
M  V30 39 1 19 39
M  V30 40 1 20 40
M  V30 41 1 20 41
M  V30 42 1 21 42
M  V30 43 1 21 43
M  V30 44 1 21 44
M  V30 END BOND
M  V30 END CTAB
M  END
