
     RDKit          3D

  0  0  0  0  0  0  0  0  0  0999 V3000
M  V30 BEGIN CTAB
M  V30 COUNTS 21 21 0 0 0
M  V30 BEGIN ATOM
M  V30 1 N -3.16692 0.865951 -0.168113 0
M  V30 2 C -2.97559 -0.423089 0.419004 0
M  V30 3 C -1.79458 -1.17901 -0.208642 0
M  V30 4 C -0.560148 -0.353746 0.00928448 0
M  V30 5 S -0.449199 1.15247 0.803338 0
M  V30 6 C 1.23285 1.41434 0.634222 0
M  V30 7 C 1.61255 0.286396 -0.0459081 0
M  V30 8 N 0.694861 -0.577099 -0.343349 0
M  V30 9 C 3.07241 0.092538 -0.420378 0
M  V30 10 N 3.79846 -0.556577 0.627194 0
M  V30 11 H -4.00653 0.909736 -0.754218 0
M  V30 12 H -3.13771 1.66084 0.499452 0
M  V30 13 H -2.7278 -0.293579 1.51121 0
M  V30 14 H -3.88167 -1.01849 0.366211 0
M  V30 15 H -1.73786 -2.157 0.265396 0
M  V30 16 H -1.96759 -1.2452 -1.29893 0
M  V30 17 H 1.86476 2.25459 0.971891 0
M  V30 18 H 3.15012 -0.556671 -1.3237 0
M  V30 19 H 3.52118 1.06064 -0.645225 0
M  V30 20 H 3.35513 -1.41249 0.990773 0
M  V30 21 H 4.10326 0.0754506 1.39215 0
M  V30 END ATOM
M  V30 BEGIN BOND
M  V30 1 1 1 2
M  V30 2 1 2 3
M  V30 3 1 3 4
M  V30 4 1 4 5
M  V30 5 1 5 6
M  V30 6 2 6 7
M  V30 7 1 7 8
M  V30 8 1 7 9
M  V30 9 1 9 10
M  V30 10 2 8 4
M  V30 11 1 1 11
M  V30 12 1 1 12
M  V30 13 1 2 13
M  V30 14 1 2 14
M  V30 15 1 3 15
M  V30 16 1 3 16
M  V30 17 1 6 17
M  V30 18 1 9 18
M  V30 19 1 9 19
M  V30 20 1 10 20
M  V30 21 1 10 21
M  V30 END BOND
M  V30 END CTAB
M  END
