
     RDKit          3D

  0  0  0  0  0  0  0  0  0  0999 V3000
M  V30 BEGIN CTAB
M  V30 COUNTS 45 48 0 0 0
M  V30 BEGIN ATOM
M  V30 1 N 8.13071 -2.9508 -0.363875 0
M  V30 2 C 7.70561 -1.74788 0.282876 0
M  V30 3 N 8.58979 -1.04828 0.88807 0
M  V30 4 C 6.29133 -1.4085 0.203946 0
M  V30 5 C 5.41909 -2.22667 -0.472715 0
M  V30 6 C 4.09061 -1.93005 -0.559483 0
M  V30 7 C 3.61631 -0.76708 0.0562524 0
M  V30 8 C 4.46438 0.0730042 0.741369 0
M  V30 9 C 5.80059 -0.269652 0.801554 0
M  V30 10 C 2.19159 -0.489624 -0.0617576 0
M  V30 11 C 1.55357 0.177698 0.957452 0
M  V30 12 C 0.192359 0.45121 0.861677 0
M  V30 13 C -0.525297 0.0597395 -0.246212 0
M  V30 14 C 0.0874589 -0.609753 -1.28162 0
M  V30 15 C 1.4527 -0.88149 -1.1804 0
M  V30 16 C -1.94603 0.352068 -0.328661 0
M  V30 17 C -2.70238 1.01017 0.6349 0
M  V30 18 N -3.96265 1.07512 0.175856 0
M  V30 19 C -5.08355 1.60679 0.71605 0
M  V30 20 C -6.29531 1.57706 0.0899265 0
M  V30 21 C -6.3598 0.968367 -1.15862 0
M  V30 22 C -5.24459 0.413825 -1.7471 0
M  V30 23 C -4.04935 0.491611 -1.03256 0
M  V30 24 N -2.80992 0.0558738 -1.32524 0
M  V30 25 C -7.51347 2.14125 0.652026 0
M  V30 26 N -8.72698 2.07362 -0.0613348 0
M  V30 27 N -7.53691 2.71772 1.80472 0
M  V30 28 H 9.01908 -2.90903 -0.901555 0
M  V30 29 H 7.56331 -3.81425 -0.286832 0
M  V30 30 H 8.44133 -0.175037 1.38999 0
M  V30 31 H 5.76197 -3.14859 -0.967693 0
M  V30 32 H 3.42128 -2.58808 -1.09707 0
M  V30 33 H 4.05921 0.959559 1.20185 0
M  V30 34 H 6.50475 0.367993 1.33381 0
M  V30 35 H 2.11509 0.483046 1.82194 0
M  V30 36 H -0.308957 0.974895 1.66149 0
M  V30 37 H -0.45638 -0.917954 -2.14405 0
M  V30 38 H 1.96198 -1.40522 -1.97703 0
M  V30 39 H -2.31815 1.39846 1.59132 0
M  V30 40 H -5.00405 2.07409 1.689 0
M  V30 41 H -7.28783 0.910176 -1.70926 0
M  V30 42 H -5.23095 -0.069461 -2.70726 0
M  V30 43 H -9.26459 2.93657 -0.233873 0
M  V30 44 H -9.0711 1.1652 -0.406524 0
M  V30 45 H -6.73586 2.84227 2.43567 0
M  V30 END ATOM
M  V30 BEGIN BOND
M  V30 1 1 1 2
M  V30 2 2 2 3 CFG=2
M  V30 3 1 2 4
M  V30 4 2 4 5
M  V30 5 1 5 6
M  V30 6 2 6 7
M  V30 7 1 7 8
M  V30 8 2 8 9
M  V30 9 1 7 10
M  V30 10 2 10 11
M  V30 11 1 11 12
M  V30 12 2 12 13
M  V30 13 1 13 14
M  V30 14 2 14 15
M  V30 15 1 13 16
M  V30 16 2 16 17
M  V30 17 1 17 18
M  V30 18 1 18 19
M  V30 19 2 19 20
M  V30 20 1 20 21
M  V30 21 2 21 22
M  V30 22 1 22 23
M  V30 23 2 23 24
M  V30 24 1 20 25
M  V30 25 1 25 26
M  V30 26 2 25 27 CFG=2
M  V30 27 1 9 4
M  V30 28 1 15 10
M  V30 29 1 24 16
M  V30 30 1 23 18
M  V30 31 1 1 28
M  V30 32 1 1 29
M  V30 33 1 3 30
M  V30 34 1 5 31
M  V30 35 1 6 32
M  V30 36 1 8 33
M  V30 37 1 9 34
M  V30 38 1 11 35
M  V30 39 1 12 36
M  V30 40 1 14 37
M  V30 41 1 15 38
M  V30 42 1 17 39
M  V30 43 1 19 40
M  V30 44 1 21 41
M  V30 45 1 22 42
M  V30 46 1 26 43
M  V30 47 1 26 44
M  V30 48 1 27 45
M  V30 END BOND
M  V30 END CTAB
M  END
