
     RDKit          3D

  0  0  0  0  0  0  0  0  0  0999 V3000
M  V30 BEGIN CTAB
M  V30 COUNTS 20 20 0 0 0
M  V30 BEGIN ATOM
M  V30 1 N -2.20787 -0.813028 -0.282925 0
M  V30 2 C -1.09941 -0.217873 0.351445 0
M  V30 3 N 0.158448 -0.292672 -0.109778 0
M  V30 4 C 1.20848 0.280327 0.505637 0
M  V30 5 O 2.4536 0.121822 -0.083906 0
M  V30 6 C 2.66871 -0.592419 -1.26705 0
M  V30 7 C 1.85964 0.0763645 -2.31578 0
M  V30 8 C 1.19222 0.615435 -3.15587 0
M  V30 9 C 0.993475 0.972682 1.65438 0
M  V30 10 N -0.271139 1.07275 2.15724 0
M  V30 11 C -1.30916 0.487314 1.51896 0
M  V30 12 N -2.64147 0.585613 2.03753 0
M  V30 13 H -2.40901 -1.81323 -0.133019 0
M  V30 14 H -2.82363 -0.259338 -0.89798 0
M  V30 15 H 2.37336 -1.65168 -1.15348 0
M  V30 16 H 3.73016 -0.553574 -1.56423 0
M  V30 17 H 0.613268 1.08468 -3.90445 0
M  V30 18 H 1.81322 1.44074 2.16747 0
M  V30 19 H -3.33146 1.25906 1.64713 0
M  V30 20 H -2.97143 -0.0161082 2.82867 0
M  V30 END ATOM
M  V30 BEGIN BOND
M  V30 1 1 1 2
M  V30 2 2 2 3
M  V30 3 1 3 4
M  V30 4 1 4 5
M  V30 5 1 5 6
M  V30 6 1 6 7
M  V30 7 3 7 8
M  V30 8 2 4 9
M  V30 9 1 9 10
M  V30 10 2 10 11
M  V30 11 1 11 12
M  V30 12 1 11 2
M  V30 13 1 1 13
M  V30 14 1 1 14
M  V30 15 1 6 15
M  V30 16 1 6 16
M  V30 17 1 8 17
M  V30 18 1 9 18
M  V30 19 1 12 19
M  V30 20 1 12 20
M  V30 END BOND
M  V30 END CTAB
M  END
