
     RDKit          3D

  0  0  0  0  0  0  0  0  0  0999 V3000
M  V30 BEGIN CTAB
M  V30 COUNTS 22 23 0 0 0
M  V30 BEGIN ATOM
M  V30 1 Br 5.54322 -0.583723 -0.282214 0
M  V30 2 C 3.65516 -0.317854 -0.160929 0
M  V30 3 C 2.99048 -0.330402 1.04907 0
M  V30 4 C 1.6129 -0.131589 1.08434 0
M  V30 5 C 0.870432 0.081329 -0.0598124 0
M  V30 6 N 1.5513 0.0871572 -1.22201 0
M  V30 7 C 2.88482 -0.102565 -1.28622 0
M  V30 8 N -0.553763 0.285667 -0.00995234 0
M  V30 9 N -1.20486 1.37432 0.339601 0
M  V30 10 C -2.53221 1.23093 0.276451 0
M  V30 11 C -2.7387 -0.0820814 -0.157147 0
M  V30 12 C -1.48097 -0.624915 -0.320147 0
M  V30 13 N -1.22014 -1.96544 -0.757117 0
M  V30 14 N -3.55602 2.16998 0.57237 0
M  V30 15 H 3.54631 -0.494881 1.96166 0
M  V30 16 H 1.06658 -0.136319 2.01736 0
M  V30 17 H 3.42046 -0.0942298 -2.24164 0
M  V30 18 H -3.7155 -0.526699 -0.314961 0
M  V30 19 H -1.05341 -2.13031 -1.76797 0
M  V30 20 H -1.19931 -2.75857 -0.066758 0
M  V30 21 H -4.07417 2.63055 -0.200059 0
M  V30 22 H -3.8126 2.41964 1.54609 0
M  V30 END ATOM
M  V30 BEGIN BOND
M  V30 1 1 1 2
M  V30 2 2 2 3
M  V30 3 1 3 4
M  V30 4 2 4 5
M  V30 5 1 5 6
M  V30 6 2 6 7
M  V30 7 1 5 8
M  V30 8 1 8 9
M  V30 9 2 9 10
M  V30 10 1 10 11
M  V30 11 2 11 12
M  V30 12 1 12 13
M  V30 13 1 10 14
M  V30 14 1 7 2
M  V30 15 1 12 8
M  V30 16 1 3 15
M  V30 17 1 4 16
M  V30 18 1 7 17
M  V30 19 1 11 18
M  V30 20 1 13 19
M  V30 21 1 13 20
M  V30 22 1 14 21
M  V30 23 1 14 22
M  V30 END BOND
M  V30 END CTAB
M  END
