
     RDKit          3D

  0  0  0  0  0  0  0  0  0  0999 V3000
M  V30 BEGIN CTAB
M  V30 COUNTS 70 75 0 0 0
M  V30 BEGIN ATOM
M  V30 1 N -8.34956 3.89835 -1.25805 0
M  V30 2 C -7.14792 3.73731 -0.428621 0
M  V30 3 N -6.31232 2.72059 -0.554667 0
M  V30 4 C -5.29016 2.46966 0.243812 0
M  V30 5 C -5.06891 3.34768 1.26981 0
M  V30 6 N -4.0971 2.8782 2.06854 0
M  V30 7 C -3.73895 1.72663 1.50349 0
M  V30 8 N -4.37778 1.42168 0.392944 0
M  V30 9 C -4.26076 0.443575 -0.646047 0 CFG=1
M  V30 10 C -2.83209 0.565303 -1.21469 0
M  V30 11 C -2.19745 -0.582859 -0.410272 0 CFG=2
M  V30 12 O -0.991844 -0.992949 -1.04475 0
M  V30 13 P 0.191017 -0.703003 0.0984892 0
M  V30 14 O -0.323327 -0.231044 1.57972 0
M  V30 15 O 1.05442 0.515003 -0.448759 0
M  V30 16 O 1.25821 -2.00376 0.226472 0
M  V30 17 C 2.16249 -1.62746 1.35835 0
M  V30 18 C 3.44581 -1.58442 0.678317 0 CFG=1
M  V30 19 O 4.58782 -0.950279 1.23025 0
M  V30 20 C 5.16304 -0.701231 -0.011415 0 CFG=2
M  V30 21 C 5.20072 -2.09248 -0.687075 0
M  V30 22 C 4.10855 -2.84514 0.171715 0 CFG=2
M  V30 23 O 3.38385 -3.62504 -0.679886 0
M  V30 24 N 6.43815 -0.120787 -0.0319552 0
M  V30 25 C 7.63766 -0.763 0.0777472 0
M  V30 26 N 8.56801 0.131052 -0.0368592 0
M  V30 27 C 8.10216 1.34287 -0.204554 0
M  V30 28 C 6.71596 1.20332 -0.206218 0
M  V30 29 N 5.67739 2.27726 -0.323817 0
M  V30 30 C 6.44233 3.4295 -0.477875 0
M  V30 31 N 7.6938 3.6385 -0.485136 0
M  V30 32 C 8.45713 2.65409 -0.342253 0
M  V30 33 N 9.91235 2.88056 0.0467008 0
M  V30 34 C -3.24638 -1.58523 -0.53265 0 CFG=1
M  V30 35 C -3.2707 -2.85022 0.244077 0
M  V30 36 O -3.87263 -3.78836 -0.657959 0
M  V30 37 P -5.198 -4.55192 -0.112967 0
M  V30 38 O -5.15007 -6.20177 -0.0358497 0
M  V30 39 O -6.41824 -4.11216 -1.30334 0
M  V30 40 O -5.66364 -3.95007 1.22355 0
M  V30 41 O -4.44246 -0.881073 -0.341852 0
M  V30 42 C -5.90131 4.44103 1.43096 0
M  V30 43 O -5.6585 5.24269 2.36243 0
M  V30 44 N -6.9487 4.62059 0.571851 0
M  V30 45 H -9.11185 3.18528 -1.19042 0
M  V30 46 H -8.48595 4.703 -1.88713 0
M  V30 47 H -3.01846 1.01445 1.99923 0
M  V30 48 H -5.00587 0.641674 -1.4647 0
M  V30 49 H -2.38109 1.54077 -1.03735 0
M  V30 50 H -2.87733 0.252233 -2.29579 0
M  V30 51 H -2.05395 -0.303343 0.620721 0
M  V30 52 H 0.15081 0.579964 1.95896 0
M  V30 53 H 2.06931 -2.57091 1.99221 0
M  V30 54 H 1.7272 -0.755776 1.83152 0
M  V30 55 H 3.26967 -0.96749 -0.305961 0
M  V30 56 H 4.42899 -0.0481586 -0.607098 0
M  V30 57 H 6.13208 -2.58898 -0.556686 0
M  V30 58 H 4.76644 -1.99235 -1.7001 0
M  V30 59 H 4.71191 -3.3482 0.94924 0
M  V30 60 H 3.85221 -3.68909 -1.57284 0
M  V30 61 H 7.65761 -1.82214 0.268576 0
M  V30 62 H 5.69976 4.32117 -0.51044 0
M  V30 63 H 10.2636 2.28537 0.88583 0
M  V30 64 H 10.3748 3.61393 -0.478689 0
M  V30 65 H -3.32224 -1.85195 -1.67516 0
M  V30 66 H -2.19527 -3.1806 0.387839 0
M  V30 67 H -3.7548 -2.90244 1.18304 0
M  V30 68 H -4.88604 -6.50827 0.899256 0
M  V30 69 H -5.86393 -3.87373 -2.12149 0
M  V30 70 H -7.58976 5.4244 0.712337 0
M  V30 END ATOM
M  V30 BEGIN BOND
M  V30 1 1 1 2
M  V30 2 2 2 3
M  V30 3 1 3 4
M  V30 4 2 4 5
M  V30 5 1 5 6
M  V30 6 2 6 7
M  V30 7 1 7 8
M  V30 8 1 8 9
M  V30 9 1 9 10
M  V30 10 1 10 11
M  V30 11 1 11 12
M  V30 12 1 12 13
M  V30 13 1 13 14
M  V30 14 2 13 15
M  V30 15 1 13 16
M  V30 16 1 16 17
M  V30 17 1 17 18
M  V30 18 1 18 19
M  V30 19 1 19 20
M  V30 20 1 20 21
M  V30 21 1 21 22
M  V30 22 1 22 23
M  V30 23 1 20 24
M  V30 24 1 24 25
M  V30 25 2 25 26
M  V30 26 1 26 27
M  V30 27 2 27 28
M  V30 28 1 28 29
M  V30 29 2 29 30
M  V30 30 1 30 31
M  V30 31 2 31 32
M  V30 32 1 32 33
M  V30 33 1 11 34
M  V30 34 1 34 35
M  V30 35 1 35 36
M  V30 36 1 36 37
M  V30 37 1 37 38
M  V30 38 1 37 39
M  V30 39 2 37 40
M  V30 40 1 34 41
M  V30 41 1 5 42
M  V30 42 2 42 43
M  V30 43 1 42 44
M  V30 44 1 44 2
M  V30 45 1 8 4
M  V30 46 1 41 9
M  V30 47 1 22 18
M  V30 48 1 28 24
M  V30 49 1 32 27
M  V30 50 1 1 45
M  V30 51 1 1 46
M  V30 52 1 7 47
M  V30 53 1 9 48 CFG=3
M  V30 54 1 10 49
M  V30 55 1 10 50
M  V30 56 1 11 51 CFG=1
M  V30 57 1 14 52
M  V30 58 1 17 53
M  V30 59 1 17 54
M  V30 60 1 18 55 CFG=3
M  V30 61 1 20 56 CFG=3
M  V30 62 1 21 57
M  V30 63 1 21 58
M  V30 64 1 22 59 CFG=1
M  V30 65 1 23 60
M  V30 66 1 25 61
M  V30 67 1 30 62
M  V30 68 1 33 63
M  V30 69 1 33 64
M  V30 70 1 34 65 CFG=3
M  V30 71 1 35 66
M  V30 72 1 35 67
M  V30 73 1 38 68
M  V30 74 1 39 69
M  V30 75 1 44 70
M  V30 END BOND
M  V30 END CTAB
M  END
