
     RDKit          3D

  0  0  0  0  0  0  0  0  0  0999 V3000
M  V30 BEGIN CTAB
M  V30 COUNTS 29 31 0 0 0
M  V30 BEGIN ATOM
M  V30 1 N 7.03852 1.47776 -0.707459 0
M  V30 2 C 5.87973 1.51871 -0.710754 0
M  V30 3 N 4.48179 1.57578 -0.720873 0
M  V30 4 C 3.80918 0.546134 -0.33346 0
M  V30 5 C 2.3269 0.621494 -0.349701 0
M  V30 6 S 1.32677 1.91778 -0.822872 0
M  V30 7 C -0.190802 1.20125 -0.545002 0
M  V30 8 C 0.122332 -0.0418783 -0.0861394 0
M  V30 9 C 1.44082 -0.347917 0.0170416 0
M  V30 10 N 1.96151 -1.62902 0.48838 0
M  V30 11 C -0.986348 -0.855648 0.224516 0
M  V30 12 C -2.26263 -0.360955 0.0509561 0
M  V30 13 C -2.53301 0.897532 -0.413816 0
M  V30 14 N -1.46515 1.66555 -0.707242 0
M  V30 15 C -3.99237 1.15371 -0.494968 0
M  V30 16 C -4.5528 0.140477 0.499895 0
M  V30 17 C -3.60958 -1.00281 0.296946 0
M  V30 18 N 4.48944 -0.599816 0.086375 0
M  V30 19 H 2.50016 -1.70668 1.35999 0
M  V30 20 H 1.78678 -2.49236 -0.0678005 0
M  V30 21 H -0.859617 -1.86526 0.598161 0
M  V30 22 H -4.39704 0.932392 -1.49396 0
M  V30 23 H -4.26038 2.17428 -0.192205 0
M  V30 24 H -5.55892 -0.173106 0.13856 0
M  V30 25 H -4.59074 0.529938 1.52104 0
M  V30 26 H -3.54662 -1.69533 1.16031 0
M  V30 27 H -3.8733 -1.50867 -0.653065 0
M  V30 28 H 4.70353 -0.695263 1.11615 0
M  V30 29 H 4.81182 -1.37808 -0.510762 0
M  V30 END ATOM
M  V30 BEGIN BOND
M  V30 1 3 1 2
M  V30 2 1 2 3
M  V30 3 2 3 4
M  V30 4 1 4 5
M  V30 5 1 5 6
M  V30 6 1 6 7
M  V30 7 2 7 8
M  V30 8 1 8 9
M  V30 9 1 9 10
M  V30 10 1 8 11
M  V30 11 2 11 12
M  V30 12 1 12 13
M  V30 13 2 13 14
M  V30 14 1 13 15
M  V30 15 1 15 16
M  V30 16 1 16 17
M  V30 17 1 4 18
M  V30 18 2 9 5
M  V30 19 1 17 12
M  V30 20 1 14 7
M  V30 21 1 10 19
M  V30 22 1 10 20
M  V30 23 1 11 21
M  V30 24 1 15 22
M  V30 25 1 15 23
M  V30 26 1 16 24
M  V30 27 1 16 25
M  V30 28 1 17 26
M  V30 29 1 17 27
M  V30 30 1 18 28
M  V30 31 1 18 29
M  V30 END BOND
M  V30 END CTAB
M  END
