
     RDKit          3D

  0  0  0  0  0  0  0  0  0  0999 V3000
M  V30 BEGIN CTAB
M  V30 COUNTS 26 26 0 0 0
M  V30 BEGIN ATOM
M  V30 1 C 4.66133 -0.0451173 0.0724011 0
M  V30 2 O 3.3133 0.367877 0.0378835 0
M  V30 3 C 2.28906 -0.565071 0.0912542 0
M  V30 4 O 2.62957 -1.77177 0.170356 0
M  V30 5 C 0.881371 -0.188018 0.0586695 0
M  V30 6 C 0.495075 1.119 -0.0271213 0
M  V30 7 C -0.833664 1.47863 -0.0581168 0
M  V30 8 N -1.18794 2.84723 -0.147644 0
M  V30 9 C -1.84744 0.50256 -0.00192188 0
M  V30 10 C -1.41835 -0.80346 0.0840634 0
M  V30 11 C -0.0802863 -1.17351 0.115781 0
M  V30 12 N 0.302189 -2.55488 0.206301 0
M  V30 13 O -3.17129 0.899626 -0.0352782 0
M  V30 14 C -4.28078 0.0502257 0.0122597 0
M  V30 15 F -5.07884 0.312344 1.13316 0
M  V30 16 F -5.09188 0.234759 -1.12175 0
M  V30 17 H 4.93493 -0.388931 1.09479 0
M  V30 18 H 4.80061 -0.924237 -0.58901 0
M  V30 19 H 5.35158 0.732439 -0.285473 0
M  V30 20 H 1.26156 1.9013 -0.0724371 0
M  V30 21 H -2.07113 3.12871 -0.604529 0
M  V30 22 H -0.575879 3.58512 0.238644 0
M  V30 23 H -2.13848 -1.60704 0.13102 0
M  V30 24 H 0.620959 -2.9121 1.109 0
M  V30 25 H 0.266349 -3.20155 -0.610695 0
M  V30 26 H -4.03193 -1.02414 0.0824414 0
M  V30 END ATOM
M  V30 BEGIN BOND
M  V30 1 1 1 2
M  V30 2 1 2 3
M  V30 3 2 3 4
M  V30 4 1 3 5
M  V30 5 2 5 6
M  V30 6 1 6 7
M  V30 7 1 7 8
M  V30 8 2 7 9
M  V30 9 1 9 10
M  V30 10 2 10 11
M  V30 11 1 11 12
M  V30 12 1 9 13
M  V30 13 1 13 14
M  V30 14 1 14 15
M  V30 15 1 14 16
M  V30 16 1 11 5
M  V30 17 1 1 17
M  V30 18 1 1 18
M  V30 19 1 1 19
M  V30 20 1 6 20
M  V30 21 1 8 21
M  V30 22 1 8 22
M  V30 23 1 10 23
M  V30 24 1 12 24
M  V30 25 1 12 25
M  V30 26 1 14 26
M  V30 END BOND
M  V30 END CTAB
M  END
