
     RDKit          3D

  0  0  0  0  0  0  0  0  0  0999 V3000
M  V30 BEGIN CTAB
M  V30 COUNTS 48 50 0 0 0
M  V30 BEGIN ATOM
M  V30 1 N 5.62266 0.315452 -2.20941 0
M  V30 2 C 6.88148 -0.381921 -2.03035 0
M  V30 3 C 7.17926 -0.505692 -0.530256 0
M  V30 4 C 6.03821 -1.28694 0.0810765 0
M  V30 5 S 5.86972 -2.97131 0.297935 0
M  V30 6 C 4.33039 -2.9829 1.03856 0
M  V30 7 C 4.02784 -1.64029 1.07562 0
M  V30 8 N 4.90724 -0.826569 0.587395 0
M  V30 9 C 2.72819 -1.16793 1.66206 0
M  V30 10 O 1.92949 -2.00006 2.11302 0
M  V30 11 N 2.49595 0.230329 1.6608 0
M  V30 12 C 1.38442 0.973289 2.1037 0
M  V30 13 C 0.137228 0.883508 1.34937 0
M  V30 14 C -0.494097 -0.448112 1.1679 0
M  V30 15 C -1.80293 -0.16021 0.433825 0
M  V30 16 N -2.99834 0.0968692 0.947787 0
M  V30 17 N -3.90084 0.301041 0.0112292 0
M  V30 18 C -3.27868 0.174221 -1.1733 0
M  V30 19 C -1.9323 -0.121595 -0.928787 0
M  V30 20 N -3.85038 0.308855 -2.46193 0
M  V30 21 C -5.29293 0.603792 0.168285 0
M  V30 22 C -5.76124 1.90278 0.169332 0
M  V30 23 C -7.1172 2.19407 0.322462 0
M  V30 24 C -8.02934 1.1712 0.478194 0
M  V30 25 C -7.57244 -0.128089 0.478556 0
M  V30 26 C -6.22407 -0.401899 0.325596 0
M  V30 27 H 5.69217 0.912628 -3.05555 0
M  V30 28 H 5.4099 0.931475 -1.40373 0
M  V30 29 H 7.66866 0.200337 -2.50894 0
M  V30 30 H 6.81346 -1.39009 -2.45716 0
M  V30 31 H 8.07271 -1.1567 -0.414442 0
M  V30 32 H 7.2869 0.476734 -0.0597992 0
M  V30 33 H 3.72089 -3.83044 1.39982 0
M  V30 34 H 3.30291 0.847585 1.2486 0
M  V30 35 H 1.19301 0.636438 3.17897 0
M  V30 36 H 1.68324 2.06008 2.20481 0
M  V30 37 H 0.277481 1.30231 0.296313 0
M  V30 38 H -0.665808 1.55254 1.82738 0
M  V30 39 H -0.746472 -0.909185 2.1141 0
M  V30 40 H 0.0688812 -1.1006 0.446449 0
M  V30 41 H -1.1677 -0.282909 -1.66676 0
M  V30 42 H -3.84312 -0.520101 -3.08947 0
M  V30 43 H -4.27808 1.18741 -2.82058 0
M  V30 44 H -5.05142 2.69942 0.0481101 0
M  V30 45 H -7.4851 3.21119 0.32343 0
M  V30 46 H -9.09085 1.3914 0.598414 0
M  V30 47 H -8.29256 -0.92204 0.600914 0
M  V30 48 H -5.8464 -1.42936 0.323881 0
M  V30 END ATOM
M  V30 BEGIN BOND
M  V30 1 1 1 2
M  V30 2 1 2 3
M  V30 3 1 3 4
M  V30 4 1 4 5
M  V30 5 1 5 6
M  V30 6 2 6 7
M  V30 7 1 7 8
M  V30 8 1 7 9
M  V30 9 2 9 10
M  V30 10 1 9 11
M  V30 11 1 11 12
M  V30 12 1 12 13
M  V30 13 1 13 14
M  V30 14 1 14 15
M  V30 15 2 15 16
M  V30 16 1 16 17
M  V30 17 1 17 18
M  V30 18 2 18 19
M  V30 19 1 18 20
M  V30 20 1 17 21
M  V30 21 2 21 22
M  V30 22 1 22 23
M  V30 23 2 23 24
M  V30 24 1 24 25
M  V30 25 2 25 26
M  V30 26 2 8 4
M  V30 27 1 19 15
M  V30 28 1 26 21
M  V30 29 1 1 27
M  V30 30 1 1 28
M  V30 31 1 2 29
M  V30 32 1 2 30
M  V30 33 1 3 31
M  V30 34 1 3 32
M  V30 35 1 6 33
M  V30 36 1 11 34
M  V30 37 1 12 35
M  V30 38 1 12 36
M  V30 39 1 13 37
M  V30 40 1 13 38
M  V30 41 1 14 39
M  V30 42 1 14 40
M  V30 43 1 19 41
M  V30 44 1 20 42
M  V30 45 1 20 43
M  V30 46 1 22 44
M  V30 47 1 23 45
M  V30 48 1 24 46
M  V30 49 1 25 47
M  V30 50 1 26 48
M  V30 END BOND
M  V30 END CTAB
M  END
