
     RDKit          3D

  0  0  0  0  0  0  0  0  0  0999 V3000
M  V30 BEGIN CTAB
M  V30 COUNTS 37 36 0 0 0
M  V30 BEGIN ATOM
M  V30 1 N -1.36861 -1.33099 2.6117 0
M  V30 2 C -0.270414 -0.682709 1.97844 0
M  V30 3 C -0.376109 -0.730016 0.487287 0
M  V30 4 N 0.723659 -0.0731951 -0.134799 0
M  V30 5 C 2.09948 -0.431477 0.026379 0
M  V30 6 O 2.44776 -1.37741 0.743697 0
M  V30 7 C 3.13319 0.340053 -0.675732 0 CFG=1
M  V30 8 N 4.43807 -0.184505 -0.376572 0
M  V30 9 C 2.87469 0.448766 -2.16521 0
M  V30 10 C -1.67393 -0.314916 -0.0605756 0
M  V30 11 C -2.22523 1.01814 0.223266 0
M  V30 12 C -3.5938 1.05169 -0.514995 0
M  V30 13 C -1.51027 2.21963 -0.286402 0
M  V30 14 C -0.279974 -2.27024 0.181447 0
M  V30 15 H -1.22625 -1.42358 3.58659 0
M  V30 16 H -2.23496 -1.16072 2.26686 0
M  V30 17 H 0.613333 -1.27601 2.28323 0
M  V30 18 H -0.154982 0.320679 2.39907 0
M  V30 19 H 0.520403 0.731878 -0.781225 0
M  V30 20 H 3.10231 1.38315 -0.281088 0
M  V30 21 H 4.75349 -0.918688 -1.047 0
M  V30 22 H 5.15896 0.560659 -0.240005 0
M  V30 23 H 2.55 -0.509926 -2.5914 0
M  V30 24 H 2.1351 1.27565 -2.32924 0
M  V30 25 H 3.81945 0.738418 -2.658 0
M  V30 26 H -1.68063 -0.428166 -1.19462 0
M  V30 27 H -2.46554 -1.07364 0.241789 0
M  V30 28 H -2.53957 1.13475 1.29688 0
M  V30 29 H -4.31613 0.408985 0.0253583 0
M  V30 30 H -3.38915 0.598459 -1.50911 0
M  V30 31 H -3.9233 2.07837 -0.673981 0
M  V30 32 H -0.611722 2.52568 0.245685 0
M  V30 33 H -1.31551 2.09174 -1.37453 0
M  V30 34 H -2.23533 3.08654 -0.136762 0
M  V30 35 H -1.29524 -2.6435 0.423609 0
M  V30 36 H -0.0949665 -2.43523 -0.876229 0
M  V30 37 H 0.411752 -2.74831 0.886182 0
M  V30 END ATOM
M  V30 BEGIN BOND
M  V30 1 1 1 2
M  V30 2 1 2 3
M  V30 3 1 3 4
M  V30 4 1 4 5
M  V30 5 2 5 6
M  V30 6 1 5 7
M  V30 7 1 7 8
M  V30 8 1 7 9
M  V30 9 1 3 10
M  V30 10 1 10 11
M  V30 11 1 11 12
M  V30 12 1 11 13
M  V30 13 1 3 14
M  V30 14 1 1 15
M  V30 15 1 1 16
M  V30 16 1 2 17
M  V30 17 1 2 18
M  V30 18 1 4 19
M  V30 19 1 7 20 CFG=1
M  V30 20 1 8 21
M  V30 21 1 8 22
M  V30 22 1 9 23
M  V30 23 1 9 24
M  V30 24 1 9 25
M  V30 25 1 10 26
M  V30 26 1 10 27
M  V30 27 1 11 28
M  V30 28 1 12 29
M  V30 29 1 12 30
M  V30 30 1 12 31
M  V30 31 1 13 32
M  V30 32 1 13 33
M  V30 33 1 13 34
M  V30 34 1 14 35
M  V30 35 1 14 36
M  V30 36 1 14 37
M  V30 END BOND
M  V30 END CTAB
M  END
