
     RDKit          3D

  0  0  0  0  0  0  0  0  0  0999 V3000
M  V30 BEGIN CTAB
M  V30 COUNTS 55 57 0 0 0
M  V30 BEGIN ATOM
M  V30 1 C -1.61138 -3.21572 -0.579813 0
M  V30 2 C -2.24606 -2.01142 0.0799336 0
M  V30 3 C -1.54566 -0.732942 -0.346247 0
M  V30 4 N -2.16298 0.400807 0.2952 0
M  V30 5 C -1.8501 1.04899 1.41159 0
M  V30 6 S -0.560242 1.01082 2.56768 0
M  V30 7 C 0.816717 0.011505 2.44482 0
M  V30 8 C 1.78922 0.252792 1.33879 0
M  V30 9 O 1.54017 1.15998 0.540768 0
M  V30 10 N 2.93447 -0.546674 1.24424 0
M  V30 11 C 3.97322 -0.523411 0.318601 0
M  V30 12 C 4.04179 0.29008 -0.77683 0
M  V30 13 C 5.14028 0.247241 -1.65949 0
M  V30 14 C 6.17931 -0.609929 -1.45326 0
M  V30 15 C 6.12705 -1.42944 -0.364293 0
M  V30 16 C 5.06444 -1.38345 0.483754 0
M  V30 17 S 7.56061 -0.686818 -2.53162 0
M  V30 18 O 8.13366 -2.08162 -2.44036 0
M  V30 19 O 7.17911 -0.448972 -3.94176 0
M  V30 20 N 8.73034 0.432137 -1.96493 0
M  V30 21 C 0.486147 -1.45481 2.62608 0
M  V30 22 N -2.84599 2.00577 1.55916 0
M  V30 23 C -3.71696 1.93993 0.577696 0
M  V30 24 C -3.31218 0.92894 -0.245901 0
M  V30 25 C -4.05101 0.633334 -1.37648 0
M  V30 26 C -5.19396 1.33503 -1.69933 0
M  V30 27 C -5.59222 2.34068 -0.875622 0
M  V30 28 C -4.86386 2.63455 0.24198 0
M  V30 29 S -7.05112 3.23652 -1.29083 0
M  V30 30 O -7.23259 3.25633 -2.78628 0
M  V30 31 O -6.97885 4.64207 -0.798148 0
M  V30 32 N -8.44952 2.49436 -0.602707 0
M  V30 33 H -0.696259 -3.51039 -0.0310446 0
M  V30 34 H -2.29827 -4.05819 -0.643085 0
M  V30 35 H -1.33077 -2.96196 -1.6364 0
M  V30 36 H -3.31425 -1.96381 -0.280353 0
M  V30 37 H -2.23166 -2.0672 1.1811 0
M  V30 38 H -0.465921 -0.801405 -0.283762 0
M  V30 39 H -1.75579 -0.669756 -1.46038 0
M  V30 40 H 1.46604 0.215322 3.40242 0
M  V30 41 H 3.00969 -1.30297 2.02652 0
M  V30 42 H 3.24583 0.988611 -0.992501 0
M  V30 43 H 5.13647 0.914951 -2.50692 0
M  V30 44 H 6.96914 -2.11652 -0.207036 0
M  V30 45 H 5.0743 -2.04915 1.32467 0
M  V30 46 H 9.00622 0.198278 -0.999039 0
M  V30 47 H 8.34072 1.39433 -1.94556 0
M  V30 48 H 1.13492 -1.96605 3.33709 0
M  V30 49 H -0.604582 -1.58418 2.86965 0
M  V30 50 H 0.608508 -1.92437 1.60697 0
M  V30 51 H -3.71202 -0.181331 -2.02642 0
M  V30 52 H -5.77097 1.09386 -2.59435 0
M  V30 53 H -5.19092 3.43234 0.883687 0
M  V30 54 H -8.80973 1.70532 -1.21664 0
M  V30 55 H -8.24256 2.03763 0.322732 0
M  V30 END ATOM
M  V30 BEGIN BOND
M  V30 1 1 1 2
M  V30 2 1 2 3
M  V30 3 1 3 4
M  V30 4 1 4 5
M  V30 5 1 5 6
M  V30 6 1 6 7
M  V30 7 1 7 8
M  V30 8 2 8 9
M  V30 9 1 8 10
M  V30 10 1 10 11
M  V30 11 2 11 12
M  V30 12 1 12 13
M  V30 13 2 13 14
M  V30 14 1 14 15
M  V30 15 2 15 16
M  V30 16 1 14 17
M  V30 17 2 17 18
M  V30 18 2 17 19
M  V30 19 1 17 20
M  V30 20 1 7 21
M  V30 21 2 5 22
M  V30 22 1 22 23
M  V30 23 2 23 24
M  V30 24 1 24 25
M  V30 25 2 25 26
M  V30 26 1 26 27
M  V30 27 2 27 28
M  V30 28 1 27 29
M  V30 29 2 29 30
M  V30 30 2 29 31
M  V30 31 1 29 32
M  V30 32 1 24 4
M  V30 33 1 16 11
M  V30 34 1 28 23
M  V30 35 1 1 33
M  V30 36 1 1 34
M  V30 37 1 1 35
M  V30 38 1 2 36
M  V30 39 1 2 37
M  V30 40 1 3 38
M  V30 41 1 3 39
M  V30 42 1 7 40
M  V30 43 1 10 41
M  V30 44 1 12 42
M  V30 45 1 13 43
M  V30 46 1 15 44
M  V30 47 1 16 45
M  V30 48 1 20 46
M  V30 49 1 20 47
M  V30 50 1 21 48
M  V30 51 1 21 49
M  V30 52 1 21 50
M  V30 53 1 25 51
M  V30 54 1 26 52
M  V30 55 1 28 53
M  V30 56 1 32 54
M  V30 57 1 32 55
M  V30 END BOND
M  V30 END CTAB
M  END
