
     RDKit          3D

  0  0  0  0  0  0  0  0  0  0999 V3000
M  V30 BEGIN CTAB
M  V30 COUNTS 31 33 0 0 0
M  V30 BEGIN ATOM
M  V30 1 N -5.30863 0.0142836 -0.798004 0
M  V30 2 C -4.69529 0.516486 0.390373 0
M  V30 3 N -5.40804 1.4796 1.16349 0
M  V30 4 N -3.5193 0.122554 0.779282 0
M  V30 5 C -2.85098 -0.83741 -0.0248454 0
M  V30 6 O -3.47688 -1.7261 -0.633107 0
M  V30 7 C -1.37676 -0.756431 -0.12446 0
M  V30 8 C -0.680907 0.225737 0.547274 0
M  V30 9 C 0.682149 0.331134 0.478414 0
M  V30 10 C 1.38978 -0.571521 -0.286309 0
M  V30 11 C 0.695399 -1.56885 -0.969746 0
M  V30 12 C -0.677437 -1.66805 -0.895099 0
M  V30 13 C 2.81844 -0.275074 -0.216881 0
M  V30 14 C 3.92551 -0.893217 -0.808668 0
M  V30 15 C 5.20383 -0.423276 -0.590696 0
M  V30 16 Cl 6.59711 -1.19918 -1.33391 0
M  V30 17 C 5.34112 0.677763 0.232647 0
M  V30 18 C 4.25522 1.29316 0.820028 0
M  V30 19 C 2.96807 0.819608 0.600272 0
M  V30 20 C 1.66173 1.25387 1.07385 0
M  V30 21 O 1.38454 2.20828 1.83089 0
M  V30 22 H -5.07159 0.482157 -1.70202 0
M  V30 23 H -5.96401 -0.793975 -0.715292 0
M  V30 24 H -5.4427 2.46372 0.833911 0
M  V30 25 H -5.87043 1.15344 2.03758 0
M  V30 26 H -1.22585 0.951296 1.15936 0
M  V30 27 H 1.2948 -2.26269 -1.56363 0
M  V30 28 H -1.18174 -2.45329 -1.43784 0
M  V30 29 H 3.80788 -1.74867 -1.44716 0
M  V30 30 H 6.35018 1.03906 0.39735 0
M  V30 31 H 4.37478 2.1456 1.45602 0
M  V30 END ATOM
M  V30 BEGIN BOND
M  V30 1 1 1 2
M  V30 2 1 2 3
M  V30 3 2 2 4
M  V30 4 1 4 5
M  V30 5 2 5 6
M  V30 6 1 5 7
M  V30 7 2 7 8
M  V30 8 1 8 9
M  V30 9 2 9 10
M  V30 10 1 10 11
M  V30 11 2 11 12
M  V30 12 1 10 13
M  V30 13 2 13 14
M  V30 14 1 14 15
M  V30 15 1 15 16
M  V30 16 2 15 17
M  V30 17 1 17 18
M  V30 18 2 18 19
M  V30 19 1 19 20
M  V30 20 2 20 21
M  V30 21 1 12 7
M  V30 22 1 19 13
M  V30 23 1 20 9
M  V30 24 1 1 22
M  V30 25 1 1 23
M  V30 26 1 3 24
M  V30 27 1 3 25
M  V30 28 1 8 26
M  V30 29 1 11 27
M  V30 30 1 12 28
M  V30 31 1 14 29
M  V30 32 1 17 30
M  V30 33 1 18 31
M  V30 END BOND
M  V30 END CTAB
M  END
