
     RDKit          3D

  0  0  0  0  0  0  0  0  0  0999 V3000
M  V30 BEGIN CTAB
M  V30 COUNTS 57 60 0 0 0
M  V30 BEGIN ATOM
M  V30 1 N 9.2366 -0.680412 0.802336 0
M  V30 2 C 7.86773 -1.01172 0.598039 0
M  V30 3 N 7.17838 -0.563727 -0.471846 0
M  V30 4 C 5.8701 -0.888549 -0.650323 0
M  V30 5 S 4.94395 -0.32552 -2.05235 0
M  V30 6 C 4.15176 1.27777 -1.78724 0
M  V30 7 C 3.074 1.17957 -0.762669 0
M  V30 8 O 3.35529 1.25104 0.431285 0
M  V30 9 C 1.67108 0.997319 -1.16096 0
M  V30 10 C 1.15887 0.926794 -2.43905 0
M  V30 11 C -0.206841 0.768669 -2.35561 0
M  V30 12 N -0.490778 0.74641 -1.04564 0
M  V30 13 C 0.616936 0.880727 -0.290715 0
M  V30 14 C 0.71262 0.899367 1.21264 0
M  V30 15 C -1.77912 0.612361 -0.473964 0
M  V30 16 C -2.41925 1.64083 0.187812 0
M  V30 17 C -1.97671 3.04686 0.446397 0
M  V30 18 N -3.59645 1.12953 0.58811 0
M  V30 19 N -3.69536 -0.140279 0.203664 0
M  V30 20 C -2.58202 -0.501561 -0.462504 0
M  V30 21 O -2.3469 -1.64671 -0.967113 0
M  V30 22 C -4.80155 -0.989294 0.456936 0
M  V30 23 C -5.90847 -0.97185 -0.360532 0
M  V30 24 C -6.99564 -1.7899 -0.122488 0
M  V30 25 C -6.99527 -2.64826 0.946969 0
M  V30 26 C -5.89744 -2.68724 1.78375 0
M  V30 27 C -4.81432 -1.86221 1.53481 0
M  V30 28 C -4.6185 1.86918 1.34118 0
M  V30 29 C -1.15654 0.652048 -3.51964 0
M  V30 30 N 5.30951 -1.66815 0.282636 0
M  V30 31 C 5.96009 -2.13481 1.36145 0
M  V30 32 N 7.24897 -1.80224 1.5173 0
M  V30 33 N 5.34109 -2.97655 2.35169 0
M  V30 34 H 9.83036 -0.349129 0.0126931 0
M  V30 35 H 9.67175 -0.759089 1.73613 0
M  V30 36 H 3.75509 1.62325 -2.7509 0
M  V30 37 H 4.9394 1.976 -1.40372 0
M  V30 38 H 1.75111 0.986641 -3.36674 0
M  V30 39 H -0.264396 0.671423 1.67051 0
M  V30 40 H 1.41181 0.104667 1.57931 0
M  V30 41 H 1.15826 1.86149 1.54033 0
M  V30 42 H -1.63488 3.16246 1.5142 0
M  V30 43 H -2.83729 3.75617 0.361677 0
M  V30 44 H -1.22694 3.3908 -0.287501 0
M  V30 45 H -5.96377 -0.301733 -1.23743 0
M  V30 46 H -7.84268 -1.72429 -0.812366 0
M  V30 47 H -7.86186 -3.28359 1.11602 0
M  V30 48 H -5.92945 -3.37183 2.61266 0
M  V30 49 H -3.98112 -1.92746 2.21918 0
M  V30 50 H -4.68828 2.88024 0.936617 0
M  V30 51 H -5.58554 1.35879 1.31305 0
M  V30 52 H -4.25982 1.86224 2.39381 0
M  V30 53 H -2.11109 1.19284 -3.32918 0
M  V30 54 H -0.71438 1.19604 -4.41022 0
M  V30 55 H -1.26882 -0.377281 -3.85618 0
M  V30 56 H 5.11023 -2.5425 3.27293 0
M  V30 57 H 5.12647 -3.97565 2.17399 0
M  V30 END ATOM
M  V30 BEGIN BOND
M  V30 1 1 1 2
M  V30 2 2 2 3
M  V30 3 1 3 4
M  V30 4 1 4 5
M  V30 5 1 5 6
M  V30 6 1 6 7
M  V30 7 2 7 8
M  V30 8 1 7 9
M  V30 9 1 9 10
M  V30 10 2 10 11
M  V30 11 1 11 12
M  V30 12 1 12 13
M  V30 13 1 13 14
M  V30 14 1 12 15
M  V30 15 2 15 16
M  V30 16 1 16 17
M  V30 17 1 16 18
M  V30 18 1 18 19
M  V30 19 1 19 20
M  V30 20 2 20 21
M  V30 21 1 19 22
M  V30 22 2 22 23
M  V30 23 1 23 24
M  V30 24 2 24 25
M  V30 25 1 25 26
M  V30 26 2 26 27
M  V30 27 1 18 28
M  V30 28 1 11 29
M  V30 29 2 4 30
M  V30 30 1 30 31
M  V30 31 2 31 32
M  V30 32 1 31 33
M  V30 33 1 32 2
M  V30 34 2 13 9
M  V30 35 1 20 15
M  V30 36 1 27 22
M  V30 37 1 1 34
M  V30 38 1 1 35
M  V30 39 1 6 36
M  V30 40 1 6 37
M  V30 41 1 10 38
M  V30 42 1 14 39
M  V30 43 1 14 40
M  V30 44 1 14 41
M  V30 45 1 17 42
M  V30 46 1 17 43
M  V30 47 1 17 44
M  V30 48 1 23 45
M  V30 49 1 24 46
M  V30 50 1 25 47
M  V30 51 1 26 48
M  V30 52 1 27 49
M  V30 53 1 28 50
M  V30 54 1 28 51
M  V30 55 1 28 52
M  V30 56 1 29 53
M  V30 57 1 29 54
M  V30 58 1 29 55
M  V30 59 1 33 56
M  V30 60 1 33 57
M  V30 END BOND
M  V30 END CTAB
M  END
