
     RDKit          3D

  0  0  0  0  0  0  0  0  0  0999 V3000
M  V30 BEGIN CTAB
M  V30 COUNTS 31 32 0 0 0
M  V30 BEGIN ATOM
M  V30 1 N 4.00039 -0.798213 -0.700095 0
M  V30 2 C 3.46383 0.368236 -0.0594699 0
M  V30 3 C 2.61108 1.2132 -0.958564 0
M  V30 4 C 1.17507 0.856339 -0.647363 0
M  V30 5 C 1.17708 0.220506 0.712549 0
M  V30 6 C 2.60386 -0.0329977 1.09632 0
M  V30 7 C 0.341299 -1.0437 0.749036 0
M  V30 8 C -1.06029 -0.686222 0.385605 0
M  V30 9 N -2.12937 -1.49928 0.294547 0
M  V30 10 N -3.19855 -0.814319 -0.0533875 0
M  V30 11 C -2.86233 0.481278 -0.203057 0
M  V30 12 N -1.53249 0.533559 0.0746606 0
M  V30 13 N -3.6768 1.57517 -0.566228 0
M  V30 14 C -4.56701 -1.28677 -0.267378 0
M  V30 15 H 3.27479 -1.55255 -0.748869 0
M  V30 16 H 4.31037 -0.612528 -1.67959 0
M  V30 17 H 4.33734 0.973715 0.321383 0
M  V30 18 H 2.79918 1.01155 -2.03716 0
M  V30 19 H 2.80219 2.27344 -0.697443 0
M  V30 20 H 0.593366 1.82353 -0.657772 0
M  V30 21 H 0.746683 0.177532 -1.40552 0
M  V30 22 H 0.74572 0.966342 1.4339 0
M  V30 23 H 2.6973 -1.11843 1.35102 0
M  V30 24 H 2.88807 0.542268 2.00309 0
M  V30 25 H 0.416641 -1.52335 1.72735 0
M  V30 26 H 0.7131 -1.69611 -0.0718759 0
M  V30 27 H -4.11431 1.59696 -1.49651 0
M  V30 28 H -3.82774 2.34287 0.100609 0
M  V30 29 H -5.09931 -1.21673 0.714599 0
M  V30 30 H -5.08602 -0.694237 -1.05048 0
M  V30 31 H -4.54315 -2.38106 -0.510764 0
M  V30 END ATOM
M  V30 BEGIN BOND
M  V30 1 1 1 2
M  V30 2 1 2 3
M  V30 3 1 3 4
M  V30 4 1 4 5
M  V30 5 1 5 6
M  V30 6 1 5 7
M  V30 7 1 7 8
M  V30 8 2 8 9
M  V30 9 1 9 10
M  V30 10 1 10 11
M  V30 11 2 11 12
M  V30 12 1 11 13
M  V30 13 1 10 14
M  V30 14 1 6 2
M  V30 15 1 12 8
M  V30 16 1 1 15
M  V30 17 1 1 16
M  V30 18 1 2 17
M  V30 19 1 3 18
M  V30 20 1 3 19
M  V30 21 1 4 20
M  V30 22 1 4 21
M  V30 23 1 5 22
M  V30 24 1 6 23
M  V30 25 1 6 24
M  V30 26 1 7 25
M  V30 27 1 7 26
M  V30 28 1 13 27
M  V30 29 1 13 28
M  V30 30 1 14 29
M  V30 31 1 14 30
M  V30 32 1 14 31
M  V30 END BOND
M  V30 END CTAB
M  END
