
     RDKit          3D

  0  0  0  0  0  0  0  0  0  0999 V3000
M  V30 BEGIN CTAB
M  V30 COUNTS 17 17 0 0 0
M  V30 BEGIN ATOM
M  V30 1 N 1.33653 0.453339 -1.31144 0
M  V30 2 C 0.627951 0.321422 -0.0335597 0 CFG=2
M  V30 3 C 1.20764 -0.81014 0.699506 0
M  V30 4 S -0.172029 -1.94323 0.999753 0
M  V30 5 C -1.35256 -1.11897 -0.124766 0
M  V30 6 C -0.793965 0.236416 -0.249262 0 CFG=1
M  V30 7 N -1.53121 1.11909 0.66995 0
M  V30 8 H 2.22364 -0.0893143 -1.32239 0
M  V30 9 H 1.4982 1.45466 -1.55281 0
M  V30 10 H 0.880418 1.27172 0.523178 0
M  V30 11 H 1.64159 -0.540076 1.68406 0
M  V30 12 H 1.98651 -1.37327 0.119234 0
M  V30 13 H -1.44275 -1.64462 -1.0874 0
M  V30 14 H -2.33376 -1.13771 0.383152 0
M  V30 15 H -1.05675 0.631358 -1.27471 0
M  V30 16 H -1.13548 1.09018 1.61786 0
M  V30 17 H -1.58397 2.07914 0.259645 0
M  V30 END ATOM
M  V30 BEGIN BOND
M  V30 1 1 1 2
M  V30 2 1 2 3
M  V30 3 1 3 4
M  V30 4 1 4 5
M  V30 5 1 5 6
M  V30 6 1 6 7
M  V30 7 1 6 2
M  V30 8 1 1 8
M  V30 9 1 1 9
M  V30 10 1 2 10 CFG=1
M  V30 11 1 3 11
M  V30 12 1 3 12
M  V30 13 1 5 13
M  V30 14 1 5 14
M  V30 15 1 6 15 CFG=3
M  V30 16 1 7 16
M  V30 17 1 7 17
M  V30 END BOND
M  V30 END CTAB
M  END
