
     RDKit          3D

  0  0  0  0  0  0  0  0  0  0999 V3000
M  V30 BEGIN CTAB
M  V30 COUNTS 40 41 0 0 0
M  V30 BEGIN ATOM
M  V30 1 C -2.51637 -2.08146 2.08021 0
M  V30 2 C -2.86175 -0.870918 1.29036 0
M  V30 3 C -4.1462 -0.378888 1.30027 0
M  V30 4 C -4.41256 0.745251 0.551145 0
M  V30 5 C -3.43966 1.37942 -0.196778 0
M  V30 6 C -2.12384 0.893024 -0.220402 0
M  V30 7 C -1.87158 -0.226526 0.530303 0
M  V30 8 N -1.19997 1.60757 -0.989862 0
M  V30 9 S -0.0938972 1.07422 -2.13905 0
M  V30 10 O -0.864614 0.438269 -3.26945 0
M  V30 11 O 0.687956 2.25056 -2.68766 0
M  V30 12 C 1.10041 -0.0332576 -1.50064 0
M  V30 13 C 1.03243 -1.3944 -1.69364 0
M  V30 14 C 1.99992 -2.2122 -1.16806 0
M  V30 15 C 3.07172 -1.74039 -0.434252 0
M  V30 16 C 3.13629 -0.378585 -0.243355 0
M  V30 17 C 2.1727 0.446865 -0.765604 0
M  V30 18 S 4.48412 0.25264 0.683627 0
M  V30 19 O 4.40058 -0.334472 2.06116 0
M  V30 20 O 5.74039 -0.200399 0.0425154 0
M  V30 21 N 4.41251 1.95741 0.825509 0
M  V30 22 N 4.05876 -2.62923 0.0958939 0
M  V30 23 C -3.73622 2.59338 -1.00336 0
M  V30 24 H -3.13814 -2.91557 1.6422 0
M  V30 25 H -2.73187 -1.94096 3.1599 0
M  V30 26 H -1.47324 -2.35259 1.86481 0
M  V30 27 H -4.87557 -0.905919 1.89848 0
M  V30 28 H -5.4309 1.14466 0.552523 0
M  V30 29 H -0.869298 -0.606566 0.537754 0
M  V30 30 H -1.21475 2.67526 -0.799891 0
M  V30 31 H 0.208818 -1.79465 -2.26165 0
M  V30 32 H 1.9663 -3.30993 -1.31022 0
M  V30 33 H 2.22863 1.52249 -0.611665 0
M  V30 34 H 3.69253 2.26453 1.50313 0
M  V30 35 H 5.32624 2.41544 0.914413 0
M  V30 36 H 4.03817 -2.79907 1.12329 0
M  V30 37 H 4.7844 -3.10844 -0.474847 0
M  V30 38 H -3.10275 3.4474 -0.763265 0
M  V30 39 H -4.82905 2.81966 -0.89619 0
M  V30 40 H -3.61065 2.28637 -2.07395 0
M  V30 END ATOM
M  V30 BEGIN BOND
M  V30 1 1 1 2
M  V30 2 2 2 3
M  V30 3 1 3 4
M  V30 4 2 4 5
M  V30 5 1 5 6
M  V30 6 2 6 7
M  V30 7 1 6 8
M  V30 8 1 8 9
M  V30 9 2 9 10
M  V30 10 2 9 11
M  V30 11 1 9 12
M  V30 12 2 12 13
M  V30 13 1 13 14
M  V30 14 2 14 15
M  V30 15 1 15 16
M  V30 16 2 16 17
M  V30 17 1 16 18
M  V30 18 2 18 19
M  V30 19 2 18 20
M  V30 20 1 18 21
M  V30 21 1 15 22
M  V30 22 1 5 23
M  V30 23 1 7 2
M  V30 24 1 17 12
M  V30 25 1 1 24
M  V30 26 1 1 25
M  V30 27 1 1 26
M  V30 28 1 3 27
M  V30 29 1 4 28
M  V30 30 1 7 29
M  V30 31 1 8 30
M  V30 32 1 13 31
M  V30 33 1 14 32
M  V30 34 1 17 33
M  V30 35 1 21 34
M  V30 36 1 21 35
M  V30 37 1 22 36
M  V30 38 1 22 37
M  V30 39 1 23 38
M  V30 40 1 23 39
M  V30 41 1 23 40
M  V30 END BOND
M  V30 END CTAB
M  END
