
     RDKit          3D

  0  0  0  0  0  0  0  0  0  0999 V3000
M  V30 BEGIN CTAB
M  V30 COUNTS 58 59 0 0 0
M  V30 BEGIN ATOM
M  V30 1 C -5.69412 -3.88598 -1.41079 0
M  V30 2 O -4.3437 -3.57677 -1.04024 0
M  V30 3 C -3.9673 -2.2606 -0.831373 0
M  V30 4 O -4.8133 -1.35868 -0.96941 0
M  V30 5 C -2.56624 -1.93617 -0.446691 0
M  V30 6 C -2.335 -0.472616 -0.248362 0
M  V30 7 C -0.902525 -0.237378 0.149093 0
M  V30 8 C 0.0169725 -0.731711 -0.925606 0
M  V30 9 C 1.46283 -0.452571 -0.506945 0
M  V30 10 C 2.42692 -0.9384 -1.56901 0
M  V30 11 C 3.79677 -0.626192 -1.07749 0
M  V30 12 C 4.39923 0.579159 -1.3719 0
M  V30 13 C 5.6642 0.87163 -0.919802 0
M  V30 14 C 6.3935 -0.0270485 -0.148847 0
M  V30 15 N 7.70298 0.299269 0.308235 0
M  V30 16 C 8.24726 1.54646 -0.0309938 0
M  V30 17 N 8.25502 2.60199 0.918017 0
M  V30 18 N 8.7393 1.72889 -1.20654 0
M  V30 19 C 5.79421 -1.23019 0.145964 0
M  V30 20 C 4.52553 -1.51285 -0.312547 0
M  V30 21 C -3.27525 0.127639 0.742805 0
M  V30 22 C -3.46677 -0.383511 1.99415 0
M  V30 23 C -4.33967 0.200037 2.89507 0
M  V30 24 C -5.03995 1.32757 2.53081 0
M  V30 25 C -4.87398 1.87899 1.26759 0
M  V30 26 C -3.99688 1.2717 0.39685 0
M  V30 27 C -5.62833 3.06952 0.915223 0
M  V30 28 N -6.52474 3.65595 1.86161 0
M  V30 29 N -5.54235 3.64459 -0.215849 0
M  V30 30 H -6.03775 -4.75824 -0.80806 0
M  V30 31 H -6.36707 -3.04286 -1.13063 0
M  V30 32 H -5.78568 -4.10655 -2.47623 0
M  V30 33 H -1.91276 -2.26718 -1.29783 0
M  V30 34 H -2.30671 -2.51951 0.448909 0
M  V30 35 H -2.46453 0.0712078 -1.22196 0
M  V30 36 H -0.684159 -0.829449 1.06811 0
M  V30 37 H -0.710761 0.84851 0.322037 0
M  V30 38 H -0.0275335 -1.83669 -1.09064 0
M  V30 39 H -0.131442 -0.253476 -1.90686 0
M  V30 40 H 1.63753 0.622152 -0.348496 0
M  V30 41 H 1.71185 -0.980913 0.428794 0
M  V30 42 H 2.37566 -2.04692 -1.68555 0
M  V30 43 H 2.28238 -0.426452 -2.53212 0
M  V30 44 H 3.8743 1.33063 -1.97681 0
M  V30 45 H 6.14915 1.83268 -1.15239 0
M  V30 46 H 8.19715 -0.423648 0.883578 0
M  V30 47 H 8.30785 2.42293 1.94163 0
M  V30 48 H 8.20729 3.59099 0.603959 0
M  V30 49 H 8.75143 0.985779 -1.92282 0
M  V30 50 H 6.36377 -1.94017 0.751941 0
M  V30 51 H 4.10641 -2.48233 -0.0451217 0
M  V30 52 H -2.93503 -1.25982 2.30393 0
M  V30 53 H -4.47502 -0.22947 3.8919 0
M  V30 54 H -5.73885 1.81686 3.21581 0
M  V30 55 H -3.85325 1.68348 -0.588496 0
M  V30 56 H -6.46936 4.67324 2.11749 0
M  V30 57 H -7.24328 3.02901 2.29292 0
M  V30 58 H -4.93617 3.32348 -0.980034 0
M  V30 END ATOM
M  V30 BEGIN BOND
M  V30 1 1 1 2
M  V30 2 1 2 3
M  V30 3 2 3 4
M  V30 4 1 3 5
M  V30 5 1 5 6
M  V30 6 1 6 7
M  V30 7 1 7 8
M  V30 8 1 8 9
M  V30 9 1 9 10
M  V30 10 1 10 11
M  V30 11 2 11 12
M  V30 12 1 12 13
M  V30 13 2 13 14
M  V30 14 1 14 15
M  V30 15 1 15 16
M  V30 16 1 16 17
M  V30 17 2 16 18 CFG=2
M  V30 18 1 14 19
M  V30 19 2 19 20
M  V30 20 1 6 21
M  V30 21 2 21 22
M  V30 22 1 22 23
M  V30 23 2 23 24
M  V30 24 1 24 25
M  V30 25 2 25 26
M  V30 26 1 25 27
M  V30 27 1 27 28
M  V30 28 2 27 29 CFG=2
M  V30 29 1 20 11
M  V30 30 1 26 21
M  V30 31 1 1 30
M  V30 32 1 1 31
M  V30 33 1 1 32
M  V30 34 1 5 33
M  V30 35 1 5 34
M  V30 36 1 6 35
M  V30 37 1 7 36
M  V30 38 1 7 37
M  V30 39 1 8 38
M  V30 40 1 8 39
M  V30 41 1 9 40
M  V30 42 1 9 41
M  V30 43 1 10 42
M  V30 44 1 10 43
M  V30 45 1 12 44
M  V30 46 1 13 45
M  V30 47 1 15 46
M  V30 48 1 17 47
M  V30 49 1 17 48
M  V30 50 1 18 49
M  V30 51 1 19 50
M  V30 52 1 20 51
M  V30 53 1 22 52
M  V30 54 1 23 53
M  V30 55 1 24 54
M  V30 56 1 26 55
M  V30 57 1 28 56
M  V30 58 1 28 57
M  V30 59 1 29 58
M  V30 END BOND
M  V30 END CTAB
M  END
