
     RDKit          3D

  0  0  0  0  0  0  0  0  0  0999 V3000
M  V30 BEGIN CTAB
M  V30 COUNTS 28 28 0 0 0
M  V30 BEGIN ATOM
M  V30 1 C 2.99963 1.30302 -0.490662 0
M  V30 2 C 1.81763 0.354163 -0.596492 0
M  V30 3 C 1.40192 -0.14168 0.768449 0
M  V30 4 C 0.241195 -1.03929 0.758648 0
M  V30 5 C -1.02894 -0.575048 0.253937 0
M  V30 6 C -1.34855 -0.789825 -1.06893 0
M  V30 7 C -2.56303 -0.353289 -1.61212 0
M  V30 8 N -3.4352 0.289804 -0.821155 0
M  V30 9 C -3.18433 0.530705 0.477399 0
M  V30 10 C -1.98581 0.0931141 0.988451 0
M  V30 11 N -4.12059 1.21594 1.30881 0
M  V30 12 O 2.51276 -0.81401 1.294 0
M  V30 13 N 2.21845 -0.738249 -1.43181 0
M  V30 14 H 2.67821 2.3267 -0.247887 0
M  V30 15 H 3.43767 1.35648 -1.53018 0
M  V30 16 H 3.78926 0.939961 0.163992 0
M  V30 17 H 0.990458 0.894811 -1.09621 0
M  V30 18 H 1.2988 0.73118 1.46727 0
M  V30 19 H 0.0533324 -1.45413 1.79487 0
M  V30 20 H 0.52472 -1.97102 0.181171 0
M  V30 21 H -0.692049 -1.31043 -1.76403 0
M  V30 22 H -2.78656 -0.539415 -2.66697 0
M  V30 23 H -1.76895 0.277126 2.02404 0
M  V30 24 H -4.85125 1.82725 0.883493 0
M  V30 25 H -4.076 1.10664 2.34461 0
M  V30 26 H 2.44056 -1.7608 1.00468 0
M  V30 27 H 2.91907 -1.36357 -0.982472 0
M  V30 28 H 2.51757 -0.396136 -2.36279 0
M  V30 END ATOM
M  V30 BEGIN BOND
M  V30 1 1 1 2
M  V30 2 1 2 3
M  V30 3 1 3 4
M  V30 4 1 4 5
M  V30 5 2 5 6
M  V30 6 1 6 7
M  V30 7 2 7 8
M  V30 8 1 8 9
M  V30 9 2 9 10
M  V30 10 1 9 11
M  V30 11 1 3 12
M  V30 12 1 2 13
M  V30 13 1 10 5
M  V30 14 1 1 14
M  V30 15 1 1 15
M  V30 16 1 1 16
M  V30 17 1 2 17
M  V30 18 1 3 18
M  V30 19 1 4 19
M  V30 20 1 4 20
M  V30 21 1 6 21
M  V30 22 1 7 22
M  V30 23 1 10 23
M  V30 24 1 11 24
M  V30 25 1 11 25
M  V30 26 1 12 26
M  V30 27 1 13 27
M  V30 28 1 13 28
M  V30 END BOND
M  V30 END CTAB
M  END
