
     RDKit          3D

  0  0  0  0  0  0  0  0  0  0999 V3000
M  V30 BEGIN CTAB
M  V30 COUNTS 37 38 0 0 0
M  V30 BEGIN ATOM
M  V30 1 N -4.95307 1.12092 0.396485 0
M  V30 2 C -4.48737 -0.222649 0.106173 0
M  V30 3 C -3.09656 -0.140641 -0.470823 0
M  V30 4 C -2.53711 -1.50777 -0.802041 0
M  V30 5 C -1.08306 -1.23424 -1.21927 0
M  V30 6 C -0.345137 -0.948544 0.0578966 0
M  V30 7 N -1.1069 -0.145806 0.981984 0
M  V30 8 C -2.1435 0.631142 0.371418 0
M  V30 9 C 1.02185 -0.441439 -0.169457 0
M  V30 10 C 1.77221 -0.0445164 0.91745 0
M  V30 11 C 3.05781 0.439453 0.77607 0
M  V30 12 C 3.64974 0.548125 -0.455514 0
M  V30 13 C 2.91162 0.15496 -1.55248 0
M  V30 14 C 1.61493 -0.333016 -1.40821 0
M  V30 15 C 5.02838 1.0609 -0.670482 0
M  V30 16 N 5.65863 1.42567 0.566483 0
M  V30 17 H -5.83564 1.11156 0.953846 0
M  V30 18 H -5.12395 1.63699 -0.494608 0
M  V30 19 H -5.16075 -0.608046 -0.712628 0
M  V30 20 H -4.56952 -0.895334 0.958361 0
M  V30 21 H -3.17621 0.397922 -1.45993 0
M  V30 22 H -3.02949 -1.95376 -1.68955 0
M  V30 23 H -2.59191 -2.13544 0.0861153 0
M  V30 24 H -1.13328 -0.36361 -1.897 0
M  V30 25 H -0.662156 -2.1399 -1.68144 0
M  V30 26 H -0.227191 -1.95316 0.564094 0
M  V30 27 H -1.48906 -0.681155 1.78901 0
M  V30 28 H -1.65806 1.4797 -0.186428 0
M  V30 29 H -2.71867 1.11581 1.18787 0
M  V30 30 H 1.32814 -0.119633 1.9069 0
M  V30 31 H 3.62423 0.743508 1.64189 0
M  V30 32 H 3.3179 0.214137 -2.55531 0
M  V30 33 H 1.07365 -0.627095 -2.27151 0
M  V30 34 H 5.67551 0.266068 -1.14283 0
M  V30 35 H 5.03332 1.90545 -1.39485 0
M  V30 36 H 5.71543 0.549011 1.15596 0
M  V30 37 H 6.64524 1.69444 0.364714 0
M  V30 END ATOM
M  V30 BEGIN BOND
M  V30 1 1 1 2
M  V30 2 1 2 3
M  V30 3 1 3 4
M  V30 4 1 4 5
M  V30 5 1 5 6
M  V30 6 1 6 7
M  V30 7 1 7 8
M  V30 8 1 6 9
M  V30 9 2 9 10
M  V30 10 1 10 11
M  V30 11 2 11 12
M  V30 12 1 12 13
M  V30 13 2 13 14
M  V30 14 1 12 15
M  V30 15 1 15 16
M  V30 16 1 8 3
M  V30 17 1 14 9
M  V30 18 1 1 17
M  V30 19 1 1 18
M  V30 20 1 2 19
M  V30 21 1 2 20
M  V30 22 1 3 21
M  V30 23 1 4 22
M  V30 24 1 4 23
M  V30 25 1 5 24
M  V30 26 1 5 25
M  V30 27 1 6 26
M  V30 28 1 7 27
M  V30 29 1 8 28
M  V30 30 1 8 29
M  V30 31 1 10 30
M  V30 32 1 11 31
M  V30 33 1 13 32
M  V30 34 1 14 33
M  V30 35 1 15 34
M  V30 36 1 15 35
M  V30 37 1 16 36
M  V30 38 1 16 37
M  V30 END BOND
M  V30 END CTAB
M  END
