
     RDKit          3D

  0  0  0  0  0  0  0  0  0  0999 V3000
M  V30 BEGIN CTAB
M  V30 COUNTS 29 31 0 0 0
M  V30 BEGIN ATOM
M  V30 1 N 2.48215 -1.76295 -2.15662 0
M  V30 2 C 2.50558 -0.937224 -1.0019 0
M  V30 3 C 3.74032 -0.648308 -0.446815 0
M  V30 4 C 3.84596 0.144242 0.671832 0
M  V30 5 C 2.67449 0.636368 1.21413 0
M  V30 6 C 1.42779 0.367154 0.685062 0
M  V30 7 C 1.36014 -0.42679 -0.430856 0
M  V30 8 C 0.050378 -0.735224 -1.02239 0
M  V30 9 O 0.0268592 -1.46667 -2.04568 0
M  V30 10 C -1.18791 -0.217321 -0.452347 0
M  V30 11 C -1.11931 0.591059 0.683832 0
M  V30 12 C -2.30105 1.06924 1.20547 0
M  V30 13 N -2.25854 1.89499 2.3627 0
M  V30 14 C -3.53878 0.778827 0.647981 0
M  V30 15 C -3.60124 -0.0255278 -0.481817 0
M  V30 16 C -2.417 -0.508231 -1.00946 0
M  V30 17 O -2.46213 -1.31477 -2.14017 0
M  V30 18 C 0.18943 0.878185 1.24551 0
M  V30 19 O 0.259226 1.60917 2.27388 0
M  V30 20 H 2.22713 -2.7738 -2.05465 0
M  V30 21 H 2.70697 -1.41696 -3.11257 0
M  V30 22 H 4.66664 -1.03359 -0.870234 0
M  V30 23 H 4.82657 0.370502 1.10821 0
M  V30 24 H 2.7394 1.26311 2.09649 0
M  V30 25 H -2.05107 1.42806 3.26398 0
M  V30 26 H -2.43634 2.92094 2.25083 0
M  V30 27 H -4.47022 1.14808 1.04845 0
M  V30 28 H -4.54827 -0.276876 -0.949008 0
M  V30 29 H -3.33716 -1.55571 -2.58386 0
M  V30 END ATOM
M  V30 BEGIN BOND
M  V30 1 1 1 2
M  V30 2 2 2 3
M  V30 3 1 3 4
M  V30 4 2 4 5
M  V30 5 1 5 6
M  V30 6 2 6 7
M  V30 7 1 7 8
M  V30 8 2 8 9
M  V30 9 1 8 10
M  V30 10 2 10 11
M  V30 11 1 11 12
M  V30 12 1 12 13
M  V30 13 2 12 14
M  V30 14 1 14 15
M  V30 15 2 15 16
M  V30 16 1 16 17
M  V30 17 1 11 18
M  V30 18 2 18 19
M  V30 19 1 7 2
M  V30 20 1 16 10
M  V30 21 1 18 6
M  V30 22 1 1 20
M  V30 23 1 1 21
M  V30 24 1 3 22
M  V30 25 1 4 23
M  V30 26 1 5 24
M  V30 27 1 13 25
M  V30 28 1 13 26
M  V30 29 1 14 27
M  V30 30 1 15 28
M  V30 31 1 17 29
M  V30 END BOND
M  V30 END CTAB
M  END
