
     RDKit          3D

  0  0  0  0  0  0  0  0  0  0999 V3000
M  V30 BEGIN CTAB
M  V30 COUNTS 37 38 0 0 0
M  V30 BEGIN ATOM
M  V30 1 C 0.190969 0.0624228 -1.40861 0
M  V30 2 N 0.0312108 0.0119765 0.0247316 0
M  V30 3 C -1.27829 0.382088 0.485675 0
M  V30 4 C -2.38806 -0.467028 0.107721 0
M  V30 5 C -2.29126 -1.62475 -0.622323 0
M  V30 6 C -3.43014 -2.39051 -0.925526 0
M  V30 7 C -4.67503 -1.99439 -0.494193 0
M  V30 8 C -4.77501 -0.831744 0.239917 0
M  V30 9 C -3.65033 -0.087767 0.5315 0
M  V30 10 C -3.80222 1.13807 1.3123 0
M  V30 11 C 0.953674 0.953721 0.622885 0
M  V30 12 C 2.36822 0.68028 0.346107 0
M  V30 13 N 2.74312 -0.410384 -0.318012 0
M  V30 14 C 4.06208 -0.66119 -0.573918 0
M  V30 15 N 4.48089 -1.82092 -1.28181 0
M  V30 16 N 4.96637 0.230445 -0.132345 0
M  V30 17 C 4.61532 1.34028 0.540889 0
M  V30 18 N 3.29854 1.53949 0.766677 0
M  V30 19 N 5.58653 2.26076 0.993579 0
M  V30 20 H 0.919297 0.834637 -1.67219 0
M  V30 21 H -0.790579 0.206175 -1.9103 0
M  V30 22 H 0.652116 -0.910439 -1.72713 0
M  V30 23 H -1.44545 1.46616 0.278944 0
M  V30 24 H -1.19536 0.363744 1.62014 0
M  V30 25 H -1.33623 -1.98366 -0.975071 0
M  V30 26 H -3.36181 -3.30205 -1.4996 0
M  V30 27 H -5.57519 -2.57625 -0.719356 0
M  V30 28 H -5.75749 -0.526191 0.576179 0
M  V30 29 H -4.8069 1.20498 1.79268 0
M  V30 30 H -3.06791 1.24972 2.13076 0
M  V30 31 H -3.75413 2.02924 0.621783 0
M  V30 32 H 0.648489 1.96832 0.230325 0
M  V30 33 H 0.740106 0.924428 1.73354 0
M  V30 34 H 5.09605 -2.54119 -0.826414 0
M  V30 35 H 4.1456 -1.92051 -2.2785 0
M  V30 36 H 5.53835 2.61072 1.96486 0
M  V30 37 H 6.34446 2.59131 0.372871 0
M  V30 END ATOM
M  V30 BEGIN BOND
M  V30 1 1 1 2
M  V30 2 1 2 3
M  V30 3 1 3 4
M  V30 4 2 4 5
M  V30 5 1 5 6
M  V30 6 2 6 7
M  V30 7 1 7 8
M  V30 8 2 8 9
M  V30 9 1 9 10
M  V30 10 1 2 11
M  V30 11 1 11 12
M  V30 12 2 12 13
M  V30 13 1 13 14
M  V30 14 1 14 15
M  V30 15 2 14 16
M  V30 16 1 16 17
M  V30 17 2 17 18
M  V30 18 1 17 19
M  V30 19 1 9 4
M  V30 20 1 18 12
M  V30 21 1 1 20
M  V30 22 1 1 21
M  V30 23 1 1 22
M  V30 24 1 3 23
M  V30 25 1 3 24
M  V30 26 1 5 25
M  V30 27 1 6 26
M  V30 28 1 7 27
M  V30 29 1 8 28
M  V30 30 1 10 29
M  V30 31 1 10 30
M  V30 32 1 10 31
M  V30 33 1 11 32
M  V30 34 1 11 33
M  V30 35 1 15 34
M  V30 36 1 15 35
M  V30 37 1 19 36
M  V30 38 1 19 37
M  V30 END BOND
M  V30 END CTAB
M  END
