
     RDKit          3D

  0  0  0  0  0  0  0  0  0  0999 V3000
M  V30 BEGIN CTAB
M  V30 COUNTS 30 31 0 0 0
M  V30 BEGIN ATOM
M  V30 1 C -2.88428 -1.34763 0.244657 0
M  V30 2 C -1.77566 -0.537015 -0.440756 0
M  V30 3 C -0.510357 -1.30055 -0.468317 0
M  V30 4 C 0.685096 -0.55054 -0.0362089 0
M  V30 5 C 0.637439 0.560078 0.770792 0
M  V30 6 C -0.701913 1.01362 1.22136 0
M  V30 7 C -1.71524 0.822938 0.141212 0
M  V30 8 C -1.56513 1.88701 -0.953477 0
M  V30 9 N 1.77403 1.18392 1.11734 0
M  V30 10 C 2.9942 0.783695 0.716141 0
M  V30 11 N 3.0435 -0.313538 -0.0813463 0
M  V30 12 C 1.92932 -0.971165 -0.454366 0
M  V30 13 N 2.05712 -2.10409 -1.28483 0
M  V30 14 N 4.18684 1.45853 1.09441 0
M  V30 15 H -2.85914 -1.13571 1.33366 0
M  V30 16 H -2.68373 -2.4049 0.0418649 0
M  V30 17 H -3.87405 -1.00754 -0.152595 0
M  V30 18 H -2.13437 -0.432398 -1.50789 0
M  V30 19 H -0.608188 -2.1688 0.243721 0
M  V30 20 H -0.337144 -1.79316 -1.4667 0
M  V30 21 H -1.02266 0.428292 2.10628 0
M  V30 22 H -0.713266 2.08847 1.50911 0
M  V30 23 H -2.72368 1.04042 0.600053 0
M  V30 24 H -2.54947 1.94674 -1.46454 0
M  V30 25 H -1.36026 2.85278 -0.448729 0
M  V30 26 H -0.788207 1.59282 -1.67389 0
M  V30 27 H 2.07579 -1.97963 -2.30861 0
M  V30 28 H 2.13096 -3.04571 -0.872044 0
M  V30 29 H 5.04074 1.42668 0.496609 0
M  V30 30 H 4.25172 2.00638 1.97707 0
M  V30 END ATOM
M  V30 BEGIN BOND
M  V30 1 1 1 2
M  V30 2 1 2 3
M  V30 3 1 3 4
M  V30 4 2 4 5
M  V30 5 1 5 6
M  V30 6 1 6 7
M  V30 7 1 7 8
M  V30 8 1 5 9
M  V30 9 2 9 10
M  V30 10 1 10 11
M  V30 11 2 11 12
M  V30 12 1 12 13
M  V30 13 1 10 14
M  V30 14 1 7 2
M  V30 15 1 12 4
M  V30 16 1 1 15
M  V30 17 1 1 16
M  V30 18 1 1 17
M  V30 19 1 2 18
M  V30 20 1 3 19
M  V30 21 1 3 20
M  V30 22 1 6 21
M  V30 23 1 6 22
M  V30 24 1 7 23
M  V30 25 1 8 24
M  V30 26 1 8 25
M  V30 27 1 8 26
M  V30 28 1 13 27
M  V30 29 1 13 28
M  V30 30 1 14 29
M  V30 31 1 14 30
M  V30 END BOND
M  V30 END CTAB
M  END
