
     RDKit          3D

  0  0  0  0  0  0  0  0  0  0999 V3000
M  V30 BEGIN CTAB
M  V30 COUNTS 49 50 0 0 0
M  V30 BEGIN ATOM
M  V30 1 C -1.97792 -2.71745 1.95134 0
M  V30 2 C -3.03853 -2.5853 0.867479 0
M  V30 3 N -2.59985 -1.49593 -0.0113231 0
M  V30 4 C -3.33102 -0.29727 -0.0251659 0
M  V30 5 C -4.42909 -0.170343 -0.863133 0
M  V30 6 C -5.19461 0.970575 -0.937826 0
M  V30 7 C -4.87972 2.05731 -0.15417 0
M  V30 8 C -3.78613 1.93877 0.684184 0
M  V30 9 C -3.0193 0.796284 0.759339 0
M  V30 10 C -3.47181 3.14206 1.52348 0
M  V30 11 C -1.41187 -1.77297 -0.797381 0
M  V30 12 C -1.00085 -0.646566 -1.665 0
M  V30 13 N 0.171617 -0.967349 -2.42188 0
M  V30 14 C 1.40108 -1.25368 -1.80612 0
M  V30 15 O 1.51447 -1.22829 -0.551763 0
M  V30 16 C 2.61123 -1.59811 -2.62785 0
M  V30 17 S 4.00903 -1.94428 -1.55939 0
M  V30 18 C 4.54795 -0.481497 -0.654616 0
M  V30 19 N 3.95114 0.706819 -0.79287 0
M  V30 20 C 4.3644 1.80094 -0.108841 0
M  V30 21 N 3.73768 3.05774 -0.251494 0
M  V30 22 C 5.44208 1.65521 0.754958 0
M  V30 23 C 6.04595 0.42253 0.885763 0
M  V30 24 N 5.60051 -0.630047 0.187084 0
M  V30 25 N 7.16031 0.276242 1.78218 0
M  V30 26 H -1.4748 -1.74013 2.07476 0
M  V30 27 H -1.24305 -3.45823 1.55819 0
M  V30 28 H -2.42013 -3.04336 2.91596 0
M  V30 29 H -3.17665 -3.52018 0.309143 0
M  V30 30 H -3.98698 -2.34527 1.37852 0
M  V30 31 H -4.68172 -1.02209 -1.48232 0
M  V30 32 H -6.0521 1.0621 -1.59468 0
M  V30 33 H -5.46199 2.98386 -0.183901 0
M  V30 34 H -2.17292 0.748232 1.4296 0
M  V30 35 H -4.16961 3.1218 2.37536 0
M  V30 36 H -2.41742 3.20886 1.79329 0
M  V30 37 H -3.72376 4.06896 0.935547 0
M  V30 38 H -1.70851 -2.63826 -1.4654 0
M  V30 39 H -0.614607 -2.12751 -0.162474 0
M  V30 40 H -1.79934 -0.36434 -2.40378 0
M  V30 41 H -0.735819 0.236522 -1.03546 0
M  V30 42 H 0.162625 -1.00353 -3.49079 0
M  V30 43 H 2.85241 -0.722051 -3.29168 0
M  V30 44 H 2.39811 -2.49039 -3.23317 0
M  V30 45 H 2.82396 3.25326 0.185577 0
M  V30 46 H 4.20112 3.79879 -0.805134 0
M  V30 47 H 5.82264 2.48896 1.33043 0
M  V30 48 H 7.17107 -0.416024 2.55885 0
M  V30 49 H 7.99077 0.884638 1.65222 0
M  V30 END ATOM
M  V30 BEGIN BOND
M  V30 1 1 1 2
M  V30 2 1 2 3
M  V30 3 1 3 4
M  V30 4 2 4 5
M  V30 5 1 5 6
M  V30 6 2 6 7
M  V30 7 1 7 8
M  V30 8 2 8 9
M  V30 9 1 8 10
M  V30 10 1 3 11
M  V30 11 1 11 12
M  V30 12 1 12 13
M  V30 13 1 13 14
M  V30 14 2 14 15
M  V30 15 1 14 16
M  V30 16 1 16 17
M  V30 17 1 17 18
M  V30 18 2 18 19
M  V30 19 1 19 20
M  V30 20 1 20 21
M  V30 21 2 20 22
M  V30 22 1 22 23
M  V30 23 2 23 24
M  V30 24 1 23 25
M  V30 25 1 9 4
M  V30 26 1 24 18
M  V30 27 1 1 26
M  V30 28 1 1 27
M  V30 29 1 1 28
M  V30 30 1 2 29
M  V30 31 1 2 30
M  V30 32 1 5 31
M  V30 33 1 6 32
M  V30 34 1 7 33
M  V30 35 1 9 34
M  V30 36 1 10 35
M  V30 37 1 10 36
M  V30 38 1 10 37
M  V30 39 1 11 38
M  V30 40 1 11 39
M  V30 41 1 12 40
M  V30 42 1 12 41
M  V30 43 1 13 42
M  V30 44 1 16 43
M  V30 45 1 16 44
M  V30 46 1 21 45
M  V30 47 1 21 46
M  V30 48 1 22 47
M  V30 49 1 25 48
M  V30 50 1 25 49
M  V30 END BOND
M  V30 END CTAB
M  END
