
     RDKit          3D

  0  0  0  0  0  0  0  0  0  0999 V3000
M  V30 BEGIN CTAB
M  V30 COUNTS 31 31 0 0 0
M  V30 BEGIN ATOM
M  V30 1 O -3.23918 -1.2816 2.0365 0
M  V30 2 C -2.3951 -0.264299 1.65014 0
M  V30 3 C -1.57069 -0.654459 0.414407 0
M  V30 4 C -2.63527 -0.952543 -0.658744 0
M  V30 5 C -1.93213 -0.513857 -1.91303 0
M  V30 6 C -1.40852 0.852367 -1.48289 0
M  V30 7 C -0.826188 0.503577 -0.109969 0
M  V30 8 C 0.636476 0.407273 -0.283991 0
M  V30 9 N 1.44283 0.146858 0.86174 0
M  V30 10 C 2.85107 0.242515 0.690917 0
M  V30 11 N 3.44212 -0.490369 -0.17442 0
M  V30 12 N 4.8377 -0.423733 -0.37562 0
M  V30 13 N 3.5914 1.15373 1.47622 0
M  V30 14 H -4.21884 -1.03278 1.96721 0
M  V30 15 H -1.71829 0.106104 2.4392 0
M  V30 16 H -3.03465 0.582039 1.31956 0
M  V30 17 H -1.03384 -1.58777 0.569599 0
M  V30 18 H -2.91529 -2.02581 -0.649882 0
M  V30 19 H -3.49515 -0.273985 -0.496437 0
M  V30 20 H -1.07199 -1.18347 -2.15349 0
M  V30 21 H -2.63187 -0.442511 -2.77351 0
M  V30 22 H -0.627952 1.21941 -2.17067 0
M  V30 23 H -2.28295 1.5323 -1.37876 0
M  V30 24 H -1.10078 1.41375 0.517343 0
M  V30 25 H 0.999262 1.36109 -0.734954 0
M  V30 26 H 0.850666 -0.398406 -1.03317 0
M  V30 27 H 1.11164 -0.108722 1.80968 0
M  V30 28 H 5.31809 0.471064 -0.582808 0
M  V30 29 H 5.34334 -1.31942 -0.296468 0
M  V30 30 H 3.73796 0.929133 2.49599 0
M  V30 31 H 3.97612 2.03252 1.03292 0
M  V30 END ATOM
M  V30 BEGIN BOND
M  V30 1 1 1 2
M  V30 2 1 2 3
M  V30 3 1 3 4
M  V30 4 1 4 5
M  V30 5 1 5 6
M  V30 6 1 6 7
M  V30 7 1 7 8
M  V30 8 1 8 9
M  V30 9 1 9 10
M  V30 10 2 10 11 CFG=2
M  V30 11 1 11 12
M  V30 12 1 10 13
M  V30 13 1 7 3
M  V30 14 1 1 14
M  V30 15 1 2 15
M  V30 16 1 2 16
M  V30 17 1 3 17
M  V30 18 1 4 18
M  V30 19 1 4 19
M  V30 20 1 5 20
M  V30 21 1 5 21
M  V30 22 1 6 22
M  V30 23 1 6 23
M  V30 24 1 7 24
M  V30 25 1 8 25
M  V30 26 1 8 26
M  V30 27 1 9 27
M  V30 28 1 12 28
M  V30 29 1 12 29
M  V30 30 1 13 30
M  V30 31 1 13 31
M  V30 END BOND
M  V30 END CTAB
M  END
