
     RDKit          3D

  0  0  0  0  0  0  0  0  0  0999 V3000
M  V30 BEGIN CTAB
M  V30 COUNTS 22 23 0 0 0
M  V30 BEGIN ATOM
M  V30 1 C -4.1254 -0.23282 -0.768272 0
M  V30 2 C -2.75781 -0.0898277 -0.20517 0
M  V30 3 C -2.41907 0.181269 1.10221 0
M  V30 4 C -1.03638 0.209096 1.09302 0
M  V30 5 C -0.592431 -0.0398526 -0.187857 0
M  V30 6 O -1.66707 -0.211532 -0.924293 0
M  V30 7 C 0.773979 -0.113704 -0.699161 0
M  V30 8 N 1.09902 -0.368079 -1.99422 0
M  V30 9 N 2.41437 -0.364528 -2.11676 0
M  V30 10 C 2.97555 -0.111135 -0.920982 0
M  V30 11 N 1.9454 0.0397612 -0.0635212 0
M  V30 12 N 2.04647 0.317226 1.30069 0
M  V30 13 N 4.37218 -0.0257144 -0.646578 0
M  V30 14 H -4.2508 0.426628 -1.6675 0
M  V30 15 H -4.25528 -1.26391 -1.10361 0
M  V30 16 H -4.89455 0.0622771 -0.00841041 0
M  V30 17 H -3.13807 0.324693 1.88945 0
M  V30 18 H -0.428905 0.39728 1.96095 0
M  V30 19 H 2.29014 -0.401209 2.01542 0
M  V30 20 H 1.87385 1.28452 1.64459 0
M  V30 21 H 5.08091 0.347834 -1.29573 0
M  V30 22 H 4.6939 -0.368265 0.281514 0
M  V30 END ATOM
M  V30 BEGIN BOND
M  V30 1 1 1 2
M  V30 2 2 2 3
M  V30 3 1 3 4
M  V30 4 2 4 5
M  V30 5 1 5 6
M  V30 6 1 5 7
M  V30 7 2 7 8
M  V30 8 1 8 9
M  V30 9 2 9 10
M  V30 10 1 10 11
M  V30 11 1 11 12
M  V30 12 1 10 13
M  V30 13 1 6 2
M  V30 14 1 11 7
M  V30 15 1 1 14
M  V30 16 1 1 15
M  V30 17 1 1 16
M  V30 18 1 3 17
M  V30 19 1 4 18
M  V30 20 1 12 19
M  V30 21 1 12 20
M  V30 22 1 13 21
M  V30 23 1 13 22
M  V30 END BOND
M  V30 END CTAB
M  END
