
     RDKit          3D

  0  0  0  0  0  0  0  0  0  0999 V3000
M  V30 BEGIN CTAB
M  V30 COUNTS 34 34 0 0 0
M  V30 BEGIN ATOM
M  V30 1 N 3.32261 0.177645 0.722808 0
M  V30 2 C 1.92864 -0.0845157 0.348874 0 CFG=1
M  V30 3 C 1.38426 1.01497 -0.50126 0
M  V30 4 C 0.577963 1.93867 0.387792 0
M  V30 5 C -0.732746 2.32891 -0.214134 0
M  V30 6 C -1.58342 1.17803 -0.640642 0
M  V30 7 C -1.82652 0.158325 0.425596 0 CFG=1
M  V30 8 N -3.14315 0.367204 1.05041 0
M  V30 9 C -1.77574 -1.2692 -0.125384 0
M  V30 10 C -0.472041 -1.9546 0.308759 0
M  V30 11 C 0.541615 -1.84069 -0.789587 0
M  V30 12 C 1.89177 -1.43499 -0.272893 0
M  V30 13 H 3.88388 0.383547 -0.12659 0
M  V30 14 H 3.69471 -0.736483 1.09187 0
M  V30 15 H 1.38236 -0.141358 1.33053 0
M  V30 16 H 0.816518 0.689011 -1.37873 0
M  V30 17 H 2.2749 1.57844 -0.910489 0
M  V30 18 H 0.447821 1.50373 1.41747 0
M  V30 19 H 1.15827 2.87804 0.554293 0
M  V30 20 H -1.28947 2.91924 0.529324 0
M  V30 21 H -0.562875 2.97624 -1.08643 0
M  V30 22 H -1.21049 0.722401 -1.6041 0
M  V30 23 H -2.58744 1.60211 -0.9193 0
M  V30 24 H -1.10095 0.186867 1.25198 0
M  V30 25 H -3.64216 -0.554197 1.12327 0
M  V30 26 H -3.70271 0.952103 0.393866 0
M  V30 27 H -2.60162 -1.85218 0.34686 0
M  V30 28 H -1.91897 -1.30462 -1.20825 0
M  V30 29 H -0.693048 -3.03047 0.574512 0
M  V30 30 H -0.139683 -1.49755 1.26891 0
M  V30 31 H 0.671638 -2.88097 -1.21324 0
M  V30 32 H 0.181754 -1.23212 -1.63426 0
M  V30 33 H 2.1758 -2.17745 0.508721 0
M  V30 34 H 2.64852 -1.56406 -1.08476 0
M  V30 END ATOM
M  V30 BEGIN BOND
M  V30 1 1 1 2
M  V30 2 1 2 3
M  V30 3 1 3 4
M  V30 4 1 4 5
M  V30 5 1 5 6
M  V30 6 1 6 7
M  V30 7 1 7 8
M  V30 8 1 7 9
M  V30 9 1 9 10
M  V30 10 1 10 11
M  V30 11 1 11 12
M  V30 12 1 12 2
M  V30 13 1 1 13
M  V30 14 1 1 14
M  V30 15 1 2 15 CFG=1
M  V30 16 1 3 16
M  V30 17 1 3 17
M  V30 18 1 4 18
M  V30 19 1 4 19
M  V30 20 1 5 20
M  V30 21 1 5 21
M  V30 22 1 6 22
M  V30 23 1 6 23
M  V30 24 1 7 24 CFG=1
M  V30 25 1 8 25
M  V30 26 1 8 26
M  V30 27 1 9 27
M  V30 28 1 9 28
M  V30 29 1 10 29
M  V30 30 1 10 30
M  V30 31 1 11 31
M  V30 32 1 11 32
M  V30 33 1 12 33
M  V30 34 1 12 34
M  V30 END BOND
M  V30 END CTAB
M  END
