
     RDKit          3D

  0  0  0  0  0  0  0  0  0  0999 V3000
M  V30 BEGIN CTAB
M  V30 COUNTS 30 31 0 0 0
M  V30 BEGIN ATOM
M  V30 1 N -4.59237 0.329584 0.402765 0
M  V30 2 N -3.19946 0.30522 0.326461 0
M  V30 3 C -2.47527 1.43855 0.514632 0
M  V30 4 O -3.07872 2.51555 0.757657 0
M  V30 5 C -1.08604 1.45113 0.448084 0
M  V30 6 C -0.338097 2.66165 0.652436 0
M  V30 7 N 0.273609 3.62858 0.821428 0
M  V30 8 C -0.484163 0.238628 0.178595 0
M  V30 9 C 0.966674 0.170156 0.0890475 0
M  V30 10 C 1.63571 0.497712 -1.06343 0
M  V30 11 C 3.00317 0.44661 -1.19047 0
M  V30 12 C 3.74582 0.0437546 -0.10254 0
M  V30 13 C 3.09051 -0.290089 1.06711 0
M  V30 14 C 1.71388 -0.231115 1.17291 0
M  V30 15 N 5.16539 -0.0341699 -0.146349 0 CHG=1
M  V30 16 O 5.88478 -0.431752 0.954329 0 CHG=-1
M  V30 17 O 5.72436 0.272049 -1.22006 0
M  V30 18 C -1.22704 -0.92574 -0.0149997 0
M  V30 19 C -0.575523 -2.17587 -0.296767 0
M  V30 20 N -0.0443848 -3.17933 -0.530552 0
M  V30 21 C -2.59669 -0.865197 0.0649736 0
M  V30 22 N -3.37617 -2.01958 -0.128557 0
M  V30 23 H -5.09839 -0.334701 0.993632 0
M  V30 24 H -5.12807 1.03327 -0.147024 0
M  V30 25 H 1.05203 0.810662 -1.9179 0
M  V30 26 H 3.53453 0.704946 -2.0954 0
M  V30 27 H 3.67086 -0.615095 1.9437 0
M  V30 28 H 1.17767 -0.486714 2.07968 0
M  V30 29 H -2.9783 -2.97456 0.0706677 0
M  V30 30 H -4.3603 -1.98415 -0.471265 0
M  V30 END ATOM
M  V30 BEGIN BOND
M  V30 1 1 1 2
M  V30 2 1 2 3
M  V30 3 2 3 4
M  V30 4 1 3 5
M  V30 5 1 5 6
M  V30 6 3 6 7
M  V30 7 2 5 8
M  V30 8 1 8 9
M  V30 9 2 9 10
M  V30 10 1 10 11
M  V30 11 2 11 12
M  V30 12 1 12 13
M  V30 13 2 13 14
M  V30 14 1 12 15
M  V30 15 1 15 16
M  V30 16 2 15 17
M  V30 17 1 8 18
M  V30 18 1 18 19
M  V30 19 3 19 20
M  V30 20 2 18 21
M  V30 21 1 21 22
M  V30 22 1 21 2
M  V30 23 1 14 9
M  V30 24 1 1 23
M  V30 25 1 1 24
M  V30 26 1 10 25
M  V30 27 1 11 26
M  V30 28 1 13 27
M  V30 29 1 14 28
M  V30 30 1 22 29
M  V30 31 1 22 30
M  V30 END BOND
M  V30 END CTAB
M  END
