
     RDKit          3D

  0  0  0  0  0  0  0  0  0  0999 V3000
M  V30 BEGIN CTAB
M  V30 COUNTS 35 37 0 0 0
M  V30 BEGIN ATOM
M  V30 1 O -1.67074 -2.60967 -3.43414 0
M  V30 2 C -1.54179 -1.64616 -2.60123 0
M  V30 3 N -2.63312 -0.805372 -2.27098 0
M  V30 4 C -2.61237 -0.159818 -1.01176 0
M  V30 5 N -3.63186 0.617363 -0.654471 0
M  V30 6 C -3.69353 1.24063 0.529565 0
M  V30 7 N -4.80101 2.04987 0.846235 0
M  V30 8 N -2.68731 1.07676 1.3945 0
M  V30 9 C -1.60546 0.307027 1.12592 0
M  V30 10 C -1.55575 -0.32601 -0.0949895 0
M  V30 11 C -0.396815 -1.15317 -0.426232 0
M  V30 12 C -0.261487 -1.35552 -1.9411 0
M  V30 13 C 0.918141 -0.636771 0.0263127 0
M  V30 14 C 1.40821 0.584637 -0.440234 0
M  V30 15 C 2.64362 1.05942 -0.0551187 0
M  V30 16 C 3.44656 0.354595 0.802725 0
M  V30 17 C 2.98491 -0.845688 1.27203 0
M  V30 18 C 1.75565 -1.32642 0.893809 0
M  V30 19 C 4.77641 0.911742 1.18967 0
M  V30 20 N -0.645081 0.228296 2.15461 0
M  V30 21 H -3.42489 -0.680807 -2.95797 0
M  V30 22 H -5.70025 1.93297 0.351769 0
M  V30 23 H -4.73128 2.77738 1.58224 0
M  V30 24 H -0.523294 -2.20614 -0.0386367 0
M  V30 25 H 0.531428 -2.06175 -2.17647 0
M  V30 26 H 0.0792125 -0.354345 -2.3375 0
M  V30 27 H 0.759833 1.13177 -1.11948 0
M  V30 28 H 2.98765 2.00888 -0.437806 0
M  V30 29 H 3.62221 -1.40672 1.95387 0
M  V30 30 H 1.43453 -2.26979 1.28527 0
M  V30 31 H 4.64441 1.99549 1.42064 0
M  V30 32 H 5.52479 0.808496 0.383223 0
M  V30 33 H 5.15333 0.418809 2.10165 0
M  V30 34 H 0.0644454 0.957208 2.35031 0
M  V30 35 H -0.619319 -0.617183 2.7951 0
M  V30 END ATOM
M  V30 BEGIN BOND
M  V30 1 2 1 2
M  V30 2 1 2 3
M  V30 3 1 3 4
M  V30 4 2 4 5
M  V30 5 1 5 6
M  V30 6 1 6 7
M  V30 7 2 6 8
M  V30 8 1 8 9
M  V30 9 2 9 10
M  V30 10 1 10 11
M  V30 11 1 11 12
M  V30 12 1 11 13
M  V30 13 2 13 14
M  V30 14 1 14 15
M  V30 15 2 15 16
M  V30 16 1 16 17
M  V30 17 2 17 18
M  V30 18 1 16 19
M  V30 19 1 9 20
M  V30 20 1 12 2
M  V30 21 1 18 13
M  V30 22 1 10 4
M  V30 23 1 3 21
M  V30 24 1 7 22
M  V30 25 1 7 23
M  V30 26 1 11 24
M  V30 27 1 12 25
M  V30 28 1 12 26
M  V30 29 1 14 27
M  V30 30 1 15 28
M  V30 31 1 17 29
M  V30 32 1 18 30
M  V30 33 1 19 31
M  V30 34 1 19 32
M  V30 35 1 19 33
M  V30 36 1 20 34
M  V30 37 1 20 35
M  V30 END BOND
M  V30 END CTAB
M  END
