
     RDKit          3D

  0  0  0  0  0  0  0  0  0  0999 V3000
M  V30 BEGIN CTAB
M  V30 COUNTS 29 29 0 0 0
M  V30 BEGIN ATOM
M  V30 1 N 4.69617 -1.07453 -0.839922 0
M  V30 2 N 3.41695 -1.44075 -0.468896 0
M  V30 3 C 2.47533 -0.483137 0.0415975 0
M  V30 4 C 1.19582 -0.867612 0.407459 0
M  V30 5 C 0.27599 0.0320393 0.900758 0
M  V30 6 N 0.664564 1.31384 1.0172 0
M  V30 7 C 1.91997 1.71923 0.66365 0
M  V30 8 N 2.79404 0.817117 0.185794 0
M  V30 9 N 2.25981 3.10499 0.820513 0
M  V30 10 S -1.37954 -0.428871 1.38078 0
M  V30 11 C -2.51012 -0.287061 -0.026119 0
M  V30 12 C -2.18421 -1.29749 -1.10455 0
M  V30 13 C -3.91624 -0.516462 0.459586 0
M  V30 14 C -2.37009 1.11741 -0.575679 0
M  V30 15 H 5.40569 -1.84028 -0.617064 0
M  V30 16 H 4.71382 -1.01844 -1.89272 0
M  V30 17 H 3.11556 -2.42432 -0.5528 0
M  V30 18 H 0.887563 -1.88658 0.311056 0
M  V30 19 H 2.62027 3.66626 0.0179037 0
M  V30 20 H 2.1671 3.61503 1.72599 0
M  V30 21 H -2.39627 -2.32877 -0.758994 0
M  V30 22 H -1.0998 -1.2382 -1.37849 0
M  V30 23 H -2.76473 -1.03098 -2.01543 0
M  V30 24 H -4.41064 0.468556 0.646252 0
M  V30 25 H -3.94925 -1.11306 1.38684 0
M  V30 26 H -4.55991 -1.0258 -0.286036 0
M  V30 27 H -1.55952 1.2136 -1.31803 0
M  V30 28 H -3.33049 1.45808 -1.02104 0
M  V30 29 H -2.17785 1.77618 0.308944 0
M  V30 END ATOM
M  V30 BEGIN BOND
M  V30 1 1 1 2
M  V30 2 1 2 3
M  V30 3 2 3 4
M  V30 4 1 4 5
M  V30 5 2 5 6
M  V30 6 1 6 7
M  V30 7 2 7 8
M  V30 8 1 7 9
M  V30 9 1 5 10
M  V30 10 1 10 11
M  V30 11 1 11 12
M  V30 12 1 11 13
M  V30 13 1 11 14
M  V30 14 1 8 3
M  V30 15 1 1 15
M  V30 16 1 1 16
M  V30 17 1 2 17
M  V30 18 1 4 18
M  V30 19 1 9 19
M  V30 20 1 9 20
M  V30 21 1 12 21
M  V30 22 1 12 22
M  V30 23 1 12 23
M  V30 24 1 13 24
M  V30 25 1 13 25
M  V30 26 1 13 26
M  V30 27 1 14 27
M  V30 28 1 14 28
M  V30 29 1 14 29
M  V30 END BOND
M  V30 END CTAB
M  END
