
     RDKit          3D

  0  0  0  0  0  0  0  0  0  0999 V3000
M  V30 BEGIN CTAB
M  V30 COUNTS 32 32 0 0 0
M  V30 BEGIN ATOM
M  V30 1 C -3.74213 -2.00298 1.04088 0
M  V30 2 O -3.11572 -1.01421 0.297089 0
M  V30 3 C -1.80012 -0.609563 0.430128 0
M  V30 4 C -1.36794 0.397933 -0.412835 0
M  V30 5 C -0.0615111 0.824951 -0.306268 0
M  V30 6 C 0.835676 0.298808 0.597642 0
M  V30 7 C 2.24556 0.748979 0.723365 0
M  V30 8 C 3.06753 -0.106837 -0.215327 0 CFG=2
M  V30 9 C 4.52775 0.237188 -0.195755 0
M  V30 10 N 2.57609 -0.00655051 -1.53826 0
M  V30 11 C 0.374454 -0.704412 1.42427 0
M  V30 12 C -0.932402 -1.16167 1.34819 0
M  V30 13 S -2.46704 1.11551 -1.59426 0
M  V30 14 N -3.78213 1.79688 -0.705997 0
M  V30 15 O -2.98202 0.10306 -2.55429 0
M  V30 16 O -1.72926 2.2 -2.31699 0
M  V30 17 H -3.32583 -2.19119 2.02665 0
M  V30 18 H -4.81895 -1.70922 1.18897 0
M  V30 19 H -3.77909 -2.98227 0.499651 0
M  V30 20 H 0.299343 1.61111 -0.954306 0
M  V30 21 H 2.36067 1.81578 0.4659 0
M  V30 22 H 2.57765 0.616214 1.77442 0
M  V30 23 H 2.95703 -1.15497 0.129293 0
M  V30 24 H 5.07479 -0.675719 -0.573004 0
M  V30 25 H 4.71786 1.02403 -0.942253 0
M  V30 26 H 4.8974 0.448358 0.806555 0
M  V30 27 H 2.15275 -0.837242 -1.94804 0
M  V30 28 H 3.04173 0.646884 -2.16457 0
M  V30 29 H 1.04206 -1.14763 2.14933 0
M  V30 30 H -1.27429 -1.94785 2.00407 0
M  V30 31 H -3.77831 1.52241 0.290877 0
M  V30 32 H -3.7916 2.84421 -0.775121 0
M  V30 END ATOM
M  V30 BEGIN BOND
M  V30 1 1 1 2
M  V30 2 1 2 3
M  V30 3 2 3 4
M  V30 4 1 4 5
M  V30 5 2 5 6
M  V30 6 1 6 7
M  V30 7 1 7 8
M  V30 8 1 8 9
M  V30 9 1 8 10
M  V30 10 1 6 11
M  V30 11 2 11 12
M  V30 12 1 4 13
M  V30 13 1 13 14
M  V30 14 2 13 15
M  V30 15 2 13 16
M  V30 16 1 12 3
M  V30 17 1 1 17
M  V30 18 1 1 18
M  V30 19 1 1 19
M  V30 20 1 5 20
M  V30 21 1 7 21
M  V30 22 1 7 22
M  V30 23 1 8 23 CFG=1
M  V30 24 1 9 24
M  V30 25 1 9 25
M  V30 26 1 9 26
M  V30 27 1 10 27
M  V30 28 1 10 28
M  V30 29 1 11 29
M  V30 30 1 12 30
M  V30 31 1 14 31
M  V30 32 1 14 32
M  V30 END BOND
M  V30 END CTAB
M  END
