
     RDKit          3D

  0  0  0  0  0  0  0  0  0  0999 V3000
M  V30 BEGIN CTAB
M  V30 COUNTS 28 28 0 0 0
M  V30 BEGIN ATOM
M  V30 1 C -3.04683 -0.809233 0.803003 0
M  V30 2 C -1.76543 -0.303185 0.174423 0
M  V30 3 C -0.603559 -0.668861 1.05969 0
M  V30 4 C 0.690006 -0.228127 0.549028 0
M  V30 5 N 1.41812 -1.01498 -0.255709 0
M  V30 6 C 2.61969 -0.660091 -0.757168 0
M  V30 7 N 3.38236 -1.50292 -1.60941 0
M  V30 8 N 3.08262 0.573763 -0.4019 0
M  V30 9 C 2.38896 1.39099 0.39855 0
M  V30 10 N 1.19575 0.977969 0.866227 0
M  V30 11 N 2.88624 2.66512 0.754567 0
M  V30 12 C -1.66611 -0.918127 -1.19624 0
M  V30 13 C -1.86791 1.20364 0.0669199 0
M  V30 14 H -3.08535 -1.90927 0.59191 0
M  V30 15 H -3.02775 -0.715991 1.90321 0
M  V30 16 H -3.91825 -0.318129 0.3362 0
M  V30 17 H -0.647845 -1.78377 1.22889 0
M  V30 18 H -0.773638 -0.22544 2.06239 0
M  V30 19 H 3.30324 -2.53528 -1.57197 0
M  V30 20 H 4.04541 -1.09105 -2.29822 0
M  V30 21 H 3.51003 2.78334 1.60655 0
M  V30 22 H 2.69163 3.54672 0.237176 0
M  V30 23 H -1.87563 -2.00794 -1.17408 0
M  V30 24 H -2.5112 -0.479112 -1.80361 0
M  V30 25 H -0.713689 -0.73536 -1.70208 0
M  V30 26 H -1.47715 1.52235 -0.934386 0
M  V30 27 H -2.93527 1.53563 0.178537 0
M  V30 28 H -1.29845 1.70735 0.887507 0
M  V30 END ATOM
M  V30 BEGIN BOND
M  V30 1 1 1 2
M  V30 2 1 2 3
M  V30 3 1 3 4
M  V30 4 2 4 5
M  V30 5 1 5 6
M  V30 6 1 6 7
M  V30 7 2 6 8
M  V30 8 1 8 9
M  V30 9 2 9 10
M  V30 10 1 9 11
M  V30 11 1 2 12
M  V30 12 1 2 13
M  V30 13 1 10 4
M  V30 14 1 1 14
M  V30 15 1 1 15
M  V30 16 1 1 16
M  V30 17 1 3 17
M  V30 18 1 3 18
M  V30 19 1 7 19
M  V30 20 1 7 20
M  V30 21 1 11 21
M  V30 22 1 11 22
M  V30 23 1 12 23
M  V30 24 1 12 24
M  V30 25 1 12 25
M  V30 26 1 13 26
M  V30 27 1 13 27
M  V30 28 1 13 28
M  V30 END BOND
M  V30 END CTAB
M  END
