
     RDKit          3D

  0  0  0  0  0  0  0  0  0  0999 V3000
M  V30 BEGIN CTAB
M  V30 COUNTS 37 39 0 0 0
M  V30 BEGIN ATOM
M  V30 1 N 4.99478 0.116745 1.64846 0
M  V30 2 C 3.92387 -0.0463255 0.728672 0
M  V30 3 C 4.11706 -0.661683 -0.496668 0
M  V30 4 C 3.12913 -0.849969 -1.42694 0
M  V30 5 C 1.84811 -0.381578 -1.09571 0
M  V30 6 C 1.60903 0.232407 0.102327 0
M  V30 7 C 2.63358 0.391867 0.989816 0
M  V30 8 C 0.25544 0.717465 0.430808 0 CFG=1
M  V30 9 C -0.00168603 1.91717 -0.447544 0
M  V30 10 N -1.33935 2.39525 -0.223679 0
M  V30 11 C -2.38449 1.4249 -0.410259 0
M  V30 12 C -2.06727 0.110644 -0.153555 0
M  V30 13 N -0.765061 -0.256576 0.276801 0
M  V30 14 S -0.530904 -1.93557 0.651563 0
M  V30 15 O -0.735805 -2.72171 -0.595739 0
M  V30 16 O 0.878786 -2.17144 1.1254 0
M  V30 17 N -1.56426 -2.44029 1.95101 0
M  V30 18 C -3.09606 -0.793114 -0.333131 0
M  V30 19 C -4.35436 -0.388685 -0.743505 0
M  V30 20 C -4.62825 0.936241 -0.988915 0
M  V30 21 C -3.62278 1.8761 -0.820556 0
M  V30 22 H 5.18308 1.03116 2.11527 0
M  V30 23 H 5.64595 -0.663271 1.90494 0
M  V30 24 H 5.12046 -1.02001 -0.737613 0
M  V30 25 H 3.29791 -1.33596 -2.38608 0
M  V30 26 H 1.08988 -0.542425 -1.84502 0
M  V30 27 H 2.48062 0.880166 1.96232 0
M  V30 28 H 0.216061 1.10003 1.47946 0
M  V30 29 H 0.762806 2.7093 -0.253522 0
M  V30 30 H 0.0792131 1.58081 -1.51264 0
M  V30 31 H -1.56127 3.35847 0.0490102 0
M  V30 32 H -2.04151 -3.33044 1.73153 0
M  V30 33 H -1.05056 -2.54447 2.84489 0
M  V30 34 H -2.92817 -1.83401 -0.149959 0
M  V30 35 H -5.17681 -1.08828 -0.890093 0
M  V30 36 H -5.5974 1.29462 -1.31074 0
M  V30 37 H -3.81976 2.93247 -1.00853 0
M  V30 END ATOM
M  V30 BEGIN BOND
M  V30 1 1 1 2
M  V30 2 2 2 3
M  V30 3 1 3 4
M  V30 4 2 4 5
M  V30 5 1 5 6
M  V30 6 2 6 7
M  V30 7 1 6 8
M  V30 8 1 8 9
M  V30 9 1 9 10
M  V30 10 1 10 11
M  V30 11 2 11 12
M  V30 12 1 12 13
M  V30 13 1 13 14
M  V30 14 2 14 15
M  V30 15 2 14 16
M  V30 16 1 14 17
M  V30 17 1 12 18
M  V30 18 2 18 19
M  V30 19 1 19 20
M  V30 20 2 20 21
M  V30 21 1 7 2
M  V30 22 1 13 8
M  V30 23 1 21 11
M  V30 24 1 1 22
M  V30 25 1 1 23
M  V30 26 1 3 24
M  V30 27 1 4 25
M  V30 28 1 5 26
M  V30 29 1 7 27
M  V30 30 1 8 28 CFG=1
M  V30 31 1 9 29
M  V30 32 1 9 30
M  V30 33 1 10 31
M  V30 34 1 17 32
M  V30 35 1 17 33
M  V30 36 1 18 34
M  V30 37 1 19 35
M  V30 38 1 20 36
M  V30 39 1 21 37
M  V30 END BOND
M  V30 END CTAB
M  END
