
     RDKit          3D

  0  0  0  0  0  0  0  0  0  0999 V3000
M  V30 BEGIN CTAB
M  V30 COUNTS 51 54 0 0 0
M  V30 BEGIN ATOM
M  V30 1 N -7.20217 -1.07934 3.07814 0
M  V30 2 C -6.13486 -0.864317 2.13658 0
M  V30 3 N -6.19974 -1.55484 0.986045 0
M  V30 4 C -5.22567 -1.38731 0.0755459 0
M  V30 5 C -5.24816 -2.0728 -1.11865 0
M  V30 6 C -4.25278 -1.90127 -2.04848 0
M  V30 7 C -3.22492 -1.03039 -1.77181 0
M  V30 8 C -3.15875 -0.323082 -0.592933 0
M  V30 9 O -2.13601 0.562171 -0.284287 0
M  V30 10 C -1.1252 0.718227 -1.26086 0
M  V30 11 C -0.058626 1.69425 -0.844766 0
M  V30 12 C 0.962787 1.78657 -1.94768 0
M  V30 13 C 2.21802 2.38701 -1.3513 0
M  V30 14 N 2.80167 1.25456 -0.570655 0
M  V30 15 C 1.919 0.644518 0.340474 0
M  V30 16 C 0.586306 1.39206 0.443672 0
M  V30 17 C 4.12523 0.943648 -0.825123 0
M  V30 18 O 4.73926 1.70105 -1.73962 0
M  V30 19 C 5.00314 -0.0541156 -0.294481 0
M  V30 20 C 4.64436 -0.986327 0.629033 0
M  V30 21 C 5.54851 -1.94791 1.13038 0
M  V30 22 C 6.84621 -1.96809 0.687752 0
M  V30 23 I 8.19537 -3.39833 1.432 0
M  V30 24 C 7.23353 -1.0456 -0.237877 0
M  V30 25 C 6.33925 -0.114742 -0.71633 0
M  V30 26 C -4.16782 -0.511619 0.323569 0
M  V30 27 C -4.15373 0.169052 1.51958 0
M  V30 28 N -3.05586 1.06089 1.74672 0
M  V30 29 N -5.13014 -0.0172353 2.39954 0
M  V30 30 H -8.04884 -0.493709 3.11291 0
M  V30 31 H -7.10763 -1.86211 3.74986 0
M  V30 32 H -6.06726 -2.75049 -1.31005 0
M  V30 33 H -4.26792 -2.44687 -3.00239 0
M  V30 34 H -2.4254 -0.875388 -2.48797 0
M  V30 35 H -0.659741 -0.275979 -1.51723 0
M  V30 36 H -1.63541 1.04702 -2.18891 0
M  V30 37 H -0.577931 2.6975 -0.786511 0
M  V30 38 H 0.598587 2.35025 -2.82577 0
M  V30 39 H 1.15545 0.732915 -2.28605 0
M  V30 40 H 2.86875 2.66931 -2.18634 0
M  V30 41 H 1.97679 3.20245 -0.654603 0
M  V30 42 H 1.73627 -0.406338 0.038951 0
M  V30 43 H 2.3372 0.721264 1.37927 0
M  V30 44 H -0.033826 0.793939 1.14254 0
M  V30 45 H 0.816594 2.34718 0.989116 0
M  V30 46 H 3.67432 -1.08244 1.04816 0
M  V30 47 H 5.23112 -2.67639 1.86543 0
M  V30 48 H 8.2609 -1.05914 -0.590515 0
M  V30 49 H 6.74042 0.581359 -1.45315 0
M  V30 50 H -2.19238 0.671133 2.18474 0
M  V30 51 H -3.06828 2.05786 1.50477 0
M  V30 END ATOM
M  V30 BEGIN BOND
M  V30 1 1 1 2
M  V30 2 2 2 3
M  V30 3 1 3 4
M  V30 4 2 4 5
M  V30 5 1 5 6
M  V30 6 2 6 7
M  V30 7 1 7 8
M  V30 8 1 8 9
M  V30 9 1 9 10
M  V30 10 1 10 11
M  V30 11 1 11 12
M  V30 12 1 12 13
M  V30 13 1 13 14
M  V30 14 1 14 15
M  V30 15 1 15 16
M  V30 16 1 14 17
M  V30 17 2 17 18
M  V30 18 1 17 19
M  V30 19 2 19 20
M  V30 20 1 20 21
M  V30 21 2 21 22
M  V30 22 1 22 23
M  V30 23 1 22 24
M  V30 24 2 24 25
M  V30 25 2 8 26
M  V30 26 1 26 27
M  V30 27 1 27 28
M  V30 28 2 27 29
M  V30 29 1 29 2
M  V30 30 1 26 4
M  V30 31 1 16 11
M  V30 32 1 25 19
M  V30 33 1 1 30
M  V30 34 1 1 31
M  V30 35 1 5 32
M  V30 36 1 6 33
M  V30 37 1 7 34
M  V30 38 1 10 35
M  V30 39 1 10 36
M  V30 40 1 11 37
M  V30 41 1 12 38
M  V30 42 1 12 39
M  V30 43 1 13 40
M  V30 44 1 13 41
M  V30 45 1 15 42
M  V30 46 1 15 43
M  V30 47 1 16 44
M  V30 48 1 16 45
M  V30 49 1 20 46
M  V30 50 1 21 47
M  V30 51 1 24 48
M  V30 52 1 25 49
M  V30 53 1 28 50
M  V30 54 1 28 51
M  V30 END BOND
M  V30 END CTAB
M  END
