
     RDKit          3D

  0  0  0  0  0  0  0  0  0  0999 V3000
M  V30 BEGIN CTAB
M  V30 COUNTS 28 30 0 0 0
M  V30 BEGIN ATOM
M  V30 1 N -2.82388 0.856261 -2.90773 0
M  V30 2 C -2.57943 0.513556 -1.55321 0
M  V30 3 N -1.35646 0.325714 -1.04231 0
M  V30 4 C -1.07137 0.00709324 0.204685 0
M  V30 5 N -2.19358 -0.127392 0.995179 0
M  V30 6 C -3.43327 0.0481037 0.538509 0
M  V30 7 N -4.58154 -0.0934165 1.36344 0
M  V30 8 N -3.66616 0.374496 -0.751479 0
M  V30 9 C 0.212549 -0.211056 0.827091 0
M  V30 10 C 1.41047 -0.113733 0.173128 0
M  V30 11 C 1.47785 0.205997 -1.15349 0
M  V30 12 C 2.71548 0.302866 -1.81404 0
M  V30 13 C 3.8633 0.0674828 -1.09181 0
M  V30 14 C 3.78139 -0.253119 0.241478 0
M  V30 15 C 2.56683 -0.34748 0.886831 0
M  V30 16 C 2.49057 -0.667061 2.21469 0
M  V30 17 C 1.28471 -0.758225 2.84505 0
M  V30 18 N 0.187193 -0.536308 2.16741 0
M  V30 19 H -2.45771 1.74288 -3.31263 0
M  V30 20 H -3.37617 0.250235 -3.56833 0
M  V30 21 H -4.46959 -0.752053 2.18743 0
M  V30 22 H -5.47642 0.388676 1.20958 0
M  V30 23 H 0.604786 0.393664 -1.73826 0
M  V30 24 H 2.70626 0.558952 -2.86312 0
M  V30 25 H 4.83209 0.132858 -1.566 0
M  V30 26 H 4.67367 -0.447735 0.850739 0
M  V30 27 H 3.41839 -0.844784 2.74697 0
M  V30 28 H 1.26004 -1.01647 3.91021 0
M  V30 END ATOM
M  V30 BEGIN BOND
M  V30 1 1 1 2
M  V30 2 2 2 3
M  V30 3 1 3 4
M  V30 4 2 4 5
M  V30 5 1 5 6
M  V30 6 1 6 7
M  V30 7 2 6 8
M  V30 8 1 4 9
M  V30 9 1 9 10
M  V30 10 2 10 11
M  V30 11 1 11 12
M  V30 12 2 12 13
M  V30 13 1 13 14
M  V30 14 2 14 15
M  V30 15 1 15 16
M  V30 16 2 16 17
M  V30 17 1 17 18
M  V30 18 1 8 2
M  V30 19 2 18 9
M  V30 20 1 15 10
M  V30 21 1 1 19
M  V30 22 1 1 20
M  V30 23 1 7 21
M  V30 24 1 7 22
M  V30 25 1 11 23
M  V30 26 1 12 24
M  V30 27 1 13 25
M  V30 28 1 14 26
M  V30 29 1 16 27
M  V30 30 1 17 28
M  V30 END BOND
M  V30 END CTAB
M  END
