
     RDKit          3D

  0  0  0  0  0  0  0  0  0  0999 V3000
M  V30 BEGIN CTAB
M  V30 COUNTS 44 44 0 0 0
M  V30 BEGIN ATOM
M  V30 1 N -2.6876 2.64672 0.243373 0
M  V30 2 C -2.67655 1.64393 -0.80006 0
M  V30 3 C -2.18056 0.321136 -0.348974 0
M  V30 4 N -0.802614 0.541019 0.127437 0
M  V30 5 C 0.304458 -0.0775244 -0.494075 0
M  V30 6 O 0.0822235 -0.827487 -1.47331 0
M  V30 7 C 1.66708 0.176668 0.0235186 0
M  V30 8 C 2.72559 -0.55066 -0.743247 0
M  V30 9 C 4.06309 -0.254214 -0.169276 0
M  V30 10 C 5.20511 -0.924542 -0.621566 0
M  V30 11 C 6.4499 -0.661093 -0.0972556 0
M  V30 12 C 6.57187 0.273952 0.884576 0
M  V30 13 C 5.46999 0.949283 1.35024 0
M  V30 14 C 4.22333 0.685206 0.824947 0
M  V30 15 N 2.52068 -1.97306 -0.83825 0
M  V30 16 C -2.90671 -0.368867 0.730436 0
M  V30 17 C -4.32648 -0.725304 0.521631 0
M  V30 18 C -4.55107 -1.6431 -0.662775 0
M  V30 19 C -5.32656 0.367418 0.498007 0
M  V30 20 H -3.58668 3.16891 0.296928 0
M  V30 21 H -2.34482 2.30472 1.15121 0
M  V30 22 H -1.8964 2.03143 -1.5337 0
M  V30 23 H -3.60251 1.65704 -1.38245 0
M  V30 24 H -2.10623 -0.373516 -1.21476 0
M  V30 25 H -0.662901 1.16852 0.940055 0
M  V30 26 H 1.77355 -0.053443 1.09293 0
M  V30 27 H 1.85331 1.27079 -0.136863 0
M  V30 28 H 2.74692 -0.131129 -1.79374 0
M  V30 29 H 5.08982 -1.66973 -1.40774 0
M  V30 30 H 7.27838 -1.22667 -0.506516 0
M  V30 31 H 7.56612 0.464203 1.28269 0
M  V30 32 H 5.61692 1.69316 2.14154 0
M  V30 33 H 3.36765 1.22466 1.20378 0
M  V30 34 H 3.04256 -2.43613 -0.0689124 0
M  V30 35 H 2.75107 -2.30125 -1.77778 0
M  V30 36 H -2.36031 -1.34545 0.915241 0
M  V30 37 H -2.81577 0.141877 1.73302 0
M  V30 38 H -4.61069 -1.37619 1.41942 0
M  V30 39 H -3.79147 -2.45938 -0.70483 0
M  V30 40 H -4.55844 -1.06719 -1.61273 0
M  V30 41 H -5.54341 -2.13671 -0.592092 0
M  V30 42 H -6.31072 -0.0683604 0.868666 0
M  V30 43 H -5.12728 1.17108 1.24216 0
M  V30 44 H -5.59382 0.74927 -0.510895 0
M  V30 END ATOM
M  V30 BEGIN BOND
M  V30 1 1 1 2
M  V30 2 1 2 3
M  V30 3 1 3 4
M  V30 4 1 4 5
M  V30 5 2 5 6
M  V30 6 1 5 7
M  V30 7 1 7 8
M  V30 8 1 8 9
M  V30 9 2 9 10
M  V30 10 1 10 11
M  V30 11 2 11 12
M  V30 12 1 12 13
M  V30 13 2 13 14
M  V30 14 1 8 15
M  V30 15 1 3 16
M  V30 16 1 16 17
M  V30 17 1 17 18
M  V30 18 1 17 19
M  V30 19 1 14 9
M  V30 20 1 1 20
M  V30 21 1 1 21
M  V30 22 1 2 22
M  V30 23 1 2 23
M  V30 24 1 3 24
M  V30 25 1 4 25
M  V30 26 1 7 26
M  V30 27 1 7 27
M  V30 28 1 8 28
M  V30 29 1 10 29
M  V30 30 1 11 30
M  V30 31 1 12 31
M  V30 32 1 13 32
M  V30 33 1 14 33
M  V30 34 1 15 34
M  V30 35 1 15 35
M  V30 36 1 16 36
M  V30 37 1 16 37
M  V30 38 1 17 38
M  V30 39 1 18 39
M  V30 40 1 18 40
M  V30 41 1 18 41
M  V30 42 1 19 42
M  V30 43 1 19 43
M  V30 44 1 19 44
M  V30 END BOND
M  V30 END CTAB
M  END
