
     RDKit          3D

  0  0  0  0  0  0  0  0  0  0999 V3000
M  V30 BEGIN CTAB
M  V30 COUNTS 56 58 0 0 0
M  V30 BEGIN ATOM
M  V30 1 O -2.58994 4.01344 -1.88443 0
M  V30 2 C -2.87021 2.77235 -2.05639 0
M  V30 3 N -1.98785 1.75372 -1.70233 0
M  V30 4 C -0.706777 1.8951 -1.12793 0
M  V30 5 C 0.0672646 3.01709 -1.27923 0
M  V30 6 C 1.31076 3.09026 -0.66189 0
M  V30 7 C 1.80422 2.05144 0.11505 0
M  V30 8 C 1.04162 0.920606 0.277029 0
M  V30 9 C -0.180024 0.869859 -0.34026 0
M  V30 10 S 1.60559 -0.392146 1.24349 0
M  V30 11 O 0.556855 -1.4964 1.20648 0
M  V30 12 O 1.71978 -0.00410164 2.69593 0
M  V30 13 N 3.06429 -1.07379 0.697207 0
M  V30 14 C 2.95443 -1.63756 -0.629403 0
M  V30 15 C 4.31498 -2.27809 -0.924051 0
M  V30 16 C 5.38574 -1.31057 -0.538717 0
M  V30 17 C 5.66035 -1.19309 0.917735 0
M  V30 18 C 4.9465 -2.20294 1.78176 0
M  V30 19 C 3.4467 -2.13593 1.60371 0
M  V30 20 C 3.12055 2.17546 0.736135 0
M  V30 21 C -4.19778 2.53012 -2.66112 0
M  V30 22 S -4.75654 0.856223 -2.76476 0
M  V30 23 C -5.24285 0.0994565 -1.23223 0
M  V30 24 N -4.39231 -0.581364 -0.479363 0
M  V30 25 C -4.78248 -1.15721 0.658505 0
M  V30 26 N -3.84849 -1.89466 1.43436 0
M  V30 27 C -6.09823 -1.05888 1.08905 0
M  V30 28 C -6.96015 -0.340821 0.279936 0
M  V30 29 N -6.54972 0.223139 -0.847426 0
M  V30 30 N -8.31517 -0.256966 0.737073 0
M  V30 31 H -2.28844 0.77446 -1.90428 0
M  V30 32 H -0.257594 3.84946 -1.87867 0
M  V30 33 H 1.90558 3.99634 -0.801972 0
M  V30 34 H -0.802021 -0.00833866 -0.2292 0
M  V30 35 H 2.15348 -2.4053 -0.592789 0
M  V30 36 H 2.72039 -0.831299 -1.34681 0
M  V30 37 H 4.33272 -3.22234 -0.363182 0
M  V30 38 H 4.34619 -2.45131 -2.01594 0
M  V30 39 H 6.33656 -1.49761 -1.11974 0
M  V30 40 H 5.03942 -0.29401 -0.889783 0
M  V30 41 H 6.75843 -1.36834 1.08504 0
M  V30 42 H 5.45887 -0.178312 1.3387 0
M  V30 43 H 5.38491 -3.19051 1.61691 0
M  V30 44 H 5.17454 -1.9094 2.83867 0
M  V30 45 H 3.07929 -3.11921 1.235 0
M  V30 46 H 2.93876 -1.97158 2.59994 0
M  V30 47 H 3.23588 1.62064 1.67423 0
M  V30 48 H 3.89593 1.89764 -0.0260442 0
M  V30 49 H 3.34878 3.23691 0.987803 0
M  V30 50 H -4.19358 2.97917 -3.69075 0
M  V30 51 H -4.90363 3.18353 -2.04711 0
M  V30 52 H -3.72382 -2.90969 1.14504 0
M  V30 53 H -3.35198 -1.43703 2.21237 0
M  V30 54 H -6.43587 -1.51698 2.00392 0
M  V30 55 H -8.87761 -1.13258 0.935683 0
M  V30 56 H -8.79628 0.651926 0.889026 0
M  V30 END ATOM
M  V30 BEGIN BOND
M  V30 1 2 1 2
M  V30 2 1 2 3
M  V30 3 1 3 4
M  V30 4 2 4 5
M  V30 5 1 5 6
M  V30 6 2 6 7
M  V30 7 1 7 8
M  V30 8 2 8 9
M  V30 9 1 8 10
M  V30 10 2 10 11
M  V30 11 2 10 12
M  V30 12 1 10 13
M  V30 13 1 13 14
M  V30 14 1 14 15
M  V30 15 1 15 16
M  V30 16 1 16 17
M  V30 17 1 17 18
M  V30 18 1 18 19
M  V30 19 1 7 20
M  V30 20 1 2 21
M  V30 21 1 21 22
M  V30 22 1 22 23
M  V30 23 2 23 24
M  V30 24 1 24 25
M  V30 25 1 25 26
M  V30 26 2 25 27
M  V30 27 1 27 28
M  V30 28 2 28 29
M  V30 29 1 28 30
M  V30 30 1 9 4
M  V30 31 1 19 13
M  V30 32 1 29 23
M  V30 33 1 3 31
M  V30 34 1 5 32
M  V30 35 1 6 33
M  V30 36 1 9 34
M  V30 37 1 14 35
M  V30 38 1 14 36
M  V30 39 1 15 37
M  V30 40 1 15 38
M  V30 41 1 16 39
M  V30 42 1 16 40
M  V30 43 1 17 41
M  V30 44 1 17 42
M  V30 45 1 18 43
M  V30 46 1 18 44
M  V30 47 1 19 45
M  V30 48 1 19 46
M  V30 49 1 20 47
M  V30 50 1 20 48
M  V30 51 1 20 49
M  V30 52 1 21 50
M  V30 53 1 21 51
M  V30 54 1 26 52
M  V30 55 1 26 53
M  V30 56 1 27 54
M  V30 57 1 30 55
M  V30 58 1 30 56
M  V30 END BOND
M  V30 END CTAB
M  END
