
     RDKit          3D

  0  0  0  0  0  0  0  0  0  0999 V3000
M  V30 BEGIN CTAB
M  V30 COUNTS 37 38 0 0 0
M  V30 BEGIN ATOM
M  V30 1 C -2.97865 2.19944 0.300526 0
M  V30 2 C -1.85264 1.18213 0.547175 0
M  V30 3 N -1.88091 0.267666 -0.525993 0
M  V30 4 C -3.05356 -0.581519 -0.544641 0
M  V30 5 C -2.54426 -1.97309 -0.83566 0
M  V30 6 C -1.14901 -1.88071 -0.228852 0
M  V30 7 C -0.74688 -0.553365 -0.758141 0
M  V30 8 C 0.564683 -0.064417 -0.486828 0
M  V30 9 C 0.994352 1.15878 -0.961017 0
M  V30 10 C 2.25254 1.6616 -0.712201 0
M  V30 11 C 3.14863 0.942043 0.0384425 0
M  V30 12 C 2.76569 -0.275014 0.528618 0
M  V30 13 C 1.4871 -0.772276 0.268066 0
M  V30 14 N 3.63604 -1.07374 1.31321 0
M  V30 15 C 4.51655 1.40903 0.352804 0
M  V30 16 N -1.3174 -2.03446 1.16804 0
M  V30 17 H -2.60877 3.23454 0.472545 0
M  V30 18 H -3.83811 2.00196 0.965017 0
M  V30 19 H -3.3459 2.14289 -0.744082 0
M  V30 20 H -0.932311 1.72793 0.726204 0
M  V30 21 H -2.10244 0.67949 1.51697 0
M  V30 22 H -3.77616 -0.313349 -1.33724 0
M  V30 23 H -3.61918 -0.531971 0.407949 0
M  V30 24 H -2.41414 -2.11657 -1.9112 0
M  V30 25 H -3.15209 -2.75933 -0.348932 0
M  V30 26 H -0.512311 -2.71066 -0.605969 0
M  V30 27 H -0.78225 -0.723014 -1.89366 0
M  V30 28 H 0.332614 1.7744 -1.55984 0
M  V30 29 H 2.56945 2.62169 -1.09165 0
M  V30 30 H 1.18862 -1.71564 0.644634 0
M  V30 31 H 3.41546 -1.1841 2.32577 0
M  V30 32 H 4.46836 -1.54564 0.930053 0
M  V30 33 H 4.59256 1.51523 1.46832 0
M  V30 34 H 5.27285 0.661959 0.0583352 0
M  V30 35 H 4.76969 2.37397 -0.114501 0
M  V30 36 H -2.21465 -1.69802 1.57441 0
M  V30 37 H -1.15356 -3.04786 1.41707 0
M  V30 END ATOM
M  V30 BEGIN BOND
M  V30 1 1 1 2
M  V30 2 1 2 3
M  V30 3 1 3 4
M  V30 4 1 4 5
M  V30 5 1 5 6
M  V30 6 1 6 7
M  V30 7 1 7 8
M  V30 8 2 8 9
M  V30 9 1 9 10
M  V30 10 2 10 11
M  V30 11 1 11 12
M  V30 12 2 12 13
M  V30 13 1 12 14
M  V30 14 1 11 15
M  V30 15 1 6 16
M  V30 16 1 7 3
M  V30 17 1 13 8
M  V30 18 1 1 17
M  V30 19 1 1 18
M  V30 20 1 1 19
M  V30 21 1 2 20
M  V30 22 1 2 21
M  V30 23 1 4 22
M  V30 24 1 4 23
M  V30 25 1 5 24
M  V30 26 1 5 25
M  V30 27 1 6 26
M  V30 28 1 7 27
M  V30 29 1 9 28
M  V30 30 1 10 29
M  V30 31 1 13 30
M  V30 32 1 14 31
M  V30 33 1 14 32
M  V30 34 1 15 33
M  V30 35 1 15 34
M  V30 36 1 15 35
M  V30 37 1 16 36
M  V30 38 1 16 37
M  V30 END BOND
M  V30 END CTAB
M  END
