
     RDKit          3D

  0  0  0  0  0  0  0  0  0  0999 V3000
M  V30 BEGIN CTAB
M  V30 COUNTS 29 29 0 0 0
M  V30 BEGIN ATOM
M  V30 1 C -3.19319 1.43483 1.27053 0
M  V30 2 S -1.71658 0.476428 1.60265 0
M  V30 3 C -1.30597 -0.585545 0.187086 0
M  V30 4 C -0.0891166 -1.39962 0.419953 0
M  V30 5 C 1.14601 -0.656837 0.694872 0
M  V30 6 N 1.6703 -0.403219 1.9349 0
M  V30 7 C 2.78648 0.314817 1.79374 0
M  V30 8 N 3.02122 0.545761 0.510547 0
M  V30 9 C 2.01097 -0.0527526 -0.173557 0
M  V30 10 N 1.97852 -0.0082952 -1.61105 0
M  V30 11 N 4.08281 1.25578 -0.0455815 0
M  V30 12 C -1.25165 0.178549 -1.10391 0
M  V30 13 C -2.50293 -1.56075 0.0589908 0
M  V30 14 H -4.01498 1.22184 2.01448 0
M  V30 15 H -3.63321 1.25932 0.285184 0
M  V30 16 H -2.92984 2.51076 1.34794 0
M  V30 17 H -0.300741 -2.12079 1.27465 0
M  V30 18 H 0.0644286 -2.11734 -0.448193 0
M  V30 19 H 3.45925 0.691815 2.58234 0
M  V30 20 H 2.24983 -0.850917 -2.13114 0
M  V30 21 H 1.68594 0.859995 -2.11344 0
M  V30 22 H 3.94235 1.89658 -0.856005 0
M  V30 23 H 5.0605 1.17131 0.330603 0
M  V30 24 H -2.30517 0.536166 -1.37601 0
M  V30 25 H -0.706128 1.13203 -0.962673 0
M  V30 26 H -0.956728 -0.421744 -1.96287 0
M  V30 27 H -3.33507 -0.99904 -0.411007 0
M  V30 28 H -2.18056 -2.31883 -0.686916 0
M  V30 29 H -2.73674 -1.99031 1.03289 0
M  V30 END ATOM
M  V30 BEGIN BOND
M  V30 1 1 1 2
M  V30 2 1 2 3
M  V30 3 1 3 4
M  V30 4 1 4 5
M  V30 5 1 5 6
M  V30 6 2 6 7
M  V30 7 1 7 8
M  V30 8 1 8 9
M  V30 9 1 9 10
M  V30 10 1 8 11
M  V30 11 1 3 12
M  V30 12 1 3 13
M  V30 13 2 9 5
M  V30 14 1 1 14
M  V30 15 1 1 15
M  V30 16 1 1 16
M  V30 17 1 4 17
M  V30 18 1 4 18
M  V30 19 1 7 19
M  V30 20 1 10 20
M  V30 21 1 10 21
M  V30 22 1 11 22
M  V30 23 1 11 23
M  V30 24 1 12 24
M  V30 25 1 12 25
M  V30 26 1 12 26
M  V30 27 1 13 27
M  V30 28 1 13 28
M  V30 29 1 13 29
M  V30 END BOND
M  V30 END CTAB
M  END
