
     RDKit          3D

  0  0  0  0  0  0  0  0  0  0999 V3000
M  V30 BEGIN CTAB
M  V30 COUNTS 55 57 0 0 0
M  V30 BEGIN ATOM
M  V30 1 C 8.1716 0.985827 0.358138 0
M  V30 2 C 6.66773 1.13405 0.409211 0
M  V30 3 C 6.14323 0.422325 1.64038 0
M  V30 4 C 6.07583 0.377654 -0.783061 0
M  V30 5 N 4.6385 0.472526 -0.796565 0
M  V30 6 C 3.80894 -0.646948 -0.57463 0
M  V30 7 O 4.28142 -1.80514 -0.348317 0
M  V30 8 C 2.35102 -0.54765 -0.589575 0
M  V30 9 C 1.54457 -1.6029 -0.185457 0
M  V30 10 C 0.176949 -1.54875 -0.18523 0
M  V30 11 C -0.474949 -0.421024 -0.594794 0
M  V30 12 C 0.277116 0.650219 -1.00385 0
M  V30 13 C 1.67643 0.590216 -1.00232 0
M  V30 14 N -1.89609 -0.391822 -0.579881 0
M  V30 15 C -2.67365 0.74831 -1.01987 0
M  V30 16 C -2.63685 -1.55835 -0.0918163 0
M  V30 17 C -4.10554 -1.3511 -0.156044 0
M  V30 18 N -4.76086 -0.577694 0.736691 0
M  V30 19 C -6.10093 -0.387475 0.687006 0
M  V30 20 C -6.75275 0.406234 1.60611 0
M  V30 21 N -5.97968 1.02701 2.61803 0
M  V30 22 N -8.07966 0.588996 1.5474 0
M  V30 23 C -8.81345 0.000979875 0.587327 0
M  V30 24 N -10.1984 0.206794 0.547552 0
M  V30 25 N -8.17654 -0.771056 -0.305397 0
M  V30 26 C -6.85028 -0.987763 -0.293023 0
M  V30 27 N -6.21007 -1.762 -1.1898 0
M  V30 28 C -4.8723 -1.95065 -1.13869 0
M  V30 29 C 6.66784 0.828077 -2.07248 0
M  V30 30 O 8.02921 0.834543 -2.32649 0
M  V30 31 O 5.91996 1.23994 -3.02796 0
M  V30 32 H 8.49426 0.0104915 -0.0629742 0
M  V30 33 H 8.63488 1.86462 -0.123759 0
M  V30 34 H 8.50859 1.05096 1.43557 0
M  V30 35 H 6.42782 2.19227 0.385434 0
M  V30 36 H 5.08308 0.744008 1.7727 0
M  V30 37 H 6.69797 0.751893 2.55049 0
M  V30 38 H 6.19549 -0.669097 1.54463 0
M  V30 39 H 6.37921 -0.676204 -0.632546 0
M  V30 40 H 4.1964 1.39552 -0.974578 0
M  V30 41 H 2.05761 -2.51609 0.146561 0
M  V30 42 H -0.385148 -2.40955 0.142985 0
M  V30 43 H -0.228703 1.55502 -1.33023 0
M  V30 44 H 2.21647 1.44509 -1.32895 0
M  V30 45 H -2.86838 1.48017 -0.214484 0
M  V30 46 H -2.15814 1.28065 -1.8528 0
M  V30 47 H -3.61891 0.364811 -1.46152 0
M  V30 48 H -2.39307 -2.40509 -0.756928 0
M  V30 49 H -2.28154 -1.72837 0.942628 0
M  V30 50 H -5.94832 0.595383 3.56104 0
M  V30 51 H -5.45382 1.90347 2.40901 0
M  V30 52 H -10.692 0.216846 -0.370848 0
M  V30 53 H -10.7097 0.345902 1.4344 0
M  V30 54 H -4.41182 -2.59381 -1.90001 0
M  V30 55 H 8.40939 1.59775 -2.84091 0
M  V30 END ATOM
M  V30 BEGIN BOND
M  V30 1 1 1 2
M  V30 2 1 2 3
M  V30 3 1 2 4
M  V30 4 1 4 5
M  V30 5 1 5 6
M  V30 6 2 6 7
M  V30 7 1 6 8
M  V30 8 2 8 9
M  V30 9 1 9 10
M  V30 10 2 10 11
M  V30 11 1 11 12
M  V30 12 2 12 13
M  V30 13 1 11 14
M  V30 14 1 14 15
M  V30 15 1 14 16
M  V30 16 1 16 17
M  V30 17 2 17 18
M  V30 18 1 18 19
M  V30 19 2 19 20
M  V30 20 1 20 21
M  V30 21 1 20 22
M  V30 22 2 22 23
M  V30 23 1 23 24
M  V30 24 1 23 25
M  V30 25 2 25 26
M  V30 26 1 26 27
M  V30 27 2 27 28
M  V30 28 1 4 29
M  V30 29 1 29 30
M  V30 30 2 29 31
M  V30 31 1 13 8
M  V30 32 1 28 17
M  V30 33 1 26 19
M  V30 34 1 1 32
M  V30 35 1 1 33
M  V30 36 1 1 34
M  V30 37 1 2 35
M  V30 38 1 3 36
M  V30 39 1 3 37
M  V30 40 1 3 38
M  V30 41 1 4 39
M  V30 42 1 5 40
M  V30 43 1 9 41
M  V30 44 1 10 42
M  V30 45 1 12 43
M  V30 46 1 13 44
M  V30 47 1 15 45
M  V30 48 1 15 46
M  V30 49 1 15 47
M  V30 50 1 16 48
M  V30 51 1 16 49
M  V30 52 1 21 50
M  V30 53 1 21 51
M  V30 54 1 24 52
M  V30 55 1 24 53
M  V30 56 1 28 54
M  V30 57 1 30 55
M  V30 END BOND
M  V30 END CTAB
M  END
