
     RDKit          3D

  0  0  0  0  0  0  0  0  0  0999 V3000
M  V30 BEGIN CTAB
M  V30 COUNTS 34 36 0 0 0
M  V30 BEGIN ATOM
M  V30 1 N 5.76019 0.389379 -1.20862 0
M  V30 2 C 4.9397 -0.629986 -0.610206 0
M  V30 3 C 3.85715 -0.131151 0.234639 0
M  V30 4 N 4.03931 0.0570916 1.57013 0
M  V30 5 C 3.05975 0.501218 2.36725 0
M  V30 6 C 1.81416 0.784151 1.8364 0
M  V30 7 C 1.57573 0.612263 0.488653 0
M  V30 8 C 2.60467 0.15458 -0.299072 0
M  V30 9 C 0.250943 0.892514 -0.0408528 0
M  V30 10 O 0.140816 1.96383 -0.697734 0
M  V30 11 N -0.828856 0.00324393 0.177786 0
M  V30 12 C -0.724227 -1.15173 0.858044 0
M  V30 13 C -1.97178 -1.7355 0.841855 0
M  V30 14 C -2.84544 -0.930445 0.144946 0
M  V30 15 C -2.08952 0.165188 -0.262488 0
M  V30 16 C -2.73854 1.15645 -0.99272 0
M  V30 17 C -4.07482 1.08248 -1.31706 0
M  V30 18 C -4.82827 -0.0247 -0.904292 0
M  V30 19 C -4.18171 -1.00042 -0.180903 0
M  V30 20 N -6.20276 -0.0801604 -1.25333 0
M  V30 21 H 5.98449 1.16015 -0.525325 0
M  V30 22 H 6.66952 -0.0229136 -1.51594 0
M  V30 23 H 4.62468 -1.34681 -1.39446 0
M  V30 24 H 5.64261 -1.23709 0.0403399 0
M  V30 25 H 3.19592 0.65352 3.42332 0
M  V30 26 H 1.01193 1.1423 2.45945 0
M  V30 27 H 2.46646 -0.00536509 -1.36921 0
M  V30 28 H 0.181109 -1.521 1.32134 0
M  V30 29 H -2.26882 -2.69149 1.2973 0
M  V30 30 H -2.21337 2.03307 -1.33631 0
M  V30 31 H -4.59995 1.83832 -1.87828 0
M  V30 32 H -4.7558 -1.86135 0.139979 0
M  V30 33 H -6.90147 -0.518428 -0.61317 0
M  V30 34 H -6.59379 0.298799 -2.14644 0
M  V30 END ATOM
M  V30 BEGIN BOND
M  V30 1 1 1 2
M  V30 2 1 2 3
M  V30 3 2 3 4
M  V30 4 1 4 5
M  V30 5 2 5 6
M  V30 6 1 6 7
M  V30 7 2 7 8
M  V30 8 1 7 9
M  V30 9 2 9 10
M  V30 10 1 9 11
M  V30 11 1 11 12
M  V30 12 2 12 13
M  V30 13 1 13 14
M  V30 14 2 14 15
M  V30 15 1 15 16
M  V30 16 2 16 17
M  V30 17 1 17 18
M  V30 18 2 18 19
M  V30 19 1 18 20
M  V30 20 1 8 3
M  V30 21 1 15 11
M  V30 22 1 19 14
M  V30 23 1 1 21
M  V30 24 1 1 22
M  V30 25 1 2 23
M  V30 26 1 2 24
M  V30 27 1 5 25
M  V30 28 1 6 26
M  V30 29 1 8 27
M  V30 30 1 12 28
M  V30 31 1 13 29
M  V30 32 1 16 30
M  V30 33 1 17 31
M  V30 34 1 19 32
M  V30 35 1 20 33
M  V30 36 1 20 34
M  V30 END BOND
M  V30 END CTAB
M  END
