
     RDKit          3D

  0  0  0  0  0  0  0  0  0  0999 V3000
M  V30 BEGIN CTAB
M  V30 COUNTS 47 49 0 0 0
M  V30 BEGIN ATOM
M  V30 1 N -5.66177 -0.614675 1.00289 0
M  V30 2 C -5.66946 0.748866 0.504872 0 CFG=2
M  V30 3 C -5.35609 0.892169 -0.955842 0
M  V30 4 C -4.04602 1.52111 -0.614865 0 CFG=1
M  V30 5 C -4.43421 1.53946 0.833617 0
M  V30 6 C -2.84019 0.666311 -0.842059 0
M  V30 7 C -1.75846 1.11838 -1.55167 0
M  V30 8 C -0.646245 0.2815 -1.7414 0
M  V30 9 N 0.44852 0.746769 -2.50538 0
M  V30 10 C 1.64336 -7.27874e-05 -2.6982 0
M  V30 11 C 2.67426 0.0564155 -1.63386 0
M  V30 12 C 2.30554 -0.406117 -0.268963 0
M  V30 13 N 3.5318 -0.236868 0.548878 0
M  V30 14 N 3.85226 0.852344 1.216 0
M  V30 15 C 5.0222 0.693498 1.85383 0
M  V30 16 N 5.436 -0.551794 1.5625 0
M  V30 17 C 4.5124 -1.12317 0.756084 0
M  V30 18 C 4.57 -2.50015 0.192697 0
M  V30 19 C 5.69716 1.70823 2.70317 0
M  V30 20 N -0.741767 -0.932867 -1.1916 0
M  V30 21 C -1.76885 -1.40652 -0.499414 0
M  V30 22 N -2.8266 -0.577438 -0.332746 0
M  V30 23 N -1.77987 -2.7186 0.0499357 0
M  V30 24 H -6.67619 -0.917123 1.05382 0
M  V30 25 H -5.26037 -0.629131 1.96919 0
M  V30 26 H -6.59709 1.31881 0.805972 0
M  V30 27 H -5.28456 -0.128673 -1.41403 0
M  V30 28 H -6.07755 1.52879 -1.5049 0
M  V30 29 H -3.95489 2.53245 -1.07631 0
M  V30 30 H -4.62708 2.54669 1.26165 0
M  V30 31 H -3.73392 0.91826 1.46345 0
M  V30 32 H -1.76292 2.11165 -1.96157 0
M  V30 33 H 0.416931 1.70137 -2.97804 0
M  V30 34 H 2.1553 0.29982 -3.67083 0
M  V30 35 H 1.42724 -1.10349 -2.86327 0
M  V30 36 H 3.51306 -0.631104 -1.97811 0
M  V30 37 H 3.11355 1.09263 -1.51712 0
M  V30 38 H 2.03287 -1.48952 -0.231718 0
M  V30 39 H 1.5636 0.226194 0.256845 0
M  V30 40 H 5.35569 -3.1109 0.671668 0
M  V30 41 H 4.66993 -2.49152 -0.921908 0
M  V30 42 H 3.60463 -3.01953 0.417257 0
M  V30 43 H 6.22448 1.2126 3.54383 0
M  V30 44 H 4.94118 2.38584 3.13784 0
M  V30 45 H 6.35078 2.30952 2.0607 0
M  V30 46 H -1.89873 -2.91438 1.06906 0
M  V30 47 H -1.65992 -3.50604 -0.632359 0
M  V30 END ATOM
M  V30 BEGIN BOND
M  V30 1 1 1 2
M  V30 2 1 2 3
M  V30 3 1 3 4
M  V30 4 1 4 5
M  V30 5 1 4 6
M  V30 6 2 6 7
M  V30 7 1 7 8
M  V30 8 1 8 9
M  V30 9 1 9 10
M  V30 10 1 10 11
M  V30 11 1 11 12
M  V30 12 1 12 13
M  V30 13 1 13 14
M  V30 14 2 14 15
M  V30 15 1 15 16
M  V30 16 2 16 17
M  V30 17 1 17 18
M  V30 18 1 15 19
M  V30 19 2 8 20
M  V30 20 1 20 21
M  V30 21 2 21 22
M  V30 22 1 21 23
M  V30 23 1 5 2
M  V30 24 1 22 6
M  V30 25 1 17 13
M  V30 26 1 1 24
M  V30 27 1 1 25
M  V30 28 1 2 26 CFG=3
M  V30 29 1 3 27
M  V30 30 1 3 28
M  V30 31 1 4 29 CFG=3
M  V30 32 1 5 30
M  V30 33 1 5 31
M  V30 34 1 7 32
M  V30 35 1 9 33
M  V30 36 1 10 34
M  V30 37 1 10 35
M  V30 38 1 11 36
M  V30 39 1 11 37
M  V30 40 1 12 38
M  V30 41 1 12 39
M  V30 42 1 18 40
M  V30 43 1 18 41
M  V30 44 1 18 42
M  V30 45 1 19 43
M  V30 46 1 19 44
M  V30 47 1 19 45
M  V30 48 1 23 46
M  V30 49 1 23 47
M  V30 END BOND
M  V30 END CTAB
M  END
