
     RDKit          3D

  0  0  0  0  0  0  0  0  0  0999 V3000
M  V30 BEGIN CTAB
M  V30 COUNTS 27 28 0 0 0
M  V30 BEGIN ATOM
M  V30 1 N -3.18687 -2.37938 -0.285885 0
M  V30 2 C -2.42405 -1.17868 -0.262513 0
M  V30 3 C -3.1133 0.0101886 -0.334102 0
M  V30 4 C -2.39013 1.19593 -0.312992 0
M  V30 5 N -3.0358 2.44983 -0.383158 0
M  V30 6 N -1.05066 1.12239 -0.223515 0
M  V30 7 C -0.350514 -0.0309971 -0.152001 0
M  V30 8 N -1.08348 -1.16615 -0.174876 0
M  V30 9 N 1.06668 -0.0527928 -0.0585657 0
M  V30 10 C 1.7457 -1.32154 0.0140456 0
M  V30 11 C 3.05212 -1.11967 0.751085 0
M  V30 12 O 3.77816 -0.155021 0.0581824 0
M  V30 13 C 3.21043 1.07958 0.37245 0
M  V30 14 C 1.77991 1.18386 -0.0391055 0
M  V30 15 H -4.1526 -2.43072 0.129621 0
M  V30 16 H -2.80424 -3.25491 -0.722003 0
M  V30 17 H -4.18461 0.081618 -0.405949 0
M  V30 18 H -3.57899 2.78522 0.424683 0
M  V30 19 H -2.95526 3.01304 -1.24145 0
M  V30 20 H 1.15198 -2.0913 0.568336 0
M  V30 21 H 1.95377 -1.64288 -1.02894 0
M  V30 22 H 3.67626 -2.03531 0.771793 0
M  V30 23 H 2.78013 -0.769037 1.77363 0
M  V30 24 H 3.79033 1.84211 -0.188269 0
M  V30 25 H 3.29962 1.3015 1.45297 0
M  V30 26 H 1.73869 1.59694 -1.08954 0
M  V30 27 H 1.28671 1.96618 0.586069 0
M  V30 END ATOM
M  V30 BEGIN BOND
M  V30 1 1 1 2
M  V30 2 2 2 3
M  V30 3 1 3 4
M  V30 4 1 4 5
M  V30 5 2 4 6
M  V30 6 1 6 7
M  V30 7 2 7 8
M  V30 8 1 7 9
M  V30 9 1 9 10
M  V30 10 1 10 11
M  V30 11 1 11 12
M  V30 12 1 12 13
M  V30 13 1 13 14
M  V30 14 1 8 2
M  V30 15 1 14 9
M  V30 16 1 1 15
M  V30 17 1 1 16
M  V30 18 1 3 17
M  V30 19 1 5 18
M  V30 20 1 5 19
M  V30 21 1 10 20
M  V30 22 1 10 21
M  V30 23 1 11 22
M  V30 24 1 11 23
M  V30 25 1 13 24
M  V30 26 1 13 25
M  V30 27 1 14 26
M  V30 28 1 14 27
M  V30 END BOND
M  V30 END CTAB
M  END
