
     RDKit          3D

  0  0  0  0  0  0  0  0  0  0999 V3000
M  V30 BEGIN CTAB
M  V30 COUNTS 64 67 0 0 0
M  V30 BEGIN ATOM
M  V30 1 C -8.2053 3.86338 -2.68308 0
M  V30 2 O -8.15143 2.6199 -2.10449 0
M  V30 3 C -7.11894 1.77852 -1.81686 0
M  V30 4 C -5.76445 2.01945 -2.06828 0
M  V30 5 C -4.83986 1.01261 -1.69572 0
M  V30 6 C -5.18877 -0.118766 -1.13044 0
M  V30 7 C -6.56629 -0.34263 -0.884285 0
M  V30 8 C -7.50916 0.569131 -1.2142 0
M  V30 9 C -4.36196 -1.21255 -0.668394 0
M  V30 10 C -3.49206 -1.14301 0.36181 0
M  V30 11 C -2.9217 -2.35526 0.799233 0
M  V30 12 C -3.21023 -3.57124 0.222088 0
M  V30 13 C -4.08501 -3.62882 -0.821442 0
M  V30 14 C -4.66259 -2.46378 -1.27101 0
M  V30 15 C -2.88195 0.0548874 0.934757 0
M  V30 16 O -1.53245 0.121836 0.60315 0
M  V30 17 C -0.354715 0.0393508 1.2425 0
M  V30 18 C 0.88489 0.261323 0.595426 0
M  V30 19 C 2.06637 0.162447 1.27438 0
M  V30 20 N 2.03715 -0.161782 2.61898 0
M  V30 21 C 0.897445 -0.371384 3.24031 0
M  V30 22 N 0.828178 -0.703409 4.63265 0
M  V30 23 N -0.199532 -0.263339 2.54388 0
M  V30 24 C 3.40963 0.342208 0.76322 0
M  V30 25 C 4.49074 -0.057865 1.55162 0
M  V30 26 C 5.79255 0.109407 1.23714 0
M  V30 27 C 6.12814 0.72088 0.0533057 0
M  V30 28 C 7.55712 0.903888 -0.264675 0
M  V30 29 C 8.10524 -0.0844556 -1.24275 0 CFG=2
M  V30 30 N 7.94976 -1.43614 -0.79052 0
M  V30 31 C 9.57248 0.170422 -1.34918 0
M  V30 32 O 10.5003 -0.784941 -1.07208 0
M  V30 33 O 9.89846 1.37251 -1.72507 0
M  V30 34 C 5.08659 1.13886 -0.775936 0
M  V30 35 C 3.74046 0.947865 -0.417239 0
M  V30 36 C -3.04629 0.115207 2.44621 0
M  V30 37 F -2.65093 -0.8125 3.26596 0
M  V30 38 F -4.445 0.353321 2.70869 0
M  V30 39 F -2.54462 1.38356 2.87635 0
M  V30 40 H -7.41193 4.571 -2.43372 0
M  V30 41 H -8.23148 3.74387 -3.80556 0
M  V30 42 H -9.16948 4.33992 -2.34833 0
M  V30 43 H -5.46279 2.93993 -2.5306 0
M  V30 44 H -3.80318 1.30065 -1.94178 0
M  V30 45 H -6.83655 -1.27206 -0.415258 0
M  V30 46 H -8.56877 0.375186 -1.0173 0
M  V30 47 H -2.20856 -2.40576 1.6141 0
M  V30 48 H -2.75859 -4.4932 0.581307 0
M  V30 49 H -4.32302 -4.59905 -1.29726 0
M  V30 50 H -5.37921 -2.46755 -2.09589 0
M  V30 51 H -3.37507 0.982725 0.511312 0
M  V30 52 H 0.932318 0.511865 -0.445668 0
M  V30 53 H 1.56651 -1.26715 5.09594 0
M  V30 54 H 0.0178001 -0.376686 5.18831 0
M  V30 55 H 4.25786 -0.550747 2.50459 0
M  V30 56 H 6.60944 -0.220526 1.88308 0
M  V30 57 H 7.74067 1.9318 -0.660779 0
M  V30 58 H 8.18556 0.80715 0.669299 0
M  V30 59 H 7.65642 0.119792 -2.24997 0
M  V30 60 H 8.83023 -1.94911 -0.870983 0
M  V30 61 H 7.17149 -1.88731 -1.33339 0
M  V30 62 H 11.1021 -1.22637 -1.78274 0
M  V30 63 H 5.29417 1.61196 -1.70324 0
M  V30 64 H 2.95176 1.28718 -1.09148 0
M  V30 END ATOM
M  V30 BEGIN BOND
M  V30 1 1 1 2
M  V30 2 1 2 3
M  V30 3 2 3 4
M  V30 4 1 4 5
M  V30 5 2 5 6
M  V30 6 1 6 7
M  V30 7 2 7 8
M  V30 8 1 6 9
M  V30 9 1 9 10
M  V30 10 2 10 11
M  V30 11 1 11 12
M  V30 12 2 12 13
M  V30 13 1 13 14
M  V30 14 1 10 15
M  V30 15 1 15 16
M  V30 16 1 16 17
M  V30 17 2 17 18
M  V30 18 1 18 19
M  V30 19 2 19 20
M  V30 20 1 20 21
M  V30 21 1 21 22
M  V30 22 2 21 23
M  V30 23 1 19 24
M  V30 24 2 24 25
M  V30 25 1 25 26
M  V30 26 2 26 27
M  V30 27 1 27 28
M  V30 28 1 28 29
M  V30 29 1 29 30
M  V30 30 1 29 31
M  V30 31 1 31 32
M  V30 32 2 31 33
M  V30 33 1 27 34
M  V30 34 2 34 35
M  V30 35 1 15 36
M  V30 36 1 36 37
M  V30 37 1 36 38
M  V30 38 1 36 39
M  V30 39 1 8 3
M  V30 40 2 14 9
M  V30 41 1 23 17
M  V30 42 1 35 24
M  V30 43 1 1 40
M  V30 44 1 1 41
M  V30 45 1 1 42
M  V30 46 1 4 43
M  V30 47 1 5 44
M  V30 48 1 7 45
M  V30 49 1 8 46
M  V30 50 1 11 47
M  V30 51 1 12 48
M  V30 52 1 13 49
M  V30 53 1 14 50
M  V30 54 1 15 51
M  V30 55 1 18 52
M  V30 56 1 22 53
M  V30 57 1 22 54
M  V30 58 1 25 55
M  V30 59 1 26 56
M  V30 60 1 28 57
M  V30 61 1 28 58
M  V30 62 1 29 59 CFG=3
M  V30 63 1 30 60
M  V30 64 1 30 61
M  V30 65 1 32 62
M  V30 66 1 34 63
M  V30 67 1 35 64
M  V30 END BOND
M  V30 END CTAB
M  END
