
     RDKit          3D

  0  0  0  0  0  0  0  0  0  0999 V3000
M  V30 BEGIN CTAB
M  V30 COUNTS 17 16 0 0 0
M  V30 BEGIN ATOM
M  V30 1 N -1.98071 -1.35551 0.493088 0
M  V30 2 C -1.39461 -0.0686983 0.237877 0
M  V30 3 S -1.91397 1.19052 1.13875 0
M  V30 4 C -0.374133 0.18268 -0.764062 0
M  V30 5 S 1.12344 -0.703404 -0.548648 0
M  V30 6 O 0.969054 -2.18027 -0.704564 0
M  V30 7 O 2.09625 -0.22533 -1.59846 0
M  V30 8 N 1.86097 -0.396394 0.982147 0
M  V30 9 C -0.0724224 1.65833 -0.830145 0
M  V30 10 H -2.00023 -2.13274 -0.197838 0
M  V30 11 H -2.42106 -1.55656 1.41418 0
M  V30 12 H -0.776076 -0.0832469 -1.78729 0
M  V30 13 H 2.26522 0.566988 0.921152 0
M  V30 14 H 2.69028 -1.06188 1.03617 0
M  V30 15 H 0.86964 1.87735 -1.36912 0
M  V30 16 H -0.884717 2.19561 -1.39015 0
M  V30 17 H -0.056922 2.09255 0.204559 0
M  V30 END ATOM
M  V30 BEGIN BOND
M  V30 1 1 1 2
M  V30 2 2 2 3
M  V30 3 1 2 4
M  V30 4 1 4 5
M  V30 5 2 5 6
M  V30 6 2 5 7
M  V30 7 1 5 8
M  V30 8 1 4 9
M  V30 9 1 1 10
M  V30 10 1 1 11
M  V30 11 1 4 12
M  V30 12 1 8 13
M  V30 13 1 8 14
M  V30 14 1 9 15
M  V30 15 1 9 16
M  V30 16 1 9 17
M  V30 END BOND
M  V30 END CTAB
M  END
