
     RDKit          3D

  0  0  0  0  0  0  0  0  0  0999 V3000
M  V30 BEGIN CTAB
M  V30 COUNTS 31 31 0 0 0
M  V30 BEGIN ATOM
M  V30 1 N 3.98269 -0.249975 -0.118891 0
M  V30 2 C 2.74248 0.325126 0.366717 0
M  V30 3 C 1.54466 -0.512949 -0.0369384 0
M  V30 4 C 0.319945 0.146372 0.500074 0
M  V30 5 C 0.0909595 1.53393 0.00123538 0
M  V30 6 C -1.30422 1.81483 0.527306 0
M  V30 7 C -2.01173 0.521318 0.17582 0
M  V30 8 C -0.958224 -0.556283 0.146978 0
M  V30 9 C -1.21369 -1.62181 1.19522 0
M  V30 10 C -0.909693 -1.16594 -1.23411 0
M  V30 11 N -2.66894 0.712533 -1.08222 0
M  V30 12 H 3.80576 -1.23435 -0.350637 0
M  V30 13 H 4.36225 0.318341 -0.909259 0
M  V30 14 H 2.61856 1.36737 0.0235429 0
M  V30 15 H 2.78587 0.33165 1.4685 0
M  V30 16 H 1.51976 -0.67698 -1.13089 0
M  V30 17 H 1.66068 -1.48886 0.478254 0
M  V30 18 H 0.399853 0.182439 1.60083 0
M  V30 19 H 0.824772 2.27828 0.361424 0
M  V30 20 H 0.0635656 1.54331 -1.12506 0
M  V30 21 H -1.22557 1.95729 1.63638 0
M  V30 22 H -1.76249 2.68697 0.0319158 0
M  V30 23 H -2.80098 0.28234 0.928361 0
M  V30 24 H -2.28369 -1.806 1.34162 0
M  V30 25 H -0.752111 -1.3475 2.17325 0
M  V30 26 H -0.66745 -2.54066 0.840072 0
M  V30 27 H -0.167678 -1.96511 -1.23861 0
M  V30 28 H -0.71969 -0.363598 -1.96253 0
M  V30 29 H -1.90609 -1.63777 -1.41586 0
M  V30 30 H -2.14452 1.24144 -1.78048 0
M  V30 31 H -3.22504 -0.0757551 -1.41202 0
M  V30 END ATOM
M  V30 BEGIN BOND
M  V30 1 1 1 2
M  V30 2 1 2 3
M  V30 3 1 3 4
M  V30 4 1 4 5
M  V30 5 1 5 6
M  V30 6 1 6 7
M  V30 7 1 7 8
M  V30 8 1 8 9
M  V30 9 1 8 10
M  V30 10 1 7 11
M  V30 11 1 8 4
M  V30 12 1 1 12
M  V30 13 1 1 13
M  V30 14 1 2 14
M  V30 15 1 2 15
M  V30 16 1 3 16
M  V30 17 1 3 17
M  V30 18 1 4 18
M  V30 19 1 5 19
M  V30 20 1 5 20
M  V30 21 1 6 21
M  V30 22 1 6 22
M  V30 23 1 7 23
M  V30 24 1 9 24
M  V30 25 1 9 25
M  V30 26 1 9 26
M  V30 27 1 10 27
M  V30 28 1 10 28
M  V30 29 1 10 29
M  V30 30 1 11 30
M  V30 31 1 11 31
M  V30 END BOND
M  V30 END CTAB
M  END
