
     RDKit          3D

  0  0  0  0  0  0  0  0  0  0999 V3000
M  V30 BEGIN CTAB
M  V30 COUNTS 43 45 0 0 0
M  V30 BEGIN ATOM
M  V30 1 C 0.0703145 2.93205 3.03747 0
M  V30 2 C 0.273854 2.48732 1.63348 0
M  V30 3 C 1.53528 2.23325 1.11038 0
M  V30 4 F 2.58341 2.41941 1.94651 0
M  V30 5 C 1.65275 1.82417 -0.197219 0
M  V30 6 O 2.90111 1.56988 -0.720117 0
M  V30 7 C 3.5053 0.340515 -0.813993 0
M  V30 8 C 3.25983 -0.448954 -1.93183 0
M  V30 9 C 3.84792 -1.68971 -2.06401 0
M  V30 10 C 4.68603 -2.13333 -1.06383 0
M  V30 11 C 4.93141 -1.35488 0.0437173 0
M  V30 12 N 5.79517 -1.81823 1.0696 0
M  V30 13 C 4.33654 -0.0940901 0.182329 0
M  V30 14 N 0.583657 1.65939 -0.996264 0
M  V30 15 C -0.680141 1.89658 -0.528789 0
M  V30 16 O -1.75843 1.70869 -1.4086 0
M  V30 17 C -2.38069 0.450689 -1.35592 0
M  V30 18 C -1.76702 -0.562657 -2.0873 0
M  V30 19 C -2.33297 -1.80957 -2.07198 0
M  V30 20 C -3.50035 -2.07588 -1.34365 0
M  V30 21 C -4.09239 -1.0622 -0.627381 0
M  V30 22 C -3.51872 0.188473 -0.647148 0
M  V30 23 C -5.29948 -1.24862 0.152146 0
M  V30 24 N -5.86854 -0.171929 0.874811 0
M  V30 25 N -5.89347 -2.37599 0.220529 0
M  V30 26 C -0.798395 2.30153 0.764812 0
M  V30 27 F -2.04004 2.56266 1.27619 0
M  V30 28 H 0.892304 3.58915 3.38589 0
M  V30 29 H 0.0665636 2.02115 3.6767 0
M  V30 30 H -0.92625 3.40145 3.12806 0
M  V30 31 H 2.60394 -0.0621967 -2.67908 0
M  V30 32 H 3.65742 -2.30394 -2.9328 0
M  V30 33 H 5.17971 -3.10856 -1.11521 0
M  V30 34 H 5.86971 -1.31432 1.97548 0
M  V30 35 H 6.36702 -2.67483 0.92245 0
M  V30 36 H 4.53979 0.507823 1.05279 0
M  V30 37 H -0.849325 -0.342375 -2.6565 0
M  V30 38 H -1.84389 -2.60541 -2.65134 0
M  V30 39 H -3.89652 -3.07941 -1.37209 0
M  V30 40 H -4.00564 0.994676 -0.0789713 0
M  V30 41 H -5.38585 0.227589 1.69381 0
M  V30 42 H -6.77605 0.214601 0.575999 0
M  V30 43 H -5.52486 -3.19397 -0.283721 0
M  V30 END ATOM
M  V30 BEGIN BOND
M  V30 1 1 1 2
M  V30 2 2 2 3
M  V30 3 1 3 4
M  V30 4 1 3 5
M  V30 5 1 5 6
M  V30 6 1 6 7
M  V30 7 2 7 8
M  V30 8 1 8 9
M  V30 9 2 9 10
M  V30 10 1 10 11
M  V30 11 1 11 12
M  V30 12 2 11 13
M  V30 13 2 5 14
M  V30 14 1 14 15
M  V30 15 1 15 16
M  V30 16 1 16 17
M  V30 17 2 17 18
M  V30 18 1 18 19
M  V30 19 2 19 20
M  V30 20 1 20 21
M  V30 21 2 21 22
M  V30 22 1 21 23
M  V30 23 1 23 24
M  V30 24 2 23 25 CFG=2
M  V30 25 2 15 26
M  V30 26 1 26 27
M  V30 27 1 26 2
M  V30 28 1 13 7
M  V30 29 1 22 17
M  V30 30 1 1 28
M  V30 31 1 1 29
M  V30 32 1 1 30
M  V30 33 1 8 31
M  V30 34 1 9 32
M  V30 35 1 10 33
M  V30 36 1 12 34
M  V30 37 1 12 35
M  V30 38 1 13 36
M  V30 39 1 18 37
M  V30 40 1 19 38
M  V30 41 1 20 39
M  V30 42 1 22 40
M  V30 43 1 24 41
M  V30 44 1 24 42
M  V30 45 1 25 43
M  V30 END BOND
M  V30 END CTAB
M  END
