
     RDKit          3D

  0  0  0  0  0  0  0  0  0  0999 V3000
M  V30 BEGIN CTAB
M  V30 COUNTS 30 32 0 0 0
M  V30 BEGIN ATOM
M  V30 1 C 3.77238 1.84176 -0.599743 0
M  V30 2 O 3.80126 0.507185 -0.191045 0
M  V30 3 C 2.66467 -0.264171 0.0552144 0
M  V30 4 C 2.86433 -1.56973 0.453538 0
M  V30 5 C 1.76938 -2.3665 0.707227 0
M  V30 6 C 0.490984 -1.87337 0.567249 0
M  V30 7 C -0.566399 -2.71208 0.833462 0
M  V30 8 C -1.84749 -2.25627 0.704941 0
M  V30 9 C -2.07396 -0.977439 0.315039 0
M  V30 10 C -0.995463 -0.100542 0.0369404 0
M  V30 11 C -1.26765 1.16609 -0.348828 0
M  V30 12 N -0.324061 2.15111 -0.658905 0
M  V30 13 N -2.58864 1.55518 -0.456557 0
M  V30 14 C -3.59682 0.753734 -0.20219 0
M  V30 15 N -4.97389 1.20153 -0.327434 0
M  V30 16 N -3.32389 -0.495238 0.178158 0
M  V30 17 C 0.310614 -0.554545 0.164689 0
M  V30 18 C 1.38387 0.252525 -0.0919666 0
M  V30 19 H 2.95864 2.08383 -1.31089 0
M  V30 20 H 3.6828 2.47693 0.304701 0
M  V30 21 H 4.72595 2.06327 -1.13046 0
M  V30 22 H 3.87461 -1.93609 0.557001 0
M  V30 23 H 1.89175 -3.41198 1.02653 0
M  V30 24 H -0.40178 -3.72671 1.14294 0
M  V30 25 H -2.71063 -2.88163 0.904088 0
M  V30 26 H 0.0409572 2.3137 -1.64281 0
M  V30 27 H 0.0116645 2.79654 0.0978238 0
M  V30 28 H -5.48633 1.12928 -1.21536 0
M  V30 29 H -5.43752 1.60421 0.517672 0
M  V30 30 H 1.35064 1.22943 -0.391032 0
M  V30 END ATOM
M  V30 BEGIN BOND
M  V30 1 1 1 2
M  V30 2 1 2 3
M  V30 3 2 3 4
M  V30 4 1 4 5
M  V30 5 2 5 6
M  V30 6 1 6 7
M  V30 7 2 7 8
M  V30 8 1 8 9
M  V30 9 2 9 10
M  V30 10 1 10 11
M  V30 11 1 11 12
M  V30 12 2 11 13
M  V30 13 1 13 14
M  V30 14 1 14 15
M  V30 15 2 14 16
M  V30 16 1 10 17
M  V30 17 2 17 18
M  V30 18 1 18 3
M  V30 19 1 17 6
M  V30 20 1 16 9
M  V30 21 1 1 19
M  V30 22 1 1 20
M  V30 23 1 1 21
M  V30 24 1 4 22
M  V30 25 1 5 23
M  V30 26 1 7 24
M  V30 27 1 8 25
M  V30 28 1 12 26
M  V30 29 1 12 27
M  V30 30 1 15 28
M  V30 31 1 15 29
M  V30 32 1 18 30
M  V30 END BOND
M  V30 END CTAB
M  END
