
     RDKit          3D

  0  0  0  0  0  0  0  0  0  0999 V3000
M  V30 BEGIN CTAB
M  V30 COUNTS 38 41 0 0 0
M  V30 BEGIN ATOM
M  V30 1 N 0.8115 -4.64267 -1.43573 0
M  V30 2 C 0.76847 -3.21336 -1.21443 0
M  V30 3 N 1.622 -2.4521 -0.564736 0
M  V30 4 C 1.41071 -1.15945 -0.469181 0
M  V30 5 C 0.273221 -0.67756 -1.07578 0
M  V30 6 S -0.40701 -2.09604 -1.73434 0
M  V30 7 C -0.210758 0.715467 -1.12151 0
M  V30 8 C -1.3939 1.17982 -0.601412 0
M  V30 9 N -1.6484 2.44421 -0.741094 0
M  V30 10 C -0.781793 3.22877 -1.36506 0
M  V30 11 N -0.878698 4.64641 -1.6203 0
M  V30 12 S 0.461963 2.13125 -1.78024 0
M  V30 13 C -2.35258 0.266391 0.0974352 0
M  V30 14 C -2.02168 -0.389548 1.23765 0
M  V30 15 C -2.93792 -1.2277 1.85586 0
M  V30 16 C -4.20524 -1.39654 1.30229 0
M  V30 17 C -4.53321 -0.730374 0.149372 0
M  V30 18 C -3.60526 0.0986797 -0.448604 0
M  V30 19 C 2.37345 -0.278939 0.260117 0
M  V30 20 C 2.44823 -0.267991 1.63728 0
M  V30 21 C 3.3433 0.542212 2.3066 0
M  V30 22 C 4.19673 1.37161 1.62109 0
M  V30 23 C 4.13545 1.37328 0.243276 0
M  V30 24 C 3.2295 0.552514 -0.420956 0
M  V30 25 H 1.01578 -4.95705 -2.38593 0
M  V30 26 H 0.643782 -5.31853 -0.669921 0
M  V30 27 H -1.19869 5.28179 -0.885766 0
M  V30 28 H -0.613047 4.97456 -2.56397 0
M  V30 29 H -1.05619 -0.276808 1.68173 0
M  V30 30 H -2.70964 -1.76472 2.7625 0
M  V30 31 H -4.95206 -2.04166 1.75208 0
M  V30 32 H -5.49592 -0.806625 -0.345153 0
M  V30 33 H -3.83462 0.64387 -1.36776 0
M  V30 34 H 1.76333 -0.932365 2.15972 0
M  V30 35 H 3.37694 0.527974 3.37453 0
M  V30 36 H 4.91279 2.02002 2.1528 0
M  V30 37 H 4.81385 2.03166 -0.281471 0
M  V30 38 H 3.23562 0.599575 -1.50097 0
M  V30 END ATOM
M  V30 BEGIN BOND
M  V30 1 1 1 2
M  V30 2 2 2 3
M  V30 3 1 3 4
M  V30 4 2 4 5
M  V30 5 1 5 6
M  V30 6 1 5 7
M  V30 7 2 7 8
M  V30 8 1 8 9
M  V30 9 2 9 10
M  V30 10 1 10 11
M  V30 11 1 10 12
M  V30 12 1 8 13
M  V30 13 2 13 14
M  V30 14 1 14 15
M  V30 15 2 15 16
M  V30 16 1 16 17
M  V30 17 2 17 18
M  V30 18 1 4 19
M  V30 19 2 19 20
M  V30 20 1 20 21
M  V30 21 2 21 22
M  V30 22 1 22 23
M  V30 23 2 23 24
M  V30 24 1 6 2
M  V30 25 1 12 7
M  V30 26 1 18 13
M  V30 27 1 24 19
M  V30 28 1 1 25
M  V30 29 1 1 26
M  V30 30 1 11 27
M  V30 31 1 11 28
M  V30 32 1 14 29
M  V30 33 1 15 30
M  V30 34 1 16 31
M  V30 35 1 17 32
M  V30 36 1 18 33
M  V30 37 1 20 34
M  V30 38 1 21 35
M  V30 39 1 22 36
M  V30 40 1 23 37
M  V30 41 1 24 38
M  V30 END BOND
M  V30 END CTAB
M  END
