
     RDKit          3D

  0  0  0  0  0  0  0  0  0  0999 V3000
M  V30 BEGIN CTAB
M  V30 COUNTS 16 15 0 0 0
M  V30 BEGIN ATOM
M  V30 1 N -1.97732 -0.762962 0.286196 0
M  V30 2 C -1.33012 0.0484301 -0.699052 0
M  V30 3 C -0.00237247 0.602467 -0.22862 0
M  V30 4 O -0.157526 1.39479 0.900565 0
M  V30 5 C 0.953333 -0.549709 0.00509853 0
M  V30 6 N 2.26586 -0.0438593 0.374131 0
M  V30 7 H -2.98768 -0.609497 0.382497 0
M  V30 8 H -1.45902 -0.893856 1.1631 0
M  V30 9 H -1.08618 -0.625418 -1.56773 0
M  V30 10 H -1.96086 0.905214 -1.01663 0
M  V30 11 H 0.413638 1.18098 -1.08774 0
M  V30 12 H 0.157001 2.33393 0.748038 0
M  V30 13 H 0.525188 -1.19755 0.799943 0
M  V30 14 H 1.06135 -1.07497 -0.965231 0
M  V30 15 H 2.98028 -0.244997 -0.357625 0
M  V30 16 H 2.60444 -0.462999 1.26306 0
M  V30 END ATOM
M  V30 BEGIN BOND
M  V30 1 1 1 2
M  V30 2 1 2 3
M  V30 3 1 3 4
M  V30 4 1 3 5
M  V30 5 1 5 6
M  V30 6 1 1 7
M  V30 7 1 1 8
M  V30 8 1 2 9
M  V30 9 1 2 10
M  V30 10 1 3 11
M  V30 11 1 4 12
M  V30 12 1 5 13
M  V30 13 1 5 14
M  V30 14 1 6 15
M  V30 15 1 6 16
M  V30 END BOND
M  V30 END CTAB
M  END
