
     RDKit          3D

  0  0  0  0  0  0  0  0  0  0999 V3000
M  V30 BEGIN CTAB
M  V30 COUNTS 19 19 0 0 0
M  V30 BEGIN ATOM
M  V30 1 N -3.0331 1.11594 -0.222449 0
M  V30 2 C -1.77774 0.450766 -0.237284 0
M  V30 3 C -1.616 -0.754403 -0.905863 0
M  V30 4 C -0.411737 -1.41738 -0.934871 0
M  V30 5 C 0.702277 -0.918532 -0.299396 0
M  V30 6 C 0.559281 0.276305 0.368718 0
M  V30 7 C -0.662948 0.952618 0.40021 0
M  V30 8 I -0.847866 2.78739 1.43669 0
M  V30 9 C 1.69596 0.860991 1.06221 0
M  V30 10 O 1.62381 1.94653 1.68677 0
M  V30 11 O 2.90443 0.192407 1.03112 0
M  V30 12 N 1.95372 -1.62275 -0.338647 0
M  V30 13 H -3.36406 1.60723 -1.0749 0
M  V30 14 H -3.61298 1.11019 0.632833 0
M  V30 15 H -2.49098 -1.1536 -1.40939 0
M  V30 16 H -0.285385 -2.36788 -1.46254 0
M  V30 17 H 3.80387 0.659211 1.05295 0
M  V30 18 H 2.25681 -2.30054 0.365421 0
M  V30 19 H 2.60263 -1.4245 -1.15159 0
M  V30 END ATOM
M  V30 BEGIN BOND
M  V30 1 1 1 2
M  V30 2 2 2 3
M  V30 3 1 3 4
M  V30 4 2 4 5
M  V30 5 1 5 6
M  V30 6 2 6 7
M  V30 7 1 7 8
M  V30 8 1 6 9
M  V30 9 2 9 10
M  V30 10 1 9 11
M  V30 11 1 5 12
M  V30 12 1 7 2
M  V30 13 1 1 13
M  V30 14 1 1 14
M  V30 15 1 3 15
M  V30 16 1 4 16
M  V30 17 1 11 17
M  V30 18 1 12 18
M  V30 19 1 12 19
M  V30 END BOND
M  V30 END CTAB
M  END
