
     RDKit          3D

  0  0  0  0  0  0  0  0  0  0999 V3000
M  V30 BEGIN CTAB
M  V30 COUNTS 21 21 0 0 0
M  V30 BEGIN ATOM
M  V30 1 N -2.31285 1.58693 0.107595 0
M  V30 2 C -2.05492 0.15154 0.626544 0
M  V30 3 C -0.595838 0.0621234 0.410537 0
M  V30 4 C 0.170078 1.09434 0.781845 0
M  V30 5 C 1.52782 1.03437 0.52402 0
M  V30 6 Cl 2.62918 2.26317 1.00058 0
M  V30 7 C 2.03983 -0.126447 -0.138823 0
M  V30 8 N 1.24082 -1.08792 -0.465879 0
M  V30 9 C -0.089828 -1.08474 -0.228115 0
M  V30 10 C -1.02948 -2.11677 -0.610672 0
M  V30 11 N 3.36705 0.022565 -0.583244 0
M  V30 12 H -1.4921 2.23632 0.201336 0
M  V30 13 H -2.25909 1.29514 -1.00016 0
M  V30 14 H -2.71513 -0.457315 0.0887582 0
M  V30 15 H -2.25403 0.156736 1.70857 0
M  V30 16 H -0.182064 2.01411 1.35787 0
M  V30 17 H -0.540895 -3.10008 -0.363723 0
M  V30 18 H -1.17652 -2.21309 -1.72826 0
M  V30 19 H -1.94167 -2.15351 -0.0382724 0
M  V30 20 H 4.23011 -0.516841 -0.420562 0
M  V30 21 H 3.43951 0.939361 -1.22995 0
M  V30 END ATOM
M  V30 BEGIN BOND
M  V30 1 1 1 2
M  V30 2 1 2 3
M  V30 3 2 3 4
M  V30 4 1 4 5
M  V30 5 1 5 6
M  V30 6 2 5 7
M  V30 7 1 7 8
M  V30 8 2 8 9
M  V30 9 1 9 10
M  V30 10 1 7 11
M  V30 11 1 9 3
M  V30 12 1 1 12
M  V30 13 1 1 13
M  V30 14 1 2 14
M  V30 15 1 2 15
M  V30 16 1 4 16
M  V30 17 1 10 17
M  V30 18 1 10 18
M  V30 19 1 10 19
M  V30 20 1 11 20
M  V30 21 1 11 21
M  V30 END BOND
M  V30 END CTAB
M  END
