
     RDKit          3D

  0  0  0  0  0  0  0  0  0  0999 V3000
M  V30 BEGIN CTAB
M  V30 COUNTS 34 35 0 0 0
M  V30 BEGIN ATOM
M  V30 1 N -3.04799 -2.9694 0.441897 0
M  V30 2 C -3.09244 -1.66309 -0.0793241 0
M  V30 3 N -3.89552 -1.3146 -1.01017 0
M  V30 4 N -2.20763 -0.691961 0.456689 0
M  V30 5 N -0.871453 -0.867501 0.311234 0
M  V30 6 C 0.0436992 -0.0010909 0.160718 0
M  V30 7 C -0.323164 1.4094 0.124071 0
M  V30 8 C 0.52332 2.34191 0.721192 0
M  V30 9 C 0.241179 3.6756 0.599089 0
M  V30 10 C -0.861271 4.13963 -0.0981586 0
M  V30 11 C -1.67744 3.1948 -0.674979 0
M  V30 12 C -1.44056 1.83567 -0.585397 0
M  V30 13 C 1.43959 -0.487433 0.0117757 0
M  V30 14 C 2.47452 0.298151 -0.377038 0
M  V30 15 C 3.76727 -0.224033 -0.58286 0
M  V30 16 Cl 5.08208 0.828242 -1.08436 0
M  V30 17 C 3.94867 -1.56845 -0.377181 0
M  V30 18 C 2.93145 -2.40878 0.0157353 0
M  V30 19 C 1.69151 -1.84732 0.203029 0
M  V30 20 N 0.611396 -2.67226 0.612802 0
M  V30 21 H -3.17013 -3.77432 -0.188712 0
M  V30 22 H -2.89465 -3.12912 1.44701 0
M  V30 23 H -3.9361 -0.353843 -1.40119 0
M  V30 24 H -2.68596 0.103613 0.949583 0
M  V30 25 H 1.38129 2.00033 1.30762 0
M  V30 26 H 0.88819 4.41198 1.05505 0
M  V30 27 H -1.05797 5.20033 -0.176543 0
M  V30 28 H -2.56498 3.50792 -1.23834 0
M  V30 29 H -2.12284 1.14678 -1.10015 0
M  V30 30 H 2.38629 1.3521 -0.595017 0
M  V30 31 H 4.94434 -2.00862 -0.52877 0
M  V30 32 H 3.13489 -3.4543 0.160368 0
M  V30 33 H 0.299554 -2.76671 1.61524 0
M  V30 34 H 0.0608619 -3.24363 -0.0949044 0
M  V30 END ATOM
M  V30 BEGIN BOND
M  V30 1 1 1 2
M  V30 2 2 2 3 CFG=2
M  V30 3 1 2 4
M  V30 4 1 4 5
M  V30 5 2 5 6
M  V30 6 1 6 7
M  V30 7 2 7 8
M  V30 8 1 8 9
M  V30 9 2 9 10
M  V30 10 1 10 11
M  V30 11 2 11 12
M  V30 12 1 6 13
M  V30 13 2 13 14
M  V30 14 1 14 15
M  V30 15 1 15 16
M  V30 16 2 15 17
M  V30 17 1 17 18
M  V30 18 2 18 19
M  V30 19 1 19 20
M  V30 20 1 12 7
M  V30 21 1 19 13
M  V30 22 1 1 21
M  V30 23 1 1 22
M  V30 24 1 3 23
M  V30 25 1 4 24
M  V30 26 1 8 25
M  V30 27 1 9 26
M  V30 28 1 10 27
M  V30 29 1 11 28
M  V30 30 1 12 29
M  V30 31 1 14 30
M  V30 32 1 17 31
M  V30 33 1 18 32
M  V30 34 1 20 33
M  V30 35 1 20 34
M  V30 END BOND
M  V30 END CTAB
M  END
