
     RDKit          3D

  0  0  0  0  0  0  0  0  0  0999 V3000
M  V30 BEGIN CTAB
M  V30 COUNTS 84 88 0 0 0
M  V30 BEGIN ATOM
M  V30 1 C -0.278706 -0.383536 -2.95838 0
M  V30 2 C -0.172203 0.630685 -1.8167 0 CFG=2
M  V30 3 C 1.25544 0.998844 -1.70302 0
M  V30 4 N 1.66465 1.1994 -0.347802 0
M  V30 5 C 0.752152 1.5237 0.703881 0 CFG=1
M  V30 6 C 0.538566 2.98546 0.949771 0
M  V30 7 C 0.00369392 3.76962 -0.196652 0
M  V30 8 C -0.177986 5.24487 0.166742 0
M  V30 9 N -1.08577 5.41962 1.2489 0
M  V30 10 C -2.46024 5.13061 1.08018 0
M  V30 11 N -3.14963 5.40387 -0.128006 0
M  V30 12 N -3.08876 4.60588 2.05772 0
M  V30 13 C -0.570269 0.820537 0.56161 0
M  V30 14 N -0.715591 0.0779706 -0.6286 0
M  V30 15 C -2.11771 -0.291661 -0.801525 0
M  V30 16 C -2.64842 -0.85237 0.481313 0
M  V30 17 C -4.07732 -1.27246 0.341581 0
M  V30 18 C -5.16079 -0.42623 0.315471 0
M  V30 19 C -5.17603 1.064 0.417805 0
M  V30 20 N -6.24377 -1.20879 0.177189 0
M  V30 21 C -5.87572 -2.50392 0.116621 0
M  V30 22 C -4.4949 -2.57754 0.219115 0
M  V30 23 C -3.8404 -3.80838 0.184978 0
M  V30 24 C -4.56889 -4.96727 0.0480866 0
M  V30 25 C -5.94182 -4.92324 -0.0558325 0
M  V30 26 C -6.56063 -3.6928 -0.0189315 0
M  V30 27 C 3.06387 1.08628 -0.0722686 0
M  V30 28 O 3.81863 0.86793 -1.08391 0
M  V30 29 C 3.70757 1.19573 1.23359 0 CFG=2
M  V30 30 N 5.11417 1.58293 0.996535 0
M  V30 31 C 3.70659 -0.104142 2.02603 0
M  V30 32 C 4.42416 -1.17741 1.29023 0
M  V30 33 C 5.77181 -1.35541 1.46993 0
M  V30 34 C 6.42311 -2.35489 0.781832 0
M  V30 35 C 5.70624 -3.17151 -0.0867807 0
M  V30 36 C 6.35089 -4.18295 -0.786507 0
M  V30 37 C 5.62939 -4.98179 -1.64113 0
M  V30 38 C 4.27229 -4.8291 -1.84463 0
M  V30 39 C 3.62426 -3.82464 -1.15166 0
M  V30 40 C 4.34826 -3.01657 -0.288578 0
M  V30 41 C 3.72737 -1.99441 0.42613 0
M  V30 42 H 0.126651 -1.35223 -2.62239 0
M  V30 43 H -1.28348 -0.434321 -3.37945 0
M  V30 44 H 0.402324 -0.0159405 -3.75521 0
M  V30 45 H -0.732294 1.54054 -2.1682 0
M  V30 46 H 1.87182 0.131326 -2.11163 0
M  V30 47 H 1.50973 1.90513 -2.31611 0
M  V30 48 H 1.23076 1.14402 1.65815 0
M  V30 49 H -0.244049 3.04619 1.76681 0
M  V30 50 H 1.43648 3.47659 1.41914 0
M  V30 51 H 0.652401 3.77021 -1.08743 0
M  V30 52 H -0.997367 3.43196 -0.533171 0
M  V30 53 H 0.836394 5.62827 0.369823 0
M  V30 54 H -0.511095 5.74466 -0.781023 0
M  V30 55 H -0.749799 5.75895 2.16762 0
M  V30 56 H -3.60816 4.64454 -0.6945 0
M  V30 57 H -3.21628 6.38116 -0.484162 0
M  V30 58 H -4.09154 4.37402 1.99103 0
M  V30 59 H -0.640482 0.0669252 1.41244 0
M  V30 60 H -1.42681 1.50214 0.706533 0
M  V30 61 H -2.25785 -0.985934 -1.64757 0
M  V30 62 H -2.72766 0.620951 -1.07405 0
M  V30 63 H -2.55954 -0.0932725 1.29328 0
M  V30 64 H -2.03199 -1.7169 0.775488 0
M  V30 65 H -5.37405 1.47846 -0.573306 0
M  V30 66 H -4.22255 1.44497 0.861389 0
M  V30 67 H -5.96461 1.37271 1.16323 0
M  V30 68 H -7.23833 -0.888645 0.121877 0
M  V30 69 H -2.77712 -3.83231 0.265916 0
M  V30 70 H -4.10715 -5.93892 0.0166948 0
M  V30 71 H -6.54071 -5.83975 -0.165885 0
M  V30 72 H -7.63952 -3.62168 -0.0981226 0
M  V30 73 H 3.26125 1.99433 1.83584 0
M  V30 74 H 5.14929 2.25941 0.178246 0
M  V30 75 H 5.52044 2.06151 1.81939 0
M  V30 76 H 4.30301 0.0816178 2.96744 0
M  V30 77 H 2.72406 -0.436198 2.36463 0
M  V30 78 H 6.3771 -0.738673 2.14181 0
M  V30 79 H 7.48424 -2.53867 0.886328 0
M  V30 80 H 7.41915 -4.30433 -0.627121 0
M  V30 81 H 6.14124 -5.78286 -2.19508 0
M  V30 82 H 3.76408 -5.48701 -2.52744 0
M  V30 83 H 2.57066 -3.66698 -1.27657 0
M  V30 84 H 2.66381 -1.89292 0.250984 0
M  V30 END ATOM
M  V30 BEGIN BOND
M  V30 1 1 1 2
M  V30 2 1 2 3
M  V30 3 1 3 4
M  V30 4 1 4 5
M  V30 5 1 5 6
M  V30 6 1 6 7
M  V30 7 1 7 8
M  V30 8 1 8 9
M  V30 9 1 9 10
M  V30 10 1 10 11
M  V30 11 2 10 12 CFG=2
M  V30 12 1 5 13
M  V30 13 1 13 14
M  V30 14 1 14 15
M  V30 15 1 15 16
M  V30 16 1 16 17
M  V30 17 2 17 18
M  V30 18 1 18 19
M  V30 19 1 18 20
M  V30 20 1 20 21
M  V30 21 2 21 22
M  V30 22 1 22 23
M  V30 23 2 23 24
M  V30 24 1 24 25
M  V30 25 2 25 26
M  V30 26 1 4 27
M  V30 27 2 27 28
M  V30 28 1 27 29
M  V30 29 1 29 30
M  V30 30 1 29 31
M  V30 31 1 31 32
M  V30 32 2 32 33
M  V30 33 1 33 34
M  V30 34 2 34 35
M  V30 35 1 35 36
M  V30 36 2 36 37
M  V30 37 1 37 38
M  V30 38 2 38 39
M  V30 39 1 39 40
M  V30 40 2 40 41
M  V30 41 1 14 2
M  V30 42 1 22 17
M  V30 43 1 41 32
M  V30 44 1 26 21
M  V30 45 1 40 35
M  V30 46 1 1 42
M  V30 47 1 1 43
M  V30 48 1 1 44
M  V30 49 1 2 45 CFG=3
M  V30 50 1 3 46
M  V30 51 1 3 47
M  V30 52 1 5 48 CFG=1
M  V30 53 1 6 49
M  V30 54 1 6 50
M  V30 55 1 7 51
M  V30 56 1 7 52
M  V30 57 1 8 53
M  V30 58 1 8 54
M  V30 59 1 9 55
M  V30 60 1 11 56
M  V30 61 1 11 57
M  V30 62 1 12 58
M  V30 63 1 13 59
M  V30 64 1 13 60
M  V30 65 1 15 61
M  V30 66 1 15 62
M  V30 67 1 16 63
M  V30 68 1 16 64
M  V30 69 1 19 65
M  V30 70 1 19 66
M  V30 71 1 19 67
M  V30 72 1 20 68
M  V30 73 1 23 69
M  V30 74 1 24 70
M  V30 75 1 25 71
M  V30 76 1 26 72
M  V30 77 1 29 73 CFG=1
M  V30 78 1 30 74
M  V30 79 1 30 75
M  V30 80 1 31 76
M  V30 81 1 31 77
M  V30 82 1 33 78
M  V30 83 1 34 79
M  V30 84 1 36 80
M  V30 85 1 37 81
M  V30 86 1 38 82
M  V30 87 1 39 83
M  V30 88 1 41 84
M  V30 END BOND
M  V30 END CTAB
M  END
