
     RDKit          3D

  0  0  0  0  0  0  0  0  0  0999 V3000
M  V30 BEGIN CTAB
M  V30 COUNTS 29 30 0 0 0
M  V30 BEGIN ATOM
M  V30 1 N -2.022 -0.548261 -2.69394 0
M  V30 2 C -2.11651 -0.121946 -1.32907 0
M  V30 3 C -1.0311 0.429216 -0.676455 0
M  V30 4 C -1.06661 0.855146 0.633908 0
M  V30 5 O -0.00726374 1.40369 1.30707 0
M  V30 6 C 1.28052 1.63496 0.848326 0
M  V30 7 C 2.04172 0.456606 0.428701 0
M  V30 8 C 3.11686 0.626331 -0.43786 0
M  V30 9 C 3.84708 -0.463545 -0.833076 0
M  V30 10 C 3.50886 -1.71587 -0.368119 0
M  V30 11 C 2.45386 -1.89996 0.48502 0
M  V30 12 C 1.7149 -0.802524 0.885852 0
M  V30 13 C -2.27749 0.712958 1.32221 0
M  V30 14 C -3.35464 0.162608 0.663985 0
M  V30 15 N -4.5812 0.02804 1.38969 0
M  V30 16 N -3.25585 -0.237223 -0.625475 0
M  V30 17 H -1.16709 -0.95766 -3.11113 0
M  V30 18 H -2.86129 -0.438527 -3.29549 0
M  V30 19 H -0.114031 0.527173 -1.24931 0
M  V30 20 H 1.22036 2.3461 -0.000940008 0
M  V30 21 H 1.82034 2.20114 1.66406 0
M  V30 22 H 3.38232 1.61429 -0.803585 0
M  V30 23 H 4.69686 -0.323283 -1.51899 0
M  V30 24 H 4.11561 -2.54784 -0.708313 0
M  V30 25 H 2.23924 -2.908 0.814286 0
M  V30 26 H 0.889602 -0.964714 1.55617 0
M  V30 27 H -2.37665 1.02776 2.35711 0
M  V30 28 H -5.17981 -0.799397 1.18847 0
M  V30 29 H -4.9166 0.702735 2.10688 0
M  V30 END ATOM
M  V30 BEGIN BOND
M  V30 1 1 1 2
M  V30 2 2 2 3
M  V30 3 1 3 4
M  V30 4 1 4 5
M  V30 5 1 5 6
M  V30 6 1 6 7
M  V30 7 2 7 8
M  V30 8 1 8 9
M  V30 9 2 9 10
M  V30 10 1 10 11
M  V30 11 2 11 12
M  V30 12 2 4 13
M  V30 13 1 13 14
M  V30 14 1 14 15
M  V30 15 2 14 16
M  V30 16 1 16 2
M  V30 17 1 12 7
M  V30 18 1 1 17
M  V30 19 1 1 18
M  V30 20 1 3 19
M  V30 21 1 6 20
M  V30 22 1 6 21
M  V30 23 1 8 22
M  V30 24 1 9 23
M  V30 25 1 10 24
M  V30 26 1 11 25
M  V30 27 1 12 26
M  V30 28 1 13 27
M  V30 29 1 15 28
M  V30 30 1 15 29
M  V30 END BOND
M  V30 END CTAB
M  END
