
     RDKit          3D

  0  0  0  0  0  0  0  0  0  0999 V3000
M  V30 BEGIN CTAB
M  V30 COUNTS 34 35 0 0 0
M  V30 BEGIN ATOM
M  V30 1 N -6.0762 -0.543528 -0.427067 0
M  V30 2 C -4.65972 -0.562231 -0.29395 0
M  V30 3 C -4.08318 0.267123 0.675765 0
M  V30 4 C -2.71392 0.255013 0.810969 0
M  V30 5 C -1.87935 -0.529927 0.042827 0
M  V30 6 C -2.48359 -1.34129 -0.910212 0
M  V30 7 C -3.85018 -1.35803 -1.07669 0
M  V30 8 N -0.46304 -0.509618 0.218595 0
M  V30 9 N 0.209139 0.319373 -0.457659 0
M  V30 10 C 1.62469 0.353225 -0.294552 0
M  V30 11 C 2.22871 0.486798 0.938445 0
M  V30 12 C 3.60448 0.51538 1.05467 0
M  V30 13 C 4.43204 0.412858 -0.0445951 0
M  V30 14 C 3.82402 0.27854 -1.28442 0
M  V30 15 C 2.44282 0.249971 -1.39987 0
M  V30 16 S 6.17385 0.45034 0.115313 0
M  V30 17 N 6.79019 -1.14514 0.334777 0
M  V30 18 O 6.82947 1.06138 -1.09191 0
M  V30 19 O 6.57498 1.24679 1.34031 0
M  V30 20 C -4.91754 1.11206 1.50957 0
M  V30 21 O -6.28981 1.11601 1.36509 0
M  V30 22 O -4.37539 1.84107 2.3658 0
M  V30 23 H -6.66061 -1.14432 0.195994 0
M  V30 24 H -6.55819 0.0562119 -1.13347 0
M  V30 25 H -2.27763 0.909628 1.57435 0
M  V30 26 H -1.8407 -1.95911 -1.51633 0
M  V30 27 H -4.31667 -1.99221 -1.82096 0
M  V30 28 H 1.59443 0.568673 1.81304 0
M  V30 29 H 4.08041 0.620689 2.02688 0
M  V30 30 H 4.4782 0.198278 -2.14564 0
M  V30 31 H 2.0013 0.142557 -2.39672 0
M  V30 32 H 7.28206 -1.51234 -0.503654 0
M  V30 33 H 5.98088 -1.76872 0.55108 0
M  V30 34 H -6.70595 1.90448 0.869482 0
M  V30 END ATOM
M  V30 BEGIN BOND
M  V30 1 1 1 2
M  V30 2 2 2 3
M  V30 3 1 3 4
M  V30 4 2 4 5
M  V30 5 1 5 6
M  V30 6 2 6 7
M  V30 7 1 5 8
M  V30 8 2 8 9
M  V30 9 1 9 10
M  V30 10 2 10 11
M  V30 11 1 11 12
M  V30 12 2 12 13
M  V30 13 1 13 14
M  V30 14 2 14 15
M  V30 15 1 13 16
M  V30 16 1 16 17
M  V30 17 2 16 18
M  V30 18 2 16 19
M  V30 19 1 3 20
M  V30 20 1 20 21
M  V30 21 2 20 22
M  V30 22 1 7 2
M  V30 23 1 15 10
M  V30 24 1 1 23
M  V30 25 1 1 24
M  V30 26 1 4 25
M  V30 27 1 6 26
M  V30 28 1 7 27
M  V30 29 1 11 28
M  V30 30 1 12 29
M  V30 31 1 14 30
M  V30 32 1 15 31
M  V30 33 1 17 32
M  V30 34 1 17 33
M  V30 35 1 21 34
M  V30 END BOND
M  V30 END CTAB
M  END
