
     RDKit          3D

  0  0  0  0  0  0  0  0  0  0999 V3000
M  V30 BEGIN CTAB
M  V30 COUNTS 74 79 0 0 0
M  V30 BEGIN ATOM
M  V30 1 N 10.0106 -1.25467 -0.216261 0
M  V30 2 C 9.04837 -0.230087 -0.0949336 0
M  V30 3 N 9.45378 1.01748 0.282041 0
M  V30 4 C 8.55917 1.99997 0.402839 0
M  V30 5 N 8.97902 3.28722 0.791383 0
M  V30 6 C 7.2367 1.74992 0.147245 0
M  V30 7 C 6.78558 0.487809 -0.240094 0
M  V30 8 N 7.74987 -0.458595 -0.341588 0
M  V30 9 N 5.45346 0.502038 -0.429716 0
M  V30 10 C 5.05059 1.76685 -0.165494 0
M  V30 11 N 6.11492 2.51209 0.178966 0
M  V30 12 C 4.64559 -0.605557 -0.830267 0 CFG=2
M  V30 13 C 3.47261 -0.21379 -1.70021 0
M  V30 14 O 2.4934 0.452152 -1.03588 0
M  V30 15 C 1.89856 -0.234736 0.00252963 0
M  V30 16 C 2.87377 -0.906071 0.927408 0
M  V30 17 C 4.10277 -1.43312 0.289196 0 CFG=2
M  V30 18 C 5.13496 -1.71858 1.36927 0
M  V30 19 O 3.78519 -2.69731 -0.260459 0
M  V30 20 C 0.959652 -1.24586 -0.59284 0
M  V30 21 C -0.387447 -1.3083 0.108459 0
M  V30 22 N -0.965588 -0.00635561 0.268999 0
M  V30 23 C -0.117043 1.14062 0.10737 0
M  V30 24 C 1.17017 0.804959 0.832487 0
M  V30 25 C -2.33144 0.173384 0.57969 0
M  V30 26 O -2.82716 1.34523 0.718471 0
M  V30 27 C -3.2667 -0.960143 0.76587 0
M  V30 28 C -4.71078 -0.581854 0.803805 0
M  V30 29 C -5.17891 0.0352805 -0.464857 0
M  V30 30 C -6.63629 0.385405 -0.355338 0
M  V30 31 N -7.08851 1.5681 0.0885416 0
M  V30 32 C -8.42788 1.60898 0.0824246 0
M  V30 33 C -8.82561 0.362477 -0.399588 0
M  V30 34 N -7.70751 -0.350193 -0.653302 0
M  V30 35 C -7.6405 -1.70533 -1.16918 0
M  V30 36 C -10.1585 0.103425 -0.520025 0
M  V30 37 C -11.0806 1.07667 -0.16364 0
M  V30 38 C -10.668 2.30345 0.31111 0
M  V30 39 C -9.33115 2.57968 0.438157 0
M  V30 40 H 10.2149 -1.85683 0.596085 0
M  V30 41 H 10.5051 -1.40017 -1.10908 0
M  V30 42 H 9.71223 3.46537 1.53523 0
M  V30 43 H 8.59238 4.17565 0.368115 0
M  V30 44 H 4.04794 2.17333 -0.20705 0
M  V30 45 H 5.27291 -1.29839 -1.46562 0
M  V30 46 H 3.06614 -1.16227 -2.12627 0
M  V30 47 H 3.81986 0.389293 -2.54316 0
M  V30 48 H 3.13749 -0.237842 1.79416 0
M  V30 49 H 2.33029 -1.76828 1.40142 0
M  V30 50 H 4.5696 -2.26545 2.17624 0
M  V30 51 H 5.58855 -0.812641 1.78021 0
M  V30 52 H 5.8475 -2.45075 0.965804 0
M  V30 53 H 4.4938 -2.88174 -0.94836 0
M  V30 54 H 1.38093 -2.2569 -0.555575 0
M  V30 55 H 0.734542 -1.03574 -1.66291 0
M  V30 56 H -1.0556 -1.88798 -0.582659 0
M  V30 57 H -0.272444 -1.8688 1.05581 0
M  V30 58 H 0.170374 1.31459 -0.962053 0
M  V30 59 H -0.573817 2.06852 0.513636 0
M  V30 60 H 1.82749 1.69067 0.939629 0
M  V30 61 H 0.927412 0.378656 1.83498 0
M  V30 62 H -2.95482 -1.47249 1.72284 0
M  V30 63 H -3.12891 -1.67372 -0.0857675 0
M  V30 64 H -4.97181 0.0518599 1.68068 0
M  V30 65 H -5.28831 -1.5439 0.931917 0
M  V30 66 H -4.64204 0.943845 -0.75194 0
M  V30 67 H -5.08433 -0.66023 -1.33929 0
M  V30 68 H -7.6344 -2.3944 -0.290683 0
M  V30 69 H -8.54825 -1.84834 -1.79479 0
M  V30 70 H -6.70172 -1.83257 -1.74698 0
M  V30 71 H -10.4793 -0.858145 -0.891902 0
M  V30 72 H -12.1465 0.867033 -0.260849 0
M  V30 73 H -11.3765 3.06195 0.589275 0
M  V30 74 H -9.00958 3.53418 0.80769 0
M  V30 END ATOM
M  V30 BEGIN BOND
M  V30 1 1 1 2
M  V30 2 2 2 3
M  V30 3 1 3 4
M  V30 4 1 4 5
M  V30 5 2 4 6
M  V30 6 1 6 7
M  V30 7 2 7 8
M  V30 8 1 7 9
M  V30 9 1 9 10
M  V30 10 2 10 11
M  V30 11 1 9 12
M  V30 12 1 12 13
M  V30 13 1 13 14
M  V30 14 1 14 15
M  V30 15 1 15 16
M  V30 16 1 16 17
M  V30 17 1 17 18
M  V30 18 1 17 19 CFG=3
M  V30 19 1 15 20
M  V30 20 1 20 21
M  V30 21 1 21 22
M  V30 22 1 22 23
M  V30 23 1 23 24
M  V30 24 1 22 25
M  V30 25 2 25 26
M  V30 26 1 25 27
M  V30 27 1 27 28
M  V30 28 1 28 29
M  V30 29 1 29 30
M  V30 30 2 30 31
M  V30 31 1 31 32
M  V30 32 2 32 33
M  V30 33 1 33 34
M  V30 34 1 34 35
M  V30 35 1 33 36
M  V30 36 2 36 37
M  V30 37 1 37 38
M  V30 38 2 38 39
M  V30 39 1 8 2
M  V30 40 1 17 12
M  V30 41 1 34 30
M  V30 42 1 11 6
M  V30 43 1 24 15
M  V30 44 1 39 32
M  V30 45 1 1 40
M  V30 46 1 1 41
M  V30 47 1 5 42
M  V30 48 1 5 43
M  V30 49 1 10 44
M  V30 50 1 12 45 CFG=3
M  V30 51 1 13 46
M  V30 52 1 13 47
M  V30 53 1 16 48
M  V30 54 1 16 49
M  V30 55 1 18 50
M  V30 56 1 18 51
M  V30 57 1 18 52
M  V30 58 1 19 53
M  V30 59 1 20 54
M  V30 60 1 20 55
M  V30 61 1 21 56
M  V30 62 1 21 57
M  V30 63 1 23 58
M  V30 64 1 23 59
M  V30 65 1 24 60
M  V30 66 1 24 61
M  V30 67 1 27 62
M  V30 68 1 27 63
M  V30 69 1 28 64
M  V30 70 1 28 65
M  V30 71 1 29 66
M  V30 72 1 29 67
M  V30 73 1 35 68
M  V30 74 1 35 69
M  V30 75 1 35 70
M  V30 76 1 36 71
M  V30 77 1 37 72
M  V30 78 1 38 73
M  V30 79 1 39 74
M  V30 END BOND
M  V30 END CTAB
M  END
