
     RDKit          3D

  0  0  0  0  0  0  0  0  0  0999 V3000
M  V30 BEGIN CTAB
M  V30 COUNTS 19 20 0 0 0
M  V30 BEGIN ATOM
M  V30 1 Br 5.31602 1.55294 0.1458 0
M  V30 2 C 3.64102 0.637455 0.37671 0
M  V30 3 S 3.36774 -0.837869 1.16719 0
M  V30 4 C 1.66743 -0.95067 0.937996 0
M  V30 5 C 1.3672 0.181102 0.243659 0
M  V30 6 C 2.40427 1.00893 -0.0474883 0
M  V30 7 C -0.0219748 0.502475 -0.178384 0
M  V30 8 N -0.4246 1.59133 -0.866028 0
M  V30 9 N -1.7207 1.55196 -1.0672 0
M  V30 10 C -2.21752 0.434938 -0.518676 0
M  V30 11 N -1.12973 -0.200772 0.0298517 0
M  V30 12 N -1.2835 -1.42968 0.701025 0
M  V30 13 N -3.54762 -0.0288494 -0.484739 0
M  V30 14 H 1.04402 -1.77404 1.29796 0
M  V30 15 H 2.31248 1.96664 -0.607043 0
M  V30 16 H -1.5303 -1.47793 1.70716 0
M  V30 17 H -1.14919 -2.32159 0.187419 0
M  V30 18 H -4.03952 -0.165134 0.416903 0
M  V30 19 H -4.05551 -0.241227 -1.36221 0
M  V30 END ATOM
M  V30 BEGIN BOND
M  V30 1 1 1 2
M  V30 2 1 2 3
M  V30 3 1 3 4
M  V30 4 2 4 5
M  V30 5 1 5 6
M  V30 6 1 5 7
M  V30 7 2 7 8
M  V30 8 1 8 9
M  V30 9 2 9 10
M  V30 10 1 10 11
M  V30 11 1 11 12
M  V30 12 1 10 13
M  V30 13 2 6 2
M  V30 14 1 11 7
M  V30 15 1 4 14
M  V30 16 1 6 15
M  V30 17 1 12 16
M  V30 18 1 12 17
M  V30 19 1 13 18
M  V30 20 1 13 19
M  V30 END BOND
M  V30 END CTAB
M  END
