
     RDKit          3D

  0  0  0  0  0  0  0  0  0  0999 V3000
M  V30 BEGIN CTAB
M  V30 COUNTS 53 56 0 0 0
M  V30 BEGIN ATOM
M  V30 1 C 7.95813 2.06919 -1.18453 0
M  V30 2 O 6.54311 2.29406 -1.24467 0
M  V30 3 C 5.69145 1.29147 -0.785697 0
M  V30 4 N 6.18165 0.136085 -0.296076 0
M  V30 5 C 5.37747 -0.842369 0.151103 0
M  V30 6 N 5.93646 -2.03507 0.655166 0
M  V30 7 C 4.0165 -0.639724 0.0992485 0
M  V30 8 C 3.45683 0.52229 -0.391392 0
M  V30 9 C 4.32859 1.4927 -0.836873 0
M  V30 10 C 2.07229 0.709714 -0.435894 0
M  V30 11 C 1.59607 1.93948 -0.992343 0
M  V30 12 N 1.2438 2.91373 -1.45204 0
M  V30 13 C 1.21226 -0.260623 0.0104571 0
M  V30 14 N 1.80388 -1.40132 0.490198 0
M  V30 15 C 3.12543 -1.59135 0.537012 0
M  V30 16 N 3.69921 -2.80505 1.04908 0
M  V30 17 N -0.20239 -0.142149 0.0356411 0
M  V30 18 C -0.9517 -1.40381 0.199715 0
M  V30 19 C -2.21104 -1.30299 -0.685114 0
M  V30 20 N -3.05955 -0.311907 -0.0511123 0
M  V30 21 C -2.41293 0.819732 0.556802 0
M  V30 22 C -0.994185 1.0296 -0.0416669 0
M  V30 23 C -4.45912 -0.470725 -0.0626818 0
M  V30 24 C -5.07603 -1.4012 -0.910346 0
M  V30 25 C -6.44784 -1.54755 -0.941234 0
M  V30 26 C -7.27396 -0.792104 -0.146694 0
M  V30 27 C -6.67075 0.123771 0.688037 0
M  V30 28 C -5.28773 0.269561 0.717955 0
M  V30 29 O -4.80889 1.22478 1.60362 0
M  V30 30 C -5.60739 2.01432 2.42954 0
M  V30 31 H 8.22946 1.60839 -2.1528 0
M  V30 32 H 8.16706 1.37231 -0.342703 0
M  V30 33 H 8.43855 3.05321 -1.01597 0
M  V30 34 H 6.11946 -2.83726 0.0290522 0
M  V30 35 H 6.16929 -2.1181 1.65917 0
M  V30 36 H 3.93631 2.41775 -1.22888 0
M  V30 37 H 3.94099 -2.90707 2.06855 0
M  V30 38 H 3.85652 -3.56809 0.345729 0
M  V30 39 H -1.21898 -1.54665 1.26147 0
M  V30 40 H -0.339424 -2.24438 -0.172838 0
M  V30 41 H -2.67363 -2.31994 -0.699699 0
M  V30 42 H -1.9054 -0.962798 -1.66977 0
M  V30 43 H -2.92413 1.78981 0.258856 0
M  V30 44 H -2.3861 0.809065 1.64477 0
M  V30 45 H -1.20784 1.26871 -1.09907 0
M  V30 46 H -0.608608 1.87938 0.562646 0
M  V30 47 H -4.44528 -2.00526 -1.55003 0
M  V30 48 H -6.90585 -2.26399 -1.59507 0
M  V30 49 H -8.35484 -0.889293 -0.153824 0
M  V30 50 H -7.27025 0.762385 1.35164 0
M  V30 51 H -6.09468 1.46572 3.24533 0
M  V30 52 H -4.94554 2.7983 2.88292 0
M  V30 53 H -6.35672 2.53527 1.79463 0
M  V30 END ATOM
M  V30 BEGIN BOND
M  V30 1 1 1 2
M  V30 2 1 2 3
M  V30 3 2 3 4
M  V30 4 1 4 5
M  V30 5 1 5 6
M  V30 6 2 5 7
M  V30 7 1 7 8
M  V30 8 2 8 9
M  V30 9 1 8 10
M  V30 10 1 10 11
M  V30 11 3 11 12
M  V30 12 2 10 13
M  V30 13 1 13 14
M  V30 14 2 14 15
M  V30 15 1 15 16
M  V30 16 1 13 17
M  V30 17 1 17 18
M  V30 18 1 18 19
M  V30 19 1 19 20
M  V30 20 1 20 21
M  V30 21 1 21 22
M  V30 22 1 20 23
M  V30 23 2 23 24
M  V30 24 1 24 25
M  V30 25 2 25 26
M  V30 26 1 26 27
M  V30 27 2 27 28
M  V30 28 1 28 29
M  V30 29 1 29 30
M  V30 30 1 9 3
M  V30 31 1 22 17
M  V30 32 1 28 23
M  V30 33 1 15 7
M  V30 34 1 1 31
M  V30 35 1 1 32
M  V30 36 1 1 33
M  V30 37 1 6 34
M  V30 38 1 6 35
M  V30 39 1 9 36
M  V30 40 1 16 37
M  V30 41 1 16 38
M  V30 42 1 18 39
M  V30 43 1 18 40
M  V30 44 1 19 41
M  V30 45 1 19 42
M  V30 46 1 21 43
M  V30 47 1 21 44
M  V30 48 1 22 45
M  V30 49 1 22 46
M  V30 50 1 24 47
M  V30 51 1 25 48
M  V30 52 1 26 49
M  V30 53 1 27 50
M  V30 54 1 30 51
M  V30 55 1 30 52
M  V30 56 1 30 53
M  V30 END BOND
M  V30 END CTAB
M  END
