
     RDKit          3D

  0  0  0  0  0  0  0  0  0  0999 V3000
M  V30 BEGIN CTAB
M  V30 COUNTS 22 22 0 0 0
M  V30 BEGIN ATOM
M  V30 1 C 3.93823 -0.676437 -0.368472 0
M  V30 2 O 2.54206 -0.855367 -0.502085 0
M  V30 3 C 1.70991 0.0926619 0.0751774 0
M  V30 4 O 2.19449 1.07454 0.694417 0
M  V30 5 C 0.248395 -0.0101133 -0.0120094 0
M  V30 6 C -0.57285 0.936179 0.564402 0
M  V30 7 N 0.0592347 2.01454 1.2461 0
M  V30 8 C -1.96569 0.847276 0.486949 0
M  V30 9 C -2.56187 -0.204732 -0.177782 0
M  V30 10 C -1.73939 -1.15128 -0.754335 0
M  V30 11 C -0.364604 -1.05499 -0.672568 0
M  V30 12 Br 0.78173 -2.36719 -1.47175 0
M  V30 13 N -3.97561 -0.34047 -0.284714 0
M  V30 14 H 4.42409 -1.69163 -0.315059 0
M  V30 15 H 4.11066 -0.22671 0.632245 0
M  V30 16 H 4.36524 -0.0664947 -1.1866 0
M  V30 17 H 0.314215 2.87131 0.708176 0
M  V30 18 H 0.286493 2.00319 2.26032 0
M  V30 19 H -2.58325 1.60565 0.949541 0
M  V30 20 H -2.19035 -1.99567 -1.28744 0
M  V30 21 H -4.50496 -0.66605 0.55441 0
M  V30 22 H -4.51618 -0.138207 -1.13893 0
M  V30 END ATOM
M  V30 BEGIN BOND
M  V30 1 1 1 2
M  V30 2 1 2 3
M  V30 3 2 3 4
M  V30 4 1 3 5
M  V30 5 2 5 6
M  V30 6 1 6 7
M  V30 7 1 6 8
M  V30 8 2 8 9
M  V30 9 1 9 10
M  V30 10 2 10 11
M  V30 11 1 11 12
M  V30 12 1 9 13
M  V30 13 1 11 5
M  V30 14 1 1 14
M  V30 15 1 1 15
M  V30 16 1 1 16
M  V30 17 1 7 17
M  V30 18 1 7 18
M  V30 19 1 8 19
M  V30 20 1 10 20
M  V30 21 1 13 21
M  V30 22 1 13 22
M  V30 END BOND
M  V30 END CTAB
M  END
