
     RDKit          3D

  0  0  0  0  0  0  0  0  0  0999 V3000
M  V30 BEGIN CTAB
M  V30 COUNTS 43 45 0 0 0
M  V30 BEGIN ATOM
M  V30 1 N 0.709589 -3.87983 1.05063 0
M  V30 2 C -0.215001 -2.80373 0.830616 0
M  V30 3 N -1.35916 -2.70836 1.53916 0
M  V30 4 C -2.23209 -1.70872 1.34797 0
M  V30 5 N -3.44426 -1.57852 2.0748 0
M  V30 6 C -1.93757 -0.759738 0.397333 0
M  V30 7 C -2.82001 0.337425 0.125508 0
M  V30 8 C -2.77785 1.46194 0.907015 0
M  V30 9 C -3.63896 2.50396 0.633698 0
M  V30 10 Cl -3.58875 3.96193 1.63853 0
M  V30 11 C -4.55148 2.4789 -0.394504 0
M  V30 12 Cl -5.64649 3.80188 -0.746251 0
M  V30 13 C -4.60956 1.33528 -1.20608 0
M  V30 14 C -3.73448 0.311792 -0.905046 0
M  V30 15 C -0.756459 -0.81452 -0.36812 0
M  V30 16 C -0.456583 0.183358 -1.35806 0
M  V30 17 C 0.810925 0.0865646 -2.14167 0
M  V30 18 C 2.04096 0.152359 -1.34868 0
M  V30 19 C 2.43952 1.42149 -0.910184 0
M  V30 20 C 3.59702 1.62415 -0.197327 0
M  V30 21 C 4.42873 0.576399 0.123207 0
M  V30 22 C 4.05671 -0.677886 -0.298258 0
M  V30 23 C 2.87999 -0.880154 -1.02308 0
M  V30 24 S 5.89019 0.864836 1.03438 0
M  V30 25 F 5.57932 0.739872 2.6834 0
M  V30 26 O 6.94451 -0.118712 0.604056 0
M  V30 27 O 6.35475 2.24741 0.759527 0
M  V30 28 N 0.0240621 -1.84886 -0.0868263 0
M  V30 29 H 0.577466 -4.72625 0.455695 0
M  V30 30 H 1.47056 -3.81861 1.76662 0
M  V30 31 H -4.09242 -2.39433 2.05109 0
M  V30 32 H -3.72711 -0.755381 2.61395 0
M  V30 33 H -2.09767 1.60544 1.7543 0
M  V30 34 H -5.31206 1.29089 -2.01552 0
M  V30 35 H -3.82928 -0.553827 -1.57488 0
M  V30 36 H -1.31869 0.499198 -1.99599 0
M  V30 37 H -0.30341 1.15868 -0.759483 0
M  V30 38 H 0.803563 -0.953086 -2.61085 0
M  V30 39 H 0.816182 0.824835 -2.98719 0
M  V30 40 H 1.80807 2.28975 -1.14088 0
M  V30 41 H 3.87921 2.62304 0.129023 0
M  V30 42 H 4.69168 -1.51614 -0.0607855 0
M  V30 43 H 2.64632 -1.88471 -1.35147 0
M  V30 END ATOM
M  V30 BEGIN BOND
M  V30 1 1 1 2
M  V30 2 2 2 3
M  V30 3 1 3 4
M  V30 4 1 4 5
M  V30 5 2 4 6
M  V30 6 1 6 7
M  V30 7 2 7 8
M  V30 8 1 8 9
M  V30 9 1 9 10
M  V30 10 2 9 11
M  V30 11 1 11 12
M  V30 12 1 11 13
M  V30 13 2 13 14
M  V30 14 1 6 15
M  V30 15 1 15 16
M  V30 16 1 16 17
M  V30 17 1 17 18
M  V30 18 2 18 19
M  V30 19 1 19 20
M  V30 20 2 20 21
M  V30 21 1 21 22
M  V30 22 2 22 23
M  V30 23 1 21 24
M  V30 24 1 24 25
M  V30 25 2 24 26
M  V30 26 2 24 27
M  V30 27 2 15 28
M  V30 28 1 28 2
M  V30 29 1 14 7
M  V30 30 1 23 18
M  V30 31 1 1 29
M  V30 32 1 1 30
M  V30 33 1 5 31
M  V30 34 1 5 32
M  V30 35 1 8 33
M  V30 36 1 13 34
M  V30 37 1 14 35
M  V30 38 1 16 36
M  V30 39 1 16 37
M  V30 40 1 17 38
M  V30 41 1 17 39
M  V30 42 1 19 40
M  V30 43 1 20 41
M  V30 44 1 22 42
M  V30 45 1 23 43
M  V30 END BOND
M  V30 END CTAB
M  END
