
     RDKit          3D

  0  0  0  0  0  0  0  0  0  0999 V3000
M  V30 BEGIN CTAB
M  V30 COUNTS 31 32 0 0 0
M  V30 BEGIN ATOM
M  V30 1 N -1.80875 -1.11228 1.78366 0
M  V30 2 C -0.860834 -0.800849 0.725977 0
M  V30 3 C -1.56274 0.191323 -0.180193 0
M  V30 4 C -1.99982 1.50003 0.462611 0
M  V30 5 C -1.47776 0.0707488 -1.65259 0
M  V30 6 C -2.69296 -0.476805 -1.00319 0
M  V30 7 C 0.368372 -0.224001 1.35856 0
M  V30 8 C 1.42986 0.1402 0.391102 0
M  V30 9 C 1.68644 1.44376 0.0249367 0
M  V30 10 C 2.68058 1.77388 -0.878708 0
M  V30 11 C 3.4528 0.773556 -1.44369 0
M  V30 12 N 3.19554 -0.490832 -1.08141 0
M  V30 13 C 2.22168 -0.829534 -0.194342 0
M  V30 14 N 2.02661 -2.19143 0.124856 0
M  V30 15 H -1.45261 -0.799884 2.71024 0
M  V30 16 H -2.14051 -2.08042 1.75398 0
M  V30 17 H -0.670015 -1.71254 0.133283 0
M  V30 18 H -1.94904 1.37332 1.57068 0
M  V30 19 H -1.35716 2.32656 0.0945811 0
M  V30 20 H -3.04468 1.75395 0.237472 0
M  V30 21 H -1.63765 0.992051 -2.24785 0
M  V30 22 H -0.766303 -0.672726 -2.06441 0
M  V30 23 H -2.80936 -1.55922 -0.958688 0
M  V30 24 H -3.67067 0.0602664 -1.05717 0
M  V30 25 H 0.0249683 0.713927 1.88909 0
M  V30 26 H 0.742488 -0.868833 2.18986 0
M  V30 27 H 1.06173 2.21079 0.487994 0
M  V30 28 H 2.86605 2.82366 -1.15586 0
M  V30 29 H 4.2304 1.03823 -2.14989 0
M  V30 30 H 2.22241 -2.91235 -0.582164 0
M  V30 31 H 1.69096 -2.45455 1.06099 0
M  V30 END ATOM
M  V30 BEGIN BOND
M  V30 1 1 1 2
M  V30 2 1 2 3
M  V30 3 1 3 4
M  V30 4 1 3 5
M  V30 5 1 5 6
M  V30 6 1 2 7
M  V30 7 1 7 8
M  V30 8 2 8 9
M  V30 9 1 9 10
M  V30 10 2 10 11
M  V30 11 1 11 12
M  V30 12 2 12 13
M  V30 13 1 13 14
M  V30 14 1 6 3
M  V30 15 1 13 8
M  V30 16 1 1 15
M  V30 17 1 1 16
M  V30 18 1 2 17
M  V30 19 1 4 18
M  V30 20 1 4 19
M  V30 21 1 4 20
M  V30 22 1 5 21
M  V30 23 1 5 22
M  V30 24 1 6 23
M  V30 25 1 6 24
M  V30 26 1 7 25
M  V30 27 1 7 26
M  V30 28 1 9 27
M  V30 29 1 10 28
M  V30 30 1 11 29
M  V30 31 1 14 30
M  V30 32 1 14 31
M  V30 END BOND
M  V30 END CTAB
M  END
