
     RDKit          3D

  0  0  0  0  0  0  0  0  0  0999 V3000
M  V30 BEGIN CTAB
M  V30 COUNTS 30 30 0 0 0
M  V30 BEGIN ATOM
M  V30 1 N -2.28531 1.66116 0.0945947 0
M  V30 2 C -1.45025 1.46242 -1.06036 0
M  V30 3 C -0.78395 0.0975759 -1.04667 0
M  V30 4 C -1.90878 -0.921416 -1.03676 0
M  V30 5 C -1.32306 -2.0915 -0.282709 0
M  V30 6 C -0.550647 -1.35716 0.792108 0
M  V30 7 C 0.0248774 -0.125792 0.194727 0
M  V30 8 N 1.41962 -0.190619 0.00716079 0
M  V30 9 S 2.34832 0.921114 0.921062 0
M  V30 10 O 1.75805 1.27982 2.23343 0
M  V30 11 O 3.74154 0.413747 1.19433 0
M  V30 12 N 2.52507 2.36502 -0.0126769 0
M  V30 13 C 1.99258 -1.47643 0.218492 0
M  V30 14 H -2.19773 0.935263 0.820985 0
M  V30 15 H -2.23152 2.63123 0.45794 0
M  V30 16 H -2.0932 1.59663 -1.95398 0
M  V30 17 H -0.696345 2.28745 -1.11612 0
M  V30 18 H -0.222685 -0.0962713 -1.97907 0
M  V30 19 H -2.227 -1.20398 -2.06471 0
M  V30 20 H -2.77998 -0.555836 -0.448236 0
M  V30 21 H -0.719106 -2.69293 -0.957053 0
M  V30 22 H -2.12045 -2.68328 0.231774 0
M  V30 23 H -1.26562 -1.12781 1.61656 0
M  V30 24 H 0.157662 -2.0893 1.21335 0
M  V30 25 H -0.146957 0.701041 0.955287 0
M  V30 26 H 1.6213 2.55272 -0.503424 0
M  V30 27 H 2.66772 3.15399 0.657076 0
M  V30 28 H 3.05228 -1.41979 -0.178474 0
M  V30 29 H 2.15459 -1.70871 1.31215 0
M  V30 30 H 1.53899 -2.31836 -0.280779 0
M  V30 END ATOM
M  V30 BEGIN BOND
M  V30 1 1 1 2
M  V30 2 1 2 3
M  V30 3 1 3 4
M  V30 4 1 4 5
M  V30 5 1 5 6
M  V30 6 1 6 7
M  V30 7 1 7 8
M  V30 8 1 8 9
M  V30 9 2 9 10
M  V30 10 2 9 11
M  V30 11 1 9 12
M  V30 12 1 8 13
M  V30 13 1 7 3
M  V30 14 1 1 14
M  V30 15 1 1 15
M  V30 16 1 2 16
M  V30 17 1 2 17
M  V30 18 1 3 18
M  V30 19 1 4 19
M  V30 20 1 4 20
M  V30 21 1 5 21
M  V30 22 1 5 22
M  V30 23 1 6 23
M  V30 24 1 6 24
M  V30 25 1 7 25
M  V30 26 1 12 26
M  V30 27 1 12 27
M  V30 28 1 13 28
M  V30 29 1 13 29
M  V30 30 1 13 30
M  V30 END BOND
M  V30 END CTAB
M  END
