
     RDKit          3D

  0  0  0  0  0  0  0  0  0  0999 V3000
M  V30 BEGIN CTAB
M  V30 COUNTS 20 20 0 0 0
M  V30 BEGIN ATOM
M  V30 1 N -1.94791 1.57718 0.494873 0
M  V30 2 C -1.94595 0.356251 -0.233323 0
M  V30 3 C -0.999529 -0.685106 0.301157 0
M  V30 4 C -1.15273 -1.90667 -0.617275 0
M  V30 5 F -2.47547 -2.28418 -0.518709 0
M  V30 6 F -0.297091 -2.87049 -0.103466 0
M  V30 7 F -0.761598 -1.62913 -1.89326 0
M  V30 8 C 0.386332 -0.230436 0.373077 0
M  V30 9 O 1.10341 -0.197472 1.4629 0
M  V30 10 N 2.29512 0.246921 1.24688 0
M  V30 11 C 2.39994 0.534041 -0.0627219 0
M  V30 12 N 1.20867 0.234034 -0.597179 0
M  V30 13 N 3.5402 1.04808 -0.731368 0
M  V30 14 H -1.67726 1.50257 1.4898 0
M  V30 15 H -1.48318 2.35802 -0.0196994 0
M  V30 16 H -1.78245 0.564458 -1.31624 0
M  V30 17 H -2.97915 -0.0894779 -0.164093 0
M  V30 18 H -1.35817 -0.993461 1.27828 0
M  V30 19 H 4.28459 1.60538 -0.265888 0
M  V30 20 H 3.64222 0.859495 -1.74552 0
M  V30 END ATOM
M  V30 BEGIN BOND
M  V30 1 1 1 2
M  V30 2 1 2 3
M  V30 3 1 3 4
M  V30 4 1 4 5
M  V30 5 1 4 6
M  V30 6 1 4 7
M  V30 7 1 3 8
M  V30 8 1 8 9
M  V30 9 1 9 10
M  V30 10 2 10 11
M  V30 11 1 11 12
M  V30 12 1 11 13
M  V30 13 2 12 8
M  V30 14 1 1 14
M  V30 15 1 1 15
M  V30 16 1 2 16
M  V30 17 1 2 17
M  V30 18 1 3 18
M  V30 19 1 13 19
M  V30 20 1 13 20
M  V30 END BOND
M  V30 END CTAB
M  END
