
     RDKit          3D

  0  0  0  0  0  0  0  0  0  0999 V3000
M  V30 BEGIN CTAB
M  V30 COUNTS 24 25 0 0 0
M  V30 BEGIN ATOM
M  V30 1 C -3.31037 1.30447 -0.0865522 0
M  V30 2 C -2.0274 0.564615 -0.0893323 0
M  V30 3 C -1.9742 -0.811832 -0.0777106 0
M  V30 4 C -0.767469 -1.47468 -0.080587 0
M  V30 5 C -0.622255 -2.94026 -0.068862 0
M  V30 6 N 0.348273 -0.725629 -0.0951232 0
M  V30 7 C 0.264715 0.619245 -0.106255 0
M  V30 8 N -0.897764 1.28041 -0.103681 0
M  V30 9 C 1.5564 1.09897 -0.119682 0
M  V30 10 N 1.93766 2.47187 -0.134374 0
M  V30 11 C 2.41166 0.015829 -0.116364 0
M  V30 12 N 1.63628 -1.0716 -0.101328 0
M  V30 13 N 3.83086 0.119898 -0.127433 0
M  V30 14 H -3.30402 1.96405 0.827885 0
M  V30 15 H -3.36678 2.00588 -0.943124 0
M  V30 16 H -4.18127 0.650751 -0.0901648 0
M  V30 17 H -2.89835 -1.40464 -0.0659147 0
M  V30 18 H -0.17245 -3.25443 -1.0549 0
M  V30 19 H -1.55109 -3.48875 0.104192 0
M  V30 20 H 0.178922 -3.17804 0.685535 0
M  V30 21 H 2.43274 2.87576 -0.981174 0
M  V30 22 H 1.72191 3.06197 0.694547 0
M  V30 23 H 4.43169 -0.617859 0.296231 0
M  V30 24 H 4.32231 0.934009 -0.557561 0
M  V30 END ATOM
M  V30 BEGIN BOND
M  V30 1 1 1 2
M  V30 2 1 2 3
M  V30 3 2 3 4
M  V30 4 1 4 5
M  V30 5 1 4 6
M  V30 6 1 6 7
M  V30 7 1 7 8
M  V30 8 2 7 9
M  V30 9 1 9 10
M  V30 10 1 9 11
M  V30 11 2 11 12
M  V30 12 1 11 13
M  V30 13 2 8 2
M  V30 14 1 12 6
M  V30 15 1 1 14
M  V30 16 1 1 15
M  V30 17 1 1 16
M  V30 18 1 3 17
M  V30 19 1 5 18
M  V30 20 1 5 19
M  V30 21 1 5 20
M  V30 22 1 10 21
M  V30 23 1 10 22
M  V30 24 1 13 23
M  V30 25 1 13 24
M  V30 END BOND
M  V30 END CTAB
M  END
