
     RDKit          3D

  0  0  0  0  0  0  0  0  0  0999 V3000
M  V30 BEGIN CTAB
M  V30 COUNTS 39 39 0 0 0
M  V30 BEGIN ATOM
M  V30 1 N -0.871318 3.63751 -0.631555 0
M  V30 2 C -1.99569 2.70137 -0.596925 0
M  V30 3 C -1.52312 1.25529 -0.63219 0
M  V30 4 C -0.635619 0.944801 0.550339 0
M  V30 5 N -0.161429 -0.41242 0.566859 0
M  V30 6 C -1.23096 -1.30253 0.811949 0
M  V30 7 C -0.865312 -2.76144 0.852874 0
M  V30 8 C -2.1605 -3.52547 1.14094 0
M  V30 9 N -3.14462 -3.28957 0.117796 0
M  V30 10 C 0.767636 -0.743056 -0.451991 0
M  V30 11 C 2.01338 0.0830504 -0.385025 0
M  V30 12 C 3.02089 -0.280017 0.509769 0
M  V30 13 C 4.18276 0.460836 0.597171 0
M  V30 14 C 4.39974 1.57831 -0.183276 0
M  V30 15 C 3.4071 1.93689 -1.06561 0
M  V30 16 C 2.24182 1.19581 -1.15548 0
M  V30 17 H -0.702752 3.99327 -1.6109 0
M  V30 18 H -1.05063 4.44223 0.00676356 0
M  V30 19 H -2.65655 2.89365 0.268151 0
M  V30 20 H -2.58645 2.89736 -1.51485 0
M  V30 21 H -2.42282 0.645431 -0.673569 0
M  V30 22 H -0.898868 1.16831 -1.54754 0
M  V30 23 H 0.250782 1.61068 0.585808 0
M  V30 24 H -1.19235 1.12804 1.49155 0
M  V30 25 H -2.12541 -1.17779 0.149301 0
M  V30 26 H -1.63331 -1.06334 1.84202 0
M  V30 27 H -0.156644 -2.95614 1.67622 0
M  V30 28 H -0.526361 -3.11263 -0.136734 0
M  V30 29 H -1.9667 -4.62204 1.18706 0
M  V30 30 H -2.6046 -3.21419 2.10957 0
M  V30 31 H -2.73191 -3.24144 -0.852546 0
M  V30 32 H -3.88877 -3.99968 0.0952172 0
M  V30 33 H 0.305505 -0.531542 -1.44664 0
M  V30 34 H 0.998969 -1.81515 -0.429794 0
M  V30 35 H 2.83627 -1.15393 1.11128 0
M  V30 36 H 4.96644 0.181477 1.28723 0
M  V30 37 H 5.3227 2.15669 -0.103524 0
M  V30 38 H 3.56479 2.80968 -1.68252 0
M  V30 39 H 1.45393 1.48167 -1.85721 0
M  V30 END ATOM
M  V30 BEGIN BOND
M  V30 1 1 1 2
M  V30 2 1 2 3
M  V30 3 1 3 4
M  V30 4 1 4 5
M  V30 5 1 5 6
M  V30 6 1 6 7
M  V30 7 1 7 8
M  V30 8 1 8 9
M  V30 9 1 5 10
M  V30 10 1 10 11
M  V30 11 2 11 12
M  V30 12 1 12 13
M  V30 13 2 13 14
M  V30 14 1 14 15
M  V30 15 2 15 16
M  V30 16 1 16 11
M  V30 17 1 1 17
M  V30 18 1 1 18
M  V30 19 1 2 19
M  V30 20 1 2 20
M  V30 21 1 3 21
M  V30 22 1 3 22
M  V30 23 1 4 23
M  V30 24 1 4 24
M  V30 25 1 6 25
M  V30 26 1 6 26
M  V30 27 1 7 27
M  V30 28 1 7 28
M  V30 29 1 8 29
M  V30 30 1 8 30
M  V30 31 1 9 31
M  V30 32 1 9 32
M  V30 33 1 10 33
M  V30 34 1 10 34
M  V30 35 1 12 35
M  V30 36 1 13 36
M  V30 37 1 14 37
M  V30 38 1 15 38
M  V30 39 1 16 39
M  V30 END BOND
M  V30 END CTAB
M  END
