
     RDKit          3D

  0  0  0  0  0  0  0  0  0  0999 V3000
M  V30 BEGIN CTAB
M  V30 COUNTS 22 22 0 0 0
M  V30 BEGIN ATOM
M  V30 1 N -0.0626484 3.31465 0.32342 0
M  V30 2 C -0.0309074 1.90245 0.181281 0
M  V30 3 C -1.19215 1.17162 -0.0905427 0
M  V30 4 C -1.18328 -0.200143 -0.232289 0
M  V30 5 C -2.40232 -1.00114 -0.521146 0
M  V30 6 C -0.00099941 -0.902387 -0.106563 0
M  V30 7 C 1.16093 -0.197417 0.162672 0
M  V30 8 C 1.13325 1.17093 0.300893 0
M  V30 9 C 2.42823 -0.962665 0.296149 0
M  V30 10 F 2.69346 -1.68359 -0.847932 0
M  V30 11 F 2.34181 -1.83841 1.34733 0
M  V30 12 N 0.0670544 -2.31485 -0.242573 0
M  V30 13 H 0.776329 3.85541 0.0527784 0
M  V30 14 H -0.884082 3.8378 0.685323 0
M  V30 15 H -2.12695 1.71098 -0.19162 0
M  V30 16 H -2.18267 -1.91437 -1.08397 0
M  V30 17 H -3.18832 -0.373795 -0.980041 0
M  V30 18 H -2.79874 -1.33743 0.476414 0
M  V30 19 H 2.03386 1.72673 0.510566 0
M  V30 20 H 3.23529 -0.258306 0.505564 0
M  V30 21 H 0.0299225 -2.90927 0.612208 0
M  V30 22 H 0.152936 -2.79678 -1.15791 0
M  V30 END ATOM
M  V30 BEGIN BOND
M  V30 1 1 1 2
M  V30 2 2 2 3
M  V30 3 1 3 4
M  V30 4 1 4 5
M  V30 5 2 4 6
M  V30 6 1 6 7
M  V30 7 2 7 8
M  V30 8 1 7 9
M  V30 9 1 9 10
M  V30 10 1 9 11
M  V30 11 1 6 12
M  V30 12 1 8 2
M  V30 13 1 1 13
M  V30 14 1 1 14
M  V30 15 1 3 15
M  V30 16 1 5 16
M  V30 17 1 5 17
M  V30 18 1 5 18
M  V30 19 1 8 19
M  V30 20 1 9 20
M  V30 21 1 12 21
M  V30 22 1 12 22
M  V30 END BOND
M  V30 END CTAB
M  END
