
     RDKit          3D

  0  0  0  0  0  0  0  0  0  0999 V3000
M  V30 BEGIN CTAB
M  V30 COUNTS 38 40 0 0 0
M  V30 BEGIN ATOM
M  V30 1 C -6.25123 1.72497 0.0309471 0
M  V30 2 C -5.17151 0.704459 0.0669638 0
M  V30 3 C -3.83002 1.02708 -0.0956749 0
M  V30 4 C -2.84155 0.0669106 -0.0593643 0
M  V30 5 C -1.45153 0.456385 -0.240172 0
M  V30 6 N -0.455378 -0.493298 0.120694 0
M  V30 7 C 0.917279 -0.0842396 -0.077933 0
M  V30 8 C 1.95317 -0.940221 0.230569 0
M  V30 9 C 3.28015 -0.563628 0.0468961 0
M  V30 10 C 3.56911 0.689185 -0.453174 0
M  V30 11 C 2.54255 1.56627 -0.770205 0
M  V30 12 C 1.25301 1.15647 -0.57448 0
M  V30 13 N 4.8261 1.12089 -0.656632 0
M  V30 14 C 5.85067 0.302513 -0.362614 0
M  V30 15 N 7.1929 0.718069 -0.562018 0
M  V30 16 N 5.57283 -0.940404 0.133273 0
M  V30 17 C 4.32751 -1.38533 0.341612 0
M  V30 18 N 4.03688 -2.67632 0.85674 0
M  V30 19 C -3.20487 -1.23609 0.143004 0
M  V30 20 C -4.54766 -1.59943 0.311135 0
M  V30 21 C -5.51433 -0.62039 0.270477 0
M  V30 22 H -6.71838 1.86322 1.02796 0
M  V30 23 H -5.88598 2.68751 -0.382513 0
M  V30 24 H -7.07879 1.39992 -0.653516 0
M  V30 25 H -3.56684 2.04956 -0.252617 0
M  V30 26 H -1.25402 0.788117 -1.29506 0
M  V30 27 H -1.22656 1.39002 0.359168 0
M  V30 28 H -0.620891 -1.44427 0.512667 0
M  V30 29 H 1.77395 -1.92933 0.624063 0
M  V30 30 H 2.74272 2.55262 -1.16317 0
M  V30 31 H 0.419935 1.84144 -0.820596 0
M  V30 32 H 7.85548 0.100101 -1.0497 0
M  V30 33 H 7.49869 1.6403 -0.216092 0
M  V30 34 H 4.40624 -3.549 0.430448 0
M  V30 35 H 3.43011 -2.77057 1.69587 0
M  V30 36 H -2.48312 -2.05674 0.181837 0
M  V30 37 H -4.78502 -2.63697 0.467707 0
M  V30 38 H -6.56161 -0.919765 0.403691 0
M  V30 END ATOM
M  V30 BEGIN BOND
M  V30 1 1 1 2
M  V30 2 2 2 3
M  V30 3 1 3 4
M  V30 4 1 4 5
M  V30 5 1 5 6
M  V30 6 1 6 7
M  V30 7 2 7 8
M  V30 8 1 8 9
M  V30 9 2 9 10
M  V30 10 1 10 11
M  V30 11 2 11 12
M  V30 12 1 10 13
M  V30 13 2 13 14
M  V30 14 1 14 15
M  V30 15 1 14 16
M  V30 16 2 16 17
M  V30 17 1 17 18
M  V30 18 2 4 19
M  V30 19 1 19 20
M  V30 20 2 20 21
M  V30 21 1 21 2
M  V30 22 1 12 7
M  V30 23 1 17 9
M  V30 24 1 1 22
M  V30 25 1 1 23
M  V30 26 1 1 24
M  V30 27 1 3 25
M  V30 28 1 5 26
M  V30 29 1 5 27
M  V30 30 1 6 28
M  V30 31 1 8 29
M  V30 32 1 11 30
M  V30 33 1 12 31
M  V30 34 1 15 32
M  V30 35 1 15 33
M  V30 36 1 18 34
M  V30 37 1 18 35
M  V30 38 1 19 36
M  V30 39 1 20 37
M  V30 40 1 21 38
M  V30 END BOND
M  V30 END CTAB
M  END
