
     RDKit          3D

  0  0  0  0  0  0  0  0  0  0999 V3000
M  V30 BEGIN CTAB
M  V30 COUNTS 27 28 0 0 0
M  V30 BEGIN ATOM
M  V30 1 N -4.95277 0.384702 0.479185 0
M  V30 2 C -3.61478 -0.0919345 0.301189 0
M  V30 3 C -2.7641 -0.283055 1.36989 0
M  V30 4 C -1.47321 -0.744272 1.18377 0
M  V30 5 C -0.972682 -1.03502 -0.0702968 0
M  V30 6 O 0.327986 -1.49537 -0.211825 0
M  V30 7 C 1.4198 -0.691511 -0.391493 0
M  V30 8 C 2.14797 -0.204372 0.671921 0
M  V30 9 C 3.26391 0.617715 0.477112 0
M  V30 10 N 3.98234 1.0952 1.60253 0
M  V30 11 C 3.65264 0.954523 -0.809265 0
M  V30 12 C 2.92952 0.471333 -1.87912 0
M  V30 13 C 1.83114 -0.338366 -1.67417 0
M  V30 14 C -1.82689 -0.842452 -1.13656 0
M  V30 15 C -3.11551 -0.382083 -0.951125 0
M  V30 16 H -5.15774 1.34215 0.846661 0
M  V30 17 H -5.77072 -0.214595 0.245385 0
M  V30 18 H -3.15783 -0.0539802 2.3603 0
M  V30 19 H -0.829422 -0.882749 2.05765 0
M  V30 20 H 1.83706 -0.473093 1.68486 0
M  V30 21 H 3.47844 1.54403 2.39275 0
M  V30 22 H 5.01303 1.01084 1.66647 0
M  V30 23 H 4.52196 1.59295 -0.913226 0
M  V30 24 H 3.23065 0.732545 -2.88305 0
M  V30 25 H 1.25792 -0.722773 -2.48892 0
M  V30 26 H -1.46081 -1.06322 -2.1395 0
M  V30 27 H -3.79788 -0.227136 -1.79111 0
M  V30 END ATOM
M  V30 BEGIN BOND
M  V30 1 1 1 2
M  V30 2 2 2 3
M  V30 3 1 3 4
M  V30 4 2 4 5
M  V30 5 1 5 6
M  V30 6 1 6 7
M  V30 7 2 7 8
M  V30 8 1 8 9
M  V30 9 1 9 10
M  V30 10 2 9 11
M  V30 11 1 11 12
M  V30 12 2 12 13
M  V30 13 1 5 14
M  V30 14 2 14 15
M  V30 15 1 15 2
M  V30 16 1 13 7
M  V30 17 1 1 16
M  V30 18 1 1 17
M  V30 19 1 3 18
M  V30 20 1 4 19
M  V30 21 1 8 20
M  V30 22 1 10 21
M  V30 23 1 10 22
M  V30 24 1 11 23
M  V30 25 1 12 24
M  V30 26 1 13 25
M  V30 27 1 14 26
M  V30 28 1 15 27
M  V30 END BOND
M  V30 END CTAB
M  END
