
     RDKit          3D

  0  0  0  0  0  0  0  0  0  0999 V3000
M  V30 BEGIN CTAB
M  V30 COUNTS 36 36 0 0 0
M  V30 BEGIN ATOM
M  V30 1 C 5.65395 -0.463215 -0.528815 0
M  V30 2 C 4.82764 0.307396 0.463753 0
M  V30 3 O 3.469 -0.0610073 0.458597 0
M  V30 4 C 2.65685 0.0511772 -0.661716 0
M  V30 5 O 3.20395 0.508473 -1.69805 0
M  V30 6 C 1.24797 -0.340046 -0.636132 0
M  V30 7 C 0.688317 -0.8139 0.444436 0
M  V30 8 N 1.47117 -0.950916 1.62131 0
M  V30 9 C -0.767768 -1.20455 0.426677 0
M  V30 10 C -1.52387 -0.286973 -0.447466 0
M  V30 11 C -2.88528 0.0637143 -0.0742067 0
M  V30 12 O -3.5961 0.846907 -0.777153 0
M  V30 13 O -3.48032 -0.438687 1.06992 0
M  V30 14 C -4.80626 -0.0961716 1.43202 0
M  V30 15 C -4.97766 1.38945 1.64123 0
M  V30 16 C -0.974906 0.204754 -1.54526 0
M  V30 17 N -1.69575 1.08974 -2.39381 0
M  V30 18 C 0.417983 -0.204772 -1.85227 0
M  V30 19 H 5.70187 0.0303029 -1.52191 0
M  V30 20 H 6.71586 -0.455145 -0.150907 0
M  V30 21 H 5.32343 -1.49926 -0.567071 0
M  V30 22 H 4.9438 1.4025 0.367101 0
M  V30 23 H 5.22386 0.0455913 1.47836 0
M  V30 24 H 1.97887 -1.83083 1.83542 0
M  V30 25 H 1.53761 -0.156392 2.28077 0
M  V30 26 H -0.886077 -2.26499 0.124629 0
M  V30 27 H -1.09748 -1.12053 1.49555 0
M  V30 28 H -5.06531 -0.640686 2.34056 0
M  V30 29 H -5.48296 -0.415303 0.614063 0
M  V30 30 H -4.03305 1.93297 1.47715 0
M  V30 31 H -5.77144 1.79255 0.983428 0
M  V30 32 H -5.30737 1.60603 2.69162 0
M  V30 33 H -1.7879 2.11185 -2.22745 0
M  V30 34 H -2.16134 0.693735 -3.23444 0
M  V30 35 H 0.886376 0.571757 -2.49582 0
M  V30 36 H 0.352328 -1.15724 -2.43411 0
M  V30 END ATOM
M  V30 BEGIN BOND
M  V30 1 1 1 2
M  V30 2 1 2 3
M  V30 3 1 3 4
M  V30 4 2 4 5
M  V30 5 1 4 6
M  V30 6 2 6 7
M  V30 7 1 7 8
M  V30 8 1 7 9
M  V30 9 1 9 10
M  V30 10 1 10 11
M  V30 11 2 11 12
M  V30 12 1 11 13
M  V30 13 1 13 14
M  V30 14 1 14 15
M  V30 15 2 10 16
M  V30 16 1 16 17
M  V30 17 1 16 18
M  V30 18 1 18 6
M  V30 19 1 1 19
M  V30 20 1 1 20
M  V30 21 1 1 21
M  V30 22 1 2 22
M  V30 23 1 2 23
M  V30 24 1 8 24
M  V30 25 1 8 25
M  V30 26 1 9 26
M  V30 27 1 9 27
M  V30 28 1 14 28
M  V30 29 1 14 29
M  V30 30 1 15 30
M  V30 31 1 15 31
M  V30 32 1 15 32
M  V30 33 1 17 33
M  V30 34 1 17 34
M  V30 35 1 18 35
M  V30 36 1 18 36
M  V30 END BOND
M  V30 END CTAB
M  END
