
     RDKit          3D

  0  0  0  0  0  0  0  0  0  0999 V3000
M  V30 BEGIN CTAB
M  V30 COUNTS 33 34 0 0 0
M  V30 BEGIN ATOM
M  V30 1 C 4.96555 1.02832 0.282682 0
M  V30 2 C 4.12653 0.815129 -0.937827 0
M  V30 3 O 2.77038 0.578954 -0.644961 0
M  V30 4 C 2.33957 -0.471945 0.11596 0
M  V30 5 O 3.19995 -1.2653 0.575654 0
M  V30 6 C 0.92358 -0.74958 0.443031 0
M  V30 7 C 0.516642 -2.16544 0.0286359 0
M  V30 8 C -0.885333 -2.40529 0.475434 0
M  V30 9 C -1.76824 -1.21672 0.392281 0
M  V30 10 C -3.12514 -1.41195 0.624881 0
M  V30 11 C -3.98816 -0.321676 0.556467 0
M  V30 12 C -3.54175 0.942931 0.266089 0
M  V30 13 N -4.39702 2.06719 0.190491 0
M  V30 14 C -2.1959 1.11788 0.0387033 0
M  V30 15 N -1.64877 2.38431 -0.26686 0
M  V30 16 C -1.30814 0.0443643 0.100526 0
M  V30 17 O 0.0489521 0.205589 -0.126127 0
M  V30 18 H 5.46437 2.01833 0.259218 0
M  V30 19 H 5.79246 0.26798 0.308532 0
M  V30 20 H 4.40261 0.863576 1.23296 0
M  V30 21 H 4.15709 1.75386 -1.55897 0
M  V30 22 H 4.57329 0.0314941 -1.57612 0
M  V30 23 H 0.839292 -0.729982 1.5579 0
M  V30 24 H 0.705019 -2.36055 -1.02847 0
M  V30 25 H 1.18676 -2.84759 0.617375 0
M  V30 26 H -0.946276 -2.76352 1.53359 0
M  V30 27 H -1.32452 -3.19799 -0.179029 0
M  V30 28 H -3.49578 -2.40136 0.855173 0
M  V30 29 H -5.03571 -0.519625 0.744455 0
M  V30 30 H -4.8361 2.41228 -0.690367 0
M  V30 31 H -4.60002 2.58067 1.06737 0
M  V30 32 H -1.07641 2.94552 0.399208 0
M  V30 33 H -1.83878 2.77013 -1.22653 0
M  V30 END ATOM
M  V30 BEGIN BOND
M  V30 1 1 1 2
M  V30 2 1 2 3
M  V30 3 1 3 4
M  V30 4 2 4 5
M  V30 5 1 4 6
M  V30 6 1 6 7
M  V30 7 1 7 8
M  V30 8 1 8 9
M  V30 9 2 9 10
M  V30 10 1 10 11
M  V30 11 2 11 12
M  V30 12 1 12 13
M  V30 13 1 12 14
M  V30 14 1 14 15
M  V30 15 2 14 16
M  V30 16 1 16 17
M  V30 17 1 17 6
M  V30 18 1 16 9
M  V30 19 1 1 18
M  V30 20 1 1 19
M  V30 21 1 1 20
M  V30 22 1 2 21
M  V30 23 1 2 22
M  V30 24 1 6 23
M  V30 25 1 7 24
M  V30 26 1 7 25
M  V30 27 1 8 26
M  V30 28 1 8 27
M  V30 29 1 10 28
M  V30 30 1 11 29
M  V30 31 1 13 30
M  V30 32 1 13 31
M  V30 33 1 15 32
M  V30 34 1 15 33
M  V30 END BOND
M  V30 END CTAB
M  END
