
     RDKit          3D

  0  0  0  0  0  0  0  0  0  0999 V3000
M  V30 BEGIN CTAB
M  V30 COUNTS 22 22 0 0 0
M  V30 BEGIN ATOM
M  V30 1 N 3.27311 0.444792 0.231469 0
M  V30 2 C 2.35416 -0.600439 -0.105341 0
M  V30 3 C 0.938572 -0.1932 -0.00702547 0
M  V30 4 C -0.0122031 -1.15936 -0.320141 0
M  V30 5 C -1.35932 -0.871166 -0.256955 0
M  V30 6 C -2.36297 -1.91239 -0.594006 0
M  V30 7 C -1.76901 0.389666 0.121078 0
M  V30 8 C -0.818396 1.33317 0.427261 0
M  V30 9 C 0.519454 1.04699 0.364524 0
M  V30 10 N -1.25676 2.65175 0.822419 0
M  V30 11 H 4.23577 0.106308 0.00647057 0
M  V30 12 H 3.12454 1.31533 -0.296684 0
M  V30 13 H 2.58965 -1.0558 -1.10788 0
M  V30 14 H 2.50251 -1.4258 0.630495 0
M  V30 15 H 0.293835 -2.1611 -0.620847 0
M  V30 16 H -3.37032 -1.47119 -0.665026 0
M  V30 17 H -2.35645 -2.65111 0.250696 0
M  V30 18 H -2.11438 -2.46588 -1.51933 0
M  V30 19 H -2.84727 0.634086 0.17586 0
M  V30 20 H 1.25239 1.81079 0.611714 0
M  V30 21 H -1.4028 3.3406 0.0451822 0
M  V30 22 H -1.41412 2.89394 1.80607 0
M  V30 END ATOM
M  V30 BEGIN BOND
M  V30 1 1 1 2
M  V30 2 1 2 3
M  V30 3 2 3 4
M  V30 4 1 4 5
M  V30 5 1 5 6
M  V30 6 2 5 7
M  V30 7 1 7 8
M  V30 8 2 8 9
M  V30 9 1 8 10
M  V30 10 1 9 3
M  V30 11 1 1 11
M  V30 12 1 1 12
M  V30 13 1 2 13
M  V30 14 1 2 14
M  V30 15 1 4 15
M  V30 16 1 6 16
M  V30 17 1 6 17
M  V30 18 1 6 18
M  V30 19 1 7 19
M  V30 20 1 9 20
M  V30 21 1 10 21
M  V30 22 1 10 22
M  V30 END BOND
M  V30 END CTAB
M  END
