
     RDKit          3D

  0  0  0  0  0  0  0  0  0  0999 V3000
M  V30 BEGIN CTAB
M  V30 COUNTS 58 60 0 0 0
M  V30 BEGIN ATOM
M  V30 1 C 5.22927 0.299683 -0.575377 0 CFG=2
M  V30 2 C 6.12943 0.624243 0.559833 0
M  V30 3 C 7.47786 1.14576 0.221274 0
M  V30 4 C 8.1889 1.40729 1.52585 0
M  V30 5 O 9.49068 1.91577 1.45894 0
M  V30 6 O 7.64753 1.18292 2.63745 0
M  V30 7 N 3.97489 -0.187719 0.0224237 0
M  V30 8 C 2.78313 0.566791 -0.106848 0
M  V30 9 O 2.77107 1.6648 -0.731976 0
M  V30 10 C 1.5353 0.108871 0.472076 0
M  V30 11 C 1.43358 -1.14573 1.06068 0
M  V30 12 C 0.251074 -1.56394 1.60663 0
M  V30 13 C -0.87042 -0.75471 1.58839 0
M  V30 14 C -2.09976 -1.14603 2.20125 0
M  V30 15 C -3.10042 -2.01106 1.61558 0
M  V30 16 C -3.76438 -1.66266 0.318027 0
M  V30 17 C -2.91003 -1.56975 -0.885425 0
M  V30 18 N -3.12988 -0.425219 -1.73594 0
M  V30 19 C -4.40293 0.190962 -1.84205 0
M  V30 20 C -5.17935 0.150525 -0.698143 0
M  V30 21 C -4.69733 -0.476373 0.52049 0
M  V30 22 C -6.42543 0.733097 -0.756475 0
M  V30 23 N -7.26482 0.724636 0.379463 0
M  V30 24 N -6.84222 1.31916 -1.91966 0
M  V30 25 C -6.06671 1.34477 -3.01826 0
M  V30 26 N -6.50984 1.95747 -4.22466 0
M  V30 27 N -4.83424 0.77402 -2.97706 0
M  V30 28 C -0.769502 0.509784 0.995511 0
M  V30 29 C 0.413919 0.941892 0.44319 0
M  V30 30 C 5.7403 -0.623809 -1.57998 0
M  V30 31 O 6.90455 -0.312045 -2.26475 0
M  V30 32 O 5.20251 -1.71763 -1.89571 0
M  V30 33 H 4.99397 1.26905 -1.10206 0
M  V30 34 H 5.62757 1.3916 1.21573 0
M  V30 35 H 6.28515 -0.252884 1.25372 0
M  V30 36 H 8.0874 0.330478 -0.244921 0
M  V30 37 H 7.50235 2.07859 -0.341199 0
M  V30 38 H 9.63962 2.91512 1.27903 0
M  V30 39 H 4.03582 -1.09087 0.524767 0
M  V30 40 H 2.26708 -1.83572 1.11308 0
M  V30 41 H 0.119703 -2.52546 2.07409 0
M  V30 42 H -2.63165 -0.177207 2.51551 0
M  V30 43 H -1.80488 -1.52978 3.24919 0
M  V30 44 H -3.97358 -2.0416 2.36102 0
M  V30 45 H -2.82569 -3.11904 1.6315 0
M  V30 46 H -4.49846 -2.52063 0.141543 0
M  V30 47 H -3.16118 -2.45146 -1.59771 0
M  V30 48 H -1.82931 -1.72039 -0.74511 0
M  V30 49 H -2.33705 -0.0473488 -2.28567 0
M  V30 50 H -4.16403 0.265716 1.18117 0
M  V30 51 H -5.58039 -0.79964 1.12427 0
M  V30 52 H -8.30014 0.583904 0.207998 0
M  V30 53 H -6.90026 0.849906 1.34916 0
M  V30 54 H -7.4993 2.10158 -4.48145 0
M  V30 55 H -5.79656 2.29266 -4.91318 0
M  V30 56 H -1.64038 1.16997 0.966682 0
M  V30 57 H 0.526568 1.90362 -0.0183057 0
M  V30 58 H 7.55091 -1.0059 -2.61671 0
M  V30 END ATOM
M  V30 BEGIN BOND
M  V30 1 1 1 2
M  V30 2 1 2 3
M  V30 3 1 3 4
M  V30 4 1 4 5
M  V30 5 2 4 6
M  V30 6 1 1 7
M  V30 7 1 7 8
M  V30 8 2 8 9
M  V30 9 1 8 10
M  V30 10 2 10 11
M  V30 11 1 11 12
M  V30 12 2 12 13
M  V30 13 1 13 14
M  V30 14 1 14 15
M  V30 15 1 15 16
M  V30 16 1 16 17
M  V30 17 1 17 18
M  V30 18 1 18 19
M  V30 19 2 19 20
M  V30 20 1 20 21
M  V30 21 1 20 22
M  V30 22 1 22 23
M  V30 23 2 22 24
M  V30 24 1 24 25
M  V30 25 1 25 26
M  V30 26 2 25 27
M  V30 27 1 13 28
M  V30 28 2 28 29
M  V30 29 1 1 30
M  V30 30 1 30 31
M  V30 31 2 30 32
M  V30 32 1 29 10
M  V30 33 1 21 16
M  V30 34 1 27 19
M  V30 35 1 1 33 CFG=3
M  V30 36 1 2 34
M  V30 37 1 2 35
M  V30 38 1 3 36
M  V30 39 1 3 37
M  V30 40 1 5 38
M  V30 41 1 7 39
M  V30 42 1 11 40
M  V30 43 1 12 41
M  V30 44 1 14 42
M  V30 45 1 14 43
M  V30 46 1 15 44
M  V30 47 1 15 45
M  V30 48 1 16 46
M  V30 49 1 17 47
M  V30 50 1 17 48
M  V30 51 1 18 49
M  V30 52 1 21 50
M  V30 53 1 21 51
M  V30 54 1 23 52
M  V30 55 1 23 53
M  V30 56 1 26 54
M  V30 57 1 26 55
M  V30 58 1 28 56
M  V30 59 1 29 57
M  V30 60 1 31 58
M  V30 END BOND
M  V30 END CTAB
M  END
