
     RDKit          3D

  0  0  0  0  0  0  0  0  0  0999 V3000
M  V30 BEGIN CTAB
M  V30 COUNTS 26 26 0 0 0
M  V30 BEGIN ATOM
M  V30 1 N 0.779314 2.05218 -0.0337558 0
M  V30 2 C 1.29414 0.722754 0.112257 0
M  V30 3 C 0.231961 -0.341804 0.142868 0
M  V30 4 C 0.962678 -1.67891 0.302203 0
M  V30 5 N 1.87041 -1.95007 -0.762422 0
M  V30 6 C -0.697777 -0.220594 1.30946 0
M  V30 7 C -1.90533 0.617673 1.05984 0
M  V30 8 O -2.52029 0.348585 -0.157033 0
M  V30 9 C -1.69139 0.515201 -1.2361 0
M  V30 10 C -0.493255 -0.385378 -1.16099 0
M  V30 11 H 0.547897 2.40136 0.945 0
M  V30 12 H 1.60011 2.6648 -0.31968 0
M  V30 13 H 1.92943 0.707666 1.0234 0
M  V30 14 H 1.97389 0.500363 -0.73555 0
M  V30 15 H 1.4793 -1.59534 1.30128 0
M  V30 16 H 0.164645 -2.44191 0.394425 0
M  V30 17 H 2.82623 -1.58759 -0.481261 0
M  V30 18 H 1.60309 -1.52212 -1.67078 0
M  V30 19 H -0.188787 0.160156 2.21465 0
M  V30 20 H -1.06037 -1.25531 1.55978 0
M  V30 21 H -1.7336 1.70471 1.20943 0
M  V30 22 H -2.66498 0.340075 1.84987 0
M  V30 23 H -1.38531 1.57104 -1.37656 0
M  V30 24 H -2.25832 0.235592 -2.14625 0
M  V30 25 H -0.83048 -1.44483 -1.33292 0
M  V30 26 H 0.166781 -0.11829 -2.01116 0
M  V30 END ATOM
M  V30 BEGIN BOND
M  V30 1 1 1 2
M  V30 2 1 2 3
M  V30 3 1 3 4
M  V30 4 1 4 5
M  V30 5 1 3 6
M  V30 6 1 6 7
M  V30 7 1 7 8
M  V30 8 1 8 9
M  V30 9 1 9 10
M  V30 10 1 10 3
M  V30 11 1 1 11
M  V30 12 1 1 12
M  V30 13 1 2 13
M  V30 14 1 2 14
M  V30 15 1 4 15
M  V30 16 1 4 16
M  V30 17 1 5 17
M  V30 18 1 5 18
M  V30 19 1 6 19
M  V30 20 1 6 20
M  V30 21 1 7 21
M  V30 22 1 7 22
M  V30 23 1 9 23
M  V30 24 1 9 24
M  V30 25 1 10 25
M  V30 26 1 10 26
M  V30 END BOND
M  V30 END CTAB
M  END
