
     RDKit          3D

  0  0  0  0  0  0  0  0  0  0999 V3000
M  V30 BEGIN CTAB
M  V30 COUNTS 44 44 0 0 0
M  V30 BEGIN ATOM
M  V30 1 C -5.56029 1.33872 -0.245215 0
M  V30 2 C -5.11806 0.355431 0.775158 0
M  V30 3 C -3.66748 -0.024696 0.663603 0
M  V30 4 C -3.28908 -0.644114 -0.637754 0 CFG=1
M  V30 5 C -1.85479 -0.962001 -0.605777 0
M  V30 6 O -1.46223 -2.11959 -0.82953 0
M  V30 7 N -0.916093 0.0484456 -0.320365 0
M  V30 8 C 0.507643 -0.224707 -0.279163 0
M  V30 9 C 1.23595 1.05106 0.0489373 0
M  V30 10 C 2.68881 0.731064 0.0824979 0
M  V30 11 C 3.33524 0.32521 1.23314 0
M  V30 12 C 4.67438 0.0411551 1.21691 0
M  V30 13 C 5.44149 0.141696 0.0727479 0
M  V30 14 C 4.80772 0.545905 -1.08254 0
M  V30 15 C 3.4635 0.831557 -1.06849 0
M  V30 16 S 7.16206 -0.233935 0.0976564 0
M  V30 17 O 7.6602 0.0776267 1.47143 0
M  V30 18 O 7.87979 0.650777 -0.88068 0
M  V30 19 N 7.36866 -1.8956 -0.252704 0
M  V30 20 N -4.06579 -1.81903 -0.965791 0
M  V30 21 C -5.97669 -0.884309 0.857364 0
M  V30 22 H -4.68373 1.9662 -0.5277 0
M  V30 23 H -6.31385 2.03067 0.174326 0
M  V30 24 H -6.02976 0.859654 -1.12682 0
M  V30 25 H -5.22092 0.859693 1.782 0
M  V30 26 H -3.39435 -0.72016 1.47374 0
M  V30 27 H -3.0474 0.883761 0.80639 0
M  V30 28 H -3.49151 0.102128 -1.44119 0
M  V30 29 H -1.24933 1.02626 -0.132447 0
M  V30 30 H 0.834657 -0.541918 -1.30592 0
M  V30 31 H 0.721216 -1.03391 0.426421 0
M  V30 32 H 1.10492 1.82737 -0.724945 0
M  V30 33 H 0.972212 1.43649 1.04495 0
M  V30 34 H 2.76822 0.235617 2.14477 0
M  V30 35 H 5.17827 -0.280325 2.1359 0
M  V30 36 H 5.36589 0.637198 -1.9933 0
M  V30 37 H 2.98257 1.14763 -1.98545 0
M  V30 38 H 8.05194 -2.06983 -1.01833 0
M  V30 39 H 7.55838 -2.44411 0.611626 0
M  V30 40 H -3.85884 -2.6353 -0.360685 0
M  V30 41 H -3.89655 -2.01805 -1.97885 0
M  V30 42 H -6.40914 -1.05675 -0.167837 0
M  V30 43 H -6.83094 -0.741501 1.57526 0
M  V30 44 H -5.42692 -1.76343 1.23666 0
M  V30 END ATOM
M  V30 BEGIN BOND
M  V30 1 1 1 2
M  V30 2 1 2 3
M  V30 3 1 3 4
M  V30 4 1 4 5
M  V30 5 2 5 6
M  V30 6 1 5 7
M  V30 7 1 7 8
M  V30 8 1 8 9
M  V30 9 1 9 10
M  V30 10 2 10 11
M  V30 11 1 11 12
M  V30 12 2 12 13
M  V30 13 1 13 14
M  V30 14 2 14 15
M  V30 15 1 13 16
M  V30 16 2 16 17
M  V30 17 2 16 18
M  V30 18 1 16 19
M  V30 19 1 4 20
M  V30 20 1 2 21
M  V30 21 1 15 10
M  V30 22 1 1 22
M  V30 23 1 1 23
M  V30 24 1 1 24
M  V30 25 1 2 25
M  V30 26 1 3 26
M  V30 27 1 3 27
M  V30 28 1 4 28 CFG=3
M  V30 29 1 7 29
M  V30 30 1 8 30
M  V30 31 1 8 31
M  V30 32 1 9 32
M  V30 33 1 9 33
M  V30 34 1 11 34
M  V30 35 1 12 35
M  V30 36 1 14 36
M  V30 37 1 15 37
M  V30 38 1 19 38
M  V30 39 1 19 39
M  V30 40 1 20 40
M  V30 41 1 20 41
M  V30 42 1 21 42
M  V30 43 1 21 43
M  V30 44 1 21 44
M  V30 END BOND
M  V30 END CTAB
M  END
