
     RDKit          3D

  0  0  0  0  0  0  0  0  0  0999 V3000
M  V30 BEGIN CTAB
M  V30 COUNTS 28 30 0 0 0
M  V30 BEGIN ATOM
M  V30 1 N 2.07283 1.76071 -0.648137 0
M  V30 2 C 1.96643 0.441218 -0.0711508 0
M  V30 3 C 3.10524 -0.322187 0.027412 0
M  V30 4 N 4.33983 0.162526 -0.418772 0
M  V30 5 C 3.01868 -1.58066 0.574731 0
M  V30 6 C 1.77843 -2.01324 1.00008 0
M  V30 7 N 0.697776 -1.26708 0.897379 0
M  V30 8 C 0.754385 -0.0419913 0.369999 0
M  V30 9 N -0.415063 0.78721 0.249711 0
M  V30 10 C -1.65894 0.226171 0.729911 0
M  V30 11 C -2.06613 -1.07793 0.00287806 0
M  V30 12 C -2.85359 0.100277 -0.0295631 0
M  V30 13 C -4.21491 0.400857 0.215912 0
M  V30 14 C -3.45596 0.859307 -1.06775 0
M  V30 15 H 2.22236 1.80993 -1.68924 0
M  V30 16 H 2.00988 2.62253 -0.0972836 0
M  V30 17 H 4.83249 0.983282 -0.0186933 0
M  V30 18 H 4.80149 -0.347142 -1.22235 0
M  V30 19 H 3.89776 -2.23055 0.676364 0
M  V30 20 H 1.77528 -3.02717 1.42801 0
M  V30 21 H -0.31911 1.72218 -0.163113 0
M  V30 22 H -1.70813 0.182607 1.84534 0
M  V30 23 H -2.32912 -1.92849 0.668329 0
M  V30 24 H -1.46626 -1.37167 -0.878975 0
M  V30 25 H -4.63195 1.2392 0.807749 0
M  V30 26 H -4.99155 -0.394189 0.0359058 0
M  V30 27 H -3.35851 1.94888 -1.20834 0
M  V30 28 H -3.80363 0.355411 -2.01634 0
M  V30 END ATOM
M  V30 BEGIN BOND
M  V30 1 1 1 2
M  V30 2 2 2 3
M  V30 3 1 3 4
M  V30 4 1 3 5
M  V30 5 2 5 6
M  V30 6 1 6 7
M  V30 7 2 7 8
M  V30 8 1 8 9
M  V30 9 1 9 10
M  V30 10 1 10 11
M  V30 11 1 11 12
M  V30 12 1 12 13
M  V30 13 1 13 14
M  V30 14 1 8 2
M  V30 15 1 12 10
M  V30 16 1 14 12
M  V30 17 1 1 15
M  V30 18 1 1 16
M  V30 19 1 4 17
M  V30 20 1 4 18
M  V30 21 1 5 19
M  V30 22 1 6 20
M  V30 23 1 9 21
M  V30 24 1 10 22
M  V30 25 1 11 23
M  V30 26 1 11 24
M  V30 27 1 13 25
M  V30 28 1 13 26
M  V30 29 1 14 27
M  V30 30 1 14 28
M  V30 END BOND
M  V30 END CTAB
M  END
