
     RDKit          3D

  0  0  0  0  0  0  0  0  0  0999 V3000
M  V30 BEGIN CTAB
M  V30 COUNTS 27 27 0 0 0
M  V30 BEGIN ATOM
M  V30 1 C 3.75841 0.112499 0.639102 0
M  V30 2 O 3.13808 0.851876 -0.327267 0
M  V30 3 C 1.79184 0.996227 -0.111424 0
M  V30 4 C 1.02093 -0.301995 -0.0703211 0
M  V30 5 N -0.388276 0.0646974 0.163376 0
M  V30 6 N -0.84977 1.19426 0.641708 0
M  V30 7 C -2.19198 1.19276 0.724697 0
M  V30 8 C -2.61913 -0.0393618 0.260888 0
M  V30 9 C -1.46136 -0.710292 -0.0782558 0
M  V30 10 N -1.39915 -2.03976 -0.611234 0
M  V30 11 C -3.98232 -0.492207 0.165538 0
M  V30 12 N -5.08657 -0.845719 0.0760934 0
M  V30 13 N -3.0362 2.22874 1.18959 0
M  V30 14 C 1.13517 -0.961588 -1.42773 0
M  V30 15 H 3.63377 0.580006 1.64596 0
M  V30 16 H 3.34384 -0.894503 0.665418 0
M  V30 17 H 4.84844 0.0288663 0.393544 0
M  V30 18 H 1.38905 1.58277 -0.988422 0
M  V30 19 H 1.57171 1.63386 0.781455 0
M  V30 20 H 1.33901 -0.967665 0.75787 0
M  V30 21 H -1.84674 -2.19843 -1.53961 0
M  V30 22 H -0.938254 -2.82785 -0.1213 0
M  V30 23 H -3.52634 2.86039 0.531259 0
M  V30 24 H -3.17132 2.3639 2.20715 0
M  V30 25 H 1.16157 -2.05762 -1.29995 0
M  V30 26 H 0.266947 -0.664242 -2.04411 0
M  V30 27 H 2.09864 -0.689625 -1.93808 0
M  V30 END ATOM
M  V30 BEGIN BOND
M  V30 1 1 1 2
M  V30 2 1 2 3
M  V30 3 1 3 4
M  V30 4 1 4 5
M  V30 5 1 5 6
M  V30 6 2 6 7
M  V30 7 1 7 8
M  V30 8 2 8 9
M  V30 9 1 9 10
M  V30 10 1 8 11
M  V30 11 3 11 12
M  V30 12 1 7 13
M  V30 13 1 4 14
M  V30 14 1 9 5
M  V30 15 1 1 15
M  V30 16 1 1 16
M  V30 17 1 1 17
M  V30 18 1 3 18
M  V30 19 1 3 19
M  V30 20 1 4 20
M  V30 21 1 10 21
M  V30 22 1 10 22
M  V30 23 1 13 23
M  V30 24 1 13 24
M  V30 25 1 14 25
M  V30 26 1 14 26
M  V30 27 1 14 27
M  V30 END BOND
M  V30 END CTAB
M  END
