
     RDKit          3D

  0  0  0  0  0  0  0  0  0  0999 V3000
M  V30 BEGIN CTAB
M  V30 COUNTS 28 28 0 0 0
M  V30 BEGIN ATOM
M  V30 1 N -1.89576 2.7515 -0.317913 0
M  V30 2 C -1.43167 1.72856 0.590065 0
M  V30 3 C -1.60812 0.360438 0.0988408 0
M  V30 4 C -2.78447 -0.322852 0.143934 0
M  V30 5 C -2.91089 -1.6577 -0.17368 0
M  V30 6 C -1.77972 -2.34519 -0.576809 0
M  V30 7 C -0.547365 -1.67638 -0.643306 0
M  V30 8 C -0.44893 -0.382179 -0.311217 0
M  V30 9 C 0.820988 0.349905 -0.188391 0
M  V30 10 C 1.94945 -0.567165 0.323584 0 CFG=2
M  V30 11 C 3.14904 0.209447 0.709807 0
M  V30 12 O 3.71994 -0.00692383 1.83576 0
M  V30 13 O 3.66022 1.17504 -0.145108 0
M  V30 14 N 2.4522 -1.26468 -0.916496 0
M  V30 15 H -1.21493 3.5333 -0.333373 0
M  V30 16 H -1.88115 2.3422 -1.27204 0
M  V30 17 H -0.617987 2.01624 1.22622 0
M  V30 18 H -2.34415 1.83238 1.38279 0
M  V30 19 H -3.70213 0.179422 0.494749 0
M  V30 20 H -3.85997 -2.16753 -0.0983957 0
M  V30 21 H -1.86387 -3.39334 -0.832078 0
M  V30 22 H 0.256246 -2.29799 -1.03092 0
M  V30 23 H 0.844045 1.22131 0.449528 0
M  V30 24 H 1.1465 0.71868 -1.21523 0
M  V30 25 H 1.62426 -1.27444 1.05781 0
M  V30 26 H 3.36016 2.16137 -0.0175395 0
M  V30 27 H 3.41954 -0.942148 -1.1169 0
M  V30 28 H 2.48851 -2.28126 -0.693581 0
M  V30 END ATOM
M  V30 BEGIN BOND
M  V30 1 1 1 2
M  V30 2 1 2 3
M  V30 3 2 3 4
M  V30 4 1 4 5
M  V30 5 2 5 6
M  V30 6 1 6 7
M  V30 7 2 7 8
M  V30 8 1 8 9
M  V30 9 1 9 10
M  V30 10 1 10 11
M  V30 11 2 11 12
M  V30 12 1 11 13
M  V30 13 1 10 14
M  V30 14 1 8 3
M  V30 15 1 1 15
M  V30 16 1 1 16
M  V30 17 1 2 17
M  V30 18 1 2 18
M  V30 19 1 4 19
M  V30 20 1 5 20
M  V30 21 1 6 21
M  V30 22 1 7 22
M  V30 23 1 9 23
M  V30 24 1 9 24
M  V30 25 1 10 25 CFG=1
M  V30 26 1 13 26
M  V30 27 1 14 27
M  V30 28 1 14 28
M  V30 END BOND
M  V30 END CTAB
M  END
