
     RDKit          3D

  0  0  0  0  0  0  0  0  0  0999 V3000
M  V30 BEGIN CTAB
M  V30 COUNTS 26 27 0 0 0
M  V30 BEGIN ATOM
M  V30 1 N -2.27571 -1.64268 -0.233146 0
M  V30 2 C -2.42292 -0.239738 0.0281088 0
M  V30 3 C -1.24712 0.399705 0.663884 0
M  V30 4 C 0.0353624 0.362626 -0.0688838 0
M  V30 5 C 0.603667 -0.970236 -0.392011 0
M  V30 6 C 2.01921 -0.596632 -0.858521 0
M  V30 7 C 2.35464 0.699937 -0.116423 0
M  V30 8 C 1.17114 0.996827 0.747903 0
M  V30 9 C 3.09369 -0.558412 0.154157 0
M  V30 10 N -1.57157 1.8179 0.890043 0
M  V30 11 H -2.71284 -2.24612 0.497272 0
M  V30 12 H -2.67725 -1.83367 -1.18604 0
M  V30 13 H -2.79539 0.3197 -0.859466 0
M  V30 14 H -3.26987 -0.154503 0.773673 0
M  V30 15 H -1.10436 -0.0596281 1.67154 0
M  V30 16 H 0.00446772 0.958306 -1.01621 0
M  V30 17 H 0.0588131 -1.43311 -1.26491 0
M  V30 18 H 0.678031 -1.659 0.452189 0
M  V30 19 H 2.22396 -0.627816 -1.94272 0
M  V30 20 H 2.78679 1.52746 -0.693408 0
M  V30 21 H 0.992919 2.06551 0.924884 0
M  V30 22 H 1.19888 0.422132 1.70851 0
M  V30 23 H 2.85786 -1.08234 1.11206 0
M  V30 24 H 4.13814 -0.611454 -0.200596 0
M  V30 25 H -1.67388 2.21771 -0.0874447 0
M  V30 26 H -2.46667 1.92753 1.39089 0
M  V30 END ATOM
M  V30 BEGIN BOND
M  V30 1 1 1 2
M  V30 2 1 2 3
M  V30 3 1 3 4
M  V30 4 1 4 5
M  V30 5 1 5 6
M  V30 6 1 6 7
M  V30 7 1 7 8
M  V30 8 1 7 9
M  V30 9 1 3 10
M  V30 10 1 8 4
M  V30 11 1 9 6
M  V30 12 1 1 11
M  V30 13 1 1 12
M  V30 14 1 2 13
M  V30 15 1 2 14
M  V30 16 1 3 15
M  V30 17 1 4 16
M  V30 18 1 5 17
M  V30 19 1 5 18
M  V30 20 1 6 19
M  V30 21 1 7 20
M  V30 22 1 8 21
M  V30 23 1 8 22
M  V30 24 1 9 23
M  V30 25 1 9 24
M  V30 26 1 10 25
M  V30 27 1 10 26
M  V30 END BOND
M  V30 END CTAB
M  END
