
     RDKit          3D

  0  0  0  0  0  0  0  0  0  0999 V3000
M  V30 BEGIN CTAB
M  V30 COUNTS 37 38 0 0 0
M  V30 BEGIN ATOM
M  V30 1 N 5.64513 1.69069 1.53501 0
M  V30 2 C 4.49314 1.11145 0.948216 0
M  V30 3 C 4.27047 -0.251673 0.9641 0
M  V30 4 C 3.14025 -0.811539 0.388065 0
M  V30 5 C 2.18715 -0.0307347 -0.227074 0
M  V30 6 C 2.41134 1.3244 -0.241261 0
M  V30 7 C 3.52539 1.89768 0.324289 0
M  V30 8 N 0.995951 -0.624022 -0.832376 0
M  V30 9 C -0.22914 -0.243278 -0.277046 0
M  V30 10 O -0.130462 0.589914 0.701947 0
M  V30 11 N -1.50647 -0.641518 -0.640252 0
M  V30 12 C -2.74282 -0.262225 -0.0869568 0
M  V30 13 C -2.94459 0.612425 0.948845 0
M  V30 14 C -4.21822 0.939817 1.44208 0
M  V30 15 C -5.34896 0.38667 0.897732 0
M  V30 16 C -5.15906 -0.493133 -0.143051 0
M  V30 17 C -3.9157 -0.814611 -0.626666 0
M  V30 18 Cl -3.7832 -1.95585 -1.96646 0
M  V30 19 N -6.65236 0.707932 1.38583 0
M  V30 20 C 1.18529 -1.50875 -1.90171 0
M  V30 21 O 0.241713 -2.06237 -2.48285 0
M  V30 22 C 2.57412 -1.82709 -2.39559 0
M  V30 23 H 6.05152 1.28212 2.38949 0
M  V30 24 H 6.07153 2.52275 1.10049 0
M  V30 25 H 5.01243 -0.903774 1.44752 0
M  V30 26 H 3.03671 -1.86679 0.439583 0
M  V30 27 H 1.65405 1.95519 -0.730714 0
M  V30 28 H 3.7116 2.96069 0.319051 0
M  V30 29 H -1.57403 -1.32784 -1.44645 0
M  V30 30 H -2.12242 1.08695 1.42765 0
M  V30 31 H -4.33313 1.63474 2.26123 0
M  V30 32 H -6.07139 -0.932228 -0.573418 0
M  V30 33 H -6.7996 0.632219 2.41265 0
M  V30 34 H -7.45313 1.00807 0.795279 0
M  V30 35 H 2.56299 -2.1175 -3.46432 0
M  V30 36 H 2.94833 -2.67644 -1.81417 0
M  V30 37 H 3.26557 -0.992358 -2.2787 0
M  V30 END ATOM
M  V30 BEGIN BOND
M  V30 1 1 1 2
M  V30 2 2 2 3
M  V30 3 1 3 4
M  V30 4 2 4 5
M  V30 5 1 5 6
M  V30 6 2 6 7
M  V30 7 1 5 8
M  V30 8 1 8 9
M  V30 9 2 9 10
M  V30 10 1 9 11
M  V30 11 1 11 12
M  V30 12 2 12 13
M  V30 13 1 13 14
M  V30 14 2 14 15
M  V30 15 1 15 16
M  V30 16 2 16 17
M  V30 17 1 17 18
M  V30 18 1 15 19
M  V30 19 1 8 20
M  V30 20 2 20 21
M  V30 21 1 20 22
M  V30 22 1 7 2
M  V30 23 1 17 12
M  V30 24 1 1 23
M  V30 25 1 1 24
M  V30 26 1 3 25
M  V30 27 1 4 26
M  V30 28 1 6 27
M  V30 29 1 7 28
M  V30 30 1 11 29
M  V30 31 1 13 30
M  V30 32 1 14 31
M  V30 33 1 16 32
M  V30 34 1 19 33
M  V30 35 1 19 34
M  V30 36 1 22 35
M  V30 37 1 22 36
M  V30 38 1 22 37
M  V30 END BOND
M  V30 END CTAB
M  END
