
     RDKit          3D

  0  0  0  0  0  0  0  0  0  0999 V3000
M  V30 BEGIN CTAB
M  V30 COUNTS 60 63 0 0 0
M  V30 BEGIN ATOM
M  V30 1 C -6.76764 -1.85015 -1.65949 0
M  V30 2 O -5.58356 -2.23186 -0.958043 0
M  V30 3 C -4.42608 -1.4185 -0.960292 0
M  V30 4 O -4.50013 -0.391123 -1.5903 0
M  V30 5 N -3.32388 -1.86374 -0.245001 0
M  V30 6 C -3.1911 -3.29056 0.129458 0
M  V30 7 C -1.76446 -3.692 0.0878601 0
M  V30 8 C -0.86415 -2.77524 -0.725092 0
M  V30 9 C -0.950066 -1.44371 -0.0582061 0
M  V30 10 C -2.27325 -1.00458 0.115667 0
M  V30 11 N -2.23944 0.162891 0.721067 0
M  V30 12 N -0.930464 0.467928 0.935626 0
M  V30 13 C -0.133941 -0.499566 0.466172 0
M  V30 14 C 1.31494 -0.548577 0.502787 0
M  V30 15 N 2.02973 -1.55114 0.00941329 0
M  V30 16 C 3.39205 -1.56569 0.0626894 0
M  V30 17 N 4.1236 -2.65643 -0.4742 0
M  V30 18 C 4.04372 -0.529416 0.635461 0
M  V30 19 C 3.33064 0.522542 1.15429 0
M  V30 20 N 1.99717 0.476757 1.06999 0
M  V30 21 N 3.94879 1.63395 1.76487 0
M  V30 22 N 5.48062 -0.425234 0.755609 0
M  V30 23 C 6.16017 0.561726 0.0023231 0
M  V30 24 O 7.40475 0.678468 0.0948529 0
M  V30 25 O 5.46114 1.38932 -0.826951 0
M  V30 26 C 6.08699 2.40037 -1.60531 0
M  V30 27 C 6.23303 -1.29457 1.61871 0
M  V30 28 C -3.2661 1.08515 1.06082 0
M  V30 29 C -3.30961 2.40021 0.423512 0
M  V30 30 C -4.18098 2.79379 -0.526426 0
M  V30 31 C -4.16674 4.08437 -1.06029 0
M  V30 32 C -3.24206 5.00383 -0.616728 0
M  V30 33 C -2.32817 4.65388 0.355255 0
M  V30 34 C -2.37203 3.37811 0.856076 0
M  V30 35 F -1.5023 3.06615 1.83102 0
M  V30 36 H -6.55767 -1.04278 -2.37364 0
M  V30 37 H -7.57751 -1.61221 -0.931743 0
M  V30 38 H -7.079 -2.74018 -2.2463 0
M  V30 39 H -3.58232 -3.40036 1.1578 0
M  V30 40 H -3.78548 -3.92553 -0.56308 0
M  V30 41 H -1.34247 -3.76759 1.12953 0
M  V30 42 H -1.68531 -4.7043 -0.365692 0
M  V30 43 H -1.2614 -2.72902 -1.76473 0
M  V30 44 H 0.156123 -3.1651 -0.660913 0
M  V30 45 H 3.91178 -3.61101 -0.135038 0
M  V30 46 H 4.84663 -2.50973 -1.18598 0
M  V30 47 H 3.44556 2.55055 1.74923 0
M  V30 48 H 4.87249 1.51527 2.20643 0
M  V30 49 H 5.41025 2.63727 -2.44211 0
M  V30 50 H 7.09397 2.10389 -1.94078 0
M  V30 51 H 6.14739 3.31972 -0.963919 0
M  V30 52 H 6.74145 -0.684951 2.42261 0
M  V30 53 H 7.03079 -1.82851 1.08359 0
M  V30 54 H 5.57146 -1.98744 2.18232 0
M  V30 55 H -3.12346 1.27743 2.17025 0
M  V30 56 H -4.28539 0.600067 1.07872 0
M  V30 57 H -4.96455 2.1724 -0.932176 0
M  V30 58 H -4.86296 4.39599 -1.81843 0
M  V30 59 H -3.20154 6.01914 -1.01006 0
M  V30 60 H -1.61001 5.38963 0.690091 0
M  V30 END ATOM
M  V30 BEGIN BOND
M  V30 1 1 1 2
M  V30 2 1 2 3
M  V30 3 2 3 4
M  V30 4 1 3 5
M  V30 5 1 5 6
M  V30 6 1 6 7
M  V30 7 1 7 8
M  V30 8 1 8 9
M  V30 9 2 9 10
M  V30 10 1 10 11
M  V30 11 1 11 12
M  V30 12 2 12 13
M  V30 13 1 13 14
M  V30 14 2 14 15
M  V30 15 1 15 16
M  V30 16 1 16 17
M  V30 17 2 16 18
M  V30 18 1 18 19
M  V30 19 2 19 20
M  V30 20 1 19 21
M  V30 21 1 18 22
M  V30 22 1 22 23
M  V30 23 2 23 24
M  V30 24 1 23 25
M  V30 25 1 25 26
M  V30 26 1 22 27
M  V30 27 1 11 28
M  V30 28 1 28 29
M  V30 29 2 29 30
M  V30 30 1 30 31
M  V30 31 2 31 32
M  V30 32 1 32 33
M  V30 33 2 33 34
M  V30 34 1 34 35
M  V30 35 1 10 5
M  V30 36 1 20 14
M  V30 37 1 34 29
M  V30 38 1 13 9
M  V30 39 1 1 36
M  V30 40 1 1 37
M  V30 41 1 1 38
M  V30 42 1 6 39
M  V30 43 1 6 40
M  V30 44 1 7 41
M  V30 45 1 7 42
M  V30 46 1 8 43
M  V30 47 1 8 44
M  V30 48 1 17 45
M  V30 49 1 17 46
M  V30 50 1 21 47
M  V30 51 1 21 48
M  V30 52 1 26 49
M  V30 53 1 26 50
M  V30 54 1 26 51
M  V30 55 1 27 52
M  V30 56 1 27 53
M  V30 57 1 27 54
M  V30 58 1 28 55
M  V30 59 1 28 56
M  V30 60 1 30 57
M  V30 61 1 31 58
M  V30 62 1 32 59
M  V30 63 1 33 60
M  V30 END BOND
M  V30 END CTAB
M  END
