
     RDKit          3D

  0  0  0  0  0  0  0  0  0  0999 V3000
M  V30 BEGIN CTAB
M  V30 COUNTS 24 24 0 0 0
M  V30 BEGIN ATOM
M  V30 1 N 3.50329 1.40533 0.236015 0
M  V30 2 C 2.69476 0.31498 -0.149316 0
M  V30 3 N 1.42574 0.420731 -0.0938087 0
M  V30 4 C 0.474301 -0.584394 -0.446263 0
M  V30 5 C -0.862309 -0.229527 0.13941 0
M  V30 6 C -1.91424 -1.28348 -0.21519 0
M  V30 7 N -3.12881 -0.600281 0.17682 0
M  V30 8 C -2.92588 0.80637 -0.0727482 0
M  V30 9 C -1.49321 0.972719 -0.532866 0
M  V30 10 N 3.28197 -0.890086 -0.59511 0
M  V30 11 H 4.41839 1.29686 0.74399 0
M  V30 12 H 3.23158 2.40792 0.0332433 0
M  V30 13 H 0.790678 -1.54154 0.00827206 0
M  V30 14 H 0.356061 -0.663337 -1.55132 0
M  V30 15 H -0.799384 -0.0680715 1.23189 0
M  V30 16 H -1.8915 -1.36412 -1.3227 0
M  V30 17 H -1.73892 -2.21702 0.312372 0
M  V30 18 H -3.24112 -0.767857 1.21694 0
M  V30 19 H -3.65339 1.19092 -0.810087 0
M  V30 20 H -3.01124 1.38446 0.885843 0
M  V30 21 H -1.05028 1.92419 -0.213003 0
M  V30 22 H -1.43542 0.795904 -1.62828 0
M  V30 23 H 2.77648 -1.77942 -0.392592 0
M  V30 24 H 4.19245 -0.931249 -1.11442 0
M  V30 END ATOM
M  V30 BEGIN BOND
M  V30 1 1 1 2
M  V30 2 2 2 3 CFG=2
M  V30 3 1 3 4
M  V30 4 1 4 5
M  V30 5 1 5 6
M  V30 6 1 6 7
M  V30 7 1 7 8
M  V30 8 1 8 9
M  V30 9 1 2 10
M  V30 10 1 9 5
M  V30 11 1 1 11
M  V30 12 1 1 12
M  V30 13 1 4 13
M  V30 14 1 4 14
M  V30 15 1 5 15
M  V30 16 1 6 16
M  V30 17 1 6 17
M  V30 18 1 7 18
M  V30 19 1 8 19
M  V30 20 1 8 20
M  V30 21 1 9 21
M  V30 22 1 9 22
M  V30 23 1 10 23
M  V30 24 1 10 24
M  V30 END BOND
M  V30 END CTAB
M  END
