
     RDKit          3D

  0  0  0  0  0  0  0  0  0  0999 V3000
M  V30 BEGIN CTAB
M  V30 COUNTS 16 16 0 0 0
M  V30 BEGIN ATOM
M  V30 1 Br -0.546506 3.64777 0.067869 0
M  V30 2 C -0.259588 1.74908 0.0294361 0
M  V30 3 C -1.37637 0.938858 0.0509183 0
M  V30 4 C -1.15651 -0.427262 0.0228729 0
M  V30 5 N -2.27416 -1.31026 0.0432399 0
M  V30 6 C 0.128255 -0.940901 -0.0244155 0
M  V30 7 C 1.24447 -0.124823 -0.0457898 0
M  V30 8 C 1.02291 1.24 -0.0177091 0
M  V30 9 N 2.56359 -0.670329 -0.0946112 0
M  V30 10 F 0.361173 -2.28164 -0.0524784 0
M  V30 11 H -2.368 1.36982 0.0879596 0
M  V30 12 H -3.20256 -1.06865 -0.318826 0
M  V30 13 H -2.12231 -2.25568 0.454561 0
M  V30 14 H 1.87124 1.91494 -0.0330874 0
M  V30 15 H 3.23624 -0.516737 -0.871591 0
M  V30 16 H 2.87813 -1.26418 0.701652 0
M  V30 END ATOM
M  V30 BEGIN BOND
M  V30 1 1 1 2
M  V30 2 2 2 3
M  V30 3 1 3 4
M  V30 4 1 4 5
M  V30 5 2 4 6
M  V30 6 1 6 7
M  V30 7 2 7 8
M  V30 8 1 7 9
M  V30 9 1 6 10
M  V30 10 1 8 2
M  V30 11 1 3 11
M  V30 12 1 5 12
M  V30 13 1 5 13
M  V30 14 1 8 14
M  V30 15 1 9 15
M  V30 16 1 9 16
M  V30 END BOND
M  V30 END CTAB
M  END
