
     RDKit          3D

  0  0  0  0  0  0  0  0  0  0999 V3000
M  V30 BEGIN CTAB
M  V30 COUNTS 32 33 0 0 0
M  V30 BEGIN ATOM
M  V30 1 N 4.11166 0.764895 0.99959 0
M  V30 2 C 3.0351 0.840773 0.0945427 0
M  V30 3 C 3.1112 1.73003 -0.950896 0
M  V30 4 C 2.05552 1.7999 -1.83278 0
M  V30 5 C 0.937527 0.99075 -1.67148 0
M  V30 6 C 0.853268 0.0983499 -0.628228 0
M  V30 7 C 1.92161 0.0495498 0.236941 0
M  V30 8 C -0.31227 -0.745412 -0.464444 0 CFG=1
M  V30 9 C -0.338051 -1.46198 0.869851 0
M  V30 10 O -1.53726 -2.09553 1.08012 0
M  V30 11 C -2.26025 -2.33421 -0.0615851 0
M  V30 12 C -2.63152 -1.09392 -0.835534 0
M  V30 13 N -1.58205 -0.112929 -0.631044 0
M  V30 14 S -1.99111 1.12473 0.423441 0
M  V30 15 O -3.37839 1.61881 0.0258459 0
M  V30 16 O -1.08636 2.31314 0.259942 0
M  V30 17 N -2.08976 0.696036 2.07786 0
M  V30 18 H 4.54808 -0.184735 1.13789 0
M  V30 19 H 4.51121 1.5506 1.53796 0
M  V30 20 H 3.99744 2.37075 -1.07786 0
M  V30 21 H 2.12871 2.50176 -2.6481 0
M  V30 22 H 0.134369 1.09541 -2.40631 0
M  V30 23 H 1.88216 -0.642336 1.06223 0
M  V30 24 H -0.29965 -1.58412 -1.22799 0
M  V30 25 H 0.442554 -2.2746 0.785653 0
M  V30 26 H -0.0265431 -0.81498 1.71547 0
M  V30 27 H -1.66996 -3.004 -0.734412 0
M  V30 28 H -3.18398 -2.88485 0.254543 0
M  V30 29 H -3.61428 -0.728909 -0.45965 0
M  V30 30 H -2.66045 -1.36263 -1.90981 0
M  V30 31 H -2.04135 1.57202 2.65675 0
M  V30 32 H -2.96716 0.207621 2.3215 0
M  V30 END ATOM
M  V30 BEGIN BOND
M  V30 1 1 1 2
M  V30 2 2 2 3
M  V30 3 1 3 4
M  V30 4 2 4 5
M  V30 5 1 5 6
M  V30 6 2 6 7
M  V30 7 1 6 8
M  V30 8 1 8 9
M  V30 9 1 9 10
M  V30 10 1 10 11
M  V30 11 1 11 12
M  V30 12 1 12 13
M  V30 13 1 13 14
M  V30 14 2 14 15
M  V30 15 2 14 16
M  V30 16 1 14 17
M  V30 17 1 7 2
M  V30 18 1 13 8
M  V30 19 1 1 18
M  V30 20 1 1 19
M  V30 21 1 3 20
M  V30 22 1 4 21
M  V30 23 1 5 22
M  V30 24 1 7 23
M  V30 25 1 8 24 CFG=3
M  V30 26 1 9 25
M  V30 27 1 9 26
M  V30 28 1 11 27
M  V30 29 1 11 28
M  V30 30 1 12 29
M  V30 31 1 12 30
M  V30 32 1 17 31
M  V30 33 1 17 32
M  V30 END BOND
M  V30 END CTAB
M  END
