
     RDKit          3D

  0  0  0  0  0  0  0  0  0  0999 V3000
M  V30 BEGIN CTAB
M  V30 COUNTS 61 63 0 0 0
M  V30 BEGIN ATOM
M  V30 1 N 6.01059 1.47179 2.95391 0
M  V30 2 C 6.15006 0.835612 1.65926 0
M  V30 3 C 5.11047 1.36221 0.690915 0 CFG=2
M  V30 4 C 3.71107 1.11056 1.16544 0
M  V30 5 C 3.23841 -0.28678 0.961436 0
M  V30 6 C 3.51666 -0.867019 -0.375349 0 CFG=2
M  V30 7 C 4.92851 -0.615415 -0.787074 0
M  V30 8 C 5.32328 0.821352 -0.701945 0
M  V30 9 C 2.53972 -0.453328 -1.44561 0
M  V30 10 N 1.19518 -0.828339 -1.15927 0
M  V30 11 C 0.123094 -0.534353 -2.03833 0
M  V30 12 O 0.404745 0.0883206 -3.11398 0
M  V30 13 N -1.22737 -0.913832 -1.7463 0
M  V30 14 C -1.4457 -1.61481 -0.498914 0
M  V30 15 C -2.79556 -2.26033 -0.551843 0
M  V30 16 C -3.85225 -1.28544 -0.917173 0
M  V30 17 C -3.62822 -0.886684 -2.35503 0
M  V30 18 C -2.22861 -0.573887 -2.69677 0
M  V30 19 C -4.01062 -0.0890835 -0.0607828 0
M  V30 20 O -5.0525 0.690867 -0.63957 0
M  V30 21 C -5.08194 1.96278 -0.130496 0
M  V30 22 C -5.21434 2.00618 1.37306 0
M  V30 23 C -4.32683 1.03046 2.06908 0
M  V30 24 C -4.45868 -0.317611 1.34257 0
M  V30 25 N -3.71722 -1.25423 2.11111 0
M  V30 26 H 6.93913 1.59987 3.39014 0
M  V30 27 H 5.54019 2.386 2.9184 0
M  V30 28 H 6.07921 -0.261816 1.79379 0
M  V30 29 H 7.1579 1.10272 1.27995 0
M  V30 30 H 5.25428 2.46288 0.635786 0
M  V30 31 H 3.69575 1.32272 2.26252 0
M  V30 32 H 3.01165 1.82178 0.7063 0
M  V30 33 H 3.75785 -0.934108 1.72619 0
M  V30 34 H 2.16185 -0.323964 1.23956 0
M  V30 35 H 3.40541 -1.98754 -0.278404 0
M  V30 36 H 5.59044 -1.19071 -0.0987528 0
M  V30 37 H 5.10503 -0.969798 -1.82339 0
M  V30 38 H 6.38959 0.927383 -0.9785 0
M  V30 39 H 4.75536 1.46096 -1.40201 0
M  V30 40 H 2.8535 -0.966957 -2.38737 0
M  V30 41 H 2.62404 0.640831 -1.67992 0
M  V30 42 H 0.975092 -1.33607 -0.277844 0
M  V30 43 H -1.237 -1.00768 0.381159 0
M  V30 44 H -0.704896 -2.46924 -0.464004 0
M  V30 45 H -3.0202 -2.92851 0.301457 0
M  V30 46 H -2.73423 -2.98513 -1.42743 0
M  V30 47 H -4.84174 -1.83202 -0.896422 0
M  V30 48 H -4.03516 -1.71239 -2.99363 0
M  V30 49 H -4.27233 -0.00727645 -2.57585 0
M  V30 50 H -1.96853 -1.11248 -3.65566 0
M  V30 51 H -2.08344 0.50883 -2.96212 0
M  V30 52 H -3.13339 0.581743 -0.0368307 0
M  V30 53 H -5.98308 2.46193 -0.542032 0
M  V30 54 H -4.19823 2.50755 -0.50218 0
M  V30 55 H -4.90333 3.03454 1.68113 0
M  V30 56 H -6.27032 1.89903 1.687 0
M  V30 57 H -4.65875 0.945763 3.12358 0
M  V30 58 H -3.2711 1.32866 1.9577 0
M  V30 59 H -5.55255 -0.55866 1.41506 0
M  V30 60 H -4.27102 -2.11108 2.25262 0
M  V30 61 H -3.36894 -0.896742 3.00925 0
M  V30 END ATOM
M  V30 BEGIN BOND
M  V30 1 1 1 2
M  V30 2 1 2 3
M  V30 3 1 3 4
M  V30 4 1 4 5
M  V30 5 1 5 6
M  V30 6 1 6 7
M  V30 7 1 7 8
M  V30 8 1 6 9
M  V30 9 1 9 10
M  V30 10 1 10 11
M  V30 11 2 11 12
M  V30 12 1 11 13
M  V30 13 1 13 14
M  V30 14 1 14 15
M  V30 15 1 15 16
M  V30 16 1 16 17
M  V30 17 1 17 18
M  V30 18 1 16 19
M  V30 19 1 19 20
M  V30 20 1 20 21
M  V30 21 1 21 22
M  V30 22 1 22 23
M  V30 23 1 23 24
M  V30 24 1 24 25
M  V30 25 1 8 3
M  V30 26 1 18 13
M  V30 27 1 24 19
M  V30 28 1 1 26
M  V30 29 1 1 27
M  V30 30 1 2 28
M  V30 31 1 2 29
M  V30 32 1 3 30 CFG=3
M  V30 33 1 4 31
M  V30 34 1 4 32
M  V30 35 1 5 33
M  V30 36 1 5 34
M  V30 37 1 6 35 CFG=1
M  V30 38 1 7 36
M  V30 39 1 7 37
M  V30 40 1 8 38
M  V30 41 1 8 39
M  V30 42 1 9 40
M  V30 43 1 9 41
M  V30 44 1 10 42
M  V30 45 1 14 43
M  V30 46 1 14 44
M  V30 47 1 15 45
M  V30 48 1 15 46
M  V30 49 1 16 47
M  V30 50 1 17 48
M  V30 51 1 17 49
M  V30 52 1 18 50
M  V30 53 1 18 51
M  V30 54 1 19 52
M  V30 55 1 21 53
M  V30 56 1 21 54
M  V30 57 1 22 55
M  V30 58 1 22 56
M  V30 59 1 23 57
M  V30 60 1 23 58
M  V30 61 1 24 59
M  V30 62 1 25 60
M  V30 63 1 25 61
M  V30 END BOND
M  V30 END CTAB
M  END
