
     RDKit          3D

  0  0  0  0  0  0  0  0  0  0999 V3000
M  V30 BEGIN CTAB
M  V30 COUNTS 23 23 0 0 0
M  V30 BEGIN ATOM
M  V30 1 N 2.95198 0.62109 0.39957 0
M  V30 2 C 3.10475 -0.329041 -0.659816 0
M  V30 3 C 1.80483 -0.994196 -1.01018 0
M  V30 4 S 0.492588 0.146982 -1.46817 0
M  V30 5 C -0.861891 -0.0666722 -0.334011 0
M  V30 6 C -1.6599 1.00403 -0.0415947 0
M  V30 7 N -1.37193 2.27504 -0.561958 0
M  V30 8 C -2.74556 0.796928 0.813459 0
M  V30 9 C -2.97942 -0.481568 1.33727 0
M  V30 10 C -2.17603 -1.57179 1.05186 0
M  V30 11 C -1.11979 -1.32499 0.209445 0
M  V30 12 H 2.45964 1.49698 0.0796345 0
M  V30 13 H 3.91577 0.897303 0.761656 0
M  V30 14 H 3.56831 0.12075 -1.56194 0
M  V30 15 H 3.7908 -1.13636 -0.254061 0
M  V30 16 H 1.8802 -1.81837 -1.73861 0
M  V30 17 H 1.49807 -1.50973 -0.0337669 0
M  V30 18 H -1.02644 3.0073 0.0969577 0
M  V30 19 H -1.46163 2.51525 -1.56456 0
M  V30 20 H -3.38291 1.63585 1.04771 0
M  V30 21 H -3.83921 -0.62727 2.01577 0
M  V30 22 H -2.39921 -2.53499 1.47777 0
M  V30 23 H -0.443027 -2.1225 -0.0624358 0
M  V30 END ATOM
M  V30 BEGIN BOND
M  V30 1 1 1 2
M  V30 2 1 2 3
M  V30 3 1 3 4
M  V30 4 1 4 5
M  V30 5 2 5 6
M  V30 6 1 6 7
M  V30 7 1 6 8
M  V30 8 2 8 9
M  V30 9 1 9 10
M  V30 10 2 10 11
M  V30 11 1 11 5
M  V30 12 1 1 12
M  V30 13 1 1 13
M  V30 14 1 2 14
M  V30 15 1 2 15
M  V30 16 1 3 16
M  V30 17 1 3 17
M  V30 18 1 7 18
M  V30 19 1 7 19
M  V30 20 1 8 20
M  V30 21 1 9 21
M  V30 22 1 10 22
M  V30 23 1 11 23
M  V30 END BOND
M  V30 END CTAB
M  END
