
     RDKit          3D

  0  0  0  0  0  0  0  0  0  0999 V3000
M  V30 BEGIN CTAB
M  V30 COUNTS 34 36 0 0 0
M  V30 BEGIN ATOM
M  V30 1 N -3.49334 -2.21813 1.22676 0
M  V30 2 C -3.59309 -0.973547 0.556755 0
M  V30 3 C -4.51595 -0.00986536 0.948607 0
M  V30 4 C -4.54711 1.17244 0.244087 0
M  V30 5 N -5.4952 2.17537 0.639047 0
M  V30 6 N -3.72608 1.40569 -0.785105 0
M  V30 7 C -2.81996 0.460843 -1.17089 0
M  V30 8 N -2.80101 -0.678608 -0.4801 0
M  V30 9 S -1.75789 0.825047 -2.55049 0
M  V30 10 C -0.661605 -0.578841 -2.84103 0
M  V30 11 C 0.271364 -0.692028 -1.68415 0
M  V30 12 O 0.0929078 -1.40428 -0.59546 0
M  V30 13 N 1.09171 -1.29005 0.223179 0
M  V30 14 C 1.99914 -0.467855 -0.315808 0
M  V30 15 C 1.48539 -0.0801604 -1.53383 0
M  V30 16 C 3.28516 -0.0445016 0.242902 0
M  V30 17 C 4.14621 0.814081 -0.39907 0
M  V30 18 C 5.36303 1.19067 0.171994 0
M  V30 19 C 5.69159 0.678934 1.40981 0
M  V30 20 C 4.85046 -0.183563 2.07893 0
M  V30 21 C 3.64738 -0.53867 1.48397 0
M  V30 22 H -3.31722 -2.33379 2.24534 0
M  V30 23 H -3.60403 -3.08541 0.661002 0
M  V30 24 H -5.18245 -0.192722 1.77894 0
M  V30 25 H -6.35277 1.88623 1.13332 0
M  V30 26 H -5.33807 3.18087 0.439023 0
M  V30 27 H -1.22991 -1.51715 -3.00017 0
M  V30 28 H -0.0875989 -0.351902 -3.77466 0
M  V30 29 H 1.90639 0.584167 -2.28876 0
M  V30 30 H 3.87265 1.20543 -1.36914 0
M  V30 31 H 6.04882 1.86367 -0.320332 0
M  V30 32 H 6.63208 0.966512 1.85723 0
M  V30 33 H 5.16355 -0.549098 3.04285 0
M  V30 34 H 2.97542 -1.21979 2.00475 0
M  V30 END ATOM
M  V30 BEGIN BOND
M  V30 1 1 1 2
M  V30 2 2 2 3
M  V30 3 1 3 4
M  V30 4 1 4 5
M  V30 5 2 4 6
M  V30 6 1 6 7
M  V30 7 2 7 8
M  V30 8 1 7 9
M  V30 9 1 9 10
M  V30 10 1 10 11
M  V30 11 1 11 12
M  V30 12 1 12 13
M  V30 13 2 13 14
M  V30 14 1 14 15
M  V30 15 1 14 16
M  V30 16 2 16 17
M  V30 17 1 17 18
M  V30 18 2 18 19
M  V30 19 1 19 20
M  V30 20 2 20 21
M  V30 21 1 8 2
M  V30 22 2 15 11
M  V30 23 1 21 16
M  V30 24 1 1 22
M  V30 25 1 1 23
M  V30 26 1 3 24
M  V30 27 1 5 25
M  V30 28 1 5 26
M  V30 29 1 10 27
M  V30 30 1 10 28
M  V30 31 1 15 29
M  V30 32 1 17 30
M  V30 33 1 18 31
M  V30 34 1 19 32
M  V30 35 1 20 33
M  V30 36 1 21 34
M  V30 END BOND
M  V30 END CTAB
M  END
