
     RDKit          3D

  0  0  0  0  0  0  0  0  0  0999 V3000
M  V30 BEGIN CTAB
M  V30 COUNTS 20 20 0 0 0
M  V30 BEGIN ATOM
M  V30 1 O -0.80092 -2.37984 0.688337 0
M  V30 2 C 0.0654326 -1.7816 -0.253004 0
M  V30 3 C 0.137209 -0.331197 -0.0569281 0
M  V30 4 C -1.0903 0.342814 -0.0377541 0
M  V30 5 N -2.28385 -0.426629 -0.0937247 0
M  V30 6 C -1.13955 1.71829 0.0727799 0
M  V30 7 C 0.025416 2.45282 0.173091 0
M  V30 8 C 1.20974 1.76242 0.151086 0
M  V30 9 C 1.29259 0.403061 0.0387636 0
M  V30 10 N 2.56633 -0.256559 -0.00246511 0
M  V30 11 H -1.53362 -2.89657 0.227896 0
M  V30 12 H -0.188551 -2.13323 -1.25398 0
M  V30 13 H 1.08469 -2.25131 0.00649294 0
M  V30 14 H -2.69816 -0.759026 0.801976 0
M  V30 15 H -2.76208 -0.684478 -0.966957 0
M  V30 16 H -2.09564 2.22919 0.0884659 0
M  V30 17 H -0.0433 3.52098 0.262497 0
M  V30 18 H 2.14389 2.3346 0.236258 0
M  V30 19 H 2.73374 -1.21915 0.242869 0
M  V30 20 H 3.37691 0.355421 -0.325695 0
M  V30 END ATOM
M  V30 BEGIN BOND
M  V30 1 1 1 2
M  V30 2 1 2 3
M  V30 3 2 3 4
M  V30 4 1 4 5
M  V30 5 1 4 6
M  V30 6 2 6 7
M  V30 7 1 7 8
M  V30 8 2 8 9
M  V30 9 1 9 10
M  V30 10 1 9 3
M  V30 11 1 1 11
M  V30 12 1 2 12
M  V30 13 1 2 13
M  V30 14 1 5 14
M  V30 15 1 5 15
M  V30 16 1 6 16
M  V30 17 1 7 17
M  V30 18 1 8 18
M  V30 19 1 10 19
M  V30 20 1 10 20
M  V30 END BOND
M  V30 END CTAB
M  END
