
     RDKit          3D

  0  0  0  0  0  0  0  0  0  0999 V3000
M  V30 BEGIN CTAB
M  V30 COUNTS 24 25 0 0 0
M  V30 BEGIN ATOM
M  V30 1 N 4.54519 -0.374215 -0.329658 0
M  V30 2 C 3.14051 -0.234303 -0.243809 0
M  V30 3 N 2.50997 0.938778 -0.460546 0
M  V30 4 C 1.16115 1.00504 -0.365432 0
M  V30 5 N 0.46509 2.2129 -0.588355 0
M  V30 6 C 0.432407 -0.121039 -0.0487904 0
M  V30 7 N 1.10116 -1.2719 0.159437 0
M  V30 8 C 2.41932 -1.38531 0.0780004 0
M  V30 9 C -1.02402 -0.138048 0.0704005 0
M  V30 10 C -1.76935 -1.05299 -0.643647 0
M  V30 11 Cl -0.953958 -2.18866 -1.68939 0
M  V30 12 C -3.14522 -1.11447 -0.571993 0
M  V30 13 Cl -4.11171 -2.26667 -1.46952 0
M  V30 14 C -3.81083 -0.224648 0.249943 0
M  V30 15 C -3.09879 0.702706 0.97919 0
M  V30 16 C -1.70723 0.740065 0.88517 0
M  V30 17 H 5.07935 -0.916288 0.364667 0
M  V30 18 H 5.03908 0.0837761 -1.11381 0
M  V30 19 H -0.118454 2.31484 -1.43152 0
M  V30 20 H 0.54844 2.98077 0.0949495 0
M  V30 21 H 2.9493 -2.32044 0.249251 0
M  V30 22 H -4.89406 -0.254418 0.325422 0
M  V30 23 H -3.61542 1.41086 1.63153 0
M  V30 24 H -1.14193 1.47367 1.46449 0
M  V30 END ATOM
M  V30 BEGIN BOND
M  V30 1 1 1 2
M  V30 2 2 2 3
M  V30 3 1 3 4
M  V30 4 1 4 5
M  V30 5 2 4 6
M  V30 6 1 6 7
M  V30 7 2 7 8
M  V30 8 1 6 9
M  V30 9 2 9 10
M  V30 10 1 10 11
M  V30 11 1 10 12
M  V30 12 1 12 13
M  V30 13 2 12 14
M  V30 14 1 14 15
M  V30 15 2 15 16
M  V30 16 1 8 2
M  V30 17 1 16 9
M  V30 18 1 1 17
M  V30 19 1 1 18
M  V30 20 1 5 19
M  V30 21 1 5 20
M  V30 22 1 8 21
M  V30 23 1 14 22
M  V30 24 1 15 23
M  V30 25 1 16 24
M  V30 END BOND
M  V30 END CTAB
M  END
