
     RDKit          3D

  0  0  0  0  0  0  0  0  0  0999 V3000
M  V30 BEGIN CTAB
M  V30 COUNTS 26 26 0 0 0
M  V30 BEGIN ATOM
M  V30 1 C 4.36551 -0.359357 0.233523 0
M  V30 2 O 2.9401 -0.382731 0.165406 0
M  V30 3 C 2.17645 0.747176 0.034447 0
M  V30 4 O 2.73194 1.86789 -0.0309149 0
M  V30 5 C 0.725751 0.687245 -0.0319 0
M  V30 6 C 0.000772939 1.84334 -0.163139 0
M  V30 7 C -1.37505 1.75888 -0.223779 0
M  V30 8 N -2.16463 2.95473 -0.361479 0
M  V30 9 C -1.98707 0.52437 -0.151772 0
M  V30 10 C -1.29806 -0.664064 -0.0196267 0
M  V30 11 C 0.0779016 -0.543085 0.0379992 0
M  V30 12 N 0.858083 -1.721 0.173773 0
M  V30 13 O -1.87465 -1.90855 0.0549504 0
M  V30 14 C -3.20997 -2.25236 0.0178317 0
M  V30 15 F -3.53101 -3.18081 -0.947495 0
M  V30 16 F -3.53697 -2.81262 1.26074 0
M  V30 17 H 4.79955 0.227683 -0.615311 0
M  V30 18 H 4.66647 0.144178 1.1704 0
M  V30 19 H 4.75997 -1.37624 0.249041 0
M  V30 20 H 0.445902 2.82838 -0.222717 0
M  V30 21 H -2.19387 3.44483 -1.27398 0
M  V30 22 H -2.71471 3.35102 0.43169 0
M  V30 23 H -3.05856 0.478128 -0.200617 0
M  V30 24 H 1.22652 -2.2462 -0.662819 0
M  V30 25 H 1.04478 -2.03589 1.16299 0
M  V30 26 H -3.87516 -1.37494 -0.0872425 0
M  V30 END ATOM
M  V30 BEGIN BOND
M  V30 1 1 1 2
M  V30 2 1 2 3
M  V30 3 2 3 4
M  V30 4 1 3 5
M  V30 5 2 5 6
M  V30 6 1 6 7
M  V30 7 1 7 8
M  V30 8 2 7 9
M  V30 9 1 9 10
M  V30 10 2 10 11
M  V30 11 1 11 12
M  V30 12 1 10 13
M  V30 13 1 13 14
M  V30 14 1 14 15
M  V30 15 1 14 16
M  V30 16 1 11 5
M  V30 17 1 1 17
M  V30 18 1 1 18
M  V30 19 1 1 19
M  V30 20 1 6 20
M  V30 21 1 8 21
M  V30 22 1 8 22
M  V30 23 1 9 23
M  V30 24 1 12 24
M  V30 25 1 12 25
M  V30 26 1 14 26
M  V30 END BOND
M  V30 END CTAB
M  END
