
     RDKit          3D

  0  0  0  0  0  0  0  0  0  0999 V3000
M  V30 BEGIN CTAB
M  V30 COUNTS 35 37 0 0 0
M  V30 BEGIN ATOM
M  V30 1 N -0.482055 2.96443 -0.0747668 0
M  V30 2 C 0.609422 2.0552 -0.0847187 0
M  V30 3 N 1.86518 2.41522 -0.405491 0
M  V30 4 C 2.67491 1.34443 -0.325693 0
M  V30 5 C 1.8405 0.291246 0.0665184 0
M  V30 6 N 2.46422 -0.902586 0.209172 0
M  V30 7 C 3.77987 -1.06922 -0.00726348 0
M  V30 8 N 4.41423 -2.32588 0.147159 0
M  V30 9 N 4.57774 -0.0358427 -0.388097 0
M  V30 10 C 4.01804 1.17564 -0.546946 0
M  V30 11 O 4.74726 2.1623 -0.904289 0
M  V30 12 N 0.588011 0.746249 0.207357 0
M  V30 13 C -0.54679 -0.0229214 0.59491 0
M  V30 14 O -1.68968 0.762895 0.734673 0
M  V30 15 C -2.78069 -0.0697577 0.71486 0
M  V30 16 C -3.94769 0.524507 -0.0471138 0
M  V30 17 O -4.34833 1.72122 0.533121 0
M  V30 18 C -2.39322 -1.34544 0.0349032 0
M  V30 19 O -3.22447 -1.69995 -1.00559 0
M  V30 20 C -0.983018 -1.00563 -0.465897 0
M  V30 21 O -0.190674 -2.12969 -0.532412 0
M  V30 22 H -0.772247 3.43109 -0.957133 0
M  V30 23 H -0.978795 3.14618 0.842887 0
M  V30 24 H 4.66363 -2.87007 -0.703591 0
M  V30 25 H 4.62347 -2.69085 1.09797 0
M  V30 26 H 5.60054 -0.147823 -0.560245 0
M  V30 27 H -0.404578 -0.539559 1.5681 0
M  V30 28 H -3.11806 -0.220421 1.76445 0
M  V30 29 H -3.64656 0.703658 -1.11782 0
M  V30 30 H -4.7855 -0.200512 -0.0410402 0
M  V30 31 H -4.23758 1.69736 1.51466 0
M  V30 32 H -2.34336 -2.14888 0.81616 0
M  V30 33 H -3.82204 -2.44616 -0.722556 0
M  V30 34 H -1.11024 -0.474627 -1.40959 0
M  V30 35 H -0.661448 -2.7958 -1.08699 0
M  V30 END ATOM
M  V30 BEGIN BOND
M  V30 1 1 1 2
M  V30 2 2 2 3
M  V30 3 1 3 4
M  V30 4 2 4 5
M  V30 5 1 5 6
M  V30 6 2 6 7
M  V30 7 1 7 8
M  V30 8 1 7 9
M  V30 9 1 9 10
M  V30 10 2 10 11
M  V30 11 1 5 12
M  V30 12 1 12 13
M  V30 13 1 13 14
M  V30 14 1 14 15
M  V30 15 1 15 16
M  V30 16 1 16 17
M  V30 17 1 15 18
M  V30 18 1 18 19
M  V30 19 1 18 20
M  V30 20 1 20 21
M  V30 21 1 12 2
M  V30 22 1 20 13
M  V30 23 1 10 4
M  V30 24 1 1 22
M  V30 25 1 1 23
M  V30 26 1 8 24
M  V30 27 1 8 25
M  V30 28 1 9 26
M  V30 29 1 13 27
M  V30 30 1 15 28
M  V30 31 1 16 29
M  V30 32 1 16 30
M  V30 33 1 17 31
M  V30 34 1 18 32
M  V30 35 1 19 33
M  V30 36 1 20 34
M  V30 37 1 21 35
M  V30 END BOND
M  V30 END CTAB
M  END
