
     RDKit          3D

  0  0  0  0  0  0  0  0  0  0999 V3000
M  V30 BEGIN CTAB
M  V30 COUNTS 20 21 0 0 0
M  V30 BEGIN ATOM
M  V30 1 N 0.73634 1.70053 0.173697 0
M  V30 2 C 0.854758 0.338076 -0.183164 0
M  V30 3 C 1.96113 -0.448862 -0.281573 0
M  V30 4 N 3.30048 -0.0328388 -0.0821726 0
M  V30 5 N 1.53047 -1.68716 -0.548127 0
M  V30 6 N 0.178811 -1.68164 -0.612013 0
M  V30 7 C -0.292184 -0.43606 -0.395965 0
M  V30 8 C -1.69449 -0.0429973 -0.536702 0
M  V30 9 C -2.46948 -0.637569 0.745982 0
M  V30 10 C -2.54205 0.792453 0.267345 0
M  V30 11 H 1.0163 1.98439 1.11709 0
M  V30 12 H 0.359525 2.37242 -0.486067 0
M  V30 13 H 3.91096 -0.588239 0.608887 0
M  V30 14 H 3.78578 0.781631 -0.521317 0
M  V30 15 H 2.17393 -2.5286 -0.715718 0
M  V30 16 H -2.14612 -0.414247 -1.51699 0
M  V30 17 H -1.78733 -0.720348 1.66901 0
M  V30 18 H -3.14352 -1.42117 0.52323 0
M  V30 19 H -2.17616 1.60635 0.929415 0
M  V30 20 H -3.55714 1.06388 -0.154845 0
M  V30 END ATOM
M  V30 BEGIN BOND
M  V30 1 1 1 2
M  V30 2 2 2 3
M  V30 3 1 3 4
M  V30 4 1 3 5
M  V30 5 1 5 6
M  V30 6 2 6 7
M  V30 7 1 7 8
M  V30 8 1 8 9
M  V30 9 1 9 10
M  V30 10 1 7 2
M  V30 11 1 10 8
M  V30 12 1 1 11
M  V30 13 1 1 12
M  V30 14 1 4 13
M  V30 15 1 4 14
M  V30 16 1 5 15
M  V30 17 1 8 16
M  V30 18 1 9 17
M  V30 19 1 9 18
M  V30 20 1 10 19
M  V30 21 1 10 20
M  V30 END BOND
M  V30 END CTAB
M  END
