
     RDKit          3D

  0  0  0  0  0  0  0  0  0  0999 V3000
M  V30 BEGIN CTAB
M  V30 COUNTS 47 50 0 0 0
M  V30 BEGIN ATOM
M  V30 1 N 3.77879 -0.964806 -1.59097 0
M  V30 2 C 3.78239 -0.148736 -0.368576 0
M  V30 3 C 4.56996 1.11962 -0.592197 0
M  V30 4 C 5.80856 0.303816 -0.218989 0
M  V30 5 C 4.87234 -0.611412 0.559886 0
M  V30 6 C 2.44511 0.0211694 0.206511 0
M  V30 7 N 2.03813 0.792872 1.25838 0
M  V30 8 O 0.741396 0.626967 1.38086 0
M  V30 9 C 0.273672 -0.192598 0.487406 0
M  V30 10 N 1.33577 -0.569067 -0.240637 0
M  V30 11 C -1.07284 -0.668477 0.193807 0
M  V30 12 C -1.15251 -2.0764 0.0889846 0
M  V30 13 C -2.35273 -2.66175 -0.161054 0
M  V30 14 C -3.48714 -1.9205 -0.298675 0
M  V30 15 C -3.36523 -0.552694 -0.194607 0
M  V30 16 C -2.17129 0.107581 0.0404709 0
M  V30 17 N -2.16698 1.55913 -0.00438574 0
M  V30 18 C -1.2547 2.34957 -0.757769 0
M  V30 19 C -1.40405 3.79521 -0.323899 0
M  V30 20 O -1.73684 3.89375 1.0245 0
M  V30 21 C -3.06939 3.57247 1.13147 0
M  V30 22 C -3.28503 2.20065 0.653445 0
M  V30 23 S -2.41588 -4.4235 -0.27409 0
M  V30 24 O -3.3627 -4.76525 -1.39436 0
M  V30 25 O -1.03229 -4.90412 -0.704074 0
M  V30 26 N -2.81821 -5.15196 1.22455 0
M  V30 27 H 4.4238 -0.560939 -2.3011 0
M  V30 28 H 4.08735 -1.93513 -1.37239 0
M  V30 29 H 4.56972 1.39598 -1.68853 0
M  V30 30 H 4.34281 1.95151 0.0697005 0
M  V30 31 H 6.53509 0.85143 0.392652 0
M  V30 32 H 6.22075 -0.214052 -1.09386 0
M  V30 33 H 4.62948 -0.258375 1.58088 0
M  V30 34 H 5.05055 -1.67544 0.446566 0
M  V30 35 H -0.267638 -2.69734 0.204483 0
M  V30 36 H -4.43032 -2.39381 -0.483304 0
M  V30 37 H -4.24152 0.062912 -0.328371 0
M  V30 38 H -0.195224 2.12735 -0.703862 0
M  V30 39 H -1.48516 2.2754 -1.87154 0
M  V30 40 H -2.17493 4.31342 -0.924081 0
M  V30 41 H -0.43972 4.35697 -0.454713 0
M  V30 42 H -3.62358 4.27837 0.428955 0
M  V30 43 H -3.51799 3.73811 2.1322 0
M  V30 44 H -3.73228 1.53163 1.42229 0
M  V30 45 H -4.11455 2.17679 -0.159003 0
M  V30 46 H -3.15956 -4.4568 1.93849 0
M  V30 47 H -1.97538 -5.59951 1.63853 0
M  V30 END ATOM
M  V30 BEGIN BOND
M  V30 1 1 1 2
M  V30 2 1 2 3
M  V30 3 1 3 4
M  V30 4 1 4 5
M  V30 5 1 2 6
M  V30 6 2 6 7
M  V30 7 1 7 8
M  V30 8 1 8 9
M  V30 9 2 9 10
M  V30 10 1 9 11
M  V30 11 2 11 12
M  V30 12 1 12 13
M  V30 13 2 13 14
M  V30 14 1 14 15
M  V30 15 2 15 16
M  V30 16 1 16 17
M  V30 17 1 17 18
M  V30 18 1 18 19
M  V30 19 1 19 20
M  V30 20 1 20 21
M  V30 21 1 21 22
M  V30 22 1 13 23
M  V30 23 2 23 24
M  V30 24 2 23 25
M  V30 25 1 23 26
M  V30 26 1 5 2
M  V30 27 1 10 6
M  V30 28 1 16 11
M  V30 29 1 22 17
M  V30 30 1 1 27
M  V30 31 1 1 28
M  V30 32 1 3 29
M  V30 33 1 3 30
M  V30 34 1 4 31
M  V30 35 1 4 32
M  V30 36 1 5 33
M  V30 37 1 5 34
M  V30 38 1 12 35
M  V30 39 1 14 36
M  V30 40 1 15 37
M  V30 41 1 18 38
M  V30 42 1 18 39
M  V30 43 1 19 40
M  V30 44 1 19 41
M  V30 45 1 21 42
M  V30 46 1 21 43
M  V30 47 1 22 44
M  V30 48 1 22 45
M  V30 49 1 26 46
M  V30 50 1 26 47
M  V30 END BOND
M  V30 END CTAB
M  END
