
     RDKit          3D

  0  0  0  0  0  0  0  0  0  0999 V3000
M  V30 BEGIN CTAB
M  V30 COUNTS 41 43 0 0 0
M  V30 BEGIN ATOM
M  V30 1 O 0.331073 -0.27172 1.69807 0
M  V30 2 C -0.35981 -0.19453 0.622411 0
M  V30 3 C 0.134185 0.666564 -0.446507 0
M  V30 4 C -0.708563 1.8213 -0.794183 0
M  V30 5 C -0.998195 2.14778 -2.09843 0
M  V30 6 C -1.79838 3.25028 -2.4042 0
M  V30 7 C -2.31897 4.0407 -1.39884 0
M  V30 8 C -2.03243 3.71804 -0.10322 0
M  V30 9 C -1.24297 2.62934 0.183322 0
M  V30 10 S 1.77551 1.33441 -0.0553688 0
M  V30 11 C 3.03633 0.0817479 -0.0140434 0
M  V30 12 N 3.27689 -0.543255 1.15025 0
M  V30 13 C 4.21885 -1.50571 1.26786 0
M  V30 14 N 4.45644 -2.15776 2.5194 0
M  V30 15 N 4.93894 -1.85245 0.194334 0
M  V30 16 C 4.72631 -1.25159 -0.979619 0
M  V30 17 N 3.77507 -0.288364 -1.07292 0
M  V30 18 N 5.51413 -1.65452 -2.07873 0
M  V30 19 N -1.53456 -0.954051 0.578173 0
M  V30 20 C -2.03677 -1.81851 1.66952 0
M  V30 21 C -3.53541 -1.55207 1.67063 0
M  V30 22 C -3.8541 -0.964743 0.317258 0
M  V30 23 C -2.5423 -1.13771 -0.447088 0
M  V30 24 H 0.266473 0.0504098 -1.38102 0
M  V30 25 H -0.629149 1.57949 -2.93643 0
M  V30 26 H -2.03211 3.51698 -3.42029 0
M  V30 27 H -2.942 4.89672 -1.677 0
M  V30 28 H -2.42699 4.31952 0.692406 0
M  V30 29 H -1.01824 2.37817 1.22764 0
M  V30 30 H 5.3917 -2.59407 2.70206 0
M  V30 31 H 3.74687 -2.22219 3.26139 0
M  V30 32 H 5.72536 -2.65219 -2.22353 0
M  V30 33 H 5.87942 -0.952896 -2.73841 0
M  V30 34 H -1.58836 -1.55661 2.62703 0
M  V30 35 H -1.85588 -2.89584 1.42286 0
M  V30 36 H -4.09811 -2.50395 1.85767 0
M  V30 37 H -3.82789 -0.86815 2.48274 0
M  V30 38 H -4.67825 -1.51717 -0.184828 0
M  V30 39 H -4.08013 0.104126 0.390752 0
M  V30 40 H -2.48419 -0.435858 -1.26988 0
M  V30 41 H -2.56979 -2.18967 -0.811229 0
M  V30 END ATOM
M  V30 BEGIN BOND
M  V30 1 2 1 2
M  V30 2 1 2 3
M  V30 3 1 3 4
M  V30 4 2 4 5
M  V30 5 1 5 6
M  V30 6 2 6 7
M  V30 7 1 7 8
M  V30 8 2 8 9
M  V30 9 1 3 10
M  V30 10 1 10 11
M  V30 11 2 11 12
M  V30 12 1 12 13
M  V30 13 1 13 14
M  V30 14 2 13 15
M  V30 15 1 15 16
M  V30 16 2 16 17
M  V30 17 1 16 18
M  V30 18 1 2 19
M  V30 19 1 19 20
M  V30 20 1 20 21
M  V30 21 1 21 22
M  V30 22 1 22 23
M  V30 23 1 9 4
M  V30 24 1 17 11
M  V30 25 1 23 19
M  V30 26 1 3 24
M  V30 27 1 5 25
M  V30 28 1 6 26
M  V30 29 1 7 27
M  V30 30 1 8 28
M  V30 31 1 9 29
M  V30 32 1 14 30
M  V30 33 1 14 31
M  V30 34 1 18 32
M  V30 35 1 18 33
M  V30 36 1 20 34
M  V30 37 1 20 35
M  V30 38 1 21 36
M  V30 39 1 21 37
M  V30 40 1 22 38
M  V30 41 1 22 39
M  V30 42 1 23 40
M  V30 43 1 23 41
M  V30 END BOND
M  V30 END CTAB
M  END
