
     RDKit          3D

  0  0  0  0  0  0  0  0  0  0999 V3000
M  V30 BEGIN CTAB
M  V30 COUNTS 27 27 0 0 0
M  V30 BEGIN ATOM
M  V30 1 C -2.3447 -2.04848 -0.684146 0
M  V30 2 C -2.04366 -1.1079 0.456967 0
M  V30 3 N -1.21289 0.00254003 0.0552141 0
M  V30 4 S -2.03367 1.4144 -0.511374 0
M  V30 5 O -3.32441 1.05062 -1.16971 0
M  V30 6 O -1.13038 2.18285 -1.45837 0
M  V30 7 N -2.31091 2.4124 0.895583 0
M  V30 8 C 0.204389 0.00192482 0.0975255 0
M  V30 9 C 0.917965 -0.427519 -0.999263 0
M  V30 10 C 2.29105 -0.458625 -1.03769 0
M  V30 11 C 3.00127 -0.049168 0.051223 0
M  V30 12 C 2.32646 0.38774 1.16866 0
M  V30 13 C 0.94653 0.411238 1.18706 0
M  V30 14 N 4.43446 -0.0545091 0.0817731 0
M  V30 15 H -3.03188 -1.5759 -1.41391 0
M  V30 16 H -2.89273 -2.91108 -0.250965 0
M  V30 17 H -1.4422 -2.39319 -1.21731 0
M  V30 18 H -1.60014 -1.67582 1.30635 0
M  V30 19 H -3.01149 -0.721663 0.832023 0
M  V30 20 H -1.47549 2.43625 1.48887 0
M  V30 21 H -2.67131 3.32739 0.603179 0
M  V30 22 H 0.387717 -0.756729 -1.87347 0
M  V30 23 H 2.80697 -0.802407 -1.9174 0
M  V30 24 H 2.90377 0.716866 2.04411 0
M  V30 25 H 0.42268 0.75877 2.07626 0
M  V30 26 H 4.9613 0.736536 -0.309091 0
M  V30 27 H 4.9213 -0.85655 0.497896 0
M  V30 END ATOM
M  V30 BEGIN BOND
M  V30 1 1 1 2
M  V30 2 1 2 3
M  V30 3 1 3 4
M  V30 4 2 4 5
M  V30 5 2 4 6
M  V30 6 1 4 7
M  V30 7 1 3 8
M  V30 8 2 8 9
M  V30 9 1 9 10
M  V30 10 2 10 11
M  V30 11 1 11 12
M  V30 12 2 12 13
M  V30 13 1 11 14
M  V30 14 1 13 8
M  V30 15 1 1 15
M  V30 16 1 1 16
M  V30 17 1 1 17
M  V30 18 1 2 18
M  V30 19 1 2 19
M  V30 20 1 7 20
M  V30 21 1 7 21
M  V30 22 1 9 22
M  V30 23 1 10 23
M  V30 24 1 12 24
M  V30 25 1 13 25
M  V30 26 1 14 26
M  V30 27 1 14 27
M  V30 END BOND
M  V30 END CTAB
M  END
