
     RDKit          3D

  0  0  0  0  0  0  0  0  0  0999 V3000
M  V30 BEGIN CTAB
M  V30 COUNTS 28 28 0 0 0
M  V30 BEGIN ATOM
M  V30 1 C 2.93666 -2.57525 -0.347587 0
M  V30 2 C 2.22492 -2.0057 0.440656 0
M  V30 3 C 1.37342 -1.29251 1.39277 0
M  V30 4 N 0.970898 0.0229954 0.922902 0
M  V30 5 C 1.80973 1.17862 1.19118 0
M  V30 6 O 2.91472 1.13171 1.80705 0
M  V30 7 N 1.14685 2.29459 0.639633 0
M  V30 8 C 0.0525307 1.9693 0.0910465 0
M  V30 9 C -0.152421 0.530366 0.217547 0
M  V30 10 C -1.3681 0.400718 1.18013 0
M  V30 11 C -0.490877 -0.124064 -1.09583 0
M  V30 12 N -1.6407 0.554429 -1.7077 0
M  V30 13 C -0.92482 -1.55713 -0.934691 0
M  V30 14 N -0.790843 2.95699 -0.537751 0
M  V30 15 H 3.56104 -3.08062 -1.03372 0
M  V30 16 H 0.513007 -1.92815 1.61802 0
M  V30 17 H 1.98168 -1.14748 2.34381 0
M  V30 18 H -1.34277 -0.574902 1.70043 0
M  V30 19 H -1.29162 1.24365 1.89564 0
M  V30 20 H -2.2618 0.531387 0.539934 0
M  V30 21 H 0.367274 -0.067524 -1.77819 0
M  V30 22 H -1.50937 0.575551 -2.73245 0
M  V30 23 H -2.52492 0.076996 -1.46199 0
M  V30 24 H -1.22638 -1.80599 0.100651 0
M  V30 25 H -1.91186 -1.67438 -1.50341 0
M  V30 26 H -0.209775 -2.29362 -1.37247 0
M  V30 27 H -0.627675 3.23114 -1.52967 0
M  V30 28 H -1.57881 3.42887 -0.0459347 0
M  V30 END ATOM
M  V30 BEGIN BOND
M  V30 1 3 1 2
M  V30 2 1 2 3
M  V30 3 1 3 4
M  V30 4 1 4 5
M  V30 5 2 5 6
M  V30 6 1 5 7
M  V30 7 2 7 8
M  V30 8 1 8 9
M  V30 9 1 9 10
M  V30 10 1 9 11
M  V30 11 1 11 12
M  V30 12 1 11 13
M  V30 13 1 8 14
M  V30 14 1 9 4
M  V30 15 1 1 15
M  V30 16 1 3 16
M  V30 17 1 3 17
M  V30 18 1 10 18
M  V30 19 1 10 19
M  V30 20 1 10 20
M  V30 21 1 11 21
M  V30 22 1 12 22
M  V30 23 1 12 23
M  V30 24 1 13 24
M  V30 25 1 13 25
M  V30 26 1 13 26
M  V30 27 1 14 27
M  V30 28 1 14 28
M  V30 END BOND
M  V30 END CTAB
M  END
