
     RDKit          3D

  0  0  0  0  0  0  0  0  0  0999 V3000
M  V30 BEGIN CTAB
M  V30 COUNTS 33 35 0 0 0
M  V30 BEGIN ATOM
M  V30 1 C 4.82684 -1.83677 -0.281069 0
M  V30 2 C 4.64841 -0.485216 -0.937351 0
M  V30 3 C 4.16477 0.452073 0.125703 0
M  V30 4 N 5.02166 1.15564 0.877276 0
M  V30 5 N 4.31144 1.88174 1.71343 0
M  V30 6 C 2.99185 1.60967 1.4603 0
M  V30 7 N 2.8694 0.723915 0.477815 0
M  V30 8 N 1.70452 0.354568 0.11041 0
M  V30 9 C 0.634107 0.845053 0.697661 0
M  V30 10 S 1.33536 1.8974 1.84383 0
M  V30 11 C -0.77034 0.54827 0.420235 0
M  V30 12 C -1.11208 -0.346196 -0.563554 0
M  V30 13 C -2.45798 -0.633594 -0.832725 0
M  V30 14 N -2.7315 -1.56982 -1.86563 0
M  V30 15 C -3.43644 -0.0104841 -0.101204 0
M  V30 16 C -3.1134 0.884534 0.883909 0
M  V30 17 C -1.78531 1.14994 1.12925 0
M  V30 18 N -4.12742 1.55068 1.66472 0
M  V30 19 C -4.85065 -0.315771 -0.387709 0
M  V30 20 H 5.72225 -1.80608 0.396758 0
M  V30 21 H 4.97819 -2.63983 -1.02672 0
M  V30 22 H 3.91196 -2.03767 0.320731 0
M  V30 23 H 3.85519 -0.595594 -1.72607 0
M  V30 24 H 5.60204 -0.142952 -1.35437 0
M  V30 25 H -0.34915 -0.834105 -1.13623 0
M  V30 26 H -2.63233 -2.60954 -1.68991 0
M  V30 27 H -3.03336 -1.3108 -2.81928 0
M  V30 28 H -1.52746 1.85454 1.90464 0
M  V30 29 H -3.90187 1.97081 2.57781 0
M  V30 30 H -5.08174 1.6035 1.30171 0
M  V30 31 H -5.42439 -0.305781 0.577925 0
M  V30 32 H -4.94509 -1.35589 -0.814022 0
M  V30 33 H -5.29748 0.353774 -1.13785 0
M  V30 END ATOM
M  V30 BEGIN BOND
M  V30 1 1 1 2
M  V30 2 1 2 3
M  V30 3 2 3 4
M  V30 4 1 4 5
M  V30 5 2 5 6
M  V30 6 1 6 7
M  V30 7 1 7 8
M  V30 8 2 8 9
M  V30 9 1 9 10
M  V30 10 1 9 11
M  V30 11 2 11 12
M  V30 12 1 12 13
M  V30 13 1 13 14
M  V30 14 2 13 15
M  V30 15 1 15 16
M  V30 16 2 16 17
M  V30 17 1 16 18
M  V30 18 1 15 19
M  V30 19 1 7 3
M  V30 20 1 17 11
M  V30 21 1 10 6
M  V30 22 1 1 20
M  V30 23 1 1 21
M  V30 24 1 1 22
M  V30 25 1 2 23
M  V30 26 1 2 24
M  V30 27 1 12 25
M  V30 28 1 14 26
M  V30 29 1 14 27
M  V30 30 1 17 28
M  V30 31 1 18 29
M  V30 32 1 18 30
M  V30 33 1 19 31
M  V30 34 1 19 32
M  V30 35 1 19 33
M  V30 END BOND
M  V30 END CTAB
M  END
