
     RDKit          3D

  0  0  0  0  0  0  0  0  0  0999 V3000
M  V30 BEGIN CTAB
M  V30 COUNTS 30 31 0 0 0
M  V30 BEGIN ATOM
M  V30 1 N -0.370553 2.02968 1.38656 0
M  V30 2 C -1.27295 1.13014 0.757994 0
M  V30 3 C -2.63561 1.32821 0.860813 0
M  V30 4 C -3.48789 0.443527 0.231853 0
M  V30 5 C -2.94512 -0.603769 -0.473166 0
M  V30 6 C -1.55422 -0.807438 -0.57791 0
M  V30 7 C -0.711555 0.0712821 0.0452827 0
M  V30 8 C 0.732018 -0.108789 -0.027952 0
M  V30 9 C 1.40914 -0.962571 0.788951 0
M  V30 10 C 2.79955 -1.03682 0.668027 0
M  V30 11 C 3.47901 -0.275178 -0.247202 0
M  V30 12 C 2.78522 0.577482 -1.06145 0
M  V30 13 C 1.42746 0.664206 -0.957444 0
M  V30 14 N 0.689684 1.55073 -1.79286 0
M  V30 15 N 0.75287 -1.77322 1.73689 0 CHG=1
M  V30 16 O 1.23638 -3.00907 2.07359 0 CHG=-1
M  V30 17 O -0.280128 -1.37454 2.28102 0
M  V30 18 N -1.07587 -1.91962 -1.30287 0 CHG=1
M  V30 19 O 0.133162 -1.92123 -1.90901 0 CHG=-1
M  V30 20 O -1.78666 -2.93518 -1.39168 0
M  V30 21 H -0.270274 2.98827 1.04307 0
M  V30 22 H 0.176824 1.66168 2.20474 0
M  V30 23 H -3.06644 2.15135 1.41535 0
M  V30 24 H -4.57224 0.547302 0.276328 0
M  V30 25 H -3.62182 -1.30656 -0.973949 0
M  V30 26 H 3.37304 -1.70289 1.29849 0
M  V30 27 H 4.55501 -0.327958 -0.347662 0
M  V30 28 H 3.26056 1.20473 -1.80472 0
M  V30 29 H 0.160386 1.15032 -2.5827 0
M  V30 30 H 0.681047 2.56594 -1.61838 0
M  V30 END ATOM
M  V30 BEGIN BOND
M  V30 1 1 1 2
M  V30 2 2 2 3
M  V30 3 1 3 4
M  V30 4 2 4 5
M  V30 5 1 5 6
M  V30 6 2 6 7
M  V30 7 1 7 8
M  V30 8 2 8 9
M  V30 9 1 9 10
M  V30 10 2 10 11
M  V30 11 1 11 12
M  V30 12 2 12 13
M  V30 13 1 13 14
M  V30 14 1 9 15
M  V30 15 1 15 16
M  V30 16 2 15 17
M  V30 17 1 6 18
M  V30 18 1 18 19
M  V30 19 2 18 20
M  V30 20 1 7 2
M  V30 21 1 13 8
M  V30 22 1 1 21
M  V30 23 1 1 22
M  V30 24 1 3 23
M  V30 25 1 4 24
M  V30 26 1 5 25
M  V30 27 1 10 26
M  V30 28 1 11 27
M  V30 29 1 12 28
M  V30 30 1 14 29
M  V30 31 1 14 30
M  V30 END BOND
M  V30 END CTAB
M  END
