
     RDKit          3D

  0  0  0  0  0  0  0  0  0  0999 V3000
M  V30 BEGIN CTAB
M  V30 COUNTS 70 72 0 0 0
M  V30 BEGIN ATOM
M  V30 1 C -3.64406 2.20858 -0.615197 0 CFG=2
M  V30 2 C -4.39725 1.82465 -1.8339 0
M  V30 3 C -4.60073 0.387353 -2.11532 0
M  V30 4 C -5.32085 -0.383426 -1.12312 0
M  V30 5 O -4.80336 -0.932176 -0.111366 0
M  V30 6 O -6.68709 -0.56276 -1.26082 0
M  V30 7 C -7.48316 -1.30901 -0.401417 0
M  V30 8 C -7.03757 -2.78713 -0.378772 0
M  V30 9 C -8.8957 -1.35044 -1.0017 0
M  V30 10 C -7.61616 -0.786245 0.994819 0
M  V30 11 N -2.31734 1.66141 -0.520904 0
M  V30 12 C -1.18282 2.46798 -0.675834 0
M  V30 13 O -1.30618 3.7185 -0.910129 0
M  V30 14 C 0.153339 1.87023 -0.566309 0
M  V30 15 C 0.81142 1.27809 -1.62193 0
M  V30 16 C 2.08269 0.718588 -1.44612 0
M  V30 17 C 2.71902 0.736116 -0.230435 0
M  V30 18 C 2.06251 1.33138 0.839125 0
M  V30 19 C 0.810501 1.88067 0.659292 0
M  V30 20 N 4.00359 0.184195 -0.00695877 0
M  V30 21 C 4.11053 -1.21718 0.309136 0
M  V30 22 C 5.15672 1.03352 -0.0889296 0
M  V30 23 C 6.44567 0.379756 0.145825 0
M  V30 24 N 6.78289 -0.858795 -0.19876 0
M  V30 25 C 8.0076 -1.3334 0.0847496 0
M  V30 26 C 8.39159 -2.62637 -0.262002 0
M  V30 27 N 7.4565 -3.47831 -0.939652 0
M  V30 28 N 9.62565 -3.03184 0.0518066 0
M  V30 29 C 10.5336 -2.28011 0.682519 0
M  V30 30 N 11.8347 -2.78338 0.982212 0
M  V30 31 N 10.1839 -1.02064 1.02937 0
M  V30 32 C 8.95406 -0.567884 0.735382 0
M  V30 33 N 8.63446 0.685053 1.09183 0
M  V30 34 C 7.4188 1.14268 0.805498 0
M  V30 35 C -4.37483 2.1943 0.663927 0
M  V30 36 O -3.8892 1.71096 1.74428 0
M  V30 37 O -5.66013 2.71713 0.795306 0
M  V30 38 C -6.39849 2.74876 1.97965 0
M  V30 39 H -3.46847 3.36289 -0.790814 0
M  V30 40 H -3.95474 2.33682 -2.75312 0
M  V30 41 H -5.40311 2.35504 -1.75232 0
M  V30 42 H -5.04303 0.286683 -3.14845 0
M  V30 43 H -3.57956 -0.118132 -2.22846 0
M  V30 44 H -6.91178 -3.05765 -1.449 0
M  V30 45 H -7.91172 -3.34665 0.0147397 0
M  V30 46 H -6.1533 -2.95343 0.229926 0
M  V30 47 H -9.25724 -0.304746 -0.979198 0
M  V30 48 H -9.53566 -2.04874 -0.423608 0
M  V30 49 H -8.80253 -1.64083 -2.07019 0
M  V30 50 H -7.77416 -1.59667 1.74251 0
M  V30 51 H -6.67931 -0.279791 1.33057 0
M  V30 52 H -8.42376 -0.0310219 1.04941 0
M  V30 53 H -2.18977 0.635347 -0.330486 0
M  V30 54 H 0.333171 1.2501 -2.59161 0
M  V30 55 H 2.60061 0.251881 -2.28166 0
M  V30 56 H 2.53576 1.35743 1.78848 0
M  V30 57 H 0.270405 2.35613 1.48672 0
M  V30 58 H 3.09669 -1.6468 0.573707 0
M  V30 59 H 4.44341 -1.8381 -0.551975 0
M  V30 60 H 4.7233 -1.421 1.21696 0
M  V30 61 H 5.03395 1.95142 0.563285 0
M  V30 62 H 5.20588 1.48297 -1.1265 0
M  V30 63 H 6.44004 -3.36076 -0.720792 0
M  V30 64 H 7.80323 -4.17265 -1.61216 0
M  V30 65 H 12.616 -2.13951 1.14904 0
M  V30 66 H 11.99 -3.80066 1.0308 0
M  V30 67 H 7.18943 2.16423 1.10737 0
M  V30 68 H -6.05481 1.99023 2.7329 0
M  V30 69 H -7.47864 2.64807 1.83289 0
M  V30 70 H -6.22514 3.75708 2.4377 0
M  V30 END ATOM
M  V30 BEGIN BOND
M  V30 1 1 1 2
M  V30 2 1 2 3
M  V30 3 1 3 4
M  V30 4 2 4 5
M  V30 5 1 4 6
M  V30 6 1 6 7
M  V30 7 1 7 8
M  V30 8 1 7 9
M  V30 9 1 7 10
M  V30 10 1 1 11
M  V30 11 1 11 12
M  V30 12 2 12 13
M  V30 13 1 12 14
M  V30 14 2 14 15
M  V30 15 1 15 16
M  V30 16 2 16 17
M  V30 17 1 17 18
M  V30 18 2 18 19
M  V30 19 1 17 20
M  V30 20 1 20 21
M  V30 21 1 20 22
M  V30 22 1 22 23
M  V30 23 2 23 24
M  V30 24 1 24 25
M  V30 25 2 25 26
M  V30 26 1 26 27
M  V30 27 1 26 28
M  V30 28 2 28 29
M  V30 29 1 29 30
M  V30 30 1 29 31
M  V30 31 2 31 32
M  V30 32 1 32 33
M  V30 33 2 33 34
M  V30 34 1 1 35
M  V30 35 2 35 36
M  V30 36 1 35 37
M  V30 37 1 37 38
M  V30 38 1 19 14
M  V30 39 1 34 23
M  V30 40 1 32 25
M  V30 41 1 1 39 CFG=3
M  V30 42 1 2 40
M  V30 43 1 2 41
M  V30 44 1 3 42
M  V30 45 1 3 43
M  V30 46 1 8 44
M  V30 47 1 8 45
M  V30 48 1 8 46
M  V30 49 1 9 47
M  V30 50 1 9 48
M  V30 51 1 9 49
M  V30 52 1 10 50
M  V30 53 1 10 51
M  V30 54 1 10 52
M  V30 55 1 11 53
M  V30 56 1 15 54
M  V30 57 1 16 55
M  V30 58 1 18 56
M  V30 59 1 19 57
M  V30 60 1 21 58
M  V30 61 1 21 59
M  V30 62 1 21 60
M  V30 63 1 22 61
M  V30 64 1 22 62
M  V30 65 1 27 63
M  V30 66 1 27 64
M  V30 67 1 30 65
M  V30 68 1 30 66
M  V30 69 1 34 67
M  V30 70 1 38 68
M  V30 71 1 38 69
M  V30 72 1 38 70
M  V30 END BOND
M  V30 END CTAB
M  END
