
     RDKit          3D

  0  0  0  0  0  0  0  0  0  0999 V3000
M  V30 BEGIN CTAB
M  V30 COUNTS 51 52 0 0 0
M  V30 BEGIN ATOM
M  V30 1 O -5.30658 -2.97985 1.11364 0 CHG=-1
M  V30 2 N -6.12312 -2.15423 0.420429 0 CHG=1
M  V30 3 O -7.25677 -2.54282 0.0949363 0
M  V30 4 C -5.71783 -0.844707 0.0509448 0
M  V30 5 C -6.64248 0.152596 -0.13035 0
M  V30 6 C -6.28173 1.43219 -0.488195 0
M  V30 7 C -4.93945 1.66251 -0.655574 0
M  V30 8 C -3.98446 0.680345 -0.480242 0
M  V30 9 C -4.34075 -0.589629 -0.126062 0
M  V30 10 O -3.4936 -1.65075 0.0802165 0
M  V30 11 C -2.13295 -1.78131 -0.0146532 0
M  V30 12 C -1.52798 -1.58643 -1.38113 0
M  V30 13 O -0.166967 -1.75001 -1.35632 0
M  V30 14 C 0.558575 -0.911924 -0.568521 0
M  V30 15 C 2.068 -1.19937 -0.693012 0
M  V30 16 O 2.76485 -0.289292 0.155003 0
M  V30 17 C 4.14512 -0.303105 0.256036 0
M  V30 18 C 4.91438 -1.2107 -0.470111 0
M  V30 19 C 6.28377 -1.24532 -0.388203 0
M  V30 20 C 6.90563 -0.349776 0.441268 0
M  V30 21 C 6.17253 0.565866 1.1774 0
M  V30 22 C 4.79773 0.58627 1.08266 0
M  V30 23 N 4.08047 1.54168 1.85512 0 CHG=1
M  V30 24 O 4.53922 1.98702 2.93076 0
M  V30 25 O 2.85354 2.02114 1.46058 0 CHG=-1
M  V30 26 S 8.64111 -0.303424 0.623179 0
M  V30 27 O 9.00071 0.225061 2.0005 0
M  V30 28 O 9.25642 -1.65602 0.489816 0
M  V30 29 N 9.27799 0.78879 -0.558461 0
M  V30 30 S -7.47917 2.70062 -0.717925 0
M  V30 31 O -6.91401 3.68621 -1.72695 0
M  V30 32 O -8.75253 2.09475 -1.23287 0
M  V30 33 N -7.69572 3.46746 0.813687 0
M  V30 34 H -7.71223 -0.0492703 0.00805693 0
M  V30 35 H -4.61368 2.67308 -0.941542 0
M  V30 36 H -2.92655 0.90199 -0.603859 0
M  V30 37 H -1.86949 -2.81929 0.331558 0
M  V30 38 H -1.65654 -1.02235 0.667341 0
M  V30 39 H -1.72554 -0.595852 -1.80626 0
M  V30 40 H -2.00762 -2.35702 -2.06276 0
M  V30 41 H 0.279775 -1.0189 0.519821 0
M  V30 42 H 0.429101 0.135111 -0.911439 0
M  V30 43 H 2.33594 -1.00122 -1.73371 0
M  V30 44 H 2.25332 -2.23471 -0.352844 0
M  V30 45 H 4.43011 -1.9272 -1.13265 0
M  V30 46 H 6.90492 -1.93869 -0.940235 0
M  V30 47 H 6.67055 1.26779 1.82842 0
M  V30 48 H 8.59622 0.879249 -1.35248 0
M  V30 49 H 9.39152 1.74238 -0.128611 0
M  V30 50 H -8.08371 2.76431 1.45999 0
M  V30 51 H -8.20003 4.35674 0.763414 0
M  V30 END ATOM
M  V30 BEGIN BOND
M  V30 1 1 1 2
M  V30 2 2 2 3
M  V30 3 1 2 4
M  V30 4 2 4 5
M  V30 5 1 5 6
M  V30 6 2 6 7
M  V30 7 1 7 8
M  V30 8 2 8 9
M  V30 9 1 9 10
M  V30 10 1 10 11
M  V30 11 1 11 12
M  V30 12 1 12 13
M  V30 13 1 13 14
M  V30 14 1 14 15
M  V30 15 1 15 16
M  V30 16 1 16 17
M  V30 17 2 17 18
M  V30 18 1 18 19
M  V30 19 2 19 20
M  V30 20 1 20 21
M  V30 21 2 21 22
M  V30 22 1 22 23
M  V30 23 2 23 24
M  V30 24 1 23 25
M  V30 25 1 20 26
M  V30 26 2 26 27
M  V30 27 2 26 28
M  V30 28 1 26 29
M  V30 29 1 6 30
M  V30 30 2 30 31
M  V30 31 2 30 32
M  V30 32 1 30 33
M  V30 33 1 9 4
M  V30 34 1 22 17
M  V30 35 1 5 34
M  V30 36 1 7 35
M  V30 37 1 8 36
M  V30 38 1 11 37
M  V30 39 1 11 38
M  V30 40 1 12 39
M  V30 41 1 12 40
M  V30 42 1 14 41
M  V30 43 1 14 42
M  V30 44 1 15 43
M  V30 45 1 15 44
M  V30 46 1 18 45
M  V30 47 1 19 46
M  V30 48 1 21 47
M  V30 49 1 29 48
M  V30 50 1 29 49
M  V30 51 1 33 50
M  V30 52 1 33 51
M  V30 END BOND
M  V30 END CTAB
M  END
