
     RDKit          3D

  0  0  0  0  0  0  0  0  0  0999 V3000
M  V30 BEGIN CTAB
M  V30 COUNTS 67 70 0 0 0
M  V30 BEGIN ATOM
M  V30 1 N -13.52 -0.371883 0.160271 0
M  V30 2 C -12.1332 -0.122999 0.153452 0
M  V30 3 N -11.3091 -0.634003 -0.748277 0
M  V30 4 C -9.98497 -0.396347 -0.76656 0
M  V30 5 C -9.4504 0.426022 0.208159 0
M  V30 6 N -8.12438 0.659408 0.178368 0
M  V30 7 C -7.33239 0.115908 -0.766049 0
M  V30 8 C -5.87702 0.382568 -0.791139 0
M  V30 9 N -5.19833 -0.703961 -0.141725 0
M  V30 10 C -3.77377 -0.795008 -0.0271885 0
M  V30 11 C -3.2077 -1.84251 0.665296 0
M  V30 12 C -1.84164 -1.9476 0.772158 0
M  V30 13 C -0.971601 -1.034 0.20788 0
M  V30 14 C -1.57996 0.00851494 -0.482441 0
M  V30 15 C -2.93881 0.129303 -0.599611 0
M  V30 16 C 0.469491 -1.15175 0.345464 0
M  V30 17 O 0.948345 -1.84586 1.26769 0
M  V30 18 N 1.34146 -0.497305 -0.541705 0
M  V30 19 C 2.81585 -0.590043 -0.417025 0 CFG=1
M  V30 20 C 3.31282 -1.12608 -1.71772 0
M  V30 21 S 4.89413 -1.55995 -2.04925 0
M  V30 22 C 6.41054 -0.865224 -2.07449 0
M  V30 23 N 7.17328 -0.599086 -0.837195 0
M  V30 24 C 8.52581 -0.226989 -0.991638 0
M  V30 25 O 8.95285 -0.134385 -2.198 0
M  V30 26 C 9.42348 0.0226613 0.113504 0
M  V30 27 C 9.24389 0.863959 1.16495 0
M  V30 28 C 10.1348 0.913623 2.25504 0
M  V30 29 C 11.2432 0.10921 2.3083 0
M  V30 30 C 11.4411 -0.7439 1.24801 0
M  V30 31 C 10.579 -0.799166 0.187019 0
M  V30 32 C 8.18409 1.85788 1.12317 0
M  V30 33 O 7.97942 2.62875 2.28668 0
M  V30 34 O 7.44518 2.09389 0.173182 0
M  V30 35 C 3.20938 0.843066 -0.169853 0
M  V30 36 O 4.44754 1.35439 -0.439952 0
M  V30 37 O 2.36578 1.65374 0.312247 0
M  V30 38 C -7.87839 -0.704311 -1.73521 0
M  V30 39 N -9.21922 -0.951925 -1.71923 0
M  V30 40 C -10.2972 0.956606 1.14362 0
M  V30 41 N -9.82035 1.80207 2.17071 0
M  V30 42 N -11.6225 0.683153 1.11302 0
M  V30 43 H -13.8764 -1.31897 0.354725 0
M  V30 44 H -14.1578 0.431374 -0.0395915 0
M  V30 45 H -5.6439 1.36779 -0.308408 0
M  V30 46 H -5.49817 0.46808 -1.83297 0
M  V30 47 H -5.76139 -1.47391 0.269987 0
M  V30 48 H -3.88341 -2.58007 1.12061 0
M  V30 49 H -1.40139 -2.7839 1.3255 0
M  V30 50 H -0.899742 0.747479 -0.933965 0
M  V30 51 H -3.35351 0.955076 -1.14394 0
M  V30 52 H 0.951841 0.0675594 -1.31721 0
M  V30 53 H 3.14849 -1.19443 0.410131 0
M  V30 54 H 2.80857 -0.422768 -2.52479 0
M  V30 55 H 2.61549 -2.06515 -1.89184 0
M  V30 56 H 7.18089 -1.51421 -2.65411 0
M  V30 57 H 6.46766 0.162891 -2.58632 0
M  V30 58 H 6.6524 -0.709818 0.0469359 0
M  V30 59 H 9.97823 1.58062 3.08054 0
M  V30 60 H 11.9115 0.166082 3.15716 0
M  V30 61 H 12.3163 -1.38898 1.26263 0
M  V30 62 H 10.7174 -1.4599 -0.656263 0
M  V30 63 H 7.15914 3.15976 2.46304 0
M  V30 64 H 4.63448 2.31674 -0.627957 0
M  V30 65 H -7.25694 -1.13663 -2.48784 0
M  V30 66 H -10.4656 2.39768 2.74918 0
M  V30 67 H -8.80461 1.89045 2.42079 0
M  V30 END ATOM
M  V30 BEGIN BOND
M  V30 1 1 1 2
M  V30 2 2 2 3
M  V30 3 1 3 4
M  V30 4 2 4 5
M  V30 5 1 5 6
M  V30 6 2 6 7
M  V30 7 1 7 8
M  V30 8 1 8 9
M  V30 9 1 9 10
M  V30 10 2 10 11
M  V30 11 1 11 12
M  V30 12 2 12 13
M  V30 13 1 13 14
M  V30 14 2 14 15
M  V30 15 1 13 16
M  V30 16 2 16 17
M  V30 17 1 16 18
M  V30 18 1 18 19
M  V30 19 1 19 20
M  V30 20 1 20 21
M  V30 21 1 21 22
M  V30 22 1 22 23
M  V30 23 1 23 24
M  V30 24 2 24 25
M  V30 25 1 24 26
M  V30 26 2 26 27
M  V30 27 1 27 28
M  V30 28 2 28 29
M  V30 29 1 29 30
M  V30 30 2 30 31
M  V30 31 1 27 32
M  V30 32 1 32 33
M  V30 33 2 32 34
M  V30 34 1 19 35
M  V30 35 1 35 36
M  V30 36 2 35 37
M  V30 37 1 7 38
M  V30 38 2 38 39
M  V30 39 1 5 40
M  V30 40 1 40 41
M  V30 41 2 40 42
M  V30 42 1 42 2
M  V30 43 1 39 4
M  V30 44 1 15 10
M  V30 45 1 31 26
M  V30 46 1 1 43
M  V30 47 1 1 44
M  V30 48 1 8 45
M  V30 49 1 8 46
M  V30 50 1 9 47
M  V30 51 1 11 48
M  V30 52 1 12 49
M  V30 53 1 14 50
M  V30 54 1 15 51
M  V30 55 1 18 52
M  V30 56 1 19 53 CFG=1
M  V30 57 1 20 54
M  V30 58 1 20 55
M  V30 59 1 22 56
M  V30 60 1 22 57
M  V30 61 1 23 58
M  V30 62 1 28 59
M  V30 63 1 29 60
M  V30 64 1 30 61
M  V30 65 1 31 62
M  V30 66 1 33 63
M  V30 67 1 36 64
M  V30 68 1 38 65
M  V30 69 1 41 66
M  V30 70 1 41 67
M  V30 END BOND
M  V30 END CTAB
M  END
