
     RDKit          3D

  0  0  0  0  0  0  0  0  0  0999 V3000
M  V30 BEGIN CTAB
M  V30 COUNTS 57 59 0 0 0
M  V30 BEGIN ATOM
M  V30 1 O 2.00448 1.03578 -0.481126 0
M  V30 2 C 1.15457 0.173918 -0.434069 0
M  V30 3 N -0.180703 0.150684 -0.572335 0
M  V30 4 C -1.58619 0.180965 -0.726156 0
M  V30 5 C -2.22817 -1.18042 -0.606745 0
M  V30 6 C -1.74235 -2.1902 -1.60173 0
M  V30 7 C -2.48061 -3.47581 -1.25643 0
M  V30 8 C -1.80737 -4.01111 -0.00341508 0
M  V30 9 C -1.73101 -3.03333 1.09062 0
M  V30 10 C -2.25758 -1.68117 0.814572 0
M  V30 11 C -2.37465 1.15542 0.130456 0
M  V30 12 C -3.83517 1.09173 -0.232431 0
M  V30 13 C -4.69966 2.24654 0.0594411 0
M  V30 14 C -4.03923 3.54482 -0.323553 0
M  V30 15 C -2.78181 3.58179 0.53704 0
M  V30 16 C -1.7956 2.5535 0.0221373 0
M  V30 17 C 1.80736 -1.19221 -0.104468 0
M  V30 18 S 2.88065 -0.88997 1.29368 0
M  V30 19 C 4.42647 -0.192992 0.797305 0
M  V30 20 N 5.48587 -1.03853 0.610953 0
M  V30 21 C 6.70534 -0.665156 0.229103 0
M  V30 22 N 7.75744 -1.62388 0.077335 0
M  V30 23 C 6.93507 0.678857 -0.00242698 0
M  V30 24 C 5.87915 1.5495 0.182997 0
M  V30 25 N 4.65385 1.10012 0.577504 0
M  V30 26 N 6.12533 2.90582 -0.0836824 0
M  V30 27 H -0.129547 1.49207 -0.784698 0
M  V30 28 H -1.80933 0.51901 -1.7613 0
M  V30 29 H -3.28461 -1.02245 -0.909293 0
M  V30 30 H -2.0701 -1.86835 -2.61867 0
M  V30 31 H -0.689564 -2.40782 -1.54669 0
M  V30 32 H -2.33372 -4.23288 -2.04574 0
M  V30 33 H -3.52941 -3.28656 -0.975444 0
M  V30 34 H -0.781451 -4.29113 -0.327357 0
M  V30 35 H -2.29497 -4.94883 0.355716 0
M  V30 36 H -0.694357 -2.92536 1.5033 0
M  V30 37 H -2.29389 -3.4321 2.00986 0
M  V30 38 H -3.28694 -1.63429 1.26778 0
M  V30 39 H -1.6588 -0.949117 1.45663 0
M  V30 40 H -2.31922 0.900365 1.20173 0
M  V30 41 H -3.91446 0.868687 -1.34445 0
M  V30 42 H -4.25885 0.188104 0.258048 0
M  V30 43 H -5.5851 2.15597 -0.627235 0
M  V30 44 H -5.0122 2.33368 1.13892 0
M  V30 45 H -3.83394 3.60678 -1.38321 0
M  V30 46 H -4.64823 4.43874 0.00435796 0
M  V30 47 H -2.28202 4.54824 0.567491 0
M  V30 48 H -3.07243 3.2827 1.55945 0
M  V30 49 H -1.63172 2.79845 -1.03807 0
M  V30 50 H -0.915008 2.61259 0.677687 0
M  V30 51 H 1.06246 -1.9422 0.118639 0
M  V30 52 H 2.37736 -1.49364 -1.01687 0
M  V30 53 H 7.58705 -2.61924 0.295612 0
M  V30 54 H 8.67676 -1.2855 -0.2512 0
M  V30 55 H 7.91348 0.997109 -0.312743 0
M  V30 56 H 6.46569 3.53896 0.666511 0
M  V30 57 H 5.97157 3.28339 -1.04396 0
M  V30 END ATOM
M  V30 BEGIN BOND
M  V30 1 2 1 2
M  V30 2 1 2 3
M  V30 3 1 3 4
M  V30 4 1 4 5
M  V30 5 1 5 6
M  V30 6 1 6 7
M  V30 7 1 7 8
M  V30 8 1 8 9
M  V30 9 1 9 10
M  V30 10 1 4 11
M  V30 11 1 11 12
M  V30 12 1 12 13
M  V30 13 1 13 14
M  V30 14 1 14 15
M  V30 15 1 15 16
M  V30 16 1 2 17
M  V30 17 1 17 18
M  V30 18 1 18 19
M  V30 19 2 19 20
M  V30 20 1 20 21
M  V30 21 1 21 22
M  V30 22 2 21 23
M  V30 23 1 23 24
M  V30 24 2 24 25
M  V30 25 1 24 26
M  V30 26 1 10 5
M  V30 27 1 16 11
M  V30 28 1 25 19
M  V30 29 1 3 27
M  V30 30 1 4 28
M  V30 31 1 5 29
M  V30 32 1 6 30
M  V30 33 1 6 31
M  V30 34 1 7 32
M  V30 35 1 7 33
M  V30 36 1 8 34
M  V30 37 1 8 35
M  V30 38 1 9 36
M  V30 39 1 9 37
M  V30 40 1 10 38
M  V30 41 1 10 39
M  V30 42 1 11 40
M  V30 43 1 12 41
M  V30 44 1 12 42
M  V30 45 1 13 43
M  V30 46 1 13 44
M  V30 47 1 14 45
M  V30 48 1 14 46
M  V30 49 1 15 47
M  V30 50 1 15 48
M  V30 51 1 16 49
M  V30 52 1 16 50
M  V30 53 1 17 51
M  V30 54 1 17 52
M  V30 55 1 22 53
M  V30 56 1 22 54
M  V30 57 1 23 55
M  V30 58 1 26 56
M  V30 59 1 26 57
M  V30 END BOND
M  V30 END CTAB
M  END
