
     RDKit          3D

  0  0  0  0  0  0  0  0  0  0999 V3000
M  V30 BEGIN CTAB
M  V30 COUNTS 22 22 0 0 0
M  V30 BEGIN ATOM
M  V30 1 N 4.01035 -0.0211288 -0.0520884 0
M  V30 2 N 2.76763 0.611459 -0.151023 0
M  V30 3 C 1.74891 -0.150201 0.124578 0
M  V30 4 C 0.409353 0.387493 0.0583935 0
M  V30 5 C 0.110273 1.70029 -0.180325 0
M  V30 6 C -1.18626 2.17289 -0.287533 0
M  V30 7 C -2.2644 1.28077 -0.155137 0
M  V30 8 C -1.97108 -0.0441461 0.0833883 0
M  V30 9 C -0.664648 -0.475714 0.190543 0
M  V30 10 C -3.10252 -1.02939 0.186288 0
M  V30 11 F -3.6764 -1.09707 -1.08223 0
M  V30 12 F -3.97495 -0.622336 1.13604 0
M  V30 13 F -2.59913 -2.29538 0.456309 0
M  V30 14 N 1.88294 -1.5295 0.5094 0
M  V30 15 H 4.62804 0.168151 0.746541 0
M  V30 16 H 4.29342 -0.690426 -0.794566 0
M  V30 17 H 0.949274 2.37165 -0.299745 0
M  V30 18 H -1.42067 3.21685 -0.467744 0
M  V30 19 H -3.28453 1.62179 -0.222449 0
M  V30 20 H -0.49207 -1.54612 0.38532 0
M  V30 21 H 2.09799 -2.23388 -0.236252 0
M  V30 22 H 1.73848 -1.79606 1.51009 0
M  V30 END ATOM
M  V30 BEGIN BOND
M  V30 1 1 1 2
M  V30 2 2 2 3 CFG=2
M  V30 3 1 3 4
M  V30 4 2 4 5
M  V30 5 1 5 6
M  V30 6 2 6 7
M  V30 7 1 7 8
M  V30 8 2 8 9
M  V30 9 1 8 10
M  V30 10 1 10 11
M  V30 11 1 10 12
M  V30 12 1 10 13
M  V30 13 1 3 14
M  V30 14 1 9 4
M  V30 15 1 1 15
M  V30 16 1 1 16
M  V30 17 1 5 17
M  V30 18 1 6 18
M  V30 19 1 7 19
M  V30 20 1 9 20
M  V30 21 1 14 21
M  V30 22 1 14 22
M  V30 END BOND
M  V30 END CTAB
M  END
