
     RDKit          3D

  0  0  0  0  0  0  0  0  0  0999 V3000
M  V30 BEGIN CTAB
M  V30 COUNTS 39 40 0 0 0
M  V30 BEGIN ATOM
M  V30 1 O -0.802072 -3.73276 0.606022 0
M  V30 2 C -0.235711 -2.64362 0.319649 0
M  V30 3 N -0.925161 -1.44687 0.225509 0
M  V30 4 C -2.30167 -1.17838 0.40988 0
M  V30 5 C -3.25415 -2.10426 0.735879 0
M  V30 6 C -4.6077 -1.74352 0.899685 0
M  V30 7 C -4.99964 -0.435518 0.732137 0
M  V30 8 C -4.07075 0.509 0.40679 0
M  V30 9 C -2.77881 0.129991 0.256636 0
M  V30 10 S -4.6181 2.15848 0.204459 0
M  V30 11 O -3.83107 2.87176 -0.857166 0
M  V30 12 O -6.04772 2.14696 -0.235309 0
M  V30 13 N -4.52679 2.96894 1.71973 0
M  V30 14 C 1.21652 -2.73183 0.0909869 0
M  V30 15 O 1.81527 -1.4763 -0.230131 0
M  V30 16 C 3.17113 -1.38269 -0.4744 0
M  V30 17 O 3.81249 -2.47439 -0.390417 0
M  V30 18 C 3.89765 -0.177901 -0.808093 0
M  V30 19 C 5.27635 -0.260372 -1.02519 0
M  V30 20 C 6.04379 0.831828 -1.34594 0
M  V30 21 C 5.44524 2.07608 -1.46395 0
M  V30 22 C 4.09036 2.20774 -1.25949 0
M  V30 23 C 3.34547 1.07675 -0.935715 0
M  V30 24 N 1.95562 1.22497 -0.728316 0
M  V30 25 Cl 6.47126 3.43403 -1.8748 0
M  V30 26 H -0.3118 -0.592999 -0.0274644 0
M  V30 27 H -2.9908 -3.12931 0.874694 0
M  V30 28 H -5.29808 -2.53148 1.15685 0
M  V30 29 H -6.05475 -0.21777 0.871162 0
M  V30 30 H -2.06579 0.896092 -0.000447182 0
M  V30 31 H -3.79685 3.70361 1.71998 0
M  V30 32 H -5.45945 3.32131 2.03477 0
M  V30 33 H 1.44371 -3.41344 -0.766816 0
M  V30 34 H 1.66675 -3.14775 1.03635 0
M  V30 35 H 5.76103 -1.24165 -0.934231 0
M  V30 36 H 7.12005 0.7484 -1.51206 0
M  V30 37 H 3.65609 3.18759 -1.35866 0
M  V30 38 H 1.52242 1.24764 0.241178 0
M  V30 39 H 1.2657 1.32161 -1.51193 0
M  V30 END ATOM
M  V30 BEGIN BOND
M  V30 1 2 1 2
M  V30 2 1 2 3
M  V30 3 1 3 4
M  V30 4 2 4 5
M  V30 5 1 5 6
M  V30 6 2 6 7
M  V30 7 1 7 8
M  V30 8 2 8 9
M  V30 9 1 8 10
M  V30 10 2 10 11
M  V30 11 2 10 12
M  V30 12 1 10 13
M  V30 13 1 2 14
M  V30 14 1 14 15
M  V30 15 1 15 16
M  V30 16 2 16 17
M  V30 17 1 16 18
M  V30 18 2 18 19
M  V30 19 1 19 20
M  V30 20 2 20 21
M  V30 21 1 21 22
M  V30 22 2 22 23
M  V30 23 1 23 24
M  V30 24 1 21 25
M  V30 25 1 9 4
M  V30 26 1 23 18
M  V30 27 1 3 26
M  V30 28 1 5 27
M  V30 29 1 6 28
M  V30 30 1 7 29
M  V30 31 1 9 30
M  V30 32 1 13 31
M  V30 33 1 13 32
M  V30 34 1 14 33
M  V30 35 1 14 34
M  V30 36 1 19 35
M  V30 37 1 20 36
M  V30 38 1 22 37
M  V30 39 1 24 38
M  V30 40 1 24 39
M  V30 END BOND
M  V30 END CTAB
M  END
