
     RDKit          3D

  0  0  0  0  0  0  0  0  0  0999 V3000
M  V30 BEGIN CTAB
M  V30 COUNTS 20 20 0 0 0
M  V30 BEGIN ATOM
M  V30 1 N 2.96434 0.864322 -2.7379 0
M  V30 2 C 2.26025 0.596692 -1.85294 0
M  V30 3 C 1.37723 0.256246 -0.77375 0
M  V30 4 C 0.0546881 0.648354 -0.808415 0
M  V30 5 C -0.794937 0.322813 0.22625 0
M  V30 6 C -0.284968 -0.407855 1.30028 0
M  V30 7 C 1.04009 -0.785143 1.30651 0
M  V30 8 C 1.9096 -0.469391 0.279487 0
M  V30 9 N 3.27271 -0.877625 0.322672 0
M  V30 10 S -2.46671 0.822973 0.174215 0
M  V30 11 O -2.99137 1.1868 1.53138 0
M  V30 12 O -2.52892 2.06374 -0.687951 0
M  V30 13 N -3.46312 -0.361075 -0.591509 0
M  V30 14 H -0.372826 1.22008 -1.63411 0
M  V30 15 H -0.950015 -0.664243 2.11306 0
M  V30 16 H 1.40925 -1.36005 2.16812 0
M  V30 17 H 3.98429 -0.310054 0.832407 0
M  V30 18 H 3.62145 -1.74565 -0.142795 0
M  V30 19 H -3.75891 -1.11299 0.0510138 0
M  V30 20 H -4.28212 0.11206 -1.07602 0
M  V30 END ATOM
M  V30 BEGIN BOND
M  V30 1 3 1 2
M  V30 2 1 2 3
M  V30 3 2 3 4
M  V30 4 1 4 5
M  V30 5 2 5 6
M  V30 6 1 6 7
M  V30 7 2 7 8
M  V30 8 1 8 9
M  V30 9 1 5 10
M  V30 10 2 10 11
M  V30 11 2 10 12
M  V30 12 1 10 13
M  V30 13 1 8 3
M  V30 14 1 4 14
M  V30 15 1 6 15
M  V30 16 1 7 16
M  V30 17 1 9 17
M  V30 18 1 9 18
M  V30 19 1 13 19
M  V30 20 1 13 20
M  V30 END BOND
M  V30 END CTAB
M  END
