
     RDKit          3D

  0  0  0  0  0  0  0  0  0  0999 V3000
M  V30 BEGIN CTAB
M  V30 COUNTS 45 47 0 0 0
M  V30 BEGIN ATOM
M  V30 1 N -3.60054 4.4133 1.02148 0
M  V30 2 C -3.09471 3.12505 0.699139 0
M  V30 3 C -2.98504 2.20116 1.70703 0
M  V30 4 C -2.50038 0.940882 1.44261 0
M  V30 5 C -2.10814 0.559003 0.161635 0
M  V30 6 C -2.22668 1.49994 -0.831486 0
M  V30 7 C -2.71658 2.77957 -0.57354 0
M  V30 8 N -1.61833 -0.754456 -0.0429585 0
M  V30 9 C -2.5144 -1.8279 -0.284813 0
M  V30 10 C -3.31188 -1.86972 -1.40845 0
M  V30 11 C -4.17557 -2.92107 -1.61448 0
M  V30 12 C -4.28439 -3.9682 -0.721121 0
M  V30 13 C -3.48234 -3.90987 0.39233 0
M  V30 14 C -2.61281 -2.86644 0.614726 0
M  V30 15 C -0.203268 -0.967726 0.0041356 0
M  V30 16 O 0.216356 -2.12331 -0.178579 0
M  V30 17 N 0.665067 0.102192 0.249106 0
M  V30 18 C 2.05633 0.017375 0.309487 0
M  V30 19 C 2.74354 1.05332 0.980744 0
M  V30 20 C 4.11725 1.0573 1.06506 0
M  V30 21 C 4.87439 0.0612172 0.504089 0
M  V30 22 C 4.20664 -0.939617 -0.145114 0
M  V30 23 C 2.81119 -0.966183 -0.244892 0
M  V30 24 S 6.60779 0.0413491 0.599209 0
M  V30 25 O 7.07919 0.688556 1.87108 0
M  V30 26 O 7.08658 -1.3909 0.608071 0
M  V30 27 N 7.30185 0.906744 -0.728869 0
M  V30 28 H -3.10517 5.29054 0.746616 0
M  V30 29 H -4.51333 4.49731 1.56056 0
M  V30 30 H -3.2808 2.4656 2.71143 0
M  V30 31 H -2.42914 0.242262 2.26315 0
M  V30 32 H -1.93394 1.25213 -1.85111 0
M  V30 33 H -2.81751 3.53353 -1.33992 0
M  V30 34 H -3.24189 -1.04194 -2.13848 0
M  V30 35 H -4.80088 -2.94259 -2.50573 0
M  V30 36 H -4.981 -4.80349 -0.899587 0
M  V30 37 H -3.56666 -4.74358 1.10757 0
M  V30 38 H -1.99501 -2.87937 1.52985 0
M  V30 39 H 0.21201 1.08177 0.400288 0
M  V30 40 H 2.21112 1.86029 1.44001 0
M  V30 41 H 4.61641 1.8657 1.58679 0
M  V30 42 H 4.77334 -1.73929 -0.598254 0
M  V30 43 H 2.3818 -1.79852 -0.79481 0
M  V30 44 H 7.54498 1.86476 -0.401087 0
M  V30 45 H 6.59455 1.05332 -1.50717 0
M  V30 END ATOM
M  V30 BEGIN BOND
M  V30 1 1 1 2
M  V30 2 2 2 3
M  V30 3 1 3 4
M  V30 4 2 4 5
M  V30 5 1 5 6
M  V30 6 2 6 7
M  V30 7 1 5 8
M  V30 8 1 8 9
M  V30 9 2 9 10
M  V30 10 1 10 11
M  V30 11 2 11 12
M  V30 12 1 12 13
M  V30 13 2 13 14
M  V30 14 1 8 15
M  V30 15 2 15 16
M  V30 16 1 15 17
M  V30 17 1 17 18
M  V30 18 2 18 19
M  V30 19 1 19 20
M  V30 20 2 20 21
M  V30 21 1 21 22
M  V30 22 2 22 23
M  V30 23 1 21 24
M  V30 24 2 24 25
M  V30 25 2 24 26
M  V30 26 1 24 27
M  V30 27 1 7 2
M  V30 28 1 14 9
M  V30 29 1 23 18
M  V30 30 1 1 28
M  V30 31 1 1 29
M  V30 32 1 3 30
M  V30 33 1 4 31
M  V30 34 1 6 32
M  V30 35 1 7 33
M  V30 36 1 10 34
M  V30 37 1 11 35
M  V30 38 1 12 36
M  V30 39 1 13 37
M  V30 40 1 14 38
M  V30 41 1 17 39
M  V30 42 1 19 40
M  V30 43 1 20 41
M  V30 44 1 22 42
M  V30 45 1 23 43
M  V30 46 1 27 44
M  V30 47 1 27 45
M  V30 END BOND
M  V30 END CTAB
M  END
