
     RDKit          3D

  0  0  0  0  0  0  0  0  0  0999 V3000
M  V30 BEGIN CTAB
M  V30 COUNTS 67 71 0 0 0
M  V30 BEGIN ATOM
M  V30 1 C 6.04906 -3.19053 0.0379606 0
M  V30 2 C 5.28563 -2.42051 1.08977 0
M  V30 3 C 5.48072 -0.957088 0.798015 0
M  V30 4 N 6.46814 -0.186357 1.28266 0
M  V30 5 C 6.35075 1.06794 0.827242 0
M  V30 6 C 5.21682 1.0496 0.0145185 0
M  V30 7 N 4.69712 -0.192685 0.00671044 0
M  V30 8 C 3.52896 -0.569814 -0.724647 0
M  V30 9 C 2.28503 -0.393891 0.0827281 0
M  V30 10 C 1.06153 -0.777098 -0.650901 0
M  V30 11 O 1.2019 -1.19332 -1.82946 0
M  V30 12 N -0.247574 -0.700249 -0.0999104 0
M  V30 13 C -0.219067 -0.19492 1.27923 0
M  V30 14 C -1.68219 0.0880105 1.63491 0 CFG=1
M  V30 15 O -1.7346 0.319426 2.99397 0
M  V30 16 C -2.0192 1.36365 0.907682 0
M  V30 17 C -2.16852 1.22962 -0.562922 0 CFG=1
M  V30 18 C -2.40321 -0.06129 -1.17958 0 CFG=1
M  V30 19 C -1.32243 -1.11059 -0.9312 0
M  V30 20 N -3.64428 -0.731655 -1.14459 0
M  V30 21 C -3.81647 -1.86835 -1.87373 0
M  V30 22 N -5.03182 -2.34392 -1.71209 0
M  V30 23 C -5.6977 -1.5453 -0.878593 0
M  V30 24 C -4.82158 -0.546269 -0.533598 0
M  V30 25 N -5.20201 0.405438 0.291234 0
M  V30 26 C -6.42858 0.443693 0.819021 0
M  V30 27 N -6.83188 1.49351 1.72219 0
M  V30 28 N -7.30752 -0.531767 0.491744 0
M  V30 29 C -6.97484 -1.5275 -0.344554 0
M  V30 30 N -7.8783 -2.56444 -0.705075 0
M  V30 31 C -3.05715 2.31073 -1.16258 0
M  V30 32 O -0.866657 1.59281 -1.06702 0
M  V30 33 C 4.86105 2.23244 -0.591766 0
M  V30 34 C 5.58289 3.39327 -0.414041 0
M  V30 35 C 6.69603 3.38009 0.393007 0
M  V30 36 C 7.08023 2.2286 1.01054 0
M  V30 37 H 7.10565 -2.92368 0.123735 0
M  V30 38 H 5.89476 -4.24677 0.182918 0
M  V30 39 H 5.69597 -2.87959 -0.949122 0
M  V30 40 H 4.22785 -2.69506 1.11458 0
M  V30 41 H 5.7282 -2.63746 2.06609 0
M  V30 42 H 3.50349 0.0199734 -1.66593 0
M  V30 43 H 3.62404 -1.63962 -1.00242 0
M  V30 44 H 2.15082 0.656418 0.412137 0
M  V30 45 H 2.36174 -1.07911 0.967914 0
M  V30 46 H 0.295397 0.787633 1.31206 0
M  V30 47 H 0.223505 -0.928597 1.97163 0
M  V30 48 H -2.25287 -0.779136 1.31662 0
M  V30 49 H -2.47305 -0.188192 3.42689 0
M  V30 50 H -1.15859 2.05654 1.1899 0
M  V30 51 H -2.8613 1.918 1.42043 0
M  V30 52 H -2.25705 0.167109 -2.29931 0
M  V30 53 H -1.78036 -2.0074 -0.408249 0
M  V30 54 H -0.91269 -1.54894 -1.86354 0
M  V30 55 H -3.08809 -2.37621 -2.52821 0
M  V30 56 H -7.45464 1.2435 2.51142 0
M  V30 57 H -6.5304 2.47873 1.61976 0
M  V30 58 H -7.73677 -3.12622 -1.55897 0
M  V30 59 H -8.68875 -2.73884 -0.0784385 0
M  V30 60 H -3.59319 2.89313 -0.356006 0
M  V30 61 H -2.50267 3.10294 -1.70917 0
M  V30 62 H -3.76278 1.90039 -1.92359 0
M  V30 63 H -0.690646 2.53665 -0.823634 0
M  V30 64 H 3.98349 2.237 -1.22629 0
M  V30 65 H 5.24514 4.2867 -0.921783 0
M  V30 66 H 7.26067 4.29677 0.529474 0
M  V30 67 H 7.95284 2.22205 1.64208 0
M  V30 END ATOM
M  V30 BEGIN BOND
M  V30 1 1 1 2
M  V30 2 1 2 3
M  V30 3 2 3 4
M  V30 4 1 4 5
M  V30 5 2 5 6
M  V30 6 1 6 7
M  V30 7 1 7 8
M  V30 8 1 8 9
M  V30 9 1 9 10
M  V30 10 2 10 11
M  V30 11 1 10 12
M  V30 12 1 12 13
M  V30 13 1 13 14
M  V30 14 1 14 15
M  V30 15 1 14 16
M  V30 16 1 16 17
M  V30 17 1 17 18
M  V30 18 1 18 19
M  V30 19 1 18 20
M  V30 20 1 20 21
M  V30 21 2 21 22
M  V30 22 1 22 23
M  V30 23 2 23 24
M  V30 24 1 24 25
M  V30 25 2 25 26
M  V30 26 1 26 27
M  V30 27 1 26 28
M  V30 28 2 28 29
M  V30 29 1 29 30
M  V30 30 1 17 31
M  V30 31 1 17 32 CFG=3
M  V30 32 1 6 33
M  V30 33 2 33 34
M  V30 34 1 34 35
M  V30 35 2 35 36
M  V30 36 1 7 3
M  V30 37 1 19 12
M  V30 38 1 24 20
M  V30 39 1 36 5
M  V30 40 1 29 23
M  V30 41 1 1 37
M  V30 42 1 1 38
M  V30 43 1 1 39
M  V30 44 1 2 40
M  V30 45 1 2 41
M  V30 46 1 8 42
M  V30 47 1 8 43
M  V30 48 1 9 44
M  V30 49 1 9 45
M  V30 50 1 13 46
M  V30 51 1 13 47
M  V30 52 1 14 48 CFG=1
M  V30 53 1 15 49
M  V30 54 1 16 50
M  V30 55 1 16 51
M  V30 56 1 18 52 CFG=3
M  V30 57 1 19 53
M  V30 58 1 19 54
M  V30 59 1 21 55
M  V30 60 1 27 56
M  V30 61 1 27 57
M  V30 62 1 30 58
M  V30 63 1 30 59
M  V30 64 1 31 60
M  V30 65 1 31 61
M  V30 66 1 31 62
M  V30 67 1 32 63
M  V30 68 1 33 64
M  V30 69 1 34 65
M  V30 70 1 35 66
M  V30 71 1 36 67
M  V30 END BOND
M  V30 END CTAB
M  END
