
     RDKit          3D

  0  0  0  0  0  0  0  0  0  0999 V3000
M  V30 BEGIN CTAB
M  V30 COUNTS 25 25 0 0 0
M  V30 BEGIN ATOM
M  V30 1 C 1.22531 2.78059 -1.61519 0
M  V30 2 O 1.045 1.88177 -0.535731 0
M  V30 3 C 0.262871 0.746819 -0.645389 0
M  V30 4 C -0.394717 0.422524 -1.82988 0
M  V30 5 C -1.16234 -0.717354 -1.89247 0
M  V30 6 N -1.85875 -1.09953 -3.08026 0
M  V30 7 C -1.29264 -1.54506 -0.802935 0
M  V30 8 C -0.623852 -1.20229 0.379746 0
M  V30 9 C 0.149479 -0.0676752 0.465677 0
M  V30 10 N 0.830874 0.31233 1.65095 0
M  V30 11 S 1.17678 -0.885114 2.84562 0
M  V30 12 O 1.48833 -2.16613 2.13243 0
M  V30 13 O 2.37411 -0.495651 3.67235 0
M  V30 14 N -0.223574 -1.07017 3.81824 0
M  V30 15 H 1.47927 3.81052 -1.24122 0
M  V30 16 H 2.04673 2.42253 -2.27584 0
M  V30 17 H 0.295454 2.92016 -2.21289 0
M  V30 18 H -0.319016 1.03538 -2.69157 0
M  V30 19 H -1.39432 -1.70604 -3.77471 0
M  V30 20 H -2.83589 -0.781771 -3.27302 0
M  V30 21 H -1.88919 -2.45697 -0.806356 0
M  V30 22 H -0.736579 -1.85473 1.23359 0
M  V30 23 H 1.1211 1.32396 1.79406 0
M  V30 24 H 0.0076147 -1.425 4.78318 0
M  V30 25 H -0.772071 -0.18311 3.90161 0
M  V30 END ATOM
M  V30 BEGIN BOND
M  V30 1 1 1 2
M  V30 2 1 2 3
M  V30 3 2 3 4
M  V30 4 1 4 5
M  V30 5 1 5 6
M  V30 6 2 5 7
M  V30 7 1 7 8
M  V30 8 2 8 9
M  V30 9 1 9 10
M  V30 10 1 10 11
M  V30 11 2 11 12
M  V30 12 2 11 13
M  V30 13 1 11 14
M  V30 14 1 9 3
M  V30 15 1 1 15
M  V30 16 1 1 16
M  V30 17 1 1 17
M  V30 18 1 4 18
M  V30 19 1 6 19
M  V30 20 1 6 20
M  V30 21 1 7 21
M  V30 22 1 8 22
M  V30 23 1 10 23
M  V30 24 1 14 24
M  V30 25 1 14 25
M  V30 END BOND
M  V30 END CTAB
M  END
