
     RDKit          3D

  0  0  0  0  0  0  0  0  0  0999 V3000
M  V30 BEGIN CTAB
M  V30 COUNTS 41 42 0 0 0
M  V30 BEGIN ATOM
M  V30 1 N 2.45286 -1.79974 -1.3468 0
M  V30 2 C 2.14962 -0.741501 -0.433606 0
M  V30 3 C 3.39339 -0.0814416 0.0112903 0
M  V30 4 C 3.63786 0.241197 1.32934 0
M  V30 5 C 4.80379 0.857986 1.73766 0
M  V30 6 C 5.7659 1.16926 0.814117 0
M  V30 7 C 5.53642 0.853058 -0.508772 0
M  V30 8 C 4.37653 0.239011 -0.917969 0
M  V30 9 C 1.17652 0.27253 -1.03583 0
M  V30 10 C -0.0989458 -0.356221 -1.40583 0
M  V30 11 O -0.11024 -0.987117 -2.51441 0
M  V30 12 N -1.26739 -0.303985 -0.634066 0
M  V30 13 C -1.34812 0.384882 0.631075 0
M  V30 14 C -2.76306 0.945483 0.730589 0
M  V30 15 N -3.65054 -0.161808 0.931537 0
M  V30 16 C -3.39501 -1.28094 0.0801191 0
M  V30 17 C -2.48283 -0.957314 -1.08184 0
M  V30 18 S -5.30955 0.288059 0.879885 0
M  V30 19 O -6.12362 -0.975001 1.07394 0
M  V30 20 O -5.61319 1.25812 1.97589 0
M  V30 21 N -5.74413 0.946617 -0.658198 0
M  V30 22 H 2.67307 -1.44104 -2.29761 0
M  V30 23 H 3.26034 -2.33329 -0.954667 0
M  V30 24 H 1.65575 -1.15197 0.464774 0
M  V30 25 H 2.90668 0.015425 2.09677 0
M  V30 26 H 4.99679 1.11324 2.78042 0
M  V30 27 H 6.68243 1.64413 1.0735 0
M  V30 28 H 6.28504 1.09147 -1.2523 0
M  V30 29 H 4.26278 0.0201534 -1.97052 0
M  V30 30 H 1.6995 0.662499 -1.95804 0
M  V30 31 H 1.09001 1.13915 -0.361948 0
M  V30 32 H -0.587281 1.14298 0.792301 0
M  V30 33 H -1.28673 -0.389803 1.45197 0
M  V30 34 H -2.82675 1.65156 1.57409 0
M  V30 35 H -2.96409 1.42542 -0.259824 0
M  V30 36 H -4.31176 -1.72536 -0.33746 0
M  V30 37 H -2.87529 -2.05529 0.693997 0
M  V30 38 H -3.00591 -0.369908 -1.8608 0
M  V30 39 H -2.16925 -1.92839 -1.52243 0
M  V30 40 H -4.93542 1.51806 -1.03934 0
M  V30 41 H -5.9362 0.159819 -1.34502 0
M  V30 END ATOM
M  V30 BEGIN BOND
M  V30 1 1 1 2
M  V30 2 1 2 3
M  V30 3 2 3 4
M  V30 4 1 4 5
M  V30 5 2 5 6
M  V30 6 1 6 7
M  V30 7 2 7 8
M  V30 8 1 2 9
M  V30 9 1 9 10
M  V30 10 2 10 11
M  V30 11 1 10 12
M  V30 12 1 12 13
M  V30 13 1 13 14
M  V30 14 1 14 15
M  V30 15 1 15 16
M  V30 16 1 16 17
M  V30 17 1 15 18
M  V30 18 2 18 19
M  V30 19 2 18 20
M  V30 20 1 18 21
M  V30 21 1 8 3
M  V30 22 1 17 12
M  V30 23 1 1 22
M  V30 24 1 1 23
M  V30 25 1 2 24
M  V30 26 1 4 25
M  V30 27 1 5 26
M  V30 28 1 6 27
M  V30 29 1 7 28
M  V30 30 1 8 29
M  V30 31 1 9 30
M  V30 32 1 9 31
M  V30 33 1 13 32
M  V30 34 1 13 33
M  V30 35 1 14 34
M  V30 36 1 14 35
M  V30 37 1 16 36
M  V30 38 1 16 37
M  V30 39 1 17 38
M  V30 40 1 17 39
M  V30 41 1 21 40
M  V30 42 1 21 41
M  V30 END BOND
M  V30 END CTAB
M  END
