
     RDKit          3D

  0  0  0  0  0  0  0  0  0  0999 V3000
M  V30 BEGIN CTAB
M  V30 COUNTS 39 41 0 0 0
M  V30 BEGIN ATOM
M  V30 1 N 5.9877 2.33534 -0.691085 0
M  V30 2 C 5.53116 1.2365 0.0758403 0
M  V30 3 N 4.44829 1.32589 0.859173 0
M  V30 4 C 4.04232 0.233671 1.56893 0
M  V30 5 N 2.89036 0.313939 2.40424 0
M  V30 6 N 1.59889 0.318145 1.84441 0
M  V30 7 C 1.45625 0.054576 0.563536 0
M  V30 8 C 0.151826 0.0426178 -0.0823132 0
M  V30 9 C 0.0646034 -0.26757 -1.41526 0
M  V30 10 C -1.1564 -0.30096 -2.06094 0
M  V30 11 C -2.28828 -0.0137525 -1.32696 0
M  V30 12 C -2.25101 0.302497 0.00866693 0
M  V30 13 C -0.995008 0.324821 0.617495 0
M  V30 14 O -3.39757 0.590588 0.761496 0
M  V30 15 C -4.60646 0.190463 0.253413 0
M  V30 16 C -5.07608 -1.04136 0.689209 0
M  V30 17 C -6.27909 -1.50295 0.220181 0
M  V30 18 C -6.99611 -0.742365 -0.670397 0
M  V30 19 C -6.54954 0.492244 -1.12236 0
M  V30 20 C -5.32465 0.932887 -0.626681 0
M  V30 21 N 4.72794 -0.895219 1.47051 0
M  V30 22 C 5.81919 -1.0222 0.696014 0
M  V30 23 N 6.20354 0.0786389 -0.00122197 0
M  V30 24 N 6.54259 -2.24158 0.601438 0
M  V30 25 H 6.72553 3.00401 -0.449487 0
M  V30 26 H 5.49578 2.46839 -1.61622 0
M  V30 27 H 3.00899 0.364008 3.41598 0
M  V30 28 H 2.35274 -0.157137 0.00157346 0
M  V30 29 H 0.951613 -0.498802 -1.99845 0
M  V30 30 H -1.24844 -0.54198 -3.10684 0
M  V30 31 H -3.22628 -0.0472402 -1.85664 0
M  V30 32 H -0.9701 0.577809 1.67206 0
M  V30 33 H -4.5102 -1.6494 1.39603 0
M  V30 34 H -6.64706 -2.45162 0.553397 0
M  V30 35 H -7.94036 -1.16391 -1.00466 0
M  V30 36 H -7.15488 1.02506 -1.81213 0
M  V30 37 H -4.97095 1.90758 -0.98855 0
M  V30 38 H 6.08303 -3.11187 0.932868 0
M  V30 39 H 7.5061 -2.3311 0.223731 0
M  V30 END ATOM
M  V30 BEGIN BOND
M  V30 1 1 1 2
M  V30 2 2 2 3
M  V30 3 1 3 4
M  V30 4 1 4 5
M  V30 5 1 5 6
M  V30 6 2 6 7 CFG=2
M  V30 7 1 7 8
M  V30 8 2 8 9
M  V30 9 1 9 10
M  V30 10 2 10 11
M  V30 11 1 11 12
M  V30 12 2 12 13
M  V30 13 1 12 14
M  V30 14 1 14 15
M  V30 15 2 15 16
M  V30 16 1 16 17
M  V30 17 2 17 18
M  V30 18 1 18 19
M  V30 19 2 19 20
M  V30 20 2 4 21
M  V30 21 1 21 22
M  V30 22 2 22 23
M  V30 23 1 22 24
M  V30 24 1 23 2
M  V30 25 1 13 8
M  V30 26 1 20 15
M  V30 27 1 1 25
M  V30 28 1 1 26
M  V30 29 1 5 27
M  V30 30 1 7 28
M  V30 31 1 9 29
M  V30 32 1 10 30
M  V30 33 1 11 31
M  V30 34 1 13 32
M  V30 35 1 16 33
M  V30 36 1 17 34
M  V30 37 1 18 35
M  V30 38 1 19 36
M  V30 39 1 20 37
M  V30 40 1 24 38
M  V30 41 1 24 39
M  V30 END BOND
M  V30 END CTAB
M  END
