
     RDKit          3D

  0  0  0  0  0  0  0  0  0  0999 V3000
M  V30 BEGIN CTAB
M  V30 COUNTS 64 69 0 0 0
M  V30 BEGIN ATOM
M  V30 1 N -0.182743 -2.5333 0.692735 0
M  V30 2 C 0.00324249 -1.44287 0.272556 0
M  V30 3 C 0.169108 -0.104163 -0.224366 0
M  V30 4 C -0.914287 0.78273 -0.110174 0
M  V30 5 N -0.77288 2.03658 -0.577944 0
M  V30 6 C 0.350647 2.47844 -1.14632 0
M  V30 7 C 1.43761 1.65509 -1.28253 0
M  V30 8 C 1.31971 0.33635 -0.80229 0
M  V30 9 C 2.41495 -0.544261 -0.922192 0
M  V30 10 C 2.63814 -1.93597 -0.546025 0
M  V30 11 C 4.06113 -2.17661 -0.99865 0
M  V30 12 O 4.62703 -3.29152 -0.840568 0
M  V30 13 N 4.5924 -1.01204 -1.58375 0
M  V30 14 C 3.54406 -0.0224598 -1.51846 0
M  V30 15 N 3.61912 1.24342 -1.96518 0
M  V30 16 C 2.60499 2.10054 -1.86796 0
M  V30 17 N 2.68609 3.43396 -2.33904 0
M  V30 18 C 5.93188 -0.838363 -2.14365 0
M  V30 19 C 6.82259 -0.358071 -1.02321 0
M  V30 20 C 8.15865 -0.0669898 -1.09946 0
M  V30 21 C 8.76138 0.346324 0.0200907 0
M  V30 22 C 7.99677 0.445344 1.15059 0
M  V30 23 S 6.45469 -0.0441333 0.610443 0
M  V30 24 N 0.455921 3.8204 -1.62996 0
M  V30 25 N -2.13319 0.37212 0.491254 0
M  V30 26 C -2.48148 -0.0756847 1.81521 0
M  V30 27 C -3.89717 0.451866 2.06187 0
M  V30 28 C -4.20404 1.22946 0.78405 0
M  V30 29 C -3.42917 0.34939 -0.214979 0
M  V30 30 C -3.91065 -1.04979 -0.213694 0
M  V30 31 C -5.01638 -1.35872 0.743236 0
M  V30 32 C -4.91696 -0.676256 2.07686 0
M  V30 33 C -6.38523 -1.11638 0.131358 0
M  V30 34 C -4.9496 -2.8677 1.02345 0
M  V30 35 C -4.0002 1.28436 3.29204 0
M  V30 36 H 2.6949 -2.1391 0.541485 0
M  V30 37 H 2.07185 -2.68673 -1.1366 0
M  V30 38 H 2.42732 3.67131 -3.29858 0
M  V30 39 H 3.02163 4.16676 -1.68634 0
M  V30 40 H 6.32337 -1.77013 -2.5642 0
M  V30 41 H 5.8725 -0.0047622 -2.87802 0
M  V30 42 H 8.6914 -0.181371 -2.07287 0
M  V30 43 H 9.84153 0.609592 0.0727736 0
M  V30 44 H 8.33279 0.768845 2.15564 0
M  V30 45 H 0.182652 4.01995 -2.62313 0
M  V30 46 H 0.793423 4.57067 -0.990417 0
M  V30 47 H -2.59957 -1.17588 1.78414 0
M  V30 48 H -1.77948 0.267258 2.58833 0
M  V30 49 H -5.26479 1.27725 0.554909 0
M  V30 50 H -3.71228 2.21013 0.768123 0
M  V30 51 H -3.38382 0.852964 -1.1794 0
M  V30 52 H -3.09447 -1.79012 -0.0938579 0
M  V30 53 H -4.32248 -1.25881 -1.2461 0
M  V30 54 H -5.88146 -0.213462 2.34462 0
M  V30 55 H -4.62826 -1.3514 2.90263 0
M  V30 56 H -6.92272 -2.04028 -0.105148 0
M  V30 57 H -7.0156 -0.500496 0.813459 0
M  V30 58 H -6.25378 -0.53455 -0.805136 0
M  V30 59 H -5.81683 -3.20175 1.61443 0
M  V30 60 H -4.97801 -3.37523 0.0468891 0
M  V30 61 H -3.9896 -3.12726 1.51024 0
M  V30 62 H -2.997 1.66751 3.58221 0
M  V30 63 H -4.64603 2.17075 3.17118 0
M  V30 64 H -4.42325 0.649366 4.11339 0
M  V30 END ATOM
M  V30 BEGIN BOND
M  V30 1 3 1 2
M  V30 2 1 2 3
M  V30 3 2 3 4
M  V30 4 1 4 5
M  V30 5 2 5 6
M  V30 6 1 6 7
M  V30 7 2 7 8
M  V30 8 1 8 9
M  V30 9 1 9 10
M  V30 10 1 10 11
M  V30 11 2 11 12
M  V30 12 1 11 13
M  V30 13 1 13 14
M  V30 14 1 14 15
M  V30 15 2 15 16
M  V30 16 1 16 17
M  V30 17 1 13 18
M  V30 18 1 18 19
M  V30 19 2 19 20
M  V30 20 1 20 21
M  V30 21 2 21 22
M  V30 22 1 22 23
M  V30 23 1 6 24
M  V30 24 1 4 25
M  V30 25 1 25 26
M  V30 26 1 26 27
M  V30 27 1 27 28
M  V30 28 1 28 29
M  V30 29 1 29 30
M  V30 30 1 30 31
M  V30 31 1 31 32
M  V30 32 1 31 33
M  V30 33 1 31 34
M  V30 34 1 27 35
M  V30 35 1 8 3
M  V30 36 2 14 9
M  V30 37 1 23 19
M  V30 38 1 29 25
M  V30 39 1 16 7
M  V30 40 1 32 27
M  V30 41 1 10 36
M  V30 42 1 10 37
M  V30 43 1 17 38
M  V30 44 1 17 39
M  V30 45 1 18 40
M  V30 46 1 18 41
M  V30 47 1 20 42
M  V30 48 1 21 43
M  V30 49 1 22 44
M  V30 50 1 24 45
M  V30 51 1 24 46
M  V30 52 1 26 47
M  V30 53 1 26 48
M  V30 54 1 28 49
M  V30 55 1 28 50
M  V30 56 1 29 51
M  V30 57 1 30 52
M  V30 58 1 30 53
M  V30 59 1 32 54
M  V30 60 1 32 55
M  V30 61 1 33 56
M  V30 62 1 33 57
M  V30 63 1 33 58
M  V30 64 1 34 59
M  V30 65 1 34 60
M  V30 66 1 34 61
M  V30 67 1 35 62
M  V30 68 1 35 63
M  V30 69 1 35 64
M  V30 END BOND
M  V30 END CTAB
M  END
