
     RDKit          3D

  0  0  0  0  0  0  0  0  0  0999 V3000
M  V30 BEGIN CTAB
M  V30 COUNTS 48 52 0 0 0
M  V30 BEGIN ATOM
M  V30 1 N 6.86742 -0.184726 1.24486 0
M  V30 2 C 6.20008 -1.30689 0.685179 0
M  V30 3 N 6.75102 -2.51089 0.406864 0
M  V30 4 O 5.80531 -3.28073 -0.10104 0
M  V30 5 C 4.67709 -2.62722 -0.160479 0
M  V30 6 C 4.87095 -1.35272 0.331386 0
M  V30 7 C 3.7895 -0.514364 0.346952 0
M  V30 8 C 2.5233 -0.819812 -0.0817959 0
M  V30 9 C 2.36347 -2.1254 -0.574685 0
M  V30 10 C 3.41858 -3.00242 -0.610409 0
M  V30 11 C 1.39253 0.0990493 -0.0920659 0
M  V30 12 N 0.20644 -0.0777773 0.53526 0
M  V30 13 N -0.610739 0.914714 0.299361 0
M  V30 14 C -1.96368 1.1092 0.781105 0
M  V30 15 C -2.96486 0.507286 -0.180991 0
M  V30 16 N -4.30553 0.69526 0.266264 0
M  V30 17 C -4.68369 -0.0257569 1.43781 0
M  V30 18 C -4.84144 -1.5005 1.14237 0
M  V30 19 O -4.99642 -1.78421 -0.190056 0
M  V30 20 C -5.77899 -0.888606 -0.885803 0
M  V30 21 C -5.29964 0.536816 -0.747924 0
M  V30 22 C 0.0306624 1.80115 -0.515521 0
M  V30 23 N -0.388457 2.97126 -1.04932 0
M  V30 24 C 0.461535 3.63915 -1.84371 0
M  V30 25 N 1.69092 3.19268 -2.12149 0
M  V30 26 C 2.11759 2.02973 -1.59486 0
M  V30 27 N 3.41879 1.52944 -1.91619 0
M  V30 28 C 1.2979 1.28871 -0.766374 0
M  V30 29 H 6.34647 0.610944 1.67082 0
M  V30 30 H 7.90651 -0.124038 1.2461 0
M  V30 31 H 3.98758 0.48237 0.768995 0
M  V30 32 H 1.37768 -2.39746 -0.921308 0
M  V30 33 H 3.2702 -4.00711 -0.995473 0
M  V30 34 H -2.18547 2.16814 0.929772 0
M  V30 35 H -2.1068 0.604306 1.77081 0
M  V30 36 H -2.71356 -0.569828 -0.282172 0
M  V30 37 H -2.8498 1.04363 -1.14809 0
M  V30 38 H -5.69459 0.370989 1.73868 0
M  V30 39 H -4.00753 0.120814 2.29922 0
M  V30 40 H -5.65732 -1.93516 1.77847 0
M  V30 41 H -3.90744 -1.98886 1.48943 0
M  V30 42 H -5.68235 -1.14564 -1.97249 0
M  V30 43 H -6.85948 -0.995323 -0.659212 0
M  V30 44 H -6.19361 1.14621 -0.447851 0
M  V30 45 H -4.97357 0.980577 -1.72069 0
M  V30 46 H 0.133063 4.58577 -2.27906 0
M  V30 47 H 3.5332 0.707404 -2.54421 0
M  V30 48 H 4.22717 2.02984 -1.48698 0
M  V30 END ATOM
M  V30 BEGIN BOND
M  V30 1 1 1 2
M  V30 2 2 2 3
M  V30 3 1 3 4
M  V30 4 1 4 5
M  V30 5 2 5 6
M  V30 6 1 6 7
M  V30 7 2 7 8
M  V30 8 1 8 9
M  V30 9 2 9 10
M  V30 10 1 8 11
M  V30 11 2 11 12
M  V30 12 1 12 13
M  V30 13 1 13 14
M  V30 14 1 14 15
M  V30 15 1 15 16
M  V30 16 1 16 17
M  V30 17 1 17 18
M  V30 18 1 18 19
M  V30 19 1 19 20
M  V30 20 1 20 21
M  V30 21 1 13 22
M  V30 22 2 22 23
M  V30 23 1 23 24
M  V30 24 2 24 25
M  V30 25 1 25 26
M  V30 26 1 26 27
M  V30 27 2 26 28
M  V30 28 1 6 2
M  V30 29 1 28 11
M  V30 30 1 10 5
M  V30 31 1 21 16
M  V30 32 1 28 22
M  V30 33 1 1 29
M  V30 34 1 1 30
M  V30 35 1 7 31
M  V30 36 1 9 32
M  V30 37 1 10 33
M  V30 38 1 14 34
M  V30 39 1 14 35
M  V30 40 1 15 36
M  V30 41 1 15 37
M  V30 42 1 17 38
M  V30 43 1 17 39
M  V30 44 1 18 40
M  V30 45 1 18 41
M  V30 46 1 20 42
M  V30 47 1 20 43
M  V30 48 1 21 44
M  V30 49 1 21 45
M  V30 50 1 24 46
M  V30 51 1 27 47
M  V30 52 1 27 48
M  V30 END BOND
M  V30 END CTAB
M  END
