
     RDKit          3D

  0  0  0  0  0  0  0  0  0  0999 V3000
M  V30 BEGIN CTAB
M  V30 COUNTS 32 33 0 0 0
M  V30 BEGIN ATOM
M  V30 1 C 2.68977 -0.723536 1.43138 0
M  V30 2 C 1.91148 -0.435609 0.16139 0
M  V30 3 C 2.80503 -0.388323 -1.04773 0
M  V30 4 O 1.3296 0.831972 0.283867 0
M  V30 5 C 0.031159 0.655896 -0.119516 0 CFG=1
M  V30 6 C -0.223836 -0.716297 0.523581 0 CFG=2
M  V30 7 O 0.898717 -1.35926 0.0737185 0
M  V30 8 C -1.52052 -1.30142 0.136292 0 CFG=2
M  V30 9 N -1.50375 -2.72564 0.313807 0
M  V30 10 C -2.00117 -0.885727 -1.24366 0
M  V30 11 S -2.88961 0.671563 -1.22066 0
M  V30 12 C -1.77683 2.062 -0.894816 0
M  V30 13 C -0.933904 1.68008 0.329243 0 CFG=2
M  V30 14 N -0.307879 2.81102 0.930445 0
M  V30 15 H 2.49596 -1.77805 1.7765 0
M  V30 16 H 2.33904 -0.0747744 2.25752 0
M  V30 17 H 3.7601 -0.614001 1.2406 0
M  V30 18 H 2.25851 0.202798 -1.83656 0
M  V30 19 H 3.07167 -1.36184 -1.4552 0
M  V30 20 H 3.68499 0.245838 -0.771229 0
M  V30 21 H 0.0376796 0.478681 -1.21583 0
M  V30 22 H -0.16834 -0.618157 1.62625 0
M  V30 23 H -2.30185 -0.903475 0.849945 0
M  V30 24 H -1.85539 -2.98332 1.284 0
M  V30 25 H -2.08771 -3.25371 -0.353931 0
M  V30 26 H -2.74171 -1.68235 -1.54794 0
M  V30 27 H -1.20006 -0.937933 -2.00465 0
M  V30 28 H -2.32304 2.98999 -0.74883 0
M  V30 29 H -1.0255 2.17891 -1.72524 0
M  V30 30 H -1.63916 1.21252 1.07232 0
M  V30 31 H -0.931927 3.26179 1.63123 0
M  V30 32 H 0.118473 3.46037 0.263697 0
M  V30 END ATOM
M  V30 BEGIN BOND
M  V30 1 1 1 2
M  V30 2 1 2 3
M  V30 3 1 2 4
M  V30 4 1 4 5
M  V30 5 1 5 6
M  V30 6 1 6 7
M  V30 7 1 6 8
M  V30 8 1 8 9
M  V30 9 1 8 10
M  V30 10 1 10 11
M  V30 11 1 11 12
M  V30 12 1 12 13
M  V30 13 1 13 14
M  V30 14 1 7 2
M  V30 15 1 13 5
M  V30 16 1 1 15
M  V30 17 1 1 16
M  V30 18 1 1 17
M  V30 19 1 3 18
M  V30 20 1 3 19
M  V30 21 1 3 20
M  V30 22 1 5 21 CFG=3
M  V30 23 1 6 22 CFG=1
M  V30 24 1 8 23 CFG=1
M  V30 25 1 9 24
M  V30 26 1 9 25
M  V30 27 1 10 26
M  V30 28 1 10 27
M  V30 29 1 12 28
M  V30 30 1 12 29
M  V30 31 1 13 30 CFG=1
M  V30 32 1 14 31
M  V30 33 1 14 32
M  V30 END BOND
M  V30 END CTAB
M  END
