
     RDKit          3D

  0  0  0  0  0  0  0  0  0  0999 V3000
M  V30 BEGIN CTAB
M  V30 COUNTS 47 50 0 0 0
M  V30 BEGIN ATOM
M  V30 1 C -2.90705 -1.44238 1.3835 0
M  V30 2 C -2.9514 -0.581099 0.179248 0
M  V30 3 C -2.98721 -1.50324 -1.09198 0
M  V30 4 N -4.28474 0.027719 0.150351 0
M  V30 5 C -4.56997 1.1832 -0.276143 0
M  V30 6 N -5.92201 1.67602 -0.252897 0
M  V30 7 N -3.52337 2.02532 -0.685673 0
M  V30 8 C -2.32402 1.64918 -0.623722 0
M  V30 9 N -1.27987 2.52514 -1.06448 0
M  V30 10 N -1.90527 0.356636 -0.0328245 0
M  V30 11 O -0.66748 0.204683 0.151971 0
M  V30 12 C 0.106927 -0.567662 0.863765 0
M  V30 13 C 1.52397 -0.246132 0.393388 0
M  V30 14 C 1.98377 -1.19181 -0.512104 0
M  V30 15 C 1.14933 -2.18898 -1.04738 0
M  V30 16 C 1.60488 -3.06224 -1.99683 0
M  V30 17 C 2.89835 -2.95002 -2.42161 0
M  V30 18 C 3.74827 -1.96409 -1.9034 0
M  V30 19 C 3.28461 -1.082 -0.946215 0
M  V30 20 C 4.07425 -0.0463473 -0.46681 0
M  V30 21 C 3.56537 0.883357 0.446598 0
M  V30 22 C 4.35268 1.87649 0.956637 0
M  V30 23 C 3.89819 2.78926 1.899 0
M  V30 24 C 2.57568 2.68695 2.3405 0
M  V30 25 C 1.7843 1.68462 1.82407 0
M  V30 26 C 2.23774 0.772182 0.887025 0
M  V30 27 H -3.9266 -1.97948 1.40044 0
M  V30 28 H -2.12831 -2.20156 1.42661 0
M  V30 29 H -2.88015 -0.790803 2.28153 0
M  V30 30 H -3.1032 -0.804081 -1.93259 0
M  V30 31 H -2.13172 -2.15466 -1.12202 0
M  V30 32 H -3.95833 -2.03977 -0.983866 0
M  V30 33 H -6.13904 2.68287 -0.142906 0
M  V30 34 H -6.70557 0.991674 -0.366665 0
M  V30 35 H -1.03 3.41348 -0.593936 0
M  V30 36 H -0.769378 2.17581 -1.93241 0
M  V30 37 H 0.0805952 -0.127378 1.96027 0
M  V30 38 H -0.0489198 -1.62031 0.959614 0
M  V30 39 H 0.139139 -2.29211 -0.728259 0
M  V30 40 H 0.964766 -3.83835 -2.43773 0
M  V30 41 H 3.2643 -3.61809 -3.18137 0
M  V30 42 H 4.76411 -1.84999 -2.22798 0
M  V30 43 H 5.11408 0.0685747 -0.769974 0
M  V30 44 H 5.39456 1.90638 0.56518 0
M  V30 45 H 4.59866 3.52732 2.23499 0
M  V30 46 H 2.26591 3.41598 3.0749 0
M  V30 47 H 0.769167 1.61974 2.1694 0
M  V30 END ATOM
M  V30 BEGIN BOND
M  V30 1 1 1 2
M  V30 2 1 2 3
M  V30 3 1 2 4
M  V30 4 2 4 5
M  V30 5 1 5 6
M  V30 6 1 5 7
M  V30 7 2 7 8
M  V30 8 1 8 9
M  V30 9 1 8 10
M  V30 10 1 10 11
M  V30 11 1 11 12
M  V30 12 1 12 13
M  V30 13 1 13 14
M  V30 14 2 14 15
M  V30 15 1 15 16
M  V30 16 2 16 17
M  V30 17 1 17 18
M  V30 18 2 18 19
M  V30 19 1 19 20
M  V30 20 2 20 21
M  V30 21 1 21 22
M  V30 22 2 22 23
M  V30 23 1 23 24
M  V30 24 2 24 25
M  V30 25 1 25 26
M  V30 26 1 10 2
M  V30 27 2 26 13
M  V30 28 1 19 14
M  V30 29 1 26 21
M  V30 30 1 1 27
M  V30 31 1 1 28
M  V30 32 1 1 29
M  V30 33 1 3 30
M  V30 34 1 3 31
M  V30 35 1 3 32
M  V30 36 1 6 33
M  V30 37 1 6 34
M  V30 38 1 9 35
M  V30 39 1 9 36
M  V30 40 1 12 37
M  V30 41 1 12 38
M  V30 42 1 15 39
M  V30 43 1 16 40
M  V30 44 1 17 41
M  V30 45 1 18 42
M  V30 46 1 20 43
M  V30 47 1 22 44
M  V30 48 1 23 45
M  V30 49 1 24 46
M  V30 50 1 25 47
M  V30 END BOND
M  V30 END CTAB
M  END
