
     RDKit          3D

  0  0  0  0  0  0  0  0  0  0999 V3000
M  V30 BEGIN CTAB
M  V30 COUNTS 46 48 0 0 0
M  V30 BEGIN ATOM
M  V30 1 N 4.8237 1.77138 1.31356 0
M  V30 2 C 5.58312 0.58857 1.01194 0
M  V30 3 C 4.73384 -0.655821 1.12194 0
M  V30 4 C 3.56205 -0.611595 0.163772 0
M  V30 5 S 2.61062 -2.14754 0.376085 0
M  V30 6 C 1.18233 -2.18117 -0.741034 0
M  V30 7 C 0.23433 -1.08446 -0.306802 0
M  V30 8 O -0.900727 -1.03588 -1.11479 0
M  V30 9 C -1.69098 -0.114792 -0.409251 0
M  V30 10 C -1.63046 -0.544594 1.02023 0
M  V30 11 O -1.38601 0.597193 1.80798 0
M  V30 12 C -0.362583 -1.37283 1.05335 0
M  V30 13 O 0.486579 -0.951786 2.07655 0
M  V30 14 N -3.03152 -0.0491147 -0.936629 0
M  V30 15 C -3.5458 -0.512715 -2.08162 0
M  V30 16 N -4.85605 -0.227324 -2.16985 0
M  V30 17 C -5.2073 0.431408 -1.07031 0
M  V30 18 C -4.05175 0.543283 -0.291473 0
M  V30 19 N -4.19489 1.18918 0.884642 0
M  V30 20 C -5.34331 1.70545 1.32121 0
M  V30 21 N -6.45134 1.60693 0.591138 0
M  V30 22 C -6.38458 0.972743 -0.599818 0
M  V30 23 N -7.58739 0.887616 -1.34958 0
M  V30 24 C 6.25097 0.663769 -0.306249 0
M  V30 25 O 6.11052 1.79214 -1.1051 0
M  V30 26 O 6.95831 -0.274287 -0.745607 0
M  V30 27 H 5.38978 2.41384 1.8935 0
M  V30 28 H 4.56286 2.27614 0.418518 0
M  V30 29 H 6.376 0.481551 1.8084 0
M  V30 30 H 5.37331 -1.54535 0.945452 0
M  V30 31 H 4.36723 -0.696754 2.16789 0
M  V30 32 H 3.90664 -0.592192 -0.87677 0
M  V30 33 H 2.96346 0.282511 0.390392 0
M  V30 34 H 1.54652 -2.00407 -1.75756 0
M  V30 35 H 0.706644 -3.17434 -0.611907 0
M  V30 36 H 0.709042 -0.101595 -0.279402 0
M  V30 37 H -1.21892 0.884763 -0.583664 0
M  V30 38 H -2.51562 -1.10618 1.36626 0
M  V30 39 H -0.470724 0.896042 1.57701 0
M  V30 40 H -0.649272 -2.42685 1.15849 0
M  V30 41 H 0.381602 -1.57722 2.84519 0
M  V30 42 H -2.9938 -1.03774 -2.82575 0
M  V30 43 H -5.31248 2.20303 2.2965 0
M  V30 44 H -7.69707 1.48611 -2.19173 0
M  V30 45 H -8.31744 0.223107 -1.02258 0
M  V30 46 H 6.98055 2.12946 -1.54413 0
M  V30 END ATOM
M  V30 BEGIN BOND
M  V30 1 1 1 2
M  V30 2 1 2 3
M  V30 3 1 3 4
M  V30 4 1 4 5
M  V30 5 1 5 6
M  V30 6 1 6 7
M  V30 7 1 7 8
M  V30 8 1 8 9
M  V30 9 1 9 10
M  V30 10 1 10 11
M  V30 11 1 10 12
M  V30 12 1 12 13
M  V30 13 1 9 14
M  V30 14 1 14 15
M  V30 15 2 15 16
M  V30 16 1 16 17
M  V30 17 2 17 18
M  V30 18 1 18 19
M  V30 19 2 19 20
M  V30 20 1 20 21
M  V30 21 2 21 22
M  V30 22 1 22 23
M  V30 23 1 2 24
M  V30 24 1 24 25
M  V30 25 2 24 26
M  V30 26 1 12 7
M  V30 27 1 18 14
M  V30 28 1 22 17
M  V30 29 1 1 27
M  V30 30 1 1 28
M  V30 31 1 2 29
M  V30 32 1 3 30
M  V30 33 1 3 31
M  V30 34 1 4 32
M  V30 35 1 4 33
M  V30 36 1 6 34
M  V30 37 1 6 35
M  V30 38 1 7 36
M  V30 39 1 9 37
M  V30 40 1 10 38
M  V30 41 1 11 39
M  V30 42 1 12 40
M  V30 43 1 13 41
M  V30 44 1 15 42
M  V30 45 1 20 43
M  V30 46 1 23 44
M  V30 47 1 23 45
M  V30 48 1 25 46
M  V30 END BOND
M  V30 END CTAB
M  END
