
     RDKit          3D

  0  0  0  0  0  0  0  0  0  0999 V3000
M  V30 BEGIN CTAB
M  V30 COUNTS 38 41 0 0 0
M  V30 BEGIN ATOM
M  V30 1 N 2.38991 -5.06931 -1.15527 0
M  V30 2 C 1.91786 -4.06219 -0.84184 0
M  V30 3 C 1.34071 -2.79906 -0.472497 0
M  V30 4 C 0.0701327 -2.5313 -0.00432903 0
M  V30 5 N -0.939321 -3.51333 0.203624 0
M  V30 6 N -0.0874672 -1.21771 0.229481 0
M  V30 7 C 1.07235 -0.616811 -0.0818482 0
M  V30 8 C 1.97944 -1.55872 -0.519128 0
M  V30 9 N 3.22057 -1.19821 -0.891072 0
M  V30 10 C 3.59887 0.0915717 -0.842495 0
M  V30 11 C 4.86843 0.480121 -1.22026 0
M  V30 12 C 5.23433 1.80178 -1.16311 0
M  V30 13 C 4.34938 2.75582 -0.731687 0
M  V30 14 C 3.08218 2.36548 -0.354971 0
M  V30 15 C 2.6882 1.03698 -0.403522 0
M  V30 16 N 1.44769 0.673248 -0.0322279 0
M  V30 17 C -1.24031 -0.520611 0.716592 0
M  V30 18 C -1.38868 -0.201974 2.0566 0
M  V30 19 C -2.51577 0.476409 2.51519 0
M  V30 20 C -3.50578 0.840732 1.62597 0
M  V30 21 C -3.38439 0.536031 0.284086 0
M  V30 22 C -2.26096 -0.131574 -0.125155 0
M  V30 23 S -4.65346 1.00256 -0.858426 0
M  V30 24 O -4.65259 0.00439335 -1.98272 0
M  V30 25 O -5.96442 1.01695 -0.138457 0
M  V30 26 N -4.23738 2.58142 -1.43408 0
M  V30 27 H -1.56679 -3.80786 -0.572254 0
M  V30 28 H -1.00448 -3.90943 1.17041 0
M  V30 29 H 5.55587 -0.281915 -1.55826 0
M  V30 30 H 6.22702 2.07434 -1.46278 0
M  V30 31 H 4.64479 3.78935 -0.69015 0
M  V30 32 H 2.35705 3.08738 -0.00967835 0
M  V30 33 H -0.626987 -0.479047 2.75876 0
M  V30 34 H -2.62193 0.723567 3.58094 0
M  V30 35 H -4.40473 1.37466 1.95186 0
M  V30 36 H -2.13568 -0.38661 -1.17839 0
M  V30 37 H -3.75088 2.42964 -2.36084 0
M  V30 38 H -5.10277 3.14322 -1.62209 0
M  V30 END ATOM
M  V30 BEGIN BOND
M  V30 1 3 1 2
M  V30 2 1 2 3
M  V30 3 2 3 4
M  V30 4 1 4 5
M  V30 5 1 4 6
M  V30 6 1 6 7
M  V30 7 2 7 8
M  V30 8 1 8 9
M  V30 9 2 9 10
M  V30 10 1 10 11
M  V30 11 2 11 12
M  V30 12 1 12 13
M  V30 13 2 13 14
M  V30 14 1 14 15
M  V30 15 2 15 16
M  V30 16 1 6 17
M  V30 17 2 17 18
M  V30 18 1 18 19
M  V30 19 2 19 20
M  V30 20 1 20 21
M  V30 21 2 21 22
M  V30 22 1 21 23
M  V30 23 2 23 24
M  V30 24 2 23 25
M  V30 25 1 23 26
M  V30 26 1 8 3
M  V30 27 1 15 10
M  V30 28 1 22 17
M  V30 29 1 16 7
M  V30 30 1 5 27
M  V30 31 1 5 28
M  V30 32 1 11 29
M  V30 33 1 12 30
M  V30 34 1 13 31
M  V30 35 1 14 32
M  V30 36 1 18 33
M  V30 37 1 19 34
M  V30 38 1 20 35
M  V30 39 1 22 36
M  V30 40 1 26 37
M  V30 41 1 26 38
M  V30 END BOND
M  V30 END CTAB
M  END
