
     RDKit          3D

  0  0  0  0  0  0  0  0  0  0999 V3000
M  V30 BEGIN CTAB
M  V30 COUNTS 22 23 0 0 0
M  V30 BEGIN ATOM
M  V30 1 Br 5.59891 -1.20748 -0.692988 0
M  V30 2 C 3.97308 -0.258808 -0.347319 0
M  V30 3 C 3.81997 1.03204 0.101211 0
M  V30 4 N 2.51493 1.30331 0.208916 0
M  V30 5 N 1.83692 0.234252 -0.154041 0
M  V30 6 C 2.68597 -0.731742 -0.497451 0
M  V30 7 C 0.39439 0.170776 -0.160768 0
M  V30 8 C -0.278653 -0.295667 -1.27056 0
M  V30 9 C -1.67711 -0.355836 -1.2736 0
M  V30 10 C -2.3185 0.0652452 -0.138287 0
M  V30 11 C -1.61704 0.527124 0.956908 0
M  V30 12 N -0.282385 0.573021 0.930589 0
M  V30 13 N -2.31292 0.955921 2.11764 0
M  V30 14 N -3.73341 0.0433733 -0.0424388 0
M  V30 15 H 4.64025 1.70325 0.324929 0
M  V30 16 H 2.40525 -1.72321 -0.837715 0
M  V30 17 H 0.240729 -0.626623 -2.16434 0
M  V30 18 H -2.23996 -0.712172 -2.11627 0
M  V30 19 H -1.86853 0.818827 3.04614 0
M  V30 20 H -3.25141 1.40288 2.07921 0
M  V30 21 H -4.23924 0.843887 -0.498797 0
M  V30 22 H -4.29125 -0.679773 0.429034 0
M  V30 END ATOM
M  V30 BEGIN BOND
M  V30 1 1 1 2
M  V30 2 1 2 3
M  V30 3 2 3 4
M  V30 4 1 4 5
M  V30 5 1 5 6
M  V30 6 1 5 7
M  V30 7 2 7 8
M  V30 8 1 8 9
M  V30 9 2 9 10
M  V30 10 1 10 11
M  V30 11 2 11 12
M  V30 12 1 11 13
M  V30 13 1 10 14
M  V30 14 2 6 2
M  V30 15 1 12 7
M  V30 16 1 3 15
M  V30 17 1 6 16
M  V30 18 1 8 17
M  V30 19 1 9 18
M  V30 20 1 13 19
M  V30 21 1 13 20
M  V30 22 1 14 21
M  V30 23 1 14 22
M  V30 END BOND
M  V30 END CTAB
M  END
