
     RDKit          3D

  0  0  0  0  0  0  0  0  0  0999 V3000
M  V30 BEGIN CTAB
M  V30 COUNTS 43 44 0 0 0
M  V30 BEGIN ATOM
M  V30 1 N 7.13085 0.0424252 0.631415 0
M  V30 2 N 6.19967 -0.7067 -0.0447079 0
M  V30 3 C 4.86672 -0.262571 -0.193544 0
M  V30 4 O 4.5506 0.839922 0.309804 0
M  V30 5 C 3.84275 -1.03356 -0.908573 0
M  V30 6 N 2.56887 -0.460553 -0.968533 0
M  V30 7 C 2.34615 0.703505 -1.71974 0
M  V30 8 C 1.32802 1.64617 -1.12996 0
M  V30 9 N 0.10914 0.90759 -0.855108 0
M  V30 10 C -0.864377 1.76781 -0.192011 0
M  V30 11 C -2.08158 0.963983 0.0615119 0
M  V30 12 C -2.99307 0.715941 -0.968389 0
M  V30 13 C -4.13648 -0.0227541 -0.758506 0
M  V30 14 C -4.4383 -0.553235 0.476354 0
M  V30 15 C -3.5452 -0.315098 1.50306 0
M  V30 16 C -2.39947 0.424674 1.29404 0
M  V30 17 S -5.8965 -1.49791 0.745043 0
M  V30 18 N -7.16096 -0.440356 1.21106 0
M  V30 19 O -6.26408 -2.26437 -0.500206 0
M  V30 20 O -5.6752 -2.53513 1.83202 0
M  V30 21 C 0.322554 -0.24443 -0.0278112 0
M  V30 22 C 1.4655 -1.11525 -0.409619 0
M  V30 23 H 6.91311 1.03135 0.772535 0
M  V30 24 H 7.61118 -0.436018 1.39796 0
M  V30 25 H 6.53311 -1.63133 -0.447063 0
M  V30 26 H 4.2207 -1.21392 -1.93893 0
M  V30 27 H 3.75263 -2.04616 -0.426424 0
M  V30 28 H 3.30629 1.20844 -1.93784 0
M  V30 29 H 1.93781 0.405916 -2.72657 0
M  V30 30 H 1.68983 2.21023 -0.260589 0
M  V30 31 H 1.06392 2.41184 -1.90471 0
M  V30 32 H -1.09102 2.66506 -0.831155 0
M  V30 33 H -0.464395 2.19879 0.753127 0
M  V30 34 H -2.73146 1.14729 -1.93646 0
M  V30 35 H -4.81879 -0.194416 -1.5797 0
M  V30 36 H -3.75973 -0.719741 2.47554 0
M  V30 37 H -1.69111 0.614804 2.10638 0
M  V30 38 H -7.65424 -0.105607 0.370025 0
M  V30 39 H -6.74373 0.306817 1.79899 0
M  V30 40 H -0.608151 -0.874681 -0.145833 0
M  V30 41 H 0.389023 0.0289144 1.05337 0
M  V30 42 H 1.76872 -1.68329 0.500419 0
M  V30 43 H 1.10066 -1.88439 -1.15047 0
M  V30 END ATOM
M  V30 BEGIN BOND
M  V30 1 1 1 2
M  V30 2 1 2 3
M  V30 3 2 3 4
M  V30 4 1 3 5
M  V30 5 1 5 6
M  V30 6 1 6 7
M  V30 7 1 7 8
M  V30 8 1 8 9
M  V30 9 1 9 10
M  V30 10 1 10 11
M  V30 11 2 11 12
M  V30 12 1 12 13
M  V30 13 2 13 14
M  V30 14 1 14 15
M  V30 15 2 15 16
M  V30 16 1 14 17
M  V30 17 1 17 18
M  V30 18 2 17 19
M  V30 19 2 17 20
M  V30 20 1 9 21
M  V30 21 1 21 22
M  V30 22 1 22 6
M  V30 23 1 16 11
M  V30 24 1 1 23
M  V30 25 1 1 24
M  V30 26 1 2 25
M  V30 27 1 5 26
M  V30 28 1 5 27
M  V30 29 1 7 28
M  V30 30 1 7 29
M  V30 31 1 8 30
M  V30 32 1 8 31
M  V30 33 1 10 32
M  V30 34 1 10 33
M  V30 35 1 12 34
M  V30 36 1 13 35
M  V30 37 1 15 36
M  V30 38 1 16 37
M  V30 39 1 18 38
M  V30 40 1 18 39
M  V30 41 1 21 40
M  V30 42 1 21 41
M  V30 43 1 22 42
M  V30 44 1 22 43
M  V30 END BOND
M  V30 END CTAB
M  END
