
     RDKit          3D

  0  0  0  0  0  0  0  0  0  0999 V3000
M  V30 BEGIN CTAB
M  V30 COUNTS 45 44 0 0 0
M  V30 BEGIN ATOM
M  V30 1 N -5.99713 1.88416 0.925866 0
M  V30 2 C -6.17542 0.478047 1.05134 0
M  V30 3 C -4.99555 -0.328518 1.42471 0
M  V30 4 C -3.82084 -0.333933 0.536118 0
M  V30 5 C -3.12729 0.938256 0.260595 0
M  V30 6 C -1.95597 0.700983 -0.663286 0
M  V30 7 C -0.934067 -0.242649 -0.0864928 0
M  V30 8 C 0.224591 -0.412592 -1.07644 0
M  V30 9 C 1.24668 -1.3624 -0.488788 0
M  V30 10 C 2.40138 -1.55319 -1.44615 0
M  V30 11 C 3.12257 -0.28416 -1.77067 0
M  V30 12 C 3.69087 0.369952 -0.542192 0
M  V30 13 C 4.66194 -0.569613 0.113741 0
M  V30 14 C 5.28077 0.0428589 1.3602 0
M  V30 15 N 5.98381 1.24668 1.00027 0
M  V30 16 H -6.10362 2.27561 -0.0172013 0
M  V30 17 H -5.27329 2.29509 1.52011 0
M  V30 18 H -6.9302 0.335929 1.88486 0
M  V30 19 H -6.72061 0.0836427 0.157027 0
M  V30 20 H -4.70322 -0.0625125 2.46662 0
M  V30 21 H -5.35949 -1.39767 1.52049 0
M  V30 22 H -4.07156 -0.797563 -0.463554 0
M  V30 23 H -3.05649 -1.03684 0.98853 0
M  V30 24 H -3.7972 1.66038 -0.26176 0
M  V30 25 H -2.68374 1.40552 1.18172 0
M  V30 26 H -1.42968 1.66009 -0.856301 0
M  V30 27 H -2.34218 0.245612 -1.59947 0
M  V30 28 H -1.31725 -1.27061 0.0825059 0
M  V30 29 H -0.494271 0.116852 0.859285 0
M  V30 30 H 0.746032 0.567479 -1.22001 0
M  V30 31 H -0.176282 -0.779771 -2.03684 0
M  V30 32 H 0.799578 -2.38464 -0.33901 0
M  V30 33 H 1.60904 -0.945112 0.469789 0
M  V30 34 H 3.10148 -2.33079 -1.07358 0
M  V30 35 H 1.99783 -1.94476 -2.42544 0
M  V30 36 H 3.97893 -0.478127 -2.4545 0
M  V30 37 H 2.44972 0.417911 -2.30748 0
M  V30 38 H 4.2245 1.32538 -0.79884 0
M  V30 39 H 2.86192 0.620595 0.155614 0
M  V30 40 H 4.12014 -1.4984 0.436465 0
M  V30 41 H 5.43559 -0.851069 -0.621962 0
M  V30 42 H 5.98783 -0.740721 1.75423 0
M  V30 43 H 4.46979 0.20813 2.08801 0
M  V30 44 H 6.72558 1.00123 0.323625 0
M  V30 45 H 6.34479 1.72527 1.85321 0
M  V30 END ATOM
M  V30 BEGIN BOND
M  V30 1 1 1 2
M  V30 2 1 2 3
M  V30 3 1 3 4
M  V30 4 1 4 5
M  V30 5 1 5 6
M  V30 6 1 6 7
M  V30 7 1 7 8
M  V30 8 1 8 9
M  V30 9 1 9 10
M  V30 10 1 10 11
M  V30 11 1 11 12
M  V30 12 1 12 13
M  V30 13 1 13 14
M  V30 14 1 14 15
M  V30 15 1 1 16
M  V30 16 1 1 17
M  V30 17 1 2 18
M  V30 18 1 2 19
M  V30 19 1 3 20
M  V30 20 1 3 21
M  V30 21 1 4 22
M  V30 22 1 4 23
M  V30 23 1 5 24
M  V30 24 1 5 25
M  V30 25 1 6 26
M  V30 26 1 6 27
M  V30 27 1 7 28
M  V30 28 1 7 29
M  V30 29 1 8 30
M  V30 30 1 8 31
M  V30 31 1 9 32
M  V30 32 1 9 33
M  V30 33 1 10 34
M  V30 34 1 10 35
M  V30 35 1 11 36
M  V30 36 1 11 37
M  V30 37 1 12 38
M  V30 38 1 12 39
M  V30 39 1 13 40
M  V30 40 1 13 41
M  V30 41 1 14 42
M  V30 42 1 14 43
M  V30 43 1 15 44
M  V30 44 1 15 45
M  V30 END BOND
M  V30 END CTAB
M  END
