
     RDKit          3D

  0  0  0  0  0  0  0  0  0  0999 V3000
M  V30 BEGIN CTAB
M  V30 COUNTS 46 48 0 0 0
M  V30 BEGIN ATOM
M  V30 1 C -4.41709 3.23664 2.00827 0
M  V30 2 C -4.01415 2.00215 1.23837 0
M  V30 3 C -4.76226 0.84747 1.30832 0
M  V30 4 C -4.37124 -0.293645 0.593715 0
M  V30 5 C -3.24156 -0.325696 -0.196813 0
M  V30 6 C -2.49197 0.823842 -0.270269 0
M  V30 7 C -2.90505 1.98767 0.465606 0
M  V30 8 O -1.36397 0.998139 -1.0007 0
M  V30 9 C -0.105402 0.613888 -0.993328 0
M  V30 10 C 0.556075 -0.337673 -1.72412 0
M  V30 11 C 1.93212 -0.607079 -1.56063 0
M  V30 12 C 2.66933 0.105257 -0.634457 0
M  V30 13 C 2.02099 1.08243 0.123543 0
M  V30 14 C 0.695598 1.32245 -0.0479469 0
M  V30 15 C 4.07816 -0.108263 -0.392636 0
M  V30 16 N 4.72809 0.71205 0.473271 0
M  V30 17 C 6.02314 0.596846 0.791992 0
M  V30 18 N 6.68133 1.47086 1.68746 0
M  V30 19 N 6.72331 -0.396243 0.217289 0
M  V30 20 C 6.13571 -1.24543 -0.651716 0
M  V30 21 N 4.83529 -1.09638 -0.943537 0
M  V30 22 N 6.9307 -2.26297 -1.25718 0
M  V30 23 C -2.80465 -1.58235 -0.872331 0
M  V30 24 C -3.52362 -1.67566 -2.23486 0
M  V30 25 C -3.41637 -2.81738 -0.141138 0
M  V30 26 H -4.22095 3.16094 3.07388 0
M  V30 27 H -3.92869 4.11987 1.53671 0
M  V30 28 H -5.50246 3.40416 1.89766 0
M  V30 29 H -5.63022 0.859981 1.94106 0
M  V30 30 H -4.99593 -1.1669 0.70857 0
M  V30 31 H -2.30789 2.89564 0.378566 0
M  V30 32 H 0.00941272 -0.90373 -2.4461 0
M  V30 33 H 2.41911 -1.37929 -2.16831 0
M  V30 34 H 2.59442 1.6411 0.843045 0
M  V30 35 H 0.180922 2.06319 0.53479 0
M  V30 36 H 6.81506 1.21314 2.68774 0
M  V30 37 H 7.05084 2.38287 1.37099 0
M  V30 38 H 7.85289 -2.02882 -1.66339 0
M  V30 39 H 6.55343 -3.21677 -1.25219 0
M  V30 40 H -1.77964 -1.75321 -0.903845 0
M  V30 41 H -4.11836 -0.752508 -2.33551 0
M  V30 42 H -4.11805 -2.55387 -2.36302 0
M  V30 43 H -2.72915 -1.58815 -3.0393 0
M  V30 44 H -4.52817 -2.74885 -0.10621 0
M  V30 45 H -3.25808 -3.67176 -0.886022 0
M  V30 46 H -2.95102 -3.02795 0.804095 0
M  V30 END ATOM
M  V30 BEGIN BOND
M  V30 1 1 1 2
M  V30 2 2 2 3
M  V30 3 1 3 4
M  V30 4 2 4 5
M  V30 5 1 5 6
M  V30 6 2 6 7
M  V30 7 1 6 8
M  V30 8 1 8 9
M  V30 9 2 9 10
M  V30 10 1 10 11
M  V30 11 2 11 12
M  V30 12 1 12 13
M  V30 13 2 13 14
M  V30 14 1 12 15
M  V30 15 2 15 16
M  V30 16 1 16 17
M  V30 17 1 17 18
M  V30 18 2 17 19
M  V30 19 1 19 20
M  V30 20 2 20 21
M  V30 21 1 20 22
M  V30 22 1 5 23
M  V30 23 1 23 24
M  V30 24 1 23 25
M  V30 25 1 7 2
M  V30 26 1 14 9
M  V30 27 1 21 15
M  V30 28 1 1 26
M  V30 29 1 1 27
M  V30 30 1 1 28
M  V30 31 1 3 29
M  V30 32 1 4 30
M  V30 33 1 7 31
M  V30 34 1 10 32
M  V30 35 1 11 33
M  V30 36 1 13 34
M  V30 37 1 14 35
M  V30 38 1 18 36
M  V30 39 1 18 37
M  V30 40 1 22 38
M  V30 41 1 22 39
M  V30 42 1 23 40
M  V30 43 1 24 41
M  V30 44 1 24 42
M  V30 45 1 24 43
M  V30 46 1 25 44
M  V30 47 1 25 45
M  V30 48 1 25 46
M  V30 END BOND
M  V30 END CTAB
M  END
