
     RDKit          3D

  0  0  0  0  0  0  0  0  0  0999 V3000
M  V30 BEGIN CTAB
M  V30 COUNTS 22 22 0 0 0
M  V30 BEGIN ATOM
M  V30 1 C -2.89925 -0.179794 -0.341125 0
M  V30 2 C -1.98157 -0.0718223 0.84016 0
M  V30 3 C -0.535262 -0.150209 0.467326 0
M  V30 4 C 0.203651 -1.29614 0.678614 0
M  V30 5 C 1.53674 -1.40137 0.346421 0
M  V30 6 Br 2.53984 -3.00612 0.647825 0
M  V30 7 C 2.2164 -0.323806 -0.234604 0
M  V30 8 C 1.4718 0.815393 -0.441642 0
M  V30 9 C 0.137926 0.910211 -0.105054 0
M  V30 10 N -0.617764 2.1003 -0.32442 0
M  V30 11 N 3.59162 -0.434654 -0.572607 0
M  V30 12 H -3.52389 -1.11529 -0.286485 0
M  V30 13 H -2.29059 -0.288228 -1.25789 0
M  V30 14 H -3.55441 0.705531 -0.477192 0
M  V30 15 H -2.15272 0.896211 1.39737 0
M  V30 16 H -2.25631 -0.861336 1.55924 0
M  V30 17 H -0.3172 -2.14554 1.13126 0
M  V30 18 H 1.98501 1.66279 -0.891624 0
M  V30 19 H -1.15241 2.32977 -1.1707 0
M  V30 20 H -0.614676 2.79005 0.460412 0
M  V30 21 H 4.27448 -0.973194 6.04924e-07 0
M  V30 22 H 3.93859 0.037247 -1.42528 0
M  V30 END ATOM
M  V30 BEGIN BOND
M  V30 1 1 1 2
M  V30 2 1 2 3
M  V30 3 2 3 4
M  V30 4 1 4 5
M  V30 5 1 5 6
M  V30 6 2 5 7
M  V30 7 1 7 8
M  V30 8 2 8 9
M  V30 9 1 9 10
M  V30 10 1 7 11
M  V30 11 1 9 3
M  V30 12 1 1 12
M  V30 13 1 1 13
M  V30 14 1 1 14
M  V30 15 1 2 15
M  V30 16 1 2 16
M  V30 17 1 4 17
M  V30 18 1 8 18
M  V30 19 1 10 19
M  V30 20 1 10 20
M  V30 21 1 11 21
M  V30 22 1 11 22
M  V30 END BOND
M  V30 END CTAB
M  END
