
     RDKit          3D

  0  0  0  0  0  0  0  0  0  0999 V3000
M  V30 BEGIN CTAB
M  V30 COUNTS 22 22 0 0 0
M  V30 BEGIN ATOM
M  V30 1 N -3.04021 -1.144 -0.13088 0
M  V30 2 C -2.47211 0.0518123 0.364294 0
M  V30 3 N -1.23346 0.183461 0.597224 0
M  V30 4 C -0.217903 -0.804647 0.413335 0
M  V30 5 C 1.10548 -0.163254 0.0896902 0
M  V30 6 C 1.15866 1.21042 0.0179566 0
M  V30 7 C 2.38158 1.79997 -0.280986 0
M  V30 8 C 3.48177 1.00677 -0.492263 0
M  V30 9 N 3.39742 -0.335407 -0.414938 0
M  V30 10 C 2.21389 -0.950957 -0.123663 0
M  V30 11 O 2.14242 -2.32871 -0.0476689 0
M  V30 12 N -3.32802 1.15965 0.613359 0
M  V30 13 H -2.46467 -1.81436 -0.684093 0
M  V30 14 H -4.02431 -1.36218 0.0502072 0
M  V30 15 H -0.0887053 -1.33798 1.38531 0
M  V30 16 H -0.459154 -1.57942 -0.332498 0
M  V30 17 H 0.257702 1.77999 0.194459 0
M  V30 18 H 2.40806 2.89274 -0.334513 0
M  V30 19 H 4.41752 1.52246 -0.723829 0
M  V30 20 H 1.71939 -2.92165 -0.729306 0
M  V30 21 H -4.30556 0.99087 0.981254 0
M  V30 22 H -3.0498 2.14441 0.454146 0
M  V30 END ATOM
M  V30 BEGIN BOND
M  V30 1 1 1 2
M  V30 2 2 2 3 CFG=2
M  V30 3 1 3 4
M  V30 4 1 4 5
M  V30 5 2 5 6
M  V30 6 1 6 7
M  V30 7 2 7 8
M  V30 8 1 8 9
M  V30 9 2 9 10
M  V30 10 1 10 11
M  V30 11 1 2 12
M  V30 12 1 10 5
M  V30 13 1 1 13
M  V30 14 1 1 14
M  V30 15 1 4 15
M  V30 16 1 4 16
M  V30 17 1 6 17
M  V30 18 1 7 18
M  V30 19 1 8 19
M  V30 20 1 11 20
M  V30 21 1 12 21
M  V30 22 1 12 22
M  V30 END BOND
M  V30 END CTAB
M  END
