
     RDKit          3D

  0  0  0  0  0  0  0  0  0  0999 V3000
M  V30 BEGIN CTAB
M  V30 COUNTS 21 21 0 0 0
M  V30 BEGIN ATOM
M  V30 1 N -3.12592 -1.53695 1.58794 0
M  V30 2 C -2.55983 -1.35391 0.593342 0
M  V30 3 C -1.81705 -1.1386 -0.672878 0
M  V30 4 C -0.567598 -0.442388 -0.330553 0
M  V30 5 C 0.622387 -1.17345 -0.292658 0
M  V30 6 C 1.83412 -0.596795 0.0250345 0
M  V30 7 N 3.01568 -1.38966 0.0484721 0
M  V30 8 C 1.83437 0.764679 0.312805 0
M  V30 9 C 0.65809 1.47933 0.273567 0
M  V30 10 C -0.546208 0.906379 -0.0418875 0
M  V30 11 N -1.76286 1.60833 -0.0933391 0
M  V30 12 O 0.660077 2.83539 0.560698 0
M  V30 13 H -1.5829 -2.14447 -1.06648 0
M  V30 14 H -2.44899 -0.553412 -1.38927 0
M  V30 15 H 0.575175 -2.23602 -0.526253 0
M  V30 16 H 3.51496 -1.72797 -0.805575 0
M  V30 17 H 3.46534 -1.68761 0.959524 0
M  V30 18 H 2.79774 1.22035 0.56467 0
M  V30 19 H -2.41709 1.56306 0.691054 0
M  V30 20 H -1.99721 2.18544 -0.949289 0
M  V30 21 H -0.152292 3.41827 0.551073 0
M  V30 END ATOM
M  V30 BEGIN BOND
M  V30 1 3 1 2
M  V30 2 1 2 3
M  V30 3 1 3 4
M  V30 4 2 4 5
M  V30 5 1 5 6
M  V30 6 1 6 7
M  V30 7 2 6 8
M  V30 8 1 8 9
M  V30 9 2 9 10
M  V30 10 1 10 11
M  V30 11 1 9 12
M  V30 12 1 10 4
M  V30 13 1 3 13
M  V30 14 1 3 14
M  V30 15 1 5 15
M  V30 16 1 7 16
M  V30 17 1 7 17
M  V30 18 1 8 18
M  V30 19 1 11 19
M  V30 20 1 11 20
M  V30 21 1 12 21
M  V30 END BOND
M  V30 END CTAB
M  END
