
     RDKit          3D

  0  0  0  0  0  0  0  0  0  0999 V3000
M  V30 BEGIN CTAB
M  V30 COUNTS 24 24 0 0 0
M  V30 BEGIN ATOM
M  V30 1 C 0.831779 2.95337 -0.0953049 0
M  V30 2 O 0.0631573 1.81371 0.190783 0
M  V30 3 C 0.609758 0.557916 0.401734 0
M  V30 4 C 1.9706 0.377526 0.335363 0
M  V30 5 C 2.49646 -0.879301 0.551349 0
M  V30 6 C 3.91913 -1.08653 0.489326 0
M  V30 7 N 5.06952 -1.2492 0.463005 0
M  V30 8 C 1.62121 -1.91285 0.827026 0
M  V30 9 C 0.259677 -1.73673 0.894004 0
M  V30 10 C -0.285956 -0.474719 0.680132 0
M  V30 11 N -1.65398 -0.228424 0.769308 0
M  V30 12 C -2.59402 -0.430611 -0.0459853 0
M  V30 13 N -2.40071 -0.999401 -1.3239 0
M  V30 14 N -3.91613 -0.0815887 0.320982 0
M  V30 15 H 1.67085 2.74236 -0.801472 0
M  V30 16 H 0.23576 3.75342 -0.576346 0
M  V30 17 H 1.30079 3.39176 0.81345 0
M  V30 18 H 2.64935 1.21912 0.108436 0
M  V30 19 H 2.02039 -2.9117 0.998572 0
M  V30 20 H -0.387573 -2.57364 1.11115 0
M  V30 21 H -2.00291 -0.395749 -2.07597 0
M  V30 22 H -2.6669 -1.98795 -1.46796 0
M  V30 23 H -4.71464 -0.741708 0.272049 0
M  V30 24 H -4.0956 0.880918 0.65989 0
M  V30 END ATOM
M  V30 BEGIN BOND
M  V30 1 1 1 2
M  V30 2 1 2 3
M  V30 3 2 3 4
M  V30 4 1 4 5
M  V30 5 1 5 6
M  V30 6 3 6 7
M  V30 7 2 5 8
M  V30 8 1 8 9
M  V30 9 2 9 10
M  V30 10 1 10 11
M  V30 11 2 11 12 CFG=2
M  V30 12 1 12 13
M  V30 13 1 12 14
M  V30 14 1 10 3
M  V30 15 1 1 15
M  V30 16 1 1 16
M  V30 17 1 1 17
M  V30 18 1 4 18
M  V30 19 1 8 19
M  V30 20 1 9 20
M  V30 21 1 13 21
M  V30 22 1 13 22
M  V30 23 1 14 23
M  V30 24 1 14 24
M  V30 END BOND
M  V30 END CTAB
M  END
