
     RDKit          3D

  0  0  0  0  0  0  0  0  0  0999 V3000
M  V30 BEGIN CTAB
M  V30 COUNTS 20 20 0 0 0
M  V30 BEGIN ATOM
M  V30 1 F 5.0684 0.10966 0.518742 0
M  V30 2 C 3.71335 0.0192093 0.824123 0
M  V30 3 S 2.80765 0.517194 -0.658279 0
M  V30 4 C 1.04934 0.453087 -0.422791 0
M  V30 5 C 0.346926 -0.70814 -0.706039 0
M  V30 6 C -1.02421 -0.786356 -0.531755 0
M  V30 7 N -1.76701 -1.9595 -0.813074 0
M  V30 8 C -1.72087 0.322547 -0.0615349 0
M  V30 9 C -0.998897 1.47513 0.215986 0
M  V30 10 C 0.363137 1.55035 0.0420319 0
M  V30 11 Br -2.01101 2.97443 0.861958 0
M  V30 12 N -3.12584 0.233315 0.114057 0
M  V30 13 F 3.47559 -1.29171 1.17557 0
M  V30 14 H 3.44167 0.63969 1.69489 0
M  V30 15 H 0.870263 -1.59845 -1.07831 0
M  V30 16 H -2.73103 -1.94201 -1.2113 0
M  V30 17 H -1.35056 -2.8964 -0.621065 0
M  V30 18 H 0.872125 2.46917 0.272978 0
M  V30 19 H -3.71268 -0.275246 -0.551323 0
M  V30 20 H -3.56635 0.694036 0.935137 0
M  V30 END ATOM
M  V30 BEGIN BOND
M  V30 1 1 1 2
M  V30 2 1 2 3
M  V30 3 1 3 4
M  V30 4 2 4 5
M  V30 5 1 5 6
M  V30 6 1 6 7
M  V30 7 2 6 8
M  V30 8 1 8 9
M  V30 9 2 9 10
M  V30 10 1 9 11
M  V30 11 1 8 12
M  V30 12 1 2 13
M  V30 13 1 10 4
M  V30 14 1 2 14
M  V30 15 1 5 15
M  V30 16 1 7 16
M  V30 17 1 7 17
M  V30 18 1 10 18
M  V30 19 1 12 19
M  V30 20 1 12 20
M  V30 END BOND
M  V30 END CTAB
M  END
