
     RDKit          3D

  0  0  0  0  0  0  0  0  0  0999 V3000
M  V30 BEGIN CTAB
M  V30 COUNTS 41 41 0 0 0
M  V30 BEGIN ATOM
M  V30 1 N 3.80616 1.88673 0.114124 0
M  V30 2 C 3.96684 0.730384 -0.735808 0
M  V30 3 C 3.4717 -0.490168 0.00382602 0
M  V30 4 N 2.09729 -0.336444 0.343661 0
M  V30 5 C 1.02551 -0.168383 -0.558797 0
M  V30 6 O 1.29189 -0.152186 -1.79384 0
M  V30 7 C -0.361544 -0.0125562 -0.174478 0
M  V30 8 C -0.726415 -0.0166549 1.14918 0
M  V30 9 C -2.06699 0.133522 1.52889 0
M  V30 10 C -2.46179 0.128695 2.97109 0
M  V30 11 C -3.04547 0.288601 0.572442 0
M  V30 12 C -2.68274 0.293267 -0.759465 0
M  V30 13 C -1.35603 0.14385 -1.11368 0
M  V30 14 S -3.90226 0.487652 -1.98105 0
M  V30 15 O -4.52212 1.83549 -1.91492 0
M  V30 16 O -3.26005 0.365074 -3.35338 0
M  V30 17 N -5.05526 -0.791278 -1.87012 0
M  V30 18 C -4.45696 0.44468 1.02542 0
M  V30 19 C 3.71518 -1.67626 -0.911076 0
M  V30 20 C 4.36156 -0.668691 1.20736 0
M  V30 21 H 3.68499 2.77398 -0.420062 0
M  V30 22 H 4.53516 1.951 0.853629 0
M  V30 23 H 3.49945 0.86255 -1.70978 0
M  V30 24 H 5.07351 0.620588 -0.949197 0
M  V30 25 H 1.85759 -0.34977 1.37477 0
M  V30 26 H -0.050412 -0.129483 1.96518 0
M  V30 27 H -1.64484 -0.192905 3.62136 0
M  V30 28 H -3.32933 -0.545958 3.06419 0
M  V30 29 H -2.82986 1.14965 3.25552 0
M  V30 30 H -1.13068 0.155911 -2.1899 0
M  V30 31 H -4.55292 -1.63862 -1.47596 0
M  V30 32 H -5.82096 -0.589952 -1.19854 0
M  V30 33 H -5.05862 1.07525 0.367291 0
M  V30 34 H -4.45623 0.920546 2.04518 0
M  V30 35 H -4.8912 -0.572318 1.07489 0
M  V30 36 H 4.80954 -1.88743 -0.852854 0
M  V30 37 H 3.19756 -2.591 -0.561934 0
M  V30 38 H 3.49734 -1.41692 -1.96022 0
M  V30 39 H 5.39629 -0.413019 0.882803 0
M  V30 40 H 4.04903 0.0947235 1.96335 0
M  V30 41 H 4.32613 -1.70215 1.6115 0
M  V30 END ATOM
M  V30 BEGIN BOND
M  V30 1 1 1 2
M  V30 2 1 2 3
M  V30 3 1 3 4
M  V30 4 1 4 5
M  V30 5 2 5 6
M  V30 6 1 5 7
M  V30 7 2 7 8
M  V30 8 1 8 9
M  V30 9 1 9 10
M  V30 10 2 9 11
M  V30 11 1 11 12
M  V30 12 2 12 13
M  V30 13 1 12 14
M  V30 14 2 14 15
M  V30 15 2 14 16
M  V30 16 1 14 17
M  V30 17 1 11 18
M  V30 18 1 3 19
M  V30 19 1 3 20
M  V30 20 1 13 7
M  V30 21 1 1 21
M  V30 22 1 1 22
M  V30 23 1 2 23
M  V30 24 1 2 24
M  V30 25 1 4 25
M  V30 26 1 8 26
M  V30 27 1 10 27
M  V30 28 1 10 28
M  V30 29 1 10 29
M  V30 30 1 13 30
M  V30 31 1 17 31
M  V30 32 1 17 32
M  V30 33 1 18 33
M  V30 34 1 18 34
M  V30 35 1 18 35
M  V30 36 1 19 36
M  V30 37 1 19 37
M  V30 38 1 19 38
M  V30 39 1 20 39
M  V30 40 1 20 40
M  V30 41 1 20 41
M  V30 END BOND
M  V30 END CTAB
M  END
