
     RDKit          3D

  0  0  0  0  0  0  0  0  0  0999 V3000
M  V30 BEGIN CTAB
M  V30 COUNTS 24 25 0 0 0
M  V30 BEGIN ATOM
M  V30 1 N -1.96925 -1.14916 -1.29162 0
M  V30 2 C -1.87706 0.0631195 -0.473115 0
M  V30 3 C -1.38002 1.23373 -1.22754 0
M  V30 4 O -0.0918859 1.66539 -0.887432 0
M  V30 5 C 0.860147 0.800093 -0.356198 0
M  V30 6 C 0.410935 -0.209325 0.472729 0
M  V30 7 C -1.0331 -0.299088 0.735215 0
M  V30 8 N -1.47076 0.563777 1.81656 0
M  V30 9 C 1.32997 -1.10206 1.0292 0
M  V30 10 C 2.68552 -1.02029 0.785049 0
M  V30 11 C 3.11121 -0.00361833 -0.0462162 0
M  V30 12 C 2.19742 0.881247 -0.597406 0
M  V30 13 H -2.32006 -0.948468 -2.23527 0
M  V30 14 H -1.05726 -1.64632 -1.28418 0
M  V30 15 H -2.91876 0.273305 -0.143682 0
M  V30 16 H -2.04849 2.12291 -1.20347 0
M  V30 17 H -1.33767 0.944323 -2.31932 0
M  V30 18 H -1.24475 -1.33933 1.06002 0
M  V30 19 H -2.20875 0.0801407 2.39135 0
M  V30 20 H -0.690699 0.906771 2.40072 0
M  V30 21 H 0.963006 -1.89873 1.68505 0
M  V30 22 H 3.38416 -1.72861 1.23065 0
M  V30 23 H 4.15603 0.12876 -0.287194 0
M  V30 24 H 2.55012 1.68143 -1.25391 0
M  V30 END ATOM
M  V30 BEGIN BOND
M  V30 1 1 1 2
M  V30 2 1 2 3
M  V30 3 1 3 4
M  V30 4 1 4 5
M  V30 5 2 5 6
M  V30 6 1 6 7
M  V30 7 1 7 8
M  V30 8 1 6 9
M  V30 9 2 9 10
M  V30 10 1 10 11
M  V30 11 2 11 12
M  V30 12 1 7 2
M  V30 13 1 12 5
M  V30 14 1 1 13
M  V30 15 1 1 14
M  V30 16 1 2 15
M  V30 17 1 3 16
M  V30 18 1 3 17
M  V30 19 1 7 18
M  V30 20 1 8 19
M  V30 21 1 8 20
M  V30 22 1 9 21
M  V30 23 1 10 22
M  V30 24 1 11 23
M  V30 25 1 12 24
M  V30 END BOND
M  V30 END CTAB
M  END
