
     RDKit          3D

  0  0  0  0  0  0  0  0  0  0999 V3000
M  V30 BEGIN CTAB
M  V30 COUNTS 29 31 0 0 0
M  V30 BEGIN ATOM
M  V30 1 N -4.38154 2.09852 -1.4936 0
M  V30 2 C -3.57527 1.10075 -0.836679 0
M  V30 3 N -2.24128 1.19523 -0.824511 0
M  V30 4 C -1.51248 0.272929 -0.218145 0
M  V30 5 N -2.09595 -0.785589 0.402897 0
M  V30 6 C -3.42969 -0.882667 0.392343 0
M  V30 7 N -4.03402 -2.00444 1.05123 0
M  V30 8 N -4.1695 0.0491542 -0.220463 0
M  V30 9 C -0.0713972 0.371282 -0.202737 0
M  V30 10 C 0.702036 -0.604576 0.439011 0
M  V30 11 C 2.0729 -0.529955 0.465314 0
M  V30 12 C 2.66542 0.545686 -0.165887 0
M  V30 13 C 4.04298 0.6112 -0.133631 0
M  V30 14 C 4.79748 -0.364145 0.506799 0
M  V30 15 C 4.19257 -1.43473 1.13424 0
M  V30 16 C 2.81561 -1.5022 1.10321 0
M  V30 17 C 1.91707 1.51914 -0.804831 0
M  V30 18 C 0.540239 1.43597 -0.826182 0
M  V30 19 Br -0.503899 2.79041 -1.71535 0
M  V30 20 H -5.15793 2.5208 -0.957285 0
M  V30 21 H -4.12797 2.3326 -2.47622 0
M  V30 22 H -4.42566 -2.81479 0.532149 0
M  V30 23 H -4.09958 -2.03961 2.10447 0
M  V30 24 H 0.185889 -1.43286 0.921899 0
M  V30 25 H 4.51171 1.46479 -0.634599 0
M  V30 26 H 5.86835 -0.28619 0.515225 0
M  V30 27 H 4.76022 -2.20519 1.63863 0
M  V30 28 H 2.35402 -2.35453 1.60379 0
M  V30 29 H 2.39966 2.36625 -1.30109 0
M  V30 END ATOM
M  V30 BEGIN BOND
M  V30 1 1 1 2
M  V30 2 2 2 3
M  V30 3 1 3 4
M  V30 4 2 4 5
M  V30 5 1 5 6
M  V30 6 1 6 7
M  V30 7 2 6 8
M  V30 8 1 4 9
M  V30 9 2 9 10
M  V30 10 1 10 11
M  V30 11 2 11 12
M  V30 12 1 12 13
M  V30 13 2 13 14
M  V30 14 1 14 15
M  V30 15 2 15 16
M  V30 16 1 12 17
M  V30 17 2 17 18
M  V30 18 1 18 19
M  V30 19 1 8 2
M  V30 20 1 18 9
M  V30 21 1 16 11
M  V30 22 1 1 20
M  V30 23 1 1 21
M  V30 24 1 7 22
M  V30 25 1 7 23
M  V30 26 1 10 24
M  V30 27 1 13 25
M  V30 28 1 14 26
M  V30 29 1 15 27
M  V30 30 1 16 28
M  V30 31 1 17 29
M  V30 END BOND
M  V30 END CTAB
M  END
