
     RDKit          3D

  0  0  0  0  0  0  0  0  0  0999 V3000
M  V30 BEGIN CTAB
M  V30 COUNTS 39 41 0 0 0
M  V30 BEGIN ATOM
M  V30 1 C -5.96163 -1.59844 0.898269 0
M  V30 2 O -5.43795 -0.370026 0.410976 0
M  V30 3 C -4.09156 -0.15899 0.294654 0
M  V30 4 C -3.21998 -1.16457 0.659355 0
M  V30 5 C -1.85864 -0.984628 0.554593 0
M  V30 6 C -1.36663 0.196311 0.0870192 0
M  V30 7 C -2.25595 1.2031 -0.277581 0
M  V30 8 C -3.60902 1.03693 -0.17856 0
M  V30 9 O -4.50885 2.02335 -0.535555 0
M  V30 10 C -4.04498 3.26311 -1.02585 0
M  V30 11 C 0.107578 0.117557 0.0788422 0
M  V30 12 C 0.488909 -1.07855 0.886248 0
M  V30 13 C -0.766056 -1.89296 0.875679 0
M  V30 14 O -0.889632 -3.13114 1.09782 0
M  V30 15 S 1.78401 -2.07028 0.149766 0
M  V30 16 C 3.34714 -1.18169 0.0892003 0
M  V30 17 N 3.45455 0.0738559 0.55997 0
M  V30 18 C 4.61197 0.751031 0.52354 0
M  V30 19 N 4.74957 2.07425 1.01429 0
M  V30 20 C 5.75133 0.166159 -0.00987467 0
M  V30 21 C 5.64605 -1.11585 -0.491798 0
M  V30 22 N 4.4536 -1.74338 -0.426348 0
M  V30 23 N 6.8047 -1.72555 -1.0402 0
M  V30 24 H -7.07148 -1.43453 0.984198 0
M  V30 25 H -5.52536 -1.87664 1.88122 0
M  V30 26 H -5.79825 -2.37528 0.119758 0
M  V30 27 H -3.59881 -2.10405 1.03107 0
M  V30 28 H -1.81955 2.11426 -0.638822 0
M  V30 29 H -4.84067 3.76767 -1.64421 0
M  V30 30 H -3.74097 3.94827 -0.192465 0
M  V30 31 H -3.17757 3.17065 -1.71472 0
M  V30 32 H 0.429799 0.0217574 -0.974996 0
M  V30 33 H 0.533414 1.01245 0.574469 0
M  V30 34 H 0.675127 -0.831967 1.9521 0
M  V30 35 H 4.07948 2.79922 0.703103 0
M  V30 36 H 5.50371 2.34653 1.67964 0
M  V30 37 H 6.70595 0.669758 -0.0614581 0
M  V30 38 H 6.76231 -2.06117 -2.025 0
M  V30 39 H 7.69433 -1.85653 -0.515471 0
M  V30 END ATOM
M  V30 BEGIN BOND
M  V30 1 1 1 2
M  V30 2 1 2 3
M  V30 3 2 3 4
M  V30 4 1 4 5
M  V30 5 2 5 6
M  V30 6 1 6 7
M  V30 7 2 7 8
M  V30 8 1 8 9
M  V30 9 1 9 10
M  V30 10 1 6 11
M  V30 11 1 11 12
M  V30 12 1 12 13
M  V30 13 2 13 14
M  V30 14 1 12 15
M  V30 15 1 15 16
M  V30 16 2 16 17
M  V30 17 1 17 18
M  V30 18 1 18 19
M  V30 19 2 18 20
M  V30 20 1 20 21
M  V30 21 2 21 22
M  V30 22 1 21 23
M  V30 23 1 8 3
M  V30 24 1 22 16
M  V30 25 1 13 5
M  V30 26 1 1 24
M  V30 27 1 1 25
M  V30 28 1 1 26
M  V30 29 1 4 27
M  V30 30 1 7 28
M  V30 31 1 10 29
M  V30 32 1 10 30
M  V30 33 1 10 31
M  V30 34 1 11 32
M  V30 35 1 11 33
M  V30 36 1 12 34
M  V30 37 1 19 35
M  V30 38 1 19 36
M  V30 39 1 20 37
M  V30 40 1 23 38
M  V30 41 1 23 39
M  V30 END BOND
M  V30 END CTAB
M  END
