
     RDKit          3D

  0  0  0  0  0  0  0  0  0  0999 V3000
M  V30 BEGIN CTAB
M  V30 COUNTS 49 49 0 0 0
M  V30 BEGIN ATOM
M  V30 1 C -6.77281 1.27433 -0.447976 0
M  V30 2 C -6.6215 0.296182 0.694977 0
M  V30 3 C -6.12862 -1.01718 0.155512 0
M  V30 4 C -4.80825 -0.917104 -0.533692 0
M  V30 5 C -3.71408 -0.409909 0.386827 0
M  V30 6 C -2.38733 -0.317739 -0.335273 0
M  V30 7 C -1.36727 0.194035 0.659802 0
M  V30 8 C 0.00721001 0.332893 0.0628347 0
M  V30 9 C 0.923293 0.847749 1.15095 0
M  V30 10 C 2.33775 1.02833 0.669409 0
M  V30 11 O 2.80623 -0.205046 0.237256 0
M  V30 12 N 4.08489 -0.132176 -0.217085 0
M  V30 13 C 5.16492 -0.407992 0.683984 0
M  V30 14 C 4.97886 -1.7589 1.37367 0
M  V30 15 N 6.42694 -0.290293 0.0601788 0
M  V30 16 C 6.58736 0.0245595 -1.1613 0
M  V30 17 N 7.95161 0.0962622 -1.62412 0
M  V30 18 N 5.51761 0.299056 -2.05832 0
M  V30 19 C 4.32559 0.2118 -1.56056 0
M  V30 20 N 3.16957 0.464959 -2.36434 0
M  V30 21 H -5.82977 1.79819 -0.652028 0
M  V30 22 H -7.11069 0.716969 -1.34286 0
M  V30 23 H -7.51993 2.05266 -0.132872 0
M  V30 24 H -6.00651 0.691658 1.50219 0
M  V30 25 H -7.64773 0.10515 1.10933 0
M  V30 26 H -6.07273 -1.78649 0.952155 0
M  V30 27 H -6.87839 -1.37943 -0.575541 0
M  V30 28 H -4.56185 -1.9157 -0.944606 0
M  V30 29 H -4.91158 -0.197776 -1.37999 0
M  V30 30 H -3.58921 -1.194 1.17689 0
M  V30 31 H -3.95281 0.571158 0.812523 0
M  V30 32 H -2.44569 0.316804 -1.24414 0
M  V30 33 H -2.14273 -1.34362 -0.67409 0
M  V30 34 H -1.6679 1.16539 1.08832 0
M  V30 35 H -1.34781 -0.541013 1.49293 0
M  V30 36 H -0.0342541 1.10747 -0.748415 0
M  V30 37 H 0.374902 -0.582315 -0.407191 0
M  V30 38 H 0.501119 1.83116 1.48872 0
M  V30 39 H 0.917888 0.190323 2.02305 0
M  V30 40 H 2.2956 1.68454 -0.232743 0
M  V30 41 H 2.92287 1.46071 1.48131 0
M  V30 42 H 5.16804 0.358557 1.53285 0
M  V30 43 H 4.52511 -2.42534 0.608445 0
M  V30 44 H 4.23783 -1.58975 2.18224 0
M  V30 45 H 5.93804 -2.16942 1.73932 0
M  V30 46 H 8.22466 -0.30797 -2.52988 0
M  V30 47 H 8.63563 0.564991 -1.01546 0
M  V30 48 H 2.95641 1.46101 -2.57385 0
M  V30 49 H 2.53954 -0.257767 -2.74684 0
M  V30 END ATOM
M  V30 BEGIN BOND
M  V30 1 1 1 2
M  V30 2 1 2 3
M  V30 3 1 3 4
M  V30 4 1 4 5
M  V30 5 1 5 6
M  V30 6 1 6 7
M  V30 7 1 7 8
M  V30 8 1 8 9
M  V30 9 1 9 10
M  V30 10 1 10 11
M  V30 11 1 11 12
M  V30 12 1 12 13
M  V30 13 1 13 14
M  V30 14 1 13 15
M  V30 15 2 15 16
M  V30 16 1 16 17
M  V30 17 1 16 18
M  V30 18 2 18 19
M  V30 19 1 19 20
M  V30 20 1 19 12
M  V30 21 1 1 21
M  V30 22 1 1 22
M  V30 23 1 1 23
M  V30 24 1 2 24
M  V30 25 1 2 25
M  V30 26 1 3 26
M  V30 27 1 3 27
M  V30 28 1 4 28
M  V30 29 1 4 29
M  V30 30 1 5 30
M  V30 31 1 5 31
M  V30 32 1 6 32
M  V30 33 1 6 33
M  V30 34 1 7 34
M  V30 35 1 7 35
M  V30 36 1 8 36
M  V30 37 1 8 37
M  V30 38 1 9 38
M  V30 39 1 9 39
M  V30 40 1 10 40
M  V30 41 1 10 41
M  V30 42 1 13 42
M  V30 43 1 14 43
M  V30 44 1 14 44
M  V30 45 1 14 45
M  V30 46 1 17 46
M  V30 47 1 17 47
M  V30 48 1 20 48
M  V30 49 1 20 49
M  V30 END BOND
M  V30 END CTAB
M  END
