
     RDKit          3D

  0  0  0  0  0  0  0  0  0  0999 V3000
M  V30 BEGIN CTAB
M  V30 COUNTS 45 48 0 0 0
M  V30 BEGIN ATOM
M  V30 1 C 8.0549 0.350878 -1.30608 0
M  V30 2 O 7.1765 -0.514303 -0.612429 0
M  V30 3 C 5.84777 -0.127413 -0.507366 0
M  V30 4 C 5.38468 1.06106 -1.05783 0
M  V30 5 C 4.06246 1.40215 -0.929345 0
M  V30 6 C 3.17236 0.560023 -0.245858 0
M  V30 7 C 3.66218 -0.591296 0.278426 0
M  V30 8 C 4.99556 -0.963506 0.164067 0
M  V30 9 C 1.79605 0.971832 -0.108727 0
M  V30 10 O 1.52068 2.20893 -0.0148431 0
M  V30 11 C 0.678074 0.0274472 -0.074692 0
M  V30 12 C -0.632811 0.284813 0.0733686 0
M  V30 13 N -1.06382 1.66003 0.255349 0
M  V30 14 C -1.49875 -0.773555 0.0429275 0
M  V30 15 C -0.926407 -2.01013 -0.139156 0
M  V30 16 S 0.743909 -1.66363 -0.257288 0
M  V30 17 N -1.62975 -3.18682 -0.1983 0
M  V30 18 C -2.96762 -3.18645 -0.0759307 0
M  V30 19 N -3.73375 -4.36967 -0.130002 0
M  V30 20 C -3.60897 -1.99017 0.108301 0
M  V30 21 C -5.06346 -1.9613 0.244069 0
M  V30 22 N -6.21176 -1.92626 0.364717 0
M  V30 23 C -2.88438 -0.820053 0.164921 0
M  V30 24 C -3.65882 0.391147 0.367339 0
M  V30 25 C -3.89572 0.798507 1.65565 0
M  V30 26 I -3.15051 -0.255417 3.36017 0
M  V30 27 C -4.63384 1.92197 1.96376 0
M  V30 28 C -5.14025 2.64267 0.903077 0
M  V30 29 C -4.91091 2.24568 -0.410662 0
M  V30 30 C -4.1689 1.11819 -0.672592 0
M  V30 31 H 8.14523 1.34606 -0.816537 0
M  V30 32 H 7.63312 0.549205 -2.32499 0
M  V30 33 H 9.0618 -0.120705 -1.37687 0
M  V30 34 H 6.09862 1.69645 -1.58363 0
M  V30 35 H 3.72388 2.3349 -1.36728 0
M  V30 36 H 3.04449 -1.26285 0.823748 0
M  V30 37 H 5.31567 -1.89024 0.603132 0
M  V30 38 H -1.14441 2.09991 1.18685 0
M  V30 39 H -1.27901 2.19358 -0.603296 0
M  V30 40 H -3.83624 -4.95774 0.724785 0
M  V30 41 H -4.21908 -4.70511 -0.994486 0
M  V30 42 H -4.83365 2.26229 2.96679 0
M  V30 43 H -5.73257 3.53943 1.03087 0
M  V30 44 H -5.2974 2.79427 -1.25577 0
M  V30 45 H -3.99515 0.815201 -1.72832 0
M  V30 END ATOM
M  V30 BEGIN BOND
M  V30 1 1 1 2
M  V30 2 1 2 3
M  V30 3 2 3 4
M  V30 4 1 4 5
M  V30 5 2 5 6
M  V30 6 1 6 7
M  V30 7 2 7 8
M  V30 8 1 6 9
M  V30 9 2 9 10
M  V30 10 1 9 11
M  V30 11 2 11 12
M  V30 12 1 12 13
M  V30 13 1 12 14
M  V30 14 2 14 15
M  V30 15 1 15 16
M  V30 16 1 15 17
M  V30 17 2 17 18
M  V30 18 1 18 19
M  V30 19 1 18 20
M  V30 20 1 20 21
M  V30 21 3 21 22
M  V30 22 2 20 23
M  V30 23 1 23 24
M  V30 24 2 24 25
M  V30 25 1 25 26
M  V30 26 1 25 27
M  V30 27 2 27 28
M  V30 28 1 28 29
M  V30 29 2 29 30
M  V30 30 1 8 3
M  V30 31 1 16 11
M  V30 32 1 30 24
M  V30 33 1 23 14
M  V30 34 1 1 31
M  V30 35 1 1 32
M  V30 36 1 1 33
M  V30 37 1 4 34
M  V30 38 1 5 35
M  V30 39 1 7 36
M  V30 40 1 8 37
M  V30 41 1 13 38
M  V30 42 1 13 39
M  V30 43 1 19 40
M  V30 44 1 19 41
M  V30 45 1 27 42
M  V30 46 1 28 43
M  V30 47 1 29 44
M  V30 48 1 30 45
M  V30 END BOND
M  V30 END CTAB
M  END
