
     RDKit          3D

  0  0  0  0  0  0  0  0  0  0999 V3000
M  V30 BEGIN CTAB
M  V30 COUNTS 27 28 0 0 0
M  V30 BEGIN ATOM
M  V30 1 N -3.22042 -0.301594 0.947821 0
M  V30 2 C -2.64504 0.406704 -0.20609 0
M  V30 3 C -1.22233 -0.0250966 -0.268052 0
M  V30 4 C -0.974679 -1.30792 -0.749649 0
M  V30 5 N -2.13974 -2.01917 -1.18579 0
M  V30 6 N 0.24671 -1.77367 -0.804602 0
M  V30 7 C 1.3023 -1.0242 -0.407716 0
M  V30 8 C 1.09885 0.237123 0.0579498 0
M  V30 9 C -0.189406 0.771617 0.137519 0
M  V30 10 C -0.23606 2.19335 0.502403 0
M  V30 11 C 2.20942 0.965811 0.475581 0
M  V30 12 C 3.50407 0.409345 0.434627 0
M  V30 13 C 3.69015 -0.856521 -0.0315397 0
M  V30 14 C 2.60477 -1.57859 -0.444323 0
M  V30 15 Br 5.0095 1.3922 1.05569 0
M  V30 16 H -4.17075 -0.268148 1.09205 0
M  V30 17 H -2.5344 -0.664019 1.59808 0
M  V30 18 H -3.25123 0.479532 -1.08347 0
M  V30 19 H -2.654 1.49445 0.322921 0
M  V30 20 H -2.62064 -2.75451 -0.69341 0
M  V30 21 H -2.51489 -1.67411 -2.11662 0
M  V30 22 H -1.23849 2.62704 0.474302 0
M  V30 23 H 0.226987 2.46982 1.43665 0
M  V30 24 H 0.294523 2.77023 -0.354224 0
M  V30 25 H 2.0957 1.96135 0.778178 0
M  V30 26 H 4.6504 -1.35219 -0.125582 0
M  V30 27 H 2.67869 -2.57882 -0.842702 0
M  V30 END ATOM
M  V30 BEGIN BOND
M  V30 1 1 1 2
M  V30 2 1 2 3
M  V30 3 2 3 4
M  V30 4 1 4 5
M  V30 5 1 4 6
M  V30 6 2 6 7
M  V30 7 1 7 8
M  V30 8 2 8 9
M  V30 9 1 9 10
M  V30 10 1 8 11
M  V30 11 2 11 12
M  V30 12 1 12 13
M  V30 13 2 13 14
M  V30 14 1 12 15
M  V30 15 1 9 3
M  V30 16 1 14 7
M  V30 17 1 1 16
M  V30 18 1 1 17
M  V30 19 1 2 18
M  V30 20 1 2 19
M  V30 21 1 5 20
M  V30 22 1 5 21
M  V30 23 1 10 22
M  V30 24 1 10 23
M  V30 25 1 10 24
M  V30 26 1 11 25
M  V30 27 1 13 26
M  V30 28 1 14 27
M  V30 END BOND
M  V30 END CTAB
M  END
