
     RDKit          3D

  0  0  0  0  0  0  0  0  0  0999 V3000
M  V30 BEGIN CTAB
M  V30 COUNTS 34 36 0 0 0
M  V30 BEGIN ATOM
M  V30 1 N 0.883596 -2.69836 -1.77201 0
M  V30 2 C 1.31459 -1.49583 -1.1387 0
M  V30 3 C 2.62857 -1.09915 -1.10975 0
M  V30 4 C 3.05515 0.0568335 -0.502825 0
M  V30 5 C 2.09609 0.878466 0.122417 0
M  V30 6 O 2.5356 1.99664 0.705379 0
M  V30 7 C 0.773633 0.496983 0.103605 0
M  V30 8 C 0.396051 -0.674141 -0.519653 0
M  V30 9 C -1.00347 -1.06998 -0.535031 0
M  V30 10 O -1.36328 -2.15416 -1.11043 0
M  V30 11 C -2.01876 -0.246589 0.0998101 0
M  V30 12 C -3.33845 -0.711166 0.0321743 0
M  V30 13 N -3.66069 -1.92116 -0.622216 0
M  V30 14 C -4.29706 0.0711018 0.634388 0
M  V30 15 C -4.00633 1.23892 1.26907 0
M  V30 16 C -2.67366 1.69922 1.33222 0
M  V30 17 O -2.39257 2.85087 1.95896 0
M  V30 18 C -1.67277 0.931447 0.731941 0
M  V30 19 C -0.260639 1.3337 0.74911 0
M  V30 20 O 0.0604025 2.39639 1.31798 0
M  V30 21 S 4.74867 0.544033 -0.479574 0
M  V30 22 O 5.30886 0.67635 1.08358 0
M  V30 23 O 5.55483 -0.512513 -1.17953 0
M  V30 24 O 4.92064 1.82915 -1.23291 0
M  V30 25 H 0.623617 -2.6054 -2.78813 0
M  V30 26 H 0.824337 -3.61294 -1.27856 0
M  V30 27 H 3.36131 -1.73241 -1.59063 0
M  V30 28 H 2.28748 2.77349 1.19541 0
M  V30 29 H -4.0177 -1.88932 -1.593 0
M  V30 30 H -3.54041 -2.82803 -0.134601 0
M  V30 31 H -5.32968 -0.305805 0.573669 0
M  V30 32 H -4.75896 1.85354 1.74216 0
M  V30 33 H -1.66605 3.39992 2.16681 0
M  V30 34 H 4.62702 0.529899 1.76889 0
M  V30 END ATOM
M  V30 BEGIN BOND
M  V30 1 1 1 2
M  V30 2 2 2 3
M  V30 3 1 3 4
M  V30 4 2 4 5
M  V30 5 1 5 6
M  V30 6 1 5 7
M  V30 7 2 7 8
M  V30 8 1 8 9
M  V30 9 2 9 10
M  V30 10 1 9 11
M  V30 11 2 11 12
M  V30 12 1 12 13
M  V30 13 1 12 14
M  V30 14 2 14 15
M  V30 15 1 15 16
M  V30 16 1 16 17
M  V30 17 2 16 18
M  V30 18 1 18 19
M  V30 19 2 19 20
M  V30 20 1 4 21
M  V30 21 1 21 22
M  V30 22 2 21 23
M  V30 23 2 21 24
M  V30 24 1 8 2
M  V30 25 1 18 11
M  V30 26 1 19 7
M  V30 27 1 1 25
M  V30 28 1 1 26
M  V30 29 1 3 27
M  V30 30 1 6 28
M  V30 31 1 13 29
M  V30 32 1 13 30
M  V30 33 1 14 31
M  V30 34 1 15 32
M  V30 35 1 17 33
M  V30 36 1 22 34
M  V30 END BOND
M  V30 END CTAB
M  END
