
     RDKit          3D

  0  0  0  0  0  0  0  0  0  0999 V3000
M  V30 BEGIN CTAB
M  V30 COUNTS 22 23 0 0 0
M  V30 BEGIN ATOM
M  V30 1 N 3.9257 1.6496 -0.816263 0
M  V30 2 C 2.82275 0.879314 -0.362819 0
M  V30 3 N 1.51657 1.08161 -0.707834 0
M  V30 4 N 0.744399 0.19201 -0.113125 0
M  V30 5 C 1.6017 -0.577265 0.617055 0
M  V30 6 N 2.86152 -0.158137 0.463711 0
M  V30 7 N 1.14392 -1.65837 1.40784 0
M  V30 8 C -0.668022 0.0658596 -0.213252 0
M  V30 9 C -1.53916 1.06737 0.180032 0
M  V30 10 C -2.89644 0.970274 0.0940182 0
M  V30 11 C -3.46762 -0.174107 -0.407404 0
M  V30 12 C -2.61877 -1.20782 -0.815004 0
M  V30 13 C -1.2485 -1.08415 -0.717359 0
M  V30 14 F -0.499861 -2.13357 -1.13492 0
M  V30 15 H 4.13846 2.55507 -0.358424 0
M  V30 16 H 4.48357 1.26636 -1.60243 0
M  V30 17 H 0.463511 -1.5464 2.17875 0
M  V30 18 H 1.50955 -2.60476 1.20207 0
M  V30 19 H -1.09924 1.96981 0.575096 0
M  V30 20 H -3.55496 1.78716 0.416528 0
M  V30 21 H -4.53615 -0.254249 -0.476689 0
M  V30 22 H -3.08292 -2.08561 -1.20048 0
M  V30 END ATOM
M  V30 BEGIN BOND
M  V30 1 1 1 2
M  V30 2 2 2 3
M  V30 3 1 3 4
M  V30 4 1 4 5
M  V30 5 2 5 6
M  V30 6 1 5 7
M  V30 7 1 4 8
M  V30 8 2 8 9
M  V30 9 1 9 10
M  V30 10 2 10 11
M  V30 11 1 11 12
M  V30 12 2 12 13
M  V30 13 1 13 14
M  V30 14 1 6 2
M  V30 15 1 13 8
M  V30 16 1 1 15
M  V30 17 1 1 16
M  V30 18 1 7 17
M  V30 19 1 7 18
M  V30 20 1 9 19
M  V30 21 1 10 20
M  V30 22 1 11 21
M  V30 23 1 12 22
M  V30 END BOND
M  V30 END CTAB
M  END
