
     RDKit          3D

  0  0  0  0  0  0  0  0  0  0999 V3000
M  V30 BEGIN CTAB
M  V30 COUNTS 63 66 0 0 0
M  V30 BEGIN ATOM
M  V30 1 C 1.05665 5.01944 2.03669 0
M  V30 2 O 1.7145 3.78404 1.9311 0
M  V30 3 C 1.03714 2.59142 1.71237 0
M  V30 4 O -0.19646 2.62865 1.60824 0
M  V30 5 C 1.72138 1.28124 1.5981 0
M  V30 6 C 1.72822 0.75385 0.200844 0
M  V30 7 C 2.4412 -0.577638 0.174442 0
M  V30 8 C 3.85555 -0.180938 -0.115133 0
M  V30 9 N 3.86405 1.02971 -0.555947 0
M  V30 10 O 2.57455 1.53487 -0.606444 0
M  V30 11 C 5.05262 -0.991494 0.0620346 0
M  V30 12 C 4.93567 -2.28389 0.538203 0
M  V30 13 C 6.0615 -3.03614 0.707273 0
M  V30 14 C 7.29315 -2.53899 0.416737 0
M  V30 15 C 7.42175 -1.25037 -0.0591276 0
M  V30 16 C 6.31214 -0.493192 -0.231641 0
M  V30 17 C 8.77244 -0.792008 -0.339459 0
M  V30 18 N 9.90399 -1.63659 -0.117994 0
M  V30 19 N 9.02222 0.373735 -0.790088 0
M  V30 20 C 0.351607 0.680747 -0.397795 0
M  V30 21 O 0.165423 1.29713 -1.46897 0
M  V30 22 N -0.672834 -0.0421178 0.214954 0
M  V30 23 C -1.98911 -0.157795 -0.261934 0
M  V30 24 C -2.71368 -1.27182 0.211046 0
M  V30 25 C -4.01507 -1.44241 -0.187992 0
M  V30 26 C -4.66862 -0.576461 -1.03585 0
M  V30 27 C -3.9288 0.4985 -1.47635 0
M  V30 28 C -2.6186 0.724966 -1.11252 0
M  V30 29 C -6.05548 -0.751914 -1.42574 0
M  V30 30 C -7.05128 -0.572045 -0.509041 0
M  V30 31 C -8.35827 -0.787512 -0.957713 0
M  V30 32 C -8.67032 -1.1598 -2.24177 0
M  V30 33 C -7.66253 -1.3349 -3.14774 0
M  V30 34 C -6.36557 -1.13274 -2.74345 0
M  V30 35 S -6.77879 -0.0747141 1.12959 0
M  V30 36 N -5.91705 1.42832 1.20613 0
M  V30 37 O -8.16001 0.265464 1.72091 0
M  V30 38 O -6.22802 -1.11857 2.01875 0
M  V30 39 H 1.1254 5.40762 3.06153 0
M  V30 40 H -0.00627519 4.8531 1.77707 0
M  V30 41 H 1.50192 5.75256 1.35853 0
M  V30 42 H 2.77537 1.44043 1.89762 0
M  V30 43 H 1.28946 0.545586 2.33042 0
M  V30 44 H 2.03532 -1.23298 -0.622581 0
M  V30 45 H 2.46562 -1.0773 1.16241 0
M  V30 46 H 3.9631 -2.68614 0.770773 0
M  V30 47 H 6.00045 -4.051 1.07861 0
M  V30 48 H 8.17832 -3.16839 0.563127 0
M  V30 49 H 6.3813 0.532842 -0.607934 0
M  V30 50 H 9.9521 -2.63127 -0.418324 0
M  V30 51 H 10.7657 -1.26972 0.377651 0
M  V30 52 H 8.26023 1.04562 -0.975375 0
M  V30 53 H -0.42516 -0.53967 1.12313 0
M  V30 54 H -2.23249 -1.97809 0.882155 0
M  V30 55 H -4.52809 -2.34777 0.193551 0
M  V30 56 H -4.37822 1.2302 -2.15348 0
M  V30 57 H -2.09304 1.60729 -1.4881 0
M  V30 58 H -9.18763 -0.65901 -0.268147 0
M  V30 59 H -9.68016 -1.3234 -2.57833 0
M  V30 60 H -7.90552 -1.62971 -4.16472 0
M  V30 61 H -5.53003 -1.25751 -3.41956 0
M  V30 62 H -5.43811 1.50111 2.13147 0
M  V30 63 H -6.52481 2.24756 1.07116 0
M  V30 END ATOM
M  V30 BEGIN BOND
M  V30 1 1 1 2
M  V30 2 1 2 3
M  V30 3 2 3 4
M  V30 4 1 3 5
M  V30 5 1 5 6
M  V30 6 1 6 7
M  V30 7 1 7 8
M  V30 8 2 8 9
M  V30 9 1 9 10
M  V30 10 1 8 11
M  V30 11 2 11 12
M  V30 12 1 12 13
M  V30 13 2 13 14
M  V30 14 1 14 15
M  V30 15 2 15 16
M  V30 16 1 15 17
M  V30 17 1 17 18
M  V30 18 2 17 19 CFG=2
M  V30 19 1 6 20
M  V30 20 2 20 21
M  V30 21 1 20 22
M  V30 22 1 22 23
M  V30 23 2 23 24
M  V30 24 1 24 25
M  V30 25 2 25 26
M  V30 26 1 26 27
M  V30 27 2 27 28
M  V30 28 1 26 29
M  V30 29 2 29 30
M  V30 30 1 30 31
M  V30 31 2 31 32
M  V30 32 1 32 33
M  V30 33 2 33 34
M  V30 34 1 30 35
M  V30 35 1 35 36
M  V30 36 2 35 37
M  V30 37 2 35 38
M  V30 38 1 10 6
M  V30 39 1 16 11
M  V30 40 1 28 23
M  V30 41 1 34 29
M  V30 42 1 1 39
M  V30 43 1 1 40
M  V30 44 1 1 41
M  V30 45 1 5 42
M  V30 46 1 5 43
M  V30 47 1 7 44
M  V30 48 1 7 45
M  V30 49 1 12 46
M  V30 50 1 13 47
M  V30 51 1 14 48
M  V30 52 1 16 49
M  V30 53 1 18 50
M  V30 54 1 18 51
M  V30 55 1 19 52
M  V30 56 1 22 53
M  V30 57 1 24 54
M  V30 58 1 25 55
M  V30 59 1 27 56
M  V30 60 1 28 57
M  V30 61 1 31 58
M  V30 62 1 32 59
M  V30 63 1 33 60
M  V30 64 1 34 61
M  V30 65 1 36 62
M  V30 66 1 36 63
M  V30 END BOND
M  V30 END CTAB
M  END
