
     RDKit          3D

  0  0  0  0  0  0  0  0  0  0999 V3000
M  V30 BEGIN CTAB
M  V30 COUNTS 33 34 0 0 0
M  V30 BEGIN ATOM
M  V30 1 N 3.62348 1.46683 -0.0541508 0
M  V30 2 C 3.59243 0.161856 0.495788 0
M  V30 3 S 4.97249 -0.656487 0.734158 0
M  V30 4 N 2.34553 -0.435933 0.841535 0
M  V30 5 N 1.18019 0.23102 0.655531 0
M  V30 6 C 0.0592137 -0.0941497 0.164844 0
M  V30 7 C -0.17711 -1.42717 -0.350365 0
M  V30 8 C -1.41692 -2.04339 -0.329259 0
M  V30 9 C -1.68461 -3.26686 -0.891545 0
M  V30 10 C -0.664234 -3.9409 -1.52032 0
M  V30 11 C 0.572533 -3.3863 -1.57062 0
M  V30 12 C 0.830411 -2.15006 -1.00075 0
M  V30 13 C -0.965137 0.967202 0.15903 0
M  V30 14 C -2.1133 0.926543 -0.596498 0
M  V30 15 C -3.01605 1.98487 -0.664065 0
M  V30 16 Cl -4.46641 1.86456 -1.6478 0
M  V30 17 C -2.72399 3.10897 0.0627179 0
M  V30 18 C -1.58101 3.16697 0.820595 0
M  V30 19 C -0.680019 2.12804 0.898196 0
M  V30 20 N 0.486961 2.21313 1.70716 0
M  V30 21 H 3.0867 1.70505 -0.911907 0
M  V30 22 H 4.20081 2.18208 0.426745 0
M  V30 23 H 2.40578 -1.41559 1.24375 0
M  V30 24 H -2.24834 -1.57501 0.200155 0
M  V30 25 H -2.70205 -3.68612 -0.83142 0
M  V30 26 H -0.914468 -4.91467 -1.95729 0
M  V30 27 H 1.37279 -3.94565 -2.07869 0
M  V30 28 H 1.83032 -1.78894 -1.11067 0
M  V30 29 H -2.35393 0.0767262 -1.22977 0
M  V30 30 H -3.40929 3.95642 0.0323054 0
M  V30 31 H -1.33422 4.05754 1.40505 0
M  V30 32 H 1.29123 2.77416 1.35746 0
M  V30 33 H 0.600212 1.75528 2.63671 0
M  V30 END ATOM
M  V30 BEGIN BOND
M  V30 1 1 1 2
M  V30 2 2 2 3
M  V30 3 1 2 4
M  V30 4 1 4 5
M  V30 5 2 5 6 CFG=2
M  V30 6 1 6 7
M  V30 7 2 7 8
M  V30 8 1 8 9
M  V30 9 2 9 10
M  V30 10 1 10 11
M  V30 11 2 11 12
M  V30 12 1 6 13
M  V30 13 2 13 14
M  V30 14 1 14 15
M  V30 15 1 15 16
M  V30 16 2 15 17
M  V30 17 1 17 18
M  V30 18 2 18 19
M  V30 19 1 19 20
M  V30 20 1 12 7
M  V30 21 1 19 13
M  V30 22 1 1 21
M  V30 23 1 1 22
M  V30 24 1 4 23
M  V30 25 1 8 24
M  V30 26 1 9 25
M  V30 27 1 10 26
M  V30 28 1 11 27
M  V30 29 1 12 28
M  V30 30 1 14 29
M  V30 31 1 17 30
M  V30 32 1 18 31
M  V30 33 1 20 32
M  V30 34 1 20 33
M  V30 END BOND
M  V30 END CTAB
M  END
