
     RDKit          3D

  0  0  0  0  0  0  0  0  0  0999 V3000
M  V30 BEGIN CTAB
M  V30 COUNTS 59 61 0 0 0
M  V30 BEGIN ATOM
M  V30 1 N -4.13827 2.16372 0.975045 0
M  V30 2 C -4.40612 0.803543 1.34847 0
M  V30 3 C -3.69319 -0.084394 0.298697 0
M  V30 4 C -3.99516 -1.4898 0.714104 0
M  V30 5 C -5.48634 -1.7413 0.676984 0
M  V30 6 C -6.16663 -1.20016 -0.530995 0
M  V30 7 C -5.77401 0.174136 -0.946709 0
M  V30 8 C -4.25528 0.230292 -1.05093 0
M  V30 9 C -2.25706 0.270911 0.379279 0
M  V30 10 C -1.35352 -0.442922 -0.515072 0
M  V30 11 O -1.77705 -1.32844 -1.2865 0
M  V30 12 N 0.0422405 -0.125598 -0.510912 0
M  V30 13 C 0.556335 0.898512 0.375496 0
M  V30 14 C 2.00906 0.544794 0.649432 0
M  V30 15 C 2.73805 0.729182 -0.667516 0
M  V30 16 C 2.14131 -0.0342832 -1.79618 0
M  V30 17 C 0.926641 -0.843629 -1.40417 0
M  V30 18 C 4.23382 0.598937 -0.525125 0
M  V30 19 O 4.66275 1.61079 0.360592 0
M  V30 20 C 6.01511 1.78331 0.363375 0
M  V30 21 C 6.83477 0.555707 0.471765 0
M  V30 22 C 6.21505 -0.690232 -0.0438729 0
M  V30 23 C 4.68807 -0.675414 0.119509 0
M  V30 24 N 4.16836 -1.87651 -0.43739 0
M  V30 25 H -4.95705 2.78281 1.09824 0
M  V30 26 H -3.27189 2.51604 1.44269 0
M  V30 27 H -3.91118 0.629947 2.3281 0
M  V30 28 H -5.45238 0.545721 1.45616 0
M  V30 29 H -3.50247 -2.27915 0.153426 0
M  V30 30 H -3.68356 -1.59909 1.78375 0
M  V30 31 H -5.61779 -2.86106 0.660114 0
M  V30 32 H -5.98043 -1.41697 1.61815 0
M  V30 33 H -6.10045 -1.87964 -1.41294 0
M  V30 34 H -7.27061 -1.16639 -0.292586 0
M  V30 35 H -6.13693 0.319845 -1.99256 0
M  V30 36 H -6.20756 0.984054 -0.363092 0
M  V30 37 H -3.91847 1.25362 -1.34395 0
M  V30 38 H -3.97016 -0.510961 -1.79393 0
M  V30 39 H -2.16186 1.36874 0.108912 0
M  V30 40 H -1.92304 0.24188 1.44343 0
M  V30 41 H 0.00328914 0.988141 1.31257 0
M  V30 42 H 0.580512 1.87015 -0.196668 0
M  V30 43 H 2.44429 1.25045 1.37352 0
M  V30 44 H 2.04347 -0.508763 0.995782 0
M  V30 45 H 2.5754 1.82703 -0.908267 0
M  V30 46 H 2.83729 -0.729775 -2.31862 0
M  V30 47 H 1.77923 0.641585 -2.63028 0
M  V30 48 H 0.400128 -1.11216 -2.36684 0
M  V30 49 H 1.16954 -1.81953 -0.942153 0
M  V30 50 H 4.68016 0.775528 -1.50796 0
M  V30 51 H 6.25171 2.42386 1.26465 0
M  V30 52 H 6.34293 2.42273 -0.503694 0
M  V30 53 H 7.78376 0.726267 -0.117425 0
M  V30 54 H 7.18668 0.368134 1.51315 0
M  V30 55 H 6.39409 -0.799095 -1.13971 0
M  V30 56 H 6.64837 -1.56866 0.478098 0
M  V30 57 H 4.53293 -0.6069 1.23464 0
M  V30 58 H 4.92409 -2.57505 -0.637947 0
M  V30 59 H 3.55903 -2.33449 0.298109 0
M  V30 END ATOM
M  V30 BEGIN BOND
M  V30 1 1 1 2
M  V30 2 1 2 3
M  V30 3 1 3 4
M  V30 4 1 4 5
M  V30 5 1 5 6
M  V30 6 1 6 7
M  V30 7 1 7 8
M  V30 8 1 3 9
M  V30 9 1 9 10
M  V30 10 2 10 11
M  V30 11 1 10 12
M  V30 12 1 12 13
M  V30 13 1 13 14
M  V30 14 1 14 15
M  V30 15 1 15 16
M  V30 16 1 16 17
M  V30 17 1 15 18
M  V30 18 1 18 19
M  V30 19 1 19 20
M  V30 20 1 20 21
M  V30 21 1 21 22
M  V30 22 1 22 23
M  V30 23 1 23 24
M  V30 24 1 8 3
M  V30 25 1 17 12
M  V30 26 1 23 18
M  V30 27 1 1 25
M  V30 28 1 1 26
M  V30 29 1 2 27
M  V30 30 1 2 28
M  V30 31 1 4 29
M  V30 32 1 4 30
M  V30 33 1 5 31
M  V30 34 1 5 32
M  V30 35 1 6 33
M  V30 36 1 6 34
M  V30 37 1 7 35
M  V30 38 1 7 36
M  V30 39 1 8 37
M  V30 40 1 8 38
M  V30 41 1 9 39
M  V30 42 1 9 40
M  V30 43 1 13 41
M  V30 44 1 13 42
M  V30 45 1 14 43
M  V30 46 1 14 44
M  V30 47 1 15 45
M  V30 48 1 16 46
M  V30 49 1 16 47
M  V30 50 1 17 48
M  V30 51 1 17 49
M  V30 52 1 18 50
M  V30 53 1 20 51
M  V30 54 1 20 52
M  V30 55 1 21 53
M  V30 56 1 21 54
M  V30 57 1 22 55
M  V30 58 1 22 56
M  V30 59 1 23 57
M  V30 60 1 24 58
M  V30 61 1 24 59
M  V30 END BOND
M  V30 END CTAB
M  END
