
     RDKit          3D

  0  0  0  0  0  0  0  0  0  0999 V3000
M  V30 BEGIN CTAB
M  V30 COUNTS 28 28 0 0 0
M  V30 BEGIN ATOM
M  V30 1 N 3.49065 -0.107298 1.43621 0
M  V30 2 N 2.4788 0.534955 0.72548 0
M  V30 3 C 1.86427 0.0365246 -0.273981 0
M  V30 4 N 0.829596 0.71812 -0.984847 0
M  V30 5 C -0.564875 0.616001 -0.609752 0
M  V30 6 C -1.36614 1.47305 -1.59054 0
M  V30 7 C -0.989894 -0.803359 -0.817659 0
M  V30 8 C -1.1547 -1.48905 0.528938 0
M  V30 9 C -2.21867 -0.742114 1.25281 0
M  V30 10 C -2.06031 0.570489 1.36709 0
M  V30 11 C -0.837008 1.15348 0.759702 0
M  V30 12 N 2.22757 -1.2685 -0.705501 0
M  V30 13 H 3.56876 -1.13487 1.58297 0
M  V30 14 H 4.23255 0.490532 1.8569 0
M  V30 15 H 1.14552 1.2962 -1.79465 0
M  V30 16 H -0.871363 2.47505 -1.61001 0
M  V30 17 H -2.37943 1.63559 -1.20878 0
M  V30 18 H -1.38349 1.02061 -2.60494 0
M  V30 19 H -1.99916 -0.842778 -1.29834 0
M  V30 20 H -0.259127 -1.36032 -1.4408 0
M  V30 21 H -1.40853 -2.55662 0.400582 0
M  V30 22 H -0.21163 -1.37507 1.12671 0
M  V30 23 H -3.06882 -1.27493 1.65506 0
M  V30 24 H -2.81586 1.14454 1.88789 0
M  V30 25 H -1.02555 2.26108 0.674324 0
M  V30 26 H 0.0401173 1.05684 1.43322 0
M  V30 27 H 2.77226 -1.38936 -1.59106 0
M  V30 28 H 1.96445 -2.13878 -0.157011 0
M  V30 END ATOM
M  V30 BEGIN BOND
M  V30 1 1 1 2
M  V30 2 2 2 3
M  V30 3 1 3 4
M  V30 4 1 4 5
M  V30 5 1 5 6
M  V30 6 1 5 7
M  V30 7 1 7 8
M  V30 8 1 8 9
M  V30 9 2 9 10
M  V30 10 1 10 11
M  V30 11 1 3 12
M  V30 12 1 11 5
M  V30 13 1 1 13
M  V30 14 1 1 14
M  V30 15 1 4 15
M  V30 16 1 6 16
M  V30 17 1 6 17
M  V30 18 1 6 18
M  V30 19 1 7 19
M  V30 20 1 7 20
M  V30 21 1 8 21
M  V30 22 1 8 22
M  V30 23 1 9 23
M  V30 24 1 10 24
M  V30 25 1 11 25
M  V30 26 1 11 26
M  V30 27 1 12 27
M  V30 28 1 12 28
M  V30 END BOND
M  V30 END CTAB
M  END
