
     RDKit          3D

  0  0  0  0  0  0  0  0  0  0999 V3000
M  V30 BEGIN CTAB
M  V30 COUNTS 21 21 0 0 0
M  V30 BEGIN ATOM
M  V30 1 C -3.12094 -0.26543 -0.099358 0
M  V30 2 C -1.7649 -0.854908 -0.152951 0
M  V30 3 O -1.6762 -2.0897 -0.314578 0
M  V30 4 C -0.607458 0.0131039 -0.0174503 0
M  V30 5 C 0.675079 -0.550889 -0.0693291 0
M  V30 6 N 0.792713 -1.948 -0.252422 0
M  V30 7 C 1.80659 0.24669 0.0565568 0
M  V30 8 N 3.06999 -0.40438 -0.00719465 0
M  V30 9 C 1.66745 1.58685 0.231696 0
M  V30 10 C 0.411509 2.14591 0.283401 0
M  V30 11 C -0.722037 1.37639 0.1612 0
M  V30 12 H -3.87851 -0.969308 -0.438367 0
M  V30 13 H -3.17966 0.683191 -0.700447 0
M  V30 14 H -3.37021 0.0700657 0.949611 0
M  V30 15 H 0.658839 -2.4252 -1.16145 0
M  V30 16 H 1.02598 -2.55874 0.551825 0
M  V30 17 H 3.61032 -0.466558 0.882289 0
M  V30 18 H 3.49221 -0.817142 -0.855857 0
M  V30 19 H 2.5461 2.23022 0.332634 0
M  V30 20 H 0.287939 3.20511 0.421584 0
M  V30 21 H -1.72481 1.79272 0.198605 0
M  V30 END ATOM
M  V30 BEGIN BOND
M  V30 1 1 1 2
M  V30 2 2 2 3
M  V30 3 1 2 4
M  V30 4 2 4 5
M  V30 5 1 5 6
M  V30 6 1 5 7
M  V30 7 1 7 8
M  V30 8 2 7 9
M  V30 9 1 9 10
M  V30 10 2 10 11
M  V30 11 1 11 4
M  V30 12 1 1 12
M  V30 13 1 1 13
M  V30 14 1 1 14
M  V30 15 1 6 15
M  V30 16 1 6 16
M  V30 17 1 8 17
M  V30 18 1 8 18
M  V30 19 1 9 19
M  V30 20 1 10 20
M  V30 21 1 11 21
M  V30 END BOND
M  V30 END CTAB
M  END
