
     RDKit          3D

  0  0  0  0  0  0  0  0  0  0999 V3000
M  V30 BEGIN CTAB
M  V30 COUNTS 30 32 0 0 0
M  V30 BEGIN ATOM
M  V30 1 N -1.78441 1.82965 0.33938 0
M  V30 2 C -0.979033 0.691741 0.641256 0
M  V30 3 C 0.450712 1.01268 0.963453 0
M  V30 4 C 1.29171 1.32422 -0.22533 0
M  V30 5 C 1.18865 0.190533 -1.23587 0
M  V30 6 C -0.251733 0.0674793 -1.62402 0
M  V30 7 C -1.04106 -0.384831 -0.436789 0
M  V30 8 N -2.38786 -0.661077 -0.831738 0
M  V30 9 C -0.469824 -1.64319 0.185664 0
M  V30 10 C 0.932746 -1.37636 0.65674 0
M  V30 11 C 1.03628 -0.240834 1.62684 0
M  V30 12 C 1.75276 -1.03684 -0.586851 0
M  V30 13 H -2.69429 1.79891 0.877332 0
M  V30 14 H -1.34021 2.7449 0.565719 0
M  V30 15 H -1.40378 0.19395 1.56363 0
M  V30 16 H 0.494238 1.80399 1.71987 0
M  V30 17 H 1.05972 2.27929 -0.711654 0
M  V30 18 H 2.35876 1.32876 0.10866 0
M  V30 19 H 1.79365 0.39673 -2.14154 0
M  V30 20 H -0.607195 1.11164 -1.8681 0
M  V30 21 H -0.426344 -0.52296 -2.52828 0
M  V30 22 H -2.94616 -1.14976 -0.108346 0
M  V30 23 H -2.87265 0.159815 -1.23601 0
M  V30 24 H -0.381182 -2.38172 -0.660906 0
M  V30 25 H -1.14705 -2.00259 0.969208 0
M  V30 26 H 1.31136 -2.29708 1.13306 0
M  V30 27 H 0.524547 -0.472184 2.57534 0
M  V30 28 H 2.11389 -0.0294547 1.78159 0
M  V30 29 H 1.65522 -1.90632 -1.26333 0
M  V30 30 H 2.76856 -0.829095 -0.248995 0
M  V30 END ATOM
M  V30 BEGIN BOND
M  V30 1 1 1 2
M  V30 2 1 2 3
M  V30 3 1 3 4
M  V30 4 1 4 5
M  V30 5 1 5 6
M  V30 6 1 6 7
M  V30 7 1 7 8
M  V30 8 1 7 9
M  V30 9 1 9 10
M  V30 10 1 10 11
M  V30 11 1 10 12
M  V30 12 1 7 2
M  V30 13 1 11 3
M  V30 14 1 12 5
M  V30 15 1 1 13
M  V30 16 1 1 14
M  V30 17 1 2 15
M  V30 18 1 3 16
M  V30 19 1 4 17
M  V30 20 1 4 18
M  V30 21 1 5 19
M  V30 22 1 6 20
M  V30 23 1 6 21
M  V30 24 1 8 22
M  V30 25 1 8 23
M  V30 26 1 9 24
M  V30 27 1 9 25
M  V30 28 1 10 26
M  V30 29 1 11 27
M  V30 30 1 11 28
M  V30 31 1 12 29
M  V30 32 1 12 30
M  V30 END BOND
M  V30 END CTAB
M  END
