
     RDKit          3D

  0  0  0  0  0  0  0  0  0  0999 V3000
M  V30 BEGIN CTAB
M  V30 COUNTS 19 19 0 0 0
M  V30 BEGIN ATOM
M  V30 1 C 3.51114 0.147884 0.165813 0
M  V30 2 N 2.15774 -0.346016 0.1872 0
M  V30 3 N 1.76454 -1.57847 0.404883 0
M  V30 4 C 0.424891 -1.68876 0.352589 0
M  V30 5 C -0.0735309 -0.440563 0.0827834 0
M  V30 6 C 1.04981 0.383793 -0.0154826 0
M  V30 7 I 0.968023 2.44604 -0.420406 0
M  V30 8 C -1.46558 -0.0531452 -0.0690352 0
M  V30 9 N -1.74114 1.16316 -0.320417 0
M  V30 10 N -2.99935 1.69477 -0.492882 0
M  V30 11 N -2.44872 -1.06485 0.0734228 0
M  V30 12 H 4.1967 -0.686017 -0.0287862 0
M  V30 13 H 3.66837 0.885206 -0.668266 0
M  V30 14 H 3.78764 0.702265 1.09094 0
M  V30 15 H -0.164302 -2.58812 0.494805 0
M  V30 16 H -3.06649 2.72239 -0.70075 0
M  V30 17 H -3.8997 1.18509 -0.439354 0
M  V30 18 H -3.07683 -1.03828 0.905193 0
M  V30 19 H -2.59323 -1.84639 -0.602253 0
M  V30 END ATOM
M  V30 BEGIN BOND
M  V30 1 1 1 2
M  V30 2 1 2 3
M  V30 3 2 3 4
M  V30 4 1 4 5
M  V30 5 2 5 6
M  V30 6 1 6 7
M  V30 7 1 5 8
M  V30 8 2 8 9 CFG=2
M  V30 9 1 9 10
M  V30 10 1 8 11
M  V30 11 1 6 2
M  V30 12 1 1 12
M  V30 13 1 1 13
M  V30 14 1 1 14
M  V30 15 1 4 15
M  V30 16 1 10 16
M  V30 17 1 10 17
M  V30 18 1 11 18
M  V30 19 1 11 19
M  V30 END BOND
M  V30 END CTAB
M  END
