
     RDKit          3D

  0  0  0  0  0  0  0  0  0  0999 V3000
M  V30 BEGIN CTAB
M  V30 COUNTS 46 48 0 0 0
M  V30 BEGIN ATOM
M  V30 1 O 0.828404 -1.16396 -1.93202 0
M  V30 2 C 0.523008 -0.829375 -0.702693 0
M  V30 3 N -0.844869 -0.972565 -0.426988 0
M  V30 4 C -1.57139 -0.713418 0.781312 0
M  V30 5 C -3.01628 -1.09207 0.559201 0 CFG=2
M  V30 6 C -2.94073 -2.0192 -0.61645 0 CFG=1
M  V30 7 C -1.83719 -1.46501 -1.4352 0
M  V30 8 N -2.47521 -3.31274 -0.086531 0
M  V30 9 C -3.89947 0.0569431 0.409889 0
M  V30 10 C -3.4858 1.15362 -0.300679 0
M  V30 11 C -4.33757 2.25386 -0.454273 0
M  V30 12 C -5.59493 2.24229 0.106827 0
M  V30 13 C -6.01428 1.15495 0.815824 0
M  V30 14 C -5.15708 0.0678384 0.960488 0
M  V30 15 C 1.62922 -0.38853 0.111392 0
M  V30 16 C 1.52137 0.00687801 1.41671 0
M  V30 17 C 2.65233 0.414376 2.11915 0
M  V30 18 C 3.8756 0.420461 1.5053 0
M  V30 19 C 4.0315 0.0307746 0.193097 0
M  V30 20 C 2.91455 -0.364803 -0.478949 0
M  V30 21 C 5.38607 0.0565503 -0.426419 0
M  V30 22 S 5.63783 1.67137 -1.16982 0
M  V30 23 O 4.53524 1.81234 -2.20949 0
M  V30 24 O 5.46166 2.76789 -0.189364 0
M  V30 25 N 7.16852 1.79146 -1.90533 0
M  V30 26 H -1.48438 0.378621 0.986217 0
M  V30 27 H -1.23426 -1.35676 1.62855 0
M  V30 28 H -3.40771 -1.67291 1.44703 0
M  V30 29 H -3.87772 -2.16525 -1.13958 0
M  V30 30 H -2.18435 -0.668519 -2.08716 0
M  V30 31 H -1.3693 -2.31389 -1.9935 0
M  V30 32 H -2.60941 -4.07279 -0.794569 0
M  V30 33 H -1.44391 -3.23535 0.0591943 0
M  V30 34 H -2.50804 1.24892 -0.769278 0
M  V30 35 H -4.01055 3.12951 -1.0205 0
M  V30 36 H -6.27944 3.09974 -0.00372701 0
M  V30 37 H -7.00482 1.1786 1.24224 0
M  V30 38 H -5.50477 -0.76568 1.51556 0
M  V30 39 H 0.567413 0.0138014 1.93118 0
M  V30 40 H 2.53967 0.719522 3.1418 0
M  V30 41 H 4.77492 0.736896 2.03991 0
M  V30 42 H 3.01866 -0.674453 -1.5114 0
M  V30 43 H 5.46824 -0.677708 -1.25098 0
M  V30 44 H 6.18911 -0.082407 0.295559 0
M  V30 45 H 7.6574 2.66846 -1.66312 0
M  V30 46 H 7.71273 0.931715 -1.72481 0
M  V30 END ATOM
M  V30 BEGIN BOND
M  V30 1 2 1 2
M  V30 2 1 2 3
M  V30 3 1 3 4
M  V30 4 1 4 5
M  V30 5 1 5 6
M  V30 6 1 6 7
M  V30 7 1 6 8
M  V30 8 1 5 9
M  V30 9 2 9 10
M  V30 10 1 10 11
M  V30 11 2 11 12
M  V30 12 1 12 13
M  V30 13 2 13 14
M  V30 14 1 2 15
M  V30 15 2 15 16
M  V30 16 1 16 17
M  V30 17 2 17 18
M  V30 18 1 18 19
M  V30 19 2 19 20
M  V30 20 1 19 21
M  V30 21 1 21 22
M  V30 22 2 22 23
M  V30 23 2 22 24
M  V30 24 1 22 25
M  V30 25 1 7 3
M  V30 26 1 14 9
M  V30 27 1 20 15
M  V30 28 1 4 26
M  V30 29 1 4 27
M  V30 30 1 5 28 CFG=1
M  V30 31 1 6 29 CFG=3
M  V30 32 1 7 30
M  V30 33 1 7 31
M  V30 34 1 8 32
M  V30 35 1 8 33
M  V30 36 1 10 34
M  V30 37 1 11 35
M  V30 38 1 12 36
M  V30 39 1 13 37
M  V30 40 1 14 38
M  V30 41 1 16 39
M  V30 42 1 17 40
M  V30 43 1 18 41
M  V30 44 1 20 42
M  V30 45 1 21 43
M  V30 46 1 21 44
M  V30 47 1 25 45
M  V30 48 1 25 46
M  V30 END BOND
M  V30 END CTAB
M  END
