
     RDKit          3D

  0  0  0  0  0  0  0  0  0  0999 V3000
M  V30 BEGIN CTAB
M  V30 COUNTS 18 17 0 0 0
M  V30 BEGIN ATOM
M  V30 1 O 4.55452 -0.538575 0.08995 0
M  V30 2 C 3.52702 -1.3371 -0.392802 0
M  V30 3 C 2.2429 -0.68795 -0.0960838 0
M  V30 4 C 1.19105 -0.154411 0.16861 0
M  V30 5 C -0.0817391 0.504131 0.512889 0
M  V30 6 N -1.16834 -0.00595426 -0.271469 0
M  V30 7 C -2.36169 0.354662 0.00193627 0
M  V30 8 N -3.42452 -0.157866 -0.782008 0
M  V30 9 N -2.60491 1.24544 1.0649 0
M  V30 10 H 4.2359 0.190084 0.678269 0
M  V30 11 H 3.52899 -2.32641 0.100793 0
M  V30 12 H 3.69319 -1.47932 -1.47293 0
M  V30 13 H -0.0213736 1.60328 0.328539 0
M  V30 14 H -0.210769 0.351099 1.6074 0
M  V30 15 H -4.19392 0.46285 -1.14295 0
M  V30 16 H -3.51653 -1.17001 -1.05144 0
M  V30 17 H -3.57436 1.53448 1.27747 0
M  V30 18 H -1.81542 1.61156 1.63398 0
M  V30 END ATOM
M  V30 BEGIN BOND
M  V30 1 1 1 2
M  V30 2 1 2 3
M  V30 3 3 3 4
M  V30 4 1 4 5
M  V30 5 1 5 6
M  V30 6 2 6 7 CFG=2
M  V30 7 1 7 8
M  V30 8 1 7 9
M  V30 9 1 1 10
M  V30 10 1 2 11
M  V30 11 1 2 12
M  V30 12 1 5 13
M  V30 13 1 5 14
M  V30 14 1 8 15
M  V30 15 1 8 16
M  V30 16 1 9 17
M  V30 17 1 9 18
M  V30 END BOND
M  V30 END CTAB
M  END
