
     RDKit          3D

  0  0  0  0  0  0  0  0  0  0999 V3000
M  V30 BEGIN CTAB
M  V30 COUNTS 25 25 0 0 0
M  V30 BEGIN ATOM
M  V30 1 N -1.84443 -0.669942 -1.3585 0
M  V30 2 C -2.0646 0.26757 -0.30025 0
M  V30 3 C -1.27354 -0.0931439 0.946339 0
M  V30 4 C 0.149811 -0.0909823 0.583102 0
M  V30 5 C 0.737846 -1.24777 0.125278 0
M  V30 6 C 2.07331 -1.23555 -0.212831 0
M  V30 7 I 3.03887 -2.9794 -0.923201 0
M  V30 8 C 2.82205 -0.0570079 -0.0909077 0
M  V30 9 N 4.1994 -0.0337564 -0.436812 0
M  V30 10 C 2.22326 1.09761 0.369092 0
M  V30 11 I 3.39015 2.8358 0.53292 0
M  V30 12 C 0.868299 1.09455 0.714616 0
M  V30 13 C -3.48832 0.388576 0.0771195 0
M  V30 14 O -3.81176 1.27384 1.09631 0
M  V30 15 O -4.41726 -0.253314 -0.461105 0
M  V30 16 H -2.02236 -1.65126 -1.11489 0
M  V30 17 H -2.36148 -0.354348 -2.19243 0
M  V30 18 H -1.72484 1.26781 -0.643551 0
M  V30 19 H -1.47153 0.646135 1.74493 0
M  V30 20 H -1.62788 -1.09216 1.31545 0
M  V30 21 H 0.196085 -2.17141 0.0182033 0
M  V30 22 H 4.9684 0.120211 0.245843 0
M  V30 23 H 4.44913 -0.18046 -1.43705 0
M  V30 24 H 0.431354 2.01128 1.07 0
M  V30 25 H -3.43996 1.10712 2.01905 0
M  V30 END ATOM
M  V30 BEGIN BOND
M  V30 1 1 1 2
M  V30 2 1 2 3
M  V30 3 1 3 4
M  V30 4 2 4 5
M  V30 5 1 5 6
M  V30 6 1 6 7
M  V30 7 2 6 8
M  V30 8 1 8 9
M  V30 9 1 8 10
M  V30 10 1 10 11
M  V30 11 2 10 12
M  V30 12 1 2 13
M  V30 13 1 13 14
M  V30 14 2 13 15
M  V30 15 1 12 4
M  V30 16 1 1 16
M  V30 17 1 1 17
M  V30 18 1 2 18
M  V30 19 1 3 19
M  V30 20 1 3 20
M  V30 21 1 5 21
M  V30 22 1 9 22
M  V30 23 1 9 23
M  V30 24 1 12 24
M  V30 25 1 14 25
M  V30 END BOND
M  V30 END CTAB
M  END
