
     RDKit          3D

  0  0  0  0  0  0  0  0  0  0999 V3000
M  V30 BEGIN CTAB
M  V30 COUNTS 78 80 0 0 0
M  V30 BEGIN ATOM
M  V30 1 N 9.45729 1.57673 -2.4106 0
M  V30 2 C 9.65454 2.91068 -1.97317 0
M  V30 3 N 10.5628 3.60051 -2.61528 0
M  V30 4 N 8.93 3.49865 -0.907653 0
M  V30 5 C 9.28032 3.24272 0.472964 0
M  V30 6 C 8.96651 1.81281 0.811004 0
M  V30 7 C 7.47494 1.51531 0.628108 0
M  V30 8 C 7.30053 0.0669711 0.997122 0
M  V30 9 N 5.94967 -0.388971 0.864437 0
M  V30 10 C 4.90978 0.181252 1.61817 0
M  V30 11 O 5.18209 1.10457 2.42793 0
M  V30 12 C 3.51432 -0.246476 1.50836 0
M  V30 13 C 3.06888 -1.18649 0.721516 0
M  V30 14 C 1.69648 -1.63156 0.589848 0
M  V30 15 C 0.630216 -1.08822 1.30529 0
M  V30 16 C -0.647515 -1.53959 1.14397 0
M  V30 17 C -0.889626 -2.55842 0.251352 0
M  V30 18 O -2.26831 -2.84831 0.25926 0
M  V30 19 C -2.68482 -2.5024 1.59937 0
M  V30 20 C -1.9525 -1.18316 1.72565 0
M  V30 21 C -2.5836 -0.0463674 1.06873 0
M  V30 22 O -2.80715 1.00331 1.76895 0
M  V30 23 N -2.96743 -0.0137749 -0.285648 0
M  V30 24 C -3.59512 1.17501 -0.854761 0
M  V30 25 C -3.91844 1.01791 -2.30078 0
M  V30 26 C -4.85796 -0.101188 -2.59652 0
M  V30 27 C -6.19512 0.0263007 -1.92902 0
M  V30 28 N -6.89736 1.2057 -2.30364 0
M  V30 29 C -8.17599 1.47665 -1.76928 0
M  V30 30 N -8.43672 2.74016 -1.17417 0
M  V30 31 N -9.12415 0.603374 -1.8054 0
M  V30 32 C -4.14144 -2.42749 1.69015 0
M  V30 33 C -4.84078 -1.57834 2.50141 0
M  V30 34 C -6.23519 -1.59059 2.48478 0
M  V30 35 C -6.96115 -2.43393 1.67524 0
M  V30 36 O -8.358 -2.41528 1.68814 0
M  V30 37 C -6.26561 -3.28987 0.858306 0
M  V30 38 C -4.89082 -3.28073 0.871387 0
M  V30 39 C 0.115301 -3.14476 -0.491221 0
M  V30 40 C 1.39 -2.64201 -0.281788 0
M  V30 41 H 8.48835 1.2431 -2.68634 0
M  V30 42 H 10.2159 0.865333 -2.48876 0
M  V30 43 H 10.7399 4.58738 -2.32527 0
M  V30 44 H 8.12377 4.13198 -1.09378 0
M  V30 45 H 10.3906 3.35581 0.581534 0
M  V30 46 H 8.78942 3.94653 1.16823 0
M  V30 47 H 9.50261 1.11658 0.139713 0
M  V30 48 H 9.19652 1.55823 1.8574 0
M  V30 49 H 6.90515 2.23195 1.21089 0
M  V30 50 H 7.16135 1.60215 -0.439677 0
M  V30 51 H 7.96828 -0.497482 0.279812 0
M  V30 52 H 7.67802 -0.0734035 2.04267 0
M  V30 53 H 5.7341 -1.15539 0.198499 0
M  V30 54 H 2.79168 0.2578 2.13086 0
M  V30 55 H 3.81177 -1.68479 0.100272 0
M  V30 56 H 0.876185 -0.286744 1.99655 0
M  V30 57 H -2.26223 -3.21656 2.32775 0
M  V30 58 H -1.78644 -1.02522 2.81492 0
M  V30 59 H -2.82462 -0.818595 -0.937238 0
M  V30 60 H -4.54903 1.34615 -0.303709 0
M  V30 61 H -2.95042 2.02835 -0.654293 0
M  V30 62 H -4.40352 1.95942 -2.64031 0
M  V30 63 H -2.98172 0.832487 -2.86866 0
M  V30 64 H -5.02261 -0.141979 -3.7115 0
M  V30 65 H -4.37786 -1.05085 -2.29984 0
M  V30 66 H -6.08773 -0.132107 -0.838623 0
M  V30 67 H -6.80809 -0.849285 -2.28864 0
M  V30 68 H -6.47593 1.87601 -2.97223 0
M  V30 69 H -9.40238 3.15038 -1.21604 0
M  V30 70 H -7.71635 3.31263 -0.681348 0
M  V30 71 H -10.0652 0.807674 -1.41025 0
M  V30 72 H -4.32862 -0.904107 3.16891 0
M  V30 73 H -6.7871 -0.906167 3.13862 0
M  V30 74 H -8.84703 -3.06406 1.06683 0
M  V30 75 H -6.79104 -3.97979 0.196842 0
M  V30 76 H -4.38827 -3.98202 0.201188 0
M  V30 77 H -0.0816786 -3.95459 -1.19887 0
M  V30 78 H 2.17541 -3.10748 -0.866881 0
M  V30 END ATOM
M  V30 BEGIN BOND
M  V30 1 1 1 2
M  V30 2 2 2 3 CFG=2
M  V30 3 1 2 4
M  V30 4 1 4 5
M  V30 5 1 5 6
M  V30 6 1 6 7
M  V30 7 1 7 8
M  V30 8 1 8 9
M  V30 9 1 9 10
M  V30 10 2 10 11
M  V30 11 1 10 12
M  V30 12 2 12 13
M  V30 13 1 13 14
M  V30 14 2 14 15
M  V30 15 1 15 16
M  V30 16 2 16 17
M  V30 17 1 17 18
M  V30 18 1 18 19
M  V30 19 1 19 20
M  V30 20 1 20 21
M  V30 21 2 21 22
M  V30 22 1 21 23
M  V30 23 1 23 24
M  V30 24 1 24 25
M  V30 25 1 25 26
M  V30 26 1 26 27
M  V30 27 1 27 28
M  V30 28 1 28 29
M  V30 29 1 29 30
M  V30 30 2 29 31 CFG=2
M  V30 31 1 19 32
M  V30 32 2 32 33
M  V30 33 1 33 34
M  V30 34 2 34 35
M  V30 35 1 35 36
M  V30 36 1 35 37
M  V30 37 2 37 38
M  V30 38 1 17 39
M  V30 39 2 39 40
M  V30 40 1 40 14
M  V30 41 1 20 16
M  V30 42 1 38 32
M  V30 43 1 1 41
M  V30 44 1 1 42
M  V30 45 1 3 43
M  V30 46 1 4 44
M  V30 47 1 5 45
M  V30 48 1 5 46
M  V30 49 1 6 47
M  V30 50 1 6 48
M  V30 51 1 7 49
M  V30 52 1 7 50
M  V30 53 1 8 51
M  V30 54 1 8 52
M  V30 55 1 9 53
M  V30 56 1 12 54
M  V30 57 1 13 55
M  V30 58 1 15 56
M  V30 59 1 19 57
M  V30 60 1 20 58
M  V30 61 1 23 59
M  V30 62 1 24 60
M  V30 63 1 24 61
M  V30 64 1 25 62
M  V30 65 1 25 63
M  V30 66 1 26 64
M  V30 67 1 26 65
M  V30 68 1 27 66
M  V30 69 1 27 67
M  V30 70 1 28 68
M  V30 71 1 30 69
M  V30 72 1 30 70
M  V30 73 1 31 71
M  V30 74 1 33 72
M  V30 75 1 34 73
M  V30 76 1 36 74
M  V30 77 1 37 75
M  V30 78 1 38 76
M  V30 79 1 39 77
M  V30 80 1 40 78
M  V30 END BOND
M  V30 END CTAB
M  END
