
     RDKit          3D

  0  0  0  0  0  0  0  0  0  0999 V3000
M  V30 BEGIN CTAB
M  V30 COUNTS 35 37 0 0 0
M  V30 BEGIN ATOM
M  V30 1 C 5.14356 2.66354 0.881915 0
M  V30 2 S 4.71399 1.96494 -0.751745 0
M  V30 3 C 3.51592 0.661632 -0.469827 0
M  V30 4 C 3.88528 -0.638193 -0.244749 0
M  V30 5 F 5.20554 -0.960184 -0.233326 0
M  V30 6 C 2.97861 -1.63991 -0.0282071 0
M  V30 7 N 3.3369 -2.98661 0.205999 0
M  V30 8 C 1.6355 -1.31714 -0.0387724 0
M  V30 9 C 0.66249 -2.27425 0.171981 0
M  V30 10 O 1.05938 -3.44867 0.37303 0
M  V30 11 C -0.645502 -1.89707 0.150148 0
M  V30 12 C -0.99928 -0.584256 -0.077834 0
M  V30 13 O -0.0393773 0.285253 -0.272047 0
M  V30 14 C 1.23921 -0.0275224 -0.260961 0
M  V30 15 C 2.18172 0.973045 -0.478626 0
M  V30 16 F 1.7313 2.24474 -0.69559 0
M  V30 17 C -2.40365 -0.16302 -0.10421 0
M  V30 18 C -3.46576 -1.01099 0.0902286 0
M  V30 19 C -4.75836 -0.507256 0.0448343 0
M  V30 20 C -5.00736 0.825848 -0.190875 0
M  V30 21 N -6.30683 1.38253 -0.24567 0
M  V30 22 C -3.92205 1.67508 -0.386404 0
M  V30 23 F -4.15428 3.00222 -0.621651 0
M  V30 24 C -2.66462 1.17063 -0.339591 0
M  V30 25 H 5.19143 3.77368 0.832449 0
M  V30 26 H 4.42701 2.33443 1.65537 0
M  V30 27 H 6.18145 2.33728 1.1762 0
M  V30 28 H 3.53452 -3.6043 -0.592975 0
M  V30 29 H 3.40094 -3.35106 1.1659 0
M  V30 30 H -1.37977 -2.67766 0.319909 0
M  V30 31 H -3.28518 -2.06769 0.277491 0
M  V30 32 H -5.58363 -1.18293 0.198941 0
M  V30 33 H -7.11194 0.794112 -0.537869 0
M  V30 34 H -6.47077 2.37737 0.00321113 0
M  V30 35 H -1.8264 1.87239 -0.499091 0
M  V30 END ATOM
M  V30 BEGIN BOND
M  V30 1 1 1 2
M  V30 2 1 2 3
M  V30 3 2 3 4
M  V30 4 1 4 5
M  V30 5 1 4 6
M  V30 6 1 6 7
M  V30 7 2 6 8
M  V30 8 1 8 9
M  V30 9 2 9 10
M  V30 10 1 9 11
M  V30 11 2 11 12
M  V30 12 1 12 13
M  V30 13 1 13 14
M  V30 14 2 14 15
M  V30 15 1 15 16
M  V30 16 1 12 17
M  V30 17 2 17 18
M  V30 18 1 18 19
M  V30 19 2 19 20
M  V30 20 1 20 21
M  V30 21 1 20 22
M  V30 22 1 22 23
M  V30 23 2 22 24
M  V30 24 1 15 3
M  V30 25 1 24 17
M  V30 26 1 14 8
M  V30 27 1 1 25
M  V30 28 1 1 26
M  V30 29 1 1 27
M  V30 30 1 7 28
M  V30 31 1 7 29
M  V30 32 1 11 30
M  V30 33 1 18 31
M  V30 34 1 19 32
M  V30 35 1 21 33
M  V30 36 1 21 34
M  V30 37 1 24 35
M  V30 END BOND
M  V30 END CTAB
M  END
