
     RDKit          3D

  0  0  0  0  0  0  0  0  0  0999 V3000
M  V30 BEGIN CTAB
M  V30 COUNTS 31 32 0 0 0
M  V30 BEGIN ATOM
M  V30 1 N 2.78513 3.05811 0.0949292 0
M  V30 2 C 2.7648 1.62827 0.145869 0
M  V30 3 N 1.68674 0.915876 -0.241017 0
M  V30 4 C 1.6733 -0.439467 -0.190456 0
M  V30 5 N 0.552922 -1.20147 -0.591555 0
M  V30 6 C -0.668592 -0.637357 -1.0864 0 CFG=2
M  V30 7 C -1.32 0.292197 -0.0508855 0
M  V30 8 C -2.73433 0.277366 -0.566149 0 CFG=2
M  V30 9 C -3.72859 0.792322 0.435647 0
M  V30 10 O -3.40232 2.09326 0.75437 0
M  V30 11 C -2.9199 -1.1427 -0.904198 0
M  V30 12 C -1.73762 -1.6718 -1.20351 0
M  V30 13 C 2.8119 -1.06167 0.274696 0
M  V30 14 N 2.87 -2.48041 0.355432 0
M  V30 15 C 3.91284 -0.330137 0.669625 0
M  V30 16 Cl 5.32152 -1.18321 1.24852 0
M  V30 17 N 3.87687 1.01536 0.600399 0
M  V30 18 H 2.56074 3.59912 -0.772022 0
M  V30 19 H 3.02955 3.61947 0.938605 0
M  V30 20 H 0.60758 -2.24044 -0.527845 0
M  V30 21 H -0.535977 -0.0444849 -1.99719 0
M  V30 22 H -0.88252 1.29213 -0.0636281 0
M  V30 23 H -1.26289 -0.226696 0.925176 0
M  V30 24 H -2.81967 0.888189 -1.4789 0
M  V30 25 H -3.81069 0.130206 1.3166 0
M  V30 26 H -4.72516 0.776157 -0.0630338 0
M  V30 27 H -4.24705 2.63535 0.78242 0
M  V30 28 H -3.88753 -1.64436 -0.898651 0
M  V30 29 H -1.60076 -2.70714 -1.48782 0
M  V30 30 H 3.41265 -2.96393 -0.406551 0
M  V30 31 H 2.41706 -3.03811 1.10559 0
M  V30 END ATOM
M  V30 BEGIN BOND
M  V30 1 1 1 2
M  V30 2 2 2 3
M  V30 3 1 3 4
M  V30 4 1 4 5
M  V30 5 1 5 6
M  V30 6 1 6 7
M  V30 7 1 7 8
M  V30 8 1 8 9
M  V30 9 1 9 10
M  V30 10 1 8 11
M  V30 11 2 11 12
M  V30 12 2 4 13
M  V30 13 1 13 14
M  V30 14 1 13 15
M  V30 15 1 15 16
M  V30 16 2 15 17
M  V30 17 1 17 2
M  V30 18 1 12 6
M  V30 19 1 1 18
M  V30 20 1 1 19
M  V30 21 1 5 20
M  V30 22 1 6 21 CFG=3
M  V30 23 1 7 22
M  V30 24 1 7 23
M  V30 25 1 8 24 CFG=3
M  V30 26 1 9 25
M  V30 27 1 9 26
M  V30 28 1 10 27
M  V30 29 1 11 28
M  V30 30 1 12 29
M  V30 31 1 14 30
M  V30 32 1 14 31
M  V30 END BOND
M  V30 END CTAB
M  END
