
     RDKit          3D

  0  0  0  0  0  0  0  0  0  0999 V3000
M  V30 BEGIN CTAB
M  V30 COUNTS 52 54 0 0 0
M  V30 BEGIN ATOM
M  V30 1 N 6.86614 1.1022 -0.214328 0
M  V30 2 C 6.30194 -0.158077 0.152907 0
M  V30 3 C 5.23139 0.0888528 1.20053 0
M  V30 4 C 4.13711 0.981963 0.711733 0
M  V30 5 C 3.46054 0.384204 -0.479246 0
M  V30 6 C 2.83768 -0.937822 -0.156835 0 CFG=1
M  V30 7 C 1.8248 -0.788159 0.893992 0
M  V30 8 O 2.11335 -0.821768 2.12006 0
M  V30 9 N 0.447625 -0.596548 0.548127 0
M  V30 10 C -0.582265 -0.530032 1.56434 0
M  V30 11 C -1.85827 -0.539101 0.722039 0 CFG=2
M  V30 12 C -1.46112 0.322296 -0.426252 0 CFG=2
M  V30 13 C -0.121928 -0.420601 -0.758476 0
M  V30 14 O -0.965853 1.591 -0.0327172 0
M  V30 15 C -3.06855 -0.264989 1.49181 0
M  V30 16 C -4.29223 -0.319002 0.658011 0
M  V30 17 C -4.95874 -1.55265 0.498735 0
M  V30 18 C -6.06005 -1.68594 -0.303072 0
M  V30 19 C -6.54871 -0.60076 -0.982081 0
M  V30 20 N -5.92399 0.576265 -0.836469 0
M  V30 21 C -4.82269 0.734554 -0.0418282 0
M  V30 22 C -4.44756 2.0531 -0.0910729 0
M  V30 23 C -5.33045 2.69167 -0.924884 0
M  V30 24 N -6.21114 1.76509 -1.35819 0
M  V30 25 N 2.22303 -1.49225 -1.36529 0
M  V30 26 H 6.65355 1.82182 0.483202 0
M  V30 27 H 7.87411 1.00445 -0.367098 0
M  V30 28 H 7.13022 -0.787242 0.590181 0
M  V30 29 H 5.89257 -0.643325 -0.749319 0
M  V30 30 H 5.70006 0.560727 2.12129 0
M  V30 31 H 4.90477 -0.900333 1.54803 0
M  V30 32 H 3.36796 1.15009 1.50542 0
M  V30 33 H 4.55506 2.01184 0.452728 0
M  V30 34 H 4.16734 0.238911 -1.3284 0
M  V30 35 H 2.68873 1.13252 -0.820309 0
M  V30 36 H 3.59017 -1.67005 0.238859 0
M  V30 37 H -0.51411 0.322129 2.23764 0
M  V30 38 H -0.556408 -1.52442 2.10148 0
M  V30 39 H -1.94115 -1.59125 0.30846 0
M  V30 40 H -2.10864 0.385405 -1.27266 0
M  V30 41 H -0.428551 -1.35674 -1.22092 0
M  V30 42 H 0.467008 0.261348 -1.42213 0
M  V30 43 H -1.19534 1.72165 0.92557 0
M  V30 44 H -3.14495 -1.057 2.29881 0
M  V30 45 H -3.07073 0.726812 2.00717 0
M  V30 46 H -4.5312 -2.37779 1.05839 0
M  V30 47 H -6.55097 -2.63799 -0.410171 0
M  V30 48 H -7.43119 -0.668043 -1.63781 0
M  V30 49 H -3.63124 2.52591 0.41827 0
M  V30 50 H -5.35687 3.71672 -1.20576 0
M  V30 51 H 2.90262 -1.57067 -2.14397 0
M  V30 52 H 1.77712 -2.37898 -1.10013 0
M  V30 END ATOM
M  V30 BEGIN BOND
M  V30 1 1 1 2
M  V30 2 1 2 3
M  V30 3 1 3 4
M  V30 4 1 4 5
M  V30 5 1 5 6
M  V30 6 1 6 7
M  V30 7 2 7 8
M  V30 8 1 7 9
M  V30 9 1 9 10
M  V30 10 1 10 11
M  V30 11 1 11 12
M  V30 12 1 12 13
M  V30 13 1 12 14
M  V30 14 1 11 15
M  V30 15 1 15 16
M  V30 16 2 16 17
M  V30 17 1 17 18
M  V30 18 2 18 19
M  V30 19 1 19 20
M  V30 20 1 20 21
M  V30 21 2 21 22
M  V30 22 1 22 23
M  V30 23 2 23 24
M  V30 24 1 6 25
M  V30 25 1 13 9
M  V30 26 1 21 16
M  V30 27 1 24 20
M  V30 28 1 1 26
M  V30 29 1 1 27
M  V30 30 1 2 28
M  V30 31 1 2 29
M  V30 32 1 3 30
M  V30 33 1 3 31
M  V30 34 1 4 32
M  V30 35 1 4 33
M  V30 36 1 5 34
M  V30 37 1 5 35
M  V30 38 1 6 36 CFG=1
M  V30 39 1 10 37
M  V30 40 1 10 38
M  V30 41 1 11 39 CFG=3
M  V30 42 1 12 40 CFG=3
M  V30 43 1 13 41
M  V30 44 1 13 42
M  V30 45 1 14 43
M  V30 46 1 15 44
M  V30 47 1 15 45
M  V30 48 1 17 46
M  V30 49 1 18 47
M  V30 50 1 19 48
M  V30 51 1 22 49
M  V30 52 1 23 50
M  V30 53 1 25 51
M  V30 54 1 25 52
M  V30 END BOND
M  V30 END CTAB
M  END
