
     RDKit          3D

  0  0  0  0  0  0  0  0  0  0999 V3000
M  V30 BEGIN CTAB
M  V30 COUNTS 43 44 0 0 0
M  V30 BEGIN ATOM
M  V30 1 C -5.06994 0.346624 2.26451 0
M  V30 2 C -4.6105 -0.724595 1.26616 0
M  V30 3 N -3.94837 -0.111805 0.131585 0
M  V30 4 C -2.57114 -0.268139 -0.128306 0
M  V30 5 C -1.92622 0.269065 -1.25039 0
M  V30 6 C -0.57727 0.0998114 -1.48801 0
M  V30 7 C 0.181571 -0.609975 -0.622362 0
M  V30 8 C -0.440081 -1.14171 0.481876 0
M  V30 9 C -1.79582 -0.992455 0.757121 0
M  V30 10 C 1.62965 -0.822256 -0.823039 0
M  V30 11 O 2.21629 -1.53217 0.0269199 0
M  V30 12 O 2.34712 -0.297842 -1.86175 0
M  V30 13 C 3.7103 -0.465389 -2.1022 0
M  V30 14 C 4.5998 0.0033993 -1.02805 0
M  V30 15 N 5.1118 -0.825913 -0.108266 0
M  V30 16 C 5.92184 -0.410226 0.880967 0
M  V30 17 N 6.42292 -1.3505 1.8216 0
M  V30 18 N 6.22072 0.90652 0.932623 0
M  V30 19 C 5.72507 1.7835 0.0222951 0
M  V30 20 N 4.9169 1.30223 -0.946652 0
M  V30 21 N 6.05328 3.16341 0.100372 0
M  V30 22 C -4.75591 0.684575 -0.776225 0
M  V30 23 C -5.70848 -0.174296 -1.57656 0
M  V30 24 H -5.9329 0.915182 1.86036 0
M  V30 25 H -5.45025 -0.209387 3.14465 0
M  V30 26 H -4.19926 0.972015 2.48847 0
M  V30 27 H -5.5118 -1.31514 0.922137 0
M  V30 28 H -3.99837 -1.42493 1.80748 0
M  V30 29 H -2.52201 0.829365 -1.9582 0
M  V30 30 H -0.144119 0.53267 -2.35375 0
M  V30 31 H 0.162201 -1.71639 1.18707 0
M  V30 32 H -2.15856 -1.45408 1.65931 0
M  V30 33 H 3.98652 -1.52031 -2.36276 0
M  V30 34 H 3.93108 0.096022 -3.05814 0
M  V30 35 H 6.50271 -2.35533 1.52153 0
M  V30 36 H 6.71575 -1.12033 2.78525 0
M  V30 37 H 5.3786 3.90182 0.401184 0
M  V30 38 H 7.00841 3.49809 -0.147821 0
M  V30 39 H -5.37559 1.37794 -0.115888 0
M  V30 40 H -4.21535 1.34207 -1.43481 0
M  V30 41 H -6.76903 0.08715 -1.38026 0
M  V30 42 H -5.49977 -1.24671 -1.37859 0
M  V30 43 H -5.56178 -0.0215954 -2.66427 0
M  V30 END ATOM
M  V30 BEGIN BOND
M  V30 1 1 1 2
M  V30 2 1 2 3
M  V30 3 1 3 4
M  V30 4 2 4 5
M  V30 5 1 5 6
M  V30 6 2 6 7
M  V30 7 1 7 8
M  V30 8 2 8 9
M  V30 9 1 7 10
M  V30 10 2 10 11
M  V30 11 1 10 12
M  V30 12 1 12 13
M  V30 13 1 13 14
M  V30 14 2 14 15
M  V30 15 1 15 16
M  V30 16 1 16 17
M  V30 17 2 16 18
M  V30 18 1 18 19
M  V30 19 2 19 20
M  V30 20 1 19 21
M  V30 21 1 3 22
M  V30 22 1 22 23
M  V30 23 1 9 4
M  V30 24 1 20 14
M  V30 25 1 1 24
M  V30 26 1 1 25
M  V30 27 1 1 26
M  V30 28 1 2 27
M  V30 29 1 2 28
M  V30 30 1 5 29
M  V30 31 1 6 30
M  V30 32 1 8 31
M  V30 33 1 9 32
M  V30 34 1 13 33
M  V30 35 1 13 34
M  V30 36 1 17 35
M  V30 37 1 17 36
M  V30 38 1 21 37
M  V30 39 1 21 38
M  V30 40 1 22 39
M  V30 41 1 22 40
M  V30 42 1 23 41
M  V30 43 1 23 42
M  V30 44 1 23 43
M  V30 END BOND
M  V30 END CTAB
M  END
