
     RDKit          3D

  0  0  0  0  0  0  0  0  0  0999 V3000
M  V30 BEGIN CTAB
M  V30 COUNTS 46 46 0 0 0
M  V30 BEGIN ATOM
M  V30 1 N 6.49464 1.4528 1.28134 0
M  V30 2 C 5.36004 0.624017 1.60992 0
M  V30 3 C 4.3619 0.543703 0.482949 0
M  V30 4 N 4.97828 -0.0211153 -0.721155 0
M  V30 5 S 3.84926 -0.115417 -2.00656 0
M  V30 6 O 3.27991 1.28052 -2.20191 0
M  V30 7 O 4.52463 -0.602987 -3.23266 0
M  V30 8 C 2.51604 -1.16233 -1.58815 0
M  V30 9 C 2.51482 -2.50677 -1.84396 0
M  V30 10 C 1.4248 -3.27327 -1.48466 0
M  V30 11 C 0.340608 -2.71116 -0.874868 0
M  V30 12 C 0.295831 -1.3394 -0.592634 0
M  V30 13 C 1.39072 -0.612782 -0.96152 0
M  V30 14 N -0.864265 -0.846341 0.0506446 0
M  V30 15 C -1.22147 0.486206 0.296343 0
M  V30 16 O -0.513596 1.43928 -0.0479294 0
M  V30 17 C -2.50583 0.777174 1.00146 0 CFG=2
M  V30 18 C -3.6641 0.126256 0.325608 0
M  V30 19 C -4.95394 0.404354 1.01889 0
M  V30 20 C -5.32732 1.85561 1.10549 0
M  V30 21 C -6.10471 -0.365221 0.405213 0
M  V30 22 N -2.62849 2.19121 1.16716 0
M  V30 23 H 7.37768 0.944 1.23244 0
M  V30 24 H 6.37014 2.01158 0.414677 0
M  V30 25 H 4.80222 1.0163 2.49498 0
M  V30 26 H 5.64213 -0.416263 1.87675 0
M  V30 27 H 3.53384 -0.105066 0.800698 0
M  V30 28 H 4.01574 1.57101 0.221722 0
M  V30 29 H 5.36155 -0.953864 -0.454151 0
M  V30 30 H 3.38276 -2.9349 -2.32808 0
M  V30 31 H 1.44411 -4.33404 -1.6958 0
M  V30 32 H -0.499971 -3.31678 -0.601649 0
M  V30 33 H 1.41172 0.444569 -0.762813 0
M  V30 34 H -1.57515 -1.58019 0.410284 0
M  V30 35 H -2.40784 0.310045 2.02202 0
M  V30 36 H -3.72089 0.348999 -0.761108 0
M  V30 37 H -3.51058 -0.985901 0.379761 0
M  V30 38 H -4.88144 0.0393504 2.08019 0
M  V30 39 H -6.45405 1.91207 1.09569 0
M  V30 40 H -5.01248 2.46198 0.234609 0
M  V30 41 H -5.02759 2.28772 2.08649 0
M  V30 42 H -6.74272 -0.847577 1.16145 0
M  V30 43 H -6.69911 0.351452 -0.216317 0
M  V30 44 H -5.73874 -1.16087 -0.282884 0
M  V30 45 H -2.19916 2.57228 2.02599 0
M  V30 46 H -2.41993 2.73975 0.311815 0
M  V30 END ATOM
M  V30 BEGIN BOND
M  V30 1 1 1 2
M  V30 2 1 2 3
M  V30 3 1 3 4
M  V30 4 1 4 5
M  V30 5 2 5 6
M  V30 6 2 5 7
M  V30 7 1 5 8
M  V30 8 2 8 9
M  V30 9 1 9 10
M  V30 10 2 10 11
M  V30 11 1 11 12
M  V30 12 2 12 13
M  V30 13 1 12 14
M  V30 14 1 14 15
M  V30 15 2 15 16
M  V30 16 1 15 17
M  V30 17 1 17 18
M  V30 18 1 18 19
M  V30 19 1 19 20
M  V30 20 1 19 21
M  V30 21 1 17 22
M  V30 22 1 13 8
M  V30 23 1 1 23
M  V30 24 1 1 24
M  V30 25 1 2 25
M  V30 26 1 2 26
M  V30 27 1 3 27
M  V30 28 1 3 28
M  V30 29 1 4 29
M  V30 30 1 9 30
M  V30 31 1 10 31
M  V30 32 1 11 32
M  V30 33 1 13 33
M  V30 34 1 14 34
M  V30 35 1 17 35 CFG=1
M  V30 36 1 18 36
M  V30 37 1 18 37
M  V30 38 1 19 38
M  V30 39 1 20 39
M  V30 40 1 20 40
M  V30 41 1 20 41
M  V30 42 1 21 42
M  V30 43 1 21 43
M  V30 44 1 21 44
M  V30 45 1 22 45
M  V30 46 1 22 46
M  V30 END BOND
M  V30 END CTAB
M  END
