
     RDKit          3D

  0  0  0  0  0  0  0  0  0  0999 V3000
M  V30 BEGIN CTAB
M  V30 COUNTS 39 40 0 0 0
M  V30 BEGIN ATOM
M  V30 1 N -3.68305 0.209219 1.06106 0
M  V30 2 C -3.31366 -0.192349 -0.287279 0
M  V30 3 C -4.64831 -0.473236 -0.993548 0
M  V30 4 C -5.62579 0.622626 -1.10582 0
M  V30 5 C -4.88563 0.135218 -2.32476 0
M  V30 6 C -2.49292 -1.45109 -0.294029 0
M  V30 7 N -1.25638 -1.35953 0.433921 0
M  V30 8 C -0.221746 -0.448254 0.126016 0
M  V30 9 O -0.433044 0.317849 -0.860039 0
M  V30 10 C 1.02908 -0.357972 0.86792 0
M  V30 11 C 1.31998 -1.15202 1.93861 0
M  V30 12 C 2.53129 -1.004 2.59025 0
M  V30 13 C 3.43296 -0.0677654 2.16501 0
M  V30 14 C 3.18194 0.757238 1.08704 0
M  V30 15 C 1.96541 0.582328 0.461521 0
M  V30 16 C 4.08617 1.78153 0.566498 0
M  V30 17 S 5.18862 1.20519 -0.668157 0
M  V30 18 O 6.10458 2.35303 -1.042 0
M  V30 19 O 4.47793 0.789339 -1.90006 0
M  V30 20 N 6.1596 -0.0520431 0.00124479 0
M  V30 21 H -4.54976 0.764291 1.09869 0
M  V30 22 H -3.65609 -0.602368 1.71355 0
M  V30 23 H -2.84794 0.659514 -0.782273 0
M  V30 24 H -5.01864 -1.49813 -0.784782 0
M  V30 25 H -6.69477 0.371981 -1.05625 0
M  V30 26 H -5.39072 1.66179 -0.80549 0
M  V30 27 H -5.42628 -0.415461 -3.1194 0
M  V30 28 H -4.04936 0.771415 -2.72455 0
M  V30 29 H -2.21378 -1.65829 -1.36776 0
M  V30 30 H -3.07611 -2.30814 0.0608376 0
M  V30 31 H -1.08247 -1.99878 1.25281 0
M  V30 32 H 0.635457 -1.8853 2.28626 0
M  V30 33 H 2.76316 -1.62835 3.43423 0
M  V30 34 H 4.37111 0.0441679 2.67269 0
M  V30 35 H 1.72083 1.21049 -0.395208 0
M  V30 36 H 4.71447 2.13821 1.43411 0
M  V30 37 H 3.50023 2.62115 0.169945 0
M  V30 38 H 6.46004 -0.742873 -0.721138 0
M  V30 39 H 6.9236 0.299372 0.586734 0
M  V30 END ATOM
M  V30 BEGIN BOND
M  V30 1 1 1 2
M  V30 2 1 2 3
M  V30 3 1 3 4
M  V30 4 1 4 5
M  V30 5 1 2 6
M  V30 6 1 6 7
M  V30 7 1 7 8
M  V30 8 2 8 9
M  V30 9 1 8 10
M  V30 10 2 10 11
M  V30 11 1 11 12
M  V30 12 2 12 13
M  V30 13 1 13 14
M  V30 14 2 14 15
M  V30 15 1 14 16
M  V30 16 1 16 17
M  V30 17 2 17 18
M  V30 18 2 17 19
M  V30 19 1 17 20
M  V30 20 1 5 3
M  V30 21 1 15 10
M  V30 22 1 1 21
M  V30 23 1 1 22
M  V30 24 1 2 23
M  V30 25 1 3 24
M  V30 26 1 4 25
M  V30 27 1 4 26
M  V30 28 1 5 27
M  V30 29 1 5 28
M  V30 30 1 6 29
M  V30 31 1 6 30
M  V30 32 1 7 31
M  V30 33 1 11 32
M  V30 34 1 12 33
M  V30 35 1 13 34
M  V30 36 1 15 35
M  V30 37 1 16 36
M  V30 38 1 16 37
M  V30 39 1 20 38
M  V30 40 1 20 39
M  V30 END BOND
M  V30 END CTAB
M  END
