
     RDKit          3D

  0  0  0  0  0  0  0  0  0  0999 V3000
M  V30 BEGIN CTAB
M  V30 COUNTS 20 20 0 0 0
M  V30 BEGIN ATOM
M  V30 1 N -3.2756 -1.61889 1.24611 0
M  V30 2 C -2.66988 -1.21887 0.329603 0
M  V30 3 C -1.91216 -0.686506 -0.826095 0
M  V30 4 C -0.618027 -0.192993 -0.301745 0
M  V30 5 C 0.504643 -0.969841 -0.471023 0
M  V30 6 C 1.72609 -0.512987 0.0388342 0
M  V30 7 N 2.88775 -1.34522 -0.14655 0
M  V30 8 C 1.81966 0.686647 0.698222 0
M  V30 9 C 0.669087 1.44956 0.853432 0
M  V30 10 C -0.548402 1.02997 0.364394 0
M  V30 11 N -1.6925 1.85615 0.552893 0
M  V30 12 I 3.6792 1.35525 1.46698 0
M  V30 13 H -2.49974 0.134056 -1.3083 0
M  V30 14 H -1.69687 -1.52814 -1.50903 0
M  V30 15 H 0.514744 -1.92459 -0.978417 0
M  V30 16 H 3.84866 -0.945336 -0.124441 0
M  V30 17 H 2.80703 -2.37265 -0.308139 0
M  V30 18 H 0.758079 2.40987 1.3823 0
M  V30 19 H -2.52739 1.57272 1.12073 0
M  V30 20 H -1.77437 2.82182 0.124836 0
M  V30 END ATOM
M  V30 BEGIN BOND
M  V30 1 3 1 2
M  V30 2 1 2 3
M  V30 3 1 3 4
M  V30 4 2 4 5
M  V30 5 1 5 6
M  V30 6 1 6 7
M  V30 7 2 6 8
M  V30 8 1 8 9
M  V30 9 2 9 10
M  V30 10 1 10 11
M  V30 11 1 8 12
M  V30 12 1 10 4
M  V30 13 1 3 13
M  V30 14 1 3 14
M  V30 15 1 5 15
M  V30 16 1 7 16
M  V30 17 1 7 17
M  V30 18 1 9 18
M  V30 19 1 11 19
M  V30 20 1 11 20
M  V30 END BOND
M  V30 END CTAB
M  END
