
     RDKit          3D

  0  0  0  0  0  0  0  0  0  0999 V3000
M  V30 BEGIN CTAB
M  V30 COUNTS 20 20 0 0 0
M  V30 BEGIN ATOM
M  V30 1 Br 1.76479 2.84928 -0.543531 0
M  V30 2 C 0.593804 1.38814 -0.176412 0
M  V30 3 C -0.752362 1.4888 -0.546439 0
M  V30 4 C -1.63705 0.4757 -0.296354 0
M  V30 5 N -3.00408 0.568024 -0.667597 0
M  V30 6 C -1.15013 -0.665147 0.342266 0
M  V30 7 C 0.185175 -0.759473 0.706543 0
M  V30 8 C 1.07712 0.267834 0.451462 0
M  V30 9 O 2.41135 0.210275 0.796751 0
M  V30 10 C 3.45863 -0.295521 0.0388562 0
M  V30 11 F 3.29015 -1.64482 -0.270477 0
M  V30 12 F 3.66381 0.333614 -1.16898 0
M  V30 13 F 4.61005 -0.236543 0.834902 0
M  V30 14 N -2.07814 -1.71035 0.596874 0
M  V30 15 H -1.12295 2.38129 -1.04354 0
M  V30 16 H -3.25713 0.688149 -1.66527 0
M  V30 17 H -3.77112 0.519253 0.0308032 0
M  V30 18 H 0.55634 -1.63625 1.19661 0
M  V30 19 H -1.75194 -2.69606 0.615452 0
M  V30 20 H -3.08633 -1.5262 0.768076 0
M  V30 END ATOM
M  V30 BEGIN BOND
M  V30 1 1 1 2
M  V30 2 2 2 3
M  V30 3 1 3 4
M  V30 4 1 4 5
M  V30 5 2 4 6
M  V30 6 1 6 7
M  V30 7 2 7 8
M  V30 8 1 8 9
M  V30 9 1 9 10
M  V30 10 1 10 11
M  V30 11 1 10 12
M  V30 12 1 10 13
M  V30 13 1 6 14
M  V30 14 1 8 2
M  V30 15 1 3 15
M  V30 16 1 5 16
M  V30 17 1 5 17
M  V30 18 1 7 18
M  V30 19 1 14 19
M  V30 20 1 14 20
M  V30 END BOND
M  V30 END CTAB
M  END
