
     RDKit          3D

  0  0  0  0  0  0  0  0  0  0999 V3000
M  V30 BEGIN CTAB
M  V30 COUNTS 24 25 0 0 0
M  V30 BEGIN ATOM
M  V30 1 N -2.333 -1.58869 -0.650014 0
M  V30 2 C -1.69616 -0.831962 0.375997 0
M  V30 3 C -1.04327 0.448349 0.0771587 0
M  V30 4 N -1.56088 1.66572 -0.0107392 0
M  V30 5 C -2.94662 2.06527 -0.0972923 0
M  V30 6 N -0.626743 2.62594 0.0272742 0
M  V30 7 C 0.564397 2.04726 0.10913 0
M  V30 8 C 0.323984 0.638722 0.11416 0
M  V30 9 C 1.38053 -0.34759 -0.0231196 0
M  V30 10 O 1.27306 -1.50771 -0.420509 0
M  V30 11 N 2.36166 -2.19753 -0.408546 0
M  V30 12 C 3.33641 -1.28865 0.0758065 0
M  V30 13 N 2.65069 -0.153208 0.288301 0
M  V30 14 N 4.71692 -1.43075 0.232812 0
M  V30 15 H -3.04039 -2.22308 -0.196266 0
M  V30 16 H -1.62176 -2.32271 -1.0547 0
M  V30 17 H -1.23002 -1.4474 1.1328 0
M  V30 18 H -2.68857 -0.454808 1.00418 0
M  V30 19 H -3.02214 2.86497 -0.898159 0
M  V30 20 H -3.66612 1.30561 -0.407463 0
M  V30 21 H -3.27993 2.54933 0.848112 0
M  V30 22 H 1.52866 2.54701 0.0781573 0
M  V30 23 H 5.47326 -1.15624 -0.485061 0
M  V30 24 H 5.14603 -1.80786 1.10324 0
M  V30 END ATOM
M  V30 BEGIN BOND
M  V30 1 1 1 2
M  V30 2 1 2 3
M  V30 3 1 3 4
M  V30 4 1 4 5
M  V30 5 1 4 6
M  V30 6 2 6 7
M  V30 7 1 7 8
M  V30 8 1 8 9
M  V30 9 1 9 10
M  V30 10 1 10 11
M  V30 11 2 11 12
M  V30 12 1 12 13
M  V30 13 1 12 14
M  V30 14 2 8 3
M  V30 15 2 13 9
M  V30 16 1 1 15
M  V30 17 1 1 16
M  V30 18 1 2 17
M  V30 19 1 2 18
M  V30 20 1 5 19
M  V30 21 1 5 20
M  V30 22 1 5 21
M  V30 23 1 7 22
M  V30 24 1 14 23
M  V30 25 1 14 24
M  V30 END BOND
M  V30 END CTAB
M  END
