
     RDKit          3D

  0  0  0  0  0  0  0  0  0  0999 V3000
M  V30 BEGIN CTAB
M  V30 COUNTS 24 23 0 0 0
M  V30 BEGIN ATOM
M  V30 1 C -4.12725 0.853289 -0.307915 0
M  V30 2 C -3.4845 -0.220625 0.506602 0
M  V30 3 C -2.04015 0.0537345 0.768175 0
M  V30 4 C -1.06177 -0.743818 0.384928 0
M  V30 5 C 0.378008 -0.478215 0.641188 0
M  V30 6 N 1.13344 -0.378991 -0.594888 0
M  V30 7 C 2.53187 -0.1246 -0.464071 0
M  V30 8 N 2.97968 1.06066 -0.205265 0
M  V30 9 N 4.33117 1.35686 -0.068947 0
M  V30 10 N 3.50206 -1.15801 -0.611061 0
M  V30 11 H -4.66634 0.401371 -1.17446 0
M  V30 12 H -4.89989 1.37082 0.292719 0
M  V30 13 H -3.41155 1.63752 -0.630996 0
M  V30 14 H -3.97338 -0.293039 1.49545 0
M  V30 15 H -3.62229 -1.20783 0.0127665 0
M  V30 16 H -1.80484 0.964347 1.3042 0
M  V30 17 H -1.33245 -1.64765 -0.149914 0
M  V30 18 H 0.556823 0.433453 1.21148 0
M  V30 19 H 0.81488 -1.32392 1.21121 0
M  V30 20 H 0.739652 -0.477144 -1.53796 0
M  V30 21 H 4.97915 0.913361 0.599596 0
M  V30 22 H 4.72252 2.10054 -0.707217 0
M  V30 23 H 4.21633 -1.30505 0.134877 0
M  V30 24 H 3.53883 -1.78706 -1.43756 0
M  V30 END ATOM
M  V30 BEGIN BOND
M  V30 1 1 1 2
M  V30 2 1 2 3
M  V30 3 2 3 4
M  V30 4 1 4 5
M  V30 5 1 5 6
M  V30 6 1 6 7
M  V30 7 2 7 8
M  V30 8 1 8 9
M  V30 9 1 7 10
M  V30 10 1 1 11
M  V30 11 1 1 12
M  V30 12 1 1 13
M  V30 13 1 2 14
M  V30 14 1 2 15
M  V30 15 1 3 16
M  V30 16 1 4 17
M  V30 17 1 5 18
M  V30 18 1 5 19
M  V30 19 1 6 20
M  V30 20 1 9 21
M  V30 21 1 9 22
M  V30 22 1 10 23
M  V30 23 1 10 24
M  V30 END BOND
M  V30 END CTAB
M  END
