
     RDKit          3D

  0  0  0  0  0  0  0  0  0  0999 V3000
M  V30 BEGIN CTAB
M  V30 COUNTS 34 35 0 0 0
M  V30 BEGIN ATOM
M  V30 1 N -3.52404 -1.52455 -1.4369 0
M  V30 2 C -2.3266 -1.64268 -0.63524 0
M  V30 3 C -1.78223 -0.265514 -0.320403 0
M  V30 4 N -0.583176 -0.321349 0.478773 0
M  V30 5 C 0.533804 -1.0065 -0.149176 0
M  V30 6 C 1.3676 0.222776 0.0820212 0
M  V30 7 C 0.101302 0.982225 0.403224 0
M  V30 8 C 2.11622 0.736785 -1.13044 0
M  V30 9 C 3.38743 -0.0973137 -1.03683 0
M  V30 10 C 3.74669 0.0884368 0.425122 0
M  V30 11 C 2.39959 0.151134 1.15544 0
M  V30 12 C -2.84641 0.465263 0.477919 0
M  V30 13 N -2.40382 1.78582 0.818414 0
M  V30 14 H -3.67162 -0.60036 -1.85831 0
M  V30 15 H -4.34499 -1.99161 -1.03207 0
M  V30 16 H -2.60612 -2.2072 0.276298 0
M  V30 17 H -1.5721 -2.19517 -1.23152 0
M  V30 18 H -1.54935 0.233807 -1.27404 0
M  V30 19 H 0.401093 -1.21989 -1.22604 0
M  V30 20 H 0.947449 -1.84308 0.459375 0
M  V30 21 H -0.189482 1.60937 -0.452484 0
M  V30 22 H 0.0955584 1.47633 1.39376 0
M  V30 23 H 1.58183 0.57946 -2.07526 0
M  V30 24 H 2.36329 1.81016 -0.991061 0
M  V30 25 H 4.16215 0.237788 -1.72402 0
M  V30 26 H 3.07628 -1.14863 -1.20018 0
M  V30 27 H 4.37608 -0.733118 0.798162 0
M  V30 28 H 4.26013 1.0792 0.488017 0
M  V30 29 H 2.28992 -0.744732 1.81877 0
M  V30 30 H 2.38267 1.04357 1.8154 0
M  V30 31 H -3.82307 0.479264 -0.0812522 0
M  V30 32 H -3.081 -0.063426 1.42307 0
M  V30 33 H -2.40044 2.42762 -0.0095158 0
M  V30 34 H -2.88462 2.19611 1.64508 0
M  V30 END ATOM
M  V30 BEGIN BOND
M  V30 1 1 1 2
M  V30 2 1 2 3
M  V30 3 1 3 4
M  V30 4 1 4 5
M  V30 5 1 5 6
M  V30 6 1 6 7
M  V30 7 1 6 8
M  V30 8 1 8 9
M  V30 9 1 9 10
M  V30 10 1 10 11
M  V30 11 1 3 12
M  V30 12 1 12 13
M  V30 13 1 7 4
M  V30 14 1 11 6
M  V30 15 1 1 14
M  V30 16 1 1 15
M  V30 17 1 2 16
M  V30 18 1 2 17
M  V30 19 1 3 18
M  V30 20 1 5 19
M  V30 21 1 5 20
M  V30 22 1 7 21
M  V30 23 1 7 22
M  V30 24 1 8 23
M  V30 25 1 8 24
M  V30 26 1 9 25
M  V30 27 1 9 26
M  V30 28 1 10 27
M  V30 29 1 10 28
M  V30 30 1 11 29
M  V30 31 1 11 30
M  V30 32 1 12 31
M  V30 33 1 12 32
M  V30 34 1 13 33
M  V30 35 1 13 34
M  V30 END BOND
M  V30 END CTAB
M  END
