
     RDKit          3D

  0  0  0  0  0  0  0  0  0  0999 V3000
M  V30 BEGIN CTAB
M  V30 COUNTS 27 27 0 0 0
M  V30 BEGIN ATOM
M  V30 1 N -4.06731 0.33455 0.748206 0
M  V30 2 C -3.22669 0.562399 -0.404836 0
M  V30 3 C -1.80177 0.262426 0.00582462 0
M  V30 4 N -1.74964 -1.12081 0.430331 0
M  V30 5 C -0.830932 0.445952 -1.12492 0
M  V30 6 C 0.545088 0.139304 -0.659138 0
M  V30 7 C 1.29097 1.15542 -0.125059 0
M  V30 8 C 2.5918 0.920973 0.324239 0
M  V30 9 C 3.16298 -0.311803 0.250047 0
M  V30 10 C 2.42513 -1.34493 -0.285016 0
M  V30 11 C 1.12127 -1.10643 -0.734546 0
M  V30 12 N 4.49024 -0.520445 0.715864 0 CHG=1
M  V30 13 O 5.23884 0.499677 1.25193 0 CHG=-1
M  V30 14 O 5.04482 -1.64156 0.662133 0
M  V30 15 H -5.0104 0.727158 0.534609 0
M  V30 16 H -3.64814 0.712236 1.62627 0
M  V30 17 H -3.48697 -0.157078 -1.20697 0
M  V30 18 H -3.30745 1.59038 -0.765873 0
M  V30 19 H -1.55417 0.892826 0.865976 0
M  V30 20 H -0.898086 -1.30004 1.00109 0
M  V30 21 H -1.70626 -1.7369 -0.403236 0
M  V30 22 H -0.913606 1.52768 -1.43747 0
M  V30 23 H -1.10776 -0.130056 -2.02176 0
M  V30 24 H 0.865843 2.13396 -0.0551688 0
M  V30 25 H 3.15855 1.74067 0.741494 0
M  V30 26 H 2.8152 -2.34966 -0.374805 0
M  V30 27 H 0.558435 -1.92589 -1.15128 0
M  V30 END ATOM
M  V30 BEGIN BOND
M  V30 1 1 1 2
M  V30 2 1 2 3
M  V30 3 1 3 4
M  V30 4 1 3 5
M  V30 5 1 5 6
M  V30 6 2 6 7
M  V30 7 1 7 8
M  V30 8 2 8 9
M  V30 9 1 9 10
M  V30 10 2 10 11
M  V30 11 1 9 12
M  V30 12 1 12 13
M  V30 13 2 12 14
M  V30 14 1 11 6
M  V30 15 1 1 15
M  V30 16 1 1 16
M  V30 17 1 2 17
M  V30 18 1 2 18
M  V30 19 1 3 19
M  V30 20 1 4 20
M  V30 21 1 4 21
M  V30 22 1 5 22
M  V30 23 1 5 23
M  V30 24 1 7 24
M  V30 25 1 8 25
M  V30 26 1 10 26
M  V30 27 1 11 27
M  V30 END BOND
M  V30 END CTAB
M  END
