
     RDKit          3D

  0  0  0  0  0  0  0  0  0  0999 V3000
M  V30 BEGIN CTAB
M  V30 COUNTS 20 20 0 0 0
M  V30 BEGIN ATOM
M  V30 1 N -3.76315 0.553907 -0.344342 0
M  V30 2 C -3.06836 -0.490133 0.375231 0
M  V30 3 C -1.60923 -0.112772 0.347156 0
M  V30 4 C -0.697956 -0.885552 -0.195033 0
M  V30 5 C 0.698619 -0.488401 -0.203196 0
M  V30 6 C 1.73946 -1.20604 -0.736645 0
M  V30 7 N 2.86228 -0.515551 -0.550093 0
M  V30 8 C 2.55008 0.618694 0.0880316 0
M  V30 9 N 3.47484 1.64083 0.47757 0
M  V30 10 N 1.22723 0.636721 0.300863 0
M  V30 11 H -4.49065 1.02342 0.206107 0
M  V30 12 H -3.16415 1.14951 -0.91751 0
M  V30 13 H -3.44577 -0.542789 1.41135 0
M  V30 14 H -3.20183 -1.47336 -0.0951287 0
M  V30 15 H -1.28557 0.819646 0.782475 0
M  V30 16 H -1.01596 -1.81941 -0.631975 0
M  V30 17 H 1.71891 -2.17427 -1.23722 0
M  V30 18 H 3.85419 -0.763967 -0.831885 0
M  V30 19 H 3.13063 2.56787 0.749904 0
M  V30 20 H 4.4864 1.46166 0.489618 0
M  V30 END ATOM
M  V30 BEGIN BOND
M  V30 1 1 1 2
M  V30 2 1 2 3
M  V30 3 2 3 4
M  V30 4 1 4 5
M  V30 5 2 5 6
M  V30 6 1 6 7
M  V30 7 1 7 8
M  V30 8 1 8 9
M  V30 9 2 8 10
M  V30 10 1 10 5
M  V30 11 1 1 11
M  V30 12 1 1 12
M  V30 13 1 2 13
M  V30 14 1 2 14
M  V30 15 1 3 15
M  V30 16 1 4 16
M  V30 17 1 6 17
M  V30 18 1 7 18
M  V30 19 1 9 19
M  V30 20 1 9 20
M  V30 END BOND
M  V30 END CTAB
M  END
