
     RDKit          3D

  0  0  0  0  0  0  0  0  0  0999 V3000
M  V30 BEGIN CTAB
M  V30 COUNTS 22 22 0 0 0
M  V30 BEGIN ATOM
M  V30 1 C 4.33833 -0.343829 -0.505067 0
M  V30 2 O 2.96366 -0.678381 -0.52441 0
M  V30 3 C 2.02701 0.330284 -0.371615 0
M  V30 4 O 2.45859 1.50151 -0.22244 0
M  V30 5 C 0.582244 0.0488469 -0.382517 0
M  V30 6 C -0.30867 1.08762 -0.226495 0
M  V30 7 C -1.66099 0.833367 -0.23548 0
M  V30 8 N -2.55883 1.9089 -0.0743954 0
M  V30 9 C -2.17508 -0.435425 -0.396252 0
M  V30 10 N -3.5656 -0.704733 -0.406566 0
M  V30 11 C -1.24034 -1.45521 -0.550538 0
M  V30 12 Cl -1.90088 -3.07756 -0.756053 0
M  V30 13 C 0.12077 -1.22871 -0.545443 0
M  V30 14 H 4.52629 0.469522 -1.22959 0
M  V30 15 H 4.95489 -1.222 -0.775984 0
M  V30 16 H 4.62471 -0.069248 0.529144 0
M  V30 17 H 0.0223518 2.09088 -0.0979691 0
M  V30 18 H -2.97968 2.35486 -0.921413 0
M  V30 19 H -2.84452 2.30564 0.841194 0
M  V30 20 H -3.91983 -1.53974 -0.908021 0
M  V30 21 H -4.25584 -0.0974132 0.0705853 0
M  V30 22 H 0.791403 -2.07919 -0.672087 0
M  V30 END ATOM
M  V30 BEGIN BOND
M  V30 1 1 1 2
M  V30 2 1 2 3
M  V30 3 2 3 4
M  V30 4 1 3 5
M  V30 5 2 5 6
M  V30 6 1 6 7
M  V30 7 1 7 8
M  V30 8 2 7 9
M  V30 9 1 9 10
M  V30 10 1 9 11
M  V30 11 1 11 12
M  V30 12 2 11 13
M  V30 13 1 13 5
M  V30 14 1 1 14
M  V30 15 1 1 15
M  V30 16 1 1 16
M  V30 17 1 6 17
M  V30 18 1 8 18
M  V30 19 1 8 19
M  V30 20 1 10 20
M  V30 21 1 10 21
M  V30 22 1 13 22
M  V30 END BOND
M  V30 END CTAB
M  END
