
     RDKit          3D

  0  0  0  0  0  0  0  0  0  0999 V3000
M  V30 BEGIN CTAB
M  V30 COUNTS 37 38 0 0 0
M  V30 BEGIN ATOM
M  V30 1 N 4.9479 -0.21701 0.425316 0
M  V30 2 C 3.61527 -0.18391 -0.0960699 0
M  V30 3 C 3.09185 1.25134 -0.252129 0
M  V30 4 C 1.77774 1.11617 -0.983064 0
M  V30 5 C 0.763691 0.408997 -0.136314 0
M  V30 6 C 1.26038 -0.864563 0.477055 0
M  V30 7 C 2.69769 -0.85808 0.875295 0
M  V30 8 N -0.33465 0.0374341 -1.04271 0
M  V30 9 C -1.41373 -0.395247 -0.216251 0
M  V30 10 C -2.57154 -0.975323 -1.031 0
M  V30 11 C -3.57272 -1.18272 0.114736 0
M  V30 12 C -3.47882 0.125695 0.843781 0
M  V30 13 C -2.13191 0.741481 0.484235 0
M  V30 14 N -4.56943 0.986475 0.397827 0
M  V30 15 H 5.47074 -1.02992 0.00188903 0
M  V30 16 H 4.97568 -0.213351 1.45859 0
M  V30 17 H 3.53134 -0.729773 -1.06575 0
M  V30 18 H 2.85593 1.61413 0.775769 0
M  V30 19 H 3.79751 1.89313 -0.787919 0
M  V30 20 H 1.39512 2.17144 -1.11521 0
M  V30 21 H 1.96575 0.667756 -1.9579 0
M  V30 22 H 0.327158 1.12107 0.586655 0
M  V30 23 H 0.66927 -1.02117 1.42488 0
M  V30 24 H 1.07801 -1.73934 -0.192698 0
M  V30 25 H 2.78737 -0.343288 1.8538 0
M  V30 26 H 2.98852 -1.92133 1.07243 0
M  V30 27 H -0.631184 0.810339 -1.64043 0
M  V30 28 H -1.16423 -1.13172 0.547488 0
M  V30 29 H -2.99687 -0.231645 -1.72636 0
M  V30 30 H -2.29541 -1.92323 -1.5126 0
M  V30 31 H -3.10084 -1.96393 0.76457 0
M  V30 32 H -4.56437 -1.44908 -0.235516 0
M  V30 33 H -3.56237 0.0173956 1.95329 0
M  V30 34 H -1.60248 1.11831 1.36394 0
M  V30 35 H -2.33756 1.55999 -0.248169 0
M  V30 36 H -5.44137 0.763592 0.913841 0
M  V30 37 H -4.22745 1.96987 0.57006 0
M  V30 END ATOM
M  V30 BEGIN BOND
M  V30 1 1 1 2
M  V30 2 1 2 3
M  V30 3 1 3 4
M  V30 4 1 4 5
M  V30 5 1 5 6
M  V30 6 1 6 7
M  V30 7 1 5 8
M  V30 8 1 8 9
M  V30 9 1 9 10
M  V30 10 1 10 11
M  V30 11 1 11 12
M  V30 12 1 12 13
M  V30 13 1 12 14
M  V30 14 1 7 2
M  V30 15 1 13 9
M  V30 16 1 1 15
M  V30 17 1 1 16
M  V30 18 1 2 17
M  V30 19 1 3 18
M  V30 20 1 3 19
M  V30 21 1 4 20
M  V30 22 1 4 21
M  V30 23 1 5 22
M  V30 24 1 6 23
M  V30 25 1 6 24
M  V30 26 1 7 25
M  V30 27 1 7 26
M  V30 28 1 8 27
M  V30 29 1 9 28
M  V30 30 1 10 29
M  V30 31 1 10 30
M  V30 32 1 11 31
M  V30 33 1 11 32
M  V30 34 1 12 33
M  V30 35 1 13 34
M  V30 36 1 13 35
M  V30 37 1 14 36
M  V30 38 1 14 37
M  V30 END BOND
M  V30 END CTAB
M  END
