
     RDKit          3D

  0  0  0  0  0  0  0  0  0  0999 V3000
M  V30 BEGIN CTAB
M  V30 COUNTS 30 30 0 0 0
M  V30 BEGIN ATOM
M  V30 1 C 5.22966 1.12881 0.155537 0
M  V30 2 C 3.87702 0.531902 0.0157507 0
M  V30 3 C 3.74415 -0.712138 -0.40428 0
M  V30 4 C 2.43052 -1.38078 -0.570521 0
M  V30 5 C 1.29023 -0.479379 -0.206972 0
M  V30 6 N 0.0439375 -1.16544 -0.382413 0
M  V30 7 C -1.2223 -0.529406 -0.10378 0
M  V30 8 C -1.26659 0.767312 0.342779 0
M  V30 9 C -2.47913 1.40436 0.619193 0
M  V30 10 C -3.64981 0.702852 0.434825 0
M  V30 11 C -3.59427 -0.606434 -0.0165808 0
M  V30 12 N -2.38282 -1.17943 -0.270988 0
M  V30 13 N -4.80605 -1.31785 -0.20238 0
M  V30 14 N -4.92919 1.30673 0.703075 0
M  V30 15 H 5.47297 1.7663 -0.721629 0
M  V30 16 H 6.01527 0.359972 0.330087 0
M  V30 17 H 5.23834 1.82527 1.03918 0
M  V30 18 H 3.01555 1.16101 0.272645 0
M  V30 19 H 4.62264 -1.28033 -0.641123 0
M  V30 20 H 2.29796 -1.83318 -1.57537 0
M  V30 21 H 2.41954 -2.23583 0.1633 0
M  V30 22 H 1.4392 -0.161744 0.857454 0
M  V30 23 H 1.31015 0.423073 -0.884379 0
M  V30 24 H 0.0588128 -2.15363 -0.721799 0
M  V30 25 H -0.357786 1.33221 0.492863 0
M  V30 26 H -2.48565 2.42457 0.969176 0
M  V30 27 H -4.97968 -1.86335 -1.06504 0
M  V30 28 H -5.53605 -1.29714 0.532533 0
M  V30 29 H -5.71867 0.736339 1.06393 0
M  V30 30 H -5.09795 2.32534 0.543981 0
M  V30 END ATOM
M  V30 BEGIN BOND
M  V30 1 1 1 2
M  V30 2 2 2 3 CFG=2
M  V30 3 1 3 4
M  V30 4 1 4 5
M  V30 5 1 5 6
M  V30 6 1 6 7
M  V30 7 2 7 8
M  V30 8 1 8 9
M  V30 9 2 9 10
M  V30 10 1 10 11
M  V30 11 2 11 12
M  V30 12 1 11 13
M  V30 13 1 10 14
M  V30 14 1 12 7
M  V30 15 1 1 15
M  V30 16 1 1 16
M  V30 17 1 1 17
M  V30 18 1 2 18
M  V30 19 1 3 19
M  V30 20 1 4 20
M  V30 21 1 4 21
M  V30 22 1 5 22
M  V30 23 1 5 23
M  V30 24 1 6 24
M  V30 25 1 8 25
M  V30 26 1 9 26
M  V30 27 1 13 27
M  V30 28 1 13 28
M  V30 29 1 14 29
M  V30 30 1 14 30
M  V30 END BOND
M  V30 END CTAB
M  END
