
     RDKit          3D

  0  0  0  0  0  0  0  0  0  0999 V3000
M  V30 BEGIN CTAB
M  V30 COUNTS 66 70 0 0 0
M  V30 BEGIN ATOM
M  V30 1 C -9.3039 0.797727 0.436074 0
M  V30 2 C -7.86572 0.525091 0.253334 0
M  V30 3 C -7.40965 0.204185 -1.00581 0
M  V30 4 C -6.10031 -0.064385 -1.2724 0
M  V30 5 C -5.16378 -0.0170322 -0.233217 0
M  V30 6 N -3.80828 -0.244777 -0.588226 0
M  V30 7 C -2.82155 -0.587565 0.3375 0
M  V30 8 C -3.13314 -1.4036 1.43165 0
M  V30 9 C -2.17964 -1.88582 2.30071 0
M  V30 10 Br -2.7132 -3.0023 3.78016 0
M  V30 11 C -0.849806 -1.58084 2.12697 0
M  V30 12 N 0.130227 -2.08529 3.03068 0
M  V30 13 C -0.492097 -0.766132 1.04355 0
M  V30 14 C -1.45927 -0.297631 0.193415 0
M  V30 15 C -1.00756 0.563688 -0.900502 0
M  V30 16 O -1.8067 1.04215 -1.71987 0
M  V30 17 C 0.422617 0.892086 -1.05775 0
M  V30 18 C 0.755378 1.69082 -2.12343 0
M  V30 19 N -0.248379 2.18845 -3.02125 0
M  V30 20 C 2.06314 2.00259 -2.31182 0
M  V30 21 Br 2.53489 3.11853 -3.80213 0
M  V30 22 C 3.0175 1.5324 -1.46036 0
M  V30 23 C 2.74974 0.713523 -0.354498 0
M  V30 24 N 3.73362 0.357261 0.57301 0
M  V30 25 C 5.08427 0.140996 0.252549 0
M  V30 26 C 6.01885 0.146217 1.28306 0
M  V30 27 C 7.34264 -0.112388 1.01876 0
M  V30 28 C 7.81318 -0.38341 -0.232292 0
M  V30 29 C 9.25818 -0.657882 -0.476357 0
M  V30 30 C 6.91816 -0.397739 -1.26999 0
M  V30 31 C 5.58447 -0.137768 -1.00395 0
M  V30 32 S 5.50649 0.460981 2.89056 0
M  V30 33 O 6.88347 0.464863 3.89704 0
M  V30 34 O 4.67786 -0.709508 3.40686 0
M  V30 35 O 4.83004 1.75877 3.08752 0
M  V30 36 C 1.38571 0.411009 -0.192789 0
M  V30 37 C 0.930364 -0.43625 0.881916 0
M  V30 38 O 1.71148 -0.918621 1.70313 0
M  V30 39 C -5.6117 0.30256 1.01681 0
M  V30 40 C -6.93097 0.569684 1.27086 0
M  V30 41 S -5.60024 -0.456613 -2.90572 0
M  V30 42 O -4.87419 -1.95306 -2.96956 0
M  V30 43 O -6.86322 -0.547981 -3.75485 0
M  V30 44 O -4.79042 0.635055 -3.53777 0
M  V30 45 H -9.49798 1.17316 1.45757 0
M  V30 46 H -9.84479 -0.168906 0.25243 0
M  V30 47 H -9.62783 1.53639 -0.346867 0
M  V30 48 H -8.13225 0.164011 -1.82549 0
M  V30 49 H -3.57449 -0.183096 -1.59423 0
M  V30 50 H -4.14333 -1.73375 1.64292 0
M  V30 51 H 0.525537 -3.04092 2.96163 0
M  V30 52 H 0.438495 -1.43144 3.78331 0
M  V30 53 H -0.646528 3.12275 -2.77823 0
M  V30 54 H -0.568424 1.67516 -3.85387 0
M  V30 55 H 4.02902 1.85729 -1.66 0
M  V30 56 H 3.48075 0.2815 1.57171 0
M  V30 57 H 8.06689 -0.102075 1.85523 0
M  V30 58 H 9.42994 -1.75821 -0.600288 0
M  V30 59 H 9.8346 -0.313431 0.406011 0
M  V30 60 H 9.56562 -0.174872 -1.42061 0
M  V30 61 H 7.23402 -0.608378 -2.29334 0
M  V30 62 H 4.9046 -0.197021 -1.84442 0
M  V30 63 H 7.16552 1.37915 4.06811 0
M  V30 64 H -4.91641 0.389917 1.857 0
M  V30 65 H -7.28809 0.821714 2.25995 0
M  V30 66 H -4.7534 -2.20235 -3.9201 0
M  V30 END ATOM
M  V30 BEGIN BOND
M  V30 1 1 1 2
M  V30 2 2 2 3
M  V30 3 1 3 4
M  V30 4 2 4 5
M  V30 5 1 5 6
M  V30 6 1 6 7
M  V30 7 2 7 8
M  V30 8 1 8 9
M  V30 9 1 9 10
M  V30 10 2 9 11
M  V30 11 1 11 12
M  V30 12 1 11 13
M  V30 13 2 13 14
M  V30 14 1 14 15
M  V30 15 2 15 16
M  V30 16 1 15 17
M  V30 17 2 17 18
M  V30 18 1 18 19
M  V30 19 1 18 20
M  V30 20 1 20 21
M  V30 21 2 20 22
M  V30 22 1 22 23
M  V30 23 1 23 24
M  V30 24 1 24 25
M  V30 25 2 25 26
M  V30 26 1 26 27
M  V30 27 2 27 28
M  V30 28 1 28 29
M  V30 29 1 28 30
M  V30 30 2 30 31
M  V30 31 1 26 32
M  V30 32 1 32 33
M  V30 33 2 32 34
M  V30 34 2 32 35
M  V30 35 2 23 36
M  V30 36 1 36 37
M  V30 37 2 37 38
M  V30 38 1 5 39
M  V30 39 2 39 40
M  V30 40 1 4 41
M  V30 41 1 41 42
M  V30 42 2 41 43
M  V30 43 2 41 44
M  V30 44 1 40 2
M  V30 45 1 14 7
M  V30 46 1 36 17
M  V30 47 1 37 13
M  V30 48 1 31 25
M  V30 49 1 1 45
M  V30 50 1 1 46
M  V30 51 1 1 47
M  V30 52 1 3 48
M  V30 53 1 6 49
M  V30 54 1 8 50
M  V30 55 1 12 51
M  V30 56 1 12 52
M  V30 57 1 19 53
M  V30 58 1 19 54
M  V30 59 1 22 55
M  V30 60 1 24 56
M  V30 61 1 27 57
M  V30 62 1 29 58
M  V30 63 1 29 59
M  V30 64 1 29 60
M  V30 65 1 30 61
M  V30 66 1 31 62
M  V30 67 1 33 63
M  V30 68 1 39 64
M  V30 69 1 40 65
M  V30 70 1 42 66
M  V30 END BOND
M  V30 END CTAB
M  END
