
     RDKit          3D

  0  0  0  0  0  0  0  0  0  0999 V3000
M  V30 BEGIN CTAB
M  V30 COUNTS 26 27 0 0 0
M  V30 BEGIN ATOM
M  V30 1 N -3.94503 -0.658315 0.680853 0
M  V30 2 C -2.59175 -0.395239 0.338757 0
M  V30 3 C -1.56054 -1.14544 0.864741 0
M  V30 4 C -0.240678 -0.899178 0.539622 0
M  V30 5 C 0.0980645 0.115174 -0.330816 0
M  V30 6 C -0.919258 0.873215 -0.864609 0
M  V30 7 C -2.23289 0.621464 -0.535559 0
M  V30 8 N -3.27454 1.42111 -1.10153 0
M  V30 9 N 1.44951 0.391073 -0.681002 0
M  V30 10 C 2.47683 -0.40839 -0.0698924 0
M  V30 11 C 3.89265 -0.0876813 -0.495474 0
M  V30 12 S 4.43803 -0.879031 1.0484 0
M  V30 13 C 2.88994 0.0695397 1.32733 0
M  V30 14 H -4.29639 -0.547119 1.64151 0
M  V30 15 H -4.59477 -0.972501 -0.0674448 0
M  V30 16 H -1.79013 -1.94253 1.54544 0
M  V30 17 H 0.552657 -1.50189 0.96368 0
M  V30 18 H -0.726039 1.69539 -1.56272 0
M  V30 19 H -4.08075 0.944932 -1.5573 0
M  V30 20 H -3.248 2.44502 -1.07019 0
M  V30 21 H 1.64932 1.15016 -1.35727 0
M  V30 22 H 2.32786 -1.50397 -0.0928357 0
M  V30 23 H 4.22892 -0.606878 -1.4127 0
M  V30 24 H 4.10954 0.989969 -0.441564 0
M  V30 25 H 3.11435 1.15077 1.31585 0
M  V30 26 H 2.27309 -0.319661 2.13002 0
M  V30 END ATOM
M  V30 BEGIN BOND
M  V30 1 1 1 2
M  V30 2 2 2 3
M  V30 3 1 3 4
M  V30 4 2 4 5
M  V30 5 1 5 6
M  V30 6 2 6 7
M  V30 7 1 7 8
M  V30 8 1 5 9
M  V30 9 1 9 10
M  V30 10 1 10 11
M  V30 11 1 11 12
M  V30 12 1 12 13
M  V30 13 1 7 2
M  V30 14 1 13 10
M  V30 15 1 1 14
M  V30 16 1 1 15
M  V30 17 1 3 16
M  V30 18 1 4 17
M  V30 19 1 6 18
M  V30 20 1 8 19
M  V30 21 1 8 20
M  V30 22 1 9 21
M  V30 23 1 10 22
M  V30 24 1 11 23
M  V30 25 1 11 24
M  V30 26 1 13 25
M  V30 27 1 13 26
M  V30 END BOND
M  V30 END CTAB
M  END
