
     RDKit          3D

  0  0  0  0  0  0  0  0  0  0999 V3000
M  V30 BEGIN CTAB
M  V30 COUNTS 47 49 0 0 0
M  V30 BEGIN ATOM
M  V30 1 C 4.65174 -0.99673 -0.485068 0 CFG=2
M  V30 2 C 4.99481 -1.30542 -1.926 0
M  V30 3 N 4.37756 -2.28267 0.156273 0
M  V30 4 C 3.38926 -0.227787 -0.475323 0
M  V30 5 O 3.39169 0.918741 -0.981001 0
M  V30 6 O 2.19055 -0.666162 0.0485264 0
M  V30 7 C 1.05137 0.104125 0.0233804 0 CFG=2
M  V30 8 C 0.456912 0.42 1.36432 0 CFG=1
M  V30 9 C 1.01914 1.67534 1.97772 0
M  V30 10 O 0.922187 2.69195 1.03609 0
M  V30 11 P 1.52259 4.15592 1.60787 0
M  V30 12 O 0.327355 5.36247 1.60622 0
M  V30 13 O 2.72642 4.66723 0.528142 0
M  V30 14 O 2.05694 4.05106 3.00779 0
M  V30 15 O -0.8855 0.685864 1.03338 0
M  V30 16 C -1.20366 -0.480211 0.314692 0 CFG=2
M  V30 17 C -0.111318 -0.496087 -0.719182 0 CFG=2
M  V30 18 O 0.146397 -1.75068 -1.22181 0
M  V30 19 N -2.52222 -0.436042 -0.251014 0
M  V30 20 C -3.05316 0.452021 -1.10942 0
M  V30 21 N -4.32792 0.138358 -1.39772 0
M  V30 22 C -4.64909 -0.975778 -0.720204 0
M  V30 23 C -3.52511 -1.32106 -0.0153087 0
M  V30 24 N -3.57753 -2.41948 0.75931 0
M  V30 25 C -4.68688 -3.18322 0.863876 0
M  V30 26 N -5.75915 -2.82279 0.16898 0
M  V30 27 C -5.79853 -1.73464 -0.635354 0
M  V30 28 N -6.97137 -1.38869 -1.36016 0
M  V30 29 H 5.46856 -0.508354 0.0512316 0
M  V30 30 H 4.31719 -2.03113 -2.37732 0
M  V30 31 H 5.01709 -0.357895 -2.47635 0
M  V30 32 H 6.01718 -1.75356 -1.96635 0
M  V30 33 H 5.18123 -2.94258 0.0260329 0
M  V30 34 H 4.17986 -2.15384 1.17421 0
M  V30 35 H 1.28105 1.07318 -0.467009 0
M  V30 36 H 0.528745 -0.389141 2.09622 0
M  V30 37 H 0.403042 1.93428 2.86045 0
M  V30 38 H 2.0551 1.55574 2.3235 0
M  V30 39 H -0.30859 5.15783 0.871173 0
M  V30 40 H 2.86836 5.65559 0.589831 0
M  V30 41 H -1.13452 -1.30916 1.03413 0
M  V30 42 H -0.456316 0.139633 -1.56488 0
M  V30 43 H 0.498012 -1.63574 -2.14791 0
M  V30 44 H -2.55395 1.31523 -1.53293 0
M  V30 45 H -4.65137 -4.05017 1.50633 0
M  V30 46 H -7.88297 -1.47142 -0.859868 0
M  V30 47 H -6.98119 -1.06416 -2.33947 0
M  V30 END ATOM
M  V30 BEGIN BOND
M  V30 1 1 1 2
M  V30 2 1 1 3
M  V30 3 1 1 4
M  V30 4 2 4 5
M  V30 5 1 4 6
M  V30 6 1 6 7
M  V30 7 1 7 8
M  V30 8 1 8 9
M  V30 9 1 9 10
M  V30 10 1 10 11
M  V30 11 1 11 12
M  V30 12 1 11 13
M  V30 13 2 11 14
M  V30 14 1 8 15
M  V30 15 1 15 16
M  V30 16 1 16 17
M  V30 17 1 17 18
M  V30 18 1 16 19
M  V30 19 1 19 20
M  V30 20 2 20 21
M  V30 21 1 21 22
M  V30 22 2 22 23
M  V30 23 1 23 24
M  V30 24 2 24 25
M  V30 25 1 25 26
M  V30 26 2 26 27
M  V30 27 1 27 28
M  V30 28 1 17 7
M  V30 29 1 23 19
M  V30 30 1 27 22
M  V30 31 1 1 29 CFG=1
M  V30 32 1 2 30
M  V30 33 1 2 31
M  V30 34 1 2 32
M  V30 35 1 3 33
M  V30 36 1 3 34
M  V30 37 1 7 35 CFG=3
M  V30 38 1 8 36 CFG=1
M  V30 39 1 9 37
M  V30 40 1 9 38
M  V30 41 1 12 39
M  V30 42 1 13 40
M  V30 43 1 16 41 CFG=1
M  V30 44 1 17 42 CFG=3
M  V30 45 1 18 43
M  V30 46 1 20 44
M  V30 47 1 25 45
M  V30 48 1 28 46
M  V30 49 1 28 47
M  V30 END BOND
M  V30 END CTAB
M  END
