
     RDKit          3D

  0  0  0  0  0  0  0  0  0  0999 V3000
M  V30 BEGIN CTAB
M  V30 COUNTS 37 38 0 0 0
M  V30 BEGIN ATOM
M  V30 1 O -2.26819 2.19734 0.175488 0
M  V30 2 C -1.65768 1.11608 0.108584 0
M  V30 3 N -0.221841 1.07159 0.0981264 0
M  V30 4 C 0.806376 2.06542 0.150943 0
M  V30 5 C 1.73252 1.02235 0.74725 0
M  V30 6 C 0.781599 0.0570634 0.0329922 0
M  V30 7 N 3.0677 1.01119 0.228874 0
M  V30 8 N 3.7579 2.06447 -0.127183 0
M  V30 9 C 4.97115 1.67571 -0.56673 0
M  V30 10 C 5.02666 0.303828 -0.474206 0
M  V30 11 C 3.81336 -0.0886019 0.0303351 0
M  V30 12 N 3.43666 -1.42007 0.2876 0
M  V30 13 N 6.13607 -0.5227 -0.83695 0
M  V30 14 O -2.41503 -0.0352562 0.0450326 0
M  V30 15 C -3.80503 -0.0985826 0.0488943 0
M  V30 16 C -4.18529 -1.58324 -0.0363057 0
M  V30 17 C -4.42222 0.411259 1.3365 0
M  V30 18 C -4.46833 0.59884 -1.0887 0
M  V30 19 H 1.19294 2.34483 -0.857231 0
M  V30 20 H 0.594519 2.92345 0.821972 0
M  V30 21 H 1.63513 0.993577 1.84936 0
M  V30 22 H 1.16618 -0.0667112 -1.01434 0
M  V30 23 H 0.593284 -0.874752 0.571016 0
M  V30 24 H 5.79624 2.27036 -0.937105 0
M  V30 25 H 3.08429 -1.66461 1.23862 0
M  V30 26 H 3.50255 -2.14919 -0.44014 0
M  V30 27 H 7.09807 -0.126001 -0.782838 0
M  V30 28 H 5.93803 -1.50033 -1.14475 0
M  V30 29 H -3.9839 -1.91135 -1.0781 0
M  V30 30 H -5.24162 -1.75268 0.183642 0
M  V30 31 H -3.50361 -2.17895 0.618112 0
M  V30 32 H -3.96233 -0.039913 2.23331 0
M  V30 33 H -4.4418 1.51505 1.39247 0
M  V30 34 H -5.4936 0.0851526 1.32033 0
M  V30 35 H -3.86035 0.613763 -2.01863 0
M  V30 36 H -5.40382 0.0545777 -1.33557 0
M  V30 37 H -4.79658 1.62397 -0.780665 0
M  V30 END ATOM
M  V30 BEGIN BOND
M  V30 1 2 1 2
M  V30 2 1 2 3
M  V30 3 1 3 4
M  V30 4 1 4 5
M  V30 5 1 5 6
M  V30 6 1 5 7
M  V30 7 1 7 8
M  V30 8 2 8 9
M  V30 9 1 9 10
M  V30 10 2 10 11
M  V30 11 1 11 12
M  V30 12 1 10 13
M  V30 13 1 2 14
M  V30 14 1 14 15
M  V30 15 1 15 16
M  V30 16 1 15 17
M  V30 17 1 15 18
M  V30 18 1 6 3
M  V30 19 1 11 7
M  V30 20 1 4 19
M  V30 21 1 4 20
M  V30 22 1 5 21
M  V30 23 1 6 22
M  V30 24 1 6 23
M  V30 25 1 9 24
M  V30 26 1 12 25
M  V30 27 1 12 26
M  V30 28 1 13 27
M  V30 29 1 13 28
M  V30 30 1 16 29
M  V30 31 1 16 30
M  V30 32 1 16 31
M  V30 33 1 17 32
M  V30 34 1 17 33
M  V30 35 1 17 34
M  V30 36 1 18 35
M  V30 37 1 18 36
M  V30 38 1 18 37
M  V30 END BOND
M  V30 END CTAB
M  END
