
     RDKit          3D

  0  0  0  0  0  0  0  0  0  0999 V3000
M  V30 BEGIN CTAB
M  V30 COUNTS 35 38 0 0 0
M  V30 BEGIN ATOM
M  V30 1 N 6.55951 -0.798252 -1.2129 0
M  V30 2 C 5.26028 -0.370534 -0.880308 0
M  V30 3 N 5.02235 0.899547 -0.506375 0
M  V30 4 C 3.79691 1.3476 -0.18095 0
M  V30 5 C 2.73941 0.4637 -0.233845 0
M  V30 6 N 1.47035 0.847425 0.0820787 0
M  V30 7 C 1.22238 2.11463 0.456956 0
M  V30 8 S -0.424162 2.69229 0.887793 0
M  V30 9 C -1.62356 1.40468 0.753028 0
M  V30 10 C -1.87871 0.617672 1.85662 0
M  V30 11 C -2.80426 -0.406014 1.81902 0
M  V30 12 C -3.48048 -0.632918 0.641824 0
M  V30 13 C -4.40508 -1.6777 0.653233 0
M  V30 14 C -5.08093 -1.90224 -0.528196 0
M  V30 15 C -4.87066 -1.15197 -1.66207 0
M  V30 16 C -3.95329 -0.130875 -1.63915 0
M  V30 17 C -3.25332 0.132887 -0.484429 0
M  V30 18 C -2.31292 1.15934 -0.416102 0
M  V30 19 C 2.29014 2.98293 0.504014 0
M  V30 20 N 3.54768 2.61467 0.194107 0
M  V30 21 C 2.97569 -0.840785 -0.61653 0
M  V30 22 N 1.85799 -1.74826 -0.665383 0
M  V30 23 N 4.21127 -1.21185 -0.923455 0
M  V30 24 H 7.35492 -0.725127 -0.562087 0
M  V30 25 H 6.70609 -1.20354 -2.16109 0
M  V30 26 H -1.35177 0.77806 2.81017 0
M  V30 27 H -2.99962 -1.02172 2.69294 0
M  V30 28 H -4.57783 -2.27773 1.5486 0
M  V30 29 H -5.81154 -2.69604 -0.589307 0
M  V30 30 H -5.42678 -1.36263 -2.5771 0
M  V30 31 H -3.74296 0.494019 -2.49621 0
M  V30 32 H -2.13925 1.75345 -1.29613 0
M  V30 33 H 2.13773 4.00904 0.799363 0
M  V30 34 H 0.966412 -1.50522 -0.207132 0
M  V30 35 H 2.018 -2.64854 -1.18815 0
M  V30 END ATOM
M  V30 BEGIN BOND
M  V30 1 1 1 2
M  V30 2 2 2 3
M  V30 3 1 3 4
M  V30 4 2 4 5
M  V30 5 1 5 6
M  V30 6 2 6 7
M  V30 7 1 7 8
M  V30 8 1 8 9
M  V30 9 2 9 10
M  V30 10 1 10 11
M  V30 11 2 11 12
M  V30 12 1 12 13
M  V30 13 2 13 14
M  V30 14 1 14 15
M  V30 15 2 15 16
M  V30 16 1 16 17
M  V30 17 2 17 18
M  V30 18 1 7 19
M  V30 19 2 19 20
M  V30 20 1 5 21
M  V30 21 1 21 22
M  V30 22 2 21 23
M  V30 23 1 23 2
M  V30 24 1 20 4
M  V30 25 1 18 9
M  V30 26 1 17 12
M  V30 27 1 1 24
M  V30 28 1 1 25
M  V30 29 1 10 26
M  V30 30 1 11 27
M  V30 31 1 13 28
M  V30 32 1 14 29
M  V30 33 1 15 30
M  V30 34 1 16 31
M  V30 35 1 18 32
M  V30 36 1 19 33
M  V30 37 1 22 34
M  V30 38 1 22 35
M  V30 END BOND
M  V30 END CTAB
M  END
