
     RDKit          3D

  0  0  0  0  0  0  0  0  0  0999 V3000
M  V30 BEGIN CTAB
M  V30 COUNTS 22 22 0 0 0
M  V30 BEGIN ATOM
M  V30 1 N -3.86303 0.0946839 0.8021 0
M  V30 2 N -2.5906 0.585967 1.04743 0
M  V30 3 C -1.66644 0.358174 0.179491 0
M  V30 4 N -0.350506 0.849669 0.40351 0
M  V30 5 C 0.727508 -0.0342274 0.836429 0
M  V30 6 C 0.917803 -1.06276 -0.150014 0
M  V30 7 C 2.04889 -1.07705 -0.807947 0
M  V30 8 S 3.02539 0.27618 -0.210248 0
M  V30 9 O 3.10746 1.35571 -1.24264 0
M  V30 10 O 4.35938 -0.173144 0.25993 0
M  V30 11 C 1.94442 0.7171 1.13364 0
M  V30 12 N -1.92602 -0.376398 -1.00575 0
M  V30 13 H -4.53832 0.677973 0.283875 0
M  V30 14 H -4.12354 -0.838092 1.13446 0
M  V30 15 H -0.205053 1.8705 0.240899 0
M  V30 16 H 0.351306 -0.510656 1.78812 0
M  V30 17 H 0.140992 -1.82339 -0.355031 0
M  V30 18 H 2.39078 -1.75348 -1.58061 0
M  V30 19 H 1.82905 1.80173 1.24091 0
M  V30 20 H 2.46577 0.368373 2.06913 0
M  V30 21 H -2.15045 -1.38545 -0.932416 0
M  V30 22 H -1.89478 0.0785772 -1.93923 0
M  V30 END ATOM
M  V30 BEGIN BOND
M  V30 1 1 1 2
M  V30 2 2 2 3 CFG=2
M  V30 3 1 3 4
M  V30 4 1 4 5
M  V30 5 1 5 6
M  V30 6 2 6 7
M  V30 7 1 7 8
M  V30 8 2 8 9
M  V30 9 2 8 10
M  V30 10 1 8 11
M  V30 11 1 3 12
M  V30 12 1 11 5
M  V30 13 1 1 13
M  V30 14 1 1 14
M  V30 15 1 4 15
M  V30 16 1 5 16
M  V30 17 1 6 17
M  V30 18 1 7 18
M  V30 19 1 11 19
M  V30 20 1 11 20
M  V30 21 1 12 21
M  V30 22 1 12 22
M  V30 END BOND
M  V30 END CTAB
M  END
