
     RDKit          3D

  0  0  0  0  0  0  0  0  0  0999 V3000
M  V30 BEGIN CTAB
M  V30 COUNTS 34 34 0 0 0
M  V30 BEGIN ATOM
M  V30 1 C -3.92941 1.43271 -0.336344 0
M  V30 2 C -2.82756 0.6177 -0.971513 0
M  V30 3 N -2.15256 -0.235933 -0.0457642 0
M  V30 4 C -1.02446 0.215349 0.658015 0
M  V30 5 O -0.392879 -0.499025 1.48616 0
M  V30 6 C -0.5598 1.62122 0.400329 0
M  V30 7 S 0.89016 2.02331 1.38744 0
M  V30 8 C 2.24266 1.00569 0.820539 0
M  V30 9 N 3.43225 1.1771 1.4602 0
M  V30 10 C 4.50071 0.463458 1.10852 0
M  V30 11 N 5.73382 0.665261 1.7976 0
M  V30 12 C 4.39441 -0.445375 0.0975002 0
M  V30 13 C 3.17832 -0.624766 -0.560885 0
M  V30 14 N 2.1214 0.113231 -0.178799 0
M  V30 15 N 3.10546 -1.58369 -1.61182 0
M  V30 16 C -2.61919 -1.57442 0.180848 0
M  V30 17 C -3.63239 -1.67816 1.29233 0
M  V30 18 H -4.85584 1.24594 -0.918931 0
M  V30 19 H -3.74611 2.52764 -0.393246 0
M  V30 20 H -4.05849 1.196 0.739669 0
M  V30 21 H -2.15479 1.34629 -1.49006 0
M  V30 22 H -3.22118 -0.0353305 -1.79129 0
M  V30 23 H -0.316293 1.72404 -0.69694 0
M  V30 24 H -1.40855 2.289 0.629689 0
M  V30 25 H 5.9048 1.51741 2.35062 0
M  V30 26 H 6.48034 -0.055746 1.74681 0
M  V30 27 H 5.24803 -1.03755 -0.207257 0
M  V30 28 H 3.79816 -2.34279 -1.66365 0
M  V30 29 H 2.36906 -1.55755 -2.35061 0
M  V30 30 H -3.08263 -1.93175 -0.760204 0
M  V30 31 H -1.7816 -2.29487 0.405157 0
M  V30 32 H -3.22969 -1.26166 2.2359 0
M  V30 33 H -3.79546 -2.76762 1.47484 0
M  V30 34 H -4.6107 -1.25509 1.0135 0
M  V30 END ATOM
M  V30 BEGIN BOND
M  V30 1 1 1 2
M  V30 2 1 2 3
M  V30 3 1 3 4
M  V30 4 2 4 5
M  V30 5 1 4 6
M  V30 6 1 6 7
M  V30 7 1 7 8
M  V30 8 2 8 9
M  V30 9 1 9 10
M  V30 10 1 10 11
M  V30 11 2 10 12
M  V30 12 1 12 13
M  V30 13 2 13 14
M  V30 14 1 13 15
M  V30 15 1 3 16
M  V30 16 1 16 17
M  V30 17 1 14 8
M  V30 18 1 1 18
M  V30 19 1 1 19
M  V30 20 1 1 20
M  V30 21 1 2 21
M  V30 22 1 2 22
M  V30 23 1 6 23
M  V30 24 1 6 24
M  V30 25 1 11 25
M  V30 26 1 11 26
M  V30 27 1 12 27
M  V30 28 1 15 28
M  V30 29 1 15 29
M  V30 30 1 16 30
M  V30 31 1 16 31
M  V30 32 1 17 32
M  V30 33 1 17 33
M  V30 34 1 17 34
M  V30 END BOND
M  V30 END CTAB
M  END
