
     RDKit          3D

  0  0  0  0  0  0  0  0  0  0999 V3000
M  V30 BEGIN CTAB
M  V30 COUNTS 57 60 0 0 0
M  V30 BEGIN ATOM
M  V30 1 C -1.94534 3.9311 1.11829 0
M  V30 2 N -1.72619 2.5657 0.763515 0
M  V30 3 C -2.85414 1.67899 0.96211 0
M  V30 4 C -3.66664 2.07557 1.99842 0
M  V30 5 C -4.67167 1.21647 2.35831 0
M  V30 6 C -4.83886 0.00400359 1.68933 0
M  V30 7 N -5.88963 -0.842205 2.09269 0
M  V30 8 C -4.03029 -0.400084 0.649219 0
M  V30 9 C -3.01819 0.4713 0.282304 0
M  V30 10 C -2.23484 -0.0334738 -0.83138 0
M  V30 11 N -0.91187 0.0868769 -0.870041 0
M  V30 12 C -0.0381472 0.704032 0.0943278 0 CFG=1
M  V30 13 N 1.33645 0.596753 -0.2727 0
M  V30 14 C 2.32106 -0.0423236 0.511629 0
M  V30 15 O 1.9885 -0.55414 1.60212 0
M  V30 16 C 3.72759 -0.121397 0.0787835 0
M  V30 17 C 4.5986 -0.845408 1.06952 0
M  V30 18 C 5.98699 -0.87266 0.544931 0
M  V30 19 C 6.38777 -1.72946 -0.449272 0
M  V30 20 Cl 5.22944 -2.85197 -1.12818 0
M  V30 21 C 7.69217 -1.71911 -0.915226 0
M  V30 22 C 8.59344 -0.832688 -0.366794 0
M  V30 23 Cl 10.2529 -0.806024 -0.946247 0
M  V30 24 C 8.21465 0.0340612 0.629471 0
M  V30 25 C 6.9254 0.0119646 1.07815 0
M  V30 26 C -0.448758 2.14654 0.277201 0
M  V30 27 O 0.375244 3.04941 -0.0121102 0
M  V30 28 C -2.82074 -0.757871 -1.89736 0
M  V30 29 C -4.09408 -0.830319 -2.29902 0
M  V30 30 N -5.06133 0.201959 -1.9656 0
M  V30 31 C -4.577 -1.75246 -3.23009 0
M  V30 32 C -3.72364 -2.65217 -3.79667 0
M  V30 33 C -2.38965 -2.62324 -3.42746 0
M  V30 34 C -1.95036 -1.70949 -2.51039 0
M  V30 35 H -1.31184 4.60045 0.506747 0
M  V30 36 H -1.69658 4.16015 2.17519 0
M  V30 37 H -2.9971 4.25182 0.873579 0
M  V30 38 H -3.44487 3.02966 2.43794 0
M  V30 39 H -5.32332 1.50629 3.16865 0
M  V30 40 H -6.8076 -0.471276 2.45814 0
M  V30 41 H -5.74308 -1.89108 2.02275 0
M  V30 42 H -4.08904 -1.34012 0.141126 0
M  V30 43 H -0.19717 0.216116 1.06959 0
M  V30 44 H 1.6719 1.0168 -1.19346 0
M  V30 45 H 3.79312 -0.60574 -0.899986 0
M  V30 46 H 4.18766 0.88811 -0.0509706 0
M  V30 47 H 4.60666 -0.291658 2.02588 0
M  V30 48 H 4.22237 -1.86794 1.29373 0
M  V30 49 H 7.97426 -2.39557 -1.68779 0
M  V30 50 H 8.92765 0.728347 1.05646 0
M  V30 51 H 6.64247 0.709399 1.87185 0
M  V30 52 H -4.74128 1.18206 -1.97007 0
M  V30 53 H -6.04365 -0.0155907 -1.72988 0
M  V30 54 H -5.63321 -1.75163 -3.50098 0
M  V30 55 H -4.08203 -3.37385 -4.52004 0
M  V30 56 H -1.75254 -3.35329 -3.90565 0
M  V30 57 H -0.901651 -1.72969 -2.25831 0
M  V30 END ATOM
M  V30 BEGIN BOND
M  V30 1 1 1 2
M  V30 2 1 2 3
M  V30 3 2 3 4
M  V30 4 1 4 5
M  V30 5 2 5 6
M  V30 6 1 6 7
M  V30 7 1 6 8
M  V30 8 2 8 9
M  V30 9 1 9 10
M  V30 10 2 10 11
M  V30 11 1 11 12
M  V30 12 1 12 13
M  V30 13 1 13 14
M  V30 14 2 14 15
M  V30 15 1 14 16
M  V30 16 1 16 17
M  V30 17 1 17 18
M  V30 18 2 18 19
M  V30 19 1 19 20
M  V30 20 1 19 21
M  V30 21 2 21 22
M  V30 22 1 22 23
M  V30 23 1 22 24
M  V30 24 2 24 25
M  V30 25 1 12 26
M  V30 26 2 26 27
M  V30 27 1 10 28
M  V30 28 2 28 29
M  V30 29 1 29 30
M  V30 30 1 29 31
M  V30 31 2 31 32
M  V30 32 1 32 33
M  V30 33 2 33 34
M  V30 34 1 26 2
M  V30 35 1 34 28
M  V30 36 1 9 3
M  V30 37 1 25 18
M  V30 38 1 1 35
M  V30 39 1 1 36
M  V30 40 1 1 37
M  V30 41 1 4 38
M  V30 42 1 5 39
M  V30 43 1 7 40
M  V30 44 1 7 41
M  V30 45 1 8 42
M  V30 46 1 12 43 CFG=1
M  V30 47 1 13 44
M  V30 48 1 16 45
M  V30 49 1 16 46
M  V30 50 1 17 47
M  V30 51 1 17 48
M  V30 52 1 21 49
M  V30 53 1 24 50
M  V30 54 1 25 51
M  V30 55 1 30 52
M  V30 56 1 30 53
M  V30 57 1 31 54
M  V30 58 1 32 55
M  V30 59 1 33 56
M  V30 60 1 34 57
M  V30 END BOND
M  V30 END CTAB
M  END
