
     RDKit          3D

  0  0  0  0  0  0  0  0  0  0999 V3000
M  V30 BEGIN CTAB
M  V30 COUNTS 48 50 0 0 0
M  V30 BEGIN ATOM
M  V30 1 N -4.08968 -1.60013 -3.3453 0
M  V30 2 C -2.94632 -1.14332 -2.58213 0
M  V30 3 N -2.85389 -1.36298 -1.35189 0
M  V30 4 C -1.75363 -0.965633 -0.438918 0
M  V30 5 N -0.827593 -0.0953946 -1.07299 0
M  V30 6 C 0.28778 0.605959 -0.526683 0
M  V30 7 C 1.64243 0.103943 -0.573923 0
M  V30 8 C 2.11928 -1.12668 0.0750921 0
M  V30 9 O 3.44419 -1.32069 -0.252637 0
M  V30 10 C 4.5908 -0.63788 0.0340102 0
M  V30 11 C 5.82298 -1.08437 -0.51901 0
M  V30 12 C 7.00819 -0.445236 -0.267456 0
M  V30 13 C 7.0742 0.672606 0.534083 0
M  V30 14 Cl 8.58489 1.48693 0.783196 0
M  V30 15 C 5.89693 1.13828 1.09222 0
M  V30 16 C 4.68778 0.474199 0.836632 0
M  V30 17 C -0.968573 0.100948 -2.52811 0
M  V30 18 N 0.078339 0.788653 -3.23899 0
M  V30 19 N -1.9207 -0.355376 -3.22799 0
M  V30 20 C -2.59607 -0.324973 0.641975 0
M  V30 21 C -3.0033 0.982703 0.661347 0
M  V30 22 C -3.91588 1.47187 1.6196 0
M  V30 23 C -4.40544 0.603958 2.55916 0
M  V30 24 C -4.01663 -0.712395 2.56383 0
M  V30 25 C -3.12109 -1.14788 1.60568 0
M  V30 26 C -5.44168 1.11796 3.54616 0
M  V30 27 F -4.9961 1.2623 4.80077 0
M  V30 28 F -6.49198 0.169346 3.53273 0
M  V30 29 F -6.02937 2.25613 3.02019 0
M  V30 30 H -4.65285 -0.878168 -3.83276 0
M  V30 31 H -4.34152 -2.6021 -3.4208 0
M  V30 32 H -1.35484 -1.90008 -0.028241 0
M  V30 33 H 0.323446 1.67789 -0.969044 0
M  V30 34 H 0.0848793 0.896017 0.557728 0
M  V30 35 H 2.29744 0.982931 -0.181934 0
M  V30 36 H 2.05688 0.0576434 -1.64986 0
M  V30 37 H 2.02481 -1.06899 1.19226 0
M  V30 38 H 1.53692 -2.00773 -0.354517 0
M  V30 39 H 5.74264 -1.97516 -1.14004 0
M  V30 40 H 7.89212 -0.865061 -0.719577 0
M  V30 41 H 5.92507 2.00487 1.73849 0
M  V30 42 H 3.81947 0.858553 1.32157 0
M  V30 43 H 0.487629 0.270437 -4.06184 0
M  V30 44 H 0.39359 1.70603 -2.92874 0
M  V30 45 H -2.61188 1.63709 -0.0819758 0
M  V30 46 H -4.20552 2.51944 1.59676 0
M  V30 47 H -4.43926 -1.33889 3.3294 0
M  V30 48 H -2.83889 -2.21772 1.65248 0
M  V30 END ATOM
M  V30 BEGIN BOND
M  V30 1 1 1 2
M  V30 2 2 2 3
M  V30 3 1 3 4
M  V30 4 1 4 5
M  V30 5 1 5 6
M  V30 6 1 6 7
M  V30 7 1 7 8
M  V30 8 1 8 9
M  V30 9 1 9 10
M  V30 10 2 10 11
M  V30 11 1 11 12
M  V30 12 2 12 13
M  V30 13 1 13 14
M  V30 14 1 13 15
M  V30 15 2 15 16
M  V30 16 1 5 17
M  V30 17 1 17 18
M  V30 18 2 17 19
M  V30 19 1 4 20
M  V30 20 2 20 21
M  V30 21 1 21 22
M  V30 22 2 22 23
M  V30 23 1 23 24
M  V30 24 2 24 25
M  V30 25 1 23 26
M  V30 26 1 26 27
M  V30 27 1 26 28
M  V30 28 1 26 29
M  V30 29 1 19 2
M  V30 30 1 25 20
M  V30 31 1 16 10
M  V30 32 1 1 30
M  V30 33 1 1 31
M  V30 34 1 4 32
M  V30 35 1 6 33
M  V30 36 1 6 34
M  V30 37 1 7 35
M  V30 38 1 7 36
M  V30 39 1 8 37
M  V30 40 1 8 38
M  V30 41 1 11 39
M  V30 42 1 12 40
M  V30 43 1 15 41
M  V30 44 1 16 42
M  V30 45 1 18 43
M  V30 46 1 18 44
M  V30 47 1 21 45
M  V30 48 1 22 46
M  V30 49 1 24 47
M  V30 50 1 25 48
M  V30 END BOND
M  V30 END CTAB
M  END
