
     RDKit          3D

  0  0  0  0  0  0  0  0  0  0999 V3000
M  V30 BEGIN CTAB
M  V30 COUNTS 48 50 0 0 0
M  V30 BEGIN ATOM
M  V30 1 C -1.83248 0.308823 1.9573 0
M  V30 2 C -0.896049 0.014009 0.843629 0
M  V30 3 C -1.07684 -0.365167 -0.435149 0
M  V30 4 N 0.100164 -0.554061 -1.02526 0
M  V30 5 C 1.13824 -0.3038 -0.152647 0
M  V30 6 C 2.54014 -0.398148 -0.526368 0
M  V30 7 O 2.79042 -0.352999 -1.75547 0
M  V30 8 N 3.57664 -0.535627 0.389955 0
M  V30 9 C 4.95606 -0.627019 0.181717 0
M  V30 10 C 5.79928 -0.759969 1.27761 0
M  V30 11 N 5.21742 -0.796189 2.56859 0
M  V30 12 C 7.16338 -0.853849 1.11719 0
M  V30 13 C 7.75299 -0.820984 -0.123413 0
M  V30 14 C 6.94244 -0.690381 -1.22094 0
M  V30 15 C 5.55313 -0.595906 -1.0394 0
M  V30 16 C 0.505532 0.0540873 1.01738 0
M  V30 17 C 1.14576 0.467873 2.28271 0
M  V30 18 C -2.36076 -0.508008 -1.16464 0
M  V30 19 O -2.32975 -1.30201 -2.18494 0
M  V30 20 N -3.50094 0.180721 -0.758954 0
M  V30 21 C -4.76899 0.148237 -1.32184 0
M  V30 22 C -5.10813 -0.59632 -2.4108 0
M  V30 23 C -6.42216 -0.581645 -2.93262 0
M  V30 24 C -7.37651 0.198056 -2.33092 0
M  V30 25 C -7.0775 0.967082 -1.22723 0
M  V30 26 C -5.79203 0.919309 -0.759352 0
M  V30 27 N -5.45543 1.70362 0.380337 0
M  V30 28 H -2.14758 1.35539 2.02771 0
M  V30 29 H -2.72878 -0.37623 1.96311 0
M  V30 30 H -1.34061 0.0746293 2.9401 0
M  V30 31 H 0.249035 -0.853857 -2.01995 0
M  V30 32 H 3.23689 -0.607513 1.41234 0
M  V30 33 H 5.15539 0.0444342 3.16859 0
M  V30 34 H 4.8431 -1.69393 2.92033 0
M  V30 35 H 7.80922 -0.958615 2.00322 0
M  V30 36 H 8.84959 -0.897751 -0.233241 0
M  V30 37 H 7.33647 -0.657442 -2.22476 0
M  V30 38 H 4.9932 -0.495338 -1.95887 0
M  V30 39 H 1.43918 -0.355176 2.94193 0
M  V30 40 H 1.97699 1.21728 2.09526 0
M  V30 41 H 0.39912 1.07316 2.87276 0
M  V30 42 H -3.37946 0.839485 0.0727467 0
M  V30 43 H -4.382 -1.22773 -2.91682 0
M  V30 44 H -6.59572 -1.19913 -3.79144 0
M  V30 45 H -8.38246 0.182237 -2.76491 0
M  V30 46 H -7.83583 1.58733 -0.748225 0
M  V30 47 H -4.98064 2.63783 0.262846 0
M  V30 48 H -5.69913 1.31292 1.33081 0
M  V30 END ATOM
M  V30 BEGIN BOND
M  V30 1 1 1 2
M  V30 2 2 2 3
M  V30 3 1 3 4
M  V30 4 1 4 5
M  V30 5 1 5 6
M  V30 6 2 6 7
M  V30 7 1 6 8
M  V30 8 1 8 9
M  V30 9 2 9 10
M  V30 10 1 10 11
M  V30 11 1 10 12
M  V30 12 2 12 13
M  V30 13 1 13 14
M  V30 14 2 14 15
M  V30 15 2 5 16
M  V30 16 1 16 17
M  V30 17 1 3 18
M  V30 18 2 18 19
M  V30 19 1 18 20
M  V30 20 1 20 21
M  V30 21 2 21 22
M  V30 22 1 22 23
M  V30 23 2 23 24
M  V30 24 1 24 25
M  V30 25 2 25 26
M  V30 26 1 26 27
M  V30 27 1 16 2
M  V30 28 1 26 21
M  V30 29 1 15 9
M  V30 30 1 1 28
M  V30 31 1 1 29
M  V30 32 1 1 30
M  V30 33 1 4 31
M  V30 34 1 8 32
M  V30 35 1 11 33
M  V30 36 1 11 34
M  V30 37 1 12 35
M  V30 38 1 13 36
M  V30 39 1 14 37
M  V30 40 1 15 38
M  V30 41 1 17 39
M  V30 42 1 17 40
M  V30 43 1 17 41
M  V30 44 1 20 42
M  V30 45 1 22 43
M  V30 46 1 23 44
M  V30 47 1 24 45
M  V30 48 1 25 46
M  V30 49 1 27 47
M  V30 50 1 27 48
M  V30 END BOND
M  V30 END CTAB
M  END
