
     RDKit          3D

  0  0  0  0  0  0  0  0  0  0999 V3000
M  V30 BEGIN CTAB
M  V30 COUNTS 56 58 0 0 0
M  V30 BEGIN ATOM
M  V30 1 C -1.00328 -3.85901 1.88414 0
M  V30 2 O -1.09532 -2.98419 0.80364 0
M  V30 3 C -0.201163 -1.95835 0.595447 0
M  V30 4 C -0.317517 -1.12371 -0.469739 0
M  V30 5 C -1.3839 -1.09535 -1.48925 0
M  V30 6 C -2.56077 -0.286569 -1.19131 0
M  V30 7 C -3.7334 -0.69285 -0.622082 0
M  V30 8 C -4.05214 -2.11783 -0.461418 0
M  V30 9 C -4.68732 0.278612 -0.297939 0
M  V30 10 C -4.48062 1.63314 -0.542882 0
M  V30 11 N -3.32223 1.99971 -1.1084 0
M  V30 12 C -2.40096 1.10859 -1.42252 0
M  V30 13 N -5.39989 2.56219 -0.215444 0
M  V30 14 C -6.55007 2.20172 0.36242 0
M  V30 15 N -7.54013 3.1883 0.721528 0
M  V30 16 N -6.76591 0.912994 0.606411 0
M  V30 17 C -5.86757 -0.0644181 0.294071 0
M  V30 18 N -6.18124 -1.39934 0.616848 0
M  V30 19 C 0.696117 -0.132657 -0.536101 0
M  V30 20 C 1.69995 -0.011665 0.375949 0
M  V30 21 C 1.75765 -0.889946 1.43399 0
M  V30 22 C 0.808943 -1.85644 1.53773 0
M  V30 23 C 2.66897 1.03742 0.199268 0
M  V30 24 C 3.50532 1.91667 0.0295885 0
M  V30 25 C 4.45732 2.99006 -0.194191 0
M  V30 26 C 5.52242 2.75586 -1.18225 0
M  V30 27 C 6.54265 1.72489 -0.905158 0
M  V30 28 C 6.09469 0.314934 -0.682752 0
M  V30 29 C 7.33923 -0.536814 -0.508054 0
M  V30 30 O 7.72445 -0.853914 0.779679 0
M  V30 31 O 7.98124 -0.928923 -1.5111 0
M  V30 32 H -1.62691 -4.77825 1.68392 0
M  V30 33 H -1.35632 -3.38161 2.82437 0
M  V30 34 H 0.0288044 -4.28984 2.03944 0
M  V30 35 H -1.56095 -2.1217 -1.86499 0
M  V30 36 H -0.896888 -0.611051 -2.40401 0
M  V30 37 H -3.21023 -2.66224 -1.04517 0
M  V30 38 H -3.93991 -2.56921 0.504643 0
M  V30 39 H -4.86822 -2.50383 -1.13675 0
M  V30 40 H -1.49584 1.45838 -1.87353 0
M  V30 41 H -7.27702 4.18719 0.654383 0
M  V30 42 H -8.49283 2.94848 1.04315 0
M  V30 43 H -6.76228 -1.99842 1.5432e-05 0
M  V30 44 H -5.83823 -1.79468 1.51407 0
M  V30 45 H 0.650174 0.56643 -1.38674 0
M  V30 46 H 2.5725 -0.801715 2.18661 0
M  V30 47 H 0.880734 -2.52452 2.38234 0
M  V30 48 H 3.85294 3.90886 -0.42902 0
M  V30 49 H 4.96777 3.27965 0.776246 0
M  V30 50 H 6.08607 3.74955 -1.28041 0
M  V30 51 H 5.07339 2.59146 -2.21873 0
M  V30 52 H 7.09337 2.04151 0.0300073 0
M  V30 53 H 7.34507 1.7024 -1.70394 0
M  V30 54 H 5.49666 -0.0623701 -1.50169 0
M  V30 55 H 5.51661 0.230951 0.285275 0
M  V30 56 H 8.50603 -0.398558 1.25178 0
M  V30 END ATOM
M  V30 BEGIN BOND
M  V30 1 1 1 2
M  V30 2 1 2 3
M  V30 3 2 3 4
M  V30 4 1 4 5
M  V30 5 1 5 6
M  V30 6 2 6 7
M  V30 7 1 7 8
M  V30 8 1 7 9
M  V30 9 2 9 10
M  V30 10 1 10 11
M  V30 11 2 11 12
M  V30 12 1 10 13
M  V30 13 2 13 14
M  V30 14 1 14 15
M  V30 15 1 14 16
M  V30 16 2 16 17
M  V30 17 1 17 18
M  V30 18 1 4 19
M  V30 19 2 19 20
M  V30 20 1 20 21
M  V30 21 2 21 22
M  V30 22 1 20 23
M  V30 23 3 23 24
M  V30 24 1 24 25
M  V30 25 1 25 26
M  V30 26 1 26 27
M  V30 27 1 27 28
M  V30 28 1 28 29
M  V30 29 1 29 30
M  V30 30 2 29 31
M  V30 31 1 22 3
M  V30 32 1 12 6
M  V30 33 1 17 9
M  V30 34 1 1 32
M  V30 35 1 1 33
M  V30 36 1 1 34
M  V30 37 1 5 35
M  V30 38 1 5 36
M  V30 39 1 8 37
M  V30 40 1 8 38
M  V30 41 1 8 39
M  V30 42 1 12 40
M  V30 43 1 15 41
M  V30 44 1 15 42
M  V30 45 1 18 43
M  V30 46 1 18 44
M  V30 47 1 19 45
M  V30 48 1 21 46
M  V30 49 1 22 47
M  V30 50 1 25 48
M  V30 51 1 25 49
M  V30 52 1 26 50
M  V30 53 1 26 51
M  V30 54 1 27 52
M  V30 55 1 27 53
M  V30 56 1 28 54
M  V30 57 1 28 55
M  V30 58 1 30 56
M  V30 END BOND
M  V30 END CTAB
M  END
