
     RDKit          3D

  0  0  0  0  0  0  0  0  0  0999 V3000
M  V30 BEGIN CTAB
M  V30 COUNTS 47 50 0 0 0
M  V30 BEGIN ATOM
M  V30 1 N -7.08717 1.2479 -1.1427 0
M  V30 2 C -6.3871 1.03167 0.106975 0 CFG=2
M  V30 3 C -4.94881 1.49954 0.0642413 0
M  V30 4 C -4.60877 0.238268 0.871329 0 CFG=1
M  V30 5 C -5.86712 -0.369692 0.325645 0
M  V30 6 C -3.34159 -0.411721 0.503439 0
M  V30 7 N -3.40763 -1.60613 -0.0973509 0
M  V30 8 C -2.30102 -2.25329 -0.469729 0
M  V30 9 N -2.33224 -3.53369 -1.08683 0
M  V30 10 N -1.08954 -1.70848 -0.246503 0
M  V30 11 C -0.943808 -0.490952 0.363375 0
M  V30 12 C -2.10362 0.145922 0.733821 0
M  V30 13 N 0.347793 0.0530543 0.575219 0
M  V30 14 C 0.804496 1.13497 -0.271673 0
M  V30 15 C 2.24387 1.43043 0.0359773 0
M  V30 16 O 2.76485 2.42193 0.672399 0
M  V30 17 N 4.08002 2.2994 0.716885 0
M  V30 18 C 4.47719 1.18769 0.0922592 0
M  V30 19 C 3.29776 0.612866 -0.355316 0
M  V30 20 C 5.82445 0.641624 -0.110618 0
M  V30 21 C 5.98768 -0.565355 -0.801325 0
M  V30 22 C 7.20313 -1.1278 -1.02786 0
M  V30 23 C 8.32171 -0.486377 -0.559545 0
M  V30 24 N 8.1778 0.688281 0.113698 0
M  V30 25 C 6.96985 1.24854 0.339459 0
M  V30 26 C 1.227 -0.480926 1.6311 0
M  V30 27 H -7.96507 0.704069 -1.12626 0
M  V30 28 H -6.47823 0.939484 -1.91077 0
M  V30 29 H -6.92252 1.36387 1.01746 0
M  V30 30 H -4.50442 1.42497 -0.938549 0
M  V30 31 H -4.76719 2.43602 0.636333 0
M  V30 32 H -4.70093 0.431638 1.97965 0
M  V30 33 H -5.65498 -0.92373 -0.627947 0
M  V30 34 H -6.47504 -0.982335 1.02975 0
M  V30 35 H -2.82974 -4.32751 -0.646439 0
M  V30 36 H -1.8492 -3.67675 -1.98613 0
M  V30 37 H -2.06357 1.11217 1.22115 0
M  V30 38 H 0.181089 2.04199 -0.135548 0
M  V30 39 H 0.735119 0.8031 -1.31788 0
M  V30 40 H 3.21393 -0.307986 -0.908523 0
M  V30 41 H 5.08681 -1.03888 -1.15231 0
M  V30 42 H 7.22747 -2.06968 -1.57613 0
M  V30 43 H 9.28543 -0.938682 -0.745724 0
M  V30 44 H 6.90626 2.1733 0.876375 0
M  V30 45 H 1.66667 0.329153 2.24401 0
M  V30 46 H 2.004 -1.14921 1.16713 0
M  V30 47 H 0.594931 -1.19269 2.22651 0
M  V30 END ATOM
M  V30 BEGIN BOND
M  V30 1 1 1 2
M  V30 2 1 2 3
M  V30 3 1 3 4
M  V30 4 1 4 5
M  V30 5 1 4 6
M  V30 6 2 6 7
M  V30 7 1 7 8
M  V30 8 1 8 9
M  V30 9 2 8 10
M  V30 10 1 10 11
M  V30 11 2 11 12
M  V30 12 1 11 13
M  V30 13 1 13 14
M  V30 14 1 14 15
M  V30 15 1 15 16
M  V30 16 1 16 17
M  V30 17 2 17 18
M  V30 18 1 18 19
M  V30 19 1 18 20
M  V30 20 2 20 21
M  V30 21 1 21 22
M  V30 22 2 22 23
M  V30 23 1 23 24
M  V30 24 2 24 25
M  V30 25 1 13 26
M  V30 26 1 5 2
M  V30 27 1 12 6
M  V30 28 2 19 15
M  V30 29 1 25 20
M  V30 30 1 1 27
M  V30 31 1 1 28
M  V30 32 1 2 29 CFG=1
M  V30 33 1 3 30
M  V30 34 1 3 31
M  V30 35 1 4 32 CFG=1
M  V30 36 1 5 33
M  V30 37 1 5 34
M  V30 38 1 9 35
M  V30 39 1 9 36
M  V30 40 1 12 37
M  V30 41 1 14 38
M  V30 42 1 14 39
M  V30 43 1 19 40
M  V30 44 1 21 41
M  V30 45 1 22 42
M  V30 46 1 23 43
M  V30 47 1 25 44
M  V30 48 1 26 45
M  V30 49 1 26 46
M  V30 50 1 26 47
M  V30 END BOND
M  V30 END CTAB
M  END
