
     RDKit          3D

  0  0  0  0  0  0  0  0  0  0999 V3000
M  V30 BEGIN CTAB
M  V30 COUNTS 23 24 0 0 0
M  V30 BEGIN ATOM
M  V30 1 C -3.47051 1.31644 -0.454732 0
M  V30 2 O -2.10852 1.02543 -0.334872 0
M  V30 3 C -1.68281 -0.286329 0.0154576 0
M  V30 4 C -2.51411 -1.30837 0.249751 0
M  V30 5 C -1.96578 -2.51593 0.577456 0
M  V30 6 S -0.294258 -2.19018 0.549535 0
M  V30 7 C -0.335667 -0.538649 0.124902 0
M  V30 8 C 0.782906 0.388582 -0.0755794 0
M  V30 9 N 0.696653 1.65276 -0.402502 0
M  V30 10 N 1.89996 2.17864 -0.49727 0
M  V30 11 C 2.78498 1.2187 -0.221758 0
M  V30 12 N 2.08308 0.105913 0.0401358 0
M  V30 13 N 2.55264 -1.16855 0.382445 0
M  V30 14 N 4.21257 1.29676 -0.194273 0
M  V30 15 H -3.8249 1.02466 -1.4669 0
M  V30 16 H -4.06971 0.762581 0.300578 0
M  V30 17 H -3.63941 2.40731 -0.282317 0
M  V30 18 H -3.61952 -1.22469 0.191558 0
M  V30 19 H -2.49329 -3.45961 0.80176 0
M  V30 20 H 2.33275 -1.99099 -0.200363 0
M  V30 21 H 3.14064 -1.33956 1.2353 0
M  V30 22 H 4.75354 1.05907 0.674368 0
M  V30 23 H 4.77876 1.586 -1.01268 0
M  V30 END ATOM
M  V30 BEGIN BOND
M  V30 1 1 1 2
M  V30 2 1 2 3
M  V30 3 1 3 4
M  V30 4 2 4 5
M  V30 5 1 5 6
M  V30 6 1 6 7
M  V30 7 1 7 8
M  V30 8 2 8 9
M  V30 9 1 9 10
M  V30 10 2 10 11
M  V30 11 1 11 12
M  V30 12 1 12 13
M  V30 13 1 11 14
M  V30 14 2 7 3
M  V30 15 1 12 8
M  V30 16 1 1 15
M  V30 17 1 1 16
M  V30 18 1 1 17
M  V30 19 1 4 18
M  V30 20 1 5 19
M  V30 21 1 13 20
M  V30 22 1 13 21
M  V30 23 1 14 22
M  V30 24 1 14 23
M  V30 END BOND
M  V30 END CTAB
M  END
