
     RDKit          3D

  0  0  0  0  0  0  0  0  0  0999 V3000
M  V30 BEGIN CTAB
M  V30 COUNTS 17 17 0 0 0
M  V30 BEGIN ATOM
M  V30 1 N 3.08096 -0.404962 0.17438 0
M  V30 2 C 1.68613 -0.152689 0.0383632 0
M  V30 3 C 1.21212 1.14033 -0.0141781 0
M  V30 4 C -0.123958 1.43856 -0.146317 0
M  V30 5 Cl -0.651161 3.08468 -0.206107 0
M  V30 6 C -1.01215 0.389789 -0.228613 0
M  V30 7 C -0.546828 -0.909197 -0.177164 0
M  V30 8 N -1.46064 -1.97694 -0.260444 0
M  V30 9 N 0.774223 -1.14331 -0.0464943 0
M  V30 10 N -2.40116 0.704003 -0.361559 0 CHG=1
M  V30 11 O -3.01209 0.507354 -1.58164 0 CHG=-1
M  V30 12 O -3.05775 1.14768 0.607475 0
M  V30 13 H 3.75021 -0.0844002 -0.550779 0
M  V30 14 H 3.3598 -0.927569 1.04696 0
M  V30 15 H 1.97482 1.92934 0.0609658 0
M  V30 16 H -2.31267 -1.98885 0.320412 0
M  V30 17 H -1.25987 -2.75382 -0.918178 0
M  V30 END ATOM
M  V30 BEGIN BOND
M  V30 1 1 1 2
M  V30 2 2 2 3
M  V30 3 1 3 4
M  V30 4 1 4 5
M  V30 5 2 4 6
M  V30 6 1 6 7
M  V30 7 1 7 8
M  V30 8 2 7 9
M  V30 9 1 6 10
M  V30 10 1 10 11
M  V30 11 2 10 12
M  V30 12 1 9 2
M  V30 13 1 1 13
M  V30 14 1 1 14
M  V30 15 1 3 15
M  V30 16 1 8 16
M  V30 17 1 8 17
M  V30 END BOND
M  V30 END CTAB
M  END
