
     RDKit          3D

  0  0  0  0  0  0  0  0  0  0999 V3000
M  V30 BEGIN CTAB
M  V30 COUNTS 63 66 0 0 0
M  V30 BEGIN ATOM
M  V30 1 C 9.82129 0.914147 3.44955 0
M  V30 2 O 8.70769 0.997715 2.6241 0
M  V30 3 C 8.05929 -0.0991105 2.08081 0
M  V30 4 C 6.96319 -0.0093355 1.26878 0
M  V30 5 C 6.33113 -1.12437 0.736839 0
M  V30 6 C 6.84892 -2.35494 1.05545 0
M  V30 7 N 7.93899 -2.45525 1.86242 0
M  V30 8 C 8.54847 -1.35216 2.37694 0
M  V30 9 C 5.15872 -1.0063 -0.130932 0
M  V30 10 C 4.16703 -1.94957 -0.18065 0
M  V30 11 C 3.09254 -1.78723 -1.0112 0
M  V30 12 C 2.94052 -0.686423 -1.83558 0
M  V30 13 C 3.96402 0.249855 -1.7599 0
M  V30 14 C 5.05149 0.106412 -0.93298 0
M  V30 15 C 1.7754 -0.503319 -2.73874 0 CFG=2
M  V30 16 O 0.583139 -0.807268 -2.02488 0
M  V30 17 C -0.333712 0.21984 -1.85191 0
M  V30 18 C -1.52367 -0.00327479 -1.16354 0
M  V30 19 C -2.47174 0.963181 -0.956401 0
M  V30 20 N -2.19253 2.18557 -1.46686 0
M  V30 21 C -1.05762 2.4402 -2.13577 0
M  V30 22 N -0.752982 3.71806 -2.67593 0
M  V30 23 N -0.139362 1.46754 -2.32555 0
M  V30 24 C -3.71252 0.717952 -0.234198 0
M  V30 25 C -4.00458 -0.514106 0.285997 0
M  V30 26 C -5.20414 -0.723156 0.97645 0
M  V30 27 C -6.11752 0.29184 1.1524 0
M  V30 28 C -7.35487 0.0282271 1.87998 0
M  V30 29 C -8.49755 -0.434065 1.00736 0 CFG=2
M  V30 30 N -8.78053 0.578455 0.0359418 0
M  V30 31 C -9.67676 -0.608828 1.88187 0
M  V30 32 O -10.8024 0.16233 1.66021 0
M  V30 33 O -9.71353 -1.43401 2.83239 0
M  V30 34 C -5.8281 1.53203 0.631226 0
M  V30 35 C -4.62734 1.73556 -0.0584053 0
M  V30 36 C 1.90606 -1.37144 -3.97436 0
M  V30 37 F 1.97375 -2.71159 -3.60401 0
M  V30 38 F 3.05937 -1.03154 -4.65326 0
M  V30 39 F 0.852335 -1.23515 -4.82413 0
M  V30 40 H 10.2185 1.92816 3.64596 0
M  V30 41 H 9.55657 0.473527 4.41983 0
M  V30 42 H 10.6145 0.341562 2.90416 0
M  V30 43 H 6.56995 0.961157 1.02893 0
M  V30 44 H 6.40361 -3.24065 0.67535 0
M  V30 45 H 9.40168 -1.5249 3.0032 0
M  V30 46 H 4.24436 -2.82269 0.443704 0
M  V30 47 H 2.30638 -2.53049 -1.0535 0
M  V30 48 H 3.86777 1.1301 -2.40213 0
M  V30 49 H 5.822 0.86247 -0.909104 0
M  V30 50 H 1.80275 0.554558 -3.07302 0
M  V30 51 H -1.6565 -1.01634 -0.792172 0
M  V30 52 H -0.378371 3.75249 -3.64869 0
M  V30 53 H -0.882105 4.61612 -2.15743 0
M  V30 54 H -3.35483 -1.37309 0.201952 0
M  V30 55 H -5.41359 -1.70448 1.3787 0
M  V30 56 H -7.13266 -0.732145 2.66719 0
M  V30 57 H -7.68317 0.986902 2.34971 0
M  V30 58 H -8.29228 -1.42468 0.54615 0
M  V30 59 H -8.86316 1.49234 0.489582 0
M  V30 60 H -9.54966 0.329731 -0.618303 0
M  V30 61 H -11.5227 -0.215878 1.05462 0
M  V30 62 H -6.55826 2.31382 0.780444 0
M  V30 63 H -4.47278 2.73596 -0.437424 0
M  V30 END ATOM
M  V30 BEGIN BOND
M  V30 1 1 1 2
M  V30 2 1 2 3
M  V30 3 2 3 4
M  V30 4 1 4 5
M  V30 5 2 5 6
M  V30 6 1 6 7
M  V30 7 2 7 8
M  V30 8 1 5 9
M  V30 9 2 9 10
M  V30 10 1 10 11
M  V30 11 2 11 12
M  V30 12 1 12 13
M  V30 13 2 13 14
M  V30 14 1 12 15
M  V30 15 1 15 16
M  V30 16 1 16 17
M  V30 17 2 17 18
M  V30 18 1 18 19
M  V30 19 2 19 20
M  V30 20 1 20 21
M  V30 21 1 21 22
M  V30 22 2 21 23
M  V30 23 1 19 24
M  V30 24 2 24 25
M  V30 25 1 25 26
M  V30 26 2 26 27
M  V30 27 1 27 28
M  V30 28 1 28 29
M  V30 29 1 29 30
M  V30 30 1 29 31
M  V30 31 1 31 32
M  V30 32 2 31 33
M  V30 33 1 27 34
M  V30 34 2 34 35
M  V30 35 1 15 36
M  V30 36 1 36 37
M  V30 37 1 36 38
M  V30 38 1 36 39
M  V30 39 1 8 3
M  V30 40 1 14 9
M  V30 41 1 23 17
M  V30 42 1 35 24
M  V30 43 1 1 40
M  V30 44 1 1 41
M  V30 45 1 1 42
M  V30 46 1 4 43
M  V30 47 1 6 44
M  V30 48 1 8 45
M  V30 49 1 10 46
M  V30 50 1 11 47
M  V30 51 1 13 48
M  V30 52 1 14 49
M  V30 53 1 15 50 CFG=3
M  V30 54 1 18 51
M  V30 55 1 22 52
M  V30 56 1 22 53
M  V30 57 1 25 54
M  V30 58 1 26 55
M  V30 59 1 28 56
M  V30 60 1 28 57
M  V30 61 1 29 58 CFG=3
M  V30 62 1 30 59
M  V30 63 1 30 60
M  V30 64 1 32 61
M  V30 65 1 34 62
M  V30 66 1 35 63
M  V30 END BOND
M  V30 END CTAB
M  END
