
     RDKit          3D

  0  0  0  0  0  0  0  0  0  0999 V3000
M  V30 BEGIN CTAB
M  V30 COUNTS 37 39 0 0 0
M  V30 BEGIN ATOM
M  V30 1 C 1.68892 2.55373 -0.340482 0
M  V30 2 C 1.87852 1.41096 -1.3398 0
M  V30 3 N 2.12367 0.183081 -0.660035 0
M  V30 4 C 1.25939 -0.747621 -0.227864 0
M  V30 5 C -0.193144 -0.688913 -0.375839 0
M  V30 6 S -1.03577 0.118957 0.996782 0
M  V30 7 C -2.79321 0.0944033 0.637912 0
M  V30 8 N -3.50071 -0.971571 1.06615 0
M  V30 9 C -4.82312 -1.09006 0.850411 0
M  V30 10 N -5.48805 -2.24523 1.33598 0
M  V30 11 C -5.47864 -0.0900299 0.169361 0
M  V30 12 C -4.75221 1.00813 -0.272307 0
M  V30 13 N -3.42404 1.06085 -0.0196972 0
M  V30 14 N -5.37722 2.07413 -0.982619 0
M  V30 15 N 1.93436 -1.74367 0.362803 0
M  V30 16 C 3.24992 -1.47386 0.322825 0
M  V30 17 C 3.36148 -0.259916 -0.32224 0
M  V30 18 C 4.64778 0.251874 -0.494941 0
M  V30 19 C 5.74778 -0.430766 -0.0390956 0
M  V30 20 C 5.62933 -1.63906 0.602365 0
M  V30 21 C 4.3613 -2.16277 0.782969 0
M  V30 22 F 6.73779 -2.31558 1.05563 0
M  V30 23 H 2.03909 3.5227 -0.801125 0
M  V30 24 H 2.39118 2.34644 0.49535 0
M  V30 25 H 0.658871 2.64541 0.00538893 0
M  V30 26 H 2.77279 1.67467 -1.93922 0
M  V30 27 H 1.03499 1.37124 -2.05506 0
M  V30 28 H -0.509768 -0.212789 -1.35033 0
M  V30 29 H -0.624974 -1.73088 -0.44415 0
M  V30 30 H -5.30198 -3.17658 0.907336 0
M  V30 31 H -6.16369 -2.17403 2.11989 0
M  V30 32 H -6.55438 -0.161058 -0.0198833 0
M  V30 33 H -6.02793 1.8523 -1.76341 0
M  V30 34 H -5.20825 3.07871 -0.750531 0
M  V30 35 H 4.757 1.20102 -0.997517 0
M  V30 36 H 6.73154 -0.0257131 -0.178526 0
M  V30 37 H 4.25136 -3.10853 1.28369 0
M  V30 END ATOM
M  V30 BEGIN BOND
M  V30 1 1 1 2
M  V30 2 1 2 3
M  V30 3 1 3 4
M  V30 4 1 4 5
M  V30 5 1 5 6
M  V30 6 1 6 7
M  V30 7 2 7 8
M  V30 8 1 8 9
M  V30 9 1 9 10
M  V30 10 2 9 11
M  V30 11 1 11 12
M  V30 12 2 12 13
M  V30 13 1 12 14
M  V30 14 2 4 15
M  V30 15 1 15 16
M  V30 16 2 16 17
M  V30 17 1 17 18
M  V30 18 2 18 19
M  V30 19 1 19 20
M  V30 20 2 20 21
M  V30 21 1 20 22
M  V30 22 1 17 3
M  V30 23 1 13 7
M  V30 24 1 21 16
M  V30 25 1 1 23
M  V30 26 1 1 24
M  V30 27 1 1 25
M  V30 28 1 2 26
M  V30 29 1 2 27
M  V30 30 1 5 28
M  V30 31 1 5 29
M  V30 32 1 10 30
M  V30 33 1 10 31
M  V30 34 1 11 32
M  V30 35 1 14 33
M  V30 36 1 14 34
M  V30 37 1 18 35
M  V30 38 1 19 36
M  V30 39 1 21 37
M  V30 END BOND
M  V30 END CTAB
M  END
