
     RDKit          3D

  0  0  0  0  0  0  0  0  0  0999 V3000
M  V30 BEGIN CTAB
M  V30 COUNTS 43 45 0 0 0
M  V30 BEGIN ATOM
M  V30 1 O 2.04842 -0.939808 -1.49076 0
M  V30 2 C 1.082 -0.352816 -0.889081 0
M  V30 3 N 0.0500036 -0.996487 -0.307997 0
M  V30 4 C -0.987017 -1.64349 0.275915 0
M  V30 5 C -0.750709 -2.79152 1.07801 0
M  V30 6 C -1.68531 -3.36096 1.88723 0
M  V30 7 C -2.92768 -2.80111 1.93385 0
M  V30 8 C -3.22564 -1.69289 1.17967 0
M  V30 9 C -2.26884 -1.12122 0.359632 0
M  V30 10 C -2.65941 -0.0886639 -0.569925 0
M  V30 11 O -1.93885 0.234233 -1.56781 0
M  V30 12 C -3.88927 0.672761 -0.466704 0
M  V30 13 C -4.57897 1.03655 -1.64252 0
M  V30 14 C -5.70076 1.82001 -1.54338 0
M  V30 15 C -6.21277 2.28623 -0.366667 0
M  V30 16 C -5.52463 1.92329 0.801416 0
M  V30 17 C -4.38794 1.13237 0.72662 0
M  V30 18 C 1.29212 1.16193 -0.922513 0
M  V30 19 S 2.80158 1.55466 -1.78153 0
M  V30 20 C 4.27648 1.0677 -0.903789 0
M  V30 21 N 4.29461 0.521683 0.305659 0
M  V30 22 C 5.46576 0.175829 0.891185 0
M  V30 23 N 5.45785 -0.391225 2.18833 0
M  V30 24 N 6.61828 0.378297 0.257815 0
M  V30 25 C 6.6365 0.92922 -0.967459 0
M  V30 26 N 5.45933 1.265 -1.52752 0
M  V30 27 N 7.88292 1.10666 -1.58018 0
M  V30 28 H 0.47435 -2.16375 -0.881433 0
M  V30 29 H 0.223197 -3.2577 1.06915 0
M  V30 30 H -1.50775 -4.23522 2.49514 0
M  V30 31 H -3.71203 -3.21427 2.57353 0
M  V30 32 H -4.25857 -1.32073 1.25063 0
M  V30 33 H -4.17734 0.666575 -2.59301 0
M  V30 34 H -6.20275 2.08444 -2.45237 0
M  V30 35 H -7.11174 2.90939 -0.309616 0
M  V30 36 H -5.88168 2.26684 1.75176 0
M  V30 37 H -3.90804 0.916775 1.6852 0
M  V30 38 H 1.36917 1.47462 0.169658 0
M  V30 39 H 0.448215 1.65409 -1.40917 0
M  V30 40 H 4.56471 -0.701776 2.66824 0
M  V30 41 H 6.34878 -0.524385 2.72984 0
M  V30 42 H 8.33148 0.341591 -2.12536 0
M  V30 43 H 8.37194 2.01727 -1.49521 0
M  V30 END ATOM
M  V30 BEGIN BOND
M  V30 1 2 1 2
M  V30 2 1 2 3
M  V30 3 1 3 4
M  V30 4 2 4 5
M  V30 5 1 5 6
M  V30 6 2 6 7
M  V30 7 1 7 8
M  V30 8 2 8 9
M  V30 9 1 9 10
M  V30 10 2 10 11
M  V30 11 1 10 12
M  V30 12 2 12 13
M  V30 13 1 13 14
M  V30 14 2 14 15
M  V30 15 1 15 16
M  V30 16 2 16 17
M  V30 17 1 2 18
M  V30 18 1 18 19
M  V30 19 1 19 20
M  V30 20 2 20 21
M  V30 21 1 21 22
M  V30 22 1 22 23
M  V30 23 2 22 24
M  V30 24 1 24 25
M  V30 25 2 25 26
M  V30 26 1 25 27
M  V30 27 1 9 4
M  V30 28 1 17 12
M  V30 29 1 26 20
M  V30 30 1 3 28
M  V30 31 1 5 29
M  V30 32 1 6 30
M  V30 33 1 7 31
M  V30 34 1 8 32
M  V30 35 1 13 33
M  V30 36 1 14 34
M  V30 37 1 15 35
M  V30 38 1 16 36
M  V30 39 1 17 37
M  V30 40 1 18 38
M  V30 41 1 18 39
M  V30 42 1 23 40
M  V30 43 1 23 41
M  V30 44 1 27 42
M  V30 45 1 27 43
M  V30 END BOND
M  V30 END CTAB
M  END
