
     RDKit          3D

  0  0  0  0  0  0  0  0  0  0999 V3000
M  V30 BEGIN CTAB
M  V30 COUNTS 110 110 0 0 0
M  V30 BEGIN ATOM
M  V30 1 C -8.92198 -2.4192 -2.07078 0 CFG=2
M  V30 2 C -10.1726 -2.81895 -1.31336 0
M  V30 3 N -7.89091 -3.37443 -1.67048 0
M  V30 4 C -8.51222 -1.04934 -1.5839 0
M  V30 5 O -9.30369 -0.126382 -1.88401 0
M  V30 6 N -7.35995 -0.824709 -0.86459 0
M  V30 7 C -6.93762 0.561292 -0.369701 0 CFG=1
M  V30 8 C -7.17577 0.476873 1.06487 0
M  V30 9 C -7.07326 1.54389 2.03858 0
M  V30 10 C -5.82448 2.28584 2.29541 0
M  V30 11 C -7.39145 0.873054 3.42412 0
M  V30 12 C -5.67732 0.798959 -1.0056 0
M  V30 13 O -5.43213 -0.0503942 -2.03057 0
M  V30 14 N -4.60209 1.66685 -0.867125 0
M  V30 15 C -3.43132 1.58097 -1.76863 0 CFG=1
M  V30 16 C -2.89403 2.93974 -2.03589 0
M  V30 17 C -2.39073 3.68784 -0.845533 0
M  V30 18 C -1.87018 5.03461 -1.24336 0
M  V30 19 O -1.35055 5.9071 -0.314882 0
M  V30 20 O -1.91543 5.35874 -2.44796 0
M  V30 21 C -2.40649 0.71471 -1.13151 0
M  V30 22 O -2.65903 0.236714 0.0364302 0
M  V30 23 N -1.15195 0.353173 -1.70956 0
M  V30 24 C -0.236902 -0.502706 -1.04898 0 CFG=1
M  V30 25 C -0.0797455 -1.82936 -1.79047 0
M  V30 26 C 0.381868 -1.71885 -3.18153 0
M  V30 27 C 1.68826 -1.10346 -3.48428 0
M  V30 28 C 0.413794 -3.12526 -3.80083 0
M  V30 29 C 1.08575 0.063481 -0.715496 0
M  V30 30 O 1.4034 1.1886 -1.18027 0
M  V30 31 N 1.99889 -0.622093 0.103734 0
M  V30 32 C 3.30788 -0.290969 0.526391 0 CFG=1
M  V30 33 C 3.4343 0.305801 1.90724 0
M  V30 34 C 2.68422 1.56882 1.9975 0
M  V30 35 C 3.25606 2.76747 1.62811 0
M  V30 36 C 2.53829 3.95978 1.71721 0
M  V30 37 C 1.23584 3.95055 2.18163 0
M  V30 38 C 0.665749 2.76034 2.54886 0
M  V30 39 C 1.39108 1.56667 2.4569 0
M  V30 40 C 4.23345 -1.41986 0.301268 0
M  V30 41 O 4.14643 -2.14694 -0.718798 0
M  V30 42 N 5.27841 -1.77871 1.19673 0
M  V30 43 C 6.18267 -2.89714 0.973051 0 CFG=1
M  V30 44 C 7.55532 -2.48833 1.42231 0
M  V30 45 C 8.08206 -1.28603 0.642209 0
M  V30 46 C 9.45023 -1.0098 1.22987 0
M  V30 47 N 10.1444 0.090043 0.653231 0
M  V30 48 C 11.4277 0.412062 1.16049 0
M  V30 49 N 12.5 0.632148 0.283811 0
M  V30 50 N 11.5762 0.493276 2.43276 0
M  V30 51 C 5.74474 -4.07315 1.81132 0
M  V30 52 O 6.46779 -5.23162 1.76513 0
M  V30 53 O 4.73637 -3.96621 2.52848 0
M  V30 54 H -9.14394 -2.43378 -3.13272 0
M  V30 55 H -11.0613 -2.29202 -1.63388 0
M  V30 56 H -10.322 -3.92885 -1.45973 0
M  V30 57 H -9.98299 -2.72006 -0.212378 0
M  V30 58 H -8.25752 -4.32549 -1.50631 0
M  V30 59 H -7.11204 -3.45971 -2.33905 0
M  V30 60 H -6.69321 -1.56412 -0.605859 0
M  V30 61 H -7.73802 1.20689 -0.853972 0
M  V30 62 H -6.51093 -0.390307 1.49919 0
M  V30 63 H -8.20437 -0.0236931 1.2573 0
M  V30 64 H -7.96217 2.27932 1.97659 0
M  V30 65 H -4.91197 1.67793 2.22596 0
M  V30 66 H -5.81129 2.73997 3.34515 0
M  V30 67 H -5.7619 3.23086 1.65657 0
M  V30 68 H -6.38613 0.513166 3.78821 0
M  V30 69 H -7.82231 1.64268 4.08778 0
M  V30 70 H -8.08274 0.0730482 3.21516 0
M  V30 71 H -4.53662 2.40931 -0.17707 0
M  V30 72 H -3.74197 1.09438 -2.72879 0
M  V30 73 H -3.65802 3.58516 -2.58947 0
M  V30 74 H -2.05562 2.87762 -2.79141 0
M  V30 75 H -1.50959 3.14982 -0.395349 0
M  V30 76 H -3.15759 3.80166 -0.0642309 0
M  V30 77 H -1.08738 5.65574 0.626585 0
M  V30 78 H -0.917396 0.736584 -2.64519 0
M  V30 79 H -0.694418 -0.795276 -0.0581223 0
M  V30 80 H 0.526982 -2.4841 -1.13723 0
M  V30 81 H -1.08402 -2.30295 -1.80485 0
M  V30 82 H -0.436528 -1.2058 -3.77675 0
M  V30 83 H 1.50331 -0.0651215 -3.90859 0
M  V30 84 H 2.46275 -1.11076 -2.74198 0
M  V30 85 H 2.17015 -1.61051 -4.39182 0
M  V30 86 H 1.45796 -3.50963 -3.5922 0
M  V30 87 H -0.294173 -3.78792 -3.33918 0
M  V30 88 H 0.356238 -3.03607 -4.91407 0
M  V30 89 H 1.62836 -1.56658 0.474813 0
M  V30 90 H 3.65368 0.546369 -0.162723 0
M  V30 91 H 3.0966 -0.382265 2.71417 0
M  V30 92 H 4.51146 0.572856 2.09578 0
M  V30 93 H 4.25981 2.80203 1.26452 0
M  V30 94 H 2.97449 4.9036 1.4268 0
M  V30 95 H 0.692339 4.91076 2.25121 0
M  V30 96 H -0.351159 2.77214 2.90224 0
M  V30 97 H 0.946512 0.60977 2.74257 0
M  V30 98 H 5.40295 -1.21862 2.05685 0
M  V30 99 H 6.16378 -3.28179 -0.0589993 0
M  V30 100 H 7.54371 -2.17138 2.49997 0
M  V30 101 H 8.23244 -3.36067 1.33045 0
M  V30 102 H 7.46234 -0.397982 0.786985 0
M  V30 103 H 8.11498 -1.52023 -0.42882 0
M  V30 104 H 9.28112 -0.775992 2.32766 0
M  V30 105 H 10.0122 -1.98562 1.15986 0
M  V30 106 H 9.70647 0.648965 -0.125701 0
M  V30 107 H 13.4788 0.250798 0.434519 0
M  V30 108 H 12.3821 1.21274 -0.595533 0
M  V30 109 H 10.8333 0.34245 3.13588 0
M  V30 110 H 6.08526 -6.16481 1.63963 0
M  V30 END ATOM
M  V30 BEGIN BOND
M  V30 1 1 1 2
M  V30 2 1 1 3
M  V30 3 1 1 4
M  V30 4 2 4 5
M  V30 5 1 4 6
M  V30 6 1 6 7
M  V30 7 1 7 8
M  V30 8 1 8 9
M  V30 9 1 9 10
M  V30 10 1 9 11
M  V30 11 1 7 12
M  V30 12 2 12 13
M  V30 13 1 12 14
M  V30 14 1 14 15
M  V30 15 1 15 16
M  V30 16 1 16 17
M  V30 17 1 17 18
M  V30 18 1 18 19
M  V30 19 2 18 20
M  V30 20 1 15 21
M  V30 21 2 21 22
M  V30 22 1 21 23
M  V30 23 1 23 24
M  V30 24 1 24 25
M  V30 25 1 25 26
M  V30 26 1 26 27
M  V30 27 1 26 28
M  V30 28 1 24 29
M  V30 29 2 29 30
M  V30 30 1 29 31
M  V30 31 1 31 32
M  V30 32 1 32 33
M  V30 33 1 33 34
M  V30 34 2 34 35
M  V30 35 1 35 36
M  V30 36 2 36 37
M  V30 37 1 37 38
M  V30 38 2 38 39
M  V30 39 1 32 40
M  V30 40 2 40 41
M  V30 41 1 40 42
M  V30 42 1 42 43
M  V30 43 1 43 44
M  V30 44 1 44 45
M  V30 45 1 45 46
M  V30 46 1 46 47
M  V30 47 1 47 48
M  V30 48 1 48 49
M  V30 49 2 48 50 CFG=2
M  V30 50 1 43 51
M  V30 51 1 51 52
M  V30 52 2 51 53
M  V30 53 1 39 34
M  V30 54 1 1 54 CFG=3
M  V30 55 1 2 55
M  V30 56 1 2 56
M  V30 57 1 2 57
M  V30 58 1 3 58
M  V30 59 1 3 59
M  V30 60 1 6 60
M  V30 61 1 7 61 CFG=3
M  V30 62 1 8 62
M  V30 63 1 8 63
M  V30 64 1 9 64
M  V30 65 1 10 65
M  V30 66 1 10 66
M  V30 67 1 10 67
M  V30 68 1 11 68
M  V30 69 1 11 69
M  V30 70 1 11 70
M  V30 71 1 14 71
M  V30 72 1 15 72 CFG=3
M  V30 73 1 16 73
M  V30 74 1 16 74
M  V30 75 1 17 75
M  V30 76 1 17 76
M  V30 77 1 19 77
M  V30 78 1 23 78
M  V30 79 1 24 79 CFG=1
M  V30 80 1 25 80
M  V30 81 1 25 81
M  V30 82 1 26 82
M  V30 83 1 27 83
M  V30 84 1 27 84
M  V30 85 1 27 85
M  V30 86 1 28 86
M  V30 87 1 28 87
M  V30 88 1 28 88
M  V30 89 1 31 89
M  V30 90 1 32 90 CFG=3
M  V30 91 1 33 91
M  V30 92 1 33 92
M  V30 93 1 35 93
M  V30 94 1 36 94
M  V30 95 1 37 95
M  V30 96 1 38 96
M  V30 97 1 39 97
M  V30 98 1 42 98
M  V30 99 1 43 99 CFG=3
M  V30 100 1 44 100
M  V30 101 1 44 101
M  V30 102 1 45 102
M  V30 103 1 45 103
M  V30 104 1 46 104
M  V30 105 1 46 105
M  V30 106 1 47 106
M  V30 107 1 49 107
M  V30 108 1 49 108
M  V30 109 1 50 109
M  V30 110 1 52 110
M  V30 END BOND
M  V30 END CTAB
M  END
