
     RDKit          3D

  0  0  0  0  0  0  0  0  0  0999 V3000
M  V30 BEGIN CTAB
M  V30 COUNTS 36 37 0 0 0
M  V30 BEGIN ATOM
M  V30 1 O -0.632727 -0.189185 -1.22671 0
M  V30 2 C -0.339382 -1.38096 -0.978564 0
M  V30 3 N 0.935901 -1.81545 -0.596225 0
M  V30 4 C 2.1008 -1.0403 -0.414947 0
M  V30 5 C 3.34651 -1.67055 -0.239681 0
M  V30 6 C 4.50713 -0.96202 -0.047498 0
M  V30 7 C 4.52409 0.413591 -0.0142825 0
M  V30 8 C 3.32193 1.05582 -0.182497 0
M  V30 9 C 2.13235 0.332224 -0.379289 0
M  V30 10 O 5.69986 1.1282 0.180171 0
M  V30 11 C 6.53236 1.55256 -0.877911 0
M  V30 12 F 7.60434 2.23081 -0.306889 0
M  V30 13 F 6.92145 0.546836 -1.71069 0
M  V30 14 F 5.80948 2.5207 -1.58155 0
M  V30 15 C -1.43733 -2.39767 -1.10359 0
M  V30 16 S -2.9799 -1.63668 -1.60107 0
M  V30 17 C -3.62503 -0.544527 -0.357307 0
M  V30 18 N -3.02379 -0.317341 0.817568 0
M  V30 19 C -3.58622 0.530886 1.7084 0
M  V30 20 N -2.98593 0.807312 2.97293 0
M  V30 21 C -4.78085 1.16616 1.41241 0
M  V30 22 C -5.39824 0.929317 0.199284 0
M  V30 23 N -4.79981 0.082881 -0.643242 0
M  V30 24 N -6.63076 1.57652 -0.121088 0
M  V30 25 H 1.05533 -2.87328 -0.410244 0
M  V30 26 H 3.33609 -2.75883 -0.266633 0
M  V30 27 H 5.45634 -1.48127 0.085217 0
M  V30 28 H 3.31063 2.14105 -0.160036 0
M  V30 29 H 1.22893 0.907153 -0.496045 0
M  V30 30 H -1.11834 -3.08288 -1.92457 0
M  V30 31 H -1.51424 -3.02547 -0.195608 0
M  V30 32 H -2.72351 0.0590325 3.63406 0
M  V30 33 H -2.79389 1.79436 3.26513 0
M  V30 34 H -5.26411 1.85433 2.10144 0
M  V30 35 H -7.25755 1.06755 -0.795689 0
M  V30 36 H -6.93187 2.47911 0.255238 0
M  V30 END ATOM
M  V30 BEGIN BOND
M  V30 1 2 1 2
M  V30 2 1 2 3
M  V30 3 1 3 4
M  V30 4 2 4 5
M  V30 5 1 5 6
M  V30 6 2 6 7
M  V30 7 1 7 8
M  V30 8 2 8 9
M  V30 9 1 7 10
M  V30 10 1 10 11
M  V30 11 1 11 12
M  V30 12 1 11 13
M  V30 13 1 11 14
M  V30 14 1 2 15
M  V30 15 1 15 16
M  V30 16 1 16 17
M  V30 17 2 17 18
M  V30 18 1 18 19
M  V30 19 1 19 20
M  V30 20 2 19 21
M  V30 21 1 21 22
M  V30 22 2 22 23
M  V30 23 1 22 24
M  V30 24 1 9 4
M  V30 25 1 23 17
M  V30 26 1 3 25
M  V30 27 1 5 26
M  V30 28 1 6 27
M  V30 29 1 8 28
M  V30 30 1 9 29
M  V30 31 1 15 30
M  V30 32 1 15 31
M  V30 33 1 20 32
M  V30 34 1 20 33
M  V30 35 1 21 34
M  V30 36 1 24 35
M  V30 37 1 24 36
M  V30 END BOND
M  V30 END CTAB
M  END
