
     RDKit          3D

  0  0  0  0  0  0  0  0  0  0999 V3000
M  V30 BEGIN CTAB
M  V30 COUNTS 27 28 0 0 0
M  V30 BEGIN ATOM
M  V30 1 N 4.68504 0.263439 -0.492953 0
M  V30 2 C 3.26102 0.205576 -0.387416 0
M  V30 3 C 2.58181 -0.936728 -0.759687 0
M  V30 4 C 1.2027 -1.05406 -0.68072 0
M  V30 5 C 0.492047 0.0275094 -0.206971 0
M  V30 6 C 1.19727 1.17902 0.166412 0
M  V30 7 C 2.54808 1.28812 0.0868126 0
M  V30 8 C -0.960167 0.00967871 -0.0809208 0
M  V30 9 C -1.71728 1.07064 -0.532868 0
M  V30 10 C -3.09412 1.11369 -0.445348 0
M  V30 11 O -3.7914 2.23129 -0.929307 0
M  V30 12 C -3.73923 0.0363322 0.124786 0
M  V30 13 C -3.04316 -1.05568 0.596559 0
M  V30 14 C -1.65526 -1.04857 0.48404 0
M  V30 15 N -0.954638 -2.18485 0.980252 0
M  V30 16 H 5.24197 -0.617912 -0.534285 0
M  V30 17 H 5.14447 1.19706 -0.526941 0
M  V30 18 H 3.1059 -1.81571 -1.13984 0
M  V30 19 H 0.701109 -1.96824 -0.984421 0
M  V30 20 H 0.642725 2.03911 0.542129 0
M  V30 21 H 3.08525 2.19133 0.381105 0
M  V30 22 H -1.18376 1.90369 -0.976441 0
M  V30 23 H -3.99539 3.0359 -0.328345 0
M  V30 24 H -4.81737 0.0449472 0.205381 0
M  V30 25 H -3.53521 -1.91312 1.04863 0
M  V30 26 H -0.95134 -3.04521 0.399075 0
M  V30 27 H -0.451069 -2.19725 1.88581 0
M  V30 END ATOM
M  V30 BEGIN BOND
M  V30 1 1 1 2
M  V30 2 2 2 3
M  V30 3 1 3 4
M  V30 4 2 4 5
M  V30 5 1 5 6
M  V30 6 2 6 7
M  V30 7 1 5 8
M  V30 8 2 8 9
M  V30 9 1 9 10
M  V30 10 1 10 11
M  V30 11 2 10 12
M  V30 12 1 12 13
M  V30 13 2 13 14
M  V30 14 1 14 15
M  V30 15 1 7 2
M  V30 16 1 14 8
M  V30 17 1 1 16
M  V30 18 1 1 17
M  V30 19 1 3 18
M  V30 20 1 4 19
M  V30 21 1 6 20
M  V30 22 1 7 21
M  V30 23 1 9 22
M  V30 24 1 11 23
M  V30 25 1 12 24
M  V30 26 1 13 25
M  V30 27 1 15 26
M  V30 28 1 15 27
M  V30 END BOND
M  V30 END CTAB
M  END
