
     RDKit          3D

  0  0  0  0  0  0  0  0  0  0999 V3000
M  V30 BEGIN CTAB
M  V30 COUNTS 38 40 0 0 0
M  V30 BEGIN ATOM
M  V30 1 O -2.54009 -1.86972 0.680845 0
M  V30 2 C -2.97215 -0.601398 0.364112 0 CFG=1
M  V30 3 C -2.12617 0.430633 1.06041 0 CFG=1
M  V30 4 O -2.59512 0.532919 2.35465 0
M  V30 5 C -0.693198 0.063067 0.943921 0 CFG=2
M  V30 6 N 0.166533 1.03427 1.59724 0
M  V30 7 C -0.336913 -0.145306 -0.466263 0
M  V30 8 C -1.30838 -0.279422 -1.42029 0
M  V30 9 C -2.77483 -0.311951 -1.12627 0 CFG=2
M  V30 10 N -3.28857 1.01853 -1.36165 0
M  V30 11 C -1.0038 -0.436477 -2.77585 0
M  V30 12 C 0.28553 -0.463495 -3.20279 0
M  V30 13 C 1.28022 -0.335561 -2.2834 0
M  V30 14 C 0.980467 -0.178959 -0.928012 0
M  V30 15 C 2.12225 -0.121998 -0.0504846 0
M  V30 16 C 3.06139 0.852618 -0.210827 0
M  V30 17 C 4.19274 0.927284 0.569437 0
M  V30 18 C 4.3764 -0.017354 1.54321 0
M  V30 19 C 3.44512 -1.00952 1.72494 0
M  V30 20 C 2.30225 -1.06518 0.919207 0
M  V30 21 H -3.21964 -2.52431 0.507596 0
M  V30 22 H -4.03889 -0.472814 0.631767 0
M  V30 23 H -2.26382 1.39491 0.490724 0
M  V30 24 H -2.32684 1.36446 2.81176 0
M  V30 25 H -0.54456 -0.900366 1.48055 0
M  V30 26 H 0.375734 0.80426 2.57425 0
M  V30 27 H -0.11459 2.0148 1.41993 0
M  V30 28 H -3.32958 -1.01941 -1.75475 0
M  V30 29 H -3.96051 1.32704 -0.631598 0
M  V30 30 H -2.52872 1.69978 -1.5035 0
M  V30 31 H -1.78246 -0.539667 -3.51388 0
M  V30 32 H 0.516613 -0.58422 -4.25193 0
M  V30 33 H 2.31913 -0.35702 -2.62121 0
M  V30 34 H 2.92034 1.59651 -0.974967 0
M  V30 35 H 4.90314 1.706 0.411419 0
M  V30 36 H 5.27375 0.0595964 2.1464 0
M  V30 37 H 3.60922 -1.73235 2.4877 0
M  V30 38 H 1.61798 -1.86018 1.10998 0
M  V30 END ATOM
M  V30 BEGIN BOND
M  V30 1 1 1 2
M  V30 2 1 2 3
M  V30 3 1 3 4
M  V30 4 1 3 5
M  V30 5 1 5 6
M  V30 6 1 5 7
M  V30 7 2 7 8
M  V30 8 1 8 9
M  V30 9 1 9 10
M  V30 10 1 8 11
M  V30 11 2 11 12
M  V30 12 1 12 13
M  V30 13 2 13 14
M  V30 14 1 14 15
M  V30 15 2 15 16
M  V30 16 1 16 17
M  V30 17 2 17 18
M  V30 18 1 18 19
M  V30 19 2 19 20
M  V30 20 1 9 2
M  V30 21 1 20 15
M  V30 22 1 14 7
M  V30 23 1 1 21
M  V30 24 1 2 22 CFG=1
M  V30 25 1 3 23 CFG=3
M  V30 26 1 4 24
M  V30 27 1 5 25 CFG=1
M  V30 28 1 6 26
M  V30 29 1 6 27
M  V30 30 1 9 28 CFG=3
M  V30 31 1 10 29
M  V30 32 1 10 30
M  V30 33 1 11 31
M  V30 34 1 12 32
M  V30 35 1 13 33
M  V30 36 1 16 34
M  V30 37 1 17 35
M  V30 38 1 18 36
M  V30 39 1 19 37
M  V30 40 1 20 38
M  V30 END BOND
M  V30 END CTAB
M  END
