
     RDKit          3D

  0  0  0  0  0  0  0  0  0  0999 V3000
M  V30 BEGIN CTAB
M  V30 COUNTS 35 36 0 0 0
M  V30 BEGIN ATOM
M  V30 1 O -0.445728 1.34764 -0.227154 0
M  V30 2 C 0.0182558 1.32026 0.921327 0
M  V30 3 N 1.28111 0.809621 1.22027 0
M  V30 4 C 2.24082 0.246972 0.350303 0
M  V30 5 C 2.00213 -0.0979474 -0.948008 0
M  V30 6 C 2.98675 -0.639716 -1.79173 0
M  V30 7 C 4.2519 -0.843602 -1.32054 0
M  V30 8 C 4.5166 -0.504643 -0.0173474 0
M  V30 9 C 3.55131 0.0253297 0.805283 0
M  V30 10 C 5.87754 -0.692937 0.580836 0
M  V30 11 Br 5.6571 -1.57072 -2.37854 0
M  V30 12 C -0.838879 1.86624 2.00368 0
M  V30 13 S -1.9229 0.493923 2.54995 0
M  V30 14 C -2.99948 0.138539 1.16062 0
M  V30 15 N -4.18453 0.74915 0.979424 0
M  V30 16 C -4.97628 0.459708 -0.0837999 0
M  V30 17 N -6.23546 1.11263 -0.272697 0
M  V30 18 C -4.50286 -0.490445 -0.965303 0
M  V30 19 C -3.28191 -1.13498 -0.799121 0
M  V30 20 N -2.56872 -0.782523 0.282307 0
M  V30 21 N -2.81559 -2.1042 -1.7135 0
M  V30 22 H 1.5373 0.861803 2.27163 0
M  V30 23 H 1.02579 0.0251669 -1.3878 0
M  V30 24 H 2.76184 -0.902656 -2.81804 0
M  V30 25 H 3.74612 0.2978 1.8359 0
M  V30 26 H 6.55983 -1.22576 -0.081643 0
M  V30 27 H 5.79815 -1.11182 1.59148 0
M  V30 28 H 6.28969 0.351703 0.694145 0
M  V30 29 H -1.41017 2.74086 1.66833 0
M  V30 30 H -0.222588 2.16899 2.89148 0
M  V30 31 H -7.14137 0.630342 -0.255535 0
M  V30 32 H -6.18521 2.14979 -0.435258 0
M  V30 33 H -5.07002 -0.776024 -1.83227 0
M  V30 34 H -3.43129 -2.88788 -1.97894 0
M  V30 35 H -1.86925 -2.03061 -2.11333 0
M  V30 END ATOM
M  V30 BEGIN BOND
M  V30 1 2 1 2
M  V30 2 1 2 3
M  V30 3 1 3 4
M  V30 4 2 4 5
M  V30 5 1 5 6
M  V30 6 2 6 7
M  V30 7 1 7 8
M  V30 8 2 8 9
M  V30 9 1 8 10
M  V30 10 1 7 11
M  V30 11 1 2 12
M  V30 12 1 12 13
M  V30 13 1 13 14
M  V30 14 2 14 15
M  V30 15 1 15 16
M  V30 16 1 16 17
M  V30 17 2 16 18
M  V30 18 1 18 19
M  V30 19 2 19 20
M  V30 20 1 19 21
M  V30 21 1 9 4
M  V30 22 1 20 14
M  V30 23 1 3 22
M  V30 24 1 5 23
M  V30 25 1 6 24
M  V30 26 1 9 25
M  V30 27 1 10 26
M  V30 28 1 10 27
M  V30 29 1 10 28
M  V30 30 1 12 29
M  V30 31 1 12 30
M  V30 32 1 17 31
M  V30 33 1 17 32
M  V30 34 1 18 33
M  V30 35 1 21 34
M  V30 36 1 21 35
M  V30 END BOND
M  V30 END CTAB
M  END
