
     RDKit          3D

  0  0  0  0  0  0  0  0  0  0999 V3000
M  V30 BEGIN CTAB
M  V30 COUNTS 29 29 0 0 0
M  V30 BEGIN ATOM
M  V30 1 N 3.79244 -2.05197 -0.447815 0
M  V30 2 C 3.14092 -1.33393 0.598045 0
M  V30 3 N 3.88268 -0.624886 1.38487 0
M  V30 4 N 1.74814 -1.43239 0.717762 0
M  V30 5 C 0.853424 -0.408206 0.280375 0
M  V30 6 C 1.4085 0.737819 -0.290785 0
M  V30 7 C 0.554289 1.73001 -0.715169 0
M  V30 8 C -0.785784 1.56484 -0.566671 0
M  V30 9 C -1.37205 0.445578 -0.00653095 0
M  V30 10 N -2.77552 0.344817 0.114825 0
M  V30 11 C -3.39591 -0.79846 0.688313 0
M  V30 12 N -4.2027 -1.62277 -0.144446 0
M  V30 13 N -3.25533 -1.11439 1.92849 0
M  V30 14 C -0.50579 -0.547286 0.417541 0
M  V30 15 C 1.06577 2.97127 -1.3291 0
M  V30 16 O 0.225312 3.97306 -1.75869 0
M  V30 17 O 2.30959 3.13847 -1.47357 0
M  V30 18 H 3.39754 -2.95222 -0.844156 0
M  V30 19 H 4.69425 -1.73019 -0.880468 0
M  V30 20 H 3.49047 -0.0666276 2.17771 0
M  V30 21 H 1.34269 -2.29913 1.14897 0
M  V30 22 H 2.47554 0.864269 -0.406627 0
M  V30 23 H -1.44446 2.36875 -0.912277 0
M  V30 24 H -3.37618 1.12556 -0.223045 0
M  V30 25 H -4.03261 -2.64174 -0.283218 0
M  V30 26 H -5.01302 -1.20624 -0.652883 0
M  V30 27 H -3.72174 -1.95002 2.30269 0
M  V30 28 H -0.914847 -1.4448 0.863494 0
M  V30 29 H 0.414403 4.96083 -1.68765 0
M  V30 END ATOM
M  V30 BEGIN BOND
M  V30 1 1 1 2
M  V30 2 2 2 3 CFG=2
M  V30 3 1 2 4
M  V30 4 1 4 5
M  V30 5 2 5 6
M  V30 6 1 6 7
M  V30 7 2 7 8
M  V30 8 1 8 9
M  V30 9 1 9 10
M  V30 10 1 10 11
M  V30 11 1 11 12
M  V30 12 2 11 13 CFG=2
M  V30 13 2 9 14
M  V30 14 1 7 15
M  V30 15 1 15 16
M  V30 16 2 15 17
M  V30 17 1 14 5
M  V30 18 1 1 18
M  V30 19 1 1 19
M  V30 20 1 3 20
M  V30 21 1 4 21
M  V30 22 1 6 22
M  V30 23 1 8 23
M  V30 24 1 10 24
M  V30 25 1 12 25
M  V30 26 1 12 26
M  V30 27 1 13 27
M  V30 28 1 14 28
M  V30 29 1 16 29
M  V30 END BOND
M  V30 END CTAB
M  END
