
     RDKit          3D

  0  0  0  0  0  0  0  0  0  0999 V3000
M  V30 BEGIN CTAB
M  V30 COUNTS 31 31 0 0 0
M  V30 BEGIN ATOM
M  V30 1 N 0.331155 2.65226 0.449196 0
M  V30 2 C -0.528945 1.5758 0.946172 0
M  V30 3 C -0.621599 0.607891 -0.254186 0
M  V30 4 C -1.38439 -0.620652 0.1131 0
M  V30 5 C -0.740058 -1.44377 1.21374 0
M  V30 6 C -2.74769 -0.18756 0.724761 0
M  V30 7 C -1.73417 -1.53403 -1.02448 0
M  V30 8 C 0.825166 0.299721 -0.526559 0
M  V30 9 C 1.59696 0.399693 -1.63033 0
M  V30 10 N 2.85377 0.0723703 -1.53099 0
M  V30 11 C 3.35401 -0.342026 -0.391522 0
M  V30 12 S 1.96104 -0.276272 0.637084 0
M  V30 13 N 4.67514 -0.737748 -0.0492383 0
M  V30 14 O -1.17409 1.27984 -1.28646 0
M  V30 15 H 1.1116 2.88547 1.07974 0
M  V30 16 H -0.191635 3.42499 0.038283 0
M  V30 17 H -1.52692 1.9232 1.18344 0
M  V30 18 H 0.00319396 1.07676 1.76483 0
M  V30 19 H -0.339149 -0.874983 2.04185 0
M  V30 20 H -1.5577 -2.10009 1.63002 0
M  V30 21 H -0.0112398 -2.16453 0.754266 0
M  V30 22 H -3.22373 0.564816 0.0987024 0
M  V30 23 H -2.46747 0.201439 1.74106 0
M  V30 24 H -3.34382 -1.10702 0.854653 0
M  V30 25 H -1.83873 -2.60067 -0.66179 0
M  V30 26 H -0.954861 -1.57748 -1.81553 0
M  V30 27 H -2.74703 -1.30502 -1.44447 0
M  V30 28 H 1.19524 0.743599 -2.62331 0
M  V30 29 H 5.27218 -0.0825749 0.479676 0
M  V30 30 H 5.03096 -1.66012 -0.323907 0
M  V30 31 H -1.0772 0.906692 -2.18779 0
M  V30 END ATOM
M  V30 BEGIN BOND
M  V30 1 1 1 2
M  V30 2 1 2 3
M  V30 3 1 3 4
M  V30 4 1 4 5
M  V30 5 1 4 6
M  V30 6 1 4 7
M  V30 7 1 3 8
M  V30 8 2 8 9
M  V30 9 1 9 10
M  V30 10 2 10 11
M  V30 11 1 11 12
M  V30 12 1 11 13
M  V30 13 1 3 14
M  V30 14 1 12 8
M  V30 15 1 1 15
M  V30 16 1 1 16
M  V30 17 1 2 17
M  V30 18 1 2 18
M  V30 19 1 5 19
M  V30 20 1 5 20
M  V30 21 1 5 21
M  V30 22 1 6 22
M  V30 23 1 6 23
M  V30 24 1 6 24
M  V30 25 1 7 25
M  V30 26 1 7 26
M  V30 27 1 7 27
M  V30 28 1 9 28
M  V30 29 1 13 29
M  V30 30 1 13 30
M  V30 31 1 14 31
M  V30 END BOND
M  V30 END CTAB
M  END
