
     RDKit          3D

  0  0  0  0  0  0  0  0  0  0999 V3000
M  V30 BEGIN CTAB
M  V30 COUNTS 45 46 0 0 0
M  V30 BEGIN ATOM
M  V30 1 C -4.12964 -0.676575 -2.9779 0
M  V30 2 O -4.59336 -0.296489 -1.7125 0
M  V30 3 C -3.77131 -0.134116 -0.611602 0
M  V30 4 C -2.4225 -0.35861 -0.771596 0
M  V30 5 C -1.54597 -0.213964 0.288222 0
M  V30 6 C -2.07543 0.161916 1.50374 0
M  V30 7 C -3.42942 0.391053 1.6795 0
M  V30 8 C -4.29158 0.241219 0.606725 0
M  V30 9 O -5.64662 0.47441 0.798118 0
M  V30 10 C -6.57185 -0.506445 1.18497 0
M  V30 11 O -3.92847 0.771124 2.92846 0
M  V30 12 C -3.02954 0.917877 4.0089 0
M  V30 13 C -0.0950283 -0.451945 0.128316 0
M  V30 14 N 0.41202 -0.799212 -0.986814 0
M  V30 15 N 1.81534 -1.00507 -1.04415 0
M  V30 16 C 2.64363 0.128849 -0.998344 0
M  V30 17 O 2.13117 1.28934 -0.908306 0
M  V30 18 C 4.09064 0.00542066 -1.052 0
M  V30 19 C 4.71294 -1.20638 -1.18316 0
M  V30 20 C 6.1073 -1.28571 -1.23041 0
M  V30 21 C 6.88554 -0.147926 -1.1462 0
M  V30 22 C 6.25336 1.0663 -1.01455 0
M  V30 23 C 4.88715 1.14853 -0.967821 0
M  V30 24 N 7.03245 2.24024 -0.926998 0
M  V30 25 N 0.737723 -0.284566 1.256 0
M  V30 26 H -4.93329 -1.06248 -3.63408 0
M  V30 27 H -3.40722 -1.53933 -2.88053 0
M  V30 28 H -3.62276 0.175643 -3.49887 0
M  V30 29 H -1.97873 -0.65741 -1.72592 0
M  V30 30 H -1.38409 0.274404 2.33336 0
M  V30 31 H -6.59554 -0.503545 2.30196 0
M  V30 32 H -7.58142 -0.137416 0.839469 0
M  V30 33 H -6.33298 -1.48784 0.761534 0
M  V30 34 H -2.53087 -0.025562 4.28903 0
M  V30 35 H -2.22146 1.63809 3.70362 0
M  V30 36 H -3.56281 1.40351 4.83977 0
M  V30 37 H 2.18151 -1.97942 -1.11713 0
M  V30 38 H 4.1417 -2.13444 -1.25413 0
M  V30 39 H 6.56707 -2.26766 -1.33543 0
M  V30 40 H 7.97742 -0.239562 -1.18593 0
M  V30 41 H 4.36831 2.08756 -0.865113 0
M  V30 42 H 7.00028 2.92577 -1.70126 0
M  V30 43 H 7.64445 2.45086 -0.11121 0
M  V30 44 H 0.642748 0.583516 1.83169 0
M  V30 45 H 1.44913 -0.973963 1.55858 0
M  V30 END ATOM
M  V30 BEGIN BOND
M  V30 1 1 1 2
M  V30 2 1 2 3
M  V30 3 2 3 4
M  V30 4 1 4 5
M  V30 5 2 5 6
M  V30 6 1 6 7
M  V30 7 2 7 8
M  V30 8 1 8 9
M  V30 9 1 9 10
M  V30 10 1 7 11
M  V30 11 1 11 12
M  V30 12 1 5 13
M  V30 13 2 13 14
M  V30 14 1 14 15
M  V30 15 1 15 16
M  V30 16 2 16 17
M  V30 17 1 16 18
M  V30 18 2 18 19
M  V30 19 1 19 20
M  V30 20 2 20 21
M  V30 21 1 21 22
M  V30 22 2 22 23
M  V30 23 1 22 24
M  V30 24 1 13 25
M  V30 25 1 8 3
M  V30 26 1 23 18
M  V30 27 1 1 26
M  V30 28 1 1 27
M  V30 29 1 1 28
M  V30 30 1 4 29
M  V30 31 1 6 30
M  V30 32 1 10 31
M  V30 33 1 10 32
M  V30 34 1 10 33
M  V30 35 1 12 34
M  V30 36 1 12 35
M  V30 37 1 12 36
M  V30 38 1 15 37
M  V30 39 1 19 38
M  V30 40 1 20 39
M  V30 41 1 21 40
M  V30 42 1 23 41
M  V30 43 1 24 42
M  V30 44 1 24 43
M  V30 45 1 25 44
M  V30 46 1 25 45
M  V30 END BOND
M  V30 END CTAB
M  END
