
     RDKit          3D

  0  0  0  0  0  0  0  0  0  0999 V3000
M  V30 BEGIN CTAB
M  V30 COUNTS 111 110 0 0 0
M  V30 BEGIN ATOM
M  V30 1 C 2.84854 1.11778 0.678379 0 CFG=1
M  V30 2 N 2.47735 2.41759 1.27772 0
M  V30 3 C 1.58133 0.45705 0.291549 0
M  V30 4 C 0.732175 0.24765 1.58554 0
M  V30 5 C 1.41174 -0.697031 2.47697 0
M  V30 6 C 0.819206 -0.998005 3.78547 0
M  V30 7 N -0.514147 -1.47566 3.81724 0
M  V30 8 C -1.63691 -0.655134 3.63489 0
M  V30 9 O -1.61197 0.564318 3.45566 0
M  V30 10 C -2.99664 -1.30913 3.6641 0
M  V30 11 C -3.99913 -0.188881 3.80635 0
M  V30 12 C -5.42183 -0.598156 3.8475 0
M  V30 13 C -5.91397 -1.30566 2.63152 0
M  V30 14 C -5.76366 -0.461617 1.37468 0
M  V30 15 C -6.31836 -1.25451 0.224344 0
M  V30 16 C -6.19277 -0.505289 -1.08829 0
M  V30 17 C -6.90393 0.816785 -1.04813 0
M  V30 18 C -8.36556 0.73994 -0.7682 0
M  V30 19 C -9.16356 -0.0365571 -1.78024 0
M  V30 20 C -10.6167 -0.0206589 -1.33537 0
M  V30 21 C -11.4285 -0.759078 -2.34967 0
M  V30 22 C -12.8988 -0.807833 -1.97789 0
M  V30 23 C -13.4813 0.560361 -1.81963 0
M  V30 24 C -13.4083 1.43048 -3.03111 0
M  V30 25 C -14.0279 2.78577 -2.67687 0
M  V30 26 C 3.79166 1.38666 -0.429012 0
M  V30 27 O 3.91175 2.49491 -0.983772 0
M  V30 28 N 4.62199 0.303839 -0.878238 0
M  V30 29 C 5.58762 0.48296 -1.93958 0
M  V30 30 C 6.35954 -0.804238 -2.11601 0
M  V30 31 C 7.03834 -1.11284 -0.776351 0
M  V30 32 N 7.87783 -0.0473148 -0.417333 0
M  V30 33 C 8.52127 -0.0253405 0.813736 0
M  V30 34 C 9.60851 -0.982967 1.11634 0
M  V30 35 C 10.8607 -0.921218 0.310024 0
M  V30 36 C 10.7732 -1.17269 -1.1418 0
M  V30 37 N 11.8987 -1.21404 -1.93807 0
M  V30 38 C 12.7392 -0.202915 -2.32497 0
M  V30 39 C 13.6191 0.363135 -1.24196 0
M  V30 40 C 14.529 1.43612 -1.89312 0
M  V30 41 N 15.3612 1.98578 -0.85201 0
M  V30 42 H 3.40422 0.587113 1.45449 0
M  V30 43 H 2.16461 3.0702 0.51982 0
M  V30 44 H 3.34656 2.76043 1.74828 0
M  V30 45 H 1.66975 -0.53387 -0.163218 0
M  V30 46 H 0.945457 1.07067 -0.362407 0
M  V30 47 H 0.683094 1.25033 2.01473 0
M  V30 48 H -0.261927 -0.13182 1.23383 0
M  V30 49 H 2.48789 -0.364813 2.67975 0
M  V30 50 H 1.52894 -1.71758 1.92994 0
M  V30 51 H 1.48766 -1.77635 4.32937 0
M  V30 52 H 0.929899 -0.0915697 4.48261 0
M  V30 53 H -0.675156 -2.54424 3.9929 0
M  V30 54 H -2.98095 -1.98243 4.54958 0
M  V30 55 H -3.15509 -1.89557 2.73386 0
M  V30 56 H -3.78396 0.551365 2.99284 0
M  V30 57 H -3.72535 0.340274 4.75296 0
M  V30 58 H -6.02552 0.342948 3.95232 0
M  V30 59 H -5.59463 -1.20862 4.76137 0
M  V30 60 H -7.01722 -1.46651 2.74617 0
M  V30 61 H -5.40889 -2.25941 2.48752 0
M  V30 62 H -4.68832 -0.193662 1.21305 0
M  V30 63 H -6.38411 0.46711 1.47089 0
M  V30 64 H -7.3582 -1.50348 0.467368 0
M  V30 65 H -5.73624 -2.19058 0.129106 0
M  V30 66 H -6.54726 -1.11564 -1.92214 0
M  V30 67 H -5.11892 -0.29904 -1.2277 0
M  V30 68 H -6.43862 1.53576 -0.361782 0
M  V30 69 H -6.79198 1.25084 -2.0839 0
M  V30 70 H -8.60881 0.410917 0.266182 0
M  V30 71 H -8.75491 1.79573 -0.825839 0
M  V30 72 H -9.13404 0.464622 -2.77393 0
M  V30 73 H -8.79166 -1.06035 -1.90417 0
M  V30 74 H -10.9769 1.01834 -1.16592 0
M  V30 75 H -10.734 -0.554547 -0.359525 0
M  V30 76 H -11.0628 -1.80931 -2.38716 0
M  V30 77 H -11.2911 -0.33712 -3.36576 0
M  V30 78 H -13.428 -1.33809 -2.7951 0
M  V30 79 H -12.9961 -1.35111 -1.0264 0
M  V30 80 H -14.5786 0.396208 -1.59082 0
M  V30 81 H -13.0832 1.06375 -0.903413 0
M  V30 82 H -12.3646 1.58905 -3.37332 0
M  V30 83 H -14.0142 1.01909 -3.85226 0
M  V30 84 H -14.7752 2.60112 -1.88106 0
M  V30 85 H -14.404 3.32659 -3.55434 0
M  V30 86 H -13.2105 3.36112 -2.20042 0
M  V30 87 H 4.5252 -0.639868 -0.446036 0
M  V30 88 H 4.96023 0.671198 -2.86555 0
M  V30 89 H 6.25118 1.34074 -1.77106 0
M  V30 90 H 7.15365 -0.751542 -2.87499 0
M  V30 91 H 5.62922 -1.62047 -2.36144 0
M  V30 92 H 7.67343 -2.03138 -0.96296 0
M  V30 93 H 6.27694 -1.39897 -0.0341979 0
M  V30 94 H 7.98336 0.701016 -1.04472 0
M  V30 95 H 7.75656 -0.140375 1.6508 0
M  V30 96 H 8.96003 1.0225 0.947811 0
M  V30 97 H 9.19641 -2.03404 1.03063 0
M  V30 98 H 9.85432 -0.863278 2.22092 0
M  V30 99 H 11.254 0.132767 0.513967 0
M  V30 100 H 11.6067 -1.57627 0.830954 0
M  V30 101 H 10.1936 -2.15027 -1.31199 0
M  V30 102 H 10.0068 -0.417247 -1.56765 0
M  V30 103 H 12.3433 -2.16129 -1.99992 0
M  V30 104 H 12.1214 0.661522 -2.76591 0
M  V30 105 H 13.3723 -0.492192 -3.22417 0
M  V30 106 H 13.0128 0.842527 -0.47548 0
M  V30 107 H 14.2621 -0.425785 -0.811828 0
M  V30 108 H 15.0923 0.891117 -2.67088 0
M  V30 109 H 13.8448 2.19787 -2.27418 0
M  V30 110 H 15.2819 1.51395 0.0698778 0
M  V30 111 H 16.334 2.14554 -1.13143 0
M  V30 END ATOM
M  V30 BEGIN BOND
M  V30 1 1 1 2
M  V30 2 1 1 3
M  V30 3 1 3 4
M  V30 4 1 4 5
M  V30 5 1 5 6
M  V30 6 1 6 7
M  V30 7 1 7 8
M  V30 8 2 8 9
M  V30 9 1 8 10
M  V30 10 1 10 11
M  V30 11 1 11 12
M  V30 12 1 12 13
M  V30 13 1 13 14
M  V30 14 1 14 15
M  V30 15 1 15 16
M  V30 16 1 16 17
M  V30 17 1 17 18
M  V30 18 1 18 19
M  V30 19 1 19 20
M  V30 20 1 20 21
M  V30 21 1 21 22
M  V30 22 1 22 23
M  V30 23 1 23 24
M  V30 24 1 24 25
M  V30 25 1 1 26
M  V30 26 2 26 27
M  V30 27 1 26 28
M  V30 28 1 28 29
M  V30 29 1 29 30
M  V30 30 1 30 31
M  V30 31 1 31 32
M  V30 32 1 32 33
M  V30 33 1 33 34
M  V30 34 1 34 35
M  V30 35 1 35 36
M  V30 36 1 36 37
M  V30 37 1 37 38
M  V30 38 1 38 39
M  V30 39 1 39 40
M  V30 40 1 40 41
M  V30 41 1 1 42 CFG=1
M  V30 42 1 2 43
M  V30 43 1 2 44
M  V30 44 1 3 45
M  V30 45 1 3 46
M  V30 46 1 4 47
M  V30 47 1 4 48
M  V30 48 1 5 49
M  V30 49 1 5 50
M  V30 50 1 6 51
M  V30 51 1 6 52
M  V30 52 1 7 53
M  V30 53 1 10 54
M  V30 54 1 10 55
M  V30 55 1 11 56
M  V30 56 1 11 57
M  V30 57 1 12 58
M  V30 58 1 12 59
M  V30 59 1 13 60
M  V30 60 1 13 61
M  V30 61 1 14 62
M  V30 62 1 14 63
M  V30 63 1 15 64
M  V30 64 1 15 65
M  V30 65 1 16 66
M  V30 66 1 16 67
M  V30 67 1 17 68
M  V30 68 1 17 69
M  V30 69 1 18 70
M  V30 70 1 18 71
M  V30 71 1 19 72
M  V30 72 1 19 73
M  V30 73 1 20 74
M  V30 74 1 20 75
M  V30 75 1 21 76
M  V30 76 1 21 77
M  V30 77 1 22 78
M  V30 78 1 22 79
M  V30 79 1 23 80
M  V30 80 1 23 81
M  V30 81 1 24 82
M  V30 82 1 24 83
M  V30 83 1 25 84
M  V30 84 1 25 85
M  V30 85 1 25 86
M  V30 86 1 28 87
M  V30 87 1 29 88
M  V30 88 1 29 89
M  V30 89 1 30 90
M  V30 90 1 30 91
M  V30 91 1 31 92
M  V30 92 1 31 93
M  V30 93 1 32 94
M  V30 94 1 33 95
M  V30 95 1 33 96
M  V30 96 1 34 97
M  V30 97 1 34 98
M  V30 98 1 35 99
M  V30 99 1 35 100
M  V30 100 1 36 101
M  V30 101 1 36 102
M  V30 102 1 37 103
M  V30 103 1 38 104
M  V30 104 1 38 105
M  V30 105 1 39 106
M  V30 106 1 39 107
M  V30 107 1 40 108
M  V30 108 1 40 109
M  V30 109 1 41 110
M  V30 110 1 41 111
M  V30 END BOND
M  V30 END CTAB
M  END
