
     RDKit          3D

  0  0  0  0  0  0  0  0  0  0999 V3000
M  V30 BEGIN CTAB
M  V30 COUNTS 41 42 0 0 0
M  V30 BEGIN ATOM
M  V30 1 N -2.25584 -3.19724 1.96363 0
M  V30 2 C -2.78488 -2.15812 1.13554 0
M  V30 3 C -1.78517 -1.02672 0.954912 0
M  V30 4 C -0.540303 -1.49659 0.324295 0
M  V30 5 O -0.533296 -2.68753 -0.118513 0
M  V30 6 N 0.629274 -0.733728 0.177597 0
M  V30 7 C 1.80943 -1.27343 -0.462945 0
M  V30 8 C 2.35057 -0.171678 -1.36751 0
M  V30 9 N 2.63088 1.01354 -0.635536 0
M  V30 10 C 2.16228 1.03417 0.711912 0
M  V30 11 C 0.680848 0.619411 0.673676 0
M  V30 12 S 4.2177 1.61212 -0.829398 0
M  V30 13 O 4.3363 2.92921 -0.119631 0
M  V30 14 O 4.43905 1.88336 -2.29416 0
M  V30 15 N 5.42256 0.515325 -0.293963 0
M  V30 16 C -2.38369 0.110168 0.22775 0
M  V30 17 C -2.73955 1.29276 0.854407 0
M  V30 18 C -3.29371 2.34356 0.177585 0
M  V30 19 C -3.52681 2.26769 -1.18947 0
M  V30 20 C -3.17367 1.09546 -1.80862 0
M  V30 21 C -2.61458 0.0269465 -1.14324 0
M  V30 22 H -1.25543 -3.12338 2.19518 0
M  V30 23 H -2.51418 -4.12246 1.56321 0
M  V30 24 H -3.68677 -1.75267 1.63747 0
M  V30 25 H -3.11175 -2.57954 0.180813 0
M  V30 26 H -1.57358 -0.656328 2.00205 0
M  V30 27 H 1.55478 -2.16271 -1.07137 0
M  V30 28 H 2.52904 -1.57074 0.299959 0
M  V30 29 H 1.50048 0.0629018 -2.07321 0
M  V30 30 H 3.17302 -0.524324 -2.00953 0
M  V30 31 H 2.14466 2.10008 1.04622 0
M  V30 32 H 2.72051 0.398862 1.41193 0
M  V30 33 H 0.240168 1.26767 -0.108546 0
M  V30 34 H 0.22814 0.71659 1.66813 0
M  V30 35 H 5.60012 0.545008 0.723413 0
M  V30 36 H 5.18396 -0.434646 -0.649421 0
M  V30 37 H -2.55749 1.34955 1.91705 0
M  V30 38 H -3.56447 3.26093 0.691201 0
M  V30 39 H -3.96668 3.10481 -1.72035 0
M  V30 40 H -3.34194 1.00124 -2.87796 0
M  V30 41 H -2.35 -0.87952 -1.66608 0
M  V30 END ATOM
M  V30 BEGIN BOND
M  V30 1 1 1 2
M  V30 2 1 2 3
M  V30 3 1 3 4
M  V30 4 2 4 5
M  V30 5 1 4 6
M  V30 6 1 6 7
M  V30 7 1 7 8
M  V30 8 1 8 9
M  V30 9 1 9 10
M  V30 10 1 10 11
M  V30 11 1 9 12
M  V30 12 2 12 13
M  V30 13 2 12 14
M  V30 14 1 12 15
M  V30 15 1 3 16
M  V30 16 2 16 17
M  V30 17 1 17 18
M  V30 18 2 18 19
M  V30 19 1 19 20
M  V30 20 2 20 21
M  V30 21 1 11 6
M  V30 22 1 21 16
M  V30 23 1 1 22
M  V30 24 1 1 23
M  V30 25 1 2 24
M  V30 26 1 2 25
M  V30 27 1 3 26
M  V30 28 1 7 27
M  V30 29 1 7 28
M  V30 30 1 8 29
M  V30 31 1 8 30
M  V30 32 1 10 31
M  V30 33 1 10 32
M  V30 34 1 11 33
M  V30 35 1 11 34
M  V30 36 1 15 35
M  V30 37 1 15 36
M  V30 38 1 17 37
M  V30 39 1 18 38
M  V30 40 1 19 39
M  V30 41 1 20 40
M  V30 42 1 21 41
M  V30 END BOND
M  V30 END CTAB
M  END
