
     RDKit          3D

  0  0  0  0  0  0  0  0  0  0999 V3000
M  V30 BEGIN CTAB
M  V30 COUNTS 31 33 0 0 0
M  V30 BEGIN ATOM
M  V30 1 C -1.25209 2.91154 -0.336252 0
M  V30 2 O -0.589046 1.72069 -0.558901 0
M  V30 3 C -1.09939 0.435606 -0.286923 0
M  V30 4 C -0.306001 -0.670931 -0.570867 0
M  V30 5 C -0.789109 -1.91857 -0.309621 0
M  V30 6 C -2.03625 -2.15749 0.227233 0
M  V30 7 C -2.8234 -1.05743 0.507864 0
M  V30 8 N -4.11653 -1.25643 1.05309 0
M  V30 9 C -2.34248 0.215591 0.247549 0
M  V30 10 C 1.03927 -0.446713 -1.18475 0
M  V30 11 C 1.16284 -0.546885 -2.55309 0
M  V30 12 S 2.80309 -0.213506 -2.82863 0
M  V30 13 C 3.30654 0.0468431 -1.22366 0
M  V30 14 N 4.51098 0.370505 -0.649909 0
M  V30 15 C 4.62291 0.524242 0.680224 0
M  V30 16 N 3.52545 0.349483 1.39282 0
M  V30 17 C 2.31558 0.0318027 0.903146 0
M  V30 18 N 1.24342 -0.11712 1.8164 0
M  V30 19 C 2.1614 -0.136088 -0.491801 0
M  V30 20 H -1.90816 3.16398 -1.19604 0
M  V30 21 H -1.8723 2.89879 0.603942 0
M  V30 22 H -0.467822 3.70741 -0.185894 0
M  V30 23 H -0.16584 -2.80502 -0.529802 0
M  V30 24 H -2.38955 -3.17098 0.421516 0
M  V30 25 H -4.21251 -1.70442 1.97146 0
M  V30 26 H -4.93505 -0.948148 0.522991 0
M  V30 27 H -2.96763 1.07197 0.470265 0
M  V30 28 H 0.346843 -0.792049 -3.26759 0
M  V30 29 H 5.55501 0.776593 1.12096 0
M  V30 30 H 0.818663 0.746657 2.19948 0
M  V30 31 H 0.86117 -1.02992 2.13821 0
M  V30 END ATOM
M  V30 BEGIN BOND
M  V30 1 1 1 2
M  V30 2 1 2 3
M  V30 3 2 3 4
M  V30 4 1 4 5
M  V30 5 2 5 6
M  V30 6 1 6 7
M  V30 7 1 7 8
M  V30 8 2 7 9
M  V30 9 1 4 10
M  V30 10 2 10 11
M  V30 11 1 11 12
M  V30 12 1 12 13
M  V30 13 2 13 14
M  V30 14 1 14 15
M  V30 15 2 15 16
M  V30 16 1 16 17
M  V30 17 1 17 18
M  V30 18 2 17 19
M  V30 19 1 9 3
M  V30 20 1 19 10
M  V30 21 1 19 13
M  V30 22 1 1 20
M  V30 23 1 1 21
M  V30 24 1 1 22
M  V30 25 1 5 23
M  V30 26 1 6 24
M  V30 27 1 8 25
M  V30 28 1 8 26
M  V30 29 1 9 27
M  V30 30 1 11 28
M  V30 31 1 15 29
M  V30 32 1 18 30
M  V30 33 1 18 31
M  V30 END BOND
M  V30 END CTAB
M  END
