
     RDKit          3D

  0  0  0  0  0  0  0  0  0  0999 V3000
M  V30 BEGIN CTAB
M  V30 COUNTS 19 20 0 0 0
M  V30 BEGIN ATOM
M  V30 1 N -2.87935 -1.14126 -0.212459 0
M  V30 2 N -1.84599 -0.82428 -1.10193 0
M  V30 3 C -0.571911 -0.533076 -0.542089 0
M  V30 4 N 0.337275 -1.50088 -0.333477 0
M  V30 5 C 1.55291 -1.23794 0.19825 0
M  V30 6 N 2.47835 -2.30093 0.397963 0
M  V30 7 N 1.81846 0.0353484 0.511816 0
M  V30 8 C 0.898356 1.01877 0.301347 0
M  V30 9 N -0.307911 0.746468 -0.228129 0
M  V30 10 N -1.0086 1.88171 -0.325685 0
M  V30 11 C -0.292001 2.91641 0.130584 0
M  V30 12 C 0.915773 2.37968 0.52931 0
M  V30 13 H -2.52262 -1.811 0.500328 0
M  V30 14 H -3.28928 -0.2911 0.242045 0
M  V30 15 H -2.04125 -0.812677 -2.12261 0
M  V30 16 H 3.51203 -2.12273 0.430459 0
M  V30 17 H 2.14914 -3.2836 0.516833 0
M  V30 18 H -0.642389 3.94 0.15581 0
M  V30 19 H 1.73901 2.94109 0.951634 0
M  V30 END ATOM
M  V30 BEGIN BOND
M  V30 1 1 1 2
M  V30 2 1 2 3
M  V30 3 2 3 4
M  V30 4 1 4 5
M  V30 5 1 5 6
M  V30 6 2 5 7
M  V30 7 1 7 8
M  V30 8 1 8 9
M  V30 9 1 9 10
M  V30 10 2 10 11
M  V30 11 1 11 12
M  V30 12 1 9 3
M  V30 13 2 12 8
M  V30 14 1 1 13
M  V30 15 1 1 14
M  V30 16 1 2 15
M  V30 17 1 6 16
M  V30 18 1 6 17
M  V30 19 1 11 18
M  V30 20 1 12 19
M  V30 END BOND
M  V30 END CTAB
M  END
