
     RDKit          3D

  0  0  0  0  0  0  0  0  0  0999 V3000
M  V30 BEGIN CTAB
M  V30 COUNTS 21 21 0 0 0
M  V30 BEGIN ATOM
M  V30 1 N -3.92688 -0.448151 1.21679 0
M  V30 2 C -2.86036 -0.0739093 0.354545 0
M  V30 3 N -2.74548 -0.667804 -0.790574 0
M  V30 4 S -1.74254 1.18325 0.885703 0
M  V30 5 C -0.458441 1.5281 -0.335914 0
M  V30 6 C 0.410391 0.290548 -0.446221 0
M  V30 7 C 1.525 0.479979 -1.45452 0
M  V30 8 N 2.66217 -0.270721 -1.09641 0
M  V30 9 C 2.89237 -0.544108 0.115489 0
M  V30 10 N 3.95634 -1.27089 0.697852 0
M  V30 11 S 1.51428 0.197375 1.03433 0
M  V30 12 H -4.80344 0.0936879 1.16035 0
M  V30 13 H -3.82625 -1.25682 1.89558 0
M  V30 14 H -3.41691 -1.40928 -1.08668 0
M  V30 15 H -0.877091 1.78902 -1.32365 0
M  V30 16 H 0.189564 2.34519 0.0420768 0
M  V30 17 H -0.153453 -0.632506 -0.572965 0
M  V30 18 H 1.77412 1.56715 -1.41189 0
M  V30 19 H 1.20227 0.181417 -2.47723 0
M  V30 20 H 4.00077 -2.29327 0.570566 0
M  V30 21 H 4.68358 -0.788257 1.24565 0
M  V30 END ATOM
M  V30 BEGIN BOND
M  V30 1 1 1 2
M  V30 2 2 2 3 CFG=2
M  V30 3 1 2 4
M  V30 4 1 4 5
M  V30 5 1 5 6
M  V30 6 1 6 7
M  V30 7 1 7 8
M  V30 8 2 8 9
M  V30 9 1 9 10
M  V30 10 1 9 11
M  V30 11 1 11 6
M  V30 12 1 1 12
M  V30 13 1 1 13
M  V30 14 1 3 14
M  V30 15 1 5 15
M  V30 16 1 5 16
M  V30 17 1 6 17
M  V30 18 1 7 18
M  V30 19 1 7 19
M  V30 20 1 10 20
M  V30 21 1 10 21
M  V30 END BOND
M  V30 END CTAB
M  END
