
     RDKit          3D

  0  0  0  0  0  0  0  0  0  0999 V3000
M  V30 BEGIN CTAB
M  V30 COUNTS 19 18 0 0 0
M  V30 BEGIN ATOM
M  V30 1 N -2.69382 1.21974 -0.583248 0
M  V30 2 C -1.8665 0.0305268 -0.722477 0
M  V30 3 C -1.24657 -0.224194 0.632727 0
M  V30 4 C -0.351277 -1.44026 0.637394 0
M  V30 5 S 1.01993 -1.28727 -0.521555 0
M  V30 6 C 2.1749 -0.0402311 -0.0833471 0
M  V30 7 N 3.29348 0.183288 -0.923481 0
M  V30 8 N 2.05755 0.691914 0.977911 0
M  V30 9 H -3.29159 1.16529 0.262126 0
M  V30 10 H -2.01917 2.02495 -0.453713 0
M  V30 11 H -2.47022 -0.851592 -0.993135 0
M  V30 12 H -1.12674 0.246409 -1.50808 0
M  V30 13 H -0.715219 0.651508 1.02761 0
M  V30 14 H -2.08584 -0.444286 1.32816 0
M  V30 15 H 0.0802806 -1.49828 1.66563 0
M  V30 16 H -0.925654 -2.35231 0.465971 0
M  V30 17 H 4.15091 -0.409418 -0.749847 0
M  V30 18 H 3.26979 0.908733 -1.68695 0
M  V30 19 H 2.74575 1.42547 1.2283 0
M  V30 END ATOM
M  V30 BEGIN BOND
M  V30 1 1 1 2
M  V30 2 1 2 3
M  V30 3 1 3 4
M  V30 4 1 4 5
M  V30 5 1 5 6
M  V30 6 1 6 7
M  V30 7 2 6 8 CFG=2
M  V30 8 1 1 9
M  V30 9 1 1 10
M  V30 10 1 2 11
M  V30 11 1 2 12
M  V30 12 1 3 13
M  V30 13 1 3 14
M  V30 14 1 4 15
M  V30 15 1 4 16
M  V30 16 1 7 17
M  V30 17 1 7 18
M  V30 18 1 8 19
M  V30 END BOND
M  V30 END CTAB
M  END
