
     RDKit          3D

  0  0  0  0  0  0  0  0  0  0999 V3000
M  V30 BEGIN CTAB
M  V30 COUNTS 61 62 0 0 0
M  V30 BEGIN ATOM
M  V30 1 N 10.4951 1.27731 0.0183824 0
M  V30 2 C 9.13024 0.940411 0.168632 0
M  V30 3 C 8.74774 -0.0416191 1.07921 0
M  V30 4 C 7.43398 -0.36062 1.21769 0
M  V30 5 C 6.4424 0.281282 0.458262 0
M  V30 6 O 5.12018 -0.0741014 0.638231 0
M  V30 7 C 4.08516 0.480619 -0.113633 0
M  V30 8 C 4.14586 0.0935116 -1.5521 0
M  V30 9 C 3.04824 0.772037 -2.33272 0
M  V30 10 C 1.70719 0.348615 -1.78387 0
M  V30 11 C 0.583106 0.99571 -2.57896 0
M  V30 12 C -0.739976 0.589168 -2.03368 0
M  V30 13 C -0.97101 -0.883437 -2.084 0
M  V30 14 C -2.34863 -1.28321 -1.53578 0
M  V30 15 C -2.48143 -0.863102 -0.113934 0
M  V30 16 C -3.83638 -1.28198 0.425142 0
M  V30 17 C -4.9573 -0.660504 -0.342895 0
M  V30 18 O -6.22307 -0.969235 0.0814827 0
M  V30 19 C -6.87363 -0.711422 1.23445 0
M  V30 20 C -6.34802 -0.00274022 2.28152 0
M  V30 21 C -7.08627 0.220653 3.4518 0
M  V30 22 C -8.35278 -0.255602 3.59471 0
M  V30 23 N -9.12198 -0.0395242 4.77794 0
M  V30 24 C -8.91625 -0.974393 2.55843 0
M  V30 25 C -8.18867 -1.18711 1.42238 0
M  V30 26 C 6.85798 1.24298 -0.426066 0
M  V30 27 C 8.19957 1.60098 -0.60001 0
M  V30 28 H 11.2451 0.655146 0.357958 0
M  V30 29 H 10.7858 2.16584 -0.440716 0
M  V30 30 H 9.54464 -0.524694 1.65742 0
M  V30 31 H 7.09228 -1.11003 1.906 0
M  V30 32 H 4.10724 1.60343 0.0190154 0
M  V30 33 H 3.08125 0.186252 0.312776 0
M  V30 34 H 5.10391 0.114813 -2.05255 0
M  V30 35 H 3.89166 -1.04364 -1.56953 0
M  V30 36 H 3.13177 0.4408 -3.40411 0
M  V30 37 H 3.15096 1.8793 -2.31606 0
M  V30 38 H 1.54527 0.706493 -0.73395 0
M  V30 39 H 1.68918 -0.738127 -1.77808 0
M  V30 40 H 0.723396 2.0884 -2.47534 0
M  V30 41 H 0.646959 0.756846 -3.6504 0
M  V30 42 H -1.56924 1.08432 -2.60088 0
M  V30 43 H -0.834744 1.00043 -0.994397 0
M  V30 44 H -0.174889 -1.38433 -1.47851 0
M  V30 45 H -0.933882 -1.29942 -3.10606 0
M  V30 46 H -2.41826 -2.38117 -1.67706 0
M  V30 47 H -3.0654 -0.730288 -2.21049 0
M  V30 48 H -2.45431 0.252185 -0.0700799 0
M  V30 49 H -1.68248 -1.29892 0.506584 0
M  V30 50 H -3.87681 -2.41185 0.355822 0
M  V30 51 H -3.82937 -1.05366 1.49049 0
M  V30 52 H -4.8811 -1.01045 -1.41552 0
M  V30 53 H -4.79139 0.460619 -0.378523 0
M  V30 54 H -5.35231 0.427819 2.23744 0
M  V30 55 H -6.63879 0.782574 4.25539 0
M  V30 56 H -9.89132 -0.703216 5.01255 0
M  V30 57 H -8.91925 0.765425 5.39561 0
M  V30 58 H -9.938 -1.35926 2.67133 0
M  V30 59 H -8.6151 -1.74697 0.603682 0
M  V30 60 H 6.12287 1.80392 -1.02449 0
M  V30 61 H 8.45294 2.36674 -1.31596 0
M  V30 END ATOM
M  V30 BEGIN BOND
M  V30 1 1 1 2
M  V30 2 2 2 3
M  V30 3 1 3 4
M  V30 4 2 4 5
M  V30 5 1 5 6
M  V30 6 1 6 7
M  V30 7 1 7 8
M  V30 8 1 8 9
M  V30 9 1 9 10
M  V30 10 1 10 11
M  V30 11 1 11 12
M  V30 12 1 12 13
M  V30 13 1 13 14
M  V30 14 1 14 15
M  V30 15 1 15 16
M  V30 16 1 16 17
M  V30 17 1 17 18
M  V30 18 1 18 19
M  V30 19 2 19 20
M  V30 20 1 20 21
M  V30 21 2 21 22
M  V30 22 1 22 23
M  V30 23 1 22 24
M  V30 24 2 24 25
M  V30 25 1 5 26
M  V30 26 2 26 27
M  V30 27 1 27 2
M  V30 28 1 25 19
M  V30 29 1 1 28
M  V30 30 1 1 29
M  V30 31 1 3 30
M  V30 32 1 4 31
M  V30 33 1 7 32
M  V30 34 1 7 33
M  V30 35 1 8 34
M  V30 36 1 8 35
M  V30 37 1 9 36
M  V30 38 1 9 37
M  V30 39 1 10 38
M  V30 40 1 10 39
M  V30 41 1 11 40
M  V30 42 1 11 41
M  V30 43 1 12 42
M  V30 44 1 12 43
M  V30 45 1 13 44
M  V30 46 1 13 45
M  V30 47 1 14 46
M  V30 48 1 14 47
M  V30 49 1 15 48
M  V30 50 1 15 49
M  V30 51 1 16 50
M  V30 52 1 16 51
M  V30 53 1 17 52
M  V30 54 1 17 53
M  V30 55 1 20 54
M  V30 56 1 21 55
M  V30 57 1 23 56
M  V30 58 1 23 57
M  V30 59 1 24 58
M  V30 60 1 25 59
M  V30 61 1 26 60
M  V30 62 1 27 61
M  V30 END BOND
M  V30 END CTAB
M  END
