
     RDKit          3D

  0  0  0  0  0  0  0  0  0  0999 V3000
M  V30 BEGIN CTAB
M  V30 COUNTS 49 50 0 0 0
M  V30 BEGIN ATOM
M  V30 1 N 4.95594 1.69593 -0.340802 0
M  V30 2 C 4.72103 1.64756 1.04142 0
M  V30 3 C 5.0071 0.2595 1.55217 0
M  V30 4 C 4.1251 -0.750843 0.865648 0
M  V30 5 C 2.68139 -0.459354 1.11142 0
M  V30 6 C 1.77303 -1.47851 0.429647 0 CFG=1
M  V30 7 C 0.396625 -1.10109 0.733142 0
M  V30 8 O 0.158986 -0.945658 1.99435 0
M  V30 9 N -0.678771 -0.889395 -0.139655 0
M  V30 10 C -0.548057 -1.021 -1.56206 0
M  V30 11 C -1.75795 -0.6899 -2.35955 0
M  V30 12 C -3.06974 -1.06579 -1.77474 0
M  V30 13 C -3.136 -1.17021 -0.294198 0 CFG=1
M  V30 14 C -1.96088 -0.533375 0.405405 0 CFG=2
M  V30 15 C -2.32927 0.906274 0.329863 0
M  V30 16 C -3.84333 0.795825 0.548504 0
M  V30 17 O -4.20375 -0.486388 0.243753 0
M  V30 18 C -4.07717 1.14669 2.00329 0
M  V30 19 C -4.59283 1.80293 -0.293239 0
M  V30 20 N 2.11569 -1.69695 -0.927336 0
M  V30 21 H 4.60449 2.47095 -0.800847 0
M  V30 22 H 5.36754 0.979497 -0.812852 0
M  V30 23 H 3.72741 2.01761 1.28726 0
M  V30 24 H 5.45408 2.3364 1.52268 0
M  V30 25 H 6.0848 0.0425988 1.34935 0
M  V30 26 H 4.83074 0.2214 2.65595 0
M  V30 27 H 4.35983 -0.745255 -0.232607 0
M  V30 28 H 4.42466 -1.77224 1.2073 0
M  V30 29 H 2.47178 0.561751 0.693001 0
M  V30 30 H 2.48817 -0.488619 2.19895 0
M  V30 31 H 1.97754 -2.44047 0.990038 0
M  V30 32 H -0.236958 -2.06074 -1.86103 0
M  V30 33 H 0.240113 -0.266882 -1.8671 0
M  V30 34 H -1.68458 -1.25757 -3.34155 0
M  V30 35 H -1.72864 0.379343 -2.71378 0
M  V30 36 H -3.46013 -2.03962 -2.19401 0
M  V30 37 H -3.82546 -0.307231 -2.1336 0
M  V30 38 H -3.17496 -2.23257 0.0677308 0
M  V30 39 H -2.05071 -0.828346 1.48284 0
M  V30 40 H -1.86249 1.52689 1.12099 0
M  V30 41 H -2.20172 1.40554 -0.625961 0
M  V30 42 H -4.40284 2.20822 2.08489 0
M  V30 43 H -3.18084 0.941301 2.62597 0
M  V30 44 H -4.93402 0.529642 2.3815 0
M  V30 45 H -5.29397 2.4145 0.339811 0
M  V30 46 H -5.25135 1.25296 -0.997306 0
M  V30 47 H -3.92872 2.46992 -0.869006 0
M  V30 48 H 2.59069 -0.830839 -1.3184 0
M  V30 49 H 2.8584 -2.4544 -1.01466 0
M  V30 END ATOM
M  V30 BEGIN BOND
M  V30 1 1 1 2
M  V30 2 1 2 3
M  V30 3 1 3 4
M  V30 4 1 4 5
M  V30 5 1 5 6
M  V30 6 1 6 7
M  V30 7 2 7 8
M  V30 8 1 7 9
M  V30 9 1 9 10
M  V30 10 1 10 11
M  V30 11 1 11 12
M  V30 12 1 12 13
M  V30 13 1 13 14
M  V30 14 1 14 15
M  V30 15 1 15 16
M  V30 16 1 16 17
M  V30 17 1 16 18
M  V30 18 1 16 19
M  V30 19 1 6 20
M  V30 20 1 14 9
M  V30 21 1 17 13
M  V30 22 1 1 21
M  V30 23 1 1 22
M  V30 24 1 2 23
M  V30 25 1 2 24
M  V30 26 1 3 25
M  V30 27 1 3 26
M  V30 28 1 4 27
M  V30 29 1 4 28
M  V30 30 1 5 29
M  V30 31 1 5 30
M  V30 32 1 6 31 CFG=1
M  V30 33 1 10 32
M  V30 34 1 10 33
M  V30 35 1 11 34
M  V30 36 1 11 35
M  V30 37 1 12 36
M  V30 38 1 12 37
M  V30 39 1 13 38 CFG=3
M  V30 40 1 14 39 CFG=1
M  V30 41 1 15 40
M  V30 42 1 15 41
M  V30 43 1 18 42
M  V30 44 1 18 43
M  V30 45 1 18 44
M  V30 46 1 19 45
M  V30 47 1 19 46
M  V30 48 1 19 47
M  V30 49 1 20 48
M  V30 50 1 20 49
M  V30 END BOND
M  V30 END CTAB
M  END
