
     RDKit          3D

  0  0  0  0  0  0  0  0  0  0999 V3000
M  V30 BEGIN CTAB
M  V30 COUNTS 32 32 0 0 0
M  V30 BEGIN ATOM
M  V30 1 N -5.60365 -0.490437 0.82175 0
M  V30 2 C -4.21741 -0.662325 1.12307 0
M  V30 3 C -3.32991 -0.0788302 0.0519303 0
M  V30 4 C -1.89813 -0.265164 0.379376 0
M  V30 5 O -1.61591 -0.853459 1.44947 0
M  V30 6 N -0.838986 0.179904 -0.441087 0
M  V30 7 C 0.536463 0.00711423 -0.137833 0
M  V30 8 C 1.20321 1.36623 0.0475752 0
M  V30 9 C 2.49285 1.05417 0.779928 0
M  V30 10 C 3.38602 0.282681 -0.114849 0
M  V30 11 C 2.75019 -0.401207 -1.25813 0
M  V30 12 C 1.32711 -0.760382 -1.13684 0
M  V30 13 N 4.17854 -0.634041 0.718906 0
M  V30 14 H -5.76983 -0.182073 -0.150351 0
M  V30 15 H -6.06293 0.198605 1.44779 0
M  V30 16 H -4.00628 -0.12807 2.07349 0
M  V30 17 H -4.02513 -1.74194 1.25741 0
M  V30 18 H -3.51736 -0.603363 -0.92065 0
M  V30 19 H -3.58783 0.985445 -0.124999 0
M  V30 20 H -1.10543 0.669083 -1.33064 0
M  V30 21 H 0.615971 -0.530458 0.842181 0
M  V30 22 H 1.47373 1.80118 -0.924525 0
M  V30 23 H 0.526268 1.98836 0.647743 0
M  V30 24 H 2.19931 0.496773 1.70838 0
M  V30 25 H 2.91657 2.02617 1.09996 0
M  V30 26 H 4.14522 1.0104 -0.527614 0
M  V30 27 H 3.34113 -1.34501 -1.45861 0
M  V30 28 H 2.88861 0.191245 -2.21091 0
M  V30 29 H 0.804525 -0.665696 -2.13248 0
M  V30 30 H 1.22107 -1.85319 -0.883583 0
M  V30 31 H 4.52216 -0.125178 1.55822 0
M  V30 32 H 5.04985 -0.936554 0.201034 0
M  V30 END ATOM
M  V30 BEGIN BOND
M  V30 1 1 1 2
M  V30 2 1 2 3
M  V30 3 1 3 4
M  V30 4 2 4 5
M  V30 5 1 4 6
M  V30 6 1 6 7
M  V30 7 1 7 8
M  V30 8 1 8 9
M  V30 9 1 9 10
M  V30 10 1 10 11
M  V30 11 1 11 12
M  V30 12 1 10 13
M  V30 13 1 12 7
M  V30 14 1 1 14
M  V30 15 1 1 15
M  V30 16 1 2 16
M  V30 17 1 2 17
M  V30 18 1 3 18
M  V30 19 1 3 19
M  V30 20 1 6 20
M  V30 21 1 7 21
M  V30 22 1 8 22
M  V30 23 1 8 23
M  V30 24 1 9 24
M  V30 25 1 9 25
M  V30 26 1 10 26
M  V30 27 1 11 27
M  V30 28 1 11 28
M  V30 29 1 12 29
M  V30 30 1 12 30
M  V30 31 1 13 31
M  V30 32 1 13 32
M  V30 END BOND
M  V30 END CTAB
M  END
