
     RDKit          3D

  0  0  0  0  0  0  0  0  0  0999 V3000
M  V30 BEGIN CTAB
M  V30 COUNTS 56 59 0 0 0
M  V30 BEGIN ATOM
M  V30 1 C -3.24245 2.39939 1.76706 0
M  V30 2 C -3.28432 1.94972 0.343319 0 CFG=1
M  V30 3 N -2.02108 1.84094 -0.291479 0
M  V30 4 C -0.796081 1.43668 0.33501 0
M  V30 5 N -0.693805 1.12786 1.63873 0
M  V30 6 C 0.465385 0.752204 2.19913 0
M  V30 7 N 0.580495 0.425787 3.57016 0
M  V30 8 N 1.57977 0.679552 1.42534 0
M  V30 9 C 1.52763 0.981001 0.105475 0
M  V30 10 N 0.337067 1.34787 -0.383861 0
M  V30 11 C 2.73238 0.896099 -0.702142 0
M  V30 12 C 2.72589 1.19267 -2.04512 0
M  V30 13 C 3.90342 1.10284 -2.80335 0
M  V30 14 C 5.06708 0.714872 -2.19127 0
M  V30 15 C 5.09603 0.41374 -0.849806 0
M  V30 16 C 6.36176 -0.0122969 -0.165839 0
M  V30 17 C 6.50451 -1.5369 -0.229041 0
M  V30 18 N 6.54802 -1.99381 -1.59481 0
M  V30 19 C 7.80073 -1.85165 0.418302 0
M  V30 20 O 8.78271 -2.48776 -0.327399 0
M  V30 21 O 8.00865 -1.54615 1.62873 0
M  V30 22 C 3.92333 0.511935 -0.134449 0
M  V30 23 C -4.07776 0.718136 0.207742 0
M  V30 24 C -5.47673 0.802282 0.0369123 0
M  V30 25 C -6.29141 -0.280281 -0.110932 0
M  V30 26 C -5.71207 -1.54409 -0.0927207 0
M  V30 27 C -6.50276 -2.6552 -0.238678 0
M  V30 28 C -7.85205 -2.49545 -0.399968 0
M  V30 29 C -8.44047 -1.252 -0.420188 0
M  V30 30 C -7.6543 -0.143215 -0.274889 0
M  V30 31 C -4.35427 -1.7064 0.0693998 0
M  V30 32 C -3.58875 -0.560739 0.213588 0
M  V30 33 H -4.17956 2.9521 1.99736 0
M  V30 34 H -3.27869 1.48103 2.40727 0
M  V30 35 H -2.38912 3.05434 2.0107 0
M  V30 36 H -3.91228 2.7602 -0.234513 0
M  V30 37 H -1.96565 2.07441 -1.31287 0
M  V30 38 H 0.62228 1.1368 4.3252 0
M  V30 39 H 0.625683 -0.577771 3.8368 0
M  V30 40 H 1.78858 1.49397 -2.48715 0
M  V30 41 H 3.82293 1.35068 -3.85124 0
M  V30 42 H 5.98385 0.644966 -2.78173 0
M  V30 43 H 6.27689 0.271387 0.892555 0
M  V30 44 H 7.22301 0.490616 -0.60336 0
M  V30 45 H 5.67626 -2.02861 0.312403 0
M  V30 46 H 7.11761 -1.39126 -2.20588 0
M  V30 47 H 5.63437 -2.282 -1.97863 0
M  V30 48 H 9.61736 -2.03571 -0.671646 0
M  V30 49 H 3.9524 0.2712 0.932087 0
M  V30 50 H -5.89698 1.79881 0.0271068 0
M  V30 51 H -6.10343 -3.6594 -0.231802 0
M  V30 52 H -8.52215 -3.35345 -0.520091 0
M  V30 53 H -9.49762 -1.11396 -0.546009 0
M  V30 54 H -8.11231 0.837861 -0.290066 0
M  V30 55 H -3.91141 -2.69536 0.0823418 0
M  V30 56 H -2.5286 -0.708491 0.328198 0
M  V30 END ATOM
M  V30 BEGIN BOND
M  V30 1 1 1 2
M  V30 2 1 2 3
M  V30 3 1 3 4
M  V30 4 2 4 5
M  V30 5 1 5 6
M  V30 6 1 6 7
M  V30 7 2 6 8
M  V30 8 1 8 9
M  V30 9 2 9 10
M  V30 10 1 9 11
M  V30 11 2 11 12
M  V30 12 1 12 13
M  V30 13 2 13 14
M  V30 14 1 14 15
M  V30 15 1 15 16
M  V30 16 1 16 17
M  V30 17 1 17 18
M  V30 18 1 17 19
M  V30 19 1 19 20
M  V30 20 2 19 21
M  V30 21 2 15 22
M  V30 22 1 2 23
M  V30 23 2 23 24
M  V30 24 1 24 25
M  V30 25 2 25 26
M  V30 26 1 26 27
M  V30 27 2 27 28
M  V30 28 1 28 29
M  V30 29 2 29 30
M  V30 30 1 26 31
M  V30 31 2 31 32
M  V30 32 1 10 4
M  V30 33 1 22 11
M  V30 34 1 32 23
M  V30 35 1 30 25
M  V30 36 1 1 33
M  V30 37 1 1 34
M  V30 38 1 1 35
M  V30 39 1 2 36 CFG=3
M  V30 40 1 3 37
M  V30 41 1 7 38
M  V30 42 1 7 39
M  V30 43 1 12 40
M  V30 44 1 13 41
M  V30 45 1 14 42
M  V30 46 1 16 43
M  V30 47 1 16 44
M  V30 48 1 17 45
M  V30 49 1 18 46
M  V30 50 1 18 47
M  V30 51 1 20 48
M  V30 52 1 22 49
M  V30 53 1 24 50
M  V30 54 1 27 51
M  V30 55 1 28 52
M  V30 56 1 29 53
M  V30 57 1 30 54
M  V30 58 1 31 55
M  V30 59 1 32 56
M  V30 END BOND
M  V30 END CTAB
M  END
