
     RDKit          3D

  0  0  0  0  0  0  0  0  0  0999 V3000
M  V30 BEGIN CTAB
M  V30 COUNTS 21 21 0 0 0
M  V30 BEGIN ATOM
M  V30 1 N -1.47048 2.1047 -0.58158 0
M  V30 2 C -1.46069 0.716849 -0.214986 0
M  V30 3 C -2.63951 0.0623415 0.00529284 0
M  V30 4 C -2.61102 -1.27436 0.35759 0
M  V30 5 C -1.41404 -1.94605 0.487343 0
M  V30 6 C -0.238098 -1.26499 0.260256 0
M  V30 7 C -0.259597 0.0608068 -0.0896267 0
M  V30 8 N 0.95177 0.780529 -0.322063 0
M  V30 9 S 2.48971 0.0551504 -0.5317 0
M  V30 10 O 2.37732 -1.22935 -1.29508 0
M  V30 11 O 3.40715 0.995574 -1.31114 0
M  V30 12 N 3.26819 -0.229389 0.97679 0
M  V30 13 H -1.00112 2.75319 0.0799782 0
M  V30 14 H -1.93535 2.38082 -1.46802 0
M  V30 15 H -3.61161 0.555238 -0.086095 0
M  V30 16 H -3.53761 -1.78961 0.53088 0
M  V30 17 H -1.38733 -2.99938 0.764785 0
M  V30 18 H 0.708811 -1.81849 0.372921 0
M  V30 19 H 0.914975 1.83223 -0.3703 0
M  V30 20 H 3.15213 0.576605 1.62756 0
M  V30 21 H 4.29641 -0.322411 0.807189 0
M  V30 END ATOM
M  V30 BEGIN BOND
M  V30 1 1 1 2
M  V30 2 2 2 3
M  V30 3 1 3 4
M  V30 4 2 4 5
M  V30 5 1 5 6
M  V30 6 2 6 7
M  V30 7 1 7 8
M  V30 8 1 8 9
M  V30 9 2 9 10
M  V30 10 2 9 11
M  V30 11 1 9 12
M  V30 12 1 7 2
M  V30 13 1 1 13
M  V30 14 1 1 14
M  V30 15 1 3 15
M  V30 16 1 4 16
M  V30 17 1 5 17
M  V30 18 1 6 18
M  V30 19 1 8 19
M  V30 20 1 12 20
M  V30 21 1 12 21
M  V30 END BOND
M  V30 END CTAB
M  END
