
     RDKit          3D

  0  0  0  0  0  0  0  0  0  0999 V3000
M  V30 BEGIN CTAB
M  V30 COUNTS 50 53 0 0 0
M  V30 BEGIN ATOM
M  V30 1 C -8.24771 -2.29284 -1.8938 0
M  V30 2 O -6.9746 -2.36478 -1.3049 0
M  V30 3 C -6.25589 -1.22608 -0.976381 0
M  V30 4 C -6.78607 0.0241618 -1.22587 0
M  V30 5 C -6.08857 1.17619 -0.9072 0
M  V30 6 C -4.82104 1.07036 -0.320581 0
M  V30 7 C -4.28206 -0.168318 -0.0670624 0
M  V30 8 C -5.00105 -1.2853 -0.395793 0
M  V30 9 N -2.99553 -0.271412 0.528333 0
M  V30 10 N -2.05397 -1.16797 0.28814 0
M  V30 11 C -0.966354 -0.951561 1.04135 0
M  V30 12 C -1.20756 0.153586 1.82355 0
M  V30 13 C -2.47963 0.549241 1.47666 0
M  V30 14 C -0.309988 0.785416 2.8178 0
M  V30 15 N 1.02214 0.276261 2.76963 0
M  V30 16 C 1.84154 0.441669 1.62157 0
M  V30 17 C 3.12491 -0.0693402 1.5884 0
M  V30 18 C 3.96593 0.0664742 0.505652 0
M  V30 19 N 3.48943 0.733283 -0.557437 0
M  V30 20 C 2.22486 1.24994 -0.554339 0
M  V30 21 N 1.43834 1.09428 0.522802 0
M  V30 22 N 1.70692 1.95549 -1.66648 0
M  V30 23 C 5.30653 -0.515263 0.579116 0
M  V30 24 C 5.61348 -1.29432 -0.701841 0
M  V30 25 C 7.02156 -0.739561 -0.612119 0
M  V30 26 C 6.4398 0.421154 0.182148 0
M  V30 27 N 7.5784 -0.348044 -1.89246 0
M  V30 28 H -8.91239 -1.55784 -1.37493 0
M  V30 29 H -8.13425 -1.93935 -2.94074 0
M  V30 30 H -8.78085 -3.24254 -1.91255 0
M  V30 31 H -7.76664 0.100592 -1.67979 0
M  V30 32 H -6.50771 2.147 -1.10436 0
M  V30 33 H -4.31345 1.99789 -0.0889841 0
M  V30 34 H -4.56988 -2.2492 -0.193084 0
M  V30 35 H -0.0590353 -1.54276 1.03442 0
M  V30 36 H -3.01012 1.39674 1.89384 0
M  V30 37 H -0.248392 1.88587 2.65055 0
M  V30 38 H -0.776531 0.675231 3.83477 0
M  V30 39 H 1.40062 -0.228859 3.59834 0
M  V30 40 H 3.47302 -0.59679 2.45588 0
M  V30 41 H 1.95156 1.67502 -2.63643 0
M  V30 42 H 1.07211 2.76733 -1.53048 0
M  V30 43 H 5.56619 -1.03062 1.50145 0
M  V30 44 H 5.52133 -2.37982 -0.592559 0
M  V30 45 H 5.09524 -0.832944 -1.56064 0
M  V30 46 H 7.65285 -1.43056 -0.0399687 0
M  V30 47 H 7.02362 0.750999 1.04167 0
M  V30 48 H 6.14228 1.22802 -0.516828 0
M  V30 49 H 8.61295 -0.306825 -1.8523 0
M  V30 50 H 7.26367 -0.975568 -2.65618 0
M  V30 END ATOM
M  V30 BEGIN BOND
M  V30 1 1 1 2
M  V30 2 1 2 3
M  V30 3 2 3 4
M  V30 4 1 4 5
M  V30 5 2 5 6
M  V30 6 1 6 7
M  V30 7 2 7 8
M  V30 8 1 7 9
M  V30 9 1 9 10
M  V30 10 2 10 11
M  V30 11 1 11 12
M  V30 12 2 12 13
M  V30 13 1 12 14
M  V30 14 1 14 15
M  V30 15 1 15 16
M  V30 16 2 16 17
M  V30 17 1 17 18
M  V30 18 2 18 19
M  V30 19 1 19 20
M  V30 20 2 20 21
M  V30 21 1 20 22
M  V30 22 1 18 23
M  V30 23 1 23 24
M  V30 24 1 24 25
M  V30 25 1 25 26
M  V30 26 1 25 27
M  V30 27 1 8 3
M  V30 28 1 13 9
M  V30 29 1 21 16
M  V30 30 1 26 23
M  V30 31 1 1 28
M  V30 32 1 1 29
M  V30 33 1 1 30
M  V30 34 1 4 31
M  V30 35 1 5 32
M  V30 36 1 6 33
M  V30 37 1 8 34
M  V30 38 1 11 35
M  V30 39 1 13 36
M  V30 40 1 14 37
M  V30 41 1 14 38
M  V30 42 1 15 39
M  V30 43 1 17 40
M  V30 44 1 22 41
M  V30 45 1 22 42
M  V30 46 1 23 43
M  V30 47 1 24 44
M  V30 48 1 24 45
M  V30 49 1 25 46
M  V30 50 1 26 47
M  V30 51 1 26 48
M  V30 52 1 27 49
M  V30 53 1 27 50
M  V30 END BOND
M  V30 END CTAB
M  END
