
     RDKit          3D

  0  0  0  0  0  0  0  0  0  0999 V3000
M  V30 BEGIN CTAB
M  V30 COUNTS 43 44 0 0 0
M  V30 BEGIN ATOM
M  V30 1 N -1.61148 -3.06093 0.852289 0
M  V30 2 C -0.945171 -1.8121 1.09202 0
M  V30 3 C -1.09248 -0.800689 0.013171 0
M  V30 4 C -2.47685 -0.378097 -0.29443 0
M  V30 5 C -3.4837 -1.45204 -0.457445 0
M  V30 6 C -2.93623 0.602267 0.761242 0
M  V30 7 C -2.25867 1.92651 0.474951 0
M  V30 8 N -0.940835 1.64766 -0.058781 0
M  V30 9 C -0.35689 0.463386 0.492539 0
M  V30 10 C 1.05819 0.385531 0.120091 0
M  V30 11 C 2.01225 0.0819198 1.05741 0
M  V30 12 C 3.36209 0.00343008 0.706843 0
M  V30 13 C 3.73533 0.236473 -0.606764 0
M  V30 14 C 2.78993 0.541606 -1.55622 0
M  V30 15 C 1.44577 0.612181 -1.17112 0
M  V30 16 C 5.1584 0.16616 -1.03557 0
M  V30 17 N 6.02812 -0.163931 0.0743016 0
M  V30 18 C -3.04282 2.63874 -0.607995 0
M  V30 19 H -1.99511 -3.4919 1.71738 0
M  V30 20 H -1.11325 -3.70347 0.234135 0
M  V30 21 H -1.21978 -1.39802 2.10666 0
M  V30 22 H 0.147642 -2.05198 1.19196 0
M  V30 23 H -0.596313 -1.15133 -0.891696 0
M  V30 24 H -2.4388 0.214563 -1.25607 0
M  V30 25 H -3.86946 -1.8383 0.508618 0
M  V30 26 H -3.18007 -2.30822 -1.06379 0
M  V30 27 H -4.39497 -1.02893 -0.975398 0
M  V30 28 H -2.61893 0.200725 1.74397 0
M  V30 29 H -4.03479 0.687531 0.676265 0
M  V30 30 H -2.25004 2.51185 1.39727 0
M  V30 31 H -0.940118 1.58801 -1.09817 0
M  V30 32 H -0.445453 0.494008 1.61867 0
M  V30 33 H 1.76896 -0.108507 2.09765 0
M  V30 34 H 4.14316 -0.230919 1.40638 0
M  V30 35 H 3.02942 0.730699 -2.58801 0
M  V30 36 H 0.737008 0.848468 -1.92854 0
M  V30 37 H 5.31674 -0.621302 -1.81314 0
M  V30 38 H 5.47201 1.12611 -1.51564 0
M  V30 39 H 5.88239 -1.13267 0.37115 0
M  V30 40 H 5.96823 0.498581 0.85829 0
M  V30 41 H -2.3973 3.04416 -1.39954 0
M  V30 42 H -3.81372 1.97289 -1.06849 0
M  V30 43 H -3.60242 3.50988 -0.186459 0
M  V30 END ATOM
M  V30 BEGIN BOND
M  V30 1 1 1 2
M  V30 2 1 2 3
M  V30 3 1 3 4
M  V30 4 1 4 5
M  V30 5 1 4 6
M  V30 6 1 6 7
M  V30 7 1 7 8
M  V30 8 1 8 9
M  V30 9 1 9 10
M  V30 10 2 10 11
M  V30 11 1 11 12
M  V30 12 2 12 13
M  V30 13 1 13 14
M  V30 14 2 14 15
M  V30 15 1 13 16
M  V30 16 1 16 17
M  V30 17 1 7 18
M  V30 18 1 9 3
M  V30 19 1 15 10
M  V30 20 1 1 19
M  V30 21 1 1 20
M  V30 22 1 2 21
M  V30 23 1 2 22
M  V30 24 1 3 23
M  V30 25 1 4 24
M  V30 26 1 5 25
M  V30 27 1 5 26
M  V30 28 1 5 27
M  V30 29 1 6 28
M  V30 30 1 6 29
M  V30 31 1 7 30
M  V30 32 1 8 31
M  V30 33 1 9 32
M  V30 34 1 11 33
M  V30 35 1 12 34
M  V30 36 1 14 35
M  V30 37 1 15 36
M  V30 38 1 16 37
M  V30 39 1 16 38
M  V30 40 1 17 39
M  V30 41 1 17 40
M  V30 42 1 18 41
M  V30 43 1 18 42
M  V30 44 1 18 43
M  V30 END BOND
M  V30 END CTAB
M  END
