
     RDKit          3D

  0  0  0  0  0  0  0  0  0  0999 V3000
M  V30 BEGIN CTAB
M  V30 COUNTS 37 36 0 0 0
M  V30 BEGIN ATOM
M  V30 1 C -3.73371 -2.37443 -1.82825 0
M  V30 2 C -3.50928 -1.29106 -0.805759 0
M  V30 3 C -2.08982 -0.720253 -0.90986 0
M  V30 4 C -1.97918 0.342319 0.147073 0
M  V30 5 C -0.641878 1.01372 0.188811 0
M  V30 6 N 0.44443 0.111651 0.452816 0
M  V30 7 C 1.54975 -0.00942673 -0.424915 0
M  V30 8 O 1.57006 0.694044 -1.4564 0
M  V30 9 C 2.67527 -0.941635 -0.154788 0 CFG=2
M  V30 10 C 3.32482 -0.534613 1.14548 0
M  V30 11 C 3.82925 0.872069 1.00936 0
M  V30 12 N 3.65233 -0.863243 -1.19776 0
M  V30 13 C -0.724854 2.01858 1.34664 0
M  V30 14 N -1.786 2.92643 1.03328 0
M  V30 15 H -4.14358 -1.8837 -2.74995 0
M  V30 16 H -2.77588 -2.88653 -2.0427 0
M  V30 17 H -4.47534 -3.11233 -1.46928 0
M  V30 18 H -3.64933 -1.72992 0.207588 0
M  V30 19 H -4.26416 -0.49041 -0.946047 0
M  V30 20 H -1.41545 -1.56414 -0.619161 0
M  V30 21 H -1.90475 -0.361517 -1.92249 0
M  V30 22 H -2.21753 -0.119415 1.11406 0
M  V30 23 H -2.73979 1.13185 -0.0497203 0
M  V30 24 H -0.43326 1.53808 -0.763936 0
M  V30 25 H 0.444556 -0.495289 1.3259 0
M  V30 26 H 2.29143 -1.98352 -0.0816399 0
M  V30 27 H 4.17563 -1.21923 1.33591 0
M  V30 28 H 2.60907 -0.604867 2.0043 0
M  V30 29 H 3.26995 1.37522 0.218175 0
M  V30 30 H 3.74433 1.40498 1.99759 0
M  V30 31 H 4.8965 0.834927 0.732946 0
M  V30 32 H 4.31881 -0.0674895 -1.06284 0
M  V30 33 H 4.21219 -1.74503 -1.20748 0
M  V30 34 H -1.05826 1.40637 2.22847 0
M  V30 35 H 0.238715 2.48306 1.55651 0
M  V30 36 H -1.92437 3.07837 0.0277182 0
M  V30 37 H -1.78068 3.76637 1.62035 0
M  V30 END ATOM
M  V30 BEGIN BOND
M  V30 1 1 1 2
M  V30 2 1 2 3
M  V30 3 1 3 4
M  V30 4 1 4 5
M  V30 5 1 5 6
M  V30 6 1 6 7
M  V30 7 2 7 8
M  V30 8 1 7 9
M  V30 9 1 9 10
M  V30 10 1 10 11
M  V30 11 1 9 12
M  V30 12 1 5 13
M  V30 13 1 13 14
M  V30 14 1 1 15
M  V30 15 1 1 16
M  V30 16 1 1 17
M  V30 17 1 2 18
M  V30 18 1 2 19
M  V30 19 1 3 20
M  V30 20 1 3 21
M  V30 21 1 4 22
M  V30 22 1 4 23
M  V30 23 1 5 24
M  V30 24 1 6 25
M  V30 25 1 9 26 CFG=1
M  V30 26 1 10 27
M  V30 27 1 10 28
M  V30 28 1 11 29
M  V30 29 1 11 30
M  V30 30 1 11 31
M  V30 31 1 12 32
M  V30 32 1 12 33
M  V30 33 1 13 34
M  V30 34 1 13 35
M  V30 35 1 14 36
M  V30 36 1 14 37
M  V30 END BOND
M  V30 END CTAB
M  END
