
     RDKit          3D

  0  0  0  0  0  0  0  0  0  0999 V3000
M  V30 BEGIN CTAB
M  V30 COUNTS 24 24 0 0 0
M  V30 BEGIN ATOM
M  V30 1 C 4.27238 0.969339 0.421952 0
M  V30 2 N 3.16365 0.074001 0.457524 0
M  V30 3 C 2.75017 -0.81282 -0.593643 0
M  V30 4 O 3.3112 -0.891509 -1.68776 0
M  V30 5 C 1.56323 -1.70919 -0.319051 0
M  V30 6 S 0.607375 -1.00367 1.03661 0
M  V30 7 C -0.943818 -0.299716 0.541368 0
M  V30 8 N -2.09306 -1.03411 0.797241 0
M  V30 9 C -3.30565 -0.637353 0.418748 0
M  V30 10 N -4.44078 -1.44622 0.778194 0
M  V30 11 N -3.41661 0.528245 -0.24293 0
M  V30 12 C -2.3287 1.29648 -0.531654 0
M  V30 13 N -1.12386 0.840902 -0.118866 0
M  V30 14 N -2.46332 2.49634 -1.2718 0
M  V30 15 H 4.15141 1.70837 1.26329 0
M  V30 16 H 4.48815 1.45701 -0.540779 0
M  V30 17 H 5.20108 0.374786 0.676526 0
M  V30 18 H 2.57283 0.0128479 1.34743 0
M  V30 19 H 0.919225 -1.63547 -1.2452 0
M  V30 20 H 1.95006 -2.70759 -0.153952 0
M  V30 21 H -5.37635 -0.982784 0.889693 0
M  V30 22 H -4.33539 -2.45181 0.927093 0
M  V30 23 H -1.78694 3.27567 -1.28967 0
M  V30 24 H -3.33627 2.57824 -1.85415 0
M  V30 END ATOM
M  V30 BEGIN BOND
M  V30 1 1 1 2
M  V30 2 1 2 3
M  V30 3 2 3 4
M  V30 4 1 3 5
M  V30 5 1 5 6
M  V30 6 1 6 7
M  V30 7 2 7 8
M  V30 8 1 8 9
M  V30 9 1 9 10
M  V30 10 2 9 11
M  V30 11 1 11 12
M  V30 12 2 12 13
M  V30 13 1 12 14
M  V30 14 1 13 7
M  V30 15 1 1 15
M  V30 16 1 1 16
M  V30 17 1 1 17
M  V30 18 1 2 18
M  V30 19 1 5 19
M  V30 20 1 5 20
M  V30 21 1 10 21
M  V30 22 1 10 22
M  V30 23 1 14 23
M  V30 24 1 14 24
M  V30 END BOND
M  V30 END CTAB
M  END
