
     RDKit          3D

  0  0  0  0  0  0  0  0  0  0999 V3000
M  V30 BEGIN CTAB
M  V30 COUNTS 30 29 0 0 0
M  V30 BEGIN ATOM
M  V30 1 O -1.45875 1.43198 -1.62913 0
M  V30 2 C -0.815997 0.253231 -1.10546 0
M  V30 3 C -1.69659 -0.0884644 0.072105 0
M  V30 4 C -1.21205 -1.29925 0.760678 0
M  V30 5 C -3.08126 -0.398891 -0.506707 0
M  V30 6 C -1.84581 1.11074 0.985553 0
M  V30 7 C 0.55907 0.699287 -0.783084 0
M  V30 8 N 1.48465 -0.236914 -0.281148 0
M  V30 9 C 2.80442 0.147165 0.0880476 0
M  V30 10 N 3.74454 -0.714533 0.278884 0
M  V30 11 N 3.54361 -2.07532 0.140038 0
M  V30 12 N 3.08233 1.52924 0.247739 0
M  V30 13 H -0.804756 1.95556 -2.15202 0
M  V30 14 H -0.917424 -0.49951 -1.88015 0
M  V30 15 H -2.02584 -1.76853 1.39707 0
M  V30 16 H -0.955291 -2.07729 0.0262523 0
M  V30 17 H -0.420944 -1.0683 1.49865 0
M  V30 18 H -3.82296 0.319511 -0.151028 0
M  V30 19 H -3.07872 -0.42376 -1.5993 0
M  V30 20 H -3.4414 -1.40737 -0.161273 0
M  V30 21 H -2.90538 1.20913 1.35217 0
M  V30 22 H -1.64669 2.05949 0.441535 0
M  V30 23 H -1.15286 1.01843 1.84523 0
M  V30 24 H 0.52525 1.56145 -0.0753248 0
M  V30 25 H 0.997633 1.10031 -1.74874 0
M  V30 26 H 1.2518 -1.23807 -0.170544 0
M  V30 27 H 3.53621 -2.51055 -0.797929 0
M  V30 28 H 3.39668 -2.67919 0.984769 0
M  V30 29 H 3.35803 1.96254 1.14403 0
M  V30 30 H 2.99851 2.12788 -0.598877 0
M  V30 END ATOM
M  V30 BEGIN BOND
M  V30 1 1 1 2
M  V30 2 1 2 3
M  V30 3 1 3 4
M  V30 4 1 3 5
M  V30 5 1 3 6
M  V30 6 1 2 7
M  V30 7 1 7 8
M  V30 8 1 8 9
M  V30 9 2 9 10 CFG=2
M  V30 10 1 10 11
M  V30 11 1 9 12
M  V30 12 1 1 13
M  V30 13 1 2 14
M  V30 14 1 4 15
M  V30 15 1 4 16
M  V30 16 1 4 17
M  V30 17 1 5 18
M  V30 18 1 5 19
M  V30 19 1 5 20
M  V30 20 1 6 21
M  V30 21 1 6 22
M  V30 22 1 6 23
M  V30 23 1 7 24
M  V30 24 1 7 25
M  V30 25 1 8 26
M  V30 26 1 11 27
M  V30 27 1 11 28
M  V30 28 1 12 29
M  V30 29 1 12 30
M  V30 END BOND
M  V30 END CTAB
M  END
