
     RDKit          3D

  0  0  0  0  0  0  0  0  0  0999 V3000
M  V30 BEGIN CTAB
M  V30 COUNTS 25 25 0 0 0
M  V30 BEGIN ATOM
M  V30 1 C -3.25833 -0.284399 -1.04151 0
M  V30 2 C -2.69749 -0.601956 0.361549 0
M  V30 3 C -1.33583 -0.0704184 0.422983 0
M  V30 4 C -1.10641 1.13353 1.05937 0
M  V30 5 C 0.145139 1.66376 1.02495 0
M  V30 6 C 1.19428 1.04385 0.380398 0
M  V30 7 C 0.965075 -0.18289 -0.274334 0
M  V30 8 C -0.303586 -0.682646 -0.218464 0
M  V30 9 C 1.99475 -0.83543 -1.06826 0
M  V30 10 N 3.24257 -1.10575 -0.337122 0
M  V30 11 N 2.48742 1.6093 0.380419 0
M  V30 12 H -2.98898 0.7446 -1.25392 0
M  V30 13 H -4.34297 -0.463095 -1.00626 0
M  V30 14 H -2.76594 -1.0291 -1.71927 0
M  V30 15 H -2.79187 -1.68402 0.485925 0
M  V30 16 H -3.34516 -0.0866861 1.11917 0
M  V30 17 H -1.87609 1.68413 1.56814 0
M  V30 18 H 0.323133 2.63798 1.55645 0
M  V30 19 H -0.510739 -1.65243 -0.738894 0
M  V30 20 H 2.16414 -0.44346 -2.09599 0
M  V30 21 H 1.64312 -1.9369 -1.26422 0
M  V30 22 H 3.16704 -1.86197 0.349992 0
M  V30 23 H 4.01945 -1.23236 -1.01732 0
M  V30 24 H 3.27596 1.16583 0.939632 0
M  V30 25 H 2.7013 2.47053 -0.140787 0
M  V30 END ATOM
M  V30 BEGIN BOND
M  V30 1 1 1 2
M  V30 2 1 2 3
M  V30 3 2 3 4
M  V30 4 1 4 5
M  V30 5 2 5 6
M  V30 6 1 6 7
M  V30 7 2 7 8
M  V30 8 1 7 9
M  V30 9 1 9 10
M  V30 10 1 6 11
M  V30 11 1 8 3
M  V30 12 1 1 12
M  V30 13 1 1 13
M  V30 14 1 1 14
M  V30 15 1 2 15
M  V30 16 1 2 16
M  V30 17 1 4 17
M  V30 18 1 5 18
M  V30 19 1 8 19
M  V30 20 1 9 20
M  V30 21 1 9 21
M  V30 22 1 10 22
M  V30 23 1 10 23
M  V30 24 1 11 24
M  V30 25 1 11 25
M  V30 END BOND
M  V30 END CTAB
M  END
