
     RDKit          3D

  0  0  0  0  0  0  0  0  0  0999 V3000
M  V30 BEGIN CTAB
M  V30 COUNTS 31 31 0 0 0
M  V30 BEGIN ATOM
M  V30 1 C 0.469687 3.02448 -0.149398 0
M  V30 2 C -0.404338 1.79275 0.0559894 0
M  V30 3 C 0.314099 0.53531 -0.364231 0
M  V30 4 C 1.57609 0.317808 0.426733 0
M  V30 5 C 1.68377 -0.995757 1.11939 0
M  V30 6 C 1.22831 -2.17942 0.338542 0
M  V30 7 C 0.323431 -1.86331 -0.800534 0
M  V30 8 C -0.566471 -0.647368 -0.521864 0
M  V30 9 N -1.29181 -0.464974 -1.79878 0
M  V30 10 C -1.55362 -0.916793 0.55311 0
M  V30 11 N -2.51729 0.102508 0.794975 0
M  V30 12 H -0.185637 3.90613 -0.267308 0
M  V30 13 H 1.0763 3.21496 0.771364 0
M  V30 14 H 1.09962 2.91348 -1.05284 0
M  V30 15 H -0.6612 1.82351 1.1322 0
M  V30 16 H -1.32397 1.97001 -0.525913 0
M  V30 17 H 0.684242 0.781322 -1.41428 0
M  V30 18 H 2.50402 0.465523 -0.181384 0
M  V30 19 H 1.67642 1.10356 1.23588 0
M  V30 20 H 2.78192 -1.14997 1.34996 0
M  V30 21 H 1.23513 -0.972696 2.15709 0
M  V30 22 H 0.717989 -2.92614 0.983297 0
M  V30 23 H 2.11099 -2.73383 -0.0921019 0
M  V30 24 H -0.342777 -2.72302 -1.06539 0
M  V30 25 H 0.880658 -1.61295 -1.7287 0
M  V30 26 H -0.690902 -0.730182 -2.60795 0
M  V30 27 H -1.61362 0.501885 -1.91061 0
M  V30 28 H -2.10489 -1.85313 0.263474 0
M  V30 29 H -1.06692 -1.13883 1.53921 0
M  V30 30 H -3.13966 0.338545 0.0227785 0
M  V30 31 H -2.89957 0.116592 1.73731 0
M  V30 END ATOM
M  V30 BEGIN BOND
M  V30 1 1 1 2
M  V30 2 1 2 3
M  V30 3 1 3 4
M  V30 4 1 4 5
M  V30 5 1 5 6
M  V30 6 1 6 7
M  V30 7 1 7 8
M  V30 8 1 8 9
M  V30 9 1 8 10
M  V30 10 1 10 11
M  V30 11 1 8 3
M  V30 12 1 1 12
M  V30 13 1 1 13
M  V30 14 1 1 14
M  V30 15 1 2 15
M  V30 16 1 2 16
M  V30 17 1 3 17
M  V30 18 1 4 18
M  V30 19 1 4 19
M  V30 20 1 5 20
M  V30 21 1 5 21
M  V30 22 1 6 22
M  V30 23 1 6 23
M  V30 24 1 7 24
M  V30 25 1 7 25
M  V30 26 1 9 26
M  V30 27 1 9 27
M  V30 28 1 10 28
M  V30 29 1 10 29
M  V30 30 1 11 30
M  V30 31 1 11 31
M  V30 END BOND
M  V30 END CTAB
M  END
