
     RDKit          3D

  0  0  0  0  0  0  0  0  0  0999 V3000
M  V30 BEGIN CTAB
M  V30 COUNTS 35 36 0 0 0
M  V30 BEGIN ATOM
M  V30 1 N 1.80053 -0.584242 -1.94728 0
M  V30 2 C 2.08872 -0.482885 -0.566829 0
M  V30 3 C 3.34517 -0.8596 -0.114663 0
M  V30 4 C 3.6856 -0.699354 1.23042 0
M  V30 5 C 2.75073 -0.168334 2.06385 0
M  V30 6 C 1.50972 0.200093 1.57966 0
M  V30 7 C 1.13802 0.0583048 0.275874 0
M  V30 8 C -0.223148 0.358239 -0.220613 0 CFG=1
M  V30 9 C -0.20318 1.67502 -0.980774 0
M  V30 10 C -1.19527 2.69062 -0.562075 0
M  V30 11 O -2.37662 2.14168 -0.0457213 0
M  V30 12 C -2.80064 1.11331 -0.903623 0
M  V30 13 C -2.50225 -0.191489 -0.27443 0
M  V30 14 N -1.10426 -0.613768 -0.653113 0
M  V30 15 S -1.03198 -2.17162 0.12376 0
M  V30 16 O 0.141386 -2.97681 -0.176542 0
M  V30 17 O -2.23589 -2.91697 -0.480247 0
M  V30 18 N -1.32937 -2.13535 1.78015 0
M  V30 19 H 1.50628 -1.44397 -2.38399 0
M  V30 20 H 1.89135 0.292334 -2.50575 0
M  V30 21 H 4.07126 -1.27512 -0.809469 0
M  V30 22 H 4.69258 -1.00705 1.59774 0
M  V30 23 H 2.92392 0.000895865 3.1132 0
M  V30 24 H 0.773655 0.612915 2.26067 0
M  V30 25 H -0.764196 0.744333 0.782338 0
M  V30 26 H -0.378905 1.43971 -2.05885 0
M  V30 27 H 0.820105 2.15814 -0.869922 0
M  V30 28 H -1.41959 3.33941 -1.44714 0
M  V30 29 H -0.814784 3.41944 0.206465 0
M  V30 30 H -2.35782 1.23559 -1.92116 0
M  V30 31 H -3.89875 1.30353 -1.01467 0
M  V30 32 H -3.19556 -1.01299 -0.461411 0
M  V30 33 H -2.49215 -0.0305404 0.848824 0
M  V30 34 H -0.648639 -2.53585 2.41081 0
M  V30 35 H -2.16601 -1.67762 2.12451 0
M  V30 END ATOM
M  V30 BEGIN BOND
M  V30 1 1 1 2
M  V30 2 2 2 3
M  V30 3 1 3 4
M  V30 4 2 4 5
M  V30 5 1 5 6
M  V30 6 2 6 7
M  V30 7 1 7 8
M  V30 8 1 8 9
M  V30 9 1 9 10
M  V30 10 1 10 11
M  V30 11 1 11 12
M  V30 12 1 12 13
M  V30 13 1 13 14
M  V30 14 1 14 15
M  V30 15 2 15 16
M  V30 16 2 15 17
M  V30 17 1 15 18
M  V30 18 1 7 2
M  V30 19 1 14 8
M  V30 20 1 1 19
M  V30 21 1 1 20
M  V30 22 1 3 21
M  V30 23 1 4 22
M  V30 24 1 5 23
M  V30 25 1 6 24
M  V30 26 1 8 25 CFG=1
M  V30 27 1 9 26
M  V30 28 1 9 27
M  V30 29 1 10 28
M  V30 30 1 10 29
M  V30 31 1 12 30
M  V30 32 1 12 31
M  V30 33 1 13 32
M  V30 34 1 13 33
M  V30 35 1 18 34
M  V30 36 1 18 35
M  V30 END BOND
M  V30 END CTAB
M  END
