
     RDKit          3D

  0  0  0  0  0  0  0  0  0  0999 V3000
M  V30 BEGIN CTAB
M  V30 COUNTS 38 40 0 0 0
M  V30 BEGIN ATOM
M  V30 1 N -7.02401 1.60856 -0.936173 0
M  V30 2 N -6.03367 0.625362 -0.686813 0
M  V30 3 C -4.68708 1.05002 -0.540488 0
M  V30 4 O -4.39523 2.26466 -0.631596 0
M  V30 5 C -3.634 0.0932934 -0.285049 0
M  V30 6 C -3.86861 -1.26049 -0.170969 0
M  V30 7 C -2.80013 -2.12767 0.0769181 0
M  V30 8 C -1.51862 -1.654 0.20904 0
M  V30 9 C -1.27627 -0.296243 0.0956432 0
M  V30 10 C -2.34111 0.542417 -0.148613 0
M  V30 11 N -0.0286738 0.166108 0.225067 0
M  V30 12 C 1.05674 -0.639142 0.469342 0
M  V30 13 N 0.805724 -1.9262 0.572194 0
M  V30 14 C -0.451912 -2.45751 0.449525 0
M  V30 15 O -0.65819 -3.69258 0.554288 0
M  V30 16 N 1.79688 -2.87329 0.781308 0
M  V30 17 C 2.38062 0.0116426 0.559142 0
M  V30 18 C 3.52633 -0.564738 0.978934 0
M  V30 19 C 4.76008 0.0727446 1.00609 0
M  V30 20 C 4.80434 1.37681 0.575687 0
M  V30 21 C 3.64626 1.99591 0.14029 0
M  V30 22 C 2.45216 1.34852 0.12373 0
M  V30 23 Cl 3.80118 3.66207 -0.391572 0
M  V30 24 C 6.10837 2.10642 0.585575 0
M  V30 25 H -7.75522 1.44918 -0.189526 0
M  V30 26 H -6.64104 2.56451 -0.79427 0
M  V30 27 H -6.34761 -0.367147 -0.623155 0
M  V30 28 H -4.87195 -1.66957 -0.270245 0
M  V30 29 H -3.04777 -3.17704 0.155904 0
M  V30 30 H -2.14421 1.59286 -0.235003 0
M  V30 31 H 2.44675 -3.22249 0.020283 0
M  V30 32 H 1.9043 -3.26581 1.74167 0
M  V30 33 H 3.52397 -1.57379 1.34656 0
M  V30 34 H 5.65533 -0.450482 1.35772 0
M  V30 35 H 1.54173 1.84185 -0.2216 0
M  V30 36 H 6.29207 2.59189 1.58119 0
M  V30 37 H 6.89829 1.34526 0.437059 0
M  V30 38 H 6.12416 2.90811 -0.179362 0
M  V30 END ATOM
M  V30 BEGIN BOND
M  V30 1 1 1 2
M  V30 2 1 2 3
M  V30 3 2 3 4
M  V30 4 1 3 5
M  V30 5 2 5 6
M  V30 6 1 6 7
M  V30 7 2 7 8
M  V30 8 1 8 9
M  V30 9 2 9 10
M  V30 10 1 9 11
M  V30 11 2 11 12
M  V30 12 1 12 13
M  V30 13 1 13 14
M  V30 14 2 14 15
M  V30 15 1 13 16
M  V30 16 1 12 17
M  V30 17 2 17 18
M  V30 18 1 18 19
M  V30 19 2 19 20
M  V30 20 1 20 21
M  V30 21 2 21 22
M  V30 22 1 21 23
M  V30 23 1 20 24
M  V30 24 1 10 5
M  V30 25 1 22 17
M  V30 26 1 14 8
M  V30 27 1 1 25
M  V30 28 1 1 26
M  V30 29 1 2 27
M  V30 30 1 6 28
M  V30 31 1 7 29
M  V30 32 1 10 30
M  V30 33 1 16 31
M  V30 34 1 16 32
M  V30 35 1 18 33
M  V30 36 1 19 34
M  V30 37 1 22 35
M  V30 38 1 24 36
M  V30 39 1 24 37
M  V30 40 1 24 38
M  V30 END BOND
M  V30 END CTAB
M  END
