
     RDKit          3D

  0  0  0  0  0  0  0  0  0  0999 V3000
M  V30 BEGIN CTAB
M  V30 COUNTS 29 31 0 0 0
M  V30 BEGIN ATOM
M  V30 1 N 1.86167 -1.22672 1.21099 0
M  V30 2 N 2.0179 -0.3627 0.128176 0
M  V30 3 C 3.20366 0.000888458 -0.433513 0
M  V30 4 N 4.47572 -0.436175 0.0183441 0
M  V30 5 N 2.90028 0.839545 -1.44985 0
M  V30 6 N 1.59061 0.974814 -1.49168 0
M  V30 7 C 1.0004 0.229426 -0.513211 0
M  V30 8 C -0.415071 0.139571 -0.27942 0
M  V30 9 C -1.13931 -1.0298 -0.849684 0
M  V30 10 C -2.59487 -0.586052 -0.66532 0
M  V30 11 C -2.55775 0.871159 -0.296929 0
M  V30 12 C -1.21429 1.29055 -0.913631 0
M  V30 13 C -2.16535 0.985458 1.17424 0
M  V30 14 C -0.82994 0.2716 1.17036 0
M  V30 15 H 1.68149 -0.862755 2.15458 0
M  V30 16 H 1.91982 -2.25393 1.05407 0
M  V30 17 H 4.85542 -0.253027 0.950649 0
M  V30 18 H 5.06206 -0.986655 -0.659526 0
M  V30 19 H -0.935313 -1.2623 -1.9117 0
M  V30 20 H -0.999971 -1.928 -0.179725 0
M  V30 21 H -3.09636 -0.695694 -1.66139 0
M  V30 22 H -3.12991 -1.18502 0.0792481 0
M  V30 23 H -3.36963 1.492 -0.603701 0
M  V30 24 H -1.18626 1.12608 -2.00197 0
M  V30 25 H -0.86717 2.26946 -0.573306 0
M  V30 26 H -2.0074 2.07316 1.36637 0
M  V30 27 H -2.92297 0.523652 1.79569 0
M  V30 28 H -1.05766 -0.76123 1.58245 0
M  V30 29 H -0.0797961 0.742675 1.79937 0
M  V30 END ATOM
M  V30 BEGIN BOND
M  V30 1 1 1 2
M  V30 2 1 2 3
M  V30 3 1 3 4
M  V30 4 2 3 5
M  V30 5 1 5 6
M  V30 6 2 6 7
M  V30 7 1 7 8
M  V30 8 1 8 9
M  V30 9 1 9 10
M  V30 10 1 10 11
M  V30 11 1 11 12
M  V30 12 1 11 13
M  V30 13 1 13 14
M  V30 14 1 7 2
M  V30 15 1 14 8
M  V30 16 1 12 8
M  V30 17 1 1 15
M  V30 18 1 1 16
M  V30 19 1 4 17
M  V30 20 1 4 18
M  V30 21 1 9 19
M  V30 22 1 9 20
M  V30 23 1 10 21
M  V30 24 1 10 22
M  V30 25 1 11 23
M  V30 26 1 12 24
M  V30 27 1 12 25
M  V30 28 1 13 26
M  V30 29 1 13 27
M  V30 30 1 14 28
M  V30 31 1 14 29
M  V30 END BOND
M  V30 END CTAB
M  END
