
     RDKit          3D

  0  0  0  0  0  0  0  0  0  0999 V3000
M  V30 BEGIN CTAB
M  V30 COUNTS 124 124 0 0 0
M  V30 BEGIN ATOM
M  V30 1 C -11.1328 -1.8047 -0.354768 0 CFG=1
M  V30 2 C -12.5224 -1.54059 0.143582 0
M  V30 3 O -10.5612 -0.555796 -0.592412 0
M  V30 4 C -10.2887 -2.43808 0.768717 0 CFG=2
M  V30 5 N -8.9419 -2.51066 0.370162 0
M  V30 6 C -7.80083 -1.80827 0.931607 0
M  V30 7 O -8.0378 -1.07259 1.91696 0
M  V30 8 C -6.50026 -1.95182 0.357017 0 CFG=2
M  V30 9 C -5.48491 -2.94429 0.837057 0
M  V30 10 C -4.41957 -2.73955 -0.281292 0
M  V30 11 C -4.78075 -1.3684 -0.89396 0
M  V30 12 N -5.64968 -0.816353 0.23223 0
M  V30 13 C -5.33701 0.319838 0.920784 0
M  V30 14 O -5.53651 0.301507 2.19005 0
M  V30 15 C -4.78519 1.62481 0.3928 0 CFG=2
M  V30 16 C -6.02133 2.31802 -0.230045 0
M  V30 17 C -5.71651 3.67633 -0.76683 0
M  V30 18 C -5.12868 4.58171 0.319391 0
M  V30 19 C -4.86533 5.92199 -0.244346 0
M  V30 20 N -6.09186 6.57595 -0.73791 0
M  V30 21 N -3.57217 1.65079 -0.141381 0
M  V30 22 C -2.29941 1.69357 -0.742978 0
M  V30 23 O -2.09396 2.0468 -1.94423 0
M  V30 24 C -1.05178 1.31927 -0.013384 0 CFG=2
M  V30 25 C -0.0859165 2.51443 -0.062287 0
M  V30 26 C -0.651412 3.73287 0.587412 0
M  V30 27 C -0.96622 3.60426 2.0311 0
M  V30 28 C 0.315583 4.88593 0.397826 0
M  V30 29 N -0.327345 0.344598 -0.885576 0
M  V30 30 C 0.358767 -0.70382 -0.258776 0
M  V30 31 O 0.355217 -0.810094 1.04291 0
M  V30 32 C 1.14174 -1.74746 -0.92649 0 CFG=2
M  V30 33 C 0.407666 -3.08389 -0.693778 0
M  V30 34 O 1.23521 -4.12363 -1.08854 0
M  V30 35 N 2.39908 -1.77655 -0.164024 0
M  V30 36 C 3.67981 -1.94614 -0.716059 0
M  V30 37 O 3.80409 -2.14072 -1.93265 0
M  V30 38 C 4.84939 -1.86779 0.229099 0 CFG=1
M  V30 39 N 6.02098 -2.31766 -0.414888 0
M  V30 40 C 7.27623 -2.64778 0.135375 0
M  V30 41 O 7.52077 -2.55471 1.32201 0
M  V30 42 C 8.32323 -3.13807 -0.834675 0 CFG=2
M  V30 43 C 8.42816 -4.61129 -0.800307 0
M  V30 44 N 9.61231 -2.52453 -0.649244 0
M  V30 45 C 9.81212 -1.18867 -1.0658 0
M  V30 46 O 8.79548 -0.556663 -1.54655 0
M  V30 47 C 11.0722 -0.42402 -1.01597 0 CFG=1
M  V30 48 N 10.7772 1.00831 -0.843011 0
M  V30 49 C 12.0324 -0.866078 0.0575033 0
M  V30 50 C 13.3228 -0.115772 0.120439 0
M  V30 51 C 13.1891 1.33461 0.374097 0
M  V30 52 O 13.4518 2.30293 -0.603056 0
M  V30 53 O 12.8253 1.77619 1.51002 0
M  V30 54 C 4.92629 -0.335442 0.52796 0
M  V30 55 C 5.21345 0.479042 -0.662446 0
M  V30 56 C 5.64124 -0.00565309 1.77371 0
M  V30 57 C -10.8545 -3.7405 1.18134 0
M  V30 58 O -12.2019 -3.86886 1.43339 0
M  V30 59 O -10.1179 -4.73508 1.29326 0
M  V30 60 H -11.2077 -2.46162 -1.233 0
M  V30 61 H -12.8658 -0.500372 -0.174215 0
M  V30 62 H -12.6308 -1.55183 1.25383 0
M  V30 63 H -13.3154 -2.20286 -0.294382 0
M  V30 64 H -10.9851 0.134492 -0.085661 0
M  V30 65 H -10.4126 -1.75539 1.63235 0
M  V30 66 H -8.65953 -3.15252 -0.447978 0
M  V30 67 H -6.66367 -2.28375 -0.767978 0
M  V30 68 H -5.83259 -4.00459 0.856989 0
M  V30 69 H -4.97493 -2.64502 1.77739 0
M  V30 70 H -3.4262 -2.70446 0.18685 0
M  V30 71 H -4.58483 -3.49449 -1.03142 0
M  V30 72 H -5.47011 -1.4369 -1.73045 0
M  V30 73 H -3.94265 -0.768651 -1.07744 0
M  V30 74 H -4.74861 2.34906 1.35262 0
M  V30 75 H -6.43199 1.69233 -1.04141 0
M  V30 76 H -6.79941 2.4446 0.551601 0
M  V30 77 H -5.14371 3.76236 -1.66445 0
M  V30 78 H -6.71286 4.15332 -0.970121 0
M  V30 79 H -4.14859 4.14211 0.618079 0
M  V30 80 H -5.84917 4.58385 1.15887 0
M  V30 81 H -4.14195 5.9217 -1.0654 0
M  V30 82 H -4.45066 6.6028 0.562167 0
M  V30 83 H -6.91462 6.26341 -0.168155 0
M  V30 84 H -5.94444 7.63305 -0.611109 0
M  V30 85 H -4.10635 2.07869 -1.32714 0
M  V30 86 H -1.14989 0.895616 0.963227 0
M  V30 87 H 0.900547 2.28605 0.405546 0
M  V30 88 H 0.0532619 2.74346 -1.14336 0
M  V30 89 H -1.62227 4.00755 0.0651381 0
M  V30 90 H -1.96329 3.17571 2.27575 0
M  V30 91 H -0.180308 3.0336 2.60162 0
M  V30 92 H -0.947975 4.64306 2.46798 0
M  V30 93 H 0.952293 4.70758 -0.518195 0
M  V30 94 H 1.04036 4.9938 1.24329 0
M  V30 95 H -0.220318 5.83386 0.240865 0
M  V30 96 H -0.339314 0.461381 -1.88475 0
M  V30 97 H 1.27842 -1.68404 -2.00208 0
M  V30 98 H 0.0762262 -3.15279 0.340019 0
M  V30 99 H -0.452042 -3.05167 -1.4227 0
M  V30 100 H 1.12089 -4.27832 -2.0685 0
M  V30 101 H 2.34279 -1.67178 0.90109 0
M  V30 102 H 4.6193 -2.27672 1.19693 0
M  V30 103 H 5.93653 -2.43925 -1.49127 0
M  V30 104 H 7.98002 -2.79671 -1.8578 0
M  V30 105 H 9.36046 -4.93479 -0.238324 0
M  V30 106 H 8.47702 -5.15299 -1.75246 0
M  V30 107 H 7.60846 -5.10245 -0.205687 0
M  V30 108 H 10.4003 -3.03769 -0.207203 0
M  V30 109 H 11.5775 -0.440861 -2.04799 0
M  V30 110 H 9.87723 1.23717 -1.35118 0
M  V30 111 H 10.4981 1.12287 0.169497 0
M  V30 112 H 11.4933 -0.684196 1.04062 0
M  V30 113 H 12.1896 -1.96387 -0.0147876 0
M  V30 114 H 13.9119 -0.21962 -0.844166 0
M  V30 115 H 13.9554 -0.587691 0.925672 0
M  V30 116 H 14.3303 2.82162 -0.620926 0
M  V30 117 H 3.82117 -0.123716 0.76756 0
M  V30 118 H 4.35501 1.07772 -1.02039 0
M  V30 119 H 5.4938 -0.174251 -1.52462 0
M  V30 120 H 6.0441 1.21721 -0.462979 0
M  V30 121 H 5.15772 0.878286 2.32541 0
M  V30 122 H 5.57744 -0.80985 2.54008 0
M  V30 123 H 6.67237 0.34449 1.57151 0
M  V30 124 H -12.8242 -4.32892 0.734529 0
M  V30 END ATOM
M  V30 BEGIN BOND
M  V30 1 1 1 2
M  V30 2 1 1 3
M  V30 3 1 1 4
M  V30 4 1 4 5
M  V30 5 1 5 6
M  V30 6 2 6 7
M  V30 7 1 6 8
M  V30 8 1 8 9
M  V30 9 1 9 10
M  V30 10 1 10 11
M  V30 11 1 11 12
M  V30 12 1 12 13
M  V30 13 2 13 14
M  V30 14 1 13 15
M  V30 15 1 15 16
M  V30 16 1 16 17
M  V30 17 1 17 18
M  V30 18 1 18 19
M  V30 19 1 19 20
M  V30 20 1 15 21
M  V30 21 1 21 22
M  V30 22 2 22 23
M  V30 23 1 22 24
M  V30 24 1 24 25
M  V30 25 1 25 26
M  V30 26 1 26 27
M  V30 27 1 26 28
M  V30 28 1 24 29
M  V30 29 1 29 30
M  V30 30 2 30 31
M  V30 31 1 30 32
M  V30 32 1 32 33
M  V30 33 1 33 34
M  V30 34 1 32 35
M  V30 35 1 35 36
M  V30 36 2 36 37
M  V30 37 1 36 38
M  V30 38 1 38 39
M  V30 39 1 39 40
M  V30 40 2 40 41
M  V30 41 1 40 42
M  V30 42 1 42 43
M  V30 43 1 42 44
M  V30 44 1 44 45
M  V30 45 2 45 46
M  V30 46 1 45 47
M  V30 47 1 47 48
M  V30 48 1 47 49
M  V30 49 1 49 50
M  V30 50 1 50 51
M  V30 51 1 51 52
M  V30 52 2 51 53
M  V30 53 1 38 54
M  V30 54 1 54 55
M  V30 55 1 54 56
M  V30 56 1 4 57
M  V30 57 1 57 58
M  V30 58 2 57 59
M  V30 59 1 12 8
M  V30 60 1 1 60 CFG=3
M  V30 61 1 2 61
M  V30 62 1 2 62
M  V30 63 1 2 63
M  V30 64 1 3 64
M  V30 65 1 4 65 CFG=1
M  V30 66 1 5 66
M  V30 67 1 8 67 CFG=3
M  V30 68 1 9 68
M  V30 69 1 9 69
M  V30 70 1 10 70
M  V30 71 1 10 71
M  V30 72 1 11 72
M  V30 73 1 11 73
M  V30 74 1 15 74 CFG=1
M  V30 75 1 16 75
M  V30 76 1 16 76
M  V30 77 1 17 77
M  V30 78 1 17 78
M  V30 79 1 18 79
M  V30 80 1 18 80
M  V30 81 1 19 81
M  V30 82 1 19 82
M  V30 83 1 20 83
M  V30 84 1 20 84
M  V30 85 1 21 85
M  V30 86 1 24 86 CFG=1
M  V30 87 1 25 87
M  V30 88 1 25 88
M  V30 89 1 26 89
M  V30 90 1 27 90
M  V30 91 1 27 91
M  V30 92 1 27 92
M  V30 93 1 28 93
M  V30 94 1 28 94
M  V30 95 1 28 95
M  V30 96 1 29 96
M  V30 97 1 32 97 CFG=3
M  V30 98 1 33 98
M  V30 99 1 33 99
M  V30 100 1 34 100
M  V30 101 1 35 101
M  V30 102 1 38 102 CFG=1
M  V30 103 1 39 103
M  V30 104 1 42 104 CFG=3
M  V30 105 1 43 105
M  V30 106 1 43 106
M  V30 107 1 43 107
M  V30 108 1 44 108
M  V30 109 1 47 109 CFG=3
M  V30 110 1 48 110
M  V30 111 1 48 111
M  V30 112 1 49 112
M  V30 113 1 49 113
M  V30 114 1 50 114
M  V30 115 1 50 115
M  V30 116 1 52 116
M  V30 117 1 54 117
M  V30 118 1 55 118
M  V30 119 1 55 119
M  V30 120 1 55 120
M  V30 121 1 56 121
M  V30 122 1 56 122
M  V30 123 1 56 123
M  V30 124 1 58 124
M  V30 END BOND
M  V30 END CTAB
M  END
