
     RDKit          3D

  0  0  0  0  0  0  0  0  0  0999 V3000
M  V30 BEGIN CTAB
M  V30 COUNTS 44 46 0 0 0
M  V30 BEGIN ATOM
M  V30 1 N -1.79885 -2.21437 2.96192 0
M  V30 2 C -1.2134 -1.06865 2.3478 0
M  V30 3 N -0.0197368 -0.590568 2.73276 0
M  V30 4 C 0.48542 0.489201 2.12252 0
M  V30 5 C 1.8248 1.05507 2.52862 0
M  V30 6 O 2.82688 0.656201 1.64694 0
M  V30 7 C 3.22906 -0.609446 1.36162 0
M  V30 8 O 2.67881 -1.58519 1.9216 0
M  V30 9 C 4.29372 -0.871165 0.41279 0
M  V30 10 C 4.7161 -2.15235 0.1101 0
M  V30 11 C 5.73406 -2.29061 -0.804113 0
M  V30 12 C 6.32537 -1.21726 -1.4074 0
M  V30 13 C 5.90401 0.0554487 -1.10511 0
M  V30 14 C 4.89852 0.207917 -0.203103 0
M  V30 15 N 6.53416 1.16164 -1.74569 0
M  V30 16 Cl 7.62597 -1.42556 -2.57349 0
M  V30 17 N -0.189264 1.09629 1.1319 0
M  V30 18 C -1.41882 0.644213 0.699802 0
M  V30 19 N -1.84484 -0.43146 1.35987 0
M  V30 20 N -2.07377 1.33098 -0.323212 0
M  V30 21 C -3.31586 1.05604 -0.931699 0
M  V30 22 C -3.93739 -0.157561 -0.808384 0
M  V30 23 C -5.18216 -0.345119 -1.42651 0
M  V30 24 C -5.79617 0.648542 -2.15103 0
M  V30 25 C -5.15956 1.87574 -2.27193 0
M  V30 26 C -3.94581 2.08372 -1.67854 0
M  V30 27 C -7.12067 0.390461 -2.78615 0
M  V30 28 H -1.8134 -3.1014 2.44163 0
M  V30 29 H -2.19856 -2.1535 3.9071 0
M  V30 30 H 2.02007 0.712652 3.57885 0
M  V30 31 H 1.71543 2.15131 2.45358 0
M  V30 32 H 4.23433 -2.97905 0.598632 0
M  V30 33 H 6.0931 -3.29665 -1.0666 0
M  V30 34 H 4.57465 1.23 0.0265029 0
M  V30 35 H 6.91822 1.07711 -2.71368 0
M  V30 36 H 6.62665 2.0726 -1.26983 0
M  V30 37 H -1.55103 2.19259 -0.702104 0
M  V30 38 H -3.50937 -0.987085 -0.265695 0
M  V30 39 H -5.63901 -1.33646 -1.29697 0
M  V30 40 H -5.64846 2.67322 -2.85154 0
M  V30 41 H -3.44197 3.02106 -1.76041 0
M  V30 42 H -7.32864 1.10217 -3.59288 0
M  V30 43 H -7.91137 0.502833 -1.99119 0
M  V30 44 H -7.20121 -0.673571 -3.1124 0
M  V30 END ATOM
M  V30 BEGIN BOND
M  V30 1 1 1 2
M  V30 2 2 2 3
M  V30 3 1 3 4
M  V30 4 1 4 5
M  V30 5 1 5 6
M  V30 6 1 6 7
M  V30 7 2 7 8
M  V30 8 1 7 9
M  V30 9 2 9 10
M  V30 10 1 10 11
M  V30 11 2 11 12
M  V30 12 1 12 13
M  V30 13 2 13 14
M  V30 14 1 13 15
M  V30 15 1 12 16
M  V30 16 2 4 17
M  V30 17 1 17 18
M  V30 18 2 18 19
M  V30 19 1 18 20
M  V30 20 1 20 21
M  V30 21 2 21 22
M  V30 22 1 22 23
M  V30 23 2 23 24
M  V30 24 1 24 25
M  V30 25 2 25 26
M  V30 26 1 24 27
M  V30 27 1 19 2
M  V30 28 1 26 21
M  V30 29 1 14 9
M  V30 30 1 1 28
M  V30 31 1 1 29
M  V30 32 1 5 30
M  V30 33 1 5 31
M  V30 34 1 10 32
M  V30 35 1 11 33
M  V30 36 1 14 34
M  V30 37 1 15 35
M  V30 38 1 15 36
M  V30 39 1 20 37
M  V30 40 1 22 38
M  V30 41 1 23 39
M  V30 42 1 25 40
M  V30 43 1 26 41
M  V30 44 1 27 42
M  V30 45 1 27 43
M  V30 46 1 27 44
M  V30 END BOND
M  V30 END CTAB
M  END
