
     RDKit          3D

  0  0  0  0  0  0  0  0  0  0999 V3000
M  V30 BEGIN CTAB
M  V30 COUNTS 32 32 0 0 0
M  V30 BEGIN ATOM
M  V30 1 C 3.07452 1.04148 0.68832 0
M  V30 2 C 3.04409 0.200273 -0.568521 0
M  V30 3 C 2.46339 -1.17207 -0.30542 0
M  V30 4 C 1.05085 -1.0673 0.209852 0
M  V30 5 N 0.216272 -0.399904 -0.769619 0
M  V30 6 C -1.16779 -0.15297 -0.542332 0
M  V30 7 C -1.87306 0.487332 -1.53443 0
M  V30 8 C -3.21897 0.755852 -1.37436 0
M  V30 9 C -3.84862 0.371908 -0.202038 0
M  V30 10 C -3.11496 -0.274507 0.787638 0
M  V30 11 N -1.79196 -0.51935 0.58915 0
M  V30 12 N -3.79384 -0.647261 1.96292 0
M  V30 13 N -5.20811 0.640081 -0.0337361 0
M  V30 14 C 4.46605 0.119031 -1.07584 0
M  V30 15 H 3.588 2.00255 0.39413 0
M  V30 16 H 2.06265 1.21779 1.05768 0
M  V30 17 H 3.69361 0.485039 1.4335 0
M  V30 18 H 2.47046 0.755181 -1.33507 0
M  V30 19 H 2.55902 -1.85114 -1.14689 0
M  V30 20 H 3.06343 -1.61686 0.541737 0
M  V30 21 H 1.06643 -0.557806 1.18629 0
M  V30 22 H 0.688517 -2.12326 0.347391 0
M  V30 23 H 0.663411 -0.101296 -1.66198 0
M  V30 24 H -1.38963 0.800286 -2.47362 0
M  V30 25 H -3.74609 1.26343 -2.17835 0
M  V30 26 H -4.07179 0.0682339 2.64415 0
M  V30 27 H -4.01203 -1.6414 2.13919 0
M  V30 28 H -5.93997 0.0399859 -0.457548 0
M  V30 29 H -5.51675 1.45678 0.526729 0
M  V30 30 H 4.90871 1.14112 -0.974239 0
M  V30 31 H 5.09651 -0.558939 -0.493988 0
M  V30 32 H 4.51767 -0.162294 -2.14197 0
M  V30 END ATOM
M  V30 BEGIN BOND
M  V30 1 1 1 2
M  V30 2 1 2 3
M  V30 3 1 3 4
M  V30 4 1 4 5
M  V30 5 1 5 6
M  V30 6 2 6 7
M  V30 7 1 7 8
M  V30 8 2 8 9
M  V30 9 1 9 10
M  V30 10 2 10 11
M  V30 11 1 10 12
M  V30 12 1 9 13
M  V30 13 1 2 14
M  V30 14 1 11 6
M  V30 15 1 1 15
M  V30 16 1 1 16
M  V30 17 1 1 17
M  V30 18 1 2 18
M  V30 19 1 3 19
M  V30 20 1 3 20
M  V30 21 1 4 21
M  V30 22 1 4 22
M  V30 23 1 5 23
M  V30 24 1 7 24
M  V30 25 1 8 25
M  V30 26 1 12 26
M  V30 27 1 12 27
M  V30 28 1 13 28
M  V30 29 1 13 29
M  V30 30 1 14 30
M  V30 31 1 14 31
M  V30 32 1 14 32
M  V30 END BOND
M  V30 END CTAB
M  END
