
     RDKit          3D

  0  0  0  0  0  0  0  0  0  0999 V3000
M  V30 BEGIN CTAB
M  V30 COUNTS 80 84 0 0 0
M  V30 BEGIN ATOM
M  V30 1 C -1.8508 -1.92938 0.736075 0
M  V30 2 C -1.56631 -0.558845 0.0602382 0 CFG=2
M  V30 3 C -0.0886159 -0.493427 -0.0875838 0
M  V30 4 N 0.523012 0.728244 0.275805 0
M  V30 5 C -0.263006 1.82239 0.807169 0 CFG=1
M  V30 6 C -0.980748 2.63016 -0.222104 0
M  V30 7 C -0.0816431 3.28062 -1.24417 0
M  V30 8 C -0.998296 4.05166 -2.18851 0
M  V30 9 N -1.66809 5.07674 -1.40985 0
M  V30 10 C -0.954142 6.18091 -0.904563 0
M  V30 11 N -0.887868 7.34859 -1.70529 0
M  V30 12 N -0.356694 6.22486 0.23706 0
M  V30 13 C -1.33052 1.21784 1.74299 0
M  V30 14 N -2.19745 0.465896 0.811222 0
M  V30 15 C -3.54307 0.824936 0.684076 0
M  V30 16 O -3.90729 1.70905 1.59714 0
M  V30 17 C -4.60287 0.443813 -0.229103 0
M  V30 18 C -5.68791 -0.391479 0.323501 0
M  V30 19 C -6.57392 0.00927646 1.33459 0
M  V30 20 N -7.34091 -1.03714 1.65833 0
M  V30 21 C -6.98867 -2.10851 0.892877 0
M  V30 22 C -5.95267 -1.72847 0.0474348 0
M  V30 23 C -5.42885 -2.63552 -0.885926 0
M  V30 24 C -5.97315 -3.90057 -0.928936 0
M  V30 25 C -6.99566 -4.27067 -0.0876984 0
M  V30 26 C -7.52443 -3.37684 0.84461 0
M  V30 27 C 1.90391 0.938986 0.165163 0
M  V30 28 O 2.35031 2.11111 0.472652 0
M  V30 29 C 2.973 0.0100913 -0.254336 0 CFG=2
M  V30 30 N 2.60123 -1.32636 -0.493436 0
M  V30 31 C 4.12324 0.188152 0.724971 0
M  V30 32 C 5.26913 -0.690101 0.408505 0
M  V30 33 C 6.28061 -0.269748 -0.469077 0
M  V30 34 C 7.34483 -1.08762 -0.784201 0
M  V30 35 C 7.47048 -2.35516 -0.256388 0
M  V30 36 C 8.51839 -3.19206 -0.571248 0
M  V30 37 C 8.63447 -4.46417 -0.0546874 0
M  V30 38 C 7.65611 -4.89798 0.808 0
M  V30 39 C 6.60454 -4.04954 1.12033 0
M  V30 40 C 6.4882 -2.77894 0.604419 0
M  V30 41 C 5.41557 -1.95559 0.922736 0
M  V30 42 H -2.65919 -2.46956 0.315397 0
M  V30 43 H -2.03922 -1.68102 1.80526 0
M  V30 44 H -0.933354 -2.51319 0.685567 0
M  V30 45 H -2.04039 -0.624223 -0.954891 0
M  V30 46 H 0.340696 -1.30305 0.581206 0
M  V30 47 H 0.164704 -0.796704 -1.14708 0
M  V30 48 H 0.392312 2.50808 1.39843 0
M  V30 49 H -1.52623 3.42055 0.312438 0
M  V30 50 H -1.7414 2.04959 -0.786596 0
M  V30 51 H 0.437225 2.53292 -1.86556 0
M  V30 52 H 0.591065 4.04103 -0.803295 0
M  V30 53 H -0.443056 4.49803 -3.04347 0
M  V30 54 H -1.72154 3.31386 -2.58261 0
M  V30 55 H -2.6757 4.98241 -1.22959 0
M  V30 56 H 0.0512005 7.70243 -1.96225 0
M  V30 57 H -1.78938 7.81329 -2.0149 0
M  V30 58 H -0.328137 5.46981 0.927594 0
M  V30 59 H -0.829527 0.480568 2.3801 0
M  V30 60 H -1.86578 2.00118 2.25286 0
M  V30 61 H -4.16274 -0.0725285 -1.13011 0
M  V30 62 H -5.07719 1.36608 -0.689632 0
M  V30 63 H -6.57568 1.01172 1.73663 0
M  V30 64 H -8.0858 -1.04174 2.38451 0
M  V30 65 H -4.63637 -2.27485 -1.50964 0
M  V30 66 H -5.58162 -4.62807 -1.65876 0
M  V30 67 H -7.40586 -5.27607 -0.145216 0
M  V30 68 H -8.32242 -3.68338 1.50246 0
M  V30 69 H 3.37813 0.412172 -1.23803 0
M  V30 70 H 2.49598 -1.65691 -1.45191 0
M  V30 71 H 2.68603 -2.00972 0.259567 0
M  V30 72 H 4.42225 1.25212 0.659616 0
M  V30 73 H 3.80533 -0.0130341 1.76518 0
M  V30 74 H 6.1868 0.721344 -0.878501 0
M  V30 75 H 8.11383 -0.732795 -1.46375 0
M  V30 76 H 9.2863 -2.85702 -1.25188 0
M  V30 77 H 9.45832 -5.11149 -0.304956 0
M  V30 78 H 7.72671 -5.8989 1.23725 0
M  V30 79 H 5.84267 -4.39708 1.80284 0
M  V30 80 H 4.64762 -2.30102 1.60289 0
M  V30 END ATOM
M  V30 BEGIN BOND
M  V30 1 1 1 2
M  V30 2 1 2 3
M  V30 3 1 3 4
M  V30 4 1 4 5
M  V30 5 1 5 6
M  V30 6 1 6 7
M  V30 7 1 7 8
M  V30 8 1 8 9
M  V30 9 1 9 10
M  V30 10 1 10 11
M  V30 11 2 10 12 CFG=2
M  V30 12 1 5 13
M  V30 13 1 13 14
M  V30 14 1 14 15
M  V30 15 2 15 16
M  V30 16 1 15 17
M  V30 17 1 17 18
M  V30 18 2 18 19
M  V30 19 1 19 20
M  V30 20 1 20 21
M  V30 21 2 21 22
M  V30 22 1 22 23
M  V30 23 2 23 24
M  V30 24 1 24 25
M  V30 25 2 25 26
M  V30 26 1 4 27
M  V30 27 2 27 28
M  V30 28 1 27 29
M  V30 29 1 29 30
M  V30 30 1 29 31
M  V30 31 1 31 32
M  V30 32 2 32 33
M  V30 33 1 33 34
M  V30 34 2 34 35
M  V30 35 1 35 36
M  V30 36 2 36 37
M  V30 37 1 37 38
M  V30 38 2 38 39
M  V30 39 1 39 40
M  V30 40 2 40 41
M  V30 41 1 14 2
M  V30 42 1 22 18
M  V30 43 1 41 32
M  V30 44 1 26 21
M  V30 45 1 40 35
M  V30 46 1 1 42
M  V30 47 1 1 43
M  V30 48 1 1 44
M  V30 49 1 2 45 CFG=3
M  V30 50 1 3 46
M  V30 51 1 3 47
M  V30 52 1 5 48 CFG=1
M  V30 53 1 6 49
M  V30 54 1 6 50
M  V30 55 1 7 51
M  V30 56 1 7 52
M  V30 57 1 8 53
M  V30 58 1 8 54
M  V30 59 1 9 55
M  V30 60 1 11 56
M  V30 61 1 11 57
M  V30 62 1 12 58
M  V30 63 1 13 59
M  V30 64 1 13 60
M  V30 65 1 17 61
M  V30 66 1 17 62
M  V30 67 1 19 63
M  V30 68 1 20 64
M  V30 69 1 23 65
M  V30 70 1 24 66
M  V30 71 1 25 67
M  V30 72 1 26 68
M  V30 73 1 29 69 CFG=3
M  V30 74 1 30 70
M  V30 75 1 30 71
M  V30 76 1 31 72
M  V30 77 1 31 73
M  V30 78 1 33 74
M  V30 79 1 34 75
M  V30 80 1 36 76
M  V30 81 1 37 77
M  V30 82 1 38 78
M  V30 83 1 39 79
M  V30 84 1 41 80
M  V30 END BOND
M  V30 END CTAB
M  END
