
     RDKit          3D

  0  0  0  0  0  0  0  0  0  0999 V3000
M  V30 BEGIN CTAB
M  V30 COUNTS 50 53 0 0 0
M  V30 BEGIN ATOM
M  V30 1 N 7.14759 2.68676 0.72245 0
M  V30 2 C 5.77116 2.46707 0.39993 0 CFG=2
M  V30 3 C 5.10755 1.48218 1.36594 0
M  V30 4 C 5.44963 0.366795 0.426357 0 CFG=2
M  V30 5 C 5.53898 1.42261 -0.694758 0
M  V30 6 C 4.37253 -0.590067 0.0987882 0
M  V30 7 C 3.05039 -0.263641 0.0339763 0
M  V30 8 C 2.06462 -1.18266 -0.28388 0
M  V30 9 N 0.694529 -0.761478 -0.320362 0
M  V30 10 C -0.288705 -1.77758 -0.660795 0
M  V30 11 C -1.63695 -1.16609 -0.514442 0
M  V30 12 C -1.90265 -0.197898 0.418576 0
M  V30 13 C -3.16495 0.35527 0.535719 0
M  V30 14 C -4.21683 -0.0293381 -0.266309 0
M  V30 15 C -3.93989 -1.00643 -1.20342 0
M  V30 16 C -2.6907 -1.56229 -1.32955 0
M  V30 17 N -5.52094 0.532342 -0.150344 0
M  V30 18 C -6.67468 -0.000860156 0.584785 0
M  V30 19 C -7.81679 0.523397 -0.295994 0
M  V30 20 C -7.3511 1.94564 -0.539883 0
M  V30 21 C -5.89681 1.75394 -0.773133 0
M  V30 22 O -5.14036 2.54509 -1.41252 0
M  V30 23 N 2.43766 -2.44407 -0.537244 0
M  V30 24 C 3.75444 -2.80404 -0.481189 0
M  V30 25 N 4.68594 -1.89145 -0.170258 0
M  V30 26 N 4.13703 -4.14519 -0.753634 0
M  V30 27 H 7.61764 3.19415 -0.029568 0
M  V30 28 H 7.65219 1.85727 1.06547 0
M  V30 29 H 5.22428 3.42046 0.259373 0
M  V30 30 H 4.03998 1.70089 1.5004 0
M  V30 31 H 5.66471 1.44891 2.32116 0
M  V30 32 H 6.42266 -0.144523 0.595602 0
M  V30 33 H 4.59339 1.59862 -1.23007 0
M  V30 34 H 6.39751 1.28076 -1.36431 0
M  V30 35 H 2.73319 0.751501 0.235409 0
M  V30 36 H 0.462884 0.223267 -0.116916 0
M  V30 37 H -0.0965653 -2.04275 -1.74507 0
M  V30 38 H -0.188733 -2.68384 -0.0406581 0
M  V30 39 H -1.11647 0.133992 1.075 0
M  V30 40 H -3.39041 1.13132 1.27685 0
M  V30 41 H -4.75236 -1.32897 -1.85078 0
M  V30 42 H -2.47198 -2.33421 -2.06664 0
M  V30 43 H -6.66135 -1.08846 0.641534 0
M  V30 44 H -6.72649 0.541591 1.5267 0
M  V30 45 H -7.78491 -0.0667921 -1.21565 0
M  V30 46 H -8.78053 0.474231 0.234915 0
M  V30 47 H -7.85327 2.4095 -1.41256 0
M  V30 48 H -7.48141 2.52565 0.390011 0
M  V30 49 H 3.57962 -4.92798 -0.306133 0
M  V30 50 H 4.94575 -4.33261 -1.3812 0
M  V30 END ATOM
M  V30 BEGIN BOND
M  V30 1 1 1 2
M  V30 2 1 2 3
M  V30 3 1 3 4
M  V30 4 1 4 5
M  V30 5 1 4 6
M  V30 6 2 6 7
M  V30 7 1 7 8
M  V30 8 1 8 9
M  V30 9 1 9 10
M  V30 10 1 10 11
M  V30 11 2 11 12
M  V30 12 1 12 13
M  V30 13 2 13 14
M  V30 14 1 14 15
M  V30 15 2 15 16
M  V30 16 1 14 17
M  V30 17 1 17 18
M  V30 18 1 18 19
M  V30 19 1 19 20
M  V30 20 1 20 21
M  V30 21 2 21 22
M  V30 22 2 8 23
M  V30 23 1 23 24
M  V30 24 2 24 25
M  V30 25 1 24 26
M  V30 26 1 5 2
M  V30 27 1 25 6
M  V30 28 1 16 11
M  V30 29 1 21 17
M  V30 30 1 1 27
M  V30 31 1 1 28
M  V30 32 1 2 29 CFG=3
M  V30 33 1 3 30
M  V30 34 1 3 31
M  V30 35 1 4 32 CFG=1
M  V30 36 1 5 33
M  V30 37 1 5 34
M  V30 38 1 7 35
M  V30 39 1 9 36
M  V30 40 1 10 37
M  V30 41 1 10 38
M  V30 42 1 12 39
M  V30 43 1 13 40
M  V30 44 1 15 41
M  V30 45 1 16 42
M  V30 46 1 18 43
M  V30 47 1 18 44
M  V30 48 1 19 45
M  V30 49 1 19 46
M  V30 50 1 20 47
M  V30 51 1 20 48
M  V30 52 1 26 49
M  V30 53 1 26 50
M  V30 END BOND
M  V30 END CTAB
M  END
