
     RDKit          3D

  0  0  0  0  0  0  0  0  0  0999 V3000
M  V30 BEGIN CTAB
M  V30 COUNTS 33 35 0 0 0
M  V30 BEGIN ATOM
M  V30 1 N 6.13483 0.708364 -0.17553 0
M  V30 2 C 4.74972 0.396781 -0.136404 0
M  V30 3 N 4.38233 -0.877526 0.0767467 0
M  V30 4 C 3.08278 -1.23513 0.124643 0
M  V30 5 C 2.14491 -0.22235 -0.0569315 0
M  V30 6 C 0.88751 -0.830323 0.0326234 0
M  V30 7 C -0.393055 -0.097659 -0.0967031 0
M  V30 8 N -1.55552 -0.929016 0.0179918 0
M  V30 9 C -2.84913 -0.350154 -0.0869281 0
M  V30 10 C -3.9813 -1.13485 0.0207777 0
M  V30 11 C -5.21842 -0.531574 -0.0872303 0
M  V30 12 C -5.35836 0.819741 -0.297699 0
M  V30 13 C -4.22616 1.60365 -0.405283 0
M  V30 14 C -2.9994 1.0048 -0.298083 0
M  V30 15 C 1.09733 -2.176 0.262335 0
M  V30 16 N 2.42876 -2.39567 0.313846 0
M  V30 17 C 2.51775 1.08201 -0.275359 0
M  V30 18 N 1.50209 2.05207 -0.455434 0
M  V30 19 N 3.82655 1.37174 -0.311566 0
M  V30 20 H 6.66546 0.854011 -1.07151 0
M  V30 21 H 6.65317 0.797222 0.739742 0
M  V30 22 H -0.40034 0.745065 0.631444 0
M  V30 23 H -0.405606 0.365528 -1.1048 0
M  V30 24 H -1.44498 -1.94543 0.17637 0
M  V30 25 H -3.88774 -2.20193 0.186786 0
M  V30 26 H -6.11684 -1.12895 -0.00567127 0
M  V30 27 H -6.31276 1.31951 -0.386331 0
M  V30 28 H -4.27677 2.66269 -0.569523 0
M  V30 29 H -2.11143 1.62003 -0.38252 0
M  V30 30 H 0.305586 -2.90296 0.376704 0
M  V30 31 H 2.92646 -3.30023 0.472183 0
M  V30 32 H 1.1762 2.59218 0.378274 0
M  V30 33 H 1.05636 2.26435 -1.36584 0
M  V30 END ATOM
M  V30 BEGIN BOND
M  V30 1 1 1 2
M  V30 2 2 2 3
M  V30 3 1 3 4
M  V30 4 2 4 5
M  V30 5 1 5 6
M  V30 6 1 6 7
M  V30 7 1 7 8
M  V30 8 1 8 9
M  V30 9 2 9 10
M  V30 10 1 10 11
M  V30 11 2 11 12
M  V30 12 1 12 13
M  V30 13 2 13 14
M  V30 14 2 6 15
M  V30 15 1 15 16
M  V30 16 1 5 17
M  V30 17 1 17 18
M  V30 18 2 17 19
M  V30 19 1 19 2
M  V30 20 1 16 4
M  V30 21 1 14 9
M  V30 22 1 1 20
M  V30 23 1 1 21
M  V30 24 1 7 22
M  V30 25 1 7 23
M  V30 26 1 8 24
M  V30 27 1 10 25
M  V30 28 1 11 26
M  V30 29 1 12 27
M  V30 30 1 13 28
M  V30 31 1 14 29
M  V30 32 1 15 30
M  V30 33 1 16 31
M  V30 34 1 18 32
M  V30 35 1 18 33
M  V30 END BOND
M  V30 END CTAB
M  END
