
     RDKit          3D

  0  0  0  0  0  0  0  0  0  0999 V3000
M  V30 BEGIN CTAB
M  V30 COUNTS 23 23 0 0 0
M  V30 BEGIN ATOM
M  V30 1 N -3.85819 1.31215 -0.430776 0
M  V30 2 C -2.91135 0.288545 -0.175946 0
M  V30 3 N -1.65549 0.563813 -0.269173 0
M  V30 4 C -0.623097 -0.428815 -0.0239259 0
M  V30 5 C 0.0990656 -0.00515482 1.18666 0
M  V30 6 C 1.37148 0.262079 1.17159 0
M  V30 7 C 2.18522 0.164171 -0.0518597 0
M  V30 8 C 3.63705 0.649324 0.0911162 0
M  V30 9 C 3.34982 -0.791833 -0.113882 0
M  V30 10 N -3.27887 -1.02194 0.176131 0
M  V30 11 H -3.6439 2.15194 -1.00779 0
M  V30 12 H -4.83723 1.26748 -0.0408465 0
M  V30 13 H -1.12416 -1.42305 0.202421 0
M  V30 14 H 0.0834259 -0.539373 -0.85913 0
M  V30 15 H -0.514511 0.0686021 2.10207 0
M  V30 16 H 1.83599 0.572036 2.12548 0
M  V30 17 H 1.761 0.437945 -1.04808 0
M  V30 18 H 4.0564 1.22172 -0.738881 0
M  V30 19 H 3.91483 1.01886 1.09019 0
M  V30 20 H 3.37666 -1.51751 0.71351 0
M  V30 21 H 3.60119 -1.25934 -1.09817 0
M  V30 22 H -2.99168 -1.40684 1.08562 0
M  V30 23 H -3.83365 -1.58479 -0.482418 0
M  V30 END ATOM
M  V30 BEGIN BOND
M  V30 1 1 1 2
M  V30 2 2 2 3 CFG=2
M  V30 3 1 3 4
M  V30 4 1 4 5
M  V30 5 2 5 6 CFG=2
M  V30 6 1 6 7
M  V30 7 1 7 8
M  V30 8 1 8 9
M  V30 9 1 2 10
M  V30 10 1 9 7
M  V30 11 1 1 11
M  V30 12 1 1 12
M  V30 13 1 4 13
M  V30 14 1 4 14
M  V30 15 1 5 15
M  V30 16 1 6 16
M  V30 17 1 7 17
M  V30 18 1 8 18
M  V30 19 1 8 19
M  V30 20 1 9 20
M  V30 21 1 9 21
M  V30 22 1 10 22
M  V30 23 1 10 23
M  V30 END BOND
M  V30 END CTAB
M  END
