
     RDKit          3D

  0  0  0  0  0  0  0  0  0  0999 V3000
M  V30 BEGIN CTAB
M  V30 COUNTS 42 43 0 0 0
M  V30 BEGIN ATOM
M  V30 1 C -5.15697 0.563582 -0.813391 0
M  V30 2 O -4.74755 -0.613226 -0.257878 0
M  V30 3 C -3.54935 -0.616831 0.410942 0
M  V30 4 C -2.42744 -0.255511 -0.489336 0
M  V30 5 N -1.13979 -0.253115 0.138264 0
M  V30 6 C 0.0117479 0.0732495 -0.606866 0
M  V30 7 C 1.28085 0.09362 -0.0603546 0
M  V30 8 C 2.35023 0.422305 -0.855624 0
M  V30 9 N 2.11782 0.712791 -2.14173 0
M  V30 10 C 0.890044 0.698792 -2.69346 0
M  V30 11 N -0.1448 0.378699 -1.91572 0
M  V30 12 N 0.673936 1.01135 -4.06055 0
M  V30 13 C 3.74611 0.471568 -0.362621 0 CFG=2
M  V30 14 C 4.10577 -0.8284 0.368392 0
M  V30 15 C 4.88891 0.0529561 1.35026 0 CFG=1
M  V30 16 C 3.91704 1.1772 0.966413 0
M  V30 17 N 4.69566 -0.305304 2.72328 0
M  V30 18 C -3.36423 -2.05895 0.915756 0
M  V30 19 C -3.68523 0.295479 1.6071 0
M  V30 20 H -4.43681 0.903376 -1.56924 0
M  V30 21 H -5.38841 1.35354 -0.0618648 0
M  V30 22 H -6.11524 0.395116 -1.37311 0
M  V30 23 H -2.55865 0.679053 -1.07379 0
M  V30 24 H -2.38205 -1.06447 -1.27917 0
M  V30 25 H -1.04561 -0.489127 1.13582 0
M  V30 26 H 1.39916 -0.146928 0.967898 0
M  V30 27 H -0.13295 1.60228 -4.32155 0
M  V30 28 H 1.3276 0.64148 -4.76429 0
M  V30 29 H 4.47955 0.751982 -1.13046 0
M  V30 30 H 3.24213 -1.31035 0.846898 0
M  V30 31 H 4.78011 -1.49367 -0.210222 0
M  V30 32 H 5.91284 0.21854 1.00467 0
M  V30 33 H 4.50003 2.10801 0.819029 0
M  V30 34 H 3.02284 1.24016 1.58445 0
M  V30 35 H 5.19066 -1.19614 2.9762 0
M  V30 36 H 4.8846 0.4652 3.37301 0
M  V30 37 H -4.35167 -2.54154 1.05264 0
M  V30 38 H -2.82458 -2.6452 0.148511 0
M  V30 39 H -2.77598 -2.0568 1.86184 0
M  V30 40 H -4.74506 0.536998 1.83068 0
M  V30 41 H -3.1604 1.25915 1.46127 0
M  V30 42 H -3.28486 -0.230942 2.49791 0
M  V30 END ATOM
M  V30 BEGIN BOND
M  V30 1 1 1 2
M  V30 2 1 2 3
M  V30 3 1 3 4
M  V30 4 1 4 5
M  V30 5 1 5 6
M  V30 6 2 6 7
M  V30 7 1 7 8
M  V30 8 2 8 9
M  V30 9 1 9 10
M  V30 10 2 10 11
M  V30 11 1 10 12
M  V30 12 1 8 13
M  V30 13 1 13 14
M  V30 14 1 14 15
M  V30 15 1 15 16
M  V30 16 1 15 17
M  V30 17 1 3 18
M  V30 18 1 3 19
M  V30 19 1 11 6
M  V30 20 1 16 13
M  V30 21 1 1 20
M  V30 22 1 1 21
M  V30 23 1 1 22
M  V30 24 1 4 23
M  V30 25 1 4 24
M  V30 26 1 5 25
M  V30 27 1 7 26
M  V30 28 1 12 27
M  V30 29 1 12 28
M  V30 30 1 13 29 CFG=3
M  V30 31 1 14 30
M  V30 32 1 14 31
M  V30 33 1 15 32 CFG=3
M  V30 34 1 16 33
M  V30 35 1 16 34
M  V30 36 1 17 35
M  V30 37 1 17 36
M  V30 38 1 18 37
M  V30 39 1 18 38
M  V30 40 1 18 39
M  V30 41 1 19 40
M  V30 42 1 19 41
M  V30 43 1 19 42
M  V30 END BOND
M  V30 END CTAB
M  END
