
     RDKit          3D

  0  0  0  0  0  0  0  0  0  0999 V3000
M  V30 BEGIN CTAB
M  V30 COUNTS 30 30 0 0 0
M  V30 BEGIN ATOM
M  V30 1 C 4.11645 -2.08118 -0.262949 0
M  V30 2 N 2.78209 -1.92089 -0.761407 0
M  V30 3 C 1.97728 -0.833548 -0.341331 0
M  V30 4 N 0.726489 -0.633119 -0.772072 0
M  V30 5 C -0.0388036 0.396946 -0.375478 0
M  V30 6 N 0.497206 1.26212 0.500991 0
M  V30 7 C 1.75648 1.11362 0.973424 0
M  V30 8 N 2.4845 0.0681817 0.548471 0
M  V30 9 N 2.31196 2.03422 1.89924 0
M  V30 10 C -1.41435 0.541607 -0.904407 0 CFG=1
M  V30 11 C -2.45546 0.279126 0.180255 0
M  V30 12 C -2.34242 -1.1042 0.747225 0
M  V30 13 C -3.83975 0.432974 -0.401307 0
M  V30 14 N -1.57153 1.96047 -1.26267 0
M  V30 15 H 4.12944 -1.98625 0.834568 0
M  V30 16 H 4.51792 -3.0738 -0.512117 0
M  V30 17 H 4.79053 -1.3165 -0.699557 0
M  V30 18 H 2.4105 -2.60684 -1.43171 0
M  V30 19 H 2.82138 2.89594 1.59391 0
M  V30 20 H 2.21389 1.85354 2.93314 0
M  V30 21 H -1.56744 -0.0640996 -1.79772 0
M  V30 22 H -2.28534 1.03896 0.982495 0
M  V30 23 H -2.76569 -1.06815 1.78813 0
M  V30 24 H -1.27954 -1.42673 0.787895 0
M  V30 25 H -2.98047 -1.82834 0.200347 0
M  V30 26 H -4.41591 -0.524249 -0.363379 0
M  V30 27 H -3.82489 0.738034 -1.45926 0
M  V30 28 H -4.4371 1.21956 0.132289 0
M  V30 29 H -1.2341 2.14054 -2.23026 0
M  V30 30 H -1.08334 2.49207 -0.526759 0
M  V30 END ATOM
M  V30 BEGIN BOND
M  V30 1 1 1 2
M  V30 2 1 2 3
M  V30 3 2 3 4
M  V30 4 1 4 5
M  V30 5 2 5 6
M  V30 6 1 6 7
M  V30 7 2 7 8
M  V30 8 1 7 9
M  V30 9 1 5 10
M  V30 10 1 10 11
M  V30 11 1 11 12
M  V30 12 1 11 13
M  V30 13 1 10 14
M  V30 14 1 8 3
M  V30 15 1 1 15
M  V30 16 1 1 16
M  V30 17 1 1 17
M  V30 18 1 2 18
M  V30 19 1 9 19
M  V30 20 1 9 20
M  V30 21 1 10 21 CFG=3
M  V30 22 1 11 22
M  V30 23 1 12 23
M  V30 24 1 12 24
M  V30 25 1 12 25
M  V30 26 1 13 26
M  V30 27 1 13 27
M  V30 28 1 13 28
M  V30 29 1 14 29
M  V30 30 1 14 30
M  V30 END BOND
M  V30 END CTAB
M  END
