
     RDKit          3D

  0  0  0  0  0  0  0  0  0  0999 V3000
M  V30 BEGIN CTAB
M  V30 COUNTS 22 21 0 0 0
M  V30 BEGIN ATOM
M  V30 1 N 3.34097 0.281775 -0.962402 0
M  V30 2 C 2.33854 -0.277214 -0.03355 0
M  V30 3 C 1.45137 0.838492 0.299635 0
M  V30 4 C 0.172081 0.826982 0.0523449 0
M  V30 5 C -0.494834 -0.292295 -0.576463 0
M  V30 6 C -1.55486 -0.783707 0.424743 0
M  V30 7 N -0.944632 -1.19621 1.6599 0
M  V30 8 C -2.49926 0.324266 0.689256 0
M  V30 9 O -3.21604 0.896418 -0.356028 0
M  V30 10 O -2.6393 0.734092 1.86672 0
M  V30 11 H 4.29646 0.217479 -0.617225 0
M  V30 12 H 3.04257 1.16831 -1.37464 0
M  V30 13 H 1.9341 -1.12999 -0.545403 0
M  V30 14 H 2.95359 -0.602412 0.868199 0
M  V30 15 H 1.91721 1.7306 0.788333 0
M  V30 16 H -0.472499 1.68877 0.317272 0
M  V30 17 H -1.06092 0.0716146 -1.48861 0
M  V30 18 H 0.0553022 -1.15729 -0.886916 0
M  V30 19 H -2.08107 -1.66406 0.00632111 0
M  V30 20 H -0.821994 -0.333348 2.2607 0
M  V30 21 H -1.61977 -1.81092 2.15309 0
M  V30 22 H -4.09703 0.468646 -0.61062 0
M  V30 END ATOM
M  V30 BEGIN BOND
M  V30 1 1 1 2
M  V30 2 1 2 3
M  V30 3 2 3 4
M  V30 4 1 4 5
M  V30 5 1 5 6
M  V30 6 1 6 7
M  V30 7 1 6 8
M  V30 8 1 8 9
M  V30 9 2 8 10
M  V30 10 1 1 11
M  V30 11 1 1 12
M  V30 12 1 2 13
M  V30 13 1 2 14
M  V30 14 1 3 15
M  V30 15 1 4 16
M  V30 16 1 5 17
M  V30 17 1 5 18
M  V30 18 1 6 19
M  V30 19 1 7 20
M  V30 20 1 7 21
M  V30 21 1 9 22
M  V30 END BOND
M  V30 END CTAB
M  END
