
     RDKit          3D

  0  0  0  0  0  0  0  0  0  0999 V3000
M  V30 BEGIN CTAB
M  V30 COUNTS 22 22 0 0 0
M  V30 BEGIN ATOM
M  V30 1 N 2.27888 0.102488 0.552534 0
M  V30 2 C 1.80132 -0.642774 -0.582076 0
M  V30 3 C 0.569272 0.000408086 -1.18035 0
M  V30 4 C -0.549547 0.0836762 -0.211847 0
M  V30 5 C -1.3511 -0.96631 0.180524 0
M  V30 6 N -1.26502 -2.33274 -0.262121 0
M  V30 7 C -2.26225 -0.456108 1.08793 0
M  V30 8 N -1.98753 0.834576 1.20558 0
M  V30 9 N -0.973658 1.17476 0.441702 0
M  V30 10 C -0.375679 2.51483 0.298835 0
M  V30 11 H 3.31015 -0.000852165 0.705587 0
M  V30 12 H 1.77235 -0.152008 1.42512 0
M  V30 13 H 1.60907 -1.7108 -0.343843 0
M  V30 14 H 2.60445 -0.619448 -1.34905 0
M  V30 15 H 0.233627 -0.566576 -2.0629 0
M  V30 16 H 0.829369 1.0287 -1.50506 0
M  V30 17 H -1.06676 -2.61236 -1.24065 0
M  V30 18 H -1.40899 -3.08458 0.434266 0
M  V30 19 H -3.03795 -1.06564 1.57756 0
M  V30 20 H -0.0562015 2.69715 -0.746344 0
M  V30 21 H 0.487193 2.52715 0.992378 0
M  V30 22 H -1.16099 3.24646 0.582225 0
M  V30 END ATOM
M  V30 BEGIN BOND
M  V30 1 1 1 2
M  V30 2 1 2 3
M  V30 3 1 3 4
M  V30 4 2 4 5
M  V30 5 1 5 6
M  V30 6 1 5 7
M  V30 7 2 7 8
M  V30 8 1 8 9
M  V30 9 1 9 10
M  V30 10 1 9 4
M  V30 11 1 1 11
M  V30 12 1 1 12
M  V30 13 1 2 13
M  V30 14 1 2 14
M  V30 15 1 3 15
M  V30 16 1 3 16
M  V30 17 1 6 17
M  V30 18 1 6 18
M  V30 19 1 7 19
M  V30 20 1 10 20
M  V30 21 1 10 21
M  V30 22 1 10 22
M  V30 END BOND
M  V30 END CTAB
M  END
