
     RDKit          3D

  0  0  0  0  0  0  0  0  0  0999 V3000
M  V30 BEGIN CTAB
M  V30 COUNTS 57 60 0 0 0
M  V30 BEGIN ATOM
M  V30 1 N -6.53679 -2.17959 -3.69616 0
M  V30 2 C -6.05452 -1.70049 -2.45523 0
M  V30 3 N -4.71738 -1.57126 -2.34869 0
M  V30 4 C -4.17146 -1.10878 -1.17968 0
M  V30 5 C -2.71354 -0.969203 -0.98416 0
M  V30 6 O -2.09411 -1.32431 -2.23507 0
M  V30 7 C -0.685561 -1.30629 -2.31614 0
M  V30 8 C -0.0129518 -1.61375 -3.4719 0
M  V30 9 C 1.35302 -1.60631 -3.58413 0
M  V30 10 C 2.07565 -1.26043 -2.42709 0
M  V30 11 C 1.46846 -0.942914 -1.24202 0
M  V30 12 N 2.1595 -0.583302 -0.0595081 0
M  V30 13 C 3.43775 0.0173163 -0.00780671 0
M  V30 14 O 4.03079 0.284883 -1.07491 0
M  V30 15 N 4.03826 0.310468 1.22393 0
M  V30 16 C 5.2934 0.919383 1.37114 0
M  V30 17 C 5.90828 1.75163 0.465967 0
M  V30 18 C 7.1687 2.31191 0.643635 0
M  V30 19 C 7.83665 2.00923 1.8025 0
M  V30 20 C 7.28266 1.18498 2.75135 0
M  V30 21 C 6.04358 0.655707 2.53837 0
M  V30 22 S 7.86024 3.38174 -0.575708 0
M  V30 23 F 7.49037 4.9832 -0.256268 0
M  V30 24 O 7.19944 3.01434 -1.88545 0
M  V30 25 O 9.31602 3.12732 -0.712873 0
M  V30 26 C 0.0611363 -0.974206 -1.21385 0
M  V30 27 C -5.00849 -0.785737 -0.141251 0
M  V30 28 C -6.37007 -0.920121 -0.255142 0
M  V30 29 N -7.21842 -0.583812 0.826262 0
M  V30 30 N -6.85918 -1.38336 -1.43562 0
M  V30 31 C -4.42617 -0.252845 1.10572 0
M  V30 32 C -4.00399 1.07451 1.14625 0
M  V30 33 C -3.45974 1.61055 2.29046 0
M  V30 34 Cl -2.9049 3.2775 2.38912 0
M  V30 35 C -3.31974 0.837738 3.43293 0
M  V30 36 Cl -2.63061 1.50869 4.9174 0
M  V30 37 C -3.73455 -0.470993 3.39786 0
M  V30 38 C -4.27983 -1.00207 2.2448 0
M  V30 39 H -6.73812 -3.18064 -3.82458 0
M  V30 40 H -6.68517 -1.51832 -4.47527 0
M  V30 41 H -2.43067 0.0874997 -0.804381 0
M  V30 42 H -2.29905 -1.66512 -0.235918 0
M  V30 43 H -0.593983 -1.88198 -4.35979 0
M  V30 44 H 1.88704 -1.84867 -4.49606 0
M  V30 45 H 3.14605 -1.27833 -2.54093 0
M  V30 46 H 1.67465 -0.784128 0.853348 0
M  V30 47 H 3.51684 0.0592133 2.10788 0
M  V30 48 H 5.40776 2.02433 -0.443919 0
M  V30 49 H 8.82635 2.44742 1.94168 0
M  V30 50 H 7.80167 0.944342 3.66164 0
M  V30 51 H 5.55128 -0.00942874 3.26022 0
M  V30 52 H -0.44669 -0.7275 -0.289209 0
M  V30 53 H -7.12656 -1.04318 1.77858 0
M  V30 54 H -7.9702 0.128043 0.735069 0
M  V30 55 H -4.0974 1.69978 0.284421 0
M  V30 56 H -3.63834 -1.11707 4.29125 0
M  V30 57 H -4.60734 -2.05756 2.24143 0
M  V30 END ATOM
M  V30 BEGIN BOND
M  V30 1 1 1 2
M  V30 2 2 2 3
M  V30 3 1 3 4
M  V30 4 1 4 5
M  V30 5 1 5 6
M  V30 6 1 6 7
M  V30 7 2 7 8
M  V30 8 1 8 9
M  V30 9 2 9 10
M  V30 10 1 10 11
M  V30 11 1 11 12
M  V30 12 1 12 13
M  V30 13 2 13 14
M  V30 14 1 13 15
M  V30 15 1 15 16
M  V30 16 2 16 17
M  V30 17 1 17 18
M  V30 18 2 18 19
M  V30 19 1 19 20
M  V30 20 2 20 21
M  V30 21 1 18 22
M  V30 22 1 22 23
M  V30 23 2 22 24
M  V30 24 2 22 25
M  V30 25 2 11 26
M  V30 26 2 4 27
M  V30 27 1 27 28
M  V30 28 1 28 29
M  V30 29 2 28 30
M  V30 30 1 27 31
M  V30 31 2 31 32
M  V30 32 1 32 33
M  V30 33 1 33 34
M  V30 34 2 33 35
M  V30 35 1 35 36
M  V30 36 1 35 37
M  V30 37 2 37 38
M  V30 38 1 30 2
M  V30 39 1 38 31
M  V30 40 1 26 7
M  V30 41 1 21 16
M  V30 42 1 1 39
M  V30 43 1 1 40
M  V30 44 1 5 41
M  V30 45 1 5 42
M  V30 46 1 8 43
M  V30 47 1 9 44
M  V30 48 1 10 45
M  V30 49 1 12 46
M  V30 50 1 15 47
M  V30 51 1 17 48
M  V30 52 1 19 49
M  V30 53 1 20 50
M  V30 54 1 21 51
M  V30 55 1 26 52
M  V30 56 1 29 53
M  V30 57 1 29 54
M  V30 58 1 32 55
M  V30 59 1 37 56
M  V30 60 1 38 57
M  V30 END BOND
M  V30 END CTAB
M  END
