
     RDKit          3D

  0  0  0  0  0  0  0  0  0  0999 V3000
M  V30 BEGIN CTAB
M  V30 COUNTS 28 29 0 0 0
M  V30 BEGIN ATOM
M  V30 1 C 4.59068 -0.244302 -0.467286 0
M  V30 2 C 3.40998 -0.00864313 0.415734 0
M  V30 3 C 2.80804 1.38364 0.285661 0
M  V30 4 C 2.03451 0.111895 -0.121465 0
M  V30 5 N 0.939027 -0.255102 0.750257 0
M  V30 6 C -0.423347 -0.177587 0.357871 0
M  V30 7 C -0.787527 0.263399 -0.895565 0
M  V30 8 C -2.11403 0.343848 -1.28912 0
M  V30 9 C -3.10376 -0.0203195 -0.422857 0
M  V30 10 C -2.77165 -0.467195 0.842543 0
M  V30 11 C -1.44143 -0.539123 1.21326 0
M  V30 12 F -1.13566 -0.980506 2.46021 0
M  V30 13 N -3.81291 -0.843869 1.73633 0
M  V30 14 N -4.46092 0.058868 -0.817071 0
M  V30 15 H 4.54295 -1.24155 -0.995286 0
M  V30 16 H 5.50179 -0.30441 0.171194 0
M  V30 17 H 4.77694 0.585472 -1.18239 0
M  V30 18 H 3.50124 -0.41872 1.44244 0
M  V30 19 H 2.49951 1.85391 1.25181 0
M  V30 20 H 3.13979 2.04637 -0.520565 0
M  V30 21 H 1.84325 0.00364167 -1.21769 0
M  V30 22 H 1.1614 -0.595937 1.72186 0
M  V30 23 H -0.0614018 0.56937 -1.63581 0
M  V30 24 H -2.37393 0.697304 -2.28958 0
M  V30 25 H -4.40998 -0.141717 2.18119 0
M  V30 26 H -3.97819 -1.85212 1.94808 0
M  V30 27 H -4.68962 0.022525 -1.82702 0
M  V30 28 H -5.18474 0.150864 -0.0823226 0
M  V30 END ATOM
M  V30 BEGIN BOND
M  V30 1 1 1 2
M  V30 2 1 2 3
M  V30 3 1 3 4
M  V30 4 1 4 5
M  V30 5 1 5 6
M  V30 6 2 6 7
M  V30 7 1 7 8
M  V30 8 2 8 9
M  V30 9 1 9 10
M  V30 10 2 10 11
M  V30 11 1 11 12
M  V30 12 1 10 13
M  V30 13 1 9 14
M  V30 14 1 4 2
M  V30 15 1 11 6
M  V30 16 1 1 15
M  V30 17 1 1 16
M  V30 18 1 1 17
M  V30 19 1 2 18
M  V30 20 1 3 19
M  V30 21 1 3 20
M  V30 22 1 4 21
M  V30 23 1 5 22
M  V30 24 1 7 23
M  V30 25 1 8 24
M  V30 26 1 13 25
M  V30 27 1 13 26
M  V30 28 1 14 27
M  V30 29 1 14 28
M  V30 END BOND
M  V30 END CTAB
M  END
