
     RDKit          3D

  0  0  0  0  0  0  0  0  0  0999 V3000
M  V30 BEGIN CTAB
M  V30 COUNTS 63 65 0 0 0
M  V30 BEGIN ATOM
M  V30 1 C 4.54106 -3.88389 -1.47918 0
M  V30 2 C 3.2064 -3.13965 -1.45968 0
M  V30 3 C 3.11997 -2.15115 -2.58988 0
M  V30 4 C 1.84724 -1.38826 -2.6411 0
M  V30 5 C 1.61498 -0.565084 -1.35432 0
M  V30 6 C 0.371895 0.18418 -1.40357 0
M  V30 7 C 0.0192173 0.922516 -0.140988 0
M  V30 8 C -0.151935 0.102706 1.05221 0
M  V30 9 C -0.998092 -0.996696 1.37026 0
M  V30 10 C -2.48209 -0.931992 1.38012 0
M  V30 11 C -3.02855 -2.29032 1.87606 0
M  V30 12 C -4.53291 -2.26533 1.90077 0
M  V30 13 C -4.99245 -3.62164 2.39388 0
M  V30 14 C 1.23133 1.7859 0.194478 0
M  V30 15 C 2.51089 1.42654 0.655586 0
M  V30 16 C 3.40974 2.43772 0.919955 0
M  V30 17 N 4.70328 2.12995 1.38236 0
M  V30 18 C 3.06926 3.75542 0.740734 0
M  V30 19 C 1.81479 4.10591 0.290744 0
M  V30 20 C 0.90919 3.08031 0.0250335 0
M  V30 21 C -0.468374 3.1821 -0.40635 0
M  V30 22 C -1.26389 4.28958 -0.73649 0
M  V30 23 C -2.56527 4.18152 -1.15925 0
M  V30 24 C -3.11943 2.92847 -1.26637 0
M  V30 25 N -4.47472 2.74596 -1.70315 0
M  V30 26 C -2.33346 1.84001 -0.940695 0
M  V30 27 C -1.00437 1.92588 -0.505151 0
M  V30 28 H 4.40419 -4.8243 -2.01653 0
M  V30 29 H 5.33993 -3.2396 -1.93282 0
M  V30 30 H 4.88916 -4.12028 -0.457892 0
M  V30 31 H 3.17785 -2.60378 -0.488181 0
M  V30 32 H 2.41765 -3.88676 -1.45892 0
M  V30 33 H 4.01035 -1.49074 -2.55732 0
M  V30 34 H 3.20797 -2.72977 -3.53099 0
M  V30 35 H 1.87742 -0.724934 -3.52955 0
M  V30 36 H 0.95415 -2.03397 -2.73665 0
M  V30 37 H 1.68371 -1.23399 -0.517324 0
M  V30 38 H 2.48824 0.168989 -1.45534 0
M  V30 39 H 0.508516 1.02182 -2.16891 0
M  V30 40 H -0.506659 -0.360162 -1.82914 0
M  V30 41 H 0.938356 -0.166578 1.41234 0
M  V30 42 H -0.345379 0.896568 1.89819 0
M  V30 43 H -0.737152 -1.97675 0.839041 0
M  V30 44 H -0.739502 -1.32889 2.45665 0
M  V30 45 H -2.88007 -0.845633 0.322757 0
M  V30 46 H -2.93755 -0.120985 1.96003 0
M  V30 47 H -2.63917 -3.04186 1.16868 0
M  V30 48 H -2.64357 -2.40508 2.89941 0
M  V30 49 H -4.92416 -1.52133 2.62353 0
M  V30 50 H -4.96963 -2.00917 0.918121 0
M  V30 51 H -5.07534 -3.67241 3.49577 0
M  V30 52 H -4.25989 -4.36834 2.02357 0
M  V30 53 H -5.96711 -3.85249 1.89442 0
M  V30 54 H 2.76994 0.396748 0.815324 0
M  V30 55 H 5.17011 1.20559 1.2179 0
M  V30 56 H 5.25559 2.82683 1.91724 0
M  V30 57 H 3.76407 4.57251 0.942738 0
M  V30 58 H 1.5069 5.12637 0.136928 0
M  V30 59 H -0.788309 5.25943 -0.638857 0
M  V30 60 H -3.15444 5.04734 -1.4059 0
M  V30 61 H -5.21758 2.80163 -0.985811 0
M  V30 62 H -4.74415 2.56409 -2.68455 0
M  V30 63 H -2.78814 0.879232 -1.07053 0
M  V30 END ATOM
M  V30 BEGIN BOND
M  V30 1 1 1 2
M  V30 2 1 2 3
M  V30 3 1 3 4
M  V30 4 1 4 5
M  V30 5 1 5 6
M  V30 6 1 6 7
M  V30 7 1 7 8
M  V30 8 1 8 9
M  V30 9 1 9 10
M  V30 10 1 10 11
M  V30 11 1 11 12
M  V30 12 1 12 13
M  V30 13 1 7 14
M  V30 14 2 14 15
M  V30 15 1 15 16
M  V30 16 1 16 17
M  V30 17 2 16 18
M  V30 18 1 18 19
M  V30 19 2 19 20
M  V30 20 1 20 21
M  V30 21 2 21 22
M  V30 22 1 22 23
M  V30 23 2 23 24
M  V30 24 1 24 25
M  V30 25 1 24 26
M  V30 26 2 26 27
M  V30 27 1 27 7
M  V30 28 1 20 14
M  V30 29 1 27 21
M  V30 30 1 1 28
M  V30 31 1 1 29
M  V30 32 1 1 30
M  V30 33 1 2 31
M  V30 34 1 2 32
M  V30 35 1 3 33
M  V30 36 1 3 34
M  V30 37 1 4 35
M  V30 38 1 4 36
M  V30 39 1 5 37
M  V30 40 1 5 38
M  V30 41 1 6 39
M  V30 42 1 6 40
M  V30 43 1 8 41
M  V30 44 1 8 42
M  V30 45 1 9 43
M  V30 46 1 9 44
M  V30 47 1 10 45
M  V30 48 1 10 46
M  V30 49 1 11 47
M  V30 50 1 11 48
M  V30 51 1 12 49
M  V30 52 1 12 50
M  V30 53 1 13 51
M  V30 54 1 13 52
M  V30 55 1 13 53
M  V30 56 1 15 54
M  V30 57 1 17 55
M  V30 58 1 17 56
M  V30 59 1 18 57
M  V30 60 1 19 58
M  V30 61 1 22 59
M  V30 62 1 23 60
M  V30 63 1 25 61
M  V30 64 1 25 62
M  V30 65 1 26 63
M  V30 END BOND
M  V30 END CTAB
M  END
