
     RDKit          3D

  0  0  0  0  0  0  0  0  0  0999 V3000
M  V30 BEGIN CTAB
M  V30 COUNTS 28 28 0 0 0
M  V30 BEGIN ATOM
M  V30 1 C 4.18035 -0.546298 -0.631845 0
M  V30 2 C 3.78029 0.876031 -0.662321 0
M  V30 3 C 2.7521 1.35329 0.299912 0
M  V30 4 O 1.48922 0.839067 0.269016 0
M  V30 5 C 0.921406 -0.346482 0.512253 0
M  V30 6 O 1.62571 -1.30651 0.879662 0
M  V30 7 C -0.540606 -0.495382 0.339196 0
M  V30 8 C -1.17331 -1.68904 0.575143 0
M  V30 9 C -2.53744 -1.81182 0.409286 0
M  V30 10 C -3.32017 -0.752228 0.00307852 0
M  V30 11 C -2.68191 0.448664 -0.234051 0
M  V30 12 C -1.32198 0.563122 -0.0665165 0
M  V30 13 N -3.38437 1.59754 -0.653095 0
M  V30 14 N -4.70188 -0.813299 -0.18232 0
M  V30 15 H 5.20575 -0.675869 -1.13995 0
M  V30 16 H 3.54962 -1.25364 -1.17119 0
M  V30 17 H 4.3672 -0.927504 0.399045 0
M  V30 18 H 3.42999 1.08228 -1.72276 0
M  V30 19 H 4.70378 1.52452 -0.499649 0
M  V30 20 H 2.62937 2.48798 0.201662 0
M  V30 21 H 3.21097 1.25901 1.34654 0
M  V30 22 H -0.581082 -2.53386 0.894345 0
M  V30 23 H -3.07014 -2.7538 0.590604 0
M  V30 24 H -0.791333 1.50668 -0.248565 0
M  V30 25 H -3.42641 1.8529 -1.65076 0
M  V30 26 H -3.85882 2.18471 0.0478953 0
M  V30 27 H -5.10949 -1.06212 -1.09797 0
M  V30 28 H -5.34681 -0.607949 0.603461 0
M  V30 END ATOM
M  V30 BEGIN BOND
M  V30 1 1 1 2
M  V30 2 1 2 3
M  V30 3 1 3 4
M  V30 4 1 4 5
M  V30 5 2 5 6
M  V30 6 1 5 7
M  V30 7 2 7 8
M  V30 8 1 8 9
M  V30 9 2 9 10
M  V30 10 1 10 11
M  V30 11 2 11 12
M  V30 12 1 11 13
M  V30 13 1 10 14
M  V30 14 1 12 7
M  V30 15 1 1 15
M  V30 16 1 1 16
M  V30 17 1 1 17
M  V30 18 1 2 18
M  V30 19 1 2 19
M  V30 20 1 3 20
M  V30 21 1 3 21
M  V30 22 1 8 22
M  V30 23 1 9 23
M  V30 24 1 12 24
M  V30 25 1 13 25
M  V30 26 1 13 26
M  V30 27 1 14 27
M  V30 28 1 14 28
M  V30 END BOND
M  V30 END CTAB
M  END
