
     RDKit          3D

  0  0  0  0  0  0  0  0  0  0999 V3000
M  V30 BEGIN CTAB
M  V30 COUNTS 21 23 0 0 0
M  V30 BEGIN ATOM
M  V30 1 N -4.81036 0.841713 -0.270483 0
M  V30 2 C -3.45546 0.382628 -0.137095 0
M  V30 3 N -2.36643 1.11035 -0.10971 0
M  V30 4 C -1.19145 0.525079 0.0195914 0
M  V30 5 C -1.21676 -0.848474 0.117714 0
M  V30 6 S -2.87262 -1.21398 0.0221392 0
M  V30 7 C -0.0225759 -1.56448 0.257965 0
M  V30 8 C -0.0830079 -2.95189 0.354521 0
M  V30 9 N -0.134871 -4.11011 0.454333 0
M  V30 10 C 1.15907 -0.877215 0.29513 0
M  V30 11 S 2.77074 -1.33529 0.447414 0
M  V30 12 C 3.48145 0.236821 0.385416 0
M  V30 13 N 4.86685 0.608503 0.460569 0
M  V30 14 N 2.43376 1.01238 0.251634 0
M  V30 15 C 1.22212 0.490255 0.200229 0
M  V30 16 C 0.0338854 1.21628 0.059689 0
M  V30 17 Cl 0.0835495 2.98568 -0.0654521 0
M  V30 18 H -5.48414 0.756424 0.512572 0
M  V30 19 H -5.11569 1.26512 -1.16723 0
M  V30 20 H 5.36504 0.953823 -0.378594 0
M  V30 21 H 5.3369 0.516388 1.37908 0
M  V30 END ATOM
M  V30 BEGIN BOND
M  V30 1 1 1 2
M  V30 2 2 2 3
M  V30 3 1 3 4
M  V30 4 2 4 5
M  V30 5 1 5 6
M  V30 6 1 5 7
M  V30 7 1 7 8
M  V30 8 3 8 9
M  V30 9 2 7 10
M  V30 10 1 10 11
M  V30 11 1 11 12
M  V30 12 1 12 13
M  V30 13 2 12 14
M  V30 14 1 14 15
M  V30 15 2 15 16
M  V30 16 1 16 17
M  V30 17 1 6 2
M  V30 18 1 15 10
M  V30 19 1 16 4
M  V30 20 1 1 18
M  V30 21 1 1 19
M  V30 22 1 13 20
M  V30 23 1 13 21
M  V30 END BOND
M  V30 END CTAB
M  END
