
     RDKit          3D

  0  0  0  0  0  0  0  0  0  0999 V3000
M  V30 BEGIN CTAB
M  V30 COUNTS 58 62 0 0 0
M  V30 BEGIN ATOM
M  V30 1 N -3.13778 0.631064 -1.89597 0
M  V30 2 C -2.13773 0.307874 -0.833275 0
M  V30 3 C -0.818903 0.353754 -1.50375 0
M  V30 4 N 0.34168 0.0993483 -0.737313 0
M  V30 5 C 1.5427 0.143685 -1.55108 0
M  V30 6 C 1.52105 -0.967245 -2.56403 0
M  V30 7 C 1.44734 -2.27047 -1.75738 0
M  V30 8 C 2.84199 -2.50066 -1.19945 0
M  V30 9 C 3.3735 -1.25761 -0.56773 0
M  V30 10 C 2.76339 -0.0343163 -0.729955 0
M  V30 11 C 3.30853 1.06852 -0.114088 0
M  V30 12 C 4.46611 0.916646 0.658584 0
M  V30 13 C 5.07667 -0.320114 0.818115 0
M  V30 14 C 4.52255 -1.40461 0.199823 0
M  V30 15 S 5.19585 2.28233 1.46532 0
M  V30 16 O 4.75458 3.53171 0.749031 0
M  V30 17 O 6.69121 2.16874 1.49635 0
M  V30 18 N 4.57193 2.38321 3.07102 0
M  V30 19 C -2.59583 -1.03934 -0.35024 0
M  V30 20 C -4.13074 -0.929461 -0.279473 0
M  V30 21 C -4.55783 0.215992 0.589504 0
M  V30 22 C -3.89746 1.5261 0.274511 0
M  V30 23 C -2.36046 1.33506 0.233218 0
M  V30 24 C -1.95887 0.951503 1.61057 0
M  V30 25 C -2.671 -0.342082 2.01875 0
M  V30 26 C -2.17813 -1.38804 1.04932 0
M  V30 27 C -4.1632 -0.162556 2.01363 0
M  V30 28 H -2.96238 1.59618 -2.25202 0
M  V30 29 H -3.14942 -0.088524 -2.62412 0
M  V30 30 H -0.833573 -0.313006 -2.41229 0
M  V30 31 H -0.733328 1.3899 -1.96077 0
M  V30 32 H 0.487291 0.93444 -0.0797855 0
M  V30 33 H 1.58902 1.09499 -2.13948 0
M  V30 34 H 0.774967 -0.894556 -3.34717 0
M  V30 35 H 2.55665 -0.974165 -3.01926 0
M  V30 36 H 0.77135 -2.11845 -0.893343 0
M  V30 37 H 1.1636 -3.12223 -2.39104 0
M  V30 38 H 3.49374 -2.72188 -2.09437 0
M  V30 39 H 2.8491 -3.3421 -0.501954 0
M  V30 40 H 2.89787 2.0657 -0.186346 0
M  V30 41 H 5.97774 -0.398324 1.42916 0
M  V30 42 H 5.01801 -2.36853 0.336429 0
M  V30 43 H 4.02273 1.53151 3.31825 0
M  V30 44 H 4.02079 3.23789 3.25085 0
M  V30 45 H -2.3918 -1.84345 -1.05332 0
M  V30 46 H -4.57147 -0.858873 -1.29707 0
M  V30 47 H -4.4503 -1.87197 0.245445 0
M  V30 48 H -5.63891 0.349652 0.476766 0
M  V30 49 H -4.24467 2.00426 -0.653161 0
M  V30 50 H -4.0799 2.20449 1.12678 0
M  V30 51 H -1.89911 2.30565 -0.0353246 0
M  V30 52 H -2.38133 1.72169 2.29506 0
M  V30 53 H -0.902631 0.786745 1.78333 0
M  V30 54 H -2.36101 -0.606653 3.04521 0
M  V30 55 H -2.69973 -2.33244 1.31183 0
M  V30 56 H -1.1054 -1.50053 1.1852 0
M  V30 57 H -4.39858 0.64292 2.71766 0
M  V30 58 H -4.63045 -1.11969 2.25482 0
M  V30 END ATOM
M  V30 BEGIN BOND
M  V30 1 1 1 2
M  V30 2 1 2 3
M  V30 3 1 3 4
M  V30 4 1 4 5
M  V30 5 1 5 6
M  V30 6 1 6 7
M  V30 7 1 7 8
M  V30 8 1 8 9
M  V30 9 2 9 10
M  V30 10 1 10 11
M  V30 11 2 11 12
M  V30 12 1 12 13
M  V30 13 2 13 14
M  V30 14 1 12 15
M  V30 15 2 15 16
M  V30 16 2 15 17
M  V30 17 1 15 18
M  V30 18 1 2 19
M  V30 19 1 19 20
M  V30 20 1 20 21
M  V30 21 1 21 22
M  V30 22 1 22 23
M  V30 23 1 23 24
M  V30 24 1 24 25
M  V30 25 1 25 26
M  V30 26 1 25 27
M  V30 27 1 23 2
M  V30 28 1 10 5
M  V30 29 1 26 19
M  V30 30 1 14 9
M  V30 31 1 27 21
M  V30 32 1 1 28
M  V30 33 1 1 29
M  V30 34 1 3 30
M  V30 35 1 3 31
M  V30 36 1 4 32
M  V30 37 1 5 33
M  V30 38 1 6 34
M  V30 39 1 6 35
M  V30 40 1 7 36
M  V30 41 1 7 37
M  V30 42 1 8 38
M  V30 43 1 8 39
M  V30 44 1 11 40
M  V30 45 1 13 41
M  V30 46 1 14 42
M  V30 47 1 18 43
M  V30 48 1 18 44
M  V30 49 1 19 45
M  V30 50 1 20 46
M  V30 51 1 20 47
M  V30 52 1 21 48
M  V30 53 1 22 49
M  V30 54 1 22 50
M  V30 55 1 23 51
M  V30 56 1 24 52
M  V30 57 1 24 53
M  V30 58 1 25 54
M  V30 59 1 26 55
M  V30 60 1 26 56
M  V30 61 1 27 57
M  V30 62 1 27 58
M  V30 END BOND
M  V30 END CTAB
M  END
