
     RDKit          3D

  0  0  0  0  0  0  0  0  0  0999 V3000
M  V30 BEGIN CTAB
M  V30 COUNTS 17 18 0 0 0
M  V30 BEGIN ATOM
M  V30 1 N 3.09253 0.335836 -0.368429 0
M  V30 2 C 1.67502 0.189058 -0.20175 0
M  V30 3 N 0.880066 1.22736 0.118561 0
M  V30 4 C -0.451964 1.10834 0.279039 0
M  V30 5 N -1.2838 2.21525 0.618337 0
M  V30 6 N -1.04499 -0.0928353 0.118077 0
M  V30 7 C -0.324465 -1.19062 -0.203964 0
M  V30 8 C 1.03941 -1.02626 -0.359678 0
M  V30 9 N -1.1852 -2.22247 -0.293564 0
M  V30 10 C -2.43113 -1.79177 -0.0337578 0
M  V30 11 N -2.32404 -0.477387 0.217454 0
M  V30 12 H 3.52452 0.803226 -1.18247 0
M  V30 13 H 3.74222 -0.0411203 0.357397 0
M  V30 14 H -1.54416 2.30858 1.62507 0
M  V30 15 H -1.63554 2.91213 -0.0521693 0
M  V30 16 H 1.63314 -1.89254 -0.617321 0
M  V30 17 H -3.36161 -2.36476 -0.0208333 0
M  V30 END ATOM
M  V30 BEGIN BOND
M  V30 1 1 1 2
M  V30 2 1 2 3
M  V30 3 2 3 4
M  V30 4 1 4 5
M  V30 5 1 4 6
M  V30 6 1 6 7
M  V30 7 1 7 8
M  V30 8 2 7 9
M  V30 9 1 9 10
M  V30 10 2 10 11
M  V30 11 2 8 2
M  V30 12 1 11 6
M  V30 13 1 1 12
M  V30 14 1 1 13
M  V30 15 1 5 14
M  V30 16 1 5 15
M  V30 17 1 8 16
M  V30 18 1 10 17
M  V30 END BOND
M  V30 END CTAB
M  END
