
     RDKit          3D

  0  0  0  0  0  0  0  0  0  0999 V3000
M  V30 BEGIN CTAB
M  V30 COUNTS 22 22 0 0 0
M  V30 BEGIN ATOM
M  V30 1 C 3.74133 -0.40327 -0.726802 0
M  V30 2 O 2.40049 0.00712959 -0.56041 0
M  V30 3 C 1.39637 -0.782424 -0.0589232 0
M  V30 4 O 1.65029 -1.95139 0.284525 0
M  V30 5 C 0.0465295 -0.283258 0.0790065 0
M  V30 6 C -0.96449 -1.07396 0.58239 0
M  V30 7 C -2.26509 -0.590085 0.714238 0
M  V30 8 N -3.27411 -1.45115 1.24133 0
M  V30 9 C -2.58492 0.692934 0.346731 0
M  V30 10 C -1.59796 1.48643 -0.152097 0
M  V30 11 C -0.291219 1.02046 -0.2915 0
M  V30 12 N 0.745455 1.81544 -0.802204 0
M  V30 13 I -2.03748 3.47132 -0.733396 0
M  V30 14 H 4.45576 0.439401 -0.65103 0
M  V30 15 H 3.97216 -1.05727 0.165585 0
M  V30 16 H 3.89608 -1.03874 -1.61173 0
M  V30 17 H -0.715399 -2.08653 0.873204 0
M  V30 18 H -3.19359 -1.76066 2.23312 0
M  V30 19 H -4.04538 -1.72609 0.596682 0
M  V30 20 H -3.59791 1.04885 0.456613 0
M  V30 21 H 1.04911 1.71073 -1.78475 0
M  V30 22 H 1.21398 2.51212 -0.200579 0
M  V30 END ATOM
M  V30 BEGIN BOND
M  V30 1 1 1 2
M  V30 2 1 2 3
M  V30 3 2 3 4
M  V30 4 1 3 5
M  V30 5 2 5 6
M  V30 6 1 6 7
M  V30 7 1 7 8
M  V30 8 2 7 9
M  V30 9 1 9 10
M  V30 10 2 10 11
M  V30 11 1 11 12
M  V30 12 1 10 13
M  V30 13 1 11 5
M  V30 14 1 1 14
M  V30 15 1 1 15
M  V30 16 1 1 16
M  V30 17 1 6 17
M  V30 18 1 8 18
M  V30 19 1 8 19
M  V30 20 1 9 20
M  V30 21 1 12 21
M  V30 22 1 12 22
M  V30 END BOND
M  V30 END CTAB
M  END
