
     RDKit          3D

  0  0  0  0  0  0  0  0  0  0999 V3000
M  V30 BEGIN CTAB
M  V30 COUNTS 34 35 0 0 0
M  V30 BEGIN ATOM
M  V30 1 N 6.22508 0.109067 0.403534 0
M  V30 2 C 4.84239 -0.0729011 0.129483 0
M  V30 3 C 4.17824 0.75484 -0.766362 0
M  V30 4 C 2.83247 0.583549 -1.03797 0
M  V30 5 C 2.10194 -0.414612 -0.429531 0
M  V30 6 C 2.76467 -1.2388 0.462905 0
M  V30 7 C 4.1053 -1.07518 0.739343 0
M  V30 8 C 0.662119 -0.62408 -0.698248 0
M  V30 9 N -0.147028 0.146896 0.219209 0
M  V30 10 C -1.55539 0.0838789 0.127551 0
M  V30 11 C -2.16556 -0.708709 -0.831637 0
M  V30 12 C -3.54021 -0.784826 -0.938522 0
M  V30 13 C -4.29557 -0.0420959 -0.0545672 0
M  V30 14 C -3.6958 0.756313 0.911496 0
M  V30 15 C -2.31297 0.825695 1.01038 0
M  V30 16 N -1.6438 1.61971 1.97192 0
M  V30 17 C -5.78099 -0.110772 -0.153737 0
M  V30 18 H 6.60949 -0.178886 1.32888 0
M  V30 19 H 6.87394 0.522994 -0.29193 0
M  V30 20 H 4.7646 1.54846 -1.24844 0
M  V30 21 H 2.34059 1.25221 -1.74789 0
M  V30 22 H 2.22237 -2.02986 0.95639 0
M  V30 23 H 4.61855 -1.73336 1.4471 0
M  V30 24 H 0.434252 -1.69161 -0.509135 0
M  V30 25 H 0.37735 -0.370979 -1.74636 0
M  V30 26 H 0.325913 0.732776 0.928731 0
M  V30 27 H -1.56831 -1.29404 -1.52824 0
M  V30 28 H -4.00026 -1.41642 -1.70259 0
M  V30 29 H -4.30549 1.33127 1.5955 0
M  V30 30 H -1.56008 2.65244 1.78748 0
M  V30 31 H -1.22633 1.27015 2.84763 0
M  V30 32 H -6.1119 -0.272597 -1.20785 0
M  V30 33 H -6.17875 0.822531 0.278588 0
M  V30 34 H -6.19084 -0.953044 0.475177 0
M  V30 END ATOM
M  V30 BEGIN BOND
M  V30 1 1 1 2
M  V30 2 2 2 3
M  V30 3 1 3 4
M  V30 4 2 4 5
M  V30 5 1 5 6
M  V30 6 2 6 7
M  V30 7 1 5 8
M  V30 8 1 8 9
M  V30 9 1 9 10
M  V30 10 2 10 11
M  V30 11 1 11 12
M  V30 12 2 12 13
M  V30 13 1 13 14
M  V30 14 2 14 15
M  V30 15 1 15 16
M  V30 16 1 13 17
M  V30 17 1 7 2
M  V30 18 1 15 10
M  V30 19 1 1 18
M  V30 20 1 1 19
M  V30 21 1 3 20
M  V30 22 1 4 21
M  V30 23 1 6 22
M  V30 24 1 7 23
M  V30 25 1 8 24
M  V30 26 1 8 25
M  V30 27 1 9 26
M  V30 28 1 11 27
M  V30 29 1 12 28
M  V30 30 1 14 29
M  V30 31 1 16 30
M  V30 32 1 16 31
M  V30 33 1 17 32
M  V30 34 1 17 33
M  V30 35 1 17 34
M  V30 END BOND
M  V30 END CTAB
M  END
