
     RDKit          3D

  0  0  0  0  0  0  0  0  0  0999 V3000
M  V30 BEGIN CTAB
M  V30 COUNTS 49 50 0 0 0
M  V30 BEGIN ATOM
M  V30 1 N -8.21992 0.222005 0.481629 0
M  V30 2 C -6.8212 0.220922 0.278784 0
M  V30 3 C -6.2706 0.491295 -0.964277 0
M  V30 4 C -4.91523 0.498511 -1.19657 0
M  V30 5 C -4.45225 0.798349 -2.55289 0
M  V30 6 O -5.3212 1.06611 -3.57362 0
M  V30 7 O -3.20317 0.815983 -2.81413 0
M  V30 8 C -4.05099 0.228454 -0.165001 0
M  V30 9 N -2.6696 0.233414 -0.391678 0
M  V30 10 N -1.79028 0.140316 0.515907 0
M  V30 11 C -0.409211 0.145716 0.284572 0
M  V30 12 C 0.298578 1.31778 0.479154 0
M  V30 13 C 1.65884 1.35078 0.258677 0
M  V30 14 C 2.35186 0.233895 -0.157275 0
M  V30 15 C 1.61966 -0.92895 -0.345276 0
M  V30 16 C 0.257419 -0.993419 -0.132893 0
M  V30 17 S -0.655528 -2.48312 -0.377999 0
M  V30 18 O -1.4036 -2.96296 1.0425 0
M  V30 19 O -1.61303 -2.35878 -1.51898 0
M  V30 20 O 0.335418 -3.55299 -0.742647 0
M  V30 21 S 4.07876 0.248756 -0.444449 0
M  V30 22 O 4.39873 -0.840704 -1.43266 0
M  V30 23 O 4.54325 1.56621 -0.96794 0
M  V30 24 C 4.87859 -0.178178 1.08032 0
M  V30 25 C 6.38406 -0.192142 0.932732 0
M  V30 26 O 6.8254 1.05339 0.547727 0
M  V30 27 S 8.47243 1.11992 0.363853 0
M  V30 28 O 9.15126 -0.367851 -0.00955479 0
M  V30 29 O 9.14064 1.68991 1.59248 0
M  V30 30 O 8.82813 2.05466 -0.782425 0
M  V30 31 C -4.56532 -0.04482 1.08513 0
M  V30 32 N -3.73227 -0.334531 2.20561 0
M  V30 33 C -5.92987 -0.0499952 1.31003 0
M  V30 34 H -8.67859 -0.613471 0.905717 0
M  V30 35 H -8.78822 1.044 0.212585 0
M  V30 36 H -6.96733 0.70229 -1.76718 0
M  V30 37 H -5.51848 1.98391 -3.91578 0
M  V30 38 H -0.199835 2.23949 0.81003 0
M  V30 39 H 2.2123 2.28626 0.415921 0
M  V30 40 H 2.13441 -1.83595 -0.674963 0
M  V30 41 H -0.889497 -2.58218 1.80191 0
M  V30 42 H 4.51918 -1.1826 1.38136 0
M  V30 43 H 4.57999 0.552419 1.84492 0
M  V30 44 H 6.70981 -1.00635 0.269518 0
M  V30 45 H 6.80611 -0.411556 1.93595 0
M  V30 46 H 10.0743 -0.208969 -0.342105 0
M  V30 47 H -3.62005 -1.31306 2.54957 0
M  V30 48 H -3.20968 0.400265 2.72027 0
M  V30 49 H -6.36412 -0.262427 2.28704 0
M  V30 END ATOM
M  V30 BEGIN BOND
M  V30 1 1 1 2
M  V30 2 2 2 3
M  V30 3 1 3 4
M  V30 4 1 4 5
M  V30 5 1 5 6
M  V30 6 2 5 7
M  V30 7 2 4 8
M  V30 8 1 8 9
M  V30 9 2 9 10 CFG=2
M  V30 10 1 10 11
M  V30 11 2 11 12
M  V30 12 1 12 13
M  V30 13 2 13 14
M  V30 14 1 14 15
M  V30 15 2 15 16
M  V30 16 1 16 17
M  V30 17 1 17 18
M  V30 18 2 17 19
M  V30 19 2 17 20
M  V30 20 1 14 21
M  V30 21 2 21 22
M  V30 22 2 21 23
M  V30 23 1 21 24
M  V30 24 1 24 25
M  V30 25 1 25 26
M  V30 26 1 26 27
M  V30 27 1 27 28
M  V30 28 2 27 29
M  V30 29 2 27 30
M  V30 30 1 8 31
M  V30 31 1 31 32
M  V30 32 2 31 33
M  V30 33 1 33 2
M  V30 34 1 16 11
M  V30 35 1 1 34
M  V30 36 1 1 35
M  V30 37 1 3 36
M  V30 38 1 6 37
M  V30 39 1 12 38
M  V30 40 1 13 39
M  V30 41 1 15 40
M  V30 42 1 18 41
M  V30 43 1 24 42
M  V30 44 1 24 43
M  V30 45 1 25 44
M  V30 46 1 25 45
M  V30 47 1 28 46
M  V30 48 1 32 47
M  V30 49 1 32 48
M  V30 50 1 33 49
M  V30 END BOND
M  V30 END CTAB
M  END
