
     RDKit          3D

  0  0  0  0  0  0  0  0  0  0999 V3000
M  V30 BEGIN CTAB
M  V30 COUNTS 30 30 0 0 0
M  V30 BEGIN ATOM
M  V30 1 C -4.41603 -0.0873492 0.620045 0
M  V30 2 C -3.23432 0.602413 -0.0212717 0
M  V30 3 C -1.91747 -0.0531386 0.345658 0
M  V30 4 N -0.867791 0.684371 -0.318982 0
M  V30 5 C 0.470002 0.362916 -0.0815281 0
M  V30 6 C 0.850965 -0.534551 0.865004 0
M  V30 7 C 2.21361 -0.807513 1.03434 0
M  V30 8 C 3.17358 -0.180125 0.256464 0
M  V30 9 C 2.79251 0.733961 -0.707858 0
M  V30 10 C 1.45158 0.991173 -0.862222 0
M  V30 11 N 3.757 1.38935 -1.51673 0
M  V30 12 N 4.55557 -0.432758 0.401796 0
M  V30 13 C -1.84317 -1.47142 -0.173094 0
M  V30 14 H -4.74869 -0.968112 0.0384343 0
M  V30 15 H -4.18893 -0.418715 1.65459 0
M  V30 16 H -5.26363 0.626863 0.658759 0
M  V30 17 H -3.38689 0.697585 -1.10406 0
M  V30 18 H -3.18923 1.6262 0.405169 0
M  V30 19 H -1.84646 -0.0404569 1.44923 0
M  V30 20 H -1.11747 1.45477 -0.97427 0
M  V30 21 H 0.147767 -1.03206 1.48503 0
M  V30 22 H 2.50295 -1.52364 1.79065 0
M  V30 23 H 1.14911 1.71512 -1.62589 0
M  V30 24 H 3.5475 1.76418 -2.46801 0
M  V30 25 H 4.72929 1.51446 -1.16514 0
M  V30 26 H 5.11338 0.132582 1.06113 0
M  V30 27 H 5.01276 -1.17994 -0.147458 0
M  V30 28 H -0.932393 -1.6695 -0.774192 0
M  V30 29 H -2.70214 -1.73304 -0.819061 0
M  V30 30 H -1.81295 -2.16363 0.693471 0
M  V30 END ATOM
M  V30 BEGIN BOND
M  V30 1 1 1 2
M  V30 2 1 2 3
M  V30 3 1 3 4
M  V30 4 1 4 5
M  V30 5 2 5 6
M  V30 6 1 6 7
M  V30 7 2 7 8
M  V30 8 1 8 9
M  V30 9 2 9 10
M  V30 10 1 9 11
M  V30 11 1 8 12
M  V30 12 1 3 13
M  V30 13 1 10 5
M  V30 14 1 1 14
M  V30 15 1 1 15
M  V30 16 1 1 16
M  V30 17 1 2 17
M  V30 18 1 2 18
M  V30 19 1 3 19
M  V30 20 1 4 20
M  V30 21 1 6 21
M  V30 22 1 7 22
M  V30 23 1 10 23
M  V30 24 1 11 24
M  V30 25 1 11 25
M  V30 26 1 12 26
M  V30 27 1 12 27
M  V30 28 1 13 28
M  V30 29 1 13 29
M  V30 30 1 13 30
M  V30 END BOND
M  V30 END CTAB
M  END
