
     RDKit          3D

  0  0  0  0  0  0  0  0  0  0999 V3000
M  V30 BEGIN CTAB
M  V30 COUNTS 33 34 0 0 0
M  V30 BEGIN ATOM
M  V30 1 C -4.03328 0.883486 -0.751201 0
M  V30 2 C -3.34474 -0.108069 0.197002 0
M  V30 3 C -2.49929 0.671135 1.13068 0
M  V30 4 C -1.0674 0.817441 0.753809 0
M  V30 5 N -0.483354 -0.361811 0.200162 0
M  V30 6 C -1.27624 -1.49 -0.180577 0
M  V30 7 C -2.66249 -1.12237 -0.632883 0
M  V30 8 C 0.93248 -0.418511 0.020327 0
M  V30 9 N 1.53396 -1.50525 -0.493392 0
M  V30 10 C 2.84323 -1.59341 -0.674527 0
M  V30 11 C 3.64989 -0.516377 -0.320611 0
M  V30 12 C 3.10907 0.639654 0.2149 0
M  V30 13 C 1.74282 0.661927 0.37523 0
M  V30 14 N 3.90774 1.74803 0.582611 0
M  V30 15 N 5.03635 -0.649464 -0.528778 0
M  V30 16 H -3.2719 1.16261 -1.49856 0
M  V30 17 H -4.83049 0.320249 -1.25778 0
M  V30 18 H -4.35388 1.78749 -0.236343 0
M  V30 19 H -4.19429 -0.570635 0.771846 0
M  V30 20 H -2.91445 1.71079 1.27479 0
M  V30 21 H -2.55196 0.21429 2.15799 0
M  V30 22 H -0.957638 1.71679 0.118629 0
M  V30 23 H -0.499758 1.0447 1.7039 0
M  V30 24 H -1.27032 -2.26053 0.619554 0
M  V30 25 H -0.77816 -1.97897 -1.06374 0
M  V30 26 H -3.26095 -2.05938 -0.633234 0
M  V30 27 H -2.6176 -0.819516 -1.72037 0
M  V30 28 H 3.28968 -2.49688 -1.09568 0
M  V30 29 H 1.25502 1.53067 0.786546 0
M  V30 30 H 4.6473 1.72308 1.31049 0
M  V30 31 H 3.76709 2.67133 0.105729 0
M  V30 32 H 5.58507 -1.52231 -0.338508 0
M  V30 33 H 5.56849 0.169807 -0.898016 0
M  V30 END ATOM
M  V30 BEGIN BOND
M  V30 1 1 1 2
M  V30 2 1 2 3
M  V30 3 1 3 4
M  V30 4 1 4 5
M  V30 5 1 5 6
M  V30 6 1 6 7
M  V30 7 1 5 8
M  V30 8 2 8 9
M  V30 9 1 9 10
M  V30 10 2 10 11
M  V30 11 1 11 12
M  V30 12 2 12 13
M  V30 13 1 12 14
M  V30 14 1 11 15
M  V30 15 1 7 2
M  V30 16 1 13 8
M  V30 17 1 1 16
M  V30 18 1 1 17
M  V30 19 1 1 18
M  V30 20 1 2 19
M  V30 21 1 3 20
M  V30 22 1 3 21
M  V30 23 1 4 22
M  V30 24 1 4 23
M  V30 25 1 6 24
M  V30 26 1 6 25
M  V30 27 1 7 26
M  V30 28 1 7 27
M  V30 29 1 10 28
M  V30 30 1 13 29
M  V30 31 1 14 30
M  V30 32 1 14 31
M  V30 33 1 15 32
M  V30 34 1 15 33
M  V30 END BOND
M  V30 END CTAB
M  END
