
     RDKit          3D

  0  0  0  0  0  0  0  0  0  0999 V3000
M  V30 BEGIN CTAB
M  V30 COUNTS 23 24 0 0 0
M  V30 BEGIN ATOM
M  V30 1 C -2.48657 1.76053 -0.412468 0
M  V30 2 N -1.40376 0.828743 -0.242367 0
M  V30 3 N -0.119199 1.16288 -0.201017 0
M  V30 4 C 0.565 0.0662633 0.100042 0
M  V30 5 C -0.349284 -0.989907 0.247439 0
M  V30 6 C -1.6005 -0.48668 0.0172694 0
M  V30 7 N -2.79414 -1.22743 -0.0157308 0
M  V30 8 N 0.0892324 -2.32339 0.548159 0
M  V30 9 C 1.98482 -0.0782779 0.427412 0
M  V30 10 C 3.20868 -0.0388103 -0.372492 0
M  V30 11 C 2.70325 1.28496 -0.0915852 0
M  V30 12 H -2.6954 2.32603 0.56677 0
M  V30 13 H -3.44725 1.23469 -0.603528 0
M  V30 14 H -2.23483 2.44805 -1.22397 0
M  V30 15 H -2.78438 -2.26088 0.166018 0
M  V30 16 H -3.68201 -0.740175 -0.262003 0
M  V30 17 H -0.332559 -2.87287 1.30999 0
M  V30 18 H 0.860495 -2.74977 -0.00918932 0
M  V30 19 H 2.14007 -0.15752 1.57257 0
M  V30 20 H 4.11697 -0.496167 0.114985 0
M  V30 21 H 3.17221 -0.440667 -1.44114 0
M  V30 22 H 2.11166 1.7942 -0.915602 0
M  V30 23 H 2.97749 1.9562 0.720445 0
M  V30 END ATOM
M  V30 BEGIN BOND
M  V30 1 1 1 2
M  V30 2 1 2 3
M  V30 3 2 3 4
M  V30 4 1 4 5
M  V30 5 2 5 6
M  V30 6 1 6 7
M  V30 7 1 5 8
M  V30 8 1 4 9
M  V30 9 1 9 10
M  V30 10 1 10 11
M  V30 11 1 6 2
M  V30 12 1 11 9
M  V30 13 1 1 12
M  V30 14 1 1 13
M  V30 15 1 1 14
M  V30 16 1 7 15
M  V30 17 1 7 16
M  V30 18 1 8 17
M  V30 19 1 8 18
M  V30 20 1 9 19
M  V30 21 1 10 20
M  V30 22 1 10 21
M  V30 23 1 11 22
M  V30 24 1 11 23
M  V30 END BOND
M  V30 END CTAB
M  END
