
     RDKit          3D

  0  0  0  0  0  0  0  0  0  0999 V3000
M  V30 BEGIN CTAB
M  V30 COUNTS 23 23 0 0 0
M  V30 BEGIN ATOM
M  V30 1 N -3.37027 -0.590131 0.3505 0
M  V30 2 C -2.48657 -0.134001 -0.77061 0
M  V30 3 C -1.22343 0.302229 -0.102999 0
M  V30 4 C -1.27147 1.3145 0.816189 0
M  V30 5 C -0.0817803 1.80836 1.43988 0
M  V30 6 C 1.13419 1.17455 1.03426 0
M  V30 7 C 1.17884 0.158478 0.117541 0
M  V30 8 C -0.00791587 -0.291806 -0.475597 0
M  V30 9 N -0.0341953 -1.21136 -1.53088 0
M  V30 10 O 2.28316 -0.466613 -0.279851 0
M  V30 11 C 3.59969 -0.673934 -0.181744 0
M  V30 12 H -2.84314 -1.4537 0.681555 0
M  V30 13 H -3.33723 0.119413 1.16142 0
M  V30 14 H -2.97762 0.703323 -1.34055 0
M  V30 15 H -2.2863 -0.973516 -1.37925 0
M  V30 16 H -2.16773 1.77483 1.1361 0
M  V30 17 H -0.18077 2.56503 2.14011 0
M  V30 18 H 2.03389 1.56757 1.438 0
M  V30 19 H 0.418617 -2.16395 -1.40016 0
M  V30 20 H -0.473701 -0.99611 -2.48652 0
M  V30 21 H 4.12476 -0.261847 0.728753 0
M  V30 22 H 4.23567 -0.434645 -1.08817 0
M  V30 23 H 3.73331 -1.83668 -0.0079887 0
M  V30 END ATOM
M  V30 BEGIN BOND
M  V30 1 1 1 2
M  V30 2 1 2 3
M  V30 3 2 3 4
M  V30 4 1 4 5
M  V30 5 2 5 6
M  V30 6 1 6 7
M  V30 7 2 7 8
M  V30 8 1 8 9
M  V30 9 1 7 10
M  V30 10 1 10 11
M  V30 11 1 8 3
M  V30 12 1 1 12
M  V30 13 1 1 13
M  V30 14 1 2 14
M  V30 15 1 2 15
M  V30 16 1 4 16
M  V30 17 1 5 17
M  V30 18 1 6 18
M  V30 19 1 9 19
M  V30 20 1 9 20
M  V30 21 1 11 21
M  V30 22 1 11 22
M  V30 23 1 11 23
M  V30 END BOND
M  V30 END CTAB
M  END
