
     RDKit          3D

  0  0  0  0  0  0  0  0  0  0999 V3000
M  V30 BEGIN CTAB
M  V30 COUNTS 47 48 0 0 0
M  V30 BEGIN ATOM
M  V30 1 C 0.0868158 3.03166 -1.42286 0
M  V30 2 C 0.0710578 2.13184 -0.192952 0
M  V30 3 C -0.97911 1.08782 -0.354051 0
M  V30 4 O -0.648493 -0.0958077 -0.330546 0
M  V30 5 N -2.30811 1.50177 -0.526985 0
M  V30 6 C -3.36547 0.594588 -0.697506 0
M  V30 7 C -4.63631 1.08063 -0.335293 0
M  V30 8 C -5.74316 0.306401 -0.476785 0
M  V30 9 C -5.64048 -0.957256 -0.973339 0
M  V30 10 C -4.41517 -1.44539 -1.33041 0
M  V30 11 C -3.25209 -0.666753 -1.19544 0
M  V30 12 S -7.06375 -1.93488 -1.14888 0
M  V30 13 O -8.27422 -1.07583 -1.35664 0
M  V30 14 O -6.86099 -2.86426 -2.30906 0
M  V30 15 N -7.34023 -2.85084 0.311553 0
M  V30 16 N 1.34173 1.46018 -0.0298621 0
M  V30 17 C 1.57831 0.956739 1.28911 0
M  V30 18 C 2.9354 0.303737 1.24477 0
M  V30 19 C 3.03823 -1.02665 0.918488 0
M  V30 20 C 4.2845 -1.6101 0.880346 0
M  V30 21 C 5.45451 -0.936683 1.15244 0
M  V30 22 C 5.32304 0.403344 1.47875 0
M  V30 23 C 4.08457 1.00563 1.52217 0
M  V30 24 S 7.03059 -1.69546 1.09824 0
M  V30 25 O 6.83925 -3.1695 1.39085 0
M  V30 26 O 7.87831 -1.0887 2.16419 0
M  V30 27 N 7.73563 -1.57915 -0.467002 0
M  V30 28 H -0.892746 2.93149 -1.91869 0
M  V30 29 H 0.249589 4.08773 -1.16804 0
M  V30 30 H 0.925432 2.70638 -2.0651 0
M  V30 31 H -0.219956 2.71297 0.724345 0
M  V30 32 H -2.54865 2.55059 -0.537945 0
M  V30 33 H -4.76266 2.08321 0.0653444 0
M  V30 34 H -6.71807 0.715348 -0.185208 0
M  V30 35 H -4.31357 -2.4611 -1.73196 0
M  V30 36 H -2.30807 -1.08972 -1.50672 0
M  V30 37 H -6.61714 -3.59566 0.412083 0
M  V30 38 H -7.2835 -2.12971 1.09045 0
M  V30 39 H 2.14297 1.92464 -0.460117 0
M  V30 40 H 0.802299 0.256603 1.616 0
M  V30 41 H 1.68697 1.78758 2.04016 0
M  V30 42 H 2.15663 -1.61757 0.692266 0
M  V30 43 H 4.41047 -2.67394 0.623457 0
M  V30 44 H 6.21665 0.978051 1.70192 0
M  V30 45 H 3.97187 2.05118 1.77589 0
M  V30 46 H 8.72924 -1.88823 -0.388613 0
M  V30 47 H 7.21791 -2.26687 -1.0828 0
M  V30 END ATOM
M  V30 BEGIN BOND
M  V30 1 1 1 2
M  V30 2 1 2 3
M  V30 3 2 3 4
M  V30 4 1 3 5
M  V30 5 1 5 6
M  V30 6 2 6 7
M  V30 7 1 7 8
M  V30 8 2 8 9
M  V30 9 1 9 10
M  V30 10 2 10 11
M  V30 11 1 9 12
M  V30 12 2 12 13
M  V30 13 2 12 14
M  V30 14 1 12 15
M  V30 15 1 2 16
M  V30 16 1 16 17
M  V30 17 1 17 18
M  V30 18 2 18 19
M  V30 19 1 19 20
M  V30 20 2 20 21
M  V30 21 1 21 22
M  V30 22 2 22 23
M  V30 23 1 21 24
M  V30 24 2 24 25
M  V30 25 2 24 26
M  V30 26 1 24 27
M  V30 27 1 11 6
M  V30 28 1 23 18
M  V30 29 1 1 28
M  V30 30 1 1 29
M  V30 31 1 1 30
M  V30 32 1 2 31
M  V30 33 1 5 32
M  V30 34 1 7 33
M  V30 35 1 8 34
M  V30 36 1 10 35
M  V30 37 1 11 36
M  V30 38 1 15 37
M  V30 39 1 15 38
M  V30 40 1 16 39
M  V30 41 1 17 40
M  V30 42 1 17 41
M  V30 43 1 19 42
M  V30 44 1 20 43
M  V30 45 1 22 44
M  V30 46 1 23 45
M  V30 47 1 27 46
M  V30 48 1 27 47
M  V30 END BOND
M  V30 END CTAB
M  END
