
     RDKit          3D

  0  0  0  0  0  0  0  0  0  0999 V3000
M  V30 BEGIN CTAB
M  V30 COUNTS 34 33 0 0 0
M  V30 BEGIN ATOM
M  V30 1 C 3.08955 -0.731862 -1.07584 0
M  V30 2 C 1.65089 -0.315964 -1.14257 0
M  V30 3 C 0.767245 -1.16576 -1.96641 0
M  V30 4 C -0.658446 -0.729659 -2.0096 0
M  V30 5 C -1.32961 -0.699044 -0.692496 0
M  V30 6 C -1.48051 -1.87349 0.17993 0
M  V30 7 N -1.81339 0.425175 -0.28886 0
M  V30 8 N -2.46428 0.600949 0.916117 0
M  V30 9 C -3.80245 1.07088 0.944793 0
M  V30 10 N -4.66167 1.00962 -0.188409 0
M  V30 11 N -4.31708 1.5907 2.03164 0
M  V30 12 N 1.29619 0.723579 -0.496731 0
M  V30 13 N 2.18279 1.47377 0.255816 0
M  V30 14 C 2.75392 1.0491 1.4763 0
M  V30 15 N 4.1078 1.23815 1.8034 0
M  V30 16 N 1.9887 0.458216 2.33014 0
M  V30 17 H 3.73374 0.180663 -1.104 0
M  V30 18 H 3.26087 -1.29208 -0.121164 0
M  V30 19 H 3.37164 -1.34584 -1.95421 0
M  V30 20 H 0.87957 -2.23808 -1.69879 0
M  V30 21 H 1.15418 -1.08971 -3.01781 0
M  V30 22 H -0.708707 0.261598 -2.50668 0
M  V30 23 H -1.20404 -1.50766 -2.61541 0
M  V30 24 H -0.678175 -2.6255 0.0473936 0
M  V30 25 H -1.4264 -1.53613 1.2351 0
M  V30 26 H -2.50204 -2.3107 -0.0199167 0
M  V30 27 H -1.97272 0.3882 1.8104 0
M  V30 28 H -4.3593 1.38241 -1.11651 0
M  V30 29 H -5.61539 0.590999 -0.121683 0
M  V30 30 H -5.27933 1.93999 2.08836 0
M  V30 31 H 2.44631 2.42588 -0.111375 0
M  V30 32 H 4.58828 2.15877 1.85547 0
M  V30 33 H 4.69221 0.386498 2.01458 0
M  V30 34 H 2.30967 0.106328 3.25904 0
M  V30 END ATOM
M  V30 BEGIN BOND
M  V30 1 1 1 2
M  V30 2 1 2 3
M  V30 3 1 3 4
M  V30 4 1 4 5
M  V30 5 1 5 6
M  V30 6 2 5 7 CFG=2
M  V30 7 1 7 8
M  V30 8 1 8 9
M  V30 9 1 9 10
M  V30 10 2 9 11 CFG=2
M  V30 11 2 2 12 CFG=2
M  V30 12 1 12 13
M  V30 13 1 13 14
M  V30 14 1 14 15
M  V30 15 2 14 16 CFG=2
M  V30 16 1 1 17
M  V30 17 1 1 18
M  V30 18 1 1 19
M  V30 19 1 3 20
M  V30 20 1 3 21
M  V30 21 1 4 22
M  V30 22 1 4 23
M  V30 23 1 6 24
M  V30 24 1 6 25
M  V30 25 1 6 26
M  V30 26 1 8 27
M  V30 27 1 10 28
M  V30 28 1 10 29
M  V30 29 1 11 30
M  V30 30 1 13 31
M  V30 31 1 15 32
M  V30 32 1 15 33
M  V30 33 1 16 34
M  V30 END BOND
M  V30 END CTAB
M  END
