
     RDKit          3D

  0  0  0  0  0  0  0  0  0  0999 V3000
M  V30 BEGIN CTAB
M  V30 COUNTS 20 20 0 0 0
M  V30 BEGIN ATOM
M  V30 1 F 3.93863 -0.640013 -1.27324 0
M  V30 2 C 3.18979 -0.338208 -0.113088 0
M  V30 3 O 1.96023 -0.903251 -0.212103 0
M  V30 4 C 0.676819 -0.509046 -0.112636 0
M  V30 5 C -0.287394 -1.5225 -0.307848 0
M  V30 6 C -1.63869 -1.28749 -0.240226 0
M  V30 7 I -3.03291 -2.8626 -0.545106 0
M  V30 8 C -2.08567 -0.0193925 0.0274993 0
M  V30 9 C -1.16272 0.963089 0.216913 0
M  V30 10 C 0.197905 0.754917 0.154695 0
M  V30 11 N 1.08698 1.83659 0.365007 0
M  V30 12 N -3.4767 0.221513 0.0969098 0
M  V30 13 F 3.9195 -0.993638 0.905193 0
M  V30 14 H 3.29598 0.721682 0.103911 0
M  V30 15 H 0.0149001 -2.53703 -0.521277 0
M  V30 16 H -1.4908 1.98507 0.432216 0
M  V30 17 H 1.32049 2.2407 1.2958 0
M  V30 18 H 1.54524 2.26438 -0.472898 0
M  V30 19 H -3.98703 0.195836 0.985009 0
M  V30 20 H -3.98456 0.429395 -0.784729 0
M  V30 END ATOM
M  V30 BEGIN BOND
M  V30 1 1 1 2
M  V30 2 1 2 3
M  V30 3 1 3 4
M  V30 4 2 4 5
M  V30 5 1 5 6
M  V30 6 1 6 7
M  V30 7 2 6 8
M  V30 8 1 8 9
M  V30 9 2 9 10
M  V30 10 1 10 11
M  V30 11 1 8 12
M  V30 12 1 2 13
M  V30 13 1 10 4
M  V30 14 1 2 14
M  V30 15 1 5 15
M  V30 16 1 9 16
M  V30 17 1 11 17
M  V30 18 1 11 18
M  V30 19 1 12 19
M  V30 20 1 12 20
M  V30 END BOND
M  V30 END CTAB
M  END
