
     RDKit          3D

  0  0  0  0  0  0  0  0  0  0999 V3000
M  V30 BEGIN CTAB
M  V30 COUNTS 36 36 0 0 0
M  V30 BEGIN ATOM
M  V30 1 N -2.4929 2.83815 -0.398523 0
M  V30 2 C -2.19477 1.43947 -0.0762842 0
M  V30 3 C -0.831142 1.18065 -0.75441 0
M  V30 4 N -0.416678 -0.116463 -0.526916 0
M  V30 5 C -1.2035 -1.15891 -1.12712 0
M  V30 6 C -1.08761 -2.48546 -0.498035 0
M  V30 7 C -0.509819 -2.62758 0.844834 0
M  V30 8 C -0.340937 -1.44082 1.7037 0
M  V30 9 C 0.870864 -0.571268 1.37837 0
M  V30 10 C 0.870008 -0.491115 -0.157437 0 CFG=2
M  V30 11 C 2.0766 0.0680416 -0.754651 0
M  V30 12 C 2.41982 1.4903 -0.678304 0
M  V30 13 N 2.59682 2.00416 0.6683 0
M  V30 14 H -3.51667 2.95069 -0.324987 0
M  V30 15 H -2.03931 3.46279 0.282776 0
M  V30 16 H -2.11128 1.39306 1.01854 0
M  V30 17 H -2.98884 0.848365 -0.521099 0
M  V30 18 H -0.191447 1.94064 -0.269384 0
M  V30 19 H -0.979939 1.48994 -1.81728 0
M  V30 20 H -2.25082 -0.867867 -1.2555 0
M  V30 21 H -0.807587 -1.24906 -2.18596 0
M  V30 22 H -0.588663 -3.24864 -1.19357 0
M  V30 23 H -2.14091 -2.92023 -0.455449 0
M  V30 24 H 0.482338 -3.18302 0.787481 0
M  V30 25 H -1.12528 -3.36119 1.46253 0
M  V30 26 H -0.110482 -1.82825 2.74347 0
M  V30 27 H -1.24621 -0.846123 1.78696 0
M  V30 28 H 0.650641 0.415558 1.83379 0
M  V30 29 H 1.76268 -1.0716 1.76258 0
M  V30 30 H 0.936998 -1.62268 -0.417772 0
M  V30 31 H 2.06428 -0.23663 -1.85884 0
M  V30 32 H 3.01277 -0.499667 -0.408616 0
M  V30 33 H 3.47919 1.56961 -1.12403 0
M  V30 34 H 1.85833 2.21344 -1.25642 0
M  V30 35 H 3.32428 1.49816 1.20531 0
M  V30 36 H 2.76917 3.02356 0.581952 0
M  V30 END ATOM
M  V30 BEGIN BOND
M  V30 1 1 1 2
M  V30 2 1 2 3
M  V30 3 1 3 4
M  V30 4 1 4 5
M  V30 5 1 5 6
M  V30 6 1 6 7
M  V30 7 1 7 8
M  V30 8 1 8 9
M  V30 9 1 9 10
M  V30 10 1 10 11
M  V30 11 1 11 12
M  V30 12 1 12 13
M  V30 13 1 10 4
M  V30 14 1 1 14
M  V30 15 1 1 15
M  V30 16 1 2 16
M  V30 17 1 2 17
M  V30 18 1 3 18
M  V30 19 1 3 19
M  V30 20 1 5 20
M  V30 21 1 5 21
M  V30 22 1 6 22
M  V30 23 1 6 23
M  V30 24 1 7 24
M  V30 25 1 7 25
M  V30 26 1 8 26
M  V30 27 1 8 27
M  V30 28 1 9 28
M  V30 29 1 9 29
M  V30 30 1 10 30 CFG=3
M  V30 31 1 11 31
M  V30 32 1 11 32
M  V30 33 1 12 33
M  V30 34 1 12 34
M  V30 35 1 13 35
M  V30 36 1 13 36
M  V30 END BOND
M  V30 END CTAB
M  END
