
     RDKit          3D

  0  0  0  0  0  0  0  0  0  0999 V3000
M  V30 BEGIN CTAB
M  V30 COUNTS 18 18 0 0 0
M  V30 BEGIN ATOM
M  V30 1 C 3.05018 -0.192864 -0.00365396 0
M  V30 2 O 1.7509 -0.762073 -0.126161 0
M  V30 3 C 0.655244 0.0750007 0.0212587 0
M  V30 4 N 0.76955 1.38986 0.272799 0
M  V30 5 C -0.280035 2.21723 0.418871 0
M  V30 6 N -1.52034 1.7099 0.308796 0
M  V30 7 C -1.71663 0.402055 0.0577009 0
M  V30 8 C -0.612707 -0.444519 -0.0914393 0
M  V30 9 N -0.748203 -1.8277 -0.356245 0
M  V30 10 N -2.97776 -0.200391 -0.0706831 0
M  V30 11 H 3.5696 -0.247371 -0.986282 0
M  V30 12 H 3.65959 -0.738539 0.771906 0
M  V30 13 H 2.99246 0.887971 0.27874 0
M  V30 14 H -0.123608 3.28462 0.623768 0
M  V30 15 H -0.293975 -2.51056 0.278031 0
M  V30 16 H -1.2873 -2.18896 -1.16485 0
M  V30 17 H -3.75074 0.292913 -0.540753 0
M  V30 18 H -3.13622 -1.14658 0.308193 0
M  V30 END ATOM
M  V30 BEGIN BOND
M  V30 1 1 1 2
M  V30 2 1 2 3
M  V30 3 2 3 4
M  V30 4 1 4 5
M  V30 5 2 5 6
M  V30 6 1 6 7
M  V30 7 2 7 8
M  V30 8 1 8 9
M  V30 9 1 7 10
M  V30 10 1 8 3
M  V30 11 1 1 11
M  V30 12 1 1 12
M  V30 13 1 1 13
M  V30 14 1 5 14
M  V30 15 1 9 15
M  V30 16 1 9 16
M  V30 17 1 10 17
M  V30 18 1 10 18
M  V30 END BOND
M  V30 END CTAB
M  END
