
     RDKit          3D

  0  0  0  0  0  0  0  0  0  0999 V3000
M  V30 BEGIN CTAB
M  V30 COUNTS 17 16 0 0 0
M  V30 BEGIN ATOM
M  V30 1 N 3.667 -0.549476 -0.325998 0
M  V30 2 N 2.53412 0.0839617 0.185126 0
M  V30 3 C 1.21964 -0.254359 -0.203786 0
M  V30 4 O 1.0691 -1.17493 -1.05508 0
M  V30 5 C 0.0657401 0.442601 0.364161 0
M  V30 6 N -1.17327 -0.0752911 -0.184492 0
M  V30 7 C -2.38877 0.487021 0.256711 0
M  V30 8 N -3.59519 -0.0250262 -0.284607 0
M  V30 9 S -2.3693 1.6883 1.35703 0
M  V30 10 H 3.74346 -0.410427 -1.3606 0
M  V30 11 H 3.73978 -1.54515 -0.0352806 0
M  V30 12 H 2.66416 0.838897 0.883665 0
M  V30 13 H 0.0411371 0.280323 1.4627 0
M  V30 14 H 0.0668982 1.53639 0.210306 0
M  V30 15 H -1.2015 -0.840668 -0.886547 0
M  V30 16 H -3.87946 -0.985103 -0.0119535 0
M  V30 17 H -4.20355 0.50294 -0.932365 0
M  V30 END ATOM
M  V30 BEGIN BOND
M  V30 1 1 1 2
M  V30 2 1 2 3
M  V30 3 2 3 4
M  V30 4 1 3 5
M  V30 5 1 5 6
M  V30 6 1 6 7
M  V30 7 1 7 8
M  V30 8 2 7 9
M  V30 9 1 1 10
M  V30 10 1 1 11
M  V30 11 1 2 12
M  V30 12 1 5 13
M  V30 13 1 5 14
M  V30 14 1 6 15
M  V30 15 1 8 16
M  V30 16 1 8 17
M  V30 END BOND
M  V30 END CTAB
M  END
