
     RDKit          3D

  0  0  0  0  0  0  0  0  0  0999 V3000
M  V30 BEGIN CTAB
M  V30 COUNTS 31 31 0 0 0
M  V30 BEGIN ATOM
M  V30 1 C -3.82014 -0.310382 -0.557721 0
M  V30 2 C -2.42359 0.00727803 -0.0198408 0
M  V30 3 N -2.3916 -0.451314 1.35741 0
M  V30 4 C -1.4153 -0.826439 -0.779271 0
M  V30 5 C -0.0191943 -0.61066 -0.346292 0
M  V30 6 C 0.765461 0.34534 -0.943605 0
M  V30 7 C 2.0908 0.559014 -0.53982 0
M  V30 8 C 2.62953 -0.191432 0.468387 0
M  V30 9 C 4.04354 -0.00268697 0.938732 0
M  V30 10 N 4.633 1.04148 0.160654 0
M  V30 11 C 1.81622 -1.15704 1.06182 0
M  V30 12 C 0.507244 -1.37633 0.671396 0
M  V30 13 C -2.21157 1.44709 -0.138058 0
M  V30 14 O -2.24761 2.10549 -1.35187 0
M  V30 15 O -1.98714 2.13374 0.886928 0
M  V30 16 H -3.86334 -1.40329 -0.811508 0
M  V30 17 H -4.53916 -0.112875 0.255796 0
M  V30 18 H -4.04366 0.22842 -1.47918 0
M  V30 19 H -1.52888 -0.052943 1.78807 0
M  V30 20 H -2.37165 -1.48016 1.33591 0
M  V30 21 H -1.65346 -1.90777 -0.718293 0
M  V30 22 H -1.53676 -0.571377 -1.87329 0
M  V30 23 H 0.358111 0.937489 -1.73456 0
M  V30 24 H 2.69864 1.3193 -1.02228 0
M  V30 25 H 3.98078 0.237375 2.01324 0
M  V30 26 H 4.6412 -0.921348 0.820263 0
M  V30 27 H 4.11106 1.93269 0.311882 0
M  V30 28 H 4.64922 0.762805 -0.82954 0
M  V30 29 H 2.24179 -1.74151 1.84978 0
M  V30 30 H -0.0750576 -2.14143 1.16996 0
M  V30 31 H -3.03849 2.20149 -1.94509 0
M  V30 END ATOM
M  V30 BEGIN BOND
M  V30 1 1 1 2
M  V30 2 1 2 3
M  V30 3 1 2 4
M  V30 4 1 4 5
M  V30 5 2 5 6
M  V30 6 1 6 7
M  V30 7 2 7 8
M  V30 8 1 8 9
M  V30 9 1 9 10
M  V30 10 1 8 11
M  V30 11 2 11 12
M  V30 12 1 2 13
M  V30 13 1 13 14
M  V30 14 2 13 15
M  V30 15 1 12 5
M  V30 16 1 1 16
M  V30 17 1 1 17
M  V30 18 1 1 18
M  V30 19 1 3 19
M  V30 20 1 3 20
M  V30 21 1 4 21
M  V30 22 1 4 22
M  V30 23 1 6 23
M  V30 24 1 7 24
M  V30 25 1 9 25
M  V30 26 1 9 26
M  V30 27 1 10 27
M  V30 28 1 10 28
M  V30 29 1 11 29
M  V30 30 1 12 30
M  V30 31 1 14 31
M  V30 END BOND
M  V30 END CTAB
M  END
