
     RDKit          3D

  0  0  0  0  0  0  0  0  0  0999 V3000
M  V30 BEGIN CTAB
M  V30 COUNTS 50 52 0 0 0
M  V30 BEGIN ATOM
M  V30 1 C 0.683804 -0.348279 0.13171 0 CFG=2
M  V30 2 S 0.82472 -1.3274 -1.36027 0
M  V30 3 C -0.845514 -1.74865 -1.68247 0
M  V30 4 C -1.93591 -0.966001 -1.04019 0
M  V30 5 C -3.24614 -1.41089 -1.49084 0
M  V30 6 C -3.38666 -2.41142 -2.38771 0
M  V30 7 C -1.81671 -0.00477366 -0.182158 0
M  V30 8 N -0.489333 0.385548 0.226373 0
M  V30 9 C 0.30476 1.39183 0.799372 0
M  V30 10 O 0.0945675 2.28543 1.66554 0
M  V30 11 C 1.42888 0.929622 -0.0443828 0
M  V30 12 N 2.71107 0.821881 0.605451 0
M  V30 13 C 3.94157 1.11832 0.0225621 0
M  V30 14 O 3.99959 1.51693 -1.16537 0
M  V30 15 C 5.19638 0.96735 0.795953 0
M  V30 16 O 4.94678 0.509216 2.09447 0
M  V30 17 C 6.12053 -0.0325785 0.114464 0
M  V30 18 C 5.88632 -1.38473 0.217748 0
M  V30 19 S 7.1744 -2.02928 -0.70032 0
M  V30 20 C 7.92392 -0.565518 -1.15483 0
M  V30 21 N 9.10644 -0.352279 -1.96248 0
M  V30 22 N 7.14878 0.339723 -0.57997 0
M  V30 23 C -2.95754 0.71439 0.401253 0
M  V30 24 O -2.65388 1.65279 1.24966 0
M  V30 25 O -4.2592 0.482525 0.131853 0
M  V30 26 C -5.3248 1.16754 0.698013 0
M  V30 27 C -5.40072 0.967611 2.17942 0
M  V30 28 N -5.55602 -0.469754 2.39978 0
M  V30 29 C -6.5836 1.67404 2.76066 0
M  V30 30 O -7.5859 0.962251 3.37494 0
M  V30 31 O -6.65032 2.91098 2.68215 0
M  V30 32 H 0.962488 -0.883537 1.00263 0
M  V30 33 H -1.04184 -2.8578 -1.51534 0
M  V30 34 H -1.02567 -1.6163 -2.79471 0
M  V30 35 H -4.15895 -1.01028 -1.17069 0
M  V30 36 H -4.36047 -2.74664 -2.72646 0
M  V30 37 H -2.53887 -2.9099 -2.7986 0
M  V30 38 H 1.4119 1.26817 -1.08324 0
M  V30 39 H 2.68016 0.490114 1.59863 0
M  V30 40 H 5.69449 1.95211 0.915983 0
M  V30 41 H 4.4715 -0.350527 2.09449 0
M  V30 42 H 5.06318 -1.88189 0.765037 0
M  V30 43 H 9.95157 -0.940104 -1.83858 0
M  V30 44 H 9.02364 0.427739 -2.65881 0
M  V30 45 H -6.25371 0.783541 0.215211 0
M  V30 46 H -5.22711 2.27308 0.529788 0
M  V30 47 H -4.50698 1.34425 2.69195 0
M  V30 48 H -4.88659 -0.959367 1.78581 0
M  V30 49 H -6.51169 -0.730011 2.09672 0
M  V30 50 H -7.54731 0.600951 4.31466 0
M  V30 END ATOM
M  V30 BEGIN BOND
M  V30 1 1 1 2
M  V30 2 1 2 3
M  V30 3 1 3 4
M  V30 4 1 4 5
M  V30 5 2 5 6 CFG=2
M  V30 6 2 4 7
M  V30 7 1 7 8
M  V30 8 1 8 9
M  V30 9 2 9 10
M  V30 10 1 9 11
M  V30 11 1 11 12
M  V30 12 1 12 13
M  V30 13 2 13 14
M  V30 14 1 13 15
M  V30 15 1 15 16
M  V30 16 1 15 17
M  V30 17 2 17 18
M  V30 18 1 18 19
M  V30 19 1 19 20
M  V30 20 1 20 21
M  V30 21 2 20 22
M  V30 22 1 7 23
M  V30 23 2 23 24
M  V30 24 1 23 25
M  V30 25 1 25 26
M  V30 26 1 26 27
M  V30 27 1 27 28
M  V30 28 1 27 29
M  V30 29 1 29 30
M  V30 30 2 29 31
M  V30 31 1 8 1
M  V30 32 1 22 17
M  V30 33 1 11 1
M  V30 34 1 1 32 CFG=1
M  V30 35 1 3 33
M  V30 36 1 3 34
M  V30 37 1 5 35
M  V30 38 1 6 36
M  V30 39 1 6 37
M  V30 40 1 11 38
M  V30 41 1 12 39
M  V30 42 1 15 40
M  V30 43 1 16 41
M  V30 44 1 18 42
M  V30 45 1 21 43
M  V30 46 1 21 44
M  V30 47 1 26 45
M  V30 48 1 26 46
M  V30 49 1 27 47
M  V30 50 1 28 48
M  V30 51 1 28 49
M  V30 52 1 30 50
M  V30 END BOND
M  V30 END CTAB
M  END
