
     RDKit          3D

  0  0  0  0  0  0  0  0  0  0999 V3000
M  V30 BEGIN CTAB
M  V30 COUNTS 40 42 0 0 0
M  V30 BEGIN ATOM
M  V30 1 N 3.49644 1.33525 1.5793 0
M  V30 2 C 3.7833 0.467773 0.485465 0
M  V30 3 C 5.11137 0.19879 0.221107 0
M  V30 4 C 5.43832 -0.622301 -0.812286 0
M  V30 5 C 4.4396 -1.17252 -1.57875 0
M  V30 6 C 3.11429 -0.905281 -1.31643 0
M  V30 7 C 2.75887 -0.0698844 -0.266393 0
M  V30 8 N 1.39098 0.204348 0.00371913 0
M  V30 9 C 0.73683 -0.11219 1.23523 0
M  V30 10 C -0.633349 0.577535 1.23725 0
M  V30 11 N -1.40274 0.22864 0.0455407 0
M  V30 12 C -0.716141 0.119509 -1.20957 0
M  V30 13 C 0.635646 0.842951 -1.0467 0
M  V30 14 C -2.80387 0.0445138 0.218213 0
M  V30 15 C -3.4645 0.522263 1.34211 0
M  V30 16 C -4.81908 0.397277 1.55463 0
M  V30 17 C -5.57371 -0.241741 0.593921 0
M  V30 18 C -4.96728 -0.734491 -0.540536 0
M  V30 19 C -3.58088 -0.59034 -0.726354 0
M  V30 20 N -3.04732 -1.14138 -1.913 0
M  V30 21 H 2.88274 2.15388 1.39929 0
M  V30 22 H 3.89173 1.14746 2.52008 0
M  V30 23 H 5.90411 0.6392 0.8342 0
M  V30 24 H 6.48878 -0.854051 -1.04574 0
M  V30 25 H 4.72 -1.83067 -2.40596 0
M  V30 26 H 2.33527 -1.34095 -1.9226 0
M  V30 27 H 1.24937 0.183614 2.14549 0
M  V30 28 H 0.563579 -1.20526 1.25934 0
M  V30 29 H -1.11315 0.190334 2.17532 0
M  V30 30 H -0.463131 1.65395 1.3375 0
M  V30 31 H -0.514889 -0.922809 -1.46059 0
M  V30 32 H -1.25759 0.627632 -2.04088 0
M  V30 33 H 0.39861 1.90879 -0.803155 0
M  V30 34 H 1.13221 0.752551 -2.03349 0
M  V30 35 H -2.89872 1.03689 2.11369 0
M  V30 36 H -5.29881 0.786144 2.45074 0
M  V30 37 H -6.64407 -0.358266 0.727719 0
M  V30 38 H -5.56195 -1.23393 -1.29003 0
M  V30 39 H -3.13796 -0.62853 -2.80162 0
M  V30 40 H -2.5729 -2.05469 -1.88119 0
M  V30 END ATOM
M  V30 BEGIN BOND
M  V30 1 1 1 2
M  V30 2 2 2 3
M  V30 3 1 3 4
M  V30 4 2 4 5
M  V30 5 1 5 6
M  V30 6 2 6 7
M  V30 7 1 7 8
M  V30 8 1 8 9
M  V30 9 1 9 10
M  V30 10 1 10 11
M  V30 11 1 11 12
M  V30 12 1 12 13
M  V30 13 1 11 14
M  V30 14 2 14 15
M  V30 15 1 15 16
M  V30 16 2 16 17
M  V30 17 1 17 18
M  V30 18 2 18 19
M  V30 19 1 19 20
M  V30 20 1 7 2
M  V30 21 1 13 8
M  V30 22 1 19 14
M  V30 23 1 1 21
M  V30 24 1 1 22
M  V30 25 1 3 23
M  V30 26 1 4 24
M  V30 27 1 5 25
M  V30 28 1 6 26
M  V30 29 1 9 27
M  V30 30 1 9 28
M  V30 31 1 10 29
M  V30 32 1 10 30
M  V30 33 1 12 31
M  V30 34 1 12 32
M  V30 35 1 13 33
M  V30 36 1 13 34
M  V30 37 1 15 35
M  V30 38 1 16 36
M  V30 39 1 17 37
M  V30 40 1 18 38
M  V30 41 1 20 39
M  V30 42 1 20 40
M  V30 END BOND
M  V30 END CTAB
M  END
