
     RDKit          3D

  0  0  0  0  0  0  0  0  0  0999 V3000
M  V30 BEGIN CTAB
M  V30 COUNTS 56 59 0 0 0
M  V30 BEGIN ATOM
M  V30 1 N 9.26196 1.23473 1.30661 0
M  V30 2 C 9.2532 0.0372439 0.499608 0
M  V30 3 N 10.3688 -0.552661 0.356905 0
M  V30 4 C 8.0094 -0.394969 -0.0739188 0
M  V30 5 C 7.92765 -1.51875 -0.847786 0
M  V30 6 C 6.75714 -1.95053 -1.40366 0
M  V30 7 C 5.55701 -1.24124 -1.19931 0
M  V30 8 O 4.44163 -1.73001 -1.78505 0
M  V30 9 C 3.15485 -1.24164 -1.70643 0
M  V30 10 C 2.57754 -1.32102 -0.335322 0
M  V30 11 C 1.16436 -0.751811 -0.27475 0
M  V30 12 O 1.15474 0.610161 -0.66161 0
M  V30 13 C -0.0413157 1.32747 -0.677504 0
M  V30 14 C -1.24426 0.725848 -0.316148 0
M  V30 15 C -2.43924 1.40556 -0.321497 0
M  V30 16 C -2.42865 2.73079 -0.70114 0
M  V30 17 C -1.26023 3.36454 -1.06621 0
M  V30 18 C -0.0795156 2.65464 -1.05 0
M  V30 19 C -3.69364 0.734886 0.0678026 0
M  V30 20 C -4.93431 1.3373 0.0914341 0
M  V30 21 C -5.86749 0.406562 0.50435 0
M  V30 22 C -7.22761 0.409137 0.718099 0
M  V30 23 C -7.88288 -0.721143 1.14418 0
M  V30 24 C -7.16455 -1.87329 1.35989 0
M  V30 25 C -5.7891 -1.88168 1.14538 0
M  V30 26 C -5.12223 -0.755853 0.718745 0
M  V30 27 O -3.84903 -0.49733 0.444148 0
M  V30 28 C -9.3202 -0.652225 1.35115 0
M  V30 29 N -10.0747 0.528247 1.133 0
M  V30 30 N -9.94325 -1.70304 1.74951 0
M  V30 31 C 5.63819 -0.111907 -0.42322 0
M  V30 32 C 6.84086 0.303945 0.1299 0
M  V30 33 H 9.65157 2.12365 0.944802 0
M  V30 34 H 8.85954 1.14945 2.25688 0
M  V30 35 H 10.4772 -1.40362 -0.190498 0
M  V30 36 H 8.84212 -2.08726 -1.02234 0
M  V30 37 H 6.75745 -2.84183 -2.00266 0
M  V30 38 H 3.20874 -0.156302 -2.04456 0
M  V30 39 H 2.46779 -1.76414 -2.44146 0
M  V30 40 H 3.23818 -0.976544 0.435587 0
M  V30 41 H 2.40538 -2.43995 -0.147684 0
M  V30 42 H 0.51416 -1.35861 -0.903797 0
M  V30 43 H 0.838508 -0.847263 0.78096 0
M  V30 44 H -1.24353 -0.322511 -0.0172737 0
M  V30 45 H -3.37386 3.28634 -0.710477 0
M  V30 46 H -1.27915 4.41646 -1.36324 0
M  V30 47 H 0.852523 3.14852 -1.33788 0
M  V30 48 H -5.15509 2.35443 -0.164197 0
M  V30 49 H -7.80737 1.30063 0.554967 0
M  V30 50 H -7.68173 -2.75107 1.6921 0
M  V30 51 H -5.26617 -2.81214 1.32861 0
M  V30 52 H -10.7777 0.518299 0.36749 0
M  V30 53 H -9.96875 1.39565 1.68706 0
M  V30 54 H -10.953 -1.76027 1.92508 0
M  V30 55 H 4.77612 0.498249 -0.239986 0
M  V30 56 H 6.87199 1.1943 0.735354 0
M  V30 END ATOM
M  V30 BEGIN BOND
M  V30 1 1 1 2
M  V30 2 2 2 3 CFG=2
M  V30 3 1 2 4
M  V30 4 2 4 5
M  V30 5 1 5 6
M  V30 6 2 6 7
M  V30 7 1 7 8
M  V30 8 1 8 9
M  V30 9 1 9 10
M  V30 10 1 10 11
M  V30 11 1 11 12
M  V30 12 1 12 13
M  V30 13 2 13 14
M  V30 14 1 14 15
M  V30 15 2 15 16
M  V30 16 1 16 17
M  V30 17 2 17 18
M  V30 18 1 15 19
M  V30 19 2 19 20
M  V30 20 1 20 21
M  V30 21 2 21 22
M  V30 22 1 22 23
M  V30 23 2 23 24
M  V30 24 1 24 25
M  V30 25 2 25 26
M  V30 26 1 26 27
M  V30 27 1 23 28
M  V30 28 1 28 29
M  V30 29 2 28 30 CFG=2
M  V30 30 1 7 31
M  V30 31 2 31 32
M  V30 32 1 32 4
M  V30 33 1 18 13
M  V30 34 1 27 19
M  V30 35 1 26 21
M  V30 36 1 1 33
M  V30 37 1 1 34
M  V30 38 1 3 35
M  V30 39 1 5 36
M  V30 40 1 6 37
M  V30 41 1 9 38
M  V30 42 1 9 39
M  V30 43 1 10 40
M  V30 44 1 10 41
M  V30 45 1 11 42
M  V30 46 1 11 43
M  V30 47 1 14 44
M  V30 48 1 16 45
M  V30 49 1 17 46
M  V30 50 1 18 47
M  V30 51 1 20 48
M  V30 52 1 22 49
M  V30 53 1 24 50
M  V30 54 1 25 51
M  V30 55 1 29 52
M  V30 56 1 29 53
M  V30 57 1 30 54
M  V30 58 1 31 55
M  V30 59 1 32 56
M  V30 END BOND
M  V30 END CTAB
M  END
