
     RDKit          3D

  0  0  0  0  0  0  0  0  0  0999 V3000
M  V30 BEGIN CTAB
M  V30 COUNTS 40 42 0 0 0
M  V30 BEGIN ATOM
M  V30 1 N -1.47976 3.54507 -0.619916 0
M  V30 2 C -1.79797 2.08097 -0.547235 0
M  V30 3 C -0.58948 1.47152 0.0583101 0
M  V30 4 N -0.517334 0.074539 0.266563 0
M  V30 5 C 0.70864 -0.710943 0.314483 0 CFG=1
M  V30 6 C 0.602244 -1.64247 -0.872987 0
M  V30 7 C -0.631139 -2.4714 -0.846712 0
M  V30 8 C -1.76374 -1.93732 -0.0679185 0
M  V30 9 C -1.69232 -0.67982 0.490008 0
M  V30 10 C -2.76028 -0.165863 1.25312 0
M  V30 11 C -3.88944 -0.923035 1.44376 0
M  V30 12 C -3.95184 -2.17476 0.882502 0
M  V30 13 C -2.90155 -2.68026 0.134143 0
M  V30 14 C 1.95042 0.0402578 0.374123 0
M  V30 15 C 2.18702 0.986321 1.32711 0
M  V30 16 C 3.37799 1.67081 1.31516 0
M  V30 17 N 4.28586 1.39795 0.370102 0
M  V30 18 C 4.13446 0.486298 -0.60063 0
M  V30 19 C 2.91567 -0.196041 -0.567507 0
M  V30 20 N 5.11747 0.222196 -1.58521 0
M  V30 21 H -2.28488 4.05956 -1.04868 0
M  V30 22 H -1.42868 3.90476 0.370584 0
M  V30 23 H -1.90931 1.82919 -1.6392 0
M  V30 24 H -2.75206 2.052 -0.081986 0
M  V30 25 H -0.465872 2.0262 1.06245 0
M  V30 26 H 0.270881 1.88427 -0.518477 0
M  V30 27 H 0.688277 -1.35801 1.20764 0
M  V30 28 H 0.687058 -1.02962 -1.80281 0
M  V30 29 H 1.46421 -2.36259 -0.930242 0
M  V30 30 H -0.425525 -3.50995 -0.480517 0
M  V30 31 H -0.947617 -2.64948 -1.92324 0
M  V30 32 H -2.5967 0.814204 1.67001 0
M  V30 33 H -4.71194 -0.560608 2.01494 0
M  V30 34 H -4.82629 -2.83149 0.99767 0
M  V30 35 H -2.95414 -3.65782 -0.301138 0
M  V30 36 H 1.4779 1.23081 2.11661 0
M  V30 37 H 3.618 2.4377 2.05221 0
M  V30 38 H 2.82012 -0.934504 -1.37548 0
M  V30 39 H 5.55628 1.00638 -2.10105 0
M  V30 40 H 5.41537 -0.745017 -1.81055 0
M  V30 END ATOM
M  V30 BEGIN BOND
M  V30 1 1 1 2
M  V30 2 1 2 3
M  V30 3 1 3 4
M  V30 4 1 4 5
M  V30 5 1 5 6
M  V30 6 1 6 7
M  V30 7 1 7 8
M  V30 8 2 8 9
M  V30 9 1 9 10
M  V30 10 2 10 11
M  V30 11 1 11 12
M  V30 12 2 12 13
M  V30 13 1 5 14
M  V30 14 2 14 15
M  V30 15 1 15 16
M  V30 16 2 16 17
M  V30 17 1 17 18
M  V30 18 2 18 19
M  V30 19 1 18 20
M  V30 20 1 9 4
M  V30 21 1 19 14
M  V30 22 1 13 8
M  V30 23 1 1 21
M  V30 24 1 1 22
M  V30 25 1 2 23
M  V30 26 1 2 24
M  V30 27 1 3 25
M  V30 28 1 3 26
M  V30 29 1 5 27 CFG=1
M  V30 30 1 6 28
M  V30 31 1 6 29
M  V30 32 1 7 30
M  V30 33 1 7 31
M  V30 34 1 10 32
M  V30 35 1 11 33
M  V30 36 1 12 34
M  V30 37 1 13 35
M  V30 38 1 15 36
M  V30 39 1 16 37
M  V30 40 1 19 38
M  V30 41 1 20 39
M  V30 42 1 20 40
M  V30 END BOND
M  V30 END CTAB
M  END
