
     RDKit          3D

  0  0  0  0  0  0  0  0  0  0999 V3000
M  V30 BEGIN CTAB
M  V30 COUNTS 39 40 0 0 0
M  V30 BEGIN ATOM
M  V30 1 N -3.03865 1.64016 -1.6044 0
M  V30 2 C -2.84808 2.0347 -0.239316 0
M  V30 3 C -2.70009 0.812629 0.67959 0
M  V30 4 C -3.90449 -0.0568694 0.632045 0
M  V30 5 C -3.54941 -1.49475 0.474417 0
M  V30 6 C -2.47821 -1.82542 1.4917 0
M  V30 7 C -1.18201 -1.11661 1.17798 0
M  V30 8 C -1.3961 0.12582 0.353177 0
M  V30 9 N -0.315136 1.03482 0.649582 0
M  V30 10 C 1.04895 0.66377 0.4034 0
M  V30 11 N 1.50134 -0.47492 -0.0971733 0
M  V30 12 C 2.7764 -0.650874 -0.256604 0
M  V30 13 C 3.60854 0.375539 0.110175 0
M  V30 14 S 2.49027 1.54138 0.667274 0
M  V30 15 S 5.37363 0.433101 0.0139178 0
M  V30 16 O 5.89278 -0.975513 0.173748 0
M  V30 17 O 5.93254 1.2576 1.116 0
M  V30 18 N 5.9071 1.05578 -1.47839 0
M  V30 19 C 3.35658 -1.93306 -0.824969 0
M  V30 20 H -4.04602 1.64489 -1.88139 0
M  V30 21 H -2.45965 2.14379 -2.28507 0
M  V30 22 H -1.95234 2.6594 -0.17473 0
M  V30 23 H -3.72162 2.64319 0.10892 0
M  V30 24 H -2.59945 1.23639 1.69843 0
M  V30 25 H -4.43489 0.0235237 1.62449 0
M  V30 26 H -4.60505 0.31129 -0.150905 0
M  V30 27 H -4.44405 -2.10566 0.731297 0
M  V30 28 H -3.26184 -1.78654 -0.554229 0
M  V30 29 H -2.38768 -2.90753 1.55964 0
M  V30 30 H -2.83447 -1.43763 2.46839 0
M  V30 31 H -0.589684 -1.82213 0.56095 0
M  V30 32 H -0.5943 -0.851568 2.07215 0
M  V30 33 H -1.38538 -0.120812 -0.726202 0
M  V30 34 H -0.484817 1.97749 1.04818 0
M  V30 35 H 6.74735 0.585873 -1.8623 0
M  V30 36 H 5.96043 2.08298 -1.45389 0
M  V30 37 H 2.60147 -2.54229 -1.32107 0
M  V30 38 H 3.82315 -2.51074 -0.0119126 0
M  V30 39 H 4.19287 -1.67115 -1.52909 0
M  V30 END ATOM
M  V30 BEGIN BOND
M  V30 1 1 1 2
M  V30 2 1 2 3
M  V30 3 1 3 4
M  V30 4 1 4 5
M  V30 5 1 5 6
M  V30 6 1 6 7
M  V30 7 1 7 8
M  V30 8 1 8 9
M  V30 9 1 9 10
M  V30 10 2 10 11
M  V30 11 1 11 12
M  V30 12 2 12 13
M  V30 13 1 13 14
M  V30 14 1 13 15
M  V30 15 2 15 16
M  V30 16 2 15 17
M  V30 17 1 15 18
M  V30 18 1 12 19
M  V30 19 1 8 3
M  V30 20 1 14 10
M  V30 21 1 1 20
M  V30 22 1 1 21
M  V30 23 1 2 22
M  V30 24 1 2 23
M  V30 25 1 3 24
M  V30 26 1 4 25
M  V30 27 1 4 26
M  V30 28 1 5 27
M  V30 29 1 5 28
M  V30 30 1 6 29
M  V30 31 1 6 30
M  V30 32 1 7 31
M  V30 33 1 7 32
M  V30 34 1 8 33
M  V30 35 1 9 34
M  V30 36 1 18 35
M  V30 37 1 18 36
M  V30 38 1 19 37
M  V30 39 1 19 38
M  V30 40 1 19 39
M  V30 END BOND
M  V30 END CTAB
M  END
