
     RDKit          3D

  0  0  0  0  0  0  0  0  0  0999 V3000
M  V30 BEGIN CTAB
M  V30 COUNTS 42 43 0 0 0
M  V30 BEGIN ATOM
M  V30 1 N 0.163791 0.90696 2.48988 0
M  V30 2 C -1.10299 0.643046 1.86192 0
M  V30 3 C -1.02623 -0.217295 0.660088 0
M  V30 4 C -2.43601 -0.402524 0.118063 0
M  V30 5 C -3.08109 0.894409 -0.263731 0
M  V30 6 C -3.97933 0.708392 -1.49402 0
M  V30 7 C -4.85495 -0.508134 -1.16093 0
M  V30 8 C -3.94689 -1.71476 -1.27592 0
M  V30 9 C -2.49042 -1.34844 -1.03618 0
M  V30 10 N -0.111876 0.115441 -0.35747 0
M  V30 11 C 1.30959 0.0405391 -0.336067 0
M  V30 12 N 2.16101 -0.36265 0.577552 0
M  V30 13 C 3.44952 -0.335277 0.358351 0
M  V30 14 C 3.86222 0.132699 -0.865625 0
M  V30 15 S 2.35885 0.498503 -1.60921 0
M  V30 16 S 5.49909 0.305044 -1.48987 0
M  V30 17 O 5.47029 0.104301 -2.96803 0
M  V30 18 O 6.40632 -0.714935 -0.887384 0
M  V30 19 N 6.10377 1.87258 -1.09202 0
M  V30 20 C 4.5238 -0.781154 1.35319 0
M  V30 21 H 0.249421 1.84515 2.89157 0
M  V30 22 H 0.480833 0.128854 3.07632 0
M  V30 23 H -1.72808 0.169102 2.67922 0
M  V30 24 H -1.67326 1.6028 1.66447 0
M  V30 25 H -0.74176 -1.26146 1.01364 0
M  V30 26 H -3.06421 -0.845664 0.940142 0
M  V30 27 H -3.76883 1.25804 0.534173 0
M  V30 28 H -2.26759 1.62999 -0.481731 0
M  V30 29 H -3.39228 0.556969 -2.40072 0
M  V30 30 H -4.63883 1.59882 -1.58285 0
M  V30 31 H -5.20023 -0.351324 -0.116307 0
M  V30 32 H -5.74163 -0.561167 -1.79196 0
M  V30 33 H -4.09453 -2.10511 -2.32538 0
M  V30 34 H -4.27546 -2.49979 -0.56431 0
M  V30 35 H -2.08647 -0.951029 -1.97381 0
M  V30 36 H -1.98816 -2.29496 -0.728169 0
M  V30 37 H -0.551479 0.472798 -1.26541 0
M  V30 38 H 6.57624 1.89153 -0.17885 0
M  V30 39 H 5.28862 2.53 -1.14005 0
M  V30 40 H 5.30781 0.00263169 1.41029 0
M  V30 41 H 4.09637 -0.901966 2.34911 0
M  V30 42 H 4.93503 -1.75097 1.00577 0
M  V30 END ATOM
M  V30 BEGIN BOND
M  V30 1 1 1 2
M  V30 2 1 2 3
M  V30 3 1 3 4
M  V30 4 1 4 5
M  V30 5 1 5 6
M  V30 6 1 6 7
M  V30 7 1 7 8
M  V30 8 1 8 9
M  V30 9 1 3 10
M  V30 10 1 10 11
M  V30 11 2 11 12
M  V30 12 1 12 13
M  V30 13 2 13 14
M  V30 14 1 14 15
M  V30 15 1 14 16
M  V30 16 2 16 17
M  V30 17 2 16 18
M  V30 18 1 16 19
M  V30 19 1 13 20
M  V30 20 1 9 4
M  V30 21 1 15 11
M  V30 22 1 1 21
M  V30 23 1 1 22
M  V30 24 1 2 23
M  V30 25 1 2 24
M  V30 26 1 3 25
M  V30 27 1 4 26
M  V30 28 1 5 27
M  V30 29 1 5 28
M  V30 30 1 6 29
M  V30 31 1 6 30
M  V30 32 1 7 31
M  V30 33 1 7 32
M  V30 34 1 8 33
M  V30 35 1 8 34
M  V30 36 1 9 35
M  V30 37 1 9 36
M  V30 38 1 10 37
M  V30 39 1 19 38
M  V30 40 1 19 39
M  V30 41 1 20 40
M  V30 42 1 20 41
M  V30 43 1 20 42
M  V30 END BOND
M  V30 END CTAB
M  END
