
     RDKit          3D

  0  0  0  0  0  0  0  0  0  0999 V3000
M  V30 BEGIN CTAB
M  V30 COUNTS 23 22 0 0 0
M  V30 BEGIN ATOM
M  V30 1 C 2.93212 -1.18516 -0.830808 0
M  V30 2 C 1.81555 -0.895795 0.127436 0
M  V30 3 C 1.12608 0.419584 -0.178545 0
M  V30 4 C 0.0179843 0.665602 0.804851 0
M  V30 5 N -0.994849 -0.331232 0.808141 0
M  V30 6 C -1.98122 -0.45745 0.0411549 0
M  V30 7 N -2.88995 -1.52571 0.202675 0
M  V30 8 N -2.20002 0.470616 -1.00084 0
M  V30 9 C -0.561923 1.98521 0.619161 0
M  V30 10 C -1.03615 3.09337 0.481727 0
M  V30 11 H 2.58927 -1.2149 -1.88769 0
M  V30 12 H 3.30404 -2.20992 -0.598482 0
M  V30 13 H 3.76915 -0.484335 -0.745954 0
M  V30 14 H 2.25661 -0.805077 1.14149 0
M  V30 15 H 1.10565 -1.73032 0.152594 0
M  V30 16 H 1.89093 1.22174 -0.0092736 0
M  V30 17 H 0.80832 0.509949 -1.21759 0
M  V30 18 H 0.499992 0.649481 1.82713 0
M  V30 19 H -3.42387 -1.87614 -0.612391 0
M  V30 20 H -3.07199 -2.00856 1.11748 0
M  V30 21 H -2.98525 1.14044 -1.05332 0
M  V30 22 H -1.51863 0.501806 -1.80396 0
M  V30 23 H -1.45183 4.06681 0.348506 0
M  V30 END ATOM
M  V30 BEGIN BOND
M  V30 1 1 1 2
M  V30 2 1 2 3
M  V30 3 1 3 4
M  V30 4 1 4 5
M  V30 5 2 5 6 CFG=2
M  V30 6 1 6 7
M  V30 7 1 6 8
M  V30 8 1 4 9
M  V30 9 3 9 10
M  V30 10 1 1 11
M  V30 11 1 1 12
M  V30 12 1 1 13
M  V30 13 1 2 14
M  V30 14 1 2 15
M  V30 15 1 3 16
M  V30 16 1 3 17
M  V30 17 1 4 18
M  V30 18 1 7 19
M  V30 19 1 7 20
M  V30 20 1 8 21
M  V30 21 1 8 22
M  V30 22 1 10 23
M  V30 END BOND
M  V30 END CTAB
M  END
