
     RDKit          3D

  0  0  0  0  0  0  0  0  0  0999 V3000
M  V30 BEGIN CTAB
M  V30 COUNTS 43 45 0 0 0
M  V30 BEGIN ATOM
M  V30 1 O -0.0262975 -0.634539 2.82955 0
M  V30 2 C -0.951171 -1.22071 2.18844 0
M  V30 3 N -0.845257 -1.35449 0.804014 0
M  V30 4 C 0.27613 -0.868247 0.0678904 0
M  V30 5 C 1.55442 -0.850771 0.550307 0
M  V30 6 C 2.62734 -0.354295 -0.191689 0
M  V30 7 C 2.41931 0.13898 -1.44912 0
M  V30 8 C 1.15124 0.137224 -1.96328 0
M  V30 9 C 0.0870829 -0.354509 -1.22858 0
M  V30 10 O 3.46577 0.639044 -2.22128 0
M  V30 11 C 4.7731 0.617522 -1.74452 0
M  V30 12 C 5.5355 -0.535868 -1.90604 0
M  V30 13 C 6.84445 -0.57497 -1.4375 0
M  V30 14 C 7.42685 0.503492 -0.807023 0
M  V30 15 C 6.63599 1.63142 -0.665067 0
M  V30 16 C 5.35233 1.68096 -1.12105 0
M  V30 17 Br 9.21166 0.38759 -0.186369 0
M  V30 18 C -2.07231 -1.72356 2.96773 0
M  V30 19 S -3.43551 -2.29044 1.98368 0
M  V30 20 C -4.40312 -1.01044 1.24829 0
M  V30 21 N -4.14772 -0.547006 0.0365385 0
M  V30 22 C -4.87303 0.420932 -0.577856 0
M  V30 23 N -4.57417 0.878339 -1.88005 0
M  V30 24 C -5.95214 0.969503 0.094428 0
M  V30 25 C -6.24249 0.50354 1.3652 0
M  V30 26 N -5.47264 -0.457767 1.8975 0
M  V30 27 N -7.35329 1.0703 2.04707 0
M  V30 28 H -1.6124 -1.8527 0.299825 0
M  V30 29 H 1.80358 -1.24571 1.55053 0
M  V30 30 H 3.62686 -0.348378 0.204847 0
M  V30 31 H 0.946903 0.524523 -2.96303 0
M  V30 32 H -0.931195 -0.377422 -1.59147 0
M  V30 33 H 5.08121 -1.36694 -2.39538 0
M  V30 34 H 7.43119 -1.47594 -1.56627 0
M  V30 35 H 7.11541 2.47523 -0.167617 0
M  V30 36 H 4.79476 2.59332 -0.974037 0
M  V30 37 H -1.74351 -2.50503 3.71771 0
M  V30 38 H -2.47704 -0.905785 3.66056 0
M  V30 39 H -5.30747 1.306 -2.49374 0
M  V30 40 H -3.61123 0.808687 -2.28075 0
M  V30 41 H -6.56016 1.73866 -0.35182 0
M  V30 42 H -7.24767 1.45633 3.00768 0
M  V30 43 H -8.3213 1.13834 1.64174 0
M  V30 END ATOM
M  V30 BEGIN BOND
M  V30 1 2 1 2
M  V30 2 1 2 3
M  V30 3 1 3 4
M  V30 4 2 4 5
M  V30 5 1 5 6
M  V30 6 2 6 7
M  V30 7 1 7 8
M  V30 8 2 8 9
M  V30 9 1 7 10
M  V30 10 1 10 11
M  V30 11 2 11 12
M  V30 12 1 12 13
M  V30 13 2 13 14
M  V30 14 1 14 15
M  V30 15 2 15 16
M  V30 16 1 14 17
M  V30 17 1 2 18
M  V30 18 1 18 19
M  V30 19 1 19 20
M  V30 20 2 20 21
M  V30 21 1 21 22
M  V30 22 1 22 23
M  V30 23 2 22 24
M  V30 24 1 24 25
M  V30 25 2 25 26
M  V30 26 1 25 27
M  V30 27 1 9 4
M  V30 28 1 16 11
M  V30 29 1 26 20
M  V30 30 1 3 28
M  V30 31 1 5 29
M  V30 32 1 6 30
M  V30 33 1 8 31
M  V30 34 1 9 32
M  V30 35 1 12 33
M  V30 36 1 13 34
M  V30 37 1 15 35
M  V30 38 1 16 36
M  V30 39 1 18 37
M  V30 40 1 18 38
M  V30 41 1 23 39
M  V30 42 1 23 40
M  V30 43 1 24 41
M  V30 44 1 27 42
M  V30 45 1 27 43
M  V30 END BOND
M  V30 END CTAB
M  END
