
     RDKit          3D

  0  0  0  0  0  0  0  0  0  0999 V3000
M  V30 BEGIN CTAB
M  V30 COUNTS 37 37 0 0 0
M  V30 BEGIN ATOM
M  V30 1 C 2.92249 1.97724 0.283571 0
M  V30 2 C 2.39698 0.593217 0.538706 0
M  V30 3 C 1.31285 0.209328 -0.479875 0
M  V30 4 C 0.171629 1.13553 -0.418816 0
M  V30 5 C -1.15317 0.59382 -0.0355287 0
M  V30 6 C -2.26988 1.39829 -0.698591 0
M  V30 7 C -2.21758 2.84433 -0.284161 0
M  V30 8 C -1.35502 -0.862296 -0.306082 0
M  V30 9 N -2.60086 -1.27634 0.328236 0
M  V30 10 C -0.206073 -1.58009 0.417329 0
M  V30 11 C -0.407393 -3.05185 0.483121 0
M  V30 12 C 1.0024 -1.24889 -0.409641 0
M  V30 13 N 2.13936 -1.98897 0.0908499 0
M  V30 14 H 3.89634 1.92815 -0.260207 0
M  V30 15 H 2.22739 2.49651 -0.434899 0
M  V30 16 H 3.03145 2.53081 1.22347 0
M  V30 17 H 1.94282 0.583907 1.54892 0
M  V30 18 H 3.21701 -0.134055 0.547179 0
M  V30 19 H 1.82836 0.35529 -1.47839 0
M  V30 20 H 0.031912 1.71148 -1.38311 0
M  V30 21 H 0.411385 1.9578 0.321954 0
M  V30 22 H -1.33216 0.725909 1.07383 0
M  V30 23 H -3.25542 0.930221 -0.516831 0
M  V30 24 H -2.12486 1.36916 -1.80947 0
M  V30 25 H -1.15709 3.15412 -0.196302 0
M  V30 26 H -2.6494 2.91908 0.747832 0
M  V30 27 H -2.76647 3.47255 -1.00751 0
M  V30 28 H -1.35744 -1.11682 -1.37825 0
M  V30 29 H -3.04795 -2.0334 -0.195696 0
M  V30 30 H -2.46051 -1.49115 1.34675 0
M  V30 31 H -0.162919 -1.13412 1.42679 0
M  V30 32 H -0.102069 -3.53019 -0.490167 0
M  V30 33 H -1.44925 -3.33458 0.744811 0
M  V30 34 H 0.232194 -3.45609 1.29147 0
M  V30 35 H 0.799065 -1.65498 -1.43961 0
M  V30 36 H 2.46518 -2.72623 -0.540002 0
M  V30 37 H 2.0467 -2.26669 1.08876 0
M  V30 END ATOM
M  V30 BEGIN BOND
M  V30 1 1 1 2
M  V30 2 1 2 3
M  V30 3 1 3 4
M  V30 4 1 4 5
M  V30 5 1 5 6
M  V30 6 1 6 7
M  V30 7 1 5 8
M  V30 8 1 8 9
M  V30 9 1 8 10
M  V30 10 1 10 11
M  V30 11 1 10 12
M  V30 12 1 12 13
M  V30 13 1 12 3
M  V30 14 1 1 14
M  V30 15 1 1 15
M  V30 16 1 1 16
M  V30 17 1 2 17
M  V30 18 1 2 18
M  V30 19 1 3 19
M  V30 20 1 4 20
M  V30 21 1 4 21
M  V30 22 1 5 22
M  V30 23 1 6 23
M  V30 24 1 6 24
M  V30 25 1 7 25
M  V30 26 1 7 26
M  V30 27 1 7 27
M  V30 28 1 8 28
M  V30 29 1 9 29
M  V30 30 1 9 30
M  V30 31 1 10 31
M  V30 32 1 11 32
M  V30 33 1 11 33
M  V30 34 1 11 34
M  V30 35 1 12 35
M  V30 36 1 13 36
M  V30 37 1 13 37
M  V30 END BOND
M  V30 END CTAB
M  END
