
     RDKit          3D

  0  0  0  0  0  0  0  0  0  0999 V3000
M  V30 BEGIN CTAB
M  V30 COUNTS 39 40 0 0 0
M  V30 BEGIN ATOM
M  V30 1 C 0.0915443 -2.5197 0.0923879 0
M  V30 2 C -0.350998 -1.12849 0.110869 0
M  V30 3 C -1.7858 -0.801733 0.182911 0
M  V30 4 C -2.07701 0.532447 0.0482718 0
M  V30 5 C -3.33414 1.03634 0.105914 0
M  V30 6 C -4.39545 0.140043 0.311606 0
M  V30 7 C -4.13072 -1.19603 0.463396 0
M  V30 8 C -2.82554 -1.66382 0.392992 0
M  V30 9 C -5.1952 -2.17016 0.746166 0
M  V30 10 F -5.44398 -2.88779 -0.410484 0
M  V30 11 F -4.68706 -3.04617 1.71049 0
M  V30 12 F -6.35998 -1.68421 1.22481 0
M  V30 13 C -3.59209 2.49105 -0.105008 0
M  V30 14 F -2.84199 2.91129 -1.22653 0
M  V30 15 F -3.30768 3.27403 0.97362 0
M  V30 16 F -4.93436 2.66648 -0.465036 0
M  V30 17 S 0.31793 -0.154675 -1.28398 0
M  V30 18 C 1.42168 1.0903 -0.741475 0
M  V30 19 C 2.81862 0.872852 -0.410154 0
M  V30 20 N 3.47581 -0.228426 -0.148976 0
M  V30 21 C 4.71843 -0.364952 0.151778 0
M  V30 22 N 5.50542 -1.56342 0.357325 0
M  V30 23 N 5.49689 0.801778 0.225237 0
M  V30 24 C 4.8867 1.96284 -0.0336536 0
M  V30 25 N 3.60533 2.04069 -0.352891 0
M  V30 26 N 5.68962 3.14241 0.0421944 0
M  V30 27 H 1.10932 -2.59878 -0.3047 0
M  V30 28 H 0.0540512 -2.98018 1.13003 0
M  V30 29 H -0.586145 -3.17818 -0.543868 0
M  V30 30 H 0.0769038 -0.595513 1.07402 0
M  V30 31 H -1.29443 1.26483 -0.136751 0
M  V30 32 H -5.42544 0.50677 0.364483 0
M  V30 33 H -2.63065 -2.75645 0.53218 0
M  V30 34 H 1.40039 2.01736 -1.47576 0
M  V30 35 H 1.00932 1.64739 0.234102 0
M  V30 36 H 5.65187 -2.22995 -0.483106 0
M  V30 37 H 5.96078 -1.8283 1.22217 0
M  V30 38 H 5.7558 3.76291 -0.751528 0
M  V30 39 H 6.15226 3.41511 0.908879 0
M  V30 END ATOM
M  V30 BEGIN BOND
M  V30 1 1 1 2
M  V30 2 1 2 3
M  V30 3 2 3 4
M  V30 4 1 4 5
M  V30 5 2 5 6
M  V30 6 1 6 7
M  V30 7 2 7 8
M  V30 8 1 7 9
M  V30 9 1 9 10
M  V30 10 1 9 11
M  V30 11 1 9 12
M  V30 12 1 5 13
M  V30 13 1 13 14
M  V30 14 1 13 15
M  V30 15 1 13 16
M  V30 16 1 2 17
M  V30 17 1 17 18
M  V30 18 1 18 19
M  V30 19 2 19 20
M  V30 20 1 20 21
M  V30 21 1 21 22
M  V30 22 2 21 23
M  V30 23 1 23 24
M  V30 24 2 24 25
M  V30 25 1 24 26
M  V30 26 1 8 3
M  V30 27 1 25 19
M  V30 28 1 1 27
M  V30 29 1 1 28
M  V30 30 1 1 29
M  V30 31 1 2 30
M  V30 32 1 4 31
M  V30 33 1 6 32
M  V30 34 1 8 33
M  V30 35 1 18 34
M  V30 36 1 18 35
M  V30 37 1 22 36
M  V30 38 1 22 37
M  V30 39 1 26 38
M  V30 40 1 26 39
M  V30 END BOND
M  V30 END CTAB
M  END
