
     RDKit          3D

  0  0  0  0  0  0  0  0  0  0999 V3000
M  V30 BEGIN CTAB
M  V30 COUNTS 32 35 0 0 0
M  V30 BEGIN ATOM
M  V30 1 N 5.02535 0.594075 1.76731 0
M  V30 2 C 3.67755 0.359374 1.43375 0
M  V30 3 C 2.88019 -0.350758 2.31382 0
M  V30 4 C 1.54365 -0.61103 2.03502 0
M  V30 5 C 1.00189 -0.16054 0.873459 0
M  V30 6 C 1.75558 0.561866 -0.0549092 0
M  V30 7 C 3.08365 0.79479 0.270599 0
M  V30 8 C 1.18113 1.0439 -1.29474 0
M  V30 9 O 1.8666 1.69398 -2.12599 0
M  V30 10 C -0.230577 0.756902 -1.56638 0
M  V30 11 C -0.96946 0.0464178 -0.651967 0
M  V30 12 C -2.30228 -0.215868 -0.924794 0
M  V30 13 C -2.85953 0.236826 -2.09939 0
M  V30 14 C -2.11393 0.943864 -3.00344 0
M  V30 15 C -0.796247 1.21892 -2.76341 0
M  V30 16 C -3.06309 -0.933646 -0.00924987 0
M  V30 17 N -4.41573 -1.17304 -0.336628 0
M  V30 18 C -2.47931 -1.37249 1.1545 0
M  V30 19 C -1.15142 -1.1222 1.44711 0
M  V30 20 C -0.386687 -0.413901 0.551701 0
M  V30 21 H 5.69445 -0.111106 2.09705 0
M  V30 22 H 5.37913 1.57541 1.67113 0
M  V30 23 H 3.30164 -0.712766 3.23922 0
M  V30 24 H 1.02187 -1.16028 2.77037 0
M  V30 25 H 3.68001 1.35077 -0.434506 0
M  V30 26 H -3.88895 0.0244103 -2.29155 0
M  V30 27 H -2.5655 1.29281 -3.92154 0
M  V30 28 H -0.162861 1.77512 -3.44763 0
M  V30 29 H -5.00933 -0.384153 -0.636429 0
M  V30 30 H -4.81693 -2.1193 -0.280855 0
M  V30 31 H -3.09243 -1.92638 1.84602 0
M  V30 32 H -0.788437 -1.50199 2.37235 0
M  V30 END ATOM
M  V30 BEGIN BOND
M  V30 1 1 1 2
M  V30 2 2 2 3
M  V30 3 1 3 4
M  V30 4 2 4 5
M  V30 5 1 5 6
M  V30 6 2 6 7
M  V30 7 1 6 8
M  V30 8 2 8 9
M  V30 9 1 8 10
M  V30 10 2 10 11
M  V30 11 1 11 12
M  V30 12 2 12 13
M  V30 13 1 13 14
M  V30 14 2 14 15
M  V30 15 1 12 16
M  V30 16 1 16 17
M  V30 17 2 16 18
M  V30 18 1 18 19
M  V30 19 2 19 20
M  V30 20 1 7 2
M  V30 21 1 15 10
M  V30 22 1 20 5
M  V30 23 1 20 11
M  V30 24 1 1 21
M  V30 25 1 1 22
M  V30 26 1 3 23
M  V30 27 1 4 24
M  V30 28 1 7 25
M  V30 29 1 13 26
M  V30 30 1 14 27
M  V30 31 1 15 28
M  V30 32 1 17 29
M  V30 33 1 17 30
M  V30 34 1 18 31
M  V30 35 1 19 32
M  V30 END BOND
M  V30 END CTAB
M  END
