
     RDKit          3D

  0  0  0  0  0  0  0  0  0  0999 V3000
M  V30 BEGIN CTAB
M  V30 COUNTS 40 39 0 0 0
M  V30 BEGIN ATOM
M  V30 1 N 5.18213 1.84994 1.07528 0
M  V30 2 N 4.37803 1.41169 0.0257344 0
M  V30 3 C 3.14403 0.737097 0.309731 0
M  V30 4 O 2.79389 0.544505 1.49249 0
M  V30 5 C 2.27632 0.260503 -0.78971 0
M  V30 6 C 2.99121 -0.884086 -1.40963 0
M  V30 7 O 3.30963 -0.836417 -2.60558 0
M  V30 8 N 3.29481 -2.01196 -0.61399 0
M  V30 9 N 3.97168 -3.1067 -1.18278 0
M  V30 10 C 0.938223 -0.188971 -0.325827 0
M  V30 11 C 0.0764586 0.824759 0.336978 0
M  V30 12 C -1.26836 0.205189 0.752197 0
M  V30 13 O -1.98769 -0.204309 -0.34848 0
M  V30 14 C -3.19438 -0.767959 -0.0130358 0
M  V30 15 C -4.12531 0.126235 0.732376 0
M  V30 16 C -5.40569 -0.645888 1.02237 0
M  V30 17 C -4.42843 1.33737 -0.135355 0
M  V30 18 O -0.153092 1.94082 -0.488806 0
M  V30 19 H 5.45392 2.84328 0.958475 0
M  V30 20 H 6.03681 1.28447 1.21304 0
M  V30 21 H 4.63903 1.55537 -0.972389 0
M  V30 22 H 2.14018 1.08678 -1.55235 0
M  V30 23 H 3.04775 -2.09827 0.395306 0
M  V30 24 H 4.9407 -2.88206 -1.46248 0
M  V30 25 H 3.88284 -3.96411 -0.593615 0
M  V30 26 H 0.327606 -0.596456 -1.18952 0
M  V30 27 H 1.07514 -1.11192 0.315869 0
M  V30 28 H 0.563861 1.22003 1.2371 0
M  V30 29 H -1.79462 0.944033 1.39561 0
M  V30 30 H -1.02662 -0.694901 1.3502 0
M  V30 31 H -3.71247 -1.07537 -0.959449 0
M  V30 32 H -3.09015 -1.71006 0.572229 0
M  V30 33 H -3.74683 0.487 1.69042 0
M  V30 34 H -6.06419 -0.687 0.136438 0
M  V30 35 H -5.10907 -1.66984 1.31673 0
M  V30 36 H -5.91137 -0.170082 1.89878 0
M  V30 37 H -3.73269 2.15831 0.139284 0
M  V30 38 H -5.44879 1.71887 0.0203587 0
M  V30 39 H -4.2573 1.12094 -1.20813 0
M  V30 40 H -0.0071894 1.64913 -1.43315 0
M  V30 END ATOM
M  V30 BEGIN BOND
M  V30 1 1 1 2
M  V30 2 1 2 3
M  V30 3 2 3 4
M  V30 4 1 3 5
M  V30 5 1 5 6
M  V30 6 2 6 7
M  V30 7 1 6 8
M  V30 8 1 8 9
M  V30 9 1 5 10
M  V30 10 1 10 11
M  V30 11 1 11 12
M  V30 12 1 12 13
M  V30 13 1 13 14
M  V30 14 1 14 15
M  V30 15 1 15 16
M  V30 16 1 15 17
M  V30 17 1 11 18
M  V30 18 1 1 19
M  V30 19 1 1 20
M  V30 20 1 2 21
M  V30 21 1 5 22
M  V30 22 1 8 23
M  V30 23 1 9 24
M  V30 24 1 9 25
M  V30 25 1 10 26
M  V30 26 1 10 27
M  V30 27 1 11 28
M  V30 28 1 12 29
M  V30 29 1 12 30
M  V30 30 1 14 31
M  V30 31 1 14 32
M  V30 32 1 15 33
M  V30 33 1 16 34
M  V30 34 1 16 35
M  V30 35 1 16 36
M  V30 36 1 17 37
M  V30 37 1 17 38
M  V30 38 1 17 39
M  V30 39 1 18 40
M  V30 END BOND
M  V30 END CTAB
M  END
