
     RDKit          3D

  0  0  0  0  0  0  0  0  0  0999 V3000
M  V30 BEGIN CTAB
M  V30 COUNTS 40 42 0 0 0
M  V30 BEGIN ATOM
M  V30 1 C 3.85324 1.92278 0.59789 0
M  V30 2 N 3.05908 0.781638 0.215596 0
M  V30 3 C 3.58237 -0.435377 -0.117898 0
M  V30 4 O 4.82035 -0.520639 -0.108903 0
M  V30 5 N 2.79438 -1.46184 -0.419643 0
M  V30 6 C 3.39703 -2.82027 -0.525993 0
M  V30 7 C 1.47388 -1.45747 -0.46468 0
M  V30 8 C 0.876232 -0.191393 -0.0990098 0
M  V30 9 C 1.73915 0.805353 0.201303 0
M  V30 10 O 1.2284 1.96604 0.512553 0
M  V30 11 C -0.472092 -0.0827816 -0.00280881 0
M  V30 12 C -1.34031 -1.194 -0.268983 0
M  V30 13 C -2.63505 -1.03966 0.405257 0
M  V30 14 N -3.87197 -1.00267 -0.113718 0
M  V30 15 C -0.734468 -2.35154 -0.61664 0
M  V30 16 N -1.53723 -3.44658 -0.996451 0
M  V30 17 N 0.638253 -2.46626 -0.708572 0
M  V30 18 C -1.17363 1.16125 0.203321 0
M  V30 19 C -1.61628 1.78098 -0.980133 0
M  V30 20 Br -1.29583 0.955775 -2.69607 0
M  V30 21 C -2.27491 2.95213 -1.00578 0
M  V30 22 C -2.57542 3.55941 0.205922 0
M  V30 23 C -2.17524 2.96365 1.38095 0
M  V30 24 F -2.3725 3.61492 2.53287 0
M  V30 25 C -1.45516 1.77694 1.36828 0
M  V30 26 H 4.39844 2.31877 -0.268093 0
M  V30 27 H 4.55395 1.72119 1.45693 0
M  V30 28 H 3.1751 2.75028 0.971168 0
M  V30 29 H 2.92528 -3.44401 -1.26263 0
M  V30 30 H 3.24659 -3.23366 0.552687 0
M  V30 31 H 4.47644 -2.69927 -0.593723 0
M  V30 32 H -2.51465 -0.64046 1.47429 0
M  V30 33 H -2.72395 -2.25617 0.863006 0
M  V30 34 H -4.44232 -0.315378 0.583623 0
M  V30 35 H -4.52927 -1.58567 -0.477655 0
M  V30 36 H -1.57344 -4.31123 -0.451104 0
M  V30 37 H -2.14548 -3.35761 -1.85682 0
M  V30 38 H -2.58522 3.43895 -1.92061 0
M  V30 39 H -3.07882 4.50298 0.160712 0
M  V30 40 H -1.11492 1.3409 2.26956 0
M  V30 END ATOM
M  V30 BEGIN BOND
M  V30 1 1 1 2
M  V30 2 1 2 3
M  V30 3 2 3 4
M  V30 4 1 3 5
M  V30 5 1 5 6
M  V30 6 1 5 7
M  V30 7 2 7 8
M  V30 8 1 8 9
M  V30 9 2 9 10
M  V30 10 1 8 11
M  V30 11 2 11 12
M  V30 12 1 12 13
M  V30 13 1 13 14
M  V30 14 1 12 15
M  V30 15 1 15 16
M  V30 16 2 15 17
M  V30 17 1 11 18
M  V30 18 2 18 19
M  V30 19 1 19 20
M  V30 20 1 19 21
M  V30 21 2 21 22
M  V30 22 1 22 23
M  V30 23 1 23 24
M  V30 24 2 23 25
M  V30 25 1 9 2
M  V30 26 1 25 18
M  V30 27 1 17 7
M  V30 28 1 1 26
M  V30 29 1 1 27
M  V30 30 1 1 28
M  V30 31 1 6 29
M  V30 32 1 6 30
M  V30 33 1 6 31
M  V30 34 1 13 32
M  V30 35 1 13 33
M  V30 36 1 14 34
M  V30 37 1 14 35
M  V30 38 1 16 36
M  V30 39 1 16 37
M  V30 40 1 21 38
M  V30 41 1 22 39
M  V30 42 1 25 40
M  V30 END BOND
M  V30 END CTAB
M  END
