
     RDKit          3D

  0  0  0  0  0  0  0  0  0  0999 V3000
M  V30 BEGIN CTAB
M  V30 COUNTS 35 36 0 0 0
M  V30 BEGIN ATOM
M  V30 1 O 1.26245 -0.0904682 -0.943787 0
M  V30 2 C 1.44382 -0.34324 0.273061 0
M  V30 3 C 2.67241 0.261526 0.890303 0
M  V30 4 N 3.80944 -0.63884 0.752004 0
M  V30 5 N 4.23946 -1.58476 1.5436 0
M  V30 6 N 5.31327 -2.17123 1.04836 0
M  V30 7 C 5.60751 -1.57203 -0.145192 0
M  V30 8 C 4.63743 -0.607934 -0.302662 0
M  V30 9 N 6.67855 -1.88682 -1.01458 0
M  V30 10 N 0.538764 -1.14769 0.999325 0
M  V30 11 C -0.593756 -1.67971 0.342177 0
M  V30 12 C -1.71118 -0.737152 0.108398 0
M  V30 13 C -2.45712 -0.745608 -1.05353 0
M  V30 14 C -3.50837 0.137181 -1.2475 0
M  V30 15 C -3.87027 1.06987 -0.298775 0
M  V30 16 C -3.12634 1.08171 0.864014 0
M  V30 17 C -2.08224 0.201277 1.05015 0
M  V30 18 S -5.21338 2.17512 -0.54601 0
M  V30 19 O -5.88574 2.4421 0.772971 0
M  V30 20 O -6.15334 1.48197 -1.50007 0
M  V30 21 N -4.65601 3.60774 -1.29469 0
M  V30 22 H 2.88581 1.26634 0.472225 0
M  V30 23 H 2.53569 0.417387 1.98364 0
M  V30 24 H 4.59895 0.0405338 -1.16031 0
M  V30 25 H 6.54594 -1.84223 -2.03485 0
M  V30 26 H 7.58962 -2.16101 -0.622772 0
M  V30 27 H 0.712668 -1.32768 1.99912 0
M  V30 28 H -0.248355 -2.08461 -0.648032 0
M  V30 29 H -0.9277 -2.58886 0.902825 0
M  V30 30 H -2.19133 -1.47717 -1.82405 0
M  V30 31 H -4.08328 0.116467 -2.16716 0
M  V30 32 H -3.40802 1.82062 1.62319 0
M  V30 33 H -1.4968 0.214161 1.97252 0
M  V30 34 H -5.42605 4.16762 -1.72954 0
M  V30 35 H -4.03247 4.18542 -0.681631 0
M  V30 END ATOM
M  V30 BEGIN BOND
M  V30 1 2 1 2
M  V30 2 1 2 3
M  V30 3 1 3 4
M  V30 4 1 4 5
M  V30 5 2 5 6
M  V30 6 1 6 7
M  V30 7 2 7 8
M  V30 8 1 7 9
M  V30 9 1 2 10
M  V30 10 1 10 11
M  V30 11 1 11 12
M  V30 12 2 12 13
M  V30 13 1 13 14
M  V30 14 2 14 15
M  V30 15 1 15 16
M  V30 16 2 16 17
M  V30 17 1 15 18
M  V30 18 2 18 19
M  V30 19 2 18 20
M  V30 20 1 18 21
M  V30 21 1 8 4
M  V30 22 1 17 12
M  V30 23 1 3 22
M  V30 24 1 3 23
M  V30 25 1 8 24
M  V30 26 1 9 25
M  V30 27 1 9 26
M  V30 28 1 10 27
M  V30 29 1 11 28
M  V30 30 1 11 29
M  V30 31 1 13 30
M  V30 32 1 14 31
M  V30 33 1 16 32
M  V30 34 1 17 33
M  V30 35 1 21 34
M  V30 36 1 21 35
M  V30 END BOND
M  V30 END CTAB
M  END
