
     RDKit          3D

  0  0  0  0  0  0  0  0  0  0999 V3000
M  V30 BEGIN CTAB
M  V30 COUNTS 47 49 0 0 0
M  V30 BEGIN ATOM
M  V30 1 C 6.40528 0.657758 1.71624 0
M  V30 2 C 6.2893 -0.819253 1.49559 0
M  V30 3 O 5.90258 -1.13341 0.15255 0
M  V30 4 C 4.68955 -0.656949 -0.347047 0
M  V30 5 C 4.32073 -0.960969 -1.63943 0
M  V30 6 C 3.12466 -0.507116 -2.17251 0
M  V30 7 C 2.28375 0.263036 -1.40135 0
M  V30 8 C 2.67286 0.553747 -0.114247 0
M  V30 9 N 3.85613 0.0935449 0.384749 0
M  V30 10 C 0.989811 0.796035 -1.8876 0
M  V30 11 N -0.0556282 -0.166924 -1.81399 0
M  V30 12 C -1.30146 0.385577 -2.29967 0
M  V30 13 C -2.03864 1.18242 -1.26711 0
M  V30 14 N -2.1471 0.352777 -0.06376 0
M  V30 15 C -0.926828 -0.128791 0.492786 0
M  V30 16 C -0.188171 -0.883353 -0.592957 0
M  V30 17 C -3.45674 0.0875136 0.461988 0
M  V30 18 C -3.66447 -0.676355 1.58925 0
M  V30 19 C -4.95203 -0.919185 2.07982 0
M  V30 20 N -5.16373 -1.70825 3.2439 0
M  V30 21 N -5.96491 -0.380711 1.41068 0
M  V30 22 C -5.80491 0.378206 0.295737 0
M  V30 23 N -4.55348 0.584682 -0.138341 0
M  V30 24 N -6.93807 0.917761 -0.361832 0
M  V30 25 H 6.37465 1.14744 0.722613 0
M  V30 26 H 7.3541 0.869702 2.25918 0
M  V30 27 H 5.5362 1.05523 2.29866 0
M  V30 28 H 7.17816 -1.39676 1.78878 0
M  V30 29 H 5.44497 -1.1922 2.14499 0
M  V30 30 H 4.98668 -1.56229 -2.22826 0
M  V30 31 H 2.8298 -0.739023 -3.17749 0
M  V30 32 H 2.01224 1.16163 0.496642 0
M  V30 33 H 1.14812 1.03243 -2.97949 0
M  V30 34 H 0.76542 1.73477 -1.33719 0
M  V30 35 H -1.06694 1.0624 -3.14674 0
M  V30 36 H -1.97611 -0.392946 -2.69786 0
M  V30 37 H -3.02787 1.42781 -1.65049 0
M  V30 38 H -1.47983 2.10847 -1.03352 0
M  V30 39 H -0.3219 0.756452 0.845308 0
M  V30 40 H -1.00454 -0.791127 1.35217 0
M  V30 41 H 0.767475 -1.30047 -0.285086 0
M  V30 42 H -0.851056 -1.77277 -0.819195 0
M  V30 43 H -2.84852 -1.10378 2.11928 0
M  V30 44 H -5.15547 -2.75712 3.19751 0
M  V30 45 H -5.3283 -1.21664 4.15004 0
M  V30 46 H -7.8036 1.17964 0.14611 0
M  V30 47 H -6.91216 1.06048 -1.38943 0
M  V30 END ATOM
M  V30 BEGIN BOND
M  V30 1 1 1 2
M  V30 2 1 2 3
M  V30 3 1 3 4
M  V30 4 2 4 5
M  V30 5 1 5 6
M  V30 6 2 6 7
M  V30 7 1 7 8
M  V30 8 2 8 9
M  V30 9 1 7 10
M  V30 10 1 10 11
M  V30 11 1 11 12
M  V30 12 1 12 13
M  V30 13 1 13 14
M  V30 14 1 14 15
M  V30 15 1 15 16
M  V30 16 1 14 17
M  V30 17 2 17 18
M  V30 18 1 18 19
M  V30 19 1 19 20
M  V30 20 2 19 21
M  V30 21 1 21 22
M  V30 22 2 22 23
M  V30 23 1 22 24
M  V30 24 1 9 4
M  V30 25 1 16 11
M  V30 26 1 23 17
M  V30 27 1 1 25
M  V30 28 1 1 26
M  V30 29 1 1 27
M  V30 30 1 2 28
M  V30 31 1 2 29
M  V30 32 1 5 30
M  V30 33 1 6 31
M  V30 34 1 8 32
M  V30 35 1 10 33
M  V30 36 1 10 34
M  V30 37 1 12 35
M  V30 38 1 12 36
M  V30 39 1 13 37
M  V30 40 1 13 38
M  V30 41 1 15 39
M  V30 42 1 15 40
M  V30 43 1 16 41
M  V30 44 1 16 42
M  V30 45 1 18 43
M  V30 46 1 20 44
M  V30 47 1 20 45
M  V30 48 1 24 46
M  V30 49 1 24 47
M  V30 END BOND
M  V30 END CTAB
M  END
