
     RDKit          3D

  0  0  0  0  0  0  0  0  0  0999 V3000
M  V30 BEGIN CTAB
M  V30 COUNTS 21 21 0 0 0
M  V30 BEGIN ATOM
M  V30 1 C -2.18478 0.781899 0.615673 0
M  V30 2 C -1.33703 0.0433291 -0.371731 0
M  V30 3 C -0.0388527 -0.278327 0.265359 0
M  V30 4 N 0.105802 -1.18591 1.24816 0
M  V30 5 N 1.37846 -1.25048 1.56493 0
M  V30 6 C 2.03495 -0.379079 0.778247 0
M  V30 7 N 1.16587 0.228763 -0.02898 0
M  V30 8 N 1.4089 1.20579 -0.99163 0
M  V30 9 N 3.43674 -0.0931573 0.731927 0
M  V30 10 F -1.10777 0.86276 -1.46718 0
M  V30 11 C -2.01978 -1.25928 -0.839635 0
M  V30 12 H -1.97168 0.376226 1.62215 0
M  V30 13 H -3.26741 0.644628 0.37941 0
M  V30 14 H -1.9072 1.85967 0.582291 0
M  V30 15 H 1.31261 2.24073 -0.80422 0
M  V30 16 H 1.70728 0.94517 -1.96584 0
M  V30 17 H 3.92438 0.099071 1.61971 0
M  V30 18 H 3.94574 -0.0756154 -0.160201 0
M  V30 19 H -3.10935 -1.2111 -0.62902 0
M  V30 20 H -1.85271 -1.43904 -1.91423 0
M  V30 21 H -1.62419 -2.11605 -0.235189 0
M  V30 END ATOM
M  V30 BEGIN BOND
M  V30 1 1 1 2
M  V30 2 1 2 3
M  V30 3 2 3 4
M  V30 4 1 4 5
M  V30 5 2 5 6
M  V30 6 1 6 7
M  V30 7 1 7 8
M  V30 8 1 6 9
M  V30 9 1 2 10
M  V30 10 1 2 11
M  V30 11 1 7 3
M  V30 12 1 1 12
M  V30 13 1 1 13
M  V30 14 1 1 14
M  V30 15 1 8 15
M  V30 16 1 8 16
M  V30 17 1 9 17
M  V30 18 1 9 18
M  V30 19 1 11 19
M  V30 20 1 11 20
M  V30 21 1 11 21
M  V30 END BOND
M  V30 END CTAB
M  END
