
     RDKit          3D

  0  0  0  0  0  0  0  0  0  0999 V3000
M  V30 BEGIN CTAB
M  V30 COUNTS 29 29 0 0 0
M  V30 BEGIN ATOM
M  V30 1 O 1.30223 3.17998 0.486699 0
M  V30 2 C 1.57303 1.97928 0.227721 0
M  V30 3 C 2.9447 1.60573 -0.0535116 0
M  V30 4 C 3.37148 0.401372 -0.33747 0
M  V30 5 C 2.40459 -0.712706 -0.387924 0
M  V30 6 C 4.80066 0.16082 -0.603562 0
M  V30 7 O 0.500804 1.10729 0.237423 0
M  V30 8 C -0.825951 1.52549 0.51973 0
M  V30 9 C -1.79112 0.42773 0.471988 0
M  V30 10 N -1.46949 -0.845883 0.191929 0
M  V30 11 C -2.42245 -1.77396 0.172931 0
M  V30 12 N -2.12587 -3.13606 -0.119162 0
M  V30 13 N -3.71484 -1.48188 0.427113 0
M  V30 14 C -4.04348 -0.221764 0.705828 0
M  V30 15 N -3.08207 0.70788 0.723793 0
M  V30 16 N -5.41569 0.0940911 0.976756 0
M  V30 17 H 3.70992 2.40176 -0.029065 0
M  V30 18 H 1.88238 -0.88196 0.582692 0
M  V30 19 H 2.94904 -1.65772 -0.691133 0
M  V30 20 H 1.61693 -0.553184 -1.17051 0
M  V30 21 H 5.07035 -0.911367 -0.594589 0
M  V30 22 H 5.12739 0.628399 -1.55656 0
M  V30 23 H 5.45169 0.633154 0.185379 0
M  V30 24 H -0.842717 1.94874 1.54885 0
M  V30 25 H -1.14242 2.29795 -0.21356 0
M  V30 26 H -1.40191 -3.68384 0.393205 0
M  V30 27 H -2.64258 -3.63475 -0.877413 0
M  V30 28 H -6.05413 0.460775 0.225855 0
M  V30 29 H -5.73051 -0.065361 1.96451 0
M  V30 END ATOM
M  V30 BEGIN BOND
M  V30 1 2 1 2
M  V30 2 1 2 3
M  V30 3 2 3 4 CFG=2
M  V30 4 1 4 5
M  V30 5 1 4 6
M  V30 6 1 2 7
M  V30 7 1 7 8
M  V30 8 1 8 9
M  V30 9 2 9 10
M  V30 10 1 10 11
M  V30 11 1 11 12
M  V30 12 2 11 13
M  V30 13 1 13 14
M  V30 14 2 14 15
M  V30 15 1 14 16
M  V30 16 1 15 9
M  V30 17 1 3 17
M  V30 18 1 5 18
M  V30 19 1 5 19
M  V30 20 1 5 20
M  V30 21 1 6 21
M  V30 22 1 6 22
M  V30 23 1 6 23
M  V30 24 1 8 24
M  V30 25 1 8 25
M  V30 26 1 12 26
M  V30 27 1 12 27
M  V30 28 1 16 28
M  V30 29 1 16 29
M  V30 END BOND
M  V30 END CTAB
M  END
