
     RDKit          3D

  0  0  0  0  0  0  0  0  0  0999 V3000
M  V30 BEGIN CTAB
M  V30 COUNTS 29 30 0 0 0
M  V30 BEGIN ATOM
M  V30 1 C 4.5371 0.412222 -0.381992 0
M  V30 2 C 3.24286 -0.381256 -0.267819 0
M  V30 3 O 3.36923 -1.61254 -0.269699 0
M  V30 4 N 2.06697 0.383742 -0.17461 0
M  V30 5 C 0.764127 -0.102035 -0.0619063 0
M  V30 6 C 0.496466 -1.44776 -0.0301566 0
M  V30 7 C -0.807191 -1.96322 0.082769 0
M  V30 8 N -1.09196 -3.34017 0.116171 0
M  V30 9 C -1.82779 -1.05261 0.162098 0
M  V30 10 N -3.15906 -1.50752 0.276911 0
M  V30 11 C -1.58861 0.300985 0.132684 0
M  V30 12 C -2.65856 1.15978 0.21652 0
M  V30 13 C -2.48802 2.52427 0.192798 0
M  V30 14 C -1.22249 3.04174 0.0830589 0
M  V30 15 C -0.142882 2.15268 -0.00137888 0
M  V30 16 C -0.311468 0.785581 0.0221961 0
M  V30 17 H 4.71393 0.813346 0.626282 0
M  V30 18 H 4.31943 1.26617 -1.05414 0
M  V30 19 H 5.34067 -0.192756 -0.793949 0
M  V30 20 H 2.19155 1.44088 -0.192553 0
M  V30 21 H 1.24535 -2.2294 -0.0875893 0
M  V30 22 H -0.573956 -3.97951 -0.509849 0
M  V30 23 H -1.80764 -3.72875 0.752424 0
M  V30 24 H -3.84826 -1.23733 -0.452546 0
M  V30 25 H -3.45011 -2.0981 1.06816 0
M  V30 26 H -3.67356 0.737307 0.304586 0
M  V30 27 H -3.37685 3.148 0.263062 0
M  V30 28 H -1.07931 4.1121 0.0636641 0
M  V30 29 H 0.820024 2.59416 -0.0851978 0
M  V30 END ATOM
M  V30 BEGIN BOND
M  V30 1 1 1 2
M  V30 2 2 2 3
M  V30 3 1 2 4
M  V30 4 1 4 5
M  V30 5 2 5 6
M  V30 6 1 6 7
M  V30 7 1 7 8
M  V30 8 2 7 9
M  V30 9 1 9 10
M  V30 10 1 9 11
M  V30 11 2 11 12
M  V30 12 1 12 13
M  V30 13 2 13 14
M  V30 14 1 14 15
M  V30 15 2 15 16
M  V30 16 1 16 5
M  V30 17 1 16 11
M  V30 18 1 1 17
M  V30 19 1 1 18
M  V30 20 1 1 19
M  V30 21 1 4 20
M  V30 22 1 6 21
M  V30 23 1 8 22
M  V30 24 1 8 23
M  V30 25 1 10 24
M  V30 26 1 10 25
M  V30 27 1 12 26
M  V30 28 1 13 27
M  V30 29 1 14 28
M  V30 30 1 15 29
M  V30 END BOND
M  V30 END CTAB
M  END
