
     RDKit          3D

  0  0  0  0  0  0  0  0  0  0999 V3000
M  V30 BEGIN CTAB
M  V30 COUNTS 52 54 0 0 0
M  V30 BEGIN ATOM
M  V30 1 C 7.31785 -0.894009 -2.15634 0
M  V30 2 N 6.4578 -0.465946 -1.05686 0
M  V30 3 N 6.82898 0.0319061 0.111569 0
M  V30 4 C 5.74978 0.304634 0.854789 0
M  V30 5 C 4.64391 -0.0454197 0.101185 0
M  V30 6 C 5.1021 -0.530821 -1.10395 0
M  V30 7 C 3.25041 0.105089 0.576563 0 CFG=2
M  V30 8 C 2.48005 -1.17128 0.516558 0
M  V30 9 N 1.15703 -0.711228 -0.00994562 0
M  V30 10 C 1.55605 0.162165 -1.07165 0
M  V30 11 C 2.54127 1.08505 -0.320334 0 CFG=1
M  V30 12 N 1.72455 2.0015 0.447065 0
M  V30 13 C -0.0821864 -1.09945 0.472321 0
M  V30 14 O -0.0112807 -1.95074 1.47511 0
M  V30 15 C -1.45654 -0.742324 0.0765713 0
M  V30 16 C -2.21928 -0.208774 1.27582 0
M  V30 17 C -3.62085 0.172916 1.04686 0
M  V30 18 C -3.90412 1.24015 0.0536929 0
M  V30 19 C -5.38964 1.62571 0.274087 0
M  V30 20 C -6.15126 0.424588 -0.304657 0
M  V30 21 C -5.91038 -0.735051 0.598069 0
M  V30 22 C -4.45511 -1.07404 0.814818 0
M  V30 23 N -1.46267 0.24835 -0.931459 0
M  V30 24 H 8.36561 -0.83252 -1.79657 0
M  V30 25 H 7.19463 -0.180735 -3.00266 0
M  V30 26 H 7.08511 -1.92765 -2.44298 0
M  V30 27 H 5.71395 0.7232 1.86511 0
M  V30 28 H 4.50811 -0.890844 -1.9223 0
M  V30 29 H 3.23127 0.528073 1.61928 0
M  V30 30 H 2.30136 -1.65841 1.48324 0
M  V30 31 H 2.83318 -1.90986 -0.201824 0
M  V30 32 H 0.79778 0.748595 -1.56389 0
M  V30 33 H 2.16083 -0.427966 -1.82339 0
M  V30 34 H 3.20892 1.58469 -1.02973 0
M  V30 35 H 2.30519 2.78841 0.831658 0
M  V30 36 H 1.24785 1.46792 1.19939 0
M  V30 37 H -1.91844 -1.71079 -0.268694 0
M  V30 38 H -2.20194 -1.03884 2.03581 0
M  V30 39 H -1.65169 0.626746 1.75073 0
M  V30 40 H -4.00699 0.576607 2.04252 0
M  V30 41 H -3.31903 2.13623 0.283967 0
M  V30 42 H -3.88733 0.924483 -1.00813 0
M  V30 43 H -5.60539 2.50787 -0.329598 0
M  V30 44 H -5.6271 1.69704 1.33462 0
M  V30 45 H -7.22021 0.614142 -0.362544 0
M  V30 46 H -5.66803 0.216393 -1.28276 0
M  V30 47 H -6.38122 -1.64222 0.122822 0
M  V30 48 H -6.43008 -0.568758 1.55097 0
M  V30 49 H -4.39349 -1.6768 1.74387 0
M  V30 50 H -4.00579 -1.65993 0.00504656 0
M  V30 51 H -1.4432 -0.00241224 -1.90159 0
M  V30 52 H -1.34033 1.21436 -0.67225 0
M  V30 END ATOM
M  V30 BEGIN BOND
M  V30 1 1 1 2
M  V30 2 1 2 3
M  V30 3 2 3 4
M  V30 4 1 4 5
M  V30 5 2 5 6
M  V30 6 1 5 7
M  V30 7 1 7 8
M  V30 8 1 8 9
M  V30 9 1 9 10
M  V30 10 1 10 11
M  V30 11 1 11 12
M  V30 12 1 9 13
M  V30 13 2 13 14
M  V30 14 1 13 15
M  V30 15 1 15 16
M  V30 16 1 16 17
M  V30 17 1 17 18
M  V30 18 1 18 19
M  V30 19 1 19 20
M  V30 20 1 20 21
M  V30 21 1 21 22
M  V30 22 1 15 23
M  V30 23 1 6 2
M  V30 24 1 11 7
M  V30 25 1 22 17
M  V30 26 1 1 24
M  V30 27 1 1 25
M  V30 28 1 1 26
M  V30 29 1 4 27
M  V30 30 1 6 28
M  V30 31 1 7 29 CFG=1
M  V30 32 1 8 30
M  V30 33 1 8 31
M  V30 34 1 10 32
M  V30 35 1 10 33
M  V30 36 1 11 34 CFG=3
M  V30 37 1 12 35
M  V30 38 1 12 36
M  V30 39 1 15 37
M  V30 40 1 16 38
M  V30 41 1 16 39
M  V30 42 1 17 40
M  V30 43 1 18 41
M  V30 44 1 18 42
M  V30 45 1 19 43
M  V30 46 1 19 44
M  V30 47 1 20 45
M  V30 48 1 20 46
M  V30 49 1 21 47
M  V30 50 1 21 48
M  V30 51 1 22 49
M  V30 52 1 22 50
M  V30 53 1 23 51
M  V30 54 1 23 52
M  V30 END BOND
M  V30 END CTAB
M  END
