
     RDKit          3D

  0  0  0  0  0  0  0  0  0  0999 V3000
M  V30 BEGIN CTAB
M  V30 COUNTS 27 28 0 0 0
M  V30 BEGIN ATOM
M  V30 1 N 4.16351 0.35462 -0.707183 0
M  V30 2 C 2.7499 0.316358 -0.565764 0
M  V30 3 C 1.93273 1.17865 -1.26636 0
M  V30 4 N 0.60429 1.08159 -1.07935 0
M  V30 5 C 0.0358547 0.187782 -0.245362 0
M  V30 6 C 0.822284 -0.690904 0.472081 0
M  V30 7 C 2.19465 -0.610408 0.296371 0
M  V30 8 N 2.99063 -1.52444 1.04434 0
M  V30 9 C 0.00593302 -1.4917 1.24262 0
M  V30 10 N -1.24037 -1.0857 0.97833 0
M  V30 11 N -1.23058 -0.0993298 0.105022 0
M  V30 12 C -2.43451 0.547177 -0.375263 0
M  V30 13 C -2.9242 1.60121 0.60387 0
M  V30 14 C -3.53473 -0.450867 -0.675011 0
M  V30 15 H 4.69761 -0.498136 -0.909374 0
M  V30 16 H 4.63362 1.27672 -0.598238 0
M  V30 17 H 2.37875 1.90952 -1.94688 0
M  V30 18 H 2.93904 -1.41822 2.09148 0
M  V30 19 H 3.56238 -2.2252 0.551222 0
M  V30 20 H 0.294585 -2.2814 1.91925 0
M  V30 21 H -2.1804 1.05857 -1.3457 0
M  V30 22 H -2.13588 1.69807 1.4028 0
M  V30 23 H -3.84049 1.28275 1.13877 0
M  V30 24 H -3.00241 2.58875 0.136383 0
M  V30 25 H -4.50376 -0.0243079 -0.288497 0
M  V30 26 H -3.33838 -1.42133 -0.193136 0
M  V30 27 H -3.64006 -0.619364 -1.78642 0
M  V30 END ATOM
M  V30 BEGIN BOND
M  V30 1 1 1 2
M  V30 2 2 2 3
M  V30 3 1 3 4
M  V30 4 2 4 5
M  V30 5 1 5 6
M  V30 6 2 6 7
M  V30 7 1 7 8
M  V30 8 1 6 9
M  V30 9 2 9 10
M  V30 10 1 10 11
M  V30 11 1 11 12
M  V30 12 1 12 13
M  V30 13 1 12 14
M  V30 14 1 7 2
M  V30 15 1 11 5
M  V30 16 1 1 15
M  V30 17 1 1 16
M  V30 18 1 3 17
M  V30 19 1 8 18
M  V30 20 1 8 19
M  V30 21 1 9 20
M  V30 22 1 12 21
M  V30 23 1 13 22
M  V30 24 1 13 23
M  V30 25 1 13 24
M  V30 26 1 14 25
M  V30 27 1 14 26
M  V30 28 1 14 27
M  V30 END BOND
M  V30 END CTAB
M  END
