
     RDKit          3D

  0  0  0  0  0  0  0  0  0  0999 V3000
M  V30 BEGIN CTAB
M  V30 COUNTS 42 44 0 0 0
M  V30 BEGIN ATOM
M  V30 1 C -4.84693 -2.78928 0.922904 0
M  V30 2 N -3.72682 -2.16974 0.451682 0
M  V30 3 C -2.60424 -1.54895 -0.0205857 0
M  V30 4 O -1.61801 -2.05601 -0.545001 0
M  V30 5 C -2.54923 -0.0419374 0.110523 0 CFG=2
M  V30 6 C -3.49502 0.601733 -0.833356 0
M  V30 7 C -2.8035 1.881 -1.1861 0 CFG=1
M  V30 8 C -1.37683 1.34702 -1.34636 0
M  V30 9 N -1.20837 0.414491 -0.283605 0
M  V30 10 C -0.0430281 0.0148841 0.398399 0
M  V30 11 O -0.209187 -0.703019 1.47591 0
M  V30 12 C 1.32621 0.281027 0.0814484 0
M  V30 13 C 1.71624 0.812329 -1.11349 0
M  V30 14 N 3.05219 0.970475 -1.38849 0
M  V30 15 C 4.01271 0.62987 -0.543371 0
M  V30 16 C 3.64005 0.0932317 0.661809 0
M  V30 17 C 2.32748 -0.0900325 0.996431 0
M  V30 18 N 1.97053 -0.643538 2.27151 0
M  V30 19 C 4.59034 -0.287697 1.58919 0
M  V30 20 C 5.92433 -0.138768 1.32721 0
M  V30 21 C 6.32977 0.394907 0.131815 0
M  V30 22 C 5.36533 0.766655 -0.775313 0
M  V30 23 F 6.86553 -0.512524 2.2315 0
M  V30 24 N -3.26476 2.52708 -2.36815 0
M  V30 25 H -4.75554 -3.71785 1.54571 0
M  V30 26 H -5.52092 -3.11788 0.067087 0
M  V30 27 H -5.51377 -2.14401 1.58639 0
M  V30 28 H -3.25804 -3.39253 0.0321553 0
M  V30 29 H -2.75073 0.288548 1.12306 0
M  V30 30 H -3.60863 -0.0614831 -1.7353 0
M  V30 31 H -4.50234 0.789693 -0.380687 0
M  V30 32 H -2.81166 2.51315 -0.272309 0
M  V30 33 H -0.72935 2.27042 -1.24769 0
M  V30 34 H -1.31089 0.934799 -2.36805 0
M  V30 35 H 1.03081 1.10785 -1.9159 0
M  V30 36 H 1.56669 -0.0264544 2.98483 0
M  V30 37 H 2.13099 -1.64568 2.44199 0
M  V30 38 H 4.29968 -0.706666 2.53331 0
M  V30 39 H 7.39119 0.507853 -0.0603443 0
M  V30 40 H 5.67337 1.18429 -1.7231 0
M  V30 41 H -4.16213 2.99213 -2.2236 0
M  V30 42 H -2.54353 3.24502 -2.63404 0
M  V30 END ATOM
M  V30 BEGIN BOND
M  V30 1 1 1 2
M  V30 2 1 2 3
M  V30 3 2 3 4
M  V30 4 1 3 5
M  V30 5 1 5 6
M  V30 6 1 6 7
M  V30 7 1 7 8
M  V30 8 1 8 9
M  V30 9 1 9 10
M  V30 10 2 10 11
M  V30 11 1 10 12
M  V30 12 2 12 13
M  V30 13 1 13 14
M  V30 14 2 14 15
M  V30 15 1 15 16
M  V30 16 2 16 17
M  V30 17 1 17 18
M  V30 18 1 16 19
M  V30 19 2 19 20
M  V30 20 1 20 21
M  V30 21 2 21 22
M  V30 22 1 20 23
M  V30 23 1 7 24
M  V30 24 1 9 5
M  V30 25 1 17 12
M  V30 26 1 22 15
M  V30 27 1 1 25
M  V30 28 1 1 26
M  V30 29 1 1 27
M  V30 30 1 2 28
M  V30 31 1 5 29 CFG=1
M  V30 32 1 6 30
M  V30 33 1 6 31
M  V30 34 1 7 32 CFG=1
M  V30 35 1 8 33
M  V30 36 1 8 34
M  V30 37 1 13 35
M  V30 38 1 18 36
M  V30 39 1 18 37
M  V30 40 1 19 38
M  V30 41 1 21 39
M  V30 42 1 22 40
M  V30 43 1 24 41
M  V30 44 1 24 42
M  V30 END BOND
M  V30 END CTAB
M  END
