
     RDKit          3D

  0  0  0  0  0  0  0  0  0  0999 V3000
M  V30 BEGIN CTAB
M  V30 COUNTS 16 16 0 0 0
M  V30 BEGIN ATOM
M  V30 1 N 2.81649 -0.21279 -0.0735676 0
M  V30 2 C 1.4042 -0.0942458 -0.0366848 0
M  V30 3 C 0.582664 -1.21045 0.0213989 0
M  V30 4 C -0.792136 -1.11286 0.0578427 0
M  V30 5 Cl -1.79682 -2.53736 0.130729 0
M  V30 6 C -1.37132 0.143008 0.0356476 0
M  V30 7 C -0.58451 1.28933 -0.0223659 0
M  V30 8 C 0.78176 1.12858 -0.0566136 0
M  V30 9 F 1.58814 2.22515 -0.113661 0
M  V30 10 N -2.78635 0.245428 0.0730851 0
M  V30 11 H 3.30564 -0.909519 0.518243 0
M  V30 12 H 3.38782 0.384933 -0.68387 0
M  V30 13 H 1.06913 -2.18626 0.0376219 0
M  V30 14 H -1.0223 2.28408 -0.0405474 0
M  V30 15 H -3.30562 0.239961 -0.822685 0
M  V30 16 H -3.27678 0.323029 0.975428 0
M  V30 END ATOM
M  V30 BEGIN BOND
M  V30 1 1 1 2
M  V30 2 2 2 3
M  V30 3 1 3 4
M  V30 4 1 4 5
M  V30 5 2 4 6
M  V30 6 1 6 7
M  V30 7 2 7 8
M  V30 8 1 8 9
M  V30 9 1 6 10
M  V30 10 1 8 2
M  V30 11 1 1 11
M  V30 12 1 1 12
M  V30 13 1 3 13
M  V30 14 1 7 14
M  V30 15 1 10 15
M  V30 16 1 10 16
M  V30 END BOND
M  V30 END CTAB
M  END
