
     RDKit          3D

  0  0  0  0  0  0  0  0  0  0999 V3000
M  V30 BEGIN CTAB
M  V30 COUNTS 32 34 0 0 0
M  V30 BEGIN ATOM
M  V30 1 N -2.88754 -0.697696 2.69622 0
M  V30 2 C -3.37029 -0.406006 1.36441 0
M  V30 3 C -2.38888 0.431027 0.580366 0
M  V30 4 C -2.8112 0.599185 -0.859119 0
M  V30 5 C -1.51452 0.851086 -1.52611 0
M  V30 6 C -0.531322 0.339646 -0.710722 0
M  V30 7 O -1.13627 -0.221369 0.434332 0
M  V30 8 C 0.784507 0.458557 -1.13028 0
M  V30 9 C 1.13086 1.06666 -2.32543 0
M  V30 10 C 0.151342 1.57037 -3.12681 0
M  V30 11 C -1.17515 1.45279 -2.70818 0
M  V30 12 F 0.476957 2.17075 -4.30433 0
M  V30 13 C 1.82028 -0.0953071 -0.243261 0
M  V30 14 C 2.84487 -0.856074 -0.765967 0
M  V30 15 N 3.78357 -1.35331 0.068825 0
M  V30 16 C 3.77356 -1.14486 1.39578 0
M  V30 17 N 2.77702 -0.404419 1.90745 0
M  V30 18 C 1.80548 0.120927 1.114 0
M  V30 19 N 4.77761 -1.68111 2.2598 0
M  V30 20 H -3.68471 -0.996095 3.29437 0
M  V30 21 H -2.16706 -1.44817 2.6071 0
M  V30 22 H -3.6705 -1.31571 0.82601 0
M  V30 23 H -4.29464 0.204526 1.48621 0
M  V30 24 H -2.22414 1.41843 1.00596 0
M  V30 25 H -3.16822 -0.388285 -1.20887 0
M  V30 26 H -3.54711 1.40538 -1.00728 0
M  V30 27 H 2.19881 1.11986 -2.58448 0
M  V30 28 H -1.91139 1.8746 -3.3918 0
M  V30 29 H 2.86332 -1.03143 -1.83825 0
M  V30 30 H 1.00877 0.712109 1.51793 0
M  V30 31 H 5.70334 -2.00308 1.90969 0
M  V30 32 H 4.58264 -1.75299 3.26244 0
M  V30 END ATOM
M  V30 BEGIN BOND
M  V30 1 1 1 2
M  V30 2 1 2 3
M  V30 3 1 3 4
M  V30 4 1 4 5
M  V30 5 2 5 6
M  V30 6 1 6 7
M  V30 7 1 6 8
M  V30 8 2 8 9
M  V30 9 1 9 10
M  V30 10 2 10 11
M  V30 11 1 10 12
M  V30 12 1 8 13
M  V30 13 2 13 14
M  V30 14 1 14 15
M  V30 15 2 15 16
M  V30 16 1 16 17
M  V30 17 2 17 18
M  V30 18 1 16 19
M  V30 19 1 7 3
M  V30 20 1 18 13
M  V30 21 1 11 5
M  V30 22 1 1 20
M  V30 23 1 1 21
M  V30 24 1 2 22
M  V30 25 1 2 23
M  V30 26 1 3 24
M  V30 27 1 4 25
M  V30 28 1 4 26
M  V30 29 1 9 27
M  V30 30 1 11 28
M  V30 31 1 14 29
M  V30 32 1 18 30
M  V30 33 1 19 31
M  V30 34 1 19 32
M  V30 END BOND
M  V30 END CTAB
M  END
