
     RDKit          3D

  0  0  0  0  0  0  0  0  0  0999 V3000
M  V30 BEGIN CTAB
M  V30 COUNTS 27 28 0 0 0
M  V30 BEGIN ATOM
M  V30 1 N -6.51418 1.03182 0.609722 0
M  V30 2 C -5.41652 0.65867 0.429168 0
M  V30 3 C -4.08664 0.182441 0.213581 0
M  V30 4 C -3.55436 0.0566756 -1.05627 0
M  V30 5 C -2.25667 -0.409388 -1.24163 0
M  V30 6 C -1.51027 -0.744243 -0.129182 0
M  V30 7 C -2.03471 -0.622375 1.15931 0
M  V30 8 C -3.32393 -0.15849 1.32774 0
M  V30 9 N -1.25786 -0.968747 2.27767 0
M  V30 10 S 0.166082 -1.35193 -0.265594 0
M  V30 11 C 1.33688 -0.00210068 -0.228391 0
M  V30 12 N 1.11211 1.31702 -0.117749 0
M  V30 13 N 2.29436 1.94522 -0.134994 0
M  V30 14 C 3.28122 1.04251 -0.255898 0
M  V30 15 N 2.66812 -0.163889 -0.312678 0
M  V30 16 N 3.36939 -1.36152 -0.440091 0
M  V30 17 C 4.73439 1.34774 -0.311928 0
M  V30 18 H -4.19543 0.33741 -1.88624 0
M  V30 19 H -1.84919 -0.505344 -2.21974 0
M  V30 20 H -3.70727 -0.0732969 2.34067 0
M  V30 21 H -0.586629 -1.76773 2.26305 0
M  V30 22 H -1.31581 -0.441073 3.17933 0
M  V30 23 H 4.05728 -1.64998 0.28714 0
M  V30 24 H 3.20748 -1.97365 -1.26513 0
M  V30 25 H 5.34561 0.458995 0.0124438 0
M  V30 26 H 5.07838 1.5853 -1.33857 0
M  V30 27 H 4.95819 2.22995 0.326802 0
M  V30 END ATOM
M  V30 BEGIN BOND
M  V30 1 3 1 2
M  V30 2 1 2 3
M  V30 3 2 3 4
M  V30 4 1 4 5
M  V30 5 2 5 6
M  V30 6 1 6 7
M  V30 7 2 7 8
M  V30 8 1 7 9
M  V30 9 1 6 10
M  V30 10 1 10 11
M  V30 11 2 11 12
M  V30 12 1 12 13
M  V30 13 2 13 14
M  V30 14 1 14 15
M  V30 15 1 15 16
M  V30 16 1 14 17
M  V30 17 1 8 3
M  V30 18 1 15 11
M  V30 19 1 4 18
M  V30 20 1 5 19
M  V30 21 1 8 20
M  V30 22 1 9 21
M  V30 23 1 9 22
M  V30 24 1 16 23
M  V30 25 1 16 24
M  V30 26 1 17 25
M  V30 27 1 17 26
M  V30 28 1 17 27
M  V30 END BOND
M  V30 END CTAB
M  END
