
     RDKit          3D

  0  0  0  0  0  0  0  0  0  0999 V3000
M  V30 BEGIN CTAB
M  V30 COUNTS 37 38 0 0 0
M  V30 BEGIN ATOM
M  V30 1 C 1.67378 -1.80375 1.22132 0
M  V30 2 C 1.38042 -0.430663 1.77903 0
M  V30 3 N 1.74616 0.653512 0.928115 0
M  V30 4 C 0.879315 1.17497 -0.0316197 0
M  V30 5 O 1.28581 2.14079 -0.745357 0
M  V30 6 C -0.470664 0.656904 -0.2487 0
M  V30 7 S -1.76536 1.9109 0.0789309 0
M  V30 8 C -3.35187 1.11244 -0.228469 0
M  V30 9 N -4.51792 1.7896 -0.0940828 0
M  V30 10 C -5.71419 1.21067 -0.315593 0
M  V30 11 N -6.93716 1.89758 -0.185937 0
M  V30 12 N -5.74882 -0.0982871 -0.686213 0
M  V30 13 C -4.62092 -0.795685 -0.82799 0
M  V30 14 N -3.45404 -0.170325 -0.594766 0
M  V30 15 N -4.57017 -2.15738 -1.20678 0
M  V30 16 C 3.08959 1.23129 1.11198 0
M  V30 17 C 4.0169 0.494473 0.177377 0
M  V30 18 C 5.20066 -0.127741 0.468063 0
M  V30 19 C 5.84853 -0.718939 -0.557303 0
M  V30 20 C 5.28016 -0.652161 -1.78934 0
M  V30 21 S 3.85236 0.232338 -1.50557 0
M  V30 22 Cl 5.89623 -1.32887 -3.29441 0
M  V30 23 H 0.916569 -2.06416 0.432473 0
M  V30 24 H 1.54151 -2.5335 2.0316 0
M  V30 25 H 2.65731 -1.92362 0.776316 0
M  V30 26 H 1.92254 -0.392548 2.77004 0
M  V30 27 H 0.312231 -0.407784 2.06353 0
M  V30 28 H -0.627544 0.305963 -1.3093 0
M  V30 29 H -0.73199 -0.215456 0.372908 0
M  V30 30 H -7.34296 2.0915 0.740674 0
M  V30 31 H -7.43733 2.21309 -1.03549 0
M  V30 32 H -5.02344 -2.87624 -0.623158 0
M  V30 33 H -4.07346 -2.43121 -2.07598 0
M  V30 34 H 3.06127 2.28639 0.80075 0
M  V30 35 H 3.45715 1.07937 2.1209 0
M  V30 36 H 5.55712 -0.108801 1.52883 0
M  V30 37 H 6.81224 -1.24467 -0.413202 0
M  V30 END ATOM
M  V30 BEGIN BOND
M  V30 1 1 1 2
M  V30 2 1 2 3
M  V30 3 1 3 4
M  V30 4 2 4 5
M  V30 5 1 4 6
M  V30 6 1 6 7
M  V30 7 1 7 8
M  V30 8 2 8 9
M  V30 9 1 9 10
M  V30 10 1 10 11
M  V30 11 2 10 12
M  V30 12 1 12 13
M  V30 13 2 13 14
M  V30 14 1 13 15
M  V30 15 1 3 16
M  V30 16 1 16 17
M  V30 17 2 17 18
M  V30 18 1 18 19
M  V30 19 2 19 20
M  V30 20 1 20 21
M  V30 21 1 20 22
M  V30 22 1 14 8
M  V30 23 1 21 17
M  V30 24 1 1 23
M  V30 25 1 1 24
M  V30 26 1 1 25
M  V30 27 1 2 26
M  V30 28 1 2 27
M  V30 29 1 6 28
M  V30 30 1 6 29
M  V30 31 1 11 30
M  V30 32 1 11 31
M  V30 33 1 15 32
M  V30 34 1 15 33
M  V30 35 1 16 34
M  V30 36 1 16 35
M  V30 37 1 18 36
M  V30 38 1 19 37
M  V30 END BOND
M  V30 END CTAB
M  END
