
     RDKit          3D

  0  0  0  0  0  0  0  0  0  0999 V3000
M  V30 BEGIN CTAB
M  V30 COUNTS 53 54 0 0 0
M  V30 BEGIN ATOM
M  V30 1 C -5.6087 -1.11671 1.28726 0
M  V30 2 C -5.5975 -0.436914 -0.0475822 0
M  V30 3 C -6.24838 -1.3419 -1.09075 0
M  V30 4 C -4.19414 -0.208866 -0.490234 0
M  V30 5 C -3.36825 -1.29818 -0.542128 0
M  V30 6 C -2.07404 -1.0874 -0.94765 0
M  V30 7 C -1.58674 0.179008 -1.30135 0
M  V30 8 C -0.161569 0.354433 -1.62006 0
M  V30 9 C 0.679185 0.507239 -0.355063 0
M  V30 10 N 0.597205 -0.713136 0.433361 0
M  V30 11 S 1.47008 -0.730321 1.87218 0
M  V30 12 O 0.947265 0.356549 2.80976 0
M  V30 13 O 1.23317 -2.02224 2.64081 0
M  V30 14 C 3.18704 -0.592789 1.67145 0
M  V30 15 C 3.80786 -0.62216 0.432206 0
M  V30 16 C 5.1846 -0.525404 0.284789 0
M  V30 17 C 5.93041 -0.398133 1.4401 0
M  V30 18 C 5.33653 -0.371126 2.65125 0
M  V30 19 C 3.97155 -0.465055 2.82427 0
M  V30 20 O 3.41976 -0.437802 4.0577 0
M  V30 21 C 5.85551 -0.545908 -0.991679 0
M  V30 22 N 7.28657 -0.430004 -1.01223 0
M  V30 23 N 5.25313 -0.658449 -2.11405 0
M  V30 24 C -2.4115 1.28215 -1.25598 0
M  V30 25 C -3.72271 1.03323 -0.836829 0
M  V30 26 S -2.02706 2.8702 -1.76428 0
M  V30 27 N -0.71757 3.63024 -0.954776 0
M  V30 28 O -1.87799 3.00165 -3.26286 0
M  V30 29 O -3.2322 3.76777 -1.47928 0
M  V30 30 H -4.57932 -1.16721 1.7446 0
M  V30 31 H -6.21012 -0.549292 2.04195 0
M  V30 32 H -6.00623 -2.14382 1.27917 0
M  V30 33 H -6.15866 0.530726 -0.0133618 0
M  V30 34 H -5.88288 -2.37365 -0.974881 0
M  V30 35 H -5.88262 -0.973127 -2.07243 0
M  V30 36 H -7.35541 -1.24612 -1.07173 0
M  V30 37 H -3.72697 -2.2966 -0.271563 0
M  V30 38 H -1.38965 -1.91762 -1.00045 0
M  V30 39 H 0.191367 -0.600932 -2.08566 0
M  V30 40 H 0.0665538 1.131 -2.36445 0
M  V30 41 H 1.70538 0.779309 -0.515372 0
M  V30 42 H 0.235539 1.27597 0.346015 0
M  V30 43 H 0.977648 -1.47443 -0.207059 0
M  V30 44 H 3.25557 -0.755599 -0.467206 0
M  V30 45 H 7.01991 -0.316623 1.39841 0
M  V30 46 H 5.95092 -0.266914 3.55984 0
M  V30 47 H 2.49796 -0.501293 4.38434 0
M  V30 48 H 7.81076 -1.23089 -1.38002 0
M  V30 49 H 7.79499 0.397803 -0.684354 0
M  V30 50 H 4.23645 -0.744251 -2.20022 0
M  V30 51 H -4.45895 1.83939 -0.764411 0
M  V30 52 H -0.70314 4.6602 -1.08979 0
M  V30 53 H -0.720602 3.45478 0.0702609 0
M  V30 END ATOM
M  V30 BEGIN BOND
M  V30 1 1 1 2
M  V30 2 1 2 3
M  V30 3 1 2 4
M  V30 4 2 4 5
M  V30 5 1 5 6
M  V30 6 2 6 7
M  V30 7 1 7 8
M  V30 8 1 8 9
M  V30 9 1 9 10
M  V30 10 1 10 11
M  V30 11 2 11 12
M  V30 12 2 11 13
M  V30 13 1 11 14
M  V30 14 2 14 15
M  V30 15 1 15 16
M  V30 16 2 16 17
M  V30 17 1 17 18
M  V30 18 2 18 19
M  V30 19 1 19 20
M  V30 20 1 16 21
M  V30 21 1 21 22
M  V30 22 2 21 23 CFG=2
M  V30 23 1 7 24
M  V30 24 2 24 25
M  V30 25 1 24 26
M  V30 26 1 26 27
M  V30 27 2 26 28
M  V30 28 2 26 29
M  V30 29 1 25 4
M  V30 30 1 19 14
M  V30 31 1 1 30
M  V30 32 1 1 31
M  V30 33 1 1 32
M  V30 34 1 2 33
M  V30 35 1 3 34
M  V30 36 1 3 35
M  V30 37 1 3 36
M  V30 38 1 5 37
M  V30 39 1 6 38
M  V30 40 1 8 39
M  V30 41 1 8 40
M  V30 42 1 9 41
M  V30 43 1 9 42
M  V30 44 1 10 43
M  V30 45 1 15 44
M  V30 46 1 17 45
M  V30 47 1 18 46
M  V30 48 1 20 47
M  V30 49 1 22 48
M  V30 50 1 22 49
M  V30 51 1 23 50
M  V30 52 1 25 51
M  V30 53 1 27 52
M  V30 54 1 27 53
M  V30 END BOND
M  V30 END CTAB
M  END
