
     RDKit          3D

  0  0  0  0  0  0  0  0  0  0999 V3000
M  V30 BEGIN CTAB
M  V30 COUNTS 37 37 0 0 0
M  V30 BEGIN ATOM
M  V30 1 C -0.655172 0.182135 0.382465 0 CFG=1
M  V30 2 N -0.932435 1.56252 0.658586 0
M  V30 3 C -1.8035 -0.45341 -0.34672 0
M  V30 4 C -3.03332 -0.349959 0.52724 0
M  V30 5 C -4.17674 -0.995187 -0.225046 0
M  V30 6 C -5.46548 -0.933897 0.591417 0
M  V30 7 N -5.73524 0.480063 0.815532 0
M  V30 8 C 0.618957 0.0639534 -0.32259 0
M  V30 9 O 1.27039 1.10582 -0.583142 0
M  V30 10 O 1.16052 -1.14949 -0.727721 0
M  V30 11 C 2.38417 -1.29425 -1.40515 0
M  V30 12 C 3.55588 -0.800389 -0.654619 0
M  V30 13 C 3.55091 -0.526838 0.689475 0
M  V30 14 C 4.68857 -0.0698356 1.29749 0
M  V30 15 C 5.82543 0.113228 0.568138 0
M  V30 16 C 5.8772 -0.148728 -0.785794 0
M  V30 17 C 4.72383 -0.608294 -1.38408 0
M  V30 18 H -0.556942 -0.339954 1.35793 0
M  V30 19 H -0.0196673 2.0845 0.792864 0
M  V30 20 H -1.48645 1.98196 -0.137212 0
M  V30 21 H -1.97229 0.0505522 -1.31944 0
M  V30 22 H -1.57529 -1.51356 -0.49605 0
M  V30 23 H -3.29256 0.700894 0.760594 0
M  V30 24 H -2.87739 -0.925717 1.45532 0
M  V30 25 H -4.32602 -0.429115 -1.16719 0
M  V30 26 H -3.89591 -2.04709 -0.453696 0
M  V30 27 H -5.32715 -1.39486 1.58536 0
M  V30 28 H -6.28985 -1.44882 0.0701655 0
M  V30 29 H -5.50371 1.03696 -0.0450387 0
M  V30 30 H -5.14812 0.768345 1.63187 0
M  V30 31 H 2.34128 -0.767358 -2.38602 0
M  V30 32 H 2.49375 -2.37884 -1.63734 0
M  V30 33 H 2.63634 -0.680602 1.25202 0
M  V30 34 H 4.65472 0.137791 2.36036 0
M  V30 35 H 6.73631 0.480606 1.06216 0
M  V30 36 H 6.80764 0.0128904 -1.32497 0
M  V30 37 H 4.74735 -0.821038 -2.45719 0
M  V30 END ATOM
M  V30 BEGIN BOND
M  V30 1 1 1 2
M  V30 2 1 1 3
M  V30 3 1 3 4
M  V30 4 1 4 5
M  V30 5 1 5 6
M  V30 6 1 6 7
M  V30 7 1 1 8
M  V30 8 2 8 9
M  V30 9 1 8 10
M  V30 10 1 10 11
M  V30 11 1 11 12
M  V30 12 2 12 13
M  V30 13 1 13 14
M  V30 14 2 14 15
M  V30 15 1 15 16
M  V30 16 2 16 17
M  V30 17 1 17 12
M  V30 18 1 1 18 CFG=1
M  V30 19 1 2 19
M  V30 20 1 2 20
M  V30 21 1 3 21
M  V30 22 1 3 22
M  V30 23 1 4 23
M  V30 24 1 4 24
M  V30 25 1 5 25
M  V30 26 1 5 26
M  V30 27 1 6 27
M  V30 28 1 6 28
M  V30 29 1 7 29
M  V30 30 1 7 30
M  V30 31 1 11 31
M  V30 32 1 11 32
M  V30 33 1 13 33
M  V30 34 1 14 34
M  V30 35 1 15 35
M  V30 36 1 16 36
M  V30 37 1 17 37
M  V30 END BOND
M  V30 END CTAB
M  END
