
     RDKit          3D

  0  0  0  0  0  0  0  0  0  0999 V3000
M  V30 BEGIN CTAB
M  V30 COUNTS 12 11 0 0 0
M  V30 BEGIN ATOM
M  V30 1 N -2.4951 0.746891 -0.000851678 0
M  V30 2 N -1.5375 -0.149417 0.426698 0
M  V30 3 C -0.283515 -0.088992 0.146012 0
M  V30 4 C 0.608123 -1.09885 0.663491 0
M  V30 5 N 1.85412 -1.05771 0.397467 0
M  V30 6 N 2.33516 -0.0235243 -0.398786 0
M  V30 7 H -2.57615 1.74263 0.301349 0
M  V30 8 H -3.21346 0.415043 -0.691026 0
M  V30 9 H 0.0808933 0.736392 -0.485752 0
M  V30 10 H 0.224832 -1.88999 1.27554 0
M  V30 11 H 2.31065 -0.158843 -1.43006 0
M  V30 12 H 2.69195 0.826364 0.0850497 0
M  V30 END ATOM
M  V30 BEGIN BOND
M  V30 1 1 1 2
M  V30 2 2 2 3 CFG=2
M  V30 3 1 3 4
M  V30 4 2 4 5 CFG=2
M  V30 5 1 5 6
M  V30 6 1 1 7
M  V30 7 1 1 8
M  V30 8 1 3 9
M  V30 9 1 4 10
M  V30 10 1 6 11
M  V30 11 1 6 12
M  V30 END BOND
M  V30 END CTAB
M  END
