
     RDKit          3D

  0  0  0  0  0  0  0  0  0  0999 V3000
M  V30 BEGIN CTAB
M  V30 COUNTS 36 37 0 0 0
M  V30 BEGIN ATOM
M  V30 1 N -1.45273 -2.02441 -1.19823 0
M  V30 2 N -1.63701 -0.955193 -0.325102 0
M  V30 3 C -0.542325 -0.339265 0.420667 0
M  V30 4 C 0.528681 0.193543 -0.552814 0
M  V30 5 N 1.58692 0.799609 0.1926 0
M  V30 6 N 1.26455 1.8874 1.03348 0
M  V30 7 C 2.92574 0.389564 0.148089 0
M  V30 8 C 3.39385 -0.628383 -0.650827 0
M  V30 9 C 4.73887 -0.974291 -0.615216 0
M  V30 10 C 5.65331 -0.345256 0.190523 0
M  V30 11 C 5.18694 0.672013 0.986939 0
M  V30 12 C 3.86452 1.02587 0.964813 0
M  V30 13 C -2.95275 -0.450656 -0.137024 0
M  V30 14 C -3.25689 0.794914 -0.634526 0
M  V30 15 C -4.54136 1.32871 -0.474503 0
M  V30 16 C -5.48891 0.58023 0.18975 0
M  V30 17 C -5.20376 -0.686674 0.704039 0
M  V30 18 C -3.90067 -1.17999 0.517649 0
M  V30 19 H -1.61589 -1.8392 -2.18578 0
M  V30 20 H -0.670506 -2.64018 -0.935031 0
M  V30 21 H -0.908225 0.517554 0.994137 0
M  V30 22 H -0.044333 -1.05618 1.10622 0
M  V30 23 H 0.021913 0.962911 -1.20296 0
M  V30 24 H 0.859202 -0.591202 -1.23083 0
M  V30 25 H 0.389436 2.36846 0.72195 0
M  V30 26 H 1.19873 1.54578 2.02587 0
M  V30 27 H 2.72151 -1.18124 -1.32644 0
M  V30 28 H 5.08376 -1.79099 -1.26411 0
M  V30 29 H 6.71456 -0.63994 0.199476 0
M  V30 30 H 5.9093 1.17984 1.62844 0
M  V30 31 H 3.5428 1.84304 1.61186 0
M  V30 32 H -2.50685 1.37977 -1.1617 0
M  V30 33 H -4.7673 2.30763 -0.866366 0
M  V30 34 H -6.48713 0.97011 0.331196 0
M  V30 35 H -5.94773 -1.26121 1.22119 0
M  V30 36 H -3.66023 -2.16268 0.908046 0
M  V30 END ATOM
M  V30 BEGIN BOND
M  V30 1 1 1 2
M  V30 2 1 2 3
M  V30 3 1 3 4
M  V30 4 1 4 5
M  V30 5 1 5 6
M  V30 6 1 5 7
M  V30 7 2 7 8
M  V30 8 1 8 9
M  V30 9 2 9 10
M  V30 10 1 10 11
M  V30 11 2 11 12
M  V30 12 1 2 13
M  V30 13 2 13 14
M  V30 14 1 14 15
M  V30 15 2 15 16
M  V30 16 1 16 17
M  V30 17 2 17 18
M  V30 18 1 12 7
M  V30 19 1 18 13
M  V30 20 1 1 19
M  V30 21 1 1 20
M  V30 22 1 3 21
M  V30 23 1 3 22
M  V30 24 1 4 23
M  V30 25 1 4 24
M  V30 26 1 6 25
M  V30 27 1 6 26
M  V30 28 1 8 27
M  V30 29 1 9 28
M  V30 30 1 10 29
M  V30 31 1 11 30
M  V30 32 1 12 31
M  V30 33 1 14 32
M  V30 34 1 15 33
M  V30 35 1 16 34
M  V30 36 1 17 35
M  V30 37 1 18 36
M  V30 END BOND
M  V30 END CTAB
M  END
