
     RDKit          3D

  0  0  0  0  0  0  0  0  0  0999 V3000
M  V30 BEGIN CTAB
M  V30 COUNTS 34 35 0 0 0
M  V30 BEGIN ATOM
M  V30 1 N -4.77026 -0.340108 0.83162 0
M  V30 2 C -4.39442 0.292797 -0.354527 0
M  V30 3 C -2.98633 0.829981 -0.341816 0
M  V30 4 N -1.99444 -0.162765 -0.12819 0
M  V30 5 C -1.78584 -1.11405 -1.16391 0
M  V30 6 C -0.276507 -1.36021 -1.23747 0
M  V30 7 C 0.217879 -0.673552 -0.0156313 0 CFG=2
M  V30 8 C -0.71073 0.530475 0.0620453 0
M  V30 9 C 1.61317 -0.249907 -0.0306134 0
M  V30 10 C 2.22071 0.395875 -1.08818 0
M  V30 11 C 3.52736 0.774802 -1.04913 0
M  V30 12 C 4.2886 0.510363 0.0864075 0
M  V30 13 C 3.71402 -0.135291 1.16785 0
M  V30 14 C 2.39146 -0.498567 1.08089 0
M  V30 15 N 5.64913 0.878001 0.183919 0
M  V30 16 H -5.57374 -0.891909 0.868632 0
M  V30 17 H -4.57147 0.177833 1.63931 0
M  V30 18 H -4.55042 -0.34955 -1.24016 0
M  V30 19 H -5.06722 1.18635 -0.493936 0
M  V30 20 H -2.87378 1.58881 0.474666 0
M  V30 21 H -2.78014 1.35472 -1.30159 0
M  V30 22 H -2.24899 -2.10604 -0.950423 0
M  V30 23 H -2.1825 -0.749272 -2.14942 0
M  V30 24 H 0.0565139 -0.851534 -2.18556 0
M  V30 25 H -0.0343268 -2.44547 -1.27604 0
M  V30 26 H 0.0186614 -1.3174 0.868289 0
M  V30 27 H -0.662959 0.982334 1.06792 0
M  V30 28 H -0.482542 1.2016 -0.761155 0
M  V30 29 H 1.65198 0.603966 -1.96119 0
M  V30 30 H 3.97696 1.27222 -1.87764 0
M  V30 31 H 4.32786 -0.337123 2.05659 0
M  V30 32 H 1.98941 -1.00679 1.96715 0
M  V30 33 H 5.93588 1.86471 0.12566 0
M  V30 34 H 6.36702 0.144687 0.315709 0
M  V30 END ATOM
M  V30 BEGIN BOND
M  V30 1 1 1 2
M  V30 2 1 2 3
M  V30 3 1 3 4
M  V30 4 1 4 5
M  V30 5 1 5 6
M  V30 6 1 6 7
M  V30 7 1 7 8
M  V30 8 1 7 9
M  V30 9 2 9 10
M  V30 10 1 10 11
M  V30 11 2 11 12
M  V30 12 1 12 13
M  V30 13 2 13 14
M  V30 14 1 12 15
M  V30 15 1 8 4
M  V30 16 1 14 9
M  V30 17 1 1 16
M  V30 18 1 1 17
M  V30 19 1 2 18
M  V30 20 1 2 19
M  V30 21 1 3 20
M  V30 22 1 3 21
M  V30 23 1 5 22
M  V30 24 1 5 23
M  V30 25 1 6 24
M  V30 26 1 6 25
M  V30 27 1 7 26 CFG=1
M  V30 28 1 8 27
M  V30 29 1 8 28
M  V30 30 1 10 29
M  V30 31 1 11 30
M  V30 32 1 13 31
M  V30 33 1 14 32
M  V30 34 1 15 33
M  V30 35 1 15 34
M  V30 END BOND
M  V30 END CTAB
M  END
