
     RDKit          3D

  0  0  0  0  0  0  0  0  0  0999 V3000
M  V30 BEGIN CTAB
M  V30 COUNTS 20 20 0 0 0
M  V30 BEGIN ATOM
M  V30 1 N 1.63537 -0.204655 1.06763 0
M  V30 2 C 2.05077 0.204886 -0.228815 0
M  V30 3 N 3.08657 1.0012 -0.304875 0
M  V30 4 N 3.76189 1.43533 0.834462 0
M  V30 5 S 1.2139 -0.333754 -1.70982 0
M  V30 6 C -0.164813 -1.41502 -1.37601 0
M  V30 7 C -1.30573 -0.750052 -0.663931 0
M  V30 8 C -2.38271 -0.100614 -1.21695 0
M  V30 9 C -3.28557 0.414468 -0.367378 0
M  V30 10 C -3.0614 0.252221 0.968444 0
M  V30 11 S -1.59613 -0.615542 1.01142 0
M  V30 12 Cl -4.0214 0.789108 2.34125 0
M  V30 13 H 1.30631 0.524253 1.72814 0
M  V30 14 H 1.66341 -1.21483 1.34367 0
M  V30 15 H 4.81031 1.42789 0.925316 0
M  V30 16 H 3.24701 1.79738 1.67234 0
M  V30 17 H -0.506363 -1.90948 -2.30235 0
M  V30 18 H 0.207169 -2.23332 -0.691063 0
M  V30 19 H -2.46762 -0.0257998 -2.32895 0
M  V30 20 H -4.19098 0.956339 -0.702525 0
M  V30 END ATOM
M  V30 BEGIN BOND
M  V30 1 1 1 2
M  V30 2 2 2 3 CFG=2
M  V30 3 1 3 4
M  V30 4 1 2 5
M  V30 5 1 5 6
M  V30 6 1 6 7
M  V30 7 2 7 8
M  V30 8 1 8 9
M  V30 9 2 9 10
M  V30 10 1 10 11
M  V30 11 1 10 12
M  V30 12 1 11 7
M  V30 13 1 1 13
M  V30 14 1 1 14
M  V30 15 1 4 15
M  V30 16 1 4 16
M  V30 17 1 6 17
M  V30 18 1 6 18
M  V30 19 1 8 19
M  V30 20 1 9 20
M  V30 END BOND
M  V30 END CTAB
M  END
