
     RDKit          3D

  0  0  0  0  0  0  0  0  0  0999 V3000
M  V30 BEGIN CTAB
M  V30 COUNTS 104 109 0 0 0
M  V30 BEGIN ATOM
M  V30 1 O 10.2887 -0.208584 0.0844003 0
M  V30 2 C 10.3267 0.712096 0.902623 0
M  V30 3 N 11.5096 1.13833 1.51926 0
M  V30 4 C 12.8067 0.634396 1.3324 0
M  V30 5 C 13.832 0.970885 2.232 0
M  V30 6 C 15.1224 0.524462 2.09742 0
M  V30 7 C 15.4682 -0.29084 1.04769 0
M  V30 8 C 14.4973 -0.64449 0.14404 0
M  V30 9 C 13.1759 -0.176673 0.297609 0
M  V30 10 S 17.0982 -0.893894 0.824083 0
M  V30 11 O 17.0244 -2.22969 0.126205 0
M  V30 12 O 17.785 -1.02297 2.15309 0
M  V30 13 N 17.9568 0.25648 -0.152844 0
M  V30 14 C 9.04787 1.40084 1.2481 0
M  V30 15 C 7.93912 0.770443 0.470671 0
M  V30 16 C 6.58763 1.38411 0.738193 0
M  V30 17 N 5.60265 0.656573 -0.0988991 0
M  V30 18 C 4.95661 -0.502388 0.403115 0
M  V30 19 S 4.82581 -1.04438 1.93144 0
M  V30 20 S 4.27764 -1.28498 -1.08665 0
M  V30 21 C 4.28711 0.20939 -2.07271 0
M  V30 22 C 3.5896 0.460635 -3.13978 0
M  V30 23 C 2.66203 -0.487839 -3.6952 0
M  V30 24 C 2.85267 -0.883305 -5.01356 0
M  V30 25 C 2.03306 -1.75486 -5.66968 0
M  V30 26 C 0.95579 -2.26383 -4.96503 0
M  V30 27 C 0.724236 -1.90339 -3.66019 0
M  V30 28 C 1.5681 -1.01439 -3.01179 0
M  V30 29 O 1.39984 -0.608068 -1.72568 0
M  V30 30 C 0.398136 -0.938188 -0.806087 0
M  V30 31 C -0.964079 -0.471363 -1.20743 0
M  V30 32 O -1.99625 -0.787583 -0.336156 0
M  V30 33 C -2.50813 -1.98501 0.0540809 0
M  V30 34 C -2.04669 -3.20848 -0.425891 0
M  V30 35 C -2.57485 -4.40649 -0.014078 0
M  V30 36 C -3.59883 -4.37971 0.907366 0
M  V30 37 C -4.06781 -3.17829 1.39034 0
M  V30 38 C -3.53766 -1.96338 0.976836 0
M  V30 39 C -4.13255 -0.751336 1.49962 0
M  V30 40 C -4.67766 0.128448 0.694975 0
M  V30 41 S -4.82319 0.0722612 -1.11358 0
M  V30 42 C -5.28208 1.78048 -1.30941 0
M  V30 43 S -5.25356 2.58147 -2.71457 0
M  V30 44 N -5.6476 2.22103 -0.0244122 0
M  V30 45 C -5.34378 1.38482 1.03229 0
M  V30 46 O -5.60009 1.63014 2.26905 0
M  V30 47 C -6.35864 3.50606 0.14321 0
M  V30 48 C -7.83351 3.32156 -0.00796535 0
M  V30 49 C -8.45201 2.3829 0.964213 0
M  V30 50 C -9.94537 2.226 0.738995 0
M  V30 51 O -10.4065 2.90425 -0.182265 0
M  V30 52 N -10.6023 1.33903 1.59555 0
M  V30 53 C -11.9701 1.0537 1.55105 0
M  V30 54 C -12.453 -0.0121829 2.33069 0
M  V30 55 C -13.7746 -0.379542 2.37185 0
M  V30 56 C -14.7202 0.291214 1.63501 0
M  V30 57 C -14.2869 1.33767 0.861964 0
M  V30 58 C -12.9359 1.70818 0.824362 0
M  V30 59 S -16.3932 -0.191017 1.69748 0
M  V30 60 O -17.3017 0.971967 1.54814 0
M  V30 61 O -16.6098 -0.839223 3.0539 0
M  V30 62 N -16.7853 -1.3645 0.490784 0
M  V30 63 C 5.26811 1.04194 -1.38156 0
M  V30 64 O 5.75653 2.06481 -1.9883 0
M  V30 65 H 11.4326 1.95493 2.22392 0
M  V30 66 H 13.5632 1.62045 3.07261 0
M  V30 67 H 15.8868 0.806604 2.81314 0
M  V30 68 H 14.7247 -1.28923 -0.704427 0
M  V30 69 H 12.475 -0.491274 -0.459485 0
M  V30 70 H 18.0886 1.10143 0.440618 0
M  V30 71 H 17.402 0.502606 -1.00257 0
M  V30 72 H 9.14374 2.48278 1.02029 0
M  V30 73 H 8.92424 1.29539 2.33276 0
M  V30 74 H 8.11665 0.748362 -0.609833 0
M  V30 75 H 7.88461 -0.301845 0.792583 0
M  V30 76 H 6.32181 1.2898 1.78899 0
M  V30 77 H 6.56359 2.46118 0.474016 0
M  V30 78 H 3.74166 1.45671 -3.61476 0
M  V30 79 H 3.70691 -0.476298 -5.56272 0
M  V30 80 H 2.25608 -2.0065 -6.69514 0
M  V30 81 H 0.311137 -2.96484 -5.51595 0
M  V30 82 H -0.101469 -2.33852 -3.15229 0
M  V30 83 H 0.624585 -0.405709 0.19297 0
M  V30 84 H 0.47002 -2.00233 -0.509948 0
M  V30 85 H -1.28621 -0.688425 -2.22522 0
M  V30 86 H -0.888393 0.678473 -1.15035 0
M  V30 87 H -1.26687 -3.25885 -1.16145 0
M  V30 88 H -2.22473 -5.36624 -0.37847 0
M  V30 89 H -4.0402 -5.32088 1.25607 0
M  V30 90 H -4.88079 -3.1491 2.12198 0
M  V30 91 H -4.14927 -0.527213 2.56622 0
M  V30 92 H -6.19124 3.90241 1.18548 0
M  V30 93 H -5.98094 4.20593 -0.5955 0
M  V30 94 H -8.1372 3.03767 -1.03722 0
M  V30 95 H -8.29652 4.33585 0.170186 0
M  V30 96 H -8.0541 1.36413 0.800904 0
M  V30 97 H -8.26125 2.65427 2.01786 0
M  V30 98 H -10.0165 0.854915 2.33255 0
M  V30 99 H -11.7043 -0.545144 2.91379 0
M  V30 100 H -14.0814 -1.22437 3.00441 0
M  V30 101 H -15.008 1.87864 0.27626 0
M  V30 102 H -12.6365 2.54796 0.204702 0
M  V30 103 H -17.1044 -0.938467 -0.392032 0
M  V30 104 H -16.0681 -2.09583 0.384692 0
M  V30 END ATOM
M  V30 BEGIN BOND
M  V30 1 2 1 2
M  V30 2 1 2 3
M  V30 3 1 3 4
M  V30 4 2 4 5
M  V30 5 1 5 6
M  V30 6 2 6 7
M  V30 7 1 7 8
M  V30 8 2 8 9
M  V30 9 1 7 10
M  V30 10 2 10 11
M  V30 11 2 10 12
M  V30 12 1 10 13
M  V30 13 1 2 14
M  V30 14 1 14 15
M  V30 15 1 15 16
M  V30 16 1 16 17
M  V30 17 1 17 18
M  V30 18 2 18 19
M  V30 19 1 18 20
M  V30 20 1 20 21
M  V30 21 2 21 22
M  V30 22 1 22 23
M  V30 23 2 23 24
M  V30 24 1 24 25
M  V30 25 2 25 26
M  V30 26 1 26 27
M  V30 27 2 27 28
M  V30 28 1 28 29
M  V30 29 1 29 30
M  V30 30 1 30 31
M  V30 31 1 31 32
M  V30 32 1 32 33
M  V30 33 2 33 34
M  V30 34 1 34 35
M  V30 35 2 35 36
M  V30 36 1 36 37
M  V30 37 2 37 38
M  V30 38 1 38 39
M  V30 39 2 39 40
M  V30 40 1 40 41
M  V30 41 1 41 42
M  V30 42 2 42 43
M  V30 43 1 42 44
M  V30 44 1 44 45
M  V30 45 2 45 46
M  V30 46 1 44 47
M  V30 47 1 47 48
M  V30 48 1 48 49
M  V30 49 1 49 50
M  V30 50 2 50 51
M  V30 51 1 50 52
M  V30 52 1 52 53
M  V30 53 2 53 54
M  V30 54 1 54 55
M  V30 55 2 55 56
M  V30 56 1 56 57
M  V30 57 2 57 58
M  V30 58 1 56 59
M  V30 59 2 59 60
M  V30 60 2 59 61
M  V30 61 1 59 62
M  V30 62 1 21 63
M  V30 63 2 63 64
M  V30 64 1 9 4
M  V30 65 1 63 17
M  V30 66 1 28 23
M  V30 67 1 38 33
M  V30 68 1 40 45
M  V30 69 1 58 53
M  V30 70 1 3 65
M  V30 71 1 5 66
M  V30 72 1 6 67
M  V30 73 1 8 68
M  V30 74 1 9 69
M  V30 75 1 13 70
M  V30 76 1 13 71
M  V30 77 1 14 72
M  V30 78 1 14 73
M  V30 79 1 15 74
M  V30 80 1 15 75
M  V30 81 1 16 76
M  V30 82 1 16 77
M  V30 83 1 22 78
M  V30 84 1 24 79
M  V30 85 1 25 80
M  V30 86 1 26 81
M  V30 87 1 27 82
M  V30 88 1 30 83
M  V30 89 1 30 84
M  V30 90 1 31 85
M  V30 91 1 31 86
M  V30 92 1 34 87
M  V30 93 1 35 88
M  V30 94 1 36 89
M  V30 95 1 37 90
M  V30 96 1 39 91
M  V30 97 1 47 92
M  V30 98 1 47 93
M  V30 99 1 48 94
M  V30 100 1 48 95
M  V30 101 1 49 96
M  V30 102 1 49 97
M  V30 103 1 52 98
M  V30 104 1 54 99
M  V30 105 1 55 100
M  V30 106 1 57 101
M  V30 107 1 58 102
M  V30 108 1 62 103
M  V30 109 1 62 104
M  V30 END BOND
M  V30 END CTAB
M  END
