
     RDKit          3D

  0  0  0  0  0  0  0  0  0  0999 V3000
M  V30 BEGIN CTAB
M  V30 COUNTS 39 42 0 0 0
M  V30 BEGIN ATOM
M  V30 1 N 4.29749 -1.32602 1.98655 0
M  V30 2 C 3.22853 -1.25112 1.54229 0
M  V30 3 C 1.91236 -1.19321 0.993788 0
M  V30 4 C 1.51983 -0.206156 0.130605 0
M  V30 5 N 0.250772 -0.21015 -0.383194 0
M  V30 6 C -0.56728 -1.19394 -0.0143591 0
M  V30 7 N -0.208386 -2.17789 0.833879 0
M  V30 8 C 1.01602 -2.2096 1.35457 0
M  V30 9 N 1.36687 -3.24897 2.239 0
M  V30 10 N -1.24191 -3.00511 1.00333 0
M  V30 11 C -2.27238 -2.55935 0.26558 0
M  V30 12 C -1.87104 -1.41331 -0.388612 0
M  V30 13 C -2.73815 -0.649622 -1.28578 0
M  V30 14 C -3.2742 0.598592 -0.699326 0
M  V30 15 C -2.72359 1.84855 -0.747889 0
M  V30 16 C -3.3876 2.84104 -0.142517 0
M  V30 17 C -4.56804 2.52694 0.479317 0
M  V30 18 S -4.70126 0.846203 0.189576 0
M  V30 19 N -3.55943 -3.17584 0.181566 0
M  V30 20 C 2.4691 0.832891 -0.240387 0
M  V30 21 C 2.60757 1.09638 -1.6098 0
M  V30 22 C 3.46633 2.07111 -2.07291 0
M  V30 23 C 4.20936 2.80942 -1.19447 0
M  V30 24 C 4.06616 2.54362 0.145517 0
M  V30 25 C 3.21384 1.57402 0.63524 0
M  V30 26 H 2.22124 -3.84661 2.09209 0
M  V30 27 H 0.803152 -3.47884 3.07835 0
M  V30 28 H -2.12428 -0.418153 -2.20596 0
M  V30 29 H -3.56825 -1.29841 -1.69011 0
M  V30 30 H -1.75652 2.02817 -1.27414 0
M  V30 31 H -3.04062 3.90058 -0.114028 0
M  V30 32 H -5.24774 3.20819 1.02613 0
M  V30 33 H -3.93535 -3.61416 -0.678557 0
M  V30 34 H -4.15532 -3.18612 1.0339 0
M  V30 35 H 2.04924 0.548865 -2.35753 0
M  V30 36 H 3.5631 2.26409 -3.13852 0
M  V30 37 H 4.90562 3.59503 -1.51668 0
M  V30 38 H 4.64622 3.11692 0.862112 0
M  V30 39 H 3.12855 1.41197 1.68138 0
M  V30 END ATOM
M  V30 BEGIN BOND
M  V30 1 3 1 2
M  V30 2 1 2 3
M  V30 3 1 3 4
M  V30 4 2 4 5
M  V30 5 1 5 6
M  V30 6 1 6 7
M  V30 7 1 7 8
M  V30 8 1 8 9
M  V30 9 1 7 10
M  V30 10 2 10 11
M  V30 11 1 11 12
M  V30 12 1 12 13
M  V30 13 1 13 14
M  V30 14 2 14 15
M  V30 15 1 15 16
M  V30 16 2 16 17
M  V30 17 1 17 18
M  V30 18 1 11 19
M  V30 19 1 4 20
M  V30 20 2 20 21
M  V30 21 1 21 22
M  V30 22 2 22 23
M  V30 23 1 23 24
M  V30 24 2 24 25
M  V30 25 2 8 3
M  V30 26 1 18 14
M  V30 27 1 25 20
M  V30 28 2 12 6
M  V30 29 1 9 26
M  V30 30 1 9 27
M  V30 31 1 13 28
M  V30 32 1 13 29
M  V30 33 1 15 30
M  V30 34 1 16 31
M  V30 35 1 17 32
M  V30 36 1 19 33
M  V30 37 1 19 34
M  V30 38 1 21 35
M  V30 39 1 22 36
M  V30 40 1 23 37
M  V30 41 1 24 38
M  V30 42 1 25 39
M  V30 END BOND
M  V30 END CTAB
M  END
