
     RDKit          3D

  0  0  0  0  0  0  0  0  0  0999 V3000
M  V30 BEGIN CTAB
M  V30 COUNTS 15 14 0 0 0
M  V30 BEGIN ATOM
M  V30 1 N 1.43488 0.774485 0.146784 0
M  V30 2 C 1.16569 -0.601556 -0.181436 0
M  V30 3 C -0.116718 -0.986876 0.526642 0
M  V30 4 F -0.462235 -2.30309 0.271023 0
M  V30 5 F 0.0788802 -0.869645 1.88837 0
M  V30 6 C -1.27738 -0.128907 0.141068 0
M  V30 7 N -1.09098 1.26928 0.43129 0
M  V30 8 H 1.35749 1.40903 -0.653081 0
M  V30 9 H 2.26245 0.913687 0.745514 0
M  V30 10 H 1.98813 -1.22835 0.219885 0
M  V30 11 H 1.11112 -0.784297 -1.27041 0
M  V30 12 H -1.51169 -0.203093 -0.945788 0
M  V30 13 H -2.15434 -0.474273 0.727638 0
M  V30 14 H -1.99437 1.75036 0.206009 0
M  V30 15 H -0.790906 1.46325 1.39586 0
M  V30 END ATOM
M  V30 BEGIN BOND
M  V30 1 1 1 2
M  V30 2 1 2 3
M  V30 3 1 3 4
M  V30 4 1 3 5
M  V30 5 1 3 6
M  V30 6 1 6 7
M  V30 7 1 1 8
M  V30 8 1 1 9
M  V30 9 1 2 10
M  V30 10 1 2 11
M  V30 11 1 6 12
M  V30 12 1 6 13
M  V30 13 1 7 14
M  V30 14 1 7 15
M  V30 END BOND
M  V30 END CTAB
M  END
