
     RDKit          3D

  0  0  0  0  0  0  0  0  0  0999 V3000
M  V30 BEGIN CTAB
M  V30 COUNTS 23 23 0 0 0
M  V30 BEGIN ATOM
M  V30 1 C -1.60674 -1.56071 -1.16012 0
M  V30 2 C -1.23272 -0.623503 0.012364 0
M  V30 3 C 0.232837 -0.784309 0.191406 0
M  V30 4 N 0.755558 -1.99431 0.500722 0
M  V30 5 N 2.06696 -1.87795 0.565146 0
M  V30 6 C 2.40739 -0.593296 0.297545 0
M  V30 7 N 1.2434 0.0581683 0.0710744 0
M  V30 8 N 1.16919 1.4151 -0.210728 0
M  V30 9 N 3.69211 0.00824289 0.233984 0
M  V30 10 N -1.63085 0.719811 -0.300317 0
M  V30 11 C -2.11904 1.47579 0.827429 0
M  V30 12 H -0.986208 -2.48387 -0.979029 0
M  V30 13 H -2.66954 -1.73158 -1.24196 0
M  V30 14 H -1.11358 -1.09277 -2.0485 0
M  V30 15 H -1.73387 -0.955694 0.935737 0
M  V30 16 H 0.925023 2.07945 0.54755 0
M  V30 17 H 1.34488 1.8375 -1.14045 0
M  V30 18 H 4.26639 -0.207451 -0.621258 0
M  V30 19 H 4.00538 0.605459 0.988909 0
M  V30 20 H -2.47449 0.62437 -0.941165 0
M  V30 21 H -1.58062 2.46924 0.904494 0
M  V30 22 H -3.1894 1.68329 0.831905 0
M  V30 23 H -1.77206 0.929029 1.73527 0
M  V30 END ATOM
M  V30 BEGIN BOND
M  V30 1 1 1 2
M  V30 2 1 2 3
M  V30 3 2 3 4
M  V30 4 1 4 5
M  V30 5 2 5 6
M  V30 6 1 6 7
M  V30 7 1 7 8
M  V30 8 1 6 9
M  V30 9 1 2 10
M  V30 10 1 10 11
M  V30 11 1 7 3
M  V30 12 1 1 12
M  V30 13 1 1 13
M  V30 14 1 1 14
M  V30 15 1 2 15
M  V30 16 1 8 16
M  V30 17 1 8 17
M  V30 18 1 9 18
M  V30 19 1 9 19
M  V30 20 1 10 20
M  V30 21 1 11 21
M  V30 22 1 11 22
M  V30 23 1 11 23
M  V30 END BOND
M  V30 END CTAB
M  END
