
     RDKit          3D

  0  0  0  0  0  0  0  0  0  0999 V3000
M  V30 BEGIN CTAB
M  V30 COUNTS 28 28 0 0 0
M  V30 BEGIN ATOM
M  V30 1 N 0.044685 1.18765 1.89465 0
M  V30 2 C 0.475048 0.467402 0.718201 0
M  V30 3 C 1.78432 0.307588 0.427509 0
M  V30 4 C 2.09183 -0.390185 -0.709573 0
M  V30 5 S 0.542961 -0.797008 -1.33031 0
M  V30 6 C -0.426058 -0.0730177 -0.134642 0
M  V30 7 C -1.91222 -0.0840983 -0.11629 0
M  V30 8 C -2.50366 1.28135 -0.149867 0
M  V30 9 C -2.33914 -0.754912 1.1751 0
M  V30 10 C -2.44581 -0.880731 -1.26287 0
M  V30 11 S 3.68943 -0.776033 -1.37316 0
M  V30 12 O 3.83399 -2.26759 -1.33985 0
M  V30 13 O 3.77643 -0.215583 -2.75074 0
M  V30 14 N 4.86142 -0.100964 -0.308849 0
M  V30 15 H -0.298328 2.1459 1.80695 0
M  V30 16 H 0.0937721 0.71591 2.80032 0
M  V30 17 H 2.62683 0.702643 1.04641 0
M  V30 18 H -3.57017 1.17132 -0.5074 0
M  V30 19 H -2.57905 1.69611 0.872029 0
M  V30 20 H -1.97976 1.94648 -0.857079 0
M  V30 21 H -2.24274 -0.0268266 2.00538 0
M  V30 22 H -1.68155 -1.6331 1.31308 0
M  V30 23 H -3.40513 -1.04672 1.034 0
M  V30 24 H -2.9535 -1.82448 -0.909101 0
M  V30 25 H -3.22127 -0.334513 -1.83336 0
M  V30 26 H -1.66957 -1.18928 -1.98955 0
M  V30 27 H 4.46959 -0.155685 0.66365 0
M  V30 28 H 4.93763 0.928358 -0.523052 0
M  V30 END ATOM
M  V30 BEGIN BOND
M  V30 1 1 1 2
M  V30 2 1 2 3
M  V30 3 2 3 4
M  V30 4 1 4 5
M  V30 5 1 5 6
M  V30 6 1 6 7
M  V30 7 1 7 8
M  V30 8 1 7 9
M  V30 9 1 7 10
M  V30 10 1 4 11
M  V30 11 2 11 12
M  V30 12 2 11 13
M  V30 13 1 11 14
M  V30 14 2 6 2
M  V30 15 1 1 15
M  V30 16 1 1 16
M  V30 17 1 3 17
M  V30 18 1 8 18
M  V30 19 1 8 19
M  V30 20 1 8 20
M  V30 21 1 9 21
M  V30 22 1 9 22
M  V30 23 1 9 23
M  V30 24 1 10 24
M  V30 25 1 10 25
M  V30 26 1 10 26
M  V30 27 1 14 27
M  V30 28 1 14 28
M  V30 END BOND
M  V30 END CTAB
M  END
