
     RDKit          3D

  0  0  0  0  0  0  0  0  0  0999 V3000
M  V30 BEGIN CTAB
M  V30 COUNTS 19 18 0 0 0
M  V30 BEGIN ATOM
M  V30 1 C -0.259061 1.69624 0.0513721 0
M  V30 2 C -0.137765 0.215497 -0.26275 0
M  V30 3 O 0.111078 0.0866597 -1.62644 0
M  V30 4 C 1.03862 -0.400852 0.461236 0
M  V30 5 N 2.26905 0.249666 0.138281 0
M  V30 6 C -1.42985 -0.434268 0.0847795 0
M  V30 7 N -1.46913 -1.84726 -0.220308 0
M  V30 8 H -0.934358 1.86994 0.940174 0
M  V30 9 H 0.71009 2.19567 0.158069 0
M  V30 10 H -0.816618 2.13867 -0.823856 0
M  V30 11 H 0.489852 0.917551 -2.01467 0
M  V30 12 H 1.1055 -1.45341 0.143955 0
M  V30 13 H 0.872231 -0.424184 1.5719 0
M  V30 14 H 2.9202 0.120309 0.967488 0
M  V30 15 H 2.78069 -0.228557 -0.662291 0
M  V30 16 H -2.24131 0.122319 -0.439513 0
M  V30 17 H -1.64524 -0.330807 1.17204 0
M  V30 18 H -0.909289 -2.33036 0.524367 0
M  V30 19 H -2.45469 -2.16282 -0.163822 0
M  V30 END ATOM
M  V30 BEGIN BOND
M  V30 1 1 1 2
M  V30 2 1 2 3
M  V30 3 1 2 4
M  V30 4 1 4 5
M  V30 5 1 2 6
M  V30 6 1 6 7
M  V30 7 1 1 8
M  V30 8 1 1 9
M  V30 9 1 1 10
M  V30 10 1 3 11
M  V30 11 1 4 12
M  V30 12 1 4 13
M  V30 13 1 5 14
M  V30 14 1 5 15
M  V30 15 1 6 16
M  V30 16 1 6 17
M  V30 17 1 7 18
M  V30 18 1 7 19
M  V30 END BOND
M  V30 END CTAB
M  END
