
     RDKit          3D

  0  0  0  0  0  0  0  0  0  0999 V3000
M  V30 BEGIN CTAB
M  V30 COUNTS 20 20 0 0 0
M  V30 BEGIN ATOM
M  V30 1 C 3.34451 -0.356625 -0.0522526 0
M  V30 2 O 2.18266 -0.145125 -0.772833 0
M  V30 3 C 1.12501 -0.00133881 0.139269 0
M  V30 4 N 0.594086 1.30399 0.162323 0
M  V30 5 C -0.779205 1.55195 0.0547749 0
M  V30 6 C -1.61594 0.536666 -0.0731254 0
M  V30 7 C -1.09044 -0.8433 -0.100687 0
M  V30 8 N 0.150872 -1.01189 -0.000486298 0
M  V30 9 N -1.985 -1.94584 -0.238368 0
M  V30 10 N -3.01481 0.684884 -0.188231 0
M  V30 11 H 3.2706 -1.2832 0.579151 0
M  V30 12 H 3.51877 0.466699 0.701962 0
M  V30 13 H 4.25117 -0.36108 -0.68222 0
M  V30 14 H 1.63821 -0.116791 1.1625 0
M  V30 15 H 1.23868 2.12667 0.262981 0
M  V30 16 H -1.20687 2.56947 0.0715684 0
M  V30 17 H -2.21672 -2.50247 0.586878 0
M  V30 18 H -2.37125 -2.14972 -1.16235 0
M  V30 19 H -3.57332 0.83459 0.664832 0
M  V30 20 H -3.461 0.642469 -1.11568 0
M  V30 END ATOM
M  V30 BEGIN BOND
M  V30 1 1 1 2
M  V30 2 1 2 3
M  V30 3 1 3 4
M  V30 4 1 4 5
M  V30 5 2 5 6
M  V30 6 1 6 7
M  V30 7 2 7 8
M  V30 8 1 7 9
M  V30 9 1 6 10
M  V30 10 1 8 3
M  V30 11 1 1 11
M  V30 12 1 1 12
M  V30 13 1 1 13
M  V30 14 1 3 14
M  V30 15 1 4 15
M  V30 16 1 5 16
M  V30 17 1 9 17
M  V30 18 1 9 18
M  V30 19 1 10 19
M  V30 20 1 10 20
M  V30 END BOND
M  V30 END CTAB
M  END
