
     RDKit          3D

  0  0  0  0  0  0  0  0  0  0999 V3000
M  V30 BEGIN CTAB
M  V30 COUNTS 26 26 0 0 0
M  V30 BEGIN ATOM
M  V30 1 C 0.307717 0.764609 -2.08746 0
M  V30 2 C 0.177506 0.358955 -0.666807 0
M  V30 3 N 1.23184 0.179174 0.0236691 0
M  V30 4 N 2.50397 0.356225 -0.529889 0
M  V30 5 C 3.5746 -0.0998833 -0.00117671 0
M  V30 6 N 3.57366 -0.831609 1.20171 0
M  V30 7 N 4.80941 0.141322 -0.65249 0
M  V30 8 C -1.1569 0.167307 -0.0665842 0
M  V30 9 C -2.29346 0.36166 -0.810043 0
M  V30 10 C -3.56596 0.193311 -0.288754 0
M  V30 11 C -3.70847 -0.184786 1.02967 0
M  V30 12 C -2.56763 -0.383702 1.78939 0
M  V30 13 C -1.31285 -0.209567 1.24683 0
M  V30 14 O -4.93826 -0.376768 1.63617 0
M  V30 15 H 0.0174379 1.84365 -2.15962 0
M  V30 16 H -0.421284 0.18569 -2.72354 0
M  V30 17 H 1.30683 0.596046 -2.48593 0
M  V30 18 H 2.64485 -1.11504 1.61134 0
M  V30 19 H 4.43394 -1.09924 1.69384 0
M  V30 20 H 5.53357 0.710079 -0.191811 0
M  V30 21 H 4.99446 -0.247381 -1.58791 0
M  V30 22 H -2.20185 0.660373 -1.85231 0
M  V30 23 H -4.46007 0.346932 -0.876195 0
M  V30 24 H -2.68359 -0.680288 2.82336 0
M  V30 25 H -0.432278 -0.364503 1.83814 0
M  V30 26 H -5.36721 0.418638 2.08641 0
M  V30 END ATOM
M  V30 BEGIN BOND
M  V30 1 1 1 2
M  V30 2 2 2 3
M  V30 3 1 3 4
M  V30 4 2 4 5
M  V30 5 1 5 6
M  V30 6 1 5 7
M  V30 7 1 2 8
M  V30 8 2 8 9
M  V30 9 1 9 10
M  V30 10 2 10 11
M  V30 11 1 11 12
M  V30 12 2 12 13
M  V30 13 1 11 14
M  V30 14 1 13 8
M  V30 15 1 1 15
M  V30 16 1 1 16
M  V30 17 1 1 17
M  V30 18 1 6 18
M  V30 19 1 6 19
M  V30 20 1 7 20
M  V30 21 1 7 21
M  V30 22 1 9 22
M  V30 23 1 10 23
M  V30 24 1 12 24
M  V30 25 1 13 25
M  V30 26 1 14 26
M  V30 END BOND
M  V30 END CTAB
M  END
