
     RDKit          3D

  0  0  0  0  0  0  0  0  0  0999 V3000
M  V30 BEGIN CTAB
M  V30 COUNTS 27 26 0 0 0
M  V30 BEGIN ATOM
M  V30 1 N -2.09915 1.8457 0.745669 0
M  V30 2 C -2.18176 0.556834 0.101757 0
M  V30 3 C -0.812812 -0.149801 0.195713 0
M  V30 4 C 0.137982 0.742493 -0.497907 0
M  V30 5 C 1.55705 0.320738 -0.5709 0
M  V30 6 C 2.21823 0.133856 0.767972 0
M  V30 7 C 1.82677 -0.880896 -1.40795 0
M  V30 8 N -0.574769 -0.348465 1.58557 0
M  V30 9 C -1.03112 -1.4844 -0.456635 0
M  V30 10 H -2.38638 1.82209 1.73229 0
M  V30 11 H -2.60023 2.59662 0.220053 0
M  V30 12 H -2.35288 0.699668 -0.985423 0
M  V30 13 H -2.97623 -0.0821533 0.53221 0
M  V30 14 H 0.102449 1.73159 0.0176071 0
M  V30 15 H -0.224675 0.927667 -1.52613 0
M  V30 16 H 2.10735 1.1831 -1.05698 0
M  V30 17 H 2.09314 -0.887261 1.18079 0
M  V30 18 H 3.32871 0.232896 0.582828 0
M  V30 19 H 1.95472 0.93163 1.48799 0
M  V30 20 H 1.9786 -1.76109 -0.718775 0
M  V30 21 H 2.83089 -0.771602 -1.91585 0
M  V30 22 H 1.10964 -1.07704 -2.20314 0
M  V30 23 H -0.313025 0.474019 2.12874 0
M  V30 24 H -0.180187 -1.24647 1.86068 0
M  V30 25 H -2.02816 -1.85864 -0.0732323 0
M  V30 26 H -1.17952 -1.39711 -1.55834 0
M  V30 27 H -0.304626 -2.25397 -0.168608 0
M  V30 END ATOM
M  V30 BEGIN BOND
M  V30 1 1 1 2
M  V30 2 1 2 3
M  V30 3 1 3 4
M  V30 4 1 4 5
M  V30 5 1 5 6
M  V30 6 1 5 7
M  V30 7 1 3 8
M  V30 8 1 3 9
M  V30 9 1 1 10
M  V30 10 1 1 11
M  V30 11 1 2 12
M  V30 12 1 2 13
M  V30 13 1 4 14
M  V30 14 1 4 15
M  V30 15 1 5 16
M  V30 16 1 6 17
M  V30 17 1 6 18
M  V30 18 1 6 19
M  V30 19 1 7 20
M  V30 20 1 7 21
M  V30 21 1 7 22
M  V30 22 1 8 23
M  V30 23 1 8 24
M  V30 24 1 9 25
M  V30 25 1 9 26
M  V30 26 1 9 27
M  V30 END BOND
M  V30 END CTAB
M  END
