
     RDKit          3D

  0  0  0  0  0  0  0  0  0  0999 V3000
M  V30 BEGIN CTAB
M  V30 COUNTS 29 30 0 0 0
M  V30 BEGIN ATOM
M  V30 1 N 0.688605 -1.69046 1.19382 0
M  V30 2 C 0.998189 -0.85727 0.0818167 0
M  V30 3 C 2.32057 -0.115234 0.235663 0
M  V30 4 C 2.24809 0.804562 -0.99007 0
M  V30 5 C 0.823656 1.27046 -0.965952 0
M  V30 6 C 0.0424394 0.291491 -0.116586 0
M  V30 7 C -0.439208 0.895159 1.16712 0
M  V30 8 C -1.89655 0.494655 1.31898 0
M  V30 9 C -2.38063 0.406932 -0.121939 0
M  V30 10 C -1.19665 -0.144329 -0.849548 0
M  V30 11 N -1.24196 -1.59601 -0.795234 0
M  V30 12 H 1.54032 -1.74483 1.80539 0
M  V30 13 H 0.504191 -2.68599 0.873053 0
M  V30 14 H 1.07487 -1.43697 -0.847807 0
M  V30 15 H 2.3171 0.560552 1.11564 0
M  V30 16 H 3.18904 -0.769957 0.190565 0
M  V30 17 H 2.97366 1.62141 -0.893747 0
M  V30 18 H 2.45883 0.194705 -1.91344 0
M  V30 19 H 0.393194 1.34716 -1.99732 0
M  V30 20 H 0.811688 2.27474 -0.486471 0
M  V30 21 H 0.15242 0.612412 2.05219 0
M  V30 22 H -0.401163 2.00778 1.05267 0
M  V30 23 H -2.01622 -0.454266 1.86346 0
M  V30 24 H -2.48311 1.27446 1.83557 0
M  V30 25 H -3.26764 -0.252915 -0.138686 0
M  V30 26 H -2.63388 1.45638 -0.414633 0
M  V30 27 H -1.11973 0.173328 -1.90256 0
M  V30 28 H -1.8844 -1.90996 -0.0228018 0
M  V30 29 H -1.57572 -2.02799 -1.67024 0
M  V30 END ATOM
M  V30 BEGIN BOND
M  V30 1 1 1 2
M  V30 2 1 2 3
M  V30 3 1 3 4
M  V30 4 1 4 5
M  V30 5 1 5 6
M  V30 6 1 6 7
M  V30 7 1 7 8
M  V30 8 1 8 9
M  V30 9 1 9 10
M  V30 10 1 10 11
M  V30 11 1 6 2
M  V30 12 1 10 6
M  V30 13 1 1 12
M  V30 14 1 1 13
M  V30 15 1 2 14
M  V30 16 1 3 15
M  V30 17 1 3 16
M  V30 18 1 4 17
M  V30 19 1 4 18
M  V30 20 1 5 19
M  V30 21 1 5 20
M  V30 22 1 7 21
M  V30 23 1 7 22
M  V30 24 1 8 23
M  V30 25 1 8 24
M  V30 26 1 9 25
M  V30 27 1 9 26
M  V30 28 1 10 27
M  V30 29 1 11 28
M  V30 30 1 11 29
M  V30 END BOND
M  V30 END CTAB
M  END
