
     RDKit          3D

  0  0  0  0  0  0  0  0  0  0999 V3000
M  V30 BEGIN CTAB
M  V30 COUNTS 27 27 0 0 0
M  V30 BEGIN ATOM
M  V30 1 N -1.76501 -1.34715 -2.2796 0
M  V30 2 C -2.0844 -0.871269 -0.963187 0
M  V30 3 N -3.23977 -0.405487 -0.772028 0
M  V30 4 C -3.76205 0.117329 0.425194 0
M  V30 5 N -3.85738 -0.590476 1.48459 0
M  V30 6 N -4.19404 1.4765 0.469493 0
M  V30 7 S -0.80724 -1.00149 0.282774 0
M  V30 8 C 0.850516 -1.10614 -0.415638 0
M  V30 9 C 1.6144 0.174298 -0.0911014 0
M  V30 10 C 3.02 0.16714 -0.691371 0
M  V30 11 C 3.70884 1.13939 0.237887 0
M  V30 12 C 3.14789 1.06614 1.42995 0
M  V30 13 C 2.06606 0.0628573 1.39381 0
M  V30 14 H -0.997847 -0.902796 -2.81246 0
M  V30 15 H -2.26513 -2.14412 -2.73238 0
M  V30 16 H -4.24515 -0.178073 2.37494 0
M  V30 17 H -5.18971 1.67268 0.672375 0
M  V30 18 H -3.54397 2.25107 0.290218 0
M  V30 19 H 0.78029 -1.04871 -1.55932 0
M  V30 20 H 1.43303 -1.94868 -0.0794572 0
M  V30 21 H 1.08057 1.09943 -0.259458 0
M  V30 22 H 3.45263 -0.819727 -0.4914 0
M  V30 23 H 3.07128 0.495422 -1.72333 0
M  V30 24 H 4.51786 1.76633 -0.0593315 0
M  V30 25 H 3.37599 1.61566 2.35015 0
M  V30 26 H 2.56572 -0.934429 1.42139 0
M  V30 27 H 1.26664 0.194294 2.09731 0
M  V30 END ATOM
M  V30 BEGIN BOND
M  V30 1 1 1 2
M  V30 2 2 2 3 CFG=2
M  V30 3 1 3 4
M  V30 4 2 4 5 CFG=2
M  V30 5 1 4 6
M  V30 6 1 2 7
M  V30 7 1 7 8
M  V30 8 1 8 9
M  V30 9 1 9 10
M  V30 10 1 10 11
M  V30 11 2 11 12
M  V30 12 1 12 13
M  V30 13 1 13 9
M  V30 14 1 1 14
M  V30 15 1 1 15
M  V30 16 1 5 16
M  V30 17 1 6 17
M  V30 18 1 6 18
M  V30 19 1 8 19
M  V30 20 1 8 20
M  V30 21 1 9 21
M  V30 22 1 10 22
M  V30 23 1 10 23
M  V30 24 1 11 24
M  V30 25 1 12 25
M  V30 26 1 13 26
M  V30 27 1 13 27
M  V30 END BOND
M  V30 END CTAB
M  END
