
     RDKit          3D

  0  0  0  0  0  0  0  0  0  0999 V3000
M  V30 BEGIN CTAB
M  V30 COUNTS 17 17 0 0 0
M  V30 BEGIN ATOM
M  V30 1 N 2.80595 -0.603281 -0.00458057 0
M  V30 2 C 1.46722 -0.102607 -0.0266987 0
M  V30 3 C 0.390657 -0.961322 0.0749349 0
M  V30 4 C -0.909686 -0.48536 0.054435 0
M  V30 5 N -2.01552 -1.39251 0.161214 0
M  V30 6 C -1.17967 0.861228 -0.0679534 0
M  V30 7 O -2.4848 1.35812 -0.0903454 0
M  V30 8 C -0.108674 1.72223 -0.169699 0
M  V30 9 C 1.18778 1.24309 -0.148825 0
M  V30 10 H 3.30016 -0.618097 0.929099 0
M  V30 11 H 3.30685 -0.943922 -0.830844 0
M  V30 12 H 0.603631 -2.03524 0.172575 0
M  V30 13 H -2.73969 -1.49 -0.574559 0
M  V30 14 H -2.06064 -1.96227 1.03 0
M  V30 15 H -3.24886 0.683691 -0.0120614 0
M  V30 16 H -0.325966 2.77458 -0.265229 0
M  V30 17 H 2.01126 1.95167 -0.231463 0
M  V30 END ATOM
M  V30 BEGIN BOND
M  V30 1 1 1 2
M  V30 2 2 2 3
M  V30 3 1 3 4
M  V30 4 1 4 5
M  V30 5 2 4 6
M  V30 6 1 6 7
M  V30 7 1 6 8
M  V30 8 2 8 9
M  V30 9 1 9 2
M  V30 10 1 1 10
M  V30 11 1 1 11
M  V30 12 1 3 12
M  V30 13 1 5 13
M  V30 14 1 5 14
M  V30 15 1 7 15
M  V30 16 1 8 16
M  V30 17 1 9 17
M  V30 END BOND
M  V30 END CTAB
M  END
