
     RDKit          3D

  0  0  0  0  0  0  0  0  0  0999 V3000
M  V30 BEGIN CTAB
M  V30 COUNTS 20 20 0 0 0
M  V30 BEGIN ATOM
M  V30 1 C 2.89601 -0.558155 -0.486224 0
M  V30 2 O 1.83515 0.103894 -1.15006 0
M  V30 3 C 0.69789 0.489894 -0.452859 0
M  V30 4 C 0.560127 1.71354 0.162049 0
M  V30 5 Br 2.00201 2.96058 0.0607324 0
M  V30 6 C -0.593341 2.05388 0.846125 0
M  V30 7 C -1.62315 1.13837 0.907273 0
M  V30 8 C -1.53226 -0.100327 0.30715 0
M  V30 9 C -0.368343 -0.408328 -0.367163 0
M  V30 10 N -0.300089 -1.69094 -0.976643 0
M  V30 11 N -2.59108 -1.03223 0.37425 0
M  V30 12 Br -3.21491 1.64166 1.86643 0
M  V30 13 H 2.58984 -0.772772 0.56454 0
M  V30 14 H 3.81581 0.0423492 -0.428118 0
M  V30 15 H 3.05689 -1.54983 -0.963995 0
M  V30 16 H -0.685468 3.01439 1.32144 0
M  V30 17 H 0.365151 -2.41766 -0.64551 0
M  V30 18 H -0.941628 -1.88159 -1.77082 0
M  V30 19 H -2.90852 -1.56533 -0.450428 0
M  V30 20 H -3.06008 -1.18139 1.28183 0
M  V30 END ATOM
M  V30 BEGIN BOND
M  V30 1 1 1 2
M  V30 2 1 2 3
M  V30 3 2 3 4
M  V30 4 1 4 5
M  V30 5 1 4 6
M  V30 6 2 6 7
M  V30 7 1 7 8
M  V30 8 2 8 9
M  V30 9 1 9 10
M  V30 10 1 8 11
M  V30 11 1 7 12
M  V30 12 1 9 3
M  V30 13 1 1 13
M  V30 14 1 1 14
M  V30 15 1 1 15
M  V30 16 1 6 16
M  V30 17 1 10 17
M  V30 18 1 10 18
M  V30 19 1 11 19
M  V30 20 1 11 20
M  V30 END BOND
M  V30 END CTAB
M  END
