
     RDKit          3D

  0  0  0  0  0  0  0  0  0  0999 V3000
M  V30 BEGIN CTAB
M  V30 COUNTS 19 19 0 0 0
M  V30 BEGIN ATOM
M  V30 1 N -3.40482 1.09068 -0.617451 0
M  V30 2 C -2.66134 -0.101505 -0.184516 0
M  V30 3 C -1.16013 0.218896 -0.193626 0
M  V30 4 N -0.487967 -0.977391 0.236157 0
M  V30 5 C 0.956475 -0.953852 0.319629 0
M  V30 6 S 2.03785 -2.18782 0.787375 0
M  V30 7 N 3.47245 -1.33621 0.60214 0
M  V30 8 C 3.06564 -0.133168 0.186954 0
M  V30 9 N 1.77524 0.0505885 0.0460607 0
M  V30 10 N 4.08998 0.882839 -0.0774037 0
M  V30 11 H -3.63964 1.67419 0.224423 0
M  V30 12 H -4.29469 0.814614 -1.08627 0
M  V30 13 H -2.8753 -0.874879 -0.934453 0
M  V30 14 H -2.9833 -0.42851 0.805922 0
M  V30 15 H -0.845365 0.559913 -1.18963 0
M  V30 16 H -0.97102 1.05961 0.512757 0
M  V30 17 H -0.9548 -1.84799 0.48865 0
M  V30 18 H 4.20025 1.66179 0.605693 0
M  V30 19 H 4.68047 0.828202 -0.910271 0
M  V30 END ATOM
M  V30 BEGIN BOND
M  V30 1 1 1 2
M  V30 2 1 2 3
M  V30 3 1 3 4
M  V30 4 1 4 5
M  V30 5 1 5 6
M  V30 6 1 6 7
M  V30 7 2 7 8
M  V30 8 1 8 9
M  V30 9 1 8 10
M  V30 10 2 9 5
M  V30 11 1 1 11
M  V30 12 1 1 12
M  V30 13 1 2 13
M  V30 14 1 2 14
M  V30 15 1 3 15
M  V30 16 1 3 16
M  V30 17 1 4 17
M  V30 18 1 10 18
M  V30 19 1 10 19
M  V30 END BOND
M  V30 END CTAB
M  END
