
     RDKit          3D

  0  0  0  0  0  0  0  0  0  0999 V3000
M  V30 BEGIN CTAB
M  V30 COUNTS 19 20 0 0 0
M  V30 BEGIN ATOM
M  V30 1 I 2.13965 -0.650823 2.9883 0
M  V30 2 C 2.27566 -0.437006 0.852094 0
M  V30 3 C 3.4376 -0.538813 0.177688 0
M  V30 4 C 3.39971 -0.384712 -1.17452 0
M  V30 5 S 1.754 -0.10159 -1.48548 0
M  V30 6 C 1.13813 -0.185435 0.127913 0
M  V30 7 C -0.229386 -0.0297631 0.594605 0
M  V30 8 N -0.651477 -0.103927 1.85161 0
M  V30 9 N -1.96504 0.0891032 1.90372 0
M  V30 10 C -2.40523 0.293844 0.645763 0
M  V30 11 N -1.29801 0.214003 -0.152778 0
M  V30 12 N -1.32414 0.369873 -1.53614 0
M  V30 13 N -3.74529 0.536217 0.285082 0
M  V30 14 H 4.41621 -0.740911 0.670121 0
M  V30 15 H 4.24451 -0.434876 -1.88228 0
M  V30 16 H -0.864505 1.17409 -2.00661 0
M  V30 17 H -1.81481 -0.328464 -2.15418 0
M  V30 18 H -4.03516 1.43491 -0.196948 0
M  V30 19 H -4.47244 -0.175719 0.492039 0
M  V30 END ATOM
M  V30 BEGIN BOND
M  V30 1 1 1 2
M  V30 2 1 2 3
M  V30 3 2 3 4
M  V30 4 1 4 5
M  V30 5 1 5 6
M  V30 6 1 6 7
M  V30 7 2 7 8
M  V30 8 1 8 9
M  V30 9 2 9 10
M  V30 10 1 10 11
M  V30 11 1 11 12
M  V30 12 1 10 13
M  V30 13 2 6 2
M  V30 14 1 11 7
M  V30 15 1 3 14
M  V30 16 1 4 15
M  V30 17 1 12 16
M  V30 18 1 12 17
M  V30 19 1 13 18
M  V30 20 1 13 19
M  V30 END BOND
M  V30 END CTAB
M  END
