
     RDKit          3D

  0  0  0  0  0  0  0  0  0  0999 V3000
M  V30 BEGIN CTAB
M  V30 COUNTS 29 29 0 0 0
M  V30 BEGIN ATOM
M  V30 1 N -2.50702 1.94861 -0.176133 0
M  V30 2 C -3.68801 1.15947 -0.0360879 0
M  V30 3 C -3.64591 -0.220294 -0.577687 0
M  V30 4 C -2.64038 -1.14575 -0.0176892 0
M  V30 5 N -1.264 -0.79313 -0.160993 0
M  V30 6 C -0.27171 -1.6631 0.385097 0
M  V30 7 O -0.666137 -2.70428 0.969201 0
M  V30 8 C 1.15605 -1.3564 0.270633 0
M  V30 9 C 2.1727 -2.13584 0.765558 0
M  V30 10 C 3.38288 -1.50282 0.453039 0
M  V30 11 C 2.99899 -0.357931 -0.22521 0
M  V30 12 O 1.69141 -0.319838 -0.304655 0
M  V30 13 S 4.06889 0.836126 -0.867992 0
M  V30 14 O 5.50163 0.493026 -0.612639 0
M  V30 15 O 3.78912 0.949582 -2.35236 0
M  V30 16 N 3.77279 2.38634 -0.165151 0
M  V30 17 F -4.90286 -0.781624 -0.281281 0
M  V30 18 F -3.62255 -0.22597 -1.98546 0
M  V30 19 H -2.38375 2.61306 0.628062 0
M  V30 20 H -2.3867 2.38912 -1.10142 0
M  V30 21 H -4.51422 1.76382 -0.518664 0
M  V30 22 H -4.00403 1.11002 1.03854 0
M  V30 23 H -2.83564 -2.15629 -0.488993 0
M  V30 24 H -2.88652 -1.28991 1.06523 0
M  V30 25 H -0.931935 0.0619512 -0.650634 0
M  V30 26 H 2.13146 -3.07413 1.30578 0
M  V30 27 H 4.38458 -1.81585 0.677877 0
M  V30 28 H 3.52088 3.10134 -0.890122 0
M  V30 29 H 4.58 2.73067 0.37495 0
M  V30 END ATOM
M  V30 BEGIN BOND
M  V30 1 1 1 2
M  V30 2 1 2 3
M  V30 3 1 3 4
M  V30 4 1 4 5
M  V30 5 1 5 6
M  V30 6 2 6 7
M  V30 7 1 6 8
M  V30 8 2 8 9
M  V30 9 1 9 10
M  V30 10 2 10 11
M  V30 11 1 11 12
M  V30 12 1 11 13
M  V30 13 2 13 14
M  V30 14 2 13 15
M  V30 15 1 13 16
M  V30 16 1 3 17
M  V30 17 1 3 18
M  V30 18 1 12 8
M  V30 19 1 1 19
M  V30 20 1 1 20
M  V30 21 1 2 21
M  V30 22 1 2 22
M  V30 23 1 4 23
M  V30 24 1 4 24
M  V30 25 1 5 25
M  V30 26 1 9 26
M  V30 27 1 10 27
M  V30 28 1 16 28
M  V30 29 1 16 29
M  V30 END BOND
M  V30 END CTAB
M  END
