
     RDKit          3D

  0  0  0  0  0  0  0  0  0  0999 V3000
M  V30 BEGIN CTAB
M  V30 COUNTS 31 33 0 0 0
M  V30 BEGIN ATOM
M  V30 1 N -3.80909 -2.26264 -1.17813 0
M  V30 2 C -3.02254 -1.20731 -0.656464 0
M  V30 3 C -3.68104 -0.098324 -0.151932 0
M  V30 4 C -2.96508 0.948634 0.363761 0
M  V30 5 N -3.62546 2.08909 0.882884 0
M  V30 6 C -1.57043 0.872375 0.368804 0
M  V30 7 C -0.893558 -0.193023 -0.114644 0
M  V30 8 C -1.64605 -1.25867 -0.640227 0
M  V30 9 C 0.546574 -0.289952 -0.119362 0
M  V30 10 O 1.28433 -1.29192 -0.569537 0
M  V30 11 C 2.55745 -1.04888 -0.419229 0
M  V30 12 C 2.64107 0.190073 0.165615 0
M  V30 13 N 1.40665 0.620113 0.332842 0
M  V30 14 C 3.85845 0.788986 0.481652 0
M  V30 15 C 5.0366 0.0949303 0.188705 0
M  V30 16 C 4.97193 -1.15015 -0.398486 0
M  V30 17 C 3.73709 -1.71194 -0.697562 0
M  V30 18 Cl 6.54245 0.875356 0.598242 0
M  V30 19 C -0.872631 2.03146 0.937559 0
M  V30 20 H -4.27318 -2.12023 -2.10161 0
M  V30 21 H -3.96184 -3.17831 -0.707496 0
M  V30 22 H -4.76048 -0.0755257 -0.172943 0
M  V30 23 H -3.43433 3.00884 0.421128 0
M  V30 24 H -4.28406 2.0718 1.68841 0
M  V30 25 H -1.10921 -2.1255 -1.03394 0
M  V30 26 H 3.87583 1.7664 0.941663 0
M  V30 27 H 5.90925 -1.6482 -0.606101 0
M  V30 28 H 3.68068 -2.68891 -1.15847 0
M  V30 29 H -0.28982 1.71125 1.82513 0
M  V30 30 H -0.256422 2.49591 0.155679 0
M  V30 31 H -1.59312 2.78426 1.37405 0
M  V30 END ATOM
M  V30 BEGIN BOND
M  V30 1 1 1 2
M  V30 2 2 2 3
M  V30 3 1 3 4
M  V30 4 1 4 5
M  V30 5 2 4 6
M  V30 6 1 6 7
M  V30 7 2 7 8
M  V30 8 1 7 9
M  V30 9 1 9 10
M  V30 10 1 10 11
M  V30 11 2 11 12
M  V30 12 1 12 13
M  V30 13 1 12 14
M  V30 14 2 14 15
M  V30 15 1 15 16
M  V30 16 2 16 17
M  V30 17 1 15 18
M  V30 18 1 6 19
M  V30 19 1 8 2
M  V30 20 2 13 9
M  V30 21 1 17 11
M  V30 22 1 1 20
M  V30 23 1 1 21
M  V30 24 1 3 22
M  V30 25 1 5 23
M  V30 26 1 5 24
M  V30 27 1 8 25
M  V30 28 1 14 26
M  V30 29 1 16 27
M  V30 30 1 17 28
M  V30 31 1 19 29
M  V30 32 1 19 30
M  V30 33 1 19 31
M  V30 END BOND
M  V30 END CTAB
M  END
