
     RDKit          3D

  0  0  0  0  0  0  0  0  0  0999 V3000
M  V30 BEGIN CTAB
M  V30 COUNTS 33 32 0 0 0
M  V30 BEGIN ATOM
M  V30 1 N 1.73064 -1.81744 -1.24135 0
M  V30 2 C 0.773403 -1.32128 -0.231649 0
M  V30 3 C -0.299032 -0.628655 -1.01226 0
M  V30 4 C -1.4063 -0.0343007 -0.217319 0
M  V30 5 C -2.41952 0.624174 -1.1616 0
M  V30 6 N -3.46087 1.17349 -0.311278 0
M  V30 7 C -4.2922 0.251075 0.377929 0
M  V30 8 N -5.27922 -0.430317 -0.386279 0
M  V30 9 N -4.12138 0.0776693 1.62658 0
M  V30 10 C 1.53811 -0.451606 0.681921 0
M  V30 11 O 1.01144 0.0820961 1.68957 0
M  V30 12 N 2.92662 -0.191116 0.435083 0
M  V30 13 C 3.70718 0.650596 1.30049 0
M  V30 14 C 5.10025 0.7389 0.803557 0
M  V30 15 O 6.07626 1.48611 1.44508 0
M  V30 16 O 5.43531 0.120769 -0.239339 0
M  V30 17 H 1.97513 -0.953476 -1.80914 0
M  V30 18 H 1.22119 -2.49058 -1.88676 0
M  V30 19 H 0.374334 -2.18319 0.36001 0
M  V30 20 H -0.756737 -1.42316 -1.67137 0
M  V30 21 H 0.177273 0.134255 -1.66149 0
M  V30 22 H -1.90329 -0.787743 0.395573 0
M  V30 23 H -0.969291 0.744015 0.460803 0
M  V30 24 H -1.95323 1.48569 -1.67519 0
M  V30 25 H -2.79465 -0.0940432 -1.90131 0
M  V30 26 H -3.6361 2.18238 -0.174327 0
M  V30 27 H -5.54372 -0.143288 -1.35064 0
M  V30 28 H -5.76182 -1.25438 0.0351577 0
M  V30 29 H -4.73215 -0.599895 2.13184 0
M  V30 30 H 3.40648 -0.617311 -0.396039 0
M  V30 31 H 3.25999 1.65381 1.45956 0
M  V30 32 H 3.75066 0.130035 2.2975 0
M  V30 33 H 6.86525 0.942364 1.8267 0
M  V30 END ATOM
M  V30 BEGIN BOND
M  V30 1 1 1 2
M  V30 2 1 2 3
M  V30 3 1 3 4
M  V30 4 1 4 5
M  V30 5 1 5 6
M  V30 6 1 6 7
M  V30 7 1 7 8
M  V30 8 2 7 9 CFG=2
M  V30 9 1 2 10
M  V30 10 2 10 11
M  V30 11 1 10 12
M  V30 12 1 12 13
M  V30 13 1 13 14
M  V30 14 1 14 15
M  V30 15 2 14 16
M  V30 16 1 1 17
M  V30 17 1 1 18
M  V30 18 1 2 19
M  V30 19 1 3 20
M  V30 20 1 3 21
M  V30 21 1 4 22
M  V30 22 1 4 23
M  V30 23 1 5 24
M  V30 24 1 5 25
M  V30 25 1 6 26
M  V30 26 1 8 27
M  V30 27 1 8 28
M  V30 28 1 9 29
M  V30 29 1 12 30
M  V30 30 1 13 31
M  V30 31 1 13 32
M  V30 32 1 15 33
M  V30 END BOND
M  V30 END CTAB
M  END
