
     RDKit          3D

  0  0  0  0  0  0  0  0  0  0999 V3000
M  V30 BEGIN CTAB
M  V30 COUNTS 41 43 0 0 0
M  V30 BEGIN ATOM
M  V30 1 O 0.296982 -1.67525 2.01847 0
M  V30 2 C -0.576815 -1.90343 1.13983 0
M  V30 3 N -0.468115 -1.4286 -0.174291 0
M  V30 4 C 0.600186 -0.657038 -0.704448 0
M  V30 5 C 0.325957 0.102016 -1.83489 0
M  V30 6 C 1.32595 0.845251 -2.42388 0
M  V30 7 C 2.6052 0.821442 -1.86909 0
M  V30 8 C 2.9025 0.079517 -0.752866 0
M  V30 9 C 1.88443 -0.651844 -0.186957 0
M  V30 10 C 4.28203 0.0468 -0.17875 0
M  V30 11 C 4.5804 -0.704387 0.936293 0
M  V30 12 S 6.24791 -0.394108 1.13716 0
M  V30 13 C 6.46171 0.656619 -0.188 0
M  V30 14 N 5.25771 0.718348 -0.715025 0
M  V30 15 C 7.72501 1.3506 -0.650385 0
M  V30 16 C -1.72841 -2.71497 1.57551 0
M  V30 17 S -3.10677 -2.80758 0.448925 0
M  V30 18 C -4.00706 -1.27594 0.442774 0
M  V30 19 N -3.76036 -0.252326 -0.373694 0
M  V30 20 C -4.44149 0.912966 -0.384718 0
M  V30 21 N -4.11705 1.97143 -1.28765 0
M  V30 22 C -5.46625 1.04004 0.522164 0
M  V30 23 C -5.76775 0.0148863 1.39196 0
M  V30 24 N -5.03718 -1.09878 1.32582 0
M  V30 25 N -6.83576 0.186079 2.31512 0
M  V30 26 H -1.24284 -1.67865 -0.863676 0
M  V30 27 H -0.668736 0.121239 -2.26765 0
M  V30 28 H 1.13689 1.44562 -3.30514 0
M  V30 29 H 3.42449 1.40202 -2.31468 0
M  V30 30 H 2.11939 -1.23657 0.675307 0
M  V30 31 H 3.90443 -1.34245 1.54129 0
M  V30 32 H 8.43983 0.652642 -1.08673 0
M  V30 33 H 7.39692 2.18344 -1.27714 0
M  V30 34 H 8.19191 1.73995 0.300327 0
M  V30 35 H -2.06208 -2.35123 2.60244 0
M  V30 36 H -1.39274 -3.77683 1.81521 0
M  V30 37 H -3.13315 2.29833 -1.32107 0
M  V30 38 H -4.82277 2.40319 -1.88869 0
M  V30 39 H -6.02158 1.96544 0.527859 0
M  V30 40 H -7.70143 -0.393473 2.28203 0
M  V30 41 H -6.75151 0.917041 3.05092 0
M  V30 END ATOM
M  V30 BEGIN BOND
M  V30 1 2 1 2
M  V30 2 1 2 3
M  V30 3 1 3 4
M  V30 4 2 4 5
M  V30 5 1 5 6
M  V30 6 2 6 7
M  V30 7 1 7 8
M  V30 8 2 8 9
M  V30 9 1 8 10
M  V30 10 2 10 11
M  V30 11 1 11 12
M  V30 12 1 12 13
M  V30 13 2 13 14
M  V30 14 1 13 15
M  V30 15 1 2 16
M  V30 16 1 16 17
M  V30 17 1 17 18
M  V30 18 2 18 19
M  V30 19 1 19 20
M  V30 20 1 20 21
M  V30 21 2 20 22
M  V30 22 1 22 23
M  V30 23 2 23 24
M  V30 24 1 23 25
M  V30 25 1 9 4
M  V30 26 1 14 10
M  V30 27 1 24 18
M  V30 28 1 3 26
M  V30 29 1 5 27
M  V30 30 1 6 28
M  V30 31 1 7 29
M  V30 32 1 9 30
M  V30 33 1 11 31
M  V30 34 1 15 32
M  V30 35 1 15 33
M  V30 36 1 15 34
M  V30 37 1 16 35
M  V30 38 1 16 36
M  V30 39 1 21 37
M  V30 40 1 21 38
M  V30 41 1 22 39
M  V30 42 1 25 40
M  V30 43 1 25 41
M  V30 END BOND
M  V30 END CTAB
M  END
