
     RDKit          3D

  0  0  0  0  0  0  0  0  0  0999 V3000
M  V30 BEGIN CTAB
M  V30 COUNTS 29 29 0 0 0
M  V30 BEGIN ATOM
M  V30 1 N -2.96955 -0.905882 -1.54134 0
M  V30 2 C -2.69311 -0.771487 -0.110433 0 CFG=2
M  V30 3 C -3.09271 0.593128 0.308118 0
M  V30 4 C -2.0123 1.30246 1.04103 0
M  V30 5 C -0.749995 1.27198 0.162528 0
M  V30 6 N -0.2948 -0.0942723 0.258894 0
M  V30 7 C -1.26213 -1.11041 0.086271 0
M  V30 8 O -0.903814 -2.31762 0.0996934 0
M  V30 9 P 1.372 -0.439277 0.580358 0 CFG=2
M  V30 10 N 1.78983 -1.9962 -0.0720372 0
M  V30 11 O 1.64927 -0.447624 2.08732 0
M  V30 12 N 2.32947 0.840657 -0.0833409 0
M  V30 13 S 3.97169 0.450242 -0.316155 0
M  V30 14 O 4.81479 0.832076 1.09901 0
M  V30 15 O 4.49125 1.30634 -1.43916 0
M  V30 16 O 4.19098 -0.983136 -0.705348 0
M  V30 17 H -3.24833 0.0101108 -1.95233 0
M  V30 18 H -3.68462 -1.60714 -1.72007 0
M  V30 19 H -3.28263 -1.57558 0.40624 0
M  V30 20 H -3.98699 0.555691 0.997685 0
M  V30 21 H -3.41648 1.22509 -0.568421 0
M  V30 22 H -1.8014 0.790781 1.98057 0
M  V30 23 H -2.23564 2.3693 1.25065 0
M  V30 24 H -1.06365 1.46691 -0.896532 0
M  V30 25 H -0.0279258 2.01546 0.508951 0
M  V30 26 H 1.96332 -1.94321 -1.08617 0
M  V30 27 H 2.56894 -2.43602 0.418704 0
M  V30 28 H 1.90221 1.26272 -0.945651 0
M  V30 29 H 5.68234 0.334921 1.03972 0
M  V30 END ATOM
M  V30 BEGIN BOND
M  V30 1 1 1 2
M  V30 2 1 2 3
M  V30 3 1 3 4
M  V30 4 1 4 5
M  V30 5 1 5 6
M  V30 6 1 6 7
M  V30 7 2 7 8
M  V30 8 1 6 9
M  V30 9 1 9 10 CFG=3
M  V30 10 2 9 11
M  V30 11 1 9 12
M  V30 12 1 12 13
M  V30 13 1 13 14
M  V30 14 2 13 15
M  V30 15 2 13 16
M  V30 16 1 7 2
M  V30 17 1 1 17
M  V30 18 1 1 18
M  V30 19 1 2 19 CFG=1
M  V30 20 1 3 20
M  V30 21 1 3 21
M  V30 22 1 4 22
M  V30 23 1 4 23
M  V30 24 1 5 24
M  V30 25 1 5 25
M  V30 26 1 10 26
M  V30 27 1 10 27
M  V30 28 1 12 28
M  V30 29 1 14 29
M  V30 END BOND
M  V30 END CTAB
M  END
