
     RDKit          3D

  0  0  0  0  0  0  0  0  0  0999 V3000
M  V30 BEGIN CTAB
M  V30 COUNTS 45 48 0 0 0
M  V30 BEGIN ATOM
M  V30 1 N 7.79498 1.91372 1.35799 0
M  V30 2 S 7.39558 1.22512 -0.174457 0
M  V30 3 O 7.74893 2.15149 -1.2958 0
M  V30 4 O 8.09722 -0.0726541 -0.388725 0
M  V30 5 C 5.65809 0.920971 -0.169292 0
M  V30 6 C 4.78575 1.88866 -0.6057 0
M  V30 7 C 3.43217 1.66487 -0.607422 0
M  V30 8 C 2.85699 0.459 -0.173303 0
M  V30 9 C 3.75246 -0.483142 0.255259 0
M  V30 10 C 5.13959 -0.272067 0.263879 0
M  V30 11 N 1.45439 0.29421 -0.180287 0
M  V30 12 C 0.706802 -0.884914 -0.108424 0
M  V30 13 N 1.24747 -2.12157 -0.0666128 0
M  V30 14 C 0.586075 -3.26395 -0.0224834 0
M  V30 15 N 0.86808 -4.57688 0.023201 0
M  V30 16 O -0.214888 -5.28998 0.0538623 0
M  V30 17 N -1.23405 -4.48966 0.0300265 0
M  V30 18 C -0.811371 -3.20906 -0.0178293 0
M  V30 19 N -1.37155 -2.00965 -0.0580388 0
M  V30 20 C -0.671901 -0.839286 -0.103178 0
M  V30 21 N -1.4328 0.356077 -0.098552 0
M  V30 22 C -2.83698 0.408053 -0.137117 0
M  V30 23 C -3.63211 -0.471958 -0.799507 0
M  V30 24 C -5.03056 -0.355791 -0.74336 0
M  V30 25 C -5.59925 0.650656 -0.0178722 0
M  V30 26 C -4.78897 1.53224 0.644661 0
M  V30 27 C -3.42357 1.43583 0.602902 0
M  V30 28 S -7.31781 0.814719 0.0667815 0
M  V30 29 O -7.63858 2.26952 0.276139 0
M  V30 30 O -7.93655 0.284085 -1.20256 0
M  V30 31 N -7.86561 -0.120616 1.43704 0
M  V30 32 H 7.74115 1.19856 2.09455 0
M  V30 33 H 7.1078 2.66376 1.59557 0
M  V30 34 H 5.21432 2.83963 -0.949806 0
M  V30 35 H 2.75057 2.43198 -0.95374 0
M  V30 36 H 3.44853 -1.44375 0.625345 0
M  V30 37 H 5.8157 -1.0487 0.612575 0
M  V30 38 H 0.91506 1.21211 -0.250956 0
M  V30 39 H -0.941569 1.29962 -0.0650135 0
M  V30 40 H -3.22447 -1.26887 -1.40392 0
M  V30 41 H -5.61666 -1.08097 -1.28672 0
M  V30 42 H -5.23072 2.33424 1.2225 0
M  V30 43 H -2.81435 2.14062 1.13165 0
M  V30 44 H -7.15604 0.0458327 2.19811 0
M  V30 45 H -7.72736 -1.13211 1.13853 0
M  V30 END ATOM
M  V30 BEGIN BOND
M  V30 1 1 1 2
M  V30 2 2 2 3
M  V30 3 2 2 4
M  V30 4 1 2 5
M  V30 5 2 5 6
M  V30 6 1 6 7
M  V30 7 2 7 8
M  V30 8 1 8 9
M  V30 9 2 9 10
M  V30 10 1 8 11
M  V30 11 1 11 12
M  V30 12 2 12 13
M  V30 13 1 13 14
M  V30 14 2 14 15
M  V30 15 1 15 16
M  V30 16 1 16 17
M  V30 17 2 17 18
M  V30 18 1 18 19
M  V30 19 2 19 20
M  V30 20 1 20 21
M  V30 21 1 21 22
M  V30 22 2 22 23
M  V30 23 1 23 24
M  V30 24 2 24 25
M  V30 25 1 25 26
M  V30 26 2 26 27
M  V30 27 1 25 28
M  V30 28 2 28 29
M  V30 29 2 28 30
M  V30 30 1 28 31
M  V30 31 1 10 5
M  V30 32 1 20 12
M  V30 33 1 27 22
M  V30 34 1 18 14
M  V30 35 1 1 32
M  V30 36 1 1 33
M  V30 37 1 6 34
M  V30 38 1 7 35
M  V30 39 1 9 36
M  V30 40 1 10 37
M  V30 41 1 11 38
M  V30 42 1 21 39
M  V30 43 1 23 40
M  V30 44 1 24 41
M  V30 45 1 26 42
M  V30 46 1 27 43
M  V30 47 1 31 44
M  V30 48 1 31 45
M  V30 END BOND
M  V30 END CTAB
M  END
