
     RDKit          3D

  0  0  0  0  0  0  0  0  0  0999 V3000
M  V30 BEGIN CTAB
M  V30 COUNTS 24 23 0 0 0
M  V30 BEGIN ATOM
M  V30 1 C 1.55216 1.72439 0.275711 0
M  V30 2 C 1.70988 0.318505 -0.121716 0
M  V30 3 C 0.543166 -0.416324 -0.681008 0
M  V30 4 C -0.661475 -0.580305 0.150321 0 CFG=1
M  V30 5 C -1.41495 0.600291 0.605862 0
M  V30 6 N -1.94792 1.41565 -0.466596 0
M  V30 7 N -1.6288 -1.44758 -0.556876 0
M  V30 8 C 1.06584 -1.85578 -0.934871 0
M  V30 9 H 0.870945 2.29588 -0.341051 0
M  V30 10 H 2.55674 2.22646 0.137157 0
M  V30 11 H 1.36331 1.87281 1.36485 0
M  V30 12 H 2.59269 0.275654 -0.847912 0
M  V30 13 H 2.12827 -0.280932 0.752341 0
M  V30 14 H 0.266684 -0.0182247 -1.71403 0
M  V30 15 H -0.358784 -1.20919 1.05593 0
M  V30 16 H -0.851601 1.21314 1.31763 0
M  V30 17 H -2.34279 0.29377 1.19497 0
M  V30 18 H -1.95758 2.42041 -0.153451 0
M  V30 19 H -2.93532 1.17634 -0.698102 0
M  V30 20 H -1.56937 -2.42676 -0.264783 0
M  V30 21 H -2.5574 -1.0259 -0.604014 0
M  V30 22 H 1.25219 -2.25785 0.0927223 0
M  V30 23 H 2.0272 -1.83706 -1.45247 0
M  V30 24 H 0.296908 -2.4774 -1.3935 0
M  V30 END ATOM
M  V30 BEGIN BOND
M  V30 1 1 1 2
M  V30 2 1 2 3
M  V30 3 1 3 4
M  V30 4 1 4 5
M  V30 5 1 5 6
M  V30 6 1 4 7
M  V30 7 1 3 8
M  V30 8 1 1 9
M  V30 9 1 1 10
M  V30 10 1 1 11
M  V30 11 1 2 12
M  V30 12 1 2 13
M  V30 13 1 3 14
M  V30 14 1 4 15 CFG=1
M  V30 15 1 5 16
M  V30 16 1 5 17
M  V30 17 1 6 18
M  V30 18 1 6 19
M  V30 19 1 7 20
M  V30 20 1 7 21
M  V30 21 1 8 22
M  V30 22 1 8 23
M  V30 23 1 8 24
M  V30 END BOND
M  V30 END CTAB
M  END
