
     RDKit          3D

  0  0  0  0  0  0  0  0  0  0999 V3000
M  V30 BEGIN CTAB
M  V30 COUNTS 43 45 0 0 0
M  V30 BEGIN ATOM
M  V30 1 N 7.45619 -0.00153095 0.513026 0
M  V30 2 C 6.69691 -0.187074 -0.692946 0
M  V30 3 C 5.24962 -0.181893 -0.344348 0
M  V30 4 C 4.84125 -0.0163274 0.960512 0
M  V30 5 C 3.51383 -0.00467657 1.33107 0
M  V30 6 C 2.5318 -0.165998 0.355796 0
M  V30 7 C 2.96499 -0.32975 -0.941073 0
M  V30 8 C 4.28327 -0.34266 -1.31892 0
M  V30 9 C 1.12178 -0.163599 0.675697 0
M  V30 10 N 0.504196 -0.0206545 1.85802 0
M  V30 11 O -0.777884 -0.085194 1.65905 0
M  V30 12 C -1.0644 -0.26645 0.389253 0
M  V30 13 N 0.132499 -0.314327 -0.219127 0
M  V30 14 C -2.35943 -0.395493 -0.28078 0
M  V30 15 C -3.11048 -1.60042 0.221277 0
M  V30 16 C -4.58561 -1.53354 -0.0819124 0
M  V30 17 C -5.23322 -0.262882 0.349359 0
M  V30 18 C -4.20397 0.683095 0.936418 0
M  V30 19 C -3.13821 0.884497 -0.114505 0
M  V30 20 C -3.76151 1.30856 -1.42956 0
M  V30 21 N -2.28108 1.96937 0.315483 0
M  V30 22 H 7.95531 0.899724 0.516454 0
M  V30 23 H 8.07092 -0.834878 0.642157 0
M  V30 24 H 6.945 -1.10618 -1.24579 0
M  V30 25 H 6.85437 0.704927 -1.35037 0
M  V30 26 H 5.58891 0.110365 1.73151 0
M  V30 27 H 3.22118 0.126647 2.35941 0
M  V30 28 H 2.17646 -0.455762 -1.69822 0
M  V30 29 H 4.57233 -0.473569 -2.34341 0
M  V30 30 H -2.19769 -0.538668 -1.36528 0
M  V30 31 H -2.92851 -1.77364 1.29395 0
M  V30 32 H -2.71018 -2.48422 -0.32405 0
M  V30 33 H -5.06153 -2.36681 0.509982 0
M  V30 34 H -4.82035 -1.73473 -1.1299 0
M  V30 35 H -5.79915 0.207744 -0.489031 0
M  V30 36 H -5.99534 -0.419826 1.16209 0
M  V30 37 H -3.74512 0.162452 1.79206 0
M  V30 38 H -4.65997 1.62849 1.26227 0
M  V30 39 H -2.91267 1.5253 -2.13727 0
M  V30 40 H -4.37357 2.21129 -1.25767 0
M  V30 41 H -4.33751 0.485428 -1.90738 0
M  V30 42 H -2.80978 2.70523 0.841681 0
M  V30 43 H -1.81363 2.44764 -0.486852 0
M  V30 END ATOM
M  V30 BEGIN BOND
M  V30 1 1 1 2
M  V30 2 1 2 3
M  V30 3 2 3 4
M  V30 4 1 4 5
M  V30 5 2 5 6
M  V30 6 1 6 7
M  V30 7 2 7 8
M  V30 8 1 6 9
M  V30 9 2 9 10
M  V30 10 1 10 11
M  V30 11 1 11 12
M  V30 12 2 12 13
M  V30 13 1 12 14
M  V30 14 1 14 15
M  V30 15 1 15 16
M  V30 16 1 16 17
M  V30 17 1 17 18
M  V30 18 1 18 19
M  V30 19 1 19 20
M  V30 20 1 19 21
M  V30 21 1 8 3
M  V30 22 1 13 9
M  V30 23 1 19 14
M  V30 24 1 1 22
M  V30 25 1 1 23
M  V30 26 1 2 24
M  V30 27 1 2 25
M  V30 28 1 4 26
M  V30 29 1 5 27
M  V30 30 1 7 28
M  V30 31 1 8 29
M  V30 32 1 14 30
M  V30 33 1 15 31
M  V30 34 1 15 32
M  V30 35 1 16 33
M  V30 36 1 16 34
M  V30 37 1 17 35
M  V30 38 1 17 36
M  V30 39 1 18 37
M  V30 40 1 18 38
M  V30 41 1 20 39
M  V30 42 1 20 40
M  V30 43 1 20 41
M  V30 44 1 21 42
M  V30 45 1 21 43
M  V30 END BOND
M  V30 END CTAB
M  END
