
     RDKit          3D

  0  0  0  0  0  0  0  0  0  0999 V3000
M  V30 BEGIN CTAB
M  V30 COUNTS 46 48 0 0 0
M  V30 BEGIN ATOM
M  V30 1 N -7.62514 -0.218782 -1.18503 0
M  V30 2 C -6.61999 -1.08041 -0.597867 0
M  V30 3 C -5.31257 -1.11478 -1.40077 0
M  V30 4 C -4.59837 -1.06031 -0.0473506 0
M  V30 5 C -5.83006 -0.363127 0.491598 0
M  V30 6 C -3.36018 -0.278788 -0.0361877 0
M  V30 7 C -2.1956 -0.859566 0.472265 0
M  V30 8 C -1.00659 -0.166475 0.504711 0
M  V30 9 N 0.199942 -0.70254 1.00665 0
M  V30 10 C 1.44645 0.00774051 1.04686 0
M  V30 11 C 2.49751 -0.889829 1.64699 0
M  V30 12 N 3.77342 -0.258658 1.71411 0
M  V30 13 C 4.62798 -0.070188 0.597466 0
M  V30 14 N 5.80932 0.571991 0.830488 0
M  V30 15 C 6.65398 0.753479 -0.168865 0
M  V30 16 C 7.96184 1.44978 0.0277305 0
M  V30 17 C 6.37549 0.309026 -1.45445 0
M  V30 18 C 5.17988 -0.333167 -1.65592 0
M  V30 19 O 4.83846 -0.771355 -2.78378 0
M  V30 20 N 4.31401 -0.516274 -0.617339 0
M  V30 21 N -0.994561 1.09091 0.0318689 0
M  V30 22 C -2.09757 1.67923 -0.464175 0
M  V30 23 N -3.23646 0.977539 -0.480947 0
M  V30 24 N -1.9909 3.00149 -0.938109 0
M  V30 25 H -8.4103 -0.169144 -0.497694 0
M  V30 26 H -8.00867 -0.651288 -2.05328 0
M  V30 27 H -6.95034 -2.10001 -0.336492 0
M  V30 28 H -5.11887 -0.192185 -1.9588 0
M  V30 29 H -5.13158 -2.06904 -1.92624 0
M  V30 30 H -4.52863 -2.07262 0.353042 0
M  V30 31 H -5.82491 0.734148 0.269478 0
M  V30 32 H -6.11682 -0.64133 1.50855 0
M  V30 33 H -2.18167 -1.86979 0.858013 0
M  V30 34 H 0.16266 -1.67325 1.36475 0
M  V30 35 H 1.36037 0.970465 1.60969 0
M  V30 36 H 1.73701 0.273308 0.022553 0
M  V30 37 H 2.60072 -1.80074 0.992946 0
M  V30 38 H 2.14521 -1.28611 2.62133 0
M  V30 39 H 4.08804 0.0863408 2.6704 0
M  V30 40 H 8.03076 2.26943 -0.698049 0
M  V30 41 H 8.742 0.69306 -0.0694164 0
M  V30 42 H 7.96489 1.89504 1.05976 0
M  V30 43 H 7.07164 0.460586 -2.27117 0
M  V30 44 H 3.43053 -1.0172 -0.799753 0
M  V30 45 H -1.07935 3.34891 -1.32388 0
M  V30 46 H -2.79299 3.65447 -0.919408 0
M  V30 END ATOM
M  V30 BEGIN BOND
M  V30 1 1 1 2
M  V30 2 1 2 3
M  V30 3 1 3 4
M  V30 4 1 4 5
M  V30 5 1 4 6
M  V30 6 2 6 7
M  V30 7 1 7 8
M  V30 8 1 8 9
M  V30 9 1 9 10
M  V30 10 1 10 11
M  V30 11 1 11 12
M  V30 12 1 12 13
M  V30 13 2 13 14
M  V30 14 1 14 15
M  V30 15 1 15 16
M  V30 16 2 15 17
M  V30 17 1 17 18
M  V30 18 2 18 19
M  V30 19 1 18 20
M  V30 20 2 8 21
M  V30 21 1 21 22
M  V30 22 2 22 23
M  V30 23 1 22 24
M  V30 24 1 5 2
M  V30 25 1 23 6
M  V30 26 1 20 13
M  V30 27 1 1 25
M  V30 28 1 1 26
M  V30 29 1 2 27
M  V30 30 1 3 28
M  V30 31 1 3 29
M  V30 32 1 4 30
M  V30 33 1 5 31
M  V30 34 1 5 32
M  V30 35 1 7 33
M  V30 36 1 9 34
M  V30 37 1 10 35
M  V30 38 1 10 36
M  V30 39 1 11 37
M  V30 40 1 11 38
M  V30 41 1 12 39
M  V30 42 1 16 40
M  V30 43 1 16 41
M  V30 44 1 16 42
M  V30 45 1 17 43
M  V30 46 1 20 44
M  V30 47 1 24 45
M  V30 48 1 24 46
M  V30 END BOND
M  V30 END CTAB
M  END
