
     RDKit          3D

  0  0  0  0  0  0  0  0  0  0999 V3000
M  V30 BEGIN CTAB
M  V30 COUNTS 45 46 0 0 0
M  V30 BEGIN ATOM
M  V30 1 N 3.97574 -1.98583 0.679194 0
M  V30 2 C 3.89217 -1.31755 -0.579344 0
M  V30 3 C 3.32255 0.0685437 -0.539587 0
M  V30 4 C 4.19067 0.925086 0.352414 0
M  V30 5 C 3.48545 2.16704 0.853708 0
M  V30 6 C 2.1473 1.86346 1.50733 0
M  V30 7 C 1.85324 0.362116 1.36166 0
M  V30 8 N 1.9249 0.0836353 -0.0279437 0
M  V30 9 C 0.914882 -0.200604 -0.912415 0
M  V30 10 O 1.37264 -0.525653 -2.12081 0
M  V30 11 C -0.529807 -0.213729 -0.779475 0
M  V30 12 C -1.29016 -0.784216 -1.81949 0
M  V30 13 C -2.66314 -0.802142 -1.80914 0
M  V30 14 C -3.45934 -1.41001 -2.91754 0
M  V30 15 C -3.37789 -0.256766 -0.76881 0
M  V30 16 C -2.6738 0.307874 0.260625 0
M  V30 17 C -1.26586 0.319395 0.235619 0
M  V30 18 S -3.52359 1.0118 1.60116 0
M  V30 19 O -2.5139 1.58195 2.55773 0
M  V30 20 O -4.4431 2.10118 1.136 0
M  V30 21 N -4.52608 -0.154647 2.42295 0
M  V30 22 C -4.87127 -0.271328 -0.74703 0
M  V30 23 H 3.98949 -3.02428 0.483905 0
M  V30 24 H 4.80159 -1.71268 1.25171 0
M  V30 25 H 4.94272 -1.21948 -0.960429 0
M  V30 26 H 3.36794 -1.95895 -1.31823 0
M  V30 27 H 3.353 0.465707 -1.57308 0
M  V30 28 H 5.03612 1.27896 -0.272487 0
M  V30 29 H 4.61575 0.363531 1.20971 0
M  V30 30 H 3.40248 2.9085 0.0388117 0
M  V30 31 H 4.14241 2.61005 1.62979 0
M  V30 32 H 2.13389 2.13082 2.58 0
M  V30 33 H 1.3785 2.45879 0.978289 0
M  V30 34 H 2.75545 -0.105195 1.90908 0
M  V30 35 H 1.00672 0.0798524 1.94103 0
M  V30 36 H -0.75622 -1.22512 -2.65374 0
M  V30 37 H -4.07889 -0.625124 -3.39065 0
M  V30 38 H -2.80707 -1.90295 -3.66864 0
M  V30 39 H -4.09344 -2.22433 -2.47533 0
M  V30 40 H -0.754782 0.801837 1.04646 0
M  V30 41 H -4.50952 0.0396104 3.43432 0
M  V30 42 H -4.07402 -1.08829 2.22758 0
M  V30 43 H -5.26604 -0.717629 -1.70776 0
M  V30 44 H -5.30997 0.739493 -0.716304 0
M  V30 45 H -5.21771 -0.94272 0.0591441 0
M  V30 END ATOM
M  V30 BEGIN BOND
M  V30 1 1 1 2
M  V30 2 1 2 3
M  V30 3 1 3 4
M  V30 4 1 4 5
M  V30 5 1 5 6
M  V30 6 1 6 7
M  V30 7 1 7 8
M  V30 8 1 8 9
M  V30 9 2 9 10
M  V30 10 1 9 11
M  V30 11 2 11 12
M  V30 12 1 12 13
M  V30 13 1 13 14
M  V30 14 2 13 15
M  V30 15 1 15 16
M  V30 16 2 16 17
M  V30 17 1 16 18
M  V30 18 2 18 19
M  V30 19 2 18 20
M  V30 20 1 18 21
M  V30 21 1 15 22
M  V30 22 1 8 3
M  V30 23 1 17 11
M  V30 24 1 1 23
M  V30 25 1 1 24
M  V30 26 1 2 25
M  V30 27 1 2 26
M  V30 28 1 3 27
M  V30 29 1 4 28
M  V30 30 1 4 29
M  V30 31 1 5 30
M  V30 32 1 5 31
M  V30 33 1 6 32
M  V30 34 1 6 33
M  V30 35 1 7 34
M  V30 36 1 7 35
M  V30 37 1 12 36
M  V30 38 1 14 37
M  V30 39 1 14 38
M  V30 40 1 14 39
M  V30 41 1 17 40
M  V30 42 1 21 41
M  V30 43 1 21 42
M  V30 44 1 22 43
M  V30 45 1 22 44
M  V30 46 1 22 45
M  V30 END BOND
M  V30 END CTAB
M  END
