
     RDKit          3D

  0  0  0  0  0  0  0  0  0  0999 V3000
M  V30 BEGIN CTAB
M  V30 COUNTS 33 34 0 0 0
M  V30 BEGIN ATOM
M  V30 1 N 2.63995 2.84055 0.217025 0
M  V30 2 C 2.18415 1.58855 0.748678 0
M  V30 3 C 1.28348 0.940047 -0.270757 0
M  V30 4 N 0.786159 -0.319442 0.213159 0
M  V30 5 C 1.87744 -1.25583 0.260394 0
M  V30 6 C 1.44924 -2.59385 0.843529 0
M  V30 7 N 0.407563 -3.11516 -0.0213957 0
M  V30 8 C -0.694676 -2.1787 0.0508729 0
M  V30 9 C -0.26314 -0.86691 -0.591058 0 CFG=1
M  V30 10 C -1.44599 0.00729959 -0.6884 0
M  V30 11 N -2.10773 0.272723 -1.82371 0
M  V30 12 N -3.12113 1.08987 -1.59434 0
M  V30 13 C -3.16634 1.39643 -0.288965 0
M  V30 14 C -2.11131 0.715635 0.287976 0
M  V30 15 N -4.10721 2.25119 0.386469 0
M  V30 16 H 3.58282 3.09006 0.375166 0
M  V30 17 H 2.19922 3.07728 -0.619276 0
M  V30 18 H 3.0879 1.01996 0.996904 0
M  V30 19 H 1.59505 1.7796 1.68529 0
M  V30 20 H 1.91808 0.770778 -1.19222 0
M  V30 21 H 0.474984 1.6384 -0.56505 0
M  V30 22 H 2.79525 -0.908883 0.726479 0
M  V30 23 H 2.1211 -1.48869 -0.820652 0
M  V30 24 H 2.33669 -3.26215 0.760631 0
M  V30 25 H 1.08287 -2.50571 1.8804 0
M  V30 26 H 0.11377 -4.07015 0.222916 0
M  V30 27 H -1.58538 -2.56169 -0.47755 0
M  V30 28 H -0.949544 -1.9868 1.1007 0
M  V30 29 H 0.167477 -1.05729 -1.60306 0
M  V30 30 H -1.85977 -0.115655 -2.77957 0
M  V30 31 H -1.82669 0.716032 1.32742 0
M  V30 32 H -4.68919 2.88039 -0.173664 0
M  V30 33 H -4.17511 2.2121 1.42567 0
M  V30 END ATOM
M  V30 BEGIN BOND
M  V30 1 1 1 2
M  V30 2 1 2 3
M  V30 3 1 3 4
M  V30 4 1 4 5
M  V30 5 1 5 6
M  V30 6 1 6 7
M  V30 7 1 7 8
M  V30 8 1 8 9
M  V30 9 1 9 10
M  V30 10 1 10 11
M  V30 11 1 11 12
M  V30 12 2 12 13
M  V30 13 1 13 14
M  V30 14 1 13 15
M  V30 15 1 9 4
M  V30 16 2 14 10
M  V30 17 1 1 16
M  V30 18 1 1 17
M  V30 19 1 2 18
M  V30 20 1 2 19
M  V30 21 1 3 20
M  V30 22 1 3 21
M  V30 23 1 5 22
M  V30 24 1 5 23
M  V30 25 1 6 24
M  V30 26 1 6 25
M  V30 27 1 7 26
M  V30 28 1 8 27
M  V30 29 1 8 28
M  V30 30 1 9 29 CFG=3
M  V30 31 1 11 30
M  V30 32 1 14 31
M  V30 33 1 15 32
M  V30 34 1 15 33
M  V30 END BOND
M  V30 END CTAB
M  END
