
     RDKit          3D

  0  0  0  0  0  0  0  0  0  0999 V3000
M  V30 BEGIN CTAB
M  V30 COUNTS 43 43 0 0 0
M  V30 BEGIN ATOM
M  V30 1 C -2.34846 4.09727 -1.07782 0
M  V30 2 C -2.49155 2.88413 -0.206414 0
M  V30 3 C -1.21501 2.01521 -0.244267 0
M  V30 4 C -1.54816 0.837252 0.62762 0
M  V30 5 N -0.571308 -0.181178 0.769323 0
M  V30 6 C -1.06259 -1.47143 1.28187 0
M  V30 7 C -1.97855 -2.11607 0.279478 0
M  V30 8 C -2.49768 -3.46519 0.765271 0
M  V30 9 C -3.42603 -4.01889 -0.299922 0
M  V30 10 C 0.802907 -0.0238302 0.540959 0
M  V30 11 N 1.45283 1.12764 0.318044 0
M  V30 12 C 2.76384 1.26609 0.134918 0
M  V30 13 N 3.33359 2.563 -0.0771042 0
M  V30 14 N 4.68761 2.79265 -0.222327 0
M  V30 15 N 3.55085 0.191617 0.161477 0
M  V30 16 C 2.95264 -1.01518 0.382267 0
M  V30 17 N 3.77504 -2.17478 0.406155 0
M  V30 18 N 5.13425 -2.09152 0.197552 0
M  V30 19 N 1.62353 -1.1329 0.567565 0
M  V30 20 H -3.30168 4.65443 -1.05354 0
M  V30 21 H -2.20567 3.82679 -2.14861 0
M  V30 22 H -1.56512 4.79728 -0.713039 0
M  V30 23 H -3.29735 2.24701 -0.591541 0
M  V30 24 H -2.60475 3.20277 0.848886 0
M  V30 25 H -0.98977 1.75564 -1.28761 0
M  V30 26 H -0.441036 2.70454 0.165178 0
M  V30 27 H -2.58455 0.479834 0.395232 0
M  V30 28 H -1.69006 1.32057 1.67198 0
M  V30 29 H -1.59174 -1.35251 2.23604 0
M  V30 30 H -0.166023 -2.07979 1.49033 0
M  V30 31 H -1.42936 -2.27806 -0.646794 0
M  V30 32 H -2.84471 -1.44864 0.0376743 0
M  V30 33 H -2.97442 -3.42259 1.73619 0
M  V30 34 H -1.63058 -4.17571 0.804679 0
M  V30 35 H -2.99071 -4.02528 -1.30847 0
M  V30 36 H -4.30321 -3.31405 -0.348553 0
M  V30 37 H -3.83597 -5.01436 -0.0568428 0
M  V30 38 H 2.68716 3.40756 -0.123713 0
M  V30 39 H 5.09456 2.59596 -1.14849 0
M  V30 40 H 5.27507 2.47684 0.584299 0
M  V30 41 H 3.34943 -3.0919 0.584306 0
M  V30 42 H 5.65823 -2.04287 1.11719 0
M  V30 43 H 5.44449 -1.30737 -0.401312 0
M  V30 END ATOM
M  V30 BEGIN BOND
M  V30 1 1 1 2
M  V30 2 1 2 3
M  V30 3 1 3 4
M  V30 4 1 4 5
M  V30 5 1 5 6
M  V30 6 1 6 7
M  V30 7 1 7 8
M  V30 8 1 8 9
M  V30 9 1 5 10
M  V30 10 2 10 11
M  V30 11 1 11 12
M  V30 12 1 12 13
M  V30 13 1 13 14
M  V30 14 2 12 15
M  V30 15 1 15 16
M  V30 16 1 16 17
M  V30 17 1 17 18
M  V30 18 2 16 19
M  V30 19 1 19 10
M  V30 20 1 1 20
M  V30 21 1 1 21
M  V30 22 1 1 22
M  V30 23 1 2 23
M  V30 24 1 2 24
M  V30 25 1 3 25
M  V30 26 1 3 26
M  V30 27 1 4 27
M  V30 28 1 4 28
M  V30 29 1 6 29
M  V30 30 1 6 30
M  V30 31 1 7 31
M  V30 32 1 7 32
M  V30 33 1 8 33
M  V30 34 1 8 34
M  V30 35 1 9 35
M  V30 36 1 9 36
M  V30 37 1 9 37
M  V30 38 1 13 38
M  V30 39 1 14 39
M  V30 40 1 14 40
M  V30 41 1 17 41
M  V30 42 1 18 42
M  V30 43 1 18 43
M  V30 END BOND
M  V30 END CTAB
M  END
