
     RDKit          3D

  0  0  0  0  0  0  0  0  0  0999 V3000
M  V30 BEGIN CTAB
M  V30 COUNTS 60 63 0 0 0
M  V30 BEGIN ATOM
M  V30 1 N -9.21161 1.61356 -0.97011 0
M  V30 2 C -7.83895 1.43934 -0.450288 0 CFG=1
M  V30 3 C -7.46627 0.0381052 -0.768515 0
M  V30 4 C -6.11118 -0.353904 -0.327467 0
M  V30 5 C -5.02196 -0.253736 -1.15573 0
M  V30 6 C -3.73875 -0.621756 -0.747357 0
M  V30 7 C -3.4901 -1.10678 0.50999 0
M  V30 8 C -4.60474 -1.20843 1.35521 0
M  V30 9 C -5.87 -0.846973 0.956537 0
M  V30 10 C -2.18399 -1.50953 1.00571 0
M  V30 11 N -2.00096 -1.98045 2.25567 0
M  V30 12 C -0.831299 -2.35834 2.74882 0
M  V30 13 N -0.642264 -2.85404 4.06674 0
M  V30 14 N 0.268284 -2.27132 1.95289 0
M  V30 15 C 0.19047 -1.81545 0.693384 0
M  V30 16 O 1.30405 -1.72448 -0.120652 0
M  V30 17 C 2.57488 -2.11617 0.361903 0
M  V30 18 C 3.4504 -0.937695 0.339189 0
M  V30 19 C 3.42311 -0.1414 -0.796311 0
M  V30 20 C 4.20409 0.977466 -0.908216 0
M  V30 21 C 5.05415 1.35963 0.109732 0
M  V30 22 O 5.8573 2.50218 0.00584796 0
M  V30 23 C 7.13053 2.42619 -0.527024 0
M  V30 24 C 7.87434 3.57838 -0.604499 0
M  V30 25 C 9.1463 3.52141 -1.13314 0
M  V30 26 C 9.65181 2.31641 -1.5743 0
M  V30 27 N 8.92326 1.20832 -1.49443 0
M  V30 28 C 7.69407 1.26001 -0.984212 0
M  V30 29 C 5.07656 0.56346 1.23616 0
M  V30 30 C 4.29039 -0.569188 1.3575 0
M  V30 31 C 3.1429 -3.277 -0.424993 0
M  V30 32 F 4.37398 -3.58514 0.114824 0
M  V30 33 F 3.23889 -2.93933 -1.75347 0
M  V30 34 F 2.33941 -4.38433 -0.313677 0
M  V30 35 C -1.06911 -1.42854 0.219307 0
M  V30 36 C -6.99963 2.45819 -1.06915 0
M  V30 37 O -7.52919 3.25736 -2.10208 0
M  V30 38 O -5.80852 2.62848 -0.688548 0
M  V30 39 H -9.66366 2.40248 -0.469386 0
M  V30 40 H -9.70398 0.735407 -0.826296 0
M  V30 41 H -7.96016 1.57727 0.652546 0
M  V30 42 H -8.24956 -0.62309 -0.288791 0
M  V30 43 H -7.59082 -0.15411 -1.85589 0
M  V30 44 H -5.17048 0.127983 -2.16893 0
M  V30 45 H -2.90402 -0.523057 -1.44464 0
M  V30 46 H -4.40528 -1.59795 2.36479 0
M  V30 47 H -6.71609 -0.928968 1.61192 0
M  V30 48 H -1.03316 -3.79591 4.28269 0
M  V30 49 H -0.148231 -2.35348 4.82513 0
M  V30 50 H 2.48837 -2.47555 1.4247 0
M  V30 51 H 2.77394 -0.398116 -1.62159 0
M  V30 52 H 4.16056 1.58009 -1.80897 0
M  V30 53 H 7.45429 4.50836 -0.251795 0
M  V30 54 H 9.70565 4.42686 -1.18384 0
M  V30 55 H 10.6579 2.27849 -1.9911 0
M  V30 56 H 7.11512 0.341874 -0.928207 0
M  V30 57 H 5.72448 0.810981 2.07157 0
M  V30 58 H 4.31039 -1.19445 2.24663 0
M  V30 59 H -1.11198 -1.06632 -0.791453 0
M  V30 60 H -8.52402 3.45669 -2.12864 0
M  V30 END ATOM
M  V30 BEGIN BOND
M  V30 1 1 1 2
M  V30 2 1 2 3
M  V30 3 1 3 4
M  V30 4 2 4 5
M  V30 5 1 5 6
M  V30 6 2 6 7
M  V30 7 1 7 8
M  V30 8 2 8 9
M  V30 9 1 7 10
M  V30 10 2 10 11
M  V30 11 1 11 12
M  V30 12 1 12 13
M  V30 13 2 12 14
M  V30 14 1 14 15
M  V30 15 1 15 16
M  V30 16 1 16 17
M  V30 17 1 17 18
M  V30 18 2 18 19
M  V30 19 1 19 20
M  V30 20 2 20 21
M  V30 21 1 21 22
M  V30 22 1 22 23
M  V30 23 2 23 24
M  V30 24 1 24 25
M  V30 25 2 25 26
M  V30 26 1 26 27
M  V30 27 2 27 28
M  V30 28 1 21 29
M  V30 29 2 29 30
M  V30 30 1 17 31
M  V30 31 1 31 32
M  V30 32 1 31 33
M  V30 33 1 31 34
M  V30 34 2 15 35
M  V30 35 1 2 36
M  V30 36 1 36 37
M  V30 37 2 36 38
M  V30 38 1 9 4
M  V30 39 1 35 10
M  V30 40 1 30 18
M  V30 41 1 28 23
M  V30 42 1 1 39
M  V30 43 1 1 40
M  V30 44 1 2 41 CFG=1
M  V30 45 1 3 42
M  V30 46 1 3 43
M  V30 47 1 5 44
M  V30 48 1 6 45
M  V30 49 1 8 46
M  V30 50 1 9 47
M  V30 51 1 13 48
M  V30 52 1 13 49
M  V30 53 1 17 50
M  V30 54 1 19 51
M  V30 55 1 20 52
M  V30 56 1 24 53
M  V30 57 1 25 54
M  V30 58 1 26 55
M  V30 59 1 28 56
M  V30 60 1 29 57
M  V30 61 1 30 58
M  V30 62 1 35 59
M  V30 63 1 37 60
M  V30 END BOND
M  V30 END CTAB
M  END
