
     RDKit          3D

  0  0  0  0  0  0  0  0  0  0999 V3000
M  V30 BEGIN CTAB
M  V30 COUNTS 30 31 0 0 0
M  V30 BEGIN ATOM
M  V30 1 C -1.67619 -1.30767 0.27304 0
M  V30 2 C -1.68547 0.198013 0.0689243 0
M  V30 3 C -2.12454 0.759494 -1.2215 0
M  V30 4 C -3.0281 0.834427 -0.0414448 0
M  V30 5 C -4.25441 -0.0565232 0.0430814 0
M  V30 6 N -0.665965 0.945052 0.766804 0
M  V30 7 C 0.693922 0.67969 0.512477 0
M  V30 8 C 1.72406 1.35497 1.14293 0
M  V30 9 C 3.02619 1.03598 0.838428 0
M  V30 10 C 3.35115 0.0500924 -0.0888494 0
M  V30 11 C 2.27874 -0.586046 -0.682376 0
M  V30 12 N 1.00998 -0.26752 -0.378433 0
M  V30 13 N 2.56109 -1.60089 -1.6367 0
M  V30 14 N 4.69919 -0.280638 -0.404556 0
M  V30 15 H -2.71286 -1.70978 0.145297 0
M  V30 16 H -1.35607 -1.56109 1.29725 0
M  V30 17 H -1.05668 -1.82972 -0.47276 0
M  V30 18 H -1.68931 1.71642 -1.58921 0
M  V30 19 H -2.39112 0.0845311 -2.08327 0
M  V30 20 H -3.19507 1.84377 0.413872 0
M  V30 21 H -5.17294 0.55584 0.0657529 0
M  V30 22 H -4.2391 -0.754499 -0.813426 0
M  V30 23 H -4.20654 -0.626324 1.01491 0
M  V30 24 H -0.971106 1.67027 1.44915 0
M  V30 25 H 1.46001 2.11568 1.85845 0
M  V30 26 H 3.86126 1.55217 1.32018 0
M  V30 27 H 3.17087 -1.45051 -2.47018 0
M  V30 28 H 2.15107 -2.55372 -1.52268 0
M  V30 29 H 5.01984 -0.483248 -1.3778 0
M  V30 30 H 5.4181 -0.328217 0.360431 0
M  V30 END ATOM
M  V30 BEGIN BOND
M  V30 1 1 1 2
M  V30 2 1 2 3
M  V30 3 1 3 4
M  V30 4 1 4 5
M  V30 5 1 2 6
M  V30 6 1 6 7
M  V30 7 2 7 8
M  V30 8 1 8 9
M  V30 9 2 9 10
M  V30 10 1 10 11
M  V30 11 2 11 12
M  V30 12 1 11 13
M  V30 13 1 10 14
M  V30 14 1 4 2
M  V30 15 1 12 7
M  V30 16 1 1 15
M  V30 17 1 1 16
M  V30 18 1 1 17
M  V30 19 1 3 18
M  V30 20 1 3 19
M  V30 21 1 4 20
M  V30 22 1 5 21
M  V30 23 1 5 22
M  V30 24 1 5 23
M  V30 25 1 6 24
M  V30 26 1 8 25
M  V30 27 1 9 26
M  V30 28 1 13 27
M  V30 29 1 13 28
M  V30 30 1 14 29
M  V30 31 1 14 30
M  V30 END BOND
M  V30 END CTAB
M  END
