
     RDKit          3D

  0  0  0  0  0  0  0  0  0  0999 V3000
M  V30 BEGIN CTAB
M  V30 COUNTS 26 27 0 0 0
M  V30 BEGIN ATOM
M  V30 1 F -5.17647 0.758154 -0.976824 0
M  V30 2 C -4.67962 0.363505 0.242684 0
M  V30 3 C -3.21267 0.174086 0.214253 0
M  V30 4 C -2.62047 -0.828868 -0.567637 0
M  V30 5 C -1.24302 -0.946095 -0.601381 0
M  V30 6 C -0.393044 -0.124215 0.0992177 0
M  V30 7 C -0.985627 0.885489 0.891052 0
M  V30 8 C -2.35663 1.00292 0.922005 0
M  V30 9 C 1.07124 -0.23533 0.0809153 0
M  V30 10 N 1.76913 -1.30843 -0.288199 0
M  V30 11 C 3.1136 -1.2631 -0.370066 0
M  V30 12 N 3.83536 -2.47434 -0.75372 0
M  V30 13 N 3.74624 -0.120709 -0.0843458 0
M  V30 14 C 3.0682 0.962019 0.276793 0
M  V30 15 N 1.73544 0.905892 0.363674 0
M  V30 16 N 3.68673 2.21577 0.52767 0
M  V30 17 F -5.21386 -0.863275 0.618622 0
M  V30 18 F -4.97174 1.23245 1.24416 0
M  V30 19 H -3.26322 -1.47225 -1.13044 0
M  V30 20 H -0.828069 -1.75523 -1.24869 0
M  V30 21 H -0.312219 1.52541 1.44586 0
M  V30 22 H -2.81006 1.79759 1.53107 0
M  V30 23 H 3.45653 -3.17436 -1.40076 0
M  V30 24 H 4.77149 -2.58145 -0.353071 0
M  V30 25 H 3.8002 2.87382 -0.235097 0
M  V30 26 H 4.01257 2.45056 1.47108 0
M  V30 END ATOM
M  V30 BEGIN BOND
M  V30 1 1 1 2
M  V30 2 1 2 3
M  V30 3 2 3 4
M  V30 4 1 4 5
M  V30 5 2 5 6
M  V30 6 1 6 7
M  V30 7 2 7 8
M  V30 8 1 6 9
M  V30 9 2 9 10
M  V30 10 1 10 11
M  V30 11 1 11 12
M  V30 12 2 11 13
M  V30 13 1 13 14
M  V30 14 2 14 15
M  V30 15 1 14 16
M  V30 16 1 2 17
M  V30 17 1 2 18
M  V30 18 1 8 3
M  V30 19 1 15 9
M  V30 20 1 4 19
M  V30 21 1 5 20
M  V30 22 1 7 21
M  V30 23 1 8 22
M  V30 24 1 12 23
M  V30 25 1 12 24
M  V30 26 1 16 25
M  V30 27 1 16 26
M  V30 END BOND
M  V30 END CTAB
M  END
