
     RDKit          3D

  0  0  0  0  0  0  0  0  0  0999 V3000
M  V30 BEGIN CTAB
M  V30 COUNTS 33 35 0 0 0
M  V30 BEGIN ATOM
M  V30 1 N 6.61925 -1.58371 0.00430122 0
M  V30 2 C 5.64856 -0.557503 -0.162793 0
M  V30 3 N 4.34166 -0.869371 -0.404767 0
M  V30 4 C 3.44338 0.117714 -0.558858 0
M  V30 5 S 1.74132 -0.359206 -0.874874 0
M  V30 6 C 0.930826 -0.528256 0.743652 0
M  V30 7 C -0.4729 -0.920476 0.50478 0
M  V30 8 N -0.954257 -2.17684 0.407168 0
M  V30 9 O -2.24063 -2.13792 0.194252 0
M  V30 10 C -2.68474 -0.925249 0.137659 0
M  V30 11 C -1.5839 -0.102361 0.331947 0
M  V30 12 C -4.05502 -0.477096 -0.0834183 0
M  V30 13 C -4.40148 0.856446 -0.121788 0
M  V30 14 C -5.70482 1.27057 -0.332046 0
M  V30 15 C -6.66807 0.306706 -0.505615 0
M  V30 16 C -6.36831 -1.04538 -0.47526 0
M  V30 17 C -5.03778 -1.42175 -0.25995 0
M  V30 18 N 3.81156 1.4201 -0.478316 0
M  V30 19 C 5.09301 1.74512 -0.240868 0
M  V30 20 N 5.96567 0.737397 -0.0916806 0
M  V30 21 N 5.52526 3.10799 -0.148098 0
M  V30 22 H 6.38134 -2.57788 -0.0672291 0
M  V30 23 H 7.59587 -1.29704 0.204778 0
M  V30 24 H 1.01845 0.370119 1.36254 0
M  V30 25 H 1.43415 -1.35197 1.28672 0
M  V30 26 H -1.57529 0.964446 0.348431 0
M  V30 27 H -3.58727 1.56753 0.0234352 0
M  V30 28 H -5.95387 2.31023 -0.358389 0
M  V30 29 H -7.69292 0.607124 -0.671252 0
M  V30 30 H -7.11771 -1.81252 -0.610581 0
M  V30 31 H -4.82356 -2.46241 -0.239388 0
M  V30 32 H 4.84646 3.877 0.0394476 0
M  V30 33 H 6.52577 3.34846 -0.267202 0
M  V30 END ATOM
M  V30 BEGIN BOND
M  V30 1 1 1 2
M  V30 2 2 2 3
M  V30 3 1 3 4
M  V30 4 1 4 5
M  V30 5 1 5 6
M  V30 6 1 6 7
M  V30 7 2 7 8
M  V30 8 1 8 9
M  V30 9 1 9 10
M  V30 10 2 10 11
M  V30 11 1 10 12
M  V30 12 2 12 13
M  V30 13 1 13 14
M  V30 14 2 14 15
M  V30 15 1 15 16
M  V30 16 2 16 17
M  V30 17 2 4 18
M  V30 18 1 18 19
M  V30 19 2 19 20
M  V30 20 1 19 21
M  V30 21 1 20 2
M  V30 22 1 11 7
M  V30 23 1 17 12
M  V30 24 1 1 22
M  V30 25 1 1 23
M  V30 26 1 6 24
M  V30 27 1 6 25
M  V30 28 1 11 26
M  V30 29 1 13 27
M  V30 30 1 14 28
M  V30 31 1 15 29
M  V30 32 1 16 30
M  V30 33 1 17 31
M  V30 34 1 21 32
M  V30 35 1 21 33
M  V30 END BOND
M  V30 END CTAB
M  END
