
     RDKit          3D

  0  0  0  0  0  0  0  0  0  0999 V3000
M  V30 BEGIN CTAB
M  V30 COUNTS 32 31 0 0 0
M  V30 BEGIN ATOM
M  V30 1 C 3.6518 -0.776024 -0.209564 0
M  V30 2 O 2.57918 0.123825 -0.294763 0
M  V30 3 C 1.37033 -0.598777 -0.158765 0
M  V30 4 C 0.243428 0.410705 -0.256879 0
M  V30 5 C -1.03523 -0.301232 -0.260882 0
M  V30 6 C -1.36015 -1.1487 0.921804 0
M  V30 7 N -1.43416 -0.526925 2.17236 0
M  V30 8 C -2.25465 0.54702 -0.558483 0
M  V30 9 C -0.98491 -1.29331 -1.44526 0
M  V30 10 C 0.493161 1.46321 0.73385 0
M  V30 11 N -0.374543 2.60628 0.698164 0
M  V30 12 O 0.389544 1.00212 -1.53977 0
M  V30 13 H 3.56646 -1.52825 -1.02274 0
M  V30 14 H 3.54744 -1.3597 0.741231 0
M  V30 15 H 4.59574 -0.234482 -0.200138 0
M  V30 16 H 1.4097 -1.08349 0.836439 0
M  V30 17 H 1.36762 -1.32129 -0.991256 0
M  V30 18 H -2.3665 -1.61879 0.701378 0
M  V30 19 H -0.677306 -2.0469 0.996972 0
M  V30 20 H -2.36448 -0.250938 2.52087 0
M  V30 21 H -0.709505 -0.693843 2.856 0
M  V30 22 H -2.71204 0.974527 0.3553 0
M  V30 23 H -3.04645 -0.109315 -0.988178 0
M  V30 24 H -2.05313 1.30589 -1.3387 0
M  V30 25 H -0.555797 -0.730664 -2.29094 0
M  V30 26 H -2.05001 -1.60016 -1.66633 0
M  V30 27 H -0.459095 -2.20914 -1.17927 0
M  V30 28 H 1.5352 1.87356 0.56045 0
M  V30 29 H 0.530531 1.09715 1.78073 0
M  V30 30 H 0.12897 3.51967 0.779704 0
M  V30 31 H -1.04375 2.5843 1.50467 0
M  V30 32 H 0.0725877 1.92367 -1.53822 0
M  V30 END ATOM
M  V30 BEGIN BOND
M  V30 1 1 1 2
M  V30 2 1 2 3
M  V30 3 1 3 4
M  V30 4 1 4 5
M  V30 5 1 5 6
M  V30 6 1 6 7
M  V30 7 1 5 8
M  V30 8 1 5 9
M  V30 9 1 4 10
M  V30 10 1 10 11
M  V30 11 1 4 12
M  V30 12 1 1 13
M  V30 13 1 1 14
M  V30 14 1 1 15
M  V30 15 1 3 16
M  V30 16 1 3 17
M  V30 17 1 6 18
M  V30 18 1 6 19
M  V30 19 1 7 20
M  V30 20 1 7 21
M  V30 21 1 8 22
M  V30 22 1 8 23
M  V30 23 1 8 24
M  V30 24 1 9 25
M  V30 25 1 9 26
M  V30 26 1 9 27
M  V30 27 1 10 28
M  V30 28 1 10 29
M  V30 29 1 11 30
M  V30 30 1 11 31
M  V30 31 1 12 32
M  V30 END BOND
M  V30 END CTAB
M  END
