
     RDKit          3D

  0  0  0  0  0  0  0  0  0  0999 V3000
M  V30 BEGIN CTAB
M  V30 COUNTS 27 27 0 0 0
M  V30 BEGIN ATOM
M  V30 1 C 4.55146 -0.345548 0.719344 0
M  V30 2 C 3.77556 0.460242 -0.24092 0
M  V30 3 C 2.49237 0.689853 -0.0188149 0
M  V30 4 C 1.83048 0.147844 1.17972 0
M  V30 5 N 0.733002 -0.730935 0.925515 0
M  V30 6 C -0.513483 -0.310643 0.383446 0
M  V30 7 C -0.834224 0.995319 0.0902444 0
M  V30 8 C -2.07074 1.34972 -0.455523 0
M  V30 9 C -3.02395 0.394884 -0.722287 0
M  V30 10 C -2.67753 -0.920261 -0.416949 0
M  V30 11 N -1.47717 -1.22357 0.107479 0
M  V30 12 N -3.66233 -1.89979 -0.693125 0
M  V30 13 N -4.29588 0.708397 -1.2773 0
M  V30 14 H 4.07059 -1.34801 0.898057 0
M  V30 15 H 5.58625 -0.491819 0.348677 0
M  V30 16 H 4.52542 0.183115 1.69583 0
M  V30 17 H 4.25846 0.854952 -1.11395 0
M  V30 18 H 1.9138 1.28235 -0.726783 0
M  V30 19 H 2.57011 -0.355064 1.84422 0
M  V30 20 H 1.42893 0.992986 1.80494 0
M  V30 21 H 0.862875 -1.76152 1.15771 0
M  V30 22 H -0.117009 1.77394 0.296103 0
M  V30 23 H -2.30801 2.38358 -0.681329 0
M  V30 24 H -3.95254 -2.07041 -1.66425 0
M  V30 25 H -4.0763 -2.43024 0.085589 0
M  V30 26 H -4.41373 0.925608 -2.30881 0
M  V30 27 H -5.17641 0.745013 -0.721756 0
M  V30 END ATOM
M  V30 BEGIN BOND
M  V30 1 1 1 2
M  V30 2 2 2 3 CFG=2
M  V30 3 1 3 4
M  V30 4 1 4 5
M  V30 5 1 5 6
M  V30 6 2 6 7
M  V30 7 1 7 8
M  V30 8 2 8 9
M  V30 9 1 9 10
M  V30 10 2 10 11
M  V30 11 1 10 12
M  V30 12 1 9 13
M  V30 13 1 11 6
M  V30 14 1 1 14
M  V30 15 1 1 15
M  V30 16 1 1 16
M  V30 17 1 2 17
M  V30 18 1 3 18
M  V30 19 1 4 19
M  V30 20 1 4 20
M  V30 21 1 5 21
M  V30 22 1 7 22
M  V30 23 1 8 23
M  V30 24 1 12 24
M  V30 25 1 12 25
M  V30 26 1 13 26
M  V30 27 1 13 27
M  V30 END BOND
M  V30 END CTAB
M  END
