
     RDKit          3D

  0  0  0  0  0  0  0  0  0  0999 V3000
M  V30 BEGIN CTAB
M  V30 COUNTS 21 22 0 0 0
M  V30 BEGIN ATOM
M  V30 1 Cl 4.84039 -0.0191766 0.416937 0
M  V30 2 C 3.10145 0.0416332 0.218176 0
M  V30 3 C 2.30311 -1.07946 0.219378 0
M  V30 4 C 0.927955 -1.02008 0.0612928 0
M  V30 5 N 0.171983 -2.13337 0.0665899 0
M  V30 6 C -1.1585 -2.07381 -0.0865281 0
M  V30 7 C -1.7827 -0.861921 -0.253628 0
M  V30 8 C -1.02553 0.30465 -0.263083 0
M  V30 9 C 0.334028 0.236981 -0.10607 0
M  V30 10 C 1.13234 1.36349 -0.107714 0
M  V30 11 C 2.5088 1.28437 0.0521076 0
M  V30 12 F 3.22483 2.42731 0.0399491 0
M  V30 13 Cl 0.417853 2.97295 -0.316842 0
M  V30 14 N -1.65056 1.56821 -0.434428 0
M  V30 15 N -3.1783 -0.722632 -0.420416 0
M  V30 16 H 2.7565 -2.05378 0.348309 0
M  V30 17 H -1.78609 -2.97285 -0.0841501 0
M  V30 18 H -1.75747 1.92084 -1.41237 0
M  V30 19 H -2.01237 2.15595 0.354393 0
M  V30 20 H -3.747 -0.442137 0.393765 0
M  V30 21 H -3.62072 -0.897167 -1.33558 0
M  V30 END ATOM
M  V30 BEGIN BOND
M  V30 1 1 1 2
M  V30 2 2 2 3
M  V30 3 1 3 4
M  V30 4 2 4 5
M  V30 5 1 5 6
M  V30 6 2 6 7
M  V30 7 1 7 8
M  V30 8 2 8 9
M  V30 9 1 9 10
M  V30 10 2 10 11
M  V30 11 1 11 12
M  V30 12 1 10 13
M  V30 13 1 8 14
M  V30 14 1 7 15
M  V30 15 1 11 2
M  V30 16 1 9 4
M  V30 17 1 3 16
M  V30 18 1 6 17
M  V30 19 1 14 18
M  V30 20 1 14 19
M  V30 21 1 15 20
M  V30 22 1 15 21
M  V30 END BOND
M  V30 END CTAB
M  END
