
     RDKit          3D

  0  0  0  0  0  0  0  0  0  0999 V3000
M  V30 BEGIN CTAB
M  V30 COUNTS 28 28 0 0 0
M  V30 BEGIN ATOM
M  V30 1 C -2.7813 -1.07231 0.863557 0
M  V30 2 C -1.80132 -0.0435058 0.347955 0 CFG=1
M  V30 3 C -1.04858 -0.650999 -0.818775 0
M  V30 4 C 0.0182132 0.240982 -1.3862 0
M  V30 5 C 1.09487 0.633958 -0.484804 0
M  V30 6 C 1.00905 1.89596 0.10285 0
M  V30 7 N 1.91951 2.37097 0.964074 0
M  V30 8 C 2.97068 1.57473 1.26962 0
M  V30 9 C 3.1135 0.322925 0.723829 0
M  V30 10 C 2.17729 -0.172279 -0.165944 0
M  V30 11 N 2.32391 -1.44642 -0.768955 0
M  V30 12 O -0.463569 -1.85776 -0.461142 0
M  V30 13 N -2.4514 1.18339 -0.0567679 0
M  V30 14 H -2.93727 -1.8402 0.0953062 0
M  V30 15 H -2.32596 -1.51843 1.79016 0
M  V30 16 H -3.7743 -0.633652 1.10362 0
M  V30 17 H -1.10747 0.247801 1.17109 0
M  V30 18 H -1.81798 -0.896197 -1.58283 0
M  V30 19 H 0.498763 -0.348023 -2.22779 0
M  V30 20 H -0.427294 1.11757 -1.92629 0
M  V30 21 H 0.164159 2.52752 -0.165688 0
M  V30 22 H 3.69092 1.97085 1.96266 0
M  V30 23 H 3.95098 -0.327068 0.95861 0
M  V30 24 H 2.31707 -1.59067 -1.79394 0
M  V30 25 H 2.44375 -2.26655 -0.130501 0
M  V30 26 H -0.765141 -2.20589 0.411719 0
M  V30 27 H -3.34648 0.966715 -0.541494 0
M  V30 28 H -2.64459 1.8166 0.74608 0
M  V30 END ATOM
M  V30 BEGIN BOND
M  V30 1 1 1 2
M  V30 2 1 2 3
M  V30 3 1 3 4
M  V30 4 1 4 5
M  V30 5 2 5 6
M  V30 6 1 6 7
M  V30 7 2 7 8
M  V30 8 1 8 9
M  V30 9 2 9 10
M  V30 10 1 10 11
M  V30 11 1 3 12
M  V30 12 1 2 13
M  V30 13 1 10 5
M  V30 14 1 1 14
M  V30 15 1 1 15
M  V30 16 1 1 16
M  V30 17 1 2 17 CFG=1
M  V30 18 1 3 18
M  V30 19 1 4 19
M  V30 20 1 4 20
M  V30 21 1 6 21
M  V30 22 1 8 22
M  V30 23 1 9 23
M  V30 24 1 11 24
M  V30 25 1 11 25
M  V30 26 1 12 26
M  V30 27 1 13 27
M  V30 28 1 13 28
M  V30 END BOND
M  V30 END CTAB
M  END
