
     RDKit          3D

  0  0  0  0  0  0  0  0  0  0999 V3000
M  V30 BEGIN CTAB
M  V30 COUNTS 26 27 0 0 0
M  V30 BEGIN ATOM
M  V30 1 N 3.79097 1.17885 0.521075 0
M  V30 2 C 2.43598 0.765056 0.363613 0
M  V30 3 C 1.40119 1.5634 0.777003 0
M  V30 4 C 0.0621551 1.15578 0.622 0
M  V30 5 C -0.244161 -0.0395113 0.0581211 0
M  V30 6 C 0.839691 -0.847959 -0.361166 0
M  V30 7 C 2.14019 -0.449074 -0.208917 0
M  V30 8 N 3.18253 -1.28706 -0.642322 0
M  V30 9 C -1.59 -0.53143 -0.171419 0
M  V30 10 C -1.88433 -1.81834 -0.660471 0
M  V30 11 C -3.2427 -1.97257 -0.790841 0
M  V30 12 N -3.76753 -0.814994 -0.394027 0
M  V30 13 N -2.77898 0.0348058 -0.0285138 0
M  V30 14 C -3.10208 1.36135 0.420412 0
M  V30 15 H 4.15106 1.97336 -0.037704 0
M  V30 16 H 4.40154 0.67614 1.19669 0
M  V30 17 H 1.63476 2.51758 1.22694 0
M  V30 18 H -0.656916 1.85529 0.993764 0
M  V30 19 H 0.643748 -1.7985 -0.812022 0
M  V30 20 H 3.71695 -1.09095 -1.54016 0
M  V30 21 H 3.42822 -2.12784 -0.0499619 0
M  V30 22 H -1.16566 -2.58026 -0.899898 0
M  V30 23 H -3.78875 -2.86133 -1.14699 0
M  V30 24 H -4.20118 1.57703 0.281009 0
M  V30 25 H -2.56043 2.10878 -0.19108 0
M  V30 26 H -2.84625 1.45241 1.47487 0
M  V30 END ATOM
M  V30 BEGIN BOND
M  V30 1 1 1 2
M  V30 2 2 2 3
M  V30 3 1 3 4
M  V30 4 2 4 5
M  V30 5 1 5 6
M  V30 6 2 6 7
M  V30 7 1 7 8
M  V30 8 1 5 9
M  V30 9 2 9 10
M  V30 10 1 10 11
M  V30 11 2 11 12
M  V30 12 1 12 13
M  V30 13 1 13 14
M  V30 14 1 7 2
M  V30 15 1 13 9
M  V30 16 1 1 15
M  V30 17 1 1 16
M  V30 18 1 3 17
M  V30 19 1 4 18
M  V30 20 1 6 19
M  V30 21 1 8 20
M  V30 22 1 8 21
M  V30 23 1 10 22
M  V30 24 1 11 23
M  V30 25 1 14 24
M  V30 26 1 14 25
M  V30 27 1 14 26
M  V30 END BOND
M  V30 END CTAB
M  END
