
     RDKit          3D

  0  0  0  0  0  0  0  0  0  0999 V3000
M  V30 BEGIN CTAB
M  V30 COUNTS 51 52 0 0 0
M  V30 BEGIN ATOM
M  V30 1 N -9.60063 -2.64997 0.790117 0
M  V30 2 C -8.29781 -2.06932 0.846048 0
M  V30 3 N -7.3688 -2.60261 0.12899 0
M  V30 4 N -7.99117 -0.948828 1.64523 0
M  V30 5 S -7.42447 0.543518 1.02802 0
M  V30 6 O -8.43217 1.01053 -0.00477617 0
M  V30 7 O -7.26959 1.54888 2.12132 0
M  V30 8 C -5.8959 0.391124 0.198389 0
M  V30 9 C -4.69731 0.530311 0.863951 0
M  V30 10 C -3.50174 0.406088 0.189543 0
M  V30 11 C -3.43597 0.14071 -1.16295 0
M  V30 12 C -4.63211 0.000306716 -1.83485 0
M  V30 13 C -5.84609 0.125695 -1.15381 0
M  V30 14 N -2.19965 0.013634 -1.85273 0
M  V30 15 C -1.24341 0.894557 -1.74616 0
M  V30 16 C 0.0352696 0.780126 -2.44847 0
M  V30 17 C 1.19798 0.681032 -1.53333 0
M  V30 18 N 2.39504 0.956177 -1.85227 0
M  V30 19 C 3.51542 0.861809 -0.974242 0
M  V30 20 C 4.07193 1.97822 -0.38366 0
M  V30 21 C 5.15656 1.92123 0.470767 0
M  V30 22 C 5.72628 0.705997 0.762129 0
M  V30 23 C 5.18103 -0.41824 0.179465 0
M  V30 24 C 4.09733 -0.357714 -0.673766 0
M  V30 25 S 7.09898 0.538426 1.83073 0
M  V30 26 O 7.04903 1.57902 2.8995 0
M  V30 27 O 6.98452 -0.807543 2.50713 0
M  V30 28 N 8.55431 0.651793 0.91022 0
M  V30 29 C 8.82789 -0.295582 -0.107739 0
M  V30 30 N 8.98881 -1.68875 0.164845 0
M  V30 31 N 8.94998 0.0484955 -1.36112 0
M  V30 32 H -10.1797 -2.67007 1.64875 0
M  V30 33 H -9.92465 -3.03497 -0.116705 0
M  V30 34 H -7.53675 -3.43379 -0.482549 0
M  V30 35 H -8.12122 -1.04741 2.67052 0
M  V30 36 H -4.71578 0.738221 1.92243 0
M  V30 37 H -2.53643 0.513114 0.699702 0
M  V30 38 H -4.62357 -0.209243 -2.90121 0
M  V30 39 H -6.77912 0.015224 -1.68261 0
M  V30 40 H -1.46744 1.73218 -1.08865 0
M  V30 41 H 0.0196563 -0.186474 -3.02807 0
M  V30 42 H 0.227793 1.57412 -3.18156 0
M  V30 43 H 0.993277 0.348578 -0.524468 0
M  V30 44 H 3.62606 2.93075 -0.611495 0
M  V30 45 H 5.58788 2.81559 0.932347 0
M  V30 46 H 5.63753 -1.38536 0.4138 0
M  V30 47 H 3.69265 -1.26379 -1.11571 0
M  V30 48 H 9.20715 1.42725 1.12927 0
M  V30 49 H 8.40262 -2.1119 0.906847 0
M  V30 50 H 9.65993 -2.28195 -0.344616 0
M  V30 51 H 8.83659 1.06082 -1.58494 0
M  V30 END ATOM
M  V30 BEGIN BOND
M  V30 1 1 1 2
M  V30 2 2 2 3 CFG=2
M  V30 3 1 2 4
M  V30 4 1 4 5
M  V30 5 2 5 6
M  V30 6 2 5 7
M  V30 7 1 5 8
M  V30 8 2 8 9
M  V30 9 1 9 10
M  V30 10 2 10 11
M  V30 11 1 11 12
M  V30 12 2 12 13
M  V30 13 1 11 14
M  V30 14 2 14 15
M  V30 15 1 15 16
M  V30 16 1 16 17
M  V30 17 2 17 18
M  V30 18 1 18 19
M  V30 19 2 19 20
M  V30 20 1 20 21
M  V30 21 2 21 22
M  V30 22 1 22 23
M  V30 23 2 23 24
M  V30 24 1 22 25
M  V30 25 2 25 26
M  V30 26 2 25 27
M  V30 27 1 25 28
M  V30 28 1 28 29
M  V30 29 1 29 30
M  V30 30 2 29 31 CFG=2
M  V30 31 1 13 8
M  V30 32 1 24 19
M  V30 33 1 1 32
M  V30 34 1 1 33
M  V30 35 1 3 34
M  V30 36 1 4 35
M  V30 37 1 9 36
M  V30 38 1 10 37
M  V30 39 1 12 38
M  V30 40 1 13 39
M  V30 41 1 15 40
M  V30 42 1 16 41
M  V30 43 1 16 42
M  V30 44 1 17 43
M  V30 45 1 20 44
M  V30 46 1 21 45
M  V30 47 1 23 46
M  V30 48 1 24 47
M  V30 49 1 28 48
M  V30 50 1 30 49
M  V30 51 1 30 50
M  V30 52 1 31 51
M  V30 END BOND
M  V30 END CTAB
M  END
