
     RDKit          3D

  0  0  0  0  0  0  0  0  0  0999 V3000
M  V30 BEGIN CTAB
M  V30 COUNTS 37 38 0 0 0
M  V30 BEGIN ATOM
M  V30 1 C -4.47234 -0.107773 1.31293 0
M  V30 2 C -3.82129 -0.361922 -0.0337834 0
M  V30 3 N -2.55572 0.309729 -0.0728341 0
M  V30 4 C -2.38283 1.39334 -1.0212 0
M  V30 5 C -1.0003 1.37905 -1.58208 0
M  V30 6 C 0.00913956 1.45785 -0.448849 0
M  V30 7 C -0.0999762 0.124863 0.286621 0
M  V30 8 C -1.4654 -0.0407442 0.781228 0
M  V30 9 O -1.76335 -0.481324 1.93458 0
M  V30 10 S 1.16229 -0.0799127 1.54427 0
M  V30 11 C 2.78266 -0.192049 0.767598 0
M  V30 12 N 3.53671 0.885498 0.523049 0
M  V30 13 C 4.74296 0.755612 -0.0608906 0
M  V30 14 N 5.542 1.896 -0.319214 0
M  V30 15 N 5.23611 -0.457105 -0.420338 0
M  V30 16 C 4.441 -1.51699 -0.154475 0
M  V30 17 N 3.24428 -1.39896 0.423867 0
M  V30 18 N 4.94514 -2.8014 -0.529919 0
M  V30 19 C -3.7253 -1.83848 -0.334849 0
M  V30 20 H -4.51853 -0.988321 1.9495 0
M  V30 21 H -3.93958 0.700832 1.88382 0
M  V30 22 H -5.52334 0.282046 1.20088 0
M  V30 23 H -4.4875 0.0934045 -0.787522 0
M  V30 24 H -2.62727 2.33954 -0.503344 0
M  V30 25 H -3.0974 1.29169 -1.87918 0
M  V30 26 H -0.856608 2.30915 -2.17628 0
M  V30 27 H -0.840282 0.463656 -2.15561 0
M  V30 28 H 1.02384 1.57335 -0.828593 0
M  V30 29 H -0.296293 2.29188 0.210921 0
M  V30 30 H 0.0770611 -0.653897 -0.498902 0
M  V30 31 H 5.23904 2.64334 -0.968723 0
M  V30 32 H 6.46195 1.99287 0.154482 0
M  V30 33 H 5.33799 -3.45593 0.169299 0
M  V30 34 H 4.92725 -3.11606 -1.54444 0
M  V30 35 H -4.49741 -2.14548 -1.07969 0
M  V30 36 H -2.75727 -2.1416 -0.751128 0
M  V30 37 H -3.98141 -2.40576 0.603413 0
M  V30 END ATOM
M  V30 BEGIN BOND
M  V30 1 1 1 2
M  V30 2 1 2 3
M  V30 3 1 3 4
M  V30 4 1 4 5
M  V30 5 1 5 6
M  V30 6 1 6 7
M  V30 7 1 7 8
M  V30 8 2 8 9
M  V30 9 1 7 10
M  V30 10 1 10 11
M  V30 11 2 11 12
M  V30 12 1 12 13
M  V30 13 1 13 14
M  V30 14 2 13 15
M  V30 15 1 15 16
M  V30 16 2 16 17
M  V30 17 1 16 18
M  V30 18 1 2 19
M  V30 19 1 8 3
M  V30 20 1 17 11
M  V30 21 1 1 20
M  V30 22 1 1 21
M  V30 23 1 1 22
M  V30 24 1 2 23
M  V30 25 1 4 24
M  V30 26 1 4 25
M  V30 27 1 5 26
M  V30 28 1 5 27
M  V30 29 1 6 28
M  V30 30 1 6 29
M  V30 31 1 7 30
M  V30 32 1 14 31
M  V30 33 1 14 32
M  V30 34 1 18 33
M  V30 35 1 18 34
M  V30 36 1 19 35
M  V30 37 1 19 36
M  V30 38 1 19 37
M  V30 END BOND
M  V30 END CTAB
M  END
