
     RDKit          3D

  0  0  0  0  0  0  0  0  0  0999 V3000
M  V30 BEGIN CTAB
M  V30 COUNTS 32 33 0 0 0
M  V30 BEGIN ATOM
M  V30 1 N 0.794755 -0.894791 -1.12181 0
M  V30 2 C 1.43704 0.101893 -0.345429 0
M  V30 3 N 0.740871 1.03557 0.185969 0
M  V30 4 N -0.634474 1.06193 -0.00368568 0
M  V30 5 C -1.43713 0.269031 0.63169 0
M  V30 6 N -0.931291 -0.667992 1.55739 0
M  V30 7 C -2.86447 0.35908 0.376968 0
M  V30 8 C -3.72334 -0.474838 1.04353 0
M  V30 9 C -5.06976 -0.395258 0.808158 0
M  V30 10 C -5.58871 0.513937 -0.0935685 0
M  V30 11 C -4.72556 1.35205 -0.763483 0
M  V30 12 C -3.3688 1.27414 -0.528408 0
M  V30 13 C 2.88929 0.0175024 -0.183792 0
M  V30 14 C 3.57243 -1.0013 -0.775339 0
M  V30 15 C 4.93473 -1.12325 -0.652897 0
M  V30 16 C 5.65746 -0.209796 0.0789859 0
M  V30 17 C 4.94403 0.812691 0.668473 0
M  V30 18 C 3.58064 0.956164 0.56054 0
M  V30 19 H 0.065015 -0.558272 -1.79772 0
M  V30 20 H 1.00749 -1.91547 -1.05428 0
M  V30 21 H -0.472927 -0.39305 2.46266 0
M  V30 22 H -1.02052 -1.68415 1.32427 0
M  V30 23 H -3.33692 -1.1855 1.74609 0
M  V30 24 H -5.72498 -1.0704 1.35263 0
M  V30 25 H -6.64448 0.53745 -0.242219 0
M  V30 26 H -5.12914 2.06175 -1.46719 0
M  V30 27 H -2.68885 1.93122 -1.05322 0
M  V30 28 H 3.01676 -1.74777 -1.36817 0
M  V30 29 H 5.41299 -1.95639 -1.14878 0
M  V30 30 H 6.74132 -0.296225 0.18363 0
M  V30 31 H 5.52222 1.53717 1.24971 0
M  V30 32 H 3.04433 1.75287 1.02281 0
M  V30 END ATOM
M  V30 BEGIN BOND
M  V30 1 1 1 2
M  V30 2 2 2 3 CFG=2
M  V30 3 1 3 4
M  V30 4 2 4 5 CFG=2
M  V30 5 1 5 6
M  V30 6 1 5 7
M  V30 7 2 7 8
M  V30 8 1 8 9
M  V30 9 2 9 10
M  V30 10 1 10 11
M  V30 11 2 11 12
M  V30 12 1 2 13
M  V30 13 2 13 14
M  V30 14 1 14 15
M  V30 15 2 15 16
M  V30 16 1 16 17
M  V30 17 2 17 18
M  V30 18 1 12 7
M  V30 19 1 18 13
M  V30 20 1 1 19
M  V30 21 1 1 20
M  V30 22 1 6 21
M  V30 23 1 6 22
M  V30 24 1 8 23
M  V30 25 1 9 24
M  V30 26 1 10 25
M  V30 27 1 11 26
M  V30 28 1 12 27
M  V30 29 1 14 28
M  V30 30 1 15 29
M  V30 31 1 16 30
M  V30 32 1 17 31
M  V30 33 1 18 32
M  V30 END BOND
M  V30 END CTAB
M  END
