
     RDKit          3D

  0  0  0  0  0  0  0  0  0  0999 V3000
M  V30 BEGIN CTAB
M  V30 COUNTS 23 22 0 0 0
M  V30 BEGIN ATOM
M  V30 1 N -2.34449 -0.569996 1.21106 0
M  V30 2 C -1.70506 0.620242 0.689301 0
M  V30 3 C -0.49914 0.231937 -0.163873 0
M  V30 4 N 0.408077 -0.482423 0.651479 0
M  V30 5 S 1.83453 -1.03682 -0.0255431 0
M  V30 6 O 2.31008 -2.24206 0.778982 0
M  V30 7 O 1.78617 -1.45571 -1.43673 0
M  V30 8 N 3.07973 0.15942 0.137339 0
M  V30 9 C 0.00534803 1.45421 -0.825247 0
M  V30 10 C -1.03078 -0.688408 -1.24611 0
M  V30 11 H -1.65958 -1.35481 1.12373 0
M  V30 12 H -2.59379 -0.466533 2.20098 0
M  V30 13 H -2.40253 1.25829 0.150438 0
M  V30 14 H -1.34792 1.20291 1.57808 0
M  V30 15 H 0.590295 -0.0648576 1.57931 0
M  V30 16 H 2.77639 0.954496 0.746402 0
M  V30 17 H 3.95939 -0.230392 0.502091 0
M  V30 18 H 0.404796 1.23127 -1.8562 0
M  V30 19 H 0.722491 2.04797 -0.22465 0
M  V30 20 H -0.862925 2.12877 -1.0088 0
M  V30 21 H -2.09193 -0.409874 -1.4849 0
M  V30 22 H -0.947799 -1.74931 -0.941164 0
M  V30 23 H -0.391351 -0.538315 -2.13598 0
M  V30 END ATOM
M  V30 BEGIN BOND
M  V30 1 1 1 2
M  V30 2 1 2 3
M  V30 3 1 3 4
M  V30 4 1 4 5
M  V30 5 2 5 6
M  V30 6 2 5 7
M  V30 7 1 5 8
M  V30 8 1 3 9
M  V30 9 1 3 10
M  V30 10 1 1 11
M  V30 11 1 1 12
M  V30 12 1 2 13
M  V30 13 1 2 14
M  V30 14 1 4 15
M  V30 15 1 8 16
M  V30 16 1 8 17
M  V30 17 1 9 18
M  V30 18 1 9 19
M  V30 19 1 9 20
M  V30 20 1 10 21
M  V30 21 1 10 22
M  V30 22 1 10 23
M  V30 END BOND
M  V30 END CTAB
M  END
