
     RDKit          3D

  0  0  0  0  0  0  0  0  0  0999 V3000
M  V30 BEGIN CTAB
M  V30 COUNTS 33 33 0 0 0
M  V30 BEGIN ATOM
M  V30 1 N -3.49139 -0.282092 1.15319 0
M  V30 2 C -3.37916 0.415986 -0.0757469 0
M  V30 3 C -2.13572 1.22137 -0.241749 0
M  V30 4 C -0.872885 0.420514 -0.172882 0 CFG=2
M  V30 5 C -0.773765 -0.641832 -1.21519 0
M  V30 6 C 0.639556 -0.707555 -1.77368 0
M  V30 7 C 1.63967 -1.00336 -0.666672 0
M  V30 8 N 1.64136 0.0202574 0.336683 0
M  V30 9 C 0.841776 -0.305806 1.49781 0
M  V30 10 C -0.635688 -0.168513 1.197 0
M  V30 11 S 3.2793 0.34292 0.826285 0
M  V30 12 O 3.30824 1.27856 1.99083 0
M  V30 13 O 3.86655 -0.992804 1.2594 0
M  V30 14 N 4.20498 0.908409 -0.491929 0
M  V30 15 H -4.12447 0.173003 1.834 0
M  V30 16 H -3.7567 -1.26826 1.07815 0
M  V30 17 H -4.24417 1.1187 -0.183837 0
M  V30 18 H -3.48492 -0.290088 -0.949092 0
M  V30 19 H -2.18429 1.79446 -1.1761 0
M  V30 20 H -2.08514 1.97698 0.588361 0
M  V30 21 H -0.0292625 1.14746 -0.366611 0
M  V30 22 H -0.969995 -1.67139 -0.797328 0
M  V30 23 H -1.45851 -0.509766 -2.07315 0
M  V30 24 H 0.696896 -1.51129 -2.52565 0
M  V30 25 H 0.905197 0.282865 -2.18064 0
M  V30 26 H 2.63923 -1.05975 -1.16301 0
M  V30 27 H 1.42692 -2.00535 -0.251554 0
M  V30 28 H 1.08839 -1.32899 1.8855 0
M  V30 29 H 1.09831 0.446833 2.27867 0
M  V30 30 H -1.1433 0.482131 1.93971 0
M  V30 31 H -1.07039 -1.20192 1.24782 0
M  V30 32 H 3.57047 1.40009 -1.17634 0
M  V30 33 H 4.9929 1.51821 -0.224427 0
M  V30 END ATOM
M  V30 BEGIN BOND
M  V30 1 1 1 2
M  V30 2 1 2 3
M  V30 3 1 3 4
M  V30 4 1 4 5
M  V30 5 1 5 6
M  V30 6 1 6 7
M  V30 7 1 7 8
M  V30 8 1 8 9
M  V30 9 1 9 10
M  V30 10 1 8 11
M  V30 11 2 11 12
M  V30 12 2 11 13
M  V30 13 1 11 14
M  V30 14 1 10 4
M  V30 15 1 1 15
M  V30 16 1 1 16
M  V30 17 1 2 17
M  V30 18 1 2 18
M  V30 19 1 3 19
M  V30 20 1 3 20
M  V30 21 1 4 21 CFG=3
M  V30 22 1 5 22
M  V30 23 1 5 23
M  V30 24 1 6 24
M  V30 25 1 6 25
M  V30 26 1 7 26
M  V30 27 1 7 27
M  V30 28 1 9 28
M  V30 29 1 9 29
M  V30 30 1 10 30
M  V30 31 1 10 31
M  V30 32 1 14 32
M  V30 33 1 14 33
M  V30 END BOND
M  V30 END CTAB
M  END
