
     RDKit          3D

  0  0  0  0  0  0  0  0  0  0999 V3000
M  V30 BEGIN CTAB
M  V30 COUNTS 41 42 0 0 0
M  V30 BEGIN ATOM
M  V30 1 C -5.23104 2.06528 -1.57559 0
M  V30 2 C -5.76923 0.672942 -1.53867 0
M  V30 3 O -5.3368 -0.0911837 -0.458758 0
M  V30 4 C -4.07351 -0.450981 -0.115091 0
M  V30 5 C -2.98687 -0.077196 -0.854637 0
M  V30 6 C -1.70655 -0.485328 -0.438435 0
M  V30 7 C -1.47342 -1.23915 0.66781 0
M  V30 8 C -2.60601 -1.60656 1.40504 0
M  V30 9 C -3.86913 -1.2159 1.01303 0
M  V30 10 N -0.21355 -1.66852 1.09923 0
M  V30 11 C 1.02691 -1.58992 0.467719 0
M  V30 12 O 1.15764 -1.08258 -0.658871 0
M  V30 13 C 2.28492 -2.10714 1.09349 0
M  V30 14 S 3.73729 -1.80987 0.0632231 0
M  V30 15 C 4.04783 -0.0585178 -0.0194704 0
M  V30 16 N 4.83766 0.5722 0.890221 0
M  V30 17 C 5.07282 1.90483 0.812643 0
M  V30 18 N 5.91028 2.57866 1.77366 0
M  V30 19 N 4.52836 2.61894 -0.164146 0
M  V30 20 C 3.74361 2.02835 -1.07888 0
M  V30 21 N 3.52622 0.705651 -0.97982 0
M  V30 22 N 3.1315 2.73531 -2.14827 0
M  V30 23 C 2.19827 -3.57127 1.3766 0
M  V30 24 H -4.43728 2.24285 -0.790311 0
M  V30 25 H -4.81296 2.34803 -2.58299 0
M  V30 26 H -6.02149 2.78378 -1.36928 0
M  V30 27 H -5.5456 0.21226 -2.52508 0
M  V30 28 H -6.88472 0.729549 -1.48244 0
M  V30 29 H -3.07099 0.531066 -1.76862 0
M  V30 30 H -0.894117 -0.145013 -1.07272 0
M  V30 31 H -2.49862 -2.214 2.30872 0
M  V30 32 H -4.74219 -1.5132 1.60201 0
M  V30 33 H -0.201505 -2.13137 2.08032 0
M  V30 34 H 2.4125 -1.48636 2.02892 0
M  V30 35 H 5.7689 2.48184 2.80333 0
M  V30 36 H 6.6928 3.19072 1.46227 0
M  V30 37 H 3.62126 2.7679 -3.06611 0
M  V30 38 H 2.21452 3.22019 -2.04647 0
M  V30 39 H 1.78756 -3.70547 2.40192 0
M  V30 40 H 1.49759 -4.05509 0.63509 0
M  V30 41 H 3.17714 -4.08573 1.35831 0
M  V30 END ATOM
M  V30 BEGIN BOND
M  V30 1 1 1 2
M  V30 2 1 2 3
M  V30 3 1 3 4
M  V30 4 2 4 5
M  V30 5 1 5 6
M  V30 6 2 6 7
M  V30 7 1 7 8
M  V30 8 2 8 9
M  V30 9 1 7 10
M  V30 10 1 10 11
M  V30 11 2 11 12
M  V30 12 1 11 13
M  V30 13 1 13 14
M  V30 14 1 14 15
M  V30 15 2 15 16
M  V30 16 1 16 17
M  V30 17 1 17 18
M  V30 18 2 17 19
M  V30 19 1 19 20
M  V30 20 2 20 21
M  V30 21 1 20 22
M  V30 22 1 13 23
M  V30 23 1 9 4
M  V30 24 1 21 15
M  V30 25 1 1 24
M  V30 26 1 1 25
M  V30 27 1 1 26
M  V30 28 1 2 27
M  V30 29 1 2 28
M  V30 30 1 5 29
M  V30 31 1 6 30
M  V30 32 1 8 31
M  V30 33 1 9 32
M  V30 34 1 10 33
M  V30 35 1 13 34
M  V30 36 1 18 35
M  V30 37 1 18 36
M  V30 38 1 22 37
M  V30 39 1 22 38
M  V30 40 1 23 39
M  V30 41 1 23 40
M  V30 42 1 23 41
M  V30 END BOND
M  V30 END CTAB
M  END
