
     RDKit          3D

  0  0  0  0  0  0  0  0  0  0999 V3000
M  V30 BEGIN CTAB
M  V30 COUNTS 28 28 0 0 0
M  V30 BEGIN ATOM
M  V30 1 O -1.93305 0.938595 -2.37771 0
M  V30 2 C -2.20537 -0.145822 -1.5632 0
M  V30 3 C -1.76801 0.209436 -0.184314 0 CFG=1
M  V30 4 C -2.00655 -0.895243 0.829088 0
M  V30 5 C -1.37259 -0.217569 2.05134 0
M  V30 6 C -0.142782 0.465841 1.50136 0
M  V30 7 C -0.328714 0.498632 -0.0193481 0 CFG=1
M  V30 8 N 0.570878 -0.438224 -0.581938 0
M  V30 9 C 1.96588 -0.236322 -0.468411 0
M  V30 10 N 2.44042 0.828059 0.098653 0
M  V30 11 N 3.7857 1.08301 0.240111 0
M  V30 12 N 2.91084 -1.17113 -0.960244 0
M  V30 13 H -2.67298 1.5475 -2.40767 0
M  V30 14 H -1.7041 -1.00678 -1.99923 0
M  V30 15 H -3.30243 -0.291732 -1.55497 0
M  V30 16 H -2.346 1.08633 0.174651 0
M  V30 17 H -1.47395 -1.823 0.568091 0
M  V30 18 H -3.08428 -1.06092 1.01044 0
M  V30 19 H -2.10793 0.586085 2.33912 0
M  V30 20 H -1.16783 -0.92298 2.85762 0
M  V30 21 H 0.727265 -0.157235 1.7874 0
M  V30 22 H -0.0265071 1.49252 1.85955 0
M  V30 23 H -0.109358 1.52666 -0.393534 0
M  V30 24 H 0.233721 -1.2789 -1.08121 0
M  V30 25 H 4.10126 2.07094 0.315687 0
M  V30 26 H 4.50845 0.331974 0.275538 0
M  V30 27 H 3.47814 -1.76772 -0.329511 0
M  V30 28 H 3.02986 -1.25199 -1.98736 0
M  V30 END ATOM
M  V30 BEGIN BOND
M  V30 1 1 1 2
M  V30 2 1 2 3
M  V30 3 1 3 4
M  V30 4 1 4 5
M  V30 5 1 5 6
M  V30 6 1 6 7
M  V30 7 1 7 8
M  V30 8 1 8 9
M  V30 9 2 9 10 CFG=2
M  V30 10 1 10 11
M  V30 11 1 9 12
M  V30 12 1 7 3
M  V30 13 1 1 13
M  V30 14 1 2 14
M  V30 15 1 2 15
M  V30 16 1 3 16 CFG=1
M  V30 17 1 4 17
M  V30 18 1 4 18
M  V30 19 1 5 19
M  V30 20 1 5 20
M  V30 21 1 6 21
M  V30 22 1 6 22
M  V30 23 1 7 23 CFG=3
M  V30 24 1 8 24
M  V30 25 1 11 25
M  V30 26 1 11 26
M  V30 27 1 12 27
M  V30 28 1 12 28
M  V30 END BOND
M  V30 END CTAB
M  END
