
     RDKit          3D

  0  0  0  0  0  0  0  0  0  0999 V3000
M  V30 BEGIN CTAB
M  V30 COUNTS 37 38 0 0 0
M  V30 BEGIN ATOM
M  V30 1 N 3.5515 0.4378 1.77874 0
M  V30 2 C 3.48854 0.170832 0.368737 0
M  V30 3 C 2.34513 -0.744698 -0.0240466 0
M  V30 4 N 2.35239 -0.945195 -1.4562 0
M  V30 5 C 1.85248 0.201513 -2.18283 0
M  V30 6 C 0.624515 0.819428 -1.52687 0
M  V30 7 C 0.0418367 -0.320446 -0.679388 0
M  V30 8 C 1.02251 -0.345842 0.522786 0
M  V30 9 C -1.31977 -0.0685114 -0.211553 0
M  V30 10 C -1.92701 1.15303 -0.118 0
M  V30 11 C -3.19987 1.32693 0.381946 0
M  V30 12 N -3.80532 2.62282 0.477228 0
M  V30 13 C -3.91538 0.22227 0.815074 0
M  V30 14 C -3.32181 -0.993724 0.724979 0
M  V30 15 C -2.04365 -1.18 0.224476 0
M  V30 16 C -1.48143 -2.53716 0.134568 0
M  V30 17 H 2.84453 1.20486 1.99969 0
M  V30 18 H 4.48888 0.898967 1.94151 0
M  V30 19 H 4.48025 -0.315413 0.11072 0
M  V30 20 H 3.45771 1.13166 -0.174245 0
M  V30 21 H 2.60295 -1.74402 0.42806 0
M  V30 22 H 3.36509 -1.05542 -1.73906 0
M  V30 23 H 2.63711 0.948741 -2.4045 0
M  V30 24 H 1.48868 -0.188317 -3.17048 0
M  V30 25 H -0.112288 1.18332 -2.24861 0
M  V30 26 H 0.991606 1.61923 -0.854844 0
M  V30 27 H 0.211406 -1.25152 -1.22639 0
M  V30 28 H 1.02152 0.72188 0.857448 0
M  V30 29 H 0.636772 -0.915427 1.36352 0
M  V30 30 H -1.37331 2.03118 -0.456628 0
M  V30 31 H -4.79629 2.7106 0.724192 0
M  V30 32 H -3.25304 3.48245 0.300895 0
M  V30 33 H -4.9059 0.384898 1.19884 0
M  V30 34 H -3.87568 -1.86302 1.06121 0
M  V30 35 H -0.769471 -2.76162 0.935348 0
M  V30 36 H -1.09064 -2.76341 -0.899013 0
M  V30 37 H -2.31455 -3.27868 0.264359 0
M  V30 END ATOM
M  V30 BEGIN BOND
M  V30 1 1 1 2
M  V30 2 1 2 3
M  V30 3 1 3 4
M  V30 4 1 4 5
M  V30 5 1 5 6
M  V30 6 1 6 7
M  V30 7 1 7 8
M  V30 8 1 7 9
M  V30 9 2 9 10
M  V30 10 1 10 11
M  V30 11 1 11 12
M  V30 12 2 11 13
M  V30 13 1 13 14
M  V30 14 2 14 15
M  V30 15 1 15 16
M  V30 16 1 8 3
M  V30 17 1 15 9
M  V30 18 1 1 17
M  V30 19 1 1 18
M  V30 20 1 2 19
M  V30 21 1 2 20
M  V30 22 1 3 21
M  V30 23 1 4 22
M  V30 24 1 5 23
M  V30 25 1 5 24
M  V30 26 1 6 25
M  V30 27 1 6 26
M  V30 28 1 7 27
M  V30 29 1 8 28
M  V30 30 1 8 29
M  V30 31 1 10 30
M  V30 32 1 12 31
M  V30 33 1 12 32
M  V30 34 1 13 33
M  V30 35 1 14 34
M  V30 36 1 16 35
M  V30 37 1 16 36
M  V30 38 1 16 37
M  V30 END BOND
M  V30 END CTAB
M  END
