
     RDKit          3D

  0  0  0  0  0  0  0  0  0  0999 V3000
M  V30 BEGIN CTAB
M  V30 COUNTS 106 108 0 0 0
M  V30 BEGIN ATOM
M  V30 1 C -12.3242 -4.17819 0.9432 0
M  V30 2 N -11.0925 -3.51159 0.382405 0
M  V30 3 C -11.123 -3.83312 -1.0494 0
M  V30 4 C -10.0215 -4.19648 1.05319 0
M  V30 5 C -8.70923 -3.54028 0.936118 0
M  V30 6 C -8.23636 -3.35329 -0.458178 0
M  V30 7 N -6.89537 -2.76683 -0.437781 0
M  V30 8 C -5.80811 -3.51884 0.102554 0
M  V30 9 O -5.93857 -4.68031 0.567967 0
M  V30 10 C -4.48579 -2.86414 0.0900519 0
M  V30 11 C -4.14633 -1.58702 -0.277116 0
M  V30 12 C -2.76677 -1.4055 -0.165504 0
M  V30 13 N -2.02394 -0.220696 -0.41507 0
M  V30 14 C -0.696931 -0.279261 -0.902469 0
M  V30 15 O -0.183675 -1.38738 -1.12963 0
M  V30 16 C 0.0420859 0.938936 -1.13251 0
M  V30 17 C -0.322195 2.2316 -0.716469 0
M  V30 18 C 0.606271 3.10061 -1.16084 0
M  V30 19 N 0.637424 4.50107 -0.956697 0
M  V30 20 C -0.286275 5.21344 -0.178805 0
M  V30 21 O -1.23404 4.64308 0.406431 0
M  V30 22 C -0.145624 6.67928 -0.038072 0
M  V30 23 C 0.84499 7.41732 -0.619045 0
M  V30 24 C 0.654567 8.76633 -0.254911 0
M  V30 25 N 1.50932 9.80899 -0.68899 0
M  V30 26 C 1.35162 11.1351 -0.238811 0
M  V30 27 C 2.26001 12.2349 -0.701488 0
M  V30 28 O 0.459751 11.4919 0.56626 0
M  V30 29 C -0.457474 8.75218 0.534089 0
M  V30 30 N -0.945627 7.48549 0.667784 0
M  V30 31 C -2.12889 7.13579 1.45345 0
M  V30 32 C 1.54057 2.34553 -1.85017 0
M  V30 33 N 1.20138 1.04788 -1.83273 0
M  V30 34 C 1.94878 0.00121585 -2.46417 0
M  V30 35 C 3.05373 -0.603656 -1.61367 0
M  V30 36 C 4.09617 0.383667 -1.28257 0
M  V30 37 C 5.25221 -0.0930448 -0.477153 0
M  V30 38 N 6.0973 -1.02421 -1.02154 0
M  V30 39 C 5.8761 -2.35696 -1.30397 0
M  V30 40 C 5.65337 -3.2753 -0.153315 0
M  V30 41 N 6.65482 -3.41566 0.783307 0
M  V30 42 C 6.26175 -4.27481 1.88982 0
M  V30 43 C 7.24736 -4.58255 2.9201 0
M  V30 44 N 8.39094 -5.28894 2.38726 0
M  V30 45 C 7.81092 -2.70511 0.945708 0
M  V30 46 C 8.95719 -2.80641 -0.0125275 0
M  V30 47 N 10.0438 -1.92577 0.511272 0
M  V30 48 C -2.29826 -2.64462 0.28915 0
M  V30 49 N -3.32546 -3.50228 0.437506 0
M  V30 50 C -3.24441 -4.8754 0.892144 0
M  V30 51 H -12.0743 -5.24905 0.945308 0
M  V30 52 H -13.1668 -3.88767 0.31522 0
M  V30 53 H -12.3533 -3.82048 1.98629 0
M  V30 54 H -12.1344 -4.29619 -1.26524 0
M  V30 55 H -10.3966 -4.58602 -1.34871 0
M  V30 56 H -11.0917 -2.92523 -1.65085 0
M  V30 57 H -10.3069 -4.33419 2.1333 0
M  V30 58 H -10.0072 -5.23632 0.5972 0
M  V30 59 H -8.66966 -2.55099 1.47622 0
M  V30 60 H -7.9884 -4.16603 1.55148 0
M  V30 61 H -8.06862 -4.35329 -0.980604 0
M  V30 62 H -8.8392 -2.67844 -1.07652 0
M  V30 63 H -6.7573 -1.81046 -0.811267 0
M  V30 64 H -4.84024 -0.821237 -0.608776 0
M  V30 65 H -2.47913 0.697793 -0.229439 0
M  V30 66 H -1.24351 2.37972 -0.127856 0
M  V30 67 H 1.42852 5.01457 -1.44358 0
M  V30 68 H 1.6433 7.04743 -1.25082 0
M  V30 69 H 2.29249 9.61173 -1.36857 0
M  V30 70 H 2.55049 12.8829 0.157005 0
M  V30 71 H 3.14803 11.765 -1.16156 0
M  V30 72 H 1.76131 12.8933 -1.44927 0
M  V30 73 H -0.917276 9.61758 1.00511 0
M  V30 74 H -1.94421 6.26328 2.11999 0
M  V30 75 H -3.01853 6.96348 0.803532 0
M  V30 76 H -2.35916 7.97545 2.12818 0
M  V30 77 H 2.42543 2.7597 -2.33549 0
M  V30 78 H 2.50362 0.45808 -3.34266 0
M  V30 79 H 1.32315 -0.782814 -2.94899 0
M  V30 80 H 3.34462 -1.57185 -1.97918 0
M  V30 81 H 2.53635 -0.833184 -0.610509 0
M  V30 82 H 4.47671 0.825422 -2.26933 0
M  V30 83 H 3.65563 1.31217 -0.794657 0
M  V30 84 H 5.90764 0.837363 -0.229946 0
M  V30 85 H 4.86096 -0.375398 0.563176 0
M  V30 86 H 6.99442 -0.616558 -1.44149 0
M  V30 87 H 5.13953 -2.57965 -2.13784 0
M  V30 88 H 6.83284 -2.73006 -1.86731 0
M  V30 89 H 5.42575 -4.31172 -0.621547 0
M  V30 90 H 4.65168 -2.93572 0.298432 0
M  V30 91 H 5.81929 -5.19162 1.46666 0
M  V30 92 H 5.3934 -3.72631 2.36773 0
M  V30 93 H 7.53593 -3.76057 3.60754 0
M  V30 94 H 6.76527 -5.3371 3.62215 0
M  V30 95 H 9.20318 -5.30276 3.04782 0
M  V30 96 H 8.18486 -6.2896 2.1665 0
M  V30 97 H 7.55013 -1.58731 0.955094 0
M  V30 98 H 8.27424 -2.7882 1.98407 0
M  V30 99 H 8.78227 -2.38997 -1.01293 0
M  V30 100 H 9.34297 -3.84033 -0.0374356 0
M  V30 101 H 9.56981 -1.13468 0.995985 0
M  V30 102 H 10.6031 -2.54081 1.1424 0
M  V30 103 H -1.25169 -2.85603 0.487141 0
M  V30 104 H -2.1727 -5.15015 1.02982 0
M  V30 105 H -3.84565 -5.06582 1.78943 0
M  V30 106 H -3.61233 -5.50769 0.0405722 0
M  V30 END ATOM
M  V30 BEGIN BOND
M  V30 1 1 1 2
M  V30 2 1 2 3
M  V30 3 1 2 4
M  V30 4 1 4 5
M  V30 5 1 5 6
M  V30 6 1 6 7
M  V30 7 1 7 8
M  V30 8 2 8 9
M  V30 9 1 8 10
M  V30 10 2 10 11
M  V30 11 1 11 12
M  V30 12 1 12 13
M  V30 13 1 13 14
M  V30 14 2 14 15
M  V30 15 1 14 16
M  V30 16 2 16 17
M  V30 17 1 17 18
M  V30 18 1 18 19
M  V30 19 1 19 20
M  V30 20 2 20 21
M  V30 21 1 20 22
M  V30 22 2 22 23
M  V30 23 1 23 24
M  V30 24 1 24 25
M  V30 25 1 25 26
M  V30 26 1 26 27
M  V30 27 2 26 28
M  V30 28 2 24 29
M  V30 29 1 29 30
M  V30 30 1 30 31
M  V30 31 2 18 32
M  V30 32 1 32 33
M  V30 33 1 33 34
M  V30 34 1 34 35
M  V30 35 1 35 36
M  V30 36 1 36 37
M  V30 37 1 37 38
M  V30 38 1 38 39
M  V30 39 1 39 40
M  V30 40 1 40 41
M  V30 41 1 41 42
M  V30 42 1 42 43
M  V30 43 1 43 44
M  V30 44 1 41 45
M  V30 45 1 45 46
M  V30 46 1 46 47
M  V30 47 2 12 48
M  V30 48 1 48 49
M  V30 49 1 49 50
M  V30 50 1 49 10
M  V30 51 1 33 16
M  V30 52 1 30 22
M  V30 53 1 1 51
M  V30 54 1 1 52
M  V30 55 1 1 53
M  V30 56 1 3 54
M  V30 57 1 3 55
M  V30 58 1 3 56
M  V30 59 1 4 57
M  V30 60 1 4 58
M  V30 61 1 5 59
M  V30 62 1 5 60
M  V30 63 1 6 61
M  V30 64 1 6 62
M  V30 65 1 7 63
M  V30 66 1 11 64
M  V30 67 1 13 65
M  V30 68 1 17 66
M  V30 69 1 19 67
M  V30 70 1 23 68
M  V30 71 1 25 69
M  V30 72 1 27 70
M  V30 73 1 27 71
M  V30 74 1 27 72
M  V30 75 1 29 73
M  V30 76 1 31 74
M  V30 77 1 31 75
M  V30 78 1 31 76
M  V30 79 1 32 77
M  V30 80 1 34 78
M  V30 81 1 34 79
M  V30 82 1 35 80
M  V30 83 1 35 81
M  V30 84 1 36 82
M  V30 85 1 36 83
M  V30 86 1 37 84
M  V30 87 1 37 85
M  V30 88 1 38 86
M  V30 89 1 39 87
M  V30 90 1 39 88
M  V30 91 1 40 89
M  V30 92 1 40 90
M  V30 93 1 42 91
M  V30 94 1 42 92
M  V30 95 1 43 93
M  V30 96 1 43 94
M  V30 97 1 44 95
M  V30 98 1 44 96
M  V30 99 1 45 97
M  V30 100 1 45 98
M  V30 101 1 46 99
M  V30 102 1 46 100
M  V30 103 1 47 101
M  V30 104 1 47 102
M  V30 105 1 48 103
M  V30 106 1 50 104
M  V30 107 1 50 105
M  V30 108 1 50 106
M  V30 END BOND
M  V30 END CTAB
M  END
