
     RDKit          3D

  0  0  0  0  0  0  0  0  0  0999 V3000
M  V30 BEGIN CTAB
M  V30 COUNTS 62 64 0 0 0
M  V30 BEGIN ATOM
M  V30 1 C -0.349833 -4.51037 0.47092 0
M  V30 2 O -1.13915 -4.3474 -0.630562 0
M  V30 3 C -1.04738 -3.03921 -1.11722 0
M  V30 4 C -1.47709 -2.057 -0.116739 0
M  V30 5 N -1.40431 -0.668497 -0.446935 0
M  V30 6 C -2.42761 0.0850177 -1.09162 0
M  V30 7 C -2.56649 0.0959319 -2.43644 0
M  V30 8 O -1.83272 -0.574124 -3.19198 0
M  V30 9 N -3.54045 0.860537 -3.04373 0
M  V30 10 C -4.33054 1.58433 -2.24244 0
M  V30 11 O -5.2539 2.31763 -2.73637 0
M  V30 12 N -4.24276 1.6172 -0.893893 0
M  V30 13 C -3.27906 0.858929 -0.289743 0
M  V30 14 N -3.11414 0.826547 1.0964 0
M  V30 15 C -5.0928 2.46986 -0.125482 0
M  V30 16 C -6.42154 1.94096 0.267024 0
M  V30 17 C -6.4156 0.691402 1.10641 0
M  V30 18 C -7.20619 2.99168 1.07358 0
M  V30 19 C -0.234137 0.0929244 -0.0726264 0
M  V30 20 O -0.363719 1.36558 -0.279105 0
M  V30 21 C 1.01623 -0.434649 0.480888 0
M  V30 22 S 2.01699 -1.48298 -0.495557 0
M  V30 23 C 3.74865 -1.27285 -0.52256 0
M  V30 24 N 4.5483 -2.0795 -1.29148 0
M  V30 25 N 5.78014 -1.70785 -1.08966 0
M  V30 26 C 5.82497 -0.662181 -0.193653 0
M  V30 27 N 4.5623 -0.430106 0.123053 0
M  V30 28 N 4.09701 0.548986 0.996773 0
M  V30 29 C 7.0605 -0.0487874 0.235426 0
M  V30 30 C 7.14731 0.944117 1.14934 0
M  V30 31 C 8.38164 1.47058 1.51946 0
M  V30 32 C 9.54362 1.00617 0.974687 0
M  V30 33 C 9.48119 -0.00326368 0.0415353 0
M  V30 34 C 8.25731 -0.515119 -0.314829 0
M  V30 35 F 10.5903 -0.521761 -0.5491 0
M  V30 36 H 0.723696 -4.29202 0.292812 0
M  V30 37 H -0.39022 -5.60107 0.74274 0
M  V30 38 H -0.672811 -3.99012 1.38508 0
M  V30 39 H -0.219168 -2.80006 -1.73238 0
M  V30 40 H -1.93274 -3.03515 -1.91761 0
M  V30 41 H -2.52135 -2.28741 0.280111 0
M  V30 42 H -0.861995 -2.15254 0.835902 0
M  V30 43 H -3.65197 0.863457 -4.07243 0
M  V30 44 H -3.41553 0.019203 1.69915 0
M  V30 45 H -2.65932 1.66102 1.56954 0
M  V30 46 H -5.29684 3.44004 -0.680061 0
M  V30 47 H -4.56831 2.79996 0.798708 0
M  V30 48 H -7.06981 1.69437 -0.628639 0
M  V30 49 H -6.01691 0.810503 2.1106 0
M  V30 50 H -7.50747 0.38256 1.16846 0
M  V30 51 H -5.93456 -0.140223 0.54226 0
M  V30 52 H -8.20651 3.11406 0.641628 0
M  V30 53 H -7.23454 2.73467 2.14849 0
M  V30 54 H -6.64898 3.96197 0.916508 0
M  V30 55 H 1.66127 0.532538 0.660928 0
M  V30 56 H 0.893205 -0.762058 1.5576 0
M  V30 57 H 4.07486 1.58163 0.783278 0
M  V30 58 H 3.72068 0.311973 1.96311 0
M  V30 59 H 6.2897 1.36756 1.63422 0
M  V30 60 H 8.42591 2.265 2.25825 0
M  V30 61 H 10.5145 1.41527 1.2634 0
M  V30 62 H 8.18809 -1.30786 -1.04507 0
M  V30 END ATOM
M  V30 BEGIN BOND
M  V30 1 1 1 2
M  V30 2 1 2 3
M  V30 3 1 3 4
M  V30 4 1 4 5
M  V30 5 1 5 6
M  V30 6 1 6 7
M  V30 7 2 7 8
M  V30 8 1 7 9
M  V30 9 1 9 10
M  V30 10 2 10 11
M  V30 11 1 10 12
M  V30 12 1 12 13
M  V30 13 1 13 14
M  V30 14 1 12 15
M  V30 15 1 15 16
M  V30 16 1 16 17
M  V30 17 1 16 18
M  V30 18 1 5 19
M  V30 19 2 19 20
M  V30 20 1 19 21
M  V30 21 1 21 22
M  V30 22 1 22 23
M  V30 23 2 23 24
M  V30 24 1 24 25
M  V30 25 2 25 26
M  V30 26 1 26 27
M  V30 27 1 27 28
M  V30 28 1 26 29
M  V30 29 2 29 30
M  V30 30 1 30 31
M  V30 31 2 31 32
M  V30 32 1 32 33
M  V30 33 2 33 34
M  V30 34 1 33 35
M  V30 35 2 13 6
M  V30 36 1 27 23
M  V30 37 1 34 29
M  V30 38 1 1 36
M  V30 39 1 1 37
M  V30 40 1 1 38
M  V30 41 1 3 39
M  V30 42 1 3 40
M  V30 43 1 4 41
M  V30 44 1 4 42
M  V30 45 1 9 43
M  V30 46 1 14 44
M  V30 47 1 14 45
M  V30 48 1 15 46
M  V30 49 1 15 47
M  V30 50 1 16 48
M  V30 51 1 17 49
M  V30 52 1 17 50
M  V30 53 1 17 51
M  V30 54 1 18 52
M  V30 55 1 18 53
M  V30 56 1 18 54
M  V30 57 1 21 55
M  V30 58 1 21 56
M  V30 59 1 28 57
M  V30 60 1 28 58
M  V30 61 1 30 59
M  V30 62 1 31 60
M  V30 63 1 32 61
M  V30 64 1 34 62
M  V30 END BOND
M  V30 END CTAB
M  END
