
     RDKit          3D

  0  0  0  0  0  0  0  0  0  0999 V3000
M  V30 BEGIN CTAB
M  V30 COUNTS 23 23 0 0 0
M  V30 BEGIN ATOM
M  V30 1 C -2.27848 0.597825 -1.03426 0
M  V30 2 C -1.54274 -0.382093 -0.158964 0
M  V30 3 C -0.0949005 -0.114488 -0.0941876 0
M  V30 4 N 0.766957 -1.13427 -0.106883 0
M  V30 5 C 2.09905 -0.970766 -0.0507409 0
M  V30 6 N 2.97319 -2.09712 -0.0608463 0
M  V30 7 N 2.55006 0.289776 0.0204148 0
M  V30 8 C 1.74665 1.35188 0.0379746 0
M  V30 9 N 0.427315 1.11985 -0.0202988 0
M  V30 10 N 2.23886 2.69218 0.115665 0
M  V30 11 O -1.73671 -1.68827 -0.656935 0
M  V30 12 C -2.08797 -0.333859 1.26144 0
M  V30 13 H -3.22153 0.935428 -0.551552 0
M  V30 14 H -1.60461 1.44116 -1.29102 0
M  V30 15 H -2.53797 0.0815717 -1.98785 0
M  V30 16 H 3.32345 -2.51956 -0.942046 0
M  V30 17 H 3.29782 -2.54653 0.842936 0
M  V30 18 H 3.08707 2.94868 -0.433337 0
M  V30 19 H 1.77413 3.38907 0.709632 0
M  V30 20 H -2.57129 -2.08668 -0.353761 0
M  V30 21 H -1.4057 -0.960869 1.88465 0
M  V30 22 H -3.14193 -0.740052 1.26326 0
M  V30 23 H -2.06072 0.727119 1.6067 0
M  V30 END ATOM
M  V30 BEGIN BOND
M  V30 1 1 1 2
M  V30 2 1 2 3
M  V30 3 2 3 4
M  V30 4 1 4 5
M  V30 5 1 5 6
M  V30 6 2 5 7
M  V30 7 1 7 8
M  V30 8 2 8 9
M  V30 9 1 8 10
M  V30 10 1 2 11
M  V30 11 1 2 12
M  V30 12 1 9 3
M  V30 13 1 1 13
M  V30 14 1 1 14
M  V30 15 1 1 15
M  V30 16 1 6 16
M  V30 17 1 6 17
M  V30 18 1 10 18
M  V30 19 1 10 19
M  V30 20 1 11 20
M  V30 21 1 12 21
M  V30 22 1 12 22
M  V30 23 1 12 23
M  V30 END BOND
M  V30 END CTAB
M  END
