
     RDKit          3D

  0  0  0  0  0  0  0  0  0  0999 V3000
M  V30 BEGIN CTAB
M  V30 COUNTS 46 47 0 0 0
M  V30 BEGIN ATOM
M  V30 1 N 5.41949 -2.57111 -0.270217 0
M  V30 2 C 4.8194 -1.28568 -0.311921 0
M  V30 3 N 3.54927 -1.17323 -0.711501 0
M  V30 4 C 2.91012 0.0225087 -0.776675 0
M  V30 5 C 1.51438 0.140651 -1.2167 0
M  V30 6 N 0.535504 0.0472594 -0.220953 0
M  V30 7 C 0.482582 -1.15455 0.53212 0
M  V30 8 C -0.424828 -1.11012 1.70342 0
M  V30 9 C -1.7967 -0.5942 1.42743 0
M  V30 10 C -1.95113 0.0270491 0.0750516 0
M  V30 11 C -1.3614 1.42161 0.139708 0
M  V30 12 C 0.133826 1.22938 0.433017 0
M  V30 13 C -3.44091 0.121566 -0.269306 0
M  V30 14 C -3.62354 0.748501 -1.63645 0
M  V30 15 C -4.15568 0.998673 0.728429 0
M  V30 16 C -4.03231 -1.26782 -0.259785 0
M  V30 17 N 3.62564 1.0993 -0.415539 0
M  V30 18 C 4.90076 1.03969 -0.00803165 0
M  V30 19 N 5.48708 -0.175851 0.0375937 0
M  V30 20 N 5.6652 2.17449 0.375949 0
M  V30 21 H 5.68389 -3.09585 -1.15045 0
M  V30 22 H 5.62613 -3.05469 0.630618 0
M  V30 23 H 1.34113 -0.684665 -1.96892 0
M  V30 24 H 1.33985 1.07848 -1.80545 0
M  V30 25 H 0.196137 -1.98939 -0.140447 0
M  V30 26 H 1.51294 -1.37624 0.902643 0
M  V30 27 H 0.00736399 -0.563117 2.57836 0
M  V30 28 H -0.544669 -2.17027 2.07643 0
M  V30 29 H -2.10595 0.184816 2.18479 0
M  V30 30 H -2.58794 -1.3911 1.51821 0
M  V30 31 H -1.48723 -0.57816 -0.722315 0
M  V30 32 H -1.78721 1.9384 1.01998 0
M  V30 33 H -1.49345 1.98598 -0.781882 0
M  V30 34 H 0.635723 2.11355 -0.0174508 0
M  V30 35 H 0.308586 1.18098 1.5194 0
M  V30 36 H -3.70301 1.85011 -1.4911 0
M  V30 37 H -4.59312 0.35739 -2.04347 0
M  V30 38 H -2.81329 0.469083 -2.34227 0
M  V30 39 H -5.22808 1.00796 0.444413 0
M  V30 40 H -4.10441 0.603923 1.76567 0
M  V30 41 H -3.79811 2.04242 0.641842 0
M  V30 42 H -4.83974 -1.34525 -1.02343 0
M  V30 43 H -3.2558 -2.00048 -0.568674 0
M  V30 44 H -4.49918 -1.52771 0.715325 0
M  V30 45 H 6.16652 2.70767 -0.372539 0
M  V30 46 H 5.76618 2.51803 1.34493 0
M  V30 END ATOM
M  V30 BEGIN BOND
M  V30 1 1 1 2
M  V30 2 2 2 3
M  V30 3 1 3 4
M  V30 4 1 4 5
M  V30 5 1 5 6
M  V30 6 1 6 7
M  V30 7 1 7 8
M  V30 8 1 8 9
M  V30 9 1 9 10
M  V30 10 1 10 11
M  V30 11 1 11 12
M  V30 12 1 10 13
M  V30 13 1 13 14
M  V30 14 1 13 15
M  V30 15 1 13 16
M  V30 16 2 4 17
M  V30 17 1 17 18
M  V30 18 2 18 19
M  V30 19 1 18 20
M  V30 20 1 19 2
M  V30 21 1 12 6
M  V30 22 1 1 21
M  V30 23 1 1 22
M  V30 24 1 5 23
M  V30 25 1 5 24
M  V30 26 1 7 25
M  V30 27 1 7 26
M  V30 28 1 8 27
M  V30 29 1 8 28
M  V30 30 1 9 29
M  V30 31 1 9 30
M  V30 32 1 10 31
M  V30 33 1 11 32
M  V30 34 1 11 33
M  V30 35 1 12 34
M  V30 36 1 12 35
M  V30 37 1 14 36
M  V30 38 1 14 37
M  V30 39 1 14 38
M  V30 40 1 15 39
M  V30 41 1 15 40
M  V30 42 1 15 41
M  V30 43 1 16 42
M  V30 44 1 16 43
M  V30 45 1 16 44
M  V30 46 1 20 45
M  V30 47 1 20 46
M  V30 END BOND
M  V30 END CTAB
M  END
