
     RDKit          3D

  0  0  0  0  0  0  0  0  0  0999 V3000
M  V30 BEGIN CTAB
M  V30 COUNTS 17 17 0 0 0
M  V30 BEGIN ATOM
M  V30 1 N -3.55685 1.71836 -0.10002 0
M  V30 2 C -2.47743 1.30002 -0.0904157 0
M  V30 3 C -1.1272 0.7696 -0.0578783 0
M  V30 4 C -0.069142 1.6512 -0.141222 0
M  V30 5 C 1.23278 1.1635 -0.111845 0
M  V30 6 F 2.30683 1.99457 -0.191081 0
M  V30 7 C 1.4388 -0.196578 0.000432814 0
M  V30 8 C 0.406155 -1.10088 0.0854555 0
M  V30 9 C -0.897086 -0.593558 0.054446 0
M  V30 10 N -2.0236 -1.4423 0.135635 0
M  V30 11 N 2.78893 -0.665136 0.0277756 0
M  V30 12 H -0.214418 2.7293 -0.230414 0
M  V30 13 H 0.543216 -2.17001 0.173916 0
M  V30 14 H -2.00926 -2.30746 0.700825 0
M  V30 15 H -2.88118 -1.1893 -0.383751 0
M  V30 16 H 3.23233 -0.772456 0.963503 0
M  V30 17 H 3.30714 -0.888857 -0.835363 0
M  V30 END ATOM
M  V30 BEGIN BOND
M  V30 1 3 1 2
M  V30 2 1 2 3
M  V30 3 2 3 4
M  V30 4 1 4 5
M  V30 5 1 5 6
M  V30 6 2 5 7
M  V30 7 1 7 8
M  V30 8 2 8 9
M  V30 9 1 9 10
M  V30 10 1 7 11
M  V30 11 1 9 3
M  V30 12 1 4 12
M  V30 13 1 8 13
M  V30 14 1 10 14
M  V30 15 1 10 15
M  V30 16 1 11 16
M  V30 17 1 11 17
M  V30 END BOND
M  V30 END CTAB
M  END
