
     RDKit          3D

  0  0  0  0  0  0  0  0  0  0999 V3000
M  V30 BEGIN CTAB
M  V30 COUNTS 28 29 0 0 0
M  V30 BEGIN ATOM
M  V30 1 N -3.38535 1.64172 -1.06287 0
M  V30 2 C -3.13617 0.337802 -1.54883 0
M  V30 3 N -3.29599 0.0952895 -2.79288 0
M  V30 4 C -2.6943 -0.739486 -0.629682 0
M  V30 5 N -1.44826 -0.427947 0.0225553 0
M  V30 6 N -0.241142 -0.722589 -0.424425 0
M  V30 7 C 0.700205 -0.293264 0.419184 0
M  V30 8 C 0.0161464 0.318297 1.47667 0
M  V30 9 C -1.32788 0.212985 1.19046 0
M  V30 10 N -2.39115 0.696335 1.98902 0
M  V30 11 C 2.1581 -0.39618 0.336877 0
M  V30 12 C 2.79525 -1.00353 -0.716313 0
M  V30 13 C 4.16836 -1.10483 -0.801764 0
M  V30 14 C 4.94728 -0.571331 0.218713 0
M  V30 15 C 4.29191 0.0369548 1.27231 0
M  V30 16 N 2.94475 0.109358 1.30732 0
M  V30 17 H -4.13162 1.73553 -0.328165 0
M  V30 18 H -2.85003 2.48474 -1.41776 0
M  V30 19 H -3.60582 0.86461 -3.41726 0
M  V30 20 H -2.65988 -1.73067 -1.14927 0
M  V30 21 H -3.53386 -0.857111 0.116354 0
M  V30 22 H 0.476013 0.776126 2.33754 0
M  V30 23 H -2.76756 1.66982 1.94214 0
M  V30 24 H -2.84309 0.0529683 2.67708 0
M  V30 25 H 2.2168 -1.41976 -1.51039 0
M  V30 26 H 4.68644 -1.5804 -1.62507 0
M  V30 27 H 6.02133 -0.636232 0.177817 0
M  V30 28 H 4.88953 0.4508 2.06345 0
M  V30 END ATOM
M  V30 BEGIN BOND
M  V30 1 1 1 2
M  V30 2 2 2 3 CFG=2
M  V30 3 1 2 4
M  V30 4 1 4 5
M  V30 5 1 5 6
M  V30 6 2 6 7
M  V30 7 1 7 8
M  V30 8 2 8 9
M  V30 9 1 9 10
M  V30 10 1 7 11
M  V30 11 2 11 12
M  V30 12 1 12 13
M  V30 13 2 13 14
M  V30 14 1 14 15
M  V30 15 2 15 16
M  V30 16 1 9 5
M  V30 17 1 16 11
M  V30 18 1 1 17
M  V30 19 1 1 18
M  V30 20 1 3 19
M  V30 21 1 4 20
M  V30 22 1 4 21
M  V30 23 1 8 22
M  V30 24 1 10 23
M  V30 25 1 10 24
M  V30 26 1 12 25
M  V30 27 1 13 26
M  V30 28 1 14 27
M  V30 29 1 15 28
M  V30 END BOND
M  V30 END CTAB
M  END
