
     RDKit          3D

  0  0  0  0  0  0  0  0  0  0999 V3000
M  V30 BEGIN CTAB
M  V30 COUNTS 21 22 0 0 0
M  V30 BEGIN ATOM
M  V30 1 N -3.4363 -0.491487 -0.350331 0
M  V30 2 C -2.37889 0.151646 0.31927 0 CFG=2
M  V30 3 C -1.34656 0.834755 -0.554671 0
M  V30 4 C -0.332144 0.445322 0.529109 0 CFG=1
M  V30 5 C -1.24809 -0.750387 0.795676 0
M  V30 6 C 0.98371 0.0675151 0.0190608 0
M  V30 7 O 1.17983 -0.74246 -0.992077 0
M  V30 8 N 2.46041 -0.861508 -1.17995 0
M  V30 9 C 3.15522 -0.121078 -0.283049 0
M  V30 10 N 2.18229 0.465971 0.475854 0
M  V30 11 N 4.56262 0.0199776 -0.15218 0
M  V30 12 H -4.11814 -0.859681 0.300152 0
M  V30 13 H -3.87222 0.0662241 -1.06336 0
M  V30 14 H -2.68766 0.80278 1.15515 0
M  V30 15 H -1.16049 0.359629 -1.52237 0
M  V30 16 H -1.46777 1.95051 -0.605159 0
M  V30 17 H -0.373735 1.12681 1.37603 0
M  V30 18 H -0.98158 -1.55853 0.0703898 0
M  V30 19 H -1.30124 -1.0547 1.84709 0
M  V30 20 H 5.19151 -0.0388742 -0.984796 0
M  V30 21 H 4.98923 0.187563 0.800167 0
M  V30 END ATOM
M  V30 BEGIN BOND
M  V30 1 1 1 2
M  V30 2 1 2 3
M  V30 3 1 3 4
M  V30 4 1 4 5
M  V30 5 1 4 6
M  V30 6 1 6 7
M  V30 7 1 7 8
M  V30 8 2 8 9
M  V30 9 1 9 10
M  V30 10 1 9 11
M  V30 11 1 5 2
M  V30 12 2 10 6
M  V30 13 1 1 12
M  V30 14 1 1 13
M  V30 15 1 2 14 CFG=1
M  V30 16 1 3 15
M  V30 17 1 3 16
M  V30 18 1 4 17 CFG=1
M  V30 19 1 5 18
M  V30 20 1 5 19
M  V30 21 1 11 20
M  V30 22 1 11 21
M  V30 END BOND
M  V30 END CTAB
M  END
