
     RDKit          3D

  0  0  0  0  0  0  0  0  0  0999 V3000
M  V30 BEGIN CTAB
M  V30 COUNTS 15 15 0 0 0
M  V30 BEGIN ATOM
M  V30 1 N 2.18555 -1.02477 -0.175908 0
M  V30 2 C 1.05659 -0.178185 -0.0587509 0
M  V30 3 C 1.14924 1.18493 0.0556051 0
M  V30 4 C -0.00530131 1.94776 0.166513 0
M  V30 5 N -1.19636 1.33275 0.159612 0
M  V30 6 C -1.30469 -0.00893715 0.0477201 0
M  V30 7 N -2.59914 -0.622816 0.0449429 0
M  V30 8 N -0.178432 -0.725348 -0.0580738 0 CHG=1
M  V30 9 O -0.340931 -2.10244 -0.170919 0 CHG=-1
M  V30 10 H 2.95011 -0.890091 -0.859891 0
M  V30 11 H 2.25234 -1.8364 0.46748 0
M  V30 12 H 2.11979 1.62854 0.0562598 0
M  V30 13 H 0.101182 3.03125 0.256156 0
M  V30 14 H -2.82982 -1.43377 -0.593959 0
M  V30 15 H -3.36012 -0.30247 0.663212 0
M  V30 END ATOM
M  V30 BEGIN BOND
M  V30 1 1 1 2
M  V30 2 2 2 3
M  V30 3 1 3 4
M  V30 4 2 4 5
M  V30 5 1 5 6
M  V30 6 1 6 7
M  V30 7 2 6 8
M  V30 8 1 8 9
M  V30 9 1 8 2
M  V30 10 1 1 10
M  V30 11 1 1 11
M  V30 12 1 3 12
M  V30 13 1 4 13
M  V30 14 1 7 14
M  V30 15 1 7 15
M  V30 END BOND
M  V30 END CTAB
M  END
