
     RDKit          3D

  0  0  0  0  0  0  0  0  0  0999 V3000
M  V30 BEGIN CTAB
M  V30 COUNTS 130 132 0 0 0
M  V30 BEGIN ATOM
M  V30 1 C -10.9149 -3.39866 0.109009 0
M  V30 2 N -10.1298 -2.25744 -0.425206 0
M  V30 3 C -8.801 -2.46194 0.0842911 0
M  V30 4 C -7.86072 -1.36881 -0.278571 0
M  V30 5 O -6.69477 -1.46603 0.134146 0
M  V30 6 N -8.29517 -0.279124 -1.04969 0
M  V30 7 C -7.54479 0.844556 -1.46967 0 CFG=1
M  V30 8 C -7.82749 2.1159 -0.773829 0
M  V30 9 C -9.31675 2.44263 -0.992616 0
M  V30 10 C -9.68592 3.73583 -0.310743 0
M  V30 11 N -11.1305 3.90472 -0.58542 0
M  V30 12 C -11.9333 3.54002 0.342264 0
M  V30 13 N -11.4428 3.01635 1.54814 0
M  V30 14 N -13.3256 3.67367 0.0930186 0
M  V30 15 C -6.06304 0.547148 -1.55307 0
M  V30 16 O -5.79213 -0.475608 -2.22997 0
M  V30 17 N -5.19877 1.40467 -0.898552 0
M  V30 18 C -3.79994 1.47777 -0.803206 0 CFG=1
M  V30 19 C -3.32329 2.32104 0.350897 0
M  V30 20 C -3.83352 3.75615 0.210111 0
M  V30 21 C -3.80208 1.74394 1.67365 0
M  V30 22 C -2.96492 0.323774 -1.12358 0
M  V30 23 O -3.17249 -0.372375 -2.13622 0
M  V30 24 N -1.86417 -0.0684214 -0.317279 0
M  V30 25 C -0.929915 -1.12093 -0.529987 0 CFG=1
M  V30 26 C -1.35932 -2.4393 -1.02758 0
M  V30 27 C -2.17563 -3.27003 -0.113201 0
M  V30 28 C -1.55053 -4.40924 0.46364 0
M  V30 29 C -2.18793 -5.21084 1.375 0
M  V30 30 C -3.47026 -4.92607 1.75681 0
M  V30 31 O -4.13269 -5.72536 2.67885 0
M  V30 32 C -4.14061 -3.83612 1.23309 0
M  V30 33 C -3.44772 -3.03679 0.297316 0
M  V30 34 C 0.283503 -0.503393 -1.18552 0
M  V30 35 O -0.017083 0.379583 -2.0363 0
M  V30 36 N 1.57084 -0.937057 -0.80214 0
M  V30 37 C 2.78721 -1.34364 -0.442918 0 CFG=1
M  V30 38 C 3.27136 -2.71188 -0.876586 0
M  V30 39 C 2.38946 -3.82566 -0.312099 0
M  V30 40 C 3.15128 -2.80893 -2.37822 0
M  V30 41 C 3.90525 -0.335061 -0.574723 0
M  V30 42 O 3.81624 0.562143 -1.3999 0
M  V30 43 N 5.01795 -0.453933 0.266591 0
M  V30 44 C 6.16716 0.450895 0.269615 0 CFG=1
M  V30 45 C 5.85255 1.58489 1.27025 0
M  V30 46 C 5.6367 1.00258 2.62912 0
M  V30 47 C 6.55649 0.826761 3.62617 0
M  V30 48 N 6.00843 0.259812 4.69673 0
M  V30 49 C 4.69908 0.0764127 4.35824 0
M  V30 50 N 4.45457 0.514929 3.12001 0
M  V30 51 C 7.39792 -0.239958 0.6689 0
M  V30 52 O 7.27037 -1.44327 1.05893 0
M  V30 53 N 8.67487 0.327076 0.650051 0
M  V30 54 C 9.88109 -0.386288 1.16555 0
M  V30 55 C 10.6434 0.709083 1.89121 0
M  V30 56 C 10.0746 1.98187 1.3714 0
M  V30 57 C 9.26048 1.57195 0.192805 0 CFG=1
M  V30 58 C 10.0509 1.34403 -1.0474 0
M  V30 59 O 9.54818 0.521445 -1.89604 0
M  V30 60 N 11.2769 1.93632 -1.36134 0
M  V30 61 C 11.9853 1.66272 -2.58171 0 CFG=1
M  V30 62 C 12.7992 2.76163 -3.13115 0
M  V30 63 C 12.9414 0.4938 -2.32266 0
M  V30 64 O 13.7852 0.0664736 -3.33948 0
M  V30 65 O 12.9909 -0.0944598 -1.23099 0
M  V30 66 H -11.8707 -3.43605 -0.408022 0
M  V30 67 H -10.2757 -4.27863 0.0338904 0
M  V30 68 H -11.0416 -3.11861 1.19036 0
M  V30 69 H -10.5526 -1.38305 -0.0264014 0
M  V30 70 H -8.83604 -2.4683 1.20245 0
M  V30 71 H -8.42582 -3.44708 -0.311201 0
M  V30 72 H -9.34913 -0.345545 -1.34109 0
M  V30 73 H -7.81133 1.048 -2.59229 0
M  V30 74 H -7.61132 2.15647 0.304545 0
M  V30 75 H -7.26615 2.93525 -1.29877 0
M  V30 76 H -9.97195 1.65059 -0.597431 0
M  V30 77 H -9.50137 2.56997 -2.10152 0
M  V30 78 H -9.13856 4.61065 -0.721751 0
M  V30 79 H -9.48451 3.61664 0.761574 0
M  V30 80 H -11.0609 3.60728 2.32716 0
M  V30 81 H -11.4204 1.99289 1.76178 0
M  V30 82 H -13.8004 4.58328 0.0351704 0
M  V30 83 H -13.884 2.79898 -0.0317074 0
M  V30 84 H -5.69577 2.22199 -0.30371 0
M  V30 85 H -3.56946 2.21642 -1.72967 0
M  V30 86 H -2.23033 2.40171 0.375839 0
M  V30 87 H -4.83206 3.78111 0.643598 0
M  V30 88 H -3.75108 4.01567 -0.850022 0
M  V30 89 H -3.12897 4.3831 0.813637 0
M  V30 90 H -3.00907 1.81662 2.43588 0
M  V30 91 H -4.69824 2.30891 1.9562 0
M  V30 92 H -4.03105 0.663562 1.53343 0
M  V30 93 H -1.73656 0.51558 0.571651 0
M  V30 94 H -0.58845 -1.38269 0.566592 0
M  V30 95 H -0.45694 -3.04918 -1.33586 0
M  V30 96 H -1.9788 -2.37068 -1.99185 0
M  V30 97 H -0.550838 -4.61888 0.143213 0
M  V30 98 H -1.67119 -6.0858 1.79902 0
M  V30 99 H -4.05199 -5.4911 3.67083 0
M  V30 100 H -5.14898 -3.58033 1.49356 0
M  V30 101 H -3.98637 -2.19426 -0.11644 0
M  V30 102 H 2.07876 -0.138206 -1.77292 0
M  V30 103 H 2.82238 -1.47258 0.75873 0
M  V30 104 H 4.31501 -2.88955 -0.580031 0
M  V30 105 H 1.93311 -3.55541 0.659659 0
M  V30 106 H 3.07733 -4.71285 -0.187178 0
M  V30 107 H 1.64823 -4.1476 -1.07472 0
M  V30 108 H 4.14222 -3.12967 -2.7829 0
M  V30 109 H 2.91956 -1.80729 -2.79502 0
M  V30 110 H 2.40066 -3.5686 -2.7147 0
M  V30 111 H 5.0376 -1.25908 0.958086 0
M  V30 112 H 6.24545 0.934544 -0.691894 0
M  V30 113 H 6.68815 2.27696 1.34939 0
M  V30 114 H 4.95391 2.14279 1.00094 0
M  V30 115 H 7.6158 1.09923 3.60587 0
M  V30 116 H 3.97299 -0.371473 5.04458 0
M  V30 117 H 3.54787 0.489403 2.63465 0
M  V30 118 H 10.4688 -0.823421 0.383973 0
M  V30 119 H 9.61593 -1.13173 1.91567 0
M  V30 120 H 11.7368 0.629475 1.77551 0
M  V30 121 H 10.4598 0.670005 3.00518 0
M  V30 122 H 10.8162 2.76926 1.15542 0
M  V30 123 H 9.34734 2.43185 2.12354 0
M  V30 124 H 8.53544 2.36715 -0.0395641 0
M  V30 125 H 11.7043 2.60195 -0.688893 0
M  V30 126 H 11.2899 1.20066 -3.34925 0
M  V30 127 H 12.1895 3.60476 -3.47264 0
M  V30 128 H 13.4552 2.32477 -3.92792 0
M  V30 129 H 13.5119 3.09014 -2.32102 0
M  V30 130 H 13.8693 -0.945948 -3.46179 0
M  V30 END ATOM
M  V30 BEGIN BOND
M  V30 1 1 1 2
M  V30 2 1 2 3
M  V30 3 1 3 4
M  V30 4 2 4 5
M  V30 5 1 4 6
M  V30 6 1 6 7
M  V30 7 1 7 8
M  V30 8 1 8 9
M  V30 9 1 9 10
M  V30 10 1 10 11
M  V30 11 2 11 12
M  V30 12 1 12 13
M  V30 13 1 12 14
M  V30 14 1 7 15
M  V30 15 2 15 16
M  V30 16 1 15 17
M  V30 17 1 17 18
M  V30 18 1 18 19
M  V30 19 1 19 20
M  V30 20 1 19 21
M  V30 21 1 18 22
M  V30 22 2 22 23
M  V30 23 1 22 24
M  V30 24 1 24 25
M  V30 25 1 25 26
M  V30 26 1 26 27
M  V30 27 2 27 28
M  V30 28 1 28 29
M  V30 29 2 29 30
M  V30 30 1 30 31
M  V30 31 1 30 32
M  V30 32 2 32 33
M  V30 33 1 25 34
M  V30 34 2 34 35
M  V30 35 1 34 36
M  V30 36 1 36 37
M  V30 37 1 37 38
M  V30 38 1 38 39
M  V30 39 1 38 40
M  V30 40 1 37 41
M  V30 41 2 41 42
M  V30 42 1 41 43
M  V30 43 1 43 44
M  V30 44 1 44 45
M  V30 45 1 45 46
M  V30 46 2 46 47
M  V30 47 1 47 48
M  V30 48 2 48 49
M  V30 49 1 49 50
M  V30 50 1 44 51
M  V30 51 2 51 52
M  V30 52 1 51 53
M  V30 53 1 53 54
M  V30 54 1 54 55
M  V30 55 1 55 56
M  V30 56 1 56 57
M  V30 57 1 57 58
M  V30 58 2 58 59
M  V30 59 1 58 60
M  V30 60 1 60 61
M  V30 61 1 61 62
M  V30 62 1 61 63
M  V30 63 1 63 64
M  V30 64 2 63 65
M  V30 65 1 33 27
M  V30 66 1 50 46
M  V30 67 1 57 53
M  V30 68 1 1 66
M  V30 69 1 1 67
M  V30 70 1 1 68
M  V30 71 1 2 69
M  V30 72 1 3 70
M  V30 73 1 3 71
M  V30 74 1 6 72
M  V30 75 1 7 73 CFG=3
M  V30 76 1 8 74
M  V30 77 1 8 75
M  V30 78 1 9 76
M  V30 79 1 9 77
M  V30 80 1 10 78
M  V30 81 1 10 79
M  V30 82 1 13 80
M  V30 83 1 13 81
M  V30 84 1 14 82
M  V30 85 1 14 83
M  V30 86 1 17 84
M  V30 87 1 18 85 CFG=3
M  V30 88 1 19 86
M  V30 89 1 20 87
M  V30 90 1 20 88
M  V30 91 1 20 89
M  V30 92 1 21 90
M  V30 93 1 21 91
M  V30 94 1 21 92
M  V30 95 1 24 93
M  V30 96 1 25 94 CFG=1
M  V30 97 1 26 95
M  V30 98 1 26 96
M  V30 99 1 28 97
M  V30 100 1 29 98
M  V30 101 1 31 99
M  V30 102 1 32 100
M  V30 103 1 33 101
M  V30 104 1 36 102
M  V30 105 1 37 103 CFG=1
M  V30 106 1 38 104
M  V30 107 1 39 105
M  V30 108 1 39 106
M  V30 109 1 39 107
M  V30 110 1 40 108
M  V30 111 1 40 109
M  V30 112 1 40 110
M  V30 113 1 43 111
M  V30 114 1 44 112 CFG=3
M  V30 115 1 45 113
M  V30 116 1 45 114
M  V30 117 1 47 115
M  V30 118 1 49 116
M  V30 119 1 50 117
M  V30 120 1 54 118
M  V30 121 1 54 119
M  V30 122 1 55 120
M  V30 123 1 55 121
M  V30 124 1 56 122
M  V30 125 1 56 123
M  V30 126 1 57 124 CFG=3
M  V30 127 1 60 125
M  V30 128 1 61 126 CFG=3
M  V30 129 1 62 127
M  V30 130 1 62 128
M  V30 131 1 62 129
M  V30 132 1 64 130
M  V30 END BOND
M  V30 END CTAB
M  END
