
     RDKit          3D

  0  0  0  0  0  0  0  0  0  0999 V3000
M  V30 BEGIN CTAB
M  V30 COUNTS 19 18 0 0 0
M  V30 BEGIN ATOM
M  V30 1 C -1.51608 -0.418693 1.17281 0
M  V30 2 C -1.40977 -0.314341 -0.298411 0
M  V30 3 C -0.369143 0.634347 -0.819927 0 CFG=1
M  V30 4 C 1.00455 0.335076 -0.423941 0
M  V30 5 O 1.835 0.0589246 -1.3377 0
M  V30 6 N 1.48728 0.328323 0.903006 0
M  V30 7 N 2.82589 0.0251568 1.15588 0
M  V30 8 N -0.473655 0.585125 -2.26597 0
M  V30 9 H -1.48287 0.555044 1.6671 0
M  V30 10 H -2.5276 -0.846002 1.41044 0
M  V30 11 H -0.800113 -1.13349 1.64512 0
M  V30 12 H -1.26843 -1.3175 -0.763796 0
M  V30 13 H -2.39231 0.0492803 -0.693269 0
M  V30 14 H -0.593384 1.67825 -0.524792 0
M  V30 15 H 0.91091 0.539624 1.75007 0
M  V30 16 H 2.973 -0.371156 2.10351 0
M  V30 17 H 3.26854 -0.51521 0.396926 0
M  V30 18 H -1.4816 0.441475 -2.52002 0
M  V30 19 H 0.00977962 -0.314233 -2.55702 0
M  V30 END ATOM
M  V30 BEGIN BOND
M  V30 1 1 1 2
M  V30 2 1 2 3
M  V30 3 1 3 4
M  V30 4 2 4 5
M  V30 5 1 4 6
M  V30 6 1 6 7
M  V30 7 1 3 8
M  V30 8 1 1 9
M  V30 9 1 1 10
M  V30 10 1 1 11
M  V30 11 1 2 12
M  V30 12 1 2 13
M  V30 13 1 3 14 CFG=1
M  V30 14 1 6 15
M  V30 15 1 7 16
M  V30 16 1 7 17
M  V30 17 1 8 18
M  V30 18 1 8 19
M  V30 END BOND
M  V30 END CTAB
M  END
