
     RDKit          3D

  0  0  0  0  0  0  0  0  0  0999 V3000
M  V30 BEGIN CTAB
M  V30 COUNTS 21 22 0 0 0
M  V30 BEGIN ATOM
M  V30 1 N -3.13825 0.8159 -0.167961 0
M  V30 2 C -1.71924 0.893697 -0.152579 0
M  V30 3 C -1.02593 2.057 -0.294684 0
M  V30 4 N 0.31876 2.05499 -0.270054 0
M  V30 5 C 1.01079 0.913233 -0.105723 0
M  V30 6 C 0.382825 -0.322001 0.0471256 0
M  V30 7 C -1.00368 -0.296994 0.018686 0
M  V30 8 N -1.73624 -1.49756 0.16503 0
M  V30 9 C 1.12044 -1.47535 0.213838 0
M  V30 10 Cl 0.255239 -2.98634 0.399062 0
M  V30 11 C 2.51535 -1.44702 0.235351 0
M  V30 12 C 3.11326 -0.222263 0.0833523 0
M  V30 13 C 2.38531 0.945891 -0.0851503 0
M  V30 14 Cl 3.2784 2.44948 -0.268835 0
M  V30 15 H -3.63966 1.16294 0.678586 0
M  V30 16 H -3.70412 0.444979 -0.947283 0
M  V30 17 H -1.60901 2.97942 -0.427885 0
M  V30 18 H -1.98339 -2.04774 -0.687537 0
M  V30 19 H -2.04315 -1.84839 1.09883 0
M  V30 20 H 3.02567 -2.38899 0.369834 0
M  V30 21 H 4.19661 -0.184882 0.0979971 0
M  V30 END ATOM
M  V30 BEGIN BOND
M  V30 1 1 1 2
M  V30 2 2 2 3
M  V30 3 1 3 4
M  V30 4 2 4 5
M  V30 5 1 5 6
M  V30 6 2 6 7
M  V30 7 1 7 8
M  V30 8 1 6 9
M  V30 9 1 9 10
M  V30 10 2 9 11
M  V30 11 1 11 12
M  V30 12 2 12 13
M  V30 13 1 13 14
M  V30 14 1 7 2
M  V30 15 1 13 5
M  V30 16 1 1 15
M  V30 17 1 1 16
M  V30 18 1 3 17
M  V30 19 1 8 18
M  V30 20 1 8 19
M  V30 21 1 11 20
M  V30 22 1 12 21
M  V30 END BOND
M  V30 END CTAB
M  END
