
     RDKit          3D

  0  0  0  0  0  0  0  0  0  0999 V3000
M  V30 BEGIN CTAB
M  V30 COUNTS 15 15 0 0 0
M  V30 BEGIN ATOM
M  V30 1 N -1.82277 1.10447 -0.024044 0
M  V30 2 C -0.523655 0.518887 -0.0271941 0
M  V30 3 C 0.617476 1.28801 -0.135646 0
M  V30 4 C 1.88473 0.718409 -0.138825 0
M  V30 5 C 2.02533 -0.649858 -0.0316954 0
M  V30 6 I 3.94989 -1.54889 -0.033714 0
M  V30 7 N 0.913019 -1.39847 0.0739222 0
M  V30 8 C -0.33536 -0.849582 0.0780646 0
M  V30 9 N -1.50183 -1.64543 0.189697 0
M  V30 10 H -2.30327 1.39754 -0.894552 0
M  V30 11 H -2.32535 1.25025 0.897699 0
M  V30 12 H 0.511078 2.36863 -0.220424 0
M  V30 13 H 2.76205 1.33237 -0.224057 0
M  V30 14 H -1.63726 -2.21386 1.04386 0
M  V30 15 H -2.21406 -1.67248 -0.553087 0
M  V30 END ATOM
M  V30 BEGIN BOND
M  V30 1 1 1 2
M  V30 2 2 2 3
M  V30 3 1 3 4
M  V30 4 2 4 5
M  V30 5 1 5 6
M  V30 6 1 5 7
M  V30 7 2 7 8
M  V30 8 1 8 9
M  V30 9 1 8 2
M  V30 10 1 1 10
M  V30 11 1 1 11
M  V30 12 1 3 12
M  V30 13 1 4 13
M  V30 14 1 9 14
M  V30 15 1 9 15
M  V30 END BOND
M  V30 END CTAB
M  END
