
     RDKit          3D

  0  0  0  0  0  0  0  0  0  0999 V3000
M  V30 BEGIN CTAB
M  V30 COUNTS 14 14 0 0 0
M  V30 BEGIN ATOM
M  V30 1 N -2.22229 0.527882 -1.09053 0
M  V30 2 C -1.80499 0.218711 0.251066 0
M  V30 3 C -0.416904 -0.347615 0.190402 0
M  V30 4 N -0.0336031 -1.61624 0.103089 0
M  V30 5 N 1.28748 -1.61495 0.0793734 0
M  V30 6 C 1.74935 -0.353284 0.151024 0
M  V30 7 O 0.667744 0.381405 0.217073 0
M  V30 8 N 3.09699 0.10339 0.155696 0
M  V30 9 H -2.26725 1.52828 -1.31061 0
M  V30 10 H -2.98483 -0.0552343 -1.45093 0
M  V30 11 H -1.73204 1.17032 0.812202 0
M  V30 12 H -2.49608 -0.482244 0.7588 0
M  V30 13 H 3.70323 -0.0623239 0.986223 0
M  V30 14 H 3.45319 0.601911 -0.686373 0
M  V30 END ATOM
M  V30 BEGIN BOND
M  V30 1 1 1 2
M  V30 2 1 2 3
M  V30 3 2 3 4
M  V30 4 1 4 5
M  V30 5 2 5 6
M  V30 6 1 6 7
M  V30 7 1 6 8
M  V30 8 1 7 3
M  V30 9 1 1 9
M  V30 10 1 1 10
M  V30 11 1 2 11
M  V30 12 1 2 12
M  V30 13 1 8 13
M  V30 14 1 8 14
M  V30 END BOND
M  V30 END CTAB
M  END
