
     RDKit          3D

  0  0  0  0  0  0  0  0  0  0999 V3000
M  V30 BEGIN CTAB
M  V30 COUNTS 26 28 0 0 0
M  V30 BEGIN ATOM
M  V30 1 N 4.61429 -0.780616 0.201731 0
M  V30 2 C 3.21099 -0.513915 0.135542 0
M  V30 3 N 2.31341 -1.50684 0.251088 0
M  V30 4 C 0.987727 -1.3022 0.194957 0
M  V30 5 C 0.494629 0.0113471 0.00615245 0
M  V30 6 C 1.39529 1.01221 -0.110404 0
M  V30 7 N 1.09714 2.37027 -0.301092 0
M  V30 8 N 2.74122 0.708385 -0.0403787 0
M  V30 9 C -0.870473 0.245183 -0.054776 0
M  V30 10 C -1.37457 1.50181 -0.23608 0
M  V30 11 C -2.75804 1.6621 -0.287416 0
M  V30 12 C -3.60354 0.589068 -0.159881 0
M  V30 13 Cl -5.34395 0.760263 -0.220317 0
M  V30 14 C -3.08474 -0.654701 0.019993 0
M  V30 15 C -1.71028 -0.854453 0.0764891 0
M  V30 16 C -1.24207 -2.13457 0.260225 0
M  V30 17 C 0.100146 -2.33476 0.316103 0
M  V30 18 H 5.17772 -0.63628 -0.637211 0
M  V30 19 H 5.01915 -1.10696 1.0794 0
M  V30 20 H 1.01603 2.83336 -1.23963 0
M  V30 21 H 0.993785 2.97629 0.569998 0
M  V30 22 H -0.823468 2.35627 -0.340244 0
M  V30 23 H -3.20075 2.62945 -0.428156 0
M  V30 24 H -3.71999 -1.5239 0.124363 0
M  V30 25 H -1.93772 -2.97775 0.359769 0
M  V30 26 H 0.508093 -3.32907 0.459767 0
M  V30 END ATOM
M  V30 BEGIN BOND
M  V30 1 1 1 2
M  V30 2 2 2 3
M  V30 3 1 3 4
M  V30 4 2 4 5
M  V30 5 1 5 6
M  V30 6 1 6 7
M  V30 7 2 6 8
M  V30 8 1 5 9
M  V30 9 2 9 10
M  V30 10 1 10 11
M  V30 11 2 11 12
M  V30 12 1 12 13
M  V30 13 1 12 14
M  V30 14 2 14 15
M  V30 15 1 15 16
M  V30 16 2 16 17
M  V30 17 1 8 2
M  V30 18 1 15 9
M  V30 19 1 17 4
M  V30 20 1 1 18
M  V30 21 1 1 19
M  V30 22 1 7 20
M  V30 23 1 7 21
M  V30 24 1 10 22
M  V30 25 1 11 23
M  V30 26 1 14 24
M  V30 27 1 16 25
M  V30 28 1 17 26
M  V30 END BOND
M  V30 END CTAB
M  END
