
     RDKit          3D

  0  0  0  0  0  0  0  0  0  0999 V3000
M  V30 BEGIN CTAB
M  V30 COUNTS 25 24 0 0 0
M  V30 BEGIN ATOM
M  V30 1 N 1.7856 1.26957 0.12921 0
M  V30 2 C 2.14935 -0.0816988 0.407979 0
M  V30 3 C 3.62246 -0.203804 0.240128 0
M  V30 4 O 4.1446 -1.33334 0.444131 0
M  V30 5 O 4.44619 0.831206 -0.121264 0
M  V30 6 C 1.505 -1.09658 -0.479769 0
M  V30 7 C 0.00238978 -1.09724 -0.415647 0
M  V30 8 S -0.706465 0.491516 -0.90042 0
M  V30 9 C -2.49432 0.421372 -0.803153 0
M  V30 10 C -2.94407 0.254894 0.642302 0
M  V30 11 N -4.38869 0.198508 0.715529 0
M  V30 12 H 2.09089 1.86926 0.925493 0
M  V30 13 H 2.16494 1.66562 -0.738498 0
M  V30 14 H 1.85888 -0.311338 1.45345 0
M  V30 15 H 4.20286 1.64046 -0.640114 0
M  V30 16 H 1.8532 -0.987722 -1.50063 0
M  V30 17 H 1.83344 -2.1056 -0.109257 0
M  V30 18 H -0.386223 -1.43613 0.561892 0
M  V30 19 H -0.350536 -1.85028 -1.16103 0
M  V30 20 H -2.83336 -0.481649 -1.35034 0
M  V30 21 H -2.90598 1.32114 -1.25818 0
M  V30 22 H -2.61865 1.17567 1.1746 0
M  V30 23 H -2.48619 -0.621689 1.10376 0
M  V30 24 H -4.80476 1.06162 0.312703 0
M  V30 25 H -4.74054 -0.593763 0.136328 0
M  V30 END ATOM
M  V30 BEGIN BOND
M  V30 1 1 1 2
M  V30 2 1 2 3
M  V30 3 2 3 4
M  V30 4 1 3 5
M  V30 5 1 2 6
M  V30 6 1 6 7
M  V30 7 1 7 8
M  V30 8 1 8 9
M  V30 9 1 9 10
M  V30 10 1 10 11
M  V30 11 1 1 12
M  V30 12 1 1 13
M  V30 13 1 2 14
M  V30 14 1 5 15
M  V30 15 1 6 16
M  V30 16 1 6 17
M  V30 17 1 7 18
M  V30 18 1 7 19
M  V30 19 1 9 20
M  V30 20 1 9 21
M  V30 21 1 10 22
M  V30 22 1 10 23
M  V30 23 1 11 24
M  V30 24 1 11 25
M  V30 END BOND
M  V30 END CTAB
M  END
