
     RDKit          3D

  0  0  0  0  0  0  0  0  0  0999 V3000
M  V30 BEGIN CTAB
M  V30 COUNTS 57 59 0 0 0
M  V30 BEGIN ATOM
M  V30 1 C -1.98945 2.87913 -2.38266 0
M  V30 2 C -0.539137 2.52912 -2.2865 0
M  V30 3 O -0.235891 1.21023 -2.02255 0
M  V30 4 C -0.566753 0.436917 -0.932141 0
M  V30 5 C -1.29892 0.913842 0.12937 0
M  V30 6 C -1.63862 0.149189 1.23031 0
M  V30 7 N -2.38406 0.650744 2.30928 0
M  V30 8 C -2.91494 1.90889 2.51602 0
M  V30 9 O -2.81588 2.86387 1.73434 0
M  V30 10 C -3.67468 2.19375 3.75746 0
M  V30 11 C -3.94395 1.35799 4.80089 0
M  V30 12 C -4.65574 1.84629 5.82643 0
M  V30 13 C -5.05956 3.15151 5.74726 0
M  V30 14 S -4.43099 3.65292 4.24232 0
M  V30 15 C -1.22225 -1.19362 1.28877 0
M  V30 16 C -0.490796 -1.66976 0.229356 0
M  V30 17 C -0.152477 -0.903398 -0.870379 0
M  V30 18 N 0.609779 -1.37049 -1.95267 0
M  V30 19 C 1.10308 -2.66875 -2.20339 0
M  V30 20 O 0.929993 -3.66297 -1.47633 0
M  V30 21 C 1.92272 -2.93457 -3.45372 0
M  V30 22 S 3.68216 -2.92057 -3.07221 0
M  V30 23 C 4.22811 -1.31947 -2.498 0
M  V30 24 N 4.20274 -1.02367 -1.1631 0
M  V30 25 C 4.60027 0.16455 -0.685412 0
M  V30 26 N 4.55316 0.416939 0.719332 0
M  V30 27 C 5.04978 1.12894 -1.53928 0
M  V30 28 C 5.08615 0.856952 -2.89721 0
M  V30 29 N 4.67326 -0.356886 -3.3184 0
M  V30 30 N 5.55033 1.84945 -3.80046 0
M  V30 31 O -1.56321 -1.94905 2.38908 0
M  V30 32 C -1.25636 -3.27807 2.63585 0
M  V30 33 C -1.78101 -4.27574 1.65847 0
M  V30 34 H -2.3315 3.59119 -1.61112 0
M  V30 35 H -2.27686 3.30704 -3.36912 0
M  V30 36 H -2.64769 1.96997 -2.26753 0
M  V30 37 H -0.0473576 3.16093 -1.5189 0
M  V30 38 H -0.0705406 2.78402 -3.2854 0
M  V30 39 H -1.60138 1.96363 0.0519608 0
M  V30 40 H -2.57299 -0.0556723 3.10028 0
M  V30 41 H -3.5724 0.310958 4.77651 0
M  V30 42 H -4.92987 1.24565 6.73017 0
M  V30 43 H -5.64921 3.71173 6.4977 0
M  V30 44 H -0.173656 -2.70438 0.297036 0
M  V30 45 H 0.874916 -0.662788 -2.71632 0
M  V30 46 H 1.63726 -2.21514 -4.23428 0
M  V30 47 H 1.62902 -3.94248 -3.79624 0
M  V30 48 H 3.85166 1.08256 1.14028 0
M  V30 49 H 5.19875 -0.0359889 1.39791 0
M  V30 50 H 5.36966 2.08362 -1.1493 0
M  V30 51 H 6.42794 2.35292 -3.66462 0
M  V30 52 H 4.96278 2.06328 -4.63077 0
M  V30 53 H -1.64149 -3.54024 3.64737 0
M  V30 54 H -0.130191 -3.39042 2.61976 0
M  V30 55 H -2.5928 -4.90093 2.12997 0
M  V30 56 H -2.26877 -3.8137 0.770374 0
M  V30 57 H -1.02213 -4.99994 1.29119 0
M  V30 END ATOM
M  V30 BEGIN BOND
M  V30 1 1 1 2
M  V30 2 1 2 3
M  V30 3 1 3 4
M  V30 4 2 4 5
M  V30 5 1 5 6
M  V30 6 1 6 7
M  V30 7 1 7 8
M  V30 8 2 8 9
M  V30 9 1 8 10
M  V30 10 2 10 11
M  V30 11 1 11 12
M  V30 12 2 12 13
M  V30 13 1 13 14
M  V30 14 2 6 15
M  V30 15 1 15 16
M  V30 16 2 16 17
M  V30 17 1 17 18
M  V30 18 1 18 19
M  V30 19 2 19 20
M  V30 20 1 19 21
M  V30 21 1 21 22
M  V30 22 1 22 23
M  V30 23 2 23 24
M  V30 24 1 24 25
M  V30 25 1 25 26
M  V30 26 2 25 27
M  V30 27 1 27 28
M  V30 28 2 28 29
M  V30 29 1 28 30
M  V30 30 1 15 31
M  V30 31 1 31 32
M  V30 32 1 32 33
M  V30 33 1 17 4
M  V30 34 1 29 23
M  V30 35 1 14 10
M  V30 36 1 1 34
M  V30 37 1 1 35
M  V30 38 1 1 36
M  V30 39 1 2 37
M  V30 40 1 2 38
M  V30 41 1 5 39
M  V30 42 1 7 40
M  V30 43 1 11 41
M  V30 44 1 12 42
M  V30 45 1 13 43
M  V30 46 1 16 44
M  V30 47 1 18 45
M  V30 48 1 21 46
M  V30 49 1 21 47
M  V30 50 1 26 48
M  V30 51 1 26 49
M  V30 52 1 27 50
M  V30 53 1 30 51
M  V30 54 1 30 52
M  V30 55 1 32 53
M  V30 56 1 32 54
M  V30 57 1 33 55
M  V30 58 1 33 56
M  V30 59 1 33 57
M  V30 END BOND
M  V30 END CTAB
M  END
