
     RDKit          3D

  0  0  0  0  0  0  0  0  0  0999 V3000
M  V30 BEGIN CTAB
M  V30 COUNTS 39 40 0 0 0
M  V30 BEGIN ATOM
M  V30 1 N -4.28127 2.10164 -0.235115 0
M  V30 2 C -4.38188 0.88769 0.485612 0
M  V30 3 C -3.56159 -0.203723 -0.109042 0
M  V30 4 N -2.12641 0.0912115 -0.132343 0
M  V30 5 C -1.66742 0.0516619 1.23271 0
M  V30 6 C -0.157646 0.223108 1.21759 0
M  V30 7 C 0.442056 -1.15855 1.07572 0
M  V30 8 C 0.896965 -1.30406 -0.340024 0 CFG=1
M  V30 9 C -0.0839322 -0.669963 -1.31809 0
M  V30 10 C -1.50389 -0.931164 -0.910851 0
M  V30 11 C 2.24901 -0.724724 -0.508388 0
M  V30 12 C 3.18915 -1.30512 -1.32886 0
M  V30 13 C 4.43223 -0.72305 -1.41385 0
M  V30 14 C 4.72403 0.41025 -0.693739 0
M  V30 15 C 3.76749 0.990069 0.133456 0
M  V30 16 N 2.56852 0.397699 0.191065 0
M  V30 17 N 4.07065 2.16148 0.885872 0
M  V30 18 H -3.38034 2.37475 -0.430358 0
M  V30 19 H -5.03972 2.3808 -0.776162 0
M  V30 20 H -5.43682 0.57298 0.544208 0
M  V30 21 H -4.07028 1.14856 1.52974 0
M  V30 22 H -3.71405 -1.1882 0.398084 0
M  V30 23 H -3.85605 -0.340465 -1.15715 0
M  V30 24 H -2.09278 0.833387 1.8809 0
M  V30 25 H -1.92158 -0.94184 1.68404 0
M  V30 26 H 0.178604 0.685582 2.17596 0
M  V30 27 H 0.105621 0.910305 0.406282 0
M  V30 28 H -0.295758 -1.93995 1.3781 0
M  V30 29 H 1.33829 -1.20345 1.74291 0
M  V30 30 H 0.933901 -2.39973 -0.594245 0
M  V30 31 H 0.0745774 -1.21193 -2.28598 0
M  V30 32 H 0.155767 0.381937 -1.54609 0
M  V30 33 H -2.12712 -1.03242 -1.84885 0
M  V30 34 H -1.54454 -1.91117 -0.399708 0
M  V30 35 H 2.91383 -2.20428 -1.88345 0
M  V30 36 H 5.18686 -1.17743 -2.06538 0
M  V30 37 H 5.69006 0.853468 -0.761203 0
M  V30 38 H 4.58856 2.9361 0.477141 0
M  V30 39 H 3.73691 2.17853 1.86201 0
M  V30 END ATOM
M  V30 BEGIN BOND
M  V30 1 1 1 2
M  V30 2 1 2 3
M  V30 3 1 3 4
M  V30 4 1 4 5
M  V30 5 1 5 6
M  V30 6 1 6 7
M  V30 7 1 7 8
M  V30 8 1 8 9
M  V30 9 1 9 10
M  V30 10 1 8 11
M  V30 11 2 11 12
M  V30 12 1 12 13
M  V30 13 2 13 14
M  V30 14 1 14 15
M  V30 15 2 15 16
M  V30 16 1 15 17
M  V30 17 1 10 4
M  V30 18 1 16 11
M  V30 19 1 1 18
M  V30 20 1 1 19
M  V30 21 1 2 20
M  V30 22 1 2 21
M  V30 23 1 3 22
M  V30 24 1 3 23
M  V30 25 1 5 24
M  V30 26 1 5 25
M  V30 27 1 6 26
M  V30 28 1 6 27
M  V30 29 1 7 28
M  V30 30 1 7 29
M  V30 31 1 8 30 CFG=3
M  V30 32 1 9 31
M  V30 33 1 9 32
M  V30 34 1 10 33
M  V30 35 1 10 34
M  V30 36 1 12 35
M  V30 37 1 13 36
M  V30 38 1 14 37
M  V30 39 1 17 38
M  V30 40 1 17 39
M  V30 END BOND
M  V30 END CTAB
M  END
