
     RDKit          3D

  0  0  0  0  0  0  0  0  0  0999 V3000
M  V30 BEGIN CTAB
M  V30 COUNTS 30 30 0 0 0
M  V30 BEGIN ATOM
M  V30 1 C 3.88946 -2.01948 0.216876 0
M  V30 2 N 2.45424 -1.83508 0.15094 0
M  V30 3 C 1.89925 -0.524199 0.0159834 0
M  V30 4 N 0.591397 -0.322535 -0.0470931 0
M  V30 5 C 0.00895422 0.877521 -0.173149 0
M  V30 6 N 0.827473 1.94069 -0.23862 0
M  V30 7 C 2.17471 1.79651 -0.179252 0
M  V30 8 N 2.70327 0.560062 -0.0518539 0
M  V30 9 N 2.98489 2.95107 -0.253093 0
M  V30 10 C -1.43172 1.12497 -0.244881 0
M  V30 11 C -2.27677 -0.110285 -0.165219 0
M  V30 12 N -1.93005 -0.970275 -1.26342 0
M  V30 13 C -3.73283 0.338828 -0.340125 0
M  V30 14 C -2.18845 -0.836945 1.12645 0
M  V30 15 H 4.29246 -2.38811 -0.751817 0
M  V30 16 H 4.40219 -1.09284 0.547265 0
M  V30 17 H 4.09136 -2.77208 1.01803 0
M  V30 18 H 1.79902 -2.644 0.199774 0
M  V30 19 H 3.37096 3.34317 0.622261 0
M  V30 20 H 3.20607 3.4181 -1.14772 0
M  V30 21 H -1.71444 1.69787 -1.15247 0
M  V30 22 H -1.71662 1.785 0.61699 0
M  V30 23 H -2.4727 -0.621161 -2.10321 0
M  V30 24 H -2.23389 -1.94369 -1.05774 0
M  V30 25 H -4.18744 0.556269 0.665284 0
M  V30 26 H -4.33699 -0.408641 -0.861385 0
M  V30 27 H -3.78881 1.28052 -0.914753 0
M  V30 28 H -3.12425 -1.46098 1.22638 0
M  V30 29 H -2.21243 -0.154408 2.00556 0
M  V30 30 H -1.3483 -1.5659 1.18356 0
M  V30 END ATOM
M  V30 BEGIN BOND
M  V30 1 1 1 2
M  V30 2 1 2 3
M  V30 3 2 3 4
M  V30 4 1 4 5
M  V30 5 2 5 6
M  V30 6 1 6 7
M  V30 7 2 7 8
M  V30 8 1 7 9
M  V30 9 1 5 10
M  V30 10 1 10 11
M  V30 11 1 11 12
M  V30 12 1 11 13
M  V30 13 1 11 14
M  V30 14 1 8 3
M  V30 15 1 1 15
M  V30 16 1 1 16
M  V30 17 1 1 17
M  V30 18 1 2 18
M  V30 19 1 9 19
M  V30 20 1 9 20
M  V30 21 1 10 21
M  V30 22 1 10 22
M  V30 23 1 12 23
M  V30 24 1 12 24
M  V30 25 1 13 25
M  V30 26 1 13 26
M  V30 27 1 13 27
M  V30 28 1 14 28
M  V30 29 1 14 29
M  V30 30 1 14 30
M  V30 END BOND
M  V30 END CTAB
M  END
