
     RDKit          3D

  0  0  0  0  0  0  0  0  0  0999 V3000
M  V30 BEGIN CTAB
M  V30 COUNTS 35 36 0 0 0
M  V30 BEGIN ATOM
M  V30 1 O 0.569211 -1.93017 -0.177485 0
M  V30 2 C -0.229064 -0.964781 -0.0637962 0
M  V30 3 C -1.49974 -1.04849 -0.817266 0
M  V30 4 C -2.38583 0.138773 -0.624663 0
M  V30 5 C -2.80369 0.381095 0.785782 0
M  V30 6 C -4.30834 0.230462 0.852596 0
M  V30 7 C -4.77859 0.472932 -0.545772 0
M  V30 8 C -3.67339 -0.120655 -1.39039 0
M  V30 9 O 0.144842 0.0716536 0.741392 0
M  V30 10 C 1.31451 0.22184 1.47596 0
M  V30 11 C 2.5649 0.227621 0.699973 0
M  V30 12 N 3.27445 -0.899009 0.591535 0
M  V30 13 C 4.43928 -0.938979 -0.118023 0
M  V30 14 N 5.12229 -2.18167 -0.175922 0
M  V30 15 N 4.88078 0.179888 -0.720072 0
M  V30 16 C 4.18211 1.32587 -0.624057 0
M  V30 17 N 3.03315 1.32127 0.0887614 0
M  V30 18 N 4.6838 2.48598 -1.27549 0
M  V30 19 H -1.26653 -1.12766 -1.89563 0
M  V30 20 H -2.01211 -2.01133 -0.551206 0
M  V30 21 H -1.90801 1.01075 -1.10136 0
M  V30 22 H -2.56203 1.4319 1.07209 0
M  V30 23 H -2.38194 -0.350414 1.50495 0
M  V30 24 H -4.74511 1.03497 1.49306 0
M  V30 25 H -4.58752 -0.771684 1.25145 0
M  V30 26 H -4.90158 1.55996 -0.700441 0
M  V30 27 H -5.71947 -0.0990944 -0.702057 0
M  V30 28 H -3.89063 -1.22826 -1.43547 0
M  V30 29 H -3.64763 0.26725 -2.41582 0
M  V30 30 H 1.42957 -0.515462 2.29975 0
M  V30 31 H 1.2169 1.21103 2.01825 0
M  V30 32 H 5.27339 -2.61162 -1.09957 0
M  V30 33 H 5.44544 -2.61324 0.71529 0
M  V30 34 H 4.5345 3.40888 -0.819981 0
M  V30 35 H 5.19209 2.43038 -2.18945 0
M  V30 END ATOM
M  V30 BEGIN BOND
M  V30 1 2 1 2
M  V30 2 1 2 3
M  V30 3 1 3 4
M  V30 4 1 4 5
M  V30 5 1 5 6
M  V30 6 1 6 7
M  V30 7 1 7 8
M  V30 8 1 2 9
M  V30 9 1 9 10
M  V30 10 1 10 11
M  V30 11 2 11 12
M  V30 12 1 12 13
M  V30 13 1 13 14
M  V30 14 2 13 15
M  V30 15 1 15 16
M  V30 16 2 16 17
M  V30 17 1 16 18
M  V30 18 1 8 4
M  V30 19 1 17 11
M  V30 20 1 3 19
M  V30 21 1 3 20
M  V30 22 1 4 21
M  V30 23 1 5 22
M  V30 24 1 5 23
M  V30 25 1 6 24
M  V30 26 1 6 25
M  V30 27 1 7 26
M  V30 28 1 7 27
M  V30 29 1 8 28
M  V30 30 1 8 29
M  V30 31 1 10 30
M  V30 32 1 10 31
M  V30 33 1 14 32
M  V30 34 1 14 33
M  V30 35 1 18 34
M  V30 36 1 18 35
M  V30 END BOND
M  V30 END CTAB
M  END
