
     RDKit          3D

  0  0  0  0  0  0  0  0  0  0999 V3000
M  V30 BEGIN CTAB
M  V30 COUNTS 149 150 0 0 0
M  V30 BEGIN ATOM
M  V30 1 C 10.4238 -2.26843 1.06962 0
M  V30 2 O 9.60477 -2.44126 -0.0132699 0
M  V30 3 C 8.42131 -1.76185 -0.00825966 0 CFG=1
M  V30 4 C 8.2918 -0.793405 -1.16654 0
M  V30 5 C 9.35572 0.211702 -1.13572 0
M  V30 6 C 10.528 -0.00857273 -1.7974 0
M  V30 7 C 11.5314 0.929034 -1.77617 0
M  V30 8 C 11.3601 2.10336 -1.08243 0
M  V30 9 C 10.1595 2.31323 -0.41202 0
M  V30 10 C 9.15164 1.37741 -0.431039 0
M  V30 11 C 7.20922 -2.68038 -0.0839712 0 CFG=1
M  V30 12 C 7.28908 -3.59167 1.15117 0
M  V30 13 C 6.01685 -1.84404 0.128896 0
M  V30 14 C 4.94537 -1.7707 -0.63845 0
M  V30 15 C 4.89465 -2.59752 -1.85064 0
M  V30 16 C 3.81381 -0.919012 -0.300379 0
M  V30 17 C 2.73692 -0.802185 -1.01191 0
M  V30 18 C 1.57226 0.0734512 -0.650774 0 CFG=2
M  V30 19 N 1.97828 1.45119 -0.565686 0
M  V30 20 C 1.45202 2.59653 -1.13633 0
M  V30 21 O 2.23506 3.2231 -1.97257 0
M  V30 22 C 0.152864 3.273 -0.990583 0 CFG=2
M  V30 23 C 0.286445 4.27864 0.152217 0
M  V30 24 C 1.37275 5.28307 -0.104934 0
M  V30 25 C 1.42769 6.3145 1.02105 0
M  V30 26 N 2.54552 7.2191 0.734132 0
M  V30 27 C 3.8544 6.65676 0.861133 0
M  V30 28 N 4.52508 6.26655 -0.344058 0
M  V30 29 N 4.43819 6.49207 1.97197 0
M  V30 30 N -0.930219 2.3618 -0.65388 0
M  V30 31 C -2.00373 1.9492 -1.46276 0
M  V30 32 O -2.03722 0.682504 -1.69498 0
M  V30 33 C -3.06097 2.77648 -2.05385 0 CFG=1
M  V30 34 C -3.01713 2.77917 -3.57597 0
M  V30 35 C -4.43323 2.29563 -1.56776 0 CFG=1
M  V30 36 N -4.37285 1.74543 -0.228513 0
M  V30 37 C -5.33796 0.997844 0.442779 0
M  V30 38 O -5.62077 1.35057 1.64387 0
M  V30 39 C -6.09797 -0.174995 -0.0524908 0 CFG=2
M  V30 40 C -7.25017 0.258188 -0.967593 0
M  V30 41 C -8.22615 1.12044 -0.201763 0
M  V30 42 C -9.3555 1.56111 -1.14735 0
M  V30 43 N -10.2853 2.39263 -0.401277 0
M  V30 44 C -11.0683 1.79769 0.629938 0
M  V30 45 N -10.5855 1.52881 1.91794 0
M  V30 46 N -12.3096 1.50243 0.342858 0
M  V30 47 N -6.77917 -0.818004 1.05304 0
M  V30 48 C -6.87328 -2.17156 1.38711 0
M  V30 49 O -8.03712 -2.74915 1.25376 0
M  V30 50 C -5.83173 -3.08659 1.88991 0 CFG=1
M  V30 51 C -6.31131 -3.72885 3.21981 0
M  V30 52 N -5.50788 -4.15663 0.978655 0
M  V30 53 C -4.54434 -5.16157 1.29809 0
M  V30 54 O -4.72508 -6.33359 0.9173 0
M  V30 55 C -3.33398 -4.8603 2.06488 0
M  V30 56 C -2.91667 -5.73508 2.95932 0
M  V30 57 N -2.56815 -3.66609 1.89917 0
M  V30 58 C -2.00829 -3.0637 3.10285 0
M  V30 59 C -2.3234 -3.0353 0.652518 0
M  V30 60 O -2.51532 -1.79061 0.568594 0
M  V30 61 C -1.85152 -3.76021 -0.57839 0
M  V30 62 C -0.845566 -2.88395 -1.29338 0
M  V30 63 C 0.520205 -3.43098 -1.12261 0 CFG=1
M  V30 64 N 1.29619 -2.9929 -0.0216536 0
M  V30 65 C 1.2112 -1.91319 0.848527 0
M  V30 66 O 1.37022 -2.19286 2.107 0
M  V30 67 C 0.970485 -0.492489 0.604801 0 CFG=1
M  V30 68 C 1.4146 0.339121 1.79001 0
M  V30 69 C 0.516009 -4.94031 -1.24022 0
M  V30 70 O -0.136387 -5.61408 -2.23401 0
M  V30 71 O 1.15092 -5.57161 -0.369565 0
M  V30 72 C -5.32866 3.48999 -1.49383 0
M  V30 73 O -5.55064 4.1582 -2.70599 0
M  V30 74 O -5.86944 3.91643 -0.471293 0
M  V30 75 H 10.7376 -1.19065 1.20267 0
M  V30 76 H 10.0079 -2.55417 2.04642 0
M  V30 77 H 11.379 -2.80347 0.869818 0
M  V30 78 H 8.33404 -1.17841 0.926125 0
M  V30 79 H 7.30406 -0.298931 -1.15262 0
M  V30 80 H 8.32408 -1.37243 -2.12975 0
M  V30 81 H 10.6525 -0.937506 -2.34019 0
M  V30 82 H 12.4284 0.692276 -2.3218 0
M  V30 83 H 12.1606 2.81616 -1.08698 0
M  V30 84 H 10.0275 3.25042 0.13476 0
M  V30 85 H 8.22475 1.57488 0.105718 0
M  V30 86 H 7.20951 -3.27573 -0.99348 0
M  V30 87 H 6.33234 -4.19037 1.1309 0
M  V30 88 H 8.10333 -4.31094 1.1013 0
M  V30 89 H 7.2426 -2.94303 2.02657 0
M  V30 90 H 6.01156 -1.2165 1.02072 0
M  V30 91 H 5.40231 -2.10955 -2.70805 0
M  V30 92 H 3.85711 -2.88387 -2.08912 0
M  V30 93 H 5.38469 -3.58893 -1.59576 0
M  V30 94 H 3.90242 -0.345271 0.596367 0
M  V30 95 H 2.68191 -1.35637 -1.92285 0
M  V30 96 H 0.818446 -0.0903625 -1.49102 0
M  V30 97 H 2.8587 1.58023 0.0381315 0
M  V30 98 H -0.0588232 3.83408 -1.91083 0
M  V30 99 H -0.677418 4.80778 0.243333 0
M  V30 100 H 0.542026 3.73564 1.10666 0
M  V30 101 H 1.16541 5.84245 -1.03729 0
M  V30 102 H 2.36598 4.79042 -0.208463 0
M  V30 103 H 1.61531 5.82165 1.99799 0
M  V30 104 H 0.463765 6.84499 1.02101 0
M  V30 105 H 2.41198 8.20436 0.460923 0
M  V30 106 H 4.53509 6.84527 -1.20796 0
M  V30 107 H 5.02712 5.35914 -0.361502 0
M  V30 108 H 5.4137 6.0622 1.95374 0
M  V30 109 H -0.836119 2.00292 0.35181 0
M  V30 110 H -3.00197 3.8419 -1.76362 0
M  V30 111 H -1.95065 2.59424 -3.88509 0
M  V30 112 H -3.29171 3.75052 -3.99959 0
M  V30 113 H -3.71332 2.02388 -4.00484 0
M  V30 114 H -4.76502 1.56199 -2.30994 0
M  V30 115 H -3.46501 1.94846 0.293764 0
M  V30 116 H -5.4407 -0.810493 -0.628122 0
M  V30 117 H -7.80128 -0.704673 -1.17449 0
M  V30 118 H -6.93275 0.64624 -1.9272 0
M  V30 119 H -7.80251 1.97371 0.31238 0
M  V30 120 H -8.78286 0.432076 0.523769 0
M  V30 121 H -9.82236 0.697951 -1.63565 0
M  V30 122 H -8.89275 2.20092 -1.92598 0
M  V30 123 H -10.3895 3.40317 -0.603249 0
M  V30 124 H -10.5139 0.504854 2.20026 0
M  V30 125 H -10.3116 2.30072 2.56952 0
M  V30 126 H -12.6585 1.70675 -0.594161 0
M  V30 127 H -7.30147 -0.123779 1.69331 0
M  V30 128 H -4.9387 -2.51102 2.20366 0
M  V30 129 H -5.46757 -4.00146 3.86023 0
M  V30 130 H -7.01792 -4.5476 3.00043 0
M  V30 131 H -6.87581 -2.92872 3.73561 0
M  V30 132 H -5.97639 -4.22062 0.0565753 0
M  V30 133 H -3.44354 -6.65032 3.12952 0
M  V30 134 H -2.04606 -5.54995 3.54763 0
M  V30 135 H -1.88476 -1.96751 2.98939 0
M  V30 136 H -0.959088 -3.46068 3.24784 0
M  V30 137 H -2.55991 -3.31877 3.99827 0
M  V30 138 H -2.71149 -3.94208 -1.26561 0
M  V30 139 H -1.43868 -4.75357 -0.34294 0
M  V30 140 H -0.97166 -1.86716 -0.887695 0
M  V30 141 H -1.10283 -2.91722 -2.38495 0
M  V30 142 H 1.07472 -3.13342 -2.07673 0
M  V30 143 H 2.14577 -3.63911 0.197921 0
M  V30 144 H -0.125606 -0.256835 0.526444 0
M  V30 145 H 1.60037 1.39228 1.53918 0
M  V30 146 H 0.591118 0.258495 2.55516 0
M  V30 147 H 2.30282 -0.107916 2.26456 0
M  V30 148 H 0.28533 -5.60638 -3.1775 0
M  V30 149 H -5.16941 5.10003 -2.84835 0
M  V30 END ATOM
M  V30 BEGIN BOND
M  V30 1 1 1 2
M  V30 2 1 2 3
M  V30 3 1 3 4
M  V30 4 1 4 5
M  V30 5 2 5 6
M  V30 6 1 6 7
M  V30 7 2 7 8
M  V30 8 1 8 9
M  V30 9 2 9 10
M  V30 10 1 3 11
M  V30 11 1 11 12
M  V30 12 1 11 13
M  V30 13 2 13 14
M  V30 14 1 14 15
M  V30 15 1 14 16
M  V30 16 2 16 17
M  V30 17 1 17 18
M  V30 18 1 18 19
M  V30 19 1 19 20
M  V30 20 2 20 21
M  V30 21 1 20 22
M  V30 22 1 22 23
M  V30 23 1 23 24
M  V30 24 1 24 25
M  V30 25 1 25 26
M  V30 26 1 26 27
M  V30 27 1 27 28
M  V30 28 2 27 29 CFG=2
M  V30 29 1 22 30
M  V30 30 1 30 31
M  V30 31 2 31 32
M  V30 32 1 31 33
M  V30 33 1 33 34
M  V30 34 1 33 35
M  V30 35 1 35 36
M  V30 36 1 36 37
M  V30 37 2 37 38
M  V30 38 1 37 39
M  V30 39 1 39 40
M  V30 40 1 40 41
M  V30 41 1 41 42
M  V30 42 1 42 43
M  V30 43 1 43 44
M  V30 44 1 44 45
M  V30 45 2 44 46 CFG=2
M  V30 46 1 39 47
M  V30 47 1 47 48
M  V30 48 2 48 49
M  V30 49 1 48 50
M  V30 50 1 50 51
M  V30 51 1 50 52
M  V30 52 1 52 53
M  V30 53 2 53 54
M  V30 54 1 53 55
M  V30 55 2 55 56 CFG=2
M  V30 56 1 55 57
M  V30 57 1 57 58
M  V30 58 1 57 59
M  V30 59 2 59 60
M  V30 60 1 59 61
M  V30 61 1 61 62
M  V30 62 1 62 63
M  V30 63 1 63 64
M  V30 64 1 64 65
M  V30 65 2 65 66
M  V30 66 1 65 67
M  V30 67 1 67 68
M  V30 68 1 63 69
M  V30 69 1 69 70
M  V30 70 2 69 71
M  V30 71 1 35 72
M  V30 72 1 72 73
M  V30 73 2 72 74
M  V30 74 1 10 5
M  V30 75 1 67 18
M  V30 76 1 1 75
M  V30 77 1 1 76
M  V30 78 1 1 77
M  V30 79 1 3 78 CFG=1
M  V30 80 1 4 79
M  V30 81 1 4 80
M  V30 82 1 6 81
M  V30 83 1 7 82
M  V30 84 1 8 83
M  V30 85 1 9 84
M  V30 86 1 10 85
M  V30 87 1 11 86 CFG=3
M  V30 88 1 12 87
M  V30 89 1 12 88
M  V30 90 1 12 89
M  V30 91 1 13 90
M  V30 92 1 15 91
M  V30 93 1 15 92
M  V30 94 1 15 93
M  V30 95 1 16 94
M  V30 96 1 17 95
M  V30 97 1 18 96 CFG=3
M  V30 98 1 19 97
M  V30 99 1 22 98 CFG=3
M  V30 100 1 23 99
M  V30 101 1 23 100
M  V30 102 1 24 101
M  V30 103 1 24 102
M  V30 104 1 25 103
M  V30 105 1 25 104
M  V30 106 1 26 105
M  V30 107 1 28 106
M  V30 108 1 28 107
M  V30 109 1 29 108
M  V30 110 1 30 109
M  V30 111 1 33 110 CFG=1
M  V30 112 1 34 111
M  V30 113 1 34 112
M  V30 114 1 34 113
M  V30 115 1 35 114 CFG=3
M  V30 116 1 36 115
M  V30 117 1 39 116 CFG=3
M  V30 118 1 40 117
M  V30 119 1 40 118
M  V30 120 1 41 119
M  V30 121 1 41 120
M  V30 122 1 42 121
M  V30 123 1 42 122
M  V30 124 1 43 123
M  V30 125 1 45 124
M  V30 126 1 45 125
M  V30 127 1 46 126
M  V30 128 1 47 127
M  V30 129 1 50 128 CFG=1
M  V30 130 1 51 129
M  V30 131 1 51 130
M  V30 132 1 51 131
M  V30 133 1 52 132
M  V30 134 1 56 133
M  V30 135 1 56 134
M  V30 136 1 58 135
M  V30 137 1 58 136
M  V30 138 1 58 137
M  V30 139 1 61 138
M  V30 140 1 61 139
M  V30 141 1 62 140
M  V30 142 1 62 141
M  V30 143 1 63 142 CFG=3
M  V30 144 1 64 143
M  V30 145 1 67 144 CFG=3
M  V30 146 1 68 145
M  V30 147 1 68 146
M  V30 148 1 68 147
M  V30 149 1 70 148
M  V30 150 1 73 149
M  V30 END BOND
M  V30 END CTAB
M  END
