
     RDKit          3D

  0  0  0  0  0  0  0  0  0  0999 V3000
M  V30 BEGIN CTAB
M  V30 COUNTS 28 30 0 0 0
M  V30 BEGIN ATOM
M  V30 1 N 4.96593 -0.202924 0.28501 0
M  V30 2 C 3.65788 0.155117 -0.140633 0
M  V30 3 C 2.54949 -0.382925 0.471449 0
M  V30 4 N 2.76188 -1.30027 1.53387 0
M  V30 5 C 1.256 -0.0925125 0.124112 0
M  V30 6 N 0.0279893 -0.457622 0.535179 0
M  V30 7 N -0.911562 0.145186 -0.170151 0
M  V30 8 N -0.270703 0.904544 -1.04227 0
M  V30 9 C 1.0562 0.799063 -0.908414 0
M  V30 10 C 2.15748 1.362 -1.54935 0
M  V30 11 C 3.43693 1.0485 -1.17543 0
M  V30 12 C -2.34067 0.0129142 -0.0300945 0
M  V30 13 C -3.00837 -1.1123 -0.476749 0
M  V30 14 C -4.37922 -1.23836 -0.342052 0
M  V30 15 C -5.12038 -0.241604 0.243561 0
M  V30 16 C -4.4806 0.888821 0.696703 0
M  V30 17 C -3.10595 1.0051 0.556753 0
M  V30 18 H 5.20326 -0.233935 1.29919 0
M  V30 19 H 5.66661 -0.429613 -0.450115 0
M  V30 20 H 3.06636 -2.26674 1.2831 0
M  V30 21 H 2.63447 -1.07138 2.53207 0
M  V30 22 H 1.98347 2.05341 -2.35022 0
M  V30 23 H 4.28206 1.491 -1.67941 0
M  V30 24 H -2.40953 -1.89131 -0.937218 0
M  V30 25 H -4.83774 -2.1426 -0.712119 0
M  V30 26 H -6.18979 -0.383364 0.327732 0
M  V30 27 H -5.06697 1.69141 1.16675 0
M  V30 28 H -2.58454 1.89039 0.90875 0
M  V30 END ATOM
M  V30 BEGIN BOND
M  V30 1 1 1 2
M  V30 2 2 2 3
M  V30 3 1 3 4
M  V30 4 1 3 5
M  V30 5 2 5 6
M  V30 6 1 6 7
M  V30 7 1 7 8
M  V30 8 2 8 9
M  V30 9 1 9 10
M  V30 10 2 10 11
M  V30 11 1 7 12
M  V30 12 2 12 13
M  V30 13 1 13 14
M  V30 14 2 14 15
M  V30 15 1 15 16
M  V30 16 2 16 17
M  V30 17 1 11 2
M  V30 18 1 17 12
M  V30 19 1 9 5
M  V30 20 1 1 18
M  V30 21 1 1 19
M  V30 22 1 4 20
M  V30 23 1 4 21
M  V30 24 1 10 22
M  V30 25 1 11 23
M  V30 26 1 13 24
M  V30 27 1 14 25
M  V30 28 1 15 26
M  V30 29 1 16 27
M  V30 30 1 17 28
M  V30 END BOND
M  V30 END CTAB
M  END
