
     RDKit          3D

  0  0  0  0  0  0  0  0  0  0999 V3000
M  V30 BEGIN CTAB
M  V30 COUNTS 22 22 0 0 0
M  V30 BEGIN ATOM
M  V30 1 C -2.63255 -0.531313 -0.617403 0
M  V30 2 C -2.08774 0.868969 -0.486666 0
M  V30 3 C -1.13606 0.88225 0.691989 0
M  V30 4 N -0.0422402 -0.0479029 0.493745 0
M  V30 5 N 0.0357401 -1.3103 0.828022 0
M  V30 6 C 1.21879 -1.84037 0.474921 0
M  V30 7 C 1.92494 -0.834177 -0.1211 0
M  V30 8 C 1.12274 0.271941 -0.0991743 0
M  V30 9 N 1.46711 1.55072 -0.619356 0
M  V30 10 N 3.23603 -0.930718 -0.655462 0
M  V30 11 H -3.7175 -0.539571 -0.860205 0
M  V30 12 H -2.12241 -1.00395 -1.50134 0
M  V30 13 H -2.4954 -1.13873 0.287409 0
M  V30 14 H -2.9561 1.53499 -0.311188 0
M  V30 15 H -1.59122 1.23442 -1.40504 0
M  V30 16 H -0.739391 1.91894 0.768783 0
M  V30 17 H -1.69625 0.695704 1.63113 0
M  V30 18 H 1.58649 -2.85437 0.61256 0
M  V30 19 H 1.2354 2.37797 -0.0546691 0
M  V30 20 H 1.93472 1.66613 -1.53188 0
M  V30 21 H 3.59436 -1.86468 -0.946198 0
M  V30 22 H 3.86054 -0.105946 -0.771188 0
M  V30 END ATOM
M  V30 BEGIN BOND
M  V30 1 1 1 2
M  V30 2 1 2 3
M  V30 3 1 3 4
M  V30 4 1 4 5
M  V30 5 2 5 6
M  V30 6 1 6 7
M  V30 7 2 7 8
M  V30 8 1 8 9
M  V30 9 1 7 10
M  V30 10 1 8 4
M  V30 11 1 1 11
M  V30 12 1 1 12
M  V30 13 1 1 13
M  V30 14 1 2 14
M  V30 15 1 2 15
M  V30 16 1 3 16
M  V30 17 1 3 17
M  V30 18 1 6 18
M  V30 19 1 9 19
M  V30 20 1 9 20
M  V30 21 1 10 21
M  V30 22 1 10 22
M  V30 END BOND
M  V30 END CTAB
M  END
