
     RDKit          3D

  0  0  0  0  0  0  0  0  0  0999 V3000
M  V30 BEGIN CTAB
M  V30 COUNTS 22 22 0 0 0
M  V30 BEGIN ATOM
M  V30 1 N 3.91066 1.55001 0.704844 0
M  V30 2 C 3.07127 0.693103 0.244851 0
M  V30 3 N 3.54369 -0.447126 -0.454881 0
M  V30 4 N 1.6752 0.83786 0.407381 0
M  V30 5 C 0.733732 -0.0991922 -0.0943615 0
M  V30 6 O 1.13826 -1.10983 -0.713829 0
M  V30 7 C -0.680864 0.0994426 0.10104 0
M  V30 8 N -1.13077 1.17695 0.762611 0
M  V30 9 C -2.46956 1.37245 0.952023 0
M  V30 10 C -3.3429 0.454636 0.457849 0
M  V30 11 N -2.9172 -0.652425 -0.219851 0 CHG=1
M  V30 12 O -3.85444 -1.51515 -0.677948 0 CHG=-1
M  V30 13 C -1.57384 -0.819394 -0.392658 0
M  V30 14 N -1.17651 -1.97609 -1.09813 0
M  V30 15 H 3.5318 2.37986 1.21603 0
M  V30 16 H 3.7664 -1.33742 0.0324385 0
M  V30 17 H 3.67113 -0.383518 -1.50362 0
M  V30 18 H 1.32771 1.69317 0.931923 0
M  V30 19 H -2.74976 2.25298 1.48782 0
M  V30 20 H -4.39557 0.615175 0.610806 0
M  V30 21 H -0.675491 -2.777 -0.62162 0
M  V30 22 H -1.40295 -2.00848 -2.13272 0
M  V30 END ATOM
M  V30 BEGIN BOND
M  V30 1 2 1 2 CFG=2
M  V30 2 1 2 3
M  V30 3 1 2 4
M  V30 4 1 4 5
M  V30 5 2 5 6
M  V30 6 1 5 7
M  V30 7 2 7 8
M  V30 8 1 8 9
M  V30 9 2 9 10
M  V30 10 1 10 11
M  V30 11 1 11 12
M  V30 12 2 11 13
M  V30 13 1 13 14
M  V30 14 1 13 7
M  V30 15 1 1 15
M  V30 16 1 3 16
M  V30 17 1 3 17
M  V30 18 1 4 18
M  V30 19 1 9 19
M  V30 20 1 10 20
M  V30 21 1 14 21
M  V30 22 1 14 22
M  V30 END BOND
M  V30 END CTAB
M  END
