
     RDKit          3D

  0  0  0  0  0  0  0  0  0  0999 V3000
M  V30 BEGIN CTAB
M  V30 COUNTS 56 59 0 0 0
M  V30 BEGIN ATOM
M  V30 1 N -4.60831 -0.366353 -4.11861 0
M  V30 2 C -3.39451 -0.36622 -3.37199 0
M  V30 3 N -3.2982 -0.092983 -2.0689 0
M  V30 4 C -2.14225 -0.092449 -1.37528 0
M  V30 5 C -2.07769 0.220798 0.0530227 0
M  V30 6 O -3.23115 0.517213 0.690844 0
M  V30 7 C -4.24421 -0.354132 0.817398 0
M  V30 8 C -5.38482 0.282987 1.59006 0
M  V30 9 C -6.54438 -0.391853 1.85478 0
M  V30 10 Cl -6.63967 -2.04699 1.24282 0
M  V30 11 C -7.58816 0.178078 2.56058 0
M  V30 12 C -7.48483 1.47047 3.02682 0
M  V30 13 C -6.31556 2.15104 2.76028 0
M  V30 14 C -5.27794 1.57364 2.05463 0
M  V30 15 C -0.96167 -0.393798 -2.04398 0
M  V30 16 C -1.06886 -0.677136 -3.39591 0
M  V30 17 N 0.152022 -0.970343 -4.06607 0
M  V30 18 N -2.2381 -0.663367 -4.0335 0
M  V30 19 C 0.286366 -0.393223 -1.33613 0
M  V30 20 C 0.99653 0.740695 -0.989319 0
M  V30 21 C 2.1918 0.717854 -0.348502 0
M  V30 22 C 2.72773 -0.512555 -0.0256049 0
M  V30 23 N 3.9942 -0.529601 0.616498 0
M  V30 24 C 4.62411 0.696674 0.996145 0
M  V30 25 C 5.99956 0.410583 1.46175 0
M  V30 26 C 7.04995 0.582222 0.580928 0
M  V30 27 C 8.31696 0.318499 0.978895 0
M  V30 28 C 8.60885 -0.122525 2.25007 0
M  V30 29 Cl 10.2485 -0.462767 2.76708 0
M  V30 30 C 7.56997 -0.295106 3.13311 0
M  V30 31 C 6.26988 -0.0284811 2.73826 0
M  V30 32 C 2.07337 -1.69408 -0.338743 0
M  V30 33 C 0.857683 -1.61833 -0.992206 0
M  V30 34 H -5.41395 -0.974803 -3.87135 0
M  V30 35 H -4.71764 0.259367 -4.94774 0
M  V30 36 H -1.30443 1.05404 0.229384 0
M  V30 37 H -1.61138 -0.64229 0.599727 0
M  V30 38 H -4.61766 -0.743919 -0.126805 0
M  V30 39 H -3.98284 -1.25502 1.44871 0
M  V30 40 H -8.46638 -0.418884 2.72505 0
M  V30 41 H -8.29725 1.94472 3.58882 0
M  V30 42 H -6.24945 3.17066 3.13754 0
M  V30 43 H -4.35564 2.12093 1.85144 0
M  V30 44 H 0.658172 -0.239196 -4.58097 0
M  V30 45 H 0.510584 -1.94113 -4.01762 0
M  V30 46 H 0.537724 1.69866 -1.26168 0
M  V30 47 H 2.69121 1.64015 -0.104454 0
M  V30 48 H 4.43717 -1.45224 0.796242 0
M  V30 49 H 4.07682 1.23532 1.80605 0
M  V30 50 H 4.69638 1.37509 0.0985532 0
M  V30 51 H 6.83803 0.92505 -0.413739 0
M  V30 52 H 9.14221 0.451916 0.287427 0
M  V30 53 H 7.69209 -0.638593 4.15493 0
M  V30 54 H 5.42805 -0.158952 3.42237 0
M  V30 55 H 2.51237 -2.67159 -0.0726804 0
M  V30 56 H 0.328623 -2.52774 -1.24695 0
M  V30 END ATOM
M  V30 BEGIN BOND
M  V30 1 1 1 2
M  V30 2 2 2 3
M  V30 3 1 3 4
M  V30 4 1 4 5
M  V30 5 1 5 6
M  V30 6 1 6 7
M  V30 7 1 7 8
M  V30 8 2 8 9
M  V30 9 1 9 10
M  V30 10 1 9 11
M  V30 11 2 11 12
M  V30 12 1 12 13
M  V30 13 2 13 14
M  V30 14 2 4 15
M  V30 15 1 15 16
M  V30 16 1 16 17
M  V30 17 2 16 18
M  V30 18 1 15 19
M  V30 19 2 19 20
M  V30 20 1 20 21
M  V30 21 2 21 22
M  V30 22 1 22 23
M  V30 23 1 23 24
M  V30 24 1 24 25
M  V30 25 2 25 26
M  V30 26 1 26 27
M  V30 27 2 27 28
M  V30 28 1 28 29
M  V30 29 1 28 30
M  V30 30 2 30 31
M  V30 31 1 22 32
M  V30 32 2 32 33
M  V30 33 1 18 2
M  V30 34 1 33 19
M  V30 35 1 14 8
M  V30 36 1 31 25
M  V30 37 1 1 34
M  V30 38 1 1 35
M  V30 39 1 5 36
M  V30 40 1 5 37
M  V30 41 1 7 38
M  V30 42 1 7 39
M  V30 43 1 11 40
M  V30 44 1 12 41
M  V30 45 1 13 42
M  V30 46 1 14 43
M  V30 47 1 17 44
M  V30 48 1 17 45
M  V30 49 1 20 46
M  V30 50 1 21 47
M  V30 51 1 23 48
M  V30 52 1 24 49
M  V30 53 1 24 50
M  V30 54 1 26 51
M  V30 55 1 27 52
M  V30 56 1 30 53
M  V30 57 1 31 54
M  V30 58 1 32 55
M  V30 59 1 33 56
M  V30 END BOND
M  V30 END CTAB
M  END
