
     RDKit          3D

  0  0  0  0  0  0  0  0  0  0999 V3000
M  V30 BEGIN CTAB
M  V30 COUNTS 23 24 0 0 0
M  V30 BEGIN ATOM
M  V30 1 N -1.93152 -0.670195 1.2102 0
M  V30 2 C -1.77446 -0.388669 -0.194974 0 CFG=2
M  V30 3 C -0.796975 -1.3979 -0.833526 0
M  V30 4 C 0.516364 -0.782797 -0.398403 0
M  V30 5 C 1.76532 -1.35861 -0.205605 0
M  V30 6 C 2.84724 -0.599429 0.214206 0
M  V30 7 C 2.64067 0.74298 0.432941 0
M  V30 8 C 1.42907 1.33914 0.253228 0
M  V30 9 C 0.358541 0.561214 -0.16779 0
M  V30 10 C -1.06438 0.885391 -0.466927 0 CFG=2
M  V30 11 N -1.53669 2.00976 0.295935 0
M  V30 12 H -1.02743 -0.81482 1.6847 0
M  V30 13 H -2.51007 -1.53323 1.28863 0
M  V30 14 H -2.76611 -0.480379 -0.702117 0
M  V30 15 H -0.878152 -1.39426 -1.9215 0
M  V30 16 H -0.911773 -2.38561 -0.357968 0
M  V30 17 H 1.90519 -2.42276 -0.384939 0
M  V30 18 H 3.83356 -1.03594 0.370144 0
M  V30 19 H 3.48453 1.36009 0.765591 0
M  V30 20 H 1.23675 2.39175 0.417257 0
M  V30 21 H -1.10667 1.07485 -1.56743 0
M  V30 22 H -1.16601 2.87819 -0.184658 0
M  V30 23 H -2.54699 2.02122 0.45301 0
M  V30 END ATOM
M  V30 BEGIN BOND
M  V30 1 1 1 2
M  V30 2 1 2 3
M  V30 3 1 3 4
M  V30 4 2 4 5
M  V30 5 1 5 6
M  V30 6 2 6 7
M  V30 7 1 7 8
M  V30 8 2 8 9
M  V30 9 1 9 10
M  V30 10 1 10 11
M  V30 11 1 10 2
M  V30 12 1 9 4
M  V30 13 1 1 12
M  V30 14 1 1 13
M  V30 15 1 2 14 CFG=3
M  V30 16 1 3 15
M  V30 17 1 3 16
M  V30 18 1 5 17
M  V30 19 1 6 18
M  V30 20 1 7 19
M  V30 21 1 8 20
M  V30 22 1 10 21 CFG=3
M  V30 23 1 11 22
M  V30 24 1 11 23
M  V30 END BOND
M  V30 END CTAB
M  END
