
     RDKit          3D

  0  0  0  0  0  0  0  0  0  0999 V3000
M  V30 BEGIN CTAB
M  V30 COUNTS 22 23 0 0 0
M  V30 BEGIN ATOM
M  V30 1 N 3.77403 0.0188891 0.356305 0
M  V30 2 C 2.92982 -0.618177 -0.619571 0
M  V30 3 C 1.50791 -0.233446 -0.488833 0
M  V30 4 O 0.906523 0.772257 -1.07705 0
M  V30 5 C -0.369301 0.832724 -0.742383 0
M  V30 6 C -0.625024 -0.211613 0.131173 0
M  V30 7 C 0.57034 -0.877213 0.282461 0
M  V30 8 C -1.89776 -0.370736 0.632554 0
M  V30 9 N -2.11598 -1.44792 1.51996 0
M  V30 10 C -2.93801 0.480786 0.293039 0
M  V30 11 C -2.64739 1.5092 -0.57878 0
M  V30 12 C -1.38318 1.69727 -1.09971 0
M  V30 13 H 4.75272 0.123068 0.0648079 0
M  V30 14 H 3.35493 0.868243 0.781115 0
M  V30 15 H 3.32771 -0.422973 -1.62615 0
M  V30 16 H 3.03927 -1.72511 -0.456655 0
M  V30 17 H 0.776895 -1.74546 0.883598 0
M  V30 18 H -2.42849 -2.36387 1.15833 0
M  V30 19 H -1.96434 -1.32064 2.52162 0
M  V30 20 H -3.93832 0.333366 0.704174 0
M  V30 21 H -3.45727 2.1889 -0.855887 0
M  V30 22 H -1.1751 2.51245 -1.78411 0
M  V30 END ATOM
M  V30 BEGIN BOND
M  V30 1 1 1 2
M  V30 2 1 2 3
M  V30 3 1 3 4
M  V30 4 1 4 5
M  V30 5 2 5 6
M  V30 6 1 6 7
M  V30 7 1 6 8
M  V30 8 1 8 9
M  V30 9 2 8 10
M  V30 10 1 10 11
M  V30 11 2 11 12
M  V30 12 2 7 3
M  V30 13 1 12 5
M  V30 14 1 1 13
M  V30 15 1 1 14
M  V30 16 1 2 15
M  V30 17 1 2 16
M  V30 18 1 7 17
M  V30 19 1 9 18
M  V30 20 1 9 19
M  V30 21 1 10 20
M  V30 22 1 11 21
M  V30 23 1 12 22
M  V30 END BOND
M  V30 END CTAB
M  END
