
     RDKit          3D

  0  0  0  0  0  0  0  0  0  0999 V3000
M  V30 BEGIN CTAB
M  V30 COUNTS 48 47 0 0 0
M  V30 BEGIN ATOM
M  V30 1 N -6.87436 1.93237 1.27656 0
M  V30 2 C -6.90771 0.589704 0.836784 0
M  V30 3 N -7.56464 -0.270914 1.56219 0
M  V30 4 C -6.22938 0.169605 -0.392442 0
M  V30 5 C -4.73144 0.429767 -0.344774 0
M  V30 6 C -4.15006 -0.0323923 -1.63585 0
M  V30 7 C -2.66053 0.163672 -1.73423 0
M  V30 8 C -1.88992 -0.561996 -0.686223 0
M  V30 9 C -0.419762 -0.272222 -0.911328 0
M  V30 10 C 0.456626 -0.96409 0.103283 0
M  V30 11 C 1.89971 -0.577595 -0.253298 0
M  V30 12 C 2.87913 -1.20162 0.682259 0
M  V30 13 C 4.27451 -0.79168 0.279929 0
M  V30 14 C 4.49034 0.685677 0.315786 0
M  V30 15 C 5.92747 0.972436 -0.102311 0
M  V30 16 C 6.89414 0.32466 0.802438 0
M  V30 17 N 6.9524 0.606701 2.19286 0
M  V30 18 N 7.74638 -0.54762 0.347002 0
M  V30 19 H -7.47555 2.6335 0.793989 0
M  V30 20 H -6.25992 2.19399 2.0622 0
M  V30 21 H -7.62707 -1.27804 1.2916 0
M  V30 22 H -6.38758 -0.91897 -0.548941 0
M  V30 23 H -6.67774 0.656583 -1.30605 0
M  V30 24 H -4.35052 -0.101934 0.539329 0
M  V30 25 H -4.62559 1.54139 -0.24716 0
M  V30 26 H -4.33816 -1.12456 -1.75317 0
M  V30 27 H -4.68227 0.467448 -2.46654 0
M  V30 28 H -2.27485 -0.0644852 -2.72779 0
M  V30 29 H -2.47942 1.2621 -1.57162 0
M  V30 30 H -2.15282 -0.178307 0.325466 0
M  V30 31 H -2.07423 -1.65383 -0.668493 0
M  V30 32 H -0.230104 0.800353 -0.855987 0
M  V30 33 H -0.168635 -0.714347 -1.90747 0
M  V30 34 H 0.217531 -0.628212 1.11815 0
M  V30 35 H 0.401753 -2.05763 0.0493745 0
M  V30 36 H 2.12693 -0.806844 -1.29281 0
M  V30 37 H 1.94487 0.532817 -0.127194 0
M  V30 38 H 2.69738 -0.788188 1.71406 0
M  V30 39 H 2.82487 -2.29835 0.712908 0
M  V30 40 H 5.03336 -1.26796 0.936156 0
M  V30 41 H 4.41116 -1.12347 -0.780341 0
M  V30 42 H 3.84146 1.15597 -0.457699 0
M  V30 43 H 4.31911 1.14405 1.29536 0
M  V30 44 H 6.11646 0.645066 -1.13081 0
M  V30 45 H 6.118 2.06781 -0.0729225 0
M  V30 46 H 6.0864 0.926678 2.66173 0
M  V30 47 H 7.83628 0.501876 2.75308 0
M  V30 48 H 7.73603 -0.78449 -0.677047 0
M  V30 END ATOM
M  V30 BEGIN BOND
M  V30 1 1 1 2
M  V30 2 2 2 3 CFG=2
M  V30 3 1 2 4
M  V30 4 1 4 5
M  V30 5 1 5 6
M  V30 6 1 6 7
M  V30 7 1 7 8
M  V30 8 1 8 9
M  V30 9 1 9 10
M  V30 10 1 10 11
M  V30 11 1 11 12
M  V30 12 1 12 13
M  V30 13 1 13 14
M  V30 14 1 14 15
M  V30 15 1 15 16
M  V30 16 1 16 17
M  V30 17 2 16 18 CFG=2
M  V30 18 1 1 19
M  V30 19 1 1 20
M  V30 20 1 3 21
M  V30 21 1 4 22
M  V30 22 1 4 23
M  V30 23 1 5 24
M  V30 24 1 5 25
M  V30 25 1 6 26
M  V30 26 1 6 27
M  V30 27 1 7 28
M  V30 28 1 7 29
M  V30 29 1 8 30
M  V30 30 1 8 31
M  V30 31 1 9 32
M  V30 32 1 9 33
M  V30 33 1 10 34
M  V30 34 1 10 35
M  V30 35 1 11 36
M  V30 36 1 11 37
M  V30 37 1 12 38
M  V30 38 1 12 39
M  V30 39 1 13 40
M  V30 40 1 13 41
M  V30 41 1 14 42
M  V30 42 1 14 43
M  V30 43 1 15 44
M  V30 44 1 15 45
M  V30 45 1 17 46
M  V30 46 1 17 47
M  V30 47 1 18 48
M  V30 END BOND
M  V30 END CTAB
M  END
