
     RDKit          3D

  0  0  0  0  0  0  0  0  0  0999 V3000
M  V30 BEGIN CTAB
M  V30 COUNTS 61 63 0 0 0
M  V30 BEGIN ATOM
M  V30 1 C -7.2058 1.93197 -1.02875 0
M  V30 2 C -6.97076 0.642763 -1.73946 0
M  V30 3 N -6.79436 -0.432761 -0.856031 0
M  V30 4 C -6.656 -1.72711 -1.45 0
M  V30 5 C -8.01988 -2.08773 -2.05996 0
M  V30 6 C -6.24634 -0.243702 0.421131 0
M  V30 7 C -4.8142 0.139218 0.535474 0
M  V30 8 C -3.88804 -0.892532 -0.087359 0
M  V30 9 C -2.45111 -0.406117 0.103229 0
M  V30 10 C -1.51059 -1.39217 -0.509225 0
M  V30 11 N -0.127979 -1.03674 -0.390444 0
M  V30 12 C 0.520469 -0.888195 0.851109 0
M  V30 13 O -0.129531 -1.07853 1.91206 0
M  V30 14 C 1.92396 -0.520269 0.973265 0
M  V30 15 N 2.70325 -0.279752 -0.102105 0
M  V30 16 C 4.00116 0.0660432 0.0334768 0
M  V30 17 C 4.58157 0.187454 1.27846 0
M  V30 18 N 3.79773 -0.0542046 2.35505 0
M  V30 19 C 2.49514 -0.401314 2.21653 0
M  V30 20 N 1.68988 -0.652732 3.37661 0
M  V30 21 N 5.87614 0.534264 1.40686 0
M  V30 22 C 6.66601 0.779374 0.348694 0
M  V30 23 N 6.11418 0.665294 -0.870847 0
M  V30 24 C 4.80713 0.316373 -1.05907 0
M  V30 25 N 4.25388 0.204239 -2.35203 0
M  V30 26 C 8.07002 1.15757 0.493346 0
M  V30 27 C 8.86979 1.406 -0.600365 0
M  V30 28 C 10.2055 1.76577 -0.402294 0
M  V30 29 C 10.7715 1.88645 0.847552 0
M  V30 30 C 9.96774 1.63663 1.94494 0
M  V30 31 C 8.63722 1.27843 1.74257 0
M  V30 32 H -7.87978 1.76888 -0.166616 0
M  V30 33 H -6.27046 2.40157 -0.730673 0
M  V30 34 H -7.80469 2.61766 -1.70679 0
M  V30 35 H -6.18667 0.728108 -2.53146 0
M  V30 36 H -7.91252 0.441565 -2.33291 0
M  V30 37 H -6.46001 -2.46296 -0.663495 0
M  V30 38 H -5.93755 -1.75547 -2.29513 0
M  V30 39 H -8.82461 -1.608 -1.45507 0
M  V30 40 H -8.19562 -3.18097 -2.03426 0
M  V30 41 H -8.04166 -1.66584 -3.06351 0
M  V30 42 H -6.90175 0.476831 1.00025 0
M  V30 43 H -6.34424 -1.2378 0.966437 0
M  V30 44 H -4.5408 1.14873 0.240012 0
M  V30 45 H -4.5652 0.0901163 1.64364 0
M  V30 46 H -4.02125 -0.994144 -1.17137 0
M  V30 47 H -4.02144 -1.83198 0.465694 0
M  V30 48 H -2.25324 -0.215767 1.16288 0
M  V30 49 H -2.33443 0.556518 -0.476928 0
M  V30 50 H -1.75443 -1.50278 -1.60032 0
M  V30 51 H -1.66531 -2.40275 -0.0409841 0
M  V30 52 H 0.437261 -0.87656 -1.25054 0
M  V30 53 H 1.55746 -1.64719 3.7163 0
M  V30 54 H 1.21556 0.0852598 3.92002 0
M  V30 55 H 3.41132 -0.381711 -2.48934 0
M  V30 56 H 4.6691 0.693178 -3.17177 0
M  V30 57 H 8.438 1.31468 -1.58014 0
M  V30 58 H 10.8348 1.96003 -1.2637 0
M  V30 59 H 11.8104 2.16727 0.96029 0
M  V30 60 H 10.3981 1.72707 2.93243 0
M  V30 61 H 8.00596 1.08249 2.62211 0
M  V30 END ATOM
M  V30 BEGIN BOND
M  V30 1 1 1 2
M  V30 2 1 2 3
M  V30 3 1 3 4
M  V30 4 1 4 5
M  V30 5 1 3 6
M  V30 6 1 6 7
M  V30 7 1 7 8
M  V30 8 1 8 9
M  V30 9 1 9 10
M  V30 10 1 10 11
M  V30 11 1 11 12
M  V30 12 2 12 13
M  V30 13 1 12 14
M  V30 14 2 14 15
M  V30 15 1 15 16
M  V30 16 2 16 17
M  V30 17 1 17 18
M  V30 18 2 18 19
M  V30 19 1 19 20
M  V30 20 1 17 21
M  V30 21 2 21 22
M  V30 22 1 22 23
M  V30 23 2 23 24
M  V30 24 1 24 25
M  V30 25 1 22 26
M  V30 26 2 26 27
M  V30 27 1 27 28
M  V30 28 2 28 29
M  V30 29 1 29 30
M  V30 30 2 30 31
M  V30 31 1 19 14
M  V30 32 1 31 26
M  V30 33 1 24 16
M  V30 34 1 1 32
M  V30 35 1 1 33
M  V30 36 1 1 34
M  V30 37 1 2 35
M  V30 38 1 2 36
M  V30 39 1 4 37
M  V30 40 1 4 38
M  V30 41 1 5 39
M  V30 42 1 5 40
M  V30 43 1 5 41
M  V30 44 1 6 42
M  V30 45 1 6 43
M  V30 46 1 7 44
M  V30 47 1 7 45
M  V30 48 1 8 46
M  V30 49 1 8 47
M  V30 50 1 9 48
M  V30 51 1 9 49
M  V30 52 1 10 50
M  V30 53 1 10 51
M  V30 54 1 11 52
M  V30 55 1 20 53
M  V30 56 1 20 54
M  V30 57 1 25 55
M  V30 58 1 25 56
M  V30 59 1 27 57
M  V30 60 1 28 58
M  V30 61 1 29 59
M  V30 62 1 30 60
M  V30 63 1 31 61
M  V30 END BOND
M  V30 END CTAB
M  END
