
     RDKit          3D

  0  0  0  0  0  0  0  0  0  0999 V3000
M  V30 BEGIN CTAB
M  V30 COUNTS 26 26 0 0 0
M  V30 BEGIN ATOM
M  V30 1 O -1.36998 1.65382 0.857977 0
M  V30 2 C -1.63286 0.519833 0.50485 0
M  V30 3 C -3.07567 0.132925 0.494818 0 CFG=1
M  V30 4 N -3.92555 1.20376 0.916785 0
M  V30 5 C -3.47401 -0.417573 -0.857313 0
M  V30 6 N -0.684842 -0.420318 0.116876 0
M  V30 7 C 0.721845 -0.290673 0.0478049 0
M  V30 8 C 1.50867 -1.30124 -0.527512 0
M  V30 9 C 2.87894 -1.2305 -0.612582 0
M  V30 10 C 3.56279 -0.141903 -0.127521 0
M  V30 11 C 2.82178 0.862366 0.440754 0
M  V30 12 C 1.41607 0.788395 0.527466 0
M  V30 13 N 4.97447 -0.0183922 -0.189961 0
M  V30 14 H -3.17936 -0.690526 1.23481 0
M  V30 15 H -3.51259 2.10632 0.586474 0
M  V30 16 H -4.8908 1.10859 0.532307 0
M  V30 17 H -3.03405 -1.4241 -1.00236 0
M  V30 18 H -3.17849 0.248243 -1.66887 0
M  V30 19 H -4.58651 -0.51271 -0.839965 0
M  V30 20 H -1.05195 -1.402 -0.176442 0
M  V30 21 H 0.974692 -2.16127 -0.912266 0
M  V30 22 H 3.45935 -2.02438 -1.06123 0
M  V30 23 H 3.3501 1.72979 0.828718 0
M  V30 24 H 0.903807 1.62037 0.995733 0
M  V30 25 H 5.60749 -0.861882 -0.321565 0
M  V30 26 H 5.41666 0.923052 -0.105464 0
M  V30 END ATOM
M  V30 BEGIN BOND
M  V30 1 2 1 2
M  V30 2 1 2 3
M  V30 3 1 3 4
M  V30 4 1 3 5
M  V30 5 1 2 6
M  V30 6 1 6 7
M  V30 7 2 7 8
M  V30 8 1 8 9
M  V30 9 2 9 10
M  V30 10 1 10 11
M  V30 11 2 11 12
M  V30 12 1 10 13
M  V30 13 1 12 7
M  V30 14 1 3 14 CFG=1
M  V30 15 1 4 15
M  V30 16 1 4 16
M  V30 17 1 5 17
M  V30 18 1 5 18
M  V30 19 1 5 19
M  V30 20 1 6 20
M  V30 21 1 8 21
M  V30 22 1 9 22
M  V30 23 1 11 23
M  V30 24 1 12 24
M  V30 25 1 13 25
M  V30 26 1 13 26
M  V30 END BOND
M  V30 END CTAB
M  END
