
     RDKit          3D

  0  0  0  0  0  0  0  0  0  0999 V3000
M  V30 BEGIN CTAB
M  V30 COUNTS 37 38 0 0 0
M  V30 BEGIN ATOM
M  V30 1 C -5.20283 -0.0786354 0.58359 0
M  V30 2 C -4.02331 0.762672 0.152181 0
M  V30 3 C -4.10296 2.15726 0.790286 0
M  V30 4 O -2.79749 0.166481 0.366795 0
M  V30 5 C -1.82284 -0.201816 -0.507565 0
M  V30 6 C -0.685624 -0.79297 0.0450133 0
M  V30 7 C 0.387239 -1.22152 -0.6891 0
M  V30 8 C 1.6194 -1.83811 -0.179039 0
M  V30 9 C 2.79857 -0.996919 -0.116477 0
M  V30 10 C 2.97024 -0.0761529 0.877856 0
M  V30 11 N 2.03426 0.124389 1.92694 0
M  V30 12 N 4.1111 0.687697 0.862469 0
M  V30 13 C 5.03836 0.565278 -0.0689933 0
M  V30 14 N 6.21243 1.39533 -0.0302361 0
M  V30 15 N 4.87984 -0.338255 -1.05269 0
M  V30 16 C 3.77581 -1.11065 -1.07897 0
M  V30 17 C 0.284971 -1.03263 -2.06502 0
M  V30 18 C -0.829839 -0.450922 -2.63038 0
M  V30 19 C -1.89686 -0.0273942 -1.86897 0
M  V30 20 H -4.79685 -0.87254 1.25426 0
M  V30 21 H -5.94297 0.486724 1.18684 0
M  V30 22 H -5.74138 -0.526238 -0.263076 0
M  V30 23 H -4.15384 0.937388 -0.934562 0
M  V30 24 H -4.68861 2.12008 1.73336 0
M  V30 25 H -3.07157 2.50486 0.909805 0
M  V30 26 H -4.65672 2.86047 0.124991 0
M  V30 27 H -0.634091 -0.941352 1.13412 0
M  V30 28 H 1.35854 -2.23467 0.849933 0
M  V30 29 H 1.81731 -2.74063 -0.801482 0
M  V30 30 H 1.34824 0.895348 1.85379 0
M  V30 31 H 2.01865 -0.48081 2.76587 0
M  V30 32 H 6.53399 1.83925 -0.890623 0
M  V30 33 H 6.69884 1.52282 0.855637 0
M  V30 34 H 3.71336 -1.82575 -1.91051 0
M  V30 35 H 1.11371 -1.35788 -2.69236 0
M  V30 36 H -0.890981 -0.311671 -3.714 0
M  V30 37 H -2.77611 0.431464 -2.3121 0
M  V30 END ATOM
M  V30 BEGIN BOND
M  V30 1 1 1 2
M  V30 2 1 2 3
M  V30 3 1 2 4
M  V30 4 1 4 5
M  V30 5 2 5 6
M  V30 6 1 6 7
M  V30 7 1 7 8
M  V30 8 1 8 9
M  V30 9 2 9 10
M  V30 10 1 10 11
M  V30 11 1 10 12
M  V30 12 2 12 13
M  V30 13 1 13 14
M  V30 14 1 13 15
M  V30 15 2 15 16
M  V30 16 2 7 17
M  V30 17 1 17 18
M  V30 18 2 18 19
M  V30 19 1 19 5
M  V30 20 1 16 9
M  V30 21 1 1 20
M  V30 22 1 1 21
M  V30 23 1 1 22
M  V30 24 1 2 23
M  V30 25 1 3 24
M  V30 26 1 3 25
M  V30 27 1 3 26
M  V30 28 1 6 27
M  V30 29 1 8 28
M  V30 30 1 8 29
M  V30 31 1 11 30
M  V30 32 1 11 31
M  V30 33 1 14 32
M  V30 34 1 14 33
M  V30 35 1 16 34
M  V30 36 1 17 35
M  V30 37 1 18 36
M  V30 38 1 19 37
M  V30 END BOND
M  V30 END CTAB
M  END
