
     RDKit          3D

  0  0  0  0  0  0  0  0  0  0999 V3000
M  V30 BEGIN CTAB
M  V30 COUNTS 82 90 0 0 0
M  V30 BEGIN ATOM
M  V30 1 N -3.7725 3.81658 1.38982 0
M  V30 2 C -4.00007 4.02069 -0.000399535 0
M  V30 3 C -5.01956 4.90575 -0.349372 0
M  V30 4 C -5.21552 5.12887 -1.69403 0
M  V30 5 C -4.46069 4.52446 -2.66494 0
M  V30 6 C -3.46925 3.66078 -2.27189 0
M  V30 7 C -3.22984 3.39958 -0.923175 0
M  V30 8 C -2.16321 2.42695 -0.602859 0
M  V30 9 C -2.39905 1.04081 -0.574742 0
M  V30 10 N -1.65316 0.00700884 -0.996231 0
M  V30 11 C -2.32686 -1.12056 -0.733724 0
M  V30 12 C -3.56152 -0.802549 -0.11912 0
M  V30 13 C -3.60407 0.565363 -0.0203814 0
M  V30 14 C -2.02411 -2.4719 -0.946904 0
M  V30 15 C -0.802348 -3.11428 -0.799103 0
M  V30 16 N 0.171228 -2.3828 -0.232239 0
M  V30 17 C 1.31754 -3.08554 -0.140012 0
M  V30 18 C 1.04197 -4.3195 -0.677889 0
M  V30 19 C -0.273047 -4.32481 -1.082 0
M  V30 20 C 2.43099 -2.4539 0.427295 0
M  V30 21 C 2.52871 -1.10364 0.795807 0
M  V30 22 C 3.13068 -0.793567 2.03945 0
M  V30 23 C 3.09453 0.557678 2.16668 0
M  V30 24 C 2.46799 1.04674 0.992237 0
M  V30 25 N 2.14239 0.0243589 0.189595 0
M  V30 26 C 2.27042 2.43781 0.840653 0
M  V30 27 C 1.14716 3.09171 0.38147 0
M  V30 28 C 0.814921 4.39157 0.0819706 0
M  V30 29 C -0.494104 4.35515 -0.339554 0
M  V30 30 C -0.976718 3.07972 -0.309412 0
M  V30 31 N 0.0504802 2.31329 0.138245 0
M  V30 32 C 3.36844 3.36219 1.24598 0
M  V30 33 C 4.43325 3.5249 0.386506 0
M  V30 34 C 5.49729 4.36438 0.680217 0
M  V30 35 C 5.5077 5.06965 1.86978 0
M  V30 36 C 4.43239 4.89191 2.71438 0
M  V30 37 C 3.36353 4.05017 2.4222 0
M  V30 38 C 3.55927 -3.40837 0.645664 0
M  V30 39 C 3.59903 -4.27926 1.67878 0
M  V30 40 C 4.70171 -5.12127 1.79049 0
M  V30 41 C 5.73673 -5.08988 0.888554 0
M  V30 42 C 5.70729 -4.2064 -0.168478 0
M  V30 43 C 4.58949 -3.36576 -0.266016 0
M  V30 44 C -3.08378 -3.44547 -1.36568 0
M  V30 45 C -3.34058 -3.67437 -2.70088 0
M  V30 46 N -2.61718 -3.00831 -3.71481 0
M  V30 47 C -4.32435 -4.57466 -3.06422 0
M  V30 48 C -5.05739 -5.2514 -2.11748 0
M  V30 49 C -4.79615 -5.01881 -0.784015 0
M  V30 50 C -3.81259 -4.11835 -0.426966 0
M  V30 51 H -2.88866 4.22176 1.78133 0
M  V30 52 H -4.47935 3.28936 1.92776 0
M  V30 53 H -5.62904 5.3966 0.386104 0
M  V30 54 H -5.99642 5.80869 -2.00159 0
M  V30 55 H -4.66534 4.74255 -3.70038 0
M  V30 56 H -2.85616 3.16681 -2.99377 0
M  V30 57 H -0.654969 0.0710278 -1.49857 0
M  V30 58 H -4.35436 -1.49371 0.219954 0
M  V30 59 H -4.44757 1.13914 0.406361 0
M  V30 60 H 1.78038 -5.12579 -0.748454 0
M  V30 61 H -0.772038 -5.14553 -1.53637 0
M  V30 62 H 3.56227 -1.4826 2.78238 0
M  V30 63 H 3.48428 1.15082 3.01709 0
M  V30 64 H 1.65245 0.0980136 -0.817923 0
M  V30 65 H 1.48062 5.23302 0.174893 0
M  V30 66 H -1.04443 5.23637 -0.648397 0
M  V30 67 H 4.44067 2.97402 -0.558614 0
M  V30 68 H 6.34241 4.50604 0.020858 0
M  V30 69 H 6.31929 5.73771 2.14125 0
M  V30 70 H 4.43026 5.43723 3.64377 0
M  V30 71 H 2.53052 3.91672 3.0832 0
M  V30 72 H 2.77591 -4.28943 2.37829 0
M  V30 73 H 4.7415 -5.80903 2.59789 0
M  V30 74 H 6.57592 -5.74658 0.992837 0
M  V30 75 H 6.49444 -4.13903 -0.906576 0
M  V30 76 H 4.58884 -2.68257 -1.10228 0
M  V30 77 H -1.87527 -3.51529 -4.21996 0
M  V30 78 H -2.83522 -2.02706 -3.94033 0
M  V30 79 H -4.51632 -4.74634 -4.11364 0
M  V30 80 H -5.83695 -5.96376 -2.42876 0
M  V30 81 H -5.38113 -5.55955 -0.0541025 0
M  V30 82 H -3.59401 -3.92235 0.618371 0
M  V30 END ATOM
M  V30 BEGIN BOND
M  V30 1 1 1 2
M  V30 2 2 2 3
M  V30 3 1 3 4
M  V30 4 2 4 5
M  V30 5 1 5 6
M  V30 6 2 6 7
M  V30 7 1 7 8
M  V30 8 2 8 9
M  V30 9 1 9 10
M  V30 10 1 10 11
M  V30 11 1 11 12
M  V30 12 2 12 13
M  V30 13 2 11 14
M  V30 14 1 14 15
M  V30 15 2 15 16
M  V30 16 1 16 17
M  V30 17 1 17 18
M  V30 18 2 18 19
M  V30 19 2 17 20
M  V30 20 1 20 21
M  V30 21 2 21 22
M  V30 22 1 22 23
M  V30 23 2 23 24
M  V30 24 1 24 25
M  V30 25 1 24 26
M  V30 26 2 26 27
M  V30 27 1 27 28
M  V30 28 2 28 29
M  V30 29 1 29 30
M  V30 30 2 30 31
M  V30 31 1 26 32
M  V30 32 2 32 33
M  V30 33 1 33 34
M  V30 34 2 34 35
M  V30 35 1 35 36
M  V30 36 2 36 37
M  V30 37 1 20 38
M  V30 38 2 38 39
M  V30 39 1 39 40
M  V30 40 2 40 41
M  V30 41 1 41 42
M  V30 42 2 42 43
M  V30 43 1 14 44
M  V30 44 2 44 45
M  V30 45 1 45 46
M  V30 46 1 45 47
M  V30 47 2 47 48
M  V30 48 1 48 49
M  V30 49 2 49 50
M  V30 50 1 7 2
M  V30 51 1 30 8
M  V30 52 1 37 32
M  V30 53 1 43 38
M  V30 54 1 50 44
M  V30 55 1 13 9
M  V30 56 1 19 15
M  V30 57 1 25 21
M  V30 58 1 31 27
M  V30 59 1 1 51
M  V30 60 1 1 52
M  V30 61 1 3 53
M  V30 62 1 4 54
M  V30 63 1 5 55
M  V30 64 1 6 56
M  V30 65 1 10 57
M  V30 66 1 12 58
M  V30 67 1 13 59
M  V30 68 1 18 60
M  V30 69 1 19 61
M  V30 70 1 22 62
M  V30 71 1 23 63
M  V30 72 1 25 64
M  V30 73 1 28 65
M  V30 74 1 29 66
M  V30 75 1 33 67
M  V30 76 1 34 68
M  V30 77 1 35 69
M  V30 78 1 36 70
M  V30 79 1 37 71
M  V30 80 1 39 72
M  V30 81 1 40 73
M  V30 82 1 41 74
M  V30 83 1 42 75
M  V30 84 1 43 76
M  V30 85 1 46 77
M  V30 86 1 46 78
M  V30 87 1 47 79
M  V30 88 1 48 80
M  V30 89 1 49 81
M  V30 90 1 50 82
M  V30 END BOND
M  V30 END CTAB
M  END
