
     RDKit          3D

  0  0  0  0  0  0  0  0  0  0999 V3000
M  V30 BEGIN CTAB
M  V30 COUNTS 34 35 0 0 0
M  V30 BEGIN ATOM
M  V30 1 N 3.70542 1.36109 1.64058 0
M  V30 2 C 3.02828 0.584609 0.659487 0
M  V30 3 C 3.77998 -0.349519 -0.0432009 0
M  V30 4 C 3.16578 -1.12429 -1.00353 0
M  V30 5 C 1.80183 -0.906421 -1.20219 0
M  V30 6 C 1.08218 0.0145972 -0.502387 0
M  V30 7 N 1.71937 0.753555 0.429003 0
M  V30 8 C -0.391968 0.201273 -0.748583 0 CFG=1
M  V30 9 C -0.985273 -0.899223 -1.55302 0
M  V30 10 O -0.803126 -2.13559 -1.01307 0
M  V30 11 C -1.00898 -2.29202 0.320342 0
M  V30 12 C -2.30703 -1.6853 0.811768 0
M  V30 13 C -2.36292 -0.210692 0.618378 0
M  V30 14 N -1.07182 0.426311 0.478681 0
M  V30 15 S -1.44479 2.12357 0.710747 0
M  V30 16 O -0.255594 2.99232 0.678391 0
M  V30 17 O -2.22128 2.2773 1.98178 0
M  V30 18 N -2.50224 2.64968 -0.579172 0
M  V30 19 H 4.49532 0.967318 2.18703 0
M  V30 20 H 3.40846 2.35249 1.82322 0
M  V30 21 H 4.82617 -0.504967 0.120824 0
M  V30 22 H 3.67296 -1.8703 -1.59314 0
M  V30 23 H 1.32897 -1.51195 -1.96039 0
M  V30 24 H -0.452321 1.13465 -1.36675 0
M  V30 25 H -2.04535 -0.633954 -1.74814 0
M  V30 26 H -0.523119 -0.924066 -2.57794 0
M  V30 27 H -1.10486 -3.39948 0.517929 0
M  V30 28 H -0.213557 -1.92137 0.988905 0
M  V30 29 H -3.17661 -2.19547 0.303814 0
M  V30 30 H -2.39884 -1.98858 1.87712 0
M  V30 31 H -3.08804 0.0926764 -0.163232 0
M  V30 32 H -2.79114 0.221966 1.57323 0
M  V30 33 H -1.93847 2.85813 -1.42723 0
M  V30 34 H -2.92737 3.54163 -0.239254 0
M  V30 END ATOM
M  V30 BEGIN BOND
M  V30 1 1 1 2
M  V30 2 2 2 3
M  V30 3 1 3 4
M  V30 4 2 4 5
M  V30 5 1 5 6
M  V30 6 2 6 7
M  V30 7 1 6 8
M  V30 8 1 8 9
M  V30 9 1 9 10
M  V30 10 1 10 11
M  V30 11 1 11 12
M  V30 12 1 12 13
M  V30 13 1 13 14
M  V30 14 1 14 15
M  V30 15 2 15 16
M  V30 16 2 15 17
M  V30 17 1 15 18
M  V30 18 1 7 2
M  V30 19 1 14 8
M  V30 20 1 1 19
M  V30 21 1 1 20
M  V30 22 1 3 21
M  V30 23 1 4 22
M  V30 24 1 5 23
M  V30 25 1 8 24 CFG=3
M  V30 26 1 9 25
M  V30 27 1 9 26
M  V30 28 1 11 27
M  V30 29 1 11 28
M  V30 30 1 12 29
M  V30 31 1 12 30
M  V30 32 1 13 31
M  V30 33 1 13 32
M  V30 34 1 18 33
M  V30 35 1 18 34
M  V30 END BOND
M  V30 END CTAB
M  END
