
     RDKit          3D

  0  0  0  0  0  0  0  0  0  0999 V3000
M  V30 BEGIN CTAB
M  V30 COUNTS 40 43 0 0 0
M  V30 BEGIN ATOM
M  V30 1 N 1.86636 3.54518 -0.111701 0
M  V30 2 C 0.962629 2.64703 -0.53216 0
M  V30 3 C 0.0415255 1.78031 0.216945 0
M  V30 4 C 0.239465 0.425342 -0.0459773 0
M  V30 5 N -0.740513 -0.483876 -0.0792278 0
M  V30 6 C -1.95777 -0.0418699 0.14803 0
M  V30 7 N -2.20546 1.24906 0.421427 0
M  V30 8 C -1.24289 2.23154 0.493098 0
M  V30 9 N -1.45782 3.53016 0.992602 0
M  V30 10 C -3.11969 -0.957528 0.105518 0
M  V30 11 C -2.96633 -2.27432 0.377307 0
M  V30 12 C -4.16166 -3.02271 0.468 0
M  V30 13 C -5.38409 -2.42458 0.314685 0
M  V30 14 C -5.50754 -1.08648 0.0278192 0
M  V30 15 C -4.3438 -0.380553 -0.0870338 0
M  V30 16 C 1.63481 -0.0260234 0.0683283 0
M  V30 17 C 2.01228 -1.04827 -0.726413 0
M  V30 18 C 3.31893 -1.56668 -0.58832 0
M  V30 19 C 4.11492 -0.992053 0.366308 0
M  V30 20 O 5.3501 -1.6741 0.3283 0
M  V30 21 C 5.15474 -2.82172 -0.452402 0
M  V30 22 O 3.98964 -2.58213 -1.21029 0
M  V30 23 C 3.70903 0.05426 1.18866 0
M  V30 24 C 2.43338 0.512892 0.990175 0
M  V30 25 H 2.46789 3.88161 -0.900589 0
M  V30 26 H 2.13133 3.6706 0.839672 0
M  V30 27 H 0.940687 2.45314 -1.66209 0
M  V30 28 H 0.0912776 3.63727 -0.787882 0
M  V30 29 H -1.84827 3.52497 2.01523 0
M  V30 30 H -1.29222 4.43231 0.572502 0
M  V30 31 H -2.02023 -2.77511 0.442391 0
M  V30 32 H -4.04089 -4.07344 0.706867 0
M  V30 33 H -6.26797 -3.04157 0.469335 0
M  V30 34 H -6.46489 -0.625383 -0.117574 0
M  V30 35 H -4.33226 0.68568 -0.402634 0
M  V30 36 H 1.36164 -1.49625 -1.48044 0
M  V30 37 H 5.95125 -2.99321 -1.21416 0
M  V30 38 H 5.08536 -3.65573 0.250158 0
M  V30 39 H 4.39497 0.490105 1.94147 0
M  V30 40 H 2.10206 1.29213 1.69124 0
M  V30 END ATOM
M  V30 BEGIN BOND
M  V30 1 1 1 2
M  V30 2 1 2 3
M  V30 3 2 3 4
M  V30 4 1 4 5
M  V30 5 2 5 6
M  V30 6 1 6 7
M  V30 7 2 7 8
M  V30 8 1 8 9
M  V30 9 1 6 10
M  V30 10 2 10 11
M  V30 11 1 11 12
M  V30 12 2 12 13
M  V30 13 1 13 14
M  V30 14 2 14 15
M  V30 15 1 4 16
M  V30 16 2 16 17
M  V30 17 1 17 18
M  V30 18 2 18 19
M  V30 19 1 19 20
M  V30 20 1 20 21
M  V30 21 1 21 22
M  V30 22 1 19 23
M  V30 23 2 23 24
M  V30 24 1 8 3
M  V30 25 1 15 10
M  V30 26 1 24 16
M  V30 27 1 22 18
M  V30 28 1 1 25
M  V30 29 1 1 26
M  V30 30 1 2 27
M  V30 31 1 2 28
M  V30 32 1 9 29
M  V30 33 1 9 30
M  V30 34 1 11 31
M  V30 35 1 12 32
M  V30 36 1 13 33
M  V30 37 1 14 34
M  V30 38 1 15 35
M  V30 39 1 17 36
M  V30 40 1 21 37
M  V30 41 1 21 38
M  V30 42 1 23 39
M  V30 43 1 24 40
M  V30 END BOND
M  V30 END CTAB
M  END
