
     RDKit          3D

  0  0  0  0  0  0  0  0  0  0999 V3000
M  V30 BEGIN CTAB
M  V30 COUNTS 27 27 0 0 0
M  V30 BEGIN ATOM
M  V30 1 N 0.62842 3.39257 0.253772 0
M  V30 2 C 0.503738 1.99084 0.0407116 0
M  V30 3 C -0.741379 1.41357 0.213641 0
M  V30 4 C -0.870091 0.0730445 0.0184262 0
M  V30 5 C 0.194524 -0.710323 -0.342353 0
M  V30 6 C 1.43715 -0.133686 -0.515005 0
M  V30 7 C 1.59583 1.22497 -0.322435 0
M  V30 8 S 2.76297 -1.17705 -0.982588 0
M  V30 9 O 3.7506 -0.471124 -1.875 0
M  V30 10 O 2.19659 -2.33614 -1.76126 0
M  V30 11 N 3.53868 -1.82312 0.413877 0
M  V30 12 N -2.1269 -0.566502 0.180879 0
M  V30 13 C -2.92812 -1.00664 -0.930413 0
M  V30 14 C -2.55082 -0.74336 1.5783 0
M  V30 15 H 1.42969 3.93052 -0.106972 0
M  V30 16 H -0.100453 3.9088 0.788649 0
M  V30 17 H -1.6066 2.04769 0.508289 0
M  V30 18 H 0.0997155 -1.78499 -0.504324 0
M  V30 19 H 2.5644 1.6813 -0.455652 0
M  V30 20 H 2.93866 -1.78296 1.26827 0
M  V30 21 H 4.50009 -1.46538 0.551321 0
M  V30 22 H -2.30649 -1.50057 -1.72334 0
M  V30 23 H -3.45751 -0.158449 -1.399 0
M  V30 24 H -3.65703 -1.75846 -0.582629 0
M  V30 25 H -1.68466 -1.21596 2.07028 0
M  V30 26 H -3.47153 -1.31734 1.60542 0
M  V30 27 H -2.63949 0.28879 2.00914 0
M  V30 END ATOM
M  V30 BEGIN BOND
M  V30 1 1 1 2
M  V30 2 2 2 3
M  V30 3 1 3 4
M  V30 4 2 4 5
M  V30 5 1 5 6
M  V30 6 2 6 7
M  V30 7 1 6 8
M  V30 8 2 8 9
M  V30 9 2 8 10
M  V30 10 1 8 11
M  V30 11 1 4 12
M  V30 12 1 12 13
M  V30 13 1 12 14
M  V30 14 1 7 2
M  V30 15 1 1 15
M  V30 16 1 1 16
M  V30 17 1 3 17
M  V30 18 1 5 18
M  V30 19 1 7 19
M  V30 20 1 11 20
M  V30 21 1 11 21
M  V30 22 1 13 22
M  V30 23 1 13 23
M  V30 24 1 13 24
M  V30 25 1 14 25
M  V30 26 1 14 26
M  V30 27 1 14 27
M  V30 END BOND
M  V30 END CTAB
M  END
