
     RDKit          3D

  0  0  0  0  0  0  0  0  0  0999 V3000
M  V30 BEGIN CTAB
M  V30 COUNTS 21 21 0 0 0
M  V30 BEGIN ATOM
M  V30 1 C -3.54111 0.392337 -0.170724 0
M  V30 2 C -2.59815 -0.530646 -0.859978 0
M  V30 3 O -1.24978 -0.353261 -0.514418 0
M  V30 4 C -0.719324 -0.475029 0.732647 0
M  V30 5 O -1.47911 -0.772753 1.68511 0
M  V30 6 C 0.696448 -0.279727 1.04301 0
M  V30 7 N 1.28008 -0.38498 2.24859 0
M  V30 8 N 2.57544 -0.138958 2.14205 0
M  V30 9 C 2.86772 0.133684 0.858458 0
M  V30 10 N 1.69935 0.0422931 0.197441 0
M  V30 11 N 1.49 0.238764 -1.15575 0
M  V30 12 N 4.11619 0.456415 0.259127 0
M  V30 13 H -4.47121 0.444602 -0.775196 0
M  V30 14 H -3.15934 1.44693 -0.116644 0
M  V30 15 H -3.84841 0.025131 0.830157 0
M  V30 16 H -2.882 -1.57935 -0.560873 0
M  V30 17 H -2.77586 -0.464636 -1.95036 0
M  V30 18 H 1.62022 1.15534 -1.61312 0
M  V30 19 H 1.18904 -0.566175 -1.74121 0
M  V30 20 H 4.51953 1.40977 0.39845 0
M  V30 21 H 4.67028 -0.199748 -0.320335 0
M  V30 END ATOM
M  V30 BEGIN BOND
M  V30 1 1 1 2
M  V30 2 1 2 3
M  V30 3 1 3 4
M  V30 4 2 4 5
M  V30 5 1 4 6
M  V30 6 2 6 7
M  V30 7 1 7 8
M  V30 8 2 8 9
M  V30 9 1 9 10
M  V30 10 1 10 11
M  V30 11 1 9 12
M  V30 12 1 10 6
M  V30 13 1 1 13
M  V30 14 1 1 14
M  V30 15 1 1 15
M  V30 16 1 2 16
M  V30 17 1 2 17
M  V30 18 1 11 18
M  V30 19 1 11 19
M  V30 20 1 12 20
M  V30 21 1 12 21
M  V30 END BOND
M  V30 END CTAB
M  END
