
     RDKit          3D

  0  0  0  0  0  0  0  0  0  0999 V3000
M  V30 BEGIN CTAB
M  V30 COUNTS 36 37 0 0 0
M  V30 BEGIN ATOM
M  V30 1 N 2.35316 -3.43312 0.080696 0
M  V30 2 C 1.23933 -2.51035 0.29967 0
M  V30 3 C 1.54777 -1.30469 -0.506155 0
M  V30 4 N 0.608429 -0.225556 -0.450228 0
M  V30 5 C -0.750612 -0.268294 -0.987665 0 CFG=1
M  V30 6 C -1.65789 -0.643446 0.134597 0
M  V30 7 C -3.11039 -0.74251 -0.247333 0
M  V30 8 N -3.83558 -1.12809 0.976058 0
M  V30 9 C -1.13502 0.951667 -1.72655 0
M  V30 10 N -0.391178 2.15019 -1.44133 0
M  V30 11 C 0.479255 2.21523 -0.333126 0
M  V30 12 C 0.97428 1.03317 0.156452 0
M  V30 13 C 1.84907 0.991116 1.23903 0
M  V30 14 C 2.20721 2.19265 1.81195 0
M  V30 15 C 1.69869 3.36465 1.30436 0
M  V30 16 C 0.837283 3.42021 0.239734 0
M  V30 17 H 2.598 -3.39015 -0.907896 0
M  V30 18 H 3.15769 -3.18339 0.646364 0
M  V30 19 H 0.358193 -3.09733 -0.0940463 0
M  V30 20 H 1.14212 -2.37573 1.37259 0
M  V30 21 H 1.56617 -1.63039 -1.58826 0
M  V30 22 H 2.58405 -0.995261 -0.28759 0
M  V30 23 H -0.740239 -1.13847 -1.70384 0
M  V30 24 H -1.36691 -1.63462 0.523744 0
M  V30 25 H -1.59447 0.0533903 0.999614 0
M  V30 26 H -3.27202 -1.55666 -0.979739 0
M  V30 27 H -3.57439 0.217788 -0.539522 0
M  V30 28 H -3.22386 -1.15438 1.80018 0
M  V30 29 H -4.39637 -1.99593 0.832703 0
M  V30 30 H -1.02853 0.782114 -2.84365 0
M  V30 31 H -2.2057 1.23907 -1.61905 0
M  V30 32 H -0.514705 2.97951 -2.08021 0
M  V30 33 H 2.22697 0.0245878 1.59996 0
M  V30 34 H 2.88912 2.16464 2.65741 0
M  V30 35 H 2.02641 4.28148 1.80642 0
M  V30 36 H 0.454649 4.34689 -0.145328 0
M  V30 END ATOM
M  V30 BEGIN BOND
M  V30 1 1 1 2
M  V30 2 1 2 3
M  V30 3 1 3 4
M  V30 4 1 4 5
M  V30 5 1 5 6
M  V30 6 1 6 7
M  V30 7 1 7 8
M  V30 8 1 5 9
M  V30 9 1 9 10
M  V30 10 1 10 11
M  V30 11 2 11 12
M  V30 12 1 12 13
M  V30 13 2 13 14
M  V30 14 1 14 15
M  V30 15 2 15 16
M  V30 16 1 12 4
M  V30 17 1 16 11
M  V30 18 1 1 17
M  V30 19 1 1 18
M  V30 20 1 2 19
M  V30 21 1 2 20
M  V30 22 1 3 21
M  V30 23 1 3 22
M  V30 24 1 5 23 CFG=3
M  V30 25 1 6 24
M  V30 26 1 6 25
M  V30 27 1 7 26
M  V30 28 1 7 27
M  V30 29 1 8 28
M  V30 30 1 8 29
M  V30 31 1 9 30
M  V30 32 1 9 31
M  V30 33 1 10 32
M  V30 34 1 13 33
M  V30 35 1 14 34
M  V30 36 1 15 35
M  V30 37 1 16 36
M  V30 END BOND
M  V30 END CTAB
M  END
