
     RDKit          3D

  0  0  0  0  0  0  0  0  0  0999 V3000
M  V30 BEGIN CTAB
M  V30 COUNTS 37 38 0 0 0
M  V30 BEGIN ATOM
M  V30 1 C 0.159911 1.96765 2.2237 0
M  V30 2 C -0.33006 0.560606 2.12475 0
M  V30 3 C 0.02919 -0.119598 0.819751 0
M  V30 4 C 1.49895 -0.179242 0.630959 0
M  V30 5 O 2.24874 0.299238 1.5119 0
M  V30 6 N 2.06457 -0.761666 -0.515866 0
M  V30 7 C 3.45855 -0.862792 -0.783153 0
M  V30 8 N 3.9725 -1.43943 -1.91098 0
M  V30 9 O 5.24914 -1.3839 -1.87398 0
M  V30 10 C 5.69986 -0.80367 -0.791321 0
M  V30 11 C 4.55682 -0.456784 -0.0682212 0
M  V30 12 C 7.12786 -0.552881 -0.390213 0
M  V30 13 S -0.804778 0.607302 -0.603357 0
M  V30 14 C -2.5666 0.341011 -0.534776 0
M  V30 15 N -3.042 -0.789376 -1.1088 0
M  V30 16 C -4.36433 -1.00666 -1.07099 0
M  V30 17 N -4.88028 -2.18102 -1.66431 0
M  V30 18 C -5.25784 -0.140372 -0.479689 0
M  V30 19 C -4.74882 1.004 0.0978885 0
M  V30 20 N -3.41128 1.20724 0.0505497 0
M  V30 21 N -5.65121 1.90468 0.707781 0
M  V30 22 H 0.436863 2.4202 1.24765 0
M  V30 23 H -0.580193 2.59472 2.78646 0
M  V30 24 H 1.08034 1.99051 2.85815 0
M  V30 25 H -1.41697 0.526135 2.31908 0
M  V30 26 H 0.116765 -0.100133 2.92603 0
M  V30 27 H -0.368276 -1.17044 0.918014 0
M  V30 28 H 1.37249 -1.15058 -1.22753 0
M  V30 29 H 4.55147 0.0368634 0.871984 0
M  V30 30 H 7.80229 -1.30203 -0.823857 0
M  V30 31 H 7.15411 -0.493256 0.706631 0
M  V30 32 H 7.37368 0.455515 -0.785922 0
M  V30 33 H -5.49283 -2.78295 -1.03753 0
M  V30 34 H -4.68722 -2.45776 -2.6451 0
M  V30 35 H -6.32491 -0.308585 -0.445028 0
M  V30 36 H -5.57798 2.16819 1.70988 0
M  V30 37 H -6.44849 2.35925 0.181783 0
M  V30 END ATOM
M  V30 BEGIN BOND
M  V30 1 1 1 2
M  V30 2 1 2 3
M  V30 3 1 3 4
M  V30 4 2 4 5
M  V30 5 1 4 6
M  V30 6 1 6 7
M  V30 7 2 7 8
M  V30 8 1 8 9
M  V30 9 1 9 10
M  V30 10 2 10 11
M  V30 11 1 10 12
M  V30 12 1 3 13
M  V30 13 1 13 14
M  V30 14 2 14 15
M  V30 15 1 15 16
M  V30 16 1 16 17
M  V30 17 2 16 18
M  V30 18 1 18 19
M  V30 19 2 19 20
M  V30 20 1 19 21
M  V30 21 1 11 7
M  V30 22 1 20 14
M  V30 23 1 1 22
M  V30 24 1 1 23
M  V30 25 1 1 24
M  V30 26 1 2 25
M  V30 27 1 2 26
M  V30 28 1 3 27
M  V30 29 1 6 28
M  V30 30 1 11 29
M  V30 31 1 12 30
M  V30 32 1 12 31
M  V30 33 1 12 32
M  V30 34 1 17 33
M  V30 35 1 17 34
M  V30 36 1 18 35
M  V30 37 1 21 36
M  V30 38 1 21 37
M  V30 END BOND
M  V30 END CTAB
M  END
