
     RDKit          3D

  0  0  0  0  0  0  0  0  0  0999 V3000
M  V30 BEGIN CTAB
M  V30 COUNTS 26 26 0 0 0
M  V30 BEGIN ATOM
M  V30 1 N 2.95415 -1.93143 -0.0364101 0
M  V30 2 N 2.4721 -0.630078 0.0562261 0
M  V30 3 C 1.58415 -0.14009 -0.932168 0
M  V30 4 O 1.26052 -0.913718 -1.87118 0
M  V30 5 C 1.02679 1.22077 -0.912754 0
M  V30 6 S -0.164966 1.43263 0.404301 0
M  V30 7 C -1.63052 0.469083 0.0788641 0
M  V30 8 C -2.66152 0.970513 -0.707162 0
M  V30 9 C -3.81446 0.274927 -0.973209 0
M  V30 10 N -3.94166 -0.950444 -0.442166 0
M  V30 11 C -2.97062 -1.46742 0.320232 0
M  V30 12 C -1.78079 -0.790216 0.61486 0
M  V30 13 N -0.795211 -1.39287 1.4426 0
M  V30 14 C 2.12832 2.26647 -0.802021 0
M  V30 15 H 3.45537 -2.07832 -0.934943 0
M  V30 16 H 3.47713 -2.23372 0.805012 0
M  V30 17 H 2.79296 -0.0511386 0.871437 0
M  V30 18 H 0.518248 1.39993 -1.89318 0
M  V30 19 H -2.49463 1.96765 -1.10601 0
M  V30 20 H -4.57868 0.728422 -1.59523 0
M  V30 21 H -3.04754 -2.46808 0.768299 0
M  V30 22 H -0.218016 -0.806995 2.06609 0
M  V30 23 H -0.649155 -2.41902 1.42654 0
M  V30 24 H 3.02796 1.96881 -1.36084 0
M  V30 25 H 2.33236 2.37032 0.284838 0
M  V30 26 H 1.71772 3.20403 -1.22776 0
M  V30 END ATOM
M  V30 BEGIN BOND
M  V30 1 1 1 2
M  V30 2 1 2 3
M  V30 3 2 3 4
M  V30 4 1 3 5
M  V30 5 1 5 6
M  V30 6 1 6 7
M  V30 7 2 7 8
M  V30 8 1 8 9
M  V30 9 2 9 10
M  V30 10 1 10 11
M  V30 11 2 11 12
M  V30 12 1 12 13
M  V30 13 1 5 14
M  V30 14 1 12 7
M  V30 15 1 1 15
M  V30 16 1 1 16
M  V30 17 1 2 17
M  V30 18 1 5 18
M  V30 19 1 8 19
M  V30 20 1 9 20
M  V30 21 1 11 21
M  V30 22 1 13 22
M  V30 23 1 13 23
M  V30 24 1 14 24
M  V30 25 1 14 25
M  V30 26 1 14 26
M  V30 END BOND
M  V30 END CTAB
M  END
