
     RDKit          3D

  0  0  0  0  0  0  0  0  0  0999 V3000
M  V30 BEGIN CTAB
M  V30 COUNTS 26 28 0 0 0
M  V30 BEGIN ATOM
M  V30 1 N 4.55314 -0.27727 -0.363356 0
M  V30 2 C 3.14451 -0.112383 -0.260899 0
M  V30 3 C 2.35243 -1.21157 -0.040921 0
M  V30 4 C 0.974974 -1.0458 0.0586509 0
M  V30 5 C 0.376337 0.198043 -0.0577015 0
M  V30 6 C 1.18957 1.30344 -0.280403 0
M  V30 7 C 2.55279 1.14078 -0.379134 0
M  V30 8 C -1.0676 0.0661872 0.088311 0
M  V30 9 C -2.09025 0.989368 0.0532486 0
M  V30 10 N -1.85836 2.37716 -0.156371 0
M  V30 11 C -3.42188 0.601619 0.224166 0
M  V30 12 C -3.74739 -0.721128 0.433216 0
M  V30 13 C -2.7119 -1.63126 0.46536 0
M  V30 14 C -1.3891 -1.2598 0.297449 0
M  V30 15 C -0.121551 -1.98606 0.283974 0
M  V30 16 O 0.00285648 -3.23522 0.443098 0
M  V30 17 H 5.09687 -0.99053 0.160185 0
M  V30 18 H 5.05674 0.381115 -1.02177 0
M  V30 19 H 2.72851 -2.21908 0.0629741 0
M  V30 20 H 0.753287 2.27426 -0.373974 0
M  V30 21 H 3.14588 2.02807 -0.552602 0
M  V30 22 H -1.50219 2.66135 -1.09709 0
M  V30 23 H -2.0441 3.07148 0.616456 0
M  V30 24 H -4.23781 1.31007 0.200025 0
M  V30 25 H -4.79001 -1.02544 0.567143 0
M  V30 26 H -2.94575 -2.68739 0.629962 0
M  V30 END ATOM
M  V30 BEGIN BOND
M  V30 1 1 1 2
M  V30 2 2 2 3
M  V30 3 1 3 4
M  V30 4 2 4 5
M  V30 5 1 5 6
M  V30 6 2 6 7
M  V30 7 1 5 8
M  V30 8 2 8 9
M  V30 9 1 9 10
M  V30 10 1 9 11
M  V30 11 2 11 12
M  V30 12 1 12 13
M  V30 13 2 13 14
M  V30 14 1 14 15
M  V30 15 2 15 16
M  V30 16 1 7 2
M  V30 17 1 14 8
M  V30 18 1 15 4
M  V30 19 1 1 17
M  V30 20 1 1 18
M  V30 21 1 3 19
M  V30 22 1 6 20
M  V30 23 1 7 21
M  V30 24 1 10 22
M  V30 25 1 10 23
M  V30 26 1 11 24
M  V30 27 1 12 25
M  V30 28 1 13 26
M  V30 END BOND
M  V30 END CTAB
M  END
