
     RDKit          3D

  0  0  0  0  0  0  0  0  0  0999 V3000
M  V30 BEGIN CTAB
M  V30 COUNTS 49 51 0 0 0
M  V30 BEGIN ATOM
M  V30 1 N 5.60747 -0.688508 1.47408 0
M  V30 2 C 4.90365 -0.797973 0.211511 0
M  V30 3 C 5.03521 0.443682 -0.621252 0
M  V30 4 C 4.10016 1.54498 -0.202555 0
M  V30 5 C 2.70815 1.05983 0.074893 0
M  V30 6 C 2.51136 -0.391648 -0.299702 0
M  V30 7 C 3.4936 -1.20589 0.481822 0
M  V30 8 C 1.1282 -0.75833 0.156797 0
M  V30 9 O 0.958309 -1.68971 1.00445 0
M  V30 10 N -0.0200742 -0.0847236 -0.337705 0
M  V30 11 C -1.32606 -0.428768 0.0913437 0
M  V30 12 C -2.18989 -0.956943 -1.01511 0
M  V30 13 C -2.2836 0.125856 -2.06855 0
M  V30 14 C -3.00552 1.31288 -1.50038 0
M  V30 15 C -2.52878 1.76483 -0.172791 0
M  V30 16 C -2.09236 0.676794 0.755299 0
M  V30 17 C -3.22175 0.0505197 1.49985 0
M  V30 18 C -3.92696 -1.04774 0.81628 0
M  V30 19 C -3.5479 -1.37742 -0.559353 0
M  V30 20 N -5.37379 -0.767943 0.856329 0
M  V30 21 H 5.24044 0.175755 1.96324 0
M  V30 22 H 5.25803 -1.49334 2.07213 0
M  V30 23 H 5.40962 -1.62134 -0.358529 0
M  V30 24 H 4.94829 0.244914 -1.70877 0
M  V30 25 H 6.07663 0.82675 -0.466905 0
M  V30 26 H 4.53625 2.12695 0.65218 0
M  V30 27 H 4.03219 2.26355 -1.05261 0
M  V30 28 H 2.51532 1.14071 1.16521 0
M  V30 29 H 1.92249 1.64375 -0.448454 0
M  V30 30 H 2.61247 -0.562155 -1.39249 0
M  V30 31 H 3.24293 -1.06312 1.57175 0
M  V30 32 H 3.33904 -2.29054 0.236031 0
M  V30 33 H 0.136037 0.676263 -1.03026 0
M  V30 34 H -1.27584 -1.26629 0.851103 0
M  V30 35 H -1.6122 -1.79576 -1.49636 0
M  V30 36 H -2.91837 -0.223261 -2.93817 0
M  V30 37 H -1.27497 0.373681 -2.45846 0
M  V30 38 H -4.10826 1.12779 -1.55232 0
M  V30 39 H -2.83589 2.16128 -2.22767 0
M  V30 40 H -3.36053 2.31563 0.329297 0
M  V30 41 H -1.70618 2.52886 -0.268916 0
M  V30 42 H -1.38764 1.15215 1.49411 0
M  V30 43 H -2.80631 -0.268121 2.50269 0
M  V30 44 H -3.9259 0.891064 1.77716 0
M  V30 45 H -3.81814 -1.97803 1.45 0
M  V30 46 H -3.61374 -2.49349 -0.733439 0
M  V30 47 H -4.29212 -0.949427 -1.26833 0
M  V30 48 H -5.56742 0.101819 1.41737 0
M  V30 49 H -5.69564 -0.52982 -0.120053 0
M  V30 END ATOM
M  V30 BEGIN BOND
M  V30 1 1 1 2
M  V30 2 1 2 3
M  V30 3 1 3 4
M  V30 4 1 4 5
M  V30 5 1 5 6
M  V30 6 1 6 7
M  V30 7 1 6 8
M  V30 8 2 8 9
M  V30 9 1 8 10
M  V30 10 1 10 11
M  V30 11 1 11 12
M  V30 12 1 12 13
M  V30 13 1 13 14
M  V30 14 1 14 15
M  V30 15 1 15 16
M  V30 16 1 16 17
M  V30 17 1 17 18
M  V30 18 1 18 19
M  V30 19 1 18 20
M  V30 20 1 7 2
M  V30 21 1 16 11
M  V30 22 1 19 12
M  V30 23 1 1 21
M  V30 24 1 1 22
M  V30 25 1 2 23
M  V30 26 1 3 24
M  V30 27 1 3 25
M  V30 28 1 4 26
M  V30 29 1 4 27
M  V30 30 1 5 28
M  V30 31 1 5 29
M  V30 32 1 6 30
M  V30 33 1 7 31
M  V30 34 1 7 32
M  V30 35 1 10 33
M  V30 36 1 11 34
M  V30 37 1 12 35
M  V30 38 1 13 36
M  V30 39 1 13 37
M  V30 40 1 14 38
M  V30 41 1 14 39
M  V30 42 1 15 40
M  V30 43 1 15 41
M  V30 44 1 16 42
M  V30 45 1 17 43
M  V30 46 1 17 44
M  V30 47 1 18 45
M  V30 48 1 19 46
M  V30 49 1 19 47
M  V30 50 1 20 48
M  V30 51 1 20 49
M  V30 END BOND
M  V30 END CTAB
M  END
