
     RDKit          3D

  0  0  0  0  0  0  0  0  0  0999 V3000
M  V30 BEGIN CTAB
M  V30 COUNTS 31 31 0 0 0
M  V30 BEGIN ATOM
M  V30 1 N 3.46996 0.619155 0.73954 0
M  V30 2 C 3.1062 0.684049 -0.612389 0
M  V30 3 C 1.65625 0.46163 -0.933273 0
M  V30 4 N 1.15882 -0.800689 -0.564352 0
M  V30 5 C 0.995527 -1.12067 0.804557 0
M  V30 6 C -0.121731 -0.306476 1.45953 0
M  V30 7 O -1.32638 -0.936934 1.33707 0
M  V30 8 C -2.00639 -0.808005 0.169904 0 CFG=2
M  V30 9 C -1.24119 -0.465758 -1.05424 0
M  V30 10 C -0.000913435 -1.2448 -1.30971 0
M  V30 11 S -3.3642 0.342498 0.27723 0
M  V30 12 O -4.04991 0.38687 -1.06567 0
M  V30 13 O -4.39685 -0.087379 1.28351 0
M  V30 14 N -2.79355 1.93874 0.588316 0
M  V30 15 H 3.61887 1.48988 1.23063 0
M  V30 16 H 4.25282 -0.00575778 0.901702 0
M  V30 17 H 3.69286 -0.0767536 -1.19148 0
M  V30 18 H 3.4722 1.66867 -1.00878 0
M  V30 19 H 1.57355 0.567776 -2.05704 0
M  V30 20 H 1.05843 1.32225 -0.529971 0
M  V30 21 H 0.58025 -2.1863 0.821159 0
M  V30 22 H 1.88137 -1.16152 1.42756 0
M  V30 23 H -0.101018 0.752466 1.16426 0
M  V30 24 H 0.133609 -0.304003 2.5604 0
M  V30 25 H -2.49726 -1.80843 -0.0284057 0
M  V30 26 H -1.07547 0.630587 -1.15318 0
M  V30 27 H -1.93719 -0.693329 -1.92171 0
M  V30 28 H 0.254958 -1.11054 -2.39024 0
M  V30 29 H -0.147417 -2.30371 -1.10211 0
M  V30 30 H -3.64728 2.53934 0.736571 0
M  V30 31 H -2.19892 2.01715 1.42059 0
M  V30 END ATOM
M  V30 BEGIN BOND
M  V30 1 1 1 2
M  V30 2 1 2 3
M  V30 3 1 3 4
M  V30 4 1 4 5
M  V30 5 1 5 6
M  V30 6 1 6 7
M  V30 7 1 7 8
M  V30 8 1 8 9
M  V30 9 1 9 10
M  V30 10 1 8 11
M  V30 11 2 11 12
M  V30 12 2 11 13
M  V30 13 1 11 14
M  V30 14 1 10 4
M  V30 15 1 1 15
M  V30 16 1 1 16
M  V30 17 1 2 17
M  V30 18 1 2 18
M  V30 19 1 3 19
M  V30 20 1 3 20
M  V30 21 1 5 21
M  V30 22 1 5 22
M  V30 23 1 6 23
M  V30 24 1 6 24
M  V30 25 1 8 25 CFG=3
M  V30 26 1 9 26
M  V30 27 1 9 27
M  V30 28 1 10 28
M  V30 29 1 10 29
M  V30 30 1 14 30
M  V30 31 1 14 31
M  V30 END BOND
M  V30 END CTAB
M  END
