
     RDKit          3D

  0  0  0  0  0  0  0  0  0  0999 V3000
M  V30 BEGIN CTAB
M  V30 COUNTS 23 23 0 0 0
M  V30 BEGIN ATOM
M  V30 1 N -4.45601 0.248597 1.41225 0
M  V30 2 N -3.44609 0.271799 0.441161 0
M  V30 3 C -2.08781 0.107267 0.801702 0
M  V30 4 O -1.79113 -0.0616068 2.0124 0
M  V30 5 C -1.01124 0.123725 -0.162994 0
M  V30 6 C -1.28938 0.305054 -1.49497 0
M  V30 7 C -0.25466 0.322365 -2.43507 0
M  V30 8 C 1.01821 0.15243 -1.9621 0
M  V30 9 C 1.2993 -0.0292669 -0.629239 0
M  V30 10 N 0.282134 -0.0394154 0.236349 0
M  V30 11 C 2.66288 -0.203469 -0.189527 0
M  V30 12 O 3.5842 -0.186657 -1.0389 0
M  V30 13 N 2.99608 -0.393946 1.17851 0
M  V30 14 N 4.28781 -0.562286 1.62325 0
M  V30 15 H -4.81923 -0.714336 1.58097 0
M  V30 16 H -4.14006 0.682502 2.31127 0
M  V30 17 H -3.77137 0.416053 -0.53782 0
M  V30 18 H -2.29134 0.440819 -1.88427 0
M  V30 19 H -0.463353 0.462462 -3.46893 0
M  V30 20 H 1.84886 0.161855 -2.67865 0
M  V30 21 H 2.21957 -0.406631 1.88158 0
M  V30 22 H 4.78057 -1.38966 1.27424 0
M  V30 23 H 4.84206 0.292344 1.72878 0
M  V30 END ATOM
M  V30 BEGIN BOND
M  V30 1 1 1 2
M  V30 2 1 2 3
M  V30 3 2 3 4
M  V30 4 1 3 5
M  V30 5 2 5 6
M  V30 6 1 6 7
M  V30 7 2 7 8
M  V30 8 1 8 9
M  V30 9 2 9 10
M  V30 10 1 9 11
M  V30 11 2 11 12
M  V30 12 1 11 13
M  V30 13 1 13 14
M  V30 14 1 10 5
M  V30 15 1 1 15
M  V30 16 1 1 16
M  V30 17 1 2 17
M  V30 18 1 6 18
M  V30 19 1 7 19
M  V30 20 1 8 20
M  V30 21 1 13 21
M  V30 22 1 14 22
M  V30 23 1 14 23
M  V30 END BOND
M  V30 END CTAB
M  END
