
     RDKit          3D

  0  0  0  0  0  0  0  0  0  0999 V3000
M  V30 BEGIN CTAB
M  V30 COUNTS 32 34 0 0 0
M  V30 BEGIN ATOM
M  V30 1 N -1.58044 -0.0611184 1.91761 0
M  V30 2 C -2.02259 -0.265263 0.594813 0
M  V30 3 C -1.17263 0.0181933 -0.443861 0
M  V30 4 C -1.62063 -0.186949 -1.7292 0
M  V30 5 C -2.89296 -0.666699 -1.99735 0
M  V30 6 C -3.71514 -0.939193 -0.936723 0
M  V30 7 C -3.29076 -0.742163 0.369794 0
M  V30 8 C 0.155632 0.519356 -0.151778 0
M  V30 9 C 0.334877 1.88376 -0.0541815 0
M  V30 10 N -0.758853 2.77208 -0.236324 0
M  V30 11 C 1.56417 2.44905 0.22069 0
M  V30 12 C 2.64198 1.62435 0.402451 0
M  V30 13 C 2.50922 0.25813 0.314208 0
M  V30 14 C 3.6002 -0.600899 0.497094 0
M  V30 15 C 3.43123 -1.9622 0.401715 0
M  V30 16 C 2.19521 -2.49409 0.126972 0
M  V30 17 C 1.11881 -1.64921 -0.0535897 0
M  V30 18 C 1.26056 -0.27389 0.0368979 0
M  V30 19 H -1.46925 -0.898798 2.52596 0
M  V30 20 H -1.35746 0.870201 2.32785 0
M  V30 21 H -0.960169 0.0326531 -2.55802 0
M  V30 22 H -3.26654 -0.83553 -2.99585 0
M  V30 23 H -4.72981 -1.32126 -1.13289 0
M  V30 24 H -3.96411 -0.96745 1.16889 0
M  V30 25 H -1.03713 3.39868 0.548996 0
M  V30 26 H -1.31493 2.84511 -1.115 0
M  V30 27 H 1.66057 3.53251 0.288878 0
M  V30 28 H 3.62266 2.0463 0.620432 0
M  V30 29 H 4.56743 -0.179516 0.712321 0
M  V30 30 H 4.27896 -2.60347 0.545001 0
M  V30 31 H 2.08073 -3.56272 0.0557839 0
M  V30 32 H 0.131143 -2.03994 -0.271585 0
M  V30 END ATOM
M  V30 BEGIN BOND
M  V30 1 1 1 2
M  V30 2 2 2 3
M  V30 3 1 3 4
M  V30 4 2 4 5
M  V30 5 1 5 6
M  V30 6 2 6 7
M  V30 7 1 3 8
M  V30 8 2 8 9
M  V30 9 1 9 10
M  V30 10 1 9 11
M  V30 11 2 11 12
M  V30 12 1 12 13
M  V30 13 2 13 14
M  V30 14 1 14 15
M  V30 15 2 15 16
M  V30 16 1 16 17
M  V30 17 2 17 18
M  V30 18 1 7 2
M  V30 19 1 18 8
M  V30 20 1 18 13
M  V30 21 1 1 19
M  V30 22 1 1 20
M  V30 23 1 4 21
M  V30 24 1 5 22
M  V30 25 1 6 23
M  V30 26 1 7 24
M  V30 27 1 10 25
M  V30 28 1 10 26
M  V30 29 1 11 27
M  V30 30 1 12 28
M  V30 31 1 14 29
M  V30 32 1 15 30
M  V30 33 1 16 31
M  V30 34 1 17 32
M  V30 END BOND
M  V30 END CTAB
M  END
