
     RDKit          3D

  0  0  0  0  0  0  0  0  0  0999 V3000
M  V30 BEGIN CTAB
M  V30 COUNTS 49 50 0 0 0
M  V30 BEGIN ATOM
M  V30 1 N -3.55004 4.38708 -1.6634 0
M  V30 2 C -3.52071 2.95155 -1.78107 0
M  V30 3 C -2.63746 2.32717 -0.699705 0
M  V30 4 C -2.63645 0.826685 -0.861204 0
M  V30 5 O -1.83375 0.249733 0.120266 0
M  V30 6 C -1.63967 -1.14137 0.220644 0
M  V30 7 C -2.4838 -1.92053 0.979087 0
M  V30 8 O -3.52871 -1.30329 1.6403 0
M  V30 9 C -4.4547 -1.97173 2.43945 0
M  V30 10 C -2.32626 -3.28428 1.10242 0
M  V30 11 C -1.27329 -3.87831 0.43119 0
M  V30 12 C -0.408214 -3.14189 -0.335151 0
M  V30 13 C -0.602449 -1.77333 -0.432265 0
M  V30 14 C 0.328109 -0.998205 -1.25186 0
M  V30 15 O 0.0605985 -0.84809 -2.45996 0
M  V30 16 N 1.49971 -0.428264 -0.712304 0
M  V30 17 C 2.37145 0.323861 -1.58143 0
M  V30 18 C 3.41625 1.11458 -0.90046 0
M  V30 19 N 3.75749 0.776029 0.406366 0
M  V30 20 C 3.20817 -0.407723 0.964404 0
M  V30 21 C 1.76564 -0.630553 0.694764 0
M  V30 22 S 5.29407 1.20386 0.951227 0
M  V30 23 O 5.45379 2.70857 0.785029 0
M  V30 24 O 5.50804 0.918189 2.40468 0
M  V30 25 N 6.49319 0.399138 -0.0273386 0
M  V30 26 H -3.32651 4.63446 -0.672867 0
M  V30 27 H -4.53185 4.70063 -1.9163 0
M  V30 28 H -4.54547 2.54007 -1.65921 0
M  V30 29 H -3.15519 2.7037 -2.78654 0
M  V30 30 H -1.62651 2.71005 -0.856674 0
M  V30 31 H -3.09092 2.5686 0.267068 0
M  V30 32 H -2.36428 0.607381 -1.9006 0
M  V30 33 H -3.6699 0.407743 -0.721873 0
M  V30 34 H -5.04924 -2.64567 1.76529 0
M  V30 35 H -4.01937 -2.56482 3.2497 0
M  V30 36 H -5.13923 -1.20788 2.88681 0
M  V30 37 H -2.99496 -3.89228 1.70162 0
M  V30 38 H -1.1241 -4.9638 0.511847 0
M  V30 39 H 0.43071 -3.62018 -0.869095 0
M  V30 40 H 2.82156 -0.407673 -2.30172 0
M  V30 41 H 1.69173 0.95729 -2.22512 0
M  V30 42 H 3.09979 2.1991 -0.930452 0
M  V30 43 H 4.3504 1.10317 -1.53756 0
M  V30 44 H 3.34715 -0.35511 2.07967 0
M  V30 45 H 3.77479 -1.29926 0.627018 0
M  V30 46 H 1.10971 -0.00659353 1.31592 0
M  V30 47 H 1.50765 -1.69673 0.911818 0
M  V30 48 H 7.00632 1.09845 -0.625813 0
M  V30 49 H 7.23672 -0.0295152 0.590555 0
M  V30 END ATOM
M  V30 BEGIN BOND
M  V30 1 1 1 2
M  V30 2 1 2 3
M  V30 3 1 3 4
M  V30 4 1 4 5
M  V30 5 1 5 6
M  V30 6 2 6 7
M  V30 7 1 7 8
M  V30 8 1 8 9
M  V30 9 1 7 10
M  V30 10 2 10 11
M  V30 11 1 11 12
M  V30 12 2 12 13
M  V30 13 1 13 14
M  V30 14 2 14 15
M  V30 15 1 14 16
M  V30 16 1 16 17
M  V30 17 1 17 18
M  V30 18 1 18 19
M  V30 19 1 19 20
M  V30 20 1 20 21
M  V30 21 1 19 22
M  V30 22 2 22 23
M  V30 23 2 22 24
M  V30 24 1 22 25
M  V30 25 1 13 6
M  V30 26 1 21 16
M  V30 27 1 1 26
M  V30 28 1 1 27
M  V30 29 1 2 28
M  V30 30 1 2 29
M  V30 31 1 3 30
M  V30 32 1 3 31
M  V30 33 1 4 32
M  V30 34 1 4 33
M  V30 35 1 9 34
M  V30 36 1 9 35
M  V30 37 1 9 36
M  V30 38 1 10 37
M  V30 39 1 11 38
M  V30 40 1 12 39
M  V30 41 1 17 40
M  V30 42 1 17 41
M  V30 43 1 18 42
M  V30 44 1 18 43
M  V30 45 1 20 44
M  V30 46 1 20 45
M  V30 47 1 21 46
M  V30 48 1 21 47
M  V30 49 1 25 48
M  V30 50 1 25 49
M  V30 END BOND
M  V30 END CTAB
M  END
