
     RDKit          3D

  0  0  0  0  0  0  0  0  0  0999 V3000
M  V30 BEGIN CTAB
M  V30 COUNTS 39 40 0 0 0
M  V30 BEGIN ATOM
M  V30 1 N -6.23641 0.119292 0.290853 0
M  V30 2 C -4.97776 0.773905 0.588841 0
M  V30 3 C -4.39771 1.44127 -0.622493 0
M  V30 4 C -3.02256 0.855692 -0.826166 0
M  V30 5 C -2.97489 -0.430859 -0.0301492 0
M  V30 6 C -3.98663 -0.247709 1.0532 0
M  V30 7 C -1.57753 -0.542514 0.516829 0
M  V30 8 O -1.48832 -0.590068 1.74783 0
M  V30 9 N -0.487037 -0.585762 -0.35542 0
M  V30 10 C 0.886956 -0.683805 -0.0733717 0
M  V30 11 C 1.37746 -0.587034 1.2078 0
M  V30 12 C 2.76493 -0.709187 1.39332 0
M  V30 13 C 3.64246 -0.916986 0.374595 0
M  V30 14 C 3.12815 -1.00946 -0.892829 0
M  V30 15 C 1.77777 -0.898025 -1.13697 0
M  V30 16 C 5.11101 -1.04745 0.560068 0
M  V30 17 S 5.93066 0.516284 0.456051 0
M  V30 18 O 5.50734 1.40214 1.60007 0
M  V30 19 O 7.40497 0.271724 0.614407 0
M  V30 20 N 5.69061 1.27859 -1.06451 0
M  V30 21 H -6.04279 -0.59393 -0.451144 0
M  V30 22 H -6.96877 0.804499 -0.00873992 0
M  V30 23 H -5.15591 1.55613 1.36078 0
M  V30 24 H -4.98678 1.26762 -1.54603 0
M  V30 25 H -4.32339 2.55117 -0.484647 0
M  V30 26 H -2.82857 0.599636 -1.88892 0
M  V30 27 H -2.25557 1.55244 -0.461577 0
M  V30 28 H -3.17073 -1.31882 -0.637919 0
M  V30 29 H -3.54145 0.00691642 2.03612 0
M  V30 30 H -4.49337 -1.24146 1.19929 0
M  V30 31 H -0.745451 -0.53219 -1.38947 0
M  V30 32 H 0.760608 -0.417914 2.07336 0
M  V30 33 H 3.14975 -0.633004 2.40242 0
M  V30 34 H 3.78703 -1.17551 -1.74564 0
M  V30 35 H 1.36121 -0.970506 -2.1354 0
M  V30 36 H 5.57363 -1.72575 -0.183048 0
M  V30 37 H 5.28541 -1.45977 1.56238 0
M  V30 38 H 4.8009 0.991705 -1.52847 0
M  V30 39 H 5.72079 2.32867 -0.955067 0
M  V30 END ATOM
M  V30 BEGIN BOND
M  V30 1 1 1 2
M  V30 2 1 2 3
M  V30 3 1 3 4
M  V30 4 1 4 5
M  V30 5 1 5 6
M  V30 6 1 5 7
M  V30 7 2 7 8
M  V30 8 1 7 9
M  V30 9 1 9 10
M  V30 10 2 10 11
M  V30 11 1 11 12
M  V30 12 2 12 13
M  V30 13 1 13 14
M  V30 14 2 14 15
M  V30 15 1 13 16
M  V30 16 1 16 17
M  V30 17 2 17 18
M  V30 18 2 17 19
M  V30 19 1 17 20
M  V30 20 1 6 2
M  V30 21 1 15 10
M  V30 22 1 1 21
M  V30 23 1 1 22
M  V30 24 1 2 23
M  V30 25 1 3 24
M  V30 26 1 3 25
M  V30 27 1 4 26
M  V30 28 1 4 27
M  V30 29 1 5 28
M  V30 30 1 6 29
M  V30 31 1 6 30
M  V30 32 1 9 31
M  V30 33 1 11 32
M  V30 34 1 12 33
M  V30 35 1 14 34
M  V30 36 1 15 35
M  V30 37 1 16 36
M  V30 38 1 16 37
M  V30 39 1 20 38
M  V30 40 1 20 39
M  V30 END BOND
M  V30 END CTAB
M  END
