
     RDKit          3D

  0  0  0  0  0  0  0  0  0  0999 V3000
M  V30 BEGIN CTAB
M  V30 COUNTS 48 50 0 0 0
M  V30 BEGIN ATOM
M  V30 1 N 9.74419 -0.867669 -0.0620314 0
M  V30 2 C 8.42625 -0.996472 0.455079 0
M  V30 3 C 8.22023 -1.60753 1.67234 0
M  V30 4 C 6.91687 -1.69996 2.1165 0
M  V30 5 C 5.85099 -1.21096 1.39393 0
M  V30 6 C 6.06315 -0.604595 0.184449 0
M  V30 7 C 7.36448 -0.505842 -0.271451 0
M  V30 8 C 4.9788 -0.0712001 -0.619744 0
M  V30 9 O 5.26221 0.469575 -1.71751 0
M  V30 10 C 3.57421 -0.13389 -0.212292 0
M  V30 11 C 2.63516 0.361174 -0.972468 0
M  V30 12 C 1.20911 0.357579 -0.674275 0
M  V30 13 C 0.683666 -0.182171 0.470993 0
M  V30 14 C -0.701195 -0.172961 0.736064 0
M  V30 15 C -1.58126 0.378229 -0.144207 0
M  V30 16 C -1.03957 0.928532 -1.3131 0
M  V30 17 C 0.315014 0.913435 -1.56066 0
M  V30 18 C -3.03722 0.423391 0.064822 0
M  V30 19 C -3.66569 -0.0539878 1.10625 0
M  V30 20 C -5.04903 -0.0783002 1.42133 0
M  V30 21 O -5.30198 -0.575657 2.61591 0
M  V30 22 C -6.201 0.329322 0.704215 0
M  V30 23 C -7.42543 0.522316 1.3872 0
M  V30 24 C -8.57233 0.845778 0.720919 0
M  V30 25 C -8.58199 0.997641 -0.649363 0
M  V30 26 C -7.4234 0.821355 -1.36314 0
M  V30 27 C -6.26225 0.488056 -0.645251 0
M  V30 28 N -7.40189 0.970538 -2.76971 0
M  V30 29 H 10.2334 0.0551513 -0.148079 0
M  V30 30 H 10.2751 -1.70375 -0.377824 0
M  V30 31 H 9.04697 -2.00156 2.26113 0
M  V30 32 H 6.76927 -2.19075 3.09051 0
M  V30 33 H 4.84714 -1.30539 1.78072 0
M  V30 34 H 7.54354 -0.0196059 -1.24312 0
M  V30 35 H 3.28319 -0.592409 0.728891 0
M  V30 36 H 2.96796 0.817276 -1.91749 0
M  V30 37 H 1.32586 -0.636975 1.21448 0
M  V30 38 H -1.06066 -0.609728 1.64944 0
M  V30 39 H -1.74314 1.37088 -2.02047 0
M  V30 40 H 0.694821 1.35089 -2.47945 0
M  V30 41 H -3.61453 0.931665 -0.69066 0
M  V30 42 H -2.93579 -0.515721 1.84911 0
M  V30 43 H -7.40037 0.401466 2.47036 0
M  V30 44 H -9.4951 0.985512 1.28755 0
M  V30 45 H -9.51295 1.25562 -1.14039 0
M  V30 46 H -5.4035 0.318902 -1.31086 0
M  V30 47 H -8.27867 0.817122 -3.2969 0
M  V30 48 H -6.54268 1.22568 -3.27618 0
M  V30 END ATOM
M  V30 BEGIN BOND
M  V30 1 1 1 2
M  V30 2 2 2 3
M  V30 3 1 3 4
M  V30 4 2 4 5
M  V30 5 1 5 6
M  V30 6 2 6 7
M  V30 7 1 6 8
M  V30 8 2 8 9
M  V30 9 1 8 10
M  V30 10 2 10 11
M  V30 11 1 11 12
M  V30 12 2 12 13
M  V30 13 1 13 14
M  V30 14 2 14 15
M  V30 15 1 15 16
M  V30 16 2 16 17
M  V30 17 1 15 18
M  V30 18 2 18 19
M  V30 19 1 19 20
M  V30 20 2 20 21
M  V30 21 1 20 22
M  V30 22 2 22 23
M  V30 23 1 23 24
M  V30 24 2 24 25
M  V30 25 1 25 26
M  V30 26 2 26 27
M  V30 27 1 26 28
M  V30 28 1 7 2
M  V30 29 1 17 12
M  V30 30 1 27 22
M  V30 31 1 1 29
M  V30 32 1 1 30
M  V30 33 1 3 31
M  V30 34 1 4 32
M  V30 35 1 5 33
M  V30 36 1 7 34
M  V30 37 1 10 35
M  V30 38 1 11 36
M  V30 39 1 13 37
M  V30 40 1 14 38
M  V30 41 1 16 39
M  V30 42 1 17 40
M  V30 43 1 18 41
M  V30 44 1 19 42
M  V30 45 1 23 43
M  V30 46 1 24 44
M  V30 47 1 25 45
M  V30 48 1 27 46
M  V30 49 1 28 47
M  V30 50 1 28 48
M  V30 END BOND
M  V30 END CTAB
M  END
