
     RDKit          3D

  0  0  0  0  0  0  0  0  0  0999 V3000
M  V30 BEGIN CTAB
M  V30 COUNTS 37 38 0 0 0
M  V30 BEGIN ATOM
M  V30 1 N -4.20939 -0.255659 1.67996 0
M  V30 2 C -3.7645 0.793865 0.818223 0
M  V30 3 C -2.26469 0.802332 0.618242 0
M  V30 4 N -1.80129 -0.411927 0.0355835 0
M  V30 5 C -2.18413 -0.652548 -1.31596 0
M  V30 6 C -1.03712 -1.12173 -2.18406 0
M  V30 7 C -0.161227 0.0538409 -2.48488 0
M  V30 8 O 0.224862 0.838922 -1.4757 0
M  V30 9 C 0.44682 0.41154 -0.225247 0 CFG=1
M  V30 10 C -0.431451 -0.665906 0.327438 0
M  V30 11 C 1.90079 0.133041 0.100025 0
M  V30 12 C 2.68509 -0.594616 -0.75559 0
M  V30 13 C 3.99939 -0.822828 -0.420952 0
M  V30 14 C 4.50796 -0.324647 0.75527 0
M  V30 15 C 3.70853 0.41251 1.62031 0
M  V30 16 N 2.4481 0.593144 1.23092 0
M  V30 17 N 4.23082 0.926442 2.83457 0
M  V30 18 H -4.65752 -1.03924 1.19619 0
M  V30 19 H -4.80648 0.0681637 2.43891 0
M  V30 20 H -4.03293 1.75999 1.29464 0
M  V30 21 H -4.32189 0.72898 -0.12532 0
M  V30 22 H -1.81041 0.886003 1.6331 0
M  V30 23 H -2.01833 1.70517 0.0360521 0
M  V30 24 H -2.92384 -1.49131 -1.31249 0
M  V30 25 H -2.59839 0.260543 -1.79034 0
M  V30 26 H -1.54085 -1.45335 -3.14572 0
M  V30 27 H -0.523909 -2.01437 -1.8278 0
M  V30 28 H 0.663434 -0.223428 -3.21239 0
M  V30 29 H -0.806267 0.717907 -3.15775 0
M  V30 30 H 0.204275 1.31828 0.432726 0
M  V30 31 H -0.344109 -0.600537 1.45631 0
M  V30 32 H -0.0928912 -1.6968 0.113291 0
M  V30 33 H 2.28546 -0.989522 -1.67964 0
M  V30 34 H 4.65618 -1.40631 -1.08957 0
M  V30 35 H 5.53843 -0.485295 1.04804 0
M  V30 36 H 4.85805 1.73569 2.81287 0
M  V30 37 H 3.97345 0.48043 3.72073 0
M  V30 END ATOM
M  V30 BEGIN BOND
M  V30 1 1 1 2
M  V30 2 1 2 3
M  V30 3 1 3 4
M  V30 4 1 4 5
M  V30 5 1 5 6
M  V30 6 1 6 7
M  V30 7 1 7 8
M  V30 8 1 8 9
M  V30 9 1 9 10
M  V30 10 1 9 11
M  V30 11 2 11 12
M  V30 12 1 12 13
M  V30 13 2 13 14
M  V30 14 1 14 15
M  V30 15 2 15 16
M  V30 16 1 15 17
M  V30 17 1 10 4
M  V30 18 1 16 11
M  V30 19 1 1 18
M  V30 20 1 1 19
M  V30 21 1 2 20
M  V30 22 1 2 21
M  V30 23 1 3 22
M  V30 24 1 3 23
M  V30 25 1 5 24
M  V30 26 1 5 25
M  V30 27 1 6 26
M  V30 28 1 6 27
M  V30 29 1 7 28
M  V30 30 1 7 29
M  V30 31 1 9 30 CFG=1
M  V30 32 1 10 31
M  V30 33 1 10 32
M  V30 34 1 12 33
M  V30 35 1 13 34
M  V30 36 1 14 35
M  V30 37 1 17 36
M  V30 38 1 17 37
M  V30 END BOND
M  V30 END CTAB
M  END
