
     RDKit          3D

  0  0  0  0  0  0  0  0  0  0999 V3000
M  V30 BEGIN CTAB
M  V30 COUNTS 34 36 0 0 0
M  V30 BEGIN ATOM
M  V30 1 O 4.49193 1.91746 0.534521 0
M  V30 2 C 3.24334 2.00922 0.0575193 0
M  V30 3 C 2.36117 0.967942 0.727149 0 CFG=1
M  V30 4 O 1.09249 1.1328 0.177255 0
M  V30 5 C 0.412174 -0.0702913 0.494836 0 CFG=2
M  V30 6 C 1.41077 -1.14924 0.323398 0
M  V30 7 C 2.73023 -0.412065 0.262864 0
M  V30 8 O 3.23233 -0.309123 -1.02305 0
M  V30 9 O 1.49846 -1.95331 1.48924 0
M  V30 10 N -0.808994 -0.199764 -0.198007 0
M  V30 11 C -0.999644 -0.472075 -1.48587 0
M  V30 12 N 0.000491837 -0.691211 -2.43979 0
M  V30 13 N -2.32443 -0.513392 -1.77522 0
M  V30 14 C -2.98121 -0.261328 -0.643542 0
M  V30 15 C -2.03947 -0.0662126 0.337576 0
M  V30 16 N -2.48028 0.206588 1.58189 0
M  V30 17 C -3.78997 0.287591 1.86589 0
M  V30 18 N -4.6865 0.091325 0.882673 0
M  V30 19 C -4.3332 -0.185091 -0.384899 0
M  V30 20 N -5.31153 -0.388234 -1.40616 0
M  V30 21 H 5.14304 2.29405 0.0148047 0
M  V30 22 H 2.75468 2.99866 0.27945 0
M  V30 23 H 3.13252 1.86159 -1.0277 0
M  V30 24 H 2.37076 1.06308 1.82456 0
M  V30 25 H 0.211578 0.0270769 1.58671 0
M  V30 26 H 1.25812 -1.84297 -0.489107 0
M  V30 27 H 3.50209 -0.837327 0.92049 0
M  V30 28 H 3.15476 -1.14091 -1.54873 0
M  V30 29 H 2.34751 -2.47635 1.48138 0
M  V30 30 H 0.0807542 -1.53545 -3.0566 0
M  V30 31 H 0.743278 0.0309902 -2.5699 0
M  V30 32 H -4.1249 0.512369 2.89318 0
M  V30 33 H -5.40263 -1.32212 -1.81346 0
M  V30 34 H -5.88973 0.425752 -1.69103 0
M  V30 END ATOM
M  V30 BEGIN BOND
M  V30 1 1 1 2
M  V30 2 1 2 3
M  V30 3 1 3 4
M  V30 4 1 4 5
M  V30 5 1 5 6
M  V30 6 1 6 7
M  V30 7 1 7 8
M  V30 8 1 6 9
M  V30 9 1 5 10
M  V30 10 1 10 11
M  V30 11 1 11 12
M  V30 12 2 11 13
M  V30 13 1 13 14
M  V30 14 2 14 15
M  V30 15 1 15 16
M  V30 16 2 16 17
M  V30 17 1 17 18
M  V30 18 2 18 19
M  V30 19 1 19 20
M  V30 20 1 7 3
M  V30 21 1 15 10
M  V30 22 1 19 14
M  V30 23 1 1 21
M  V30 24 1 2 22
M  V30 25 1 2 23
M  V30 26 1 3 24 CFG=1
M  V30 27 1 5 25 CFG=1
M  V30 28 1 6 26
M  V30 29 1 7 27
M  V30 30 1 8 28
M  V30 31 1 9 29
M  V30 32 1 12 30
M  V30 33 1 12 31
M  V30 34 1 17 32
M  V30 35 1 20 33
M  V30 36 1 20 34
M  V30 END BOND
M  V30 END CTAB
M  END
