
     RDKit          3D

  0  0  0  0  0  0  0  0  0  0999 V3000
M  V30 BEGIN CTAB
M  V30 COUNTS 34 35 0 0 0
M  V30 BEGIN ATOM
M  V30 1 C 2.60955 1.30803 2.57206 0
M  V30 2 C 3.00415 0.584807 1.29556 0
M  V30 3 N 4.01491 0.903557 0.577345 0
M  V30 4 N 4.172 0.0941584 -0.543645 0
M  V30 5 C 3.11328 -0.858454 -0.518461 0
M  V30 6 O 2.9625 -1.74362 -1.39566 0
M  V30 7 C 2.33164 -0.55262 0.686052 0
M  V30 8 N 0.930743 -0.314881 0.401944 0
M  V30 9 N 0.0338764 -1.17449 0.408977 0
M  V30 10 C -1.32574 -0.982156 0.140415 0
M  V30 11 C -2.35917 -1.68351 0.726338 0
M  V30 12 C -3.68059 -1.4595 0.430752 0
M  V30 13 C -3.99514 -0.495613 -0.488399 0
M  V30 14 C -3.00436 0.2278 -1.09768 0
M  V30 15 C -1.68441 -0.0185831 -0.781343 0
M  V30 16 S -5.69588 -0.224523 -0.85278 0
M  V30 17 O -6.45024 -1.49851 -0.689506 0
M  V30 18 O -5.81739 0.316948 -2.26291 0
M  V30 19 N -6.28672 0.963696 0.224493 0
M  V30 20 C 5.20725 0.207252 -1.52996 0
M  V30 21 S 5.29998 -0.786986 -2.79852 0
M  V30 22 N 6.16902 1.22707 -1.37136 0
M  V30 23 H 3.54098 1.50286 3.14244 0
M  V30 24 H 1.97451 0.66253 3.17587 0
M  V30 25 H 2.17706 2.2814 2.30622 0
M  V30 26 H 2.39235 -1.46148 1.33916 0
M  V30 27 H -2.09748 -2.45721 1.46474 0
M  V30 28 H -4.41032 -2.06855 0.950572 0
M  V30 29 H -3.29946 0.981965 -1.82006 0
M  V30 30 H -0.943811 0.593186 -1.30299 0
M  V30 31 H -5.95681 0.779001 1.19771 0
M  V30 32 H -5.98599 1.89946 -0.128449 0
M  V30 33 H 6.82319 1.27166 -0.565046 0
M  V30 34 H 6.23652 1.97529 -2.08837 0
M  V30 END ATOM
M  V30 BEGIN BOND
M  V30 1 1 1 2
M  V30 2 2 2 3
M  V30 3 1 3 4
M  V30 4 1 4 5
M  V30 5 2 5 6
M  V30 6 1 5 7
M  V30 7 1 7 8
M  V30 8 2 8 9
M  V30 9 1 9 10
M  V30 10 2 10 11
M  V30 11 1 11 12
M  V30 12 2 12 13
M  V30 13 1 13 14
M  V30 14 2 14 15
M  V30 15 1 13 16
M  V30 16 2 16 17
M  V30 17 2 16 18
M  V30 18 1 16 19
M  V30 19 1 4 20
M  V30 20 2 20 21
M  V30 21 1 20 22
M  V30 22 1 7 2
M  V30 23 1 15 10
M  V30 24 1 1 23
M  V30 25 1 1 24
M  V30 26 1 1 25
M  V30 27 1 7 26
M  V30 28 1 11 27
M  V30 29 1 12 28
M  V30 30 1 14 29
M  V30 31 1 15 30
M  V30 32 1 19 31
M  V30 33 1 19 32
M  V30 34 1 22 33
M  V30 35 1 22 34
M  V30 END BOND
M  V30 END CTAB
M  END
