
     RDKit          3D

  0  0  0  0  0  0  0  0  0  0999 V3000
M  V30 BEGIN CTAB
M  V30 COUNTS 23 23 0 0 0
M  V30 BEGIN ATOM
M  V30 1 N -3.60383 0.666767 1.01787 0
M  V30 2 N -2.69051 0.248741 0.100087 0
M  V30 3 C -1.56318 -0.481324 0.51381 0
M  V30 4 O -1.36537 -0.765367 1.71283 0
M  V30 5 C -0.520625 -0.969229 -0.456355 0 CFG=2
M  V30 6 C 0.797165 -0.399562 -0.0810177 0
M  V30 7 C 1.09086 0.911601 -0.351802 0
M  V30 8 C 2.33568 1.41019 0.0146191 0
M  V30 9 C 3.25617 0.613021 0.634525 0
M  V30 10 C 2.96078 -0.70063 0.905351 0
M  V30 11 C 1.72854 -1.21362 0.548451 0
M  V30 12 N -0.876784 -0.571292 -1.79868 0
M  V30 13 H -3.42286 1.52983 1.50158 0
M  V30 14 H -4.56626 0.43709 0.853559 0
M  V30 15 H -2.78307 0.447275 -0.935027 0
M  V30 16 H -0.48557 -2.07341 -0.385819 0
M  V30 17 H 0.408047 1.57768 -0.833995 0
M  V30 18 H 2.55814 2.45015 -0.20448 0
M  V30 19 H 4.21485 1.03856 0.904291 0
M  V30 20 H 3.72299 -1.3034 1.40152 0
M  V30 21 H 1.49902 -2.24235 0.761264 0
M  V30 22 H -0.96189 0.462972 -1.85463 0
M  V30 23 H -1.73229 -1.07368 -2.10909 0
M  V30 END ATOM
M  V30 BEGIN BOND
M  V30 1 1 1 2
M  V30 2 1 2 3
M  V30 3 2 3 4
M  V30 4 1 3 5
M  V30 5 1 5 6
M  V30 6 2 6 7
M  V30 7 1 7 8
M  V30 8 2 8 9
M  V30 9 1 9 10
M  V30 10 2 10 11
M  V30 11 1 5 12
M  V30 12 1 11 6
M  V30 13 1 1 13
M  V30 14 1 1 14
M  V30 15 1 2 15
M  V30 16 1 5 16 CFG=3
M  V30 17 1 7 17
M  V30 18 1 8 18
M  V30 19 1 9 19
M  V30 20 1 10 20
M  V30 21 1 11 21
M  V30 22 1 12 22
M  V30 23 1 12 23
M  V30 END BOND
M  V30 END CTAB
M  END
