
     RDKit          3D

  0  0  0  0  0  0  0  0  0  0999 V3000
M  V30 BEGIN CTAB
M  V30 COUNTS 40 42 0 0 0
M  V30 BEGIN ATOM
M  V30 1 C -5.75054 0.229194 -0.787738 0
M  V30 2 C -4.90767 0.199999 0.434051 0
M  V30 3 O -5.51217 -0.306903 1.57775 0
M  V30 4 C -3.47343 -0.0348078 0.341546 0
M  V30 5 N -2.6369 0.92568 -0.128324 0
M  V30 6 C -1.27685 0.731807 -0.0592437 0
M  V30 7 C -0.81032 -0.439638 0.483886 0
M  V30 8 N -1.65023 -1.37069 0.945846 0
M  V30 9 C -2.9533 -1.20986 0.889787 0
M  V30 10 N -3.91153 -2.17785 1.30145 0
M  V30 11 N 0.539769 -0.594125 0.535657 0
M  V30 12 C 1.40571 0.352803 0.079998 0
M  V30 13 N 0.92783 1.49116 -0.431404 0
M  V30 14 C -0.430779 1.68799 -0.503786 0
M  V30 15 N -0.871533 2.95198 -1.01041 0
M  V30 16 N 2.83629 0.104413 0.160497 0
M  V30 17 C 3.81151 1.08846 -0.233203 0
M  V30 18 C 5.15062 0.555978 0.259883 0
M  V30 19 C 5.50322 -0.810464 -0.290596 0
M  V30 20 C 4.27681 -1.67841 -0.413875 0
M  V30 21 C 3.28288 -1.19415 0.674351 0
M  V30 22 H -6.22496 -0.814465 -0.952388 0
M  V30 23 H -5.27189 0.584645 -1.69875 0
M  V30 24 H -6.66082 0.872095 -0.606805 0
M  V30 25 H -4.90548 1.39377 0.728442 0
M  V30 26 H -5.03394 0.0960699 2.38733 0
M  V30 27 H -4.33519 -2.33236 2.18686 0
M  V30 28 H -4.17891 -2.84165 0.486852 0
M  V30 29 H -1.36263 3.66745 -0.393238 0
M  V30 30 H -0.722117 3.20056 -1.99117 0
M  V30 31 H 3.59195 2.00104 0.328135 0
M  V30 32 H 3.75945 1.22532 -1.3192 0
M  V30 33 H 5.05649 0.499548 1.36586 0
M  V30 34 H 5.99385 1.24422 -0.00394914 0
M  V30 35 H 6.07356 -0.716607 -1.23514 0
M  V30 36 H 6.20582 -1.25342 0.444366 0
M  V30 37 H 3.76586 -1.48483 -1.40444 0
M  V30 38 H 4.47968 -2.75524 -0.252853 0
M  V30 39 H 2.44412 -1.92168 0.609933 0
M  V30 40 H 3.77576 -1.16702 1.62614 0
M  V30 END ATOM
M  V30 BEGIN BOND
M  V30 1 1 1 2
M  V30 2 1 2 3
M  V30 3 1 2 4
M  V30 4 2 4 5
M  V30 5 1 5 6
M  V30 6 2 6 7
M  V30 7 1 7 8
M  V30 8 2 8 9
M  V30 9 1 9 10
M  V30 10 1 7 11
M  V30 11 2 11 12
M  V30 12 1 12 13
M  V30 13 2 13 14
M  V30 14 1 14 15
M  V30 15 1 12 16
M  V30 16 1 16 17
M  V30 17 1 17 18
M  V30 18 1 18 19
M  V30 19 1 19 20
M  V30 20 1 20 21
M  V30 21 1 9 4
M  V30 22 1 21 16
M  V30 23 1 14 6
M  V30 24 1 1 22
M  V30 25 1 1 23
M  V30 26 1 1 24
M  V30 27 1 2 25
M  V30 28 1 3 26
M  V30 29 1 10 27
M  V30 30 1 10 28
M  V30 31 1 15 29
M  V30 32 1 15 30
M  V30 33 1 17 31
M  V30 34 1 17 32
M  V30 35 1 18 33
M  V30 36 1 18 34
M  V30 37 1 19 35
M  V30 38 1 19 36
M  V30 39 1 20 37
M  V30 40 1 20 38
M  V30 41 1 21 39
M  V30 42 1 21 40
M  V30 END BOND
M  V30 END CTAB
M  END
