
     RDKit          3D

  0  0  0  0  0  0  0  0  0  0999 V3000
M  V30 BEGIN CTAB
M  V30 COUNTS 45 47 0 0 0
M  V30 BEGIN ATOM
M  V30 1 N -5.27956 -2.93542 -1.22411 0
M  V30 2 C -4.03976 -2.34043 -0.883171 0
M  V30 3 N -3.72816 -1.16621 -1.23298 0
M  V30 4 C -2.50918 -0.447647 -0.955694 0
M  V30 5 N -1.59645 -1.22224 -0.161538 0
M  V30 6 C -0.32129 -0.788671 0.296896 0
M  V30 7 C 0.74515 -0.60406 -0.739265 0
M  V30 8 C 1.98392 -0.151314 0.0194275 0
M  V30 9 O 3.07782 0.0585985 -0.818189 0
M  V30 10 C 4.32239 0.466398 -0.410094 0
M  V30 11 C 5.30592 0.627446 -1.37343 0
M  V30 12 C 6.58185 1.03029 -1.06737 0
M  V30 13 C 6.90773 1.28679 0.24192 0
M  V30 14 Cl 8.53794 1.79775 0.637835 0
M  V30 15 C 5.95115 1.13719 1.23354 0
M  V30 16 C 4.67691 0.73113 0.897878 0
M  V30 17 C -1.99192 -2.55612 0.211061 0
M  V30 18 N -1.11168 -3.37339 0.978048 0
M  V30 19 N -3.11577 -3.08766 -0.112526 0
M  V30 20 C -2.91007 0.827988 -0.31232 0
M  V30 21 C -3.85515 0.866856 0.690721 0
M  V30 22 C -4.23283 2.05798 1.28539 0
M  V30 23 C -3.67354 3.23102 0.888584 0
M  V30 24 C -2.73013 3.23374 -0.106582 0
M  V30 25 C -2.35584 2.02308 -0.700531 0
M  V30 26 H -5.34264 -3.63381 -1.98538 0
M  V30 27 H -6.12377 -2.65833 -0.694532 0
M  V30 28 H -2.07994 -0.234517 -1.98519 0
M  V30 29 H -0.501563 0.172336 0.867084 0
M  V30 30 H 0.0872126 -1.47492 1.06445 0
M  V30 31 H 1.01007 -1.55416 -1.2457 0
M  V30 32 H 0.542226 0.140469 -1.50327 0
M  V30 33 H 1.71765 0.829386 0.487657 0
M  V30 34 H 2.16253 -0.885473 0.831052 0
M  V30 35 H 5.07522 0.433787 -2.39873 0
M  V30 36 H 7.33597 1.14714 -1.85698 0
M  V30 37 H 6.24359 1.34505 2.25822 0
M  V30 38 H 3.93184 0.612809 1.66088 0
M  V30 39 H -1.11666 -3.40975 2.002 0
M  V30 40 H -0.440638 -3.94949 0.391571 0
M  V30 41 H -4.30557 -0.0384191 1.01704 0
M  V30 42 H -4.97098 2.04449 2.06356 0
M  V30 43 H -3.9512 4.17678 1.33623 0
M  V30 44 H -2.29092 4.17505 -0.416889 0
M  V30 45 H -1.62185 2.05849 -1.47033 0
M  V30 END ATOM
M  V30 BEGIN BOND
M  V30 1 1 1 2
M  V30 2 2 2 3
M  V30 3 1 3 4
M  V30 4 1 4 5
M  V30 5 1 5 6
M  V30 6 1 6 7
M  V30 7 1 7 8
M  V30 8 1 8 9
M  V30 9 1 9 10
M  V30 10 2 10 11
M  V30 11 1 11 12
M  V30 12 2 12 13
M  V30 13 1 13 14
M  V30 14 1 13 15
M  V30 15 2 15 16
M  V30 16 1 5 17
M  V30 17 1 17 18
M  V30 18 2 17 19
M  V30 19 1 4 20
M  V30 20 2 20 21
M  V30 21 1 21 22
M  V30 22 2 22 23
M  V30 23 1 23 24
M  V30 24 2 24 25
M  V30 25 1 19 2
M  V30 26 1 25 20
M  V30 27 1 16 10
M  V30 28 1 1 26
M  V30 29 1 1 27
M  V30 30 1 4 28
M  V30 31 1 6 29
M  V30 32 1 6 30
M  V30 33 1 7 31
M  V30 34 1 7 32
M  V30 35 1 8 33
M  V30 36 1 8 34
M  V30 37 1 11 35
M  V30 38 1 12 36
M  V30 39 1 15 37
M  V30 40 1 16 38
M  V30 41 1 18 39
M  V30 42 1 18 40
M  V30 43 1 21 41
M  V30 44 1 22 42
M  V30 45 1 23 43
M  V30 46 1 24 44
M  V30 47 1 25 45
M  V30 END BOND
M  V30 END CTAB
M  END
