
     RDKit          3D

  0  0  0  0  0  0  0  0  0  0999 V3000
M  V30 BEGIN CTAB
M  V30 COUNTS 26 27 0 0 0
M  V30 BEGIN ATOM
M  V30 1 C 4.56595 -0.189628 -0.504065 0
M  V30 2 N 3.29001 0.412754 -0.196235 0
M  V30 3 N 3.05277 1.57852 0.406923 0
M  V30 4 C 1.72802 1.78844 0.511259 0
M  V30 5 C 1.12196 0.69694 -0.0562419 0
M  V30 6 C 2.10221 -0.152811 -0.493203 0
M  V30 7 C -0.300105 0.45737 -0.185131 0
M  V30 8 N -1.22158 1.32722 -0.584276 0
M  V30 9 C -2.4245 0.710405 -0.565771 0
M  V30 10 N -2.22894 -0.545156 -0.151312 0
M  V30 11 C -0.928107 -0.748811 0.0967719 0
M  V30 12 N -0.296023 -1.94037 0.553753 0
M  V30 13 N -3.24241 -1.50974 0.00126113 0
M  V30 14 C -3.67938 1.40497 -0.958447 0
M  V30 15 H 4.45207 -0.832645 -1.40837 0
M  V30 16 H 5.3691 0.531587 -0.682789 0
M  V30 17 H 4.80635 -0.875531 0.346776 0
M  V30 18 H 1.20415 2.62577 0.943349 0
M  V30 19 H 1.94566 -1.11477 -0.992049 0
M  V30 20 H -0.542657 -2.82727 0.0487405 0
M  V30 21 H 0.375887 -1.96791 1.33897 0
M  V30 22 H -3.65562 -1.87536 -0.891507 0
M  V30 23 H -3.55817 -1.83598 0.938068 0
M  V30 24 H -4.58577 0.84008 -0.656367 0
M  V30 25 H -3.65095 1.67569 -2.01826 0
M  V30 26 H -3.69992 2.36624 -0.366316 0
M  V30 END ATOM
M  V30 BEGIN BOND
M  V30 1 1 1 2
M  V30 2 1 2 3
M  V30 3 2 3 4
M  V30 4 1 4 5
M  V30 5 2 5 6
M  V30 6 1 5 7
M  V30 7 1 7 8
M  V30 8 2 8 9
M  V30 9 1 9 10
M  V30 10 1 10 11
M  V30 11 1 11 12
M  V30 12 1 10 13
M  V30 13 1 9 14
M  V30 14 1 6 2
M  V30 15 2 11 7
M  V30 16 1 1 15
M  V30 17 1 1 16
M  V30 18 1 1 17
M  V30 19 1 4 18
M  V30 20 1 6 19
M  V30 21 1 12 20
M  V30 22 1 12 21
M  V30 23 1 13 22
M  V30 24 1 13 23
M  V30 25 1 14 24
M  V30 26 1 14 25
M  V30 27 1 14 26
M  V30 END BOND
M  V30 END CTAB
M  END
