
     RDKit          3D

  0  0  0  0  0  0  0  0  0  0999 V3000
M  V30 BEGIN CTAB
M  V30 COUNTS 34 33 0 0 0
M  V30 BEGIN ATOM
M  V30 1 C -2.25942 -1.00162 1.1447 0
M  V30 2 C -1.73765 -0.37954 -0.112169 0
M  V30 3 C -2.61892 -0.858087 -1.26445 0
M  V30 4 N -0.409659 -0.795998 -0.334581 0
M  V30 5 N 0.608786 -0.291893 0.133855 0
M  V30 6 C 1.86494 -0.885561 -0.231515 0
M  V30 7 C 1.92504 -2.22887 0.493862 0
M  V30 8 C 1.84425 -1.07435 -1.73127 0
M  V30 9 C 3.01775 -0.0973839 0.215393 0
M  V30 10 O 4.16747 -0.524237 -0.0505756 0
M  V30 11 N 2.90116 1.11841 0.930342 0
M  V30 12 N 4.03352 1.82458 1.32942 0
M  V30 13 C -1.82396 1.10327 -0.093456 0
M  V30 14 O -0.750465 1.74939 -0.270505 0
M  V30 15 N -3.01293 1.81233 0.106797 0
M  V30 16 N -3.01198 3.20038 0.110679 0
M  V30 17 H -1.53297 -0.912815 1.99323 0
M  V30 18 H -3.26932 -0.633585 1.42838 0
M  V30 19 H -2.36204 -2.09683 0.95429 0
M  V30 20 H -2.16287 -0.494451 -2.20436 0
M  V30 21 H -2.62998 -1.96992 -1.25081 0
M  V30 22 H -3.62881 -0.449397 -1.08076 0
M  V30 23 H 1.03898 -2.84717 0.301247 0
M  V30 24 H 2.88384 -2.6933 0.267598 0
M  V30 25 H 1.91597 -1.96054 1.59013 0
M  V30 26 H 0.816138 -1.38356 -2.00373 0
M  V30 27 H 2.55926 -1.81726 -2.08935 0
M  V30 28 H 2.01685 -0.093169 -2.19353 0
M  V30 29 H 1.94043 1.45716 1.14204 0
M  V30 30 H 4.1016 2.74291 0.804615 0
M  V30 31 H 4.05676 2.02903 2.34369 0
M  V30 32 H -3.90845 1.31204 0.254602 0
M  V30 33 H -3.98647 3.57954 0.160789 0
M  V30 34 H -2.58685 3.56051 -0.794595 0
M  V30 END ATOM
M  V30 BEGIN BOND
M  V30 1 1 1 2
M  V30 2 1 2 3
M  V30 3 1 2 4
M  V30 4 2 4 5 CFG=2
M  V30 5 1 5 6
M  V30 6 1 6 7
M  V30 7 1 6 8
M  V30 8 1 6 9
M  V30 9 2 9 10
M  V30 10 1 9 11
M  V30 11 1 11 12
M  V30 12 1 2 13
M  V30 13 2 13 14
M  V30 14 1 13 15
M  V30 15 1 15 16
M  V30 16 1 1 17
M  V30 17 1 1 18
M  V30 18 1 1 19
M  V30 19 1 3 20
M  V30 20 1 3 21
M  V30 21 1 3 22
M  V30 22 1 7 23
M  V30 23 1 7 24
M  V30 24 1 7 25
M  V30 25 1 8 26
M  V30 26 1 8 27
M  V30 27 1 8 28
M  V30 28 1 11 29
M  V30 29 1 12 30
M  V30 30 1 12 31
M  V30 31 1 15 32
M  V30 32 1 16 33
M  V30 33 1 16 34
M  V30 END BOND
M  V30 END CTAB
M  END
