
     RDKit          3D

  0  0  0  0  0  0  0  0  0  0999 V3000
M  V30 BEGIN CTAB
M  V30 COUNTS 23 24 0 0 0
M  V30 BEGIN ATOM
M  V30 1 N 3.65333 0.620963 -0.626895 0
M  V30 2 N 2.34126 0.710932 -0.170136 0
M  V30 3 C 1.74811 1.78254 0.38878 0
M  V30 4 N 0.48274 1.50879 0.706005 0
M  V30 5 C 0.253966 0.223113 0.340743 0
M  V30 6 C 1.41392 -0.268658 -0.203965 0
M  V30 7 N 1.55463 -1.59339 -0.702495 0
M  V30 8 C -1.00597 -0.504383 0.501002 0
M  V30 9 C -1.20085 -1.78772 0.971788 0
M  V30 10 N -2.5134 -2.07948 0.961163 0
M  V30 11 C -3.15617 -0.998918 0.489903 0
M  V30 12 N -2.23898 -0.0465885 0.21222 0
M  V30 13 C -2.53374 1.26379 -0.314314 0
M  V30 14 H 4.19683 1.48083 -0.859695 0
M  V30 15 H 4.13625 -0.293421 -0.752138 0
M  V30 16 H 2.1972 2.76279 0.578091 0
M  V30 17 H 1.45666 -1.83841 -1.71772 0
M  V30 18 H 1.76779 -2.41118 -0.0701313 0
M  V30 19 H -0.42342 -2.47104 1.3042 0
M  V30 20 H -4.21478 -0.896926 0.352838 0
M  V30 21 H -2.09814 2.07554 0.296708 0
M  V30 22 H -3.63417 1.4417 -0.32072 0
M  V30 23 H -2.18309 1.31912 -1.36523 0
M  V30 END ATOM
M  V30 BEGIN BOND
M  V30 1 1 1 2
M  V30 2 1 2 3
M  V30 3 2 3 4
M  V30 4 1 4 5
M  V30 5 2 5 6
M  V30 6 1 6 7
M  V30 7 1 5 8
M  V30 8 2 8 9
M  V30 9 1 9 10
M  V30 10 2 10 11
M  V30 11 1 11 12
M  V30 12 1 12 13
M  V30 13 1 6 2
M  V30 14 1 12 8
M  V30 15 1 1 14
M  V30 16 1 1 15
M  V30 17 1 3 16
M  V30 18 1 7 17
M  V30 19 1 7 18
M  V30 20 1 9 19
M  V30 21 1 11 20
M  V30 22 1 13 21
M  V30 23 1 13 22
M  V30 24 1 13 23
M  V30 END BOND
M  V30 END CTAB
M  END
