
     RDKit          3D

  0  0  0  0  0  0  0  0  0  0999 V3000
M  V30 BEGIN CTAB
M  V30 COUNTS 32 33 0 0 0
M  V30 BEGIN ATOM
M  V30 1 N -5.59848 -0.042939 0.584331 0
M  V30 2 C -4.19425 0.205672 0.345635 0
M  V30 3 N -3.79074 1.38944 0.638814 0
M  V30 4 S -2.14299 1.78972 0.393999 0
M  V30 5 O -1.53127 2.07153 1.73729 0
M  V30 6 O -1.97282 2.96473 -0.535408 0
M  V30 7 N -1.37315 0.380262 -0.238897 0
M  V30 8 C 0.0232006 0.421496 -0.542399 0
M  V30 9 C 0.876454 0.016247 0.634342 0
M  V30 10 C 2.3177 0.0557352 0.331624 0
M  V30 11 C 3.1014 1.186 0.526692 0
M  V30 12 C 4.43831 1.20324 0.239742 0
M  V30 13 C 5.05596 0.0761596 -0.260937 0
M  V30 14 C 4.31744 -1.06523 -0.469498 0
M  V30 15 C 2.97052 -1.05192 -0.170447 0
M  V30 16 C -2.10857 -0.824283 -0.463448 0
M  V30 17 N -1.42599 -1.97847 -0.994045 0
M  V30 18 C -3.39658 -0.870447 -0.185646 0
M  V30 19 H -5.80437 -0.965198 1.02557 0
M  V30 20 H -6.33362 0.627009 0.342359 0
M  V30 21 H 0.224102 -0.350322 -1.34293 0
M  V30 22 H 0.341944 1.37686 -0.973204 0
M  V30 23 H 0.616642 0.68134 1.4864 0
M  V30 24 H 0.641471 -1.01389 0.971211 0
M  V30 25 H 2.63192 2.06607 0.914821 0
M  V30 26 H 5.01864 2.09833 0.403046 0
M  V30 27 H 6.12319 0.117613 -0.481008 0
M  V30 28 H 4.8292 -1.9262 -0.860716 0
M  V30 29 H 2.39703 -1.96162 -0.339991 0
M  V30 30 H -0.916731 -1.95266 -1.8835 0
M  V30 31 H -1.45129 -2.88741 -0.444751 0
M  V30 32 H -3.88425 -1.83689 -0.389042 0
M  V30 END ATOM
M  V30 BEGIN BOND
M  V30 1 1 1 2
M  V30 2 2 2 3
M  V30 3 1 3 4
M  V30 4 2 4 5
M  V30 5 2 4 6
M  V30 6 1 4 7
M  V30 7 1 7 8
M  V30 8 1 8 9
M  V30 9 1 9 10
M  V30 10 2 10 11
M  V30 11 1 11 12
M  V30 12 2 12 13
M  V30 13 1 13 14
M  V30 14 2 14 15
M  V30 15 1 7 16
M  V30 16 1 16 17
M  V30 17 2 16 18
M  V30 18 1 18 2
M  V30 19 1 15 10
M  V30 20 1 1 19
M  V30 21 1 1 20
M  V30 22 1 8 21
M  V30 23 1 8 22
M  V30 24 1 9 23
M  V30 25 1 9 24
M  V30 26 1 11 25
M  V30 27 1 12 26
M  V30 28 1 13 27
M  V30 29 1 14 28
M  V30 30 1 15 29
M  V30 31 1 17 30
M  V30 32 1 17 31
M  V30 33 1 18 32
M  V30 END BOND
M  V30 END CTAB
M  END
