
     RDKit          3D

  0  0  0  0  0  0  0  0  0  0999 V3000
M  V30 BEGIN CTAB
M  V30 COUNTS 31 31 0 0 0
M  V30 BEGIN ATOM
M  V30 1 C 3.63664 -1.29518 -0.512381 0
M  V30 2 C 2.59112 -0.249157 -0.373391 0
M  V30 3 C 2.91387 1.04292 -0.74351 0
M  V30 4 N 1.96504 1.98744 -0.616359 0
M  V30 5 C 0.737973 1.75682 -0.157722 0
M  V30 6 C 0.39304 0.455387 0.221683 0
M  V30 7 C 1.33113 -0.547458 0.10998 0
M  V30 8 C -0.94387 0.187176 0.722337 0
M  V30 9 C -2.04825 0.31537 -0.288721 0
M  V30 10 N -3.27585 -0.140114 0.384051 0
M  V30 11 C -1.8576 -0.628736 -1.45963 0
M  V30 12 O -1.16148 0.951452 1.85513 0
M  V30 13 C -0.984727 -1.26725 1.20233 0
M  V30 14 N -0.184739 2.83422 -0.0646571 0
M  V30 15 H 3.90861 -1.4467 -1.59668 0
M  V30 16 H 3.27574 -2.27403 -0.142605 0
M  V30 17 H 4.54721 -1.05033 0.0942295 0
M  V30 18 H 3.89439 1.24189 -1.11297 0
M  V30 19 H 1.14809 -1.57238 0.378981 0
M  V30 20 H -2.17365 1.3168 -0.716162 0
M  V30 21 H -3.28504 0.0887332 1.38129 0
M  V30 22 H -3.32916 -1.17864 0.289545 0
M  V30 23 H -2.31275 -1.6152 -1.25013 0
M  V30 24 H -2.4117 -0.224773 -2.34431 0
M  V30 25 H -0.800648 -0.695372 -1.77648 0
M  V30 26 H -1.57913 0.441016 2.59901 0
M  V30 27 H -0.848693 -1.97628 0.35989 0
M  V30 28 H -1.93298 -1.44579 1.75354 0
M  V30 29 H -0.172507 -1.47861 1.92746 0
M  V30 30 H -0.426512 3.33924 -0.942698 0
M  V30 31 H -0.61355 3.12754 0.818946 0
M  V30 END ATOM
M  V30 BEGIN BOND
M  V30 1 1 1 2
M  V30 2 2 2 3
M  V30 3 1 3 4
M  V30 4 2 4 5
M  V30 5 1 5 6
M  V30 6 2 6 7
M  V30 7 1 6 8
M  V30 8 1 8 9
M  V30 9 1 9 10
M  V30 10 1 9 11
M  V30 11 1 8 12
M  V30 12 1 8 13
M  V30 13 1 5 14
M  V30 14 1 7 2
M  V30 15 1 1 15
M  V30 16 1 1 16
M  V30 17 1 1 17
M  V30 18 1 3 18
M  V30 19 1 7 19
M  V30 20 1 9 20
M  V30 21 1 10 21
M  V30 22 1 10 22
M  V30 23 1 11 23
M  V30 24 1 11 24
M  V30 25 1 11 25
M  V30 26 1 12 26
M  V30 27 1 13 27
M  V30 28 1 13 28
M  V30 29 1 13 29
M  V30 30 1 14 30
M  V30 31 1 14 31
M  V30 END BOND
M  V30 END CTAB
M  END
