
     RDKit          3D

  0  0  0  0  0  0  0  0  0  0999 V3000
M  V30 BEGIN CTAB
M  V30 COUNTS 27 27 0 0 0
M  V30 BEGIN ATOM
M  V30 1 N 3.08821 0.309453 1.01808 0
M  V30 2 C 2.17651 0.615527 -0.0349052 0
M  V30 3 C 1.01901 -0.346684 -0.132086 0
M  V30 4 N 1.44407 -1.70629 -0.371041 0
M  V30 5 C 0.14746 0.134169 -1.29093 0
M  V30 6 N -1.20632 0.0570279 -0.823056 0
M  V30 7 C -1.2045 0.302583 0.585193 0
M  V30 8 C 0.128315 -0.213797 1.06943 0
M  V30 9 C -2.28421 -0.438677 1.31944 0
M  V30 10 C -2.0904 0.923474 -1.56582 0
M  V30 11 H 2.79673 -0.435851 1.6625 0
M  V30 12 H 4.08214 0.216623 0.681559 0
M  V30 13 H 2.69233 0.651476 -1.01652 0
M  V30 14 H 1.73333 1.62756 0.121174 0
M  V30 15 H 0.923636 -2.08306 -1.20097 0
M  V30 16 H 1.15512 -2.32008 0.435562 0
M  V30 17 H 0.303579 -0.555158 -2.14005 0
M  V30 18 H 0.421216 1.14616 -1.61374 0
M  V30 19 H -1.24228 1.39334 0.764151 0
M  V30 20 H 0.0139658 -1.22475 1.5208 0
M  V30 21 H 0.540078 0.434845 1.86133 0
M  V30 22 H -2.87429 0.266827 1.96734 0
M  V30 23 H -1.89137 -1.22635 1.9989 0
M  V30 24 H -2.95951 -0.947379 0.592582 0
M  V30 25 H -2.10932 1.95787 -1.20039 0
M  V30 26 H -1.6987 0.950128 -2.6211 0
M  V30 27 H -3.10478 0.511016 -1.58742 0
M  V30 END ATOM
M  V30 BEGIN BOND
M  V30 1 1 1 2
M  V30 2 1 2 3
M  V30 3 1 3 4
M  V30 4 1 3 5
M  V30 5 1 5 6
M  V30 6 1 6 7
M  V30 7 1 7 8
M  V30 8 1 7 9
M  V30 9 1 6 10
M  V30 10 1 8 3
M  V30 11 1 1 11
M  V30 12 1 1 12
M  V30 13 1 2 13
M  V30 14 1 2 14
M  V30 15 1 4 15
M  V30 16 1 4 16
M  V30 17 1 5 17
M  V30 18 1 5 18
M  V30 19 1 7 19
M  V30 20 1 8 20
M  V30 21 1 8 21
M  V30 22 1 9 22
M  V30 23 1 9 23
M  V30 24 1 9 24
M  V30 25 1 10 25
M  V30 26 1 10 26
M  V30 27 1 10 27
M  V30 END BOND
M  V30 END CTAB
M  END
