
     RDKit          3D

  0  0  0  0  0  0  0  0  0  0999 V3000
M  V30 BEGIN CTAB
M  V30 COUNTS 32 33 0 0 0
M  V30 BEGIN ATOM
M  V30 1 C 1.44924 1.04113 -2.35782 0
M  V30 2 O 0.687892 0.632721 -1.24393 0
M  V30 3 C 1.31023 0.0494789 -0.154894 0
M  V30 4 C 2.68091 -0.121816 -0.188193 0
M  V30 5 C 3.35078 -0.696684 0.862804 0
M  V30 6 C 2.63627 -1.10585 1.96331 0
M  V30 7 C 1.27315 -0.944036 2.01563 0
M  V30 8 C 0.606193 -0.363024 0.95112 0
M  V30 9 C -0.881214 -0.146631 0.956942 0
M  V30 10 C -1.14596 1.2272 0.539657 0
M  V30 11 C -2.06589 1.6371 -0.299997 0
M  V30 12 N -2.27044 2.99739 -0.66493 0
M  V30 13 S -3.16599 0.427148 -1.05603 0
M  V30 14 C -2.52091 -1.16674 -0.573691 0
M  V30 15 C -1.55571 -1.23326 0.287159 0
M  V30 16 C -1.10452 -2.59094 0.608526 0
M  V30 17 N -0.733809 -3.65488 0.875619 0
M  V30 18 N -3.10383 -2.35285 -1.16719 0
M  V30 19 C -0.309563 2.26394 1.13028 0
M  V30 20 N 0.357871 3.0943 1.58379 0
M  V30 21 Br 3.51548 -1.90553 3.43992 0
M  V30 22 H 0.859815 1.50887 -3.1432 0
M  V30 23 H 2.23794 1.77963 -2.05335 0
M  V30 24 H 2.00291 0.129622 -2.70896 0
M  V30 25 H 3.21345 0.210941 -1.06882 0
M  V30 26 H 4.43275 -0.836815 0.84719 0
M  V30 27 H 0.666477 -1.25166 2.86358 0
M  V30 28 H -1.12652 -0.157023 2.07884 0
M  V30 29 H -1.57618 3.49715 -1.26182 0
M  V30 30 H -3.11118 3.53944 -0.353653 0
M  V30 31 H -2.9522 -2.54221 -2.16979 0
M  V30 32 H -3.65748 -2.96611 -0.538116 0
M  V30 END ATOM
M  V30 BEGIN BOND
M  V30 1 1 1 2
M  V30 2 1 2 3
M  V30 3 2 3 4
M  V30 4 1 4 5
M  V30 5 2 5 6
M  V30 6 1 6 7
M  V30 7 2 7 8
M  V30 8 1 8 9
M  V30 9 1 9 10
M  V30 10 2 10 11
M  V30 11 1 11 12
M  V30 12 1 11 13
M  V30 13 1 13 14
M  V30 14 2 14 15
M  V30 15 1 15 16
M  V30 16 3 16 17
M  V30 17 1 14 18
M  V30 18 1 10 19
M  V30 19 3 19 20
M  V30 20 1 6 21
M  V30 21 1 8 3
M  V30 22 1 15 9
M  V30 23 1 1 22
M  V30 24 1 1 23
M  V30 25 1 1 24
M  V30 26 1 4 25
M  V30 27 1 5 26
M  V30 28 1 7 27
M  V30 29 1 9 28
M  V30 30 1 12 29
M  V30 31 1 12 30
M  V30 32 1 18 31
M  V30 33 1 18 32
M  V30 END BOND
M  V30 END CTAB
M  END
