
     RDKit          3D

  0  0  0  0  0  0  0  0  0  0999 V3000
M  V30 BEGIN CTAB
M  V30 COUNTS 36 37 0 0 0
M  V30 BEGIN ATOM
M  V30 1 N -5.66405 0.0843343 -0.0644486 0
M  V30 2 C -4.29888 0.0620321 0.370567 0
M  V30 3 C -3.72839 -1.33881 0.466283 0
M  V30 4 C -2.23254 -1.11251 0.413627 0
M  V30 5 N -2.05491 0.182906 -0.229914 0
M  V30 6 C -3.34753 0.706291 -0.612986 0
M  V30 7 C -0.787444 0.775391 -0.417276 0
M  V30 8 O -0.730579 1.89548 -0.982397 0
M  V30 9 C 0.478491 0.143122 0.0187562 0
M  V30 10 C 1.66686 1.02487 -0.323125 0
M  V30 11 C 2.90744 0.390519 0.111543 0
M  V30 12 C 3.5266 -0.613619 -0.641406 0
M  V30 13 C 4.69474 -1.19145 -0.203824 0
M  V30 14 C 5.30224 -0.815842 0.977905 0
M  V30 15 C 4.67748 0.176262 1.70785 0
M  V30 16 C 3.50464 0.774991 1.29473 0
M  V30 17 N 1.64889 1.38928 -1.71795 0
M  V30 18 H -6.1976 -0.780093 0.153553 0
M  V30 19 H -5.74026 0.381281 -1.04754 0
M  V30 20 H -4.14687 0.544784 1.36029 0
M  V30 21 H -4.00223 -1.94998 -0.426539 0
M  V30 22 H -4.04852 -1.85617 1.3956 0
M  V30 23 H -1.70787 -1.9158 -0.142335 0
M  V30 24 H -1.79341 -1.11587 1.43718 0
M  V30 25 H -3.55028 0.376646 -1.6507 0
M  V30 26 H -3.41036 1.79675 -0.586923 0
M  V30 27 H 0.627914 -0.841372 -0.506087 0
M  V30 28 H 0.414642 -0.0807637 1.08502 0
M  V30 29 H 1.51953 1.9668 0.250442 0
M  V30 30 H 3.02284 -0.881849 -1.56032 0
M  V30 31 H 5.13513 -1.95866 -0.814192 0
M  V30 32 H 6.23035 -1.27934 1.31935 0
M  V30 33 H 5.12474 0.493018 2.63463 0
M  V30 34 H 3.02805 1.56446 1.89765 0
M  V30 35 H 1.95463 0.660119 -2.36186 0
M  V30 36 H 1.97649 2.3428 -1.9069 0
M  V30 END ATOM
M  V30 BEGIN BOND
M  V30 1 1 1 2
M  V30 2 1 2 3
M  V30 3 1 3 4
M  V30 4 1 4 5
M  V30 5 1 5 6
M  V30 6 1 5 7
M  V30 7 2 7 8
M  V30 8 1 7 9
M  V30 9 1 9 10
M  V30 10 1 10 11
M  V30 11 2 11 12
M  V30 12 1 12 13
M  V30 13 2 13 14
M  V30 14 1 14 15
M  V30 15 2 15 16
M  V30 16 1 10 17
M  V30 17 1 6 2
M  V30 18 1 16 11
M  V30 19 1 1 18
M  V30 20 1 1 19
M  V30 21 1 2 20
M  V30 22 1 3 21
M  V30 23 1 3 22
M  V30 24 1 4 23
M  V30 25 1 4 24
M  V30 26 1 6 25
M  V30 27 1 6 26
M  V30 28 1 9 27
M  V30 29 1 9 28
M  V30 30 1 10 29
M  V30 31 1 12 30
M  V30 32 1 13 31
M  V30 33 1 14 32
M  V30 34 1 15 33
M  V30 35 1 16 34
M  V30 36 1 17 35
M  V30 37 1 17 36
M  V30 END BOND
M  V30 END CTAB
M  END
