
     RDKit          3D

  0  0  0  0  0  0  0  0  0  0999 V3000
M  V30 BEGIN CTAB
M  V30 COUNTS 28 30 0 0 0
M  V30 BEGIN ATOM
M  V30 1 N 5.09563 0.12384 0.0770173 0
M  V30 2 C 3.70611 0.455499 0.0784228 0
M  V30 3 C 3.31663 1.76986 0.167325 0
M  V30 4 Br 4.62817 3.14823 0.288576 0
M  V30 5 C 1.95043 2.05211 0.165544 0
M  V30 6 C 1.01666 1.05431 0.0780428 0
M  V30 7 C -0.408228 1.35159 0.076414 0
M  V30 8 O -0.806359 2.54156 0.156164 0
M  V30 9 C -1.39741 0.283531 -0.0170578 0
M  V30 10 C -1.01585 -1.05112 -0.107559 0
M  V30 11 C -1.9739 -2.04003 -0.194778 0
M  V30 12 C -3.32724 -1.76121 -0.196568 0
M  V30 13 Br -4.64439 -3.14218 -0.317995 0
M  V30 14 C -3.70815 -0.434983 -0.106668 0
M  V30 15 N -5.09361 -0.148808 -0.108428 0
M  V30 16 C -2.74696 0.570172 -0.0182206 0
M  V30 17 Br -3.3577 2.37847 0.10287 0
M  V30 18 C 0.405983 -1.33322 -0.104885 0
M  V30 19 O 0.774067 -2.53913 -0.186283 0
M  V30 20 C 1.41959 -0.278739 -0.0119987 0
M  V30 21 C 2.77159 -0.553285 -0.00988792 0
M  V30 22 Br 3.3543 -2.37613 -0.132472 0
M  V30 23 H 5.70969 0.480412 0.835072 0
M  V30 24 H 5.49138 -0.462829 -0.665558 0
M  V30 25 H 1.67888 3.09175 0.236477 0
M  V30 26 H -1.66864 -3.08232 -0.265335 0
M  V30 27 H -5.74974 -0.824402 0.338772 0
M  V30 28 H -5.42091 0.727055 -0.555299 0
M  V30 END ATOM
M  V30 BEGIN BOND
M  V30 1 1 1 2
M  V30 2 2 2 3
M  V30 3 1 3 4
M  V30 4 1 3 5
M  V30 5 2 5 6
M  V30 6 1 6 7
M  V30 7 2 7 8
M  V30 8 1 7 9
M  V30 9 2 9 10
M  V30 10 1 10 11
M  V30 11 2 11 12
M  V30 12 1 12 13
M  V30 13 1 12 14
M  V30 14 1 14 15
M  V30 15 2 14 16
M  V30 16 1 16 17
M  V30 17 1 10 18
M  V30 18 2 18 19
M  V30 19 1 18 20
M  V30 20 2 20 21
M  V30 21 1 21 22
M  V30 22 1 21 2
M  V30 23 1 20 6
M  V30 24 1 16 9
M  V30 25 1 1 23
M  V30 26 1 1 24
M  V30 27 1 5 25
M  V30 28 1 11 26
M  V30 29 1 15 27
M  V30 30 1 15 28
M  V30 END BOND
M  V30 END CTAB
M  END
