
     RDKit          3D

  0  0  0  0  0  0  0  0  0  0999 V3000
M  V30 BEGIN CTAB
M  V30 COUNTS 20 20 0 0 0
M  V30 BEGIN ATOM
M  V30 1 C 3.13678 0.0628814 0.196857 0
M  V30 2 O 1.90343 0.73502 0.230766 0
M  V30 3 C 0.71172 0.0293414 0.0499731 0
M  V30 4 C 0.700339 -1.33317 -0.165418 0
M  V30 5 C -0.500731 -2.01424 -0.342867 0
M  V30 6 C -1.68757 -1.32204 -0.303067 0
M  V30 7 C -1.71306 0.043032 -0.0894258 0
M  V30 8 N -2.92123 0.780917 -0.0436627 0
M  V30 9 C -0.495904 0.692225 0.0839405 0
M  V30 10 N -0.497732 2.07707 0.302088 0
M  V30 11 H 3.34272 -0.210744 -0.859121 0
M  V30 12 H 3.15917 -0.867649 0.783085 0
M  V30 13 H 3.94569 0.741621 0.538696 0
M  V30 14 H 1.65283 -1.84046 -0.18976 0
M  V30 15 H -0.421138 -3.07853 -0.505949 0
M  V30 16 H -2.59838 -1.86424 -0.441684 0
M  V30 17 H -3.53316 0.89824 -0.872605 0
M  V30 18 H -3.20023 1.21841 0.854494 0
M  V30 19 H -1.3498 2.5968 0.607262 0
M  V30 20 H 0.366254 2.65553 0.166399 0
M  V30 END ATOM
M  V30 BEGIN BOND
M  V30 1 1 1 2
M  V30 2 1 2 3
M  V30 3 2 3 4
M  V30 4 1 4 5
M  V30 5 2 5 6
M  V30 6 1 6 7
M  V30 7 1 7 8
M  V30 8 2 7 9
M  V30 9 1 9 10
M  V30 10 1 9 3
M  V30 11 1 1 11
M  V30 12 1 1 12
M  V30 13 1 1 13
M  V30 14 1 4 14
M  V30 15 1 5 15
M  V30 16 1 6 16
M  V30 17 1 8 17
M  V30 18 1 8 18
M  V30 19 1 10 19
M  V30 20 1 10 20
M  V30 END BOND
M  V30 END CTAB
M  END
