
     RDKit          3D

  0  0  0  0  0  0  0  0  0  0999 V3000
M  V30 BEGIN CTAB
M  V30 COUNTS 28 28 0 0 0
M  V30 BEGIN ATOM
M  V30 1 N -3.06717 -1.6457 -0.151279 0
M  V30 2 N -1.81459 -1.90204 0.37001 0
M  V30 3 C -0.858329 -0.906002 -0.0739527 0 CFG=2
M  V30 4 O 0.414087 -1.17795 0.460206 0
M  V30 5 C 1.36034 -0.410849 -0.197466 0 CFG=2
M  V30 6 C 2.71725 -0.734966 0.376314 0
M  V30 7 O 3.05843 -2.06788 0.229561 0
M  V30 8 C 1.14422 1.05492 -0.0923217 0 CFG=1
M  V30 9 O 1.74936 1.65246 -1.22115 0
M  V30 10 C -0.25378 1.49979 0.0725434 0 CFG=2
M  V30 11 O -0.35896 2.52353 1.04149 0
M  V30 12 C -1.23865 0.448986 0.439922 0 CFG=1
M  V30 13 N -2.55077 0.884148 0.0136605 0
M  V30 14 H -3.75924 -2.35636 0.172517 0
M  V30 15 H -3.00303 -1.6499 -1.20189 0
M  V30 16 H -1.51226 -2.85318 0.0930023 0
M  V30 17 H -0.784578 -0.880451 -1.17269 0
M  V30 18 H 1.31527 -0.724671 -1.27982 0
M  V30 19 H 2.72182 -0.4032 1.42815 0
M  V30 20 H 3.46053 -0.11283 -0.194917 0
M  V30 21 H 4.04896 -2.11644 0.334025 0
M  V30 22 H 1.72757 1.4342 0.796761 0
M  V30 23 H 2.6937 1.88892 -1.0437 0
M  V30 24 H -0.59129 1.97096 -0.882749 0
M  V30 25 H -0.0600797 3.38287 0.666968 0
M  V30 26 H -1.29774 0.363226 1.56445 0
M  V30 27 H -2.72278 1.80629 0.469049 0
M  V30 28 H -2.53828 1.03213 -1.0167 0
M  V30 END ATOM
M  V30 BEGIN BOND
M  V30 1 1 1 2
M  V30 2 1 2 3
M  V30 3 1 3 4
M  V30 4 1 4 5
M  V30 5 1 5 6
M  V30 6 1 6 7
M  V30 7 1 5 8
M  V30 8 1 8 9
M  V30 9 1 8 10
M  V30 10 1 10 11
M  V30 11 1 10 12
M  V30 12 1 12 13
M  V30 13 1 12 3
M  V30 14 1 1 14
M  V30 15 1 1 15
M  V30 16 1 2 16
M  V30 17 1 3 17 CFG=3
M  V30 18 1 5 18 CFG=3
M  V30 19 1 6 19
M  V30 20 1 6 20
M  V30 21 1 7 21
M  V30 22 1 8 22 CFG=1
M  V30 23 1 9 23
M  V30 24 1 10 24 CFG=3
M  V30 25 1 11 25
M  V30 26 1 12 26 CFG=1
M  V30 27 1 13 27
M  V30 28 1 13 28
M  V30 END BOND
M  V30 END CTAB
M  END
