
     RDKit          3D

  0  0  0  0  0  0  0  0  0  0999 V3000
M  V30 BEGIN CTAB
M  V30 COUNTS 40 40 0 0 0
M  V30 BEGIN ATOM
M  V30 1 C -5.72853 1.19099 1.03472 0
M  V30 2 C -5.11697 1.65579 -0.275464 0
M  V30 3 C -4.38929 0.507862 -0.89003 0
M  V30 4 C -3.30905 0.00898193 0.027802 0
M  V30 5 C -2.3227 1.11041 0.291338 0
M  V30 6 C -1.19687 0.616418 1.22066 0
M  V30 7 O -0.58447 -0.445508 0.551275 0
M  V30 8 C 0.506086 -1.16583 1.09336 0
M  V30 9 O 0.857754 -0.742061 2.23992 0
M  V30 10 N 1.06353 -2.19255 0.405649 0
M  V30 11 C 2.11559 -2.3046 -0.215853 0
M  V30 12 C 3.11437 -1.28325 -0.395844 0
M  V30 13 C 2.92734 0.0383122 -0.173563 0
M  V30 14 C 3.96561 0.972157 -0.27811 0
M  V30 15 C 5.21103 0.545019 -0.616938 0
M  V30 16 C 5.4171 -0.799066 -0.848806 0
M  V30 17 C 4.42321 -1.72205 -0.751991 0
M  V30 18 N 6.31806 1.44754 -0.741089 0
M  V30 19 N 2.37011 -3.61752 -0.850423 0
M  V30 20 H -6.52837 1.88847 1.31566 0
M  V30 21 H -6.15999 0.189396 0.913444 0
M  V30 22 H -4.9523 1.11694 1.8247 0
M  V30 23 H -6.00407 1.94626 -0.923987 0
M  V30 24 H -4.50851 2.55038 -0.0791923 0
M  V30 25 H -3.88968 0.848412 -1.84581 0
M  V30 26 H -5.06023 -0.336719 -1.15525 0
M  V30 27 H -3.78313 -0.362678 0.978649 0
M  V30 28 H -2.81482 -0.844739 -0.504874 0
M  V30 29 H -2.81411 1.97116 0.789907 0
M  V30 30 H -1.93124 1.45855 -0.669438 0
M  V30 31 H -0.51807 1.461 1.45369 0
M  V30 32 H -1.69448 0.330931 2.16651 0
M  V30 33 H 1.97596 0.46567 0.0514624 0
M  V30 34 H 3.75257 1.99729 -0.0886531 0
M  V30 35 H 6.41165 -1.15331 -1.11937 0
M  V30 36 H 4.56007 -2.77042 -0.926581 0
M  V30 37 H 7.20679 1.12788 -1.17148 0
M  V30 38 H 6.20379 2.41604 -0.392032 0
M  V30 39 H 3.09711 -4.23269 -0.471525 0
M  V30 40 H 1.80915 -3.8889 -1.6643 0
M  V30 END ATOM
M  V30 BEGIN BOND
M  V30 1 1 1 2
M  V30 2 1 2 3
M  V30 3 1 3 4
M  V30 4 1 4 5
M  V30 5 1 5 6
M  V30 6 1 6 7
M  V30 7 1 7 8
M  V30 8 2 8 9
M  V30 9 1 8 10
M  V30 10 2 10 11
M  V30 11 1 11 12
M  V30 12 2 12 13
M  V30 13 1 13 14
M  V30 14 2 14 15
M  V30 15 1 15 16
M  V30 16 2 16 17
M  V30 17 1 15 18
M  V30 18 1 11 19
M  V30 19 1 17 12
M  V30 20 1 1 20
M  V30 21 1 1 21
M  V30 22 1 1 22
M  V30 23 1 2 23
M  V30 24 1 2 24
M  V30 25 1 3 25
M  V30 26 1 3 26
M  V30 27 1 4 27
M  V30 28 1 4 28
M  V30 29 1 5 29
M  V30 30 1 5 30
M  V30 31 1 6 31
M  V30 32 1 6 32
M  V30 33 1 13 33
M  V30 34 1 14 34
M  V30 35 1 16 35
M  V30 36 1 17 36
M  V30 37 1 18 37
M  V30 38 1 18 38
M  V30 39 1 19 39
M  V30 40 1 19 40
M  V30 END BOND
M  V30 END CTAB
M  END
