
     RDKit          3D

  0  0  0  0  0  0  0  0  0  0999 V3000
M  V30 BEGIN CTAB
M  V30 COUNTS 37 39 0 0 0
M  V30 BEGIN ATOM
M  V30 1 C -1.42167 -3.13439 -0.230299 0
M  V30 2 O -0.97159 -1.79705 -0.331411 0
M  V30 3 C -1.85078 -0.793951 0.0320204 0
M  V30 4 C -3.13147 -1.07477 0.481495 0
M  V30 5 C -4.00774 -0.0795443 0.843508 0
M  V30 6 C -3.58165 1.22559 0.749561 0
M  V30 7 C -2.29663 1.54835 0.300444 0
M  V30 8 C -1.4328 0.525013 -0.0583686 0
M  V30 9 C -0.0789721 0.75535 -0.536594 0
M  V30 10 N 0.706932 -0.241879 -0.866113 0
M  V30 11 N 2.00396 -0.0488419 -1.32554 0
M  V30 12 C 3.03381 -0.596182 -0.776167 0
M  V30 13 C 4.38043 -0.367776 -1.28969 0
M  V30 14 N 4.77093 0.380911 -2.32908 0
M  V30 15 O 6.0568 0.319652 -2.45488 0
M  V30 16 N 6.51623 -0.443513 -1.53257 0
M  V30 17 C 5.52449 -0.919046 -0.753398 0
M  V30 18 N 5.59831 -1.78635 0.366514 0
M  V30 19 N 2.79549 -1.43006 0.349995 0
M  V30 20 C -1.88176 2.85892 0.210779 0
M  V30 21 C -2.76379 3.85466 0.574883 0
M  V30 22 C -4.0325 3.53839 1.01841 0
M  V30 23 C -4.44221 2.23354 1.10647 0
M  V30 24 H -0.675768 -3.82381 -0.720775 0
M  V30 25 H -1.59233 -3.44625 0.808697 0
M  V30 26 H -2.35101 -3.24329 -0.861332 0
M  V30 27 H -3.44449 -2.1196 0.546567 0
M  V30 28 H -5.00756 -0.283264 1.19513 0
M  V30 29 H 0.389152 1.71845 -0.661411 0
M  V30 30 H 5.07144 -2.68184 0.327507 0
M  V30 31 H 6.14781 -1.56464 1.20675 0
M  V30 32 H 2.59212 -2.43664 0.201911 0
M  V30 33 H 2.83872 -0.974861 1.28855 0
M  V30 34 H -0.881133 3.09258 -0.139751 0
M  V30 35 H -2.46744 4.87155 0.514537 0
M  V30 36 H -4.68826 4.35516 1.29262 0
M  V30 37 H -5.42508 2.00943 1.45103 0
M  V30 END ATOM
M  V30 BEGIN BOND
M  V30 1 1 1 2
M  V30 2 1 2 3
M  V30 3 2 3 4
M  V30 4 1 4 5
M  V30 5 2 5 6
M  V30 6 1 6 7
M  V30 7 2 7 8
M  V30 8 1 8 9
M  V30 9 2 9 10
M  V30 10 1 10 11
M  V30 11 2 11 12
M  V30 12 1 12 13
M  V30 13 2 13 14
M  V30 14 1 14 15
M  V30 15 1 15 16
M  V30 16 2 16 17
M  V30 17 1 17 18
M  V30 18 1 12 19
M  V30 19 1 7 20
M  V30 20 2 20 21
M  V30 21 1 21 22
M  V30 22 2 22 23
M  V30 23 1 8 3
M  V30 24 1 17 13
M  V30 25 1 23 6
M  V30 26 1 1 24
M  V30 27 1 1 25
M  V30 28 1 1 26
M  V30 29 1 4 27
M  V30 30 1 5 28
M  V30 31 1 9 29
M  V30 32 1 18 30
M  V30 33 1 18 31
M  V30 34 1 19 32
M  V30 35 1 19 33
M  V30 36 1 20 34
M  V30 37 1 21 35
M  V30 38 1 22 36
M  V30 39 1 23 37
M  V30 END BOND
M  V30 END CTAB
M  END
