
     RDKit          3D

  0  0  0  0  0  0  0  0  0  0999 V3000
M  V30 BEGIN CTAB
M  V30 COUNTS 41 42 0 0 0
M  V30 BEGIN ATOM
M  V30 1 N 5.75321 1.57962 -1.1387 0
M  V30 2 C 4.55099 1.84658 -0.386472 0
M  V30 3 C 4.07193 0.578314 0.211961 0
M  V30 4 C 4.55362 0.231798 1.46228 0
M  V30 5 C 4.14526 -0.931239 2.07364 0
M  V30 6 C 3.24804 -1.74528 1.41844 0
M  V30 7 C 2.75376 -1.4083 0.156378 0
M  V30 8 C 3.16259 -0.245253 -0.45466 0
M  V30 9 C 1.79973 -2.37074 -0.435813 0
M  V30 10 N 0.499441 -2.32319 0.146418 0
M  V30 11 C -0.40068 -1.28008 -0.196919 0
M  V30 12 O -0.00777958 -0.435322 -1.01199 0
M  V30 13 N -1.6783 -1.23461 0.382027 0
M  V30 14 C -2.68593 -0.295007 0.16464 0
M  V30 15 C -2.62327 0.781744 -0.690775 0
M  V30 16 C -3.67926 1.68694 -0.860317 0
M  V30 17 C -4.84898 1.52769 -0.158398 0
M  V30 18 C -4.92708 0.465279 0.69347 0
M  V30 19 C -3.89342 -0.423841 0.86168 0
M  V30 20 N -4.02214 -1.5298 1.77361 0
M  V30 21 C -5.96778 2.46171 -0.316594 0
M  V30 22 H 5.56141 1.28521 -2.12072 0
M  V30 23 H 6.35914 2.4482 -1.11012 0
M  V30 24 H 3.76831 2.34288 -0.99504 0
M  V30 25 H 4.81842 2.54077 0.43512 0
M  V30 26 H 5.27171 0.859664 2.01025 0
M  V30 27 H 4.50469 -1.22282 3.0472 0
M  V30 28 H 2.92725 -2.66746 1.90568 0
M  V30 29 H 2.79146 0.0220908 -1.42846 0
M  V30 30 H 1.69837 -2.23296 -1.5363 0
M  V30 31 H 2.21674 -3.39004 -0.271537 0
M  V30 32 H 0.177288 -3.06121 0.846139 0
M  V30 33 H -1.91739 -2.01902 1.08173 0
M  V30 34 H -1.72696 0.963792 -1.27593 0
M  V30 35 H -3.583 2.52061 -1.54626 0
M  V30 36 H -5.84225 0.311021 1.26627 0
M  V30 37 H -4.07743 -1.34519 2.78283 0
M  V30 38 H -4.05831 -2.49851 1.41208 0
M  V30 39 H -5.62136 3.36482 -0.891536 0
M  V30 40 H -6.81744 2.00354 -0.840447 0
M  V30 41 H -6.2546 2.8376 0.676098 0
M  V30 END ATOM
M  V30 BEGIN BOND
M  V30 1 1 1 2
M  V30 2 1 2 3
M  V30 3 2 3 4
M  V30 4 1 4 5
M  V30 5 2 5 6
M  V30 6 1 6 7
M  V30 7 2 7 8
M  V30 8 1 7 9
M  V30 9 1 9 10
M  V30 10 1 10 11
M  V30 11 2 11 12
M  V30 12 1 11 13
M  V30 13 1 13 14
M  V30 14 2 14 15
M  V30 15 1 15 16
M  V30 16 2 16 17
M  V30 17 1 17 18
M  V30 18 2 18 19
M  V30 19 1 19 20
M  V30 20 1 17 21
M  V30 21 1 8 3
M  V30 22 1 19 14
M  V30 23 1 1 22
M  V30 24 1 1 23
M  V30 25 1 2 24
M  V30 26 1 2 25
M  V30 27 1 4 26
M  V30 28 1 5 27
M  V30 29 1 6 28
M  V30 30 1 8 29
M  V30 31 1 9 30
M  V30 32 1 9 31
M  V30 33 1 10 32
M  V30 34 1 13 33
M  V30 35 1 15 34
M  V30 36 1 16 35
M  V30 37 1 18 36
M  V30 38 1 20 37
M  V30 39 1 20 38
M  V30 40 1 21 39
M  V30 41 1 21 40
M  V30 42 1 21 41
M  V30 END BOND
M  V30 END CTAB
M  END
