
     RDKit          3D

  0  0  0  0  0  0  0  0  0  0999 V3000
M  V30 BEGIN CTAB
M  V30 COUNTS 35 36 0 0 0
M  V30 BEGIN ATOM
M  V30 1 C -1.19583 -2.94843 0.591484 0
M  V30 2 C 0.0498266 -2.22598 0.85122 0
M  V30 3 O 1.11501 -2.88707 0.992766 0
M  V30 4 N 0.109157 -0.828512 0.954648 0
M  V30 5 C -1.10545 -0.109963 0.71635 0
M  V30 6 C -1.56545 0.135085 -0.544881 0
M  V30 7 N -0.841694 -0.332834 -1.71759 0
M  V30 8 N -2.70393 0.802239 -0.734325 0
M  V30 9 C -3.4439 1.25798 0.285804 0
M  V30 10 N -2.99774 1.02092 1.54562 0
M  V30 11 C -1.86197 0.357459 1.78855 0
M  V30 12 O -1.44585 0.137287 2.97382 0
M  V30 13 N -4.66305 1.96456 0.0933165 0
M  V30 14 C 1.33058 -0.158721 1.33372 0
M  V30 15 C 2.23764 0.252585 0.284317 0
M  V30 16 C 3.28991 -0.522278 -0.200138 0
M  V30 17 C 4.13979 -0.0654763 -1.1986 0
M  V30 18 C 3.97429 1.17309 -1.74885 0
M  V30 19 C 2.94526 1.97217 -1.29926 0
M  V30 20 C 2.126 1.50643 -0.32251 0
M  V30 21 H -1.03658 -3.85004 -0.0714645 0
M  V30 22 H -2.00804 -2.37835 0.136734 0
M  V30 23 H -1.59385 -3.43305 1.54649 0
M  V30 24 H -1.09311 -1.27417 -2.06381 0
M  V30 25 H -0.141961 0.313765 -2.10347 0
M  V30 26 H -3.59366 1.3862 2.32392 0
M  V30 27 H -5.28646 2.17424 0.890157 0
M  V30 28 H -4.93017 2.27258 -0.855809 0
M  V30 29 H 1.11277 0.744913 1.97231 0
M  V30 30 H 1.89663 -0.826851 2.05153 0
M  V30 31 H 3.4543 -1.49178 0.212572 0
M  V30 32 H 4.93902 -0.749782 -1.51408 0
M  V30 33 H 4.64503 1.50671 -2.52048 0
M  V30 34 H 2.82402 2.96607 -1.74856 0
M  V30 35 H 1.31947 2.139 0.0274621 0
M  V30 END ATOM
M  V30 BEGIN BOND
M  V30 1 1 1 2
M  V30 2 2 2 3
M  V30 3 1 2 4
M  V30 4 1 4 5
M  V30 5 2 5 6
M  V30 6 1 6 7
M  V30 7 1 6 8
M  V30 8 2 8 9
M  V30 9 1 9 10
M  V30 10 1 10 11
M  V30 11 2 11 12
M  V30 12 1 9 13
M  V30 13 1 4 14
M  V30 14 1 14 15
M  V30 15 2 15 16
M  V30 16 1 16 17
M  V30 17 2 17 18
M  V30 18 1 18 19
M  V30 19 2 19 20
M  V30 20 1 11 5
M  V30 21 1 20 15
M  V30 22 1 1 21
M  V30 23 1 1 22
M  V30 24 1 1 23
M  V30 25 1 7 24
M  V30 26 1 7 25
M  V30 27 1 10 26
M  V30 28 1 13 27
M  V30 29 1 13 28
M  V30 30 1 14 29
M  V30 31 1 14 30
M  V30 32 1 16 31
M  V30 33 1 17 32
M  V30 34 1 18 33
M  V30 35 1 19 34
M  V30 36 1 20 35
M  V30 END BOND
M  V30 END CTAB
M  END
