
     RDKit          3D

  0  0  0  0  0  0  0  0  0  0999 V3000
M  V30 BEGIN CTAB
M  V30 COUNTS 22 22 0 0 0
M  V30 BEGIN ATOM
M  V30 1 N -2.11113 -0.696553 -0.82189 0
M  V30 2 C -1.36666 -0.000855424 0.174485 0
M  V30 3 C 0.057913 -0.457272 0.377513 0
M  V30 4 N 0.764724 -0.293186 -0.847654 0
M  V30 5 S 2.40592 -0.768206 -0.786455 0
M  V30 6 O 2.55766 -1.97532 0.0715277 0
M  V30 7 O 2.80887 -1.17345 -2.19574 0
M  V30 8 N 3.45872 0.517185 -0.328727 0
M  V30 9 C -1.48837 1.51271 0.0174509 0
M  V30 10 O -2.69139 1.43096 0.70213 0
M  V30 11 C -2.14308 0.329191 1.3977 0
M  V30 12 H -1.557 -1.33592 -1.42273 0
M  V30 13 H -2.93972 -1.1646 -0.392579 0
M  V30 14 H 0.526861 -0.0282636 1.26397 0
M  V30 15 H -0.00618423 -1.56886 0.572565 0
M  V30 16 H 0.585295 0.565415 -1.36454 0
M  V30 17 H 4.42414 0.238966 -0.647332 0
M  V30 18 H 3.47518 0.644409 0.714578 0
M  V30 19 H -1.55346 1.80379 -1.04618 0
M  V30 20 H -0.749171 2.08561 0.620875 0
M  V30 21 H -2.95345 -0.353082 1.69012 0
M  V30 22 H -1.50564 0.687337 2.25091 0
M  V30 END ATOM
M  V30 BEGIN BOND
M  V30 1 1 1 2
M  V30 2 1 2 3
M  V30 3 1 3 4
M  V30 4 1 4 5
M  V30 5 2 5 6
M  V30 6 2 5 7
M  V30 7 1 5 8
M  V30 8 1 2 9
M  V30 9 1 9 10
M  V30 10 1 10 11
M  V30 11 1 11 2
M  V30 12 1 1 12
M  V30 13 1 1 13
M  V30 14 1 3 14
M  V30 15 1 3 15
M  V30 16 1 4 16
M  V30 17 1 8 17
M  V30 18 1 8 18
M  V30 19 1 9 19
M  V30 20 1 9 20
M  V30 21 1 11 21
M  V30 22 1 11 22
M  V30 END BOND
M  V30 END CTAB
M  END
