
     RDKit          3D

  0  0  0  0  0  0  0  0  0  0999 V3000
M  V30 BEGIN CTAB
M  V30 COUNTS 21 20 0 0 0
M  V30 BEGIN ATOM
M  V30 1 C -1.37107 0.653515 -0.271361 0 CFG=1
M  V30 2 N -2.20352 1.57852 0.507217 0
M  V30 3 C -0.02609 0.542972 0.378909 0
M  V30 4 C 0.849672 -0.386319 -0.385499 0
M  V30 5 C 2.24447 -0.499311 0.225392 0
M  V30 6 N 2.90284 0.77865 0.253281 0
M  V30 7 C -2.11868 -0.591972 -0.394423 0
M  V30 8 O -1.71432 -1.60847 -1.22624 0
M  V30 9 O -3.18934 -0.80889 0.258407 0
M  V30 10 H -1.22737 1.10894 -1.26734 0
M  V30 11 H -1.91336 1.47185 1.52229 0
M  V30 12 H -3.20036 1.32794 0.376275 0
M  V30 13 H -0.16415 0.159047 1.41289 0
M  V30 14 H 0.3788 1.57505 0.452523 0
M  V30 15 H 0.949136 -0.156826 -1.44406 0
M  V30 16 H 0.426523 -1.42648 -0.236079 0
M  V30 17 H 2.2406 -0.984345 1.20251 0
M  V30 18 H 2.82022 -1.15553 -0.470112 0
M  V30 19 H 2.74179 1.32029 1.11922 0
M  V30 20 H 3.87567 0.770268 -0.0889285 0
M  V30 21 H -2.30146 -2.04587 -1.92487 0
M  V30 END ATOM
M  V30 BEGIN BOND
M  V30 1 1 1 2
M  V30 2 1 1 3
M  V30 3 1 3 4
M  V30 4 1 4 5
M  V30 5 1 5 6
M  V30 6 1 1 7
M  V30 7 1 7 8
M  V30 8 2 7 9
M  V30 9 1 1 10 CFG=3
M  V30 10 1 2 11
M  V30 11 1 2 12
M  V30 12 1 3 13
M  V30 13 1 3 14
M  V30 14 1 4 15
M  V30 15 1 4 16
M  V30 16 1 5 17
M  V30 17 1 5 18
M  V30 18 1 6 19
M  V30 19 1 6 20
M  V30 20 1 8 21
M  V30 END BOND
M  V30 END CTAB
M  END
