
     RDKit          3D

  0  0  0  0  0  0  0  0  0  0999 V3000
M  V30 BEGIN CTAB
M  V30 COUNTS 55 57 0 0 0
M  V30 BEGIN ATOM
M  V30 1 C -1.00504 3.46556 -2.12903 0
M  V30 2 O -2.03871 2.55127 -2.44386 0
M  V30 3 C -2.03065 1.26434 -1.93386 0
M  V30 4 C -1.01943 0.806327 -1.09416 0
M  V30 5 C -1.02269 -0.477321 -0.592718 0
M  V30 6 C 0.058285 -0.980295 0.305577 0
M  V30 7 C -0.445543 -1.22009 1.66808 0
M  V30 8 C -1.0555 -0.244112 2.44042 0
M  V30 9 C -1.51531 -0.50935 3.71367 0
M  V30 10 C -1.38864 -1.76102 4.27809 0
M  V30 11 C -0.781883 -2.73571 3.51366 0
M  V30 12 C -0.32559 -2.46192 2.24217 0
M  V30 13 C 1.29082 -0.159674 0.228748 0
M  V30 14 C 1.99939 -0.155094 -0.981768 0
M  V30 15 O 1.48542 -0.918149 -2.01949 0
M  V30 16 C 2.19066 -0.922719 -3.24664 0
M  V30 17 C 3.14466 0.575748 -1.11422 0
M  V30 18 C 3.68097 1.34283 -0.103944 0
M  V30 19 N 4.87067 2.09462 -0.26044 0
M  V30 20 C 2.98296 1.3386 1.09023 0
M  V30 21 O 3.49157 2.09959 2.13193 0
M  V30 22 C 2.8261 2.1433 3.39701 0
M  V30 23 C 1.81602 0.594747 1.22665 0
M  V30 24 C -2.05506 -1.33874 -0.928141 0
M  V30 25 O -2.03697 -2.62503 -0.411003 0
M  V30 26 C -3.09931 -3.49163 -0.763509 0
M  V30 27 C -3.08517 -0.904548 -1.77076 0
M  V30 28 C -3.05356 0.384176 -2.2559 0
M  V30 29 N -4.0838 0.836645 -3.10453 0
M  V30 30 H -1.26482 4.49836 -2.40844 0
M  V30 31 H -0.0479393 3.11558 -2.55937 0
M  V30 32 H -0.875874 3.45902 -1.02636 0
M  V30 33 H -0.193126 1.47152 -0.815616 0
M  V30 34 H 0.385854 -1.99603 -0.0994878 0
M  V30 35 H -1.15899 0.751117 1.99731 0
M  V30 36 H -1.99063 0.262691 4.30878 0
M  V30 37 H -1.75704 -1.96698 5.28911 0
M  V30 38 H -0.675497 -3.72269 3.94475 0
M  V30 39 H 0.149198 -3.27106 1.67757 0
M  V30 40 H 3.24385 -1.27193 -3.06796 0
M  V30 41 H 1.70386 -1.62349 -3.94297 0
M  V30 42 H 2.2364 0.092478 -3.67817 0
M  V30 43 H 3.67778 0.561763 -2.07218 0
M  V30 44 H 5.12121 2.51025 -1.17161 0
M  V30 45 H 5.49755 2.2294 0.546968 0
M  V30 46 H 1.82475 2.59233 3.30871 0
M  V30 47 H 2.68438 1.09925 3.79026 0
M  V30 48 H 3.4147 2.67964 4.14295 0
M  V30 49 H 1.35039 0.651413 2.18526 0
M  V30 50 H -3.07778 -3.68221 -1.83694 0
M  V30 51 H -3.08407 -4.43726 -0.175474 0
M  V30 52 H -4.08786 -3.0095 -0.519388 0
M  V30 53 H -3.89072 -1.61505 -2.01704 0
M  V30 54 H -4.84798 1.4653 -2.76388 0
M  V30 55 H -4.13224 0.563737 -4.11903 0
M  V30 END ATOM
M  V30 BEGIN BOND
M  V30 1 1 1 2
M  V30 2 1 2 3
M  V30 3 2 3 4
M  V30 4 1 4 5
M  V30 5 1 5 6
M  V30 6 1 6 7
M  V30 7 2 7 8
M  V30 8 1 8 9
M  V30 9 2 9 10
M  V30 10 1 10 11
M  V30 11 2 11 12
M  V30 12 1 6 13
M  V30 13 2 13 14
M  V30 14 1 14 15
M  V30 15 1 15 16
M  V30 16 1 14 17
M  V30 17 2 17 18
M  V30 18 1 18 19
M  V30 19 1 18 20
M  V30 20 1 20 21
M  V30 21 1 21 22
M  V30 22 2 20 23
M  V30 23 2 5 24
M  V30 24 1 24 25
M  V30 25 1 25 26
M  V30 26 1 24 27
M  V30 27 2 27 28
M  V30 28 1 28 29
M  V30 29 1 28 3
M  V30 30 1 12 7
M  V30 31 1 23 13
M  V30 32 1 1 30
M  V30 33 1 1 31
M  V30 34 1 1 32
M  V30 35 1 4 33
M  V30 36 1 6 34
M  V30 37 1 8 35
M  V30 38 1 9 36
M  V30 39 1 10 37
M  V30 40 1 11 38
M  V30 41 1 12 39
M  V30 42 1 16 40
M  V30 43 1 16 41
M  V30 44 1 16 42
M  V30 45 1 17 43
M  V30 46 1 19 44
M  V30 47 1 19 45
M  V30 48 1 22 46
M  V30 49 1 22 47
M  V30 50 1 22 48
M  V30 51 1 23 49
M  V30 52 1 26 50
M  V30 53 1 26 51
M  V30 54 1 26 52
M  V30 55 1 27 53
M  V30 56 1 29 54
M  V30 57 1 29 55
M  V30 END BOND
M  V30 END CTAB
M  END
