
     RDKit          3D

  0  0  0  0  0  0  0  0  0  0999 V3000
M  V30 BEGIN CTAB
M  V30 COUNTS 31 32 0 0 0
M  V30 BEGIN ATOM
M  V30 1 N -1.19518 -2.86135 0.754461 0
M  V30 2 C -1.28132 -1.69156 0.0830079 0 CFG=1
M  V30 3 C -2.01199 -0.543156 0.769838 0 CFG=2
M  V30 4 O -3.31108 -0.927004 1.08678 0
M  V30 5 C -2.00137 0.357591 -0.449583 0 CFG=1
M  V30 6 C -2.11881 1.80767 -0.0952319 0
M  V30 7 O -1.03374 2.31243 0.57557 0
M  V30 8 O -0.955564 0.0347295 -1.24762 0
M  V30 9 C -0.246881 -1.05446 -0.649628 0 CFG=1
M  V30 10 N 0.956329 -0.517994 -0.22048 0
M  V30 11 C 1.61016 0.268315 -1.14153 0
M  V30 12 C 2.79707 0.870624 -0.894931 0
M  V30 13 C 3.41139 0.712893 0.324524 0
M  V30 14 N 4.66225 1.32252 0.64297 0
M  V30 15 N 2.78032 -0.0523409 1.22819 0
M  V30 16 C 1.59144 -0.637092 0.937863 0
M  V30 17 O 1.08992 -1.31869 1.82615 0
M  V30 18 H -0.66568 -3.5729 0.406739 0
M  V30 19 H -1.64644 -2.95685 1.60371 0
M  V30 20 H -2.06976 -1.9651 -0.715703 0
M  V30 21 H -1.48439 -0.0555563 1.56924 0
M  V30 22 H -3.98806 -0.446172 0.535286 0
M  V30 23 H -2.94695 0.0969834 -1.01283 0
M  V30 24 H -3.01578 1.91857 0.554694 0
M  V30 25 H -2.34879 2.36219 -1.0276 0
M  V30 26 H -1.32835 3.16605 1.0095 0
M  V30 27 H -0.00429119 -1.68765 -1.56672 0
M  V30 28 H 1.18344 0.44388 -2.14194 0
M  V30 29 H 3.29493 1.49188 -1.64872 0
M  V30 30 H 5.55823 0.81861 0.488719 0
M  V30 31 H 4.71896 2.30293 1.04472 0
M  V30 END ATOM
M  V30 BEGIN BOND
M  V30 1 1 1 2
M  V30 2 1 2 3
M  V30 3 1 3 4
M  V30 4 1 3 5
M  V30 5 1 5 6
M  V30 6 1 6 7
M  V30 7 1 5 8
M  V30 8 1 8 9
M  V30 9 1 9 10
M  V30 10 1 10 11
M  V30 11 2 11 12
M  V30 12 1 12 13
M  V30 13 1 13 14
M  V30 14 2 13 15
M  V30 15 1 15 16
M  V30 16 2 16 17
M  V30 17 1 9 2
M  V30 18 1 16 10
M  V30 19 1 1 18
M  V30 20 1 1 19
M  V30 21 1 2 20 CFG=3
M  V30 22 1 3 21 CFG=1
M  V30 23 1 4 22
M  V30 24 1 5 23 CFG=3
M  V30 25 1 6 24
M  V30 26 1 6 25
M  V30 27 1 7 26
M  V30 28 1 9 27 CFG=3
M  V30 29 1 11 28
M  V30 30 1 12 29
M  V30 31 1 14 30
M  V30 32 1 14 31
M  V30 END BOND
M  V30 END CTAB
M  END
