
     RDKit          3D

  0  0  0  0  0  0  0  0  0  0999 V3000
M  V30 BEGIN CTAB
M  V30 COUNTS 31 33 0 0 0
M  V30 BEGIN ATOM
M  V30 1 N 5.41279 1.28507 0.53523 0
M  V30 2 C 4.11019 0.724394 0.430971 0
M  V30 3 C 3.49283 0.243108 1.5649 0
M  V30 4 C 2.21664 -0.309044 1.47805 0
M  V30 5 C 1.52783 -0.39739 0.281007 0
M  V30 6 C 2.16262 0.0911536 -0.850248 0
M  V30 7 C 3.43486 0.642675 -0.769924 0
M  V30 8 C 1.2786 -0.114178 -1.8834 0
M  V30 9 C 0.151593 -0.709144 -1.37071 0
M  V30 10 N 0.299654 -0.88557 -0.0394956 0
M  V30 11 C -0.657962 -1.46681 0.81736 0
M  V30 12 O -0.420395 -1.58352 2.03406 0
M  V30 13 C -1.94151 -1.93778 0.277864 0
M  V30 14 N -2.96949 -0.886535 0.322236 0
M  V30 15 N -3.77002 -0.714346 1.35924 0
M  V30 16 C -4.57459 0.315547 1.07207 0
M  V30 17 C -4.2493 0.795055 -0.20186 0
M  V30 18 N -3.24014 0.00215146 -0.615569 0
M  V30 19 N -4.85687 1.87718 -0.891124 0
M  V30 20 H 6.21078 0.611752 0.503425 0
M  V30 21 H 5.62654 2.28243 0.637533 0
M  V30 22 H 4.00249 0.299495 2.50161 0
M  V30 23 H 1.79507 -0.663246 2.39203 0
M  V30 24 H 3.92978 1.02399 -1.65317 0
M  V30 25 H 1.47077 0.160957 -2.92358 0
M  V30 26 H -0.706705 -0.978067 -1.99386 0
M  V30 27 H -1.8814 -2.22393 -0.802836 0
M  V30 28 H -2.35047 -2.81842 0.824064 0
M  V30 29 H -5.36831 0.754506 1.68422 0
M  V30 30 H -5.87822 1.92846 -1.06397 0
M  V30 31 H -4.25764 2.65006 -1.23743 0
M  V30 END ATOM
M  V30 BEGIN BOND
M  V30 1 1 1 2
M  V30 2 2 2 3
M  V30 3 1 3 4
M  V30 4 2 4 5
M  V30 5 1 5 6
M  V30 6 2 6 7
M  V30 7 1 6 8
M  V30 8 2 8 9
M  V30 9 1 9 10
M  V30 10 1 10 11
M  V30 11 2 11 12
M  V30 12 1 11 13
M  V30 13 1 13 14
M  V30 14 1 14 15
M  V30 15 2 15 16
M  V30 16 1 16 17
M  V30 17 2 17 18
M  V30 18 1 17 19
M  V30 19 1 7 2
M  V30 20 1 18 14
M  V30 21 1 10 5
M  V30 22 1 1 20
M  V30 23 1 1 21
M  V30 24 1 3 22
M  V30 25 1 4 23
M  V30 26 1 7 24
M  V30 27 1 8 25
M  V30 28 1 9 26
M  V30 29 1 13 27
M  V30 30 1 13 28
M  V30 31 1 16 29
M  V30 32 1 19 30
M  V30 33 1 19 31
M  V30 END BOND
M  V30 END CTAB
M  END
