
     RDKit          3D

  0  0  0  0  0  0  0  0  0  0999 V3000
M  V30 BEGIN CTAB
M  V30 COUNTS 35 36 0 0 0
M  V30 BEGIN ATOM
M  V30 1 C -2.81365 -1.53638 1.12049 0
M  V30 2 C -1.79271 -0.898699 0.222428 0
M  V30 3 C -1.73359 -1.71039 -1.06028 0
M  V30 4 O -0.563933 -0.796713 0.8211 0
M  V30 5 B 0.0692464 0.295875 0.0510134 0
M  V30 6 O -0.948102 0.890551 -0.844309 0
M  V30 7 C -2.12062 0.511422 -0.147949 0
M  V30 8 C -2.21835 1.43366 1.03783 0
M  V30 9 C -3.33493 0.612888 -1.02567 0
M  V30 10 C 1.57201 0.609991 0.162359 0
M  V30 11 C 2.05219 1.82188 0.611213 0
M  V30 12 N 3.37661 2.07306 0.699829 0
M  V30 13 C 4.25718 1.13913 0.34942 0
M  V30 14 C 3.80325 -0.0908047 -0.106234 0
M  V30 15 C 2.47019 -0.368741 -0.204768 0
M  V30 16 N 2.04926 -1.65352 -0.680946 0
M  V30 17 N 5.67631 1.33025 0.415392 0
M  V30 18 H -2.46133 -2.58413 1.31105 0
M  V30 19 H -3.76168 -1.61777 0.553555 0
M  V30 20 H -2.90884 -1.06205 2.1002 0
M  V30 21 H -1.37314 -1.04776 -1.87195 0
M  V30 22 H -2.69761 -2.176 -1.26611 0
M  V30 23 H -0.984111 -2.51147 -0.910601 0
M  V30 24 H -1.18463 1.75937 1.34995 0
M  V30 25 H -2.70674 2.36858 0.677177 0
M  V30 26 H -2.76797 0.957232 1.84689 0
M  V30 27 H -3.34697 1.53717 -1.60664 0
M  V30 28 H -3.47565 -0.264116 -1.66352 0
M  V30 29 H -4.22403 0.652309 -0.343884 0
M  V30 30 H 1.36747 2.61173 0.907349 0
M  V30 31 H 4.5048 -0.86866 -0.397969 0
M  V30 32 H 2.08877 -2.44166 0.00443958 0
M  V30 33 H 1.72565 -1.7742 -1.65836 0
M  V30 34 H 6.11106 1.9917 1.09052 0
M  V30 35 H 6.29458 0.806255 -0.215495 0
M  V30 END ATOM
M  V30 BEGIN BOND
M  V30 1 1 1 2
M  V30 2 1 2 3
M  V30 3 1 2 4
M  V30 4 1 4 5
M  V30 5 1 5 6
M  V30 6 1 6 7
M  V30 7 1 7 8
M  V30 8 1 7 9
M  V30 9 1 5 10
M  V30 10 2 10 11
M  V30 11 1 11 12
M  V30 12 2 12 13
M  V30 13 1 13 14
M  V30 14 2 14 15
M  V30 15 1 15 16
M  V30 16 1 13 17
M  V30 17 1 7 2
M  V30 18 1 15 10
M  V30 19 1 1 18
M  V30 20 1 1 19
M  V30 21 1 1 20
M  V30 22 1 3 21
M  V30 23 1 3 22
M  V30 24 1 3 23
M  V30 25 1 8 24
M  V30 26 1 8 25
M  V30 27 1 8 26
M  V30 28 1 9 27
M  V30 29 1 9 28
M  V30 30 1 9 29
M  V30 31 1 11 30
M  V30 32 1 14 31
M  V30 33 1 16 32
M  V30 34 1 16 33
M  V30 35 1 17 34
M  V30 36 1 17 35
M  V30 END BOND
M  V30 END CTAB
M  END
