
     RDKit          3D

  0  0  0  0  0  0  0  0  0  0999 V3000
M  V30 BEGIN CTAB
M  V30 COUNTS 24 24 0 0 0
M  V30 BEGIN ATOM
M  V30 1 N -3.26973 0.942881 1.32444 0
M  V30 2 S -2.50582 -0.284798 0.396103 0
M  V30 3 O -2.02186 -1.38003 1.2805 0
M  V30 4 O -3.54304 -0.806752 -0.557366 0
M  V30 5 C -1.19774 0.431652 -0.564214 0 CFG=2
M  V30 6 C -0.61045 -0.66114 -1.43418 0
M  V30 7 C 0.674272 -0.982532 -0.697196 0
M  V30 8 N 1.10381 0.309427 -0.256923 0
M  V30 9 C -0.0722911 0.944416 0.290392 0
M  V30 10 S 2.40731 0.23902 0.856923 0
M  V30 11 O 1.99837 -0.637258 2.01186 0
M  V30 12 O 2.77913 1.5632 1.40169 0
M  V30 13 N 3.74429 -0.491665 0.090748 0
M  V30 14 H -2.76143 1.29048 2.08791 0
M  V30 15 H -3.80324 1.54189 0.728288 0
M  V30 16 H -1.61741 1.19187 -1.23165 0
M  V30 17 H -1.25865 -1.55716 -1.46023 0
M  V30 18 H -0.365362 -0.270054 -2.44244 0
M  V30 19 H 1.39232 -1.4478 -1.39764 0
M  V30 20 H 0.438243 -1.65074 0.155324 0
M  V30 21 H 0.038883 2.03809 0.144261 0
M  V30 22 H -0.218021 0.751394 1.3569 0
M  V30 23 H 4.48268 0.183505 -0.193953 0
M  V30 24 H 4.18574 -1.2579 0.613549 0
M  V30 END ATOM
M  V30 BEGIN BOND
M  V30 1 1 1 2
M  V30 2 2 2 3
M  V30 3 2 2 4
M  V30 4 1 2 5
M  V30 5 1 5 6
M  V30 6 1 6 7
M  V30 7 1 7 8
M  V30 8 1 8 9
M  V30 9 1 8 10
M  V30 10 2 10 11
M  V30 11 2 10 12
M  V30 12 1 10 13
M  V30 13 1 9 5
M  V30 14 1 1 14
M  V30 15 1 1 15
M  V30 16 1 5 16 CFG=3
M  V30 17 1 6 17
M  V30 18 1 6 18
M  V30 19 1 7 19
M  V30 20 1 7 20
M  V30 21 1 9 21
M  V30 22 1 9 22
M  V30 23 1 13 23
M  V30 24 1 13 24
M  V30 END BOND
M  V30 END CTAB
M  END
