
     RDKit          3D

  0  0  0  0  0  0  0  0  0  0999 V3000
M  V30 BEGIN CTAB
M  V30 COUNTS 42 45 0 0 0
M  V30 BEGIN ATOM
M  V30 1 N -2.70637 2.898 -1.6419 0
M  V30 2 C -2.30364 1.66902 -1.05358 0
M  V30 3 N -0.972914 1.46346 -0.880982 0
M  V30 4 C -0.498933 0.317844 -0.32678 0
M  V30 5 N 0.898166 0.13031 -0.158574 0
M  V30 6 C 1.82722 1.15334 -0.574063 0
M  V30 7 C 3.21976 0.767778 -0.315197 0
M  V30 8 N 4.27213 1.57243 -0.623043 0
M  V30 9 C 5.42965 0.973407 -0.279919 0
M  V30 10 C 5.10169 -0.249989 0.262808 0
M  V30 11 N 3.74768 -0.329154 0.219686 0
M  V30 12 C 6.10317 -1.07333 0.699811 0
M  V30 13 C 7.41497 -0.719959 0.614503 0
M  V30 14 C 7.76016 0.500376 0.0741935 0
M  V30 15 C 6.76698 1.34529 -0.372239 0
M  V30 16 C -1.40026 -0.64989 0.0649234 0
M  V30 17 C -2.76388 -0.447989 -0.107924 0
M  V30 18 N -3.13556 0.714463 -0.663852 0
M  V30 19 C -3.74683 -1.49414 0.315009 0 CFG=2
M  V30 20 C -4.83699 -1.75098 -0.683976 0
M  V30 21 C -5.72089 -0.737448 0.0281577 0 CFG=2
M  V30 22 C -4.81432 -0.883714 1.23149 0
M  V30 23 N -7.06591 -1.23557 0.208682 0
M  V30 24 H -3.42207 2.85609 -2.39789 0
M  V30 25 H -2.33149 3.80582 -1.36112 0
M  V30 26 H 1.23818 -0.751795 0.266694 0
M  V30 27 H 1.56625 2.11876 -0.0716295 0
M  V30 28 H 1.67325 1.33696 -1.66685 0
M  V30 29 H 3.20728 -1.15162 0.565771 0
M  V30 30 H 5.83638 -2.02873 1.12301 0
M  V30 31 H 8.23777 -1.3562 0.955069 0
M  V30 32 H 8.82346 0.782952 0.006814 0
M  V30 33 H 6.9934 2.29493 -0.795171 0
M  V30 34 H -1.05972 -1.59245 0.517989 0
M  V30 35 H -3.24216 -2.35943 0.742315 0
M  V30 36 H -4.59394 -1.47409 -1.74129 0
M  V30 37 H -5.24311 -2.78781 -0.564855 0
M  V30 38 H -5.71181 0.267917 -0.406035 0
M  V30 39 H -5.15254 -1.58447 2.00202 0
M  V30 40 H -4.4796 0.0805157 1.67468 0
M  V30 41 H -7.77521 -0.474928 0.244063 0
M  V30 42 H -7.13937 -1.91599 0.98737 0
M  V30 END ATOM
M  V30 BEGIN BOND
M  V30 1 1 1 2
M  V30 2 2 2 3
M  V30 3 1 3 4
M  V30 4 1 4 5
M  V30 5 1 5 6
M  V30 6 1 6 7
M  V30 7 2 7 8
M  V30 8 1 8 9
M  V30 9 2 9 10
M  V30 10 1 10 11
M  V30 11 1 10 12
M  V30 12 2 12 13
M  V30 13 1 13 14
M  V30 14 2 14 15
M  V30 15 2 4 16
M  V30 16 1 16 17
M  V30 17 2 17 18
M  V30 18 1 17 19
M  V30 19 1 19 20
M  V30 20 1 20 21
M  V30 21 1 21 22
M  V30 22 1 21 23
M  V30 23 1 18 2
M  V30 24 1 22 19
M  V30 25 1 11 7
M  V30 26 1 15 9
M  V30 27 1 1 24
M  V30 28 1 1 25
M  V30 29 1 5 26
M  V30 30 1 6 27
M  V30 31 1 6 28
M  V30 32 1 11 29
M  V30 33 1 12 30
M  V30 34 1 13 31
M  V30 35 1 14 32
M  V30 36 1 15 33
M  V30 37 1 16 34
M  V30 38 1 19 35 CFG=1
M  V30 39 1 20 36
M  V30 40 1 20 37
M  V30 41 1 21 38 CFG=3
M  V30 42 1 22 39
M  V30 43 1 22 40
M  V30 44 1 23 41
M  V30 45 1 23 42
M  V30 END BOND
M  V30 END CTAB
M  END
