
     RDKit          3D

  0  0  0  0  0  0  0  0  0  0999 V3000
M  V30 BEGIN CTAB
M  V30 COUNTS 46 47 0 0 0
M  V30 BEGIN ATOM
M  V30 1 N -4.69814 0.740521 0.64076 0
M  V30 2 C -4.97513 -0.652908 0.417363 0
M  V30 3 C -3.79141 -1.55734 0.475482 0
M  V30 4 C -2.73916 -1.26215 -0.51231 0
M  V30 5 C -2.74566 -1.80111 -1.78992 0
M  V30 6 C -1.76219 -1.53739 -2.69981 0
M  V30 7 C -0.688137 -0.691819 -2.36216 0
M  V30 8 O 0.270197 -0.457471 -3.32122 0
M  V30 9 C -0.663635 -0.148461 -1.09778 0
M  V30 10 C -1.69356 -0.447228 -0.200758 0
M  V30 11 C 0.439743 0.702112 -0.663167 0
M  V30 12 C 1.7532 0.33046 -0.759428 0
M  V30 13 C 2.79027 1.13839 -0.302155 0
M  V30 14 C 4.18778 0.658494 -0.450836 0
M  V30 15 C 4.66022 -0.160083 0.71932 0
M  V30 16 N 4.59479 0.646012 1.92105 0
M  V30 17 C 6.06765 -0.570917 0.441902 0
M  V30 18 O 7.12028 -0.192574 1.26497 0
M  V30 19 O 6.36136 -1.28438 -0.559052 0
M  V30 20 C 2.5056 2.35747 0.270164 0
M  V30 21 C 1.18644 2.7388 0.370949 0
M  V30 22 C 0.155345 1.92128 -0.0908411 0
M  V30 23 O -1.17361 2.30029 0.0078247 0
M  V30 24 C -5.93731 -1.12022 1.46232 0
M  V30 25 O -6.39568 -2.42809 1.52813 0
M  V30 26 O -6.34219 -0.295032 2.3084 0
M  V30 27 H -5.43226 1.36282 0.210015 0
M  V30 28 H -3.75949 1.06003 0.408791 0
M  V30 29 H -5.53664 -0.748198 -0.552619 0
M  V30 30 H -4.12008 -2.61952 0.465604 0
M  V30 31 H -3.32862 -1.41365 1.49653 0
M  V30 32 H -3.57983 -2.44857 -2.02984 0
M  V30 33 H -1.77433 -1.96809 -3.70897 0
M  V30 34 H 1.06408 0.128265 -3.24391 0
M  V30 35 H -1.62901 0.0085003 0.789955 0
M  V30 36 H 1.97168 -0.647696 -1.20995 0
M  V30 37 H 4.87732 1.53611 -0.522669 0
M  V30 38 H 4.27413 0.126471 -1.4074 0
M  V30 39 H 4.06742 -1.09135 0.851521 0
M  V30 40 H 4.89978 1.62955 1.77127 0
M  V30 41 H 5.24863 0.227385 2.6217 0
M  V30 42 H 7.55881 -0.857889 1.90833 0
M  V30 43 H 3.31083 3.01616 0.639809 0
M  V30 44 H 0.94222 3.69417 0.818748 0
M  V30 45 H -1.36846 3.19805 0.430813 0
M  V30 46 H -6.17321 -3.11921 0.84362 0
M  V30 END ATOM
M  V30 BEGIN BOND
M  V30 1 1 1 2
M  V30 2 1 2 3
M  V30 3 1 3 4
M  V30 4 2 4 5
M  V30 5 1 5 6
M  V30 6 2 6 7
M  V30 7 1 7 8
M  V30 8 1 7 9
M  V30 9 2 9 10
M  V30 10 1 9 11
M  V30 11 2 11 12
M  V30 12 1 12 13
M  V30 13 1 13 14
M  V30 14 1 14 15
M  V30 15 1 15 16
M  V30 16 1 15 17
M  V30 17 1 17 18
M  V30 18 2 17 19
M  V30 19 2 13 20
M  V30 20 1 20 21
M  V30 21 2 21 22
M  V30 22 1 22 23
M  V30 23 1 2 24
M  V30 24 1 24 25
M  V30 25 2 24 26
M  V30 26 1 10 4
M  V30 27 1 22 11
M  V30 28 1 1 27
M  V30 29 1 1 28
M  V30 30 1 2 29
M  V30 31 1 3 30
M  V30 32 1 3 31
M  V30 33 1 5 32
M  V30 34 1 6 33
M  V30 35 1 8 34
M  V30 36 1 10 35
M  V30 37 1 12 36
M  V30 38 1 14 37
M  V30 39 1 14 38
M  V30 40 1 15 39
M  V30 41 1 16 40
M  V30 42 1 16 41
M  V30 43 1 18 42
M  V30 44 1 20 43
M  V30 45 1 21 44
M  V30 46 1 23 45
M  V30 47 1 25 46
M  V30 END BOND
M  V30 END CTAB
M  END
