
     RDKit          3D

  0  0  0  0  0  0  0  0  0  0999 V3000
M  V30 BEGIN CTAB
M  V30 COUNTS 31 31 0 0 0
M  V30 BEGIN ATOM
M  V30 1 N 4.26943 -0.610954 -0.954531 0
M  V30 2 C 3.20484 -0.145919 -0.147354 0
M  V30 3 C 3.5075 0.418144 1.07385 0
M  V30 4 C 2.44887 0.871838 1.85865 0
M  V30 5 C 1.14183 0.764999 1.43783 0
M  V30 6 C 0.849752 0.200914 0.217697 0
M  V30 7 C 1.90538 -0.264169 -0.591034 0
M  V30 8 C -0.480562 0.0276879 -0.36069 0
M  V30 9 C -1.63491 0.549461 0.415249 0
M  V30 10 S -3.13914 0.190762 -0.512071 0
M  V30 11 O -3.0735 0.789318 -1.87397 0
M  V30 12 O -4.30427 0.830842 0.201775 0
M  V30 13 C -3.34589 -1.55508 -0.534392 0
M  V30 14 C -1.61196 2.06287 0.542599 0
M  V30 15 N -0.605666 -1.32647 -0.830652 0
M  V30 16 H 5.094 0.000467222 -1.08407 0
M  V30 17 H 4.20249 -1.54511 -1.39524 0
M  V30 18 H 4.50629 0.531519 1.46151 0
M  V30 19 H 2.68004 1.31274 2.81241 0
M  V30 20 H 0.32902 1.11177 2.04773 0
M  V30 21 H 1.73066 -0.715265 -1.55745 0
M  V30 22 H -0.458938 0.655947 -1.31471 0
M  V30 23 H -1.7916 0.13713 1.40827 0
M  V30 24 H -4.41007 -1.86546 -0.445812 0
M  V30 25 H -2.82393 -1.98868 0.323506 0
M  V30 26 H -3.00826 -1.99961 -1.50532 0
M  V30 27 H -2.38618 2.56789 -0.067301 0
M  V30 28 H -1.74802 2.32327 1.60898 0
M  V30 29 H -0.599084 2.37669 0.203949 0
M  V30 30 H -0.685386 -1.42368 -1.86755 0
M  V30 31 H 0.237274 -1.91838 -0.571856 0
M  V30 END ATOM
M  V30 BEGIN BOND
M  V30 1 1 1 2
M  V30 2 2 2 3
M  V30 3 1 3 4
M  V30 4 2 4 5
M  V30 5 1 5 6
M  V30 6 2 6 7
M  V30 7 1 6 8
M  V30 8 1 8 9
M  V30 9 1 9 10
M  V30 10 2 10 11
M  V30 11 2 10 12
M  V30 12 1 10 13
M  V30 13 1 9 14
M  V30 14 1 8 15
M  V30 15 1 7 2
M  V30 16 1 1 16
M  V30 17 1 1 17
M  V30 18 1 3 18
M  V30 19 1 4 19
M  V30 20 1 5 20
M  V30 21 1 7 21
M  V30 22 1 8 22
M  V30 23 1 9 23
M  V30 24 1 13 24
M  V30 25 1 13 25
M  V30 26 1 13 26
M  V30 27 1 14 27
M  V30 28 1 14 28
M  V30 29 1 14 29
M  V30 30 1 15 30
M  V30 31 1 15 31
M  V30 END BOND
M  V30 END CTAB
M  END
