
     RDKit          3D

  0  0  0  0  0  0  0  0  0  0999 V3000
M  V30 BEGIN CTAB
M  V30 COUNTS 52 53 0 0 0
M  V30 BEGIN ATOM
M  V30 1 N 1.04274 -2.47358 2.98175 0
M  V30 2 C 1.05272 -1.05599 2.7817 0
M  V30 3 C 1.90141 -0.710407 1.60903 0
M  V30 4 C 2.73685 0.411635 1.65686 0
M  V30 5 C 3.54636 0.764519 0.599654 0
M  V30 6 C 3.57512 0.0274392 -0.564403 0
M  V30 7 C 2.75764 -1.0804 -0.625674 0
M  V30 8 C 1.94176 -1.43582 0.440579 0
M  V30 9 C 4.45847 0.435482 -1.68399 0
M  V30 10 C 5.91487 0.309269 -1.21884 0
M  V30 11 C 4.25923 1.86272 -2.09904 0
M  V30 12 C -0.280847 -0.39251 2.79478 0
M  V30 13 N -1.12916 -0.921294 1.76653 0
M  V30 14 C -2.4446 -0.401045 1.62579 0
M  V30 15 O -2.87672 0.507575 2.37977 0
M  V30 16 C -3.37233 -0.90672 0.580037 0
M  V30 17 C -3.8141 0.283622 -0.240936 0
M  V30 18 C -4.77474 -0.153123 -1.34338 0
M  V30 19 C -5.36407 1.13295 -1.9209 0
M  V30 20 O -4.5647 2.22615 -1.64693 0
M  V30 21 C -3.21934 1.98706 -1.89178 0
M  V30 22 C -2.66604 0.980336 -0.905915 0
M  V30 23 N -2.78025 -1.94106 -0.224754 0
M  V30 24 H 0.111514 -2.89836 2.69965 0
M  V30 25 H 1.82221 -2.96546 2.49866 0
M  V30 26 H 1.58571 -0.64713 3.7152 0
M  V30 27 H 2.72588 0.995734 2.55611 0
M  V30 28 H 4.19973 1.64456 0.640842 0
M  V30 29 H 2.76791 -1.67669 -1.54188 0
M  V30 30 H 1.32648 -2.31904 0.337778 0
M  V30 31 H 4.36231 -0.26051 -2.54193 0
M  V30 32 H 5.89521 0.500152 -0.125028 0
M  V30 33 H 6.26736 -0.73326 -1.34887 0
M  V30 34 H 6.55437 1.06758 -1.66917 0
M  V30 35 H 3.23857 2.2428 -1.93338 0
M  V30 36 H 4.54173 2.04111 -3.13902 0
M  V30 37 H 4.93356 2.50943 -1.46747 0
M  V30 38 H -0.76662 -0.484126 3.80207 0
M  V30 39 H -0.17498 0.704921 2.64335 0
M  V30 40 H -0.790201 -1.66984 1.1404 0
M  V30 41 H -4.27283 -1.30648 1.09505 0
M  V30 42 H -4.32847 0.991663 0.417839 0
M  V30 43 H -5.56937 -0.800184 -0.92665 0
M  V30 44 H -4.26765 -0.687319 -2.1482 0
M  V30 45 H -6.33565 1.28521 -1.4092 0
M  V30 46 H -5.52563 1.05079 -3.00264 0
M  V30 47 H -3.01538 1.70774 -2.94456 0
M  V30 48 H -2.69116 2.96174 -1.71909 0
M  V30 49 H -1.95481 1.44218 -0.194658 0
M  V30 50 H -2.08272 0.234173 -1.51404 0
M  V30 51 H -1.86311 -1.63084 -0.611179 0
M  V30 52 H -2.59427 -2.75739 0.385004 0
M  V30 END ATOM
M  V30 BEGIN BOND
M  V30 1 1 1 2
M  V30 2 1 2 3
M  V30 3 2 3 4
M  V30 4 1 4 5
M  V30 5 2 5 6
M  V30 6 1 6 7
M  V30 7 2 7 8
M  V30 8 1 6 9
M  V30 9 1 9 10
M  V30 10 1 9 11
M  V30 11 1 2 12
M  V30 12 1 12 13
M  V30 13 1 13 14
M  V30 14 2 14 15
M  V30 15 1 14 16
M  V30 16 1 16 17
M  V30 17 1 17 18
M  V30 18 1 18 19
M  V30 19 1 19 20
M  V30 20 1 20 21
M  V30 21 1 21 22
M  V30 22 1 16 23
M  V30 23 1 8 3
M  V30 24 1 22 17
M  V30 25 1 1 24
M  V30 26 1 1 25
M  V30 27 1 2 26
M  V30 28 1 4 27
M  V30 29 1 5 28
M  V30 30 1 7 29
M  V30 31 1 8 30
M  V30 32 1 9 31
M  V30 33 1 10 32
M  V30 34 1 10 33
M  V30 35 1 10 34
M  V30 36 1 11 35
M  V30 37 1 11 36
M  V30 38 1 11 37
M  V30 39 1 12 38
M  V30 40 1 12 39
M  V30 41 1 13 40
M  V30 42 1 16 41
M  V30 43 1 17 42
M  V30 44 1 18 43
M  V30 45 1 18 44
M  V30 46 1 19 45
M  V30 47 1 19 46
M  V30 48 1 21 47
M  V30 49 1 21 48
M  V30 50 1 22 49
M  V30 51 1 22 50
M  V30 52 1 23 51
M  V30 53 1 23 52
M  V30 END BOND
M  V30 END CTAB
M  END
