
     RDKit          3D

  0  0  0  0  0  0  0  0  0  0999 V3000
M  V30 BEGIN CTAB
M  V30 COUNTS 27 26 0 0 0
M  V30 BEGIN ATOM
M  V30 1 N 2.48755 -1.81024 -0.479412 0
M  V30 2 C 2.73378 -0.417541 -0.209922 0
M  V30 3 C 1.46621 0.331819 0.182857 0
M  V30 4 C 0.422261 0.30115 -0.860154 0
M  V30 5 C -0.844911 0.984024 -0.601622 0
M  V30 6 C -0.797239 2.4582 -0.341874 0
M  V30 7 F -2.13924 2.83262 -0.132324 0
M  V30 8 F -0.376948 3.20827 -1.39491 0
M  V30 9 F -0.178722 2.78565 0.855135 0
M  V30 10 C -1.60251 0.392455 0.574648 0
M  V30 11 C -1.88382 -1.04622 0.248961 0
M  V30 12 N -2.62489 -1.67797 1.34385 0
M  V30 13 H 2.32257 -2.3549 0.372165 0
M  V30 14 H 3.13521 -2.22505 -1.16205 0
M  V30 15 H 3.49323 -0.366798 0.596936 0
M  V30 16 H 3.20537 0.0185752 -1.11463 0
M  V30 17 H 1.18226 -0.0354729 1.16662 0
M  V30 18 H 1.8146 1.39526 0.344647 0
M  V30 19 H 0.237794 -0.746759 -1.16933 0
M  V30 20 H 0.874687 0.753033 -1.80038 0
M  V30 21 H -1.53607 0.849583 -1.47526 0
M  V30 22 H -2.49337 0.96703 0.831861 0
M  V30 23 H -0.87472 0.389237 1.42163 0
M  V30 24 H -2.39824 -1.12789 -0.715514 0
M  V30 25 H -0.940792 -1.65216 0.187808 0
M  V30 26 H -2.0557 -1.50547 2.20648 0
M  V30 27 H -2.62834 -2.70041 1.12379 0
M  V30 END ATOM
M  V30 BEGIN BOND
M  V30 1 1 1 2
M  V30 2 1 2 3
M  V30 3 1 3 4
M  V30 4 1 4 5
M  V30 5 1 5 6
M  V30 6 1 6 7
M  V30 7 1 6 8
M  V30 8 1 6 9
M  V30 9 1 5 10
M  V30 10 1 10 11
M  V30 11 1 11 12
M  V30 12 1 1 13
M  V30 13 1 1 14
M  V30 14 1 2 15
M  V30 15 1 2 16
M  V30 16 1 3 17
M  V30 17 1 3 18
M  V30 18 1 4 19
M  V30 19 1 4 20
M  V30 20 1 5 21
M  V30 21 1 10 22
M  V30 22 1 10 23
M  V30 23 1 11 24
M  V30 24 1 11 25
M  V30 25 1 12 26
M  V30 26 1 12 27
M  V30 END BOND
M  V30 END CTAB
M  END
