
     RDKit          3D

  0  0  0  0  0  0  0  0  0  0999 V3000
M  V30 BEGIN CTAB
M  V30 COUNTS 52 56 0 0 0
M  V30 BEGIN ATOM
M  V30 1 N -2.34684 3.70564 -0.279416 0
M  V30 2 C -2.50957 2.35619 0.135158 0 CFG=2
M  V30 3 C -1.15447 1.69831 -0.0170975 0
M  V30 4 O -0.794737 1.79933 -1.38204 0
M  V30 5 C 0.427427 1.27545 -1.83594 0
M  V30 6 C 0.814798 1.35036 -3.14023 0
M  V30 7 N 1.9972 0.82875 -3.50747 0
M  V30 8 C 2.83737 0.226082 -2.6507 0
M  V30 9 C 2.45719 0.139371 -1.30718 0
M  V30 10 C 1.25555 0.668224 -0.92784 0
M  V30 11 C 3.30766 -0.494999 -0.308166 0
M  V30 12 C 2.76383 -1.14007 0.774772 0
M  V30 13 C 3.59206 -1.73928 1.72084 0
M  V30 14 C 4.96395 -1.70996 1.6112 0
M  V30 15 N 5.97471 -2.18999 2.35588 0
M  V30 16 N 7.11747 -1.86358 1.77043 0
M  V30 17 C 6.88773 -1.17636 0.651608 0
M  V30 18 N 7.84815 -0.657742 -0.241868 0
M  V30 19 C 5.52675 -1.0571 0.514631 0
M  V30 20 C 4.69026 -0.469426 -0.41227 0
M  V30 21 C -3.52555 1.73548 -0.803635 0
M  V30 22 C -3.8102 0.330442 -0.505132 0
M  V30 23 C -3.33779 -0.74848 -1.21598 0
M  V30 24 N -3.80887 -1.86781 -0.646718 0
M  V30 25 C -4.57577 -1.56818 0.41494 0
M  V30 26 C -5.26392 -2.37763 1.29908 0
M  V30 27 C -5.97853 -1.78231 2.3093 0
M  V30 28 C -6.00466 -0.391839 2.43334 0
M  V30 29 C -5.31081 0.390091 1.53933 0
M  V30 30 C -4.58523 -0.189047 0.515664 0
M  V30 31 H -1.85486 4.31742 0.289631 0
M  V30 32 H -2.91159 3.99904 -1.01034 0
M  V30 33 H -2.79982 2.26425 1.187 0
M  V30 34 H -0.428236 2.30825 0.551997 0
M  V30 35 H -1.1657 0.640157 0.316988 0
M  V30 36 H 0.178756 1.82464 -3.87289 0
M  V30 37 H 3.78423 -0.196219 -2.92116 0
M  V30 38 H 0.95283 0.605819 0.109605 0
M  V30 39 H 1.70767 -1.18862 0.903449 0
M  V30 40 H 3.16383 -2.24571 2.57057 0
M  V30 41 H 5.90146 -2.73416 3.25176 0
M  V30 42 H 8.73263 -0.222385 0.0986668 0
M  V30 43 H 7.73412 -0.677159 -1.29877 0
M  V30 44 H 5.1008 0.0422594 -1.26977 0
M  V30 45 H -3.08997 1.81518 -1.81928 0
M  V30 46 H -4.46417 2.35369 -0.832943 0
M  V30 47 H -2.69283 -0.7589 -2.09329 0
M  V30 48 H -3.60752 -2.84076 -0.982495 0
M  V30 49 H -5.24969 -3.4555 1.21036 0
M  V30 50 H -6.52119 -2.42643 3.00563 0
M  V30 51 H -6.59189 0.0215824 3.2577 0
M  V30 52 H -5.33401 1.47363 1.64026 0
M  V30 END ATOM
M  V30 BEGIN BOND
M  V30 1 1 1 2
M  V30 2 1 2 3
M  V30 3 1 3 4
M  V30 4 1 4 5
M  V30 5 2 5 6
M  V30 6 1 6 7
M  V30 7 2 7 8
M  V30 8 1 8 9
M  V30 9 2 9 10
M  V30 10 1 9 11
M  V30 11 2 11 12
M  V30 12 1 12 13
M  V30 13 2 13 14
M  V30 14 1 14 15
M  V30 15 1 15 16
M  V30 16 2 16 17
M  V30 17 1 17 18
M  V30 18 1 17 19
M  V30 19 2 19 20
M  V30 20 1 2 21
M  V30 21 1 21 22
M  V30 22 2 22 23
M  V30 23 1 23 24
M  V30 24 1 24 25
M  V30 25 2 25 26
M  V30 26 1 26 27
M  V30 27 2 27 28
M  V30 28 1 28 29
M  V30 29 2 29 30
M  V30 30 1 10 5
M  V30 31 1 20 11
M  V30 32 1 30 22
M  V30 33 1 19 14
M  V30 34 1 30 25
M  V30 35 1 1 31
M  V30 36 1 1 32
M  V30 37 1 2 33 CFG=1
M  V30 38 1 3 34
M  V30 39 1 3 35
M  V30 40 1 6 36
M  V30 41 1 8 37
M  V30 42 1 10 38
M  V30 43 1 12 39
M  V30 44 1 13 40
M  V30 45 1 15 41
M  V30 46 1 18 42
M  V30 47 1 18 43
M  V30 48 1 20 44
M  V30 49 1 21 45
M  V30 50 1 21 46
M  V30 51 1 23 47
M  V30 52 1 24 48
M  V30 53 1 26 49
M  V30 54 1 27 50
M  V30 55 1 28 51
M  V30 56 1 29 52
M  V30 END BOND
M  V30 END CTAB
M  END
