
     RDKit          3D

  0  0  0  0  0  0  0  0  0  0999 V3000
M  V30 BEGIN CTAB
M  V30 COUNTS 28 28 0 0 0
M  V30 BEGIN ATOM
M  V30 1 N 2.53831 -1.94889 -0.646751 0
M  V30 2 S 2.42873 -0.947029 0.742314 0
M  V30 3 O 3.68811 -0.104579 0.777435 0
M  V30 4 O 2.3263 -1.73006 2.00593 0
M  V30 5 N 1.10428 0.182137 0.581615 0
M  V30 6 C 1.42077 0.989715 -0.57545 0
M  V30 7 C 0.727843 2.33034 -0.55159 0
M  V30 8 C -0.774818 2.19821 -0.581147 0
M  V30 9 O -1.19423 0.939337 -0.95052 0
M  V30 10 C -1.32787 0.175913 0.2167 0 CFG=2
M  V30 11 C -0.078349 -0.618016 0.397577 0
M  V30 12 S -2.67505 -0.949267 -0.0630707 0
M  V30 13 O -3.90361 -0.117712 -0.31537 0
M  V30 14 O -2.40427 -1.81355 -1.24787 0
M  V30 15 N -2.94555 -1.96088 1.30681 0
M  V30 16 H 2.61459 -1.37042 -1.48538 0
M  V30 17 H 3.38371 -2.52838 -0.565807 0
M  V30 18 H 1.22811 0.480307 -1.52086 0
M  V30 19 H 2.51423 1.2016 -0.515521 0
M  V30 20 H 1.08582 2.94404 0.284123 0
M  V30 21 H 1.0196 2.85414 -1.49006 0
M  V30 22 H -1.25545 2.9343 -1.24807 0
M  V30 23 H -1.14892 2.40279 0.442895 0
M  V30 24 H -1.55874 0.81615 1.0846 0
M  V30 25 H 0.0240889 -1.31056 -0.470515 0
M  V30 26 H -0.191906 -1.24239 1.31185 0
M  V30 27 H -3.92245 -2.3307 1.3007 0
M  V30 28 H -2.72327 -1.47655 2.20397 0
M  V30 END ATOM
M  V30 BEGIN BOND
M  V30 1 1 1 2
M  V30 2 2 2 3
M  V30 3 2 2 4
M  V30 4 1 2 5
M  V30 5 1 5 6
M  V30 6 1 6 7
M  V30 7 1 7 8
M  V30 8 1 8 9
M  V30 9 1 9 10
M  V30 10 1 10 11
M  V30 11 1 10 12
M  V30 12 2 12 13
M  V30 13 2 12 14
M  V30 14 1 12 15
M  V30 15 1 11 5
M  V30 16 1 1 16
M  V30 17 1 1 17
M  V30 18 1 6 18
M  V30 19 1 6 19
M  V30 20 1 7 20
M  V30 21 1 7 21
M  V30 22 1 8 22
M  V30 23 1 8 23
M  V30 24 1 10 24 CFG=1
M  V30 25 1 11 25
M  V30 26 1 11 26
M  V30 27 1 15 27
M  V30 28 1 15 28
M  V30 END BOND
M  V30 END CTAB
M  END
