
     RDKit          3D

  0  0  0  0  0  0  0  0  0  0999 V3000
M  V30 BEGIN CTAB
M  V30 COUNTS 38 39 0 0 0
M  V30 BEGIN ATOM
M  V30 1 N 6.06561 0.165771 -0.382034 0
M  V30 2 C 4.65764 0.00608706 -0.318946 0
M  V30 3 N 4.13626 -1.06391 0.300936 0
M  V30 4 C 2.78509 -1.20486 0.354207 0
M  V30 5 C 1.94207 -0.283984 -0.207875 0
M  V30 6 C 2.49697 0.798974 -0.834667 0
M  V30 7 C 3.85569 0.970921 -0.906061 0
M  V30 8 N 4.44154 2.08163 -1.54854 0
M  V30 9 O 0.585044 -0.476841 -0.124099 0
M  V30 10 C -0.00433511 -1.57851 0.512965 0
M  V30 11 C -1.48237 -1.62911 0.510095 0
M  V30 12 C -2.20652 -0.516907 1.18929 0
M  V30 13 C -3.70905 -0.768194 1.07141 0
M  V30 14 C -4.26636 -0.244199 -0.218808 0
M  V30 15 C -3.84581 1.13019 -0.595809 0
M  V30 16 C -2.31267 1.11165 -0.701801 0
M  V30 17 C -1.86704 0.865291 0.745653 0
M  V30 18 H 6.66066 0.0638978 0.477667 0
M  V30 19 H 6.54256 0.388012 -1.28343 0
M  V30 20 H 2.35033 -2.06137 0.850023 0
M  V30 21 H 1.8571 1.54313 -1.28797 0
M  V30 22 H 5.37482 2.03911 -2.00319 0
M  V30 23 H 3.92144 2.97932 -1.56956 0
M  V30 24 H 0.438188 -1.72297 1.53746 0
M  V30 25 H 0.35921 -2.48491 -0.0557364 0
M  V30 26 H -1.7876 -2.58142 1.04021 0
M  V30 27 H -1.82055 -1.79094 -0.539323 0
M  V30 28 H -1.98186 -0.588042 2.27491 0
M  V30 29 H -3.84742 -1.86412 1.09709 0
M  V30 30 H -4.25892 -0.343645 1.92959 0
M  V30 31 H -5.3731 -0.259677 -0.142931 0
M  V30 32 H -4.01061 -0.927253 -1.07976 0
M  V30 33 H -4.12493 1.83324 0.242206 0
M  V30 34 H -4.32033 1.40268 -1.53568 0
M  V30 35 H -1.91014 2.07324 -1.01755 0
M  V30 36 H -2.00356 0.247414 -1.28652 0
M  V30 37 H -2.49636 1.55143 1.36756 0
M  V30 38 H -0.840704 1.13886 0.840692 0
M  V30 END ATOM
M  V30 BEGIN BOND
M  V30 1 1 1 2
M  V30 2 2 2 3
M  V30 3 1 3 4
M  V30 4 2 4 5
M  V30 5 1 5 6
M  V30 6 2 6 7
M  V30 7 1 7 8
M  V30 8 1 5 9
M  V30 9 1 9 10
M  V30 10 1 10 11
M  V30 11 1 11 12
M  V30 12 1 12 13
M  V30 13 1 13 14
M  V30 14 1 14 15
M  V30 15 1 15 16
M  V30 16 1 16 17
M  V30 17 1 7 2
M  V30 18 1 17 12
M  V30 19 1 1 18
M  V30 20 1 1 19
M  V30 21 1 4 20
M  V30 22 1 6 21
M  V30 23 1 8 22
M  V30 24 1 8 23
M  V30 25 1 10 24
M  V30 26 1 10 25
M  V30 27 1 11 26
M  V30 28 1 11 27
M  V30 29 1 12 28
M  V30 30 1 13 29
M  V30 31 1 13 30
M  V30 32 1 14 31
M  V30 33 1 14 32
M  V30 34 1 15 33
M  V30 35 1 15 34
M  V30 36 1 16 35
M  V30 37 1 16 36
M  V30 38 1 17 37
M  V30 39 1 17 38
M  V30 END BOND
M  V30 END CTAB
M  END
