
     RDKit          3D

  0  0  0  0  0  0  0  0  0  0999 V3000
M  V30 BEGIN CTAB
M  V30 COUNTS 25 25 0 0 0
M  V30 BEGIN ATOM
M  V30 1 N -3.74934 1.32567 0.433708 0
M  V30 2 C -2.32076 1.12954 0.534727 0
M  V30 3 C -1.87417 -0.104049 -0.249053 0
M  V30 4 C -0.431189 -0.241808 -0.105026 0
M  V30 5 C 0.175154 -0.788883 1.00517 0
M  V30 6 C 1.5515 -0.877798 1.05401 0
M  V30 7 C 2.31729 -0.421657 -0.00259535 0
M  V30 8 N 1.72897 0.11042 -1.08251 0
M  V30 9 C 0.387146 0.193891 -1.12323 0
M  V30 10 O 3.71045 -0.543964 0.116102 0
M  V30 11 C 4.50401 -0.073906 -0.973145 0
M  V30 12 N -2.61889 -1.27337 0.144608 0
M  V30 13 H -4.21886 1.33664 1.37396 0
M  V30 14 H -3.92352 2.26593 0.0155311 0
M  V30 15 H -1.77214 2.01378 0.151466 0
M  V30 16 H -2.04983 1.04827 1.61103 0
M  V30 17 H -2.12533 0.0902882 -1.30964 0
M  V30 18 H -0.421899 -1.1357 1.81001 0
M  V30 19 H 2.01181 -1.3084 1.92959 0
M  V30 20 H -0.0225973 0.641218 -2.03989 0
M  V30 21 H 3.92823 -0.296438 -1.89031 0
M  V30 22 H 4.63506 1.04165 -0.913461 0
M  V30 23 H 5.49208 -0.534301 -1.01084 0
M  V30 24 H -2.4083 -1.59024 1.1063 0
M  V30 25 H -2.50488 -2.00679 -0.586523 0
M  V30 END ATOM
M  V30 BEGIN BOND
M  V30 1 1 1 2
M  V30 2 1 2 3
M  V30 3 1 3 4
M  V30 4 2 4 5
M  V30 5 1 5 6
M  V30 6 2 6 7
M  V30 7 1 7 8
M  V30 8 2 8 9
M  V30 9 1 7 10
M  V30 10 1 10 11
M  V30 11 1 3 12
M  V30 12 1 9 4
M  V30 13 1 1 13
M  V30 14 1 1 14
M  V30 15 1 2 15
M  V30 16 1 2 16
M  V30 17 1 3 17
M  V30 18 1 5 18
M  V30 19 1 6 19
M  V30 20 1 9 20
M  V30 21 1 11 21
M  V30 22 1 11 22
M  V30 23 1 11 23
M  V30 24 1 12 24
M  V30 25 1 12 25
M  V30 END BOND
M  V30 END CTAB
M  END
