
     RDKit          3D

  0  0  0  0  0  0  0  0  0  0999 V3000
M  V30 BEGIN CTAB
M  V30 COUNTS 39 41 0 0 0
M  V30 BEGIN ATOM
M  V30 1 N 7.42324 0.72016 -1.57921 0
M  V30 2 C 6.16461 0.395093 -1.03108 0
M  V30 3 N 4.99832 0.510205 -1.7056 0
M  V30 4 C 3.81975 0.192134 -1.15348 0
M  V30 5 C 2.5521 0.313011 -1.89576 0
M  V30 6 O 1.39911 0.168733 -1.12983 0
M  V30 7 C 0.996401 0.936236 -0.0759008 0
M  V30 8 O 1.73591 1.90107 0.267476 0
M  V30 9 C -0.24163 0.647816 0.622715 0
M  V30 10 C -0.729747 1.3577 1.68862 0
M  V30 11 N -1.89321 0.769289 2.04059 0
M  V30 12 N -2.14488 -0.256081 1.25478 0
M  V30 13 C -1.14156 -0.351299 0.372875 0
M  V30 14 C -3.30612 -1.11478 1.34592 0
M  V30 15 C -4.40449 -0.59376 0.514772 0
M  V30 16 C -4.23984 0.562426 -0.208555 0
M  V30 17 C -5.28264 1.03558 -0.982838 0
M  V30 18 C -6.49176 0.388438 -1.05915 0
M  V30 19 C -6.65959 -0.771385 -0.334682 0
M  V30 20 C -5.61072 -1.25269 0.447798 0
M  V30 21 Cl -5.83111 -2.72855 1.36677 0
M  V30 22 N 3.80217 -0.253852 0.10795 0
M  V30 23 C 4.96113 -0.381548 0.816046 0
M  V30 24 N 6.11871 -0.0561932 0.236973 0
M  V30 25 N 4.90906 -0.856342 2.14917 0
M  V30 26 H 8.14913 -0.0100053 -1.64984 0
M  V30 27 H 7.62711 1.6761 -1.90962 0
M  V30 28 H 2.54495 1.27807 -2.48224 0
M  V30 29 H 2.50796 -0.472433 -2.7084 0
M  V30 30 H -0.334368 2.21937 2.20407 0
M  V30 31 H -1.03654 -1.08845 -0.41737 0
M  V30 32 H -2.98162 -2.13246 1.00942 0
M  V30 33 H -3.68741 -1.19735 2.38539 0
M  V30 34 H -3.31582 1.10709 -0.18456 0
M  V30 35 H -5.19401 1.95296 -1.57486 0
M  V30 36 H -7.31238 0.764782 -1.67121 0
M  V30 37 H -7.60666 -1.30353 -0.37713 0
M  V30 38 H 5.46515 -0.465057 2.93252 0
M  V30 39 H 4.27127 -1.65303 2.36749 0
M  V30 END ATOM
M  V30 BEGIN BOND
M  V30 1 1 1 2
M  V30 2 2 2 3
M  V30 3 1 3 4
M  V30 4 1 4 5
M  V30 5 1 5 6
M  V30 6 1 6 7
M  V30 7 2 7 8
M  V30 8 1 7 9
M  V30 9 1 9 10
M  V30 10 2 10 11
M  V30 11 1 11 12
M  V30 12 1 12 13
M  V30 13 1 12 14
M  V30 14 1 14 15
M  V30 15 2 15 16
M  V30 16 1 16 17
M  V30 17 2 17 18
M  V30 18 1 18 19
M  V30 19 2 19 20
M  V30 20 1 20 21
M  V30 21 2 4 22
M  V30 22 1 22 23
M  V30 23 2 23 24
M  V30 24 1 23 25
M  V30 25 1 24 2
M  V30 26 2 13 9
M  V30 27 1 20 15
M  V30 28 1 1 26
M  V30 29 1 1 27
M  V30 30 1 5 28
M  V30 31 1 5 29
M  V30 32 1 10 30
M  V30 33 1 13 31
M  V30 34 1 14 32
M  V30 35 1 14 33
M  V30 36 1 16 34
M  V30 37 1 17 35
M  V30 38 1 18 36
M  V30 39 1 19 37
M  V30 40 1 25 38
M  V30 41 1 25 39
M  V30 END BOND
M  V30 END CTAB
M  END
