
     RDKit          3D

  0  0  0  0  0  0  0  0  0  0999 V3000
M  V30 BEGIN CTAB
M  V30 COUNTS 32 33 0 0 0
M  V30 BEGIN ATOM
M  V30 1 N 6.48094 -0.255297 0.19685 0
M  V30 2 C 5.08928 -0.16814 0.367813 0
M  V30 3 C 4.25469 0.395614 -0.569568 0
M  V30 4 C 2.87972 0.468946 -0.374663 0
M  V30 5 C 2.29626 -0.0228516 0.771195 0
M  V30 6 C 3.15231 -0.593316 1.71685 0
M  V30 7 C 4.51163 -0.660709 1.51378 0
M  V30 8 C 0.857106 0.0343155 1.01499 0
M  V30 9 O 0.423933 -0.443027 2.09528 0
M  V30 10 N -0.0402108 0.601544 0.0846738 0
M  V30 11 N -1.41311 0.622971 0.38468 0
M  V30 12 C -2.22393 0.319533 -0.584823 0
M  V30 13 C -3.65981 0.321495 -0.345237 0
M  V30 14 C -4.49827 -0.0022707 -1.38422 0
M  V30 15 C -5.87059 -0.0153264 -1.20939 0
M  V30 16 N -6.35379 0.297303 0.00317481 0
M  V30 17 C -5.59026 0.618605 1.04535 0
M  V30 18 C -4.22098 0.632222 0.873049 0
M  V30 19 N -1.7059 -0.00809345 -1.8572 0
M  V30 20 H 7.19656 -0.122667 0.938538 0
M  V30 21 H 6.86951 -0.474718 -0.762945 0
M  V30 22 H 4.65995 0.804612 -1.5025 0
M  V30 23 H 2.23336 0.922007 -1.13407 0
M  V30 24 H 2.6958 -0.982851 2.62303 0
M  V30 25 H 5.11854 -1.11475 2.28507 0
M  V30 26 H 0.241949 1.01521 -0.828201 0
M  V30 27 H -4.11345 -0.252461 -2.35432 0
M  V30 28 H -6.55947 -0.266326 -2.00857 0
M  V30 29 H -6.05193 0.864187 2.01114 0
M  V30 30 H -3.59696 0.887713 1.69903 0
M  V30 31 H -1.19425 -0.871969 -2.08446 0
M  V30 32 H -1.86862 0.707182 -2.62435 0
M  V30 END ATOM
M  V30 BEGIN BOND
M  V30 1 1 1 2
M  V30 2 2 2 3
M  V30 3 1 3 4
M  V30 4 2 4 5
M  V30 5 1 5 6
M  V30 6 2 6 7
M  V30 7 1 5 8
M  V30 8 2 8 9
M  V30 9 1 8 10
M  V30 10 1 10 11
M  V30 11 2 11 12
M  V30 12 1 12 13
M  V30 13 2 13 14
M  V30 14 1 14 15
M  V30 15 2 15 16
M  V30 16 1 16 17
M  V30 17 2 17 18
M  V30 18 1 12 19
M  V30 19 1 7 2
M  V30 20 1 18 13
M  V30 21 1 1 20
M  V30 22 1 1 21
M  V30 23 1 3 22
M  V30 24 1 4 23
M  V30 25 1 6 24
M  V30 26 1 7 25
M  V30 27 1 10 26
M  V30 28 1 14 27
M  V30 29 1 15 28
M  V30 30 1 17 29
M  V30 31 1 18 30
M  V30 32 1 19 31
M  V30 33 1 19 32
M  V30 END BOND
M  V30 END CTAB
M  END
