
     RDKit          3D

  0  0  0  0  0  0  0  0  0  0999 V3000
M  V30 BEGIN CTAB
M  V30 COUNTS 39 40 0 0 0
M  V30 BEGIN ATOM
M  V30 1 C 3.91879 3.15541 0.23659 0
M  V30 2 S 4.01621 1.83244 -0.998439 0
M  V30 3 C 2.63628 0.644801 -0.769358 0
M  V30 4 C 2.86203 -0.0237614 0.540264 0
M  V30 5 N 1.86441 -1.00364 0.905802 0
M  V30 6 C 0.742437 -1.36093 0.124519 0
M  V30 7 C -0.448149 -0.669683 0.208902 0
M  V30 8 C -1.55248 -1.01557 -0.546002 0
M  V30 9 N -1.40449 -2.07595 -1.37861 0
M  V30 10 C -0.256291 -2.76883 -1.48241 0
M  V30 11 N 0.802348 -2.39715 -0.725223 0
M  V30 12 N -0.189961 -3.86687 -2.38016 0
M  V30 13 C -2.83278 -0.288361 -0.469721 0 CFG=2
M  V30 14 C -2.73742 1.21996 -0.676444 0
M  V30 15 C -3.85485 1.33369 0.361173 0 CFG=1
M  V30 16 C -3.35693 -0.0032932 0.924514 0
M  V30 17 N -3.76044 2.44826 1.2536 0
M  V30 18 C 2.04773 -1.66854 2.18602 0
M  V30 19 H 4.19846 2.80079 1.26031 0
M  V30 20 H 2.90858 3.61905 0.28376 0
M  V30 21 H 4.62207 3.95039 -0.0211314 0
M  V30 22 H 2.75413 -0.0874319 -1.60355 0
M  V30 23 H 1.70994 1.20449 -0.879893 0
M  V30 24 H 2.83259 0.76244 1.34396 0
M  V30 25 H 3.88818 -0.447598 0.527692 0
M  V30 26 H -0.573201 0.182549 0.875437 0
M  V30 27 H -0.0875397 -3.65236 -3.39441 0
M  V30 28 H -0.240686 -4.85996 -2.05841 0
M  V30 29 H -3.6433 -0.684637 -1.10172 0
M  V30 30 H -1.76842 1.6196 -0.318807 0
M  V30 31 H -3.06654 1.51908 -1.67505 0
M  V30 32 H -4.84162 1.27304 -0.0996644 0
M  V30 33 H -4.21963 -0.623519 1.22613 0
M  V30 34 H -2.59101 0.102273 1.70286 0
M  V30 35 H -3.27048 3.27749 0.884932 0
M  V30 36 H -3.49836 2.17168 2.21218 0
M  V30 37 H 2.88479 -2.39649 2.02785 0
M  V30 38 H 2.34124 -0.951377 2.97727 0
M  V30 39 H 1.16435 -2.27151 2.46825 0
M  V30 END ATOM
M  V30 BEGIN BOND
M  V30 1 1 1 2
M  V30 2 1 2 3
M  V30 3 1 3 4
M  V30 4 1 4 5
M  V30 5 1 5 6
M  V30 6 2 6 7
M  V30 7 1 7 8
M  V30 8 2 8 9
M  V30 9 1 9 10
M  V30 10 2 10 11
M  V30 11 1 10 12
M  V30 12 1 8 13
M  V30 13 1 13 14
M  V30 14 1 14 15
M  V30 15 1 15 16
M  V30 16 1 15 17
M  V30 17 1 5 18
M  V30 18 1 11 6
M  V30 19 1 16 13
M  V30 20 1 1 19
M  V30 21 1 1 20
M  V30 22 1 1 21
M  V30 23 1 3 22
M  V30 24 1 3 23
M  V30 25 1 4 24
M  V30 26 1 4 25
M  V30 27 1 7 26
M  V30 28 1 12 27
M  V30 29 1 12 28
M  V30 30 1 13 29 CFG=3
M  V30 31 1 14 30
M  V30 32 1 14 31
M  V30 33 1 15 32 CFG=3
M  V30 34 1 16 33
M  V30 35 1 16 34
M  V30 36 1 17 35
M  V30 37 1 17 36
M  V30 38 1 18 37
M  V30 39 1 18 38
M  V30 40 1 18 39
M  V30 END BOND
M  V30 END CTAB
M  END
