
     RDKit          3D

  0  0  0  0  0  0  0  0  0  0999 V3000
M  V30 BEGIN CTAB
M  V30 COUNTS 18 18 0 0 0
M  V30 BEGIN ATOM
M  V30 1 C 0.310871 -1.77539 -0.254041 0
M  V30 2 C 0.122579 -0.347593 -0.039395 0
M  V30 3 C -1.12123 0.221542 -0.128291 0
M  V30 4 N -2.24836 -0.574728 -0.431955 0
M  V30 5 C -1.22453 1.57979 0.0872043 0
M  V30 6 C -0.115352 2.35596 0.384717 0
M  V30 7 N 1.08728 1.75445 0.461962 0
M  V30 8 C 1.23072 0.427336 0.257751 0
M  V30 9 N 2.52165 -0.157538 0.350997 0
M  V30 10 H 0.945039 -1.91258 -1.17638 0
M  V30 11 H 0.957199 -2.16043 0.583552 0
M  V30 12 H -0.589351 -2.3597 -0.397427 0
M  V30 13 H -3.16574 -0.375813 0.0246816 0
M  V30 14 H -2.22866 -1.36687 -1.0964 0
M  V30 15 H -2.21185 2.02145 0.0149307 0
M  V30 16 H -0.200677 3.4055 0.550426 0
M  V30 17 H 3.18557 -0.0851148 -0.446373 0
M  V30 18 H 2.74485 -0.650265 1.25404 0
M  V30 END ATOM
M  V30 BEGIN BOND
M  V30 1 1 1 2
M  V30 2 2 2 3
M  V30 3 1 3 4
M  V30 4 1 3 5
M  V30 5 2 5 6
M  V30 6 1 6 7
M  V30 7 2 7 8
M  V30 8 1 8 9
M  V30 9 1 8 2
M  V30 10 1 1 10
M  V30 11 1 1 11
M  V30 12 1 1 12
M  V30 13 1 4 13
M  V30 14 1 4 14
M  V30 15 1 5 15
M  V30 16 1 6 16
M  V30 17 1 9 17
M  V30 18 1 9 18
M  V30 END BOND
M  V30 END CTAB
M  END
