
     RDKit          3D

  0  0  0  0  0  0  0  0  0  0999 V3000
M  V30 BEGIN CTAB
M  V30 COUNTS 32 32 0 0 0
M  V30 BEGIN ATOM
M  V30 1 N 6.39551 0.297732 -0.232167 0
M  V30 2 C 4.96233 0.358549 -0.132889 0
M  V30 3 C 4.4266 -0.397491 1.07404 0
M  V30 4 S 2.60814 -0.203955 1.03171 0
M  V30 5 C 1.96988 -1.07743 -0.437804 0
M  V30 6 C 0.475418 -0.900169 -0.476789 0
M  V30 7 N -0.213413 0.0787 -1.08282 0
M  V30 8 C -1.53741 -0.106225 -0.888519 0
M  V30 9 C -2.64404 0.777315 -1.41197 0
M  V30 10 S -2.93728 2.04992 -0.203127 0
M  V30 11 C -3.62457 1.42366 1.32364 0
M  V30 12 C -5.04191 0.935687 1.21907 0
M  V30 13 N -5.12254 -0.148638 0.278954 0
M  V30 14 N -1.64286 -1.21048 -0.156621 0
M  V30 15 N -0.4395 -1.6984 0.0981669 0
M  V30 16 H 6.75099 -0.6815 -0.232609 0
M  V30 17 H 6.66265 0.750137 -1.13312 0
M  V30 18 H 4.65644 1.41654 -0.0442863 0
M  V30 19 H 4.49159 -0.0812135 -1.02169 0
M  V30 20 H 4.81007 0.00513707 2.02381 0
M  V30 21 H 4.66617 -1.46782 0.911455 0
M  V30 22 H 2.23487 -2.14545 -0.356849 0
M  V30 23 H 2.38844 -0.669011 -1.37784 0
M  V30 24 H -3.49167 0.120646 -1.62192 0
M  V30 25 H -2.33421 1.2214 -2.38974 0
M  V30 26 H -3.51535 2.2113 2.10967 0
M  V30 27 H -2.93651 0.59586 1.66715 0
M  V30 28 H -5.37997 0.628115 2.24052 0
M  V30 29 H -5.70378 1.78134 0.865771 0
M  V30 30 H -4.60385 -0.952318 0.662572 0
M  V30 31 H -6.14478 -0.365619 0.141933 0
M  V30 32 H -0.185439 -2.54632 0.640632 0
M  V30 END ATOM
M  V30 BEGIN BOND
M  V30 1 1 1 2
M  V30 2 1 2 3
M  V30 3 1 3 4
M  V30 4 1 4 5
M  V30 5 1 5 6
M  V30 6 2 6 7
M  V30 7 1 7 8
M  V30 8 1 8 9
M  V30 9 1 9 10
M  V30 10 1 10 11
M  V30 11 1 11 12
M  V30 12 1 12 13
M  V30 13 2 8 14
M  V30 14 1 14 15
M  V30 15 1 15 6
M  V30 16 1 1 16
M  V30 17 1 1 17
M  V30 18 1 2 18
M  V30 19 1 2 19
M  V30 20 1 3 20
M  V30 21 1 3 21
M  V30 22 1 5 22
M  V30 23 1 5 23
M  V30 24 1 9 24
M  V30 25 1 9 25
M  V30 26 1 11 26
M  V30 27 1 11 27
M  V30 28 1 12 28
M  V30 29 1 12 29
M  V30 30 1 13 30
M  V30 31 1 13 31
M  V30 32 1 15 32
M  V30 END BOND
M  V30 END CTAB
M  END
