
     RDKit          3D

  0  0  0  0  0  0  0  0  0  0999 V3000
M  V30 BEGIN CTAB
M  V30 COUNTS 56 59 0 0 0
M  V30 BEGIN ATOM
M  V30 1 N 4.83427 -4.32004 -2.34498 0
M  V30 2 C 3.65587 -3.62907 -1.8903 0
M  V30 3 N 2.5373 -3.76726 -2.62431 0
M  V30 4 C 1.44775 -3.11928 -2.18867 0
M  V30 5 N 0.260854 -3.26414 -2.96267 0
M  V30 6 C 1.43057 -2.34444 -1.05808 0
M  V30 7 C 2.60536 -2.22743 -0.328835 0
M  V30 8 C 2.53213 -1.40721 0.883575 0
M  V30 9 O 3.68796 -1.27492 1.58604 0
M  V30 10 C 4.69595 -0.602112 0.947512 0
M  V30 11 C 4.2696 0.800967 0.582074 0
M  V30 12 C 3.87477 1.14825 -0.688144 0
M  V30 13 C 3.48799 2.44486 -0.989902 0
M  V30 14 C 3.50724 3.38999 0.0202702 0
M  V30 15 C 3.90526 3.0235 1.28584 0
M  V30 16 C 4.29154 1.73276 1.59076 0
M  V30 17 N 3.67132 -2.88428 -0.788221 0
M  V30 18 C 0.190038 -1.67006 -0.646873 0
M  V30 19 C -0.779616 -2.33956 0.0710453 0
M  V30 20 C -1.94789 -1.71646 0.462596 0
M  V30 21 C -2.20892 -0.395932 0.159077 0
M  V30 22 N -3.40757 0.253766 0.562844 0
M  V30 23 C -3.71409 1.6228 0.214041 0
M  V30 24 C -5.01045 2.04091 0.786013 0
M  V30 25 C -6.20217 1.83449 0.144006 0
M  V30 26 C -7.3646 2.27001 0.773498 0
M  V30 27 C -7.35704 2.89222 2.00164 0
M  V30 28 C -6.1532 3.09154 2.63203 0
M  V30 29 C -4.99414 2.66844 2.0266 0
M  V30 30 C -1.2384 0.272901 -0.559244 0
M  V30 31 C -0.0689402 -0.35088 -0.951302 0
M  V30 32 H 4.97903 -4.40951 -3.35604 0
M  V30 33 H 5.50988 -4.71058 -1.66068 0
M  V30 34 H -0.616933 -3.64125 -2.5475 0
M  V30 35 H 0.205413 -3.00445 -3.97473 0
M  V30 36 H 1.76948 -1.87331 1.56336 0
M  V30 37 H 2.11833 -0.384924 0.611741 0
M  V30 38 H 5.54007 -0.533863 1.69593 0
M  V30 39 H 5.11412 -1.12303 0.0815717 0
M  V30 40 H 3.8611 0.413776 -1.47569 0
M  V30 41 H 3.17525 2.7589 -1.95778 0
M  V30 42 H 3.20776 4.42144 -0.183495 0
M  V30 43 H 3.90856 3.7879 2.05248 0
M  V30 44 H 4.59544 1.49864 2.60086 0
M  V30 45 H -0.583695 -3.39355 0.319767 0
M  V30 46 H -2.70624 -2.25201 1.02826 0
M  V30 47 H -4.10277 -0.267016 1.13479 0
M  V30 48 H -2.91208 2.31295 0.570189 0
M  V30 49 H -3.78583 1.63879 -0.908879 0
M  V30 50 H -6.22452 1.34661 -0.821051 0
M  V30 51 H -8.31855 2.11001 0.2695 0
M  V30 52 H -8.30397 3.21764 2.45737 0
M  V30 53 H -6.08232 3.57196 3.59334 0
M  V30 54 H -4.03571 2.82331 2.52206 0
M  V30 55 H -1.43652 1.32339 -0.804679 0
M  V30 56 H 0.685926 0.193847 -1.51863 0
M  V30 END ATOM
M  V30 BEGIN BOND
M  V30 1 1 1 2
M  V30 2 2 2 3
M  V30 3 1 3 4
M  V30 4 1 4 5
M  V30 5 2 4 6
M  V30 6 1 6 7
M  V30 7 1 7 8
M  V30 8 1 8 9
M  V30 9 1 9 10
M  V30 10 1 10 11
M  V30 11 2 11 12
M  V30 12 1 12 13
M  V30 13 2 13 14
M  V30 14 1 14 15
M  V30 15 2 15 16
M  V30 16 2 7 17
M  V30 17 1 6 18
M  V30 18 2 18 19
M  V30 19 1 19 20
M  V30 20 2 20 21
M  V30 21 1 21 22
M  V30 22 1 22 23
M  V30 23 1 23 24
M  V30 24 2 24 25
M  V30 25 1 25 26
M  V30 26 2 26 27
M  V30 27 1 27 28
M  V30 28 2 28 29
M  V30 29 1 21 30
M  V30 30 2 30 31
M  V30 31 1 17 2
M  V30 32 1 31 18
M  V30 33 1 16 11
M  V30 34 1 29 24
M  V30 35 1 1 32
M  V30 36 1 1 33
M  V30 37 1 5 34
M  V30 38 1 5 35
M  V30 39 1 8 36
M  V30 40 1 8 37
M  V30 41 1 10 38
M  V30 42 1 10 39
M  V30 43 1 12 40
M  V30 44 1 13 41
M  V30 45 1 14 42
M  V30 46 1 15 43
M  V30 47 1 16 44
M  V30 48 1 19 45
M  V30 49 1 20 46
M  V30 50 1 22 47
M  V30 51 1 23 48
M  V30 52 1 23 49
M  V30 53 1 25 50
M  V30 54 1 26 51
M  V30 55 1 27 52
M  V30 56 1 28 53
M  V30 57 1 29 54
M  V30 58 1 30 55
M  V30 59 1 31 56
M  V30 END BOND
M  V30 END CTAB
M  END
