
     RDKit          3D

  0  0  0  0  0  0  0  0  0  0999 V3000
M  V30 BEGIN CTAB
M  V30 COUNTS 44 47 0 0 0
M  V30 BEGIN ATOM
M  V30 1 N -5.50579 -1.76921 -2.26668 0
M  V30 2 C -4.433 -1.49297 -1.86834 0
M  V30 3 C -3.11095 -1.15352 -1.40966 0
M  V30 4 C -2.0127 -1.76201 -2.0286 0
M  V30 5 N -2.24786 -2.69807 -3.07193 0
M  V30 6 N -0.787229 -1.43217 -1.6068 0
M  V30 7 C -0.537454 -0.53931 -0.610397 0
M  V30 8 C -1.61977 0.0470067 -0.0147797 0
M  V30 9 C -2.93214 -0.24541 -0.399057 0
M  V30 10 C -4.05852 0.388272 0.267496 0
M  V30 11 C -4.07249 1.75839 0.417264 0
M  V30 12 N -5.10354 2.35197 1.04134 0
M  V30 13 C -6.15663 1.6851 1.54668 0
M  V30 14 N -6.14948 0.335412 1.40296 0
M  V30 15 C -5.12972 -0.302311 0.780646 0
M  V30 16 N -7.22711 2.35068 2.19952 0
M  V30 17 C 0.835475 -0.24424 -0.220325 0
M  V30 18 C 1.16953 0.640773 0.771358 0
M  V30 19 C 2.48563 0.901716 1.12114 0
M  V30 20 C 3.48915 0.248794 0.448445 0
M  V30 21 C 3.18405 -0.644159 -0.550626 0
M  V30 22 C 1.86806 -0.88085 -0.873664 0
M  V30 23 C 4.22473 -1.2766 -1.19899 0
M  V30 24 C 5.53335 -1.03903 -0.875328 0
M  V30 25 C 5.81924 -0.147051 0.121768 0
M  V30 26 C 4.80723 0.498277 0.785691 0
M  V30 27 O 7.17174 0.0683966 0.4231 0
M  V30 28 C 7.47439 0.982041 1.44489 0
M  V30 29 H -2.00485 -2.40192 -4.05991 0
M  V30 30 H -2.65067 -3.65867 -2.88019 0
M  V30 31 H -1.52348 0.755715 0.771316 0
M  V30 32 H -3.22608 2.31887 0.0136496 0
M  V30 33 H -5.16726 -1.36648 0.699416 0
M  V30 34 H -8.14882 1.88643 2.31985 0
M  V30 35 H -7.07372 3.31218 2.55609 0
M  V30 36 H 0.37261 1.14619 1.29114 0
M  V30 37 H 2.68045 1.61224 1.91384 0
M  V30 38 H 1.63443 -1.58226 -1.65813 0
M  V30 39 H 3.99322 -1.98469 -1.99073 0
M  V30 40 H 6.32496 -1.55608 -1.40818 0
M  V30 41 H 5.04447 1.19441 1.56452 0
M  V30 42 H 7.3134 2.02836 1.07909 0
M  V30 43 H 6.88043 0.775817 2.35035 0
M  V30 44 H 8.57267 0.889968 1.65894 0
M  V30 END ATOM
M  V30 BEGIN BOND
M  V30 1 3 1 2
M  V30 2 1 2 3
M  V30 3 2 3 4
M  V30 4 1 4 5
M  V30 5 1 4 6
M  V30 6 2 6 7
M  V30 7 1 7 8
M  V30 8 2 8 9
M  V30 9 1 9 10
M  V30 10 2 10 11
M  V30 11 1 11 12
M  V30 12 2 12 13
M  V30 13 1 13 14
M  V30 14 2 14 15
M  V30 15 1 13 16
M  V30 16 1 7 17
M  V30 17 2 17 18
M  V30 18 1 18 19
M  V30 19 2 19 20
M  V30 20 1 20 21
M  V30 21 2 21 22
M  V30 22 1 21 23
M  V30 23 2 23 24
M  V30 24 1 24 25
M  V30 25 2 25 26
M  V30 26 1 25 27
M  V30 27 1 27 28
M  V30 28 1 9 3
M  V30 29 1 15 10
M  V30 30 1 22 17
M  V30 31 1 26 20
M  V30 32 1 5 29
M  V30 33 1 5 30
M  V30 34 1 8 31
M  V30 35 1 11 32
M  V30 36 1 15 33
M  V30 37 1 16 34
M  V30 38 1 16 35
M  V30 39 1 18 36
M  V30 40 1 19 37
M  V30 41 1 22 38
M  V30 42 1 23 39
M  V30 43 1 24 40
M  V30 44 1 26 41
M  V30 45 1 28 42
M  V30 46 1 28 43
M  V30 47 1 28 44
M  V30 END BOND
M  V30 END CTAB
M  END
