
     RDKit          3D

  0  0  0  0  0  0  0  0  0  0999 V3000
M  V30 BEGIN CTAB
M  V30 COUNTS 31 33 0 0 0
M  V30 BEGIN ATOM
M  V30 1 Cl -7.02753 -0.408616 1.63439 0
M  V30 2 C -5.42367 -0.197347 0.932975 0
M  V30 3 C -5.26574 0.393392 -0.304176 0
M  V30 4 C -4.02145 0.556953 -0.844675 0
M  V30 5 C -2.87902 0.148939 -0.197606 0
M  V30 6 C -3.06086 -0.438339 1.03861 0
M  V30 7 C -4.3003 -0.613221 1.60251 0
M  V30 8 C -1.52843 0.330584 -0.793809 0
M  V30 9 C -1.37189 0.928287 -2.01931 0
M  V30 10 S 0.340498 0.873701 -2.20115 0
M  V30 11 C 0.724398 0.107705 -0.730367 0
M  V30 12 N -0.462834 -0.0664584 -0.178608 0
M  V30 13 C 2.03833 -0.262072 -0.225683 0
M  V30 14 C 3.16902 0.402599 -0.342256 0
M  V30 15 N 3.38943 1.65798 -0.994584 0
M  V30 16 N 4.23972 -0.295224 0.290557 0
M  V30 17 C 3.78718 -1.61049 0.721651 0
M  V30 18 C 2.32529 -1.48349 0.525355 0
M  V30 19 O 1.48646 -2.31917 0.95363 0
M  V30 20 N 5.56052 0.121275 0.515612 0
M  V30 21 H -6.1399 0.726898 -0.845556 0
M  V30 22 H -3.94024 1.03405 -1.83513 0
M  V30 23 H -2.17043 -0.776336 1.5809 0
M  V30 24 H -4.41428 -1.07505 2.56812 0
M  V30 25 H -2.13517 1.3361 -2.70252 0
M  V30 26 H 3.50679 2.54961 -0.43359 0
M  V30 27 H 3.43744 1.69936 -2.02676 0
M  V30 28 H 4.07388 -1.73203 1.76993 0
M  V30 29 H 4.23449 -2.37181 0.044398 0
M  V30 30 H 6.22024 -0.364035 -0.162101 0
M  V30 31 H 5.60805 1.14625 0.446875 0
M  V30 END ATOM
M  V30 BEGIN BOND
M  V30 1 1 1 2
M  V30 2 2 2 3
M  V30 3 1 3 4
M  V30 4 2 4 5
M  V30 5 1 5 6
M  V30 6 2 6 7
M  V30 7 1 5 8
M  V30 8 2 8 9
M  V30 9 1 9 10
M  V30 10 1 10 11
M  V30 11 2 11 12
M  V30 12 1 11 13
M  V30 13 2 13 14
M  V30 14 1 14 15
M  V30 15 1 14 16
M  V30 16 1 16 17
M  V30 17 1 17 18
M  V30 18 2 18 19
M  V30 19 1 16 20
M  V30 20 1 7 2
M  V30 21 1 12 8
M  V30 22 1 18 13
M  V30 23 1 3 21
M  V30 24 1 4 22
M  V30 25 1 6 23
M  V30 26 1 7 24
M  V30 27 1 9 25
M  V30 28 1 15 26
M  V30 29 1 15 27
M  V30 30 1 17 28
M  V30 31 1 17 29
M  V30 32 1 20 30
M  V30 33 1 20 31
M  V30 END BOND
M  V30 END CTAB
M  END
