
     RDKit          3D

  0  0  0  0  0  0  0  0  0  0999 V3000
M  V30 BEGIN CTAB
M  V30 COUNTS 42 44 0 0 0
M  V30 BEGIN ATOM
M  V30 1 O -0.584255 -1.09036 0.9834 0
M  V30 2 C -0.921999 -0.0874474 1.60369 0
M  V30 3 N -2.13987 0.59743 1.50001 0
M  V30 4 C -3.23553 0.279368 0.665029 0
M  V30 5 C -3.2978 -0.840028 -0.114193 0
M  V30 6 C -4.41908 -1.08961 -0.921629 0
M  V30 7 C -5.4935 -0.230648 -0.965427 0
M  V30 8 C -5.43819 0.901909 -0.180872 0
M  V30 9 C -4.334 1.13059 0.602178 0
M  V30 10 S -6.87318 -0.593971 -1.96966 0
M  V30 11 O -6.53392 -1.55732 -3.04308 0
M  V30 12 O -7.43716 0.638429 -2.58643 0
M  V30 13 N -8.03694 -1.36989 -0.921715 0
M  V30 14 C 0.0807055 0.473365 2.58626 0
M  V30 15 S 0.9713 1.78952 1.7139 0
M  V30 16 C 2.00237 1.13865 0.420186 0
M  V30 17 N 1.76599 0.871048 -0.857455 0
M  V30 18 N 2.84141 0.414849 -1.44741 0
M  V30 19 C 3.85833 0.368468 -0.532397 0
M  V30 20 N 3.32734 0.815764 0.608019 0
M  V30 21 N 3.97362 0.959648 1.83347 0
M  V30 22 C 5.20991 -0.0860426 -0.833667 0
M  V30 23 C 6.23943 -0.134631 0.0557681 0
M  V30 24 C 7.51459 -0.590712 -0.340302 0
M  V30 25 C 7.74916 -0.995936 -1.62853 0
M  V30 26 N 6.72523 -0.943999 -2.50028 0
M  V30 27 C 5.51006 -0.510908 -2.13028 0
M  V30 28 H -2.29397 1.47982 2.12021 0
M  V30 29 H -2.52391 -1.58434 -0.164104 0
M  V30 30 H -4.43216 -1.98386 -1.52318 0
M  V30 31 H -6.27754 1.57394 -0.211744 0
M  V30 32 H -4.31335 2.03953 1.21903 0
M  V30 33 H -8.24409 -0.708647 -0.124897 0
M  V30 34 H -7.56438 -2.17999 -0.512627 0
M  V30 35 H -0.432241 0.848482 3.48017 0
M  V30 36 H 0.757828 -0.341375 2.9158 0
M  V30 37 H 3.88282 0.22347 2.54723 0
M  V30 38 H 4.53837 1.79923 2.02061 0
M  V30 39 H 6.09796 0.176115 1.08115 0
M  V30 40 H 8.3236 -0.624051 0.370899 0
M  V30 41 H 8.72965 -1.35403 -1.96175 0
M  V30 42 H 4.7274 -0.487359 -2.85539 0
M  V30 END ATOM
M  V30 BEGIN BOND
M  V30 1 2 1 2
M  V30 2 1 2 3
M  V30 3 1 3 4
M  V30 4 2 4 5
M  V30 5 1 5 6
M  V30 6 2 6 7
M  V30 7 1 7 8
M  V30 8 2 8 9
M  V30 9 1 7 10
M  V30 10 2 10 11
M  V30 11 2 10 12
M  V30 12 1 10 13
M  V30 13 1 2 14
M  V30 14 1 14 15
M  V30 15 1 15 16
M  V30 16 2 16 17
M  V30 17 1 17 18
M  V30 18 2 18 19
M  V30 19 1 19 20
M  V30 20 1 20 21
M  V30 21 1 19 22
M  V30 22 2 22 23
M  V30 23 1 23 24
M  V30 24 2 24 25
M  V30 25 1 25 26
M  V30 26 2 26 27
M  V30 27 1 9 4
M  V30 28 1 20 16
M  V30 29 1 27 22
M  V30 30 1 3 28
M  V30 31 1 5 29
M  V30 32 1 6 30
M  V30 33 1 8 31
M  V30 34 1 9 32
M  V30 35 1 13 33
M  V30 36 1 13 34
M  V30 37 1 14 35
M  V30 38 1 14 36
M  V30 39 1 21 37
M  V30 40 1 21 38
M  V30 41 1 23 39
M  V30 42 1 24 40
M  V30 43 1 25 41
M  V30 44 1 27 42
M  V30 END BOND
M  V30 END CTAB
M  END
