
     RDKit          3D

  0  0  0  0  0  0  0  0  0  0999 V3000
M  V30 BEGIN CTAB
M  V30 COUNTS 30 30 0 0 0
M  V30 BEGIN ATOM
M  V30 1 C 3.6624 0.54274 0.243127 0
M  V30 2 C 2.68179 1.44032 -0.43356 0
M  V30 3 C 1.23518 1.19656 -0.137936 0
M  V30 4 C 0.803441 -0.157802 -0.569043 0
M  V30 5 C -0.63892 -0.413275 -0.301507 0
M  V30 6 C -1.44499 0.528269 0.281518 0
M  V30 7 C -2.79572 0.291748 0.533156 0
M  V30 8 C -3.69102 1.2925 1.16273 0
M  V30 9 C -3.26877 -0.935886 0.163596 0
M  V30 10 N -2.47808 -1.8521 -0.405363 0
M  V30 11 C -1.16933 -1.63053 -0.652215 0
M  V30 12 N -0.403576 -2.65963 -1.25991 0
M  V30 13 N 1.57703 -1.15143 0.146414 0
M  V30 14 H 3.92675 -0.368899 -0.322678 0
M  V30 15 H 3.28838 0.326232 1.26867 0
M  V30 16 H 4.64867 1.10657 0.332673 0
M  V30 17 H 2.8797 1.3495 -1.54972 0
M  V30 18 H 2.92778 2.52229 -0.189052 0
M  V30 19 H 0.608568 2.01484 -0.571436 0
M  V30 20 H 1.13184 1.33961 0.980041 0
M  V30 21 H 0.952056 -0.284158 -1.64969 0
M  V30 22 H -1.07233 1.51188 0.579251 0
M  V30 23 H -3.32477 2.32686 0.933077 0
M  V30 24 H -4.72804 1.22857 0.763029 0
M  V30 25 H -3.75428 1.10586 2.25665 0
M  V30 26 H -4.32814 -1.17312 0.340275 0
M  V30 27 H -0.216743 -2.63826 -2.27571 0
M  V30 28 H -0.025835 -3.43867 -0.695592 0
M  V30 29 H 1.0163 -1.60914 0.891068 0
M  V30 30 H 2.00063 -1.81144 -0.517735 0
M  V30 END ATOM
M  V30 BEGIN BOND
M  V30 1 1 1 2
M  V30 2 1 2 3
M  V30 3 1 3 4
M  V30 4 1 4 5
M  V30 5 2 5 6
M  V30 6 1 6 7
M  V30 7 1 7 8
M  V30 8 2 7 9
M  V30 9 1 9 10
M  V30 10 2 10 11
M  V30 11 1 11 12
M  V30 12 1 4 13
M  V30 13 1 11 5
M  V30 14 1 1 14
M  V30 15 1 1 15
M  V30 16 1 1 16
M  V30 17 1 2 17
M  V30 18 1 2 18
M  V30 19 1 3 19
M  V30 20 1 3 20
M  V30 21 1 4 21
M  V30 22 1 6 22
M  V30 23 1 8 23
M  V30 24 1 8 24
M  V30 25 1 8 25
M  V30 26 1 9 26
M  V30 27 1 12 27
M  V30 28 1 12 28
M  V30 29 1 13 29
M  V30 30 1 13 30
M  V30 END BOND
M  V30 END CTAB
M  END
