
     RDKit          3D

  0  0  0  0  0  0  0  0  0  0999 V3000
M  V30 BEGIN CTAB
M  V30 COUNTS 88 89 0 0 0
M  V30 BEGIN ATOM
M  V30 1 N -12.1087 3.43614 1.67335 0
M  V30 2 S -10.5335 4.19241 1.65415 0
M  V30 3 O -10.56 5.38684 0.773476 0
M  V30 4 O -10.163 4.59327 3.07332 0
M  V30 5 C -9.43768 2.97757 1.0386 0
M  V30 6 C -8.68663 2.21308 1.93435 0
M  V30 7 C -7.84352 1.23036 1.43185 0
M  V30 8 C -7.68935 0.945595 0.124441 0
M  V30 9 C -6.84889 -0.127353 -0.425596 0
M  V30 10 N -5.47895 0.234784 -0.727068 0
M  V30 11 C -4.42587 0.0971578 0.217589 0
M  V30 12 O -4.89309 -0.336076 1.37105 0
M  V30 13 C -3.02159 0.300678 0.195322 0
M  V30 14 N -2.20237 0.557505 -0.867517 0
M  V30 15 C -0.805483 0.869578 -0.582189 0
M  V30 16 C -0.0755682 -0.229433 0.133308 0
M  V30 17 N -0.115959 -1.50972 -0.508026 0
M  V30 18 C 0.606483 -1.62069 -1.67775 0
M  V30 19 C 2.12047 -1.57735 -1.65639 0
M  V30 20 N 2.76506 -2.6411 -0.97545 0
M  V30 21 C 2.60791 -3.93059 -1.64622 0
M  V30 22 C 2.97236 -5.03188 -0.708369 0
M  V30 23 O 2.95049 -6.32915 -1.20286 0
M  V30 24 O 3.29195 -4.88949 0.489101 0
M  V30 25 C 4.17925 -2.42166 -0.903756 0
M  V30 26 C 4.56095 -1.4215 0.273759 0
M  V30 27 O 3.52121 -1.10181 0.851326 0
M  V30 28 N 5.84965 -1.15863 0.413166 0
M  V30 29 C 7.17806 -0.887369 0.557318 0
M  V30 30 C 7.67687 0.463717 0.792715 0
M  V30 31 C 7.87823 1.39495 -0.166493 0
M  V30 32 C 8.45313 2.65976 0.134212 0
M  V30 33 C 8.81497 2.95745 1.41292 0
M  V30 34 C 8.60611 2.01504 2.38396 0
M  V30 35 C 8.05617 0.793789 2.1108 0
M  V30 36 S 9.57946 4.48626 1.85796 0
M  V30 37 N 11.2259 4.23313 2.22962 0
M  V30 38 O 8.8962 5.06434 3.03514 0
M  V30 39 O 9.40716 5.43641 0.719613 0
M  V30 40 C -0.170661 -2.50701 0.489098 0
M  V30 41 C -0.718696 -3.83071 0.182769 0
M  V30 42 O -1.06138 -4.19004 -1.10316 0
M  V30 43 O -0.896863 -4.70393 1.08185 0
M  V30 44 C -2.53603 0.613169 -2.2174 0
M  V30 45 C -2.90875 -0.645118 -2.89581 0
M  V30 46 O -3.15294 -1.85585 -2.29249 0
M  V30 47 O -3.02909 -0.644951 -4.1813 0
M  V30 48 C -8.44492 1.71474 -0.800385 0
M  V30 49 C -9.28077 2.69108 -0.297069 0
M  V30 50 H -12.7497 3.87362 2.34878 0
M  V30 51 H -12.0054 2.4241 1.95614 0
M  V30 52 H -8.75767 2.3892 2.97483 0
M  V30 53 H -7.2813 0.631543 2.13835 0
M  V30 54 H -6.78411 -0.917163 0.392708 0
M  V30 55 H -7.36889 -0.567062 -1.26123 0
M  V30 56 H -5.31258 0.652732 -1.65282 0
M  V30 57 H -2.50049 -0.560567 0.789474 0
M  V30 58 H -2.74849 1.156 0.986686 0
M  V30 59 H -0.655942 1.87331 -0.180999 0
M  V30 60 H -0.323535 0.908027 -1.61809 0
M  V30 61 H -0.553896 -0.326255 1.13844 0
M  V30 62 H 0.968029 0.0738028 0.392434 0
M  V30 63 H 0.286578 -0.916075 -2.4921 0
M  V30 64 H 0.346735 -2.62186 -2.13655 0
M  V30 65 H 2.37876 -1.78713 -2.76656 0
M  V30 66 H 2.54531 -0.572495 -1.50912 0
M  V30 67 H 1.62698 -4.12288 -2.03009 0
M  V30 68 H 3.32078 -4.06988 -2.51179 0
M  V30 69 H 1.98894 -6.71139 -1.31113 0
M  V30 70 H 4.55206 -1.95228 -1.81362 0
M  V30 71 H 4.74 -3.32867 -0.594466 0
M  V30 72 H 5.58551 -0.484934 1.60053 0
M  V30 73 H 7.74424 -1.30392 -0.372016 0
M  V30 74 H 7.61585 -1.56202 1.37089 0
M  V30 75 H 7.60914 1.21754 -1.19394 0
M  V30 76 H 8.59144 3.38909 -0.655906 0
M  V30 77 H 8.91569 2.25524 3.40078 0
M  V30 78 H 7.89044 0.0401999 2.85967 0
M  V30 79 H 11.4686 3.28329 2.5054 0
M  V30 80 H 11.8342 4.751 1.60728 0
M  V30 81 H -0.745126 -2.08707 1.37257 0
M  V30 82 H 0.865596 -2.66789 0.957888 0
M  V30 83 H -0.47867 -4.903 -1.5938 0
M  V30 84 H -1.59107 0.940859 -2.77618 0
M  V30 85 H -3.24786 1.43996 -2.48562 0
M  V30 86 H -3.66358 -2.60944 -2.77738 0
M  V30 87 H -8.34239 1.52113 -1.85009 0
M  V30 88 H -9.87199 3.28392 -0.999278 0
M  V30 END ATOM
M  V30 BEGIN BOND
M  V30 1 1 1 2
M  V30 2 2 2 3
M  V30 3 2 2 4
M  V30 4 1 2 5
M  V30 5 2 5 6
M  V30 6 1 6 7
M  V30 7 2 7 8
M  V30 8 1 8 9
M  V30 9 1 9 10
M  V30 10 1 10 11
M  V30 11 2 11 12
M  V30 12 1 11 13
M  V30 13 1 13 14
M  V30 14 1 14 15
M  V30 15 1 15 16
M  V30 16 1 16 17
M  V30 17 1 17 18
M  V30 18 1 18 19
M  V30 19 1 19 20
M  V30 20 1 20 21
M  V30 21 1 21 22
M  V30 22 1 22 23
M  V30 23 2 22 24
M  V30 24 1 20 25
M  V30 25 1 25 26
M  V30 26 2 26 27
M  V30 27 1 26 28
M  V30 28 1 28 29
M  V30 29 1 29 30
M  V30 30 2 30 31
M  V30 31 1 31 32
M  V30 32 2 32 33
M  V30 33 1 33 34
M  V30 34 2 34 35
M  V30 35 1 33 36
M  V30 36 1 36 37
M  V30 37 2 36 38
M  V30 38 2 36 39
M  V30 39 1 17 40
M  V30 40 1 40 41
M  V30 41 1 41 42
M  V30 42 2 41 43
M  V30 43 1 14 44
M  V30 44 1 44 45
M  V30 45 1 45 46
M  V30 46 2 45 47
M  V30 47 1 8 48
M  V30 48 2 48 49
M  V30 49 1 49 5
M  V30 50 1 35 30
M  V30 51 1 1 50
M  V30 52 1 1 51
M  V30 53 1 6 52
M  V30 54 1 7 53
M  V30 55 1 9 54
M  V30 56 1 9 55
M  V30 57 1 10 56
M  V30 58 1 13 57
M  V30 59 1 13 58
M  V30 60 1 15 59
M  V30 61 1 15 60
M  V30 62 1 16 61
M  V30 63 1 16 62
M  V30 64 1 18 63
M  V30 65 1 18 64
M  V30 66 1 19 65
M  V30 67 1 19 66
M  V30 68 1 21 67
M  V30 69 1 21 68
M  V30 70 1 23 69
M  V30 71 1 25 70
M  V30 72 1 25 71
M  V30 73 1 28 72
M  V30 74 1 29 73
M  V30 75 1 29 74
M  V30 76 1 31 75
M  V30 77 1 32 76
M  V30 78 1 34 77
M  V30 79 1 35 78
M  V30 80 1 37 79
M  V30 81 1 37 80
M  V30 82 1 40 81
M  V30 83 1 40 82
M  V30 84 1 42 83
M  V30 85 1 44 84
M  V30 86 1 44 85
M  V30 87 1 46 86
M  V30 88 1 48 87
M  V30 89 1 49 88
M  V30 END BOND
M  V30 END CTAB
M  END
