
     RDKit          3D

  0  0  0  0  0  0  0  0  0  0999 V3000
M  V30 BEGIN CTAB
M  V30 COUNTS 42 43 0 0 0
M  V30 BEGIN ATOM
M  V30 1 N 3.25727 -0.826896 2.04206 0
M  V30 2 C 2.81914 -1.58902 0.917835 0
M  V30 3 C 2.39911 -0.744771 -0.264342 0
M  V30 4 C 3.52942 0.121792 -0.764887 0
M  V30 5 C 3.25104 1.01604 -1.94113 0
M  V30 6 C 3.53073 1.58005 -0.589188 0
M  V30 7 N 1.21657 0.0200101 0.0326696 0
M  V30 8 C 0.0177684 -0.186137 -0.657889 0
M  V30 9 O 0.0316642 -1.083 -1.5691 0
M  V30 10 C -1.26719 0.515031 -0.45345 0
M  V30 11 C -2.22465 0.269443 -1.60601 0
M  V30 12 C -2.88776 -1.04335 -1.44039 0
M  V30 13 C -3.729 -0.987656 -0.182095 0
M  V30 14 C -2.89599 -0.737555 1.03911 0
M  V30 15 C -1.89336 0.366616 0.876437 0
M  V30 16 C -2.55967 1.70489 1.25574 0
M  V30 17 N -0.882121 0.162888 1.88936 0
M  V30 18 H 3.21923 -1.44604 2.8854 0
M  V30 19 H 4.21102 -0.417035 1.90245 0
M  V30 20 H 1.93809 -2.19472 1.22433 0
M  V30 21 H 3.60808 -2.31834 0.64701 0
M  V30 22 H 2.14496 -1.4508 -1.08017 0
M  V30 23 H 4.52469 -0.368772 -0.790654 0
M  V30 24 H 2.19018 1.14906 -2.27886 0
M  V30 25 H 3.99426 1.14397 -2.73421 0
M  V30 26 H 4.52342 2.09945 -0.473133 0
M  V30 27 H 2.72466 2.1225 -0.0500178 0
M  V30 28 H 1.27731 0.741891 0.767558 0
M  V30 29 H -1.0117 1.61651 -0.572503 0
M  V30 30 H -2.97667 1.06877 -1.56865 0
M  V30 31 H -1.62683 0.373318 -2.53285 0
M  V30 32 H -2.24204 -1.91746 -1.46725 0
M  V30 33 H -3.62614 -1.17874 -2.27422 0
M  V30 34 H -4.20874 -1.97996 -0.0669764 0
M  V30 35 H -4.51376 -0.24198 -0.299803 0
M  V30 36 H -2.44247 -1.69624 1.36796 0
M  V30 37 H -3.59341 -0.432649 1.85703 0
M  V30 38 H -2.62666 1.81328 2.34242 0
M  V30 39 H -3.50473 1.76619 0.714892 0
M  V30 40 H -1.84452 2.48335 0.880268 0
M  V30 41 H -0.534017 1.06288 2.29269 0
M  V30 42 H -1.31718 -0.356812 2.68265 0
M  V30 END ATOM
M  V30 BEGIN BOND
M  V30 1 1 1 2
M  V30 2 1 2 3
M  V30 3 1 3 4
M  V30 4 1 4 5
M  V30 5 1 5 6
M  V30 6 1 3 7
M  V30 7 1 7 8
M  V30 8 2 8 9
M  V30 9 1 8 10
M  V30 10 1 10 11
M  V30 11 1 11 12
M  V30 12 1 12 13
M  V30 13 1 13 14
M  V30 14 1 14 15
M  V30 15 1 15 16
M  V30 16 1 15 17
M  V30 17 1 6 4
M  V30 18 1 15 10
M  V30 19 1 1 18
M  V30 20 1 1 19
M  V30 21 1 2 20
M  V30 22 1 2 21
M  V30 23 1 3 22
M  V30 24 1 4 23
M  V30 25 1 5 24
M  V30 26 1 5 25
M  V30 27 1 6 26
M  V30 28 1 6 27
M  V30 29 1 7 28
M  V30 30 1 10 29
M  V30 31 1 11 30
M  V30 32 1 11 31
M  V30 33 1 12 32
M  V30 34 1 12 33
M  V30 35 1 13 34
M  V30 36 1 13 35
M  V30 37 1 14 36
M  V30 38 1 14 37
M  V30 39 1 16 38
M  V30 40 1 16 39
M  V30 41 1 16 40
M  V30 42 1 17 41
M  V30 43 1 17 42
M  V30 END BOND
M  V30 END CTAB
M  END
