
     RDKit          3D

  0  0  0  0  0  0  0  0  0  0999 V3000
M  V30 BEGIN CTAB
M  V30 COUNTS 25 26 0 0 0
M  V30 BEGIN ATOM
M  V30 1 N 3.69938 -1.63799 -1.2892 0
M  V30 2 C 2.79049 -0.7391 -0.685695 0
M  V30 3 N 2.87499 -0.322029 0.589666 0
M  V30 4 N 1.87027 0.493457 0.782856 0
M  V30 5 C 1.1102 0.639372 -0.323647 0
M  V30 6 N 1.70135 -0.145401 -1.24836 0
M  V30 7 C -0.10312 1.47016 -0.509962 0
M  V30 8 C -1.36754 0.762486 -0.183749 0
M  V30 9 N -2.56963 1.54762 -0.355085 0
M  V30 10 C -1.56483 -0.589426 -0.834919 0
M  V30 11 C -2.27984 -1.00677 0.459024 0
M  V30 12 C -1.41363 0.0546974 1.15114 0
M  V30 13 H 3.87503 -2.58579 -0.916859 0
M  V30 14 H 4.20963 -1.33469 -2.1384 0
M  V30 15 H 3.6318 -0.627496 1.26541 0
M  V30 16 H -0.166109 1.86016 -1.53973 0
M  V30 17 H -0.057245 2.37909 0.154969 0
M  V30 18 H -3.10261 1.66265 0.529238 0
M  V30 19 H -2.41382 2.45315 -0.826586 0
M  V30 20 H -2.24514 -0.576958 -1.71617 0
M  V30 21 H -0.646924 -1.1806 -0.968266 0
M  V30 22 H -3.36278 -0.739836 0.44369 0
M  V30 23 H -2.07353 -2.03398 0.755123 0
M  V30 24 H -1.93427 0.622701 1.92996 0
M  V30 25 H -0.462134 -0.425467 1.46763 0
M  V30 END ATOM
M  V30 BEGIN BOND
M  V30 1 1 1 2
M  V30 2 1 2 3
M  V30 3 1 3 4
M  V30 4 2 4 5
M  V30 5 1 5 6
M  V30 6 1 5 7
M  V30 7 1 7 8
M  V30 8 1 8 9
M  V30 9 1 8 10
M  V30 10 1 10 11
M  V30 11 1 11 12
M  V30 12 2 6 2
M  V30 13 1 12 8
M  V30 14 1 1 13
M  V30 15 1 1 14
M  V30 16 1 3 15
M  V30 17 1 7 16
M  V30 18 1 7 17
M  V30 19 1 9 18
M  V30 20 1 9 19
M  V30 21 1 10 20
M  V30 22 1 10 21
M  V30 23 1 11 22
M  V30 24 1 11 23
M  V30 25 1 12 24
M  V30 26 1 12 25
M  V30 END BOND
M  V30 END CTAB
M  END
