
     RDKit          3D

  0  0  0  0  0  0  0  0  0  0999 V3000
M  V30 BEGIN CTAB
M  V30 COUNTS 28 29 0 0 0
M  V30 BEGIN ATOM
M  V30 1 N 4.83481 -1.06846 -1.26906 0
M  V30 2 C 3.72513 -0.4671 -0.610652 0
M  V30 3 C 3.1419 0.70497 -1.04612 0
M  V30 4 C 2.05982 1.23731 -0.354767 0
M  V30 5 C 1.53896 0.636348 0.760609 0
M  V30 6 C 2.11876 -0.536468 1.2005 0
M  V30 7 C 3.1939 -1.06587 0.514024 0
M  V30 8 S 0.16066 1.38097 1.58039 0
M  V30 9 O 0.211531 1.04892 3.08533 0
M  V30 10 C -1.37256 0.769961 0.912655 0
M  V30 11 C -1.99429 -0.346377 1.43204 0
M  V30 12 C -3.18357 -0.828357 0.921418 0
M  V30 13 C -3.80831 -0.20376 -0.145354 0
M  V30 14 N -5.03276 -0.685244 -0.684474 0
M  V30 15 C -3.18345 0.912737 -0.662372 0
M  V30 16 C -1.99546 1.39114 -0.149528 0
M  V30 17 H 4.62702 -1.69719 -2.07634 0
M  V30 18 H 5.82764 -0.902875 -0.974876 0
M  V30 19 H 3.54074 1.19308 -1.9257 0
M  V30 20 H 1.60106 2.16592 -0.703397 0
M  V30 21 H 1.70974 -1.01221 2.07988 0
M  V30 22 H 3.6528 -2.00118 0.868623 0
M  V30 23 H -1.50249 -0.839289 2.27293 0
M  V30 24 H -3.66172 -1.69849 1.33141 0
M  V30 25 H -5.0724 -1.58071 -1.22042 0
M  V30 26 H -5.94609 -0.176833 -0.57538 0
M  V30 27 H -3.68037 1.40547 -1.50718 0
M  V30 28 H -1.511 2.26361 -0.556607 0
M  V30 END ATOM
M  V30 BEGIN BOND
M  V30 1 1 1 2
M  V30 2 2 2 3
M  V30 3 1 3 4
M  V30 4 2 4 5
M  V30 5 1 5 6
M  V30 6 2 6 7
M  V30 7 1 5 8
M  V30 8 2 8 9
M  V30 9 1 8 10
M  V30 10 2 10 11
M  V30 11 1 11 12
M  V30 12 2 12 13
M  V30 13 1 13 14
M  V30 14 1 13 15
M  V30 15 2 15 16
M  V30 16 1 7 2
M  V30 17 1 16 10
M  V30 18 1 1 17
M  V30 19 1 1 18
M  V30 20 1 3 19
M  V30 21 1 4 20
M  V30 22 1 6 21
M  V30 23 1 7 22
M  V30 24 1 11 23
M  V30 25 1 12 24
M  V30 26 1 14 25
M  V30 27 1 14 26
M  V30 28 1 15 27
M  V30 29 1 16 28
M  V30 END BOND
M  V30 END CTAB
M  END
