
     RDKit          3D

  0  0  0  0  0  0  0  0  0  0999 V3000
M  V30 BEGIN CTAB
M  V30 COUNTS 27 27 0 0 0
M  V30 BEGIN ATOM
M  V30 1 N 5.31289 0.232944 -1.42091 0
M  V30 2 C 4.08095 0.0684602 -0.720204 0
M  V30 3 N 3.79465 0.303077 0.549317 0
M  V30 4 C 2.60553 0.090679 1.00821 0
M  V30 5 C 1.66032 -0.384015 0.132382 0
M  V30 6 S 2.55543 -0.495888 -1.31531 0
M  V30 7 C 0.23013 -0.700707 0.43592 0
M  V30 8 C -0.646449 0.216935 -0.387858 0
M  V30 9 C -2.10847 -0.0345251 -0.143207 0
M  V30 10 N -2.47721 -1.40375 -0.484107 0
M  V30 11 C -2.8989 0.963802 -0.962692 0
M  V30 12 C -2.48752 0.164408 1.30847 0
M  V30 13 F -0.0276997 -2.02007 0.177673 0
M  V30 14 H 6.14854 -0.242207 -1.07314 0
M  V30 15 H 5.33328 0.822415 -2.25562 0
M  V30 16 H 2.34254 0.282293 2.07743 0
M  V30 17 H 0.0537108 -0.489818 1.48702 0
M  V30 18 H -0.465756 0.0750114 -1.47189 0
M  V30 19 H -0.432719 1.25918 -0.0762154 0
M  V30 20 H -2.02111 -1.71401 -1.3683 0
M  V30 21 H -3.50905 -1.3808 -0.666147 0
M  V30 22 H -3.01425 1.93436 -0.413661 0
M  V30 23 H -2.43017 1.18555 -1.9394 0
M  V30 24 H -3.93467 0.57297 -1.089 0
M  V30 25 H -1.79562 0.902789 1.75982 0
M  V30 26 H -3.50818 0.582696 1.4001 0
M  V30 27 H -2.3602 -0.791793 1.85343 0
M  V30 END ATOM
M  V30 BEGIN BOND
M  V30 1 1 1 2
M  V30 2 2 2 3
M  V30 3 1 3 4
M  V30 4 2 4 5
M  V30 5 1 5 6
M  V30 6 1 5 7
M  V30 7 1 7 8
M  V30 8 1 8 9
M  V30 9 1 9 10
M  V30 10 1 9 11
M  V30 11 1 9 12
M  V30 12 1 7 13
M  V30 13 1 6 2
M  V30 14 1 1 14
M  V30 15 1 1 15
M  V30 16 1 4 16
M  V30 17 1 7 17
M  V30 18 1 8 18
M  V30 19 1 8 19
M  V30 20 1 10 20
M  V30 21 1 10 21
M  V30 22 1 11 22
M  V30 23 1 11 23
M  V30 24 1 11 24
M  V30 25 1 12 25
M  V30 26 1 12 26
M  V30 27 1 12 27
M  V30 END BOND
M  V30 END CTAB
M  END
