
     RDKit          3D

  0  0  0  0  0  0  0  0  0  0999 V3000
M  V30 BEGIN CTAB
M  V30 COUNTS 35 36 0 0 0
M  V30 BEGIN ATOM
M  V30 1 C 6.12554 2.25327 1.72309 0
M  V30 2 O 4.87102 1.98395 1.07996 0
M  V30 3 C 4.49409 0.695624 0.748409 0
M  V30 4 O 5.28477 -0.239458 1.02757 0
M  V30 5 C 3.23628 0.360413 0.0961106 0
M  V30 6 C 2.89964 -0.947344 -0.197925 0
M  V30 7 C 1.71124 -1.2664 -0.817209 0
M  V30 8 N 1.43077 -2.63959 -1.08709 0
M  V30 9 C 0.816104 -0.252964 -1.16149 0
M  V30 10 C 1.11136 1.0496 -0.889487 0
M  V30 11 C 2.32271 1.32208 -0.262817 0
M  V30 12 Cl 0.0769109 2.39421 -1.31647 0
M  V30 13 S -0.668235 -0.749537 -1.97186 0
M  V30 14 C -1.9795 -1.22509 -0.865679 0
M  V30 15 N -2.16253 -2.48036 -0.338768 0
M  V30 16 N -3.22431 -2.496 0.405309 0
M  V30 17 C -3.77239 -1.24661 0.388762 0
M  V30 18 N -2.97891 -0.508649 -0.398908 0
M  V30 19 N -3.21105 0.853234 -0.685526 0
M  V30 20 C -4.99312 -0.946572 1.14566 0
M  V30 21 C -5.49525 0.454403 1.01065 0
M  V30 22 H 5.87588 2.74714 2.69182 0
M  V30 23 H 6.71511 1.32009 1.8582 0
M  V30 24 H 6.71227 2.99357 1.14912 0
M  V30 25 H 3.63898 -1.69539 0.0948487 0
M  V30 26 H 0.817324 -3.16744 -0.433468 0
M  V30 27 H 1.86867 -3.05564 -1.95222 0
M  V30 28 H 2.56342 2.34942 -0.0422821 0
M  V30 29 H -3.03358 1.61765 -0.0121985 0
M  V30 30 H -3.58678 1.05096 -1.66133 0
M  V30 31 H -4.74579 -1.1629 2.22779 0
M  V30 32 H -5.7801 -1.68988 0.819406 0
M  V30 33 H -5.6646 0.708028 -0.0515137 0
M  V30 34 H -4.78231 1.14597 1.52657 0
M  V30 35 H -6.49361 0.470253 1.55672 0
M  V30 END ATOM
M  V30 BEGIN BOND
M  V30 1 1 1 2
M  V30 2 1 2 3
M  V30 3 2 3 4
M  V30 4 1 3 5
M  V30 5 2 5 6
M  V30 6 1 6 7
M  V30 7 1 7 8
M  V30 8 2 7 9
M  V30 9 1 9 10
M  V30 10 2 10 11
M  V30 11 1 10 12
M  V30 12 1 9 13
M  V30 13 1 13 14
M  V30 14 2 14 15
M  V30 15 1 15 16
M  V30 16 2 16 17
M  V30 17 1 17 18
M  V30 18 1 18 19
M  V30 19 1 17 20
M  V30 20 1 20 21
M  V30 21 1 11 5
M  V30 22 1 18 14
M  V30 23 1 1 22
M  V30 24 1 1 23
M  V30 25 1 1 24
M  V30 26 1 6 25
M  V30 27 1 8 26
M  V30 28 1 8 27
M  V30 29 1 11 28
M  V30 30 1 19 29
M  V30 31 1 19 30
M  V30 32 1 20 31
M  V30 33 1 20 32
M  V30 34 1 21 33
M  V30 35 1 21 34
M  V30 36 1 21 35
M  V30 END BOND
M  V30 END CTAB
M  END
