
     RDKit          3D

  0  0  0  0  0  0  0  0  0  0999 V3000
M  V30 BEGIN CTAB
M  V30 COUNTS 32 33 0 0 0
M  V30 BEGIN ATOM
M  V30 1 C -3.12598 1.56913 -0.547321 0
M  V30 2 C -1.6897 1.43651 -0.236548 0
M  V30 3 C -1.06178 0.101132 -0.433648 0
M  V30 4 C -1.70979 -1.00338 0.4186 0
M  V30 5 C -2.47227 -1.40517 -0.821784 0
M  V30 6 C -1.48034 -0.631392 -1.62507 0
M  V30 7 C 0.374435 0.119283 -0.0773711 0
M  V30 8 N 0.999031 1.21623 0.374864 0
M  V30 9 C 2.27541 0.951812 0.619797 0
M  V30 10 N 2.47417 -0.337571 0.319561 0
M  V30 11 C 1.31447 -0.861964 -0.11034 0
M  V30 12 N 1.11408 -2.17804 -0.521189 0
M  V30 13 N 3.68165 -1.04403 0.427644 0
M  V30 14 C 3.34578 1.87157 1.13467 0
M  V30 15 H -3.37434 2.66922 -0.452414 0
M  V30 16 H -3.35811 1.29502 -1.57283 0
M  V30 17 H -3.80982 1.08074 0.173071 0
M  V30 18 H -1.40924 1.78493 0.787904 0
M  V30 19 H -1.13589 2.14847 -0.917887 0
M  V30 20 H -2.43614 -0.603443 1.15849 0
M  V30 21 H -1.03005 -1.74178 0.835415 0
M  V30 22 H -3.53078 -1.04753 -0.879489 0
M  V30 23 H -2.40913 -2.52473 -0.95441 0
M  V30 24 H -2.00252 0.0341602 -2.35842 0
M  V30 25 H -0.743626 -1.21399 -2.19939 0
M  V30 26 H 1.23118 -2.40483 -1.55414 0
M  V30 27 H 0.858151 -2.99427 0.0656539 0
M  V30 28 H 3.70685 -2.08716 0.451148 0
M  V30 29 H 4.58627 -0.523721 0.486928 0
M  V30 30 H 3.91049 2.26492 0.253479 0
M  V30 31 H 2.88346 2.7399 1.64237 0
M  V30 32 H 4.02408 1.31996 1.82163 0
M  V30 END ATOM
M  V30 BEGIN BOND
M  V30 1 1 1 2
M  V30 2 1 2 3
M  V30 3 1 3 4
M  V30 4 1 4 5
M  V30 5 1 5 6
M  V30 6 1 3 7
M  V30 7 1 7 8
M  V30 8 2 8 9
M  V30 9 1 9 10
M  V30 10 1 10 11
M  V30 11 1 11 12
M  V30 12 1 10 13
M  V30 13 1 9 14
M  V30 14 1 6 3
M  V30 15 2 11 7
M  V30 16 1 1 15
M  V30 17 1 1 16
M  V30 18 1 1 17
M  V30 19 1 2 18
M  V30 20 1 2 19
M  V30 21 1 4 20
M  V30 22 1 4 21
M  V30 23 1 5 22
M  V30 24 1 5 23
M  V30 25 1 6 24
M  V30 26 1 6 25
M  V30 27 1 12 26
M  V30 28 1 12 27
M  V30 29 1 13 28
M  V30 30 1 13 29
M  V30 31 1 14 30
M  V30 32 1 14 31
M  V30 33 1 14 32
M  V30 END BOND
M  V30 END CTAB
M  END
