
     RDKit          3D

  0  0  0  0  0  0  0  0  0  0999 V3000
M  V30 BEGIN CTAB
M  V30 COUNTS 16 16 0 0 0
M  V30 BEGIN ATOM
M  V30 1 Cl -0.532596 3.5879 -0.182217 0
M  V30 2 C -0.261064 1.84315 -0.0913918 0
M  V30 3 C 1.0104 1.32595 -0.0167848 0
M  V30 4 C 1.20752 -0.0372601 0.0535485 0
M  V30 5 N 2.5048 -0.621892 0.132276 0
M  V30 6 C 0.111358 -0.885982 0.048534 0
M  V30 7 C -1.1567 -0.347118 -0.0269202 0
M  V30 8 C -1.35487 1.01007 -0.0970277 0
M  V30 9 N -2.2413 -1.28015 -0.0275881 0
M  V30 10 I 0.430186 -2.97523 0.157045 0
M  V30 11 H 1.8827 1.96185 -0.0109464 0
M  V30 12 H 2.93457 -0.92014 1.05129 0
M  V30 13 H 3.06639 -0.769984 -0.730052 0
M  V30 14 H -2.37133 1.37472 -0.154442 0
M  V30 15 H -2.16816 -2.06853 -0.704038 0
M  V30 16 H -3.0619 -1.19735 0.598716 0
M  V30 END ATOM
M  V30 BEGIN BOND
M  V30 1 1 1 2
M  V30 2 2 2 3
M  V30 3 1 3 4
M  V30 4 1 4 5
M  V30 5 2 4 6
M  V30 6 1 6 7
M  V30 7 2 7 8
M  V30 8 1 7 9
M  V30 9 1 6 10
M  V30 10 1 8 2
M  V30 11 1 3 11
M  V30 12 1 5 12
M  V30 13 1 5 13
M  V30 14 1 8 14
M  V30 15 1 9 15
M  V30 16 1 9 16
M  V30 END BOND
M  V30 END CTAB
M  END
