
     RDKit          3D

  0  0  0  0  0  0  0  0  0  0999 V3000
M  V30 BEGIN CTAB
M  V30 COUNTS 20 21 0 0 0
M  V30 BEGIN ATOM
M  V30 1 N -3.74677 -1.25776 0.296972 0
M  V30 2 C -2.44548 -0.709958 0.190113 0
M  V30 3 N -2.2652 0.641256 0.118213 0
M  V30 4 C -1.0379 1.18218 0.0163419 0
M  V30 5 N -0.83283 2.59274 -0.0597852 0
M  V30 6 C 0.0865815 0.388482 -0.01927 0
M  V30 7 C -0.0934373 -0.975211 0.0531712 0
M  V30 8 N -1.34322 -1.48289 0.154975 0
M  V30 9 N 1.13282 -1.51858 -9.53221e-05 0
M  V30 10 C 2.06329 -0.560186 -0.101875 0
M  V30 11 N 1.40903 0.602512 -0.112529 0
M  V30 12 C 3.51872 -0.845985 -0.181173 0
M  V30 13 H -4.1095 -1.58522 1.21182 0
M  V30 14 H -4.36161 -1.34254 -0.533992 0
M  V30 15 H -1.14599 3.1627 0.770264 0
M  V30 16 H -0.400293 3.04878 -0.880438 0
M  V30 17 H 1.8648 1.53631 -0.183174 0
M  V30 18 H 3.83229 -1.27202 0.8023 0
M  V30 19 H 3.74674 -1.6545 -0.925788 0
M  V30 20 H 4.12796 0.0498849 -0.356573 0
M  V30 END ATOM
M  V30 BEGIN BOND
M  V30 1 1 1 2
M  V30 2 2 2 3
M  V30 3 1 3 4
M  V30 4 1 4 5
M  V30 5 2 4 6
M  V30 6 1 6 7
M  V30 7 2 7 8
M  V30 8 1 7 9
M  V30 9 2 9 10
M  V30 10 1 10 11
M  V30 11 1 10 12
M  V30 12 1 8 2
M  V30 13 1 11 6
M  V30 14 1 1 13
M  V30 15 1 1 14
M  V30 16 1 5 15
M  V30 17 1 5 16
M  V30 18 1 11 17
M  V30 19 1 12 18
M  V30 20 1 12 19
M  V30 21 1 12 20
M  V30 END BOND
M  V30 END CTAB
M  END
