
     RDKit          3D

  0  0  0  0  0  0  0  0  0  0999 V3000
M  V30 BEGIN CTAB
M  V30 COUNTS 39 40 0 0 0
M  V30 BEGIN ATOM
M  V30 1 N 6.90509 1.12224 0.477149 0
M  V30 2 C 6.45855 1.33751 -0.840796 0
M  V30 3 N 5.2778 1.04455 -1.17805 0
M  V30 4 C 4.33049 0.479005 -0.242045 0
M  V30 5 S 4.57173 0.105506 1.41002 0
M  V30 6 C 3.01407 -0.498502 1.75991 0
M  V30 7 C 2.38208 -0.370303 0.538206 0
M  V30 8 N 3.08634 0.125281 -0.432824 0
M  V30 9 C 0.975732 -0.789805 0.3935 0
M  V30 10 C 0.361997 -0.659265 -0.820455 0
M  V30 11 C -0.968663 -1.03876 -1.02081 0
M  V30 12 C -1.69166 -1.55999 0.0265436 0
M  V30 13 C -1.07843 -1.69966 1.27347 0
M  V30 14 C 0.253289 -1.3063 1.42418 0
M  V30 15 C -3.10064 -1.98442 -0.103246 0
M  V30 16 C -4.06765 -0.914866 0.23414 0
M  V30 17 N -3.91147 0.226191 -0.621012 0
M  V30 18 S -5.0688 1.47423 -0.207398 0
M  V30 19 O -4.88172 1.9201 1.2126 0
M  V30 20 O -4.77501 2.64279 -1.09937 0
M  V30 21 C -6.69203 0.822413 -0.44734 0
M  V30 22 N 7.3422 1.88506 -1.78669 0
M  V30 23 H 7.24472 0.234181 0.866115 0
M  V30 24 H 6.88801 1.95483 1.12478 0
M  V30 25 H 2.60017 -0.8925 2.70585 0
M  V30 26 H 0.926334 -0.244918 -1.6656 0
M  V30 27 H -1.45389 -0.939092 -1.96772 0
M  V30 28 H -1.58562 -2.09903 2.13207 0
M  V30 29 H 0.700376 -1.42552 2.39732 0
M  V30 30 H -3.28121 -2.29295 -1.16996 0
M  V30 31 H -3.21823 -2.90278 0.528801 0
M  V30 32 H -5.10772 -1.31503 0.185236 0
M  V30 33 H -3.87947 -0.579958 1.29217 0
M  V30 34 H -2.93478 0.623426 -0.514033 0
M  V30 35 H -7.41405 1.6466 -0.248619 0
M  V30 36 H -6.77834 0.488738 -1.51347 0
M  V30 37 H -6.81662 -0.0369886 0.215144 0
M  V30 38 H 7.53196 2.9212 -1.81418 0
M  V30 39 H 7.85506 1.32475 -2.50362 0
M  V30 END ATOM
M  V30 BEGIN BOND
M  V30 1 1 1 2
M  V30 2 2 2 3 CFG=2
M  V30 3 1 3 4
M  V30 4 1 4 5
M  V30 5 1 5 6
M  V30 6 2 6 7
M  V30 7 1 7 8
M  V30 8 1 7 9
M  V30 9 2 9 10
M  V30 10 1 10 11
M  V30 11 2 11 12
M  V30 12 1 12 13
M  V30 13 2 13 14
M  V30 14 1 12 15
M  V30 15 1 15 16
M  V30 16 1 16 17
M  V30 17 1 17 18
M  V30 18 2 18 19
M  V30 19 2 18 20
M  V30 20 1 18 21
M  V30 21 1 2 22
M  V30 22 2 8 4
M  V30 23 1 14 9
M  V30 24 1 1 23
M  V30 25 1 1 24
M  V30 26 1 6 25
M  V30 27 1 10 26
M  V30 28 1 11 27
M  V30 29 1 13 28
M  V30 30 1 14 29
M  V30 31 1 15 30
M  V30 32 1 15 31
M  V30 33 1 16 32
M  V30 34 1 16 33
M  V30 35 1 17 34
M  V30 36 1 21 35
M  V30 37 1 21 36
M  V30 38 1 21 37
M  V30 39 1 22 38
M  V30 40 1 22 39
M  V30 END BOND
M  V30 END CTAB
M  END
