
     RDKit          3D

  0  0  0  0  0  0  0  0  0  0999 V3000
M  V30 BEGIN CTAB
M  V30 COUNTS 34 35 0 0 0
M  V30 BEGIN ATOM
M  V30 1 N 2.31204 -3.11084 0.177383 0
M  V30 2 C 2.15528 -1.74691 -0.22976 0
M  V30 3 C 3.2354 -0.894397 -0.311567 0
M  V30 4 C 3.10202 0.422318 -0.701969 0
M  V30 5 C 1.86939 0.940787 -1.02881 0
M  V30 6 C 0.778496 0.101108 -0.95236 0
M  V30 7 C 0.917054 -1.23153 -0.556387 0
M  V30 8 N -0.20716 -2.09544 -0.488507 0
M  V30 9 C -1.55307 -1.68946 -0.741324 0
M  V30 10 C -2.11472 -0.725731 0.212019 0
M  V30 11 C -1.56362 -0.409458 1.44442 0
M  V30 12 C -2.14775 0.508683 2.29092 0
M  V30 13 C -3.32433 1.14684 1.91568 0
M  V30 14 C -3.88947 0.850569 0.700074 0
M  V30 15 C -3.28184 -0.0730449 -0.126455 0
M  V30 16 S 1.65006 2.60852 -1.53067 0
M  V30 17 O 2.93155 3.06184 -2.1712 0
M  V30 18 O 0.493907 2.69277 -2.45765 0
M  V30 19 N 1.34914 3.6115 -0.157695 0
M  V30 20 H 2.93187 -3.32475 0.995292 0
M  V30 21 H 1.85865 -3.90973 -0.274815 0
M  V30 22 H 4.21722 -1.31813 -0.0483211 0
M  V30 23 H 3.95184 1.06491 -0.758284 0
M  V30 24 H -0.215873 0.490341 -1.21521 0
M  V30 25 H -0.0265622 -3.10094 -0.233933 0
M  V30 26 H -1.59009 -1.18507 -1.75103 0
M  V30 27 H -2.20922 -2.58345 -0.726636 0
M  V30 28 H -0.644295 -0.909012 1.73604 0
M  V30 29 H -1.72156 0.755431 3.24771 0
M  V30 30 H -3.7959 1.87708 2.58021 0
M  V30 31 H -4.8102 1.36579 0.433622 0
M  V30 32 H -3.76245 -0.277846 -1.07925 0
M  V30 33 H 0.874936 3.03757 0.568372 0
M  V30 34 H 2.22926 4.04968 0.143798 0
M  V30 END ATOM
M  V30 BEGIN BOND
M  V30 1 1 1 2
M  V30 2 2 2 3
M  V30 3 1 3 4
M  V30 4 2 4 5
M  V30 5 1 5 6
M  V30 6 2 6 7
M  V30 7 1 7 8
M  V30 8 1 8 9
M  V30 9 1 9 10
M  V30 10 2 10 11
M  V30 11 1 11 12
M  V30 12 2 12 13
M  V30 13 1 13 14
M  V30 14 2 14 15
M  V30 15 1 5 16
M  V30 16 2 16 17
M  V30 17 2 16 18
M  V30 18 1 16 19
M  V30 19 1 7 2
M  V30 20 1 15 10
M  V30 21 1 1 20
M  V30 22 1 1 21
M  V30 23 1 3 22
M  V30 24 1 4 23
M  V30 25 1 6 24
M  V30 26 1 8 25
M  V30 27 1 9 26
M  V30 28 1 9 27
M  V30 29 1 11 28
M  V30 30 1 12 29
M  V30 31 1 13 30
M  V30 32 1 14 31
M  V30 33 1 15 32
M  V30 34 1 19 33
M  V30 35 1 19 34
M  V30 END BOND
M  V30 END CTAB
M  END
