
     RDKit          3D

  0  0  0  0  0  0  0  0  0  0999 V3000
M  V30 BEGIN CTAB
M  V30 COUNTS 24 25 0 0 0
M  V30 BEGIN ATOM
M  V30 1 N -3.14986 2.53065 -1.0616 0
M  V30 2 C -2.50067 1.32357 -0.702257 0
M  V30 3 N -3.22289 0.196576 -0.567593 0
M  V30 4 C -2.66631 -0.979824 -0.228748 0
M  V30 5 Cl -3.60807 -2.44743 -0.0535977 0
M  V30 6 C -1.29639 -1.08376 0.00103228 0
M  V30 7 C -0.563276 0.0732007 -0.138778 0
M  V30 8 N -1.17671 1.2439 -0.484842 0
M  V30 9 C 0.865442 0.0575769 0.0892656 0
M  V30 10 C 1.66875 -0.909929 -0.465821 0
M  V30 11 C 3.01886 -0.86182 -0.195599 0
M  V30 12 C 3.56056 0.117145 0.602148 0
M  V30 13 C 2.75897 1.09177 1.16231 0
M  V30 14 C 1.40634 1.05583 0.900565 0
M  V30 15 N -0.723474 -2.34291 0.368672 0
M  V30 16 H -4.15299 2.69896 -0.812433 0
M  V30 17 H -2.68259 3.30726 -1.583 0
M  V30 18 H 1.25318 -1.70132 -1.11401 0
M  V30 19 H 3.64179 -1.6386 -0.644839 0
M  V30 20 H 4.63042 0.148542 0.811443 0
M  V30 21 H 3.19066 1.87155 1.79766 0
M  V30 22 H 0.794411 1.8288 1.34898 0
M  V30 23 H -0.431771 -2.53437 1.36788 0
M  V30 24 H -0.614369 -3.04536 -0.39683 0
M  V30 END ATOM
M  V30 BEGIN BOND
M  V30 1 1 1 2
M  V30 2 2 2 3
M  V30 3 1 3 4
M  V30 4 1 4 5
M  V30 5 2 4 6
M  V30 6 1 6 7
M  V30 7 2 7 8
M  V30 8 1 7 9
M  V30 9 2 9 10
M  V30 10 1 10 11
M  V30 11 2 11 12
M  V30 12 1 12 13
M  V30 13 2 13 14
M  V30 14 1 6 15
M  V30 15 1 8 2
M  V30 16 1 14 9
M  V30 17 1 1 16
M  V30 18 1 1 17
M  V30 19 1 10 18
M  V30 20 1 11 19
M  V30 21 1 12 20
M  V30 22 1 13 21
M  V30 23 1 14 22
M  V30 24 1 15 23
M  V30 25 1 15 24
M  V30 END BOND
M  V30 END CTAB
M  END
