
     RDKit          3D

  0  0  0  0  0  0  0  0  0  0999 V3000
M  V30 BEGIN CTAB
M  V30 COUNTS 44 45 0 0 0
M  V30 BEGIN ATOM
M  V30 1 C -2.81493 3.91625 0.0425546 0
M  V30 2 C -2.99438 2.4258 0.0475859 0
M  V30 3 C -4.19898 1.8062 -0.172008 0
M  V30 4 C -4.32503 0.414748 -0.146497 0
M  V30 5 C -3.2364 -0.405211 0.100196 0
M  V30 6 C -2.00204 0.246187 0.333103 0
M  V30 7 C -1.90881 1.61396 0.299184 0
M  V30 8 O -0.987115 -0.60029 0.599728 0
M  V30 9 C 0.316478 -0.312462 0.918294 0
M  V30 10 C 1.08785 -1.61526 1.19994 0
M  V30 11 S 2.75918 -1.34506 1.78165 0
M  V30 12 C 3.80171 -0.542211 0.575091 0
M  V30 13 N 4.48088 -1.25672 -0.351709 0
M  V30 14 C 5.31215 -0.686709 -1.24456 0
M  V30 15 N 6.02146 -1.42958 -2.20675 0
M  V30 16 C 5.47662 0.696502 -1.21128 0
M  V30 17 C 4.79252 1.43507 -0.271552 0
M  V30 18 N 3.98726 0.786823 0.57684 0
M  V30 19 N 4.93142 2.82468 -0.183042 0
M  V30 20 C -3.34058 -1.84748 -0.0988525 0
M  V30 21 C -4.03381 -2.66627 0.922601 0
M  V30 22 C -2.2645 -2.49372 -0.884313 0
M  V30 23 H -2.13236 4.24769 -0.764084 0
M  V30 24 H -3.77274 4.41444 -0.0704853 0
M  V30 25 H -2.40555 4.27295 1.04312 0
M  V30 26 H -5.06863 2.40627 -0.375026 0
M  V30 27 H -5.30659 0.00647873 -0.325181 0
M  V30 28 H -0.931745 2.06698 0.486155 0
M  V30 29 H 0.789703 0.169134 0.0422227 0
M  V30 30 H 0.494449 0.313536 1.81191 0
M  V30 31 H 0.534751 -2.21584 1.95632 0
M  V30 32 H 1.08226 -2.18473 0.219201 0
M  V30 33 H 6.30918 -1.09716 -3.14611 0
M  V30 34 H 6.30399 -2.41232 -1.97804 0
M  V30 35 H 6.13227 1.12828 -1.93979 0
M  V30 36 H 5.36924 3.25959 0.645506 0
M  V30 37 H 4.58695 3.43915 -0.939421 0
M  V30 38 H -4.23744 -1.88037 -0.979982 0
M  V30 39 H -4.49398 -2.0522 1.72575 0
M  V30 40 H -4.79537 -3.32623 0.508857 0
M  V30 41 H -3.25812 -3.40671 1.4039 0
M  V30 42 H -1.31701 -2.66751 -0.368513 0
M  V30 43 H -2.67799 -3.52608 -1.18983 0
M  V30 44 H -2.06621 -1.92062 -1.86098 0
M  V30 END ATOM
M  V30 BEGIN BOND
M  V30 1 1 1 2
M  V30 2 2 2 3
M  V30 3 1 3 4
M  V30 4 2 4 5
M  V30 5 1 5 6
M  V30 6 2 6 7
M  V30 7 1 6 8
M  V30 8 1 8 9
M  V30 9 1 9 10
M  V30 10 1 10 11
M  V30 11 1 11 12
M  V30 12 2 12 13
M  V30 13 1 13 14
M  V30 14 1 14 15
M  V30 15 2 14 16
M  V30 16 1 16 17
M  V30 17 2 17 18
M  V30 18 1 17 19
M  V30 19 1 5 20
M  V30 20 1 20 21
M  V30 21 1 20 22
M  V30 22 1 7 2
M  V30 23 1 18 12
M  V30 24 1 1 23
M  V30 25 1 1 24
M  V30 26 1 1 25
M  V30 27 1 3 26
M  V30 28 1 4 27
M  V30 29 1 7 28
M  V30 30 1 9 29
M  V30 31 1 9 30
M  V30 32 1 10 31
M  V30 33 1 10 32
M  V30 34 1 15 33
M  V30 35 1 15 34
M  V30 36 1 16 35
M  V30 37 1 19 36
M  V30 38 1 19 37
M  V30 39 1 20 38
M  V30 40 1 21 39
M  V30 41 1 21 40
M  V30 42 1 21 41
M  V30 43 1 22 42
M  V30 44 1 22 43
M  V30 45 1 22 44
M  V30 END BOND
M  V30 END CTAB
M  END
