
     RDKit          3D

  0  0  0  0  0  0  0  0  0  0999 V3000
M  V30 BEGIN CTAB
M  V30 COUNTS 42 43 0 0 0
M  V30 BEGIN ATOM
M  V30 1 O 0.523063 -1.94722 0.334263 0
M  V30 2 C -0.124779 -1.08992 -0.35418 0
M  V30 3 C -1.60038 -1.22145 -0.515257 0
M  V30 4 S -2.34743 0.275807 0.14838 0
M  V30 5 C -4.12278 0.266011 -0.00775191 0
M  V30 6 N -4.83158 1.31398 0.44113 0
M  V30 7 C -6.17236 1.3773 0.35377 0
M  V30 8 N -6.88724 2.49222 0.834506 0
M  V30 9 C -6.86667 0.323339 -0.221706 0
M  V30 10 C -6.14751 -0.762937 -0.688369 0
M  V30 11 N -4.80869 -0.748863 -0.563569 0
M  V30 12 N -6.80291 -1.861 -1.28313 0
M  V30 13 C -2.0432 -2.46722 0.186826 0
M  V30 14 N 0.519534 -0.00560864 -0.978533 0
M  V30 15 N 1.89721 0.139287 -0.845702 0
M  V30 16 C 2.55428 0.35268 0.373267 0
M  V30 17 O 1.80561 0.408857 1.40889 0
M  V30 18 C 3.97925 0.500622 0.460784 0
M  V30 19 C 4.61467 0.527931 1.69301 0
M  V30 20 C 5.97873 0.678475 1.80522 0
M  V30 21 C 6.72115 0.804291 0.658634 0
M  V30 22 C 6.12174 0.780469 -0.562742 0
M  V30 23 C 4.73999 0.627735 -0.671867 0
M  V30 24 C 8.18319 0.967254 0.761554 0
M  V30 25 H -1.90986 -1.3044 -1.58025 0
M  V30 26 H -6.43568 3.42452 1.00899 0
M  V30 27 H -7.91326 2.43214 1.03999 0
M  V30 28 H -7.94153 0.365844 -0.296203 0
M  V30 29 H -7.44528 -2.43564 -0.722286 0
M  V30 30 H -6.63651 -2.08242 -2.27324 0
M  V30 31 H -1.18634 -3.18843 0.15262 0
M  V30 32 H -2.8805 -2.9787 -0.315646 0
M  V30 33 H -2.22955 -2.31568 1.28776 0
M  V30 34 H -0.010738 0.681212 -1.53096 0
M  V30 35 H 2.45214 0.0771451 -1.7335 0
M  V30 36 H 3.97023 0.422303 2.56798 0
M  V30 37 H 6.45618 0.697681 2.78091 0
M  V30 38 H 6.72423 0.881435 -1.4559 0
M  V30 39 H 4.35126 0.622939 -1.67536 0
M  V30 40 H 8.49502 1.65301 1.57256 0
M  V30 41 H 8.6241 1.36094 -0.174276 0
M  V30 42 H 8.6332 -0.0459402 0.921997 0
M  V30 END ATOM
M  V30 BEGIN BOND
M  V30 1 2 1 2
M  V30 2 1 2 3
M  V30 3 1 3 4
M  V30 4 1 4 5
M  V30 5 2 5 6
M  V30 6 1 6 7
M  V30 7 1 7 8
M  V30 8 2 7 9
M  V30 9 1 9 10
M  V30 10 2 10 11
M  V30 11 1 10 12
M  V30 12 1 3 13
M  V30 13 1 2 14
M  V30 14 1 14 15
M  V30 15 1 15 16
M  V30 16 2 16 17
M  V30 17 1 16 18
M  V30 18 2 18 19
M  V30 19 1 19 20
M  V30 20 2 20 21
M  V30 21 1 21 22
M  V30 22 2 22 23
M  V30 23 1 21 24
M  V30 24 1 11 5
M  V30 25 1 23 18
M  V30 26 1 3 25
M  V30 27 1 8 26
M  V30 28 1 8 27
M  V30 29 1 9 28
M  V30 30 1 12 29
M  V30 31 1 12 30
M  V30 32 1 13 31
M  V30 33 1 13 32
M  V30 34 1 13 33
M  V30 35 1 14 34
M  V30 36 1 15 35
M  V30 37 1 19 36
M  V30 38 1 20 37
M  V30 39 1 22 38
M  V30 40 1 23 39
M  V30 41 1 24 40
M  V30 42 1 24 41
M  V30 43 1 24 42
M  V30 END BOND
M  V30 END CTAB
M  END
