
     RDKit          3D

  0  0  0  0  0  0  0  0  0  0999 V3000
M  V30 BEGIN CTAB
M  V30 COUNTS 28 29 0 0 0
M  V30 BEGIN ATOM
M  V30 1 N -1.15261 -3.49134 -0.659098 0
M  V30 2 C -1.61038 -2.42455 -0.507151 0
M  V30 3 C -2.18088 -1.11592 -0.318955 0
M  V30 4 C -3.27064 -0.904793 0.473346 0
M  V30 5 C -3.7658 0.369256 0.610543 0
M  V30 6 C -3.14859 1.40922 -0.0574777 0
M  V30 7 C -2.0477 1.2156 -0.861598 0
M  V30 8 C -1.56243 -0.0667056 -0.989681 0
M  V30 9 S -0.152118 -0.351869 -2.01278 0
M  V30 10 C 1.38624 -0.217157 -1.1119 0
M  V30 11 N 1.98853 0.976745 -1.03165 0
M  V30 12 C 3.14399 1.18009 -0.379422 0
M  V30 13 N 3.79317 2.42411 -0.282692 0
M  V30 14 C 3.73707 0.0884773 0.240887 0
M  V30 15 C 3.13602 -1.15148 0.172388 0
M  V30 16 N 1.97704 -1.25511 -0.505788 0
M  V30 17 N 3.7355 -2.28313 0.806187 0
M  V30 18 N -4.8965 0.641698 1.42255 0 CHG=1
M  V30 19 O -5.43213 -0.315532 2.01254 0
M  V30 20 O -5.37147 1.92408 1.54283 0 CHG=-1
M  V30 21 H -3.74988 -1.73104 0.995626 0
M  V30 22 H -3.56642 2.40315 0.0736158 0
M  V30 23 H -1.62927 2.07455 -1.34361 0
M  V30 24 H 3.96622 2.85295 0.657389 0
M  V30 25 H 4.11905 2.95511 -1.11349 0
M  V30 26 H 4.67035 0.202828 0.779628 0
M  V30 27 H 3.50748 -3.23274 0.419814 0
M  V30 28 H 4.37615 -2.17651 1.62212 0
M  V30 END ATOM
M  V30 BEGIN BOND
M  V30 1 3 1 2
M  V30 2 1 2 3
M  V30 3 2 3 4
M  V30 4 1 4 5
M  V30 5 2 5 6
M  V30 6 1 6 7
M  V30 7 2 7 8
M  V30 8 1 8 9
M  V30 9 1 9 10
M  V30 10 2 10 11
M  V30 11 1 11 12
M  V30 12 1 12 13
M  V30 13 2 12 14
M  V30 14 1 14 15
M  V30 15 2 15 16
M  V30 16 1 15 17
M  V30 17 1 5 18
M  V30 18 2 18 19
M  V30 19 1 18 20
M  V30 20 1 8 3
M  V30 21 1 16 10
M  V30 22 1 4 21
M  V30 23 1 6 22
M  V30 24 1 7 23
M  V30 25 1 13 24
M  V30 26 1 13 25
M  V30 27 1 14 26
M  V30 28 1 17 27
M  V30 29 1 17 28
M  V30 END BOND
M  V30 END CTAB
M  END
