
     RDKit          3D

  0  0  0  0  0  0  0  0  0  0999 V3000
M  V30 BEGIN CTAB
M  V30 COUNTS 39 41 0 0 0
M  V30 BEGIN ATOM
M  V30 1 N -4.46778 1.47516 -1.06092 0
M  V30 2 C -3.1617 1.68457 -0.554603 0
M  V30 3 N -2.80623 2.95019 -0.606136 0
M  V30 4 O -1.66781 3.50673 -0.219238 0
M  V30 5 C -2.18534 0.724454 -0.142673 0
M  V30 6 C -0.7913 0.910922 -0.148914 0
M  V30 7 N -0.15092 -0.217726 0.142782 0
M  V30 8 C 1.24947 -0.439074 0.234282 0 CFG=2
M  V30 9 O 1.92197 0.534351 0.991509 0
M  V30 10 C 3.24229 0.0648928 0.848185 0 CFG=2
M  V30 11 C 4.23387 1.01828 1.46261 0
M  V30 12 O 5.50001 0.494199 1.28384 0
M  V30 13 C 3.39313 -0.0635493 -0.635509 0 CFG=1
M  V30 14 O 4.08628 -1.23957 -0.895629 0
M  V30 15 C 1.96532 -0.270167 -1.10994 0 CFG=1
M  V30 16 O 1.80086 -1.43999 -1.81683 0
M  V30 17 C -1.09498 -1.14246 0.342238 0
M  V30 18 C -2.35988 -0.608227 0.179539 0
M  V30 19 C -3.43599 -1.43855 0.38106 0
M  V30 20 N -4.77001 -0.975219 0.317452 0
M  V30 21 N -3.21634 -2.74447 0.722356 0
M  V30 22 C -2.00414 -3.27023 0.876742 0
M  V30 23 N -0.968107 -2.45809 0.684148 0
M  V30 24 H -5.34481 1.81969 -0.587954 0
M  V30 25 H -4.62613 0.958606 -1.96549 0
M  V30 26 H -1.38361 3.71868 0.71081 0
M  V30 27 H -0.311148 1.84277 -0.375793 0
M  V30 28 H 1.51343 -1.41029 0.670776 0
M  V30 29 H 3.26739 -0.91628 1.34571 0
M  V30 30 H 4.0387 0.999832 2.57044 0
M  V30 31 H 4.10735 2.04659 1.11255 0
M  V30 32 H 5.90689 0.823441 0.44181 0
M  V30 33 H 3.85857 0.822341 -1.11025 0
M  V30 34 H 4.46487 -1.17522 -1.81107 0
M  V30 35 H 1.56579 0.627269 -1.61485 0
M  V30 36 H 1.03072 -1.30508 -2.43094 0
M  V30 37 H -5.41717 -1.21739 -0.464597 0
M  V30 38 H -5.15285 -0.382574 1.08583 0
M  V30 39 H -1.83068 -4.30881 1.14668 0
M  V30 END ATOM
M  V30 BEGIN BOND
M  V30 1 1 1 2
M  V30 2 2 2 3
M  V30 3 1 3 4
M  V30 4 1 2 5
M  V30 5 2 5 6
M  V30 6 1 6 7
M  V30 7 1 7 8
M  V30 8 1 8 9
M  V30 9 1 9 10
M  V30 10 1 10 11
M  V30 11 1 11 12
M  V30 12 1 10 13
M  V30 13 1 13 14
M  V30 14 1 13 15
M  V30 15 1 15 16
M  V30 16 1 7 17
M  V30 17 2 17 18
M  V30 18 1 18 19
M  V30 19 1 19 20
M  V30 20 2 19 21
M  V30 21 1 21 22
M  V30 22 2 22 23
M  V30 23 1 18 5
M  V30 24 1 15 8
M  V30 25 1 23 17
M  V30 26 1 1 24
M  V30 27 1 1 25
M  V30 28 1 4 26
M  V30 29 1 6 27
M  V30 30 1 8 28 CFG=1
M  V30 31 1 10 29 CFG=1
M  V30 32 1 11 30
M  V30 33 1 11 31
M  V30 34 1 12 32
M  V30 35 1 13 33 CFG=3
M  V30 36 1 14 34
M  V30 37 1 15 35 CFG=3
M  V30 38 1 16 36
M  V30 39 1 20 37
M  V30 40 1 20 38
M  V30 41 1 22 39
M  V30 END BOND
M  V30 END CTAB
M  END
