
     RDKit          3D

  0  0  0  0  0  0  0  0  0  0999 V3000
M  V30 BEGIN CTAB
M  V30 COUNTS 53 55 0 0 0
M  V30 BEGIN ATOM
M  V30 1 O 3.15791 1.6027 0.0618632 0
M  V30 2 C 3.23773 0.452007 -0.404298 0
M  V30 3 N 4.38431 -0.319804 -0.47431 0
M  V30 4 C 5.68516 0.00688863 -0.0486437 0
M  V30 5 C 6.69899 -0.966129 -0.164968 0
M  V30 6 C 7.98601 -0.731997 0.221523 0
M  V30 7 C 8.36689 0.477486 0.750422 0
M  V30 8 C 7.39013 1.43495 0.869702 0
M  V30 9 C 6.06065 1.21751 0.479226 0
M  V30 10 S 10.019 0.790354 1.25168 0
M  V30 11 O 10.6008 -0.505894 1.72334 0
M  V30 12 O 10.0212 1.84185 2.32717 0
M  V30 13 N 10.873 1.42901 -0.110232 0
M  V30 14 C 1.9402 -0.124494 -0.934327 0
M  V30 15 S 1.17009 -1.01854 0.446439 0
M  V30 16 C -0.366174 -1.71285 -0.100303 0
M  V30 17 N -0.518467 -2.9191 -0.650975 0
M  V30 18 N -1.79307 -3.04817 -0.906552 0
M  V30 19 C -2.46428 -1.93312 -0.524282 0
M  V30 20 N -1.56499 -1.08373 -0.0128609 0
M  V30 21 N -1.69752 0.195032 0.522966 0
M  V30 22 C -3.89913 -1.70633 -0.652732 0
M  V30 23 C -4.61003 -2.7558 -1.25696 0
M  V30 24 C -5.96981 -2.61172 -1.40536 0
M  V30 25 C -6.64091 -1.48298 -0.983332 0
M  V30 26 C -5.97708 -0.455293 -0.396701 0
M  V30 27 C -4.58513 -0.603688 -0.245283 0
M  V30 28 O -6.52086 0.704366 0.0603594 0
M  V30 29 C -7.84117 1.11779 0.044555 0
M  V30 30 C -8.43425 1.28203 1.43105 0
M  V30 31 C -8.05617 2.38344 -0.76895 0
M  V30 32 H 4.2749 -1.29212 -0.908479 0
M  V30 33 H 6.47977 -1.94425 -0.571947 0
M  V30 34 H 8.7745 -1.49368 0.129266 0
M  V30 35 H 7.64971 2.40159 1.28212 0
M  V30 36 H 5.34086 2.01038 0.596685 0
M  V30 37 H 10.2324 1.84608 -0.810657 0
M  V30 38 H 11.5619 2.14847 0.191215 0
M  V30 39 H 2.16219 -0.848154 -1.75032 0
M  V30 40 H 1.30552 0.662822 -1.34761 0
M  V30 41 H -1.57954 1.02146 -0.0934073 0
M  V30 42 H -1.91199 0.357718 1.52473 0
M  V30 43 H -4.09601 -3.65789 -1.59787 0
M  V30 44 H -6.52364 -3.42358 -1.87352 0
M  V30 45 H -7.68858 -1.427 -1.1236 0
M  V30 46 H -4.05223 0.203157 0.218416 0
M  V30 47 H -8.44752 0.323912 -0.438078 0
M  V30 48 H -7.62207 1.57068 2.12933 0
M  V30 49 H -8.99271 0.389528 1.75298 0
M  V30 50 H -9.16399 2.14125 1.44545 0
M  V30 51 H -8.18486 3.26991 -0.113655 0
M  V30 52 H -7.16606 2.49864 -1.45217 0
M  V30 53 H -9.00567 2.2853 -1.33006 0
M  V30 END ATOM
M  V30 BEGIN BOND
M  V30 1 2 1 2
M  V30 2 1 2 3
M  V30 3 1 3 4
M  V30 4 2 4 5
M  V30 5 1 5 6
M  V30 6 2 6 7
M  V30 7 1 7 8
M  V30 8 2 8 9
M  V30 9 1 7 10
M  V30 10 2 10 11
M  V30 11 2 10 12
M  V30 12 1 10 13
M  V30 13 1 2 14
M  V30 14 1 14 15
M  V30 15 1 15 16
M  V30 16 2 16 17
M  V30 17 1 17 18
M  V30 18 2 18 19
M  V30 19 1 19 20
M  V30 20 1 20 21
M  V30 21 1 19 22
M  V30 22 2 22 23
M  V30 23 1 23 24
M  V30 24 2 24 25
M  V30 25 1 25 26
M  V30 26 2 26 27
M  V30 27 1 26 28
M  V30 28 1 28 29
M  V30 29 1 29 30
M  V30 30 1 29 31
M  V30 31 1 9 4
M  V30 32 1 20 16
M  V30 33 1 27 22
M  V30 34 1 3 32
M  V30 35 1 5 33
M  V30 36 1 6 34
M  V30 37 1 8 35
M  V30 38 1 9 36
M  V30 39 1 13 37
M  V30 40 1 13 38
M  V30 41 1 14 39
M  V30 42 1 14 40
M  V30 43 1 21 41
M  V30 44 1 21 42
M  V30 45 1 23 43
M  V30 46 1 24 44
M  V30 47 1 25 45
M  V30 48 1 27 46
M  V30 49 1 29 47
M  V30 50 1 30 48
M  V30 51 1 30 49
M  V30 52 1 30 50
M  V30 53 1 31 51
M  V30 54 1 31 52
M  V30 55 1 31 53
M  V30 END BOND
M  V30 END CTAB
M  END
