
     RDKit          3D

  0  0  0  0  0  0  0  0  0  0999 V3000
M  V30 BEGIN CTAB
M  V30 COUNTS 34 34 0 0 0
M  V30 BEGIN ATOM
M  V30 1 C -3.05854 1.89785 -0.26019 0
M  V30 2 C -2.77382 0.797942 0.710173 0
M  V30 3 N -1.66871 -0.042723 0.338635 0
M  V30 4 C -0.39652 0.216764 0.718292 0
M  V30 5 O -0.129677 1.22721 1.42964 0
M  V30 6 N 0.63166 -0.572265 0.367412 0
M  V30 7 C 2.00459 -0.317851 0.739344 0
M  V30 8 C 2.79866 0.460249 -0.248396 0
M  V30 9 C 4.22896 0.650435 0.278064 0
M  V30 10 C 2.2688 1.84554 -0.527926 0
M  V30 11 C 0.371117 -1.67457 -0.400182 0
M  V30 12 O 1.31409 -2.43316 -0.744343 0
M  V30 13 C -0.902327 -1.98931 -0.816035 0
M  V30 14 N -1.16555 -3.13827 -1.61475 0
M  V30 15 C -1.91419 -1.12599 -0.414312 0
M  V30 16 N -3.23843 -1.45952 -0.851231 0
M  V30 17 H -2.38976 2.77509 -0.145067 0
M  V30 18 H -4.08833 2.28894 -0.00998359 0
M  V30 19 H -3.11723 1.55212 -1.30068 0
M  V30 20 H -3.6937 0.155638 0.777732 0
M  V30 21 H -2.64381 1.23554 1.72157 0
M  V30 22 H 2.53417 -1.24276 1.03841 0
M  V30 23 H 1.94356 0.295079 1.6874 0
M  V30 24 H 2.94202 -0.0995167 -1.21307 0
M  V30 25 H 4.1001 1.02569 1.32179 0
M  V30 26 H 4.7075 1.47199 -0.297435 0
M  V30 27 H 4.79322 -0.294109 0.237376 0
M  V30 28 H 1.27546 1.76973 -1.0087 0
M  V30 29 H 2.96125 2.40337 -1.22276 0
M  V30 30 H 2.22731 2.4686 0.37644 0
M  V30 31 H -1.19205 -2.99099 -2.64617 0
M  V30 32 H -1.32035 -4.06723 -1.16861 0
M  V30 33 H -3.5625 -0.951819 -1.71056 0
M  V30 34 H -3.84697 -2.13766 -0.381887 0
M  V30 END ATOM
M  V30 BEGIN BOND
M  V30 1 1 1 2
M  V30 2 1 2 3
M  V30 3 1 3 4
M  V30 4 2 4 5
M  V30 5 1 4 6
M  V30 6 1 6 7
M  V30 7 1 7 8
M  V30 8 1 8 9
M  V30 9 1 8 10
M  V30 10 1 6 11
M  V30 11 2 11 12
M  V30 12 1 11 13
M  V30 13 1 13 14
M  V30 14 2 13 15
M  V30 15 1 15 16
M  V30 16 1 15 3
M  V30 17 1 1 17
M  V30 18 1 1 18
M  V30 19 1 1 19
M  V30 20 1 2 20
M  V30 21 1 2 21
M  V30 22 1 7 22
M  V30 23 1 7 23
M  V30 24 1 8 24
M  V30 25 1 9 25
M  V30 26 1 9 26
M  V30 27 1 9 27
M  V30 28 1 10 28
M  V30 29 1 10 29
M  V30 30 1 10 30
M  V30 31 1 14 31
M  V30 32 1 14 32
M  V30 33 1 16 33
M  V30 34 1 16 34
M  V30 END BOND
M  V30 END CTAB
M  END
