
     RDKit          3D

  0  0  0  0  0  0  0  0  0  0999 V3000
M  V30 BEGIN CTAB
M  V30 COUNTS 33 33 0 0 0
M  V30 BEGIN ATOM
M  V30 1 C 1.63893 -1.95941 0.923297 0
M  V30 2 C 1.96537 -0.793845 0.132363 0
M  V30 3 C 3.23074 -0.646327 -0.446269 0
M  V30 4 C 3.60692 0.403004 -1.21825 0
M  V30 5 N 2.69838 1.36119 -1.43279 0
M  V30 6 C 1.44613 1.26025 -0.882592 0
M  V30 7 C 1.0088 0.218976 -0.104182 0
M  V30 8 C -0.246141 0.120898 0.605075 0
M  V30 9 C -1.56221 0.141832 -0.0212936 0
M  V30 10 C -2.66822 0.0446186 1.06561 0
M  V30 11 C -2.04464 1.10617 -1.00063 0
M  V30 12 C -1.82534 -1.26053 -0.713283 0
M  V30 13 N -0.196335 -0.483137 1.93501 0
M  V30 14 N 0.682739 2.46272 -1.0853 0
M  V30 15 H 2.35841 -2.77125 0.537218 0
M  V30 16 H 1.91846 -1.96329 1.99341 0
M  V30 17 H 0.665511 -2.4706 0.697081 0
M  V30 18 H 3.96673 -1.44466 -0.255175 0
M  V30 19 H 4.59387 0.417625 -1.622 0
M  V30 20 H -0.276007 1.27437 1.04734 0
M  V30 21 H -2.55408 0.871336 1.76335 0
M  V30 22 H -2.56077 -0.925665 1.56165 0
M  V30 23 H -3.64667 0.150037 0.514347 0
M  V30 24 H -1.58464 1.03265 -2.02178 0
M  V30 25 H -2.22858 2.12974 -0.644782 0
M  V30 26 H -3.13746 0.773541 -1.26694 0
M  V30 27 H -1.32728 -1.16276 -1.68474 0
M  V30 28 H -1.5188 -2.06859 -0.0759349 0
M  V30 29 H -2.91115 -1.34364 -0.922688 0
M  V30 30 H -1.00842 -0.125436 2.48032 0
M  V30 31 H 0.652991 -0.077413 2.45918 0
M  V30 32 H 0.580954 2.76256 -2.07047 0
M  V30 33 H 0.281813 2.96503 -0.246155 0
M  V30 END ATOM
M  V30 BEGIN BOND
M  V30 1 1 1 2
M  V30 2 2 2 3
M  V30 3 1 3 4
M  V30 4 2 4 5
M  V30 5 1 5 6
M  V30 6 2 6 7
M  V30 7 1 7 8
M  V30 8 1 8 9
M  V30 9 1 9 10
M  V30 10 1 9 11
M  V30 11 1 9 12
M  V30 12 1 8 13
M  V30 13 1 6 14
M  V30 14 1 7 2
M  V30 15 1 1 15
M  V30 16 1 1 16
M  V30 17 1 1 17
M  V30 18 1 3 18
M  V30 19 1 4 19
M  V30 20 1 8 20
M  V30 21 1 10 21
M  V30 22 1 10 22
M  V30 23 1 10 23
M  V30 24 1 11 24
M  V30 25 1 11 25
M  V30 26 1 11 26
M  V30 27 1 12 27
M  V30 28 1 12 28
M  V30 29 1 12 29
M  V30 30 1 13 30
M  V30 31 1 13 31
M  V30 32 1 14 32
M  V30 33 1 14 33
M  V30 END BOND
M  V30 END CTAB
M  END
