
     RDKit          3D

  0  0  0  0  0  0  0  0  0  0999 V3000
M  V30 BEGIN CTAB
M  V30 COUNTS 52 55 0 0 0
M  V30 BEGIN ATOM
M  V30 1 N 4.81839 3.61302 -0.359651 0
M  V30 2 C 5.15275 2.23358 -0.599666 0
M  V30 3 C 4.09303 1.44373 -1.3797 0
M  V30 4 C 4.5107 0.250969 -0.506556 0
M  V30 5 C 4.82755 1.30245 0.567597 0
M  V30 6 C 3.42068 -0.660307 -0.156458 0
M  V30 7 C 2.21184 -0.210652 0.298229 0
M  V30 8 C 1.19092 -1.09408 0.622424 0
M  V30 9 N 1.45882 -2.39658 0.465781 0
M  V30 10 C 2.60926 -2.86147 0.0316953 0
M  V30 11 N 3.59319 -1.98198 -0.279895 0
M  V30 12 N 2.77896 -4.26251 -0.0939359 0
M  V30 13 N -0.0500562 -0.620127 1.12272 0
M  V30 14 C -1.1716 -1.4785 1.29963 0
M  V30 15 C -1.78886 -1.83867 0.010683 0
M  V30 16 N -1.13275 -2.3676 -1.04774 0
M  V30 17 C -1.98926 -2.5928 -2.04453 0
M  V30 18 C -3.22561 -2.19254 -1.60047 0
M  V30 19 N -3.0851 -1.725 -0.319503 0
M  V30 20 C -4.17614 -1.20996 0.44893 0
M  V30 21 C -4.45597 0.213109 0.243378 0
M  V30 22 C -5.22706 0.604159 -0.827265 0
M  V30 23 C -5.50512 1.93248 -1.0275 0
M  V30 24 C -4.99915 2.86075 -0.138945 0
M  V30 25 C -4.22048 2.51529 0.950476 0
M  V30 26 C -3.96994 1.1566 1.10533 0
M  V30 27 C -0.150705 0.780641 1.46746 0
M  V30 28 H 5.10989 3.95351 0.585983 0
M  V30 29 H 5.27649 4.19928 -1.09505 0
M  V30 30 H 6.16116 2.03745 -0.975699 0
M  V30 31 H 3.06946 1.75362 -1.10998 0
M  V30 32 H 4.32228 1.33338 -2.44065 0
M  V30 33 H 5.41749 -0.230601 -0.890693 0
M  V30 34 H 3.92674 1.58435 1.1405 0
M  V30 35 H 5.70408 1.01723 1.17264 0
M  V30 36 H 2.06022 0.845913 0.402352 0
M  V30 37 H 2.79922 -4.69065 -1.03897 0
M  V30 38 H 2.88291 -4.86511 0.739927 0
M  V30 39 H -0.799703 -2.42357 1.82158 0
M  V30 40 H -1.95004 -1.05095 1.98076 0
M  V30 41 H -1.7391 -3.01784 -3.02785 0
M  V30 42 H -4.12384 -2.24682 -2.17413 0
M  V30 43 H -3.91093 -1.34887 1.53738 0
M  V30 44 H -5.07494 -1.85284 0.311907 0
M  V30 45 H -5.63818 -0.104095 -1.54289 0
M  V30 46 H -6.11479 2.27024 -1.86781 0
M  V30 47 H -5.20966 3.91448 -0.283197 0
M  V30 48 H -3.82861 3.25045 1.64099 0
M  V30 49 H -3.35714 0.87789 1.96146 0
M  V30 50 H -0.390463 1.42541 0.624617 0
M  V30 51 H -0.92177 0.906063 2.28383 0
M  V30 52 H 0.810938 1.04805 1.99046 0
M  V30 END ATOM
M  V30 BEGIN BOND
M  V30 1 1 1 2
M  V30 2 1 2 3
M  V30 3 1 3 4
M  V30 4 1 4 5
M  V30 5 1 4 6
M  V30 6 2 6 7
M  V30 7 1 7 8
M  V30 8 2 8 9
M  V30 9 1 9 10
M  V30 10 2 10 11
M  V30 11 1 10 12
M  V30 12 1 8 13
M  V30 13 1 13 14
M  V30 14 1 14 15
M  V30 15 2 15 16
M  V30 16 1 16 17
M  V30 17 2 17 18
M  V30 18 1 18 19
M  V30 19 1 19 20
M  V30 20 1 20 21
M  V30 21 2 21 22
M  V30 22 1 22 23
M  V30 23 2 23 24
M  V30 24 1 24 25
M  V30 25 2 25 26
M  V30 26 1 13 27
M  V30 27 1 5 2
M  V30 28 1 11 6
M  V30 29 1 19 15
M  V30 30 1 26 21
M  V30 31 1 1 28
M  V30 32 1 1 29
M  V30 33 1 2 30
M  V30 34 1 3 31
M  V30 35 1 3 32
M  V30 36 1 4 33
M  V30 37 1 5 34
M  V30 38 1 5 35
M  V30 39 1 7 36
M  V30 40 1 12 37
M  V30 41 1 12 38
M  V30 42 1 14 39
M  V30 43 1 14 40
M  V30 44 1 17 41
M  V30 45 1 18 42
M  V30 46 1 20 43
M  V30 47 1 20 44
M  V30 48 1 22 45
M  V30 49 1 23 46
M  V30 50 1 24 47
M  V30 51 1 25 48
M  V30 52 1 26 49
M  V30 53 1 27 50
M  V30 54 1 27 51
M  V30 55 1 27 52
M  V30 END BOND
M  V30 END CTAB
M  END
