
     RDKit          3D

  0  0  0  0  0  0  0  0  0  0999 V3000
M  V30 BEGIN CTAB
M  V30 COUNTS 48 52 0 0 0
M  V30 BEGIN ATOM
M  V30 1 N -4.7125 2.22527 -2.55492 0
M  V30 2 C -4.93886 1.26443 -1.52327 0
M  V30 3 N -6.19258 0.974619 -1.11437 0
M  V30 4 C -6.47865 0.0833289 -0.151086 0
M  V30 5 N -7.79554 -0.216623 0.273748 0
M  V30 6 C -5.4089 -0.567439 0.446847 0
M  V30 7 C -4.10685 -0.289643 0.0466297 0
M  V30 8 N -3.92963 0.6133 -0.919965 0
M  V30 9 N -3.25565 -1.03172 0.758936 0
M  V30 10 C -3.99929 -1.77052 1.59923 0
M  V30 11 N -5.29682 -1.48133 1.40124 0
M  V30 12 C -1.81706 -1.03063 0.63955 0 CFG=1
M  V30 13 C -1.2863 0.128358 -0.130154 0
M  V30 14 N 0.1767 0.00928546 0.178716 0
M  V30 15 C 0.292716 -0.495161 1.51735 0
M  V30 16 C -1.14181 -0.813555 1.98356 0 CFG=2
M  V30 17 O -1.17198 -1.92514 2.78867 0
M  V30 18 C 1.19342 0.347223 -0.732557 0
M  V30 19 O 0.726272 0.773869 -1.88475 0
M  V30 20 C 2.60982 0.308208 -0.626069 0
M  V30 21 C 3.39228 0.699716 -1.72738 0
M  V30 22 C 4.76535 0.693794 -1.70356 0
M  V30 23 C 5.42965 0.297124 -0.580211 0
M  V30 24 C 4.71069 -0.0906175 0.510933 0
M  V30 25 C 3.30061 -0.0811469 0.477057 0
M  V30 26 N 5.6078 -0.423071 1.45424 0
M  V30 27 C 6.85477 -0.236282 0.933194 0
M  V30 28 N 6.75051 0.210502 -0.328867 0
M  V30 29 C 7.85521 0.519719 -1.19626 0
M  V30 30 H -4.93697 3.23423 -2.44102 0
M  V30 31 H -4.3095 1.91784 -3.45644 0
M  V30 32 H -8.52455 -0.445146 -0.419145 0
M  V30 33 H -8.01551 -0.203375 1.28598 0
M  V30 34 H -3.61159 -2.47416 2.30922 0
M  V30 35 H -1.45086 -1.96561 0.198573 0
M  V30 36 H -1.42122 0.0488658 -1.22822 0
M  V30 37 H -1.65494 1.08792 0.229119 0
M  V30 38 H 0.770704 0.196882 2.23353 0
M  V30 39 H 0.808997 -1.49768 1.45867 0
M  V30 40 H -1.51454 0.109469 2.46233 0
M  V30 41 H -1.73248 -1.69868 3.59345 0
M  V30 42 H 2.92701 1.02338 -2.64381 0
M  V30 43 H 5.34052 1.00043 -2.56634 0
M  V30 44 H 2.8441 -0.402757 1.3893 0
M  V30 45 H 7.78687 -0.417306 1.4491 0
M  V30 46 H 8.41217 -0.401871 -1.51242 0
M  V30 47 H 7.55791 1.03537 -2.11241 0
M  V30 48 H 8.5905 1.15636 -0.637369 0
M  V30 END ATOM
M  V30 BEGIN BOND
M  V30 1 1 1 2
M  V30 2 2 2 3
M  V30 3 1 3 4
M  V30 4 1 4 5
M  V30 5 2 4 6
M  V30 6 1 6 7
M  V30 7 2 7 8
M  V30 8 1 7 9
M  V30 9 1 9 10
M  V30 10 2 10 11
M  V30 11 1 9 12
M  V30 12 1 12 13
M  V30 13 1 13 14
M  V30 14 1 14 15
M  V30 15 1 15 16
M  V30 16 1 16 17
M  V30 17 1 14 18
M  V30 18 2 18 19
M  V30 19 1 18 20
M  V30 20 2 20 21
M  V30 21 1 21 22
M  V30 22 2 22 23
M  V30 23 1 23 24
M  V30 24 2 24 25
M  V30 25 1 24 26
M  V30 26 2 26 27
M  V30 27 1 27 28
M  V30 28 1 28 29
M  V30 29 1 8 2
M  V30 30 1 16 12
M  V30 31 1 25 20
M  V30 32 1 11 6
M  V30 33 1 28 23
M  V30 34 1 1 30
M  V30 35 1 1 31
M  V30 36 1 5 32
M  V30 37 1 5 33
M  V30 38 1 10 34
M  V30 39 1 12 35 CFG=3
M  V30 40 1 13 36
M  V30 41 1 13 37
M  V30 42 1 15 38
M  V30 43 1 15 39
M  V30 44 1 16 40 CFG=1
M  V30 45 1 17 41
M  V30 46 1 21 42
M  V30 47 1 22 43
M  V30 48 1 25 44
M  V30 49 1 27 45
M  V30 50 1 29 46
M  V30 51 1 29 47
M  V30 52 1 29 48
M  V30 END BOND
M  V30 END CTAB
M  END
