
     RDKit          3D

  0  0  0  0  0  0  0  0  0  0999 V3000
M  V30 BEGIN CTAB
M  V30 COUNTS 20 20 0 0 0
M  V30 BEGIN ATOM
M  V30 1 C -3.08996 -0.397326 0.0296534 0
M  V30 2 O -2.02656 0.0846668 0.805383 0
M  V30 3 C -0.699638 -0.0416668 0.531806 0
M  V30 4 C -0.0604868 0.92709 -0.210454 0
M  V30 5 N -0.785169 2.06644 -0.695684 0
M  V30 6 C 1.28033 0.805805 -0.490681 0
M  V30 7 C 2.02705 -0.274343 -0.0463442 0
M  V30 8 C 1.39564 -1.25677 0.701991 0
M  V30 9 C 0.0555322 -1.10659 0.964898 0
M  V30 10 Cl -0.688204 -2.39947 1.92681 0
M  V30 11 N 3.41098 -0.392499 -0.339766 0
M  V30 12 H -3.56501 0.386631 -0.597086 0
M  V30 13 H -2.80646 -1.2298 -0.648781 0
M  V30 14 H -3.90748 -0.787545 0.704112 0
M  V30 15 H -0.995622 2.85639 -0.049763 0
M  V30 16 H -1.12207 2.15576 -1.67604 0
M  V30 17 H 1.80519 1.56629 -1.07945 0
M  V30 18 H 1.97888 -2.09805 1.04765 0
M  V30 19 H 4.09031 -0.103274 0.37032 0
M  V30 20 H 3.70275 -0.761731 -1.24858 0
M  V30 END ATOM
M  V30 BEGIN BOND
M  V30 1 1 1 2
M  V30 2 1 2 3
M  V30 3 2 3 4
M  V30 4 1 4 5
M  V30 5 1 4 6
M  V30 6 2 6 7
M  V30 7 1 7 8
M  V30 8 2 8 9
M  V30 9 1 9 10
M  V30 10 1 7 11
M  V30 11 1 9 3
M  V30 12 1 1 12
M  V30 13 1 1 13
M  V30 14 1 1 14
M  V30 15 1 5 15
M  V30 16 1 5 16
M  V30 17 1 6 17
M  V30 18 1 8 18
M  V30 19 1 11 19
M  V30 20 1 11 20
M  V30 END BOND
M  V30 END CTAB
M  END
