
     RDKit          3D

  0  0  0  0  0  0  0  0  0  0999 V3000
M  V30 BEGIN CTAB
M  V30 COUNTS 22 22 0 0 0
M  V30 BEGIN ATOM
M  V30 1 N 2.55087 0.225897 1.13831 0
M  V30 2 C 2.24501 0.467315 -0.239626 0
M  V30 3 C 0.871716 0.00665279 -0.635758 0 CFG=2
M  V30 4 C -0.226001 0.674622 0.134138 0
M  V30 5 C -1.54586 0.0972476 -0.387679 0
M  V30 6 C -2.8311 0.55984 0.17874 0
M  V30 7 C -2.34701 -0.783515 0.532314 0
M  V30 8 N 0.69868 -1.40833 -0.564964 0
M  V30 9 H 3.49477 -0.209737 1.25818 0
M  V30 10 H 2.57744 1.12953 1.63389 0
M  V30 11 H 2.97105 -0.128707 -0.847526 0
M  V30 12 H 2.39207 1.52017 -0.555955 0
M  V30 13 H 0.737676 0.307495 -1.71464 0
M  V30 14 H -0.15663 0.39573 1.19847 0
M  V30 15 H -0.208354 1.77888 0.0532335 0
M  V30 16 H -1.57674 -0.210486 -1.45778 0
M  V30 17 H -2.86544 1.30755 1.01051 0
M  V30 18 H -3.71872 0.672471 -0.505981 0
M  V30 19 H -1.95989 -0.976032 1.56147 0
M  V30 20 H -2.86339 -1.67537 0.115891 0
M  V30 21 H 1.51599 -1.93906 -0.223744 0
M  V30 22 H 0.243852 -1.81215 -1.41136 0
M  V30 END ATOM
M  V30 BEGIN BOND
M  V30 1 1 1 2
M  V30 2 1 2 3
M  V30 3 1 3 4
M  V30 4 1 4 5
M  V30 5 1 5 6
M  V30 6 1 6 7
M  V30 7 1 3 8
M  V30 8 1 7 5
M  V30 9 1 1 9
M  V30 10 1 1 10
M  V30 11 1 2 11
M  V30 12 1 2 12
M  V30 13 1 3 13 CFG=3
M  V30 14 1 4 14
M  V30 15 1 4 15
M  V30 16 1 5 16
M  V30 17 1 6 17
M  V30 18 1 6 18
M  V30 19 1 7 19
M  V30 20 1 7 20
M  V30 21 1 8 21
M  V30 22 1 8 22
M  V30 END BOND
M  V30 END CTAB
M  END
