
     RDKit          3D

  0  0  0  0  0  0  0  0  0  0999 V3000
M  V30 BEGIN CTAB
M  V30 COUNTS 24 24 0 0 0
M  V30 BEGIN ATOM
M  V30 1 N -2.1949 1.73585 0.337796 0
M  V30 2 C -2.38488 0.518499 -0.36212 0
M  V30 3 C -1.54855 -0.566118 0.279283 0
M  V30 4 C -0.109471 -0.264186 0.268751 0
M  V30 5 C 0.531626 0.00887004 -0.919337 0
M  V30 6 C 1.88076 0.289173 -0.905954 0
M  V30 7 C 2.60472 0.301975 0.276503 0
M  V30 8 C 1.90799 0.0209775 1.43315 0
M  V30 9 N 0.594141 -0.251022 1.41178 0
M  V30 10 N 3.99409 0.585206 0.336779 0
M  V30 11 C -1.72674 -1.89226 -0.467599 0
M  V30 12 H -2.04059 1.67624 1.34392 0
M  V30 13 H -2.70272 2.54946 -0.00790572 0
M  V30 14 H -2.08571 0.657517 -1.42105 0
M  V30 15 H -3.43421 0.151147 -0.377287 0
M  V30 16 H -1.86585 -0.753302 1.31228 0
M  V30 17 H 0.00504117 0.0111393 -1.87838 0
M  V30 18 H 2.43737 0.513196 -1.82595 0
M  V30 19 H 2.47825 0.0305838 2.36872 0
M  V30 20 H 4.66719 -0.128191 0.686563 0
M  V30 21 H 4.37088 1.50742 0.0344956 0
M  V30 22 H -2.45545 -2.55006 0.0643613 0
M  V30 23 H -2.14708 -1.69757 -1.46683 0
M  V30 24 H -0.775906 -2.45455 -0.521981 0
M  V30 END ATOM
M  V30 BEGIN BOND
M  V30 1 1 1 2
M  V30 2 1 2 3
M  V30 3 1 3 4
M  V30 4 2 4 5
M  V30 5 1 5 6
M  V30 6 2 6 7
M  V30 7 1 7 8
M  V30 8 2 8 9
M  V30 9 1 7 10
M  V30 10 1 3 11
M  V30 11 1 9 4
M  V30 12 1 1 12
M  V30 13 1 1 13
M  V30 14 1 2 14
M  V30 15 1 2 15
M  V30 16 1 3 16
M  V30 17 1 5 17
M  V30 18 1 6 18
M  V30 19 1 8 19
M  V30 20 1 10 20
M  V30 21 1 10 21
M  V30 22 1 11 22
M  V30 23 1 11 23
M  V30 24 1 11 24
M  V30 END BOND
M  V30 END CTAB
M  END
