
     RDKit          3D

  0  0  0  0  0  0  0  0  0  0999 V3000
M  V30 BEGIN CTAB
M  V30 COUNTS 47 49 0 0 0
M  V30 BEGIN ATOM
M  V30 1 C 2.69461 1.46996 -1.1493 0
M  V30 2 N 2.05705 0.307083 -0.522886 0
M  V30 3 C 3.09097 -0.249182 0.383128 0
M  V30 4 C 4.17291 -0.853648 -0.414443 0
M  V30 5 C 5.43504 -0.527615 -0.437354 0
M  V30 6 C 5.99553 0.545008 0.366846 0
M  V30 7 N 6.62344 1.58229 -0.482938 0
M  V30 8 C 0.897446 0.736097 0.266338 0
M  V30 9 C 0.0871236 -0.457158 0.603834 0 CFG=1
M  V30 10 O -1.0308 -0.258572 1.37258 0
M  V30 11 C -2.02167 -1.18437 1.02225 0 CFG=2
M  V30 12 C -1.39351 -2.04716 0.0643598 0 CFG=1
M  V30 13 F -2.03876 -2.9537 -0.676049 0
M  V30 14 C -0.480347 -1.10981 -0.698274 0 CFG=2
M  V30 15 O 0.523752 -1.7453 -1.38274 0
M  V30 16 N -3.20096 -0.449224 0.743405 0
M  V30 17 C -3.56964 0.578378 1.5745 0
M  V30 18 N -4.70306 1.12776 1.16107 0
M  V30 19 C -5.1008 0.496546 0.0783716 0
M  V30 20 C -6.19894 0.620387 -0.779888 0
M  V30 21 N -7.18078 1.60205 -0.556698 0
M  V30 22 N -6.3518 -0.193631 -1.84037 0
M  V30 23 C -5.41681 -1.13269 -2.05394 0
M  V30 24 N -4.37687 -1.2407 -1.23036 0
M  V30 25 C -4.15516 -0.481965 -0.169011 0
M  V30 26 H 3.14422 2.12395 -0.378447 0
M  V30 27 H 1.95794 2.02453 -1.72049 0
M  V30 28 H 3.45614 1.06792 -1.8297 0
M  V30 29 H 2.64748 -0.992014 1.03598 0
M  V30 30 H 3.45656 0.674232 0.921791 0
M  V30 31 H 3.88098 -1.6966 -1.07631 0
M  V30 32 H 6.13479 -1.08236 -1.09377 0
M  V30 33 H 6.89202 0.104356 0.91232 0
M  V30 34 H 5.37151 0.992297 1.13421 0
M  V30 35 H 7.2635 2.18672 0.0511631 0
M  V30 36 H 5.96322 2.02982 -1.11799 0
M  V30 37 H 0.373132 1.52176 -0.298007 0
M  V30 38 H 1.25012 1.17846 1.2432 0
M  V30 39 H 0.700488 -1.23961 1.05794 0
M  V30 40 H -2.15104 -1.78453 2.00261 0
M  V30 41 H -0.63806 -2.67959 0.659051 0
M  V30 42 H -1.01908 -0.36075 -1.27725 0
M  V30 43 H 0.582938 -1.32079 -2.27545 0
M  V30 44 H -3.04194 0.930035 2.46539 0
M  V30 45 H -6.92086 2.60422 -0.553437 0
M  V30 46 H -8.1767 1.35099 -0.399769 0
M  V30 47 H -5.48529 -1.81385 -2.88645 0
M  V30 END ATOM
M  V30 BEGIN BOND
M  V30 1 1 1 2
M  V30 2 1 2 3
M  V30 3 1 3 4
M  V30 4 2 4 5
M  V30 5 1 5 6
M  V30 6 1 6 7
M  V30 7 1 2 8
M  V30 8 1 8 9
M  V30 9 1 9 10
M  V30 10 1 10 11
M  V30 11 1 11 12
M  V30 12 1 12 13
M  V30 13 1 12 14
M  V30 14 1 14 15
M  V30 15 1 11 16
M  V30 16 1 16 17
M  V30 17 2 17 18
M  V30 18 1 18 19
M  V30 19 2 19 20
M  V30 20 1 20 21
M  V30 21 1 20 22
M  V30 22 2 22 23
M  V30 23 1 23 24
M  V30 24 2 24 25
M  V30 25 1 14 9
M  V30 26 1 25 16
M  V30 27 1 25 19
M  V30 28 1 1 26
M  V30 29 1 1 27
M  V30 30 1 1 28
M  V30 31 1 3 29
M  V30 32 1 3 30
M  V30 33 1 4 31
M  V30 34 1 5 32
M  V30 35 1 6 33
M  V30 36 1 6 34
M  V30 37 1 7 35
M  V30 38 1 7 36
M  V30 39 1 8 37
M  V30 40 1 8 38
M  V30 41 1 9 39 CFG=1
M  V30 42 1 11 40 CFG=1
M  V30 43 1 12 41 CFG=1
M  V30 44 1 14 42 CFG=3
M  V30 45 1 15 43
M  V30 46 1 17 44
M  V30 47 1 21 45
M  V30 48 1 21 46
M  V30 49 1 23 47
M  V30 END BOND
M  V30 END CTAB
M  END
