
     RDKit          3D

  0  0  0  0  0  0  0  0  0  0999 V3000
M  V30 BEGIN CTAB
M  V30 COUNTS 15 15 0 0 0
M  V30 BEGIN ATOM
M  V30 1 N 2.6347 -0.517823 0.24141 0
M  V30 2 C 1.33057 0.0285154 0.0624987 0
M  V30 3 N 1.12371 1.33271 -0.207744 0
M  V30 4 C -0.0856257 1.84391 -0.374551 0
M  V30 5 Cl -0.38019 3.54615 -0.728592 0
M  V30 6 C -1.2008 1.03872 -0.274775 0
M  V30 7 C -0.987921 -0.305689 0.00377964 0
M  V30 8 N -2.12116 -1.14287 0.108928 0
M  V30 9 N 0.260263 -0.778212 0.164999 0 CHG=1
M  V30 10 O 0.467062 -2.12835 0.444358 0 CHG=-1
M  V30 11 H 3.04767 -1.25865 -0.363188 0
M  V30 12 H 3.2136 -0.152264 1.02896 0
M  V30 13 H -2.21319 1.40492 -0.402149 0
M  V30 14 H -2.49729 -1.6325 -0.725124 0
M  V30 15 H -2.59141 -1.27857 1.02119 0
M  V30 END ATOM
M  V30 BEGIN BOND
M  V30 1 1 1 2
M  V30 2 2 2 3
M  V30 3 1 3 4
M  V30 4 1 4 5
M  V30 5 2 4 6
M  V30 6 1 6 7
M  V30 7 1 7 8
M  V30 8 2 7 9
M  V30 9 1 9 10
M  V30 10 1 9 2
M  V30 11 1 1 11
M  V30 12 1 1 12
M  V30 13 1 6 13
M  V30 14 1 8 14
M  V30 15 1 8 15
M  V30 END BOND
M  V30 END CTAB
M  END
