
     RDKit          3D

  0  0  0  0  0  0  0  0  0  0999 V3000
M  V30 BEGIN CTAB
M  V30 COUNTS 42 45 0 0 0
M  V30 BEGIN ATOM
M  V30 1 N 4.18381 -0.938054 0.385798 0
M  V30 2 C 2.87431 -1.39846 0.813704 0
M  V30 3 C 2.33754 -2.65066 0.191177 0
M  V30 4 C 1.71395 -1.28954 -0.165347 0
M  V30 5 O 0.488728 -1.08319 0.388125 0
M  V30 6 C -0.372458 -0.306057 -0.387995 0
M  V30 7 C -0.613888 -0.942583 -1.69691 0
M  V30 8 C -1.74878 -1.41515 -2.1443 0
M  V30 9 C -2.93445 -1.3307 -1.31476 0
M  V30 10 C -2.82851 -0.777876 -0.154698 0
M  V30 11 C -3.85469 -0.549423 0.927855 0
M  V30 12 C -3.06882 -0.847519 2.198 0
M  V30 13 C -1.60368 -0.77446 1.7851 0
M  V30 14 C -1.61759 -0.129808 0.418028 0
M  V30 15 C 0.199633 1.07944 -0.572192 0
M  V30 16 C -0.375249 1.90261 -1.51603 0
M  V30 17 C 0.135086 3.17854 -1.70066 0
M  V30 18 C 1.2035 3.55558 -0.918195 0
M  V30 19 C 1.78301 2.73535 0.0283714 0
M  V30 20 N 2.88437 3.17986 0.806563 0
M  V30 21 N 1.24523 1.50153 0.166504 0
M  V30 22 H 4.15313 -0.561805 -0.584025 0
M  V30 23 H 4.8156 -1.77462 0.444486 0
M  V30 24 H 2.67549 -1.19976 1.88988 0
M  V30 25 H 1.74111 -3.35303 0.792648 0
M  V30 26 H 2.98228 -3.13105 -0.56728 0
M  V30 27 H 1.99535 -0.871869 -1.14961 0
M  V30 28 H 0.242903 -1.03709 -2.38138 0
M  V30 29 H -1.8413 -1.87545 -3.1269 0
M  V30 30 H -3.87644 -1.72769 -1.67785 0
M  V30 31 H -4.1334 0.519618 0.979707 0
M  V30 32 H -4.72114 -1.22826 0.808071 0
M  V30 33 H -3.35613 -1.86288 2.53508 0
M  V30 34 H -3.27288 -0.142092 3.00437 0
M  V30 35 H -1.24315 -1.82348 1.74943 0
M  V30 36 H -0.990613 -0.220548 2.50606 0
M  V30 37 H -1.87257 0.947767 0.591033 0
M  V30 38 H -1.20947 1.50908 -2.07647 0
M  V30 39 H -0.324879 3.81317 -2.44362 0
M  V30 40 H 1.62531 4.54511 -1.03766 0
M  V30 41 H 2.91671 4.19109 1.05208 0
M  V30 42 H 3.66302 2.58436 1.15382 0
M  V30 END ATOM
M  V30 BEGIN BOND
M  V30 1 1 1 2
M  V30 2 1 2 3
M  V30 3 1 3 4
M  V30 4 1 4 5
M  V30 5 1 5 6
M  V30 6 1 6 7
M  V30 7 2 7 8
M  V30 8 1 8 9
M  V30 9 2 9 10
M  V30 10 1 10 11
M  V30 11 1 11 12
M  V30 12 1 12 13
M  V30 13 1 13 14
M  V30 14 1 6 15
M  V30 15 2 15 16
M  V30 16 1 16 17
M  V30 17 2 17 18
M  V30 18 1 18 19
M  V30 19 1 19 20
M  V30 20 2 19 21
M  V30 21 1 4 2
M  V30 22 1 14 6
M  V30 23 1 21 15
M  V30 24 1 14 10
M  V30 25 1 1 22
M  V30 26 1 1 23
M  V30 27 1 2 24
M  V30 28 1 3 25
M  V30 29 1 3 26
M  V30 30 1 4 27
M  V30 31 1 7 28
M  V30 32 1 8 29
M  V30 33 1 9 30
M  V30 34 1 11 31
M  V30 35 1 11 32
M  V30 36 1 12 33
M  V30 37 1 12 34
M  V30 38 1 13 35
M  V30 39 1 13 36
M  V30 40 1 14 37
M  V30 41 1 16 38
M  V30 42 1 17 39
M  V30 43 1 18 40
M  V30 44 1 20 41
M  V30 45 1 20 42
M  V30 END BOND
M  V30 END CTAB
M  END
