
     RDKit          3D

  0  0  0  0  0  0  0  0  0  0999 V3000
M  V30 BEGIN CTAB
M  V30 COUNTS 39 40 0 0 0
M  V30 BEGIN ATOM
M  V30 1 O -0.777135 -1.25562 -2.19885 0
M  V30 2 C -0.875184 -0.658886 -1.13007 0
M  V30 3 C -2.26018 -0.438921 -0.55805 0
M  V30 4 N -3.1913 -1.06363 -1.45156 0
M  V30 5 C -2.33784 -1.13309 0.776658 0
M  V30 6 C -3.79265 -0.994925 1.20124 0
M  V30 7 C -3.97892 0.45101 1.58891 0
M  V30 8 C -3.50837 1.43138 0.594871 0
M  V30 9 C -2.5016 1.03059 -0.384377 0
M  V30 10 N 0.210885 -0.163089 -0.395632 0
M  V30 11 C 1.58269 -0.24681 -0.735815 0
M  V30 12 C 2.06567 -0.606883 -1.9707 0
M  V30 13 C 3.44719 -0.67596 -2.19245 0
M  V30 14 C 4.37443 -0.396294 -1.21966 0
M  V30 15 C 3.88483 -0.0364096 0.0127802 0
M  V30 16 C 2.54232 0.0342752 0.241382 0
M  V30 17 S 5.01534 0.337555 1.31114 0
M  V30 18 O 6.23323 -0.502048 1.19313 0
M  V30 19 O 4.35563 0.0802626 2.64041 0
M  V30 20 N 5.39136 2.03794 1.27826 0
M  V30 21 H -3.30524 -2.06303 -1.14938 0
M  V30 22 H -2.87086 -1.06255 -2.44442 0
M  V30 23 H -2.03412 -2.18634 0.689464 0
M  V30 24 H -1.73762 -0.545069 1.49469 0
M  V30 25 H -3.98326 -1.64107 2.06506 0
M  V30 26 H -4.49281 -1.23658 0.371941 0
M  V30 27 H -5.05784 0.567064 1.85446 0
M  V30 28 H -3.44061 0.563295 2.57734 0
M  V30 29 H -3.15267 2.34672 1.1589 0
M  V30 30 H -4.41689 1.82039 0.0423612 0
M  V30 31 H -1.52078 1.49358 -0.147577 0
M  V30 32 H -2.74773 1.42304 -1.41648 0
M  V30 33 H 0.00745778 0.343675 0.530288 0
M  V30 34 H 1.38194 -0.824253 -2.76132 0
M  V30 35 H 3.78632 -0.960251 -3.16646 0
M  V30 36 H 5.44245 -0.455932 -1.4121 0
M  V30 37 H 2.18663 0.320546 1.22621 0
M  V30 38 H 4.53362 2.53314 1.60205 0
M  V30 39 H 5.54161 2.33318 0.283362 0
M  V30 END ATOM
M  V30 BEGIN BOND
M  V30 1 2 1 2
M  V30 2 1 2 3
M  V30 3 1 3 4
M  V30 4 1 3 5
M  V30 5 1 5 6
M  V30 6 1 6 7
M  V30 7 1 7 8
M  V30 8 1 8 9
M  V30 9 1 2 10
M  V30 10 1 10 11
M  V30 11 2 11 12
M  V30 12 1 12 13
M  V30 13 2 13 14
M  V30 14 1 14 15
M  V30 15 2 15 16
M  V30 16 1 15 17
M  V30 17 2 17 18
M  V30 18 2 17 19
M  V30 19 1 17 20
M  V30 20 1 9 3
M  V30 21 1 16 11
M  V30 22 1 4 21
M  V30 23 1 4 22
M  V30 24 1 5 23
M  V30 25 1 5 24
M  V30 26 1 6 25
M  V30 27 1 6 26
M  V30 28 1 7 27
M  V30 29 1 7 28
M  V30 30 1 8 29
M  V30 31 1 8 30
M  V30 32 1 9 31
M  V30 33 1 9 32
M  V30 34 1 10 33
M  V30 35 1 12 34
M  V30 36 1 13 35
M  V30 37 1 14 36
M  V30 38 1 16 37
M  V30 39 1 20 38
M  V30 40 1 20 39
M  V30 END BOND
M  V30 END CTAB
M  END
