
     RDKit          3D

  0  0  0  0  0  0  0  0  0  0999 V3000
M  V30 BEGIN CTAB
M  V30 COUNTS 27 26 0 0 0
M  V30 BEGIN ATOM
M  V30 1 O -4.03109 1.845 -0.512183 0
M  V30 2 N -4.12061 0.497331 -0.809038 0
M  V30 3 C -3.32479 -0.3625 -0.283125 0
M  V30 4 C -2.29399 0.129487 0.662324 0
M  V30 5 C -0.897129 -0.195147 0.16585 0
M  V30 6 O 0.0456159 0.253335 1.02788 0
M  V30 7 C 1.33862 0.0635177 0.766951 0
M  V30 8 C 1.90218 0.649568 -0.484923 0
M  V30 9 C 3.34557 0.29527 -0.533907 0
M  V30 10 N 3.81381 -0.401605 -1.51201 0
M  V30 11 O 2.98366 -0.837355 -2.54126 0
M  V30 12 N 4.20896 0.740945 0.524923 0
M  V30 13 N -3.46712 -1.72928 -0.627568 0
M  V30 14 H -4.20728 2.15006 0.444613 0
M  V30 15 H -2.42617 1.18384 0.888708 0
M  V30 16 H -2.48267 -0.423344 1.62712 0
M  V30 17 H -0.885985 -1.28026 -0.0398812 0
M  V30 18 H -0.786243 0.361907 -0.800075 0
M  V30 19 H 1.55138 -1.04549 0.730504 0
M  V30 20 H 1.95141 0.439509 1.6142 0
M  V30 21 H 1.85799 1.77213 -0.36266 0
M  V30 22 H 1.44992 0.318211 -1.41055 0
M  V30 23 H 2.47256 -1.71219 -2.35773 0
M  V30 24 H 4.42896 1.74348 0.602689 0
M  V30 25 H 4.60819 0.0605108 1.20603 0
M  V30 26 H -3.68939 -2.0655 -1.59297 0
M  V30 27 H -3.34637 -2.45144 0.111957 0
M  V30 END ATOM
M  V30 BEGIN BOND
M  V30 1 1 1 2
M  V30 2 2 2 3
M  V30 3 1 3 4
M  V30 4 1 4 5
M  V30 5 1 5 6
M  V30 6 1 6 7
M  V30 7 1 7 8
M  V30 8 1 8 9
M  V30 9 2 9 10
M  V30 10 1 10 11
M  V30 11 1 9 12
M  V30 12 1 3 13
M  V30 13 1 1 14
M  V30 14 1 4 15
M  V30 15 1 4 16
M  V30 16 1 5 17
M  V30 17 1 5 18
M  V30 18 1 7 19
M  V30 19 1 7 20
M  V30 20 1 8 21
M  V30 21 1 8 22
M  V30 22 1 11 23
M  V30 23 1 12 24
M  V30 24 1 12 25
M  V30 25 1 13 26
M  V30 26 1 13 27
M  V30 END BOND
M  V30 END CTAB
M  END
