
     RDKit          3D

  0  0  0  0  0  0  0  0  0  0999 V3000
M  V30 BEGIN CTAB
M  V30 COUNTS 45 46 0 0 0
M  V30 BEGIN ATOM
M  V30 1 C 0.324033 -4.04326 0.221554 0
M  V30 2 O 0.275811 -2.79693 0.791723 0
M  V30 3 C 0.177149 -1.81086 -0.189164 0
M  V30 4 C 1.38119 -0.944027 -0.174558 0
M  V30 5 C 2.35096 -0.227355 -0.148411 0
M  V30 6 C 3.50148 0.641801 -0.0970726 0
M  V30 7 C 3.71659 1.4582 1.01091 0
M  V30 8 N 4.78896 2.25819 1.04168 0
M  V30 9 C 5.69161 2.32373 0.0465386 0
M  V30 10 N 6.8197 3.19763 0.133203 0
M  V30 11 N 5.49179 1.53929 -1.02647 0
M  V30 12 C 4.42042 0.706858 -1.11296 0
M  V30 13 N 4.22621 -0.118523 -2.2616 0
M  V30 14 C -1.0322 -0.993594 0.0767983 0
M  V30 15 C -2.20169 -1.64453 0.395743 0
M  V30 16 C -3.37748 -0.93534 0.658003 0
M  V30 17 O -4.56292 -1.58037 0.980663 0
M  V30 18 C -4.54214 -2.99477 1.03606 0
M  V30 19 C -3.31654 0.44302 0.583803 0
M  V30 20 O -4.46461 1.16625 0.838562 0
M  V30 21 C -5.31516 1.45929 -0.257367 0
M  V30 22 C -2.16637 1.12301 0.268424 0
M  V30 23 O -2.18443 2.49946 0.213973 0
M  V30 24 C -1.07931 3.2997 -0.0953565 0
M  V30 25 C -1.02006 0.40611 0.0138307 0
M  V30 26 H 0.401476 -4.79508 1.02314 0
M  V30 27 H 1.20923 -4.13618 -0.440762 0
M  V30 28 H -0.599715 -4.22346 -0.34504 0
M  V30 29 H 0.162607 -2.29447 -1.18642 0
M  V30 30 H 3.01368 1.43626 1.8347 0
M  V30 31 H 6.65125 4.2317 0.0480826 0
M  V30 32 H 7.7881 2.87219 0.27428 0
M  V30 33 H 4.69019 -1.05792 -2.32017 0
M  V30 34 H 3.63784 0.155656 -3.0702 0
M  V30 35 H -2.28418 -2.7174 0.462243 0
M  V30 36 H -5.5188 -3.36666 1.39594 0
M  V30 37 H -4.29909 -3.35443 0.0069273 0
M  V30 38 H -3.7752 -3.36589 1.77372 0
M  V30 39 H -5.04171 0.874982 -1.15928 0
M  V30 40 H -6.38024 1.31562 -0.00991494 0
M  V30 41 H -5.16621 2.53361 -0.54468 0
M  V30 42 H -1.39934 4.33562 -0.283511 0
M  V30 43 H -0.397391 3.2945 0.794273 0
M  V30 44 H -0.499052 2.92985 -0.964704 0
M  V30 45 H -0.0964274 0.898536 -0.237127 0
M  V30 END ATOM
M  V30 BEGIN BOND
M  V30 1 1 1 2
M  V30 2 1 2 3
M  V30 3 1 3 4
M  V30 4 3 4 5
M  V30 5 1 5 6
M  V30 6 2 6 7
M  V30 7 1 7 8
M  V30 8 2 8 9
M  V30 9 1 9 10
M  V30 10 1 9 11
M  V30 11 2 11 12
M  V30 12 1 12 13
M  V30 13 1 3 14
M  V30 14 2 14 15
M  V30 15 1 15 16
M  V30 16 1 16 17
M  V30 17 1 17 18
M  V30 18 2 16 19
M  V30 19 1 19 20
M  V30 20 1 20 21
M  V30 21 1 19 22
M  V30 22 1 22 23
M  V30 23 1 23 24
M  V30 24 2 22 25
M  V30 25 1 12 6
M  V30 26 1 25 14
M  V30 27 1 1 26
M  V30 28 1 1 27
M  V30 29 1 1 28
M  V30 30 1 3 29
M  V30 31 1 7 30
M  V30 32 1 10 31
M  V30 33 1 10 32
M  V30 34 1 13 33
M  V30 35 1 13 34
M  V30 36 1 15 35
M  V30 37 1 18 36
M  V30 38 1 18 37
M  V30 39 1 18 38
M  V30 40 1 21 39
M  V30 41 1 21 40
M  V30 42 1 21 41
M  V30 43 1 24 42
M  V30 44 1 24 43
M  V30 45 1 24 44
M  V30 46 1 25 45
M  V30 END BOND
M  V30 END CTAB
M  END
