
     RDKit          3D

  0  0  0  0  0  0  0  0  0  0999 V3000
M  V30 BEGIN CTAB
M  V30 COUNTS 58 61 0 0 0
M  V30 BEGIN ATOM
M  V30 1 O -9.04282 0.594719 -0.551699 0
M  V30 2 C -7.85784 0.0567223 -0.831216 0
M  V30 3 O -7.56729 -0.23999 -2.01222 0
M  V30 4 C -6.87948 -0.190392 0.244446 0
M  V30 5 C -5.57548 0.514257 -0.146091 0 CFG=1
M  V30 6 C -4.54129 0.334094 0.866063 0
M  V30 7 O -4.96409 0.283338 2.07857 0
M  V30 8 N -3.16389 0.212339 0.677718 0
M  V30 9 C -2.30116 -0.0286457 1.84937 0
M  V30 10 C -1.12686 -0.894245 1.42011 0
M  V30 11 C -0.217806 -0.140421 0.478287 0
M  V30 12 C -1.0571 0.898106 -0.202288 0
M  V30 13 C -2.4406 0.324193 -0.565162 0
M  V30 14 O 0.781785 0.484961 1.23264 0
M  V30 15 C 1.61965 1.22292 0.41483 0
M  V30 16 C 2.43709 0.333551 -0.543114 0 CFG=2
M  V30 17 C 2.01675 -1.0562 -0.29002 0 CFG=2
M  V30 18 C 0.472311 -1.0957 -0.419469 0
M  V30 19 C 2.45145 -1.56977 1.03859 0
M  V30 20 O 2.37332 -1.96731 -1.32129 0
M  V30 21 N 3.79331 0.701728 -0.38002 0
M  V30 22 C 4.18932 1.96959 -0.0956305 0
M  V30 23 N 5.51696 2.03359 0.00552351 0
M  V30 24 C 5.98056 0.782428 -0.218927 0
M  V30 25 C 4.92481 -0.0373041 -0.456303 0
M  V30 26 N 5.15827 -1.32576 -0.706653 0
M  V30 27 C 6.38674 -1.82896 -0.730521 0
M  V30 28 N 7.45885 -1.03981 -0.498221 0
M  V30 29 C 7.27839 0.265531 -0.240766 0
M  V30 30 N 8.3517 1.16947 0.0178889 0
M  V30 31 N -5.20434 0.111256 -1.45869 0
M  V30 32 H -9.31831 1.45929 -0.236081 0
M  V30 33 H -7.24979 0.199831 1.21647 0
M  V30 34 H -6.66821 -1.27092 0.333724 0
M  V30 35 H -5.86111 1.60955 -0.118889 0
M  V30 36 H -1.99088 0.910406 2.31787 0
M  V30 37 H -2.90694 -0.62856 2.55229 0
M  V30 38 H -0.624016 -1.23324 2.34329 0
M  V30 39 H -1.57215 -1.79539 0.946972 0
M  V30 40 H -1.25803 1.71084 0.5471 0
M  V30 41 H -0.640449 1.27462 -1.15172 0
M  V30 42 H -2.34603 -0.646887 -1.0449 0
M  V30 43 H -2.90853 1.11061 -1.23038 0
M  V30 44 H 1.14715 2.01191 -0.16482 0
M  V30 45 H 2.3028 1.75345 1.14281 0
M  V30 46 H 2.13352 0.58874 -1.59254 0
M  V30 47 H 0.279707 -0.765559 -1.47237 0
M  V30 48 H 0.127738 -2.1458 -0.367402 0
M  V30 49 H 3.17973 -0.908289 1.55019 0
M  V30 50 H 2.95663 -2.57607 0.941553 0
M  V30 51 H 1.60821 -1.7807 1.73168 0
M  V30 52 H 2.52446 -2.8365 -0.874919 0
M  V30 53 H 3.56198 2.86393 0.0401962 0
M  V30 54 H 6.59265 -2.89252 -0.935858 0
M  V30 55 H 8.2391 1.894 0.74401 0
M  V30 56 H 9.21709 1.06958 -0.534475 0
M  V30 57 H -4.67721 -0.739865 -1.5617 0
M  V30 58 H -5.10032 0.88525 -2.10039 0
M  V30 END ATOM
M  V30 BEGIN BOND
M  V30 1 1 1 2
M  V30 2 2 2 3
M  V30 3 1 2 4
M  V30 4 1 4 5
M  V30 5 1 5 6
M  V30 6 2 6 7
M  V30 7 1 6 8
M  V30 8 1 8 9
M  V30 9 1 9 10
M  V30 10 1 10 11
M  V30 11 1 11 12
M  V30 12 1 12 13
M  V30 13 1 11 14
M  V30 14 1 14 15
M  V30 15 1 15 16
M  V30 16 1 16 17
M  V30 17 1 17 18
M  V30 18 1 17 19
M  V30 19 1 17 20 CFG=3
M  V30 20 1 16 21
M  V30 21 1 21 22
M  V30 22 2 22 23
M  V30 23 1 23 24
M  V30 24 2 24 25
M  V30 25 1 25 26
M  V30 26 2 26 27
M  V30 27 1 27 28
M  V30 28 2 28 29
M  V30 29 1 29 30
M  V30 30 1 5 31
M  V30 31 1 13 8
M  V30 32 1 25 21
M  V30 33 1 18 11
M  V30 34 1 29 24
M  V30 35 1 1 32
M  V30 36 1 4 33
M  V30 37 1 4 34
M  V30 38 1 5 35 CFG=3
M  V30 39 1 9 36
M  V30 40 1 9 37
M  V30 41 1 10 38
M  V30 42 1 10 39
M  V30 43 1 12 40
M  V30 44 1 12 41
M  V30 45 1 13 42
M  V30 46 1 13 43
M  V30 47 1 15 44
M  V30 48 1 15 45
M  V30 49 1 16 46 CFG=3
M  V30 50 1 18 47
M  V30 51 1 18 48
M  V30 52 1 19 49
M  V30 53 1 19 50
M  V30 54 1 19 51
M  V30 55 1 20 52
M  V30 56 1 22 53
M  V30 57 1 27 54
M  V30 58 1 30 55
M  V30 59 1 30 56
M  V30 60 1 31 57
M  V30 61 1 31 58
M  V30 END BOND
M  V30 END CTAB
M  END
