
     RDKit          3D

  0  0  0  0  0  0  0  0  0  0999 V3000
M  V30 BEGIN CTAB
M  V30 COUNTS 43 45 0 0 0
M  V30 BEGIN ATOM
M  V30 1 N 3.58554 -1.09718 2.06354 0
M  V30 2 C 3.18328 -0.580127 0.740987 0
M  V30 3 C 3.2317 0.939814 0.878131 0
M  V30 4 C 3.68042 1.48752 -0.432876 0
M  V30 5 C 4.28224 0.317894 -1.20995 0
M  V30 6 C 4.19488 -0.884351 -0.288137 0
M  V30 7 C 1.79185 -1.02386 0.461226 0
M  V30 8 N 1.25046 -2.20247 0.167883 0
M  V30 9 O -0.0643936 -2.05093 0.0443973 0
M  V30 10 C -0.415606 -0.844795 0.237631 0
M  V30 11 N 0.753122 -0.165492 0.50286 0
M  V30 12 C -1.70539 -0.109692 0.236484 0
M  V30 13 C -2.69077 -0.685104 1.2234 0
M  V30 14 C -3.50382 0.504348 1.7256 0
M  V30 15 C -3.73788 1.39194 0.540894 0
M  V30 16 C -3.74861 0.650291 -0.790733 0
M  V30 17 C -2.3883 -0.00615754 -1.07341 0
M  V30 18 C -2.54156 -1.30166 -1.79555 0
M  V30 19 N -1.59617 0.876852 -1.93109 0
M  V30 20 H 3.55589 -2.14907 1.91325 0
M  V30 21 H 2.94211 -0.760186 2.78554 0
M  V30 22 H 2.19526 1.33063 1.08102 0
M  V30 23 H 3.84914 1.29584 1.69767 0
M  V30 24 H 4.4805 2.26122 -0.337891 0
M  V30 25 H 2.86721 1.98624 -0.999172 0
M  V30 26 H 3.63653 0.118301 -2.09387 0
M  V30 27 H 5.30302 0.547782 -1.53859 0
M  V30 28 H 5.2084 -0.947382 0.201679 0
M  V30 29 H 3.97735 -1.82586 -0.84554 0
M  V30 30 H -1.5179 0.979607 0.537318 0
M  V30 31 H -2.21944 -1.27102 2.03822 0
M  V30 32 H -3.43168 -1.34875 0.708549 0
M  V30 33 H -4.43116 0.166291 2.23048 0
M  V30 34 H -2.84173 1.04446 2.44437 0
M  V30 35 H -4.76061 1.82934 0.663712 0
M  V30 36 H -3.03603 2.276 0.502439 0
M  V30 37 H -4.52168 -0.128262 -0.730321 0
M  V30 38 H -3.93357 1.36199 -1.59323 0
M  V30 39 H -3.24246 -1.1636 -2.65465 0
M  V30 40 H -2.86195 -2.13423 -1.17402 0
M  V30 41 H -1.54777 -1.56898 -2.20681 0
M  V30 42 H -2.19709 1.38877 -2.62114 0
M  V30 43 H -1.03335 1.49402 -1.31032 0
M  V30 END ATOM
M  V30 BEGIN BOND
M  V30 1 1 1 2
M  V30 2 1 2 3
M  V30 3 1 3 4
M  V30 4 1 4 5
M  V30 5 1 5 6
M  V30 6 1 2 7
M  V30 7 2 7 8
M  V30 8 1 8 9
M  V30 9 1 9 10
M  V30 10 2 10 11
M  V30 11 1 10 12
M  V30 12 1 12 13
M  V30 13 1 13 14
M  V30 14 1 14 15
M  V30 15 1 15 16
M  V30 16 1 16 17
M  V30 17 1 17 18
M  V30 18 1 17 19
M  V30 19 1 6 2
M  V30 20 1 11 7
M  V30 21 1 17 12
M  V30 22 1 1 20
M  V30 23 1 1 21
M  V30 24 1 3 22
M  V30 25 1 3 23
M  V30 26 1 4 24
M  V30 27 1 4 25
M  V30 28 1 5 26
M  V30 29 1 5 27
M  V30 30 1 6 28
M  V30 31 1 6 29
M  V30 32 1 12 30
M  V30 33 1 13 31
M  V30 34 1 13 32
M  V30 35 1 14 33
M  V30 36 1 14 34
M  V30 37 1 15 35
M  V30 38 1 15 36
M  V30 39 1 16 37
M  V30 40 1 16 38
M  V30 41 1 18 39
M  V30 42 1 18 40
M  V30 43 1 18 41
M  V30 44 1 19 42
M  V30 45 1 19 43
M  V30 END BOND
M  V30 END CTAB
M  END
