
     RDKit          3D

  0  0  0  0  0  0  0  0  0  0999 V3000
M  V30 BEGIN CTAB
M  V30 COUNTS 33 34 0 0 0
M  V30 BEGIN ATOM
M  V30 1 O 1.45795 1.9287 -0.642373 0
M  V30 2 C 0.808112 0.912324 -0.322587 0
M  V30 3 O 1.49772 -0.247158 -0.0206237 0
M  V30 4 C 2.88984 -0.304653 -0.0652962 0
M  V30 5 C 3.57584 -0.653049 -1.19877 0
M  V30 6 C 4.95515 -0.708002 -1.23604 0
M  V30 7 C 5.64803 -0.393644 -0.0672575 0
M  V30 8 C 4.95909 -0.0413794 1.07932 0
M  V30 9 C 3.56206 0.00799519 1.09524 0
M  V30 10 N 7.05786 -0.449317 -0.103682 0
M  V30 11 C -0.663762 1.01882 -0.288456 0
M  V30 12 C -1.36187 -0.0409398 0.0458856 0
M  V30 13 C -2.80683 0.0226446 0.0911322 0
M  V30 14 C -3.54334 -1.11922 0.450669 0
M  V30 15 C -4.91277 -1.11412 0.50936 0
M  V30 16 C -5.64933 0.0350517 0.212436 0
M  V30 17 C -4.94126 1.15927 -0.140796 0
M  V30 18 C -3.55809 1.13496 -0.194585 0
M  V30 19 N -7.06546 0.0211772 0.278623 0
M  V30 20 H 3.01611 -0.889306 -2.08152 0
M  V30 21 H 5.51586 -0.981424 -2.1231 0
M  V30 22 H 5.53751 0.196047 1.96821 0
M  V30 23 H 3.04811 0.289498 2.01558 0
M  V30 24 H 7.59325 0.327404 -0.521777 0
M  V30 25 H 7.54721 -1.27095 0.290194 0
M  V30 26 H -1.09865 1.97168 -0.542404 0
M  V30 27 H -0.852118 -0.940679 0.281321 0
M  V30 28 H -3.01018 -2.02621 0.687136 0
M  V30 29 H -5.49376 -1.98981 0.785792 0
M  V30 30 H -5.49175 2.05405 -0.373 0
M  V30 31 H -3.05658 2.05667 -0.480713 0
M  V30 32 H -7.53317 0.195797 1.17747 0
M  V30 33 H -7.63078 -0.162217 -0.565388 0
M  V30 END ATOM
M  V30 BEGIN BOND
M  V30 1 2 1 2
M  V30 2 1 2 3
M  V30 3 1 3 4
M  V30 4 2 4 5
M  V30 5 1 5 6
M  V30 6 2 6 7
M  V30 7 1 7 8
M  V30 8 2 8 9
M  V30 9 1 7 10
M  V30 10 1 2 11
M  V30 11 2 11 12
M  V30 12 1 12 13
M  V30 13 2 13 14
M  V30 14 1 14 15
M  V30 15 2 15 16
M  V30 16 1 16 17
M  V30 17 2 17 18
M  V30 18 1 16 19
M  V30 19 1 9 4
M  V30 20 1 18 13
M  V30 21 1 5 20
M  V30 22 1 6 21
M  V30 23 1 8 22
M  V30 24 1 9 23
M  V30 25 1 10 24
M  V30 26 1 10 25
M  V30 27 1 11 26
M  V30 28 1 12 27
M  V30 29 1 14 28
M  V30 30 1 15 29
M  V30 31 1 17 30
M  V30 32 1 18 31
M  V30 33 1 19 32
M  V30 34 1 19 33
M  V30 END BOND
M  V30 END CTAB
M  END
