
     RDKit          3D

  0  0  0  0  0  0  0  0  0  0999 V3000
M  V30 BEGIN CTAB
M  V30 COUNTS 65 69 0 0 0
M  V30 BEGIN ATOM
M  V30 1 C -4.93763 -0.925692 -2.36955 0
M  V30 2 C -5.28977 0.0380102 -1.26145 0
M  V30 3 C -5.36805 -0.693636 0.0011869 0
M  V30 4 N -6.6003 -0.979946 0.479896 0
M  V30 5 C -6.76854 -1.65029 1.6305 0
M  V30 6 N -8.08 -1.95611 2.1442 0
M  V30 7 N -5.66629 -2.0322 2.29922 0
M  V30 8 C -4.41521 -1.77878 1.87748 0
M  V30 9 N -3.24055 -2.17589 2.57269 0
M  V30 10 C -4.25435 -1.08902 0.693546 0
M  V30 11 C -2.94646 -0.784235 0.19024 0
M  V30 12 C -2.44205 0.505191 0.385104 0
M  V30 13 C -1.18414 0.849135 -0.0739223 0
M  V30 14 C -0.373259 -0.0742933 -0.746657 0
M  V30 15 C -0.865736 -1.35267 -0.943914 0
M  V30 16 C -2.12356 -1.64552 -0.467908 0
M  V30 17 N 0.772531 0.57897 -1.05651 0
M  V30 18 C 1.89934 0.0115758 -1.75728 0
M  V30 19 C 2.91222 -0.620691 -0.880802 0
M  V30 20 C 2.83359 -1.96301 -0.581945 0
M  V30 21 C 3.77506 -2.55007 0.23269 0
M  V30 22 C 4.82214 -1.84777 0.781071 0
M  V30 23 C 4.91697 -0.522831 0.497658 0
M  V30 24 C 3.96534 0.0764386 -0.327326 0
M  V30 25 S 5.94397 -2.72595 1.79956 0
M  V30 26 C 7.2381 -3.35528 0.755352 0
M  V30 27 O 5.23956 -3.94015 2.38056 0
M  V30 28 O 6.45769 -1.88307 2.90636 0
M  V30 29 C 0.682478 1.84087 -0.60422 0
M  V30 30 N -0.512014 1.99078 -0.00883289 0
M  V30 31 C 1.64081 2.97593 -0.691281 0
M  V30 32 C 0.997132 4.21576 -1.28242 0
M  V30 33 C 2.01363 5.28478 -0.876282 0
M  V30 34 C 2.22741 4.94662 0.59685 0
M  V30 35 C 1.97197 3.47059 0.723313 0
M  V30 36 H -5.71228 -0.867717 -3.17397 0
M  V30 37 H -4.8694 -1.951 -1.95599 0
M  V30 38 H -3.94575 -0.65385 -2.82015 0
M  V30 39 H -4.52263 0.842063 -1.25908 0
M  V30 40 H -6.23728 0.553854 -1.53127 0
M  V30 41 H -8.42994 -2.93508 2.11834 0
M  V30 42 H -8.63838 -1.15989 2.5311 0
M  V30 43 H -2.547 -1.50703 2.97299 0
M  V30 44 H -3.07727 -3.2019 2.68011 0
M  V30 45 H -3.02597 1.25718 0.898882 0
M  V30 46 H -0.254054 -2.07469 -1.46477 0
M  V30 47 H -2.48128 -2.65113 -0.636301 0
M  V30 48 H 2.40209 0.765989 -2.3993 0
M  V30 49 H 1.48442 -0.741407 -2.49155 0
M  V30 50 H 2.01141 -2.55646 -1.01095 0
M  V30 51 H 3.63437 -3.61938 0.416738 0
M  V30 52 H 5.73527 0.0455015 0.921732 0
M  V30 53 H 4.11743 1.12561 -0.505529 0
M  V30 54 H 8.11339 -3.67532 1.38308 0
M  V30 55 H 7.53909 -2.65628 -0.0245765 0
M  V30 56 H 6.85115 -4.26993 0.228193 0
M  V30 57 H 2.54647 2.75741 -1.25115 0
M  V30 58 H 0.0650729 4.47579 -0.736366 0
M  V30 59 H 0.862423 4.16753 -2.36294 0
M  V30 60 H 1.59895 6.30212 -1.01141 0
M  V30 61 H 2.98179 5.14378 -1.3697 0
M  V30 62 H 1.45802 5.49867 1.17192 0
M  V30 63 H 3.25918 5.15248 0.915771 0
M  V30 64 H 2.8046 2.90743 1.15383 0
M  V30 65 H 1.03409 3.28808 1.31092 0
M  V30 END ATOM
M  V30 BEGIN BOND
M  V30 1 1 1 2
M  V30 2 1 2 3
M  V30 3 2 3 4
M  V30 4 1 4 5
M  V30 5 1 5 6
M  V30 6 2 5 7
M  V30 7 1 7 8
M  V30 8 1 8 9
M  V30 9 2 8 10
M  V30 10 1 10 11
M  V30 11 2 11 12
M  V30 12 1 12 13
M  V30 13 2 13 14
M  V30 14 1 14 15
M  V30 15 2 15 16
M  V30 16 1 14 17
M  V30 17 1 17 18
M  V30 18 1 18 19
M  V30 19 2 19 20
M  V30 20 1 20 21
M  V30 21 2 21 22
M  V30 22 1 22 23
M  V30 23 2 23 24
M  V30 24 1 22 25
M  V30 25 1 25 26
M  V30 26 2 25 27
M  V30 27 2 25 28
M  V30 28 1 17 29
M  V30 29 2 29 30
M  V30 30 1 29 31
M  V30 31 1 31 32
M  V30 32 1 32 33
M  V30 33 1 33 34
M  V30 34 1 34 35
M  V30 35 1 10 3
M  V30 36 1 16 11
M  V30 37 1 24 19
M  V30 38 1 35 31
M  V30 39 1 30 13
M  V30 40 1 1 36
M  V30 41 1 1 37
M  V30 42 1 1 38
M  V30 43 1 2 39
M  V30 44 1 2 40
M  V30 45 1 6 41
M  V30 46 1 6 42
M  V30 47 1 9 43
M  V30 48 1 9 44
M  V30 49 1 12 45
M  V30 50 1 15 46
M  V30 51 1 16 47
M  V30 52 1 18 48
M  V30 53 1 18 49
M  V30 54 1 20 50
M  V30 55 1 21 51
M  V30 56 1 23 52
M  V30 57 1 24 53
M  V30 58 1 26 54
M  V30 59 1 26 55
M  V30 60 1 26 56
M  V30 61 1 31 57
M  V30 62 1 32 58
M  V30 63 1 32 59
M  V30 64 1 33 60
M  V30 65 1 33 61
M  V30 66 1 34 62
M  V30 67 1 34 63
M  V30 68 1 35 64
M  V30 69 1 35 65
M  V30 END BOND
M  V30 END CTAB
M  END
