
     RDKit          3D

  0  0  0  0  0  0  0  0  0  0999 V3000
M  V30 BEGIN CTAB
M  V30 COUNTS 24 24 0 0 0
M  V30 BEGIN ATOM
M  V30 1 N 1.68497 -2.39321 0.477936 0
M  V30 2 C 1.77647 -1.01115 0.223873 0
M  V30 3 C 2.95385 -0.322499 0.370715 0
M  V30 4 C 2.96672 1.03136 0.103224 0
M  V30 5 Br 4.61063 1.97064 0.313172 0
M  V30 6 C 1.83957 1.71014 -0.305125 0
M  V30 7 C 0.64343 1.00566 -0.453686 0
M  V30 8 C 0.624192 -0.344532 -0.187792 0
M  V30 9 N -0.595537 -1.04318 -0.369185 0
M  V30 10 C -1.80978 -0.342858 -0.663799 0
M  V30 11 C -2.38525 0.444362 0.471004 0
M  V30 12 N -3.60812 1.09646 -0.0130041 0
M  V30 13 F 1.86486 3.03941 -0.564667 0
M  V30 14 H 1.75051 -2.83719 1.42049 0
M  V30 15 H 1.53772 -3.03692 -0.352969 0
M  V30 16 H 3.86722 -0.845996 0.696048 0
M  V30 17 H -0.206399 1.58073 -0.789188 0
M  V30 18 H -0.58125 -2.08071 -0.281394 0
M  V30 19 H -1.70888 0.289333 -1.59731 0
M  V30 20 H -2.58275 -1.11051 -0.965576 0
M  V30 21 H -1.7501 1.22696 0.894959 0
M  V30 22 H -2.65019 -0.287241 1.27829 0
M  V30 23 H -3.86472 1.88256 0.641192 0
M  V30 24 H -4.37717 0.378381 -0.0788045 0
M  V30 END ATOM
M  V30 BEGIN BOND
M  V30 1 1 1 2
M  V30 2 2 2 3
M  V30 3 1 3 4
M  V30 4 1 4 5
M  V30 5 2 4 6
M  V30 6 1 6 7
M  V30 7 2 7 8
M  V30 8 1 8 9
M  V30 9 1 9 10
M  V30 10 1 10 11
M  V30 11 1 11 12
M  V30 12 1 6 13
M  V30 13 1 8 2
M  V30 14 1 1 14
M  V30 15 1 1 15
M  V30 16 1 3 16
M  V30 17 1 7 17
M  V30 18 1 9 18
M  V30 19 1 10 19
M  V30 20 1 10 20
M  V30 21 1 11 21
M  V30 22 1 11 22
M  V30 23 1 12 23
M  V30 24 1 12 24
M  V30 END BOND
M  V30 END CTAB
M  END
