
     RDKit          3D

  0  0  0  0  0  0  0  0  0  0999 V3000
M  V30 BEGIN CTAB
M  V30 COUNTS 31 32 0 0 0
M  V30 BEGIN ATOM
M  V30 1 N -2.72738 -1.72567 0.761169 0
M  V30 2 C -2.5535 -1.17312 -0.541442 0 CFG=1
M  V30 3 C -3.28805 0.130553 -0.744118 0
M  V30 4 C -2.67056 1.27423 0.0120666 0
M  V30 5 C -1.26201 0.962729 0.482815 0
M  V30 6 C -0.546556 0.328178 -0.713082 0 CFG=2
M  V30 7 C -1.08695 -1.05045 -0.89953 0
M  V30 8 C 0.906285 0.31047 -0.455625 0
M  V30 9 N 1.51811 -0.337542 0.52883 0
M  V30 10 N 2.80153 -0.10694 0.419533 0
M  V30 11 C 3.01454 0.689585 -0.635584 0
M  V30 12 N 1.81391 0.963097 -1.20242 0
M  V30 13 N 4.29054 1.14392 -1.05202 0
M  V30 14 C 3.8288 -0.642748 1.31717 0
M  V30 15 H -1.89116 -2.19092 1.06862 0
M  V30 16 H -3.28044 -1.2055 1.41484 0
M  V30 17 H -2.99421 -1.89982 -1.25648 0
M  V30 18 H -3.26101 0.351333 -1.83648 0
M  V30 19 H -4.32046 -0.0156726 -0.431841 0
M  V30 20 H -2.5706 2.1568 -0.67374 0
M  V30 21 H -3.27391 1.60418 0.868408 0
M  V30 22 H -1.24048 0.310763 1.36827 0
M  V30 23 H -0.728909 1.9409 0.665016 0
M  V30 24 H -0.803675 0.945188 -1.59844 0
M  V30 25 H -0.908024 -1.32864 -1.97709 0
M  V30 26 H -0.525983 -1.77592 -0.281445 0
M  V30 27 H 4.47865 1.13832 -2.09314 0
M  V30 28 H 5.01763 1.47048 -0.375893 0
M  V30 29 H 4.59357 0.15489 1.48885 0
M  V30 30 H 4.29664 -1.5492 0.877078 0
M  V30 31 H 3.37367 -0.873464 2.29151 0
M  V30 END ATOM
M  V30 BEGIN BOND
M  V30 1 1 1 2
M  V30 2 1 2 3
M  V30 3 1 3 4
M  V30 4 1 4 5
M  V30 5 1 5 6
M  V30 6 1 6 7
M  V30 7 1 6 8
M  V30 8 2 8 9
M  V30 9 1 9 10
M  V30 10 1 10 11
M  V30 11 2 11 12
M  V30 12 1 11 13
M  V30 13 1 10 14
M  V30 14 1 7 2
M  V30 15 1 12 8
M  V30 16 1 1 15
M  V30 17 1 1 16
M  V30 18 1 2 17 CFG=3
M  V30 19 1 3 18
M  V30 20 1 3 19
M  V30 21 1 4 20
M  V30 22 1 4 21
M  V30 23 1 5 22
M  V30 24 1 5 23
M  V30 25 1 6 24 CFG=3
M  V30 26 1 7 25
M  V30 27 1 7 26
M  V30 28 1 13 27
M  V30 29 1 13 28
M  V30 30 1 14 29
M  V30 31 1 14 30
M  V30 32 1 14 31
M  V30 END BOND
M  V30 END CTAB
M  END
