
     RDKit          3D

  0  0  0  0  0  0  0  0  0  0999 V3000
M  V30 BEGIN CTAB
M  V30 COUNTS 46 49 0 0 0
M  V30 BEGIN ATOM
M  V30 1 N -5.93809 0.282002 3.12268 0
M  V30 2 C -5.20525 0.478708 1.92621 0
M  V30 3 N -5.54639 1.49708 1.10743 0
M  V30 4 C -4.89607 1.74241 -0.0424174 0
M  V30 5 N -5.2619 2.81729 -0.899621 0
M  V30 6 N -3.85216 0.941257 -0.406703 0
M  V30 7 C -3.4594 -0.0857386 0.355783 0
M  V30 8 C -4.14838 -0.307955 1.52711 0
M  V30 9 N -2.37222 -0.891318 -0.0595026 0
M  V30 10 C -1.70547 -0.584421 -1.30654 0
M  V30 11 C -0.224666 -0.374493 -0.960153 0
M  V30 12 N 0.268725 -1.56912 -0.357031 0
M  V30 13 C -0.697921 -2.58067 -0.0868784 0
M  V30 14 C -1.8812 -2.01862 0.698224 0
M  V30 15 C 1.2459 -1.39561 0.669792 0
M  V30 16 C 2.49642 -0.71931 0.170974 0
M  V30 17 C 2.86464 -0.84708 -1.15154 0
M  V30 18 C 3.98567 -0.262461 -1.69609 0
M  V30 19 C 4.76161 0.495874 -0.807446 0
M  V30 20 C 4.38084 0.613688 0.509753 0
M  V30 21 N 3.25971 0.0132029 0.997416 0
M  V30 22 C 5.16229 1.37062 1.38072 0
M  V30 23 Cl 4.68144 1.52767 3.07443 0
M  V30 24 C 6.30137 1.99247 0.926763 0
M  V30 25 C 6.66595 1.86272 -0.395293 0
M  V30 26 C 5.89799 1.11884 -1.25103 0
M  V30 27 H -6.04703 -0.667257 3.53455 0
M  V30 28 H -6.38877 1.07308 3.62653 0
M  V30 29 H -6.14101 2.68523 -1.47664 0
M  V30 30 H -4.7098 3.70081 -0.974742 0
M  V30 31 H -3.85307 -1.12953 2.16226 0
M  V30 32 H -1.7224 -1.46821 -1.98474 0
M  V30 33 H -2.11932 0.328163 -1.79329 0
M  V30 34 H 0.324058 -0.0219262 -1.84853 0
M  V30 35 H -0.243579 0.41616 -0.153754 0
M  V30 36 H -1.04554 -3.12229 -0.999902 0
M  V30 37 H -0.223915 -3.34464 0.563653 0
M  V30 38 H -1.47005 -1.68183 1.66724 0
M  V30 39 H -2.65725 -2.78359 0.777604 0
M  V30 40 H 0.812386 -0.805698 1.50166 0
M  V30 41 H 1.56851 -2.39577 1.00521 0
M  V30 42 H 2.22586 -1.45391 -1.80434 0
M  V30 43 H 4.2836 -0.352115 -2.71794 0
M  V30 44 H 6.93543 2.59603 1.59588 0
M  V30 45 H 7.55127 2.328 -0.812534 0
M  V30 46 H 6.1372 0.982261 -2.30205 0
M  V30 END ATOM
M  V30 BEGIN BOND
M  V30 1 1 1 2
M  V30 2 2 2 3
M  V30 3 1 3 4
M  V30 4 1 4 5
M  V30 5 2 4 6
M  V30 6 1 6 7
M  V30 7 2 7 8
M  V30 8 1 7 9
M  V30 9 1 9 10
M  V30 10 1 10 11
M  V30 11 1 11 12
M  V30 12 1 12 13
M  V30 13 1 13 14
M  V30 14 1 12 15
M  V30 15 1 15 16
M  V30 16 2 16 17
M  V30 17 1 17 18
M  V30 18 2 18 19
M  V30 19 1 19 20
M  V30 20 2 20 21
M  V30 21 1 20 22
M  V30 22 1 22 23
M  V30 23 2 22 24
M  V30 24 1 24 25
M  V30 25 2 25 26
M  V30 26 1 8 2
M  V30 27 1 14 9
M  V30 28 1 21 16
M  V30 29 1 26 19
M  V30 30 1 1 27
M  V30 31 1 1 28
M  V30 32 1 5 29
M  V30 33 1 5 30
M  V30 34 1 8 31
M  V30 35 1 10 32
M  V30 36 1 10 33
M  V30 37 1 11 34
M  V30 38 1 11 35
M  V30 39 1 13 36
M  V30 40 1 13 37
M  V30 41 1 14 38
M  V30 42 1 14 39
M  V30 43 1 15 40
M  V30 44 1 15 41
M  V30 45 1 17 42
M  V30 46 1 18 43
M  V30 47 1 24 44
M  V30 48 1 25 45
M  V30 49 1 26 46
M  V30 END BOND
M  V30 END CTAB
M  END
