
     RDKit          3D

  0  0  0  0  0  0  0  0  0  0999 V3000
M  V30 BEGIN CTAB
M  V30 COUNTS 28 29 0 0 0
M  V30 BEGIN ATOM
M  V30 1 N -2.60999 2.50678 1.53136 0
M  V30 2 C -2.2939 1.33891 0.767878 0
M  V30 3 N -1.03157 0.915366 0.638266 0
M  V30 4 C -0.74547 -0.183876 -0.0817712 0
M  V30 5 N -1.75853 -0.837486 -0.661723 0
M  V30 6 C -3.03323 -0.439409 -0.551229 0
M  V30 7 N -3.30961 0.671629 0.178179 0
M  V30 8 N -4.06485 -1.17833 -1.19227 0
M  V30 9 C 0.649044 -0.679715 -0.244146 0
M  V30 10 C 1.42448 0.358822 -0.983093 0
M  V30 11 C 2.81274 0.5821 -0.445753 0
M  V30 12 C 3.30732 -0.780107 0.0549951 0
M  V30 13 N 2.57753 -1.05426 1.24982 0
M  V30 14 C 1.17216 -1.02472 1.10622 0
M  V30 15 H -3.52283 2.99646 1.40385 0
M  V30 16 H -1.95412 2.90679 2.23121 0
M  V30 17 H -4.03286 -2.2175 -1.16604 0
M  V30 18 H -4.86095 -0.72832 -1.69307 0
M  V30 19 H 0.59507 -1.58663 -0.874986 0
M  V30 20 H 0.894257 1.33331 -0.978821 0
M  V30 21 H 1.54058 0.0821857 -2.06114 0
M  V30 22 H 3.50163 0.95429 -1.21777 0
M  V30 23 H 2.80993 1.23604 0.454379 0
M  V30 24 H 3.09422 -1.57339 -0.680469 0
M  V30 25 H 4.37835 -0.708691 0.22996 0
M  V30 26 H 2.94706 -0.561535 2.08597 0
M  V30 27 H 0.761755 -2.01842 1.39376 0
M  V30 28 H 0.751766 -0.310304 1.87202 0
M  V30 END ATOM
M  V30 BEGIN BOND
M  V30 1 1 1 2
M  V30 2 2 2 3
M  V30 3 1 3 4
M  V30 4 2 4 5
M  V30 5 1 5 6
M  V30 6 2 6 7
M  V30 7 1 6 8
M  V30 8 1 4 9
M  V30 9 1 9 10
M  V30 10 1 10 11
M  V30 11 1 11 12
M  V30 12 1 12 13
M  V30 13 1 13 14
M  V30 14 1 7 2
M  V30 15 1 14 9
M  V30 16 1 1 15
M  V30 17 1 1 16
M  V30 18 1 8 17
M  V30 19 1 8 18
M  V30 20 1 9 19
M  V30 21 1 10 20
M  V30 22 1 10 21
M  V30 23 1 11 22
M  V30 24 1 11 23
M  V30 25 1 12 24
M  V30 26 1 12 25
M  V30 27 1 13 26
M  V30 28 1 14 27
M  V30 29 1 14 28
M  V30 END BOND
M  V30 END CTAB
M  END
