
     RDKit          3D

  0  0  0  0  0  0  0  0  0  0999 V3000
M  V30 BEGIN CTAB
M  V30 COUNTS 23 23 0 0 0
M  V30 BEGIN ATOM
M  V30 1 N -2.99764 0.726544 0.0870477 0
M  V30 2 C -1.61479 1.05553 0.100568 0
M  V30 3 C -0.709976 -0.133459 0.0520096 0
M  V30 4 C 0.711661 0.329312 0.0631785 0
M  V30 5 O 1.09739 1.56376 0.299861 0
M  V30 6 N 2.37733 1.64183 0.232332 0
M  V30 7 C 2.91705 0.459349 -0.0509998 0
M  V30 8 N 1.81714 -0.38384 -0.158519 0
M  V30 9 N 4.242 0.0484657 -0.211691 0
M  V30 10 C -0.883418 -0.936666 1.39076 0
M  V30 11 C -0.996687 -1.10232 -1.02352 0
M  V30 12 H -3.35831 0.0558291 0.729294 0
M  V30 13 H -3.58511 1.17925 -0.606284 0
M  V30 14 H -1.32929 1.70354 0.974917 0
M  V30 15 H -1.38386 1.67325 -0.81041 0
M  V30 16 H 4.50326 -0.455663 -1.07186 0
M  V30 17 H 4.97064 0.226864 0.49685 0
M  V30 18 H 0.00595463 -1.63186 1.39211 0
M  V30 19 H -1.76815 -1.55711 1.382 0
M  V30 20 H -0.784763 -0.265024 2.23509 0
M  V30 21 H -0.281353 -1.0284 -1.90246 0
M  V30 22 H -0.941704 -2.1752 -0.670952 0
M  V30 23 H -2.00737 -0.993994 -1.47004 0
M  V30 END ATOM
M  V30 BEGIN BOND
M  V30 1 1 1 2
M  V30 2 1 2 3
M  V30 3 1 3 4
M  V30 4 1 4 5
M  V30 5 1 5 6
M  V30 6 2 6 7
M  V30 7 1 7 8
M  V30 8 1 7 9
M  V30 9 1 3 10
M  V30 10 1 3 11
M  V30 11 2 8 4
M  V30 12 1 1 12
M  V30 13 1 1 13
M  V30 14 1 2 14
M  V30 15 1 2 15
M  V30 16 1 9 16
M  V30 17 1 9 17
M  V30 18 1 10 18
M  V30 19 1 10 19
M  V30 20 1 10 20
M  V30 21 1 11 21
M  V30 22 1 11 22
M  V30 23 1 11 23
M  V30 END BOND
M  V30 END CTAB
M  END
