
     RDKit          3D

  0  0  0  0  0  0  0  0  0  0999 V3000
M  V30 BEGIN CTAB
M  V30 COUNTS 22 22 0 0 0
M  V30 BEGIN ATOM
M  V30 1 F -3.54045 -0.14132 -0.581034 0
M  V30 2 C -2.24304 0.175841 -0.927778 0
M  V30 3 C -1.3118 -0.502809 0.0641712 0
M  V30 4 C 0.124194 -0.300969 -0.152867 0
M  V30 5 C 0.886368 -1.31967 -0.638005 0
M  V30 6 C 2.27698 -1.24723 -0.683093 0
M  V30 7 C 2.89253 -0.119459 -0.222506 0
M  V30 8 C 2.16946 0.947234 0.276514 0
M  V30 9 C 0.798345 0.833072 0.296053 0
M  V30 10 N 0.0613746 1.97666 0.744537 0
M  V30 11 F 4.26474 -0.0331567 -0.230911 0
M  V30 12 N -1.7499 -0.597715 1.4094 0
M  V30 13 H -2.03996 -0.148813 -1.94344 0
M  V30 14 H -2.19965 1.29337 -0.795413 0
M  V30 15 H -1.44148 -1.62889 -0.305102 0
M  V30 16 H 0.485425 -2.24781 -0.996143 0
M  V30 17 H 2.9083 -2.06131 -1.05887 0
M  V30 18 H 2.65568 1.82816 0.616077 0
M  V30 19 H -0.216331 2.68398 -0.0133376 0
M  V30 20 H -0.155274 2.06019 1.74172 0
M  V30 21 H -2.19128 -1.54259 1.65348 0
M  V30 22 H -2.43422 0.0932336 1.74654 0
M  V30 END ATOM
M  V30 BEGIN BOND
M  V30 1 1 1 2
M  V30 2 1 2 3
M  V30 3 1 3 4
M  V30 4 2 4 5
M  V30 5 1 5 6
M  V30 6 2 6 7
M  V30 7 1 7 8
M  V30 8 2 8 9
M  V30 9 1 9 10
M  V30 10 1 7 11
M  V30 11 1 3 12
M  V30 12 1 9 4
M  V30 13 1 2 13
M  V30 14 1 2 14
M  V30 15 1 3 15
M  V30 16 1 5 16
M  V30 17 1 6 17
M  V30 18 1 8 18
M  V30 19 1 10 19
M  V30 20 1 10 20
M  V30 21 1 12 21
M  V30 22 1 12 22
M  V30 END BOND
M  V30 END CTAB
M  END
