
     RDKit          3D

  0  0  0  0  0  0  0  0  0  0999 V3000
M  V30 BEGIN CTAB
M  V30 COUNTS 8 7 0 0 0
M  V30 BEGIN ATOM
M  V30 1 N -1.29098 -0.197812 0.201031 0
M  V30 2 B -0.0251247 0.54727 -0.129612 0
M  V30 3 N 1.27914 -0.248557 -0.227702 0
M  V30 4 H -1.05085 -0.975508 0.856471 0
M  V30 5 H -2.07798 0.386968 0.492546 0
M  V30 6 H 0.0994872 1.72196 -0.039003 0
M  V30 7 H 1.95145 0.0402002 0.535531 0
M  V30 8 H 1.11487 -1.27452 -0.0562099 0
M  V30 END ATOM
M  V30 BEGIN BOND
M  V30 1 1 1 2
M  V30 2 1 2 3
M  V30 3 1 1 4
M  V30 4 1 1 5
M  V30 5 1 2 6
M  V30 6 1 3 7
M  V30 7 1 3 8
M  V30 END BOND
M  V30 END CTAB
M  END
