
     RDKit          3D

  0  0  0  0  0  0  0  0  0  0999 V3000
M  V30 BEGIN CTAB
M  V30 COUNTS 31 33 0 0 0
M  V30 BEGIN ATOM
M  V30 1 N -5.59546 -1.74476 -0.398371 0
M  V30 2 C -4.27969 -1.16569 -0.301376 0
M  V30 3 N -3.92403 -0.116838 -1.05698 0
M  V30 4 C -2.67838 0.426253 -0.960734 0
M  V30 5 C -2.36503 1.50865 -1.76424 0
M  V30 6 C -1.12465 2.07967 -1.69292 0
M  V30 7 C -0.180969 1.60454 -0.842308 0
M  V30 8 C -0.454845 0.524849 -0.0254116 0
M  V30 9 S 0.692571 -0.194858 1.04597 0
M  V30 10 C 2.39311 0.0643709 0.865071 0
M  V30 11 C 3.18694 -0.264603 1.98876 0
M  V30 12 C 4.54595 -0.140609 1.95698 0
M  V30 13 C 5.22546 0.307423 0.842378 0
M  V30 14 Cl 6.96405 0.474865 0.779474 0
M  V30 15 C 4.45057 0.625673 -0.248898 0
M  V30 16 Cl 5.1971 1.21332 -1.74542 0
M  V30 17 C 3.08047 0.507091 -0.23721 0
M  V30 18 C -1.73034 -0.071026 -0.0896958 0
M  V30 19 C -2.10768 -1.14264 0.675988 0
M  V30 20 N -1.2023 -1.70986 1.59104 0
M  V30 21 N -3.36899 -1.65881 0.548948 0
M  V30 22 H -5.76581 -2.74868 -0.549314 0
M  V30 23 H -6.41779 -1.11173 -0.31077 0
M  V30 24 H -3.12803 1.86953 -2.4317 0
M  V30 25 H -0.863585 2.92625 -2.31393 0
M  V30 26 H 0.799798 2.05336 -0.735457 0
M  V30 27 H 2.74616 -0.62448 2.90888 0
M  V30 28 H 5.16539 -0.390213 2.81378 0
M  V30 29 H 2.49402 0.738713 -1.13743 0
M  V30 30 H -0.601739 -2.49176 1.29646 0
M  V30 31 H -1.15226 -1.348 2.5563 0
M  V30 END ATOM
M  V30 BEGIN BOND
M  V30 1 1 1 2
M  V30 2 2 2 3
M  V30 3 1 3 4
M  V30 4 2 4 5
M  V30 5 1 5 6
M  V30 6 2 6 7
M  V30 7 1 7 8
M  V30 8 1 8 9
M  V30 9 1 9 10
M  V30 10 2 10 11
M  V30 11 1 11 12
M  V30 12 2 12 13
M  V30 13 1 13 14
M  V30 14 1 13 15
M  V30 15 1 15 16
M  V30 16 2 15 17
M  V30 17 2 8 18
M  V30 18 1 18 19
M  V30 19 1 19 20
M  V30 20 2 19 21
M  V30 21 1 21 2
M  V30 22 1 18 4
M  V30 23 1 17 10
M  V30 24 1 1 22
M  V30 25 1 1 23
M  V30 26 1 5 24
M  V30 27 1 6 25
M  V30 28 1 7 26
M  V30 29 1 11 27
M  V30 30 1 12 28
M  V30 31 1 17 29
M  V30 32 1 20 30
M  V30 33 1 20 31
M  V30 END BOND
M  V30 END CTAB
M  END
