
     RDKit          3D

  0  0  0  0  0  0  0  0  0  0999 V3000
M  V30 BEGIN CTAB
M  V30 COUNTS 25 25 0 0 0
M  V30 BEGIN ATOM
M  V30 1 Br -4.58404 -0.713438 1.09577 0
M  V30 2 C -3.87296 -0.326897 -0.664403 0
M  V30 3 C -2.87826 0.775021 -0.632731 0
M  V30 4 O -3.25686 1.93853 -0.929846 0
M  V30 5 C -1.48275 0.514314 -0.261418 0
M  V30 6 C -1.07681 -0.76121 0.0492595 0
M  V30 7 C 0.255696 -0.998406 0.412701 0
M  V30 8 N 0.699543 -2.29484 0.737754 0
M  V30 9 C 1.17742 0.0430351 0.464824 0
M  V30 10 C 0.746536 1.31051 0.147183 0
M  V30 11 C -0.567439 1.55095 -0.212714 0
M  V30 12 N 1.68799 2.37182 0.197054 0
M  V30 13 O 2.46406 -0.239752 0.830368 0
M  V30 14 C 3.55625 -0.58764 0.0626543 0
M  V30 15 F 4.60997 0.295733 0.347747 0
M  V30 16 F 4.08668 -1.84404 0.421796 0
M  V30 17 H -3.40914 -1.24453 -1.07623 0
M  V30 18 H -4.71548 -0.101162 -1.35805 0
M  V30 19 H -1.7543 -1.61202 0.0252792 0
M  V30 20 H 0.409872 -2.7284 1.63644 0
M  V30 21 H 1.31045 -2.8384 0.107665 0
M  V30 22 H -0.902948 2.56428 -0.465024 0
M  V30 23 H 1.68432 3.14497 0.891923 0
M  V30 24 H 2.44173 2.36758 -0.530552 0
M  V30 25 H 3.37047 -0.58601 -1.04871 0
M  V30 END ATOM
M  V30 BEGIN BOND
M  V30 1 1 1 2
M  V30 2 1 2 3
M  V30 3 2 3 4
M  V30 4 1 3 5
M  V30 5 2 5 6
M  V30 6 1 6 7
M  V30 7 1 7 8
M  V30 8 2 7 9
M  V30 9 1 9 10
M  V30 10 2 10 11
M  V30 11 1 10 12
M  V30 12 1 9 13
M  V30 13 1 13 14
M  V30 14 1 14 15
M  V30 15 1 14 16
M  V30 16 1 11 5
M  V30 17 1 2 17
M  V30 18 1 2 18
M  V30 19 1 6 19
M  V30 20 1 8 20
M  V30 21 1 8 21
M  V30 22 1 11 22
M  V30 23 1 12 23
M  V30 24 1 12 24
M  V30 25 1 14 25
M  V30 END BOND
M  V30 END CTAB
M  END
