
     RDKit          3D

  0  0  0  0  0  0  0  0  0  0999 V3000
M  V30 BEGIN CTAB
M  V30 COUNTS 21 21 0 0 0
M  V30 BEGIN ATOM
M  V30 1 Cl -2.11984 -2.73793 0.566143 0
M  V30 2 C -2.8093 -1.20897 0.087779 0
M  V30 3 C -1.92188 -0.0971436 -0.140027 0
M  V30 4 O -2.56098 0.991574 -0.493631 0
M  V30 5 C -0.503998 0.0735358 -0.0640517 0
M  V30 6 C 0.398623 -0.906217 0.282565 0
M  V30 7 C 1.78068 -0.715485 0.349992 0
M  V30 8 N 2.66788 -1.78698 0.720454 0
M  V30 9 C 2.24668 0.536905 0.0471905 0
M  V30 10 C 1.39973 1.56164 -0.306934 0
M  V30 11 C 0.0471108 1.33886 -0.363026 0
M  V30 12 N -0.784858 2.43306 -0.734907 0
M  V30 13 F 3.58859 0.754268 0.103843 0
M  V30 14 H -3.60287 -0.859219 0.849152 0
M  V30 15 H -3.47143 -1.40516 -0.810532 0
M  V30 16 H 0.106484 -1.9133 0.533198 0
M  V30 17 H 2.89132 -2.48882 -0.0123718 0
M  V30 18 H 3.03523 -1.81236 1.67381 0
M  V30 19 H 1.80043 2.56188 -0.5463 0
M  V30 20 H -1.09629 3.09824 -0.0213671 0
M  V30 21 H -1.09133 2.58163 -1.72098 0
M  V30 END ATOM
M  V30 BEGIN BOND
M  V30 1 1 1 2
M  V30 2 1 2 3
M  V30 3 2 3 4
M  V30 4 1 3 5
M  V30 5 2 5 6
M  V30 6 1 6 7
M  V30 7 1 7 8
M  V30 8 2 7 9
M  V30 9 1 9 10
M  V30 10 2 10 11
M  V30 11 1 11 12
M  V30 12 1 9 13
M  V30 13 1 11 5
M  V30 14 1 2 14
M  V30 15 1 2 15
M  V30 16 1 6 16
M  V30 17 1 8 17
M  V30 18 1 8 18
M  V30 19 1 10 19
M  V30 20 1 12 20
M  V30 21 1 12 21
M  V30 END BOND
M  V30 END CTAB
M  END
