
     RDKit          3D

  0  0  0  0  0  0  0  0  0  0999 V3000
M  V30 BEGIN CTAB
M  V30 COUNTS 38 39 0 0 0
M  V30 BEGIN ATOM
M  V30 1 O -0.436742 -0.817614 0.439535 0
M  V30 2 C -0.506237 0.195501 -0.270765 0
M  V30 3 N -1.76655 0.746537 -0.630035 0
M  V30 4 C -3.03031 0.283664 -0.276827 0
M  V30 5 C -3.25189 -0.813642 0.499036 0
M  V30 6 C -4.55715 -1.23263 0.822335 0
M  V30 7 C -4.72989 -2.42375 1.6631 0
M  V30 8 C -5.60048 -0.488567 0.322684 0
M  V30 9 C -5.41069 0.618971 -0.459664 0
M  V30 10 C -4.13466 1.00396 -0.758427 0
M  V30 11 N -3.91389 2.15648 -1.57305 0
M  V30 12 N 0.639616 0.859822 -0.762911 0
M  V30 13 C 1.9799 0.473396 -0.530184 0
M  V30 14 C 3.00505 1.40074 -0.75343 0
M  V30 15 C 4.33579 1.14886 -0.586389 0
M  V30 16 C 4.71524 -0.107775 -0.166892 0
M  V30 17 C 3.74399 -1.05035 0.0643927 0
M  V30 18 C 2.38225 -0.769609 -0.114101 0
M  V30 19 S 6.39679 -0.484961 0.0631197 0
M  V30 20 O 7.21221 0.337632 -0.910349 0
M  V30 21 O 6.59013 -1.94209 -0.229019 0
M  V30 22 N 6.93554 -0.157618 1.65124 0
M  V30 23 H -1.70983 1.62455 -1.24821 0
M  V30 24 H -2.47176 -1.41823 0.906509 0
M  V30 25 H -4.52545 -3.33474 1.06117 0
M  V30 26 H -5.71606 -2.44847 2.15961 0
M  V30 27 H -3.97604 -2.39025 2.49949 0
M  V30 28 H -6.60053 -0.786613 0.554244 0
M  V30 29 H -6.25433 1.18638 -0.839626 0
M  V30 30 H -3.64461 2.01709 -2.55878 0
M  V30 31 H -4.0358 3.09863 -1.13128 0
M  V30 32 H 0.494768 1.72833 -1.36697 0
M  V30 33 H 2.70127 2.39325 -1.08421 0
M  V30 34 H 5.11367 1.87573 -0.763095 0
M  V30 35 H 3.9929 -2.06241 0.398471 0
M  V30 36 H 1.6665 -1.56643 0.0741486 0
M  V30 37 H 7.95484 0.05915 1.69923 0
M  V30 38 H 6.41248 0.591602 2.1359 0
M  V30 END ATOM
M  V30 BEGIN BOND
M  V30 1 2 1 2
M  V30 2 1 2 3
M  V30 3 1 3 4
M  V30 4 2 4 5
M  V30 5 1 5 6
M  V30 6 1 6 7
M  V30 7 2 6 8
M  V30 8 1 8 9
M  V30 9 2 9 10
M  V30 10 1 10 11
M  V30 11 1 2 12
M  V30 12 1 12 13
M  V30 13 2 13 14
M  V30 14 1 14 15
M  V30 15 2 15 16
M  V30 16 1 16 17
M  V30 17 2 17 18
M  V30 18 1 16 19
M  V30 19 2 19 20
M  V30 20 2 19 21
M  V30 21 1 19 22
M  V30 22 1 10 4
M  V30 23 1 18 13
M  V30 24 1 3 23
M  V30 25 1 5 24
M  V30 26 1 7 25
M  V30 27 1 7 26
M  V30 28 1 7 27
M  V30 29 1 8 28
M  V30 30 1 9 29
M  V30 31 1 11 30
M  V30 32 1 11 31
M  V30 33 1 12 32
M  V30 34 1 14 33
M  V30 35 1 15 34
M  V30 36 1 17 35
M  V30 37 1 18 36
M  V30 38 1 22 37
M  V30 39 1 22 38
M  V30 END BOND
M  V30 END CTAB
M  END
