
     RDKit          3D

  0  0  0  0  0  0  0  0  0  0999 V3000
M  V30 BEGIN CTAB
M  V30 COUNTS 42 43 0 0 0
M  V30 BEGIN ATOM
M  V30 1 C 6.23651 1.3971 1.75408 0
M  V30 2 C 5.22375 0.952538 0.709928 0
M  V30 3 C 4.26661 0.0227839 1.37401 0
M  V30 4 C 3.20009 -0.496924 0.441178 0
M  V30 5 S 2.19134 0.801404 -0.270902 0
M  V30 6 C 0.98164 0.0473918 -1.3444 0
M  V30 7 N -0.196887 -0.311458 -0.807816 0
M  V30 8 C -1.17629 -0.883655 -1.51635 0
M  V30 9 N -2.41667 -1.2565 -0.931206 0
M  V30 10 C -2.61875 -0.994329 0.471857 0 CFG=2
M  V30 11 C -3.96215 -1.51686 0.946185 0
M  V30 12 C -4.46321 -0.385749 1.8572 0
M  V30 13 C -4.05479 0.804409 1.01795 0 CFG=2
M  V30 14 C -2.62155 0.494153 0.683545 0
M  V30 15 N -4.20439 2.0575 1.72998 0
M  V30 16 C -0.980505 -1.12478 -2.87272 0
M  V30 17 C 0.21905 -0.761011 -3.42516 0
M  V30 18 N 1.16182 -0.187888 -2.64904 0
M  V30 19 N 0.457224 -0.994384 -4.8229 0
M  V30 20 H 6.94918 0.564846 1.87624 0
M  V30 21 H 6.74732 2.31505 1.51067 0
M  V30 22 H 5.68489 1.48401 2.71342 0
M  V30 23 H 5.78687 0.370829 -0.0569312 0
M  V30 24 H 4.7543 1.79288 0.185458 0
M  V30 25 H 3.78343 0.437844 2.26998 0
M  V30 26 H 4.84551 -0.869756 1.71667 0
M  V30 27 H 2.55261 -1.22457 0.962471 0
M  V30 28 H 3.67923 -1.07597 -0.39874 0
M  V30 29 H -3.17223 -1.7081 -1.48381 0
M  V30 30 H -1.80103 -1.5008 1.01934 0
M  V30 31 H -3.89803 -2.46893 1.47268 0
M  V30 32 H -4.65287 -1.52048 0.0785361 0
M  V30 33 H -3.83651 -0.413052 2.77412 0
M  V30 34 H -5.53537 -0.449275 2.03854 0
M  V30 35 H -4.69732 0.783118 0.109939 0
M  V30 36 H -1.99567 0.739572 1.55927 0
M  V30 37 H -2.28727 1.06026 -0.226249 0
M  V30 38 H -4.83801 1.90296 2.52233 0
M  V30 39 H -4.65798 2.72936 1.07257 0
M  V30 40 H -1.77412 -1.5897 -3.45226 0
M  V30 41 H 1.41594 -1.26332 -5.09373 0
M  V30 42 H -0.295731 -0.896541 -5.51593 0
M  V30 END ATOM
M  V30 BEGIN BOND
M  V30 1 1 1 2
M  V30 2 1 2 3
M  V30 3 1 3 4
M  V30 4 1 4 5
M  V30 5 1 5 6
M  V30 6 2 6 7
M  V30 7 1 7 8
M  V30 8 1 8 9
M  V30 9 1 9 10
M  V30 10 1 10 11
M  V30 11 1 11 12
M  V30 12 1 12 13
M  V30 13 1 13 14
M  V30 14 1 13 15
M  V30 15 2 8 16
M  V30 16 1 16 17
M  V30 17 2 17 18
M  V30 18 1 17 19
M  V30 19 1 18 6
M  V30 20 1 14 10
M  V30 21 1 1 20
M  V30 22 1 1 21
M  V30 23 1 1 22
M  V30 24 1 2 23
M  V30 25 1 2 24
M  V30 26 1 3 25
M  V30 27 1 3 26
M  V30 28 1 4 27
M  V30 29 1 4 28
M  V30 30 1 9 29
M  V30 31 1 10 30 CFG=1
M  V30 32 1 11 31
M  V30 33 1 11 32
M  V30 34 1 12 33
M  V30 35 1 12 34
M  V30 36 1 13 35 CFG=3
M  V30 37 1 14 36
M  V30 38 1 14 37
M  V30 39 1 15 38
M  V30 40 1 15 39
M  V30 41 1 16 40
M  V30 42 1 19 41
M  V30 43 1 19 42
M  V30 END BOND
M  V30 END CTAB
M  END
