
     RDKit          3D

  0  0  0  0  0  0  0  0  0  0999 V3000
M  V30 BEGIN CTAB
M  V30 COUNTS 17 17 0 0 0
M  V30 BEGIN ATOM
M  V30 1 C 3.08985 -0.146509 -0.433558 0
M  V30 2 O 2.06551 -1.09472 -0.260485 0
M  V30 3 C 0.763432 -0.627306 -0.0883122 0
M  V30 4 N -0.272272 -1.48302 0.0837401 0
M  V30 5 C -1.53763 -1.07942 0.252506 0
M  V30 6 N -2.62558 -1.98364 0.433401 0
M  V30 7 N -1.76677 0.254451 0.247015 0
M  V30 8 C -0.780212 1.1497 0.0808373 0
M  V30 9 N -1.04601 2.56009 0.0783982 0
M  V30 10 N 0.473526 0.689519 -0.0846584 0
M  V30 11 H 3.8511 -0.608932 -1.10217 0
M  V30 12 H 3.49087 0.0967637 0.571427 0
M  V30 13 H 2.66946 0.776008 -0.845717 0
M  V30 14 H -3.0805 -2.39409 -0.411604 0
M  V30 15 H -2.99195 -2.25779 1.35764 0
M  V30 16 H -1.53708 2.97131 -0.738192 0
M  V30 17 H -0.765756 3.17757 0.859726 0
M  V30 END ATOM
M  V30 BEGIN BOND
M  V30 1 1 1 2
M  V30 2 1 2 3
M  V30 3 2 3 4
M  V30 4 1 4 5
M  V30 5 1 5 6
M  V30 6 2 5 7
M  V30 7 1 7 8
M  V30 8 1 8 9
M  V30 9 2 8 10
M  V30 10 1 10 3
M  V30 11 1 1 11
M  V30 12 1 1 12
M  V30 13 1 1 13
M  V30 14 1 6 14
M  V30 15 1 6 15
M  V30 16 1 9 16
M  V30 17 1 9 17
M  V30 END BOND
M  V30 END CTAB
M  END
