
     RDKit          3D

  0  0  0  0  0  0  0  0  0  0999 V3000
M  V30 BEGIN CTAB
M  V30 COUNTS 56 55 0 0 0
M  V30 BEGIN ATOM
M  V30 1 C -1.19262 -3.17703 -1.58344 0
M  V30 2 C -1.96787 -2.65298 -0.40579 0
M  V30 3 C -2.11765 -3.83904 0.558665 0
M  V30 4 C -3.31456 -2.20823 -0.887096 0
M  V30 5 O -1.3428 -1.64028 0.294761 0
M  V30 6 C -0.957394 -0.414869 -0.193325 0
M  V30 7 O -1.1817 -0.161456 -1.39061 0
M  V30 8 C -0.296217 0.545838 0.71879 0
M  V30 9 N -0.148885 0.0218146 2.05427 0
M  V30 10 C 1.00843 1.04163 0.210327 0
M  V30 11 C 2.06912 0.0471393 -0.0789188 0
M  V30 12 C 2.48339 -0.765138 1.09562 0
M  V30 13 C 3.61957 -1.72114 0.712107 0
M  V30 14 N 4.76823 -0.98564 0.244514 0
M  V30 15 C 5.92465 -1.6903 -0.153834 0
M  V30 16 N 7.17166 -1.02441 -0.178261 0
M  V30 17 N 5.83617 -2.92209 -0.488452 0
M  V30 18 C -1.26752 1.71829 0.771006 0
M  V30 19 O -1.76185 2.0423 1.85395 0
M  V30 20 O -1.61615 2.43223 -0.345636 0
M  V30 21 C -2.50348 3.49916 -0.281852 0
M  V30 22 C -2.08376 4.6288 0.602029 0
M  V30 23 C -3.87028 3.03463 0.118278 0
M  V30 24 C -2.6266 4.06774 -1.70253 0
M  V30 25 H -0.106581 -3.24297 -1.39392 0
M  V30 26 H -1.42107 -2.61195 -2.5242 0
M  V30 27 H -1.54602 -4.21494 -1.76788 0
M  V30 28 H -2.8714 -4.54838 0.214558 0
M  V30 29 H -2.32256 -3.40263 1.55696 0
M  V30 30 H -1.0878 -4.27789 0.629333 0
M  V30 31 H -4.07921 -2.65361 -0.204229 0
M  V30 32 H -3.50486 -2.48787 -1.94638 0
M  V30 33 H -3.37466 -1.10533 -0.791471 0
M  V30 34 H -0.00600221 0.755978 2.75704 0
M  V30 35 H -1.00506 -0.54515 2.31576 0
M  V30 36 H 0.809351 1.69718 -0.674649 0
M  V30 37 H 1.38466 1.77665 0.997252 0
M  V30 38 H 1.69462 -0.630678 -0.892127 0
M  V30 39 H 2.93846 0.614647 -0.51725 0
M  V30 40 H 2.78599 -0.185405 1.95849 0
M  V30 41 H 1.66033 -1.46396 1.38045 0
M  V30 42 H 3.88857 -2.26489 1.63868 0
M  V30 43 H 3.21214 -2.40999 -0.0567044 0
M  V30 44 H 4.7541 0.0436329 0.198823 0
M  V30 45 H 7.29859 -0.0687457 0.214742 0
M  V30 46 H 7.99454 -1.48307 -0.59442 0
M  V30 47 H 4.92837 -3.41148 -0.471781 0
M  V30 48 H -2.42462 4.48409 1.66907 0
M  V30 49 H -2.63205 5.53675 0.258413 0
M  V30 50 H -1.01127 4.87536 0.540714 0
M  V30 51 H -3.99241 2.86587 1.19382 0
M  V30 52 H -4.09633 2.11209 -0.489193 0
M  V30 53 H -4.59975 3.79834 -0.269629 0
M  V30 54 H -3.02824 3.25603 -2.31919 0
M  V30 55 H -1.60164 4.34584 -2.00715 0
M  V30 56 H -3.27008 4.96951 -1.68695 0
M  V30 END ATOM
M  V30 BEGIN BOND
M  V30 1 1 1 2
M  V30 2 1 2 3
M  V30 3 1 2 4
M  V30 4 1 2 5
M  V30 5 1 5 6
M  V30 6 2 6 7
M  V30 7 1 6 8
M  V30 8 1 8 9
M  V30 9 1 8 10
M  V30 10 1 10 11
M  V30 11 1 11 12
M  V30 12 1 12 13
M  V30 13 1 13 14
M  V30 14 1 14 15
M  V30 15 1 15 16
M  V30 16 2 15 17 CFG=2
M  V30 17 1 8 18
M  V30 18 2 18 19
M  V30 19 1 18 20
M  V30 20 1 20 21
M  V30 21 1 21 22
M  V30 22 1 21 23
M  V30 23 1 21 24
M  V30 24 1 1 25
M  V30 25 1 1 26
M  V30 26 1 1 27
M  V30 27 1 3 28
M  V30 28 1 3 29
M  V30 29 1 3 30
M  V30 30 1 4 31
M  V30 31 1 4 32
M  V30 32 1 4 33
M  V30 33 1 9 34
M  V30 34 1 9 35
M  V30 35 1 10 36
M  V30 36 1 10 37
M  V30 37 1 11 38
M  V30 38 1 11 39
M  V30 39 1 12 40
M  V30 40 1 12 41
M  V30 41 1 13 42
M  V30 42 1 13 43
M  V30 43 1 14 44
M  V30 44 1 16 45
M  V30 45 1 16 46
M  V30 46 1 17 47
M  V30 47 1 22 48
M  V30 48 1 22 49
M  V30 49 1 22 50
M  V30 50 1 23 51
M  V30 51 1 23 52
M  V30 52 1 23 53
M  V30 53 1 24 54
M  V30 54 1 24 55
M  V30 55 1 24 56
M  V30 END BOND
M  V30 END CTAB
M  END
