
     RDKit          3D

  0  0  0  0  0  0  0  0  0  0999 V3000
M  V30 BEGIN CTAB
M  V30 COUNTS 47 47 0 0 0
M  V30 BEGIN ATOM
M  V30 1 C -5.20344 0.4357 -0.780115 0
M  V30 2 C -3.80253 0.921721 -0.797137 0
M  V30 3 C -2.88098 0.289583 0.219198 0
M  V30 4 C -1.55258 0.944815 -0.00895193 0
M  V30 5 O -0.93794 1.57263 0.911016 0
M  V30 6 N -0.889827 0.908029 -1.27792 0
M  V30 7 C 0.368005 1.52899 -1.52397 0
M  V30 8 C 1.55023 0.819616 -1.00502 0
M  V30 9 C 1.57511 -0.496431 -0.634772 0
M  V30 10 C 2.72729 -1.093 -0.150453 0
M  V30 11 C 3.89342 -0.365664 -0.0278486 0
M  V30 12 C 3.89026 0.964561 -0.396172 0
M  V30 13 C 2.73463 1.52823 -0.87227 0
M  V30 14 C 5.15178 -0.974744 0.490933 0
M  V30 15 N 6.23369 -0.549622 -0.38785 0
M  V30 16 C 5.44187 -0.534793 1.89003 0
M  V30 17 C -3.26109 0.588056 1.64205 0
M  V30 18 N -4.54681 0.159756 2.05217 0
M  V30 19 C -2.75437 -1.16171 -0.0773531 0
M  V30 20 C -1.87779 -1.93053 0.851725 0
M  V30 21 H -5.38787 -0.524834 -0.305338 0
M  V30 22 H -5.62697 0.331976 -1.82523 0
M  V30 23 H -5.83844 1.26155 -0.340508 0
M  V30 24 H -3.70265 2.02175 -0.667662 0
M  V30 25 H -3.37738 0.680245 -1.79788 0
M  V30 26 H -1.38014 0.391218 -2.03921 0
M  V30 27 H 0.43162 2.5706 -1.13441 0
M  V30 28 H 0.516477 1.63129 -2.61913 0
M  V30 29 H 0.67795 -1.08841 -0.724147 0
M  V30 30 H 2.72224 -2.12548 0.13298 0
M  V30 31 H 4.79026 1.56601 -0.312617 0
M  V30 32 H 2.75041 2.58132 -1.15875 0
M  V30 33 H 5.05093 -2.07647 0.392718 0
M  V30 34 H 6.90582 -1.34893 -0.482548 0
M  V30 35 H 5.8332 -0.401358 -1.34342 0
M  V30 36 H 6.42081 -0.0186846 1.92694 0
M  V30 37 H 4.68635 0.163857 2.30264 0
M  V30 38 H 5.42605 -1.45825 2.53459 0
M  V30 39 H -2.50866 0.0478691 2.28379 0
M  V30 40 H -3.12192 1.65625 1.81553 0
M  V30 41 H -4.77719 -0.828359 1.98649 0
M  V30 42 H -5.3128 0.842707 1.95464 0
M  V30 43 H -3.72506 -1.69214 -0.160443 0
M  V30 44 H -2.30408 -1.2412 -1.11117 0
M  V30 45 H -2.50112 -2.47649 1.61848 0
M  V30 46 H -1.13706 -1.276 1.36142 0
M  V30 47 H -1.36971 -2.74524 0.280416 0
M  V30 END ATOM
M  V30 BEGIN BOND
M  V30 1 1 1 2
M  V30 2 1 2 3
M  V30 3 1 3 4
M  V30 4 2 4 5
M  V30 5 1 4 6
M  V30 6 1 6 7
M  V30 7 1 7 8
M  V30 8 2 8 9
M  V30 9 1 9 10
M  V30 10 2 10 11
M  V30 11 1 11 12
M  V30 12 2 12 13
M  V30 13 1 11 14
M  V30 14 1 14 15
M  V30 15 1 14 16
M  V30 16 1 3 17
M  V30 17 1 17 18
M  V30 18 1 3 19
M  V30 19 1 19 20
M  V30 20 1 13 8
M  V30 21 1 1 21
M  V30 22 1 1 22
M  V30 23 1 1 23
M  V30 24 1 2 24
M  V30 25 1 2 25
M  V30 26 1 6 26
M  V30 27 1 7 27
M  V30 28 1 7 28
M  V30 29 1 9 29
M  V30 30 1 10 30
M  V30 31 1 12 31
M  V30 32 1 13 32
M  V30 33 1 14 33
M  V30 34 1 15 34
M  V30 35 1 15 35
M  V30 36 1 16 36
M  V30 37 1 16 37
M  V30 38 1 16 38
M  V30 39 1 17 39
M  V30 40 1 17 40
M  V30 41 1 18 41
M  V30 42 1 18 42
M  V30 43 1 19 43
M  V30 44 1 19 44
M  V30 45 1 20 45
M  V30 46 1 20 46
M  V30 47 1 20 47
M  V30 END BOND
M  V30 END CTAB
M  END
