
     RDKit          3D

  0  0  0  0  0  0  0  0  0  0999 V3000
M  V30 BEGIN CTAB
M  V30 COUNTS 34 36 0 0 0
M  V30 BEGIN ATOM
M  V30 1 N 5.00746 0.218998 -0.85857 0
M  V30 2 C 3.62532 0.00517682 -0.60964 0
M  V30 3 N 2.75384 -0.732409 -1.33133 0
M  V30 4 N 1.54998 -0.69083 -0.782419 0
M  V30 5 C 1.56591 0.0711559 0.321875 0
M  V30 6 C 2.86311 0.513291 0.44022 0
M  V30 7 C 0.43093 0.381677 1.23489 0 CFG=2
M  V30 8 C 0.200894 -0.678983 2.2484 0
M  V30 9 N -1.0903 -1.2816 2.28048 0
M  V30 10 C -1.83884 -1.33171 1.04495 0
M  V30 11 C -1.67239 -0.307053 0.116487 0
M  V30 12 N -0.767387 0.728032 0.455138 0
M  V30 13 S -1.09077 2.33235 -0.0643114 0
M  V30 14 O -2.40805 2.54139 -0.691246 0
M  V30 15 O -0.943864 3.21694 1.17986 0
M  V30 16 N 0.137819 2.93213 -1.14161 0
M  V30 17 C -2.35071 -0.295339 -1.07944 0
M  V30 18 C -3.20734 -1.32226 -1.34727 0
M  V30 19 C -3.41142 -2.36887 -0.455542 0
M  V30 20 C -2.70841 -2.34044 0.733546 0
M  V30 21 H 5.60771 0.562126 -0.0837919 0
M  V30 22 H 5.42137 0.0447008 -1.77394 0
M  V30 23 H 0.732348 -1.20223 -1.19625 0
M  V30 24 H 3.2737 1.15234 1.20523 0
M  V30 25 H 0.653383 1.34293 1.78775 0
M  V30 26 H 0.949715 -1.48462 2.0633 0
M  V30 27 H 0.382267 -0.243413 3.27405 0
M  V30 28 H -1.55649 -1.69813 3.11653 0
M  V30 29 H -0.249745 3.81115 -1.5526 0
M  V30 30 H 0.994016 3.21689 -0.614683 0
M  V30 31 H -2.17754 0.533464 -1.78766 0
M  V30 32 H -3.74527 -1.32452 -2.28114 0
M  V30 33 H -4.09273 -3.1668 -0.69026 0
M  V30 34 H -2.83852 -3.13553 1.45929 0
M  V30 END ATOM
M  V30 BEGIN BOND
M  V30 1 1 1 2
M  V30 2 2 2 3
M  V30 3 1 3 4
M  V30 4 1 4 5
M  V30 5 2 5 6
M  V30 6 1 5 7
M  V30 7 1 7 8
M  V30 8 1 8 9
M  V30 9 1 9 10
M  V30 10 2 10 11
M  V30 11 1 11 12
M  V30 12 1 12 13
M  V30 13 2 13 14
M  V30 14 2 13 15
M  V30 15 1 13 16
M  V30 16 1 11 17
M  V30 17 2 17 18
M  V30 18 1 18 19
M  V30 19 2 19 20
M  V30 20 1 6 2
M  V30 21 1 12 7
M  V30 22 1 20 10
M  V30 23 1 1 21
M  V30 24 1 1 22
M  V30 25 1 4 23
M  V30 26 1 6 24
M  V30 27 1 7 25 CFG=1
M  V30 28 1 8 26
M  V30 29 1 8 27
M  V30 30 1 9 28
M  V30 31 1 16 29
M  V30 32 1 16 30
M  V30 33 1 17 31
M  V30 34 1 18 32
M  V30 35 1 19 33
M  V30 36 1 20 34
M  V30 END BOND
M  V30 END CTAB
M  END
