
     RDKit          3D

  0  0  0  0  0  0  0  0  0  0999 V3000
M  V30 BEGIN CTAB
M  V30 COUNTS 40 41 0 0 0
M  V30 BEGIN ATOM
M  V30 1 N -3.30728 3.1074 -0.394959 0
M  V30 2 C -2.30733 2.15832 0.0781372 0
M  V30 3 C -2.8163 0.803393 -0.250612 0
M  V30 4 N -1.97673 -0.302116 0.142252 0
M  V30 5 C -2.69953 -1.50512 -0.220705 0
M  V30 6 C -1.93188 -2.76272 0.0206244 0
M  V30 7 C -0.92172 -2.64959 1.1318 0
M  V30 8 C 0.382417 -2.17247 0.526664 0
M  V30 9 C 0.3607 -0.670407 0.57952 0 CFG=2
M  V30 10 C -0.687123 -0.22524 -0.453463 0
M  V30 11 C 1.65853 -0.0342778 0.329625 0
M  V30 12 C 2.16796 0.853316 1.26223 0
M  V30 13 C 3.38205 1.47268 1.06496 0
M  V30 14 C 4.06614 1.17731 -0.0883536 0
M  V30 15 C 3.56397 0.294494 -1.02033 0
M  V30 16 C 2.34995 -0.323943 -0.821702 0
M  V30 17 N 5.31642 1.7839 -0.342426 0
M  V30 18 H -2.9142 3.94122 -0.814428 0
M  V30 19 H -4.06489 3.25242 0.282173 0
M  V30 20 H -1.3825 2.46393 -0.402619 0
M  V30 21 H -2.20685 2.27437 1.17805 0
M  V30 22 H -3.77159 0.666089 0.340071 0
M  V30 23 H -3.13674 0.738055 -1.31194 0
M  V30 24 H -3.64651 -1.50718 0.349054 0
M  V30 25 H -2.9669 -1.42819 -1.29416 0
M  V30 26 H -1.41954 -3.12044 -0.891027 0
M  V30 27 H -2.65844 -3.55197 0.323104 0
M  V30 28 H -0.789821 -3.63336 1.64407 0
M  V30 29 H -1.2968 -1.94147 1.89659 0
M  V30 30 H 0.425385 -2.46494 -0.559315 0
M  V30 31 H 1.25975 -2.60993 1.04413 0
M  V30 32 H -0.0595103 -0.340126 1.56576 0
M  V30 33 H -0.392468 0.792123 -0.752695 0
M  V30 34 H -0.574667 -0.854851 -1.36209 0
M  V30 35 H 1.61722 1.08667 2.1834 0
M  V30 36 H 3.78275 2.1655 1.78967 0
M  V30 37 H 4.11252 0.0694692 -1.92604 0
M  V30 38 H 1.94957 -1.01227 -1.53977 0
M  V30 39 H 5.37676 2.54528 -1.0519 0
M  V30 40 H 6.15719 1.46468 0.17923 0
M  V30 END ATOM
M  V30 BEGIN BOND
M  V30 1 1 1 2
M  V30 2 1 2 3
M  V30 3 1 3 4
M  V30 4 1 4 5
M  V30 5 1 5 6
M  V30 6 1 6 7
M  V30 7 1 7 8
M  V30 8 1 8 9
M  V30 9 1 9 10
M  V30 10 1 9 11
M  V30 11 2 11 12
M  V30 12 1 12 13
M  V30 13 2 13 14
M  V30 14 1 14 15
M  V30 15 2 15 16
M  V30 16 1 14 17
M  V30 17 1 10 4
M  V30 18 1 16 11
M  V30 19 1 1 18
M  V30 20 1 1 19
M  V30 21 1 2 20
M  V30 22 1 2 21
M  V30 23 1 3 22
M  V30 24 1 3 23
M  V30 25 1 5 24
M  V30 26 1 5 25
M  V30 27 1 6 26
M  V30 28 1 6 27
M  V30 29 1 7 28
M  V30 30 1 7 29
M  V30 31 1 8 30
M  V30 32 1 8 31
M  V30 33 1 9 32 CFG=1
M  V30 34 1 10 33
M  V30 35 1 10 34
M  V30 36 1 12 35
M  V30 37 1 13 36
M  V30 38 1 15 37
M  V30 39 1 16 38
M  V30 40 1 17 39
M  V30 41 1 17 40
M  V30 END BOND
M  V30 END CTAB
M  END
