
     RDKit          3D

  0  0  0  0  0  0  0  0  0  0999 V3000
M  V30 BEGIN CTAB
M  V30 COUNTS 15 15 0 0 0
M  V30 BEGIN ATOM
M  V30 1 N -2.36405 -1.16514 -0.0748886 0
M  V30 2 C -1.14845 -0.451013 -0.0411951 0
M  V30 3 N 0.0375528 -1.08613 0.03665 0
M  V30 4 C 1.19903 -0.407133 0.0689778 0
M  V30 5 N 2.4608 -1.05671 0.15089 0
M  V30 6 C 1.12567 0.981239 0.0186337 0
M  V30 7 F 2.30635 1.65067 0.0522375 0
M  V30 8 C -0.072773 1.66287 -0.0613707 0
M  V30 9 C -1.24385 0.937182 -0.0925804 0
M  V30 10 F -2.43266 1.57929 -0.170815 0
M  V30 11 H -2.87899 -1.33486 0.802431 0
M  V30 12 H -2.73365 -1.51426 -0.97124 0
M  V30 13 H 3.20085 -0.595781 0.714707 0
M  V30 14 H 2.6458 -1.96088 -0.332651 0
M  V30 15 H -0.101636 2.76065 -0.0997861 0
M  V30 END ATOM
M  V30 BEGIN BOND
M  V30 1 1 1 2
M  V30 2 2 2 3
M  V30 3 1 3 4
M  V30 4 1 4 5
M  V30 5 2 4 6
M  V30 6 1 6 7
M  V30 7 1 6 8
M  V30 8 2 8 9
M  V30 9 1 9 10
M  V30 10 1 9 2
M  V30 11 1 1 11
M  V30 12 1 1 12
M  V30 13 1 5 13
M  V30 14 1 5 14
M  V30 15 1 8 15
M  V30 END BOND
M  V30 END CTAB
M  END
