
     RDKit          3D

  0  0  0  0  0  0  0  0  0  0999 V3000
M  V30 BEGIN CTAB
M  V30 COUNTS 48 51 0 0 0
M  V30 BEGIN ATOM
M  V30 1 C 0.378631 -2.3349 -1.65869 0
M  V30 2 O 0.134832 -1.73406 -0.385164 0
M  V30 3 C -0.0531134 -0.416665 -0.158577 0
M  V30 4 C 1.07299 0.378932 -0.0262106 0
M  V30 5 N 2.40868 -0.0384987 -0.0995478 0
M  V30 6 C 3.26913 -0.0682663 -1.24566 0
M  V30 7 C 4.68257 0.0485192 -0.682232 0
M  V30 8 C 4.59235 -0.688419 0.61186 0
M  V30 9 N 5.50181 -0.0706423 1.56907 0
M  V30 10 C 3.17071 -0.512761 1.02509 0
M  V30 11 C 0.927307 1.75988 0.202129 0
M  V30 12 F 2.01994 2.57646 0.337715 0
M  V30 13 C -0.302803 2.3531 0.299647 0
M  V30 14 N -0.430184 3.75228 0.528022 0
M  V30 15 C -1.40919 1.5463 0.168517 0
M  V30 16 C -1.29568 0.156485 -0.0591745 0
M  V30 17 N -2.4432 -0.540215 -0.141855 0
M  V30 18 C -3.63221 0.0850547 -0.01943 0
M  V30 19 C -3.76497 1.43082 0.195523 0
M  V30 20 C -5.05889 2.08301 0.322209 0
M  V30 21 O -5.15167 3.44131 0.538366 0
M  V30 22 O -6.09742 1.35072 0.225623 0
M  V30 23 C -2.62163 2.18917 0.294336 0
M  V30 24 O -2.69171 3.45087 0.496736 0
M  V30 25 C -2.48221 -1.9772 -0.274972 0
M  V30 26 C -2.31984 -2.90263 0.869746 0
M  V30 27 C -3.69109 -2.59339 0.524655 0
M  V30 28 H 1.44876 -2.55911 -1.83515 0
M  V30 29 H -0.0628345 -3.37696 -1.55624 0
M  V30 30 H -0.15675 -1.86904 -2.48052 0
M  V30 31 H 3.06266 0.690043 -2.00045 0
M  V30 32 H 3.22263 -1.06728 -1.70599 0
M  V30 33 H 4.85677 1.11829 -0.494433 0
M  V30 34 H 5.40964 -0.36932 -1.39291 0
M  V30 35 H 4.85569 -1.76632 0.47795 0
M  V30 36 H 5.96601 -0.801961 2.17634 0
M  V30 37 H 6.23543 0.462044 1.03146 0
M  V30 38 H 3.13554 0.179254 1.89126 0
M  V30 39 H 2.78993 -1.50598 1.34447 0
M  V30 40 H -0.463461 4.19817 1.44922 0
M  V30 41 H -0.4938 4.36155 -0.317463 0
M  V30 42 H -4.57629 -0.464747 -0.0945209 0
M  V30 43 H -5.11238 4.04291 -0.282633 0
M  V30 44 H -2.62396 -2.29158 -1.33068 0
M  V30 45 H -1.78439 -2.49576 1.74395 0
M  V30 46 H -1.91337 -3.91625 0.580978 0
M  V30 47 H -4.28025 -3.36468 0.0454392 0
M  V30 48 H -4.22872 -1.92856 1.21802 0
M  V30 END ATOM
M  V30 BEGIN BOND
M  V30 1 1 1 2
M  V30 2 1 2 3
M  V30 3 2 3 4
M  V30 4 1 4 5
M  V30 5 1 5 6
M  V30 6 1 6 7
M  V30 7 1 7 8
M  V30 8 1 8 9
M  V30 9 1 8 10
M  V30 10 1 4 11
M  V30 11 1 11 12
M  V30 12 2 11 13
M  V30 13 1 13 14
M  V30 14 1 13 15
M  V30 15 2 15 16
M  V30 16 1 16 17
M  V30 17 1 17 18
M  V30 18 2 18 19
M  V30 19 1 19 20
M  V30 20 1 20 21
M  V30 21 2 20 22
M  V30 22 1 19 23
M  V30 23 2 23 24
M  V30 24 1 17 25
M  V30 25 1 25 26
M  V30 26 1 26 27
M  V30 27 1 16 3
M  V30 28 1 27 25
M  V30 29 1 10 5
M  V30 30 1 23 15
M  V30 31 1 1 28
M  V30 32 1 1 29
M  V30 33 1 1 30
M  V30 34 1 6 31
M  V30 35 1 6 32
M  V30 36 1 7 33
M  V30 37 1 7 34
M  V30 38 1 8 35
M  V30 39 1 9 36
M  V30 40 1 9 37
M  V30 41 1 10 38
M  V30 42 1 10 39
M  V30 43 1 14 40
M  V30 44 1 14 41
M  V30 45 1 18 42
M  V30 46 1 21 43
M  V30 47 1 25 44
M  V30 48 1 26 45
M  V30 49 1 26 46
M  V30 50 1 27 47
M  V30 51 1 27 48
M  V30 END BOND
M  V30 END CTAB
M  END
