
     RDKit          3D

  0  0  0  0  0  0  0  0  0  0999 V3000
M  V30 BEGIN CTAB
M  V30 COUNTS 20 20 0 0 0
M  V30 BEGIN ATOM
M  V30 1 N -3.26575 1.10027 0.531307 0
M  V30 2 N -2.4783 0.0842185 -0.0173072 0
M  V30 3 C -1.06122 0.167289 0.0283136 0
M  V30 4 N -0.424715 1.20992 0.592061 0
M  V30 5 C 0.918435 1.29765 0.640165 0
M  V30 6 C 1.7189 0.314191 0.109138 0
M  V30 7 C 1.10916 -0.774476 -0.479469 0
M  V30 8 C -0.269502 -0.822731 -0.506261 0
M  V30 9 N -0.913251 -1.93272 -1.10643 0
M  V30 10 C 3.19496 0.461398 0.189452 0
M  V30 11 H -2.76263 1.52113 1.36438 0
M  V30 12 H -4.17723 0.746297 0.866125 0
M  V30 13 H -2.94673 -0.719604 -0.451897 0
M  V30 14 H 1.38875 2.15861 1.10563 0
M  V30 15 H 1.71852 -1.56581 -0.906768 0
M  V30 16 H -1.01445 -2.86834 -0.677229 0
M  V30 17 H -1.31824 -1.7884 -2.06362 0
M  V30 18 H 3.45259 0.346381 1.27801 0
M  V30 19 H 3.47836 1.44978 -0.169242 0
M  V30 20 H 3.65232 -0.385056 -0.326361 0
M  V30 END ATOM
M  V30 BEGIN BOND
M  V30 1 1 1 2
M  V30 2 1 2 3
M  V30 3 2 3 4
M  V30 4 1 4 5
M  V30 5 2 5 6
M  V30 6 1 6 7
M  V30 7 2 7 8
M  V30 8 1 8 9
M  V30 9 1 6 10
M  V30 10 1 8 3
M  V30 11 1 1 11
M  V30 12 1 1 12
M  V30 13 1 2 13
M  V30 14 1 5 14
M  V30 15 1 7 15
M  V30 16 1 9 16
M  V30 17 1 9 17
M  V30 18 1 10 18
M  V30 19 1 10 19
M  V30 20 1 10 20
M  V30 END BOND
M  V30 END CTAB
M  END
