
     RDKit          3D

  0  0  0  0  0  0  0  0  0  0999 V3000
M  V30 BEGIN CTAB
M  V30 COUNTS 28 29 0 0 0
M  V30 BEGIN ATOM
M  V30 1 N -3.28534 1.58563 0.726351 0
M  V30 2 C -3.29357 0.147714 0.410295 0
M  V30 3 C -2.14169 -0.0782685 -0.533454 0
M  V30 4 C -0.786233 0.289878 0.0311227 0
M  V30 5 C -0.240017 -0.88187 -0.75978 0
M  V30 6 C -1.63633 -1.50338 -0.604518 0
M  V30 7 C 0.850173 -1.6433 -0.0906859 0
M  V30 8 C 1.98821 -0.709158 0.159495 0
M  V30 9 N 3.15733 -1.02988 0.749247 0
M  V30 10 N 3.95856 0.0181346 0.823625 0
M  V30 11 C 3.27663 1.04311 0.261665 0
M  V30 12 N 2.06858 0.59336 -0.144523 0
M  V30 13 N 3.81626 2.34269 0.157277 0
M  V30 14 H -4.02026 2.09923 0.215749 0
M  V30 15 H -2.33185 1.97096 0.595224 0
M  V30 16 H -3.12376 -0.37602 1.35054 0
M  V30 17 H -4.26766 -0.047212 -0.053236 0
M  V30 18 H -2.27111 0.366818 -1.52993 0
M  V30 19 H -0.42329 1.28701 -0.281437 0
M  V30 20 H -0.661603 0.0715967 1.12304 0
M  V30 21 H -0.0517689 -0.57064 -1.80428 0
M  V30 22 H -1.68502 -2.01732 0.394241 0
M  V30 23 H -1.96867 -2.09341 -1.4588 0
M  V30 24 H 0.466329 -2.06292 0.859613 0
M  V30 25 H 1.21146 -2.44138 -0.739978 0
M  V30 26 H 3.36812 -1.99344 1.09119 0
M  V30 27 H 4.10122 2.8416 1.01766 0
M  V30 28 H 3.92531 2.79047 -0.768553 0
M  V30 END ATOM
M  V30 BEGIN BOND
M  V30 1 1 1 2
M  V30 2 1 2 3
M  V30 3 1 3 4
M  V30 4 1 4 5
M  V30 5 1 5 6
M  V30 6 1 5 7
M  V30 7 1 7 8
M  V30 8 1 8 9
M  V30 9 1 9 10
M  V30 10 2 10 11
M  V30 11 1 11 12
M  V30 12 1 11 13
M  V30 13 1 6 3
M  V30 14 2 12 8
M  V30 15 1 1 14
M  V30 16 1 1 15
M  V30 17 1 2 16
M  V30 18 1 2 17
M  V30 19 1 3 18
M  V30 20 1 4 19
M  V30 21 1 4 20
M  V30 22 1 5 21
M  V30 23 1 6 22
M  V30 24 1 6 23
M  V30 25 1 7 24
M  V30 26 1 7 25
M  V30 27 1 9 26
M  V30 28 1 13 27
M  V30 29 1 13 28
M  V30 END BOND
M  V30 END CTAB
M  END
