
     RDKit          3D

  0  0  0  0  0  0  0  0  0  0999 V3000
M  V30 BEGIN CTAB
M  V30 COUNTS 34 35 0 0 0
M  V30 BEGIN ATOM
M  V30 1 N 5.81974 1.01191 -1.22022 0
M  V30 2 C 5.74797 0.127557 -0.124079 0
M  V30 3 N 6.52013 0.378483 0.894838 0
M  V30 4 N 4.90235 -1.00455 -0.0542434 0
M  V30 5 C 3.48502 -0.935975 -0.00234084 0
M  V30 6 C 2.6784 -2.03748 0.0651938 0
M  V30 7 C 1.29145 -1.94203 0.11501 0
M  V30 8 C 0.69501 -0.719252 0.0970445 0
M  V30 9 C 1.4954 0.396349 0.0292739 0
M  V30 10 C 2.87117 0.31032 -0.0204275 0
M  V30 11 C -0.755707 -0.602141 0.148596 0
M  V30 12 O -1.46251 -1.64626 0.21047 0
M  V30 13 O -1.41889 0.607825 0.133559 0
M  V30 14 C -2.80606 0.63301 0.185763 0
M  V30 15 C -3.371 0.685781 1.45287 0
M  V30 16 C -4.74324 0.713705 1.5927 0
M  V30 17 C -5.58552 0.690467 0.495253 0
M  V30 18 N -7.00047 0.718928 0.629849 0
M  V30 19 C -4.98379 0.637763 -0.751758 0
M  V30 20 C -3.61352 0.609121 -0.913589 0
M  V30 21 H 5.58483 2.02786 -1.01165 0
M  V30 22 H 6.08023 0.742894 -2.19249 0
M  V30 23 H 6.52175 -0.240686 1.75404 0
M  V30 24 H 5.33959 -1.9473 -0.0397357 0
M  V30 25 H 3.16553 -3.01792 0.0792536 0
M  V30 26 H 0.751114 -2.87885 0.16688 0
M  V30 27 H 1.07866 1.39909 0.0117808 0
M  V30 28 H 3.50122 1.18692 -0.0737174 0
M  V30 29 H -2.74492 0.705422 2.33803 0
M  V30 30 H -5.229 0.755079 2.56499 0
M  V30 31 H -7.49341 1.55971 0.98264 0
M  V30 32 H -7.55484 -0.112688 0.372303 0
M  V30 33 H -5.63099 0.61905 -1.62011 0
M  V30 34 H -3.13571 0.567887 -1.88566 0
M  V30 END ATOM
M  V30 BEGIN BOND
M  V30 1 1 1 2
M  V30 2 2 2 3 CFG=2
M  V30 3 1 2 4
M  V30 4 1 4 5
M  V30 5 2 5 6
M  V30 6 1 6 7
M  V30 7 2 7 8
M  V30 8 1 8 9
M  V30 9 2 9 10
M  V30 10 1 8 11
M  V30 11 2 11 12
M  V30 12 1 11 13
M  V30 13 1 13 14
M  V30 14 2 14 15
M  V30 15 1 15 16
M  V30 16 2 16 17
M  V30 17 1 17 18
M  V30 18 1 17 19
M  V30 19 2 19 20
M  V30 20 1 10 5
M  V30 21 1 20 14
M  V30 22 1 1 21
M  V30 23 1 1 22
M  V30 24 1 3 23
M  V30 25 1 4 24
M  V30 26 1 6 25
M  V30 27 1 7 26
M  V30 28 1 9 27
M  V30 29 1 10 28
M  V30 30 1 15 29
M  V30 31 1 16 30
M  V30 32 1 18 31
M  V30 33 1 18 32
M  V30 34 1 19 33
M  V30 35 1 20 34
M  V30 END BOND
M  V30 END CTAB
M  END
