
     RDKit          3D

  0  0  0  0  0  0  0  0  0  0999 V3000
M  V30 BEGIN CTAB
M  V30 COUNTS 14 14 0 0 0
M  V30 BEGIN ATOM
M  V30 1 N -3.4481 -0.121144 -0.166335 0
M  V30 2 C -2.02532 -0.141051 -0.0374273 0
M  V30 3 N -1.19412 -1.1703 0.0414285 0
M  V30 4 C 0.0771161 -0.971528 0.155837 0
M  V30 5 C 0.524553 0.323495 0.191828 0
M  V30 6 S -0.956066 1.18741 0.0547512 0
M  V30 7 C 1.90582 0.822502 0.315133 0
M  V30 8 S 2.14486 2.01423 1.43534 0
M  V30 9 N 2.96247 0.320264 -0.469316 0
M  V30 10 Cl 1.2483 -2.31269 0.266549 0
M  V30 11 H -4.01468 -0.885881 0.233586 0
M  V30 12 H -3.91892 0.658923 -0.660738 0
M  V30 13 H 3.6594 -0.31067 -0.0507799 0
M  V30 14 H 3.03469 0.586448 -1.46149 0
M  V30 END ATOM
M  V30 BEGIN BOND
M  V30 1 1 1 2
M  V30 2 2 2 3
M  V30 3 1 3 4
M  V30 4 2 4 5
M  V30 5 1 5 6
M  V30 6 1 5 7
M  V30 7 2 7 8
M  V30 8 1 7 9
M  V30 9 1 4 10
M  V30 10 1 6 2
M  V30 11 1 1 11
M  V30 12 1 1 12
M  V30 13 1 9 13
M  V30 14 1 9 14
M  V30 END BOND
M  V30 END CTAB
M  END
