
     RDKit          3D

  0  0  0  0  0  0  0  0  0  0999 V3000
M  V30 BEGIN CTAB
M  V30 COUNTS 21 21 0 0 0
M  V30 BEGIN ATOM
M  V30 1 C 2.97704 -0.716498 -0.780636 0
M  V30 2 C 1.57451 -0.40627 -0.422221 0
M  V30 3 C 1.28352 0.88803 -0.0373251 0
M  V30 4 C 0.00773224 1.26527 0.312672 0
M  V30 5 N -0.327173 2.58265 0.712206 0
M  V30 6 C -0.971428 0.280215 0.259481 0
M  V30 7 C -0.690792 -1.01967 -0.124752 0
M  V30 8 N 0.590363 -1.30045 -0.451466 0
M  V30 9 C -1.76632 -2.06432 -0.173748 0
M  V30 10 N -2.30339 0.615798 0.610199 0
M  V30 11 H 3.08301 -1.53808 -1.49645 0
M  V30 12 H 3.49722 0.169838 -1.16689 0
M  V30 13 H 3.54914 -1.03154 0.137465 0
M  V30 14 H 2.08604 1.63309 -0.0094336 0
M  V30 15 H -0.218805 2.91052 1.71558 0
M  V30 16 H -0.693409 3.26253 0.00665062 0
M  V30 17 H -2.36452 -2.07493 0.75208 0
M  V30 18 H -2.43754 -1.89019 -1.05042 0
M  V30 19 H -1.23779 -3.04403 -0.288772 0
M  V30 20 H -2.69738 1.56888 0.456437 0
M  V30 21 H -2.94003 -0.0908363 1.03934 0
M  V30 END ATOM
M  V30 BEGIN BOND
M  V30 1 1 1 2
M  V30 2 2 2 3
M  V30 3 1 3 4
M  V30 4 1 4 5
M  V30 5 2 4 6
M  V30 6 1 6 7
M  V30 7 2 7 8
M  V30 8 1 7 9
M  V30 9 1 6 10
M  V30 10 1 8 2
M  V30 11 1 1 11
M  V30 12 1 1 12
M  V30 13 1 1 13
M  V30 14 1 3 14
M  V30 15 1 5 15
M  V30 16 1 5 16
M  V30 17 1 9 17
M  V30 18 1 9 18
M  V30 19 1 9 19
M  V30 20 1 10 20
M  V30 21 1 10 21
M  V30 END BOND
M  V30 END CTAB
M  END
