
     RDKit          3D

  0  0  0  0  0  0  0  0  0  0999 V3000
M  V30 BEGIN CTAB
M  V30 COUNTS 39 40 0 0 0
M  V30 BEGIN ATOM
M  V30 1 C 0.878801 -0.498913 -1.41408 0
M  V30 2 N 0.728266 0.290905 -0.275519 0
M  V30 3 C 0.0299692 -0.161657 0.857018 0
M  V30 4 C -1.36447 -0.605877 0.575824 0
M  V30 5 C -1.54294 -1.87502 0.0382995 0
M  V30 6 C -2.80069 -2.37447 -0.270479 0
M  V30 7 C -3.91411 -1.6074 -0.0451382 0
M  V30 8 C -3.76267 -0.336449 0.492186 0
M  V30 9 C -2.48764 0.149531 0.796289 0
M  V30 10 S -5.14159 0.688983 0.806282 0
M  V30 11 O -6.34813 -0.149861 1.16391 0
M  V30 12 O -4.79622 1.64844 1.90684 0
M  V30 13 N -5.4699 1.61557 -0.622548 0
M  V30 14 C 0.780508 -1.33744 1.51476 0
M  V30 15 C 1.49596 1.45493 -0.121591 0
M  V30 16 C 2.95864 1.16034 -0.0577899 0
M  V30 17 C 3.68565 0.0155872 -0.17001 0
M  V30 18 N 4.97589 0.0876892 -0.0512689 0
M  V30 19 C 5.55825 1.25178 0.173604 0
M  V30 20 S 4.23107 2.31893 0.222768 0
M  V30 21 N 6.96089 1.49986 0.32778 0
M  V30 22 H 1.71217 -0.041049 -2.03621 0
M  V30 23 H 0.0113547 -0.460231 -2.12996 0
M  V30 24 H 1.12592 -1.5434 -1.21836 0
M  V30 25 H -0.00144597 0.633688 1.62502 0
M  V30 26 H -0.711843 -2.52031 -0.14942 0
M  V30 27 H -2.93235 -3.36348 -0.686211 0
M  V30 28 H -4.90715 -1.95471 -0.271477 0
M  V30 29 H -2.34866 1.14728 1.21869 0
M  V30 30 H -5.48647 0.95794 -1.42418 0
M  V30 31 H -4.65561 2.26556 -0.7434 0
M  V30 32 H 0.0540201 -1.91408 2.1544 0
M  V30 33 H 1.58018 -0.892543 2.1317 0
M  V30 34 H 1.19721 -1.95105 0.707849 0
M  V30 35 H 1.31489 2.23481 -0.8966 0
M  V30 36 H 1.2694 1.96073 0.858783 0
M  V30 37 H 3.2074 -0.974963 -0.36329 0
M  V30 38 H 7.53623 1.60299 -0.518139 0
M  V30 39 H 7.37922 1.57734 1.26715 0
M  V30 END ATOM
M  V30 BEGIN BOND
M  V30 1 1 1 2
M  V30 2 1 2 3
M  V30 3 1 3 4
M  V30 4 2 4 5
M  V30 5 1 5 6
M  V30 6 2 6 7
M  V30 7 1 7 8
M  V30 8 2 8 9
M  V30 9 1 8 10
M  V30 10 2 10 11
M  V30 11 2 10 12
M  V30 12 1 10 13
M  V30 13 1 3 14
M  V30 14 1 2 15
M  V30 15 1 15 16
M  V30 16 2 16 17
M  V30 17 1 17 18
M  V30 18 2 18 19
M  V30 19 1 19 20
M  V30 20 1 19 21
M  V30 21 1 9 4
M  V30 22 1 20 16
M  V30 23 1 1 22
M  V30 24 1 1 23
M  V30 25 1 1 24
M  V30 26 1 3 25
M  V30 27 1 5 26
M  V30 28 1 6 27
M  V30 29 1 7 28
M  V30 30 1 9 29
M  V30 31 1 13 30
M  V30 32 1 13 31
M  V30 33 1 14 32
M  V30 34 1 14 33
M  V30 35 1 14 34
M  V30 36 1 15 35
M  V30 37 1 15 36
M  V30 38 1 17 37
M  V30 39 1 21 38
M  V30 40 1 21 39
M  V30 END BOND
M  V30 END CTAB
M  END
