
     RDKit          3D

  0  0  0  0  0  0  0  0  0  0999 V3000
M  V30 BEGIN CTAB
M  V30 COUNTS 48 48 0 0 0
M  V30 BEGIN ATOM
M  V30 1 C 6.1839 1.99224 0.847025 0
M  V30 2 O 5.19163 1.02753 0.836618 0
M  V30 3 C 5.24972 0.147649 -0.20074 0
M  V30 4 C 4.11851 0.141751 -1.15737 0
M  V30 5 C 2.78386 -0.111341 -0.657221 0
M  V30 6 O 2.49697 -0.186378 0.555457 0
M  V30 7 N 1.7191 -0.288747 -1.57973 0
M  V30 8 C 0.346461 -0.541297 -1.23653 0
M  V30 9 C -0.273703 0.543028 -0.448325 0
M  V30 10 C -1.69536 0.294541 -0.0920879 0
M  V30 11 C -2.04027 -0.0850339 1.188 0
M  V30 12 C -3.32794 -0.330558 1.58722 0
M  V30 13 C -4.34695 -0.193824 0.66561 0
M  V30 14 C -4.05116 0.186781 -0.638118 0
M  V30 15 C -2.73289 0.424462 -0.995689 0
M  V30 16 C -5.73409 -0.453105 1.07633 0
M  V30 17 C -6.28377 -1.5902 0.237845 0
M  V30 18 C -6.62302 0.758874 0.90567 0
M  V30 19 N -0.26993 1.78975 -1.23087 0
M  V30 20 C 5.67034 -1.245 0.157153 0
M  V30 21 N 4.79339 -1.81296 1.1127 0
M  V30 22 H 6.08405 2.66328 1.69747 0
M  V30 23 H 6.10666 2.55012 -0.109037 0
M  V30 24 H 7.20443 1.56148 0.878434 0
M  V30 25 H 6.20063 0.526793 -0.795259 0
M  V30 26 H 4.12888 1.15643 -1.67145 0
M  V30 27 H 4.28248 -0.600732 -2.00082 0
M  V30 28 H 1.95955 -0.228352 -2.60512 0
M  V30 29 H -0.197314 -0.81694 -2.15838 0
M  V30 30 H 0.370163 -1.48969 -0.621744 0
M  V30 31 H 0.264259 0.676831 0.504854 0
M  V30 32 H -1.26006 -0.197438 1.9225 0
M  V30 33 H -3.59312 -0.630027 2.59997 0
M  V30 34 H -4.86807 0.289182 -1.34994 0
M  V30 35 H -2.49199 0.717197 -1.9931 0
M  V30 36 H -5.77607 -0.742996 2.14382 0
M  V30 37 H -6.46396 -1.2216 -0.792581 0
M  V30 38 H -5.51952 -2.39565 0.264412 0
M  V30 39 H -7.21184 -1.99245 0.70208 0
M  V30 40 H -6.71365 1.04721 -0.173927 0
M  V30 41 H -6.27834 1.59707 1.52886 0
M  V30 42 H -7.64524 0.452738 1.22198 0
M  V30 43 H -0.999695 2.40411 -0.804582 0
M  V30 44 H -0.626842 1.52447 -2.17606 0
M  V30 45 H 6.74698 -1.29501 0.447924 0
M  V30 46 H 5.59539 -1.85168 -0.781438 0
M  V30 47 H 4.73118 -1.32661 2.01256 0
M  V30 48 H 4.79626 -2.84589 1.17566 0
M  V30 END ATOM
M  V30 BEGIN BOND
M  V30 1 1 1 2
M  V30 2 1 2 3
M  V30 3 1 3 4
M  V30 4 1 4 5
M  V30 5 2 5 6
M  V30 6 1 5 7
M  V30 7 1 7 8
M  V30 8 1 8 9
M  V30 9 1 9 10
M  V30 10 2 10 11
M  V30 11 1 11 12
M  V30 12 2 12 13
M  V30 13 1 13 14
M  V30 14 2 14 15
M  V30 15 1 13 16
M  V30 16 1 16 17
M  V30 17 1 16 18
M  V30 18 1 9 19
M  V30 19 1 3 20
M  V30 20 1 20 21
M  V30 21 1 15 10
M  V30 22 1 1 22
M  V30 23 1 1 23
M  V30 24 1 1 24
M  V30 25 1 3 25
M  V30 26 1 4 26
M  V30 27 1 4 27
M  V30 28 1 7 28
M  V30 29 1 8 29
M  V30 30 1 8 30
M  V30 31 1 9 31
M  V30 32 1 11 32
M  V30 33 1 12 33
M  V30 34 1 14 34
M  V30 35 1 15 35
M  V30 36 1 16 36
M  V30 37 1 17 37
M  V30 38 1 17 38
M  V30 39 1 17 39
M  V30 40 1 18 40
M  V30 41 1 18 41
M  V30 42 1 18 42
M  V30 43 1 19 43
M  V30 44 1 19 44
M  V30 45 1 20 45
M  V30 46 1 20 46
M  V30 47 1 21 47
M  V30 48 1 21 48
M  V30 END BOND
M  V30 END CTAB
M  END
