
     RDKit          3D

  0  0  0  0  0  0  0  0  0  0999 V3000
M  V30 BEGIN CTAB
M  V30 COUNTS 21 22 0 0 0
M  V30 BEGIN ATOM
M  V30 1 Cl -5.05598 0.165123 -0.225028 0
M  V30 2 C -3.31289 0.184376 0.00973721 0
M  V30 3 C -2.79093 0.717128 1.15613 0
M  V30 4 C -1.40589 0.7328 1.34341 0
M  V30 5 C -0.552077 0.22334 0.398825 0
M  V30 6 C -1.0813 -0.312249 -0.754172 0
M  V30 7 C -2.46341 -0.337265 -0.960209 0
M  V30 8 N -0.247893 -0.855821 -1.77069 0
M  V30 9 C 0.882476 0.259554 0.633543 0
M  V30 10 O 1.53588 0.727889 1.66308 0
M  V30 11 N 2.81895 0.58567 1.51645 0
M  V30 12 C 3.05695 -0.0101936 0.32641 0
M  V30 13 N 1.84291 -0.209095 -0.215778 0
M  V30 14 N 4.33563 -0.351536 -0.227345 0
M  V30 15 H -3.44738 1.12366 1.91267 0
M  V30 16 H -0.994515 1.15126 2.24401 0
M  V30 17 H -2.84819 -0.763626 -1.87397 0
M  V30 18 H -0.146648 -1.89268 -1.89241 0
M  V30 19 H 0.282558 -0.234348 -2.41944 0
M  V30 20 H 4.86595 0.414005 -0.698289 0
M  V30 21 H 4.72579 -1.31799 -0.166948 0
M  V30 END ATOM
M  V30 BEGIN BOND
M  V30 1 1 1 2
M  V30 2 2 2 3
M  V30 3 1 3 4
M  V30 4 2 4 5
M  V30 5 1 5 6
M  V30 6 2 6 7
M  V30 7 1 6 8
M  V30 8 1 5 9
M  V30 9 1 9 10
M  V30 10 1 10 11
M  V30 11 2 11 12
M  V30 12 1 12 13
M  V30 13 1 12 14
M  V30 14 1 7 2
M  V30 15 2 13 9
M  V30 16 1 3 15
M  V30 17 1 4 16
M  V30 18 1 7 17
M  V30 19 1 8 18
M  V30 20 1 8 19
M  V30 21 1 14 20
M  V30 22 1 14 21
M  V30 END BOND
M  V30 END CTAB
M  END
