
     RDKit          3D

  0  0  0  0  0  0  0  0  0  0999 V3000
M  V30 BEGIN CTAB
M  V30 COUNTS 53 55 0 0 0
M  V30 BEGIN ATOM
M  V30 1 C 7.19645 2.46128 -0.0939765 0
M  V30 2 C 7.55695 1.30404 0.80838 0
M  V30 3 O 6.47222 0.990119 1.61826 0
M  V30 4 C 5.27043 0.545932 1.10736 0
M  V30 5 C 4.217 0.270835 2.00641 0
M  V30 6 C 2.99839 -0.174602 1.57351 0
M  V30 7 C 2.72638 -0.381274 0.239257 0
M  V30 8 C 3.75858 -0.111735 -0.635516 0
M  V30 9 C 4.98756 0.336052 -0.21448 0
M  V30 10 N 1.45473 -0.844838 -0.219447 0
M  V30 11 C 1.13427 -2.15746 -0.200176 0
M  V30 12 C 1.98984 -3.2833 0.277117 0
M  V30 13 C -0.156674 -2.22249 -0.717523 0
M  V30 14 C -0.585591 -0.954291 -1.03599 0
M  V30 15 C 0.439096 -0.115635 -0.715033 0
M  V30 16 C 0.472452 1.35319 -0.869406 0
M  V30 17 C -1.90154 -0.583488 -1.60925 0
M  V30 18 O -2.13801 0.625919 -1.78734 0
M  V30 19 C -2.86646 -1.63859 -1.94284 0
M  V30 20 S -4.38935 -0.875862 -2.54424 0
M  V30 21 C -5.19024 -0.0464207 -1.19863 0
M  V30 22 N -4.90821 1.22508 -0.928544 0
M  V30 23 C -5.49005 1.91146 0.080411 0
M  V30 24 N -5.15483 3.26437 0.32993 0
M  V30 25 C -6.40968 1.2296 0.838626 0
M  V30 26 C -6.74016 -0.0887213 0.602786 0
M  V30 27 C -6.10438 -0.722384 -0.44418 0
M  V30 28 C -6.46116 -2.09502 -0.676114 0
M  V30 29 N -6.75984 -3.1863 -0.874811 0
M  V30 30 N -7.70834 -0.769999 1.41049 0
M  V30 31 H 6.15657 2.76901 0.0506333 0
M  V30 32 H 7.85796 3.33213 0.141607 0
M  V30 33 H 7.38027 2.20961 -1.15598 0
M  V30 34 H 8.46789 1.58411 1.40779 0
M  V30 35 H 7.81418 0.42416 0.145221 0
M  V30 36 H 4.4328 0.434835 3.0655 0
M  V30 37 H 2.1949 -0.381462 2.28644 0
M  V30 38 H 3.56395 -0.268645 -1.693 0
M  V30 39 H 5.74147 0.509798 -0.95633 0
M  V30 40 H 1.94928 -3.26306 1.39487 0
M  V30 41 H 1.57774 -4.23328 -0.0760444 0
M  V30 42 H 3.05084 -3.14269 -0.00985084 0
M  V30 43 H -0.702606 -3.15463 -0.833158 0
M  V30 44 H 0.120187 1.69051 -1.87643 0
M  V30 45 H 1.50383 1.75487 -0.753759 0
M  V30 46 H -0.1564 1.80001 -0.0608527 0
M  V30 47 H -2.47848 -2.27538 -2.79072 0
M  V30 48 H -3.05309 -2.33972 -1.10181 0
M  V30 49 H -5.38499 3.72519 1.23327 0
M  V30 50 H -4.66586 3.83663 -0.388598 0
M  V30 51 H -6.89246 1.75556 1.65555 0
M  V30 52 H -7.52186 -1.17463 2.34309 0
M  V30 53 H -8.66595 -0.858371 1.02037 0
M  V30 END ATOM
M  V30 BEGIN BOND
M  V30 1 1 1 2
M  V30 2 1 2 3
M  V30 3 1 3 4
M  V30 4 2 4 5
M  V30 5 1 5 6
M  V30 6 2 6 7
M  V30 7 1 7 8
M  V30 8 2 8 9
M  V30 9 1 7 10
M  V30 10 1 10 11
M  V30 11 1 11 12
M  V30 12 2 11 13
M  V30 13 1 13 14
M  V30 14 2 14 15
M  V30 15 1 15 16
M  V30 16 1 14 17
M  V30 17 2 17 18
M  V30 18 1 17 19
M  V30 19 1 19 20
M  V30 20 1 20 21
M  V30 21 2 21 22
M  V30 22 1 22 23
M  V30 23 1 23 24
M  V30 24 2 23 25
M  V30 25 1 25 26
M  V30 26 2 26 27
M  V30 27 1 27 28
M  V30 28 3 28 29
M  V30 29 1 26 30
M  V30 30 1 9 4
M  V30 31 1 15 10
M  V30 32 1 27 21
M  V30 33 1 1 31
M  V30 34 1 1 32
M  V30 35 1 1 33
M  V30 36 1 2 34
M  V30 37 1 2 35
M  V30 38 1 5 36
M  V30 39 1 6 37
M  V30 40 1 8 38
M  V30 41 1 9 39
M  V30 42 1 12 40
M  V30 43 1 12 41
M  V30 44 1 12 42
M  V30 45 1 13 43
M  V30 46 1 16 44
M  V30 47 1 16 45
M  V30 48 1 16 46
M  V30 49 1 19 47
M  V30 50 1 19 48
M  V30 51 1 24 49
M  V30 52 1 24 50
M  V30 53 1 25 51
M  V30 54 1 30 52
M  V30 55 1 30 53
M  V30 END BOND
M  V30 END CTAB
M  END
