
     RDKit          3D

  0  0  0  0  0  0  0  0  0  0999 V3000
M  V30 BEGIN CTAB
M  V30 COUNTS 43 44 0 0 0
M  V30 BEGIN ATOM
M  V30 1 N 7.11534 -1.46482 1.01665 0
M  V30 2 C 7.07082 -0.0556711 0.634088 0
M  V30 3 C 5.63157 0.420532 0.704205 0
M  V30 4 O 4.88278 -0.363746 -0.189185 0
M  V30 5 C 3.52495 -0.189773 -0.371062 0
M  V30 6 C 2.88485 0.790999 0.352999 0
M  V30 7 C 1.50258 1.00977 0.205349 0
M  V30 8 C 0.807499 0.224981 -0.674184 0
M  V30 9 C 1.43431 -0.771926 -1.41652 0
M  V30 10 C 2.78594 -0.957748 -1.24733 0
M  V30 11 N -0.592541 0.384541 -0.836642 0
M  V30 12 C -1.50642 0.934514 0.0804492 0
M  V30 13 O -1.17189 1.35537 1.19168 0
M  V30 14 C -2.94109 1.00427 -0.325485 0
M  V30 15 C -3.80231 1.60604 0.7329 0
M  V30 16 C -5.256 1.29597 0.364957 0
M  V30 17 C -5.49323 -0.163192 0.661935 0
M  V30 18 C -4.25286 -0.996616 0.431073 0
M  V30 19 C -3.40433 -0.37426 -0.669799 0
M  V30 20 N -4.62937 -2.32981 -0.0523722 0
M  V30 21 H 6.29418 -1.93419 0.576679 0
M  V30 22 H 8.01682 -1.84648 0.656282 0
M  V30 23 H 7.4425 0.00282207 -0.406047 0
M  V30 24 H 7.73961 0.550214 1.26942 0
M  V30 25 H 5.24815 0.330924 1.73622 0
M  V30 26 H 5.62599 1.50479 0.413706 0
M  V30 27 H 3.4055 1.42885 1.0576 0
M  V30 28 H 1.03425 1.79932 0.779064 0
M  V30 29 H 0.834702 -1.35569 -2.08959 0
M  V30 30 H 3.27361 -1.73646 -1.82772 0
M  V30 31 H -0.9569 0.0379923 -1.7958 0
M  V30 32 H -2.97709 1.66218 -1.21594 0
M  V30 33 H -3.65325 1.13475 1.73638 0
M  V30 34 H -3.65318 2.6905 0.867826 0
M  V30 35 H -5.32025 1.41976 -0.742068 0
M  V30 36 H -5.95043 1.95708 0.897268 0
M  V30 37 H -6.28691 -0.55971 -0.0295561 0
M  V30 38 H -5.8642 -0.229682 1.69981 0
M  V30 39 H -3.66765 -1.11812 1.36399 0
M  V30 40 H -2.57557 -1.09013 -0.863804 0
M  V30 41 H -4.02436 -0.345465 -1.58873 0
M  V30 42 H -3.87658 -2.67341 -0.69056 0
M  V30 43 H -4.69956 -2.98928 0.760775 0
M  V30 END ATOM
M  V30 BEGIN BOND
M  V30 1 1 1 2
M  V30 2 1 2 3
M  V30 3 1 3 4
M  V30 4 1 4 5
M  V30 5 2 5 6
M  V30 6 1 6 7
M  V30 7 2 7 8
M  V30 8 1 8 9
M  V30 9 2 9 10
M  V30 10 1 8 11
M  V30 11 1 11 12
M  V30 12 2 12 13
M  V30 13 1 12 14
M  V30 14 1 14 15
M  V30 15 1 15 16
M  V30 16 1 16 17
M  V30 17 1 17 18
M  V30 18 1 18 19
M  V30 19 1 18 20
M  V30 20 1 10 5
M  V30 21 1 19 14
M  V30 22 1 1 21
M  V30 23 1 1 22
M  V30 24 1 2 23
M  V30 25 1 2 24
M  V30 26 1 3 25
M  V30 27 1 3 26
M  V30 28 1 6 27
M  V30 29 1 7 28
M  V30 30 1 9 29
M  V30 31 1 10 30
M  V30 32 1 11 31
M  V30 33 1 14 32
M  V30 34 1 15 33
M  V30 35 1 15 34
M  V30 36 1 16 35
M  V30 37 1 16 36
M  V30 38 1 17 37
M  V30 39 1 17 38
M  V30 40 1 18 39
M  V30 41 1 19 40
M  V30 42 1 19 41
M  V30 43 1 20 42
M  V30 44 1 20 43
M  V30 END BOND
M  V30 END CTAB
M  END
