
     RDKit          3D

  0  0  0  0  0  0  0  0  0  0999 V3000
M  V30 BEGIN CTAB
M  V30 COUNTS 26 26 0 0 0
M  V30 BEGIN ATOM
M  V30 1 N 4.21977 0.272575 -1.02158 0
M  V30 2 N 3.34109 0.097526 0.0384367 0
M  V30 3 C 1.9833 -0.253213 -0.149857 0
M  V30 4 O 1.57533 -0.407543 -1.32129 0
M  V30 5 C 1.04262 -0.441434 0.967352 0
M  V30 6 C -0.333451 -0.754017 0.565444 0
M  V30 7 C -0.820588 -2.04737 0.557944 0
M  V30 8 C -2.10823 -2.34263 0.158446 0
M  V30 9 C -2.95628 -1.33963 -0.250232 0
M  V30 10 C -2.49796 -0.0551615 -0.25094 0
M  V30 11 C -1.1895 0.239479 0.156125 0
M  V30 12 C -0.71916 1.64506 0.171883 0
M  V30 13 N -1.81908 2.46246 -0.299124 0
M  V30 14 H 3.96539 -0.385062 -1.78903 0
M  V30 15 H 4.16615 1.2494 -1.42354 0
M  V30 16 H 3.75575 0.244702 1.00639 0
M  V30 17 H 1.40517 -1.31634 1.58709 0
M  V30 18 H 1.09298 0.417266 1.66936 0
M  V30 19 H -0.169169 -2.86761 0.877916 0
M  V30 20 H -2.49803 -3.35443 0.149547 0
M  V30 21 H -3.97349 -1.51224 -0.573582 0
M  V30 22 H -3.15979 0.755894 -0.573336 0
M  V30 23 H 0.128335 1.87089 -0.465885 0
M  V30 24 H -0.539572 1.96596 1.22662 0
M  V30 25 H -1.84356 2.59984 -1.30965 0
M  V30 26 H -2.04801 3.25564 0.295484 0
M  V30 END ATOM
M  V30 BEGIN BOND
M  V30 1 1 1 2
M  V30 2 1 2 3
M  V30 3 2 3 4
M  V30 4 1 3 5
M  V30 5 1 5 6
M  V30 6 2 6 7
M  V30 7 1 7 8
M  V30 8 2 8 9
M  V30 9 1 9 10
M  V30 10 2 10 11
M  V30 11 1 11 12
M  V30 12 1 12 13
M  V30 13 1 11 6
M  V30 14 1 1 14
M  V30 15 1 1 15
M  V30 16 1 2 16
M  V30 17 1 5 17
M  V30 18 1 5 18
M  V30 19 1 7 19
M  V30 20 1 8 20
M  V30 21 1 9 21
M  V30 22 1 10 22
M  V30 23 1 12 23
M  V30 24 1 12 24
M  V30 25 1 13 25
M  V30 26 1 13 26
M  V30 END BOND
M  V30 END CTAB
M  END
