
     RDKit          3D

  0  0  0  0  0  0  0  0  0  0999 V3000
M  V30 BEGIN CTAB
M  V30 COUNTS 17 17 0 0 0
M  V30 BEGIN ATOM
M  V30 1 N 3.89395 -0.331566 -0.330154 0
M  V30 2 C 2.74525 -0.351196 -0.254607 0
M  V30 3 C 1.29218 -0.395474 -0.158647 0
M  V30 4 C 0.598999 0.702726 0.0502365 0
M  V30 5 N 1.3387 1.9183 0.175239 0
M  V30 6 C -0.863759 0.70169 0.153184 0
M  V30 7 C -1.44944 -0.645978 -0.00191027 0
M  V30 8 N -0.779445 -1.72829 -0.206841 0
M  V30 9 C 0.634135 -1.67659 -0.298942 0
M  V30 10 S 1.52287 -3.04732 -0.561297 0
M  V30 11 N -2.88696 -0.766845 0.0817778 0
M  V30 12 H 2.29809 2.02858 -0.206601 0
M  V30 13 H 0.91032 2.71822 0.660753 0
M  V30 14 H -1.34436 1.44857 -0.526964 0
M  V30 15 H -1.16599 1.04696 1.18666 0
M  V30 16 H -3.27843 -1.10516 0.956707 0
M  V30 17 H -3.46609 -0.51662 -0.718597 0
M  V30 END ATOM
M  V30 BEGIN BOND
M  V30 1 3 1 2
M  V30 2 1 2 3
M  V30 3 2 3 4
M  V30 4 1 4 5
M  V30 5 1 4 6
M  V30 6 1 6 7
M  V30 7 2 7 8
M  V30 8 1 8 9
M  V30 9 2 9 10
M  V30 10 1 7 11
M  V30 11 1 9 3
M  V30 12 1 5 12
M  V30 13 1 5 13
M  V30 14 1 6 14
M  V30 15 1 6 15
M  V30 16 1 11 16
M  V30 17 1 11 17
M  V30 END BOND
M  V30 END CTAB
M  END
