
     RDKit          3D

  0  0  0  0  0  0  0  0  0  0999 V3000
M  V30 BEGIN CTAB
M  V30 COUNTS 27 29 0 0 0
M  V30 BEGIN ATOM
M  V30 1 O 1.28605 -2.41695 1.32367 0
M  V30 2 C 1.89762 -1.41719 0.854611 0
M  V30 3 C 3.38574 -1.34627 0.820044 0
M  V30 4 N 3.57432 0.0223539 0.39042 0
M  V30 5 C 2.30511 0.615225 0.0309582 0
M  V30 6 C 1.32451 -0.208429 0.292189 0
M  V30 7 C -0.119709 -0.0161947 0.0824208 0
M  V30 8 N -1.09845 -0.671133 0.673089 0
M  V30 9 C -2.33796 -0.403412 0.388106 0
M  V30 10 C -2.57268 0.577779 -0.539178 0
M  V30 11 S -0.97311 1.04972 -0.93989 0
M  V30 12 C -3.8627 0.955934 -0.942565 0
M  V30 13 C -4.97819 0.332871 -0.404743 0
M  V30 14 C -4.71579 -0.655152 0.528893 0
M  V30 15 C -3.47409 -1.03663 0.934945 0
M  V30 16 N 2.17055 1.91404 -0.538814 0
M  V30 17 N 4.80232 0.679826 0.324401 0
M  V30 18 H 3.8638 -1.59871 1.773 0
M  V30 19 H 3.69122 -2.01959 -0.0116764 0
M  V30 20 H -3.91728 1.73504 -1.67193 0
M  V30 21 H -5.96707 0.623545 -0.70871 0
M  V30 22 H -5.61811 -1.13296 0.935898 0
M  V30 23 H -3.38989 -1.82149 1.66659 0
M  V30 24 H 2.90411 2.63015 -0.283813 0
M  V30 25 H 1.43921 2.23994 -1.17489 0
M  V30 26 H 4.79298 1.37096 -0.462916 0
M  V30 27 H 5.58749 -0.00327706 0.110176 0
M  V30 END ATOM
M  V30 BEGIN BOND
M  V30 1 2 1 2
M  V30 2 1 2 3
M  V30 3 1 3 4
M  V30 4 1 4 5
M  V30 5 2 5 6
M  V30 6 1 6 7
M  V30 7 2 7 8
M  V30 8 1 8 9
M  V30 9 2 9 10
M  V30 10 1 10 11
M  V30 11 1 10 12
M  V30 12 2 12 13
M  V30 13 1 13 14
M  V30 14 2 14 15
M  V30 15 1 5 16
M  V30 16 1 4 17
M  V30 17 1 6 2
M  V30 18 1 11 7
M  V30 19 1 15 9
M  V30 20 1 3 18
M  V30 21 1 3 19
M  V30 22 1 12 20
M  V30 23 1 13 21
M  V30 24 1 14 22
M  V30 25 1 15 23
M  V30 26 1 16 24
M  V30 27 1 16 25
M  V30 28 1 17 26
M  V30 29 1 17 27
M  V30 END BOND
M  V30 END CTAB
M  END
