
     RDKit          3D

  0  0  0  0  0  0  0  0  0  0999 V3000
M  V30 BEGIN CTAB
M  V30 COUNTS 38 38 0 0 0
M  V30 BEGIN ATOM
M  V30 1 N -4.14685 -0.466559 -2.34113 0
M  V30 2 C -3.28942 -0.055596 -1.27426 0
M  V30 3 C -1.86733 -0.243616 -1.69877 0
M  V30 4 O -1.6169 -0.695368 -2.82971 0
M  V30 5 N -0.779221 0.0885402 -0.822654 0
M  V30 6 C 0.552275 -0.111509 -1.28084 0
M  V30 7 C 1.6235 0.243075 -0.350555 0
M  V30 8 C 1.4785 0.740248 0.908712 0
M  V30 9 C 2.58761 1.03156 1.67864 0
M  V30 10 C 3.87583 0.844545 1.23806 0
M  V30 11 C 4.02578 0.340737 -0.0379361 0
M  V30 12 C 2.9308 0.0457654 -0.816764 0
M  V30 13 S 5.27613 1.22051 2.23064 0
M  V30 14 O 4.98655 0.931131 3.68539 0
M  V30 15 O 6.43391 0.328419 1.82874 0
M  V30 16 N 5.79226 2.84288 1.9999 0
M  V30 17 C -3.52952 -0.908128 -0.0413042 0
M  V30 18 C -3.26294 -2.36534 -0.310431 0
M  V30 19 C -4.90896 -0.648975 0.502433 0
M  V30 20 H -4.77467 -1.26203 -2.08293 0
M  V30 21 H -3.63352 -0.622767 -3.23584 0
M  V30 22 H -3.49569 0.993387 -1.04217 0
M  V30 23 H -1.05659 0.460491 0.106147 0
M  V30 24 H 0.710923 0.506436 -2.20897 0
M  V30 25 H 0.648478 -1.16202 -1.62551 0
M  V30 26 H 0.487869 0.902653 1.29495 0
M  V30 27 H 2.47832 1.42993 2.68778 0
M  V30 28 H 5.0455 0.184642 -0.407097 0
M  V30 29 H 3.09429 -0.349679 -1.81706 0
M  V30 30 H 6.75222 2.92052 1.62651 0
M  V30 31 H 5.65706 3.3459 2.90893 0
M  V30 32 H -2.80517 -0.548402 0.726384 0
M  V30 33 H -2.27151 -2.65292 0.110571 0
M  V30 34 H -4.01567 -3.02674 0.163819 0
M  V30 35 H -3.20832 -2.59887 -1.4022 0
M  V30 36 H -5.65564 -1.40464 0.165816 0
M  V30 37 H -4.89917 -0.63653 1.59757 0
M  V30 38 H -5.22072 0.358328 0.16514 0
M  V30 END ATOM
M  V30 BEGIN BOND
M  V30 1 1 1 2
M  V30 2 1 2 3
M  V30 3 2 3 4
M  V30 4 1 3 5
M  V30 5 1 5 6
M  V30 6 1 6 7
M  V30 7 2 7 8
M  V30 8 1 8 9
M  V30 9 2 9 10
M  V30 10 1 10 11
M  V30 11 2 11 12
M  V30 12 1 10 13
M  V30 13 2 13 14
M  V30 14 2 13 15
M  V30 15 1 13 16
M  V30 16 1 2 17
M  V30 17 1 17 18
M  V30 18 1 17 19
M  V30 19 1 12 7
M  V30 20 1 1 20
M  V30 21 1 1 21
M  V30 22 1 2 22
M  V30 23 1 5 23
M  V30 24 1 6 24
M  V30 25 1 6 25
M  V30 26 1 8 26
M  V30 27 1 9 27
M  V30 28 1 11 28
M  V30 29 1 12 29
M  V30 30 1 16 30
M  V30 31 1 16 31
M  V30 32 1 17 32
M  V30 33 1 18 33
M  V30 34 1 18 34
M  V30 35 1 18 35
M  V30 36 1 19 36
M  V30 37 1 19 37
M  V30 38 1 19 38
M  V30 END BOND
M  V30 END CTAB
M  END
