
     RDKit          3D

  0  0  0  0  0  0  0  0  0  0999 V3000
M  V30 BEGIN CTAB
M  V30 COUNTS 12 11 0 0 0
M  V30 BEGIN ATOM
M  V30 1 N -1.80189 -0.362886 0.0399273 0
M  V30 2 C -0.571818 0.34474 0.0238708 0
M  V30 3 C -0.521309 1.79251 0.0649266 0
M  V30 4 N -0.46914 2.95377 0.104695 0
M  V30 5 C 0.553981 -0.361452 -0.0305728 0
M  V30 6 N 1.76861 0.379805 -0.0451822 0
M  V30 7 C 0.547019 -1.80671 -0.0728198 0
M  V30 8 N 0.560259 -2.96867 -0.0994089 0
M  V30 9 H -1.83704 -1.34681 0.385946 0
M  V30 10 H -2.67343 0.0723976 -0.28454 0
M  V30 11 H 2.00098 1.06447 -0.819935 0
M  V30 12 H 2.44379 0.23884 0.733093 0
M  V30 END ATOM
M  V30 BEGIN BOND
M  V30 1 1 1 2
M  V30 2 1 2 3
M  V30 3 3 3 4
M  V30 4 2 2 5
M  V30 5 1 5 6
M  V30 6 1 5 7
M  V30 7 3 7 8
M  V30 8 1 1 9
M  V30 9 1 1 10
M  V30 10 1 6 11
M  V30 11 1 6 12
M  V30 END BOND
M  V30 END CTAB
M  END
