
     RDKit          3D

  0  0  0  0  0  0  0  0  0  0999 V3000
M  V30 BEGIN CTAB
M  V30 COUNTS 23 23 0 0 0
M  V30 BEGIN ATOM
M  V30 1 N 3.91474 -0.478205 -0.355967 0
M  V30 2 N 2.58774 -0.10474 -0.621897 0
M  V30 3 C 1.55126 -0.433264 0.275112 0
M  V30 4 O 1.9604 -1.10797 1.33635 0
M  V30 5 C 0.154684 -0.167051 0.216816 0
M  V30 6 C -0.770213 -1.23324 0.288977 0
M  V30 7 C -2.12636 -1.02142 0.186104 0
M  V30 8 N -3.02498 -2.10418 0.245181 0
M  V30 9 C -2.6164 0.264901 0.00859551 0
M  V30 10 C -1.72636 1.32649 -0.0647705 0
M  V30 11 C -0.356216 1.09092 0.0411013 0
M  V30 12 C 0.513721 2.28511 -0.000340657 0
M  V30 13 H 4.34318 -1.0102 -1.14765 0
M  V30 14 H 3.95557 -1.01675 0.546684 0
M  V30 15 H 2.39063 0.400419 -1.50451 0
M  V30 16 H -0.369068 -2.20311 0.437164 0
M  V30 17 H -3.20613 -2.54285 1.15402 0
M  V30 18 H -3.5072 -2.47056 -0.604719 0
M  V30 19 H -3.70275 0.368602 -0.069753 0
M  V30 20 H -2.11372 2.31478 -0.194939 0
M  V30 21 H 0.288538 2.80987 -0.972653 0
M  V30 22 H 1.58467 2.04053 -0.0273565 0
M  V30 23 H 0.274274 2.99191 0.828444 0
M  V30 END ATOM
M  V30 BEGIN BOND
M  V30 1 1 1 2
M  V30 2 1 2 3
M  V30 3 2 3 4
M  V30 4 1 3 5
M  V30 5 2 5 6
M  V30 6 1 6 7
M  V30 7 1 7 8
M  V30 8 2 7 9
M  V30 9 1 9 10
M  V30 10 2 10 11
M  V30 11 1 11 12
M  V30 12 1 11 5
M  V30 13 1 1 13
M  V30 14 1 1 14
M  V30 15 1 2 15
M  V30 16 1 6 16
M  V30 17 1 8 17
M  V30 18 1 8 18
M  V30 19 1 9 19
M  V30 20 1 10 20
M  V30 21 1 12 21
M  V30 22 1 12 22
M  V30 23 1 12 23
M  V30 END BOND
M  V30 END CTAB
M  END
