
     RDKit          3D

  0  0  0  0  0  0  0  0  0  0999 V3000
M  V30 BEGIN CTAB
M  V30 COUNTS 46 48 0 0 0
M  V30 BEGIN ATOM
M  V30 1 O 2.10227 -1.26418 -0.700102 0
M  V30 2 C 2.15685 -0.725888 0.412891 0
M  V30 3 N 3.29263 -0.0790684 0.901247 0
M  V30 4 C 4.5458 0.0698947 0.277052 0
M  V30 5 C 5.47032 0.991623 0.805648 0
M  V30 6 C 6.70698 1.16318 0.255073 0
M  V30 7 C 7.09581 0.426761 -0.853781 0
M  V30 8 C 6.22031 -0.481326 -1.39614 0
M  V30 9 C 4.96256 -0.635938 -0.812509 0
M  V30 10 S 8.70061 0.701928 -1.49354 0
M  V30 11 O 8.7207 0.356114 -2.97707 0
M  V30 12 O 9.08414 2.12801 -1.36623 0
M  V30 13 N 9.85268 -0.331188 -0.724917 0
M  V30 14 C 0.911537 -0.782648 1.28478 0
M  V30 15 S -0.45995 -1.52592 0.375637 0
M  V30 16 C -1.95498 -0.590237 0.700956 0
M  V30 17 N -2.12768 0.459097 1.49665 0
M  V30 18 N -3.37867 0.838109 1.45184 0
M  V30 19 C -4.08968 0.0157431 0.590703 0
M  V30 20 N -3.18154 -0.844051 0.153157 0
M  V30 21 C -3.41924 -1.93416 -0.778639 0
M  V30 22 C -5.5251 0.179408 0.367014 0
M  V30 23 C -6.24262 1.0573 1.18864 0
M  V30 24 C -7.58204 1.28228 1.00568 0
M  V30 25 C -8.30114 0.661177 0.00780789 0
M  V30 26 C -7.61207 -0.199229 -0.802024 0
M  V30 27 C -6.23528 -0.428031 -0.61235 0
M  V30 28 N -9.68528 0.912578 -0.167651 0
M  V30 29 H 3.18733 0.358521 1.8872 0
M  V30 30 H 5.17216 1.57138 1.67598 0
M  V30 31 H 7.40106 1.8883 0.692214 0
M  V30 32 H 6.51372 -1.05675 -2.25708 0
M  V30 33 H 4.31012 -1.37557 -1.27377 0
M  V30 34 H 9.33725 -0.881384 -0.00611163 0
M  V30 35 H 10.5713 0.28164 -0.271874 0
M  V30 36 H 0.693808 0.204159 1.69412 0
M  V30 37 H 1.18607 -1.48991 2.09909 0
M  V30 38 H -3.60425 -1.5183 -1.78453 0
M  V30 39 H -2.48905 -2.5683 -0.859441 0
M  V30 40 H -4.22137 -2.61495 -0.470625 0
M  V30 41 H -5.68361 1.5479 1.98173 0
M  V30 42 H -8.12219 1.96316 1.65441 0
M  V30 43 H -8.13644 -0.706656 -1.59785 0
M  V30 44 H -5.76229 -1.10953 -1.2983 0
M  V30 45 H -10.1225 0.829443 -1.09923 0
M  V30 46 H -10.259 1.18131 0.644236 0
M  V30 END ATOM
M  V30 BEGIN BOND
M  V30 1 2 1 2
M  V30 2 1 2 3
M  V30 3 1 3 4
M  V30 4 2 4 5
M  V30 5 1 5 6
M  V30 6 2 6 7
M  V30 7 1 7 8
M  V30 8 2 8 9
M  V30 9 1 7 10
M  V30 10 2 10 11
M  V30 11 2 10 12
M  V30 12 1 10 13
M  V30 13 1 2 14
M  V30 14 1 14 15
M  V30 15 1 15 16
M  V30 16 2 16 17
M  V30 17 1 17 18
M  V30 18 2 18 19
M  V30 19 1 19 20
M  V30 20 1 20 21
M  V30 21 1 19 22
M  V30 22 2 22 23
M  V30 23 1 23 24
M  V30 24 2 24 25
M  V30 25 1 25 26
M  V30 26 2 26 27
M  V30 27 1 25 28
M  V30 28 1 9 4
M  V30 29 1 20 16
M  V30 30 1 27 22
M  V30 31 1 3 29
M  V30 32 1 5 30
M  V30 33 1 6 31
M  V30 34 1 8 32
M  V30 35 1 9 33
M  V30 36 1 13 34
M  V30 37 1 13 35
M  V30 38 1 14 36
M  V30 39 1 14 37
M  V30 40 1 21 38
M  V30 41 1 21 39
M  V30 42 1 21 40
M  V30 43 1 23 41
M  V30 44 1 24 42
M  V30 45 1 26 43
M  V30 46 1 27 44
M  V30 47 1 28 45
M  V30 48 1 28 46
M  V30 END BOND
M  V30 END CTAB
M  END
