
     RDKit          3D

  0  0  0  0  0  0  0  0  0  0999 V3000
M  V30 BEGIN CTAB
M  V30 COUNTS 58 62 0 0 0
M  V30 BEGIN ATOM
M  V30 1 O 0.219998 -3.51499 1.24277 0
M  V30 2 C 0.293051 -2.5894 0.190794 0 CFG=2
M  V30 3 C 0.86283 -1.29789 0.661721 0
M  V30 4 N 0.693988 -0.287094 -0.273583 0
M  V30 5 C -0.587801 0.055432 -0.943601 0
M  V30 6 C -1.79471 -0.259924 -0.0785354 0 CFG=2
M  V30 7 C -2.08075 -1.68329 0.0223853 0 CFG=2
M  V30 8 C -0.971287 -2.54017 -0.58868 0
M  V30 9 C -3.38357 -2.16466 -0.557954 0
M  V30 10 O -2.09995 -2.11357 1.39031 0
M  V30 11 N -2.8123 0.668264 -0.498346 0
M  V30 12 C -2.70127 1.53236 -1.55166 0
M  V30 13 N -3.74686 2.32315 -1.63899 0
M  V30 14 C -4.58643 2.02487 -0.66447 0
M  V30 15 C -3.99481 0.976952 0.0512869 0
M  V30 16 N -4.67681 0.45896 1.11373 0
M  V30 17 C -5.88877 0.900917 1.50932 0
M  V30 18 N -6.61668 0.342645 2.61157 0
M  V30 19 N -6.44651 1.91339 0.808011 0
M  V30 20 C -5.82195 2.46644 -0.252122 0
M  V30 21 N -6.33743 3.57347 -0.984481 0
M  V30 22 C 1.6691 0.580881 -0.735682 0
M  V30 23 O 1.1697 1.45225 -1.65062 0
M  V30 24 C 3.05479 0.837952 -0.527691 0
M  V30 25 C 3.52074 2.12847 -0.866814 0
M  V30 26 C 4.85092 2.41726 -0.742919 0
M  V30 27 C 5.78062 1.49312 -0.292737 0
M  V30 28 C 5.30269 0.258842 0.025329 0
M  V30 29 C 3.94365 -0.0699879 -0.0934279 0
M  V30 30 N 6.39871 -0.459833 0.431633 0
M  V30 31 C 7.49398 0.301475 0.361805 0
M  V30 32 N 7.09828 1.50456 -0.0887517 0
M  V30 33 C 8.90794 -0.047315 0.711168 0
M  V30 34 F 9.40357 1.01172 1.4495 0
M  V30 35 F 9.5988 -0.25434 -0.44932 0
M  V30 36 F 8.82426 -1.20745 1.47266 0
M  V30 37 H 1.04447 -3.48478 1.795 0
M  V30 38 H 1.06977 -3.03798 -0.503609 0
M  V30 39 H 1.86647 -1.4694 1.04255 0
M  V30 40 H 0.278757 -1.03519 1.63676 0
M  V30 41 H -0.553733 1.18201 -0.962339 0
M  V30 42 H -0.587935 -0.377428 -1.91968 0
M  V30 43 H -1.42395 0.0795451 0.965881 0
M  V30 44 H -1.39599 -3.593 -0.540105 0
M  V30 45 H -0.84524 -2.34622 -1.65878 0
M  V30 46 H -3.72316 -1.56194 -1.39923 0
M  V30 47 H -3.22504 -3.20414 -0.993202 0
M  V30 48 H -4.1651 -2.33676 0.237288 0
M  V30 49 H -2.21008 -3.12128 1.31432 0
M  V30 50 H -1.8463 1.56736 -2.24211 0
M  V30 51 H -6.46239 -0.622237 2.9768 0
M  V30 52 H -7.3325 0.929642 3.06542 0
M  V30 53 H -5.71666 4.33218 -1.32935 0
M  V30 54 H -7.35937 3.61662 -1.18103 0
M  V30 55 H 2.83186 2.92043 -1.21932 0
M  V30 56 H 5.18251 3.39772 -1.00097 0
M  V30 57 H 3.69825 -1.12578 0.12644 0
M  V30 58 H 6.33563 -1.44283 0.751909 0
M  V30 END ATOM
M  V30 BEGIN BOND
M  V30 1 1 1 2
M  V30 2 1 2 3
M  V30 3 1 3 4
M  V30 4 1 4 5
M  V30 5 1 5 6
M  V30 6 1 6 7
M  V30 7 1 7 8
M  V30 8 1 7 9
M  V30 9 1 7 10 CFG=1
M  V30 10 1 6 11
M  V30 11 1 11 12
M  V30 12 2 12 13
M  V30 13 1 13 14
M  V30 14 2 14 15
M  V30 15 1 15 16
M  V30 16 2 16 17
M  V30 17 1 17 18
M  V30 18 1 17 19
M  V30 19 2 19 20
M  V30 20 1 20 21
M  V30 21 1 4 22
M  V30 22 2 22 23
M  V30 23 1 22 24
M  V30 24 2 24 25
M  V30 25 1 25 26
M  V30 26 2 26 27
M  V30 27 1 27 28
M  V30 28 2 28 29
M  V30 29 1 28 30
M  V30 30 1 30 31
M  V30 31 2 31 32
M  V30 32 1 31 33
M  V30 33 1 33 34
M  V30 34 1 33 35
M  V30 35 1 33 36
M  V30 36 1 8 2
M  V30 37 1 15 11
M  V30 38 1 29 24
M  V30 39 1 20 14
M  V30 40 1 32 27
M  V30 41 1 1 37
M  V30 42 1 2 38 CFG=3
M  V30 43 1 3 39
M  V30 44 1 3 40
M  V30 45 1 5 41
M  V30 46 1 5 42
M  V30 47 1 6 43 CFG=1
M  V30 48 1 8 44
M  V30 49 1 8 45
M  V30 50 1 9 46
M  V30 51 1 9 47
M  V30 52 1 9 48
M  V30 53 1 10 49
M  V30 54 1 12 50
M  V30 55 1 18 51
M  V30 56 1 18 52
M  V30 57 1 21 53
M  V30 58 1 21 54
M  V30 59 1 25 55
M  V30 60 1 26 56
M  V30 61 1 29 57
M  V30 62 1 30 58
M  V30 END BOND
M  V30 END CTAB
M  END
