
     RDKit          3D

  0  0  0  0  0  0  0  0  0  0999 V3000
M  V30 BEGIN CTAB
M  V30 COUNTS 129 131 0 0 0
M  V30 BEGIN ATOM
M  V30 1 N -5.28448 5.55388 -2.55071 0
M  V30 2 C -5.28508 5.03304 -1.24024 0
M  V30 3 N -6.28801 5.26907 -0.468852 0
M  V30 4 N -4.21252 4.27079 -0.764437 0
M  V30 5 C -3.48208 3.30742 -1.55694 0
M  V30 6 C -4.32441 2.12066 -1.93086 0
M  V30 7 C -4.8588 1.3458 -0.785829 0
M  V30 8 C -3.79632 0.7405 0.1126 0 CFG=2
M  V30 9 N -2.97439 -0.173107 -0.685159 0
M  V30 10 C -1.58015 -0.141178 -0.694261 0
M  V30 11 O -0.991415 0.724519 0.0759955 0
M  V30 12 C -0.681755 -0.987163 -1.51175 0 CFG=2
M  V30 13 C -0.787701 -2.42613 -1.25033 0
M  V30 14 C -2.07531 -3.04441 -1.50142 0
M  V30 15 O -2.53041 -3.14403 -2.79537 0
M  V30 16 O -2.77767 -3.49254 -0.561378 0
M  V30 17 N 0.726523 -0.614458 -1.38547 0
M  V30 18 C 1.30096 0.562861 -1.84693 0
M  V30 19 O 0.515496 1.43478 -2.38888 0
M  V30 20 C 2.71117 0.93311 -1.79378 0
M  V30 21 C 2.93462 2.42682 -1.57632 0
M  V30 22 C 4.36255 2.81179 -1.73132 0 CFG=2
M  V30 23 N 5.24103 2.06063 -0.848999 0
M  V30 24 C 6.13626 1.1664 -1.4772 0
M  V30 25 O 6.12012 1.06302 -2.7717 0
M  V30 26 C 7.10603 0.317752 -0.829492 0
M  V30 27 C 7.92825 0.698751 0.194557 0
M  V30 28 C 8.87788 -0.195168 0.723766 0
M  V30 29 C 9.0204 -1.46549 0.248986 0
M  V30 30 C 8.18224 -1.85508 -0.790196 0
M  V30 31 C 7.24736 -0.993184 -1.32277 0
M  V30 32 N 9.97212 -2.4105 0.684031 0
M  V30 33 C 11.0106 -2.75584 -0.245984 0
M  V30 34 C 12.2088 -1.92058 -0.218683 0
M  V30 35 N 12.5909 -1.07171 0.732549 0
M  V30 36 C 13.7171 -0.336836 0.663315 0
M  V30 37 C 14.5531 -0.436028 -0.441117 0
M  V30 38 N 14.1711 -1.28598 -1.39833 0
M  V30 39 C 13.0512 -2.01629 -1.32494 0
M  V30 40 N 15.679 0.296889 -0.510531 0
M  V30 41 C 16.0657 1.14807 0.448067 0
M  V30 42 N 17.2616 1.91277 0.367339 0
M  V30 43 N 15.2523 1.25437 1.54173 0
M  V30 44 C 14.1145 0.5379 1.65298 0
M  V30 45 O 13.3683 0.633039 2.6641 0
M  V30 46 C 9.91432 -3.01498 1.94575 0
M  V30 47 O 10.8704 -3.83278 2.23501 0
M  V30 48 C 8.85622 -2.80196 2.96791 0
M  V30 49 F 7.57443 -3.01005 2.46571 0
M  V30 50 F 8.98397 -1.64353 3.68087 0
M  V30 51 F 9.00985 -3.83261 3.92029 0
M  V30 52 C 4.50513 4.28542 -1.46407 0
M  V30 53 O 3.68313 5.12745 -2.23157 0
M  V30 54 O 5.26978 4.78957 -0.639396 0
M  V30 55 C -4.43313 -0.0258273 1.20648 0
M  V30 56 O -4.03095 -1.16415 1.47501 0
M  V30 57 N -5.49963 0.543266 1.93277 0
M  V30 58 C -6.24402 -0.0275279 3.01279 0 CFG=1
M  V30 59 C -6.79683 0.907192 4.00801 0
M  V30 60 C -7.74247 1.91678 3.50726 0
M  V30 61 O -8.30704 2.89026 4.32315 0
M  V30 62 O -8.07074 1.92883 2.30789 0
M  V30 63 C -7.20334 -1.02029 2.47494 0
M  V30 64 O -6.7838 -1.81952 1.58469 0
M  V30 65 N -8.551 -1.161 2.86465 0
M  V30 66 C -9.40823 -2.19043 2.29019 0 CFG=1
M  V30 67 C -10.6374 -2.47785 3.05474 0
M  V30 68 C -11.5408 -1.30693 3.18313 0
M  V30 69 O -12.5687 -1.06484 2.27453 0
M  V30 70 O -11.3696 -0.519075 4.13721 0
M  V30 71 C -9.7268 -1.77377 0.887606 0
M  V30 72 O -9.32836 -0.678741 0.45246 0
M  V30 73 N -10.4833 -2.64071 0.0651055 0
M  V30 74 C -10.7833 -2.2386 -1.29185 0 CFG=1
M  V30 75 C -10.0363 -3.18475 -2.25448 0
M  V30 76 S -10.5579 -4.89696 -2.03436 0
M  V30 77 C -12.2259 -2.29766 -1.59029 0
M  V30 78 O -12.6108 -1.88697 -2.87126 0
M  V30 79 O -13.114 -2.67828 -0.811096 0
M  V30 80 H -4.50016 6.12411 -2.9167 0
M  V30 81 H -6.09581 5.35916 -3.16847 0
M  V30 82 H -6.30841 4.88466 0.521445 0
M  V30 83 H -3.91995 4.40854 0.222608 0
M  V30 84 H -2.55886 3.04771 -1.03857 0
M  V30 85 H -3.17991 3.82703 -2.49001 0
M  V30 86 H -3.80279 1.44383 -2.62267 0
M  V30 87 H -5.21233 2.54506 -2.47251 0
M  V30 88 H -5.37787 0.445344 -1.23541 0
M  V30 89 H -5.64199 1.86088 -0.216506 0
M  V30 90 H -3.11384 1.50823 0.475184 0
M  V30 91 H -3.47561 -0.877027 -1.29941 0
M  V30 92 H -0.971548 -0.784483 -2.60528 0
M  V30 93 H -0.393836 -2.70278 -0.220063 0
M  V30 94 H -0.0529609 -2.95604 -1.95019 0
M  V30 95 H -2.23161 -2.49329 -3.50218 0
M  V30 96 H 1.33732 -1.32623 -0.877664 0
M  V30 97 H 3.27872 0.393861 -0.991621 0
M  V30 98 H 3.25417 0.690372 -2.75755 0
M  V30 99 H 2.30209 3.05325 -2.22137 0
M  V30 100 H 2.61828 2.60738 -0.513681 0
M  V30 101 H 4.65381 2.67918 -2.81861 0
M  V30 102 H 5.19763 2.18406 0.162335 0
M  V30 103 H 7.84264 1.72062 0.604472 0
M  V30 104 H 9.51741 0.145008 1.5107 0
M  V30 105 H 8.27361 -2.86445 -1.18517 0
M  V30 106 H 6.59759 -1.28241 -2.12812 0
M  V30 107 H 11.3515 -3.82549 -0.104172 0
M  V30 108 H 10.6329 -2.7434 -1.30781 0
M  V30 109 H 12.8169 -2.68956 -2.14885 0
M  V30 110 H 18.1652 1.40349 0.275265 0
M  V30 111 H 17.2627 2.95105 0.396794 0
M  V30 112 H 15.5603 1.9168 2.28247 0
M  V30 113 H 3.36613 6.02176 -1.85839 0
M  V30 114 H -5.78771 1.53284 1.66842 0
M  V30 115 H -5.45823 -0.674261 3.56403 0
M  V30 116 H -7.37041 0.336011 4.80424 0
M  V30 117 H -5.97724 1.40776 4.5776 0
M  V30 118 H -7.78006 3.66282 4.70777 0
M  V30 119 H -8.92491 -0.500705 3.5869 0
M  V30 120 H -8.77669 -3.10938 2.19813 0
M  V30 121 H -11.1871 -3.28333 2.54462 0
M  V30 122 H -10.3836 -2.85747 4.0725 0
M  V30 123 H -12.3075 -0.42295 1.51147 0
M  V30 124 H -10.8095 -3.54282 0.430612 0
M  V30 125 H -10.4209 -1.20059 -1.45621 0
M  V30 126 H -8.94088 -3.15136 -2.02381 0
M  V30 127 H -10.1924 -2.89279 -3.31144 0
M  V30 128 H -9.97142 -5.51031 -0.922221 0
M  V30 129 H -13.0127 -2.52758 -3.55511 0
M  V30 END ATOM
M  V30 BEGIN BOND
M  V30 1 1 1 2
M  V30 2 2 2 3 CFG=2
M  V30 3 1 2 4
M  V30 4 1 4 5
M  V30 5 1 5 6
M  V30 6 1 6 7
M  V30 7 1 7 8
M  V30 8 1 8 9
M  V30 9 1 9 10
M  V30 10 2 10 11
M  V30 11 1 10 12
M  V30 12 1 12 13
M  V30 13 1 13 14
M  V30 14 1 14 15
M  V30 15 2 14 16
M  V30 16 1 12 17
M  V30 17 1 17 18
M  V30 18 2 18 19
M  V30 19 1 18 20
M  V30 20 1 20 21
M  V30 21 1 21 22
M  V30 22 1 22 23
M  V30 23 1 23 24
M  V30 24 2 24 25
M  V30 25 1 24 26
M  V30 26 2 26 27
M  V30 27 1 27 28
M  V30 28 2 28 29
M  V30 29 1 29 30
M  V30 30 2 30 31
M  V30 31 1 29 32
M  V30 32 1 32 33
M  V30 33 1 33 34
M  V30 34 2 34 35
M  V30 35 1 35 36
M  V30 36 2 36 37
M  V30 37 1 37 38
M  V30 38 2 38 39
M  V30 39 1 37 40
M  V30 40 2 40 41
M  V30 41 1 41 42
M  V30 42 1 41 43
M  V30 43 1 43 44
M  V30 44 2 44 45
M  V30 45 1 32 46
M  V30 46 2 46 47
M  V30 47 1 46 48
M  V30 48 1 48 49
M  V30 49 1 48 50
M  V30 50 1 48 51
M  V30 51 1 22 52
M  V30 52 1 52 53
M  V30 53 2 52 54
M  V30 54 1 8 55
M  V30 55 2 55 56
M  V30 56 1 55 57
M  V30 57 1 57 58
M  V30 58 1 58 59
M  V30 59 1 59 60
M  V30 60 1 60 61
M  V30 61 2 60 62
M  V30 62 1 58 63
M  V30 63 2 63 64
M  V30 64 1 63 65
M  V30 65 1 65 66
M  V30 66 1 66 67
M  V30 67 1 67 68
M  V30 68 1 68 69
M  V30 69 2 68 70
M  V30 70 1 66 71
M  V30 71 2 71 72
M  V30 72 1 71 73
M  V30 73 1 73 74
M  V30 74 1 74 75
M  V30 75 1 75 76
M  V30 76 1 74 77
M  V30 77 1 77 78
M  V30 78 2 77 79
M  V30 79 1 31 26
M  V30 80 1 39 34
M  V30 81 1 44 36
M  V30 82 1 1 80
M  V30 83 1 1 81
M  V30 84 1 3 82
M  V30 85 1 4 83
M  V30 86 1 5 84
M  V30 87 1 5 85
M  V30 88 1 6 86
M  V30 89 1 6 87
M  V30 90 1 7 88
M  V30 91 1 7 89
M  V30 92 1 8 90 CFG=1
M  V30 93 1 9 91
M  V30 94 1 12 92 CFG=3
M  V30 95 1 13 93
M  V30 96 1 13 94
M  V30 97 1 15 95
M  V30 98 1 17 96
M  V30 99 1 20 97
M  V30 100 1 20 98
M  V30 101 1 21 99
M  V30 102 1 21 100
M  V30 103 1 22 101 CFG=3
M  V30 104 1 23 102
M  V30 105 1 27 103
M  V30 106 1 28 104
M  V30 107 1 30 105
M  V30 108 1 31 106
M  V30 109 1 33 107
M  V30 110 1 33 108
M  V30 111 1 39 109
M  V30 112 1 42 110
M  V30 113 1 42 111
M  V30 114 1 43 112
M  V30 115 1 53 113
M  V30 116 1 57 114
M  V30 117 1 58 115 CFG=1
M  V30 118 1 59 116
M  V30 119 1 59 117
M  V30 120 1 61 118
M  V30 121 1 65 119
M  V30 122 1 66 120 CFG=3
M  V30 123 1 67 121
M  V30 124 1 67 122
M  V30 125 1 69 123
M  V30 126 1 73 124
M  V30 127 1 74 125 CFG=1
M  V30 128 1 75 126
M  V30 129 1 75 127
M  V30 130 1 76 128
M  V30 131 1 78 129
M  V30 END BOND
M  V30 END CTAB
M  END
