
     RDKit          3D

  0  0  0  0  0  0  0  0  0  0999 V3000
M  V30 BEGIN CTAB
M  V30 COUNTS 28 28 0 0 0
M  V30 BEGIN ATOM
M  V30 1 C -0.967049 -2.02349 0.926212 0
M  V30 2 C -0.361476 -1.0224 -0.0510657 0
M  V30 3 C 0.86854 -0.455009 0.559544 0
M  V30 4 N 1.24047 -0.400763 1.83984 0
M  V30 5 C 2.40962 0.228296 1.96884 0
M  V30 6 N 2.8297 0.600807 0.753655 0
M  V30 7 C 1.88784 0.189018 -0.139969 0
M  V30 8 N 1.97397 0.376893 -1.53113 0
M  V30 9 N 4.03165 1.29336 0.453986 0
M  V30 10 C -1.32784 0.13801 -0.190251 0
M  V30 11 C -2.67513 -0.210908 -0.712256 0
M  V30 12 C -3.47404 1.11262 -0.754704 0
M  V30 13 H -2.06279 -2.01881 0.922955 0
M  V30 14 H -0.649276 -3.05002 0.63656 0
M  V30 15 H -0.595095 -1.78572 1.9555 0
M  V30 16 H -0.162465 -1.50311 -1.00162 0
M  V30 17 H 2.91103 0.408868 2.89277 0
M  V30 18 H 1.9274 1.2844 -2.0157 0
M  V30 19 H 2.09607 -0.50481 -2.12507 0
M  V30 20 H 4.91964 0.768064 0.427936 0
M  V30 21 H 4.05596 2.30263 0.258834 0
M  V30 22 H -1.36006 0.683223 0.780926 0
M  V30 23 H -0.845821 0.84036 -0.919124 0
M  V30 24 H -3.25719 -0.921263 -0.133928 0
M  V30 25 H -2.54685 -0.512369 -1.78031 0
M  V30 26 H -3.73476 1.2982 0.329282 0
M  V30 27 H -4.36437 0.99024 -1.3718 0
M  V30 28 H -2.7677 1.89367 -1.05251 0
M  V30 END ATOM
M  V30 BEGIN BOND
M  V30 1 1 1 2
M  V30 2 1 2 3
M  V30 3 1 3 4
M  V30 4 2 4 5
M  V30 5 1 5 6
M  V30 6 1 6 7
M  V30 7 1 7 8
M  V30 8 1 6 9
M  V30 9 1 2 10
M  V30 10 1 10 11
M  V30 11 1 11 12
M  V30 12 2 7 3
M  V30 13 1 1 13
M  V30 14 1 1 14
M  V30 15 1 1 15
M  V30 16 1 2 16
M  V30 17 1 5 17
M  V30 18 1 8 18
M  V30 19 1 8 19
M  V30 20 1 9 20
M  V30 21 1 9 21
M  V30 22 1 10 22
M  V30 23 1 10 23
M  V30 24 1 11 24
M  V30 25 1 11 25
M  V30 26 1 12 26
M  V30 27 1 12 27
M  V30 28 1 12 28
M  V30 END BOND
M  V30 END CTAB
M  END
