
     RDKit          3D

  0  0  0  0  0  0  0  0  0  0999 V3000
M  V30 BEGIN CTAB
M  V30 COUNTS 54 57 0 0 0
M  V30 BEGIN ATOM
M  V30 1 N 8.12789 3.70794 -0.177967 0
M  V30 2 C 7.42553 2.53561 0.267626 0
M  V30 3 N 6.68078 2.56278 1.38683 0
M  V30 4 C 6.01043 1.48953 1.8347 0
M  V30 5 C 6.06082 0.270856 1.13924 0
M  V30 6 C 5.30117 -0.890432 1.65738 0
M  V30 7 C 4.04279 -1.16601 0.95556 0
M  V30 8 C 3.91378 -2.18561 0.04741 0
M  V30 9 C 2.69717 -2.41367 -0.617638 0
M  V30 10 C 1.61215 -1.62273 -0.373155 0
M  V30 11 O 0.440191 -1.87269 -1.0398 0
M  V30 12 C -0.744086 -1.09945 -0.847084 0
M  V30 13 C -1.83432 -1.6508 -1.73836 0
M  V30 14 C -3.13102 -0.910373 -1.61757 0
M  V30 15 C -3.62323 -0.990094 -0.205542 0
M  V30 16 N -4.87394 -0.305707 0.0166509 0
M  V30 17 C -6.17799 -0.865744 -0.106069 0
M  V30 18 O -6.42436 -2.06065 -0.433979 0
M  V30 19 C -7.13564 0.183264 0.212361 0
M  V30 20 C -6.47436 1.3579 0.523897 0
M  V30 21 C -7.22619 2.4646 0.853764 0
M  V30 22 C -8.6236 2.43419 0.882239 0
M  V30 23 C -9.27632 1.25976 0.570488 0
M  V30 24 C -8.53375 0.145399 0.238641 0
M  V30 25 C -5.04979 1.05323 0.40144 0
M  V30 26 O -4.14946 1.92026 0.620695 0
M  V30 27 C 1.73108 -0.597503 0.536601 0
M  V30 28 C 2.9184 -0.380736 1.18023 0
M  V30 29 C 6.82482 0.266172 0.00372769 0
M  V30 30 N 6.9274 -0.942142 -0.74741 0
M  V30 31 N 7.49032 1.38525 -0.414086 0
M  V30 32 H 7.75056 4.31522 -0.943808 0
M  V30 33 H 9.03722 4.00221 0.239511 0
M  V30 34 H 5.40796 1.50587 2.73794 0
M  V30 35 H 5.99911 -1.78008 1.63225 0
M  V30 36 H 5.13841 -0.747416 2.76844 0
M  V30 37 H 4.72013 -2.8643 -0.195411 0
M  V30 38 H 2.61689 -3.22099 -1.32885 0
M  V30 39 H -0.973366 -1.16873 0.223004 0
M  V30 40 H -0.558036 -0.033986 -1.08731 0
M  V30 41 H -1.47359 -1.5107 -2.79576 0
M  V30 42 H -1.91993 -2.74386 -1.60059 0
M  V30 43 H -2.93469 0.141587 -1.92802 0
M  V30 44 H -3.82946 -1.32959 -2.3554 0
M  V30 45 H -3.63946 -2.03907 0.132829 0
M  V30 46 H -2.86952 -0.464142 0.435378 0
M  V30 47 H -6.67597 3.38298 1.09595 0
M  V30 48 H -9.14921 3.34514 1.15189 0
M  V30 49 H -10.3735 1.21549 0.587504 0
M  V30 50 H -9.02048 -0.779595 -0.00786177 0
M  V30 51 H 0.871758 0.0232493 0.725251 0
M  V30 52 H 3.03199 0.416483 1.89621 0
M  V30 53 H 6.79244 -0.881739 -1.78493 0
M  V30 54 H 7.12415 -1.86644 -0.341577 0
M  V30 END ATOM
M  V30 BEGIN BOND
M  V30 1 1 1 2
M  V30 2 2 2 3
M  V30 3 1 3 4
M  V30 4 2 4 5
M  V30 5 1 5 6
M  V30 6 1 6 7
M  V30 7 2 7 8
M  V30 8 1 8 9
M  V30 9 2 9 10
M  V30 10 1 10 11
M  V30 11 1 11 12
M  V30 12 1 12 13
M  V30 13 1 13 14
M  V30 14 1 14 15
M  V30 15 1 15 16
M  V30 16 1 16 17
M  V30 17 2 17 18
M  V30 18 1 17 19
M  V30 19 2 19 20
M  V30 20 1 20 21
M  V30 21 2 21 22
M  V30 22 1 22 23
M  V30 23 2 23 24
M  V30 24 1 20 25
M  V30 25 2 25 26
M  V30 26 1 10 27
M  V30 27 2 27 28
M  V30 28 1 5 29
M  V30 29 1 29 30
M  V30 30 2 29 31
M  V30 31 1 31 2
M  V30 32 1 28 7
M  V30 33 1 25 16
M  V30 34 1 24 19
M  V30 35 1 1 32
M  V30 36 1 1 33
M  V30 37 1 4 34
M  V30 38 1 6 35
M  V30 39 1 6 36
M  V30 40 1 8 37
M  V30 41 1 9 38
M  V30 42 1 12 39
M  V30 43 1 12 40
M  V30 44 1 13 41
M  V30 45 1 13 42
M  V30 46 1 14 43
M  V30 47 1 14 44
M  V30 48 1 15 45
M  V30 49 1 15 46
M  V30 50 1 21 47
M  V30 51 1 22 48
M  V30 52 1 23 49
M  V30 53 1 24 50
M  V30 54 1 27 51
M  V30 55 1 28 52
M  V30 56 1 30 53
M  V30 57 1 30 54
M  V30 END BOND
M  V30 END CTAB
M  END
