
     RDKit          3D

  0  0  0  0  0  0  0  0  0  0999 V3000
M  V30 BEGIN CTAB
M  V30 COUNTS 26 26 0 0 0
M  V30 BEGIN ATOM
M  V30 1 C 3.40485 -1.14876 -0.35709 0
M  V30 2 C 3.18634 0.275342 0.106841 0
M  V30 3 C 1.71582 0.361715 0.525554 0
M  V30 4 S 0.753226 -0.0546347 -0.97532 0
M  V30 5 C -0.956823 0.029026 -0.55159 0
M  V30 6 C -1.60254 -1.10007 -0.0771453 0
M  V30 7 C -2.93708 -1.05867 0.260004 0
M  V30 8 C -3.62277 0.13132 0.116612 0
M  V30 9 C -2.97052 1.25717 -0.35866 0
M  V30 10 C -1.62346 1.22165 -0.70067 0
M  V30 11 N -5.0018 0.236926 0.447974 0
M  V30 12 N 4.07316 0.666071 1.16597 0
M  V30 13 H 4.36534 -1.30965 -0.848049 0
M  V30 14 H 2.58235 -1.36209 -1.08917 0
M  V30 15 H 3.22093 -1.85646 0.488864 0
M  V30 16 H 3.36122 0.923595 -0.78136 0
M  V30 17 H 1.57706 -0.397347 1.31611 0
M  V30 18 H 1.47023 1.37043 0.893774 0
M  V30 19 H -1.09085 -2.05812 0.0488387 0
M  V30 20 H -3.41835 -1.94988 0.627069 0
M  V30 21 H -3.52403 2.1942 -0.468038 0
M  V30 22 H -1.1425 2.12019 -1.06963 0
M  V30 23 H -5.31802 -0.128612 1.35998 0
M  V30 24 H -5.65511 0.677643 -0.233059 0
M  V30 25 H 4.18799 -0.0286035 1.9092 0
M  V30 26 H 4.96532 0.987617 0.728461 0
M  V30 END ATOM
M  V30 BEGIN BOND
M  V30 1 1 1 2
M  V30 2 1 2 3
M  V30 3 1 3 4
M  V30 4 1 4 5
M  V30 5 2 5 6
M  V30 6 1 6 7
M  V30 7 2 7 8
M  V30 8 1 8 9
M  V30 9 2 9 10
M  V30 10 1 8 11
M  V30 11 1 2 12
M  V30 12 1 10 5
M  V30 13 1 1 13
M  V30 14 1 1 14
M  V30 15 1 1 15
M  V30 16 1 2 16
M  V30 17 1 3 17
M  V30 18 1 3 18
M  V30 19 1 6 19
M  V30 20 1 7 20
M  V30 21 1 9 21
M  V30 22 1 10 22
M  V30 23 1 11 23
M  V30 24 1 11 24
M  V30 25 1 12 25
M  V30 26 1 12 26
M  V30 END BOND
M  V30 END CTAB
M  END
