
     RDKit          3D

  0  0  0  0  0  0  0  0  0  0999 V3000
M  V30 BEGIN CTAB
M  V30 COUNTS 31 31 0 0 0
M  V30 BEGIN ATOM
M  V30 1 C 5.5323 0.160149 0.408818 0
M  V30 2 C 4.10179 -0.324705 0.437183 0
M  V30 3 O 3.19013 0.635531 -0.0528335 0
M  V30 4 C 1.85474 0.313785 -0.0806726 0
M  V30 5 O 1.49309 -0.808017 0.324947 0
M  V30 6 C 0.804292 1.25191 -0.577954 0
M  V30 7 C -0.543951 0.636164 -0.489083 0
M  V30 8 C -1.42838 1.01348 0.524042 0
M  V30 9 C -2.69084 0.4485 0.62276 0
M  V30 10 N -3.56296 0.864811 1.67496 0
M  V30 11 C -3.10795 -0.503053 -0.278613 0
M  V30 12 C -2.23541 -0.883199 -1.28788 0
M  V30 13 C -0.973367 -0.322016 -1.39107 0
M  V30 14 N -0.0922125 -0.723175 -2.43187 0
M  V30 15 C -4.47105 -1.07555 -0.125664 0
M  V30 16 H 5.74139 0.929604 1.15799 0
M  V30 17 H 6.16487 -0.749185 0.604415 0
M  V30 18 H 5.83752 0.534103 -0.582892 0
M  V30 19 H 3.84215 -0.49111 1.50479 0
M  V30 20 H 4.03596 -1.25852 -0.166976 0
M  V30 21 H 0.823984 2.13148 0.108751 0
M  V30 22 H 1.04068 1.60851 -1.60572 0
M  V30 23 H -1.09109 1.76605 1.2328 0
M  V30 24 H -3.48734 0.480915 2.65484 0
M  V30 25 H -4.28349 1.57353 1.42237 0
M  V30 26 H -2.57871 -1.63383 -1.99064 0
M  V30 27 H 0.0801267 -0.187101 -3.30057 0
M  V30 28 H 0.43128 -1.62727 -2.32841 0
M  V30 29 H -5.23121 -0.328149 0.101649 0
M  V30 30 H -4.75507 -1.61523 -1.06393 0
M  V30 31 H -4.44129 -1.81842 0.7231 0
M  V30 END ATOM
M  V30 BEGIN BOND
M  V30 1 1 1 2
M  V30 2 1 2 3
M  V30 3 1 3 4
M  V30 4 2 4 5
M  V30 5 1 4 6
M  V30 6 1 6 7
M  V30 7 2 7 8
M  V30 8 1 8 9
M  V30 9 1 9 10
M  V30 10 2 9 11
M  V30 11 1 11 12
M  V30 12 2 12 13
M  V30 13 1 13 14
M  V30 14 1 11 15
M  V30 15 1 13 7
M  V30 16 1 1 16
M  V30 17 1 1 17
M  V30 18 1 1 18
M  V30 19 1 2 19
M  V30 20 1 2 20
M  V30 21 1 6 21
M  V30 22 1 6 22
M  V30 23 1 8 23
M  V30 24 1 10 24
M  V30 25 1 10 25
M  V30 26 1 12 26
M  V30 27 1 14 27
M  V30 28 1 14 28
M  V30 29 1 15 29
M  V30 30 1 15 30
M  V30 31 1 15 31
M  V30 END BOND
M  V30 END CTAB
M  END
