
     RDKit          3D

  0  0  0  0  0  0  0  0  0  0999 V3000
M  V30 BEGIN CTAB
M  V30 COUNTS 34 34 0 0 0
M  V30 BEGIN ATOM
M  V30 1 N 3.8923 -0.108771 1.55698 0
M  V30 2 C 3.94855 -0.0939398 0.144426 0
M  V30 3 C 2.76704 -0.66447 -0.567458 0
M  V30 4 C 1.4619 0.0125081 -0.350956 0
M  V30 5 C 0.452885 -0.751021 -1.21274 0
M  V30 6 C -0.926683 -0.230045 -1.16432 0
M  V30 7 C -1.40791 0.15301 0.209171 0
M  V30 8 C -2.60146 1.07114 0.150441 0
M  V30 9 C -3.78096 0.457495 -0.556173 0
M  V30 10 N -4.24443 -0.756833 0.0835251 0
M  V30 11 C -0.341305 0.880685 0.999248 0
M  V30 12 C 0.888341 -0.0402966 1.03276 0
M  V30 13 H 3.85168 0.827255 2.01177 0
M  V30 14 H 4.51264 -0.786587 2.0314 0
M  V30 15 H 4.24292 0.908899 -0.26231 0
M  V30 16 H 4.82113 -0.767256 -0.14625 0
M  V30 17 H 3.00318 -0.62033 -1.68118 0
M  V30 18 H 2.68664 -1.76317 -0.354767 0
M  V30 19 H 1.52463 1.04592 -0.738006 0
M  V30 20 H 0.828916 -0.704225 -2.25805 0
M  V30 21 H 0.521898 -1.81189 -0.883342 0
M  V30 22 H -1.09813 0.604343 -1.86047 0
M  V30 23 H -1.60055 -1.06339 -1.50825 0
M  V30 24 H -1.69508 -0.736234 0.80764 0
M  V30 25 H -2.88543 1.36681 1.17963 0
M  V30 26 H -2.32137 1.98049 -0.401974 0
M  V30 27 H -3.58075 0.301229 -1.62088 0
M  V30 28 H -4.61397 1.18834 -0.48649 0
M  V30 29 H -4.90227 -0.560595 0.8664 0
M  V30 30 H -4.68211 -1.36781 -0.648819 0
M  V30 31 H -0.0601485 1.84324 0.527059 0
M  V30 32 H -0.695289 1.04099 2.01644 0
M  V30 33 H 0.500112 -1.07745 1.22846 0
M  V30 34 H 1.53307 0.221956 1.85707 0
M  V30 END ATOM
M  V30 BEGIN BOND
M  V30 1 1 1 2
M  V30 2 1 2 3
M  V30 3 1 3 4
M  V30 4 1 4 5
M  V30 5 1 5 6
M  V30 6 1 6 7
M  V30 7 1 7 8
M  V30 8 1 8 9
M  V30 9 1 9 10
M  V30 10 1 7 11
M  V30 11 1 11 12
M  V30 12 1 12 4
M  V30 13 1 1 13
M  V30 14 1 1 14
M  V30 15 1 2 15
M  V30 16 1 2 16
M  V30 17 1 3 17
M  V30 18 1 3 18
M  V30 19 1 4 19
M  V30 20 1 5 20
M  V30 21 1 5 21
M  V30 22 1 6 22
M  V30 23 1 6 23
M  V30 24 1 7 24
M  V30 25 1 8 25
M  V30 26 1 8 26
M  V30 27 1 9 27
M  V30 28 1 9 28
M  V30 29 1 10 29
M  V30 30 1 10 30
M  V30 31 1 11 31
M  V30 32 1 11 32
M  V30 33 1 12 33
M  V30 34 1 12 34
M  V30 END BOND
M  V30 END CTAB
M  END
