
     RDKit          3D

  0  0  0  0  0  0  0  0  0  0999 V3000
M  V30 BEGIN CTAB
M  V30 COUNTS 32 34 0 0 0
M  V30 BEGIN ATOM
M  V30 1 Cl 7.46264 0.304426 0.947993 0
M  V30 2 C 5.78498 0.255997 0.479342 0
M  V30 3 C 4.76412 0.125811 1.38895 0
M  V30 4 C 3.45187 0.0921956 0.971851 0
M  V30 5 C 3.1064 0.186252 -0.358676 0
M  V30 6 C 4.12615 0.316845 -1.27381 0
M  V30 7 C 5.46121 0.351477 -0.854561 0
M  V30 8 C 1.69469 0.148474 -0.788044 0
M  V30 9 N 1.29389 0.235477 -2.06863 0
M  V30 10 N -0.0255535 0.163434 -2.03432 0
M  V30 11 C -0.481868 0.0334164 -0.776341 0
M  V30 12 N 0.611088 0.0253199 -0.00118746 0
M  V30 13 C -1.88075 -0.0765757 -0.341489 0
M  V30 14 C -2.91948 -0.0547406 -1.24555 0
M  V30 15 C -4.24059 -0.16144 -0.801511 0
M  V30 16 N -5.27664 -0.13341 -1.77751 0
M  V30 17 C -4.523 -0.289054 0.535698 0
M  V30 18 C -3.49489 -0.313684 1.46632 0
M  V30 19 C -2.19729 -0.205516 0.990233 0
M  V30 20 N -3.78295 -0.4456 2.85098 0
M  V30 21 H 5.04751 0.0513768 2.44827 0
M  V30 22 H 2.64454 -0.0109024 1.69282 0
M  V30 23 H 3.88911 0.393099 -2.32583 0
M  V30 24 H 6.24568 0.455146 -1.59661 0
M  V30 25 H 1.93305 0.337839 -2.88521 0
M  V30 26 H -2.71983 0.0450457 -2.30423 0
M  V30 27 H -5.45623 0.722145 -2.33679 0
M  V30 28 H -5.84066 -1.00299 -1.90311 0
M  V30 29 H -5.53916 -0.372066 0.888456 0
M  V30 30 H -1.40602 -0.225982 1.7245 0
M  V30 31 H -3.18147 0.0695839 3.52219 0
M  V30 32 H -4.55055 -1.0214 3.2079 0
M  V30 END ATOM
M  V30 BEGIN BOND
M  V30 1 1 1 2
M  V30 2 2 2 3
M  V30 3 1 3 4
M  V30 4 2 4 5
M  V30 5 1 5 6
M  V30 6 2 6 7
M  V30 7 1 5 8
M  V30 8 1 8 9
M  V30 9 1 9 10
M  V30 10 2 10 11
M  V30 11 1 11 12
M  V30 12 1 11 13
M  V30 13 2 13 14
M  V30 14 1 14 15
M  V30 15 1 15 16
M  V30 16 2 15 17
M  V30 17 1 17 18
M  V30 18 2 18 19
M  V30 19 1 18 20
M  V30 20 1 7 2
M  V30 21 2 12 8
M  V30 22 1 19 13
M  V30 23 1 3 21
M  V30 24 1 4 22
M  V30 25 1 6 23
M  V30 26 1 7 24
M  V30 27 1 9 25
M  V30 28 1 14 26
M  V30 29 1 16 27
M  V30 30 1 16 28
M  V30 31 1 17 29
M  V30 32 1 19 30
M  V30 33 1 20 31
M  V30 34 1 20 32
M  V30 END BOND
M  V30 END CTAB
M  END
