
     RDKit          3D

  0  0  0  0  0  0  0  0  0  0999 V3000
M  V30 BEGIN CTAB
M  V30 COUNTS 37 36 0 0 0
M  V30 BEGIN ATOM
M  V30 1 C 3.87989 1.51292 -0.974597 0
M  V30 2 S 3.7582 1.96555 0.729748 0
M  V30 3 C 2.40251 1.34744 1.6773 0
M  V30 4 C 2.40446 -0.0583631 2.12319 0
M  V30 5 C 2.43882 -1.17881 1.18852 0 CFG=2
M  V30 6 N 3.55192 -1.33213 0.327224 0
M  V30 7 C 1.14087 -1.19749 0.407074 0
M  V30 8 O 1.21155 -1.17416 -0.830851 0
M  V30 9 N -0.0765881 -1.2407 1.08302 0
M  V30 10 C -1.32877 -1.24434 0.441959 0
M  V30 11 O -2.32467 -1.32814 1.20178 0
M  V30 12 C -1.46899 -1.15816 -0.986734 0
M  V30 13 C -2.80502 -1.08097 -1.60995 0
M  V30 14 C -3.6827 0.0708871 -1.37381 0 CFG=2
M  V30 15 N -2.99917 1.30875 -1.76163 0
M  V30 16 C -4.45769 0.217826 -0.177357 0
M  V30 17 O -4.35397 1.29829 0.695325 0
M  V30 18 O -5.31246 -0.678681 0.145995 0
M  V30 19 H 4.00324 2.46109 -1.58329 0
M  V30 20 H 2.98738 1.03428 -1.36685 0
M  V30 21 H 4.79218 0.905331 -1.15119 0
M  V30 22 H 1.457 1.58054 1.07921 0
M  V30 23 H 2.23329 2.04423 2.58447 0
M  V30 24 H 1.45246 -0.18602 2.74977 0
M  V30 25 H 3.18924 -0.198305 2.95767 0
M  V30 26 H 2.3976 -2.13104 1.80738 0
M  V30 27 H 3.36776 -1.74153 -0.591703 0
M  V30 28 H 4.3712 -1.73889 0.824637 0
M  V30 29 H -0.0610475 -1.28305 2.15428 0
M  V30 30 H -0.936703 -2.07056 -1.42644 0
M  V30 31 H -0.825066 -0.286676 -1.39854 0
M  V30 32 H -3.33822 -2.05034 -1.31595 0
M  V30 33 H -2.63155 -1.19918 -2.73543 0
M  V30 34 H -4.46405 -0.0065959 -2.26676 0
M  V30 35 H -2.09154 1.40321 -1.22871 0
M  V30 36 H -2.83801 1.35587 -2.77832 0
M  V30 37 H -5.04338 1.51628 1.37956 0
M  V30 END ATOM
M  V30 BEGIN BOND
M  V30 1 1 1 2
M  V30 2 1 2 3
M  V30 3 1 3 4
M  V30 4 1 4 5
M  V30 5 1 5 6
M  V30 6 1 5 7
M  V30 7 2 7 8
M  V30 8 1 7 9
M  V30 9 1 9 10
M  V30 10 2 10 11
M  V30 11 1 10 12
M  V30 12 1 12 13
M  V30 13 1 13 14
M  V30 14 1 14 15
M  V30 15 1 14 16
M  V30 16 1 16 17
M  V30 17 2 16 18
M  V30 18 1 1 19
M  V30 19 1 1 20
M  V30 20 1 1 21
M  V30 21 1 3 22
M  V30 22 1 3 23
M  V30 23 1 4 24
M  V30 24 1 4 25
M  V30 25 1 5 26 CFG=1
M  V30 26 1 6 27
M  V30 27 1 6 28
M  V30 28 1 9 29
M  V30 29 1 12 30
M  V30 30 1 12 31
M  V30 31 1 13 32
M  V30 32 1 13 33
M  V30 33 1 14 34 CFG=3
M  V30 34 1 15 35
M  V30 35 1 15 36
M  V30 36 1 17 37
M  V30 END BOND
M  V30 END CTAB
M  END
