
     RDKit          3D

  0  0  0  0  0  0  0  0  0  0999 V3000
M  V30 BEGIN CTAB
M  V30 COUNTS 25 26 0 0 0
M  V30 BEGIN ATOM
M  V30 1 N 5.12302 0.456056 0.668399 0
M  V30 2 C 3.70417 0.427139 0.540387 0
M  V30 3 N 3.05297 1.30387 -0.249985 0
M  V30 4 C 1.70958 1.26065 -0.358159 0
M  V30 5 N 0.97834 2.16624 -1.18081 0
M  V30 6 C 0.968468 0.32545 0.331351 0
M  V30 7 C 1.66391 -0.555365 1.12982 0
M  V30 8 N 3.02682 -0.488966 1.22102 0
M  V30 9 O 0.989526 -1.50752 1.8404 0
M  V30 10 N -0.439271 0.211515 0.274422 0
M  V30 11 C -1.08872 -0.663087 -0.372132 0
M  V30 12 C -2.548 -0.743486 -0.402691 0
M  V30 13 C -3.43777 0.0916684 0.245865 0
M  V30 14 C -4.73807 -0.327964 -0.043957 0
M  V30 15 C -4.55494 -1.41688 -0.869421 0
M  V30 16 O -3.27518 -1.61893 -1.04829 0
M  V30 17 H 5.59446 1.33965 0.960138 0
M  V30 18 H 5.69831 -0.392585 0.474982 0
M  V30 19 H 0.496897 3.0079 -0.826512 0
M  V30 20 H 0.938644 1.948 -2.20158 0
M  V30 21 H 0.918457 -2.46572 1.53186 0
M  V30 22 H -0.51774 -1.39554 -0.936601 0
M  V30 23 H -3.19109 0.931023 0.874146 0
M  V30 24 H -5.67529 0.0906384 0.291249 0
M  V30 25 H -5.3975 -1.98375 -1.27979 0
M  V30 END ATOM
M  V30 BEGIN BOND
M  V30 1 1 1 2
M  V30 2 2 2 3
M  V30 3 1 3 4
M  V30 4 1 4 5
M  V30 5 2 4 6
M  V30 6 1 6 7
M  V30 7 2 7 8
M  V30 8 1 7 9
M  V30 9 1 6 10
M  V30 10 2 10 11
M  V30 11 1 11 12
M  V30 12 2 12 13
M  V30 13 1 13 14
M  V30 14 2 14 15
M  V30 15 1 15 16
M  V30 16 1 8 2
M  V30 17 1 16 12
M  V30 18 1 1 17
M  V30 19 1 1 18
M  V30 20 1 5 19
M  V30 21 1 5 20
M  V30 22 1 9 21
M  V30 23 1 11 22
M  V30 24 1 13 23
M  V30 25 1 14 24
M  V30 26 1 15 25
M  V30 END BOND
M  V30 END CTAB
M  END
