
     RDKit          3D

  0  0  0  0  0  0  0  0  0  0999 V3000
M  V30 BEGIN CTAB
M  V30 COUNTS 49 51 0 0 0
M  V30 BEGIN ATOM
M  V30 1 N -3.93823 3.90564 0.78543 0
M  V30 2 C -2.97589 3.42632 -0.139207 0
M  V30 3 N -2.23229 4.23186 -0.809147 0
M  V30 4 C -2.80437 1.97533 -0.355865 0
M  V30 5 C -1.87396 1.52553 -1.2498 0
M  V30 6 C -1.70888 0.153032 -1.45747 0
M  V30 7 C -2.45523 -0.771562 -0.789168 0
M  V30 8 C -3.38699 -0.302024 0.106778 0
M  V30 9 C -3.56879 1.06038 0.329824 0
M  V30 10 C -2.30244 -2.17442 -0.986578 0
M  V30 11 C -1.21097 -2.82664 -0.763907 0
M  V30 12 C -1.10742 -4.31158 -0.999992 0
M  V30 13 C 0.167884 -4.54293 -1.78428 0
M  V30 14 C 1.38907 -4.18772 -1.01659 0
M  V30 15 C 1.27931 -2.7606 -0.519956 0
M  V30 16 C 2.35391 -2.04952 -0.31379 0
M  V30 17 C 2.45344 -0.689811 0.144751 0
M  V30 18 C 1.95242 0.437771 -0.44795 0
M  V30 19 C 2.08563 1.7142 0.0565212 0
M  V30 20 C 2.76068 1.93188 1.23709 0
M  V30 21 C 3.28678 0.813977 1.87372 0
M  V30 22 C 3.14035 -0.451173 1.34966 0
M  V30 23 C 2.92297 3.26692 1.80357 0
M  V30 24 N 3.63516 3.40796 3.0292 0
M  V30 25 N 2.46435 4.33962 1.27088 0
M  V30 26 C -0.0293912 -2.20508 -0.202104 0
M  V30 27 O -0.16048 -1.19441 0.559162 0
M  V30 28 H -4.97502 3.71694 0.663288 0
M  V30 29 H -3.68568 4.46742 1.63331 0
M  V30 30 H -2.35292 5.25552 -0.656766 0
M  V30 31 H -1.24085 2.20955 -1.82052 0
M  V30 32 H -0.960268 -0.152299 -2.17459 0
M  V30 33 H -4.02549 -0.987895 0.682523 0
M  V30 34 H -4.29875 1.43956 1.03215 0
M  V30 35 H -3.18279 -2.77226 -1.36152 0
M  V30 36 H -1.17828 -4.89142 -0.0790128 0
M  V30 37 H -1.94966 -4.57107 -1.6731 0
M  V30 38 H 0.112942 -3.90243 -2.679 0
M  V30 39 H 0.209274 -5.61869 -2.03414 0
M  V30 40 H 1.60692 -4.84802 -0.162462 0
M  V30 41 H 2.26128 -4.27642 -1.70646 0
M  V30 42 H 3.29618 -2.61251 -0.535752 0
M  V30 43 H 1.42063 0.288558 -1.37927 0
M  V30 44 H 1.65628 2.58026 -0.473107 0
M  V30 45 H 3.81908 0.988374 2.8051 0
M  V30 46 H 3.55951 -1.31734 1.86228 0
M  V30 47 H 4.52366 2.87251 3.1539 0
M  V30 48 H 3.3191 4.01594 3.80901 0
M  V30 49 H 1.92818 4.39276 0.38338 0
M  V30 END ATOM
M  V30 BEGIN BOND
M  V30 1 1 1 2
M  V30 2 2 2 3 CFG=2
M  V30 3 1 2 4
M  V30 4 2 4 5
M  V30 5 1 5 6
M  V30 6 2 6 7
M  V30 7 1 7 8
M  V30 8 2 8 9
M  V30 9 1 7 10
M  V30 10 2 10 11
M  V30 11 1 11 12
M  V30 12 1 12 13
M  V30 13 1 13 14
M  V30 14 1 14 15
M  V30 15 2 15 16
M  V30 16 1 16 17
M  V30 17 2 17 18
M  V30 18 1 18 19
M  V30 19 2 19 20
M  V30 20 1 20 21
M  V30 21 2 21 22
M  V30 22 1 20 23
M  V30 23 1 23 24
M  V30 24 2 23 25 CFG=2
M  V30 25 1 15 26
M  V30 26 2 26 27
M  V30 27 1 9 4
M  V30 28 1 26 11
M  V30 29 1 22 17
M  V30 30 1 1 28
M  V30 31 1 1 29
M  V30 32 1 3 30
M  V30 33 1 5 31
M  V30 34 1 6 32
M  V30 35 1 8 33
M  V30 36 1 9 34
M  V30 37 1 10 35
M  V30 38 1 12 36
M  V30 39 1 12 37
M  V30 40 1 13 38
M  V30 41 1 13 39
M  V30 42 1 14 40
M  V30 43 1 14 41
M  V30 44 1 16 42
M  V30 45 1 18 43
M  V30 46 1 19 44
M  V30 47 1 21 45
M  V30 48 1 22 46
M  V30 49 1 24 47
M  V30 50 1 24 48
M  V30 51 1 25 49
M  V30 END BOND
M  V30 END CTAB
M  END
