
     RDKit          3D

  0  0  0  0  0  0  0  0  0  0999 V3000
M  V30 BEGIN CTAB
M  V30 COUNTS 49 51 0 0 0
M  V30 BEGIN ATOM
M  V30 1 O 2.42038 0.372876 1.85037 0
M  V30 2 C 1.76838 0.850797 0.886467 0
M  V30 3 N 0.66185 0.175367 0.339992 0
M  V30 4 C 0.24196 -1.09069 0.888444 0
M  V30 5 C -1.25477 -1.2579 0.89868 0
M  V30 6 N -1.87839 -0.78293 -0.310159 0
M  V30 7 C -1.02691 -0.236926 -1.37136 0
M  V30 8 C -0.0419755 0.759084 -0.780671 0
M  V30 9 C -3.28235 -0.838575 -0.459837 0
M  V30 10 C -3.83526 -1.73202 -1.38668 0
M  V30 11 C -5.19602 -1.84836 -1.57289 0
M  V30 12 C -6.03771 -1.06497 -0.827896 0
M  V30 13 C -5.54189 -0.177196 0.089726 0
M  V30 14 C -4.15799 -0.0671933 0.270791 0
M  V30 15 C -3.66796 0.915781 1.26433 0
M  V30 16 C -6.44228 0.684728 0.907723 0
M  V30 17 C 2.22135 2.1613 0.351072 0
M  V30 18 S 3.30345 1.79084 -1.06264 0
M  V30 19 C 4.74667 0.947294 -0.452022 0
M  V30 20 N 4.79271 -0.387518 -0.34264 0
M  V30 21 C 5.89314 -0.996865 0.119068 0
M  V30 22 N 5.96872 -2.4155 0.246263 0
M  V30 23 N 6.9411 -0.238714 0.466437 0
M  V30 24 C 6.94675 1.10491 0.376232 0
M  V30 25 N 5.81228 1.67835 -0.0957984 0
M  V30 26 N 8.05304 1.9104 0.741042 0
M  V30 27 H 0.554765 -1.10639 1.97099 0
M  V30 28 H 0.711476 -1.93161 0.336685 0
M  V30 29 H -1.72024 -0.791704 1.77248 0
M  V30 30 H -1.43653 -2.37484 0.994327 0
M  V30 31 H -1.6831 0.295051 -2.09 0
M  V30 32 H -0.457825 -1.04815 -1.86312 0
M  V30 33 H -0.545444 1.717 -0.532377 0
M  V30 34 H 0.68732 0.99484 -1.58783 0
M  V30 35 H -3.15876 -2.34676 -1.97085 0
M  V30 36 H -5.5494 -2.56817 -2.31517 0
M  V30 37 H -7.10452 -1.16778 -0.984762 0
M  V30 38 H -3.69804 0.481492 2.28549 0
M  V30 39 H -2.64077 1.28428 1.02586 0
M  V30 40 H -4.38826 1.78376 1.28491 0
M  V30 41 H -7.48826 0.362298 0.719725 0
M  V30 42 H -6.18879 0.494396 1.97065 0
M  V30 43 H -6.31886 1.76817 0.629475 0
M  V30 44 H 2.76566 2.72239 1.13272 0
M  V30 45 H 1.31447 2.71771 0.0289555 0
M  V30 46 H 5.292 -3.05423 -0.221591 0
M  V30 47 H 6.71533 -2.86075 0.820449 0
M  V30 48 H 8.31679 1.94894 1.7415 0
M  V30 49 H 8.6127 2.46369 0.0578917 0
M  V30 END ATOM
M  V30 BEGIN BOND
M  V30 1 2 1 2
M  V30 2 1 2 3
M  V30 3 1 3 4
M  V30 4 1 4 5
M  V30 5 1 5 6
M  V30 6 1 6 7
M  V30 7 1 7 8
M  V30 8 1 6 9
M  V30 9 2 9 10
M  V30 10 1 10 11
M  V30 11 2 11 12
M  V30 12 1 12 13
M  V30 13 2 13 14
M  V30 14 1 14 15
M  V30 15 1 13 16
M  V30 16 1 2 17
M  V30 17 1 17 18
M  V30 18 1 18 19
M  V30 19 2 19 20
M  V30 20 1 20 21
M  V30 21 1 21 22
M  V30 22 2 21 23
M  V30 23 1 23 24
M  V30 24 2 24 25
M  V30 25 1 24 26
M  V30 26 1 8 3
M  V30 27 1 14 9
M  V30 28 1 25 19
M  V30 29 1 4 27
M  V30 30 1 4 28
M  V30 31 1 5 29
M  V30 32 1 5 30
M  V30 33 1 7 31
M  V30 34 1 7 32
M  V30 35 1 8 33
M  V30 36 1 8 34
M  V30 37 1 10 35
M  V30 38 1 11 36
M  V30 39 1 12 37
M  V30 40 1 15 38
M  V30 41 1 15 39
M  V30 42 1 15 40
M  V30 43 1 16 41
M  V30 44 1 16 42
M  V30 45 1 16 43
M  V30 46 1 17 44
M  V30 47 1 17 45
M  V30 48 1 22 46
M  V30 49 1 22 47
M  V30 50 1 26 48
M  V30 51 1 26 49
M  V30 END BOND
M  V30 END CTAB
M  END
