
     RDKit          3D

  0  0  0  0  0  0  0  0  0  0999 V3000
M  V30 BEGIN CTAB
M  V30 COUNTS 31 32 0 0 0
M  V30 BEGIN ATOM
M  V30 1 N 4.27154 -0.830496 0.859271 0
M  V30 2 C 4.05028 0.48726 0.359133 0
M  V30 3 C 3.25707 0.530247 -0.909642 0
M  V30 4 N 1.93454 -0.0654524 -0.743272 0
M  V30 5 N 1.60442 -1.33089 -0.921136 0
M  V30 6 N 0.30567 -1.52498 -0.690752 0
M  V30 7 C -0.247139 -0.348381 -0.347624 0
M  V30 8 C 0.79201 0.560846 -0.384553 0
M  V30 9 C -1.68388 -0.122724 -0.0216304 0
M  V30 10 C -1.90032 0.36031 1.38867 0
M  V30 11 C -2.12189 -1.07659 1.78807 0
M  V30 12 C -2.40792 -1.37443 0.337749 0
M  V30 13 S -2.4656 0.890753 -1.25115 0
M  V30 14 O -2.40563 0.107306 -2.55268 0
M  V30 15 O -1.67822 2.14403 -1.47618 0
M  V30 16 N -4.12252 1.18004 -0.913364 0
M  V30 17 H 4.52431 -1.55351 0.183747 0
M  V30 18 H 4.60053 -0.920519 1.819 0
M  V30 19 H 3.4825 1.0889 1.11557 0
M  V30 20 H 5.02675 1.00226 0.142603 0
M  V30 21 H 3.79282 0.117958 -1.79869 0
M  V30 22 H 3.12989 1.62759 -1.15607 0
M  V30 23 H 0.73117 1.61114 -0.165748 0
M  V30 24 H -2.79769 0.995574 1.54019 0
M  V30 25 H -0.990219 0.839516 1.79814 0
M  V30 26 H -1.17445 -1.54746 2.11579 0
M  V30 27 H -2.9823 -1.23286 2.4724 0
M  V30 28 H -1.93045 -2.32178 -0.0115607 0
M  V30 29 H -3.47821 -1.30478 0.0768596 0
M  V30 30 H -4.60486 0.256212 -0.956077 0
M  V30 31 H -4.5122 1.75492 -1.69707 0
M  V30 END ATOM
M  V30 BEGIN BOND
M  V30 1 1 1 2
M  V30 2 1 2 3
M  V30 3 1 3 4
M  V30 4 1 4 5
M  V30 5 2 5 6
M  V30 6 1 6 7
M  V30 7 2 7 8
M  V30 8 1 7 9
M  V30 9 1 9 10
M  V30 10 1 10 11
M  V30 11 1 11 12
M  V30 12 1 9 13
M  V30 13 2 13 14
M  V30 14 2 13 15
M  V30 15 1 13 16
M  V30 16 1 8 4
M  V30 17 1 12 9
M  V30 18 1 1 17
M  V30 19 1 1 18
M  V30 20 1 2 19
M  V30 21 1 2 20
M  V30 22 1 3 21
M  V30 23 1 3 22
M  V30 24 1 8 23
M  V30 25 1 10 24
M  V30 26 1 10 25
M  V30 27 1 11 26
M  V30 28 1 11 27
M  V30 29 1 12 28
M  V30 30 1 12 29
M  V30 31 1 16 30
M  V30 32 1 16 31
M  V30 END BOND
M  V30 END CTAB
M  END
