
     RDKit          3D

  0  0  0  0  0  0  0  0  0  0999 V3000
M  V30 BEGIN CTAB
M  V30 COUNTS 47 49 0 0 0
M  V30 BEGIN ATOM
M  V30 1 C -4.10545 2.29048 -0.0364737 0
M  V30 2 O -5.35724 1.93302 0.255042 0
M  V30 3 C -5.82458 0.694796 0.32666 0
M  V30 4 C -5.3619 -0.307623 1.29491 0
M  V30 5 C -3.96744 -0.750902 1.29602 0
M  V30 6 N -2.92005 -0.355555 2.03781 0
M  V30 7 O -1.83684 -0.998253 1.72947 0
M  V30 8 C -2.11129 -1.84268 0.777714 0
M  V30 9 N -3.41516 -1.71598 0.487379 0
M  V30 10 C -1.17054 -2.80302 0.0984825 0
M  V30 11 N -0.479647 -2.07597 -0.921913 0
M  V30 12 C 0.344365 -0.983143 -0.57214 0
M  V30 13 N -0.134231 0.263749 -0.436475 0
M  V30 14 C 0.660675 1.30172 -0.107123 0
M  V30 15 N 0.0945632 2.58733 0.0225602 0
M  V30 16 N 1.98959 1.11357 0.0999494 0
M  V30 17 C 2.53089 -0.10833 -0.0199196 0
M  V30 18 C 1.69872 -1.15142 -0.356729 0
M  V30 19 C 3.97768 -0.34369 0.195533 0
M  V30 20 C 4.87013 0.435651 -0.757993 0
M  V30 21 C 5.81046 0.65776 0.420086 0
M  V30 22 C 4.61652 0.378153 1.34088 0
M  V30 23 N 6.29701 1.9936 0.582377 0
M  V30 24 C -0.615031 -2.44453 -2.30512 0
M  V30 25 H -4.0132 3.44353 -0.115563 0
M  V30 26 H -3.7867 1.88391 -0.997266 0
M  V30 27 H -3.39623 2.10485 0.801958 0
M  V30 28 H -5.8063 0.222069 -0.736481 0
M  V30 29 H -6.98376 0.82036 0.43528 0
M  V30 30 H -5.61575 0.0170943 2.3686 0
M  V30 31 H -6.06646 -1.20464 1.17743 0
M  V30 32 H -1.78115 -3.63422 -0.285563 0
M  V30 33 H -0.491775 -3.23466 0.857246 0
M  V30 34 H -0.753482 2.74386 0.611059 0
M  V30 35 H 0.504881 3.40981 -0.461698 0
M  V30 36 H 2.10232 -2.14308 -0.460547 0
M  V30 37 H 4.26853 -1.42799 0.113294 0
M  V30 38 H 5.31146 -0.191152 -1.57716 0
M  V30 39 H 4.39684 1.35832 -1.15402 0
M  V30 40 H 6.57808 -0.147505 0.436967 0
M  V30 41 H 4.06624 1.29036 1.61227 0
M  V30 42 H 4.86014 -0.318986 2.17145 0
M  V30 43 H 7.25205 2.14494 0.208245 0
M  V30 44 H 5.59079 2.67875 0.295333 0
M  V30 45 H -1.5785 -2.94693 -2.51818 0
M  V30 46 H 0.232384 -3.11569 -2.56465 0
M  V30 47 H -0.481618 -1.52173 -2.90865 0
M  V30 END ATOM
M  V30 BEGIN BOND
M  V30 1 1 1 2
M  V30 2 1 2 3
M  V30 3 1 3 4
M  V30 4 1 4 5
M  V30 5 2 5 6
M  V30 6 1 6 7
M  V30 7 1 7 8
M  V30 8 2 8 9
M  V30 9 1 8 10
M  V30 10 1 10 11
M  V30 11 1 11 12
M  V30 12 2 12 13
M  V30 13 1 13 14
M  V30 14 1 14 15
M  V30 15 2 14 16
M  V30 16 1 16 17
M  V30 17 2 17 18
M  V30 18 1 17 19
M  V30 19 1 19 20
M  V30 20 1 20 21
M  V30 21 1 21 22
M  V30 22 1 21 23
M  V30 23 1 11 24
M  V30 24 1 9 5
M  V30 25 1 18 12
M  V30 26 1 22 19
M  V30 27 1 1 25
M  V30 28 1 1 26
M  V30 29 1 1 27
M  V30 30 1 3 28
M  V30 31 1 3 29
M  V30 32 1 4 30
M  V30 33 1 4 31
M  V30 34 1 10 32
M  V30 35 1 10 33
M  V30 36 1 15 34
M  V30 37 1 15 35
M  V30 38 1 18 36
M  V30 39 1 19 37
M  V30 40 1 20 38
M  V30 41 1 20 39
M  V30 42 1 21 40
M  V30 43 1 22 41
M  V30 44 1 22 42
M  V30 45 1 23 43
M  V30 46 1 23 44
M  V30 47 1 24 45
M  V30 48 1 24 46
M  V30 49 1 24 47
M  V30 END BOND
M  V30 END CTAB
M  END
