
     RDKit          3D

  0  0  0  0  0  0  0  0  0  0999 V3000
M  V30 BEGIN CTAB
M  V30 COUNTS 57 60 0 0 0
M  V30 BEGIN ATOM
M  V30 1 N 6.57395 0.558205 -1.74103 0
M  V30 2 C 6.96681 -0.614443 -1.01333 0 CFG=1
M  V30 3 C 5.96155 -1.73696 -1.12956 0
M  V30 4 C 4.62477 -1.31796 -0.596341 0
M  V30 5 C 4.29407 -1.5032 0.729064 0
M  V30 6 C 3.0652 -1.11772 1.21711 0
M  V30 7 C 2.09277 -0.524975 0.414474 0
M  V30 8 C 2.4272 -0.34255 -0.905551 0
M  V30 9 C 3.67744 -0.7338 -1.40592 0
M  V30 10 C 0.80317 -0.131349 0.970296 0
M  V30 11 N 0.598077 -0.36381 2.27694 0
M  V30 12 C -0.55805 -0.0308456 2.85602 0
M  V30 13 N -0.78759 -0.277674 4.26332 0
M  V30 14 N -1.50493 0.538291 2.10612 0
M  V30 15 C -1.38991 0.806303 0.804935 0
M  V30 16 O -2.39628 1.38412 0.119397 0
M  V30 17 C -3.67502 1.78207 0.568658 0
M  V30 18 C -4.68959 1.54642 -0.443519 0
M  V30 19 C -5.01465 0.28921 -0.8874 0
M  V30 20 C -5.95373 0.0837851 -1.89712 0
M  V30 21 C -6.60997 1.12471 -2.50501 0
M  V30 22 C -6.30628 2.38536 -2.07956 0
M  V30 23 C -5.37665 2.58854 -1.08144 0
M  V30 24 C -4.41179 -0.907273 -0.242947 0
M  V30 25 C -3.62439 -1.77117 -0.991054 0
M  V30 26 S -3.23306 -2.99805 0.117603 0
M  V30 27 C -4.05647 -2.41169 1.48769 0
M  V30 28 C -4.62301 -1.25503 1.0318 0
M  V30 29 C -3.64151 3.22216 1.03229 0
M  V30 30 F -2.7305 3.31799 2.12312 0
M  V30 31 F -3.23939 4.12166 0.0847124 0
M  V30 32 F -4.85095 3.56716 1.53817 0
M  V30 33 C -0.195062 0.463491 0.201116 0
M  V30 34 C 8.32153 -1.01976 -1.38513 0
M  V30 35 O 8.89085 -2.13157 -0.7965 0
M  V30 36 O 8.95821 -0.357955 -2.2342 0
M  V30 37 H 7.35512 1.24627 -1.66921 0
M  V30 38 H 5.75674 1.01454 -1.25624 0
M  V30 39 H 6.99282 -0.330501 0.0765434 0
M  V30 40 H 5.90141 -2.00747 -2.20527 0
M  V30 41 H 6.35559 -2.62102 -0.598983 0
M  V30 42 H 5.03897 -1.96312 1.36815 0
M  V30 43 H 2.80569 -1.26406 2.26118 0
M  V30 44 H 1.70704 0.116625 -1.58338 0
M  V30 45 H 3.91817 -0.579139 -2.45259 0
M  V30 46 H -0.899397 -1.27235 4.54833 0
M  V30 47 H -0.843677 0.458072 4.97174 0
M  V30 48 H -3.83685 1.20661 1.51419 0
M  V30 49 H -6.15314 -0.927339 -2.19137 0
M  V30 50 H -7.34451 0.93473 -3.29751 0
M  V30 51 H -6.82362 3.21768 -2.55639 0
M  V30 52 H -5.22226 3.61471 -0.821398 0
M  V30 53 H -3.34795 -1.64281 -2.05476 0
M  V30 54 H -4.13198 -2.83782 2.50449 0
M  V30 55 H -5.24447 -0.650993 1.72784 0
M  V30 56 H -0.0424398 0.654337 -0.844825 0
M  V30 57 H 9.67193 -2.59866 -1.23981 0
M  V30 END ATOM
M  V30 BEGIN BOND
M  V30 1 1 1 2
M  V30 2 1 2 3
M  V30 3 1 3 4
M  V30 4 2 4 5
M  V30 5 1 5 6
M  V30 6 2 6 7
M  V30 7 1 7 8
M  V30 8 2 8 9
M  V30 9 1 7 10
M  V30 10 2 10 11
M  V30 11 1 11 12
M  V30 12 1 12 13
M  V30 13 2 12 14
M  V30 14 1 14 15
M  V30 15 1 15 16
M  V30 16 1 16 17
M  V30 17 1 17 18
M  V30 18 1 18 19
M  V30 19 2 19 20
M  V30 20 1 20 21
M  V30 21 2 21 22
M  V30 22 1 22 23
M  V30 23 1 19 24
M  V30 24 2 24 25
M  V30 25 1 25 26
M  V30 26 1 26 27
M  V30 27 2 27 28
M  V30 28 1 17 29
M  V30 29 1 29 30
M  V30 30 1 29 31
M  V30 31 1 29 32
M  V30 32 2 15 33
M  V30 33 1 2 34
M  V30 34 1 34 35
M  V30 35 2 34 36
M  V30 36 1 9 4
M  V30 37 1 33 10
M  V30 38 2 23 18
M  V30 39 1 28 24
M  V30 40 1 1 37
M  V30 41 1 1 38
M  V30 42 1 2 39 CFG=1
M  V30 43 1 3 40
M  V30 44 1 3 41
M  V30 45 1 5 42
M  V30 46 1 6 43
M  V30 47 1 8 44
M  V30 48 1 9 45
M  V30 49 1 13 46
M  V30 50 1 13 47
M  V30 51 1 17 48
M  V30 52 1 20 49
M  V30 53 1 21 50
M  V30 54 1 22 51
M  V30 55 1 23 52
M  V30 56 1 25 53
M  V30 57 1 27 54
M  V30 58 1 28 55
M  V30 59 1 33 56
M  V30 60 1 35 57
M  V30 END BOND
M  V30 END CTAB
M  END
