
     RDKit          3D

  0  0  0  0  0  0  0  0  0  0999 V3000
M  V30 BEGIN CTAB
M  V30 COUNTS 35 37 0 0 0
M  V30 BEGIN ATOM
M  V30 1 N 5.49786 -0.863733 1.55395 0
M  V30 2 S 5.17843 -0.84816 -0.170214 0
M  V30 3 C 3.63537 0.0167367 -0.428879 0
M  V30 4 N 3.57368 1.34065 -0.621608 0
M  V30 5 C 2.38343 1.97968 -0.817178 0
M  V30 6 N 2.3496 3.38551 -1.01906 0
M  V30 7 N 1.27204 1.22463 -0.808572 0
M  V30 8 C 1.25185 -0.107023 -0.621981 0
M  V30 9 C 2.47015 -0.723792 -0.427085 0
M  V30 10 C 2.21541 -2.08967 -0.256422 0
M  V30 11 C 0.846358 -2.20012 -0.361781 0
M  V30 12 N 0.257816 -1.03428 -0.578669 0
M  V30 13 C -1.12892 -0.681191 -0.750925 0 CFG=1
M  V30 14 C -2.06866 -1.69583 -0.171079 0
M  V30 15 C -3.03374 -0.82468 0.617831 0 CFG=2
M  V30 16 O -4.35167 -1.23418 0.451587 0
M  V30 17 C -2.76649 0.528734 0.00486013 0 CFG=1
M  V30 18 C -3.27402 1.65363 0.876682 0
M  V30 19 O -4.66832 1.54872 0.897086 0
M  V30 20 O -1.37396 0.527354 -0.0943653 0
M  V30 21 H 6.07411 -0.0380105 1.78685 0
M  V30 22 H 4.61308 -0.815626 2.05743 0
M  V30 23 H 2.26356 3.98966 -0.180522 0
M  V30 24 H 2.40729 3.8144 -1.96077 0
M  V30 25 H 2.97982 -2.81042 -0.0869373 0
M  V30 26 H 0.308271 -3.13357 -0.277309 0
M  V30 27 H -1.39096 -0.523483 -1.81753 0
M  V30 28 H -2.68439 -2.17083 -0.975284 0
M  V30 29 H -1.59738 -2.47156 0.42521 0
M  V30 30 H -2.7072 -0.817593 1.66142 0
M  V30 31 H -4.36371 -2.10773 -0.023175 0
M  V30 32 H -3.17577 0.57121 -1.00521 0
M  V30 33 H -3.03243 2.60757 0.369486 0
M  V30 34 H -2.85507 1.64294 1.88101 0
M  V30 35 H -5.10544 2.36007 0.563852 0
M  V30 END ATOM
M  V30 BEGIN BOND
M  V30 1 1 1 2
M  V30 2 1 2 3
M  V30 3 2 3 4
M  V30 4 1 4 5
M  V30 5 1 5 6
M  V30 6 2 5 7
M  V30 7 1 7 8
M  V30 8 2 8 9
M  V30 9 1 9 10
M  V30 10 2 10 11
M  V30 11 1 11 12
M  V30 12 1 12 13
M  V30 13 1 13 14
M  V30 14 1 14 15
M  V30 15 1 15 16
M  V30 16 1 15 17
M  V30 17 1 17 18
M  V30 18 1 18 19
M  V30 19 1 17 20
M  V30 20 1 9 3
M  V30 21 1 20 13
M  V30 22 1 12 8
M  V30 23 1 1 21
M  V30 24 1 1 22
M  V30 25 1 6 23
M  V30 26 1 6 24
M  V30 27 1 10 25
M  V30 28 1 11 26
M  V30 29 1 13 27 CFG=3
M  V30 30 1 14 28
M  V30 31 1 14 29
M  V30 32 1 15 30 CFG=1
M  V30 33 1 16 31
M  V30 34 1 17 32 CFG=3
M  V30 35 1 18 33
M  V30 36 1 18 34
M  V30 37 1 19 35
M  V30 END BOND
M  V30 END CTAB
M  END
