
     RDKit          3D

  0  0  0  0  0  0  0  0  0  0999 V3000
M  V30 BEGIN CTAB
M  V30 COUNTS 36 38 0 0 0
M  V30 BEGIN ATOM
M  V30 1 N 3.53496 -0.840088 2.23344 0
M  V30 2 C 2.96785 -0.204212 1.07503 0
M  V30 3 N 1.66969 -0.356035 0.783115 0
M  V30 4 C 1.1278 0.23324 -0.29688 0
M  V30 5 N 1.95882 0.970517 -1.0497 0
M  V30 6 C 3.26303 1.16276 -0.814726 0
M  V30 7 N 3.76412 0.543854 0.292591 0
M  V30 8 N 4.09518 1.95794 -1.6521 0
M  V30 9 C -0.324144 0.0703898 -0.62951 0
M  V30 10 C -1.16211 1.12047 -0.0529554 0
M  V30 11 C -1.12796 1.39952 1.29365 0
M  V30 12 C -1.93998 2.38724 1.79626 0
M  V30 13 C -2.79692 3.12077 1.00709 0
M  V30 14 C -2.85099 2.8603 -0.353429 0
M  V30 15 C -2.03855 1.87354 -0.848967 0
M  V30 16 C -0.810135 -1.308 -0.54572 0
M  V30 17 C -0.688511 -2.18068 -1.64873 0
M  V30 18 C -1.11189 -3.4684 -1.65418 0
M  V30 19 C -1.7004 -3.96043 -0.508032 0
M  V30 20 C -1.83102 -3.12255 0.588215 0
M  V30 21 C -1.39769 -1.8041 0.594176 0
M  V30 22 H 3.26931 -1.83666 2.37222 0
M  V30 23 H 4.16527 -0.314294 2.8721 0
M  V30 24 H 3.69962 2.74428 -2.2128 0
M  V30 25 H 5.10994 1.7606 -1.71228 0
M  V30 26 H -0.334423 0.293232 -1.75145 0
M  V30 27 H -0.450828 0.840942 1.96268 0
M  V30 28 H -1.90637 2.60059 2.86169 0
M  V30 29 H -3.44435 3.91041 1.41686 0
M  V30 30 H -3.53414 3.45543 -0.939096 0
M  V30 31 H -2.07558 1.66169 -1.92364 0
M  V30 32 H -0.220712 -1.79003 -2.56023 0
M  V30 33 H -1.00745 -4.11496 -2.50992 0
M  V30 34 H -2.05064 -4.97761 -0.469754 0
M  V30 35 H -2.29027 -3.48552 1.50127 0
M  V30 36 H -1.53052 -1.20413 1.48369 0
M  V30 END ATOM
M  V30 BEGIN BOND
M  V30 1 1 1 2
M  V30 2 2 2 3
M  V30 3 1 3 4
M  V30 4 2 4 5
M  V30 5 1 5 6
M  V30 6 2 6 7
M  V30 7 1 6 8
M  V30 8 1 4 9
M  V30 9 1 9 10
M  V30 10 2 10 11
M  V30 11 1 11 12
M  V30 12 2 12 13
M  V30 13 1 13 14
M  V30 14 2 14 15
M  V30 15 1 9 16
M  V30 16 2 16 17
M  V30 17 1 17 18
M  V30 18 2 18 19
M  V30 19 1 19 20
M  V30 20 2 20 21
M  V30 21 1 7 2
M  V30 22 1 15 10
M  V30 23 1 21 16
M  V30 24 1 1 22
M  V30 25 1 1 23
M  V30 26 1 8 24
M  V30 27 1 8 25
M  V30 28 1 9 26
M  V30 29 1 11 27
M  V30 30 1 12 28
M  V30 31 1 13 29
M  V30 32 1 14 30
M  V30 33 1 15 31
M  V30 34 1 17 32
M  V30 35 1 18 33
M  V30 36 1 19 34
M  V30 37 1 20 35
M  V30 38 1 21 36
M  V30 END BOND
M  V30 END CTAB
M  END
