
     RDKit          3D

  0  0  0  0  0  0  0  0  0  0999 V3000
M  V30 BEGIN CTAB
M  V30 COUNTS 33 34 0 0 0
M  V30 BEGIN ATOM
M  V30 1 N 3.65277 -0.642586 1.85102 0
M  V30 2 C 2.70164 -0.348237 0.852492 0
M  V30 3 C 1.3396 -0.415487 1.05635 0
M  V30 4 C 0.402265 -0.128347 0.0821145 0
M  V30 5 O -0.965428 -0.21031 0.335061 0
M  V30 6 C -1.86003 0.0955749 -0.701215 0
M  V30 7 C -3.27024 -0.0439011 -0.256631 0
M  V30 8 C -3.96666 1.014 0.298112 0
M  V30 9 C -5.27701 0.861204 0.704279 0
M  V30 10 C -5.94626 -0.338964 0.577904 0
M  V30 11 C -5.25234 -1.39556 0.0244125 0
M  V30 12 C -3.94269 -1.24303 -0.381595 0
M  V30 13 C 0.878822 0.248744 -1.17105 0
M  V30 14 C 2.23135 0.329312 -1.41956 0
M  V30 15 C 3.13284 0.0339344 -0.41835 0
M  V30 16 S 4.86163 0.128631 -0.708247 0
M  V30 17 O 5.42103 -1.24416 -0.447366 0
M  V30 18 O 5.09626 0.576287 -2.1145 0
M  V30 19 N 5.57568 1.26926 0.353335 0
M  V30 20 H 4.17462 -1.52894 1.80795 0
M  V30 21 H 3.8186 0.0277308 2.6134 0
M  V30 22 H 0.993908 -0.710483 2.03713 0
M  V30 23 H -1.62898 1.11223 -1.07443 0
M  V30 24 H -1.64546 -0.598551 -1.54157 0
M  V30 25 H -3.44813 1.96914 0.40355 0
M  V30 26 H -5.84031 1.67946 1.14184 0
M  V30 27 H -6.9722 -0.473287 0.891545 0
M  V30 28 H -5.77111 -2.35175 -0.0812494 0
M  V30 29 H -3.39239 -2.07677 -0.819292 0
M  V30 30 H 0.143242 0.47306 -1.93217 0
M  V30 31 H 2.61422 0.623753 -2.39787 0
M  V30 32 H 6.54209 0.955257 0.555301 0
M  V30 33 H 5.59868 2.18957 -0.120688 0
M  V30 END ATOM
M  V30 BEGIN BOND
M  V30 1 1 1 2
M  V30 2 2 2 3
M  V30 3 1 3 4
M  V30 4 1 4 5
M  V30 5 1 5 6
M  V30 6 1 6 7
M  V30 7 2 7 8
M  V30 8 1 8 9
M  V30 9 2 9 10
M  V30 10 1 10 11
M  V30 11 2 11 12
M  V30 12 2 4 13
M  V30 13 1 13 14
M  V30 14 2 14 15
M  V30 15 1 15 16
M  V30 16 2 16 17
M  V30 17 2 16 18
M  V30 18 1 16 19
M  V30 19 1 15 2
M  V30 20 1 12 7
M  V30 21 1 1 20
M  V30 22 1 1 21
M  V30 23 1 3 22
M  V30 24 1 6 23
M  V30 25 1 6 24
M  V30 26 1 8 25
M  V30 27 1 9 26
M  V30 28 1 10 27
M  V30 29 1 11 28
M  V30 30 1 12 29
M  V30 31 1 13 30
M  V30 32 1 14 31
M  V30 33 1 19 32
M  V30 34 1 19 33
M  V30 END BOND
M  V30 END CTAB
M  END
