
     RDKit          3D

  0  0  0  0  0  0  0  0  0  0999 V3000
M  V30 BEGIN CTAB
M  V30 COUNTS 60 63 0 0 0
M  V30 BEGIN ATOM
M  V30 1 N 0.425239 2.41724 -0.982575 0
M  V30 2 N 0.53686 1.14202 -0.529735 0
M  V30 3 C -0.422347 0.474264 0.122763 0
M  V30 4 C -0.0637106 -0.845007 0.498188 0
M  V30 5 C 1.23715 -1.34901 0.314781 0
M  V30 6 N 1.23732 -2.57376 0.846188 0
M  V30 7 O 0.117058 -2.86494 1.31164 0
M  V30 8 C -0.754413 -1.81856 1.11432 0
M  V30 9 C -2.11329 -2.04457 1.54134 0
M  V30 10 N -2.30982 -2.74995 2.59126 0
M  V30 11 N -3.4046 -3.14262 3.24407 0
M  V30 12 C -3.2676 -1.73901 0.747187 0
M  V30 13 C -3.13384 -1.61325 -0.635808 0
M  V30 14 C -4.18303 -1.285 -1.43565 0
M  V30 15 C -5.42063 -1.06948 -0.863514 0
M  V30 16 C -5.61002 -1.17871 0.486268 0
M  V30 17 C -4.50173 -1.51817 1.27661 0
M  V30 18 C 2.40703 -0.756511 -0.304545 0
M  V30 19 C 2.70928 -0.87871 -1.65862 0
M  V30 20 O 1.7984 -1.60643 -2.41751 0
M  V30 21 C 2.04544 -1.76949 -3.8031 0
M  V30 22 C 3.84157 -0.310653 -2.2013 0
M  V30 23 C 4.73166 0.406564 -1.43265 0
M  V30 24 C 4.44654 0.536561 -0.090322 0
M  V30 25 C 3.31411 -0.0312641 0.453843 0
M  V30 26 O 3.0659 0.128204 1.82689 0
M  V30 27 C 3.96908 0.861567 2.63151 0
M  V30 28 O 5.8811 0.983259 -1.98371 0
M  V30 29 C 6.79644 1.71711 -1.2078 0
M  V30 30 C -1.54036 1.34842 0.377221 0
M  V30 31 C -2.17149 1.46365 1.62461 0
M  V30 32 C -3.26087 2.22972 1.87639 0
M  V30 33 C -3.81968 2.96659 0.854191 0
M  V30 34 C -3.24564 2.8919 -0.383586 0
M  V30 35 C -2.11786 2.0928 -0.628396 0
M  V30 36 H 0.282963 3.21377 -0.325309 0
M  V30 37 H 0.47713 2.66956 -2.00533 0
M  V30 38 H -4.02456 -3.89774 2.82159 0
M  V30 39 H -3.76966 -2.79563 4.17242 0
M  V30 40 H -2.14491 -1.80401 -1.04173 0
M  V30 41 H -4.01369 -1.20169 -2.5094 0
M  V30 42 H -6.24639 -0.809261 -1.51448 0
M  V30 43 H -6.59333 -1.00549 0.921087 0
M  V30 44 H -4.74684 -1.54603 2.34728 0
M  V30 45 H 2.91737 -2.42792 -3.92944 0
M  V30 46 H 2.27957 -0.77716 -4.2221 0
M  V30 47 H 1.13883 -2.17572 -4.30398 0
M  V30 48 H 4.0458 -0.424219 -3.25323 0
M  V30 49 H 5.14352 1.10295 0.531937 0
M  V30 50 H 3.47298 1.03018 3.59862 0
M  V30 51 H 4.10656 1.85522 2.13328 0
M  V30 52 H 4.94789 0.34691 2.7355 0
M  V30 53 H 6.40219 2.70924 -0.903724 0
M  V30 54 H 7.75662 1.86696 -1.73974 0
M  V30 55 H 7.02754 1.19053 -0.239573 0
M  V30 56 H -1.76321 0.905129 2.47105 0
M  V30 57 H -3.71471 2.28707 2.85777 0
M  V30 58 H -4.68858 3.5813 1.04506 0
M  V30 59 H -3.7029 3.4796 -1.16819 0
M  V30 60 H -1.80937 2.11168 -1.65981 0
M  V30 END ATOM
M  V30 BEGIN BOND
M  V30 1 1 1 2
M  V30 2 2 2 3
M  V30 3 1 3 4
M  V30 4 1 4 5
M  V30 5 2 5 6
M  V30 6 1 6 7
M  V30 7 1 7 8
M  V30 8 1 8 9
M  V30 9 2 9 10
M  V30 10 1 10 11
M  V30 11 1 9 12
M  V30 12 2 12 13
M  V30 13 1 13 14
M  V30 14 2 14 15
M  V30 15 1 15 16
M  V30 16 2 16 17
M  V30 17 1 5 18
M  V30 18 2 18 19
M  V30 19 1 19 20
M  V30 20 1 20 21
M  V30 21 1 19 22
M  V30 22 2 22 23
M  V30 23 1 23 24
M  V30 24 2 24 25
M  V30 25 1 25 26
M  V30 26 1 26 27
M  V30 27 1 23 28
M  V30 28 1 28 29
M  V30 29 1 3 30
M  V30 30 2 30 31
M  V30 31 1 31 32
M  V30 32 2 32 33
M  V30 33 1 33 34
M  V30 34 2 34 35
M  V30 35 2 8 4
M  V30 36 1 17 12
M  V30 37 1 25 18
M  V30 38 1 35 30
M  V30 39 1 1 36
M  V30 40 1 1 37
M  V30 41 1 11 38
M  V30 42 1 11 39
M  V30 43 1 13 40
M  V30 44 1 14 41
M  V30 45 1 15 42
M  V30 46 1 16 43
M  V30 47 1 17 44
M  V30 48 1 21 45
M  V30 49 1 21 46
M  V30 50 1 21 47
M  V30 51 1 22 48
M  V30 52 1 24 49
M  V30 53 1 27 50
M  V30 54 1 27 51
M  V30 55 1 27 52
M  V30 56 1 29 53
M  V30 57 1 29 54
M  V30 58 1 29 55
M  V30 59 1 31 56
M  V30 60 1 32 57
M  V30 61 1 33 58
M  V30 62 1 34 59
M  V30 63 1 35 60
M  V30 END BOND
M  V30 END CTAB
M  END
