
     RDKit          3D

  0  0  0  0  0  0  0  0  0  0999 V3000
M  V30 BEGIN CTAB
M  V30 COUNTS 16 15 0 0 0
M  V30 BEGIN ATOM
M  V30 1 N -3.25226 1.20289 -0.403427 0
M  V30 2 N -1.86539 1.40322 -0.496884 0
M  V30 3 C -1.0629 0.459326 -0.12322 0
M  V30 4 N -1.50148 -0.78813 0.384241 0
M  V30 5 S 0.683471 0.773697 -0.266015 0
M  V30 6 C 1.59702 -0.678291 0.3115 0
M  V30 7 C 3.03278 -0.399149 0.185726 0
M  V30 8 O 3.47401 0.802035 -0.303054 0
M  V30 9 O 3.86399 -1.26069 0.525803 0
M  V30 10 H -3.7875 1.24362 -1.29666 0
M  V30 11 H -3.68736 1.02586 0.524915 0
M  V30 12 H -1.8553 -0.834835 1.3717 0
M  V30 13 H -1.49119 -1.68086 -0.183036 0
M  V30 14 H 1.31925 -1.54584 -0.35309 0
M  V30 15 H 1.28337 -0.885659 1.35626 0
M  V30 16 H 3.24947 1.16281 -1.23475 0
M  V30 END ATOM
M  V30 BEGIN BOND
M  V30 1 1 1 2
M  V30 2 2 2 3 CFG=2
M  V30 3 1 3 4
M  V30 4 1 3 5
M  V30 5 1 5 6
M  V30 6 1 6 7
M  V30 7 1 7 8
M  V30 8 2 7 9
M  V30 9 1 1 10
M  V30 10 1 1 11
M  V30 11 1 4 12
M  V30 12 1 4 13
M  V30 13 1 6 14
M  V30 14 1 6 15
M  V30 15 1 8 16
M  V30 END BOND
M  V30 END CTAB
M  END
