
     RDKit          3D

  0  0  0  0  0  0  0  0  0  0999 V3000
M  V30 BEGIN CTAB
M  V30 COUNTS 27 27 0 0 0
M  V30 BEGIN ATOM
M  V30 1 C 0.997611 2.35382 0.050531 0
M  V30 2 C -0.131657 1.38684 0.000116528 0
M  V30 3 C -1.35269 1.85881 -0.435592 0
M  V30 4 C -2.43829 1.0113 -0.504597 0
M  V30 5 C -2.23615 -0.307974 -0.12062 0
M  V30 6 C -1.01045 -0.762637 0.311958 0
M  V30 7 C 0.0790518 0.0784077 0.383595 0
M  V30 8 N 1.35655 -0.386114 0.832146 0
M  V30 9 S 2.53867 -1.02847 -0.229156 0
M  V30 10 O 1.88623 -1.67904 -1.41392 0
M  V30 11 O 3.41926 -1.99808 0.509368 0
M  V30 12 N 3.58012 0.220048 -0.825491 0
M  V30 13 C -0.865636 -2.18557 0.707109 0
M  V30 14 N -3.37365 -1.16852 -0.19986 0
M  V30 15 H 1.68016 2.00763 0.851284 0
M  V30 16 H 1.48746 2.44165 -0.931513 0
M  V30 17 H 0.648079 3.37165 0.323723 0
M  V30 18 H -1.52515 2.88491 -0.738186 0
M  V30 19 H -3.40218 1.36694 -0.844301 0
M  V30 20 H 1.61333 -0.34486 1.85678 0
M  V30 21 H 3.1759 0.768089 -1.58108 0
M  V30 22 H 4.07545 0.72244 -0.0855354 0
M  V30 23 H -1.86993 -2.62387 0.972493 0
M  V30 24 H -0.296905 -2.18809 1.67257 0
M  V30 25 H -0.424231 -2.81181 -0.0638564 0
M  V30 26 H -3.83749 -1.58621 0.634261 0
M  V30 27 H -3.77347 -1.40129 -1.13222 0
M  V30 END ATOM
M  V30 BEGIN BOND
M  V30 1 1 1 2
M  V30 2 2 2 3
M  V30 3 1 3 4
M  V30 4 2 4 5
M  V30 5 1 5 6
M  V30 6 2 6 7
M  V30 7 1 7 8
M  V30 8 1 8 9
M  V30 9 2 9 10
M  V30 10 2 9 11
M  V30 11 1 9 12
M  V30 12 1 6 13
M  V30 13 1 5 14
M  V30 14 1 7 2
M  V30 15 1 1 15
M  V30 16 1 1 16
M  V30 17 1 1 17
M  V30 18 1 3 18
M  V30 19 1 4 19
M  V30 20 1 8 20
M  V30 21 1 12 21
M  V30 22 1 12 22
M  V30 23 1 13 23
M  V30 24 1 13 24
M  V30 25 1 13 25
M  V30 26 1 14 26
M  V30 27 1 14 27
M  V30 END BOND
M  V30 END CTAB
M  END
