
     RDKit          3D

  0  0  0  0  0  0  0  0  0  0999 V3000
M  V30 BEGIN CTAB
M  V30 COUNTS 27 27 0 0 0
M  V30 BEGIN ATOM
M  V30 1 C -1.88727 -1.45764 1.4757 0
M  V30 2 C -0.588659 -1.16997 0.820984 0
M  V30 3 C -0.592109 -0.0494849 -0.171888 0
M  V30 4 C 0.875522 0.0789709 -0.612967 0
M  V30 5 C 1.25619 0.196673 -1.91681 0
M  V30 6 S 2.98243 0.250894 -1.76111 0
M  V30 7 C 3.08028 0.11709 -0.0609819 0
M  V30 8 N 1.80645 0.0402654 0.282414 0
M  V30 9 N 4.21998 0.0701793 0.846264 0
M  V30 10 C -1.10388 1.19587 0.43265 0
M  V30 11 N -1.12932 2.34686 -0.417007 0
M  V30 12 C -1.40245 -0.457242 -1.34106 0
M  V30 13 H -2.21652 -0.534626 2.02593 0
M  V30 14 H -1.67223 -2.23605 2.2678 0
M  V30 15 H -2.62081 -1.8656 0.792487 0
M  V30 16 H 0.203678 -0.940883 1.54789 0
M  V30 17 H -0.229655 -2.07355 0.257468 0
M  V30 18 H 0.630482 0.255547 -2.81851 0
M  V30 19 H 4.53472 0.865125 1.43503 0
M  V30 20 H 4.74986 -0.817683 0.89451 0
M  V30 21 H -2.1957 0.994431 0.652479 0
M  V30 22 H -0.601157 1.47713 1.37358 0
M  V30 23 H -1.83924 2.2831 -1.2004 0
M  V30 24 H -1.41331 3.18239 0.141708 0
M  V30 25 H -0.956868 -1.39367 -1.76536 0
M  V30 26 H -1.46764 0.301016 -2.15529 0
M  V30 27 H -2.42279 -0.659137 -1.02552 0
M  V30 END ATOM
M  V30 BEGIN BOND
M  V30 1 1 1 2
M  V30 2 1 2 3
M  V30 3 1 3 4
M  V30 4 2 4 5
M  V30 5 1 5 6
M  V30 6 1 6 7
M  V30 7 2 7 8
M  V30 8 1 7 9
M  V30 9 1 3 10
M  V30 10 1 10 11
M  V30 11 1 3 12
M  V30 12 1 8 4
M  V30 13 1 1 13
M  V30 14 1 1 14
M  V30 15 1 1 15
M  V30 16 1 2 16
M  V30 17 1 2 17
M  V30 18 1 5 18
M  V30 19 1 9 19
M  V30 20 1 9 20
M  V30 21 1 10 21
M  V30 22 1 10 22
M  V30 23 1 11 23
M  V30 24 1 11 24
M  V30 25 1 12 25
M  V30 26 1 12 26
M  V30 27 1 12 27
M  V30 END BOND
M  V30 END CTAB
M  END
