
     RDKit          3D

  0  0  0  0  0  0  0  0  0  0999 V3000
M  V30 BEGIN CTAB
M  V30 COUNTS 42 45 0 0 0
M  V30 BEGIN ATOM
M  V30 1 N 4.38434 -1.97322 1.99778 0
M  V30 2 C 3.785 -1.47618 0.78509 0
M  V30 3 C 4.54331 -1.19639 -0.325808 0
M  V30 4 C 3.94007 -0.727951 -1.45555 0
M  V30 5 C 2.55128 -0.533082 -1.48249 0
M  V30 6 C 1.78029 -0.805696 -0.38791 0
M  V30 7 C 2.41464 -1.2757 0.735301 0
M  V30 8 C 0.346258 -0.62409 -0.361218 0
M  V30 9 N -0.555168 -1.65502 -0.382067 0
M  V30 10 N -1.77315 -1.18402 -0.350423 0
M  V30 11 N -1.69993 0.112605 -0.310307 0
M  V30 12 C -0.395692 0.519962 -0.314515 0
M  V30 13 C 0.0622155 1.89441 -0.264219 0
M  V30 14 C 0.701394 2.47601 -1.3248 0
M  V30 15 C 1.14817 3.78875 -1.28113 0
M  V30 16 C 0.931647 4.5124 -0.126458 0
M  V30 17 C 0.282479 3.95979 0.980582 0
M  V30 18 C -0.127112 2.66282 0.861192 0
M  V30 19 N 0.0815966 4.74457 2.14398 0
M  V30 20 C -3.01708 -1.89611 -0.342654 0
M  V30 21 C -4.07139 -1.42697 0.420334 0
M  V30 22 C -5.29268 -2.06775 0.47808 0
M  V30 23 C -5.46941 -3.21447 -0.24921 0
M  V30 24 C -4.4372 -3.69941 -1.01441 0
M  V30 25 C -3.20479 -3.04379 -1.06581 0
M  V30 26 H 4.30607 -1.49464 2.91774 0
M  V30 27 H 4.92506 -2.86007 1.95134 0
M  V30 28 H 5.62981 -1.35913 -0.279576 0
M  V30 29 H 4.56286 -0.51866 -2.30782 0
M  V30 30 H 2.0788 -0.162479 -2.37104 0
M  V30 31 H 1.86169 -1.51129 1.63697 0
M  V30 32 H 0.890285 1.95953 -2.25735 0
M  V30 33 H 1.65152 4.21976 -2.13628 0
M  V30 34 H 1.25759 5.54226 -0.0316602 0
M  V30 35 H -0.634065 2.24238 1.73217 0
M  V30 36 H 0.128102 4.29174 3.07435 0
M  V30 37 H -0.111481 5.76053 2.09926 0
M  V30 38 H -3.96729 -0.5207 1.00971 0
M  V30 39 H -6.12024 -1.6969 1.0801 0
M  V30 40 H -6.39988 -3.75307 -0.23878 0
M  V30 41 H -4.58407 -4.60902 -1.58712 0
M  V30 42 H -2.38384 -3.40171 -1.65537 0
M  V30 END ATOM
M  V30 BEGIN BOND
M  V30 1 1 1 2
M  V30 2 2 2 3
M  V30 3 1 3 4
M  V30 4 2 4 5
M  V30 5 1 5 6
M  V30 6 2 6 7
M  V30 7 1 6 8
M  V30 8 2 8 9
M  V30 9 1 9 10
M  V30 10 1 10 11
M  V30 11 2 11 12
M  V30 12 1 12 13
M  V30 13 2 13 14
M  V30 14 1 14 15
M  V30 15 2 15 16
M  V30 16 1 16 17
M  V30 17 2 17 18
M  V30 18 1 17 19
M  V30 19 1 10 20
M  V30 20 2 20 21
M  V30 21 1 21 22
M  V30 22 2 22 23
M  V30 23 1 23 24
M  V30 24 2 24 25
M  V30 25 1 7 2
M  V30 26 1 12 8
M  V30 27 1 18 13
M  V30 28 1 25 20
M  V30 29 1 1 26
M  V30 30 1 1 27
M  V30 31 1 3 28
M  V30 32 1 4 29
M  V30 33 1 5 30
M  V30 34 1 7 31
M  V30 35 1 14 32
M  V30 36 1 15 33
M  V30 37 1 16 34
M  V30 38 1 18 35
M  V30 39 1 19 36
M  V30 40 1 19 37
M  V30 41 1 21 38
M  V30 42 1 22 39
M  V30 43 1 23 40
M  V30 44 1 24 41
M  V30 45 1 25 42
M  V30 END BOND
M  V30 END CTAB
M  END
