
     RDKit          3D

  0  0  0  0  0  0  0  0  0  0999 V3000
M  V30 BEGIN CTAB
M  V30 COUNTS 24 24 0 0 0
M  V30 BEGIN ATOM
M  V30 1 N -4.11915 0.323993 0.236087 0
M  V30 2 C -3.00506 1.02384 -0.322042 0
M  V30 3 C -1.73263 0.285227 -0.105037 0
M  V30 4 C -0.518462 0.728294 -0.535822 0
M  V30 5 C 0.666931 0.0513979 -0.339846 0
M  V30 6 C 0.597851 -1.14861 0.337519 0
M  V30 7 C -0.633266 -1.63254 0.793582 0
M  V30 8 C -1.7927 -0.915916 0.571585 0
M  V30 9 F -0.668873 -2.81325 1.45514 0
M  V30 10 N 1.92712 0.523209 -0.793532 0
M  V30 11 S 3.35003 0.504903 0.169619 0
M  V30 12 O 4.25805 1.64173 -0.258824 0
M  V30 13 O 3.0224 0.733301 1.62708 0
M  V30 14 N 4.2142 -0.976418 -0.036214 0
M  V30 15 H -5.01309 0.732391 -0.116209 0
M  V30 16 H -4.03934 0.346788 1.27565 0
M  V30 17 H -2.94505 2.07659 0.0219691 0
M  V30 18 H -3.13033 1.09301 -1.44016 0
M  V30 19 H -0.480976 1.67739 -1.06895 0
M  V30 20 H 1.47532 -1.75055 0.53863 0
M  V30 21 H -2.72874 -1.31811 0.937384 0
M  V30 22 H 1.98935 0.90158 -1.76664 0
M  V30 23 H 5.24564 -0.819823 0.0793914 0
M  V30 24 H 4.06079 -1.26842 -1.03625 0
M  V30 END ATOM
M  V30 BEGIN BOND
M  V30 1 1 1 2
M  V30 2 1 2 3
M  V30 3 2 3 4
M  V30 4 1 4 5
M  V30 5 2 5 6
M  V30 6 1 6 7
M  V30 7 2 7 8
M  V30 8 1 7 9
M  V30 9 1 5 10
M  V30 10 1 10 11
M  V30 11 2 11 12
M  V30 12 2 11 13
M  V30 13 1 11 14
M  V30 14 1 8 3
M  V30 15 1 1 15
M  V30 16 1 1 16
M  V30 17 1 2 17
M  V30 18 1 2 18
M  V30 19 1 4 19
M  V30 20 1 6 20
M  V30 21 1 8 21
M  V30 22 1 10 22
M  V30 23 1 14 23
M  V30 24 1 14 24
M  V30 END BOND
M  V30 END CTAB
M  END
