
     RDKit          3D

  0  0  0  0  0  0  0  0  0  0999 V3000
M  V30 BEGIN CTAB
M  V30 COUNTS 33 34 0 0 0
M  V30 BEGIN ATOM
M  V30 1 C 0.825567 -2.00105 -1.05748 0
M  V30 2 N 0.284509 -0.678812 -0.904634 0
M  V30 3 C -1.06438 -0.484867 -0.509334 0
M  V30 4 C -1.90588 -1.56388 -0.254443 0
M  V30 5 C -3.2107 -1.3623 0.127575 0
M  V30 6 C -3.66169 -0.0757132 0.251052 0
M  V30 7 C -2.82812 1.01053 -0.00154934 0
M  V30 8 N -1.56398 0.764621 -0.371308 0
M  V30 9 N -3.36901 2.29929 0.148344 0
M  V30 10 N -4.99257 0.143873 0.640604 0
M  V30 11 C 1.11751 0.464715 -1.15377 0
M  V30 12 C 2.2841 0.475314 -0.248903 0
M  V30 13 C 3.50246 -0.0701785 -0.592224 0
M  V30 14 C 4.56034 -0.04295 0.272309 0
M  V30 15 C 4.46998 0.527975 1.52896 0
M  V30 16 C 3.26101 1.07334 1.87899 0
M  V30 17 C 2.19325 1.05092 1.01819 0
M  V30 18 H 0.885804 -2.53468 -0.0721374 0
M  V30 19 H 1.76558 -2.03742 -1.60578 0
M  V30 20 H 0.0907702 -2.5969 -1.67009 0
M  V30 21 H -1.47879 -2.55518 -0.372716 0
M  V30 22 H -3.84517 -2.22098 0.320047 0
M  V30 23 H -3.34396 3.01812 -0.619892 0
M  V30 24 H -3.82887 2.61536 1.03818 0
M  V30 25 H -5.43591 -0.32381 1.45953 0
M  V30 26 H -5.58326 0.805723 0.0943084 0
M  V30 27 H 1.49297 0.357543 -2.21327 0
M  V30 28 H 0.534362 1.40575 -1.1074 0
M  V30 29 H 3.62847 -0.533774 -1.57522 0
M  V30 30 H 5.50301 -0.483426 -0.0360196 0
M  V30 31 H 5.32727 0.542396 2.21176 0
M  V30 32 H 3.14312 1.52782 2.8446 0
M  V30 33 H 1.2422 1.48262 1.29971 0
M  V30 END ATOM
M  V30 BEGIN BOND
M  V30 1 1 1 2
M  V30 2 1 2 3
M  V30 3 2 3 4
M  V30 4 1 4 5
M  V30 5 2 5 6
M  V30 6 1 6 7
M  V30 7 2 7 8
M  V30 8 1 7 9
M  V30 9 1 6 10
M  V30 10 1 2 11
M  V30 11 1 11 12
M  V30 12 2 12 13
M  V30 13 1 13 14
M  V30 14 2 14 15
M  V30 15 1 15 16
M  V30 16 2 16 17
M  V30 17 1 8 3
M  V30 18 1 17 12
M  V30 19 1 1 18
M  V30 20 1 1 19
M  V30 21 1 1 20
M  V30 22 1 4 21
M  V30 23 1 5 22
M  V30 24 1 9 23
M  V30 25 1 9 24
M  V30 26 1 10 25
M  V30 27 1 10 26
M  V30 28 1 11 27
M  V30 29 1 11 28
M  V30 30 1 13 29
M  V30 31 1 14 30
M  V30 32 1 15 31
M  V30 33 1 16 32
M  V30 34 1 17 33
M  V30 END BOND
M  V30 END CTAB
M  END
