
     RDKit          3D

  0  0  0  0  0  0  0  0  0  0999 V3000
M  V30 BEGIN CTAB
M  V30 COUNTS 29 29 0 0 0
M  V30 BEGIN ATOM
M  V30 1 N 3.39397 -0.337424 -0.590656 0
M  V30 2 C 2.29598 0.52574 -0.21886 0
M  V30 3 C 0.961405 -0.236273 -0.237039 0
M  V30 4 N 0.809276 -0.706972 -1.60707 0
M  V30 5 C 1.09491 -1.36768 0.712937 0
M  V30 6 S -0.470568 -2.30968 0.665813 0
M  V30 7 C -1.71141 -1.21266 -0.0650458 0
M  V30 8 C -1.47068 0.225793 0.254513 0
M  V30 9 C -0.111772 0.732239 0.054076 0
M  V30 10 C -2.49325 1.02839 -0.56287 0
M  V30 11 C -1.90446 0.445086 1.71131 0
M  V30 12 H 4.18005 0.309848 -0.894635 0
M  V30 13 H 3.78059 -0.804879 0.277105 0
M  V30 14 H 2.24448 1.37355 -0.928422 0
M  V30 15 H 2.49837 0.862402 0.828355 0
M  V30 16 H 0.57162 0.163596 -2.16939 0
M  V30 17 H 1.75953 -0.992388 -1.99302 0
M  V30 18 H 1.27767 -1.00816 1.72809 0
M  V30 19 H 1.94364 -2.00609 0.376164 0
M  V30 20 H -2.69037 -1.48701 0.430698 0
M  V30 21 H -1.87671 -1.41643 -1.14444 0
M  V30 22 H -0.127469 1.48474 -0.784809 0
M  V30 23 H 0.208172 1.3441 0.948519 0
M  V30 24 H -2.94579 1.83245 0.0178328 0
M  V30 25 H -1.90373 1.46728 -1.40406 0
M  V30 26 H -3.25922 0.394604 -1.00641 0
M  V30 27 H -1.17724 0.037507 2.4157 0
M  V30 28 H -2.94537 0.0975502 1.87533 0
M  V30 29 H -1.93161 1.56079 1.87591 0
M  V30 END ATOM
M  V30 BEGIN BOND
M  V30 1 1 1 2
M  V30 2 1 2 3
M  V30 3 1 3 4
M  V30 4 1 3 5
M  V30 5 1 5 6
M  V30 6 1 6 7
M  V30 7 1 7 8
M  V30 8 1 8 9
M  V30 9 1 8 10
M  V30 10 1 8 11
M  V30 11 1 9 3
M  V30 12 1 1 12
M  V30 13 1 1 13
M  V30 14 1 2 14
M  V30 15 1 2 15
M  V30 16 1 4 16
M  V30 17 1 4 17
M  V30 18 1 5 18
M  V30 19 1 5 19
M  V30 20 1 7 20
M  V30 21 1 7 21
M  V30 22 1 9 22
M  V30 23 1 9 23
M  V30 24 1 10 24
M  V30 25 1 10 25
M  V30 26 1 10 26
M  V30 27 1 11 27
M  V30 28 1 11 28
M  V30 29 1 11 29
M  V30 END BOND
M  V30 END CTAB
M  END
