
     RDKit          3D

  0  0  0  0  0  0  0  0  0  0999 V3000
M  V30 BEGIN CTAB
M  V30 COUNTS 29 29 0 0 0
M  V30 BEGIN ATOM
M  V30 1 N 2.62133 -1.73084 1.32299 0
M  V30 2 C 2.84965 -0.665025 0.425865 0
M  V30 3 C 4.13213 -0.340777 0.0957773 0
M  V30 4 C 4.38204 0.69563 -0.777904 0
M  V30 5 C 3.34003 1.40466 -1.31844 0
M  V30 6 C 2.01615 1.09268 -0.996592 0
M  V30 7 C 1.77611 0.0589057 -0.125592 0
M  V30 8 S 0.169318 -0.436869 0.363129 0
M  V30 9 C -1.20402 0.462899 -0.323204 0
M  V30 10 C -2.54375 -0.0683031 0.188408 0
M  V30 11 N -2.66221 0.0245695 1.61009 0
M  V30 12 C -3.62385 0.763276 -0.469442 0
M  V30 13 C -2.75044 -1.50268 -0.226271 0
M  V30 14 Cl 0.712309 2.0428 -1.72434 0
M  V30 15 H 2.52167 -1.56305 2.33518 0
M  V30 16 H 2.55372 -2.69215 0.95569 0
M  V30 17 H 4.99602 -0.88583 0.50836 0
M  V30 18 H 5.3942 0.978148 -1.06056 0
M  V30 19 H 3.49049 2.23414 -2.01535 0
M  V30 20 H -1.19935 1.52768 -0.00414405 0
M  V30 21 H -1.25531 0.338153 -1.43014 0
M  V30 22 H -1.96729 0.667511 2.0484 0
M  V30 23 H -3.63461 0.342814 1.84385 0
M  V30 24 H -4.55534 0.777102 0.129726 0
M  V30 25 H -3.21695 1.77758 -0.640507 0
M  V30 26 H -3.8109 0.281573 -1.47055 0
M  V30 27 H -1.89756 -2.12656 0.0899528 0
M  V30 28 H -3.65402 -1.86429 0.31446 0
M  V30 29 H -2.97957 -1.59373 -1.30783 0
M  V30 END ATOM
M  V30 BEGIN BOND
M  V30 1 1 1 2
M  V30 2 2 2 3
M  V30 3 1 3 4
M  V30 4 2 4 5
M  V30 5 1 5 6
M  V30 6 2 6 7
M  V30 7 1 7 8
M  V30 8 1 8 9
M  V30 9 1 9 10
M  V30 10 1 10 11
M  V30 11 1 10 12
M  V30 12 1 10 13
M  V30 13 1 6 14
M  V30 14 1 7 2
M  V30 15 1 1 15
M  V30 16 1 1 16
M  V30 17 1 3 17
M  V30 18 1 4 18
M  V30 19 1 5 19
M  V30 20 1 9 20
M  V30 21 1 9 21
M  V30 22 1 11 22
M  V30 23 1 11 23
M  V30 24 1 12 24
M  V30 25 1 12 25
M  V30 26 1 12 26
M  V30 27 1 13 27
M  V30 28 1 13 28
M  V30 29 1 13 29
M  V30 END BOND
M  V30 END CTAB
M  END
