
     RDKit          3D

  0  0  0  0  0  0  0  0  0  0999 V3000
M  V30 BEGIN CTAB
M  V30 COUNTS 13 13 0 0 0
M  V30 BEGIN ATOM
M  V30 1 N 0.369607 1.7321 -0.0698079 0
M  V30 2 N -0.171478 0.429412 -0.0123286 0
M  V30 3 C -1.48922 0.171833 0.0213992 0
M  V30 4 S -2.69494 1.27249 0.00356816 0
M  V30 5 N -1.61443 -1.16184 0.072316 0
M  V30 6 N -0.396609 -1.71036 0.0698063 0
M  V30 7 C 0.53007 -0.728997 0.0169278 0
M  V30 8 N 1.95518 -0.886409 -0.00364069 0
M  V30 9 H 0.40441 2.26752 -0.961974 0
M  V30 10 H 0.730602 2.13102 0.816835 0
M  V30 11 H -2.51011 -1.69462 0.108278 0
M  V30 12 H 2.47394 -0.157521 -0.548695 0
M  V30 13 H 2.41298 -1.66463 0.487316 0
M  V30 END ATOM
M  V30 BEGIN BOND
M  V30 1 1 1 2
M  V30 2 1 2 3
M  V30 3 2 3 4
M  V30 4 1 3 5
M  V30 5 1 5 6
M  V30 6 2 6 7
M  V30 7 1 7 8
M  V30 8 1 7 2
M  V30 9 1 1 9
M  V30 10 1 1 10
M  V30 11 1 5 11
M  V30 12 1 8 12
M  V30 13 1 8 13
M  V30 END BOND
M  V30 END CTAB
M  END
