
     RDKit          3D

  0  0  0  0  0  0  0  0  0  0999 V3000
M  V30 BEGIN CTAB
M  V30 COUNTS 26 27 0 0 0
M  V30 BEGIN ATOM
M  V30 1 N -3.45927 0.874392 -0.432552 0
M  V30 2 N -2.23306 0.194022 -0.242333 0
M  V30 3 C -2.05692 -1.12914 -0.110929 0
M  V30 4 C -3.1722 -2.10951 -0.148146 0
M  V30 5 N -0.741787 -1.35406 0.0502073 0
M  V30 6 C -0.0508217 -0.187617 0.0257547 0
M  V30 7 C -1.02736 0.768519 -0.160917 0
M  V30 8 N -0.782835 2.15081 -0.251934 0
M  V30 9 C 1.37335 -0.0577246 0.168552 0
M  V30 10 C 2.21761 -0.920725 -0.5345 0
M  V30 11 C 3.59173 -0.841379 -0.435233 0
M  V30 12 C 4.16289 0.118901 0.383105 0
M  V30 13 C 3.31701 0.966095 1.07288 0
M  V30 14 C 1.94406 0.879645 0.96768 0
M  V30 15 H -3.92246 0.698043 -1.35846 0
M  V30 16 H -3.85687 1.49107 0.286284 0
M  V30 17 H -3.39903 -2.4432 0.883525 0
M  V30 18 H -2.81611 -3.01951 -0.713177 0
M  V30 19 H -4.04922 -1.68524 -0.666524 0
M  V30 20 H -0.944851 2.75357 0.576641 0
M  V30 21 H -0.439245 2.61358 -1.12822 0
M  V30 22 H 1.79653 -1.68981 -1.18901 0
M  V30 23 H 4.24478 -1.52465 -0.99222 0
M  V30 24 H 5.24916 0.177785 0.458372 0
M  V30 25 H 3.75547 1.72416 1.71863 0
M  V30 26 H 1.29946 1.55195 1.51568 0
M  V30 END ATOM
M  V30 BEGIN BOND
M  V30 1 1 1 2
M  V30 2 1 2 3
M  V30 3 1 3 4
M  V30 4 2 3 5
M  V30 5 1 5 6
M  V30 6 2 6 7
M  V30 7 1 7 8
M  V30 8 1 6 9
M  V30 9 2 9 10
M  V30 10 1 10 11
M  V30 11 2 11 12
M  V30 12 1 12 13
M  V30 13 2 13 14
M  V30 14 1 7 2
M  V30 15 1 14 9
M  V30 16 1 1 15
M  V30 17 1 1 16
M  V30 18 1 4 17
M  V30 19 1 4 18
M  V30 20 1 4 19
M  V30 21 1 8 20
M  V30 22 1 8 21
M  V30 23 1 10 22
M  V30 24 1 11 23
M  V30 25 1 12 24
M  V30 26 1 13 25
M  V30 27 1 14 26
M  V30 END BOND
M  V30 END CTAB
M  END
