
     RDKit          3D

  0  0  0  0  0  0  0  0  0  0999 V3000
M  V30 BEGIN CTAB
M  V30 COUNTS 55 61 0 0 0
M  V30 BEGIN ATOM
M  V30 1 C -5.51877 1.38923 -0.905216 0
M  V30 2 C -4.50433 0.567388 -0.444729 0
M  V30 3 C -3.65634 -0.134677 -1.26788 0
M  V30 4 O -3.87405 0.0295417 -2.51598 0
M  V30 5 N -2.66228 -0.940475 -0.808586 0
M  V30 6 C -1.87048 -1.59746 -1.80162 0
M  V30 7 C -1.78585 -3.04117 -2.00773 0
M  V30 8 C -2.64015 -2.25811 -2.94618 0
M  V30 9 C -2.48849 -1.06515 0.510461 0
M  V30 10 C -1.44352 -1.89645 1.08482 0
M  V30 11 N -0.181112 -1.19853 1.24086 0
M  V30 12 N 0.737864 -1.17533 0.311795 0
M  V30 13 C 1.79604 -0.446205 0.748828 0
M  V30 14 C 1.4826 -0.0148479 2.0144 0
M  V30 15 C 2.14344 0.740435 2.97867 0
M  V30 16 N 3.45691 1.23387 2.74583 0
M  V30 17 N 1.51847 0.962791 4.15127 0
M  V30 18 C 0.29136 0.479794 4.41067 0
M  V30 19 N -0.383175 -0.254887 3.51354 0
M  V30 20 C 0.206509 -0.49998 2.32959 0
M  V30 21 C 3.02896 -0.206507 0.0222372 0
M  V30 22 C 3.8076 -1.28649 -0.424138 0
M  V30 23 C 4.94036 -1.15441 -1.15945 0
M  V30 24 C 5.37111 0.111496 -1.50041 0
M  V30 25 O 6.39445 0.586768 -2.18222 0
M  V30 26 C 6.35393 1.89793 -2.22256 0
M  V30 27 N 7.34927 2.69077 -2.90246 0
M  V30 28 N 5.27572 2.34256 -1.55204 0
M  V30 29 C 4.65398 1.21674 -1.09541 0
M  V30 30 C 3.50634 1.02904 -0.348242 0
M  V30 31 C -3.32633 -0.371249 1.35083 0
M  V30 32 C -4.34944 0.457715 0.914088 0
M  V30 33 C -5.16763 1.13586 1.79004 0
M  V30 34 C -6.17061 1.94835 1.33012 0
M  V30 35 C -6.33919 2.06917 -0.0310946 0
M  V30 36 H -5.62116 1.45953 -1.9834 0
M  V30 37 H -1.01879 -0.962922 -2.20333 0
M  V30 38 H -2.30529 -3.76912 -1.3766 0
M  V30 39 H -0.822834 -3.44219 -2.41961 0
M  V30 40 H -3.75249 -2.35965 -2.85445 0
M  V30 41 H -2.28525 -2.16209 -3.97132 0
M  V30 42 H -1.25487 -2.82534 0.545864 0
M  V30 43 H -1.7121 -2.23392 2.13621 0
M  V30 44 H 3.56703 2.2521 2.64172 0
M  V30 45 H 4.26498 0.570906 2.68629 0
M  V30 46 H -0.147408 0.703781 5.38247 0
M  V30 47 H 3.45987 -2.26443 -0.151131 0
M  V30 48 H 5.52921 -2.00451 -1.49533 0
M  V30 49 H 8.16539 3.01557 -2.33667 0
M  V30 50 H 7.24872 2.92364 -3.9145 0
M  V30 51 H 2.95926 1.94064 -0.0682375 0
M  V30 52 H -3.23302 -0.433861 2.44567 0
M  V30 53 H -5.03478 1.04059 2.85819 0
M  V30 54 H -6.83551 2.49902 2.00838 0
M  V30 55 H -7.12412 2.70471 -0.417952 0
M  V30 END ATOM
M  V30 BEGIN BOND
M  V30 1 2 1 2
M  V30 2 1 2 3
M  V30 3 2 3 4
M  V30 4 1 3 5
M  V30 5 1 5 6
M  V30 6 1 6 7
M  V30 7 1 7 8
M  V30 8 1 5 9
M  V30 9 1 9 10
M  V30 10 1 10 11
M  V30 11 1 11 12
M  V30 12 2 12 13
M  V30 13 1 13 14
M  V30 14 2 14 15
M  V30 15 1 15 16
M  V30 16 1 15 17
M  V30 17 2 17 18
M  V30 18 1 18 19
M  V30 19 2 19 20
M  V30 20 1 13 21
M  V30 21 2 21 22
M  V30 22 1 22 23
M  V30 23 2 23 24
M  V30 24 1 24 25
M  V30 25 1 25 26
M  V30 26 1 26 27
M  V30 27 2 26 28
M  V30 28 1 28 29
M  V30 29 2 29 30
M  V30 30 2 9 31
M  V30 31 1 31 32
M  V30 32 2 32 33
M  V30 33 1 33 34
M  V30 34 2 34 35
M  V30 35 1 35 1
M  V30 36 1 32 2
M  V30 37 1 8 6
M  V30 38 1 20 11
M  V30 39 1 30 21
M  V30 40 1 20 14
M  V30 41 1 29 24
M  V30 42 1 1 36
M  V30 43 1 6 37
M  V30 44 1 7 38
M  V30 45 1 7 39
M  V30 46 1 8 40
M  V30 47 1 8 41
M  V30 48 1 10 42
M  V30 49 1 10 43
M  V30 50 1 16 44
M  V30 51 1 16 45
M  V30 52 1 18 46
M  V30 53 1 22 47
M  V30 54 1 23 48
M  V30 55 1 27 49
M  V30 56 1 27 50
M  V30 57 1 30 51
M  V30 58 1 31 52
M  V30 59 1 33 53
M  V30 60 1 34 54
M  V30 61 1 35 55
M  V30 END BOND
M  V30 END CTAB
M  END
