
     RDKit          3D

  0  0  0  0  0  0  0  0  0  0999 V3000
M  V30 BEGIN CTAB
M  V30 COUNTS 27 27 0 0 0
M  V30 BEGIN ATOM
M  V30 1 C -3.3627 -0.708323 0.288647 0
M  V30 2 C -1.84139 -0.732812 0.500259 0
M  V30 3 C -1.2676 0.327509 -0.351071 0
M  V30 4 C 0.166012 0.52972 -0.340538 0
M  V30 5 C 1.02208 -0.125626 0.514195 0
M  V30 6 C 2.39117 0.127629 0.465815 0
M  V30 7 C 3.35334 -0.552827 1.36644 0
M  V30 8 C 2.90304 1.03484 -0.435513 0
M  V30 9 N 2.03853 1.66477 -1.26409 0
M  V30 10 C 0.712334 1.42908 -1.22783 0
M  V30 11 N -0.101339 2.16794 -2.1663 0
M  V30 12 F -1.94683 1.51278 -0.03506 0
M  V30 13 N -1.31788 -2.05459 0.246738 0
M  V30 14 H -3.60929 -1.54031 -0.381774 0
M  V30 15 H -3.63417 0.284452 -0.118346 0
M  V30 16 H -3.89285 -0.780076 1.27047 0
M  V30 17 H -1.65145 -0.494464 1.56635 0
M  V30 18 H -1.56735 0.114529 -1.41897 0
M  V30 19 H 0.704781 -0.842677 1.2466 0
M  V30 20 H 2.77693 -1.16749 2.10938 0
M  V30 21 H 4.00389 0.154584 1.90991 0
M  V30 22 H 4.04012 -1.20609 0.755719 0
M  V30 23 H 3.98131 1.23564 -0.474868 0
M  V30 24 H -0.387977 3.14225 -2.01855 0
M  V30 25 H -0.414314 1.68466 -3.04092 0
M  V30 26 H -2.08291 -2.67915 -0.117649 0
M  V30 27 H -1.01547 -2.52594 1.15097 0
M  V30 END ATOM
M  V30 BEGIN BOND
M  V30 1 1 1 2
M  V30 2 1 2 3
M  V30 3 1 3 4
M  V30 4 2 4 5
M  V30 5 1 5 6
M  V30 6 1 6 7
M  V30 7 2 6 8
M  V30 8 1 8 9
M  V30 9 2 9 10
M  V30 10 1 10 11
M  V30 11 1 3 12
M  V30 12 1 2 13
M  V30 13 1 10 4
M  V30 14 1 1 14
M  V30 15 1 1 15
M  V30 16 1 1 16
M  V30 17 1 2 17
M  V30 18 1 3 18
M  V30 19 1 5 19
M  V30 20 1 7 20
M  V30 21 1 7 21
M  V30 22 1 7 22
M  V30 23 1 8 23
M  V30 24 1 11 24
M  V30 25 1 11 25
M  V30 26 1 13 26
M  V30 27 1 13 27
M  V30 END BOND
M  V30 END CTAB
M  END
