
     RDKit          3D

  0  0  0  0  0  0  0  0  0  0999 V3000
M  V30 BEGIN CTAB
M  V30 COUNTS 25 25 0 0 0
M  V30 BEGIN ATOM
M  V30 1 C -2.59434 -1.27691 0.163759 0
M  V30 2 C -2.0398 0.107366 0.0344444 0
M  V30 3 O -1.42607 0.38601 -1.14998 0
M  V30 4 C -0.138919 0.814591 -1.13232 0
M  V30 5 C 0.753427 -0.195607 -0.53512 0
M  V30 6 N 0.548971 -1.47783 -0.238859 0
M  V30 7 N 1.64696 -2.02013 0.295492 0
M  V30 8 C 2.59488 -1.07284 0.351818 0
M  V30 9 N 2.04736 0.0487561 -0.15818 0
M  V30 10 N 2.66946 1.30027 -0.301434 0
M  V30 11 N 3.92743 -1.15492 0.835488 0
M  V30 12 C -3.12086 1.15142 0.369747 0
M  V30 13 H -2.4211 -1.92833 -0.710723 0
M  V30 14 H -3.7064 -1.19334 0.261902 0
M  V30 15 H -2.17995 -1.82757 1.0579 0
M  V30 16 H -1.29006 0.258081 0.845693 0
M  V30 17 H 0.0133064 1.7483 -0.533579 0
M  V30 18 H 0.263591 1.05759 -2.13869 0
M  V30 19 H 2.76079 1.89341 0.564151 0
M  V30 20 H 3.01894 1.60937 -1.23508 0
M  V30 21 H 4.62365 -1.62773 0.219198 0
M  V30 22 H 4.15056 -0.746297 1.77017 0
M  V30 23 H -3.79814 1.26067 -0.478926 0
M  V30 24 H -2.58477 2.08771 0.608034 0
M  V30 25 H -3.71891 0.797937 1.23508 0
M  V30 END ATOM
M  V30 BEGIN BOND
M  V30 1 1 1 2
M  V30 2 1 2 3
M  V30 3 1 3 4
M  V30 4 1 4 5
M  V30 5 2 5 6
M  V30 6 1 6 7
M  V30 7 2 7 8
M  V30 8 1 8 9
M  V30 9 1 9 10
M  V30 10 1 8 11
M  V30 11 1 2 12
M  V30 12 1 9 5
M  V30 13 1 1 13
M  V30 14 1 1 14
M  V30 15 1 1 15
M  V30 16 1 2 16
M  V30 17 1 4 17
M  V30 18 1 4 18
M  V30 19 1 10 19
M  V30 20 1 10 20
M  V30 21 1 11 21
M  V30 22 1 11 22
M  V30 23 1 12 23
M  V30 24 1 12 24
M  V30 25 1 12 25
M  V30 END BOND
M  V30 END CTAB
M  END
