
     RDKit          3D

  0  0  0  0  0  0  0  0  0  0999 V3000
M  V30 BEGIN CTAB
M  V30 COUNTS 48 50 0 0 0
M  V30 BEGIN ATOM
M  V30 1 N -5.506 1.93757 1.62856 0
M  V30 2 C -4.78635 1.99452 0.386449 0
M  V30 3 C -3.28685 1.82689 0.679487 0
M  V30 4 C -3.53308 0.375622 0.74871 0
M  V30 5 C -4.70984 0.614004 -0.235941 0
M  V30 6 C -2.54643 -0.564073 0.189696 0
M  V30 7 C -1.34377 -0.244958 -0.325377 0
M  V30 8 C -0.53572 -1.24101 -0.846351 0
M  V30 9 N -0.916713 -2.53426 -0.85724 0
M  V30 10 C -2.12703 -2.83857 -0.334592 0
M  V30 11 N -2.9232 -1.87172 0.177234 0
M  V30 12 N -2.5049 -4.20085 -0.336375 0
M  V30 13 N 0.753769 -0.931578 -1.35625 0
M  V30 14 C 1.8804 -1.28464 -0.576253 0
M  V30 15 C 2.5656 -0.200642 0.190664 0
M  V30 16 C 3.06887 0.895454 -0.690965 0
M  V30 17 C 3.88413 1.88889 0.134879 0
M  V30 18 C 5.0634 1.22008 0.778092 0
M  V30 19 C 4.63589 0.0492153 1.60936 0
M  V30 20 C 3.76924 -0.897827 0.856924 0
M  V30 21 C 0.852859 -0.229794 -2.59854 0
M  V30 22 H -6.5182 1.98186 1.54807 0
M  V30 23 H -5.09714 2.53207 2.36834 0
M  V30 24 H -5.04929 2.80829 -0.302386 0
M  V30 25 H -3.01355 2.31829 1.6443 0
M  V30 26 H -2.75156 2.21577 -0.215364 0
M  V30 27 H -4.00442 0.066523 1.70327 0
M  V30 28 H -5.56238 -0.0572025 -0.0334274 0
M  V30 29 H -4.32892 0.635167 -1.25698 0
M  V30 30 H -0.994541 0.769453 -0.336282 0
M  V30 31 H -2.7513 -4.64932 0.553943 0
M  V30 32 H -2.53266 -4.72277 -1.22465 0
M  V30 33 H 1.61562 -2.10015 0.170909 0
M  V30 34 H 2.70247 -1.77003 -1.19246 0
M  V30 35 H 1.96371 0.193708 1.0402 0
M  V30 36 H 2.1924 1.45748 -1.07311 0
M  V30 37 H 3.68871 0.461367 -1.48296 0
M  V30 38 H 4.16698 2.70867 -0.515953 0
M  V30 39 H 3.20738 2.18698 0.986317 0
M  V30 40 H 5.58791 1.95082 1.41086 0
M  V30 41 H 5.7904 0.814837 0.0252787 0
M  V30 42 H 5.55681 -0.509734 1.886 0
M  V30 43 H 4.16156 0.341043 2.56345 0
M  V30 44 H 4.33074 -1.346 0.0131487 0
M  V30 45 H 3.40846 -1.698 1.49299 0
M  V30 46 H 0.546349 -1.00495 -3.38945 0
M  V30 47 H 0.0811266 0.584005 -2.69039 0
M  V30 48 H 1.84902 0.0694806 -2.91584 0
M  V30 END ATOM
M  V30 BEGIN BOND
M  V30 1 1 1 2
M  V30 2 1 2 3
M  V30 3 1 3 4
M  V30 4 1 4 5
M  V30 5 1 4 6
M  V30 6 2 6 7
M  V30 7 1 7 8
M  V30 8 2 8 9
M  V30 9 1 9 10
M  V30 10 2 10 11
M  V30 11 1 10 12
M  V30 12 1 8 13
M  V30 13 1 13 14
M  V30 14 1 14 15
M  V30 15 1 15 16
M  V30 16 1 16 17
M  V30 17 1 17 18
M  V30 18 1 18 19
M  V30 19 1 19 20
M  V30 20 1 13 21
M  V30 21 1 5 2
M  V30 22 1 11 6
M  V30 23 1 20 15
M  V30 24 1 1 22
M  V30 25 1 1 23
M  V30 26 1 2 24
M  V30 27 1 3 25
M  V30 28 1 3 26
M  V30 29 1 4 27
M  V30 30 1 5 28
M  V30 31 1 5 29
M  V30 32 1 7 30
M  V30 33 1 12 31
M  V30 34 1 12 32
M  V30 35 1 14 33
M  V30 36 1 14 34
M  V30 37 1 15 35
M  V30 38 1 16 36
M  V30 39 1 16 37
M  V30 40 1 17 38
M  V30 41 1 17 39
M  V30 42 1 18 40
M  V30 43 1 18 41
M  V30 44 1 19 42
M  V30 45 1 19 43
M  V30 46 1 20 44
M  V30 47 1 20 45
M  V30 48 1 21 46
M  V30 49 1 21 47
M  V30 50 1 21 48
M  V30 END BOND
M  V30 END CTAB
M  END
