
     RDKit          3D

  0  0  0  0  0  0  0  0  0  0999 V3000
M  V30 BEGIN CTAB
M  V30 COUNTS 33 34 0 0 0
M  V30 BEGIN ATOM
M  V30 1 N -4.60186 -0.802017 -1.55851 0
M  V30 2 C -3.4516 -0.896859 -0.769561 0
M  V30 3 C -2.48242 -1.84961 -0.987792 0
M  V30 4 C -1.34243 -1.91639 -0.17835 0
M  V30 5 C -1.17065 -1.03752 0.842896 0
M  V30 6 O -0.0450394 -1.06157 1.6845 0
M  V30 7 C 1.03561 -0.295208 1.2827 0
M  V30 8 C 1.9794 -0.872368 0.483117 0
M  V30 9 C 3.08949 -0.195481 0.0306447 0
M  V30 10 C 4.07561 -0.837248 -0.818749 0
M  V30 11 O 5.19442 -0.191588 -1.28795 0
M  V30 12 O 3.9043 -2.03949 -1.14405 0
M  V30 13 C 3.24115 1.12709 0.411596 0
M  V30 14 N 4.39289 1.80377 -0.0670556 0
M  V30 15 C 2.30583 1.72563 1.21356 0
M  V30 16 C 1.21223 1.02481 1.64709 0
M  V30 17 C -2.13037 -0.0759192 1.07736 0
M  V30 18 C -3.2654 -0.0112299 0.269621 0
M  V30 19 C -4.2771 0.992456 0.506672 0
M  V30 20 O -4.09144 1.88379 1.55122 0
M  V30 21 O -5.31974 1.1093 -0.177248 0
M  V30 22 H -4.70772 -0.251605 -2.42535 0
M  V30 23 H -5.45294 -1.34356 -1.24534 0
M  V30 24 H -2.5897 -2.56495 -1.79397 0
M  V30 25 H -0.581139 -2.66976 -0.354815 0
M  V30 26 H 1.85913 -1.91204 0.184317 0
M  V30 27 H 6.04991 -0.217076 -0.728041 0
M  V30 28 H 5.18386 1.94777 0.570032 0
M  V30 29 H 4.40213 2.13356 -1.04765 0
M  V30 30 H 2.40747 2.74241 1.51582 0
M  V30 31 H 0.452393 1.45681 2.27906 0
M  V30 32 H -1.98776 0.627044 1.89821 0
M  V30 33 H -3.28851 2.46705 1.66436 0
M  V30 END ATOM
M  V30 BEGIN BOND
M  V30 1 1 1 2
M  V30 2 2 2 3
M  V30 3 1 3 4
M  V30 4 2 4 5
M  V30 5 1 5 6
M  V30 6 1 6 7
M  V30 7 2 7 8
M  V30 8 1 8 9
M  V30 9 1 9 10
M  V30 10 1 10 11
M  V30 11 2 10 12
M  V30 12 2 9 13
M  V30 13 1 13 14
M  V30 14 1 13 15
M  V30 15 2 15 16
M  V30 16 1 5 17
M  V30 17 2 17 18
M  V30 18 1 18 19
M  V30 19 1 19 20
M  V30 20 2 19 21
M  V30 21 1 18 2
M  V30 22 1 16 7
M  V30 23 1 1 22
M  V30 24 1 1 23
M  V30 25 1 3 24
M  V30 26 1 4 25
M  V30 27 1 8 26
M  V30 28 1 11 27
M  V30 29 1 14 28
M  V30 30 1 14 29
M  V30 31 1 15 30
M  V30 32 1 16 31
M  V30 33 1 17 32
M  V30 34 1 20 33
M  V30 END BOND
M  V30 END CTAB
M  END
