
     RDKit          3D

  0  0  0  0  0  0  0  0  0  0999 V3000
M  V30 BEGIN CTAB
M  V30 COUNTS 32 34 0 0 0
M  V30 BEGIN ATOM
M  V30 1 N -6.12342 0.433508 -0.140358 0
M  V30 2 C -4.71314 0.387086 -0.0667292 0
M  V30 3 C -3.98538 -0.665812 -0.571995 0
M  V30 4 C -2.60925 -0.692762 -0.490453 0
M  V30 5 C -1.93491 0.371369 0.118322 0
M  V30 6 C -2.65484 1.4294 0.626842 0
M  V30 7 C -4.02732 1.42318 0.528042 0
M  V30 8 C -0.484085 0.331989 0.198508 0
M  V30 9 N 0.269343 1.30477 0.764589 0
M  V30 10 C 1.54463 0.89622 0.637638 0
M  V30 11 C 1.60729 -0.323636 -0.00209936 0
M  V30 12 N 0.31301 -0.648156 -0.26354 0
M  V30 13 C 2.81722 -0.936453 -0.241458 0
M  V30 14 C 2.83826 -2.25583 -0.936662 0
M  V30 15 C 4.02132 -0.379264 0.136557 0
M  V30 16 C 3.95905 0.855352 0.784118 0
M  V30 17 C 2.74528 1.45712 1.01737 0
M  V30 18 N 5.26743 -1.01599 -0.112899 0
M  V30 19 H -6.67766 0.0209196 0.63331 0
M  V30 20 H -6.63349 0.862931 -0.935678 0
M  V30 21 H -4.51557 -1.49709 -1.0478 0
M  V30 22 H -2.01996 -1.51948 -0.885944 0
M  V30 23 H -2.11262 2.25652 1.10127 0
M  V30 24 H -4.56415 2.25646 0.930636 0
M  V30 25 H -0.0647695 2.20068 1.21439 0
M  V30 26 H 2.77609 -2.05993 -2.0112 0
M  V30 27 H 3.80194 -2.76778 -0.733397 0
M  V30 28 H 2.04617 -2.93167 -0.560142 0
M  V30 29 H 4.90956 1.28553 1.07741 0
M  V30 30 H 2.72506 2.42631 1.52771 0
M  V30 31 H 5.89194 -1.1918 0.698415 0
M  V30 32 H 5.58696 -1.31367 -1.05512 0
M  V30 END ATOM
M  V30 BEGIN BOND
M  V30 1 1 1 2
M  V30 2 2 2 3
M  V30 3 1 3 4
M  V30 4 2 4 5
M  V30 5 1 5 6
M  V30 6 2 6 7
M  V30 7 1 5 8
M  V30 8 1 8 9
M  V30 9 1 9 10
M  V30 10 2 10 11
M  V30 11 1 11 12
M  V30 12 1 11 13
M  V30 13 1 13 14
M  V30 14 2 13 15
M  V30 15 1 15 16
M  V30 16 2 16 17
M  V30 17 1 15 18
M  V30 18 1 7 2
M  V30 19 2 12 8
M  V30 20 1 17 10
M  V30 21 1 1 19
M  V30 22 1 1 20
M  V30 23 1 3 21
M  V30 24 1 4 22
M  V30 25 1 6 23
M  V30 26 1 7 24
M  V30 27 1 9 25
M  V30 28 1 14 26
M  V30 29 1 14 27
M  V30 30 1 14 28
M  V30 31 1 16 29
M  V30 32 1 17 30
M  V30 33 1 18 31
M  V30 34 1 18 32
M  V30 END BOND
M  V30 END CTAB
M  END
