
     RDKit          3D

  0  0  0  0  0  0  0  0  0  0999 V3000
M  V30 BEGIN CTAB
M  V30 COUNTS 30 31 0 0 0
M  V30 BEGIN ATOM
M  V30 1 N 5.42386 -0.0294276 0.383458 0
M  V30 2 C 4.69734 -0.692294 -0.667025 0
M  V30 3 C 3.24109 -0.353806 -0.638806 0
M  V30 4 C 2.33034 -1.08835 0.078794 0
M  V30 5 C 0.983426 -0.697191 0.0471354 0
M  V30 6 C 0.586294 0.389176 -0.681857 0
M  V30 7 N 1.51189 1.11694 -1.39656 0
M  V30 8 C 2.78606 0.720691 -1.34658 0
M  V30 9 N -0.746375 0.798405 -0.772386 0
M  V30 10 C -1.90746 0.15231 -0.271242 0
M  V30 11 C -2.12695 -1.20741 -0.303171 0
M  V30 12 C -3.25325 -1.81882 0.214488 0
M  V30 13 C -4.22832 -1.04281 0.801236 0
M  V30 14 C -4.02333 0.328057 0.840732 0
M  V30 15 C -2.91144 0.930003 0.330028 0
M  V30 16 N -5.01974 1.17527 1.44547 0
M  V30 17 H 5.25183 0.979864 0.360058 0
M  V30 18 H 5.31035 -0.476841 1.31712 0
M  V30 19 H 5.1609 -0.395137 -1.6345 0
M  V30 20 H 4.83601 -1.79849 -0.501041 0
M  V30 21 H 2.62621 -1.93495 0.648423 0
M  V30 22 H 0.300752 -1.27486 0.635774 0
M  V30 23 H 3.53118 1.30245 -1.91893 0
M  V30 24 H -0.947704 1.72615 -1.28471 0
M  V30 25 H -1.39345 -1.85435 -0.776902 0
M  V30 26 H -3.40426 -2.88841 0.179036 0
M  V30 27 H -5.12285 -1.47483 1.21808 0
M  V30 28 H -2.78444 1.99792 0.377658 0
M  V30 29 H -5.15345 2.12915 1.07525 0
M  V30 30 H -5.55453 0.753391 2.24097 0
M  V30 END ATOM
M  V30 BEGIN BOND
M  V30 1 1 1 2
M  V30 2 1 2 3
M  V30 3 2 3 4
M  V30 4 1 4 5
M  V30 5 2 5 6
M  V30 6 1 6 7
M  V30 7 2 7 8
M  V30 8 1 6 9
M  V30 9 1 9 10
M  V30 10 2 10 11
M  V30 11 1 11 12
M  V30 12 2 12 13
M  V30 13 1 13 14
M  V30 14 2 14 15
M  V30 15 1 14 16
M  V30 16 1 8 3
M  V30 17 1 15 10
M  V30 18 1 1 17
M  V30 19 1 1 18
M  V30 20 1 2 19
M  V30 21 1 2 20
M  V30 22 1 4 21
M  V30 23 1 5 22
M  V30 24 1 8 23
M  V30 25 1 9 24
M  V30 26 1 11 25
M  V30 27 1 12 26
M  V30 28 1 13 27
M  V30 29 1 15 28
M  V30 30 1 16 29
M  V30 31 1 16 30
M  V30 END BOND
M  V30 END CTAB
M  END
