
     RDKit          3D

  0  0  0  0  0  0  0  0  0  0999 V3000
M  V30 BEGIN CTAB
M  V30 COUNTS 22 22 0 0 0
M  V30 BEGIN ATOM
M  V30 1 F 3.26148 -1.22409 0.831468 0
M  V30 2 C 2.37433 -1.49329 -0.192224 0
M  V30 3 C 1.14933 -0.654947 -0.0965444 0
M  V30 4 C -0.10381 -1.21494 0.0615143 0
M  V30 5 C -1.2274 -0.42249 0.148265 0
M  V30 6 C -1.14408 0.954445 0.0808727 0
M  V30 7 C 0.100488 1.52723 -0.0768096 0
M  V30 8 C 1.23043 0.719363 -0.163586 0
M  V30 9 N 2.52654 1.28853 -0.326631 0
M  V30 10 N -2.30765 1.76059 0.171327 0
M  V30 11 C -2.56016 -1.05904 0.318095 0
M  V30 12 F -2.43454 -2.4318 0.362953 0
M  V30 13 F -3.09631 -0.653577 1.52172 0
M  V30 14 F -3.43299 -0.667754 -0.682823 0
M  V30 15 F 3.01702 -1.27615 -1.4031 0
M  V30 16 H 2.12866 -2.57258 -0.120083 0
M  V30 17 H -0.171446 -2.30713 0.115136 0
M  V30 18 H 0.226119 2.61914 -0.136641 0
M  V30 19 H 3.02004 1.75361 0.439664 0
M  V30 20 H 2.95844 1.21039 -1.27424 0
M  V30 21 H -2.80179 2.07054 -0.675433 0
M  V30 22 H -2.71269 2.07395 1.09711 0
M  V30 END ATOM
M  V30 BEGIN BOND
M  V30 1 1 1 2
M  V30 2 1 2 3
M  V30 3 2 3 4
M  V30 4 1 4 5
M  V30 5 2 5 6
M  V30 6 1 6 7
M  V30 7 2 7 8
M  V30 8 1 8 9
M  V30 9 1 6 10
M  V30 10 1 5 11
M  V30 11 1 11 12
M  V30 12 1 11 13
M  V30 13 1 11 14
M  V30 14 1 2 15
M  V30 15 1 8 3
M  V30 16 1 2 16
M  V30 17 1 4 17
M  V30 18 1 7 18
M  V30 19 1 9 19
M  V30 20 1 9 20
M  V30 21 1 10 21
M  V30 22 1 10 22
M  V30 END BOND
M  V30 END CTAB
M  END
