
     RDKit          3D

  0  0  0  0  0  0  0  0  0  0999 V3000
M  V30 BEGIN CTAB
M  V30 COUNTS 41 44 0 0 0
M  V30 BEGIN ATOM
M  V30 1 N 4.28073 -1.97368 -0.630829 0
M  V30 2 C 4.16137 -0.65831 -0.112397 0
M  V30 3 N 2.99713 -0.162265 0.323757 0
M  V30 4 C 2.88706 1.07706 0.811705 0
M  V30 5 C 1.6914 1.74005 1.31667 0
M  V30 6 O 0.481232 1.10266 1.25137 0
M  V30 7 C -0.123027 0.683703 0.112812 0
M  V30 8 O 0.503409 0.884973 -0.982247 0
M  V30 9 C -1.39757 0.0416198 -0.00150131 0
M  V30 10 C -2.53781 0.836341 -0.168135 0
M  V30 11 C -2.35907 2.20139 -0.212449 0
M  V30 12 C -3.47623 3.02802 -0.37799 0
M  V30 13 C -4.74209 2.47149 -0.49496 0
M  V30 14 C -4.92076 1.11129 -0.450866 0
M  V30 15 C -3.80226 0.320974 -0.28689 0
M  V30 16 C -3.91548 -1.0509 -0.234815 0
M  V30 17 C -2.82217 -1.8779 -0.0718759 0
M  V30 18 C -1.54238 -1.31584 0.0464348 0
M  V30 19 C -0.465424 -2.15856 0.209454 0
M  V30 20 C -0.591514 -3.55179 0.262114 0
M  V30 21 C -1.85762 -4.08547 0.143843 0
M  V30 22 C -2.94069 -3.24608 -0.0195878 0
M  V30 23 N 4.02831 1.84942 0.855671 0
M  V30 24 C 5.20595 1.38631 0.428969 0
M  V30 25 N 5.25259 0.134226 -0.0501209 0
M  V30 26 N 6.39969 2.1667 0.46465 0
M  V30 27 H 5.17518 -2.31945 -0.991866 0
M  V30 28 H 3.4554 -2.6106 -0.651883 0
M  V30 29 H 1.65461 2.74614 0.774154 0
M  V30 30 H 1.9454 2.08508 2.37482 0
M  V30 31 H -1.38577 2.63762 -0.122905 0
M  V30 32 H -3.40434 4.09739 -0.420413 0
M  V30 33 H -5.62999 3.08119 -0.624295 0
M  V30 34 H -5.8858 0.62219 -0.536972 0
M  V30 35 H -4.88532 -1.52746 -0.322101 0
M  V30 36 H 0.49577 -1.71187 0.298661 0
M  V30 37 H 0.30232 -4.16812 0.393362 0
M  V30 38 H -1.99588 -5.17326 0.180386 0
M  V30 39 H -3.95399 -3.64644 -0.115505 0
M  V30 40 H 6.83834 2.41839 1.38276 0
M  V30 41 H 6.87928 2.51379 -0.387494 0
M  V30 END ATOM
M  V30 BEGIN BOND
M  V30 1 1 1 2
M  V30 2 2 2 3
M  V30 3 1 3 4
M  V30 4 1 4 5
M  V30 5 1 5 6
M  V30 6 1 6 7
M  V30 7 2 7 8
M  V30 8 1 7 9
M  V30 9 1 9 10
M  V30 10 2 10 11
M  V30 11 1 11 12
M  V30 12 2 12 13
M  V30 13 1 13 14
M  V30 14 2 14 15
M  V30 15 1 15 16
M  V30 16 2 16 17
M  V30 17 1 17 18
M  V30 18 1 18 19
M  V30 19 2 19 20
M  V30 20 1 20 21
M  V30 21 2 21 22
M  V30 22 2 4 23
M  V30 23 1 23 24
M  V30 24 2 24 25
M  V30 25 1 24 26
M  V30 26 1 25 2
M  V30 27 2 18 9
M  V30 28 1 15 10
M  V30 29 1 22 17
M  V30 30 1 1 27
M  V30 31 1 1 28
M  V30 32 1 5 29
M  V30 33 1 5 30
M  V30 34 1 11 31
M  V30 35 1 12 32
M  V30 36 1 13 33
M  V30 37 1 14 34
M  V30 38 1 16 35
M  V30 39 1 19 36
M  V30 40 1 20 37
M  V30 41 1 21 38
M  V30 42 1 22 39
M  V30 43 1 26 40
M  V30 44 1 26 41
M  V30 END BOND
M  V30 END CTAB
M  END
