
     RDKit          3D

  0  0  0  0  0  0  0  0  0  0999 V3000
M  V30 BEGIN CTAB
M  V30 COUNTS 24 25 0 0 0
M  V30 BEGIN ATOM
M  V30 1 N 0.991973 1.60567 -0.561707 0
M  V30 2 C 0.519965 0.362011 0.00632555 0
M  V30 3 C 1.64921 -0.42314 0.566407 0
M  V30 4 N 2.66314 -0.787158 -0.362174 0
M  V30 5 C -0.269845 -0.345188 -1.0623 0
M  V30 6 C -1.71375 -0.166387 -0.645895 0 CFG=2
M  V30 7 C -1.64196 1.15649 0.116856 0
M  V30 8 C -0.509655 0.654688 1.03927 0 CFG=1
M  V30 9 C -1.1787 -0.613103 1.49691 0
M  V30 10 C -1.89906 -1.10368 0.491753 0
M  V30 11 H 1.29214 2.22225 0.174308 0
M  V30 12 H 1.64377 1.44537 -1.30024 0
M  V30 13 H 2.11517 0.179963 1.37286 0
M  V30 14 H 1.25528 -1.34685 1.06674 0
M  V30 15 H 3.21322 -1.58922 0.0610514 0
M  V30 16 H 2.20861 -1.215 -1.21402 0
M  V30 17 H -0.105454 0.0455846 -2.06941 0
M  V30 18 H -0.0825908 -1.44987 -1.06268 0
M  V30 19 H -2.43715 -0.204257 -1.41874 0
M  V30 20 H -1.28411 1.97969 -0.505679 0
M  V30 21 H -2.54158 1.36053 0.691041 0
M  V30 22 H -0.260674 1.33356 1.81614 0
M  V30 23 H -1.1212 -1.0941 2.46815 0
M  V30 24 H -2.50674 -2.00787 0.487873 0
M  V30 END ATOM
M  V30 BEGIN BOND
M  V30 1 1 1 2
M  V30 2 1 2 3
M  V30 3 1 3 4
M  V30 4 1 2 5
M  V30 5 1 5 6
M  V30 6 1 6 7
M  V30 7 1 7 8
M  V30 8 1 8 9
M  V30 9 2 9 10
M  V30 10 1 8 2
M  V30 11 1 10 6
M  V30 12 1 1 11
M  V30 13 1 1 12
M  V30 14 1 3 13
M  V30 15 1 3 14
M  V30 16 1 4 15
M  V30 17 1 4 16
M  V30 18 1 5 17
M  V30 19 1 5 18
M  V30 20 1 6 19 CFG=3
M  V30 21 1 7 20
M  V30 22 1 7 21
M  V30 23 1 8 22 CFG=1
M  V30 24 1 9 23
M  V30 25 1 10 24
M  V30 END BOND
M  V30 END CTAB
M  END
