
     RDKit          3D

  0  0  0  0  0  0  0  0  0  0999 V3000
M  V30 BEGIN CTAB
M  V30 COUNTS 23 23 0 0 0
M  V30 BEGIN ATOM
M  V30 1 C 2.51253 1.45747 0.54642 0
M  V30 2 C 1.31365 0.61711 0.300275 0
M  V30 3 C 1.51077 -0.716413 0.00776669 0
M  V30 4 N 2.83492 -1.2805 -0.0579802 0
M  V30 5 C 0.39191 -1.48967 -0.219471 0
M  V30 6 C -0.89595 -0.999318 -0.168706 0
M  V30 7 N -2.01658 -1.8422 -0.411793 0
M  V30 8 C -1.08739 0.340772 0.12555 0
M  V30 9 C 0.0280212 1.13188 0.356665 0
M  V30 10 S -2.71104 0.944805 0.186386 0
M  V30 11 O -3.45423 0.722635 -1.30741 0
M  V30 12 O -2.73444 2.38483 0.612512 0
M  V30 13 O -3.51952 0.12563 1.18169 0
M  V30 14 H 2.26863 2.52159 0.617844 0
M  V30 15 H 3.22123 1.35123 -0.313508 0
M  V30 16 H 2.9917 1.08463 1.47608 0
M  V30 17 H 3.57858 -0.863908 -0.630867 0
M  V30 18 H 3.07914 -2.14652 0.486776 0
M  V30 19 H 0.575872 -2.54202 -0.448974 0
M  V30 20 H -2.47347 -2.25555 0.430608 0
M  V30 21 H -2.30929 -1.99447 -1.39269 0
M  V30 22 H -0.113327 2.17207 0.585415 0
M  V30 23 H -2.99171 1.27593 -1.96258 0
M  V30 END ATOM
M  V30 BEGIN BOND
M  V30 1 1 1 2
M  V30 2 2 2 3
M  V30 3 1 3 4
M  V30 4 1 3 5
M  V30 5 2 5 6
M  V30 6 1 6 7
M  V30 7 1 6 8
M  V30 8 2 8 9
M  V30 9 1 8 10
M  V30 10 1 10 11
M  V30 11 2 10 12
M  V30 12 2 10 13
M  V30 13 1 9 2
M  V30 14 1 1 14
M  V30 15 1 1 15
M  V30 16 1 1 16
M  V30 17 1 4 17
M  V30 18 1 4 18
M  V30 19 1 5 19
M  V30 20 1 7 20
M  V30 21 1 7 21
M  V30 22 1 9 22
M  V30 23 1 11 23
M  V30 END BOND
M  V30 END CTAB
M  END
