
     RDKit          3D

  0  0  0  0  0  0  0  0  0  0999 V3000
M  V30 BEGIN CTAB
M  V30 COUNTS 38 39 0 0 0
M  V30 BEGIN ATOM
M  V30 1 O -1.45163 -2.64947 0.270928 0
M  V30 2 C -1.33518 -1.42528 0.0138056 0
M  V30 3 C -2.50568 -0.542795 -0.230733 0
M  V30 4 C -3.75008 -1.40407 -0.111887 0
M  V30 5 C -4.93429 -0.493249 -0.365047 0
M  V30 6 C -5.40765 -0.326683 -1.64279 0
M  V30 7 S -6.70687 0.761626 -1.38333 0
M  V30 8 C -6.56352 0.92969 0.307184 0
M  V30 9 N -5.53412 0.148319 0.584434 0
M  V30 10 N -7.32512 1.7015 1.26057 0
M  V30 11 N -0.0421177 -0.818484 -0.0555925 0
M  V30 12 C 1.12414 -1.63382 0.173476 0
M  V30 13 C 2.32839 -0.776537 0.0560206 0
M  V30 14 C 2.36717 0.520452 0.52908 0
M  V30 15 C 3.488 1.32825 0.419474 0
M  V30 16 C 4.63016 0.846238 -0.182531 0
M  V30 17 C 4.58738 -0.447365 -0.652692 0
M  V30 18 C 3.48072 -1.25788 -0.549363 0
M  V30 19 S 6.08036 1.80566 -0.356994 0
M  V30 20 O 5.67756 3.24088 -0.440652 0
M  V30 21 O 6.79952 1.46137 -1.64612 0
M  V30 22 N 7.14137 1.62471 0.99126 0
M  V30 23 H -2.55326 0.29704 0.493827 0
M  V30 24 H -2.43339 -0.157232 -1.26003 0
M  V30 25 H -3.78477 -1.78137 0.918659 0
M  V30 26 H -3.72495 -2.21154 -0.842007 0
M  V30 27 H -5.02554 -0.789489 -2.57062 0
M  V30 28 H -8.36017 1.59564 1.29181 0
M  V30 29 H -6.87513 2.36558 1.92379 0
M  V30 30 H 0.0854186 0.189354 -0.266412 0
M  V30 31 H 1.07094 -2.12845 1.17811 0
M  V30 32 H 1.20384 -2.4548 -0.585454 0
M  V30 33 H 1.48092 0.925442 1.00974 0
M  V30 34 H 3.49872 2.33289 0.792947 0
M  V30 35 H 5.50912 -0.815855 -1.13068 0
M  V30 36 H 3.47097 -2.25789 -0.921424 0
M  V30 37 H 7.74995 0.791251 0.923437 0
M  V30 38 H 6.53884 1.50639 1.83715 0
M  V30 END ATOM
M  V30 BEGIN BOND
M  V30 1 2 1 2
M  V30 2 1 2 3
M  V30 3 1 3 4
M  V30 4 1 4 5
M  V30 5 2 5 6
M  V30 6 1 6 7
M  V30 7 1 7 8
M  V30 8 2 8 9
M  V30 9 1 8 10
M  V30 10 1 2 11
M  V30 11 1 11 12
M  V30 12 1 12 13
M  V30 13 2 13 14
M  V30 14 1 14 15
M  V30 15 2 15 16
M  V30 16 1 16 17
M  V30 17 2 17 18
M  V30 18 1 16 19
M  V30 19 2 19 20
M  V30 20 2 19 21
M  V30 21 1 19 22
M  V30 22 1 9 5
M  V30 23 1 18 13
M  V30 24 1 3 23
M  V30 25 1 3 24
M  V30 26 1 4 25
M  V30 27 1 4 26
M  V30 28 1 6 27
M  V30 29 1 10 28
M  V30 30 1 10 29
M  V30 31 1 11 30
M  V30 32 1 12 31
M  V30 33 1 12 32
M  V30 34 1 14 33
M  V30 35 1 15 34
M  V30 36 1 17 35
M  V30 37 1 18 36
M  V30 38 1 22 37
M  V30 39 1 22 38
M  V30 END BOND
M  V30 END CTAB
M  END
