
     RDKit          3D

  0  0  0  0  0  0  0  0  0  0999 V3000
M  V30 BEGIN CTAB
M  V30 COUNTS 15 15 0 0 0
M  V30 BEGIN ATOM
M  V30 1 N -2.31968 -1.06237 0.182412 0
M  V30 2 C -1.03465 -0.428647 0.0663015 0
M  V30 3 N 0.0566181 -1.08166 0.26248 0
M  V30 4 C 1.30031 -0.415229 0.136964 0
M  V30 5 N 1.36222 0.830045 -0.16924 0
M  V30 6 C 0.21826 1.63544 -0.404789 0
M  V30 7 N -1.03132 0.929874 -0.269769 0
M  V30 8 N 2.50582 -1.17136 0.362281 0
M  V30 9 H -2.75288 -1.44228 -0.676806 0
M  V30 10 H -2.74045 -1.10187 1.12795 0
M  V30 11 H 0.256932 2.49811 0.324381 0
M  V30 12 H 0.296378 2.13951 -1.41037 0
M  V30 13 H -1.92572 1.48644 -0.4358 0
M  V30 14 H 3.06351 -0.890017 1.20002 0
M  V30 15 H 2.74464 -1.92599 -0.296018 0
M  V30 END ATOM
M  V30 BEGIN BOND
M  V30 1 1 1 2
M  V30 2 2 2 3
M  V30 3 1 3 4
M  V30 4 2 4 5
M  V30 5 1 5 6
M  V30 6 1 6 7
M  V30 7 1 4 8
M  V30 8 1 7 2
M  V30 9 1 1 9
M  V30 10 1 1 10
M  V30 11 1 6 11
M  V30 12 1 6 12
M  V30 13 1 7 13
M  V30 14 1 8 14
M  V30 15 1 8 15
M  V30 END BOND
M  V30 END CTAB
M  END
