
     RDKit          3D

  0  0  0  0  0  0  0  0  0  0999 V3000
M  V30 BEGIN CTAB
M  V30 COUNTS 45 47 0 0 0
M  V30 BEGIN ATOM
M  V30 1 N 4.62521 -0.721005 -2.11474 0
M  V30 2 C 4.6671 0.6055 -1.52042 0
M  V30 3 C 5.49436 0.63227 -0.286291 0
M  V30 4 C 4.79269 1.05804 0.958465 0
M  V30 5 C 3.38609 0.669828 1.04092 0
M  V30 6 C 2.62756 0.670716 -0.0889449 0
M  V30 7 C 3.2507 1.06291 -1.35492 0
M  V30 8 C 1.27029 0.306948 -0.0682043 0
M  V30 9 C 0.745181 -0.0497723 1.14264 0
M  V30 10 C 1.54393 -0.0455482 2.30589 0
M  V30 11 N 2.82216 0.310744 2.21192 0
M  V30 12 N -0.596747 -0.452362 1.26172 0
M  V30 13 C -1.35128 -0.937171 0.179635 0
M  V30 14 O -0.99501 -1.09344 -0.992907 0
M  V30 15 C -2.77058 -1.31344 0.482108 0
M  V30 16 C -3.66229 -0.234878 0.0246187 0
M  V30 17 C -4.65937 0.288734 0.835822 0
M  V30 18 C -5.52605 1.28025 0.45806 0
M  V30 19 C -5.39076 1.78363 -0.811484 0
M  V30 20 C -4.42479 1.30902 -1.66366 0
M  V30 21 C -3.55963 0.291492 -1.23116 0
M  V30 22 Br -6.58864 3.16865 -1.36231 0
M  V30 23 N -2.97538 -1.41432 1.93861 0
M  V30 24 C -3.06286 -2.64119 -0.136806 0
M  V30 25 H 4.3536 -1.4336 -1.40103 0
M  V30 26 H 5.48884 -0.957541 -2.63618 0
M  V30 27 H 5.12768 1.26148 -2.28927 0
M  V30 28 H 6.39052 1.27442 -0.416213 0
M  V30 29 H 5.88575 -0.391568 -0.104429 0
M  V30 30 H 5.29838 0.701086 1.87968 0
M  V30 31 H 4.82244 2.18547 1.03755 0
M  V30 32 H 3.1699 2.18746 -1.42683 0
M  V30 33 H 2.61693 0.686215 -2.18472 0
M  V30 34 H 0.737664 0.351255 -1.00835 0
M  V30 35 H 1.07094 -0.340274 3.25181 0
M  V30 36 H -1.04444 -0.370452 2.23934 0
M  V30 37 H -4.74348 -0.123709 1.83045 0
M  V30 38 H -6.29908 1.67623 1.10694 0
M  V30 39 H -4.36457 1.74097 -2.64827 0
M  V30 40 H -2.83523 -0.0243411 -1.97554 0
M  V30 41 H -2.20955 -2.01416 2.33377 0
M  V30 42 H -3.88071 -1.93655 2.03083 0
M  V30 43 H -4.13718 -2.80984 -0.339248 0
M  V30 44 H -2.66967 -3.42609 0.572519 0
M  V30 45 H -2.44059 -2.77207 -1.06135 0
M  V30 END ATOM
M  V30 BEGIN BOND
M  V30 1 1 1 2
M  V30 2 1 2 3
M  V30 3 1 3 4
M  V30 4 1 4 5
M  V30 5 2 5 6
M  V30 6 1 6 7
M  V30 7 1 6 8
M  V30 8 2 8 9
M  V30 9 1 9 10
M  V30 10 2 10 11
M  V30 11 1 9 12
M  V30 12 1 12 13
M  V30 13 2 13 14
M  V30 14 1 13 15
M  V30 15 1 15 16
M  V30 16 2 16 17
M  V30 17 1 17 18
M  V30 18 2 18 19
M  V30 19 1 19 20
M  V30 20 2 20 21
M  V30 21 1 19 22
M  V30 22 1 15 23
M  V30 23 1 15 24
M  V30 24 1 7 2
M  V30 25 1 21 16
M  V30 26 1 11 5
M  V30 27 1 1 25
M  V30 28 1 1 26
M  V30 29 1 2 27
M  V30 30 1 3 28
M  V30 31 1 3 29
M  V30 32 1 4 30
M  V30 33 1 4 31
M  V30 34 1 7 32
M  V30 35 1 7 33
M  V30 36 1 8 34
M  V30 37 1 10 35
M  V30 38 1 12 36
M  V30 39 1 17 37
M  V30 40 1 18 38
M  V30 41 1 20 39
M  V30 42 1 21 40
M  V30 43 1 23 41
M  V30 44 1 23 42
M  V30 45 1 24 43
M  V30 46 1 24 44
M  V30 47 1 24 45
M  V30 END BOND
M  V30 END CTAB
M  END
