
     RDKit          3D

  0  0  0  0  0  0  0  0  0  0999 V3000
M  V30 BEGIN CTAB
M  V30 COUNTS 31 32 0 0 0
M  V30 BEGIN ATOM
M  V30 1 N -3.64115 -1.85721 0.437994 0
M  V30 2 C -2.47226 -1.09275 0.214164 0
M  V30 3 C -1.24426 -1.6892 0.30915 0
M  V30 4 N -1.10534 -3.08512 0.633269 0
M  V30 5 C -0.0938367 -0.978331 0.0986396 0
M  V30 6 C 1.14418 -1.62296 0.204276 0
M  V30 7 O 1.19322 -2.98464 0.523697 0
M  V30 8 C 2.26749 -0.873953 -0.014589 0
M  V30 9 C 2.16585 0.466037 -0.326933 0
M  V30 10 C 0.931525 1.10242 -0.430753 0
M  V30 11 C -0.190812 0.366181 -0.214895 0
M  V30 12 C -1.42136 1.01621 -0.322381 0
M  V30 13 C -2.53998 0.240999 -0.0979083 0
M  V30 14 S -1.52815 2.70467 -0.715134 0
M  V30 15 O -0.756943 3.68485 0.398326 0
M  V30 16 O -1.03131 2.98295 -2.12103 0
M  V30 17 O -2.98492 3.08314 -0.709207 0
M  V30 18 S 3.62131 1.3675 -0.59424 0
M  V30 19 O 4.10672 1.99909 0.898181 0
M  V30 20 O 3.4321 2.45872 -1.60599 0
M  V30 21 O 4.66726 0.427883 -1.11967 0
M  V30 22 H -4.29293 -2.10549 -0.329206 0
M  V30 23 H -3.85151 -2.17746 1.39378 0
M  V30 24 H -1.04511 -3.77836 -0.137049 0
M  V30 25 H -1.07013 -3.35189 1.61858 0
M  V30 26 H 2.11669 -3.3918 0.585099 0
M  V30 27 H 3.25232 -1.3534 0.0615735 0
M  V30 28 H 0.839222 2.14971 -0.674838 0
M  V30 29 H -3.52661 0.709717 -0.171766 0
M  V30 30 H -1.32906 4.38682 0.768122 0
M  V30 31 H 4.38778 1.19568 1.44074 0
M  V30 END ATOM
M  V30 BEGIN BOND
M  V30 1 1 1 2
M  V30 2 2 2 3
M  V30 3 1 3 4
M  V30 4 1 3 5
M  V30 5 2 5 6
M  V30 6 1 6 7
M  V30 7 1 6 8
M  V30 8 2 8 9
M  V30 9 1 9 10
M  V30 10 2 10 11
M  V30 11 1 11 12
M  V30 12 2 12 13
M  V30 13 1 12 14
M  V30 14 1 14 15
M  V30 15 2 14 16
M  V30 16 2 14 17
M  V30 17 1 9 18
M  V30 18 1 18 19
M  V30 19 2 18 20
M  V30 20 2 18 21
M  V30 21 1 13 2
M  V30 22 1 11 5
M  V30 23 1 1 22
M  V30 24 1 1 23
M  V30 25 1 4 24
M  V30 26 1 4 25
M  V30 27 1 7 26
M  V30 28 1 8 27
M  V30 29 1 10 28
M  V30 30 1 13 29
M  V30 31 1 15 30
M  V30 32 1 19 31
M  V30 END BOND
M  V30 END CTAB
M  END
