
     RDKit          3D

  0  0  0  0  0  0  0  0  0  0999 V3000
M  V30 BEGIN CTAB
M  V30 COUNTS 28 28 0 0 0
M  V30 BEGIN ATOM
M  V30 1 N -3.28917 -1.0619 0.0562258 0
M  V30 2 C -2.47353 -0.156693 0.839972 0
M  V30 3 C -1.40852 0.433769 -0.0865164 0
M  V30 4 O -2.09709 1.10125 -1.09797 0
M  V30 5 C -0.577438 1.46358 0.638082 0
M  V30 6 C 0.839016 1.01908 0.856947 0
M  V30 7 N 1.47341 0.668343 -0.380573 0
M  V30 8 C 0.741413 -0.244638 -1.18942 0
M  V30 9 C -0.567448 -0.684891 -0.608229 0
M  V30 10 S 3.07804 0.114214 -0.11528 0
M  V30 11 O 3.9416 1.11849 0.546633 0
M  V30 12 O 3.64843 -0.28899 -1.45383 0
M  V30 13 N 3.04397 -1.3026 0.866806 0
M  V30 14 H -3.1156 -1.0153 -0.955998 0
M  V30 15 H -3.31467 -1.99976 0.472208 0
M  V30 16 H -1.96904 -0.758537 1.63601 0
M  V30 17 H -3.1371 0.610243 1.25471 0
M  V30 18 H -2.6871 1.77173 -0.709287 0
M  V30 19 H -1.02616 1.64734 1.64174 0
M  V30 20 H -0.553004 2.43749 0.108944 0
M  V30 21 H 0.865047 0.222832 1.61992 0
M  V30 22 H 1.39271 1.89308 1.27445 0
M  V30 23 H 1.35832 -1.16416 -1.35305 0
M  V30 24 H 0.582053 0.194364 -2.20508 0
M  V30 25 H -0.394563 -1.40885 0.220966 0
M  V30 26 H -1.1354 -1.20198 -1.40898 0
M  V30 27 H 3.65993 -1.23298 1.69347 0
M  V30 28 H 3.12189 -2.17451 0.324981 0
M  V30 END ATOM
M  V30 BEGIN BOND
M  V30 1 1 1 2
M  V30 2 1 2 3
M  V30 3 1 3 4
M  V30 4 1 3 5
M  V30 5 1 5 6
M  V30 6 1 6 7
M  V30 7 1 7 8
M  V30 8 1 8 9
M  V30 9 1 7 10
M  V30 10 2 10 11
M  V30 11 2 10 12
M  V30 12 1 10 13
M  V30 13 1 9 3
M  V30 14 1 1 14
M  V30 15 1 1 15
M  V30 16 1 2 16
M  V30 17 1 2 17
M  V30 18 1 4 18
M  V30 19 1 5 19
M  V30 20 1 5 20
M  V30 21 1 6 21
M  V30 22 1 6 22
M  V30 23 1 8 23
M  V30 24 1 8 24
M  V30 25 1 9 25
M  V30 26 1 9 26
M  V30 27 1 13 27
M  V30 28 1 13 28
M  V30 END BOND
M  V30 END CTAB
M  END
