
     RDKit          3D

  0  0  0  0  0  0  0  0  0  0999 V3000
M  V30 BEGIN CTAB
M  V30 COUNTS 48 49 0 0 0
M  V30 BEGIN ATOM
M  V30 1 N 7.98662 -0.327679 0.645784 0
M  V30 2 C 7.03676 0.385496 -0.144987 0
M  V30 3 C 5.67303 -0.123177 0.215448 0
M  V30 4 C 4.5634 0.553823 -0.555931 0
M  V30 5 C 3.26066 -0.0570122 -0.0897365 0
M  V30 6 C 2.07378 0.552502 -0.802947 0 CFG=1
M  V30 7 C 0.835411 -0.119442 -0.270778 0
M  V30 8 O 0.796515 -1.25155 0.390243 0
M  V30 9 N -0.416012 -1.54575 0.700367 0
M  V30 10 C -1.23362 -0.571233 0.229286 0
M  V30 11 N -0.41382 0.307082 -0.3744 0
M  V30 12 N -2.66336 -0.499619 0.352209 0
M  V30 13 C -3.32339 -1.57013 1.04879 0
M  V30 14 C -4.46346 -1.0675 1.86906 0
M  V30 15 C -5.34549 -0.154458 1.04731 0
M  V30 16 C -4.58525 0.987114 0.446924 0
M  V30 17 C -3.31868 0.639424 -0.23609 0
M  V30 18 C -3.42907 0.528425 -1.73329 0
M  V30 19 C -4.19092 -0.641883 -2.23062 0
M  V30 20 O -4.17684 -0.55879 -3.64435 0
M  V30 21 N 1.95028 1.95258 -0.46039 0
M  V30 22 H 7.62223 -1.09449 1.12544 0
M  V30 23 H 8.93033 -0.181167 0.53523 0
M  V30 24 H 7.15917 1.46428 0.0840966 0
M  V30 25 H 7.30093 0.216737 -1.20121 0
M  V30 26 H 5.5043 0.142533 1.29367 0
M  V30 27 H 5.6314 -1.19493 0.0291623 0
M  V30 28 H 4.52365 1.63849 -0.412582 0
M  V30 29 H 4.64449 0.351234 -1.64237 0
M  V30 30 H 3.09038 0.126656 1.00215 0
M  V30 31 H 3.25532 -1.15612 -0.210202 0
M  V30 32 H 2.09431 0.429115 -1.88613 0
M  V30 33 H -2.59093 -2.08758 1.71656 0
M  V30 34 H -3.71381 -2.28178 0.271328 0
M  V30 35 H -5.09186 -1.94605 2.14809 0
M  V30 36 H -4.12359 -0.554054 2.77411 0
M  V30 37 H -6.07703 0.299817 1.7793 0
M  V30 38 H -5.9481 -0.735377 0.347072 0
M  V30 39 H -4.35577 1.68427 1.30347 0
M  V30 40 H -5.2865 1.55295 -0.196688 0
M  V30 41 H -2.61213 1.51361 -0.0789144 0
M  V30 42 H -3.82839 1.457 -2.18566 0
M  V30 43 H -2.38002 0.439178 -2.12237 0
M  V30 44 H -3.60757 -1.5722 -2.01248 0
M  V30 45 H -5.23791 -0.692343 -1.94285 0
M  V30 46 H -4.51064 0.334806 -3.92887 0
M  V30 47 H 1.80073 2.05869 0.568375 0
M  V30 48 H 1.19048 2.3685 -1.01953 0
M  V30 END ATOM
M  V30 BEGIN BOND
M  V30 1 1 1 2
M  V30 2 1 2 3
M  V30 3 1 3 4
M  V30 4 1 4 5
M  V30 5 1 5 6
M  V30 6 1 6 7
M  V30 7 1 7 8
M  V30 8 1 8 9
M  V30 9 2 9 10
M  V30 10 1 10 11
M  V30 11 1 10 12
M  V30 12 1 12 13
M  V30 13 1 13 14
M  V30 14 1 14 15
M  V30 15 1 15 16
M  V30 16 1 16 17
M  V30 17 1 17 18
M  V30 18 1 18 19
M  V30 19 1 19 20
M  V30 20 1 6 21
M  V30 21 2 11 7
M  V30 22 1 17 12
M  V30 23 1 1 22
M  V30 24 1 1 23
M  V30 25 1 2 24
M  V30 26 1 2 25
M  V30 27 1 3 26
M  V30 28 1 3 27
M  V30 29 1 4 28
M  V30 30 1 4 29
M  V30 31 1 5 30
M  V30 32 1 5 31
M  V30 33 1 6 32 CFG=3
M  V30 34 1 13 33
M  V30 35 1 13 34
M  V30 36 1 14 35
M  V30 37 1 14 36
M  V30 38 1 15 37
M  V30 39 1 15 38
M  V30 40 1 16 39
M  V30 41 1 16 40
M  V30 42 1 17 41
M  V30 43 1 18 42
M  V30 44 1 18 43
M  V30 45 1 19 44
M  V30 46 1 19 45
M  V30 47 1 20 46
M  V30 48 1 21 47
M  V30 49 1 21 48
M  V30 END BOND
M  V30 END CTAB
M  END
