
     RDKit          3D

  0  0  0  0  0  0  0  0  0  0999 V3000
M  V30 BEGIN CTAB
M  V30 COUNTS 19 19 0 0 0
M  V30 BEGIN ATOM
M  V30 1 C 2.90626 -1.00687 0.741461 0
M  V30 2 O 1.51686 -0.982928 0.430316 0
M  V30 3 C 0.909713 0.213349 0.182845 0
M  V30 4 O 1.60181 1.26524 0.237796 0
M  V30 5 C -0.518648 0.338814 -0.146506 0
M  V30 6 C -1.43668 -0.683697 -0.254452 0
M  V30 7 N -1.12385 -2.06492 -0.0550842 0
M  V30 8 N -2.64424 -0.158657 -0.572258 0
M  V30 9 N -2.51599 1.14845 -0.666643 0
M  V30 10 C -1.21993 1.49503 -0.411111 0
M  V30 11 N -0.711955 2.81304 -0.422116 0
M  V30 12 H 3.01466 -0.662758 1.7805 0
M  V30 13 H 3.31146 -2.03661 0.659794 0
M  V30 14 H 3.49754 -0.391837 0.0144913 0
M  V30 15 H -1.77767 -2.67122 0.502214 0
M  V30 16 H -0.259244 -2.44493 -0.462545 0
M  V30 17 H -3.51117 -0.75358 -0.709051 0
M  V30 18 H -0.784767 3.4172 -1.2623 0
M  V30 19 H -0.254152 3.16688 0.453107 0
M  V30 END ATOM
M  V30 BEGIN BOND
M  V30 1 1 1 2
M  V30 2 1 2 3
M  V30 3 2 3 4
M  V30 4 1 3 5
M  V30 5 2 5 6
M  V30 6 1 6 7
M  V30 7 1 6 8
M  V30 8 1 8 9
M  V30 9 2 9 10
M  V30 10 1 10 11
M  V30 11 1 10 5
M  V30 12 1 1 12
M  V30 13 1 1 13
M  V30 14 1 1 14
M  V30 15 1 7 15
M  V30 16 1 7 16
M  V30 17 1 8 17
M  V30 18 1 11 18
M  V30 19 1 11 19
M  V30 END BOND
M  V30 END CTAB
M  END
