
     RDKit          3D

  0  0  0  0  0  0  0  0  0  0999 V3000
M  V30 BEGIN CTAB
M  V30 COUNTS 44 46 0 0 0
M  V30 BEGIN ATOM
M  V30 1 N -3.98862 -1.91691 0.962177 0
M  V30 2 C -3.80167 -0.657286 1.64829 0
M  V30 3 C -2.47706 -0.0101646 1.21564 0
M  V30 4 N -2.42573 1.23924 2.00324 0
M  V30 5 C -2.55543 0.396038 -0.165894 0
M  V30 6 C -3.75672 0.401947 -0.833501 0
M  V30 7 C -3.87337 0.838948 -2.15147 0
M  V30 8 C -2.76943 1.27496 -2.80568 0
M  V30 9 C -1.5562 1.27378 -2.14796 0
M  V30 10 C -1.44352 0.840389 -0.843048 0
M  V30 11 C -0.127262 0.817381 -0.224312 0
M  V30 12 C 0.506343 -0.544608 -0.379827 0
M  V30 13 C 1.81339 -0.681496 0.275981 0
M  V30 14 C 1.81913 -1.28242 1.55329 0
M  V30 15 C 2.98404 -1.42841 2.26679 0
M  V30 16 C 4.1612 -0.975796 1.71593 0
M  V30 17 C 4.19743 -0.374922 0.453898 0
M  V30 18 C 5.37677 0.0640261 -0.0891774 0
M  V30 19 C 5.3999 0.643802 -1.33719 0
M  V30 20 C 4.23319 0.786898 -2.04975 0
M  V30 21 C 3.0292 0.344456 -1.50666 0
M  V30 22 C 3.00189 -0.239747 -0.249001 0
M  V30 23 H -4.41666 -2.65739 1.58516 0
M  V30 24 H -3.16285 -2.24938 0.461231 0
M  V30 25 H -4.64664 0.0204064 1.60748 0
M  V30 26 H -3.70617 -0.941182 2.7456 0
M  V30 27 H -1.71843 -0.707902 1.53501 0
M  V30 28 H -3.22494 1.81886 1.65135 0
M  V30 29 H -2.42008 1.06573 3.01621 0
M  V30 30 H -4.70603 0.0759543 -0.396588 0
M  V30 31 H -4.84087 0.832457 -2.65629 0
M  V30 32 H -2.82562 1.62393 -3.82959 0
M  V30 33 H -0.683276 1.62449 -2.67671 0
M  V30 34 H 0.517928 1.54582 -0.751944 0
M  V30 35 H -0.114865 1.15947 0.833756 0
M  V30 36 H 0.572101 -0.754787 -1.48443 0
M  V30 37 H -0.183165 -1.30393 -0.000195293 0
M  V30 38 H 0.870714 -1.61931 1.94766 0
M  V30 39 H 2.90555 -1.89523 3.23645 0
M  V30 40 H 5.08187 -1.07349 2.24415 0
M  V30 41 H 6.29553 -0.0508096 0.477587 0
M  V30 42 H 6.33448 1.00336 -1.78588 0
M  V30 43 H 4.21087 1.23825 -3.03765 0
M  V30 44 H 2.11308 0.434559 -2.03413 0
M  V30 END ATOM
M  V30 BEGIN BOND
M  V30 1 1 1 2
M  V30 2 1 2 3
M  V30 3 1 3 4
M  V30 4 1 3 5
M  V30 5 2 5 6
M  V30 6 1 6 7
M  V30 7 2 7 8
M  V30 8 1 8 9
M  V30 9 2 9 10
M  V30 10 1 10 11
M  V30 11 1 11 12
M  V30 12 1 12 13
M  V30 13 2 13 14
M  V30 14 1 14 15
M  V30 15 2 15 16
M  V30 16 1 16 17
M  V30 17 2 17 18
M  V30 18 1 18 19
M  V30 19 2 19 20
M  V30 20 1 20 21
M  V30 21 2 21 22
M  V30 22 1 10 5
M  V30 23 1 22 13
M  V30 24 1 22 17
M  V30 25 1 1 23
M  V30 26 1 1 24
M  V30 27 1 2 25
M  V30 28 1 2 26
M  V30 29 1 3 27
M  V30 30 1 4 28
M  V30 31 1 4 29
M  V30 32 1 6 30
M  V30 33 1 7 31
M  V30 34 1 8 32
M  V30 35 1 9 33
M  V30 36 1 11 34
M  V30 37 1 11 35
M  V30 38 1 12 36
M  V30 39 1 12 37
M  V30 40 1 14 38
M  V30 41 1 15 39
M  V30 42 1 16 40
M  V30 43 1 18 41
M  V30 44 1 19 42
M  V30 45 1 20 43
M  V30 46 1 21 44
M  V30 END BOND
M  V30 END CTAB
M  END
