
     RDKit          3D

  0  0  0  0  0  0  0  0  0  0999 V3000
M  V30 BEGIN CTAB
M  V30 COUNTS 50 52 0 0 0
M  V30 BEGIN ATOM
M  V30 1 O 1.16356 -1.36275 2.02164 0
M  V30 2 C 0.560496 -0.20578 2.02773 0
M  V30 3 N -0.831057 -0.265338 1.80071 0
M  V30 4 C -1.39746 -1.60569 1.56856 0
M  V30 5 C -1.66328 -1.97958 0.195259 0
M  V30 6 C -3.01129 -2.01728 -0.196008 0
M  V30 7 C -3.38204 -2.36525 -1.46813 0
M  V30 8 C -2.39429 -2.68221 -2.3698 0
M  V30 9 C -1.06905 -2.65351 -2.01367 0
M  V30 10 C -0.722816 -2.30151 -0.732333 0
M  V30 11 C -1.76053 0.800473 1.81812 0
M  V30 12 C -2.1085 1.5375 0.638856 0
M  V30 13 C -3.18349 2.43894 0.772085 0
M  V30 14 C -3.61676 3.20253 -0.28455 0
M  V30 15 C -3.01559 3.11688 -1.51968 0
M  V30 16 C -1.96274 2.2456 -1.68155 0
M  V30 17 C -1.55557 1.49519 -0.596909 0
M  V30 18 C 1.4537 0.902167 2.26929 0
M  V30 19 S 1.98681 1.65921 0.718627 0
M  V30 20 C 3.00082 0.587602 -0.249363 0
M  V30 21 N 2.53733 -0.279156 -1.16585 0
M  V30 22 C 3.34906 -1.07995 -1.8837 0
M  V30 23 N 2.88069 -1.99787 -2.85081 0
M  V30 24 N 4.68813 -1.01798 -1.68263 0
M  V30 25 C 5.17602 -0.165584 -0.778071 0
M  V30 26 N 4.34117 0.630672 -0.0670538 0
M  V30 27 N 6.56793 -0.02544 -0.494736 0
M  V30 28 C 1.00354 1.95279 3.24745 0
M  V30 29 H -2.31927 -1.73059 2.21403 0
M  V30 30 H -0.693664 -2.36791 2.01716 0
M  V30 31 H -3.80848 -1.77197 0.496084 0
M  V30 32 H -4.41073 -2.40484 -1.80327 0
M  V30 33 H -2.61471 -2.96759 -3.39638 0
M  V30 34 H -0.280046 -2.91101 -2.75016 0
M  V30 35 H 0.354728 -2.29015 -0.475597 0
M  V30 36 H -1.52612 1.57637 2.61803 0
M  V30 37 H -2.77033 0.410809 2.23528 0
M  V30 38 H -3.69934 2.55846 1.70397 0
M  V30 39 H -4.4461 3.89833 -0.183624 0
M  V30 40 H -3.35632 3.71935 -2.35618 0
M  V30 41 H -1.48243 2.17025 -2.64901 0
M  V30 42 H -0.729877 0.833989 -0.754355 0
M  V30 43 H 2.42045 0.507692 2.73833 0
M  V30 44 H 2.59237 -1.65894 -3.77779 0
M  V30 45 H 2.82014 -3.01561 -2.64616 0
M  V30 46 H 7.13659 -0.87716 -0.30615 0
M  V30 47 H 7.00279 0.907678 -0.477876 0
M  V30 48 H 0.36532 1.61389 4.05493 0
M  V30 49 H 0.505326 2.79426 2.72432 0
M  V30 50 H 1.9049 2.44003 3.73094 0
M  V30 END ATOM
M  V30 BEGIN BOND
M  V30 1 2 1 2
M  V30 2 1 2 3
M  V30 3 1 3 4
M  V30 4 1 4 5
M  V30 5 2 5 6
M  V30 6 1 6 7
M  V30 7 2 7 8
M  V30 8 1 8 9
M  V30 9 2 9 10
M  V30 10 1 3 11
M  V30 11 1 11 12
M  V30 12 2 12 13
M  V30 13 1 13 14
M  V30 14 2 14 15
M  V30 15 1 15 16
M  V30 16 2 16 17
M  V30 17 1 2 18
M  V30 18 1 18 19
M  V30 19 1 19 20
M  V30 20 2 20 21
M  V30 21 1 21 22
M  V30 22 1 22 23
M  V30 23 2 22 24
M  V30 24 1 24 25
M  V30 25 2 25 26
M  V30 26 1 25 27
M  V30 27 1 18 28
M  V30 28 1 10 5
M  V30 29 1 17 12
M  V30 30 1 26 20
M  V30 31 1 4 29
M  V30 32 1 4 30
M  V30 33 1 6 31
M  V30 34 1 7 32
M  V30 35 1 8 33
M  V30 36 1 9 34
M  V30 37 1 10 35
M  V30 38 1 11 36
M  V30 39 1 11 37
M  V30 40 1 13 38
M  V30 41 1 14 39
M  V30 42 1 15 40
M  V30 43 1 16 41
M  V30 44 1 17 42
M  V30 45 1 18 43
M  V30 46 1 23 44
M  V30 47 1 23 45
M  V30 48 1 27 46
M  V30 49 1 27 47
M  V30 50 1 28 48
M  V30 51 1 28 49
M  V30 52 1 28 50
M  V30 END BOND
M  V30 END CTAB
M  END
