
     RDKit          3D

  0  0  0  0  0  0  0  0  0  0999 V3000
M  V30 BEGIN CTAB
M  V30 COUNTS 14 13 0 0 0
M  V30 BEGIN ATOM
M  V30 1 N 1.70146 -0.693883 -0.194507 0
M  V30 2 C 0.933819 0.155389 0.634439 0
M  V30 3 S 1.61372 0.736241 2.0113 0
M  V30 4 C -0.45761 0.495067 0.237097 0 CFG=1
M  V30 5 N -0.420125 1.14799 -1.02206 0
M  V30 6 C -1.31578 -0.726136 0.270143 0
M  V30 7 H 1.49863 -1.71453 -0.250687 0
M  V30 8 H 2.47897 -0.260576 -0.74822 0
M  V30 9 H -0.833258 1.24294 0.994358 0
M  V30 10 H -0.406582 0.58601 -1.8522 0
M  V30 11 H -0.18069 2.12114 -1.04746 0
M  V30 12 H -1.67367 -0.843738 1.33348 0
M  V30 13 H -2.20268 -0.613202 -0.411259 0
M  V30 14 H -0.736211 -1.63271 0.0455648 0
M  V30 END ATOM
M  V30 BEGIN BOND
M  V30 1 1 1 2
M  V30 2 2 2 3
M  V30 3 1 2 4
M  V30 4 1 4 5
M  V30 5 1 4 6
M  V30 6 1 1 7
M  V30 7 1 1 8
M  V30 8 1 4 9 CFG=1
M  V30 9 1 5 10
M  V30 10 1 5 11
M  V30 11 1 6 12
M  V30 12 1 6 13
M  V30 13 1 6 14
M  V30 END BOND
M  V30 END CTAB
M  END
