
     RDKit          3D

  0  0  0  0  0  0  0  0  0  0999 V3000
M  V30 BEGIN CTAB
M  V30 COUNTS 53 56 0 0 0
M  V30 BEGIN ATOM
M  V30 1 N -1.60828 3.0765 1.56089 0
M  V30 2 C -2.60862 2.09217 1.91702 0 CFG=1
M  V30 3 C -3.6822 2.08503 0.85087 0
M  V30 4 C -3.17508 1.6602 -0.487732 0
M  V30 5 C -2.10576 0.602241 -0.432398 0
M  V30 6 N -2.18361 -0.0724426 0.851348 0
M  V30 7 C -1.92793 0.744596 2.02982 0
M  V30 8 C -2.48474 -1.43682 1.03607 0
M  V30 9 C -1.55244 -2.40251 0.625785 0
M  V30 10 N -0.335 -1.95703 0.122396 0
M  V30 11 C 0.668861 -2.75562 -0.44303 0
M  V30 12 O 0.584484 -3.99585 -0.568138 0
M  V30 13 C 1.92607 -2.09733 -0.932329 0
M  V30 14 N 2.08637 -0.787522 -0.833572 0
M  V30 15 C 3.20124 -0.101872 -1.25521 0
M  V30 16 C 4.1768 -0.873893 -1.80296 0
M  V30 17 C 4.06811 -2.27175 -1.93772 0
M  V30 18 C 2.91737 -2.87143 -1.4892 0
M  V30 19 N 2.732 -4.27129 -1.58907 0
M  V30 20 C 3.23427 1.32755 -1.02815 0
M  V30 21 C 2.36047 1.84333 -0.0407972 0
M  V30 22 C 2.27497 3.17824 0.243101 0
M  V30 23 C 3.04344 4.10797 -0.423636 0
M  V30 24 C 3.89213 3.63064 -1.38082 0
M  V30 25 C 3.98087 2.25643 -1.67517 0
M  V30 26 Cl 5.05607 1.77115 -2.97312 0
M  V30 27 C -1.87697 -3.72101 0.782594 0
M  V30 28 N -3.06621 -4.08926 1.3203 0
M  V30 29 C -3.93697 -3.15369 1.70434 0
M  V30 30 C -3.69109 -1.81748 1.58243 0
M  V30 31 H -0.651948 2.72579 1.78883 0
M  V30 32 H -1.67564 3.24269 0.535893 0
M  V30 33 H -3.02889 2.40275 2.89019 0
M  V30 34 H -4.5336 1.4429 1.20669 0
M  V30 35 H -4.09675 3.10397 0.753304 0
M  V30 36 H -4.05433 1.24228 -1.05488 0
M  V30 37 H -2.81179 2.50966 -1.1079 0
M  V30 38 H -1.13081 1.14372 -0.487263 0
M  V30 39 H -2.24399 -0.0748581 -1.2871 0
M  V30 40 H -0.832102 0.883895 2.16434 0
M  V30 41 H -2.3748 0.244933 2.91239 0
M  V30 42 H -0.111399 -0.91541 0.172244 0
M  V30 43 H 5.1 -0.43496 -2.13188 0
M  V30 44 H 4.87916 -2.82758 -2.38303 0
M  V30 45 H 3.08593 -4.87923 -0.842555 0
M  V30 46 H 2.2417 -4.64936 -2.41651 0
M  V30 47 H 1.74409 1.15181 0.50277 0
M  V30 48 H 1.60045 3.56362 1.00385 0
M  V30 49 H 2.94927 5.15378 -0.171323 0
M  V30 50 H 4.50941 4.32559 -1.92416 0
M  V30 51 H -1.2414 -4.53691 0.510632 0
M  V30 52 H -4.89159 -3.47227 2.13663 0
M  V30 53 H -4.39962 -1.04605 1.89494 0
M  V30 END ATOM
M  V30 BEGIN BOND
M  V30 1 1 1 2
M  V30 2 1 2 3
M  V30 3 1 3 4
M  V30 4 1 4 5
M  V30 5 1 5 6
M  V30 6 1 6 7
M  V30 7 1 6 8
M  V30 8 1 8 9
M  V30 9 1 9 10
M  V30 10 1 10 11
M  V30 11 2 11 12
M  V30 12 1 11 13
M  V30 13 2 13 14
M  V30 14 1 14 15
M  V30 15 2 15 16
M  V30 16 1 16 17
M  V30 17 2 17 18
M  V30 18 1 18 19
M  V30 19 1 15 20
M  V30 20 2 20 21
M  V30 21 1 21 22
M  V30 22 2 22 23
M  V30 23 1 23 24
M  V30 24 2 24 25
M  V30 25 1 25 26
M  V30 26 2 9 27
M  V30 27 1 27 28
M  V30 28 2 28 29
M  V30 29 1 29 30
M  V30 30 1 7 2
M  V30 31 2 30 8
M  V30 32 1 18 13
M  V30 33 1 25 20
M  V30 34 1 1 31
M  V30 35 1 1 32
M  V30 36 1 2 33 CFG=1
M  V30 37 1 3 34
M  V30 38 1 3 35
M  V30 39 1 4 36
M  V30 40 1 4 37
M  V30 41 1 5 38
M  V30 42 1 5 39
M  V30 43 1 7 40
M  V30 44 1 7 41
M  V30 45 1 10 42
M  V30 46 1 16 43
M  V30 47 1 17 44
M  V30 48 1 19 45
M  V30 49 1 19 46
M  V30 50 1 21 47
M  V30 51 1 22 48
M  V30 52 1 23 49
M  V30 53 1 24 50
M  V30 54 1 27 51
M  V30 55 1 29 52
M  V30 56 1 30 53
M  V30 END BOND
M  V30 END CTAB
M  END
