
     RDKit          3D

  0  0  0  0  0  0  0  0  0  0999 V3000
M  V30 BEGIN CTAB
M  V30 COUNTS 44 44 0 0 0
M  V30 BEGIN ATOM
M  V30 1 C -3.34546 2.08893 -1.53902 0
M  V30 2 C -3.18876 1.97826 -0.0577729 0
M  V30 3 C -3.52286 0.582612 0.392774 0
M  V30 4 C -2.65301 -0.463772 -0.221107 0
M  V30 5 N -1.2738 -0.222491 0.124918 0
M  V30 6 C -0.204695 -1.04127 -0.305197 0
M  V30 7 O -0.450874 -2.03261 -1.02534 0
M  V30 8 C 1.19664 -0.763673 0.0688979 0
M  V30 9 C 2.12735 -1.77389 -0.51211 0
M  V30 10 N 3.47237 -1.44189 -0.107542 0
M  V30 11 N 4.03778 -1.89561 0.992989 0
M  V30 12 C 5.27979 -1.43212 1.12043 0
M  V30 13 C 5.48731 -0.62536 -0.00213782 0
M  V30 14 C 4.33503 -0.645731 -0.762826 0
M  V30 15 S 6.94958 0.253462 -0.374643 0
M  V30 16 O 7.12864 0.43612 -1.8534 0
M  V30 17 O 8.1408 -0.495418 0.137713 0
M  V30 18 N 6.85928 1.83554 0.329504 0
M  V30 19 C -4.98702 0.358487 0.164506 0
M  V30 20 C -5.43773 -1.0207 0.584284 0
M  V30 21 N -3.32417 0.562359 1.85103 0
M  V30 22 H -4.07431 2.88707 -1.7895 0
M  V30 23 H -3.67829 1.16982 -2.03586 0
M  V30 24 H -2.35336 2.34704 -1.98109 0
M  V30 25 H -2.20123 2.32391 0.30816 0
M  V30 26 H -3.93437 2.65512 0.455645 0
M  V30 27 H -2.81348 -0.5229 -1.31515 0
M  V30 28 H -2.92825 -1.46336 0.229299 0
M  V30 29 H -1.05421 0.599025 0.723738 0
M  V30 30 H 1.28314 -0.656646 1.16642 0
M  V30 31 H 1.4473 0.245847 -0.35099 0
M  V30 32 H 1.8286 -2.79271 -0.158806 0
M  V30 33 H 2.01775 -1.75415 -1.61098 0
M  V30 34 H 6.02826 -1.58235 1.87094 0
M  V30 35 H 4.20086 -0.111228 -1.69341 0
M  V30 36 H 6.57674 1.68503 1.33741 0
M  V30 37 H 6.1557 2.38592 -0.202991 0
M  V30 38 H -5.53365 1.13487 0.748464 0
M  V30 39 H -5.21687 0.451086 -0.9164 0
M  V30 40 H -4.72373 -1.47606 1.30156 0
M  V30 41 H -5.54889 -1.69206 -0.29209 0
M  V30 42 H -6.45381 -0.905382 1.0287 0
M  V30 43 H -2.57267 1.24745 2.1141 0
M  V30 44 H -3.07743 -0.416591 2.1716 0
M  V30 END ATOM
M  V30 BEGIN BOND
M  V30 1 1 1 2
M  V30 2 1 2 3
M  V30 3 1 3 4
M  V30 4 1 4 5
M  V30 5 1 5 6
M  V30 6 2 6 7
M  V30 7 1 6 8
M  V30 8 1 8 9
M  V30 9 1 9 10
M  V30 10 1 10 11
M  V30 11 2 11 12
M  V30 12 1 12 13
M  V30 13 2 13 14
M  V30 14 1 13 15
M  V30 15 2 15 16
M  V30 16 2 15 17
M  V30 17 1 15 18
M  V30 18 1 3 19
M  V30 19 1 19 20
M  V30 20 1 3 21
M  V30 21 1 14 10
M  V30 22 1 1 22
M  V30 23 1 1 23
M  V30 24 1 1 24
M  V30 25 1 2 25
M  V30 26 1 2 26
M  V30 27 1 4 27
M  V30 28 1 4 28
M  V30 29 1 5 29
M  V30 30 1 8 30
M  V30 31 1 8 31
M  V30 32 1 9 32
M  V30 33 1 9 33
M  V30 34 1 12 34
M  V30 35 1 14 35
M  V30 36 1 18 36
M  V30 37 1 18 37
M  V30 38 1 19 38
M  V30 39 1 19 39
M  V30 40 1 20 40
M  V30 41 1 20 41
M  V30 42 1 20 42
M  V30 43 1 21 43
M  V30 44 1 21 44
M  V30 END BOND
M  V30 END CTAB
M  END
