
     RDKit          3D

  0  0  0  0  0  0  0  0  0  0999 V3000
M  V30 BEGIN CTAB
M  V30 COUNTS 34 35 0 0 0
M  V30 BEGIN ATOM
M  V30 1 N -4.31033 0.778839 0.131847 0
M  V30 2 C -2.93991 0.28565 0.259188 0
M  V30 3 C -2.64569 -0.699298 -0.835726 0
M  V30 4 C -1.18056 -0.745361 -1.19987 0
M  V30 5 C -0.418866 -0.345176 0.0146222 0
M  V30 6 N -0.680245 1.2052 -0.0156372 0
M  V30 7 C -2.04674 1.48376 0.212225 0
M  V30 8 C 1.06965 -0.294746 -0.0465882 0
M  V30 9 C 1.80368 0.625337 -0.748771 0
M  V30 10 C 3.15644 0.791844 -0.571023 0
M  V30 11 N 3.88668 1.82518 -1.2678 0
M  V30 12 C 3.84385 0.0183223 0.341992 0
M  V30 13 C 3.13375 -0.920228 1.063 0
M  V30 14 C 1.78594 -1.06511 0.865054 0
M  V30 15 C 1.01157 -2.14597 1.57143 0
M  V30 16 H -4.34709 1.6349 0.73346 0
M  V30 17 H -5.02553 0.0758805 0.406484 0
M  V30 18 H -2.80308 -0.179607 1.25306 0
M  V30 19 H -2.89855 -1.7098 -0.396979 0
M  V30 20 H -3.27715 -0.574782 -1.7135 0
M  V30 21 H -0.93325 -1.81782 -1.4899 0
M  V30 22 H -0.941836 -0.134675 -2.07566 0
M  V30 23 H -0.844833 -0.683015 0.954303 0
M  V30 24 H -0.531456 1.37223 -1.06592 0
M  V30 25 H -2.41867 2.22972 -0.561694 0
M  V30 26 H -2.12849 2.02541 1.18243 0
M  V30 27 H 1.31345 1.25293 -1.46592 0
M  V30 28 H 4.8724 1.772 -1.53656 0
M  V30 29 H 3.37626 2.73538 -1.52427 0
M  V30 30 H 4.91846 0.106756 0.523568 0
M  V30 31 H 3.66566 -1.55004 1.78656 0
M  V30 32 H 0.401588 -1.76318 2.37947 0
M  V30 33 H 1.71542 -2.86423 2.02087 0
M  V30 34 H 0.417477 -2.72629 0.816242 0
M  V30 END ATOM
M  V30 BEGIN BOND
M  V30 1 1 1 2
M  V30 2 1 2 3
M  V30 3 1 3 4
M  V30 4 1 4 5
M  V30 5 1 5 6
M  V30 6 1 6 7
M  V30 7 1 5 8
M  V30 8 2 8 9
M  V30 9 1 9 10
M  V30 10 1 10 11
M  V30 11 2 10 12
M  V30 12 1 12 13
M  V30 13 2 13 14
M  V30 14 1 14 15
M  V30 15 1 7 2
M  V30 16 1 14 8
M  V30 17 1 1 16
M  V30 18 1 1 17
M  V30 19 1 2 18
M  V30 20 1 3 19
M  V30 21 1 3 20
M  V30 22 1 4 21
M  V30 23 1 4 22
M  V30 24 1 5 23
M  V30 25 1 6 24
M  V30 26 1 7 25
M  V30 27 1 7 26
M  V30 28 1 9 27
M  V30 29 1 11 28
M  V30 30 1 11 29
M  V30 31 1 12 30
M  V30 32 1 13 31
M  V30 33 1 15 32
M  V30 34 1 15 33
M  V30 35 1 15 34
M  V30 END BOND
M  V30 END CTAB
M  END
