
     RDKit          3D

  0  0  0  0  0  0  0  0  0  0999 V3000
M  V30 BEGIN CTAB
M  V30 COUNTS 60 62 0 0 0
M  V30 BEGIN ATOM
M  V30 1 C -0.847511 -2.65275 -2.32073 0
M  V30 2 O -0.353528 -1.89939 -1.2372 0
M  V30 3 C -1.16378 -1.41103 -0.246361 0
M  V30 4 C -2.52877 -1.59182 -0.198199 0
M  V30 5 C -3.32895 -1.08594 0.816184 0
M  V30 6 C -4.78587 -1.33204 0.791388 0
M  V30 7 C -5.54579 -0.481339 -0.124529 0
M  V30 8 C -5.90221 0.821612 0.0956902 0
M  V30 9 N -5.53684 1.42494 1.33126 0
M  V30 10 N -6.60179 1.53539 -0.840623 0
M  V30 11 C -6.96386 0.984109 -2.00738 0
M  V30 12 N -7.69841 1.74163 -2.98911 0
M  V30 13 N -6.62143 -0.294025 -2.23673 0
M  V30 14 C -5.93517 -1.03093 -1.34576 0
M  V30 15 C -2.687 -0.376302 1.80203 0
M  V30 16 C -1.3006 -0.180282 1.77294 0
M  V30 17 O -0.663953 0.549819 2.79043 0
M  V30 18 C -1.45561 1.06938 3.8291 0
M  V30 19 C -0.524577 -0.683879 0.767509 0
M  V30 20 O 0.860807 -0.499797 0.721211 0
M  V30 21 C 1.7151 -1.44929 1.36812 0
M  V30 22 C 3.16417 -1.07544 1.1881 0
M  V30 23 C 3.48087 0.278374 1.76502 0
M  V30 24 N 4.86414 0.610611 1.57039 0
M  V30 25 C 5.46541 0.848472 0.30526 0
M  V30 26 C 6.83734 0.970221 0.206503 0
M  V30 27 C 7.4684 1.21362 -0.997538 0
M  V30 28 C 6.75566 1.34611 -2.15735 0
M  V30 29 C 7.41038 1.60919 -3.47608 0
M  V30 30 C 5.39116 1.22997 -2.08877 0
M  V30 31 C 4.7533 0.983461 -0.867449 0
M  V30 32 H -1.87533 -2.37944 -2.61233 0
M  V30 33 H -0.159432 -2.5595 -3.21742 0
M  V30 34 H -0.841284 -3.7544 -2.11176 0
M  V30 35 H -3.02855 -2.15025 -0.972067 0
M  V30 36 H -5.16038 -1.24596 1.85643 0
M  V30 37 H -4.92292 -2.42907 0.566607 0
M  V30 38 H -6.13499 1.2694 2.19776 0
M  V30 39 H -4.70277 2.02949 1.46945 0
M  V30 40 H -8.4054 1.31474 -3.61355 0
M  V30 41 H -7.50939 2.75246 -3.07127 0
M  V30 42 H -5.67124 -2.06297 -1.55459 0
M  V30 43 H -3.24208 0.03896 2.63116 0
M  V30 44 H -0.795973 1.67852 4.47698 0
M  V30 45 H -1.94123 0.227245 4.35935 0
M  V30 46 H -2.22233 1.78402 3.42068 0
M  V30 47 H 1.4458 -1.53904 2.43887 0
M  V30 48 H 1.54476 -2.42806 0.882621 0
M  V30 49 H 3.52077 -1.22457 0.157063 0
M  V30 50 H 3.77685 -1.80269 1.80736 0
M  V30 51 H 3.263 0.227833 2.83921 0
M  V30 52 H 2.8826 1.08088 1.26413 0
M  V30 53 H 5.49535 0.6886 2.41379 0
M  V30 54 H 7.42888 0.868266 1.11683 0
M  V30 55 H 8.55369 1.30983 -1.07395 0
M  V30 56 H 7.10134 2.5953 -3.84219 0
M  V30 57 H 8.48786 1.45279 -3.41787 0
M  V30 58 H 6.95563 0.862128 -4.1779 0
M  V30 59 H 4.75833 1.32036 -2.94797 0
M  V30 60 H 3.67734 0.902478 -0.829805 0
M  V30 END ATOM
M  V30 BEGIN BOND
M  V30 1 1 1 2
M  V30 2 1 2 3
M  V30 3 2 3 4
M  V30 4 1 4 5
M  V30 5 1 5 6
M  V30 6 1 6 7
M  V30 7 2 7 8
M  V30 8 1 8 9
M  V30 9 1 8 10
M  V30 10 2 10 11
M  V30 11 1 11 12
M  V30 12 1 11 13
M  V30 13 2 13 14
M  V30 14 2 5 15
M  V30 15 1 15 16
M  V30 16 1 16 17
M  V30 17 1 17 18
M  V30 18 2 16 19
M  V30 19 1 19 20
M  V30 20 1 20 21
M  V30 21 1 21 22
M  V30 22 1 22 23
M  V30 23 1 23 24
M  V30 24 1 24 25
M  V30 25 2 25 26
M  V30 26 1 26 27
M  V30 27 2 27 28
M  V30 28 1 28 29
M  V30 29 1 28 30
M  V30 30 2 30 31
M  V30 31 1 19 3
M  V30 32 1 31 25
M  V30 33 1 14 7
M  V30 34 1 1 32
M  V30 35 1 1 33
M  V30 36 1 1 34
M  V30 37 1 4 35
M  V30 38 1 6 36
M  V30 39 1 6 37
M  V30 40 1 9 38
M  V30 41 1 9 39
M  V30 42 1 12 40
M  V30 43 1 12 41
M  V30 44 1 14 42
M  V30 45 1 15 43
M  V30 46 1 18 44
M  V30 47 1 18 45
M  V30 48 1 18 46
M  V30 49 1 21 47
M  V30 50 1 21 48
M  V30 51 1 22 49
M  V30 52 1 22 50
M  V30 53 1 23 51
M  V30 54 1 23 52
M  V30 55 1 24 53
M  V30 56 1 26 54
M  V30 57 1 27 55
M  V30 58 1 29 56
M  V30 59 1 29 57
M  V30 60 1 29 58
M  V30 61 1 30 59
M  V30 62 1 31 60
M  V30 END BOND
M  V30 END CTAB
M  END
