
     RDKit          3D

  0  0  0  0  0  0  0  0  0  0999 V3000
M  V30 BEGIN CTAB
M  V30 COUNTS 56 59 0 0 0
M  V30 BEGIN ATOM
M  V30 1 N -5.02878 3.58251 1.19222 0
M  V30 2 C -3.88333 3.45179 1.12517 0
M  V30 3 C -2.42907 3.31203 1.0481 0
M  V30 4 C -1.61431 4.36893 1.3432 0
M  V30 5 N -2.21163 5.59744 1.72393 0
M  V30 6 N -0.289289 4.17853 1.25341 0
M  V30 7 C 0.217103 2.96111 0.877339 0
M  V30 8 C -0.535536 1.86025 0.567046 0
M  V30 9 C -1.92223 2.08908 0.670493 0
M  V30 10 C -2.86953 1.02709 0.389454 0
M  V30 11 C -3.44403 0.951673 -0.849003 0
M  V30 12 C -4.38156 -0.00252057 -1.18178 0
M  V30 13 C -4.7442 -0.912401 -0.21317 0
M  V30 14 C -4.1633 -0.842186 1.05041 0
M  V30 15 C -3.23249 0.123633 1.34413 0
M  V30 16 C -5.7515 -1.9722 -0.488942 0
M  V30 17 C -5.43889 -2.71637 -1.75868 0
M  V30 18 C -7.0922 -1.26067 -0.71074 0
M  V30 19 C 0.150453 0.7317 0.21318 0
M  V30 20 N -0.511796 -0.526517 -0.161438 0
M  V30 21 C 1.49895 0.823466 0.209314 0
M  V30 22 S 1.82853 2.41539 0.676594 0
M  V30 23 C 2.46193 -0.240564 -0.124514 0
M  V30 24 O 2.02419 -1.3457 -0.442602 0
M  V30 25 N 3.82866 0.0534469 -0.063446 0
M  V30 26 C 4.93569 -0.743621 -0.319912 0
M  V30 27 C 4.81612 -2.00752 -0.831956 0
M  V30 28 C 5.95221 -2.79593 -1.06617 0
M  V30 29 C 7.21228 -2.32817 -0.791028 0
M  V30 30 C 7.34551 -1.05978 -0.27655 0
M  V30 31 C 6.23947 -0.293579 -0.0493239 0
M  V30 32 O 8.61792 -0.586713 0.00181802 0
M  V30 33 C 9.76686 -1.34385 -0.217975 0
M  V30 34 H -2.17644 5.8193 2.75688 0
M  V30 35 H -2.65439 6.23434 1.02745 0
M  V30 36 H -3.20377 1.64272 -1.6702 0
M  V30 37 H -4.83341 -0.0566607 -2.16389 0
M  V30 38 H -4.44803 -1.56605 1.82935 0
M  V30 39 H -2.8115 0.118734 2.37036 0
M  V30 40 H -5.87294 -2.6478 0.379841 0
M  V30 41 H -6.25461 -3.47375 -1.89345 0
M  V30 42 H -5.54652 -2.01368 -2.61672 0
M  V30 43 H -4.45687 -3.18832 -1.68795 0
M  V30 44 H -7.56608 -1.01893 0.262294 0
M  V30 45 H -6.95695 -0.346814 -1.28777 0
M  V30 46 H -7.7454 -1.99233 -1.23144 0
M  V30 47 H -0.657653 -1.29476 0.490498 0
M  V30 48 H -0.808686 -0.578189 -1.15669 0
M  V30 49 H 4.0596 1.06381 0.228773 0
M  V30 50 H 3.88995 -2.49191 -1.09586 0
M  V30 51 H 5.85265 -3.81014 -1.47717 0
M  V30 52 H 8.07648 -2.95774 -0.980876 0
M  V30 53 H 6.3656 0.709729 0.358904 0
M  V30 54 H 9.82985 -2.23725 0.460161 0
M  V30 55 H 9.88777 -1.71881 -1.23626 0
M  V30 56 H 10.6791 -0.745276 0.0129032 0
M  V30 END ATOM
M  V30 BEGIN BOND
M  V30 1 3 1 2
M  V30 2 1 2 3
M  V30 3 2 3 4
M  V30 4 1 4 5
M  V30 5 1 4 6
M  V30 6 2 6 7
M  V30 7 1 7 8
M  V30 8 2 8 9
M  V30 9 1 9 10
M  V30 10 2 10 11
M  V30 11 1 11 12
M  V30 12 2 12 13
M  V30 13 1 13 14
M  V30 14 2 14 15
M  V30 15 1 13 16
M  V30 16 1 16 17
M  V30 17 1 16 18
M  V30 18 1 8 19
M  V30 19 1 19 20
M  V30 20 2 19 21
M  V30 21 1 21 22
M  V30 22 1 21 23
M  V30 23 2 23 24
M  V30 24 1 23 25
M  V30 25 1 25 26
M  V30 26 2 26 27
M  V30 27 1 27 28
M  V30 28 2 28 29
M  V30 29 1 29 30
M  V30 30 2 30 31
M  V30 31 1 30 32
M  V30 32 1 32 33
M  V30 33 1 9 3
M  V30 34 1 15 10
M  V30 35 1 31 26
M  V30 36 1 22 7
M  V30 37 1 5 34
M  V30 38 1 5 35
M  V30 39 1 11 36
M  V30 40 1 12 37
M  V30 41 1 14 38
M  V30 42 1 15 39
M  V30 43 1 16 40
M  V30 44 1 17 41
M  V30 45 1 17 42
M  V30 46 1 17 43
M  V30 47 1 18 44
M  V30 48 1 18 45
M  V30 49 1 18 46
M  V30 50 1 20 47
M  V30 51 1 20 48
M  V30 52 1 25 49
M  V30 53 1 27 50
M  V30 54 1 28 51
M  V30 55 1 29 52
M  V30 56 1 31 53
M  V30 57 1 33 54
M  V30 58 1 33 55
M  V30 59 1 33 56
M  V30 END BOND
M  V30 END CTAB
M  END
