
     RDKit          3D

  0  0  0  0  0  0  0  0  0  0999 V3000
M  V30 BEGIN CTAB
M  V30 COUNTS 68 71 0 0 0
M  V30 BEGIN ATOM
M  V30 1 C -8.34794 3.42202 1.43172 0
M  V30 2 O -8.9766 2.3288 0.805475 0
M  V30 3 C -8.23753 1.25989 0.326634 0
M  V30 4 C -6.87731 1.26293 0.462157 0
M  V30 5 C -6.07055 0.201804 -0.00601397 0
M  V30 6 N -4.6869 0.283729 0.193555 0
M  V30 7 C -3.7461 -0.436969 -0.538473 0
M  V30 8 O -4.05169 -1.21869 -1.44728 0
M  V30 9 C -2.30855 -0.236932 -0.188395 0
M  V30 10 S -1.69898 0.790489 1.02256 0
M  V30 11 C -0.039369 0.435593 0.764572 0
M  V30 12 C 0.00977471 -0.468137 -0.250362 0
M  V30 13 C -1.23824 -0.824652 -0.759391 0
M  V30 14 N -1.50125 -1.77037 -1.84816 0
M  V30 15 C 1.29978 -0.878147 -0.602725 0
M  V30 16 C 2.30129 -0.329505 0.101334 0
M  V30 17 S 1.59978 0.721843 1.22718 0
M  V30 18 C 3.76156 -0.546292 -0.0194405 0
M  V30 19 O 4.14087 -1.33317 -0.875014 0
M  V30 20 N 4.62631 0.148828 0.837957 0
M  V30 21 C 6.02164 0.106574 0.907577 0
M  V30 22 C 6.68591 0.887568 1.874 0
M  V30 23 C 8.04956 0.878985 1.9782 0
M  V30 24 O 8.72909 1.64392 2.92724 0
M  V30 25 C 7.97575 2.452 3.80679 0
M  V30 26 C 8.78412 0.0997993 1.131 0
M  V30 27 C 8.20981 -0.68644 0.165954 0
M  V30 28 C 6.81846 -0.6513 0.090418 0
M  V30 29 O 8.96077 -1.48022 -0.696956 0
M  V30 30 C 8.28497 -2.25575 -1.65811 0
M  V30 31 O 10.1695 0.0784754 1.22217 0
M  V30 32 C 10.9132 1.01885 0.4514 0
M  V30 33 N 1.65682 -1.83151 -1.64731 0
M  V30 34 C -6.7547 -0.827514 -0.603524 0
M  V30 35 C -8.11915 -0.849015 -0.749397 0
M  V30 36 C -8.86463 0.203989 -0.280038 0
M  V30 37 O -10.2659 0.182348 -0.430038 0
M  V30 38 C -10.7497 0.761566 -1.63342 0
M  V30 39 O -8.77612 -1.90317 -1.35785 0
M  V30 40 C -8.06121 -3.0055 -1.85539 0
M  V30 41 H -7.95978 3.14025 2.44864 0
M  V30 42 H -9.06726 4.25572 1.55614 0
M  V30 43 H -7.49238 3.78617 0.804466 0
M  V30 44 H -6.33714 2.07957 0.935406 0
M  V30 45 H -4.32908 0.939426 0.96034 0
M  V30 46 H -1.19341 -1.46701 -2.77748 0
M  V30 47 H -1.96232 -2.67583 -1.69335 0
M  V30 48 H 4.1208 0.803013 1.5335 0
M  V30 49 H 6.1238 1.49764 2.53844 0
M  V30 50 H 8.63666 2.87199 4.60119 0
M  V30 51 H 7.57414 3.32189 3.2398 0
M  V30 52 H 7.14399 1.90918 4.25639 0
M  V30 53 H 6.40813 -1.28765 -0.687169 0
M  V30 54 H 7.66217 -3.04979 -1.21417 0
M  V30 55 H 7.62567 -1.62021 -2.28934 0
M  V30 56 H 9.00408 -2.73 -2.36737 0
M  V30 57 H 11.2861 1.80371 1.13581 0
M  V30 58 H 11.7767 0.53465 -0.0414045 0
M  V30 59 H 10.2733 1.50641 -0.320569 0
M  V30 60 H 1.59773 -2.84181 -1.46816 0
M  V30 61 H 1.96501 -1.47587 -2.55532 0
M  V30 62 H -6.20773 -1.67791 -0.969262 0
M  V30 63 H -10.4946 1.84505 -1.68428 0
M  V30 64 H -10.2812 0.207511 -2.46232 0
M  V30 65 H -11.8509 0.663251 -1.70418 0
M  V30 66 H -8.81351 -3.77425 -2.15918 0
M  V30 67 H -7.34348 -3.43467 -1.12452 0
M  V30 68 H -7.49198 -2.76717 -2.77263 0
M  V30 END ATOM
M  V30 BEGIN BOND
M  V30 1 1 1 2
M  V30 2 1 2 3
M  V30 3 2 3 4
M  V30 4 1 4 5
M  V30 5 1 5 6
M  V30 6 1 6 7
M  V30 7 2 7 8
M  V30 8 1 7 9
M  V30 9 1 9 10
M  V30 10 1 10 11
M  V30 11 2 11 12
M  V30 12 1 12 13
M  V30 13 1 13 14
M  V30 14 1 12 15
M  V30 15 2 15 16
M  V30 16 1 16 17
M  V30 17 1 16 18
M  V30 18 2 18 19
M  V30 19 1 18 20
M  V30 20 1 20 21
M  V30 21 2 21 22
M  V30 22 1 22 23
M  V30 23 1 23 24
M  V30 24 1 24 25
M  V30 25 2 23 26
M  V30 26 1 26 27
M  V30 27 2 27 28
M  V30 28 1 27 29
M  V30 29 1 29 30
M  V30 30 1 26 31
M  V30 31 1 31 32
M  V30 32 1 15 33
M  V30 33 2 5 34
M  V30 34 1 34 35
M  V30 35 2 35 36
M  V30 36 1 36 37
M  V30 37 1 37 38
M  V30 38 1 35 39
M  V30 39 1 39 40
M  V30 40 1 36 3
M  V30 41 2 13 9
M  V30 42 1 28 21
M  V30 43 1 17 11
M  V30 44 1 1 41
M  V30 45 1 1 42
M  V30 46 1 1 43
M  V30 47 1 4 44
M  V30 48 1 6 45
M  V30 49 1 14 46
M  V30 50 1 14 47
M  V30 51 1 20 48
M  V30 52 1 22 49
M  V30 53 1 25 50
M  V30 54 1 25 51
M  V30 55 1 25 52
M  V30 56 1 28 53
M  V30 57 1 30 54
M  V30 58 1 30 55
M  V30 59 1 30 56
M  V30 60 1 32 57
M  V30 61 1 32 58
M  V30 62 1 32 59
M  V30 63 1 33 60
M  V30 64 1 33 61
M  V30 65 1 34 62
M  V30 66 1 38 63
M  V30 67 1 38 64
M  V30 68 1 38 65
M  V30 69 1 40 66
M  V30 70 1 40 67
M  V30 71 1 40 68
M  V30 END BOND
M  V30 END CTAB
M  END
