
     RDKit          3D

  0  0  0  0  0  0  0  0  0  0999 V3000
M  V30 BEGIN CTAB
M  V30 COUNTS 28 28 0 0 0
M  V30 BEGIN ATOM
M  V30 1 C -5.18509 0.000534343 -0.363031 0
M  V30 2 C -3.84207 -0.164811 0.342652 0
M  V30 3 O -2.8492 0.112594 -0.621073 0
M  V30 4 C -1.51973 0.036795 -0.251502 0
M  V30 5 O -1.25589 -0.278092 0.934958 0
M  V30 6 C -0.404514 0.311783 -1.19798 0
M  V30 7 C 0.911468 0.159946 -0.557232 0
M  V30 8 C 1.64799 -0.978129 -0.833397 0
M  V30 9 C 2.88071 -1.10757 -0.224296 0
M  V30 10 N 3.62492 -2.27797 -0.515346 0
M  V30 11 C 3.34946 -0.121568 0.63208 0
M  V30 12 C 2.61588 1.01534 0.909172 0
M  V30 13 C 1.38215 1.13058 0.290902 0
M  V30 14 F 0.674575 2.25018 0.571815 0
M  V30 15 N 3.09776 2.03151 1.79126 0
M  V30 16 H -5.29804 -0.824606 -1.08018 0
M  V30 17 H -6.00978 0.103716 0.346241 0
M  V30 18 H -5.14811 0.956676 -0.958466 0
M  V30 19 H -3.8088 -1.2403 0.673607 0
M  V30 20 H -3.76805 0.452549 1.23832 0
M  V30 21 H -0.545927 -0.355244 -2.06821 0
M  V30 22 H -0.492629 1.35204 -1.57721 0
M  V30 23 H 1.27758 -1.75131 -1.50637 0
M  V30 24 H 3.37928 -3.1737 -0.100276 0
M  V30 25 H 4.42861 -2.1944 -1.16483 0
M  V30 26 H 4.31858 -0.242823 1.09914 0
M  V30 27 H 3.35972 2.9495 1.37561 0
M  V30 28 H 3.17913 1.84677 2.81362 0
M  V30 END ATOM
M  V30 BEGIN BOND
M  V30 1 1 1 2
M  V30 2 1 2 3
M  V30 3 1 3 4
M  V30 4 2 4 5
M  V30 5 1 4 6
M  V30 6 1 6 7
M  V30 7 2 7 8
M  V30 8 1 8 9
M  V30 9 1 9 10
M  V30 10 2 9 11
M  V30 11 1 11 12
M  V30 12 2 12 13
M  V30 13 1 13 14
M  V30 14 1 12 15
M  V30 15 1 13 7
M  V30 16 1 1 16
M  V30 17 1 1 17
M  V30 18 1 1 18
M  V30 19 1 2 19
M  V30 20 1 2 20
M  V30 21 1 6 21
M  V30 22 1 6 22
M  V30 23 1 8 23
M  V30 24 1 10 24
M  V30 25 1 10 25
M  V30 26 1 11 26
M  V30 27 1 15 27
M  V30 28 1 15 28
M  V30 END BOND
M  V30 END CTAB
M  END
