
     RDKit          3D

  0  0  0  0  0  0  0  0  0  0999 V3000
M  V30 BEGIN CTAB
M  V30 COUNTS 23 24 0 0 0
M  V30 BEGIN ATOM
M  V30 1 N 2.18481 1.35546 -1.20339 0
M  V30 2 C 2.71204 0.239726 -0.510043 0
M  V30 3 N 3.89277 0.294588 -0.000946691 0
M  V30 4 C 1.91456 -1.02293 -0.352957 0
M  V30 5 N 0.693895 -0.715425 0.363186 0
M  V30 6 C 0.536063 -0.749655 1.70051 0
M  V30 7 N -0.738599 -0.401502 1.99338 0
M  V30 8 C -1.41008 -0.140877 0.848618 0
M  V30 9 C -0.493613 -0.343239 -0.168735 0
M  V30 10 N -0.905888 -0.150297 -1.42524 0
M  V30 11 C -2.17163 0.227927 -1.68107 0
M  V30 12 N -3.06961 0.425763 -0.676756 0
M  V30 13 C -2.71538 0.247424 0.614124 0
M  V30 14 N -3.65252 0.454869 1.64592 0
M  V30 15 H 1.36077 1.84056 -0.764369 0
M  V30 16 H 2.59952 1.68247 -2.11523 0
M  V30 17 H 4.32966 -0.485684 0.514628 0
M  V30 18 H 1.69353 -1.34956 -1.40788 0
M  V30 19 H 2.50409 -1.82306 0.0941642 0
M  V30 20 H 1.33102 -1.01998 2.41259 0
M  V30 21 H -2.54614 0.394753 -2.68055 0
M  V30 22 H -4.44951 -0.195901 1.7321 0
M  V30 23 H -3.59975 1.23456 2.34489 0
M  V30 END ATOM
M  V30 BEGIN BOND
M  V30 1 1 1 2
M  V30 2 2 2 3 CFG=2
M  V30 3 1 2 4
M  V30 4 1 4 5
M  V30 5 1 5 6
M  V30 6 2 6 7
M  V30 7 1 7 8
M  V30 8 2 8 9
M  V30 9 1 9 10
M  V30 10 2 10 11
M  V30 11 1 11 12
M  V30 12 2 12 13
M  V30 13 1 13 14
M  V30 14 1 9 5
M  V30 15 1 13 8
M  V30 16 1 1 15
M  V30 17 1 1 16
M  V30 18 1 3 17
M  V30 19 1 4 18
M  V30 20 1 4 19
M  V30 21 1 6 20
M  V30 22 1 11 21
M  V30 23 1 14 22
M  V30 24 1 14 23
M  V30 END BOND
M  V30 END CTAB
M  END
