
     RDKit          3D

  0  0  0  0  0  0  0  0  0  0999 V3000
M  V30 BEGIN CTAB
M  V30 COUNTS 52 54 0 0 0
M  V30 BEGIN ATOM
M  V30 1 N 7.39722 -1.9603 0.818276 0
M  V30 2 C 6.60804 -1.02051 0.0733506 0
M  V30 3 C 5.90557 -0.048977 0.988667 0
M  V30 4 C 4.62112 -0.773868 0.762485 0
M  V30 5 C 5.27858 -1.51592 -0.400747 0
M  V30 6 C 3.53375 0.128943 0.307688 0
M  V30 7 C 2.20478 -0.191146 0.380792 0
M  V30 8 C 1.24243 0.671862 -0.0715541 0
M  V30 9 N 1.66671 1.8558 -0.592635 0
M  V30 10 C 2.96875 2.19627 -0.675072 0
M  V30 11 N 3.87107 1.31555 -0.219529 0
M  V30 12 N 3.40818 3.43247 -1.20973 0
M  V30 13 N -0.16138 0.36072 -0.0267987 0
M  V30 14 C -0.651327 -0.659538 -0.912425 0
M  V30 15 C -1.53296 -0.153263 -2.02224 0
M  V30 16 O -2.64537 0.462789 -1.5451 0
M  V30 17 C -3.72559 0.115472 -0.832201 0
M  V30 18 C -4.65026 1.12834 -0.535154 0
M  V30 19 C -5.79449 0.88804 0.186765 0
M  V30 20 C -6.75132 2.01233 0.477877 0
M  V30 21 C -6.05798 -0.376303 0.638619 0
M  V30 22 C -5.18695 -1.40553 0.376219 0
M  V30 23 C -4.03907 -1.13517 -0.354597 0
M  V30 24 C -5.50097 -2.75551 0.884155 0
M  V30 25 C -0.986211 1.09845 0.885731 0
M  V30 26 H 7.26726 -1.81338 1.83611 0
M  V30 27 H 8.39764 -1.80932 0.571588 0
M  V30 28 H 7.19171 -0.518258 -0.746021 0
M  V30 29 H 5.90201 0.991945 0.591256 0
M  V30 30 H 6.28217 -0.0595574 2.04348 0
M  V30 31 H 4.32066 -1.51696 1.54807 0
M  V30 32 H 4.99576 -1.13283 -1.38614 0
M  V30 33 H 5.17181 -2.61964 -0.33295 0
M  V30 34 H 1.92557 -1.15351 0.809644 0
M  V30 35 H 3.45968 4.22601 -0.53263 0
M  V30 36 H 3.64936 3.49322 -2.21823 0
M  V30 37 H 0.227561 -1.1427 -1.40286 0
M  V30 38 H -1.18161 -1.43922 -0.309445 0
M  V30 39 H -0.901038 0.551042 -2.63378 0
M  V30 40 H -1.7256 -1.02631 -2.69502 0
M  V30 41 H -4.45838 2.14983 -0.888219 0
M  V30 42 H -7.53392 1.68519 1.18122 0
M  V30 43 H -6.12669 2.83164 0.904528 0
M  V30 44 H -7.20039 2.42026 -0.4365 0
M  V30 45 H -6.97349 -0.5414 1.20994 0
M  V30 46 H -3.38451 -1.96619 -0.561562 0
M  V30 47 H -6.12963 -3.29724 0.158517 0
M  V30 48 H -4.58782 -3.35398 1.08755 0
M  V30 49 H -6.11689 -2.69642 1.8261 0
M  V30 50 H -1.49496 1.97201 0.385874 0
M  V30 51 H -1.67698 0.483451 1.49097 0
M  V30 52 H -0.321618 1.6113 1.64756 0
M  V30 END ATOM
M  V30 BEGIN BOND
M  V30 1 1 1 2
M  V30 2 1 2 3
M  V30 3 1 3 4
M  V30 4 1 4 5
M  V30 5 1 4 6
M  V30 6 2 6 7
M  V30 7 1 7 8
M  V30 8 2 8 9
M  V30 9 1 9 10
M  V30 10 2 10 11
M  V30 11 1 10 12
M  V30 12 1 8 13
M  V30 13 1 13 14
M  V30 14 1 14 15
M  V30 15 1 15 16
M  V30 16 1 16 17
M  V30 17 2 17 18
M  V30 18 1 18 19
M  V30 19 1 19 20
M  V30 20 2 19 21
M  V30 21 1 21 22
M  V30 22 2 22 23
M  V30 23 1 22 24
M  V30 24 1 13 25
M  V30 25 1 5 2
M  V30 26 1 11 6
M  V30 27 1 23 17
M  V30 28 1 1 26
M  V30 29 1 1 27
M  V30 30 1 2 28
M  V30 31 1 3 29
M  V30 32 1 3 30
M  V30 33 1 4 31
M  V30 34 1 5 32
M  V30 35 1 5 33
M  V30 36 1 7 34
M  V30 37 1 12 35
M  V30 38 1 12 36
M  V30 39 1 14 37
M  V30 40 1 14 38
M  V30 41 1 15 39
M  V30 42 1 15 40
M  V30 43 1 18 41
M  V30 44 1 20 42
M  V30 45 1 20 43
M  V30 46 1 20 44
M  V30 47 1 21 45
M  V30 48 1 23 46
M  V30 49 1 24 47
M  V30 50 1 24 48
M  V30 51 1 24 49
M  V30 52 1 25 50
M  V30 53 1 25 51
M  V30 54 1 25 52
M  V30 END BOND
M  V30 END CTAB
M  END
