
     RDKit          3D

  0  0  0  0  0  0  0  0  0  0999 V3000
M  V30 BEGIN CTAB
M  V30 COUNTS 22 22 0 0 0
M  V30 BEGIN ATOM
M  V30 1 C 3.09774 1.16854 -0.334237 0
M  V30 2 N 2.01411 0.201586 -0.141223 0
M  V30 3 C 0.765162 0.487576 0.272122 0
M  V30 4 C 0.0210064 -0.680311 0.336035 0
M  V30 5 N 0.869989 -1.65076 -0.0506974 0
M  V30 6 C 2.07721 -1.129 -0.341463 0
M  V30 7 C -1.41764 -0.815119 0.748899 0
M  V30 8 C -2.07634 0.545374 0.678353 0
M  V30 9 N -1.97019 1.00297 -0.710731 0
M  V30 10 N -2.05217 -1.68785 -0.203927 0
M  V30 11 H 3.64718 1.34396 0.630274 0
M  V30 12 H 3.81094 0.796485 -1.08992 0
M  V30 13 H 2.67905 2.11229 -0.710446 0
M  V30 14 H 0.378467 1.47733 0.522911 0
M  V30 15 H 2.9756 -1.64255 -0.680763 0
M  V30 16 H -1.51285 -1.17464 1.79055 0
M  V30 17 H -3.1397 0.405901 0.894037 0
M  V30 18 H -1.65089 1.26161 1.38255 0
M  V30 19 H -2.36885 1.95922 -0.721962 0
M  V30 20 H -2.62212 0.381728 -1.27122 0
M  V30 21 H -1.9715 -2.69645 0.126358 0
M  V30 22 H -1.55423 -1.66788 -1.12549 0
M  V30 END ATOM
M  V30 BEGIN BOND
M  V30 1 1 1 2
M  V30 2 1 2 3
M  V30 3 2 3 4
M  V30 4 1 4 5
M  V30 5 2 5 6
M  V30 6 1 4 7
M  V30 7 1 7 8
M  V30 8 1 8 9
M  V30 9 1 7 10
M  V30 10 1 6 2
M  V30 11 1 1 11
M  V30 12 1 1 12
M  V30 13 1 1 13
M  V30 14 1 3 14
M  V30 15 1 6 15
M  V30 16 1 7 16
M  V30 17 1 8 17
M  V30 18 1 8 18
M  V30 19 1 9 19
M  V30 20 1 9 20
M  V30 21 1 10 21
M  V30 22 1 10 22
M  V30 END BOND
M  V30 END CTAB
M  END
