
     RDKit          3D

  0  0  0  0  0  0  0  0  0  0999 V3000
M  V30 BEGIN CTAB
M  V30 COUNTS 16 16 0 0 0
M  V30 BEGIN ATOM
M  V30 1 N -2.46671 1.09379 -0.252094 0
M  V30 2 N -1.56384 0.352533 0.521729 0
M  V30 3 C -0.18142 0.20799 0.221223 0
M  V30 4 N 0.678495 1.24898 0.298359 0
M  V30 5 C 1.99007 1.09112 0.0413204 0
M  V30 6 Br 3.26726 2.50234 0.114088 0
M  V30 7 C 2.4708 -0.169684 -0.311875 0
M  V30 8 N 1.64567 -1.22499 -0.397697 0
M  V30 9 C 0.341938 -1.02767 -0.133183 0
M  V30 10 N -0.606171 -2.09151 -0.19983 0
M  V30 11 H -2.01439 1.80342 -0.870832 0
M  V30 12 H -3.1141 1.64209 0.386222 0
M  V30 13 H -1.99125 -0.104284 1.36494 0
M  V30 14 H 3.51358 -0.33015 -0.52599 0
M  V30 15 H -0.615213 -2.87694 0.458251 0
M  V30 16 H -1.35472 -2.11703 -0.955262 0
M  V30 END ATOM
M  V30 BEGIN BOND
M  V30 1 1 1 2
M  V30 2 1 2 3
M  V30 3 2 3 4
M  V30 4 1 4 5
M  V30 5 1 5 6
M  V30 6 2 5 7
M  V30 7 1 7 8
M  V30 8 2 8 9
M  V30 9 1 9 10
M  V30 10 1 9 3
M  V30 11 1 1 11
M  V30 12 1 1 12
M  V30 13 1 2 13
M  V30 14 1 7 14
M  V30 15 1 10 15
M  V30 16 1 10 16
M  V30 END BOND
M  V30 END CTAB
M  END
