
     RDKit          3D

  0  0  0  0  0  0  0  0  0  0999 V3000
M  V30 BEGIN CTAB
M  V30 COUNTS 50 52 0 0 0
M  V30 BEGIN ATOM
M  V30 1 C -3.27956 3.60255 1.10443 0
M  V30 2 O -4.12787 2.49623 1.01044 0
M  V30 3 C -3.69165 1.18889 0.861184 0
M  V30 4 C -2.35243 0.844566 0.789465 0
M  V30 5 C -1.95549 -0.487527 0.638633 0
M  V30 6 C -0.529348 -0.864901 0.558595 0
M  V30 7 C -0.137784 -0.837776 -0.88765 0
M  V30 8 N 1.22308 -1.17236 -1.15485 0
M  V30 9 C 2.34782 -0.391114 -0.798919 0
M  V30 10 C 3.61886 -0.890184 -1.0509 0
M  V30 11 Cl 3.78208 -2.48966 -1.78881 0
M  V30 12 C 4.75002 -0.16859 -0.739227 0
M  V30 13 C 6.01551 -0.669049 -0.991617 0
M  V30 14 N 6.18452 -1.95087 -1.58404 0
M  V30 15 N 7.12479 0.0685135 -0.672058 0
M  V30 16 C 6.9608 1.27727 -0.113429 0
M  V30 17 N 8.13239 2.01911 0.207051 0
M  V30 18 N 5.74204 1.782 0.140088 0
M  V30 19 C 4.63625 1.09708 -0.155338 0
M  V30 20 C 3.37457 1.59878 0.0974309 0
M  V30 21 C 2.27648 0.852091 -0.226616 0
M  V30 22 C -2.91337 -1.47393 0.560088 0
M  V30 23 C -4.26261 -1.12281 0.632773 0
M  V30 24 O -5.23856 -2.09637 0.555986 0
M  V30 25 C -4.96336 -3.46989 0.40383 0
M  V30 26 C -4.64633 0.194032 0.781653 0
M  V30 27 O -5.97824 0.485229 0.847602 0
M  V30 28 C -6.80873 0.77991 -0.249914 0
M  V30 29 H -3.91496 4.48938 1.36591 0
M  V30 30 H -2.77278 3.84485 0.146234 0
M  V30 31 H -2.53537 3.48169 1.90623 0
M  V30 32 H -1.60145 1.60431 0.849622 0
M  V30 33 H 0.110183 -0.293472 1.23316 0
M  V30 34 H -0.466967 -1.94066 0.91401 0
M  V30 35 H -0.864754 -1.45843 -1.44085 0
M  V30 36 H -0.309723 0.208464 -1.27914 0
M  V30 37 H 1.39339 -2.07618 -1.6591 0
M  V30 38 H 6.23757 -2.0413 -2.60735 0
M  V30 39 H 6.26778 -2.80608 -1.00069 0
M  V30 40 H 8.94335 1.52051 0.671151 0
M  V30 41 H 8.17772 3.03159 -0.0160331 0
M  V30 42 H 3.3259 2.58303 0.550813 0
M  V30 43 H 1.29104 1.28072 -0.0244164 0
M  V30 44 H -2.66396 -2.51723 0.443841 0
M  V30 45 H -4.61636 -3.92781 1.32916 0
M  V30 46 H -5.84679 -4.02176 -0.00719541 0
M  V30 47 H -4.1927 -3.5514 -0.418 0
M  V30 48 H -7.34371 1.73695 -0.145138 0
M  V30 49 H -7.61284 -0.0136151 -0.247379 0
M  V30 50 H -6.28844 0.665241 -1.22307 0
M  V30 END ATOM
M  V30 BEGIN BOND
M  V30 1 1 1 2
M  V30 2 1 2 3
M  V30 3 2 3 4
M  V30 4 1 4 5
M  V30 5 1 5 6
M  V30 6 1 6 7
M  V30 7 1 7 8
M  V30 8 1 8 9
M  V30 9 2 9 10
M  V30 10 1 10 11
M  V30 11 1 10 12
M  V30 12 2 12 13
M  V30 13 1 13 14
M  V30 14 1 13 15
M  V30 15 2 15 16
M  V30 16 1 16 17
M  V30 17 1 16 18
M  V30 18 2 18 19
M  V30 19 1 19 20
M  V30 20 2 20 21
M  V30 21 2 5 22
M  V30 22 1 22 23
M  V30 23 1 23 24
M  V30 24 1 24 25
M  V30 25 2 23 26
M  V30 26 1 26 27
M  V30 27 1 27 28
M  V30 28 1 26 3
M  V30 29 1 21 9
M  V30 30 1 19 12
M  V30 31 1 1 29
M  V30 32 1 1 30
M  V30 33 1 1 31
M  V30 34 1 4 32
M  V30 35 1 6 33
M  V30 36 1 6 34
M  V30 37 1 7 35
M  V30 38 1 7 36
M  V30 39 1 8 37
M  V30 40 1 14 38
M  V30 41 1 14 39
M  V30 42 1 17 40
M  V30 43 1 17 41
M  V30 44 1 20 42
M  V30 45 1 21 43
M  V30 46 1 22 44
M  V30 47 1 25 45
M  V30 48 1 25 46
M  V30 49 1 25 47
M  V30 50 1 28 48
M  V30 51 1 28 49
M  V30 52 1 28 50
M  V30 END BOND
M  V30 END CTAB
M  END
