
     RDKit          3D

  0  0  0  0  0  0  0  0  0  0999 V3000
M  V30 BEGIN CTAB
M  V30 COUNTS 41 43 0 0 0
M  V30 BEGIN ATOM
M  V30 1 N -1.60844 4.01192 0.273796 0
M  V30 2 C -1.2612 2.70662 0.702281 0
M  V30 3 N -0.0452768 2.49648 1.27038 0
M  V30 4 C 0.323977 1.2674 1.69204 0
M  V30 5 C 1.66543 1.08407 2.31251 0
M  V30 6 O 2.70318 0.870961 1.4203 0
M  V30 7 C 2.86223 -0.138164 0.509514 0
M  V30 8 O 1.95605 -1.00189 0.457476 0
M  V30 9 C 3.99561 -0.27003 -0.386087 0
M  V30 10 C 5.04737 0.61786 -0.416479 0
M  V30 11 C 6.11815 0.464924 -1.28508 0
M  V30 12 C 6.13976 -0.611093 -2.15298 0
M  V30 13 C 5.09146 -1.51597 -2.13847 0
M  V30 14 C 4.02361 -1.33725 -1.25148 0
M  V30 15 N 2.99716 -2.3216 -1.31519 0
M  V30 16 F 7.18861 -0.773219 -3.01355 0
M  V30 17 N -0.541436 0.269757 1.53298 0
M  V30 18 C -1.78784 0.41067 0.966558 0
M  V30 19 N -2.07023 1.64911 0.580278 0
M  V30 20 N -2.62297 -0.722203 0.839879 0
M  V30 21 C -3.90066 -0.82887 0.317271 0
M  V30 22 C -4.4689 -2.08595 0.114347 0
M  V30 23 C -5.71598 -2.30268 -0.38228 0
M  V30 24 C -6.48957 -1.22178 -0.714871 0
M  V30 25 C -5.97881 0.0428801 -0.535026 0
M  V30 26 C -4.68925 0.233949 -0.0206533 0
M  V30 27 Cl -8.09995 -1.44016 -1.35765 0
M  V30 28 H -1.25638 4.87891 0.734889 0
M  V30 29 H -2.24497 4.10604 -0.539656 0
M  V30 30 H 1.6183 0.30818 3.13189 0
M  V30 31 H 1.90472 2.0369 2.87189 0
M  V30 32 H 5.04017 1.45753 0.254054 0
M  V30 33 H 6.95181 1.16072 -1.31549 0
M  V30 34 H 5.10965 -2.36313 -2.82259 0
M  V30 35 H 3.00588 -3.18743 -0.727118 0
M  V30 36 H 2.20623 -2.16563 -1.97885 0
M  V30 37 H -2.19635 -1.63563 1.2107 0
M  V30 38 H -3.88628 -2.96164 0.365386 0
M  V30 39 H -6.09233 -3.32631 -0.512825 0
M  V30 40 H -6.59884 0.883217 -0.801065 0
M  V30 41 H -4.39371 1.25254 0.084701 0
M  V30 END ATOM
M  V30 BEGIN BOND
M  V30 1 1 1 2
M  V30 2 2 2 3
M  V30 3 1 3 4
M  V30 4 1 4 5
M  V30 5 1 5 6
M  V30 6 1 6 7
M  V30 7 2 7 8
M  V30 8 1 7 9
M  V30 9 2 9 10
M  V30 10 1 10 11
M  V30 11 2 11 12
M  V30 12 1 12 13
M  V30 13 2 13 14
M  V30 14 1 14 15
M  V30 15 1 12 16
M  V30 16 2 4 17
M  V30 17 1 17 18
M  V30 18 2 18 19
M  V30 19 1 18 20
M  V30 20 1 20 21
M  V30 21 2 21 22
M  V30 22 1 22 23
M  V30 23 2 23 24
M  V30 24 1 24 25
M  V30 25 2 25 26
M  V30 26 1 24 27
M  V30 27 1 19 2
M  V30 28 1 26 21
M  V30 29 1 14 9
M  V30 30 1 1 28
M  V30 31 1 1 29
M  V30 32 1 5 30
M  V30 33 1 5 31
M  V30 34 1 10 32
M  V30 35 1 11 33
M  V30 36 1 13 34
M  V30 37 1 15 35
M  V30 38 1 15 36
M  V30 39 1 20 37
M  V30 40 1 22 38
M  V30 41 1 23 39
M  V30 42 1 25 40
M  V30 43 1 26 41
M  V30 END BOND
M  V30 END CTAB
M  END
