
     RDKit          3D

  0  0  0  0  0  0  0  0  0  0999 V3000
M  V30 BEGIN CTAB
M  V30 COUNTS 27 28 0 0 0
M  V30 BEGIN ATOM
M  V30 1 N 4.55834 1.00067 -0.0710037 0
M  V30 2 C 3.22418 0.582089 -0.294489 0
M  V30 3 C 2.82512 -0.650514 0.159941 0
M  V30 4 C 1.52891 -1.08301 -0.0450209 0
M  V30 5 N 1.18892 -2.36283 0.450249 0
M  V30 6 C 0.588896 -0.308844 -0.705708 0
M  V30 7 C 0.999938 0.927958 -1.15834 0
M  V30 8 C 2.3084 1.36518 -0.951747 0
M  V30 9 N -0.700864 -0.833047 -0.86548 0
M  V30 10 C -1.77144 -0.34775 -0.354797 0
M  V30 11 C -1.82326 0.833462 0.479078 0
M  V30 12 C -2.9694 1.29099 0.982447 0
M  V30 13 C -4.19408 0.570163 0.674825 0
M  V30 14 O -5.30158 0.991299 1.14658 0
M  V30 15 C -4.1791 -0.631869 -0.167697 0
M  V30 16 C -3.02641 -1.06468 -0.654842 0
M  V30 17 H 5.15095 0.585564 0.676962 0
M  V30 18 H 4.98417 1.74524 -0.659093 0
M  V30 19 H 3.54089 -1.27735 0.680599 0
M  V30 20 H 0.522307 -2.9545 -0.0783722 0
M  V30 21 H 1.60228 -2.69585 1.3254 0
M  V30 22 H 0.284282 1.54749 -1.67554 0
M  V30 23 H 2.62758 2.33908 -1.30958 0
M  V30 24 H -0.89419 1.34525 0.687953 0
M  V30 25 H -2.95708 2.18641 1.60629 0
M  V30 26 H -5.10546 -1.15854 -0.387417 0
M  V30 27 H -3.01228 -1.94207 -1.27034 0
M  V30 END ATOM
M  V30 BEGIN BOND
M  V30 1 1 1 2
M  V30 2 2 2 3
M  V30 3 1 3 4
M  V30 4 1 4 5
M  V30 5 2 4 6
M  V30 6 1 6 7
M  V30 7 2 7 8
M  V30 8 1 6 9
M  V30 9 2 9 10
M  V30 10 1 10 11
M  V30 11 2 11 12
M  V30 12 1 12 13
M  V30 13 2 13 14
M  V30 14 1 13 15
M  V30 15 2 15 16
M  V30 16 1 8 2
M  V30 17 1 16 10
M  V30 18 1 1 17
M  V30 19 1 1 18
M  V30 20 1 3 19
M  V30 21 1 5 20
M  V30 22 1 5 21
M  V30 23 1 7 22
M  V30 24 1 8 23
M  V30 25 1 11 24
M  V30 26 1 12 25
M  V30 27 1 15 26
M  V30 28 1 16 27
M  V30 END BOND
M  V30 END CTAB
M  END
