
     RDKit          3D

  0  0  0  0  0  0  0  0  0  0999 V3000
M  V30 BEGIN CTAB
M  V30 COUNTS 46 48 0 0 0
M  V30 BEGIN ATOM
M  V30 1 C -3.57036 -3.96321 -0.00570468 0
M  V30 2 O -4.16447 -2.70654 -0.132314 0
M  V30 3 C -3.49578 -1.50965 -0.141102 0
M  V30 4 C -2.12459 -1.47324 -0.0190463 0
M  V30 5 C -1.45597 -0.242623 -0.0297957 0
M  V30 6 C 0.0144068 -0.248477 0.109855 0
M  V30 7 N 0.608737 0.910503 -0.507965 0
M  V30 8 C 2.03329 1.04071 -0.426242 0
M  V30 9 C 2.82091 0.0975926 0.217812 0
M  V30 10 C 4.18004 0.316048 0.240226 0
M  V30 11 C 4.79016 1.39878 -0.330607 0
M  V30 12 N 3.99868 2.30135 -0.951166 0
M  V30 13 C 2.6698 2.1241 -0.994526 0
M  V30 14 N 6.12426 1.53781 -0.264111 0
M  V30 15 C 6.87197 0.613781 0.36425 0
M  V30 16 N 8.285 0.712804 0.463146 0
M  V30 17 N 6.31154 -0.469618 0.941006 0
M  V30 18 C 4.97731 -0.608544 0.874436 0
M  V30 19 N 4.35502 -1.73672 1.47072 0
M  V30 20 C -2.17624 0.916662 -0.162022 0
M  V30 21 C -3.56804 0.90249 -0.287311 0
M  V30 22 O -4.32375 2.03786 -0.421522 0
M  V30 23 C -3.82476 3.34371 -0.451911 0
M  V30 24 C -4.19994 -0.322984 -0.273613 0
M  V30 25 O -5.58692 -0.40496 -0.394539 0
M  V30 26 C -6.34422 -0.370621 0.799503 0
M  V30 27 H -3.35521 -4.14538 1.06733 0
M  V30 28 H -4.29662 -4.75478 -0.316023 0
M  V30 29 H -2.62307 -4.05589 -0.580044 0
M  V30 30 H -1.5943 -2.41145 0.0833272 0
M  V30 31 H 0.336521 -0.379175 1.16494 0
M  V30 32 H 0.422478 -1.14312 -0.425217 0
M  V30 33 H 0.0787243 1.64449 -1.00366 0
M  V30 34 H 2.37305 -0.760989 0.67447 0
M  V30 35 H 2.02464 2.85832 -1.49949 0
M  V30 36 H 8.923 0.490958 -0.328036 0
M  V30 37 H 8.71803 1.01901 1.35847 0
M  V30 38 H 4.78014 -2.6716 1.27745 0
M  V30 39 H 3.52942 -1.71944 2.07178 0
M  V30 40 H -1.73017 1.88092 -0.173811 0
M  V30 41 H -4.63432 4.03016 -0.776371 0
M  V30 42 H -3.49427 3.69507 0.550755 0
M  V30 43 H -3.02273 3.39964 -1.20624 0
M  V30 44 H -5.763 0.070582 1.63671 0
M  V30 45 H -6.60379 -1.43342 1.03507 0
M  V30 46 H -7.27462 0.189072 0.691179 0
M  V30 END ATOM
M  V30 BEGIN BOND
M  V30 1 1 1 2
M  V30 2 1 2 3
M  V30 3 2 3 4
M  V30 4 1 4 5
M  V30 5 1 5 6
M  V30 6 1 6 7
M  V30 7 1 7 8
M  V30 8 2 8 9
M  V30 9 1 9 10
M  V30 10 2 10 11
M  V30 11 1 11 12
M  V30 12 2 12 13
M  V30 13 1 11 14
M  V30 14 2 14 15
M  V30 15 1 15 16
M  V30 16 1 15 17
M  V30 17 2 17 18
M  V30 18 1 18 19
M  V30 19 2 5 20
M  V30 20 1 20 21
M  V30 21 1 21 22
M  V30 22 1 22 23
M  V30 23 2 21 24
M  V30 24 1 24 25
M  V30 25 1 25 26
M  V30 26 1 24 3
M  V30 27 1 13 8
M  V30 28 1 18 10
M  V30 29 1 1 27
M  V30 30 1 1 28
M  V30 31 1 1 29
M  V30 32 1 4 30
M  V30 33 1 6 31
M  V30 34 1 6 32
M  V30 35 1 7 33
M  V30 36 1 9 34
M  V30 37 1 13 35
M  V30 38 1 16 36
M  V30 39 1 16 37
M  V30 40 1 19 38
M  V30 41 1 19 39
M  V30 42 1 20 40
M  V30 43 1 23 41
M  V30 44 1 23 42
M  V30 45 1 23 43
M  V30 46 1 26 44
M  V30 47 1 26 45
M  V30 48 1 26 46
M  V30 END BOND
M  V30 END CTAB
M  END
