
     RDKit          3D

  0  0  0  0  0  0  0  0  0  0999 V3000
M  V30 BEGIN CTAB
M  V30 COUNTS 25 26 0 0 0
M  V30 BEGIN ATOM
M  V30 1 N 3.17736 -1.61751 -0.164064 0
M  V30 2 C 2.00328 -0.86269 -0.0604509 0
M  V30 3 C 0.737312 -1.404 -0.197037 0
M  V30 4 C -0.35682 -0.556583 -0.0740893 0
M  V30 5 C -1.68906 -1.16167 -0.224391 0
M  V30 6 C -2.79508 -0.321402 0.307681 0
M  V30 7 C -2.65953 1.13936 0.0163099 0
M  V30 8 C -1.34267 1.73486 0.316638 0
M  V30 9 C -0.201852 0.788415 0.176937 0
M  V30 10 N 1.04548 1.24234 0.296959 0
M  V30 11 C 2.15181 0.503783 0.194314 0
M  V30 12 N 3.44959 1.06797 0.336012 0
M  V30 13 H 3.54299 -2.11818 0.667355 0
M  V30 14 H 3.68459 -1.68537 -1.04857 0
M  V30 15 H 0.63942 -2.46302 -0.393972 0
M  V30 16 H -1.87233 -1.36768 -1.29702 0
M  V30 17 H -1.74527 -2.15743 0.287264 0
M  V30 18 H -2.97764 -0.478859 1.38353 0
M  V30 19 H -3.74413 -0.662954 -0.203308 0
M  V30 20 H -2.92794 1.29736 -1.06485 0
M  V30 21 H -3.44887 1.66867 0.594267 0
M  V30 22 H -1.17937 2.60898 -0.374176 0
M  V30 23 H -1.3261 2.20862 1.33876 0
M  V30 24 H 4.30378 0.55135 0.118834 0
M  V30 25 H 3.53106 2.04564 0.674322 0
M  V30 END ATOM
M  V30 BEGIN BOND
M  V30 1 1 1 2
M  V30 2 2 2 3
M  V30 3 1 3 4
M  V30 4 1 4 5
M  V30 5 1 5 6
M  V30 6 1 6 7
M  V30 7 1 7 8
M  V30 8 1 8 9
M  V30 9 1 9 10
M  V30 10 2 10 11
M  V30 11 1 11 12
M  V30 12 1 11 2
M  V30 13 2 9 4
M  V30 14 1 1 13
M  V30 15 1 1 14
M  V30 16 1 3 15
M  V30 17 1 5 16
M  V30 18 1 5 17
M  V30 19 1 6 18
M  V30 20 1 6 19
M  V30 21 1 7 20
M  V30 22 1 7 21
M  V30 23 1 8 22
M  V30 24 1 8 23
M  V30 25 1 12 24
M  V30 26 1 12 25
M  V30 END BOND
M  V30 END CTAB
M  END
