
     RDKit          3D

  0  0  0  0  0  0  0  0  0  0999 V3000
M  V30 BEGIN CTAB
M  V30 COUNTS 38 41 0 0 0
M  V30 BEGIN ATOM
M  V30 1 N -6.33454 2.24723 0.0760937 0
M  V30 2 C -5.70321 0.980171 0.102885 0
M  V30 3 N -4.34914 0.97576 0.0207316 0
M  V30 4 C -3.65865 -0.177324 0.0380623 0
M  V30 5 N -4.34858 -1.31397 0.138529 0
M  V30 6 C -5.70497 -1.34306 0.222548 0
M  V30 7 N -6.31599 -2.61611 0.325246 0
M  V30 8 N -6.36233 -0.186114 0.203003 0
M  V30 9 C -2.19846 -0.202758 -0.0494529 0
M  V30 10 C -1.53662 -1.41556 -0.0273186 0
M  V30 11 C -0.189151 -1.48913 -0.104999 0
M  V30 12 C 0.554785 -0.306062 -0.210495 0
M  V30 13 N 1.97424 -0.471958 -0.318011 0
M  V30 14 C 2.85986 0.456123 0.271369 0
M  V30 15 N 2.45324 1.48017 1.00475 0
M  V30 16 N 3.25835 2.34149 1.59045 0
M  V30 17 N 4.56858 2.23015 1.47633 0
M  V30 18 C 5.1195 1.22694 0.75363 0
M  V30 19 C 4.25348 0.334689 0.14772 0
M  V30 20 C 4.80556 -0.686224 -0.588878 0
M  V30 21 C 6.19455 -0.829306 -0.728689 0
M  V30 22 C 7.01201 0.0832812 -0.106889 0
M  V30 23 C 6.50445 1.12715 0.644536 0
M  V30 24 C -0.0759817 0.910563 -0.235766 0
M  V30 25 C -1.47104 0.962774 -0.153649 0
M  V30 26 H -7.08125 2.44172 0.767937 0
M  V30 27 H -6.06926 2.97632 -0.612528 0
M  V30 28 H -5.96791 -3.43495 -0.219285 0
M  V30 29 H -7.13231 -2.77292 0.948459 0
M  V30 30 H -2.13777 -2.32696 0.0557151 0
M  V30 31 H 0.333986 -2.45192 -0.0873433 0
M  V30 32 H 2.26583 -1.30167 -0.85087 0
M  V30 33 H 4.14845 -1.38513 -1.06585 0
M  V30 34 H 6.5967 -1.63994 -1.31249 0
M  V30 35 H 8.09588 -0.0410183 -0.224871 0
M  V30 36 H 7.11723 1.84168 1.13212 0
M  V30 37 H 0.482863 1.85103 -0.340331 0
M  V30 38 H -1.96238 1.92486 -0.173289 0
M  V30 END ATOM
M  V30 BEGIN BOND
M  V30 1 1 1 2
M  V30 2 2 2 3
M  V30 3 1 3 4
M  V30 4 2 4 5
M  V30 5 1 5 6
M  V30 6 1 6 7
M  V30 7 2 6 8
M  V30 8 1 4 9
M  V30 9 2 9 10
M  V30 10 1 10 11
M  V30 11 2 11 12
M  V30 12 1 12 13
M  V30 13 1 13 14
M  V30 14 2 14 15
M  V30 15 1 15 16
M  V30 16 2 16 17
M  V30 17 1 17 18
M  V30 18 2 18 19
M  V30 19 1 19 20
M  V30 20 2 20 21
M  V30 21 1 21 22
M  V30 22 2 22 23
M  V30 23 1 12 24
M  V30 24 2 24 25
M  V30 25 1 8 2
M  V30 26 1 25 9
M  V30 27 1 19 14
M  V30 28 1 23 18
M  V30 29 1 1 26
M  V30 30 1 1 27
M  V30 31 1 7 28
M  V30 32 1 7 29
M  V30 33 1 10 30
M  V30 34 1 11 31
M  V30 35 1 13 32
M  V30 36 1 20 33
M  V30 37 1 21 34
M  V30 38 1 22 35
M  V30 39 1 23 36
M  V30 40 1 24 37
M  V30 41 1 25 38
M  V30 END BOND
M  V30 END CTAB
M  END
