
     RDKit          3D

  0  0  0  0  0  0  0  0  0  0999 V3000
M  V30 BEGIN CTAB
M  V30 COUNTS 27 26 0 0 0
M  V30 BEGIN ATOM
M  V30 1 C -2.51855 -1.40506 0.116711 0
M  V30 2 C -2.05575 -0.0480541 -0.334066 0
M  V30 3 C -0.693645 0.319498 0.132327 0
M  V30 4 N 0.299024 -0.642293 -0.337399 0
M  V30 5 C 1.65983 -0.509174 -0.0241177 0
M  V30 6 N 2.38872 0.439457 -0.549698 0
M  V30 7 N 3.72889 0.543605 -0.219864 0
M  V30 8 N 2.23666 -1.43178 0.882429 0
M  V30 9 C -0.32861 1.64848 -0.538116 0
M  V30 10 C -0.557854 0.426262 1.61267 0
M  V30 11 O -2.97039 0.885578 0.130329 0
M  V30 12 H -3.58948 -1.40931 0.420287 0
M  V30 13 H -1.94584 -1.80191 0.972129 0
M  V30 14 H -2.4129 -2.11873 -0.71316 0
M  V30 15 H -2.09454 0.000658723 -1.44589 0
M  V30 16 H -0.00161616 -1.44886 -0.919093 0
M  V30 17 H 4.14683 1.33244 0.316259 0
M  V30 18 H 4.3752 -0.214516 -0.523831 0
M  V30 19 H 2.49123 -1.09507 1.82975 0
M  V30 20 H 2.41551 -2.4245 0.643674 0
M  V30 21 H 0.294655 2.27687 0.114674 0
M  V30 22 H 0.204892 1.45966 -1.50245 0
M  V30 23 H -1.23171 2.22911 -0.809296 0
M  V30 24 H -1.48714 0.629487 2.15593 0
M  V30 25 H -0.0250966 -0.480746 2.02291 0
M  V30 26 H 0.163696 1.26855 1.8325 0
M  V30 27 H -2.49202 1.57034 0.651818 0
M  V30 END ATOM
M  V30 BEGIN BOND
M  V30 1 1 1 2
M  V30 2 1 2 3
M  V30 3 1 3 4
M  V30 4 1 4 5
M  V30 5 2 5 6 CFG=2
M  V30 6 1 6 7
M  V30 7 1 5 8
M  V30 8 1 3 9
M  V30 9 1 3 10
M  V30 10 1 2 11
M  V30 11 1 1 12
M  V30 12 1 1 13
M  V30 13 1 1 14
M  V30 14 1 2 15
M  V30 15 1 4 16
M  V30 16 1 7 17
M  V30 17 1 7 18
M  V30 18 1 8 19
M  V30 19 1 8 20
M  V30 20 1 9 21
M  V30 21 1 9 22
M  V30 22 1 9 23
M  V30 23 1 10 24
M  V30 24 1 10 25
M  V30 25 1 10 26
M  V30 26 1 11 27
M  V30 END BOND
M  V30 END CTAB
M  END
