
     RDKit          3D

  0  0  0  0  0  0  0  0  0  0999 V3000
M  V30 BEGIN CTAB
M  V30 COUNTS 28 28 0 0 0
M  V30 BEGIN ATOM
M  V30 1 C 3.51958 -0.0102194 0.443286 0
M  V30 2 C 2.11925 0.583154 0.0737678 0 CFG=1
M  V30 3 C 1.32551 -0.566173 -0.374976 0
M  V30 4 C -0.0364617 -0.602056 -0.818756 0
M  V30 5 C -1.18051 -0.133704 -0.0635367 0
M  V30 6 C -1.43824 1.11762 0.368366 0
M  V30 7 C -2.66876 1.4835 0.928833 0
M  V30 8 Cl -2.98655 3.13006 1.45745 0
M  V30 9 C -3.66754 0.561616 1.04932 0
M  V30 10 N -3.44439 -0.715056 0.616752 0
M  V30 11 C -2.24164 -1.04997 0.0819777 0
M  V30 12 N -1.95644 -2.40415 -0.260337 0
M  V30 13 O -0.0282123 0.32296 -1.9969 0
M  V30 14 N 1.68906 1.18037 1.33284 0
M  V30 15 H 3.96004 -0.303398 -0.494128 0
M  V30 16 H 3.32474 -0.861888 1.13467 0
M  V30 17 H 4.05365 0.787179 0.929028 0
M  V30 18 H 2.29344 1.37046 -0.629352 0
M  V30 19 H 1.96731 -0.971303 -1.27256 0
M  V30 20 H 1.5597 -1.40421 0.381193 0
M  V30 21 H -0.282693 -1.54966 -1.42424 0
M  V30 22 H -0.721691 1.89526 0.257291 0
M  V30 23 H -4.66026 0.794553 1.48009 0
M  V30 24 H -2.34522 -2.87388 -1.05872 0
M  V30 25 H -1.28418 -2.91494 0.394999 0
M  V30 26 H -1.00311 0.497248 -2.18679 0
M  V30 27 H 1.92225 0.557051 2.16304 0
M  V30 28 H 2.21137 2.07957 1.42408 0
M  V30 END ATOM
M  V30 BEGIN BOND
M  V30 1 1 1 2
M  V30 2 1 2 3
M  V30 3 1 3 4
M  V30 4 1 4 5
M  V30 5 2 5 6
M  V30 6 1 6 7
M  V30 7 1 7 8
M  V30 8 2 7 9
M  V30 9 1 9 10
M  V30 10 2 10 11
M  V30 11 1 11 12
M  V30 12 1 4 13
M  V30 13 1 2 14
M  V30 14 1 11 5
M  V30 15 1 1 15
M  V30 16 1 1 16
M  V30 17 1 1 17
M  V30 18 1 2 18 CFG=3
M  V30 19 1 3 19
M  V30 20 1 3 20
M  V30 21 1 4 21
M  V30 22 1 6 22
M  V30 23 1 9 23
M  V30 24 1 12 24
M  V30 25 1 12 25
M  V30 26 1 13 26
M  V30 27 1 14 27
M  V30 28 1 14 28
M  V30 END BOND
M  V30 END CTAB
M  END
