
     RDKit          3D

  0  0  0  0  0  0  0  0  0  0999 V3000
M  V30 BEGIN CTAB
M  V30 COUNTS 42 43 0 0 0
M  V30 BEGIN ATOM
M  V30 1 O 5.76907 1.22093 -1.30641 0
M  V30 2 C 5.13985 0.237513 -0.900892 0
M  V30 3 C 5.03248 0.0919778 0.600096 0
M  V30 4 C 4.3332 1.29609 1.21302 0
M  V30 5 C 2.94098 1.45863 0.667554 0
M  V30 6 C 2.06832 0.275167 0.934704 0
M  V30 7 N 0.753909 0.51503 0.37871 0
M  V30 8 C -0.298772 -0.422247 0.468338 0
M  V30 9 C -1.52292 -0.126193 -0.08381 0
M  V30 10 C -2.51792 -1.0725 0.0294561 0
M  V30 11 N -2.28652 -2.23211 0.656448 0
M  V30 12 C -1.08079 -2.53391 1.20512 0
M  V30 13 N -0.122338 -1.6001 1.08547 0
M  V30 14 N -0.848764 -3.7764 1.87152 0
M  V30 15 C -3.88396 -0.836593 -0.541993 0 CFG=2
M  V30 16 C -3.86093 -0.290779 -1.96345 0
M  V30 17 C -5.05728 0.57743 -1.54918 0 CFG=1
M  V30 18 C -4.50323 0.479978 -0.121142 0
M  V30 19 N -5.05964 1.89637 -2.10266 0
M  V30 20 H 5.88302 1.79516 -1.75952 0
M  V30 21 H 5.65054 -0.698958 -1.26056 0
M  V30 22 H 4.12111 0.223581 -1.38082 0
M  V30 23 H 6.05912 0.0450625 0.994101 0
M  V30 24 H 4.52756 -0.844249 0.874557 0
M  V30 25 H 4.92683 2.19011 0.932192 0
M  V30 26 H 4.36962 1.21725 2.31817 0
M  V30 27 H 3.01179 1.63285 -0.409223 0
M  V30 28 H 2.49049 2.34556 1.16082 0
M  V30 29 H 2.4622 -0.634458 0.396213 0
M  V30 30 H 1.97947 0.0544533 2.02442 0
M  V30 31 H 0.581901 1.41625 -0.106028 0
M  V30 32 H -1.73009 0.800902 -0.592539 0
M  V30 33 H -1.38579 -4.60009 1.52398 0
M  V30 34 H -0.198902 -3.89656 2.65283 0
M  V30 35 H -4.58 -1.66836 -0.381884 0
M  V30 36 H -2.96256 0.317935 -2.14667 0
M  V30 37 H -4.09148 -1.04431 -2.72968 0
M  V30 38 H -6.00907 0.0166067 -1.57924 0
M  V30 39 H -5.26526 0.430006 0.659136 0
M  V30 40 H -3.67465 1.21631 0.0595031 0
M  V30 41 H -5.89112 1.94554 -2.76547 0
M  V30 42 H -5.26945 2.5811 -1.34345 0
M  V30 END ATOM
M  V30 BEGIN BOND
M  V30 1 1 1 2
M  V30 2 1 2 3
M  V30 3 1 3 4
M  V30 4 1 4 5
M  V30 5 1 5 6
M  V30 6 1 6 7
M  V30 7 1 7 8
M  V30 8 2 8 9
M  V30 9 1 9 10
M  V30 10 2 10 11
M  V30 11 1 11 12
M  V30 12 2 12 13
M  V30 13 1 12 14
M  V30 14 1 10 15
M  V30 15 1 15 16
M  V30 16 1 16 17
M  V30 17 1 17 18
M  V30 18 1 17 19
M  V30 19 1 13 8
M  V30 20 1 18 15
M  V30 21 1 1 20
M  V30 22 1 2 21
M  V30 23 1 2 22
M  V30 24 1 3 23
M  V30 25 1 3 24
M  V30 26 1 4 25
M  V30 27 1 4 26
M  V30 28 1 5 27
M  V30 29 1 5 28
M  V30 30 1 6 29
M  V30 31 1 6 30
M  V30 32 1 7 31
M  V30 33 1 9 32
M  V30 34 1 14 33
M  V30 35 1 14 34
M  V30 36 1 15 35 CFG=3
M  V30 37 1 16 36
M  V30 38 1 16 37
M  V30 39 1 17 38 CFG=1
M  V30 40 1 18 39
M  V30 41 1 18 40
M  V30 42 1 19 41
M  V30 43 1 19 42
M  V30 END BOND
M  V30 END CTAB
M  END
