
     RDKit          3D

  0  0  0  0  0  0  0  0  0  0999 V3000
M  V30 BEGIN CTAB
M  V30 COUNTS 31 32 0 0 0
M  V30 BEGIN ATOM
M  V30 1 N 5.6721 0.606494 0.153263 0
M  V30 2 C 4.84154 -0.588442 0.059764 0
M  V30 3 C 3.38903 -0.202369 0.14842 0
M  V30 4 C 2.74251 -0.140197 1.36609 0
M  V30 5 C 1.41331 0.209679 1.48387 0
M  V30 6 C 0.694411 0.508715 0.367874 0
M  V30 7 C 1.33552 0.448862 -0.85894 0
M  V30 8 C 2.66667 0.0994202 -0.98709 0
M  V30 9 C -0.729343 0.895601 0.363656 0
M  V30 10 O -1.60361 -0.180362 0.248524 0
M  V30 11 C -2.96492 0.0540738 0.233 0
M  V30 12 N -3.43038 1.30909 0.328469 0
M  V30 13 C -4.74717 1.59501 0.31854 0
M  V30 14 N -5.664 0.606184 0.209734 0
M  V30 15 C -5.26802 -0.678249 0.109921 0
M  V30 16 C -3.91103 -0.950237 0.1221 0
M  V30 17 N -3.46099 -2.28146 0.0196617 0
M  V30 18 Cl -6.47898 -1.93578 -0.0296494 0
M  V30 19 H 5.30042 1.13753 0.991875 0
M  V30 20 H 5.5177 1.1752 -0.692525 0
M  V30 21 H 5.05199 -1.07933 -0.922219 0
M  V30 22 H 5.0757 -1.30466 0.849069 0
M  V30 23 H 3.31175 -0.3774 2.25419 0
M  V30 24 H 0.901962 0.259289 2.44221 0
M  V30 25 H 0.804265 0.679837 -1.791 0
M  V30 26 H 3.15305 0.0580686 -1.9612 0
M  V30 27 H -0.935712 1.41182 1.32905 0
M  V30 28 H -0.971542 1.62024 -0.442153 0
M  V30 29 H -5.13301 2.60254 0.394869 0
M  V30 30 H -3.66439 -2.86958 -0.819596 0
M  V30 31 H -2.9088 -2.68959 0.805907 0
M  V30 END ATOM
M  V30 BEGIN BOND
M  V30 1 1 1 2
M  V30 2 1 2 3
M  V30 3 2 3 4
M  V30 4 1 4 5
M  V30 5 2 5 6
M  V30 6 1 6 7
M  V30 7 2 7 8
M  V30 8 1 6 9
M  V30 9 1 9 10
M  V30 10 1 10 11
M  V30 11 2 11 12
M  V30 12 1 12 13
M  V30 13 2 13 14
M  V30 14 1 14 15
M  V30 15 2 15 16
M  V30 16 1 16 17
M  V30 17 1 15 18
M  V30 18 1 8 3
M  V30 19 1 16 11
M  V30 20 1 1 19
M  V30 21 1 1 20
M  V30 22 1 2 21
M  V30 23 1 2 22
M  V30 24 1 4 23
M  V30 25 1 5 24
M  V30 26 1 7 25
M  V30 27 1 8 26
M  V30 28 1 9 27
M  V30 29 1 9 28
M  V30 30 1 13 29
M  V30 31 1 17 30
M  V30 32 1 17 31
M  V30 END BOND
M  V30 END CTAB
M  END
