
     RDKit          3D

  0  0  0  0  0  0  0  0  0  0999 V3000
M  V30 BEGIN CTAB
M  V30 COUNTS 56 60 0 0 0
M  V30 BEGIN ATOM
M  V30 1 Cl -0.00560479 5.23771 4.56117 0
M  V30 2 C 0.29627 4.00594 3.33986 0
M  V30 3 C -0.322612 4.04004 2.10609 0
M  V30 4 C -0.0597649 3.04336 1.15662 0
M  V30 5 C 0.806039 2.02582 1.42963 0
M  V30 6 C 1.4161 2.00546 2.66485 0
M  V30 7 C 1.16753 2.9854 3.61784 0
M  V30 8 C 1.10427 0.956207 0.498896 0
M  V30 9 N 2.37576 0.563362 0.157683 0
M  V30 10 N 2.33832 -0.449419 -0.683567 0
M  V30 11 C 1.0604 -0.734138 -0.905252 0
M  V30 12 C 0.233893 0.131487 -0.175698 0
M  V30 13 C -1.26189 0.110965 -0.16551 0
M  V30 14 C -1.81613 -0.248102 1.14932 0
M  V30 15 C -3.05108 0.253752 1.5849 0
M  V30 16 N -3.80537 1.10164 0.731786 0
M  V30 17 N -3.57382 -0.0255575 2.78481 0
M  V30 18 C -2.92424 -0.811622 3.63401 0
M  V30 19 S -3.57338 -1.14407 5.09465 0
M  V30 20 N -1.7362 -1.31932 3.2663 0
M  V30 21 C -1.17356 -1.06702 2.07449 0
M  V30 22 O -0.0699434 -1.58132 1.82094 0
M  V30 23 C -1.80762 -0.627973 -1.31574 0
M  V30 24 C -1.58266 -0.068902 -2.56956 0
M  V30 25 N -0.854313 1.15231 -2.71467 0
M  V30 26 N -2.06754 -0.705674 -3.63743 0
M  V30 27 C -2.75639 -1.84993 -3.56473 0
M  V30 28 S -3.33901 -2.60792 -4.89353 0
M  V30 29 N -2.97666 -2.39368 -2.36019 0
M  V30 30 C -2.50983 -1.79589 -1.22892 0
M  V30 31 O -2.75036 -2.35833 -0.109188 0
M  V30 32 C 3.46986 -1.12032 -1.25256 0
M  V30 33 C 4.6338 -1.30949 -0.525256 0
M  V30 34 C 5.74711 -1.94726 -1.02496 0
M  V30 35 C 5.67475 -2.41292 -2.31923 0
M  V30 36 C 4.51347 -2.23553 -3.07461 0
M  V30 37 C 3.42991 -1.59375 -2.53323 0
M  V30 38 H -0.995744 4.8364 1.90308 0
M  V30 39 H -0.577861 3.16843 0.228188 0
M  V30 40 H 2.1129 1.22945 2.94747 0
M  V30 41 H 1.65108 2.9606 4.58374 0
M  V30 42 H 0.653628 -1.51376 -1.54864 0
M  V30 43 H -1.57773 1.17867 -0.335196 0
M  V30 44 H -3.57583 2.11821 0.745961 0
M  V30 45 H -4.56584 0.794134 0.0955335 0
M  V30 46 H -4.50368 0.363236 3.09016 0
M  V30 47 H -1.24268 -1.94392 3.96866 0
M  V30 48 H 0.0293281 1.16634 -3.23754 0
M  V30 49 H -1.18759 2.0512 -2.30389 0
M  V30 50 H -1.89326 -0.276291 -4.58348 0
M  V30 51 H -3.50667 -3.28589 -2.22772 0
M  V30 52 H 4.66203 -0.934797 0.485113 0
M  V30 53 H 6.66834 -2.11254 -0.490187 0
M  V30 54 H 6.53029 -2.91781 -2.74204 0
M  V30 55 H 4.53786 -2.62607 -4.07084 0
M  V30 56 H 2.53194 -1.4609 -3.12838 0
M  V30 END ATOM
M  V30 BEGIN BOND
M  V30 1 1 1 2
M  V30 2 2 2 3
M  V30 3 1 3 4
M  V30 4 2 4 5
M  V30 5 1 5 6
M  V30 6 2 6 7
M  V30 7 1 5 8
M  V30 8 2 8 9
M  V30 9 1 9 10
M  V30 10 1 10 11
M  V30 11 2 11 12
M  V30 12 1 12 13
M  V30 13 1 13 14
M  V30 14 2 14 15
M  V30 15 1 15 16
M  V30 16 1 15 17
M  V30 17 1 17 18
M  V30 18 2 18 19
M  V30 19 1 18 20
M  V30 20 1 20 21
M  V30 21 2 21 22
M  V30 22 1 13 23
M  V30 23 2 23 24
M  V30 24 1 24 25
M  V30 25 1 24 26
M  V30 26 1 26 27
M  V30 27 2 27 28
M  V30 28 1 27 29
M  V30 29 1 29 30
M  V30 30 2 30 31
M  V30 31 1 10 32
M  V30 32 2 32 33
M  V30 33 1 33 34
M  V30 34 2 34 35
M  V30 35 1 35 36
M  V30 36 2 36 37
M  V30 37 1 7 2
M  V30 38 1 12 8
M  V30 39 1 21 14
M  V30 40 1 30 23
M  V30 41 1 37 32
M  V30 42 1 3 38
M  V30 43 1 4 39
M  V30 44 1 6 40
M  V30 45 1 7 41
M  V30 46 1 11 42
M  V30 47 1 13 43
M  V30 48 1 16 44
M  V30 49 1 16 45
M  V30 50 1 17 46
M  V30 51 1 20 47
M  V30 52 1 25 48
M  V30 53 1 25 49
M  V30 54 1 26 50
M  V30 55 1 29 51
M  V30 56 1 33 52
M  V30 57 1 34 53
M  V30 58 1 35 54
M  V30 59 1 36 55
M  V30 60 1 37 56
M  V30 END BOND
M  V30 END CTAB
M  END
