
     RDKit          3D

  0  0  0  0  0  0  0  0  0  0999 V3000
M  V30 BEGIN CTAB
M  V30 COUNTS 19 19 0 0 0
M  V30 BEGIN ATOM
M  V30 1 C 3.08064 -0.628687 -0.229622 0
M  V30 2 N 2.17744 0.453185 0.0948669 0
M  V30 3 N 0.784489 0.303572 0.0740721 0
M  V30 4 C 0.0746484 -0.806102 -0.232816 0
M  V30 5 C -1.27642 -0.56334 -0.141779 0
M  V30 6 N -2.36548 -1.45374 -0.379787 0
M  V30 7 C -1.40973 0.75578 0.238536 0
M  V30 8 N -2.56766 1.52978 0.478816 0
M  V30 9 C -0.127629 1.24675 0.358958 0
M  V30 10 H 4.03909 -0.253771 -0.658158 0
M  V30 11 H 2.55037 -1.27834 -0.955752 0
M  V30 12 H 3.37347 -1.19581 0.698388 0
M  V30 13 H 2.57374 1.3812 0.354628 0
M  V30 14 H 0.494584 -1.75981 -0.512908 0
M  V30 15 H -3.1989 -1.19483 -0.95641 0
M  V30 16 H -2.38511 -2.42567 0.0169483 0
M  V30 17 H -3.15482 1.79235 -0.33052 0
M  V30 18 H -2.82409 1.8271 1.43468 0
M  V30 19 H 0.161381 2.2704 0.647857 0
M  V30 END ATOM
M  V30 BEGIN BOND
M  V30 1 1 1 2
M  V30 2 1 2 3
M  V30 3 1 3 4
M  V30 4 2 4 5
M  V30 5 1 5 6
M  V30 6 1 5 7
M  V30 7 1 7 8
M  V30 8 2 7 9
M  V30 9 1 9 3
M  V30 10 1 1 10
M  V30 11 1 1 11
M  V30 12 1 1 12
M  V30 13 1 2 13
M  V30 14 1 4 14
M  V30 15 1 6 15
M  V30 16 1 6 16
M  V30 17 1 8 17
M  V30 18 1 8 18
M  V30 19 1 9 19
M  V30 END BOND
M  V30 END CTAB
M  END
