
     RDKit          3D

  0  0  0  0  0  0  0  0  0  0999 V3000
M  V30 BEGIN CTAB
M  V30 COUNTS 85 87 0 0 0
M  V30 BEGIN ATOM
M  V30 1 N 7.12307 -3.04158 1.49007 0
M  V30 2 C 7.06009 -3.79383 0.243659 0
M  V30 3 C 7.00034 -2.78228 -0.870944 0
M  V30 4 C 5.77997 -1.91466 -0.745728 0
M  V30 5 C 5.73046 -0.882472 -1.84853 0
M  V30 6 C 4.59463 0.0196065 -1.87043 0
M  V30 7 C 3.21098 -0.331753 -2.06176 0
M  V30 8 O 2.38038 0.658679 -1.73865 0
M  V30 9 N 2.54128 -1.45689 -2.51527 0
M  V30 10 C 3.02497 -2.71608 -3.08325 0
M  V30 11 C 2.35551 -3.72996 -2.19784 0
M  V30 12 C 1.04383 -3.02647 -1.79697 0
M  V30 13 C 1.07597 -1.71738 -2.54428 0
M  V30 14 C 0.255321 -0.645864 -2.01303 0
M  V30 15 O -0.241439 0.275948 -2.74974 0
M  V30 16 N -0.0504245 -0.558091 -0.645613 0
M  V30 17 C -0.888246 0.563159 -0.0854677 0
M  V30 18 C -2.21956 -0.00384107 0.227879 0
M  V30 19 O -2.3349 -1.27826 0.0770074 0
M  V30 20 N -3.3159 0.738008 0.644037 0
M  V30 21 C -4.61849 0.25574 0.914368 0
M  V30 22 C -5.16707 -0.900173 0.434877 0
M  V30 23 C -6.46198 -1.25052 0.75377 0
M  V30 24 C -7.25659 -0.484099 1.54967 0
M  V30 25 C -6.72476 0.713177 2.06525 0
M  V30 26 C -5.43462 1.0444 1.73441 0
M  V30 27 O -7.45656 1.4933 2.84144 0
M  V30 28 C -8.6772 1.17091 3.14057 0
M  V30 29 O -9.41575 1.88774 3.87925 0
M  V30 30 C -9.23717 0.0123913 2.65907 0
M  V30 31 C -8.55222 -0.874665 1.8372 0
M  V30 32 C -9.14825 -2.10242 1.31628 0
M  V30 33 F -10.4636 -2.13342 1.81685 0
M  V30 34 F -8.57895 -3.26182 1.74355 0
M  V30 35 F -9.32585 -2.06386 -0.0705027 0
M  V30 36 C -0.150292 0.993256 1.11153 0
M  V30 37 C -0.62966 2.1272 1.93584 0
M  V30 38 C -0.673655 3.44101 1.15344 0
M  V30 39 N -1.12107 4.50691 2.02701 0
M  V30 40 C -2.45739 4.51124 2.50926 0
M  V30 41 N -2.69374 3.96136 3.65795 0
M  V30 42 N -3.55285 5.08045 1.81698 0
M  V30 43 N 4.93837 1.31643 -2.45903 0
M  V30 44 C 5.14043 2.51789 -1.72341 0
M  V30 45 O 5.02466 2.54164 -0.484494 0
M  V30 46 C 5.50315 3.79084 -2.42167 0
M  V30 47 H 6.51798 -3.52961 2.17889 0
M  V30 48 H 8.11636 -3.03087 1.79363 0
M  V30 49 H 6.13136 -4.37929 0.25805 0
M  V30 50 H 7.93531 -4.4381 0.177437 0
M  V30 51 H 6.98572 -3.33329 -1.82881 0
M  V30 52 H 7.88546 -2.12307 -0.837254 0
M  V30 53 H 4.88406 -2.51934 -0.730842 0
M  V30 54 H 5.79579 -1.38645 0.255968 0
M  V30 55 H 6.72568 -0.320165 -1.72389 0
M  V30 56 H 5.8963 -1.34825 -2.86414 0
M  V30 57 H 4.62658 0.367793 -0.67915 0
M  V30 58 H 2.54054 -2.75296 -4.10853 0
M  V30 59 H 4.09325 -2.80493 -3.16578 0
M  V30 60 H 2.1593 -4.67862 -2.72118 0
M  V30 61 H 2.96684 -3.86827 -1.28545 0
M  V30 62 H 0.215907 -3.68468 -2.1632 0
M  V30 63 H 1.04362 -2.86173 -0.717513 0
M  V30 64 H 0.860697 -1.95922 -3.62166 0
M  V30 65 H 0.310701 -1.2662 0.0132427 0
M  V30 66 H -0.978952 1.31442 -0.871256 0
M  V30 67 H -3.17022 1.77562 0.768743 0
M  V30 68 H -4.62509 -1.559 -0.194696 0
M  V30 69 H -6.87181 -2.16827 0.343707 0
M  V30 70 H -5.07031 1.98777 2.16024 0
M  V30 71 H -10.2786 -0.253979 2.90865 0
M  V30 72 H 0.0508555 0.119361 1.81627 0
M  V30 73 H 0.926998 1.27208 0.819225 0
M  V30 74 H -1.54268 1.95463 2.51933 0
M  V30 75 H 0.190676 2.2963 2.71486 0
M  V30 76 H 0.296114 3.68145 0.700067 0
M  V30 77 H -1.43082 3.31737 0.323999 0
M  V30 78 H -0.435154 5.27262 2.30141 0
M  V30 79 H -3.63433 3.91611 4.09473 0
M  V30 80 H -3.44938 5.32828 0.796714 0
M  V30 81 H -4.45136 5.26432 2.29349 0
M  V30 82 H 5.04609 1.3685 -3.50219 0
M  V30 83 H 4.63057 4.50929 -2.40225 0
M  V30 84 H 5.74505 3.606 -3.48909 0
M  V30 85 H 6.42556 4.24347 -1.98639 0
M  V30 END ATOM
M  V30 BEGIN BOND
M  V30 1 1 1 2
M  V30 2 1 2 3
M  V30 3 1 3 4
M  V30 4 1 4 5
M  V30 5 1 5 6
M  V30 6 1 6 7
M  V30 7 2 7 8
M  V30 8 1 7 9
M  V30 9 1 9 10
M  V30 10 1 10 11
M  V30 11 1 11 12
M  V30 12 1 12 13
M  V30 13 1 13 14
M  V30 14 2 14 15
M  V30 15 1 14 16
M  V30 16 1 16 17
M  V30 17 1 17 18
M  V30 18 2 18 19
M  V30 19 1 18 20
M  V30 20 1 20 21
M  V30 21 2 21 22
M  V30 22 1 22 23
M  V30 23 2 23 24
M  V30 24 1 24 25
M  V30 25 2 25 26
M  V30 26 1 25 27
M  V30 27 1 27 28
M  V30 28 2 28 29
M  V30 29 1 28 30
M  V30 30 2 30 31
M  V30 31 1 31 32
M  V30 32 1 32 33
M  V30 33 1 32 34
M  V30 34 1 32 35
M  V30 35 1 17 36
M  V30 36 1 36 37
M  V30 37 1 37 38
M  V30 38 1 38 39
M  V30 39 1 39 40
M  V30 40 2 40 41 CFG=2
M  V30 41 1 40 42
M  V30 42 1 6 43
M  V30 43 1 43 44
M  V30 44 2 44 45
M  V30 45 1 44 46
M  V30 46 1 13 9
M  V30 47 1 26 21
M  V30 48 1 31 24
M  V30 49 1 1 47
M  V30 50 1 1 48
M  V30 51 1 2 49
M  V30 52 1 2 50
M  V30 53 1 3 51
M  V30 54 1 3 52
M  V30 55 1 4 53
M  V30 56 1 4 54
M  V30 57 1 5 55
M  V30 58 1 5 56
M  V30 59 1 6 57
M  V30 60 1 10 58
M  V30 61 1 10 59
M  V30 62 1 11 60
M  V30 63 1 11 61
M  V30 64 1 12 62
M  V30 65 1 12 63
M  V30 66 1 13 64
M  V30 67 1 16 65
M  V30 68 1 17 66
M  V30 69 1 20 67
M  V30 70 1 22 68
M  V30 71 1 23 69
M  V30 72 1 26 70
M  V30 73 1 30 71
M  V30 74 1 36 72
M  V30 75 1 36 73
M  V30 76 1 37 74
M  V30 77 1 37 75
M  V30 78 1 38 76
M  V30 79 1 38 77
M  V30 80 1 39 78
M  V30 81 1 41 79
M  V30 82 1 42 80
M  V30 83 1 42 81
M  V30 84 1 43 82
M  V30 85 1 46 83
M  V30 86 1 46 84
M  V30 87 1 46 85
M  V30 END BOND
M  V30 END CTAB
M  END
