
     RDKit          3D

  0  0  0  0  0  0  0  0  0  0999 V3000
M  V30 BEGIN CTAB
M  V30 COUNTS 42 43 0 0 0
M  V30 BEGIN ATOM
M  V30 1 C 4.65293 -1.12489 -0.3456 0
M  V30 2 C 3.61153 -1.47061 -1.34609 0
M  V30 3 O 2.74302 -0.469829 -1.73458 0
M  V30 4 C 1.87152 0.253949 -0.933429 0
M  V30 5 C 2.32103 1.44422 -0.371581 0
M  V30 6 N 3.6431 1.93722 -0.603706 0
M  V30 7 C 1.42882 2.15188 0.429237 0
M  V30 8 C 0.145192 1.70763 0.66849 0
M  V30 9 C -0.776586 2.49894 1.53346 0
M  V30 10 C -0.232315 0.514356 0.0755069 0
M  V30 11 C 0.592938 -0.242873 -0.72917 0
M  V30 12 C 0.140631 -1.50728 -1.3365 0
M  V30 13 C -1.57405 0.0559647 0.329158 0
M  V30 14 C -2.57424 0.450489 -0.521926 0
M  V30 15 N -2.35204 1.30806 -1.66816 0
M  V30 16 C -3.88921 0.0662492 -0.365253 0
M  V30 17 C -4.18852 -0.761384 0.716099 0
M  V30 18 C -3.18798 -1.16331 1.57775 0
M  V30 19 C -3.53046 -2.0561 2.73845 0
M  V30 20 C -1.88609 -0.757894 1.38731 0
M  V30 21 H 5.46662 -0.484313 -0.795049 0
M  V30 22 H 4.29447 -0.764575 0.617658 0
M  V30 23 H 5.20777 -2.08219 -0.102118 0
M  V30 24 H 3.09186 -2.4038 -0.990597 0
M  V30 25 H 4.15489 -1.8133 -2.27516 0
M  V30 26 H 4.26274 2.3221 0.137612 0
M  V30 27 H 3.99794 1.90398 -1.58108 0
M  V30 28 H 1.76322 3.07858 0.873137 0
M  V30 29 H -1.51727 1.86324 2.04924 0
M  V30 30 H -1.23267 3.35157 1.00163 0
M  V30 31 H -0.147215 2.94641 2.34293 0
M  V30 32 H 0.854879 -1.73642 -2.16112 0
M  V30 33 H 0.16077 -2.37596 -0.68417 0
M  V30 34 H -0.844213 -1.38619 -1.87712 0
M  V30 35 H -1.72832 1.06557 -2.43886 0
M  V30 36 H -2.85697 2.21862 -1.70378 0
M  V30 37 H -4.67634 0.388881 -1.05219 0
M  V30 38 H -5.22089 -1.07137 0.850854 0
M  V30 39 H -2.82151 -1.84275 3.54981 0
M  V30 40 H -3.4885 -3.12161 2.44925 0
M  V30 41 H -4.57645 -1.79123 3.05294 0
M  V30 42 H -1.10406 -1.10002 2.10032 0
M  V30 END ATOM
M  V30 BEGIN BOND
M  V30 1 1 1 2
M  V30 2 1 2 3
M  V30 3 1 3 4
M  V30 4 2 4 5
M  V30 5 1 5 6
M  V30 6 1 5 7
M  V30 7 2 7 8
M  V30 8 1 8 9
M  V30 9 1 8 10
M  V30 10 2 10 11
M  V30 11 1 11 12
M  V30 12 1 10 13
M  V30 13 2 13 14
M  V30 14 1 14 15
M  V30 15 1 14 16
M  V30 16 2 16 17
M  V30 17 1 17 18
M  V30 18 1 18 19
M  V30 19 2 18 20
M  V30 20 1 11 4
M  V30 21 1 20 13
M  V30 22 1 1 21
M  V30 23 1 1 22
M  V30 24 1 1 23
M  V30 25 1 2 24
M  V30 26 1 2 25
M  V30 27 1 6 26
M  V30 28 1 6 27
M  V30 29 1 7 28
M  V30 30 1 9 29
M  V30 31 1 9 30
M  V30 32 1 9 31
M  V30 33 1 12 32
M  V30 34 1 12 33
M  V30 35 1 12 34
M  V30 36 1 15 35
M  V30 37 1 15 36
M  V30 38 1 16 37
M  V30 39 1 17 38
M  V30 40 1 19 39
M  V30 41 1 19 40
M  V30 42 1 19 41
M  V30 43 1 20 42
M  V30 END BOND
M  V30 END CTAB
M  END
