
     RDKit          3D

  0  0  0  0  0  0  0  0  0  0999 V3000
M  V30 BEGIN CTAB
M  V30 COUNTS 22 23 0 0 0
M  V30 BEGIN ATOM
M  V30 1 N -2.42986 -2.10889 0.460008 0
M  V30 2 C -1.60562 -0.996441 0.174503 0
M  V30 3 N -0.264896 -0.954779 0.177963 0
M  V30 4 C 0.152631 0.294791 -0.148226 0
M  V30 5 N -0.974663 0.996205 -0.346038 0
M  V30 6 N -2.05403 0.222794 -0.153012 0
M  V30 7 C -3.44426 0.668767 -0.286053 0
M  V30 8 C 1.53257 0.764555 -0.257623 0
M  V30 9 C 1.9145 2.04755 -0.593115 0
M  V30 10 N 3.26552 2.12113 -0.597946 0
M  V30 11 N 3.71506 0.920031 -0.275122 0
M  V30 12 C 2.68947 0.0713116 -0.061571 0
M  V30 13 N 2.79316 -1.3059 0.304143 0
M  V30 14 H -2.31984 -2.58954 1.37747 0
M  V30 15 H -3.12622 -2.41183 -0.266159 0
M  V30 16 H -3.52048 1.53561 -0.956956 0
M  V30 17 H -4.09704 -0.142578 -0.640547 0
M  V30 18 H -3.85514 0.981616 0.711313 0
M  V30 19 H 1.2009 2.85154 -0.813685 0
M  V30 20 H 4.75009 0.692026 -0.203553 0
M  V30 21 H 2.10227 -2.012 -0.0136098 0
M  V30 22 H 3.57588 -1.64597 0.908588 0
M  V30 END ATOM
M  V30 BEGIN BOND
M  V30 1 1 1 2
M  V30 2 2 2 3
M  V30 3 1 3 4
M  V30 4 2 4 5
M  V30 5 1 5 6
M  V30 6 1 6 7
M  V30 7 1 4 8
M  V30 8 1 8 9
M  V30 9 2 9 10
M  V30 10 1 10 11
M  V30 11 1 11 12
M  V30 12 1 12 13
M  V30 13 1 6 2
M  V30 14 2 12 8
M  V30 15 1 1 14
M  V30 16 1 1 15
M  V30 17 1 7 16
M  V30 18 1 7 17
M  V30 19 1 7 18
M  V30 20 1 9 19
M  V30 21 1 11 20
M  V30 22 1 13 21
M  V30 23 1 13 22
M  V30 END BOND
M  V30 END CTAB
M  END
