
     RDKit          3D

  0  0  0  0  0  0  0  0  0  0999 V3000
M  V30 BEGIN CTAB
M  V30 COUNTS 61 61 0 0 0
M  V30 BEGIN ATOM
M  V30 1 C 7.50073 -0.16989 -1.01873 0
M  V30 2 C 7.16643 1.28138 -0.853178 0
M  V30 3 C 7.26664 1.79144 0.543016 0
M  V30 4 C 6.3599 1.1152 1.53656 0 CFG=2
M  V30 5 N 6.58791 -0.276881 1.66373 0
M  V30 6 C 4.94456 1.52233 1.36052 0
M  V30 7 O 4.75049 2.75903 1.20017 0
M  V30 8 N 3.83418 0.661468 1.35879 0
M  V30 9 C 2.50927 1.17971 1.17558 0
M  V30 10 C 1.70025 1.06577 2.44752 0
M  V30 11 P 1.69447 0.559784 -0.292159 0
M  V30 12 O 2.33125 -0.985608 -0.590611 0
M  V30 13 O 2.24434 1.38642 -1.47302 0
M  V30 14 C -0.0433221 0.455583 -0.261233 0
M  V30 15 C -0.766516 -0.816756 -0.208549 0
M  V30 16 N -2.20163 -0.435265 -0.213186 0
M  V30 17 C -3.08149 -0.845953 -1.25053 0
M  V30 18 O -2.56519 -1.56102 -2.17608 0
M  V30 19 C -4.50839 -0.487649 -1.29058 0 CFG=1
M  V30 20 N -5.11057 -1.09206 -2.46402 0
M  V30 21 C -5.22646 -1.0049 -0.0595051 0
M  V30 22 C -6.65695 -0.667826 -0.0626699 0
M  V30 23 C -7.60147 -1.51121 -0.622814 0
M  V30 24 C -8.95298 -1.18643 -0.622402 0
M  V30 25 C -9.40351 -0.00570931 -0.0604873 0
M  V30 26 C -8.47151 0.846087 0.502568 0
M  V30 27 C -7.12179 0.510668 0.49621 0
M  V30 28 C -0.644108 -1.63087 1.01162 0
M  V30 29 O 0.590714 -2.18795 1.3013 0
M  V30 30 O -1.55438 -1.882 1.83523 0
M  V30 31 H 7.90546 -0.313418 -2.03413 0
M  V30 32 H 8.22214 -0.541504 -0.308948 0
M  V30 33 H 6.56592 -0.769756 -0.983287 0
M  V30 34 H 6.18811 1.53528 -1.33802 0
M  V30 35 H 7.91876 1.85668 -1.46109 0
M  V30 36 H 8.32928 1.73573 0.874492 0
M  V30 37 H 7.00401 2.88157 0.566497 0
M  V30 38 H 6.65311 1.56841 2.53686 0
M  V30 39 H 7.10979 -0.579165 2.49698 0
M  V30 40 H 5.89121 -0.924533 1.30102 0
M  V30 41 H 3.96753 -0.352931 1.4912 0
M  V30 42 H 2.61466 2.29098 1.03016 0
M  V30 43 H 0.685955 1.41793 2.27196 0
M  V30 44 H 2.16439 1.76915 3.17793 0
M  V30 45 H 1.76523 0.0644438 2.90548 0
M  V30 46 H 1.79717 -1.48938 -1.24154 0
M  V30 47 H -0.427553 1.09299 0.59469 0
M  V30 48 H -0.45275 1.01317 -1.16076 0
M  V30 49 H -0.64228 -1.40816 -1.13779 0
M  V30 50 H -2.58357 0.144483 0.55337 0
M  V30 51 H -4.6746 0.607653 -1.38777 0
M  V30 52 H -4.54238 -0.971102 -3.3304 0
M  V30 53 H -5.22616 -2.11753 -2.24807 0
M  V30 54 H -5.02486 -2.09239 0.0133372 0
M  V30 55 H -4.74209 -0.48729 0.820047 0
M  V30 56 H -7.2892 -2.44091 -1.07102 0
M  V30 57 H -9.67639 -1.86702 -1.06955 0
M  V30 58 H -10.4553 0.241228 -0.063233 0
M  V30 59 H -8.84209 1.76524 0.938136 0
M  V30 60 H -6.39126 1.18954 0.943486 0
M  V30 61 H 0.616919 -3.20628 1.43043 0
M  V30 END ATOM
M  V30 BEGIN BOND
M  V30 1 1 1 2
M  V30 2 1 2 3
M  V30 3 1 3 4
M  V30 4 1 4 5
M  V30 5 1 4 6
M  V30 6 2 6 7
M  V30 7 1 6 8
M  V30 8 1 8 9
M  V30 9 1 9 10
M  V30 10 1 9 11
M  V30 11 1 11 12
M  V30 12 2 11 13
M  V30 13 1 11 14
M  V30 14 1 14 15
M  V30 15 1 15 16
M  V30 16 1 16 17
M  V30 17 2 17 18
M  V30 18 1 17 19
M  V30 19 1 19 20
M  V30 20 1 19 21
M  V30 21 1 21 22
M  V30 22 2 22 23
M  V30 23 1 23 24
M  V30 24 2 24 25
M  V30 25 1 25 26
M  V30 26 2 26 27
M  V30 27 1 15 28
M  V30 28 1 28 29
M  V30 29 2 28 30
M  V30 30 1 27 22
M  V30 31 1 1 31
M  V30 32 1 1 32
M  V30 33 1 1 33
M  V30 34 1 2 34
M  V30 35 1 2 35
M  V30 36 1 3 36
M  V30 37 1 3 37
M  V30 38 1 4 38 CFG=1
M  V30 39 1 5 39
M  V30 40 1 5 40
M  V30 41 1 8 41
M  V30 42 1 9 42
M  V30 43 1 10 43
M  V30 44 1 10 44
M  V30 45 1 10 45
M  V30 46 1 12 46
M  V30 47 1 14 47
M  V30 48 1 14 48
M  V30 49 1 15 49
M  V30 50 1 16 50
M  V30 51 1 19 51 CFG=3
M  V30 52 1 20 52
M  V30 53 1 20 53
M  V30 54 1 21 54
M  V30 55 1 21 55
M  V30 56 1 23 56
M  V30 57 1 24 57
M  V30 58 1 25 58
M  V30 59 1 26 59
M  V30 60 1 27 60
M  V30 61 1 29 61
M  V30 END BOND
M  V30 END CTAB
M  END
