
     RDKit          3D

  0  0  0  0  0  0  0  0  0  0999 V3000
M  V30 BEGIN CTAB
M  V30 COUNTS 30 30 0 0 0
M  V30 BEGIN ATOM
M  V30 1 C 1.96869 -0.03331 1.6022 0
M  V30 2 C 1.75735 0.510957 0.208281 0
M  V30 3 C 0.651941 -0.227461 -0.465956 0
M  V30 4 C -0.668874 -0.18843 0.170875 0
M  V30 5 C -1.33128 0.987752 0.409265 0
M  V30 6 C -0.744918 2.30176 0.0853946 0
M  V30 7 C -2.5903 0.936191 0.994146 0
M  V30 8 C -3.20492 -0.230664 1.3461 0
M  V30 9 N -2.54433 -1.362 1.10653 0
M  V30 10 C -1.32523 -1.3672 0.542979 0
M  V30 11 N -0.704901 -2.6561 0.324414 0
M  V30 12 C 0.657788 -0.126275 -1.96489 0
M  V30 13 N 1.90352 -0.674513 -2.52251 0
M  V30 14 F 1.09198 -1.58419 -0.270698 0
M  V30 15 H 1.02878 -0.094194 2.18122 0
M  V30 16 H 2.3266 -1.08238 1.48972 0
M  V30 17 H 2.69731 0.550267 2.1804 0
M  V30 18 H 1.78392 1.58694 0.112392 0
M  V30 19 H 2.69444 0.17066 -0.347975 0
M  V30 20 H -1.61172 3.03372 0.0524407 0
M  V30 21 H -0.269039 2.41505 -0.871847 0
M  V30 22 H -0.147544 2.70251 0.957672 0
M  V30 23 H -3.10905 1.89473 1.17843 0
M  V30 24 H -4.17603 -0.201048 1.79327 0
M  V30 25 H -0.821122 -3.04968 -0.63588 0
M  V30 26 H -0.186855 -3.16611 1.06393 0
M  V30 27 H -0.146186 -0.753379 -2.40929 0
M  V30 28 H 0.638557 0.908569 -2.34863 0
M  V30 29 H 1.74364 -1.24777 -3.35667 0
M  V30 30 H 2.63776 0.0456028 -2.60531 0
M  V30 END ATOM
M  V30 BEGIN BOND
M  V30 1 1 1 2
M  V30 2 1 2 3
M  V30 3 1 3 4
M  V30 4 2 4 5
M  V30 5 1 5 6
M  V30 6 1 5 7
M  V30 7 2 7 8
M  V30 8 1 8 9
M  V30 9 2 9 10
M  V30 10 1 10 11
M  V30 11 1 3 12
M  V30 12 1 12 13
M  V30 13 1 3 14
M  V30 14 1 10 4
M  V30 15 1 1 15
M  V30 16 1 1 16
M  V30 17 1 1 17
M  V30 18 1 2 18
M  V30 19 1 2 19
M  V30 20 1 6 20
M  V30 21 1 6 21
M  V30 22 1 6 22
M  V30 23 1 7 23
M  V30 24 1 8 24
M  V30 25 1 11 25
M  V30 26 1 11 26
M  V30 27 1 12 27
M  V30 28 1 12 28
M  V30 29 1 13 29
M  V30 30 1 13 30
M  V30 END BOND
M  V30 END CTAB
M  END
