
     RDKit          3D

  0  0  0  0  0  0  0  0  0  0999 V3000
M  V30 BEGIN CTAB
M  V30 COUNTS 42 43 0 0 0
M  V30 BEGIN ATOM
M  V30 1 C -1.88519 1.91235 -3.48181 0
M  V30 2 O -2.49954 1.70198 -2.22509 0
M  V30 3 C -1.85549 0.855431 -1.33887 0
M  V30 4 C -2.43358 0.635615 -0.111291 0
M  V30 5 O -3.60172 1.23608 0.211674 0
M  V30 6 C -3.79575 2.46684 0.827614 0
M  V30 7 C -1.81115 -0.212684 0.807626 0
M  V30 8 O -2.46105 -0.373889 2.00161 0
M  V30 9 C -1.9799 -1.21431 2.99966 0
M  V30 10 C -1.91823 -2.64751 2.64694 0
M  V30 11 O -2.37242 -3.17142 1.42873 0
M  V30 12 O -1.44332 -3.50337 3.44225 0
M  V30 13 C -0.621781 -0.816615 0.465799 0
M  V30 14 C -0.0221615 -0.600082 -0.783831 0
M  V30 15 C 1.24485 -1.30203 -1.07162 0
M  V30 16 C 2.43037 -0.750896 -0.423538 0
M  V30 17 C 2.94213 -1.37524 0.706182 0
M  V30 18 N 4.01923 -0.861578 1.29876 0
M  V30 19 C 4.63593 0.245514 0.843737 0
M  V30 20 N 5.77657 0.709375 1.5498 0
M  V30 21 N 4.13942 0.83203 -0.233887 0
M  V30 22 C 3.04564 0.372789 -0.89666 0
M  V30 23 N 2.60457 1.093 -2.06327 0
M  V30 24 C -0.644441 0.234391 -1.67688 0
M  V30 25 H -1.81637 0.93794 -4.00876 0
M  V30 26 H -2.45364 2.60954 -4.11884 0
M  V30 27 H -0.8247 2.25373 -3.33329 0
M  V30 28 H -2.95877 2.77315 1.49868 0
M  V30 29 H -4.76053 2.53247 1.36487 0
M  V30 30 H -3.83991 3.24864 0.0314625 0
M  V30 31 H -0.923533 -0.894257 3.25096 0
M  V30 32 H -2.55408 -1.0682 3.94987 0
M  V30 33 H -3.32401 -3.01897 1.09607 0
M  V30 34 H -0.110652 -1.46496 1.16095 0
M  V30 35 H 1.37655 -1.39976 -2.19296 0
M  V30 36 H 1.12151 -2.37983 -0.752123 0
M  V30 37 H 2.50602 -2.26741 1.13479 0
M  V30 38 H 6.71416 0.813834 1.08108 0
M  V30 39 H 5.67632 0.951223 2.5585 0
M  V30 40 H 2.68387 0.599656 -2.99047 0
M  V30 41 H 2.22786 2.04612 -2.00416 0
M  V30 42 H -0.233059 0.424342 -2.65027 0
M  V30 END ATOM
M  V30 BEGIN BOND
M  V30 1 1 1 2
M  V30 2 1 2 3
M  V30 3 2 3 4
M  V30 4 1 4 5
M  V30 5 1 5 6
M  V30 6 1 4 7
M  V30 7 1 7 8
M  V30 8 1 8 9
M  V30 9 1 9 10
M  V30 10 1 10 11
M  V30 11 2 10 12
M  V30 12 2 7 13
M  V30 13 1 13 14
M  V30 14 1 14 15
M  V30 15 1 15 16
M  V30 16 2 16 17
M  V30 17 1 17 18
M  V30 18 2 18 19
M  V30 19 1 19 20
M  V30 20 1 19 21
M  V30 21 2 21 22
M  V30 22 1 22 23
M  V30 23 2 14 24
M  V30 24 1 24 3
M  V30 25 1 22 16
M  V30 26 1 1 25
M  V30 27 1 1 26
M  V30 28 1 1 27
M  V30 29 1 6 28
M  V30 30 1 6 29
M  V30 31 1 6 30
M  V30 32 1 9 31
M  V30 33 1 9 32
M  V30 34 1 11 33
M  V30 35 1 13 34
M  V30 36 1 15 35
M  V30 37 1 15 36
M  V30 38 1 17 37
M  V30 39 1 20 38
M  V30 40 1 20 39
M  V30 41 1 23 40
M  V30 42 1 23 41
M  V30 43 1 24 42
M  V30 END BOND
M  V30 END CTAB
M  END
