
     RDKit          3D

  0  0  0  0  0  0  0  0  0  0999 V3000
M  V30 BEGIN CTAB
M  V30 COUNTS 26 26 0 0 0
M  V30 BEGIN ATOM
M  V30 1 C -1.27679 0.825721 -1.67524 0
M  V30 2 C -0.79922 -0.158323 -0.685103 0
M  V30 3 N -1.6683 -0.984652 -0.209335 0
M  V30 4 N -2.99893 -0.933049 -0.626872 0
M  V30 5 C -3.95749 -0.0347946 -0.155273 0
M  V30 6 N -3.62316 0.924305 0.82156 0
M  V30 7 S -5.47263 -0.075276 -0.719674 0
M  V30 8 C 0.612696 -0.203009 -0.250781 0
M  V30 9 C 1.0427 -1.12695 0.673839 0
M  V30 10 C 2.35062 -1.19604 1.10027 0
M  V30 11 C 3.26798 -0.306943 0.583317 0
M  V30 12 N 4.61085 -0.410045 1.04914 0
M  V30 13 C 2.8643 0.621772 -0.338083 0
M  V30 14 C 1.54278 0.676681 -0.755979 0
M  V30 15 H -1.50427 1.81802 -1.23373 0
M  V30 16 H -2.15705 0.437219 -2.20914 0
M  V30 17 H -0.500726 1.01639 -2.45408 0
M  V30 18 H -3.27063 -1.63256 -1.34903 0
M  V30 19 H -3.54885 1.92036 0.521689 0
M  V30 20 H -3.44383 0.710519 1.82635 0
M  V30 21 H 0.308903 -1.83181 1.08184 0
M  V30 22 H 2.61042 -1.94734 1.82697 0
M  V30 23 H 4.85922 0.234767 1.84905 0
M  V30 24 H 5.29665 -1.06851 0.635725 0
M  V30 25 H 3.60651 1.3045 -0.72446 0
M  V30 26 H 1.24828 1.41904 -1.48458 0
M  V30 END ATOM
M  V30 BEGIN BOND
M  V30 1 1 1 2
M  V30 2 2 2 3
M  V30 3 1 3 4
M  V30 4 1 4 5
M  V30 5 1 5 6
M  V30 6 2 5 7
M  V30 7 1 2 8
M  V30 8 2 8 9
M  V30 9 1 9 10
M  V30 10 2 10 11
M  V30 11 1 11 12
M  V30 12 1 11 13
M  V30 13 2 13 14
M  V30 14 1 14 8
M  V30 15 1 1 15
M  V30 16 1 1 16
M  V30 17 1 1 17
M  V30 18 1 4 18
M  V30 19 1 6 19
M  V30 20 1 6 20
M  V30 21 1 9 21
M  V30 22 1 10 22
M  V30 23 1 12 23
M  V30 24 1 12 24
M  V30 25 1 13 25
M  V30 26 1 14 26
M  V30 END BOND
M  V30 END CTAB
M  END
