
     RDKit          3D

  0  0  0  0  0  0  0  0  0  0999 V3000
M  V30 BEGIN CTAB
M  V30 COUNTS 23 23 0 0 0
M  V30 BEGIN ATOM
M  V30 1 C -1.74873 -1.98389 0.667792 0
M  V30 2 O -0.80804 -1.00145 1.11649 0
M  V30 3 C -0.30759 -0.0316046 0.235583 0
M  V30 4 C 0.889984 -0.0843991 -0.381114 0
M  V30 5 C 1.77675 -1.24972 -0.067179 0
M  V30 6 N 2.89997 -0.722085 0.790836 0
M  V30 7 C 1.27545 0.906171 -1.22457 0
M  V30 8 C 0.453036 2.00707 -1.4734 0
M  V30 9 C -0.725643 2.05958 -0.856553 0
M  V30 10 C -1.13665 1.07219 -0.00247596 0
M  V30 11 N -2.31276 1.23464 0.735276 0
M  V30 12 H -1.3963 -2.55829 -0.19739 0
M  V30 13 H -2.09745 -2.56675 1.52313 0
M  V30 14 H -2.68308 -1.46259 0.295474 0
M  V30 15 H 2.43248 -1.3493 -1.06647 0
M  V30 16 H 1.44611 -2.20012 0.188108 0
M  V30 17 H 3.21263 -1.40407 1.40735 0
M  V30 18 H 2.63448 0.252894 1.03777 0
M  V30 19 H 2.24798 0.798017 -1.68966 0
M  V30 20 H 0.801946 2.78071 -2.16632 0
M  V30 21 H -1.41068 2.90855 -1.07821 0
M  V30 22 H -3.27848 0.999524 0.476067 0
M  V30 23 H -2.16542 1.59492 1.72946 0
M  V30 END ATOM
M  V30 BEGIN BOND
M  V30 1 1 1 2
M  V30 2 1 2 3
M  V30 3 2 3 4
M  V30 4 1 4 5
M  V30 5 1 5 6
M  V30 6 1 4 7
M  V30 7 2 7 8
M  V30 8 1 8 9
M  V30 9 2 9 10
M  V30 10 1 10 11
M  V30 11 1 10 3
M  V30 12 1 1 12
M  V30 13 1 1 13
M  V30 14 1 1 14
M  V30 15 1 5 15
M  V30 16 1 5 16
M  V30 17 1 6 17
M  V30 18 1 6 18
M  V30 19 1 7 19
M  V30 20 1 8 20
M  V30 21 1 9 21
M  V30 22 1 11 22
M  V30 23 1 11 23
M  V30 END BOND
M  V30 END CTAB
M  END
