
     RDKit          3D

  0  0  0  0  0  0  0  0  0  0999 V3000
M  V30 BEGIN CTAB
M  V30 COUNTS 19 18 0 0 0
M  V30 BEGIN ATOM
M  V30 1 N -3.56396 -0.368392 -0.414779 0
M  V30 2 C -2.13103 -0.178728 -0.613898 0
M  V30 3 C -1.54641 0.226962 0.706623 0
M  V30 4 Br -1.8534 -1.13019 2.01556 0
M  V30 5 C -0.0956036 0.623659 0.601298 0
M  V30 6 S 0.962821 -0.676274 -0.0102926 0
M  V30 7 C 2.63817 -0.0832468 -0.0863822 0
M  V30 8 N 3.71132 -0.900108 -0.537789 0
M  V30 9 N 2.88266 1.12464 0.279843 0
M  V30 10 H -3.67554 -1.21456 0.213911 0
M  V30 11 H -3.90859 0.459037 0.122528 0
M  V30 12 H -1.72412 -1.16956 -0.931019 0
M  V30 13 H -2.00324 0.594431 -1.39482 0
M  V30 14 H -2.0978 1.14689 1.03771 0
M  V30 15 H 0.265169 0.912423 1.61795 0
M  V30 16 H 0.0437799 1.52589 -0.0270143 0
M  V30 17 H 4.57012 -0.480321 -0.956832 0
M  V30 18 H 3.67354 -1.92319 -0.465256 0
M  V30 19 H 3.85211 1.51065 0.250239 0
M  V30 END ATOM
M  V30 BEGIN BOND
M  V30 1 1 1 2
M  V30 2 1 2 3
M  V30 3 1 3 4
M  V30 4 1 3 5
M  V30 5 1 5 6
M  V30 6 1 6 7
M  V30 7 1 7 8
M  V30 8 2 7 9 CFG=2
M  V30 9 1 1 10
M  V30 10 1 1 11
M  V30 11 1 2 12
M  V30 12 1 2 13
M  V30 13 1 3 14
M  V30 14 1 5 15
M  V30 15 1 5 16
M  V30 16 1 8 17
M  V30 17 1 8 18
M  V30 18 1 9 19
M  V30 END BOND
M  V30 END CTAB
M  END
