
     RDKit          3D

  0  0  0  0  0  0  0  0  0  0999 V3000
M  V30 BEGIN CTAB
M  V30 COUNTS 27 28 0 0 0
M  V30 BEGIN ATOM
M  V30 1 C 3.21829 0.630321 0.120308 0
M  V30 2 C 1.82767 0.0660017 0.123725 0
M  V30 3 C 1.75219 -1.09364 -0.80867 0
M  V30 4 C 0.377354 -1.41472 -1.32934 0
M  V30 5 C -0.711985 -0.809362 -0.554956 0
M  V30 6 N -1.91764 -1.41765 -0.34623 0
M  V30 7 C -2.91348 -0.854449 0.359712 0
M  V30 8 N -4.16253 -1.53285 0.55183 0
M  V30 9 N -2.69656 0.365772 0.878294 0
M  V30 10 C -1.5187 1.02267 0.70587 0
M  V30 11 N -1.27193 2.31361 1.24714 0
M  V30 12 C -0.509624 0.440973 -0.0148232 0
M  V30 13 C 0.778919 1.13718 -0.206669 0
M  V30 14 H 3.84517 0.159333 0.930487 0
M  V30 15 H 3.7391 0.377291 -0.830426 0
M  V30 16 H 3.25206 1.71625 0.320788 0
M  V30 17 H 1.60196 -0.224051 1.18873 0
M  V30 18 H 2.13703 -1.98032 -0.258326 0
M  V30 19 H 2.442 -0.840568 -1.67078 0
M  V30 20 H 0.198699 -2.52679 -1.30419 0
M  V30 21 H 0.338856 -1.13708 -2.41588 0
M  V30 22 H -5.00878 -1.0735 0.171264 0
M  V30 23 H -4.26926 -2.43904 1.03966 0
M  V30 24 H -0.893801 2.47011 2.20295 0
M  V30 25 H -1.47731 3.1546 0.66371 0
M  V30 26 H 0.909367 1.51337 -1.2377 0
M  V30 27 H 0.932938 1.97652 0.473528 0
M  V30 END ATOM
M  V30 BEGIN BOND
M  V30 1 1 1 2
M  V30 2 1 2 3
M  V30 3 1 3 4
M  V30 4 1 4 5
M  V30 5 2 5 6
M  V30 6 1 6 7
M  V30 7 1 7 8
M  V30 8 2 7 9
M  V30 9 1 9 10
M  V30 10 1 10 11
M  V30 11 2 10 12
M  V30 12 1 12 13
M  V30 13 1 13 2
M  V30 14 1 12 5
M  V30 15 1 1 14
M  V30 16 1 1 15
M  V30 17 1 1 16
M  V30 18 1 2 17
M  V30 19 1 3 18
M  V30 20 1 3 19
M  V30 21 1 4 20
M  V30 22 1 4 21
M  V30 23 1 8 22
M  V30 24 1 8 23
M  V30 25 1 11 24
M  V30 26 1 11 25
M  V30 27 1 13 26
M  V30 28 1 13 27
M  V30 END BOND
M  V30 END CTAB
M  END
