
     RDKit          3D

  0  0  0  0  0  0  0  0  0  0999 V3000
M  V30 BEGIN CTAB
M  V30 COUNTS 26 26 0 0 0
M  V30 BEGIN ATOM
M  V30 1 C -1.89798 -1.93276 0.866097 0
M  V30 2 N -1.65674 -0.649178 0.195755 0
M  V30 3 C -0.341503 -0.378641 -0.186509 0
M  V30 4 C 0.544273 -0.0480997 0.827795 0
M  V30 5 C 1.89016 0.224309 0.585322 0
M  V30 6 N 2.77465 0.546739 1.64896 0
M  V30 7 C 2.37413 0.165603 -0.706018 0
M  V30 8 C 1.46004 -0.167495 -1.68413 0
M  V30 9 N 0.156365 -0.427487 -1.43286 0
M  V30 10 N 3.74943 0.434106 -0.992087 0
M  V30 11 C -2.80151 0.189803 0.0356015 0
M  V30 12 C -2.60705 1.39841 -0.825884 0
M  V30 13 H -2.93675 -2.11337 1.10181 0
M  V30 14 H -1.29914 -1.88474 1.80043 0
M  V30 15 H -1.54268 -2.78466 0.21689 0
M  V30 16 H 0.172694 -0.00677724 1.8364 0
M  V30 17 H 2.99636 -0.151391 2.37152 0
M  V30 18 H 3.21212 1.48911 1.70532 0
M  V30 19 H 1.85298 -0.210945 -2.71445 0
M  V30 20 H 4.48348 -0.22583 -0.642947 0
M  V30 21 H 4.04673 1.26756 -1.54213 0
M  V30 22 H -3.63652 -0.438013 -0.399652 0
M  V30 23 H -3.15148 0.476603 1.06986 0
M  V30 24 H -3.31603 1.38926 -1.71457 0
M  V30 25 H -2.93856 2.28668 -0.234418 0
M  V30 26 H -1.58747 1.5512 -1.18611 0
M  V30 END ATOM
M  V30 BEGIN BOND
M  V30 1 1 1 2
M  V30 2 1 2 3
M  V30 3 2 3 4
M  V30 4 1 4 5
M  V30 5 1 5 6
M  V30 6 2 5 7
M  V30 7 1 7 8
M  V30 8 2 8 9
M  V30 9 1 7 10
M  V30 10 1 2 11
M  V30 11 1 11 12
M  V30 12 1 9 3
M  V30 13 1 1 13
M  V30 14 1 1 14
M  V30 15 1 1 15
M  V30 16 1 4 16
M  V30 17 1 6 17
M  V30 18 1 6 18
M  V30 19 1 8 19
M  V30 20 1 10 20
M  V30 21 1 10 21
M  V30 22 1 11 22
M  V30 23 1 11 23
M  V30 24 1 12 24
M  V30 25 1 12 25
M  V30 26 1 12 26
M  V30 END BOND
M  V30 END CTAB
M  END
