
     RDKit          3D

  0  0  0  0  0  0  0  0  0  0999 V3000
M  V30 BEGIN CTAB
M  V30 COUNTS 40 40 0 0 0
M  V30 BEGIN ATOM
M  V30 1 N 6.0007 -0.509475 -1.02326 0
M  V30 2 C 5.03781 -0.626466 0.0694104 0
M  V30 3 C 3.67561 -0.161961 -0.386648 0
M  V30 4 O 2.7203 -0.261309 0.627719 0
M  V30 5 C 1.50643 0.19103 0.119139 0
M  V30 6 C 0.364764 0.0965028 1.09199 0
M  V30 7 N -0.803283 0.583431 0.464512 0
M  V30 8 C -0.802961 1.95127 0.252794 0
M  V30 9 C -2.09044 2.66576 0.0120477 0
M  V30 10 C -3.24198 1.81436 -0.403488 0
M  V30 11 C -2.87251 0.372423 -0.620065 0
M  V30 12 C -2.02501 -0.048174 0.594223 0
M  V30 13 C -1.99977 -1.55841 0.618469 0
M  V30 14 N -3.40343 -1.98568 0.766426 0
M  V30 15 C -1.48742 -2.16356 -0.647522 0
M  V30 16 H 5.68001 0.229517 -1.71068 0
M  V30 17 H 6.02974 -1.43219 -1.48836 0
M  V30 18 H 5.43529 0.0350967 0.892447 0
M  V30 19 H 5.06853 -1.65512 0.439731 0
M  V30 20 H 3.38733 -0.828296 -1.24799 0
M  V30 21 H 3.75921 0.849018 -0.821011 0
M  V30 22 H 1.31878 -0.345101 -0.831049 0
M  V30 23 H 1.61476 1.27185 -0.142024 0
M  V30 24 H 0.664525 0.780259 1.94673 0
M  V30 25 H 0.292075 -0.90027 1.57166 0
M  V30 26 H -0.124837 2.19676 -0.620907 0
M  V30 27 H -0.25439 2.44097 1.13242 0
M  V30 28 H -1.96716 3.47341 -0.752186 0
M  V30 29 H -2.36724 3.19742 0.946986 0
M  V30 30 H -4.05383 1.83674 0.362521 0
M  V30 31 H -3.7058 2.18791 -1.33882 0
M  V30 32 H -2.22006 0.328604 -1.51014 0
M  V30 33 H -3.77458 -0.234708 -0.724543 0
M  V30 34 H -2.55596 0.269555 1.52414 0
M  V30 35 H -1.46383 -1.89357 1.53174 0
M  V30 36 H -3.78049 -2.20881 -0.189966 0
M  V30 37 H -3.45337 -2.89945 1.30153 0
M  V30 38 H -1.16913 -1.40694 -1.37438 0
M  V30 39 H -2.27861 -2.77042 -1.18445 0
M  V30 40 H -0.659758 -2.88198 -0.432839 0
M  V30 END ATOM
M  V30 BEGIN BOND
M  V30 1 1 1 2
M  V30 2 1 2 3
M  V30 3 1 3 4
M  V30 4 1 4 5
M  V30 5 1 5 6
M  V30 6 1 6 7
M  V30 7 1 7 8
M  V30 8 1 8 9
M  V30 9 1 9 10
M  V30 10 1 10 11
M  V30 11 1 11 12
M  V30 12 1 12 13
M  V30 13 1 13 14
M  V30 14 1 13 15
M  V30 15 1 12 7
M  V30 16 1 1 16
M  V30 17 1 1 17
M  V30 18 1 2 18
M  V30 19 1 2 19
M  V30 20 1 3 20
M  V30 21 1 3 21
M  V30 22 1 5 22
M  V30 23 1 5 23
M  V30 24 1 6 24
M  V30 25 1 6 25
M  V30 26 1 8 26
M  V30 27 1 8 27
M  V30 28 1 9 28
M  V30 29 1 9 29
M  V30 30 1 10 30
M  V30 31 1 10 31
M  V30 32 1 11 32
M  V30 33 1 11 33
M  V30 34 1 12 34
M  V30 35 1 13 35
M  V30 36 1 14 36
M  V30 37 1 14 37
M  V30 38 1 15 38
M  V30 39 1 15 39
M  V30 40 1 15 40
M  V30 END BOND
M  V30 END CTAB
M  END
