
     RDKit          3D

  0  0  0  0  0  0  0  0  0  0999 V3000
M  V30 BEGIN CTAB
M  V30 COUNTS 25 26 0 0 0
M  V30 BEGIN ATOM
M  V30 1 C 4.00273 -0.698864 -0.15836 0
M  V30 2 C 2.51005 -0.594706 -0.0740288 0
M  V30 3 C 1.71539 -1.66796 0.272984 0
M  V30 4 C 0.34452 -1.52654 0.338159 0
M  V30 5 C -0.281721 -0.321143 0.0625667 0
M  V30 6 C 0.50799 0.755344 -0.284941 0
M  V30 7 C 1.88513 0.613266 -0.350409 0
M  V30 8 N 2.73351 1.70859 -0.707347 0
M  V30 9 C -1.73351 -0.215881 0.14347 0
M  V30 10 N -2.58424 -1.2024 0.471366 0
M  V30 11 N -3.8212 -0.732265 0.43851 0
M  V30 12 C -3.79788 0.557169 0.0917288 0
M  V30 13 N -2.49372 0.866196 -0.0889581 0
M  V30 14 N -4.91457 1.45289 -0.0640605 0
M  V30 15 H 4.37687 -0.134922 -1.06278 0
M  V30 16 H 4.30982 -1.75769 -0.354118 0
M  V30 17 H 4.4931 -0.254704 0.708669 0
M  V30 18 H 2.15668 -2.623 0.495479 0
M  V30 19 H -0.297114 -2.3645 0.61068 0
M  V30 20 H 0.0812912 1.70518 -0.507116 0
M  V30 21 H 3.484 2.05861 -0.0480775 0
M  V30 22 H 2.62757 2.18262 -1.62497 0
M  V30 23 H -4.66762 -1.30423 0.655146 0
M  V30 24 H -5.83911 1.03805 -0.307236 0
M  V30 25 H -4.79796 2.46088 0.0609661 0
M  V30 END ATOM
M  V30 BEGIN BOND
M  V30 1 1 1 2
M  V30 2 2 2 3
M  V30 3 1 3 4
M  V30 4 2 4 5
M  V30 5 1 5 6
M  V30 6 2 6 7
M  V30 7 1 7 8
M  V30 8 1 5 9
M  V30 9 2 9 10
M  V30 10 1 10 11
M  V30 11 1 11 12
M  V30 12 2 12 13
M  V30 13 1 12 14
M  V30 14 1 7 2
M  V30 15 1 13 9
M  V30 16 1 1 15
M  V30 17 1 1 16
M  V30 18 1 1 17
M  V30 19 1 3 18
M  V30 20 1 4 19
M  V30 21 1 6 20
M  V30 22 1 8 21
M  V30 23 1 8 22
M  V30 24 1 11 23
M  V30 25 1 14 24
M  V30 26 1 14 25
M  V30 END BOND
M  V30 END CTAB
M  END
