
     RDKit          3D

  0  0  0  0  0  0  0  0  0  0999 V3000
M  V30 BEGIN CTAB
M  V30 COUNTS 32 34 0 0 0
M  V30 BEGIN ATOM
M  V30 1 O -0.150388 -3.08896 2.65164 0
M  V30 2 C 0.306996 -2.45643 1.69449 0
M  V30 3 N 1.65701 -2.01313 1.61019 0
M  V30 4 C 1.9685 -0.932194 0.746026 0
M  V30 5 N 3.26199 -0.60546 0.522927 0
M  V30 6 C 3.59429 0.297866 -0.402454 0
M  V30 7 N 4.96421 0.658561 -0.652898 0
M  V30 8 N 2.62208 0.878114 -1.11129 0
M  V30 9 C 1.31178 0.602589 -0.941225 0
M  V30 10 C 0.949681 -0.316097 0.0057487 0
M  V30 11 C -0.43636 -0.626285 0.41399 0
M  V30 12 C -0.594897 -2.10707 0.50765 0
M  V30 13 C -1.54168 0.163786 0.00239002 0
M  V30 14 C -1.76028 1.40833 0.577631 0
M  V30 15 F -0.889552 1.90036 1.5231 0
M  V30 16 C -2.82021 2.21929 0.264616 0
M  V30 17 C -3.73942 1.81096 -0.666719 0
M  V30 18 C -3.57423 0.579357 -1.27403 0
M  V30 19 C -2.50628 -0.211706 -0.943284 0
M  V30 20 Cl -2.27805 -1.75075 -1.68583 0
M  V30 21 N 0.345376 1.21151 -1.76467 0
M  V30 22 H 2.3957 -2.46118 2.16144 0
M  V30 23 H 5.61454 0.0270205 -1.14086 0
M  V30 24 H 5.30786 1.58326 -0.332127 0
M  V30 25 H -0.373857 -0.367909 1.56978 0
M  V30 26 H -1.58369 -2.45331 0.825122 0
M  V30 27 H -0.132681 -2.68358 -0.317251 0
M  V30 28 H -2.97502 3.18847 0.724106 0
M  V30 29 H -4.57953 2.42134 -0.934447 0
M  V30 30 H -4.29138 0.221342 -2.02396 0
M  V30 31 H 0.0610068 2.20571 -1.6715 0
M  V30 32 H -0.133507 0.696195 -2.55229 0
M  V30 END ATOM
M  V30 BEGIN BOND
M  V30 1 2 1 2
M  V30 2 1 2 3
M  V30 3 1 3 4
M  V30 4 2 4 5
M  V30 5 1 5 6
M  V30 6 1 6 7
M  V30 7 2 6 8
M  V30 8 1 8 9
M  V30 9 2 9 10
M  V30 10 1 10 11
M  V30 11 1 11 12
M  V30 12 1 11 13
M  V30 13 2 13 14
M  V30 14 1 14 15
M  V30 15 1 14 16
M  V30 16 2 16 17
M  V30 17 1 17 18
M  V30 18 2 18 19
M  V30 19 1 19 20
M  V30 20 1 9 21
M  V30 21 1 12 2
M  V30 22 1 19 13
M  V30 23 1 10 4
M  V30 24 1 3 22
M  V30 25 1 7 23
M  V30 26 1 7 24
M  V30 27 1 11 25
M  V30 28 1 12 26
M  V30 29 1 12 27
M  V30 30 1 16 28
M  V30 31 1 17 29
M  V30 32 1 18 30
M  V30 33 1 21 31
M  V30 34 1 21 32
M  V30 END BOND
M  V30 END CTAB
M  END
