
     RDKit          3D

  0  0  0  0  0  0  0  0  0  0999 V3000
M  V30 BEGIN CTAB
M  V30 COUNTS 49 52 0 0 0
M  V30 BEGIN ATOM
M  V30 1 N 5.47101 3.08911 -0.331519 0
M  V30 2 C 4.18235 2.47998 -0.12224 0 CFG=2
M  V30 3 C 4.18755 1.50106 1.03028 0
M  V30 4 C 4.25522 0.375308 0.020487 0 CFG=2
M  V30 5 C 3.87666 1.33641 -1.08053 0
M  V30 6 C 3.27235 -0.703889 0.277603 0
M  V30 7 C 1.91608 -0.40085 0.441472 0
M  V30 8 C 0.980788 -1.3795 0.681053 0
M  V30 9 N 1.45969 -2.64589 0.746564 0
M  V30 10 C 2.74117 -2.97803 0.59655 0
M  V30 11 N 3.63152 -1.99476 0.363106 0
M  V30 12 N 3.13757 -4.35464 0.685718 0
M  V30 13 N -0.383257 -1.09402 0.851313 0
M  V30 14 C -0.900002 0.232804 0.885978 0
M  V30 15 C -1.86479 0.337452 -0.304689 0
M  V30 16 C -2.95089 -0.667741 -0.0527415 0
M  V30 17 C -2.3849 -2.07146 -0.0903659 0
M  V30 18 C -1.3215 -2.18685 0.993844 0
M  V30 19 C -4.12744 -0.538216 -0.96153 0
M  V30 20 N -4.73468 0.763812 -0.814886 0
M  V30 21 C -5.71941 1.03659 0.0873978 0
M  V30 22 C -6.06373 2.3614 -0.0560821 0
M  V30 23 C -5.26347 2.88282 -1.06675 0
M  V30 24 N -4.4808 1.86342 -1.48428 0
M  V30 25 H 5.5649 3.35762 -1.30892 0
M  V30 26 H 6.20729 2.46331 -0.014718 0
M  V30 27 H 3.37202 3.2288 -0.0354419 0
M  V30 28 H 3.21423 1.54277 1.58701 0
M  V30 29 H 5.0411 1.56078 1.70902 0
M  V30 30 H 5.28029 -0.000339332 -0.0877064 0
M  V30 31 H 4.6024 1.30921 -1.91093 0
M  V30 32 H 2.84146 1.31457 -1.41683 0
M  V30 33 H 1.65814 0.654349 0.363553 0
M  V30 34 H 3.17917 -4.92006 -0.19016 0
M  V30 35 H 3.36838 -4.73789 1.61731 0
M  V30 36 H -1.56216 0.3041 1.79545 0
M  V30 37 H -0.180116 1.04516 0.877027 0
M  V30 38 H -1.26992 0.039206 -1.19193 0
M  V30 39 H -2.20927 1.35862 -0.430079 0
M  V30 40 H -3.3042 -0.525546 1.0109 0
M  V30 41 H -1.98286 -2.25002 -1.08886 0
M  V30 42 H -3.19056 -2.78946 0.161396 0
M  V30 43 H -1.8557 -2.13185 1.96818 0
M  V30 44 H -0.824969 -3.17702 0.906051 0
M  V30 45 H -4.88891 -1.32261 -0.737261 0
M  V30 46 H -3.77599 -0.684377 -2.01368 0
M  V30 47 H -6.12924 0.32105 0.772403 0
M  V30 48 H -6.81838 2.90948 0.508819 0
M  V30 49 H -5.2542 3.88587 -1.45067 0
M  V30 END ATOM
M  V30 BEGIN BOND
M  V30 1 1 1 2
M  V30 2 1 2 3
M  V30 3 1 3 4
M  V30 4 1 4 5
M  V30 5 1 4 6
M  V30 6 2 6 7
M  V30 7 1 7 8
M  V30 8 2 8 9
M  V30 9 1 9 10
M  V30 10 2 10 11
M  V30 11 1 10 12
M  V30 12 1 8 13
M  V30 13 1 13 14
M  V30 14 1 14 15
M  V30 15 1 15 16
M  V30 16 1 16 17
M  V30 17 1 17 18
M  V30 18 1 16 19
M  V30 19 1 19 20
M  V30 20 1 20 21
M  V30 21 2 21 22
M  V30 22 1 22 23
M  V30 23 2 23 24
M  V30 24 1 5 2
M  V30 25 1 11 6
M  V30 26 1 18 13
M  V30 27 1 24 20
M  V30 28 1 1 25
M  V30 29 1 1 26
M  V30 30 1 2 27 CFG=1
M  V30 31 1 3 28
M  V30 32 1 3 29
M  V30 33 1 4 30 CFG=3
M  V30 34 1 5 31
M  V30 35 1 5 32
M  V30 36 1 7 33
M  V30 37 1 12 34
M  V30 38 1 12 35
M  V30 39 1 14 36
M  V30 40 1 14 37
M  V30 41 1 15 38
M  V30 42 1 15 39
M  V30 43 1 16 40
M  V30 44 1 17 41
M  V30 45 1 17 42
M  V30 46 1 18 43
M  V30 47 1 18 44
M  V30 48 1 19 45
M  V30 49 1 19 46
M  V30 50 1 21 47
M  V30 51 1 22 48
M  V30 52 1 23 49
M  V30 END BOND
M  V30 END CTAB
M  END
