
     RDKit          3D

  0  0  0  0  0  0  0  0  0  0999 V3000
M  V30 BEGIN CTAB
M  V30 COUNTS 26 27 0 0 0
M  V30 BEGIN ATOM
M  V30 1 N -5.74069 0.576891 0.102849 0
M  V30 2 C -4.30865 0.604432 0.0460008 0
M  V30 3 N -3.65386 1.71527 -0.328229 0
M  V30 4 C -2.3028 1.74792 -0.383946 0
M  V30 5 Cl -1.46769 3.2197 -0.878696 0
M  V30 6 C -1.54721 0.645468 -0.0597335 0
M  V30 7 N -0.138759 0.722488 -0.131399 0
M  V30 8 N 0.607187 -0.26334 0.0507524 0
M  V30 9 C 2.02036 -0.250199 -0.0074005 0
M  V30 10 C 2.82308 0.565041 0.748621 0
M  V30 11 C 4.19693 0.548105 0.663093 0
M  V30 12 C 4.80656 -0.31901 -0.214519 0
M  V30 13 Cl 6.55048 -0.37731 -0.359016 0
M  V30 14 C 4.03993 -1.14881 -0.986574 0
M  V30 15 C 2.64871 -1.11484 -0.883532 0
M  V30 16 C -2.22378 -0.489186 0.322778 0
M  V30 17 N -1.51211 -1.65996 0.670113 0
M  V30 18 N -3.58566 -0.479024 0.365285 0
M  V30 19 H -6.29468 0.483469 0.974802 0
M  V30 20 H -6.24778 0.657019 -0.799987 0
M  V30 21 H 2.36049 1.24873 1.43967 0
M  V30 22 H 4.83964 1.18573 1.25366 0
M  V30 23 H 4.51878 -1.81593 -1.66226 0
M  V30 24 H 2.09631 -1.79869 -1.52379 0
M  V30 25 H -1.41292 -1.96937 1.65655 0
M  V30 26 H -1.07185 -2.23459 -0.0750842 0
M  V30 END ATOM
M  V30 BEGIN BOND
M  V30 1 1 1 2
M  V30 2 2 2 3
M  V30 3 1 3 4
M  V30 4 1 4 5
M  V30 5 2 4 6
M  V30 6 1 6 7
M  V30 7 2 7 8
M  V30 8 1 8 9
M  V30 9 2 9 10
M  V30 10 1 10 11
M  V30 11 2 11 12
M  V30 12 1 12 13
M  V30 13 1 12 14
M  V30 14 2 14 15
M  V30 15 1 6 16
M  V30 16 1 16 17
M  V30 17 2 16 18
M  V30 18 1 18 2
M  V30 19 1 15 9
M  V30 20 1 1 19
M  V30 21 1 1 20
M  V30 22 1 10 21
M  V30 23 1 11 22
M  V30 24 1 14 23
M  V30 25 1 15 24
M  V30 26 1 17 25
M  V30 27 1 17 26
M  V30 END BOND
M  V30 END CTAB
M  END
