
     RDKit          3D

  0  0  0  0  0  0  0  0  0  0999 V3000
M  V30 BEGIN CTAB
M  V30 COUNTS 26 26 0 0 0
M  V30 BEGIN ATOM
M  V30 1 N -2.57599 1.55553 0.570768 0
M  V30 2 C -2.38602 0.140073 0.520559 0
M  V30 3 C -1.38137 -0.307175 -0.510414 0
M  V30 4 C -0.014769 0.259397 -0.289576 0
M  V30 5 C 0.571847 -0.0842009 1.03837 0
M  V30 6 C 1.98879 -0.567912 0.900069 0
M  V30 7 C 2.77464 0.153334 -0.139676 0
M  V30 8 C 1.97606 0.485658 -1.38091 0
M  V30 9 O 0.799178 -0.251828 -1.31804 0
M  V30 10 N -1.28047 -1.75162 -0.445525 0
M  V30 11 H -3.56241 1.75147 0.843133 0
M  V30 12 H -2.42476 1.9556 -0.384004 0
M  V30 13 H -3.37098 -0.313909 0.203262 0
M  V30 14 H -2.17077 -0.296307 1.517 0
M  V30 15 H -1.71692 -0.056833 -1.53213 0
M  V30 16 H -0.00309954 1.37623 -0.433647 0
M  V30 17 H 0.614729 0.840385 1.67909 0
M  V30 18 H -0.0126077 -0.822639 1.60937 0
M  V30 19 H 2.54203 -0.4841 1.86721 0
M  V30 20 H 1.96555 -1.63953 0.653282 0
M  V30 21 H 3.63121 -0.496662 -0.468682 0
M  V30 22 H 3.22485 1.08778 0.237712 0
M  V30 23 H 2.5246 0.245536 -2.29765 0
M  V30 24 H 1.66952 1.57188 -1.3773 0
M  V30 25 H -1.87983 -2.14028 0.291211 0
M  V30 26 H -1.50301 -2.20986 -1.35349 0
M  V30 END ATOM
M  V30 BEGIN BOND
M  V30 1 1 1 2
M  V30 2 1 2 3
M  V30 3 1 3 4
M  V30 4 1 4 5
M  V30 5 1 5 6
M  V30 6 1 6 7
M  V30 7 1 7 8
M  V30 8 1 8 9
M  V30 9 1 3 10
M  V30 10 1 9 4
M  V30 11 1 1 11
M  V30 12 1 1 12
M  V30 13 1 2 13
M  V30 14 1 2 14
M  V30 15 1 3 15
M  V30 16 1 4 16
M  V30 17 1 5 17
M  V30 18 1 5 18
M  V30 19 1 6 19
M  V30 20 1 6 20
M  V30 21 1 7 21
M  V30 22 1 7 22
M  V30 23 1 8 23
M  V30 24 1 8 24
M  V30 25 1 10 25
M  V30 26 1 10 26
M  V30 END BOND
M  V30 END CTAB
M  END
