
     RDKit          3D

  0  0  0  0  0  0  0  0  0  0999 V3000
M  V30 BEGIN CTAB
M  V30 COUNTS 25 26 0 0 0
M  V30 BEGIN ATOM
M  V30 1 N 4.73041 -0.168177 0.129932 0
M  V30 2 C 3.59908 -0.82271 0.799002 0
M  V30 3 C 2.32162 -0.260356 0.308463 0
M  V30 4 N 2.10864 0.709996 -0.613127 0
M  V30 5 N 0.802819 0.887561 -0.733944 0
M  V30 6 C 0.144169 0.0696612 0.0745086 0
M  V30 7 N 1.11477 -0.641797 0.719472 0
M  V30 8 C -1.28062 -0.105975 0.296571 0
M  V30 9 C -1.75495 -1.03098 1.20088 0
M  V30 10 C -3.12495 -1.20014 1.41469 0
M  V30 11 C -4.00982 -0.419625 0.700129 0
M  V30 12 C -3.55497 0.520278 -0.217725 0
M  V30 13 C -2.19131 0.658293 -0.401448 0
M  V30 14 N -1.67902 1.60515 -1.32819 0
M  V30 15 H 4.72423 0.816129 0.479774 0
M  V30 16 H 4.53284 -0.178423 -0.899502 0
M  V30 17 H 3.68796 -0.67271 1.89777 0
M  V30 18 H 3.69305 -1.91208 0.534821 0
M  V30 19 H 2.89918 1.18401 -1.09708 0
M  V30 20 H -1.04512 -1.64103 1.75871 0
M  V30 21 H -3.46118 -1.93585 2.13239 0
M  V30 22 H -5.07016 -0.536065 0.851724 0
M  V30 23 H -4.21903 1.14757 -0.793751 0
M  V30 24 H -1.7006 1.41721 -2.36381 0
M  V30 25 H -1.26703 2.51007 -1.03245 0
M  V30 END ATOM
M  V30 BEGIN BOND
M  V30 1 1 1 2
M  V30 2 1 2 3
M  V30 3 1 3 4
M  V30 4 1 4 5
M  V30 5 2 5 6
M  V30 6 1 6 7
M  V30 7 1 6 8
M  V30 8 2 8 9
M  V30 9 1 9 10
M  V30 10 2 10 11
M  V30 11 1 11 12
M  V30 12 2 12 13
M  V30 13 1 13 14
M  V30 14 2 7 3
M  V30 15 1 13 8
M  V30 16 1 1 15
M  V30 17 1 1 16
M  V30 18 1 2 17
M  V30 19 1 2 18
M  V30 20 1 4 19
M  V30 21 1 9 20
M  V30 22 1 10 21
M  V30 23 1 11 22
M  V30 24 1 12 23
M  V30 25 1 14 24
M  V30 26 1 14 25
M  V30 END BOND
M  V30 END CTAB
M  END
