
     RDKit          3D

  0  0  0  0  0  0  0  0  0  0999 V3000
M  V30 BEGIN CTAB
M  V30 COUNTS 50 52 0 0 0
M  V30 BEGIN ATOM
M  V30 1 N 1.89856 -4.54961 0.673051 0
M  V30 2 C 1.33325 -3.2377 0.530994 0
M  V30 3 N 0.0246756 -3.05795 0.614183 0
M  V30 4 C -0.598428 -1.83478 0.490086 0
M  V30 5 C -2.02211 -2.03544 0.641829 0
M  V30 6 C -2.98216 -1.019 0.200083 0
M  V30 7 N -2.54464 0.339259 0.299066 0
M  V30 8 C -1.37034 0.925394 0.918981 0
M  V30 9 C -0.130076 0.648851 0.102822 0
M  V30 10 C 0.234471 -0.770632 0.267405 0
M  V30 11 C 1.61992 -0.922698 0.173273 0
M  V30 12 N 2.10251 -2.17177 0.313177 0
M  V30 13 N 2.49713 0.167078 -0.073921 0
M  V30 14 C 2.39321 0.800646 -1.37155 0
M  V30 15 C 3.76879 0.981136 -1.99914 0
M  V30 16 O 4.33285 2.08199 -1.40525 0
M  V30 17 C 5.16221 1.83446 -0.342261 0
M  V30 18 C 4.84941 0.609861 0.453138 0
M  V30 19 C 3.42867 0.56648 0.969394 0
M  V30 20 C -3.37731 1.28017 -0.318896 0
M  V30 21 O -3.02462 2.51575 -0.262186 0
M  V30 22 C -4.64697 0.951989 -1.04247 0 CFG=2
M  V30 23 N -5.15728 2.1371 -1.72331 0
M  V30 24 C -5.68867 0.58981 -0.0151692 0
M  V30 25 H 1.30212 -5.34382 0.354123 0
M  V30 26 H 2.82459 -4.72111 1.05924 0
M  V30 27 H -2.27222 -3.00352 0.103391 0
M  V30 28 H -2.193 -2.32929 1.72555 0
M  V30 29 H -3.88925 -1.12602 0.871709 0
M  V30 30 H -3.36324 -1.19072 -0.826386 0
M  V30 31 H -1.47247 2.02531 0.998367 0
M  V30 32 H -1.23012 0.484145 1.91169 0
M  V30 33 H 0.667393 1.27313 0.588196 0
M  V30 34 H -0.224776 0.9824 -0.936306 0
M  V30 35 H 1.97073 1.83372 -1.32737 0
M  V30 36 H 1.74827 0.221678 -2.0621 0
M  V30 37 H 4.37735 0.0770296 -1.96878 0
M  V30 38 H 3.58536 1.22567 -3.07544 0
M  V30 39 H 5.05697 2.71051 0.361038 0
M  V30 40 H 6.23335 1.81174 -0.608444 0
M  V30 41 H 5.50904 0.613807 1.34574 0
M  V30 42 H 5.09424 -0.335668 -0.0906433 0
M  V30 43 H 3.38723 -0.152303 1.80983 0
M  V30 44 H 3.19242 1.5716 1.37861 0
M  V30 45 H -4.4934 0.17966 -1.8182 0
M  V30 46 H -4.55871 2.96256 -1.60134 0
M  V30 47 H -5.46236 1.94325 -2.69097 0
M  V30 48 H -6.63694 1.15919 -0.139231 0
M  V30 49 H -5.30476 0.793067 0.984723 0
M  V30 50 H -5.95087 -0.496413 -0.145661 0
M  V30 END ATOM
M  V30 BEGIN BOND
M  V30 1 1 1 2
M  V30 2 2 2 3
M  V30 3 1 3 4
M  V30 4 1 4 5
M  V30 5 1 5 6
M  V30 6 1 6 7
M  V30 7 1 7 8
M  V30 8 1 8 9
M  V30 9 1 9 10
M  V30 10 1 10 11
M  V30 11 2 11 12
M  V30 12 1 11 13
M  V30 13 1 13 14
M  V30 14 1 14 15
M  V30 15 1 15 16
M  V30 16 1 16 17
M  V30 17 1 17 18
M  V30 18 1 18 19
M  V30 19 1 7 20
M  V30 20 2 20 21
M  V30 21 1 20 22
M  V30 22 1 22 23
M  V30 23 1 22 24
M  V30 24 1 12 2
M  V30 25 1 19 13
M  V30 26 2 10 4
M  V30 27 1 1 25
M  V30 28 1 1 26
M  V30 29 1 5 27
M  V30 30 1 5 28
M  V30 31 1 6 29
M  V30 32 1 6 30
M  V30 33 1 8 31
M  V30 34 1 8 32
M  V30 35 1 9 33
M  V30 36 1 9 34
M  V30 37 1 14 35
M  V30 38 1 14 36
M  V30 39 1 15 37
M  V30 40 1 15 38
M  V30 41 1 17 39
M  V30 42 1 17 40
M  V30 43 1 18 41
M  V30 44 1 18 42
M  V30 45 1 19 43
M  V30 46 1 19 44
M  V30 47 1 22 45 CFG=3
M  V30 48 1 23 46
M  V30 49 1 23 47
M  V30 50 1 24 48
M  V30 51 1 24 49
M  V30 52 1 24 50
M  V30 END BOND
M  V30 END CTAB
M  END
