
     RDKit          3D

  0  0  0  0  0  0  0  0  0  0999 V3000
M  V30 BEGIN CTAB
M  V30 COUNTS 60 65 0 0 0
M  V30 BEGIN ATOM
M  V30 1 N -3.78339 -3.09143 4.3351 0
M  V30 2 C -3.08857 -2.55554 3.58197 0
M  V30 3 C -2.20137 -1.89624 2.63647 0
M  V30 4 C -0.951236 -2.39428 2.37464 0
M  V30 5 N -0.532816 -3.58114 3.05202 0
M  V30 6 N -0.141689 -1.7868 1.50772 0
M  V30 7 C -0.602188 -0.655311 0.892875 0
M  V30 8 C -1.84409 -0.101435 1.10776 0
M  V30 9 C -2.65886 -0.75682 2.0143 0
M  V30 10 N -3.94575 -0.245568 2.30469 0
M  V30 11 C -2.21983 1.10135 0.395181 0
M  V30 12 C -3.59102 1.21488 -0.0578592 0
M  V30 13 C -4.4544 2.13033 0.433199 0
M  V30 14 C -5.78078 2.24557 -0.00179018 0
M  V30 15 C -6.21142 1.38151 -0.97355 0
M  V30 16 C -5.36598 0.450226 -1.48661 0
M  V30 17 C -4.04875 0.371583 -1.02159 0
M  V30 18 C -1.21022 1.64821 -0.506642 0
M  V30 19 C -0.0418093 1.10692 -0.686724 0
M  V30 20 N 0.364303 -0.102797 0.00240907 0
M  V30 21 C 1.65198 -0.68394 -0.213169 0
M  V30 22 S 2.09453 -1.84675 -1.37749 0
M  V30 23 C 3.7505 -2.00803 -0.990641 0
M  V30 24 C 3.9051 -1.13321 0.0529671 0
M  V30 25 C 2.82638 -0.450329 0.455171 0
M  V30 26 C 2.84402 0.516872 1.55655 0
M  V30 27 N 2.86356 1.30079 2.43204 0
M  V30 28 C 5.3323 -1.11078 0.568742 0
M  V30 29 C 6.20658 -0.853063 -0.638031 0
M  V30 30 C 6.18003 -2.04808 -1.53795 0
M  V30 31 C 4.91175 -2.82142 -1.51205 0
M  V30 32 C 1.0577 1.62191 -1.58656 0
M  V30 33 C 0.524502 2.63431 -2.53214 0
M  V30 34 C -0.286259 3.66236 -1.72972 0
M  V30 35 C -1.48788 2.87611 -1.29278 0
M  V30 36 O -2.63401 3.20952 -1.56029 0
M  V30 37 H -1.17517 -4.32635 3.35257 0
M  V30 38 H 0.487251 -3.70105 3.25525 0
M  V30 39 H -4.82042 -0.574548 1.8709 0
M  V30 40 H -4.02268 0.517857 3.02394 0
M  V30 41 H -2.18598 1.88496 1.25653 0
M  V30 42 H -4.1922 2.86239 1.21457 0
M  V30 43 H -6.45179 2.98633 0.406912 0
M  V30 44 H -7.22907 1.40479 -1.36727 0
M  V30 45 H -5.70406 -0.235706 -2.25657 0
M  V30 46 H -3.44935 -0.406813 -1.49418 0
M  V30 47 H 5.53216 -2.15225 0.897195 0
M  V30 48 H 5.45826 -0.366886 1.35422 0
M  V30 49 H 5.87664 0.0582516 -1.18104 0
M  V30 50 H 7.24381 -0.666646 -0.290675 0
M  V30 51 H 6.45561 -1.7083 -2.56858 0
M  V30 52 H 6.99979 -2.73675 -1.18441 0
M  V30 53 H 4.64243 -3.06315 -2.57789 0
M  V30 54 H 4.96858 -3.79411 -0.99397 0
M  V30 55 H 1.46566 0.779038 -2.17381 0
M  V30 56 H 1.83365 2.11274 -0.963549 0
M  V30 57 H -0.187648 2.21143 -3.28231 0
M  V30 58 H 1.31445 3.13622 -3.11999 0
M  V30 59 H -0.567772 4.50603 -2.35893 0
M  V30 60 H 0.276975 3.92303 -0.817094 0
M  V30 END ATOM
M  V30 BEGIN BOND
M  V30 1 3 1 2
M  V30 2 1 2 3
M  V30 3 2 3 4
M  V30 4 1 4 5
M  V30 5 1 4 6
M  V30 6 2 6 7
M  V30 7 1 7 8
M  V30 8 2 8 9
M  V30 9 1 9 10
M  V30 10 1 8 11
M  V30 11 1 11 12
M  V30 12 2 12 13
M  V30 13 1 13 14
M  V30 14 2 14 15
M  V30 15 1 15 16
M  V30 16 2 16 17
M  V30 17 1 11 18
M  V30 18 2 18 19
M  V30 19 1 19 20
M  V30 20 1 20 21
M  V30 21 1 21 22
M  V30 22 1 22 23
M  V30 23 2 23 24
M  V30 24 1 24 25
M  V30 25 1 25 26
M  V30 26 3 26 27
M  V30 27 1 24 28
M  V30 28 1 28 29
M  V30 29 1 29 30
M  V30 30 1 30 31
M  V30 31 1 19 32
M  V30 32 1 32 33
M  V30 33 1 33 34
M  V30 34 1 34 35
M  V30 35 2 35 36
M  V30 36 1 9 3
M  V30 37 1 17 12
M  V30 38 1 35 18
M  V30 39 1 20 7
M  V30 40 2 25 21
M  V30 41 1 31 23
M  V30 42 1 5 37
M  V30 43 1 5 38
M  V30 44 1 10 39
M  V30 45 1 10 40
M  V30 46 1 11 41
M  V30 47 1 13 42
M  V30 48 1 14 43
M  V30 49 1 15 44
M  V30 50 1 16 45
M  V30 51 1 17 46
M  V30 52 1 28 47
M  V30 53 1 28 48
M  V30 54 1 29 49
M  V30 55 1 29 50
M  V30 56 1 30 51
M  V30 57 1 30 52
M  V30 58 1 31 53
M  V30 59 1 31 54
M  V30 60 1 32 55
M  V30 61 1 32 56
M  V30 62 1 33 57
M  V30 63 1 33 58
M  V30 64 1 34 59
M  V30 65 1 34 60
M  V30 END BOND
M  V30 END CTAB
M  END
