
     RDKit          3D

  0  0  0  0  0  0  0  0  0  0999 V3000
M  V30 BEGIN CTAB
M  V30 COUNTS 26 26 0 0 0
M  V30 BEGIN ATOM
M  V30 1 C 3.54302 0.2215 0.778094 0
M  V30 2 C 2.9703 0.643761 -0.535122 0
M  V30 3 C 1.48088 0.882565 -0.477867 0
M  V30 4 N 0.754744 -0.337549 -0.136331 0
M  V30 5 C -0.648882 -0.263165 -0.0473205 0
M  V30 6 C -1.3639 -1.38981 0.271418 0
M  V30 7 C -2.74109 -1.32501 0.360629 0
M  V30 8 N -3.45679 -2.48798 0.687926 0
M  V30 9 N -3.32608 -0.147876 0.128615 0
M  V30 10 C -2.65073 0.976522 -0.186587 0
M  V30 11 N -1.30269 0.879268 -0.265969 0
M  V30 12 N -3.29827 2.20288 -0.425424 0
M  V30 13 O 3.23779 -0.309103 -1.49192 0
M  V30 14 H 3.15315 -0.77016 1.09613 0
M  V30 15 H 3.27732 1.01944 1.52514 0
M  V30 16 H 4.64645 0.175023 0.666126 0
M  V30 17 H 3.43916 1.59354 -0.84387 0
M  V30 18 H 1.12694 1.25356 -1.46062 0
M  V30 19 H 1.20613 1.62749 0.284415 0
M  V30 20 H 1.25898 -1.23726 0.0366534 0
M  V30 21 H -0.881873 -2.34369 0.45883 0
M  V30 22 H -3.31085 -3.02579 1.5682 0
M  V30 23 H -4.18059 -2.85772 0.0334618 0
M  V30 24 H -3.18699 2.99729 0.235143 0
M  V30 25 H -3.89493 2.31824 -1.27091 0
M  V30 26 H 4.14879 -0.295961 -1.84877 0
M  V30 END ATOM
M  V30 BEGIN BOND
M  V30 1 1 1 2
M  V30 2 1 2 3
M  V30 3 1 3 4
M  V30 4 1 4 5
M  V30 5 2 5 6
M  V30 6 1 6 7
M  V30 7 1 7 8
M  V30 8 2 7 9
M  V30 9 1 9 10
M  V30 10 2 10 11
M  V30 11 1 10 12
M  V30 12 1 2 13
M  V30 13 1 11 5
M  V30 14 1 1 14
M  V30 15 1 1 15
M  V30 16 1 1 16
M  V30 17 1 2 17
M  V30 18 1 3 18
M  V30 19 1 3 19
M  V30 20 1 4 20
M  V30 21 1 6 21
M  V30 22 1 8 22
M  V30 23 1 8 23
M  V30 24 1 12 24
M  V30 25 1 12 25
M  V30 26 1 13 26
M  V30 END BOND
M  V30 END CTAB
M  END
