
     RDKit          3D

  0  0  0  0  0  0  0  0  0  0999 V3000
M  V30 BEGIN CTAB
M  V30 COUNTS 35 37 0 0 0
M  V30 BEGIN ATOM
M  V30 1 N 6.78941 0.338257 0.564751 0
M  V30 2 C 5.78821 -0.547961 1.021 0
M  V30 3 N 6.10662 -1.571 1.71702 0
M  V30 4 C 4.39387 -0.303587 0.703329 0
M  V30 5 C 4.00803 0.787787 -0.0445308 0
M  V30 6 C 2.6667 1.03744 -0.359531 0
M  V30 7 C 1.71678 0.162746 0.0952248 0
M  V30 8 C 2.05976 -0.926387 0.836716 0
M  V30 9 C 3.40865 -1.16139 1.14314 0
M  V30 10 C 0.312377 0.399573 -0.218774 0
M  V30 11 C -0.779288 -0.338213 0.131402 0
M  V30 12 C -1.99386 0.0964961 -0.288361 0
M  V30 13 C -2.02152 1.2406 -1.02906 0
M  V30 14 S -0.385857 1.68922 -1.13033 0
M  V30 15 C -3.22434 1.78444 -1.51783 0
M  V30 16 C -4.42529 1.17722 -1.26438 0
M  V30 17 C -4.39208 0.00525496 -0.505083 0
M  V30 18 C -3.24014 -0.528078 -0.0289318 0
M  V30 19 C -5.68865 -0.612147 -0.256053 0
M  V30 20 N -6.89038 -0.0259022 -0.77208 0
M  V30 21 N -5.852 -1.68254 0.415225 0
M  V30 22 H 7.53326 0.717384 1.20297 0
M  V30 23 H 6.84594 0.66587 -0.43219 0
M  V30 24 H 7.10707 -1.74319 1.94293 0
M  V30 25 H 4.76022 1.48209 -0.405714 0
M  V30 26 H 2.45158 1.92163 -0.954215 0
M  V30 27 H 1.31962 -1.63605 1.20919 0
M  V30 28 H 3.69154 -2.02055 1.72948 0
M  V30 29 H -0.607368 -1.26063 0.745764 0
M  V30 30 H -3.11366 2.69014 -2.08895 0
M  V30 31 H -5.34356 1.58234 -1.63104 0
M  V30 32 H -3.29329 -1.43491 0.549524 0
M  V30 33 H -7.64306 0.289761 -0.127929 0
M  V30 34 H -7.00339 0.0805236 -1.78378 0
M  V30 35 H -5.06191 -2.18679 0.831092 0
M  V30 END ATOM
M  V30 BEGIN BOND
M  V30 1 1 1 2
M  V30 2 2 2 3 CFG=2
M  V30 3 1 2 4
M  V30 4 2 4 5
M  V30 5 1 5 6
M  V30 6 2 6 7
M  V30 7 1 7 8
M  V30 8 2 8 9
M  V30 9 1 7 10
M  V30 10 2 10 11
M  V30 11 1 11 12
M  V30 12 2 12 13
M  V30 13 1 13 14
M  V30 14 1 13 15
M  V30 15 2 15 16
M  V30 16 1 16 17
M  V30 17 2 17 18
M  V30 18 1 17 19
M  V30 19 1 19 20
M  V30 20 2 19 21 CFG=2
M  V30 21 1 9 4
M  V30 22 1 14 10
M  V30 23 1 18 12
M  V30 24 1 1 22
M  V30 25 1 1 23
M  V30 26 1 3 24
M  V30 27 1 5 25
M  V30 28 1 6 26
M  V30 29 1 8 27
M  V30 30 1 9 28
M  V30 31 1 11 29
M  V30 32 1 15 30
M  V30 33 1 16 31
M  V30 34 1 18 32
M  V30 35 1 20 33
M  V30 36 1 20 34
M  V30 37 1 21 35
M  V30 END BOND
M  V30 END CTAB
M  END
