
     RDKit          3D

  0  0  0  0  0  0  0  0  0  0999 V3000
M  V30 BEGIN CTAB
M  V30 COUNTS 55 56 0 0 0
M  V30 BEGIN ATOM
M  V30 1 N 5.15742 3.56492 -1.20994 0
M  V30 2 C 5.28242 3.3113 0.233244 0
M  V30 3 C 4.82291 1.90369 0.516406 0
M  V30 4 C 3.41295 1.71062 0.112429 0
M  V30 5 O 2.74733 2.64634 -0.394742 0
M  V30 6 N 2.78293 0.460135 0.290702 0
M  V30 7 C 1.37536 0.247686 -0.106525 0
M  V30 8 C 1.04696 -1.1583 0.21739 0
M  V30 9 C 1.86323 -2.19989 -0.496549 0
M  V30 10 C 1.36525 -3.54902 0.0130818 0
M  V30 11 C 0.613373 -3.42539 1.29453 0
M  V30 12 C -0.639494 -2.5643 1.19855 0
M  V30 13 N -0.34343 -1.56063 0.153922 0
M  V30 14 C -1.27625 -1.1004 -0.781827 0
M  V30 15 O -0.778703 -0.298366 -1.67086 0
M  V30 16 C -2.69112 -1.34227 -0.947035 0
M  V30 17 C -3.60713 -0.551542 -0.0343099 0
M  V30 18 C -3.42565 0.91943 -0.245491 0
M  V30 19 C -4.32169 1.60555 -1.0348 0
M  V30 20 C -4.19065 2.97666 -1.25762 0
M  V30 21 C -3.14462 3.66018 -0.677439 0
M  V30 22 C -2.23847 2.98488 0.116511 0
M  V30 23 C -2.39128 1.62837 0.32063 0
M  V30 24 N -3.43623 -0.922157 1.32192 0
M  V30 25 C -3.1467 -2.77649 -0.954859 0
M  V30 26 H 5.87207 3.02603 -1.73262 0
M  V30 27 H 5.25927 4.60934 -1.37243 0
M  V30 28 H 4.70878 4.03954 0.808708 0
M  V30 29 H 6.36529 3.36145 0.48715 0
M  V30 30 H 5.455 1.18507 -0.0596585 0
M  V30 31 H 4.89041 1.71397 1.60776 0
M  V30 32 H 3.29795 -0.331913 0.704776 0
M  V30 33 H 0.792845 0.905952 0.568001 0
M  V30 34 H 1.30395 0.538216 -1.17954 0
M  V30 35 H 1.41775 -1.25891 1.31092 0
M  V30 36 H 1.73773 -2.12647 -1.59768 0
M  V30 37 H 2.90465 -2.11628 -0.189805 0
M  V30 38 H 2.18544 -4.25146 0.15885 0
M  V30 39 H 0.67339 -3.96952 -0.773232 0
M  V30 40 H 0.329492 -4.47584 1.58629 0
M  V30 41 H 1.28361 -3.09187 2.10659 0
M  V30 42 H -1.52608 -3.14601 1.0346 0
M  V30 43 H -0.729327 -1.98689 2.14036 0
M  V30 44 H -2.98738 -0.967576 -1.99222 0
M  V30 45 H -4.6676 -0.836714 -0.318036 0
M  V30 46 H -5.15964 1.12257 -1.51441 0
M  V30 47 H -4.89518 3.51376 -1.87768 0
M  V30 48 H -3.05551 4.73808 -0.862414 0
M  V30 49 H -1.43452 3.54998 0.553283 0
M  V30 50 H -1.66625 1.13125 0.945957 0
M  V30 51 H -4.27934 -1.34273 1.76964 0
M  V30 52 H -2.92055 -0.263125 1.91539 0
M  V30 53 H -3.95442 -2.95479 -1.72608 0
M  V30 54 H -3.67143 -2.98101 0.00915315 0
M  V30 55 H -2.3691 -3.50511 -1.17061 0
M  V30 END ATOM
M  V30 BEGIN BOND
M  V30 1 1 1 2
M  V30 2 1 2 3
M  V30 3 1 3 4
M  V30 4 2 4 5
M  V30 5 1 4 6
M  V30 6 1 6 7
M  V30 7 1 7 8
M  V30 8 1 8 9
M  V30 9 1 9 10
M  V30 10 1 10 11
M  V30 11 1 11 12
M  V30 12 1 12 13
M  V30 13 1 13 14
M  V30 14 2 14 15
M  V30 15 1 14 16
M  V30 16 1 16 17
M  V30 17 1 17 18
M  V30 18 2 18 19
M  V30 19 1 19 20
M  V30 20 2 20 21
M  V30 21 1 21 22
M  V30 22 2 22 23
M  V30 23 1 17 24
M  V30 24 1 16 25
M  V30 25 1 13 8
M  V30 26 1 23 18
M  V30 27 1 1 26
M  V30 28 1 1 27
M  V30 29 1 2 28
M  V30 30 1 2 29
M  V30 31 1 3 30
M  V30 32 1 3 31
M  V30 33 1 6 32
M  V30 34 1 7 33
M  V30 35 1 7 34
M  V30 36 1 8 35
M  V30 37 1 9 36
M  V30 38 1 9 37
M  V30 39 1 10 38
M  V30 40 1 10 39
M  V30 41 1 11 40
M  V30 42 1 11 41
M  V30 43 1 12 42
M  V30 44 1 12 43
M  V30 45 1 16 44
M  V30 46 1 17 45
M  V30 47 1 19 46
M  V30 48 1 20 47
M  V30 49 1 21 48
M  V30 50 1 22 49
M  V30 51 1 23 50
M  V30 52 1 24 51
M  V30 53 1 24 52
M  V30 54 1 25 53
M  V30 55 1 25 54
M  V30 56 1 25 55
M  V30 END BOND
M  V30 END CTAB
M  END
