
     RDKit          3D

  0  0  0  0  0  0  0  0  0  0999 V3000
M  V30 BEGIN CTAB
M  V30 COUNTS 34 36 0 0 0
M  V30 BEGIN ATOM
M  V30 1 N 4.83694 -0.329109 1.69016 0
M  V30 2 C 3.46642 -0.395549 1.25905 0
M  V30 3 N 2.43324 -0.986186 1.88564 0
M  V30 4 N 1.32109 -0.834874 1.17451 0
M  V30 5 C 1.57382 -0.140005 0.0523388 0
M  V30 6 C 2.92457 0.136202 0.106274 0
M  V30 7 C 0.633944 0.26088 -1.02921 0 CFG=1
M  V30 8 C 0.418072 -0.940637 -1.90474 0
M  V30 9 N -0.910444 -1.42103 -2.00238 0
M  V30 10 C -1.86122 -1.20465 -0.982923 0
M  V30 11 C -1.70908 -0.0596546 -0.20346 0
M  V30 12 N -0.611294 0.791623 -0.502051 0
M  V30 13 S -0.761488 2.47544 -0.223555 0
M  V30 14 O -0.36422 3.24105 -1.50455 0
M  V30 15 O -2.14041 2.94853 0.0635662 0
M  V30 16 N 0.366023 3.03954 0.95614 0
M  V30 17 C -2.59448 0.225446 0.822584 0
M  V30 18 C -3.62766 -0.649668 1.05051 0
M  V30 19 C -3.80221 -1.80514 0.280973 0
M  V30 20 C -2.90071 -2.0527 -0.728053 0
M  V30 21 H 5.07692 -0.171481 2.69116 0
M  V30 22 H 5.63739 -0.433983 1.03106 0
M  V30 23 H 0.380388 -1.20577 1.45124 0
M  V30 24 H 3.51882 0.683044 -0.618744 0
M  V30 25 H 1.07046 1.05583 -1.66675 0
M  V30 26 H 0.795128 -0.751328 -2.95393 0
M  V30 27 H 1.05471 -1.81431 -1.5734 0
M  V30 28 H -1.20233 -1.95357 -2.84555 0
M  V30 29 H 0.0497198 3.98361 1.24827 0
M  V30 30 H 1.32715 3.01826 0.553835 0
M  V30 31 H -2.44932 1.10586 1.41296 0
M  V30 32 H -4.31535 -0.415728 1.85693 0
M  V30 33 H -4.63242 -2.457 0.504729 0
M  V30 34 H -3.0022 -2.94293 -1.35265 0
M  V30 END ATOM
M  V30 BEGIN BOND
M  V30 1 1 1 2
M  V30 2 2 2 3
M  V30 3 1 3 4
M  V30 4 1 4 5
M  V30 5 2 5 6
M  V30 6 1 5 7
M  V30 7 1 7 8
M  V30 8 1 8 9
M  V30 9 1 9 10
M  V30 10 2 10 11
M  V30 11 1 11 12
M  V30 12 1 12 13
M  V30 13 2 13 14
M  V30 14 2 13 15
M  V30 15 1 13 16
M  V30 16 1 11 17
M  V30 17 2 17 18
M  V30 18 1 18 19
M  V30 19 2 19 20
M  V30 20 1 6 2
M  V30 21 1 12 7
M  V30 22 1 20 10
M  V30 23 1 1 21
M  V30 24 1 1 22
M  V30 25 1 4 23
M  V30 26 1 6 24
M  V30 27 1 7 25 CFG=3
M  V30 28 1 8 26
M  V30 29 1 8 27
M  V30 30 1 9 28
M  V30 31 1 16 29
M  V30 32 1 16 30
M  V30 33 1 17 31
M  V30 34 1 18 32
M  V30 35 1 19 33
M  V30 36 1 20 34
M  V30 END BOND
M  V30 END CTAB
M  END
