
     RDKit          3D

  0  0  0  0  0  0  0  0  0  0999 V3000
M  V30 BEGIN CTAB
M  V30 COUNTS 14 14 0 0 0
M  V30 BEGIN ATOM
M  V30 1 N -2.44817 0.733168 0.492626 0
M  V30 2 C -1.19049 0.174357 0.125569 0
M  V30 3 N -0.0595716 0.792972 0.511699 0
M  V30 4 C 1.12978 0.245949 0.152686 0
M  V30 5 N 2.36888 0.859892 0.534949 0
M  V30 6 C 1.21502 -0.913927 -0.588983 0
M  V30 7 Br 2.92109 -1.63489 -1.06323 0
M  V30 8 N 0.0648108 -1.5261 -0.970841 0
M  V30 9 C -1.12439 -0.98985 -0.618718 0
M  V30 10 Br -2.76169 -1.80355 -1.12546 0
M  V30 11 H -2.78002 0.530584 1.46531 0
M  V30 12 H -2.96102 1.29649 -0.197018 0
M  V30 13 H 2.63968 1.72873 0.00802392 0
M  V30 14 H 2.9861 0.50618 1.27339 0
M  V30 END ATOM
M  V30 BEGIN BOND
M  V30 1 1 1 2
M  V30 2 2 2 3
M  V30 3 1 3 4
M  V30 4 1 4 5
M  V30 5 2 4 6
M  V30 6 1 6 7
M  V30 7 1 6 8
M  V30 8 2 8 9
M  V30 9 1 9 10
M  V30 10 1 9 2
M  V30 11 1 1 11
M  V30 12 1 1 12
M  V30 13 1 5 13
M  V30 14 1 5 14
M  V30 END BOND
M  V30 END CTAB
M  END
