
     RDKit          3D

  0  0  0  0  0  0  0  0  0  0999 V3000
M  V30 BEGIN CTAB
M  V30 COUNTS 30 31 0 0 0
M  V30 BEGIN ATOM
M  V30 1 C 0.98218 -0.110914 -1.62203 0
M  V30 2 C 0.656917 -0.169055 -0.168085 0 CFG=1
M  V30 3 C 0.897371 -1.54247 0.41839 0
M  V30 4 C 2.30662 -1.95299 0.0489526 0
M  V30 5 O 3.16063 -0.829901 0.0832608 0
M  V30 6 C 2.77322 0.383139 0.656723 0
M  V30 7 N 3.66165 1.23941 1.34722 0
M  V30 8 N 1.54344 0.743721 0.553113 0
M  V30 9 C -0.72112 0.30953 0.082014 0
M  V30 10 C -1.7042 -0.435164 0.688544 0
M  V30 11 C -2.97298 0.0653515 0.895038 0
M  V30 12 N -3.9928 -0.695783 1.51974 0
M  V30 13 C -3.25121 1.34252 0.480025 0
M  V30 14 C -2.29752 2.12978 -0.133934 0
M  V30 15 C -1.0432 1.58867 -0.319815 0
M  V30 16 F -0.120721 2.37088 -0.921666 0
M  V30 17 H 0.0813948 0.230224 -2.17707 0
M  V30 18 H 1.79137 0.591715 -1.80772 0
M  V30 19 H 1.24993 -1.09983 -2.05435 0
M  V30 20 H 0.153586 -2.28407 0.0820276 0
M  V30 21 H 0.831685 -1.45127 1.51262 0
M  V30 22 H 2.65063 -2.64407 0.849518 0
M  V30 23 H 2.2931 -2.44765 -0.936294 0
M  V30 24 H 4.13966 2.02047 0.87301 0
M  V30 25 H 3.83427 1.07548 2.35341 0
M  V30 26 H -1.46741 -1.42221 1.00236 0
M  V30 27 H -3.70632 -1.37364 2.2602 0
M  V30 28 H -4.98707 -0.569903 1.23721 0
M  V30 29 H -4.23378 1.80954 0.608626 0
M  V30 30 H -2.50932 3.12851 -0.460313 0
M  V30 END ATOM
M  V30 BEGIN BOND
M  V30 1 1 2 1 CFG=3
M  V30 2 1 2 3
M  V30 3 1 3 4
M  V30 4 1 4 5
M  V30 5 1 5 6
M  V30 6 1 6 7
M  V30 7 2 6 8
M  V30 8 1 2 9
M  V30 9 2 9 10
M  V30 10 1 10 11
M  V30 11 1 11 12
M  V30 12 2 11 13
M  V30 13 1 13 14
M  V30 14 2 14 15
M  V30 15 1 15 16
M  V30 16 1 8 2
M  V30 17 1 15 9
M  V30 18 1 1 17
M  V30 19 1 1 18
M  V30 20 1 1 19
M  V30 21 1 3 20
M  V30 22 1 3 21
M  V30 23 1 4 22
M  V30 24 1 4 23
M  V30 25 1 7 24
M  V30 26 1 7 25
M  V30 27 1 10 26
M  V30 28 1 12 27
M  V30 29 1 12 28
M  V30 30 1 13 29
M  V30 31 1 14 30
M  V30 END BOND
M  V30 END CTAB
M  END
