
     RDKit          3D

  0  0  0  0  0  0  0  0  0  0999 V3000
M  V30 BEGIN CTAB
M  V30 COUNTS 20 19 0 0 0
M  V30 BEGIN ATOM
M  V30 1 C -2.15568 -0.870899 0.748565 0
M  V30 2 C -0.883109 -0.701584 -0.0786904 0 CFG=2
M  V30 3 C -0.135207 0.475057 0.56483 0 CFG=1
M  V30 4 C 1.16656 0.707823 -0.129554 0
M  V30 5 O 1.34892 1.83165 -0.662476 0
M  V30 6 N 2.15387 -0.305567 -0.181141 0
M  V30 7 N 3.37222 -0.121331 -0.817637 0
M  V30 8 N -1.00316 1.59345 0.519494 0
M  V30 9 O -1.16764 -0.311753 -1.37743 0
M  V30 10 H -2.87459 -1.47578 0.186371 0
M  V30 11 H -1.87643 -1.37812 1.69169 0
M  V30 12 H -2.51226 0.131386 1.00994 0
M  V30 13 H -0.286452 -1.63324 -0.0173521 0
M  V30 14 H 0.0523675 0.204782 1.62703 0
M  V30 15 H 1.9635 -1.22258 0.272939 0
M  V30 16 H 3.84914 -1.03649 -0.978089 0
M  V30 17 H 3.21971 0.366838 -1.7395 0
M  V30 18 H -1.13109 2.1155 1.38516 0
M  V30 19 H -1.02325 2.12666 -0.353053 0
M  V30 20 H -2.07743 -0.495808 -1.67109 0
M  V30 END ATOM
M  V30 BEGIN BOND
M  V30 1 1 1 2
M  V30 2 1 2 3
M  V30 3 1 3 4
M  V30 4 2 4 5
M  V30 5 1 4 6
M  V30 6 1 6 7
M  V30 7 1 3 8
M  V30 8 1 2 9
M  V30 9 1 1 10
M  V30 10 1 1 11
M  V30 11 1 1 12
M  V30 12 1 2 13 CFG=3
M  V30 13 1 3 14 CFG=1
M  V30 14 1 6 15
M  V30 15 1 7 16
M  V30 16 1 7 17
M  V30 17 1 8 18
M  V30 18 1 8 19
M  V30 19 1 9 20
M  V30 END BOND
M  V30 END CTAB
M  END
