
     RDKit          3D

  0  0  0  0  0  0  0  0  0  0999 V3000
M  V30 BEGIN CTAB
M  V30 COUNTS 22 22 0 0 0
M  V30 BEGIN ATOM
M  V30 1 C 2.95446 -0.818611 -0.37652 0
M  V30 2 N 1.53317 -0.51833 -0.183248 0
M  V30 3 C 0.650194 -1.4968 0.0908229 0
M  V30 4 O 1.0127 -2.69989 0.190434 0
M  V30 5 C -0.678594 -1.15749 0.263774 0
M  V30 6 N -1.66732 -2.14173 0.555945 0
M  V30 7 C -1.12922 0.149541 0.164865 0
M  V30 8 N -2.49844 0.487432 0.344611 0
M  V30 9 N -0.201547 1.09058 -0.111585 0
M  V30 10 C -0.658053 2.47834 -0.220199 0
M  V30 11 C 1.09054 0.747135 -0.277974 0
M  V30 12 S 2.19128 1.90532 -0.6115 0
M  V30 13 H 3.24437 -1.76015 0.136358 0
M  V30 14 H 3.11607 -0.99387 -1.46189 0
M  V30 15 H 3.59734 -0.0224611 0.0343815 0
M  V30 16 H -2.4386 -2.28643 -0.132109 0
M  V30 17 H -1.67402 -2.72777 1.40962 0
M  V30 18 H -3.23926 -0.200602 0.0908928 0
M  V30 19 H -2.81199 1.40555 0.724614 0
M  V30 20 H -0.896666 2.89253 0.799897 0
M  V30 21 H -1.61276 2.54956 -0.7854 0
M  V30 22 H 0.116338 3.11815 -0.645792 0
M  V30 END ATOM
M  V30 BEGIN BOND
M  V30 1 1 1 2
M  V30 2 1 2 3
M  V30 3 2 3 4
M  V30 4 1 3 5
M  V30 5 1 5 6
M  V30 6 2 5 7
M  V30 7 1 7 8
M  V30 8 1 7 9
M  V30 9 1 9 10
M  V30 10 1 9 11
M  V30 11 2 11 12
M  V30 12 1 11 2
M  V30 13 1 1 13
M  V30 14 1 1 14
M  V30 15 1 1 15
M  V30 16 1 6 16
M  V30 17 1 6 17
M  V30 18 1 8 18
M  V30 19 1 8 19
M  V30 20 1 10 20
M  V30 21 1 10 21
M  V30 22 1 10 22
M  V30 END BOND
M  V30 END CTAB
M  END
