
     RDKit          3D

  0  0  0  0  0  0  0  0  0  0999 V3000
M  V30 BEGIN CTAB
M  V30 COUNTS 18 18 0 0 0
M  V30 BEGIN ATOM
M  V30 1 N -2.9337 -0.7509 -0.0259979 0
M  V30 2 C -1.70891 -0.0353157 0.0335591 0
M  V30 3 C -1.67331 1.25015 0.506658 0
M  V30 4 C -0.474076 1.92874 0.556786 0
M  V30 5 N 0.668397 1.3344 0.142064 0
M  V30 6 C 0.646396 0.0767854 -0.322952 0
M  V30 7 C -0.527735 -0.621507 -0.384666 0
M  V30 8 S 2.15461 -0.644477 -0.8468 0
M  V30 9 O 1.98312 -2.04319 -1.29714 0
M  V30 10 O 2.74495 0.250435 -1.90854 0
M  V30 11 N 3.25684 -0.672671 0.494168 0
M  V30 12 H -3.30366 -1.13697 0.872407 0
M  V30 13 H -3.47382 -0.907139 -0.911457 0
M  V30 14 H -2.59219 1.70483 0.831523 0
M  V30 15 H -0.502432 2.94476 0.940265 0
M  V30 16 H -0.485105 -1.63165 -0.768368 0
M  V30 17 H 2.88703 -1.34293 1.22903 0
M  V30 18 H 3.3336 0.29665 0.859472 0
M  V30 END ATOM
M  V30 BEGIN BOND
M  V30 1 1 1 2
M  V30 2 2 2 3
M  V30 3 1 3 4
M  V30 4 2 4 5
M  V30 5 1 5 6
M  V30 6 2 6 7
M  V30 7 1 6 8
M  V30 8 2 8 9
M  V30 9 2 8 10
M  V30 10 1 8 11
M  V30 11 1 7 2
M  V30 12 1 1 12
M  V30 13 1 1 13
M  V30 14 1 3 14
M  V30 15 1 4 15
M  V30 16 1 7 16
M  V30 17 1 11 17
M  V30 18 1 11 18
M  V30 END BOND
M  V30 END CTAB
M  END
