
     RDKit          3D

  0  0  0  0  0  0  0  0  0  0999 V3000
M  V30 BEGIN CTAB
M  V30 COUNTS 53 55 0 0 0
M  V30 BEGIN ATOM
M  V30 1 C 3.34777 3.01857 1.34469 0
M  V30 2 O 4.52998 2.33421 1.1544 0
M  V30 3 C 4.40353 1.00205 1.44552 0
M  V30 4 C 3.40293 0.271985 0.618407 0
M  V30 5 C 3.34657 -1.21254 0.995423 0
M  V30 6 N 2.34729 -1.88787 0.152545 0
M  V30 7 C 0.975583 -2.00506 0.526058 0
M  V30 8 C -0.0128879 -1.63255 -0.559527 0
M  V30 9 C -0.963186 -2.779 -0.72269 0
M  V30 10 C -2.40473 -2.38357 -0.874085 0
M  V30 11 C -2.69628 -1.56149 0.392163 0
M  V30 12 N -1.97153 -0.325138 0.171807 0
M  V30 13 C -0.595064 -0.32462 -0.20985 0
M  V30 14 C -2.70517 0.895439 0.354781 0
M  V30 15 C -2.11092 2.1241 0.171242 0
M  V30 16 C -2.86167 3.26179 0.3598 0
M  V30 17 N -2.26223 4.52147 0.174356 0
M  V30 18 N -4.16949 3.19233 0.72134 0
M  V30 19 C -4.75407 1.98858 0.901871 0
M  V30 20 N -4.00152 0.892919 0.712092 0
M  V30 21 N -6.12104 1.92848 1.27952 0
M  V30 22 C 0.693005 -1.48674 -1.91154 0
M  V30 23 C 1.69905 -2.5837 -2.13656 0
M  V30 24 C 2.7385 -2.46301 -1.09914 0
M  V30 25 O 3.91421 -2.84657 -1.30252 0
M  V30 26 H 3.05873 2.86518 2.415 0
M  V30 27 H 3.49399 4.12985 1.20021 0
M  V30 28 H 2.6037 2.6674 0.620966 0
M  V30 29 H 4.16652 0.896561 2.55 0
M  V30 30 H 5.42239 0.546745 1.3724 0
M  V30 31 H 3.647 0.384134 -0.45419 0
M  V30 32 H 2.38903 0.727639 0.773515 0
M  V30 33 H 2.97723 -1.25379 2.03469 0
M  V30 34 H 4.32973 -1.67806 0.948299 0
M  V30 35 H 0.824834 -1.40288 1.44656 0
M  V30 36 H 0.830349 -3.07245 0.868584 0
M  V30 37 H -0.915506 -3.4496 0.165268 0
M  V30 38 H -0.716011 -3.42695 -1.591 0
M  V30 39 H -2.53743 -1.70916 -1.73476 0
M  V30 40 H -3.00725 -3.28872 -0.907738 0
M  V30 41 H -2.23095 -2.11207 1.2576 0
M  V30 42 H -3.75925 -1.41959 0.553338 0
M  V30 43 H -0.0367123 0.18724 0.631663 0
M  V30 44 H -0.504666 0.420067 -1.05649 0
M  V30 45 H -1.07321 2.16285 -0.115221 0
M  V30 46 H -1.99499 4.83095 -0.766764 0
M  V30 47 H -2.08736 5.14402 0.988732 0
M  V30 48 H -6.43388 1.88146 2.26659 0
M  V30 49 H -6.84234 1.93163 0.534942 0
M  V30 50 H -0.0643994 -1.40397 -2.69202 0
M  V30 51 H 1.26421 -0.532529 -1.86206 0
M  V30 52 H 2.17684 -2.37896 -3.11653 0
M  V30 53 H 1.2508 -3.58707 -2.19878 0
M  V30 END ATOM
M  V30 BEGIN BOND
M  V30 1 1 1 2
M  V30 2 1 2 3
M  V30 3 1 3 4
M  V30 4 1 4 5
M  V30 5 1 5 6
M  V30 6 1 6 7
M  V30 7 1 7 8
M  V30 8 1 8 9
M  V30 9 1 9 10
M  V30 10 1 10 11
M  V30 11 1 11 12
M  V30 12 1 12 13
M  V30 13 1 12 14
M  V30 14 2 14 15
M  V30 15 1 15 16
M  V30 16 1 16 17
M  V30 17 2 16 18
M  V30 18 1 18 19
M  V30 19 2 19 20
M  V30 20 1 19 21
M  V30 21 1 8 22
M  V30 22 1 22 23
M  V30 23 1 23 24
M  V30 24 2 24 25
M  V30 25 1 24 6
M  V30 26 1 13 8
M  V30 27 1 20 14
M  V30 28 1 1 26
M  V30 29 1 1 27
M  V30 30 1 1 28
M  V30 31 1 3 29
M  V30 32 1 3 30
M  V30 33 1 4 31
M  V30 34 1 4 32
M  V30 35 1 5 33
M  V30 36 1 5 34
M  V30 37 1 7 35
M  V30 38 1 7 36
M  V30 39 1 9 37
M  V30 40 1 9 38
M  V30 41 1 10 39
M  V30 42 1 10 40
M  V30 43 1 11 41
M  V30 44 1 11 42
M  V30 45 1 13 43
M  V30 46 1 13 44
M  V30 47 1 15 45
M  V30 48 1 17 46
M  V30 49 1 17 47
M  V30 50 1 21 48
M  V30 51 1 21 49
M  V30 52 1 22 50
M  V30 53 1 22 51
M  V30 54 1 23 52
M  V30 55 1 23 53
M  V30 END BOND
M  V30 END CTAB
M  END
