
     RDKit          3D

  0  0  0  0  0  0  0  0  0  0999 V3000
M  V30 BEGIN CTAB
M  V30 COUNTS 30 31 0 0 0
M  V30 BEGIN ATOM
M  V30 1 N 3.69978 0.0661588 0.492998 0
M  V30 2 C 2.30224 0.239012 0.219419 0
M  V30 3 C 1.77917 -0.847047 -0.727813 0
M  V30 4 C 0.465043 -0.312257 -1.27585 0
M  V30 5 C -0.468028 0.108709 -0.140209 0
M  V30 6 C 0.0666372 -0.367129 1.1899 0
M  V30 7 C 1.43345 0.185239 1.4472 0
M  V30 8 O -0.621571 1.47073 -0.0776297 0
M  V30 9 C -1.97164 1.72977 0.20008 0
M  V30 10 C -2.63473 0.74393 -0.774015 0
M  V30 11 C -1.80855 -0.50529 -0.434676 0
M  V30 12 N -2.42286 -1.10695 0.722918 0
M  V30 13 H 4.09903 0.9411 0.866209 0
M  V30 14 H 3.8442 -0.759889 1.09586 0
M  V30 15 H 2.0966 1.20821 -0.283615 0
M  V30 16 H 1.61752 -1.79038 -0.161796 0
M  V30 17 H 2.45556 -1.00445 -1.56882 0
M  V30 18 H 0.664432 0.545866 -1.91936 0
M  V30 19 H 0.0281378 -1.13571 -1.8791 0
M  V30 20 H -0.636002 0.0181906 1.96583 0
M  V30 21 H 0.152106 -1.48631 1.22934 0
M  V30 22 H 1.36926 1.19467 1.87221 0
M  V30 23 H 1.98794 -0.432987 2.20009 0
M  V30 24 H -2.23182 2.76236 -0.0138782 0
M  V30 25 H -2.16813 1.41419 1.24789 0
M  V30 26 H -3.69506 0.609013 -0.569557 0
M  V30 27 H -2.38839 1.09999 -1.78669 0
M  V30 28 H -1.82804 -1.14365 -1.31843 0
M  V30 29 H -1.8501 -1.93851 1.02142 0
M  V30 30 H -3.3362 -1.50656 0.406237 0
M  V30 END ATOM
M  V30 BEGIN BOND
M  V30 1 1 1 2
M  V30 2 1 2 3
M  V30 3 1 3 4
M  V30 4 1 4 5
M  V30 5 1 5 6
M  V30 6 1 6 7
M  V30 7 1 5 8
M  V30 8 1 8 9
M  V30 9 1 9 10
M  V30 10 1 10 11
M  V30 11 1 11 12
M  V30 12 1 7 2
M  V30 13 1 11 5
M  V30 14 1 1 13
M  V30 15 1 1 14
M  V30 16 1 2 15
M  V30 17 1 3 16
M  V30 18 1 3 17
M  V30 19 1 4 18
M  V30 20 1 4 19
M  V30 21 1 6 20
M  V30 22 1 6 21
M  V30 23 1 7 22
M  V30 24 1 7 23
M  V30 25 1 9 24
M  V30 26 1 9 25
M  V30 27 1 10 26
M  V30 28 1 10 27
M  V30 29 1 11 28
M  V30 30 1 12 29
M  V30 31 1 12 30
M  V30 END BOND
M  V30 END CTAB
M  END
