
     RDKit          3D

  0  0  0  0  0  0  0  0  0  0999 V3000
M  V30 BEGIN CTAB
M  V30 COUNTS 23 23 0 0 0
M  V30 BEGIN ATOM
M  V30 1 C -3.31544 1.00854 -0.550856 0
M  V30 2 C -1.85105 0.747593 -0.513401 0
M  V30 3 C -1.43025 -0.432753 0.054389 0
M  V30 4 N -2.34237 -1.37595 0.588245 0
M  V30 5 C -0.0607887 -0.722438 0.112476 0
M  V30 6 C 0.89038 0.118706 -0.371419 0
M  V30 7 N 2.2864 -0.0753134 -0.331499 0
M  V30 8 C 3.04066 -0.8606 0.531376 0
M  V30 9 N 4.47792 -0.90604 0.355112 0
M  V30 10 S 2.42487 -1.71628 1.75723 0
M  V30 11 C 0.409851 1.32022 -0.946618 0
M  V30 12 C -0.91694 1.60447 -1.00518 0
M  V30 13 H -3.84677 0.334508 -1.24145 0
M  V30 14 H -3.73798 0.852606 0.473439 0
M  V30 15 H -3.55371 2.04979 -0.830559 0
M  V30 16 H -3.26189 -1.08472 0.965851 0
M  V30 17 H -2.09126 -2.38091 0.604776 0
M  V30 18 H 0.220148 -1.6659 0.54675 0
M  V30 19 H 2.85961 0.464289 -1.08488 0
M  V30 20 H 4.87355 -1.01915 -0.597213 0
M  V30 21 H 5.09958 -0.826826 1.16715 0
M  V30 22 H 1.13352 2.03087 -1.35122 0
M  V30 23 H -1.30803 2.53529 -1.44958 0
M  V30 END ATOM
M  V30 BEGIN BOND
M  V30 1 1 1 2
M  V30 2 2 2 3
M  V30 3 1 3 4
M  V30 4 1 3 5
M  V30 5 2 5 6
M  V30 6 1 6 7
M  V30 7 1 7 8
M  V30 8 1 8 9
M  V30 9 2 8 10
M  V30 10 1 6 11
M  V30 11 2 11 12
M  V30 12 1 12 2
M  V30 13 1 1 13
M  V30 14 1 1 14
M  V30 15 1 1 15
M  V30 16 1 4 16
M  V30 17 1 4 17
M  V30 18 1 5 18
M  V30 19 1 7 19
M  V30 20 1 9 20
M  V30 21 1 9 21
M  V30 22 1 11 22
M  V30 23 1 12 23
M  V30 END BOND
M  V30 END CTAB
M  END
