
     RDKit          3D

  0  0  0  0  0  0  0  0  0  0999 V3000
M  V30 BEGIN CTAB
M  V30 COUNTS 71 73 0 0 0
M  V30 BEGIN ATOM
M  V30 1 C 4.99281 -1.46702 3.72533 0
M  V30 2 C 5.93509 -2.06136 2.73218 0
M  V30 3 C 6.17645 -1.24278 1.52459 0
M  V30 4 N 7.36215 -0.567948 1.3777 0
M  V30 5 C 7.63094 0.165595 0.286924 0
M  V30 6 N 8.87902 0.877698 0.14854 0
M  V30 7 N 6.6993 0.223279 -0.676386 0
M  V30 8 C 5.5153 -0.418106 -0.585826 0
M  V30 9 N 4.50906 -0.372647 -1.57647 0
M  V30 10 C 5.23124 -1.17972 0.552319 0
M  V30 11 C 3.93214 -1.84086 0.698034 0
M  V30 12 C 3.72764 -3.1695 0.63276 0
M  V30 13 C 2.43924 -3.68195 0.759008 0
M  V30 14 C 1.36631 -2.83437 0.952106 0
M  V30 15 Cl -0.256651 -3.51096 1.11066 0
M  V30 16 C 1.52944 -1.46192 1.02817 0
M  V30 17 C 2.8449 -1.02411 0.89241 0
M  V30 18 N 0.505281 -0.526234 1.20904 0
M  V30 19 N -0.250488 0.168724 0.718487 0
M  V30 20 N -0.772115 0.6551 -0.436845 0
M  V30 21 C -0.532598 2.12481 -0.620005 0
M  V30 22 C -1.81786 2.83168 -0.371054 0
M  V30 23 O -1.73617 4.20844 -0.503584 0
M  V30 24 C -1.48234 4.94398 -1.58129 0
M  V30 25 C -1.41075 6.41831 -1.6341 0
M  V30 26 O -1.27611 4.32667 -2.71239 0
M  V30 27 C -1.52734 -0.0126582 -1.44328 0
M  V30 28 C -2.89578 -0.36913 -1.06443 0
M  V30 29 C -3.19196 -0.990789 0.122029 0
M  V30 30 C -4.49687 -1.31659 0.479047 0
M  V30 31 O -4.83612 -1.94472 1.65478 0
M  V30 32 C -3.94702 -2.34556 2.63423 0
M  V30 33 C -5.49302 -0.988025 -0.409126 0
M  V30 34 O -6.83337 -1.29055 -0.0999448 0
M  V30 35 C -7.55242 -0.272494 0.595756 0
M  V30 36 C -5.25394 -0.356403 -1.6232 0
M  V30 37 O -6.31361 -0.0602934 -2.45106 0
M  V30 38 C -6.20657 0.577158 -3.67417 0
M  V30 39 C -3.95019 -0.0603516 -1.92 0
M  V30 40 H 4.62234 -0.463691 3.47785 0
M  V30 41 H 4.10387 -2.14474 3.80683 0
M  V30 42 H 5.41161 -1.45556 4.77553 0
M  V30 43 H 5.69721 -3.13177 2.4851 0
M  V30 44 H 6.93517 -2.15342 3.26161 0
M  V30 45 H 9.18013 1.35023 -0.706424 0
M  V30 46 H 9.53667 0.932339 0.96713 0
M  V30 47 H 3.75764 -1.09727 -1.60035 0
M  V30 48 H 4.43351 0.35128 -2.32736 0
M  V30 49 H 4.55941 -3.82811 0.485954 0
M  V30 50 H 2.22206 -4.74929 0.713821 0
M  V30 51 H 2.99577 0.053079 0.953778 0
M  V30 52 H -0.297155 2.28519 -1.71376 0
M  V30 53 H 0.319905 2.47824 -0.0408119 0
M  V30 54 H -2.19547 2.51428 0.624309 0
M  V30 55 H -2.62466 2.50823 -1.09395 0
M  V30 56 H -0.645577 6.76027 -2.36174 0
M  V30 57 H -2.42051 6.80263 -1.95615 0
M  V30 58 H -1.17586 6.89717 -0.674023 0
M  V30 59 H -0.942036 -0.893723 -1.8284 0
M  V30 60 H -1.60669 0.657933 -2.36677 0
M  V30 61 H -2.42375 -1.2282 0.814688 0
M  V30 62 H -3.93981 -1.66889 3.5229 0
M  V30 63 H -2.93024 -2.42524 2.24403 0
M  V30 64 H -4.15973 -3.36051 3.0514 0
M  V30 65 H -8.06038 -0.674975 1.48997 0
M  V30 66 H -6.90245 0.581639 0.86201 0
M  V30 67 H -8.34746 0.162274 -0.0511517 0
M  V30 68 H -6.57093 1.6473 -3.6531 0
M  V30 69 H -6.85444 0.0867655 -4.43904 0
M  V30 70 H -5.20313 0.602127 -4.09987 0
M  V30 71 H -3.71803 0.449991 -2.86751 0
M  V30 END ATOM
M  V30 BEGIN BOND
M  V30 1 1 1 2
M  V30 2 1 2 3
M  V30 3 2 3 4
M  V30 4 1 4 5
M  V30 5 1 5 6
M  V30 6 2 5 7
M  V30 7 1 7 8
M  V30 8 1 8 9
M  V30 9 2 8 10
M  V30 10 1 10 11
M  V30 11 2 11 12
M  V30 12 1 12 13
M  V30 13 2 13 14
M  V30 14 1 14 15
M  V30 15 1 14 16
M  V30 16 2 16 17
M  V30 17 1 16 18
M  V30 18 2 18 19
M  V30 19 1 19 20
M  V30 20 1 20 21
M  V30 21 1 21 22
M  V30 22 1 22 23
M  V30 23 1 23 24
M  V30 24 1 24 25
M  V30 25 2 24 26
M  V30 26 1 20 27
M  V30 27 1 27 28
M  V30 28 2 28 29
M  V30 29 1 29 30
M  V30 30 1 30 31
M  V30 31 1 31 32
M  V30 32 2 30 33
M  V30 33 1 33 34
M  V30 34 1 34 35
M  V30 35 1 33 36
M  V30 36 1 36 37
M  V30 37 1 37 38
M  V30 38 2 36 39
M  V30 39 1 10 3
M  V30 40 1 17 11
M  V30 41 1 39 28
M  V30 42 1 1 40
M  V30 43 1 1 41
M  V30 44 1 1 42
M  V30 45 1 2 43
M  V30 46 1 2 44
M  V30 47 1 6 45
M  V30 48 1 6 46
M  V30 49 1 9 47
M  V30 50 1 9 48
M  V30 51 1 12 49
M  V30 52 1 13 50
M  V30 53 1 17 51
M  V30 54 1 21 52
M  V30 55 1 21 53
M  V30 56 1 22 54
M  V30 57 1 22 55
M  V30 58 1 25 56
M  V30 59 1 25 57
M  V30 60 1 25 58
M  V30 61 1 27 59
M  V30 62 1 27 60
M  V30 63 1 29 61
M  V30 64 1 32 62
M  V30 65 1 32 63
M  V30 66 1 32 64
M  V30 67 1 35 65
M  V30 68 1 35 66
M  V30 69 1 35 67
M  V30 70 1 38 68
M  V30 71 1 38 69
M  V30 72 1 38 70
M  V30 73 1 39 71
M  V30 END BOND
M  V30 END CTAB
M  END
