
     RDKit          3D

  0  0  0  0  0  0  0  0  0  0999 V3000
M  V30 BEGIN CTAB
M  V30 COUNTS 35 36 0 0 0
M  V30 BEGIN ATOM
M  V30 1 F 7.60757 -1.07357 1.25612 0
M  V30 2 C 6.36359 -0.673786 0.827946 0
M  V30 3 C 6.14964 0.560156 0.302417 0
M  V30 4 C 4.89347 0.923353 -0.113891 0
M  V30 5 C 3.82152 0.0723161 -0.0188625 0
M  V30 6 C 4.05531 -1.19025 0.52199 0
M  V30 7 C 5.31366 -1.55859 0.940834 0
M  V30 8 O 2.54212 0.430819 -0.438387 0
M  V30 9 C 1.44329 -0.448708 -0.338531 0
M  V30 10 C 0.175815 0.202888 -0.869801 0
M  V30 11 C -0.138997 1.4584 -0.0728641 0
M  V30 12 S -1.63315 2.20821 -0.717404 0
M  V30 13 C -3.06953 1.18797 -0.447552 0
M  V30 14 N -4.2679 1.6087 -0.873304 0
M  V30 15 C -5.41387 0.88388 -0.702706 0
M  V30 16 N -6.66225 1.36491 -1.16821 0
M  V30 17 C -5.33749 -0.334965 -0.0644902 0
M  V30 18 C -4.11237 -0.779279 0.37793 0
M  V30 19 N -3.02993 -0.00275725 0.169623 0
M  V30 20 N -3.98798 -2.04746 1.04957 0
M  V30 21 H 7.01309 1.23568 0.229784 0
M  V30 22 H 4.76305 1.9101 -0.525504 0
M  V30 23 H 3.22007 -1.86942 0.602173 0
M  V30 24 H 5.47588 -2.55293 1.36185 0
M  V30 25 H 1.27838 -0.694689 0.726225 0
M  V30 26 H 1.68388 -1.34614 -0.925277 0
M  V30 27 H 0.408101 0.534858 -1.906 0
M  V30 28 H -0.667477 -0.501458 -0.866386 0
M  V30 29 H -0.231067 1.23257 1.01111 0
M  V30 30 H 0.713762 2.14727 -0.233403 0
M  V30 31 H -7.46884 1.44977 -0.547167 0
M  V30 32 H -6.74512 1.6341 -2.16546 0
M  V30 33 H -6.2391 -0.947865 0.0916087 0
M  V30 34 H -3.29647 -2.7686 0.777022 0
M  V30 35 H -4.62067 -2.25549 1.84843 0
M  V30 END ATOM
M  V30 BEGIN BOND
M  V30 1 1 1 2
M  V30 2 2 2 3
M  V30 3 1 3 4
M  V30 4 2 4 5
M  V30 5 1 5 6
M  V30 6 2 6 7
M  V30 7 1 5 8
M  V30 8 1 8 9
M  V30 9 1 9 10
M  V30 10 1 10 11
M  V30 11 1 11 12
M  V30 12 1 12 13
M  V30 13 2 13 14
M  V30 14 1 14 15
M  V30 15 1 15 16
M  V30 16 2 15 17
M  V30 17 1 17 18
M  V30 18 2 18 19
M  V30 19 1 18 20
M  V30 20 1 7 2
M  V30 21 1 19 13
M  V30 22 1 3 21
M  V30 23 1 4 22
M  V30 24 1 6 23
M  V30 25 1 7 24
M  V30 26 1 9 25
M  V30 27 1 9 26
M  V30 28 1 10 27
M  V30 29 1 10 28
M  V30 30 1 11 29
M  V30 31 1 11 30
M  V30 32 1 16 31
M  V30 33 1 16 32
M  V30 34 1 17 33
M  V30 35 1 20 34
M  V30 36 1 20 35
M  V30 END BOND
M  V30 END CTAB
M  END
