
     RDKit          3D

  0  0  0  0  0  0  0  0  0  0999 V3000
M  V30 BEGIN CTAB
M  V30 COUNTS 28 28 0 0 0
M  V30 BEGIN ATOM
M  V30 1 N -2.73448 1.59335 -0.761525 0
M  V30 2 C -2.42219 1.35391 0.619671 0
M  V30 3 C -1.25429 0.326808 0.704752 0
M  V30 4 C -1.77581 -0.888985 0.0325556 0
M  V30 5 N -0.928238 -2.02165 -0.0260994 0
M  V30 6 C -0.129763 1.03322 0.000723839 0
M  V30 7 C 1.14217 0.317587 -0.0878231 0
M  V30 8 C 1.52494 -0.453619 -1.16376 0
M  V30 9 C 2.73671 -1.1088 -1.19689 0
M  V30 10 C 3.6317 -1.02684 -0.152879 0
M  V30 11 C 3.27939 -0.266724 0.932338 0
M  V30 12 C 2.06825 0.385687 0.96089 0
M  V30 13 H -3.73964 1.48412 -0.988362 0
M  V30 14 H -2.31216 2.471 -1.12072 0
M  V30 15 H -2.13161 2.23958 1.18581 0
M  V30 16 H -3.32074 0.905681 1.09934 0
M  V30 17 H -1.00549 0.175705 1.76755 0
M  V30 18 H -1.99726 -0.589971 -1.0323 0
M  V30 19 H -2.77374 -1.20817 0.433775 0
M  V30 20 H -1.36425 -2.89203 -0.340885 0
M  V30 21 H -0.284861 -2.13307 0.786723 0
M  V30 22 H -0.479684 1.31681 -1.03881 0
M  V30 23 H 0.0131501 2.02791 0.501384 0
M  V30 24 H 0.846665 -0.549861 -2.02012 0
M  V30 25 H 3.04526 -1.72031 -2.045 0
M  V30 26 H 4.5806 -1.5447 -0.187931 0
M  V30 27 H 3.99567 -0.213859 1.74383 0
M  V30 28 H 1.78971 0.987201 1.81992 0
M  V30 END ATOM
M  V30 BEGIN BOND
M  V30 1 1 1 2
M  V30 2 1 2 3
M  V30 3 1 3 4
M  V30 4 1 4 5
M  V30 5 1 3 6
M  V30 6 1 6 7
M  V30 7 2 7 8
M  V30 8 1 8 9
M  V30 9 2 9 10
M  V30 10 1 10 11
M  V30 11 2 11 12
M  V30 12 1 12 7
M  V30 13 1 1 13
M  V30 14 1 1 14
M  V30 15 1 2 15
M  V30 16 1 2 16
M  V30 17 1 3 17
M  V30 18 1 4 18
M  V30 19 1 4 19
M  V30 20 1 5 20
M  V30 21 1 5 21
M  V30 22 1 6 22
M  V30 23 1 6 23
M  V30 24 1 8 24
M  V30 25 1 9 25
M  V30 26 1 10 26
M  V30 27 1 11 27
M  V30 28 1 12 28
M  V30 END BOND
M  V30 END CTAB
M  END
