
     RDKit          3D

  0  0  0  0  0  0  0  0  0  0999 V3000
M  V30 BEGIN CTAB
M  V30 COUNTS 43 45 0 0 0
M  V30 BEGIN ATOM
M  V30 1 O 0.980879 -0.0276904 2.18408 0
M  V30 2 C 1.23912 -0.131246 0.951718 0
M  V30 3 C 2.67784 -0.0310342 0.611924 0
M  V30 4 C 3.28028 -1.22935 -0.00870068 0
M  V30 5 C 4.73985 -1.2676 0.491974 0
M  V30 6 C 5.17738 0.128651 0.0136088 0
M  V30 7 C 4.20988 0.572071 -1.0225 0
M  V30 8 C 2.96884 1.14547 -0.336148 0
M  V30 9 N 3.24163 2.35349 0.373738 0
M  V30 10 C 3.59866 -0.780273 -1.43238 0
M  V30 11 N 0.259929 -0.325817 -0.0301945 0
M  V30 12 C -1.12502 -0.442833 0.112433 0
M  V30 13 C -1.868 -0.635792 -1.06713 0
M  V30 14 C -3.24717 -0.76111 -1.01 0
M  V30 15 C -3.92765 -0.702538 0.17988 0
M  V30 16 C -3.18617 -0.514652 1.31188 0
M  V30 17 C -1.8005 -0.385937 1.28153 0
M  V30 18 C -5.39263 -0.837752 0.220834 0
M  V30 19 S -6.21569 0.727614 0.0704926 0
M  V30 20 O -7.69693 0.488918 0.102367 0
M  V30 21 O -5.89102 1.34993 -1.27573 0
M  V30 22 N -5.79561 1.80933 1.32173 0
M  V30 23 H 3.22955 0.24051 1.54064 0
M  V30 24 H 2.77448 -2.16308 0.0684943 0
M  V30 25 H 4.79592 -1.36848 1.57323 0
M  V30 26 H 5.2792 -2.01196 -0.095051 0
M  V30 27 H 5.08204 0.782522 0.903304 0
M  V30 28 H 6.22985 0.0962271 -0.327205 0
M  V30 29 H 4.57441 1.14927 -1.84318 0
M  V30 30 H 2.19208 1.22872 -1.11215 0
M  V30 31 H 3.05873 2.24915 1.40332 0
M  V30 32 H 2.51632 3.06573 0.0565003 0
M  V30 33 H 2.74927 -0.691924 -2.08974 0
M  V30 34 H 4.43261 -1.39805 -1.84699 0
M  V30 35 H 0.668604 -0.388465 -1.03085 0
M  V30 36 H -1.40597 -0.692575 -2.0393 0
M  V30 37 H -3.80814 -0.910862 -1.93985 0
M  V30 38 H -3.65759 -0.459827 2.27359 0
M  V30 39 H -1.29565 -0.242062 2.20615 0
M  V30 40 H -5.7418 -1.30936 1.16524 0
M  V30 41 H -5.78447 -1.48175 -0.600113 0
M  V30 42 H -6.59938 2.44501 1.54776 0
M  V30 43 H -5.51794 1.35942 2.20718 0
M  V30 END ATOM
M  V30 BEGIN BOND
M  V30 1 2 1 2
M  V30 2 1 2 3
M  V30 3 1 3 4
M  V30 4 1 4 5
M  V30 5 1 5 6
M  V30 6 1 6 7
M  V30 7 1 7 8
M  V30 8 1 8 9
M  V30 9 1 7 10
M  V30 10 1 2 11
M  V30 11 1 11 12
M  V30 12 2 12 13
M  V30 13 1 13 14
M  V30 14 2 14 15
M  V30 15 1 15 16
M  V30 16 2 16 17
M  V30 17 1 15 18
M  V30 18 1 18 19
M  V30 19 2 19 20
M  V30 20 2 19 21
M  V30 21 1 19 22
M  V30 22 1 8 3
M  V30 23 1 17 12
M  V30 24 1 10 4
M  V30 25 1 3 23
M  V30 26 1 4 24
M  V30 27 1 5 25
M  V30 28 1 5 26
M  V30 29 1 6 27
M  V30 30 1 6 28
M  V30 31 1 7 29
M  V30 32 1 8 30
M  V30 33 1 9 31
M  V30 34 1 9 32
M  V30 35 1 10 33
M  V30 36 1 10 34
M  V30 37 1 11 35
M  V30 38 1 13 36
M  V30 39 1 14 37
M  V30 40 1 16 38
M  V30 41 1 17 39
M  V30 42 1 18 40
M  V30 43 1 18 41
M  V30 44 1 22 42
M  V30 45 1 22 43
M  V30 END BOND
M  V30 END CTAB
M  END
