
     RDKit          3D

  0  0  0  0  0  0  0  0  0  0999 V3000
M  V30 BEGIN CTAB
M  V30 COUNTS 33 35 0 0 0
M  V30 BEGIN ATOM
M  V30 1 N -2.81369 -4.46065 -0.650987 0
M  V30 2 N -2.7491 -3.07261 -0.730051 0
M  V30 3 C -1.6594 -2.30562 -0.172982 0
M  V30 4 O -0.774591 -2.97564 0.387747 0
M  V30 5 C -1.70435 -0.86361 -0.320804 0
M  V30 6 N -2.89211 -0.205833 -0.581055 0
M  V30 7 N -2.69893 1.08019 -0.622589 0
M  V30 8 N -1.3923 1.29785 -0.3956 0
M  V30 9 C -0.767834 0.115061 -0.210781 0
M  V30 10 C 0.672411 -0.0408531 -0.111438 0
M  V30 11 C 1.29396 -1.097 -0.716815 0
M  V30 12 C 2.64874 -1.37874 -0.592114 0
M  V30 13 C 3.39682 -0.522228 0.197155 0
M  V30 14 C 2.79308 0.547311 0.814289 0
M  V30 15 C 1.44607 0.807094 0.677964 0
M  V30 16 N 4.77794 -0.736958 0.375092 0 CHG=1
M  V30 17 O 5.43691 0.0341908 1.08224 0
M  V30 18 O 5.38998 -1.79649 -0.232947 0 CHG=-1
M  V30 19 C -0.847611 2.60427 -0.405347 0
M  V30 20 N 0.0990523 3.10521 -1.24625 0
M  V30 21 O 0.31266 4.35016 -0.941434 0
M  V30 22 N -0.448259 4.68662 0.0574134 0
M  V30 23 C -1.19771 3.66181 0.448647 0
M  V30 24 N -2.16625 3.54767 1.483 0
M  V30 25 H -2.04439 -4.84218 -0.0354979 0
M  V30 26 H -3.70709 -4.79223 -0.224105 0
M  V30 27 H -3.52541 -2.59454 -1.21243 0
M  V30 28 H 0.744996 -1.75847 -1.38738 0
M  V30 29 H 3.06204 -2.2202 -1.09175 0
M  V30 30 H 3.40857 1.20527 1.42926 0
M  V30 31 H 0.9849 1.61629 1.17513 0
M  V30 32 H -3.09255 3.1078 1.28926 0
M  V30 33 H -1.98655 3.89707 2.46516 0
M  V30 END ATOM
M  V30 BEGIN BOND
M  V30 1 1 1 2
M  V30 2 1 2 3
M  V30 3 2 3 4
M  V30 4 1 3 5
M  V30 5 1 5 6
M  V30 6 2 6 7
M  V30 7 1 7 8
M  V30 8 1 8 9
M  V30 9 1 9 10
M  V30 10 2 10 11
M  V30 11 1 11 12
M  V30 12 2 12 13
M  V30 13 1 13 14
M  V30 14 2 14 15
M  V30 15 1 13 16
M  V30 16 2 16 17
M  V30 17 1 16 18
M  V30 18 1 8 19
M  V30 19 2 19 20
M  V30 20 1 20 21
M  V30 21 1 21 22
M  V30 22 2 22 23
M  V30 23 1 23 24
M  V30 24 2 9 5
M  V30 25 1 15 10
M  V30 26 1 23 19
M  V30 27 1 1 25
M  V30 28 1 1 26
M  V30 29 1 2 27
M  V30 30 1 11 28
M  V30 31 1 12 29
M  V30 32 1 14 30
M  V30 33 1 15 31
M  V30 34 1 24 32
M  V30 35 1 24 33
M  V30 END BOND
M  V30 END CTAB
M  END
