
     RDKit          3D

  0  0  0  0  0  0  0  0  0  0999 V3000
M  V30 BEGIN CTAB
M  V30 COUNTS 48 49 0 0 0
M  V30 BEGIN ATOM
M  V30 1 C -6.08195 2.09472 0.857347 0
M  V30 2 C -6.33439 0.692499 1.3466 0 CFG=1
M  V30 3 N -7.7108 0.56611 1.70855 0
M  V30 4 C -5.84197 -0.346996 0.366181 0 CFG=2
M  V30 5 N -4.38999 -0.113763 0.230985 0
M  V30 6 C -3.46216 -1.11608 0.595719 0
M  V30 7 O -3.86689 -2.24735 1.05141 0
M  V30 8 C -2.02295 -0.979305 0.498202 0
M  V30 9 C -1.47615 0.192517 0.0436402 0
M  V30 10 C -0.0975225 0.370728 -0.0689922 0
M  V30 11 C 0.76403 -0.637519 0.277362 0
M  V30 12 C 0.229204 -1.82205 0.736274 0
M  V30 13 C -1.14065 -1.9802 0.841165 0
M  V30 14 C 2.20823 -0.468213 0.164641 0
M  V30 15 C 3.40106 -0.330984 0.049951 0
M  V30 16 C 4.801 -0.175583 -0.109601 0
M  V30 17 C 5.99327 -0.0491146 -0.266601 0
M  V30 18 C 7.40501 0.0882881 -0.47519 0
M  V30 19 C 8.18984 -0.982201 -0.849539 0
M  V30 20 C 9.54127 -0.871549 -1.05465 0
M  V30 21 C 10.1771 0.332988 -0.891865 0
M  V30 22 N 11.5937 0.473882 -1.10192 0
M  V30 23 C 9.41811 1.42351 -0.517396 0
M  V30 24 C 8.05928 1.29864 -0.314297 0
M  V30 25 C -6.491 -0.277309 -0.953602 0
M  V30 26 O -5.80218 0.00982899 -1.99264 0
M  V30 27 N -7.86929 -0.516297 -1.15355 0
M  V30 28 O -8.42493 -0.437745 -2.398 0
M  V30 29 H -6.14743 2.12746 -0.250422 0
M  V30 30 H -6.82557 2.75693 1.34825 0
M  V30 31 H -5.08674 2.47828 1.12306 0
M  V30 32 H -5.7263 0.501583 2.28469 0
M  V30 33 H -8.00885 -0.36441 2.01962 0
M  V30 34 H -7.937 1.34125 2.36146 0
M  V30 35 H -5.95252 -1.36284 0.779619 0
M  V30 36 H -4.09057 0.800109 -0.136199 0
M  V30 37 H -2.10354 1.01601 -0.241693 0
M  V30 38 H 0.329407 1.30937 -0.432675 0
M  V30 39 H 0.913948 -2.62839 1.01324 0
M  V30 40 H -1.5586 -2.91171 1.20169 0
M  V30 41 H 7.68272 -1.94526 -0.979731 0
M  V30 42 H 10.0991 -1.73996 -1.34509 0
M  V30 43 H 12.0166 0.579717 -2.04484 0
M  V30 44 H 12.1895 0.464929 -0.250775 0
M  V30 45 H 9.86223 2.41168 -0.370683 0
M  V30 46 H 7.42924 2.15063 -0.0155161 0
M  V30 47 H -8.45096 -0.760992 -0.322671 0
M  V30 48 H -9.403 -0.56937 -2.36152 0
M  V30 END ATOM
M  V30 BEGIN BOND
M  V30 1 1 1 2
M  V30 2 1 2 3
M  V30 3 1 2 4
M  V30 4 1 4 5
M  V30 5 1 5 6
M  V30 6 2 6 7
M  V30 7 1 6 8
M  V30 8 2 8 9
M  V30 9 1 9 10
M  V30 10 2 10 11
M  V30 11 1 11 12
M  V30 12 2 12 13
M  V30 13 1 11 14
M  V30 14 3 14 15
M  V30 15 1 15 16
M  V30 16 3 16 17
M  V30 17 1 17 18
M  V30 18 2 18 19
M  V30 19 1 19 20
M  V30 20 2 20 21
M  V30 21 1 21 22
M  V30 22 1 21 23
M  V30 23 2 23 24
M  V30 24 1 4 25
M  V30 25 2 25 26
M  V30 26 1 25 27
M  V30 27 1 27 28
M  V30 28 1 13 8
M  V30 29 1 24 18
M  V30 30 1 1 29
M  V30 31 1 1 30
M  V30 32 1 1 31
M  V30 33 1 2 32 CFG=1
M  V30 34 1 3 33
M  V30 35 1 3 34
M  V30 36 1 4 35 CFG=1
M  V30 37 1 5 36
M  V30 38 1 9 37
M  V30 39 1 10 38
M  V30 40 1 12 39
M  V30 41 1 13 40
M  V30 42 1 19 41
M  V30 43 1 20 42
M  V30 44 1 22 43
M  V30 45 1 22 44
M  V30 46 1 23 45
M  V30 47 1 24 46
M  V30 48 1 27 47
M  V30 49 1 28 48
M  V30 END BOND
M  V30 END CTAB
M  END
