
     RDKit          3D

  0  0  0  0  0  0  0  0  0  0999 V3000
M  V30 BEGIN CTAB
M  V30 COUNTS 37 40 0 0 0
M  V30 BEGIN ATOM
M  V30 1 N 4.79063 -1.61638 2.81731 0
M  V30 2 C 4.44543 -0.817648 1.68605 0
M  V30 3 N 3.18556 -0.750816 1.23641 0
M  V30 4 C 2.86619 0.0128996 0.157028 0
M  V30 5 C 3.87514 0.70116 -0.441837 0
M  V30 6 N 3.6353 1.52485 -1.5757 0
M  V30 7 C 2.30397 1.59402 -2.05031 0
M  V30 8 O 2.0576 2.31482 -3.05316 0
M  V30 9 C 1.20452 0.85651 -1.41515 0
M  V30 10 N 1.49365 0.0513666 -0.28863 0
M  V30 11 C -0.0380231 0.959953 -1.83616 0
M  V30 12 C -1.17593 0.262044 -1.27209 0
M  V30 13 N -2.1759 0.985828 -0.751052 0
M  V30 14 C -3.29585 0.430704 -0.248252 0
M  V30 15 C -3.42364 -0.933789 -0.267655 0
M  V30 16 N -2.4373 -1.68437 -0.784426 0
M  V30 17 C -1.30812 -1.10614 -1.29118 0
M  V30 18 O -0.45935 -1.90147 -1.75094 0
M  V30 19 C -4.5818 -1.4827 0.253363 0
M  V30 20 O -4.72621 -2.73666 0.248387 0
M  V30 21 N -5.53429 -0.683612 0.755584 0
M  V30 22 C -5.42078 0.66944 0.781134 0
M  V30 23 N -6.44781 1.48131 1.31978 0
M  V30 24 N -4.27973 1.19194 0.266842 0
M  V30 25 C 5.16484 0.620444 0.0343275 0
M  V30 26 O 6.11445 1.26351 -0.522957 0
M  V30 27 N 5.46341 -0.141825 1.10582 0
M  V30 28 H 5.49198 -1.24266 3.49273 0
M  V30 29 H 4.36476 -2.54047 2.97385 0
M  V30 30 H 4.41835 2.04588 -2.02268 0
M  V30 31 H 0.772397 -0.48687 0.239142 0
M  V30 32 H -0.16215 1.65151 -2.69452 0
M  V30 33 H -2.55589 -2.72268 -0.788814 0
M  V30 34 H -6.41183 -1.10523 1.15005 0
M  V30 35 H -6.90277 2.21157 0.752382 0
M  V30 36 H -6.74945 1.34137 2.30043 0
M  V30 37 H 6.43863 -0.217814 1.4849 0
M  V30 END ATOM
M  V30 BEGIN BOND
M  V30 1 1 1 2
M  V30 2 2 2 3
M  V30 3 1 3 4
M  V30 4 2 4 5
M  V30 5 1 5 6
M  V30 6 1 6 7
M  V30 7 2 7 8
M  V30 8 1 7 9
M  V30 9 1 9 10
M  V30 10 2 9 11
M  V30 11 1 11 12
M  V30 12 2 12 13
M  V30 13 1 13 14
M  V30 14 2 14 15
M  V30 15 1 15 16
M  V30 16 1 16 17
M  V30 17 2 17 18
M  V30 18 1 15 19
M  V30 19 2 19 20
M  V30 20 1 19 21
M  V30 21 1 21 22
M  V30 22 1 22 23
M  V30 23 2 22 24
M  V30 24 1 5 25
M  V30 25 2 25 26
M  V30 26 1 25 27
M  V30 27 1 27 2
M  V30 28 1 10 4
M  V30 29 1 17 12
M  V30 30 1 24 14
M  V30 31 1 1 28
M  V30 32 1 1 29
M  V30 33 1 6 30
M  V30 34 1 10 31
M  V30 35 1 11 32
M  V30 36 1 16 33
M  V30 37 1 21 34
M  V30 38 1 23 35
M  V30 39 1 23 36
M  V30 40 1 27 37
M  V30 END BOND
M  V30 END CTAB
M  END
