
     RDKit          3D

  0  0  0  0  0  0  0  0  0  0999 V3000
M  V30 BEGIN CTAB
M  V30 COUNTS 33 33 0 0 0
M  V30 BEGIN ATOM
M  V30 1 N -2.54153 1.09263 -0.975288 0
M  V30 2 C -1.12031 1.18643 -0.658004 0
M  V30 3 C -0.64339 -0.105474 -0.0293422 0
M  V30 4 C -0.864105 -1.22173 -0.988289 0
M  V30 5 O -2.1993 -1.59357 -0.761806 0
M  V30 6 C -2.40419 -1.5378 0.590756 0
M  V30 7 C -1.49936 -0.494994 1.15755 0
M  V30 8 C 0.750406 0.0935489 0.444891 0
M  V30 9 C 1.75173 0.46568 -0.622809 0
M  V30 10 N 2.98304 0.805052 0.125354 0
M  V30 11 C 2.14801 -0.711191 -1.48707 0
M  V30 12 O 1.28055 -1.00698 1.12081 0
M  V30 13 C 0.695757 1.21849 1.49505 0
M  V30 14 H -3.03621 1.2485 -0.0495465 0
M  V30 15 H -2.75384 1.97167 -1.53571 0
M  V30 16 H -0.972943 2.0673 -0.0352509 0
M  V30 17 H -0.576068 1.32072 -1.60239 0
M  V30 18 H -0.776514 -0.869166 -2.03855 0
M  V30 19 H -0.225468 -2.06515 -0.730503 0
M  V30 20 H -2.192 -2.56467 1.00913 0
M  V30 21 H -3.45822 -1.33144 0.864522 0
M  V30 22 H -2.05271 0.370276 1.58861 0
M  V30 23 H -0.829743 -0.992674 1.88701 0
M  V30 24 H 1.42474 1.30369 -1.23557 0
M  V30 25 H 3.12556 -0.0333645 0.759062 0
M  V30 26 H 3.79052 0.881278 -0.534424 0
M  V30 27 H 1.55386 -0.786862 -2.42068 0
M  V30 28 H 3.2251 -0.558026 -1.75824 0
M  V30 29 H 2.11881 -1.61857 -0.864132 0
M  V30 30 H 1.19724 -0.921497 2.09265 0
M  V30 31 H 0.802811 2.17801 0.941679 0
M  V30 32 H 1.53676 1.06427 2.19178 0
M  V30 33 H -0.238985 1.14558 2.05875 0
M  V30 END ATOM
M  V30 BEGIN BOND
M  V30 1 1 1 2
M  V30 2 1 2 3
M  V30 3 1 3 4
M  V30 4 1 4 5
M  V30 5 1 5 6
M  V30 6 1 6 7
M  V30 7 1 3 8
M  V30 8 1 8 9
M  V30 9 1 9 10
M  V30 10 1 9 11
M  V30 11 1 8 12
M  V30 12 1 8 13
M  V30 13 1 7 3
M  V30 14 1 1 14
M  V30 15 1 1 15
M  V30 16 1 2 16
M  V30 17 1 2 17
M  V30 18 1 4 18
M  V30 19 1 4 19
M  V30 20 1 6 20
M  V30 21 1 6 21
M  V30 22 1 7 22
M  V30 23 1 7 23
M  V30 24 1 9 24
M  V30 25 1 10 25
M  V30 26 1 10 26
M  V30 27 1 11 27
M  V30 28 1 11 28
M  V30 29 1 11 29
M  V30 30 1 12 30
M  V30 31 1 13 31
M  V30 32 1 13 32
M  V30 33 1 13 33
M  V30 END BOND
M  V30 END CTAB
M  END
