
     RDKit          3D

  0  0  0  0  0  0  0  0  0  0999 V3000
M  V30 BEGIN CTAB
M  V30 COUNTS 19 19 0 0 0
M  V30 BEGIN ATOM
M  V30 1 N 2.62782 -1.40221 0.362725 0
M  V30 2 C 1.69768 -0.354503 0.126659 0
M  V30 3 C 2.06423 0.974991 0.124156 0
M  V30 4 C 1.11459 1.94494 -0.111357 0
M  V30 5 C -0.211805 1.64936 -0.349834 0
M  V30 6 C -0.574395 0.319104 -0.34653 0
M  V30 7 C 0.363563 -0.663479 -0.11257 0
M  V30 8 Br -0.138315 -2.51303 -0.10757 0
M  V30 9 S -2.2307 -0.174862 -0.637449 0
M  V30 10 O -2.30811 -1.14566 -1.78154 0
M  V30 11 O -3.1066 1.00928 -0.930321 0
M  V30 12 N -2.80962 -1.04639 0.75639 0
M  V30 13 H 3.62947 -1.2724 0.106085 0
M  V30 14 H 2.35418 -2.31336 0.788437 0
M  V30 15 H 3.10776 1.20353 0.311991 0
M  V30 16 H 1.4573 2.97393 -0.101966 0
M  V30 17 H -0.952752 2.44288 -0.535595 0
M  V30 18 H -3.82536 -0.855708 0.844147 0
M  V30 19 H -2.25893 -0.776392 1.59414 0
M  V30 END ATOM
M  V30 BEGIN BOND
M  V30 1 1 1 2
M  V30 2 2 2 3
M  V30 3 1 3 4
M  V30 4 2 4 5
M  V30 5 1 5 6
M  V30 6 2 6 7
M  V30 7 1 7 8
M  V30 8 1 6 9
M  V30 9 2 9 10
M  V30 10 2 9 11
M  V30 11 1 9 12
M  V30 12 1 7 2
M  V30 13 1 1 13
M  V30 14 1 1 14
M  V30 15 1 3 15
M  V30 16 1 4 16
M  V30 17 1 5 17
M  V30 18 1 12 18
M  V30 19 1 12 19
M  V30 END BOND
M  V30 END CTAB
M  END
