
     RDKit          3D

  0  0  0  0  0  0  0  0  0  0999 V3000
M  V30 BEGIN CTAB
M  V30 COUNTS 53 55 0 0 0
M  V30 BEGIN ATOM
M  V30 1 C -2.24832 -2.81063 0.658014 0 CFG=1
M  V30 2 S -0.466308 -3.13562 0.580033 0
M  V30 3 C 0.114971 -2.15517 -0.828593 0
M  V30 4 C -0.340401 -0.727982 -0.570916 0
M  V30 5 C 0.648966 0.318432 -0.798288 0
M  V30 6 S 1.99772 0.433126 0.355347 0
M  V30 7 C 3.14135 -0.906927 0.390709 0
M  V30 8 N 3.14924 -2.0132 1.15062 0
M  V30 9 N 4.19761 -2.72842 0.83067 0
M  V30 10 N 4.86481 -2.11134 -0.115978 0
M  V30 11 N 4.25239 -0.990084 -0.416213 0
M  V30 12 C 4.59191 -0.00877347 -1.41565 0
M  V30 13 C 5.38534 1.12351 -0.872056 0
M  V30 14 S 6.9233 0.641802 -0.182487 0
M  V30 15 N 7.77427 2.08449 0.366668 0
M  V30 16 O 7.81324 -0.0469487 -1.15475 0
M  V30 17 O 6.75321 -0.26956 1.02574 0
M  V30 18 C -1.60123 -0.513749 -0.242057 0
M  V30 19 N -2.52889 -1.59683 -0.128342 0
M  V30 20 C -3.77673 -2.17739 -0.44284 0
M  V30 21 O -4.90861 -1.7102 -0.694208 0
M  V30 22 C -3.10299 -3.51386 -0.329811 0
M  V30 23 N -3.96506 -4.53646 0.236073 0
M  V30 24 C -2.10195 0.821168 0.0479703 0
M  V30 25 O -1.45455 1.88621 0.0587582 0
M  V30 26 O -3.46624 1.0469 0.363354 0
M  V30 27 C -3.99767 2.2997 0.6453 0
M  V30 28 C -3.36693 2.97443 1.8342 0
M  V30 29 C -3.97546 3.18476 -0.586901 0
M  V30 30 C -5.45898 2.07142 0.991494 0
M  V30 31 H -2.69251 -2.70705 1.64972 0
M  V30 32 H 1.17055 -2.21771 -0.993648 0
M  V30 33 H -0.496107 -2.51941 -1.70516 0
M  V30 34 H 0.287459 1.30282 -1.04509 0
M  V30 35 H 1.13221 0.00156259 -1.8343 0
M  V30 36 H 5.23976 -0.537052 -2.16813 0
M  V30 37 H 3.64401 0.323446 -1.90604 0
M  V30 38 H 5.52849 1.94026 -1.62693 0
M  V30 39 H 4.74149 1.59073 -0.0609449 0
M  V30 40 H 7.47074 2.24648 1.35262 0
M  V30 41 H 8.78718 1.90826 0.277358 0
M  V30 42 H -2.58366 -3.78059 -1.25383 0
M  V30 43 H -4.57925 -4.88049 -0.508801 0
M  V30 44 H -3.38512 -5.26517 0.669172 0
M  V30 45 H -2.50908 3.61206 1.5867 0
M  V30 46 H -4.14671 3.64695 2.27211 0
M  V30 47 H -3.15037 2.20274 2.59742 0
M  V30 48 H -3.72677 4.20359 -0.259752 0
M  V30 49 H -4.98028 3.22431 -1.08277 0
M  V30 50 H -3.23681 2.85854 -1.33693 0
M  V30 51 H -5.83314 1.2819 0.297092 0
M  V30 52 H -5.47682 1.63238 2.01511 0
M  V30 53 H -6.05328 2.99864 0.914522 0
M  V30 END ATOM
M  V30 BEGIN BOND
M  V30 1 1 1 2
M  V30 2 1 2 3
M  V30 3 1 3 4
M  V30 4 1 4 5
M  V30 5 1 5 6
M  V30 6 1 6 7
M  V30 7 2 7 8
M  V30 8 1 8 9
M  V30 9 2 9 10
M  V30 10 1 10 11
M  V30 11 1 11 12
M  V30 12 1 12 13
M  V30 13 1 13 14
M  V30 14 1 14 15
M  V30 15 2 14 16
M  V30 16 2 14 17
M  V30 17 2 4 18
M  V30 18 1 18 19
M  V30 19 1 19 20
M  V30 20 2 20 21
M  V30 21 1 20 22
M  V30 22 1 22 23
M  V30 23 1 18 24
M  V30 24 2 24 25
M  V30 25 1 24 26
M  V30 26 1 26 27
M  V30 27 1 27 28
M  V30 28 1 27 29
M  V30 29 1 27 30
M  V30 30 1 19 1
M  V30 31 1 22 1
M  V30 32 1 11 7
M  V30 33 1 1 31 CFG=1
M  V30 34 1 3 32
M  V30 35 1 3 33
M  V30 36 1 5 34
M  V30 37 1 5 35
M  V30 38 1 12 36
M  V30 39 1 12 37
M  V30 40 1 13 38
M  V30 41 1 13 39
M  V30 42 1 15 40
M  V30 43 1 15 41
M  V30 44 1 22 42
M  V30 45 1 23 43
M  V30 46 1 23 44
M  V30 47 1 28 45
M  V30 48 1 28 46
M  V30 49 1 28 47
M  V30 50 1 29 48
M  V30 51 1 29 49
M  V30 52 1 29 50
M  V30 53 1 30 51
M  V30 54 1 30 52
M  V30 55 1 30 53
M  V30 END BOND
M  V30 END CTAB
M  END
