
     RDKit          3D

  0  0  0  0  0  0  0  0  0  0999 V3000
M  V30 BEGIN CTAB
M  V30 COUNTS 42 43 0 0 0
M  V30 BEGIN ATOM
M  V30 1 N 1.57778 -4.28405 1.42729 0
M  V30 2 C 0.915179 -3.42791 0.968547 0
M  V30 3 C 0.0959468 -2.31388 0.387432 0
M  V30 4 C -1.09239 -2.54931 0.0118823 0
M  V30 5 N -2.0625 -1.76806 -0.519048 0
M  V30 6 C -2.41877 -0.415005 -0.571176 0
M  V30 7 C -2.6571 0.275188 -1.74744 0
M  V30 8 C -3.07746 1.56535 -1.69293 0
M  V30 9 C -3.29426 2.26958 -0.522657 0
M  V30 10 C -3.05753 1.58326 0.657321 0
M  V30 11 C -2.63348 0.282481 0.620137 0
M  V30 12 N -3.73383 3.61742 -0.497445 0
M  V30 13 C -3.16137 -2.58291 -1.10984 0
M  V30 14 O -4.14961 -1.99741 -1.5223 0
M  V30 15 C -3.05471 -4.0502 -1.19353 0
M  V30 16 C 0.81288 -1.10864 0.113036 0
M  V30 17 O 0.439098 -0.172061 -0.574535 0
M  V30 18 N 2.11385 -1.02257 0.736927 0
M  V30 19 C 2.95653 0.0814416 0.577325 0
M  V30 20 C 3.00462 0.85133 -0.548739 0
M  V30 21 C 3.87166 1.95536 -0.545822 0
M  V30 22 C 4.65804 2.2755 0.537209 0
M  V30 23 C 4.59878 1.48236 1.67583 0
M  V30 24 C 3.76301 0.405337 1.6939 0
M  V30 25 Cl 5.61773 1.91529 3.04556 0
M  V30 26 N 5.53045 3.3946 0.529463 0
M  V30 27 H -1.37445 -3.66244 0.182496 0
M  V30 28 H -2.49966 -0.241724 -2.71177 0
M  V30 29 H -3.25351 2.07106 -2.65083 0
M  V30 30 H -3.22759 2.13638 1.56836 0
M  V30 31 H -2.46262 -0.2118 1.58691 0
M  V30 32 H -4.21871 3.95048 0.374916 0
M  V30 33 H -3.58402 4.24197 -1.29974 0
M  V30 34 H -2.059 -4.32321 -1.60854 0
M  V30 35 H -3.28856 -4.56807 -0.248338 0
M  V30 36 H -3.78861 -4.38665 -1.97766 0
M  V30 37 H 2.40665 -1.83017 1.32116 0
M  V30 38 H 2.42389 0.619124 -1.40678 0
M  V30 39 H 3.90962 2.56125 -1.43177 0
M  V30 40 H 3.71812 -0.221933 2.59483 0
M  V30 41 H 5.35943 4.22859 -0.0476912 0
M  V30 42 H 6.37648 3.37466 1.12806 0
M  V30 END ATOM
M  V30 BEGIN BOND
M  V30 1 3 1 2
M  V30 2 1 2 3
M  V30 3 2 3 4
M  V30 4 1 4 5
M  V30 5 1 5 6
M  V30 6 2 6 7
M  V30 7 1 7 8
M  V30 8 2 8 9
M  V30 9 1 9 10
M  V30 10 2 10 11
M  V30 11 1 9 12
M  V30 12 1 5 13
M  V30 13 2 13 14
M  V30 14 1 13 15
M  V30 15 1 3 16
M  V30 16 2 16 17
M  V30 17 1 16 18
M  V30 18 1 18 19
M  V30 19 2 19 20
M  V30 20 1 20 21
M  V30 21 2 21 22
M  V30 22 1 22 23
M  V30 23 2 23 24
M  V30 24 1 23 25
M  V30 25 1 22 26
M  V30 26 1 11 6
M  V30 27 1 24 19
M  V30 28 1 4 27
M  V30 29 1 7 28
M  V30 30 1 8 29
M  V30 31 1 10 30
M  V30 32 1 11 31
M  V30 33 1 12 32
M  V30 34 1 12 33
M  V30 35 1 15 34
M  V30 36 1 15 35
M  V30 37 1 15 36
M  V30 38 1 18 37
M  V30 39 1 20 38
M  V30 40 1 21 39
M  V30 41 1 24 40
M  V30 42 1 26 41
M  V30 43 1 26 42
M  V30 END BOND
M  V30 END CTAB
M  END
