
     RDKit          3D

  0  0  0  0  0  0  0  0  0  0999 V3000
M  V30 BEGIN CTAB
M  V30 COUNTS 29 29 0 0 0
M  V30 BEGIN ATOM
M  V30 1 C 4.41076 0.156572 0.491679 0
M  V30 2 C 3.12121 0.521551 1.1623 0
M  V30 3 O 2.05812 0.22814 0.307812 0
M  V30 4 C 0.712896 0.471295 0.681579 0
M  V30 5 O 0.589079 0.953413 1.80468 0
M  V30 6 C -0.29851 0.128857 -0.28124 0
M  V30 7 C 0.0680588 -0.407796 -1.52449 0
M  V30 8 N 1.46028 -0.619755 -1.76387 0
M  V30 9 C -0.852759 -0.727719 -2.49433 0
M  V30 10 C -2.1753 -0.510094 -2.22634 0
M  V30 11 C -2.58916 0.011711 -1.02723 0
M  V30 12 C -1.62832 0.32569 -0.0603703 0
M  V30 13 O -2.09878 0.840392 1.12928 0
M  V30 14 C -2.4788 -0.043309 2.16845 0
M  V30 15 F -3.89906 -0.146385 2.19157 0
M  V30 16 F -2.1736 0.439187 3.41819 0
M  V30 17 N -3.94892 0.249182 -0.75085 0
M  V30 18 H 4.28052 0.146554 -0.616151 0
M  V30 19 H 5.17722 0.916333 0.793984 0
M  V30 20 H 4.71814 -0.836337 0.872967 0
M  V30 21 H 2.9788 0.0113573 2.14042 0
M  V30 22 H 3.09802 1.62558 1.36791 0
M  V30 23 H 1.85753 -1.53032 -1.4495 0
M  V30 24 H 2.06883 0.0779557 -2.22429 0
M  V30 25 H -0.467967 -1.13677 -3.42039 0
M  V30 26 H -2.89788 -0.767382 -3.00464 0
M  V30 27 H -2.12607 -1.08523 1.99948 0
M  V30 28 H -4.26803 1.17931 -0.395159 0
M  V30 29 H -4.69632 -0.471981 -0.882201 0
M  V30 END ATOM
M  V30 BEGIN BOND
M  V30 1 1 1 2
M  V30 2 1 2 3
M  V30 3 1 3 4
M  V30 4 2 4 5
M  V30 5 1 4 6
M  V30 6 2 6 7
M  V30 7 1 7 8
M  V30 8 1 7 9
M  V30 9 2 9 10
M  V30 10 1 10 11
M  V30 11 2 11 12
M  V30 12 1 12 13
M  V30 13 1 13 14
M  V30 14 1 14 15
M  V30 15 1 14 16
M  V30 16 1 11 17
M  V30 17 1 12 6
M  V30 18 1 1 18
M  V30 19 1 1 19
M  V30 20 1 1 20
M  V30 21 1 2 21
M  V30 22 1 2 22
M  V30 23 1 8 23
M  V30 24 1 8 24
M  V30 25 1 9 25
M  V30 26 1 10 26
M  V30 27 1 14 27
M  V30 28 1 17 28
M  V30 29 1 17 29
M  V30 END BOND
M  V30 END CTAB
M  END
