
     RDKit          3D

  0  0  0  0  0  0  0  0  0  0999 V3000
M  V30 BEGIN CTAB
M  V30 COUNTS 26 26 0 0 0
M  V30 BEGIN ATOM
M  V30 1 N 4.15645 -1.00383 -0.550272 0
M  V30 2 C 3.18941 0.013706 -0.362415 0
M  V30 3 N 3.47869 1.32636 -0.55003 0
M  V30 4 C 2.55425 2.28706 -0.369488 0
M  V30 5 C 1.25885 2.00493 0.0158384 0
M  V30 6 C 0.922761 0.687822 0.216907 0
M  V30 7 C 1.89603 -0.27154 0.0226012 0
M  V30 8 N -0.397406 0.318046 0.616248 0
M  V30 9 C -0.777031 -1.03706 0.832484 0
M  V30 10 C -2.20456 -1.26104 1.15666 0
M  V30 11 S -3.30775 -0.767762 -0.118826 0
M  V30 12 O -4.7261 -1.06815 0.302451 0
M  V30 13 O -3.05628 -1.54314 -1.39748 0
M  V30 14 N -3.22873 0.890926 -0.523826 0
M  V30 15 H 4.06164 -1.88513 -0.0107502 0
M  V30 16 H 4.95881 -0.917187 -1.20061 0
M  V30 17 H 2.80171 3.33951 -0.524257 0
M  V30 18 H 0.506016 2.78358 0.163185 0
M  V30 19 H 1.65908 -1.32943 0.174873 0
M  V30 20 H -1.08793 1.07918 0.760418 0
M  V30 21 H -0.537393 -1.60607 -0.115817 0
M  V30 22 H -0.138353 -1.54711 1.60589 0
M  V30 23 H -2.3962 -2.33532 1.39484 0
M  V30 24 H -2.43814 -0.724599 2.12518 0
M  V30 25 H -3.71849 1.46775 0.169717 0
M  V30 26 H -3.42934 1.09848 -1.50736 0
M  V30 END ATOM
M  V30 BEGIN BOND
M  V30 1 1 1 2
M  V30 2 2 2 3
M  V30 3 1 3 4
M  V30 4 2 4 5
M  V30 5 1 5 6
M  V30 6 2 6 7
M  V30 7 1 6 8
M  V30 8 1 8 9
M  V30 9 1 9 10
M  V30 10 1 10 11
M  V30 11 2 11 12
M  V30 12 2 11 13
M  V30 13 1 11 14
M  V30 14 1 7 2
M  V30 15 1 1 15
M  V30 16 1 1 16
M  V30 17 1 4 17
M  V30 18 1 5 18
M  V30 19 1 7 19
M  V30 20 1 8 20
M  V30 21 1 9 21
M  V30 22 1 9 22
M  V30 23 1 10 23
M  V30 24 1 10 24
M  V30 25 1 14 25
M  V30 26 1 14 26
M  V30 END BOND
M  V30 END CTAB
M  END
