
     RDKit          3D

  0  0  0  0  0  0  0  0  0  0999 V3000
M  V30 BEGIN CTAB
M  V30 COUNTS 42 45 0 0 0
M  V30 BEGIN ATOM
M  V30 1 N 6.6728 -1.4923 1.9315 0
M  V30 2 C 5.7516 -0.960225 0.975774 0
M  V30 3 C 5.67561 0.390643 0.71159 0
M  V30 4 C 4.78703 0.905044 -0.210464 0
M  V30 5 C 3.93087 0.0743581 -0.910782 0
M  V30 6 C 2.97946 0.649294 -1.90145 0
M  V30 7 N 1.71423 0.998312 -1.3161 0
M  V30 8 C 1.38706 2.18266 -0.775427 0
M  V30 9 N 0.11651 2.13003 -0.331024 0
M  V30 10 C -0.388576 0.914717 -0.579343 0
M  V30 11 C 0.624048 0.222018 -1.19493 0
M  V30 12 N 0.400879 -1.06488 -1.57157 0
M  V30 13 C -0.809513 -1.60354 -1.32212 0
M  V30 14 N -1.77908 -0.913497 -0.723176 0
M  V30 15 C -1.65538 0.355216 -0.316749 0
M  V30 16 N -2.61798 1.13239 0.327268 0
M  V30 17 C -3.92784 0.766143 0.658964 0
M  V30 18 C -4.62998 1.57696 1.58006 0
M  V30 19 C -5.91759 1.30444 1.94863 0
M  V30 20 C -6.56309 0.211322 1.41552 0
M  V30 21 C -5.93919 -0.620609 0.513089 0
M  V30 22 N -6.5794 -1.75504 -0.0534035 0
M  V30 23 C -4.61869 -0.294079 0.17006 0
M  V30 24 C 4.00351 -1.27908 -0.649431 0
M  V30 25 C 4.9034 -1.79862 0.284165 0
M  V30 26 H 7.07334 -2.44416 1.86562 0
M  V30 27 H 6.95637 -0.893048 2.73554 0
M  V30 28 H 6.34543 1.03574 1.26017 0
M  V30 29 H 4.73089 1.98421 -0.417162 0
M  V30 30 H 3.48017 1.53674 -2.38488 0
M  V30 31 H 2.84083 -0.0829446 -2.7478 0
M  V30 32 H 1.98887 3.08016 -0.675453 0
M  V30 33 H -0.943293 -2.64662 -1.64458 0
M  V30 34 H -2.3129 2.1281 0.593859 0
M  V30 35 H -4.12826 2.43348 2.00057 0
M  V30 36 H -6.44396 1.94853 2.66634 0
M  V30 37 H -7.58866 -0.0413331 1.68264 0
M  V30 38 H -6.05139 -2.64063 -0.15572 0
M  V30 39 H -7.56272 -1.67765 -0.354411 0
M  V30 40 H -4.16343 -0.958024 -0.547686 0
M  V30 41 H 3.32891 -1.91714 -1.20357 0
M  V30 42 H 4.92912 -2.8771 0.461689 0
M  V30 END ATOM
M  V30 BEGIN BOND
M  V30 1 1 1 2
M  V30 2 2 2 3
M  V30 3 1 3 4
M  V30 4 2 4 5
M  V30 5 1 5 6
M  V30 6 1 6 7
M  V30 7 1 7 8
M  V30 8 2 8 9
M  V30 9 1 9 10
M  V30 10 2 10 11
M  V30 11 1 11 12
M  V30 12 2 12 13
M  V30 13 1 13 14
M  V30 14 2 14 15
M  V30 15 1 15 16
M  V30 16 1 16 17
M  V30 17 2 17 18
M  V30 18 1 18 19
M  V30 19 2 19 20
M  V30 20 1 20 21
M  V30 21 1 21 22
M  V30 22 2 21 23
M  V30 23 1 5 24
M  V30 24 2 24 25
M  V30 25 1 25 2
M  V30 26 1 11 7
M  V30 27 1 23 17
M  V30 28 1 15 10
M  V30 29 1 1 26
M  V30 30 1 1 27
M  V30 31 1 3 28
M  V30 32 1 4 29
M  V30 33 1 6 30
M  V30 34 1 6 31
M  V30 35 1 8 32
M  V30 36 1 13 33
M  V30 37 1 16 34
M  V30 38 1 18 35
M  V30 39 1 19 36
M  V30 40 1 20 37
M  V30 41 1 22 38
M  V30 42 1 22 39
M  V30 43 1 23 40
M  V30 44 1 24 41
M  V30 45 1 25 42
M  V30 END BOND
M  V30 END CTAB
M  END
