
     RDKit          3D

  0  0  0  0  0  0  0  0  0  0999 V3000
M  V30 BEGIN CTAB
M  V30 COUNTS 22 22 0 0 0
M  V30 BEGIN ATOM
M  V30 1 N -3.25755 0.48719 0.219414 0
M  V30 2 C -1.82547 0.532045 0.453179 0
M  V30 3 C -1.04087 -0.176746 -0.592432 0
M  V30 4 C 0.413852 -0.0618271 -0.237027 0
M  V30 5 C 0.827558 0.742839 0.800255 0
M  V30 6 C 2.17365 0.83139 1.10571 0
M  V30 7 C 3.12909 0.129054 0.394044 0
M  V30 8 C 2.67754 -0.668459 -0.640062 0
M  V30 9 C 1.34937 -0.75747 -0.94346 0
M  V30 10 F 3.60464 -1.3761 -1.36226 0
M  V30 11 Cl 4.84136 0.232788 0.771787 0
M  V30 12 N -1.36368 -1.5483 -0.785483 0
M  V30 13 H -3.53626 1.02731 -0.628482 0
M  V30 14 H -3.75495 0.815241 1.06936 0
M  V30 15 H -1.57535 1.63123 0.361431 0
M  V30 16 H -1.59874 0.250035 1.48667 0
M  V30 17 H -1.18165 0.361644 -1.55719 0
M  V30 18 H 0.130159 1.32042 1.39997 0
M  V30 19 H 2.53715 1.46192 1.92426 0
M  V30 20 H 1.01559 -1.39896 -1.77088 0
M  V30 21 H -2.01695 -1.75277 -1.55675 0
M  V30 22 H -1.54848 -2.08247 0.0879605 0
M  V30 END ATOM
M  V30 BEGIN BOND
M  V30 1 1 1 2
M  V30 2 1 2 3
M  V30 3 1 3 4
M  V30 4 2 4 5
M  V30 5 1 5 6
M  V30 6 2 6 7
M  V30 7 1 7 8
M  V30 8 2 8 9
M  V30 9 1 8 10
M  V30 10 1 7 11
M  V30 11 1 3 12
M  V30 12 1 9 4
M  V30 13 1 1 13
M  V30 14 1 1 14
M  V30 15 1 2 15
M  V30 16 1 2 16
M  V30 17 1 3 17
M  V30 18 1 5 18
M  V30 19 1 6 19
M  V30 20 1 9 20
M  V30 21 1 12 21
M  V30 22 1 12 22
M  V30 END BOND
M  V30 END CTAB
M  END
