
     RDKit          3D

  0  0  0  0  0  0  0  0  0  0999 V3000
M  V30 BEGIN CTAB
M  V30 COUNTS 21 21 0 0 0
M  V30 BEGIN ATOM
M  V30 1 N -3.18305 -0.417632 0.90207 0
M  V30 2 C -1.78717 -0.365398 0.559556 0
M  V30 3 C -0.948347 -1.36164 1.0203 0
M  V30 4 C 0.380935 -1.28448 0.676354 0
M  V30 5 C 0.913923 -0.277488 -0.0947498 0
M  V30 6 C 0.0614267 0.71368 -0.549417 0
M  V30 7 C -1.28181 0.653784 -0.213296 0
M  V30 8 N -2.15941 1.68417 -0.68649 0 CHG=1
M  V30 9 O -1.92369 2.30156 -1.8907 0 CHG=-1
M  V30 10 O -3.15202 2.05384 -0.0348914 0
M  V30 11 S 2.61714 -0.327746 -0.440556 0
M  V30 12 N 3.5541 0.491926 0.73921 0
M  V30 13 O 2.81819 0.287898 -1.81602 0
M  V30 14 O 3.02348 -1.78312 -0.509171 0
M  V30 15 H -3.87978 -0.697013 0.181865 0
M  V30 16 H -3.5426 -0.185603 1.85234 0
M  V30 17 H -1.35579 -2.1749 1.63837 0
M  V30 18 H 1.03551 -2.08245 1.04822 0
M  V30 19 H 0.453565 1.50742 -1.15081 0
M  V30 20 H 3.958 1.3542 0.276218 0
M  V30 21 H 4.3974 -0.0910195 0.975285 0
M  V30 END ATOM
M  V30 BEGIN BOND
M  V30 1 1 1 2
M  V30 2 2 2 3
M  V30 3 1 3 4
M  V30 4 2 4 5
M  V30 5 1 5 6
M  V30 6 2 6 7
M  V30 7 1 7 8
M  V30 8 1 8 9
M  V30 9 2 8 10
M  V30 10 1 5 11
M  V30 11 1 11 12
M  V30 12 2 11 13
M  V30 13 2 11 14
M  V30 14 1 7 2
M  V30 15 1 1 15
M  V30 16 1 1 16
M  V30 17 1 3 17
M  V30 18 1 4 18
M  V30 19 1 6 19
M  V30 20 1 12 20
M  V30 21 1 12 21
M  V30 END BOND
M  V30 END CTAB
M  END
