
     RDKit          3D

  0  0  0  0  0  0  0  0  0  0999 V3000
M  V30 BEGIN CTAB
M  V30 COUNTS 26 26 0 0 0
M  V30 BEGIN ATOM
M  V30 1 N 4.14165 0.285994 0.294151 0
M  V30 2 C 2.80474 0.718158 0.0459851 0
M  V30 3 C 1.90883 -0.47037 0.0677851 0
M  V30 4 O 2.38111 -1.6317 0.283465 0
M  V30 5 N 0.517701 -0.313125 -0.152787 0
M  V30 6 C 0.0146075 1.00991 -0.393479 0
M  V30 7 C -1.3857 1.13077 -0.8218 0
M  V30 8 C -2.16667 -0.114783 -0.982983 0
M  V30 9 C -1.77247 -1.21558 -0.027909 0
M  V30 10 C -0.312589 -1.49791 -0.12165 0
M  V30 11 N -3.57274 0.165804 -0.754321 0
M  V30 12 H 4.2411 -0.74615 0.407075 0
M  V30 13 H 4.84823 0.689814 -0.357884 0
M  V30 14 H 2.68309 1.24632 -0.927291 0
M  V30 15 H 2.53032 1.44607 0.846525 0
M  V30 16 H 0.673555 1.47591 -1.17893 0
M  V30 17 H 0.237824 1.60634 0.538871 0
M  V30 18 H -1.92739 1.77747 -0.0698419 0
M  V30 19 H -1.48372 1.7182 -1.7824 0
M  V30 20 H -2.08838 -0.520948 -2.01621 0
M  V30 21 H -2.32103 -2.13192 -0.365943 0
M  V30 22 H -2.1092 -1.02742 1.00682 0
M  V30 23 H -0.00310184 -2.12505 0.762022 0
M  V30 24 H -0.0546405 -2.10534 -1.01202 0
M  V30 25 H -3.765 1.12375 -0.449671 0
M  V30 26 H -4.02014 -0.494208 -0.0920457 0
M  V30 END ATOM
M  V30 BEGIN BOND
M  V30 1 1 1 2
M  V30 2 1 2 3
M  V30 3 2 3 4
M  V30 4 1 3 5
M  V30 5 1 5 6
M  V30 6 1 6 7
M  V30 7 1 7 8
M  V30 8 1 8 9
M  V30 9 1 9 10
M  V30 10 1 8 11
M  V30 11 1 10 5
M  V30 12 1 1 12
M  V30 13 1 1 13
M  V30 14 1 2 14
M  V30 15 1 2 15
M  V30 16 1 6 16
M  V30 17 1 6 17
M  V30 18 1 7 18
M  V30 19 1 7 19
M  V30 20 1 8 20
M  V30 21 1 9 21
M  V30 22 1 9 22
M  V30 23 1 10 23
M  V30 24 1 10 24
M  V30 25 1 11 25
M  V30 26 1 11 26
M  V30 END BOND
M  V30 END CTAB
M  END
