
     RDKit          3D

  0  0  0  0  0  0  0  0  0  0999 V3000
M  V30 BEGIN CTAB
M  V30 COUNTS 18 19 0 0 0
M  V30 BEGIN ATOM
M  V30 1 N 3.15171 -0.715428 0.0861686 0
M  V30 2 C 1.89989 -0.0489395 0.0797175 0
M  V30 3 N 0.751283 -0.741817 0.129538 0
M  V30 4 C -0.422825 -0.0660802 0.121338 0
M  V30 5 C -0.455968 1.31152 0.0630658 0
M  V30 6 N -1.62689 2.00466 0.0540642 0
M  V30 7 C -2.78673 1.32595 0.10348 0
M  V30 8 N -2.79096 -0.0146749 0.16083 0
M  V30 9 C -1.63699 -0.722424 0.170752 0
M  V30 10 N -1.63901 -2.14038 0.231376 0
M  V30 11 N 0.699709 2.01044 0.0128614 0
M  V30 12 C 1.84259 1.328 0.0218986 0
M  V30 13 H 3.20974 -1.74863 -0.0367192 0
M  V30 14 H 4.02211 -0.187805 0.212459 0
M  V30 15 H -3.75114 1.85606 0.0978045 0
M  V30 16 H -1.65013 -2.66241 -0.652891 0
M  V30 17 H -1.62955 -2.63575 1.13999 0
M  V30 18 H 2.81314 1.8477 -0.0173909 0
M  V30 END ATOM
M  V30 BEGIN BOND
M  V30 1 1 1 2
M  V30 2 2 2 3
M  V30 3 1 3 4
M  V30 4 2 4 5
M  V30 5 1 5 6
M  V30 6 2 6 7
M  V30 7 1 7 8
M  V30 8 2 8 9
M  V30 9 1 9 10
M  V30 10 1 5 11
M  V30 11 2 11 12
M  V30 12 1 12 2
M  V30 13 1 9 4
M  V30 14 1 1 13
M  V30 15 1 1 14
M  V30 16 1 7 15
M  V30 17 1 10 16
M  V30 18 1 10 17
M  V30 19 1 12 18
M  V30 END BOND
M  V30 END CTAB
M  END
