
     RDKit          3D

  0  0  0  0  0  0  0  0  0  0999 V3000
M  V30 BEGIN CTAB
M  V30 COUNTS 22 22 0 0 0
M  V30 BEGIN ATOM
M  V30 1 C -3.18823 -0.223207 0.00187633 0
M  V30 2 C -1.69364 -0.327978 -0.034313 0
M  V30 3 C -1.05805 -1.53937 -0.191504 0
M  V30 4 C 0.317382 -1.64225 -0.225547 0
M  V30 5 F 0.902465 -2.84393 -0.380769 0
M  V30 6 C 1.13129 -0.528123 -0.102876 0
M  V30 7 C 0.490176 0.682932 0.054363 0
M  V30 8 C -0.889934 0.785061 0.0883878 0
M  V30 9 N -1.47562 2.05133 0.251456 0
M  V30 10 S 2.87417 -0.678987 -0.148506 0
M  V30 11 O 3.35945 -1.58499 0.973065 0
M  V30 12 O 3.35435 -1.2892 -1.4277 0
M  V30 13 N 3.58468 0.871585 0.02892 0
M  V30 14 H -3.5876 -1.23709 -0.19227 0
M  V30 15 H -3.53522 0.0649869 1.02729 0
M  V30 16 H -3.55286 0.535267 -0.716083 0
M  V30 17 H -1.69828 -2.4159 -0.288014 0
M  V30 18 H 1.12789 1.56946 0.152135 0
M  V30 19 H -1.43338 2.75934 -0.503183 0
M  V30 20 H -1.95983 2.29302 1.13463 0
M  V30 21 H 3.86362 1.10867 0.984551 0
M  V30 22 H 3.06715 1.58936 -0.485912 0
M  V30 END ATOM
M  V30 BEGIN BOND
M  V30 1 1 1 2
M  V30 2 2 2 3
M  V30 3 1 3 4
M  V30 4 1 4 5
M  V30 5 2 4 6
M  V30 6 1 6 7
M  V30 7 2 7 8
M  V30 8 1 8 9
M  V30 9 1 6 10
M  V30 10 2 10 11
M  V30 11 2 10 12
M  V30 12 1 10 13
M  V30 13 1 8 2
M  V30 14 1 1 14
M  V30 15 1 1 15
M  V30 16 1 1 16
M  V30 17 1 3 17
M  V30 18 1 7 18
M  V30 19 1 9 19
M  V30 20 1 9 20
M  V30 21 1 13 21
M  V30 22 1 13 22
M  V30 END BOND
M  V30 END CTAB
M  END
