
     RDKit          3D

  0  0  0  0  0  0  0  0  0  0999 V3000
M  V30 BEGIN CTAB
M  V30 COUNTS 28 29 0 0 0
M  V30 BEGIN ATOM
M  V30 1 N -5.02384 1.04627 0.40723 0
M  V30 2 C -3.61373 0.871464 0.441051 0
M  V30 3 N -2.83182 1.60974 1.25757 0
M  V30 4 C -1.48497 1.4086 1.2572 0
M  V30 5 C -0.884447 0.469418 0.4456 0
M  V30 6 C -1.69773 -0.280988 -0.386972 0
M  V30 7 C -3.06041 -0.0784921 -0.387561 0
M  V30 8 N -3.91481 -0.828778 -1.22588 0
M  V30 9 O 0.478992 0.316639 0.49378 0
M  V30 10 C 1.19763 -0.611413 -0.290334 0
M  V30 11 C 2.66178 -0.536871 -0.0107391 0
M  V30 12 C 3.09442 0.380242 0.92654 0
M  V30 13 C 4.44262 0.47276 1.20677 0
M  V30 14 C 5.30975 -0.361517 0.533582 0
M  V30 15 N 4.87154 -1.26435 -0.390847 0
M  V30 16 C 3.55335 -1.35674 -0.666693 0
M  V30 17 H -5.56066 0.759222 1.25187 0
M  V30 18 H -5.54604 1.43291 -0.386021 0
M  V30 19 H -0.84949 1.99968 1.91229 0
M  V30 20 H -1.24227 -1.01612 -1.0243 0
M  V30 21 H -4.35479 -1.74199 -0.914027 0
M  V30 22 H -4.16923 -0.538908 -2.19993 0
M  V30 23 H 0.830822 -1.61835 -0.0410016 0
M  V30 24 H 1.05385 -0.414136 -1.35628 0
M  V30 25 H 2.40552 1.0377 1.45628 0
M  V30 26 H 4.81133 1.18164 1.93611 0
M  V30 27 H 6.35699 -0.265021 0.77476 0
M  V30 28 H 3.16561 -2.07262 -1.40543 0
M  V30 END ATOM
M  V30 BEGIN BOND
M  V30 1 1 1 2
M  V30 2 2 2 3
M  V30 3 1 3 4
M  V30 4 2 4 5
M  V30 5 1 5 6
M  V30 6 2 6 7
M  V30 7 1 7 8
M  V30 8 1 5 9
M  V30 9 1 9 10
M  V30 10 1 10 11
M  V30 11 2 11 12
M  V30 12 1 12 13
M  V30 13 2 13 14
M  V30 14 1 14 15
M  V30 15 2 15 16
M  V30 16 1 7 2
M  V30 17 1 16 11
M  V30 18 1 1 17
M  V30 19 1 1 18
M  V30 20 1 4 19
M  V30 21 1 6 20
M  V30 22 1 8 21
M  V30 23 1 8 22
M  V30 24 1 10 23
M  V30 25 1 10 24
M  V30 26 1 12 25
M  V30 27 1 13 26
M  V30 28 1 14 27
M  V30 29 1 16 28
M  V30 END BOND
M  V30 END CTAB
M  END
