
     RDKit          3D

  0  0  0  0  0  0  0  0  0  0999 V3000
M  V30 BEGIN CTAB
M  V30 COUNTS 38 39 0 0 0
M  V30 BEGIN ATOM
M  V30 1 S -0.790129 -0.246192 -2.58105 0
M  V30 2 C 0.251738 -0.341947 -1.26396 0
M  V30 3 N 1.56122 -0.587199 -1.56216 0
M  V30 4 C 2.76387 -0.674615 -0.850909 0
M  V30 5 C 2.96432 -0.191294 0.406165 0
M  V30 6 C 4.20521 -0.251622 1.07538 0
M  V30 7 C 4.329 0.305049 2.45767 0
M  V30 8 C 5.27338 -0.826729 0.428456 0
M  V30 9 C 5.11488 -1.32627 -0.842708 0
M  V30 10 C 3.88902 -1.24448 -1.45004 0
M  V30 11 N 3.76175 -1.77276 -2.75635 0
M  V30 12 N -0.349524 -0.112323 -0.0276963 0
M  V30 13 C -1.75384 0.130411 0.182662 0
M  V30 14 C -2.13629 1.14727 1.06854 0
M  V30 15 C -3.4673 1.38495 1.32918 0
M  V30 16 C -4.43118 0.618446 0.715441 0
M  V30 17 C -4.02964 -0.364356 -0.141409 0
M  V30 18 C -2.68527 -0.640238 -0.434538 0
M  V30 19 S -6.12938 0.932785 1.05657 0
M  V30 20 O -6.20441 1.47354 2.46378 0
M  V30 21 O -6.86192 -0.375629 0.976127 0
M  V30 22 N -6.71189 2.08644 -0.071989 0
M  V30 23 H 1.70752 -0.753839 -2.66115 0
M  V30 24 H 2.19167 0.296316 0.958087 0
M  V30 25 H 4.69593 1.36199 2.35142 0
M  V30 26 H 3.31445 0.388998 2.89278 0
M  V30 27 H 5.0178 -0.308645 3.04898 0
M  V30 28 H 6.21093 -0.859124 0.964839 0
M  V30 29 H 5.98436 -1.77449 -1.32404 0
M  V30 30 H 4.09604 -1.20558 -3.55713 0
M  V30 31 H 3.33829 -2.71213 -2.88149 0
M  V30 32 H 0.179056 -0.119519 0.899606 0
M  V30 33 H -1.38441 1.73712 1.54039 0
M  V30 34 H -3.77873 2.16 2.00527 0
M  V30 35 H -4.80215 -0.966226 -0.622652 0
M  V30 36 H -2.48054 -1.46217 -1.11396 0
M  V30 37 H -6.08736 2.08723 -0.902099 0
M  V30 38 H -6.76645 3.00683 0.378642 0
M  V30 END ATOM
M  V30 BEGIN BOND
M  V30 1 2 1 2
M  V30 2 1 2 3
M  V30 3 1 3 4
M  V30 4 2 4 5
M  V30 5 1 5 6
M  V30 6 1 6 7
M  V30 7 2 6 8
M  V30 8 1 8 9
M  V30 9 2 9 10
M  V30 10 1 10 11
M  V30 11 1 2 12
M  V30 12 1 12 13
M  V30 13 2 13 14
M  V30 14 1 14 15
M  V30 15 2 15 16
M  V30 16 1 16 17
M  V30 17 2 17 18
M  V30 18 1 16 19
M  V30 19 2 19 20
M  V30 20 2 19 21
M  V30 21 1 19 22
M  V30 22 1 10 4
M  V30 23 1 18 13
M  V30 24 1 3 23
M  V30 25 1 5 24
M  V30 26 1 7 25
M  V30 27 1 7 26
M  V30 28 1 7 27
M  V30 29 1 8 28
M  V30 30 1 9 29
M  V30 31 1 11 30
M  V30 32 1 11 31
M  V30 33 1 12 32
M  V30 34 1 14 33
M  V30 35 1 15 34
M  V30 36 1 17 35
M  V30 37 1 18 36
M  V30 38 1 22 37
M  V30 39 1 22 38
M  V30 END BOND
M  V30 END CTAB
M  END
