
     RDKit          3D

  0  0  0  0  0  0  0  0  0  0999 V3000
M  V30 BEGIN CTAB
M  V30 COUNTS 17 17 0 0 0
M  V30 BEGIN ATOM
M  V30 1 N -1.86751 3.20786 0.0887249 0
M  V30 2 C -1.3104 2.19452 0.0667059 0
M  V30 3 C -0.600295 0.916564 0.0336583 0
M  V30 4 C -1.29175 -0.264338 -0.0166676 0
M  V30 5 N -2.7087 -0.27207 -0.0377238 0
M  V30 6 C -0.61258 -1.45433 -0.0471681 0
M  V30 7 C 0.765698 -1.4666 -0.0273386 0
M  V30 8 C 1.501 -0.287502 0.0235714 0
M  V30 9 C 0.774542 0.880959 0.0526419 0
M  V30 10 I 1.84133 2.71404 0.130645 0
M  V30 11 N 2.92244 -0.292118 0.0442886 0
M  V30 12 H -3.15416 -0.246363 -0.996712 0
M  V30 13 H -3.30151 -0.300684 0.812477 0
M  V30 14 H -1.18526 -2.37071 -0.0867461 0
M  V30 15 H 1.28614 -2.40301 -0.0515431 0
M  V30 16 H 3.50197 -0.562489 0.84629 0
M  V30 17 H 3.43904 0.00627857 -0.835104 0
M  V30 END ATOM
M  V30 BEGIN BOND
M  V30 1 3 1 2
M  V30 2 1 2 3
M  V30 3 2 3 4
M  V30 4 1 4 5
M  V30 5 1 4 6
M  V30 6 2 6 7
M  V30 7 1 7 8
M  V30 8 2 8 9
M  V30 9 1 9 10
M  V30 10 1 8 11
M  V30 11 1 9 3
M  V30 12 1 5 12
M  V30 13 1 5 13
M  V30 14 1 6 14
M  V30 15 1 7 15
M  V30 16 1 11 16
M  V30 17 1 11 17
M  V30 END BOND
M  V30 END CTAB
M  END
