
     RDKit          3D

  0  0  0  0  0  0  0  0  0  0999 V3000
M  V30 BEGIN CTAB
M  V30 COUNTS 46 47 0 0 0
M  V30 BEGIN ATOM
M  V30 1 N 7.29476 -0.998348 -0.793066 0
M  V30 2 C 6.86566 0.349584 -1.16611 0
M  V30 3 C 5.78789 0.709127 -0.236825 0
M  V30 4 C 5.86094 1.56766 0.79026 0
M  V30 5 C 4.83131 1.67167 1.73547 0
M  V30 6 C 3.76242 0.903743 1.63295 0
M  V30 7 C 3.60757 0.022005 0.661277 0
M  V30 8 C 4.64249 -0.081534 -0.314539 0
M  V30 9 C 2.57069 -1.18018 0.499142 0
M  V30 10 N 1.70994 -1.20595 -0.293428 0
M  V30 11 C 0.737229 -1.23348 -1.20731 0
M  V30 12 O 0.0814313 -1.20292 -2.20188 0
M  V30 13 C -0.464841 -1.52562 -0.0818607 0
M  V30 14 O -0.508539 -2.3522 0.778579 0
M  V30 15 N -1.22969 -0.345424 -0.51408 0
M  V30 16 C -2.34912 -0.82217 0.763783 0
M  V30 17 C -3.47546 0.0946174 0.611921 0
M  V30 18 C -3.40187 1.35656 0.770485 0
M  V30 19 C -4.59901 2.09175 0.656179 0
M  V30 20 C -5.72354 1.53986 0.436635 0
M  V30 21 C -5.85784 0.150478 0.24976 0
M  V30 22 C -4.71161 -0.558414 0.330476 0
M  V30 23 C -7.07866 -0.608143 0.0780576 0
M  V30 24 N -8.20519 0.124424 -0.497999 0
M  V30 25 H 6.65477 -1.70452 -1.2122 0
M  V30 26 H 7.16257 -1.1197 0.255768 0
M  V30 27 H 7.71261 1.0181 -1.00043 0
M  V30 28 H 6.53604 0.299267 -2.20502 0
M  V30 29 H 6.78783 2.23467 0.889152 0
M  V30 30 H 5.00962 2.32132 2.62687 0
M  V30 31 H 2.94421 1.09013 2.3627 0
M  V30 32 H 4.52336 -0.672995 -1.14599 0
M  V30 33 H 2.9533 -1.92455 1.26622 0
M  V30 34 H 1.82429 -0.609484 1.56533 0
M  V30 35 H 2.70261 -1.09196 -1.37726 0
M  V30 36 H -1.72894 0.282999 -0.699634 0
M  V30 37 H -1.79607 -1.37085 1.33558 0
M  V30 38 H -2.51151 -1.71956 -0.152055 0
M  V30 39 H -2.52037 1.90701 1.07938 0
M  V30 40 H -4.47224 3.22626 0.750577 0
M  V30 41 H -6.69923 2.09992 0.181944 0
M  V30 42 H -4.63587 -1.61953 0.177358 0
M  V30 43 H -7.41096 -1.10431 1.0028 0
M  V30 44 H -6.81881 -1.41421 -0.678464 0
M  V30 45 H -8.41125 0.878411 0.204082 0
M  V30 46 H -7.95288 0.526468 -1.40317 0
M  V30 END ATOM
M  V30 BEGIN BOND
M  V30 1 1 1 2
M  V30 2 1 2 3
M  V30 3 2 3 4
M  V30 4 1 4 5
M  V30 5 2 5 6
M  V30 6 1 6 7
M  V30 7 2 7 8
M  V30 8 1 7 9
M  V30 9 1 9 10
M  V30 10 1 10 11
M  V30 11 2 11 12
M  V30 12 1 11 13
M  V30 13 2 13 14
M  V30 14 1 13 15
M  V30 15 1 15 16
M  V30 16 1 16 17
M  V30 17 2 17 18
M  V30 18 1 18 19
M  V30 19 2 19 20
M  V30 20 1 20 21
M  V30 21 2 21 22
M  V30 22 1 21 23
M  V30 23 1 23 24
M  V30 24 1 8 3
M  V30 25 1 22 17
M  V30 26 1 1 25
M  V30 27 1 1 26
M  V30 28 1 2 27
M  V30 29 1 2 28
M  V30 30 1 4 29
M  V30 31 1 5 30
M  V30 32 1 6 31
M  V30 33 1 8 32
M  V30 34 1 9 33
M  V30 35 1 9 34
M  V30 36 1 10 35
M  V30 37 1 15 36
M  V30 38 1 16 37
M  V30 39 1 16 38
M  V30 40 1 18 39
M  V30 41 1 19 40
M  V30 42 1 20 41
M  V30 43 1 22 42
M  V30 44 1 23 43
M  V30 45 1 23 44
M  V30 46 1 24 45
M  V30 47 1 24 46
M  V30 END BOND
M  V30 END CTAB
M  END
