
     RDKit          3D

  0  0  0  0  0  0  0  0  0  0999 V3000
M  V30 BEGIN CTAB
M  V30 COUNTS 16 16 0 0 0
M  V30 BEGIN ATOM
M  V30 1 N 2.5763 0.129592 0.0158895 0
M  V30 2 C 1.18902 -0.213247 0.0270663 0
M  V30 3 C 0.798991 -1.53434 0.122586 0
M  V30 4 C -0.559326 -1.78197 0.126888 0
M  V30 5 C -1.49528 -0.771711 0.0407817 0
M  V30 6 C -1.09841 0.5423 -0.0541336 0
M  V30 7 C 0.262236 0.812019 -0.0600762 0
M  V30 8 I 0.904332 2.82413 -0.205056 0
M  V30 9 N -2.02746 1.60457 -0.144097 0
M  V30 10 H 3.21934 -0.186987 -0.749809 0
M  V30 11 H 2.91809 0.704653 0.797777 0
M  V30 12 H 1.509 -2.35239 0.191832 0
M  V30 13 H -0.89172 -2.81728 0.201473 0
M  V30 14 H -2.55345 -0.966832 0.0442933 0
M  V30 15 H -3.00342 1.42101 -0.42639 0
M  V30 16 H -1.74825 2.58648 0.0709741 0
M  V30 END ATOM
M  V30 BEGIN BOND
M  V30 1 1 1 2
M  V30 2 2 2 3
M  V30 3 1 3 4
M  V30 4 2 4 5
M  V30 5 1 5 6
M  V30 6 2 6 7
M  V30 7 1 7 8
M  V30 8 1 6 9
M  V30 9 1 7 2
M  V30 10 1 1 10
M  V30 11 1 1 11
M  V30 12 1 3 12
M  V30 13 1 4 13
M  V30 14 1 5 14
M  V30 15 1 9 15
M  V30 16 1 9 16
M  V30 END BOND
M  V30 END CTAB
M  END
