
     RDKit          3D

  0  0  0  0  0  0  0  0  0  0999 V3000
M  V30 BEGIN CTAB
M  V30 COUNTS 32 32 0 0 0
M  V30 BEGIN ATOM
M  V30 1 C -3.18623 1.27357 0.482578 0
M  V30 2 C -2.87937 -0.184851 0.209917 0
M  V30 3 C -3.60828 -0.984026 1.26864 0
M  V30 4 C -3.38422 -0.649189 -1.11364 0
M  V30 5 N -1.46127 -0.365237 0.394607 0
M  V30 6 C -0.492886 0.339564 -0.368159 0
M  V30 7 O -0.824841 1.17263 -1.26226 0
M  V30 8 C 0.938974 0.158255 -0.181266 0
M  V30 9 C 1.41594 -0.561204 0.887735 0
M  V30 10 C 2.78744 -0.738629 1.06381 0
M  V30 11 C 3.71899 -0.217594 0.20067 0
M  V30 12 N 5.12096 -0.401549 0.3846 0
M  V30 13 C 3.21362 0.505428 -0.871593 0
M  V30 14 N 4.12569 1.06467 -1.7918 0
M  V30 15 C 1.86385 0.68773 -1.05676 0
M  V30 16 H -3.41559 1.82652 -0.441177 0
M  V30 17 H -2.34149 1.79366 0.980998 0
M  V30 18 H -4.0608 1.39471 1.16916 0
M  V30 19 H -4.61757 -0.561348 1.35432 0
M  V30 20 H -3.59929 -2.06517 1.05084 0
M  V30 21 H -3.06491 -0.788397 2.22938 0
M  V30 22 H -3.41248 -1.74159 -1.15524 0
M  V30 23 H -4.42278 -0.262292 -1.23378 0
M  V30 24 H -2.81568 -0.269939 -1.98006 0
M  V30 25 H -1.15926 -1.04582 1.11854 0
M  V30 26 H 0.749308 -1.00365 1.61683 0
M  V30 27 H 3.12681 -1.30744 1.91142 0
M  V30 28 H 5.68946 0.396613 0.758876 0
M  V30 29 H 5.61401 -1.28453 0.168303 0
M  V30 30 H 4.9888 0.56539 -2.0757 0
M  V30 31 H 3.92746 1.99881 -2.19423 0
M  V30 32 H 1.46563 1.25491 -1.89796 0
M  V30 END ATOM
M  V30 BEGIN BOND
M  V30 1 1 1 2
M  V30 2 1 2 3
M  V30 3 1 2 4
M  V30 4 1 2 5
M  V30 5 1 5 6
M  V30 6 2 6 7
M  V30 7 1 6 8
M  V30 8 2 8 9
M  V30 9 1 9 10
M  V30 10 2 10 11
M  V30 11 1 11 12
M  V30 12 1 11 13
M  V30 13 1 13 14
M  V30 14 2 13 15
M  V30 15 1 15 8
M  V30 16 1 1 16
M  V30 17 1 1 17
M  V30 18 1 1 18
M  V30 19 1 3 19
M  V30 20 1 3 20
M  V30 21 1 3 21
M  V30 22 1 4 22
M  V30 23 1 4 23
M  V30 24 1 4 24
M  V30 25 1 5 25
M  V30 26 1 9 26
M  V30 27 1 10 27
M  V30 28 1 12 28
M  V30 29 1 12 29
M  V30 30 1 14 30
M  V30 31 1 14 31
M  V30 32 1 15 32
M  V30 END BOND
M  V30 END CTAB
M  END
