
     RDKit          3D

  0  0  0  0  0  0  0  0  0  0999 V3000
M  V30 BEGIN CTAB
M  V30 COUNTS 49 52 0 0 0
M  V30 BEGIN ATOM
M  V30 1 O -3.27153 -0.358894 2.92743 0
M  V30 2 C -2.53121 -1.23164 2.36888 0
M  V30 3 N -2.76612 -1.59779 1.03403 0
M  V30 4 C -3.78152 -1.05756 0.217195 0
M  V30 5 C -4.25894 -1.92626 -0.772638 0
M  V30 6 C -5.25824 -1.49534 -1.61661 0
M  V30 7 C -5.77237 -0.241372 -1.48626 0
M  V30 8 C -5.29178 0.613094 -0.501509 0
M  V30 9 C -4.28244 0.201994 0.361916 0
M  V30 10 S -5.96648 2.2073 -0.330715 0
M  V30 11 O -6.54226 2.34333 1.03444 0
M  V30 12 O -4.86367 3.23449 -0.475202 0
M  V30 13 N -7.1239 2.48086 -1.58222 0
M  V30 14 C -1.4249 -1.85355 3.15787 0
M  V30 15 S -0.306583 -2.73777 2.1091 0
M  V30 16 C 0.800782 -1.72554 1.15067 0
M  V30 17 N 0.483608 -1.24842 -0.0581167 0
M  V30 18 C 1.35894 -0.501703 -0.801524 0
M  V30 19 S 1.29155 0.25625 -2.3289 0
M  V30 20 C 2.84403 0.939022 -2.37734 0
M  V30 21 C 3.39622 0.548838 -1.16781 0
M  V30 22 C 2.62101 -0.188962 -0.363451 0
M  V30 23 C 2.92272 -0.699757 0.908697 0
M  V30 24 O 4.04979 -0.498769 1.47362 0
M  V30 25 N 2.03459 -1.42182 1.59118 0
M  V30 26 N 2.36468 -1.94167 2.87263 0
M  V30 27 C 4.83274 0.918133 -0.941386 0
M  V30 28 C 5.21446 2.23369 -0.891604 0
M  V30 29 C 6.53298 2.60479 -0.740575 0
M  V30 30 C 7.48957 1.61169 -0.637246 0
M  V30 31 C 7.15059 0.281305 -0.681654 0
M  V30 32 C 5.80805 -0.0446671 -0.835624 0
M  V30 33 H -2.14919 -2.33972 0.620683 0
M  V30 34 H -3.85161 -2.94067 -0.889329 0
M  V30 35 H -5.65427 -2.15655 -2.40473 0
M  V30 36 H -6.55612 0.0781429 -2.15798 0
M  V30 37 H -3.90675 0.868908 1.09957 0
M  V30 38 H -7.85539 3.15706 -1.33172 0
M  V30 39 H -6.63738 2.63254 -2.46774 0
M  V30 40 H -0.889123 -0.963409 3.61885 0
M  V30 41 H -1.78411 -2.42326 4.03697 0
M  V30 42 H 3.3315 1.55195 -3.16131 0
M  V30 43 H 2.47332 -2.95413 3.03846 0
M  V30 44 H 2.49536 -1.25681 3.63577 0
M  V30 45 H 4.49497 3.03535 -0.968044 0
M  V30 46 H 6.79921 3.65594 -0.705299 0
M  V30 47 H 8.52824 1.9373 -0.517844 0
M  V30 48 H 7.90012 -0.491939 -0.598722 0
M  V30 49 H 5.50685 -1.09399 -0.88474 0
M  V30 END ATOM
M  V30 BEGIN BOND
M  V30 1 2 1 2
M  V30 2 1 2 3
M  V30 3 1 3 4
M  V30 4 2 4 5
M  V30 5 1 5 6
M  V30 6 2 6 7
M  V30 7 1 7 8
M  V30 8 2 8 9
M  V30 9 1 8 10
M  V30 10 2 10 11
M  V30 11 2 10 12
M  V30 12 1 10 13
M  V30 13 1 2 14
M  V30 14 1 14 15
M  V30 15 1 15 16
M  V30 16 2 16 17
M  V30 17 1 17 18
M  V30 18 1 18 19
M  V30 19 1 19 20
M  V30 20 2 20 21
M  V30 21 1 21 22
M  V30 22 1 22 23
M  V30 23 2 23 24
M  V30 24 1 23 25
M  V30 25 1 25 26
M  V30 26 1 21 27
M  V30 27 2 27 28
M  V30 28 1 28 29
M  V30 29 2 29 30
M  V30 30 1 30 31
M  V30 31 2 31 32
M  V30 32 1 9 4
M  V30 33 1 25 16
M  V30 34 1 32 27
M  V30 35 2 22 18
M  V30 36 1 3 33
M  V30 37 1 5 34
M  V30 38 1 6 35
M  V30 39 1 7 36
M  V30 40 1 9 37
M  V30 41 1 13 38
M  V30 42 1 13 39
M  V30 43 1 14 40
M  V30 44 1 14 41
M  V30 45 1 20 42
M  V30 46 1 26 43
M  V30 47 1 26 44
M  V30 48 1 28 45
M  V30 49 1 29 46
M  V30 50 1 30 47
M  V30 51 1 31 48
M  V30 52 1 32 49
M  V30 END BOND
M  V30 END CTAB
M  END
