
     RDKit          3D

  0  0  0  0  0  0  0  0  0  0999 V3000
M  V30 BEGIN CTAB
M  V30 COUNTS 20 20 0 0 0
M  V30 BEGIN ATOM
M  V30 1 N 4.15035 -0.35667 0.465745 0
M  V30 2 N 2.83427 0.0830316 0.286644 0
M  V30 3 C 1.73012 -0.775524 0.5256 0
M  V30 4 O 1.97167 -1.9511 0.905649 0
M  V30 5 C 0.361736 -0.322005 0.340551 0
M  V30 6 C 0.00205248 0.938369 -0.0699251 0
M  V30 7 C -1.33272 1.31476 -0.229466 0
M  V30 8 C -2.32955 0.413635 0.0262546 0
M  V30 9 C -1.99956 -0.868766 0.442819 0
M  V30 10 C -0.677427 -1.20765 0.590085 0
M  V30 11 Br -3.37018 -2.12081 0.798538 0
M  V30 12 N -3.70102 0.724679 -0.113687 0
M  V30 13 H 4.76007 0.438659 0.75632 0
M  V30 14 H 4.52851 -0.813341 -0.4005 0
M  V30 15 H 2.72754 1.07529 -0.0312066 0
M  V30 16 H 0.802649 1.6398 -0.268225 0
M  V30 17 H -1.58922 2.32276 -0.556814 0
M  V30 18 H -0.434557 -2.22203 0.919042 0
M  V30 19 H -4.08062 0.870716 -1.07102 0
M  V30 20 H -4.35412 0.816192 0.687207 0
M  V30 END ATOM
M  V30 BEGIN BOND
M  V30 1 1 1 2
M  V30 2 1 2 3
M  V30 3 2 3 4
M  V30 4 1 3 5
M  V30 5 2 5 6
M  V30 6 1 6 7
M  V30 7 2 7 8
M  V30 8 1 8 9
M  V30 9 2 9 10
M  V30 10 1 9 11
M  V30 11 1 8 12
M  V30 12 1 10 5
M  V30 13 1 1 13
M  V30 14 1 1 14
M  V30 15 1 2 15
M  V30 16 1 6 16
M  V30 17 1 7 17
M  V30 18 1 10 18
M  V30 19 1 12 19
M  V30 20 1 12 20
M  V30 END BOND
M  V30 END CTAB
M  END
