
     RDKit          3D

  0  0  0  0  0  0  0  0  0  0999 V3000
M  V30 BEGIN CTAB
M  V30 COUNTS 54 59 0 0 0
M  V30 BEGIN ATOM
M  V30 1 N -10.5316 -1.43016 0.843652 0
M  V30 2 C -9.16529 -1.22197 0.512096 0
M  V30 3 N -8.37451 -0.181214 0.882641 0
M  V30 4 C -7.13586 -0.326053 0.378484 0
M  V30 5 C -5.96108 0.391209 0.423115 0
M  V30 6 C -4.79676 0.00795079 -0.201598 0
M  V30 7 C -4.86028 -1.19518 -0.915731 0
M  V30 8 C -6.02894 -1.9191 -0.966513 0
M  V30 9 C -7.18532 -1.51751 -0.33308 0
M  V30 10 O -8.38467 -1.99658 -0.223395 0
M  V30 11 C -3.56193 0.78014 -0.143107 0
M  V30 12 C -2.35491 0.118813 -0.193314 0
M  V30 13 C -1.12742 0.777003 -0.144378 0
M  V30 14 C -1.0968 2.14987 -0.0412578 0
M  V30 15 C -2.28803 2.82818 0.0101621 0
M  V30 16 C -3.50498 2.1531 -0.0400363 0
M  V30 17 N 0.0987905 2.76708 0.00496665 0
M  V30 18 C 1.2231 2.03253 -0.0504065 0
M  V30 19 N 2.52193 2.65012 -0.00409809 0
M  V30 20 C 1.21975 0.655967 -0.153718 0
M  V30 21 N 0.0236915 0.0447914 -0.199456 0
M  V30 22 N 2.4469 -0.0814161 -0.210089 0
M  V30 23 C 3.61254 -0.164671 -1.06189 0
M  V30 24 C 4.08564 -1.38804 -0.307015 0
M  V30 25 C 2.9935 -1.10471 0.666671 0
M  V30 26 N 5.44769 -1.31144 0.188032 0
M  V30 27 C 6.36357 -1.19525 -0.904746 0
M  V30 28 C 7.18665 0.052473 -0.914545 0
M  V30 29 O 7.78237 0.357212 0.284143 0
M  V30 30 C 7.12367 -0.103734 1.39614 0
M  V30 31 C 5.62542 -0.286205 1.16785 0
M  V30 32 H -10.8599 -1.27999 1.81698 0
M  V30 33 H -11.1947 -1.72794 0.127443 0
M  V30 34 H -5.92115 1.32583 0.98133 0
M  V30 35 H -3.97109 -1.52069 -1.41287 0
M  V30 36 H -6.07729 -2.86105 -1.52604 0
M  V30 37 H -2.34911 -0.958657 -0.274225 0
M  V30 38 H -2.25216 3.91123 0.0919679 0
M  V30 39 H -4.42277 2.7004 0.00138041 0
M  V30 40 H 3.04706 2.78741 0.884947 0
M  V30 41 H 2.88969 2.94809 -0.945911 0
M  V30 42 H 3.31918 -0.468504 -2.10393 0
M  V30 43 H 4.27229 0.711728 -1.01068 0
M  V30 44 H 3.86925 -2.36179 -0.834602 0
M  V30 45 H 2.26728 -1.94126 0.822764 0
M  V30 46 H 3.26857 -0.644098 1.62753 0
M  V30 47 H 5.8416 -1.24054 -1.9032 0
M  V30 48 H 7.08397 -2.0604 -0.934007 0
M  V30 49 H 7.99954 -0.106911 -1.68084 0
M  V30 50 H 6.64393 0.951215 -1.27025 0
M  V30 51 H 7.2564 0.586063 2.28115 0
M  V30 52 H 7.51865 -1.10474 1.68733 0
M  V30 53 H 5.23088 -0.624765 2.16933 0
M  V30 54 H 5.14311 0.636167 0.836285 0
M  V30 END ATOM
M  V30 BEGIN BOND
M  V30 1 1 1 2
M  V30 2 2 2 3
M  V30 3 1 3 4
M  V30 4 2 4 5
M  V30 5 1 5 6
M  V30 6 2 6 7
M  V30 7 1 7 8
M  V30 8 2 8 9
M  V30 9 1 9 10
M  V30 10 1 6 11
M  V30 11 2 11 12
M  V30 12 1 12 13
M  V30 13 2 13 14
M  V30 14 1 14 15
M  V30 15 2 15 16
M  V30 16 1 14 17
M  V30 17 2 17 18
M  V30 18 1 18 19
M  V30 19 1 18 20
M  V30 20 2 20 21
M  V30 21 1 20 22
M  V30 22 1 22 23
M  V30 23 1 23 24
M  V30 24 1 24 25
M  V30 25 1 24 26
M  V30 26 1 26 27
M  V30 27 1 27 28
M  V30 28 1 28 29
M  V30 29 1 29 30
M  V30 30 1 30 31
M  V30 31 1 10 2
M  V30 32 1 16 11
M  V30 33 1 25 22
M  V30 34 1 31 26
M  V30 35 1 9 4
M  V30 36 1 21 13
M  V30 37 1 1 32
M  V30 38 1 1 33
M  V30 39 1 5 34
M  V30 40 1 7 35
M  V30 41 1 8 36
M  V30 42 1 12 37
M  V30 43 1 15 38
M  V30 44 1 16 39
M  V30 45 1 19 40
M  V30 46 1 19 41
M  V30 47 1 23 42
M  V30 48 1 23 43
M  V30 49 1 24 44
M  V30 50 1 25 45
M  V30 51 1 25 46
M  V30 52 1 27 47
M  V30 53 1 27 48
M  V30 54 1 28 49
M  V30 55 1 28 50
M  V30 56 1 30 51
M  V30 57 1 30 52
M  V30 58 1 31 53
M  V30 59 1 31 54
M  V30 END BOND
M  V30 END CTAB
M  END
