
     RDKit          3D

  0  0  0  0  0  0  0  0  0  0999 V3000
M  V30 BEGIN CTAB
M  V30 COUNTS 31 32 0 0 0
M  V30 BEGIN ATOM
M  V30 1 C -4.0422 -0.636757 1.0906 0
M  V30 2 C -2.86351 -0.343916 0.224976 0
M  V30 3 C -3.03564 0.900258 -0.615592 0
M  V30 4 C -1.61561 1.37096 -0.858781 0
M  V30 5 N -0.758943 0.533157 -0.041997 0
M  V30 6 C -1.61339 -0.00259048 1.01673 0
M  V30 7 C 0.616296 0.284924 -0.228987 0
M  V30 8 C 1.27373 0.875068 -1.28703 0
M  V30 9 C 2.63165 0.62276 -1.46177 0
M  V30 10 C 3.33814 -0.199586 -0.608239 0
M  V30 11 C 2.67597 -0.787725 0.448874 0
M  V30 12 C 1.31929 -0.529545 0.615113 0
M  V30 13 N 3.41403 -1.62844 1.31542 0
M  V30 14 N 4.71953 -0.449594 -0.795103 0
M  V30 15 H -4.93793 -0.140523 0.67685 0
M  V30 16 H -3.89395 -0.303404 2.13608 0
M  V30 17 H -4.24522 -1.72779 1.05166 0
M  V30 18 H -2.66794 -1.17956 -0.465326 0
M  V30 19 H -3.63114 1.67893 -0.0965357 0
M  V30 20 H -3.48783 0.679299 -1.60607 0
M  V30 21 H -1.3433 1.30514 -1.93448 0
M  V30 22 H -1.46528 2.41242 -0.511937 0
M  V30 23 H -1.18005 -0.871388 1.51647 0
M  V30 24 H -1.83616 0.825729 1.69588 0
M  V30 25 H 0.778638 1.52843 -1.99048 0
M  V30 26 H 3.13256 1.0944 -2.29799 0
M  V30 27 H 0.853856 -1.01777 1.46046 0
M  V30 28 H 3.81762 -2.53567 1.02155 0
M  V30 29 H 3.55726 -1.31898 2.29438 0
M  V30 30 H 5.42813 -0.209781 -0.0848608 0
M  V30 31 H 5.06137 -0.89431 -1.67986 0
M  V30 END ATOM
M  V30 BEGIN BOND
M  V30 1 1 1 2
M  V30 2 1 2 3
M  V30 3 1 3 4
M  V30 4 1 4 5
M  V30 5 1 5 6
M  V30 6 1 5 7
M  V30 7 2 7 8
M  V30 8 1 8 9
M  V30 9 2 9 10
M  V30 10 1 10 11
M  V30 11 2 11 12
M  V30 12 1 11 13
M  V30 13 1 10 14
M  V30 14 1 6 2
M  V30 15 1 12 7
M  V30 16 1 1 15
M  V30 17 1 1 16
M  V30 18 1 1 17
M  V30 19 1 2 18
M  V30 20 1 3 19
M  V30 21 1 3 20
M  V30 22 1 4 21
M  V30 23 1 4 22
M  V30 24 1 6 23
M  V30 25 1 6 24
M  V30 26 1 8 25
M  V30 27 1 9 26
M  V30 28 1 12 27
M  V30 29 1 13 28
M  V30 30 1 13 29
M  V30 31 1 14 30
M  V30 32 1 14 31
M  V30 END BOND
M  V30 END CTAB
M  END
