
     RDKit          3D

  0  0  0  0  0  0  0  0  0  0999 V3000
M  V30 BEGIN CTAB
M  V30 COUNTS 53 55 0 0 0
M  V30 BEGIN ATOM
M  V30 1 N 6.84672 1.89507 0.328968 0
M  V30 2 C 6.86922 0.5292 0.640246 0
M  V30 3 C 5.66086 -0.102072 -0.122071 0
M  V30 4 C 4.41536 0.540131 0.345209 0
M  V30 5 C 3.18249 0.128995 -0.351067 0
M  V30 6 C 2.88095 -1.33345 -0.257277 0 CFG=1
M  V30 7 C 1.56463 -1.64218 -0.924355 0
M  V30 8 O 1.6114 -2.15913 -2.06687 0
M  V30 9 N 0.318479 -1.36887 -0.304004 0
M  V30 10 C -1.01455 -1.60446 -0.85908 0
M  V30 11 C -1.95598 -0.686266 -0.0662225 0 CFG=1
M  V30 12 C -1.01501 0.179664 0.705176 0 CFG=1
M  V30 13 C 0.106945 -0.821599 0.998134 0
M  V30 14 O -0.547752 1.27868 0.0305559 0
M  V30 15 C -2.82371 0.00766563 -1.05119 0
M  V30 16 C -3.81095 0.937921 -0.519156 0
M  V30 17 C -3.66854 2.3017 -0.597289 0
M  V30 18 C -4.65348 3.13188 -0.0729327 0
M  V30 19 N -5.75216 2.61572 0.513997 0
M  V30 20 C -5.89181 1.27453 0.590308 0
M  V30 21 C -4.94989 0.393668 0.0890792 0
M  V30 22 N -5.12639 -0.937075 0.183622 0
M  V30 23 C -6.20996 -1.49012 0.760934 0
M  V30 24 C -7.18785 -0.664486 1.28141 0
M  V30 25 C -7.01268 0.700392 1.18755 0
M  V30 26 N 3.92441 -2.00134 -1.079 0
M  V30 27 H 6.35722 2.21389 -0.457607 0
M  V30 28 H 7.65077 2.38361 0.57696 0
M  V30 29 H 6.70034 0.304777 1.7033 0
M  V30 30 H 7.75077 0.0381308 0.226582 0
M  V30 31 H 5.87476 0.00178734 -1.18795 0
M  V30 32 H 5.71661 -1.20735 0.119797 0
M  V30 33 H 4.52204 1.67561 0.368032 0
M  V30 34 H 4.32419 0.315142 1.46602 0
M  V30 35 H 3.27569 0.385937 -1.47089 0
M  V30 36 H 2.29186 0.754621 -0.0693724 0
M  V30 37 H 2.93326 -1.75629 0.739358 0
M  V30 38 H -1.32345 -2.6527 -0.764997 0
M  V30 39 H -0.985286 -1.31318 -1.93326 0
M  V30 40 H -2.60223 -1.29182 0.602295 0
M  V30 41 H -1.39442 0.499435 1.68258 0
M  V30 42 H -0.337965 -1.55954 1.70279 0
M  V30 43 H 0.958264 -0.385774 1.50356 0
M  V30 44 H -0.22374 1.07319 -0.888432 0
M  V30 45 H -2.21992 0.566199 -1.82534 0
M  V30 46 H -3.36907 -0.781904 -1.64185 0
M  V30 47 H -2.78598 2.68958 -1.07419 0
M  V30 48 H -4.48679 4.20408 -0.163081 0
M  V30 49 H -6.34441 -2.56948 0.833163 0
M  V30 50 H -8.05064 -1.12754 1.74128 0
M  V30 51 H -7.77349 1.3655 1.59193 0
M  V30 52 H 4.14424 -2.92959 -0.692477 0
M  V30 53 H 3.63664 -2.00046 -2.07661 0
M  V30 END ATOM
M  V30 BEGIN BOND
M  V30 1 1 1 2
M  V30 2 1 2 3
M  V30 3 1 3 4
M  V30 4 1 4 5
M  V30 5 1 5 6
M  V30 6 1 6 7
M  V30 7 2 7 8
M  V30 8 1 7 9
M  V30 9 1 9 10
M  V30 10 1 10 11
M  V30 11 1 11 12
M  V30 12 1 12 13
M  V30 13 1 12 14
M  V30 14 1 11 15
M  V30 15 1 15 16
M  V30 16 2 16 17
M  V30 17 1 17 18
M  V30 18 2 18 19
M  V30 19 1 19 20
M  V30 20 2 20 21
M  V30 21 1 21 22
M  V30 22 2 22 23
M  V30 23 1 23 24
M  V30 24 2 24 25
M  V30 25 1 6 26
M  V30 26 1 13 9
M  V30 27 1 21 16
M  V30 28 1 25 20
M  V30 29 1 1 27
M  V30 30 1 1 28
M  V30 31 1 2 29
M  V30 32 1 2 30
M  V30 33 1 3 31
M  V30 34 1 3 32
M  V30 35 1 4 33
M  V30 36 1 4 34
M  V30 37 1 5 35
M  V30 38 1 5 36
M  V30 39 1 6 37 CFG=1
M  V30 40 1 10 38
M  V30 41 1 10 39
M  V30 42 1 11 40 CFG=1
M  V30 43 1 12 41 CFG=1
M  V30 44 1 13 42
M  V30 45 1 13 43
M  V30 46 1 14 44
M  V30 47 1 15 45
M  V30 48 1 15 46
M  V30 49 1 17 47
M  V30 50 1 18 48
M  V30 51 1 23 49
M  V30 52 1 24 50
M  V30 53 1 25 51
M  V30 54 1 26 52
M  V30 55 1 26 53
M  V30 END BOND
M  V30 END CTAB
M  END
