
     RDKit          3D

  0  0  0  0  0  0  0  0  0  0999 V3000
M  V30 BEGIN CTAB
M  V30 COUNTS 24 23 0 0 0
M  V30 BEGIN ATOM
M  V30 1 O 3.20669 1.6157 0.939263 0
M  V30 2 C 3.09205 0.259753 1.17823 0
M  V30 3 O 3.08911 -0.189193 2.33961 0
M  V30 4 C 2.97181 -0.659959 0.0281335 0
M  V30 5 C 1.54291 -1.10171 -0.1714 0
M  V30 6 C 0.614825 0.0536705 -0.433632 0
M  V30 7 C -0.776796 -0.528184 -0.614068 0
M  V30 8 N -1.75415 0.495399 -0.872979 0
M  V30 9 C -2.93406 0.532933 -0.364165 0
M  V30 10 N -3.77358 1.60651 -0.719532 0
M  V30 11 N -3.42755 -0.452088 0.534313 0
M  V30 12 H 4.07218 2.0983 1.19186 0
M  V30 13 H 3.55612 -1.57174 0.281805 0
M  V30 14 H 3.41092 -0.182736 -0.867983 0
M  V30 15 H 1.20975 -1.61064 0.733413 0
M  V30 16 H 1.51237 -1.74366 -1.08108 0
M  V30 17 H 0.868311 0.581689 -1.36919 0
M  V30 18 H 0.640007 0.817697 0.371065 0
M  V30 19 H -1.02599 -1.13239 0.277179 0
M  V30 20 H -0.692713 -1.25012 -1.45908 0
M  V30 21 H -3.68474 2.51281 -0.239857 0
M  V30 22 H -4.4765 1.48241 -1.46066 0
M  V30 23 H -3.80629 -0.158431 1.46609 0
M  V30 24 H -3.43467 -1.47602 0.312663 0
M  V30 END ATOM
M  V30 BEGIN BOND
M  V30 1 1 1 2
M  V30 2 2 2 3
M  V30 3 1 2 4
M  V30 4 1 4 5
M  V30 5 1 5 6
M  V30 6 1 6 7
M  V30 7 1 7 8
M  V30 8 2 8 9 CFG=2
M  V30 9 1 9 10
M  V30 10 1 9 11
M  V30 11 1 1 12
M  V30 12 1 4 13
M  V30 13 1 4 14
M  V30 14 1 5 15
M  V30 15 1 5 16
M  V30 16 1 6 17
M  V30 17 1 6 18
M  V30 18 1 7 19
M  V30 19 1 7 20
M  V30 20 1 10 21
M  V30 21 1 10 22
M  V30 22 1 11 23
M  V30 23 1 11 24
M  V30 END BOND
M  V30 END CTAB
M  END
