
     RDKit          3D

  0  0  0  0  0  0  0  0  0  0999 V3000
M  V30 BEGIN CTAB
M  V30 COUNTS 35 36 0 0 0
M  V30 BEGIN ATOM
M  V30 1 C -3.05485 3.35983 -0.0390935 0
M  V30 2 O -2.13208 2.29292 -0.0109925 0
M  V30 3 C -2.57279 0.996394 0.013402 0
M  V30 4 C -3.92501 0.726894 0.0106044 0
M  V30 5 C -4.3214 -0.591493 0.0357303 0
M  V30 6 C -3.42849 -1.63956 0.0632446 0
M  V30 7 C -2.08666 -1.32694 0.0650743 0
M  V30 8 C -1.62537 -0.0197203 0.0405868 0
M  V30 9 N -0.246257 0.302425 0.042452 0
M  V30 10 C 0.707307 -0.743667 0.0702556 0
M  V30 11 C 2.11864 -0.377348 0.0714267 0
M  V30 12 C 2.65047 0.873539 0.0492851 0
M  V30 13 C 4.03683 1.07032 0.0537171 0
M  V30 14 C 4.86799 -0.00636848 0.0806028 0
M  V30 15 C 4.3553 -1.26899 0.103096 0
M  V30 16 C 3.01147 -1.45655 0.098737 0
M  V30 17 N 6.27635 0.163366 0.0857175 0
M  V30 18 N -3.91249 -2.97425 0.0881693 0
M  V30 19 H -3.6511 3.2984 0.895786 0
M  V30 20 H -3.78328 3.24522 -0.877857 0
M  V30 21 H -2.4783 4.30408 -0.0994142 0
M  V30 22 H -4.66181 1.54472 -0.0111141 0
M  V30 23 H -5.37092 -0.808738 0.0337311 0
M  V30 24 H -1.36655 -2.10826 0.085933 0
M  V30 25 H 0.040891 1.28947 0.0236139 0
M  V30 26 H 0.542722 -1.35658 -0.868349 0
M  V30 27 H 0.46323 -1.47823 0.888854 0
M  V30 28 H 1.98901 1.71266 0.0282609 0
M  V30 29 H 4.43222 2.0879 0.0354799 0
M  V30 30 H 5.03714 -2.11197 0.124325 0
M  V30 31 H 2.63161 -2.49016 0.117401 0
M  V30 32 H 6.94224 -0.584019 -0.161024 0
M  V30 33 H 6.68354 1.09089 0.351653 0
M  V30 34 H -3.48804 -3.69151 0.748293 0
M  V30 35 H -4.68155 -3.32465 -0.511809 0
M  V30 END ATOM
M  V30 BEGIN BOND
M  V30 1 1 1 2
M  V30 2 1 2 3
M  V30 3 2 3 4
M  V30 4 1 4 5
M  V30 5 2 5 6
M  V30 6 1 6 7
M  V30 7 2 7 8
M  V30 8 1 8 9
M  V30 9 1 9 10
M  V30 10 1 10 11
M  V30 11 2 11 12
M  V30 12 1 12 13
M  V30 13 2 13 14
M  V30 14 1 14 15
M  V30 15 2 15 16
M  V30 16 1 14 17
M  V30 17 1 6 18
M  V30 18 1 8 3
M  V30 19 1 16 11
M  V30 20 1 1 19
M  V30 21 1 1 20
M  V30 22 1 1 21
M  V30 23 1 4 22
M  V30 24 1 5 23
M  V30 25 1 7 24
M  V30 26 1 9 25
M  V30 27 1 10 26
M  V30 28 1 10 27
M  V30 29 1 12 28
M  V30 30 1 13 29
M  V30 31 1 15 30
M  V30 32 1 16 31
M  V30 33 1 17 32
M  V30 34 1 17 33
M  V30 35 1 18 34
M  V30 36 1 18 35
M  V30 END BOND
M  V30 END CTAB
M  END
