
     RDKit          3D

  0  0  0  0  0  0  0  0  0  0999 V3000
M  V30 BEGIN CTAB
M  V30 COUNTS 31 31 0 0 0
M  V30 BEGIN ATOM
M  V30 1 N -1.74815 2.52888 1.66559 0
M  V30 2 C -2.19981 1.22719 1.28554 0
M  V30 3 C -1.08703 0.524055 0.595376 0
M  V30 4 C 0.126762 1.1489 0.421486 0
M  V30 5 C 1.18688 0.538049 -0.211472 0
M  V30 6 C 2.50234 1.25262 -0.384381 0
M  V30 7 N 2.46157 2.56751 0.177043 0
M  V30 8 C 1.04341 -0.74539 -0.694044 0
M  V30 9 C -0.190781 -1.36276 -0.509756 0
M  V30 10 C -1.24004 -0.755115 0.117988 0
M  V30 11 C -2.56228 -1.39737 0.323346 0
M  V30 12 C -0.357737 -2.75072 -1.02741 0
M  V30 13 C 2.14058 -1.46272 -1.38452 0
M  V30 14 H -1.9857 3.29168 1.02653 0
M  V30 15 H -1.88519 2.75378 2.67662 0
M  V30 16 H -3.01901 1.34917 0.552656 0
M  V30 17 H -2.60832 0.634602 2.12202 0
M  V30 18 H 0.307347 2.1698 0.781605 0
M  V30 19 H 2.63533 1.38279 -1.49942 0
M  V30 20 H 3.34115 0.633026 -0.0577805 0
M  V30 21 H 3.2952 3.0907 -0.102898 0
M  V30 22 H 2.36806 2.48813 1.20544 0
M  V30 23 H -2.84841 -2.06056 -0.5247 0
M  V30 24 H -3.34062 -0.669361 0.532267 0
M  V30 25 H -2.46792 -2.04836 1.21801 0
M  V30 26 H -0.499963 -2.71325 -2.11506 0
M  V30 27 H 0.567183 -3.36047 -0.849047 0
M  V30 28 H -1.20122 -3.26379 -0.568139 0
M  V30 29 H 2.81823 -0.779658 -1.93436 0
M  V30 30 H 2.72402 -2.05137 -0.670043 0
M  V30 31 H 1.72413 -2.15997 -2.16847 0
M  V30 END ATOM
M  V30 BEGIN BOND
M  V30 1 1 1 2
M  V30 2 1 2 3
M  V30 3 2 3 4
M  V30 4 1 4 5
M  V30 5 1 5 6
M  V30 6 1 6 7
M  V30 7 2 5 8
M  V30 8 1 8 9
M  V30 9 2 9 10
M  V30 10 1 10 11
M  V30 11 1 9 12
M  V30 12 1 8 13
M  V30 13 1 10 3
M  V30 14 1 1 14
M  V30 15 1 1 15
M  V30 16 1 2 16
M  V30 17 1 2 17
M  V30 18 1 4 18
M  V30 19 1 6 19
M  V30 20 1 6 20
M  V30 21 1 7 21
M  V30 22 1 7 22
M  V30 23 1 11 23
M  V30 24 1 11 24
M  V30 25 1 11 25
M  V30 26 1 12 26
M  V30 27 1 12 27
M  V30 28 1 12 28
M  V30 29 1 13 29
M  V30 30 1 13 30
M  V30 31 1 13 31
M  V30 END BOND
M  V30 END CTAB
M  END
