
     RDKit          3D

  0  0  0  0  0  0  0  0  0  0999 V3000
M  V30 BEGIN CTAB
M  V30 COUNTS 29 29 0 0 0
M  V30 BEGIN ATOM
M  V30 1 N 4.14952 1.23627 0.381752 0
M  V30 2 N 2.78257 1.0353 0.310385 0
M  V30 3 C 2.2554 -0.141537 0.152157 0
M  V30 4 N 0.862761 -0.28135 0.0871772 0
M  V30 5 C 0.246942 -1.52888 -0.343261 0
M  V30 6 C -1.2011 -1.58949 0.0526575 0
M  V30 7 N -1.90499 -0.419063 -0.220184 0
M  V30 8 C -1.19635 0.755848 -0.503209 0
M  V30 9 C -0.00260698 0.843881 0.457475 0
M  V30 10 C -1.97532 2.01275 -0.387323 0
M  V30 11 C -3.2939 -0.431093 -0.281433 0
M  V30 12 N 3.08316 -1.27525 0.0460581 0
M  V30 13 H 4.57912 1.96055 -0.224439 0
M  V30 14 H 4.7298 0.671364 1.03031 0
M  V30 15 H 0.3162 -1.62893 -1.46521 0
M  V30 16 H 0.774311 -2.3923 0.153997 0
M  V30 17 H -1.26306 -1.83269 1.14971 0
M  V30 18 H -1.65914 -2.4441 -0.516542 0
M  V30 19 H -0.738935 0.727969 -1.52463 0
M  V30 20 H 0.511696 1.8074 0.388238 0
M  V30 21 H -0.349522 0.624271 1.4849 0
M  V30 22 H -2.0692 2.33755 0.68031 0
M  V30 23 H -1.36608 2.83359 -0.869203 0
M  V30 24 H -2.93323 2.00714 -0.911708 0
M  V30 25 H -3.81313 0.469973 0.110513 0
M  V30 26 H -3.62641 -0.661126 -1.33032 0
M  V30 27 H -3.69732 -1.2846 0.331737 0
M  V30 28 H 3.38444 -1.60145 -0.896637 0
M  V30 29 H 3.41437 -1.812 0.873728 0
M  V30 END ATOM
M  V30 BEGIN BOND
M  V30 1 1 1 2
M  V30 2 2 2 3 CFG=2
M  V30 3 1 3 4
M  V30 4 1 4 5
M  V30 5 1 5 6
M  V30 6 1 6 7
M  V30 7 1 7 8
M  V30 8 1 8 9
M  V30 9 1 8 10
M  V30 10 1 7 11
M  V30 11 1 3 12
M  V30 12 1 9 4
M  V30 13 1 1 13
M  V30 14 1 1 14
M  V30 15 1 5 15
M  V30 16 1 5 16
M  V30 17 1 6 17
M  V30 18 1 6 18
M  V30 19 1 8 19
M  V30 20 1 9 20
M  V30 21 1 9 21
M  V30 22 1 10 22
M  V30 23 1 10 23
M  V30 24 1 10 24
M  V30 25 1 11 25
M  V30 26 1 11 26
M  V30 27 1 11 27
M  V30 28 1 12 28
M  V30 29 1 12 29
M  V30 END BOND
M  V30 END CTAB
M  END
