
     RDKit          3D

  0  0  0  0  0  0  0  0  0  0999 V3000
M  V30 BEGIN CTAB
M  V30 COUNTS 19 19 0 0 0
M  V30 BEGIN ATOM
M  V30 1 N -2.33959 1.46859 0.526181 0
M  V30 2 C -2.80016 0.14219 0.311957 0
M  V30 3 N -1.97767 -0.836841 0.152931 0
M  V30 4 N -0.630134 -0.579382 0.193537 0
M  V30 5 C 0.289923 -1.31795 -0.271401 0
M  V30 6 C 1.68606 -0.850795 -0.121346 0
M  V30 7 C 2.13362 0.297931 0.464999 0
M  V30 8 C 3.45267 0.51378 0.485258 0
M  V30 9 C 4.25539 -0.43754 -0.0857561 0
M  V30 10 S 3.13969 -1.60337 -0.632672 0
M  V30 11 N -4.18841 -0.104128 0.273192 0
M  V30 12 H -2.28828 1.80814 1.51252 0
M  V30 13 H -2.05832 2.09642 -0.257343 0
M  V30 14 H 0.0418905 -2.23169 -0.745665 0
M  V30 15 H 1.39453 1.00528 0.899928 0
M  V30 16 H 3.91665 1.42114 0.940357 0
M  V30 17 H 5.3598 -0.409168 -0.150875 0
M  V30 18 H -4.77943 0.430146 -0.3821 0
M  V30 19 H -4.60823 -0.812746 0.89525 0
M  V30 END ATOM
M  V30 BEGIN BOND
M  V30 1 1 1 2
M  V30 2 2 2 3
M  V30 3 1 3 4
M  V30 4 2 4 5
M  V30 5 1 5 6
M  V30 6 2 6 7
M  V30 7 1 7 8
M  V30 8 2 8 9
M  V30 9 1 9 10
M  V30 10 1 2 11
M  V30 11 1 10 6
M  V30 12 1 1 12
M  V30 13 1 1 13
M  V30 14 1 5 14
M  V30 15 1 7 15
M  V30 16 1 8 16
M  V30 17 1 9 17
M  V30 18 1 11 18
M  V30 19 1 11 19
M  V30 END BOND
M  V30 END CTAB
M  END
