
     RDKit          3D

  0  0  0  0  0  0  0  0  0  0999 V3000
M  V30 BEGIN CTAB
M  V30 COUNTS 52 51 0 0 0
M  V30 BEGIN ATOM
M  V30 1 N -4.94905 1.55857 2.58368 0
M  V30 2 C -5.82206 0.448902 2.26915 0
M  V30 3 C -5.4117 -0.166314 0.924656 0
M  V30 4 C -3.98656 -0.640064 1.08487 0
M  V30 5 N -3.5229 -1.23047 -0.135038 0
M  V30 6 C -2.14858 -1.69547 0.066136 0
M  V30 7 C -1.73484 -2.30529 -1.27754 0
M  V30 8 C -1.8164 -1.23205 -2.33019 0
M  V30 9 C -0.924237 -0.0595156 -2.06044 0
M  V30 10 C 0.49798 -0.496787 -2.00083 0
M  V30 11 C 1.48312 0.602323 -1.74437 0
M  V30 12 C 1.28631 1.33402 -0.444587 0
M  V30 13 C 2.37884 2.39705 -0.381072 0
M  V30 14 N 3.66096 1.77418 -0.425615 0
M  V30 15 C 3.92351 1.03181 0.764949 0
M  V30 16 C 5.30157 0.378824 0.666427 0
M  V30 17 C 5.52027 -0.385922 1.94867 0
M  V30 18 N 6.81182 -1.04806 1.95244 0
M  V30 19 H -4.44692 1.90218 1.71364 0
M  V30 20 H -5.52836 2.4025 2.86696 0
M  V30 21 H -6.8417 0.849253 2.1117 0
M  V30 22 H -5.82778 -0.335155 3.06034 0
M  V30 23 H -6.04522 -1.04517 0.706212 0
M  V30 24 H -5.50595 0.581133 0.120815 0
M  V30 25 H -3.31868 0.215742 1.31759 0
M  V30 26 H -3.96479 -1.4195 1.86637 0
M  V30 27 H -4.0757 -2.09384 -0.368049 0
M  V30 28 H -1.45151 -0.885113 0.305704 0
M  V30 29 H -2.08822 -2.45384 0.874867 0
M  V30 30 H -2.47391 -3.11894 -1.45818 0
M  V30 31 H -0.727454 -2.76128 -1.22316 0
M  V30 32 H -2.86252 -0.837927 -2.3484 0
M  V30 33 H -1.64962 -1.67504 -3.32778 0
M  V30 34 H -1.20973 0.505699 -1.15895 0
M  V30 35 H -0.993005 0.687919 -2.90652 0
M  V30 36 H 0.637908 -1.28245 -1.20099 0
M  V30 37 H 0.809303 -0.990781 -2.94291 0
M  V30 38 H 2.49214 0.117908 -1.68251 0
M  V30 39 H 1.44102 1.2965 -2.60573 0
M  V30 40 H 1.31107 0.649493 0.422571 0
M  V30 41 H 0.326545 1.87621 -0.396153 0
M  V30 42 H 2.22609 3.0914 0.462585 0
M  V30 43 H 2.23381 2.98784 -1.33489 0
M  V30 44 H 4.38783 2.49787 -0.61391 0
M  V30 45 H 3.91976 1.75721 1.62705 0
M  V30 46 H 3.20761 0.249639 0.99392 0
M  V30 47 H 5.25678 -0.314855 -0.206186 0
M  V30 48 H 6.10299 1.10062 0.479075 0
M  V30 49 H 4.681 -1.08553 2.11775 0
M  V30 50 H 5.45101 0.376006 2.77432 0
M  V30 51 H 7.17826 -1.24034 1.00295 0
M  V30 52 H 6.79993 -1.87112 2.58397 0
M  V30 END ATOM
M  V30 BEGIN BOND
M  V30 1 1 1 2
M  V30 2 1 2 3
M  V30 3 1 3 4
M  V30 4 1 4 5
M  V30 5 1 5 6
M  V30 6 1 6 7
M  V30 7 1 7 8
M  V30 8 1 8 9
M  V30 9 1 9 10
M  V30 10 1 10 11
M  V30 11 1 11 12
M  V30 12 1 12 13
M  V30 13 1 13 14
M  V30 14 1 14 15
M  V30 15 1 15 16
M  V30 16 1 16 17
M  V30 17 1 17 18
M  V30 18 1 1 19
M  V30 19 1 1 20
M  V30 20 1 2 21
M  V30 21 1 2 22
M  V30 22 1 3 23
M  V30 23 1 3 24
M  V30 24 1 4 25
M  V30 25 1 4 26
M  V30 26 1 5 27
M  V30 27 1 6 28
M  V30 28 1 6 29
M  V30 29 1 7 30
M  V30 30 1 7 31
M  V30 31 1 8 32
M  V30 32 1 8 33
M  V30 33 1 9 34
M  V30 34 1 9 35
M  V30 35 1 10 36
M  V30 36 1 10 37
M  V30 37 1 11 38
M  V30 38 1 11 39
M  V30 39 1 12 40
M  V30 40 1 12 41
M  V30 41 1 13 42
M  V30 42 1 13 43
M  V30 43 1 14 44
M  V30 44 1 15 45
M  V30 45 1 15 46
M  V30 46 1 16 47
M  V30 47 1 16 48
M  V30 48 1 17 49
M  V30 49 1 17 50
M  V30 50 1 18 51
M  V30 51 1 18 52
M  V30 END BOND
M  V30 END CTAB
M  END
