
     RDKit          3D

  0  0  0  0  0  0  0  0  0  0999 V3000
M  V30 BEGIN CTAB
M  V30 COUNTS 50 53 0 0 0
M  V30 BEGIN ATOM
M  V30 1 N 0.687561 -1.93317 -2.60085 0
M  V30 2 C 0.971676 -1.86343 -1.21111 0 CFG=2
M  V30 3 C -0.281103 -2.08993 -0.440499 0 CFG=1
M  V30 4 N -0.149714 -3.20911 0.504606 0
M  V30 5 C -0.776649 -0.871873 0.292634 0 CFG=2
M  V30 6 O -2.08842 -0.826167 0.561498 0
M  V30 7 C -2.8779 0.0578806 -0.109922 0
M  V30 8 O -2.32667 1.22981 -0.523473 0
M  V30 9 C -1.03968 1.49634 -0.0632702 0
M  V30 10 C -0.241638 0.297479 -0.507417 0 CFG=1
M  V30 11 O 1.09246 0.376821 -0.281415 0
M  V30 12 C 1.76826 -0.667642 -0.832217 0 CFG=2
M  V30 13 O 2.42182 -0.187081 -1.97471 0
M  V30 14 C 3.80588 -0.217123 -1.84669 0
M  V30 15 C 4.30947 0.600273 -0.724315 0
M  V30 16 C 5.27514 0.0592516 0.0974689 0
M  V30 17 C 5.7684 0.787903 1.15116 0
M  V30 18 C 5.28922 2.0564 1.37424 0
M  V30 19 C 4.32506 2.60522 0.559185 0
M  V30 20 C 3.82471 1.88595 -0.497249 0
M  V30 21 C -4.1366 0.385716 0.619639 0
M  V30 22 C -5.36271 0.428888 -0.0142577 0
M  V30 23 C -6.52968 0.731188 0.656225 0
M  V30 24 C -6.52851 1.00789 2.00633 0
M  V30 25 C -5.31096 0.968168 2.65117 0
M  V30 26 C -4.14125 0.66441 1.97541 0
M  V30 27 H 0.49948 -2.81495 -2.94982 0
M  V30 28 H 0.811673 -1.18553 -3.17417 0
M  V30 29 H 1.63093 -2.76631 -1.02781 0
M  V30 30 H -1.12694 -2.40558 -1.11952 0
M  V30 31 H -1.06797 -3.32115 0.968038 0
M  V30 32 H 0.0185356 -4.06616 -0.0670171 0
M  V30 33 H -0.210263 -0.853716 1.27171 0
M  V30 34 H -3.22298 -0.479354 -1.04709 0
M  V30 35 H -0.687906 2.38772 -0.637396 0
M  V30 36 H -0.999318 1.63835 1.02281 0
M  V30 37 H -0.452232 0.164632 -1.59402 0
M  V30 38 H 2.59025 -0.949872 -0.109523 0
M  V30 39 H 4.20467 0.210293 -2.80009 0
M  V30 40 H 4.0927 -1.26243 -1.70447 0
M  V30 41 H 5.65174 -0.957212 -0.0898897 0
M  V30 42 H 6.53136 0.328992 1.78071 0
M  V30 43 H 5.71301 2.5943 2.22389 0
M  V30 44 H 3.96361 3.62202 0.765648 0
M  V30 45 H 3.06673 2.31314 -1.14269 0
M  V30 46 H -5.35513 0.207672 -1.08931 0
M  V30 47 H -7.48567 0.759682 0.136757 0
M  V30 48 H -7.45493 1.24597 2.5301 0
M  V30 49 H -5.2859 1.18344 3.71857 0
M  V30 50 H -3.17366 0.632008 2.48331 0
M  V30 END ATOM
M  V30 BEGIN BOND
M  V30 1 1 1 2
M  V30 2 1 2 3
M  V30 3 1 3 4
M  V30 4 1 3 5
M  V30 5 1 5 6
M  V30 6 1 6 7
M  V30 7 1 7 8
M  V30 8 1 8 9
M  V30 9 1 9 10
M  V30 10 1 10 11
M  V30 11 1 11 12
M  V30 12 1 12 13
M  V30 13 1 13 14
M  V30 14 1 14 15
M  V30 15 2 15 16
M  V30 16 1 16 17
M  V30 17 2 17 18
M  V30 18 1 18 19
M  V30 19 2 19 20
M  V30 20 1 7 21
M  V30 21 2 21 22
M  V30 22 1 22 23
M  V30 23 2 23 24
M  V30 24 1 24 25
M  V30 25 2 25 26
M  V30 26 1 12 2
M  V30 27 1 20 15
M  V30 28 1 26 21
M  V30 29 1 10 5
M  V30 30 1 1 27
M  V30 31 1 1 28
M  V30 32 1 2 29 CFG=1
M  V30 33 1 3 30 CFG=3
M  V30 34 1 4 31
M  V30 35 1 4 32
M  V30 36 1 5 33 CFG=1
M  V30 37 1 7 34
M  V30 38 1 9 35
M  V30 39 1 9 36
M  V30 40 1 10 37 CFG=3
M  V30 41 1 12 38 CFG=1
M  V30 42 1 14 39
M  V30 43 1 14 40
M  V30 44 1 16 41
M  V30 45 1 17 42
M  V30 46 1 18 43
M  V30 47 1 19 44
M  V30 48 1 20 45
M  V30 49 1 22 46
M  V30 50 1 23 47
M  V30 51 1 24 48
M  V30 52 1 25 49
M  V30 53 1 26 50
M  V30 END BOND
M  V30 END CTAB
M  END
