
     RDKit          3D

  0  0  0  0  0  0  0  0  0  0999 V3000
M  V30 BEGIN CTAB
M  V30 COUNTS 38 39 0 0 0
M  V30 BEGIN ATOM
M  V30 1 C 7.17136 1.61725 -2.25701 0
M  V30 2 O 6.41535 0.895957 -1.30934 0
M  V30 3 C 5.03206 0.900189 -1.28783 0
M  V30 4 O 4.39843 1.55454 -2.12179 0
M  V30 5 C 4.31129 0.13145 -0.279486 0
M  V30 6 C 5.02505 -0.611385 0.667566 0
M  V30 7 C 4.35753 -1.33893 1.62165 0
M  V30 8 C 2.95894 -1.35648 1.67151 0
M  V30 9 C 2.23528 -0.639217 0.757711 0
M  V30 10 C 2.94212 0.100161 -0.212437 0
M  V30 11 N 0.844881 -0.609933 0.746128 0
M  V30 12 C -0.0916373 -1.23787 1.56812 0
M  V30 13 O 0.197095 -1.98375 2.51822 0
M  V30 14 C -1.57986 -1.0538 1.36025 0
M  V30 15 S -1.86414 0.057306 -0.0580729 0
M  V30 16 C -3.6602 0.205174 -0.213652 0
M  V30 17 N -4.32886 1.16724 0.443526 0
M  V30 18 C -5.67992 1.27038 0.320114 0
M  V30 19 N -6.36476 2.29085 1.02095 0
M  V30 20 C -6.36535 0.383815 -0.482718 0
M  V30 21 C -5.6857 -0.604721 -1.1591 0
M  V30 22 N -4.34669 -0.643016 -0.986396 0
M  V30 23 N -6.37571 -1.52252 -1.98719 0
M  V30 24 H 7.93056 0.924275 -2.67365 0
M  V30 25 H 7.69961 2.45432 -1.72293 0
M  V30 26 H 6.53939 2.07807 -3.05046 0
M  V30 27 H 6.10667 -0.579616 0.605447 0
M  V30 28 H 4.87756 -1.91789 2.3605 0
M  V30 29 H 2.48219 -1.93751 2.43266 0
M  V30 30 H 2.39559 0.675903 -0.946606 0
M  V30 31 H 0.394184 0.00186733 -0.02911 0
M  V30 32 H -2.00066 -2.04136 1.06921 0
M  V30 33 H -2.06635 -0.677992 2.26979 0
M  V30 34 H -6.40485 2.2459 2.05236 0
M  V30 35 H -6.80897 3.05695 0.489813 0
M  V30 36 H -7.43318 0.468398 -0.577832 0
M  V30 37 H -5.86129 -2.06702 -2.70346 0
M  V30 38 H -7.39699 -1.65698 -1.88433 0
M  V30 END ATOM
M  V30 BEGIN BOND
M  V30 1 1 1 2
M  V30 2 1 2 3
M  V30 3 2 3 4
M  V30 4 1 3 5
M  V30 5 2 5 6
M  V30 6 1 6 7
M  V30 7 2 7 8
M  V30 8 1 8 9
M  V30 9 2 9 10
M  V30 10 1 9 11
M  V30 11 1 11 12
M  V30 12 2 12 13
M  V30 13 1 12 14
M  V30 14 1 14 15
M  V30 15 1 15 16
M  V30 16 2 16 17
M  V30 17 1 17 18
M  V30 18 1 18 19
M  V30 19 2 18 20
M  V30 20 1 20 21
M  V30 21 2 21 22
M  V30 22 1 21 23
M  V30 23 1 10 5
M  V30 24 1 22 16
M  V30 25 1 1 24
M  V30 26 1 1 25
M  V30 27 1 1 26
M  V30 28 1 6 27
M  V30 29 1 7 28
M  V30 30 1 8 29
M  V30 31 1 10 30
M  V30 32 1 11 31
M  V30 33 1 14 32
M  V30 34 1 14 33
M  V30 35 1 19 34
M  V30 36 1 19 35
M  V30 37 1 20 36
M  V30 38 1 23 37
M  V30 39 1 23 38
M  V30 END BOND
M  V30 END CTAB
M  END
