
     RDKit          3D

  0  0  0  0  0  0  0  0  0  0999 V3000
M  V30 BEGIN CTAB
M  V30 COUNTS 21 21 0 0 0
M  V30 BEGIN ATOM
M  V30 1 C -1.58192 -1.4167 0.508543 0
M  V30 2 C -1.10866 -0.182196 -0.152445 0
M  V30 3 C 0.37086 -0.174487 -0.406494 0
M  V30 4 N 1.37547 -0.0695171 0.455512 0
M  V30 5 C 2.54714 -0.0982102 -0.192487 0
M  V30 6 N 2.2431 -0.229034 -1.49965 0
M  V30 7 O 0.953252 -0.270267 -1.58993 0
M  V30 8 N 3.88944 -0.00963451 0.281333 0
M  V30 9 C -1.46773 1.03442 0.706132 0
M  V30 10 O -1.00764 2.2124 0.107681 0
M  V30 11 N -1.79901 0.0561774 -1.43393 0
M  V30 12 H -0.885141 -2.28497 0.345054 0
M  V30 13 H -1.76148 -1.28637 1.61257 0
M  V30 14 H -2.62952 -1.65765 0.132809 0
M  V30 15 H 4.38456 -0.848123 0.618063 0
M  V30 16 H 4.3473 0.914294 0.282159 0
M  V30 17 H -1.00734 0.933034 1.68479 0
M  V30 18 H -2.57076 1.00821 0.771656 0
M  V30 19 H -1.4828 2.48167 -0.694151 0
M  V30 20 H -1.65561 -0.858313 -1.96601 0
M  V30 21 H -1.1535 0.745267 -1.9152 0
M  V30 END ATOM
M  V30 BEGIN BOND
M  V30 1 1 1 2
M  V30 2 1 2 3
M  V30 3 2 3 4
M  V30 4 1 4 5
M  V30 5 2 5 6
M  V30 6 1 6 7
M  V30 7 1 5 8
M  V30 8 1 2 9
M  V30 9 1 9 10
M  V30 10 1 2 11
M  V30 11 1 7 3
M  V30 12 1 1 12
M  V30 13 1 1 13
M  V30 14 1 1 14
M  V30 15 1 8 15
M  V30 16 1 8 16
M  V30 17 1 9 17
M  V30 18 1 9 18
M  V30 19 1 10 19
M  V30 20 1 11 20
M  V30 21 1 11 21
M  V30 END BOND
M  V30 END CTAB
M  END
