
     RDKit          3D

  0  0  0  0  0  0  0  0  0  0999 V3000
M  V30 BEGIN CTAB
M  V30 COUNTS 92 95 0 0 0
M  V30 BEGIN ATOM
M  V30 1 C 3.67911 -1.5664 -0.28659 0 CFG=1
M  V30 2 O 3.89961 -1.85922 -1.61123 0
M  V30 3 C 5.10847 -2.59076 -1.56542 0
M  V30 4 C 5.77381 -2.70409 -2.90552 0
M  V30 5 C 4.77213 -3.90731 -0.950924 0
M  V30 6 O 5.92722 -1.8061 -0.73787 0
M  V30 7 C 5.0571 -1.38211 0.26974 0 CFG=1
M  V30 8 C 5.09059 0.104797 0.517927 0 CFG=1
M  V30 9 O 3.77951 0.286543 1.04707 0
M  V30 10 C 3.0828 -0.137779 -0.111063 0 CFG=2
M  V30 11 C 1.65015 -0.345859 0.0345509 0
M  V30 12 N 0.773463 0.671856 0.486236 0
M  V30 13 C 0.582339 1.79891 -0.34534 0
M  V30 14 C 1.69979 2.76775 -0.485011 0
M  V30 15 N 2.09347 3.36702 0.780951 0
M  V30 16 C -0.506597 -0.0536225 0.703806 0
M  V30 17 C -1.59591 0.756556 1.25316 0
M  V30 18 C -2.84513 -0.125164 1.40968 0
M  V30 19 C -3.27664 -0.665447 0.0925394 0 CFG=2
M  V30 20 N -3.5931 0.328025 -0.868132 0
M  V30 21 C -4.8443 0.963752 -0.95867 0
M  V30 22 O -5.81216 0.724402 -0.19615 0
M  V30 23 O -5.02793 1.92267 -1.95747 0
M  V30 24 C -6.2417 2.59712 -2.12059 0
M  V30 25 C -6.5659 3.34786 -0.856946 0
M  V30 26 C -7.34689 1.58591 -2.41501 0
M  V30 27 C -6.133 3.59336 -3.27752 0
M  V30 28 C -4.38792 -1.65289 0.270624 0
M  V30 29 O -5.19809 -1.81609 -0.665881 0
M  V30 30 O -4.55528 -2.38897 1.42815 0
M  V30 31 C -5.61399 -3.30784 1.5594 0
M  V30 32 C -5.58718 -4.41905 0.542425 0
M  V30 33 C -6.96035 -2.59126 1.37818 0
M  V30 34 C -5.59199 -3.94152 2.94851 0
M  V30 35 N 6.12522 0.56843 1.36152 0
M  V30 36 C 6.48176 0.127556 2.56949 0
M  V30 37 N 7.53946 0.848331 3.0423 0
M  V30 38 C 7.87499 1.76514 2.13715 0
M  V30 39 C 6.98331 1.59158 1.07396 0
M  V30 40 N 7.1152 2.40049 0.0316147 0
M  V30 41 C 8.05543 3.36621 -0.0483994 0
M  V30 42 N 8.91038 3.51497 0.997184 0
M  V30 43 C 8.85137 2.74026 2.0972 0
M  V30 44 N 9.77092 2.93688 3.16624 0
M  V30 45 H 3.10107 -2.30415 0.246417 0
M  V30 46 H 6.88282 -2.71297 -2.81349 0
M  V30 47 H 5.50485 -1.80264 -3.49199 0
M  V30 48 H 5.46757 -3.63571 -3.42714 0
M  V30 49 H 3.68866 -4.15855 -1.06042 0
M  V30 50 H 5.33098 -4.70602 -1.47753 0
M  V30 51 H 4.97925 -3.95549 0.139754 0
M  V30 52 H 5.18553 -1.96138 1.20239 0
M  V30 53 H 5.04193 0.624226 -0.465009 0
M  V30 54 H 3.47471 0.385334 -0.976436 0
M  V30 55 H 1.25719 -0.669454 -0.973785 0
M  V30 56 H 1.48704 -1.26215 0.664198 0
M  V30 57 H 0.296659 1.50952 -1.40964 0
M  V30 58 H -0.317402 2.41952 -0.0432165 0
M  V30 59 H 2.57886 2.46962 -1.03213 0
M  V30 60 H 1.2858 3.65393 -1.07653 0
M  V30 61 H 1.96445 2.72004 1.59041 0
M  V30 62 H 1.60759 4.2939 0.955397 0
M  V30 63 H -0.226044 -0.819804 1.48463 0
M  V30 64 H -0.685989 -0.616125 -0.208557 0
M  V30 65 H -1.36483 1.10014 2.30352 0
M  V30 66 H -1.94376 1.62593 0.69324 0
M  V30 67 H -3.65575 0.490054 1.81701 0
M  V30 68 H -2.60324 -0.993298 2.06806 0
M  V30 69 H -2.49194 -1.32812 -0.409396 0
M  V30 70 H -2.8216 0.61734 -1.56882 0
M  V30 71 H -7.1375 4.27984 -1.07841 0
M  V30 72 H -7.27732 2.71528 -0.262676 0
M  V30 73 H -5.64783 3.53145 -0.275002 0
M  V30 74 H -6.86403 0.719961 -2.91022 0
M  V30 75 H -8.04732 2.05235 -3.12646 0
M  V30 76 H -7.8585 1.30239 -1.48943 0
M  V30 77 H -5.21752 4.20527 -3.05991 0
M  V30 78 H -5.92244 3.01156 -4.18251 0
M  V30 79 H -7.03855 4.20581 -3.29335 0
M  V30 80 H -4.58724 -4.65035 0.161357 0
M  V30 81 H -5.97029 -5.34015 1.03441 0
M  V30 82 H -6.3006 -4.19893 -0.308092 0
M  V30 83 H -7.66813 -3.05262 2.09351 0
M  V30 84 H -7.32144 -2.70754 0.343524 0
M  V30 85 H -6.83326 -1.52067 1.67336 0
M  V30 86 H -5.64229 -5.05799 2.87983 0
M  V30 87 H -6.4621 -3.56917 3.53636 0
M  V30 88 H -4.66706 -3.6283 3.44961 0
M  V30 89 H 6.03701 -0.683579 3.14957 0
M  V30 90 H 8.14224 4.01587 -0.917988 0
M  V30 91 H 10.7101 2.46399 3.05638 0
M  V30 92 H 9.55609 3.50694 4.01582 0
M  V30 END ATOM
M  V30 BEGIN BOND
M  V30 1 1 1 2
M  V30 2 1 2 3
M  V30 3 1 3 4
M  V30 4 1 3 5
M  V30 5 1 3 6
M  V30 6 1 6 7
M  V30 7 1 7 8
M  V30 8 1 8 9
M  V30 9 1 9 10
M  V30 10 1 10 11
M  V30 11 1 11 12
M  V30 12 1 12 13
M  V30 13 1 13 14
M  V30 14 1 14 15
M  V30 15 1 12 16
M  V30 16 1 16 17
M  V30 17 1 17 18
M  V30 18 1 18 19
M  V30 19 1 19 20
M  V30 20 1 20 21
M  V30 21 2 21 22
M  V30 22 1 21 23
M  V30 23 1 23 24
M  V30 24 1 24 25
M  V30 25 1 24 26
M  V30 26 1 24 27
M  V30 27 1 19 28
M  V30 28 2 28 29
M  V30 29 1 28 30
M  V30 30 1 30 31
M  V30 31 1 31 32
M  V30 32 1 31 33
M  V30 33 1 31 34
M  V30 34 1 8 35
M  V30 35 1 35 36
M  V30 36 2 36 37
M  V30 37 1 37 38
M  V30 38 2 38 39
M  V30 39 1 39 40
M  V30 40 2 40 41
M  V30 41 1 41 42
M  V30 42 2 42 43
M  V30 43 1 43 44
M  V30 44 1 7 1
M  V30 45 1 39 35
M  V30 46 1 10 1
M  V30 47 1 43 38
M  V30 48 1 1 45 CFG=1
M  V30 49 1 4 46
M  V30 50 1 4 47
M  V30 51 1 4 48
M  V30 52 1 5 49
M  V30 53 1 5 50
M  V30 54 1 5 51
M  V30 55 1 7 52 CFG=1
M  V30 56 1 8 53 CFG=3
M  V30 57 1 10 54 CFG=3
M  V30 58 1 11 55
M  V30 59 1 11 56
M  V30 60 1 13 57
M  V30 61 1 13 58
M  V30 62 1 14 59
M  V30 63 1 14 60
M  V30 64 1 15 61
M  V30 65 1 15 62
M  V30 66 1 16 63
M  V30 67 1 16 64
M  V30 68 1 17 65
M  V30 69 1 17 66
M  V30 70 1 18 67
M  V30 71 1 18 68
M  V30 72 1 19 69 CFG=3
M  V30 73 1 20 70
M  V30 74 1 25 71
M  V30 75 1 25 72
M  V30 76 1 25 73
M  V30 77 1 26 74
M  V30 78 1 26 75
M  V30 79 1 26 76
M  V30 80 1 27 77
M  V30 81 1 27 78
M  V30 82 1 27 79
M  V30 83 1 32 80
M  V30 84 1 32 81
M  V30 85 1 32 82
M  V30 86 1 33 83
M  V30 87 1 33 84
M  V30 88 1 33 85
M  V30 89 1 34 86
M  V30 90 1 34 87
M  V30 91 1 34 88
M  V30 92 1 36 89
M  V30 93 1 41 90
M  V30 94 1 44 91
M  V30 95 1 44 92
M  V30 END BOND
M  V30 END CTAB
M  END
