
     RDKit          3D

  0  0  0  0  0  0  0  0  0  0999 V3000
M  V30 BEGIN CTAB
M  V30 COUNTS 32 33 0 0 0
M  V30 BEGIN ATOM
M  V30 1 N -4.88192 2.13748 -0.940847 0
M  V30 2 N -3.49943 2.32227 -1.00165 0
M  V30 3 C -2.6015 1.31009 -0.528004 0
M  V30 4 N -1.29148 1.52344 -0.513708 0
M  V30 5 C -0.410624 0.557224 -0.0622051 0
M  V30 6 N -0.96802 -0.548411 0.336925 0
M  V30 7 C -2.25576 -0.803732 0.341349 0
M  V30 8 N -3.11738 0.136707 -0.100097 0
M  V30 9 N -2.66214 -2.08063 0.830881 0
M  V30 10 N -3.6647 -2.752 0.128917 0
M  V30 11 N 0.968779 0.805812 -0.0799488 0
M  V30 12 C 1.99524 -0.0491055 0.329799 0
M  V30 13 C 1.84932 -1.30767 0.883703 0
M  V30 14 C 2.94125 -2.10291 1.25793 0
M  V30 15 C 4.19123 -1.60318 1.06104 0
M  V30 16 C 4.38431 -0.340471 0.504272 0
M  V30 17 C 3.31024 0.414784 0.149355 0
M  V30 18 C 3.52072 1.77051 -0.444995 0
M  V30 19 H -5.37196 2.22714 -1.85239 0
M  V30 20 H -5.31353 2.90561 -0.338321 0
M  V30 21 H -3.14815 3.20799 -1.40079 0
M  V30 22 H -2.23551 -2.52108 1.69026 0
M  V30 23 H -3.32302 -3.67958 -0.230183 0
M  V30 24 H -4.56318 -2.79021 0.619344 0
M  V30 25 H 1.23854 1.7637 -0.458924 0
M  V30 26 H 0.878227 -1.7028 1.04149 0
M  V30 27 H 2.74652 -3.06164 1.68379 0
M  V30 28 H 5.05503 -2.18512 1.34359 0
M  V30 29 H 5.38849 0.032961 0.363353 0
M  V30 30 H 2.99739 2.5768 0.13 0
M  V30 31 H 4.6287 2.00084 -0.439143 0
M  V30 32 H 3.21432 1.83517 -1.49931 0
M  V30 END ATOM
M  V30 BEGIN BOND
M  V30 1 1 1 2
M  V30 2 1 2 3
M  V30 3 2 3 4
M  V30 4 1 4 5
M  V30 5 2 5 6
M  V30 6 1 6 7
M  V30 7 2 7 8
M  V30 8 1 7 9
M  V30 9 1 9 10
M  V30 10 1 5 11
M  V30 11 1 11 12
M  V30 12 2 12 13
M  V30 13 1 13 14
M  V30 14 2 14 15
M  V30 15 1 15 16
M  V30 16 2 16 17
M  V30 17 1 17 18
M  V30 18 1 8 3
M  V30 19 1 17 12
M  V30 20 1 1 19
M  V30 21 1 1 20
M  V30 22 1 2 21
M  V30 23 1 9 22
M  V30 24 1 10 23
M  V30 25 1 10 24
M  V30 26 1 11 25
M  V30 27 1 13 26
M  V30 28 1 14 27
M  V30 29 1 15 28
M  V30 30 1 16 29
M  V30 31 1 18 30
M  V30 32 1 18 31
M  V30 33 1 18 32
M  V30 END BOND
M  V30 END CTAB
M  END
