
     RDKit          3D

  0  0  0  0  0  0  0  0  0  0999 V3000
M  V30 BEGIN CTAB
M  V30 COUNTS 31 32 0 0 0
M  V30 BEGIN ATOM
M  V30 1 N 3.53291 -0.348482 -2.54072 0
M  V30 2 C 3.13915 0.0742878 -1.2042 0
M  V30 3 C 4.04949 0.765131 -0.446216 0
M  V30 4 C 3.63842 1.14586 0.822353 0
M  V30 5 N 4.55428 1.82457 1.65215 0
M  V30 6 N 2.40345 0.829192 1.24684 0
M  V30 7 C 1.50089 0.134421 0.486604 0
M  V30 8 N 1.8916 -0.232429 -0.736577 0
M  V30 9 S -0.00632596 -0.317757 1.25395 0
M  V30 10 C -1.12411 -1.28558 0.169033 0
M  V30 11 C -2.31212 -0.446001 -0.054953 0
M  V30 12 C -3.19394 -0.324834 1.04273 0
M  V30 13 C -4.25859 0.52025 0.923781 0
M  V30 14 C -4.5283 1.25832 -0.195336 0
M  V30 15 C -3.66573 1.13428 -1.26178 0
M  V30 16 C -2.55979 0.285294 -1.19431 0
M  V30 17 Cl -1.55683 0.160142 -2.60689 0
M  V30 18 C -1.45765 -2.50963 1.06416 0
M  V30 19 H 3.39557 0.266669 -3.3543 0
M  V30 20 H 3.95339 -1.29466 -2.66369 0
M  V30 21 H 5.04528 1.02793 -0.741388 0
M  V30 22 H 4.92686 2.76036 1.5378 0
M  V30 23 H 4.87348 1.26539 2.50688 0
M  V30 24 H -0.633939 -1.61759 -0.745045 0
M  V30 25 H -3.01204 -0.891127 1.94564 0
M  V30 26 H -4.94025 0.627508 1.77793 0
M  V30 27 H -5.37541 1.93453 -0.297507 0
M  V30 28 H -3.88976 1.71954 -2.15901 0
M  V30 29 H -1.26904 -2.29149 2.11443 0
M  V30 30 H -2.44195 -2.88682 0.874508 0
M  V30 31 H -0.678981 -3.28729 0.783142 0
M  V30 END ATOM
M  V30 BEGIN BOND
M  V30 1 1 1 2
M  V30 2 2 2 3
M  V30 3 1 3 4
M  V30 4 1 4 5
M  V30 5 2 4 6
M  V30 6 1 6 7
M  V30 7 2 7 8
M  V30 8 1 7 9
M  V30 9 1 9 10
M  V30 10 1 10 11
M  V30 11 2 11 12
M  V30 12 1 12 13
M  V30 13 2 13 14
M  V30 14 1 14 15
M  V30 15 2 15 16
M  V30 16 1 16 17
M  V30 17 1 10 18
M  V30 18 1 8 2
M  V30 19 1 16 11
M  V30 20 1 1 19
M  V30 21 1 1 20
M  V30 22 1 3 21
M  V30 23 1 5 22
M  V30 24 1 5 23
M  V30 25 1 10 24
M  V30 26 1 12 25
M  V30 27 1 13 26
M  V30 28 1 14 27
M  V30 29 1 15 28
M  V30 30 1 18 29
M  V30 31 1 18 30
M  V30 32 1 18 31
M  V30 END BOND
M  V30 END CTAB
M  END
