
     RDKit          3D

  0  0  0  0  0  0  0  0  0  0999 V3000
M  V30 BEGIN CTAB
M  V30 COUNTS 29 30 0 0 0
M  V30 BEGIN ATOM
M  V30 1 C -4.45507 -0.431126 0.0567144 0
M  V30 2 C -3.26731 0.162796 -0.665874 0
M  V30 3 N -2.32184 0.76611 0.225583 0
M  V30 4 C -2.30576 2.02924 0.642022 0
M  V30 5 N -1.25689 2.18842 1.4685 0
M  V30 6 N -0.61551 1.03684 1.57391 0
M  V30 7 C -1.26709 0.158459 0.810811 0
M  V30 8 S -0.859866 -1.55984 0.561282 0
M  V30 9 C 0.264464 -1.64903 -0.882033 0
M  V30 10 C 1.50934 -0.970235 -0.471594 0
M  V30 11 N 1.64939 0.333581 -0.685564 0
M  V30 12 C 2.78635 0.950971 -0.307496 0
M  V30 13 N 2.91796 2.33922 -0.543507 0
M  V30 14 N 3.76026 0.224274 0.282696 0
M  V30 15 C 3.61502 -1.10857 0.500484 0
M  V30 16 N 2.47226 -1.67497 0.109034 0
M  V30 17 N 4.66678 -1.82406 1.12457 0
M  V30 18 H -4.06727 -1.17763 0.790721 0
M  V30 19 H -5.04019 0.30044 0.607687 0
M  V30 20 H -5.1178 -0.901252 -0.698172 0
M  V30 21 H -2.74866 -0.636367 -1.23507 0
M  V30 22 H -3.58114 0.92832 -1.40645 0
M  V30 23 H -2.98523 2.8386 0.39874 0
M  V30 24 H 0.450701 -2.71277 -1.1577 0
M  V30 25 H -0.200236 -1.15379 -1.76591 0
M  V30 26 H 2.36447 3.00141 0.0263695 0
M  V30 27 H 3.55506 2.69486 -1.27241 0
M  V30 28 H 4.73781 -1.79518 2.16068 0
M  V30 29 H 5.34 -2.35872 0.539485 0
M  V30 END ATOM
M  V30 BEGIN BOND
M  V30 1 1 1 2
M  V30 2 1 2 3
M  V30 3 1 3 4
M  V30 4 2 4 5
M  V30 5 1 5 6
M  V30 6 2 6 7
M  V30 7 1 7 8
M  V30 8 1 8 9
M  V30 9 1 9 10
M  V30 10 2 10 11
M  V30 11 1 11 12
M  V30 12 1 12 13
M  V30 13 2 12 14
M  V30 14 1 14 15
M  V30 15 2 15 16
M  V30 16 1 15 17
M  V30 17 1 7 3
M  V30 18 1 16 10
M  V30 19 1 1 18
M  V30 20 1 1 19
M  V30 21 1 1 20
M  V30 22 1 2 21
M  V30 23 1 2 22
M  V30 24 1 4 23
M  V30 25 1 9 24
M  V30 26 1 9 25
M  V30 27 1 13 26
M  V30 28 1 13 27
M  V30 29 1 17 28
M  V30 30 1 17 29
M  V30 END BOND
M  V30 END CTAB
M  END
