
     RDKit          3D

  0  0  0  0  0  0  0  0  0  0999 V3000
M  V30 BEGIN CTAB
M  V30 COUNTS 52 55 0 0 0
M  V30 BEGIN ATOM
M  V30 1 N -5.06131 -1.24932 -2.68569 0
M  V30 2 C -6.04069 -0.842443 -1.72418 0 CFG=1
M  V30 3 C -5.6848 -1.25639 -0.33048 0
M  V30 4 C -4.3939 -0.694655 0.146108 0
M  V30 5 C -4.31961 0.505811 0.80838 0
M  V30 6 C -3.11386 1.00469 1.23737 0
M  V30 7 C -1.91193 0.32807 1.02696 0
M  V30 8 C -2.00863 -0.866756 0.364897 0
M  V30 9 C -3.2266 -1.38788 -0.0778195 0
M  V30 10 C -0.651054 0.899489 1.50258 0
M  V30 11 N -0.714106 2.10184 2.14775 0
M  V30 12 C 0.377551 2.71639 2.62467 0
M  V30 13 N 0.289975 3.97001 3.29448 0
M  V30 14 N 1.54606 2.09832 2.44177 0
M  V30 15 C 1.71475 0.9169 1.82181 0
M  V30 16 O 2.9484 0.353164 1.67697 0
M  V30 17 C 3.32461 -0.830972 1.08268 0
M  V30 18 C 4.25857 -0.633929 -0.0588981 0
M  V30 19 C 5.32811 0.230171 0.0353901 0
M  V30 20 C 6.20451 0.415322 -1.03501 0
M  V30 21 C 6.05581 -0.242381 -2.22792 0
M  V30 22 C 4.96188 -1.12357 -2.31863 0
M  V30 23 C 4.10889 -1.29917 -1.26671 0
M  V30 24 N 6.92336 -0.0020172 -3.16225 0
M  V30 25 C 7.90943 0.85197 -2.94954 0
M  V30 26 S 7.60557 1.3508 -1.34271 0
M  V30 27 C 4.01928 -1.79357 2.02647 0
M  V30 28 F 5.16684 -1.27682 2.56445 0
M  V30 29 F 4.38725 -2.90276 1.2641 0
M  V30 30 F 3.13598 -2.25794 2.99508 0
M  V30 31 C 0.570442 0.299075 1.33622 0
M  V30 32 C -6.41489 0.587324 -1.82851 0
M  V30 33 O -7.37973 1.08917 -0.973219 0
M  V30 34 O -5.83826 1.31229 -2.70216 0
M  V30 35 H -5.39967 -1.90831 -3.38608 0
M  V30 36 H -4.48047 -0.523384 -3.07185 0
M  V30 37 H -6.98258 -1.41304 -1.97921 0
M  V30 38 H -5.6211 -2.363 -0.292274 0
M  V30 39 H -6.52829 -0.968698 0.344766 0
M  V30 40 H -5.25711 1.04884 0.982485 0
M  V30 41 H -3.07766 1.94626 1.75387 0
M  V30 42 H -1.08635 -1.43945 0.174392 0
M  V30 43 H -3.22838 -2.35348 -0.602868 0
M  V30 44 H 0.8095 4.17213 4.18519 0
M  V30 45 H -0.299438 4.76063 2.93341 0
M  V30 46 H 2.4574 -1.38155 0.669908 0
M  V30 47 H 5.51726 0.784708 0.933738 0
M  V30 48 H 4.77318 -1.69048 -3.24487 0
M  V30 49 H 3.26735 -1.99447 -1.3747 0
M  V30 50 H 8.71299 1.15068 -3.64796 0
M  V30 51 H 0.599517 -0.644947 0.82699 0
M  V30 52 H -8.25403 0.578678 -0.919347 0
M  V30 END ATOM
M  V30 BEGIN BOND
M  V30 1 1 1 2
M  V30 2 1 2 3
M  V30 3 1 3 4
M  V30 4 2 4 5
M  V30 5 1 5 6
M  V30 6 2 6 7
M  V30 7 1 7 8
M  V30 8 2 8 9
M  V30 9 1 7 10
M  V30 10 2 10 11
M  V30 11 1 11 12
M  V30 12 1 12 13
M  V30 13 2 12 14
M  V30 14 1 14 15
M  V30 15 1 15 16
M  V30 16 1 16 17
M  V30 17 1 17 18
M  V30 18 2 18 19
M  V30 19 1 19 20
M  V30 20 2 20 21
M  V30 21 1 21 22
M  V30 22 2 22 23
M  V30 23 1 21 24
M  V30 24 2 24 25
M  V30 25 1 25 26
M  V30 26 1 17 27
M  V30 27 1 27 28
M  V30 28 1 27 29
M  V30 29 1 27 30
M  V30 30 2 15 31
M  V30 31 1 2 32
M  V30 32 1 32 33
M  V30 33 2 32 34
M  V30 34 1 9 4
M  V30 35 1 31 10
M  V30 36 1 23 18
M  V30 37 1 26 20
M  V30 38 1 1 35
M  V30 39 1 1 36
M  V30 40 1 2 37 CFG=3
M  V30 41 1 3 38
M  V30 42 1 3 39
M  V30 43 1 5 40
M  V30 44 1 6 41
M  V30 45 1 8 42
M  V30 46 1 9 43
M  V30 47 1 13 44
M  V30 48 1 13 45
M  V30 49 1 17 46
M  V30 50 1 19 47
M  V30 51 1 22 48
M  V30 52 1 23 49
M  V30 53 1 25 50
M  V30 54 1 31 51
M  V30 55 1 33 52
M  V30 END BOND
M  V30 END CTAB
M  END
