
     RDKit          3D

  0  0  0  0  0  0  0  0  0  0999 V3000
M  V30 BEGIN CTAB
M  V30 COUNTS 28 28 0 0 0
M  V30 BEGIN ATOM
M  V30 1 C 3.55309 0.980686 1.07187 0
M  V30 2 C 3.28895 -0.0762548 0.0486488 0
M  V30 3 O 1.87954 -0.243312 -0.179723 0
M  V30 4 C 1.41748 -1.18112 -1.08914 0
M  V30 5 O 2.282 -1.86517 -1.69247 0
M  V30 6 C 0.00601147 -1.43055 -1.39651 0
M  V30 7 C -0.954653 -0.599153 -0.652468 0
M  V30 8 C -1.58244 0.470943 -1.22772 0
M  V30 9 C -2.47637 1.23992 -0.512712 0
M  V30 10 N -3.13552 2.34914 -1.09185 0
M  V30 11 C -2.76369 0.944856 0.81986 0
M  V30 12 C -2.13749 -0.126297 1.40126 0
M  V30 13 C -1.23836 -0.890386 0.66194 0
M  V30 14 N -0.616958 -1.99675 1.29917 0
M  V30 15 I -4.12962 2.10839 1.92961 0
M  V30 16 H 2.71409 1.03079 1.81086 0
M  V30 17 H 3.58919 1.98005 0.587639 0
M  V30 18 H 4.52408 0.744222 1.55714 0
M  V30 19 H 3.65539 -1.04507 0.441888 0
M  V30 20 H 3.80019 0.21766 -0.890581 0
M  V30 21 H -0.258311 -2.52392 -1.30825 0
M  V30 22 H -0.151628 -1.21027 -2.47421 0
M  V30 23 H -1.41416 0.770185 -2.26684 0
M  V30 24 H -2.89239 3.31227 -0.802062 0
M  V30 25 H -3.86776 2.23087 -1.8108 0
M  V30 26 H -2.33596 -0.390422 2.44468 0
M  V30 27 H -1.12483 -2.88623 1.46185 0
M  V30 28 H 0.370137 -1.91508 1.61239 0
M  V30 END ATOM
M  V30 BEGIN BOND
M  V30 1 1 1 2
M  V30 2 1 2 3
M  V30 3 1 3 4
M  V30 4 2 4 5
M  V30 5 1 4 6
M  V30 6 1 6 7
M  V30 7 2 7 8
M  V30 8 1 8 9
M  V30 9 1 9 10
M  V30 10 2 9 11
M  V30 11 1 11 12
M  V30 12 2 12 13
M  V30 13 1 13 14
M  V30 14 1 11 15
M  V30 15 1 13 7
M  V30 16 1 1 16
M  V30 17 1 1 17
M  V30 18 1 1 18
M  V30 19 1 2 19
M  V30 20 1 2 20
M  V30 21 1 6 21
M  V30 22 1 6 22
M  V30 23 1 8 23
M  V30 24 1 10 24
M  V30 25 1 10 25
M  V30 26 1 12 26
M  V30 27 1 14 27
M  V30 28 1 14 28
M  V30 END BOND
M  V30 END CTAB
M  END
