
     RDKit          3D

  0  0  0  0  0  0  0  0  0  0999 V3000
M  V30 BEGIN CTAB
M  V30 COUNTS 40 42 0 0 0
M  V30 BEGIN ATOM
M  V30 1 F -8.35582 0.571642 1.54232 0
M  V30 2 C -7.2478 0.240818 0.817117 0
M  V30 3 C -6.58591 -0.923739 1.13181 0
M  V30 4 C -5.45923 -1.28594 0.414345 0
M  V30 5 C -4.95979 -0.522701 -0.618227 0
M  V30 6 C -5.64714 0.642963 -0.91123 0
M  V30 7 C -6.77173 1.02559 -0.211425 0
M  V30 8 O -3.82588 -0.946123 -1.29473 0
M  V30 9 C -2.5473 -0.577811 -0.886836 0
M  V30 10 C -1.8268 -1.33498 0.0110935 0
M  V30 11 C -0.560372 -0.970633 0.415425 0
M  V30 12 C 0.0356769 0.192432 -0.080959 0
M  V30 13 C -0.665739 0.965383 -0.979925 0
M  V30 14 C -1.92441 0.57318 -1.36094 0
M  V30 15 C 1.37915 0.580057 0.347183 0
M  V30 16 O 1.88731 1.62688 -0.114237 0
M  V30 17 O 2.11867 -0.162737 1.24496 0
M  V30 18 C 3.39329 0.115399 1.71118 0
M  V30 19 C 4.39063 0.159779 0.605221 0
M  V30 20 N 4.84935 1.30636 0.0771237 0
M  V30 21 C 5.74821 1.26963 -0.918318 0
M  V30 22 N 6.24939 2.46297 -1.49428 0
M  V30 23 N 6.19475 0.0884716 -1.39279 0
M  V30 24 C 5.75437 -1.0789 -0.884651 0
M  V30 25 N 4.85848 -1.02356 0.107176 0
M  V30 26 N 6.20866 -2.33842 -1.36634 0
M  V30 27 H -6.9661 -1.52913 1.9367 0
M  V30 28 H -4.9584 -2.18948 0.669757 0
M  V30 29 H -5.25528 1.24195 -1.72149 0
M  V30 30 H -7.31209 1.93293 -0.434769 0
M  V30 31 H -2.28422 -2.23313 0.395893 0
M  V30 32 H 0.0213457 -1.54046 1.11166 0
M  V30 33 H -0.205815 1.87961 -1.37457 0
M  V30 34 H -2.47348 1.17883 -2.06506 0
M  V30 35 H 3.45212 1.10612 2.2505 0
M  V30 36 H 3.67326 -0.693062 2.43314 0
M  V30 37 H 7.13432 2.85815 -1.11855 0
M  V30 38 H 5.7575 2.93168 -2.26316 0
M  V30 39 H 5.50664 -3.04186 -1.66325 0
M  V30 40 H 7.22018 -2.55817 -1.42319 0
M  V30 END ATOM
M  V30 BEGIN BOND
M  V30 1 1 1 2
M  V30 2 2 2 3
M  V30 3 1 3 4
M  V30 4 2 4 5
M  V30 5 1 5 6
M  V30 6 2 6 7
M  V30 7 1 5 8
M  V30 8 1 8 9
M  V30 9 2 9 10
M  V30 10 1 10 11
M  V30 11 2 11 12
M  V30 12 1 12 13
M  V30 13 2 13 14
M  V30 14 1 12 15
M  V30 15 2 15 16
M  V30 16 1 15 17
M  V30 17 1 17 18
M  V30 18 1 18 19
M  V30 19 2 19 20
M  V30 20 1 20 21
M  V30 21 1 21 22
M  V30 22 2 21 23
M  V30 23 1 23 24
M  V30 24 2 24 25
M  V30 25 1 24 26
M  V30 26 1 7 2
M  V30 27 1 14 9
M  V30 28 1 25 19
M  V30 29 1 3 27
M  V30 30 1 4 28
M  V30 31 1 6 29
M  V30 32 1 7 30
M  V30 33 1 10 31
M  V30 34 1 11 32
M  V30 35 1 13 33
M  V30 36 1 14 34
M  V30 37 1 18 35
M  V30 38 1 18 36
M  V30 39 1 22 37
M  V30 40 1 22 38
M  V30 41 1 26 39
M  V30 42 1 26 40
M  V30 END BOND
M  V30 END CTAB
M  END
