
     RDKit          3D

  0  0  0  0  0  0  0  0  0  0999 V3000
M  V30 BEGIN CTAB
M  V30 COUNTS 20 20 0 0 0
M  V30 BEGIN ATOM
M  V30 1 N -0.538256 2.2495 0.188358 0
M  V30 2 C -0.905405 0.891454 0.00362739 0
M  V30 3 C -2.20439 0.430132 0.0871151 0
M  V30 4 C -2.52581 -0.914276 -0.101021 0
M  V30 5 C -1.52273 -1.84026 -0.383095 0
M  V30 6 C -0.228984 -1.37376 -0.465056 0
M  V30 7 C 0.0653566 -0.0484223 -0.276786 0
M  V30 8 S 1.72772 0.456888 -0.398054 0
M  V30 9 O 1.819 1.86372 -0.944316 0
M  V30 10 O 2.44379 -0.449974 -1.33119 0
M  V30 11 N 2.51043 0.36676 1.1395 0
M  V30 12 S 1.0858 -2.52515 -0.824224 0
M  V30 13 H -0.795689 3.00259 -0.474999 0
M  V30 14 H 0.0166038 2.48858 1.03517 0
M  V30 15 H -2.9922 1.11154 0.30087 0
M  V30 16 H -3.55433 -1.20911 -0.0229799 0
M  V30 17 H -1.77188 -2.88029 -0.528569 0
M  V30 18 H 3.52716 0.21312 0.961743 0
M  V30 19 H 2.35175 1.2702 1.63941 0
M  V30 20 H 1.49207 -3.10324 0.394499 0
M  V30 END ATOM
M  V30 BEGIN BOND
M  V30 1 1 1 2
M  V30 2 2 2 3
M  V30 3 1 3 4
M  V30 4 2 4 5
M  V30 5 1 5 6
M  V30 6 2 6 7
M  V30 7 1 7 8
M  V30 8 2 8 9
M  V30 9 2 8 10
M  V30 10 1 8 11
M  V30 11 1 6 12
M  V30 12 1 7 2
M  V30 13 1 1 13
M  V30 14 1 1 14
M  V30 15 1 3 15
M  V30 16 1 4 16
M  V30 17 1 5 17
M  V30 18 1 11 18
M  V30 19 1 11 19
M  V30 20 1 12 20
M  V30 END BOND
M  V30 END CTAB
M  END
