
     RDKit          3D

  0  0  0  0  0  0  0  0  0  0999 V3000
M  V30 BEGIN CTAB
M  V30 COUNTS 25 26 0 0 0
M  V30 BEGIN ATOM
M  V30 1 F -3.60728 3.01805 -0.605377 0
M  V30 2 C -3.31313 1.70453 -0.321808 0
M  V30 3 C -4.29519 0.791234 -0.073441 0
M  V30 4 C -3.94574 -0.504404 0.203705 0
M  V30 5 C -2.62782 -0.867047 0.228629 0
M  V30 6 C -1.57169 0.0381621 -0.0211113 0
M  V30 7 C -1.97928 1.34278 -0.297773 0
M  V30 8 O -0.332086 -0.410675 0.026632 0
M  V30 9 C 0.940998 -0.119039 -0.0941356 0
M  V30 10 C 1.47732 1.10328 -0.393179 0
M  V30 11 N 2.82977 1.27417 -0.490109 0
M  V30 12 C 3.68415 0.27525 -0.301495 0
M  V30 13 N 3.20817 -0.939563 -0.00675039 0
M  V30 14 C 1.89659 -1.14949 0.0972262 0
M  V30 15 N 1.49119 -2.45744 0.409954 0
M  V30 16 N 5.09509 0.461582 -0.404415 0
M  V30 17 Br -2.28413 -2.69813 0.626782 0
M  V30 18 H -5.33566 1.12237 -0.103233 0
M  V30 19 H -4.75882 -1.21741 0.399607 0
M  V30 20 H -1.25144 2.12049 -0.504573 0
M  V30 21 H 0.83224 1.94385 -0.555096 0
M  V30 22 H 1.56402 -2.78903 1.39422 0
M  V30 23 H 1.11538 -3.12197 -0.306351 0
M  V30 24 H 5.52228 1.21214 0.166641 0
M  V30 25 H 5.64507 -0.133681 -1.02398 0
M  V30 END ATOM
M  V30 BEGIN BOND
M  V30 1 1 1 2
M  V30 2 2 2 3
M  V30 3 1 3 4
M  V30 4 2 4 5
M  V30 5 1 5 6
M  V30 6 2 6 7
M  V30 7 1 6 8
M  V30 8 1 8 9
M  V30 9 2 9 10
M  V30 10 1 10 11
M  V30 11 2 11 12
M  V30 12 1 12 13
M  V30 13 2 13 14
M  V30 14 1 14 15
M  V30 15 1 12 16
M  V30 16 1 5 17
M  V30 17 1 7 2
M  V30 18 1 14 9
M  V30 19 1 3 18
M  V30 20 1 4 19
M  V30 21 1 7 20
M  V30 22 1 10 21
M  V30 23 1 15 22
M  V30 24 1 15 23
M  V30 25 1 16 24
M  V30 26 1 16 25
M  V30 END BOND
M  V30 END CTAB
M  END
