
     RDKit          3D

  0  0  0  0  0  0  0  0  0  0999 V3000
M  V30 BEGIN CTAB
M  V30 COUNTS 29 29 0 0 0
M  V30 BEGIN ATOM
M  V30 1 N 3.08801 0.427789 1.01786 0
M  V30 2 C 1.99429 -0.498095 0.859566 0
M  V30 3 C 0.99807 -0.070152 -0.176193 0
M  V30 4 N 1.6928 0.0421842 -1.46725 0
M  V30 5 C 0.314837 1.22536 0.144926 0
M  V30 6 C -1.14925 1.0694 -0.262191 0
M  V30 7 C -1.89123 2.35901 -0.258546 0
M  V30 8 O -1.7097 0.173063 0.642554 0
M  V30 9 C -1.17346 -1.0873 0.561508 0
M  V30 10 C 0.0053752 -1.2129 -0.343487 0
M  V30 11 C -2.2118 -2.10175 0.120846 0
M  V30 12 H 3.79557 -0.0633537 1.64181 0
M  V30 13 H 3.59646 0.549246 0.0956401 0
M  V30 14 H 1.5223 -0.635228 1.83878 0
M  V30 15 H 2.39822 -1.48216 0.543239 0
M  V30 16 H 2.29474 0.869721 -1.51363 0
M  V30 17 H 0.939499 0.121021 -2.21498 0
M  V30 18 H 0.757603 2.06339 -0.434818 0
M  V30 19 H 0.343301 1.47651 1.22596 0
M  V30 20 H -1.16749 0.622667 -1.27688 0
M  V30 21 H -2.0079 2.7953 -1.29004 0
M  V30 22 H -2.95502 2.20956 0.09011 0
M  V30 23 H -1.47104 3.14036 0.379959 0
M  V30 24 H -0.815071 -1.35384 1.59761 0
M  V30 25 H 0.508351 -2.18971 -0.0925742 0
M  V30 26 H -0.294251 -1.32228 -1.41983 0
M  V30 27 H -2.31101 -2.89476 0.905642 0
M  V30 28 H -3.17891 -1.6117 -0.0962239 0
M  V30 29 H -1.91328 -2.62136 -0.819361 0
M  V30 END ATOM
M  V30 BEGIN BOND
M  V30 1 1 1 2
M  V30 2 1 2 3
M  V30 3 1 3 4
M  V30 4 1 3 5
M  V30 5 1 5 6
M  V30 6 1 6 7
M  V30 7 1 6 8
M  V30 8 1 8 9
M  V30 9 1 9 10
M  V30 10 1 9 11
M  V30 11 1 10 3
M  V30 12 1 1 12
M  V30 13 1 1 13
M  V30 14 1 2 14
M  V30 15 1 2 15
M  V30 16 1 4 16
M  V30 17 1 4 17
M  V30 18 1 5 18
M  V30 19 1 5 19
M  V30 20 1 6 20
M  V30 21 1 7 21
M  V30 22 1 7 22
M  V30 23 1 7 23
M  V30 24 1 9 24
M  V30 25 1 10 25
M  V30 26 1 10 26
M  V30 27 1 11 27
M  V30 28 1 11 28
M  V30 29 1 11 29
M  V30 END BOND
M  V30 END CTAB
M  END
