
     RDKit          3D

  0  0  0  0  0  0  0  0  0  0999 V3000
M  V30 BEGIN CTAB
M  V30 COUNTS 19 19 0 0 0
M  V30 BEGIN ATOM
M  V30 1 N -0.140715 2.09849 0.0897352 0
M  V30 2 C -0.889551 1.0087 -0.398381 0
M  V30 3 C -0.203923 -0.30484 -0.152301 0
M  V30 4 C -0.8742 -1.44371 -0.604315 0
M  V30 5 N -2.13317 -1.51664 -1.27289 0
M  V30 6 S 0.152651 -2.71634 -0.175214 0
M  V30 7 C 1.3999 -1.8239 0.558789 0
M  V30 8 C 0.968948 -0.519612 0.446031 0
M  V30 9 C 1.86079 0.574449 1.01256 0
M  V30 10 H -0.495066 2.44919 1.02684 0
M  V30 11 H -0.10225 2.88408 -0.596399 0
M  V30 12 H -1.90554 1.01506 0.0480671 0
M  V30 13 H -1.0925 1.0803 -1.5131 0
M  V30 14 H -2.16168 -1.98638 -2.19351 0
M  V30 15 H -3.02504 -1.13083 -0.900243 0
M  V30 16 H 2.34353 -2.1965 1.02215 0
M  V30 17 H 2.20192 1.26683 0.245806 0
M  V30 18 H 2.75057 0.137021 1.53306 0
M  V30 19 H 1.34531 1.12465 1.8233 0
M  V30 END ATOM
M  V30 BEGIN BOND
M  V30 1 1 1 2
M  V30 2 1 2 3
M  V30 3 2 3 4
M  V30 4 1 4 5
M  V30 5 1 4 6
M  V30 6 1 6 7
M  V30 7 2 7 8
M  V30 8 1 8 9
M  V30 9 1 8 3
M  V30 10 1 1 10
M  V30 11 1 1 11
M  V30 12 1 2 12
M  V30 13 1 2 13
M  V30 14 1 5 14
M  V30 15 1 5 15
M  V30 16 1 7 16
M  V30 17 1 9 17
M  V30 18 1 9 18
M  V30 19 1 9 19
M  V30 END BOND
M  V30 END CTAB
M  END
