
     RDKit          3D

  0  0  0  0  0  0  0  0  0  0999 V3000
M  V30 BEGIN CTAB
M  V30 COUNTS 52 54 0 0 0
M  V30 BEGIN ATOM
M  V30 1 C 6.41714 2.392 0.76522 0
M  V30 2 C 5.67605 2.94253 -0.458414 0
M  V30 3 C 4.59163 1.9519 -0.825662 0
M  V30 4 N 3.70079 1.82843 0.301759 0
M  V30 5 C 2.65011 0.841469 0.205527 0
M  V30 6 C 2.52961 0.0339992 -0.904148 0
M  V30 7 C 1.54944 -0.91886 -1.00284 0
M  V30 8 C 0.632952 -1.10098 0.0330725 0
M  V30 9 C 0.758525 -0.280678 1.15172 0
M  V30 10 C 1.7484 0.66371 1.22351 0
M  V30 11 C -0.372236 -2.12581 -0.0692984 0
M  V30 12 C -1.50638 -1.92396 -0.817315 0
M  V30 13 C -1.64533 -0.629148 -1.50818 0
M  V30 14 O -2.77768 -0.426841 -2.22572 0
M  V30 15 C -3.97672 -0.369107 -1.60757 0
M  V30 16 C -4.09506 0.747373 -0.598202 0
M  V30 17 C -3.80419 0.557813 0.727212 0
M  V30 18 C -3.92494 1.59942 1.63501 0
M  V30 19 C -4.3424 2.82663 1.18115 0
M  V30 20 C -4.6405 3.0385 -0.14749 0
M  V30 21 C -4.51063 1.98735 -1.02095 0
M  V30 22 N -2.44214 -2.89225 -0.924498 0
M  V30 23 C -2.24473 -4.06023 -0.284917 0
M  V30 24 N -3.24096 -5.07873 -0.411018 0
M  V30 25 N -1.15863 -4.30804 0.456112 0
M  V30 26 C -0.213688 -3.32535 0.561497 0
M  V30 27 N 0.937061 -3.58761 1.34979 0
M  V30 28 H 6.3194 1.28418 0.711943 0
M  V30 29 H 7.50526 2.60664 0.596021 0
M  V30 30 H 6.01965 2.82391 1.68463 0
M  V30 31 H 6.38472 3.08712 -1.30997 0
M  V30 32 H 5.2636 3.91814 -0.180023 0
M  V30 33 H 4.01135 2.37109 -1.69234 0
M  V30 34 H 5.01034 0.977946 -1.14433 0
M  V30 35 H 3.77981 2.40263 1.1533 0
M  V30 36 H 3.21802 0.133922 -1.73499 0
M  V30 37 H 1.43684 -1.57224 -1.88027 0
M  V30 38 H 0.0336461 -0.42211 1.97025 0
M  V30 39 H 1.86381 1.3112 2.08518 0
M  V30 40 H -1.53309 0.145923 -0.703985 0
M  V30 41 H -0.77718 -0.514017 -2.23068 0
M  V30 42 H -4.29759 -1.31187 -1.17637 0
M  V30 43 H -4.76229 -0.148424 -2.40322 0
M  V30 44 H -3.47449 -0.408088 1.1046 0
M  V30 45 H -3.68078 1.39947 2.69204 0
M  V30 46 H -4.43369 3.63511 1.89851 0
M  V30 47 H -4.96542 4.02465 -0.453038 0
M  V30 48 H -4.73545 2.1062 -2.07292 0
M  V30 49 H -3.3179 -5.82195 0.313761 0
M  V30 50 H -3.87699 -5.06292 -1.227 0
M  V30 51 H 0.865282 -4.20757 2.16483 0
M  V30 52 H 1.84766 -3.14246 1.08277 0
M  V30 END ATOM
M  V30 BEGIN BOND
M  V30 1 1 1 2
M  V30 2 1 2 3
M  V30 3 1 3 4
M  V30 4 1 4 5
M  V30 5 2 5 6
M  V30 6 1 6 7
M  V30 7 2 7 8
M  V30 8 1 8 9
M  V30 9 2 9 10
M  V30 10 1 8 11
M  V30 11 1 11 12
M  V30 12 1 12 13
M  V30 13 1 13 14
M  V30 14 1 14 15
M  V30 15 1 15 16
M  V30 16 2 16 17
M  V30 17 1 17 18
M  V30 18 2 18 19
M  V30 19 1 19 20
M  V30 20 2 20 21
M  V30 21 2 12 22
M  V30 22 1 22 23
M  V30 23 1 23 24
M  V30 24 2 23 25
M  V30 25 1 25 26
M  V30 26 1 26 27
M  V30 27 1 10 5
M  V30 28 2 26 11
M  V30 29 1 21 16
M  V30 30 1 1 28
M  V30 31 1 1 29
M  V30 32 1 1 30
M  V30 33 1 2 31
M  V30 34 1 2 32
M  V30 35 1 3 33
M  V30 36 1 3 34
M  V30 37 1 4 35
M  V30 38 1 6 36
M  V30 39 1 7 37
M  V30 40 1 9 38
M  V30 41 1 10 39
M  V30 42 1 13 40
M  V30 43 1 13 41
M  V30 44 1 15 42
M  V30 45 1 15 43
M  V30 46 1 17 44
M  V30 47 1 18 45
M  V30 48 1 19 46
M  V30 49 1 20 47
M  V30 50 1 21 48
M  V30 51 1 24 49
M  V30 52 1 24 50
M  V30 53 1 27 51
M  V30 54 1 27 52
M  V30 END BOND
M  V30 END CTAB
M  END
