
     RDKit          3D

  0  0  0  0  0  0  0  0  0  0999 V3000
M  V30 BEGIN CTAB
M  V30 COUNTS 38 38 0 0 0
M  V30 BEGIN ATOM
M  V30 1 C -5.54088 -0.460697 -0.241217 0
M  V30 2 C -4.24011 0.294621 -0.00305052 0
M  V30 3 C -3.0466 -0.567387 -0.194927 0
M  V30 4 C -1.80205 0.260993 0.0723132 0
M  V30 5 O -1.97726 1.44027 0.442404 0
M  V30 6 N -0.58665 -0.396803 -0.127389 0
M  V30 7 C 0.694358 0.178374 0.0573858 0
M  V30 8 C 0.959324 1.50529 0.278102 0
M  V30 9 C 2.24108 1.99224 0.462312 0
M  V30 10 C 3.31309 1.13121 0.427077 0
M  V30 11 C 3.11329 -0.228743 0.206716 0
M  V30 12 C 1.83028 -0.658193 0.0311808 0
M  V30 13 S 4.45647 -1.35085 0.155837 0
M  V30 14 O 5.18466 -1.374 1.48117 0
M  V30 15 O 3.91137 -2.73578 -0.0496901 0
M  V30 16 N 5.53104 -0.887534 -1.12043 0
M  V30 17 C 4.686 1.62532 0.620275 0
M  V30 18 C -3.00626 -1.78316 0.662239 0
M  V30 19 N -4.1795 1.42537 -0.896719 0
M  V30 20 H -6.34065 0.306261 -0.299264 0
M  V30 21 H -5.74684 -1.12937 0.603704 0
M  V30 22 H -5.4765 -0.968086 -1.21719 0
M  V30 23 H -4.28389 0.666303 1.0291 0
M  V30 24 H -2.93729 -0.860329 -1.27795 0
M  V30 25 H -0.63232 -1.41637 -0.448487 0
M  V30 26 H 0.14475 2.22397 0.305818 0
M  V30 27 H 2.38358 3.04441 0.631751 0
M  V30 28 H 1.63368 -1.71863 -0.143597 0
M  V30 29 H 6.06961 -1.70373 -1.48901 0
M  V30 30 H 4.99297 -0.399897 -1.88805 0
M  V30 31 H 5.31285 1.5637 -0.290402 0
M  V30 32 H 4.65 2.7145 0.8871 0
M  V30 33 H 5.13606 1.11069 1.49541 0
M  V30 34 H -3.17842 -2.69358 0.0243674 0
M  V30 35 H -3.75643 -1.79637 1.47677 0
M  V30 36 H -2.00584 -1.95911 1.14134 0
M  V30 37 H -4.11813 2.30628 -0.360344 0
M  V30 38 H -3.38883 1.29882 -1.55154 0
M  V30 END ATOM
M  V30 BEGIN BOND
M  V30 1 1 1 2
M  V30 2 1 2 3
M  V30 3 1 3 4
M  V30 4 2 4 5
M  V30 5 1 4 6
M  V30 6 1 6 7
M  V30 7 2 7 8
M  V30 8 1 8 9
M  V30 9 2 9 10
M  V30 10 1 10 11
M  V30 11 2 11 12
M  V30 12 1 11 13
M  V30 13 2 13 14
M  V30 14 2 13 15
M  V30 15 1 13 16
M  V30 16 1 10 17
M  V30 17 1 3 18
M  V30 18 1 2 19
M  V30 19 1 12 7
M  V30 20 1 1 20
M  V30 21 1 1 21
M  V30 22 1 1 22
M  V30 23 1 2 23
M  V30 24 1 3 24
M  V30 25 1 6 25
M  V30 26 1 8 26
M  V30 27 1 9 27
M  V30 28 1 12 28
M  V30 29 1 16 29
M  V30 30 1 16 30
M  V30 31 1 17 31
M  V30 32 1 17 32
M  V30 33 1 17 33
M  V30 34 1 18 34
M  V30 35 1 18 35
M  V30 36 1 18 36
M  V30 37 1 19 37
M  V30 38 1 19 38
M  V30 END BOND
M  V30 END CTAB
M  END
