
     RDKit          3D

  0  0  0  0  0  0  0  0  0  0999 V3000
M  V30 BEGIN CTAB
M  V30 COUNTS 30 31 0 0 0
M  V30 BEGIN ATOM
M  V30 1 O 0.0872763 -0.406275 -1.66983 0
M  V30 2 C 0.619846 -0.16292 -0.553264 0
M  V30 3 C 2.06491 -0.208852 -0.441795 0
M  V30 4 C 2.84746 -0.515529 -1.54858 0
M  V30 5 C 4.23159 -0.560194 -1.44447 0
M  V30 6 C 4.8721 -0.303515 -0.247512 0
M  V30 7 C 4.12099 -0.00252396 0.842296 0
M  V30 8 C 2.73695 0.0409758 0.733364 0
M  V30 9 N -0.244512 0.142215 0.527392 0
M  V30 10 C -1.66246 0.176385 0.373106 0
M  V30 11 C -2.40517 -0.961979 0.578039 0
M  V30 12 N -1.75068 -2.17066 0.943996 0
M  V30 13 C -3.79732 -0.950524 0.432054 0
M  V30 14 C -4.41479 0.226276 0.077756 0
M  V30 15 C -3.69413 1.37002 -0.130776 0
M  V30 16 C -2.31507 1.33804 0.0189349 0
M  V30 17 N -1.62599 2.54821 -0.209284 0
M  V30 18 H 2.37152 -0.720627 -2.49749 0
M  V30 19 H 4.86368 -0.796216 -2.29002 0
M  V30 20 H 5.94815 -0.335037 -0.153309 0
M  V30 21 H 4.56831 0.211679 1.82297 0
M  V30 22 H 2.20045 0.28734 1.64172 0
M  V30 23 H 0.20409 0.343333 1.45184 0
M  V30 24 H -1.2888 -2.20407 1.87343 0
M  V30 25 H -1.75043 -2.97728 0.283953 0
M  V30 26 H -4.34653 -1.86683 0.602008 0
M  V30 27 H -5.50897 0.186732 -0.0249675 0
M  V30 28 H -4.18502 2.29256 -0.409229 0
M  V30 29 H -0.932455 2.87925 0.474593 0
M  V30 30 H -1.815 3.10002 -1.05693 0
M  V30 END ATOM
M  V30 BEGIN BOND
M  V30 1 2 1 2
M  V30 2 1 2 3
M  V30 3 2 3 4
M  V30 4 1 4 5
M  V30 5 2 5 6
M  V30 6 1 6 7
M  V30 7 2 7 8
M  V30 8 1 2 9
M  V30 9 1 9 10
M  V30 10 2 10 11
M  V30 11 1 11 12
M  V30 12 1 11 13
M  V30 13 2 13 14
M  V30 14 1 14 15
M  V30 15 2 15 16
M  V30 16 1 16 17
M  V30 17 1 8 3
M  V30 18 1 16 10
M  V30 19 1 4 18
M  V30 20 1 5 19
M  V30 21 1 6 20
M  V30 22 1 7 21
M  V30 23 1 8 22
M  V30 24 1 9 23
M  V30 25 1 12 24
M  V30 26 1 12 25
M  V30 27 1 13 26
M  V30 28 1 14 27
M  V30 29 1 15 28
M  V30 30 1 17 29
M  V30 31 1 17 30
M  V30 END BOND
M  V30 END CTAB
M  END
