
     RDKit          3D

  0  0  0  0  0  0  0  0  0  0999 V3000
M  V30 BEGIN CTAB
M  V30 COUNTS 30 30 0 0 0
M  V30 BEGIN ATOM
M  V30 1 C -1.47154 2.14122 -0.0650449 0
M  V30 2 C -0.783886 1.31332 0.986317 0
M  V30 3 C -0.0336083 0.176932 0.327757 0
M  V30 4 C 1.01353 0.637917 -0.634759 0
M  V30 5 C 2.26324 1.14047 0.0256277 0
M  V30 6 N 2.92998 0.180706 0.840809 0
M  V30 7 C 1.2428 -0.614005 -1.45009 0
M  V30 8 C -0.221707 -1.01858 -1.66091 0
M  V30 9 N -0.935023 -0.572774 -0.496964 0
M  V30 10 S -1.58788 -1.9581 0.311858 0
M  V30 11 O -2.36293 -2.76491 -0.682978 0
M  V30 12 O -0.401637 -2.81104 0.727226 0
M  V30 13 N -2.49968 -1.54068 1.69295 0
M  V30 14 H -2.06309 1.42349 -0.694311 0
M  V30 15 H -2.12374 2.86436 0.46403 0
M  V30 16 H -0.800965 2.70847 -0.708836 0
M  V30 17 H -0.127621 1.91629 1.64463 0
M  V30 18 H -1.56432 0.877907 1.62947 0
M  V30 19 H 0.423873 -0.493887 1.07125 0
M  V30 20 H 0.657621 1.42113 -1.32224 0
M  V30 21 H 2.96255 1.44194 -0.792718 0
M  V30 22 H 2.00407 2.07416 0.558266 0
M  V30 23 H 3.94578 0.0964424 0.598545 0
M  V30 24 H 2.44999 -0.712823 0.976735 0
M  V30 25 H 1.76875 -0.444308 -2.38628 0
M  V30 26 H 1.72705 -1.39482 -0.804743 0
M  V30 27 H -0.312764 -2.088 -1.86923 0
M  V30 28 H -0.567535 -0.373274 -2.51684 0
M  V30 29 H -2.03361 -1.7967 2.59002 0
M  V30 30 H -3.49772 -1.83085 1.64045 0
M  V30 END ATOM
M  V30 BEGIN BOND
M  V30 1 1 1 2
M  V30 2 1 2 3
M  V30 3 1 3 4
M  V30 4 1 4 5
M  V30 5 1 5 6
M  V30 6 1 4 7
M  V30 7 1 7 8
M  V30 8 1 8 9
M  V30 9 1 9 10
M  V30 10 2 10 11
M  V30 11 2 10 12
M  V30 12 1 10 13
M  V30 13 1 9 3
M  V30 14 1 1 14
M  V30 15 1 1 15
M  V30 16 1 1 16
M  V30 17 1 2 17
M  V30 18 1 2 18
M  V30 19 1 3 19
M  V30 20 1 4 20
M  V30 21 1 5 21
M  V30 22 1 5 22
M  V30 23 1 6 23
M  V30 24 1 6 24
M  V30 25 1 7 25
M  V30 26 1 7 26
M  V30 27 1 8 27
M  V30 28 1 8 28
M  V30 29 1 13 29
M  V30 30 1 13 30
M  V30 END BOND
M  V30 END CTAB
M  END
