
     RDKit          3D

  0  0  0  0  0  0  0  0  0  0999 V3000
M  V30 BEGIN CTAB
M  V30 COUNTS 24 24 0 0 0
M  V30 BEGIN ATOM
M  V30 1 N 2.39553 0.976709 0.690345 0
M  V30 2 C 2.44114 -0.347284 0.138686 0
M  V30 3 C 1.44621 -0.494504 -0.961213 0
M  V30 4 N 0.123374 -0.287376 -0.614745 0
M  V30 5 C -0.902867 -0.392363 -1.54266 0
M  V30 6 C -2.03509 0.350223 -0.830807 0
M  V30 7 C -1.78249 -0.0145831 0.612252 0 CFG=1
M  V30 8 C -0.351245 -0.519346 0.679463 0
M  V30 9 N -1.97981 1.14395 1.4442 0
M  V30 10 H 3.08994 1.60202 0.278534 0
M  V30 11 H 2.38626 1.036 1.69316 0
M  V30 12 H 2.33858 -1.0816 0.948008 0
M  V30 13 H 3.46215 -0.502449 -0.31866 0
M  V30 14 H 1.73878 0.218319 -1.77425 0
M  V30 15 H 1.58439 -1.51715 -1.40256 0
M  V30 16 H -0.71203 -0.0010546 -2.53683 0
M  V30 17 H -1.25555 -1.45417 -1.61271 0
M  V30 18 H -3.0158 0.0379509 -1.19714 0
M  V30 19 H -1.82703 1.42499 -0.957149 0
M  V30 20 H -2.50192 -0.802486 0.907998 0
M  V30 21 H -0.379758 -1.63413 0.856397 0
M  V30 22 H 0.147611 -0.0201005 1.50907 0
M  V30 23 H -1.41138 1.03934 2.3232 0
M  V30 24 H -2.99901 1.23909 1.66741 0
M  V30 END ATOM
M  V30 BEGIN BOND
M  V30 1 1 1 2
M  V30 2 1 2 3
M  V30 3 1 3 4
M  V30 4 1 4 5
M  V30 5 1 5 6
M  V30 6 1 6 7
M  V30 7 1 7 8
M  V30 8 1 7 9
M  V30 9 1 8 4
M  V30 10 1 1 10
M  V30 11 1 1 11
M  V30 12 1 2 12
M  V30 13 1 2 13
M  V30 14 1 3 14
M  V30 15 1 3 15
M  V30 16 1 5 16
M  V30 17 1 5 17
M  V30 18 1 6 18
M  V30 19 1 6 19
M  V30 20 1 7 20 CFG=1
M  V30 21 1 8 21
M  V30 22 1 8 22
M  V30 23 1 9 23
M  V30 24 1 9 24
M  V30 END BOND
M  V30 END CTAB
M  END
