
     RDKit          3D

  0  0  0  0  0  0  0  0  0  0999 V3000
M  V30 BEGIN CTAB
M  V30 COUNTS 47 48 0 0 0
M  V30 BEGIN ATOM
M  V30 1 C -3.2923 -0.798792 -1.83501 0
M  V30 2 O -3.21049 -0.32002 -0.48371 0
M  V30 3 C -1.96123 -0.0419378 0.0538313 0
M  V30 4 C -1.26752 -1.03852 0.709642 0
M  V30 5 C -0.0172561 -0.780709 1.25353 0
M  V30 6 C 0.558826 0.490699 1.14603 0
M  V30 7 C 1.86501 0.799342 1.72237 0
M  V30 8 C 3.03604 0.282516 1.04597 0
M  V30 9 C 3.51708 0.867757 -0.0876843 0
M  V30 10 N 2.9404 2.03 -0.699536 0
M  V30 11 N 4.61318 0.37588 -0.726964 0
M  V30 12 C 5.2604 -0.713186 -0.254223 0
M  V30 13 N 6.40487 -1.22994 -0.919583 0
M  V30 14 N 4.77449 -1.27901 0.864201 0
M  V30 15 C 3.70165 -0.826668 1.52144 0
M  V30 16 C -0.152511 1.46226 0.489809 0
M  V30 17 C -1.41802 1.2253 -0.0686529 0
M  V30 18 N -2.11395 2.26107 -0.739185 0
M  V30 19 C -3.40104 2.6788 -0.24623 0
M  V30 20 C -1.56641 2.90681 -1.90276 0
M  V30 21 N -1.87423 -2.31806 0.804752 0
M  V30 22 C -3.13573 -2.53488 1.47272 0
M  V30 23 C -1.20763 -3.45317 0.208847 0
M  V30 24 H -2.36224 -0.451072 -2.36201 0
M  V30 25 H -3.3555 -1.89333 -1.82128 0
M  V30 26 H -4.15945 -0.372011 -2.34614 0
M  V30 27 H 0.546566 -1.5191 1.763 0
M  V30 28 H 1.84982 0.387479 2.77708 0
M  V30 29 H 1.9579 1.91454 1.86698 0
M  V30 30 H 2.92907 2.96691 -0.240972 0
M  V30 31 H 2.50916 1.9646 -1.6387 0
M  V30 32 H 7.3372 -0.93959 -0.618452 0
M  V30 33 H 6.27186 -1.88605 -1.69196 0
M  V30 34 H 3.33733 -1.32112 2.43511 0
M  V30 35 H 0.194931 2.47768 0.360944 0
M  V30 36 H -4.21302 1.97696 -0.508541 0
M  V30 37 H -3.64969 3.73095 -0.491738 0
M  V30 38 H -3.34265 2.65189 0.879058 0
M  V30 39 H -0.666741 2.36958 -2.29581 0
M  V30 40 H -2.32999 2.97187 -2.71373 0
M  V30 41 H -1.23894 3.95124 -1.71798 0
M  V30 42 H -3.43428 -1.69795 2.13232 0
M  V30 43 H -3.11069 -3.46909 2.10274 0
M  V30 44 H -3.92015 -2.67296 0.720101 0
M  V30 45 H -1.50218 -4.40752 0.685443 0
M  V30 46 H -0.115738 -3.26326 0.243319 0
M  V30 47 H -1.58621 -3.51618 -0.848394 0
M  V30 END ATOM
M  V30 BEGIN BOND
M  V30 1 1 1 2
M  V30 2 1 2 3
M  V30 3 2 3 4
M  V30 4 1 4 5
M  V30 5 2 5 6
M  V30 6 1 6 7
M  V30 7 1 7 8
M  V30 8 2 8 9
M  V30 9 1 9 10
M  V30 10 1 9 11
M  V30 11 2 11 12
M  V30 12 1 12 13
M  V30 13 1 12 14
M  V30 14 2 14 15
M  V30 15 1 6 16
M  V30 16 2 16 17
M  V30 17 1 17 18
M  V30 18 1 18 19
M  V30 19 1 18 20
M  V30 20 1 4 21
M  V30 21 1 21 22
M  V30 22 1 21 23
M  V30 23 1 17 3
M  V30 24 1 15 8
M  V30 25 1 1 24
M  V30 26 1 1 25
M  V30 27 1 1 26
M  V30 28 1 5 27
M  V30 29 1 7 28
M  V30 30 1 7 29
M  V30 31 1 10 30
M  V30 32 1 10 31
M  V30 33 1 13 32
M  V30 34 1 13 33
M  V30 35 1 15 34
M  V30 36 1 16 35
M  V30 37 1 19 36
M  V30 38 1 19 37
M  V30 39 1 19 38
M  V30 40 1 20 39
M  V30 41 1 20 40
M  V30 42 1 20 41
M  V30 43 1 22 42
M  V30 44 1 22 43
M  V30 45 1 22 44
M  V30 46 1 23 45
M  V30 47 1 23 46
M  V30 48 1 23 47
M  V30 END BOND
M  V30 END CTAB
M  END
