
     RDKit          3D

  0  0  0  0  0  0  0  0  0  0999 V3000
M  V30 BEGIN CTAB
M  V30 COUNTS 50 53 0 0 0
M  V30 BEGIN ATOM
M  V30 1 N 7.11132 0.2693 -1.2536 0
M  V30 2 C 5.92588 0.692278 -0.541614 0
M  V30 3 C 5.36362 -0.31225 0.436859 0
M  V30 4 C 4.42754 -0.764613 -0.662955 0
M  V30 5 C 4.62667 0.590304 -1.30522 0
M  V30 6 C 3.05705 -0.922952 -0.0486097 0
M  V30 7 C 2.51123 0.0555244 0.732954 0
M  V30 8 C 1.25855 -0.0878581 1.29327 0
M  V30 9 N 0.752302 0.949803 2.09856 0
M  V30 10 C -0.552571 0.841878 2.66716 0
M  V30 11 C -1.6145 0.823487 1.61812 0
M  V30 12 N -1.32515 1.11717 0.33434 0
M  V30 13 C -2.249 1.11688 -0.652457 0
M  V30 14 C -1.8887 1.44524 -2.04221 0
M  V30 15 C -3.54516 0.8086 -0.365602 0
M  V30 16 C -3.85608 0.504921 0.950737 0
M  V30 17 N -2.89375 0.519616 1.89931 0
M  V30 18 C -5.27695 0.175822 1.22699 0
M  V30 19 C -5.74768 -0.826165 0.219228 0
M  V30 20 C -5.38521 -0.514293 -1.18113 0
M  V30 21 C -4.6153 0.780862 -1.36411 0
M  V30 22 N 0.601685 -1.22462 1.0389 0
M  V30 23 C 1.10527 -2.20742 0.276586 0
M  V30 24 N 2.32696 -2.04243 -0.256665 0
M  V30 25 N 0.320295 -3.37029 0.0757784 0
M  V30 26 H 7.66245 -0.393755 -0.62647 0
M  V30 27 H 7.70244 1.09473 -1.53592 0
M  V30 28 H 5.99183 1.72862 -0.108071 0
M  V30 29 H 6.15192 -1.06849 0.680323 0
M  V30 30 H 4.88301 0.148086 1.3162 0
M  V30 31 H 4.74803 -1.62163 -1.2536 0
M  V30 32 H 3.86627 1.35897 -1.07597 0
M  V30 33 H 4.79361 0.43409 -2.40182 0
M  V30 34 H 3.05719 0.967059 0.926674 0
M  V30 35 H 1.31589 1.80226 2.28988 0
M  V30 36 H -0.573801 -0.107704 3.27892 0
M  V30 37 H -0.730351 1.64757 3.41578 0
M  V30 38 H -2.33828 2.44296 -2.30922 0
M  V30 39 H -2.23276 0.741966 -2.79309 0
M  V30 40 H -0.78672 1.57718 -2.08474 0
M  V30 41 H -5.3996 -0.196579 2.26294 0
M  V30 42 H -5.91051 1.09159 1.09819 0
M  V30 43 H -6.84885 -1.01629 0.353024 0
M  V30 44 H -5.26801 -1.8092 0.485445 0
M  V30 45 H -6.33578 -0.480522 -1.78139 0
M  V30 46 H -4.75427 -1.30421 -1.67152 0
M  V30 47 H -4.25078 0.768015 -2.40817 0
M  V30 48 H -5.30844 1.65399 -1.29794 0
M  V30 49 H -0.614263 -3.3969 -0.354964 0
M  V30 50 H 0.741453 -4.28591 0.400876 0
M  V30 END ATOM
M  V30 BEGIN BOND
M  V30 1 1 1 2
M  V30 2 1 2 3
M  V30 3 1 3 4
M  V30 4 1 4 5
M  V30 5 1 4 6
M  V30 6 2 6 7
M  V30 7 1 7 8
M  V30 8 1 8 9
M  V30 9 1 9 10
M  V30 10 1 10 11
M  V30 11 2 11 12
M  V30 12 1 12 13
M  V30 13 1 13 14
M  V30 14 2 13 15
M  V30 15 1 15 16
M  V30 16 2 16 17
M  V30 17 1 16 18
M  V30 18 1 18 19
M  V30 19 1 19 20
M  V30 20 1 20 21
M  V30 21 2 8 22
M  V30 22 1 22 23
M  V30 23 2 23 24
M  V30 24 1 23 25
M  V30 25 1 5 2
M  V30 26 1 24 6
M  V30 27 1 17 11
M  V30 28 1 21 15
M  V30 29 1 1 26
M  V30 30 1 1 27
M  V30 31 1 2 28
M  V30 32 1 3 29
M  V30 33 1 3 30
M  V30 34 1 4 31
M  V30 35 1 5 32
M  V30 36 1 5 33
M  V30 37 1 7 34
M  V30 38 1 9 35
M  V30 39 1 10 36
M  V30 40 1 10 37
M  V30 41 1 14 38
M  V30 42 1 14 39
M  V30 43 1 14 40
M  V30 44 1 18 41
M  V30 45 1 18 42
M  V30 46 1 19 43
M  V30 47 1 19 44
M  V30 48 1 20 45
M  V30 49 1 20 46
M  V30 50 1 21 47
M  V30 51 1 21 48
M  V30 52 1 25 49
M  V30 53 1 25 50
M  V30 END BOND
M  V30 END CTAB
M  END
