
     RDKit          3D

  0  0  0  0  0  0  0  0  0  0999 V3000
M  V30 BEGIN CTAB
M  V30 COUNTS 36 36 0 0 0
M  V30 BEGIN ATOM
M  V30 1 O -4.88233 -0.197932 1.90721 0
M  V30 2 C -4.37038 -1.09061 0.980046 0
M  V30 3 C -3.27397 -0.437124 0.163712 0
M  V30 4 C -2.19775 0.00281197 1.12879 0
M  V30 5 C -1.0605 0.662933 0.43747 0
M  V30 6 C -1.11946 2.02642 0.261491 0
M  V30 7 C -0.111376 2.68915 -0.363091 0
M  V30 8 C 0.98474 2.00401 -0.829175 0
M  V30 9 C 1.08209 0.634548 -0.672239 0
M  V30 10 C 0.0423959 -0.0188512 -0.0326436 0
M  V30 11 C 2.26748 -0.113952 -1.1747 0
M  V30 12 C 3.3464 -0.2028 -0.115902 0
M  V30 13 C 4.54151 -0.96658 -0.644432 0
M  V30 14 O 4.19255 -2.25036 -1.046 0
M  V30 15 N 3.82233 1.10949 0.269952 0
M  V30 16 N -3.8052 0.699873 -0.52977 0
M  V30 17 H -5.10444 -0.653082 2.75898 0
M  V30 18 H -3.97364 -1.99543 1.4589 0
M  V30 19 H -5.19763 -1.37198 0.280177 0
M  V30 20 H -2.83244 -1.20485 -0.493072 0
M  V30 21 H -1.82356 -0.900018 1.69282 0
M  V30 22 H -2.66179 0.728071 1.8233 0
M  V30 23 H -1.96635 2.62467 0.61116 0
M  V30 24 H -0.128082 3.76463 -0.517404 0
M  V30 25 H 1.78649 2.53797 -1.3273 0
M  V30 26 H 0.0998229 -1.11116 0.103032 0
M  V30 27 H 2.65227 0.329219 -2.10733 0
M  V30 28 H 1.92676 -1.14862 -1.37578 0
M  V30 29 H 2.9326 -0.758604 0.725428 0
M  V30 30 H 5.00959 -0.377678 -1.4597 0
M  V30 31 H 5.2764 -1.07871 0.182871 0
M  V30 32 H 3.9396 -2.73969 -0.215292 0
M  V30 33 H 3.90912 1.76081 -0.527369 0
M  V30 34 H 4.6199 1.08781 0.906588 0
M  V30 35 H -3.17287 0.970801 -1.30973 0
M  V30 36 H -4.75029 0.538352 -0.950985 0
M  V30 END ATOM
M  V30 BEGIN BOND
M  V30 1 1 1 2
M  V30 2 1 2 3
M  V30 3 1 3 4
M  V30 4 1 4 5
M  V30 5 2 5 6
M  V30 6 1 6 7
M  V30 7 2 7 8
M  V30 8 1 8 9
M  V30 9 2 9 10
M  V30 10 1 9 11
M  V30 11 1 11 12
M  V30 12 1 12 13
M  V30 13 1 13 14
M  V30 14 1 12 15
M  V30 15 1 3 16
M  V30 16 1 10 5
M  V30 17 1 1 17
M  V30 18 1 2 18
M  V30 19 1 2 19
M  V30 20 1 3 20
M  V30 21 1 4 21
M  V30 22 1 4 22
M  V30 23 1 6 23
M  V30 24 1 7 24
M  V30 25 1 8 25
M  V30 26 1 10 26
M  V30 27 1 11 27
M  V30 28 1 11 28
M  V30 29 1 12 29
M  V30 30 1 13 30
M  V30 31 1 13 31
M  V30 32 1 14 32
M  V30 33 1 15 33
M  V30 34 1 15 34
M  V30 35 1 16 35
M  V30 36 1 16 36
M  V30 END BOND
M  V30 END CTAB
M  END
