
     RDKit          3D

  0  0  0  0  0  0  0  0  0  0999 V3000
M  V30 BEGIN CTAB
M  V30 COUNTS 60 64 0 0 0
M  V30 BEGIN ATOM
M  V30 1 N 1.65514 -4.70659 -4.10914 0
M  V30 2 C 0.50628 -4.39617 -3.2952 0
M  V30 3 N 0.651368 -5.07857 -2.04128 0
M  V30 4 C 0.705833 -4.22385 -1.08404 0
M  V30 5 C 0.599127 -2.8905 -1.64208 0
M  V30 6 N 0.484614 -3.00221 -2.91636 0
M  V30 7 C 0.617156 -1.62703 -0.897726 0 CFG=1
M  V30 8 C 0.490297 -0.382796 -1.70875 0 CFG=2
M  V30 9 C 1.71881 0.394114 -1.98895 0
M  V30 10 N 2.41186 0.876454 -0.840528 0
M  V30 11 C 3.59976 1.63291 -1.01896 0
M  V30 12 O 4.03703 1.875 -2.19201 0
M  V30 13 C 4.36899 2.16308 0.0916652 0
M  V30 14 N 4.05181 1.99818 1.38048 0
M  V30 15 C 4.94165 2.59703 2.17695 0
M  V30 16 C 5.9014 3.19116 1.36346 0
M  V30 17 C 5.52168 2.90546 0.0472227 0
M  V30 18 Br 7.42084 4.18931 1.91445 0
M  V30 19 C -0.423495 0.176996 -0.635482 0 CFG=2
M  V30 20 C -0.726476 -1.25655 -0.251341 0 CFG=2
M  V30 21 C -0.69934 -1.55507 1.20163 0
M  V30 22 N 0.252688 -2.04662 1.91618 0
M  V30 23 C -0.142113 -2.17486 3.29146 0
M  V30 24 N -1.48369 -1.68629 3.31343 0
M  V30 25 C -1.79968 -1.33391 2.12344 0
M  V30 26 N -0.203449 -3.60582 3.62929 0
M  V30 27 C -1.55887 0.92063 -1.30073 0
M  V30 28 N -2.48225 1.49308 -0.34378 0
M  V30 29 C -3.59768 2.21949 -0.835931 0
M  V30 30 O -3.79536 2.373 -2.08582 0
M  V30 31 C -4.55558 2.81468 0.0873097 0
M  V30 32 N -4.47588 2.73445 1.44414 0
M  V30 33 C -5.50242 3.38179 1.99324 0
M  V30 34 C -6.26755 3.89495 0.971665 0
M  V30 35 C -5.67905 3.54218 -0.202106 0
M  V30 36 Br -7.86749 4.91919 1.1104 0
M  V30 37 H 2.08776 -5.58652 -3.78626 0
M  V30 38 H 2.35101 -3.97883 -4.15921 0
M  V30 39 H -0.428365 -4.65894 -3.83932 0
M  V30 40 H 0.81649 -4.50003 -0.0213498 0
M  V30 41 H 1.41962 -1.52895 -0.134871 0
M  V30 42 H -0.0625902 -0.594025 -2.64762 0
M  V30 43 H 1.41941 1.28482 -2.60808 0
M  V30 44 H 2.38086 -0.200099 -2.66013 0
M  V30 45 H 2.08117 0.694939 0.121775 0
M  V30 46 H 3.21864 1.47089 1.71199 0
M  V30 47 H 4.98093 2.6558 3.25772 0
M  V30 48 H 6.07808 3.23756 -0.826941 0
M  V30 49 H 0.0476088 0.716413 0.183253 0
M  V30 50 H -1.59723 -1.62042 -0.797087 0
M  V30 51 H 0.536182 -1.64298 3.98814 0
M  V30 52 H -2.79251 -0.923006 1.89072 0
M  V30 53 H -0.914548 -4.01342 2.95323 0
M  V30 54 H 0.70486 -4.07819 3.39565 0
M  V30 55 H -1.111 1.75448 -1.88001 0
M  V30 56 H -2.07983 0.27557 -2.03777 0
M  V30 57 H -2.36052 1.39426 0.666997 0
M  V30 58 H -3.7262 2.24139 2.00086 0
M  V30 59 H -5.74897 3.51767 3.05089 0
M  V30 60 H -5.97683 3.75533 -1.23015 0
M  V30 END ATOM
M  V30 BEGIN BOND
M  V30 1 1 1 2
M  V30 2 1 2 3
M  V30 3 2 3 4
M  V30 4 1 4 5
M  V30 5 2 5 6
M  V30 6 1 5 7
M  V30 7 1 7 8
M  V30 8 1 8 9
M  V30 9 1 9 10
M  V30 10 1 10 11
M  V30 11 2 11 12
M  V30 12 1 11 13
M  V30 13 1 13 14
M  V30 14 1 14 15
M  V30 15 2 15 16
M  V30 16 1 16 17
M  V30 17 1 16 18
M  V30 18 1 8 19
M  V30 19 1 19 20
M  V30 20 1 20 21
M  V30 21 2 21 22
M  V30 22 1 22 23
M  V30 23 1 23 24
M  V30 24 2 24 25
M  V30 25 1 23 26
M  V30 26 1 19 27
M  V30 27 1 27 28
M  V30 28 1 28 29
M  V30 29 2 29 30
M  V30 30 1 29 31
M  V30 31 1 31 32
M  V30 32 1 32 33
M  V30 33 2 33 34
M  V30 34 1 34 35
M  V30 35 1 34 36
M  V30 36 1 6 2
M  V30 37 1 20 7
M  V30 38 1 25 21
M  V30 39 2 35 31
M  V30 40 2 17 13
M  V30 41 1 1 37
M  V30 42 1 1 38
M  V30 43 1 2 39
M  V30 44 1 4 40
M  V30 45 1 7 41 CFG=1
M  V30 46 1 8 42 CFG=3
M  V30 47 1 9 43
M  V30 48 1 9 44
M  V30 49 1 10 45
M  V30 50 1 14 46
M  V30 51 1 15 47
M  V30 52 1 17 48
M  V30 53 1 19 49 CFG=1
M  V30 54 1 20 50 CFG=3
M  V30 55 1 23 51
M  V30 56 1 25 52
M  V30 57 1 26 53
M  V30 58 1 26 54
M  V30 59 1 27 55
M  V30 60 1 27 56
M  V30 61 1 28 57
M  V30 62 1 32 58
M  V30 63 1 33 59
M  V30 64 1 35 60
M  V30 END BOND
M  V30 END CTAB
M  END
