
     RDKit          3D

  0  0  0  0  0  0  0  0  0  0999 V3000
M  V30 BEGIN CTAB
M  V30 COUNTS 15 15 0 0 0
M  V30 BEGIN ATOM
M  V30 1 N -1.57468 -1.65317 0.286252 0
M  V30 2 C -0.38048 -0.892858 0.13589 0
M  V30 3 N 0.835675 -1.46539 0.161521 0
M  V30 4 C 1.96122 -0.746118 0.0194418 0
M  V30 5 Cl 3.51471 -1.58698 0.0667101 0
M  V30 6 C 1.95288 0.62484 -0.162182 0
M  V30 7 C 0.705012 1.21714 -0.189127 0
M  V30 8 Cl 0.659011 2.95992 -0.418554 0
M  V30 9 C -0.44827 0.485304 -0.0442304 0
M  V30 10 N -1.70731 1.10106 -0.0738039 0
M  V30 11 H -1.64177 -2.5738 -0.188265 0
M  V30 12 H -2.38625 -1.33367 0.848471 0
M  V30 13 H 2.87654 1.19299 -0.275846 0
M  V30 14 H -1.95476 1.83134 0.629319 0
M  V30 15 H -2.41153 0.839384 -0.795596 0
M  V30 END ATOM
M  V30 BEGIN BOND
M  V30 1 1 1 2
M  V30 2 2 2 3
M  V30 3 1 3 4
M  V30 4 1 4 5
M  V30 5 2 4 6
M  V30 6 1 6 7
M  V30 7 1 7 8
M  V30 8 2 7 9
M  V30 9 1 9 10
M  V30 10 1 9 2
M  V30 11 1 1 11
M  V30 12 1 1 12
M  V30 13 1 6 13
M  V30 14 1 10 14
M  V30 15 1 10 15
M  V30 END BOND
M  V30 END CTAB
M  END
