
     RDKit          3D

  0  0  0  0  0  0  0  0  0  0999 V3000
M  V30 BEGIN CTAB
M  V30 COUNTS 44 48 0 0 0
M  V30 BEGIN ATOM
M  V30 1 Cl -7.80514 0.985408 -2.32144 0
M  V30 2 C -6.86896 0.329802 -0.997875 0
M  V30 3 C -5.47219 0.33503 -1.02891 0
M  V30 4 C -4.73651 -0.181577 0.0140582 0
M  V30 5 C -5.4277 -0.701843 1.0853 0
M  V30 6 C -6.81428 -0.708552 1.1192 0
M  V30 7 C -7.5507 -0.191814 0.0759771 0
M  V30 8 N -8.97482 -0.213114 0.140201 0
M  V30 9 Cl -7.66854 -1.38153 2.50429 0
M  V30 10 N -3.29242 -0.179919 -0.0103927 0
M  V30 11 C -2.5421 0.828105 0.46905 0
M  V30 12 O -3.00017 1.87914 0.990655 0
M  V30 13 C -1.20896 0.541898 0.305868 0
M  V30 14 C -1.1852 -0.692466 -0.297721 0
M  V30 15 C -2.47458 -1.10546 -0.476967 0
M  V30 16 O -2.84689 -2.18718 -0.999034 0
M  V30 17 C 0.0521975 -1.23564 -0.584792 0
M  V30 18 C 1.23405 -0.563678 -0.277111 0
M  V30 19 C 1.1895 0.67358 0.328255 0
M  V30 20 C -0.0494131 1.20473 0.609474 0
M  V30 21 C 2.4797 1.10445 0.516236 0
M  V30 22 O 2.83057 2.18689 1.03903 0
M  V30 23 N 3.32572 0.162346 0.0410811 0
M  V30 24 C 2.56241 -0.848471 -0.439506 0
M  V30 25 O 3.00618 -1.89906 -0.960636 0
M  V30 26 C 4.73891 0.174541 0.0223496 0
M  V30 27 C 5.40518 0.654886 -1.07971 0
M  V30 28 C 6.78691 0.685716 -1.14154 0
M  V30 29 Cl 7.61396 1.29719 -2.54457 0
M  V30 30 C 7.52052 0.226132 -0.077996 0
M  V30 31 C 6.87598 -0.270272 1.0612 0
M  V30 32 C 5.47661 -0.284683 1.08509 0
M  V30 33 Cl 7.83707 -0.84929 2.40138 0
M  V30 34 N 8.94925 0.229933 -0.0772541 0
M  V30 35 H -4.95598 0.750247 -1.88333 0
M  V30 36 H -4.85667 -1.1117 1.91292 0
M  V30 37 H -9.5496 0.47084 -0.388756 0
M  V30 38 H -9.48432 -0.914829 0.719297 0
M  V30 39 H 0.0956712 -2.20326 -1.05838 0
M  V30 40 H -0.076587 2.1757 1.08441 0
M  V30 41 H 4.85858 1.02314 -1.93162 0
M  V30 42 H 5.01747 -0.677389 1.98666 0
M  V30 43 H 9.47302 1.12834 -0.104695 0
M  V30 44 H 9.51228 -0.646323 -0.0498442 0
M  V30 END ATOM
M  V30 BEGIN BOND
M  V30 1 1 1 2
M  V30 2 2 2 3
M  V30 3 1 3 4
M  V30 4 2 4 5
M  V30 5 1 5 6
M  V30 6 2 6 7
M  V30 7 1 7 8
M  V30 8 1 6 9
M  V30 9 1 4 10
M  V30 10 1 10 11
M  V30 11 2 11 12
M  V30 12 1 11 13
M  V30 13 2 13 14
M  V30 14 1 14 15
M  V30 15 2 15 16
M  V30 16 1 14 17
M  V30 17 2 17 18
M  V30 18 1 18 19
M  V30 19 2 19 20
M  V30 20 1 19 21
M  V30 21 2 21 22
M  V30 22 1 21 23
M  V30 23 1 23 24
M  V30 24 2 24 25
M  V30 25 1 23 26
M  V30 26 2 26 27
M  V30 27 1 27 28
M  V30 28 1 28 29
M  V30 29 2 28 30
M  V30 30 1 30 31
M  V30 31 2 31 32
M  V30 32 1 31 33
M  V30 33 1 30 34
M  V30 34 1 7 2
M  V30 35 1 15 10
M  V30 36 1 24 18
M  V30 37 1 32 26
M  V30 38 1 20 13
M  V30 39 1 3 35
M  V30 40 1 5 36
M  V30 41 1 8 37
M  V30 42 1 8 38
M  V30 43 1 17 39
M  V30 44 1 20 40
M  V30 45 1 27 41
M  V30 46 1 32 42
M  V30 47 1 34 43
M  V30 48 1 34 44
M  V30 END BOND
M  V30 END CTAB
M  END
