
     RDKit          3D

  0  0  0  0  0  0  0  0  0  0999 V3000
M  V30 BEGIN CTAB
M  V30 COUNTS 53 57 0 0 0
M  V30 BEGIN ATOM
M  V30 1 C 8.32493 2.4063 -1.26287 0
M  V30 2 C 7.01474 1.77435 -0.887684 0
M  V30 3 N 5.84723 2.33396 -1.26898 0
M  V30 4 C 4.6439 1.81636 -0.964501 0
M  V30 5 C 3.45973 2.39421 -1.35773 0
M  V30 6 C 2.23803 1.86406 -1.04502 0
M  V30 7 C 2.11151 0.674995 -0.289197 0
M  V30 8 N 0.82366 0.186262 -0.0376847 0
M  V30 9 C 0.449455 -0.658144 1.01992 0
M  V30 10 N 1.3393 -1.07132 1.93117 0
M  V30 11 C 0.995098 -1.87862 2.94677 0
M  V30 12 Cl 2.19818 -2.39656 4.12129 0
M  V30 13 N -0.279067 -2.28067 3.04759 0
M  V30 14 C -1.24057 -1.88437 2.13392 0
M  V30 15 N -2.5585 -2.37205 2.30186 0
M  V30 16 C -3.63689 -2.05007 1.47376 0
M  V30 17 C -4.75634 -2.91253 1.45699 0
M  V30 18 C -5.87169 -2.6781 0.704748 0
M  V30 19 C -5.9349 -1.55279 -0.0857135 0
M  V30 20 C -7.03816 -1.28415 -0.855056 0
M  V30 21 N -7.05949 -0.170136 -1.61562 0
M  V30 22 C -6.01412 0.697643 -1.64141 0
M  V30 23 C -6.11628 1.89687 -2.50242 0
M  V30 24 C -4.89608 0.455847 -0.882226 0
M  V30 25 N -3.79875 1.33537 -0.888196 0
M  V30 26 C -4.8594 -0.674441 -0.102526 0
M  V30 27 C -3.72702 -0.940794 0.68077 0
M  V30 28 N -0.805742 -1.09316 1.17436 0
M  V30 29 C 3.30111 0.110266 0.0946706 0
M  V30 30 C 4.55043 0.661415 -0.230403 0
M  V30 31 C 5.72026 0.0568059 0.179613 0
M  V30 32 N 5.65123 -1.1282 0.933289 0
M  V30 33 C 6.95991 0.612235 -0.1482 0
M  V30 34 H 8.20719 2.74088 -2.3198 0
M  V30 35 H 9.14433 1.7044 -1.11889 0
M  V30 36 H 8.39612 3.33161 -0.646159 0
M  V30 37 H 3.53316 3.30503 -1.93716 0
M  V30 38 H 1.29814 2.3208 -1.35585 0
M  V30 39 H 0.0251938 0.462826 -0.697592 0
M  V30 40 H -2.699 -3.03286 3.13884 0
M  V30 41 H -4.70072 -3.80773 2.08866 0
M  V30 42 H -6.73371 -3.32831 0.682476 0
M  V30 43 H -7.86916 -1.98634 -0.826238 0
M  V30 44 H -7.15893 2.18736 -2.67485 0
M  V30 45 H -5.66765 1.70488 -3.51002 0
M  V30 46 H -5.57069 2.75229 -2.0156 0
M  V30 47 H -3.43663 1.63457 -1.83602 0
M  V30 48 H -3.31725 1.71351 -0.0661024 0
M  V30 49 H -2.94309 -0.194049 0.620513 0
M  V30 50 H 3.32315 -0.805185 0.655188 0
M  V30 51 H 6.16342 -1.19039 1.83321 0
M  V30 52 H 5.07358 -1.93264 0.559596 0
M  V30 53 H 7.89683 0.168509 0.154366 0
M  V30 END ATOM
M  V30 BEGIN BOND
M  V30 1 1 1 2
M  V30 2 2 2 3
M  V30 3 1 3 4
M  V30 4 2 4 5
M  V30 5 1 5 6
M  V30 6 2 6 7
M  V30 7 1 7 8
M  V30 8 1 8 9
M  V30 9 2 9 10
M  V30 10 1 10 11
M  V30 11 1 11 12
M  V30 12 2 11 13
M  V30 13 1 13 14
M  V30 14 1 14 15
M  V30 15 1 15 16
M  V30 16 2 16 17
M  V30 17 1 17 18
M  V30 18 2 18 19
M  V30 19 1 19 20
M  V30 20 2 20 21
M  V30 21 1 21 22
M  V30 22 1 22 23
M  V30 23 2 22 24
M  V30 24 1 24 25
M  V30 25 1 24 26
M  V30 26 2 26 27
M  V30 27 2 14 28
M  V30 28 1 7 29
M  V30 29 2 29 30
M  V30 30 1 30 31
M  V30 31 1 31 32
M  V30 32 2 31 33
M  V30 33 1 33 2
M  V30 34 1 30 4
M  V30 35 1 28 9
M  V30 36 1 27 16
M  V30 37 1 26 19
M  V30 38 1 1 34
M  V30 39 1 1 35
M  V30 40 1 1 36
M  V30 41 1 5 37
M  V30 42 1 6 38
M  V30 43 1 8 39
M  V30 44 1 15 40
M  V30 45 1 17 41
M  V30 46 1 18 42
M  V30 47 1 20 43
M  V30 48 1 23 44
M  V30 49 1 23 45
M  V30 50 1 23 46
M  V30 51 1 25 47
M  V30 52 1 25 48
M  V30 53 1 27 49
M  V30 54 1 29 50
M  V30 55 1 32 51
M  V30 56 1 32 52
M  V30 57 1 33 53
M  V30 END BOND
M  V30 END CTAB
M  END
