
     RDKit          3D

  0  0  0  0  0  0  0  0  0  0999 V3000
M  V30 BEGIN CTAB
M  V30 COUNTS 17 16 0 0 0
M  V30 BEGIN ATOM
M  V30 1 N -2.89072 -1.55313 0.542817 0
M  V30 2 C -1.94219 -0.602031 0.056681 0
M  V30 3 N -2.35322 0.512687 -0.429488 0
M  V30 4 N -1.51772 1.50246 -0.926991 0
M  V30 5 S -0.234818 -1.04474 0.165496 0
M  V30 6 C 0.910485 0.176472 -0.461461 0
M  V30 7 C 2.30685 -0.350734 -0.292729 0
M  V30 8 C 3.21753 0.273837 0.436548 0
M  V30 9 H -2.70101 -2.56845 0.403914 0
M  V30 10 H -3.77416 -1.30182 1.03491 0
M  V30 11 H -1.17964 2.24238 -0.302628 0
M  V30 12 H -1.2462 1.4912 -1.92144 0
M  V30 13 H 0.88312 1.13826 0.0751621 0
M  V30 14 H 0.781244 0.313266 -1.57587 0
M  V30 15 H 2.53035 -1.26919 -0.799041 0
M  V30 16 H 4.20738 -0.158024 0.518988 0
M  V30 17 H 3.00273 1.19757 0.949437 0
M  V30 END ATOM
M  V30 BEGIN BOND
M  V30 1 1 1 2
M  V30 2 2 2 3
M  V30 3 1 3 4
M  V30 4 1 2 5
M  V30 5 1 5 6
M  V30 6 1 6 7
M  V30 7 2 7 8 CFG=2
M  V30 8 1 1 9
M  V30 9 1 1 10
M  V30 10 1 4 11
M  V30 11 1 4 12
M  V30 12 1 6 13
M  V30 13 1 6 14
M  V30 14 1 7 15
M  V30 15 1 8 16
M  V30 16 1 8 17
M  V30 END BOND
M  V30 END CTAB
M  END
