
     RDKit          3D

  0  0  0  0  0  0  0  0  0  0999 V3000
M  V30 BEGIN CTAB
M  V30 COUNTS 26 25 0 0 0
M  V30 BEGIN ATOM
M  V30 1 N 3.10108 1.05475 0.791571 0
M  V30 2 N 1.8488 0.811944 0.268001 0
M  V30 3 C 1.35204 -0.351874 0.0639884 0
M  V30 4 N 0.0513434 -0.425992 -0.480437 0
M  V30 5 C -1.05645 0.324451 0.0591359 0
M  V30 6 C -1.29296 -0.0545364 1.49589 0
M  V30 7 C -2.31563 -0.0111592 -0.716943 0
M  V30 8 C -0.86245 1.82017 -0.0826521 0
M  V30 9 C -0.121714 -1.31465 -1.63659 0
M  V30 10 N 2.14449 -1.47133 0.399686 0
M  V30 11 H 3.26732 1.69481 1.61402 0
M  V30 12 H 3.93197 0.600276 0.376436 0
M  V30 13 H -0.363237 -0.0436941 2.08626 0
M  V30 14 H -2.08745 0.590575 1.90821 0
M  V30 15 H -1.66791 -1.09777 1.50177 0
M  V30 16 H -2.69434 -1.02859 -0.476223 0
M  V30 17 H -2.20636 0.179389 -1.79039 0
M  V30 18 H -3.10558 0.690486 -0.315701 0
M  V30 19 H -0.389274 2.01353 -1.05422 0
M  V30 20 H -0.297016 2.25108 0.767661 0
M  V30 21 H -1.87305 2.279 -0.045449 0
M  V30 22 H -1.16222 -1.57302 -1.81814 0
M  V30 23 H 0.444043 -2.25013 -1.35585 0
M  V30 24 H 0.421456 -0.879824 -2.48214 0
M  V30 25 H 2.67706 -1.91813 -0.401328 0
M  V30 26 H 2.25604 -1.88976 1.32343 0
M  V30 END ATOM
M  V30 BEGIN BOND
M  V30 1 1 1 2
M  V30 2 2 2 3 CFG=2
M  V30 3 1 3 4
M  V30 4 1 4 5
M  V30 5 1 5 6
M  V30 6 1 5 7
M  V30 7 1 5 8
M  V30 8 1 4 9
M  V30 9 1 3 10
M  V30 10 1 1 11
M  V30 11 1 1 12
M  V30 12 1 6 13
M  V30 13 1 6 14
M  V30 14 1 6 15
M  V30 15 1 7 16
M  V30 16 1 7 17
M  V30 17 1 7 18
M  V30 18 1 8 19
M  V30 19 1 8 20
M  V30 20 1 8 21
M  V30 21 1 9 22
M  V30 22 1 9 23
M  V30 23 1 9 24
M  V30 24 1 10 25
M  V30 25 1 10 26
M  V30 END BOND
M  V30 END CTAB
M  END
