
     RDKit          3D

  0  0  0  0  0  0  0  0  0  0999 V3000
M  V30 BEGIN CTAB
M  V30 COUNTS 41 40 0 0 0
M  V30 BEGIN ATOM
M  V30 1 C -1.7241 -0.361982 -2.51298 0
M  V30 2 C -2.07123 -0.996821 -1.20056 0
M  V30 3 C -1.89753 -2.49246 -1.38259 0
M  V30 4 P -1.06875 -0.443997 0.196925 0
M  V30 5 O -0.338277 -1.62611 0.78429 0
M  V30 6 C 0.218677 0.705543 -0.35172 0
M  V30 7 C 1.48826 0.00264365 -0.590325 0
M  V30 8 C 2.56139 0.891071 -1.18212 0
M  V30 9 O 3.35522 0.291202 -1.91446 0
M  V30 10 N 2.61199 2.24537 -0.893232 0
M  V30 11 N 2.65974 3.52141 -0.621101 0
M  V30 12 C 2.15545 -0.413142 0.726612 0
M  V30 13 O 2.01119 0.51698 1.58704 0
M  V30 14 N 2.77489 -1.62078 0.793865 0
M  V30 15 N 3.40016 -2.80718 0.899925 0
M  V30 16 C -2.12819 0.241597 1.48118 0
M  V30 17 C -2.88254 1.45836 1.07455 0
M  V30 18 C -1.41876 0.424328 2.80443 0
M  V30 19 H -0.846358 0.315268 -2.51163 0
M  V30 20 H -1.52292 -1.09639 -3.32262 0
M  V30 21 H -2.57261 0.273123 -2.89147 0
M  V30 22 H -3.13528 -0.813174 -0.965667 0
M  V30 23 H -1.79298 -2.9321 -0.373183 0
M  V30 24 H -0.906027 -2.66635 -1.91208 0
M  V30 25 H -2.74835 -2.93165 -1.91786 0
M  V30 26 H 0.400482 1.3698 0.565054 0
M  V30 27 H -0.0884208 1.4164 -1.10125 0
M  V30 28 H 1.35758 -0.880498 -1.19599 0
M  V30 29 H 3.75762 2.39521 -1.59291 0
M  V30 30 H 2.5444 3.84154 0.366194 0
M  V30 31 H 1.98608 4.08468 -1.19621 0
M  V30 32 H 3.3252 -1.2083 1.9916 0
M  V30 33 H 3.85471 -3.09319 1.77799 0
M  V30 34 H 2.83462 -3.65749 0.611633 0
M  V30 35 H -2.90478 -0.566345 1.68055 0
M  V30 36 H -3.99312 1.36588 1.32732 0
M  V30 37 H -2.84568 1.55575 -0.0332875 0
M  V30 38 H -2.55612 2.35075 1.60786 0
M  V30 39 H -1.16382 -0.587145 3.20482 0
M  V30 40 H -2.14693 0.878843 3.52918 0
M  V30 41 H -0.544893 1.04936 2.65222 0
M  V30 END ATOM
M  V30 BEGIN BOND
M  V30 1 1 1 2
M  V30 2 1 2 3
M  V30 3 1 2 4
M  V30 4 2 4 5
M  V30 5 1 4 6
M  V30 6 1 6 7
M  V30 7 1 7 8
M  V30 8 2 8 9
M  V30 9 1 8 10
M  V30 10 1 10 11
M  V30 11 1 7 12
M  V30 12 2 12 13
M  V30 13 1 12 14
M  V30 14 1 14 15
M  V30 15 1 4 16
M  V30 16 1 16 17
M  V30 17 1 16 18
M  V30 18 1 1 19
M  V30 19 1 1 20
M  V30 20 1 1 21
M  V30 21 1 2 22
M  V30 22 1 3 23
M  V30 23 1 3 24
M  V30 24 1 3 25
M  V30 25 1 6 26
M  V30 26 1 6 27
M  V30 27 1 7 28
M  V30 28 1 10 29
M  V30 29 1 11 30
M  V30 30 1 11 31
M  V30 31 1 14 32
M  V30 32 1 15 33
M  V30 33 1 15 34
M  V30 34 1 16 35
M  V30 35 1 17 36
M  V30 36 1 17 37
M  V30 37 1 17 38
M  V30 38 1 18 39
M  V30 39 1 18 40
M  V30 40 1 18 41
M  V30 END BOND
M  V30 END CTAB
M  END
