
     RDKit          3D

  0  0  0  0  0  0  0  0  0  0999 V3000
M  V30 BEGIN CTAB
M  V30 COUNTS 37 36 0 0 0
M  V30 BEGIN ATOM
M  V30 1 C -1.39895 -0.674506 -1.95647 0
M  V30 2 C -1.15654 0.354912 -0.891219 0
M  V30 3 C 0.248375 0.542387 -0.471903 0
M  V30 4 C 0.997883 -0.603399 0.0817733 0
M  V30 5 O 0.541182 -1.19827 1.21278 0
M  V30 6 C 2.44355 -0.152896 0.292154 0
M  V30 7 C 3.32674 -1.33483 0.641189 0
M  V30 8 C 3.01969 0.509804 -0.939912 0
M  V30 9 N 2.55382 0.795375 1.38401 0
M  V30 10 C -2.22032 0.437754 0.160422 0
M  V30 11 C -3.57171 0.820323 -0.501913 0
M  V30 12 C -2.49043 -0.824251 0.908367 0
M  V30 13 N -1.9742 1.4866 1.12673 0
M  V30 14 H -0.6748 -0.517943 -2.75954 0
M  V30 15 H -2.41061 -0.457891 -2.40996 0
M  V30 16 H -1.4599 -1.70376 -1.58038 0
M  V30 17 H -1.36612 1.3401 -1.5009 0
M  V30 18 H 0.35999 1.38414 0.282235 0
M  V30 19 H 0.890111 0.931128 -1.32764 0
M  V30 20 H 1.0824 -1.3946 -0.713417 0
M  V30 21 H 0.707115 -0.740074 2.05194 0
M  V30 22 H 4.21496 -1.01706 1.22545 0
M  V30 23 H 3.68228 -1.83024 -0.285697 0
M  V30 24 H 2.78788 -2.06488 1.29865 0
M  V30 25 H 2.77598 1.59924 -0.945566 0
M  V30 26 H 4.13069 0.366648 -0.878887 0
M  V30 27 H 2.63935 0.0268487 -1.84991 0
M  V30 28 H 2.73648 0.253358 2.26891 0
M  V30 29 H 3.42817 1.34372 1.21622 0
M  V30 30 H -3.93284 -0.037006 -1.07947 0
M  V30 31 H -4.25634 1.10279 0.316395 0
M  V30 32 H -3.38691 1.72095 -1.11682 0
M  V30 33 H -2.15039 -1.70479 0.351735 0
M  V30 34 H -3.61197 -0.953595 0.979262 0
M  V30 35 H -2.17736 -0.788615 1.97192 0
M  V30 36 H -1.48547 1.06049 1.96221 0
M  V30 37 H -2.8418 1.92204 1.47725 0
M  V30 END ATOM
M  V30 BEGIN BOND
M  V30 1 1 1 2
M  V30 2 1 2 3
M  V30 3 1 3 4
M  V30 4 1 4 5
M  V30 5 1 4 6
M  V30 6 1 6 7
M  V30 7 1 6 8
M  V30 8 1 6 9
M  V30 9 1 2 10
M  V30 10 1 10 11
M  V30 11 1 10 12
M  V30 12 1 10 13
M  V30 13 1 1 14
M  V30 14 1 1 15
M  V30 15 1 1 16
M  V30 16 1 2 17
M  V30 17 1 3 18
M  V30 18 1 3 19
M  V30 19 1 4 20
M  V30 20 1 5 21
M  V30 21 1 7 22
M  V30 22 1 7 23
M  V30 23 1 7 24
M  V30 24 1 8 25
M  V30 25 1 8 26
M  V30 26 1 8 27
M  V30 27 1 9 28
M  V30 28 1 9 29
M  V30 29 1 11 30
M  V30 30 1 11 31
M  V30 31 1 11 32
M  V30 32 1 12 33
M  V30 33 1 12 34
M  V30 34 1 12 35
M  V30 35 1 13 36
M  V30 36 1 13 37
M  V30 END BOND
M  V30 END CTAB
M  END
