
     RDKit          3D

  0  0  0  0  0  0  0  0  0  0999 V3000
M  V30 BEGIN CTAB
M  V30 COUNTS 40 41 0 0 0
M  V30 BEGIN ATOM
M  V30 1 C -2.46791 2.79491 1.70446 0
M  V30 2 O -1.83896 2.10109 0.677865 0
M  V30 3 C -2.40636 1.07523 -0.00469511 0
M  V30 4 C -3.66625 0.622148 0.260488 0
M  V30 5 C -4.18992 -0.444559 -0.482391 0
M  V30 6 O -5.47067 -0.842854 -0.160911 0
M  V30 7 C -6.08223 -1.90821 -0.805919 0
M  V30 8 C -3.4233 -1.00788 -1.4604 0
M  V30 9 C -2.14872 -0.570149 -1.75119 0
M  V30 10 C -1.67321 0.474873 -1.00257 0
M  V30 11 C -0.314085 0.976284 -1.28592 0
M  V30 12 C 0.639674 0.386073 -0.305096 0
M  V30 13 O 0.912712 -0.862096 -0.375787 0
M  V30 14 O 1.26186 1.09944 0.69128 0
M  V30 15 C 2.1837 0.57319 1.61948 0
M  V30 16 C 3.39252 0.0357519 0.905779 0
M  V30 17 N 3.96638 0.725263 -0.096051 0
M  V30 18 C 5.04761 0.222463 -0.723225 0
M  V30 19 N 5.63173 0.973447 -1.77812 0
M  V30 20 N 5.54493 -0.961657 -0.345756 0
M  V30 21 C 4.99383 -1.69684 0.666844 0
M  V30 22 N 3.91792 -1.13857 1.25073 0
M  V30 23 N 5.54998 -2.95106 1.03784 0
M  V30 24 H -1.73277 2.94439 2.55789 0
M  V30 25 H -2.84729 3.79436 1.36863 0
M  V30 26 H -3.33034 2.30295 2.17644 0
M  V30 27 H -4.31882 1.05311 1.03696 0
M  V30 28 H -5.40487 -2.65151 -1.23364 0
M  V30 29 H -6.77868 -1.50181 -1.59368 0
M  V30 30 H -6.76482 -2.48969 -0.123587 0
M  V30 31 H -3.806 -1.84109 -2.06184 0
M  V30 32 H -1.59805 -1.05919 -2.53427 0
M  V30 33 H 0.00438334 0.684394 -2.30082 0
M  V30 34 H -0.311228 2.0962 -1.21155 0
M  V30 35 H 2.5415 1.4193 2.23811 0
M  V30 36 H 1.74446 -0.170714 2.29024 0
M  V30 37 H 5.06856 1.60029 -2.38756 0
M  V30 38 H 6.66763 0.946757 -2.01317 0
M  V30 39 H 6.01009 -3.06252 1.95551 0
M  V30 40 H 5.49501 -3.74151 0.391041 0
M  V30 END ATOM
M  V30 BEGIN BOND
M  V30 1 1 1 2
M  V30 2 1 2 3
M  V30 3 2 3 4
M  V30 4 1 4 5
M  V30 5 1 5 6
M  V30 6 1 6 7
M  V30 7 2 5 8
M  V30 8 1 8 9
M  V30 9 2 9 10
M  V30 10 1 10 11
M  V30 11 1 11 12
M  V30 12 2 12 13
M  V30 13 1 12 14
M  V30 14 1 14 15
M  V30 15 1 15 16
M  V30 16 2 16 17
M  V30 17 1 17 18
M  V30 18 1 18 19
M  V30 19 2 18 20
M  V30 20 1 20 21
M  V30 21 2 21 22
M  V30 22 1 21 23
M  V30 23 1 10 3
M  V30 24 1 22 16
M  V30 25 1 1 24
M  V30 26 1 1 25
M  V30 27 1 1 26
M  V30 28 1 4 27
M  V30 29 1 7 28
M  V30 30 1 7 29
M  V30 31 1 7 30
M  V30 32 1 8 31
M  V30 33 1 9 32
M  V30 34 1 11 33
M  V30 35 1 11 34
M  V30 36 1 15 35
M  V30 37 1 15 36
M  V30 38 1 19 37
M  V30 39 1 19 38
M  V30 40 1 23 39
M  V30 41 1 23 40
M  V30 END BOND
M  V30 END CTAB
M  END
