
     RDKit          3D

  0  0  0  0  0  0  0  0  0  0999 V3000
M  V30 BEGIN CTAB
M  V30 COUNTS 26 27 0 0 0
M  V30 BEGIN ATOM
M  V30 1 N -4.22453 0.461613 0.383267 0
M  V30 2 C -2.80592 0.415853 0.291292 0
M  V30 3 C -2.18494 -0.749593 -0.112885 0
M  V30 4 N -2.95892 -1.90829 -0.436838 0
M  V30 5 C -0.815259 -0.863246 -0.225855 0
M  V30 6 C -0.00744731 0.219984 0.0721851 0
M  V30 7 C -0.628937 1.38889 0.477217 0
M  V30 8 C -1.99475 1.49943 0.588879 0
M  V30 9 C 1.44428 0.129649 -0.0375612 0
M  V30 10 C 2.28092 0.862919 0.791078 0
M  V30 11 C 3.65582 0.784667 0.694976 0
M  V30 12 C 4.24438 -0.0276549 -0.230704 0
M  V30 13 F 5.60663 -0.139157 -0.3661 0
M  V30 14 C 3.45454 -0.770158 -1.06987 0
M  V30 15 C 2.08279 -0.68109 -0.961626 0
M  V30 16 H -4.77151 0.225588 -0.477238 0
M  V30 17 H -4.72153 0.716307 1.25604 0
M  V30 18 H -3.82354 -1.74459 -1.02747 0
M  V30 19 H -2.69199 -2.87368 -0.112977 0
M  V30 20 H -0.32542 -1.78286 -0.545223 0
M  V30 21 H 0.0209129 2.21996 0.704266 0
M  V30 22 H -2.45914 2.43481 0.911511 0
M  V30 23 H 1.88526 1.5254 1.54577 0
M  V30 24 H 4.31773 1.36426 1.34902 0
M  V30 25 H 3.93564 -1.42336 -1.81406 0
M  V30 26 H 1.48491 -1.28566 -1.64708 0
M  V30 END ATOM
M  V30 BEGIN BOND
M  V30 1 1 1 2
M  V30 2 2 2 3
M  V30 3 1 3 4
M  V30 4 1 3 5
M  V30 5 2 5 6
M  V30 6 1 6 7
M  V30 7 2 7 8
M  V30 8 1 6 9
M  V30 9 2 9 10
M  V30 10 1 10 11
M  V30 11 2 11 12
M  V30 12 1 12 13
M  V30 13 1 12 14
M  V30 14 2 14 15
M  V30 15 1 8 2
M  V30 16 1 15 9
M  V30 17 1 1 16
M  V30 18 1 1 17
M  V30 19 1 4 18
M  V30 20 1 4 19
M  V30 21 1 5 20
M  V30 22 1 7 21
M  V30 23 1 8 22
M  V30 24 1 10 23
M  V30 25 1 11 24
M  V30 26 1 14 25
M  V30 27 1 15 26
M  V30 END BOND
M  V30 END CTAB
M  END
