
     RDKit          3D

  0  0  0  0  0  0  0  0  0  0999 V3000
M  V30 BEGIN CTAB
M  V30 COUNTS 26 27 0 0 0
M  V30 BEGIN ATOM
M  V30 1 N 5.12206 -0.794456 0.367549 0
M  V30 2 N 3.73961 -0.762466 0.270695 0
M  V30 3 C 3.04328 0.461149 0.298411 0
M  V30 4 O 3.7232 1.52427 0.414394 0
M  V30 5 C 1.58254 0.548471 0.199461 0
M  V30 6 C 0.969392 1.78143 0.233868 0
M  V30 7 C -0.394958 1.9589 0.147525 0
M  V30 8 C -1.20365 0.839335 0.018595 0
M  V30 9 C -0.602601 -0.399811 -0.0170703 0
M  V30 10 C 0.781007 -0.561453 0.0716559 0
M  V30 11 N -1.41793 -1.48307 -0.144176 0
M  V30 12 C -2.75265 -1.33168 -0.230063 0
M  V30 13 O -3.46509 -2.36215 -0.346458 0
M  V30 14 N -3.34273 -0.129695 -0.195972 0
M  V30 15 C -2.58274 0.970018 -0.0717786 0
M  V30 16 O -3.09062 2.10719 -0.0359234 0
M  V30 17 N -4.75442 -0.0453789 -0.291632 0
M  V30 18 H 5.48508 -0.667947 1.32807 0
M  V30 19 H 5.54212 -1.62274 -0.122553 0
M  V30 20 H 3.21667 -1.64968 0.177079 0
M  V30 21 H 1.61604 2.66567 0.336265 0
M  V30 22 H -0.857554 2.93981 0.176699 0
M  V30 23 H 1.19435 -1.53695 0.0393008 0
M  V30 24 H -0.950918 -2.41313 -0.169803 0
M  V30 25 H -5.22876 0.581162 -0.975425 0
M  V30 26 H -5.37072 -0.616786 0.329161 0
M  V30 END ATOM
M  V30 BEGIN BOND
M  V30 1 1 1 2
M  V30 2 1 2 3
M  V30 3 2 3 4
M  V30 4 1 3 5
M  V30 5 2 5 6
M  V30 6 1 6 7
M  V30 7 2 7 8
M  V30 8 1 8 9
M  V30 9 2 9 10
M  V30 10 1 9 11
M  V30 11 1 11 12
M  V30 12 2 12 13
M  V30 13 1 12 14
M  V30 14 1 14 15
M  V30 15 2 15 16
M  V30 16 1 14 17
M  V30 17 1 10 5
M  V30 18 1 15 8
M  V30 19 1 1 18
M  V30 20 1 1 19
M  V30 21 1 2 20
M  V30 22 1 6 21
M  V30 23 1 7 22
M  V30 24 1 10 23
M  V30 25 1 11 24
M  V30 26 1 17 25
M  V30 27 1 17 26
M  V30 END BOND
M  V30 END CTAB
M  END
