
     RDKit          3D

  0  0  0  0  0  0  0  0  0  0999 V3000
M  V30 BEGIN CTAB
M  V30 COUNTS 31 31 0 0 0
M  V30 BEGIN ATOM
M  V30 1 C -4.39836 0.311954 0.000474385 0
M  V30 2 C -3.29091 0.448221 -0.704584 0
M  V30 3 C -1.94846 0.0739122 -0.166294 0
M  V30 4 N -0.90065 0.629754 -0.953255 0
M  V30 5 C 0.47499 0.470618 -0.720688 0
M  V30 6 C 1.41037 1.06351 -1.56217 0
M  V30 7 C 2.7714 0.946028 -1.38894 0
M  V30 8 C 3.2569 0.199364 -0.32223 0
M  V30 9 C 2.36625 -0.406015 0.537247 0
M  V30 10 C 1.0166 -0.254739 0.315871 0
M  V30 11 N 2.86183 -1.17721 1.63907 0
M  V30 12 N 4.64227 0.0356119 -0.0829267 0
M  V30 13 C -1.93713 -1.4484 -0.134759 0
M  V30 14 C -1.93778 0.574432 1.27939 0
M  V30 15 H -4.34619 -0.0826876 1.00277 0
M  V30 16 H -5.33604 0.603917 -0.454236 0
M  V30 17 H -3.32851 0.842236 -1.70988 0
M  V30 18 H -1.1866 1.21859 -1.79296 0
M  V30 19 H 1.07323 1.65234 -2.40319 0
M  V30 20 H 3.50392 1.40405 -2.03896 0
M  V30 21 H 0.363672 -0.74508 1.01231 0
M  V30 22 H 2.65861 -0.881589 2.61588 0
M  V30 23 H 3.4281 -2.03819 1.49623 0
M  V30 24 H 5.0471 0.0221968 0.87747 0
M  V30 25 H 5.30984 -0.0783502 -0.873737 0
M  V30 26 H -1.97629 -1.8429 0.900744 0
M  V30 27 H -1.00089 -1.8225 -0.641406 0
M  V30 28 H -2.76981 -1.89902 -0.690108 0
M  V30 29 H -2.04853 -0.262889 2.00029 0
M  V30 30 H -2.77298 1.27288 1.49013 0
M  V30 31 H -1.00594 1.16995 1.47244 0
M  V30 END ATOM
M  V30 BEGIN BOND
M  V30 1 2 1 2 CFG=2
M  V30 2 1 2 3
M  V30 3 1 3 4
M  V30 4 1 4 5
M  V30 5 2 5 6
M  V30 6 1 6 7
M  V30 7 2 7 8
M  V30 8 1 8 9
M  V30 9 2 9 10
M  V30 10 1 9 11
M  V30 11 1 8 12
M  V30 12 1 3 13
M  V30 13 1 3 14
M  V30 14 1 10 5
M  V30 15 1 1 15
M  V30 16 1 1 16
M  V30 17 1 2 17
M  V30 18 1 4 18
M  V30 19 1 6 19
M  V30 20 1 7 20
M  V30 21 1 10 21
M  V30 22 1 11 22
M  V30 23 1 11 23
M  V30 24 1 12 24
M  V30 25 1 12 25
M  V30 26 1 13 26
M  V30 27 1 13 27
M  V30 28 1 13 28
M  V30 29 1 14 29
M  V30 30 1 14 30
M  V30 31 1 14 31
M  V30 END BOND
M  V30 END CTAB
M  END
