
     RDKit          3D

  0  0  0  0  0  0  0  0  0  0999 V3000
M  V30 BEGIN CTAB
M  V30 COUNTS 34 35 0 0 0
M  V30 BEGIN ATOM
M  V30 1 N -1.42137 3.56951 0.546535 0
M  V30 2 N -1.15515 2.20061 0.359311 0
M  V30 3 C -2.20942 1.37768 -0.0837512 0
M  V30 4 O -3.34096 1.96482 -0.288953 0
M  V30 5 C -2.15855 -0.049538 -0.344299 0
M  V30 6 C -3.39401 -0.68785 -0.641685 0
M  V30 7 C -3.4302 -2.05065 -0.803781 0
M  V30 8 N -4.65683 -2.7051 -1.16499 0
M  V30 9 C -2.26533 -2.75389 -0.667672 0
M  V30 10 C -1.01722 -2.18143 -0.374292 0
M  V30 11 C -1.04029 -0.778855 -0.230202 0
M  V30 12 O 0.205224 -0.217604 0.0602852 0
M  V30 13 C 1.36947 -0.982485 0.123747 0
M  V30 14 C 2.52339 -0.0596423 0.433224 0
M  V30 15 C 3.30792 -0.234825 1.5599 0
M  V30 16 C 4.44601 0.513143 1.76351 0
M  V30 17 C 4.76758 1.445 0.805144 0
M  V30 18 C 4.02231 1.66113 -0.334586 0
M  V30 19 C 2.89423 0.89505 -0.513417 0
M  V30 20 Cl 1.87894 1.11516 -1.91329 0
M  V30 21 F 5.8706 2.22274 0.965315 0
M  V30 22 H -2.46478 3.70896 0.531957 0
M  V30 23 H -0.959066 4.17472 -0.169822 0
M  V30 24 H -0.215592 1.86644 0.539054 0
M  V30 25 H -4.30156 -0.149224 -0.744654 0
M  V30 26 H -4.84826 -3.66138 -0.844362 0
M  V30 27 H -5.3655 -2.22045 -1.76236 0
M  V30 28 H -2.23573 -3.8427 -0.783712 0
M  V30 29 H -0.1124 -2.73042 -0.26604 0
M  V30 30 H 1.21524 -1.61951 1.05967 0
M  V30 31 H 1.63954 -1.589 -0.731473 0
M  V30 32 H 3.08353 -0.981206 2.3369 0
M  V30 33 H 5.07359 0.343594 2.65968 0
M  V30 34 H 4.29464 2.43719 -1.0809 0
M  V30 END ATOM
M  V30 BEGIN BOND
M  V30 1 1 1 2
M  V30 2 1 2 3
M  V30 3 2 3 4
M  V30 4 1 3 5
M  V30 5 2 5 6
M  V30 6 1 6 7
M  V30 7 1 7 8
M  V30 8 2 7 9
M  V30 9 1 9 10
M  V30 10 2 10 11
M  V30 11 1 11 12
M  V30 12 1 12 13
M  V30 13 1 13 14
M  V30 14 2 14 15
M  V30 15 1 15 16
M  V30 16 2 16 17
M  V30 17 1 17 18
M  V30 18 2 18 19
M  V30 19 1 19 20
M  V30 20 1 17 21
M  V30 21 1 11 5
M  V30 22 1 19 14
M  V30 23 1 1 22
M  V30 24 1 1 23
M  V30 25 1 2 24
M  V30 26 1 6 25
M  V30 27 1 8 26
M  V30 28 1 8 27
M  V30 29 1 9 28
M  V30 30 1 10 29
M  V30 31 1 13 30
M  V30 32 1 13 31
M  V30 33 1 15 32
M  V30 34 1 16 33
M  V30 35 1 18 34
M  V30 END BOND
M  V30 END CTAB
M  END
