
     RDKit          3D

  0  0  0  0  0  0  0  0  0  0999 V3000
M  V30 BEGIN CTAB
M  V30 COUNTS 33 34 0 0 0
M  V30 BEGIN ATOM
M  V30 1 O -1.47168 2.2585 1.30941 0
M  V30 2 C -1.49526 1.00042 0.976493 0
M  V30 3 N -2.75524 0.483537 0.742541 0
M  V30 4 C -3.9344 1.30557 0.919945 0
M  V30 5 C -4.9641 1.07784 -0.153041 0
M  V30 6 O -4.42989 0.339158 -1.1928 0
M  V30 7 C -4.02633 -0.935687 -0.768174 0
M  V30 8 C -2.9436 -0.869616 0.295511 0
M  V30 9 C -0.177023 0.391839 0.917346 0
M  V30 10 S 0.503924 0.195294 -0.722947 0
M  V30 11 C 2.24624 -0.172584 -0.56385 0
M  V30 12 N 2.75761 -1.39425 -0.395529 0
M  V30 13 C 4.08828 -1.6225 -0.304245 0
M  V30 14 N 4.61687 -2.92628 -0.107065 0
M  V30 15 C 4.91492 -0.508364 -0.396326 0
M  V30 16 C 4.41764 0.766736 -0.570708 0
M  V30 17 N 3.0969 0.896102 -0.64832 0
M  V30 18 N 5.29429 1.91066 -0.669051 0
M  V30 19 H -4.44159 1.09171 1.90687 0
M  V30 20 H -3.63838 2.38138 0.973682 0
M  V30 21 H -5.24101 2.07884 -0.578549 0
M  V30 22 H -5.89326 0.619054 0.26135 0
M  V30 23 H -4.89056 -1.55221 -0.469232 0
M  V30 24 H -3.56497 -1.40968 -1.66324 0
M  V30 25 H -1.96266 -1.26467 -0.104356 0
M  V30 26 H -3.19173 -1.58038 1.1123 0
M  V30 27 H 0.557309 0.921256 1.55405 0
M  V30 28 H -0.281104 -0.65447 1.33683 0
M  V30 29 H 4.63115 -3.29684 0.864616 0
M  V30 30 H 4.9781 -3.49221 -0.884092 0
M  V30 31 H 6.00465 -0.665026 -0.329431 0
M  V30 32 H 5.54294 2.3576 0.240101 0
M  V30 33 H 5.65197 2.26927 -1.57407 0
M  V30 END ATOM
M  V30 BEGIN BOND
M  V30 1 2 1 2
M  V30 2 1 2 3
M  V30 3 1 3 4
M  V30 4 1 4 5
M  V30 5 1 5 6
M  V30 6 1 6 7
M  V30 7 1 7 8
M  V30 8 1 2 9
M  V30 9 1 9 10
M  V30 10 1 10 11
M  V30 11 2 11 12
M  V30 12 1 12 13
M  V30 13 1 13 14
M  V30 14 2 13 15
M  V30 15 1 15 16
M  V30 16 2 16 17
M  V30 17 1 16 18
M  V30 18 1 8 3
M  V30 19 1 17 11
M  V30 20 1 4 19
M  V30 21 1 4 20
M  V30 22 1 5 21
M  V30 23 1 5 22
M  V30 24 1 7 23
M  V30 25 1 7 24
M  V30 26 1 8 25
M  V30 27 1 8 26
M  V30 28 1 9 27
M  V30 29 1 9 28
M  V30 30 1 14 29
M  V30 31 1 14 30
M  V30 32 1 15 31
M  V30 33 1 18 32
M  V30 34 1 18 33
M  V30 END BOND
M  V30 END CTAB
M  END
