
     RDKit          3D

  0  0  0  0  0  0  0  0  0  0999 V3000
M  V30 BEGIN CTAB
M  V30 COUNTS 87 89 0 0 0
M  V30 BEGIN ATOM
M  V30 1 C 7.24518 2.80801 1.62502 0
M  V30 2 N 7.01476 1.72202 0.707505 0
M  V30 3 C 5.63317 1.47335 0.287177 0
M  V30 4 C 5.41605 2.30737 -0.947245 0
M  V30 5 N 4.0959 2.16272 -1.45965 0
M  V30 6 C 3.56784 0.937816 -1.90338 0
M  V30 7 O 4.23743 -0.102105 -1.8761 0
M  V30 8 C 2.16882 0.899011 -2.41611 0 CFG=1
M  V30 9 N 1.87741 -0.482812 -2.74811 0
M  V30 10 C 1.2337 1.40336 -1.37612 0
M  V30 11 C -0.200718 1.44911 -1.69688 0
M  V30 12 C -0.89766 0.181328 -2.0225 0
M  V30 13 N -0.896454 -0.818137 -1.00188 0
M  V30 14 C -1.60822 -0.638694 0.2006 0
M  V30 15 N -1.03117 -0.375582 1.46548 0
M  V30 16 N -2.8923 -0.719675 0.147857 0
M  V30 17 S -3.92353 -0.529967 1.50298 0
M  V30 18 O -3.43143 0.554732 2.43603 0
M  V30 19 O -3.88166 -1.80227 2.30078 0
M  V30 20 C -5.56334 -0.251829 1.00444 0
M  V30 21 C -6.39504 -1.32745 0.82038 0
M  V30 22 C -5.99155 -2.72982 1.01475 0
M  V30 23 C -7.71248 -1.05786 0.420494 0
M  V30 24 C -8.14885 0.228764 0.22208 0
M  V30 25 O -9.48071 0.216059 -0.166741 0
M  V30 26 C -9.85137 -1.10431 -0.522877 0
M  V30 27 C -9.76765 -1.35499 -2.00507 0
M  V30 28 C -11.2478 -1.33118 0.0165772 0
M  V30 29 C -8.83329 -1.98777 0.145854 0
M  V30 30 C -7.25869 1.2754 0.424617 0
M  V30 31 C -7.70592 2.67712 0.216631 0
M  V30 32 C -5.95337 1.06882 0.817665 0
M  V30 33 C -5.03286 2.1973 1.02498 0
M  V30 34 C 8.09161 0.943045 0.247958 0
M  V30 35 O 7.8444 -0.00261191 -0.568667 0
M  V30 36 O 9.40288 1.13756 0.626399 0
M  V30 37 C 10.4894 0.372828 0.17959 0
M  V30 38 C 10.3931 -1.06476 0.504026 0
M  V30 39 C 10.5376 -1.52415 1.80063 0
M  V30 40 C 10.4657 -2.85283 2.15625 0
M  V30 41 C 10.2359 -3.75877 1.14635 0
M  V30 42 C 10.0829 -3.36402 -0.166953 0
M  V30 43 C 10.1628 -2.02492 -0.473914 0
M  V30 44 H 8.05943 2.5696 2.32831 0
M  V30 45 H 7.58405 3.67736 1.00183 0
M  V30 46 H 6.32448 3.12286 2.15329 0
M  V30 47 H 5.44826 0.408109 0.132526 0
M  V30 48 H 4.94321 1.8723 1.08663 0
M  V30 49 H 6.175 1.94452 -1.6973 0
M  V30 50 H 5.68982 3.35952 -0.726285 0
M  V30 51 H 3.4929 3.02871 -1.50292 0
M  V30 52 H 2.1847 1.52739 -3.33542 0
M  V30 53 H 2.28058 -0.776076 -3.66653 0
M  V30 54 H 2.17237 -1.12453 -1.96315 0
M  V30 55 H 1.54556 2.45591 -1.10539 0
M  V30 56 H 1.40084 0.842423 -0.409217 0
M  V30 57 H -0.411864 2.16527 -2.52358 0
M  V30 58 H -0.752102 1.89645 -0.816509 0
M  V30 59 H -0.654303 -0.230855 -3.04457 0
M  V30 60 H -1.99416 0.464538 -2.14735 0
M  V30 61 H -0.366444 -1.70247 -1.13684 0
M  V30 62 H -0.723694 0.59024 1.69324 0
M  V30 63 H -0.92728 -1.17699 2.15213 0
M  V30 64 H -5.99055 -3.04926 2.06922 0
M  V30 65 H -5.03541 -2.98461 0.480165 0
M  V30 66 H -6.74961 -3.38841 0.509935 0
M  V30 67 H -9.81388 -2.47739 -2.12888 0
M  V30 68 H -10.598 -0.918633 -2.5819 0
M  V30 69 H -8.76561 -1.05811 -2.34678 0
M  V30 70 H -11.943 -0.745594 -0.614916 0
M  V30 71 H -11.5119 -2.3964 0.0797167 0
M  V30 72 H -11.2858 -0.88041 1.03133 0
M  V30 73 H -9.3129 -2.34736 1.10034 0
M  V30 74 H -8.53026 -2.8431 -0.495367 0
M  V30 75 H -7.48132 3.22522 1.1677 0
M  V30 76 H -8.79865 2.71206 0.0534227 0
M  V30 77 H -7.22551 3.15015 -0.662245 0
M  V30 78 H -4.94508 2.53351 2.0622 0
M  V30 79 H -4.03037 2.0099 0.539737 0
M  V30 80 H -5.44819 3.07157 0.441836 0
M  V30 81 H 10.663 0.455987 -0.91348 0
M  V30 82 H 11.4123 0.776961 0.673637 0
M  V30 83 H 10.7164 -0.762222 2.55268 0
M  V30 84 H 10.5863 -3.17287 3.19953 0
M  V30 85 H 10.1821 -4.81065 1.45026 0
M  V30 86 H 9.90089 -4.10364 -0.951233 0
M  V30 87 H 10.0432 -1.72017 -1.49922 0
M  V30 END ATOM
M  V30 BEGIN BOND
M  V30 1 1 1 2
M  V30 2 1 2 3
M  V30 3 1 3 4
M  V30 4 1 4 5
M  V30 5 1 5 6
M  V30 6 2 6 7
M  V30 7 1 6 8
M  V30 8 1 8 9
M  V30 9 1 8 10
M  V30 10 1 10 11
M  V30 11 1 11 12
M  V30 12 1 12 13
M  V30 13 1 13 14
M  V30 14 1 14 15
M  V30 15 2 14 16 CFG=2
M  V30 16 1 16 17
M  V30 17 2 17 18
M  V30 18 2 17 19
M  V30 19 1 17 20
M  V30 20 2 20 21
M  V30 21 1 21 22
M  V30 22 1 21 23
M  V30 23 2 23 24
M  V30 24 1 24 25
M  V30 25 1 25 26
M  V30 26 1 26 27
M  V30 27 1 26 28
M  V30 28 1 26 29
M  V30 29 1 24 30
M  V30 30 1 30 31
M  V30 31 2 30 32
M  V30 32 1 32 33
M  V30 33 1 2 34
M  V30 34 2 34 35
M  V30 35 1 34 36
M  V30 36 1 36 37
M  V30 37 1 37 38
M  V30 38 2 38 39
M  V30 39 1 39 40
M  V30 40 2 40 41
M  V30 41 1 41 42
M  V30 42 2 42 43
M  V30 43 1 32 20
M  V30 44 1 43 38
M  V30 45 1 29 23
M  V30 46 1 1 44
M  V30 47 1 1 45
M  V30 48 1 1 46
M  V30 49 1 3 47
M  V30 50 1 3 48
M  V30 51 1 4 49
M  V30 52 1 4 50
M  V30 53 1 5 51
M  V30 54 1 8 52 CFG=3
M  V30 55 1 9 53
M  V30 56 1 9 54
M  V30 57 1 10 55
M  V30 58 1 10 56
M  V30 59 1 11 57
M  V30 60 1 11 58
M  V30 61 1 12 59
M  V30 62 1 12 60
M  V30 63 1 13 61
M  V30 64 1 15 62
M  V30 65 1 15 63
M  V30 66 1 22 64
M  V30 67 1 22 65
M  V30 68 1 22 66
M  V30 69 1 27 67
M  V30 70 1 27 68
M  V30 71 1 27 69
M  V30 72 1 28 70
M  V30 73 1 28 71
M  V30 74 1 28 72
M  V30 75 1 29 73
M  V30 76 1 29 74
M  V30 77 1 31 75
M  V30 78 1 31 76
M  V30 79 1 31 77
M  V30 80 1 33 78
M  V30 81 1 33 79
M  V30 82 1 33 80
M  V30 83 1 37 81
M  V30 84 1 37 82
M  V30 85 1 39 83
M  V30 86 1 40 84
M  V30 87 1 41 85
M  V30 88 1 42 86
M  V30 89 1 43 87
M  V30 END BOND
M  V30 END CTAB
M  END
