
     RDKit          3D

  0  0  0  0  0  0  0  0  0  0999 V3000
M  V30 BEGIN CTAB
M  V30 COUNTS 28 28 0 0 0
M  V30 BEGIN ATOM
M  V30 1 N 4.46582 1.17958 0.442623 0
M  V30 2 C 3.16635 0.647731 0.184953 0
M  V30 3 C 2.66568 0.521655 -1.09533 0
M  V30 4 C 1.40465 0.00366791 -1.31723 0
M  V30 5 C 0.573445 -0.416151 -0.289265 0
M  V30 6 C 1.08038 -0.287475 0.990461 0
M  V30 7 C 2.34783 0.233167 1.21389 0
M  V30 8 C -0.736946 -0.951972 -0.600321 0
M  V30 9 C -1.92571 -0.201731 -0.112844 0
M  V30 10 N -1.94235 1.13625 -0.654114 0
M  V30 11 C -2.17217 -0.247449 1.36014 0
M  V30 12 C -3.14752 -0.897365 -0.751686 0
M  V30 13 F -0.886043 -2.27823 -0.166116 0
M  V30 14 H 5.26734 0.58244 0.757062 0
M  V30 15 H 4.65702 2.1919 0.323531 0
M  V30 16 H 3.31424 0.849932 -1.90828 0
M  V30 17 H 1.06597 -0.0701892 -2.35443 0
M  V30 18 H 0.443622 -0.61123 1.78148 0
M  V30 19 H 2.70042 0.314868 2.22149 0
M  V30 20 H -0.841419 -1.00651 -1.70586 0
M  V30 21 H -2.91064 1.4429 -0.924504 0
M  V30 22 H -1.59811 1.83747 0.02963 0
M  V30 23 H -1.86832 -1.20103 1.82998 0
M  V30 24 H -1.61937 0.601888 1.82832 0
M  V30 25 H -3.23176 -0.102012 1.63877 0
M  V30 26 H -2.97791 -1.04584 -1.83893 0
M  V30 27 H -4.06442 -0.316679 -0.57991 0
M  V30 28 H -3.23006 -1.90961 -0.3035 0
M  V30 END ATOM
M  V30 BEGIN BOND
M  V30 1 1 1 2
M  V30 2 2 2 3
M  V30 3 1 3 4
M  V30 4 2 4 5
M  V30 5 1 5 6
M  V30 6 2 6 7
M  V30 7 1 5 8
M  V30 8 1 8 9
M  V30 9 1 9 10
M  V30 10 1 9 11
M  V30 11 1 9 12
M  V30 12 1 8 13
M  V30 13 1 7 2
M  V30 14 1 1 14
M  V30 15 1 1 15
M  V30 16 1 3 16
M  V30 17 1 4 17
M  V30 18 1 6 18
M  V30 19 1 7 19
M  V30 20 1 8 20
M  V30 21 1 10 21
M  V30 22 1 10 22
M  V30 23 1 11 23
M  V30 24 1 11 24
M  V30 25 1 11 25
M  V30 26 1 12 26
M  V30 27 1 12 27
M  V30 28 1 12 28
M  V30 END BOND
M  V30 END CTAB
M  END
