
     RDKit          3D

  0  0  0  0  0  0  0  0  0  0999 V3000
M  V30 BEGIN CTAB
M  V30 COUNTS 43 46 0 0 0
M  V30 BEGIN ATOM
M  V30 1 N 7.58492 2.01948 -0.373707 0
M  V30 2 C 6.35486 1.29784 -0.170862 0
M  V30 3 N 6.18238 0.0502015 -0.642584 0
M  V30 4 C 5.02532 -0.595353 -0.437258 0
M  V30 5 N 4.78755 -1.91575 -0.915209 0
M  V30 6 C 4.00618 0.0182851 0.259446 0
M  V30 7 C 2.73166 -0.380997 0.621327 0
M  V30 8 C 2.1737 -1.70299 0.299367 0
M  V30 9 N 0.814106 -1.85811 0.766402 0
M  V30 10 C -0.276127 -1.12889 0.236395 0
M  V30 11 C -1.51392 -1.24159 0.81831 0
M  V30 12 C -2.61359 -0.564039 0.334811 0
M  V30 13 C -2.51901 0.263799 -0.763578 0
M  V30 14 O -3.6077 0.964745 -1.28092 0
M  V30 15 C -4.85101 0.827234 -0.664491 0
M  V30 16 C -5.72537 -0.177593 -1.08791 0
M  V30 17 C -6.94897 -0.292885 -0.462242 0
M  V30 18 C -7.33743 0.548796 0.56519 0
M  V30 19 C -6.44688 1.52289 0.949893 0
M  V30 20 C -5.2023 1.67706 0.348359 0
M  V30 21 C -1.2803 0.389352 -1.36241 0
M  V30 22 C -0.187158 -0.294277 -0.868844 0
M  V30 23 C 2.19234 0.675912 1.30947 0
M  V30 24 O 3.07409 1.66799 1.37114 0
M  V30 25 C 4.17379 1.3094 0.752087 0
M  V30 26 N 5.36156 1.89818 0.509061 0
M  V30 27 H 8.45868 1.48576 -0.476239 0
M  V30 28 H 7.5721 3.04157 -0.412521 0
M  V30 29 H 4.32359 -2.06769 -1.82524 0
M  V30 30 H 5.07562 -2.75734 -0.35876 0
M  V30 31 H 2.13898 -1.77955 -0.816466 0
M  V30 32 H 2.82212 -2.54044 0.631053 0
M  V30 33 H 0.641636 -2.53775 1.52429 0
M  V30 34 H -1.62877 -1.89432 1.69845 0
M  V30 35 H -3.56776 -0.68463 0.826803 0
M  V30 36 H -5.41808 -0.840409 -1.89784 0
M  V30 37 H -7.60053 -1.08264 -0.816505 0
M  V30 38 H -8.29584 0.45386 1.05097 0
M  V30 39 H -6.68447 2.2143 1.74497 0
M  V30 40 H -4.53496 2.462 0.688516 0
M  V30 41 H -1.22112 1.04349 -2.2249 0
M  V30 42 H 0.768074 -0.176553 -1.35962 0
M  V30 43 H 1.19805 0.681672 1.7313 0
M  V30 END ATOM
M  V30 BEGIN BOND
M  V30 1 1 1 2
M  V30 2 2 2 3
M  V30 3 1 3 4
M  V30 4 1 4 5
M  V30 5 2 4 6
M  V30 6 1 6 7
M  V30 7 1 7 8
M  V30 8 1 8 9
M  V30 9 1 9 10
M  V30 10 2 10 11
M  V30 11 1 11 12
M  V30 12 2 12 13
M  V30 13 1 13 14
M  V30 14 1 14 15
M  V30 15 2 15 16
M  V30 16 1 16 17
M  V30 17 2 17 18
M  V30 18 1 18 19
M  V30 19 2 19 20
M  V30 20 1 13 21
M  V30 21 2 21 22
M  V30 22 2 7 23
M  V30 23 1 23 24
M  V30 24 1 24 25
M  V30 25 2 25 26
M  V30 26 1 26 2
M  V30 27 1 25 6
M  V30 28 1 22 10
M  V30 29 1 20 15
M  V30 30 1 1 27
M  V30 31 1 1 28
M  V30 32 1 5 29
M  V30 33 1 5 30
M  V30 34 1 8 31
M  V30 35 1 8 32
M  V30 36 1 9 33
M  V30 37 1 11 34
M  V30 38 1 12 35
M  V30 39 1 16 36
M  V30 40 1 17 37
M  V30 41 1 18 38
M  V30 42 1 19 39
M  V30 43 1 20 40
M  V30 44 1 21 41
M  V30 45 1 22 42
M  V30 46 1 23 43
M  V30 END BOND
M  V30 END CTAB
M  END
