
     RDKit          3D

  0  0  0  0  0  0  0  0  0  0999 V3000
M  V30 BEGIN CTAB
M  V30 COUNTS 28 28 0 0 0
M  V30 BEGIN ATOM
M  V30 1 C -1.33231 -0.784365 0.0115584 0 CFG=1
M  V30 2 N -1.02761 -1.47076 -1.22599 0
M  V30 3 C -0.602363 0.551677 0.0686059 0
M  V30 4 C 0.84591 0.418177 -0.00174257 0
M  V30 5 C 1.50494 0.429801 -1.20315 0
M  V30 6 C 2.89048 0.300573 -1.24645 0
M  V30 7 C 3.60879 0.160411 -0.0868518 0
M  V30 8 N 5.03639 0.0284974 -0.151505 0
M  V30 9 C 2.94952 0.148516 1.11935 0
M  V30 10 C 1.57106 0.277567 1.15459 0
M  V30 11 C -2.77234 -0.494189 0.0230614 0
M  V30 12 O -3.53765 -0.813766 -0.90718 0
M  V30 13 O -3.2926 0.162109 1.11708 0
M  V30 14 C -4.68293 0.47069 1.18437 0
M  V30 15 H -1.0914 -1.4144 0.883667 0
M  V30 16 H -1.73209 -2.26263 -1.32065 0
M  V30 17 H -1.27535 -0.808187 -2.00076 0
M  V30 18 H -0.950449 1.03573 1.02429 0
M  V30 19 H -1.03331 1.16636 -0.761773 0
M  V30 20 H 1.0039 0.536663 -2.15875 0
M  V30 21 H 3.3934 0.312023 -2.20492 0
M  V30 22 H 5.41675 -0.603755 -0.886457 0
M  V30 23 H 5.62292 0.557776 0.523261 0
M  V30 24 H 3.4957 0.0391056 2.04684 0
M  V30 25 H 1.05904 0.265747 2.13315 0
M  V30 26 H -5.24173 -0.0291123 0.374646 0
M  V30 27 H -5.07802 0.246048 2.1921 0
M  V30 28 H -4.74864 1.5737 0.960659 0
M  V30 END ATOM
M  V30 BEGIN BOND
M  V30 1 1 1 2
M  V30 2 1 1 3
M  V30 3 1 3 4
M  V30 4 2 4 5
M  V30 5 1 5 6
M  V30 6 2 6 7
M  V30 7 1 7 8
M  V30 8 1 7 9
M  V30 9 2 9 10
M  V30 10 1 1 11
M  V30 11 2 11 12
M  V30 12 1 11 13
M  V30 13 1 13 14
M  V30 14 1 10 4
M  V30 15 1 1 15 CFG=1
M  V30 16 1 2 16
M  V30 17 1 2 17
M  V30 18 1 3 18
M  V30 19 1 3 19
M  V30 20 1 5 20
M  V30 21 1 6 21
M  V30 22 1 8 22
M  V30 23 1 8 23
M  V30 24 1 9 24
M  V30 25 1 10 25
M  V30 26 1 14 26
M  V30 27 1 14 27
M  V30 28 1 14 28
M  V30 END BOND
M  V30 END CTAB
M  END
