
     RDKit          3D

  0  0  0  0  0  0  0  0  0  0999 V3000
M  V30 BEGIN CTAB
M  V30 COUNTS 39 40 0 0 0
M  V30 BEGIN ATOM
M  V30 1 N 6.7767 3.12044 -0.291139 0
M  V30 2 C 5.98403 2.49193 -1.71288 0
M  V30 3 N 6.87841 2.8985 -2.3531 0
M  V30 4 N 4.93092 2.01321 -0.95892 0
M  V30 5 C 3.83107 1.41155 -1.72388 0
M  V30 6 O 3.99122 1.37358 -2.91186 0
M  V30 7 C 2.6884 0.967047 -0.893729 0
M  V30 8 C 1.77459 0.610636 -0.243998 0
M  V30 9 N 2.11086 1.21326 1.20621 0
M  V30 10 N 0.607693 -0.0401921 -0.0727052 0
M  V30 11 C 0.179539 -0.639097 -1.21236 0
M  V30 12 N -1.02007 -1.38106 -1.20739 0
M  V30 13 C -1.92207 -1.29912 -0.0889948 0
M  V30 14 C -3.07046 -2.26166 -0.090318 0
M  V30 15 C -4.02098 -1.85228 1.00631 0
M  V30 16 C -5.05347 -0.983823 0.601515 0
M  V30 17 C -5.96803 -0.468503 1.48391 0
M  V30 18 C -5.90022 -0.796576 2.81666 0
M  V30 19 C -4.88306 -1.65688 3.23021 0
M  V30 20 C -3.95408 -2.17441 2.31392 0
M  V30 21 C 1.01895 -0.455305 -2.2596 0
M  V30 22 Cl 0.397408 -1.2791 -3.75881 0
M  V30 23 N 2.10766 0.192591 -2.29518 0
M  V30 24 H 6.40023 3.99601 -0.211841 0
M  V30 25 H 7.33386 2.40274 -0.0221549 0
M  V30 26 H 7.11472 2.89499 -3.37171 0
M  V30 27 H 4.81443 2.00975 0.045642 0
M  V30 28 H 2.43669 0.512624 1.83767 0
M  V30 29 H 1.92864 2.18289 1.23474 0
M  V30 30 H -1.24484 -1.97997 -2.01287 0
M  V30 31 H -1.2971 -1.40417 0.843155 0
M  V30 32 H -2.37022 -0.270825 -0.0129656 0
M  V30 33 H -3.56839 -2.35612 -1.06125 0
M  V30 34 H -2.61902 -3.26643 0.14989 0
M  V30 35 H -5.08033 -0.76174 -0.47226 0
M  V30 36 H -6.74774 0.202427 1.15681 0
M  V30 37 H -6.59596 -0.413274 3.56551 0
M  V30 38 H -4.82163 -1.91307 4.27204 0
M  V30 39 H -3.16831 -2.84058 2.64507 0
M  V30 END ATOM
M  V30 BEGIN BOND
M  V30 1 1 1 2
M  V30 2 2 2 3 CFG=2
M  V30 3 1 2 4
M  V30 4 1 4 5
M  V30 5 2 5 6
M  V30 6 1 5 7
M  V30 7 2 7 8
M  V30 8 1 8 9
M  V30 9 1 8 10
M  V30 10 2 10 11
M  V30 11 1 11 12
M  V30 12 1 12 13
M  V30 13 1 13 14
M  V30 14 1 14 15
M  V30 15 2 15 16
M  V30 16 1 16 17
M  V30 17 2 17 18
M  V30 18 1 18 19
M  V30 19 2 19 20
M  V30 20 1 11 21
M  V30 21 1 21 22
M  V30 22 2 21 23
M  V30 23 1 23 7
M  V30 24 1 20 15
M  V30 25 1 1 24
M  V30 26 1 1 25
M  V30 27 1 3 26
M  V30 28 1 4 27
M  V30 29 1 9 28
M  V30 30 1 9 29
M  V30 31 1 12 30
M  V30 32 1 13 31
M  V30 33 1 13 32
M  V30 34 1 14 33
M  V30 35 1 14 34
M  V30 36 1 16 35
M  V30 37 1 17 36
M  V30 38 1 18 37
M  V30 39 1 19 38
M  V30 40 1 20 39
M  V30 END BOND
M  V30 END CTAB
M  END
