
     RDKit          3D

  0  0  0  0  0  0  0  0  0  0999 V3000
M  V30 BEGIN CTAB
M  V30 COUNTS 49 50 0 0 0
M  V30 BEGIN ATOM
M  V30 1 N -3.25078 -1.03738 1.643 0
M  V30 2 C -4.00856 -1.58263 0.584581 0 CFG=2
M  V30 3 C -3.20658 -1.47959 -0.642909 0
M  V30 4 O -3.69263 -1.90551 -1.69811 0
M  V30 5 N -1.87329 -0.898935 -0.657245 0
M  V30 6 C -1.22703 -0.86943 -1.9111 0
M  V30 7 C 0.0973572 -0.338804 -2.0867 0
M  V30 8 O 0.5639 -0.35045 -3.31226 0
M  V30 9 N 0.945236 0.187186 -1.11005 0
M  V30 10 C 2.27298 0.733027 -1.48479 0
M  V30 11 C 3.10101 0.278832 -0.306542 0 CFG=2
M  V30 12 C 2.2243 0.821979 0.809059 0 CFG=1
M  V30 13 C 0.845201 0.335732 0.305945 0
M  V30 14 N 2.45195 0.210324 2.07641 0
M  V30 15 C 4.43523 0.874799 -0.320292 0
M  V30 16 C 4.55917 2.24571 -0.398298 0
M  V30 17 C 5.81497 2.85625 -0.414143 0
M  V30 18 C 6.94501 2.09805 -0.352142 0
M  V30 19 C 6.83353 0.733294 -0.274299 0
M  V30 20 C 5.57996 0.125976 -0.258605 0
M  V30 21 C -5.23267 -0.707559 0.409183 0
M  V30 22 C -6.1285 -1.17782 -0.689724 0
M  V30 23 C -6.02665 -0.559527 1.67141 0
M  V30 24 H -2.75318 -1.67694 2.15869 0
M  V30 25 H -3.57545 -0.209126 2.02019 0
M  V30 26 H -4.26799 -2.61804 0.862806 0
M  V30 27 H -1.56417 -0.570878 0.258231 0
M  V30 28 H -1.30124 -1.93505 -2.31671 0
M  V30 29 H -1.89181 -0.288891 -2.65704 0
M  V30 30 H 2.18001 1.84234 -1.44895 0
M  V30 31 H 2.62716 0.358079 -2.43904 0
M  V30 32 H 3.08227 -0.806803 -0.243155 0
M  V30 33 H 2.28946 1.92087 0.803508 0
M  V30 34 H 0.649949 -0.671761 0.791988 0
M  V30 35 H 0.0852072 1.06398 0.593536 0
M  V30 36 H 1.57253 0.212153 2.63741 0
M  V30 37 H 2.8646 -0.742043 1.97343 0
M  V30 38 H 3.71681 2.91436 -0.450548 0
M  V30 39 H 5.89198 3.93277 -0.475712 0
M  V30 40 H 7.91313 2.61134 -0.366846 0
M  V30 41 H 7.73205 0.150398 -0.226157 0
M  V30 42 H 5.56987 -0.948044 -0.196125 0
M  V30 43 H -4.84835 0.30605 0.132229 0
M  V30 44 H -6.08151 -2.27292 -0.861198 0
M  V30 45 H -7.20459 -0.954884 -0.481555 0
M  V30 46 H -5.91202 -0.686784 -1.66888 0
M  V30 47 H -7.08253 -0.326495 1.38091 0
M  V30 48 H -6.047 -1.49711 2.27649 0
M  V30 49 H -5.66829 0.299903 2.29845 0
M  V30 END ATOM
M  V30 BEGIN BOND
M  V30 1 1 1 2
M  V30 2 1 2 3
M  V30 3 2 3 4
M  V30 4 1 3 5
M  V30 5 1 5 6
M  V30 6 1 6 7
M  V30 7 2 7 8
M  V30 8 1 7 9
M  V30 9 1 9 10
M  V30 10 1 10 11
M  V30 11 1 11 12
M  V30 12 1 12 13
M  V30 13 1 12 14
M  V30 14 1 11 15
M  V30 15 2 15 16
M  V30 16 1 16 17
M  V30 17 2 17 18
M  V30 18 1 18 19
M  V30 19 2 19 20
M  V30 20 1 2 21
M  V30 21 1 21 22
M  V30 22 1 21 23
M  V30 23 1 13 9
M  V30 24 1 20 15
M  V30 25 1 1 24
M  V30 26 1 1 25
M  V30 27 1 2 26 CFG=1
M  V30 28 1 5 27
M  V30 29 1 6 28
M  V30 30 1 6 29
M  V30 31 1 10 30
M  V30 32 1 10 31
M  V30 33 1 11 32 CFG=1
M  V30 34 1 12 33 CFG=1
M  V30 35 1 13 34
M  V30 36 1 13 35
M  V30 37 1 14 36
M  V30 38 1 14 37
M  V30 39 1 16 38
M  V30 40 1 17 39
M  V30 41 1 18 40
M  V30 42 1 19 41
M  V30 43 1 20 42
M  V30 44 1 21 43
M  V30 45 1 22 44
M  V30 46 1 22 45
M  V30 47 1 22 46
M  V30 48 1 23 47
M  V30 49 1 23 48
M  V30 50 1 23 49
M  V30 END BOND
M  V30 END CTAB
M  END
