
     RDKit          3D

  0  0  0  0  0  0  0  0  0  0999 V3000
M  V30 BEGIN CTAB
M  V30 COUNTS 44 46 0 0 0
M  V30 BEGIN ATOM
M  V30 1 N 4.38388 -2.1189 -0.38114 0
M  V30 2 C 3.20735 -2.4645 0.376866 0
M  V30 3 C 2.80465 -1.42923 1.36183 0
M  V30 4 C 2.44536 -0.0854492 0.824655 0
M  V30 5 C 3.59051 0.526691 0.0921599 0
M  V30 6 C 3.47203 2.05061 0.0671931 0
M  V30 7 C 1.96298 2.31044 0.134207 0
M  V30 8 C 1.22102 1.24254 -0.645663 0
M  V30 9 N 1.21147 -0.0462394 0.0670838 0
M  V30 10 C 0.0989624 -0.0591903 0.960288 0
M  V30 11 C -1.22779 -0.0762836 0.308797 0
M  V30 12 N -1.44941 -0.319546 -0.991294 0
M  V30 13 C -2.69527 -0.314312 -1.49934 0
M  V30 14 N -2.94615 -0.571718 -2.88227 0
M  V30 15 C -3.80095 -0.0590824 -0.708815 0
M  V30 16 C -3.55621 0.189239 0.626261 0
M  V30 17 N -2.31019 0.172611 1.07793 0
M  V30 18 C -4.66166 0.447314 1.43088 0
M  V30 19 C -5.94416 0.459584 0.941924 0
M  V30 20 C -6.16488 0.210784 -0.385228 0
M  V30 21 C -5.09154 -0.0497957 -1.21602 0
M  V30 22 H 4.35977 -2.53944 -1.33731 0
M  V30 23 H 5.2202 -2.42156 0.166228 0
M  V30 24 H 3.44415 -3.40119 0.962305 0
M  V30 25 H 2.38333 -2.77978 -0.299065 0
M  V30 26 H 3.7137 -1.25569 2.02198 0
M  V30 27 H 2.04092 -1.81671 2.08007 0
M  V30 28 H 2.26528 0.565891 1.73389 0
M  V30 29 H 3.65575 0.219025 -0.957058 0
M  V30 30 H 4.53145 0.265742 0.599855 0
M  V30 31 H 4.00177 2.47926 0.923606 0
M  V30 32 H 3.8789 2.42304 -0.882498 0
M  V30 33 H 1.62774 2.41636 1.16807 0
M  V30 34 H 1.76863 3.264 -0.380273 0
M  V30 35 H 1.74181 1.13867 -1.62642 0
M  V30 36 H 0.202538 1.62409 -0.803904 0
M  V30 37 H 0.188527 -0.940204 1.66058 0
M  V30 38 H 0.15429 0.831021 1.65382 0
M  V30 39 H -3.42891 -1.46917 -3.15301 0
M  V30 40 H -2.66259 0.107801 -3.62871 0
M  V30 41 H -4.42626 0.640318 2.48791 0
M  V30 42 H -6.77414 0.664051 1.59906 0
M  V30 43 H -7.18401 0.219916 -0.776857 0
M  V30 44 H -5.25285 -0.251011 -2.28198 0
M  V30 END ATOM
M  V30 BEGIN BOND
M  V30 1 1 1 2
M  V30 2 1 2 3
M  V30 3 1 3 4
M  V30 4 1 4 5
M  V30 5 1 5 6
M  V30 6 1 6 7
M  V30 7 1 7 8
M  V30 8 1 8 9
M  V30 9 1 9 10
M  V30 10 1 10 11
M  V30 11 2 11 12
M  V30 12 1 12 13
M  V30 13 1 13 14
M  V30 14 2 13 15
M  V30 15 1 15 16
M  V30 16 2 16 17
M  V30 17 1 16 18
M  V30 18 2 18 19
M  V30 19 1 19 20
M  V30 20 2 20 21
M  V30 21 1 9 4
M  V30 22 1 17 11
M  V30 23 1 21 15
M  V30 24 1 1 22
M  V30 25 1 1 23
M  V30 26 1 2 24
M  V30 27 1 2 25
M  V30 28 1 3 26
M  V30 29 1 3 27
M  V30 30 1 4 28
M  V30 31 1 5 29
M  V30 32 1 5 30
M  V30 33 1 6 31
M  V30 34 1 6 32
M  V30 35 1 7 33
M  V30 36 1 7 34
M  V30 37 1 8 35
M  V30 38 1 8 36
M  V30 39 1 10 37
M  V30 40 1 10 38
M  V30 41 1 14 39
M  V30 42 1 14 40
M  V30 43 1 18 41
M  V30 44 1 19 42
M  V30 45 1 20 43
M  V30 46 1 21 44
M  V30 END BOND
M  V30 END CTAB
M  END
