
     RDKit          3D

  0  0  0  0  0  0  0  0  0  0999 V3000
M  V30 BEGIN CTAB
M  V30 COUNTS 31 31 0 0 0
M  V30 BEGIN ATOM
M  V30 1 N 5.6481 -1.53768 0.498067 0
M  V30 2 C 4.39891 -0.854828 0.319554 0
M  V30 3 C 4.3445 0.490689 0.0352355 0
M  V30 4 C 3.11321 1.08853 -0.124901 0
M  V30 5 C 1.92833 0.404777 -0.0143729 0
M  V30 6 C 2.02567 -0.93578 0.270105 0
M  V30 7 N 3.24343 -1.53437 0.430018 0
M  V30 8 C 0.631241 1.02765 -0.181575 0
M  V30 9 O 0.650884 2.28135 -0.443993 0
M  V30 10 N -0.594501 0.329302 -0.0696392 0
M  V30 11 C -1.82037 1.08553 -0.262823 0
M  V30 12 C -3.04642 0.243314 -0.120694 0
M  V30 13 N -4.19941 1.09981 -0.332894 0
M  V30 14 C -3.17476 -0.36616 1.26021 0
M  V30 15 C -3.11273 -0.873514 -1.12737 0
M  V30 16 H 6.21529 -1.47577 1.36235 0
M  V30 17 H 6.00306 -2.12548 -0.28036 0
M  V30 18 H 5.24781 1.07862 -0.0630507 0
M  V30 19 H 3.02568 2.16416 -0.35342 0
M  V30 20 H 1.17829 -1.59406 0.38474 0
M  V30 21 H -0.604385 -0.67107 0.139922 0
M  V30 22 H -1.84133 1.8531 0.534516 0
M  V30 23 H -1.80414 1.53029 -1.25846 0
M  V30 24 H -3.96006 2.06654 -0.00914112 0
M  V30 25 H -4.33339 1.17128 -1.37252 0
M  V30 26 H -3.28593 -1.47396 1.21074 0
M  V30 27 H -2.2782 -0.126629 1.88074 0
M  V30 28 H -4.07016 0.0139117 1.79343 0
M  V30 29 H -4.11259 -1.37398 -0.97707 0
M  V30 30 H -3.09182 -0.481347 -2.17503 0
M  V30 31 H -2.32421 -1.63389 -0.952327 0
M  V30 END ATOM
M  V30 BEGIN BOND
M  V30 1 1 1 2
M  V30 2 2 2 3
M  V30 3 1 3 4
M  V30 4 2 4 5
M  V30 5 1 5 6
M  V30 6 2 6 7
M  V30 7 1 5 8
M  V30 8 2 8 9
M  V30 9 1 8 10
M  V30 10 1 10 11
M  V30 11 1 11 12
M  V30 12 1 12 13
M  V30 13 1 12 14
M  V30 14 1 12 15
M  V30 15 1 7 2
M  V30 16 1 1 16
M  V30 17 1 1 17
M  V30 18 1 3 18
M  V30 19 1 4 19
M  V30 20 1 6 20
M  V30 21 1 10 21
M  V30 22 1 11 22
M  V30 23 1 11 23
M  V30 24 1 13 24
M  V30 25 1 13 25
M  V30 26 1 14 26
M  V30 27 1 14 27
M  V30 28 1 14 28
M  V30 29 1 15 29
M  V30 30 1 15 30
M  V30 31 1 15 31
M  V30 END BOND
M  V30 END CTAB
M  END
