
     RDKit          3D

  0  0  0  0  0  0  0  0  0  0999 V3000
M  V30 BEGIN CTAB
M  V30 COUNTS 37 38 0 0 0
M  V30 BEGIN ATOM
M  V30 1 N -4.72618 0.94301 -1.48607 0
M  V30 2 C -3.30376 0.836525 -1.69427 0
M  V30 3 C -2.63903 0.716043 -0.350234 0
M  V30 4 C -3.06778 -0.463358 0.441221 0
M  V30 5 C -2.25305 -1.68894 0.267941 0
M  V30 6 N -0.857472 -1.47642 0.0522782 0
M  V30 7 C -0.535589 -0.124427 0.535978 0
M  V30 8 C -1.1314 0.821803 -0.496853 0
M  V30 9 C 0.923604 0.0509026 0.679751 0
M  V30 10 C 1.4379 0.653315 1.80834 0
M  V30 11 C 2.80171 0.834955 1.97936 0
M  V30 12 C 3.70682 0.416443 1.01852 0
M  V30 13 C 3.20385 -0.185457 -0.110631 0
M  V30 14 C 1.83006 -0.36198 -0.270066 0
M  V30 15 C 4.15131 -0.650164 -1.16938 0
M  V30 16 N 5.50876 -0.358855 -0.779374 0
M  V30 17 H -4.94223 1.37043 -0.55848 0
M  V30 18 H -5.24003 0.0487933 -1.635 0
M  V30 19 H -2.922 1.79916 -2.14465 0
M  V30 20 H -3.01299 0.0397378 -2.38034 0
M  V30 21 H -2.94631 1.63735 0.227861 0
M  V30 22 H -3.10818 -0.19591 1.5338 0
M  V30 23 H -4.12582 -0.714467 0.138214 0
M  V30 24 H -2.6648 -2.34885 -0.538008 0
M  V30 25 H -2.35461 -2.30307 1.20993 0
M  V30 26 H -0.622725 -1.53335 -0.964021 0
M  V30 27 H -1.08125 0.0252918 1.47093 0
M  V30 28 H -0.766519 1.8602 -0.316557 0
M  V30 29 H -0.808632 0.544191 -1.52545 0
M  V30 30 H 0.756471 0.98899 2.5728 0
M  V30 31 H 3.21105 1.30865 2.86613 0
M  V30 32 H 4.78554 0.564926 1.16342 0
M  V30 33 H 1.45663 -0.836595 -1.16367 0
M  V30 34 H 3.8825 -0.23842 -2.14993 0
M  V30 35 H 4.04696 -1.76367 -1.26315 0
M  V30 36 H 5.73541 -0.868716 0.087013 0
M  V30 37 H 5.6718 0.651914 -0.659278 0
M  V30 END ATOM
M  V30 BEGIN BOND
M  V30 1 1 1 2
M  V30 2 1 2 3
M  V30 3 1 3 4
M  V30 4 1 4 5
M  V30 5 1 5 6
M  V30 6 1 6 7
M  V30 7 1 7 8
M  V30 8 1 7 9
M  V30 9 2 9 10
M  V30 10 1 10 11
M  V30 11 2 11 12
M  V30 12 1 12 13
M  V30 13 2 13 14
M  V30 14 1 13 15
M  V30 15 1 15 16
M  V30 16 1 8 3
M  V30 17 1 14 9
M  V30 18 1 1 17
M  V30 19 1 1 18
M  V30 20 1 2 19
M  V30 21 1 2 20
M  V30 22 1 3 21
M  V30 23 1 4 22
M  V30 24 1 4 23
M  V30 25 1 5 24
M  V30 26 1 5 25
M  V30 27 1 6 26
M  V30 28 1 7 27
M  V30 29 1 8 28
M  V30 30 1 8 29
M  V30 31 1 10 30
M  V30 32 1 11 31
M  V30 33 1 12 32
M  V30 34 1 14 33
M  V30 35 1 15 34
M  V30 36 1 15 35
M  V30 37 1 16 36
M  V30 38 1 16 37
M  V30 END BOND
M  V30 END CTAB
M  END
