
     RDKit          3D

  0  0  0  0  0  0  0  0  0  0999 V3000
M  V30 BEGIN CTAB
M  V30 COUNTS 51 54 0 0 0
M  V30 BEGIN ATOM
M  V30 1 N 7.84499 -0.610127 0.307057 0
M  V30 2 C 6.40397 -0.441842 0.210805 0
M  V30 3 C 5.94227 0.398763 -0.960115 0
M  V30 4 C 5.0112 1.12177 -0.0219442 0
M  V30 5 C 5.84318 0.614374 1.13738 0
M  V30 6 C 3.6387 0.551484 -0.0738269 0
M  V30 7 C 2.50745 1.35626 -0.179737 0
M  V30 8 C 1.23802 0.830613 -0.227577 0
M  V30 9 N 0.10868 1.64328 -0.344501 0
M  V30 10 C -1.25657 1.17674 -0.381289 0
M  V30 11 C -1.57722 0.57367 0.930833 0
M  V30 12 N -0.801903 0.547382 2.0105 0
M  V30 13 N -1.45241 -0.0698726 2.95355 0
M  V30 14 C -2.65052 -0.44454 2.48616 0
M  V30 15 N -2.74009 -0.0372152 1.19232 0
M  V30 16 C -3.90481 -0.288497 0.424572 0
M  V30 17 C -3.8173 -0.380045 -1.02695 0
M  V30 18 C -5.18199 -0.797027 -1.56642 0
M  V30 19 C -6.22106 -0.910998 -0.487238 0
M  V30 20 C -6.27814 0.246355 0.446015 0
M  V30 21 C -4.91456 0.820925 0.76222 0
M  V30 22 N 1.13387 -0.505787 -0.167259 0
M  V30 23 C 2.21435 -1.30483 -0.0646207 0
M  V30 24 N 3.43526 -0.776003 -0.0197308 0
M  V30 25 N 2.04612 -2.70374 -0.00493819 0
M  V30 26 H 8.34931 0.247933 -0.00717522 0
M  V30 27 H 8.10582 -1.38844 -0.322932 0
M  V30 28 H 5.92345 -1.43281 0.298665 0
M  V30 29 H 5.45023 -0.244272 -1.71419 0
M  V30 30 H 6.75859 1.04043 -1.34538 0
M  V30 31 H 5.06403 2.21424 -0.0735264 0
M  V30 32 H 5.26213 0.212242 1.98922 0
M  V30 33 H 6.63921 1.32286 1.42192 0
M  V30 34 H 2.65642 2.40737 -0.223267 0
M  V30 35 H 0.240838 2.70015 -0.412513 0
M  V30 36 H -1.88986 2.04898 -0.617966 0
M  V30 37 H -1.27956 0.412632 -1.20171 0
M  V30 38 H -3.37258 -0.976567 3.08986 0
M  V30 39 H -4.39848 -1.23191 0.800518 0
M  V30 40 H -3.64946 0.65083 -1.45244 0
M  V30 41 H -3.09857 -1.12073 -1.42883 0
M  V30 42 H -5.14056 -1.80079 -2.06984 0
M  V30 43 H -5.57441 -0.105168 -2.33013 0
M  V30 44 H -6.18001 -1.88814 0.05828 0
M  V30 45 H -7.21468 -0.945328 -1.02531 0
M  V30 46 H -6.95586 1.05999 0.140184 0
M  V30 47 H -6.67464 -0.141065 1.43092 0
M  V30 48 H -4.73046 1.63029 0.0224893 0
M  V30 49 H -4.81915 1.14906 1.79829 0
M  V30 50 H 1.51357 -3.11078 0.798445 0
M  V30 51 H 2.4432 -3.32208 -0.744766 0
M  V30 END ATOM
M  V30 BEGIN BOND
M  V30 1 1 1 2
M  V30 2 1 2 3
M  V30 3 1 3 4
M  V30 4 1 4 5
M  V30 5 1 4 6
M  V30 6 2 6 7
M  V30 7 1 7 8
M  V30 8 1 8 9
M  V30 9 1 9 10
M  V30 10 1 10 11
M  V30 11 2 11 12
M  V30 12 1 12 13
M  V30 13 2 13 14
M  V30 14 1 14 15
M  V30 15 1 15 16
M  V30 16 1 16 17
M  V30 17 1 17 18
M  V30 18 1 18 19
M  V30 19 1 19 20
M  V30 20 1 20 21
M  V30 21 2 8 22
M  V30 22 1 22 23
M  V30 23 2 23 24
M  V30 24 1 23 25
M  V30 25 1 5 2
M  V30 26 1 24 6
M  V30 27 1 15 11
M  V30 28 1 21 16
M  V30 29 1 1 26
M  V30 30 1 1 27
M  V30 31 1 2 28
M  V30 32 1 3 29
M  V30 33 1 3 30
M  V30 34 1 4 31
M  V30 35 1 5 32
M  V30 36 1 5 33
M  V30 37 1 7 34
M  V30 38 1 9 35
M  V30 39 1 10 36
M  V30 40 1 10 37
M  V30 41 1 14 38
M  V30 42 1 16 39
M  V30 43 1 17 40
M  V30 44 1 17 41
M  V30 45 1 18 42
M  V30 46 1 18 43
M  V30 47 1 19 44
M  V30 48 1 19 45
M  V30 49 1 20 46
M  V30 50 1 20 47
M  V30 51 1 21 48
M  V30 52 1 21 49
M  V30 53 1 25 50
M  V30 54 1 25 51
M  V30 END BOND
M  V30 END CTAB
M  END
