
     RDKit          3D

  0  0  0  0  0  0  0  0  0  0999 V3000
M  V30 BEGIN CTAB
M  V30 COUNTS 44 45 0 0 0
M  V30 BEGIN ATOM
M  V30 1 S 0.967453 -0.207098 2.55195 0
M  V30 2 C 0.33772 0.707119 1.36205 0
M  V30 3 N -0.964664 0.418642 0.898147 0
M  V30 4 C -1.52851 1.25543 -0.170388 0
M  V30 5 C -2.88561 0.821168 -0.533198 0
M  V30 6 C -4.00795 1.32949 0.0896062 0
M  V30 7 C -5.28129 0.917802 -0.255268 0
M  V30 8 C -5.48085 -0.0231654 -1.24168 0
M  V30 9 C -4.36416 -0.535968 -1.86884 0
M  V30 10 C -3.07811 -0.122662 -1.52318 0
M  V30 11 S -7.09321 -0.5497 -1.6839 0
M  V30 12 O -7.06272 -0.947566 -3.12516 0
M  V30 13 O -8.07492 0.567351 -1.46186 0
M  V30 14 N -7.59302 -1.90046 -0.750587 0
M  V30 15 N 1.09971 1.76568 0.830627 0
M  V30 16 C 2.41896 2.12389 1.23436 0
M  V30 17 C 3.34083 1.00173 0.906273 0
M  V30 18 C 4.57281 0.908429 1.55341 0
M  V30 19 C 5.43998 -0.115773 1.25625 0
M  V30 20 C 5.15031 -1.08819 0.323288 0
M  V30 21 C 3.93583 -1.00829 -0.324173 0
M  V30 22 C 3.06073 0.0262862 -0.0235313 0
M  V30 23 S 6.29512 -2.36921 -0.0131272 0
M  V30 24 O 6.99708 -2.73309 1.24158 0
M  V30 25 O 5.52293 -3.58008 -0.474444 0
M  V30 26 N 7.37861 -1.9311 -1.28049 0
M  V30 27 H -1.50256 -0.356266 1.29819 0
M  V30 28 H -0.809272 1.19735 -1.01064 0
M  V30 29 H -1.50833 2.31637 0.181667 0
M  V30 30 H -3.82875 2.06986 0.864096 0
M  V30 31 H -6.13707 1.32953 0.245298 0
M  V30 32 H -4.52408 -1.26677 -2.63458 0
M  V30 33 H -2.20768 -0.523063 -2.01276 0
M  V30 34 H -8.27285 -2.5068 -1.2419 0
M  V30 35 H -7.85582 -1.66439 0.216396 0
M  V30 36 H 0.64451 2.34266 0.0623452 0
M  V30 37 H 2.78483 2.99599 0.660107 0
M  V30 38 H 2.49204 2.41303 2.30532 0
M  V30 39 H 4.81082 1.66389 2.2858 0
M  V30 40 H 6.40634 -0.204655 1.75154 0
M  V30 41 H 3.67295 -1.7632 -1.07067 0
M  V30 42 H 2.09422 0.078582 -0.549043 0
M  V30 43 H 6.81758 -1.82721 -2.15519 0
M  V30 44 H 7.82009 -1.02558 -1.01523 0
M  V30 END ATOM
M  V30 BEGIN BOND
M  V30 1 2 1 2
M  V30 2 1 2 3
M  V30 3 1 3 4
M  V30 4 1 4 5
M  V30 5 2 5 6
M  V30 6 1 6 7
M  V30 7 2 7 8
M  V30 8 1 8 9
M  V30 9 2 9 10
M  V30 10 1 8 11
M  V30 11 2 11 12
M  V30 12 2 11 13
M  V30 13 1 11 14
M  V30 14 1 2 15
M  V30 15 1 15 16
M  V30 16 1 16 17
M  V30 17 2 17 18
M  V30 18 1 18 19
M  V30 19 2 19 20
M  V30 20 1 20 21
M  V30 21 2 21 22
M  V30 22 1 20 23
M  V30 23 2 23 24
M  V30 24 2 23 25
M  V30 25 1 23 26
M  V30 26 1 10 5
M  V30 27 1 22 17
M  V30 28 1 3 27
M  V30 29 1 4 28
M  V30 30 1 4 29
M  V30 31 1 6 30
M  V30 32 1 7 31
M  V30 33 1 9 32
M  V30 34 1 10 33
M  V30 35 1 14 34
M  V30 36 1 14 35
M  V30 37 1 15 36
M  V30 38 1 16 37
M  V30 39 1 16 38
M  V30 40 1 18 39
M  V30 41 1 19 40
M  V30 42 1 21 41
M  V30 43 1 22 42
M  V30 44 1 26 43
M  V30 45 1 26 44
M  V30 END BOND
M  V30 END CTAB
M  END
