
     RDKit          3D

  0  0  0  0  0  0  0  0  0  0999 V3000
M  V30 BEGIN CTAB
M  V30 COUNTS 29 29 0 0 0
M  V30 BEGIN ATOM
M  V30 1 C -3.98489 -0.192195 -0.921482 0
M  V30 2 C -2.81843 -0.805986 -0.951981 0
M  V30 3 C -1.62633 -0.102351 -0.409309 0
M  V30 4 N -0.487932 -0.980426 -0.470592 0
M  V30 5 C 0.800873 -0.600479 -0.0244287 0
M  V30 6 C 1.8896 -1.43992 -0.0832647 0
M  V30 7 C 3.13925 -1.00458 0.374682 0
M  V30 8 N 4.27352 -1.85262 0.323333 0
M  V30 9 N 3.2259 0.246032 0.864895 0
M  V30 10 C 2.16538 1.07069 0.924831 0
M  V30 11 N 0.974428 0.627403 0.477719 0
M  V30 12 N 2.25717 2.38905 1.4417 0
M  V30 13 C -1.87437 0.415968 0.990542 0
M  V30 14 C -1.42797 1.11685 -1.31985 0
M  V30 15 H -4.07096 0.799253 -0.51129 0
M  V30 16 H -4.87203 -0.670015 -1.30558 0
M  V30 17 H -2.69797 -1.79892 -1.35615 0
M  V30 18 H -0.586086 -1.96022 -0.861325 0
M  V30 19 H 1.77396 -2.43871 -0.48572 0
M  V30 20 H 4.72696 -2.13161 1.21958 0
M  V30 21 H 4.68858 -2.21912 -0.553642 0
M  V30 22 H 1.55857 2.67585 2.15959 0
M  V30 23 H 2.96859 3.09592 1.16088 0
M  V30 24 H -1.3731 -0.309911 1.6795 0
M  V30 25 H -1.41734 1.42144 1.05582 0
M  V30 26 H -2.96696 0.421935 1.1613 0
M  V30 27 H -0.903765 0.829662 -2.2313 0
M  V30 28 H -0.891013 1.92213 -0.761229 0
M  V30 29 H -2.44364 1.47487 -1.58722 0
M  V30 END ATOM
M  V30 BEGIN BOND
M  V30 1 2 1 2 CFG=2
M  V30 2 1 2 3
M  V30 3 1 3 4
M  V30 4 1 4 5
M  V30 5 2 5 6
M  V30 6 1 6 7
M  V30 7 1 7 8
M  V30 8 2 7 9
M  V30 9 1 9 10
M  V30 10 2 10 11
M  V30 11 1 10 12
M  V30 12 1 3 13
M  V30 13 1 3 14
M  V30 14 1 11 5
M  V30 15 1 1 15
M  V30 16 1 1 16
M  V30 17 1 2 17
M  V30 18 1 4 18
M  V30 19 1 6 19
M  V30 20 1 8 20
M  V30 21 1 8 21
M  V30 22 1 12 22
M  V30 23 1 12 23
M  V30 24 1 13 24
M  V30 25 1 13 25
M  V30 26 1 13 26
M  V30 27 1 14 27
M  V30 28 1 14 28
M  V30 29 1 14 29
M  V30 END BOND
M  V30 END CTAB
M  END
