
     RDKit          3D

  0  0  0  0  0  0  0  0  0  0999 V3000
M  V30 BEGIN CTAB
M  V30 COUNTS 56 59 0 0 0
M  V30 BEGIN ATOM
M  V30 1 N -3.54985 2.25065 2.15959 0
M  V30 2 C -2.79455 1.04729 1.95273 0
M  V30 3 C -2.44986 0.711006 0.670834 0
M  V30 4 O -2.82546 1.52369 -0.421627 0
M  V30 5 C -4.05886 1.26057 -1.04887 0
M  V30 6 C -4.44548 2.0392 -2.11508 0
M  V30 7 C -5.66065 1.78344 -2.73655 0
M  V30 8 C -6.4967 0.769306 -2.31771 0
M  V30 9 C -6.10738 -0.00103249 -1.25792 0
M  V30 10 C -4.89231 0.252667 -0.634436 0
M  V30 11 C -1.72514 -0.439809 0.451016 0
M  V30 12 S -1.30983 -0.815022 -1.26112 0
M  V30 13 S 0.563559 0.117673 -1.63982 0
M  V30 14 C 1.84366 -1.05925 -1.2389 0
M  V30 15 C 1.58214 -2.33023 -0.772915 0
M  V30 16 C 2.57474 -3.22735 -0.467419 0
M  V30 17 C 3.88256 -2.84671 -0.631443 0
M  V30 18 C 4.20653 -1.57926 -1.0974 0
M  V30 19 N 5.57292 -1.21267 -1.25751 0
M  V30 20 C 3.16689 -0.701961 -1.39477 0
M  V30 21 O 3.49026 0.549562 -1.85494 0
M  V30 22 C 3.69781 1.6527 -1.06879 0
M  V30 23 C 4.01785 2.85179 -1.66676 0
M  V30 24 C 4.23232 3.986 -0.874907 0
M  V30 25 C 4.12138 3.89506 0.503641 0
M  V30 26 C 3.80517 2.71177 1.09969 0
M  V30 27 C 3.59498 1.59482 0.304186 0
M  V30 28 C 2.29659 -4.56233 0.022114 0
M  V30 29 O 3.29562 -5.45788 0.326902 0
M  V30 30 O 1.10083 -4.91325 0.173154 0
M  V30 31 C -1.35024 -1.24062 1.4836 0
M  V30 32 C -1.69247 -0.914416 2.79921 0
M  V30 33 C -2.41743 0.240278 2.99963 0
M  V30 34 C -1.29136 -1.77175 3.90697 0
M  V30 35 O -1.65319 -1.40659 5.18487 0
M  V30 36 O -0.634966 -2.80887 3.67888 0
M  V30 37 H -3.09396 3.14879 1.88933 0
M  V30 38 H -4.5053 2.16783 2.56494 0
M  V30 39 H -3.79125 2.82601 -2.43599 0
M  V30 40 H -5.91973 2.41691 -3.56383 0
M  V30 41 H -7.44548 0.617162 -2.85096 0
M  V30 42 H -6.77227 -0.797548 -0.934923 0
M  V30 43 H -4.59483 -0.359583 0.199209 0
M  V30 44 H 0.520903 -2.59632 -0.655556 0
M  V30 45 H 4.70131 -3.5266 -0.401247 0
M  V30 46 H 5.90725 -1.16492 -2.26578 0
M  V30 47 H 6.21316 -1.00369 -0.47297 0
M  V30 48 H 4.11589 2.97041 -2.7471 0
M  V30 49 H 4.48358 4.93539 -1.31541 0
M  V30 50 H 4.29084 4.78036 1.09018 0
M  V30 51 H 3.71876 2.64069 2.17251 0
M  V30 52 H 3.34754 0.669658 0.773434 0
M  V30 53 H 3.22585 -6.45069 0.279984 0
M  V30 54 H -0.783013 -2.14055 1.30705 0
M  V30 55 H -2.70837 0.538059 4.00396 0
M  V30 56 H -2.60097 -1.61985 5.51065 0
M  V30 END ATOM
M  V30 BEGIN BOND
M  V30 1 1 1 2
M  V30 2 2 2 3
M  V30 3 1 3 4
M  V30 4 1 4 5
M  V30 5 2 5 6
M  V30 6 1 6 7
M  V30 7 2 7 8
M  V30 8 1 8 9
M  V30 9 2 9 10
M  V30 10 1 3 11
M  V30 11 1 11 12
M  V30 12 1 12 13
M  V30 13 1 13 14
M  V30 14 2 14 15
M  V30 15 1 15 16
M  V30 16 2 16 17
M  V30 17 1 17 18
M  V30 18 1 18 19
M  V30 19 2 18 20
M  V30 20 1 20 21
M  V30 21 1 21 22
M  V30 22 2 22 23
M  V30 23 1 23 24
M  V30 24 2 24 25
M  V30 25 1 25 26
M  V30 26 2 26 27
M  V30 27 1 16 28
M  V30 28 1 28 29
M  V30 29 2 28 30
M  V30 30 2 11 31
M  V30 31 1 31 32
M  V30 32 2 32 33
M  V30 33 1 32 34
M  V30 34 1 34 35
M  V30 35 2 34 36
M  V30 36 1 33 2
M  V30 37 1 10 5
M  V30 38 1 20 14
M  V30 39 1 27 22
M  V30 40 1 1 37
M  V30 41 1 1 38
M  V30 42 1 6 39
M  V30 43 1 7 40
M  V30 44 1 8 41
M  V30 45 1 9 42
M  V30 46 1 10 43
M  V30 47 1 15 44
M  V30 48 1 17 45
M  V30 49 1 19 46
M  V30 50 1 19 47
M  V30 51 1 23 48
M  V30 52 1 24 49
M  V30 53 1 25 50
M  V30 54 1 26 51
M  V30 55 1 27 52
M  V30 56 1 29 53
M  V30 57 1 31 54
M  V30 58 1 33 55
M  V30 59 1 35 56
M  V30 END BOND
M  V30 END CTAB
M  END
