
     RDKit          3D

  0  0  0  0  0  0  0  0  0  0999 V3000
M  V30 BEGIN CTAB
M  V30 COUNTS 19 20 0 0 0
M  V30 BEGIN ATOM
M  V30 1 N -2.53494 -1.25608 0.0362379 0
M  V30 2 C -1.25692 -0.604855 -0.0455586 0
M  V30 3 C -0.102392 -1.35315 0.0297865 0
M  V30 4 C 1.16398 -0.758167 -0.045641 0
M  V30 5 C 1.2745 0.599516 -0.198077 0
M  V30 6 O 2.61827 0.911469 -0.242733 0
M  V30 7 C 3.31901 -0.197905 0.275709 0
M  V30 8 O 2.44868 -1.30954 0.00703651 0
M  V30 9 C 0.101897 1.36059 -0.274683 0
M  V30 10 C -1.13511 0.754415 -0.198182 0
M  V30 11 N -2.2959 1.56927 -0.280888 0
M  V30 12 H -2.82189 -1.7848 0.889428 0
M  V30 13 H -3.20016 -1.20757 -0.766866 0
M  V30 14 H -0.162051 -2.42887 0.150296 0
M  V30 15 H 3.52774 -0.134917 1.34696 0
M  V30 16 H 4.25541 -0.298183 -0.33836 0
M  V30 17 H 0.216884 2.43023 -0.394909 0
M  V30 18 H -2.85791 1.68319 0.588872 0
M  V30 19 H -2.55908 2.02535 -1.17939 0
M  V30 END ATOM
M  V30 BEGIN BOND
M  V30 1 1 1 2
M  V30 2 2 2 3
M  V30 3 1 3 4
M  V30 4 2 4 5
M  V30 5 1 5 6
M  V30 6 1 6 7
M  V30 7 1 7 8
M  V30 8 1 5 9
M  V30 9 2 9 10
M  V30 10 1 10 11
M  V30 11 1 10 2
M  V30 12 1 8 4
M  V30 13 1 1 12
M  V30 14 1 1 13
M  V30 15 1 3 14
M  V30 16 1 7 15
M  V30 17 1 7 16
M  V30 18 1 9 17
M  V30 19 1 11 18
M  V30 20 1 11 19
M  V30 END BOND
M  V30 END CTAB
M  END
