
     RDKit          3D

  0  0  0  0  0  0  0  0  0  0999 V3000
M  V30 BEGIN CTAB
M  V30 COUNTS 51 53 0 0 0
M  V30 BEGIN ATOM
M  V30 1 N -6.15248 -1.14779 0.49678 0
M  V30 2 C -5.23128 -1.18288 1.61063 0
M  V30 3 C -4.48568 0.102938 1.86681 0
M  V30 4 C -3.16674 -0.533413 1.42054 0
M  V30 5 C -3.90865 -1.82951 1.26907 0
M  V30 6 C -2.72444 0.060364 0.132764 0
M  V30 7 C -1.45188 0.588796 -0.0227427 0
M  V30 8 C -1.11368 1.12174 -1.24347 0
M  V30 9 N -2.04092 1.09826 -2.21634 0
M  V30 10 C -3.25968 0.596166 -2.07935 0
M  V30 11 N -3.60168 0.0717708 -0.888507 0
M  V30 12 N -4.17169 0.620513 -3.17961 0
M  V30 13 N 0.142729 1.68946 -1.54647 0
M  V30 14 C 1.13826 0.850322 -2.15513 0
M  V30 15 C 2.34695 0.558818 -1.35524 0
M  V30 16 C 2.15981 -0.133276 -0.0539032 0
M  V30 17 N 3.5032 -0.309202 0.522207 0
M  V30 18 N 4.18468 0.489959 1.31101 0
M  V30 19 C 5.37346 -0.0132817 1.62433 0
M  V30 20 C 5.47905 -1.22522 0.998509 0
M  V30 21 C 4.2732 -1.38779 0.303689 0
M  V30 22 C 3.90919 -2.55282 -0.530256 0
M  V30 23 C 6.39775 0.635973 2.50032 0
M  V30 24 C 0.332136 3.08675 -1.23974 0
M  V30 25 H -7.04164 -1.65653 0.760542 0
M  V30 26 H -6.42629 -0.174714 0.237827 0
M  V30 27 H -5.64719 -1.59445 2.53632 0
M  V30 28 H -4.8053 0.94994 1.24656 0
M  V30 29 H -4.41752 0.404278 2.92929 0
M  V30 30 H -2.38453 -0.514771 2.20838 0
M  V30 31 H -3.6051 -2.62156 1.98483 0
M  V30 32 H -3.84755 -2.22895 0.236246 0
M  V30 33 H -0.778127 0.570669 0.798925 0
M  V30 34 H -4.9298 1.33976 -3.21597 0
M  V30 35 H -4.04146 -0.0965841 -3.91937 0
M  V30 36 H 1.49148 1.43061 -3.06291 0
M  V30 37 H 0.697038 -0.0665583 -2.60195 0
M  V30 38 H 2.98918 -0.121244 -1.99085 0
M  V30 39 H 2.96546 1.47863 -1.25741 0
M  V30 40 H 1.67501 -1.10121 -0.152317 0
M  V30 41 H 1.59651 0.461593 0.694875 0
M  V30 42 H 6.29344 -1.93115 1.01118 0
M  V30 43 H 4.74223 -2.82169 -1.22768 0
M  V30 44 H 2.98117 -2.34177 -1.09609 0
M  V30 45 H 3.65753 -3.44154 0.115676 0
M  V30 46 H 7.29791 0.0197945 2.60131 0
M  V30 47 H 6.67764 1.63662 2.08184 0
M  V30 48 H 5.89065 0.827665 3.46724 0
M  V30 49 H -0.160521 3.28812 -0.264839 0
M  V30 50 H 1.398 3.36951 -1.14118 0
M  V30 51 H -0.19982 3.67889 -2.0079 0
M  V30 END ATOM
M  V30 BEGIN BOND
M  V30 1 1 1 2
M  V30 2 1 2 3
M  V30 3 1 3 4
M  V30 4 1 4 5
M  V30 5 1 4 6
M  V30 6 2 6 7
M  V30 7 1 7 8
M  V30 8 2 8 9
M  V30 9 1 9 10
M  V30 10 2 10 11
M  V30 11 1 10 12
M  V30 12 1 8 13
M  V30 13 1 13 14
M  V30 14 1 14 15
M  V30 15 1 15 16
M  V30 16 1 16 17
M  V30 17 1 17 18
M  V30 18 2 18 19
M  V30 19 1 19 20
M  V30 20 2 20 21
M  V30 21 1 21 22
M  V30 22 1 19 23
M  V30 23 1 13 24
M  V30 24 1 5 2
M  V30 25 1 11 6
M  V30 26 1 21 17
M  V30 27 1 1 25
M  V30 28 1 1 26
M  V30 29 1 2 27
M  V30 30 1 3 28
M  V30 31 1 3 29
M  V30 32 1 4 30
M  V30 33 1 5 31
M  V30 34 1 5 32
M  V30 35 1 7 33
M  V30 36 1 12 34
M  V30 37 1 12 35
M  V30 38 1 14 36
M  V30 39 1 14 37
M  V30 40 1 15 38
M  V30 41 1 15 39
M  V30 42 1 16 40
M  V30 43 1 16 41
M  V30 44 1 20 42
M  V30 45 1 22 43
M  V30 46 1 22 44
M  V30 47 1 22 45
M  V30 48 1 23 46
M  V30 49 1 23 47
M  V30 50 1 23 48
M  V30 51 1 24 49
M  V30 52 1 24 50
M  V30 53 1 24 51
M  V30 END BOND
M  V30 END CTAB
M  END
