
     RDKit          3D

  0  0  0  0  0  0  0  0  0  0999 V3000
M  V30 BEGIN CTAB
M  V30 COUNTS 26 26 0 0 0
M  V30 BEGIN ATOM
M  V30 1 O -0.991496 2.42187 0.0576676 0
M  V30 2 C -1.59584 1.32612 0.670763 0
M  V30 3 C -1.13121 0.0932694 -0.0155133 0
M  V30 4 C -1.67603 -1.21117 0.504393 0
M  V30 5 C -1.79658 -1.65153 -0.940252 0
M  V30 6 C -1.93315 -0.16873 -1.2858 0
M  V30 7 C 0.336804 0.101905 -0.350038 0
M  V30 8 N 1.17725 0.228796 0.799494 0
M  V30 9 C 2.45126 0.0837303 0.663117 0
M  V30 10 N 3.28672 0.212549 1.82077 0
M  V30 11 N 3.02581 -0.195972 -0.592396 0
M  V30 12 H -0.361829 2.85229 0.69564 0
M  V30 13 H -2.68516 1.44253 0.623176 0
M  V30 14 H -1.26434 1.26692 1.7456 0
M  V30 15 H -1.00787 -1.80895 1.1335 0
M  V30 16 H -2.70232 -1.04436 0.908432 0
M  V30 17 H -2.69807 -2.24622 -1.17376 0
M  V30 18 H -0.892196 -2.05142 -1.40092 0
M  V30 19 H -2.97391 0.146509 -1.13038 0
M  V30 20 H -1.43731 0.139709 -2.2108 0
M  V30 21 H 0.648503 -0.809611 -0.898795 0
M  V30 22 H 0.534957 0.986427 -1.00497 0
M  V30 23 H 3.26656 1.03995 2.4438 0
M  V30 24 H 3.93348 -0.574445 2.0219 0
M  V30 25 H 3.6372 0.509363 -1.04061 0
M  V30 26 H 2.84876 -1.08955 -1.07279 0
M  V30 END ATOM
M  V30 BEGIN BOND
M  V30 1 1 1 2
M  V30 2 1 2 3
M  V30 3 1 3 4
M  V30 4 1 4 5
M  V30 5 1 5 6
M  V30 6 1 3 7
M  V30 7 1 7 8
M  V30 8 2 8 9 CFG=2
M  V30 9 1 9 10
M  V30 10 1 9 11
M  V30 11 1 6 3
M  V30 12 1 1 12
M  V30 13 1 2 13
M  V30 14 1 2 14
M  V30 15 1 4 15
M  V30 16 1 4 16
M  V30 17 1 5 17
M  V30 18 1 5 18
M  V30 19 1 6 19
M  V30 20 1 6 20
M  V30 21 1 7 21
M  V30 22 1 7 22
M  V30 23 1 10 23
M  V30 24 1 10 24
M  V30 25 1 11 25
M  V30 26 1 11 26
M  V30 END BOND
M  V30 END CTAB
M  END
