
     RDKit          3D

  0  0  0  0  0  0  0  0  0  0999 V3000
M  V30 BEGIN CTAB
M  V30 COUNTS 43 45 0 0 0
M  V30 BEGIN ATOM
M  V30 1 Cl 5.52982 -0.404548 -4.31586 0
M  V30 2 C 4.62099 -0.654245 -2.85239 0
M  V30 3 C 3.33031 -0.215876 -2.72562 0
M  V30 4 C 2.58377 -0.400402 -1.57415 0
M  V30 5 C 3.13962 -1.05163 -0.490657 0
M  V30 6 C 4.45578 -1.49639 -0.62549 0
M  V30 7 C 5.18538 -1.30413 -1.78017 0
M  V30 8 C 2.46385 -1.31345 0.782504 0
M  V30 9 O 1.37904 -0.520328 1.08966 0
M  V30 10 C 1.45155 0.841269 1.26254 0
M  V30 11 C 2.6146 1.57128 1.16508 0
M  V30 12 C 2.64793 2.95517 1.34909 0
M  V30 13 C 1.48901 3.62611 1.63835 0
M  V30 14 C 0.336595 2.88572 1.73307 0
M  V30 15 C 0.272705 1.52331 1.55698 0
M  V30 16 C -0.995157 0.799131 1.67357 0
M  V30 17 O -2.02353 1.46589 1.94029 0
M  V30 18 O -1.12413 -0.547151 1.51074 0
M  V30 19 C -2.27878 -1.31463 1.60123 0
M  V30 20 C -3.35434 -0.985736 0.662642 0
M  V30 21 N -4.3606 -0.178121 1.03271 0
M  V30 22 C -5.36794 0.14736 0.197166 0
M  V30 23 N -6.43834 0.997494 0.56848 0
M  V30 24 N -5.33716 -0.368296 -1.04003 0
M  V30 25 C -4.35395 -1.18246 -1.46416 0
M  V30 26 N -3.37582 -1.4727 -0.588403 0
M  V30 27 N -4.34935 -1.71931 -2.79708 0
M  V30 28 H 2.9014 0.297047 -3.58733 0
M  V30 29 H 1.5748 -0.053742 -1.48481 0
M  V30 30 H 4.96363 -2.02004 0.188883 0
M  V30 31 H 6.20618 -1.6485 -1.88618 0
M  V30 32 H 3.24229 -1.24734 1.59209 0
M  V30 33 H 2.13069 -2.39226 0.73971 0
M  V30 34 H 3.55904 1.11385 0.953272 0
M  V30 35 H 3.55312 3.52742 1.27342 0
M  V30 36 H 1.43014 4.68859 1.79399 0
M  V30 37 H -0.609214 3.37803 1.96178 0
M  V30 38 H -2.03914 -2.40067 1.45191 0
M  V30 39 H -2.65703 -1.27341 2.66529 0
M  V30 40 H -6.67352 1.78605 -0.0725745 0
M  V30 41 H -6.99295 0.853167 1.46314 0
M  V30 42 H -3.48411 -1.83755 -3.36364 0
M  V30 43 H -5.24718 -1.99573 -3.19906 0
M  V30 END ATOM
M  V30 BEGIN BOND
M  V30 1 1 1 2
M  V30 2 2 2 3
M  V30 3 1 3 4
M  V30 4 2 4 5
M  V30 5 1 5 6
M  V30 6 2 6 7
M  V30 7 1 5 8
M  V30 8 1 8 9
M  V30 9 1 9 10
M  V30 10 2 10 11
M  V30 11 1 11 12
M  V30 12 2 12 13
M  V30 13 1 13 14
M  V30 14 2 14 15
M  V30 15 1 15 16
M  V30 16 2 16 17
M  V30 17 1 16 18
M  V30 18 1 18 19
M  V30 19 1 19 20
M  V30 20 2 20 21
M  V30 21 1 21 22
M  V30 22 1 22 23
M  V30 23 2 22 24
M  V30 24 1 24 25
M  V30 25 2 25 26
M  V30 26 1 25 27
M  V30 27 1 7 2
M  V30 28 1 15 10
M  V30 29 1 26 20
M  V30 30 1 3 28
M  V30 31 1 4 29
M  V30 32 1 6 30
M  V30 33 1 7 31
M  V30 34 1 8 32
M  V30 35 1 8 33
M  V30 36 1 11 34
M  V30 37 1 12 35
M  V30 38 1 13 36
M  V30 39 1 14 37
M  V30 40 1 19 38
M  V30 41 1 19 39
M  V30 42 1 23 40
M  V30 43 1 23 41
M  V30 44 1 27 42
M  V30 45 1 27 43
M  V30 END BOND
M  V30 END CTAB
M  END
