
     RDKit          3D

  0  0  0  0  0  0  0  0  0  0999 V3000
M  V30 BEGIN CTAB
M  V30 COUNTS 28 28 0 0 0
M  V30 BEGIN ATOM
M  V30 1 C 4.06799 -0.886388 -0.906189 0
M  V30 2 C 3.9154 0.413799 -0.155664 0
M  V30 3 O 2.76308 0.432016 0.661389 0
M  V30 4 C 1.46354 0.298161 0.229905 0
M  V30 5 O 1.2693 0.14621 -0.992602 0
M  V30 6 C 0.349579 0.331964 1.16325 0
M  V30 7 C -0.974766 0.203299 0.599204 0
M  V30 8 C -1.63737 -0.999936 0.675674 0
M  V30 9 C -2.90876 -1.17938 0.145572 0
M  V30 10 N -3.51147 -2.45294 0.272773 0
M  V30 11 C -3.52353 -0.118247 -0.475813 0
M  V30 12 C -2.85795 1.10285 -0.556638 0
M  V30 13 C -1.59724 1.25086 -0.0212962 0
M  V30 14 N -0.93381 2.4879 -0.0956441 0
M  V30 15 F -3.50713 2.10208 -1.17389 0
M  V30 16 H 4.20967 -1.74096 -0.215823 0
M  V30 17 H 3.27558 -1.10827 -1.62114 0
M  V30 18 H 5.01802 -0.786889 -1.49078 0
M  V30 19 H 4.83058 0.50505 0.493192 0
M  V30 20 H 3.92988 1.25257 -0.878228 0
M  V30 21 H 0.358296 1.26064 1.81408 0
M  V30 22 H 0.499471 -0.486317 1.92525 0
M  V30 23 H -1.15627 -1.8383 1.16413 0
M  V30 24 H -3.79453 -2.85235 1.18337 0
M  V30 25 H -3.677 -3.00942 -0.583424 0
M  V30 26 H -4.5217 -0.244418 -0.896393 0
M  V30 27 H -0.17287 2.62636 -0.784268 0
M  V30 28 H -1.176 3.29006 0.520001 0
M  V30 END ATOM
M  V30 BEGIN BOND
M  V30 1 1 1 2
M  V30 2 1 2 3
M  V30 3 1 3 4
M  V30 4 2 4 5
M  V30 5 1 4 6
M  V30 6 1 6 7
M  V30 7 2 7 8
M  V30 8 1 8 9
M  V30 9 1 9 10
M  V30 10 2 9 11
M  V30 11 1 11 12
M  V30 12 2 12 13
M  V30 13 1 13 14
M  V30 14 1 12 15
M  V30 15 1 13 7
M  V30 16 1 1 16
M  V30 17 1 1 17
M  V30 18 1 1 18
M  V30 19 1 2 19
M  V30 20 1 2 20
M  V30 21 1 6 21
M  V30 22 1 6 22
M  V30 23 1 8 23
M  V30 24 1 10 24
M  V30 25 1 10 25
M  V30 26 1 11 26
M  V30 27 1 14 27
M  V30 28 1 14 28
M  V30 END BOND
M  V30 END CTAB
M  END
