
     RDKit          3D

  0  0  0  0  0  0  0  0  0  0999 V3000
M  V30 BEGIN CTAB
M  V30 COUNTS 33 34 0 0 0
M  V30 BEGIN ATOM
M  V30 1 N -3.57421 2.98364 -0.0342536 0
M  V30 2 C -2.65209 1.8981 0.0142693 0
M  V30 3 C -1.40814 2.00552 0.570519 0
M  V30 4 C -0.54116 0.905536 0.591335 0
M  V30 5 C -0.883569 -0.301402 0.0702097 0
M  V30 6 C -2.15974 -0.396406 -0.495495 0
M  V30 7 C -3.01257 0.686454 -0.515544 0
M  V30 8 S -2.66686 -1.90464 -1.17935 0
M  V30 9 O -1.76355 -2.36667 -2.2896 0
M  V30 10 O -4.09298 -1.83154 -1.64732 0
M  V30 11 N -2.63454 -3.12427 0.0734064 0
M  V30 12 O -0.0310167 -1.37375 0.0945668 0
M  V30 13 C 1.24908 -1.45997 0.596554 0
M  V30 14 C 2.26643 -0.601082 0.00412401 0
M  V30 15 C 3.40666 -0.329419 0.740897 0
M  V30 16 C 4.42315 0.464772 0.251827 0
M  V30 17 C 4.35033 1.01981 -0.983426 0
M  V30 18 C 3.22663 0.769728 -1.74615 0
M  V30 19 C 2.21161 -0.0245627 -1.2552 0
M  V30 20 H -3.21504 3.95354 -0.164204 0
M  V30 21 H -4.59332 2.86392 0.0531395 0
M  V30 22 H -1.10706 2.94935 0.99175 0
M  V30 23 H 0.441401 1.05058 1.05814 0
M  V30 24 H -4.01392 0.606337 -0.961174 0
M  V30 25 H -2.94306 -4.01113 -0.416582 0
M  V30 26 H -1.66774 -3.18544 0.432358 0
M  V30 27 H 1.24705 -1.26336 1.70944 0
M  V30 28 H 1.60666 -2.52424 0.466079 0
M  V30 29 H 3.54932 -0.73171 1.73876 0
M  V30 30 H 5.30666 0.653694 0.867542 0
M  V30 31 H 5.1726 1.63682 -1.32626 0
M  V30 32 H 3.17558 1.21142 -2.72125 0
M  V30 33 H 1.32742 -0.229635 -1.8381 0
M  V30 END ATOM
M  V30 BEGIN BOND
M  V30 1 1 1 2
M  V30 2 2 2 3
M  V30 3 1 3 4
M  V30 4 2 4 5
M  V30 5 1 5 6
M  V30 6 2 6 7
M  V30 7 1 6 8
M  V30 8 2 8 9
M  V30 9 2 8 10
M  V30 10 1 8 11
M  V30 11 1 5 12
M  V30 12 1 12 13
M  V30 13 1 13 14
M  V30 14 2 14 15
M  V30 15 1 15 16
M  V30 16 2 16 17
M  V30 17 1 17 18
M  V30 18 2 18 19
M  V30 19 1 7 2
M  V30 20 1 19 14
M  V30 21 1 1 20
M  V30 22 1 1 21
M  V30 23 1 3 22
M  V30 24 1 4 23
M  V30 25 1 7 24
M  V30 26 1 11 25
M  V30 27 1 11 26
M  V30 28 1 13 27
M  V30 29 1 13 28
M  V30 30 1 15 29
M  V30 31 1 16 30
M  V30 32 1 17 31
M  V30 33 1 18 32
M  V30 34 1 19 33
M  V30 END BOND
M  V30 END CTAB
M  END
