
     RDKit          3D

  0  0  0  0  0  0  0  0  0  0999 V3000
M  V30 BEGIN CTAB
M  V30 COUNTS 27 27 0 0 0
M  V30 BEGIN ATOM
M  V30 1 C 5.23458 0.773337 0.141359 0
M  V30 2 C 4.72994 -0.611305 0.403357 0
M  V30 3 O 3.38431 -0.655168 0.818469 0
M  V30 4 C 2.40199 -0.156201 -0.00764202 0
M  V30 5 O 2.75495 0.329422 -1.12465 0
M  V30 6 C 0.978234 -0.198797 0.42331 0
M  V30 7 S -0.0193576 0.522788 -0.873193 0
M  V30 8 C -1.74497 0.556485 -0.532668 0
M  V30 9 N -2.2604 1.62301 0.0963458 0
M  V30 10 N -3.54489 1.74703 0.399108 0
M  V30 11 C -4.41763 0.756115 0.068126 0
M  V30 12 C -3.90817 -0.35236 -0.580697 0
M  V30 13 O -4.69039 -1.27737 -0.895732 0
M  V30 14 N -2.59641 -0.429419 -0.865127 0
M  V30 15 N -2.11429 -1.57447 -1.52705 0
M  V30 16 N -5.79626 0.89594 0.396342 0
M  V30 17 H 6.25139 0.88942 0.616535 0
M  V30 18 H 5.34394 0.917907 -0.941507 0
M  V30 19 H 4.60353 1.56611 0.610298 0
M  V30 20 H 4.84341 -1.23967 -0.519005 0
M  V30 21 H 5.36782 -1.10484 1.18865 0
M  V30 22 H 0.741805 -1.24445 0.655135 0
M  V30 23 H 0.937601 0.375751 1.38938 0
M  V30 24 H -1.61083 -1.51305 -2.41575 0
M  V30 25 H -2.27154 -2.50588 -1.1062 0
M  V30 26 H -6.16107 0.637782 1.33838 0
M  V30 27 H -6.43728 1.27187 -0.351936 0
M  V30 END ATOM
M  V30 BEGIN BOND
M  V30 1 1 1 2
M  V30 2 1 2 3
M  V30 3 1 3 4
M  V30 4 2 4 5
M  V30 5 1 4 6
M  V30 6 1 6 7
M  V30 7 1 7 8
M  V30 8 2 8 9
M  V30 9 1 9 10
M  V30 10 2 10 11
M  V30 11 1 11 12
M  V30 12 2 12 13
M  V30 13 1 12 14
M  V30 14 1 14 15
M  V30 15 1 11 16
M  V30 16 1 14 8
M  V30 17 1 1 17
M  V30 18 1 1 18
M  V30 19 1 1 19
M  V30 20 1 2 20
M  V30 21 1 2 21
M  V30 22 1 6 22
M  V30 23 1 6 23
M  V30 24 1 15 24
M  V30 25 1 15 25
M  V30 26 1 16 26
M  V30 27 1 16 27
M  V30 END BOND
M  V30 END CTAB
M  END
