
     RDKit          3D

  0  0  0  0  0  0  0  0  0  0999 V3000
M  V30 BEGIN CTAB
M  V30 COUNTS 41 42 0 0 0
M  V30 BEGIN ATOM
M  V30 1 N 6.98729 -0.360236 1.04228 0
M  V30 2 C 6.89516 0.0180455 -0.327358 0
M  V30 3 C 5.73478 0.937285 -0.633173 0
M  V30 4 C 4.45714 0.22244 -0.262755 0
M  V30 5 S 4.22495 -1.33239 0.389694 0
M  V30 6 C 2.50634 -1.30377 0.480038 0
M  V30 7 C 2.22737 -0.0566657 -0.0156444 0
M  V30 8 N 3.24064 0.678105 -0.377631 0
M  V30 9 C 0.827342 0.443926 -0.13879 0
M  V30 10 O 0.642682 1.5864 -0.595475 0
M  V30 11 N -0.223811 -0.375088 0.257584 0
M  V30 12 C -1.60083 -0.0911714 0.221627 0
M  V30 13 C -2.18274 1.0709 -0.219455 0
M  V30 14 C -3.56208 1.28263 -0.225618 0
M  V30 15 C -4.38934 0.307137 0.221325 0
M  V30 16 C -3.84624 -0.876398 0.673443 0
M  V30 17 C -2.4884 -1.08345 0.678938 0
M  V30 18 C -1.95683 -2.37638 1.17625 0
M  V30 19 C -4.74465 -1.95829 1.16802 0
M  V30 20 S -4.15736 2.81113 -0.815701 0
M  V30 21 O -5.40148 3.18431 -0.0282087 0
M  V30 22 O -3.14444 3.89852 -0.522932 0
M  V30 23 N -4.47152 2.81161 -2.48742 0
M  V30 24 H 6.82486 -1.3702 1.23248 0
M  V30 25 H 6.5297 0.276827 1.70619 0
M  V30 26 H 6.79592 -0.92584 -0.932697 0
M  V30 27 H 7.80482 0.530217 -0.679002 0
M  V30 28 H 5.78657 1.82823 -0.00960784 0
M  V30 29 H 5.69325 1.11175 -1.71753 0
M  V30 30 H 1.82639 -2.09483 0.84539 0
M  V30 31 H 0.0377146 -1.33798 0.636404 0
M  V30 32 H -1.56748 1.87807 -0.585223 0
M  V30 33 H -5.46138 0.462699 0.220215 0
M  V30 34 H -1.34374 -2.24612 2.06801 0
M  V30 35 H -1.31163 -2.84908 0.401948 0
M  V30 36 H -2.76472 -3.06999 1.40113 0
M  V30 37 H -5.80111 -1.64453 1.11735 0
M  V30 38 H -4.4644 -2.23013 2.2218 0
M  V30 39 H -4.63176 -2.87622 0.56061 0
M  V30 40 H -5.4218 3.10877 -2.75088 0
M  V30 41 H -4.10518 2.00976 -3.01068 0
M  V30 END ATOM
M  V30 BEGIN BOND
M  V30 1 1 1 2
M  V30 2 1 2 3
M  V30 3 1 3 4
M  V30 4 1 4 5
M  V30 5 1 5 6
M  V30 6 2 6 7
M  V30 7 1 7 8
M  V30 8 1 7 9
M  V30 9 2 9 10
M  V30 10 1 9 11
M  V30 11 1 11 12
M  V30 12 2 12 13
M  V30 13 1 13 14
M  V30 14 2 14 15
M  V30 15 1 15 16
M  V30 16 2 16 17
M  V30 17 1 17 18
M  V30 18 1 16 19
M  V30 19 1 14 20
M  V30 20 2 20 21
M  V30 21 2 20 22
M  V30 22 1 20 23
M  V30 23 2 8 4
M  V30 24 1 17 12
M  V30 25 1 1 24
M  V30 26 1 1 25
M  V30 27 1 2 26
M  V30 28 1 2 27
M  V30 29 1 3 28
M  V30 30 1 3 29
M  V30 31 1 6 30
M  V30 32 1 11 31
M  V30 33 1 13 32
M  V30 34 1 15 33
M  V30 35 1 18 34
M  V30 36 1 18 35
M  V30 37 1 18 36
M  V30 38 1 19 37
M  V30 39 1 19 38
M  V30 40 1 19 39
M  V30 41 1 23 40
M  V30 42 1 23 41
M  V30 END BOND
M  V30 END CTAB
M  END
