
     RDKit          3D

  0  0  0  0  0  0  0  0  0  0999 V3000
M  V30 BEGIN CTAB
M  V30 COUNTS 30 31 0 0 0
M  V30 BEGIN ATOM
M  V30 1 N 4.21493 0.716358 -0.726585 0
M  V30 2 C 2.96687 1.14475 -0.230478 0
M  V30 3 N 2.81561 2.44836 0.114181 0
M  V30 4 C 1.66014 2.92039 0.590605 0
M  V30 5 C 0.588557 2.04538 0.734014 0
M  V30 6 C 0.686472 0.711556 0.39952 0
M  V30 7 C 1.89112 0.262014 -0.0874969 0
M  V30 8 C -0.458008 -0.156884 0.567368 0 CFG=2
M  V30 9 C -0.301126 -1.16666 1.70278 0
M  V30 10 C -1.62706 -1.90681 1.47548 0
M  V30 11 C -1.56004 -2.10045 -0.0271439 0
M  V30 12 N -0.718618 -1.04131 -0.542517 0
M  V30 13 S -1.48512 -0.228397 -1.86202 0
M  V30 14 O -1.73175 -1.20873 -2.94713 0
M  V30 15 O -0.659694 0.898407 -2.36684 0
M  V30 16 N -3.01334 0.374945 -1.29454 0
M  V30 17 H 4.64745 1.2791 -1.49001 0
M  V30 18 H 4.67991 -0.139345 -0.332468 0
M  V30 19 H 1.60976 3.96952 0.8452 0
M  V30 20 H -0.325458 2.47149 1.12287 0
M  V30 21 H 2.00257 -0.762228 -0.355942 0
M  V30 22 H -1.40072 0.384751 0.777592 0
M  V30 23 H 0.497108 -1.88699 1.47773 0
M  V30 24 H -0.254824 -0.704025 2.68221 0
M  V30 25 H -2.45469 -1.19182 1.71106 0
M  V30 26 H -1.6789 -2.84015 2.02811 0
M  V30 27 H -1.03814 -3.09139 -0.174247 0
M  V30 28 H -2.55914 -2.11512 -0.501099 0
M  V30 29 H -3.76536 -0.31296 -1.41473 0
M  V30 30 H -3.22851 1.22626 -1.87546 0
M  V30 END ATOM
M  V30 BEGIN BOND
M  V30 1 1 1 2
M  V30 2 2 2 3
M  V30 3 1 3 4
M  V30 4 2 4 5
M  V30 5 1 5 6
M  V30 6 2 6 7
M  V30 7 1 6 8
M  V30 8 1 8 9
M  V30 9 1 9 10
M  V30 10 1 10 11
M  V30 11 1 11 12
M  V30 12 1 12 13
M  V30 13 2 13 14
M  V30 14 2 13 15
M  V30 15 1 13 16
M  V30 16 1 7 2
M  V30 17 1 12 8
M  V30 18 1 1 17
M  V30 19 1 1 18
M  V30 20 1 4 19
M  V30 21 1 5 20
M  V30 22 1 7 21
M  V30 23 1 8 22 CFG=1
M  V30 24 1 9 23
M  V30 25 1 9 24
M  V30 26 1 10 25
M  V30 27 1 10 26
M  V30 28 1 11 27
M  V30 29 1 11 28
M  V30 30 1 16 29
M  V30 31 1 16 30
M  V30 END BOND
M  V30 END CTAB
M  END
