
     RDKit          3D

  0  0  0  0  0  0  0  0  0  0999 V3000
M  V30 BEGIN CTAB
M  V30 COUNTS 32 33 0 0 0
M  V30 BEGIN ATOM
M  V30 1 C -3.04488 -2.47004 1.92525 0
M  V30 2 O -2.19892 -1.53639 1.30495 0
M  V30 3 C -2.71422 -0.622522 0.420501 0
M  V30 4 C -4.09698 -0.633464 0.144372 0
M  V30 5 C -4.59957 0.287421 -0.743424 0
M  V30 6 C -3.77757 1.20646 -1.35621 0
M  V30 7 Cl -4.49862 2.33915 -2.46945 0
M  V30 8 C -2.43454 1.22322 -1.09325 0
M  V30 9 C -1.90825 0.294825 -0.194157 0
M  V30 10 C -0.481948 0.370855 0.0355597 0
M  V30 11 C 0.278394 -0.406173 0.854095 0
M  V30 12 C 1.58602 0.0657112 0.722288 0
M  V30 13 C 1.55853 1.12167 -0.182435 0
M  V30 14 O 0.333368 1.25159 -0.545979 0
M  V30 15 C 2.71315 1.90396 -0.61011 0
M  V30 16 O 2.53084 2.82625 -1.43303 0
M  V30 17 N 4.00287 1.64176 -0.120561 0
M  V30 18 C 4.72222 0.642943 -0.384167 0
M  V30 19 N 4.2664 -0.370855 -1.25366 0
M  V30 20 N 6.00786 0.509633 0.184426 0
M  V30 21 H -3.62281 -2.05372 2.7663 0
M  V30 22 H -2.37782 -3.25676 2.3844 0
M  V30 23 H -3.6856 -3.02665 1.20395 0
M  V30 24 H -4.72212 -1.36242 0.635961 0
M  V30 25 H -5.67344 0.291235 -0.968354 0
M  V30 26 H -1.82183 1.96062 -1.59458 0
M  V30 27 H 0.0527964 -1.21944 1.49994 0
M  V30 28 H 2.4433 -0.316215 1.22444 0
M  V30 29 H 4.27308 -1.36602 -0.913381 0
M  V30 30 H 3.91549 -0.179155 -2.23825 0
M  V30 31 H 6.0771 0.09873 1.16218 0
M  V30 32 H 6.89768 0.783794 -0.281672 0
M  V30 END ATOM
M  V30 BEGIN BOND
M  V30 1 1 1 2
M  V30 2 1 2 3
M  V30 3 2 3 4
M  V30 4 1 4 5
M  V30 5 2 5 6
M  V30 6 1 6 7
M  V30 7 1 6 8
M  V30 8 2 8 9
M  V30 9 1 9 10
M  V30 10 2 10 11
M  V30 11 1 11 12
M  V30 12 2 12 13
M  V30 13 1 13 14
M  V30 14 1 13 15
M  V30 15 2 15 16
M  V30 16 1 15 17
M  V30 17 2 17 18
M  V30 18 1 18 19
M  V30 19 1 18 20
M  V30 20 1 9 3
M  V30 21 1 14 10
M  V30 22 1 1 21
M  V30 23 1 1 22
M  V30 24 1 1 23
M  V30 25 1 4 24
M  V30 26 1 5 25
M  V30 27 1 8 26
M  V30 28 1 11 27
M  V30 29 1 12 28
M  V30 30 1 19 29
M  V30 31 1 19 30
M  V30 32 1 20 31
M  V30 33 1 20 32
M  V30 END BOND
M  V30 END CTAB
M  END
