
     RDKit          3D

  0  0  0  0  0  0  0  0  0  0999 V3000
M  V30 BEGIN CTAB
M  V30 COUNTS 34 33 0 0 0
M  V30 BEGIN ATOM
M  V30 1 N -3.09552 -0.893194 -1.54397 0
M  V30 2 C -1.88003 -1.55727 -1.22676 0
M  V30 3 C -1.43238 -1.24306 0.188226 0
M  V30 4 N -1.19719 0.150237 0.437532 0
M  V30 5 C 0.0198199 0.788633 0.242848 0
M  V30 6 O -0.078153 2.08599 0.497861 0
M  V30 7 N 1.30687 0.454662 -0.141317 0
M  V30 8 C 2.32333 1.435 -0.269545 0
M  V30 9 O 3.48871 1.01211 -0.625168 0
M  V30 10 C 2.21998 2.8682 -0.0501909 0
M  V30 11 C 1.74759 -0.882449 -0.438943 0
M  V30 12 C 2.31225 -1.59772 0.779999 0
M  V30 13 N 2.70999 -2.93144 0.307439 0
M  V30 14 C -2.31466 0.878082 0.961868 0
M  V30 15 O -3.37333 0.17736 1.16301 0
M  V30 16 C -2.40272 2.30145 1.29353 0
M  V30 17 H -3.16827 -0.766027 -2.57699 0
M  V30 18 H -3.95427 -1.41019 -1.23753 0
M  V30 19 H -2.10522 -2.66483 -1.21362 0
M  V30 20 H -1.07236 -1.41311 -1.95898 0
M  V30 21 H -0.632332 -1.93549 0.450255 0
M  V30 22 H -2.37153 -1.55444 0.809382 0
M  V30 23 H 3.21205 3.37468 -0.261437 0
M  V30 24 H 1.46091 3.3685 -0.688147 0
M  V30 25 H 1.97654 3.07187 1.00739 0
M  V30 26 H 1.07568 -1.53932 -0.950525 0
M  V30 27 H 2.64309 -0.773223 -1.1572 0
M  V30 28 H 1.52895 -1.73737 1.52706 0
M  V30 29 H 3.20387 -1.06466 1.11234 0
M  V30 30 H 1.88943 -3.39062 -0.188884 0
M  V30 31 H 3.39701 -2.74165 -0.477191 0
M  V30 32 H -1.71483 2.62132 2.12328 0
M  V30 33 H -2.26451 2.98539 0.429881 0
M  V30 34 H -3.45878 2.52261 1.67449 0
M  V30 END ATOM
M  V30 BEGIN BOND
M  V30 1 1 1 2
M  V30 2 1 2 3
M  V30 3 1 3 4
M  V30 4 1 4 5
M  V30 5 2 5 6
M  V30 6 1 5 7
M  V30 7 1 7 8
M  V30 8 2 8 9
M  V30 9 1 8 10
M  V30 10 1 7 11
M  V30 11 1 11 12
M  V30 12 1 12 13
M  V30 13 1 4 14
M  V30 14 2 14 15
M  V30 15 1 14 16
M  V30 16 1 1 17
M  V30 17 1 1 18
M  V30 18 1 2 19
M  V30 19 1 2 20
M  V30 20 1 3 21
M  V30 21 1 3 22
M  V30 22 1 10 23
M  V30 23 1 10 24
M  V30 24 1 10 25
M  V30 25 1 11 26
M  V30 26 1 11 27
M  V30 27 1 12 28
M  V30 28 1 12 29
M  V30 29 1 13 30
M  V30 30 1 13 31
M  V30 31 1 16 32
M  V30 32 1 16 33
M  V30 33 1 16 34
M  V30 END BOND
M  V30 END CTAB
M  END
