
     RDKit          3D

  0  0  0  0  0  0  0  0  0  0999 V3000
M  V30 BEGIN CTAB
M  V30 COUNTS 30 30 0 0 0
M  V30 BEGIN ATOM
M  V30 1 N -4.00463 0.820705 0.182007 0
M  V30 2 C -2.89103 0.23358 0.90578 0
M  V30 3 C -2.84717 -1.2247 0.531071 0
M  V30 4 C -1.65816 -1.28414 -0.422711 0
M  V30 5 C -0.703355 -0.379842 0.331748 0
M  V30 6 C -1.56211 0.842734 0.479568 0
M  V30 7 C 0.556265 -0.130264 -0.434976 0
M  V30 8 C 1.44301 0.855271 0.289539 0
M  V30 9 N 2.66523 0.909167 -0.506939 0
M  V30 10 S 3.77928 -0.286508 0.0302236 0
M  V30 11 O 3.37117 -0.901265 1.34313 0
M  V30 12 O 3.69549 -1.41124 -1.00124 0
M  V30 13 N 5.40245 0.244027 0.106545 0
M  V30 14 H -4.35694 1.67865 0.670516 0
M  V30 15 H -4.79329 0.134862 0.241598 0
M  V30 16 H -2.99767 0.373803 2.01055 0
M  V30 17 H -2.57515 -1.85662 1.40214 0
M  V30 18 H -3.77379 -1.59468 0.0700829 0
M  V30 19 H -1.97558 -0.762291 -1.33736 0
M  V30 20 H -1.28684 -2.30129 -0.569686 0
M  V30 21 H -0.487772 -0.789646 1.33057 0
M  V30 22 H -1.73067 1.32542 -0.517098 0
M  V30 23 H -1.16367 1.55036 1.21656 0
M  V30 24 H 0.423362 0.0724125 -1.48237 0
M  V30 25 H 1.14154 -1.1124 -0.368167 0
M  V30 26 H 1.68713 0.575694 1.2816 0
M  V30 27 H 1.00542 1.90232 0.204398 0
M  V30 28 H 2.49144 0.866681 -1.51059 0
M  V30 29 H 5.64975 0.636411 -0.831392 0
M  V30 30 H 5.4963 1.0128 0.821756 0
M  V30 END ATOM
M  V30 BEGIN BOND
M  V30 1 1 1 2
M  V30 2 1 2 3
M  V30 3 1 3 4
M  V30 4 1 4 5
M  V30 5 1 5 6
M  V30 6 1 5 7
M  V30 7 1 7 8
M  V30 8 1 8 9
M  V30 9 1 9 10
M  V30 10 2 10 11
M  V30 11 2 10 12
M  V30 12 1 10 13
M  V30 13 1 6 2
M  V30 14 1 1 14
M  V30 15 1 1 15
M  V30 16 1 2 16
M  V30 17 1 3 17
M  V30 18 1 3 18
M  V30 19 1 4 19
M  V30 20 1 4 20
M  V30 21 1 5 21
M  V30 22 1 6 22
M  V30 23 1 6 23
M  V30 24 1 7 24
M  V30 25 1 7 25
M  V30 26 1 8 26
M  V30 27 1 8 27
M  V30 28 1 9 28
M  V30 29 1 13 29
M  V30 30 1 13 30
M  V30 END BOND
M  V30 END CTAB
M  END
