
     RDKit          3D

  0  0  0  0  0  0  0  0  0  0999 V3000
M  V30 BEGIN CTAB
M  V30 COUNTS 43 44 0 0 0
M  V30 BEGIN ATOM
M  V30 1 N 4.89911 -1.47616 2.21318 0
M  V30 2 N 3.72957 -0.754084 2.13639 0
M  V30 3 C 2.92216 -0.800356 0.956744 0
M  V30 4 O 3.32752 -1.52157 0.0094016 0
M  V30 5 C 1.65642 -0.0250974 0.860779 0
M  V30 6 C 1.03838 -0.237806 -0.474393 0
M  V30 7 C 1.93287 0.207818 -1.56473 0
M  V30 8 O 2.28008 -0.584299 -2.47761 0
M  V30 9 N 2.42611 1.54292 -1.61518 0
M  V30 10 N 3.26881 1.94719 -2.65211 0
M  V30 11 P -0.61356 0.457274 -0.637757 0
M  V30 12 O -0.491241 1.6145 -1.6378 0
M  V30 13 C -1.72591 -0.72087 -1.40396 0
M  V30 14 C -3.09236 -0.53865 -1.34554 0
M  V30 15 C -3.99692 -1.40784 -1.91407 0
M  V30 16 C -3.54711 -2.52551 -2.58214 0
M  V30 17 C -2.18355 -2.72466 -2.65106 0
M  V30 18 C -1.28465 -1.84243 -2.07475 0
M  V30 19 C -1.31121 1.00034 0.878268 0
M  V30 20 C -1.24652 2.33064 1.22112 0
M  V30 21 C -1.78767 2.80469 2.41548 0
M  V30 22 C -2.40295 1.93421 3.27995 0
M  V30 23 C -2.46976 0.611705 2.94386 0
M  V30 24 C -1.92967 0.138569 1.75181 0
M  V30 25 H 4.82051 -2.34164 1.63395 0
M  V30 26 H 5.21774 -1.65287 3.1817 0
M  V30 27 H 3.42613 -0.174991 2.92666 0
M  V30 28 H 1.93042 1.03256 1.05682 0
M  V30 29 H 1.03076 -0.341539 1.70793 0
M  V30 30 H 0.920517 -1.35779 -0.581302 0
M  V30 31 H 2.1566 2.22383 -0.873133 0
M  V30 32 H 2.91921 1.58968 -3.59147 0
M  V30 33 H 3.22704 3.00546 -2.75642 0
M  V30 34 H -3.42526 0.361614 -0.806269 0
M  V30 35 H -5.04624 -1.19848 -1.82661 0
M  V30 36 H -4.24437 -3.23634 -3.04543 0
M  V30 37 H -1.81602 -3.60242 -3.17518 0
M  V30 38 H -0.215646 -2.01584 -2.13938 0
M  V30 39 H -0.778996 3.07777 0.594242 0
M  V30 40 H -1.723 3.84539 2.65697 0
M  V30 41 H -2.81731 2.34502 4.21123 0
M  V30 42 H -2.94979 -0.0671946 3.61839 0
M  V30 43 H -2.03028 -0.922731 1.57141 0
M  V30 END ATOM
M  V30 BEGIN BOND
M  V30 1 1 1 2
M  V30 2 1 2 3
M  V30 3 2 3 4
M  V30 4 1 3 5
M  V30 5 1 5 6
M  V30 6 1 6 7
M  V30 7 2 7 8
M  V30 8 1 7 9
M  V30 9 1 9 10
M  V30 10 1 6 11
M  V30 11 2 11 12
M  V30 12 1 11 13
M  V30 13 2 13 14
M  V30 14 1 14 15
M  V30 15 2 15 16
M  V30 16 1 16 17
M  V30 17 2 17 18
M  V30 18 1 11 19
M  V30 19 2 19 20
M  V30 20 1 20 21
M  V30 21 2 21 22
M  V30 22 1 22 23
M  V30 23 2 23 24
M  V30 24 1 18 13
M  V30 25 1 24 19
M  V30 26 1 1 25
M  V30 27 1 1 26
M  V30 28 1 2 27
M  V30 29 1 5 28
M  V30 30 1 5 29
M  V30 31 1 6 30
M  V30 32 1 9 31
M  V30 33 1 10 32
M  V30 34 1 10 33
M  V30 35 1 14 34
M  V30 36 1 15 35
M  V30 37 1 16 36
M  V30 38 1 17 37
M  V30 39 1 18 38
M  V30 40 1 20 39
M  V30 41 1 21 40
M  V30 42 1 22 41
M  V30 43 1 23 42
M  V30 44 1 24 43
M  V30 END BOND
M  V30 END CTAB
M  END
