
     RDKit          3D

  0  0  0  0  0  0  0  0  0  0999 V3000
M  V30 BEGIN CTAB
M  V30 COUNTS 25 25 0 0 0
M  V30 BEGIN ATOM
M  V30 1 Br 4.21536 -1.42283 -1.36232 0
M  V30 2 C 3.88289 -0.109483 0.0203678 0
M  V30 3 C 2.81285 0.830584 -0.340574 0
M  V30 4 O 3.13854 1.9164 -0.90045 0
M  V30 5 C 1.41783 0.548641 -0.0760801 0
M  V30 6 C 0.441109 1.46926 -0.430779 0
M  V30 7 C -0.89489 1.20864 -0.193827 0
M  V30 8 N -1.87082 2.17003 -0.557356 0
M  V30 9 C -1.28151 0.0236382 0.400751 0
M  V30 10 C -0.301981 -0.864076 0.740124 0
M  V30 11 C 1.03821 -0.624406 0.513035 0
M  V30 12 N -0.668968 -2.08663 1.35159 0
M  V30 13 O -2.64464 -0.167094 0.602043 0
M  V30 14 C -3.3922 -0.790711 -0.435138 0
M  V30 15 H 4.86772 0.408257 0.191408 0
M  V30 16 H 3.68846 -0.672108 0.949407 0
M  V30 17 H 0.693374 2.41491 -0.899876 0
M  V30 18 H -2.89786 1.97863 -0.407556 0
M  V30 19 H -1.63917 3.09308 -0.980642 0
M  V30 20 H 1.74618 -1.37759 0.811312 0
M  V30 21 H -0.115026 -2.48129 2.14848 0
M  V30 22 H -1.50505 -2.60309 1.00722 0
M  V30 23 H -2.74554 -0.906907 -1.35177 0
M  V30 24 H -4.27256 -0.178542 -0.727903 0
M  V30 25 H -3.71231 -1.7773 -0.0714755 0
M  V30 END ATOM
M  V30 BEGIN BOND
M  V30 1 1 1 2
M  V30 2 1 2 3
M  V30 3 2 3 4
M  V30 4 1 3 5
M  V30 5 2 5 6
M  V30 6 1 6 7
M  V30 7 1 7 8
M  V30 8 2 7 9
M  V30 9 1 9 10
M  V30 10 2 10 11
M  V30 11 1 10 12
M  V30 12 1 9 13
M  V30 13 1 13 14
M  V30 14 1 11 5
M  V30 15 1 2 15
M  V30 16 1 2 16
M  V30 17 1 6 17
M  V30 18 1 8 18
M  V30 19 1 8 19
M  V30 20 1 11 20
M  V30 21 1 12 21
M  V30 22 1 12 22
M  V30 23 1 14 23
M  V30 24 1 14 24
M  V30 25 1 14 25
M  V30 END BOND
M  V30 END CTAB
M  END
