
     RDKit          3D

  0  0  0  0  0  0  0  0  0  0999 V3000
M  V30 BEGIN CTAB
M  V30 COUNTS 46 48 0 0 0
M  V30 BEGIN ATOM
M  V30 1 C -5.98191 -1.44148 2.23623 0
M  V30 2 O -5.66624 -0.987249 0.958808 0
M  V30 3 C -4.87125 0.161724 1.03674 0
M  V30 4 C -4.56251 0.605728 -0.383458 0
M  V30 5 N -3.84897 -0.457907 -1.08463 0
M  V30 6 C -4.37784 -1.44467 -1.79566 0
M  V30 7 N -3.39414 -2.21732 -2.28133 0
M  V30 8 C -2.2103 -1.70508 -1.866 0
M  V30 9 C -2.50329 -0.597262 -1.11283 0
M  V30 10 C -1.55797 0.321416 -0.427822 0
M  V30 11 N -0.197514 -0.0594274 -0.622499 0
M  V30 12 C 0.843724 0.695695 -0.0459955 0
M  V30 13 C 2.1857 0.334122 -0.228172 0
M  V30 14 C 3.20198 1.07211 0.335158 0
M  V30 15 N 2.86137 2.14451 1.06108 0
M  V30 16 C 1.55082 2.49555 1.23755 0
M  V30 17 N 0.55897 1.77766 0.689398 0
M  V30 18 N 1.31359 3.64575 2.02265 0
M  V30 19 C 4.6105 0.679742 0.135041 0
M  V30 20 C 4.87042 -0.819009 0.335444 0
M  V30 21 C 5.84478 -0.700505 -0.832532 0
M  V30 22 C 4.96994 0.439178 -1.337 0
M  V30 23 N 5.84603 -1.837 -1.71891 0
M  V30 24 H -6.61606 -2.3581 2.09552 0
M  V30 25 H -5.06323 -1.81214 2.75438 0
M  V30 26 H -6.51838 -0.704779 2.84283 0
M  V30 27 H -5.45102 0.972747 1.52615 0
M  V30 28 H -3.95702 0.0158561 1.60821 0
M  V30 29 H -5.53353 0.736154 -0.932281 0
M  V30 30 H -3.99186 1.54321 -0.355563 0
M  V30 31 H -5.44792 -1.60949 -1.96434 0
M  V30 32 H -1.22605 -2.13089 -2.11118 0
M  V30 33 H -1.76583 0.285567 0.666989 0
M  V30 34 H -1.70524 1.37926 -0.725825 0
M  V30 35 H 0.04846 -0.893322 -1.18802 0
M  V30 36 H 2.37973 -0.533297 -0.819502 0
M  V30 37 H 1.12415 3.53087 3.0326 0
M  V30 38 H 1.32674 4.58894 1.60603 0
M  V30 39 H 5.35735 1.31162 0.611056 0
M  V30 40 H 5.37972 -1.07527 1.26871 0
M  V30 41 H 3.98822 -1.41919 0.0690603 0
M  V30 42 H 6.86234 -0.41613 -0.557637 0
M  V30 43 H 5.498 1.26571 -1.81618 0
M  V30 44 H 4.10125 0.0178628 -1.87559 0
M  V30 45 H 6.73152 -2.37051 -1.60554 0
M  V30 46 H 4.99279 -2.43095 -1.62949 0
M  V30 END ATOM
M  V30 BEGIN BOND
M  V30 1 1 1 2
M  V30 2 1 2 3
M  V30 3 1 3 4
M  V30 4 1 4 5
M  V30 5 1 5 6
M  V30 6 2 6 7
M  V30 7 1 7 8
M  V30 8 2 8 9
M  V30 9 1 9 10
M  V30 10 1 10 11
M  V30 11 1 11 12
M  V30 12 2 12 13
M  V30 13 1 13 14
M  V30 14 2 14 15
M  V30 15 1 15 16
M  V30 16 2 16 17
M  V30 17 1 16 18
M  V30 18 1 14 19
M  V30 19 1 19 20
M  V30 20 1 20 21
M  V30 21 1 21 22
M  V30 22 1 21 23
M  V30 23 1 9 5
M  V30 24 1 17 12
M  V30 25 1 22 19
M  V30 26 1 1 24
M  V30 27 1 1 25
M  V30 28 1 1 26
M  V30 29 1 3 27
M  V30 30 1 3 28
M  V30 31 1 4 29
M  V30 32 1 4 30
M  V30 33 1 6 31
M  V30 34 1 8 32
M  V30 35 1 10 33
M  V30 36 1 10 34
M  V30 37 1 11 35
M  V30 38 1 13 36
M  V30 39 1 18 37
M  V30 40 1 18 38
M  V30 41 1 19 39
M  V30 42 1 20 40
M  V30 43 1 20 41
M  V30 44 1 21 42
M  V30 45 1 22 43
M  V30 46 1 22 44
M  V30 47 1 23 45
M  V30 48 1 23 46
M  V30 END BOND
M  V30 END CTAB
M  END
