
     RDKit          3D

  0  0  0  0  0  0  0  0  0  0999 V3000
M  V30 BEGIN CTAB
M  V30 COUNTS 36 35 0 0 0
M  V30 BEGIN ATOM
M  V30 1 C 2.96008 0.879732 -0.292678 0
M  V30 2 C 1.7063 -0.00559101 -0.120615 0
M  V30 3 C 1.83828 -0.612892 1.23305 0
M  V30 4 C 1.9386 -1.11658 -1.11722 0
M  V30 5 C 0.557375 0.875834 -0.362847 0 CFG=2
M  V30 6 N 0.5349 2.00691 0.607338 0
M  V30 7 C -0.777035 0.402796 -0.694781 0 CFG=1
M  V30 8 N -0.76478 -0.354924 -1.91756 0
M  V30 9 C -1.7227 -0.134989 0.311183 0
M  V30 10 C -2.1113 0.783515 1.43246 0
M  V30 11 C -3.09453 -0.370983 -0.387011 0
M  V30 12 C -1.41696 -1.48168 0.889675 0
M  V30 13 H 3.80798 0.187875 -0.334072 0
M  V30 14 H 3.08135 1.47753 0.62767 0
M  V30 15 H 2.92023 1.44788 -1.21845 0
M  V30 16 H 1.19831 -0.140617 2.01215 0
M  V30 17 H 1.68628 -1.72094 1.20856 0
M  V30 18 H 2.87834 -0.486792 1.58606 0
M  V30 19 H 1.80354 -0.843774 -2.16097 0
M  V30 20 H 3.02411 -1.45544 -1.06177 0
M  V30 21 H 1.40624 -2.06777 -0.813444 0
M  V30 22 H 0.910127 1.4676 -1.28979 0
M  V30 23 H 1.37406 2.57852 0.505032 0
M  V30 24 H -0.276883 2.60252 0.2635 0
M  V30 25 H -1.34032 1.35421 -1.05374 0
M  V30 26 H -0.291865 0.0862821 -2.71578 0
M  V30 27 H -0.585347 -1.33749 -1.88359 0
M  V30 28 H -2.66381 1.68902 1.07038 0
M  V30 29 H -1.31129 1.01619 2.13536 0
M  V30 30 H -2.87929 0.233519 2.02539 0
M  V30 31 H -3.48097 0.578779 -0.777948 0
M  V30 32 H -3.76499 -0.821687 0.374609 0
M  V30 33 H -2.97213 -1.10385 -1.19855 0
M  V30 34 H -2.35491 -2.07385 0.936061 0
M  V30 35 H -0.747179 -2.09238 0.241602 0
M  V30 36 H -1.06981 -1.44651 1.94073 0
M  V30 END ATOM
M  V30 BEGIN BOND
M  V30 1 1 1 2
M  V30 2 1 2 3
M  V30 3 1 2 4
M  V30 4 1 2 5
M  V30 5 1 5 6
M  V30 6 1 5 7
M  V30 7 1 7 8
M  V30 8 1 7 9
M  V30 9 1 9 10
M  V30 10 1 9 11
M  V30 11 1 9 12
M  V30 12 1 1 13
M  V30 13 1 1 14
M  V30 14 1 1 15
M  V30 15 1 3 16
M  V30 16 1 3 17
M  V30 17 1 3 18
M  V30 18 1 4 19
M  V30 19 1 4 20
M  V30 20 1 4 21
M  V30 21 1 5 22 CFG=3
M  V30 22 1 6 23
M  V30 23 1 6 24
M  V30 24 1 7 25 CFG=3
M  V30 25 1 8 26
M  V30 26 1 8 27
M  V30 27 1 10 28
M  V30 28 1 10 29
M  V30 29 1 10 30
M  V30 30 1 11 31
M  V30 31 1 11 32
M  V30 32 1 11 33
M  V30 33 1 12 34
M  V30 34 1 12 35
M  V30 35 1 12 36
M  V30 END BOND
M  V30 END CTAB
M  END
