
     RDKit          3D

  0  0  0  0  0  0  0  0  0  0999 V3000
M  V30 BEGIN CTAB
M  V30 COUNTS 37 38 0 0 0
M  V30 BEGIN ATOM
M  V30 1 N 4.93711 1.08595 0.548479 0
M  V30 2 C 3.75499 0.580698 0.0199555 0
M  V30 3 C 2.63032 0.544699 1.09967 0
M  V30 4 N 1.53165 -0.00843083 0.487149 0
M  V30 5 C 1.57049 -1.3736 0.0911731 0
M  V30 6 C 0.986116 -1.4537 -1.29015 0
M  V30 7 C 0.0847595 -0.302002 -1.66565 0
M  V30 8 C -0.544101 0.349305 -0.472963 0 CFG=2
M  V30 9 C 0.192756 0.356372 0.813351 0
M  V30 10 C -2.01034 0.381564 -0.461539 0
M  V30 11 C -2.76733 1.40574 -1.07898 0
M  V30 12 C -4.10745 1.55854 -0.951459 0
M  V30 13 C -4.82424 0.663937 -0.163206 0
M  V30 14 C -4.14788 -0.359952 0.473651 0
M  V30 15 C -2.77228 -0.471008 0.30388 0
M  V30 16 N -2.19371 -1.61954 0.894958 0
M  V30 17 H 5.58111 1.47972 -0.0921588 0
M  V30 18 H 5.30407 0.543591 1.29723 0
M  V30 19 H 3.97278 -0.483387 -0.307682 0
M  V30 20 H 3.44129 1.10838 -0.88546 0
M  V30 21 H 2.46702 1.56395 1.42064 0
M  V30 22 H 3.02747 -0.0656961 1.9432 0
M  V30 23 H 0.872293 -1.91922 0.798506 0
M  V30 24 H 2.53955 -1.84668 0.216482 0
M  V30 25 H 1.81306 -1.59299 -1.99736 0
M  V30 26 H 0.39909 -2.4263 -1.32931 0
M  V30 27 H 0.641432 0.361067 -2.31386 0
M  V30 28 H -0.758452 -0.715857 -2.25747 0
M  V30 29 H -0.326117 1.51204 -0.782396 0
M  V30 30 H 0.260649 1.41133 1.26448 0
M  V30 31 H -0.17461 -0.293309 1.60546 0
M  V30 32 H -2.23203 2.1297 -1.70135 0
M  V30 33 H -4.61476 2.34633 -1.45402 0
M  V30 34 H -5.88103 0.810569 -0.0651651 0
M  V30 35 H -4.7298 -1.05057 1.07679 0
M  V30 36 H -1.92935 -1.80661 1.85941 0
M  V30 37 H -1.99453 -2.40462 0.180742 0
M  V30 END ATOM
M  V30 BEGIN BOND
M  V30 1 1 1 2
M  V30 2 1 2 3
M  V30 3 1 3 4
M  V30 4 1 4 5
M  V30 5 1 5 6
M  V30 6 1 6 7
M  V30 7 1 7 8
M  V30 8 1 8 9
M  V30 9 1 8 10
M  V30 10 2 10 11
M  V30 11 1 11 12
M  V30 12 2 12 13
M  V30 13 1 13 14
M  V30 14 2 14 15
M  V30 15 1 15 16
M  V30 16 1 9 4
M  V30 17 1 15 10
M  V30 18 1 1 17
M  V30 19 1 1 18
M  V30 20 1 2 19
M  V30 21 1 2 20
M  V30 22 1 3 21
M  V30 23 1 3 22
M  V30 24 1 5 23
M  V30 25 1 5 24
M  V30 26 1 6 25
M  V30 27 1 6 26
M  V30 28 1 7 27
M  V30 29 1 7 28
M  V30 30 1 8 29 CFG=3
M  V30 31 1 9 30
M  V30 32 1 9 31
M  V30 33 1 11 32
M  V30 34 1 12 33
M  V30 35 1 13 34
M  V30 36 1 14 35
M  V30 37 1 16 36
M  V30 38 1 16 37
M  V30 END BOND
M  V30 END CTAB
M  END
