
     RDKit          3D

  0  0  0  0  0  0  0  0  0  0999 V3000
M  V30 BEGIN CTAB
M  V30 COUNTS 49 51 0 0 0
M  V30 BEGIN ATOM
M  V30 1 O 2.33035 -0.282699 2.6415 0
M  V30 2 C 2.30318 0.18253 1.47278 0
M  V30 3 N 1.12217 0.712036 0.921886 0
M  V30 4 C -0.103584 0.744216 1.67098 0
M  V30 5 C -1.34116 0.71112 0.856618 0
M  V30 6 N -1.24015 0.420748 -0.499919 0
M  V30 7 C -0.00841787 0.560602 -1.16582 0
M  V30 8 C 1.07293 1.24803 -0.412722 0
M  V30 9 S -2.24429 -0.823681 -1.09206 0
M  V30 10 O -1.95102 -2.14177 -0.408384 0
M  V30 11 O -1.92244 -1.04546 -2.56273 0
M  V30 12 C -3.94421 -0.453875 -0.894203 0
M  V30 13 C -4.68001 0.21128 -1.85444 0
M  V30 14 C -6.01823 0.478974 -1.65035 0
M  V30 15 C -6.69118 0.108581 -0.502125 0
M  V30 16 C -5.95042 -0.557367 0.456913 0
M  V30 17 C -4.6122 -0.828349 0.259667 0
M  V30 18 N -6.58198 -0.962055 1.65278 0
M  V30 19 N -8.07231 0.400839 -0.324598 0
M  V30 20 O 3.47286 0.168744 0.715456 0
M  V30 21 C 4.635 -0.369341 1.30107 0
M  V30 22 C 5.78898 -0.320408 0.394852 0
M  V30 23 C 6.66601 0.755102 0.336867 0
M  V30 24 C 7.74085 0.76339 -0.529975 0
M  V30 25 C 7.96858 -0.3097 -1.3667 0
M  V30 26 C 7.10636 -1.39206 -1.32488 0
M  V30 27 C 6.03077 -1.38164 -0.446044 0
M  V30 28 H -0.0573351 1.68001 2.30306 0
M  V30 29 H -0.0655388 -0.0855228 2.43686 0
M  V30 30 H -1.88445 1.69396 0.983877 0
M  V30 31 H -2.0411 -0.0331763 1.34149 0
M  V30 32 H -0.167844 1.097 -2.13003 0
M  V30 33 H 0.374109 -0.455904 -1.47229 0
M  V30 34 H 0.881334 2.3424 -0.316833 0
M  V30 35 H 2.04518 1.0865 -0.922697 0
M  V30 36 H -4.16846 0.515032 -2.77316 0
M  V30 37 H -6.60321 1.00338 -2.40462 0
M  V30 38 H -4.01729 -1.35393 1.0106 0
M  V30 39 H -6.38724 -1.90192 2.05844 0
M  V30 40 H -7.23752 -0.330023 2.12877 0
M  V30 41 H -8.50086 1.32353 -0.548605 0
M  V30 42 H -8.69312 -0.345257 0.0495677 0
M  V30 43 H 4.40804 -1.41671 1.58313 0
M  V30 44 H 4.854 0.159493 2.27225 0
M  V30 45 H 6.46522 1.58192 1.00209 0
M  V30 46 H 8.4135 1.59144 -0.572512 0
M  V30 47 H 8.81222 -0.274424 -2.02964 0
M  V30 48 H 7.31206 -2.21667 -1.99276 0
M  V30 49 H 5.38185 -2.25893 -0.452686 0
M  V30 END ATOM
M  V30 BEGIN BOND
M  V30 1 2 1 2
M  V30 2 1 2 3
M  V30 3 1 3 4
M  V30 4 1 4 5
M  V30 5 1 5 6
M  V30 6 1 6 7
M  V30 7 1 7 8
M  V30 8 1 6 9
M  V30 9 2 9 10
M  V30 10 2 9 11
M  V30 11 1 9 12
M  V30 12 2 12 13
M  V30 13 1 13 14
M  V30 14 2 14 15
M  V30 15 1 15 16
M  V30 16 2 16 17
M  V30 17 1 16 18
M  V30 18 1 15 19
M  V30 19 1 2 20
M  V30 20 1 20 21
M  V30 21 1 21 22
M  V30 22 2 22 23
M  V30 23 1 23 24
M  V30 24 2 24 25
M  V30 25 1 25 26
M  V30 26 2 26 27
M  V30 27 1 8 3
M  V30 28 1 17 12
M  V30 29 1 27 22
M  V30 30 1 4 28
M  V30 31 1 4 29
M  V30 32 1 5 30
M  V30 33 1 5 31
M  V30 34 1 7 32
M  V30 35 1 7 33
M  V30 36 1 8 34
M  V30 37 1 8 35
M  V30 38 1 13 36
M  V30 39 1 14 37
M  V30 40 1 17 38
M  V30 41 1 18 39
M  V30 42 1 18 40
M  V30 43 1 19 41
M  V30 44 1 19 42
M  V30 45 1 21 43
M  V30 46 1 21 44
M  V30 47 1 23 45
M  V30 48 1 24 46
M  V30 49 1 25 47
M  V30 50 1 26 48
M  V30 51 1 27 49
M  V30 END BOND
M  V30 END CTAB
M  END
