
     RDKit          3D

  0  0  0  0  0  0  0  0  0  0999 V3000
M  V30 BEGIN CTAB
M  V30 COUNTS 21 21 0 0 0
M  V30 BEGIN ATOM
M  V30 1 Cl 2.64712 -3.33273 -0.376403 0
M  V30 2 C 2.01524 -1.71448 -0.0616205 0
M  V30 3 C 2.76325 -0.706362 0.471892 0
M  V30 4 N 2.30602 0.577615 0.695465 0
M  V30 5 C 1.04203 0.859565 0.372103 0
M  V30 6 C 0.229238 -0.105698 -0.153379 0
M  V30 7 C 0.673977 -1.4241 -0.389141 0
M  V30 8 C -1.12 0.233359 -0.575448 0
M  V30 9 N -1.58546 1.52537 -0.27576 0
M  V30 10 C -2.02361 -0.853144 0.0260195 0
M  V30 11 N 0.518684 2.17857 0.607224 0
M  V30 12 H 3.79555 -0.943798 0.789647 0
M  V30 13 H 0.0689452 -2.17227 -0.801303 0
M  V30 14 H -1.18099 0.0141512 -1.69718 0
M  V30 15 H -2.26166 1.61966 0.51533 0
M  V30 16 H -1.90758 2.0707 -1.12304 0
M  V30 17 H -2.30833 -0.421419 1.07584 0
M  V30 18 H -2.9331 -1.02096 -0.485126 0
M  V30 19 H -1.46803 -1.76957 0.243222 0
M  V30 20 H 0.746937 2.83215 -0.233628 0
M  V30 21 H -0.0182195 2.55339 1.37528 0
M  V30 END ATOM
M  V30 BEGIN BOND
M  V30 1 1 1 2
M  V30 2 2 2 3
M  V30 3 1 3 4
M  V30 4 2 4 5
M  V30 5 1 5 6
M  V30 6 2 6 7
M  V30 7 1 6 8
M  V30 8 1 8 9
M  V30 9 1 8 10
M  V30 10 1 5 11
M  V30 11 1 7 2
M  V30 12 1 3 12
M  V30 13 1 7 13
M  V30 14 1 8 14
M  V30 15 1 9 15
M  V30 16 1 9 16
M  V30 17 1 10 17
M  V30 18 1 10 18
M  V30 19 1 10 19
M  V30 20 1 11 20
M  V30 21 1 11 21
M  V30 END BOND
M  V30 END CTAB
M  END
