
     RDKit          3D

  0  0  0  0  0  0  0  0  0  0999 V3000
M  V30 BEGIN CTAB
M  V30 COUNTS 59 60 0 0 0
M  V30 BEGIN ATOM
M  V30 1 C 6.86457 -2.82678 -1.49063 0
M  V30 2 C 6.33505 -1.58899 -0.796475 0
M  V30 3 C 5.65508 -2.02154 0.466629 0
M  V30 4 C 5.0765 -0.88355 1.26794 0
M  V30 5 C 4.05433 -0.160893 0.428492 0
M  V30 6 C 3.4382 1.00045 1.19816 0
M  V30 7 C 2.43804 1.64833 0.272688 0
M  V30 8 C 1.76448 2.83892 0.975395 0
M  V30 9 C 0.774828 3.45952 0.0241313 0
M  V30 10 O -0.240262 2.65458 -0.429424 0
M  V30 11 C -1.24505 2.09426 0.304235 0
M  V30 12 C -2.18779 1.25606 -0.327532 0
M  V30 13 C -3.22619 0.654359 0.317936 0
M  V30 14 C -3.39413 0.854975 1.66514 0
M  V30 15 C -2.50413 1.66209 2.32453 0
M  V30 16 C -1.45188 2.26809 1.65193 0
M  V30 17 N -4.16385 -0.197627 -0.386811 0
M  V30 18 C -5.30502 0.423283 -0.937352 0
M  V30 19 N -5.45666 1.82924 -0.765275 0
M  V30 20 N -6.22495 -0.242647 -1.59733 0
M  V30 21 C -6.0027 -1.63741 -1.72618 0
M  V30 22 N -7.02347 -2.35981 -2.45545 0
M  V30 23 N -4.98972 -2.2333 -1.24577 0
M  V30 24 C -3.94501 -1.60007 -0.519064 0
M  V30 25 C -2.60651 -1.79366 -1.26122 0
M  V30 26 C -3.72442 -2.27494 0.829192 0
M  V30 27 H 7.78289 -3.17707 -0.979235 0
M  V30 28 H 7.07417 -2.62719 -2.57172 0
M  V30 29 H 6.10211 -3.63604 -1.48066 0
M  V30 30 H 7.20642 -0.93946 -0.598201 0
M  V30 31 H 5.61869 -1.08452 -1.50047 0
M  V30 32 H 6.42912 -2.58003 1.06554 0
M  V30 33 H 4.88429 -2.77887 0.226074 0
M  V30 34 H 4.5492 -1.35743 2.1371 0
M  V30 35 H 5.83845 -0.226539 1.69744 0
M  V30 36 H 3.24156 -0.841309 0.166952 0
M  V30 37 H 4.50668 0.278316 -0.479065 0
M  V30 38 H 4.1874 1.73833 1.49731 0
M  V30 39 H 2.89843 0.634555 2.09079 0
M  V30 40 H 1.66401 0.935347 -0.0478334 0
M  V30 41 H 2.93114 2.08183 -0.620554 0
M  V30 42 H 2.55261 3.63756 1.13606 0
M  V30 43 H 1.40085 2.57625 1.95068 0
M  V30 44 H 0.382353 4.37227 0.591854 0
M  V30 45 H 1.3351 3.96096 -0.826305 0
M  V30 46 H -2.04122 1.10827 -1.38948 0
M  V30 47 H -4.21983 0.383934 2.21125 0
M  V30 48 H -2.6175 1.83943 3.40865 0
M  V30 49 H -0.779481 2.92714 2.21935 0
M  V30 50 H -6.21859 2.1855 -0.175783 0
M  V30 51 H -4.80546 2.47312 -1.23021 0
M  V30 52 H -6.98667 -2.3946 -3.49754 0
M  V30 53 H -7.79754 -2.84979 -1.99301 0
M  V30 54 H -2.43843 -2.85376 -1.45676 0
M  V30 55 H -2.5425 -1.1709 -2.15157 0
M  V30 56 H -1.80669 -1.46052 -0.558737 0
M  V30 57 H -4.4979 -1.98219 1.56549 0
M  V30 58 H -2.69724 -2.08419 1.14535 0
M  V30 59 H -3.84578 -3.36497 0.659375 0
M  V30 END ATOM
M  V30 BEGIN BOND
M  V30 1 1 1 2
M  V30 2 1 2 3
M  V30 3 1 3 4
M  V30 4 1 4 5
M  V30 5 1 5 6
M  V30 6 1 6 7
M  V30 7 1 7 8
M  V30 8 1 8 9
M  V30 9 1 9 10
M  V30 10 1 10 11
M  V30 11 2 11 12
M  V30 12 1 12 13
M  V30 13 2 13 14
M  V30 14 1 14 15
M  V30 15 2 15 16
M  V30 16 1 13 17
M  V30 17 1 17 18
M  V30 18 1 18 19
M  V30 19 2 18 20
M  V30 20 1 20 21
M  V30 21 1 21 22
M  V30 22 2 21 23
M  V30 23 1 23 24
M  V30 24 1 24 25
M  V30 25 1 24 26
M  V30 26 1 16 11
M  V30 27 1 24 17
M  V30 28 1 1 27
M  V30 29 1 1 28
M  V30 30 1 1 29
M  V30 31 1 2 30
M  V30 32 1 2 31
M  V30 33 1 3 32
M  V30 34 1 3 33
M  V30 35 1 4 34
M  V30 36 1 4 35
M  V30 37 1 5 36
M  V30 38 1 5 37
M  V30 39 1 6 38
M  V30 40 1 6 39
M  V30 41 1 7 40
M  V30 42 1 7 41
M  V30 43 1 8 42
M  V30 44 1 8 43
M  V30 45 1 9 44
M  V30 46 1 9 45
M  V30 47 1 12 46
M  V30 48 1 14 47
M  V30 49 1 15 48
M  V30 50 1 16 49
M  V30 51 1 19 50
M  V30 52 1 19 51
M  V30 53 1 22 52
M  V30 54 1 22 53
M  V30 55 1 25 54
M  V30 56 1 25 55
M  V30 57 1 25 56
M  V30 58 1 26 57
M  V30 59 1 26 58
M  V30 60 1 26 59
M  V30 END BOND
M  V30 END CTAB
M  END
