
     RDKit          3D

  0  0  0  0  0  0  0  0  0  0999 V3000
M  V30 BEGIN CTAB
M  V30 COUNTS 22 22 0 0 0
M  V30 BEGIN ATOM
M  V30 1 C 4.04832 0.458793 -0.151212 0
M  V30 2 S 2.88431 -0.746039 0.550975 0
M  V30 3 C 2.26536 -1.86817 -0.747751 0
M  V30 4 S 1.26623 -0.89702 -1.90229 0
M  V30 5 C -0.225983 -0.279629 -1.13527 0
M  V30 6 N -0.29331 0.90093 -0.498762 0
M  V30 7 C -1.42374 1.36684 0.0803441 0
M  V30 8 N -1.45912 2.61921 0.743781 0
M  V30 9 C -2.56187 0.585203 0.0103396 0
M  V30 10 C -2.50669 -0.626039 -0.638413 0
M  V30 11 N -1.34259 -1.0174 -1.18858 0
M  V30 12 N -3.685 -1.42083 -0.704453 0
M  V30 13 H 4.81327 -0.0263559 -0.788304 0
M  V30 14 H 3.53374 1.22862 -0.761134 0
M  V30 15 H 4.55753 0.998305 0.672328 0
M  V30 16 H 3.10488 -2.30261 -1.33181 0
M  V30 17 H 1.71434 -2.69421 -0.294005 0
M  V30 18 H -0.586972 3.04111 1.10279 0
M  V30 19 H -2.35535 3.11804 0.872577 0
M  V30 20 H -3.47843 0.947356 0.471934 0
M  V30 21 H -3.74801 -2.38534 -0.324362 0
M  V30 22 H -4.52091 -1.00076 -1.15976 0
M  V30 END ATOM
M  V30 BEGIN BOND
M  V30 1 1 1 2
M  V30 2 1 2 3
M  V30 3 1 3 4
M  V30 4 1 4 5
M  V30 5 2 5 6
M  V30 6 1 6 7
M  V30 7 1 7 8
M  V30 8 2 7 9
M  V30 9 1 9 10
M  V30 10 2 10 11
M  V30 11 1 10 12
M  V30 12 1 11 5
M  V30 13 1 1 13
M  V30 14 1 1 14
M  V30 15 1 1 15
M  V30 16 1 3 16
M  V30 17 1 3 17
M  V30 18 1 8 18
M  V30 19 1 8 19
M  V30 20 1 9 20
M  V30 21 1 12 21
M  V30 22 1 12 22
M  V30 END BOND
M  V30 END CTAB
M  END
