
     RDKit          3D

  0  0  0  0  0  0  0  0  0  0999 V3000
M  V30 BEGIN CTAB
M  V30 COUNTS 50 50 0 0 0
M  V30 BEGIN ATOM
M  V30 1 N -2.35133 -2.38613 1.36259 0
M  V30 2 C -2.84768 -0.997543 1.20237 0
M  V30 3 C -2.44758 -0.508153 -0.119812 0
M  V30 4 N -0.97623 -0.565206 -0.192318 0
M  V30 5 C -0.122544 0.159711 0.6491 0
M  V30 6 O -0.536545 0.930153 1.54569 0
M  V30 7 C 1.34824 0.0550297 0.525804 0
M  V30 8 C 2.16408 0.566002 1.51334 0
M  V30 9 C 3.52009 0.470809 1.39121 0
M  V30 10 C 4.43914 1.01913 2.45264 0
M  V30 11 C 4.14431 -0.11824 0.316955 0
M  V30 12 C 3.32547 -0.628171 -0.668942 0
M  V30 13 C 1.95092 -0.539167 -0.559288 0
M  V30 14 S 4.01707 -1.38875 -2.06063 0
M  V30 15 O 2.91823 -1.84729 -2.97127 0
M  V30 16 O 4.80537 -2.63536 -1.69001 0
M  V30 17 N 5.03685 -0.340219 -2.96149 0
M  V30 18 C 5.60527 -0.229628 0.169012 0
M  V30 19 C -2.87449 0.816258 -0.582743 0
M  V30 20 C -4.30518 1.13852 -0.715153 0
M  V30 21 C -4.38838 2.59297 -1.23825 0
M  V30 22 C -4.99424 1.15387 0.61308 0
M  V30 23 C -2.94895 -1.53266 -1.15098 0
M  V30 24 H -2.9492 -2.95137 0.717994 0
M  V30 25 H -2.62089 -2.64938 2.33499 0
M  V30 26 H -2.49212 -0.377876 2.03825 0
M  V30 27 H -3.93636 -1.12527 1.37561 0
M  V30 28 H -0.552887 -1.18444 -0.911861 0
M  V30 29 H 1.7183 1.04226 2.38431 0
M  V30 30 H 4.95997 0.221977 2.98776 0
M  V30 31 H 5.15965 1.71556 1.97888 0
M  V30 32 H 3.81509 1.66671 3.13178 0
M  V30 33 H 1.34766 -0.953235 -1.36481 0
M  V30 34 H 5.98031 -0.697133 -3.12307 0
M  V30 35 H 4.94258 0.650583 -2.72981 0
M  V30 36 H 6.03577 0.487353 -0.558698 0
M  V30 37 H 6.04932 0.0705779 1.16396 0
M  V30 38 H 5.95589 -1.27122 0.0103671 0
M  V30 39 H -2.39513 1.04501 -1.58331 0
M  V30 40 H -2.41355 1.61389 0.0772099 0
M  V30 41 H -4.84962 0.551676 -1.48345 0
M  V30 42 H -4.1978 2.54689 -2.31699 0
M  V30 43 H -3.72645 3.24616 -0.67186 0
M  V30 44 H -5.44856 2.89225 -1.06137 0
M  V30 45 H -4.30601 1.23437 1.46986 0
M  V30 46 H -5.64336 2.05053 0.664914 0
M  V30 47 H -5.72049 0.296578 0.715527 0
M  V30 48 H -2.95771 -1.09706 -2.16504 0
M  V30 49 H -2.25004 -2.3872 -1.16904 0
M  V30 50 H -3.98626 -1.82412 -0.913953 0
M  V30 END ATOM
M  V30 BEGIN BOND
M  V30 1 1 1 2
M  V30 2 1 2 3
M  V30 3 1 3 4
M  V30 4 1 4 5
M  V30 5 2 5 6
M  V30 6 1 5 7
M  V30 7 2 7 8
M  V30 8 1 8 9
M  V30 9 1 9 10
M  V30 10 2 9 11
M  V30 11 1 11 12
M  V30 12 2 12 13
M  V30 13 1 12 14
M  V30 14 2 14 15
M  V30 15 2 14 16
M  V30 16 1 14 17
M  V30 17 1 11 18
M  V30 18 1 3 19
M  V30 19 1 19 20
M  V30 20 1 20 21
M  V30 21 1 20 22
M  V30 22 1 3 23
M  V30 23 1 13 7
M  V30 24 1 1 24
M  V30 25 1 1 25
M  V30 26 1 2 26
M  V30 27 1 2 27
M  V30 28 1 4 28
M  V30 29 1 8 29
M  V30 30 1 10 30
M  V30 31 1 10 31
M  V30 32 1 10 32
M  V30 33 1 13 33
M  V30 34 1 17 34
M  V30 35 1 17 35
M  V30 36 1 18 36
M  V30 37 1 18 37
M  V30 38 1 18 38
M  V30 39 1 19 39
M  V30 40 1 19 40
M  V30 41 1 20 41
M  V30 42 1 21 42
M  V30 43 1 21 43
M  V30 44 1 21 44
M  V30 45 1 22 45
M  V30 46 1 22 46
M  V30 47 1 22 47
M  V30 48 1 23 48
M  V30 49 1 23 49
M  V30 50 1 23 50
M  V30 END BOND
M  V30 END CTAB
M  END
