
     RDKit          3D

  0  0  0  0  0  0  0  0  0  0999 V3000
M  V30 BEGIN CTAB
M  V30 COUNTS 24 25 0 0 0
M  V30 BEGIN ATOM
M  V30 1 N -3.01793 2.35068 -0.995832 0
M  V30 2 C -2.33082 1.205 -0.537773 0
M  V30 3 N -3.02288 0.117946 -0.148906 0
M  V30 4 C -2.41527 -0.996714 0.294719 0
M  V30 5 N -3.21376 -2.10818 0.689223 0
M  V30 6 N -1.07657 -1.03525 0.354951 0
M  V30 7 C -0.274529 0.00826628 -0.0136475 0
M  V30 8 C -0.942337 1.12951 -0.46182 0
M  V30 9 C 1.1693 -0.0945199 0.0745275 0
M  V30 10 C 1.96828 0.940194 -0.290884 0
M  V30 11 C 3.34521 0.798899 -0.190398 0
M  V30 12 C 3.88728 -0.376214 0.27394 0
M  V30 13 C 3.09598 -1.44004 0.65066 0
M  V30 14 C 1.71776 -1.26161 0.53604 0
M  V30 15 F 0.942324 -2.32764 0.91413 0
M  V30 16 H -3.33237 2.42174 -1.96676 0
M  V30 17 H -3.19971 3.12075 -0.332619 0
M  V30 18 H -4.24474 -2.0615 0.636029 0
M  V30 19 H -2.7691 -3.00118 1.04355 0
M  V30 20 H -0.397525 1.99936 -0.773273 0
M  V30 21 H 1.59751 1.89513 -0.665865 0
M  V30 22 H 4.02319 1.5983 -0.470627 0
M  V30 23 H 4.97606 -0.509208 0.36146 0
M  V30 24 H 3.51467 -2.37371 1.01918 0
M  V30 END ATOM
M  V30 BEGIN BOND
M  V30 1 1 1 2
M  V30 2 2 2 3
M  V30 3 1 3 4
M  V30 4 1 4 5
M  V30 5 2 4 6
M  V30 6 1 6 7
M  V30 7 2 7 8
M  V30 8 1 7 9
M  V30 9 2 9 10
M  V30 10 1 10 11
M  V30 11 2 11 12
M  V30 12 1 12 13
M  V30 13 2 13 14
M  V30 14 1 14 15
M  V30 15 1 8 2
M  V30 16 1 14 9
M  V30 17 1 1 16
M  V30 18 1 1 17
M  V30 19 1 5 18
M  V30 20 1 5 19
M  V30 21 1 8 20
M  V30 22 1 10 21
M  V30 23 1 11 22
M  V30 24 1 12 23
M  V30 25 1 13 24
M  V30 END BOND
M  V30 END CTAB
M  END
