
     RDKit          3D

  0  0  0  0  0  0  0  0  0  0999 V3000
M  V30 BEGIN CTAB
M  V30 COUNTS 49 51 0 0 0
M  V30 BEGIN ATOM
M  V30 1 N 6.38901 -0.0062521 1.42179 0
M  V30 2 C 6.3404 1.1814 0.690104 0 CFG=1
M  V30 3 C 5.77054 1.00013 -0.694729 0
M  V30 4 C 4.38076 0.472446 -0.687697 0
M  V30 5 C 3.26623 1.2835 -0.666297 0
M  V30 6 C 1.97798 0.775353 -0.658401 0
M  V30 7 C 1.74894 -0.58363 -0.671835 0
M  V30 8 C 2.85811 -1.40102 -0.693311 0
M  V30 9 C 4.14149 -0.894944 -0.70115 0
M  V30 10 C 0.39859 -1.13686 -0.663797 0
M  V30 11 N -0.697325 -0.329959 -0.642532 0
M  V30 12 C -1.93446 -0.849791 -0.635362 0
M  V30 13 O -3.02483 -0.0463308 -0.614204 0
M  V30 14 C -4.36075 -0.428925 -0.604373 0
M  V30 15 C -4.97959 0.118199 0.643484 0
M  V30 16 C -5.80817 -0.637181 1.45027 0
M  V30 17 C -6.36863 -0.112871 2.5971 0
M  V30 18 C -6.12461 1.18926 2.98641 0
M  V30 19 C -5.29771 1.94704 2.18356 0
M  V30 20 C -4.74645 1.41874 1.04824 0
M  V30 21 C -5.16458 0.118497 -1.75957 0
M  V30 22 F -6.46973 -0.359463 -1.59446 0
M  V30 23 F -5.25625 1.48854 -1.74796 0
M  V30 24 F -4.73603 -0.371217 -2.977 0
M  V30 25 N -2.05508 -2.18246 -0.649745 0
M  V30 26 C -0.991935 -2.99755 -0.670751 0
M  V30 27 N -1.11988 -4.42132 -0.686132 0
M  V30 28 N 0.224922 -2.46707 -0.677578 0
M  V30 29 C 5.70314 2.31524 1.37402 0
M  V30 30 O 5.63342 3.53816 0.752234 0
M  V30 31 O 5.22764 2.1701 2.51377 0
M  V30 32 H 6.01407 -0.0720064 2.32314 0
M  V30 33 H 7.11033 -0.629779 1.19897 0
M  V30 34 H 7.41441 1.49447 0.517829 0
M  V30 35 H 5.71925 2.02139 -1.15423 0
M  V30 36 H 6.44275 0.404975 -1.33132 0
M  V30 37 H 3.40637 2.35891 -0.656587 0
M  V30 38 H 1.09846 1.41068 -0.641511 0
M  V30 39 H 2.66561 -2.47874 -0.703875 0
M  V30 40 H 5.00031 -1.55121 -0.718053 0
M  V30 41 H -4.48589 -1.52748 -0.61571 0
M  V30 42 H -6.01712 -1.65902 1.17099 0
M  V30 43 H -7.02312 -0.694028 3.24336 0
M  V30 44 H -6.55874 1.61171 3.88423 0
M  V30 45 H -5.07534 2.97448 2.44591 0
M  V30 46 H -4.08756 2.00367 0.397558 0
M  V30 47 H -2.00145 -4.86384 -1.02364 0
M  V30 48 H -0.329508 -5.01909 -0.358961 0
M  V30 49 H 5.78203 4.42517 1.20916 0
M  V30 END ATOM
M  V30 BEGIN BOND
M  V30 1 1 1 2
M  V30 2 1 2 3
M  V30 3 1 3 4
M  V30 4 2 4 5
M  V30 5 1 5 6
M  V30 6 2 6 7
M  V30 7 1 7 8
M  V30 8 2 8 9
M  V30 9 1 7 10
M  V30 10 2 10 11
M  V30 11 1 11 12
M  V30 12 1 12 13
M  V30 13 1 13 14
M  V30 14 1 14 15
M  V30 15 2 15 16
M  V30 16 1 16 17
M  V30 17 2 17 18
M  V30 18 1 18 19
M  V30 19 2 19 20
M  V30 20 1 14 21
M  V30 21 1 21 22
M  V30 22 1 21 23
M  V30 23 1 21 24
M  V30 24 2 12 25
M  V30 25 1 25 26
M  V30 26 1 26 27
M  V30 27 2 26 28
M  V30 28 1 2 29
M  V30 29 1 29 30
M  V30 30 2 29 31
M  V30 31 1 9 4
M  V30 32 1 28 10
M  V30 33 1 20 15
M  V30 34 1 1 32
M  V30 35 1 1 33
M  V30 36 1 2 34 CFG=3
M  V30 37 1 3 35
M  V30 38 1 3 36
M  V30 39 1 5 37
M  V30 40 1 6 38
M  V30 41 1 8 39
M  V30 42 1 9 40
M  V30 43 1 14 41
M  V30 44 1 16 42
M  V30 45 1 17 43
M  V30 46 1 18 44
M  V30 47 1 19 45
M  V30 48 1 20 46
M  V30 49 1 27 47
M  V30 50 1 27 48
M  V30 51 1 30 49
M  V30 END BOND
M  V30 END CTAB
M  END
