
     RDKit          3D

  0  0  0  0  0  0  0  0  0  0999 V3000
M  V30 BEGIN CTAB
M  V30 COUNTS 29 30 0 0 0
M  V30 BEGIN ATOM
M  V30 1 N -1.05563 -0.615145 -1.75573 0
M  V30 2 C -0.728313 -0.800725 -0.35104 0
M  V30 3 C -2.03965 -0.867166 0.400643 0
M  V30 4 C -2.15272 0.394882 1.19108 0
M  V30 5 C -0.774119 1.0211 1.24785 0
M  V30 6 C 0.0386997 0.345547 0.207878 0 CFG=2
M  V30 7 C 0.392724 1.26962 -0.963828 0
M  V30 8 C 1.53416 0.552302 -1.61887 0
M  V30 9 C 2.03803 -0.483688 -0.640551 0
M  V30 10 C 1.43576 -0.0174602 0.657459 0 CFG=2
M  V30 11 N 1.47493 -0.980734 1.70396 0
M  V30 12 H -1.1237 -1.48335 -2.28773 0
M  V30 13 H -1.9427 -0.0949161 -1.82734 0
M  V30 14 H -0.244468 -1.77939 -0.260705 0
M  V30 15 H -2.91911 -0.92063 -0.289763 0
M  V30 16 H -2.10903 -1.79293 1.02289 0
M  V30 17 H -2.49037 0.160794 2.22583 0
M  V30 18 H -2.82859 1.12891 0.719636 0
M  V30 19 H -0.314175 0.784602 2.24657 0
M  V30 20 H -0.807632 2.11566 1.13932 0
M  V30 21 H 0.784594 2.20466 -0.471101 0
M  V30 22 H -0.46311 1.46129 -1.60694 0
M  V30 23 H 2.36833 1.28754 -1.79256 0
M  V30 24 H 1.2857 0.131969 -2.60528 0
M  V30 25 H 3.14212 -0.526195 -0.584945 0
M  V30 26 H 1.66743 -1.49919 -0.928042 0
M  V30 27 H 1.93998 0.951359 0.909966 0
M  V30 28 H 1.50574 -0.44242 2.6225 0
M  V30 29 H 2.38513 -1.50629 1.68884 0
M  V30 END ATOM
M  V30 BEGIN BOND
M  V30 1 1 1 2
M  V30 2 1 2 3
M  V30 3 1 3 4
M  V30 4 1 4 5
M  V30 5 1 6 5 CFG=1
M  V30 6 1 6 7
M  V30 7 1 7 8
M  V30 8 1 8 9
M  V30 9 1 9 10
M  V30 10 1 10 11
M  V30 11 1 6 2
M  V30 12 1 10 6
M  V30 13 1 1 12
M  V30 14 1 1 13
M  V30 15 1 2 14
M  V30 16 1 3 15
M  V30 17 1 3 16
M  V30 18 1 4 17
M  V30 19 1 4 18
M  V30 20 1 5 19
M  V30 21 1 5 20
M  V30 22 1 7 21
M  V30 23 1 7 22
M  V30 24 1 8 23
M  V30 25 1 8 24
M  V30 26 1 9 25
M  V30 27 1 9 26
M  V30 28 1 10 27 CFG=1
M  V30 29 1 11 28
M  V30 30 1 11 29
M  V30 END BOND
M  V30 END CTAB
M  END
