
     RDKit          3D

  0  0  0  0  0  0  0  0  0  0999 V3000
M  V30 BEGIN CTAB
M  V30 COUNTS 53 56 0 0 0
M  V30 BEGIN ATOM
M  V30 1 N 3.96721 -4.14315 -0.520977 0
M  V30 2 C 3.15481 -3.39574 -0.107488 0
M  V30 3 C 2.10812 -2.49166 0.368805 0
M  V30 4 C 1.77384 -2.44277 1.63909 0
M  V30 5 N 2.50562 -3.21757 2.59437 0
M  V30 6 O 0.647466 -1.71099 2.09659 0
M  V30 7 C -0.111536 -1.07807 1.10596 0
M  V30 8 C 0.224389 -1.09974 -0.227298 0
M  V30 9 C 1.65924 -1.43436 -0.524205 0
M  V30 10 C 2.45494 -0.133951 -0.455442 0
M  V30 11 C 1.77474 1.04848 -0.735182 0
M  V30 12 C 2.44226 2.29337 -0.907819 0
M  V30 13 C 3.78696 2.32091 -0.805137 0
M  V30 14 C 4.49139 1.20358 -0.535806 0
M  V30 15 C 3.80257 -0.0362682 -0.353074 0
M  V30 16 O 4.67616 -1.028 -0.0452107 0
M  V30 17 C 5.353 -1.10445 1.24005 0
M  V30 18 O 5.83584 1.19428 -0.421237 0
M  V30 19 C 6.76015 2.22367 -0.534022 0
M  V30 20 C -0.575929 -0.589841 -1.21663 0
M  V30 21 N -0.249137 -0.643992 -2.61973 0
M  V30 22 N -1.76571 -0.0242385 -0.789782 0
M  V30 23 C -2.11728 0.0294589 0.454393 0
M  V30 24 N -1.27295 -0.495869 1.40057 0
M  V30 25 S -3.662 0.612308 1.10621 0
M  V30 26 C -4.76911 1.09691 -0.23739 0
M  V30 27 C -6.18235 0.973625 0.137549 0
M  V30 28 C -6.81114 -0.260403 0.0152452 0
M  V30 29 C -8.1536 -0.466765 0.19136 0
M  V30 30 C -8.94358 0.649428 0.522226 0
M  V30 31 C -8.32977 1.88343 0.653698 0
M  V30 32 C -6.96316 2.05758 0.458725 0
M  V30 33 Cl -6.20185 3.60959 0.621946 0
M  V30 34 H 2.10793 -3.44872 3.52439 0
M  V30 35 H 3.43627 -3.53758 2.34614 0
M  V30 36 H 1.75018 -1.74266 -1.59027 0
M  V30 37 H 0.706391 1.17008 -0.740553 0
M  V30 38 H 1.88358 3.20251 -1.12694 0
M  V30 39 H 4.31688 3.26997 -0.961547 0
M  V30 40 H 4.86948 -0.524932 2.02917 0
M  V30 41 H 5.38082 -2.15826 1.51717 0
M  V30 42 H 6.41024 -0.747814 0.988161 0
M  V30 43 H 6.34348 3.22141 -0.257209 0
M  V30 44 H 7.60778 2.04947 0.12593 0
M  V30 45 H 7.22196 2.3163 -1.56993 0
M  V30 46 H -0.310095 -1.62415 -3.04641 0
M  V30 47 H 0.00803896 0.172145 -3.16362 0
M  V30 48 H -4.53606 1.994 -0.766406 0
M  V30 49 H -4.64737 0.234672 -1.03516 0
M  V30 50 H -6.22471 -1.12508 -0.24243 0
M  V30 51 H -8.68903 -1.42024 0.0708973 0
M  V30 52 H -10.0289 0.522299 0.675303 0
M  V30 53 H -8.91645 2.77777 0.957363 0
M  V30 END ATOM
M  V30 BEGIN BOND
M  V30 1 3 1 2
M  V30 2 1 2 3
M  V30 3 2 3 4
M  V30 4 1 4 5
M  V30 5 1 4 6
M  V30 6 1 6 7
M  V30 7 2 7 8
M  V30 8 1 8 9
M  V30 9 1 9 10
M  V30 10 2 10 11
M  V30 11 1 11 12
M  V30 12 2 12 13
M  V30 13 1 13 14
M  V30 14 2 14 15
M  V30 15 1 15 16
M  V30 16 1 16 17
M  V30 17 1 14 18
M  V30 18 1 18 19
M  V30 19 1 8 20
M  V30 20 1 20 21
M  V30 21 2 20 22
M  V30 22 1 22 23
M  V30 23 2 23 24
M  V30 24 1 23 25
M  V30 25 1 25 26
M  V30 26 1 26 27
M  V30 27 2 27 28
M  V30 28 1 28 29
M  V30 29 2 29 30
M  V30 30 1 30 31
M  V30 31 2 31 32
M  V30 32 1 32 33
M  V30 33 1 9 3
M  V30 34 1 15 10
M  V30 35 1 32 27
M  V30 36 1 24 7
M  V30 37 1 5 34
M  V30 38 1 5 35
M  V30 39 1 9 36
M  V30 40 1 11 37
M  V30 41 1 12 38
M  V30 42 1 13 39
M  V30 43 1 17 40
M  V30 44 1 17 41
M  V30 45 1 17 42
M  V30 46 1 19 43
M  V30 47 1 19 44
M  V30 48 1 19 45
M  V30 49 1 21 46
M  V30 50 1 21 47
M  V30 51 1 26 48
M  V30 52 1 26 49
M  V30 53 1 28 50
M  V30 54 1 29 51
M  V30 55 1 30 52
M  V30 56 1 31 53
M  V30 END BOND
M  V30 END CTAB
M  END
