
     RDKit          3D

  0  0  0  0  0  0  0  0  0  0999 V3000
M  V30 BEGIN CTAB
M  V30 COUNTS 31 31 0 0 0
M  V30 BEGIN ATOM
M  V30 1 C -3.6998 0.0686836 -0.715907 0
M  V30 2 C -2.60234 -0.93327 -1.05837 0
M  V30 3 C -1.26691 -0.439858 -0.669274 0
M  V30 4 C -0.376492 0.0406694 -1.63599 0
M  V30 5 C 0.866307 0.492068 -1.22966 0
M  V30 6 N 1.78068 0.983236 -2.19957 0
M  V30 7 C 1.26274 0.488091 0.0872656 0
M  V30 8 C 0.374013 0.0114525 1.02782 0
M  V30 9 C -0.893248 -0.453473 0.648496 0
M  V30 10 C -1.82099 -0.955484 1.67973 0
M  V30 11 N 0.740044 -0.0113499 2.405 0
M  V30 12 C 2.59216 0.982956 0.43942 0
M  V30 13 C 3.72204 0.0506166 0.129158 0
M  V30 14 H -4.59254 -0.192299 -1.32065 0
M  V30 15 H -3.38626 1.08544 -1.01643 0
M  V30 16 H -3.98166 0.0631234 0.341352 0
M  V30 17 H -2.88067 -1.89683 -0.605563 0
M  V30 18 H -2.67182 -1.02582 -2.18831 0
M  V30 19 H -0.691828 0.0409329 -2.6553 0
M  V30 20 H 2.49073 0.356762 -2.6088 0
M  V30 21 H 1.74928 1.97641 -2.51158 0
M  V30 22 H -2.47777 -1.76923 1.36802 0
M  V30 23 H -1.20253 -1.38806 2.52256 0
M  V30 24 H -2.41934 -0.135439 2.14339 0
M  V30 25 H 0.999484 0.834603 2.9444 0
M  V30 26 H 0.751031 -0.924086 2.91097 0
M  V30 27 H 2.59944 1.15989 1.54669 0
M  V30 28 H 2.80543 1.9724 -0.0124074 0
M  V30 29 H 4.55237 0.249754 0.868251 0
M  V30 30 H 3.47932 -1.01787 0.230647 0
M  V30 31 H 4.19915 0.285978 -0.865354 0
M  V30 END ATOM
M  V30 BEGIN BOND
M  V30 1 1 1 2
M  V30 2 1 2 3
M  V30 3 2 3 4
M  V30 4 1 4 5
M  V30 5 1 5 6
M  V30 6 2 5 7
M  V30 7 1 7 8
M  V30 8 2 8 9
M  V30 9 1 9 10
M  V30 10 1 8 11
M  V30 11 1 7 12
M  V30 12 1 12 13
M  V30 13 1 9 3
M  V30 14 1 1 14
M  V30 15 1 1 15
M  V30 16 1 1 16
M  V30 17 1 2 17
M  V30 18 1 2 18
M  V30 19 1 4 19
M  V30 20 1 6 20
M  V30 21 1 6 21
M  V30 22 1 10 22
M  V30 23 1 10 23
M  V30 24 1 10 24
M  V30 25 1 11 25
M  V30 26 1 11 26
M  V30 27 1 12 27
M  V30 28 1 12 28
M  V30 29 1 13 29
M  V30 30 1 13 30
M  V30 31 1 13 31
M  V30 END BOND
M  V30 END CTAB
M  END
