
     RDKit          3D

  0  0  0  0  0  0  0  0  0  0999 V3000
M  V30 BEGIN CTAB
M  V30 COUNTS 36 37 0 0 0
M  V30 BEGIN ATOM
M  V30 1 N 3.66319 2.07205 -0.293724 0
M  V30 2 C 2.30981 1.68888 -0.614491 0
M  V30 3 C 2.23237 0.228144 -0.437578 0
M  V30 4 N 0.899355 -0.387176 -0.673383 0
M  V30 5 C 1.16384 -1.7308 -1.06383 0
M  V30 6 C 0.722778 -2.87913 -0.272383 0
M  V30 7 N -0.475646 -2.52115 0.501116 0
M  V30 8 C -0.0573862 -1.43633 1.30261 0
M  V30 9 C 0.0648787 -0.163727 0.471484 0 CFG=2
M  V30 10 C -1.34664 0.238081 0.173129 0
M  V30 11 C -2.1963 -0.462022 -0.609503 0
M  V30 12 C -3.47524 -0.0759594 -0.954769 0
M  V30 13 C -3.92201 1.12275 -0.467802 0
M  V30 14 C -3.10236 1.8729 0.33134 0
M  V30 15 C -1.82444 1.45472 0.660429 0
M  V30 16 N -1.0259 2.26351 1.50167 0
M  V30 17 H 4.2703 2.00676 -1.07154 0
M  V30 18 H 3.98329 1.72053 0.573901 0
M  V30 19 H 2.17525 1.88214 -1.72369 0
M  V30 20 H 1.64942 2.32908 -0.0663899 0
M  V30 21 H 2.47729 -0.0512118 0.625108 0
M  V30 22 H 2.96042 -0.288949 -1.08173 0
M  V30 23 H 0.786835 -1.86344 -2.1182 0
M  V30 24 H 2.28711 -1.84824 -1.19268 0
M  V30 25 H 0.475375 -3.74219 -0.943595 0
M  V30 26 H 1.49676 -3.31468 0.425673 0
M  V30 27 H -0.961666 -3.30674 0.907339 0
M  V30 28 H -0.772608 -1.2135 2.11297 0
M  V30 29 H 0.94901 -1.63601 1.76842 0
M  V30 30 H 0.513096 0.599923 1.0916 0
M  V30 31 H -1.85894 -1.39852 -1.08493 0
M  V30 32 H -4.14338 -0.687978 -1.60311 0
M  V30 33 H -4.91315 1.51959 -0.687792 0
M  V30 34 H -3.44493 2.82668 0.744237 0
M  V30 35 H -1.53154 2.70895 2.34311 0
M  V30 36 H -0.0282559 2.47304 1.42698 0
M  V30 END ATOM
M  V30 BEGIN BOND
M  V30 1 1 1 2
M  V30 2 1 2 3
M  V30 3 1 3 4
M  V30 4 1 4 5
M  V30 5 1 5 6
M  V30 6 1 6 7
M  V30 7 1 7 8
M  V30 8 1 8 9
M  V30 9 1 9 10
M  V30 10 2 10 11
M  V30 11 1 11 12
M  V30 12 2 12 13
M  V30 13 1 13 14
M  V30 14 2 14 15
M  V30 15 1 15 16
M  V30 16 1 9 4
M  V30 17 1 15 10
M  V30 18 1 1 17
M  V30 19 1 1 18
M  V30 20 1 2 19
M  V30 21 1 2 20
M  V30 22 1 3 21
M  V30 23 1 3 22
M  V30 24 1 5 23
M  V30 25 1 5 24
M  V30 26 1 6 25
M  V30 27 1 6 26
M  V30 28 1 7 27
M  V30 29 1 8 28
M  V30 30 1 8 29
M  V30 31 1 9 30 CFG=1
M  V30 32 1 11 31
M  V30 33 1 12 32
M  V30 34 1 13 33
M  V30 35 1 14 34
M  V30 36 1 16 35
M  V30 37 1 16 36
M  V30 END BOND
M  V30 END CTAB
M  END
