
     RDKit          3D

  0  0  0  0  0  0  0  0  0  0999 V3000
M  V30 BEGIN CTAB
M  V30 COUNTS 27 29 0 0 0
M  V30 BEGIN ATOM
M  V30 1 N 4.68064 0.259193 -0.0662142 0
M  V30 2 C 3.26089 0.169931 -0.0632946 0
M  V30 3 N 2.50081 1.25709 -0.259031 0
M  V30 4 C 1.15858 1.14734 -0.251545 0
M  V30 5 C 0.430143 2.30842 -0.468484 0
M  V30 6 C -0.926444 2.1716 -0.464741 0
M  V30 7 C -1.56018 0.969949 -0.260594 0
M  V30 8 C -3.0052 0.648407 -0.245426 0
M  V30 9 C -3.03628 -0.552501 0.639676 0
M  V30 10 C -1.78508 -1.31311 0.161453 0
M  V30 11 C -0.835024 -0.194253 -0.0418123 0
M  V30 12 C 0.547288 -0.0687577 -0.0449271 0
M  V30 13 C 1.3447 -1.14964 0.14925 0
M  V30 14 N 0.751531 -2.42581 0.347777 0
M  V30 15 N 2.69702 -1.02571 0.139551 0
M  V30 16 H 5.22278 -0.226635 -0.813417 0
M  V30 17 H 5.21853 0.793592 0.651012 0
M  V30 18 H 0.970082 3.22825 -0.623439 0
M  V30 19 H -1.50797 3.09094 -0.637104 0
M  V30 20 H -3.28611 0.418609 -1.30325 0
M  V30 21 H -3.61809 1.49458 0.149049 0
M  V30 22 H -2.82215 -0.238093 1.66563 0
M  V30 23 H -3.94309 -1.1721 0.528588 0
M  V30 24 H -1.54303 -1.97739 1.01597 0
M  V30 25 H -1.99293 -1.83171 -0.774837 0
M  V30 26 H 0.794106 -2.8457 1.29487 0
M  V30 27 H 0.28447 -2.93651 -0.424711 0
M  V30 END ATOM
M  V30 BEGIN BOND
M  V30 1 1 1 2
M  V30 2 2 2 3
M  V30 3 1 3 4
M  V30 4 2 4 5
M  V30 5 1 5 6
M  V30 6 2 6 7
M  V30 7 1 7 8
M  V30 8 1 8 9
M  V30 9 1 9 10
M  V30 10 1 10 11
M  V30 11 2 11 12
M  V30 12 1 12 13
M  V30 13 1 13 14
M  V30 14 2 13 15
M  V30 15 1 15 2
M  V30 16 1 12 4
M  V30 17 1 11 7
M  V30 18 1 1 16
M  V30 19 1 1 17
M  V30 20 1 5 18
M  V30 21 1 6 19
M  V30 22 1 8 20
M  V30 23 1 8 21
M  V30 24 1 9 22
M  V30 25 1 9 23
M  V30 26 1 10 24
M  V30 27 1 10 25
M  V30 28 1 14 26
M  V30 29 1 14 27
M  V30 END BOND
M  V30 END CTAB
M  END
