
     RDKit          3D

  0  0  0  0  0  0  0  0  0  0999 V3000
M  V30 BEGIN CTAB
M  V30 COUNTS 24 25 0 0 0
M  V30 BEGIN ATOM
M  V30 1 F -3.55449 -1.89726 0.346005 0
M  V30 2 C -2.33292 -1.27214 0.324164 0
M  V30 3 C -1.20349 -2.06438 0.311241 0
M  V30 4 C 0.0252013 -1.41093 0.289135 0
M  V30 5 N 1.12298 -2.14357 0.276384 0
M  V30 6 C 2.33665 -1.58801 0.255031 0
M  V30 7 C 2.4965 -0.228452 0.245384 0
M  V30 8 C 1.37391 0.567953 0.258171 0
M  V30 9 C 0.131837 -0.0342774 0.280202 0
M  V30 10 C -1.00617 0.748046 0.293306 0
M  V30 11 C -2.2321 0.103498 0.315327 0
M  V30 12 C -3.47668 0.886785 0.330071 0
M  V30 13 N 1.44709 1.99005 0.249495 0
M  V30 14 N 3.78366 0.391579 0.222567 0
M  V30 15 H -1.25559 -3.15267 0.317823 0
M  V30 16 H 3.21483 -2.22155 0.24508 0
M  V30 17 H -0.976095 1.82907 0.287097 0
M  V30 18 H -4.28628 0.400574 0.943292 0
M  V30 19 H -3.79736 1.03725 -0.716165 0
M  V30 20 H -3.27574 1.86118 0.830926 0
M  V30 21 H 0.838354 2.52975 0.902074 0
M  V30 22 H 2.10907 2.4572 -0.410686 0
M  V30 23 H 4.08709 1.08701 0.93403 0
M  V30 24 H 4.42975 0.123279 -0.54521 0
M  V30 END ATOM
M  V30 BEGIN BOND
M  V30 1 1 1 2
M  V30 2 2 2 3
M  V30 3 1 3 4
M  V30 4 2 4 5
M  V30 5 1 5 6
M  V30 6 2 6 7
M  V30 7 1 7 8
M  V30 8 2 8 9
M  V30 9 1 9 10
M  V30 10 2 10 11
M  V30 11 1 11 12
M  V30 12 1 8 13
M  V30 13 1 7 14
M  V30 14 1 11 2
M  V30 15 1 9 4
M  V30 16 1 3 15
M  V30 17 1 6 16
M  V30 18 1 10 17
M  V30 19 1 12 18
M  V30 20 1 12 19
M  V30 21 1 12 20
M  V30 22 1 13 21
M  V30 23 1 13 22
M  V30 24 1 14 23
M  V30 25 1 14 24
M  V30 END BOND
M  V30 END CTAB
M  END
