
     RDKit          3D

  0  0  0  0  0  0  0  0  0  0999 V3000
M  V30 BEGIN CTAB
M  V30 COUNTS 28 28 0 0 0
M  V30 BEGIN ATOM
M  V30 1 N 2.0746 0.147899 1.68124 0
M  V30 2 C 2.17746 -0.194977 0.289653 0
M  V30 3 C 0.817124 -0.213954 -0.404471 0
M  V30 4 N 1.09149 -0.57499 -1.79493 0
M  V30 5 C -0.0422739 -1.21893 0.27662 0
M  V30 6 C -0.922047 -0.665943 1.35527 0
M  V30 7 C -2.28234 -0.400421 0.775649 0
M  V30 8 S -2.26958 0.295341 -0.821789 0
M  V30 9 O -2.31506 -0.759191 -1.92094 0
M  V30 10 O -3.58567 1.05093 -0.990129 0
M  V30 11 C -0.971234 1.39091 -1.15764 0
M  V30 12 C 0.292707 1.17952 -0.397458 0
M  V30 13 H 2.14612 1.19859 1.745 0
M  V30 14 H 2.90302 -0.226651 2.19783 0
M  V30 15 H 2.63744 -1.22603 0.251939 0
M  V30 16 H 2.88927 0.465394 -0.231757 0
M  V30 17 H 1.68107 -1.45976 -1.78563 0
M  V30 18 H 1.7671 0.168179 -2.14116 0
M  V30 19 H 0.625174 -1.98504 0.773122 0
M  V30 20 H -0.654596 -1.81458 -0.437468 0
M  V30 21 H -0.509397 0.203364 1.88093 0
M  V30 22 H -1.07388 -1.45185 2.15363 0
M  V30 23 H -2.81097 -1.39325 0.717561 0
M  V30 24 H -2.87132 0.198155 1.49434 0
M  V30 25 H -0.780371 1.40256 -2.27126 0
M  V30 26 H -1.30374 2.44356 -0.936757 0
M  V30 27 H 1.07461 1.81178 -0.918887 0
M  V30 28 H 0.215284 1.62939 0.617497 0
M  V30 END ATOM
M  V30 BEGIN BOND
M  V30 1 1 1 2
M  V30 2 1 2 3
M  V30 3 1 3 4
M  V30 4 1 3 5
M  V30 5 1 5 6
M  V30 6 1 6 7
M  V30 7 1 7 8
M  V30 8 2 8 9
M  V30 9 2 8 10
M  V30 10 1 8 11
M  V30 11 1 11 12
M  V30 12 1 12 3
M  V30 13 1 1 13
M  V30 14 1 1 14
M  V30 15 1 2 15
M  V30 16 1 2 16
M  V30 17 1 4 17
M  V30 18 1 4 18
M  V30 19 1 5 19
M  V30 20 1 5 20
M  V30 21 1 6 21
M  V30 22 1 6 22
M  V30 23 1 7 23
M  V30 24 1 7 24
M  V30 25 1 11 25
M  V30 26 1 11 26
M  V30 27 1 12 27
M  V30 28 1 12 28
M  V30 END BOND
M  V30 END CTAB
M  END
