
     RDKit          3D

  0  0  0  0  0  0  0  0  0  0999 V3000
M  V30 BEGIN CTAB
M  V30 COUNTS 33 34 0 0 0
M  V30 BEGIN ATOM
M  V30 1 C -0.623401 -2.45007 0.82961 0
M  V30 2 C -0.575747 -1.08498 0.144543 0 CFG=2
M  V30 3 N -1.18737 -0.181639 1.11942 0
M  V30 4 C -1.86032 0.887722 1.02559 0
M  V30 5 N -2.26889 1.45313 2.25599 0
M  V30 6 C -2.264 1.60985 -0.168505 0
M  V30 7 O -2.60685 0.851921 -1.26186 0
M  V30 8 C -1.58505 0.114515 -1.80722 0
M  V30 9 C -1.47676 -1.17373 -1.05031 0 CFG=2
M  V30 10 F -2.75323 -1.46704 -0.540632 0
M  V30 11 C 0.791931 -0.653962 -0.122398 0
M  V30 12 C 1.62086 -1.31585 -1.00266 0
M  V30 13 F 1.1779 -2.39821 -1.64402 0
M  V30 14 C 2.92389 -0.912572 -1.26381 0
M  V30 15 C 3.43211 0.196709 -0.62528 0
M  V30 16 C 2.63916 0.871801 0.249601 0
M  V30 17 N 3.1526 2.01218 0.910089 0
M  V30 18 C 1.36075 0.460315 0.493477 0
M  V30 19 H -0.286982 -3.25608 0.202464 0
M  V30 20 H -1.67449 -2.60144 1.12765 0
M  V30 21 H -0.0433348 -2.32478 1.77345 0
M  V30 22 H -2.86393 0.894608 2.88681 0
M  V30 23 H -1.96971 2.43381 2.52684 0
M  V30 24 H -3.19062 2.20483 0.0890105 0
M  V30 25 H -1.51198 2.40596 -0.42044 0
M  V30 26 H -0.620395 0.63906 -1.85504 0
M  V30 27 H -1.90154 -0.142676 -2.86069 0
M  V30 28 H -1.25156 -1.98891 -1.72848 0
M  V30 29 H 3.52854 -1.47051 -1.96446 0
M  V30 30 H 4.44901 0.534397 -0.811264 0
M  V30 31 H 3.7342 2.68069 0.369584 0
M  V30 32 H 2.92104 2.13149 1.92238 0
M  V30 33 H 0.784161 1.03948 1.20056 0
M  V30 END ATOM
M  V30 BEGIN BOND
M  V30 1 1 2 1 CFG=1
M  V30 2 1 2 3
M  V30 3 2 3 4
M  V30 4 1 4 5
M  V30 5 1 4 6
M  V30 6 1 6 7
M  V30 7 1 7 8
M  V30 8 1 8 9
M  V30 9 1 9 10
M  V30 10 1 2 11
M  V30 11 2 11 12
M  V30 12 1 12 13
M  V30 13 1 12 14
M  V30 14 2 14 15
M  V30 15 1 15 16
M  V30 16 1 16 17
M  V30 17 2 16 18
M  V30 18 1 9 2
M  V30 19 1 18 11
M  V30 20 1 1 19
M  V30 21 1 1 20
M  V30 22 1 1 21
M  V30 23 1 5 22
M  V30 24 1 5 23
M  V30 25 1 6 24
M  V30 26 1 6 25
M  V30 27 1 8 26
M  V30 28 1 8 27
M  V30 29 1 9 28 CFG=3
M  V30 30 1 14 29
M  V30 31 1 15 30
M  V30 32 1 17 31
M  V30 33 1 17 32
M  V30 34 1 18 33
M  V30 END BOND
M  V30 END CTAB
M  END
