
     RDKit          3D

  0  0  0  0  0  0  0  0  0  0999 V3000
M  V30 BEGIN CTAB
M  V30 COUNTS 19 18 0 0 0
M  V30 BEGIN ATOM
M  V30 1 N 1.58009 -0.603508 0.950066 0
M  V30 2 C 0.832446 -0.508018 -0.285445 0
M  V30 3 C 0.581679 0.925991 -0.70163 0
M  V30 4 N 1.81728 1.65234 -0.908285 0
M  V30 5 C -0.540404 -1.16374 -0.110024 0
M  V30 6 C -1.3243 -0.514477 0.951777 0
M  V30 7 C -2.49552 0.0443171 0.68571 0
M  V30 8 H 1.34864 -1.48351 1.47484 0
M  V30 9 H 1.24197 0.17784 1.5888 0
M  V30 10 H 1.37611 -1.01167 -1.10975 0
M  V30 11 H -0.0903539 1.45509 -0.00369545 0
M  V30 12 H 0.0491886 0.880885 -1.67479 0
M  V30 13 H 2.44984 1.00486 -1.44443 0
M  V30 14 H 1.59077 2.43162 -1.59245 0
M  V30 15 H -0.347032 -2.24639 0.121032 0
M  V30 16 H -1.10835 -1.13217 -1.05402 0
M  V30 17 H -0.951343 -0.485668 1.96777 0
M  V30 18 H -2.92177 0.0479117 -0.310941 0
M  V30 19 H -3.08895 0.52831 1.45547 0
M  V30 END ATOM
M  V30 BEGIN BOND
M  V30 1 1 1 2
M  V30 2 1 2 3
M  V30 3 1 3 4
M  V30 4 1 2 5
M  V30 5 1 5 6
M  V30 6 2 6 7 CFG=2
M  V30 7 1 1 8
M  V30 8 1 1 9
M  V30 9 1 2 10
M  V30 10 1 3 11
M  V30 11 1 3 12
M  V30 12 1 4 13
M  V30 13 1 4 14
M  V30 14 1 5 15
M  V30 15 1 5 16
M  V30 16 1 6 17
M  V30 17 1 7 18
M  V30 18 1 7 19
M  V30 END BOND
M  V30 END CTAB
M  END
