
     RDKit          3D

  0  0  0  0  0  0  0  0  0  0999 V3000
M  V30 BEGIN CTAB
M  V30 COUNTS 81 81 0 0 0
M  V30 BEGIN ATOM
M  V30 1 N 4.42107 -1.9022 -4.54978 0
M  V30 2 C 4.77992 -2.94907 -3.64291 0
M  V30 3 C 4.89179 -2.517 -2.24067 0
M  V30 4 O 5.20534 -3.3803 -1.37021 0
M  V30 5 N 4.66664 -1.18058 -1.80936 0
M  V30 6 C 4.78991 -0.813566 -0.421023 0
M  V30 7 C 3.50715 -0.227205 0.114516 0
M  V30 8 O 2.56782 -0.106045 -0.705481 0
M  V30 9 N 3.449 0.138661 1.4791 0
M  V30 10 C 2.26663 0.704665 2.07294 0
M  V30 11 C 1.08314 -0.158728 2.01271 0
M  V30 12 O 1.17049 -1.28252 1.46052 0
M  V30 13 N -0.153815 0.254474 2.56653 0
M  V30 14 C -1.37277 -0.548196 2.52801 0
M  V30 15 C -2.51382 0.240133 2.04674 0
M  V30 16 O -2.3349 1.49887 1.91139 0
M  V30 17 N -3.79803 -0.240041 1.70953 0
M  V30 18 C -4.87249 0.668935 1.24105 0
M  V30 19 C -4.95322 0.646439 -0.199063 0
M  V30 20 O -3.74747 0.747449 -0.76325 0
M  V30 21 N -5.96167 0.544448 -1.17221 0
M  V30 22 C -5.63211 0.692684 -2.64231 0
M  V30 23 C -6.89123 1.13621 -3.30505 0
M  V30 24 C -7.89712 1.30879 -2.19271 0
M  V30 25 C -7.35535 0.264403 -1.20569 0
M  V30 26 C -7.6 -1.08301 -1.78706 0
M  V30 27 O -8.80811 -1.34085 -2.08344 0
M  V30 28 O -6.58597 -1.97573 -1.98237 0
M  V30 29 C -6.03582 0.621551 2.12704 0
M  V30 30 O -7.06109 1.52271 1.85248 0
M  V30 31 C -6.59111 -0.78463 2.328 0
M  V30 32 C -1.60214 -1.09001 3.95225 0
M  V30 33 C -2.7853 -1.90047 4.09533 0
M  V30 34 O -3.82677 -1.40049 4.61005 0
M  V30 35 O -2.83358 -3.21425 3.68943 0
M  V30 36 C 5.84933 0.235734 -0.2001 0
M  V30 37 C 7.21761 -0.225141 -0.643938 0
M  V30 38 C 8.2628 0.844997 -0.406614 0
M  V30 39 N 7.93849 2.06136 -1.14197 0
M  V30 40 C 8.77475 3.21282 -1.04525 0
M  V30 41 N 9.50388 3.58721 -2.00634 0
M  V30 42 N 8.7732 3.94523 0.178817 0
M  V30 43 H 5.21554 -1.26104 -4.71691 0
M  V30 44 H 4.05504 -2.23708 -5.45164 0
M  V30 45 H 4.01297 -3.76212 -3.70957 0
M  V30 46 H 5.75493 -3.45113 -3.90583 0
M  V30 47 H 4.41025 -0.474928 -2.52552 0
M  V30 48 H 5.06902 -1.68898 0.198322 0
M  V30 49 H 4.30857 -0.0167261 2.06332 0
M  V30 50 H 2.51909 1.03432 3.10208 0
M  V30 51 H 2.01005 1.60472 1.42801 0
M  V30 52 H -0.230473 1.18206 3.03822 0
M  V30 53 H -1.21621 -1.42464 1.88689 0
M  V30 54 H -3.97792 -1.25884 1.78406 0
M  V30 55 H -4.39428 1.72055 1.45852 0
M  V30 56 H -4.81353 1.45308 -2.71517 0
M  V30 57 H -5.31211 -0.295898 -2.96983 0
M  V30 58 H -6.78142 2.09136 -3.87225 0
M  V30 59 H -7.31576 0.341225 -3.98562 0
M  V30 60 H -7.74972 2.3188 -1.76318 0
M  V30 61 H -8.93275 1.1029 -2.48254 0
M  V30 62 H -7.91862 0.338694 -0.257292 0
M  V30 63 H -6.55864 -2.4793 -2.86283 0
M  V30 64 H -5.70919 0.92417 3.1823 0
M  V30 65 H -7.72377 1.40929 2.59869 0
M  V30 66 H -7.65618 -0.765871 2.0112 0
M  V30 67 H -6.53343 -1.13014 3.37627 0
M  V30 68 H -6.00094 -1.46145 1.68058 0
M  V30 69 H -0.648135 -1.6171 4.2117 0
M  V30 70 H -1.6287 -0.217676 4.66711 0
M  V30 71 H -2.0675 -3.69579 3.22147 0
M  V30 72 H 5.52363 1.14623 -0.759485 0
M  V30 73 H 5.86377 0.511062 0.872697 0
M  V30 74 H 7.51073 -1.09244 -0.00942346 0
M  V30 75 H 7.20194 -0.553002 -1.68227 0
M  V30 76 H 9.23182 0.492063 -0.773256 0
M  V30 77 H 8.35502 1.11404 0.654615 0
M  V30 78 H 7.09099 2.04949 -1.7265 0
M  V30 79 H 9.5291 3.07705 -2.90707 0
M  V30 80 H 7.91744 4.36719 0.579485 0
M  V30 81 H 9.68426 4.0481 0.67728 0
M  V30 END ATOM
M  V30 BEGIN BOND
M  V30 1 1 1 2
M  V30 2 1 2 3
M  V30 3 2 3 4
M  V30 4 1 3 5
M  V30 5 1 5 6
M  V30 6 1 6 7
M  V30 7 2 7 8
M  V30 8 1 7 9
M  V30 9 1 9 10
M  V30 10 1 10 11
M  V30 11 2 11 12
M  V30 12 1 11 13
M  V30 13 1 13 14
M  V30 14 1 14 15
M  V30 15 2 15 16
M  V30 16 1 15 17
M  V30 17 1 17 18
M  V30 18 1 18 19
M  V30 19 2 19 20
M  V30 20 1 19 21
M  V30 21 1 21 22
M  V30 22 1 22 23
M  V30 23 1 23 24
M  V30 24 1 24 25
M  V30 25 1 25 26
M  V30 26 2 26 27
M  V30 27 1 26 28
M  V30 28 1 18 29
M  V30 29 1 29 30
M  V30 30 1 29 31
M  V30 31 1 14 32
M  V30 32 1 32 33
M  V30 33 2 33 34
M  V30 34 1 33 35
M  V30 35 1 6 36
M  V30 36 1 36 37
M  V30 37 1 37 38
M  V30 38 1 38 39
M  V30 39 1 39 40
M  V30 40 2 40 41 CFG=2
M  V30 41 1 40 42
M  V30 42 1 25 21
M  V30 43 1 1 43
M  V30 44 1 1 44
M  V30 45 1 2 45
M  V30 46 1 2 46
M  V30 47 1 5 47
M  V30 48 1 6 48
M  V30 49 1 9 49
M  V30 50 1 10 50
M  V30 51 1 10 51
M  V30 52 1 13 52
M  V30 53 1 14 53
M  V30 54 1 17 54
M  V30 55 1 18 55
M  V30 56 1 22 56
M  V30 57 1 22 57
M  V30 58 1 23 58
M  V30 59 1 23 59
M  V30 60 1 24 60
M  V30 61 1 24 61
M  V30 62 1 25 62
M  V30 63 1 28 63
M  V30 64 1 29 64
M  V30 65 1 30 65
M  V30 66 1 31 66
M  V30 67 1 31 67
M  V30 68 1 31 68
M  V30 69 1 32 69
M  V30 70 1 32 70
M  V30 71 1 35 71
M  V30 72 1 36 72
M  V30 73 1 36 73
M  V30 74 1 37 74
M  V30 75 1 37 75
M  V30 76 1 38 76
M  V30 77 1 38 77
M  V30 78 1 39 78
M  V30 79 1 41 79
M  V30 80 1 42 80
M  V30 81 1 42 81
M  V30 END BOND
M  V30 END CTAB
M  END
