
     RDKit          3D

  0  0  0  0  0  0  0  0  0  0999 V3000
M  V30 BEGIN CTAB
M  V30 COUNTS 44 47 0 0 0
M  V30 BEGIN ATOM
M  V30 1 N 7.9619 -1.8412 -1.56165 0
M  V30 2 C 6.66447 -1.29905 -1.46234 0
M  V30 3 N 5.947 -1.4389 -0.329186 0
M  V30 4 C 4.70709 -0.937218 -0.193327 0
M  V30 5 C 3.95015 -1.11199 1.07445 0
M  V30 6 O 2.66689 -0.520684 0.93986 0
M  V30 7 C 1.7285 -0.521886 1.95879 0
M  V30 8 O 2.04491 -1.07462 3.0421 0
M  V30 9 C 0.409688 0.0906664 1.80674 0
M  V30 10 C -0.498858 0.0724333 2.84213 0
M  V30 11 C -1.75363 0.634074 2.74783 0
M  V30 12 C -2.13783 1.25505 1.5527 0
M  V30 13 C -1.24042 1.28213 0.506976 0
M  V30 14 C 0.0173889 0.705441 0.63691 0
M  V30 15 C -3.48357 1.83425 1.51881 0
M  V30 16 N -4.42861 0.811963 1.12401 0
M  V30 17 N -5.09476 -0.0343972 1.9247 0
M  V30 18 N -5.85364 -0.807555 1.18051 0
M  V30 19 C -5.70625 -0.489317 -0.131855 0
M  V30 20 C -4.79295 0.54644 -0.14872 0
M  V30 21 C -4.45077 1.07624 -1.37436 0
M  V30 22 C -4.98956 0.602642 -2.54785 0
M  V30 23 C -5.89862 -0.427883 -2.53608 0
M  V30 24 C -6.23711 -0.954254 -1.30318 0
M  V30 25 N 4.15087 -0.261304 -1.23803 0
M  V30 26 C 4.84054 -0.1025 -2.38703 0
M  V30 27 N 6.07778 -0.621962 -2.47607 0
M  V30 28 N 4.32783 0.588993 -3.5145 0
M  V30 29 H 8.44844 -1.85882 -2.47097 0
M  V30 30 H 8.42114 -2.21969 -0.719423 0
M  V30 31 H 4.44446 -0.54195 1.9156 0
M  V30 32 H 3.92314 -2.15457 1.39855 0
M  V30 33 H -0.195112 -0.409837 3.76409 0
M  V30 34 H -2.45203 0.601655 3.59163 0
M  V30 35 H -1.54995 1.76575 -0.406852 0
M  V30 36 H 0.70782 0.727123 -0.170218 0
M  V30 37 H -3.52196 2.67227 0.789683 0
M  V30 38 H -3.74737 2.26776 2.50431 0
M  V30 39 H -3.74209 1.88483 -1.42978 0
M  V30 40 H -4.73224 1.00789 -3.52961 0
M  V30 41 H -6.31861 -0.796417 -3.45708 0
M  V30 42 H -6.95698 -1.77002 -1.29579 0
M  V30 43 H 4.83448 1.46212 -3.79994 0
M  V30 44 H 3.50841 0.306311 -4.06841 0
M  V30 END ATOM
M  V30 BEGIN BOND
M  V30 1 1 1 2
M  V30 2 2 2 3
M  V30 3 1 3 4
M  V30 4 1 4 5
M  V30 5 1 5 6
M  V30 6 1 6 7
M  V30 7 2 7 8
M  V30 8 1 7 9
M  V30 9 2 9 10
M  V30 10 1 10 11
M  V30 11 2 11 12
M  V30 12 1 12 13
M  V30 13 2 13 14
M  V30 14 1 12 15
M  V30 15 1 15 16
M  V30 16 1 16 17
M  V30 17 2 17 18
M  V30 18 1 18 19
M  V30 19 2 19 20
M  V30 20 1 20 21
M  V30 21 2 21 22
M  V30 22 1 22 23
M  V30 23 2 23 24
M  V30 24 2 4 25
M  V30 25 1 25 26
M  V30 26 2 26 27
M  V30 27 1 26 28
M  V30 28 1 27 2
M  V30 29 1 14 9
M  V30 30 1 20 16
M  V30 31 1 24 19
M  V30 32 1 1 29
M  V30 33 1 1 30
M  V30 34 1 5 31
M  V30 35 1 5 32
M  V30 36 1 10 33
M  V30 37 1 11 34
M  V30 38 1 13 35
M  V30 39 1 14 36
M  V30 40 1 15 37
M  V30 41 1 15 38
M  V30 42 1 21 39
M  V30 43 1 22 40
M  V30 44 1 23 41
M  V30 45 1 24 42
M  V30 46 1 28 43
M  V30 47 1 28 44
M  V30 END BOND
M  V30 END CTAB
M  END
