
     RDKit          3D

  0  0  0  0  0  0  0  0  0  0999 V3000
M  V30 BEGIN CTAB
M  V30 COUNTS 27 28 0 0 0
M  V30 BEGIN ATOM
M  V30 1 O 1.01718 -2.35237 0.307366 0
M  V30 2 C 0.928337 -1.08627 0.078877 0
M  V30 3 C -0.423087 -0.566611 0.00585142 0
M  V30 4 C -0.701102 0.73688 -0.314721 0
M  V30 5 C -2.02687 1.1907 -0.351458 0
M  V30 6 N -2.29898 2.55358 -0.687045 0
M  V30 7 C -3.03009 0.298016 -0.0598526 0
M  V30 8 C -2.79897 -1.01283 0.26484 0
M  V30 9 C -1.485 -1.41782 0.289999 0
M  V30 10 N -3.88152 -1.89744 0.558941 0
M  V30 11 N 2.11668 -0.36014 -0.07199 0
M  V30 12 C 3.51476 -0.828963 -0.0392766 0
M  V30 13 C 3.88316 0.522522 0.492705 0
M  V30 14 C 2.61539 0.9437 -0.274551 0
M  V30 15 H 0.0368402 1.46599 -0.561697 0
M  V30 16 H -2.19927 2.95375 -1.63792 0
M  V30 17 H -2.61753 3.17637 0.0811875 0
M  V30 18 H -4.05272 0.650361 -0.088784 0
M  V30 19 H -1.32068 -2.46433 0.550658 0
M  V30 20 H -4.28815 -2.49068 -0.199713 0
M  V30 21 H -4.2759 -1.96376 1.51851 0
M  V30 22 H 3.9302 -0.985828 -1.06051 0
M  V30 23 H 3.68378 -1.68545 0.632774 0
M  V30 24 H 3.78322 0.646917 1.59173 0
M  V30 25 H 4.81085 0.974287 0.0965242 0
M  V30 26 H 2.1252 1.81556 0.202931 0
M  V30 27 H 2.95427 1.18387 -1.32537 0
M  V30 END ATOM
M  V30 BEGIN BOND
M  V30 1 2 1 2
M  V30 2 1 2 3
M  V30 3 2 3 4
M  V30 4 1 4 5
M  V30 5 1 5 6
M  V30 6 2 5 7
M  V30 7 1 7 8
M  V30 8 2 8 9
M  V30 9 1 8 10
M  V30 10 1 2 11
M  V30 11 1 11 12
M  V30 12 1 12 13
M  V30 13 1 13 14
M  V30 14 1 9 3
M  V30 15 1 14 11
M  V30 16 1 4 15
M  V30 17 1 6 16
M  V30 18 1 6 17
M  V30 19 1 7 18
M  V30 20 1 9 19
M  V30 21 1 10 20
M  V30 22 1 10 21
M  V30 23 1 12 22
M  V30 24 1 12 23
M  V30 25 1 13 24
M  V30 26 1 13 25
M  V30 27 1 14 26
M  V30 28 1 14 27
M  V30 END BOND
M  V30 END CTAB
M  END
