
     RDKit          3D

  0  0  0  0  0  0  0  0  0  0999 V3000
M  V30 BEGIN CTAB
M  V30 COUNTS 46 47 0 0 0
M  V30 BEGIN ATOM
M  V30 1 N -6.41975 0.577493 -0.182793 0
M  V30 2 C -5.04266 0.91688 0.123946 0
M  V30 3 C -4.52878 -0.0151847 1.20865 0
M  V30 4 C -3.11157 0.278301 1.57546 0
M  V30 5 O -2.1686 0.179175 0.574053 0
M  V30 6 C -1.7704 -0.890459 -0.154192 0
M  V30 7 C -2.20685 -2.18879 -0.0608062 0
M  V30 8 C -1.74449 -3.23293 -0.84719 0
M  V30 9 Cl -2.40161 -4.83993 -0.609254 0
M  V30 10 C -0.78505 -2.95824 -1.78418 0
M  V30 11 C -0.308553 -1.67406 -1.92288 0
M  V30 12 C -0.785943 -0.654324 -1.12807 0
M  V30 13 C -0.286787 0.704473 -1.26957 0
M  V30 14 O -0.852249 1.49985 -2.0687 0
M  V30 15 N 0.836122 1.09453 -0.492008 0
M  V30 16 C 1.47571 2.41684 -0.501187 0
M  V30 17 C 2.94292 2.06675 -0.380193 0
M  V30 18 C 2.93916 0.920691 0.578781 0
M  V30 19 C 1.57114 0.298559 0.448922 0
M  V30 20 C 3.97501 -0.126071 0.244598 0
M  V30 21 S 5.61535 0.53602 0.264225 0
M  V30 22 O 5.79234 1.6415 -0.720714 0
M  V30 23 O 5.91317 1.00264 1.66494 0
M  V30 24 N 6.72194 -0.714013 -0.123952 0
M  V30 25 H -6.57005 -0.453651 -0.107565 0
M  V30 26 H -7.05583 1.00976 0.53538 0
M  V30 27 H -4.4242 0.719154 -0.777533 0
M  V30 28 H -4.94114 1.97057 0.441262 0
M  V30 29 H -5.21216 0.168201 2.08607 0
M  V30 30 H -4.75498 -1.03301 0.883814 0
M  V30 31 H -3.08288 1.28967 2.08329 0
M  V30 32 H -2.84308 -0.440975 2.4164 0
M  V30 33 H -2.95648 -2.41687 0.693141 0
M  V30 34 H -0.420544 -3.77705 -2.40281 0
M  V30 35 H 0.456633 -1.4602 -2.67122 0
M  V30 36 H 1.15963 2.99528 0.377513 0
M  V30 37 H 1.30951 2.93997 -1.45712 0
M  V30 38 H 3.46494 2.95345 0.0450488 0
M  V30 39 H 3.29903 1.81244 -1.39131 0
M  V30 40 H 3.15362 1.30308 1.58667 0
M  V30 41 H 1.09285 0.379526 1.46172 0
M  V30 42 H 1.64122 -0.764816 0.133817 0
M  V30 43 H 3.92455 -0.889378 1.0546 0
M  V30 44 H 3.74893 -0.65595 -0.702425 0
M  V30 45 H 7.37244 -0.95925 0.631505 0
M  V30 46 H 6.2684 -1.52965 -0.589465 0
M  V30 END ATOM
M  V30 BEGIN BOND
M  V30 1 1 1 2
M  V30 2 1 2 3
M  V30 3 1 3 4
M  V30 4 1 4 5
M  V30 5 1 5 6
M  V30 6 2 6 7
M  V30 7 1 7 8
M  V30 8 1 8 9
M  V30 9 2 8 10
M  V30 10 1 10 11
M  V30 11 2 11 12
M  V30 12 1 12 13
M  V30 13 2 13 14
M  V30 14 1 13 15
M  V30 15 1 15 16
M  V30 16 1 16 17
M  V30 17 1 17 18
M  V30 18 1 18 19
M  V30 19 1 18 20
M  V30 20 1 20 21
M  V30 21 2 21 22
M  V30 22 2 21 23
M  V30 23 1 21 24
M  V30 24 1 12 6
M  V30 25 1 19 15
M  V30 26 1 1 25
M  V30 27 1 1 26
M  V30 28 1 2 27
M  V30 29 1 2 28
M  V30 30 1 3 29
M  V30 31 1 3 30
M  V30 32 1 4 31
M  V30 33 1 4 32
M  V30 34 1 7 33
M  V30 35 1 10 34
M  V30 36 1 11 35
M  V30 37 1 16 36
M  V30 38 1 16 37
M  V30 39 1 17 38
M  V30 40 1 17 39
M  V30 41 1 18 40
M  V30 42 1 19 41
M  V30 43 1 19 42
M  V30 44 1 20 43
M  V30 45 1 20 44
M  V30 46 1 24 45
M  V30 47 1 24 46
M  V30 END BOND
M  V30 END CTAB
M  END
