
     RDKit          3D

  0  0  0  0  0  0  0  0  0  0999 V3000
M  V30 BEGIN CTAB
M  V30 COUNTS 41 44 0 0 0
M  V30 BEGIN ATOM
M  V30 1 N 5.03721 1.43368 1.37111 0
M  V30 2 C 4.65141 0.435175 0.444038 0
M  V30 3 C 3.28365 0.252519 0.229805 0
M  V30 4 C 2.32492 1.07752 0.951758 0
M  V30 5 O 2.79892 1.93488 1.75255 0
M  V30 6 C 0.899422 0.906145 0.745975 0
M  V30 7 C 0.483184 -0.0767732 -0.167568 0
M  V30 8 C 1.42797 -0.908516 -0.896508 0
M  V30 9 O 1.04992 -1.80276 -1.72875 0
M  V30 10 C 2.8548 -0.705094 -0.661322 0
M  V30 11 C 3.77414 -1.50113 -1.35818 0
M  V30 12 O 3.29519 -2.44054 -2.23438 0
M  V30 13 C 5.11181 -1.31571 -1.14246 0
M  V30 14 C 5.52112 -0.349728 -0.244341 0
M  V30 15 C -0.858181 -0.28788 -0.409825 0
M  V30 16 N -1.23036 -1.2905 -1.34795 0
M  V30 17 C -1.80748 0.47525 0.252105 0
M  V30 18 C -1.3711 1.42779 1.13818 0
M  V30 19 C -0.0171576 1.67507 1.41435 0
M  V30 20 O 0.29163 2.62655 2.29499 0
M  V30 21 C -3.22207 0.240244 -0.0063711 0
M  V30 22 C -4.05127 1.30481 -0.319305 0
M  V30 23 C -5.38455 1.07638 -0.548462 0
M  V30 24 C -5.89234 -0.219918 -0.464944 0
M  V30 25 O -7.23992 -0.449143 -0.696991 0
M  V30 26 C -5.08116 -1.27354 -0.156898 0
M  V30 27 C -3.72261 -1.02862 0.0750789 0
M  V30 28 H 5.24403 2.38418 0.999224 0
M  V30 29 H 5.13177 1.29576 2.39918 0
M  V30 30 H 3.95534 -3.01638 -2.73864 0
M  V30 31 H 5.82184 -1.92397 -1.67467 0
M  V30 32 H 6.58741 -0.227407 -0.0956942 0
M  V30 33 H -1.51088 -1.05812 -2.33044 0
M  V30 34 H -1.21877 -2.28377 -1.03322 0
M  V30 35 H -2.14445 2.01737 1.64783 0
M  V30 36 H 1.0897 2.99117 2.65782 0
M  V30 37 H -3.67606 2.31538 -0.388448 0
M  V30 38 H -6.07522 1.85497 -0.793861 0
M  V30 39 H -7.60123 -1.3726 -0.637434 0
M  V30 40 H -5.4303 -2.30409 -0.0797814 0
M  V30 41 H -3.10029 -1.88865 0.327539 0
M  V30 END ATOM
M  V30 BEGIN BOND
M  V30 1 1 1 2
M  V30 2 2 2 3
M  V30 3 1 3 4
M  V30 4 2 4 5
M  V30 5 1 4 6
M  V30 6 2 6 7
M  V30 7 1 7 8
M  V30 8 2 8 9
M  V30 9 1 8 10
M  V30 10 2 10 11
M  V30 11 1 11 12
M  V30 12 1 11 13
M  V30 13 2 13 14
M  V30 14 1 7 15
M  V30 15 1 15 16
M  V30 16 2 15 17
M  V30 17 1 17 18
M  V30 18 2 18 19
M  V30 19 1 19 20
M  V30 20 1 17 21
M  V30 21 2 21 22
M  V30 22 1 22 23
M  V30 23 2 23 24
M  V30 24 1 24 25
M  V30 25 1 24 26
M  V30 26 2 26 27
M  V30 27 1 14 2
M  V30 28 1 27 21
M  V30 29 1 10 3
M  V30 30 1 19 6
M  V30 31 1 1 28
M  V30 32 1 1 29
M  V30 33 1 12 30
M  V30 34 1 13 31
M  V30 35 1 14 32
M  V30 36 1 16 33
M  V30 37 1 16 34
M  V30 38 1 18 35
M  V30 39 1 20 36
M  V30 40 1 22 37
M  V30 41 1 23 38
M  V30 42 1 25 39
M  V30 43 1 26 40
M  V30 44 1 27 41
M  V30 END BOND
M  V30 END CTAB
M  END
