
     RDKit          3D

  0  0  0  0  0  0  0  0  0  0999 V3000
M  V30 BEGIN CTAB
M  V30 COUNTS 37 38 0 0 0
M  V30 BEGIN ATOM
M  V30 1 C -0.351447 0.464767 -1.58771 0
M  V30 2 C -0.118783 -0.530178 -0.474401 0
M  V30 3 S -0.903773 0.0578689 1.05876 0
M  V30 4 C -2.67938 0.0347154 0.710461 0
M  V30 5 N -3.42406 -1.05953 0.947895 0
M  V30 6 C -4.75974 -1.06314 0.678546 0
M  V30 7 N -5.44109 -2.27677 0.96934 0
M  V30 8 C -5.37746 0.0543346 0.157041 0
M  V30 9 C -4.60643 1.17289 -0.0835308 0
M  V30 10 N -3.29662 1.1106 0.203792 0
M  V30 11 N -5.20799 2.34509 -0.622047 0
M  V30 12 C 1.34416 -0.816778 -0.267128 0
M  V30 13 C 2.07246 0.458812 0.087856 0
M  V30 14 C 3.52021 0.244086 0.296293 0
M  V30 15 C 4.07273 -0.0627276 1.52182 0
M  V30 16 C 5.43351 -0.263281 1.71222 0
M  V30 17 C 6.3082 -0.157328 0.636878 0
M  V30 18 C 5.76134 0.148664 -0.587879 0
M  V30 19 C 4.41353 0.347716 -0.777625 0
M  V30 20 H 0.487542 0.344451 -2.29153 0
M  V30 21 H -1.27223 0.189435 -2.15569 0
M  V30 22 H -0.451544 1.50455 -1.22068 0
M  V30 23 H -0.618276 -1.48616 -0.729133 0
M  V30 24 H -6.38019 -2.2674 1.41999 0
M  V30 25 H -4.99746 -3.18812 0.729231 0
M  V30 26 H -6.44095 0.0102593 -0.0428912 0
M  V30 27 H -4.61395 3.0042 -1.20332 0
M  V30 28 H -6.19333 2.61681 -0.494508 0
M  V30 29 H 1.40135 -1.55423 0.583709 0
M  V30 30 H 1.77011 -1.26695 -1.16169 0
M  V30 31 H 1.88158 1.17619 -0.742781 0
M  V30 32 H 1.65401 0.850381 1.05374 0
M  V30 33 H 3.42728 -0.15567 2.3918 0
M  V30 34 H 5.82083 -0.498643 2.67917 0
M  V30 35 H 7.36513 -0.315022 0.79453 0
M  V30 36 H 6.42205 0.236115 -1.43556 0
M  V30 37 H 3.97868 0.590011 -1.74962 0
M  V30 END ATOM
M  V30 BEGIN BOND
M  V30 1 1 1 2
M  V30 2 1 2 3
M  V30 3 1 3 4
M  V30 4 2 4 5
M  V30 5 1 5 6
M  V30 6 1 6 7
M  V30 7 2 6 8
M  V30 8 1 8 9
M  V30 9 2 9 10
M  V30 10 1 9 11
M  V30 11 1 2 12
M  V30 12 1 12 13
M  V30 13 1 13 14
M  V30 14 2 14 15
M  V30 15 1 15 16
M  V30 16 2 16 17
M  V30 17 1 17 18
M  V30 18 2 18 19
M  V30 19 1 10 4
M  V30 20 1 19 14
M  V30 21 1 1 20
M  V30 22 1 1 21
M  V30 23 1 1 22
M  V30 24 1 2 23
M  V30 25 1 7 24
M  V30 26 1 7 25
M  V30 27 1 8 26
M  V30 28 1 11 27
M  V30 29 1 11 28
M  V30 30 1 12 29
M  V30 31 1 12 30
M  V30 32 1 13 31
M  V30 33 1 13 32
M  V30 34 1 15 33
M  V30 35 1 16 34
M  V30 36 1 17 35
M  V30 37 1 18 36
M  V30 38 1 19 37
M  V30 END BOND
M  V30 END CTAB
M  END
