
     RDKit          3D

  0  0  0  0  0  0  0  0  0  0999 V3000
M  V30 BEGIN CTAB
M  V30 COUNTS 39 41 0 0 0
M  V30 BEGIN ATOM
M  V30 1 N 1.82619 1.33157 2.44769 0
M  V30 2 C 0.887782 1.5802 1.41715 0
M  V30 3 N -0.446748 1.38297 1.66252 0
M  V30 4 C -1.36787 1.63467 0.732287 0
M  V30 5 C -2.82444 1.43716 0.948022 0
M  V30 6 C -3.18836 0.0544797 0.55268 0
M  V30 7 C -3.5716 -0.171657 -0.768378 0
M  V30 8 C -3.91702 -1.42343 -1.18822 0
M  V30 9 C -3.8865 -2.47739 -0.294476 0
M  V30 10 C -3.50975 -2.26742 1.01327 0
M  V30 11 C -3.16563 -1.01114 1.42476 0
M  V30 12 N -0.997317 2.09077 -0.472195 0
M  V30 13 C 0.312709 2.2929 -0.737574 0
M  V30 14 C 1.32065 2.04615 0.194039 0
M  V30 15 N 2.63969 2.28156 -0.148658 0
M  V30 16 N 3.45945 1.45925 -0.489802 0
M  V30 17 C 3.25386 0.0883896 -0.61198 0
M  V30 18 C 2.44584 -0.529391 -1.52258 0
M  V30 19 C 2.35578 -1.90131 -1.53809 0
M  V30 20 C 3.0449 -2.72572 -0.673204 0
M  V30 21 C 3.85193 -2.06924 0.232733 0
M  V30 22 C 3.96834 -0.715085 0.280833 0
M  V30 23 N 0.716907 2.80575 -2.00591 0
M  V30 24 H 2.40994 2.10309 2.79387 0
M  V30 25 H 1.91672 0.386592 2.84035 0
M  V30 26 H -3.40435 2.13476 0.310216 0
M  V30 27 H -3.1038 1.6603 1.99751 0
M  V30 28 H -3.60278 0.642514 -1.48832 0
M  V30 29 H -4.21371 -1.56478 -2.23577 0
M  V30 30 H -4.15874 -3.46807 -0.622345 0
M  V30 31 H -3.48897 -3.11178 1.71505 0
M  V30 32 H -2.87244 -0.856788 2.44908 0
M  V30 33 H 1.88418 0.079994 -2.24374 0
M  V30 34 H 1.70453 -2.36018 -2.27386 0
M  V30 35 H 2.95894 -3.80945 -0.702861 0
M  V30 36 H 4.41486 -2.70889 0.936615 0
M  V30 37 H 4.62874 -0.245583 1.02665 0
M  V30 38 H 0.726035 2.13054 -2.8023 0
M  V30 39 H 0.992033 3.79369 -2.15507 0
M  V30 END ATOM
M  V30 BEGIN BOND
M  V30 1 1 1 2
M  V30 2 2 2 3
M  V30 3 1 3 4
M  V30 4 1 4 5
M  V30 5 1 5 6
M  V30 6 2 6 7
M  V30 7 1 7 8
M  V30 8 2 8 9
M  V30 9 1 9 10
M  V30 10 2 10 11
M  V30 11 2 4 12
M  V30 12 1 12 13
M  V30 13 2 13 14
M  V30 14 1 14 15
M  V30 15 2 15 16
M  V30 16 1 16 17
M  V30 17 2 17 18
M  V30 18 1 18 19
M  V30 19 2 19 20
M  V30 20 1 20 21
M  V30 21 2 21 22
M  V30 22 1 13 23
M  V30 23 1 14 2
M  V30 24 1 22 17
M  V30 25 1 11 6
M  V30 26 1 1 24
M  V30 27 1 1 25
M  V30 28 1 5 26
M  V30 29 1 5 27
M  V30 30 1 7 28
M  V30 31 1 8 29
M  V30 32 1 9 30
M  V30 33 1 10 31
M  V30 34 1 11 32
M  V30 35 1 18 33
M  V30 36 1 19 34
M  V30 37 1 20 35
M  V30 38 1 21 36
M  V30 39 1 22 37
M  V30 40 1 23 38
M  V30 41 1 23 39
M  V30 END BOND
M  V30 END CTAB
M  END
