
     RDKit          3D

  0  0  0  0  0  0  0  0  0  0999 V3000
M  V30 BEGIN CTAB
M  V30 COUNTS 23 22 0 0 0
M  V30 BEGIN ATOM
M  V30 1 C 4.03556 0.794166 -0.390542 0
M  V30 2 C 3.18411 0.237931 0.695737 0
M  V30 3 C 1.95725 -0.169129 0.406796 0
M  V30 4 C 1.12461 -0.721142 1.50327 0
M  V30 5 S -0.378252 0.201497 1.77955 0
M  V30 6 C -1.45981 0.024432 0.356957 0
M  V30 7 N -2.5988 0.617758 0.310735 0
M  V30 8 C -3.41452 0.446217 -0.832732 0
M  V30 9 N -3.00506 0.875524 -1.99626 0
M  V30 10 N -4.68465 -0.18762 -0.739865 0
M  V30 11 N -1.04343 -0.781785 -0.724338 0
M  V30 12 H 4.42065 1.80413 -0.135185 0
M  V30 13 H 4.89516 0.137769 -0.574407 0
M  V30 14 H 3.40839 0.923396 -1.29072 0
M  V30 15 H 3.56166 0.161785 1.72997 0
M  V30 16 H 1.60387 -0.0864605 -0.617579 0
M  V30 17 H 0.818189 -1.74856 1.13511 0
M  V30 18 H 1.74656 -0.857353 2.39087 0
M  V30 19 H -2.08452 1.34046 -2.0793 0
M  V30 20 H -4.80678 -1.2211 -0.668449 0
M  V30 21 H -5.51647 0.472518 -0.748175 0
M  V30 22 H -0.557486 -0.433319 -1.57991 0
M  V30 23 H -1.20624 -1.83112 -0.730836 0
M  V30 END ATOM
M  V30 BEGIN BOND
M  V30 1 1 1 2
M  V30 2 2 2 3 CFG=2
M  V30 3 1 3 4
M  V30 4 1 4 5
M  V30 5 1 5 6
M  V30 6 2 6 7 CFG=2
M  V30 7 1 7 8
M  V30 8 2 8 9 CFG=2
M  V30 9 1 8 10
M  V30 10 1 6 11
M  V30 11 1 1 12
M  V30 12 1 1 13
M  V30 13 1 1 14
M  V30 14 1 2 15
M  V30 15 1 3 16
M  V30 16 1 4 17
M  V30 17 1 4 18
M  V30 18 1 9 19
M  V30 19 1 10 20
M  V30 20 1 10 21
M  V30 21 1 11 22
M  V30 22 1 11 23
M  V30 END BOND
M  V30 END CTAB
M  END
