
     RDKit          3D

  0  0  0  0  0  0  0  0  0  0999 V3000
M  V30 BEGIN CTAB
M  V30 COUNTS 19 19 0 0 0
M  V30 BEGIN ATOM
M  V30 1 C -2.41252 -0.220209 0.501524 0
M  V30 2 C -1.05024 0.29905 0.246008 0
M  V30 3 C -0.0159656 -0.597095 -0.0291035 0
M  V30 4 N -0.261335 -1.98436 -0.0644037 0
M  V30 5 C 1.26015 -0.113513 -0.268664 0
M  V30 6 N 2.32996 -1.01767 -0.551819 0
M  V30 7 C 1.56571 1.22445 -0.249223 0
M  V30 8 Cl 3.18742 1.82644 -0.554424 0
M  V30 9 C 0.518205 2.10344 0.0276079 0
M  V30 10 C -0.749211 1.63592 0.266338 0
M  V30 11 H -3.15676 0.589175 0.342908 0
M  V30 12 H -2.49275 -0.543246 1.55673 0
M  V30 13 H -2.68028 -1.03153 -0.218276 0
M  V30 14 H -0.780702 -2.4284 0.707719 0
M  V30 15 H 0.0711516 -2.56071 -0.851039 0
M  V30 16 H 2.71336 -1.69373 0.131008 0
M  V30 17 H 2.73422 -0.975947 -1.51295 0
M  V30 18 H 0.780841 3.14673 0.0376081 0
M  V30 19 H -1.56124 2.3412 0.482454 0
M  V30 END ATOM
M  V30 BEGIN BOND
M  V30 1 1 1 2
M  V30 2 2 2 3
M  V30 3 1 3 4
M  V30 4 1 3 5
M  V30 5 1 5 6
M  V30 6 2 5 7
M  V30 7 1 7 8
M  V30 8 1 7 9
M  V30 9 2 9 10
M  V30 10 1 10 2
M  V30 11 1 1 11
M  V30 12 1 1 12
M  V30 13 1 1 13
M  V30 14 1 4 14
M  V30 15 1 4 15
M  V30 16 1 6 16
M  V30 17 1 6 17
M  V30 18 1 9 18
M  V30 19 1 10 19
M  V30 END BOND
M  V30 END CTAB
M  END
