
     RDKit          3D

  0  0  0  0  0  0  0  0  0  0999 V3000
M  V30 BEGIN CTAB
M  V30 COUNTS 23 24 0 0 0
M  V30 BEGIN ATOM
M  V30 1 N -2.9534 -1.61005 1.94699 0
M  V30 2 C -2.32866 -0.7432 1.02378 0
M  V30 3 N -0.982028 -0.819951 0.925253 0
M  V30 4 C -0.361819 -0.0167079 0.0644574 0
M  V30 5 N -1.0698 0.84884 -0.686131 0
M  V30 6 C -2.40695 0.940001 -0.602835 0
M  V30 7 N -3.06001 1.87819 -1.43111 0
M  V30 8 N -3.02748 0.133353 0.261309 0
M  V30 9 C 1.08455 -0.0271438 -0.1114 0
M  V30 10 C 1.81478 -0.909626 0.652728 0
M  V30 11 Cl 0.99302 -1.9615 1.78128 0
M  V30 12 C 3.20573 -0.951179 0.514199 0
M  V30 13 C 3.8182 -0.0981693 -0.393992 0
M  V30 14 C 3.10364 0.792842 -1.16842 0
M  V30 15 C 1.7328 0.798211 -0.997304 0
M  V30 16 H -3.63639 -2.30512 1.60493 0
M  V30 17 H -2.73229 -1.55131 2.94734 0
M  V30 18 H -3.47147 1.57623 -2.33329 0
M  V30 19 H -3.13968 2.87294 -1.15726 0
M  V30 20 H 3.78159 -1.63592 1.10592 0
M  V30 21 H 4.89965 -0.131109 -0.501083 0
M  V30 22 H 3.60737 1.44751 -1.86978 0
M  V30 23 H 1.12864 1.47288 -1.57558 0
M  V30 END ATOM
M  V30 BEGIN BOND
M  V30 1 1 1 2
M  V30 2 2 2 3
M  V30 3 1 3 4
M  V30 4 2 4 5
M  V30 5 1 5 6
M  V30 6 1 6 7
M  V30 7 2 6 8
M  V30 8 1 4 9
M  V30 9 2 9 10
M  V30 10 1 10 11
M  V30 11 1 10 12
M  V30 12 2 12 13
M  V30 13 1 13 14
M  V30 14 2 14 15
M  V30 15 1 8 2
M  V30 16 1 15 9
M  V30 17 1 1 16
M  V30 18 1 1 17
M  V30 19 1 7 18
M  V30 20 1 7 19
M  V30 21 1 12 20
M  V30 22 1 13 21
M  V30 23 1 14 22
M  V30 24 1 15 23
M  V30 END BOND
M  V30 END CTAB
M  END
