
     RDKit          3D

  0  0  0  0  0  0  0  0  0  0999 V3000
M  V30 BEGIN CTAB
M  V30 COUNTS 44 46 0 0 0
M  V30 BEGIN ATOM
M  V30 1 O 7.47525 0.104589 -1.16961 0
M  V30 2 C 6.91636 -0.768879 -0.26584 0
M  V30 3 O 7.64674 -1.40543 0.52205 0
M  V30 4 C 5.44067 -0.925843 -0.25921 0
M  V30 5 C 4.82293 -0.113144 0.824268 0
M  V30 6 C 3.35714 -0.168839 0.954199 0
M  V30 7 C 2.56205 0.264822 -0.181929 0
M  V30 8 O 3.09607 0.680219 -1.22311 0
M  V30 9 N 1.15281 0.226865 -0.136574 0
M  V30 10 C 0.200624 0.613504 -1.16529 0
M  V30 11 C -1.08243 -0.0599724 -0.816108 0 CFG=1
M  V30 12 C -0.709407 -1.0548 0.29439 0 CFG=2
M  V30 13 C 0.349204 -0.221702 0.993489 0
M  V30 14 O -0.201724 -2.22883 -0.20769 0
M  V30 15 N -2.05347 0.837416 -0.222187 0
M  V30 16 C -1.98005 2.1214 0.101511 0
M  V30 17 N -3.16753 2.52652 0.64151 0
M  V30 18 C -3.99635 1.47727 0.6548 0
M  V30 19 C -3.2908 0.425161 0.112606 0
M  V30 20 N -3.94583 -0.762773 0.0257633 0
M  V30 21 C -5.20481 -0.932818 0.435102 0
M  V30 22 N -5.7895 -2.22138 0.296037 0
M  V30 23 N -5.87073 0.122372 0.963814 0
M  V30 24 C -5.31318 1.33946 1.09386 0
M  V30 25 N -6.04144 2.42267 1.65392 0
M  V30 26 H 6.95274 0.829838 -1.65789 0
M  V30 27 H 5.2687 -2.02353 -0.0455385 0
M  V30 28 H 5.08386 -0.750292 -1.26881 0
M  V30 29 H 5.25182 -0.489589 1.80062 0
M  V30 30 H 5.20351 0.926108 0.741959 0
M  V30 31 H 3.09946 0.421551 1.88709 0
M  V30 32 H 3.00984 -1.20935 1.23125 0
M  V30 33 H 0.522134 0.259903 -2.16918 0
M  V30 34 H 0.179278 1.70213 -1.20316 0
M  V30 35 H -1.55133 -0.615103 -1.65229 0
M  V30 36 H -1.58356 -1.24215 0.970946 0
M  V30 37 H -0.136869 0.68525 1.40964 0
M  V30 38 H 0.922179 -0.793894 1.72541 0
M  V30 39 H -0.898828 -2.9308 -0.229882 0
M  V30 40 H -1.11882 2.74556 -0.0390273 0
M  V30 41 H -5.52185 -2.94182 1.00661 0
M  V30 42 H -6.45748 -2.48178 -0.460308 0
M  V30 43 H -6.72102 2.94138 1.06235 0
M  V30 44 H -5.87634 2.66872 2.6397 0
M  V30 END ATOM
M  V30 BEGIN BOND
M  V30 1 1 1 2
M  V30 2 2 2 3
M  V30 3 1 2 4
M  V30 4 1 4 5
M  V30 5 1 5 6
M  V30 6 1 6 7
M  V30 7 2 7 8
M  V30 8 1 7 9
M  V30 9 1 9 10
M  V30 10 1 10 11
M  V30 11 1 11 12
M  V30 12 1 12 13
M  V30 13 1 12 14
M  V30 14 1 11 15
M  V30 15 1 15 16
M  V30 16 2 16 17
M  V30 17 1 17 18
M  V30 18 2 18 19
M  V30 19 1 19 20
M  V30 20 2 20 21
M  V30 21 1 21 22
M  V30 22 1 21 23
M  V30 23 2 23 24
M  V30 24 1 24 25
M  V30 25 1 13 9
M  V30 26 1 19 15
M  V30 27 1 24 18
M  V30 28 1 1 26
M  V30 29 1 4 27
M  V30 30 1 4 28
M  V30 31 1 5 29
M  V30 32 1 5 30
M  V30 33 1 6 31
M  V30 34 1 6 32
M  V30 35 1 10 33
M  V30 36 1 10 34
M  V30 37 1 11 35 CFG=3
M  V30 38 1 12 36 CFG=1
M  V30 39 1 13 37
M  V30 40 1 13 38
M  V30 41 1 14 39
M  V30 42 1 16 40
M  V30 43 1 22 41
M  V30 44 1 22 42
M  V30 45 1 25 43
M  V30 46 1 25 44
M  V30 END BOND
M  V30 END CTAB
M  END
