
     RDKit          3D

  0  0  0  0  0  0  0  0  0  0999 V3000
M  V30 BEGIN CTAB
M  V30 COUNTS 25 25 0 0 0
M  V30 BEGIN ATOM
M  V30 1 N 0.574616 2.08338 0.0749629 0
M  V30 2 C -0.109452 0.927186 -0.430295 0
M  V30 3 C -1.5556 0.968856 -0.0284255 0
M  V30 4 C -2.16204 -0.368077 0.118354 0
M  V30 5 C -1.52975 -1.50285 -0.591166 0
M  V30 6 C -0.0270489 -1.55762 -0.455975 0
M  V30 7 C 0.507926 -0.297483 0.199787 0
M  V30 8 C 1.96044 -0.252779 0.306952 0
M  V30 9 N 2.68801 -1.15172 -0.243549 0
M  V30 10 N 2.62881 0.774069 1.02152 0
M  V30 11 H 1.13464 2.58981 -0.624204 0
M  V30 12 H -0.000794823 2.68204 0.695269 0
M  V30 13 H -0.0674345 0.83322 -1.53114 0
M  V30 14 H -2.0702 1.62539 -0.776536 0
M  V30 15 H -1.58161 1.53672 0.949334 0
M  V30 16 H -2.26915 -0.593439 1.2193 0
M  V30 17 H -3.23253 -0.310689 -0.239717 0
M  V30 18 H -1.83347 -1.5824 -1.65289 0
M  V30 19 H -1.91092 -2.45286 -0.111615 0
M  V30 20 H 0.383967 -1.58745 -1.4854 0
M  V30 21 H 0.344189 -2.46302 0.0607899 0
M  V30 22 H 0.102752 -0.327208 1.25544 0
M  V30 23 H 2.24076 -1.91992 -0.771096 0
M  V30 24 H 3.19305 1.46521 0.486896 0
M  V30 25 H 2.59082 0.881616 2.05535 0
M  V30 END ATOM
M  V30 BEGIN BOND
M  V30 1 1 1 2
M  V30 2 1 2 3
M  V30 3 1 3 4
M  V30 4 1 4 5
M  V30 5 1 5 6
M  V30 6 1 6 7
M  V30 7 1 7 8
M  V30 8 2 8 9 CFG=2
M  V30 9 1 8 10
M  V30 10 1 7 2
M  V30 11 1 1 11
M  V30 12 1 1 12
M  V30 13 1 2 13
M  V30 14 1 3 14
M  V30 15 1 3 15
M  V30 16 1 4 16
M  V30 17 1 4 17
M  V30 18 1 5 18
M  V30 19 1 5 19
M  V30 20 1 6 20
M  V30 21 1 6 21
M  V30 22 1 7 22
M  V30 23 1 9 23
M  V30 24 1 10 24
M  V30 25 1 10 25
M  V30 END BOND
M  V30 END CTAB
M  END
