
     RDKit          3D

  0  0  0  0  0  0  0  0  0  0999 V3000
M  V30 BEGIN CTAB
M  V30 COUNTS 40 42 0 0 0
M  V30 BEGIN ATOM
M  V30 1 N 4.40767 1.53036 -0.216427 0
M  V30 2 C 4.44861 0.135826 -0.197259 0
M  V30 3 C 5.66703 -0.455713 -0.525005 0
M  V30 4 C 5.78312 -1.81985 -0.55904 0
M  V30 5 C 4.67262 -2.58671 -0.264644 0
M  V30 6 C 3.47356 -1.98209 0.058312 0
M  V30 7 C 3.33959 -0.586838 0.0975735 0
M  V30 8 C 2.07725 -0.0472062 0.536953 0
M  V30 9 C 1.50481 1.1188 -0.188558 0
M  V30 10 C 0.110765 1.3003 0.351529 0
M  V30 11 O -0.252631 1.97511 1.37616 0
M  V30 12 N -1.5701 1.90633 1.54941 0
M  V30 13 C -2.0306 1.1467 0.573192 0
M  V30 14 N -0.998937 0.758894 -0.183543 0
M  V30 15 C -3.4484 0.763432 0.325073 0
M  V30 16 N -4.21697 1.9877 0.248711 0
M  V30 17 C -3.52647 0.0246076 -1.01778 0
M  V30 18 C -4.7894 -0.775563 -0.829301 0
M  V30 19 C -4.64173 -1.34183 0.56478 0
M  V30 20 C -3.97822 -0.212996 1.33065 0
M  V30 21 H 4.44877 2.07032 0.667772 0
M  V30 22 H 4.34035 2.03983 -1.11928 0
M  V30 23 H 6.53535 0.162088 -0.766253 0
M  V30 24 H 6.70538 -2.31488 -0.805095 0
M  V30 25 H 4.78146 -3.66724 -0.288282 0
M  V30 26 H 2.64322 -2.6354 0.285869 0
M  V30 27 H 1.29014 -0.884511 0.401308 0
M  V30 28 H 2.05716 0.157816 1.6341 0
M  V30 29 H 1.46018 1.05688 -1.26899 0
M  V30 30 H 2.00675 2.0937 0.150807 0
M  V30 31 H -3.83917 2.48643 -0.615765 0
M  V30 32 H -3.91656 2.55102 1.09937 0
M  V30 33 H -3.62938 0.720865 -1.84789 0
M  V30 34 H -2.69193 -0.700675 -1.11287 0
M  V30 35 H -4.88054 -1.60309 -1.56516 0
M  V30 36 H -5.6882 -0.141121 -0.809474 0
M  V30 37 H -3.98918 -2.26954 0.532394 0
M  V30 38 H -5.61673 -1.64145 0.951458 0
M  V30 39 H -4.80343 0.321159 1.8808 0
M  V30 40 H -3.24522 -0.641462 2.01169 0
M  V30 END ATOM
M  V30 BEGIN BOND
M  V30 1 1 1 2
M  V30 2 2 2 3
M  V30 3 1 3 4
M  V30 4 2 4 5
M  V30 5 1 5 6
M  V30 6 2 6 7
M  V30 7 1 7 8
M  V30 8 1 8 9
M  V30 9 1 9 10
M  V30 10 1 10 11
M  V30 11 1 11 12
M  V30 12 2 12 13
M  V30 13 1 13 14
M  V30 14 1 13 15
M  V30 15 1 15 16
M  V30 16 1 15 17
M  V30 17 1 17 18
M  V30 18 1 18 19
M  V30 19 1 19 20
M  V30 20 1 7 2
M  V30 21 2 14 10
M  V30 22 1 20 15
M  V30 23 1 1 21
M  V30 24 1 1 22
M  V30 25 1 3 23
M  V30 26 1 4 24
M  V30 27 1 5 25
M  V30 28 1 6 26
M  V30 29 1 8 27
M  V30 30 1 8 28
M  V30 31 1 9 29
M  V30 32 1 9 30
M  V30 33 1 16 31
M  V30 34 1 16 32
M  V30 35 1 17 33
M  V30 36 1 17 34
M  V30 37 1 18 35
M  V30 38 1 18 36
M  V30 39 1 19 37
M  V30 40 1 19 38
M  V30 41 1 20 39
M  V30 42 1 20 40
M  V30 END BOND
M  V30 END CTAB
M  END
