
     RDKit          3D

  0  0  0  0  0  0  0  0  0  0999 V3000
M  V30 BEGIN CTAB
M  V30 COUNTS 29 28 0 0 0
M  V30 BEGIN ATOM
M  V30 1 N 4.40849 -0.614088 -0.177301 0
M  V30 2 C 3.35724 0.25849 0.348234 0
M  V30 3 C 2.28078 0.408193 -0.708092 0
M  V30 4 C 1.15939 1.28497 -0.263667 0
M  V30 5 C 0.415239 0.815309 0.928187 0
M  V30 6 C -0.302245 -0.467695 0.844827 0
M  V30 7 C -1.42496 -0.577717 -0.130918 0
M  V30 8 N -2.50132 0.344801 0.161364 0
M  V30 9 C -3.72891 0.280312 -0.508132 0
M  V30 10 N -4.90803 0.825093 0.0842213 0
M  V30 11 N -3.87878 -0.270083 -1.67773 0
M  V30 12 H 4.63476 -0.372956 -1.16716 0
M  V30 13 H 5.30828 -0.424687 0.364362 0
M  V30 14 H 3.86229 1.25219 0.52684 0
M  V30 15 H 2.99552 -0.187006 1.28686 0
M  V30 16 H 1.94061 -0.605952 -0.962603 0
M  V30 17 H 2.74896 0.837824 -1.60363 0
M  V30 18 H 1.61368 2.27949 0.0345238 0
M  V30 19 H 0.524295 1.53914 -1.13058 0
M  V30 20 H -0.240529 1.64956 1.31823 0
M  V30 21 H 1.1699 0.704584 1.7707 0
M  V30 22 H -0.765135 -0.649395 1.86063 0
M  V30 23 H 0.413136 -1.30743 0.707629 0
M  V30 24 H -1.08411 -0.471913 -1.19134 0
M  V30 25 H -1.85829 -1.60259 -0.0445794 0
M  V30 26 H -2.34043 1.06757 0.887371 0
M  V30 27 H -5.77118 0.997022 -0.446062 0
M  V30 28 H -4.90512 1.06091 1.09489 0
M  V30 29 H -3.12351 -0.704339 -2.20706 0
M  V30 END ATOM
M  V30 BEGIN BOND
M  V30 1 1 1 2
M  V30 2 1 2 3
M  V30 3 1 3 4
M  V30 4 1 4 5
M  V30 5 1 5 6
M  V30 6 1 6 7
M  V30 7 1 7 8
M  V30 8 1 8 9
M  V30 9 1 9 10
M  V30 10 2 9 11 CFG=2
M  V30 11 1 1 12
M  V30 12 1 1 13
M  V30 13 1 2 14
M  V30 14 1 2 15
M  V30 15 1 3 16
M  V30 16 1 3 17
M  V30 17 1 4 18
M  V30 18 1 4 19
M  V30 19 1 5 20
M  V30 20 1 5 21
M  V30 21 1 6 22
M  V30 22 1 6 23
M  V30 23 1 7 24
M  V30 24 1 7 25
M  V30 25 1 8 26
M  V30 26 1 10 27
M  V30 27 1 10 28
M  V30 28 1 11 29
M  V30 END BOND
M  V30 END CTAB
M  END
