
     RDKit          3D

  0  0  0  0  0  0  0  0  0  0999 V3000
M  V30 BEGIN CTAB
M  V30 COUNTS 25 25 0 0 0
M  V30 BEGIN ATOM
M  V30 1 Cl -4.91362 -2.20321 -1.52375 0
M  V30 2 C -3.66286 -1.1405 -0.887177 0
M  V30 3 C -2.3526 -1.51273 -1.08648 0
M  V30 4 C -1.37646 -0.674426 -0.584471 0
M  V30 5 N -0.0047945 -0.974881 -0.741159 0
M  V30 6 C 1.02531 -0.111728 -0.22395 0
M  V30 7 C 2.40497 -0.611763 -0.496943 0
M  V30 8 S 3.56591 0.542102 0.191481 0
M  V30 9 O 3.42394 1.89898 -0.423263 0
M  V30 10 O 4.99024 0.0888932 -0.0273969 0
M  V30 11 N 3.35097 0.705652 1.89677 0
M  V30 12 N -1.71947 0.457156 0.0707027 0
M  V30 13 C -2.99199 0.815377 0.262358 0
M  V30 14 N -3.96439 -0.00795522 -0.230881 0
M  V30 15 N -3.37551 1.9959 0.945549 0
M  V30 16 H -2.08117 -2.43046 -1.61792 0
M  V30 17 H 0.257064 -1.83867 -1.24133 0
M  V30 18 H 0.956271 0.921594 -0.658671 0
M  V30 19 H 0.91058 0.0257571 0.87459 0
M  V30 20 H 2.62588 -0.738177 -1.56119 0
M  V30 21 H 2.57044 -1.58772 2.98382e-06 0
M  V30 22 H 3.67831 1.61273 2.26051 0
M  V30 23 H 3.68084 -0.118484 2.41403 0
M  V30 24 H -2.70624 2.78569 0.973186 0
M  V30 25 H -4.29163 2.10086 1.41541 0
M  V30 END ATOM
M  V30 BEGIN BOND
M  V30 1 1 1 2
M  V30 2 2 2 3
M  V30 3 1 3 4
M  V30 4 1 4 5
M  V30 5 1 5 6
M  V30 6 1 6 7
M  V30 7 1 7 8
M  V30 8 2 8 9
M  V30 9 2 8 10
M  V30 10 1 8 11
M  V30 11 2 4 12
M  V30 12 1 12 13
M  V30 13 2 13 14
M  V30 14 1 13 15
M  V30 15 1 14 2
M  V30 16 1 3 16
M  V30 17 1 5 17
M  V30 18 1 6 18
M  V30 19 1 6 19
M  V30 20 1 7 20
M  V30 21 1 7 21
M  V30 22 1 11 22
M  V30 23 1 11 23
M  V30 24 1 15 24
M  V30 25 1 15 25
M  V30 END BOND
M  V30 END CTAB
M  END
