
     RDKit          3D

  0  0  0  0  0  0  0  0  0  0999 V3000
M  V30 BEGIN CTAB
M  V30 COUNTS 137 143 0 0 0
M  V30 BEGIN ATOM
M  V30 1 C 10.3753 -6.05616 -1.0948 0
M  V30 2 O 10.3836 -4.65607 -1.06707 0
M  V30 3 C 11.4468 -3.89417 -1.53568 0
M  V30 4 C 11.3469 -2.50282 -1.46069 0
M  V30 5 C 10.1568 -1.87976 -0.894836 0
M  V30 6 O 9.22131 -2.59627 -0.480977 0
M  V30 7 C 10.0642 -0.412826 -0.812378 0
M  V30 8 C 11.057 0.410426 -1.24651 0
M  V30 9 C 12.2522 -0.201678 -1.81452 0
M  V30 10 O 13.1819 0.541608 -2.21652 0
M  V30 11 C 12.3497 -1.6776 -1.90019 0
M  V30 12 C 13.4722 -2.27158 -2.42455 0
M  V30 13 C 13.6094 -3.64535 -2.51647 0
M  V30 14 C 12.5794 -4.46921 -2.06372 0
M  V30 15 C 10.9572 1.80735 -1.1557 0
M  V30 16 O 12.0043 2.60063 -1.61277 0
M  V30 17 C 9.84009 2.36028 -0.618655 0
M  V30 18 C 9.59734 3.82742 -0.447084 0
M  V30 19 C 9.36837 3.97247 1.06878 0 CFG=2
M  V30 20 O 10.5439 3.41351 1.63396 0
M  V30 21 C 8.23147 3.14913 1.54647 0
M  V30 22 C 7.6588 2.26497 0.412073 0 CFG=2
M  V30 23 O 6.59207 1.57092 0.902173 0
M  V30 24 C 5.34064 1.99998 0.476958 0 CFG=1
M  V30 25 C 4.43398 0.928863 0.0107697 0
M  V30 26 C 4.10124 -0.0509719 1.176 0 CFG=2
M  V30 27 N 3.15802 -0.945537 0.866969 0
M  V30 28 C 2.20291 -1.90147 0.45892 0
M  V30 29 O 2.11513 -2.43614 -0.640954 0
M  V30 30 O 1.2757 -2.25958 1.45626 0
M  V30 31 C 0.228103 -3.12912 1.2974 0
M  V30 32 C -0.893286 -2.59327 0.490597 0
M  V30 33 C -1.97093 -3.37761 0.144412 0
M  V30 34 C -3.07121 -2.77272 -0.43397 0
M  V30 35 C -3.14139 -1.43014 -0.680287 0
M  V30 36 N -4.31988 -0.732106 -1.09532 0
M  V30 37 C -5.62036 -1.14908 -0.714018 0
M  V30 38 O -5.79529 -2.17516 -0.0225769 0
M  V30 39 C -6.81976 -0.339629 -1.13116 0 CFG=2
M  V30 40 C -6.61344 1.02709 -0.418345 0
M  V30 41 C -7.71605 1.98088 -0.696198 0
M  V30 42 C -7.40244 3.26932 0.0459632 0
M  V30 43 C -7.31463 3.05548 1.53412 0
M  V30 44 N -8.5944 2.5602 1.99391 0
M  V30 45 N -8.05536 -0.866481 -0.655344 0
M  V30 46 C -9.29556 -0.801654 -1.36035 0
M  V30 47 O -9.32261 -0.26551 -2.48559 0
M  V30 48 C -10.5681 -1.34294 -0.80338 0 CFG=2
M  V30 49 C -10.7199 -2.76677 -1.27388 0
M  V30 50 C -11.9379 -3.40742 -0.77114 0
M  V30 51 C -13.1184 -3.36421 -1.44348 0
M  V30 52 C -14.2804 -3.98109 -0.938613 0
M  V30 53 C -14.2279 -4.63565 0.244355 0
M  V30 54 C -13.0311 -4.70421 0.971103 0
M  V30 55 C -11.9139 -4.09855 0.46404 0
M  V30 56 N -11.6672 -0.484753 -1.27332 0
M  V30 57 C -12.3845 0.341057 -0.404582 0
M  V30 58 O -12.1543 0.408609 0.826954 0
M  V30 59 C -13.4845 1.20442 -0.935899 0 CFG=1
M  V30 60 C -14.5635 0.411415 -1.61972 0
M  V30 61 N -14.0731 1.994 0.134145 0
M  V30 62 C -2.01853 -0.649672 -0.327251 0
M  V30 63 C -0.921979 -1.22418 0.246943 0
M  V30 64 C 3.59241 0.81957 2.34505 0 CFG=2
M  V30 65 O 2.47416 1.50001 1.83687 0
M  V30 66 C 4.61877 1.85274 2.65218 0 CFG=2
M  V30 67 C 4.02008 2.74909 3.75985 0
M  V30 68 O 4.72207 2.71701 1.55226 0
M  V30 69 C 8.7908 1.54192 -0.158433 0
M  V30 70 C 8.91037 0.161788 -0.258333 0
M  V30 71 O 7.94719 -0.715511 0.159444 0
M  V30 72 C 9.25168 5.37325 1.47764 0
M  V30 73 O 8.31754 6.03291 0.999949 0
M  V30 74 C 10.1505 6.07616 2.4134 0
M  V30 75 O 11.1069 5.24478 2.93643 0
M  V30 76 H 10.7829 -6.50852 -1.99244 0
M  V30 77 H 10.9826 -6.41109 -0.245447 0
M  V30 78 H 9.34524 -6.41209 -0.952976 0
M  V30 79 H 14.2588 -1.59072 -2.76631 0
M  V30 80 H 14.5034 -4.09294 -2.92585 0
M  V30 81 H 12.6161 -5.54716 -2.10428 0
M  V30 82 H 11.9613 3.59161 -1.55885 0
M  V30 83 H 10.4649 4.45265 -0.672303 0
M  V30 84 H 8.75807 4.21389 -1.03621 0
M  V30 85 H 11.2925 3.69231 1.04818 0
M  V30 86 H 8.50658 2.44163 2.3492 0
M  V30 87 H 7.39384 3.77736 1.95718 0
M  V30 88 H 7.30331 3.03285 -0.328019 0
M  V30 89 H 5.48803 2.77492 -0.285065 0
M  V30 90 H 3.474 1.2852 -0.39415 0
M  V30 91 H 4.91747 0.30571 -0.758772 0
M  V30 92 H 5.09456 -0.473427 1.5013 0
M  V30 93 H 3.89349 -1.24832 -0.288506 0
M  V30 94 H 0.546933 -4.13066 0.909784 0
M  V30 95 H -0.165753 -3.35863 2.33386 0
M  V30 96 H -1.96647 -4.45809 0.320551 0
M  V30 97 H -3.9082 -3.42081 -0.715231 0
M  V30 98 H -4.20603 0.0994039 -1.69655 0
M  V30 99 H -6.80919 -0.0925601 -2.18933 0
M  V30 100 H -6.54509 0.809154 0.647537 0
M  V30 101 H -5.65331 1.45855 -0.772584 0
M  V30 102 H -7.84318 2.21538 -1.75693 0
M  V30 103 H -8.65958 1.54208 -0.289234 0
M  V30 104 H -8.17607 4.02709 -0.15866 0
M  V30 105 H -6.42335 3.62513 -0.347913 0
M  V30 106 H -7.15285 4.04622 2.00572 0
M  V30 107 H -6.49259 2.41044 1.85981 0
M  V30 108 H -8.48975 1.5351 2.19654 0
M  V30 109 H -9.33257 2.66333 1.27743 0
M  V30 110 H -8.09169 -1.33765 0.276399 0
M  V30 111 H -10.5022 -1.28056 0.297474 0
M  V30 112 H -10.7321 -2.70761 -2.39743 0
M  V30 113 H -9.79346 -3.3107 -0.961552 0
M  V30 114 H -13.2013 -2.83691 -2.409 0
M  V30 115 H -15.2128 -3.93583 -1.47966 0
M  V30 116 H -15.06 -5.1398 0.723299 0
M  V30 117 H -13.011 -5.22709 1.91961 0
M  V30 118 H -10.9859 -4.15038 1.01505 0
M  V30 119 H -11.8912 -0.515595 -2.28675 0
M  V30 120 H -13.0084 1.86647 -1.71209 0
M  V30 121 H -14.5031 0.484321 -2.70877 0
M  V30 122 H -14.5527 -0.602683 -1.20019 0
M  V30 123 H -15.5486 0.901202 -1.35255 0
M  V30 124 H -14.7671 1.45216 0.681738 0
M  V30 125 H -14.4625 2.89531 -0.25301 0
M  V30 126 H -2.08794 0.408644 -0.539259 0
M  V30 127 H -0.0875788 -0.572177 0.497027 0
M  V30 128 H 3.33052 0.168927 3.18219 0
M  V30 129 H 2.74997 2.27365 1.29306 0
M  V30 130 H 5.59675 1.47701 2.99017 0
M  V30 131 H 4.48091 3.7593 3.75079 0
M  V30 132 H 2.94151 2.91927 3.56716 0
M  V30 133 H 4.15026 2.28814 4.73123 0
M  V30 134 H 7.09604 -0.681208 0.557755 0
M  V30 135 H 10.6696 6.87399 1.7856 0
M  V30 136 H 9.56071 6.65491 3.1457 0
M  V30 137 H 11.1267 5.31526 3.94011 0
M  V30 END ATOM
M  V30 BEGIN BOND
M  V30 1 1 1 2
M  V30 2 1 2 3
M  V30 3 2 3 4
M  V30 4 1 4 5
M  V30 5 2 5 6
M  V30 6 1 5 7
M  V30 7 2 7 8
M  V30 8 1 8 9
M  V30 9 2 9 10
M  V30 10 1 9 11
M  V30 11 2 11 12
M  V30 12 1 12 13
M  V30 13 2 13 14
M  V30 14 1 8 15
M  V30 15 1 15 16
M  V30 16 2 15 17
M  V30 17 1 17 18
M  V30 18 1 18 19
M  V30 19 1 19 20 CFG=1
M  V30 20 1 19 21
M  V30 21 1 21 22
M  V30 22 1 22 23
M  V30 23 1 23 24
M  V30 24 1 24 25
M  V30 25 1 25 26
M  V30 26 1 26 27
M  V30 27 1 27 28
M  V30 28 2 28 29
M  V30 29 1 28 30
M  V30 30 1 30 31
M  V30 31 1 31 32
M  V30 32 2 32 33
M  V30 33 1 33 34
M  V30 34 2 34 35
M  V30 35 1 35 36
M  V30 36 1 36 37
M  V30 37 2 37 38
M  V30 38 1 37 39
M  V30 39 1 39 40
M  V30 40 1 40 41
M  V30 41 1 41 42
M  V30 42 1 42 43
M  V30 43 1 43 44
M  V30 44 1 39 45
M  V30 45 1 45 46
M  V30 46 2 46 47
M  V30 47 1 46 48
M  V30 48 1 48 49
M  V30 49 1 49 50
M  V30 50 2 50 51
M  V30 51 1 51 52
M  V30 52 2 52 53
M  V30 53 1 53 54
M  V30 54 2 54 55
M  V30 55 1 48 56
M  V30 56 1 56 57
M  V30 57 2 57 58
M  V30 58 1 57 59
M  V30 59 1 59 60
M  V30 60 1 59 61
M  V30 61 1 35 62
M  V30 62 2 62 63
M  V30 63 1 26 64
M  V30 64 1 64 65
M  V30 65 1 64 66
M  V30 66 1 66 67
M  V30 67 1 66 68
M  V30 68 1 22 69
M  V30 69 2 69 70
M  V30 70 1 70 71
M  V30 71 1 19 72
M  V30 72 2 72 73
M  V30 73 1 72 74
M  V30 74 1 74 75
M  V30 75 1 14 3
M  V30 76 1 69 17
M  V30 77 1 11 4
M  V30 78 1 68 24
M  V30 79 1 70 7
M  V30 80 1 63 32
M  V30 81 1 55 50
M  V30 82 1 1 76
M  V30 83 1 1 77
M  V30 84 1 1 78
M  V30 85 1 12 79
M  V30 86 1 13 80
M  V30 87 1 14 81
M  V30 88 1 16 82
M  V30 89 1 18 83
M  V30 90 1 18 84
M  V30 91 1 20 85
M  V30 92 1 21 86
M  V30 93 1 21 87
M  V30 94 1 22 88 CFG=3
M  V30 95 1 24 89 CFG=3
M  V30 96 1 25 90
M  V30 97 1 25 91
M  V30 98 1 26 92 CFG=1
M  V30 99 1 27 93
M  V30 100 1 31 94
M  V30 101 1 31 95
M  V30 102 1 33 96
M  V30 103 1 34 97
M  V30 104 1 36 98
M  V30 105 1 39 99 CFG=3
M  V30 106 1 40 100
M  V30 107 1 40 101
M  V30 108 1 41 102
M  V30 109 1 41 103
M  V30 110 1 42 104
M  V30 111 1 42 105
M  V30 112 1 43 106
M  V30 113 1 43 107
M  V30 114 1 44 108
M  V30 115 1 44 109
M  V30 116 1 45 110
M  V30 117 1 48 111 CFG=1
M  V30 118 1 49 112
M  V30 119 1 49 113
M  V30 120 1 51 114
M  V30 121 1 52 115
M  V30 122 1 53 116
M  V30 123 1 54 117
M  V30 124 1 55 118
M  V30 125 1 56 119
M  V30 126 1 59 120 CFG=3
M  V30 127 1 60 121
M  V30 128 1 60 122
M  V30 129 1 60 123
M  V30 130 1 61 124
M  V30 131 1 61 125
M  V30 132 1 62 126
M  V30 133 1 63 127
M  V30 134 1 64 128 CFG=1
M  V30 135 1 65 129
M  V30 136 1 66 130 CFG=1
M  V30 137 1 67 131
M  V30 138 1 67 132
M  V30 139 1 67 133
M  V30 140 1 71 134
M  V30 141 1 74 135
M  V30 142 1 74 136
M  V30 143 1 75 137
M  V30 END BOND
M  V30 END CTAB
M  END
