
     RDKit          3D

  0  0  0  0  0  0  0  0  0  0999 V3000
M  V30 BEGIN CTAB
M  V30 COUNTS 40 39 0 0 0
M  V30 BEGIN ATOM
M  V30 1 N 6.06704 1.18973 0.142707 0
M  V30 2 C 5.50036 -0.027257 0.608335 0
M  V30 3 C 4.07312 0.042868 1.07419 0
M  V30 4 C 3.09772 0.503782 0.0519963 0
M  V30 5 N 1.77108 0.516589 0.621347 0
M  V30 6 C 1.21341 -0.799486 0.864501 0
M  V30 7 C 0.884428 -1.50145 -0.408718 0
M  V30 8 C -0.137481 -0.897379 -1.28181 0
M  V30 9 C -1.51526 -0.763057 -0.734642 0
M  V30 10 N -2.45335 -0.174819 -1.6651 0
M  V30 11 C -3.78827 -0.114395 -1.12592 0
M  V30 12 C -3.91993 0.858113 -0.0134585 0
M  V30 13 C -5.37519 0.822771 0.477515 0
M  V30 14 N -5.63325 -0.523571 0.937071 0
M  V30 15 H 6.76462 1.09045 -0.61614 0
M  V30 16 H 5.45662 2.00357 0.0628892 0
M  V30 17 H 6.11724 -0.35926 1.49711 0
M  V30 18 H 5.64044 -0.818309 -0.155133 0
M  V30 19 H 4.0216 0.720254 1.95287 0
M  V30 20 H 3.80307 -0.962324 1.43799 0
M  V30 21 H 3.17906 -0.138096 -0.866264 0
M  V30 22 H 3.31935 1.56854 -0.230095 0
M  V30 23 H 1.09674 1.04796 0.0301173 0
M  V30 24 H 0.341234 -0.601069 1.51983 0
M  V30 25 H 1.91862 -1.33853 1.50776 0
M  V30 26 H 1.82573 -1.62727 -0.97261 0
M  V30 27 H 0.585244 -2.53629 -0.135166 0
M  V30 28 H 0.192922 0.13196 -1.55978 0
M  V30 29 H -0.205639 -1.43034 -2.24159 0
M  V30 30 H -1.95737 -1.78966 -0.523701 0
M  V30 31 H -1.61398 -0.21014 0.191928 0
M  V30 32 H -2.14858 0.778859 -1.95824 0
M  V30 33 H -4.13836 -1.12941 -0.808471 0
M  V30 34 H -4.45973 0.218071 -1.95496 0
M  V30 35 H -3.31824 0.588341 0.852499 0
M  V30 36 H -3.68048 1.86556 -0.415072 0
M  V30 37 H -5.53173 1.58245 1.26369 0
M  V30 38 H -6.03834 1.02615 -0.37362 0
M  V30 39 H -4.7471 -1.04893 1.13495 0
M  V30 40 H -6.20738 -0.437376 1.8112 0
M  V30 END ATOM
M  V30 BEGIN BOND
M  V30 1 1 1 2
M  V30 2 1 2 3
M  V30 3 1 3 4
M  V30 4 1 4 5
M  V30 5 1 5 6
M  V30 6 1 6 7
M  V30 7 1 7 8
M  V30 8 1 8 9
M  V30 9 1 9 10
M  V30 10 1 10 11
M  V30 11 1 11 12
M  V30 12 1 12 13
M  V30 13 1 13 14
M  V30 14 1 1 15
M  V30 15 1 1 16
M  V30 16 1 2 17
M  V30 17 1 2 18
M  V30 18 1 3 19
M  V30 19 1 3 20
M  V30 20 1 4 21
M  V30 21 1 4 22
M  V30 22 1 5 23
M  V30 23 1 6 24
M  V30 24 1 6 25
M  V30 25 1 7 26
M  V30 26 1 7 27
M  V30 27 1 8 28
M  V30 28 1 8 29
M  V30 29 1 9 30
M  V30 30 1 9 31
M  V30 31 1 10 32
M  V30 32 1 11 33
M  V30 33 1 11 34
M  V30 34 1 12 35
M  V30 35 1 12 36
M  V30 36 1 13 37
M  V30 37 1 13 38
M  V30 38 1 14 39
M  V30 39 1 14 40
M  V30 END BOND
M  V30 END CTAB
M  END
