
     RDKit          3D

  0  0  0  0  0  0  0  0  0  0999 V3000
M  V30 BEGIN CTAB
M  V30 COUNTS 28 28 0 0 0
M  V30 BEGIN ATOM
M  V30 1 N -2.82398 1.38531 -1.01332 0
M  V30 2 C -2.72866 0.0808849 -0.434849 0
M  V30 3 C -1.43044 -0.115973 0.328453 0
M  V30 4 C -0.289472 0.063189 -0.592766 0
M  V30 5 O -0.532322 0.334101 -1.79353 0
M  V30 6 C 1.09783 -0.0594477 -0.173952 0
M  V30 7 C 1.43286 -0.355417 1.13096 0
M  V30 8 C 2.74762 -0.474776 1.54196 0
M  V30 9 O 3.02314 -0.774279 2.86866 0
M  V30 10 C 3.77405 -0.300968 0.656151 0
M  V30 11 C 3.46983 -0.00236682 -0.663661 0
M  V30 12 C 2.13491 0.115329 -1.06517 0
M  V30 13 N 1.80564 0.420142 -2.41048 0
M  V30 14 C -3.84978 -0.112975 0.508956 0
M  V30 15 O -3.94966 -1.31195 1.18258 0
M  V30 16 O -4.68103 0.806015 0.678555 0
M  V30 17 H -2.04764 2.02433 -0.758608 0
M  V30 18 H -3.72775 1.85757 -0.891756 0
M  V30 19 H -2.76999 -0.705712 -1.23496 0
M  V30 20 H -1.43946 0.677932 1.12882 0
M  V30 21 H -1.4148 -1.09004 0.835695 0
M  V30 22 H 0.609047 -0.4927 1.83191 0
M  V30 23 H 3.93668 -0.877026 3.24378 0
M  V30 24 H 4.78328 -0.394661 0.981001 0
M  V30 25 H 4.27592 0.13982 -1.38504 0
M  V30 26 H 1.59846 -0.372408 -3.05245 0
M  V30 27 H 1.78955 1.42451 -2.68185 0
M  V30 28 H -4.79383 -1.88844 1.09921 0
M  V30 END ATOM
M  V30 BEGIN BOND
M  V30 1 1 1 2
M  V30 2 1 2 3
M  V30 3 1 3 4
M  V30 4 2 4 5
M  V30 5 1 4 6
M  V30 6 2 6 7
M  V30 7 1 7 8
M  V30 8 1 8 9
M  V30 9 2 8 10
M  V30 10 1 10 11
M  V30 11 2 11 12
M  V30 12 1 12 13
M  V30 13 1 2 14
M  V30 14 1 14 15
M  V30 15 2 14 16
M  V30 16 1 12 6
M  V30 17 1 1 17
M  V30 18 1 1 18
M  V30 19 1 2 19
M  V30 20 1 3 20
M  V30 21 1 3 21
M  V30 22 1 7 22
M  V30 23 1 9 23
M  V30 24 1 10 24
M  V30 25 1 11 25
M  V30 26 1 13 26
M  V30 27 1 13 27
M  V30 28 1 15 28
M  V30 END BOND
M  V30 END CTAB
M  END
