
     RDKit          3D

  0  0  0  0  0  0  0  0  0  0999 V3000
M  V30 BEGIN CTAB
M  V30 COUNTS 24 25 0 0 0
M  V30 BEGIN ATOM
M  V30 1 N 3.73252 0.288763 0.477369 0
M  V30 2 C 3.03567 0.115662 -0.782544 0
M  V30 3 C 1.57117 -0.0419086 -0.475558 0
M  V30 4 C 1.02153 -1.27993 -0.249331 0
M  V30 5 C -0.320258 -1.37045 0.0268716 0
M  V30 6 N -0.954797 -2.62385 0.271481 0
M  V30 7 C -1.12064 -0.256103 0.0816098 0
M  V30 8 C -0.510167 0.95872 -0.154572 0
M  V30 9 N 0.799295 1.0456 -0.423983 0
M  V30 10 C -1.31641 2.09805 -0.101 0
M  V30 11 C -2.65042 1.98568 0.175724 0
M  V30 12 C -3.25612 0.768438 0.411181 0
M  V30 13 C -2.46435 -0.36332 0.359784 0
M  V30 14 H 3.17549 0.812896 1.17456 0
M  V30 15 H 4.68333 0.671612 0.309517 0
M  V30 16 H 3.1934 1.03853 -1.37198 0
M  V30 17 H 3.35766 -0.779454 -1.32794 0
M  V30 18 H 1.63634 -2.17165 -0.288008 0
M  V30 19 H -0.484454 -3.2563 0.955346 0
M  V30 20 H -1.82122 -2.95398 -0.159856 0
M  V30 21 H -0.824481 3.04066 -0.2879 0
M  V30 22 H -3.27942 2.87259 0.21769 0
M  V30 23 H -4.30784 0.739911 0.623684 0
M  V30 24 H -2.89584 -1.34017 0.537856 0
M  V30 END ATOM
M  V30 BEGIN BOND
M  V30 1 1 1 2
M  V30 2 1 2 3
M  V30 3 2 3 4
M  V30 4 1 4 5
M  V30 5 1 5 6
M  V30 6 2 5 7
M  V30 7 1 7 8
M  V30 8 2 8 9
M  V30 9 1 8 10
M  V30 10 2 10 11
M  V30 11 1 11 12
M  V30 12 2 12 13
M  V30 13 1 9 3
M  V30 14 1 13 7
M  V30 15 1 1 14
M  V30 16 1 1 15
M  V30 17 1 2 16
M  V30 18 1 2 17
M  V30 19 1 4 18
M  V30 20 1 6 19
M  V30 21 1 6 20
M  V30 22 1 10 21
M  V30 23 1 11 22
M  V30 24 1 12 23
M  V30 25 1 13 24
M  V30 END BOND
M  V30 END CTAB
M  END
