
     RDKit          3D

  0  0  0  0  0  0  0  0  0  0999 V3000
M  V30 BEGIN CTAB
M  V30 COUNTS 41 42 0 0 0
M  V30 BEGIN ATOM
M  V30 1 C 6.93406 -0.294349 0.997239 0
M  V30 2 O 6.24762 0.708026 0.303343 0
M  V30 3 C 4.88277 0.779765 0.154891 0
M  V30 4 C 4.04893 -0.166598 0.697369 0
M  V30 5 C 2.66008 -0.0494245 0.517018 0
M  V30 6 C 2.17869 1.01632 -0.200698 0
M  V30 7 C 3.03607 1.96985 -0.745155 0
M  V30 8 C 4.36891 1.83564 -0.559086 0
M  V30 9 F 5.19992 2.77816 -1.09992 0
M  V30 10 C 0.725131 1.20511 -0.44494 0
M  V30 11 N 0.109659 -0.0794207 -0.63256 0
M  V30 12 C -0.563973 -0.733828 0.391047 0
M  V30 13 O -0.71601 -0.225492 1.53882 0
M  V30 14 C -1.13485 -2.0898 0.141406 0
M  V30 15 S -2.4612 -1.95073 -1.08064 0
M  V30 16 C -3.83909 -1.02599 -0.465236 0
M  V30 17 N -3.91827 0.302383 -0.627292 0
M  V30 18 C -4.9807 1.00172 -0.1552 0
M  V30 19 N -5.02335 2.41804 -0.354987 0
M  V30 20 N -5.95945 0.356631 0.478767 0
M  V30 21 C -5.91187 -0.963124 0.657074 0
M  V30 22 N -4.83506 -1.65078 0.175432 0
M  V30 23 N -6.90632 -1.71407 1.31729 0
M  V30 24 C 0.216984 -0.660084 -1.967 0
M  V30 25 H 6.38364 -1.23807 1.06324 0
M  V30 26 H 7.20724 0.141745 1.99265 0
M  V30 27 H 7.9304 -0.492758 0.504727 0
M  V30 28 H 4.40034 -1.00189 1.26335 0
M  V30 29 H 2.00993 -0.782494 0.933239 0
M  V30 30 H 2.60159 2.78419 -1.29983 0
M  V30 31 H 0.569044 1.78914 -1.39711 0
M  V30 32 H 0.2352 1.72458 0.41099 0
M  V30 33 H -1.60194 -2.49374 1.07219 0
M  V30 34 H -0.302531 -2.72108 -0.210244 0
M  V30 35 H -5.66369 2.88164 -1.0231 0
M  V30 36 H -4.36515 2.99334 0.214299 0
M  V30 37 H -6.63902 -2.36589 2.07147 0
M  V30 38 H -7.89305 -1.60925 1.0436 0
M  V30 39 H 1.12323 -0.271226 -2.49162 0
M  V30 40 H 0.318706 -1.74229 -1.87186 0
M  V30 41 H -0.672601 -0.363893 -2.58248 0
M  V30 END ATOM
M  V30 BEGIN BOND
M  V30 1 1 1 2
M  V30 2 1 2 3
M  V30 3 2 3 4
M  V30 4 1 4 5
M  V30 5 2 5 6
M  V30 6 1 6 7
M  V30 7 2 7 8
M  V30 8 1 8 9
M  V30 9 1 6 10
M  V30 10 1 10 11
M  V30 11 1 11 12
M  V30 12 2 12 13
M  V30 13 1 12 14
M  V30 14 1 14 15
M  V30 15 1 15 16
M  V30 16 2 16 17
M  V30 17 1 17 18
M  V30 18 1 18 19
M  V30 19 2 18 20
M  V30 20 1 20 21
M  V30 21 2 21 22
M  V30 22 1 21 23
M  V30 23 1 11 24
M  V30 24 1 8 3
M  V30 25 1 22 16
M  V30 26 1 1 25
M  V30 27 1 1 26
M  V30 28 1 1 27
M  V30 29 1 4 28
M  V30 30 1 5 29
M  V30 31 1 7 30
M  V30 32 1 10 31
M  V30 33 1 10 32
M  V30 34 1 14 33
M  V30 35 1 14 34
M  V30 36 1 19 35
M  V30 37 1 19 36
M  V30 38 1 23 37
M  V30 39 1 23 38
M  V30 40 1 24 39
M  V30 41 1 24 40
M  V30 42 1 24 41
M  V30 END BOND
M  V30 END CTAB
M  END
