
     RDKit          3D

  0  0  0  0  0  0  0  0  0  0999 V3000
M  V30 BEGIN CTAB
M  V30 COUNTS 22 22 0 0 0
M  V30 BEGIN ATOM
M  V30 1 C 2.91491 -1.22215 0.238627 0
M  V30 2 O 2.20719 -0.0293969 0.426602 0
M  V30 3 C 0.837879 -0.0426312 0.151767 0
M  V30 4 C 0.180512 -1.17227 -0.289188 0
M  V30 5 C -1.17333 -1.14638 -0.550199 0
M  V30 6 C -1.83194 0.048267 -0.351994 0
M  V30 7 C -1.17366 1.18543 0.0912139 0
M  V30 8 N -1.8846 2.40686 0.286405 0
M  V30 9 C 0.18051 1.17035 0.355264 0
M  V30 10 N 0.871038 2.32071 0.808478 0
M  V30 11 N -1.86291 -2.30928 -1.00669 0 CHG=1
M  V30 12 O -1.24302 -3.50801 -1.21373 0 CHG=-1
M  V30 13 O -3.08074 -2.24078 -1.22897 0
M  V30 14 H 2.75787 -1.67466 -0.768498 0
M  V30 15 H 3.99855 -1.00383 0.384839 0
M  V30 16 H 2.53665 -1.9806 0.964956 0
M  V30 17 H 0.724505 -2.09704 -0.435856 0
M  V30 18 H -2.89189 0.0614499 -0.558311 0
M  V30 19 H -2.43381 2.84244 -0.487728 0
M  V30 20 H -1.88876 2.91386 1.1977 0
M  V30 21 H 1.08571 3.11933 0.185785 0
M  V30 22 H 1.16934 2.35833 1.79953 0
M  V30 END ATOM
M  V30 BEGIN BOND
M  V30 1 1 1 2
M  V30 2 1 2 3
M  V30 3 2 3 4
M  V30 4 1 4 5
M  V30 5 2 5 6
M  V30 6 1 6 7
M  V30 7 1 7 8
M  V30 8 2 7 9
M  V30 9 1 9 10
M  V30 10 1 5 11
M  V30 11 1 11 12
M  V30 12 2 11 13
M  V30 13 1 9 3
M  V30 14 1 1 14
M  V30 15 1 1 15
M  V30 16 1 1 16
M  V30 17 1 4 17
M  V30 18 1 6 18
M  V30 19 1 8 19
M  V30 20 1 8 20
M  V30 21 1 10 21
M  V30 22 1 10 22
M  V30 END BOND
M  V30 END CTAB
M  END
