
     RDKit          3D

  0  0  0  0  0  0  0  0  0  0999 V3000
M  V30 BEGIN CTAB
M  V30 COUNTS 39 38 0 0 0
M  V30 BEGIN ATOM
M  V30 1 C -0.0546742 1.39911 -0.485609 0 CFG=1
M  V30 2 N -0.0516022 2.10979 0.754395 0
M  V30 3 C 1.04935 0.363631 -0.482303 0
M  V30 4 C 2.34802 1.11715 -0.297674 0
M  V30 5 C 3.55154 0.240644 -0.27331 0
M  V30 6 N 3.56334 -0.743191 0.772818 0
M  V30 7 C 4.69382 -1.60682 0.8397 0
M  V30 8 N 5.97227 -1.03007 1.08222 0
M  V30 9 N 4.62089 -2.87339 0.693861 0
M  V30 10 C -1.31108 0.732991 -0.808521 0
M  V30 11 O -1.38109 0.079234 -1.8739 0
M  V30 12 N -2.41451 0.8349 0.0741867 0
M  V30 13 C -3.67952 0.176284 -0.231608 0 CFG=1
M  V30 14 C -3.96751 -0.816601 0.864379 0
M  V30 15 C -2.85252 -1.79477 0.891801 0
M  V30 16 O -3.0664 -3.0304 0.313655 0
M  V30 17 O -1.75769 -1.50841 1.4207 0
M  V30 18 C -4.75021 1.17725 -0.369704 0
M  V30 19 O -6.04352 0.765309 -0.658826 0
M  V30 20 O -4.5013 2.38168 -0.228855 0
M  V30 21 H 0.180819 2.11236 -1.28914 0
M  V30 22 H 0.277879 1.50022 1.53665 0
M  V30 23 H 0.550694 2.97909 0.699796 0
M  V30 24 H 0.981714 -0.177368 -1.42662 0
M  V30 25 H 0.854184 -0.313245 0.374724 0
M  V30 26 H 2.23711 1.71157 0.629416 0
M  V30 27 H 2.48163 1.85064 -1.11741 0
M  V30 28 H 4.43589 0.906769 -0.126252 0
M  V30 29 H 3.69083 -0.277832 -1.23058 0
M  V30 30 H 2.81949 -0.879873 1.48579 0
M  V30 31 H 6.83292 -1.46116 0.652684 0
M  V30 32 H 6.12375 -0.182336 1.67577 0
M  V30 33 H 3.76946 -3.42329 0.515181 0
M  V30 34 H -2.3423 1.38523 0.962518 0
M  V30 35 H -3.58318 -0.368034 -1.20777 0
M  V30 36 H -4.94664 -1.31709 0.699546 0
M  V30 37 H -4.0062 -0.24341 1.83158 0
M  V30 38 H -3.60602 -3.17779 -0.531796 0
M  V30 39 H -6.71963 1.40122 -1.03621 0
M  V30 END ATOM
M  V30 BEGIN BOND
M  V30 1 1 1 2
M  V30 2 1 1 3
M  V30 3 1 3 4
M  V30 4 1 4 5
M  V30 5 1 5 6
M  V30 6 1 6 7
M  V30 7 1 7 8
M  V30 8 2 7 9 CFG=2
M  V30 9 1 1 10
M  V30 10 2 10 11
M  V30 11 1 10 12
M  V30 12 1 12 13
M  V30 13 1 13 14
M  V30 14 1 14 15
M  V30 15 1 15 16
M  V30 16 2 15 17
M  V30 17 1 13 18
M  V30 18 1 18 19
M  V30 19 2 18 20
M  V30 20 1 1 21 CFG=3
M  V30 21 1 2 22
M  V30 22 1 2 23
M  V30 23 1 3 24
M  V30 24 1 3 25
M  V30 25 1 4 26
M  V30 26 1 4 27
M  V30 27 1 5 28
M  V30 28 1 5 29
M  V30 29 1 6 30
M  V30 30 1 8 31
M  V30 31 1 8 32
M  V30 32 1 9 33
M  V30 33 1 12 34
M  V30 34 1 13 35 CFG=3
M  V30 35 1 14 36
M  V30 36 1 14 37
M  V30 37 1 16 38
M  V30 38 1 19 39
M  V30 END BOND
M  V30 END CTAB
M  END
