
     RDKit          3D

  0  0  0  0  0  0  0  0  0  0999 V3000
M  V30 BEGIN CTAB
M  V30 COUNTS 41 43 0 0 0
M  V30 BEGIN ATOM
M  V30 1 N -3.01687 4.40957 -0.00758228 0
M  V30 2 C -2.2528 3.21045 -0.198516 0
M  V30 3 C -1.21466 3.1798 -1.0989 0
M  V30 4 C -0.508751 2.01136 -1.24874 0
M  V30 5 C -0.779182 0.853524 -0.544602 0
M  V30 6 C -1.82712 0.898198 0.358179 0
M  V30 7 C -2.5296 2.05975 0.507774 0
M  V30 8 C 0.0255286 -0.362239 -0.75822 0
M  V30 9 C 1.41868 -0.154092 -0.207173 0
M  V30 10 C 1.59899 0.553427 0.971051 0
M  V30 11 C 2.88728 0.738484 1.46657 0
M  V30 12 C 3.9821 0.234736 0.812353 0
M  V30 13 N 5.30553 0.412988 1.30033 0
M  V30 14 C 3.81881 -0.472323 -0.362476 0
M  V30 15 C 2.54435 -0.64046 -0.828511 0
M  V30 16 C -0.583966 -1.61682 -0.241633 0
M  V30 17 C -1.73481 -2.15139 -0.776513 0
M  V30 18 C -2.31069 -3.32754 -0.262489 0
M  V30 19 C -1.74084 -3.97967 0.788656 0
M  V30 20 C -0.592032 -3.42821 1.30497 0
M  V30 21 C -0.0173485 -2.2868 0.82079 0
M  V30 22 N -2.44203 -1.56569 -1.8768 0 CHG=1
M  V30 23 O -1.86847 -0.849227 -2.86227 0 CHG=-1
M  V30 24 O -3.69091 -1.72775 -1.92715 0
M  V30 25 H -4.01049 4.32661 0.225541 0
M  V30 26 H -2.55931 5.33292 -0.106656 0
M  V30 27 H -0.952134 4.05965 -1.68414 0
M  V30 28 H 0.312955 2.04879 -1.98549 0
M  V30 29 H -2.0281 -0.0136664 0.901806 0
M  V30 30 H -3.3408 2.05797 1.22216 0
M  V30 31 H 0.174595 -0.474158 -1.83823 0
M  V30 32 H 0.773611 0.972394 1.52738 0
M  V30 33 H 3.07112 1.28942 2.39011 0
M  V30 34 H 5.61709 1.31594 1.75628 0
M  V30 35 H 5.96685 -0.390595 1.19062 0
M  V30 36 H 4.68693 -0.875564 -0.888025 0
M  V30 37 H 2.42927 -1.19687 -1.75126 0
M  V30 38 H -3.19957 -3.69016 -0.716782 0
M  V30 39 H -2.17204 -4.90068 1.20759 0
M  V30 40 H -0.145639 -3.96071 2.14671 0
M  V30 41 H 0.90444 -1.90138 1.27329 0
M  V30 END ATOM
M  V30 BEGIN BOND
M  V30 1 1 1 2
M  V30 2 2 2 3
M  V30 3 1 3 4
M  V30 4 2 4 5
M  V30 5 1 5 6
M  V30 6 2 6 7
M  V30 7 1 5 8
M  V30 8 1 8 9
M  V30 9 2 9 10
M  V30 10 1 10 11
M  V30 11 2 11 12
M  V30 12 1 12 13
M  V30 13 1 12 14
M  V30 14 2 14 15
M  V30 15 1 8 16
M  V30 16 2 16 17
M  V30 17 1 17 18
M  V30 18 2 18 19
M  V30 19 1 19 20
M  V30 20 2 20 21
M  V30 21 1 17 22
M  V30 22 1 22 23
M  V30 23 2 22 24
M  V30 24 1 7 2
M  V30 25 1 15 9
M  V30 26 1 21 16
M  V30 27 1 1 25
M  V30 28 1 1 26
M  V30 29 1 3 27
M  V30 30 1 4 28
M  V30 31 1 6 29
M  V30 32 1 7 30
M  V30 33 1 8 31
M  V30 34 1 10 32
M  V30 35 1 11 33
M  V30 36 1 13 34
M  V30 37 1 13 35
M  V30 38 1 14 36
M  V30 39 1 15 37
M  V30 40 1 18 38
M  V30 41 1 19 39
M  V30 42 1 20 40
M  V30 43 1 21 41
M  V30 END BOND
M  V30 END CTAB
M  END
