
     RDKit          3D

  0  0  0  0  0  0  0  0  0  0999 V3000
M  V30 BEGIN CTAB
M  V30 COUNTS 25 26 0 0 0
M  V30 BEGIN ATOM
M  V30 1 N -3.95045 -0.565766 -0.378341 0
M  V30 2 C -2.52262 -0.463208 -0.256148 0
M  V30 3 C -1.9249 0.755553 -0.00927399 0
M  V30 4 N -2.79215 1.87586 0.11709 0
M  V30 5 C -0.540507 0.903452 0.115237 0
M  V30 6 C 0.218864 -0.22755 -0.0191264 0
M  V30 7 C -0.339972 -1.46442 -0.265782 0
M  V30 8 C -1.70898 -1.57022 -0.382215 0
M  V30 9 C 1.68109 -0.0869168 0.104664 0
M  V30 10 C 2.4665 -1.1022 0.61168 0
M  V30 11 C 3.83577 -0.986811 0.731063 0
M  V30 12 N 4.42646 0.158883 0.338087 0
M  V30 13 C 3.68466 1.16071 -0.158115 0
M  V30 14 C 2.31342 1.07606 -0.290038 0
M  V30 15 H -4.46395 -1.36467 0.0553576 0
M  V30 16 H -4.51498 0.13903 -0.892698 0
M  V30 17 H -3.20915 2.06156 1.04522 0
M  V30 18 H -2.96927 2.45622 -0.720085 0
M  V30 19 H -0.150348 1.89176 0.308553 0
M  V30 20 H 0.320235 -2.30547 -0.358697 0
M  V30 21 H -2.17547 -2.53236 -0.576203 0
M  V30 22 H 2.01074 -2.02063 0.92929 0
M  V30 23 H 4.43759 -1.81374 1.13977 0
M  V30 24 H 4.13285 2.10692 -0.487647 0
M  V30 25 H 1.73457 1.91796 -0.701641 0
M  V30 END ATOM
M  V30 BEGIN BOND
M  V30 1 1 1 2
M  V30 2 2 2 3
M  V30 3 1 3 4
M  V30 4 1 3 5
M  V30 5 2 5 6
M  V30 6 1 6 7
M  V30 7 2 7 8
M  V30 8 1 6 9
M  V30 9 2 9 10
M  V30 10 1 10 11
M  V30 11 2 11 12
M  V30 12 1 12 13
M  V30 13 2 13 14
M  V30 14 1 8 2
M  V30 15 1 14 9
M  V30 16 1 1 15
M  V30 17 1 1 16
M  V30 18 1 4 17
M  V30 19 1 4 18
M  V30 20 1 5 19
M  V30 21 1 7 20
M  V30 22 1 8 21
M  V30 23 1 10 22
M  V30 24 1 11 23
M  V30 25 1 13 24
M  V30 26 1 14 25
M  V30 END BOND
M  V30 END CTAB
M  END
