
     RDKit          3D

  0  0  0  0  0  0  0  0  0  0999 V3000
M  V30 BEGIN CTAB
M  V30 COUNTS 44 45 0 0 0
M  V30 BEGIN ATOM
M  V30 1 C 6.15926 2.2353 -0.779589 0
M  V30 2 C 6.62888 1.59598 0.506328 0
M  V30 3 C 6.52104 0.134511 0.459816 0
M  V30 4 C 5.21328 -0.485628 0.324977 0
M  V30 5 N 5.13543 -1.84186 0.112417 0
M  V30 6 N 3.89131 -2.18928 0.0477881 0
M  V30 7 C 3.11042 -1.13535 0.206328 0
M  V30 8 N 3.95524 -0.0833983 0.378277 0
M  V30 9 N 3.50164 1.19746 0.597041 0
M  V30 10 S 1.31774 -1.05108 0.20419 0
M  V30 11 C 0.641852 -2.69509 -0.0595057 0
M  V30 12 C -0.862853 -2.6112 -0.0593174 0
M  V30 13 S -1.46838 -1.51342 -1.37458 0
M  V30 14 C -3.25327 -1.47239 -1.30315 0
M  V30 15 N -4.14885 -2.26299 -1.91594 0
M  V30 16 N -5.3681 -1.92217 -1.61794 0
M  V30 17 C -5.32015 -0.845384 -0.759221 0
M  V30 18 N -4.03914 -0.599651 -0.588731 0
M  V30 19 N -3.45355 0.377184 0.215845 0
M  V30 20 C -6.5248 -0.233936 -0.198482 0
M  V30 21 C -6.39231 1.06335 0.491751 0
M  V30 22 C -5.94329 2.21801 -0.354013 0
M  V30 23 H 5.49029 3.1004 -0.620826 0
M  V30 24 H 5.69279 1.46692 -1.44859 0
M  V30 25 H 7.01936 2.62984 -1.37724 0
M  V30 26 H 7.72478 1.86195 0.601235 0
M  V30 27 H 6.17356 2.07475 1.39944 0
M  V30 28 H 7.20755 -0.280716 -0.327794 0
M  V30 29 H 6.96686 -0.293012 1.41435 0
M  V30 30 H 3.62461 1.70268 1.50578 0
M  V30 31 H 3.00974 1.71558 -0.154553 0
M  V30 32 H 0.919298 -3.31339 0.832937 0
M  V30 33 H 0.992031 -3.16005 -0.987532 0
M  V30 34 H -1.32852 -3.62336 -0.212958 0
M  V30 35 H -1.25312 -2.24477 0.907018 0
M  V30 36 H -3.49477 0.288684 1.23455 0
M  V30 37 H -2.97054 1.20142 -0.202679 0
M  V30 38 H -7.27496 -0.0702685 -1.03994 0
M  V30 39 H -7.07869 -0.925039 0.4855 0
M  V30 40 H -7.42064 1.31655 0.89279 0
M  V30 41 H -5.76664 1.02753 1.41368 0
M  V30 42 H -6.80902 2.91583 -0.528106 0
M  V30 43 H -5.5267 1.90034 -1.33884 0
M  V30 44 H -5.19871 2.82919 0.173529 0
M  V30 END ATOM
M  V30 BEGIN BOND
M  V30 1 1 1 2
M  V30 2 1 2 3
M  V30 3 1 3 4
M  V30 4 2 4 5
M  V30 5 1 5 6
M  V30 6 2 6 7
M  V30 7 1 7 8
M  V30 8 1 8 9
M  V30 9 1 7 10
M  V30 10 1 10 11
M  V30 11 1 11 12
M  V30 12 1 12 13
M  V30 13 1 13 14
M  V30 14 2 14 15
M  V30 15 1 15 16
M  V30 16 2 16 17
M  V30 17 1 17 18
M  V30 18 1 18 19
M  V30 19 1 17 20
M  V30 20 1 20 21
M  V30 21 1 21 22
M  V30 22 1 8 4
M  V30 23 1 18 14
M  V30 24 1 1 23
M  V30 25 1 1 24
M  V30 26 1 1 25
M  V30 27 1 2 26
M  V30 28 1 2 27
M  V30 29 1 3 28
M  V30 30 1 3 29
M  V30 31 1 9 30
M  V30 32 1 9 31
M  V30 33 1 11 32
M  V30 34 1 11 33
M  V30 35 1 12 34
M  V30 36 1 12 35
M  V30 37 1 19 36
M  V30 38 1 19 37
M  V30 39 1 20 38
M  V30 40 1 20 39
M  V30 41 1 21 40
M  V30 42 1 21 41
M  V30 43 1 22 42
M  V30 44 1 22 43
M  V30 45 1 22 44
M  V30 END BOND
M  V30 END CTAB
M  END
