
     RDKit          3D

  0  0  0  0  0  0  0  0  0  0999 V3000
M  V30 BEGIN CTAB
M  V30 COUNTS 31 31 0 0 0
M  V30 BEGIN ATOM
M  V30 1 C -2.16901 -1.70659 0.302381 0
M  V30 2 C -1.97723 -0.56239 1.22808 0
M  V30 3 C -1.69801 0.759056 0.614552 0
M  V30 4 N -0.509666 0.897799 -0.159878 0
M  V30 5 C 0.701389 0.192449 -0.0304444 0
M  V30 6 C 1.81016 0.844733 0.532593 0
M  V30 7 C 3.00255 0.190707 0.695432 0
M  V30 8 N 4.10993 0.870017 1.2659 0
M  V30 9 N 3.09813 -1.07881 0.310186 0
M  V30 10 C 2.06595 -1.71302 -0.222544 0
M  V30 11 N 0.902181 -1.06446 -0.37842 0
M  V30 12 N 2.18795 -3.08262 -0.623807 0
M  V30 13 C -0.512251 1.98771 -1.1624 0
M  V30 14 C -2.883 1.32501 -0.136304 0
M  V30 15 H -2.00565 -1.48805 -0.776364 0
M  V30 16 H -1.49736 -2.53013 0.588758 0
M  V30 17 H -3.20569 -2.16915 0.423481 0
M  V30 18 H -1.2123 -0.852197 1.99616 0
M  V30 19 H -2.926 -0.468394 1.83568 0
M  V30 20 H -1.55556 1.50219 1.47636 0
M  V30 21 H 1.69394 1.87229 0.827919 0
M  V30 22 H 4.31871 1.88525 1.14504 0
M  V30 23 H 4.76754 0.317059 1.85199 0
M  V30 24 H 3.02684 -3.64239 -0.40145 0
M  V30 25 H 1.41902 -3.56131 -1.16076 0
M  V30 26 H -0.390122 1.60132 -2.18147 0
M  V30 27 H -1.35808 2.65626 -1.06398 0
M  V30 28 H 0.397613 2.60457 -0.910024 0
M  V30 29 H -3.82438 0.802889 0.150238 0
M  V30 30 H -2.75199 1.19946 -1.2257 0
M  V30 31 H -3.02558 2.41073 0.0518272 0
M  V30 END ATOM
M  V30 BEGIN BOND
M  V30 1 1 1 2
M  V30 2 1 2 3
M  V30 3 1 3 4
M  V30 4 1 4 5
M  V30 5 2 5 6
M  V30 6 1 6 7
M  V30 7 1 7 8
M  V30 8 2 7 9
M  V30 9 1 9 10
M  V30 10 2 10 11
M  V30 11 1 10 12
M  V30 12 1 4 13
M  V30 13 1 3 14
M  V30 14 1 11 5
M  V30 15 1 1 15
M  V30 16 1 1 16
M  V30 17 1 1 17
M  V30 18 1 2 18
M  V30 19 1 2 19
M  V30 20 1 3 20
M  V30 21 1 6 21
M  V30 22 1 8 22
M  V30 23 1 8 23
M  V30 24 1 12 24
M  V30 25 1 12 25
M  V30 26 1 13 26
M  V30 27 1 13 27
M  V30 28 1 13 28
M  V30 29 1 14 29
M  V30 30 1 14 30
M  V30 31 1 14 31
M  V30 END BOND
M  V30 END CTAB
M  END
