
     RDKit          3D

  0  0  0  0  0  0  0  0  0  0999 V3000
M  V30 BEGIN CTAB
M  V30 COUNTS 16 16 0 0 0
M  V30 BEGIN ATOM
M  V30 1 N 2.82403 -0.307947 0.146824 0
M  V30 2 C 1.41127 -0.165186 0.0773459 0
M  V30 3 C 0.544958 -1.0945 0.62296 0
M  V30 4 C -0.824493 -0.937551 0.544874 0
M  V30 5 Cl -1.90677 -2.1286 1.24392 0
M  V30 6 C -1.39935 0.15077 -0.0793492 0
M  V30 7 N -2.81337 0.315308 -0.161423 0
M  V30 8 C -0.539013 1.08272 -0.626434 0
M  V30 9 C 0.828643 0.924598 -0.547651 0
M  V30 10 Cl 1.88563 2.12597 -1.25238 0
M  V30 11 H 3.46764 -0.167366 -0.65498 0
M  V30 12 H 3.22973 -0.570559 1.06511 0
M  V30 13 H 1.00066 -1.96425 1.12184 0
M  V30 14 H -3.20754 1.27499 -0.187931 0
M  V30 15 H -3.49401 -0.473638 -0.197486 0
M  V30 16 H -1.00801 1.93524 -1.11524 0
M  V30 END ATOM
M  V30 BEGIN BOND
M  V30 1 1 1 2
M  V30 2 2 2 3
M  V30 3 1 3 4
M  V30 4 1 4 5
M  V30 5 2 4 6
M  V30 6 1 6 7
M  V30 7 1 6 8
M  V30 8 2 8 9
M  V30 9 1 9 10
M  V30 10 1 9 2
M  V30 11 1 1 11
M  V30 12 1 1 12
M  V30 13 1 3 13
M  V30 14 1 7 14
M  V30 15 1 7 15
M  V30 16 1 8 16
M  V30 END BOND
M  V30 END CTAB
M  END
