
     RDKit          3D

  0  0  0  0  0  0  0  0  0  0999 V3000
M  V30 BEGIN CTAB
M  V30 COUNTS 42 43 0 0 0
M  V30 BEGIN ATOM
M  V30 1 C 1.93533 3.46558 0.992763 0
M  V30 2 O 2.52602 2.33592 0.392242 0
M  V30 3 C 1.87171 1.10961 0.283597 0
M  V30 4 C 0.589602 0.938106 0.767933 0
M  V30 5 C -0.0612305 -0.268521 0.66366 0
M  V30 6 C 0.633088 -1.28321 0.0549948 0
M  V30 7 C 1.93643 -1.14451 -0.448321 0
M  V30 8 O 2.5339 -2.14371 -1.01166 0
M  V30 9 C 3.08856 -3.16912 -1.56525 0
M  V30 10 C 2.5707 0.0972752 -0.326014 0
M  V30 11 O 3.85844 0.30342 -0.801331 0
M  V30 12 C 4.9448 0.0527784 0.0755335 0
M  V30 13 C -1.45193 -0.468806 1.18673 0
M  V30 14 C -1.57225 -1.89379 1.69401 0
M  V30 15 C -2.46459 -0.156847 0.161568 0
M  V30 16 C -3.18136 1.01523 0.239341 0
M  V30 17 N -2.95083 1.91321 1.29473 0
M  V30 18 N -4.11828 1.32112 -0.697356 0
M  V30 19 C -4.36316 0.500124 -1.70559 0
M  V30 20 N -5.35666 0.836185 -2.6869 0
M  V30 21 N -3.67232 -0.645841 -1.79436 0
M  V30 22 C -2.73262 -0.997736 -0.892726 0
M  V30 23 H 1.36237 3.22787 1.9088 0
M  V30 24 H 2.7203 4.2131 1.22875 0
M  V30 25 H 1.21698 3.88391 0.253965 0
M  V30 26 H 0.0795419 1.76078 1.24012 0
M  V30 27 H 0.115465 -2.24311 -0.0280082 0
M  V30 28 H 4.17419 -2.97444 -1.84552 0
M  V30 29 H 3.08829 -4.15742 -0.997694 0
M  V30 30 H 2.60198 -3.48757 -2.54194 0
M  V30 31 H 5.20228 1.01898 0.555548 0
M  V30 32 H 5.85721 -0.266538 -0.465495 0
M  V30 33 H 4.61881 -0.658308 0.84252 0
M  V30 34 H -1.60482 0.170356 2.10817 0
M  V30 35 H -2.18536 -1.94657 2.61798 0
M  V30 36 H -1.90896 -2.59448 0.910433 0
M  V30 37 H -0.548691 -2.20771 1.98983 0
M  V30 38 H -2.63384 2.87887 1.07048 0
M  V30 39 H -3.08409 1.65528 2.31541 0
M  V30 40 H -5.34374 0.44382 -3.65098 0
M  V30 41 H -6.10279 1.49482 -2.40228 0
M  V30 42 H -2.18848 -1.92808 -0.987666 0
M  V30 END ATOM
M  V30 BEGIN BOND
M  V30 1 1 1 2
M  V30 2 1 2 3
M  V30 3 2 3 4
M  V30 4 1 4 5
M  V30 5 2 5 6
M  V30 6 1 6 7
M  V30 7 1 7 8
M  V30 8 1 8 9
M  V30 9 2 7 10
M  V30 10 1 10 11
M  V30 11 1 11 12
M  V30 12 1 5 13
M  V30 13 1 13 14
M  V30 14 1 13 15
M  V30 15 2 15 16
M  V30 16 1 16 17
M  V30 17 1 16 18
M  V30 18 2 18 19
M  V30 19 1 19 20
M  V30 20 1 19 21
M  V30 21 2 21 22
M  V30 22 1 10 3
M  V30 23 1 22 15
M  V30 24 1 1 23
M  V30 25 1 1 24
M  V30 26 1 1 25
M  V30 27 1 4 26
M  V30 28 1 6 27
M  V30 29 1 9 28
M  V30 30 1 9 29
M  V30 31 1 9 30
M  V30 32 1 12 31
M  V30 33 1 12 32
M  V30 34 1 12 33
M  V30 35 1 13 34
M  V30 36 1 14 35
M  V30 37 1 14 36
M  V30 38 1 14 37
M  V30 39 1 17 38
M  V30 40 1 17 39
M  V30 41 1 20 40
M  V30 42 1 20 41
M  V30 43 1 22 42
M  V30 END BOND
M  V30 END CTAB
M  END
