
     RDKit          3D

  0  0  0  0  0  0  0  0  0  0999 V3000
M  V30 BEGIN CTAB
M  V30 COUNTS 24 24 0 0 0
M  V30 BEGIN ATOM
M  V30 1 N 3.51535 1.27123 0.652246 0
M  V30 2 N 2.28761 0.607459 0.736442 0
M  V30 3 C 1.8745 -0.228365 -0.142256 0
M  V30 4 N 0.637509 -0.851843 0.00965684 0
M  V30 5 C -0.564458 -0.501582 -0.72398 0
M  V30 6 C -1.69742 -1.33001 -0.34769 0
M  V30 7 C -2.70366 -0.633292 0.46375 0
M  V30 8 S -2.45345 1.09127 0.136652 0
M  V30 9 O -2.42377 1.91913 1.36844 0
M  V30 10 O -3.52492 1.53388 -0.834309 0
M  V30 11 C -0.879552 0.955231 -0.655896 0
M  V30 12 N 2.69626 -0.500489 -1.25956 0
M  V30 13 H 4.38698 0.842961 1.0478 0
M  V30 14 H 3.61076 2.21002 0.196601 0
M  V30 15 H 0.546737 -1.63737 0.702677 0
M  V30 16 H -0.307065 -0.714908 -1.80679 0
M  V30 17 H -2.20684 -1.79238 -1.24348 0
M  V30 18 H -1.33767 -2.22729 0.239241 0
M  V30 19 H -3.74928 -0.936931 0.163974 0
M  V30 20 H -2.65071 -0.844402 1.55122 0
M  V30 21 H -0.140901 1.54716 -0.0798394 0
M  V30 22 H -0.962434 1.44005 -1.65062 0
M  V30 23 H 3.67083 -0.857227 -1.08417 0
M  V30 24 H 2.37559 -0.36231 -2.23481 0
M  V30 END ATOM
M  V30 BEGIN BOND
M  V30 1 1 1 2
M  V30 2 2 2 3 CFG=2
M  V30 3 1 3 4
M  V30 4 1 4 5
M  V30 5 1 5 6
M  V30 6 1 6 7
M  V30 7 1 7 8
M  V30 8 2 8 9
M  V30 9 2 8 10
M  V30 10 1 8 11
M  V30 11 1 3 12
M  V30 12 1 11 5
M  V30 13 1 1 13
M  V30 14 1 1 14
M  V30 15 1 4 15
M  V30 16 1 5 16
M  V30 17 1 6 17
M  V30 18 1 6 18
M  V30 19 1 7 19
M  V30 20 1 7 20
M  V30 21 1 11 21
M  V30 22 1 11 22
M  V30 23 1 12 23
M  V30 24 1 12 24
M  V30 END BOND
M  V30 END CTAB
M  END
