
     RDKit          3D

  0  0  0  0  0  0  0  0  0  0999 V3000
M  V30 BEGIN CTAB
M  V30 COUNTS 51 54 0 0 0
M  V30 BEGIN ATOM
M  V30 1 N 4.60585 -0.568538 -4.09523 0
M  V30 2 C 3.41595 -0.157301 -3.40143 0
M  V30 3 C 2.24318 0.000927557 -4.09859 0
M  V30 4 C 1.10992 0.395458 -3.4326 0
M  V30 5 C 1.11443 0.638666 -2.07586 0
M  V30 6 C 2.32015 0.468098 -1.39843 0
M  V30 7 C 3.47984 0.0764753 -2.01983 0
M  V30 8 C 4.7378 -0.149388 -1.36039 0
M  V30 9 O 5.70298 -0.635817 -2.0549 0
M  V30 10 C 5.07747 0.103757 0.0286286 0
M  V30 11 C 5.95147 -0.777292 0.697067 0
M  V30 12 C 6.35311 -0.579812 1.99145 0
M  V30 13 C 5.91556 0.506454 2.71458 0
M  V30 14 C 5.06269 1.38685 2.09331 0
M  V30 15 C 4.65734 1.17959 0.77138 0
M  V30 16 S -0.369728 1.15098 -1.27175 0
M  V30 17 C -1.33834 -0.227125 -0.690684 0
M  V30 18 C -0.972596 -1.54641 -0.850524 0
M  V30 19 C -1.74185 -2.58489 -0.392374 0
M  V30 20 C -2.92179 -2.28253 0.250467 0
M  V30 21 C -3.36778 -0.963951 0.455868 0
M  V30 22 C -2.5437 0.0262438 -0.0329181 0
M  V30 23 C -4.63421 -0.785375 1.09737 0
M  V30 24 O -5.34926 -1.79689 1.36627 0
M  V30 25 C -5.18388 0.490999 1.47456 0
M  V30 26 C -6.57366 0.686298 1.34246 0
M  V30 27 C -7.18328 1.84382 1.72547 0
M  V30 28 C -6.48745 2.90267 2.26734 0
M  V30 29 C -5.12937 2.74146 2.4094 0
M  V30 30 C -4.50512 1.55208 2.01612 0
M  V30 31 N -3.74119 -3.33949 0.739055 0
M  V30 32 H 5.25082 0.160862 -4.45697 0
M  V30 33 H 4.85168 -1.5645 -4.25268 0
M  V30 34 H 2.2365 -0.193027 -5.18117 0
M  V30 35 H 0.209301 0.502974 -4.04891 0
M  V30 36 H 2.30599 0.63685 -0.31882 0
M  V30 37 H 6.28942 -1.62737 0.122888 0
M  V30 38 H 7.02541 -1.272 2.47947 0
M  V30 39 H 6.22393 0.674138 3.73662 0
M  V30 40 H 4.70583 2.24977 2.64565 0
M  V30 41 H 4.00775 1.91784 0.311555 0
M  V30 42 H -0.04581 -1.77573 -1.35535 0
M  V30 43 H -1.44289 -3.61868 -0.525385 0
M  V30 44 H -2.83971 1.05213 0.0612381 0
M  V30 45 H -7.15332 -0.137341 0.916004 0
M  V30 46 H -8.26495 1.97169 1.6112 0
M  V30 47 H -6.97868 3.81084 2.56545 0
M  V30 48 H -4.5255 3.5299 2.82687 0
M  V30 49 H -3.42337 1.44098 2.17131 0
M  V30 50 H -3.69941 -3.67478 1.72776 0
M  V30 51 H -4.43755 -3.84059 0.124347 0
M  V30 END ATOM
M  V30 BEGIN BOND
M  V30 1 1 1 2
M  V30 2 2 2 3
M  V30 3 1 3 4
M  V30 4 2 4 5
M  V30 5 1 5 6
M  V30 6 2 6 7
M  V30 7 1 7 8
M  V30 8 2 8 9
M  V30 9 1 8 10
M  V30 10 2 10 11
M  V30 11 1 11 12
M  V30 12 2 12 13
M  V30 13 1 13 14
M  V30 14 2 14 15
M  V30 15 1 5 16
M  V30 16 1 16 17
M  V30 17 2 17 18
M  V30 18 1 18 19
M  V30 19 2 19 20
M  V30 20 1 20 21
M  V30 21 2 21 22
M  V30 22 1 21 23
M  V30 23 2 23 24
M  V30 24 1 23 25
M  V30 25 2 25 26
M  V30 26 1 26 27
M  V30 27 2 27 28
M  V30 28 1 28 29
M  V30 29 2 29 30
M  V30 30 1 20 31
M  V30 31 1 7 2
M  V30 32 1 15 10
M  V30 33 1 22 17
M  V30 34 1 30 25
M  V30 35 1 1 32
M  V30 36 1 1 33
M  V30 37 1 3 34
M  V30 38 1 4 35
M  V30 39 1 6 36
M  V30 40 1 11 37
M  V30 41 1 12 38
M  V30 42 1 13 39
M  V30 43 1 14 40
M  V30 44 1 15 41
M  V30 45 1 18 42
M  V30 46 1 19 43
M  V30 47 1 22 44
M  V30 48 1 26 45
M  V30 49 1 27 46
M  V30 50 1 28 47
M  V30 51 1 29 48
M  V30 52 1 30 49
M  V30 53 1 31 50
M  V30 54 1 31 51
M  V30 END BOND
M  V30 END CTAB
M  END
