
     RDKit          3D

  0  0  0  0  0  0  0  0  0  0999 V3000
M  V30 BEGIN CTAB
M  V30 COUNTS 45 48 0 0 0
M  V30 BEGIN ATOM
M  V30 1 N 5.08874 -1.50974 2.55372 0
M  V30 2 C 4.43829 -0.982132 1.41077 0
M  V30 3 N 3.54784 -1.71594 0.734183 0
M  V30 4 C 2.90278 -1.264 -0.355658 0
M  V30 5 C 1.94826 -2.17383 -1.00699 0
M  V30 6 S 0.268487 -2.05313 -0.384034 0
M  V30 7 C -0.47967 -0.474218 -0.75675 0
M  V30 8 N 0.150713 0.505652 -1.4281 0
M  V30 9 C -0.387545 1.68653 -1.71574 0
M  V30 10 C 0.291247 2.68508 -2.4146 0
M  V30 11 C -0.323972 3.88048 -2.67752 0
M  V30 12 C -1.61796 4.15831 -2.27619 0
M  V30 13 C -2.27417 3.15992 -1.58646 0
M  V30 14 C -1.68125 1.9462 -1.30676 0
M  V30 15 C -2.33093 0.943389 -0.617839 0
M  V30 16 O -3.49287 1.14647 -0.237664 0
M  V30 17 N -1.74085 -0.249155 -0.346103 0
M  V30 18 C -2.44234 -1.27214 0.371627 0
M  V30 19 C -2.99705 -2.36727 -0.291788 0
M  V30 20 C -3.6685 -3.33929 0.432456 0
M  V30 21 C -3.76613 -3.19061 1.79025 0
M  V30 22 C -3.21475 -2.10154 2.45153 0
M  V30 23 C -2.54464 -1.12904 1.73898 0
M  V30 24 C -1.94006 0.0537939 2.41346 0
M  V30 25 N 3.17681 -0.0165448 -0.770412 0
M  V30 26 C 4.06831 0.783503 -0.132849 0
M  V30 27 N 4.67604 0.260005 0.953523 0
M  V30 28 N 4.34925 2.09692 -0.579273 0
M  V30 29 H 5.20089 -0.903378 3.38872 0
M  V30 30 H 5.46102 -2.47603 2.59974 0
M  V30 31 H 2.26475 -3.23593 -0.91961 0
M  V30 32 H 1.93366 -1.96133 -2.10702 0
M  V30 33 H 1.29793 2.43819 -2.71373 0
M  V30 34 H 0.233369 4.63851 -3.22503 0
M  V30 35 H -2.04978 5.1065 -2.50738 0
M  V30 36 H -3.28682 3.35538 -1.26295 0
M  V30 37 H -2.88619 -2.42933 -1.37322 0
M  V30 38 H -4.09187 -4.18517 -0.116603 0
M  V30 39 H -4.29125 -3.95498 2.33868 0
M  V30 40 H -3.30473 -2.0038 3.53318 0
M  V30 41 H -2.76032 0.767885 2.69622 0
M  V30 42 H -1.46331 -0.286689 3.37244 0
M  V30 43 H -1.15249 0.517145 1.81942 0
M  V30 44 H 3.67627 2.56461 -1.21886 0
M  V30 45 H 5.21479 2.58076 -0.269751 0
M  V30 END ATOM
M  V30 BEGIN BOND
M  V30 1 1 1 2
M  V30 2 2 2 3
M  V30 3 1 3 4
M  V30 4 1 4 5
M  V30 5 1 5 6
M  V30 6 1 6 7
M  V30 7 2 7 8
M  V30 8 1 8 9
M  V30 9 2 9 10
M  V30 10 1 10 11
M  V30 11 2 11 12
M  V30 12 1 12 13
M  V30 13 2 13 14
M  V30 14 1 14 15
M  V30 15 2 15 16
M  V30 16 1 15 17
M  V30 17 1 17 18
M  V30 18 2 18 19
M  V30 19 1 19 20
M  V30 20 2 20 21
M  V30 21 1 21 22
M  V30 22 2 22 23
M  V30 23 1 23 24
M  V30 24 2 4 25
M  V30 25 1 25 26
M  V30 26 2 26 27
M  V30 27 1 26 28
M  V30 28 1 27 2
M  V30 29 1 17 7
M  V30 30 1 23 18
M  V30 31 1 14 9
M  V30 32 1 1 29
M  V30 33 1 1 30
M  V30 34 1 5 31
M  V30 35 1 5 32
M  V30 36 1 10 33
M  V30 37 1 11 34
M  V30 38 1 12 35
M  V30 39 1 13 36
M  V30 40 1 19 37
M  V30 41 1 20 38
M  V30 42 1 21 39
M  V30 43 1 22 40
M  V30 44 1 24 41
M  V30 45 1 24 42
M  V30 46 1 24 43
M  V30 47 1 28 44
M  V30 48 1 28 45
M  V30 END BOND
M  V30 END CTAB
M  END
