
     RDKit          3D

  0  0  0  0  0  0  0  0  0  0999 V3000
M  V30 BEGIN CTAB
M  V30 COUNTS 28 29 0 0 0
M  V30 BEGIN ATOM
M  V30 1 N -3.08399 2.17497 1.9841 0
M  V30 2 C -2.64038 1.18062 1.08104 0
M  V30 3 N -1.30236 0.909374 1.02513 0
M  V30 4 C -0.816636 -0.020461 0.191773 0
M  V30 5 N -1.68058 -0.683395 -0.591754 0
M  V30 6 C -3.00801 -0.447485 -0.56875 0
M  V30 7 N -3.8354 -1.1985 -1.43267 0
M  V30 8 N -3.47254 0.493533 0.278868 0
M  V30 9 N 0.557186 -0.28801 0.14509 0
M  V30 10 C 1.46505 0.428765 0.988251 0
M  V30 11 C 2.90219 0.143049 0.761079 0
M  V30 12 C 3.29981 -0.0789673 -0.660229 0
M  V30 13 C 2.19675 -0.57748 -1.54375 0
M  V30 14 C 1.10546 -1.28714 -0.746133 0
M  V30 15 H -3.96123 1.9655 2.53216 0
M  V30 16 H -2.56226 3.07112 2.09704 0
M  V30 17 H -3.72008 -1.12413 -2.45201 0
M  V30 18 H -4.55474 -1.82078 -1.03174 0
M  V30 19 H 1.27904 1.53208 0.870905 0
M  V30 20 H 1.18415 0.201684 2.03883 0
M  V30 21 H 3.1825 -0.741931 1.40518 0
M  V30 22 H 3.5122 0.983315 1.16507 0
M  V30 23 H 4.1146 -0.834974 -0.670779 0
M  V30 24 H 3.7063 0.854708 -1.12691 0
M  V30 25 H 1.71781 0.218019 -2.15061 0
M  V30 26 H 2.57809 -1.33378 -2.26176 0
M  V30 27 H 1.52173 -2.16149 -0.214415 0
M  V30 28 H 0.315359 -1.55823 -1.47284 0
M  V30 END ATOM
M  V30 BEGIN BOND
M  V30 1 1 1 2
M  V30 2 2 2 3
M  V30 3 1 3 4
M  V30 4 2 4 5
M  V30 5 1 5 6
M  V30 6 1 6 7
M  V30 7 2 6 8
M  V30 8 1 4 9
M  V30 9 1 9 10
M  V30 10 1 10 11
M  V30 11 1 11 12
M  V30 12 1 12 13
M  V30 13 1 13 14
M  V30 14 1 8 2
M  V30 15 1 14 9
M  V30 16 1 1 15
M  V30 17 1 1 16
M  V30 18 1 7 17
M  V30 19 1 7 18
M  V30 20 1 10 19
M  V30 21 1 10 20
M  V30 22 1 11 21
M  V30 23 1 11 22
M  V30 24 1 12 23
M  V30 25 1 12 24
M  V30 26 1 13 25
M  V30 27 1 13 26
M  V30 28 1 14 27
M  V30 29 1 14 28
M  V30 END BOND
M  V30 END CTAB
M  END
