
     RDKit          3D

  0  0  0  0  0  0  0  0  0  0999 V3000
M  V30 BEGIN CTAB
M  V30 COUNTS 46 45 0 0 0
M  V30 BEGIN ATOM
M  V30 1 C -2.0583 1.1956 1.13332 0 CFG=1
M  V30 2 N -2.65966 1.88724 0.0564274 0
M  V30 3 C -2.44124 -0.214504 1.34763 0
M  V30 4 C -2.18321 -1.18496 0.261649 0
M  V30 5 C -2.85371 -0.928801 -1.0463 0
M  V30 6 N -4.29839 -0.881802 -0.954743 0
M  V30 7 C -5.02762 -0.64874 -2.14091 0
M  V30 8 N -5.66051 0.592781 -2.35408 0
M  V30 9 N -5.11435 -1.5661 -3.0247 0
M  V30 10 C -0.587581 1.41991 1.10379 0
M  V30 11 O -0.120691 2.11332 0.161218 0
M  V30 12 N 0.240812 0.868413 2.1089 0
M  V30 13 C 1.64657 1.06869 2.10659 0
M  V30 14 C 2.30318 0.479873 0.889851 0
M  V30 15 O 1.57333 -0.102353 0.0792278 0
M  V30 16 N 3.67997 0.633741 0.767907 0
M  V30 17 C 4.54065 0.157534 -0.270269 0 CFG=1
M  V30 18 C 3.95899 -0.879195 -1.18822 0
M  V30 19 C 3.62223 -2.13232 -0.490682 0
M  V30 20 O 2.95771 -3.17522 -1.13182 0
M  V30 21 O 3.93361 -2.28866 0.718467 0
M  V30 22 C 5.23852 1.25579 -0.925899 0
M  V30 23 O 6.11676 0.977226 -1.96332 0
M  V30 24 O 5.10507 2.47246 -0.618121 0
M  V30 25 H -2.39113 1.74997 2.07618 0
M  V30 26 H -3.60653 2.21144 0.160499 0
M  V30 27 H -2.08509 2.19475 -0.710545 0
M  V30 28 H -1.8714 -0.582303 2.25294 0
M  V30 29 H -3.51818 -0.30067 1.71294 0
M  V30 30 H -1.079 -1.1849 0.061106 0
M  V30 31 H -2.41588 -2.23741 0.559261 0
M  V30 32 H -2.62502 -1.82955 -1.69614 0
M  V30 33 H -2.45406 -0.0450149 -1.53391 0
M  V30 34 H -4.79795 -1.01678 -0.0333258 0
M  V30 35 H -6.23099 0.764276 -3.23104 0
M  V30 36 H -5.61009 1.39427 -1.68609 0
M  V30 37 H -4.65231 -2.47209 -2.86956 0
M  V30 38 H -0.184875 0.290446 2.89228 0
M  V30 39 H 1.82642 2.1706 2.11243 0
M  V30 40 H 2.13209 0.609243 2.99878 0
M  V30 41 H 4.16276 1.19383 1.5793 0
M  V30 42 H 5.37439 -0.479064 0.278043 0
M  V30 43 H 3.09085 -0.488347 -1.75023 0
M  V30 44 H 4.7396 -1.09852 -1.98961 0
M  V30 45 H 3.37614 -3.5527 -1.99747 0
M  V30 46 H 6.90813 1.58861 -2.18431 0
M  V30 END ATOM
M  V30 BEGIN BOND
M  V30 1 1 1 2
M  V30 2 1 1 3
M  V30 3 1 3 4
M  V30 4 1 4 5
M  V30 5 1 5 6
M  V30 6 1 6 7
M  V30 7 1 7 8
M  V30 8 2 7 9 CFG=2
M  V30 9 1 1 10
M  V30 10 2 10 11
M  V30 11 1 10 12
M  V30 12 1 12 13
M  V30 13 1 13 14
M  V30 14 2 14 15
M  V30 15 1 14 16
M  V30 16 1 16 17
M  V30 17 1 17 18
M  V30 18 1 18 19
M  V30 19 1 19 20
M  V30 20 2 19 21
M  V30 21 1 17 22
M  V30 22 1 22 23
M  V30 23 2 22 24
M  V30 24 1 1 25 CFG=1
M  V30 25 1 2 26
M  V30 26 1 2 27
M  V30 27 1 3 28
M  V30 28 1 3 29
M  V30 29 1 4 30
M  V30 30 1 4 31
M  V30 31 1 5 32
M  V30 32 1 5 33
M  V30 33 1 6 34
M  V30 34 1 8 35
M  V30 35 1 8 36
M  V30 36 1 9 37
M  V30 37 1 12 38
M  V30 38 1 13 39
M  V30 39 1 13 40
M  V30 40 1 16 41
M  V30 41 1 17 42 CFG=1
M  V30 42 1 18 43
M  V30 43 1 18 44
M  V30 44 1 20 45
M  V30 45 1 23 46
M  V30 END BOND
M  V30 END CTAB
M  END
