
     RDKit          3D

  0  0  0  0  0  0  0  0  0  0999 V3000
M  V30 BEGIN CTAB
M  V30 COUNTS 16 16 0 0 0
M  V30 BEGIN ATOM
M  V30 1 N -2.96953 0.0905718 0.184021 0
M  V30 2 C -1.85334 -0.798249 0.131158 0
M  V30 3 C -0.546859 -0.0889887 0.140375 0
M  V30 4 N -0.292662 1.22861 0.189844 0
M  V30 5 N 1.00923 1.46043 0.179851 0
M  V30 6 C 1.62052 0.257889 0.122164 0
M  V30 7 C 0.659688 -0.758784 0.0953673 0
M  V30 8 N 3.00071 -0.0243999 0.090243 0
M  V30 9 H -2.78704 0.979524 0.665204 0
M  V30 10 H -3.41506 0.251769 -0.747448 0
M  V30 11 H -1.86181 -1.50463 1.00254 0
M  V30 12 H -1.91314 -1.40689 -0.795331 0
M  V30 13 H 1.50226 2.39873 0.21043 0
M  V30 14 H 0.827839 -1.82853 0.0496408 0
M  V30 15 H 3.48205 -0.13136 -0.814916 0
M  V30 16 H 3.53712 -0.125683 0.964754 0
M  V30 END ATOM
M  V30 BEGIN BOND
M  V30 1 1 1 2
M  V30 2 1 2 3
M  V30 3 2 3 4
M  V30 4 1 4 5
M  V30 5 1 5 6
M  V30 6 2 6 7
M  V30 7 1 6 8
M  V30 8 1 7 3
M  V30 9 1 1 9
M  V30 10 1 1 10
M  V30 11 1 2 11
M  V30 12 1 2 12
M  V30 13 1 5 13
M  V30 14 1 7 14
M  V30 15 1 8 15
M  V30 16 1 8 16
M  V30 END BOND
M  V30 END CTAB
M  END
