
     RDKit          3D

  0  0  0  0  0  0  0  0  0  0999 V3000
M  V30 BEGIN CTAB
M  V30 COUNTS 41 42 0 0 0
M  V30 BEGIN ATOM
M  V30 1 N -5.3279 -1.54613 -0.063219 0
M  V30 2 C -4.08662 -1.05239 0.522794 0
M  V30 3 C -3.4464 -0.0594395 -0.39453 0
M  V30 4 C -4.44184 1.09753 -0.589231 0
M  V30 5 C -4.05501 2.1327 0.464317 0
M  V30 6 C -2.56608 1.87564 0.584726 0
M  V30 7 N -2.31359 0.59614 0.0551666 0
M  V30 8 C -1.09439 -0.0373385 0.277156 0
M  V30 9 C -0.480135 -0.492592 -1.02574 0
M  V30 10 O 0.726827 -1.12689 -0.957604 0
M  V30 11 C 1.96499 -0.813771 -0.557103 0
M  V30 12 C 2.41133 0.377591 -0.0605225 0
M  V30 13 C 3.74154 0.59875 0.335 0
M  V30 14 C 4.65231 -0.408494 0.227587 0
M  V30 15 C 4.22793 -1.6059 -0.266182 0
M  V30 16 C 2.93843 -1.82347 -0.650508 0
M  V30 17 S 6.32911 -0.247692 0.684468 0
M  V30 18 O 6.78137 -1.57228 1.21789 0
M  V30 19 O 6.4043 0.780083 1.78081 0
M  V30 20 N 7.33663 0.220888 -0.607846 0
M  V30 21 H -5.75359 -2.31947 0.461415 0
M  V30 22 H -5.30878 -1.62178 -1.08601 0
M  V30 23 H -4.35981 -0.549444 1.4741 0
M  V30 24 H -3.46314 -1.9062 0.779291 0
M  V30 25 H -3.30202 -0.511408 -1.38826 0
M  V30 26 H -5.48789 0.73971 -0.399087 0
M  V30 27 H -4.2966 1.54582 -1.57672 0
M  V30 28 H -4.50913 1.92915 1.44285 0
M  V30 29 H -4.24195 3.16346 0.129374 0
M  V30 30 H -2.04405 2.63906 -0.067034 0
M  V30 31 H -2.18509 1.97436 1.60211 0
M  V30 32 H -0.39776 0.67483 0.751972 0
M  V30 33 H -1.11736 -0.908383 0.974225 0
M  V30 34 H -1.23071 -1.16527 -1.51398 0
M  V30 35 H -0.380912 0.378434 -1.72537 0
M  V30 36 H 1.70245 1.19335 0.0186106 0
M  V30 37 H 4.05413 1.54336 0.7194 0
M  V30 38 H 4.92795 -2.4315 -0.367014 0
M  V30 39 H 2.64377 -2.78538 -1.03737 0
M  V30 40 H 6.87057 0.77823 -1.3331 0
M  V30 41 H 8.17711 0.746127 -0.263703 0
M  V30 END ATOM
M  V30 BEGIN BOND
M  V30 1 1 1 2
M  V30 2 1 2 3
M  V30 3 1 3 4
M  V30 4 1 4 5
M  V30 5 1 5 6
M  V30 6 1 6 7
M  V30 7 1 7 8
M  V30 8 1 8 9
M  V30 9 1 9 10
M  V30 10 1 10 11
M  V30 11 2 11 12
M  V30 12 1 12 13
M  V30 13 2 13 14
M  V30 14 1 14 15
M  V30 15 2 15 16
M  V30 16 1 14 17
M  V30 17 2 17 18
M  V30 18 2 17 19
M  V30 19 1 17 20
M  V30 20 1 7 3
M  V30 21 1 16 11
M  V30 22 1 1 21
M  V30 23 1 1 22
M  V30 24 1 2 23
M  V30 25 1 2 24
M  V30 26 1 3 25
M  V30 27 1 4 26
M  V30 28 1 4 27
M  V30 29 1 5 28
M  V30 30 1 5 29
M  V30 31 1 6 30
M  V30 32 1 6 31
M  V30 33 1 8 32
M  V30 34 1 8 33
M  V30 35 1 9 34
M  V30 36 1 9 35
M  V30 37 1 12 36
M  V30 38 1 13 37
M  V30 39 1 15 38
M  V30 40 1 16 39
M  V30 41 1 20 40
M  V30 42 1 20 41
M  V30 END BOND
M  V30 END CTAB
M  END
