
     RDKit          3D

  0  0  0  0  0  0  0  0  0  0999 V3000
M  V30 BEGIN CTAB
M  V30 COUNTS 51 54 0 0 0
M  V30 BEGIN ATOM
M  V30 1 N -6.37853 -1.89178 0.282448 0
M  V30 2 C -5.71257 -0.755633 0.848471 0
M  V30 3 C -6.4087 0.543476 0.528049 0
M  V30 4 C -5.44911 1.38747 -0.262969 0
M  V30 5 C -4.33107 0.505804 -0.713615 0
M  V30 6 C -4.34157 -0.634812 0.273247 0
M  V30 7 C -3.35823 -0.137962 1.3195 0
M  V30 8 N -2.27321 0.335543 0.447063 0
M  V30 9 C -2.96489 1.16952 -0.513135 0
M  V30 10 C -0.929281 -0.00812488 0.613099 0
M  V30 11 O -0.619441 -0.77562 1.5832 0
M  V30 12 C 0.176655 0.447749 -0.251842 0
M  V30 13 C 1.515 -0.0530963 0.307166 0
M  V30 14 N 2.35738 0.122871 -0.873734 0
M  V30 15 C 1.57314 -0.036349 -2.04192 0
M  V30 16 O 1.95643 0.0208556 -3.22713 0
M  V30 17 C 0.181551 -0.289467 -1.59883 0
M  V30 18 C 3.74911 0.409608 -0.81145 0
M  V30 19 C 4.17189 1.70739 -1.0018 0
M  V30 20 C 5.52165 1.99245 -0.946337 0
M  V30 21 C 6.45354 0.975528 -0.699685 0
M  V30 22 C 6.03278 -0.320795 -0.509472 0
M  V30 23 C 4.68818 -0.592447 -0.566675 0
M  V30 24 S 7.14535 -1.62448 -0.201025 0
M  V30 25 O 8.43083 -1.4476 -0.942991 0
M  V30 26 O 6.51391 -2.90247 -0.714954 0
M  V30 27 N 7.38023 -1.75785 1.50012 0
M  V30 28 H -6.74808 -2.54178 1.03129 0
M  V30 29 H -5.69898 -2.46368 -0.263019 0
M  V30 30 H -5.58862 -0.90205 1.95797 0
M  V30 31 H -6.60555 1.05595 1.50242 0
M  V30 32 H -7.36275 0.351826 0.0194613 0
M  V30 33 H -5.02556 2.2292 0.352426 0
M  V30 34 H -6.00373 1.87929 -1.082 0
M  V30 35 H -4.4541 0.161017 -1.76603 0
M  V30 36 H -4.01375 -1.59067 -0.178049 0
M  V30 37 H -3.82825 0.732479 1.82844 0
M  V30 38 H -3.02289 -0.931237 1.99643 0
M  V30 39 H -2.41549 1.30624 -1.43584 0
M  V30 40 H -3.1683 2.14479 0.0172312 0
M  V30 41 H 0.204014 1.51839 -0.437761 0
M  V30 42 H 1.38593 -1.13655 0.521113 0
M  V30 43 H 1.85835 0.537618 1.15732 0
M  V30 44 H 0.0443389 -1.38505 -1.4064 0
M  V30 45 H -0.57113 0.0820186 -2.29382 0
M  V30 46 H 3.44387 2.49858 -1.19241 0
M  V30 47 H 5.86869 3.01666 -1.09512 0
M  V30 48 H 7.5038 1.19018 -0.651375 0
M  V30 49 H 4.31896 -1.58838 -0.424185 0
M  V30 50 H 8.23621 -1.21714 1.80555 0
M  V30 51 H 6.56203 -1.33749 1.98775 0
M  V30 END ATOM
M  V30 BEGIN BOND
M  V30 1 1 1 2
M  V30 2 1 2 3
M  V30 3 1 3 4
M  V30 4 1 4 5
M  V30 5 1 5 6
M  V30 6 1 6 7
M  V30 7 1 7 8
M  V30 8 1 8 9
M  V30 9 1 8 10
M  V30 10 2 10 11
M  V30 11 1 10 12
M  V30 12 1 12 13
M  V30 13 1 13 14
M  V30 14 1 14 15
M  V30 15 2 15 16
M  V30 16 1 15 17
M  V30 17 1 14 18
M  V30 18 2 18 19
M  V30 19 1 19 20
M  V30 20 2 20 21
M  V30 21 1 21 22
M  V30 22 2 22 23
M  V30 23 1 22 24
M  V30 24 2 24 25
M  V30 25 2 24 26
M  V30 26 1 24 27
M  V30 27 1 6 2
M  V30 28 1 17 12
M  V30 29 1 23 18
M  V30 30 1 9 5
M  V30 31 1 1 28
M  V30 32 1 1 29
M  V30 33 1 2 30
M  V30 34 1 3 31
M  V30 35 1 3 32
M  V30 36 1 4 33
M  V30 37 1 4 34
M  V30 38 1 5 35
M  V30 39 1 6 36
M  V30 40 1 7 37
M  V30 41 1 7 38
M  V30 42 1 9 39
M  V30 43 1 9 40
M  V30 44 1 12 41
M  V30 45 1 13 42
M  V30 46 1 13 43
M  V30 47 1 17 44
M  V30 48 1 17 45
M  V30 49 1 19 46
M  V30 50 1 20 47
M  V30 51 1 21 48
M  V30 52 1 23 49
M  V30 53 1 27 50
M  V30 54 1 27 51
M  V30 END BOND
M  V30 END CTAB
M  END
