
     RDKit          3D

  0  0  0  0  0  0  0  0  0  0999 V3000
M  V30 BEGIN CTAB
M  V30 COUNTS 50 51 0 0 0
M  V30 BEGIN ATOM
M  V30 1 C 1.91962 -1.23209 0.704076 0 CFG=1
M  V30 2 N 2.10089 -2.25801 -0.295812 0
M  V30 3 C 2.65388 0.0367723 0.381991 0
M  V30 4 C 4.13205 -0.291629 0.288854 0
M  V30 5 C 4.84778 1.01535 -0.0361106 0
M  V30 6 N 6.2745 0.805675 -0.147339 0
M  V30 7 C 7.08773 1.93021 -0.447151 0
M  V30 8 N 7.97109 1.83806 -1.55073 0
M  V30 9 N 6.9991 2.98652 0.28398 0
M  V30 10 C 0.487587 -0.936954 0.928316 0
M  V30 11 O 0.107083 -0.0679942 1.74114 0
M  V30 12 N -0.466882 -1.6666 0.195058 0
M  V30 13 C -1.88891 -1.36712 0.423421 0 CFG=1
M  V30 14 C -2.39112 -0.823929 -0.880425 0
M  V30 15 C -3.8179 -0.480745 -0.776497 0
M  V30 16 C -4.91354 -1.17008 -1.30332 0
M  V30 17 N -6.03767 -0.523422 -0.995843 0
M  V30 18 C -5.77051 0.585458 -0.278186 0
M  V30 19 C -4.38866 0.614514 -0.140083 0
M  V30 20 C -3.82607 1.65425 0.558582 0
M  V30 21 C -4.61981 2.64257 1.10735 0
M  V30 22 C -6.00794 2.63044 0.979166 0
M  V30 23 C -6.55292 1.57714 0.273718 0
M  V30 24 C -2.54393 -2.6156 0.860018 0
M  V30 25 O -3.88968 -2.6506 1.17804 0
M  V30 26 O -1.88786 -3.68104 0.953589 0
M  V30 27 H 2.32424 -1.66049 1.65407 0
M  V30 28 H 1.91139 -3.203 0.0700549 0
M  V30 29 H 1.63907 -2.08153 -1.19287 0
M  V30 30 H 2.46104 0.764798 1.17347 0
M  V30 31 H 2.26678 0.39355 -0.612068 0
M  V30 32 H 4.45728 -0.731489 1.23206 0
M  V30 33 H 4.30821 -1.01602 -0.523078 0
M  V30 34 H 4.68963 1.76003 0.769869 0
M  V30 35 H 4.41333 1.41342 -0.964108 0
M  V30 36 H 6.66753 -0.145067 -0.00833939 0
M  V30 37 H 7.66978 2.1957 -2.47343 0
M  V30 38 H 8.90349 1.41516 -1.41758 0
M  V30 39 H 6.36427 3.07402 1.09012 0
M  V30 40 H -0.245491 -2.4043 -0.498936 0
M  V30 41 H -2.00011 -0.556338 1.18614 0
M  V30 42 H -2.25748 -1.55734 -1.71961 0
M  V30 43 H -1.80548 0.0746547 -1.17696 0
M  V30 44 H -4.82767 -2.08661 -1.87012 0
M  V30 45 H -7.02644 -0.78976 -1.24871 0
M  V30 46 H -2.74294 1.67092 0.662862 0
M  V30 47 H -4.12775 3.44145 1.64886 0
M  V30 48 H -6.59637 3.42683 1.42445 0
M  V30 49 H -7.62004 1.54094 0.159231 0
M  V30 50 H -4.40417 -3.49067 0.95068 0
M  V30 END ATOM
M  V30 BEGIN BOND
M  V30 1 1 1 2
M  V30 2 1 1 3
M  V30 3 1 3 4
M  V30 4 1 4 5
M  V30 5 1 5 6
M  V30 6 1 6 7
M  V30 7 1 7 8
M  V30 8 2 7 9 CFG=2
M  V30 9 1 1 10
M  V30 10 2 10 11
M  V30 11 1 10 12
M  V30 12 1 12 13
M  V30 13 1 13 14
M  V30 14 1 14 15
M  V30 15 2 15 16
M  V30 16 1 16 17
M  V30 17 1 17 18
M  V30 18 2 18 19
M  V30 19 1 19 20
M  V30 20 2 20 21
M  V30 21 1 21 22
M  V30 22 2 22 23
M  V30 23 1 13 24
M  V30 24 1 24 25
M  V30 25 2 24 26
M  V30 26 1 19 15
M  V30 27 1 23 18
M  V30 28 1 1 27 CFG=1
M  V30 29 1 2 28
M  V30 30 1 2 29
M  V30 31 1 3 30
M  V30 32 1 3 31
M  V30 33 1 4 32
M  V30 34 1 4 33
M  V30 35 1 5 34
M  V30 36 1 5 35
M  V30 37 1 6 36
M  V30 38 1 8 37
M  V30 39 1 8 38
M  V30 40 1 9 39
M  V30 41 1 12 40
M  V30 42 1 13 41 CFG=1
M  V30 43 1 14 42
M  V30 44 1 14 43
M  V30 45 1 16 44
M  V30 46 1 17 45
M  V30 47 1 20 46
M  V30 48 1 21 47
M  V30 49 1 22 48
M  V30 50 1 23 49
M  V30 51 1 25 50
M  V30 END BOND
M  V30 END CTAB
M  END
