
     RDKit          3D

  0  0  0  0  0  0  0  0  0  0999 V3000
M  V30 BEGIN CTAB
M  V30 COUNTS 51 53 0 0 0
M  V30 BEGIN ATOM
M  V30 1 O 2.09866 -1.41705 -0.722317 0
M  V30 2 C 1.81672 -1.78672 0.443069 0
M  V30 3 C 2.78289 -2.63803 1.18649 0
M  V30 4 S 4.25848 -2.96207 0.145676 0
M  V30 5 C 5.1429 -1.43573 -0.127253 0
M  V30 6 N 6.25831 -1.48018 -0.873806 0
M  V30 7 C 6.93606 -0.31464 -1.08384 0
M  V30 8 N 8.10802 -0.379979 -1.87215 0
M  V30 9 C 6.46592 0.859177 -0.533249 0
M  V30 10 C 5.32937 0.865952 0.21957 0
M  V30 11 N 4.67947 -0.293873 0.412361 0
M  V30 12 N 4.84361 2.08222 0.789215 0
M  V30 13 N 0.599913 -1.3906 1.01873 0
M  V30 14 C -0.313504 -0.568804 0.278042 0
M  V30 15 C -1.57172 -0.254968 1.08918 0
M  V30 16 C -2.43643 0.609191 0.195833 0
M  V30 17 C -2.811 -0.0707216 -1.06525 0
M  V30 18 C -3.17032 -1.4026 -1.08094 0
M  V30 19 C -3.51291 -2.01568 -2.25287 0
M  V30 20 C -3.51894 -1.35033 -3.46466 0
M  V30 21 C -3.16256 -0.0214867 -3.46313 0
M  V30 22 C -2.81358 0.610846 -2.2831 0
M  V30 23 C -3.58456 1.20434 0.903461 0
M  V30 24 C -4.30452 0.487396 1.83972 0
M  V30 25 C -5.37407 1.0707 2.48606 0
M  V30 26 C -5.77521 2.36849 2.24108 0
M  V30 27 C -5.05648 3.08487 1.30615 0
M  V30 28 C -3.98206 2.50403 0.654555 0
M  V30 29 H 3.1383 -2.03417 2.04377 0
M  V30 30 H 2.32946 -3.59782 1.48271 0
M  V30 31 H 8.08776 -0.866326 -2.79406 0
M  V30 32 H 8.9913 0.0405747 -1.56465 0
M  V30 33 H 7.03054 1.75989 -0.722647 0
M  V30 34 H 4.45791 2.04589 1.76754 0
M  V30 35 H 4.85565 2.99333 0.281099 0
M  V30 36 H 0.356876 -1.68872 1.97729 0
M  V30 37 H -0.548499 -1.05328 -0.681323 0
M  V30 38 H 0.20175 0.424593 0.120456 0
M  V30 39 H -1.25867 0.394065 1.9399 0
M  V30 40 H -2.0721 -1.16425 1.43442 0
M  V30 41 H -1.76767 1.46635 -0.116293 0
M  V30 42 H -3.16255 -1.92087 -0.11582 0
M  V30 43 H -3.79044 -3.05911 -2.23965 0
M  V30 44 H -3.79683 -1.87112 -4.37438 0
M  V30 45 H -3.14977 0.540729 -4.36969 0
M  V30 46 H -2.52624 1.669 -2.25854 0
M  V30 47 H -3.98826 -0.540896 2.03508 0
M  V30 48 H -5.92799 0.491034 3.21946 0
M  V30 49 H -6.62508 2.81501 2.76202 0
M  V30 50 H -5.35526 4.12043 1.0927 0
M  V30 51 H -3.41262 3.07193 -0.086681 0
M  V30 END ATOM
M  V30 BEGIN BOND
M  V30 1 2 1 2
M  V30 2 1 2 3
M  V30 3 1 3 4
M  V30 4 1 4 5
M  V30 5 2 5 6
M  V30 6 1 6 7
M  V30 7 1 7 8
M  V30 8 2 7 9
M  V30 9 1 9 10
M  V30 10 2 10 11
M  V30 11 1 10 12
M  V30 12 1 2 13
M  V30 13 1 13 14
M  V30 14 1 14 15
M  V30 15 1 15 16
M  V30 16 1 16 17
M  V30 17 2 17 18
M  V30 18 1 18 19
M  V30 19 2 19 20
M  V30 20 1 20 21
M  V30 21 2 21 22
M  V30 22 1 16 23
M  V30 23 2 23 24
M  V30 24 1 24 25
M  V30 25 2 25 26
M  V30 26 1 26 27
M  V30 27 2 27 28
M  V30 28 1 11 5
M  V30 29 1 22 17
M  V30 30 1 28 23
M  V30 31 1 3 29
M  V30 32 1 3 30
M  V30 33 1 8 31
M  V30 34 1 8 32
M  V30 35 1 9 33
M  V30 36 1 12 34
M  V30 37 1 12 35
M  V30 38 1 13 36
M  V30 39 1 14 37
M  V30 40 1 14 38
M  V30 41 1 15 39
M  V30 42 1 15 40
M  V30 43 1 16 41
M  V30 44 1 18 42
M  V30 45 1 19 43
M  V30 46 1 20 44
M  V30 47 1 21 45
M  V30 48 1 22 46
M  V30 49 1 24 47
M  V30 50 1 25 48
M  V30 51 1 26 49
M  V30 52 1 27 50
M  V30 53 1 28 51
M  V30 END BOND
M  V30 END CTAB
M  END
