
     RDKit          3D

  0  0  0  0  0  0  0  0  0  0999 V3000
M  V30 BEGIN CTAB
M  V30 COUNTS 35 34 0 0 0
M  V30 BEGIN ATOM
M  V30 1 C 3.18612 1.53868 -0.573606 0
M  V30 2 C 2.58845 0.291822 0.0930787 0
M  V30 3 C 2.82152 0.489971 1.59111 0
M  V30 4 C 3.36082 -0.911937 -0.334956 0
M  V30 5 O 1.23643 0.265486 -0.235819 0
M  V30 6 C 0.321917 -0.682241 0.15305 0
M  V30 7 O 0.733508 -1.6232 0.877028 0
M  V30 8 N -1.07514 -0.62118 -0.244812 0
M  V30 9 C -1.51421 0.474961 -1.07776 0
M  V30 10 C -1.92836 1.64293 -0.264605 0
M  V30 11 N -2.34362 2.68879 -1.19003 0
M  V30 12 C -2.01142 -1.62174 0.125818 0
M  V30 13 C -2.73923 -1.45694 1.40759 0
M  V30 14 N -3.61612 -2.64301 1.53602 0
M  V30 15 H 2.752 2.46286 -0.113379 0
M  V30 16 H 4.28971 1.52324 -0.50344 0
M  V30 17 H 2.93108 1.58146 -1.64631 0
M  V30 18 H 3.89 0.700369 1.7612 0
M  V30 19 H 2.28704 1.45301 1.83674 0
M  V30 20 H 2.40599 -0.316546 2.19251 0
M  V30 21 H 4.27349 -0.607287 -0.918369 0
M  V30 22 H 2.78135 -1.63256 -0.945185 0
M  V30 23 H 3.78352 -1.49387 0.535499 0
M  V30 24 H -2.34739 0.143605 -1.76557 0
M  V30 25 H -0.718934 0.814983 -1.77643 0
M  V30 26 H -1.04838 2.03031 0.280685 0
M  V30 27 H -2.70898 1.38305 0.440166 0
M  V30 28 H -3.05183 3.32153 -0.774468 0
M  V30 29 H -1.5263 3.20217 -1.58428 0
M  V30 30 H -1.46574 -2.61489 0.0750447 0
M  V30 31 H -2.76497 -1.70557 -0.715936 0
M  V30 32 H -2.08606 -1.38386 2.27979 0
M  V30 33 H -3.45736 -0.614242 1.36105 0
M  V30 34 H -4.26315 -2.6146 0.725991 0
M  V30 35 H -2.97575 -3.46554 1.42753 0
M  V30 END ATOM
M  V30 BEGIN BOND
M  V30 1 1 1 2
M  V30 2 1 2 3
M  V30 3 1 2 4
M  V30 4 1 2 5
M  V30 5 1 5 6
M  V30 6 2 6 7
M  V30 7 1 6 8
M  V30 8 1 8 9
M  V30 9 1 9 10
M  V30 10 1 10 11
M  V30 11 1 8 12
M  V30 12 1 12 13
M  V30 13 1 13 14
M  V30 14 1 1 15
M  V30 15 1 1 16
M  V30 16 1 1 17
M  V30 17 1 3 18
M  V30 18 1 3 19
M  V30 19 1 3 20
M  V30 20 1 4 21
M  V30 21 1 4 22
M  V30 22 1 4 23
M  V30 23 1 9 24
M  V30 24 1 9 25
M  V30 25 1 10 26
M  V30 26 1 10 27
M  V30 27 1 11 28
M  V30 28 1 11 29
M  V30 29 1 12 30
M  V30 30 1 12 31
M  V30 31 1 13 32
M  V30 32 1 13 33
M  V30 33 1 14 34
M  V30 34 1 14 35
M  V30 END BOND
M  V30 END CTAB
M  END
