
     RDKit          3D

  0  0  0  0  0  0  0  0  0  0999 V3000
M  V30 BEGIN CTAB
M  V30 COUNTS 20 20 0 0 0
M  V30 BEGIN ATOM
M  V30 1 N -2.629 -1.69744 -0.210261 0
M  V30 2 C -1.74246 -0.596257 -0.0671092 0
M  V30 3 C -2.1958 0.705905 0.0497651 0
M  V30 4 C -1.37589 1.79457 0.189235 0
M  V30 5 C -0.00681522 1.59511 0.216595 0
M  V30 6 C 0.484177 0.318168 0.103781 0
M  V30 7 C -0.376166 -0.775621 -0.037704 0
M  V30 8 S 2.22549 0.024515 0.141085 0
M  V30 9 O 2.87871 0.741305 -1.00276 0
M  V30 10 O 2.82252 0.5178 1.40481 0
M  V30 11 N 2.5309 -1.67642 -0.0413561 0
M  V30 12 O 0.874233 2.65877 0.35491 0
M  V30 13 H -3.60904 -1.55406 -0.530132 0
M  V30 14 H -2.32153 -2.65864 -0.00108626 0
M  V30 15 H -3.26983 0.83876 0.0258938 0
M  V30 16 H -1.7539 2.81176 0.279701 0
M  V30 17 H 0.069607 -1.77792 -0.124274 0
M  V30 18 H 3.53269 -1.77955 -0.244634 0
M  V30 19 H 1.99921 -1.99247 -0.876152 0
M  V30 20 H 1.8629 2.50172 0.369695 0
M  V30 END ATOM
M  V30 BEGIN BOND
M  V30 1 1 1 2
M  V30 2 2 2 3
M  V30 3 1 3 4
M  V30 4 2 4 5
M  V30 5 1 5 6
M  V30 6 2 6 7
M  V30 7 1 6 8
M  V30 8 2 8 9
M  V30 9 2 8 10
M  V30 10 1 8 11
M  V30 11 1 5 12
M  V30 12 1 7 2
M  V30 13 1 1 13
M  V30 14 1 1 14
M  V30 15 1 3 15
M  V30 16 1 4 16
M  V30 17 1 7 17
M  V30 18 1 11 18
M  V30 19 1 11 19
M  V30 20 1 12 20
M  V30 END BOND
M  V30 END CTAB
M  END
