
     RDKit          3D

  0  0  0  0  0  0  0  0  0  0999 V3000
M  V30 BEGIN CTAB
M  V30 COUNTS 81 86 0 0 0
M  V30 BEGIN ATOM
M  V30 1 N 13.6075 -1.94425 0.934624 0
M  V30 2 C 12.6466 -0.999191 1.36209 0
M  V30 3 N 12.987 0.0441754 2.12471 0
M  V30 4 C 12.0509 0.950818 2.53188 0
M  V30 5 N 10.7687 0.798133 2.16468 0
M  V30 6 C 10.3553 -0.23829 1.3916 0
M  V30 7 C 11.3312 -1.14772 0.990821 0
M  V30 8 N 10.6776 -2.06181 0.248843 0
M  V30 9 C 9.37268 -1.72642 0.200627 0
M  V30 10 N 9.16159 -0.611182 0.896599 0
M  V30 11 C 7.93587 0.122011 1.12864 0 CFG=2
M  V30 12 O 6.84403 -0.615917 0.705455 0
M  V30 13 C 5.79722 0.23294 0.458401 0 CFG=2
M  V30 14 C 5.07251 -0.122293 -0.843374 0
M  V30 15 O 4.00995 0.773465 -1.05238 0
M  V30 16 P 3.17692 0.440599 -2.46001 0
M  V30 17 O 3.60357 -1.08402 -3.06439 0
M  V30 18 O 3.48861 1.4671 -3.55329 0
M  V30 19 O 1.49867 0.465973 -2.25861 0
M  V30 20 P 1.03472 -0.275121 -0.817173 0
M  V30 21 O 1.79283 -1.80565 -0.767647 0
M  V30 22 O 1.46878 0.571339 0.331431 0
M  V30 23 O -0.635281 -0.430003 -0.794215 0
M  V30 24 P -1.24896 -0.0804457 0.720579 0
M  V30 25 O -0.075565 -0.300923 1.91741 0
M  V30 26 O -2.41686 -1.00606 1.07254 0
M  V30 27 O -1.83843 1.50316 0.816348 0
M  V30 28 P -2.78553 1.88423 -0.532805 0
M  V30 29 O -1.84029 1.97135 -1.9389 0
M  V30 30 O -3.45028 3.21228 -0.264741 0
M  V30 31 O -3.98588 0.738957 -0.7894 0
M  V30 32 C -5.04976 0.891098 0.104824 0
M  V30 33 C -6.0723 -0.192285 -0.216864 0 CFG=1
M  V30 34 O -7.16431 -0.117937 0.622511 0
M  V30 35 C -8.20085 -0.706887 -0.0973405 0 CFG=2
M  V30 36 C -8.07994 -0.0804246 -1.43554 0 CFG=2
M  V30 37 O -8.628 -0.84859 -2.46645 0
M  V30 38 C -6.55323 -0.0845435 -1.62483 0 CFG=2
M  V30 39 O -6.13548 -1.20977 -2.31805 0
M  V30 40 N -9.46447 -0.605062 0.536068 0
M  V30 41 C -9.70741 -1.08998 1.76937 0
M  V30 42 N -10.9891 -0.839119 2.08677 0
M  V30 43 C -11.596 -0.192473 1.07402 0
M  V30 44 C -10.6124 -0.0564219 0.106543 0
M  V30 45 N -10.8844 0.547829 -1.03995 0
M  V30 46 C -12.1247 1.02348 -1.24589 0
M  V30 47 N -13.1103 0.902382 -0.309988 0
M  V30 48 C -12.8789 0.29627 0.868163 0
M  V30 49 N -13.8526 0.136644 1.88069 0
M  V30 50 C 6.34549 1.63303 0.315026 0 CFG=1
M  V30 51 O 6.15821 2.33046 1.52022 0
M  V30 52 C 7.85003 1.34738 0.22447 0 CFG=1
M  V30 53 O 8.59856 2.40114 0.684553 0
M  V30 54 H 14.5609 -1.69697 0.588399 0
M  V30 55 H 13.4029 -2.9846 0.944092 0
M  V30 56 H 12.3463 1.78648 3.14747 0
M  V30 57 H 8.59107 -2.26608 -0.319666 0
M  V30 58 H 7.81394 0.416781 2.18258 0
M  V30 59 H 5.06292 0.143109 1.28684 0
M  V30 60 H 4.61215 -1.12752 -0.748382 0
M  V30 61 H 5.76671 -0.149664 -1.69196 0
M  V30 62 H 4.57387 -1.04075 -3.34102 0
M  V30 63 H 1.14964 -2.48232 -0.467775 0
M  V30 64 H -0.464559 -0.532999 2.78591 0
M  V30 65 H -2.10437 1.28833 -2.60152 0
M  V30 66 H -5.49078 1.89797 -0.0290088 0
M  V30 67 H -4.70879 0.803419 1.14132 0
M  V30 68 H -5.55504 -1.17281 -0.0162203 0
M  V30 69 H -7.96882 -1.80146 -0.215994 0
M  V30 70 H -8.37135 0.974195 -1.48386 0
M  V30 71 H -8.09036 -1.65246 -2.64 0
M  V30 72 H -6.21057 0.848965 -2.11484 0
M  V30 73 H -5.60543 -0.99145 -3.11243 0
M  V30 74 H -9.02929 -1.60183 2.43672 0
M  V30 75 H -12.3629 1.52546 -2.19027 0
M  V30 76 H -14.461 -0.681132 1.89903 0
M  V30 77 H -13.9412 0.867433 2.61048 0
M  V30 78 H 5.96968 2.17486 -0.550202 0
M  V30 79 H 5.2873 2.79679 1.53404 0
M  V30 80 H 8.05151 1.05203 -0.816405 0
M  V30 81 H 8.92157 2.92067 -0.116004 0
M  V30 END ATOM
M  V30 BEGIN BOND
M  V30 1 1 1 2
M  V30 2 2 2 3
M  V30 3 1 3 4
M  V30 4 2 4 5
M  V30 5 1 5 6
M  V30 6 2 6 7
M  V30 7 1 7 8
M  V30 8 2 8 9
M  V30 9 1 9 10
M  V30 10 1 10 11
M  V30 11 1 11 12
M  V30 12 1 12 13
M  V30 13 1 13 14
M  V30 14 1 14 15
M  V30 15 1 15 16
M  V30 16 1 16 17
M  V30 17 2 16 18
M  V30 18 1 16 19
M  V30 19 1 19 20
M  V30 20 1 20 21
M  V30 21 2 20 22
M  V30 22 1 20 23
M  V30 23 1 23 24
M  V30 24 1 24 25
M  V30 25 2 24 26
M  V30 26 1 24 27
M  V30 27 1 27 28
M  V30 28 1 28 29
M  V30 29 2 28 30
M  V30 30 1 28 31
M  V30 31 1 31 32
M  V30 32 1 32 33
M  V30 33 1 33 34
M  V30 34 1 34 35
M  V30 35 1 35 36
M  V30 36 1 36 37
M  V30 37 1 36 38
M  V30 38 1 38 39
M  V30 39 1 35 40
M  V30 40 1 40 41
M  V30 41 2 41 42
M  V30 42 1 42 43
M  V30 43 2 43 44
M  V30 44 1 44 45
M  V30 45 2 45 46
M  V30 46 1 46 47
M  V30 47 2 47 48
M  V30 48 1 48 49
M  V30 49 1 13 50
M  V30 50 1 50 51
M  V30 51 1 50 52
M  V30 52 1 52 53
M  V30 53 1 7 2
M  V30 54 1 52 11
M  V30 55 1 10 6
M  V30 56 1 38 33
M  V30 57 1 44 40
M  V30 58 1 48 43
M  V30 59 1 1 54
M  V30 60 1 1 55
M  V30 61 1 4 56
M  V30 62 1 9 57
M  V30 63 1 11 58 CFG=1
M  V30 64 1 13 59 CFG=1
M  V30 65 1 14 60
M  V30 66 1 14 61
M  V30 67 1 17 62
M  V30 68 1 21 63
M  V30 69 1 25 64
M  V30 70 1 29 65
M  V30 71 1 32 66
M  V30 72 1 32 67
M  V30 73 1 33 68 CFG=3
M  V30 74 1 35 69 CFG=3
M  V30 75 1 36 70 CFG=1
M  V30 76 1 37 71
M  V30 77 1 38 72 CFG=3
M  V30 78 1 39 73
M  V30 79 1 41 74
M  V30 80 1 46 75
M  V30 81 1 49 76
M  V30 82 1 49 77
M  V30 83 1 50 78 CFG=3
M  V30 84 1 51 79
M  V30 85 1 52 80 CFG=3
M  V30 86 1 53 81
M  V30 END BOND
M  V30 END CTAB
M  END
