
     RDKit          3D

  0  0  0  0  0  0  0  0  0  0999 V3000
M  V30 BEGIN CTAB
M  V30 COUNTS 28 29 0 0 0
M  V30 BEGIN ATOM
M  V30 1 C 3.97774 0.461057 -0.820683 0
M  V30 2 C 3.40076 -0.700353 -0.0589127 0
M  V30 3 C 2.79148 -0.486856 1.29969 0
M  V30 4 C 1.89392 -0.738324 0.134042 0
M  V30 5 N 1.14227 0.380806 -0.397585 0
M  V30 6 C -0.276889 0.414063 -0.251881 0
M  V30 7 C -1.02693 1.46041 -0.746199 0
M  V30 8 C -2.40163 1.50776 -0.6133 0
M  V30 9 C -3.08344 0.493306 0.0291283 0
M  V30 10 C -2.35068 -0.562494 0.530706 0
M  V30 11 C -0.961264 -0.596991 0.388963 0
M  V30 12 N -3.06495 -1.6016 1.19058 0
M  V30 13 N -4.50086 0.509248 0.184418 0
M  V30 14 H 3.37587 0.603303 -1.76534 0
M  V30 15 H 5.01653 0.242958 -1.12058 0
M  V30 16 H 3.88456 1.38823 -0.210079 0
M  V30 17 H 3.94975 -1.64891 -0.15918 0
M  V30 18 H 2.89308 0.545002 1.69282 0
M  V30 19 H 2.93143 -1.26073 2.08382 0
M  V30 20 H 1.43218 -1.75998 0.0453368 0
M  V30 21 H 1.62246 1.16665 -0.887449 0
M  V30 22 H -0.498102 2.26339 -1.25344 0
M  V30 23 H -2.98552 2.33835 -1.00701 0
M  V30 24 H -0.434829 -1.44898 0.801364 0
M  V30 25 H -3.90141 -1.42235 1.76164 0
M  V30 26 H -2.71526 -2.57814 1.0821 0
M  V30 27 H -4.95598 0.673439 1.11315 0
M  V30 28 H -5.15426 0.357744 -0.621635 0
M  V30 END ATOM
M  V30 BEGIN BOND
M  V30 1 1 1 2
M  V30 2 1 2 3
M  V30 3 1 3 4
M  V30 4 1 4 5
M  V30 5 1 5 6
M  V30 6 2 6 7
M  V30 7 1 7 8
M  V30 8 2 8 9
M  V30 9 1 9 10
M  V30 10 2 10 11
M  V30 11 1 10 12
M  V30 12 1 9 13
M  V30 13 1 4 2
M  V30 14 1 11 6
M  V30 15 1 1 14
M  V30 16 1 1 15
M  V30 17 1 1 16
M  V30 18 1 2 17
M  V30 19 1 3 18
M  V30 20 1 3 19
M  V30 21 1 4 20
M  V30 22 1 5 21
M  V30 23 1 7 22
M  V30 24 1 8 23
M  V30 25 1 11 24
M  V30 26 1 12 25
M  V30 27 1 12 26
M  V30 28 1 13 27
M  V30 29 1 13 28
M  V30 END BOND
M  V30 END CTAB
M  END
