
     RDKit          3D

  0  0  0  0  0  0  0  0  0  0999 V3000
M  V30 BEGIN CTAB
M  V30 COUNTS 65 69 0 0 0
M  V30 BEGIN ATOM
M  V30 1 C -0.351966 6.71987 -0.257607 0
M  V30 2 C 0.854828 5.86948 -0.00455978 0
M  V30 3 C 0.638404 4.46661 -0.413079 0
M  V30 4 C 0.123635 3.59415 0.523588 0
M  V30 5 C -0.10795 2.27104 0.225935 0
M  V30 6 C 0.166713 1.76411 -1.02495 0
M  V30 7 C 0.680881 2.64693 -1.95147 0
M  V30 8 C 0.91119 3.97099 -1.64915 0
M  V30 9 C -0.0820471 0.354151 -1.32614 0
M  V30 10 C -1.43261 -0.126 -0.88839 0
M  V30 11 C -2.62128 0.309393 -1.44664 0
M  V30 12 C -2.76861 1.29436 -2.53428 0
M  V30 13 N -3.62554 -0.321753 -0.825788 0
M  V30 14 N -3.11041 -1.12687 0.090343 0
M  V30 15 C -1.75902 -1.0434 0.0924069 0
M  V30 16 N -0.871126 -1.75811 0.933258 0
M  V30 17 C -3.92966 -1.93917 0.920233 0
M  V30 18 C -4.61895 -1.46858 2.00046 0
M  V30 19 C -5.39256 -2.31381 2.75753 0
M  V30 20 C -5.50142 -3.65303 2.45931 0
M  V30 21 C -4.81343 -4.15009 1.37205 0
M  V30 22 C -4.03923 -3.28349 0.621407 0
M  V30 23 C 0.995093 -0.590261 -1.05143 0
M  V30 24 C 1.2334 -1.72144 -1.84034 0
M  V30 25 C 0.489013 -2.18345 -3.03789 0
M  V30 26 N 2.28527 -2.35864 -1.32851 0
M  V30 27 N 2.75704 -1.74407 -0.27352 0
M  V30 28 C 1.97165 -0.644082 -0.0837236 0
M  V30 29 N 2.18608 0.269553 0.964536 0
M  V30 30 C 3.87486 -2.13379 0.536884 0
M  V30 31 C 3.67248 -2.49673 1.85215 0
M  V30 32 C 4.74891 -2.88079 2.65908 0
M  V30 33 C 6.02705 -2.89899 2.14112 0
M  V30 34 C 6.2429 -2.53852 0.828048 0
M  V30 35 C 5.15807 -2.15689 0.0331498 0
M  V30 36 H -1.12724 6.22019 -0.851881 0
M  V30 37 H -0.00795279 7.65219 -0.773791 0
M  V30 38 H -0.831143 7.07331 0.700867 0
M  V30 39 H 1.09376 5.93269 1.08219 0
M  V30 40 H 1.76819 6.24302 -0.525111 0
M  V30 41 H -0.10415 3.95188 1.51258 0
M  V30 42 H -0.518954 1.65246 1.02671 0
M  V30 43 H 0.90148 2.27386 -2.92838 0
M  V30 44 H 1.31783 4.65455 -2.39445 0
M  V30 45 H -0.196201 0.326356 -2.48428 0
M  V30 46 H -2.59576 2.33278 -2.18396 0
M  V30 47 H -2.07641 1.09951 -3.3792 0
M  V30 48 H -3.79676 1.2535 -2.95743 0
M  V30 49 H -0.619742 -1.28917 1.85392 0
M  V30 50 H -0.493905 -2.6869 0.655576 0
M  V30 51 H -4.55491 -0.421196 2.2619 0
M  V30 52 H -5.93183 -1.93634 3.60547 0
M  V30 53 H -6.09959 -4.35177 3.02935 0
M  V30 54 H -4.84948 -5.19526 1.07427 0
M  V30 55 H -3.49197 -3.66486 -0.238595 0
M  V30 56 H 1.20966 -2.66708 -3.74269 0
M  V30 57 H -0.0420696 -1.39372 -3.56849 0
M  V30 58 H -0.174972 -3.01473 -2.69062 0
M  V30 59 H 1.70578 0.164424 1.87312 0
M  V30 60 H 2.83568 1.06232 0.826711 0
M  V30 61 H 2.66726 -2.48858 2.28045 0
M  V30 62 H 4.60193 -3.16501 3.68495 0
M  V30 63 H 6.87743 -3.19133 2.74098 0
M  V30 64 H 7.24746 -2.5535 0.423647 0
M  V30 65 H 5.29488 -1.87226 -0.987859 0
M  V30 END ATOM
M  V30 BEGIN BOND
M  V30 1 1 1 2
M  V30 2 1 2 3
M  V30 3 2 3 4
M  V30 4 1 4 5
M  V30 5 2 5 6
M  V30 6 1 6 7
M  V30 7 2 7 8
M  V30 8 1 6 9
M  V30 9 1 9 10
M  V30 10 1 10 11
M  V30 11 1 11 12
M  V30 12 2 11 13
M  V30 13 1 13 14
M  V30 14 1 14 15
M  V30 15 1 15 16
M  V30 16 1 14 17
M  V30 17 2 17 18
M  V30 18 1 18 19
M  V30 19 2 19 20
M  V30 20 1 20 21
M  V30 21 2 21 22
M  V30 22 1 9 23
M  V30 23 1 23 24
M  V30 24 1 24 25
M  V30 25 2 24 26
M  V30 26 1 26 27
M  V30 27 1 27 28
M  V30 28 1 28 29
M  V30 29 1 27 30
M  V30 30 2 30 31
M  V30 31 1 31 32
M  V30 32 2 32 33
M  V30 33 1 33 34
M  V30 34 2 34 35
M  V30 35 1 8 3
M  V30 36 2 15 10
M  V30 37 1 22 17
M  V30 38 2 28 23
M  V30 39 1 35 30
M  V30 40 1 1 36
M  V30 41 1 1 37
M  V30 42 1 1 38
M  V30 43 1 2 39
M  V30 44 1 2 40
M  V30 45 1 4 41
M  V30 46 1 5 42
M  V30 47 1 7 43
M  V30 48 1 8 44
M  V30 49 1 9 45
M  V30 50 1 12 46
M  V30 51 1 12 47
M  V30 52 1 12 48
M  V30 53 1 16 49
M  V30 54 1 16 50
M  V30 55 1 18 51
M  V30 56 1 19 52
M  V30 57 1 20 53
M  V30 58 1 21 54
M  V30 59 1 22 55
M  V30 60 1 25 56
M  V30 61 1 25 57
M  V30 62 1 25 58
M  V30 63 1 29 59
M  V30 64 1 29 60
M  V30 65 1 31 61
M  V30 66 1 32 62
M  V30 67 1 33 63
M  V30 68 1 34 64
M  V30 69 1 35 65
M  V30 END BOND
M  V30 END CTAB
M  END
