
     RDKit          3D

  0  0  0  0  0  0  0  0  0  0999 V3000
M  V30 BEGIN CTAB
M  V30 COUNTS 48 49 0 0 0
M  V30 BEGIN ATOM
M  V30 1 N 4.07476 1.21363 1.60306 0
M  V30 2 C 3.15514 0.236103 1.17409 0 CFG=2
M  V30 3 C 3.78448 -1.15022 1.08859 0
M  V30 4 C 4.59442 -1.3492 -0.146671 0
M  V30 5 C 4.88613 -0.0691113 -0.889973 0
M  V30 6 C 3.64951 0.694657 -1.23703 0
M  V30 7 C 2.58899 0.631527 -0.179199 0 CFG=1
M  V30 8 N 1.53791 -0.223652 -0.600883 0
M  V30 9 C 0.32748 -0.187075 0.205181 0
M  V30 10 C -0.440394 1.08629 -0.0124847 0
M  V30 11 N -1.59062 1.32522 0.707561 0
M  V30 12 C -2.79015 0.633752 0.625546 0 CFG=2
M  V30 13 C -2.79971 -0.80352 1.1121 0
M  V30 14 C -4.29481 -1.2194 1.09884 0
M  V30 15 C -4.7277 -1.39654 -0.343413 0
M  V30 16 C -3.77379 -0.648146 -1.25041 0
M  V30 17 C -3.50737 0.739833 -0.711051 0 CFG=1
M  V30 18 N -4.8265 1.35066 -0.574704 0
M  V30 19 H 4.10502 2.11124 1.20551 0
M  V30 20 H 4.30716 1.15941 2.58171 0
M  V30 21 H 2.34753 0.176304 1.90854 0
M  V30 22 H 2.91342 -1.87177 1.03623 0
M  V30 23 H 4.30588 -1.34027 2.02986 0
M  V30 24 H 4.12389 -2.05495 -0.867239 0
M  V30 25 H 5.56975 -1.77504 0.143766 0
M  V30 26 H 5.37506 -0.373768 -1.84253 0
M  V30 27 H 5.63723 0.575739 -0.359976 0
M  V30 28 H 3.96368 1.75384 -1.44319 0
M  V30 29 H 3.27105 0.312542 -2.22461 0
M  V30 30 H 2.20627 1.66215 -0.0464238 0
M  V30 31 H 1.87567 -1.21668 -0.72379 0
M  V30 32 H -0.237905 -1.09493 -0.161186 0
M  V30 33 H 0.474015 -0.334118 1.26873 0
M  V30 34 H 0.29696 1.91585 0.262321 0
M  V30 35 H -0.530326 1.23568 -1.12812 0
M  V30 36 H -1.75349 2.3355 0.973277 0
M  V30 37 H -3.51126 1.15299 1.34782 0
M  V30 38 H -2.32422 -1.53031 0.472654 0
M  V30 39 H -2.47929 -0.830238 2.17591 0
M  V30 40 H -4.86631 -0.473053 1.65131 0
M  V30 41 H -4.34694 -2.18079 1.63919 0
M  V30 42 H -4.67048 -2.48807 -0.638971 0
M  V30 43 H -5.74162 -0.984599 -0.488156 0
M  V30 44 H -2.89943 -1.26391 -1.42208 0
M  V30 45 H -4.25813 -0.539448 -2.27048 0
M  V30 46 H -2.95257 1.34845 -1.44679 0
M  V30 47 H -5.07587 1.56285 0.394182 0
M  V30 48 H -4.97253 2.1846 -1.15349 0
M  V30 END ATOM
M  V30 BEGIN BOND
M  V30 1 1 1 2
M  V30 2 1 2 3
M  V30 3 1 3 4
M  V30 4 1 4 5
M  V30 5 1 5 6
M  V30 6 1 6 7
M  V30 7 1 7 8
M  V30 8 1 8 9
M  V30 9 1 9 10
M  V30 10 1 10 11
M  V30 11 1 11 12
M  V30 12 1 12 13
M  V30 13 1 13 14
M  V30 14 1 14 15
M  V30 15 1 15 16
M  V30 16 1 16 17
M  V30 17 1 17 18
M  V30 18 1 7 2
M  V30 19 1 17 12
M  V30 20 1 1 19
M  V30 21 1 1 20
M  V30 22 1 2 21 CFG=1
M  V30 23 1 3 22
M  V30 24 1 3 23
M  V30 25 1 4 24
M  V30 26 1 4 25
M  V30 27 1 5 26
M  V30 28 1 5 27
M  V30 29 1 6 28
M  V30 30 1 6 29
M  V30 31 1 7 30 CFG=1
M  V30 32 1 8 31
M  V30 33 1 9 32
M  V30 34 1 9 33
M  V30 35 1 10 34
M  V30 36 1 10 35
M  V30 37 1 11 36
M  V30 38 1 12 37 CFG=1
M  V30 39 1 13 38
M  V30 40 1 13 39
M  V30 41 1 14 40
M  V30 42 1 14 41
M  V30 43 1 15 42
M  V30 44 1 15 43
M  V30 45 1 16 44
M  V30 46 1 16 45
M  V30 47 1 17 46 CFG=3
M  V30 48 1 18 47
M  V30 49 1 18 48
M  V30 END BOND
M  V30 END CTAB
M  END
