
     RDKit          3D

  0  0  0  0  0  0  0  0  0  0999 V3000
M  V30 BEGIN CTAB
M  V30 COUNTS 39 41 0 0 0
M  V30 BEGIN ATOM
M  V30 1 N -0.302941 -1.61349 -2.67939 0
M  V30 2 C -0.771502 -1.13206 -1.73118 0
M  V30 3 C -1.2897 -0.547484 -0.557681 0
M  V30 4 C -0.414035 -0.353356 0.45465 0
M  V30 5 C 0.979706 -0.739173 0.319225 0
M  V30 6 C 1.48497 -1.96436 -0.0635497 0
M  V30 7 C 2.84985 -1.83929 -0.04752 0
M  V30 8 C 3.13877 -0.556655 0.34067 0
M  V30 9 O 2.02667 0.0654795 0.549443 0
M  V30 10 C 4.47607 0.00398806 0.489458 0
M  V30 11 C 5.58227 -0.76633 0.219746 0
M  V30 12 C 6.84883 -0.237755 0.354943 0
M  V30 13 C 7.06448 1.06746 0.760754 0
M  V30 14 C 5.95778 1.85587 1.03659 0
M  V30 15 C 4.68474 1.30575 0.894602 0
M  V30 16 C -2.64703 -0.150517 -0.261747 0
M  V30 17 N -2.96343 0.263175 1.01314 0
M  V30 18 C -4.18928 0.654023 1.34822 0
M  V30 19 N -4.50739 1.08122 2.68619 0
M  V30 20 C -5.22816 0.670689 0.436257 0
M  V30 21 C -4.98284 0.270109 -0.857356 0
M  V30 22 C -3.67558 -0.132837 -1.16324 0
M  V30 23 C -3.49124 -0.510037 -2.54066 0
M  V30 24 N -3.37728 -0.791606 -3.6424 0
M  V30 25 N -6.02414 0.271088 -1.83092 0
M  V30 26 C -6.5278 1.10215 0.854068 0
M  V30 27 N -7.58768 1.47478 1.18616 0
M  V30 28 H -0.742443 0.103797 1.40403 0
M  V30 29 H 0.950204 -2.88372 -0.322026 0
M  V30 30 H 3.53496 -2.6485 -0.305963 0
M  V30 31 H 5.42821 -1.80635 -0.103533 0
M  V30 32 H 7.73669 -0.837639 0.143734 0
M  V30 33 H 8.06396 1.46203 0.859716 0
M  V30 34 H 6.09085 2.88395 1.35686 0
M  V30 35 H 3.84106 1.93988 1.1147 0
M  V30 36 H -4.10832 1.99225 2.99366 0
M  V30 37 H -5.11278 0.467099 3.2722 0
M  V30 38 H -6.98295 -0.0626217 -1.6667 0
M  V30 39 H -5.81358 0.638981 -2.79932 0
M  V30 END ATOM
M  V30 BEGIN BOND
M  V30 1 3 1 2
M  V30 2 1 2 3
M  V30 3 2 3 4
M  V30 4 1 4 5
M  V30 5 2 5 6
M  V30 6 1 6 7
M  V30 7 2 7 8
M  V30 8 1 8 9
M  V30 9 1 8 10
M  V30 10 2 10 11
M  V30 11 1 11 12
M  V30 12 2 12 13
M  V30 13 1 13 14
M  V30 14 2 14 15
M  V30 15 1 3 16
M  V30 16 2 16 17
M  V30 17 1 17 18
M  V30 18 1 18 19
M  V30 19 2 18 20
M  V30 20 1 20 21
M  V30 21 2 21 22
M  V30 22 1 22 23
M  V30 23 3 23 24
M  V30 24 1 21 25
M  V30 25 1 20 26
M  V30 26 3 26 27
M  V30 27 1 9 5
M  V30 28 1 15 10
M  V30 29 1 22 16
M  V30 30 1 4 28
M  V30 31 1 6 29
M  V30 32 1 7 30
M  V30 33 1 11 31
M  V30 34 1 12 32
M  V30 35 1 13 33
M  V30 36 1 14 34
M  V30 37 1 15 35
M  V30 38 1 19 36
M  V30 39 1 19 37
M  V30 40 1 25 38
M  V30 41 1 25 39
M  V30 END BOND
M  V30 END CTAB
M  END
