
     RDKit          3D

  0  0  0  0  0  0  0  0  0  0999 V3000
M  V30 BEGIN CTAB
M  V30 COUNTS 38 39 0 0 0
M  V30 BEGIN ATOM
M  V30 1 N -2.60889 0.974252 1.38494 0
M  V30 2 C -1.81432 0.256752 0.416471 0
M  V30 3 S -2.62696 -0.680066 -0.843931 0
M  V30 4 C -4.37518 -0.537995 -0.648355 0
M  V30 5 C -5.05444 -1.42969 0.130537 0
M  V30 6 C -6.4208 -1.31926 0.28386 0
M  V30 7 C -7.08101 -0.283267 -0.371481 0
M  V30 8 C -6.42647 0.623714 -1.15746 0
M  V30 9 C -5.0522 0.470619 -1.28048 0
M  V30 10 C -0.517003 0.329808 0.512009 0
M  V30 11 C -0.0573556 1.15926 1.62849 0
M  V30 12 N 0.273334 1.83441 2.53738 0
M  V30 13 C 0.435517 -0.313521 -0.356803 0
M  V30 14 C 0.00920048 -1.14563 -1.47683 0
M  V30 15 N -0.289178 -1.82648 -2.39336 0
M  V30 16 C 1.75793 -0.22972 -0.246859 0
M  V30 17 N 2.54095 -0.952852 -1.2228 0
M  V30 18 S 2.66575 0.669064 0.961909 0
M  V30 19 C 4.41466 0.477438 0.699732 0
M  V30 20 C 5.1535 -0.533223 1.27944 0
M  V30 21 C 6.50538 -0.592408 1.01074 0
M  V30 22 C 7.13914 0.317279 0.18859 0
M  V30 23 C 6.39561 1.31825 -0.382834 0
M  V30 24 C 5.0496 1.38434 -0.120627 0
M  V30 25 H -2.42681 0.808947 2.37607 0
M  V30 26 H -3.32704 1.62363 1.06175 0
M  V30 27 H -4.55479 -2.25311 0.655737 0
M  V30 28 H -6.93261 -2.03478 0.903134 0
M  V30 29 H -8.16323 -0.211472 -0.238418 0
M  V30 30 H -6.98686 1.40186 -1.63859 0
M  V30 31 H -4.53396 1.20283 -1.91324 0
M  V30 32 H 2.56903 -1.97616 -1.25448 0
M  V30 33 H 3.08053 -0.388486 -1.89886 0
M  V30 34 H 4.64034 -1.23442 1.91886 0
M  V30 35 H 7.08904 -1.39143 1.46915 0
M  V30 36 H 8.21103 0.250356 -0.00959923 0
M  V30 37 H 6.84005 2.05237 -1.03081 0
M  V30 38 H 4.4785 2.17877 -0.57854 0
M  V30 END ATOM
M  V30 BEGIN BOND
M  V30 1 1 1 2
M  V30 2 1 2 3
M  V30 3 1 3 4
M  V30 4 2 4 5
M  V30 5 1 5 6
M  V30 6 2 6 7
M  V30 7 1 7 8
M  V30 8 2 8 9
M  V30 9 2 2 10 CFG=2
M  V30 10 1 10 11
M  V30 11 3 11 12
M  V30 12 1 10 13
M  V30 13 1 13 14
M  V30 14 3 14 15
M  V30 15 2 13 16 CFG=2
M  V30 16 1 16 17
M  V30 17 1 16 18
M  V30 18 1 18 19
M  V30 19 2 19 20
M  V30 20 1 20 21
M  V30 21 2 21 22
M  V30 22 1 22 23
M  V30 23 2 23 24
M  V30 24 1 9 4
M  V30 25 1 24 19
M  V30 26 1 1 25
M  V30 27 1 1 26
M  V30 28 1 5 27
M  V30 29 1 6 28
M  V30 30 1 7 29
M  V30 31 1 8 30
M  V30 32 1 9 31
M  V30 33 1 17 32
M  V30 34 1 17 33
M  V30 35 1 20 34
M  V30 36 1 21 35
M  V30 37 1 22 36
M  V30 38 1 23 37
M  V30 39 1 24 38
M  V30 END BOND
M  V30 END CTAB
M  END
