
     RDKit          3D

  0  0  0  0  0  0  0  0  0  0999 V3000
M  V30 BEGIN CTAB
M  V30 COUNTS 30 31 0 0 0
M  V30 BEGIN ATOM
M  V30 1 N 2.30568 -0.892931 -1.91037 0
M  V30 2 C 2.1067 -0.186966 -0.674701 0
M  V30 3 N 0.897198 -0.0235518 -0.14082 0
M  V30 4 C 0.641412 0.627197 1.01369 0
M  V30 5 N -0.653977 0.775764 1.54073 0
M  V30 6 C -1.85097 0.284236 0.96371 0
M  V30 7 C -2.17487 0.808578 -0.413726 0
M  V30 8 C -3.42846 -0.0208627 -0.732555 0
M  V30 9 C -3.25412 -1.3273 0.0158015 0
M  V30 10 C -1.89833 -1.20849 0.729566 0
M  V30 11 C 1.76372 1.14472 1.64944 0
M  V30 12 C 3.03495 0.994475 1.12465 0
M  V30 13 C 3.22948 0.321087 -0.055076 0
M  V30 14 N 4.51097 0.133107 -0.645812 0
M  V30 15 H 2.47588 -0.385509 -2.81284 0
M  V30 16 H 2.28017 -1.93906 -1.90982 0
M  V30 17 H -0.727952 1.30976 2.45989 0
M  V30 18 H -2.73142 0.517239 1.59812 0
M  V30 19 H -2.397 1.88955 -0.421407 0
M  V30 20 H -1.42513 0.49492 -1.14202 0
M  V30 21 H -3.54756 -0.159671 -1.81514 0
M  V30 22 H -4.27412 0.556297 -0.284477 0
M  V30 23 H -4.0601 -1.42863 0.765779 0
M  V30 24 H -3.23345 -2.13293 -0.731418 0
M  V30 25 H -1.15946 -1.57987 0.00986596 0
M  V30 26 H -1.89262 -1.7658 1.67978 0
M  V30 27 H 1.58188 1.67306 2.58128 0
M  V30 28 H 3.88163 1.40066 1.6309 0
M  V30 29 H 4.60567 0.0656344 -1.68281 0
M  V30 30 H 5.3942 0.0552745 -0.0940143 0
M  V30 END ATOM
M  V30 BEGIN BOND
M  V30 1 1 1 2
M  V30 2 2 2 3
M  V30 3 1 3 4
M  V30 4 1 4 5
M  V30 5 1 5 6
M  V30 6 1 6 7
M  V30 7 1 7 8
M  V30 8 1 8 9
M  V30 9 1 9 10
M  V30 10 2 4 11
M  V30 11 1 11 12
M  V30 12 2 12 13
M  V30 13 1 13 14
M  V30 14 1 13 2
M  V30 15 1 10 6
M  V30 16 1 1 15
M  V30 17 1 1 16
M  V30 18 1 5 17
M  V30 19 1 6 18
M  V30 20 1 7 19
M  V30 21 1 7 20
M  V30 22 1 8 21
M  V30 23 1 8 22
M  V30 24 1 9 23
M  V30 25 1 9 24
M  V30 26 1 10 25
M  V30 27 1 10 26
M  V30 28 1 11 27
M  V30 29 1 12 28
M  V30 30 1 14 29
M  V30 31 1 14 30
M  V30 END BOND
M  V30 END CTAB
M  END
