
     RDKit          3D

  0  0  0  0  0  0  0  0  0  0999 V3000
M  V30 BEGIN CTAB
M  V30 COUNTS 52 55 0 0 0
M  V30 BEGIN ATOM
M  V30 1 C -5.3781 3.06994 -0.455945 0
M  V30 2 O -4.36487 2.10215 -0.619613 0
M  V30 3 C -4.18421 1.1045 0.342447 0
M  V30 4 C -4.99505 1.06825 1.44715 0
M  V30 5 C -4.83492 0.0881099 2.41504 0
M  V30 6 C -3.85056 -0.869515 2.27717 0
M  V30 7 C -3.03892 -0.832027 1.16994 0
M  V30 8 C -3.19915 0.150993 0.198746 0
M  V30 9 N -2.38256 0.21785 -0.950073 0
M  V30 10 C -1.57122 1.38278 -1.22945 0
M  V30 11 C -0.125124 0.955359 -1.10551 0
M  V30 12 N 0.0347392 -0.378064 -1.64205 0
M  V30 13 C -0.956842 -0.958542 -2.50562 0
M  V30 14 C -2.34408 -0.892747 -1.87774 0
M  V30 15 C 1.20401 -1.10479 -1.29199 0
M  V30 16 C 2.16629 -0.560949 -0.465281 0
M  V30 17 C 3.26644 -1.29072 -0.157416 0
M  V30 18 N 3.3837 -2.53547 -0.674864 0
M  V30 19 C 2.45176 -3.06372 -1.47622 0
M  V30 20 N 1.36631 -2.33051 -1.77374 0
M  V30 21 N 2.53696 -4.35961 -2.03676 0
M  V30 22 C 4.36655 -0.822559 0.715212 0
M  V30 23 C 3.96571 -0.146052 1.98402 0
M  V30 24 C 5.13202 0.820925 1.7481 0
M  V30 25 C 4.96781 0.517506 0.272298 0
M  V30 26 N 4.82942 2.18643 2.11608 0
M  V30 27 H -5.27582 3.92518 -1.12339 0
M  V30 28 H -6.34763 2.54487 -0.516201 0
M  V30 29 H -5.28825 3.46151 0.584757 0
M  V30 30 H -5.7928 1.78519 1.62973 0
M  V30 31 H -5.48154 0.0719976 3.2807 0
M  V30 32 H -3.70271 -1.65497 3.02728 0
M  V30 33 H -2.24466 -1.57011 1.01717 0
M  V30 34 H -1.79532 1.83751 -2.21676 0
M  V30 35 H -1.75048 2.18156 -0.476542 0
M  V30 36 H 0.0745232 0.871329 -0.00378269 0
M  V30 37 H 0.575243 1.67276 -1.54887 0
M  V30 38 H -0.759297 -2.02475 -2.72149 0
M  V30 39 H -0.964858 -0.392625 -3.46694 0
M  V30 40 H -2.61359 -1.85672 -1.40929 0
M  V30 41 H -3.08289 -0.681308 -2.67995 0
M  V30 42 H 2.06375 0.424016 -0.0616701 0
M  V30 43 H 2.66995 -5.18255 -1.43506 0
M  V30 44 H 2.4633 -4.4657 -3.06156 0
M  V30 45 H 5.18071 -1.53636 0.863259 0
M  V30 46 H 4.12636 -0.744817 2.90881 0
M  V30 47 H 3.02904 0.444078 1.95193 0
M  V30 48 H 6.0817 0.417363 2.12783 0
M  V30 49 H 5.90503 0.397491 -0.292169 0
M  V30 50 H 4.19252 1.16191 -0.194076 0
M  V30 51 H 4.59446 2.78447 1.29251 0
M  V30 52 H 5.69717 2.60917 2.536 0
M  V30 END ATOM
M  V30 BEGIN BOND
M  V30 1 1 1 2
M  V30 2 1 2 3
M  V30 3 2 3 4
M  V30 4 1 4 5
M  V30 5 2 5 6
M  V30 6 1 6 7
M  V30 7 2 7 8
M  V30 8 1 8 9
M  V30 9 1 9 10
M  V30 10 1 10 11
M  V30 11 1 11 12
M  V30 12 1 12 13
M  V30 13 1 13 14
M  V30 14 1 12 15
M  V30 15 2 15 16
M  V30 16 1 16 17
M  V30 17 2 17 18
M  V30 18 1 18 19
M  V30 19 2 19 20
M  V30 20 1 19 21
M  V30 21 1 17 22
M  V30 22 1 22 23
M  V30 23 1 23 24
M  V30 24 1 24 25
M  V30 25 1 24 26
M  V30 26 1 8 3
M  V30 27 1 14 9
M  V30 28 1 20 15
M  V30 29 1 25 22
M  V30 30 1 1 27
M  V30 31 1 1 28
M  V30 32 1 1 29
M  V30 33 1 4 30
M  V30 34 1 5 31
M  V30 35 1 6 32
M  V30 36 1 7 33
M  V30 37 1 10 34
M  V30 38 1 10 35
M  V30 39 1 11 36
M  V30 40 1 11 37
M  V30 41 1 13 38
M  V30 42 1 13 39
M  V30 43 1 14 40
M  V30 44 1 14 41
M  V30 45 1 16 42
M  V30 46 1 21 43
M  V30 47 1 21 44
M  V30 48 1 22 45
M  V30 49 1 23 46
M  V30 50 1 23 47
M  V30 51 1 24 48
M  V30 52 1 25 49
M  V30 53 1 25 50
M  V30 54 1 26 51
M  V30 55 1 26 52
M  V30 END BOND
M  V30 END CTAB
M  END
