
     RDKit          3D

  0  0  0  0  0  0  0  0  0  0999 V3000
M  V30 BEGIN CTAB
M  V30 COUNTS 34 35 0 0 0
M  V30 BEGIN ATOM
M  V30 1 N 3.72621 -2.7828 -1.21976 0
M  V30 2 C 3.08719 -1.89032 -0.869005 0
M  V30 3 C 2.29882 -0.78131 -0.410338 0
M  V30 4 C 0.950326 -0.891518 -0.387481 0
M  V30 5 N 0.274286 -2.07499 -0.804252 0
M  V30 6 N 0.179198 0.132245 0.0380543 0
M  V30 7 C -1.22047 0.0517704 0.0746218 0
M  V30 8 C -1.96532 0.59166 -0.937792 0
M  V30 9 C -1.27007 1.25626 -2.06206 0
M  V30 10 C -3.34049 0.514089 -0.904526 0
M  V30 11 C -3.99575 -0.103936 0.140269 0
M  V30 12 C -3.24411 -0.65344 1.17023 0
M  V30 13 C -1.84513 -0.568186 1.12516 0
M  V30 14 C -1.03069 -1.143 2.20463 0
M  V30 15 C 0.807733 1.26982 0.439642 0
M  V30 16 S -0.0772532 2.55756 0.970832 0
M  V30 17 C 2.17786 1.41513 0.429069 0
M  V30 18 C 2.93473 0.347259 -0.0125214 0
M  V30 19 N 4.337 0.5172 -0.0153398 0
M  V30 20 C 2.8157 2.62714 0.858453 0
M  V30 21 N 3.33132 3.60947 1.21966 0
M  V30 22 H 0.147589 -2.91823 -0.213408 0
M  V30 23 H -0.117055 -2.09116 -1.7656 0
M  V30 24 H -1.68785 0.806414 -3.00452 0
M  V30 25 H -0.195727 1.06532 -2.04856 0
M  V30 26 H -1.42371 2.35797 -2.03309 0
M  V30 27 H -3.94653 0.93453 -1.69493 0
M  V30 28 H -5.08041 -0.17935 0.191702 0
M  V30 29 H -3.7004 -1.14177 2.00044 0
M  V30 30 H -1.56786 -1.0717 3.19559 0
M  V30 31 H -0.0627549 -0.67045 2.34603 0
M  V30 32 H -0.973012 -2.24834 2.01216 0
M  V30 33 H 4.92023 -0.0828052 0.585678 0
M  V30 34 H 4.75641 1.23946 -0.61904 0
M  V30 END ATOM
M  V30 BEGIN BOND
M  V30 1 3 1 2
M  V30 2 1 2 3
M  V30 3 2 3 4
M  V30 4 1 4 5
M  V30 5 1 4 6
M  V30 6 1 6 7
M  V30 7 2 7 8
M  V30 8 1 8 9
M  V30 9 1 8 10
M  V30 10 2 10 11
M  V30 11 1 11 12
M  V30 12 2 12 13
M  V30 13 1 13 14
M  V30 14 1 6 15
M  V30 15 2 15 16
M  V30 16 1 15 17
M  V30 17 2 17 18
M  V30 18 1 18 19
M  V30 19 1 17 20
M  V30 20 3 20 21
M  V30 21 1 18 3
M  V30 22 1 13 7
M  V30 23 1 5 22
M  V30 24 1 5 23
M  V30 25 1 9 24
M  V30 26 1 9 25
M  V30 27 1 9 26
M  V30 28 1 10 27
M  V30 29 1 11 28
M  V30 30 1 12 29
M  V30 31 1 14 30
M  V30 32 1 14 31
M  V30 33 1 14 32
M  V30 34 1 19 33
M  V30 35 1 19 34
M  V30 END BOND
M  V30 END CTAB
M  END
