
     RDKit          3D

  0  0  0  0  0  0  0  0  0  0999 V3000
M  V30 BEGIN CTAB
M  V30 COUNTS 41 42 0 0 0
M  V30 BEGIN ATOM
M  V30 1 N -4.55545 -0.976607 1.12179 0
M  V30 2 C -3.78892 -1.79508 0.258009 0
M  V30 3 S -4.31755 -3.30093 -0.0379933 0
M  V30 4 C -2.5476 -1.31106 -0.361324 0
M  V30 5 C -1.54634 -0.927958 0.671104 0
M  V30 6 N -0.295441 -0.438812 0.209246 0
M  V30 7 C 0.770192 -1.362 -0.0647361 0
M  V30 8 O 0.657463 -2.57433 0.259005 0
M  V30 9 C 2.02316 -0.917245 -0.731198 0
M  V30 10 O 2.21348 0.459206 -0.661991 0
M  V30 11 C 1.22258 1.39661 -0.407848 0
M  V30 12 C -0.00341677 0.938471 0.018176 0
M  V30 13 N -0.932133 1.8891 0.25599 0
M  V30 14 C -0.68254 3.19531 0.0885824 0
M  V30 15 N -1.6949 4.18711 0.35073 0
M  V30 16 C 0.538036 3.66314 -0.337751 0
M  V30 17 C 1.52011 2.73404 -0.593523 0
M  V30 18 C 3.16 -1.66622 -0.0230237 0
M  V30 19 C 4.48025 -1.29392 -0.615561 0
M  V30 20 C 3.08449 -1.49168 1.46122 0
M  V30 21 C -2.86563 -0.206344 -1.32746 0
M  V30 22 H -5.18156 -1.34601 1.86772 0
M  V30 23 H -4.50117 0.0582016 1.01813 0
M  V30 24 H -2.14076 -2.15514 -1.01 0
M  V30 25 H -2.00626 -0.133939 1.30854 0
M  V30 26 H -1.34488 -1.77131 1.37306 0
M  V30 27 H 2.02585 -1.22829 -1.80075 0
M  V30 28 H -1.80369 4.5376 1.33248 0
M  V30 29 H -2.31392 4.56465 -0.383762 0
M  V30 30 H 0.724907 4.72616 -0.469291 0
M  V30 31 H 2.49699 3.06325 -0.931684 0
M  V30 32 H 3.00561 -2.76169 -0.230188 0
M  V30 33 H 5.22199 -1.21384 0.221063 0
M  V30 34 H 4.39288 -0.329927 -1.17131 0
M  V30 35 H 4.81528 -2.04077 -1.37339 0
M  V30 36 H 2.61198 -0.514348 1.68729 0
M  V30 37 H 4.07888 -1.52975 1.95664 0
M  V30 38 H 2.45175 -2.26264 1.96163 0
M  V30 39 H -3.41244 0.614836 -0.846243 0
M  V30 40 H -1.97658 0.103758 -1.9142 0
M  V30 41 H -3.58471 -0.581633 -2.1272 0
M  V30 END ATOM
M  V30 BEGIN BOND
M  V30 1 1 1 2
M  V30 2 2 2 3
M  V30 3 1 2 4
M  V30 4 1 4 5
M  V30 5 1 5 6
M  V30 6 1 6 7
M  V30 7 2 7 8
M  V30 8 1 7 9
M  V30 9 1 9 10
M  V30 10 1 10 11
M  V30 11 2 11 12
M  V30 12 1 12 13
M  V30 13 2 13 14
M  V30 14 1 14 15
M  V30 15 1 14 16
M  V30 16 2 16 17
M  V30 17 1 9 18
M  V30 18 1 18 19
M  V30 19 1 18 20
M  V30 20 1 4 21
M  V30 21 1 12 6
M  V30 22 1 17 11
M  V30 23 1 1 22
M  V30 24 1 1 23
M  V30 25 1 4 24
M  V30 26 1 5 25
M  V30 27 1 5 26
M  V30 28 1 9 27
M  V30 29 1 15 28
M  V30 30 1 15 29
M  V30 31 1 16 30
M  V30 32 1 17 31
M  V30 33 1 18 32
M  V30 34 1 19 33
M  V30 35 1 19 34
M  V30 36 1 19 35
M  V30 37 1 20 36
M  V30 38 1 20 37
M  V30 39 1 20 38
M  V30 40 1 21 39
M  V30 41 1 21 40
M  V30 42 1 21 41
M  V30 END BOND
M  V30 END CTAB
M  END
