
     RDKit          3D

  0  0  0  0  0  0  0  0  0  0999 V3000
M  V30 BEGIN CTAB
M  V30 COUNTS 34 35 0 0 0
M  V30 BEGIN ATOM
M  V30 1 Cl 7.39756 1.45577 0.94094 0
M  V30 2 C 5.83975 0.870494 0.406947 0
M  V30 3 C 5.45927 1.04206 -0.918678 0
M  V30 4 C 4.24074 0.586329 -1.34338 0
M  V30 5 C 3.32284 -0.0610924 -0.509932 0
M  V30 6 C 3.71177 -0.223077 0.790758 0
M  V30 7 C 4.94762 0.239049 1.22513 0
M  V30 8 O 2.15223 -0.460116 -1.07918 0
M  V30 9 C 1.04658 -1.08585 -0.53994 0
M  V30 10 C 0.305932 -0.292289 0.484822 0
M  V30 11 S -0.329417 1.26655 -0.177313 0
M  V30 12 C -1.63698 0.982836 -1.40304 0
M  V30 13 C -2.78274 0.392514 -0.621267 0
M  V30 14 N -3.67529 1.24467 -0.0507858 0
M  V30 15 C -4.73021 0.830084 0.664993 0
M  V30 16 N -5.66031 1.73678 1.26513 0
M  V30 17 N -4.88157 -0.501662 0.80447 0
M  V30 18 C -4.02433 -1.37539 0.258162 0
M  V30 19 N -2.97261 -0.907217 -0.456956 0
M  V30 20 N -4.23803 -2.78032 0.439579 0
M  V30 21 H 6.17003 1.54418 -1.56447 0
M  V30 22 H 3.95778 0.731337 -2.39413 0
M  V30 23 H 3.0493 -0.734054 1.47185 0
M  V30 24 H 5.19364 0.0821227 2.25759 0
M  V30 25 H 1.42646 -2.02513 -0.0242585 0
M  V30 26 H 0.36411 -1.39566 -1.38048 0
M  V30 27 H 0.909054 -0.0496214 1.36071 0
M  V30 28 H -0.575426 -0.87312 0.899861 0
M  V30 29 H -1.37515 0.251988 -2.17091 0
M  V30 30 H -2.01248 1.92449 -1.83574 0
M  V30 31 H -6.55907 1.91483 0.775357 0
M  V30 32 H -5.47447 2.22282 2.16552 0
M  V30 33 H -5.05469 -3.2687 0.0631077 0
M  V30 34 H -3.51188 -3.2856 0.97996 0
M  V30 END ATOM
M  V30 BEGIN BOND
M  V30 1 1 1 2
M  V30 2 2 2 3
M  V30 3 1 3 4
M  V30 4 2 4 5
M  V30 5 1 5 6
M  V30 6 2 6 7
M  V30 7 1 5 8
M  V30 8 1 8 9
M  V30 9 1 9 10
M  V30 10 1 10 11
M  V30 11 1 11 12
M  V30 12 1 12 13
M  V30 13 2 13 14
M  V30 14 1 14 15
M  V30 15 1 15 16
M  V30 16 2 15 17
M  V30 17 1 17 18
M  V30 18 2 18 19
M  V30 19 1 18 20
M  V30 20 1 7 2
M  V30 21 1 19 13
M  V30 22 1 3 21
M  V30 23 1 4 22
M  V30 24 1 6 23
M  V30 25 1 7 24
M  V30 26 1 9 25
M  V30 27 1 9 26
M  V30 28 1 10 27
M  V30 29 1 10 28
M  V30 30 1 12 29
M  V30 31 1 12 30
M  V30 32 1 16 31
M  V30 33 1 16 32
M  V30 34 1 20 33
M  V30 35 1 20 34
M  V30 END BOND
M  V30 END CTAB
M  END
