
     RDKit          3D

  0  0  0  0  0  0  0  0  0  0999 V3000
M  V30 BEGIN CTAB
M  V30 COUNTS 27 28 0 0 0
M  V30 BEGIN ATOM
M  V30 1 N 0.740009 -1.54462 3.02772 0
M  V30 2 C 1.21587 -1.18287 2.05853 0
M  V30 3 C 1.84856 -0.713018 0.821551 0
M  V30 4 C 3.05655 -0.0175086 0.998574 0
M  V30 5 C 3.74435 0.323968 -0.156941 0
M  V30 6 N 5.02218 1.01394 -0.037201 0
M  V30 7 C 3.25612 -0.0107364 -1.39781 0
M  V30 8 C 2.05623 -0.704944 -1.56073 0
M  V30 9 C 1.35309 -1.05302 -0.403223 0
M  V30 10 S -0.288587 -1.72521 -0.571176 0
M  V30 11 C -1.50287 -0.4908 -0.0842822 0
M  V30 12 N -1.36227 0.3412 1.00109 0
M  V30 13 N -2.46603 1.05785 1.10389 0
M  V30 14 C -3.32078 0.7168 0.128208 0
M  V30 15 N -2.69245 -0.234113 -0.592088 0
M  V30 16 N -3.23934 -0.778316 -1.74905 0
M  V30 17 C -4.74563 1.20595 0.032428 0
M  V30 18 F -4.75766 2.5531 0.100527 0
M  V30 19 F -5.30221 0.715147 -1.16436 0
M  V30 20 F -5.49511 0.528707 1.03214 0
M  V30 21 H 3.3648 0.247413 2.02464 0
M  V30 22 H 5.59995 0.780584 0.817292 0
M  V30 23 H 5.33454 1.67619 -0.744213 0
M  V30 24 H 3.79364 0.228426 -2.31595 0
M  V30 25 H 1.6451 -0.998156 -2.51923 0
M  V30 26 H -3.6077 -1.74061 -1.83244 0
M  V30 27 H -3.25037 -0.195346 -2.66018 0
M  V30 END ATOM
M  V30 BEGIN BOND
M  V30 1 3 1 2
M  V30 2 1 2 3
M  V30 3 2 3 4
M  V30 4 1 4 5
M  V30 5 1 5 6
M  V30 6 2 5 7
M  V30 7 1 7 8
M  V30 8 2 8 9
M  V30 9 1 9 10
M  V30 10 1 10 11
M  V30 11 2 11 12
M  V30 12 1 12 13
M  V30 13 2 13 14
M  V30 14 1 14 15
M  V30 15 1 15 16
M  V30 16 1 14 17
M  V30 17 1 17 18
M  V30 18 1 17 19
M  V30 19 1 17 20
M  V30 20 1 9 3
M  V30 21 1 15 11
M  V30 22 1 4 21
M  V30 23 1 6 22
M  V30 24 1 6 23
M  V30 25 1 7 24
M  V30 26 1 8 25
M  V30 27 1 16 26
M  V30 28 1 16 27
M  V30 END BOND
M  V30 END CTAB
M  END
