
     RDKit          3D

  0  0  0  0  0  0  0  0  0  0999 V3000
M  V30 BEGIN CTAB
M  V30 COUNTS 18 18 0 0 0
M  V30 BEGIN ATOM
M  V30 1 N -2.09202 -1.00919 1.22934 0
M  V30 2 C -1.93312 -0.704919 -0.238187 0
M  V30 3 C -0.576961 -0.0246832 -0.275531 0
M  V30 4 C 0.568712 -0.675266 -0.105669 0
M  V30 5 C 1.82368 -0.0410837 -0.157753 0
M  V30 6 N 3.05178 -0.789874 0.0515563 0
M  V30 7 N 1.82338 1.2928 -0.406645 0
M  V30 8 C 0.691073 1.95132 -0.583084 0
M  V30 9 C -0.540781 1.3151 -0.523006 0
M  V30 10 Br -2.15838 2.36245 -0.643396 0
M  V30 11 H -3.01517 -0.505116 1.51213 0
M  V30 12 H -1.34078 -0.395977 1.75407 0
M  V30 13 H -1.78233 -1.75572 -0.649037 0
M  V30 14 H -2.74254 -0.252745 -0.709936 0
M  V30 15 H 0.574937 -1.75194 0.0765222 0
M  V30 16 H 3.32047 -0.737004 1.08083 0
M  V30 17 H 3.57055 -1.29055 -0.657859 0
M  V30 18 H 0.757501 3.01239 -0.754347 0
M  V30 END ATOM
M  V30 BEGIN BOND
M  V30 1 1 1 2
M  V30 2 1 2 3
M  V30 3 2 3 4
M  V30 4 1 4 5
M  V30 5 1 5 6
M  V30 6 2 5 7
M  V30 7 1 7 8
M  V30 8 2 8 9
M  V30 9 1 9 10
M  V30 10 1 9 3
M  V30 11 1 1 11
M  V30 12 1 1 12
M  V30 13 1 2 13
M  V30 14 1 2 14
M  V30 15 1 4 15
M  V30 16 1 6 16
M  V30 17 1 6 17
M  V30 18 1 8 18
M  V30 END BOND
M  V30 END CTAB
M  END
