
     RDKit          3D

  0  0  0  0  0  0  0  0  0  0999 V3000
M  V30 BEGIN CTAB
M  V30 COUNTS 40 41 0 0 0
M  V30 BEGIN ATOM
M  V30 1 C -0.887352 -4.67968 0.0840694 0
M  V30 2 O -1.45605 -3.47313 -0.371622 0
M  V30 3 C -0.697678 -2.32007 -0.396904 0
M  V30 4 C 0.603994 -2.36109 0.0226538 0
M  V30 5 C 1.40901 -1.23037 0.0171859 0
M  V30 6 C 2.78062 -1.26421 0.457297 0
M  V30 7 N 3.49377 -0.215569 0.441591 0
M  V30 8 N 4.81318 -0.163142 0.845461 0
M  V30 9 C 5.44575 0.95715 0.917422 0
M  V30 10 N 4.73183 2.14119 0.564199 0
M  V30 11 N 6.79803 0.986987 1.334 0
M  V30 12 C 0.85191 -0.0511457 -0.428779 0
M  V30 13 C -0.474091 -0.0158247 -0.854872 0
M  V30 14 C -1.25696 -1.14714 -0.841929 0
M  V30 15 O -2.55353 -1.1207 -1.25506 0
M  V30 16 C -3.28259 -0.0165459 -1.72061 0
M  V30 17 C -3.42531 1.06999 -0.719728 0
M  V30 18 C -3.3126 0.808743 0.650677 0
M  V30 19 C -3.45058 1.8427 1.55145 0
M  V30 20 C -3.69828 3.14424 1.16616 0
M  V30 21 C -3.80753 3.39358 -0.176191 0
M  V30 22 C -3.67248 2.37153 -1.09431 0
M  V30 23 Cl -3.85998 4.40054 2.38311 0
M  V30 24 H -0.411577 -4.49161 1.08159 0
M  V30 25 H -1.63307 -5.48924 0.130313 0
M  V30 26 H -0.0989964 -4.98399 -0.63631 0
M  V30 27 H 1.07439 -3.28001 0.381457 0
M  V30 28 H 3.20346 -2.19183 0.803323 0
M  V30 29 H 5.17971 2.89881 0.0401378 0
M  V30 30 H 3.74482 2.21256 0.853896 0
M  V30 31 H 7.54439 0.935116 0.626907 0
M  V30 32 H 7.03334 1.05975 2.33299 0
M  V30 33 H 1.46046 0.84826 -0.443137 0
M  V30 34 H -0.809732 0.954641 -1.19156 0
M  V30 35 H -4.3024 -0.384117 -1.97059 0
M  V30 36 H -2.82945 0.405507 -2.64444 0
M  V30 37 H -3.12029 -0.202969 0.945489 0
M  V30 38 H -3.36316 1.64436 2.62986 0
M  V30 39 H -4.00456 4.42833 -0.484673 0
M  V30 40 H -3.76044 2.5784 -2.15303 0
M  V30 END ATOM
M  V30 BEGIN BOND
M  V30 1 1 1 2
M  V30 2 1 2 3
M  V30 3 2 3 4
M  V30 4 1 4 5
M  V30 5 1 5 6
M  V30 6 2 6 7 CFG=2
M  V30 7 1 7 8
M  V30 8 2 8 9 CFG=2
M  V30 9 1 9 10
M  V30 10 1 9 11
M  V30 11 2 5 12
M  V30 12 1 12 13
M  V30 13 2 13 14
M  V30 14 1 14 15
M  V30 15 1 15 16
M  V30 16 1 16 17
M  V30 17 2 17 18
M  V30 18 1 18 19
M  V30 19 2 19 20
M  V30 20 1 20 21
M  V30 21 2 21 22
M  V30 22 1 20 23
M  V30 23 1 14 3
M  V30 24 1 22 17
M  V30 25 1 1 24
M  V30 26 1 1 25
M  V30 27 1 1 26
M  V30 28 1 4 27
M  V30 29 1 6 28
M  V30 30 1 10 29
M  V30 31 1 10 30
M  V30 32 1 11 31
M  V30 33 1 11 32
M  V30 34 1 12 33
M  V30 35 1 13 34
M  V30 36 1 16 35
M  V30 37 1 16 36
M  V30 38 1 18 37
M  V30 39 1 19 38
M  V30 40 1 21 39
M  V30 41 1 22 40
M  V30 END BOND
M  V30 END CTAB
M  END
