
     RDKit          3D

  0  0  0  0  0  0  0  0  0  0999 V3000
M  V30 BEGIN CTAB
M  V30 COUNTS 52 55 0 0 0
M  V30 BEGIN ATOM
M  V30 1 N 6.68515 3.18349 -0.691247 0
M  V30 2 C 6.01393 1.9547 -0.518864 0
M  V30 3 C 5.54789 1.21896 -1.59621 0
M  V30 4 C 4.89581 0.0249484 -1.42588 0
M  V30 5 C 4.67349 -0.500266 -0.16368 0
M  V30 6 C 3.96491 -1.79492 -0.00707954 0
M  V30 7 C 2.47224 -1.57925 0.116868 0
M  V30 8 N 1.76409 -2.82485 0.270128 0
M  V30 9 C 0.337903 -2.87344 0.406542 0
M  V30 10 N -0.392214 -1.73695 0.395042 0
M  V30 11 C -1.7112 -1.71455 0.516553 0
M  V30 12 C -2.38145 -2.91045 0.662889 0
M  V30 13 N -3.70186 -2.68384 0.77025 0
M  V30 14 C -3.8707 -1.34363 0.69212 0
M  V30 15 N -2.66237 -0.768254 0.539034 0
M  V30 16 C -2.39406 0.668056 0.41344 0 CFG=2
M  V30 17 O -3.23025 1.32453 1.27231 0
M  V30 18 C -3.93001 2.28664 0.567664 0 CFG=2
M  V30 19 C -5.2693 2.61199 1.16605 0
M  V30 20 O -5.85674 3.59085 0.354605 0
M  V30 21 C -4.0717 1.71559 -0.840012 0 CFG=1
M  V30 22 O -4.27306 2.7306 -1.77062 0
M  V30 23 C -2.71192 1.06476 -0.99017 0 CFG=1
M  V30 24 O -1.82616 2.08328 -1.40035 0
M  V30 25 C -1.63127 -4.07516 0.674494 0
M  V30 26 N -2.32546 -5.30411 0.825405 0
M  V30 27 N -0.29759 -4.04208 0.547725 0
M  V30 28 C 5.13373 0.224086 0.92259 0
M  V30 29 C 5.78716 1.42277 0.729555 0
M  V30 30 I 6.48408 2.51827 2.38928 0
M  V30 31 H 6.33557 3.88132 -1.38169 0
M  V30 32 H 7.53166 3.4108 -0.137393 0
M  V30 33 H 5.71715 1.623 -2.59973 0
M  V30 34 H 4.53226 -0.547552 -2.28088 0
M  V30 35 H 4.39111 -2.29238 0.877232 0
M  V30 36 H 4.17272 -2.40019 -0.919859 0
M  V30 37 H 2.12158 -0.989795 -0.740917 0
M  V30 38 H 2.28517 -0.971296 1.02963 0
M  V30 39 H 2.32128 -3.69811 0.279317 0
M  V30 40 H -4.82684 -0.835994 0.745797 0
M  V30 41 H -1.31704 0.861255 0.681502 0
M  V30 42 H -3.29175 3.17632 0.485471 0
M  V30 43 H -5.89803 1.71535 1.21404 0
M  V30 44 H -5.10364 3.05195 2.15677 0
M  V30 45 H -5.49016 4.46548 0.655898 0
M  V30 46 H -4.89628 0.992766 -0.810581 0
M  V30 47 H -5.25707 2.83725 -1.91721 0
M  V30 48 H -2.72241 0.231222 -1.70824 0
M  V30 49 H -1.65079 2.6825 -0.636454 0
M  V30 50 H -3.25294 -5.39727 0.376668 0
M  V30 51 H -1.87803 -6.07122 1.38287 0
M  V30 52 H 4.95344 -0.197179 1.89855 0
M  V30 END ATOM
M  V30 BEGIN BOND
M  V30 1 1 1 2
M  V30 2 2 2 3
M  V30 3 1 3 4
M  V30 4 2 4 5
M  V30 5 1 5 6
M  V30 6 1 6 7
M  V30 7 1 7 8
M  V30 8 1 8 9
M  V30 9 2 9 10
M  V30 10 1 10 11
M  V30 11 2 11 12
M  V30 12 1 12 13
M  V30 13 2 13 14
M  V30 14 1 14 15
M  V30 15 1 15 16
M  V30 16 1 16 17
M  V30 17 1 17 18
M  V30 18 1 18 19
M  V30 19 1 19 20
M  V30 20 1 18 21
M  V30 21 1 21 22
M  V30 22 1 21 23
M  V30 23 1 23 24
M  V30 24 1 12 25
M  V30 25 1 25 26
M  V30 26 2 25 27
M  V30 27 1 5 28
M  V30 28 2 28 29
M  V30 29 1 29 30
M  V30 30 1 29 2
M  V30 31 1 27 9
M  V30 32 1 15 11
M  V30 33 1 23 16
M  V30 34 1 1 31
M  V30 35 1 1 32
M  V30 36 1 3 33
M  V30 37 1 4 34
M  V30 38 1 6 35
M  V30 39 1 6 36
M  V30 40 1 7 37
M  V30 41 1 7 38
M  V30 42 1 8 39
M  V30 43 1 14 40
M  V30 44 1 16 41 CFG=1
M  V30 45 1 18 42 CFG=3
M  V30 46 1 19 43
M  V30 47 1 19 44
M  V30 48 1 20 45
M  V30 49 1 21 46 CFG=1
M  V30 50 1 22 47
M  V30 51 1 23 48 CFG=3
M  V30 52 1 24 49
M  V30 53 1 26 50
M  V30 54 1 26 51
M  V30 55 1 28 52
M  V30 END BOND
M  V30 END CTAB
M  END
