
     RDKit          3D

  0  0  0  0  0  0  0  0  0  0999 V3000
M  V30 BEGIN CTAB
M  V30 COUNTS 32 33 0 0 0
M  V30 BEGIN ATOM
M  V30 1 C -2.56229 -1.7601 1.65102 0
M  V30 2 C -2.53374 -0.638686 0.68244 0
M  V30 3 C -1.33215 -0.324298 -0.000431388 0
M  V30 4 C -0.192332 -1.14072 0.354918 0
M  V30 5 C 1.1523 -0.608926 0.290811 0
M  V30 6 C 1.99439 -1.04069 -0.732865 0
M  V30 7 C 3.2894 -0.607931 -0.878506 0
M  V30 8 C 3.80912 0.300458 0.0216031 0
M  V30 9 C 2.99507 0.741105 1.04387 0
M  V30 10 C 1.70097 0.298065 1.17451 0
M  V30 11 N 5.16537 0.776651 -0.0922126 0 CHG=1
M  V30 12 O 5.68679 1.65621 0.809981 0 CHG=-1
M  V30 13 O 5.84268 0.350825 -1.04058 0
M  V30 14 C -1.35636 0.699184 -0.893286 0
M  V30 15 N -0.1903 1.05526 -1.59667 0
M  V30 16 N -2.5275 1.3888 -1.1072 0
M  V30 17 C -3.64922 1.08809 -0.464639 0
M  V30 18 N -4.90058 1.75599 -0.636664 0
M  V30 19 N -3.63843 0.0804004 0.420442 0
M  V30 20 H -2.39597 -1.45583 2.69213 0
M  V30 21 H -3.61181 -2.19132 1.59442 0
M  V30 22 H -1.93441 -2.6242 1.31767 0
M  V30 23 H -0.271986 -2.16684 -0.128139 0
M  V30 24 H -0.333046 -1.43528 1.45561 0
M  V30 25 H 1.63176 -1.75122 -1.46784 0
M  V30 26 H 3.89846 -0.982794 -1.69603 0
M  V30 27 H 3.43556 1.4583 1.74745 0
M  V30 28 H 1.0604 0.648586 1.98971 0
M  V30 29 H 0.408229 1.82392 -1.21341 0
M  V30 30 H 0.0958346 0.597303 -2.48633 0
M  V30 31 H -5.43306 2.14157 0.18901 0
M  V30 32 H -5.30314 1.86815 -1.58091 0
M  V30 END ATOM
M  V30 BEGIN BOND
M  V30 1 1 1 2
M  V30 2 2 2 3
M  V30 3 1 3 4
M  V30 4 1 4 5
M  V30 5 2 5 6
M  V30 6 1 6 7
M  V30 7 2 7 8
M  V30 8 1 8 9
M  V30 9 2 9 10
M  V30 10 1 8 11
M  V30 11 1 11 12
M  V30 12 2 11 13
M  V30 13 1 3 14
M  V30 14 1 14 15
M  V30 15 2 14 16
M  V30 16 1 16 17
M  V30 17 1 17 18
M  V30 18 2 17 19
M  V30 19 1 19 2
M  V30 20 1 10 5
M  V30 21 1 1 20
M  V30 22 1 1 21
M  V30 23 1 1 22
M  V30 24 1 4 23
M  V30 25 1 4 24
M  V30 26 1 6 25
M  V30 27 1 7 26
M  V30 28 1 9 27
M  V30 29 1 10 28
M  V30 30 1 15 29
M  V30 31 1 15 30
M  V30 32 1 18 31
M  V30 33 1 18 32
M  V30 END BOND
M  V30 END CTAB
M  END
