
     RDKit          3D

  0  0  0  0  0  0  0  0  0  0999 V3000
M  V30 BEGIN CTAB
M  V30 COUNTS 24 24 0 0 0
M  V30 BEGIN ATOM
M  V30 1 N -3.26607 -0.608895 -0.280649 0
M  V30 2 C -2.9709 0.542607 0.55418 0
M  V30 3 C -1.49246 0.418213 0.934773 0
M  V30 4 N -0.683393 0.420082 -0.257638 0
M  V30 5 C 0.731012 0.314105 -0.15411 0
M  V30 6 C 1.40004 -0.877097 -0.156138 0
M  V30 7 N 0.63889 -2.07108 -0.267908 0
M  V30 8 C 2.77578 -0.977581 -0.055237 0
M  V30 9 C 3.47767 0.202837 0.0513328 0
M  V30 10 C 2.86102 1.43597 0.0592445 0
M  V30 11 C 1.48376 1.47354 -0.0445854 0
M  V30 12 F 0.876386 2.68687 -0.0368549 0
M  V30 13 F 3.59291 2.57486 0.166253 0
M  V30 14 H -4.11015 -0.474105 -0.867136 0
M  V30 15 H -3.42162 -1.41517 0.359734 0
M  V30 16 H -3.6126 0.461618 1.44811 0
M  V30 17 H -3.12924 1.45149 -0.0409984 0
M  V30 18 H -1.29708 -0.514494 1.47922 0
M  V30 19 H -1.25578 1.27106 1.6111 0
M  V30 20 H -1.13955 0.499274 -1.19267 0
M  V30 21 H -0.383938 -2.11835 -0.0546761 0
M  V30 22 H 1.08964 -2.95558 -0.573176 0
M  V30 23 H 3.28827 -1.93016 -0.0585877 0
M  V30 24 H 4.54741 0.18997 0.13271 0
M  V30 END ATOM
M  V30 BEGIN BOND
M  V30 1 1 1 2
M  V30 2 1 2 3
M  V30 3 1 3 4
M  V30 4 1 4 5
M  V30 5 2 5 6
M  V30 6 1 6 7
M  V30 7 1 6 8
M  V30 8 2 8 9
M  V30 9 1 9 10
M  V30 10 2 10 11
M  V30 11 1 11 12
M  V30 12 1 10 13
M  V30 13 1 11 5
M  V30 14 1 1 14
M  V30 15 1 1 15
M  V30 16 1 2 16
M  V30 17 1 2 17
M  V30 18 1 3 18
M  V30 19 1 3 19
M  V30 20 1 4 20
M  V30 21 1 7 21
M  V30 22 1 7 22
M  V30 23 1 8 23
M  V30 24 1 9 24
M  V30 END BOND
M  V30 END CTAB
M  END
