
     RDKit          3D

  0  0  0  0  0  0  0  0  0  0999 V3000
M  V30 BEGIN CTAB
M  V30 COUNTS 20 19 0 0 0
M  V30 BEGIN ATOM
M  V30 1 N -2.07785 -0.51255 -1.04446 0
M  V30 2 C -1.39088 -0.517445 0.201266 0
M  V30 3 C -0.0164169 0.0692702 0.161193 0
M  V30 4 C 0.887312 -0.633036 -0.762143 0
M  V30 5 S 0.494304 -1.91691 -1.66425 0
M  V30 6 N 2.22369 -0.136053 -0.867305 0
M  V30 7 C 0.581525 -0.0870603 1.56597 0
M  V30 8 C 0.0250255 1.52963 -0.140275 0
M  V30 9 H -2.1735 -1.48936 -1.39078 0
M  V30 10 H -3.05109 -0.165901 -0.901006 0
M  V30 11 H -1.28435 -1.56873 0.564185 0
M  V30 12 H -2.00268 -0.00551664 0.961021 0
M  V30 13 H 2.5612 0.481253 -1.6124 0
M  V30 14 H 2.88628 -0.432446 -0.126346 0
M  V30 15 H 0.474253 -1.14607 1.83499 0
M  V30 16 H -0.0965531 0.505343 2.2337 0
M  V30 17 H 1.62079 0.281237 1.58575 0
M  V30 18 H 1.07812 1.86948 0.0916226 0
M  V30 19 H -0.11574 1.77206 -1.21691 0
M  V30 20 H -0.623433 2.1028 0.526181 0
M  V30 END ATOM
M  V30 BEGIN BOND
M  V30 1 1 1 2
M  V30 2 1 2 3
M  V30 3 1 3 4
M  V30 4 2 4 5
M  V30 5 1 4 6
M  V30 6 1 3 7
M  V30 7 1 3 8
M  V30 8 1 1 9
M  V30 9 1 1 10
M  V30 10 1 2 11
M  V30 11 1 2 12
M  V30 12 1 6 13
M  V30 13 1 6 14
M  V30 14 1 7 15
M  V30 15 1 7 16
M  V30 16 1 7 17
M  V30 17 1 8 18
M  V30 18 1 8 19
M  V30 19 1 8 20
M  V30 END BOND
M  V30 END CTAB
M  END
