
     RDKit          3D

  0  0  0  0  0  0  0  0  0  0999 V3000
M  V30 BEGIN CTAB
M  V30 COUNTS 145 147 0 0 0
M  V30 BEGIN ATOM
M  V30 1 C -11.1615 2.0253 -2.99311 0 CFG=1
M  V30 2 N -12.0337 3.1254 -3.28539 0
M  V30 3 C -10.1906 1.74924 -4.13099 0
M  V30 4 C -9.35593 2.9386 -4.38297 0
M  V30 5 O -8.37217 2.87549 -5.36733 0
M  V30 6 O -9.54525 3.9687 -3.71501 0
M  V30 7 C -10.3929 2.23911 -1.72876 0
M  V30 8 O -10.6635 3.27365 -1.05668 0
M  V30 9 N -9.42081 1.30885 -1.34129 0
M  V30 10 C -8.59692 1.37733 -0.149079 0 CFG=1
M  V30 11 C -8.79227 0.206218 0.780401 0
M  V30 12 C -10.222 0.0956383 1.25624 0
M  V30 13 C -10.3971 -1.0826 2.1834 0
M  V30 14 N -9.61093 -1.03605 3.37396 0
M  V30 15 C -9.91584 -0.0773778 4.35044 0
M  V30 16 N -8.89877 0.768443 4.85397 0
M  V30 17 N -11.1399 -0.00154946 4.77397 0
M  V30 18 C -7.17686 1.55994 -0.526235 0
M  V30 19 O -6.89349 1.67287 -1.77216 0
M  V30 20 N -6.11688 1.61855 0.383054 0
M  V30 21 C -4.72953 1.80989 -0.0422225 0 CFG=1
M  V30 22 C -4.17592 3.05505 0.591966 0
M  V30 23 C -2.75211 3.38612 0.249296 0
M  V30 24 C -4.37441 3.07395 2.10147 0
M  V30 25 C -3.92021 0.588783 0.227395 0
M  V30 26 O -4.39166 -0.295023 0.981926 0
M  V30 27 N -2.63956 0.380782 -0.336136 0
M  V30 28 C -1.82568 -0.817928 -0.0501951 0 CFG=1
M  V30 29 C -1.97014 -1.75339 -1.25956 0
M  V30 30 C -1.23703 -3.01531 -1.13888 0
M  V30 31 C -1.85052 -4.12225 -0.53655 0
M  V30 32 C -1.21899 -5.32505 -0.406211 0
M  V30 33 C 0.0884398 -5.53129 -0.868342 0
M  V30 34 O 0.691689 -6.76922 -0.717008 0
M  V30 35 C 0.704786 -4.44605 -1.46384 0
M  V30 36 C 0.0536652 -3.2405 -1.58581 0
M  V30 37 C -0.449609 -0.391821 0.143674 0
M  V30 38 O -0.125729 0.787168 -0.276261 0
M  V30 39 N 0.634794 -1.0921 0.746676 0
M  V30 40 C 1.94538 -0.461118 0.820449 0 CFG=1
M  V30 41 C 2.25623 0.0103242 2.20277 0
M  V30 42 C 1.17726 1.06555 2.60642 0
M  V30 43 C 2.24983 -0.97601 3.30803 0
M  V30 44 C 3.23518 -2.0976 3.22427 0
M  V30 45 C 3.02475 -1.12478 0.0838446 0
M  V30 46 O 3.18335 -2.36167 0.157335 0
M  V30 47 N 3.92834 -0.413483 -0.736847 0
M  V30 48 C 5.04878 -0.877597 -1.47394 0 CFG=1
M  V30 49 C 4.60911 -1.96797 -2.43838 0
M  V30 50 C 3.58059 -1.60879 -3.40359 0
M  V30 51 C 3.15328 -2.53945 -4.36949 0
M  V30 52 N 2.21093 -1.93392 -5.08237 0
M  V30 53 C 2.01834 -0.689491 -4.6264 0
M  V30 54 N 2.86224 -0.516898 -3.60811 0
M  V30 55 C 5.75943 0.210472 -2.1293 0
M  V30 56 O 5.07903 1.11076 -2.73714 0
M  V30 57 N 7.14708 0.38659 -2.16315 0
M  V30 58 C 7.86799 1.43314 -2.89858 0
M  V30 59 C 9.14563 0.796553 -3.39941 0
M  V30 60 C 9.31482 -0.371765 -2.45416 0
M  V30 61 C 8.2278 -0.313067 -1.44233 0 CFG=1
M  V30 62 C 8.52247 0.507067 -0.248847 0
M  V30 63 O 7.69739 1.40079 0.0741668 0
M  V30 64 N 9.66266 0.397671 0.58869 0
M  V30 65 C 9.86551 1.24719 1.73556 0
M  V30 66 C 9.86728 0.601736 3.05206 0
M  V30 67 C 10.8385 -0.448351 3.3867 0
M  V30 68 C 10.8228 -1.68563 2.53475 0
M  V30 69 C 12.2693 -0.0245766 3.57218 0
M  V30 70 C 10.9316 2.27091 1.50262 0
M  V30 71 O 11.2956 3.23151 2.40636 0
M  V30 72 O 11.5182 2.23005 0.393029 0
M  V30 73 H -11.7713 1.11714 -2.85294 0
M  V30 74 H -12.7427 2.77579 -4.00596 0
M  V30 75 H -12.5816 3.34674 -2.43783 0
M  V30 76 H -10.8163 1.48008 -5.02206 0
M  V30 77 H -9.62065 0.84282 -3.86238 0
M  V30 78 H -8.69847 2.82458 -6.32002 0
M  V30 79 H -9.24733 0.471737 -1.94505 0
M  V30 80 H -8.96584 2.29102 0.39665 0
M  V30 81 H -8.08998 0.221671 1.62889 0
M  V30 82 H -8.58749 -0.701254 0.186841 0
M  V30 83 H -10.9383 -0.0167301 0.422853 0
M  V30 84 H -10.5304 1.03336 1.79162 0
M  V30 85 H -11.4866 -1.18974 2.38185 0
M  V30 86 H -10.1331 -1.99228 1.58765 0
M  V30 87 H -8.82916 -1.70576 3.51533 0
M  V30 88 H -8.50028 1.48774 4.20843 0
M  V30 89 H -8.55133 0.683805 5.83053 0
M  V30 90 H -11.4572 0.676186 5.49251 0
M  V30 91 H -6.31639 1.51269 1.38676 0
M  V30 92 H -4.74454 1.94996 -1.13622 0
M  V30 93 H -4.7938 3.91335 0.191398 0
M  V30 94 H -2.61823 3.41148 -0.835785 0
M  V30 95 H -2.02249 2.66918 0.688328 0
M  V30 96 H -2.50889 4.35842 0.759849 0
M  V30 97 H -5.098 3.82483 2.4414 0
M  V30 98 H -4.74746 2.07577 2.46341 0
M  V30 99 H -3.39364 3.24766 2.62237 0
M  V30 100 H -2.1959 1.04948 -0.993838 0
M  V30 101 H -2.24745 -1.32237 0.805707 0
M  V30 102 H -3.0195 -1.912 -1.53146 0
M  V30 103 H -1.51558 -1.17514 -2.1132 0
M  V30 104 H -2.8812 -3.96653 -0.169918 0
M  V30 105 H -1.71875 -6.16777 0.064212 0
M  V30 106 H 1.22068 -6.92601 0.141272 0
M  V30 107 H 1.72167 -4.5943 -1.8266 0
M  V30 108 H 0.528321 -2.3725 -2.04655 0
M  V30 109 H 0.524098 -2.0377 1.1565 0
M  V30 110 H 1.7846 0.538471 0.243773 0
M  V30 111 H 3.21268 0.575825 2.2046 0
M  V30 112 H 1.24959 1.96605 2.00242 0
M  V30 113 H 1.36118 1.31154 3.69004 0
M  V30 114 H 0.19244 0.564331 2.56262 0
M  V30 115 H 2.506 -0.400718 4.25657 0
M  V30 116 H 1.21324 -1.35206 3.54417 0
M  V30 117 H 4.14976 -1.75772 2.72965 0
M  V30 118 H 2.82599 -3.03742 2.79166 0
M  V30 119 H 3.46992 -2.41292 4.30014 0
M  V30 120 H 3.72607 0.636853 -0.806369 0
M  V30 121 H 5.71838 -1.4714 -0.756117 0
M  V30 122 H 5.51087 -2.315 -3.03413 0
M  V30 123 H 4.32191 -2.84395 -1.85256 0
M  V30 124 H 3.53738 -3.52122 -4.47561 0
M  V30 125 H 1.70174 -2.37321 -5.88344 0
M  V30 126 H 1.30648 0.0207358 -5.02399 0
M  V30 127 H 7.25549 1.75826 -3.76191 0
M  V30 128 H 8.05654 2.30504 -2.23031 0
M  V30 129 H 9.98934 1.52563 -3.29139 0
M  V30 130 H 9.05701 0.413846 -4.43091 0
M  V30 131 H 9.19626 -1.35356 -3.00401 0
M  V30 132 H 10.3336 -0.39299 -2.02421 0
M  V30 133 H 7.85435 -1.29614 -1.09185 0
M  V30 134 H 10.3699 -0.312333 0.345229 0
M  V30 135 H 8.91449 1.91042 1.74484 0
M  V30 136 H 9.93704 1.39969 3.8297 0
M  V30 137 H 8.84416 0.170074 3.21584 0
M  V30 138 H 10.5268 -0.814573 4.4271 0
M  V30 139 H 11.6797 -1.7007 1.79556 0
M  V30 140 H 9.85063 -1.89289 2.0555 0
M  V30 141 H 11.0391 -2.56459 3.1795 0
M  V30 142 H 12.4337 1.03594 3.74837 0
M  V30 143 H 12.8759 -0.419923 2.70446 0
M  V30 144 H 12.7408 -0.537598 4.46279 0
M  V30 145 H 10.7006 4.07708 2.46271 0
M  V30 END ATOM
M  V30 BEGIN BOND
M  V30 1 1 1 2
M  V30 2 1 1 3
M  V30 3 1 3 4
M  V30 4 1 4 5
M  V30 5 2 4 6
M  V30 6 1 1 7
M  V30 7 2 7 8
M  V30 8 1 7 9
M  V30 9 1 9 10
M  V30 10 1 10 11
M  V30 11 1 11 12
M  V30 12 1 12 13
M  V30 13 1 13 14
M  V30 14 1 14 15
M  V30 15 1 15 16
M  V30 16 2 15 17 CFG=2
M  V30 17 1 10 18
M  V30 18 2 18 19
M  V30 19 1 18 20
M  V30 20 1 20 21
M  V30 21 1 21 22
M  V30 22 1 22 23
M  V30 23 1 22 24
M  V30 24 1 21 25
M  V30 25 2 25 26
M  V30 26 1 25 27
M  V30 27 1 27 28
M  V30 28 1 28 29
M  V30 29 1 29 30
M  V30 30 2 30 31
M  V30 31 1 31 32
M  V30 32 2 32 33
M  V30 33 1 33 34
M  V30 34 1 33 35
M  V30 35 2 35 36
M  V30 36 1 28 37
M  V30 37 2 37 38
M  V30 38 1 37 39
M  V30 39 1 39 40
M  V30 40 1 40 41
M  V30 41 1 41 42
M  V30 42 1 41 43
M  V30 43 1 43 44
M  V30 44 1 40 45
M  V30 45 2 45 46
M  V30 46 1 45 47
M  V30 47 1 47 48
M  V30 48 1 48 49
M  V30 49 1 49 50
M  V30 50 2 50 51
M  V30 51 1 51 52
M  V30 52 1 52 53
M  V30 53 2 53 54
M  V30 54 1 48 55
M  V30 55 2 55 56
M  V30 56 1 55 57
M  V30 57 1 57 58
M  V30 58 1 58 59
M  V30 59 1 59 60
M  V30 60 1 60 61
M  V30 61 1 61 62
M  V30 62 2 62 63
M  V30 63 1 62 64
M  V30 64 1 64 65
M  V30 65 1 65 66
M  V30 66 1 66 67
M  V30 67 1 67 68
M  V30 68 1 67 69
M  V30 69 1 65 70
M  V30 70 1 70 71
M  V30 71 2 70 72
M  V30 72 1 36 30
M  V30 73 1 54 50
M  V30 74 1 61 57
M  V30 75 1 1 73 CFG=1
M  V30 76 1 2 74
M  V30 77 1 2 75
M  V30 78 1 3 76
M  V30 79 1 3 77
M  V30 80 1 5 78
M  V30 81 1 9 79
M  V30 82 1 10 80 CFG=1
M  V30 83 1 11 81
M  V30 84 1 11 82
M  V30 85 1 12 83
M  V30 86 1 12 84
M  V30 87 1 13 85
M  V30 88 1 13 86
M  V30 89 1 14 87
M  V30 90 1 16 88
M  V30 91 1 16 89
M  V30 92 1 17 90
M  V30 93 1 20 91
M  V30 94 1 21 92 CFG=3
M  V30 95 1 22 93
M  V30 96 1 23 94
M  V30 97 1 23 95
M  V30 98 1 23 96
M  V30 99 1 24 97
M  V30 100 1 24 98
M  V30 101 1 24 99
M  V30 102 1 27 100
M  V30 103 1 28 101 CFG=1
M  V30 104 1 29 102
M  V30 105 1 29 103
M  V30 106 1 31 104
M  V30 107 1 32 105
M  V30 108 1 34 106
M  V30 109 1 35 107
M  V30 110 1 36 108
M  V30 111 1 39 109
M  V30 112 1 40 110 CFG=3
M  V30 113 1 41 111
M  V30 114 1 42 112
M  V30 115 1 42 113
M  V30 116 1 42 114
M  V30 117 1 43 115
M  V30 118 1 43 116
M  V30 119 1 44 117
M  V30 120 1 44 118
M  V30 121 1 44 119
M  V30 122 1 47 120
M  V30 123 1 48 121 CFG=1
M  V30 124 1 49 122
M  V30 125 1 49 123
M  V30 126 1 51 124
M  V30 127 1 52 125
M  V30 128 1 53 126
M  V30 129 1 58 127
M  V30 130 1 58 128
M  V30 131 1 59 129
M  V30 132 1 59 130
M  V30 133 1 60 131
M  V30 134 1 60 132
M  V30 135 1 61 133 CFG=1
M  V30 136 1 64 134
M  V30 137 1 65 135
M  V30 138 1 66 136
M  V30 139 1 66 137
M  V30 140 1 67 138
M  V30 141 1 68 139
M  V30 142 1 68 140
M  V30 143 1 68 141
M  V30 144 1 69 142
M  V30 145 1 69 143
M  V30 146 1 69 144
M  V30 147 1 71 145
M  V30 END BOND
M  V30 END CTAB
M  END
