
     RDKit          3D

  0  0  0  0  0  0  0  0  0  0999 V3000
M  V30 BEGIN CTAB
M  V30 COUNTS 27 27 0 0 0
M  V30 BEGIN ATOM
M  V30 1 N 3.869 -1.67687 -0.469283 0
M  V30 2 N 3.14527 -0.864599 0.33896 0
M  V30 3 C 2.0601 0.0123827 0.048041 0
M  V30 4 N 2.14646 1.34856 -0.087716 0
M  V30 5 C 1.06882 2.13565 -0.269068 0
M  V30 6 N 1.23086 3.55954 -0.339158 0
M  V30 7 N -0.147825 1.56178 -0.314714 0
M  V30 8 C -0.299544 0.240036 -0.186174 0
M  V30 9 N 0.788718 -0.498085 -0.0155869 0
M  V30 10 C -1.66353 -0.375349 -0.0350278 0
M  V30 11 C -2.17832 -1.11298 -1.21318 0
M  V30 12 C -2.61284 0.647771 0.540755 0
M  V30 13 C -1.44363 -1.42496 1.10286 0
M  V30 14 H 4.07546 -2.61002 0.00586675 0
M  V30 15 H 3.61835 -1.78136 -1.45778 0
M  V30 16 H 3.39505 -0.880678 1.37781 0
M  V30 17 H 2.02916 3.94214 0.266685 0
M  V30 18 H 0.680776 4.2087 -0.884164 0
M  V30 19 H -2.46797 -2.20389 -0.950337 0
M  V30 20 H -1.53312 -1.21099 -2.07682 0
M  V30 21 H -3.19984 -0.711077 -1.53838 0
M  V30 22 H -2.29523 0.874127 1.59763 0
M  V30 23 H -2.58086 1.55944 -0.0768818 0
M  V30 24 H -3.62048 0.264837 0.581757 0
M  V30 25 H -2.3038 -1.51603 1.75344 0
M  V30 26 H -0.522299 -1.10106 1.67398 0
M  V30 27 H -1.23874 -2.38702 0.62649 0
M  V30 END ATOM
M  V30 BEGIN BOND
M  V30 1 1 1 2
M  V30 2 1 2 3
M  V30 3 2 3 4
M  V30 4 1 4 5
M  V30 5 1 5 6
M  V30 6 2 5 7
M  V30 7 1 7 8
M  V30 8 2 8 9
M  V30 9 1 8 10
M  V30 10 1 10 11
M  V30 11 1 10 12
M  V30 12 1 10 13
M  V30 13 1 9 3
M  V30 14 1 1 14
M  V30 15 1 1 15
M  V30 16 1 2 16
M  V30 17 1 6 17
M  V30 18 1 6 18
M  V30 19 1 11 19
M  V30 20 1 11 20
M  V30 21 1 11 21
M  V30 22 1 12 22
M  V30 23 1 12 23
M  V30 24 1 12 24
M  V30 25 1 13 25
M  V30 26 1 13 26
M  V30 27 1 13 27
M  V30 END BOND
M  V30 END CTAB
M  END
