
     RDKit          3D

  0  0  0  0  0  0  0  0  0  0999 V3000
M  V30 BEGIN CTAB
M  V30 COUNTS 24 24 0 0 0
M  V30 BEGIN ATOM
M  V30 1 O 4.55789 1.75051 -1.46688 0
M  V30 2 N 3.20792 1.62706 -1.2684 0
M  V30 3 C 2.76425 0.920865 -0.282204 0
M  V30 4 C 1.30675 0.816696 -0.108195 0
M  V30 5 O 0.859952 -0.524906 -0.18534 0
M  V30 6 C -0.495462 -0.786791 -0.0399841 0
M  V30 7 C -0.989683 -2.08239 -0.1065 0
M  V30 8 C -2.32816 -2.36393 0.0347597 0
M  V30 9 C -3.23788 -1.37665 0.248151 0
M  V30 10 C -2.78948 -0.0667117 0.32189 0
M  V30 11 C -1.42454 0.200864 0.175892 0
M  V30 12 N -3.64733 1.01934 0.538561 0
M  V30 13 N 3.63076 0.259238 0.615483 0
M  V30 14 H 5.17204 1.6651 -0.64917 0
M  V30 15 H 1.05278 1.15191 0.940573 0
M  V30 16 H 0.733762 1.46956 -0.772779 0
M  V30 17 H -0.269795 -2.87171 -0.27616 0
M  V30 18 H -2.71159 -3.39385 -0.019323 0
M  V30 19 H -4.30193 -1.54328 0.366148 0
M  V30 20 H -1.04068 1.2236 0.229214 0
M  V30 21 H -3.30909 1.85492 1.04416 0
M  V30 22 H -4.61983 0.997176 0.198053 0
M  V30 23 H 4.3278 -0.440291 0.280149 0
M  V30 24 H 3.55155 0.493656 1.63292 0
M  V30 END ATOM
M  V30 BEGIN BOND
M  V30 1 1 1 2
M  V30 2 2 2 3 CFG=2
M  V30 3 1 3 4
M  V30 4 1 4 5
M  V30 5 1 5 6
M  V30 6 2 6 7
M  V30 7 1 7 8
M  V30 8 2 8 9
M  V30 9 1 9 10
M  V30 10 2 10 11
M  V30 11 1 10 12
M  V30 12 1 3 13
M  V30 13 1 11 6
M  V30 14 1 1 14
M  V30 15 1 4 15
M  V30 16 1 4 16
M  V30 17 1 7 17
M  V30 18 1 8 18
M  V30 19 1 9 19
M  V30 20 1 11 20
M  V30 21 1 12 21
M  V30 22 1 12 22
M  V30 23 1 13 23
M  V30 24 1 13 24
M  V30 END BOND
M  V30 END CTAB
M  END
