
     RDKit          3D

  0  0  0  0  0  0  0  0  0  0999 V3000
M  V30 BEGIN CTAB
M  V30 COUNTS 75 80 0 0 0
M  V30 BEGIN ATOM
M  V30 1 O 6.73465 4.09831 1.69847 0
M  V30 2 C 5.67073 3.26279 1.95067 0
M  V30 3 C 5.8941 1.99531 1.15523 0 CFG=1
M  V30 4 O 4.86287 1.07761 1.3446 0
M  V30 5 C 4.98289 0.256729 0.245941 0 CFG=2
M  V30 6 C 5.00466 1.27554 -0.900292 0 CFG=1
M  V30 7 C 5.93063 2.32248 -0.321122 0 CFG=2
M  V30 8 O 7.24887 2.06706 -0.764254 0
M  V30 9 O 5.53281 0.702951 -2.05548 0
M  V30 10 N 3.92352 -0.70534 0.101379 0
M  V30 11 C 2.59399 -0.548153 0.294172 0
M  V30 12 N 1.99386 0.676927 0.67992 0
M  V30 13 C 0.538866 0.7312 0.893578 0
M  V30 14 C 0.130021 -0.0598406 2.08127 0
M  V30 15 C -1.33685 -0.0898809 2.40089 0
M  V30 16 N -2.14186 -0.653493 1.33809 0
M  V30 17 C -2.71882 0.24703 0.38241 0
M  V30 18 N -2.62555 1.58779 0.434186 0
M  V30 19 C -3.25464 2.13568 -0.596641 0
M  V30 20 C -3.76913 1.11016 -1.33473 0
M  V30 21 N -3.42431 -0.0722264 -0.70669 0
M  V30 22 C -3.83561 -1.29444 -1.28829 0 CFG=2
M  V30 23 O -5.19523 -1.09107 -1.71326 0
M  V30 24 C -6.00484 -1.44152 -0.674244 0 CFG=1
M  V30 25 C -5.18815 -2.23619 0.33043 0 CFG=2
M  V30 26 C -3.98513 -2.52711 -0.538548 0 CFG=1
M  V30 27 O -4.50296 -3.49234 -1.48821 0
M  V30 28 O -5.80211 -3.43562 0.677777 0
M  V30 29 C -6.71376 -0.342435 0.0326921 0
M  V30 30 O -7.55238 0.37478 -0.824467 0
M  V30 31 N -4.45346 1.41368 -2.43855 0
M  V30 32 C -4.64664 2.67779 -2.83607 0
M  V30 33 N -4.13926 3.68302 -2.1074 0
M  V30 34 C -3.43857 3.46961 -0.984484 0
M  V30 35 N -2.88744 4.49587 -0.188076 0
M  V30 36 N 1.96695 -1.72284 0.043902 0
M  V30 37 C 2.8711 -2.6272 -0.305205 0
M  V30 38 C 4.08577 -1.99355 -0.268969 0
M  V30 39 N 5.20674 -2.69065 -0.58634 0
M  V30 40 C 5.08125 -3.98304 -0.925859 0
M  V30 41 N 3.87885 -4.61859 -0.963988 0
M  V30 42 C 2.74514 -3.96527 -0.65717 0
M  V30 43 N 1.47235 -4.59055 -0.684843 0
M  V30 44 H 7.56462 3.63652 1.65013 0
M  V30 45 H 4.75196 3.7623 1.59033 0
M  V30 46 H 5.6703 3.05698 3.02494 0
M  V30 47 H 6.84017 1.51736 1.50918 0
M  V30 48 H 5.95993 -0.285424 0.244717 0
M  V30 49 H 3.99031 1.66266 -1.06783 0
M  V30 50 H 5.61227 3.33799 -0.556885 0
M  V30 51 H 7.57483 1.25539 -0.259939 0
M  V30 52 H 5.92679 1.43617 -2.58779 0
M  V30 53 H 2.52965 1.53883 0.819785 0
M  V30 54 H 0.266835 1.80784 0.988026 0
M  V30 55 H 0.0567259 0.34568 -0.0259398 0
M  V30 56 H 0.422217 -1.14584 1.94776 0
M  V30 57 H 0.634755 0.30662 3.02429 0
M  V30 58 H -1.70892 0.921918 2.69661 0
M  V30 59 H -1.5208 -0.729348 3.31454 0
M  V30 60 H -2.24833 -1.66989 1.33943 0
M  V30 61 H -3.32101 -1.49903 -2.27559 0
M  V30 62 H -6.79752 -2.15703 -1.04261 0
M  V30 63 H -4.95664 -1.70273 1.24746 0
M  V30 64 H -3.16824 -3.0477 -0.093682 0
M  V30 65 H -4.97732 -3.0362 -2.21335 0
M  V30 66 H -5.9012 -4.06305 -0.0601408 0
M  V30 67 H -7.41441 -0.838051 0.768488 0
M  V30 68 H -6.07286 0.307067 0.652202 0
M  V30 69 H -7.77922 1.22488 -0.35594 0
M  V30 70 H -5.19831 2.94736 -3.72753 0
M  V30 71 H -1.89816 4.60426 0.0690364 0
M  V30 72 H -3.55896 5.22419 0.179681 0
M  V30 73 H 6.00705 -4.51673 -1.17664 0
M  V30 74 H 1.22052 -5.25416 0.079283 0
M  V30 75 H 0.75902 -4.42984 -1.42928 0
M  V30 END ATOM
M  V30 BEGIN BOND
M  V30 1 1 1 2
M  V30 2 1 2 3
M  V30 3 1 3 4
M  V30 4 1 4 5
M  V30 5 1 5 6
M  V30 6 1 6 7
M  V30 7 1 7 8
M  V30 8 1 6 9
M  V30 9 1 5 10
M  V30 10 1 10 11
M  V30 11 1 11 12
M  V30 12 1 12 13
M  V30 13 1 13 14
M  V30 14 1 14 15
M  V30 15 1 15 16
M  V30 16 1 16 17
M  V30 17 2 17 18
M  V30 18 1 18 19
M  V30 19 2 19 20
M  V30 20 1 20 21
M  V30 21 1 21 22
M  V30 22 1 22 23
M  V30 23 1 23 24
M  V30 24 1 24 25
M  V30 25 1 25 26
M  V30 26 1 26 27
M  V30 27 1 25 28
M  V30 28 1 24 29
M  V30 29 1 29 30
M  V30 30 1 20 31
M  V30 31 2 31 32
M  V30 32 1 32 33
M  V30 33 2 33 34
M  V30 34 1 34 35
M  V30 35 2 11 36
M  V30 36 1 36 37
M  V30 37 2 37 38
M  V30 38 1 38 39
M  V30 39 2 39 40
M  V30 40 1 40 41
M  V30 41 2 41 42
M  V30 42 1 42 43
M  V30 43 1 7 3
M  V30 44 1 38 10
M  V30 45 1 21 17
M  V30 46 1 26 22
M  V30 47 1 42 37
M  V30 48 1 34 19
M  V30 49 1 1 44
M  V30 50 1 2 45
M  V30 51 1 2 46
M  V30 52 1 3 47 CFG=1
M  V30 53 1 5 48 CFG=1
M  V30 54 1 6 49 CFG=3
M  V30 55 1 7 50 CFG=1
M  V30 56 1 8 51
M  V30 57 1 9 52
M  V30 58 1 12 53
M  V30 59 1 13 54
M  V30 60 1 13 55
M  V30 61 1 14 56
M  V30 62 1 14 57
M  V30 63 1 15 58
M  V30 64 1 15 59
M  V30 65 1 16 60
M  V30 66 1 22 61 CFG=3
M  V30 67 1 24 62 CFG=3
M  V30 68 1 25 63 CFG=1
M  V30 69 1 26 64 CFG=1
M  V30 70 1 27 65
M  V30 71 1 28 66
M  V30 72 1 29 67
M  V30 73 1 29 68
M  V30 74 1 30 69
M  V30 75 1 32 70
M  V30 76 1 35 71
M  V30 77 1 35 72
M  V30 78 1 40 73
M  V30 79 1 43 74
M  V30 80 1 43 75
M  V30 END BOND
M  V30 END CTAB
M  END
