
     RDKit          3D

  0  0  0  0  0  0  0  0  0  0999 V3000
M  V30 BEGIN CTAB
M  V30 COUNTS 72 75 0 0 0
M  V30 BEGIN ATOM
M  V30 1 C -9.02451 -1.49447 -2.13185 0
M  V30 2 C -8.2767 -1.47919 -0.838791 0
M  V30 3 C -8.8051 -0.290463 -0.0216408 0
M  V30 4 C -8.57187 -2.71003 0.0169717 0
M  V30 5 C -6.80737 -1.36803 -1.02105 0
M  V30 6 C -6.10438 -0.491645 -0.218013 0
M  V30 7 C -4.7253 -0.32722 -0.317677 0
M  V30 8 C -4.00994 0.586444 0.527687 0
M  V30 9 C -3.41879 1.35395 1.26205 0
M  V30 10 C -2.732 2.25733 2.15851 0
M  V30 11 N -1.39886 2.25635 2.2282 0
M  V30 12 C -0.684787 3.0561 3.02733 0
M  V30 13 C -1.37121 3.92671 3.82014 0
M  V30 14 C -2.77709 4.01075 3.82573 0
M  V30 15 C -3.41818 3.14473 2.9669 0
M  V30 16 C 0.786114 3.00814 3.05195 0
M  V30 17 N 1.43304 2.1234 2.23707 0
M  V30 18 C 2.75841 2.00917 2.1882 0
M  V30 19 C 3.52267 2.84051 3.01656 0
M  V30 20 C 2.94608 3.75423 3.86226 0
M  V30 21 C 1.55634 3.8049 3.84773 0
M  V30 22 C 3.41153 1.07267 1.31361 0
M  V30 23 C 3.99492 0.306929 0.579688 0
M  V30 24 C 4.72785 -0.570444 -0.281927 0
M  V30 25 C 6.0318 -0.309704 -0.657962 0
M  V30 26 C 6.77287 -1.11139 -1.47195 0
M  V30 27 C 6.18421 -2.26009 -1.95467 0
M  V30 28 C 4.88211 -2.55984 -1.60437 0
M  V30 29 C 4.16745 -1.72108 -0.777137 0
M  V30 30 N 2.80605 -2.05642 -0.428276 0
M  V30 31 C 8.16132 -0.79053 -1.85593 0
M  V30 32 C 8.88902 -1.88298 -2.56493 0
M  V30 33 C 8.94911 -0.310149 -0.627592 0
M  V30 34 C 8.08945 0.440976 -2.76965 0
M  V30 35 C -4.05983 -1.07885 -1.26123 0
M  V30 36 N -2.65922 -0.986139 -1.44378 0
M  V30 37 C -4.78815 -1.96032 -2.06486 0
M  V30 38 C -6.14951 -2.11058 -1.95305 0
M  V30 39 H -8.54145 -0.819212 -2.83534 0
M  V30 40 H -10.0544 -1.07514 -1.92489 0
M  V30 41 H -9.16314 -2.52615 -2.54164 0
M  V30 42 H -8.47678 -0.398721 1.02339 0
M  V30 43 H -8.34948 0.630847 -0.427554 0
M  V30 44 H -9.89278 -0.180681 -0.152647 0
M  V30 45 H -8.70042 -3.58549 -0.620745 0
M  V30 46 H -7.64705 -2.8684 0.643876 0
M  V30 47 H -9.39098 -2.50698 0.719116 0
M  V30 48 H -6.57526 0.122529 0.536517 0
M  V30 49 H -0.876398 4.61748 4.50195 0
M  V30 50 H -3.31071 4.70508 4.45665 0
M  V30 51 H -4.49833 3.14408 2.90896 0
M  V30 52 H 4.59826 2.76237 2.99198 0
M  V30 53 H 3.45732 4.42161 4.51932 0
M  V30 54 H 1.07297 4.52392 4.51128 0
M  V30 55 H 6.45712 0.604102 -0.255405 0
M  V30 56 H 6.75576 -2.92974 -2.61318 0
M  V30 57 H 4.38641 -3.45986 -1.96705 0
M  V30 58 H 2.21259 -2.648 -1.05856 0
M  V30 59 H 2.43245 -1.69298 0.467408 0
M  V30 60 H 8.42174 -2.1766 -3.50672 0
M  V30 61 H 9.91706 -1.46332 -2.79634 0
M  V30 62 H 9.08332 -2.72727 -1.8746 0
M  V30 63 H 8.49322 0.634677 -0.247016 0
M  V30 64 H 8.92641 -1.03273 0.186527 0
M  V30 65 H 9.96434 -0.0400531 -0.988589 0
M  V30 66 H 8.00965 1.33964 -2.11331 0
M  V30 67 H 7.18115 0.358218 -3.43186 0
M  V30 68 H 9.03063 0.534438 -3.33293 0
M  V30 69 H -2.07889 -0.211416 -1.06814 0
M  V30 70 H -2.1509 -1.72827 -1.98574 0
M  V30 71 H -4.27028 -2.55821 -2.81445 0
M  V30 72 H -6.71068 -2.79034 -2.57452 0
M  V30 END ATOM
M  V30 BEGIN BOND
M  V30 1 1 1 2
M  V30 2 1 2 3
M  V30 3 1 2 4
M  V30 4 1 2 5
M  V30 5 2 5 6
M  V30 6 1 6 7
M  V30 7 1 7 8
M  V30 8 3 8 9
M  V30 9 1 9 10
M  V30 10 2 10 11
M  V30 11 1 11 12
M  V30 12 2 12 13
M  V30 13 1 13 14
M  V30 14 2 14 15
M  V30 15 1 12 16
M  V30 16 2 16 17
M  V30 17 1 17 18
M  V30 18 2 18 19
M  V30 19 1 19 20
M  V30 20 2 20 21
M  V30 21 1 18 22
M  V30 22 3 22 23
M  V30 23 1 23 24
M  V30 24 2 24 25
M  V30 25 1 25 26
M  V30 26 2 26 27
M  V30 27 1 27 28
M  V30 28 2 28 29
M  V30 29 1 29 30
M  V30 30 1 26 31
M  V30 31 1 31 32
M  V30 32 1 31 33
M  V30 33 1 31 34
M  V30 34 2 7 35
M  V30 35 1 35 36
M  V30 36 1 35 37
M  V30 37 2 37 38
M  V30 38 1 38 5
M  V30 39 1 15 10
M  V30 40 1 21 16
M  V30 41 1 29 24
M  V30 42 1 1 39
M  V30 43 1 1 40
M  V30 44 1 1 41
M  V30 45 1 3 42
M  V30 46 1 3 43
M  V30 47 1 3 44
M  V30 48 1 4 45
M  V30 49 1 4 46
M  V30 50 1 4 47
M  V30 51 1 6 48
M  V30 52 1 13 49
M  V30 53 1 14 50
M  V30 54 1 15 51
M  V30 55 1 19 52
M  V30 56 1 20 53
M  V30 57 1 21 54
M  V30 58 1 25 55
M  V30 59 1 27 56
M  V30 60 1 28 57
M  V30 61 1 30 58
M  V30 62 1 30 59
M  V30 63 1 32 60
M  V30 64 1 32 61
M  V30 65 1 32 62
M  V30 66 1 33 63
M  V30 67 1 33 64
M  V30 68 1 33 65
M  V30 69 1 34 66
M  V30 70 1 34 67
M  V30 71 1 34 68
M  V30 72 1 36 69
M  V30 73 1 36 70
M  V30 74 1 37 71
M  V30 75 1 38 72
M  V30 END BOND
M  V30 END CTAB
M  END
