
     RDKit          3D

  0  0  0  0  0  0  0  0  0  0999 V3000
M  V30 BEGIN CTAB
M  V30 COUNTS 27 27 0 0 0
M  V30 BEGIN ATOM
M  V30 1 N -2.1664 1.16686 -1.34742 0
M  V30 2 C -1.56555 1.50638 -0.106246 0
M  V30 3 C -1.36403 0.404273 0.869178 0
M  V30 4 C -0.489158 -0.722545 0.395118 0
M  V30 5 C 0.853799 -0.297044 0.000478525 0
M  V30 6 N 1.55778 -0.875821 -1.0007 0
M  V30 7 N 2.70835 -0.275642 -1.15254 0
M  V30 8 C 2.7776 0.727491 -0.235715 0
M  V30 9 N 1.63042 0.69011 0.453889 0
M  V30 10 N 3.89432 1.58413 -0.114082 0
M  V30 11 C -0.320648 -1.60396 1.65913 0
M  V30 12 C -1.16025 -1.606 -0.614083 0
M  V30 13 H -1.90727 1.92868 -2.03204 0
M  V30 14 H -3.20815 1.1501 -1.36965 0
M  V30 15 H -0.616699 2.05466 -0.308031 0
M  V30 16 H -2.24775 2.2577 0.389037 0
M  V30 17 H -1.05983 0.818273 1.85115 0
M  V30 18 H -2.38636 -0.0272582 1.0738 0
M  V30 19 H 1.25218 -1.69408 -1.58579 0
M  V30 20 H 4.8528 1.27258 -0.354988 0
M  V30 21 H 3.76119 2.54813 0.215915 0
M  V30 22 H -1.22464 -2.24123 1.70322 0
M  V30 23 H -0.241182 -0.965987 2.56138 0
M  V30 24 H 0.582699 -2.20363 1.58709 0
M  V30 25 H -0.521891 -2.54721 -0.656646 0
M  V30 26 H -1.20833 -1.17697 -1.63459 0
M  V30 27 H -2.18298 -1.87199 -0.246855 0
M  V30 END ATOM
M  V30 BEGIN BOND
M  V30 1 1 1 2
M  V30 2 1 2 3
M  V30 3 1 3 4
M  V30 4 1 4 5
M  V30 5 1 5 6
M  V30 6 1 6 7
M  V30 7 2 7 8
M  V30 8 1 8 9
M  V30 9 1 8 10
M  V30 10 1 4 11
M  V30 11 1 4 12
M  V30 12 2 9 5
M  V30 13 1 1 13
M  V30 14 1 1 14
M  V30 15 1 2 15
M  V30 16 1 2 16
M  V30 17 1 3 17
M  V30 18 1 3 18
M  V30 19 1 6 19
M  V30 20 1 10 20
M  V30 21 1 10 21
M  V30 22 1 11 22
M  V30 23 1 11 23
M  V30 24 1 11 24
M  V30 25 1 12 25
M  V30 26 1 12 26
M  V30 27 1 12 27
M  V30 END BOND
M  V30 END CTAB
M  END
