
     RDKit          3D

  0  0  0  0  0  0  0  0  0  0999 V3000
M  V30 BEGIN CTAB
M  V30 COUNTS 25 25 0 0 0
M  V30 BEGIN ATOM
M  V30 1 N 3.98649 -0.189152 -0.640695 0
M  V30 2 C 3.46903 0.0717163 0.698732 0
M  V30 3 C 2.0339 0.54684 0.641806 0
M  V30 4 C 1.18379 -0.516919 -0.0110528 0
M  V30 5 C -0.242634 -0.107763 -0.0966721 0
M  V30 6 C -0.794614 0.576369 -1.16195 0
M  V30 7 C -2.13111 0.76924 -0.868202 0
M  V30 8 C -2.32809 0.189957 0.36803 0
M  V30 9 O -1.19705 -0.295229 0.751464 0
M  V30 10 C -3.66024 0.180682 1.05642 0
M  V30 11 N -4.33403 -1.04139 0.622996 0
M  V30 12 H 4.26269 -1.18804 -0.750047 0
M  V30 13 H 4.75988 0.461431 -0.893889 0
M  V30 14 H 4.0963 0.81856 1.2278 0
M  V30 15 H 3.51166 -0.888391 1.27051 0
M  V30 16 H 1.70436 0.653259 1.70899 0
M  V30 17 H 1.9637 1.48491 0.0806883 0
M  V30 18 H 1.26773 -1.47154 0.555883 0
M  V30 19 H 1.59553 -0.697125 -1.01996 0
M  V30 20 H -0.312161 0.920398 -2.08002 0
M  V30 21 H -2.87693 1.2766 -1.48892 0
M  V30 22 H -3.53761 0.199748 2.15485 0
M  V30 23 H -4.28872 1.03216 0.697414 0
M  V30 24 H -3.65139 -1.8167 0.792649 0
M  V30 25 H -4.48048 -0.969623 -0.406133 0
M  V30 END ATOM
M  V30 BEGIN BOND
M  V30 1 1 1 2
M  V30 2 1 2 3
M  V30 3 1 3 4
M  V30 4 1 4 5
M  V30 5 2 5 6
M  V30 6 1 6 7
M  V30 7 2 7 8
M  V30 8 1 8 9
M  V30 9 1 8 10
M  V30 10 1 10 11
M  V30 11 1 9 5
M  V30 12 1 1 12
M  V30 13 1 1 13
M  V30 14 1 2 14
M  V30 15 1 2 15
M  V30 16 1 3 16
M  V30 17 1 3 17
M  V30 18 1 4 18
M  V30 19 1 4 19
M  V30 20 1 6 20
M  V30 21 1 7 21
M  V30 22 1 10 22
M  V30 23 1 10 23
M  V30 24 1 11 24
M  V30 25 1 11 25
M  V30 END BOND
M  V30 END CTAB
M  END
