
     RDKit          3D

  0  0  0  0  0  0  0  0  0  0999 V3000
M  V30 BEGIN CTAB
M  V30 COUNTS 43 45 0 0 0
M  V30 BEGIN ATOM
M  V30 1 C -5.65175 -1.25837 -0.573632 0
M  V30 2 O -5.59001 0.154207 -0.579217 0
M  V30 3 C -4.35042 0.742755 -0.334642 0
M  V30 4 C -4.2292 2.13963 -0.305112 0
M  V30 5 O -5.34462 2.9346 -0.524325 0
M  V30 6 C -2.97887 2.67714 -0.0523228 0
M  V30 7 C -1.87942 1.8763 0.161153 0
M  V30 8 C -1.99771 0.477311 0.132149 0
M  V30 9 C -3.25074 -0.036261 -0.118613 0
M  V30 10 C -0.844554 -0.385899 0.342219 0
M  V30 11 C 0.160601 -0.504602 -0.599812 0
M  V30 12 C -0.00175858 0.265634 -1.79707 0
M  V30 13 N -0.151836 0.885332 -2.76023 0
M  V30 14 C 1.21835 -1.35717 -0.39366 0
M  V30 15 S 2.5809 -1.40987 -1.56208 0
M  V30 16 C 3.98818 -0.500143 -0.958372 0
M  V30 17 C 4.95834 -1.22386 -0.216131 0
M  V30 18 C 6.06394 -0.650844 0.320903 0
M  V30 19 C 6.27859 0.711315 0.150961 0
M  V30 20 C 5.36365 1.41959 -0.553328 0
M  V30 21 C 4.22105 0.816837 -1.1093 0
M  V30 22 N 3.36625 1.6586 -1.82998 0
M  V30 23 N 1.33115 -2.11546 0.720967 0
M  V30 24 C 0.360183 -2.01447 1.65764 0
M  V30 25 N 0.416084 -2.76988 2.85159 0
M  V30 26 C -0.721392 -1.15255 1.46567 0
M  V30 27 C -1.75759 -1.01861 2.45558 0
M  V30 28 N -2.56937 -0.902342 3.26144 0
M  V30 29 H -6.64791 -1.65444 -0.773774 0
M  V30 30 H -4.99241 -1.59997 -1.42411 0
M  V30 31 H -5.19423 -1.67841 0.360941 0
M  V30 32 H -6.2182 2.48417 -0.71694 0
M  V30 33 H -2.88687 3.75245 -0.0258929 0
M  V30 34 H -0.908151 2.3063 0.359884 0
M  V30 35 H -3.33793 -1.12076 -0.137624 0
M  V30 36 H 4.80642 -2.29457 -0.0624472 0
M  V30 37 H 6.81429 -1.20358 0.894155 0
M  V30 38 H 7.15231 1.17877 0.568708 0
M  V30 39 H 5.51203 2.48305 -0.695576 0
M  V30 40 H 3.40167 1.79648 -2.87726 0
M  V30 41 H 2.64302 2.18145 -1.28465 0
M  V30 42 H 0.745735 -2.33424 3.71845 0
M  V30 43 H 0.122175 -3.75562 2.84368 0
M  V30 END ATOM
M  V30 BEGIN BOND
M  V30 1 1 1 2
M  V30 2 1 2 3
M  V30 3 2 3 4
M  V30 4 1 4 5
M  V30 5 1 4 6
M  V30 6 2 6 7
M  V30 7 1 7 8
M  V30 8 2 8 9
M  V30 9 1 8 10
M  V30 10 2 10 11
M  V30 11 1 11 12
M  V30 12 3 12 13
M  V30 13 1 11 14
M  V30 14 1 14 15
M  V30 15 1 15 16
M  V30 16 2 16 17
M  V30 17 1 17 18
M  V30 18 2 18 19
M  V30 19 1 19 20
M  V30 20 2 20 21
M  V30 21 1 21 22
M  V30 22 2 14 23
M  V30 23 1 23 24
M  V30 24 1 24 25
M  V30 25 2 24 26
M  V30 26 1 26 27
M  V30 27 3 27 28
M  V30 28 1 9 3
M  V30 29 1 26 10
M  V30 30 1 21 16
M  V30 31 1 1 29
M  V30 32 1 1 30
M  V30 33 1 1 31
M  V30 34 1 5 32
M  V30 35 1 6 33
M  V30 36 1 7 34
M  V30 37 1 9 35
M  V30 38 1 17 36
M  V30 39 1 18 37
M  V30 40 1 19 38
M  V30 41 1 20 39
M  V30 42 1 22 40
M  V30 43 1 22 41
M  V30 44 1 25 42
M  V30 45 1 25 43
M  V30 END BOND
M  V30 END CTAB
M  END
