
     RDKit          3D

  0  0  0  0  0  0  0  0  0  0999 V3000
M  V30 BEGIN CTAB
M  V30 COUNTS 50 51 0 0 0
M  V30 BEGIN ATOM
M  V30 1 N 6.07203 0.972368 -0.671475 0
M  V30 2 C 4.9053 0.323105 -0.224798 0
M  V30 3 C 4.95504 -0.570554 0.810774 0
M  V30 4 N 6.1891 -0.884339 1.4851 0
M  V30 5 C 3.77371 -1.16917 1.1942 0
M  V30 6 C 2.54401 -0.92832 0.604075 0
M  V30 7 O 1.36469 -1.56444 1.02327 0
M  V30 8 C 0.596278 -2.45233 0.224042 0
M  V30 9 C -0.773483 -2.6081 0.849753 0
M  V30 10 O -1.61432 -3.26858 -0.0446731 0
M  V30 11 C -2.95862 -3.00345 0.202203 0
M  V30 12 C -3.3555 -1.61436 -0.304709 0
M  V30 13 O -3.51992 -0.79619 0.780654 0
M  V30 14 C -4.25833 0.340709 0.545562 0
M  V30 15 C -4.01763 0.945891 -0.817471 0
M  V30 16 O -4.31324 2.26627 -0.904814 0
M  V30 17 C -3.37855 3.16824 -0.547501 0
M  V30 18 C -2.038 2.69515 -0.180569 0
M  V30 19 O -1.11537 2.75192 -1.25132 0
M  V30 20 C 0.136485 2.32842 -0.813356 0
M  V30 21 C 0.171436 0.8865 -0.437927 0
M  V30 22 O 1.29003 0.279565 -1.08437 0
M  V30 23 C 2.49947 -0.0105411 -0.453858 0
M  V30 24 C 3.69014 0.579101 -0.826577 0
M  V30 25 H 6.93079 0.394057 -0.818295 0
M  V30 26 H 6.04177 2.00146 -0.840078 0
M  V30 27 H 6.84706 -0.124728 1.75939 0
M  V30 28 H 6.46497 -1.85987 1.71909 0
M  V30 29 H 3.86222 -1.8675 2.03318 0
M  V30 30 H 0.570707 -2.14498 -0.834021 0
M  V30 31 H 1.02016 -3.50885 0.25282 0
M  V30 32 H -1.22358 -1.62959 1.10828 0
M  V30 33 H -0.65693 -3.26145 1.73598 0
M  V30 34 H -3.10492 -3.08458 1.30206 0
M  V30 35 H -3.54957 -3.77469 -0.323752 0
M  V30 36 H -4.30854 -1.6844 -0.875362 0
M  V30 37 H -2.5144 -1.26907 -0.934409 0
M  V30 38 H -5.33384 0.0809689 0.662576 0
M  V30 39 H -4.03643 1.13254 1.29005 0
M  V30 40 H -3.02055 0.758466 -1.21873 0
M  V30 41 H -4.72994 0.400624 -1.50833 0
M  V30 42 H -3.80059 3.79813 0.290741 0
M  V30 43 H -3.26906 3.90949 -1.39524 0
M  V30 44 H -1.60197 3.40069 0.587545 0
M  V30 45 H -1.95284 1.69911 0.242856 0
M  V30 46 H 0.432858 3.00759 0.0205877 0
M  V30 47 H 0.845295 2.54047 -1.66213 0
M  V30 48 H -0.711895 0.304184 -0.749273 0
M  V30 49 H 0.226359 0.807424 0.665887 0
M  V30 50 H 3.72811 1.30764 -1.66763 0
M  V30 END ATOM
M  V30 BEGIN BOND
M  V30 1 1 1 2
M  V30 2 2 2 3
M  V30 3 1 3 4
M  V30 4 1 3 5
M  V30 5 2 5 6
M  V30 6 1 6 7
M  V30 7 1 7 8
M  V30 8 1 8 9
M  V30 9 1 9 10
M  V30 10 1 10 11
M  V30 11 1 11 12
M  V30 12 1 12 13
M  V30 13 1 13 14
M  V30 14 1 14 15
M  V30 15 1 15 16
M  V30 16 1 16 17
M  V30 17 1 17 18
M  V30 18 1 18 19
M  V30 19 1 19 20
M  V30 20 1 20 21
M  V30 21 1 21 22
M  V30 22 1 22 23
M  V30 23 2 23 24
M  V30 24 1 24 2
M  V30 25 1 23 6
M  V30 26 1 1 25
M  V30 27 1 1 26
M  V30 28 1 4 27
M  V30 29 1 4 28
M  V30 30 1 5 29
M  V30 31 1 8 30
M  V30 32 1 8 31
M  V30 33 1 9 32
M  V30 34 1 9 33
M  V30 35 1 11 34
M  V30 36 1 11 35
M  V30 37 1 12 36
M  V30 38 1 12 37
M  V30 39 1 14 38
M  V30 40 1 14 39
M  V30 41 1 15 40
M  V30 42 1 15 41
M  V30 43 1 17 42
M  V30 44 1 17 43
M  V30 45 1 18 44
M  V30 46 1 18 45
M  V30 47 1 20 46
M  V30 48 1 20 47
M  V30 49 1 21 48
M  V30 50 1 21 49
M  V30 51 1 24 50
M  V30 END BOND
M  V30 END CTAB
M  END
