
     RDKit          3D

  0  0  0  0  0  0  0  0  0  0999 V3000
M  V30 BEGIN CTAB
M  V30 COUNTS 32 33 0 0 0
M  V30 BEGIN ATOM
M  V30 1 C 5.26708 -0.355623 -1.78834 0
M  V30 2 O 4.40963 -1.03605 -0.930484 0
M  V30 3 C 3.25423 -0.506946 -0.377522 0
M  V30 4 C 2.82489 0.772641 -0.622987 0
M  V30 5 C 1.64616 1.28565 -0.0484289 0
M  V30 6 C 0.855325 0.543791 0.788524 0
M  V30 7 C 1.31436 -0.762853 1.02687 0
M  V30 8 C 2.468 -1.26034 0.462302 0
M  V30 9 C -0.375656 0.999995 1.44599 0
M  V30 10 N -1.5646 1.05563 0.562488 0
M  V30 11 C -1.90217 2.20861 -0.0181664 0
M  V30 12 S -1.27558 3.72117 0.0905674 0
M  V30 13 S -3.27295 1.80679 -0.94907 0
M  V30 14 C -3.36351 0.153636 -0.550839 0
M  V30 15 C -2.29872 0.00370223 0.301983 0
M  V30 16 N -2.07243 -1.31996 0.869138 0
M  V30 17 C -4.33137 -0.880617 -0.995332 0
M  V30 18 S -4.05576 -1.8962 -2.21126 0
M  V30 19 N -5.55115 -0.926602 -0.266963 0
M  V30 20 H 5.87461 -1.03826 -2.43162 0
M  V30 21 H 5.99917 0.20668 -1.16678 0
M  V30 22 H 4.73376 0.402984 -2.40467 0
M  V30 23 H 3.38634 1.41186 -1.26394 0
M  V30 24 H 1.35611 2.29921 -0.265494 0
M  V30 25 H 0.727312 -1.37944 1.70198 0
M  V30 26 H 2.80365 -2.2767 0.661107 0
M  V30 27 H -0.239675 1.97901 1.95121 0
M  V30 28 H -0.590506 0.288536 2.2934 0
M  V30 29 H -2.38917 -1.5653 1.82612 0
M  V30 30 H -1.58116 -2.03857 0.302114 0
M  V30 31 H -6.19312 -0.104394 -0.195474 0
M  V30 32 H -5.8631 -1.79203 0.233847 0
M  V30 END ATOM
M  V30 BEGIN BOND
M  V30 1 1 1 2
M  V30 2 1 2 3
M  V30 3 2 3 4
M  V30 4 1 4 5
M  V30 5 2 5 6
M  V30 6 1 6 7
M  V30 7 2 7 8
M  V30 8 1 6 9
M  V30 9 1 9 10
M  V30 10 1 10 11
M  V30 11 2 11 12
M  V30 12 1 11 13
M  V30 13 1 13 14
M  V30 14 2 14 15
M  V30 15 1 15 16
M  V30 16 1 14 17
M  V30 17 2 17 18
M  V30 18 1 17 19
M  V30 19 1 8 3
M  V30 20 1 15 10
M  V30 21 1 1 20
M  V30 22 1 1 21
M  V30 23 1 1 22
M  V30 24 1 4 23
M  V30 25 1 5 24
M  V30 26 1 7 25
M  V30 27 1 8 26
M  V30 28 1 9 27
M  V30 29 1 9 28
M  V30 30 1 16 29
M  V30 31 1 16 30
M  V30 32 1 19 31
M  V30 33 1 19 32
M  V30 END BOND
M  V30 END CTAB
M  END
