
     RDKit          3D

  0  0  0  0  0  0  0  0  0  0999 V3000
M  V30 BEGIN CTAB
M  V30 COUNTS 23 22 0 0 0
M  V30 BEGIN ATOM
M  V30 1 C -2.13521 3.00702 -1.43363 0
M  V30 2 C -2.14827 1.90139 -0.970108 0
M  V30 3 C -2.18834 0.551612 -0.412133 0
M  V30 4 C -0.864835 0.121573 0.131606 0
M  V30 5 N 0.181136 0.111321 -0.871303 0
M  V30 6 C 1.48618 -0.281952 -0.468932 0
M  V30 7 N 2.28671 0.635006 -0.0478247 0
M  V30 8 N 3.59303 0.368623 0.3741 0
M  V30 9 N 1.95533 -1.61284 -0.503314 0
M  V30 10 C -1.02892 -1.28869 0.680286 0
M  V30 11 O -2.04625 -1.27341 1.65414 0
M  V30 12 H -2.13313 3.99429 -1.86491 0
M  V30 13 H -2.92773 0.499343 0.401385 0
M  V30 14 H -2.49547 -0.122419 -1.23686 0
M  V30 15 H -0.533963 0.817631 0.930874 0
M  V30 16 H -0.0423127 0.38638 -1.84292 0
M  V30 17 H 3.75632 0.270205 1.3827 0
M  V30 18 H 4.32734 0.283878 -0.342327 0
M  V30 19 H 2.03323 -2.20587 -1.33776 0
M  V30 20 H 2.25291 -2.02893 0.428397 0
M  V30 21 H -0.091288 -1.6896 1.08614 0
M  V30 22 H -1.31974 -1.92922 -0.17745 0
M  V30 23 H -1.91673 -0.515353 2.25769 0
M  V30 END ATOM
M  V30 BEGIN BOND
M  V30 1 3 1 2
M  V30 2 1 2 3
M  V30 3 1 3 4
M  V30 4 1 4 5
M  V30 5 1 5 6
M  V30 6 2 6 7 CFG=2
M  V30 7 1 7 8
M  V30 8 1 6 9
M  V30 9 1 4 10
M  V30 10 1 10 11
M  V30 11 1 1 12
M  V30 12 1 3 13
M  V30 13 1 3 14
M  V30 14 1 4 15
M  V30 15 1 5 16
M  V30 16 1 8 17
M  V30 17 1 8 18
M  V30 18 1 9 19
M  V30 19 1 9 20
M  V30 20 1 10 21
M  V30 21 1 10 22
M  V30 22 1 11 23
M  V30 END BOND
M  V30 END CTAB
M  END
