
     RDKit          3D

  0  0  0  0  0  0  0  0  0  0999 V3000
M  V30 BEGIN CTAB
M  V30 COUNTS 16 16 0 0 0
M  V30 BEGIN ATOM
M  V30 1 Cl -2.93613 1.59781 -0.0436723 0
M  V30 2 C -1.29956 0.969899 0.0239007 0
M  V30 3 C -0.23224 1.81659 0.277103 0
M  V30 4 C 1.05032 1.31878 0.329124 0
M  V30 5 C 1.24896 -0.0278623 0.12584 0
M  V30 6 C 0.170709 -0.855398 -0.125321 0
M  V30 7 C -1.12876 -0.390874 -0.184665 0
M  V30 8 N -2.20992 -1.2719 -0.445014 0
M  V30 9 Br 0.450795 -2.71473 -0.405322 0
M  V30 10 N 2.56522 -0.571202 0.173855 0
M  V30 11 H -0.364051 2.87887 0.440079 0
M  V30 12 H 1.89694 1.98065 0.528369 0
M  V30 13 H -2.95855 -0.964433 -1.09736 0
M  V30 14 H -2.30101 -2.21524 -0.0197841 0
M  V30 15 H 2.7686 -1.22049 0.964646 0
M  V30 16 H 3.27868 -0.330458 -0.541783 0
M  V30 END ATOM
M  V30 BEGIN BOND
M  V30 1 1 1 2
M  V30 2 2 2 3
M  V30 3 1 3 4
M  V30 4 2 4 5
M  V30 5 1 5 6
M  V30 6 2 6 7
M  V30 7 1 7 8
M  V30 8 1 6 9
M  V30 9 1 5 10
M  V30 10 1 7 2
M  V30 11 1 3 11
M  V30 12 1 4 12
M  V30 13 1 8 13
M  V30 14 1 8 14
M  V30 15 1 10 15
M  V30 16 1 10 16
M  V30 END BOND
M  V30 END CTAB
M  END
