
     RDKit          3D

  0  0  0  0  0  0  0  0  0  0999 V3000
M  V30 BEGIN CTAB
M  V30 COUNTS 45 48 0 0 0
M  V30 BEGIN ATOM
M  V30 1 O 1.76381 -1.48141 0.661877 0
M  V30 2 C 1.40631 -0.405595 0.180643 0
M  V30 3 C -0.0512319 -0.164231 0.155359 0
M  V30 4 S -0.809206 1.22827 -0.45031 0
M  V30 5 C -2.44417 0.796569 -0.151133 0
M  V30 6 C -2.32597 -0.439311 0.419474 0
M  V30 7 C -1.08354 -0.936448 0.57782 0
M  V30 8 N -0.793513 -2.24065 1.17019 0
M  V30 9 C -3.55416 -1.03719 0.771833 0
M  V30 10 C -4.73664 -0.39135 0.540182 0
M  V30 11 C -4.81279 0.855168 -0.0378835 0
M  V30 12 N -3.6432 1.4244 -0.373367 0
M  V30 13 C -6.12006 1.4794 -0.252007 0
M  V30 14 C -7.1399 0.521685 -0.759528 0
M  V30 15 C -7.0671 -0.84606 -0.188474 0
M  V30 16 C -6.04795 -1.00974 0.907027 0
M  V30 17 N 2.29022 0.551214 -0.319679 0
M  V30 18 C 3.6777 0.430747 -0.339247 0
M  V30 19 C 4.43011 -0.444312 0.409794 0
M  V30 20 C 5.8214 -0.538178 0.327068 0
M  V30 21 C 6.50779 0.270902 -0.536423 0
M  V30 22 C 5.79264 1.16028 -1.30268 0
M  V30 23 C 4.43149 1.24521 -1.21557 0
M  V30 24 S 8.25034 0.147309 -0.635709 0
M  V30 25 O 8.71619 -1.25778 -0.36836 0
M  V30 26 O 8.66934 0.54932 -2.02234 0
M  V30 27 N 8.92682 1.24006 0.510605 0
M  V30 28 H -1.13778 -2.47238 2.12719 0
M  V30 29 H -0.251877 -2.95095 0.667146 0
M  V30 30 H -3.59813 -2.02367 1.23549 0
M  V30 31 H -5.98057 2.27525 -1.03657 0
M  V30 32 H -6.43582 2.02792 0.65982 0
M  V30 33 H -7.08416 0.493255 -1.87548 0
M  V30 34 H -8.15071 0.955882 -0.528088 0
M  V30 35 H -6.77924 -1.58011 -0.996673 0
M  V30 36 H -8.03282 -1.21978 0.210179 0
M  V30 37 H -5.95124 -2.09407 1.12075 0
M  V30 38 H -6.42582 -0.517107 1.81637 0
M  V30 39 H 1.89225 1.45647 -0.720494 0
M  V30 40 H 3.94365 -1.10594 1.12895 0
M  V30 41 H 6.33344 -1.25281 0.950711 0
M  V30 42 H 6.3647 1.78753 -1.97657 0
M  V30 43 H 3.86518 1.94798 -1.82204 0
M  V30 44 H 9.10941 2.14323 0.00568832 0
M  V30 45 H 8.2648 1.42102 1.30323 0
M  V30 END ATOM
M  V30 BEGIN BOND
M  V30 1 2 1 2
M  V30 2 1 2 3
M  V30 3 1 3 4
M  V30 4 1 4 5
M  V30 5 2 5 6
M  V30 6 1 6 7
M  V30 7 1 7 8
M  V30 8 1 6 9
M  V30 9 2 9 10
M  V30 10 1 10 11
M  V30 11 2 11 12
M  V30 12 1 11 13
M  V30 13 1 13 14
M  V30 14 1 14 15
M  V30 15 1 15 16
M  V30 16 1 2 17
M  V30 17 1 17 18
M  V30 18 2 18 19
M  V30 19 1 19 20
M  V30 20 2 20 21
M  V30 21 1 21 22
M  V30 22 2 22 23
M  V30 23 1 21 24
M  V30 24 2 24 25
M  V30 25 2 24 26
M  V30 26 1 24 27
M  V30 27 2 7 3
M  V30 28 1 16 10
M  V30 29 1 23 18
M  V30 30 1 12 5
M  V30 31 1 8 28
M  V30 32 1 8 29
M  V30 33 1 9 30
M  V30 34 1 13 31
M  V30 35 1 13 32
M  V30 36 1 14 33
M  V30 37 1 14 34
M  V30 38 1 15 35
M  V30 39 1 15 36
M  V30 40 1 16 37
M  V30 41 1 16 38
M  V30 42 1 17 39
M  V30 43 1 19 40
M  V30 44 1 20 41
M  V30 45 1 22 42
M  V30 46 1 23 43
M  V30 47 1 27 44
M  V30 48 1 27 45
M  V30 END BOND
M  V30 END CTAB
M  END
