
     RDKit          3D

  0  0  0  0  0  0  0  0  0  0999 V3000
M  V30 BEGIN CTAB
M  V30 COUNTS 18 17 0 0 0
M  V30 BEGIN ATOM
M  V30 1 N -1.33325 2.2107 0.400098 0
M  V30 2 N -2.08618 1.20232 -0.187211 0
M  V30 3 C -1.69727 -0.0332601 -0.175432 0
M  V30 4 N -0.464587 -0.345975 0.460122 0
M  V30 5 C 0.669587 -0.604582 -0.387303 0
M  V30 6 C 1.90093 -0.919859 0.382783 0
M  V30 7 C 2.95038 -0.134231 0.228025 0
M  V30 8 Cl 2.95433 1.25387 -0.838147 0
M  V30 9 Cl 4.40878 -0.484124 1.12209 0
M  V30 10 N -2.46625 -1.06961 -0.776325 0
M  V30 11 H -1.80699 2.80983 1.10877 0
M  V30 12 H -0.343655 2.35725 0.141709 0
M  V30 13 H -0.458436 -0.368427 1.49138 0
M  V30 14 H 0.835111 0.240847 -1.06412 0
M  V30 15 H 0.423559 -1.50433 -1.00383 0
M  V30 16 H 1.97736 -1.752 1.05563 0
M  V30 17 H -2.67857 -1.01777 -1.80336 0
M  V30 18 H -2.78485 -1.84065 -0.154882 0
M  V30 END ATOM
M  V30 BEGIN BOND
M  V30 1 1 1 2
M  V30 2 2 2 3
M  V30 3 1 3 4
M  V30 4 1 4 5
M  V30 5 1 5 6
M  V30 6 2 6 7 CFG=2
M  V30 7 1 7 8
M  V30 8 1 7 9
M  V30 9 1 3 10
M  V30 10 1 1 11
M  V30 11 1 1 12
M  V30 12 1 4 13
M  V30 13 1 5 14
M  V30 14 1 5 15
M  V30 15 1 6 16
M  V30 16 1 10 17
M  V30 17 1 10 18
M  V30 END BOND
M  V30 END CTAB
M  END
