
     RDKit          3D

  0  0  0  0  0  0  0  0  0  0999 V3000
M  V30 BEGIN CTAB
M  V30 COUNTS 44 46 0 0 0
M  V30 BEGIN ATOM
M  V30 1 N 6.73859 2.28287 -0.117265 0
M  V30 2 C 5.57039 1.45781 -0.112539 0
M  V30 3 C 5.67302 0.0929396 0.0595248 0
M  V30 4 C 4.6072 -0.754218 0.0722903 0
M  V30 5 C 3.31378 -0.232217 -0.0977663 0
M  V30 6 C 3.17639 1.12102 -0.27125 0
M  V30 7 C 4.30011 1.9566 -0.277838 0
M  V30 8 C 2.19203 -1.15968 -0.0924219 0
M  V30 9 O 2.40099 -2.42136 -0.168203 0
M  V30 10 N 0.875572 -0.699834 -0.00565679 0
M  V30 11 C -0.188918 -1.62285 -0.0152524 0
M  V30 12 O 0.0591433 -2.8406 -0.0948395 0
M  V30 13 N -1.52099 -1.18574 0.0634663 0
M  V30 14 C -1.75878 0.22552 0.150033 0
M  V30 15 C -1.64812 0.995063 -0.979914 0
M  V30 16 C -1.85762 2.34975 -0.947855 0
M  V30 17 C -2.19284 2.99726 0.244118 0
M  V30 18 C -2.2957 2.1936 1.36046 0
M  V30 19 C -2.08745 0.834144 1.33562 0
M  V30 20 N -2.4078 4.39769 0.288108 0
M  V30 21 C -2.6336 -2.07717 0.0603659 0
M  V30 22 C -3.59515 -2.0193 -0.923855 0
M  V30 23 C -4.67645 -2.89042 -0.931103 0
M  V30 24 C -4.81314 -3.84805 0.0637347 0
M  V30 25 C -3.83717 -3.88203 1.03346 0
M  V30 26 C -2.75056 -3.01518 1.05093 0
M  V30 27 H 6.67734 3.30836 -0.0140073 0
M  V30 28 H 7.67636 1.8462 -0.22714 0
M  V30 29 H 6.67385 -0.305617 0.190783 0
M  V30 30 H 4.69669 -1.84347 0.210232 0
M  V30 31 H 2.18122 1.57247 -0.4115 0
M  V30 32 H 4.14823 3.02092 -0.417945 0
M  V30 33 H 0.707616 0.343559 0.0636222 0
M  V30 34 H -1.38724 0.492835 -1.90635 0
M  V30 35 H -1.77565 2.98156 -1.82539 0
M  V30 36 H -2.5582 2.67816 2.3063 0
M  V30 37 H -2.18019 0.240859 2.24237 0
M  V30 38 H -2.89971 4.87413 -0.484082 0
M  V30 39 H -2.06138 4.9279 1.10521 0
M  V30 40 H -3.55891 -1.30244 -1.73352 0
M  V30 41 H -5.44093 -2.86419 -1.69176 0
M  V30 42 H -5.64297 -4.55128 0.0972776 0
M  V30 43 H -3.90991 -4.61681 1.82624 0
M  V30 44 H -1.98913 -3.05878 1.82747 0
M  V30 END ATOM
M  V30 BEGIN BOND
M  V30 1 1 1 2
M  V30 2 2 2 3
M  V30 3 1 3 4
M  V30 4 2 4 5
M  V30 5 1 5 6
M  V30 6 2 6 7
M  V30 7 1 5 8
M  V30 8 2 8 9
M  V30 9 1 8 10
M  V30 10 1 10 11
M  V30 11 2 11 12
M  V30 12 1 11 13
M  V30 13 1 13 14
M  V30 14 2 14 15
M  V30 15 1 15 16
M  V30 16 2 16 17
M  V30 17 1 17 18
M  V30 18 2 18 19
M  V30 19 1 17 20
M  V30 20 1 13 21
M  V30 21 2 21 22
M  V30 22 1 22 23
M  V30 23 2 23 24
M  V30 24 1 24 25
M  V30 25 2 25 26
M  V30 26 1 7 2
M  V30 27 1 19 14
M  V30 28 1 26 21
M  V30 29 1 1 27
M  V30 30 1 1 28
M  V30 31 1 3 29
M  V30 32 1 4 30
M  V30 33 1 6 31
M  V30 34 1 7 32
M  V30 35 1 10 33
M  V30 36 1 15 34
M  V30 37 1 16 35
M  V30 38 1 18 36
M  V30 39 1 19 37
M  V30 40 1 20 38
M  V30 41 1 20 39
M  V30 42 1 22 40
M  V30 43 1 23 41
M  V30 44 1 24 42
M  V30 45 1 25 43
M  V30 46 1 26 44
M  V30 END BOND
M  V30 END CTAB
M  END
