
     RDKit          3D

  0  0  0  0  0  0  0  0  0  0999 V3000
M  V30 BEGIN CTAB
M  V30 COUNTS 33 33 0 0 0
M  V30 BEGIN ATOM
M  V30 1 N 4.33165 1.85017 0.121176 0
M  V30 2 N 3.0766 1.25111 0.174621 0
M  V30 3 C 2.85937 -0.0116682 0.165427 0
M  V30 4 N 1.54553 -0.511968 0.222781 0
M  V30 5 C 1.01571 -1.85839 0.152499 0
M  V30 6 C -0.223291 -1.67815 -0.737485 0
M  V30 7 C -0.462228 -0.181626 -0.790518 0
M  V30 8 C 0.334234 0.307128 0.380472 0
M  V30 9 O 0.17041 0.295509 -1.96748 0
M  V30 10 C -1.87217 0.212115 -0.816347 0
M  V30 11 N -2.72312 -0.123925 0.266436 0
M  V30 12 C -4.12668 0.121741 -0.194507 0
M  V30 13 C -2.61073 0.851828 1.37038 0
M  V30 14 N 3.96097 -0.901362 0.0975313 0
M  V30 15 H 4.34633 2.89399 0.0339055 0
M  V30 16 H 5.24046 1.35555 0.159831 0
M  V30 17 H 0.700802 -2.12167 1.19731 0
M  V30 18 H 1.74148 -2.54963 -0.271715 0
M  V30 19 H 0.079407 -2.03393 -1.74361 0
M  V30 20 H -1.0854 -2.23728 -0.400934 0
M  V30 21 H 0.525065 1.37249 0.402393 0
M  V30 22 H -0.109636 -0.0956052 1.33938 0
M  V30 23 H 0.192087 1.28365 -1.85301 0
M  V30 24 H -1.91815 1.34421 -0.957726 0
M  V30 25 H -2.34848 -0.156808 -1.78517 0
M  V30 26 H -4.2649 1.14936 -0.506288 0
M  V30 27 H -4.80938 -0.0597175 0.684036 0
M  V30 28 H -4.43055 -0.602434 -0.944442 0
M  V30 29 H -1.77069 1.52294 1.29166 0
M  V30 30 H -3.51838 1.54405 1.37622 0
M  V30 31 H -2.6193 0.306129 2.33953 0
M  V30 32 H 4.65398 -0.94231 -0.673929 0
M  V30 33 H 4.11902 -1.59549 0.876217 0
M  V30 END ATOM
M  V30 BEGIN BOND
M  V30 1 1 1 2
M  V30 2 2 2 3 CFG=2
M  V30 3 1 3 4
M  V30 4 1 4 5
M  V30 5 1 5 6
M  V30 6 1 6 7
M  V30 7 1 7 8
M  V30 8 1 7 9
M  V30 9 1 7 10
M  V30 10 1 10 11
M  V30 11 1 11 12
M  V30 12 1 11 13
M  V30 13 1 3 14
M  V30 14 1 8 4
M  V30 15 1 1 15
M  V30 16 1 1 16
M  V30 17 1 5 17
M  V30 18 1 5 18
M  V30 19 1 6 19
M  V30 20 1 6 20
M  V30 21 1 8 21
M  V30 22 1 8 22
M  V30 23 1 9 23
M  V30 24 1 10 24
M  V30 25 1 10 25
M  V30 26 1 12 26
M  V30 27 1 12 27
M  V30 28 1 12 28
M  V30 29 1 13 29
M  V30 30 1 13 30
M  V30 31 1 13 31
M  V30 32 1 14 32
M  V30 33 1 14 33
M  V30 END BOND
M  V30 END CTAB
M  END
