
     RDKit          3D

  0  0  0  0  0  0  0  0  0  0999 V3000
M  V30 BEGIN CTAB
M  V30 COUNTS 28 28 0 0 0
M  V30 BEGIN ATOM
M  V30 1 C 2.70779 0.094057 -1.34108 0
M  V30 2 C 3.35558 -0.823046 -0.357862 0
M  V30 3 C 2.86141 -0.618597 1.05394 0
M  V30 4 C 1.38494 -0.847829 1.18909 0
M  V30 5 O 0.624764 0.0180195 0.381326 0
M  V30 6 C -0.759661 -0.113219 0.433503 0
M  V30 7 N -1.37833 -1.02 1.21314 0
M  V30 8 C -2.71874 -1.13381 1.25186 0
M  V30 9 C -3.54343 -0.328201 0.494833 0
M  V30 10 C -2.94118 0.612651 -0.315962 0
M  V30 11 C -1.565 0.703936 -0.33291 0
M  V30 12 N -0.94494 1.6768 -1.17142 0
M  V30 13 N -3.74816 1.47346 -1.1214 0
M  V30 14 H 3.3935 0.267815 -2.20047 0
M  V30 15 H 2.46132 1.07464 -0.900322 0
M  V30 16 H 1.80711 -0.377407 -1.74584 0
M  V30 17 H 3.20023 -1.88089 -0.635902 0
M  V30 18 H 4.44789 -0.596359 -0.349478 0
M  V30 19 H 3.14776 0.391237 1.38527 0
M  V30 20 H 3.37822 -1.34765 1.70942 0
M  V30 21 H 1.11205 -0.630618 2.24205 0
M  V30 22 H 1.16434 -1.9161 1.01718 0
M  V30 23 H -3.21877 -1.8723 1.887 0
M  V30 24 H -4.63152 -0.440049 0.543624 0
M  V30 25 H -1.30878 2.64716 -1.10423 0
M  V30 26 H -0.170308 1.37573 -1.80095 0
M  V30 27 H -3.70835 1.44313 -2.18104 0
M  V30 28 H -4.40974 2.16743 -0.716584 0
M  V30 END ATOM
M  V30 BEGIN BOND
M  V30 1 1 1 2
M  V30 2 1 2 3
M  V30 3 1 3 4
M  V30 4 1 4 5
M  V30 5 1 5 6
M  V30 6 2 6 7
M  V30 7 1 7 8
M  V30 8 2 8 9
M  V30 9 1 9 10
M  V30 10 2 10 11
M  V30 11 1 11 12
M  V30 12 1 10 13
M  V30 13 1 11 6
M  V30 14 1 1 14
M  V30 15 1 1 15
M  V30 16 1 1 16
M  V30 17 1 2 17
M  V30 18 1 2 18
M  V30 19 1 3 19
M  V30 20 1 3 20
M  V30 21 1 4 21
M  V30 22 1 4 22
M  V30 23 1 8 23
M  V30 24 1 9 24
M  V30 25 1 12 25
M  V30 26 1 12 26
M  V30 27 1 13 27
M  V30 28 1 13 28
M  V30 END BOND
M  V30 END CTAB
M  END
