
     RDKit          3D

  0  0  0  0  0  0  0  0  0  0999 V3000
M  V30 BEGIN CTAB
M  V30 COUNTS 35 36 0 0 0
M  V30 BEGIN ATOM
M  V30 1 N 6.5612 0.153857 0.101991 0
M  V30 2 C 5.76897 -0.833393 0.791504 0
M  V30 3 C 4.39018 -0.979058 0.239768 0
M  V30 4 C 3.59175 0.304208 0.310006 0
M  V30 5 C 2.24405 0.107702 -0.244656 0
M  V30 6 N 1.94864 0.301385 -1.54742 0
M  V30 7 N 0.683274 0.0463833 -1.71638 0
M  V30 8 C 0.125931 -0.315491 -0.545733 0
M  V30 9 N 1.09906 -0.274157 0.356393 0
M  V30 10 C -1.30339 -0.663888 -0.435506 0
M  V30 11 O -2.11817 0.449759 -0.145864 0
M  V30 12 C -3.48142 0.214102 -0.0239922 0
M  V30 13 C -4.05114 -1.04343 -0.173353 0
M  V30 14 C -5.39883 -1.26834 -0.0514752 0
M  V30 15 C -6.23852 -0.215395 0.230641 0
M  V30 16 C -5.70549 1.05469 0.386547 0
M  V30 17 C -4.33175 1.25842 0.2579 0
M  V30 18 N -3.84568 2.58023 0.428345 0
M  V30 19 H 6.28685 0.232367 -0.889593 0
M  V30 20 H 6.47082 1.09059 0.531825 0
M  V30 21 H 5.71842 -0.635535 1.88027 0
M  V30 22 H 6.28415 -1.80857 0.675678 0
M  V30 23 H 3.8576 -1.73782 0.842547 0
M  V30 24 H 4.46007 -1.37917 -0.785256 0
M  V30 25 H 4.15426 1.0568 -0.292665 0
M  V30 26 H 3.60751 0.657304 1.34636 0
M  V30 27 H 2.58724 0.604364 -2.33168 0
M  V30 28 H -1.68533 -1.09979 -1.39185 0
M  V30 29 H -1.40148 -1.43352 0.354316 0
M  V30 30 H -3.40776 -1.87948 -0.394569 0
M  V30 31 H -5.84616 -2.24612 -0.167091 0
M  V30 32 H -7.31992 -0.343342 0.337507 0
M  V30 33 H -6.37936 1.88262 0.609984 0
M  V30 34 H -3.26194 3.04065 -0.297824 0
M  V30 35 H -4.06364 3.12107 1.28822 0
M  V30 END ATOM
M  V30 BEGIN BOND
M  V30 1 1 1 2
M  V30 2 1 2 3
M  V30 3 1 3 4
M  V30 4 1 4 5
M  V30 5 1 5 6
M  V30 6 1 6 7
M  V30 7 2 7 8
M  V30 8 1 8 9
M  V30 9 1 8 10
M  V30 10 1 10 11
M  V30 11 1 11 12
M  V30 12 2 12 13
M  V30 13 1 13 14
M  V30 14 2 14 15
M  V30 15 1 15 16
M  V30 16 2 16 17
M  V30 17 1 17 18
M  V30 18 2 9 5
M  V30 19 1 17 12
M  V30 20 1 1 19
M  V30 21 1 1 20
M  V30 22 1 2 21
M  V30 23 1 2 22
M  V30 24 1 3 23
M  V30 25 1 3 24
M  V30 26 1 4 25
M  V30 27 1 4 26
M  V30 28 1 6 27
M  V30 29 1 10 28
M  V30 30 1 10 29
M  V30 31 1 13 30
M  V30 32 1 14 31
M  V30 33 1 15 32
M  V30 34 1 16 33
M  V30 35 1 18 34
M  V30 36 1 18 35
M  V30 END BOND
M  V30 END CTAB
M  END
