
     RDKit          3D

  0  0  0  0  0  0  0  0  0  0999 V3000
M  V30 BEGIN CTAB
M  V30 COUNTS 46 48 0 0 0
M  V30 BEGIN ATOM
M  V30 1 C -4.0416 -3.36651 -1.02777 0
M  V30 2 O -3.5392 -2.07696 -1.19878 0
M  V30 3 C -2.2131 -1.75108 -0.984422 0
M  V30 4 C -1.3881 -2.80345 -0.580769 0
M  V30 5 C -0.0614242 -2.53274 -0.355351 0
M  V30 6 C 0.469271 -1.2737 -0.513969 0
M  V30 7 C -0.351358 -0.240752 -0.912771 0
M  V30 8 C -1.70699 -0.478977 -1.15055 0
M  V30 9 C -2.60797 0.596703 -1.59253 0
M  V30 10 C -3.56397 1.08814 -0.608002 0
M  V30 11 C -3.17982 1.88867 0.435822 0
M  V30 12 N -1.84284 2.2877 0.632686 0
M  V30 13 N -4.10002 2.34638 1.34334 0
M  V30 14 C -5.38213 2.02504 1.23142 0
M  V30 15 N -6.35682 2.48726 2.15991 0
M  V30 16 N -5.81036 1.24297 0.22527 0
M  V30 17 C -4.92781 0.784866 -0.672912 0
M  V30 18 C 1.86749 -1.01068 -0.272819 0
M  V30 19 C 3.05061 -0.793733 -0.0893361 0
M  V30 20 C 4.45037 -0.549075 0.104577 0
M  V30 21 C 5.42118 -1.47496 -0.273001 0
M  V30 22 C 6.76349 -1.2305 -0.0827673 0
M  V30 23 C 7.13779 -0.0391681 0.495239 0
M  V30 24 C 6.22377 0.911785 0.887665 0
M  V30 25 C 4.88098 0.624556 0.677248 0
M  V30 26 C 6.61881 2.17305 1.49854 0
M  V30 27 O 5.68118 3.11366 1.88426 0
M  V30 28 O 7.83727 2.39404 1.67074 0
M  V30 29 H -3.86605 -3.64588 0.0469684 0
M  V30 30 H -3.52566 -4.14109 -1.63009 0
M  V30 31 H -5.13421 -3.38866 -1.18279 0
M  V30 32 H -1.77756 -3.80525 -0.446482 0
M  V30 33 H 0.560262 -3.37692 -0.0409157 0
M  V30 34 H 0.0723965 0.763665 -1.05282 0
M  V30 35 H -1.95459 1.44908 -1.95014 0
M  V30 36 H -3.1275 0.266262 -2.53141 0
M  V30 37 H -1.22888 1.8221 1.30986 0
M  V30 38 H -1.47012 3.07913 0.0719697 0
M  V30 39 H -6.2607 3.39447 2.65609 0
M  V30 40 H -7.18947 1.89278 2.34262 0
M  V30 41 H -5.25854 0.161198 -1.49606 0
M  V30 42 H 5.05597 -2.39628 -0.723039 0
M  V30 43 H 7.50655 -1.94998 -0.376564 0
M  V30 44 H 8.18802 0.142478 0.639777 0
M  V30 45 H 4.11458 1.33225 0.964838 0
M  V30 46 H 5.96676 4.05813 2.0033 0
M  V30 END ATOM
M  V30 BEGIN BOND
M  V30 1 1 1 2
M  V30 2 1 2 3
M  V30 3 2 3 4
M  V30 4 1 4 5
M  V30 5 2 5 6
M  V30 6 1 6 7
M  V30 7 2 7 8
M  V30 8 1 8 9
M  V30 9 1 9 10
M  V30 10 2 10 11
M  V30 11 1 11 12
M  V30 12 1 11 13
M  V30 13 2 13 14
M  V30 14 1 14 15
M  V30 15 1 14 16
M  V30 16 2 16 17
M  V30 17 1 6 18
M  V30 18 3 18 19
M  V30 19 1 19 20
M  V30 20 2 20 21
M  V30 21 1 21 22
M  V30 22 2 22 23
M  V30 23 1 23 24
M  V30 24 2 24 25
M  V30 25 1 24 26
M  V30 26 1 26 27
M  V30 27 2 26 28
M  V30 28 1 8 3
M  V30 29 1 17 10
M  V30 30 1 25 20
M  V30 31 1 1 29
M  V30 32 1 1 30
M  V30 33 1 1 31
M  V30 34 1 4 32
M  V30 35 1 5 33
M  V30 36 1 7 34
M  V30 37 1 9 35
M  V30 38 1 9 36
M  V30 39 1 12 37
M  V30 40 1 12 38
M  V30 41 1 15 39
M  V30 42 1 15 40
M  V30 43 1 17 41
M  V30 44 1 21 42
M  V30 45 1 22 43
M  V30 46 1 23 44
M  V30 47 1 25 45
M  V30 48 1 27 46
M  V30 END BOND
M  V30 END CTAB
M  END
