
     RDKit          3D

  0  0  0  0  0  0  0  0  0  0999 V3000
M  V30 BEGIN CTAB
M  V30 COUNTS 45 46 0 0 0
M  V30 BEGIN ATOM
M  V30 1 O -0.310131 0.443012 1.18329 0
M  V30 2 C -0.642735 0.344304 -0.0231402 0
M  V30 3 C -2.05052 0.0679154 -0.429678 0
M  V30 4 C -2.54628 1.20503 -1.28449 0
M  V30 5 C -3.9287 0.830051 -1.77758 0
M  V30 6 C -4.82663 0.759874 -0.56372 0
M  V30 7 C -4.34238 -0.396005 0.282122 0
M  V30 8 C -2.93098 -0.236353 0.737565 0
M  V30 9 C -2.48254 -1.59553 1.29209 0
M  V30 10 N -2.81673 0.728322 1.80649 0
M  V30 11 N 0.320401 0.494463 -1.03841 0
M  V30 12 C 1.72771 0.758207 -0.848286 0
M  V30 13 C 2.33332 -0.377379 -0.0878182 0
M  V30 14 C 3.78627 -0.203301 0.152731 0
M  V30 15 C 4.4784 -1.28135 0.653027 0
M  V30 16 C 5.84081 -1.16505 0.893581 0
M  V30 17 C 6.48086 0.0471213 0.62171 0
M  V30 18 C 5.79765 1.13052 0.121448 0
M  V30 19 C 4.44581 0.983473 -0.106717 0
M  V30 20 N 2.14901 -1.6496 -0.757134 0
M  V30 21 H -2.03482 -0.838093 -1.08495 0
M  V30 22 H -2.54068 2.17519 -0.770637 0
M  V30 23 H -1.86207 1.24103 -2.1788 0
M  V30 24 H -3.81783 -0.190417 -2.23993 0
M  V30 25 H -4.29235 1.57405 -2.50193 0
M  V30 26 H -4.73324 1.73172 -0.0353402 0
M  V30 27 H -5.87215 0.558209 -0.841459 0
M  V30 28 H -4.39886 -1.30559 -0.35216 0
M  V30 29 H -4.97348 -0.525858 1.20536 0
M  V30 30 H -3.38045 -2.22965 1.53911 0
M  V30 31 H -1.9224 -1.47107 2.2191 0
M  V30 32 H -1.90734 -2.16347 0.505552 0
M  V30 33 H -3.29987 0.312662 2.63768 0
M  V30 34 H -3.33769 1.59569 1.53491 0
M  V30 35 H 0.0101129 0.410189 -2.05614 0
M  V30 36 H 2.20348 0.852857 -1.84564 0
M  V30 37 H 1.89743 1.72189 -0.312878 0
M  V30 38 H 1.86582 -0.476933 0.897948 0
M  V30 39 H 4.01859 -2.24046 0.877701 0
M  V30 40 H 6.37467 -2.01925 1.287 0
M  V30 41 H 7.52623 0.134938 0.806752 0
M  V30 42 H 6.32097 2.04487 -0.0753492 0
M  V30 43 H 3.91692 1.85078 -0.503909 0
M  V30 44 H 2.58574 -1.64625 -1.68177 0
M  V30 45 H 1.17065 -1.98478 -0.723018 0
M  V30 END ATOM
M  V30 BEGIN BOND
M  V30 1 2 1 2
M  V30 2 1 2 3
M  V30 3 1 3 4
M  V30 4 1 4 5
M  V30 5 1 5 6
M  V30 6 1 6 7
M  V30 7 1 7 8
M  V30 8 1 8 9
M  V30 9 1 8 10
M  V30 10 1 2 11
M  V30 11 1 11 12
M  V30 12 1 12 13
M  V30 13 1 13 14
M  V30 14 2 14 15
M  V30 15 1 15 16
M  V30 16 2 16 17
M  V30 17 1 17 18
M  V30 18 2 18 19
M  V30 19 1 13 20
M  V30 20 1 8 3
M  V30 21 1 19 14
M  V30 22 1 3 21
M  V30 23 1 4 22
M  V30 24 1 4 23
M  V30 25 1 5 24
M  V30 26 1 5 25
M  V30 27 1 6 26
M  V30 28 1 6 27
M  V30 29 1 7 28
M  V30 30 1 7 29
M  V30 31 1 9 30
M  V30 32 1 9 31
M  V30 33 1 9 32
M  V30 34 1 10 33
M  V30 35 1 10 34
M  V30 36 1 11 35
M  V30 37 1 12 36
M  V30 38 1 12 37
M  V30 39 1 13 38
M  V30 40 1 15 39
M  V30 41 1 16 40
M  V30 42 1 17 41
M  V30 43 1 18 42
M  V30 44 1 19 43
M  V30 45 1 20 44
M  V30 46 1 20 45
M  V30 END BOND
M  V30 END CTAB
M  END
