
     RDKit          3D

  0  0  0  0  0  0  0  0  0  0999 V3000
M  V30 BEGIN CTAB
M  V30 COUNTS 41 43 0 0 0
M  V30 BEGIN ATOM
M  V30 1 N -1.83744 2.01109 2.7071 0
M  V30 2 C -2.62896 1.20463 1.77861 0
M  V30 3 C -1.73158 0.443596 0.880571 0
M  V30 4 C -0.362417 0.559483 0.999669 0
M  V30 5 C 0.485703 -0.162612 0.150888 0
M  V30 6 C -0.0938333 -0.977387 -0.789367 0
M  V30 7 C -1.48733 -1.07854 -0.890298 0
M  V30 8 C -2.3238 -0.372823 -0.06079 0
M  V30 9 C -3.76556 -0.444035 -0.155117 0
M  V30 10 C -4.37552 -1.56086 -1.01208 0
M  V30 11 C -4.52815 -0.0725044 -1.35867 0
M  V30 12 C 1.97231 -0.0411017 0.300215 0
M  V30 13 C 2.60067 -1.37314 0.0928403 0
M  V30 14 C 4.10295 -1.26302 0.354881 0
M  V30 15 N 4.54777 0.0903761 0.157873 0
M  V30 16 C 3.93824 0.76131 -0.964331 0
M  V30 17 C 2.43261 0.945639 -0.783913 0
M  V30 18 N 1.80692 0.623728 -2.03592 0
M  V30 19 H -2.39786 2.3821 3.48624 0
M  V30 20 H -1.28201 2.755 2.20688 0
M  V30 21 H -3.27141 0.560725 2.39444 0
M  V30 22 H -3.21796 1.95577 1.17777 0
M  V30 23 H 0.0736926 1.21208 1.75328 0
M  V30 24 H 0.546684 -1.54627 -1.46086 0
M  V30 25 H -1.83372 -1.74376 -1.66378 0
M  V30 26 H -4.30102 -0.271475 0.82592 0
M  V30 27 H -5.30264 -2.04726 -0.588291 0
M  V30 28 H -3.75579 -2.18473 -1.64766 0
M  V30 29 H -5.52697 0.365503 -1.22731 0
M  V30 30 H -4.04882 0.188961 -2.31515 0
M  V30 31 H 2.18302 0.410988 1.30075 0
M  V30 32 H 2.14881 -2.12296 0.74053 0
M  V30 33 H 2.51888 -1.616 -1.00488 0
M  V30 34 H 4.63228 -1.9473 -0.337543 0
M  V30 35 H 4.29138 -1.55089 1.42616 0
M  V30 36 H 5.57114 0.17401 0.0592967 0
M  V30 37 H 4.36388 1.78612 -0.988331 0
M  V30 38 H 4.17153 0.262549 -1.9108 0
M  V30 39 H 2.1744 1.94512 -0.392698 0
M  V30 40 H 2.49132 0.483513 -2.78467 0
M  V30 41 H 1.01861 1.25436 -2.29568 0
M  V30 END ATOM
M  V30 BEGIN BOND
M  V30 1 1 1 2
M  V30 2 1 2 3
M  V30 3 2 3 4
M  V30 4 1 4 5
M  V30 5 2 5 6
M  V30 6 1 6 7
M  V30 7 2 7 8
M  V30 8 1 8 9
M  V30 9 1 9 10
M  V30 10 1 10 11
M  V30 11 1 5 12
M  V30 12 1 12 13
M  V30 13 1 13 14
M  V30 14 1 14 15
M  V30 15 1 15 16
M  V30 16 1 16 17
M  V30 17 1 17 18
M  V30 18 1 8 3
M  V30 19 1 11 9
M  V30 20 1 17 12
M  V30 21 1 1 19
M  V30 22 1 1 20
M  V30 23 1 2 21
M  V30 24 1 2 22
M  V30 25 1 4 23
M  V30 26 1 6 24
M  V30 27 1 7 25
M  V30 28 1 9 26
M  V30 29 1 10 27
M  V30 30 1 10 28
M  V30 31 1 11 29
M  V30 32 1 11 30
M  V30 33 1 12 31
M  V30 34 1 13 32
M  V30 35 1 13 33
M  V30 36 1 14 34
M  V30 37 1 14 35
M  V30 38 1 15 36
M  V30 39 1 16 37
M  V30 40 1 16 38
M  V30 41 1 17 39
M  V30 42 1 18 40
M  V30 43 1 18 41
M  V30 END BOND
M  V30 END CTAB
M  END
