
     RDKit          3D

  0  0  0  0  0  0  0  0  0  0999 V3000
M  V30 BEGIN CTAB
M  V30 COUNTS 47 49 0 0 0
M  V30 BEGIN ATOM
M  V30 1 N -5.7688 -1.09228 1.49089 0
M  V30 2 C -5.15208 -0.51504 0.277522 0
M  V30 3 C -4.63406 -1.58273 -0.622392 0
M  V30 4 C -3.12307 -1.6034 -0.695886 0
M  V30 5 C -2.74868 -0.19145 -1.17631 0
M  V30 6 N -2.98705 0.673943 -0.0478856 0
M  V30 7 C -4.23218 0.56703 0.654358 0
M  V30 8 C -1.97616 1.59571 0.322133 0
M  V30 9 O -2.22502 2.35163 1.28924 0
M  V30 10 C -0.706992 1.65612 -0.387355 0
M  V30 11 C -0.0184919 2.95728 0.0664872 0
M  V30 12 C 1.39606 2.62961 -0.159841 0
M  V30 13 O 2.3857 3.42453 -0.294826 0
M  V30 14 N 1.57045 1.21647 -0.219535 0
M  V30 15 C 0.297122 0.628994 0.135134 0
M  V30 16 C 2.78909 0.52799 -0.563443 0
M  V30 17 C 3.45291 0.826609 -1.72596 0
M  V30 18 C 4.64187 0.175085 -2.08155 0
M  V30 19 C 5.17385 -0.789988 -1.2595 0
M  V30 20 C 4.50311 -1.09276 -0.0834311 0
M  V30 21 C 3.31775 -0.434953 0.258235 0
M  V30 22 S 5.15844 -2.31778 0.978426 0
M  V30 23 O 5.93304 -3.27783 0.100424 0
M  V30 24 O 4.07648 -3.07593 1.69009 0
M  V30 25 N 6.25477 -1.61417 2.0906 0
M  V30 26 H -5.04166 -1.56715 2.07033 0
M  V30 27 H -6.25064 -0.307769 1.9747 0
M  V30 28 H -6.03886 -0.0450733 -0.248835 0
M  V30 29 H -4.98976 -2.57609 -0.286007 0
M  V30 30 H -5.01937 -1.44831 -1.66628 0
M  V30 31 H -2.83661 -2.38401 -1.39849 0
M  V30 32 H -2.69535 -1.69661 0.31994 0
M  V30 33 H -3.52683 0.0845795 -1.95595 0
M  V30 34 H -1.75863 -0.147336 -1.61545 0
M  V30 35 H -3.9891 0.455652 1.74902 0
M  V30 36 H -4.71041 1.58253 0.596971 0
M  V30 37 H -0.776043 1.62047 -1.48274 0
M  V30 38 H -0.364882 3.81791 -0.544254 0
M  V30 39 H -0.198645 3.0639 1.14032 0
M  V30 40 H 0.241049 0.66392 1.25503 0
M  V30 41 H 0.153472 -0.373309 -0.259095 0
M  V30 42 H 3.04084 1.58573 -2.3774 0
M  V30 43 H 5.14809 0.41581 -2.98744 0
M  V30 44 H 6.08763 -1.32692 -1.47467 0
M  V30 45 H 2.79055 -0.676632 1.18453 0
M  V30 46 H 6.10412 -0.574079 2.0731 0
M  V30 47 H 7.25298 -1.80989 1.86098 0
M  V30 END ATOM
M  V30 BEGIN BOND
M  V30 1 1 1 2
M  V30 2 1 2 3
M  V30 3 1 3 4
M  V30 4 1 4 5
M  V30 5 1 5 6
M  V30 6 1 6 7
M  V30 7 1 6 8
M  V30 8 2 8 9
M  V30 9 1 8 10
M  V30 10 1 10 11
M  V30 11 1 11 12
M  V30 12 2 12 13
M  V30 13 1 12 14
M  V30 14 1 14 15
M  V30 15 1 14 16
M  V30 16 2 16 17
M  V30 17 1 17 18
M  V30 18 2 18 19
M  V30 19 1 19 20
M  V30 20 2 20 21
M  V30 21 1 20 22
M  V30 22 2 22 23
M  V30 23 2 22 24
M  V30 24 1 22 25
M  V30 25 1 7 2
M  V30 26 1 15 10
M  V30 27 1 21 16
M  V30 28 1 1 26
M  V30 29 1 1 27
M  V30 30 1 2 28
M  V30 31 1 3 29
M  V30 32 1 3 30
M  V30 33 1 4 31
M  V30 34 1 4 32
M  V30 35 1 5 33
M  V30 36 1 5 34
M  V30 37 1 7 35
M  V30 38 1 7 36
M  V30 39 1 10 37
M  V30 40 1 11 38
M  V30 41 1 11 39
M  V30 42 1 15 40
M  V30 43 1 15 41
M  V30 44 1 17 42
M  V30 45 1 18 43
M  V30 46 1 19 44
M  V30 47 1 21 45
M  V30 48 1 25 46
M  V30 49 1 25 47
M  V30 END BOND
M  V30 END CTAB
M  END
