
     RDKit          3D

  0  0  0  0  0  0  0  0  0  0999 V3000
M  V30 BEGIN CTAB
M  V30 COUNTS 43 44 0 0 0
M  V30 BEGIN ATOM
M  V30 1 C -2.55462 1.51072 -1.87929 0
M  V30 2 O -2.73283 0.693196 -0.743195 0
M  V30 3 C -3.9896 0.376723 -0.236717 0
M  V30 4 C -5.16115 0.831612 -0.797542 0
M  V30 5 C -6.3851 0.489039 -0.256951 0
M  V30 6 N -7.61112 0.937247 -0.805366 0
M  V30 7 C -6.4321 -0.314608 0.852671 0
M  V30 8 C -5.26769 -0.767867 1.41165 0
M  V30 9 C -4.05097 -0.431659 0.880241 0
M  V30 10 C -2.84098 -0.946901 1.52206 0
M  V30 11 O -2.9748 -1.67526 2.53278 0
M  V30 12 O -1.57174 -0.68052 1.08399 0
M  V30 13 C -0.39751 -1.17436 1.69831 0
M  V30 14 C 0.828586 -0.731971 1.02035 0
M  V30 15 O 0.763837 -0.000611072 0.0168 0
M  V30 16 N 2.08652 -1.13984 1.51153 0
M  V30 17 C 3.32072 -0.787811 0.957547 0
M  V30 18 C 3.96568 0.3479 1.38456 0
M  V30 19 Cl 3.20602 1.31893 2.61973 0
M  V30 20 C 5.19336 0.73307 0.859844 0
M  V30 21 C 5.78798 -0.0335138 -0.111865 0
M  V30 22 C 5.14713 -1.168 -0.540678 0
M  V30 23 C 3.91275 -1.55425 -0.0123244 0
M  V30 24 Cl 3.18056 -3.02343 -0.632409 0
M  V30 25 S 7.33819 0.379629 -0.829479 0
M  V30 26 O 8.22877 1.08015 0.139908 0
M  V30 27 O 8.06143 -0.866748 -1.27763 0
M  V30 28 N 7.13201 1.37994 -2.21752 0
M  V30 29 Cl -8.00887 -0.74472 1.53377 0
M  V30 30 H -3.18887 2.43451 -1.82842 0
M  V30 31 H -2.83962 0.938265 -2.78764 0
M  V30 32 H -1.50701 1.85755 -1.90937 0
M  V30 33 H -5.13724 1.46075 -1.66551 0
M  V30 34 H -8.36628 1.2217 -0.158945 0
M  V30 35 H -7.77708 0.989924 -1.82022 0
M  V30 36 H -5.36692 -1.4089 2.3002 0
M  V30 37 H -0.507824 -2.298 1.69546 0
M  V30 38 H -0.320683 -0.893283 2.7657 0
M  V30 39 H 2.13535 -1.76574 2.37078 0
M  V30 40 H 5.69388 1.62381 1.19829 0
M  V30 41 H 5.58771 -1.78955 -1.30098 0
M  V30 42 H 7.25889 2.36304 -1.91948 0
M  V30 43 H 6.16123 1.22983 -2.57273 0
M  V30 END ATOM
M  V30 BEGIN BOND
M  V30 1 1 1 2
M  V30 2 1 2 3
M  V30 3 2 3 4
M  V30 4 1 4 5
M  V30 5 1 5 6
M  V30 6 2 5 7
M  V30 7 1 7 8
M  V30 8 2 8 9
M  V30 9 1 9 10
M  V30 10 2 10 11
M  V30 11 1 10 12
M  V30 12 1 12 13
M  V30 13 1 13 14
M  V30 14 2 14 15
M  V30 15 1 14 16
M  V30 16 1 16 17
M  V30 17 2 17 18
M  V30 18 1 18 19
M  V30 19 1 18 20
M  V30 20 2 20 21
M  V30 21 1 21 22
M  V30 22 2 22 23
M  V30 23 1 23 24
M  V30 24 1 21 25
M  V30 25 2 25 26
M  V30 26 2 25 27
M  V30 27 1 25 28
M  V30 28 1 7 29
M  V30 29 1 9 3
M  V30 30 1 23 17
M  V30 31 1 1 30
M  V30 32 1 1 31
M  V30 33 1 1 32
M  V30 34 1 4 33
M  V30 35 1 6 34
M  V30 36 1 6 35
M  V30 37 1 8 36
M  V30 38 1 13 37
M  V30 39 1 13 38
M  V30 40 1 16 39
M  V30 41 1 20 40
M  V30 42 1 22 41
M  V30 43 1 28 42
M  V30 44 1 28 43
M  V30 END BOND
M  V30 END CTAB
M  END
