
     RDKit          3D

  0  0  0  0  0  0  0  0  0  0999 V3000
M  V30 BEGIN CTAB
M  V30 COUNTS 26 27 0 0 0
M  V30 BEGIN ATOM
M  V30 1 O -0.532032 0.23694 -1.83527 0
M  V30 2 C -0.451533 0.470806 -0.444876 0
M  V30 3 C -1.69159 -0.01461 0.244799 0
M  V30 4 N -1.69452 0.19297 1.67543 0
M  V30 5 C -2.97966 0.314805 -0.424348 0
M  V30 6 C -2.45159 -1.11396 -0.389801 0
M  V30 7 C 0.816896 -0.0402478 0.0846814 0
M  V30 8 C 0.924152 -1.09078 0.95944 0
M  V30 9 N 2.11898 -1.53092 1.41257 0
M  V30 10 C 3.28958 -0.985731 1.0507 0
M  V30 11 C 3.22187 0.0866856 0.159049 0
M  V30 12 C 2.02099 0.543311 -0.307624 0
M  V30 13 N 1.99595 1.63751 -1.20989 0
M  V30 14 H -0.333736 -0.704547 -1.98484 0
M  V30 15 H -0.441646 1.58809 -0.278667 0
M  V30 16 H -2.32731 -0.462702 2.19381 0
M  V30 17 H -1.92647 1.19327 1.83213 0
M  V30 18 H -3.91111 0.450049 0.136827 0
M  V30 19 H -2.92823 0.885512 -1.35742 0
M  V30 20 H -2.91329 -1.8248 0.327865 0
M  V30 21 H -2.22282 -1.53215 -1.36443 0
M  V30 22 H 0.0384793 -1.61478 1.31409 0
M  V30 23 H 4.21454 -1.3773 1.44633 0
M  V30 24 H 4.18786 0.520599 -0.124687 0
M  V30 25 H 1.88997 1.54626 -2.24573 0
M  V30 26 H 2.08628 2.62571 -0.870144 0
M  V30 END ATOM
M  V30 BEGIN BOND
M  V30 1 1 1 2
M  V30 2 1 2 3
M  V30 3 1 3 4
M  V30 4 1 3 5
M  V30 5 1 5 6
M  V30 6 1 2 7
M  V30 7 2 7 8
M  V30 8 1 8 9
M  V30 9 2 9 10
M  V30 10 1 10 11
M  V30 11 2 11 12
M  V30 12 1 12 13
M  V30 13 1 6 3
M  V30 14 1 12 7
M  V30 15 1 1 14
M  V30 16 1 2 15
M  V30 17 1 4 16
M  V30 18 1 4 17
M  V30 19 1 5 18
M  V30 20 1 5 19
M  V30 21 1 6 20
M  V30 22 1 6 21
M  V30 23 1 8 22
M  V30 24 1 10 23
M  V30 25 1 11 24
M  V30 26 1 13 25
M  V30 27 1 13 26
M  V30 END BOND
M  V30 END CTAB
M  END
