
     RDKit          3D

  0  0  0  0  0  0  0  0  0  0999 V3000
M  V30 BEGIN CTAB
M  V30 COUNTS 32 32 0 0 0
M  V30 BEGIN ATOM
M  V30 1 N -4.48988 0.451673 0.58248 0
M  V30 2 C -3.34177 0.335662 -0.220149 0 CFG=2
M  V30 3 C -2.96049 -1.09342 -0.436276 0
M  V30 4 C -1.5211 -1.2288 0.079117 0
M  V30 5 N -1.00656 0.104152 0.126912 0
M  V30 6 C -2.17535 0.926656 0.511873 0
M  V30 7 C 0.277636 0.65964 -0.0966938 0
M  V30 8 O 0.374175 1.93274 0.0215801 0
M  V30 9 C 1.49677 -0.0504846 -0.444066 0
M  V30 10 C 2.66457 0.245751 0.508851 0
M  V30 11 C 2.98965 1.70937 0.490141 0
M  V30 12 C 3.81928 -0.611915 0.0135102 0
M  V30 13 N 1.42316 -1.46786 -0.543273 0
M  V30 14 H -5.25651 0.892634 0.184225 0
M  V30 15 H -4.43883 0.108019 1.50257 0
M  V30 16 H -3.52357 0.857201 -1.19663 0
M  V30 17 H -3.57478 -1.80625 0.144638 0
M  V30 18 H -3.01776 -1.36232 -1.50896 0
M  V30 19 H -1.04222 -1.92121 -0.609639 0
M  V30 20 H -1.52937 -1.61088 1.13142 0
M  V30 21 H -2.03286 1.96218 0.128674 0
M  V30 22 H -2.29466 0.930628 1.59615 0
M  V30 23 H 1.81411 0.343908 -1.45893 0
M  V30 24 H 2.3482 -0.0840088 1.53446 0
M  V30 25 H 2.43186 2.1932 1.33336 0
M  V30 26 H 4.08726 1.83545 0.697362 0
M  V30 27 H 2.76387 2.13483 -0.496666 0
M  V30 28 H 3.70629 -1.62528 0.477221 0
M  V30 29 H 3.75262 -0.734486 -1.07831 0
M  V30 30 H 4.80261 -0.176434 0.247645 0
M  V30 31 H 1.68768 -1.99015 0.301859 0
M  V30 32 H 1.76597 -1.86018 -1.43658 0
M  V30 END ATOM
M  V30 BEGIN BOND
M  V30 1 1 1 2
M  V30 2 1 2 3
M  V30 3 1 3 4
M  V30 4 1 4 5
M  V30 5 1 5 6
M  V30 6 1 5 7
M  V30 7 2 7 8
M  V30 8 1 7 9
M  V30 9 1 9 10
M  V30 10 1 10 11
M  V30 11 1 10 12
M  V30 12 1 9 13
M  V30 13 1 6 2
M  V30 14 1 1 14
M  V30 15 1 1 15
M  V30 16 1 2 16 CFG=3
M  V30 17 1 3 17
M  V30 18 1 3 18
M  V30 19 1 4 19
M  V30 20 1 4 20
M  V30 21 1 6 21
M  V30 22 1 6 22
M  V30 23 1 9 23
M  V30 24 1 10 24
M  V30 25 1 11 25
M  V30 26 1 11 26
M  V30 27 1 11 27
M  V30 28 1 12 28
M  V30 29 1 12 29
M  V30 30 1 12 30
M  V30 31 1 13 31
M  V30 32 1 13 32
M  V30 END BOND
M  V30 END CTAB
M  END
