
     RDKit          3D

  0  0  0  0  0  0  0  0  0  0999 V3000
M  V30 BEGIN CTAB
M  V30 COUNTS 42 46 0 0 0
M  V30 BEGIN ATOM
M  V30 1 N 8.11345 -1.4627 -0.528703 0
M  V30 2 C 6.68449 -1.37917 -0.499301 0
M  V30 3 C 5.90646 -2.46302 -0.850727 0
M  V30 4 C 4.52797 -2.41438 -0.832747 0
M  V30 5 C 3.89781 -1.22786 -0.445708 0
M  V30 6 C 4.64714 -0.12652 -0.0885493 0
M  V30 7 C 6.02519 -0.22733 -0.123504 0
M  V30 8 N 3.77137 0.844023 0.228612 0
M  V30 9 C 2.50486 0.413934 0.0906686 0
M  V30 10 N 2.6088 -0.861443 -0.324461 0
M  V30 11 C 1.27194 1.16844 0.338116 0
M  V30 12 C 1.33741 2.47793 0.76416 0
M  V30 13 C 0.210333 3.22523 1.00911 0
M  V30 14 C -1.00956 2.62133 0.814472 0
M  V30 15 C -1.1328 1.31651 0.390031 0
M  V30 16 C 0.0391672 0.603547 0.156197 0
M  V30 17 C -2.43663 0.69428 0.189579 0
M  V30 18 N -2.71121 -0.537592 -0.210878 0
M  V30 19 C -4.03626 -0.763623 -0.282363 0
M  V30 20 C -4.62467 0.444143 0.111597 0
M  V30 21 N -3.62512 1.29791 0.387874 0
M  V30 22 C -5.99713 0.538062 0.144305 0
M  V30 23 C -6.81467 -0.51958 -0.198602 0
M  V30 24 C -6.18853 -1.6981 -0.583099 0
M  V30 25 C -4.82654 -1.83841 -0.630889 0
M  V30 26 N -8.2319 -0.448778 -0.173346 0
M  V30 27 H 8.58531 -1.71942 -1.41543 0
M  V30 28 H 8.71231 -1.27684 0.30438 0
M  V30 29 H 6.4436 -3.37141 -1.14712 0
M  V30 30 H 3.95709 -3.26558 -1.10881 0
M  V30 31 H 6.59008 0.65646 0.163158 0
M  V30 32 H 4.06882 1.80857 0.541976 0
M  V30 33 H 2.30145 2.93093 0.910089 0
M  V30 34 H 0.338063 4.24495 1.34074 0
M  V30 35 H -1.90866 3.186 0.999629 0
M  V30 36 H -0.0384751 -0.434418 -0.181468 0
M  V30 37 H -3.71962 2.29605 0.71285 0
M  V30 38 H -6.47915 1.4646 0.446575 0
M  V30 39 H -6.78093 -2.56261 -0.863505 0
M  V30 40 H -4.38891 -2.77427 -0.936123 0
M  V30 41 H -8.82537 -0.927643 -0.908736 0
M  V30 42 H -8.76697 0.0678074 0.55478 0
M  V30 END ATOM
M  V30 BEGIN BOND
M  V30 1 1 1 2
M  V30 2 2 2 3
M  V30 3 1 3 4
M  V30 4 2 4 5
M  V30 5 1 5 6
M  V30 6 2 6 7
M  V30 7 1 6 8
M  V30 8 1 8 9
M  V30 9 2 9 10
M  V30 10 1 9 11
M  V30 11 2 11 12
M  V30 12 1 12 13
M  V30 13 2 13 14
M  V30 14 1 14 15
M  V30 15 2 15 16
M  V30 16 1 15 17
M  V30 17 2 17 18
M  V30 18 1 18 19
M  V30 19 2 19 20
M  V30 20 1 20 21
M  V30 21 1 20 22
M  V30 22 2 22 23
M  V30 23 1 23 24
M  V30 24 2 24 25
M  V30 25 1 23 26
M  V30 26 1 7 2
M  V30 27 1 16 11
M  V30 28 1 21 17
M  V30 29 1 10 5
M  V30 30 1 25 19
M  V30 31 1 1 27
M  V30 32 1 1 28
M  V30 33 1 3 29
M  V30 34 1 4 30
M  V30 35 1 7 31
M  V30 36 1 8 32
M  V30 37 1 12 33
M  V30 38 1 13 34
M  V30 39 1 14 35
M  V30 40 1 16 36
M  V30 41 1 21 37
M  V30 42 1 22 38
M  V30 43 1 24 39
M  V30 44 1 25 40
M  V30 45 1 26 41
M  V30 46 1 26 42
M  V30 END BOND
M  V30 END CTAB
M  END
