
     RDKit          3D

  0  0  0  0  0  0  0  0  0  0999 V3000
M  V30 BEGIN CTAB
M  V30 COUNTS 43 45 0 0 0
M  V30 BEGIN ATOM
M  V30 1 O -4.60066 -0.466776 -0.082444 0
M  V30 2 C -3.75875 -0.574483 0.831758 0
M  V30 3 C -4.23617 -0.620017 2.23091 0
M  V30 4 C -3.45109 0.310525 3.15491 0
M  V30 5 C -3.36069 -1.17151 3.29633 0
M  V30 6 N -2.38262 -0.648508 0.491317 0
M  V30 7 C -2.02637 -0.595355 -0.89573 0
M  V30 8 S -3.13729 -0.448337 -2.19479 0
M  V30 9 C -2.05056 -0.44871 -3.48721 0
M  V30 10 C -0.830629 -0.564121 -2.88123 0
M  V30 11 C -0.816267 -0.640825 -1.53049 0
M  V30 12 C 0.464506 -0.771539 -0.765097 0
M  V30 13 O 1.58635 -0.815385 -1.32956 0
M  V30 14 O 0.498894 -0.852323 0.605332 0
M  V30 15 C 1.61588 -0.972527 1.41096 0
M  V30 16 C 2.60324 0.105007 1.3419 0
M  V30 17 N 3.74259 -0.063013 2.04151 0
M  V30 18 C 4.72759 0.820519 2.08247 0
M  V30 19 N 5.92316 0.637914 2.82005 0
M  V30 20 N 4.56653 1.95524 1.37468 0
M  V30 21 C 3.45125 2.1793 0.657194 0
M  V30 22 N 2.48389 1.24977 0.650835 0
M  V30 23 N 3.30884 3.40579 -0.0909528 0
M  V30 24 C 0.430896 -0.597778 -3.73868 0
M  V30 25 C -2.37251 -0.347278 -4.9472 0
M  V30 26 H -5.3221 -0.556113 2.40005 0
M  V30 27 H -2.53093 0.790818 2.77136 0
M  V30 28 H -3.99021 0.846943 3.95756 0
M  V30 29 H -2.43462 -1.70524 2.97103 0
M  V30 30 H -3.86251 -1.67967 4.13619 0
M  V30 31 H -1.72524 -0.735837 1.26255 0
M  V30 32 H 2.17171 -1.93504 1.27045 0
M  V30 33 H 1.25112 -1.00538 2.47979 0
M  V30 34 H 6.8312 0.820331 2.35956 0
M  V30 35 H 5.90926 0.326494 3.80813 0
M  V30 36 H 2.36269 3.80556 -0.187025 0
M  V30 37 H 4.16281 3.81624 -0.489422 0
M  V30 38 H 0.99507 -1.52863 -3.58614 0
M  V30 39 H 1.07318 0.264273 -3.4471 0
M  V30 40 H 0.185076 -0.443322 -4.78515 0
M  V30 41 H -1.63989 -0.97617 -5.51494 0
M  V30 42 H -2.45126 0.675645 -5.30099 0
M  V30 43 H -3.36536 -0.846498 -5.15267 0
M  V30 END ATOM
M  V30 BEGIN BOND
M  V30 1 2 1 2
M  V30 2 1 2 3
M  V30 3 1 3 4
M  V30 4 1 4 5
M  V30 5 1 2 6
M  V30 6 1 6 7
M  V30 7 1 7 8
M  V30 8 1 8 9
M  V30 9 2 9 10
M  V30 10 1 10 11
M  V30 11 1 11 12
M  V30 12 2 12 13
M  V30 13 1 12 14
M  V30 14 1 14 15
M  V30 15 1 15 16
M  V30 16 2 16 17
M  V30 17 1 17 18
M  V30 18 1 18 19
M  V30 19 2 18 20
M  V30 20 1 20 21
M  V30 21 2 21 22
M  V30 22 1 21 23
M  V30 23 1 10 24
M  V30 24 1 9 25
M  V30 25 1 5 3
M  V30 26 2 11 7
M  V30 27 1 22 16
M  V30 28 1 3 26
M  V30 29 1 4 27
M  V30 30 1 4 28
M  V30 31 1 5 29
M  V30 32 1 5 30
M  V30 33 1 6 31
M  V30 34 1 15 32
M  V30 35 1 15 33
M  V30 36 1 19 34
M  V30 37 1 19 35
M  V30 38 1 23 36
M  V30 39 1 23 37
M  V30 40 1 24 38
M  V30 41 1 24 39
M  V30 42 1 24 40
M  V30 43 1 25 41
M  V30 44 1 25 42
M  V30 45 1 25 43
M  V30 END BOND
M  V30 END CTAB
M  END
