
     RDKit          3D

  0  0  0  0  0  0  0  0  0  0999 V3000
M  V30 BEGIN CTAB
M  V30 COUNTS 22 21 0 0 0
M  V30 BEGIN ATOM
M  V30 1 C -0.447642 -0.712494 -0.393747 0 CFG=1
M  V30 2 O -0.314612 -1.4422 0.768649 0
M  V30 3 C -1.82836 -0.213339 -0.613514 0
M  V30 4 O -2.02991 0.461743 -1.65399 0
M  V30 5 N -2.87073 -0.474626 0.289063 0
M  V30 6 N -4.15267 0.0218604 0.0296168 0
M  V30 7 C 0.484238 0.471009 -0.467309 0 CFG=1
M  V30 8 O 0.279365 1.36715 0.568448 0
M  V30 9 C 1.90164 0.0834991 -0.468751 0
M  V30 10 O 2.31261 -0.722137 -1.32369 0
M  V30 11 N 2.80329 0.605116 0.477109 0
M  V30 12 N 4.16621 0.259514 0.50898 0
M  V30 13 H -0.16678 -1.38922 -1.23715 0
M  V30 14 H -0.7993 -2.29509 0.642022 0
M  V30 15 H -2.76253 -1.0283 1.16792 0
M  V30 16 H -4.03423 1.00987 -0.307792 0
M  V30 17 H -4.77663 0.00351202 0.857639 0
M  V30 18 H 0.270588 0.96179 -1.45263 0
M  V30 19 H 0.622908 2.24105 0.288386 0
M  V30 20 H 2.51401 1.29552 1.23096 0
M  V30 21 H 4.42274 -0.314072 -0.321134 0
M  V30 22 H 4.40578 -0.190154 1.4109 0
M  V30 END ATOM
M  V30 BEGIN BOND
M  V30 1 1 1 2
M  V30 2 1 1 3
M  V30 3 2 3 4
M  V30 4 1 3 5
M  V30 5 1 5 6
M  V30 6 1 1 7
M  V30 7 1 7 8
M  V30 8 1 7 9
M  V30 9 2 9 10
M  V30 10 1 9 11
M  V30 11 1 11 12
M  V30 12 1 1 13 CFG=3
M  V30 13 1 2 14
M  V30 14 1 5 15
M  V30 15 1 6 16
M  V30 16 1 6 17
M  V30 17 1 7 18 CFG=3
M  V30 18 1 8 19
M  V30 19 1 11 20
M  V30 20 1 12 21
M  V30 21 1 12 22
M  V30 END BOND
M  V30 END CTAB
M  END
