
     RDKit          3D

  0  0  0  0  0  0  0  0  0  0999 V3000
M  V30 BEGIN CTAB
M  V30 COUNTS 22 23 0 0 0
M  V30 BEGIN ATOM
M  V30 1 N -0.935224 2.13237 0.60511 0
M  V30 2 C -0.842422 0.884811 -0.120285 0
M  V30 3 C 0.556524 0.383545 -0.19773 0
M  V30 4 N 1.16942 -0.108648 -1.29925 0
M  V30 5 N 2.39537 -0.465075 -1.04249 0
M  V30 6 C 2.63291 -0.218837 0.242228 0
M  V30 7 N 1.49043 0.309208 0.770198 0
M  V30 8 N 3.86041 -0.475946 0.8901 0
M  V30 9 C -1.76473 -0.0980469 0.546422 0
M  V30 10 C -1.92691 -1.47183 0.0765011 0
M  V30 11 C -2.9874 -0.528993 -0.2945 0
M  V30 12 H -0.0304516 2.56382 0.821432 0
M  V30 13 H -1.65684 2.77303 0.224973 0
M  V30 14 H -1.18935 1.09303 -1.15569 0
M  V30 15 H 3.03448 -0.87455 -1.7847 0
M  V30 16 H 4.49606 0.289488 1.12633 0
M  V30 17 H 4.11347 -1.44797 1.12519 0
M  V30 18 H -1.96879 0.0852999 1.63121 0
M  V30 19 H -2.21315 -2.25704 0.831386 0
M  V30 20 H -1.30019 -1.9191 -0.733198 0
M  V30 21 H -3.95079 -0.445716 0.226548 0
M  V30 22 H -2.98282 -0.202846 -1.37182 0
M  V30 END ATOM
M  V30 BEGIN BOND
M  V30 1 1 1 2
M  V30 2 1 2 3
M  V30 3 2 3 4
M  V30 4 1 4 5
M  V30 5 1 5 6
M  V30 6 2 6 7
M  V30 7 1 6 8
M  V30 8 1 2 9
M  V30 9 1 9 10
M  V30 10 1 10 11
M  V30 11 1 7 3
M  V30 12 1 11 9
M  V30 13 1 1 12
M  V30 14 1 1 13
M  V30 15 1 2 14
M  V30 16 1 5 15
M  V30 17 1 8 16
M  V30 18 1 8 17
M  V30 19 1 9 18
M  V30 20 1 10 19
M  V30 21 1 10 20
M  V30 22 1 11 21
M  V30 23 1 11 22
M  V30 END BOND
M  V30 END CTAB
M  END
