
     RDKit          3D

  0  0  0  0  0  0  0  0  0  0999 V3000
M  V30 BEGIN CTAB
M  V30 COUNTS 64 69 0 0 0
M  V30 BEGIN ATOM
M  V30 1 C -5.47893 4.45092 0.436635 0
M  V30 2 O -4.20097 3.96546 0.716313 0
M  V30 3 C -3.83669 2.6252 0.522151 0
M  V30 4 C -2.57822 2.1791 0.80466 0
M  V30 5 C -2.25613 0.833578 0.596555 0
M  V30 6 C -3.18059 -0.0454408 0.114222 0
M  V30 7 C -4.43682 0.402594 -0.167388 0
M  V30 8 C -4.77478 1.75476 0.0375018 0
M  V30 9 C -2.83059 -1.5114 -0.076497 0
M  V30 10 C -3.3193 -2.12198 1.17564 0
M  V30 11 C -2.51612 -2.6507 2.05904 0
M  V30 12 N -3.11544 -3.2115 3.26195 0
M  V30 13 O -1.15141 -2.70033 1.87835 0
M  V30 14 C -0.581929 -2.18252 0.703029 0
M  V30 15 C -1.39549 -1.64111 -0.246921 0
M  V30 16 C -0.798579 -1.14591 -1.41692 0
M  V30 17 C -1.57253 -0.622213 -2.45287 0
M  V30 18 C -0.982287 -0.183258 -3.5948 0
M  V30 19 C 0.3627 -0.241389 -3.76236 0
M  V30 20 C 1.11019 -0.764543 -2.72624 0
M  V30 21 C 0.567833 -1.22757 -1.53479 0
M  V30 22 C 1.43954 -1.76799 -0.581494 0
M  V30 23 C 0.805464 -2.24537 0.540935 0
M  V30 24 O 1.5262 -2.83206 1.58934 0
M  V30 25 C 2.88567 -2.92429 1.4918 0
M  V30 26 C 3.51903 -2.46984 0.457439 0
M  V30 27 C 2.89889 -1.79104 -0.740715 0
M  V30 28 C 3.47739 -0.386365 -0.736624 0
M  V30 29 C 2.80519 0.620471 -0.09286 0
M  V30 30 C 3.32959 1.9228 -0.0516307 0
M  V30 31 C 4.52281 2.19967 -0.657087 0
M  V30 32 C 5.19985 1.21318 -1.2983 0
M  V30 33 C 4.67217 -0.0603811 -1.33018 0
M  V30 34 O 5.05967 3.47478 -0.63001 0
M  V30 35 C 4.36064 4.50955 0.0362761 0
M  V30 36 C 4.97068 -2.64469 0.479053 0
M  V30 37 N 6.12013 -2.77375 0.477276 0
M  V30 38 N 3.56841 -3.54079 2.57637 0
M  V30 39 C -4.76509 -2.13723 1.43129 0
M  V30 40 N -5.90703 -2.16684 1.64794 0
M  V30 41 H -6.21869 4.18704 1.22801 0
M  V30 42 H -5.47061 5.55767 0.381963 0
M  V30 43 H -5.87915 4.10259 -0.538408 0
M  V30 44 H -1.83771 2.85016 1.1835 0
M  V30 45 H -1.26986 0.510194 0.823939 0
M  V30 46 H -5.23357 -0.211265 -0.555652 0
M  V30 47 H -5.78054 2.09625 -0.191581 0
M  V30 48 H -3.43532 -1.80392 -0.954622 0
M  V30 49 H -2.8408 -4.14823 3.57054 0
M  V30 50 H -3.80486 -2.58149 3.72724 0
M  V30 51 H -2.63256 -0.59657 -2.34151 0
M  V30 52 H -1.58302 0.228887 -4.40827 0
M  V30 53 H 0.849435 0.0984222 -4.65316 0
M  V30 54 H 2.15762 -0.842053 -2.85426 0
M  V30 55 H 3.29889 -2.32583 -1.58998 0
M  V30 56 H 1.87886 0.470766 0.394147 0
M  V30 57 H 2.77586 2.69326 0.463325 0
M  V30 58 H 6.15136 1.43158 -1.78174 0
M  V30 59 H 5.25004 -0.807632 -1.85272 0
M  V30 60 H 3.45146 4.81347 -0.526939 0
M  V30 61 H 4.97863 5.4159 0.148561 0
M  V30 62 H 4.06251 4.2012 1.06985 0
M  V30 63 H 3.7467 -2.97415 3.42343 0
M  V30 64 H 3.86222 -4.52782 2.48387 0
M  V30 END ATOM
M  V30 BEGIN BOND
M  V30 1 1 1 2
M  V30 2 1 2 3
M  V30 3 2 3 4
M  V30 4 1 4 5
M  V30 5 2 5 6
M  V30 6 1 6 7
M  V30 7 2 7 8
M  V30 8 1 6 9
M  V30 9 1 9 10
M  V30 10 2 10 11
M  V30 11 1 11 12
M  V30 12 1 11 13
M  V30 13 1 13 14
M  V30 14 2 14 15
M  V30 15 1 15 16
M  V30 16 2 16 17
M  V30 17 1 17 18
M  V30 18 2 18 19
M  V30 19 1 19 20
M  V30 20 2 20 21
M  V30 21 1 21 22
M  V30 22 2 22 23
M  V30 23 1 23 24
M  V30 24 1 24 25
M  V30 25 2 25 26
M  V30 26 1 26 27
M  V30 27 1 27 28
M  V30 28 2 28 29
M  V30 29 1 29 30
M  V30 30 2 30 31
M  V30 31 1 31 32
M  V30 32 2 32 33
M  V30 33 1 31 34
M  V30 34 1 34 35
M  V30 35 1 26 36
M  V30 36 3 36 37
M  V30 37 1 25 38
M  V30 38 1 10 39
M  V30 39 3 39 40
M  V30 40 1 8 3
M  V30 41 1 15 9
M  V30 42 1 21 16
M  V30 43 1 27 22
M  V30 44 1 33 28
M  V30 45 1 23 14
M  V30 46 1 1 41
M  V30 47 1 1 42
M  V30 48 1 1 43
M  V30 49 1 4 44
M  V30 50 1 5 45
M  V30 51 1 7 46
M  V30 52 1 8 47
M  V30 53 1 9 48
M  V30 54 1 12 49
M  V30 55 1 12 50
M  V30 56 1 17 51
M  V30 57 1 18 52
M  V30 58 1 19 53
M  V30 59 1 20 54
M  V30 60 1 27 55
M  V30 61 1 29 56
M  V30 62 1 30 57
M  V30 63 1 32 58
M  V30 64 1 33 59
M  V30 65 1 35 60
M  V30 66 1 35 61
M  V30 67 1 35 62
M  V30 68 1 38 63
M  V30 69 1 38 64
M  V30 END BOND
M  V30 END CTAB
M  END
