
     RDKit          3D

  0  0  0  0  0  0  0  0  0  0999 V3000
M  V30 BEGIN CTAB
M  V30 COUNTS 55 58 0 0 0
M  V30 BEGIN ATOM
M  V30 1 N -5.14445 -3.30628 -0.30113 0
M  V30 2 C -3.97297 -3.25373 -0.341323 0
M  V30 3 C -2.51771 -3.2148 -0.407624 0
M  V30 4 C -1.87214 -4.40337 -0.684959 0
M  V30 5 N -2.6295 -5.58471 -0.890262 0
M  V30 6 N -0.532505 -4.32963 -0.739475 0
M  V30 7 C 0.128216 -3.15015 -0.532132 0
M  V30 8 C -0.484202 -1.95533 -0.256125 0
M  V30 9 C -1.88755 -2.01217 -0.193849 0
M  V30 10 C -2.74153 -0.872889 0.101521 0
M  V30 11 C -3.40185 -0.262563 -0.95627 0
M  V30 12 C -4.2456 0.804152 -0.755056 0
M  V30 13 C -4.46786 1.31103 0.510912 0
M  V30 14 C -3.80048 0.688883 1.54594 0
M  V30 15 C -2.95219 -0.380924 1.36586 0
M  V30 16 C -5.39031 2.46733 0.726911 0
M  V30 17 C -6.83289 2.05796 0.444398 0
M  V30 18 C -5.01075 3.58579 -0.216504 0
M  V30 19 C 0.310079 -0.887402 -0.0752257 0
M  V30 20 N -0.157708 0.466099 0.212226 0
M  V30 21 C 1.66017 -1.07875 -0.179173 0
M  V30 22 S 1.78515 -2.74261 -0.528281 0
M  V30 23 C 2.77219 -0.109838 -0.0233584 0
M  V30 24 O 2.46252 1.03677 0.231028 0
M  V30 25 N 4.06412 -0.634735 -0.187951 0
M  V30 26 C 5.26991 0.0907448 -0.0839839 0
M  V30 27 C 5.36808 1.45742 -0.029948 0
M  V30 28 C 6.60056 2.11957 0.0964258 0
M  V30 29 C 7.77175 1.41638 0.171019 0
M  V30 30 C 7.69679 0.0437429 0.117582 0
M  V30 31 C 6.49377 -0.599592 -0.00508611 0
M  V30 32 Cl 9.20493 -0.860173 0.214591 0
M  V30 33 C 9.04983 2.14577 0.303117 0
M  V30 34 H -2.42879 -6.47464 -0.38294 0
M  V30 35 H -3.43389 -5.62672 -1.5642 0
M  V30 36 H -3.24837 -0.636783 -1.95731 0
M  V30 37 H -4.77418 1.29559 -1.57223 0
M  V30 38 H -3.9599 1.0705 2.54615 0
M  V30 39 H -2.42656 -0.869759 2.18851 0
M  V30 40 H -5.30222 2.81982 1.75912 0
M  V30 41 H -6.90341 1.8081 -0.619037 0
M  V30 42 H -7.46305 2.91545 0.74779 0
M  V30 43 H -7.03062 1.15734 1.07811 0
M  V30 44 H -5.54233 3.4797 -1.19413 0
M  V30 45 H -3.94578 3.64245 -0.436923 0
M  V30 46 H -5.36499 4.55488 0.208936 0
M  V30 47 H -0.061142 0.821418 1.18273 0
M  V30 48 H -0.565795 1.02242 -0.560362 0
M  V30 49 H 4.19949 -1.67927 -0.418835 0
M  V30 50 H 4.46993 2.06622 -0.0944237 0
M  V30 51 H 6.58654 3.20001 0.132469 0
M  V30 52 H 6.45627 -1.69963 -0.0438927 0
M  V30 53 H 8.92121 3.08292 0.89502 0
M  V30 54 H 9.82518 1.54864 0.830441 0
M  V30 55 H 9.39653 2.44934 -0.706809 0
M  V30 END ATOM
M  V30 BEGIN BOND
M  V30 1 3 1 2
M  V30 2 1 2 3
M  V30 3 2 3 4
M  V30 4 1 4 5
M  V30 5 1 4 6
M  V30 6 2 6 7
M  V30 7 1 7 8
M  V30 8 2 8 9
M  V30 9 1 9 10
M  V30 10 2 10 11
M  V30 11 1 11 12
M  V30 12 2 12 13
M  V30 13 1 13 14
M  V30 14 2 14 15
M  V30 15 1 13 16
M  V30 16 1 16 17
M  V30 17 1 16 18
M  V30 18 1 8 19
M  V30 19 1 19 20
M  V30 20 2 19 21
M  V30 21 1 21 22
M  V30 22 1 21 23
M  V30 23 2 23 24
M  V30 24 1 23 25
M  V30 25 1 25 26
M  V30 26 2 26 27
M  V30 27 1 27 28
M  V30 28 2 28 29
M  V30 29 1 29 30
M  V30 30 2 30 31
M  V30 31 1 30 32
M  V30 32 1 29 33
M  V30 33 1 9 3
M  V30 34 1 15 10
M  V30 35 1 31 26
M  V30 36 1 22 7
M  V30 37 1 5 34
M  V30 38 1 5 35
M  V30 39 1 11 36
M  V30 40 1 12 37
M  V30 41 1 14 38
M  V30 42 1 15 39
M  V30 43 1 16 40
M  V30 44 1 17 41
M  V30 45 1 17 42
M  V30 46 1 17 43
M  V30 47 1 18 44
M  V30 48 1 18 45
M  V30 49 1 18 46
M  V30 50 1 20 47
M  V30 51 1 20 48
M  V30 52 1 25 49
M  V30 53 1 27 50
M  V30 54 1 28 51
M  V30 55 1 31 52
M  V30 56 1 33 53
M  V30 57 1 33 54
M  V30 58 1 33 55
M  V30 END BOND
M  V30 END CTAB
M  END
