
     RDKit          3D

  0  0  0  0  0  0  0  0  0  0999 V3000
M  V30 BEGIN CTAB
M  V30 COUNTS 37 37 0 0 0
M  V30 BEGIN ATOM
M  V30 1 N 3.44594 0.853355 0.197234 0
M  V30 2 C 2.65198 -0.32685 -0.107421 0
M  V30 3 C 1.24097 -0.171645 0.453361 0
M  V30 4 N 1.44896 -0.0112504 1.89832 0
M  V30 5 C 0.68865 1.0794 -0.138699 0
M  V30 6 C -0.781737 1.21092 -0.15625 0
M  V30 7 C -1.22998 2.38625 0.721358 0
M  V30 8 C -1.26287 1.57119 -1.57028 0
M  V30 9 C -1.55313 0.0267628 0.286496 0
M  V30 10 C -0.970032 -1.29592 -0.00854562 0
M  V30 11 C 0.497972 -1.42006 0.166417 0
M  V30 12 C -1.37272 -1.7064 -1.43216 0
M  V30 13 C -1.72364 -2.29062 0.892141 0
M  V30 14 H 3.04069 1.70335 -0.242449 0
M  V30 15 H 4.42025 0.64121 -0.112378 0
M  V30 16 H 3.15904 -1.21163 0.283432 0
M  V30 17 H 2.52797 -0.458808 -1.20061 0
M  V30 18 H 2.09267 -0.818805 2.15753 0
M  V30 19 H 2.07757 0.840441 2.00913 0
M  V30 20 H 1.098 1.22015 -1.17689 0
M  V30 21 H 1.12983 1.93119 0.440572 0
M  V30 22 H -1.44314 3.28028 0.135727 0
M  V30 23 H -2.05829 2.12478 1.37964 0
M  V30 24 H -0.359035 2.64644 1.39414 0
M  V30 25 H -2.31929 1.84657 -1.58625 0
M  V30 26 H -0.645335 2.4754 -1.8477 0
M  V30 27 H -0.998253 0.798362 -2.30137 0
M  V30 28 H -2.57271 0.0717408 -0.194551 0
M  V30 29 H -1.77269 0.110124 1.38635 0
M  V30 30 H 0.688224 -2.13663 1.01619 0
M  V30 31 H 0.931453 -1.92999 -0.727023 0
M  V30 32 H -2.26512 -1.1841 -1.77 0
M  V30 33 H -0.481991 -1.53715 -2.10629 0
M  V30 34 H -1.543 -2.80315 -1.46559 0
M  V30 35 H -2.8056 -2.2071 0.629049 0
M  V30 36 H -1.38374 -3.31409 0.748797 0
M  V30 37 H -1.59786 -1.99371 1.94858 0
M  V30 END ATOM
M  V30 BEGIN BOND
M  V30 1 1 1 2
M  V30 2 1 2 3
M  V30 3 1 3 4
M  V30 4 1 3 5
M  V30 5 1 5 6
M  V30 6 1 6 7
M  V30 7 1 6 8
M  V30 8 1 6 9
M  V30 9 1 9 10
M  V30 10 1 10 11
M  V30 11 1 10 12
M  V30 12 1 10 13
M  V30 13 1 11 3
M  V30 14 1 1 14
M  V30 15 1 1 15
M  V30 16 1 2 16
M  V30 17 1 2 17
M  V30 18 1 4 18
M  V30 19 1 4 19
M  V30 20 1 5 20
M  V30 21 1 5 21
M  V30 22 1 7 22
M  V30 23 1 7 23
M  V30 24 1 7 24
M  V30 25 1 8 25
M  V30 26 1 8 26
M  V30 27 1 8 27
M  V30 28 1 9 28
M  V30 29 1 9 29
M  V30 30 1 11 30
M  V30 31 1 11 31
M  V30 32 1 12 32
M  V30 33 1 12 33
M  V30 34 1 12 34
M  V30 35 1 13 35
M  V30 36 1 13 36
M  V30 37 1 13 37
M  V30 END BOND
M  V30 END CTAB
M  END
