
     RDKit          3D

  0  0  0  0  0  0  0  0  0  0999 V3000
M  V30 BEGIN CTAB
M  V30 COUNTS 43 44 0 0 0
M  V30 BEGIN ATOM
M  V30 1 N 6.33605 2.03293 0.520086 0
M  V30 2 C 5.56134 1.11972 -0.276597 0
M  V30 3 C 4.11329 1.07346 0.1365 0
M  V30 4 C 3.39047 0.118036 -0.725278 0
M  V30 5 O 4.07849 -0.474669 -1.62445 0
M  V30 6 N 1.99847 -0.146477 -0.58151 0
M  V30 7 C 1.39176 -1.10568 -1.48481 0
M  V30 8 C -0.124177 -0.977865 -1.25377 0
M  V30 9 C -0.307178 -1.38288 0.19042 0
M  V30 10 C 0.190689 -0.298684 1.07272 0
M  V30 11 C 1.26853 0.546599 0.444013 0
M  V30 12 C -1.69169 -1.76368 0.43507 0
M  V30 13 O -1.83124 -3.00956 0.796623 0
M  V30 14 C -2.89175 -0.978202 0.33353 0
M  V30 15 C -2.97456 0.345358 0.00636074 0
M  V30 16 C -4.19472 1.03252 -0.0576334 0
M  V30 17 C -4.17694 2.47092 -0.423244 0
M  V30 18 C -5.36401 0.365026 0.216603 0
M  V30 19 N -5.28643 -0.922366 0.535411 0
M  V30 20 C -4.12072 -1.59669 0.600909 0
M  V30 21 N -4.14375 -2.96883 0.94982 0
M  V30 22 H 6.01384 2.12452 1.48999 0
M  V30 23 H 7.32954 1.68038 0.534507 0
M  V30 24 H 5.58115 1.39686 -1.35683 0
M  V30 25 H 5.94773 0.0666774 -0.186543 0
M  V30 26 H 4.02339 0.700333 1.19486 0
M  V30 27 H 3.64862 2.07875 0.149724 0
M  V30 28 H 1.70114 -2.1378 -1.32546 0
M  V30 29 H 1.5539 -0.846508 -2.54779 0
M  V30 30 H -0.32706 0.100246 -1.34709 0
M  V30 31 H -0.67767 -1.60853 -1.95674 0
M  V30 32 H 0.393086 -2.26178 0.339371 0
M  V30 33 H 0.693735 -0.782607 1.97025 0
M  V30 34 H -0.643034 0.266056 1.51121 0
M  V30 35 H 0.758227 1.41266 -0.035948 0
M  V30 36 H 1.98608 0.900441 1.20939 0
M  V30 37 H -2.07925 0.898305 -0.207032 0
M  V30 38 H -3.61435 3.03083 0.353735 0
M  V30 39 H -5.20813 2.8502 -0.478899 0
M  V30 40 H -3.71235 2.63428 -1.42358 0
M  V30 41 H -6.28707 0.917503 0.159915 0
M  V30 42 H -4.17715 -3.23107 1.95319 0
M  V30 43 H -4.1263 -3.66873 0.184082 0
M  V30 END ATOM
M  V30 BEGIN BOND
M  V30 1 1 1 2
M  V30 2 1 2 3
M  V30 3 1 3 4
M  V30 4 2 4 5
M  V30 5 1 4 6
M  V30 6 1 6 7
M  V30 7 1 7 8
M  V30 8 1 8 9
M  V30 9 1 9 10
M  V30 10 1 10 11
M  V30 11 1 9 12
M  V30 12 2 12 13
M  V30 13 1 12 14
M  V30 14 2 14 15
M  V30 15 1 15 16
M  V30 16 1 16 17
M  V30 17 2 16 18
M  V30 18 1 18 19
M  V30 19 2 19 20
M  V30 20 1 20 21
M  V30 21 1 11 6
M  V30 22 1 20 14
M  V30 23 1 1 22
M  V30 24 1 1 23
M  V30 25 1 2 24
M  V30 26 1 2 25
M  V30 27 1 3 26
M  V30 28 1 3 27
M  V30 29 1 7 28
M  V30 30 1 7 29
M  V30 31 1 8 30
M  V30 32 1 8 31
M  V30 33 1 9 32
M  V30 34 1 10 33
M  V30 35 1 10 34
M  V30 36 1 11 35
M  V30 37 1 11 36
M  V30 38 1 15 37
M  V30 39 1 17 38
M  V30 40 1 17 39
M  V30 41 1 17 40
M  V30 42 1 18 41
M  V30 43 1 21 42
M  V30 44 1 21 43
M  V30 END BOND
M  V30 END CTAB
M  END
