
     RDKit          3D

  0  0  0  0  0  0  0  0  0  0999 V3000
M  V30 BEGIN CTAB
M  V30 COUNTS 46 49 0 0 0
M  V30 BEGIN ATOM
M  V30 1 N 6.77987 -0.203918 -0.639227 0
M  V30 2 C 6.03952 -0.190151 0.556441 0 CFG=2
M  V30 3 C 4.95683 -1.24023 0.618659 0
M  V30 4 C 3.95345 -0.18298 1.00692 0 CFG=1
M  V30 5 C 4.96619 0.864871 0.595547 0
M  V30 6 C 2.7703 -0.176242 0.105294 0
M  V30 7 C 1.50422 -0.0690258 0.654796 0
M  V30 8 C 0.427637 -0.0657177 -0.208546 0
M  V30 9 N 0.651439 -0.165543 -1.52989 0
M  V30 10 C 1.87343 -0.270062 -2.07572 0
M  V30 11 N 2.91636 -0.272212 -1.22381 0
M  V30 12 N 2.00418 -0.370644 -3.48716 0
M  V30 13 N -0.917414 0.0406538 0.245635 0
M  V30 14 C -1.97558 0.00887598 -0.74763 0
M  V30 15 C -3.04874 0.988056 -0.219754 0
M  V30 16 N -3.48001 0.423075 1.00752 0
M  V30 17 C -2.49777 0.513656 2.10448 0
M  V30 18 C -1.12705 0.170868 1.64677 0
M  V30 19 C -4.69484 -0.205052 1.25115 0
M  V30 20 O -4.95499 -0.662471 2.43826 0
M  V30 21 C -5.7417 -0.408188 0.266444 0
M  V30 22 N -5.77652 -0.0580963 -1.03066 0
M  V30 23 N -6.92975 -0.453311 -1.50782 0
M  V30 24 C -7.64529 -1.05542 -0.539373 0
M  V30 25 N -6.91947 -1.03517 0.570494 0
M  V30 26 H 6.23248 -0.0446301 -1.44886 0
M  V30 27 H 7.75205 -0.0885326 -0.623964 0
M  V30 28 H 6.67981 -0.164979 1.45247 0
M  V30 29 H 4.77522 -1.71229 -0.371476 0
M  V30 30 H 5.12423 -1.97374 1.43409 0
M  V30 31 H 3.71553 -0.0996977 2.0657 0
M  V30 32 H 5.11706 1.674 1.33854 0
M  V30 33 H 4.79124 1.29908 -0.410189 0
M  V30 34 H 1.3407 0.00956026 1.71419 0
M  V30 35 H 2.73321 -0.992895 -3.86854 0
M  V30 36 H 1.40155 0.151804 -4.15785 0
M  V30 37 H -2.3949 -0.984585 -0.91323 0
M  V30 38 H -1.66194 0.416058 -1.71373 0
M  V30 39 H -2.43208 1.91059 0.0516247 0
M  V30 40 H -3.77529 1.25873 -0.968166 0
M  V30 41 H -2.81706 -0.113504 2.95235 0
M  V30 42 H -2.55765 1.56922 2.44475 0
M  V30 43 H -0.42832 0.929466 2.10943 0
M  V30 44 H -0.82616 -0.795516 2.14617 0
M  V30 45 H -7.27539 -0.337272 -2.48164 0
M  V30 46 H -8.62857 -1.48717 -0.610483 0
M  V30 END ATOM
M  V30 BEGIN BOND
M  V30 1 1 1 2
M  V30 2 1 2 3
M  V30 3 1 3 4
M  V30 4 1 4 5
M  V30 5 1 4 6
M  V30 6 2 6 7
M  V30 7 1 7 8
M  V30 8 2 8 9
M  V30 9 1 9 10
M  V30 10 2 10 11
M  V30 11 1 10 12
M  V30 12 1 8 13
M  V30 13 1 13 14
M  V30 14 1 14 15
M  V30 15 1 15 16
M  V30 16 1 16 17
M  V30 17 1 17 18
M  V30 18 1 16 19
M  V30 19 2 19 20
M  V30 20 1 19 21
M  V30 21 2 21 22
M  V30 22 1 22 23
M  V30 23 1 23 24
M  V30 24 2 24 25
M  V30 25 1 5 2
M  V30 26 1 11 6
M  V30 27 1 18 13
M  V30 28 1 25 21
M  V30 29 1 1 26
M  V30 30 1 1 27
M  V30 31 1 2 28 CFG=1
M  V30 32 1 3 29
M  V30 33 1 3 30
M  V30 34 1 4 31 CFG=1
M  V30 35 1 5 32
M  V30 36 1 5 33
M  V30 37 1 7 34
M  V30 38 1 12 35
M  V30 39 1 12 36
M  V30 40 1 14 37
M  V30 41 1 14 38
M  V30 42 1 15 39
M  V30 43 1 15 40
M  V30 44 1 17 41
M  V30 45 1 17 42
M  V30 46 1 18 43
M  V30 47 1 18 44
M  V30 48 1 23 45
M  V30 49 1 24 46
M  V30 END BOND
M  V30 END CTAB
M  END
