
     RDKit          3D

  0  0  0  0  0  0  0  0  0  0999 V3000
M  V30 BEGIN CTAB
M  V30 COUNTS 49 48 0 0 0
M  V30 BEGIN ATOM
M  V30 1 C 1.82925 0.418704 2.26409 0
M  V30 2 Si 1.31057 0.237826 0.501043 0 VAL=4
M  V30 3 C 0.38779 1.76328 -0.0901533 0
M  V30 4 C 2.89574 0.162734 -0.539381 0
M  V30 5 C 3.71371 1.33601 -0.195717 0
M  V30 6 C 5.00532 1.5495 -0.859263 0
M  V30 7 C 6.06726 0.538041 -0.73134 0
M  V30 8 N 5.66951 -0.746435 -1.26242 0
M  V30 9 O 0.440768 -1.18103 0.205531 0
M  V30 10 Si -1.23395 -1.06414 0.531498 0 VAL=4
M  V30 11 C -1.75733 -2.63163 1.40145 0
M  V30 12 C -1.65464 0.370621 1.60455 0
M  V30 13 C -2.16539 -0.875447 -1.08559 0
M  V30 14 C -3.51118 -0.256433 -0.910476 0
M  V30 15 C -4.4215 -1.05336 -0.0192569 0
M  V30 16 C -5.77745 -0.395845 0.13437 0
M  V30 17 N -6.45689 -0.246349 -1.12348 0
M  V30 18 H 1.5844 1.46076 2.58643 0
M  V30 19 H 2.90726 0.303615 2.37078 0
M  V30 20 H 1.2568 -0.240117 2.95392 0
M  V30 21 H -0.462999 1.47738 -0.734805 0
M  V30 22 H 1.03221 2.42041 -0.721208 0
M  V30 23 H 0.0653879 2.37555 0.779762 0
M  V30 24 H 3.30425 -0.82984 -0.32495 0
M  V30 25 H 2.54055 0.162009 -1.59022 0
M  V30 26 H 3.84025 1.40897 0.926488 0
M  V30 27 H 3.07777 2.2471 -0.417986 0
M  V30 28 H 5.43606 2.53016 -0.491324 0
M  V30 29 H 4.87784 1.75361 -1.96605 0
M  V30 30 H 6.92276 0.873557 -1.3921 0
M  V30 31 H 6.52354 0.460419 0.275436 0
M  V30 32 H 5.62845 -0.651443 -2.30264 0
M  V30 33 H 6.45399 -1.40997 -1.07021 0
M  V30 34 H -2.3739 -2.38898 2.30515 0
M  V30 35 H -2.35526 -3.28777 0.736377 0
M  V30 36 H -0.864302 -3.15066 1.7853 0
M  V30 37 H -2.0375 1.25492 1.05857 0
M  V30 38 H -2.46926 0.068909 2.29417 0
M  V30 39 H -0.827311 0.715922 2.25646 0
M  V30 40 H -1.5778 -0.326991 -1.84761 0
M  V30 41 H -2.34275 -1.89112 -1.54898 0
M  V30 42 H -3.45083 0.770107 -0.469022 0
M  V30 43 H -4.04094 -0.121386 -1.87425 0
M  V30 44 H -4.62979 -2.06696 -0.47173 0
M  V30 45 H -3.98943 -1.22262 0.97851 0
M  V30 46 H -5.56892 0.638929 0.530469 0
M  V30 47 H -6.40008 -0.89299 0.88715 0
M  V30 48 H -6.24803 -1.02671 -1.77697 0
M  V30 49 H -6.15401 0.659194 -1.56286 0
M  V30 END ATOM
M  V30 BEGIN BOND
M  V30 1 1 1 2
M  V30 2 1 2 3
M  V30 3 1 2 4
M  V30 4 1 4 5
M  V30 5 1 5 6
M  V30 6 1 6 7
M  V30 7 1 7 8
M  V30 8 1 2 9
M  V30 9 1 9 10
M  V30 10 1 10 11
M  V30 11 1 10 12
M  V30 12 1 10 13
M  V30 13 1 13 14
M  V30 14 1 14 15
M  V30 15 1 15 16
M  V30 16 1 16 17
M  V30 17 1 1 18
M  V30 18 1 1 19
M  V30 19 1 1 20
M  V30 20 1 3 21
M  V30 21 1 3 22
M  V30 22 1 3 23
M  V30 23 1 4 24
M  V30 24 1 4 25
M  V30 25 1 5 26
M  V30 26 1 5 27
M  V30 27 1 6 28
M  V30 28 1 6 29
M  V30 29 1 7 30
M  V30 30 1 7 31
M  V30 31 1 8 32
M  V30 32 1 8 33
M  V30 33 1 11 34
M  V30 34 1 11 35
M  V30 35 1 11 36
M  V30 36 1 12 37
M  V30 37 1 12 38
M  V30 38 1 12 39
M  V30 39 1 13 40
M  V30 40 1 13 41
M  V30 41 1 14 42
M  V30 42 1 14 43
M  V30 43 1 15 44
M  V30 44 1 15 45
M  V30 45 1 16 46
M  V30 46 1 16 47
M  V30 47 1 17 48
M  V30 48 1 17 49
M  V30 END BOND
M  V30 END CTAB
M  END
