
     RDKit          3D

  0  0  0  0  0  0  0  0  0  0999 V3000
M  V30 BEGIN CTAB
M  V30 COUNTS 28 28 0 0 0
M  V30 BEGIN ATOM
M  V30 1 N 3.32444 -1.14605 -0.670942 0
M  V30 2 C 1.85712 -0.984613 -0.809316 0
M  V30 3 C 1.36833 0.0450177 0.156554 0
M  V30 4 C -0.0655057 0.365026 0.148182 0
M  V30 5 C -0.636059 1.58866 0.480518 0
M  V30 6 C 0.0428552 2.86952 0.802619 0
M  V30 7 N -1.98649 1.42906 0.437581 0
M  V30 8 N -2.29531 0.211009 0.104683 0
M  V30 9 C -1.12738 -0.478215 -0.0824014 0
M  V30 10 C -1.1081 -1.90944 -0.407733 0
M  V30 11 C -3.63182 -0.345292 -0.0571039 0
M  V30 12 N 2.25658 1.15914 0.363772 0
M  V30 13 H 3.43984 -2.02541 -0.0990926 0
M  V30 14 H 3.72043 -1.28497 -1.65411 0
M  V30 15 H 1.59376 -0.686784 -1.86458 0
M  V30 16 H 1.40943 -1.96888 -0.620294 0
M  V30 17 H 1.54299 -0.542218 1.19756 0
M  V30 18 H 0.366556 2.93183 1.85398 0
M  V30 19 H 0.826729 3.14096 0.0511197 0
M  V30 20 H -0.724525 3.71296 0.631437 0
M  V30 21 H -0.572499 -2.52438 0.357763 0
M  V30 22 H -2.17273 -2.33763 -0.350192 0
M  V30 23 H -0.803289 -2.15374 -1.42462 0
M  V30 24 H -4.00458 -0.745503 0.946548 0
M  V30 25 H -3.69822 -1.13946 -0.789278 0
M  V30 26 H -4.3263 0.485599 -0.290662 0
M  V30 27 H 2.14949 1.47492 1.38277 0
M  V30 28 H 3.25427 0.858892 0.205237 0
M  V30 END ATOM
M  V30 BEGIN BOND
M  V30 1 1 1 2
M  V30 2 1 2 3
M  V30 3 1 3 4
M  V30 4 1 4 5
M  V30 5 1 5 6
M  V30 6 2 5 7
M  V30 7 1 7 8
M  V30 8 1 8 9
M  V30 9 1 9 10
M  V30 10 1 8 11
M  V30 11 1 3 12
M  V30 12 2 9 4
M  V30 13 1 1 13
M  V30 14 1 1 14
M  V30 15 1 2 15
M  V30 16 1 2 16
M  V30 17 1 3 17
M  V30 18 1 6 18
M  V30 19 1 6 19
M  V30 20 1 6 20
M  V30 21 1 10 21
M  V30 22 1 10 22
M  V30 23 1 10 23
M  V30 24 1 11 24
M  V30 25 1 11 25
M  V30 26 1 11 26
M  V30 27 1 12 27
M  V30 28 1 12 28
M  V30 END BOND
M  V30 END CTAB
M  END
