
     RDKit          3D

  0  0  0  0  0  0  0  0  0  0999 V3000
M  V30 BEGIN CTAB
M  V30 COUNTS 29 29 0 0 0
M  V30 BEGIN ATOM
M  V30 1 N -2.99683 1.57157 0.38184 0
M  V30 2 C -1.70471 1.03067 0.771321 0
M  V30 3 C -1.36776 -0.175829 -0.0569926 0
M  V30 4 N -0.124692 -0.790117 0.23687 0
M  V30 5 C 1.12711 -0.126451 0.0939882 0
M  V30 6 N 1.2253 1.14146 -0.34074 0
M  V30 7 C 2.37647 1.78382 -0.486638 0
M  V30 8 N 3.53731 1.18501 -0.199843 0
M  V30 9 C 3.51862 -0.0906782 0.242962 0
M  V30 10 O 4.63184 -0.635969 0.507922 0
M  V30 11 C 2.32178 -0.750175 0.391746 0
M  V30 12 N 2.31761 -2.08663 0.856695 0
M  V30 13 C -1.40763 0.115342 -1.54106 0
M  V30 14 C -2.50573 -1.17985 0.189156 0
M  V30 15 H -3.17862 1.47675 -0.630475 0
M  V30 16 H -3.74005 1.1434 0.962974 0
M  V30 17 H -1.77054 0.68049 1.83322 0
M  V30 18 H -0.995726 1.85063 0.746749 0
M  V30 19 H -0.0976246 -1.77498 0.575773 0
M  V30 20 H 2.41114 2.81616 -0.843646 0
M  V30 21 H 4.46782 1.69239 -0.313649 0
M  V30 22 H 2.04151 -2.85718 0.185328 0
M  V30 23 H 2.57791 -2.34147 1.84155 0
M  V30 24 H -0.791329 -0.662963 -2.05499 0
M  V30 25 H -2.44702 -0.0390678 -1.94481 0
M  V30 26 H -1.10607 1.12507 -1.8054 0
M  V30 27 H -2.22693 -2.15953 -0.213857 0
M  V30 28 H -2.7026 -1.20408 1.29179 0
M  V30 29 H -3.39055 -0.737798 -0.338011 0
M  V30 END ATOM
M  V30 BEGIN BOND
M  V30 1 1 1 2
M  V30 2 1 2 3
M  V30 3 1 3 4
M  V30 4 1 4 5
M  V30 5 1 5 6
M  V30 6 2 6 7
M  V30 7 1 7 8
M  V30 8 1 8 9
M  V30 9 2 9 10
M  V30 10 1 9 11
M  V30 11 1 11 12
M  V30 12 1 3 13
M  V30 13 1 3 14
M  V30 14 2 11 5
M  V30 15 1 1 15
M  V30 16 1 1 16
M  V30 17 1 2 17
M  V30 18 1 2 18
M  V30 19 1 4 19
M  V30 20 1 7 20
M  V30 21 1 8 21
M  V30 22 1 12 22
M  V30 23 1 12 23
M  V30 24 1 13 24
M  V30 25 1 13 25
M  V30 26 1 13 26
M  V30 27 1 14 27
M  V30 28 1 14 28
M  V30 29 1 14 29
M  V30 END BOND
M  V30 END CTAB
M  END
