
     RDKit          3D

  0  0  0  0  0  0  0  0  0  0999 V3000
M  V30 BEGIN CTAB
M  V30 COUNTS 22 21 0 0 0
M  V30 BEGIN ATOM
M  V30 1 C 2.98796 0.516497 -0.712096 0
M  V30 2 C 2.16729 -0.229345 0.273565 0
M  V30 3 C 2.69107 -0.534049 1.44216 0
M  V30 4 C 0.780583 -0.606719 -0.0938848 0
M  V30 5 O 0.0585714 0.54444 -0.364361 0
M  V30 6 N -1.19586 0.172542 -0.694983 0
M  V30 7 C -2.33269 0.678305 -0.0106623 0
M  V30 8 N -3.28433 -0.146036 0.258865 0
M  V30 9 N -3.22429 -1.4953 -0.0987834 0
M  V30 10 N -2.40193 2.04568 0.355928 0
M  V30 11 H 2.44508 0.650577 -1.67471 0
M  V30 12 H 3.91359 -0.0265667 -0.902048 0
M  V30 13 H 3.16454 1.52902 -0.27306 0
M  V30 14 H 3.7052 -0.239714 1.66861 0
M  V30 15 H 2.07356 -1.0838 2.15742 0
M  V30 16 H 0.7906 -1.24549 -1.0083 0
M  V30 17 H 0.260818 -1.16771 0.687874 0
M  V30 18 H -1.37751 -0.504744 -1.4707 0
M  V30 19 H -3.34863 -2.28084 0.553853 0
M  V30 20 H -3.03958 -1.72124 -1.10255 0
M  V30 21 H -3.18854 2.66995 0.0769801 0
M  V30 22 H -1.64552 2.47454 0.930887 0
M  V30 END ATOM
M  V30 BEGIN BOND
M  V30 1 1 1 2
M  V30 2 2 2 3 CFG=2
M  V30 3 1 2 4
M  V30 4 1 4 5
M  V30 5 1 5 6
M  V30 6 1 6 7
M  V30 7 2 7 8 CFG=2
M  V30 8 1 8 9
M  V30 9 1 7 10
M  V30 10 1 1 11
M  V30 11 1 1 12
M  V30 12 1 1 13
M  V30 13 1 3 14
M  V30 14 1 3 15
M  V30 15 1 4 16
M  V30 16 1 4 17
M  V30 17 1 6 18
M  V30 18 1 9 19
M  V30 19 1 9 20
M  V30 20 1 10 21
M  V30 21 1 10 22
M  V30 END BOND
M  V30 END CTAB
M  END
