
     RDKit          3D

  0  0  0  0  0  0  0  0  0  0999 V3000
M  V30 BEGIN CTAB
M  V30 COUNTS 43 45 0 0 0
M  V30 BEGIN ATOM
M  V30 1 N -5.27794 -4.01049 -0.643098 0
M  V30 2 C -3.91769 -4.27878 -0.368289 0
M  V30 3 S -3.41175 -5.81007 -0.237622 0
M  V30 4 N -2.98341 -3.18193 -0.206416 0
M  V30 5 N -3.24945 -1.85619 -0.287791 0
M  V30 6 C -2.20433 -1.06111 -0.101034 0
M  V30 7 C -1.10586 -1.92478 0.142249 0
M  V30 8 N 0.039956 -1.60105 0.546809 0
M  V30 9 N 0.557648 -0.368144 0.874917 0
M  V30 10 C 1.87909 -0.128832 0.443812 0
M  V30 11 C 2.85964 -1.01649 0.871432 0
M  V30 12 C 4.17504 -0.868699 0.51421 0
M  V30 13 C 4.55376 0.178853 -0.287723 0
M  V30 14 C 3.57482 1.08449 -0.728508 0
M  V30 15 C 2.24166 0.904428 -0.345404 0
M  V30 16 S 6.1979 0.43991 -0.77012 0
M  V30 17 O 6.26254 1.01083 -2.1537 0
M  V30 18 O 6.97592 -0.859754 -0.808673 0
M  V30 19 N 7.00437 1.54661 0.294133 0
M  V30 20 C -1.60252 -3.32255 0.0699871 0
M  V30 21 O -0.924074 -4.35563 0.223469 0
M  V30 22 C -2.31628 0.379097 -0.109333 0
M  V30 23 C -3.46921 0.912934 0.498626 0
M  V30 24 C -3.78683 2.24848 0.419229 0
M  V30 25 C -2.96568 3.1158 -0.273287 0
M  V30 26 C -1.83175 2.6257 -0.880338 0
M  V30 27 C -1.54899 1.25918 -0.7735 0
M  V30 28 N -3.27945 4.51669 -0.365848 0 CHG=1
M  V30 29 O -2.54151 5.28157 -0.986929 0
M  V30 30 O -4.41347 4.96022 0.256243 0 CHG=-1
M  V30 31 H -5.65074 -4.13666 -1.59709 0
M  V30 32 H -5.91433 -3.67697 0.143747 0
M  V30 33 H 0.10421 0.379292 1.43093 0
M  V30 34 H 2.56922 -1.84983 1.5082 0
M  V30 35 H 4.93775 -1.559 0.845337 0
M  V30 36 H 3.88583 1.90459 -1.36029 0
M  V30 37 H 1.55392 1.64912 -0.729677 0
M  V30 38 H 7.31041 2.40558 -0.214938 0
M  V30 39 H 6.34561 1.8923 1.04302 0
M  V30 40 H -4.13748 0.26412 1.0496 0
M  V30 41 H -4.66565 2.67519 0.880318 0
M  V30 42 H -1.17141 3.28717 -1.43 0
M  V30 43 H -0.659466 0.94482 -1.32808 0
M  V30 END ATOM
M  V30 BEGIN BOND
M  V30 1 1 1 2
M  V30 2 2 2 3
M  V30 3 1 2 4
M  V30 4 1 4 5
M  V30 5 2 5 6
M  V30 6 1 6 7
M  V30 7 2 7 8
M  V30 8 1 8 9
M  V30 9 1 9 10
M  V30 10 2 10 11
M  V30 11 1 11 12
M  V30 12 2 12 13
M  V30 13 1 13 14
M  V30 14 2 14 15
M  V30 15 1 13 16
M  V30 16 2 16 17
M  V30 17 2 16 18
M  V30 18 1 16 19
M  V30 19 1 7 20
M  V30 20 2 20 21
M  V30 21 1 6 22
M  V30 22 2 22 23
M  V30 23 1 23 24
M  V30 24 2 24 25
M  V30 25 1 25 26
M  V30 26 2 26 27
M  V30 27 1 25 28
M  V30 28 2 28 29
M  V30 29 1 28 30
M  V30 30 1 20 4
M  V30 31 1 27 22
M  V30 32 1 15 10
M  V30 33 1 1 31
M  V30 34 1 1 32
M  V30 35 1 9 33
M  V30 36 1 11 34
M  V30 37 1 12 35
M  V30 38 1 14 36
M  V30 39 1 15 37
M  V30 40 1 19 38
M  V30 41 1 19 39
M  V30 42 1 23 40
M  V30 43 1 24 41
M  V30 44 1 26 42
M  V30 45 1 27 43
M  V30 END BOND
M  V30 END CTAB
M  END
