
     RDKit          3D

  0  0  0  0  0  0  0  0  0  0999 V3000
M  V30 BEGIN CTAB
M  V30 COUNTS 56 59 0 0 0
M  V30 BEGIN ATOM
M  V30 1 C 0.481555 7.14369 -0.881352 0
M  V30 2 C -0.041389 5.89157 -0.309295 0
M  V30 3 C 0.220313 5.55266 1.00859 0
M  V30 4 C -0.260925 4.3791 1.57052 0
M  V30 5 C -1.02137 3.50474 0.829604 0
M  V30 6 C -1.27757 3.85364 -0.489542 0
M  V30 7 C -0.806635 5.00577 -1.04533 0
M  V30 8 S -1.65527 1.99843 1.50945 0
M  V30 9 C -0.525511 0.640538 1.29733 0
M  V30 10 C -0.708895 -0.603699 1.69122 0
M  V30 11 N -1.84111 -1.10746 2.36146 0
M  V30 12 C -2.81818 -1.85114 1.65867 0
M  V30 13 C -2.66149 -2.08263 0.311367 0
M  V30 14 C -3.60398 -2.8041 -0.38542 0
M  V30 15 C -4.73442 -3.32649 0.206989 0
M  V30 16 C -4.87678 -3.08414 1.56474 0
M  V30 17 C -3.94437 -2.36435 2.27891 0
M  V30 18 S -5.90943 -4.24051 -0.716626 0
M  V30 19 O -5.20579 -4.8384 -1.9067 0
M  V30 20 O -6.55312 -5.30219 0.126354 0
M  V30 21 N -7.06389 -3.11216 -1.32998 0
M  V30 22 C 0.46384 -1.4003 1.32022 0
M  V30 23 O 0.607866 -2.62705 1.55156 0
M  V30 24 N 1.40772 -0.538885 0.652853 0
M  V30 25 C 0.777632 0.731966 0.645316 0
M  V30 26 O 1.27906 1.78903 0.143746 0
M  V30 27 C 2.66659 -0.940804 0.143295 0
M  V30 28 C 2.87355 -2.19936 -0.413902 0
M  V30 29 C 4.09915 -2.57949 -0.905214 0
M  V30 30 C 5.15561 -1.70194 -0.850338 0
M  V30 31 C 4.96892 -0.437321 -0.29645 0
M  V30 32 C 3.72346 -0.0670276 0.196547 0
M  V30 33 S 6.70516 -2.17107 -1.4666 0
M  V30 34 O 6.90838 -3.66627 -1.35227 0
M  V30 35 O 7.8412 -1.5232 -0.713087 0
M  V30 36 N 6.81324 -1.75541 -3.13305 0
M  V30 37 H -0.234994 7.63046 -1.58113 0
M  V30 38 H 1.40465 6.96337 -1.50669 0
M  V30 39 H 0.760946 7.85661 -0.0921972 0
M  V30 40 H 0.818247 6.21825 1.62558 0
M  V30 41 H -0.0459991 4.12556 2.61147 0
M  V30 42 H -1.87996 3.1513 -1.06095 0
M  V30 43 H -1.00452 5.28046 -2.07194 0
M  V30 44 H -1.97371 -0.941541 3.37302 0
M  V30 45 H -1.76282 -1.6681 -0.162987 0
M  V30 46 H -3.4735 -2.98231 -1.445 0
M  V30 47 H -5.77599 -3.50166 2.02672 0
M  V30 48 H -4.08705 -2.19127 3.34753 0
M  V30 49 H -6.56306 -2.21146 -1.49236 0
M  V30 50 H -7.79537 -2.92824 -0.608735 0
M  V30 51 H 2.03176 -2.87764 -0.44924 0
M  V30 52 H 4.25692 -3.5527 -1.33526 0
M  V30 53 H 5.81074 0.221037 -0.268781 0
M  V30 54 H 3.60327 0.91949 0.62183 0
M  V30 55 H 7.57186 -1.07752 -3.31651 0
M  V30 56 H 6.85545 -2.59984 -3.74626 0
M  V30 END ATOM
M  V30 BEGIN BOND
M  V30 1 1 1 2
M  V30 2 2 2 3
M  V30 3 1 3 4
M  V30 4 2 4 5
M  V30 5 1 5 6
M  V30 6 2 6 7
M  V30 7 1 5 8
M  V30 8 1 8 9
M  V30 9 2 9 10
M  V30 10 1 10 11
M  V30 11 1 11 12
M  V30 12 2 12 13
M  V30 13 1 13 14
M  V30 14 2 14 15
M  V30 15 1 15 16
M  V30 16 2 16 17
M  V30 17 1 15 18
M  V30 18 2 18 19
M  V30 19 2 18 20
M  V30 20 1 18 21
M  V30 21 1 10 22
M  V30 22 2 22 23
M  V30 23 1 22 24
M  V30 24 1 24 25
M  V30 25 2 25 26
M  V30 26 1 24 27
M  V30 27 2 27 28
M  V30 28 1 28 29
M  V30 29 2 29 30
M  V30 30 1 30 31
M  V30 31 2 31 32
M  V30 32 1 30 33
M  V30 33 2 33 34
M  V30 34 2 33 35
M  V30 35 1 33 36
M  V30 36 1 7 2
M  V30 37 1 25 9
M  V30 38 1 32 27
M  V30 39 1 17 12
M  V30 40 1 1 37
M  V30 41 1 1 38
M  V30 42 1 1 39
M  V30 43 1 3 40
M  V30 44 1 4 41
M  V30 45 1 6 42
M  V30 46 1 7 43
M  V30 47 1 11 44
M  V30 48 1 13 45
M  V30 49 1 14 46
M  V30 50 1 16 47
M  V30 51 1 17 48
M  V30 52 1 21 49
M  V30 53 1 21 50
M  V30 54 1 28 51
M  V30 55 1 29 52
M  V30 56 1 31 53
M  V30 57 1 32 54
M  V30 58 1 36 55
M  V30 59 1 36 56
M  V30 END BOND
M  V30 END CTAB
M  END
