
     RDKit          3D

  0  0  0  0  0  0  0  0  0  0999 V3000
M  V30 BEGIN CTAB
M  V30 COUNTS 29 30 0 0 0
M  V30 BEGIN ATOM
M  V30 1 N 4.26115 0.413981 -0.746455 0
M  V30 2 C 2.86596 0.258719 -0.625814 0
M  V30 3 C 2.05261 1.02136 -1.40922 0
M  V30 4 C 0.67649 0.879045 -1.30105 0
M  V30 5 C 0.0933641 -0.0112548 -0.424734 0
M  V30 6 C 0.955061 -0.763596 0.349558 0
M  V30 7 C 2.32524 -0.637569 0.257604 0
M  V30 8 N 3.19061 -1.41991 1.06208 0
M  V30 9 N -1.30964 -0.157816 -0.317482 0
M  V30 10 C -1.80707 -1.08057 0.702586 0
M  V30 11 C -3.25921 -0.834283 1.04036 0
M  V30 12 S -3.50158 0.951824 1.21303 0
M  V30 13 C -2.86929 1.7012 -0.339907 0
M  V30 14 C -2.28036 0.531135 -1.13771 0
M  V30 15 H 4.68932 0.595243 -1.6799 0
M  V30 16 H 4.8823 0.350768 0.0876539 0
M  V30 17 H 2.43677 1.74419 -2.12298 0
M  V30 18 H 0.0302571 1.49214 -1.92887 0
M  V30 19 H 0.583989 -1.49939 1.07561 0
M  V30 20 H 4.10283 -1.70859 0.646842 0
M  V30 21 H 2.98756 -1.72784 2.0317 0
M  V30 22 H -1.23905 -0.797234 1.63822 0
M  V30 23 H -1.60822 -2.10021 0.372681 0
M  V30 24 H -3.88202 -1.18906 0.220538 0
M  V30 25 H -3.46021 -1.33219 2.00632 0
M  V30 26 H -3.76292 2.10363 -0.860672 0
M  V30 27 H -2.10897 2.44931 -0.119192 0
M  V30 28 H -3.15463 -0.131604 -1.36254 0
M  V30 29 H -1.89032 0.898565 -2.09256 0
M  V30 END ATOM
M  V30 BEGIN BOND
M  V30 1 1 1 2
M  V30 2 2 2 3
M  V30 3 1 3 4
M  V30 4 2 4 5
M  V30 5 1 5 6
M  V30 6 2 6 7
M  V30 7 1 7 8
M  V30 8 1 5 9
M  V30 9 1 9 10
M  V30 10 1 10 11
M  V30 11 1 11 12
M  V30 12 1 12 13
M  V30 13 1 13 14
M  V30 14 1 7 2
M  V30 15 1 14 9
M  V30 16 1 1 15
M  V30 17 1 1 16
M  V30 18 1 3 17
M  V30 19 1 4 18
M  V30 20 1 6 19
M  V30 21 1 8 20
M  V30 22 1 8 21
M  V30 23 1 10 22
M  V30 24 1 10 23
M  V30 25 1 11 24
M  V30 26 1 11 25
M  V30 27 1 13 26
M  V30 28 1 13 27
M  V30 29 1 14 28
M  V30 30 1 14 29
M  V30 END BOND
M  V30 END CTAB
M  END
