
     RDKit          3D

  0  0  0  0  0  0  0  0  0  0999 V3000
M  V30 BEGIN CTAB
M  V30 COUNTS 39 40 0 0 0
M  V30 BEGIN ATOM
M  V30 1 N 6.68792 -0.0620797 0.242514 0
M  V30 2 C 5.97108 1.11028 -0.114281 0
M  V30 3 N 6.70528 2.15995 -0.393274 0
M  V30 4 N 4.56801 1.17697 -0.174631 0
M  V30 5 C 3.76489 0.0602392 0.121515 0
M  V30 6 O 4.30355 -1.01667 0.445729 0
M  V30 7 C 2.29624 0.156998 0.0506045 0
M  V30 8 C 1.53445 -0.954914 0.346552 0
M  V30 9 N 2.1982 -2.16019 0.711196 0
M  V30 10 N 0.211674 -0.834154 0.273066 0
M  V30 11 C -0.411554 0.32894 -0.0782709 0
M  V30 12 N -1.84169 0.348999 -0.126077 0
M  V30 13 C -2.49541 0.659999 -1.35464 0
M  V30 14 C -3.82958 -0.0646307 -1.50492 0
M  V30 15 C -4.82446 0.387131 -0.475994 0
M  V30 16 C -4.81307 -0.461577 0.765262 0
M  V30 17 C -3.46225 -1.07354 1.04147 0
M  V30 18 C -2.45831 0.029395 1.16552 0
M  V30 19 C 0.35896 1.43501 -0.372282 0
M  V30 20 Cl -0.415082 2.93966 -0.825804 0
M  V30 21 N 1.70817 1.31623 -0.298591 0
M  V30 22 H 7.26076 -0.0890578 1.108 0
M  V30 23 H 6.65797 -0.915524 -0.348013 0
M  V30 24 H 6.26875 3.07147 -0.667136 0
M  V30 25 H 4.12267 2.07798 -0.445717 0
M  V30 26 H 2.49157 -2.36617 1.693 0
M  V30 27 H 2.3999 -2.85794 -0.0105185 0
M  V30 28 H -1.86293 0.302507 -2.19112 0
M  V30 29 H -2.74903 1.75293 -1.46138 0
M  V30 30 H -3.72391 -1.14943 -1.54002 0
M  V30 31 H -4.22648 0.262439 -2.50273 0
M  V30 32 H -5.82304 0.374217 -0.914957 0
M  V30 33 H -4.56811 1.45154 -0.226443 0
M  V30 34 H -5.54007 -1.2932 0.674858 0
M  V30 35 H -5.05814 0.198192 1.62344 0
M  V30 36 H -3.18237 -1.84489 0.300745 0
M  V30 37 H -3.53658 -1.58446 2.02355 0
M  V30 38 H -1.69893 -0.28362 1.91098 0
M  V30 39 H -2.98906 0.936907 1.52882 0
M  V30 END ATOM
M  V30 BEGIN BOND
M  V30 1 1 1 2
M  V30 2 2 2 3 CFG=2
M  V30 3 1 2 4
M  V30 4 1 4 5
M  V30 5 2 5 6
M  V30 6 1 5 7
M  V30 7 2 7 8
M  V30 8 1 8 9
M  V30 9 1 8 10
M  V30 10 2 10 11
M  V30 11 1 11 12
M  V30 12 1 12 13
M  V30 13 1 13 14
M  V30 14 1 14 15
M  V30 15 1 15 16
M  V30 16 1 16 17
M  V30 17 1 17 18
M  V30 18 1 11 19
M  V30 19 1 19 20
M  V30 20 2 19 21
M  V30 21 1 21 7
M  V30 22 1 18 12
M  V30 23 1 1 22
M  V30 24 1 1 23
M  V30 25 1 3 24
M  V30 26 1 4 25
M  V30 27 1 9 26
M  V30 28 1 9 27
M  V30 29 1 13 28
M  V30 30 1 13 29
M  V30 31 1 14 30
M  V30 32 1 14 31
M  V30 33 1 15 32
M  V30 34 1 15 33
M  V30 35 1 16 34
M  V30 36 1 16 35
M  V30 37 1 17 36
M  V30 38 1 17 37
M  V30 39 1 18 38
M  V30 40 1 18 39
M  V30 END BOND
M  V30 END CTAB
M  END
