
     RDKit          3D

  0  0  0  0  0  0  0  0  0  0999 V3000
M  V30 BEGIN CTAB
M  V30 COUNTS 15 15 0 0 0
M  V30 BEGIN ATOM
M  V30 1 N -1.29732 1.60986 0.246367 0
M  V30 2 C -0.298351 0.603826 0.0722564 0
M  V30 3 C 1.04417 0.917178 -0.0308979 0
M  V30 4 C 2.02952 -0.0340935 -0.199413 0
M  V30 5 Cl 3.72348 0.383642 -0.327812 0
M  V30 6 C 1.64502 -1.36283 -0.267209 0
M  V30 7 N 0.33971 -1.67092 -0.167185 0
M  V30 8 C -0.620606 -0.739865 -0.00264079 0
M  V30 9 N -1.99335 -1.09421 0.10018 0
M  V30 10 H -1.99712 1.83927 -0.489308 0
M  V30 11 H -1.34569 2.14858 1.13891 0
M  V30 12 H 1.33567 1.9535 0.0227838 0
M  V30 13 H 2.42575 -2.09934 -0.399373 0
M  V30 14 H -2.36267 -1.41741 1.03233 0
M  V30 15 H -2.62823 -1.0372 -0.728998 0
M  V30 END ATOM
M  V30 BEGIN BOND
M  V30 1 1 1 2
M  V30 2 2 2 3
M  V30 3 1 3 4
M  V30 4 1 4 5
M  V30 5 2 4 6
M  V30 6 1 6 7
M  V30 7 2 7 8
M  V30 8 1 8 9
M  V30 9 1 8 2
M  V30 10 1 1 10
M  V30 11 1 1 11
M  V30 12 1 3 12
M  V30 13 1 6 13
M  V30 14 1 9 14
M  V30 15 1 9 15
M  V30 END BOND
M  V30 END CTAB
M  END
