
     RDKit          3D

  0  0  0  0  0  0  0  0  0  0999 V3000
M  V30 BEGIN CTAB
M  V30 COUNTS 53 53 0 0 0
M  V30 BEGIN ATOM
M  V30 1 C -6.11914 0.378798 -1.31372 0
M  V30 2 C -4.64975 0.234236 -1.42507 0
M  V30 3 C -3.8731 0.68303 -0.227237 0
M  V30 4 C -2.40629 0.446426 -0.559315 0
M  V30 5 O -2.09411 -0.0611237 -1.65082 0
M  V30 6 N -1.41325 0.806542 0.378285 0
M  V30 7 C -0.0109346 0.678242 0.320789 0
M  V30 8 C 0.557038 -0.698173 0.285262 0
M  V30 9 C 2.06663 -0.636335 0.249331 0
M  V30 10 C 2.78105 -0.871607 1.40828 0
M  V30 11 C 4.1745 -0.82082 1.42165 0
M  V30 12 C 4.87827 -0.532746 0.271411 0
M  V30 13 C 4.15011 -0.30067 -0.875471 0
M  V30 14 C 2.77296 -0.350128 -0.891647 0
M  V30 15 C 6.37053 -0.474208 0.267286 0
M  V30 16 C 6.77786 0.90913 -0.197883 0
M  V30 17 C 6.96789 -1.47518 -0.701044 0
M  V30 18 N 0.136076 -1.47664 -0.815259 0
M  V30 19 C -4.00513 2.14391 0.057498 0
M  V30 20 N -5.37361 2.5459 0.309502 0
M  V30 21 C -4.15196 -0.0997908 1.00899 0
M  V30 22 C -3.81399 -1.57733 0.817202 0
M  V30 23 H -6.5258 1.33616 -1.70197 0
M  V30 24 H -6.52596 0.219254 -0.299955 0
M  V30 25 H -6.59301 -0.416464 -1.95603 0
M  V30 26 H -4.40503 -0.848388 -1.58581 0
M  V30 27 H -4.29623 0.790885 -2.30464 0
M  V30 28 H -1.81824 1.25008 1.27467 0
M  V30 29 H 0.376565 1.25589 -0.572317 0
M  V30 30 H 0.434473 1.17533 1.24562 0
M  V30 31 H 0.257487 -1.18574 1.25512 0
M  V30 32 H 2.24346 -1.09693 2.31018 0
M  V30 33 H 4.74667 -1.00389 2.32621 0
M  V30 34 H 4.69786 -0.0721488 -1.78971 0
M  V30 35 H 2.26935 -0.155513 -1.82182 0
M  V30 36 H 6.77849 -0.685948 1.27042 0
M  V30 37 H 5.94388 1.60968 0.00651203 0
M  V30 38 H 6.92945 0.872697 -1.28935 0
M  V30 39 H 7.66355 1.28564 0.355658 0
M  V30 40 H 7.95102 -1.83845 -0.3512 0
M  V30 41 H 6.30692 -2.35208 -0.849911 0
M  V30 42 H 7.13988 -1.0232 -1.70093 0
M  V30 43 H 0.107976 -2.50338 -0.652793 0
M  V30 44 H 0.560109 -1.20419 -1.70402 0
M  V30 45 H -3.65171 2.76381 -0.801866 0
M  V30 46 H -3.4185 2.44854 0.936927 0
M  V30 47 H -5.34803 3.54463 0.627252 0
M  V30 48 H -5.70519 1.977 1.1195 0
M  V30 49 H -3.49832 0.274585 1.82018 0
M  V30 50 H -5.18891 0.0118842 1.38469 0
M  V30 51 H -3.22479 -1.97139 1.66937 0
M  V30 52 H -4.73034 -2.19434 0.707974 0
M  V30 53 H -3.19875 -1.71545 -0.096537 0
M  V30 END ATOM
M  V30 BEGIN BOND
M  V30 1 1 1 2
M  V30 2 1 2 3
M  V30 3 1 3 4
M  V30 4 2 4 5
M  V30 5 1 4 6
M  V30 6 1 6 7
M  V30 7 1 7 8
M  V30 8 1 8 9
M  V30 9 2 9 10
M  V30 10 1 10 11
M  V30 11 2 11 12
M  V30 12 1 12 13
M  V30 13 2 13 14
M  V30 14 1 12 15
M  V30 15 1 15 16
M  V30 16 1 15 17
M  V30 17 1 8 18
M  V30 18 1 3 19
M  V30 19 1 19 20
M  V30 20 1 3 21
M  V30 21 1 21 22
M  V30 22 1 14 9
M  V30 23 1 1 23
M  V30 24 1 1 24
M  V30 25 1 1 25
M  V30 26 1 2 26
M  V30 27 1 2 27
M  V30 28 1 6 28
M  V30 29 1 7 29
M  V30 30 1 7 30
M  V30 31 1 8 31
M  V30 32 1 10 32
M  V30 33 1 11 33
M  V30 34 1 13 34
M  V30 35 1 14 35
M  V30 36 1 15 36
M  V30 37 1 16 37
M  V30 38 1 16 38
M  V30 39 1 16 39
M  V30 40 1 17 40
M  V30 41 1 17 41
M  V30 42 1 17 42
M  V30 43 1 18 43
M  V30 44 1 18 44
M  V30 45 1 19 45
M  V30 46 1 19 46
M  V30 47 1 20 47
M  V30 48 1 20 48
M  V30 49 1 21 49
M  V30 50 1 21 50
M  V30 51 1 22 51
M  V30 52 1 22 52
M  V30 53 1 22 53
M  V30 END BOND
M  V30 END CTAB
M  END
