
     RDKit          3D

  0  0  0  0  0  0  0  0  0  0999 V3000
M  V30 BEGIN CTAB
M  V30 COUNTS 25 25 0 0 0
M  V30 BEGIN ATOM
M  V30 1 C -1.7785 -1.57832 -0.138608 0
M  V30 2 C -0.948124 -0.312063 0.101106 0
M  V30 3 C 0.353613 -0.367076 -0.608697 0
M  V30 4 C 1.35691 -1.42283 -0.350869 0
M  V30 5 C 1.58805 -0.086963 0.253026 0
M  V30 6 C 2.58274 0.866435 -0.368759 0
M  V30 7 C -1.73793 0.889525 -0.330039 0
M  V30 8 N -1.06526 2.1402 -0.159962 0
M  V30 9 N -0.70428 -0.263194 1.52274 0
M  V30 10 H -2.04161 -1.70497 -1.18427 0
M  V30 11 H -2.71798 -1.48205 0.449199 0
M  V30 12 H -1.21655 -2.42242 0.255962 0
M  V30 13 H 0.340421 0.0672417 -1.63178 0
M  V30 14 H 1.98336 -1.76601 -1.19713 0
M  V30 15 H 1.02595 -2.24313 0.312198 0
M  V30 16 H 1.52503 -0.030758 1.33375 0
M  V30 17 H 2.61986 1.779 0.262485 0
M  V30 18 H 3.59511 0.46004 -0.428935 0
M  V30 19 H 2.24064 1.21448 -1.3743 0
M  V30 20 H -1.99642 0.820643 -1.42201 0
M  V30 21 H -2.67547 0.927781 0.265593 0
M  V30 22 H -1.65819 2.85903 0.34035 0
M  V30 23 H -0.198129 2.03544 0.389728 0
M  V30 24 H -0.147786 -1.02858 1.90533 0
M  V30 25 H -0.325449 0.648544 1.80389 0
M  V30 END ATOM
M  V30 BEGIN BOND
M  V30 1 1 1 2
M  V30 2 1 2 3
M  V30 3 1 3 4
M  V30 4 1 4 5
M  V30 5 1 5 6
M  V30 6 1 2 7
M  V30 7 1 7 8
M  V30 8 1 2 9
M  V30 9 1 5 3
M  V30 10 1 1 10
M  V30 11 1 1 11
M  V30 12 1 1 12
M  V30 13 1 3 13
M  V30 14 1 4 14
M  V30 15 1 4 15
M  V30 16 1 5 16
M  V30 17 1 6 17
M  V30 18 1 6 18
M  V30 19 1 6 19
M  V30 20 1 7 20
M  V30 21 1 7 21
M  V30 22 1 8 22
M  V30 23 1 8 23
M  V30 24 1 9 24
M  V30 25 1 9 25
M  V30 END BOND
M  V30 END CTAB
M  END
