
     RDKit          3D

  0  0  0  0  0  0  0  0  0  0999 V3000
M  V30 BEGIN CTAB
M  V30 COUNTS 23 23 0 0 0
M  V30 BEGIN ATOM
M  V30 1 N 2.86949 0.15453 1.30793 0
M  V30 2 C 2.81359 -0.247154 -0.0513463 0
M  V30 3 N 1.66674 -0.410862 -0.621036 0
M  V30 4 C 0.434718 -0.194719 0.092726 0
M  V30 5 C -0.604039 0.285425 -0.860134 0
M  V30 6 C -1.94165 0.473208 -0.170901 0
M  V30 7 C -2.38528 1.74439 0.0879199 0
M  V30 8 S -3.89407 1.46668 0.850188 0
M  V30 9 C -3.89627 -0.250138 0.807313 0
M  V30 10 C -2.72201 -0.539476 0.201116 0
M  V30 11 O -0.781956 -0.702032 -1.85441 0
M  V30 12 N 4.01591 -0.461991 -0.761044 0
M  V30 13 H 3.35583 1.01501 1.64501 0
M  V30 14 H 2.39132 -0.455555 2.00544 0
M  V30 15 H 0.590113 0.436648 0.96469 0
M  V30 16 H 0.0912043 -1.19212 0.481879 0
M  V30 17 H -0.278643 1.17701 -1.38328 0
M  V30 18 H -1.89294 2.7063 -0.138484 0
M  V30 19 H -4.66417 -0.946181 1.18104 0
M  V30 20 H -2.45875 -1.60714 0.0395713 0
M  V30 21 H -1.64814 -1.14761 -1.78327 0
M  V30 22 H 4.5359 0.28051 -1.27413 0
M  V30 23 H 4.4031 -1.43413 -0.766786 0
M  V30 END ATOM
M  V30 BEGIN BOND
M  V30 1 1 1 2
M  V30 2 2 2 3 CFG=2
M  V30 3 1 3 4
M  V30 4 1 4 5
M  V30 5 1 5 6
M  V30 6 2 6 7
M  V30 7 1 7 8
M  V30 8 1 8 9
M  V30 9 2 9 10
M  V30 10 1 5 11
M  V30 11 1 2 12
M  V30 12 1 10 6
M  V30 13 1 1 13
M  V30 14 1 1 14
M  V30 15 1 4 15
M  V30 16 1 4 16
M  V30 17 1 5 17
M  V30 18 1 7 18
M  V30 19 1 9 19
M  V30 20 1 10 20
M  V30 21 1 11 21
M  V30 22 1 12 22
M  V30 23 1 12 23
M  V30 END BOND
M  V30 END CTAB
M  END
