
     RDKit          3D

  0  0  0  0  0  0  0  0  0  0999 V3000
M  V30 BEGIN CTAB
M  V30 COUNTS 51 52 0 0 0
M  V30 BEGIN ATOM
M  V30 1 C -0.500276 -2.17021 -0.377029 0
M  V30 2 C -0.697074 -0.6311 -0.383274 0
M  V30 3 N 0.115962 -0.115233 0.671458 0
M  V30 4 C 1.18751 0.741878 0.602221 0
M  V30 5 O 1.71851 1.07218 1.7467 0
M  V30 6 C 1.82599 1.33604 -0.55 0
M  V30 7 C 2.85959 0.497208 -1.26705 0
M  V30 8 C 3.91142 0.182174 -0.289003 0
M  V30 9 C 3.89206 -0.941854 0.511915 0
M  V30 10 C 4.88866 -1.19903 1.41515 0
M  V30 11 C 5.93932 -0.308697 1.52541 0
M  V30 12 C 5.99952 0.830004 0.743235 0
M  V30 13 C 4.9719 1.04956 -0.155049 0
M  V30 14 N 2.40348 -0.564238 -2.06097 0
M  V30 15 C 0.848615 1.93075 -1.54427 0
M  V30 16 C -0.237912 -0.567635 2.07175 0
M  V30 17 C -2.15454 -0.357451 -0.144873 0
M  V30 18 C -2.54257 0.87169 0.317051 0
M  V30 19 C -3.88222 1.18461 0.5573 0
M  V30 20 C -4.81588 0.185572 0.305311 0
M  V30 21 C -4.41989 -1.043 -0.157203 0
M  V30 22 C -3.08546 -1.34176 -0.392056 0
M  V30 23 S -6.5145 0.501575 0.582085 0
M  V30 24 O -7.19242 -0.81306 0.819932 0
M  V30 25 O -6.716 1.4527 1.71512 0
M  V30 26 N -7.15736 1.13227 -0.905699 0
M  V30 27 H -0.711478 -2.59176 -1.37022 0
M  V30 28 H -1.08301 -2.62934 0.436333 0
M  V30 29 H 0.578558 -2.32336 -0.170951 0
M  V30 30 H -0.463889 -0.313281 -1.38601 0
M  V30 31 H 2.38313 2.26946 -0.146897 0
M  V30 32 H 3.34068 1.2375 -1.99816 0
M  V30 33 H 3.06913 -1.61577 0.408549 0
M  V30 34 H 4.84183 -2.10197 2.03604 0
M  V30 35 H 6.72265 -0.508424 2.23362 0
M  V30 36 H 6.82508 1.53025 0.829394 0
M  V30 37 H 5.05887 1.967 -0.757584 0
M  V30 38 H 2.32306 -1.49059 -1.59335 0
M  V30 39 H 2.92132 -0.661611 -2.94782 0
M  V30 40 H 0.856943 1.30377 -2.47947 0
M  V30 41 H -0.1334 2.15612 -1.14862 0
M  V30 42 H 1.28125 2.915 -1.90675 0
M  V30 43 H -0.283439 0.385159 2.63667 0
M  V30 44 H 0.570545 -1.17555 2.47491 0
M  V30 45 H -1.18484 -1.10441 2.06726 0
M  V30 46 H -1.82276 1.65297 0.515139 0
M  V30 47 H -4.19153 2.14796 0.919851 0
M  V30 48 H -5.11681 -1.86047 -0.370019 0
M  V30 49 H -2.75212 -2.30391 -0.756564 0
M  V30 50 H -7.283 0.311439 -1.54116 0
M  V30 51 H -6.39318 1.70826 -1.34234 0
M  V30 END ATOM
M  V30 BEGIN BOND
M  V30 1 1 1 2
M  V30 2 1 2 3
M  V30 3 1 3 4
M  V30 4 2 4 5
M  V30 5 1 4 6
M  V30 6 1 6 7
M  V30 7 1 7 8
M  V30 8 2 8 9
M  V30 9 1 9 10
M  V30 10 2 10 11
M  V30 11 1 11 12
M  V30 12 2 12 13
M  V30 13 1 7 14
M  V30 14 1 6 15
M  V30 15 1 3 16
M  V30 16 1 2 17
M  V30 17 2 17 18
M  V30 18 1 18 19
M  V30 19 2 19 20
M  V30 20 1 20 21
M  V30 21 2 21 22
M  V30 22 1 20 23
M  V30 23 2 23 24
M  V30 24 2 23 25
M  V30 25 1 23 26
M  V30 26 1 13 8
M  V30 27 1 22 17
M  V30 28 1 1 27
M  V30 29 1 1 28
M  V30 30 1 1 29
M  V30 31 1 2 30
M  V30 32 1 6 31
M  V30 33 1 7 32
M  V30 34 1 9 33
M  V30 35 1 10 34
M  V30 36 1 11 35
M  V30 37 1 12 36
M  V30 38 1 13 37
M  V30 39 1 14 38
M  V30 40 1 14 39
M  V30 41 1 15 40
M  V30 42 1 15 41
M  V30 43 1 15 42
M  V30 44 1 16 43
M  V30 45 1 16 44
M  V30 46 1 16 45
M  V30 47 1 18 46
M  V30 48 1 19 47
M  V30 49 1 21 48
M  V30 50 1 22 49
M  V30 51 1 26 50
M  V30 52 1 26 51
M  V30 END BOND
M  V30 END CTAB
M  END
