
     RDKit          3D

  0  0  0  0  0  0  0  0  0  0999 V3000
M  V30 BEGIN CTAB
M  V30 COUNTS 29 29 0 0 0
M  V30 BEGIN ATOM
M  V30 1 N 3.84632 0.122854 -1.26863 0
M  V30 2 N 2.69229 -0.360378 -0.69675 0
M  V30 3 C 1.55493 0.463564 -0.575229 0
M  V30 4 O 1.62609 1.64334 -1.00152 0
M  V30 5 C 0.27537 -0.0208205 0.0414528 0
M  V30 6 C 0.503663 -0.449464 1.47979 0
M  V30 7 C -0.120981 -1.26654 -0.725928 0
M  V30 8 C -1.51738 -1.14147 -1.30012 0
M  V30 9 C -2.44654 -0.739065 -0.200682 0
M  V30 10 C -2.13241 0.665765 0.249289 0
M  V30 11 C -0.722369 1.07662 -0.0743829 0
M  V30 12 N -0.330739 2.14614 0.820856 0
M  V30 13 H 4.08416 1.09151 -1.04205 0
M  V30 14 H 4.61945 -0.543886 -1.33732 0
M  V30 15 H 2.64553 -1.33036 -0.350402 0
M  V30 16 H 0.818848 -1.50768 1.49173 0
M  V30 17 H -0.518903 -0.439858 1.95634 0
M  V30 18 H 1.16114 0.225517 2.02675 0
M  V30 19 H -0.122723 -2.17725 -0.0925106 0
M  V30 20 H 0.554813 -1.48224 -1.57485 0
M  V30 21 H -1.56963 -0.418086 -2.13606 0
M  V30 22 H -1.81424 -2.14431 -1.65038 0
M  V30 23 H -2.37514 -1.40941 0.656492 0
M  V30 24 H -3.49055 -0.752663 -0.580113 0
M  V30 25 H -2.28292 0.755008 1.3243 0
M  V30 26 H -2.81161 1.38068 -0.261701 0
M  V30 27 H -0.662421 1.49479 -1.10674 0
M  V30 28 H -0.86602 2.05698 1.70577 0
M  V30 29 H -0.598028 3.06072 0.396248 0
M  V30 END ATOM
M  V30 BEGIN BOND
M  V30 1 1 1 2
M  V30 2 1 2 3
M  V30 3 2 3 4
M  V30 4 1 3 5
M  V30 5 1 5 6
M  V30 6 1 5 7
M  V30 7 1 7 8
M  V30 8 1 8 9
M  V30 9 1 9 10
M  V30 10 1 10 11
M  V30 11 1 11 12
M  V30 12 1 11 5
M  V30 13 1 1 13
M  V30 14 1 1 14
M  V30 15 1 2 15
M  V30 16 1 6 16
M  V30 17 1 6 17
M  V30 18 1 6 18
M  V30 19 1 7 19
M  V30 20 1 7 20
M  V30 21 1 8 21
M  V30 22 1 8 22
M  V30 23 1 9 23
M  V30 24 1 9 24
M  V30 25 1 10 25
M  V30 26 1 10 26
M  V30 27 1 11 27
M  V30 28 1 12 28
M  V30 29 1 12 29
M  V30 END BOND
M  V30 END CTAB
M  END
