
     RDKit          3D

  0  0  0  0  0  0  0  0  0  0999 V3000
M  V30 BEGIN CTAB
M  V30 COUNTS 47 48 0 0 0
M  V30 BEGIN ATOM
M  V30 1 C 5.12771 -0.500084 -1.00429 0
M  V30 2 C 3.95551 -0.149519 -0.11272 0
M  V30 3 C 4.53472 0.439029 1.16325 0
M  V30 4 C 3.06086 0.882508 -0.721092 0
M  V30 5 C 1.89787 1.09724 0.153452 0
M  V30 6 O 1.43169 2.24303 0.408855 0
M  V30 7 C 1.22678 -0.0578635 0.772958 0
M  V30 8 C -0.0289878 0.0126321 1.46228 0
M  V30 9 C -1.30364 0.232507 0.753493 0
M  V30 10 C -1.52079 0.190641 -0.521647 0
M  V30 11 N -0.469948 -0.102324 -1.49465 0
M  V30 12 C -2.83883 0.435629 -1.1648 0
M  V30 13 C -4.02143 0.469369 -0.292506 0
M  V30 14 C -4.66714 -0.881825 -0.0620019 0
M  V30 15 C -5.08243 1.37215 -0.929934 0
M  V30 16 C -3.73157 1.05455 1.07364 0
M  V30 17 C -2.4768 0.537504 1.62786 0
M  V30 18 O -2.41646 0.35713 2.86819 0
M  V30 19 C 1.88926 -1.21184 0.740614 0
M  V30 20 N 1.25066 -2.35736 1.34062 0
M  V30 21 C 3.21031 -1.44114 0.16392 0
M  V30 22 H 4.82417 -1.36272 -1.66046 0
M  V30 23 H 5.47145 0.348722 -1.61062 0
M  V30 24 H 5.92348 -0.914172 -0.343552 0
M  V30 25 H 4.55484 1.56058 1.08811 0
M  V30 26 H 3.99905 0.109158 2.06532 0
M  V30 27 H 5.601 0.13523 1.29608 0
M  V30 28 H 2.77776 0.626874 -1.76317 0
M  V30 29 H 3.67784 1.81982 -0.818967 0
M  V30 30 H -0.138094 -0.902104 2.11924 0
M  V30 31 H 0.0988783 0.840663 2.26214 0
M  V30 32 H -0.134825 0.675968 -2.10724 0
M  V30 33 H -0.0642699 -1.03335 -1.60785 0
M  V30 34 H -2.99811 -0.375754 -1.93529 0
M  V30 35 H -2.76564 1.37204 -1.79475 0
M  V30 36 H -4.94861 -1.33205 -1.0334 0
M  V30 37 H -4.07356 -1.54213 0.583867 0
M  V30 38 H -5.62597 -0.672979 0.488193 0
M  V30 39 H -5.50168 0.846432 -1.78863 0
M  V30 40 H -5.81195 1.60418 -0.129904 0
M  V30 41 H -4.53976 2.31206 -1.19505 0
M  V30 42 H -4.59356 0.758028 1.73709 0
M  V30 43 H -3.77335 2.14408 0.980779 0
M  V30 44 H 1.16419 -2.47418 2.35629 0
M  V30 45 H 0.881784 -3.06101 0.662797 0
M  V30 46 H 3.15995 -2.05948 -0.75539 0
M  V30 47 H 3.80764 -2.04586 0.902676 0
M  V30 END ATOM
M  V30 BEGIN BOND
M  V30 1 1 1 2
M  V30 2 1 2 3
M  V30 3 1 2 4
M  V30 4 1 4 5
M  V30 5 2 5 6
M  V30 6 1 5 7
M  V30 7 1 7 8
M  V30 8 1 8 9
M  V30 9 2 9 10
M  V30 10 1 10 11
M  V30 11 1 10 12
M  V30 12 1 12 13
M  V30 13 1 13 14
M  V30 14 1 13 15
M  V30 15 1 13 16
M  V30 16 1 16 17
M  V30 17 2 17 18
M  V30 18 2 7 19
M  V30 19 1 19 20
M  V30 20 1 19 21
M  V30 21 1 21 2
M  V30 22 1 17 9
M  V30 23 1 1 22
M  V30 24 1 1 23
M  V30 25 1 1 24
M  V30 26 1 3 25
M  V30 27 1 3 26
M  V30 28 1 3 27
M  V30 29 1 4 28
M  V30 30 1 4 29
M  V30 31 1 8 30
M  V30 32 1 8 31
M  V30 33 1 11 32
M  V30 34 1 11 33
M  V30 35 1 12 34
M  V30 36 1 12 35
M  V30 37 1 14 36
M  V30 38 1 14 37
M  V30 39 1 14 38
M  V30 40 1 15 39
M  V30 41 1 15 40
M  V30 42 1 15 41
M  V30 43 1 16 42
M  V30 44 1 16 43
M  V30 45 1 20 44
M  V30 46 1 20 45
M  V30 47 1 21 46
M  V30 48 1 21 47
M  V30 END BOND
M  V30 END CTAB
M  END
