
     RDKit          3D

  0  0  0  0  0  0  0  0  0  0999 V3000
M  V30 BEGIN CTAB
M  V30 COUNTS 47 48 0 0 0
M  V30 BEGIN ATOM
M  V30 1 C -3.33705 -2.42104 -2.06692 0
M  V30 2 O -2.82467 -1.41517 -1.24528 0
M  V30 3 C -3.51906 -0.789283 -0.224336 0
M  V30 4 C -4.8355 -1.10925 0.094553 0
M  V30 5 C -5.50756 -0.475119 1.11311 0
M  V30 6 C -4.84242 0.501139 1.82613 0
M  V30 7 C -3.53224 0.816212 1.50514 0
M  V30 8 C -2.8524 0.18447 0.485224 0
M  V30 9 C -1.45291 0.525806 0.147491 0
M  V30 10 O -0.826322 1.40448 0.775175 0
M  V30 11 O -0.842292 -0.143082 -0.877451 0
M  V30 12 C 0.490717 0.0683529 -1.3144 0
M  V30 13 C 1.48565 -0.225573 -0.282635 0
M  V30 14 O 1.1695 -0.618043 0.881181 0
M  V30 15 C 2.90084 -0.0805777 -0.544437 0
M  V30 16 C 3.82479 -0.349205 0.445261 0
M  V30 17 N 3.36762 -0.760445 1.71537 0
M  V30 18 N 5.13406 -0.219861 0.19861 0
M  V30 19 C 6.08083 -0.50436 1.24262 0
M  V30 20 C 5.5819 0.172879 -1.01263 0
M  V30 21 O 6.8256 0.290584 -1.22995 0
M  V30 22 N 4.73877 0.447669 -2.01197 0
M  V30 23 C 3.40528 0.314273 -1.75571 0
M  V30 24 O 2.66804 0.585199 -2.73135 0
M  V30 25 C 5.22874 0.868513 -3.30855 0
M  V30 26 S -5.66605 1.33149 3.1315 0
M  V30 27 O -6.57359 0.384295 3.84926 0
M  V30 28 O -4.58698 1.7578 4.11275 0
M  V30 29 N -6.47782 2.73016 2.57444 0
M  V30 30 H -3.86036 -2.04888 -2.96965 0
M  V30 31 H -4.02552 -3.05355 -1.46817 0
M  V30 32 H -2.48127 -3.09734 -2.33695 0
M  V30 33 H -5.35459 -1.87452 -0.465529 0
M  V30 34 H -6.53759 -0.715304 1.37354 0
M  V30 35 H -3.00583 1.57732 2.05706 0
M  V30 36 H 0.578274 1.11589 -1.72719 0
M  V30 37 H 0.633948 -0.613443 -2.17081 0
M  V30 38 H 3.33487 -1.77232 2.02316 0
M  V30 39 H 3.04144 -0.0220018 2.39383 0
M  V30 40 H 6.00551 0.243512 2.0592 0
M  V30 41 H 7.11966 -0.610202 0.86113 0
M  V30 42 H 5.8484 -1.49535 1.72403 0
M  V30 43 H 5.50811 1.94879 -3.30758 0
M  V30 44 H 4.41019 0.746004 -4.05034 0
M  V30 45 H 6.1001 0.275299 -3.65109 0
M  V30 46 H -5.80064 3.52464 2.60624 0
M  V30 47 H -6.74017 2.59914 1.55693 0
M  V30 END ATOM
M  V30 BEGIN BOND
M  V30 1 1 1 2
M  V30 2 1 2 3
M  V30 3 2 3 4
M  V30 4 1 4 5
M  V30 5 2 5 6
M  V30 6 1 6 7
M  V30 7 2 7 8
M  V30 8 1 8 9
M  V30 9 2 9 10
M  V30 10 1 9 11
M  V30 11 1 11 12
M  V30 12 1 12 13
M  V30 13 2 13 14
M  V30 14 1 13 15
M  V30 15 2 15 16
M  V30 16 1 16 17
M  V30 17 1 16 18
M  V30 18 1 18 19
M  V30 19 1 18 20
M  V30 20 2 20 21
M  V30 21 1 20 22
M  V30 22 1 22 23
M  V30 23 2 23 24
M  V30 24 1 22 25
M  V30 25 1 6 26
M  V30 26 2 26 27
M  V30 27 2 26 28
M  V30 28 1 26 29
M  V30 29 1 8 3
M  V30 30 1 23 15
M  V30 31 1 1 30
M  V30 32 1 1 31
M  V30 33 1 1 32
M  V30 34 1 4 33
M  V30 35 1 5 34
M  V30 36 1 7 35
M  V30 37 1 12 36
M  V30 38 1 12 37
M  V30 39 1 17 38
M  V30 40 1 17 39
M  V30 41 1 19 40
M  V30 42 1 19 41
M  V30 43 1 19 42
M  V30 44 1 25 43
M  V30 45 1 25 44
M  V30 46 1 25 45
M  V30 47 1 29 46
M  V30 48 1 29 47
M  V30 END BOND
M  V30 END CTAB
M  END
