
     RDKit          3D

  0  0  0  0  0  0  0  0  0  0999 V3000
M  V30 BEGIN CTAB
M  V30 COUNTS 22 22 0 0 0
M  V30 BEGIN ATOM
M  V30 1 N -2.24578 -1.33231 0.495222 0
M  V30 2 C -2.56302 0.0227539 0.0930491 0
M  V30 3 C -1.56341 0.564854 -0.903946 0
M  V30 4 C -0.18656 0.592923 -0.357813 0
M  V30 5 C 0.629435 -0.489539 -0.517644 0
M  V30 6 C 1.92694 -0.513446 -0.0251343 0
M  V30 7 N 2.74764 -1.6654 -0.213719 0
M  V30 8 C 2.43909 0.575413 0.652414 0
M  V30 9 C 1.61835 1.67106 0.816202 0
M  V30 10 C 0.329988 1.67814 0.319834 0
M  V30 11 H -3.09838 -1.69143 1.00805 0
M  V30 12 H -2.00535 -1.95125 -0.310579 0
M  V30 13 H -2.59589 0.650552 0.989109 0
M  V30 14 H -3.56183 0.0993519 -0.390248 0
M  V30 15 H -1.86154 1.63213 -1.08633 0
M  V30 16 H -1.64115 0.0504413 -1.86989 0
M  V30 17 H 0.310286 -1.40225 -1.04289 0
M  V30 18 H 2.66636 -2.26948 -1.05719 0
M  V30 19 H 3.44377 -1.89346 0.525528 0
M  V30 20 H 3.46588 0.569785 1.048 0
M  V30 21 H 2.02373 2.5392 1.35526 0
M  V30 22 H -0.278555 2.56196 0.472702 0
M  V30 END ATOM
M  V30 BEGIN BOND
M  V30 1 1 1 2
M  V30 2 1 2 3
M  V30 3 1 3 4
M  V30 4 2 4 5
M  V30 5 1 5 6
M  V30 6 1 6 7
M  V30 7 2 6 8
M  V30 8 1 8 9
M  V30 9 2 9 10
M  V30 10 1 10 4
M  V30 11 1 1 11
M  V30 12 1 1 12
M  V30 13 1 2 13
M  V30 14 1 2 14
M  V30 15 1 3 15
M  V30 16 1 3 16
M  V30 17 1 5 17
M  V30 18 1 7 18
M  V30 19 1 7 19
M  V30 20 1 8 20
M  V30 21 1 9 21
M  V30 22 1 10 22
M  V30 END BOND
M  V30 END CTAB
M  END
