
     RDKit          3D

  0  0  0  0  0  0  0  0  0  0999 V3000
M  V30 BEGIN CTAB
M  V30 COUNTS 43 46 0 0 0
M  V30 BEGIN ATOM
M  V30 1 N 0.823001 4.1071 -0.214273 0
M  V30 2 C -0.0678615 3.3675 -0.14253 0
M  V30 3 C -1.16875 2.41935 -0.0549536 0
M  V30 4 C -2.46222 2.87025 -0.0454875 0
M  V30 5 N -2.68263 4.2727 -0.125463 0
M  V30 6 N -3.45809 1.97079 0.0396923 0
M  V30 7 C -3.21718 0.647819 0.115373 0
M  V30 8 C -1.92609 0.182525 0.106691 0
M  V30 9 C -0.88647 1.08087 0.0203125 0
M  V30 10 C 0.50352 0.644276 0.00654359 0
M  V30 11 C 1.22278 0.679106 1.18617 0
M  V30 12 C 2.53198 0.270938 1.17614 0
M  V30 13 C 3.09288 -0.161018 -0.00616147 0
M  V30 14 C 2.36436 -0.191909 -1.1802 0
M  V30 15 C 1.04504 0.215512 -1.18699 0
M  V30 16 N 4.4657 -0.588073 -0.0109427 0
M  V30 17 C 4.87573 -1.8625 -0.167556 0
M  V30 18 C 6.2536 -1.89531 -0.118482 0
M  V30 19 C 6.66702 -0.592472 0.0738085 0
M  V30 20 N 5.54419 0.145161 0.130052 0
M  V30 21 C -1.58165 -1.26384 0.184344 0
M  V30 22 C -2.78212 -2.15181 0.173414 0
M  V30 23 C -3.86535 -1.49509 1.029 0
M  V30 24 C -4.36178 -0.305971 0.203451 0
M  V30 25 N -3.23816 -2.28362 -1.20114 0
M  V30 26 H -2.98679 4.85837 0.679677 0
M  V30 27 H -2.53844 4.77217 -1.03683 0
M  V30 28 H 0.758357 1.02872 2.11179 0
M  V30 29 H 3.10951 0.295172 2.10109 0
M  V30 30 H 2.85528 -0.540577 -2.08624 0
M  V30 31 H 0.484141 0.186786 -2.12294 0
M  V30 32 H 4.2315 -2.7095 -0.307478 0
M  V30 33 H 6.89444 -2.76012 -0.209037 0
M  V30 34 H 7.70611 -0.292785 0.152692 0
M  V30 35 H -0.999364 -1.46372 1.11439 0
M  V30 36 H -0.926217 -1.54482 -0.660891 0
M  V30 37 H -2.5004 -3.14874 0.558073 0
M  V30 38 H -3.37469 -1.04801 1.9246 0
M  V30 39 H -4.6658 -2.19786 1.27271 0
M  V30 40 H -5.19992 0.196213 0.709017 0
M  V30 41 H -4.60186 -0.672957 -0.813132 0
M  V30 42 H -3.29715 -3.27153 -1.49958 0
M  V30 43 H -2.64018 -1.76909 -1.87873 0
M  V30 END ATOM
M  V30 BEGIN BOND
M  V30 1 3 1 2
M  V30 2 1 2 3
M  V30 3 2 3 4
M  V30 4 1 4 5
M  V30 5 1 4 6
M  V30 6 2 6 7
M  V30 7 1 7 8
M  V30 8 2 8 9
M  V30 9 1 9 10
M  V30 10 2 10 11
M  V30 11 1 11 12
M  V30 12 2 12 13
M  V30 13 1 13 14
M  V30 14 2 14 15
M  V30 15 1 13 16
M  V30 16 1 16 17
M  V30 17 2 17 18
M  V30 18 1 18 19
M  V30 19 2 19 20
M  V30 20 1 8 21
M  V30 21 1 21 22
M  V30 22 1 22 23
M  V30 23 1 23 24
M  V30 24 1 22 25
M  V30 25 1 9 3
M  V30 26 1 15 10
M  V30 27 1 20 16
M  V30 28 1 24 7
M  V30 29 1 5 26
M  V30 30 1 5 27
M  V30 31 1 11 28
M  V30 32 1 12 29
M  V30 33 1 14 30
M  V30 34 1 15 31
M  V30 35 1 17 32
M  V30 36 1 18 33
M  V30 37 1 19 34
M  V30 38 1 21 35
M  V30 39 1 21 36
M  V30 40 1 22 37
M  V30 41 1 23 38
M  V30 42 1 23 39
M  V30 43 1 24 40
M  V30 44 1 24 41
M  V30 45 1 25 42
M  V30 46 1 25 43
M  V30 END BOND
M  V30 END CTAB
M  END
