
     RDKit          3D

  0  0  0  0  0  0  0  0  0  0999 V3000
M  V30 BEGIN CTAB
M  V30 COUNTS 18 18 0 0 0
M  V30 BEGIN ATOM
M  V30 1 C 3.18295 0.505123 -0.324883 0
M  V30 2 O 2.49151 -0.69387 -0.0366471 0
M  V30 3 C 1.12964 -0.667351 0.092509 0
M  V30 4 C 0.447397 -1.82988 0.373153 0
M  V30 5 N -0.880351 -1.78663 0.495883 0
M  V30 6 C -1.56495 -0.644265 0.353463 0
M  V30 7 C -0.877356 0.538526 0.0685713 0
M  V30 8 N 0.461324 0.48786 -0.0538723 0
M  V30 9 N -1.60869 1.73574 -0.0793353 0
M  V30 10 N -2.97974 -0.57586 0.480168 0
M  V30 11 H 2.49024 1.19946 -0.822954 0
M  V30 12 H 3.49317 0.998007 0.628862 0
M  V30 13 H 4.06244 0.265927 -0.959973 0
M  V30 14 H 0.945047 -2.785 0.499569 0
M  V30 15 H -2.57028 1.74288 -0.46278 0
M  V30 16 H -1.16886 2.6304 0.204318 0
M  V30 17 H -3.44853 -1.02963 1.29467 0
M  V30 18 H -3.60495 -0.0914309 -0.200295 0
M  V30 END ATOM
M  V30 BEGIN BOND
M  V30 1 1 1 2
M  V30 2 1 2 3
M  V30 3 2 3 4
M  V30 4 1 4 5
M  V30 5 2 5 6
M  V30 6 1 6 7
M  V30 7 2 7 8
M  V30 8 1 7 9
M  V30 9 1 6 10
M  V30 10 1 8 3
M  V30 11 1 1 11
M  V30 12 1 1 12
M  V30 13 1 1 13
M  V30 14 1 4 14
M  V30 15 1 9 15
M  V30 16 1 9 16
M  V30 17 1 10 17
M  V30 18 1 10 18
M  V30 END BOND
M  V30 END CTAB
M  END
