
     RDKit          3D

  0  0  0  0  0  0  0  0  0  0999 V3000
M  V30 BEGIN CTAB
M  V30 COUNTS 57 62 0 0 0
M  V30 BEGIN ATOM
M  V30 1 N 2.15113 3.26122 -1.06137 0
M  V30 2 C 1.78122 1.93714 -0.700074 0
M  V30 3 N 2.73203 1.0231 -0.585894 0
M  V30 4 C 2.4453 -0.285121 -0.235314 0
M  V30 5 C 1.12163 -0.538323 -0.0244928 0
M  V30 6 C 0.0981711 0.410078 -0.139357 0
M  V30 7 C 0.432767 1.69127 -0.487735 0
M  V30 8 C -0.71457 2.3863 -0.520682 0
M  V30 9 N -0.79544 3.76605 -0.847853 0
M  V30 10 C -1.77257 1.50522 -0.184581 0
M  V30 11 N -1.25094 0.292368 0.0473887 0
M  V30 12 C -1.88064 -0.931202 0.471325 0
M  V30 13 C -2.32354 -1.00505 1.79867 0
M  V30 14 C -2.91436 -2.13487 2.30338 0
M  V30 15 C -3.07211 -3.22125 1.47415 0
M  V30 16 C -2.64949 -3.18372 0.167593 0
M  V30 17 C -2.05993 -2.03429 -0.307189 0
M  V30 18 C -3.11617 1.96716 -0.0431743 0
M  V30 19 O -3.2447 3.28719 -0.0594058 0
M  V30 20 C -4.38662 1.34466 0.114333 0
M  V30 21 C -5.28272 1.84939 1.03458 0
M  V30 22 C -6.5625 1.37091 1.16433 0
M  V30 23 C -6.98395 0.340451 0.345141 0
M  V30 24 C -6.10539 -0.181766 -0.584509 0
M  V30 25 C -4.82889 0.328002 -0.682519 0
M  V30 26 S 1.10701 -2.19214 0.379158 0
M  V30 27 C 2.77428 -2.52526 0.270547 0
M  V30 28 C 3.31059 -1.32787 -0.0801075 0
M  V30 29 C 4.70878 -1.34436 -0.245432 0
M  V30 30 C 5.39919 -2.52832 -0.0484528 0
M  V30 31 C 4.81213 -3.71674 0.305701 0
M  V30 32 N 3.4795 -3.67801 0.459178 0
M  V30 33 N 5.46067 -0.181824 -0.574093 0
M  V30 34 C 5.68157 0.819115 0.444403 0
M  V30 35 C 6.01379 0.0468902 -1.88729 0
M  V30 36 H 1.75378 3.78767 -1.856 0
M  V30 37 H 2.88925 3.74054 -0.468572 0
M  V30 38 H -0.807988 4.47227 -0.0742928 0
M  V30 39 H -0.843505 4.11073 -1.82583 0
M  V30 40 H -2.18327 -0.121005 2.43668 0
M  V30 41 H -3.25046 -2.15878 3.34973 0
M  V30 42 H -3.54496 -4.11518 1.89355 0
M  V30 43 H -2.79436 -4.05752 -0.441897 0
M  V30 44 H -1.71361 -1.97159 -1.33739 0
M  V30 45 H -4.9847 2.66617 1.70235 0
M  V30 46 H -7.25731 1.79463 1.90799 0
M  V30 47 H -7.99114 -0.0582782 0.424632 0
M  V30 48 H -6.45998 -0.993506 -1.22044 0
M  V30 49 H -4.21405 -0.135088 -1.45146 0
M  V30 50 H 6.49157 -2.51532 -0.185481 0
M  V30 51 H 5.42284 -4.59472 0.440144 0
M  V30 52 H 5.06291 0.696676 1.34614 0
M  V30 53 H 5.58238 1.8641 0.0529721 0
M  V30 54 H 6.74359 0.668263 0.805282 0
M  V30 55 H 5.47451 -0.517277 -2.67637 0
M  V30 56 H 5.99939 1.14315 -2.06509 0
M  V30 57 H 7.05988 -0.32233 -1.88622 0
M  V30 END ATOM
M  V30 BEGIN BOND
M  V30 1 1 1 2
M  V30 2 2 2 3
M  V30 3 1 3 4
M  V30 4 2 4 5
M  V30 5 1 5 6
M  V30 6 2 6 7
M  V30 7 1 7 8
M  V30 8 1 8 9
M  V30 9 2 8 10
M  V30 10 1 10 11
M  V30 11 1 11 12
M  V30 12 2 12 13
M  V30 13 1 13 14
M  V30 14 2 14 15
M  V30 15 1 15 16
M  V30 16 2 16 17
M  V30 17 1 10 18
M  V30 18 2 18 19
M  V30 19 1 18 20
M  V30 20 2 20 21
M  V30 21 1 21 22
M  V30 22 2 22 23
M  V30 23 1 23 24
M  V30 24 2 24 25
M  V30 25 1 5 26
M  V30 26 1 26 27
M  V30 27 2 27 28
M  V30 28 1 28 29
M  V30 29 2 29 30
M  V30 30 1 30 31
M  V30 31 2 31 32
M  V30 32 1 29 33
M  V30 33 1 33 34
M  V30 34 1 33 35
M  V30 35 1 7 2
M  V30 36 1 17 12
M  V30 37 1 25 20
M  V30 38 1 32 27
M  V30 39 1 28 4
M  V30 40 1 11 6
M  V30 41 1 1 36
M  V30 42 1 1 37
M  V30 43 1 9 38
M  V30 44 1 9 39
M  V30 45 1 13 40
M  V30 46 1 14 41
M  V30 47 1 15 42
M  V30 48 1 16 43
M  V30 49 1 17 44
M  V30 50 1 21 45
M  V30 51 1 22 46
M  V30 52 1 23 47
M  V30 53 1 24 48
M  V30 54 1 25 49
M  V30 55 1 30 50
M  V30 56 1 31 51
M  V30 57 1 34 52
M  V30 58 1 34 53
M  V30 59 1 34 54
M  V30 60 1 35 55
M  V30 61 1 35 56
M  V30 62 1 35 57
M  V30 END BOND
M  V30 END CTAB
M  END
