
     RDKit          3D

  0  0  0  0  0  0  0  0  0  0999 V3000
M  V30 BEGIN CTAB
M  V30 COUNTS 56 57 0 0 0
M  V30 BEGIN ATOM
M  V30 1 N -3.79903 -4.10329 -0.597368 0
M  V30 2 C -3.47761 -2.79137 -0.167943 0
M  V30 3 N -2.22463 -2.33006 -0.120393 0
M  V30 4 C -1.98062 -1.05863 0.305115 0
M  V30 5 N -3.03844 -0.322549 0.661304 0
M  V30 6 C -4.28821 -0.79506 0.609339 0
M  V30 7 N -4.54433 -2.03093 0.197727 0
M  V30 8 N -5.36923 0.0714811 1.00867 0
M  V30 9 C -6.70452 -0.457286 0.933994 0
M  V30 10 C -5.08114 1.42252 1.46214 0
M  V30 11 C -0.587173 -0.550357 0.383772 0
M  V30 12 N 0.0185173 -0.0680521 -0.757852 0
M  V30 13 C -0.421513 1.04447 -1.46156 0
M  V30 14 C -1.77885 0.860126 -2.07644 0
M  V30 15 C -0.547504 2.23829 -0.500664 0
M  V30 16 C 0.51542 1.50891 -2.55852 0
M  V30 17 C 1.32164 -0.563742 -1.06913 0
M  V30 18 C 2.37374 -0.275569 -0.0701979 0
M  V30 19 N 2.09415 -0.0071747 1.205 0
M  V30 20 C 3.095 0.25293 2.05748 0
M  V30 21 N 2.90247 0.543995 3.42008 0
M  V30 22 N 4.39932 0.249044 1.64415 0
M  V30 23 C 4.68318 -0.0182477 0.371268 0
M  V30 24 N 3.65934 -0.273655 -0.450478 0
M  V30 25 N 6.03193 -0.0188052 -0.0586615 0
M  V30 26 C 6.61174 1.22678 -0.502722 0
M  V30 27 C 6.77527 -1.25143 -0.0439401 0
M  V30 28 H -4.11585 -4.80484 0.0849898 0
M  V30 29 H -3.71236 -4.34437 -1.59203 0
M  V30 30 H -6.81715 -1.24166 1.70294 0
M  V30 31 H -7.46693 0.3596 1.03728 0
M  V30 32 H -6.82198 -0.967837 -0.0618421 0
M  V30 33 H -3.98584 1.59442 1.40807 0
M  V30 34 H -5.52732 2.11352 0.718421 0
M  V30 35 H -5.44576 1.55902 2.48165 0
M  V30 36 H -0.000471104 -1.43531 0.796579 0
M  V30 37 H -0.583317 0.154966 1.27118 0
M  V30 38 H -1.75482 1.25285 -3.15438 0
M  V30 39 H -2.558 1.52368 -1.62293 0
M  V30 40 H -2.09193 -0.184378 -2.20942 0
M  V30 41 H -1.58752 2.22148 -0.123722 0
M  V30 42 H 0.14137 2.1517 0.348572 0
M  V30 43 H -0.335068 3.16796 -1.05253 0
M  V30 44 H 0.543803 0.83561 -3.42808 0
M  V30 45 H 0.0918846 2.47713 -2.92498 0
M  V30 46 H 1.52249 1.75473 -2.16766 0
M  V30 47 H 1.23191 -1.6897 -1.10379 0
M  V30 48 H 1.66002 -0.270951 -2.07242 0
M  V30 49 H 2.96054 -0.209706 4.12022 0
M  V30 50 H 2.70368 1.51248 3.71193 0
M  V30 51 H 7.42116 1.52281 0.210092 0
M  V30 52 H 5.87768 2.05736 -0.481284 0
M  V30 53 H 7.00625 1.1862 -1.5376 0
M  V30 54 H 7.35711 -1.36218 -1.00531 0
M  V30 55 H 6.11523 -2.14462 0.0300428 0
M  V30 56 H 7.53226 -1.29231 0.774052 0
M  V30 END ATOM
M  V30 BEGIN BOND
M  V30 1 1 1 2
M  V30 2 2 2 3
M  V30 3 1 3 4
M  V30 4 2 4 5
M  V30 5 1 5 6
M  V30 6 2 6 7
M  V30 7 1 6 8
M  V30 8 1 8 9
M  V30 9 1 8 10
M  V30 10 1 4 11
M  V30 11 1 11 12
M  V30 12 1 12 13
M  V30 13 1 13 14
M  V30 14 1 13 15
M  V30 15 1 13 16
M  V30 16 1 12 17
M  V30 17 1 17 18
M  V30 18 2 18 19
M  V30 19 1 19 20
M  V30 20 1 20 21
M  V30 21 2 20 22
M  V30 22 1 22 23
M  V30 23 2 23 24
M  V30 24 1 23 25
M  V30 25 1 25 26
M  V30 26 1 25 27
M  V30 27 1 7 2
M  V30 28 1 24 18
M  V30 29 1 1 28
M  V30 30 1 1 29
M  V30 31 1 9 30
M  V30 32 1 9 31
M  V30 33 1 9 32
M  V30 34 1 10 33
M  V30 35 1 10 34
M  V30 36 1 10 35
M  V30 37 1 11 36
M  V30 38 1 11 37
M  V30 39 1 14 38
M  V30 40 1 14 39
M  V30 41 1 14 40
M  V30 42 1 15 41
M  V30 43 1 15 42
M  V30 44 1 15 43
M  V30 45 1 16 44
M  V30 46 1 16 45
M  V30 47 1 16 46
M  V30 48 1 17 47
M  V30 49 1 17 48
M  V30 50 1 21 49
M  V30 51 1 21 50
M  V30 52 1 26 51
M  V30 53 1 26 52
M  V30 54 1 26 53
M  V30 55 1 27 54
M  V30 56 1 27 55
M  V30 57 1 27 56
M  V30 END BOND
M  V30 END CTAB
M  END
