
     RDKit          3D

  0  0  0  0  0  0  0  0  0  0999 V3000
M  V30 BEGIN CTAB
M  V30 COUNTS 48 51 0 0 0
M  V30 BEGIN ATOM
M  V30 1 C -4.57883 -4.16674 -0.965377 0
M  V30 2 O -3.7657 -3.13789 -1.4343 0
M  V30 3 C -2.91774 -2.38688 -0.632711 0
M  V30 4 C -2.88279 -2.68329 0.712965 0
M  V30 5 C -2.05781 -1.96639 1.54635 0
M  V30 6 C -1.2738 -0.960614 1.03641 0
M  V30 7 C -1.28228 -0.632172 -0.318947 0
M  V30 8 C -2.12561 -1.37548 -1.12847 0
M  V30 9 N -0.425759 0.378536 -0.816906 0
M  V30 10 C 0.772175 0.0447397 -1.41382 0
M  V30 11 N 1.35716 1.19104 -1.7398 0
M  V30 12 C 0.618935 2.22557 -1.39452 0
M  V30 13 C -0.549665 1.71111 -0.790833 0
M  V30 14 C -1.57828 2.57888 -0.246875 0
M  V30 15 C -1.34288 3.94141 -0.12404 0
M  V30 16 C -2.28556 4.83189 0.35138 0
M  V30 17 C -3.51238 4.38924 0.725945 0
M  V30 18 C -3.79521 3.05903 0.624584 0
M  V30 19 C -2.81273 2.15865 0.13292 0
M  V30 20 S 1.36221 -1.62721 -1.67038 0
M  V30 21 C 2.30911 -2.14385 -0.237394 0
M  V30 22 C 3.55732 -1.38237 -0.0537288 0
M  V30 23 N 4.73707 -1.73377 -0.588464 0
M  V30 24 C 5.82057 -0.958216 -0.35327 0
M  V30 25 N 7.09398 -1.28976 -0.898178 0
M  V30 26 N 5.76695 0.158388 0.398808 0
M  V30 27 C 4.57294 0.503014 0.932838 0
M  V30 28 N 3.51563 -0.260298 0.698983 0
M  V30 29 N 4.39664 1.66062 1.74393 0
M  V30 30 H -4.04551 -4.87771 -0.289331 0
M  V30 31 H -4.87933 -4.79281 -1.85403 0
M  V30 32 H -5.52261 -3.81949 -0.496572 0
M  V30 33 H -3.50849 -3.48457 1.11624 0
M  V30 34 H -2.05638 -2.22599 2.5943 0
M  V30 35 H -0.617935 -0.385988 1.68388 0
M  V30 36 H -2.17227 -1.16378 -2.18898 0
M  V30 37 H 0.813554 3.29122 -1.52592 0
M  V30 38 H -0.380471 4.34797 -0.403224 0
M  V30 39 H -2.08768 5.88784 0.443004 0
M  V30 40 H -4.26933 5.07626 1.1033 0
M  V30 41 H -4.76715 2.69896 0.919691 0
M  V30 42 H -3.13872 1.15038 0.0741102 0
M  V30 43 H 1.69826 -2.01641 0.687694 0
M  V30 44 H 2.53812 -3.2451 -0.309889 0
M  V30 45 H 7.68924 -2.00936 -0.403287 0
M  V30 46 H 7.39462 -0.802387 -1.77638 0
M  V30 47 H 3.63815 2.36464 1.51844 0
M  V30 48 H 4.98033 1.87916 2.57839 0
M  V30 END ATOM
M  V30 BEGIN BOND
M  V30 1 1 1 2
M  V30 2 1 2 3
M  V30 3 2 3 4
M  V30 4 1 4 5
M  V30 5 2 5 6
M  V30 6 1 6 7
M  V30 7 2 7 8
M  V30 8 1 7 9
M  V30 9 1 9 10
M  V30 10 2 10 11
M  V30 11 1 11 12
M  V30 12 2 12 13
M  V30 13 1 13 14
M  V30 14 2 14 15
M  V30 15 1 15 16
M  V30 16 2 16 17
M  V30 17 1 17 18
M  V30 18 2 18 19
M  V30 19 1 10 20
M  V30 20 1 20 21
M  V30 21 1 21 22
M  V30 22 2 22 23
M  V30 23 1 23 24
M  V30 24 1 24 25
M  V30 25 2 24 26
M  V30 26 1 26 27
M  V30 27 2 27 28
M  V30 28 1 27 29
M  V30 29 1 8 3
M  V30 30 1 13 9
M  V30 31 1 19 14
M  V30 32 1 28 22
M  V30 33 1 1 30
M  V30 34 1 1 31
M  V30 35 1 1 32
M  V30 36 1 4 33
M  V30 37 1 5 34
M  V30 38 1 6 35
M  V30 39 1 8 36
M  V30 40 1 12 37
M  V30 41 1 15 38
M  V30 42 1 16 39
M  V30 43 1 17 40
M  V30 44 1 18 41
M  V30 45 1 19 42
M  V30 46 1 21 43
M  V30 47 1 21 44
M  V30 48 1 25 45
M  V30 49 1 25 46
M  V30 50 1 29 47
M  V30 51 1 29 48
M  V30 END BOND
M  V30 END CTAB
M  END
