
     RDKit          3D

  0  0  0  0  0  0  0  0  0  0999 V3000
M  V30 BEGIN CTAB
M  V30 COUNTS 45 47 0 0 0
M  V30 BEGIN ATOM
M  V30 1 N -4.86235 2.49557 1.27462 0
M  V30 2 C -5.87543 1.5674 1.57591 0
M  V30 3 C -5.48415 0.184173 1.96698 0
M  V30 4 N -4.72616 -0.550993 1.0049 0
M  V30 5 C -3.32223 -0.444697 0.813102 0
M  V30 6 C -2.50781 0.191201 1.71372 0
M  V30 7 C -1.14236 0.263098 1.57502 0
M  V30 8 C -0.580646 -0.332911 0.481831 0
M  V30 9 N 0.804797 -0.303495 0.269579 0
M  V30 10 N 1.40402 0.521851 -0.488673 0
M  V30 11 C 2.81263 0.401317 -0.5811 0
M  V30 12 C 3.55186 0.154525 0.541551 0
M  V30 13 C 4.92735 0.0204999 0.555439 0
M  V30 14 C 5.58359 0.150208 -0.673673 0
M  V30 15 C 4.87811 0.398676 -1.82767 0
M  V30 16 C 3.50586 0.524375 -1.79038 0
M  V30 17 S 7.32978 -0.0221284 -0.642094 0
M  V30 18 N 8.00407 1.56735 -0.375736 0
M  V30 19 O 7.80903 -0.557506 -1.9569 0
M  V30 20 O 7.76627 -0.901255 0.496534 0
M  V30 21 C -1.38387 -0.977378 -0.434497 0
M  V30 22 C -0.779062 -1.57706 -1.54921 0
M  V30 23 C -1.47488 -2.23793 -2.52132 0
M  V30 24 C -2.84059 -2.3028 -2.37289 0
M  V30 25 C -3.45859 -1.71051 -1.26784 0
M  V30 26 C -2.75106 -1.05204 -0.300966 0
M  V30 27 H -4.26228 2.74425 2.07132 0
M  V30 28 H -4.31491 2.37762 0.422987 0
M  V30 29 H -6.55969 2.03779 2.33104 0
M  V30 30 H -6.55142 1.48827 0.660685 0
M  V30 31 H -4.8962 0.260288 2.90841 0
M  V30 32 H -6.40952 -0.408554 2.24011 0
M  V30 33 H -5.28762 -1.23342 0.404597 0
M  V30 34 H -2.96193 0.651001 2.59075 0
M  V30 35 H -0.556925 0.787533 2.33309 0
M  V30 36 H 3.04854 0.0523095 1.50168 0
M  V30 37 H 5.49339 -0.175591 1.46049 0
M  V30 38 H 5.41577 0.491951 -2.75186 0
M  V30 39 H 2.9068 0.720004 -2.67231 0
M  V30 40 H 8.99074 1.50404 -0.0531811 0
M  V30 41 H 7.41176 2.026 0.380026 0
M  V30 42 H 0.289438 -1.51674 -1.64956 0
M  V30 43 H -0.959914 -2.68663 -3.3669 0
M  V30 44 H -3.45634 -2.81009 -3.10412 0
M  V30 45 H -4.52786 -1.77955 -1.19347 0
M  V30 END ATOM
M  V30 BEGIN BOND
M  V30 1 1 1 2
M  V30 2 1 2 3
M  V30 3 1 3 4
M  V30 4 1 4 5
M  V30 5 2 5 6
M  V30 6 1 6 7
M  V30 7 2 7 8
M  V30 8 1 8 9
M  V30 9 2 9 10 CFG=2
M  V30 10 1 10 11
M  V30 11 2 11 12
M  V30 12 1 12 13
M  V30 13 2 13 14
M  V30 14 1 14 15
M  V30 15 2 15 16
M  V30 16 1 14 17
M  V30 17 1 17 18
M  V30 18 2 17 19
M  V30 19 2 17 20
M  V30 20 1 8 21
M  V30 21 2 21 22
M  V30 22 1 22 23
M  V30 23 2 23 24
M  V30 24 1 24 25
M  V30 25 2 25 26
M  V30 26 1 26 5
M  V30 27 1 16 11
M  V30 28 1 26 21
M  V30 29 1 1 27
M  V30 30 1 1 28
M  V30 31 1 2 29
M  V30 32 1 2 30
M  V30 33 1 3 31
M  V30 34 1 3 32
M  V30 35 1 4 33
M  V30 36 1 6 34
M  V30 37 1 7 35
M  V30 38 1 12 36
M  V30 39 1 13 37
M  V30 40 1 15 38
M  V30 41 1 16 39
M  V30 42 1 18 40
M  V30 43 1 18 41
M  V30 44 1 22 42
M  V30 45 1 23 43
M  V30 46 1 24 44
M  V30 47 1 25 45
M  V30 END BOND
M  V30 END CTAB
M  END
