
     RDKit          3D

  0  0  0  0  0  0  0  0  0  0999 V3000
M  V30 BEGIN CTAB
M  V30 COUNTS 52 52 0 0 0
M  V30 BEGIN ATOM
M  V30 1 N -2.85444 -1.7058 1.94238 0
M  V30 2 C -3.50303 -0.471355 1.64275 0
M  V30 3 C -3.66543 -0.299443 0.0880833 0
M  V30 4 C -4.34799 1.01924 -0.0238315 0
M  V30 5 C -5.68969 1.06458 0.683046 0
M  V30 6 C -4.58227 1.59889 -1.37915 0
M  V30 7 N -2.39842 -0.46608 -0.525172 0
M  V30 8 C -1.98789 -0.534025 -1.86083 0
M  V30 9 O -2.84336 -0.455049 -2.76498 0
M  V30 10 C -0.593424 -0.695833 -2.34597 0
M  V30 11 S 0.0601067 0.979134 -2.60398 0
M  V30 12 C 0.152479 1.73993 -0.937415 0
M  V30 13 C 1.22662 0.945783 -0.196803 0
M  V30 14 O 2.41071 1.11832 -0.946732 0
M  V30 15 C 3.58315 0.516567 -0.529912 0
M  V30 16 C 4.72467 0.720311 -1.30594 0
M  V30 17 C 5.91964 0.143392 -0.935404 0
M  V30 18 C 6.01783 -0.649267 0.210565 0
M  V30 19 C 4.8913 -0.843253 0.965477 0
M  V30 20 C 3.69574 -0.261946 0.588902 0
M  V30 21 S 7.52867 -1.37925 0.684404 0
M  V30 22 O 7.21373 -2.68078 1.3706 0
M  V30 23 O 8.3764 -1.62747 -0.55292 0
M  V30 24 N 8.36254 -0.31855 1.73039 0
M  V30 25 C -4.54619 -1.45593 -0.308564 0
M  V30 26 H -2.03035 -1.53451 2.54996 0
M  V30 27 H -3.46995 -2.36267 2.51067 0
M  V30 28 H -4.5111 -0.487186 2.10453 0
M  V30 29 H -2.94909 0.354197 2.06742 0
M  V30 30 H -3.72206 1.79843 0.515496 0
M  V30 31 H -6.1357 0.0868187 0.850116 0
M  V30 32 H -5.61397 1.54994 1.70173 0
M  V30 33 H -6.44819 1.6734 0.145081 0
M  V30 34 H -5.25927 2.50106 -1.1844 0
M  V30 35 H -3.7033 2.09232 -1.83886 0
M  V30 36 H -5.19924 0.992747 -2.05697 0
M  V30 37 H -1.52525 -0.568611 0.122701 0
M  V30 38 H 0.0391639 -1.29714 -1.66876 0
M  V30 39 H -0.539756 -1.20409 -3.33004 0
M  V30 40 H 0.474006 2.78017 -1.09403 0
M  V30 41 H -0.841387 1.64332 -0.494656 0
M  V30 42 H 0.989412 -0.146939 -0.227273 0
M  V30 43 H 1.2998 1.23614 0.851481 0
M  V30 44 H 4.6478 1.34548 -2.20997 0
M  V30 45 H 6.82266 0.291717 -1.52894 0
M  V30 46 H 4.95281 -1.46216 1.86591 0
M  V30 47 H 2.83819 -0.442354 1.21225 0
M  V30 48 H 7.72173 0.43519 2.06107 0
M  V30 49 H 9.1299 0.140651 1.20313 0
M  V30 50 H -4.96812 -1.34034 -1.32602 0
M  V30 51 H -5.29036 -1.72602 0.451798 0
M  V30 52 H -3.85989 -2.35168 -0.380088 0
M  V30 END ATOM
M  V30 BEGIN BOND
M  V30 1 1 1 2
M  V30 2 1 2 3
M  V30 3 1 3 4
M  V30 4 1 4 5
M  V30 5 1 4 6
M  V30 6 1 3 7
M  V30 7 1 7 8
M  V30 8 2 8 9
M  V30 9 1 8 10
M  V30 10 1 10 11
M  V30 11 1 11 12
M  V30 12 1 12 13
M  V30 13 1 13 14
M  V30 14 1 14 15
M  V30 15 2 15 16
M  V30 16 1 16 17
M  V30 17 2 17 18
M  V30 18 1 18 19
M  V30 19 2 19 20
M  V30 20 1 18 21
M  V30 21 2 21 22
M  V30 22 2 21 23
M  V30 23 1 21 24
M  V30 24 1 3 25
M  V30 25 1 20 15
M  V30 26 1 1 26
M  V30 27 1 1 27
M  V30 28 1 2 28
M  V30 29 1 2 29
M  V30 30 1 4 30
M  V30 31 1 5 31
M  V30 32 1 5 32
M  V30 33 1 5 33
M  V30 34 1 6 34
M  V30 35 1 6 35
M  V30 36 1 6 36
M  V30 37 1 7 37
M  V30 38 1 10 38
M  V30 39 1 10 39
M  V30 40 1 12 40
M  V30 41 1 12 41
M  V30 42 1 13 42
M  V30 43 1 13 43
M  V30 44 1 16 44
M  V30 45 1 17 45
M  V30 46 1 19 46
M  V30 47 1 20 47
M  V30 48 1 24 48
M  V30 49 1 24 49
M  V30 50 1 25 50
M  V30 51 1 25 51
M  V30 52 1 25 52
M  V30 END BOND
M  V30 END CTAB
M  END
