
     RDKit          3D

  0  0  0  0  0  0  0  0  0  0999 V3000
M  V30 BEGIN CTAB
M  V30 COUNTS 31 32 0 0 0
M  V30 BEGIN ATOM
M  V30 1 C 5.35958 -0.324757 1.21781 0
M  V30 2 C 4.23889 -1.32945 0.970767 0
M  V30 3 O 4.62205 -2.51003 0.896907 0
M  V30 4 N 2.96437 -0.843329 0.858299 0
M  V30 5 C 1.73008 -0.372627 0.749373 0
M  V30 6 C 1.38496 0.69957 1.62173 0
M  V30 7 C 0.181937 1.32677 1.59661 0
M  V30 8 C -0.764268 0.919232 0.686667 0
M  V30 9 N -1.96499 1.50661 0.623537 0
M  V30 10 C -2.92076 1.14103 -0.246975 0
M  V30 11 C -4.2273 1.8364 -0.263364 0
M  V30 12 C -2.69482 0.0964116 -1.15619 0
M  V30 13 N -3.72041 -0.240241 -2.04407 0
M  V30 14 C -1.45633 -0.502163 -1.08428 0
M  V30 15 N -1.22607 -1.55336 -2.01589 0
M  V30 16 C -0.502132 -0.0914174 -0.169234 0
M  V30 17 C 0.724774 -0.732523 -0.144524 0
M  V30 18 H 6.19491 -0.774328 1.73303 0
M  V30 19 H 4.99068 0.512881 1.82321 0
M  V30 20 H 5.72649 0.10226 0.256354 0
M  V30 21 H 2.50367 -2.13403 0.762769 0
M  V30 22 H 2.13343 1.03506 2.34581 0
M  V30 23 H -0.0829956 2.14492 2.27021 0
M  V30 24 H -4.50742 2.13747 -1.31442 0
M  V30 25 H -4.11339 2.78801 0.294166 0
M  V30 26 H -5.05152 1.2307 0.191838 0
M  V30 27 H -4.30122 -1.10683 -2.02206 0
M  V30 28 H -3.97369 0.420162 -2.83891 0
M  V30 29 H -1.85534 -2.34293 -2.19878 0
M  V30 30 H -0.318267 -1.49838 -2.56172 0
M  V30 31 H 0.925069 -1.54107 -0.838677 0
M  V30 END ATOM
M  V30 BEGIN BOND
M  V30 1 1 1 2
M  V30 2 2 2 3
M  V30 3 1 2 4
M  V30 4 1 4 5
M  V30 5 2 5 6
M  V30 6 1 6 7
M  V30 7 2 7 8
M  V30 8 1 8 9
M  V30 9 2 9 10
M  V30 10 1 10 11
M  V30 11 1 10 12
M  V30 12 1 12 13
M  V30 13 2 12 14
M  V30 14 1 14 15
M  V30 15 1 14 16
M  V30 16 2 16 17
M  V30 17 1 17 5
M  V30 18 1 16 8
M  V30 19 1 1 18
M  V30 20 1 1 19
M  V30 21 1 1 20
M  V30 22 1 4 21
M  V30 23 1 6 22
M  V30 24 1 7 23
M  V30 25 1 11 24
M  V30 26 1 11 25
M  V30 27 1 11 26
M  V30 28 1 13 27
M  V30 29 1 13 28
M  V30 30 1 15 29
M  V30 31 1 15 30
M  V30 32 1 17 31
M  V30 END BOND
M  V30 END CTAB
M  END
