
     RDKit          3D

  0  0  0  0  0  0  0  0  0  0999 V3000
M  V30 BEGIN CTAB
M  V30 COUNTS 25 25 0 0 0
M  V30 BEGIN ATOM
M  V30 1 O -2.90253 0.708114 0.765336 0
M  V30 2 C -1.7463 0.347123 0.369003 0
M  V30 3 N -0.76697 1.23434 0.270932 0
M  V30 4 C -1.01995 2.60171 0.61432 0
M  V30 5 C 0.45336 0.844361 -0.149157 0
M  V30 6 N 1.50043 1.77495 -0.257622 0
M  V30 7 C 0.674043 -0.466888 -0.472255 0
M  V30 8 C -0.359112 -1.36701 -0.361645 0
M  V30 9 O -0.212891 -2.60169 -0.648595 0
M  V30 10 N -1.57259 -0.955193 0.0608694 0
M  V30 11 C -2.67204 -1.91403 0.17833 0
M  V30 12 S 2.25497 -0.983831 -1.0188 0
M  V30 13 O 2.96307 0.0678257 -1.78692 0
M  V30 14 O 2.14449 -2.21303 -1.88722 0
M  V30 15 N 3.15281 -1.44719 0.402399 0
M  V30 16 H -0.140094 3.25766 0.572527 0
M  V30 17 H -1.37921 2.6233 1.66846 0
M  V30 18 H -1.84237 2.96569 -0.0581854 0
M  V30 19 H 1.78412 2.14958 -1.19292 0
M  V30 20 H 2.05575 2.15172 0.548423 0
M  V30 21 H -3.38938 -1.56961 0.952493 0
M  V30 22 H -3.19979 -2.03148 -0.805912 0
M  V30 23 H -2.26716 -2.90038 0.485592 0
M  V30 24 H 3.93895 -0.767668 0.515416 0
M  V30 25 H 2.5484 -1.50839 1.23513 0
M  V30 END ATOM
M  V30 BEGIN BOND
M  V30 1 2 1 2
M  V30 2 1 2 3
M  V30 3 1 3 4
M  V30 4 1 3 5
M  V30 5 1 5 6
M  V30 6 2 5 7
M  V30 7 1 7 8
M  V30 8 2 8 9
M  V30 9 1 8 10
M  V30 10 1 10 11
M  V30 11 1 7 12
M  V30 12 2 12 13
M  V30 13 2 12 14
M  V30 14 1 12 15
M  V30 15 1 10 2
M  V30 16 1 4 16
M  V30 17 1 4 17
M  V30 18 1 4 18
M  V30 19 1 6 19
M  V30 20 1 6 20
M  V30 21 1 11 21
M  V30 22 1 11 22
M  V30 23 1 11 23
M  V30 24 1 15 24
M  V30 25 1 15 25
M  V30 END BOND
M  V30 END CTAB
M  END
