
     RDKit          3D

  0  0  0  0  0  0  0  0  0  0999 V3000
M  V30 BEGIN CTAB
M  V30 COUNTS 21 20 0 0 0
M  V30 BEGIN ATOM
M  V30 1 C -1.41306 -0.308834 0.247887 0 CFG=1
M  V30 2 C -1.96806 0.694365 -0.738824 0
M  V30 3 N -1.38255 -1.61486 -0.303601 0
M  V30 4 C -0.116562 0.14469 0.84763 0
M  V30 5 C 0.978982 0.371402 -0.151773 0 CFG=1
M  V30 6 C 2.20485 0.824588 0.650197 0
M  V30 7 N 1.37282 -0.824566 -0.848999 0
M  V30 8 H -2.14502 -0.340345 1.10151 0
M  V30 9 H -1.26778 1.53463 -0.861626 0
M  V30 10 H -2.93413 1.12859 -0.415489 0
M  V30 11 H -2.17403 0.174587 -1.70056 0
M  V30 12 H -1.17608 -1.71414 -1.28786 0
M  V30 13 H -1.92859 -2.33362 0.160465 0
M  V30 14 H 0.205049 -0.571073 1.60125 0
M  V30 15 H -0.302862 1.11314 1.3558 0
M  V30 16 H 0.735004 1.14814 -0.877162 0
M  V30 17 H 2.74751 -0.0713772 1.01159 0
M  V30 18 H 2.82324 1.51878 0.0739819 0
M  V30 19 H 1.87523 1.36722 1.57604 0
M  V30 20 H 2.31758 -0.61257 -1.29119 0
M  V30 21 H 1.54846 -1.62875 -0.210747 0
M  V30 END ATOM
M  V30 BEGIN BOND
M  V30 1 1 1 2
M  V30 2 1 1 3
M  V30 3 1 1 4
M  V30 4 1 4 5
M  V30 5 1 5 6
M  V30 6 1 5 7
M  V30 7 1 1 8 CFG=1
M  V30 8 1 2 9
M  V30 9 1 2 10
M  V30 10 1 2 11
M  V30 11 1 3 12
M  V30 12 1 3 13
M  V30 13 1 4 14
M  V30 14 1 4 15
M  V30 15 1 5 16 CFG=3
M  V30 16 1 6 17
M  V30 17 1 6 18
M  V30 18 1 6 19
M  V30 19 1 7 20
M  V30 20 1 7 21
M  V30 END BOND
M  V30 END CTAB
M  END
