
     RDKit          3D

  0  0  0  0  0  0  0  0  0  0999 V3000
M  V30 BEGIN CTAB
M  V30 COUNTS 34 35 0 0 0
M  V30 BEGIN ATOM
M  V30 1 N 5.1963 0.593969 -0.633063 0
M  V30 2 C 3.99092 0.243014 0.0495857 0
M  V30 3 N 3.86285 -0.072231 1.35021 0
M  V30 4 N 2.60867 -0.338364 1.62291 0
M  V30 5 C 1.84311 -0.213048 0.517948 0
M  V30 6 C 2.71999 0.156432 -0.48309 0
M  V30 7 C 0.378712 -0.423591 0.393569 0 CFG=2
M  V30 8 C 0.048973 -1.55811 -0.543633 0
M  V30 9 C -1.17724 -2.3139 -0.165438 0
M  V30 10 C -2.09049 -1.62063 0.783365 0
M  V30 11 C -2.3388 -0.182808 0.496776 0
M  V30 12 N -1.61733 0.308308 -0.662523 0
M  V30 13 C -0.330918 0.800713 -0.149087 0
M  V30 14 S -2.49079 1.59164 -1.43299 0
M  V30 15 O -3.8661 1.02967 -1.74988 0
M  V30 16 O -1.78718 1.9797 -2.68166 0
M  V30 17 N -2.64143 2.87616 -0.305936 0
M  V30 18 H 5.97043 -0.0963375 -0.681344 0
M  V30 19 H 5.26361 1.53775 -1.0649 0
M  V30 20 H 2.18824 -0.617335 2.55274 0
M  V30 21 H 2.48505 0.355557 -1.53211 0
M  V30 22 H -0.00268956 -0.713824 1.4009 0
M  V30 23 H -0.0561033 -1.14856 -1.58082 0
M  V30 24 H 0.932148 -2.22725 -0.580842 0
M  V30 25 H -0.863458 -3.28256 0.290622 0
M  V30 26 H -1.72083 -2.59223 -1.10046 0
M  V30 27 H -3.07348 -2.17357 0.760236 0
M  V30 28 H -1.71971 -1.74066 1.82334 0
M  V30 29 H -3.41769 0.00891604 0.307751 0
M  V30 30 H -2.09388 0.447694 1.40128 0
M  V30 31 H -0.486724 1.5727 0.627947 0
M  V30 32 H 0.234091 1.16895 -1.01147 0
M  V30 33 H -3.54378 2.84172 0.211213 0
M  V30 34 H -2.40444 3.80211 -0.685137 0
M  V30 END ATOM
M  V30 BEGIN BOND
M  V30 1 1 1 2
M  V30 2 2 2 3
M  V30 3 1 3 4
M  V30 4 1 4 5
M  V30 5 2 5 6
M  V30 6 1 5 7
M  V30 7 1 7 8
M  V30 8 1 8 9
M  V30 9 1 9 10
M  V30 10 1 10 11
M  V30 11 1 11 12
M  V30 12 1 12 13
M  V30 13 1 12 14
M  V30 14 2 14 15
M  V30 15 2 14 16
M  V30 16 1 14 17
M  V30 17 1 6 2
M  V30 18 1 13 7
M  V30 19 1 1 18
M  V30 20 1 1 19
M  V30 21 1 4 20
M  V30 22 1 6 21
M  V30 23 1 7 22 CFG=1
M  V30 24 1 8 23
M  V30 25 1 8 24
M  V30 26 1 9 25
M  V30 27 1 9 26
M  V30 28 1 10 27
M  V30 29 1 10 28
M  V30 30 1 11 29
M  V30 31 1 11 30
M  V30 32 1 13 31
M  V30 33 1 13 32
M  V30 34 1 17 33
M  V30 35 1 17 34
M  V30 END BOND
M  V30 END CTAB
M  END
