
     RDKit          3D

  0  0  0  0  0  0  0  0  0  0999 V3000
M  V30 BEGIN CTAB
M  V30 COUNTS 40 41 0 0 0
M  V30 BEGIN ATOM
M  V30 1 C -1.6953 -1.22579 1.3493 0
M  V30 2 C -2.40377 -0.62308 0.14269 0
M  V30 3 C -2.37182 -1.57839 -1.03397 0
M  V30 4 N -3.77878 -0.471527 0.532733 0
M  V30 5 C -4.32241 0.643674 0.782697 0
M  V30 6 N -5.69194 0.658886 1.16545 0
M  V30 7 N -3.62387 1.85291 0.637283 0
M  V30 8 C -2.40804 1.83713 0.23282 0
M  V30 9 N -1.68707 3.05953 0.0883337 0
M  V30 10 N -1.73184 0.62279 -0.148702 0
M  V30 11 C -0.462035 0.686112 -0.807723 0
M  V30 12 C 0.709003 0.169376 -0.0324462 0
M  V30 13 C 1.92688 0.35256 -0.943658 0
M  V30 14 C 3.17908 -0.114711 -0.322865 0
M  V30 15 C 3.57934 -1.43297 -0.485396 0
M  V30 16 C 4.75277 -1.90563 0.0774773 0
M  V30 17 C 5.55477 -1.06665 0.818298 0
M  V30 18 C 5.15523 0.242445 0.978699 0
M  V30 19 C 3.97357 0.719492 0.412374 0
M  V30 20 H -1.17679 -2.1496 1.03753 0
M  V30 21 H -1.03135 -0.503809 1.86131 0
M  V30 22 H -2.41837 -1.54824 2.13064 0
M  V30 23 H -2.08313 -1.11281 -1.98395 0
M  V30 24 H -1.70212 -2.43417 -0.741534 0
M  V30 25 H -3.37699 -2.04914 -1.21324 0
M  V30 26 H -6.47958 0.847422 0.522431 0
M  V30 27 H -5.90996 0.464715 2.16701 0
M  V30 28 H -0.823187 3.26024 0.647199 0
M  V30 29 H -1.9861 3.80453 -0.576962 0
M  V30 30 H -0.463512 0.104645 -1.77887 0
M  V30 31 H -0.277235 1.745 -1.15785 0
M  V30 32 H 0.864214 0.650247 0.941442 0
M  V30 33 H 0.657437 -0.923397 0.144619 0
M  V30 34 H 1.9456 1.41843 -1.23721 0
M  V30 35 H 1.68582 -0.225143 -1.86796 0
M  V30 36 H 2.93083 -2.08265 -1.07474 0
M  V30 37 H 5.06612 -2.93424 -0.0486993 0
M  V30 38 H 6.47916 -1.38719 1.27581 0
M  V30 39 H 5.78775 0.890584 1.55776 0
M  V30 40 H 3.65764 1.73843 0.534238 0
M  V30 END ATOM
M  V30 BEGIN BOND
M  V30 1 1 1 2
M  V30 2 1 2 3
M  V30 3 1 2 4
M  V30 4 2 4 5
M  V30 5 1 5 6
M  V30 6 1 5 7
M  V30 7 2 7 8
M  V30 8 1 8 9
M  V30 9 1 8 10
M  V30 10 1 10 11
M  V30 11 1 11 12
M  V30 12 1 12 13
M  V30 13 1 13 14
M  V30 14 2 14 15
M  V30 15 1 15 16
M  V30 16 2 16 17
M  V30 17 1 17 18
M  V30 18 2 18 19
M  V30 19 1 10 2
M  V30 20 1 19 14
M  V30 21 1 1 20
M  V30 22 1 1 21
M  V30 23 1 1 22
M  V30 24 1 3 23
M  V30 25 1 3 24
M  V30 26 1 3 25
M  V30 27 1 6 26
M  V30 28 1 6 27
M  V30 29 1 9 28
M  V30 30 1 9 29
M  V30 31 1 11 30
M  V30 32 1 11 31
M  V30 33 1 12 32
M  V30 34 1 12 33
M  V30 35 1 13 34
M  V30 36 1 13 35
M  V30 37 1 15 36
M  V30 38 1 16 37
M  V30 39 1 17 38
M  V30 40 1 18 39
M  V30 41 1 19 40
M  V30 END BOND
M  V30 END CTAB
M  END
