
     RDKit          3D

  0  0  0  0  0  0  0  0  0  0999 V3000
M  V30 BEGIN CTAB
M  V30 COUNTS 35 35 0 0 0
M  V30 BEGIN ATOM
M  V30 1 N 4.83769 -0.531077 1.28308 0
M  V30 2 C 3.55533 -0.0210691 0.714021 0
M  V30 3 C 3.55846 -0.28 -0.738902 0
M  V30 4 C 2.3915 0.188804 -1.50402 0
M  V30 5 N 1.10321 -0.280809 -1.19515 0
M  V30 6 C 0.273058 -0.0485338 -0.100207 0
M  V30 7 O 0.617499 0.721763 0.829563 0
M  V30 8 C -1.05531 -0.738041 -0.0426236 0
M  V30 9 C -2.15842 0.227699 0.149636 0
M  V30 10 C -3.17436 -0.0143152 1.07077 0
M  V30 11 C -4.21035 0.877718 1.26113 0
M  V30 12 C -4.27311 2.05073 0.536779 0
M  V30 13 C -3.27083 2.30384 -0.381402 0
M  V30 14 C -2.24223 1.40516 -0.561849 0
M  V30 15 N -1.2337 -1.55871 -1.19499 0
M  V30 16 C -0.985028 -1.66289 1.172 0
M  V30 17 F 4.73496 0.233442 -1.33817 0
M  V30 18 F 3.63462 -1.69739 -0.917026 0
M  V30 19 H 5.58987 -0.235342 0.62711 0
M  V30 20 H 4.91818 -0.110501 2.21792 0
M  V30 21 H 3.43275 1.00867 1.05019 0
M  V30 22 H 2.81537 -0.6982 1.24632 0
M  V30 23 H 2.56689 0.0256898 -2.62081 0
M  V30 24 H 2.39709 1.33909 -1.43828 0
M  V30 25 H 0.641846 -0.95841 -1.93367 0
M  V30 26 H -3.13723 -0.914192 1.63472 0
M  V30 27 H -5.00047 0.661199 1.9961 0
M  V30 28 H -5.09251 2.7526 0.689755 0
M  V30 29 H -3.35411 3.23628 -0.932158 0
M  V30 30 H -1.4741 1.63258 -1.2875 0
M  V30 31 H -1.39706 -0.995971 -2.05625 0
M  V30 32 H -1.99901 -2.25307 -1.04932 0
M  V30 33 H -1.83479 -2.37599 1.05269 0
M  V30 34 H -0.0108218 -2.17701 1.13889 0
M  V30 35 H -1.16487 -1.11374 2.11653 0
M  V30 END ATOM
M  V30 BEGIN BOND
M  V30 1 1 1 2
M  V30 2 1 2 3
M  V30 3 1 3 4
M  V30 4 1 4 5
M  V30 5 1 5 6
M  V30 6 2 6 7
M  V30 7 1 6 8
M  V30 8 1 8 9
M  V30 9 2 9 10
M  V30 10 1 10 11
M  V30 11 2 11 12
M  V30 12 1 12 13
M  V30 13 2 13 14
M  V30 14 1 8 15
M  V30 15 1 8 16
M  V30 16 1 3 17
M  V30 17 1 3 18
M  V30 18 1 14 9
M  V30 19 1 1 19
M  V30 20 1 1 20
M  V30 21 1 2 21
M  V30 22 1 2 22
M  V30 23 1 4 23
M  V30 24 1 4 24
M  V30 25 1 5 25
M  V30 26 1 10 26
M  V30 27 1 11 27
M  V30 28 1 12 28
M  V30 29 1 13 29
M  V30 30 1 14 30
M  V30 31 1 15 31
M  V30 32 1 15 32
M  V30 33 1 16 33
M  V30 34 1 16 34
M  V30 35 1 16 35
M  V30 END BOND
M  V30 END CTAB
M  END
