
     RDKit          3D

  0  0  0  0  0  0  0  0  0  0999 V3000
M  V30 BEGIN CTAB
M  V30 COUNTS 45 47 0 0 0
M  V30 BEGIN ATOM
M  V30 1 N 6.0011 -0.450402 1.9073 0
M  V30 2 C 4.92916 0.491496 1.64577 0
M  V30 3 C 4.56095 0.624388 0.185257 0
M  V30 4 C 3.09009 0.58081 0.615671 0
M  V30 5 C 3.54475 -0.0589934 1.90597 0
M  V30 6 C 2.25562 -0.284143 -0.259094 0
M  V30 7 C 1.08505 0.217052 -0.779483 0
M  V30 8 C 0.289107 -0.567234 -1.59582 0
M  V30 9 N -0.921348 -0.0302449 -2.12825 0
M  V30 10 C -1.39614 1.24263 -1.89859 0
M  V30 11 C -2.23267 1.64785 -0.724993 0
M  V30 12 C -3.52266 1.04974 -0.560328 0
M  V30 13 C -4.56804 1.50148 -1.40723 0
M  V30 14 C -5.8108 0.966345 -1.42927 0
M  V30 15 C -6.10529 -0.0841139 -0.586303 0
M  V30 16 C -5.11055 -0.538918 0.245092 0
M  V30 17 C -3.80681 0.024333 0.269179 0
M  V30 18 C -2.92831 -0.504219 1.24974 0
M  V30 19 F -1.77702 -1.08149 1.10899 0
M  V30 20 F -3.66469 -1.29818 2.16169 0
M  V30 21 F -2.64411 0.618093 2.11556 0
M  V30 22 N 0.712668 -1.81384 -1.84517 0
M  V30 23 C 1.85652 -2.32079 -1.34381 0
M  V30 24 N 2.61057 -1.53281 -0.552089 0
M  V30 25 N 2.25854 -3.64939 -1.64043 0
M  V30 26 H 6.89244 -0.171715 1.46174 0
M  V30 27 H 6.15757 -0.463398 2.93958 0
M  V30 28 H 5.13422 1.46475 2.13668 0
M  V30 29 H 4.79374 1.63747 -0.249576 0
M  V30 30 H 4.84456 -0.224786 -0.454767 0
M  V30 31 H 2.65183 1.56485 0.787594 0
M  V30 32 H 3.13471 0.384779 2.83428 0
M  V30 33 H 3.58355 -1.1654 1.89451 0
M  V30 34 H 0.780779 1.23428 -0.550246 0
M  V30 35 H -1.47536 -0.695641 -2.74829 0
M  V30 36 H -0.569828 2.04205 -1.93435 0
M  V30 37 H -2.01189 1.58384 -2.81789 0
M  V30 38 H -2.43825 2.75791 -0.946918 0
M  V30 39 H -1.62222 1.7901 0.197496 0
M  V30 40 H -4.33144 2.32314 -2.06364 0
M  V30 41 H -6.56588 1.36995 -2.11219 0
M  V30 42 H -7.10144 -0.496361 -0.621328 0
M  V30 43 H -5.37181 -1.36918 0.896409 0
M  V30 44 H 2.91397 -4.18874 -1.03466 0
M  V30 45 H 1.89508 -4.12734 -2.49693 0
M  V30 END ATOM
M  V30 BEGIN BOND
M  V30 1 1 1 2
M  V30 2 1 2 3
M  V30 3 1 3 4
M  V30 4 1 4 5
M  V30 5 1 4 6
M  V30 6 2 6 7
M  V30 7 1 7 8
M  V30 8 1 8 9
M  V30 9 1 9 10
M  V30 10 1 10 11
M  V30 11 1 11 12
M  V30 12 2 12 13
M  V30 13 1 13 14
M  V30 14 2 14 15
M  V30 15 1 15 16
M  V30 16 2 16 17
M  V30 17 1 17 18
M  V30 18 1 18 19
M  V30 19 1 18 20
M  V30 20 1 18 21
M  V30 21 2 8 22
M  V30 22 1 22 23
M  V30 23 2 23 24
M  V30 24 1 23 25
M  V30 25 1 5 2
M  V30 26 1 24 6
M  V30 27 1 17 12
M  V30 28 1 1 26
M  V30 29 1 1 27
M  V30 30 1 2 28
M  V30 31 1 3 29
M  V30 32 1 3 30
M  V30 33 1 4 31
M  V30 34 1 5 32
M  V30 35 1 5 33
M  V30 36 1 7 34
M  V30 37 1 9 35
M  V30 38 1 10 36
M  V30 39 1 10 37
M  V30 40 1 11 38
M  V30 41 1 11 39
M  V30 42 1 13 40
M  V30 43 1 14 41
M  V30 44 1 15 42
M  V30 45 1 16 43
M  V30 46 1 25 44
M  V30 47 1 25 45
M  V30 END BOND
M  V30 END CTAB
M  END
