
     RDKit          3D

  0  0  0  0  0  0  0  0  0  0999 V3000
M  V30 BEGIN CTAB
M  V30 COUNTS 33 33 0 0 0
M  V30 BEGIN ATOM
M  V30 1 N -2.71765 -2.08036 0.386654 0
M  V30 2 C -2.40715 -0.638948 0.43732 0
M  V30 3 C -1.01719 -0.492831 -0.0510405 0
M  V30 4 C -0.152239 -1.326 0.912518 0
M  V30 5 C 1.26221 -1.42304 0.429681 0
M  V30 6 C 1.81781 -0.187621 -0.17963 0
M  V30 7 C 0.804211 0.709187 -0.84092 0
M  V30 8 N -0.435443 0.783745 -0.0902593 0
M  V30 9 S -1.32868 2.10411 -0.615454 0
M  V30 10 O -0.533463 3.37971 -0.506159 0
M  V30 11 O -1.79539 2.03417 -2.03546 0
M  V30 12 N -2.68638 2.30563 0.470462 0
M  V30 13 C 2.59024 0.656898 0.838629 0
M  V30 14 C 2.81391 -0.599291 -1.25041 0
M  V30 15 H -2.36695 -2.51066 -0.478139 0
M  V30 16 H -3.71694 -2.26216 0.591564 0
M  V30 17 H -2.51813 -0.343146 1.49553 0
M  V30 18 H -3.17643 -0.136299 -0.170385 0
M  V30 19 H -0.909675 -0.968014 -1.04928 0
M  V30 20 H -0.553506 -2.34883 1.02461 0
M  V30 21 H -0.148515 -0.784071 1.88312 0
M  V30 22 H 1.30473 -2.3093 -0.265519 0
M  V30 23 H 1.89875 -1.70465 1.29779 0
M  V30 24 H 0.609763 0.391088 -1.88219 0
M  V30 25 H 1.22315 1.75838 -0.828945 0
M  V30 26 H -2.99101 3.29896 0.364864 0
M  V30 27 H -2.37159 2.19592 1.45904 0
M  V30 28 H 3.02562 -0.00411368 1.63587 0
M  V30 29 H 1.94112 1.42768 1.28832 0
M  V30 30 H 3.43672 1.18213 0.351021 0
M  V30 31 H 3.53764 0.222471 -1.41529 0
M  V30 32 H 3.2859 -1.56194 -0.987877 0
M  V30 33 H 2.27456 -0.768781 -2.22003 0
M  V30 END ATOM
M  V30 BEGIN BOND
M  V30 1 1 1 2
M  V30 2 1 2 3
M  V30 3 1 3 4
M  V30 4 1 4 5
M  V30 5 1 5 6
M  V30 6 1 6 7
M  V30 7 1 7 8
M  V30 8 1 8 9
M  V30 9 2 9 10
M  V30 10 2 9 11
M  V30 11 1 9 12
M  V30 12 1 6 13
M  V30 13 1 6 14
M  V30 14 1 8 3
M  V30 15 1 1 15
M  V30 16 1 1 16
M  V30 17 1 2 17
M  V30 18 1 2 18
M  V30 19 1 3 19
M  V30 20 1 4 20
M  V30 21 1 4 21
M  V30 22 1 5 22
M  V30 23 1 5 23
M  V30 24 1 7 24
M  V30 25 1 7 25
M  V30 26 1 12 26
M  V30 27 1 12 27
M  V30 28 1 13 28
M  V30 29 1 13 29
M  V30 30 1 13 30
M  V30 31 1 14 31
M  V30 32 1 14 32
M  V30 33 1 14 33
M  V30 END BOND
M  V30 END CTAB
M  END
