
     RDKit          3D

  0  0  0  0  0  0  0  0  0  0999 V3000
M  V30 BEGIN CTAB
M  V30 COUNTS 30 31 0 0 0
M  V30 BEGIN ATOM
M  V30 1 C -1.40964 1.46 1.4205 0
M  V30 2 C -1.21606 1.07537 -0.00944539 0
M  V30 3 N -2.45463 0.769696 -0.679576 0
M  V30 4 C -3.10987 -0.395346 -0.151313 0
M  V30 5 C -2.25188 -1.61546 -0.317185 0
M  V30 6 C -0.919477 -1.36577 0.311621 0
M  V30 7 C -0.278438 -0.0803143 -0.207784 0
M  V30 8 C 0.993357 0.0831381 0.531585 0
M  V30 9 N 1.1939 0.272053 1.84517 0
M  V30 10 N 2.48711 0.371072 2.1042 0
M  V30 11 C 3.16516 0.244799 0.932635 0
M  V30 12 N 2.21366 0.0666569 -0.0304595 0
M  V30 13 N 2.51472 -0.102809 -1.3826 0
M  V30 14 N 4.56088 0.288057 0.745552 0
M  V30 15 H -2.34281 2.05631 1.49772 0
M  V30 16 H -0.581686 2.15673 1.71773 0
M  V30 17 H -1.43548 0.599237 2.11261 0
M  V30 18 H -0.779665 1.96226 -0.540507 0
M  V30 19 H -2.27375 0.719469 -1.68652 0
M  V30 20 H -3.30123 -0.250866 0.927351 0
M  V30 21 H -4.07334 -0.514139 -0.668095 0
M  V30 22 H -2.09244 -1.79277 -1.39986 0
M  V30 23 H -2.70927 -2.48357 0.170532 0
M  V30 24 H -0.949475 -1.35028 1.419 0
M  V30 25 H -0.225692 -2.1973 0.0125691 0
M  V30 26 H -0.13325 -0.220052 -1.28411 0
M  V30 27 H 2.72106 -1.04854 -1.79955 0
M  V30 28 H 2.55371 0.6917 -2.05939 0
M  V30 29 H 5.13349 0.964336 1.26781 0
M  V30 30 H 5.00105 -0.363662 0.0813273 0
M  V30 END ATOM
M  V30 BEGIN BOND
M  V30 1 1 1 2
M  V30 2 1 2 3
M  V30 3 1 3 4
M  V30 4 1 4 5
M  V30 5 1 5 6
M  V30 6 1 6 7
M  V30 7 1 7 8
M  V30 8 2 8 9
M  V30 9 1 9 10
M  V30 10 2 10 11
M  V30 11 1 11 12
M  V30 12 1 12 13
M  V30 13 1 11 14
M  V30 14 1 7 2
M  V30 15 1 12 8
M  V30 16 1 1 15
M  V30 17 1 1 16
M  V30 18 1 1 17
M  V30 19 1 2 18
M  V30 20 1 3 19
M  V30 21 1 4 20
M  V30 22 1 4 21
M  V30 23 1 5 22
M  V30 24 1 5 23
M  V30 25 1 6 24
M  V30 26 1 6 25
M  V30 27 1 7 26
M  V30 28 1 13 27
M  V30 29 1 13 28
M  V30 30 1 14 29
M  V30 31 1 14 30
M  V30 END BOND
M  V30 END CTAB
M  END
