
     RDKit          3D

  0  0  0  0  0  0  0  0  0  0999 V3000
M  V30 BEGIN CTAB
M  V30 COUNTS 45 47 0 0 0
M  V30 BEGIN ATOM
M  V30 1 C 5.79022 1.76145 -2.36249 0
M  V30 2 O 4.73268 1.00616 -1.81023 0
M  V30 3 C 4.06015 1.45326 -0.673761 0
M  V30 4 C 4.428 2.63837 -0.0852115 0
M  V30 5 C 3.75037 3.05427 1.0309 0
M  V30 6 C 2.72384 2.29894 1.54884 0
M  V30 7 C 2.31645 1.08618 0.981281 0
M  V30 8 C 3.01329 0.700192 -0.130882 0
M  V30 9 N 1.26361 0.394766 1.59978 0
M  V30 10 C 0.576703 -0.745999 1.15669 0
M  V30 11 O 0.868086 -1.2915 0.0737833 0
M  V30 12 C -0.526674 -1.36947 1.93752 0
M  V30 13 C -1.06443 -2.54573 1.22441 0
M  V30 14 C -1.55113 -2.45304 -0.0805168 0
M  V30 15 C -2.05785 -3.50847 -0.767137 0
M  V30 16 C -2.0942 -4.74131 -0.141734 0
M  V30 17 C -1.6234 -4.87476 1.14562 0
M  V30 18 C -1.11174 -3.79548 1.83116 0
M  V30 19 S -1.78048 -0.195179 2.46389 0
M  V30 20 C -2.72201 0.515695 1.16184 0
M  V30 21 N -3.85506 -0.0598185 0.740325 0
M  V30 22 C -4.59273 0.482967 -0.268497 0
M  V30 23 N -5.79737 -0.103446 -0.736161 0
M  V30 24 N -4.16263 1.61934 -0.843309 0
M  V30 25 C -3.02102 2.21968 -0.434998 0
M  V30 26 N -2.32411 1.64594 0.566913 0
M  V30 27 N -2.5738 3.42017 -1.04808 0
M  V30 28 H 6.38614 1.11228 -3.0636 0
M  V30 29 H 5.46769 2.7025 -2.83356 0
M  V30 30 H 6.52641 2.02398 -1.55232 0
M  V30 31 H 5.25198 3.22947 -0.51406 0
M  V30 32 H 4.03916 3.99314 1.50028 0
M  V30 33 H 2.2005 2.63934 2.42565 0
M  V30 34 H 2.76544 -0.215242 -0.616831 0
M  V30 35 H 0.906301 0.759154 2.55287 0
M  V30 36 H -0.0533954 -1.75171 2.89035 0
M  V30 37 H -1.51062 -1.47717 -0.556904 0
M  V30 38 H -2.41246 -3.351 -1.76982 0
M  V30 39 H -2.5045 -5.56746 -0.713678 0
M  V30 40 H -1.66068 -5.83364 1.60935 0
M  V30 41 H -0.739211 -3.91817 2.8604 0
M  V30 42 H -6.42117 -0.572327 -0.0250653 0
M  V30 43 H -6.12255 -0.115603 -1.70584 0
M  V30 44 H -1.88234 3.99608 -0.526768 0
M  V30 45 H -2.90145 3.73317 -1.9679 0
M  V30 END ATOM
M  V30 BEGIN BOND
M  V30 1 1 1 2
M  V30 2 1 2 3
M  V30 3 2 3 4
M  V30 4 1 4 5
M  V30 5 2 5 6
M  V30 6 1 6 7
M  V30 7 2 7 8
M  V30 8 1 7 9
M  V30 9 1 9 10
M  V30 10 2 10 11
M  V30 11 1 10 12
M  V30 12 1 12 13
M  V30 13 2 13 14
M  V30 14 1 14 15
M  V30 15 2 15 16
M  V30 16 1 16 17
M  V30 17 2 17 18
M  V30 18 1 12 19
M  V30 19 1 19 20
M  V30 20 2 20 21
M  V30 21 1 21 22
M  V30 22 1 22 23
M  V30 23 2 22 24
M  V30 24 1 24 25
M  V30 25 2 25 26
M  V30 26 1 25 27
M  V30 27 1 8 3
M  V30 28 1 18 13
M  V30 29 1 26 20
M  V30 30 1 1 28
M  V30 31 1 1 29
M  V30 32 1 1 30
M  V30 33 1 4 31
M  V30 34 1 5 32
M  V30 35 1 6 33
M  V30 36 1 8 34
M  V30 37 1 9 35
M  V30 38 1 12 36
M  V30 39 1 14 37
M  V30 40 1 15 38
M  V30 41 1 16 39
M  V30 42 1 17 40
M  V30 43 1 18 41
M  V30 44 1 23 42
M  V30 45 1 23 43
M  V30 46 1 27 44
M  V30 47 1 27 45
M  V30 END BOND
M  V30 END CTAB
M  END
