
     RDKit          3D

  0  0  0  0  0  0  0  0  0  0999 V3000
M  V30 BEGIN CTAB
M  V30 COUNTS 58 60 0 0 0
M  V30 BEGIN ATOM
M  V30 1 N -10.3536 0.189091 -0.826334 0
M  V30 2 C -8.9514 -0.101613 -0.680229 0
M  V30 3 N -8.52451 -1.31834 -0.301725 0
M  V30 4 C -7.20458 -1.58599 -0.165926 0
M  V30 5 N -6.79894 -2.90529 0.242063 0
M  V30 6 C -6.25427 -0.620478 -0.410897 0
M  V30 7 N -4.9227 -0.873365 -0.278826 0
M  V30 8 C -4.00162 0.0708983 -0.518922 0
M  V30 9 C -2.54043 -0.104772 -0.401082 0
M  V30 10 C -1.99577 0.237301 0.96324 0 CFG=1
M  V30 11 C -2.63709 -0.653962 1.98199 0
M  V30 12 C -2.40076 -2.07385 1.74384 0
M  V30 13 C -2.22525 -3.26352 1.55989 0
M  V30 14 C -0.516467 0.178124 1.01008 0
M  V30 15 C 0.230176 -0.794148 0.4187 0
M  V30 16 C 1.5995 -0.777795 0.521926 0
M  V30 17 C 2.30882 0.179068 1.20127 0
M  V30 18 C 1.53934 1.17895 1.80891 0
M  V30 19 C 0.166744 1.16926 1.71001 0
M  V30 20 C 3.76072 0.196235 1.31111 0
M  V30 21 O 4.30391 -0.398259 2.26819 0
M  V30 22 N 4.565 0.860574 0.374509 0
M  V30 23 C 6.03082 0.898557 0.458073 0
M  V30 24 C 6.63747 0.291298 -0.756056 0
M  V30 25 C 8.13725 0.283995 -0.732316 0
M  V30 26 C 8.65671 -0.390615 -1.98357 0
M  V30 27 O 10.0264 -0.498415 -2.16325 0
M  V30 28 O 7.85147 -0.833086 -2.82254 0
M  V30 29 C 6.36728 2.32016 0.671661 0
M  V30 30 O 7.65222 2.73752 0.884192 0
M  V30 31 O 5.46468 3.2317 0.670766 0
M  V30 32 C -4.47014 1.32164 -0.909501 0
M  V30 33 N -5.78284 1.58109 -1.04256 0
M  V30 34 C -6.6985 0.629146 -0.799991 0
M  V30 35 N -8.01993 0.840871 -0.919291 0
M  V30 36 H -10.7806 0.112357 -1.7599 0
M  V30 37 H -10.863 0.46475 0.0330111 0
M  V30 38 H -6.5054 -3.06589 1.22492 0
M  V30 39 H -6.79367 -3.6946 -0.42101 0
M  V30 40 H -2.23182 -1.14867 -0.691323 0
M  V30 41 H -1.98878 0.537277 -1.14895 0
M  V30 42 H -2.32644 1.28403 1.26136 0
M  V30 43 H -2.34213 -0.378464 3.02631 0
M  V30 44 H -3.73685 -0.494593 1.95281 0
M  V30 45 H -2.05908 -4.30345 1.39642 0
M  V30 46 H -0.243012 -1.58741 -0.144039 0
M  V30 47 H 2.16581 -1.57663 0.0323404 0
M  V30 48 H 2.06275 1.95543 2.35669 0
M  V30 49 H -0.363127 1.97369 2.20469 0
M  V30 50 H 4.13105 1.35617 -0.42279 0
M  V30 51 H 6.29407 0.31255 1.3741 0
M  V30 52 H 6.30799 0.781269 -1.70137 0
M  V30 53 H 6.31234 -0.785973 -0.827001 0
M  V30 54 H 8.51785 1.34118 -0.748151 0
M  V30 55 H 8.57279 -0.265014 0.119947 0
M  V30 56 H 10.5693 0.28369 -2.54436 0
M  V30 57 H 8.06018 3.58604 0.478731 0
M  V30 58 H -3.75989 2.11029 -1.11268 0
M  V30 END ATOM
M  V30 BEGIN BOND
M  V30 1 1 1 2
M  V30 2 2 2 3
M  V30 3 1 3 4
M  V30 4 1 4 5
M  V30 5 2 4 6
M  V30 6 1 6 7
M  V30 7 2 7 8
M  V30 8 1 8 9
M  V30 9 1 9 10
M  V30 10 1 10 11
M  V30 11 1 11 12
M  V30 12 3 12 13
M  V30 13 1 10 14
M  V30 14 2 14 15
M  V30 15 1 15 16
M  V30 16 2 16 17
M  V30 17 1 17 18
M  V30 18 2 18 19
M  V30 19 1 17 20
M  V30 20 2 20 21
M  V30 21 1 20 22
M  V30 22 1 22 23
M  V30 23 1 23 24
M  V30 24 1 24 25
M  V30 25 1 25 26
M  V30 26 1 26 27
M  V30 27 2 26 28
M  V30 28 1 23 29
M  V30 29 1 29 30
M  V30 30 2 29 31
M  V30 31 1 8 32
M  V30 32 2 32 33
M  V30 33 1 33 34
M  V30 34 2 34 35
M  V30 35 1 35 2
M  V30 36 1 34 6
M  V30 37 1 19 14
M  V30 38 1 1 36
M  V30 39 1 1 37
M  V30 40 1 5 38
M  V30 41 1 5 39
M  V30 42 1 9 40
M  V30 43 1 9 41
M  V30 44 1 10 42 CFG=1
M  V30 45 1 11 43
M  V30 46 1 11 44
M  V30 47 1 13 45
M  V30 48 1 15 46
M  V30 49 1 16 47
M  V30 50 1 18 48
M  V30 51 1 19 49
M  V30 52 1 22 50
M  V30 53 1 23 51
M  V30 54 1 24 52
M  V30 55 1 24 53
M  V30 56 1 25 54
M  V30 57 1 25 55
M  V30 58 1 27 56
M  V30 59 1 30 57
M  V30 60 1 32 58
M  V30 END BOND
M  V30 END CTAB
M  END
