
     RDKit          3D

  0  0  0  0  0  0  0  0  0  0999 V3000
M  V30 BEGIN CTAB
M  V30 COUNTS 38 39 0 0 0
M  V30 BEGIN ATOM
M  V30 1 C -3.78834 -2.92891 -0.962425 0
M  V30 2 O -4.13881 -1.63452 -0.58536 0
M  V30 3 C -3.22056 -0.625839 -0.306101 0
M  V30 4 C -1.84357 -0.855039 -0.388957 0
M  V30 5 C -0.951219 0.157178 -0.108365 0
M  V30 6 C -1.48398 1.37653 0.24932 0
M  V30 7 C -2.82542 1.62074 0.336065 0
M  V30 8 C -3.72364 0.607083 0.0551282 0
M  V30 9 O -5.09633 0.844333 0.140254 0
M  V30 10 C -5.55518 2.13 0.516146 0
M  V30 11 C 0.493782 -0.0633217 -0.189529 0
M  V30 12 N 1.35784 0.836634 0.0591652 0
M  V30 13 N 2.75056 0.624358 -0.0189824 0
M  V30 14 C 3.51192 0.531984 0.991653 0
M  V30 15 C 4.95046 0.313117 0.928302 0
M  V30 16 N 5.82841 0.203095 1.93838 0
M  V30 17 O 7.02039 0.0115904 1.43272 0
M  V30 18 N 6.95726 -0.00835002 0.119287 0
M  V30 19 C 5.67732 0.177527 -0.21803 0
M  V30 20 N 5.15178 0.227344 -1.53736 0
M  V30 21 N 2.92283 0.650036 2.28242 0
M  V30 22 C 0.991727 -1.4093 -0.583438 0
M  V30 23 H -3.53163 -2.93115 -2.0419 0
M  V30 24 H -4.68059 -3.58602 -0.760113 0
M  V30 25 H -2.96096 -3.30817 -0.329687 0
M  V30 26 H -1.52051 -1.83941 -0.676376 0
M  V30 27 H -0.800494 2.18229 0.473015 0
M  V30 28 H -3.21248 2.57906 0.616795 0
M  V30 29 H -6.64318 2.14992 0.599027 0
M  V30 30 H -5.2429 2.82585 -0.300654 0
M  V30 31 H -5.06909 2.48346 1.4582 0
M  V30 32 H 5.28498 1.09207 -2.13658 0
M  V30 33 H 4.62436 -0.549625 -1.98143 0
M  V30 34 H 3.03421 1.5679 2.76214 0
M  V30 35 H 2.41879 -0.166559 2.68045 0
M  V30 36 H 0.381437 -1.82606 -1.41283 0
M  V30 37 H 0.862069 -2.06347 0.302143 0
M  V30 38 H 2.06878 -1.39636 -0.828169 0
M  V30 END ATOM
M  V30 BEGIN BOND
M  V30 1 1 1 2
M  V30 2 1 2 3
M  V30 3 2 3 4
M  V30 4 1 4 5
M  V30 5 2 5 6
M  V30 6 1 6 7
M  V30 7 2 7 8
M  V30 8 1 8 9
M  V30 9 1 9 10
M  V30 10 1 5 11
M  V30 11 2 11 12
M  V30 12 1 12 13
M  V30 13 2 13 14
M  V30 14 1 14 15
M  V30 15 2 15 16
M  V30 16 1 16 17
M  V30 17 1 17 18
M  V30 18 2 18 19
M  V30 19 1 19 20
M  V30 20 1 14 21
M  V30 21 1 11 22
M  V30 22 1 8 3
M  V30 23 1 19 15
M  V30 24 1 1 23
M  V30 25 1 1 24
M  V30 26 1 1 25
M  V30 27 1 4 26
M  V30 28 1 6 27
M  V30 29 1 7 28
M  V30 30 1 10 29
M  V30 31 1 10 30
M  V30 32 1 10 31
M  V30 33 1 20 32
M  V30 34 1 20 33
M  V30 35 1 21 34
M  V30 36 1 21 35
M  V30 37 1 22 36
M  V30 38 1 22 37
M  V30 39 1 22 38
M  V30 END BOND
M  V30 END CTAB
M  END
