
     RDKit          3D

  0  0  0  0  0  0  0  0  0  0999 V3000
M  V30 BEGIN CTAB
M  V30 COUNTS 46 48 0 0 0
M  V30 BEGIN ATOM
M  V30 1 O 0.86113 -0.635339 0.568568 0
M  V30 2 C 1.35566 -0.0411666 1.55702 0
M  V30 3 N 2.67305 0.356312 1.73651 0
M  V30 4 C 3.71836 0.142143 0.797233 0
M  V30 5 C 4.92021 0.83191 0.960305 0
M  V30 6 C 5.95974 0.658317 0.10896 0
M  V30 7 C 5.90702 -0.209292 -0.977095 0
M  V30 8 C 4.71633 -0.879818 -1.12162 0
M  V30 9 C 3.63185 -0.718748 -0.258831 0
M  V30 10 S 7.25503 -0.424521 -2.06893 0
M  V30 11 O 7.17652 -1.81074 -2.6596 0
M  V30 12 O 8.56483 -0.195084 -1.38531 0
M  V30 13 N 7.10211 0.735748 -3.36424 0
M  V30 14 C 0.391381 0.280972 2.69471 0
M  V30 15 C -0.991338 -0.194781 2.38493 0
M  V30 16 O -1.47818 0.41814 1.22118 0
M  V30 17 C -2.7319 0.171591 0.690559 0
M  V30 18 C -3.59988 -0.711824 1.28639 0
M  V30 19 C -4.84206 -0.925931 0.719878 0
M  V30 20 C -5.25912 -0.293125 -0.422667 0
M  V30 21 C -4.36975 0.591326 -1.00516 0
M  V30 22 C -3.12062 0.826929 -0.462908 0
M  V30 23 N -2.2285 1.72897 -1.0673 0
M  V30 24 C -6.60602 -0.550408 -1.00299 0
M  V30 25 C -7.47968 -1.43127 -0.414592 0
M  V30 26 S -8.82375 -1.33843 -1.46609 0
M  V30 27 C -8.20079 -0.200809 -2.57419 0
M  V30 28 N -7.00348 0.046829 -2.0839 0
M  V30 29 H 2.90672 0.853992 2.64424 0
M  V30 30 H 4.99898 1.51151 1.78839 0
M  V30 31 H 6.90629 1.2002 0.23564 0
M  V30 32 H 4.63659 -1.56689 -1.95871 0
M  V30 33 H 2.74321 -1.30712 -0.459916 0
M  V30 34 H 6.88333 1.68511 -2.93771 0
M  V30 35 H 8.05193 0.886418 -3.81926 0
M  V30 36 H 0.816701 -0.176648 3.60377 0
M  V30 37 H 0.425722 1.37848 2.82144 0
M  V30 38 H -0.985434 -1.28918 2.20034 0
M  V30 39 H -1.61702 -0.0183331 3.28128 0
M  V30 40 H -3.29423 -1.22215 2.18666 0
M  V30 41 H -5.50255 -1.63301 1.22036 0
M  V30 42 H -4.69554 1.10169 -1.91934 0
M  V30 43 H -1.84471 1.57119 -2.00754 0
M  V30 44 H -1.9401 2.58845 -0.555023 0
M  V30 45 H -7.33141 -2.03057 0.497426 0
M  V30 46 H -8.65666 0.238965 -3.48257 0
M  V30 END ATOM
M  V30 BEGIN BOND
M  V30 1 2 1 2
M  V30 2 1 2 3
M  V30 3 1 3 4
M  V30 4 2 4 5
M  V30 5 1 5 6
M  V30 6 2 6 7
M  V30 7 1 7 8
M  V30 8 2 8 9
M  V30 9 1 7 10
M  V30 10 2 10 11
M  V30 11 2 10 12
M  V30 12 1 10 13
M  V30 13 1 2 14
M  V30 14 1 14 15
M  V30 15 1 15 16
M  V30 16 1 16 17
M  V30 17 2 17 18
M  V30 18 1 18 19
M  V30 19 2 19 20
M  V30 20 1 20 21
M  V30 21 2 21 22
M  V30 22 1 22 23
M  V30 23 1 20 24
M  V30 24 2 24 25
M  V30 25 1 25 26
M  V30 26 1 26 27
M  V30 27 2 27 28
M  V30 28 1 9 4
M  V30 29 1 22 17
M  V30 30 1 28 24
M  V30 31 1 3 29
M  V30 32 1 5 30
M  V30 33 1 6 31
M  V30 34 1 8 32
M  V30 35 1 9 33
M  V30 36 1 13 34
M  V30 37 1 13 35
M  V30 38 1 14 36
M  V30 39 1 14 37
M  V30 40 1 15 38
M  V30 41 1 15 39
M  V30 42 1 18 40
M  V30 43 1 19 41
M  V30 44 1 21 42
M  V30 45 1 23 43
M  V30 46 1 23 44
M  V30 47 1 25 45
M  V30 48 1 27 46
M  V30 END BOND
M  V30 END CTAB
M  END
