
     RDKit          3D

  0  0  0  0  0  0  0  0  0  0999 V3000
M  V30 BEGIN CTAB
M  V30 COUNTS 56 58 0 0 0
M  V30 BEGIN ATOM
M  V30 1 C -2.57795 -0.121665 -1.77355 0
M  V30 2 C -3.60425 -0.609312 -0.750601 0
M  V30 3 C -3.19489 -2.05522 -0.420534 0
M  V30 4 N -4.92615 -0.587865 -1.27581 0
M  V30 5 C -5.90446 -0.00403082 -0.701958 0
M  V30 6 N -7.18672 -0.0732567 -1.36064 0
M  V30 7 N -5.74513 0.695991 0.523916 0
M  V30 8 C -4.59947 0.751788 1.07446 0
M  V30 9 N -4.39078 1.4517 2.32317 0
M  V30 10 N -3.48564 0.132987 0.458792 0
M  V30 11 C -2.19841 0.289062 1.11012 0
M  V30 12 C -1.83393 -0.646953 2.03535 0
M  V30 13 C -0.605896 -0.540161 2.69287 0
M  V30 14 C 0.219701 0.523783 2.38649 0
M  V30 15 C -0.126822 1.48202 1.45524 0
M  V30 16 C 0.762959 2.61649 1.14075 0
M  V30 17 C 1.7096 2.35404 0.00545757 0
M  V30 18 C 2.64165 1.16792 0.288949 0
M  V30 19 C 3.57909 0.946716 -0.857424 0
M  V30 20 C 4.51967 -0.155835 -0.731972 0
M  V30 21 C 4.27712 -1.44825 -1.11264 0
M  V30 22 C 5.24668 -2.45029 -0.905154 0
M  V30 23 C 6.44828 -2.18652 -0.328768 0
M  V30 24 C 6.70801 -0.892472 0.058105 0
M  V30 25 Cl 8.24516 -0.540352 0.798146 0
M  V30 26 C 5.77693 0.095815 -0.134879 0
M  V30 27 S 2.80092 -1.88505 -1.89729 0
M  V30 28 F 2.92777 -3.51586 -2.41092 0
M  V30 29 O 2.48122 -1.09688 -3.10875 0
M  V30 30 O 1.62217 -1.9557 -0.932008 0
M  V30 31 C -1.3627 1.3328 0.82486 0
M  V30 32 H -1.55797 -0.214967 -1.35738 0
M  V30 33 H -2.78339 0.933318 -2.01652 0
M  V30 34 H -2.65922 -0.735321 -2.69135 0
M  V30 35 H -2.1073 -2.14251 -0.272431 0
M  V30 36 H -3.54548 -2.73187 -1.24976 0
M  V30 37 H -3.74746 -2.38469 0.471702 0
M  V30 38 H -8.05146 -0.368702 -0.850361 0
M  V30 39 H -7.24402 0.178193 -2.36661 0
M  V30 40 H -4.44881 2.47959 2.33045 0
M  V30 41 H -4.19117 0.895871 3.16197 0
M  V30 42 H -2.47199 -1.47446 2.2772 0
M  V30 43 H -0.352205 -1.28539 3.40758 0
M  V30 44 H 1.17595 0.630347 2.88061 0
M  V30 45 H 1.35199 2.94673 2.02136 0
M  V30 46 H 0.101161 3.47069 0.836188 0
M  V30 47 H 2.27803 3.2535 -0.281895 0
M  V30 48 H 1.06661 2.11636 -0.892513 0
M  V30 49 H 3.21688 1.46847 1.202 0
M  V30 50 H 2.00998 0.302511 0.454642 0
M  V30 51 H 3.03341 0.943156 -1.84187 0
M  V30 52 H 4.18307 1.90592 -0.927537 0
M  V30 53 H 5.03284 -3.47039 -1.21384 0
M  V30 54 H 7.18039 -2.97502 -0.178568 0
M  V30 55 H 5.97329 1.12382 0.168535 0
M  V30 56 H -1.66682 2.0594 0.093707 0
M  V30 END ATOM
M  V30 BEGIN BOND
M  V30 1 1 1 2
M  V30 2 1 2 3
M  V30 3 1 2 4
M  V30 4 2 4 5
M  V30 5 1 5 6
M  V30 6 1 5 7
M  V30 7 2 7 8
M  V30 8 1 8 9
M  V30 9 1 8 10
M  V30 10 1 10 11
M  V30 11 2 11 12
M  V30 12 1 12 13
M  V30 13 2 13 14
M  V30 14 1 14 15
M  V30 15 1 15 16
M  V30 16 1 16 17
M  V30 17 1 17 18
M  V30 18 1 18 19
M  V30 19 1 19 20
M  V30 20 2 20 21
M  V30 21 1 21 22
M  V30 22 2 22 23
M  V30 23 1 23 24
M  V30 24 1 24 25
M  V30 25 2 24 26
M  V30 26 1 21 27
M  V30 27 1 27 28
M  V30 28 2 27 29
M  V30 29 2 27 30
M  V30 30 2 15 31
M  V30 31 1 10 2
M  V30 32 1 31 11
M  V30 33 1 26 20
M  V30 34 1 1 32
M  V30 35 1 1 33
M  V30 36 1 1 34
M  V30 37 1 3 35
M  V30 38 1 3 36
M  V30 39 1 3 37
M  V30 40 1 6 38
M  V30 41 1 6 39
M  V30 42 1 9 40
M  V30 43 1 9 41
M  V30 44 1 12 42
M  V30 45 1 13 43
M  V30 46 1 14 44
M  V30 47 1 16 45
M  V30 48 1 16 46
M  V30 49 1 17 47
M  V30 50 1 17 48
M  V30 51 1 18 49
M  V30 52 1 18 50
M  V30 53 1 19 51
M  V30 54 1 19 52
M  V30 55 1 22 53
M  V30 56 1 23 54
M  V30 57 1 26 55
M  V30 58 1 31 56
M  V30 END BOND
M  V30 END CTAB
M  END
