
     RDKit          3D

  0  0  0  0  0  0  0  0  0  0999 V3000
M  V30 BEGIN CTAB
M  V30 COUNTS 54 57 0 0 0
M  V30 BEGIN ATOM
M  V30 1 C 8.82809 -0.0215469 -0.845551 0
M  V30 2 C 7.54996 -0.357063 -0.106907 0
M  V30 3 O 7.6392 -1.0157 0.936825 0
M  V30 4 N 6.3484 0.0916208 -0.639562 0
M  V30 5 C 5.07596 -0.151354 -0.0676621 0
M  V30 6 C 4.02043 0.698733 -0.426435 0
M  V30 7 C 2.76789 0.526828 0.0533098 0
M  V30 8 C 2.47503 -0.48405 0.910055 0
M  V30 9 C 3.49365 -1.35315 1.29314 0
M  V30 10 C 4.77221 -1.16566 0.793673 0
M  V30 11 C 1.15694 -0.754151 1.49158 0
M  V30 12 N 0.0328971 -0.123842 0.921947 0
M  V30 13 C -0.230908 -0.457629 -0.399377 0
M  V30 14 C -0.941356 0.607691 -1.20384 0
M  V30 15 C -2.20935 1.10856 -0.640666 0
M  V30 16 C -2.57029 0.678851 0.733325 0
M  V30 17 C -1.68979 1.21642 1.82715 0
M  V30 18 C -0.219716 1.14752 1.43871 0
M  V30 19 C -3.97601 1.1862 1.04185 0
M  V30 20 C -4.80247 0.202229 0.296779 0
M  V30 21 C -4.01682 -0.928338 0.175499 0
M  V30 22 O -2.77683 -0.700506 0.792033 0
M  V30 23 N -4.56101 -1.98117 -0.477672 0
M  V30 24 C -5.81579 -1.91105 -0.980832 0
M  V30 25 N -6.57789 -0.800056 -0.857441 0
M  V30 26 C -6.06893 0.270636 -0.212017 0
M  V30 27 N -6.81749 1.47934 -0.0436648 0
M  V30 28 N -6.39021 -3.02143 -1.66991 0
M  V30 29 H 8.69478 0.890808 -1.46429 0
M  V30 30 H 9.62584 0.198114 -0.116591 0
M  V30 31 H 9.05679 -0.84617 -1.52269 0
M  V30 32 H 6.36372 0.664885 -1.55514 0
M  V30 33 H 4.24222 1.50264 -1.10364 0
M  V30 34 H 1.98593 1.21482 -0.259381 0
M  V30 35 H 3.32746 -2.17719 1.97129 0
M  V30 36 H 5.5573 -1.86776 1.09171 0
M  V30 37 H 1.26319 -0.547137 2.59641 0
M  V30 38 H 1.04822 -1.89428 1.49013 0
M  V30 39 H -0.792451 -1.42967 -0.438886 0
M  V30 40 H 0.699885 -0.678829 -0.961682 0
M  V30 41 H -1.06443 0.171845 -2.23849 0
M  V30 42 H -0.1854 1.43207 -1.35373 0
M  V30 43 H -2.28891 2.22879 -0.753827 0
M  V30 44 H -3.04083 0.735743 -1.31156 0
M  V30 45 H -1.82776 0.632088 2.74571 0
M  V30 46 H -1.90473 2.28021 2.05534 0
M  V30 47 H 0.341285 1.25593 2.41336 0
M  V30 48 H 0.0800368 2.02874 0.842454 0
M  V30 49 H -4.13966 0.986712 2.12446 0
M  V30 50 H -4.13542 2.21779 0.742872 0
M  V30 51 H -6.41421 2.39148 -0.358457 0
M  V30 52 H -7.76279 1.4998 0.384805 0
M  V30 53 H -6.19501 -3.22019 -2.66632 0
M  V30 54 H -7.03083 -3.65918 -1.1555 0
M  V30 END ATOM
M  V30 BEGIN BOND
M  V30 1 1 1 2
M  V30 2 2 2 3
M  V30 3 1 2 4
M  V30 4 1 4 5
M  V30 5 2 5 6
M  V30 6 1 6 7
M  V30 7 2 7 8
M  V30 8 1 8 9
M  V30 9 2 9 10
M  V30 10 1 8 11
M  V30 11 1 11 12
M  V30 12 1 12 13
M  V30 13 1 13 14
M  V30 14 1 14 15
M  V30 15 1 15 16
M  V30 16 1 16 17
M  V30 17 1 17 18
M  V30 18 1 16 19
M  V30 19 1 19 20
M  V30 20 2 20 21
M  V30 21 1 21 22
M  V30 22 1 21 23
M  V30 23 2 23 24
M  V30 24 1 24 25
M  V30 25 2 25 26
M  V30 26 1 26 27
M  V30 27 1 24 28
M  V30 28 1 10 5
M  V30 29 1 18 12
M  V30 30 1 26 20
M  V30 31 1 22 16
M  V30 32 1 1 29
M  V30 33 1 1 30
M  V30 34 1 1 31
M  V30 35 1 4 32
M  V30 36 1 6 33
M  V30 37 1 7 34
M  V30 38 1 9 35
M  V30 39 1 10 36
M  V30 40 1 11 37
M  V30 41 1 11 38
M  V30 42 1 13 39
M  V30 43 1 13 40
M  V30 44 1 14 41
M  V30 45 1 14 42
M  V30 46 1 15 43
M  V30 47 1 15 44
M  V30 48 1 17 45
M  V30 49 1 17 46
M  V30 50 1 18 47
M  V30 51 1 18 48
M  V30 52 1 19 49
M  V30 53 1 19 50
M  V30 54 1 27 51
M  V30 55 1 27 52
M  V30 56 1 28 53
M  V30 57 1 28 54
M  V30 END BOND
M  V30 END CTAB
M  END
