
     RDKit          3D

  0  0  0  0  0  0  0  0  0  0999 V3000
M  V30 BEGIN CTAB
M  V30 COUNTS 40 39 0 0 0
M  V30 BEGIN ATOM
M  V30 1 N -5.53624 1.67691 -0.956365 0
M  V30 2 C -4.17007 1.35448 -0.550694 0
M  V30 3 C -3.6805 0.233649 -1.41911 0
M  V30 4 C -2.27944 -0.193512 -1.1005 0
M  V30 5 C -2.20297 -0.666887 0.334165 0
M  V30 6 C -0.802887 -1.10996 0.702712 0
M  V30 7 C -0.849786 -1.54635 2.11137 0
M  V30 8 O -0.108568 -0.998499 2.94858 0
M  V30 9 O -1.70235 -2.55033 2.50852 0
M  V30 10 N 0.162323 -0.0509056 0.535781 0
M  V30 11 C 1.25332 -0.24079 -0.337193 0
M  V30 12 O 1.34548 -1.33443 -0.942571 0
M  V30 13 C 2.24587 0.806482 -0.529447 0
M  V30 14 C 3.63767 0.496347 -0.109817 0
M  V30 15 C 4.29355 -0.656468 -0.787177 0
M  V30 16 C 5.69287 -0.814981 -0.241638 0
M  V30 17 O 6.3769 -1.75955 -0.725139 0
M  V30 18 O 6.1762 0.0442309 0.737543 0
M  V30 19 N 1.83048 1.97832 0.260248 0
M  V30 20 H -5.7019 1.42718 -1.96182 0
M  V30 21 H -6.22814 1.10699 -0.391227 0
M  V30 22 H -3.58976 2.27965 -0.656918 0
M  V30 23 H -4.21695 1.09632 0.515639 0
M  V30 24 H -3.71591 0.600918 -2.47856 0
M  V30 25 H -4.37101 -0.624904 -1.34748 0
M  V30 26 H -1.96862 -1.01367 -1.77936 0
M  V30 27 H -1.60579 0.655593 -1.30405 0
M  V30 28 H -2.47536 0.153486 1.00147 0
M  V30 29 H -2.85696 -1.56046 0.412851 0
M  V30 30 H -0.511112 -1.95999 0.0749043 0
M  V30 31 H -2.66369 -2.435 2.74006 0
M  V30 32 H 0.0861091 0.864268 1.04178 0
M  V30 33 H 2.29081 1.18272 -1.57647 0
M  V30 34 H 4.24452 1.4241 -0.315064 0
M  V30 35 H 3.68563 0.401366 1.01478 0
M  V30 36 H 3.75415 -1.60071 -0.770825 0
M  V30 37 H 4.44848 -0.393981 -1.86569 0
M  V30 38 H 6.86829 -0.372615 1.37877 0
M  V30 39 H 1.91492 1.73707 1.2566 0
M  V30 40 H 0.930446 2.36391 -0.049104 0
M  V30 END ATOM
M  V30 BEGIN BOND
M  V30 1 1 1 2
M  V30 2 1 2 3
M  V30 3 1 3 4
M  V30 4 1 4 5
M  V30 5 1 5 6
M  V30 6 1 6 7
M  V30 7 2 7 8
M  V30 8 1 7 9
M  V30 9 1 6 10
M  V30 10 1 10 11
M  V30 11 2 11 12
M  V30 12 1 11 13
M  V30 13 1 13 14
M  V30 14 1 14 15
M  V30 15 1 15 16
M  V30 16 2 16 17
M  V30 17 1 16 18
M  V30 18 1 13 19
M  V30 19 1 1 20
M  V30 20 1 1 21
M  V30 21 1 2 22
M  V30 22 1 2 23
M  V30 23 1 3 24
M  V30 24 1 3 25
M  V30 25 1 4 26
M  V30 26 1 4 27
M  V30 27 1 5 28
M  V30 28 1 5 29
M  V30 29 1 6 30
M  V30 30 1 9 31
M  V30 31 1 10 32
M  V30 32 1 13 33
M  V30 33 1 14 34
M  V30 34 1 14 35
M  V30 35 1 15 36
M  V30 36 1 15 37
M  V30 37 1 18 38
M  V30 38 1 19 39
M  V30 39 1 19 40
M  V30 END BOND
M  V30 END CTAB
M  END
