
     RDKit          3D

  0  0  0  0  0  0  0  0  0  0999 V3000
M  V30 BEGIN CTAB
M  V30 COUNTS 29 30 0 0 0
M  V30 BEGIN ATOM
M  V30 1 N -0.207663 1.35531 -0.70195 0
M  V30 2 C 0.291047 0.100928 -0.229621 0
M  V30 3 N -0.512047 -0.84476 0.130755 0
M  V30 4 C -1.92474 -0.732202 0.0933475 0
M  V30 5 C -2.64849 -1.34863 -0.905477 0
M  V30 6 C -4.02037 -1.20061 -0.88559 0
M  V30 7 C -4.65888 -0.465384 0.0920317 0
M  V30 8 C -3.93059 0.148666 1.08806 0
M  V30 9 Cl -4.73513 1.08304 2.3315 0
M  V30 10 C -2.56946 0.000996265 1.06714 0
M  V30 11 C 1.71559 -0.119527 -0.151526 0
M  V30 12 C 2.59596 0.881058 -0.5329 0
M  V30 13 N 2.10527 2.14786 -1.00973 0
M  V30 14 C 3.96365 0.721536 -0.477727 0
M  V30 15 C 4.44303 -0.500406 -0.0177736 0
M  V30 16 C 3.58432 -1.51311 0.368102 0
M  V30 17 C 2.22423 -1.32243 0.301118 0
M  V30 18 H -0.456946 1.4239 -1.71251 0
M  V30 19 H -0.332533 2.18955 -0.0988341 0
M  V30 20 H -2.16075 -1.93776 -1.69223 0
M  V30 21 H -4.60174 -1.66825 -1.64795 0
M  V30 22 H -5.74021 -0.34499 0.113139 0
M  V30 23 H -1.99994 0.481952 1.84716 0
M  V30 24 H 2.03819 2.90623 -0.307256 0
M  V30 25 H 1.83254 2.29132 -2.01011 0
M  V30 26 H 4.63046 1.51751 -0.781005 0
M  V30 27 H 5.50971 -0.678783 0.0456386 0
M  V30 28 H 4.01968 -2.44732 0.719495 0
M  V30 29 H 1.5458 -2.12569 0.607176 0
M  V30 END ATOM
M  V30 BEGIN BOND
M  V30 1 1 1 2
M  V30 2 2 2 3 CFG=2
M  V30 3 1 3 4
M  V30 4 2 4 5
M  V30 5 1 5 6
M  V30 6 2 6 7
M  V30 7 1 7 8
M  V30 8 1 8 9
M  V30 9 2 8 10
M  V30 10 1 2 11
M  V30 11 2 11 12
M  V30 12 1 12 13
M  V30 13 1 12 14
M  V30 14 2 14 15
M  V30 15 1 15 16
M  V30 16 2 16 17
M  V30 17 1 10 4
M  V30 18 1 17 11
M  V30 19 1 1 18
M  V30 20 1 1 19
M  V30 21 1 5 20
M  V30 22 1 6 21
M  V30 23 1 7 22
M  V30 24 1 10 23
M  V30 25 1 13 24
M  V30 26 1 13 25
M  V30 27 1 14 26
M  V30 28 1 15 27
M  V30 29 1 16 28
M  V30 30 1 17 29
M  V30 END BOND
M  V30 END CTAB
M  END
