
     RDKit          3D

  0  0  0  0  0  0  0  0  0  0999 V3000
M  V30 BEGIN CTAB
M  V30 COUNTS 33 32 0 0 0
M  V30 BEGIN ATOM
M  V30 1 C -0.207437 -0.0370941 -2.16399 0
M  V30 2 C 0.0845043 -0.265364 -0.690017 0
M  V30 3 C -0.183935 -1.72602 -0.421379 0
M  V30 4 C -0.842886 0.533352 0.189777 0
M  V30 5 C -2.29123 0.166276 -0.0385861 0
M  V30 6 C -3.21709 0.971424 0.847113 0
M  V30 7 N -4.60366 0.610027 0.618495 0
M  V30 8 C 1.50341 0.131097 -0.453827 0
M  V30 9 C 1.9642 -0.0312643 0.961798 0
M  V30 10 C 3.42897 0.421911 1.00344 0
M  V30 11 N 4.16938 -0.420493 0.102984 0
M  V30 12 H -0.629122 -0.918236 -2.65875 0
M  V30 13 H 0.69801 0.258156 -2.73199 0
M  V30 14 H -0.928813 0.791196 -2.27428 0
M  V30 15 H -1.15512 -1.9649 -0.922122 0
M  V30 16 H -0.163784 -1.99118 0.633788 0
M  V30 17 H 0.58338 -2.29793 -1.01751 0
M  V30 18 H -0.701402 1.59459 -0.0452034 0
M  V30 19 H -0.542716 0.364586 1.2433 0
M  V30 20 H -2.43787 -0.905106 0.261849 0
M  V30 21 H -2.57971 0.240004 -1.08277 0
M  V30 22 H -3.14857 2.06569 0.623874 0
M  V30 23 H -3.00348 0.771357 1.91832 0
M  V30 24 H -4.91479 -0.188497 1.18454 0
M  V30 25 H -4.80904 0.498202 -0.410115 0
M  V30 26 H 1.62654 1.18097 -0.738015 0
M  V30 27 H 2.16091 -0.482681 -1.10348 0
M  V30 28 H 1.43161 0.676136 1.65042 0
M  V30 29 H 1.93441 -1.05214 1.33711 0
M  V30 30 H 3.81584 0.440646 2.02652 0
M  V30 31 H 3.46143 1.47057 0.612278 0
M  V30 32 H 4.62689 0.115475 -0.668419 0
M  V30 33 H 4.87118 -1.02076 0.593764 0
M  V30 END ATOM
M  V30 BEGIN BOND
M  V30 1 1 1 2
M  V30 2 1 2 3
M  V30 3 1 2 4
M  V30 4 1 4 5
M  V30 5 1 5 6
M  V30 6 1 6 7
M  V30 7 1 2 8
M  V30 8 1 8 9
M  V30 9 1 9 10
M  V30 10 1 10 11
M  V30 11 1 1 12
M  V30 12 1 1 13
M  V30 13 1 1 14
M  V30 14 1 3 15
M  V30 15 1 3 16
M  V30 16 1 3 17
M  V30 17 1 4 18
M  V30 18 1 4 19
M  V30 19 1 5 20
M  V30 20 1 5 21
M  V30 21 1 6 22
M  V30 22 1 6 23
M  V30 23 1 7 24
M  V30 24 1 7 25
M  V30 25 1 8 26
M  V30 26 1 8 27
M  V30 27 1 9 28
M  V30 28 1 9 29
M  V30 29 1 10 30
M  V30 30 1 10 31
M  V30 31 1 11 32
M  V30 32 1 11 33
M  V30 END BOND
M  V30 END CTAB
M  END
