
     RDKit          3D

  0  0  0  0  0  0  0  0  0  0999 V3000
M  V30 BEGIN CTAB
M  V30 COUNTS 32 33 0 0 0
M  V30 BEGIN ATOM
M  V30 1 C 3.58559 0.768748 1.29337 0
M  V30 2 C 2.90882 -0.561249 1.20183 0
M  V30 3 C 1.63072 -0.491033 0.443982 0
M  V30 4 N 0.399385 -0.252996 0.890651 0
M  V30 5 C -0.510596 -0.270318 -0.114298 0
M  V30 6 C 0.203926 -0.536292 -1.25563 0
M  V30 7 N 1.50544 -0.664334 -0.874772 0
M  V30 8 N 2.54989 -0.943742 -1.78929 0
M  V30 9 N -0.271826 -0.667218 -2.59625 0
M  V30 10 C -1.97939 -0.0415043 0.0110681 0
M  V30 11 C -2.46623 0.223998 1.42385 0
M  V30 12 C -1.77891 1.45852 1.95033 0
M  V30 13 C -2.92339 -0.831428 -0.838943 0
M  V30 14 C -2.70736 0.628062 -1.09138 0
M  V30 15 H 3.12617 1.4137 2.06357 0
M  V30 16 H 4.66804 0.573703 1.54755 0
M  V30 17 H 3.59097 1.30316 0.329775 0
M  V30 18 H 2.72729 -0.932899 2.22664 0
M  V30 19 H 3.60228 -1.27624 0.716842 0
M  V30 20 H 3.06098 -1.84521 -1.80127 0
M  V30 21 H 2.8378 -0.225524 -2.49426 0
M  V30 22 H -0.286758 0.144296 -3.21974 0
M  V30 23 H -0.594089 -1.59675 -2.91234 0
M  V30 24 H -3.55495 0.425356 1.41768 0
M  V30 25 H -2.2769 -0.667596 2.04178 0
M  V30 26 H -2.50983 2.23712 2.25931 0
M  V30 27 H -1.19261 1.15151 2.84721 0
M  V30 28 H -1.08628 1.89522 1.17476 0
M  V30 29 H -2.55583 -1.59198 -1.5532 0
M  V30 30 H -3.94555 -1.06531 -0.416012 0
M  V30 31 H -3.53884 1.33914 -0.844932 0
M  V30 32 H -2.21795 0.899107 -2.03789 0
M  V30 END ATOM
M  V30 BEGIN BOND
M  V30 1 1 1 2
M  V30 2 1 2 3
M  V30 3 2 3 4
M  V30 4 1 4 5
M  V30 5 2 5 6
M  V30 6 1 6 7
M  V30 7 1 7 8
M  V30 8 1 6 9
M  V30 9 1 5 10
M  V30 10 1 10 11
M  V30 11 1 11 12
M  V30 12 1 10 13
M  V30 13 1 13 14
M  V30 14 1 7 3
M  V30 15 1 14 10
M  V30 16 1 1 15
M  V30 17 1 1 16
M  V30 18 1 1 17
M  V30 19 1 2 18
M  V30 20 1 2 19
M  V30 21 1 8 20
M  V30 22 1 8 21
M  V30 23 1 9 22
M  V30 24 1 9 23
M  V30 25 1 11 24
M  V30 26 1 11 25
M  V30 27 1 12 26
M  V30 28 1 12 27
M  V30 29 1 12 28
M  V30 30 1 13 29
M  V30 31 1 13 30
M  V30 32 1 14 31
M  V30 33 1 14 32
M  V30 END BOND
M  V30 END CTAB
M  END
