
     RDKit          3D

  0  0  0  0  0  0  0  0  0  0999 V3000
M  V30 BEGIN CTAB
M  V30 COUNTS 27 28 0 0 0
M  V30 BEGIN ATOM
M  V30 1 N -0.47647 2.35185 -1.2171 0
M  V30 2 C -0.985636 1.18419 -0.602529 0
M  V30 3 C -2.36332 1.00964 -0.617984 0
M  V30 4 C -2.90343 -0.105999 -0.035238 0
M  V30 5 C -4.21507 -0.513744 0.0858742 0
M  V30 6 N -4.16624 -1.68051 0.745928 0
M  V30 7 N -2.93661 -2.02425 1.04059 0
M  V30 8 C -2.11717 -1.06733 0.570109 0
M  V30 9 C -0.74239 -0.871974 0.573621 0
M  V30 10 C -0.165557 0.238027 -0.00292336 0
M  V30 11 N 1.24115 0.416951 0.0124462 0
M  V30 12 C 2.05315 -0.587546 0.644216 0
M  V30 13 C 3.51915 -0.278024 0.590938 0
M  V30 14 N 4.02079 -0.161384 -0.754015 0
M  V30 15 H 0.102436 3.06786 -0.735633 0
M  V30 16 H -0.693794 2.50979 -2.22131 0
M  V30 17 H -2.99001 1.75439 -1.08838 0
M  V30 18 H -5.05851 0.0270086 -0.287711 0
M  V30 19 H -2.60267 -2.89071 1.55529 0
M  V30 20 H -0.127418 -1.64461 1.05874 0
M  V30 21 H 1.64592 1.28083 -0.439939 0
M  V30 22 H 1.76496 -0.595272 1.72847 0
M  V30 23 H 1.86887 -1.60196 0.264358 0
M  V30 24 H 3.79374 0.587069 1.23176 0
M  V30 25 H 4.04843 -1.15699 1.05032 0
M  V30 26 H 3.47699 0.541281 -1.30917 0
M  V30 27 H 5.0087 0.211418 -0.676529 0
M  V30 END ATOM
M  V30 BEGIN BOND
M  V30 1 1 1 2
M  V30 2 2 2 3
M  V30 3 1 3 4
M  V30 4 1 4 5
M  V30 5 2 5 6
M  V30 6 1 6 7
M  V30 7 1 7 8
M  V30 8 1 8 9
M  V30 9 2 9 10
M  V30 10 1 10 11
M  V30 11 1 11 12
M  V30 12 1 12 13
M  V30 13 1 13 14
M  V30 14 1 10 2
M  V30 15 2 8 4
M  V30 16 1 1 15
M  V30 17 1 1 16
M  V30 18 1 3 17
M  V30 19 1 5 18
M  V30 20 1 7 19
M  V30 21 1 9 20
M  V30 22 1 11 21
M  V30 23 1 12 22
M  V30 24 1 12 23
M  V30 25 1 13 24
M  V30 26 1 13 25
M  V30 27 1 14 26
M  V30 28 1 14 27
M  V30 END BOND
M  V30 END CTAB
M  END
