
     RDKit          3D

  0  0  0  0  0  0  0  0  0  0999 V3000
M  V30 BEGIN CTAB
M  V30 COUNTS 24 25 0 0 0
M  V30 BEGIN ATOM
M  V30 1 N -2.97535 -1.84497 -0.18462 0
M  V30 2 C -2.15333 -0.698145 -0.0663598 0
M  V30 3 C -2.73106 0.545897 0.0679236 0
M  V30 4 N -4.13932 0.753376 0.0956902 0
M  V30 5 C -1.86788 1.62033 0.178334 0
M  V30 6 Cl -2.57178 3.20287 0.349054 0
M  V30 7 N -0.540372 1.4138 0.15101 0
M  V30 8 C 0.0182205 0.201633 0.0201799 0
M  V30 9 N -0.816903 -0.85266 -0.0882096 0
M  V30 10 C 1.47363 0.023183 -0.00471656 0
M  V30 11 C 2.26064 1.14667 0.111189 0
M  V30 12 C 3.62617 0.974189 0.0872582 0
M  V30 13 C 4.19451 -0.264491 -0.0464621 0
M  V30 14 C 3.42924 -1.38871 -0.162534 0
M  V30 15 C 2.04499 -1.22316 -0.13926 0
M  V30 16 H -3.52044 -2.14244 0.641306 0
M  V30 17 H -2.99938 -2.34146 -1.09232 0
M  V30 18 H -4.6776 0.743977 1.00445 0
M  V30 19 H -4.70927 0.923318 -0.763586 0
M  V30 20 H 1.79881 2.12865 0.217253 0
M  V30 21 H 4.26202 1.85404 0.177949 0
M  V30 22 H 5.28054 -0.32655 -0.057529 0
M  V30 23 H 3.89898 -2.34723 -0.26612 0
M  V30 24 H 1.41494 -2.1021 -0.229877 0
M  V30 END ATOM
M  V30 BEGIN BOND
M  V30 1 1 1 2
M  V30 2 2 2 3
M  V30 3 1 3 4
M  V30 4 1 3 5
M  V30 5 1 5 6
M  V30 6 2 5 7
M  V30 7 1 7 8
M  V30 8 2 8 9
M  V30 9 1 8 10
M  V30 10 2 10 11
M  V30 11 1 11 12
M  V30 12 2 12 13
M  V30 13 1 13 14
M  V30 14 2 14 15
M  V30 15 1 9 2
M  V30 16 1 15 10
M  V30 17 1 1 16
M  V30 18 1 1 17
M  V30 19 1 4 18
M  V30 20 1 4 19
M  V30 21 1 11 20
M  V30 22 1 12 21
M  V30 23 1 13 22
M  V30 24 1 14 23
M  V30 25 1 15 24
M  V30 END BOND
M  V30 END CTAB
M  END
