
     RDKit          3D

  0  0  0  0  0  0  0  0  0  0999 V3000
M  V30 BEGIN CTAB
M  V30 COUNTS 16 16 0 0 0
M  V30 BEGIN ATOM
M  V30 1 C -1.29553 1.95017 0.472836 0
M  V30 2 S -0.343339 0.671202 1.36153 0
M  V30 3 C 0.352196 -0.477262 0.126249 0
M  V30 4 C -0.300632 -1.57344 -0.301174 0
M  V30 5 N -1.6261 -1.96403 0.169281 0
M  V30 6 N 0.310393 -2.33905 -1.20813 0
M  V30 7 S 1.77534 -1.56678 -1.48012 0
M  V30 8 C 1.58941 -0.252758 -0.415484 0
M  V30 9 N 2.49863 0.833236 -0.141162 0
M  V30 10 H -0.728031 2.24112 -0.430998 0
M  V30 11 H -1.46365 2.77123 1.18676 0
M  V30 12 H -2.24251 1.44516 0.152953 0
M  V30 13 H -1.76739 -2.29782 1.13805 0
M  V30 14 H -2.38373 -1.87407 -0.546675 0
M  V30 15 H 3.47882 0.80774 -0.470775 0
M  V30 16 H 2.14612 1.62536 0.386854 0
M  V30 END ATOM
M  V30 BEGIN BOND
M  V30 1 1 1 2
M  V30 2 1 2 3
M  V30 3 1 3 4
M  V30 4 1 4 5
M  V30 5 2 4 6
M  V30 6 1 6 7
M  V30 7 1 7 8
M  V30 8 1 8 9
M  V30 9 2 8 3
M  V30 10 1 1 10
M  V30 11 1 1 11
M  V30 12 1 1 12
M  V30 13 1 5 13
M  V30 14 1 5 14
M  V30 15 1 9 15
M  V30 16 1 9 16
M  V30 END BOND
M  V30 END CTAB
M  END
