
     RDKit          3D

  0  0  0  0  0  0  0  0  0  0999 V3000
M  V30 BEGIN CTAB
M  V30 COUNTS 42 44 0 0 0
M  V30 BEGIN ATOM
M  V30 1 C -2.85779 -1.19956 2.89549 0
M  V30 2 C -2.46579 0.145249 2.32767 0
M  V30 3 N -1.36553 -0.0403035 1.40453 0
M  V30 4 C -0.900694 1.17212 0.844972 0
M  V30 5 C 0.294478 1.17114 -0.009942 0
M  V30 6 C 0.598195 2.63894 -0.383138 0
M  V30 7 O 0.302189 0.426374 -1.17378 0
M  V30 8 C 1.66272 0.164642 -1.47451 0
M  V30 9 C 2.43304 0.334372 -0.348521 0
M  V30 10 C 1.54573 0.739579 0.778402 0
M  V30 11 C 3.80308 0.1272 -0.420609 0
M  V30 12 N 4.54297 0.310352 0.777954 0
M  V30 13 N 4.3249 -0.229679 -1.57738 0
M  V30 14 C 3.61269 -0.407884 -2.70612 0
M  V30 15 N 2.27981 -0.201152 -2.61806 0
M  V30 16 N 4.2498 -0.804174 -3.93115 0
M  V30 17 C -1.46315 -1.1861 0.602031 0
M  V30 18 C -2.66083 -1.23338 -0.327237 0
M  V30 19 C -2.84069 -2.34547 -1.11588 0
M  V30 20 S -4.26958 -1.94775 -1.96423 0
M  V30 21 C -4.55922 -0.410814 -1.28121 0
M  V30 22 N -3.54939 -0.285717 -0.443723 0
M  V30 23 H -3.54053 -1.00391 3.75732 0
M  V30 24 H -1.99039 -1.7779 3.27155 0
M  V30 25 H -3.42434 -1.8093 2.1837 0
M  V30 26 H -2.08407 0.821902 3.13475 0
M  V30 27 H -3.35366 0.624419 1.91827 0
M  V30 28 H -0.669572 1.85164 1.72401 0
M  V30 29 H -1.70189 1.74741 0.289908 0
M  V30 30 H 0.64494 3.19393 0.566172 0
M  V30 31 H 1.58535 2.65271 -0.852864 0
M  V30 32 H -0.218975 2.99495 -1.04248 0
M  V30 33 H 1.24027 -0.135021 1.39758 0
M  V30 34 H 1.94231 1.56871 1.37483 0
M  V30 35 H 4.36124 -0.258418 1.62123 0
M  V30 36 H 5.28101 1.03157 0.801222 0
M  V30 37 H 4.53369 -1.80494 -3.99967 0
M  V30 38 H 4.43766 -0.177188 -4.72204 0
M  V30 39 H -0.538721 -1.44702 0.0745792 0
M  V30 40 H -1.63048 -2.06761 1.29534 0
M  V30 41 H -2.20896 -3.25538 -1.17076 0
M  V30 42 H -5.38183 0.311459 -1.47821 0
M  V30 END ATOM
M  V30 BEGIN BOND
M  V30 1 1 1 2
M  V30 2 1 2 3
M  V30 3 1 3 4
M  V30 4 1 4 5
M  V30 5 1 5 6
M  V30 6 1 5 7
M  V30 7 1 7 8
M  V30 8 2 8 9
M  V30 9 1 9 10
M  V30 10 1 9 11
M  V30 11 1 11 12
M  V30 12 2 11 13
M  V30 13 1 13 14
M  V30 14 2 14 15
M  V30 15 1 14 16
M  V30 16 1 3 17
M  V30 17 1 17 18
M  V30 18 2 18 19
M  V30 19 1 19 20
M  V30 20 1 20 21
M  V30 21 2 21 22
M  V30 22 1 10 5
M  V30 23 1 22 18
M  V30 24 1 15 8
M  V30 25 1 1 23
M  V30 26 1 1 24
M  V30 27 1 1 25
M  V30 28 1 2 26
M  V30 29 1 2 27
M  V30 30 1 4 28
M  V30 31 1 4 29
M  V30 32 1 6 30
M  V30 33 1 6 31
M  V30 34 1 6 32
M  V30 35 1 10 33
M  V30 36 1 10 34
M  V30 37 1 12 35
M  V30 38 1 12 36
M  V30 39 1 16 37
M  V30 40 1 16 38
M  V30 41 1 17 39
M  V30 42 1 17 40
M  V30 43 1 19 41
M  V30 44 1 21 42
M  V30 END BOND
M  V30 END CTAB
M  END
