
     RDKit          3D

  0  0  0  0  0  0  0  0  0  0999 V3000
M  V30 BEGIN CTAB
M  V30 COUNTS 81 83 0 0 0
M  V30 BEGIN ATOM
M  V30 1 C 3.07552 0.105253 2.87016 0
M  V30 2 N 2.25924 0.915605 1.85209 0
M  V30 3 C 3.0182 1.94889 1.2904 0
M  V30 4 C 3.94396 1.75175 0.156151 0
M  V30 5 C 5.04841 0.806362 0.306077 0
M  V30 6 C 4.88151 -0.553069 0.0175305 0
M  V30 7 N 3.68051 -1.03787 -0.536646 0
M  V30 8 C 3.38121 -2.36842 -0.819055 0
M  V30 9 O 4.09679 -3.37317 -0.639706 0
M  V30 10 C 2.01808 -2.66353 -1.42247 0
M  V30 11 N 1.886 -4.06294 -1.64135 0
M  V30 12 C 5.97795 -1.363 0.254106 0
M  V30 13 C 7.18511 -0.880568 0.746942 0
M  V30 14 C 7.28973 0.461336 1.00937 0
M  V30 15 C 6.26025 1.30843 0.802717 0
M  V30 16 C 0.963668 0.439062 1.68842 0
M  V30 17 O 0.776185 -0.709083 2.33943 0
M  V30 18 C -0.240094 0.902696 0.989158 0 CFG=1
M  V30 19 C -0.642053 2.23982 1.54943 0
M  V30 20 C -1.84004 2.84134 0.951927 0
M  V30 21 C -1.69749 3.7747 -0.0476043 0
M  V30 22 C -2.8115 4.35687 -0.66802 0
M  V30 23 C -2.66477 5.28661 -1.66957 0
M  V30 24 C -3.74243 5.86581 -2.29151 0
M  V30 25 C -5.0074 5.4629 -1.85567 0
M  V30 26 C -5.15746 4.53459 -0.855667 0
M  V30 27 C -4.075 3.96001 -0.238414 0
M  V30 28 C -4.19563 3.02224 0.766959 0
M  V30 29 C -3.11823 2.45753 1.36832 0
M  V30 30 N -0.269064 0.724965 -0.389582 0
M  V30 31 C 0.470223 1.50084 -1.39705 0
M  V30 32 C -1.15486 -0.248569 -0.989071 0
M  V30 33 O -1.1329 -0.354335 -2.26811 0
M  V30 34 C -2.06194 -1.11601 -0.309744 0
M  V30 35 C -2.83453 -1.97231 -0.979309 0
M  V30 36 C -3.77327 -2.86784 -0.264307 0
M  V30 37 C -3.49754 -4.33559 -0.502608 0
M  V30 38 C -4.50637 -5.17348 0.27092 0
M  V30 39 C -3.67484 -4.65941 -1.97958 0
M  V30 40 N -2.17755 -4.71366 -0.0381461 0
M  V30 41 H 2.55445 0.187693 3.83742 0
M  V30 42 H 4.1005 0.453001 2.8849 0
M  V30 43 H 3.02036 -0.918774 2.49958 0
M  V30 44 H 2.386 2.85188 0.995464 0
M  V30 45 H 3.63133 2.4152 2.14811 0
M  V30 46 H 3.39349 1.538 -0.774535 0
M  V30 47 H 4.45446 2.76622 -0.0929367 0
M  V30 48 H 2.94432 -0.328984 -0.761616 0
M  V30 49 H 1.24341 -2.28692 -0.747012 0
M  V30 50 H 2.00959 -2.06585 -2.36637 0
M  V30 51 H 2.0697 -4.55667 -0.752748 0
M  V30 52 H 2.43396 -4.43118 -2.42958 0
M  V30 53 H 5.95238 -2.43047 0.0622199 0
M  V30 54 H 8.03071 -1.52001 0.927235 0
M  V30 55 H 8.24015 0.841133 1.39589 0
M  V30 56 H 6.35005 2.38255 1.01601 0
M  V30 57 H -1.11189 0.215762 1.39745 0
M  V30 58 H -0.88949 2.05683 2.63916 0
M  V30 59 H 0.16214 2.97843 1.57362 0
M  V30 60 H -0.738031 4.14302 -0.421606 0
M  V30 61 H -1.67619 5.56849 -1.9738 0
M  V30 62 H -3.62742 6.59809 -3.08034 0
M  V30 63 H -5.86294 5.92763 -2.35709 0
M  V30 64 H -6.14462 4.23799 -0.53343 0
M  V30 65 H -5.18979 2.70579 1.1094 0
M  V30 66 H -3.1467 1.72632 2.15186 0
M  V30 67 H 1.21931 0.821958 -1.83542 0
M  V30 68 H 0.972533 2.37776 -0.974823 0
M  V30 69 H -0.257928 1.83389 -2.18578 0
M  V30 70 H -2.18352 -1.14469 0.752162 0
M  V30 71 H -2.75256 -1.98779 -2.04459 0
M  V30 72 H -3.74392 -2.69798 0.828278 0
M  V30 73 H -4.79954 -2.62254 -0.603341 0
M  V30 74 H -5.38788 -4.52419 0.490972 0
M  V30 75 H -4.06833 -5.55481 1.22417 0
M  V30 76 H -4.86956 -6.03593 -0.336966 0
M  V30 77 H -4.73414 -4.95995 -2.12887 0
M  V30 78 H -3.5001 -3.79347 -2.61803 0
M  V30 79 H -3.00432 -5.46864 -2.30777 0
M  V30 80 H -1.52236 -3.94761 -0.313748 0
M  V30 81 H -1.8952 -5.56592 -0.567952 0
M  V30 END ATOM
M  V30 BEGIN BOND
M  V30 1 1 1 2
M  V30 2 1 2 3
M  V30 3 1 3 4
M  V30 4 1 4 5
M  V30 5 2 5 6
M  V30 6 1 6 7
M  V30 7 1 7 8
M  V30 8 2 8 9
M  V30 9 1 8 10
M  V30 10 1 10 11
M  V30 11 1 6 12
M  V30 12 2 12 13
M  V30 13 1 13 14
M  V30 14 2 14 15
M  V30 15 1 2 16
M  V30 16 2 16 17
M  V30 17 1 16 18
M  V30 18 1 18 19
M  V30 19 1 19 20
M  V30 20 2 20 21
M  V30 21 1 21 22
M  V30 22 2 22 23
M  V30 23 1 23 24
M  V30 24 2 24 25
M  V30 25 1 25 26
M  V30 26 2 26 27
M  V30 27 1 27 28
M  V30 28 2 28 29
M  V30 29 1 18 30
M  V30 30 1 30 31
M  V30 31 1 30 32
M  V30 32 2 32 33
M  V30 33 1 32 34
M  V30 34 2 34 35
M  V30 35 1 35 36
M  V30 36 1 36 37
M  V30 37 1 37 38
M  V30 38 1 37 39
M  V30 39 1 37 40
M  V30 40 1 15 5
M  V30 41 1 29 20
M  V30 42 1 27 22
M  V30 43 1 1 41
M  V30 44 1 1 42
M  V30 45 1 1 43
M  V30 46 1 3 44
M  V30 47 1 3 45
M  V30 48 1 4 46
M  V30 49 1 4 47
M  V30 50 1 7 48
M  V30 51 1 10 49
M  V30 52 1 10 50
M  V30 53 1 11 51
M  V30 54 1 11 52
M  V30 55 1 12 53
M  V30 56 1 13 54
M  V30 57 1 14 55
M  V30 58 1 15 56
M  V30 59 1 18 57 CFG=1
M  V30 60 1 19 58
M  V30 61 1 19 59
M  V30 62 1 21 60
M  V30 63 1 23 61
M  V30 64 1 24 62
M  V30 65 1 25 63
M  V30 66 1 26 64
M  V30 67 1 28 65
M  V30 68 1 29 66
M  V30 69 1 31 67
M  V30 70 1 31 68
M  V30 71 1 31 69
M  V30 72 1 34 70
M  V30 73 1 35 71
M  V30 74 1 36 72
M  V30 75 1 36 73
M  V30 76 1 38 74
M  V30 77 1 38 75
M  V30 78 1 38 76
M  V30 79 1 39 77
M  V30 80 1 39 78
M  V30 81 1 39 79
M  V30 82 1 40 80
M  V30 83 1 40 81
M  V30 END BOND
M  V30 END CTAB
M  END
