
     RDKit          3D

  0  0  0  0  0  0  0  0  0  0999 V3000
M  V30 BEGIN CTAB
M  V30 COUNTS 26 27 0 0 0
M  V30 BEGIN ATOM
M  V30 1 N 3.64148 -1.3789 0.400281 0
M  V30 2 C 2.67762 -0.371363 0.297161 0
M  V30 3 C 3.11886 0.934094 0.207793 0
M  V30 4 Br 4.99544 1.32771 0.226478 0
M  V30 5 C 2.23618 1.97337 0.104347 0
M  V30 6 C 0.893358 1.68557 0.0913634 0
M  V30 7 C 0.398712 0.385561 0.178831 0
M  V30 8 C 1.315 -0.606458 0.279664 0
M  V30 9 C -1.04852 0.202322 0.160297 0
M  V30 10 C -1.62317 -0.748371 -0.651197 0
M  V30 11 N -0.822508 -1.5528 -1.48397 0
M  V30 12 C -3.01025 -0.936547 -0.6739 0
M  V30 13 C -3.84831 -0.177003 0.114699 0
M  V30 14 Br -5.74372 -0.435434 0.0824828 0
M  V30 15 C -3.26351 0.7736 0.924769 0
M  V30 16 C -1.89742 0.959659 0.947912 0
M  V30 17 H 3.88291 -1.96632 -0.415652 0
M  V30 18 H 4.12775 -1.55117 1.29651 0
M  V30 19 H 2.62043 2.97803 0.0368017 0
M  V30 20 H 0.195908 2.49959 0.0101929 0
M  V30 21 H 0.968181 -1.64413 0.354552 0
M  V30 22 H -1.0426 -2.56286 -1.62944 0
M  V30 23 H 0.0155886 -1.18927 -1.98906 0
M  V30 24 H -3.46079 -1.68905 -1.31649 0
M  V30 25 H -3.90792 1.3826 1.55397 0
M  V30 26 H -1.4187 1.70756 1.58323 0
M  V30 END ATOM
M  V30 BEGIN BOND
M  V30 1 1 1 2
M  V30 2 2 2 3
M  V30 3 1 3 4
M  V30 4 1 3 5
M  V30 5 2 5 6
M  V30 6 1 6 7
M  V30 7 2 7 8
M  V30 8 1 7 9
M  V30 9 2 9 10
M  V30 10 1 10 11
M  V30 11 1 10 12
M  V30 12 2 12 13
M  V30 13 1 13 14
M  V30 14 1 13 15
M  V30 15 2 15 16
M  V30 16 1 8 2
M  V30 17 1 16 9
M  V30 18 1 1 17
M  V30 19 1 1 18
M  V30 20 1 5 19
M  V30 21 1 6 20
M  V30 22 1 8 21
M  V30 23 1 11 22
M  V30 24 1 11 23
M  V30 25 1 12 24
M  V30 26 1 15 25
M  V30 27 1 16 26
M  V30 END BOND
M  V30 END CTAB
M  END
