
     RDKit          3D

  0  0  0  0  0  0  0  0  0  0999 V3000
M  V30 BEGIN CTAB
M  V30 COUNTS 46 48 0 0 0
M  V30 BEGIN ATOM
M  V30 1 C 8.54854 1.30477 -0.971612 0
M  V30 2 C 7.23429 0.671 -0.703462 0
M  V30 3 N 6.7676 0.650895 0.55048 0
M  V30 4 N 5.6119 0.0979997 0.815754 0
M  V30 5 C 4.84054 -0.47195 -0.14089 0
M  V30 6 N 5.27736 -0.46808 -1.39913 0
M  V30 7 C 6.45767 0.0903049 -1.70557 0
M  V30 8 O 6.92294 0.124463 -2.87542 0
M  V30 9 N 4.49899 -1.05083 -2.40244 0
M  V30 10 S 3.30111 -1.18428 0.364859 0
M  V30 11 C 1.95463 0.0630374 0.298166 0
M  V30 12 C 0.675625 -0.574683 0.732069 0
M  V30 13 C -0.18679 -1.18657 -0.150704 0
M  V30 14 C -1.37505 -1.78525 0.238809 0
M  V30 15 C -1.73843 -1.78605 1.54713 0
M  V30 16 C -0.878748 -1.17105 2.46428 0
M  V30 17 C 0.286661 -0.588758 2.05453 0
M  V30 18 C -3.01823 -2.37404 2.07781 0
M  V30 19 S -4.17027 -1.0632 2.42829 0
M  V30 20 C -4.7569 -0.258779 0.975485 0
M  V30 21 N -4.38574 -0.609154 -0.247101 0
M  V30 22 N -4.80739 -0.0313556 -1.34382 0
M  V30 23 C -5.67457 0.987031 -1.25129 0
M  V30 24 C -6.11305 1.4163 -0.0190314 0
M  V30 25 O -6.93865 2.38534 0.075288 0
M  V30 26 N -5.64628 0.786056 1.06844 0
M  V30 27 N -6.04641 1.16845 2.33535 0
M  V30 28 C -6.15751 1.64603 -2.48645 0
M  V30 29 H 8.55271 2.37416 -0.705121 0
M  V30 30 H 9.34582 0.816081 -0.346144 0
M  V30 31 H 8.84981 1.16346 -2.02458 0
M  V30 32 H 3.48935 -0.771569 -2.54083 0
M  V30 33 H 4.94932 -1.78316 -3.02313 0
M  V30 34 H 1.78627 0.403101 -0.745837 0
M  V30 35 H 2.15841 0.90511 0.958148 0
M  V30 36 H 0.0778707 -1.20021 -1.20246 0
M  V30 37 H -2.01769 -2.28222 -0.496288 0
M  V30 38 H -1.18189 -1.17775 3.52254 0
M  V30 39 H 0.949518 -0.110743 2.78717 0
M  V30 40 H -3.38312 -3.01831 1.23937 0
M  V30 41 H -2.78742 -3.00545 2.97859 0
M  V30 42 H -6.37524 0.497634 3.06282 0
M  V30 43 H -6.02944 2.17561 2.60795 0
M  V30 44 H -5.32396 1.745 -3.20972 0
M  V30 45 H -6.99361 1.03756 -2.88722 0
M  V30 46 H -6.55056 2.66671 -2.30509 0
M  V30 END ATOM
M  V30 BEGIN BOND
M  V30 1 1 1 2
M  V30 2 2 2 3
M  V30 3 1 3 4
M  V30 4 2 4 5
M  V30 5 1 5 6
M  V30 6 1 6 7
M  V30 7 2 7 8
M  V30 8 1 6 9
M  V30 9 1 5 10
M  V30 10 1 10 11
M  V30 11 1 11 12
M  V30 12 2 12 13
M  V30 13 1 13 14
M  V30 14 2 14 15
M  V30 15 1 15 16
M  V30 16 2 16 17
M  V30 17 1 15 18
M  V30 18 1 18 19
M  V30 19 1 19 20
M  V30 20 2 20 21
M  V30 21 1 21 22
M  V30 22 2 22 23
M  V30 23 1 23 24
M  V30 24 2 24 25
M  V30 25 1 24 26
M  V30 26 1 26 27
M  V30 27 1 23 28
M  V30 28 1 7 2
M  V30 29 1 17 12
M  V30 30 1 26 20
M  V30 31 1 1 29
M  V30 32 1 1 30
M  V30 33 1 1 31
M  V30 34 1 9 32
M  V30 35 1 9 33
M  V30 36 1 11 34
M  V30 37 1 11 35
M  V30 38 1 13 36
M  V30 39 1 14 37
M  V30 40 1 16 38
M  V30 41 1 17 39
M  V30 42 1 18 40
M  V30 43 1 18 41
M  V30 44 1 27 42
M  V30 45 1 27 43
M  V30 46 1 28 44
M  V30 47 1 28 45
M  V30 48 1 28 46
M  V30 END BOND
M  V30 END CTAB
M  END
