
     RDKit          3D

  0  0  0  0  0  0  0  0  0  0999 V3000
M  V30 BEGIN CTAB
M  V30 COUNTS 42 44 0 0 0
M  V30 BEGIN ATOM
M  V30 1 C -7.3462 1.96123 -0.452861 0
M  V30 2 C -5.99747 1.44301 -0.0493474 0
M  V30 3 C -5.6784 0.292289 0.620131 0
M  V30 4 C -4.3875 0.0572518 0.86027 0
M  V30 5 C -3.90381 -1.17276 1.60962 0
M  V30 6 C -3.47469 0.979341 0.421693 0
M  V30 7 S -4.48317 2.16427 -0.324382 0
M  V30 8 C -2.01596 0.95759 0.538618 0
M  V30 9 O -1.49894 1.60909 1.47619 0
M  V30 10 N -1.19465 0.231904 -0.366369 0
M  V30 11 N 0.107661 0.131659 -0.316035 0
M  V30 12 C 0.616427 -0.593078 -1.2957 0
M  V30 13 N 1.91004 -0.989788 -1.67867 0
M  V30 14 C 3.08756 -0.631152 -0.977998 0
M  V30 15 C 4.31231 -1.11302 -1.47008 0
M  V30 16 C 5.5088 -0.824934 -0.869888 0
M  V30 17 C 5.54538 -0.0380911 0.256689 0
M  V30 18 C 4.37031 0.434965 0.744142 0
M  V30 19 C 3.1587 0.142134 0.134952 0
M  V30 20 S 7.05238 0.364021 1.06878 0
M  V30 21 N 7.36138 -0.841956 2.25209 0
M  V30 22 O 6.92899 1.73261 1.67395 0
M  V30 23 O 8.17181 0.403613 0.0915742 0
M  V30 24 N -0.493798 -0.977182 -2.02335 0
M  V30 25 C -1.58086 -0.462398 -1.43753 0
M  V30 26 N -2.89345 -0.667568 -1.95547 0
M  V30 27 H -7.23661 2.74738 -1.22814 0
M  V30 28 H -7.8816 2.42481 0.403543 0
M  V30 29 H -7.98049 1.17116 -0.887844 0
M  V30 30 H -6.50923 -0.385041 0.928488 0
M  V30 31 H -4.60246 -2.02041 1.43529 0
M  V30 32 H -2.92725 -1.50086 1.21053 0
M  V30 33 H -3.91308 -0.9578 2.67995 0
M  V30 34 H 2.02233 -1.59981 -2.55159 0
M  V30 35 H 4.28357 -1.72647 -2.34802 0
M  V30 36 H 6.46205 -1.19117 -1.23993 0
M  V30 37 H 4.37459 1.06404 1.6408 0
M  V30 38 H 2.28671 0.549175 0.576462 0
M  V30 39 H 6.80346 -0.74092 3.11296 0
M  V30 40 H 8.36977 -1.01501 2.41645 0
M  V30 41 H -3.27769 0.107331 -2.54746 0
M  V30 42 H -3.45693 -1.51946 -1.77489 0
M  V30 END ATOM
M  V30 BEGIN BOND
M  V30 1 1 1 2
M  V30 2 2 2 3
M  V30 3 1 3 4
M  V30 4 1 4 5
M  V30 5 2 4 6
M  V30 6 1 6 7
M  V30 7 1 6 8
M  V30 8 2 8 9
M  V30 9 1 8 10
M  V30 10 1 10 11
M  V30 11 2 11 12
M  V30 12 1 12 13
M  V30 13 1 13 14
M  V30 14 2 14 15
M  V30 15 1 15 16
M  V30 16 2 16 17
M  V30 17 1 17 18
M  V30 18 2 18 19
M  V30 19 1 17 20
M  V30 20 1 20 21
M  V30 21 2 20 22
M  V30 22 2 20 23
M  V30 23 1 12 24
M  V30 24 2 24 25
M  V30 25 1 25 26
M  V30 26 1 7 2
M  V30 27 1 25 10
M  V30 28 1 19 14
M  V30 29 1 1 27
M  V30 30 1 1 28
M  V30 31 1 1 29
M  V30 32 1 3 30
M  V30 33 1 5 31
M  V30 34 1 5 32
M  V30 35 1 5 33
M  V30 36 1 13 34
M  V30 37 1 15 35
M  V30 38 1 16 36
M  V30 39 1 18 37
M  V30 40 1 19 38
M  V30 41 1 21 39
M  V30 42 1 21 40
M  V30 43 1 26 41
M  V30 44 1 26 42
M  V30 END BOND
M  V30 END CTAB
M  END
