
     RDKit          3D

  0  0  0  0  0  0  0  0  0  0999 V3000
M  V30 BEGIN CTAB
M  V30 COUNTS 33 33 0 0 0
M  V30 BEGIN ATOM
M  V30 1 C -1.64913 -1.95791 0.694616 0
M  V30 2 C -0.855531 -0.58955 0.732465 0
M  V30 3 C -1.75954 0.287978 -0.0610943 0
M  V30 4 C -3.10903 0.271779 0.701053 0
M  V30 5 C -2.03123 -0.334624 -1.43294 0
M  V30 6 C -1.43295 1.71194 -0.257675 0
M  V30 7 C 0.48532 -0.888884 0.152221 0
M  V30 8 C 1.48687 0.179646 0.142988 0
M  V30 9 N 1.55641 1.39163 0.708048 0
M  V30 10 N 2.66749 2.02694 0.415494 0
M  V30 11 C 3.38145 1.22017 -0.377121 0
M  V30 12 N 2.67907 0.101979 -0.548675 0
M  V30 13 N 3.06691 -1.00225 -1.31046 0
M  V30 14 N 4.67916 1.49259 -0.953492 0
M  V30 15 H -0.985883 -2.72176 0.27606 0
M  V30 16 H -2.53312 -1.87776 0.0522551 0
M  V30 17 H -1.9872 -2.1837 1.72543 0
M  V30 18 H -0.81906 -0.246862 1.77972 0
M  V30 19 H -3.15811 -0.540938 1.43169 0
M  V30 20 H -3.9323 0.217887 -0.0472021 0
M  V30 21 H -3.1674 1.2182 1.27474 0
M  V30 22 H -1.50596 -1.27368 -1.57127 0
M  V30 23 H -3.1033 -0.448155 -1.58243 0
M  V30 24 H -1.64962 0.352776 -2.24401 0
M  V30 25 H -2.42784 2.1822 -0.620098 0
M  V30 26 H -0.716772 1.88053 -1.09171 0
M  V30 27 H -1.24041 2.27566 0.659824 0
M  V30 28 H 0.371098 -1.3641 -0.864972 0
M  V30 29 H 0.953367 -1.72662 0.771567 0
M  V30 30 H 3.08927 -1.92688 -0.80428 0
M  V30 31 H 3.3211 -0.928596 -2.3192 0
M  V30 32 H 5.49255 0.863549 -0.797787 0
M  V30 33 H 4.83432 2.33683 -1.54706 0
M  V30 END ATOM
M  V30 BEGIN BOND
M  V30 1 1 1 2
M  V30 2 1 2 3
M  V30 3 1 3 4
M  V30 4 1 3 5
M  V30 5 1 3 6
M  V30 6 1 2 7
M  V30 7 1 7 8
M  V30 8 2 8 9
M  V30 9 1 9 10
M  V30 10 2 10 11
M  V30 11 1 11 12
M  V30 12 1 12 13
M  V30 13 1 11 14
M  V30 14 1 12 8
M  V30 15 1 1 15
M  V30 16 1 1 16
M  V30 17 1 1 17
M  V30 18 1 2 18
M  V30 19 1 4 19
M  V30 20 1 4 20
M  V30 21 1 4 21
M  V30 22 1 5 22
M  V30 23 1 5 23
M  V30 24 1 5 24
M  V30 25 1 6 25
M  V30 26 1 6 26
M  V30 27 1 6 27
M  V30 28 1 7 28
M  V30 29 1 7 29
M  V30 30 1 13 30
M  V30 31 1 13 31
M  V30 32 1 14 32
M  V30 33 1 14 33
M  V30 END BOND
M  V30 END CTAB
M  END
