
     RDKit          3D

  0  0  0  0  0  0  0  0  0  0999 V3000
M  V30 BEGIN CTAB
M  V30 COUNTS 60 63 0 0 0
M  V30 BEGIN ATOM
M  V30 1 N 4.00078 -2.16172 3.2027 0
M  V30 2 C 3.44666 -1.49679 2.07628 0
M  V30 3 N 4.25584 -1.1117 1.07011 0
M  V30 4 C 3.77868 -0.484192 -0.00715208 0
M  V30 5 N 4.54908 -0.0433364 -1.1101 0
M  V30 6 C 5.97504 -0.202829 -1.2266 0
M  V30 7 C 6.65156 0.616467 -0.190046 0
M  V30 8 C 8.12871 0.523394 -0.227069 0
M  V30 9 C 8.77631 -0.438434 0.507464 0
M  V30 10 C 10.1656 -0.544961 0.488085 0
M  V30 11 C 10.8933 0.343847 -0.292085 0
M  V30 12 C 10.2464 1.30876 -1.0292 0
M  V30 13 C 8.87249 1.4136 -1.00961 0
M  V30 14 N 2.43701 -0.257211 -0.0307504 0
M  V30 15 C 1.59999 -0.620426 0.941352 0
M  V30 16 N 0.193563 -0.361811 0.876284 0
M  V30 17 C -0.303222 0.329015 -0.318308 0
M  V30 18 C -1.78844 0.514574 -0.217809 0
M  V30 19 C -2.67112 -0.421542 -0.69668 0
M  V30 20 C -4.05915 -0.247319 -0.60237 0
M  V30 21 C -4.56405 0.882853 -0.0187226 0
M  V30 22 C -3.65561 1.82067 0.460817 0
M  V30 23 C -2.29077 1.6481 0.367303 0
M  V30 24 C -6.01693 1.14698 0.130319 0
M  V30 25 O -6.37487 2.32051 0.386404 0
M  V30 26 N -6.92091 0.112643 -0.013396 0
M  V30 27 C -8.32095 0.159486 0.0871839 0
M  V30 28 C -9.06324 -1.02542 -0.0980239 0
M  V30 29 N -8.33924 -2.20099 -0.377224 0
M  V30 30 C -10.4247 -1.00685 -0.00550263 0
M  V30 31 C -11.1432 0.1376 0.267074 0
M  V30 32 C -10.4406 1.2864 0.447752 0
M  V30 33 C -9.05273 1.28458 0.356807 0
M  V30 34 N 2.1219 -1.25523 2.01887 0
M  V30 35 H 3.62492 -2.00715 4.16149 0
M  V30 36 H 4.79813 -2.81821 3.07825 0
M  V30 37 H 4.05133 0.439968 -1.91173 0
M  V30 38 H 6.17027 -1.29448 -1.13009 0
M  V30 39 H 6.29042 0.0762453 -2.2654 0
M  V30 40 H 6.27195 0.39174 0.807205 0
M  V30 41 H 6.3951 1.69389 -0.40916 0
M  V30 42 H 8.24229 -1.14674 1.12568 0
M  V30 43 H 10.6654 -1.30509 1.06948 0
M  V30 44 H 11.9677 0.233207 -0.284041 0
M  V30 45 H 10.8389 1.98278 -1.6239 0
M  V30 46 H 8.38448 2.18252 -1.59906 0
M  V30 47 H -0.425897 -0.651141 1.63569 0
M  V30 48 H 0.20191 1.29549 -0.423705 0
M  V30 49 H -0.0445953 -0.304937 -1.16923 0
M  V30 50 H -2.29058 -1.31227 -1.1564 0
M  V30 51 H -4.71964 -1.01531 -1.00108 0
M  V30 52 H -4.08757 2.71772 0.924091 0
M  V30 53 H -1.62199 2.4179 0.761175 0
M  V30 54 H -6.51237 -0.851101 -0.223052 0
M  V30 55 H -7.8529 -2.37775 -1.28404 0
M  V30 56 H -8.27243 -2.95227 0.351352 0
M  V30 57 H -10.9738 -1.9355 -0.152787 0
M  V30 58 H -12.2228 0.134977 0.337011 0
M  V30 59 H -10.9649 2.20684 0.663489 0
M  V30 60 H -8.57626 2.22995 0.512163 0
M  V30 END ATOM
M  V30 BEGIN BOND
M  V30 1 1 1 2
M  V30 2 2 2 3
M  V30 3 1 3 4
M  V30 4 1 4 5
M  V30 5 1 5 6
M  V30 6 1 6 7
M  V30 7 1 7 8
M  V30 8 2 8 9
M  V30 9 1 9 10
M  V30 10 2 10 11
M  V30 11 1 11 12
M  V30 12 2 12 13
M  V30 13 2 4 14
M  V30 14 1 14 15
M  V30 15 1 15 16
M  V30 16 1 16 17
M  V30 17 1 17 18
M  V30 18 2 18 19
M  V30 19 1 19 20
M  V30 20 2 20 21
M  V30 21 1 21 22
M  V30 22 2 22 23
M  V30 23 1 21 24
M  V30 24 2 24 25
M  V30 25 1 24 26
M  V30 26 1 26 27
M  V30 27 2 27 28
M  V30 28 1 28 29
M  V30 29 1 28 30
M  V30 30 2 30 31
M  V30 31 1 31 32
M  V30 32 2 32 33
M  V30 33 2 15 34
M  V30 34 1 34 2
M  V30 35 1 13 8
M  V30 36 1 23 18
M  V30 37 1 33 27
M  V30 38 1 1 35
M  V30 39 1 1 36
M  V30 40 1 5 37
M  V30 41 1 6 38
M  V30 42 1 6 39
M  V30 43 1 7 40
M  V30 44 1 7 41
M  V30 45 1 9 42
M  V30 46 1 10 43
M  V30 47 1 11 44
M  V30 48 1 12 45
M  V30 49 1 13 46
M  V30 50 1 16 47
M  V30 51 1 17 48
M  V30 52 1 17 49
M  V30 53 1 19 50
M  V30 54 1 20 51
M  V30 55 1 22 52
M  V30 56 1 23 53
M  V30 57 1 26 54
M  V30 58 1 29 55
M  V30 59 1 29 56
M  V30 60 1 30 57
M  V30 61 1 31 58
M  V30 62 1 32 59
M  V30 63 1 33 60
M  V30 END BOND
M  V30 END CTAB
M  END
