
     RDKit          3D

  0  0  0  0  0  0  0  0  0  0999 V3000
M  V30 BEGIN CTAB
M  V30 COUNTS 50 53 0 0 0
M  V30 BEGIN ATOM
M  V30 1 C 6.96557 1.50271 -0.233835 0
M  V30 2 C 6.24636 0.288461 0.355163 0
M  V30 3 C 4.85224 0.770672 0.757095 0
M  V30 4 C 4.05263 -0.371876 1.3587 0
M  V30 5 C 3.86515 -1.49091 0.415347 0
M  V30 6 C 3.0919 -1.27143 -0.819841 0
M  V30 7 N 1.70476 -0.931593 -0.665812 0
M  V30 8 C 0.683447 -1.84231 -0.551886 0
M  V30 9 O 0.873982 -3.07037 -0.55467 0
M  V30 10 C -0.526188 -1.20154 -0.439669 0
M  V30 11 C -0.267917 0.141997 -0.483381 0
M  V30 12 C 1.11945 0.263059 -0.623706 0
M  V30 13 O 1.63396 1.40763 -0.692171 0
M  V30 14 C -1.31295 1.03882 -0.39091 0
M  V30 15 N -1.01794 2.42721 -0.438877 0
M  V30 16 C -2.62384 0.628421 -0.254459 0
M  V30 17 C -3.67892 1.51231 -0.160795 0
M  V30 18 O -3.46058 2.742 -0.198992 0
M  V30 19 C -4.9853 1.09361 -0.0246716 0
M  V30 20 C -6.04041 1.99725 0.0687377 0
M  V30 21 C -7.3471 1.58684 0.204786 0
M  V30 22 C -7.60666 0.233036 0.248753 0
M  V30 23 C -6.56293 -0.649359 0.156199 0
M  V30 24 C -5.24695 -0.25949 0.0194957 0
M  V30 25 C -4.20024 -1.15565 -0.073168 0
M  V30 26 O -4.4752 -2.37863 -0.0294016 0
M  V30 27 C -2.88635 -0.742848 -0.209962 0
M  V30 28 C -1.83346 -1.62913 -0.303355 0
M  V30 29 N -2.13304 -3.01634 -0.254929 0
M  V30 30 H 6.34444 2.41062 -0.20808 0
M  V30 31 H 7.26498 1.33276 -1.28224 0
M  V30 32 H 7.88912 1.73588 0.34634 0
M  V30 33 H 6.81635 -0.0955207 1.21694 0
M  V30 34 H 6.21691 -0.485146 -0.419806 0
M  V30 35 H 5.00752 1.57319 1.50586 0
M  V30 36 H 4.40461 1.12788 -0.190008 0
M  V30 37 H 4.6417 -0.696302 2.25631 0
M  V30 38 H 3.10779 0.034073 1.78411 0
M  V30 39 H 3.40316 -2.35458 0.994417 0
M  V30 40 H 4.88881 -1.91375 0.167762 0
M  V30 41 H 3.64532 -0.487928 -1.42154 0
M  V30 42 H 3.20683 -2.19306 -1.46565 0
M  V30 43 H -1.07781 2.88048 -1.38075 0
M  V30 44 H -0.756281 2.95823 0.425286 0
M  V30 45 H -5.82204 3.04037 0.0330331 0
M  V30 46 H -8.17524 2.3 0.278051 0
M  V30 47 H -8.63467 -0.0705085 0.355535 0
M  V30 48 H -6.77736 -1.70417 0.191679 0
M  V30 49 H -2.2482 -3.52191 0.630451 0
M  V30 50 H -2.2294 -3.49317 -1.19933 0
M  V30 END ATOM
M  V30 BEGIN BOND
M  V30 1 1 1 2
M  V30 2 1 2 3
M  V30 3 1 3 4
M  V30 4 1 4 5
M  V30 5 1 5 6
M  V30 6 1 6 7
M  V30 7 1 7 8
M  V30 8 2 8 9
M  V30 9 1 8 10
M  V30 10 2 10 11
M  V30 11 1 11 12
M  V30 12 2 12 13
M  V30 13 1 11 14
M  V30 14 1 14 15
M  V30 15 2 14 16
M  V30 16 1 16 17
M  V30 17 2 17 18
M  V30 18 1 17 19
M  V30 19 2 19 20
M  V30 20 1 20 21
M  V30 21 2 21 22
M  V30 22 1 22 23
M  V30 23 2 23 24
M  V30 24 1 24 25
M  V30 25 2 25 26
M  V30 26 1 25 27
M  V30 27 2 27 28
M  V30 28 1 28 29
M  V30 29 1 12 7
M  V30 30 1 27 16
M  V30 31 1 28 10
M  V30 32 1 24 19
M  V30 33 1 1 30
M  V30 34 1 1 31
M  V30 35 1 1 32
M  V30 36 1 2 33
M  V30 37 1 2 34
M  V30 38 1 3 35
M  V30 39 1 3 36
M  V30 40 1 4 37
M  V30 41 1 4 38
M  V30 42 1 5 39
M  V30 43 1 5 40
M  V30 44 1 6 41
M  V30 45 1 6 42
M  V30 46 1 15 43
M  V30 47 1 15 44
M  V30 48 1 20 45
M  V30 49 1 21 46
M  V30 50 1 22 47
M  V30 51 1 23 48
M  V30 52 1 29 49
M  V30 53 1 29 50
M  V30 END BOND
M  V30 END CTAB
M  END
