
     RDKit          3D

  0  0  0  0  0  0  0  0  0  0999 V3000
M  V30 BEGIN CTAB
M  V30 COUNTS 17 17 0 0 0
M  V30 BEGIN ATOM
M  V30 1 N 2.90506 -1.16493 -0.110596 0
M  V30 2 C 1.62747 -0.528582 -0.0352576 0
M  V30 3 C 1.49202 0.811961 0.26235 0
M  V30 4 C 0.254384 1.41962 0.333808 0
M  V30 5 C -0.908707 0.694735 0.106106 0
M  V30 6 C -0.736814 -0.646313 -0.189869 0
M  V30 7 N -1.92216 -1.43092 -0.432623 0
M  V30 8 N 0.487086 -1.20903 -0.251794 0
M  V30 9 N -2.19034 1.29173 0.17367 0 CHG=1
M  V30 10 O -3.34713 0.627678 0.49341 0 CHG=-1
M  V30 11 O -2.28224 2.5092 -0.0742356 0
M  V30 12 H 3.60319 -1.08468 0.685357 0
M  V30 13 H 3.20867 -1.72413 -0.926317 0
M  V30 14 H 2.38968 1.39914 0.444716 0
M  V30 15 H 0.121347 2.46135 0.564108 0
M  V30 16 H -2.63735 -1.09672 -1.1147 0
M  V30 17 H -2.06416 -2.33012 0.0718643 0
M  V30 END ATOM
M  V30 BEGIN BOND
M  V30 1 1 1 2
M  V30 2 2 2 3
M  V30 3 1 3 4
M  V30 4 2 4 5
M  V30 5 1 5 6
M  V30 6 1 6 7
M  V30 7 2 6 8
M  V30 8 1 5 9
M  V30 9 1 9 10
M  V30 10 2 9 11
M  V30 11 1 8 2
M  V30 12 1 1 12
M  V30 13 1 1 13
M  V30 14 1 3 14
M  V30 15 1 4 15
M  V30 16 1 7 16
M  V30 17 1 7 17
M  V30 END BOND
M  V30 END CTAB
M  END
