
     RDKit          3D

  0  0  0  0  0  0  0  0  0  0999 V3000
M  V30 BEGIN CTAB
M  V30 COUNTS 27 28 0 0 0
M  V30 BEGIN ATOM
M  V30 1 N -4.14274 -2.01016 -0.751481 0
M  V30 2 C -3.32141 -0.841055 -0.609113 0
M  V30 3 N -2.03496 -0.894654 -0.946597 0
M  V30 4 C -1.26171 0.191274 -0.816821 0
M  V30 5 S 0.444454 0.0765661 -1.27728 0
M  V30 6 C 1.44348 -0.451753 0.163398 0
M  V30 7 C 2.87446 -0.524752 -0.310059 0
M  V30 8 C 3.88459 -0.943049 0.715494 0
M  V30 9 C 4.7615 0.0866293 0.0228929 0
M  V30 10 N 3.53962 0.767581 -0.370909 0
M  V30 11 N -1.7265 1.37325 -0.349032 0
M  V30 12 C -3.02843 1.42613 -0.00789891 0
M  V30 13 C -3.85561 0.330285 -0.127157 0
M  V30 14 N -3.56406 2.64452 0.488353 0
M  V30 15 H -3.99462 -2.64711 -1.55911 0
M  V30 16 H -4.86312 -2.15712 -0.0127948 0
M  V30 17 H 1.39093 0.329633 0.958359 0
M  V30 18 H 1.07729 -1.38064 0.597363 0
M  V30 19 H 3.00848 -1.0727 -1.27624 0
M  V30 20 H 3.63682 -0.647107 1.74274 0
M  V30 21 H 4.31707 -1.95514 0.591904 0
M  V30 22 H 5.25771 -0.311575 -0.900713 0
M  V30 23 H 5.41754 0.6601 0.695455 0
M  V30 24 H 3.15398 1.36575 0.418899 0
M  V30 25 H -4.90751 0.383328 0.151581 0
M  V30 26 H -2.96308 3.26952 1.08209 0
M  V30 27 H -4.54417 2.93223 0.274876 0
M  V30 END ATOM
M  V30 BEGIN BOND
M  V30 1 1 1 2
M  V30 2 2 2 3
M  V30 3 1 3 4
M  V30 4 1 4 5
M  V30 5 1 5 6
M  V30 6 1 6 7
M  V30 7 1 7 8
M  V30 8 1 8 9
M  V30 9 1 9 10
M  V30 10 2 4 11
M  V30 11 1 11 12
M  V30 12 2 12 13
M  V30 13 1 12 14
M  V30 14 1 13 2
M  V30 15 1 10 7
M  V30 16 1 1 15
M  V30 17 1 1 16
M  V30 18 1 6 17
M  V30 19 1 6 18
M  V30 20 1 7 19
M  V30 21 1 8 20
M  V30 22 1 8 21
M  V30 23 1 9 22
M  V30 24 1 9 23
M  V30 25 1 10 24
M  V30 26 1 13 25
M  V30 27 1 14 26
M  V30 28 1 14 27
M  V30 END BOND
M  V30 END CTAB
M  END
