
     RDKit          3D

  0  0  0  0  0  0  0  0  0  0999 V3000
M  V30 BEGIN CTAB
M  V30 COUNTS 24 24 0 0 0
M  V30 BEGIN ATOM
M  V30 1 C 3.56295 -0.972839 -0.0710207 0
M  V30 2 C 2.12187 -0.588312 -0.0345516 0
M  V30 3 C 1.27855 -1.13027 0.906363 0
M  V30 4 C -0.0575968 -0.839124 1.01845 0
M  V30 5 N -0.910538 -1.39114 1.97469 0
M  V30 6 C -0.587026 0.084191 0.0940896 0
M  V30 7 C 0.246736 0.625023 -0.842043 0
M  V30 8 N 1.58431 0.282043 -0.892535 0
M  V30 9 C -0.265349 1.60276 -1.83361 0
M  V30 10 C -1.98453 0.385194 0.215299 0
M  V30 11 N -2.71531 -0.168144 1.1321 0
M  V30 12 N -2.6655 1.27891 -0.626513 0
M  V30 13 H 3.88806 -1.35931 0.913061 0
M  V30 14 H 3.78153 -1.70365 -0.877236 0
M  V30 15 H 4.14203 -0.0507548 -0.343332 0
M  V30 16 H 1.68961 -1.84018 1.6157 0
M  V30 17 H -1.45463 -2.27101 1.85296 0
M  V30 18 H -1.00677 -0.874959 2.90144 0
M  V30 19 H 0.604044 1.93813 -2.50045 0
M  V30 20 H -0.586859 2.5048 -1.29397 0
M  V30 21 H -1.03724 1.24076 -2.49623 0
M  V30 22 H -3.71508 0.0753947 1.18495 0
M  V30 23 H -2.78109 2.29454 -0.503826 0
M  V30 24 H -3.13217 0.877941 -1.4938 0
M  V30 END ATOM
M  V30 BEGIN BOND
M  V30 1 1 1 2
M  V30 2 2 2 3
M  V30 3 1 3 4
M  V30 4 1 4 5
M  V30 5 2 4 6
M  V30 6 1 6 7
M  V30 7 2 7 8
M  V30 8 1 7 9
M  V30 9 1 6 10
M  V30 10 2 10 11 CFG=2
M  V30 11 1 10 12
M  V30 12 1 8 2
M  V30 13 1 1 13
M  V30 14 1 1 14
M  V30 15 1 1 15
M  V30 16 1 3 16
M  V30 17 1 5 17
M  V30 18 1 5 18
M  V30 19 1 9 19
M  V30 20 1 9 20
M  V30 21 1 9 21
M  V30 22 1 11 22
M  V30 23 1 12 23
M  V30 24 1 12 24
M  V30 END BOND
M  V30 END CTAB
M  END
