
     RDKit          3D

  0  0  0  0  0  0  0  0  0  0999 V3000
M  V30 BEGIN CTAB
M  V30 COUNTS 25 26 0 0 0
M  V30 BEGIN ATOM
M  V30 1 C 3.9865 0.210669 0.294767 0
M  V30 2 N 2.60185 -0.250941 0.348011 0
M  V30 3 N 2.20542 -1.45547 0.695958 0
M  V30 4 C 0.857523 -1.50851 0.624851 0
M  V30 5 C 0.426715 -0.278339 0.215219 0
M  V30 6 C 1.5427 0.515335 0.0414607 0
M  V30 7 C 1.59936 1.92817 -0.392986 0
M  V30 8 C -0.9468 0.139481 -0.00332256 0
M  V30 9 N -1.29357 1.39637 -0.414465 0
M  V30 10 N -2.60748 1.42898 -0.510056 0
M  V30 11 C -3.15332 0.250882 -0.18136 0
M  V30 12 N -2.09594 -0.542531 0.132742 0
M  V30 13 N -2.21415 -1.88412 0.539801 0
M  V30 14 N -4.52373 -0.128986 -0.15313 0
M  V30 15 H 4.40781 0.101096 -0.738452 0
M  V30 16 H 4.59582 -0.327934 1.04732 0
M  V30 17 H 4.05621 1.29544 0.549866 0
M  V30 18 H 0.261057 -2.37713 0.855584 0
M  V30 19 H 2.65077 2.16951 -0.6433 0
M  V30 20 H 1.25063 2.59349 0.432949 0
M  V30 21 H 1.02412 2.10082 -1.32841 0
M  V30 22 H -2.36509 -2.11985 1.53863 0
M  V30 23 H -2.15555 -2.67836 -0.135149 0
M  V30 24 H -5.25072 0.434401 0.327674 0
M  V30 25 H -4.86014 -1.01245 -0.627435 0
M  V30 END ATOM
M  V30 BEGIN BOND
M  V30 1 1 1 2
M  V30 2 1 2 3
M  V30 3 2 3 4
M  V30 4 1 4 5
M  V30 5 2 5 6
M  V30 6 1 6 7
M  V30 7 1 5 8
M  V30 8 2 8 9
M  V30 9 1 9 10
M  V30 10 2 10 11
M  V30 11 1 11 12
M  V30 12 1 12 13
M  V30 13 1 11 14
M  V30 14 1 6 2
M  V30 15 1 12 8
M  V30 16 1 1 15
M  V30 17 1 1 16
M  V30 18 1 1 17
M  V30 19 1 4 18
M  V30 20 1 7 19
M  V30 21 1 7 20
M  V30 22 1 7 21
M  V30 23 1 13 22
M  V30 24 1 13 23
M  V30 25 1 14 24
M  V30 26 1 14 25
M  V30 END BOND
M  V30 END CTAB
M  END
