
     RDKit          3D

  0  0  0  0  0  0  0  0  0  0999 V3000
M  V30 BEGIN CTAB
M  V30 COUNTS 21 22 0 0 0
M  V30 BEGIN ATOM
M  V30 1 N -2.66438 -2.16032 0.403261 0
M  V30 2 C -1.72279 -1.11825 0.193132 0
M  V30 3 N -0.419756 -1.29667 0.336964 0
M  V30 4 C 0.520931 -0.353943 0.153426 0
M  V30 5 N 0.0896304 0.867296 -0.205866 0
M  V30 6 C -1.22589 1.1089 -0.367565 0
M  V30 7 C -2.18351 0.13163 -0.17601 0
M  V30 8 N -1.71387 2.40324 -0.75062 0
M  V30 9 C 1.9478 -0.671796 0.343808 0
M  V30 10 C 2.89908 0.00951651 -0.601425 0
M  V30 11 C 2.89924 0.348334 0.846703 0
M  V30 12 H -3.17387 -2.18444 1.30473 0
M  V30 13 H -2.82315 -2.86172 -0.328605 0
M  V30 14 H -3.24812 0.307376 -0.301557 0
M  V30 15 H -1.34308 3.27326 -0.350171 0
M  V30 16 H -2.47403 2.42843 -1.46482 0
M  V30 17 H 2.17489 -1.71305 0.640131 0
M  V30 18 H 2.47301 0.793988 -1.26928 0
M  V30 19 H 3.69492 -0.653982 -1.01844 0
M  V30 20 H 2.50934 1.32907 1.1767 0
M  V30 21 H 3.78364 0.0131187 1.43551 0
M  V30 END ATOM
M  V30 BEGIN BOND
M  V30 1 1 1 2
M  V30 2 2 2 3
M  V30 3 1 3 4
M  V30 4 2 4 5
M  V30 5 1 5 6
M  V30 6 2 6 7
M  V30 7 1 6 8
M  V30 8 1 4 9
M  V30 9 1 9 10
M  V30 10 1 10 11
M  V30 11 1 7 2
M  V30 12 1 11 9
M  V30 13 1 1 12
M  V30 14 1 1 13
M  V30 15 1 7 14
M  V30 16 1 8 15
M  V30 17 1 8 16
M  V30 18 1 9 17
M  V30 19 1 10 18
M  V30 20 1 10 19
M  V30 21 1 11 20
M  V30 22 1 11 21
M  V30 END BOND
M  V30 END CTAB
M  END
