
     RDKit          3D

  0  0  0  0  0  0  0  0  0  0999 V3000
M  V30 BEGIN CTAB
M  V30 COUNTS 34 35 0 0 0
M  V30 BEGIN ATOM
M  V30 1 N 4.95155 -2.42866 0.154422 0
M  V30 2 C 4.21255 -1.22212 0.212747 0
M  V30 3 C 4.89272 -0.0364897 0.0368981 0
M  V30 4 C 4.19115 1.15499 0.0897925 0
M  V30 5 N 4.91348 2.3659 -0.0944199 0
M  V30 6 N 2.86671 1.10735 0.311881 0
M  V30 7 C 2.1902 -0.0367653 0.484907 0
M  V30 8 N 2.88247 -1.18887 0.431452 0
M  V30 9 S 0.42909 0.0563577 0.771887 0
M  V30 10 C -0.399803 0.00740635 -0.81511 0
M  V30 11 C -1.89181 0.077953 -0.721357 0
M  V30 12 C -2.44486 -1.08731 0.0865717 0
M  V30 13 C -3.88021 -1.27988 -0.390403 0
M  V30 14 C -4.74126 -0.300559 0.374544 0
M  V30 15 S -3.93753 1.23107 0.658842 0
M  V30 16 O -3.71645 1.45366 2.1462 0
M  V30 17 O -4.89668 2.3343 0.234426 0
M  V30 18 C -2.40805 1.39361 -0.222318 0
M  V30 19 H 5.9367 -2.52912 0.436859 0
M  V30 20 H 4.45684 -3.28587 -0.204203 0
M  V30 21 H 5.95891 -0.0372136 -0.139788 0
M  V30 22 H 4.53232 3.16219 -0.644974 0
M  V30 23 H 5.85868 2.44439 0.344243 0
M  V30 24 H -0.146361 -0.962468 -1.3034 0
M  V30 25 H -0.0526792 0.860134 -1.43764 0
M  V30 26 H -2.29249 -0.0579639 -1.75428 0
M  V30 27 H -1.868 -1.98129 -0.208103 0
M  V30 28 H -2.41866 -0.897789 1.16663 0
M  V30 29 H -3.9773 -1.03456 -1.46928 0
M  V30 30 H -4.24113 -2.29786 -0.179494 0
M  V30 31 H -4.96661 -0.799901 1.35963 0
M  V30 32 H -5.7406 -0.185208 -0.111817 0
M  V30 33 H -2.56927 2.11226 -1.06342 0
M  V30 34 H -1.68362 1.88833 0.463749 0
M  V30 END ATOM
M  V30 BEGIN BOND
M  V30 1 1 1 2
M  V30 2 2 2 3
M  V30 3 1 3 4
M  V30 4 1 4 5
M  V30 5 2 4 6
M  V30 6 1 6 7
M  V30 7 2 7 8
M  V30 8 1 7 9
M  V30 9 1 9 10
M  V30 10 1 10 11
M  V30 11 1 11 12
M  V30 12 1 12 13
M  V30 13 1 13 14
M  V30 14 1 14 15
M  V30 15 2 15 16
M  V30 16 2 15 17
M  V30 17 1 15 18
M  V30 18 1 8 2
M  V30 19 1 18 11
M  V30 20 1 1 19
M  V30 21 1 1 20
M  V30 22 1 3 21
M  V30 23 1 5 22
M  V30 24 1 5 23
M  V30 25 1 10 24
M  V30 26 1 10 25
M  V30 27 1 11 26
M  V30 28 1 12 27
M  V30 29 1 12 28
M  V30 30 1 13 29
M  V30 31 1 13 30
M  V30 32 1 14 31
M  V30 33 1 14 32
M  V30 34 1 18 33
M  V30 35 1 18 34
M  V30 END BOND
M  V30 END CTAB
M  END
