
     RDKit          3D

  0  0  0  0  0  0  0  0  0  0999 V3000
M  V30 BEGIN CTAB
M  V30 COUNTS 43 45 0 0 0
M  V30 BEGIN ATOM
M  V30 1 C 6.8539 0.638448 1.23819 0
M  V30 2 C 6.32944 0.567228 -0.165339 0
M  V30 3 N 5.29862 -0.41227 -0.341538 0
M  V30 4 C 5.43805 -1.70937 -0.681159 0
M  V30 5 N 6.66504 -2.38304 -0.939205 0
M  V30 6 N 4.22719 -2.25185 -0.733435 0
M  V30 7 C 3.26733 -1.32847 -0.4308 0
M  V30 8 C 3.9753 -0.170851 -0.186572 0
M  V30 9 N 3.24429 0.90722 0.139203 0
M  V30 10 C 1.89647 0.89879 0.232384 0
M  V30 11 C 1.16281 -0.242893 -0.00597669 0
M  V30 12 C 1.89705 -1.38379 -0.347954 0
M  V30 13 C -0.2918 -0.299076 0.0826375 0
M  V30 14 O -0.843156 -1.39885 -0.159408 0
M  V30 15 N -1.04377 0.830874 0.424657 0
M  V30 16 C -2.48565 0.818417 0.521046 0
M  V30 17 C -3.17736 0.456197 -0.773822 0
M  V30 18 C -4.66071 0.496082 -0.497169 0
M  V30 19 N -5.29842 -0.610099 -0.0727702 0
M  V30 20 C -6.62469 -0.607782 0.183666 0
M  V30 21 N -7.30904 -1.76314 0.630483 0
M  V30 22 C -7.36827 0.550725 0.0127681 0
M  V30 23 C -6.70403 1.6778 -0.422454 0
M  V30 24 N -5.38248 1.61516 -0.661573 0
M  V30 25 O -7.44897 2.83652 -0.593141 0
M  V30 26 H 7.27616 1.66559 1.37668 0
M  V30 27 H 7.73266 -0.05187 1.38435 0
M  V30 28 H 6.0793 0.487655 2.00674 0
M  V30 29 H 5.91204 1.56247 -0.422591 0
M  V30 30 H 7.1959 0.415254 -0.840336 0
M  V30 31 H 7.28274 -2.72824 -0.147617 0
M  V30 32 H 7.03072 -2.57804 -1.89543 0
M  V30 33 H 1.40866 1.82827 0.503156 0
M  V30 34 H 1.35358 -2.29091 -0.540137 0
M  V30 35 H -0.572023 1.75452 0.629125 0
M  V30 36 H -2.72908 0.0407562 1.29681 0
M  V30 37 H -2.8885 1.76349 0.933771 0
M  V30 38 H -2.97353 1.19101 -1.57428 0
M  V30 39 H -2.93019 -0.559078 -1.07486 0
M  V30 40 H -7.76911 -2.38347 -0.0391433 0
M  V30 41 H -7.33486 -1.96813 1.64847 0
M  V30 42 H -8.42831 0.535121 0.222477 0
M  V30 43 H -7.2633 3.58363 0.0800923 0
M  V30 END ATOM
M  V30 BEGIN BOND
M  V30 1 1 1 2
M  V30 2 1 2 3
M  V30 3 1 3 4
M  V30 4 1 4 5
M  V30 5 2 4 6
M  V30 6 1 6 7
M  V30 7 2 7 8
M  V30 8 1 8 9
M  V30 9 2 9 10
M  V30 10 1 10 11
M  V30 11 2 11 12
M  V30 12 1 11 13
M  V30 13 2 13 14
M  V30 14 1 13 15
M  V30 15 1 15 16
M  V30 16 1 16 17
M  V30 17 1 17 18
M  V30 18 2 18 19
M  V30 19 1 19 20
M  V30 20 1 20 21
M  V30 21 2 20 22
M  V30 22 1 22 23
M  V30 23 2 23 24
M  V30 24 1 23 25
M  V30 25 1 8 3
M  V30 26 1 24 18
M  V30 27 1 12 7
M  V30 28 1 1 26
M  V30 29 1 1 27
M  V30 30 1 1 28
M  V30 31 1 2 29
M  V30 32 1 2 30
M  V30 33 1 5 31
M  V30 34 1 5 32
M  V30 35 1 10 33
M  V30 36 1 12 34
M  V30 37 1 15 35
M  V30 38 1 16 36
M  V30 39 1 16 37
M  V30 40 1 17 38
M  V30 41 1 17 39
M  V30 42 1 21 40
M  V30 43 1 21 41
M  V30 44 1 22 42
M  V30 45 1 25 43
M  V30 END BOND
M  V30 END CTAB
M  END
