
     RDKit          3D

  0  0  0  0  0  0  0  0  0  0999 V3000
M  V30 BEGIN CTAB
M  V30 COUNTS 119 121 0 0 0
M  V30 BEGIN ATOM
M  V30 1 C 7.19725 -1.35484 -0.833397 0 CFG=1
M  V30 2 N 7.322 -0.357109 -1.85186 0
M  V30 3 C 8.39674 -1.43864 0.0467331 0
M  V30 4 C 9.66182 -1.77961 -0.615792 0
M  V30 5 C 10.2058 -3.05645 -0.76622 0
M  V30 6 N 11.3243 -2.95745 -1.4562 0
M  V30 7 C 11.5794 -1.67405 -1.78889 0
M  V30 8 C 10.5253 -0.932818 -1.25481 0
M  V30 9 C 10.5799 0.432827 -1.46142 0
M  V30 10 C 11.5962 1.06276 -2.15027 0
M  V30 11 C 12.6272 0.294013 -2.66851 0
M  V30 12 C 12.6105 -1.06438 -2.4844 0
M  V30 13 C 6.02928 -1.0448 0.020841 0
M  V30 14 O 5.749 -1.84907 0.961532 0
M  V30 15 N 5.23866 0.114845 -0.198972 0
M  V30 16 C 4.09688 0.423503 0.616762 0 CFG=1
M  V30 17 C 3.81042 1.78599 1.02963 0
M  V30 18 C 4.63423 2.64082 1.87553 0
M  V30 19 C 5.95487 3.17 1.64054 0
M  V30 20 C 7.10702 2.27403 1.52655 0
M  V30 21 N 7.29923 1.3937 2.67598 0
M  V30 22 C 2.89213 -0.260334 -0.0185312 0
M  V30 23 O 3.02147 -0.846221 -1.13115 0
M  V30 24 N 1.64529 -0.267423 0.59716 0
M  V30 25 C 0.481124 -0.933025 0.0122277 0 CFG=1
M  V30 26 C 0.190976 -2.2418 0.637803 0
M  V30 27 C -0.101567 -2.28707 2.05886 0
M  V30 28 C 0.962146 -2.40338 2.96062 0
M  V30 29 C 0.765008 -2.47587 4.32275 0
M  V30 30 C -0.517963 -2.43613 4.86738 0
M  V30 31 O -0.726689 -2.50862 6.24071 0
M  V30 32 C -1.56365 -2.32159 3.97941 0
M  V30 33 C -1.34965 -2.25099 2.62508 0
M  V30 34 C -0.606559 -0.0238621 -0.267707 0
M  V30 35 O -0.489874 1.21284 -0.0521408 0
M  V30 36 N -1.83641 -0.482582 -0.800317 0
M  V30 37 C -2.96661 0.329687 -1.15082 0 CFG=1
M  V30 38 C -3.39968 0.0888268 -2.58009 0
M  V30 39 C -2.28764 0.415225 -3.55973 0
M  V30 40 S -2.93417 0.054855 -5.22935 0
M  V30 41 C -4.29935 1.23091 -5.56551 0
M  V30 42 C -4.09069 0.319549 -0.201444 0
M  V30 43 O -4.00445 -0.352097 0.838578 0
M  V30 44 N -5.25097 1.06122 -0.464635 0
M  V30 45 C -6.43351 1.19778 0.306144 0 CFG=1
M  V30 46 C -6.76478 2.52709 0.848417 0
M  V30 47 C -5.66832 3.05003 1.79547 0
M  V30 48 C -7.0826 3.61889 -0.105026 0
M  V30 49 C -7.56086 0.555631 -0.397753 0
M  V30 50 O -7.33449 -0.144642 -1.44348 0
M  V30 51 N -8.89245 0.684662 0.0371722 0
M  V30 52 C -10.0164 0.0291372 -0.657625 0 CFG=1
M  V30 53 C -11.1811 -0.104363 0.265936 0
M  V30 54 C -11.0212 -0.886596 1.51043 0
M  V30 55 S -10.677 -2.62004 1.23994 0
M  V30 56 C -9.07556 -2.99486 0.539975 0
M  V30 57 C -10.4855 1.00037 -1.73141 0
M  V30 58 O -11.5097 0.606894 -2.53543 0
M  V30 59 O -9.9306 2.0822 -1.82923 0
M  V30 60 H 7.02039 -2.37155 -1.32756 0
M  V30 61 H 7.45619 0.585495 -1.44758 0
M  V30 62 H 6.4353 -0.330167 -2.41467 0
M  V30 63 H 8.49984 -0.454559 0.580799 0
M  V30 64 H 8.22018 -2.23533 0.826483 0
M  V30 65 H 9.71604 -3.93693 -0.344337 0
M  V30 66 H 11.9571 -3.75646 -1.73137 0
M  V30 67 H 9.77676 1.03349 -1.03701 0
M  V30 68 H 11.5797 2.13578 -2.27758 0
M  V30 69 H 13.4143 0.822381 -3.20764 0
M  V30 70 H 13.393 -1.67076 -2.8703 0
M  V30 71 H 5.50368 0.751563 -0.975349 0
M  V30 72 H 4.25535 -0.187458 1.58199 0
M  V30 73 H 2.7606 1.75085 1.54317 0
M  V30 74 H 3.49199 2.4146 0.0803205 0
M  V30 75 H 4.72907 2.01742 2.88212 0
M  V30 76 H 3.94175 3.47238 2.32573 0
M  V30 77 H 6.17416 3.89866 2.50611 0
M  V30 78 H 5.97247 3.83725 0.703041 0
M  V30 79 H 7.27092 1.78143 0.59021 0
M  V30 80 H 8.03469 2.98471 1.6446 0
M  V30 81 H 8.26337 0.992327 2.57684 0
M  V30 82 H 6.58648 0.64599 2.68693 0
M  V30 83 H 1.5037 0.207173 1.51474 0
M  V30 84 H 0.883015 -1.21737 -1.04079 0
M  V30 85 H 1.01837 -2.94522 0.342548 0
M  V30 86 H -0.697221 -2.67549 0.0879116 0
M  V30 87 H 1.99009 -2.44136 2.63741 0
M  V30 88 H 1.57569 -2.5694 5.03345 0
M  V30 89 H -0.737676 -1.60702 6.71629 0
M  V30 90 H -2.56611 -2.28796 4.37638 0
M  V30 91 H -2.18635 -2.16965 1.98696 0
M  V30 92 H -1.96852 -1.52906 -0.976058 0
M  V30 93 H -2.57486 1.39703 -1.11421 0
M  V30 94 H -4.26689 0.710257 -2.8594 0
M  V30 95 H -3.68355 -0.967177 -2.75632 0
M  V30 96 H -1.43485 -0.270067 -3.3977 0
M  V30 97 H -2.01624 1.48411 -3.52897 0
M  V30 98 H -4.13289 2.1815 -5.03945 0
M  V30 99 H -5.26561 0.749829 -5.22375 0
M  V30 100 H -4.31578 1.42928 -6.65586 0
M  V30 101 H -5.26582 1.60893 -1.37208 0
M  V30 102 H -6.22679 0.553624 1.24717 0
M  V30 103 H -7.65984 2.40341 1.53152 0
M  V30 104 H -5.0265 2.21199 2.14361 0
M  V30 105 H -5.1041 3.83595 1.28178 0
M  V30 106 H -6.09982 3.5087 2.70724 0
M  V30 107 H -7.41017 3.30142 -1.1136 0
M  V30 108 H -6.12412 4.19176 -0.30197 0
M  V30 109 H -7.74502 4.40051 0.336383 0
M  V30 110 H -9.16941 1.2475 0.873704 0
M  V30 111 H -9.68678 -0.859767 -1.19506 0
M  V30 112 H -12.0529 -0.484325 -0.342174 0
M  V30 113 H -11.4218 0.961554 0.594645 0
M  V30 114 H -10.2578 -0.397926 2.17487 0
M  V30 115 H -11.9917 -0.751279 2.09081 0
M  V30 116 H -8.28977 -2.24291 0.721832 0
M  V30 117 H -9.17141 -3.10441 -0.570278 0
M  V30 118 H -8.74707 -4.01116 0.889766 0
M  V30 119 H -11.5711 0.646067 -3.52235 0
M  V30 END ATOM
M  V30 BEGIN BOND
M  V30 1 1 1 2
M  V30 2 1 1 3
M  V30 3 1 3 4
M  V30 4 2 4 5
M  V30 5 1 5 6
M  V30 6 1 6 7
M  V30 7 2 7 8
M  V30 8 1 8 9
M  V30 9 2 9 10
M  V30 10 1 10 11
M  V30 11 2 11 12
M  V30 12 1 1 13
M  V30 13 2 13 14
M  V30 14 1 13 15
M  V30 15 1 15 16
M  V30 16 1 16 17
M  V30 17 1 17 18
M  V30 18 1 18 19
M  V30 19 1 19 20
M  V30 20 1 20 21
M  V30 21 1 16 22
M  V30 22 2 22 23
M  V30 23 1 22 24
M  V30 24 1 24 25
M  V30 25 1 25 26
M  V30 26 1 26 27
M  V30 27 2 27 28
M  V30 28 1 28 29
M  V30 29 2 29 30
M  V30 30 1 30 31
M  V30 31 1 30 32
M  V30 32 2 32 33
M  V30 33 1 25 34
M  V30 34 2 34 35
M  V30 35 1 34 36
M  V30 36 1 36 37
M  V30 37 1 37 38
M  V30 38 1 38 39
M  V30 39 1 39 40
M  V30 40 1 40 41
M  V30 41 1 37 42
M  V30 42 2 42 43
M  V30 43 1 42 44
M  V30 44 1 44 45
M  V30 45 1 45 46
M  V30 46 1 46 47
M  V30 47 1 46 48
M  V30 48 1 45 49
M  V30 49 2 49 50
M  V30 50 1 49 51
M  V30 51 1 51 52
M  V30 52 1 52 53
M  V30 53 1 53 54
M  V30 54 1 54 55
M  V30 55 1 55 56
M  V30 56 1 52 57
M  V30 57 1 57 58
M  V30 58 2 57 59
M  V30 59 1 8 4
M  V30 60 1 33 27
M  V30 61 1 12 7
M  V30 62 1 1 60 CFG=3
M  V30 63 1 2 61
M  V30 64 1 2 62
M  V30 65 1 3 63
M  V30 66 1 3 64
M  V30 67 1 5 65
M  V30 68 1 6 66
M  V30 69 1 9 67
M  V30 70 1 10 68
M  V30 71 1 11 69
M  V30 72 1 12 70
M  V30 73 1 15 71
M  V30 74 1 16 72 CFG=1
M  V30 75 1 17 73
M  V30 76 1 17 74
M  V30 77 1 18 75
M  V30 78 1 18 76
M  V30 79 1 19 77
M  V30 80 1 19 78
M  V30 81 1 20 79
M  V30 82 1 20 80
M  V30 83 1 21 81
M  V30 84 1 21 82
M  V30 85 1 24 83
M  V30 86 1 25 84 CFG=3
M  V30 87 1 26 85
M  V30 88 1 26 86
M  V30 89 1 28 87
M  V30 90 1 29 88
M  V30 91 1 31 89
M  V30 92 1 32 90
M  V30 93 1 33 91
M  V30 94 1 36 92
M  V30 95 1 37 93 CFG=3
M  V30 96 1 38 94
M  V30 97 1 38 95
M  V30 98 1 39 96
M  V30 99 1 39 97
M  V30 100 1 41 98
M  V30 101 1 41 99
M  V30 102 1 41 100
M  V30 103 1 44 101
M  V30 104 1 45 102 CFG=1
M  V30 105 1 46 103
M  V30 106 1 47 104
M  V30 107 1 47 105
M  V30 108 1 47 106
M  V30 109 1 48 107
M  V30 110 1 48 108
M  V30 111 1 48 109
M  V30 112 1 51 110
M  V30 113 1 52 111 CFG=3
M  V30 114 1 53 112
M  V30 115 1 53 113
M  V30 116 1 54 114
M  V30 117 1 54 115
M  V30 118 1 56 116
M  V30 119 1 56 117
M  V30 120 1 56 118
M  V30 121 1 58 119
M  V30 END BOND
M  V30 END CTAB
M  END
