
     RDKit          3D

  0  0  0  0  0  0  0  0  0  0999 V3000
M  V30 BEGIN CTAB
M  V30 COUNTS 41 43 0 0 0
M  V30 BEGIN ATOM
M  V30 1 C 5.90219 1.69779 -0.989942 0
M  V30 2 O 4.90126 0.67707 -1.09128 0
M  V30 3 C 3.75226 0.849031 -0.328919 0
M  V30 4 C 3.55722 1.93914 0.494284 0
M  V30 5 C 2.37909 2.02968 1.2198 0
M  V30 6 C 1.38086 1.08598 1.16722 0
M  V30 7 N 0.199583 1.2379 1.95175 0
M  V30 8 C -0.932471 0.374524 1.85811 0
M  V30 9 C -1.64808 0.452538 0.563168 0
M  V30 10 C -1.43626 1.22484 -0.553579 0
M  V30 11 N -2.36389 0.951236 -1.48819 0
M  V30 12 C -3.18174 0.0136087 -1.00658 0
M  V30 13 C -2.7539 -0.307508 0.262882 0
M  V30 14 C -3.46177 -1.26649 0.956221 0
M  V30 15 N -3.03431 -1.60224 2.25258 0
M  V30 16 N -4.54158 -1.89458 0.448971 0
M  V30 17 C -4.9387 -1.56138 -0.795217 0
M  V30 18 N -6.06149 -2.15692 -1.43058 0
M  V30 19 N -4.26703 -0.630109 -1.49308 0
M  V30 20 C 1.58866 0.00153059 0.340647 0
M  V30 21 C 2.76815 -0.117805 -0.404544 0
M  V30 22 O 2.96041 -1.20641 -1.22519 0
M  V30 23 C 1.96676 -2.21095 -1.32007 0
M  V30 24 H 6.20471 1.80364 0.0746587 0
M  V30 25 H 5.48966 2.66126 -1.33238 0
M  V30 26 H 6.78029 1.46926 -1.60309 0
M  V30 27 H 4.33563 2.70957 0.557879 0
M  V30 28 H 2.24018 2.88972 1.86079 0
M  V30 29 H 0.193339 2.052 2.63739 0
M  V30 30 H -0.549191 -0.664556 2.04464 0
M  V30 31 H -1.61775 0.62052 2.71676 0
M  V30 32 H -0.635699 1.94794 -0.649067 0
M  V30 33 H -2.45112 1.39284 -2.45224 0
M  V30 34 H -2.27913 -2.30634 2.45232 0
M  V30 35 H -3.46842 -1.14734 3.08266 0
M  V30 36 H -6.04676 -3.10575 -1.85181 0
M  V30 37 H -6.94735 -1.61984 -1.47971 0
M  V30 38 H 0.843697 -0.767997 0.261867 0
M  V30 39 H 0.969403 -1.77718 -1.52397 0
M  V30 40 H 1.98296 -2.90377 -0.460734 0
M  V30 41 H 2.22031 -2.83445 -2.22612 0
M  V30 END ATOM
M  V30 BEGIN BOND
M  V30 1 1 1 2
M  V30 2 1 2 3
M  V30 3 2 3 4
M  V30 4 1 4 5
M  V30 5 2 5 6
M  V30 6 1 6 7
M  V30 7 1 7 8
M  V30 8 1 8 9
M  V30 9 2 9 10
M  V30 10 1 10 11
M  V30 11 1 11 12
M  V30 12 2 12 13
M  V30 13 1 13 14
M  V30 14 1 14 15
M  V30 15 2 14 16
M  V30 16 1 16 17
M  V30 17 1 17 18
M  V30 18 2 17 19
M  V30 19 1 6 20
M  V30 20 2 20 21
M  V30 21 1 21 22
M  V30 22 1 22 23
M  V30 23 1 21 3
M  V30 24 1 13 9
M  V30 25 1 19 12
M  V30 26 1 1 24
M  V30 27 1 1 25
M  V30 28 1 1 26
M  V30 29 1 4 27
M  V30 30 1 5 28
M  V30 31 1 7 29
M  V30 32 1 8 30
M  V30 33 1 8 31
M  V30 34 1 10 32
M  V30 35 1 11 33
M  V30 36 1 15 34
M  V30 37 1 15 35
M  V30 38 1 18 36
M  V30 39 1 18 37
M  V30 40 1 20 38
M  V30 41 1 23 39
M  V30 42 1 23 40
M  V30 43 1 23 41
M  V30 END BOND
M  V30 END CTAB
M  END
