
     RDKit          3D

  0  0  0  0  0  0  0  0  0  0999 V3000
M  V30 BEGIN CTAB
M  V30 COUNTS 26 26 0 0 0
M  V30 BEGIN ATOM
M  V30 1 N 3.72762 -0.155929 -0.251562 0
M  V30 2 N 2.41303 0.155753 0.103249 0
M  V30 3 C 1.31935 -0.688692 -0.192 0
M  V30 4 O 1.56987 -1.7571 -0.799375 0
M  V30 5 C -0.0743132 -0.369794 0.177988 0
M  V30 6 C -0.143449 -0.235117 1.67378 0
M  V30 7 C -1.01249 -1.39819 -0.374796 0
M  V30 8 C -2.23958 -0.696666 -0.861378 0
M  V30 9 C -2.07642 0.703922 -0.370784 0
M  V30 10 C -0.568108 0.904622 -0.470125 0
M  V30 11 N -0.217136 2.08646 0.202645 0
M  V30 12 H 3.80797 -1.04155 -0.771133 0
M  V30 13 H 4.30492 -0.257629 0.619285 0
M  V30 14 H 2.25033 1.05494 0.607545 0
M  V30 15 H 0.780785 0.317559 1.9882 0
M  V30 16 H -0.994741 0.336761 2.0401 0
M  V30 17 H -0.0465211 -1.25256 2.1002 0
M  V30 18 H -1.20757 -2.23031 0.318891 0
M  V30 19 H -0.512098 -1.84105 -1.28491 0
M  V30 20 H -3.12401 -1.22213 -0.456778 0
M  V30 21 H -2.30515 -0.651864 -1.9843 0
M  V30 22 H -2.60713 1.41354 -1.04041 0
M  V30 23 H -2.43875 0.774973 0.666592 0
M  V30 24 H -0.301536 0.969251 -1.53566 0
M  V30 25 H 0.339547 2.77982 -0.271052 0
M  V30 26 H -0.644409 2.30098 1.08733 0
M  V30 END ATOM
M  V30 BEGIN BOND
M  V30 1 1 1 2
M  V30 2 1 2 3
M  V30 3 2 3 4
M  V30 4 1 3 5
M  V30 5 1 5 6
M  V30 6 1 5 7
M  V30 7 1 7 8
M  V30 8 1 8 9
M  V30 9 1 9 10
M  V30 10 1 10 11
M  V30 11 1 10 5
M  V30 12 1 1 12
M  V30 13 1 1 13
M  V30 14 1 2 14
M  V30 15 1 6 15
M  V30 16 1 6 16
M  V30 17 1 6 17
M  V30 18 1 7 18
M  V30 19 1 7 19
M  V30 20 1 8 20
M  V30 21 1 8 21
M  V30 22 1 9 22
M  V30 23 1 9 23
M  V30 24 1 10 24
M  V30 25 1 11 25
M  V30 26 1 11 26
M  V30 END BOND
M  V30 END CTAB
M  END
