
     RDKit          3D

  0  0  0  0  0  0  0  0  0  0999 V3000
M  V30 BEGIN CTAB
M  V30 COUNTS 58 60 0 0 0
M  V30 BEGIN ATOM
M  V30 1 C 10.89 0.188382 -0.23876 0
M  V30 2 C 10.2865 -1.10209 0.227385 0
M  V30 3 O 8.87738 -1.02083 0.165831 0
M  V30 4 C 8.1216 -0.111346 0.857758 0
M  V30 5 O 8.67869 0.719907 1.60648 0
M  V30 6 C 6.65549 -0.0615028 0.762886 0
M  V30 7 C 5.983 -0.949249 -0.0502979 0
M  V30 8 C 4.63152 -0.899519 -0.132449 0
M  V30 9 C 3.83759 0.020594 0.573191 0
M  V30 10 C 4.54037 0.891139 1.37411 0
M  V30 11 C 5.92646 0.847046 1.46445 0
M  V30 12 N 2.45117 0.00118629 0.405849 0
M  V30 13 C 1.49309 0.628148 1.20033 0
M  V30 14 O 1.80603 1.30289 2.20146 0
M  V30 15 C 0.00873559 0.520687 0.88525 0
M  V30 16 S -0.136583 -0.496029 -0.598053 0
M  V30 17 C -1.84109 -0.69147 -1.02028 0
M  V30 18 N -2.59898 -1.69916 -0.531605 0
M  V30 19 N -3.80277 -1.62762 -1.00906 0
M  V30 20 C -3.89136 -0.567602 -1.83475 0
M  V30 21 N -2.65728 0.00555089 -1.8291 0
M  V30 22 C -2.26191 1.1577 -2.56646 0
M  V30 23 C -2.43881 2.45365 -1.85711 0
M  V30 24 C -2.91185 2.59645 -0.652929 0
M  V30 25 C -5.10167 -0.199659 -2.56667 0
M  V30 26 S -6.24932 0.850901 -1.70468 0
M  V30 27 C -7.01865 0.0515767 -0.31018 0
M  V30 28 N -6.73664 -1.21884 0.0222989 0
M  V30 29 C -7.30841 -1.841 1.06785 0
M  V30 30 N -6.95325 -3.18527 1.34814 0
M  V30 31 C -8.21413 -1.15305 1.82394 0
M  V30 32 C -8.52423 0.170506 1.49789 0
M  V30 33 N -7.90188 0.704574 0.437153 0
M  V30 34 N -9.46798 0.889378 2.28346 0
M  V30 35 H 10.9258 0.892836 0.612207 0
M  V30 36 H 11.9048 0.0382274 -0.684941 0
M  V30 37 H 10.1843 0.627451 -0.990017 0
M  V30 38 H 10.6455 -1.32885 1.2531 0
M  V30 39 H 10.6272 -1.91131 -0.437252 0
M  V30 40 H 6.55045 -1.68243 -0.619125 0
M  V30 41 H 4.10001 -1.59264 -0.766645 0
M  V30 42 H 4.03851 1.6468 1.95371 0
M  V30 43 H 6.43201 1.56331 2.11643 0
M  V30 44 H 2.07998 -0.548492 -0.419413 0
M  V30 45 H -0.292896 1.57362 0.696781 0
M  V30 46 H -0.544903 0.124391 1.74268 0
M  V30 47 H -2.79621 1.22275 -3.54017 0
M  V30 48 H -1.16913 1.13211 -2.85507 0
M  V30 49 H -2.14169 3.3672 -2.40399 0
M  V30 50 H -3.00832 3.57632 -0.209036 0
M  V30 51 H -3.21971 1.73009 -0.0703774 0
M  V30 52 H -5.65133 -1.15073 -2.82934 0
M  V30 53 H -4.88051 0.250685 -3.57011 0
M  V30 54 H -6.26784 -3.43395 2.08389 0
M  V30 55 H -7.40064 -3.93866 0.791363 0
M  V30 56 H -8.69325 -1.62111 2.67151 0
M  V30 57 H -9.63172 0.588775 3.25233 0
M  V30 58 H -9.96115 1.69759 1.84866 0
M  V30 END ATOM
M  V30 BEGIN BOND
M  V30 1 1 1 2
M  V30 2 1 2 3
M  V30 3 1 3 4
M  V30 4 2 4 5
M  V30 5 1 4 6
M  V30 6 2 6 7
M  V30 7 1 7 8
M  V30 8 2 8 9
M  V30 9 1 9 10
M  V30 10 2 10 11
M  V30 11 1 9 12
M  V30 12 1 12 13
M  V30 13 2 13 14
M  V30 14 1 13 15
M  V30 15 1 15 16
M  V30 16 1 16 17
M  V30 17 2 17 18
M  V30 18 1 18 19
M  V30 19 2 19 20
M  V30 20 1 20 21
M  V30 21 1 21 22
M  V30 22 1 22 23
M  V30 23 2 23 24 CFG=2
M  V30 24 1 20 25
M  V30 25 1 25 26
M  V30 26 1 26 27
M  V30 27 2 27 28
M  V30 28 1 28 29
M  V30 29 1 29 30
M  V30 30 2 29 31
M  V30 31 1 31 32
M  V30 32 2 32 33
M  V30 33 1 32 34
M  V30 34 1 11 6
M  V30 35 1 21 17
M  V30 36 1 33 27
M  V30 37 1 1 35
M  V30 38 1 1 36
M  V30 39 1 1 37
M  V30 40 1 2 38
M  V30 41 1 2 39
M  V30 42 1 7 40
M  V30 43 1 8 41
M  V30 44 1 10 42
M  V30 45 1 11 43
M  V30 46 1 12 44
M  V30 47 1 15 45
M  V30 48 1 15 46
M  V30 49 1 22 47
M  V30 50 1 22 48
M  V30 51 1 23 49
M  V30 52 1 24 50
M  V30 53 1 24 51
M  V30 54 1 25 52
M  V30 55 1 25 53
M  V30 56 1 30 54
M  V30 57 1 30 55
M  V30 58 1 31 56
M  V30 59 1 34 57
M  V30 60 1 34 58
M  V30 END BOND
M  V30 END CTAB
M  END
