
     RDKit          3D

  0  0  0  0  0  0  0  0  0  0999 V3000
M  V30 BEGIN CTAB
M  V30 COUNTS 41 41 0 0 0
M  V30 BEGIN ATOM
M  V30 1 O -0.821788 -1.44016 -0.365468 0
M  V30 2 C -1.21084 -0.684576 0.354738 0
M  V30 3 C -2.67159 -0.825439 0.723678 0 CFG=2
M  V30 4 C -3.54095 -0.770672 -0.506056 0
M  V30 5 C -3.24819 -1.84095 -1.49424 0
M  V30 6 C -3.50164 0.572924 -1.17889 0
M  V30 7 C -4.97495 -0.97557 -0.019836 0
M  V30 8 N -2.99243 0.224102 1.64809 0
M  V30 9 N -0.423177 0.342494 0.901739 0
M  V30 10 C 0.94631 0.596669 0.654672 0
M  V30 11 C 1.47841 1.77754 1.19572 0
M  V30 12 C 2.80169 2.04069 0.977018 0
M  V30 13 C 3.62147 1.19799 0.2531 0
M  V30 14 C 3.13146 0.0309271 -0.291607 0
M  V30 15 C 1.77823 -0.232369 -0.0644086 0
M  V30 16 S 4.16041 -1.01471 -1.19385 0
M  V30 17 O 3.38982 -2.21968 -1.71698 0
M  V30 18 O 5.29864 -1.54908 -0.362791 0
M  V30 19 N 4.85088 -0.254975 -2.58425 0
M  V30 20 C 5.04815 1.53355 0.0473341 0
M  V30 21 H -2.79837 -1.78823 1.25889 0
M  V30 22 H -4.17231 -2.12834 -2.04248 0
M  V30 23 H -2.92553 -2.78207 -0.962484 0
M  V30 24 H -2.46539 -1.60351 -2.22221 0
M  V30 25 H -4.29771 1.26013 -0.842626 0
M  V30 26 H -2.53458 1.09226 -1.02997 0
M  V30 27 H -3.63067 0.475196 -2.29515 0
M  V30 28 H -5.62179 -0.91196 -0.917007 0
M  V30 29 H -5.08002 -2.01118 0.373205 0
M  V30 30 H -5.23818 -0.224538 0.748287 0
M  V30 31 H -2.47446 0.164301 2.53943 0
M  V30 32 H -2.89094 1.1721 1.24966 0
M  V30 33 H -0.917549 1.00078 1.58351 0
M  V30 34 H 0.837858 2.46182 1.77586 0
M  V30 35 H 3.19645 2.96774 1.40807 0
M  V30 36 H 1.42684 -1.15546 -0.498607 0
M  V30 37 H 4.34793 0.585738 -2.88766 0
M  V30 38 H 5.86144 -0.0432298 -2.46879 0
M  V30 39 H 5.26744 1.77108 -1.0152 0
M  V30 40 H 5.28182 2.44843 0.619459 0
M  V30 41 H 5.70779 0.740245 0.44606 0
M  V30 END ATOM
M  V30 BEGIN BOND
M  V30 1 2 1 2
M  V30 2 1 2 3
M  V30 3 1 3 4
M  V30 4 1 4 5
M  V30 5 1 4 6
M  V30 6 1 4 7
M  V30 7 1 3 8
M  V30 8 1 2 9
M  V30 9 1 9 10
M  V30 10 2 10 11
M  V30 11 1 11 12
M  V30 12 2 12 13
M  V30 13 1 13 14
M  V30 14 2 14 15
M  V30 15 1 14 16
M  V30 16 2 16 17
M  V30 17 2 16 18
M  V30 18 1 16 19
M  V30 19 1 13 20
M  V30 20 1 15 10
M  V30 21 1 3 21 CFG=1
M  V30 22 1 5 22
M  V30 23 1 5 23
M  V30 24 1 5 24
M  V30 25 1 6 25
M  V30 26 1 6 26
M  V30 27 1 6 27
M  V30 28 1 7 28
M  V30 29 1 7 29
M  V30 30 1 7 30
M  V30 31 1 8 31
M  V30 32 1 8 32
M  V30 33 1 9 33
M  V30 34 1 11 34
M  V30 35 1 12 35
M  V30 36 1 15 36
M  V30 37 1 19 37
M  V30 38 1 19 38
M  V30 39 1 20 39
M  V30 40 1 20 40
M  V30 41 1 20 41
M  V30 END BOND
M  V30 END CTAB
M  END
