
     RDKit          3D

  0  0  0  0  0  0  0  0  0  0999 V3000
M  V30 BEGIN CTAB
M  V30 COUNTS 29 31 0 0 0
M  V30 BEGIN ATOM
M  V30 1 N -6.30184 0.21052 0.109961 0
M  V30 2 C -5.15895 0.333611 0.171257 0
M  V30 3 C -3.71278 0.46407 0.239904 0
M  V30 4 C -2.92978 -0.597802 -0.123941 0
M  V30 5 C -1.52585 -0.462465 -0.0542209 0
M  V30 6 C -1.09177 0.752348 0.382677 0
M  V30 7 N -1.91796 1.79055 0.737468 0
M  V30 8 C -3.25494 1.68499 0.679332 0
M  V30 9 N -4.13257 2.74152 1.03981 0
M  V30 10 S 0.601109 0.567718 0.343585 0
M  V30 11 C 0.715928 -1.02552 -0.218786 0
M  V30 12 C -0.597048 -1.38958 -0.368086 0
M  V30 13 N -0.923188 -2.73005 -0.847801 0
M  V30 14 C 1.89541 -1.82945 -0.485139 0
M  V30 15 O 1.62692 -3.04895 -0.921123 0
M  V30 16 N 3.22584 -1.54024 -0.362076 0
M  V30 17 C 3.92481 -0.38016 0.0595528 0
M  V30 18 N 3.56252 0.804187 0.473297 0
M  V30 19 C 4.40664 1.71415 0.808612 0
M  V30 20 C 5.74123 1.39739 0.717169 0
M  V30 21 S 5.66839 -0.205799 0.148362 0
M  V30 22 H -3.39548 -1.51669 -0.456545 0
M  V30 23 H -4.17434 3.57502 0.434991 0
M  V30 24 H -4.74024 2.72139 1.88632 0
M  V30 25 H -0.680677 -3.052 -1.7912 0
M  V30 26 H -1.4182 -3.37752 -0.208393 0
M  V30 27 H 3.90047 -2.36901 -0.64506 0
M  V30 28 H 4.08314 2.72382 1.16111 0
M  V30 29 H 6.60319 2.04396 0.959496 0
M  V30 END ATOM
M  V30 BEGIN BOND
M  V30 1 3 1 2
M  V30 2 1 2 3
M  V30 3 2 3 4
M  V30 4 1 4 5
M  V30 5 2 5 6
M  V30 6 1 6 7
M  V30 7 2 7 8
M  V30 8 1 8 9
M  V30 9 1 6 10
M  V30 10 1 10 11
M  V30 11 2 11 12
M  V30 12 1 12 13
M  V30 13 1 11 14
M  V30 14 2 14 15
M  V30 15 1 14 16
M  V30 16 1 16 17
M  V30 17 2 17 18
M  V30 18 1 18 19
M  V30 19 2 19 20
M  V30 20 1 20 21
M  V30 21 1 8 3
M  V30 22 1 21 17
M  V30 23 1 12 5
M  V30 24 1 4 22
M  V30 25 1 9 23
M  V30 26 1 9 24
M  V30 27 1 13 25
M  V30 28 1 13 26
M  V30 29 1 16 27
M  V30 30 1 19 28
M  V30 31 1 20 29
M  V30 END BOND
M  V30 END CTAB
M  END
