
     RDKit          3D

  0  0  0  0  0  0  0  0  0  0999 V3000
M  V30 BEGIN CTAB
M  V30 COUNTS 45 45 0 0 0
M  V30 BEGIN ATOM
M  V30 1 O 1.10149 0.696134 1.71963 0
M  V30 2 C 0.291647 0.632674 0.936702 0
M  V30 3 N 0.63242 0.470099 -0.417745 0
M  V30 4 C 1.95016 0.364734 -0.898812 0
M  V30 5 C 2.18838 0.806298 -2.19668 0
M  V30 6 C 3.44632 0.697932 -2.71316 0
M  V30 7 C 4.45469 0.155429 -1.94399 0
M  V30 8 C 4.22198 -0.278065 -0.671924 0
M  V30 9 C 2.94266 -0.172739 -0.135203 0
M  V30 10 C 5.30152 -0.858768 0.151326 0
M  V30 11 S 6.13564 0.420315 1.09189 0
M  V30 12 O 6.78508 1.40879 0.191895 0
M  V30 13 O 5.15947 1.11731 1.97675 0
M  V30 14 N 7.3814 -0.33319 2.02736 0
M  V30 15 C -1.10418 0.729308 1.42005 0
M  V30 16 N -2.12175 0.647752 0.423094 0
M  V30 17 C -3.4805 0.736955 0.848985 0
M  V30 18 O -3.72884 0.880642 2.05667 0
M  V30 19 C -4.54655 0.654176 -0.171834 0 CFG=2
M  V30 20 C -5.45402 -0.550621 0.0775678 0
M  V30 21 C -6.12505 -0.484398 1.41879 0
M  V30 22 C -4.7381 -1.83979 -0.181602 0
M  V30 23 N -3.99602 0.487158 -1.50397 0
M  V30 24 H -0.13052 0.413665 -1.16447 0
M  V30 25 H 1.37585 1.23215 -2.78724 0
M  V30 26 H 3.6702 1.03064 -3.7191 0
M  V30 27 H 5.46063 0.0714324 -2.36291 0
M  V30 28 H 2.79086 -0.545755 0.874344 0
M  V30 29 H 4.93135 -1.63524 0.850788 0
M  V30 30 H 6.04602 -1.3581 -0.505385 0
M  V30 31 H 8.27283 0.205359 1.97235 0
M  V30 32 H 7.56688 -1.27858 1.66493 0
M  V30 33 H -1.21648 1.70054 1.98245 0
M  V30 34 H -1.24087 -0.0751664 2.21297 0
M  V30 35 H -1.8919 0.52895 -0.568134 0
M  V30 36 H -5.11929 1.59206 -0.12726 0
M  V30 37 H -6.27117 -0.47255 -0.692903 0
M  V30 38 H -5.49199 -0.855521 2.24448 0
M  V30 39 H -6.45379 0.556531 1.58425 0
M  V30 40 H -7.04842 -1.10539 1.35277 0
M  V30 41 H -4.82044 -2.15954 -1.24256 0
M  V30 42 H -3.66745 -1.81083 0.0655823 0
M  V30 43 H -5.18585 -2.63658 0.464499 0
M  V30 44 H -4.69809 0.683019 -2.22499 0
M  V30 45 H -3.57618 -0.469225 -1.55208 0
M  V30 END ATOM
M  V30 BEGIN BOND
M  V30 1 2 1 2
M  V30 2 1 2 3
M  V30 3 1 3 4
M  V30 4 2 4 5
M  V30 5 1 5 6
M  V30 6 2 6 7
M  V30 7 1 7 8
M  V30 8 2 8 9
M  V30 9 1 8 10
M  V30 10 1 10 11
M  V30 11 2 11 12
M  V30 12 2 11 13
M  V30 13 1 11 14
M  V30 14 1 2 15
M  V30 15 1 15 16
M  V30 16 1 16 17
M  V30 17 2 17 18
M  V30 18 1 17 19
M  V30 19 1 19 20
M  V30 20 1 20 21
M  V30 21 1 20 22
M  V30 22 1 19 23
M  V30 23 1 9 4
M  V30 24 1 3 24
M  V30 25 1 5 25
M  V30 26 1 6 26
M  V30 27 1 7 27
M  V30 28 1 9 28
M  V30 29 1 10 29
M  V30 30 1 10 30
M  V30 31 1 14 31
M  V30 32 1 14 32
M  V30 33 1 15 33
M  V30 34 1 15 34
M  V30 35 1 16 35
M  V30 36 1 19 36 CFG=3
M  V30 37 1 20 37
M  V30 38 1 21 38
M  V30 39 1 21 39
M  V30 40 1 21 40
M  V30 41 1 22 41
M  V30 42 1 22 42
M  V30 43 1 22 43
M  V30 44 1 23 44
M  V30 45 1 23 45
M  V30 END BOND
M  V30 END CTAB
M  END
