
     RDKit          3D

  0  0  0  0  0  0  0  0  0  0999 V3000
M  V30 BEGIN CTAB
M  V30 COUNTS 40 43 0 0 0
M  V30 BEGIN ATOM
M  V30 1 N 4.96053 2.63572 -0.414595 0
M  V30 2 C 4.84974 1.22439 -0.310376 0
M  V30 3 N 3.65665 0.65943 -0.0188113 0
M  V30 4 C 3.49498 -0.657979 0.110102 0
M  V30 5 C 2.11235 -1.16885 0.432957 0
M  V30 6 S 1.31643 -1.56947 -1.07737 0
M  V30 7 C -0.321157 -1.02302 -1.36253 0
M  V30 8 N -0.944604 -1.21132 -2.58417 0
M  V30 9 N -2.14075 -0.705338 -2.488 0
M  V30 10 C -2.37067 -0.180628 -1.2653 0
M  V30 11 N -1.22416 -0.40475 -0.600404 0
M  V30 12 C -1.02278 -0.151207 0.816172 0
M  V30 13 C -2.15459 -0.679724 1.73293 0
M  V30 14 C -0.922403 -1.45314 1.69442 0
M  V30 15 C -3.60128 0.447383 -0.789302 0
M  V30 16 C -3.50163 1.58359 0.0270946 0
M  V30 17 C -4.60815 2.20174 0.558854 0
M  V30 18 C -5.84208 1.67218 0.267675 0
M  V30 19 C -5.95808 0.553565 -0.538243 0
M  V30 20 C -4.84613 -0.0455392 -1.05515 0
M  V30 21 F -4.92968 -1.16963 -1.85737 0
M  V30 22 N 4.53975 -1.48679 -0.0527926 0
M  V30 23 C 5.73503 -0.925894 -0.346473 0
M  V30 24 N 5.90048 0.412912 -0.475159 0
M  V30 25 N 6.90561 -1.71642 -0.531491 0
M  V30 26 H 4.15989 3.26 -0.545388 0
M  V30 27 H 5.90598 3.06254 -0.356491 0
M  V30 28 H 1.65828 -0.272861 0.948415 0
M  V30 29 H 2.20029 -2.0056 1.16786 0
M  V30 30 H -0.496843 0.727173 1.174 0
M  V30 31 H -3.02336 -1.17707 1.25903 0
M  V30 32 H -2.41362 -0.0781958 2.61367 0
M  V30 33 H -0.197243 -1.37906 2.55116 0
M  V30 34 H -0.77737 -2.35172 1.08932 0
M  V30 35 H -2.51417 2.01658 0.254478 0
M  V30 36 H -4.53133 3.08643 1.1938 0
M  V30 37 H -6.75439 2.13928 0.678915 0
M  V30 38 H -6.93897 0.131241 -0.768765 0
M  V30 39 H 7.25017 -2.2282 0.298675 0
M  V30 40 H 7.38927 -1.77173 -1.47041 0
M  V30 END ATOM
M  V30 BEGIN BOND
M  V30 1 1 1 2
M  V30 2 2 2 3
M  V30 3 1 3 4
M  V30 4 1 4 5
M  V30 5 1 5 6
M  V30 6 1 6 7
M  V30 7 2 7 8
M  V30 8 1 8 9
M  V30 9 2 9 10
M  V30 10 1 10 11
M  V30 11 1 11 12
M  V30 12 1 12 13
M  V30 13 1 13 14
M  V30 14 1 10 15
M  V30 15 2 15 16
M  V30 16 1 16 17
M  V30 17 2 17 18
M  V30 18 1 18 19
M  V30 19 2 19 20
M  V30 20 1 20 21
M  V30 21 2 4 22
M  V30 22 1 22 23
M  V30 23 2 23 24
M  V30 24 1 23 25
M  V30 25 1 24 2
M  V30 26 1 11 7
M  V30 27 1 14 12
M  V30 28 1 20 15
M  V30 29 1 1 26
M  V30 30 1 1 27
M  V30 31 1 5 28
M  V30 32 1 5 29
M  V30 33 1 12 30
M  V30 34 1 13 31
M  V30 35 1 13 32
M  V30 36 1 14 33
M  V30 37 1 14 34
M  V30 38 1 16 35
M  V30 39 1 17 36
M  V30 40 1 18 37
M  V30 41 1 19 38
M  V30 42 1 25 39
M  V30 43 1 25 40
M  V30 END BOND
M  V30 END CTAB
M  END
