
     RDKit          3D

  0  0  0  0  0  0  0  0  0  0999 V3000
M  V30 BEGIN CTAB
M  V30 COUNTS 42 44 0 0 0
M  V30 BEGIN ATOM
M  V30 1 Cl 7.84347 -0.550773 2.04424 0
M  V30 2 C 6.46567 -0.245919 1.03356 0
M  V30 3 C 6.22166 -0.976925 -0.10735 0
M  V30 4 C 5.12725 -0.723144 -0.895887 0
M  V30 5 C 4.24148 0.286486 -0.547535 0
M  V30 6 C 4.47456 1.03684 0.605528 0
M  V30 7 C 5.56815 0.752659 1.35548 0
M  V30 8 O 3.12674 0.595987 -1.28309 0
M  V30 9 C 1.81691 0.42828 -0.870688 0
M  V30 10 C 0.980573 1.54149 -0.780206 0
M  V30 11 C -0.311289 1.38729 -0.375324 0
M  V30 12 C -0.851718 0.163675 -0.0419519 0
M  V30 13 C 0.000223936 -0.911568 -0.142523 0
M  V30 14 C 1.31761 -0.792221 -0.550124 0
M  V30 15 Cl 2.26386 -2.2609 -0.629347 0
M  V30 16 N -2.21951 0.0141927 0.384625 0
M  V30 17 C -2.50634 0.114105 1.77377 0
M  V30 18 N -3.68843 -0.0046323 2.25819 0
M  V30 19 C -4.77504 -0.246697 1.3896 0
M  V30 20 N -4.55483 -0.342822 0.129344 0
M  V30 21 C -3.28588 -0.229427 -0.531891 0
M  V30 22 C -3.37595 0.981725 -1.44424 0
M  V30 23 C -3.09381 -1.50164 -1.33221 0
M  V30 24 N -6.12203 -0.386288 1.9004 0
M  V30 25 N -1.4045 0.362382 2.68161 0
M  V30 26 H 6.9162 -1.7732 -0.385301 0
M  V30 27 H 4.97225 -1.31737 -1.80369 0
M  V30 28 H 3.79666 1.81023 0.872124 0
M  V30 29 H 5.75477 1.32643 2.24562 0
M  V30 30 H 1.4148 2.48827 -1.04292 0
M  V30 31 H -0.970021 2.2652 -0.304018 0
M  V30 32 H -0.373534 -1.89154 0.106971 0
M  V30 33 H -3.2781 1.91539 -0.854002 0
M  V30 34 H -2.55233 0.980463 -2.19149 0
M  V30 35 H -4.35374 1.0382 -1.96683 0
M  V30 36 H -3.75707 -1.39474 -2.23731 0
M  V30 37 H -3.4919 -2.3301 -0.735846 0
M  V30 38 H -2.06956 -1.63764 -1.69374 0
M  V30 39 H -6.39697 0.0944002 2.78267 0
M  V30 40 H -6.8385 -0.960568 1.40807 0
M  V30 41 H -0.843864 1.23533 2.60408 0
M  V30 42 H -1.18791 -0.340888 3.40347 0
M  V30 END ATOM
M  V30 BEGIN BOND
M  V30 1 1 1 2
M  V30 2 2 2 3
M  V30 3 1 3 4
M  V30 4 2 4 5
M  V30 5 1 5 6
M  V30 6 2 6 7
M  V30 7 1 5 8
M  V30 8 1 8 9
M  V30 9 2 9 10
M  V30 10 1 10 11
M  V30 11 2 11 12
M  V30 12 1 12 13
M  V30 13 2 13 14
M  V30 14 1 14 15
M  V30 15 1 12 16
M  V30 16 1 16 17
M  V30 17 2 17 18
M  V30 18 1 18 19
M  V30 19 2 19 20
M  V30 20 1 20 21
M  V30 21 1 21 22
M  V30 22 1 21 23
M  V30 23 1 19 24
M  V30 24 1 17 25
M  V30 25 1 7 2
M  V30 26 1 14 9
M  V30 27 1 21 16
M  V30 28 1 3 26
M  V30 29 1 4 27
M  V30 30 1 6 28
M  V30 31 1 7 29
M  V30 32 1 10 30
M  V30 33 1 11 31
M  V30 34 1 13 32
M  V30 35 1 22 33
M  V30 36 1 22 34
M  V30 37 1 22 35
M  V30 38 1 23 36
M  V30 39 1 23 37
M  V30 40 1 23 38
M  V30 41 1 24 39
M  V30 42 1 24 40
M  V30 43 1 25 41
M  V30 44 1 25 42
M  V30 END BOND
M  V30 END CTAB
M  END
