
     RDKit          3D

  0  0  0  0  0  0  0  0  0  0999 V3000
M  V30 BEGIN CTAB
M  V30 COUNTS 36 37 0 0 0
M  V30 BEGIN ATOM
M  V30 1 N 4.28052 0.80135 0.614474 0
M  V30 2 C 3.79122 0.202287 -0.554696 0 CFG=1
M  V30 3 C 3.40488 -1.22715 -0.357427 0
M  V30 4 C 1.97275 -1.26008 -0.951725 0
M  V30 5 N 1.46485 0.00938425 -0.524543 0
M  V30 6 C 2.55917 0.925529 -1.03508 0
M  V30 7 C 0.322874 0.481051 0.147198 0
M  V30 8 O 0.319675 1.75902 0.351123 0
M  V30 9 C -0.786501 -0.320481 0.600394 0
M  V30 10 C -2.1475 0.193603 0.282424 0
M  V30 11 C -2.49094 1.48702 0.569407 0
M  V30 12 C -3.78106 1.90127 0.225886 0
M  V30 13 C -4.65639 1.02588 -0.376357 0
M  V30 14 C -4.31175 -0.276138 -0.664869 0
M  V30 15 C -3.03165 -0.673083 -0.319878 0
M  V30 16 Br -6.41358 1.60714 -0.838829 0
M  V30 17 N -0.682112 -1.67419 0.130936 0
M  V30 18 C -0.80057 -0.430824 2.14532 0
M  V30 19 H 4.93455 1.50498 0.47774 0
M  V30 20 H 3.83355 0.595618 1.46155 0
M  V30 21 H 4.59741 0.225785 -1.34106 0
M  V30 22 H 3.27586 -1.52207 0.701163 0
M  V30 23 H 4.03619 -1.92367 -0.925316 0
M  V30 24 H 1.49882 -2.16232 -0.611506 0
M  V30 25 H 2.16162 -1.24241 -2.0562 0
M  V30 26 H 2.51359 0.961441 -2.128 0
M  V30 27 H 2.45304 1.9084 -0.550663 0
M  V30 28 H -1.84738 2.21737 1.05577 0
M  V30 29 H -4.06448 2.91873 0.446166 0
M  V30 30 H -5.00625 -0.949823 -1.13576 0
M  V30 31 H -2.80338 -1.7153 -0.566727 0
M  V30 32 H -1.28064 -2.36315 0.585241 0
M  V30 33 H -0.823136 -1.6796 -0.896693 0
M  V30 34 H 0.212123 -0.354185 2.55455 0
M  V30 35 H -1.31247 -1.36363 2.45878 0
M  V30 36 H -1.39291 0.412252 2.55721 0
M  V30 END ATOM
M  V30 BEGIN BOND
M  V30 1 1 1 2
M  V30 2 1 2 3
M  V30 3 1 3 4
M  V30 4 1 4 5
M  V30 5 1 5 6
M  V30 6 1 5 7
M  V30 7 2 7 8
M  V30 8 1 7 9
M  V30 9 1 9 10
M  V30 10 2 10 11
M  V30 11 1 11 12
M  V30 12 2 12 13
M  V30 13 1 13 14
M  V30 14 2 14 15
M  V30 15 1 13 16
M  V30 16 1 9 17
M  V30 17 1 9 18
M  V30 18 1 6 2
M  V30 19 1 15 10
M  V30 20 1 1 19
M  V30 21 1 1 20
M  V30 22 1 2 21 CFG=3
M  V30 23 1 3 22
M  V30 24 1 3 23
M  V30 25 1 4 24
M  V30 26 1 4 25
M  V30 27 1 6 26
M  V30 28 1 6 27
M  V30 29 1 11 28
M  V30 30 1 12 29
M  V30 31 1 14 30
M  V30 32 1 15 31
M  V30 33 1 17 32
M  V30 34 1 17 33
M  V30 35 1 18 34
M  V30 36 1 18 35
M  V30 37 1 18 36
M  V30 END BOND
M  V30 END CTAB
M  END
