
     RDKit          3D

  0  0  0  0  0  0  0  0  0  0999 V3000
M  V30 BEGIN CTAB
M  V30 COUNTS 22 22 0 0 0
M  V30 BEGIN ATOM
M  V30 1 C -3.29067 0.658558 -0.362513 0
M  V30 2 C -2.47507 -0.325368 -1.19406 0
M  V30 3 N -1.16848 -0.47802 -0.560989 0
M  V30 4 N -0.828672 -1.35649 0.360011 0
M  V30 5 C 0.475381 -1.21232 0.72445 0
M  V30 6 C 0.972035 -0.172672 -0.0247346 0
M  V30 7 C -0.0650858 0.266609 -0.814094 0
M  V30 8 S 2.59688 0.415764 0.0607744 0
M  V30 9 O 2.84014 0.875281 1.48188 0
M  V30 10 O 3.52541 -0.723576 -0.254815 0
M  V30 11 N 2.89539 1.718 -1.00051 0
M  V30 12 N 1.16224 -2.00314 1.69795 0
M  V30 13 H -2.64733 1.49268 -0.0751607 0
M  V30 14 H -4.16287 1.03203 -0.92322 0
M  V30 15 H -3.68847 0.0861513 0.501195 0
M  V30 16 H -2.35876 0.135519 -2.19309 0
M  V30 17 H -2.98407 -1.30242 -1.29182 0
M  V30 18 H -0.0719466 1.06901 -1.54025 0
M  V30 19 H 2.49666 2.62017 -0.664137 0
M  V30 20 H 3.93796 1.8099 -1.14839 0
M  V30 21 H 1.24803 -1.69917 2.68463 0
M  V30 22 H 1.59129 -2.9065 1.42668 0
M  V30 END ATOM
M  V30 BEGIN BOND
M  V30 1 1 1 2
M  V30 2 1 2 3
M  V30 3 1 3 4
M  V30 4 2 4 5
M  V30 5 1 5 6
M  V30 6 2 6 7
M  V30 7 1 6 8
M  V30 8 2 8 9
M  V30 9 2 8 10
M  V30 10 1 8 11
M  V30 11 1 5 12
M  V30 12 1 7 3
M  V30 13 1 1 13
M  V30 14 1 1 14
M  V30 15 1 1 15
M  V30 16 1 2 16
M  V30 17 1 2 17
M  V30 18 1 7 18
M  V30 19 1 11 19
M  V30 20 1 11 20
M  V30 21 1 12 21
M  V30 22 1 12 22
M  V30 END BOND
M  V30 END CTAB
M  END
