
     RDKit          3D

  0  0  0  0  0  0  0  0  0  0999 V3000
M  V30 BEGIN CTAB
M  V30 COUNTS 29 30 0 0 0
M  V30 BEGIN ATOM
M  V30 1 N 4.72412 1.23123 0.856305 0
M  V30 2 C 3.81878 0.382951 0.164367 0
M  V30 3 C 4.27302 -0.812731 -0.339646 0
M  V30 4 C 3.37171 -1.61025 -1.00385 0
M  V30 5 C 2.05271 -1.2665 -1.18265 0
M  V30 6 C 1.61899 -0.061163 -0.667976 0
M  V30 7 O 0.28392 0.257068 -0.86455 0
M  V30 8 C -0.654217 -0.13217 0.0777864 0
M  V30 9 O -0.23181 -0.760945 1.07106 0
M  V30 10 C -2.07035 0.175599 -0.078303 0
M  V30 11 C -2.5255 0.864088 -1.16815 0
M  V30 12 C -3.88087 1.14507 -1.2938 0
M  V30 13 C -4.80195 0.744688 -0.336489 0
M  V30 14 C -4.29434 0.0531534 0.744419 0
M  V30 15 C -2.95449 -0.237138 0.890728 0
M  V30 16 N -2.4578 -0.950405 2.0131 0
M  V30 17 C 2.50767 0.752078 0.00103928 0
M  V30 18 H 5.13722 0.939394 1.75052 0
M  V30 19 H 4.95062 2.14769 0.429366 0
M  V30 20 H 5.32191 -1.09748 -0.203431 0
M  V30 21 H 3.72562 -2.55234 -1.40204 0
M  V30 22 H 1.41334 -1.9553 -1.71842 0
M  V30 23 H -1.88715 1.20872 -1.95001 0
M  V30 24 H -4.24853 1.68182 -2.13997 0
M  V30 25 H -5.85969 0.955333 -0.419361 0
M  V30 26 H -4.95496 -0.282394 1.51633 0
M  V30 27 H -2.54537 -1.99041 2.01962 0
M  V30 28 H -2.00897 -0.508242 2.83677 0
M  V30 29 H 2.17637 1.6786 0.397229 0
M  V30 END ATOM
M  V30 BEGIN BOND
M  V30 1 1 1 2
M  V30 2 2 2 3
M  V30 3 1 3 4
M  V30 4 2 4 5
M  V30 5 1 5 6
M  V30 6 1 6 7
M  V30 7 1 7 8
M  V30 8 2 8 9
M  V30 9 1 8 10
M  V30 10 2 10 11
M  V30 11 1 11 12
M  V30 12 2 12 13
M  V30 13 1 13 14
M  V30 14 2 14 15
M  V30 15 1 15 16
M  V30 16 2 6 17
M  V30 17 1 17 2
M  V30 18 1 15 10
M  V30 19 1 1 18
M  V30 20 1 1 19
M  V30 21 1 3 20
M  V30 22 1 4 21
M  V30 23 1 5 22
M  V30 24 1 11 23
M  V30 25 1 12 24
M  V30 26 1 13 25
M  V30 27 1 14 26
M  V30 28 1 16 27
M  V30 29 1 16 28
M  V30 30 1 17 29
M  V30 END BOND
M  V30 END CTAB
M  END
