
     RDKit          3D

  0  0  0  0  0  0  0  0  0  0999 V3000
M  V30 BEGIN CTAB
M  V30 COUNTS 30 31 0 0 0
M  V30 BEGIN ATOM
M  V30 1 C -3.02077 1.68334 0.996311 0
M  V30 2 C -2.44851 1.143 -0.30085 0
M  V30 3 C -1.06476 0.624408 -0.106388 0
M  V30 4 N -0.0008879 1.37361 -0.498856 0
M  V30 5 C 1.25356 0.970729 -0.323821 0
M  V30 6 C 1.44545 -0.253551 0.279496 0
M  V30 7 N 0.40867 -1.00265 0.671365 0
M  V30 8 C -0.861687 -0.599383 0.495725 0
M  V30 9 C -1.99517 -1.47852 0.920299 0
M  V30 10 C -2.56913 -2.25357 -0.264217 0
M  V30 11 C 2.7563 -0.679693 0.466792 0
M  V30 12 N 2.99091 -1.92543 1.07833 0
M  V30 13 N 3.7445 0.109347 0.0580917 0
M  V30 14 C 3.54877 1.30037 -0.528232 0
M  V30 15 N 4.68518 2.07947 -0.930264 0
M  V30 16 N 2.29576 1.74038 -0.724162 0
M  V30 17 H -3.11774 2.79674 0.976597 0
M  V30 18 H -2.35273 1.41557 1.84925 0
M  V30 19 H -4.04545 1.27749 1.11171 0
M  V30 20 H -2.38036 2.01199 -0.992924 0
M  V30 21 H -3.12972 0.430698 -0.79003 0
M  V30 22 H -1.56612 -2.23177 1.61421 0
M  V30 23 H -2.78589 -0.944833 1.46076 0
M  V30 24 H -2.4189 -1.7542 -1.22416 0
M  V30 25 H -2.04527 -3.26352 -0.322669 0
M  V30 26 H -3.62221 -2.49935 -0.0139327 0
M  V30 27 H 2.45522 -2.76241 0.749318 0
M  V30 28 H 3.67109 -2.02855 1.83602 0
M  V30 29 H 5.1422 1.91188 -1.84434 0
M  V30 30 H 5.02768 2.80842 -0.27741 0
M  V30 END ATOM
M  V30 BEGIN BOND
M  V30 1 1 1 2
M  V30 2 1 2 3
M  V30 3 2 3 4
M  V30 4 1 4 5
M  V30 5 2 5 6
M  V30 6 1 6 7
M  V30 7 2 7 8
M  V30 8 1 8 9
M  V30 9 1 9 10
M  V30 10 1 6 11
M  V30 11 1 11 12
M  V30 12 2 11 13
M  V30 13 1 13 14
M  V30 14 1 14 15
M  V30 15 2 14 16
M  V30 16 1 8 3
M  V30 17 1 16 5
M  V30 18 1 1 17
M  V30 19 1 1 18
M  V30 20 1 1 19
M  V30 21 1 2 20
M  V30 22 1 2 21
M  V30 23 1 9 22
M  V30 24 1 9 23
M  V30 25 1 10 24
M  V30 26 1 10 25
M  V30 27 1 10 26
M  V30 28 1 12 27
M  V30 29 1 12 28
M  V30 30 1 15 29
M  V30 31 1 15 30
M  V30 END BOND
M  V30 END CTAB
M  END
