
     RDKit          3D

  0  0  0  0  0  0  0  0  0  0999 V3000
M  V30 BEGIN CTAB
M  V30 COUNTS 49 51 0 0 0
M  V30 BEGIN ATOM
M  V30 1 N 4.7488 2.60153 -1.7453 0
M  V30 2 C 5.17689 1.65288 -1.27584 0
M  V30 3 C 5.72734 0.45364 -0.668957 0
M  V30 4 C 6.94905 0.529726 -0.0391457 0
M  V30 5 N 7.68639 1.74846 0.0336873 0
M  V30 6 C 7.44694 -0.611958 0.524642 0
M  V30 7 C 6.72365 -1.77311 0.444096 0
M  V30 8 N 5.53583 -1.83193 -0.172181 0
M  V30 9 C 5.03419 -0.722276 -0.729594 0
M  V30 10 S 3.43755 -0.763319 -1.56789 0
M  V30 11 C 2.12037 -0.384248 -0.394658 0
M  V30 12 C 0.82553 -0.425428 -1.10879 0
M  V30 13 O 0.742888 -0.69243 -2.34577 0
M  V30 14 C -0.378603 -0.148765 -0.353497 0
M  V30 15 C -0.487338 0.158465 0.984271 0
M  V30 16 C -1.83127 0.338197 1.24636 0
M  V30 17 N -2.55122 0.153814 0.124246 0
M  V30 18 C -1.6821 -0.14325 -0.858646 0
M  V30 19 C -2.02266 -0.429768 -2.28538 0
M  V30 20 C -3.95524 0.249075 -0.0182914 0
M  V30 21 C -4.768 -0.594753 0.740111 0
M  V30 22 C -6.13914 -0.517306 0.61566 0
M  V30 23 C -6.74115 0.374594 -0.241364 0
M  V30 24 C -5.94898 1.21285 -0.995405 0
M  V30 25 C -4.57182 1.14368 -0.878467 0
M  V30 26 F -6.55471 2.0853 -1.83443 0
M  V30 27 C -8.24047 0.417035 -0.337696 0
M  V30 28 C -2.4417 0.684205 2.55451 0
M  V30 29 N 7.21597 -2.97485 1.02065 0
M  V30 30 H 7.14155 2.61546 0.298195 0
M  V30 31 H 8.69898 1.8313 -0.15276 0
M  V30 32 H 8.403 -0.619351 1.03504 0
M  V30 33 H 2.234 0.604593 0.0869967 0
M  V30 34 H 2.09211 -1.16441 0.389903 0
M  V30 35 H 0.328874 0.247687 1.71749 0
M  V30 36 H -3.12487 -0.539269 -2.37692 0
M  V30 37 H -1.67969 0.392548 -2.92488 0
M  V30 38 H -1.6 -1.41304 -2.6033 0
M  V30 39 H -4.28398 -1.29326 1.41183 0
M  V30 40 H -6.78979 -1.17425 1.20524 0
M  V30 41 H -3.93029 1.79148 -1.46011 0
M  V30 42 H -8.67432 -0.242115 0.415368 0
M  V30 43 H -8.51074 0.199593 -1.37615 0
M  V30 44 H -8.50372 1.49769 -0.169371 0
M  V30 45 H -1.74063 1.33075 3.12913 0
M  V30 46 H -2.57022 -0.233739 3.19835 0
M  V30 47 H -3.39132 1.24496 2.45288 0
M  V30 48 H 6.69744 -3.52674 1.73676 0
M  V30 49 H 8.14665 -3.33994 0.722402 0
M  V30 END ATOM
M  V30 BEGIN BOND
M  V30 1 3 1 2
M  V30 2 1 2 3
M  V30 3 2 3 4
M  V30 4 1 4 5
M  V30 5 1 4 6
M  V30 6 2 6 7
M  V30 7 1 7 8
M  V30 8 2 8 9
M  V30 9 1 9 10
M  V30 10 1 10 11
M  V30 11 1 11 12
M  V30 12 2 12 13
M  V30 13 1 12 14
M  V30 14 1 14 15
M  V30 15 2 15 16
M  V30 16 1 16 17
M  V30 17 1 17 18
M  V30 18 1 18 19
M  V30 19 1 17 20
M  V30 20 2 20 21
M  V30 21 1 21 22
M  V30 22 2 22 23
M  V30 23 1 23 24
M  V30 24 2 24 25
M  V30 25 1 24 26
M  V30 26 1 23 27
M  V30 27 1 16 28
M  V30 28 1 7 29
M  V30 29 1 9 3
M  V30 30 2 18 14
M  V30 31 1 25 20
M  V30 32 1 5 30
M  V30 33 1 5 31
M  V30 34 1 6 32
M  V30 35 1 11 33
M  V30 36 1 11 34
M  V30 37 1 15 35
M  V30 38 1 19 36
M  V30 39 1 19 37
M  V30 40 1 19 38
M  V30 41 1 21 39
M  V30 42 1 22 40
M  V30 43 1 25 41
M  V30 44 1 27 42
M  V30 45 1 27 43
M  V30 46 1 27 44
M  V30 47 1 28 45
M  V30 48 1 28 46
M  V30 49 1 28 47
M  V30 50 1 29 48
M  V30 51 1 29 49
M  V30 END BOND
M  V30 END CTAB
M  END
