
     RDKit          3D

  0  0  0  0  0  0  0  0  0  0999 V3000
M  V30 BEGIN CTAB
M  V30 COUNTS 30 31 0 0 0
M  V30 BEGIN ATOM
M  V30 1 C 2.85439 1.33759 -0.464405 0
M  V30 2 O 1.48187 1.23132 -0.411423 0
M  V30 3 C 0.995808 0.493215 0.630507 0
M  V30 4 C -0.18762 1.07731 1.37595 0
M  V30 5 C -1.12033 0.0811953 0.67451 0
M  V30 6 C 0.0764945 -0.590293 0.137379 0
M  V30 7 C 0.135765 -0.937241 -1.29815 0
M  V30 8 C 0.603852 -2.34157 -0.895747 0
M  V30 9 C 0.377826 -1.97929 0.55412 0
M  V30 10 N -1.87035 -0.656553 1.68034 0
M  V30 11 C -2.04955 0.758186 -0.271953 0
M  V30 12 N -1.38349 1.48012 -1.32402 0
M  V30 13 H 3.09854 1.96168 -1.35785 0
M  V30 14 H 3.36892 0.360259 -0.642165 0
M  V30 15 H 3.29801 1.86748 0.405212 0
M  V30 16 H 1.74814 0.0521501 1.33078 0
M  V30 17 H -0.111208 0.929685 2.45899 0
M  V30 18 H -0.432529 2.11369 1.14117 0
M  V30 19 H 0.975169 -0.407103 -1.82122 0
M  V30 20 H -0.805315 -0.987595 -1.86845 0
M  V30 21 H 1.64046 -2.57357 -1.17627 0
M  V30 22 H -0.0750479 -3.14799 -1.28641 0
M  V30 23 H 1.30101 -2.11815 1.14363 0
M  V30 24 H -0.51791 -2.53211 0.932499 0
M  V30 25 H -2.09906 -0.026759 2.48692 0
M  V30 26 H -2.7171 -1.12167 1.27737 0
M  V30 27 H -2.62534 1.52699 0.322822 0
M  V30 28 H -2.80969 0.0500325 -0.642239 0
M  V30 29 H -2.05996 1.65954 -2.1021 0
M  V30 30 H -1.09174 2.43948 -0.989787 0
M  V30 END ATOM
M  V30 BEGIN BOND
M  V30 1 1 1 2
M  V30 2 1 2 3
M  V30 3 1 3 4
M  V30 4 1 4 5
M  V30 5 1 5 6
M  V30 6 1 6 7
M  V30 7 1 7 8
M  V30 8 1 8 9
M  V30 9 1 5 10
M  V30 10 1 5 11
M  V30 11 1 11 12
M  V30 12 1 6 3
M  V30 13 1 9 6
M  V30 14 1 1 13
M  V30 15 1 1 14
M  V30 16 1 1 15
M  V30 17 1 3 16
M  V30 18 1 4 17
M  V30 19 1 4 18
M  V30 20 1 7 19
M  V30 21 1 7 20
M  V30 22 1 8 21
M  V30 23 1 8 22
M  V30 24 1 9 23
M  V30 25 1 9 24
M  V30 26 1 10 25
M  V30 27 1 10 26
M  V30 28 1 11 27
M  V30 29 1 11 28
M  V30 30 1 12 29
M  V30 31 1 12 30
M  V30 END BOND
M  V30 END CTAB
M  END
