
     RDKit          3D

  0  0  0  0  0  0  0  0  0  0999 V3000
M  V30 BEGIN CTAB
M  V30 COUNTS 32 34 0 0 0
M  V30 BEGIN ATOM
M  V30 1 N -1.80574 4.62635 -0.198644 0
M  V30 2 N -1.30584 3.32911 -0.158552 0
M  V30 3 C -2.1961 2.19706 0.0414225 0
M  V30 4 O -3.41592 2.44965 0.173221 0
M  V30 5 C -1.61202 0.865989 0.0737272 0
M  V30 6 N -0.285584 0.779437 -0.0844942 0
M  V30 7 N 0.37782 -0.349534 -0.0779685 0
M  V30 8 C 1.79324 -0.350774 -0.254052 0
M  V30 9 C 2.66128 0.272051 0.629491 0
M  V30 10 C 4.02795 0.259004 0.4406 0
M  V30 11 C 4.5874 -0.379942 -0.644197 0
M  V30 12 C 3.73161 -1.00115 -1.52667 0
M  V30 13 C 2.35561 -0.99031 -1.34015 0
M  V30 14 Cl 6.31212 -0.423981 -0.926412 0
M  V30 15 C -0.32388 -1.47591 0.0982205 0
M  V30 16 O 0.333254 -2.54406 0.100732 0
M  V30 17 C -1.72884 -1.47331 0.272838 0
M  V30 18 C -2.37517 -0.294498 0.26025 0
M  V30 19 C -3.731 -0.32286 0.43118 0
M  V30 20 S -4.06541 -2.00041 0.605148 0
M  V30 21 C -2.49395 -2.60099 0.457009 0
M  V30 22 N -2.08271 -3.98048 0.514678 0
M  V30 23 H -1.22212 5.23769 0.441503 0
M  V30 24 H -1.62007 4.99959 -1.17239 0
M  V30 25 H -0.292676 3.12813 -0.268732 0
M  V30 26 H 2.24043 0.777551 1.48507 0
M  V30 27 H 4.69739 0.746548 1.13347 0
M  V30 28 H 4.13331 -1.5085 -2.38283 0
M  V30 29 H 1.67339 -1.47884 -2.03303 0
M  V30 30 H -4.48094 0.475677 0.46148 0
M  V30 31 H -1.20433 -4.28187 0.981139 0
M  V30 32 H -2.68254 -4.68642 0.0778154 0
M  V30 END ATOM
M  V30 BEGIN BOND
M  V30 1 1 1 2
M  V30 2 1 2 3
M  V30 3 2 3 4
M  V30 4 1 3 5
M  V30 5 2 5 6
M  V30 6 1 6 7
M  V30 7 1 7 8
M  V30 8 2 8 9
M  V30 9 1 9 10
M  V30 10 2 10 11
M  V30 11 1 11 12
M  V30 12 2 12 13
M  V30 13 1 11 14
M  V30 14 1 7 15
M  V30 15 2 15 16
M  V30 16 1 15 17
M  V30 17 1 17 18
M  V30 18 2 18 19
M  V30 19 1 19 20
M  V30 20 1 20 21
M  V30 21 1 21 22
M  V30 22 1 18 5
M  V30 23 1 13 8
M  V30 24 2 21 17
M  V30 25 1 1 23
M  V30 26 1 1 24
M  V30 27 1 2 25
M  V30 28 1 9 26
M  V30 29 1 10 27
M  V30 30 1 12 28
M  V30 31 1 13 29
M  V30 32 1 19 30
M  V30 33 1 22 31
M  V30 34 1 22 32
M  V30 END BOND
M  V30 END CTAB
M  END
