
     RDKit          3D

  0  0  0  0  0  0  0  0  0  0999 V3000
M  V30 BEGIN CTAB
M  V30 COUNTS 41 44 0 0 0
M  V30 BEGIN ATOM
M  V30 1 N 1.2563 2.3301 -2.437 0
M  V30 2 C 1.56433 1.39124 -1.41886 0
M  V30 3 N 2.82766 1.19495 -1.07323 0
M  V30 4 C 3.13554 0.29543 -0.0965969 0
M  V30 5 N 2.1789 -0.387855 0.513272 0
M  V30 6 C 0.896639 -0.206242 0.180886 0
M  V30 7 N -0.0673706 -0.916488 0.818596 0
M  V30 8 C -1.37537 -0.715081 0.463207 0
M  V30 9 N -2.29532 -1.50543 1.17957 0
M  V30 10 C -1.75917 0.157726 -0.493257 0
M  V30 11 C -3.08504 0.493441 -0.984676 0
M  V30 12 C -4.25668 -0.03089 -0.323743 0
M  V30 13 C -4.85799 0.621261 0.744311 0
M  V30 14 C -5.99972 0.108219 1.34135 0
M  V30 15 C -6.55727 -1.06432 0.879486 0
M  V30 16 C -5.97956 -1.72827 -0.177211 0
M  V30 17 C -4.849 -1.19647 -0.748879 0
M  V30 18 N -0.736174 0.846988 -1.10276 0
M  V30 19 C 0.544968 0.695931 -0.803328 0
M  V30 20 C 4.55426 0.144222 0.220252 0
M  V30 21 C 5.00138 -0.733337 1.1892 0
M  V30 22 C 6.32157 -0.903437 1.51565 0
M  V30 23 C 7.28025 -0.147719 0.832172 0
M  V30 24 C 6.86261 0.73319 -0.137003 0
M  V30 25 C 5.51601 0.872621 -0.434315 0
M  V30 26 H 1.41688 2.0307 -3.43801 0
M  V30 27 H 0.880235 3.29305 -2.20366 0
M  V30 28 H -2.71641 -1.15018 2.04829 0
M  V30 29 H -2.53542 -2.44832 0.837558 0
M  V30 30 H -3.07043 0.230061 -2.09841 0
M  V30 31 H -3.10961 1.63687 -1.04869 0
M  V30 32 H -4.4154 1.5372 1.09857 0
M  V30 33 H -6.46059 0.628454 2.17673 0
M  V30 34 H -7.44366 -1.50129 1.31149 0
M  V30 35 H -6.36593 -2.64772 -0.584675 0
M  V30 36 H -4.37509 -1.71199 -1.59191 0
M  V30 37 H 4.25202 -1.31307 1.71157 0
M  V30 38 H 6.68626 -1.57822 2.26293 0
M  V30 39 H 8.3417 -0.261313 1.07034 0
M  V30 40 H 7.57735 1.33035 -0.682191 0
M  V30 41 H 5.21635 1.57564 -1.20416 0
M  V30 END ATOM
M  V30 BEGIN BOND
M  V30 1 1 1 2
M  V30 2 2 2 3
M  V30 3 1 3 4
M  V30 4 2 4 5
M  V30 5 1 5 6
M  V30 6 2 6 7
M  V30 7 1 7 8
M  V30 8 1 8 9
M  V30 9 2 8 10
M  V30 10 1 10 11
M  V30 11 1 11 12
M  V30 12 2 12 13
M  V30 13 1 13 14
M  V30 14 2 14 15
M  V30 15 1 15 16
M  V30 16 2 16 17
M  V30 17 1 10 18
M  V30 18 2 18 19
M  V30 19 1 4 20
M  V30 20 2 20 21
M  V30 21 1 21 22
M  V30 22 2 22 23
M  V30 23 1 23 24
M  V30 24 2 24 25
M  V30 25 1 19 2
M  V30 26 1 25 20
M  V30 27 1 19 6
M  V30 28 1 17 12
M  V30 29 1 1 26
M  V30 30 1 1 27
M  V30 31 1 9 28
M  V30 32 1 9 29
M  V30 33 1 11 30
M  V30 34 1 11 31
M  V30 35 1 13 32
M  V30 36 1 14 33
M  V30 37 1 15 34
M  V30 38 1 16 35
M  V30 39 1 17 36
M  V30 40 1 21 37
M  V30 41 1 22 38
M  V30 42 1 23 39
M  V30 43 1 24 40
M  V30 44 1 25 41
M  V30 END BOND
M  V30 END CTAB
M  END
