
     RDKit          3D

  0  0  0  0  0  0  0  0  0  0999 V3000
M  V30 BEGIN CTAB
M  V30 COUNTS 43 44 0 0 0
M  V30 BEGIN ATOM
M  V30 1 C -2.11688 1.69588 -0.428847 0 CFG=1
M  V30 2 N -2.17474 1.30352 -1.80299 0
M  V30 3 C -3.06214 0.804915 0.368863 0
M  V30 4 C -4.44995 1.00037 -0.18791 0
M  V30 5 C -5.45427 0.143733 0.556734 0
M  V30 6 C -5.12175 -1.31915 0.450715 0
M  V30 7 N -6.13645 -2.05903 1.19262 0
M  V30 8 C -0.739544 1.40142 0.116106 0
M  V30 9 O -0.536222 1.70162 1.3435 0
M  V30 10 N 0.206496 0.831771 -0.735766 0
M  V30 11 C 1.54479 0.501946 -0.37715 0
M  V30 12 C 2.27603 -0.34286 -1.22461 0
M  V30 13 C 3.57404 -0.719165 -1.00095 0
M  V30 14 C 4.22269 -0.249755 0.122211 0
M  V30 15 C 3.53304 0.582277 0.975205 0
M  V30 16 C 2.19793 0.959689 0.729758 0
M  V30 17 C 5.52834 -0.633383 0.339423 0
M  V30 18 C 6.23301 -0.137941 1.53729 0
M  V30 19 C 6.17272 -1.4787 -0.562489 0
M  V30 20 C 5.45103 -1.9003 -1.6573 0
M  V30 21 O 6.06377 -2.66935 -2.46147 0
M  V30 22 O 4.22005 -1.52595 -1.84259 0
M  V30 23 H -2.36146 2.7496 -0.33661 0
M  V30 24 H -1.57283 1.83941 -2.45137 0
M  V30 25 H -2.09242 0.307561 -1.99749 0
M  V30 26 H -2.71864 -0.241632 0.345637 0
M  V30 27 H -3.07039 1.14343 1.43008 0
M  V30 28 H -4.69241 2.0708 -0.0916062 0
M  V30 29 H -4.40829 0.717375 -1.27124 0
M  V30 30 H -5.41638 0.431753 1.61808 0
M  V30 31 H -6.4375 0.314617 0.0854932 0
M  V30 32 H -5.10603 -1.69424 -0.578465 0
M  V30 33 H -4.1546 -1.56729 0.92705 0
M  V30 34 H -7.08263 -1.60528 1.11133 0
M  V30 35 H -6.18829 -3.05035 0.811521 0
M  V30 36 H -0.117831 0.637315 -1.73121 0
M  V30 37 H 1.75403 -0.703869 -2.10197 0
M  V30 38 H 4.02083 0.965459 1.86626 0
M  V30 39 H 1.71228 1.6221 1.42449 0
M  V30 40 H 5.73373 -0.52816 2.45831 0
M  V30 41 H 6.28723 0.971449 1.57649 0
M  V30 42 H 7.2835 -0.493322 1.51082 0
M  V30 43 H 7.19611 -1.77826 -0.390488 0
M  V30 END ATOM
M  V30 BEGIN BOND
M  V30 1 1 1 2
M  V30 2 1 1 3
M  V30 3 1 3 4
M  V30 4 1 4 5
M  V30 5 1 5 6
M  V30 6 1 6 7
M  V30 7 1 1 8
M  V30 8 2 8 9
M  V30 9 1 8 10
M  V30 10 1 10 11
M  V30 11 2 11 12
M  V30 12 1 12 13
M  V30 13 2 13 14
M  V30 14 1 14 15
M  V30 15 2 15 16
M  V30 16 1 14 17
M  V30 17 1 17 18
M  V30 18 2 17 19
M  V30 19 1 19 20
M  V30 20 2 20 21
M  V30 21 1 20 22
M  V30 22 1 16 11
M  V30 23 1 22 13
M  V30 24 1 1 23 CFG=3
M  V30 25 1 2 24
M  V30 26 1 2 25
M  V30 27 1 3 26
M  V30 28 1 3 27
M  V30 29 1 4 28
M  V30 30 1 4 29
M  V30 31 1 5 30
M  V30 32 1 5 31
M  V30 33 1 6 32
M  V30 34 1 6 33
M  V30 35 1 7 34
M  V30 36 1 7 35
M  V30 37 1 10 36
M  V30 38 1 12 37
M  V30 39 1 15 38
M  V30 40 1 16 39
M  V30 41 1 18 40
M  V30 42 1 18 41
M  V30 43 1 18 42
M  V30 44 1 19 43
M  V30 END BOND
M  V30 END CTAB
M  END
