
     RDKit          3D

  0  0  0  0  0  0  0  0  0  0999 V3000
M  V30 BEGIN CTAB
M  V30 COUNTS 20 20 0 0 0
M  V30 BEGIN ATOM
M  V30 1 N -3.10595 -0.601952 0.740545 0
M  V30 2 C -1.75788 -0.431927 0.331527 0
M  V30 3 C -1.35173 0.744178 -0.224479 0
M  V30 4 S -2.48534 2.09127 -0.453802 0
M  V30 5 C -0.0231961 0.88448 -0.617079 0
M  V30 6 C 0.85183 -0.148234 -0.442793 0
M  V30 7 C 0.414596 -1.31487 0.11749 0
M  V30 8 C -0.904436 -1.49634 0.523511 0
M  V30 9 S 2.50861 0.0100652 -0.925949 0
M  V30 10 N 3.51658 0.624246 0.324274 0
M  V30 11 O 2.66129 0.903443 -2.12897 0
M  V30 12 O 3.05741 -1.36414 -1.28848 0
M  V30 13 H -3.63162 -1.42674 0.376332 0
M  V30 14 H -3.5323 0.0844368 1.38096 0
M  V30 15 H -3.3367 2.18782 0.655748 0
M  V30 16 H 0.261486 1.84949 -1.06092 0
M  V30 17 H 1.07359 -2.17229 0.279399 0
M  V30 18 H -1.21646 -2.42163 0.959024 0
M  V30 19 H 3.21218 0.380007 1.27048 0
M  V30 20 H 3.78805 1.61869 0.183179 0
M  V30 END ATOM
M  V30 BEGIN BOND
M  V30 1 1 1 2
M  V30 2 2 2 3
M  V30 3 1 3 4
M  V30 4 1 3 5
M  V30 5 2 5 6
M  V30 6 1 6 7
M  V30 7 2 7 8
M  V30 8 1 6 9
M  V30 9 1 9 10
M  V30 10 2 9 11
M  V30 11 2 9 12
M  V30 12 1 8 2
M  V30 13 1 1 13
M  V30 14 1 1 14
M  V30 15 1 4 15
M  V30 16 1 5 16
M  V30 17 1 7 17
M  V30 18 1 8 18
M  V30 19 1 10 19
M  V30 20 1 10 20
M  V30 END BOND
M  V30 END CTAB
M  END
