
     RDKit          3D

  0  0  0  0  0  0  0  0  0  0999 V3000
M  V30 BEGIN CTAB
M  V30 COUNTS 46 47 0 0 0
M  V30 BEGIN ATOM
M  V30 1 O 0.402898 -0.978954 -0.0983013 0
M  V30 2 C -0.0297786 -0.306077 0.869514 0
M  V30 3 N -1.40483 -0.179997 1.05416 0
M  V30 4 C -2.42285 -0.765887 0.213909 0
M  V30 5 C -3.20658 0.327403 -0.390933 0
M  V30 6 C -3.64057 1.40294 0.382591 0
M  V30 7 C -4.3748 2.42907 -0.176821 0
M  V30 8 C -4.69308 2.40499 -1.52372 0
M  V30 9 C -4.27858 1.35339 -2.3202 0
M  V30 10 C -3.55156 0.353944 -1.72673 0
M  V30 11 C -3.26819 -1.77907 0.92148 0
M  V30 12 C -4.01197 -1.24768 2.10174 0
M  V30 13 C -4.29056 -2.29241 -0.0821331 0
M  V30 14 C 0.903668 0.352764 1.81409 0
M  V30 15 S 2.61703 0.0483321 1.40128 0
M  V30 16 C 3.08305 0.811206 -0.167352 0
M  V30 17 C 4.52051 0.490387 -0.403631 0
M  V30 18 N 4.85291 -0.620237 -1.0727 0
M  V30 19 C 6.15032 -0.956096 -1.31246 0
M  V30 20 N 6.48229 -2.12631 -2.01728 0
M  V30 21 N 7.09622 -0.136539 -0.85599 0
M  V30 22 C 6.81905 0.993911 -0.176802 0
M  V30 23 N 5.51318 1.28845 0.0386497 0
M  V30 24 N 7.87952 1.8088 0.274078 0
M  V30 25 H -1.76257 0.378749 1.85892 0
M  V30 26 H -1.8909 -1.30617 -0.600332 0
M  V30 27 H -3.42465 1.47922 1.43927 0
M  V30 28 H -4.70111 3.25929 0.457136 0
M  V30 29 H -5.27646 3.21814 -1.97268 0
M  V30 30 H -4.53469 1.34017 -3.38803 0
M  V30 31 H -3.23201 -0.464052 -2.35783 0
M  V30 32 H -2.62949 -2.62145 1.20794 0
M  V30 33 H -3.42594 -0.629791 2.78184 0
M  V30 34 H -4.36767 -2.12735 2.69219 0
M  V30 35 H -4.94884 -0.700413 1.81082 0
M  V30 36 H -4.801 -3.1583 0.375683 0
M  V30 37 H -3.82631 -2.5826 -1.04251 0
M  V30 38 H -5.05385 -1.51582 -0.312186 0
M  V30 39 H 0.749023 1.4489 1.86584 0
M  V30 40 H 0.740764 -0.0111779 2.86851 0
M  V30 41 H 2.48645 0.325728 -0.986021 0
M  V30 42 H 2.9456 1.90149 -0.190304 0
M  V30 43 H 6.93857 -2.07849 -2.94845 0
M  V30 44 H 6.26921 -3.04995 -1.60266 0
M  V30 45 H 7.90018 2.84776 0.140748 0
M  V30 46 H 8.69841 1.36982 0.770529 0
M  V30 END ATOM
M  V30 BEGIN BOND
M  V30 1 2 1 2
M  V30 2 1 2 3
M  V30 3 1 3 4
M  V30 4 1 4 5
M  V30 5 2 5 6
M  V30 6 1 6 7
M  V30 7 2 7 8
M  V30 8 1 8 9
M  V30 9 2 9 10
M  V30 10 1 4 11
M  V30 11 1 11 12
M  V30 12 1 11 13
M  V30 13 1 2 14
M  V30 14 1 14 15
M  V30 15 1 15 16
M  V30 16 1 16 17
M  V30 17 2 17 18
M  V30 18 1 18 19
M  V30 19 1 19 20
M  V30 20 2 19 21
M  V30 21 1 21 22
M  V30 22 2 22 23
M  V30 23 1 22 24
M  V30 24 1 10 5
M  V30 25 1 23 17
M  V30 26 1 3 25
M  V30 27 1 4 26
M  V30 28 1 6 27
M  V30 29 1 7 28
M  V30 30 1 8 29
M  V30 31 1 9 30
M  V30 32 1 10 31
M  V30 33 1 11 32
M  V30 34 1 12 33
M  V30 35 1 12 34
M  V30 36 1 12 35
M  V30 37 1 13 36
M  V30 38 1 13 37
M  V30 39 1 13 38
M  V30 40 1 14 39
M  V30 41 1 14 40
M  V30 42 1 16 41
M  V30 43 1 16 42
M  V30 44 1 20 43
M  V30 45 1 20 44
M  V30 46 1 24 45
M  V30 47 1 24 46
M  V30 END BOND
M  V30 END CTAB
M  END
