
     RDKit          3D

  0  0  0  0  0  0  0  0  0  0999 V3000
M  V30 BEGIN CTAB
M  V30 COUNTS 19 19 0 0 0
M  V30 BEGIN ATOM
M  V30 1 N 3.74046 0.0222065 0.187157 0
M  V30 2 N 2.41686 0.396662 0.385526 0
M  V30 3 C 1.30362 -0.292402 -0.158107 0
M  V30 4 O 1.49492 -1.30247 -0.863249 0
M  V30 5 C -0.0471279 0.169354 0.100674 0
M  V30 6 N -0.328436 1.2545 0.854366 0
M  V30 7 C -1.60038 1.64264 1.06502 0
M  V30 8 C -2.69735 0.987596 0.546315 0
M  V30 9 C -2.4358 -0.12315 -0.226489 0
M  V30 10 C -1.11323 -0.505452 -0.430462 0
M  V30 11 N -0.835974 -1.65318 -1.22864 0
M  V30 12 H 3.96197 -0.245881 -0.777195 0
M  V30 13 H 4.09318 -0.635525 0.911775 0
M  V30 14 H 2.25491 1.24171 0.975375 0
M  V30 15 H -1.7841 2.51952 1.67625 0
M  V30 16 H -3.72235 1.3311 0.737806 0
M  V30 17 H -3.23112 -0.689116 -0.666983 0
M  V30 18 H -0.701568 -2.58336 -0.827799 0
M  V30 19 H -0.768482 -1.53474 -2.26134 0
M  V30 END ATOM
M  V30 BEGIN BOND
M  V30 1 1 1 2
M  V30 2 1 2 3
M  V30 3 2 3 4
M  V30 4 1 3 5
M  V30 5 2 5 6
M  V30 6 1 6 7
M  V30 7 2 7 8
M  V30 8 1 8 9
M  V30 9 2 9 10
M  V30 10 1 10 11
M  V30 11 1 10 5
M  V30 12 1 1 12
M  V30 13 1 1 13
M  V30 14 1 2 14
M  V30 15 1 7 15
M  V30 16 1 8 16
M  V30 17 1 9 17
M  V30 18 1 11 18
M  V30 19 1 11 19
M  V30 END BOND
M  V30 END CTAB
M  END
