
     RDKit          3D

  0  0  0  0  0  0  0  0  0  0999 V3000
M  V30 BEGIN CTAB
M  V30 COUNTS 28 29 0 0 0
M  V30 BEGIN ATOM
M  V30 1 N -5.70623 -1.24268 -0.1504 0
M  V30 2 C -4.64667 -0.305176 -0.0299508 0
M  V30 3 N -4.96006 1.01305 0.398813 0
M  V30 4 N -3.43606 -0.662722 -0.308178 0
M  V30 5 C -2.35579 0.245255 -0.199301 0
M  V30 6 O -2.57383 1.47232 -0.119887 0
M  V30 7 C -0.983499 -0.229049 -0.178014 0
M  V30 8 C -0.605929 -1.57421 -0.259453 0
M  V30 9 C 0.771406 -1.57343 -0.20382 0
M  V30 10 C 1.17096 -0.260822 -0.0933634 0
M  V30 11 O 0.112425 0.506652 -0.0809182 0
M  V30 12 C 2.55282 0.197449 -0.00467509 0
M  V30 13 C 3.61967 -0.680971 -0.0247594 0
M  V30 14 C 4.9294 -0.301366 0.0553664 0
M  V30 15 F 5.9032 -1.24818 0.0266084 0
M  V30 16 C 5.21765 1.03779 0.163236 0
M  V30 17 C 4.18111 1.9496 0.186945 0
M  V30 18 F 4.5154 3.25412 0.294212 0
M  V30 19 C 2.86741 1.53912 0.10444 0
M  V30 20 H -5.77523 -1.8181 -1.02124 0
M  V30 21 H -6.43373 -1.4045 0.575398 0
M  V30 22 H -5.09056 1.27667 1.40121 0
M  V30 23 H -5.07724 1.80268 -0.297636 0
M  V30 24 H -1.26878 -2.42156 -0.347093 0
M  V30 25 H 1.39019 -2.45702 -0.242358 0
M  V30 26 H 3.36555 -1.7465 -0.111601 0
M  V30 27 H 6.26091 1.35404 0.228057 0
M  V30 28 H 2.05552 2.27756 0.124751 0
M  V30 END ATOM
M  V30 BEGIN BOND
M  V30 1 1 1 2
M  V30 2 1 2 3
M  V30 3 2 2 4
M  V30 4 1 4 5
M  V30 5 2 5 6
M  V30 6 1 5 7
M  V30 7 2 7 8
M  V30 8 1 8 9
M  V30 9 2 9 10
M  V30 10 1 10 11
M  V30 11 1 10 12
M  V30 12 2 12 13
M  V30 13 1 13 14
M  V30 14 1 14 15
M  V30 15 2 14 16
M  V30 16 1 16 17
M  V30 17 1 17 18
M  V30 18 2 17 19
M  V30 19 1 11 7
M  V30 20 1 19 12
M  V30 21 1 1 20
M  V30 22 1 1 21
M  V30 23 1 3 22
M  V30 24 1 3 23
M  V30 25 1 8 24
M  V30 26 1 9 25
M  V30 27 1 13 26
M  V30 28 1 16 27
M  V30 29 1 19 28
M  V30 END BOND
M  V30 END CTAB
M  END
