
     RDKit          3D

  0  0  0  0  0  0  0  0  0  0999 V3000
M  V30 BEGIN CTAB
M  V30 COUNTS 26 27 0 0 0
M  V30 BEGIN ATOM
M  V30 1 N -3.43834 1.34981 1.59291 0
M  V30 2 C -2.56802 0.639965 0.734897 0
M  V30 3 C -3.07383 -0.159384 -0.263149 0
M  V30 4 C -2.23441 -0.869227 -1.12179 0
M  V30 5 N -2.82024 -1.67443 -2.12877 0
M  V30 6 C -0.872343 -0.74384 -0.937695 0
M  V30 7 C -0.32498 0.0470361 0.0507884 0
M  V30 8 C -1.1829 0.733627 0.880303 0
M  V30 9 C 1.11234 0.165098 0.227567 0
M  V30 10 C 1.72518 0.934375 1.19085 0
M  V30 11 C 3.10045 0.78526 1.03633 0
M  V30 12 C 3.24497 -0.0776175 -0.0262284 0
M  V30 13 O 2.05396 -0.417152 -0.471231 0
M  V30 14 C 4.53785 -0.56848 -0.604587 0
M  V30 15 H -4.40156 1.5794 1.26892 0
M  V30 16 H -3.13769 1.6501 2.54601 0
M  V30 17 H -4.14952 -0.236615 -0.381591 0
M  V30 18 H -2.61991 -1.48109 -3.13289 0
M  V30 19 H -3.45159 -2.46142 -1.88578 0
M  V30 20 H -0.223232 -1.29368 -1.60278 0
M  V30 21 H -0.807438 1.36852 1.67241 0
M  V30 22 H 1.2117 1.54305 1.93155 0
M  V30 23 H 3.85113 1.25402 1.63148 0
M  V30 24 H 5.33651 0.142964 -0.347189 0
M  V30 25 H 4.40507 -0.661007 -1.71895 0
M  V30 26 H 4.72686 -1.54928 -0.141394 0
M  V30 END ATOM
M  V30 BEGIN BOND
M  V30 1 1 1 2
M  V30 2 2 2 3
M  V30 3 1 3 4
M  V30 4 1 4 5
M  V30 5 2 4 6
M  V30 6 1 6 7
M  V30 7 2 7 8
M  V30 8 1 7 9
M  V30 9 2 9 10
M  V30 10 1 10 11
M  V30 11 2 11 12
M  V30 12 1 12 13
M  V30 13 1 12 14
M  V30 14 1 8 2
M  V30 15 1 13 9
M  V30 16 1 1 15
M  V30 17 1 1 16
M  V30 18 1 3 17
M  V30 19 1 5 18
M  V30 20 1 5 19
M  V30 21 1 6 20
M  V30 22 1 8 21
M  V30 23 1 10 22
M  V30 24 1 11 23
M  V30 25 1 14 24
M  V30 26 1 14 25
M  V30 27 1 14 26
M  V30 END BOND
M  V30 END CTAB
M  END
