
     RDKit          3D

  0  0  0  0  0  0  0  0  0  0999 V3000
M  V30 BEGIN CTAB
M  V30 COUNTS 27 27 0 0 0
M  V30 BEGIN ATOM
M  V30 1 C 2.21281 1.06017 -0.917651 0
M  V30 2 C 1.79088 -0.283465 -0.43882 0
M  V30 3 C 1.28404 -0.404265 0.941612 0
M  V30 4 C 0.0750681 0.291976 1.39215 0
M  V30 5 C -1.18016 0.0451241 0.718423 0
M  V30 6 C -1.84897 -1.16275 0.964573 0
M  V30 7 C -2.96788 -1.50014 0.246911 0
M  V30 8 C -3.46221 -0.667103 -0.727768 0
M  V30 9 N -2.82313 0.482055 -0.953031 0
M  V30 10 C -1.69804 0.842555 -0.243908 0
M  V30 11 N -1.20002 2.13404 -0.529306 0
M  V30 12 N 3.01314 -1.12265 -0.502617 0
M  V30 13 H 1.98917 1.1046 -2.02374 0
M  V30 14 H 1.79759 1.89391 -0.353834 0
M  V30 15 H 3.33931 1.18906 -0.858983 0
M  V30 16 H 1.11438 -0.799022 -1.18958 0
M  V30 17 H 1.32289 -1.4877 1.21539 0
M  V30 18 H 2.13835 0.00602592 1.60211 0
M  V30 19 H -0.0280927 0.0964112 2.50355 0
M  V30 20 H 0.247305 1.40409 1.34146 0
M  V30 21 H -1.44728 -1.78005 1.7346 0
M  V30 22 H -3.49904 -2.42936 0.428345 0
M  V30 23 H -4.36308 -0.963675 -1.29683 0
M  V30 24 H -0.770049 2.73734 0.202539 0
M  V30 25 H -1.25759 2.50378 -1.49638 0
M  V30 26 H 2.73355 -2.15199 -0.547907 0
M  V30 27 H 3.48707 -1.03896 0.44087 0
M  V30 END ATOM
M  V30 BEGIN BOND
M  V30 1 1 1 2
M  V30 2 1 2 3
M  V30 3 1 3 4
M  V30 4 1 4 5
M  V30 5 2 5 6
M  V30 6 1 6 7
M  V30 7 2 7 8
M  V30 8 1 8 9
M  V30 9 2 9 10
M  V30 10 1 10 11
M  V30 11 1 2 12
M  V30 12 1 10 5
M  V30 13 1 1 13
M  V30 14 1 1 14
M  V30 15 1 1 15
M  V30 16 1 2 16
M  V30 17 1 3 17
M  V30 18 1 3 18
M  V30 19 1 4 19
M  V30 20 1 4 20
M  V30 21 1 6 21
M  V30 22 1 7 22
M  V30 23 1 8 23
M  V30 24 1 11 24
M  V30 25 1 11 25
M  V30 26 1 12 26
M  V30 27 1 12 27
M  V30 END BOND
M  V30 END CTAB
M  END
