
     RDKit          3D

  0  0  0  0  0  0  0  0  0  0999 V3000
M  V30 BEGIN CTAB
M  V30 COUNTS 100 102 0 0 0
M  V30 BEGIN ATOM
M  V30 1 C 9.24635 2.93028 -2.03007 0
M  V30 2 C 8.29119 1.72123 -2.14378 0
M  V30 3 C 7.85887 1.67213 -3.59464 0
M  V30 4 C 9.1438 0.5261 -1.78311 0
M  V30 5 C 8.45755 -0.786277 -1.80409 0
M  V30 6 N 7.35785 -0.892423 -0.886069 0
M  V30 7 C 6.0873 -0.572967 -1.14508 0
M  V30 8 C 5.27071 -0.786176 -0.0697095 0
M  V30 9 N 3.88234 -0.563593 0.0972794 0
M  V30 10 C 3.09233 0.0813436 -0.859854 0
M  V30 11 O 3.54354 0.506367 -1.94551 0
M  V30 12 C 1.64765 0.249525 -0.550598 0
M  V30 13 C 0.685566 0.286643 -1.51671 0
M  V30 14 C -0.669905 0.421816 -1.14606 0
M  V30 15 C -1.0322 0.516237 0.171527 0
M  V30 16 C -0.0475718 0.47961 1.14314 0
M  V30 17 C 1.2812 0.345838 0.773816 0
M  V30 18 C -2.44776 0.624786 0.5859 0
M  V30 19 O -2.67104 1.03087 1.73859 0
M  V30 20 N -3.4791 0.279985 -0.290947 0
M  V30 21 C -4.84408 0.369127 0.0787495 0
M  V30 22 C -5.46296 1.02848 1.09766 0
M  V30 23 N -6.83395 0.753894 1.08442 0
M  V30 24 C -7.7228 1.39356 2.02072 0
M  V30 25 C -8.11816 2.78512 1.74201 0
M  V30 26 C -8.90098 3.15378 0.554298 0
M  V30 27 C -10.2777 2.53872 0.462292 0
M  V30 28 C -8.19254 3.06747 -0.770573 0
M  V30 29 C -7.0736 -0.0638637 0.0785794 0
M  V30 30 C -5.88458 -0.31429 -0.558809 0
M  V30 31 C -8.35077 -0.728903 -0.281306 0
M  V30 32 O -9.23551 -0.824017 0.553242 0
M  V30 33 N -8.48048 -1.23359 -1.62038 0
M  V30 34 C -9.672 -1.89915 -2.09838 0
M  V30 35 C -10.849 -0.939526 -1.97101 0
M  V30 36 N -12.042 -1.63965 -2.44231 0
M  V30 37 C -12.5375 -2.77784 -1.78663 0
M  V30 38 N -13.3549 -2.74117 -0.649728 0
M  V30 39 N -12.1727 -3.96318 -2.29989 0
M  V30 40 C 6.12939 -1.28116 0.92939 0
M  V30 41 C 7.39056 -1.32416 0.381888 0
M  V30 42 C 8.54746 -1.74049 1.16112 0
M  V30 43 O 9.68443 -1.72554 0.709374 0
M  V30 44 N 8.32962 -2.18878 2.54117 0
M  V30 45 C 9.37226 -2.55594 3.36604 0
M  V30 46 C 10.4507 -3.00307 4.11618 0
M  V30 47 N 11.7576 -2.86896 3.43491 0
M  V30 48 C 12.2236 -1.56646 3.19145 0
M  V30 49 N 11.6243 -0.456786 3.82246 0
M  V30 50 N 13.2055 -1.30625 2.37174 0
M  V30 51 H 9.93703 2.91247 -2.86914 0
M  V30 52 H 9.78711 2.82449 -1.03759 0
M  V30 53 H 8.6833 3.88228 -2.07904 0
M  V30 54 H 7.46655 1.91217 -1.46383 0
M  V30 55 H 8.29622 0.730967 -4.02711 0
M  V30 56 H 8.27461 2.51328 -4.19383 0
M  V30 57 H 6.76815 1.54189 -3.68553 0
M  V30 58 H 9.72899 0.706962 -0.861649 0
M  V30 59 H 9.93951 0.491542 -2.59569 0
M  V30 60 H 8.09524 -0.959964 -2.87416 0
M  V30 61 H 9.22535 -1.58805 -1.68606 0
M  V30 62 H 5.78225 -0.194944 -2.10639 0
M  V30 63 H 3.45279 -0.920486 0.990065 0
M  V30 64 H 0.955015 0.205175 -2.55959 0
M  V30 65 H -1.39714 0.450954 -1.93534 0
M  V30 66 H -0.33397 0.555424 2.17022 0
M  V30 67 H 2.04332 0.330399 1.53887 0
M  V30 68 H -3.21351 -0.0735065 -1.25961 0
M  V30 69 H -5.00227 1.66947 1.8113 0
M  V30 70 H -8.57456 0.721315 2.28264 0
M  V30 71 H -7.13486 1.42036 3.00143 0
M  V30 72 H -7.19129 3.43622 1.73683 0
M  V30 73 H -8.67397 3.18023 2.64164 0
M  V30 74 H -9.11864 4.27609 0.678715 0
M  V30 75 H -11.0813 3.31444 0.491224 0
M  V30 76 H -10.4634 1.73847 1.21339 0
M  V30 77 H -10.3696 2.06029 -0.531082 0
M  V30 78 H -7.10901 3.09174 -0.632853 0
M  V30 79 H -8.45973 3.99136 -1.36134 0
M  V30 80 H -8.57506 2.22757 -1.39382 0
M  V30 81 H -5.7549 -0.938362 -1.41867 0
M  V30 82 H -7.64918 -1.09791 -2.26953 0
M  V30 83 H -9.84524 -2.86547 -1.61544 0
M  V30 84 H -9.54576 -2.10325 -3.19104 0
M  V30 85 H -10.6813 -0.0636156 -2.68326 0
M  V30 86 H -11.0045 -0.52195 -0.984757 0
M  V30 87 H -12.5306 -1.26807 -3.28695 0
M  V30 88 H -14.3923 -2.96358 -0.670509 0
M  V30 89 H -13.0103 -2.49471 0.324934 0
M  V30 90 H -11.5344 -3.87491 -3.16399 0
M  V30 91 H 5.75211 -1.54931 1.91291 0
M  V30 92 H 7.29981 -2.20254 2.84149 0
M  V30 93 H 8.60873 -2.25247 4.46808 0
M  V30 94 H 8.6884 -3.76257 3.54464 0
M  V30 95 H 10.5664 -2.41065 5.09769 0
M  V30 96 H 10.3866 -4.06062 4.51885 0
M  V30 97 H 12.2444 -3.74638 3.18899 0
M  V30 98 H 10.923 0.166455 3.33952 0
M  V30 99 H 11.8739 -0.227469 4.80454 0
M  V30 100 H 13.6603 -2.15034 1.87714 0
M  V30 END ATOM
M  V30 BEGIN BOND
M  V30 1 1 1 2
M  V30 2 1 2 3
M  V30 3 1 2 4
M  V30 4 1 4 5
M  V30 5 1 5 6
M  V30 6 1 6 7
M  V30 7 2 7 8
M  V30 8 1 8 9
M  V30 9 1 9 10
M  V30 10 2 10 11
M  V30 11 1 10 12
M  V30 12 2 12 13
M  V30 13 1 13 14
M  V30 14 2 14 15
M  V30 15 1 15 16
M  V30 16 2 16 17
M  V30 17 1 15 18
M  V30 18 2 18 19
M  V30 19 1 18 20
M  V30 20 1 20 21
M  V30 21 2 21 22
M  V30 22 1 22 23
M  V30 23 1 23 24
M  V30 24 1 24 25
M  V30 25 1 25 26
M  V30 26 1 26 27
M  V30 27 1 26 28
M  V30 28 1 23 29
M  V30 29 2 29 30
M  V30 30 1 29 31
M  V30 31 2 31 32
M  V30 32 1 31 33
M  V30 33 1 33 34
M  V30 34 1 34 35
M  V30 35 1 35 36
M  V30 36 1 36 37
M  V30 37 1 37 38
M  V30 38 2 37 39 CFG=2
M  V30 39 1 8 40
M  V30 40 2 40 41
M  V30 41 1 41 42
M  V30 42 2 42 43
M  V30 43 1 42 44
M  V30 44 1 44 45
M  V30 45 1 45 46
M  V30 46 1 46 47
M  V30 47 1 47 48
M  V30 48 1 48 49
M  V30 49 2 48 50 CFG=2
M  V30 50 1 41 6
M  V30 51 1 17 12
M  V30 52 1 30 21
M  V30 53 1 1 51
M  V30 54 1 1 52
M  V30 55 1 1 53
M  V30 56 1 2 54
M  V30 57 1 3 55
M  V30 58 1 3 56
M  V30 59 1 3 57
M  V30 60 1 4 58
M  V30 61 1 4 59
M  V30 62 1 5 60
M  V30 63 1 5 61
M  V30 64 1 7 62
M  V30 65 1 9 63
M  V30 66 1 13 64
M  V30 67 1 14 65
M  V30 68 1 16 66
M  V30 69 1 17 67
M  V30 70 1 20 68
M  V30 71 1 22 69
M  V30 72 1 24 70
M  V30 73 1 24 71
M  V30 74 1 25 72
M  V30 75 1 25 73
M  V30 76 1 26 74
M  V30 77 1 27 75
M  V30 78 1 27 76
M  V30 79 1 27 77
M  V30 80 1 28 78
M  V30 81 1 28 79
M  V30 82 1 28 80
M  V30 83 1 30 81
M  V30 84 1 33 82
M  V30 85 1 34 83
M  V30 86 1 34 84
M  V30 87 1 35 85
M  V30 88 1 35 86
M  V30 89 1 36 87
M  V30 90 1 38 88
M  V30 91 1 38 89
M  V30 92 1 39 90
M  V30 93 1 40 91
M  V30 94 1 44 92
M  V30 95 1 45 93
M  V30 96 1 45 94
M  V30 97 1 46 95
M  V30 98 1 46 96
M  V30 99 1 47 97
M  V30 100 1 49 98
M  V30 101 1 49 99
M  V30 102 1 50 100
M  V30 END BOND
M  V30 END CTAB
M  END
