
     RDKit          3D

  0  0  0  0  0  0  0  0  0  0999 V3000
M  V30 BEGIN CTAB
M  V30 COUNTS 23 23 0 0 0
M  V30 BEGIN ATOM
M  V30 1 N 3.77718 -0.711124 0.269453 0
M  V30 2 N 2.67858 0.112567 0.484339 0
M  V30 3 C 1.47739 -0.121598 -0.209237 0
M  V30 4 O 1.42815 -1.0804 -1.0144 0
M  V30 5 C 0.241707 0.686687 -0.0642042 0
M  V30 6 C -0.908615 -0.0939737 0.511128 0
M  V30 7 C -1.36941 -1.28808 -0.24633 0
M  V30 8 C -2.79808 -0.749358 -0.169734 0
M  V30 9 C -2.22433 0.613504 0.170118 0
M  V30 10 N 0.562 1.73099 0.921755 0
M  V30 11 H 4.61086 -0.194628 -0.106995 0
M  V30 12 H 4.08216 -1.17811 1.13665 0
M  V30 13 H 2.77956 0.891489 1.16388 0
M  V30 14 H -0.00201886 1.17511 -1.01423 0
M  V30 15 H -0.878534 -0.231283 1.61197 0
M  V30 16 H -0.998184 -1.42018 -1.27067 0
M  V30 17 H -1.30657 -2.24135 0.332675 0
M  V30 18 H -3.39335 -1.164 0.669224 0
M  V30 19 H -3.31823 -0.735263 -1.14379 0
M  V30 20 H -2.16053 1.2849 -0.709746 0
M  V30 21 H -2.69558 1.12849 1.01721 0
M  V30 22 H 0.672623 1.22676 1.82988 0
M  V30 23 H -0.256757 2.35886 0.950349 0
M  V30 END ATOM
M  V30 BEGIN BOND
M  V30 1 1 1 2
M  V30 2 1 2 3
M  V30 3 2 3 4
M  V30 4 1 3 5
M  V30 5 1 5 6
M  V30 6 1 6 7
M  V30 7 1 7 8
M  V30 8 1 8 9
M  V30 9 1 5 10
M  V30 10 1 9 6
M  V30 11 1 1 11
M  V30 12 1 1 12
M  V30 13 1 2 13
M  V30 14 1 5 14
M  V30 15 1 6 15
M  V30 16 1 7 16
M  V30 17 1 7 17
M  V30 18 1 8 18
M  V30 19 1 8 19
M  V30 20 1 9 20
M  V30 21 1 9 21
M  V30 22 1 10 22
M  V30 23 1 10 23
M  V30 END BOND
M  V30 END CTAB
M  END
