
     RDKit          3D

  0  0  0  0  0  0  0  0  0  0999 V3000
M  V30 BEGIN CTAB
M  V30 COUNTS 26 26 0 0 0
M  V30 BEGIN ATOM
M  V30 1 C -0.773922 1.37861 0.540004 0
M  V30 2 C -0.927031 0.0466744 -0.106549 0
M  V30 3 C 0.0493309 -0.952143 0.433054 0
M  V30 4 C 1.45759 -0.563287 0.236549 0
M  V30 5 N 1.98116 0.614102 -0.148406 0
M  V30 6 C 3.31437 0.467986 -0.17915 0
M  V30 7 N 3.55947 -0.796285 0.188879 0
M  V30 8 O 2.45836 -1.39028 0.43009 0
M  V30 9 N 4.31514 1.41873 -0.522467 0
M  V30 10 N -0.262178 -2.24102 -0.147376 0
M  V30 11 C -2.32563 -0.513904 0.142288 0
M  V30 12 C -3.3968 0.374351 -0.402456 0
M  V30 13 H -0.267283 1.28944 1.53485 0
M  V30 14 H -0.175012 2.05135 -0.0735854 0
M  V30 15 H -1.7894 1.84339 0.66417 0
M  V30 16 H -0.844847 0.17897 -1.20383 0
M  V30 17 H -0.139589 -1.04478 1.52701 0
M  V30 18 H 5.11044 1.1138 -1.12568 0
M  V30 19 H 4.31081 2.41157 -0.21039 0
M  V30 20 H 0.0951088 -3.02411 0.44079 0
M  V30 21 H 0.256514 -2.26926 -1.07634 0
M  V30 22 H -2.40887 -1.54159 -0.249391 0
M  V30 23 H -2.50947 -0.597584 1.2533 0
M  V30 24 H -4.291 -0.284421 -0.60737 0
M  V30 25 H -3.10945 0.925207 -1.31395 0
M  V30 26 H -3.68782 1.10447 0.360021 0
M  V30 END ATOM
M  V30 BEGIN BOND
M  V30 1 1 1 2
M  V30 2 1 2 3
M  V30 3 1 3 4
M  V30 4 2 4 5
M  V30 5 1 5 6
M  V30 6 2 6 7
M  V30 7 1 7 8
M  V30 8 1 6 9
M  V30 9 1 3 10
M  V30 10 1 2 11
M  V30 11 1 11 12
M  V30 12 1 8 4
M  V30 13 1 1 13
M  V30 14 1 1 14
M  V30 15 1 1 15
M  V30 16 1 2 16
M  V30 17 1 3 17
M  V30 18 1 9 18
M  V30 19 1 9 19
M  V30 20 1 10 20
M  V30 21 1 10 21
M  V30 22 1 11 22
M  V30 23 1 11 23
M  V30 24 1 12 24
M  V30 25 1 12 25
M  V30 26 1 12 26
M  V30 END BOND
M  V30 END CTAB
M  END
