
     RDKit          3D

  0  0  0  0  0  0  0  0  0  0999 V3000
M  V30 BEGIN CTAB
M  V30 COUNTS 44 44 0 0 0
M  V30 BEGIN ATOM
M  V30 1 N -3.5326 -2.87812 -0.926282 0
M  V30 2 C -2.21715 -2.32515 -1.17956 0
M  V30 3 C -1.97666 -1.07242 -0.356807 0
M  V30 4 N -0.684883 -0.5106 -0.59135 0
M  V30 5 C 0.333772 -0.368498 0.363818 0
M  V30 6 O 0.142108 -0.752602 1.53365 0
M  V30 7 C 1.66874 0.236349 0.0347388 0
M  V30 8 C 2.29682 -0.593359 -1.02657 0
M  V30 9 C 3.75662 -0.343947 -1.23897 0
M  V30 10 C 4.5224 -0.160587 0.0429087 0
M  V30 11 C 3.85619 0.93423 0.832696 0
M  V30 12 C 2.50165 0.399675 1.27386 0
M  V30 13 N 4.65664 1.37264 1.95441 0
M  V30 14 C -3.03079 -0.0680725 -0.786277 0
M  V30 15 C -2.89755 1.21929 -0.0375763 0
M  V30 16 C -3.0603 0.9706 1.43782 0
M  V30 17 C -3.84745 2.26289 -0.531234 0
M  V30 18 H -3.51773 -3.93154 -0.889752 0
M  V30 19 H -3.99856 -2.46677 -0.0931103 0
M  V30 20 H -2.14156 -2.09465 -2.2679 0
M  V30 21 H -1.48504 -3.1162 -0.967167 0
M  V30 22 H -2.08128 -1.34775 0.709191 0
M  V30 23 H -0.486125 -0.172642 -1.58036 0
M  V30 24 H 1.42346 1.27949 -0.320021 0
M  V30 25 H 2.06936 -1.66431 -0.821078 0
M  V30 26 H 1.78027 -0.360942 -1.99655 0
M  V30 27 H 3.89411 0.529407 -1.8877 0
M  V30 28 H 4.18027 -1.24972 -1.74498 0
M  V30 29 H 5.56844 0.0609938 -0.209787 0
M  V30 30 H 4.46855 -1.12912 0.607488 0
M  V30 31 H 3.65097 1.77885 0.148247 0
M  V30 32 H 1.97969 1.07707 1.95473 0
M  V30 33 H 2.66717 -0.611253 1.70858 0
M  V30 34 H 5.66028 1.25789 1.68881 0
M  V30 35 H 4.51717 2.42227 2.03196 0
M  V30 36 H -3.01571 0.0613761 -1.88234 0
M  V30 37 H -4.06434 -0.460936 -0.558783 0
M  V30 38 H -1.85942 1.63039 -0.204702 0
M  V30 39 H -3.428 -0.076071 1.64317 0
M  V30 40 H -3.83674 1.6346 1.85997 0
M  V30 41 H -2.10167 1.05319 2.00052 0
M  V30 42 H -4.21027 2.04758 -1.56102 0
M  V30 43 H -4.72452 2.26619 0.172885 0
M  V30 44 H -3.39632 3.26028 -0.458555 0
M  V30 END ATOM
M  V30 BEGIN BOND
M  V30 1 1 1 2
M  V30 2 1 2 3
M  V30 3 1 3 4
M  V30 4 1 4 5
M  V30 5 2 5 6
M  V30 6 1 5 7
M  V30 7 1 7 8
M  V30 8 1 8 9
M  V30 9 1 9 10
M  V30 10 1 10 11
M  V30 11 1 11 12
M  V30 12 1 11 13
M  V30 13 1 3 14
M  V30 14 1 14 15
M  V30 15 1 15 16
M  V30 16 1 15 17
M  V30 17 1 12 7
M  V30 18 1 1 18
M  V30 19 1 1 19
M  V30 20 1 2 20
M  V30 21 1 2 21
M  V30 22 1 3 22
M  V30 23 1 4 23
M  V30 24 1 7 24
M  V30 25 1 8 25
M  V30 26 1 8 26
M  V30 27 1 9 27
M  V30 28 1 9 28
M  V30 29 1 10 29
M  V30 30 1 10 30
M  V30 31 1 11 31
M  V30 32 1 12 32
M  V30 33 1 12 33
M  V30 34 1 13 34
M  V30 35 1 13 35
M  V30 36 1 14 36
M  V30 37 1 14 37
M  V30 38 1 15 38
M  V30 39 1 16 39
M  V30 40 1 16 40
M  V30 41 1 16 41
M  V30 42 1 17 42
M  V30 43 1 17 43
M  V30 44 1 17 44
M  V30 END BOND
M  V30 END CTAB
M  END
