
     RDKit          3D

  0  0  0  0  0  0  0  0  0  0999 V3000
M  V30 BEGIN CTAB
M  V30 COUNTS 50 52 0 0 0
M  V30 BEGIN ATOM
M  V30 1 N 5.70294 2.41405 0.678633 0
M  V30 2 C 6.16773 1.11443 1.10386 0 CFG=1
M  V30 3 C 5.91513 0.0896561 0.00464562 0
M  V30 4 C 4.43805 0.0739126 -0.231082 0
M  V30 5 C 3.93427 0.939601 -1.17379 0
M  V30 6 C 2.57211 0.970402 -1.43915 0
M  V30 7 C 1.69914 0.140757 -0.769501 0
M  V30 8 C 2.22311 -0.712558 0.164689 0
M  V30 9 C 3.5837 -0.755275 0.441631 0
M  V30 10 C 0.270436 0.223634 -1.10105 0
M  V30 11 N -0.167446 1.08417 -2.03203 0
M  V30 12 C -1.44494 1.23584 -2.40738 0
M  V30 13 N -1.83612 2.17758 -3.40697 0
M  V30 14 N -2.3454 0.45141 -1.78754 0
M  V30 15 C -2.03698 -0.451718 -0.836873 0
M  V30 16 O -2.95115 -1.26556 -0.190467 0
M  V30 17 C -4.35365 -1.18495 -0.499496 0
M  V30 18 C -5.19465 -1.03369 0.685754 0
M  V30 19 C -5.08188 0.0862644 1.52136 0
M  V30 20 F -4.16562 1.01926 1.17926 0
M  V30 21 C -5.84929 0.265069 2.64754 0
M  V30 22 C -6.77867 -0.687288 2.99056 0
M  V30 23 Cl -7.76373 -0.462297 4.43137 0
M  V30 24 C -6.91945 -1.8013 2.19604 0
M  V30 25 C -6.12685 -1.96257 1.05369 0
M  V30 26 C -4.72804 -2.32895 -1.41565 0
M  V30 27 F -3.91468 -2.1488 -2.56682 0
M  V30 28 F -6.03622 -2.22446 -1.81327 0
M  V30 29 F -4.44163 -3.5654 -0.909169 0
M  V30 30 C -0.693583 -0.55539 -0.49753 0
M  V30 31 C 7.61149 1.20604 1.41237 0
M  V30 32 O 8.27364 0.0772779 1.83459 0
M  V30 33 O 8.23152 2.29162 1.29392 0
M  V30 34 H 6.28127 2.66207 -0.168954 0
M  V30 35 H 5.93965 3.09747 1.43493 0
M  V30 36 H 5.60173 0.859108 2.02448 0
M  V30 37 H 6.28394 -0.8993 0.297522 0
M  V30 38 H 6.43073 0.49017 -0.916669 0
M  V30 39 H 4.59795 1.58765 -1.70002 0
M  V30 40 H 2.22477 1.66865 -2.18966 0
M  V30 41 H 1.5749 -1.37674 0.709304 0
M  V30 42 H 3.98117 -1.43122 1.17893 0
M  V30 43 H -1.98326 1.90633 -4.39748 0
M  V30 44 H -1.97664 3.15898 -3.13692 0
M  V30 45 H -4.48437 -0.259938 -1.13701 0
M  V30 46 H -5.74707 1.14638 3.28647 0
M  V30 47 H -7.65229 -2.53933 2.47787 0
M  V30 48 H -6.28861 -2.86668 0.480892 0
M  V30 49 H -0.383356 -1.26073 0.256996 0
M  V30 50 H 7.8062 -0.663634 2.35698 0
M  V30 END ATOM
M  V30 BEGIN BOND
M  V30 1 1 1 2
M  V30 2 1 2 3
M  V30 3 1 3 4
M  V30 4 2 4 5
M  V30 5 1 5 6
M  V30 6 2 6 7
M  V30 7 1 7 8
M  V30 8 2 8 9
M  V30 9 1 7 10
M  V30 10 2 10 11
M  V30 11 1 11 12
M  V30 12 1 12 13
M  V30 13 2 12 14
M  V30 14 1 14 15
M  V30 15 1 15 16
M  V30 16 1 16 17
M  V30 17 1 17 18
M  V30 18 2 18 19
M  V30 19 1 19 20
M  V30 20 1 19 21
M  V30 21 2 21 22
M  V30 22 1 22 23
M  V30 23 1 22 24
M  V30 24 2 24 25
M  V30 25 1 17 26
M  V30 26 1 26 27
M  V30 27 1 26 28
M  V30 28 1 26 29
M  V30 29 2 15 30
M  V30 30 1 2 31
M  V30 31 1 31 32
M  V30 32 2 31 33
M  V30 33 1 9 4
M  V30 34 1 30 10
M  V30 35 1 25 18
M  V30 36 1 1 34
M  V30 37 1 1 35
M  V30 38 1 2 36 CFG=1
M  V30 39 1 3 37
M  V30 40 1 3 38
M  V30 41 1 5 39
M  V30 42 1 6 40
M  V30 43 1 8 41
M  V30 44 1 9 42
M  V30 45 1 13 43
M  V30 46 1 13 44
M  V30 47 1 17 45
M  V30 48 1 21 46
M  V30 49 1 24 47
M  V30 50 1 25 48
M  V30 51 1 30 49
M  V30 52 1 32 50
M  V30 END BOND
M  V30 END CTAB
M  END
