
     RDKit          3D

  0  0  0  0  0  0  0  0  0  0999 V3000
M  V30 BEGIN CTAB
M  V30 COUNTS 37 39 0 0 0
M  V30 BEGIN ATOM
M  V30 1 N -2.89689 1.76986 1.34806 0
M  V30 2 C -3.21281 0.681307 0.487971 0
M  V30 3 C -4.51647 0.268999 0.279597 0
M  V30 4 C -4.80124 -0.720274 -0.644327 0
M  V30 5 C -3.72763 -1.26936 -1.33746 0
M  V30 6 C -2.42354 -0.861395 -1.13483 0
M  V30 7 C -2.12008 0.133276 -0.204265 0
M  V30 8 C -0.752171 0.454046 0.226706 0 CFG=1
M  V30 9 N -0.241158 -0.901144 0.730252 0
M  V30 10 C 1.06454 -1.3476 0.522566 0
M  V30 11 C 1.52105 -2.64165 0.769246 0
M  V30 12 C 2.86495 -2.98384 0.509579 0
M  V30 13 C 3.7623 -2.04736 0.00471166 0
M  V30 14 C 3.32067 -0.764325 -0.242278 0
M  V30 15 C 2.01943 -0.472808 0.0171573 0
M  V30 16 N 1.54631 0.848027 -0.255928 0
M  V30 17 C 0.202383 0.831344 -0.896987 0
M  V30 18 S 2.43166 2.22612 0.164374 0
M  V30 19 O 1.6102 3.47004 -0.162064 0
M  V30 20 O 2.61493 2.32776 1.68733 0
M  V30 21 N 3.96561 2.40105 -0.570444 0
M  V30 22 H -2.80185 1.6935 2.35556 0
M  V30 23 H -2.7513 2.70078 0.854072 0
M  V30 24 H -5.32515 0.728319 0.826955 0
M  V30 25 H -5.80942 -1.06374 -0.816 0
M  V30 26 H -3.9526 -2.06772 -2.07776 0
M  V30 27 H -1.59595 -1.29542 -1.67151 0
M  V30 28 H -0.616802 1.11635 1.05364 0
M  V30 29 H -0.920748 -1.47722 1.21281 0
M  V30 30 H 0.797015 -3.34484 1.14416 0
M  V30 31 H 3.19821 -3.9844 0.706109 0
M  V30 32 H 4.76825 -2.36082 -0.174129 0
M  V30 33 H 3.99954 -0.00749002 -0.607828 0
M  V30 34 H 0.0373806 1.91787 -1.13488 0
M  V30 35 H 0.131844 0.244908 -1.79065 0
M  V30 36 H 3.95414 3.12542 -1.34932 0
M  V30 37 H 4.65539 2.67242 0.169809 0
M  V30 END ATOM
M  V30 BEGIN BOND
M  V30 1 1 1 2
M  V30 2 2 2 3
M  V30 3 1 3 4
M  V30 4 2 4 5
M  V30 5 1 5 6
M  V30 6 2 6 7
M  V30 7 1 7 8
M  V30 8 1 8 9
M  V30 9 1 9 10
M  V30 10 2 10 11
M  V30 11 1 11 12
M  V30 12 2 12 13
M  V30 13 1 13 14
M  V30 14 2 14 15
M  V30 15 1 15 16
M  V30 16 1 16 17
M  V30 17 1 16 18
M  V30 18 2 18 19
M  V30 19 2 18 20
M  V30 20 1 18 21
M  V30 21 1 7 2
M  V30 22 1 17 8
M  V30 23 1 15 10
M  V30 24 1 1 22
M  V30 25 1 1 23
M  V30 26 1 3 24
M  V30 27 1 4 25
M  V30 28 1 5 26
M  V30 29 1 6 27
M  V30 30 1 8 28 CFG=1
M  V30 31 1 9 29
M  V30 32 1 11 30
M  V30 33 1 12 31
M  V30 34 1 13 32
M  V30 35 1 14 33
M  V30 36 1 17 34
M  V30 37 1 17 35
M  V30 38 1 21 36
M  V30 39 1 21 37
M  V30 END BOND
M  V30 END CTAB
M  END
