
     RDKit          3D

  0  0  0  0  0  0  0  0  0  0999 V3000
M  V30 BEGIN CTAB
M  V30 COUNTS 25 25 0 0 0
M  V30 BEGIN ATOM
M  V30 1 C 3.4525 0.538007 0.400118 0
M  V30 2 C 2.79335 0.150282 -0.900447 0
M  V30 3 C 1.29595 0.355266 -0.833219 0
M  V30 4 C 0.655187 -0.464869 0.250056 0
M  V30 5 N -0.76611 -0.19493 0.226324 0
M  V30 6 N -1.41648 0.742953 0.891534 0
M  V30 7 C -2.73343 0.671413 0.602486 0
M  V30 8 C -2.92655 -0.361997 -0.289115 0
M  V30 9 C -1.6713 -0.889347 -0.50802 0
M  V30 10 N -1.37562 -1.97897 -1.36106 0
M  V30 11 N -3.71169 1.53894 1.15211 0
M  V30 12 H 2.79442 1.13358 1.05993 0
M  V30 13 H 4.32118 1.19322 0.130467 0
M  V30 14 H 3.79263 -0.372389 0.946973 0
M  V30 15 H 3.16955 0.74417 -1.76077 0
M  V30 16 H 3.00603 -0.90766 -1.12916 0
M  V30 17 H 0.864822 0.0357017 -1.80634 0
M  V30 18 H 1.01839 1.40455 -0.685614 0
M  V30 19 H 0.8882 -1.53547 0.151496 0
M  V30 20 H 1.09041 -0.105481 1.22306 0
M  V30 21 H -3.85581 -0.692075 -0.725184 0
M  V30 22 H -1.76107 -2.93223 -1.14979 0
M  V30 23 H -0.765738 -1.82069 -2.20765 0
M  V30 24 H -3.61082 1.91556 2.13055 0
M  V30 25 H -4.54799 1.83247 0.626759 0
M  V30 END ATOM
M  V30 BEGIN BOND
M  V30 1 1 1 2
M  V30 2 1 2 3
M  V30 3 1 3 4
M  V30 4 1 4 5
M  V30 5 1 5 6
M  V30 6 2 6 7
M  V30 7 1 7 8
M  V30 8 2 8 9
M  V30 9 1 9 10
M  V30 10 1 7 11
M  V30 11 1 9 5
M  V30 12 1 1 12
M  V30 13 1 1 13
M  V30 14 1 1 14
M  V30 15 1 2 15
M  V30 16 1 2 16
M  V30 17 1 3 17
M  V30 18 1 3 18
M  V30 19 1 4 19
M  V30 20 1 4 20
M  V30 21 1 8 21
M  V30 22 1 10 22
M  V30 23 1 10 23
M  V30 24 1 11 24
M  V30 25 1 11 25
M  V30 END BOND
M  V30 END CTAB
M  END
