
     RDKit          3D

  0  0  0  0  0  0  0  0  0  0999 V3000
M  V30 BEGIN CTAB
M  V30 COUNTS 35 36 0 0 0
M  V30 BEGIN ATOM
M  V30 1 O 0.604046 -0.0503021 -0.784605 0
M  V30 2 C 0.605443 -0.00192014 0.465726 0
M  V30 3 N 1.86592 0.0998 1.10078 0
M  V30 4 C 3.12413 0.162193 0.486357 0
M  V30 5 C 3.39713 0.522568 -0.808788 0
M  V30 6 C 4.68622 0.532177 -1.35681 0
M  V30 7 C 5.7706 0.170758 -0.599117 0
M  V30 8 C 5.51659 -0.193465 0.704185 0
M  V30 9 C 4.26142 -0.204595 1.24234 0
M  V30 10 N 7.09974 0.165143 -1.11455 0
M  V30 11 N -0.591692 -0.0465475 1.20924 0
M  V30 12 C -1.89861 -0.154935 0.698114 0
M  V30 13 C -2.9822 0.203879 1.52098 0
M  V30 14 C -4.24361 0.0727751 1.02282 0
M  V30 15 C -4.52196 -0.392316 -0.244272 0
M  V30 16 C -3.47186 -0.746144 -1.05689 0
M  V30 17 C -2.18207 -0.617456 -0.560869 0
M  V30 18 S -6.14191 -0.558739 -0.880117 0
M  V30 19 O -6.1592 -1.65953 -1.89276 0
M  V30 20 O -7.05883 -0.824312 0.275488 0
M  V30 21 N -6.63485 0.895326 -1.67042 0
M  V30 22 H 1.84134 0.135318 2.16583 0
M  V30 23 H 2.56655 0.837876 -1.45218 0
M  V30 24 H 4.81187 0.830044 -2.38955 0
M  V30 25 H 6.38201 -0.480325 1.30501 0
M  V30 26 H 4.07044 -0.495334 2.27557 0
M  V30 27 H 7.94835 0.412333 -0.566141 0
M  V30 28 H 7.23646 -0.104793 -2.11009 0
M  V30 29 H -0.474982 0.0082445 2.28464 0
M  V30 30 H -2.74088 0.56413 2.5053 0
M  V30 31 H -5.09704 0.351166 1.65971 0
M  V30 32 H -3.62672 -1.11172 -2.0453 0
M  V30 33 H -1.41459 -0.925445 -1.24158 0
M  V30 34 H -6.33292 1.71031 -1.0946 0
M  V30 35 H -6.21433 0.893837 -2.62618 0
M  V30 END ATOM
M  V30 BEGIN BOND
M  V30 1 2 1 2
M  V30 2 1 2 3
M  V30 3 1 3 4
M  V30 4 2 4 5
M  V30 5 1 5 6
M  V30 6 2 6 7
M  V30 7 1 7 8
M  V30 8 2 8 9
M  V30 9 1 7 10
M  V30 10 1 2 11
M  V30 11 1 11 12
M  V30 12 2 12 13
M  V30 13 1 13 14
M  V30 14 2 14 15
M  V30 15 1 15 16
M  V30 16 2 16 17
M  V30 17 1 15 18
M  V30 18 2 18 19
M  V30 19 2 18 20
M  V30 20 1 18 21
M  V30 21 1 9 4
M  V30 22 1 17 12
M  V30 23 1 3 22
M  V30 24 1 5 23
M  V30 25 1 6 24
M  V30 26 1 8 25
M  V30 27 1 9 26
M  V30 28 1 10 27
M  V30 29 1 10 28
M  V30 30 1 11 29
M  V30 31 1 13 30
M  V30 32 1 14 31
M  V30 33 1 16 32
M  V30 34 1 17 33
M  V30 35 1 21 34
M  V30 36 1 21 35
M  V30 END BOND
M  V30 END CTAB
M  END
