
     RDKit          3D

  0  0  0  0  0  0  0  0  0  0999 V3000
M  V30 BEGIN CTAB
M  V30 COUNTS 40 44 0 0 0
M  V30 BEGIN ATOM
M  V30 1 N -8.90946 -0.735262 -0.014115 0
M  V30 2 C -7.48636 -0.626111 -0.0458506 0
M  V30 3 C -6.81026 -0.229251 1.08675 0
M  V30 4 C -5.45143 -0.132903 1.03026 0
M  V30 5 C -4.70219 -0.408007 -0.0927727 0
M  V30 6 C -5.40729 -0.806506 -1.22278 0
M  V30 7 C -6.79356 -0.916952 -1.20557 0
M  V30 8 C -3.25056 -0.291886 -0.109232 0
M  V30 9 N -2.53194 0.0896541 0.960662 0
M  V30 10 C -1.2115 0.0950935 0.612397 0
M  V30 11 C -0.0558223 0.387628 1.26494 0
M  V30 12 C 1.18071 0.312036 0.670387 0
M  V30 13 C 1.22696 -0.0835214 -0.658354 0
M  V30 14 O 2.48116 -0.0791756 -0.991869 0
M  V30 15 C 3.25796 0.283708 -0.000175319 0
M  V30 16 N 2.45733 0.528593 1.03662 0
M  V30 17 C 4.71956 0.399828 -0.0193843 0
M  V30 18 C 5.45424 0.122415 -1.14602 0
M  V30 19 C 6.8365 0.234948 -1.15511 0
M  V30 20 C 7.5328 0.632211 -0.0267326 0
M  V30 21 N 8.93978 0.744372 -0.0439059 0
M  V30 22 C 6.77584 0.90898 1.10395 0
M  V30 23 C 5.39453 0.795612 1.10999 0
M  V30 24 C 0.0479224 -0.382469 -1.32575 0
M  V30 25 C -1.18414 -0.300227 -0.710312 0
M  V30 26 O -2.43574 -0.522984 -1.10411 0
M  V30 27 H -9.40987 -0.706498 0.901335 0
M  V30 28 H -9.4634 -0.843969 -0.893674 0
M  V30 29 H -7.40449 -0.0148195 1.96494 0
M  V30 30 H -4.91645 0.178354 1.91723 0
M  V30 31 H -4.88955 -1.04253 -2.15159 0
M  V30 32 H -7.32302 -1.23054 -2.10187 0
M  V30 33 H -0.0901437 0.695098 2.29732 0
M  V30 34 H 4.89918 -0.1903 -2.03231 0
M  V30 35 H 7.38616 0.00942198 -2.05781 0
M  V30 36 H 9.40211 1.14382 -0.878717 0
M  V30 37 H 9.51986 0.438162 0.755013 0
M  V30 38 H 7.29968 1.2199 1.99295 0
M  V30 39 H 4.80032 1.01391 2.00098 0
M  V30 40 H 0.114571 -0.689817 -2.36669 0
M  V30 END ATOM
M  V30 BEGIN BOND
M  V30 1 1 1 2
M  V30 2 2 2 3
M  V30 3 1 3 4
M  V30 4 2 4 5
M  V30 5 1 5 6
M  V30 6 2 6 7
M  V30 7 1 5 8
M  V30 8 2 8 9
M  V30 9 1 9 10
M  V30 10 2 10 11
M  V30 11 1 11 12
M  V30 12 2 12 13
M  V30 13 1 13 14
M  V30 14 1 14 15
M  V30 15 2 15 16
M  V30 16 1 15 17
M  V30 17 2 17 18
M  V30 18 1 18 19
M  V30 19 2 19 20
M  V30 20 1 20 21
M  V30 21 1 20 22
M  V30 22 2 22 23
M  V30 23 1 13 24
M  V30 24 2 24 25
M  V30 25 1 25 26
M  V30 26 1 7 2
M  V30 27 1 26 8
M  V30 28 1 25 10
M  V30 29 1 16 12
M  V30 30 1 23 17
M  V30 31 1 1 27
M  V30 32 1 1 28
M  V30 33 1 3 29
M  V30 34 1 4 30
M  V30 35 1 6 31
M  V30 36 1 7 32
M  V30 37 1 11 33
M  V30 38 1 18 34
M  V30 39 1 19 35
M  V30 40 1 21 36
M  V30 41 1 21 37
M  V30 42 1 22 38
M  V30 43 1 23 39
M  V30 44 1 24 40
M  V30 END BOND
M  V30 END CTAB
M  END
