
     RDKit          3D

  0  0  0  0  0  0  0  0  0  0999 V3000
M  V30 BEGIN CTAB
M  V30 COUNTS 132 133 0 0 0
M  V30 BEGIN ATOM
M  V30 1 C -0.91167 -0.914225 -1.67035 0 CFG=1
M  V30 2 N -0.0332577 0.265881 -1.55269 0
M  V30 3 C 1.31629 0.271422 -1.26563 0
M  V30 4 O 2.01336 -0.724425 -1.02022 0
M  V30 5 C 2.05557 1.59113 -1.24424 0 CFG=2
M  V30 6 C 1.91069 2.27301 -2.59777 0
M  V30 7 C 3.09344 1.63296 -3.32231 0
M  V30 8 C 4.06756 1.4855 -2.19031 0 CFG=2
M  V30 9 C 4.90416 0.225346 -2.37566 0
M  V30 10 N 5.88823 0.0674682 -1.32814 0
M  V30 11 C 6.96807 0.945324 -1.16987 0
M  V30 12 O 7.16059 1.89852 -1.93173 0
M  V30 13 C 7.99438 0.777152 -0.0334686 0 CFG=2
M  V30 14 C 7.81065 1.91861 0.901611 0
M  V30 15 C 8.62742 1.95445 2.14308 0
M  V30 16 S 8.2685 0.689626 3.33894 0
M  V30 17 C 8.5978 -0.981732 2.819 0
M  V30 18 N 9.259 0.920823 -0.777644 0
M  V30 19 C 10.0526 -0.203028 -1.09145 0
M  V30 20 O 9.62752 -1.34364 -0.677874 0
M  V30 21 C 11.2999 -0.185921 -1.8489 0 CFG=1
M  V30 22 N 11.5698 1.17625 -2.34935 0
M  V30 23 C 12.4998 -0.803264 -1.26903 0
M  V30 24 C 13.0847 -0.279895 -0.0229336 0
M  V30 25 C 14.3441 -1.09181 0.344408 0
M  V30 26 C 12.2134 -0.310775 1.19512 0
M  V30 27 O 3.38155 1.47469 -1.01859 0
M  V30 28 C -0.160662 -2.1963 -1.78636 0 CFG=1
M  V30 29 C -1.14155 -3.28585 -2.2431 0
M  V30 30 O 0.694778 -2.06382 -2.93197 0
M  V30 31 C -1.96696 -0.817535 -0.681066 0
M  V30 32 O -2.53108 0.324982 -0.507714 0
M  V30 33 N -2.43666 -1.88207 0.129642 0
M  V30 34 C -3.50287 -1.6913 1.09309 0 CFG=1
M  V30 35 C -3.17312 -0.741066 2.17981 0
M  V30 36 C -2.02632 -1.11794 3.015 0
M  V30 37 C -0.767348 -0.688544 2.72487 0
M  V30 38 C 0.295751 -1.0547 3.54414 0
M  V30 39 C 0.12268 -1.84212 4.64706 0
M  V30 40 O 1.17911 -2.22082 5.48303 0
M  V30 41 C -1.15466 -2.27898 4.94298 0
M  V30 42 C -2.24309 -1.92639 4.13717 0
M  V30 43 C -4.78081 -1.39429 0.400537 0
M  V30 44 O -4.80628 -1.3583 -0.869009 0
M  V30 45 N -5.97027 -1.1543 1.12822 0
M  V30 46 C -7.23485 -0.876129 0.488221 0 CFG=1
M  V30 47 C -8.40389 -1.58603 1.08543 0
M  V30 48 C -8.31092 -3.07475 1.04897 0
M  V30 49 C -9.58494 -3.6232 1.69988 0
M  V30 50 C -8.30195 -3.62215 -0.363602 0
M  V30 51 C -7.46079 0.592741 0.543227 0
M  V30 52 O -6.56097 1.32309 1.01157 0
M  V30 53 N -8.65379 1.17198 0.0812907 0
M  V30 54 C -8.91267 2.60801 0.0977824 0 CFG=1
M  V30 55 C -9.16491 3.07006 -1.30915 0
M  V30 56 C -10.2868 2.43202 -2.01695 0
M  V30 57 C -11.6674 2.61946 -1.52179 0
M  V30 58 C -12.1794 4.03739 -1.56909 0
M  V30 59 N -13.5428 4.01601 -1.01591 0
M  V30 60 C -9.85268 2.99792 1.13055 0
M  V30 61 O -10.1403 4.32752 1.36349 0
M  V30 62 O -10.458 2.17011 1.87857 0
M  V30 63 H -1.30831 -0.776452 -2.75103 0
M  V30 64 H -0.551072 1.18196 -1.716 0
M  V30 65 H 1.54567 2.21 -0.461907 0
M  V30 66 H 1.99165 3.36696 -2.53129 0
M  V30 67 H 0.949963 1.99082 -3.02181 0
M  V30 68 H 2.77518 0.637037 -3.72631 0
M  V30 69 H 3.497 2.29646 -4.11481 0
M  V30 70 H 4.73322 2.38442 -2.21349 0
M  V30 71 H 4.26833 -0.615168 -2.56435 0
M  V30 72 H 5.48486 0.411572 -3.33455 0
M  V30 73 H 5.79542 -0.732093 -0.660178 0
M  V30 74 H 7.88788 -0.186538 0.386106 0
M  V30 75 H 6.72471 1.97645 1.23293 0
M  V30 76 H 7.92606 2.91469 0.358317 0
M  V30 77 H 9.72898 1.98832 1.92938 0
M  V30 78 H 8.44526 2.95629 2.65493 0
M  V30 79 H 7.64132 -1.41588 2.41796 0
M  V30 80 H 8.82926 -1.57857 3.75332 0
M  V30 81 H 9.40317 -1.04477 2.09809 0
M  V30 82 H 9.55708 1.85626 -1.06588 0
M  V30 83 H 11.0859 -0.751563 -2.82124 0
M  V30 84 H 12.2049 1.66073 -1.66977 0
M  V30 85 H 12.0956 1.12531 -3.25207 0
M  V30 86 H 13.3431 -0.87868 -2.03183 0
M  V30 87 H 12.2567 -1.89662 -1.09078 0
M  V30 88 H 13.459 0.774313 -0.123832 0
M  V30 89 H 14.5889 -1.74479 -0.524049 0
M  V30 90 H 15.1772 -0.422399 0.585282 0
M  V30 91 H 14.0711 -1.75543 1.17398 0
M  V30 92 H 11.6564 -1.26405 1.33178 0
M  V30 93 H 12.8388 -0.194717 2.13319 0
M  V30 94 H 11.4625 0.511295 1.19844 0
M  V30 95 H 0.369284 -2.55466 -0.928158 0
M  V30 96 H -0.882713 -3.5566 -3.28304 0
M  V30 97 H -1.0399 -4.18838 -1.62343 0
M  V30 98 H -2.19067 -2.90671 -2.26657 0
M  V30 99 H 1.09412 -2.96748 -3.09989 0
M  V30 100 H -1.99324 -2.81139 0.0529648 0
M  V30 101 H -3.65927 -2.72181 1.5574 0
M  V30 102 H -4.11019 -0.622605 2.83324 0
M  V30 103 H -2.99366 0.301161 1.82687 0
M  V30 104 H -0.534382 -0.0661333 1.89723 0
M  V30 105 H 1.30122 -0.721817 3.32324 0
M  V30 106 H 1.35831 -1.56662 6.25979 0
M  V30 107 H -1.37601 -2.89767 5.79243 0
M  V30 108 H -3.24492 -2.24188 4.32815 0
M  V30 109 H -5.93967 -1.18039 2.16674 0
M  V30 110 H -7.08215 -1.13867 -0.596379 0
M  V30 111 H -9.36191 -1.28055 0.651304 0
M  V30 112 H -8.46112 -1.30714 2.17481 0
M  V30 113 H -7.45524 -3.47639 1.62291 0
M  V30 114 H -10.4138 -2.89325 1.65059 0
M  V30 115 H -9.91422 -4.54544 1.17615 0
M  V30 116 H -9.41019 -3.83655 2.77655 0
M  V30 117 H -7.35436 -3.49653 -0.880582 0
M  V30 118 H -8.55029 -4.69503 -0.304777 0
M  V30 119 H -9.14332 -3.11775 -0.914112 0
M  V30 120 H -9.4011 0.557723 -0.294039 0
M  V30 121 H -7.8684 3.04015 0.34817 0
M  V30 122 H -9.16405 4.18837 -1.37716 0
M  V30 123 H -8.22481 2.79253 -1.87846 0
M  V30 124 H -10.0857 1.31538 -2.02317 0
M  V30 125 H -10.2383 2.68341 -3.12509 0
M  V30 126 H -12.3406 2.05601 -2.24768 0
M  V30 127 H -11.9202 2.19992 -0.54931 0
M  V30 128 H -12.3441 4.3219 -2.65333 0
M  V30 129 H -11.6136 4.77667 -1.0252 0
M  V30 130 H -13.9433 4.97751 -0.960156 0
M  V30 131 H -13.5484 3.64726 -0.0399348 0
M  V30 132 H -9.86264 5.02413 0.68692 0
M  V30 END ATOM
M  V30 BEGIN BOND
M  V30 1 1 1 2
M  V30 2 1 2 3
M  V30 3 2 3 4
M  V30 4 1 3 5
M  V30 5 1 5 6
M  V30 6 1 6 7
M  V30 7 1 7 8
M  V30 8 1 8 9
M  V30 9 1 9 10
M  V30 10 1 10 11
M  V30 11 2 11 12
M  V30 12 1 11 13
M  V30 13 1 13 14
M  V30 14 1 14 15
M  V30 15 1 15 16
M  V30 16 1 16 17
M  V30 17 1 13 18
M  V30 18 1 18 19
M  V30 19 2 19 20
M  V30 20 1 19 21
M  V30 21 1 21 22
M  V30 22 1 21 23
M  V30 23 1 23 24
M  V30 24 1 24 25
M  V30 25 1 24 26
M  V30 26 1 8 27
M  V30 27 1 1 28
M  V30 28 1 28 29
M  V30 29 1 28 30
M  V30 30 1 1 31
M  V30 31 2 31 32
M  V30 32 1 31 33
M  V30 33 1 33 34
M  V30 34 1 34 35
M  V30 35 1 35 36
M  V30 36 2 36 37
M  V30 37 1 37 38
M  V30 38 2 38 39
M  V30 39 1 39 40
M  V30 40 1 39 41
M  V30 41 2 41 42
M  V30 42 1 34 43
M  V30 43 2 43 44
M  V30 44 1 43 45
M  V30 45 1 45 46
M  V30 46 1 46 47
M  V30 47 1 47 48
M  V30 48 1 48 49
M  V30 49 1 48 50
M  V30 50 1 46 51
M  V30 51 2 51 52
M  V30 52 1 51 53
M  V30 53 1 53 54
M  V30 54 1 54 55
M  V30 55 1 55 56
M  V30 56 1 56 57
M  V30 57 1 57 58
M  V30 58 1 58 59
M  V30 59 1 54 60
M  V30 60 1 60 61
M  V30 61 2 60 62
M  V30 62 1 27 5
M  V30 63 1 42 36
M  V30 64 1 1 63 CFG=3
M  V30 65 1 2 64
M  V30 66 1 5 65 CFG=1
M  V30 67 1 6 66
M  V30 68 1 6 67
M  V30 69 1 7 68
M  V30 70 1 7 69
M  V30 71 1 8 70 CFG=1
M  V30 72 1 9 71
M  V30 73 1 9 72
M  V30 74 1 10 73
M  V30 75 1 13 74 CFG=1
M  V30 76 1 14 75
M  V30 77 1 14 76
M  V30 78 1 15 77
M  V30 79 1 15 78
M  V30 80 1 17 79
M  V30 81 1 17 80
M  V30 82 1 17 81
M  V30 83 1 18 82
M  V30 84 1 21 83 CFG=3
M  V30 85 1 22 84
M  V30 86 1 22 85
M  V30 87 1 23 86
M  V30 88 1 23 87
M  V30 89 1 24 88
M  V30 90 1 25 89
M  V30 91 1 25 90
M  V30 92 1 25 91
M  V30 93 1 26 92
M  V30 94 1 26 93
M  V30 95 1 26 94
M  V30 96 1 28 95 CFG=1
M  V30 97 1 29 96
M  V30 98 1 29 97
M  V30 99 1 29 98
M  V30 100 1 30 99
M  V30 101 1 33 100
M  V30 102 1 34 101 CFG=1
M  V30 103 1 35 102
M  V30 104 1 35 103
M  V30 105 1 37 104
M  V30 106 1 38 105
M  V30 107 1 40 106
M  V30 108 1 41 107
M  V30 109 1 42 108
M  V30 110 1 45 109
M  V30 111 1 46 110 CFG=3
M  V30 112 1 47 111
M  V30 113 1 47 112
M  V30 114 1 48 113
M  V30 115 1 49 114
M  V30 116 1 49 115
M  V30 117 1 49 116
M  V30 118 1 50 117
M  V30 119 1 50 118
M  V30 120 1 50 119
M  V30 121 1 53 120
M  V30 122 1 54 121 CFG=1
M  V30 123 1 55 122
M  V30 124 1 55 123
M  V30 125 1 56 124
M  V30 126 1 56 125
M  V30 127 1 57 126
M  V30 128 1 57 127
M  V30 129 1 58 128
M  V30 130 1 58 129
M  V30 131 1 59 130
M  V30 132 1 59 131
M  V30 133 1 61 132
M  V30 END BOND
M  V30 END CTAB
M  END
