
     RDKit          3D

  0  0  0  0  0  0  0  0  0  0999 V3000
M  V30 BEGIN CTAB
M  V30 COUNTS 39 41 0 0 0
M  V30 BEGIN ATOM
M  V30 1 N -6.39576 2.39312 -1.36625 0
M  V30 2 C -5.38482 1.51564 -0.875109 0
M  V30 3 N -5.71538 0.219042 -0.753552 0
M  V30 4 C -4.83169 -0.699878 -0.297167 0
M  V30 5 N -5.18358 -2.0762 -0.168454 0
M  V30 6 C -3.57461 -0.235278 0.0363582 0
M  V30 7 C -2.61188 -1.10163 0.509572 0
M  V30 8 C -1.33128 -0.652889 0.853737 0
M  V30 9 C -0.346213 -1.6313 1.36552 0
M  V30 10 O 0.984436 -1.23334 1.27446 0
M  V30 11 C 1.55067 -0.966316 0.045659 0
M  V30 12 O 0.835055 -1.0959 -0.97976 0
M  V30 13 C 2.92882 -0.543796 -0.124819 0
M  V30 14 C 3.44467 -0.290155 -1.37327 0
M  V30 15 C 4.77353 0.11707 -1.53532 0
M  V30 16 C 5.58889 0.268684 -0.415749 0
M  V30 17 C 5.03609 0.00601897 0.8087 0
M  V30 18 C 3.71878 -0.398765 0.982944 0
M  V30 19 C 6.96791 0.690117 -0.569287 0
M  V30 20 O 7.4681 0.939998 -1.82804 0
M  V30 21 O 7.70412 0.828474 0.422924 0
M  V30 22 C -0.987431 0.676627 0.73072 0
M  V30 23 C -1.94979 1.5419 0.257815 0
M  V30 24 C -3.21927 1.09263 -0.0825705 0
M  V30 25 N -4.15127 1.94524 -0.543139 0
M  V30 26 H -7.37416 2.34256 -1.00487 0
M  V30 27 H -6.21115 3.11899 -2.10056 0
M  V30 28 H -5.78405 -2.40531 0.590583 0
M  V30 29 H -4.82155 -2.76162 -0.862167 0
M  V30 30 H -2.89747 -2.14169 0.600303 0
M  V30 31 H -0.546383 -2.58934 0.820655 0
M  V30 32 H -0.588792 -1.83652 2.44025 0
M  V30 33 H 2.84972 -0.393789 -2.27697 0
M  V30 34 H 5.19689 0.321059 -2.50815 0
M  V30 35 H 5.68278 0.128077 1.67426 0
M  V30 36 H 3.30584 -0.601424 1.97761 0
M  V30 37 H 7.55611 1.88019 -2.21842 0
M  V30 38 H 0.00832308 1.03639 0.996412 0
M  V30 39 H -1.69421 2.59331 0.155113 0
M  V30 END ATOM
M  V30 BEGIN BOND
M  V30 1 1 1 2
M  V30 2 2 2 3
M  V30 3 1 3 4
M  V30 4 1 4 5
M  V30 5 2 4 6
M  V30 6 1 6 7
M  V30 7 2 7 8
M  V30 8 1 8 9
M  V30 9 1 9 10
M  V30 10 1 10 11
M  V30 11 2 11 12
M  V30 12 1 11 13
M  V30 13 2 13 14
M  V30 14 1 14 15
M  V30 15 2 15 16
M  V30 16 1 16 17
M  V30 17 2 17 18
M  V30 18 1 16 19
M  V30 19 1 19 20
M  V30 20 2 19 21
M  V30 21 1 8 22
M  V30 22 2 22 23
M  V30 23 1 23 24
M  V30 24 2 24 25
M  V30 25 1 25 2
M  V30 26 1 24 6
M  V30 27 1 18 13
M  V30 28 1 1 26
M  V30 29 1 1 27
M  V30 30 1 5 28
M  V30 31 1 5 29
M  V30 32 1 7 30
M  V30 33 1 9 31
M  V30 34 1 9 32
M  V30 35 1 14 33
M  V30 36 1 15 34
M  V30 37 1 17 35
M  V30 38 1 18 36
M  V30 39 1 20 37
M  V30 40 1 22 38
M  V30 41 1 23 39
M  V30 END BOND
M  V30 END CTAB
M  END
