
     RDKit          3D

  0  0  0  0  0  0  0  0  0  0999 V3000
M  V30 BEGIN CTAB
M  V30 COUNTS 36 35 0 0 0
M  V30 BEGIN ATOM
M  V30 1 C 3.28757 -2.18547 0.395415 0
M  V30 2 C 2.44964 -1.08993 -0.265402 0 CFG=2
M  V30 3 O 3.21524 0.0373128 -0.225299 0
M  V30 4 C 1.18364 -0.962151 0.495452 0
M  V30 5 N 0.253406 0.0695388 0.0707257 0
M  V30 6 C 0.673397 1.37162 0.379073 0
M  V30 7 C 0.192933 2.57282 -0.320806 0
M  V30 8 C -1.19304 3.04601 -0.282943 0
M  V30 9 N -1.71234 3.40947 1.02543 0
M  V30 10 C -1.05006 -0.202138 0.601071 0
M  V30 11 C -1.72538 -1.43347 0.0914631 0
M  V30 12 C -1.93715 -1.43104 -1.40529 0
M  V30 13 N -2.59614 -2.66017 -1.84802 0
M  V30 14 H 4.36301 -1.95041 0.265773 0
M  V30 15 H 3.07582 -2.20603 1.47737 0
M  V30 16 H 3.07915 -3.14985 -0.0336145 0
M  V30 17 H 2.3015 -1.49063 -1.30281 0
M  V30 18 H 3.69276 0.0658426 0.657278 0
M  V30 19 H 0.629449 -1.93696 0.348924 0
M  V30 20 H 1.44535 -0.926009 1.56622 0
M  V30 21 H 0.250872 1.52457 1.47688 0
M  V30 22 H 1.75295 1.53221 0.602549 0
M  V30 23 H 0.822419 3.49195 0.0140749 0
M  V30 24 H 0.501999 2.53572 -1.42458 0
M  V30 25 H -1.18557 4.07023 -0.833702 0
M  V30 26 H -1.95923 2.50117 -0.834711 0
M  V30 27 H -2.25759 2.67409 1.49011 0
M  V30 28 H -1.08217 3.96655 1.60374 0
M  V30 29 H -0.959404 -0.247797 1.69981 0
M  V30 30 H -1.7195 0.611501 0.349393 0
M  V30 31 H -1.3345 -2.39406 0.397069 0
M  V30 32 H -2.77061 -1.40165 0.52313 0
M  V30 33 H -0.985316 -1.36811 -1.98361 0
M  V30 34 H -2.58157 -0.596717 -1.75903 0
M  V30 35 H -3.62033 -2.49298 -1.95467 0
M  V30 36 H -2.50119 -3.35501 -1.05644 0
M  V30 END ATOM
M  V30 BEGIN BOND
M  V30 1 1 1 2
M  V30 2 1 2 3
M  V30 3 1 2 4
M  V30 4 1 4 5
M  V30 5 1 5 6
M  V30 6 1 6 7
M  V30 7 1 7 8
M  V30 8 1 8 9
M  V30 9 1 5 10
M  V30 10 1 10 11
M  V30 11 1 11 12
M  V30 12 1 12 13
M  V30 13 1 1 14
M  V30 14 1 1 15
M  V30 15 1 1 16
M  V30 16 1 2 17 CFG=3
M  V30 17 1 3 18
M  V30 18 1 4 19
M  V30 19 1 4 20
M  V30 20 1 6 21
M  V30 21 1 6 22
M  V30 22 1 7 23
M  V30 23 1 7 24
M  V30 24 1 8 25
M  V30 25 1 8 26
M  V30 26 1 9 27
M  V30 27 1 9 28
M  V30 28 1 10 29
M  V30 29 1 10 30
M  V30 30 1 11 31
M  V30 31 1 11 32
M  V30 32 1 12 33
M  V30 33 1 12 34
M  V30 34 1 13 35
M  V30 35 1 13 36
M  V30 END BOND
M  V30 END CTAB
M  END
