
     RDKit          3D

  0  0  0  0  0  0  0  0  0  0999 V3000
M  V30 BEGIN CTAB
M  V30 COUNTS 32 33 0 0 0
M  V30 BEGIN ATOM
M  V30 1 C -0.322997 -1.01473 -1.6918 0
M  V30 2 C -0.445697 -0.324623 -0.335224 0
M  V30 3 C -0.822716 1.10566 -0.526136 0
M  V30 4 C -1.94014 1.62163 0.296109 0
M  V30 5 C -3.04104 0.685597 0.617831 0
M  V30 6 C -2.84389 -0.715218 0.102032 0
M  V30 7 C -1.43709 -1.1233 0.451268 0
M  V30 8 C 0.852796 -0.430118 0.378527 0
M  V30 9 N 1.08597 -1.01493 1.56585 0
M  V30 10 C 2.38773 -0.906225 1.88282 0
M  V30 11 N 3.02528 -0.240884 0.892867 0
M  V30 12 C 2.0715 0.0503742 -0.0333183 0
M  V30 13 N 2.28465 0.738818 -1.23731 0
M  V30 14 N 4.3629 0.103121 0.783994 0
M  V30 15 H 0.200568 -1.96737 -1.63012 0
M  V30 16 H -1.3592 -1.20461 -2.04245 0
M  V30 17 H 0.111978 -0.314934 -2.457 0
M  V30 18 H -1.05561 1.2724 -1.59927 0
M  V30 19 H 0.0744266 1.7336 -0.325776 0
M  V30 20 H -1.56357 2.05179 1.25035 0
M  V30 21 H -2.39749 2.50501 -0.236287 0
M  V30 22 H -4.03823 1.02418 0.217715 0
M  V30 23 H -3.21325 0.590977 1.72367 0
M  V30 24 H -3.0923 -0.832769 -0.959631 0
M  V30 25 H -3.53233 -1.37526 0.669791 0
M  V30 26 H -1.30844 -1.0316 1.52869 0
M  V30 27 H -1.32216 -2.19792 0.18763 0
M  V30 28 H 2.8209 -1.29515 2.78363 0
M  V30 29 H 2.42874 0.260598 -2.1734 0
M  V30 30 H 2.30433 1.77447 -1.22255 0
M  V30 31 H 5.00884 -0.467743 0.218161 0
M  V30 32 H 4.71554 0.939149 1.27438 0
M  V30 END ATOM
M  V30 BEGIN BOND
M  V30 1 1 1 2
M  V30 2 1 2 3
M  V30 3 1 3 4
M  V30 4 1 4 5
M  V30 5 1 5 6
M  V30 6 1 6 7
M  V30 7 1 2 8
M  V30 8 1 8 9
M  V30 9 2 9 10
M  V30 10 1 10 11
M  V30 11 1 11 12
M  V30 12 1 12 13
M  V30 13 1 11 14
M  V30 14 1 7 2
M  V30 15 2 12 8
M  V30 16 1 1 15
M  V30 17 1 1 16
M  V30 18 1 1 17
M  V30 19 1 3 18
M  V30 20 1 3 19
M  V30 21 1 4 20
M  V30 22 1 4 21
M  V30 23 1 5 22
M  V30 24 1 5 23
M  V30 25 1 6 24
M  V30 26 1 6 25
M  V30 27 1 7 26
M  V30 28 1 7 27
M  V30 29 1 10 28
M  V30 30 1 13 29
M  V30 31 1 13 30
M  V30 32 1 14 31
M  V30 33 1 14 32
M  V30 END BOND
M  V30 END CTAB
M  END
