
     RDKit          3D

  0  0  0  0  0  0  0  0  0  0999 V3000
M  V30 BEGIN CTAB
M  V30 COUNTS 27 28 0 0 0
M  V30 BEGIN ATOM
M  V30 1 N -4.9041 0.428895 -0.617501 0
M  V30 2 C -3.63232 1.10646 -0.873227 0
M  V30 3 C -2.633 0.519381 0.070194 0
M  V30 4 N -2.84704 0.604742 1.39386 0
M  V30 5 C -1.96041 0.0998217 2.26281 0
M  V30 6 C -0.817278 -0.512364 1.7954 0
M  V30 7 C -0.582496 -0.608597 0.436652 0
M  V30 8 C -1.50691 -0.0833382 -0.438875 0
M  V30 9 C 0.636296 -1.23116 -0.0953097 0
M  V30 10 O 0.6031 -2.41291 -0.515588 0
M  V30 11 N 1.84495 -0.497542 -0.137474 0
M  V30 12 N 2.06557 0.760026 0.235367 0
M  V30 13 C 3.35166 1.09799 0.014764 0
M  V30 14 C 3.9855 -0.0091688 -0.529345 0
M  V30 15 C 3.01327 -0.982779 -0.608239 0
M  V30 16 N 5.33743 -0.144329 -0.937247 0
M  V30 17 H -4.75623 -0.548276 -0.285131 0
M  V30 18 H -5.40073 0.914755 0.188735 0
M  V30 19 H -3.32291 0.892072 -1.92326 0
M  V30 20 H -3.71994 2.19633 -0.695327 0
M  V30 21 H -2.08898 0.142801 3.33735 0
M  V30 22 H -0.0812642 -0.931718 2.50039 0
M  V30 23 H -1.31546 -0.160217 -1.51685 0
M  V30 24 H 3.87798 2.02902 0.192629 0
M  V30 25 H 3.19541 -1.989 -0.995123 0
M  V30 26 H 5.51497 -0.183574 -1.98402 0
M  V30 27 H 6.14296 -0.203022 -0.27564 0
M  V30 END ATOM
M  V30 BEGIN BOND
M  V30 1 1 1 2
M  V30 2 1 2 3
M  V30 3 2 3 4
M  V30 4 1 4 5
M  V30 5 2 5 6
M  V30 6 1 6 7
M  V30 7 2 7 8
M  V30 8 1 7 9
M  V30 9 2 9 10
M  V30 10 1 9 11
M  V30 11 1 11 12
M  V30 12 2 12 13
M  V30 13 1 13 14
M  V30 14 2 14 15
M  V30 15 1 14 16
M  V30 16 1 8 3
M  V30 17 1 15 11
M  V30 18 1 1 17
M  V30 19 1 1 18
M  V30 20 1 2 19
M  V30 21 1 2 20
M  V30 22 1 5 21
M  V30 23 1 6 22
M  V30 24 1 8 23
M  V30 25 1 13 24
M  V30 26 1 15 25
M  V30 27 1 16 26
M  V30 28 1 16 27
M  V30 END BOND
M  V30 END CTAB
M  END
