
     RDKit          3D

  0  0  0  0  0  0  0  0  0  0999 V3000
M  V30 BEGIN CTAB
M  V30 COUNTS 47 50 0 0 0
M  V30 BEGIN ATOM
M  V30 1 C 6.47607 -0.115653 -0.123176 0
M  V30 2 S 5.78149 -0.256022 1.49847 0
M  V30 3 O 6.80847 0.190873 2.51742 0
M  V30 4 O 5.48342 -1.73684 1.70162 0
M  V30 5 N 4.34084 0.66916 1.64225 0
M  V30 6 C 3.15715 0.478985 0.897674 0
M  V30 7 C 3.14455 0.315771 -0.445402 0
M  V30 8 C 1.94529 0.138912 -1.11769 0
M  V30 9 C 0.730588 0.117432 -0.494864 0
M  V30 10 N -0.43762 -0.0688836 -1.26606 0
M  V30 11 C -1.74679 -0.103799 -0.691179 0
M  V30 12 C -2.30742 -1.2895 -0.263113 0
M  V30 13 C -1.6363 -2.49052 -0.368407 0
M  V30 14 C -2.19611 -3.682 0.0601935 0
M  V30 15 N -1.46441 -4.87901 -0.0720691 0
M  V30 16 C -3.47777 -3.6631 0.614699 0
M  V30 17 C -4.16121 -2.48503 0.728916 0
M  V30 18 C -3.57223 -1.31085 0.290315 0
M  V30 19 N -4.21358 -0.13207 0.386114 0
M  V30 20 C -3.68394 1.04168 -0.0266159 0
M  V30 21 C -2.42246 1.0923 -0.583147 0
M  V30 22 C -1.87125 2.29128 -1.00916 0
M  V30 23 C -2.55732 3.48269 -0.895855 0
M  V30 24 N -2.01009 4.72258 -1.32647 0
M  V30 25 C -3.81981 3.42654 -0.338024 0
M  V30 26 C -4.36895 2.23442 0.0860198 0
M  V30 27 C 0.730523 0.282739 0.872084 0
M  V30 28 C 1.91417 0.460112 1.55968 0
M  V30 29 H 7.59415 -0.226274 -0.00381985 0
M  V30 30 H 6.34926 0.904905 -0.557845 0
M  V30 31 H 6.10737 -0.916318 -0.797911 0
M  V30 32 H 4.3285 1.4654 2.35907 0
M  V30 33 H 4.06586 0.325181 -1.01015 0
M  V30 34 H 1.9902 0.0145028 -2.17616 0
M  V30 35 H -0.42079 -0.193415 -2.30784 0
M  V30 36 H -0.626871 -2.48612 -0.808127 0
M  V30 37 H -1.79897 -5.62921 -0.704865 0
M  V30 38 H -0.58529 -5.03233 0.455521 0
M  V30 39 H -3.89989 -4.60989 0.945393 0
M  V30 40 H -5.16594 -2.48866 1.16647 0
M  V30 41 H -0.879276 2.30245 -1.44234 0
M  V30 42 H -1.70162 4.9161 -2.30332 0
M  V30 43 H -1.90482 5.49482 -0.633999 0
M  V30 44 H -4.36234 4.36918 -0.248503 0
M  V30 45 H -5.37061 2.19528 0.527758 0
M  V30 46 H -0.210446 0.27275 1.4088 0
M  V30 47 H 1.92621 0.589451 2.62116 0
M  V30 END ATOM
M  V30 BEGIN BOND
M  V30 1 1 1 2
M  V30 2 2 2 3
M  V30 3 2 2 4
M  V30 4 1 2 5
M  V30 5 1 5 6
M  V30 6 2 6 7
M  V30 7 1 7 8
M  V30 8 2 8 9
M  V30 9 1 9 10
M  V30 10 1 10 11
M  V30 11 1 11 12
M  V30 12 2 12 13
M  V30 13 1 13 14
M  V30 14 1 14 15
M  V30 15 2 14 16
M  V30 16 1 16 17
M  V30 17 2 17 18
M  V30 18 1 18 19
M  V30 19 2 19 20
M  V30 20 1 20 21
M  V30 21 1 21 22
M  V30 22 2 22 23
M  V30 23 1 23 24
M  V30 24 1 23 25
M  V30 25 2 25 26
M  V30 26 1 9 27
M  V30 27 2 27 28
M  V30 28 1 28 6
M  V30 29 2 21 11
M  V30 30 1 18 12
M  V30 31 1 26 20
M  V30 32 1 1 29
M  V30 33 1 1 30
M  V30 34 1 1 31
M  V30 35 1 5 32
M  V30 36 1 7 33
M  V30 37 1 8 34
M  V30 38 1 10 35
M  V30 39 1 13 36
M  V30 40 1 15 37
M  V30 41 1 15 38
M  V30 42 1 16 39
M  V30 43 1 17 40
M  V30 44 1 22 41
M  V30 45 1 24 42
M  V30 46 1 24 43
M  V30 47 1 25 44
M  V30 48 1 26 45
M  V30 49 1 27 46
M  V30 50 1 28 47
M  V30 END BOND
M  V30 END CTAB
M  END
