
     RDKit          3D

  0  0  0  0  0  0  0  0  0  0999 V3000
M  V30 BEGIN CTAB
M  V30 COUNTS 37 38 0 0 0
M  V30 BEGIN ATOM
M  V30 1 C 1.22657 1.62352 2.3882 0
M  V30 2 C 1.89625 0.851212 1.2741 0
M  V30 3 C 3.27753 0.874984 1.17446 0
M  V30 4 C 3.9205 0.173859 0.173194 0
M  V30 5 C 3.19234 -0.558514 -0.741152 0
M  V30 6 C 1.8259 -0.580673 -0.641563 0
M  V30 7 C 1.17808 0.113124 0.351643 0
M  V30 8 C -0.295963 0.124127 0.501039 0
M  V30 9 N -0.824997 1.46096 0.378113 0
M  V30 10 C -2.10909 1.60214 -0.174963 0
M  V30 11 C -3.03987 0.450009 -0.144368 0
M  V30 12 C -2.44521 -0.87223 0.234727 0
M  V30 13 C -1.02796 -0.855478 -0.379926 0
M  V30 14 N -1.21779 -0.430753 -1.73435 0
M  V30 15 C -3.21938 -2.06115 -0.219123 0
M  V30 16 N 3.85261 -1.27497 -1.76816 0
M  V30 17 H 1.99962 1.76392 3.17898 0
M  V30 18 H 0.434766 1.01955 2.87684 0
M  V30 19 H 0.78878 2.56223 2.05672 0
M  V30 20 H 3.83082 1.46496 1.91335 0
M  V30 21 H 4.98856 0.214863 0.126308 0
M  V30 22 H 1.20729 -1.15589 -1.35357 0
M  V30 23 H -0.501351 -0.191226 1.54737 0
M  V30 24 H -0.137708 2.05499 -0.128087 0
M  V30 25 H -2.00783 2.05941 -1.20388 0
M  V30 26 H -2.61768 2.43413 0.405227 0
M  V30 27 H -3.42562 0.312486 -1.20123 0
M  V30 28 H -3.9883 0.645457 0.439058 0
M  V30 29 H -2.36585 -0.930716 1.35238 0
M  V30 30 H -0.540301 -1.83547 -0.283641 0
M  V30 31 H -1.20564 -1.28929 -2.33243 0
M  V30 32 H -0.604705 0.315734 -2.06145 0
M  V30 33 H -4.19637 -2.03145 0.336705 0
M  V30 34 H -3.38019 -2.00669 -1.31205 0
M  V30 35 H -2.66121 -2.96971 0.0862353 0
M  V30 36 H 3.70971 -2.29385 -1.87242 0
M  V30 37 H 4.48369 -0.783622 -2.41998 0
M  V30 END ATOM
M  V30 BEGIN BOND
M  V30 1 1 1 2
M  V30 2 2 2 3
M  V30 3 1 3 4
M  V30 4 2 4 5
M  V30 5 1 5 6
M  V30 6 2 6 7
M  V30 7 1 7 8
M  V30 8 1 8 9
M  V30 9 1 9 10
M  V30 10 1 10 11
M  V30 11 1 11 12
M  V30 12 1 12 13
M  V30 13 1 13 14
M  V30 14 1 12 15
M  V30 15 1 5 16
M  V30 16 1 7 2
M  V30 17 1 13 8
M  V30 18 1 1 17
M  V30 19 1 1 18
M  V30 20 1 1 19
M  V30 21 1 3 20
M  V30 22 1 4 21
M  V30 23 1 6 22
M  V30 24 1 8 23
M  V30 25 1 9 24
M  V30 26 1 10 25
M  V30 27 1 10 26
M  V30 28 1 11 27
M  V30 29 1 11 28
M  V30 30 1 12 29
M  V30 31 1 13 30
M  V30 32 1 14 31
M  V30 33 1 14 32
M  V30 34 1 15 33
M  V30 35 1 15 34
M  V30 36 1 15 35
M  V30 37 1 16 36
M  V30 38 1 16 37
M  V30 END BOND
M  V30 END CTAB
M  END
