
     RDKit          3D

  0  0  0  0  0  0  0  0  0  0999 V3000
M  V30 BEGIN CTAB
M  V30 COUNTS 24 25 0 0 0
M  V30 BEGIN ATOM
M  V30 1 N -3.88508 1.36809 -0.610218 0
M  V30 2 C -2.86708 0.394495 -0.368059 0
M  V30 3 N -3.13592 -0.912009 -0.192297 0
M  V30 4 C -2.16472 -1.81851 0.0353081 0
M  V30 5 N -2.55203 -3.17235 0.207525 0
M  V30 6 N -0.878868 -1.40843 0.0897835 0
M  V30 7 C -0.524532 -0.122508 -0.0750205 0
M  V30 8 C -1.53653 0.783641 -0.306292 0
M  V30 9 C 0.876693 0.299535 -0.0118536 0
M  V30 10 C 1.33767 1.58659 -0.167085 0
M  V30 11 C 2.70549 1.54491 -0.035874 0
M  V30 12 N 3.06203 0.287677 0.189389 0
M  V30 13 N 1.9642 -0.467375 0.204951 0
M  V30 14 C 4.41363 -0.228158 0.391791 0
M  V30 15 H -3.82087 2.34053 -0.188384 0
M  V30 16 H -4.7196 1.19136 -1.19208 0
M  V30 17 H -2.23829 -3.90577 -0.457782 0
M  V30 18 H -3.157 -3.43621 1.00825 0
M  V30 19 H -1.27695 1.82866 -0.442796 0
M  V30 20 H 0.702417 2.43428 -0.355007 0
M  V30 21 H 3.40452 2.38524 -0.100899 0
M  V30 22 H 5.10411 0.656129 0.500717 0
M  V30 23 H 4.70085 -0.861505 -0.464647 0
M  V30 24 H 4.48587 -0.768324 1.36372 0
M  V30 END ATOM
M  V30 BEGIN BOND
M  V30 1 1 1 2
M  V30 2 2 2 3
M  V30 3 1 3 4
M  V30 4 1 4 5
M  V30 5 2 4 6
M  V30 6 1 6 7
M  V30 7 2 7 8
M  V30 8 1 7 9
M  V30 9 1 9 10
M  V30 10 2 10 11
M  V30 11 1 11 12
M  V30 12 1 12 13
M  V30 13 1 12 14
M  V30 14 1 8 2
M  V30 15 2 13 9
M  V30 16 1 1 15
M  V30 17 1 1 16
M  V30 18 1 5 17
M  V30 19 1 5 18
M  V30 20 1 8 19
M  V30 21 1 10 20
M  V30 22 1 11 21
M  V30 23 1 14 22
M  V30 24 1 14 23
M  V30 25 1 14 24
M  V30 END BOND
M  V30 END CTAB
M  END
