
     RDKit          3D

  0  0  0  0  0  0  0  0  0  0999 V3000
M  V30 BEGIN CTAB
M  V30 COUNTS 41 42 0 0 0
M  V30 BEGIN ATOM
M  V30 1 C -1.3761 1.93764 -1.60955 0
M  V30 2 C -1.00121 1.80168 -0.228721 0
M  V30 3 C -0.976839 0.390351 0.447651 0
M  V30 4 O -0.0446614 -0.389553 -0.155413 0
M  V30 5 N 1.21821 -0.380075 0.194641 0
M  V30 6 C 1.64781 -0.401787 1.5253 0
M  V30 7 N 0.797446 -0.611668 2.6708 0
M  V30 8 N 2.9033 -0.265406 1.90563 0
M  V30 9 C 3.94088 -0.101969 0.956793 0
M  V30 10 N 5.31193 0.0927206 1.33738 0
M  V30 11 N 3.59203 -0.124058 -0.26197 0
M  V30 12 C 2.28096 -0.302178 -0.817522 0
M  V30 13 C 2.12137 0.763966 -1.8301 0
M  V30 14 C 2.37548 -1.60919 -1.60158 0
M  V30 15 C -2.33452 -0.195523 0.2325 0
M  V30 16 C -3.34859 0.0951482 1.15463 0
M  V30 17 Cl -3.07321 1.12646 2.54219 0
M  V30 18 C -4.63748 -0.418349 1.00953 0
M  V30 19 C -4.94492 -1.232 -0.0522562 0
M  V30 20 C -3.92933 -1.53013 -0.96927 0
M  V30 21 C -2.64151 -1.0114 -0.815996 0
M  V30 22 Cl -1.42713 -1.66119 -1.95228 0
M  V30 23 H -1.56044 1.08564 -2.25549 0
M  V30 24 H -0.600684 2.55637 -2.19541 0
M  V30 25 H -2.31382 2.59541 -1.75524 0
M  V30 26 H -1.69903 2.45494 0.400417 0
M  V30 27 H 0.0058055 2.27985 0.0548258 0
M  V30 28 H -0.901008 0.646497 1.49994 0
M  V30 29 H 0.676794 0.0959326 3.3948 0
M  V30 30 H 0.316517 -1.52094 2.72374 0
M  V30 31 H 5.87811 -0.606566 1.82446 0
M  V30 32 H 5.74389 1.02762 1.10514 0
M  V30 33 H 3.11259 0.81994 -2.38854 0
M  V30 34 H 1.31571 0.619695 -2.55351 0
M  V30 35 H 2.02552 1.77248 -1.334 0
M  V30 36 H 3.4013 -1.86358 -1.86771 0
M  V30 37 H 1.86472 -2.40931 -1.0455 0
M  V30 38 H 1.80637 -1.52211 -2.57538 0
M  V30 39 H -5.44129 -0.219715 1.69723 0
M  V30 40 H -5.95752 -1.62473 -0.171537 0
M  V30 41 H -4.12744 -2.16091 -1.82173 0
M  V30 END ATOM
M  V30 BEGIN BOND
M  V30 1 1 1 2
M  V30 2 1 2 3
M  V30 3 1 3 4
M  V30 4 1 4 5
M  V30 5 1 5 6
M  V30 6 1 6 7
M  V30 7 2 6 8
M  V30 8 1 8 9
M  V30 9 1 9 10
M  V30 10 2 9 11
M  V30 11 1 11 12
M  V30 12 1 12 13
M  V30 13 1 12 14
M  V30 14 1 3 15
M  V30 15 2 15 16
M  V30 16 1 16 17
M  V30 17 1 16 18
M  V30 18 2 18 19
M  V30 19 1 19 20
M  V30 20 2 20 21
M  V30 21 1 21 22
M  V30 22 1 12 5
M  V30 23 1 21 15
M  V30 24 1 1 23
M  V30 25 1 1 24
M  V30 26 1 1 25
M  V30 27 1 2 26
M  V30 28 1 2 27
M  V30 29 1 3 28
M  V30 30 1 7 29
M  V30 31 1 7 30
M  V30 32 1 10 31
M  V30 33 1 10 32
M  V30 34 1 13 33
M  V30 35 1 13 34
M  V30 36 1 13 35
M  V30 37 1 14 36
M  V30 38 1 14 37
M  V30 39 1 14 38
M  V30 40 1 18 39
M  V30 41 1 19 40
M  V30 42 1 20 41
M  V30 END BOND
M  V30 END CTAB
M  END
