
     RDKit          3D

  0  0  0  0  0  0  0  0  0  0999 V3000
M  V30 BEGIN CTAB
M  V30 COUNTS 19 19 0 0 0
M  V30 BEGIN ATOM
M  V30 1 N -3.26432 -0.17056 -0.0401854 0
M  V30 2 C -1.82909 -0.168872 -0.0500009 0
M  V30 3 C -1.12825 1.02486 0.0982836 0
M  V30 4 C 0.274511 0.988291 0.0837816 0
M  V30 5 N 1.00835 2.17252 0.230631 0
M  V30 6 C 0.940147 -0.207027 -0.0742648 0
M  V30 7 C 0.241815 -1.38266 -0.220247 0
M  V30 8 C -1.15288 -1.36908 -0.208748 0
M  V30 9 Cl 1.15008 -2.86518 -0.416848 0
M  V30 10 C 2.39039 -0.190181 -0.0822283 0
M  V30 11 O 3.08534 0.827971 0.0435746 0
M  V30 12 O 3.08117 -1.40256 -0.242631 0
M  V30 13 H -3.74977 -0.881963 0.549903 0
M  V30 14 H -3.8243 0.509468 -0.598238 0
M  V30 15 H -1.65501 1.95432 0.221249 0
M  V30 16 H 1.02496 2.84652 -0.576479 0
M  V30 17 H 1.5495 2.45892 1.07381 0
M  V30 18 H -1.70594 -2.29078 -0.323163 0
M  V30 19 H 3.5633 -1.85401 0.531796 0
M  V30 END ATOM
M  V30 BEGIN BOND
M  V30 1 1 1 2
M  V30 2 2 2 3
M  V30 3 1 3 4
M  V30 4 1 4 5
M  V30 5 2 4 6
M  V30 6 1 6 7
M  V30 7 2 7 8
M  V30 8 1 7 9
M  V30 9 1 6 10
M  V30 10 2 10 11
M  V30 11 1 10 12
M  V30 12 1 8 2
M  V30 13 1 1 13
M  V30 14 1 1 14
M  V30 15 1 3 15
M  V30 16 1 5 16
M  V30 17 1 5 17
M  V30 18 1 8 18
M  V30 19 1 12 19
M  V30 END BOND
M  V30 END CTAB
M  END
