
     RDKit          3D

  0  0  0  0  0  0  0  0  0  0999 V3000
M  V30 BEGIN CTAB
M  V30 COUNTS 19 19 0 0 0
M  V30 BEGIN ATOM
M  V30 1 Br 2.57643 -3.06397 -0.819971 0
M  V30 2 C 1.72006 -1.41139 -0.381809 0
M  V30 3 C 0.334864 -1.3135 -0.286233 0
M  V30 4 C -0.258497 -0.110064 0.0312611 0
M  V30 5 C 0.542095 0.979665 0.248959 0
M  V30 6 C 1.91893 0.927961 0.164821 0
M  V30 7 C 2.48585 -0.310914 -0.159735 0
M  V30 8 Br 4.38224 -0.443403 -0.290209 0
M  V30 9 Br 2.99729 2.44808 0.47048 0
M  V30 10 N -0.0767681 2.21538 0.57546 0
M  V30 11 S -1.99268 0.0550625 0.161129 0
M  V30 12 O -2.4773 1.15555 -0.764228 0
M  V30 13 O -2.38838 0.482132 1.56574 0
M  V30 14 N -2.7992 -1.41565 -0.14741 0
M  V30 15 H -0.255175 -2.18975 -0.464059 0
M  V30 16 H -0.609035 2.68829 -0.187991 0
M  V30 17 H -0.0462509 2.67893 1.48781 0
M  V30 18 H -2.2763 -2.09293 -0.716379 0
M  V30 19 H -3.77816 -1.27947 -0.487633 0
M  V30 END ATOM
M  V30 BEGIN BOND
M  V30 1 1 1 2
M  V30 2 2 2 3
M  V30 3 1 3 4
M  V30 4 2 4 5
M  V30 5 1 5 6
M  V30 6 2 6 7
M  V30 7 1 7 8
M  V30 8 1 6 9
M  V30 9 1 5 10
M  V30 10 1 4 11
M  V30 11 2 11 12
M  V30 12 2 11 13
M  V30 13 1 11 14
M  V30 14 1 7 2
M  V30 15 1 3 15
M  V30 16 1 10 16
M  V30 17 1 10 17
M  V30 18 1 14 18
M  V30 19 1 14 19
M  V30 END BOND
M  V30 END CTAB
M  END
