
     RDKit          3D

  0  0  0  0  0  0  0  0  0  0999 V3000
M  V30 BEGIN CTAB
M  V30 COUNTS 19 18 0 0 0
M  V30 BEGIN ATOM
M  V30 1 C 2.45519 -1.1598 -0.355057 0
M  V30 2 S 0.697021 -1.51071 -0.686648 0
M  V30 3 C -0.348626 -0.147059 -0.144479 0
M  V30 4 N -1.04516 0.384618 -1.31382 0
M  V30 5 I -2.55824 1.61861 -0.635481 0
M  V30 6 N -1.34631 -0.502326 0.805592 0
M  V30 7 N -2.11924 -1.59246 0.480964 0
M  V30 8 N 0.511211 0.885497 0.351766 0
M  V30 9 N -0.146337 1.98477 0.872258 0
M  V30 10 H 2.64819 -0.0792978 -0.214833 0
M  V30 11 H 2.76773 -1.68182 0.566151 0
M  V30 12 H 3.10678 -1.48761 -1.18039 0
M  V30 13 H -0.346143 0.873903 -1.9078 0
M  V30 14 H -1.1004 -0.39242 1.79589 0
M  V30 15 H -2.92817 -1.23554 -0.0934552 0
M  V30 16 H -1.6373 -2.2873 -0.149158 0
M  V30 17 H 1.10208 1.221 -0.452927 0
M  V30 18 H 0.385548 2.30325 1.72552 0
M  V30 19 H -0.0978205 2.80468 0.21818 0
M  V30 END ATOM
M  V30 BEGIN BOND
M  V30 1 1 1 2
M  V30 2 1 2 3
M  V30 3 1 3 4
M  V30 4 1 4 5
M  V30 5 1 3 6
M  V30 6 1 6 7
M  V30 7 1 3 8
M  V30 8 1 8 9
M  V30 9 1 1 10
M  V30 10 1 1 11
M  V30 11 1 1 12
M  V30 12 1 4 13
M  V30 13 1 6 14
M  V30 14 1 7 15
M  V30 15 1 7 16
M  V30 16 1 8 17
M  V30 17 1 9 18
M  V30 18 1 9 19
M  V30 END BOND
M  V30 END CTAB
M  END
