
     RDKit          3D

  0  0  0  0  0  0  0  0  0  0999 V3000
M  V30 BEGIN CTAB
M  V30 COUNTS 22 23 0 0 0
M  V30 BEGIN ATOM
M  V30 1 N 4.73519 -1.25594 0.367884 0
M  V30 2 C 3.57707 -0.45412 0.173376 0
M  V30 3 N 3.54417 0.863844 -0.103801 0
M  V30 4 N 2.2858 1.25844 -0.215171 0
M  V30 5 C 1.48069 0.188606 -0.00908664 0
M  V30 6 N 2.30346 -0.849209 0.227288 0
M  V30 7 C 0.027881 0.164046 -0.0369363 0
M  V30 8 C -0.796595 1.23944 -0.281211 0
M  V30 9 C -2.086 0.705943 -0.198597 0
M  V30 10 N -2.01592 -0.606632 0.0782869 0
M  V30 11 N -0.727165 -0.904036 0.169929 0
M  V30 12 C -3.13215 -1.51493 0.243405 0
M  V30 13 N -3.27125 1.47029 -0.385806 0
M  V30 14 H 4.73071 -2.27338 0.1727 0
M  V30 15 H 5.62306 -0.832223 0.714847 0
M  V30 16 H 2.0033 2.23681 -0.426801 0
M  V30 17 H -0.533104 2.27212 -0.491837 0
M  V30 18 H -2.9104 -2.26133 1.03204 0
M  V30 19 H -3.38454 -2.05563 -0.688317 0
M  V30 20 H -4.00452 -0.900531 0.548905 0
M  V30 21 H -4.04987 1.38663 0.302827 0
M  V30 22 H -3.3998 2.1218 -1.19392 0
M  V30 END ATOM
M  V30 BEGIN BOND
M  V30 1 1 1 2
M  V30 2 2 2 3
M  V30 3 1 3 4
M  V30 4 1 4 5
M  V30 5 2 5 6
M  V30 6 1 5 7
M  V30 7 1 7 8
M  V30 8 2 8 9
M  V30 9 1 9 10
M  V30 10 1 10 11
M  V30 11 1 10 12
M  V30 12 1 9 13
M  V30 13 1 6 2
M  V30 14 2 11 7
M  V30 15 1 1 14
M  V30 16 1 1 15
M  V30 17 1 4 16
M  V30 18 1 8 17
M  V30 19 1 12 18
M  V30 20 1 12 19
M  V30 21 1 12 20
M  V30 22 1 13 21
M  V30 23 1 13 22
M  V30 END BOND
M  V30 END CTAB
M  END
