
     RDKit          3D

  0  0  0  0  0  0  0  0  0  0999 V3000
M  V30 BEGIN CTAB
M  V30 COUNTS 32 33 0 0 0
M  V30 BEGIN ATOM
M  V30 1 C -2.98472 2.55074 -0.388812 0
M  V30 2 N -2.3767 1.27504 -0.125764 0
M  V30 3 C -1.16696 1.25951 0.483265 0
M  V30 4 O -0.61042 2.32603 0.803895 0
M  V30 5 N -0.520249 0.091658 0.76844 0
M  V30 6 C 0.760706 0.0116234 1.4156 0
M  V30 7 C 1.94408 0.0343596 0.548084 0
M  V30 8 C 2.49296 1.22064 0.123679 0
M  V30 9 C 3.62942 1.28659 -0.695109 0
M  V30 10 C 4.23095 0.138372 -1.09805 0
M  V30 11 C 3.71339 -1.06607 -0.69444 0
M  V30 12 C 2.57381 -1.10941 0.126118 0
M  V30 13 C -1.16251 -1.02817 0.408623 0
M  V30 14 N -0.599663 -2.28998 0.689009 0
M  V30 15 C -2.39657 -1.03274 -0.213426 0
M  V30 16 N -3.0255 -2.24735 -0.570975 0
M  V30 17 C -3.02369 0.156078 -0.489756 0
M  V30 18 O -4.16143 0.195696 -1.06231 0
M  V30 19 H -2.20757 3.36766 -0.41498 0
M  V30 20 H -3.65063 2.77255 0.487532 0
M  V30 21 H -3.50869 2.5943 -1.34735 0
M  V30 22 H 0.795372 -0.884721 2.12037 0
M  V30 23 H 0.790045 0.873092 2.16161 0
M  V30 24 H 2.1091 2.19368 0.392153 0
M  V30 25 H 4.04518 2.22613 -1.01822 0
M  V30 26 H 5.12895 0.152407 -1.74445 0
M  V30 27 H 4.19463 -1.98687 -1.01644 0
M  V30 28 H 2.25857 -2.10564 0.400925 0
M  V30 29 H -0.259702 -2.59405 1.62429 0
M  V30 30 H -0.497837 -3.01057 -0.0834791 0
M  V30 31 H -3.56048 -2.74097 0.177741 0
M  V30 32 H -2.95386 -2.62962 -1.54611 0
M  V30 END ATOM
M  V30 BEGIN BOND
M  V30 1 1 1 2
M  V30 2 1 2 3
M  V30 3 2 3 4
M  V30 4 1 3 5
M  V30 5 1 5 6
M  V30 6 1 6 7
M  V30 7 2 7 8
M  V30 8 1 8 9
M  V30 9 2 9 10
M  V30 10 1 10 11
M  V30 11 2 11 12
M  V30 12 1 5 13
M  V30 13 1 13 14
M  V30 14 2 13 15
M  V30 15 1 15 16
M  V30 16 1 15 17
M  V30 17 2 17 18
M  V30 18 1 17 2
M  V30 19 1 12 7
M  V30 20 1 1 19
M  V30 21 1 1 20
M  V30 22 1 1 21
M  V30 23 1 6 22
M  V30 24 1 6 23
M  V30 25 1 8 24
M  V30 26 1 9 25
M  V30 27 1 10 26
M  V30 28 1 11 27
M  V30 29 1 12 28
M  V30 30 1 14 29
M  V30 31 1 14 30
M  V30 32 1 16 31
M  V30 33 1 16 32
M  V30 END BOND
M  V30 END CTAB
M  END
