
     RDKit          3D

  0  0  0  0  0  0  0  0  0  0999 V3000
M  V30 BEGIN CTAB
M  V30 COUNTS 23 23 0 0 0
M  V30 BEGIN ATOM
M  V30 1 N -1.15859 -1.82517 -1.22932 0
M  V30 2 C -1.14294 -0.740047 -0.3399 0
M  V30 3 C -0.0267256 0.0718186 -0.308998 0
M  V30 4 O 1.03084 -0.187142 -1.13262 0
M  V30 5 C 2.20959 0.565848 -1.18118 0
M  V30 6 C 2.98495 0.603466 0.0930795 0
M  V30 7 O 4.12924 1.3949 -0.136734 0
M  V30 8 N -0.0635832 1.09276 0.557463 0
M  V30 9 C -1.11488 1.32976 1.35767 0
M  V30 10 C -2.23367 0.537749 1.34469 0
M  V30 11 C -2.24958 -0.528038 0.471418 0
M  V30 12 N -3.36565 -1.38927 0.399543 0
M  V30 13 H -0.650026 -2.7164 -1.11689 0
M  V30 14 H -1.74693 -1.72291 -2.09901 0
M  V30 15 H 2.84047 0.21143 -2.03316 0
M  V30 16 H 1.99934 1.64251 -1.45672 0
M  V30 17 H 2.43931 1.04193 0.9169 0
M  V30 18 H 3.30389 -0.438511 0.351921 0
M  V30 19 H 4.52295 1.58684 0.761528 0
M  V30 20 H -1.0669 2.16743 2.02366 0
M  V30 21 H -3.08201 0.716768 1.98031 0
M  V30 22 H -3.74068 -1.7248 -0.501499 0
M  V30 23 H -3.81842 -1.69092 1.27785 0
M  V30 END ATOM
M  V30 BEGIN BOND
M  V30 1 1 1 2
M  V30 2 2 2 3
M  V30 3 1 3 4
M  V30 4 1 4 5
M  V30 5 1 5 6
M  V30 6 1 6 7
M  V30 7 1 3 8
M  V30 8 2 8 9
M  V30 9 1 9 10
M  V30 10 2 10 11
M  V30 11 1 11 12
M  V30 12 1 11 2
M  V30 13 1 1 13
M  V30 14 1 1 14
M  V30 15 1 5 15
M  V30 16 1 5 16
M  V30 17 1 6 17
M  V30 18 1 6 18
M  V30 19 1 7 19
M  V30 20 1 9 20
M  V30 21 1 10 21
M  V30 22 1 12 22
M  V30 23 1 12 23
M  V30 END BOND
M  V30 END CTAB
M  END
