
     RDKit          3D

  0  0  0  0  0  0  0  0  0  0999 V3000
M  V30 BEGIN CTAB
M  V30 COUNTS 37 39 0 0 0
M  V30 BEGIN ATOM
M  V30 1 N -4.04993 -3.95485 -1.39774 0
M  V30 2 C -3.94479 -2.83433 -1.1155 0
M  V30 3 C -3.83415 -1.44157 -0.76146 0
M  V30 4 C -4.59399 -0.553403 -1.49082 0
M  V30 5 N -5.45765 -0.978429 -2.55342 0
M  V30 6 C -4.49094 0.793321 -1.1537 0
M  V30 7 C -3.66407 1.1888 -0.138847 0
M  V30 8 N -2.93773 0.290584 0.550239 0
M  V30 9 C -3.01708 -1.01262 0.247533 0
M  V30 10 S -2.05485 -2.17418 1.17005 0
M  V30 11 C -1.05038 -1.35381 2.44203 0
M  V30 12 C -0.00578137 -0.495352 1.77302 0
M  V30 13 O -0.0931471 0.751432 1.42169 0
M  V30 14 N 1.00351 1.16475 0.869393 0
M  V30 15 C 1.87121 0.136727 0.851054 0
M  V30 16 N 1.22637 -0.895162 1.41965 0
M  V30 17 C 3.23262 0.104336 0.330379 0
M  V30 18 C 3.95661 -1.06343 0.413983 0
M  V30 19 C 5.25291 -1.11415 -0.0783615 0
M  V30 20 C 5.83339 -0.00513194 -0.655099 0
M  V30 21 C 5.11042 1.17977 -0.744424 0
M  V30 22 C 3.82654 1.20514 -0.248922 0
M  V30 23 N 5.72776 2.3045 -1.34094 0 CHG=1
M  V30 24 O 5.07581 3.35932 -1.41427 0
M  V30 25 O 6.99524 2.23625 -1.81988 0 CHG=-1
M  V30 26 N -3.57389 2.59007 0.192987 0
M  V30 27 H -5.02974 -1.32141 -3.43927 0
M  V30 28 H -6.50118 -0.932076 -2.40928 0
M  V30 29 H -5.09361 1.50609 -1.73081 0
M  V30 30 H -1.6467 -0.796528 3.16301 0
M  V30 31 H -0.508493 -2.16177 2.98124 0
M  V30 32 H 3.54925 -1.96185 0.856199 0
M  V30 33 H 5.82004 -2.03869 -0.0100438 0
M  V30 34 H 6.83481 -0.027805 -1.04094 0
M  V30 35 H 3.27051 2.13076 -0.3224 0
M  V30 36 H -2.96834 3.17059 -0.433423 0
M  V30 37 H -4.07054 3.00409 0.995008 0
M  V30 END ATOM
M  V30 BEGIN BOND
M  V30 1 3 1 2
M  V30 2 1 2 3
M  V30 3 2 3 4
M  V30 4 1 4 5
M  V30 5 1 4 6
M  V30 6 2 6 7
M  V30 7 1 7 8
M  V30 8 2 8 9
M  V30 9 1 9 10
M  V30 10 1 10 11
M  V30 11 1 11 12
M  V30 12 1 12 13
M  V30 13 1 13 14
M  V30 14 2 14 15
M  V30 15 1 15 16
M  V30 16 1 15 17
M  V30 17 2 17 18
M  V30 18 1 18 19
M  V30 19 2 19 20
M  V30 20 1 20 21
M  V30 21 2 21 22
M  V30 22 1 21 23
M  V30 23 2 23 24
M  V30 24 1 23 25
M  V30 25 1 7 26
M  V30 26 1 9 3
M  V30 27 2 16 12
M  V30 28 1 22 17
M  V30 29 1 5 27
M  V30 30 1 5 28
M  V30 31 1 6 29
M  V30 32 1 11 30
M  V30 33 1 11 31
M  V30 34 1 18 32
M  V30 35 1 19 33
M  V30 36 1 20 34
M  V30 37 1 22 35
M  V30 38 1 26 36
M  V30 39 1 26 37
M  V30 END BOND
M  V30 END CTAB
M  END
