
     RDKit          3D

  0  0  0  0  0  0  0  0  0  0999 V3000
M  V30 BEGIN CTAB
M  V30 COUNTS 51 53 0 0 0
M  V30 BEGIN ATOM
M  V30 1 C 4.48344 -1.59268 1.71795 0
M  V30 2 C 5.10664 -0.787796 0.635306 0
M  V30 3 C 4.33787 0.00939294 -0.181595 0
M  V30 4 N 2.93509 0.0577682 0.0194384 0
M  V30 5 C 2.1249 -0.88731 -0.690502 0
M  V30 6 C 0.723657 -0.360396 -0.970045 0
M  V30 7 N 0.0838009 0.112313 0.231184 0
M  V30 8 C 0.920577 0.48472 1.33723 0
M  V30 9 C 2.28573 0.998264 0.891414 0
M  V30 10 C -1.33175 0.202563 0.298954 0
M  V30 11 C -1.99233 0.589791 1.45665 0
M  V30 12 C -3.36735 0.658874 1.45164 0
M  V30 13 C -4.13609 0.355406 0.328087 0
M  V30 14 C -3.48619 -0.0224232 -0.800436 0
M  V30 15 C -2.09224 -0.0957362 -0.806265 0
M  V30 16 C -5.56854 0.450339 0.395118 0
M  V30 17 O -6.11617 0.842753 1.4783 0
M  V30 18 N -6.43066 0.132927 -0.676589 0
M  V30 19 C -7.86843 0.231176 -0.582525 0
M  V30 20 C -8.48158 -0.635698 0.425065 0
M  V30 21 O -9.84672 -0.633669 0.663044 0
M  V30 22 O -7.7842 -1.41621 1.1126 0
M  V30 23 C 4.99429 0.722189 -1.15977 0
M  V30 24 N 4.21068 1.54687 -2.00689 0
M  V30 25 N 6.34254 0.622978 -1.28899 0
M  V30 26 C 7.08358 -0.157862 -0.486598 0
M  V30 27 N 8.51108 -0.250425 -0.637959 0
M  V30 28 N 6.46056 -0.860721 0.473422 0
M  V30 29 H 4.69544 -2.66027 1.50724 0
M  V30 30 H 3.42366 -1.3629 1.8212 0
M  V30 31 H 5.03316 -1.3587 2.67514 0
M  V30 32 H 2.09056 -1.87124 -0.175536 0
M  V30 33 H 2.59185 -1.06751 -1.68099 0
M  V30 34 H 0.187418 -1.24048 -1.42327 0
M  V30 35 H 0.781931 0.419395 -1.75499 0
M  V30 36 H 0.50064 1.34897 1.93236 0
M  V30 37 H 1.11281 -0.396967 1.98125 0
M  V30 38 H 2.22412 2.01359 0.451439 0
M  V30 39 H 2.87354 1.12247 1.84627 0
M  V30 40 H -1.41228 0.828445 2.33988 0
M  V30 41 H -3.90338 0.964287 2.36209 0
M  V30 42 H -4.0124 -0.276599 -1.72258 0
M  V30 43 H -1.63462 -0.40138 -1.734 0
M  V30 44 H -6.00405 -0.190651 -1.58593 0
M  V30 45 H -8.28712 -0.0665973 -1.58152 0
M  V30 46 H -8.17205 1.29486 -0.438038 0
M  V30 47 H -10.1377 -0.615935 1.64866 0
M  V30 48 H 4.68725 2.35522 -2.46853 0
M  V30 49 H 3.21085 1.35898 -2.16298 0
M  V30 50 H 9.0261 -1.15289 -0.643138 0
M  V30 51 H 9.0221 0.638512 -0.744545 0
M  V30 END ATOM
M  V30 BEGIN BOND
M  V30 1 1 1 2
M  V30 2 2 2 3
M  V30 3 1 3 4
M  V30 4 1 4 5
M  V30 5 1 5 6
M  V30 6 1 6 7
M  V30 7 1 7 8
M  V30 8 1 8 9
M  V30 9 1 7 10
M  V30 10 2 10 11
M  V30 11 1 11 12
M  V30 12 2 12 13
M  V30 13 1 13 14
M  V30 14 2 14 15
M  V30 15 1 13 16
M  V30 16 2 16 17
M  V30 17 1 16 18
M  V30 18 1 18 19
M  V30 19 1 19 20
M  V30 20 1 20 21
M  V30 21 2 20 22
M  V30 22 1 3 23
M  V30 23 1 23 24
M  V30 24 2 23 25
M  V30 25 1 25 26
M  V30 26 1 26 27
M  V30 27 2 26 28
M  V30 28 1 28 2
M  V30 29 1 9 4
M  V30 30 1 15 10
M  V30 31 1 1 29
M  V30 32 1 1 30
M  V30 33 1 1 31
M  V30 34 1 5 32
M  V30 35 1 5 33
M  V30 36 1 6 34
M  V30 37 1 6 35
M  V30 38 1 8 36
M  V30 39 1 8 37
M  V30 40 1 9 38
M  V30 41 1 9 39
M  V30 42 1 11 40
M  V30 43 1 12 41
M  V30 44 1 14 42
M  V30 45 1 15 43
M  V30 46 1 18 44
M  V30 47 1 19 45
M  V30 48 1 19 46
M  V30 49 1 21 47
M  V30 50 1 24 48
M  V30 51 1 24 49
M  V30 52 1 27 50
M  V30 53 1 27 51
M  V30 END BOND
M  V30 END CTAB
M  END
