
     RDKit          3D

  0  0  0  0  0  0  0  0  0  0999 V3000
M  V30 BEGIN CTAB
M  V30 COUNTS 50 52 0 0 0
M  V30 BEGIN ATOM
M  V30 1 C -7.15499 -0.8117 0.81132 0
M  V30 2 N -6.31305 -0.655141 -0.319549 0
M  V30 3 C -6.5841 -1.05005 -1.60598 0
M  V30 4 N -5.55951 -0.74615 -2.40121 0
M  V30 5 C -4.63045 -0.158423 -1.63704 0
M  V30 6 C -5.10353 -0.0971627 -0.311502 0
M  V30 7 C -4.26605 0.505761 0.676 0
M  V30 8 O -2.95299 -0.0705857 0.555257 0
M  V30 9 C -1.84724 0.634582 0.116046 0
M  V30 10 C -0.619729 0.0266637 0.0217956 0
M  V30 11 C 0.47057 0.727712 -0.412833 0
M  V30 12 N 0.298339 2.02766 -0.743068 0
M  V30 13 C -0.907746 2.59942 -0.643233 0
M  V30 14 N -1.03255 3.98448 -1.0078 0
M  V30 15 N -1.98076 1.91174 -0.216132 0
M  V30 16 C 1.81024 0.128792 -0.533934 0
M  V30 17 C 2.03722 -1.17939 -0.213144 0
M  V30 18 C 3.31415 -1.74729 -0.329344 0
M  V30 19 C 4.38407 -0.996522 -0.773628 0
M  V30 20 C 5.74615 -1.58023 -0.908475 0
M  V30 21 C 6.55676 -1.46088 0.362874 0 CFG=2
M  V30 22 N 5.89363 -2.14224 1.43645 0
M  V30 23 C 6.85737 -0.0613634 0.738894 0
M  V30 24 O 6.44578 0.398316 1.97173 0
M  V30 25 O 7.47381 0.723881 -0.0235182 0
M  V30 26 C 4.15139 0.31939 -1.09551 0
M  V30 27 C 2.88751 0.866462 -0.976181 0
M  V30 28 C -4.56751 0.664577 2.07298 0
M  V30 29 F -4.81573 -0.429461 2.8504 0
M  V30 30 F -3.32658 1.09498 2.65062 0
M  V30 31 F -5.34423 1.78446 2.42271 0
M  V30 32 H -7.39215 0.0569486 1.41002 0
M  V30 33 H -6.94353 -1.75464 1.40024 0
M  V30 34 H -8.18761 -1.08736 0.403619 0
M  V30 35 H -7.48714 -1.52953 -1.91225 0
M  V30 36 H -3.6947 0.184536 -2.05117 0
M  V30 37 H -4.08712 1.58526 0.320198 0
M  V30 38 H -0.505082 -1.02847 0.295311 0
M  V30 39 H -1.91939 4.31368 -1.39615 0
M  V30 40 H -0.231205 4.60007 -0.868254 0
M  V30 41 H 1.2746 -1.84854 0.141436 0
M  V30 42 H 3.50189 -2.7804 -0.0778636 0
M  V30 43 H 5.73483 -2.61637 -1.25231 0
M  V30 44 H 6.29015 -0.974927 -1.67839 0
M  V30 45 H 7.5631 -1.9345 0.16312 0
M  V30 46 H 5.55757 -3.06262 1.12838 0
M  V30 47 H 5.17849 -1.53404 1.87777 0
M  V30 48 H 6.28251 1.38694 2.10988 0
M  V30 49 H 4.97769 0.912409 -1.44531 0
M  V30 50 H 2.76683 1.89928 -1.24212 0
M  V30 END ATOM
M  V30 BEGIN BOND
M  V30 1 1 1 2
M  V30 2 1 2 3
M  V30 3 2 3 4
M  V30 4 1 4 5
M  V30 5 2 5 6
M  V30 6 1 6 7
M  V30 7 1 7 8
M  V30 8 1 8 9
M  V30 9 2 9 10
M  V30 10 1 10 11
M  V30 11 2 11 12
M  V30 12 1 12 13
M  V30 13 1 13 14
M  V30 14 2 13 15
M  V30 15 1 11 16
M  V30 16 2 16 17
M  V30 17 1 17 18
M  V30 18 2 18 19
M  V30 19 1 19 20
M  V30 20 1 20 21
M  V30 21 1 21 22
M  V30 22 1 21 23
M  V30 23 1 23 24
M  V30 24 2 23 25
M  V30 25 1 19 26
M  V30 26 2 26 27
M  V30 27 1 7 28
M  V30 28 1 28 29
M  V30 29 1 28 30
M  V30 30 1 28 31
M  V30 31 1 6 2
M  V30 32 1 15 9
M  V30 33 1 27 16
M  V30 34 1 1 32
M  V30 35 1 1 33
M  V30 36 1 1 34
M  V30 37 1 3 35
M  V30 38 1 5 36
M  V30 39 1 7 37
M  V30 40 1 10 38
M  V30 41 1 14 39
M  V30 42 1 14 40
M  V30 43 1 17 41
M  V30 44 1 18 42
M  V30 45 1 20 43
M  V30 46 1 20 44
M  V30 47 1 21 45 CFG=3
M  V30 48 1 22 46
M  V30 49 1 22 47
M  V30 50 1 24 48
M  V30 51 1 26 49
M  V30 52 1 27 50
M  V30 END BOND
M  V30 END CTAB
M  END
