
     RDKit          3D

  0  0  0  0  0  0  0  0  0  0999 V3000
M  V30 BEGIN CTAB
M  V30 COUNTS 46 49 0 0 0
M  V30 BEGIN ATOM
M  V30 1 N 9.05141 0.957853 0.504689 0
M  V30 2 C 7.62007 0.890345 0.497327 0
M  V30 3 C 6.95675 0.303492 -0.548961 0
M  V30 4 C 5.55749 0.214916 -0.598527 0
M  V30 5 C 4.80863 0.726593 0.424803 0
M  V30 6 C 5.49394 1.3164 1.47461 0
M  V30 7 C 6.86621 1.4059 1.52796 0
M  V30 8 C 3.33232 0.671972 0.461752 0
M  V30 9 O 2.75918 1.39986 1.28491 0
M  V30 10 N 2.63093 -0.171203 -0.40201 0
M  V30 11 C 1.23929 -0.358176 -0.521043 0
M  V30 12 C 0.279422 0.418471 0.0688188 0
M  V30 13 C -1.06199 0.179538 -0.0684664 0
M  V30 14 C -1.53935 -0.894535 -0.836023 0
M  V30 15 C -0.598128 -1.68129 -1.43328 0
M  V30 16 C 0.761001 -1.43099 -1.288 0
M  V30 17 S -1.57239 -2.83168 -2.24296 0
M  V30 18 C -3.12543 -2.23207 -1.76513 0
M  V30 19 N -2.79519 -1.20368 -1.02668 0
M  V30 20 N -4.41673 -2.75934 -2.11354 0
M  V30 21 C -5.60792 -2.18998 -1.66715 0
M  V30 22 O -6.71657 -2.71342 -2.01818 0
M  V30 23 C -5.6042 -1.02319 -0.818209 0
M  V30 24 C -5.63534 0.228695 -1.37906 0
M  V30 25 C -5.64076 1.36747 -0.565433 0
M  V30 26 C -5.61468 1.21261 0.78889 0
M  V30 27 C -5.58365 -0.0318758 1.35026 0
M  V30 28 C -5.57846 -1.14441 0.549039 0
M  V30 29 N -5.62137 2.40357 1.58077 0
M  V30 30 H 9.60102 0.863371 -0.360022 0
M  V30 31 H 9.52373 1.10638 1.41676 0
M  V30 32 H 7.54676 -0.112446 -1.37895 0
M  V30 33 H 5.08465 -0.249152 -1.43829 0
M  V30 34 H 4.88742 1.7219 2.28702 0
M  V30 35 H 7.39258 1.86724 2.34991 0
M  V30 36 H 3.21759 -0.774787 -1.08365 0
M  V30 37 H 0.566391 1.29697 0.687888 0
M  V30 38 H -1.76244 0.857849 0.443433 0
M  V30 39 H 1.43726 -2.10032 -1.7925 0
M  V30 40 H -4.45722 -3.61732 -2.73671 0
M  V30 41 H -5.65561 0.34433 -2.43565 0
M  V30 42 H -5.66557 2.35388 -1.02283 0
M  V30 43 H -5.56328 -0.148963 2.4117 0
M  V30 44 H -5.55374 -2.15997 0.972357 0
M  V30 45 H -6.48993 2.95939 1.73158 0
M  V30 46 H -4.75413 2.75981 2.03736 0
M  V30 END ATOM
M  V30 BEGIN BOND
M  V30 1 1 1 2
M  V30 2 2 2 3
M  V30 3 1 3 4
M  V30 4 2 4 5
M  V30 5 1 5 6
M  V30 6 2 6 7
M  V30 7 1 5 8
M  V30 8 2 8 9
M  V30 9 1 8 10
M  V30 10 1 10 11
M  V30 11 2 11 12
M  V30 12 1 12 13
M  V30 13 2 13 14
M  V30 14 1 14 15
M  V30 15 2 15 16
M  V30 16 1 15 17
M  V30 17 1 17 18
M  V30 18 2 18 19
M  V30 19 1 18 20
M  V30 20 1 20 21
M  V30 21 2 21 22
M  V30 22 1 21 23
M  V30 23 2 23 24
M  V30 24 1 24 25
M  V30 25 2 25 26
M  V30 26 1 26 27
M  V30 27 2 27 28
M  V30 28 1 26 29
M  V30 29 1 7 2
M  V30 30 1 16 11
M  V30 31 1 28 23
M  V30 32 1 19 14
M  V30 33 1 1 30
M  V30 34 1 1 31
M  V30 35 1 3 32
M  V30 36 1 4 33
M  V30 37 1 6 34
M  V30 38 1 7 35
M  V30 39 1 10 36
M  V30 40 1 12 37
M  V30 41 1 13 38
M  V30 42 1 16 39
M  V30 43 1 20 40
M  V30 44 1 24 41
M  V30 45 1 25 42
M  V30 46 1 27 43
M  V30 47 1 28 44
M  V30 48 1 29 45
M  V30 49 1 29 46
M  V30 END BOND
M  V30 END CTAB
M  END
