
     RDKit          3D

  0  0  0  0  0  0  0  0  0  0999 V3000
M  V30 BEGIN CTAB
M  V30 COUNTS 49 48 0 0 0
M  V30 BEGIN ATOM
M  V30 1 N -5.81262 1.42841 1.1969 0
M  V30 2 C -6.99414 0.777109 0.736892 0
M  V30 3 C -6.75012 0.100156 -0.595947 0
M  V30 4 C -5.70021 -0.951043 -0.561594 0
M  V30 5 N -4.38833 -0.44199 -0.176355 0
M  V30 6 C -3.44616 -1.53553 -0.0372178 0
M  V30 7 C -2.1023 -1.01433 0.371229 0
M  V30 8 C -1.55552 -0.109103 -0.679553 0
M  V30 9 C -0.187716 0.445008 -0.302009 0
M  V30 10 C 0.820401 -0.618471 -0.0505618 0
M  V30 11 C 2.14686 0.0615029 0.322457 0
M  V30 12 C 3.18621 -0.976745 0.632594 0
M  V30 13 N 4.43365 -0.380339 0.992063 0
M  V30 14 C 5.14928 0.27504 -0.0550296 0
M  V30 15 C 6.44723 0.783582 0.549209 0
M  V30 16 C 7.34457 1.4758 -0.426089 0
M  V30 17 N 7.74311 0.583235 -1.52013 0
M  V30 18 H -5.26214 0.869868 1.87076 0
M  V30 19 H -5.25147 1.90614 0.484894 0
M  V30 20 H -7.78854 1.53741 0.609992 0
M  V30 21 H -7.33499 -0.0107724 1.47769 0
M  V30 22 H -6.51712 0.897893 -1.33333 0
M  V30 23 H -7.7419 -0.325503 -0.914317 0
M  V30 24 H -5.95062 -1.82 0.0577998 0
M  V30 25 H -5.55743 -1.32566 -1.61195 0
M  V30 26 H -4.11716 0.251339 -0.902471 0
M  V30 27 H -3.34522 -2.00824 -1.04911 0
M  V30 28 H -3.84377 -2.29329 0.677987 0
M  V30 29 H -2.27741 -0.463581 1.34223 0
M  V30 30 H -1.39847 -1.83379 0.64462 0
M  V30 31 H -2.20541 0.800717 -0.736247 0
M  V30 32 H -1.5334 -0.554614 -1.67981 0
M  V30 33 H 0.161467 1.01855 -1.19425 0
M  V30 34 H -0.264333 1.12265 0.541887 0
M  V30 35 H 0.54506 -1.32805 0.768411 0
M  V30 36 H 1.05165 -1.23251 -0.952037 0
M  V30 37 H 1.92736 0.736671 1.14843 0
M  V30 38 H 2.42005 0.649699 -0.580605 0
M  V30 39 H 3.36009 -1.54594 -0.317407 0
M  V30 40 H 2.82384 -1.70819 1.38396 0
M  V30 41 H 4.3502 0.212491 1.85159 0
M  V30 42 H 4.59004 1.16634 -0.410539 0
M  V30 43 H 5.36847 -0.453706 -0.861907 0
M  V30 44 H 6.1692 1.52778 1.3261 0
M  V30 45 H 7.0194 -0.0461344 1.00802 0
M  V30 46 H 6.97754 2.44212 -0.78447 0
M  V30 47 H 8.30652 1.67081 0.122183 0
M  V30 48 H 7.09201 0.59156 -2.31702 0
M  V30 49 H 7.8923 -0.354348 -1.08218 0
M  V30 END ATOM
M  V30 BEGIN BOND
M  V30 1 1 1 2
M  V30 2 1 2 3
M  V30 3 1 3 4
M  V30 4 1 4 5
M  V30 5 1 5 6
M  V30 6 1 6 7
M  V30 7 1 7 8
M  V30 8 1 8 9
M  V30 9 1 9 10
M  V30 10 1 10 11
M  V30 11 1 11 12
M  V30 12 1 12 13
M  V30 13 1 13 14
M  V30 14 1 14 15
M  V30 15 1 15 16
M  V30 16 1 16 17
M  V30 17 1 1 18
M  V30 18 1 1 19
M  V30 19 1 2 20
M  V30 20 1 2 21
M  V30 21 1 3 22
M  V30 22 1 3 23
M  V30 23 1 4 24
M  V30 24 1 4 25
M  V30 25 1 5 26
M  V30 26 1 6 27
M  V30 27 1 6 28
M  V30 28 1 7 29
M  V30 29 1 7 30
M  V30 30 1 8 31
M  V30 31 1 8 32
M  V30 32 1 9 33
M  V30 33 1 9 34
M  V30 34 1 10 35
M  V30 35 1 10 36
M  V30 36 1 11 37
M  V30 37 1 11 38
M  V30 38 1 12 39
M  V30 39 1 12 40
M  V30 40 1 13 41
M  V30 41 1 14 42
M  V30 42 1 14 43
M  V30 43 1 15 44
M  V30 44 1 15 45
M  V30 45 1 16 46
M  V30 46 1 16 47
M  V30 47 1 17 48
M  V30 48 1 17 49
M  V30 END BOND
M  V30 END CTAB
M  END
