
     RDKit          3D

  0  0  0  0  0  0  0  0  0  0999 V3000
M  V30 BEGIN CTAB
M  V30 COUNTS 49 52 0 0 0
M  V30 BEGIN ATOM
M  V30 1 Cl -7.5234 0.663337 3.64691 0
M  V30 2 C -6.15153 0.53242 2.5572 0
M  V30 3 C -6.02896 -0.621008 1.81508 0
M  V30 4 C -4.95211 -0.716673 0.963743 0
M  V30 5 C -4.00769 0.279058 0.826786 0
M  V30 6 C -4.1439 1.4103 1.56648 0
M  V30 7 C -5.21345 1.53233 2.42731 0
M  V30 8 N -2.9222 0.0627149 -0.0990714 0
M  V30 9 C -3.05524 -0.154894 -1.42437 0
M  V30 10 C -4.36156 -0.204064 -2.13462 0
M  V30 11 C -1.82547 -0.322897 -2.01869 0
M  V30 12 C -0.897543 -0.197908 -0.983419 0
M  V30 13 C -1.60527 0.0376039 0.176782 0
M  V30 14 C -0.886675 0.195825 1.34052 0
M  V30 15 C 0.488265 0.118869 1.32953 0
M  V30 16 C 1.18323 -0.116618 0.1654 0
M  V30 17 C 0.476199 -0.279735 -1.02349 0
M  V30 18 O 2.56277 -0.186758 0.196085 0
M  V30 19 C 3.24786 -0.017106 1.41644 0
M  V30 20 C 4.71626 -0.146515 1.12668 0
M  V30 21 N 5.32307 -1.34187 1.18764 0
M  V30 22 C 6.64936 -1.48261 0.929687 0
M  V30 23 N 7.30721 -2.74098 0.989831 0
M  V30 24 N 7.32116 -0.360485 0.610168 0
M  V30 25 C 6.7612 0.851217 0.536728 0
M  V30 26 N 5.43904 0.93982 0.802059 0
M  V30 27 N 7.48138 2.03127 0.197828 0
M  V30 28 C -1.55648 -0.57699 -3.42964 0
M  V30 29 O -1.49985 -1.76841 -3.85314 0
M  V30 30 C -1.34027 0.496351 -4.42178 0
M  V30 31 H -6.71186 -1.4534 1.85064 0
M  V30 32 H -4.8322 -1.62747 0.360595 0
M  V30 33 H -3.43464 2.1974 1.48584 0
M  V30 34 H -5.37184 2.42348 3.04782 0
M  V30 35 H -5.07935 0.550818 -1.728 0
M  V30 36 H -4.21834 0.0673492 -3.20316 0
M  V30 37 H -4.86313 -1.18615 -2.02639 0
M  V30 38 H -1.41722 0.378714 2.24754 0
M  V30 39 H 1.07693 0.242866 2.24972 0
M  V30 40 H 1.01195 -0.464836 -1.94192 0
M  V30 41 H 3.08123 0.957695 1.88306 0
M  V30 42 H 2.92417 -0.810243 2.13051 0
M  V30 43 H 7.12032 -3.5071 0.318159 0
M  V30 44 H 8.01788 -2.87577 1.76823 0
M  V30 45 H 8.13018 2.01684 -0.61883 0
M  V30 46 H 7.32075 2.87045 0.796574 0
M  V30 47 H -2.13431 0.545332 -5.1954 0
M  V30 48 H -1.21621 1.48004 -3.8974 0
M  V30 49 H -0.389716 0.278391 -4.94826 0
M  V30 END ATOM
M  V30 BEGIN BOND
M  V30 1 1 1 2
M  V30 2 2 2 3
M  V30 3 1 3 4
M  V30 4 2 4 5
M  V30 5 1 5 6
M  V30 6 2 6 7
M  V30 7 1 5 8
M  V30 8 1 8 9
M  V30 9 1 9 10
M  V30 10 2 9 11
M  V30 11 1 11 12
M  V30 12 2 12 13
M  V30 13 1 13 14
M  V30 14 2 14 15
M  V30 15 1 15 16
M  V30 16 2 16 17
M  V30 17 1 16 18
M  V30 18 1 18 19
M  V30 19 1 19 20
M  V30 20 2 20 21
M  V30 21 1 21 22
M  V30 22 1 22 23
M  V30 23 2 22 24
M  V30 24 1 24 25
M  V30 25 2 25 26
M  V30 26 1 25 27
M  V30 27 1 11 28
M  V30 28 2 28 29
M  V30 29 1 28 30
M  V30 30 1 7 2
M  V30 31 1 13 8
M  V30 32 1 26 20
M  V30 33 1 17 12
M  V30 34 1 3 31
M  V30 35 1 4 32
M  V30 36 1 6 33
M  V30 37 1 7 34
M  V30 38 1 10 35
M  V30 39 1 10 36
M  V30 40 1 10 37
M  V30 41 1 14 38
M  V30 42 1 15 39
M  V30 43 1 17 40
M  V30 44 1 19 41
M  V30 45 1 19 42
M  V30 46 1 23 43
M  V30 47 1 23 44
M  V30 48 1 27 45
M  V30 49 1 27 46
M  V30 50 1 30 47
M  V30 51 1 30 48
M  V30 52 1 30 49
M  V30 END BOND
M  V30 END CTAB
M  END
