
     RDKit          3D

  0  0  0  0  0  0  0  0  0  0999 V3000
M  V30 BEGIN CTAB
M  V30 COUNTS 24 25 0 0 0
M  V30 BEGIN ATOM
M  V30 1 N 3.36186 -1.41172 -0.47668 0
M  V30 2 C 1.98917 -1.04748 -0.402282 0
M  V30 3 C 0.985022 -1.84369 -0.937071 0
M  V30 4 N -0.315309 -1.49843 -0.866458 0
M  V30 5 C -0.726384 -0.360737 -0.273833 0
M  V30 6 C 0.21711 0.469686 0.274295 0
M  V30 7 C 1.56619 0.123399 0.207647 0
M  V30 8 N 2.53247 0.996609 0.781619 0
M  V30 9 C -0.198518 1.64083 0.885053 0
M  V30 10 C -1.50783 2.02182 0.974642 0
M  V30 11 C -2.45617 1.1852 0.42263 0
M  V30 12 C -2.0613 0.0033065 -0.19602 0
M  V30 13 C -3.06512 -0.928514 -0.805975 0
M  V30 14 F -3.77499 1.51356 0.482132 0
M  V30 15 Br -2.08384 3.63242 1.8142 0
M  V30 16 H 3.96821 -1.00919 -1.2508 0
M  V30 17 H 3.83726 -2.05439 0.177106 0
M  V30 18 H 1.2879 -2.76189 -1.41803 0
M  V30 19 H 2.84477 1.88773 0.329878 0
M  V30 20 H 2.96411 0.737811 1.71708 0
M  V30 21 H 0.547683 2.28702 1.31269 0
M  V30 22 H -3.01616 -1.87777 -0.232904 0
M  V30 23 H -4.08541 -0.530803 -0.672063 0
M  V30 24 H -2.81073 -1.1748 -1.84686 0
M  V30 END ATOM
M  V30 BEGIN BOND
M  V30 1 1 1 2
M  V30 2 2 2 3
M  V30 3 1 3 4
M  V30 4 2 4 5
M  V30 5 1 5 6
M  V30 6 2 6 7
M  V30 7 1 7 8
M  V30 8 1 6 9
M  V30 9 2 9 10
M  V30 10 1 10 11
M  V30 11 2 11 12
M  V30 12 1 12 13
M  V30 13 1 11 14
M  V30 14 1 10 15
M  V30 15 1 7 2
M  V30 16 1 12 5
M  V30 17 1 1 16
M  V30 18 1 1 17
M  V30 19 1 3 18
M  V30 20 1 8 19
M  V30 21 1 8 20
M  V30 22 1 9 21
M  V30 23 1 13 22
M  V30 24 1 13 23
M  V30 25 1 13 24
M  V30 END BOND
M  V30 END CTAB
M  END
