
     RDKit          3D

  0  0  0  0  0  0  0  0  0  0999 V3000
M  V30 BEGIN CTAB
M  V30 COUNTS 38 40 0 0 0
M  V30 BEGIN ATOM
M  V30 1 N -6.91545 1.17016 0.138905 0
M  V30 2 C -5.50184 0.996436 0.167812 0
M  V30 3 C -4.7864 0.93932 -1.01155 0
M  V30 4 C -3.41455 0.770625 -0.980117 0
M  V30 5 C -2.71663 0.654465 0.211233 0
M  V30 6 O -1.35691 0.489893 0.140237 0
M  V30 7 C -0.687543 -0.695991 0.0701693 0
M  V30 8 C -1.38639 -1.88421 0.0661714 0
M  V30 9 C -0.687042 -3.08177 -0.00571178 0
M  V30 10 C 0.691299 -3.08805 -0.0725384 0
M  V30 11 C 1.36303 -1.88081 -0.0666287 0
M  V30 12 C 0.689196 -0.67976 0.00413291 0
M  V30 13 O 1.37075 0.543438 0.0100801 0
M  V30 14 C 2.72967 0.637565 -0.0525295 0
M  V30 15 C 3.46674 0.647556 1.09013 0
M  V30 16 C 4.84702 0.74358 1.01478 0
M  V30 17 C 5.4911 0.829613 -0.201675 0
M  V30 18 N 6.91512 0.92805 -0.261204 0
M  V30 19 C 4.7408 0.819276 -1.36013 0
M  V30 20 C 3.35115 0.722601 -1.2842 0
M  V30 21 C -3.43687 0.71257 1.37505 0
M  V30 22 C -4.8065 0.880335 1.36917 0
M  V30 23 H -7.26926 2.10199 -0.155568 0
M  V30 24 H -7.56367 0.413914 0.395937 0
M  V30 25 H -5.31391 1.02807 -1.94882 0
M  V30 26 H -2.87853 0.729741 -1.93765 0
M  V30 27 H -2.47635 -1.92459 0.117583 0
M  V30 28 H -1.2155 -4.0427 -0.0107259 0
M  V30 29 H 1.22929 -4.04166 -0.128868 0
M  V30 30 H 2.44491 -1.87592 -0.118771 0
M  V30 31 H 3.01115 0.582877 2.06036 0
M  V30 32 H 5.45026 0.753025 1.91367 0
M  V30 33 H 7.35887 1.30449 -1.11583 0
M  V30 34 H 7.50965 0.635646 0.520358 0
M  V30 35 H 5.24798 0.887132 -2.32127 0
M  V30 36 H 2.81869 0.719141 -2.21718 0
M  V30 37 H -2.92313 0.625833 2.29971 0
M  V30 38 H -5.39019 0.928123 2.28548 0
M  V30 END ATOM
M  V30 BEGIN BOND
M  V30 1 1 1 2
M  V30 2 2 2 3
M  V30 3 1 3 4
M  V30 4 2 4 5
M  V30 5 1 5 6
M  V30 6 1 6 7
M  V30 7 2 7 8
M  V30 8 1 8 9
M  V30 9 2 9 10
M  V30 10 1 10 11
M  V30 11 2 11 12
M  V30 12 1 12 13
M  V30 13 1 13 14
M  V30 14 2 14 15
M  V30 15 1 15 16
M  V30 16 2 16 17
M  V30 17 1 17 18
M  V30 18 1 17 19
M  V30 19 2 19 20
M  V30 20 1 5 21
M  V30 21 2 21 22
M  V30 22 1 22 2
M  V30 23 1 12 7
M  V30 24 1 20 14
M  V30 25 1 1 23
M  V30 26 1 1 24
M  V30 27 1 3 25
M  V30 28 1 4 26
M  V30 29 1 8 27
M  V30 30 1 9 28
M  V30 31 1 10 29
M  V30 32 1 11 30
M  V30 33 1 15 31
M  V30 34 1 16 32
M  V30 35 1 18 33
M  V30 36 1 18 34
M  V30 37 1 19 35
M  V30 38 1 20 36
M  V30 39 1 21 37
M  V30 40 1 22 38
M  V30 END BOND
M  V30 END CTAB
M  END
