
     RDKit          3D

  0  0  0  0  0  0  0  0  0  0999 V3000
M  V30 BEGIN CTAB
M  V30 COUNTS 19 19 0 0 0
M  V30 BEGIN ATOM
M  V30 1 N 3.00092 -0.760337 -0.328575 0
M  V30 2 C 1.69196 -0.209481 -0.180604 0
M  V30 3 C 0.622485 -1.07372 -0.150127 0
M  V30 4 C -0.635754 -0.54456 -0.0079143 0
M  V30 5 C -1.78257 -1.48082 0.0241041 0
M  V30 6 C -0.856598 0.800241 0.103175 0
M  V30 7 C 0.193634 1.68496 0.0757238 0
M  V30 8 C 1.47099 1.15014 -0.0684864 0
M  V30 9 Br -0.0634826 3.57675 0.227486 0
M  V30 10 N -2.15941 1.32894 0.249102 0
M  V30 11 H 3.3402 -1.41074 0.401597 0
M  V30 12 H 3.60381 -0.522293 -1.14125 0
M  V30 13 H 0.76813 -2.14425 -0.236026 0
M  V30 14 H -2.74114 -0.925394 0.00820553 0
M  V30 15 H -1.76087 -2.13899 0.93971 0
M  V30 16 H -1.7551 -2.17827 -0.840007 0
M  V30 17 H 2.33657 1.80704 -0.0960912 0
M  V30 18 H -2.70498 1.66882 -0.558437 0
M  V30 19 H -2.5688 1.37196 1.19753 0
M  V30 END ATOM
M  V30 BEGIN BOND
M  V30 1 1 1 2
M  V30 2 2 2 3
M  V30 3 1 3 4
M  V30 4 1 4 5
M  V30 5 2 4 6
M  V30 6 1 6 7
M  V30 7 2 7 8
M  V30 8 1 7 9
M  V30 9 1 6 10
M  V30 10 1 8 2
M  V30 11 1 1 11
M  V30 12 1 1 12
M  V30 13 1 3 13
M  V30 14 1 5 14
M  V30 15 1 5 15
M  V30 16 1 5 16
M  V30 17 1 8 17
M  V30 18 1 10 18
M  V30 19 1 10 19
M  V30 END BOND
M  V30 END CTAB
M  END
