
     RDKit          3D

  0  0  0  0  0  0  0  0  0  0999 V3000
M  V30 BEGIN CTAB
M  V30 COUNTS 52 57 0 0 0
M  V30 BEGIN ATOM
M  V30 1 N 1.44729 -4.69938 -0.869845 0
M  V30 2 C 2.28041 -3.57942 -0.70705 0
M  V30 3 C 1.75036 -2.31746 -0.869307 0
M  V30 4 S 0.0597426 -2.14711 -1.30574 0
M  V30 5 S -1.073 -2.38078 0.456846 0
M  V30 6 C -1.32028 -0.833715 1.21023 0
M  V30 7 C -0.452972 -0.331501 2.1559 0
M  V30 8 N 0.662227 -1.13367 2.51602 0
M  V30 9 C -0.690008 0.880447 2.71649 0
M  V30 10 C -1.79291 1.63545 2.36083 0
M  V30 11 C -2.66616 1.13233 1.41073 0
M  V30 12 C -2.45421 -0.10565 0.815052 0
M  V30 13 C -3.386 -0.611918 -0.177675 0
M  V30 14 O -3.1764 -1.7232 -0.699583 0
M  V30 15 C -4.55072 0.153725 -0.568893 0
M  V30 16 C -5.46769 -0.28637 -1.5122 0
M  V30 17 C -6.56188 0.463017 -1.86178 0
M  V30 18 C -6.80678 1.68746 -1.29821 0
M  V30 19 C -5.88708 2.15066 -0.339236 0
M  V30 20 C -4.79714 1.38088 -0.004693 0
M  V30 21 C -3.85096 1.88212 0.995187 0
M  V30 22 O -4.07932 3.0028 1.50872 0
M  V30 23 C 2.58439 -1.24763 -0.709176 0
M  V30 24 C 3.93521 -1.42457 -0.385911 0
M  V30 25 C 4.43056 -2.69807 -0.228804 0
M  V30 26 C 3.61151 -3.78443 -0.388184 0
M  V30 27 C 4.83381 -0.290716 -0.243584 0
M  V30 28 O 6.03707 -0.440633 0.0472047 0
M  V30 29 C 4.30296 1.05428 -0.448185 0
M  V30 30 C 5.1367 2.15711 -0.323241 0
M  V30 31 C 4.62947 3.43135 -0.522917 0
M  V30 32 C 3.30703 3.65257 -0.846162 0
M  V30 33 C 2.48504 2.55163 -0.968239 0
M  V30 34 C 2.98393 1.26066 -0.769453 0
M  V30 35 C 2.10935 0.0916875 -0.902898 0
M  V30 36 O 0.921879 0.303124 -1.19932 0
M  V30 37 H 1.04226 -5.16031 -0.0411233 0
M  V30 38 H 1.24513 -5.05186 -1.815 0
M  V30 39 H 1.4409 -0.666973 3.029 0
M  V30 40 H 0.737167 -2.12878 2.30124 0
M  V30 41 H -0.0180898 1.30733 3.47357 0
M  V30 42 H -2.02814 2.60732 2.7764 0
M  V30 43 H -5.3046 -1.23514 -1.96925 0
M  V30 44 H -7.26732 0.0864985 -2.61021 0
M  V30 45 H -7.64555 2.30474 -1.53955 0
M  V30 46 H -6.06092 3.09577 0.109654 0
M  V30 47 H 5.47088 -2.81613 0.0213598 0
M  V30 48 H 4.0569 -4.7569 -0.253714 0
M  V30 49 H 6.18242 1.98942 -0.0680017 0
M  V30 50 H 5.28092 4.3001 -0.426524 0
M  V30 51 H 2.92115 4.6539 -1.00097 0
M  V30 52 H 1.45146 2.63594 -1.21616 0
M  V30 END ATOM
M  V30 BEGIN BOND
M  V30 1 1 1 2
M  V30 2 2 2 3
M  V30 3 1 3 4
M  V30 4 1 4 5
M  V30 5 1 5 6
M  V30 6 2 6 7
M  V30 7 1 7 8
M  V30 8 1 7 9
M  V30 9 2 9 10
M  V30 10 1 10 11
M  V30 11 2 11 12
M  V30 12 1 12 13
M  V30 13 2 13 14
M  V30 14 1 13 15
M  V30 15 2 15 16
M  V30 16 1 16 17
M  V30 17 2 17 18
M  V30 18 1 18 19
M  V30 19 2 19 20
M  V30 20 1 20 21
M  V30 21 2 21 22
M  V30 22 1 3 23
M  V30 23 2 23 24
M  V30 24 1 24 25
M  V30 25 2 25 26
M  V30 26 1 24 27
M  V30 27 2 27 28
M  V30 28 1 27 29
M  V30 29 2 29 30
M  V30 30 1 30 31
M  V30 31 2 31 32
M  V30 32 1 32 33
M  V30 33 2 33 34
M  V30 34 1 34 35
M  V30 35 2 35 36
M  V30 36 1 26 2
M  V30 37 1 34 29
M  V30 38 1 12 6
M  V30 39 1 20 15
M  V30 40 1 35 23
M  V30 41 1 21 11
M  V30 42 1 1 37
M  V30 43 1 1 38
M  V30 44 1 8 39
M  V30 45 1 8 40
M  V30 46 1 9 41
M  V30 47 1 10 42
M  V30 48 1 16 43
M  V30 49 1 17 44
M  V30 50 1 18 45
M  V30 51 1 19 46
M  V30 52 1 25 47
M  V30 53 1 26 48
M  V30 54 1 30 49
M  V30 55 1 31 50
M  V30 56 1 32 51
M  V30 57 1 33 52
M  V30 END BOND
M  V30 END CTAB
M  END
