
     RDKit          3D

  0  0  0  0  0  0  0  0  0  0999 V3000
M  V30 BEGIN CTAB
M  V30 COUNTS 36 37 0 0 0
M  V30 BEGIN ATOM
M  V30 1 C 1.56027 -1.46476 -2.29292 0
M  V30 2 O 0.88964 -1.41309 -1.0015 0
M  V30 3 C 1.03942 -0.262498 -0.227514 0
M  V30 4 C 0.135673 0.734162 -0.228832 0
M  V30 5 C 0.432629 1.84635 0.592054 0
M  V30 6 C 1.55448 1.94683 1.36064 0
M  V30 7 C 2.4565 0.904393 1.33972 0
M  V30 8 C 2.20871 -0.2052 0.548965 0
M  V30 9 O 3.11939 -1.24912 0.532618 0
M  V30 10 C 4.29787 -1.20263 1.3089 0
M  V30 11 C -1.17423 0.782134 -0.908511 0
M  V30 12 C -2.12597 1.48874 0.0416191 0
M  V30 13 C -2.48023 0.910509 1.16774 0
M  V30 14 N -3.34469 1.48692 2.1054 0
M  V30 15 S -1.80328 -0.781878 1.3799 0
M  V30 16 C -2.10329 -1.43099 -0.305203 0
M  V30 17 C -1.75509 -0.562975 -1.23853 0
M  V30 18 C -2.03936 -0.937451 -2.59367 0
M  V30 19 N -2.26358 -1.24538 -3.69764 0
M  V30 20 N -2.63904 -2.70242 -0.480364 0
M  V30 21 C -2.65333 2.77623 -0.310124 0
M  V30 22 N -3.05677 3.80965 -0.601279 0
M  V30 23 H 1.01318 -2.25053 -2.8526 0
M  V30 24 H 1.4602 -0.462215 -2.71166 0
M  V30 25 H 2.60004 -1.80668 -2.1449 0
M  V30 26 H -0.25907 2.68421 0.625087 0
M  V30 27 H 1.73393 2.81534 1.96845 0
M  V30 28 H 3.35113 0.9652 1.94359 0
M  V30 29 H 4.83077 -0.225056 1.19655 0
M  V30 30 H 4.10637 -1.33097 2.39196 0
M  V30 31 H 5.01931 -1.97364 0.97417 0
M  V30 32 H -1.08861 1.38916 -1.80311 0
M  V30 33 H -4.36189 1.6049 2.01246 0
M  V30 34 H -2.91955 1.84129 3.00618 0
M  V30 35 H -2.30219 -3.39746 -1.20527 0
M  V30 36 H -3.43934 -3.08108 0.107639 0
M  V30 END ATOM
M  V30 BEGIN BOND
M  V30 1 1 1 2
M  V30 2 1 2 3
M  V30 3 2 3 4
M  V30 4 1 4 5
M  V30 5 2 5 6
M  V30 6 1 6 7
M  V30 7 2 7 8
M  V30 8 1 8 9
M  V30 9 1 9 10
M  V30 10 1 4 11
M  V30 11 1 11 12
M  V30 12 2 12 13
M  V30 13 1 13 14
M  V30 14 1 13 15
M  V30 15 1 15 16
M  V30 16 2 16 17
M  V30 17 1 17 18
M  V30 18 3 18 19
M  V30 19 1 16 20
M  V30 20 1 12 21
M  V30 21 3 21 22
M  V30 22 1 8 3
M  V30 23 1 17 11
M  V30 24 1 1 23
M  V30 25 1 1 24
M  V30 26 1 1 25
M  V30 27 1 5 26
M  V30 28 1 6 27
M  V30 29 1 7 28
M  V30 30 1 10 29
M  V30 31 1 10 30
M  V30 32 1 10 31
M  V30 33 1 11 32
M  V30 34 1 14 33
M  V30 35 1 14 34
M  V30 36 1 20 35
M  V30 37 1 20 36
M  V30 END BOND
M  V30 END CTAB
M  END
