
     RDKit          3D

  0  0  0  0  0  0  0  0  0  0999 V3000
M  V30 BEGIN CTAB
M  V30 COUNTS 38 37 0 0 0
M  V30 BEGIN ATOM
M  V30 1 N 2.44041 -3.18066 -1.95276 0
M  V30 2 C 1.56033 -2.05812 -1.70596 0
M  V30 3 C 1.59224 -1.76247 -0.250757 0
M  V30 4 N 0.65823 -0.566093 0.0368188 0
M  V30 5 C -0.626876 -1.00609 0.335152 0
M  V30 6 S -0.806259 -2.71222 0.192501 0
M  V30 7 N -1.83563 -0.411642 0.737263 0
M  V30 8 C -3.06326 -1.09726 0.965941 0
M  V30 9 O -4.0637 -0.314968 1.32324 0
M  V30 10 C -3.34278 -2.50317 0.858535 0
M  V30 11 C -1.97772 1.03755 1.01668 0
M  V30 12 C -2.46711 1.79752 -0.182728 0
M  V30 13 N -2.59934 3.21102 0.10895 0
M  V30 14 C 1.32561 0.63882 -0.0537648 0
M  V30 15 O 0.892286 1.77646 0.0922455 0
M  V30 16 O 2.73563 0.66169 -0.359483 0
M  V30 17 C 3.42096 1.90661 -0.451732 0
M  V30 18 C 3.37265 2.6958 0.808179 0
M  V30 19 H 2.39701 -3.89768 -1.20996 0
M  V30 20 H 2.22999 -3.64929 -2.86242 0
M  V30 21 H 0.574766 -2.31562 -2.11426 0
M  V30 22 H 1.91103 -1.16641 -2.26973 0
M  V30 23 H 1.36099 -2.56399 0.435224 0
M  V30 24 H 2.58266 -1.37106 0.0191655 0
M  V30 25 H -4.47727 -2.64587 1.07864 0
M  V30 26 H -2.81974 -3.17121 1.5805 0
M  V30 27 H -3.25892 -2.91023 -0.151238 0
M  V30 28 H -1.16321 1.48818 1.53279 0
M  V30 29 H -2.85497 1.10104 1.76199 0
M  V30 30 H -3.45219 1.44288 -0.543364 0
M  V30 31 H -1.77863 1.72012 -1.04894 0
M  V30 32 H -2.57074 3.31225 1.14119 0
M  V30 33 H -3.5199 3.58434 -0.211415 0
M  V30 34 H 3.00113 2.47241 -1.30949 0
M  V30 35 H 4.4608 1.64708 -0.736225 0
M  V30 36 H 4.40918 2.94086 1.11747 0
M  V30 37 H 2.87766 3.69292 0.622791 0
M  V30 38 H 2.87465 2.17649 1.64895 0
M  V30 END ATOM
M  V30 BEGIN BOND
M  V30 1 1 1 2
M  V30 2 1 2 3
M  V30 3 1 3 4
M  V30 4 1 4 5
M  V30 5 2 5 6
M  V30 6 1 5 7
M  V30 7 1 7 8
M  V30 8 2 8 9
M  V30 9 1 8 10
M  V30 10 1 7 11
M  V30 11 1 11 12
M  V30 12 1 12 13
M  V30 13 1 4 14
M  V30 14 2 14 15
M  V30 15 1 14 16
M  V30 16 1 16 17
M  V30 17 1 17 18
M  V30 18 1 1 19
M  V30 19 1 1 20
M  V30 20 1 2 21
M  V30 21 1 2 22
M  V30 22 1 3 23
M  V30 23 1 3 24
M  V30 24 1 10 25
M  V30 25 1 10 26
M  V30 26 1 10 27
M  V30 27 1 11 28
M  V30 28 1 11 29
M  V30 29 1 12 30
M  V30 30 1 12 31
M  V30 31 1 13 32
M  V30 32 1 13 33
M  V30 33 1 17 34
M  V30 34 1 17 35
M  V30 35 1 18 36
M  V30 36 1 18 37
M  V30 37 1 18 38
M  V30 END BOND
M  V30 END CTAB
M  END
