
     RDKit          3D

  0  0  0  0  0  0  0  0  0  0999 V3000
M  V30 BEGIN CTAB
M  V30 COUNTS 29 30 0 0 0
M  V30 BEGIN ATOM
M  V30 1 C -0.718832 0.521805 1.66392 0
M  V30 2 C -0.737319 -0.0174692 0.253931 0
M  V30 3 C -1.11557 1.08993 -0.698372 0
M  V30 4 C -2.61419 0.980271 -0.916466 0
M  V30 5 C -3.0721 -0.097935 0.0409951 0
M  V30 6 C -1.85141 -1.01933 0.0468669 0
M  V30 7 C 0.564161 -0.641175 -0.0838386 0
M  V30 8 N 0.788951 -1.92012 -0.442625 0
M  V30 9 C 2.08598 -2.09319 -0.664203 0
M  V30 10 N 2.74409 -0.956325 -0.462466 0
M  V30 11 C 1.80099 -0.0385482 -0.0982039 0
M  V30 12 N 2.09218 1.31826 0.210092 0
M  V30 13 N 4.10839 -0.675541 -0.576818 0
M  V30 14 H -1.17088 1.53408 1.68446 0
M  V30 15 H -1.25203 -0.186467 2.33707 0
M  V30 16 H 0.335756 0.603522 1.97851 0
M  V30 17 H -0.838701 2.08973 -0.305651 0
M  V30 18 H -0.567929 0.94419 -1.65385 0
M  V30 19 H -2.8358 0.601635 -1.94118 0
M  V30 20 H -3.10856 1.95516 -0.721892 0
M  V30 21 H -3.20372 0.355551 1.06299 0
M  V30 22 H -3.97629 -0.612592 -0.295546 0
M  V30 23 H -1.91205 -1.76956 0.840916 0
M  V30 24 H -1.76366 -1.42216 -0.962833 0
M  V30 25 H 2.57994 -3.02388 -0.970416 0
M  V30 26 H 2.01752 2.05231 -0.519165 0
M  V30 27 H 2.38733 1.57253 1.1962 0
M  V30 28 H 4.50783 -0.642713 -1.53717 0
M  V30 29 H 4.72595 -0.501965 0.243804 0
M  V30 END ATOM
M  V30 BEGIN BOND
M  V30 1 1 1 2
M  V30 2 1 2 3
M  V30 3 1 3 4
M  V30 4 1 4 5
M  V30 5 1 5 6
M  V30 6 1 2 7
M  V30 7 1 7 8
M  V30 8 2 8 9
M  V30 9 1 9 10
M  V30 10 1 10 11
M  V30 11 1 11 12
M  V30 12 1 10 13
M  V30 13 1 6 2
M  V30 14 2 11 7
M  V30 15 1 1 14
M  V30 16 1 1 15
M  V30 17 1 1 16
M  V30 18 1 3 17
M  V30 19 1 3 18
M  V30 20 1 4 19
M  V30 21 1 4 20
M  V30 22 1 5 21
M  V30 23 1 5 22
M  V30 24 1 6 23
M  V30 25 1 6 24
M  V30 26 1 9 25
M  V30 27 1 12 26
M  V30 28 1 12 27
M  V30 29 1 13 28
M  V30 30 1 13 29
M  V30 END BOND
M  V30 END CTAB
M  END
