
     RDKit          3D

  0  0  0  0  0  0  0  0  0  0999 V3000
M  V30 BEGIN CTAB
M  V30 COUNTS 24 24 0 0 0
M  V30 BEGIN ATOM
M  V30 1 N 4.18355 -0.737834 0.717982 0
M  V30 2 C 2.91267 -0.683497 0.175699 0
M  V30 3 C 2.24754 0.686592 0.281561 0
M  V30 4 N 0.932137 0.658818 -0.303967 0
M  V30 5 N 0.665337 0.920832 -1.56105 0
M  V30 6 N -0.631101 0.818717 -1.82019 0
M  V30 7 C -1.24539 0.474414 -0.68439 0
M  V30 8 C -0.259917 0.373505 0.271932 0
M  V30 9 C -2.69595 0.255031 -0.527255 0 CFG=2
M  V30 10 N -3.14936 0.926423 0.697271 0
M  V30 11 C -3.03795 -1.2215 -0.458394 0
M  V30 12 H 4.91248 -0.467425 0.134534 0
M  V30 13 H 4.2949 -1.17092 1.57271 0
M  V30 14 H 2.94558 -0.936533 -0.923375 0
M  V30 15 H 2.22607 -1.39841 0.664272 0
M  V30 16 H 2.89951 1.38306 -0.292092 0
M  V30 17 H 2.25963 1.03542 1.33108 0
M  V30 18 H -0.366066 0.116833 1.30699 0
M  V30 19 H -3.2522 0.668582 -1.38762 0
M  V30 20 H -3.98017 1.5231 0.51072 0
M  V30 21 H -2.40428 1.49763 1.11963 0
M  V30 22 H -3.04206 -1.66513 -1.4734 0
M  V30 23 H -4.06866 -1.28553 -0.0513581 0
M  V30 24 H -2.34631 -1.77216 0.210456 0
M  V30 END ATOM
M  V30 BEGIN BOND
M  V30 1 1 1 2
M  V30 2 1 2 3
M  V30 3 1 3 4
M  V30 4 1 4 5
M  V30 5 2 5 6
M  V30 6 1 6 7
M  V30 7 2 7 8
M  V30 8 1 7 9
M  V30 9 1 9 10
M  V30 10 1 9 11
M  V30 11 1 8 4
M  V30 12 1 1 12
M  V30 13 1 1 13
M  V30 14 1 2 14
M  V30 15 1 2 15
M  V30 16 1 3 16
M  V30 17 1 3 17
M  V30 18 1 8 18
M  V30 19 1 9 19 CFG=3
M  V30 20 1 10 20
M  V30 21 1 10 21
M  V30 22 1 11 22
M  V30 23 1 11 23
M  V30 24 1 11 24
M  V30 END BOND
M  V30 END CTAB
M  END
