
     RDKit          3D

  0  0  0  0  0  0  0  0  0  0999 V3000
M  V30 BEGIN CTAB
M  V30 COUNTS 40 39 0 0 0
M  V30 BEGIN ATOM
M  V30 1 N -3.11864 -3.00185 0.0903708 0
M  V30 2 C -1.76202 -3.40267 -0.156551 0
M  V30 3 C -1.00377 -2.38669 -0.976216 0
M  V30 4 C -0.996641 -1.07973 -0.191287 0
M  V30 5 N -0.304202 -0.0518656 -0.897048 0
M  V30 6 C 1.12274 -0.263679 -1.0294 0
M  V30 7 C 1.86561 -0.116189 0.259553 0
M  V30 8 N 3.28517 -0.345223 0.0510954 0
M  V30 9 C 3.89929 0.69036 -0.776568 0
M  V30 10 C 3.91006 -0.271407 1.37278 0
M  V30 11 C -0.480414 1.22187 -0.288645 0
M  V30 12 C -1.885 1.71016 -0.47204 0
M  V30 13 C -2.06703 3.08871 0.160426 0
M  V30 14 N -3.4119 3.50593 -0.0621676 0
M  V30 15 H -3.51423 -2.37963 -0.645364 0
M  V30 16 H -3.74601 -3.82843 0.273479 0
M  V30 17 H -1.77425 -4.36702 -0.707682 0
M  V30 18 H -1.22166 -3.59347 0.813435 0
M  V30 19 H 0.00693048 -2.78024 -1.16808 0
M  V30 20 H -1.51669 -2.27082 -1.95322 0
M  V30 21 H -2.06282 -0.804725 -0.112545 0
M  V30 22 H -0.637216 -1.27482 0.837401 0
M  V30 23 H 1.38334 -1.24795 -1.46642 0
M  V30 24 H 1.4934 0.51043 -1.72617 0
M  V30 25 H 1.54683 -0.812739 1.05626 0
M  V30 26 H 1.76743 0.906456 0.684551 0
M  V30 27 H 4.98089 0.71624 -0.482584 0
M  V30 28 H 3.88242 0.401421 -1.85154 0
M  V30 29 H 3.51771 1.69692 -0.578432 0
M  V30 30 H 3.6058 -1.13159 1.96315 0
M  V30 31 H 5.00324 -0.200854 1.21407 0
M  V30 32 H 3.54618 0.65502 1.87056 0
M  V30 33 H -0.239851 1.20233 0.812653 0
M  V30 34 H 0.186077 1.95995 -0.809704 0
M  V30 35 H -2.06341 1.84431 -1.56225 0
M  V30 36 H -2.57857 1.02921 0.0241978 0
M  V30 37 H -1.37503 3.81144 -0.304691 0
M  V30 38 H -1.81166 2.97816 1.23679 0
M  V30 39 H -3.6264 4.49346 0.186763 0
M  V30 40 H -3.80571 3.18918 -0.972767 0
M  V30 END ATOM
M  V30 BEGIN BOND
M  V30 1 1 1 2
M  V30 2 1 2 3
M  V30 3 1 3 4
M  V30 4 1 4 5
M  V30 5 1 5 6
M  V30 6 1 6 7
M  V30 7 1 7 8
M  V30 8 1 8 9
M  V30 9 1 8 10
M  V30 10 1 5 11
M  V30 11 1 11 12
M  V30 12 1 12 13
M  V30 13 1 13 14
M  V30 14 1 1 15
M  V30 15 1 1 16
M  V30 16 1 2 17
M  V30 17 1 2 18
M  V30 18 1 3 19
M  V30 19 1 3 20
M  V30 20 1 4 21
M  V30 21 1 4 22
M  V30 22 1 6 23
M  V30 23 1 6 24
M  V30 24 1 7 25
M  V30 25 1 7 26
M  V30 26 1 9 27
M  V30 27 1 9 28
M  V30 28 1 9 29
M  V30 29 1 10 30
M  V30 30 1 10 31
M  V30 31 1 10 32
M  V30 32 1 11 33
M  V30 33 1 11 34
M  V30 34 1 12 35
M  V30 35 1 12 36
M  V30 36 1 13 37
M  V30 37 1 13 38
M  V30 38 1 14 39
M  V30 39 1 14 40
M  V30 END BOND
M  V30 END CTAB
M  END
