
     RDKit          3D

  0  0  0  0  0  0  0  0  0  0999 V3000
M  V30 BEGIN CTAB
M  V30 COUNTS 103 106 0 0 0
M  V30 BEGIN ATOM
M  V30 1 C -1.54973 -0.330939 -2.43004 0
M  V30 2 N -1.7828 -0.673713 -1.0036 0
M  V30 3 C -1.55833 0.304785 0.0288943 0 CFG=2
M  V30 4 C -2.72362 0.752823 0.7629 0
M  V30 5 C -3.89866 1.43313 0.27959 0
M  V30 6 C -4.77337 0.717854 -0.700005 0
M  V30 7 N -5.92964 1.52028 -1.07221 0
M  V30 8 C -5.76341 2.68466 -1.82777 0
M  V30 9 N -6.72453 3.71143 -1.73956 0
M  V30 10 N -4.72507 2.79131 -2.59299 0
M  V30 11 C -0.630882 1.37789 -0.43647 0
M  V30 12 O -1.17285 2.19466 -1.26807 0
M  V30 13 N 0.70163 1.61904 -0.114831 0
M  V30 14 C 1.35101 1.95307 1.12195 0 CFG=1
M  V30 15 C 0.487319 2.43472 2.22931 0
M  V30 16 C -0.297717 3.68143 1.93725 0
M  V30 17 C 0.598972 4.8288 1.59183 0
M  V30 18 N -0.14005 6.04431 1.32065 0
M  V30 19 C 0.600582 7.19889 0.973436 0
M  V30 20 N 0.0412585 8.48684 1.15958 0
M  V30 21 N 1.78327 7.10257 0.486366 0
M  V30 22 C 2.27878 0.927379 1.64626 0
M  V30 23 O 2.39104 0.887834 2.91655 0
M  V30 24 N 3.04726 0.000348435 0.928932 0
M  V30 25 C 2.57999 -0.999379 -0.00221862 0 CFG=1
M  V30 26 C 3.30254 -0.933028 -1.30233 0
M  V30 27 C 4.74243 -1.13382 -1.26367 0
M  V30 28 C 5.62181 -0.0866243 -1.12203 0
M  V30 29 C 7.00454 -0.298529 -1.09017 0
M  V30 30 C 7.49553 -1.60397 -1.20523 0
M  V30 31 C 8.83753 -1.84482 -1.18082 0
M  V30 32 C 9.72699 -0.8047 -1.04153 0
M  V30 33 C 9.24522 0.485178 -0.927648 0
M  V30 34 C 7.91039 0.730573 -0.952017 0
M  V30 35 C 6.62631 -2.64818 -1.34682 0
M  V30 36 C 5.27548 -2.39349 -1.37263 0
M  V30 37 C 2.76466 -2.36615 0.570892 0
M  V30 38 O 3.65125 -2.48485 1.45949 0
M  V30 39 N 1.97811 -3.42692 0.120304 0
M  V30 40 C 1.13722 -3.43568 -1.04261 0
M  V30 41 C 0.0337392 -4.43499 -0.888609 0
M  V30 42 O 0.279664 -5.63396 -1.181 0
M  V30 43 N -1.25256 -4.11262 -0.438163 0
M  V30 44 C -1.56393 -2.8843 0.336112 0 CFG=2
M  V30 45 C -2.33852 -3.19544 1.55226 0
M  V30 46 C -3.64472 -3.84208 1.37339 0
M  V30 47 C -3.82336 -5.20749 1.30632 0
M  V30 48 C -5.06557 -5.78668 1.15001 0
M  V30 49 C -6.19828 -5.01363 1.05252 0
M  V30 50 O -7.47083 -5.59402 0.893595 0
M  V30 51 C -6.04854 -3.64457 1.11593 0
M  V30 52 C -4.78918 -3.07726 1.27406 0
M  V30 53 C -2.19021 -1.98851 -0.662004 0
M  V30 54 O -3.20787 -2.4661 -1.28121 0
M  V30 55 H -0.468045 -0.237306 -2.62611 0
M  V30 56 H -1.92727 -1.14755 -3.06841 0
M  V30 57 H -2.15376 0.542722 -2.74316 0
M  V30 58 H -0.932993 -0.279023 0.798111 0
M  V30 59 H -3.11629 -0.191535 1.31539 0
M  V30 60 H -2.36287 1.33261 1.6964 0
M  V30 61 H -4.60863 1.59913 1.1699 0
M  V30 62 H -3.73994 2.50924 -0.0280494 0
M  V30 63 H -4.26631 0.428464 -1.61409 0
M  V30 64 H -5.11994 -0.243942 -0.220203 0
M  V30 65 H -6.86064 1.20895 -0.768026 0
M  V30 66 H -6.95114 4.27448 -2.57287 0
M  V30 67 H -7.19823 3.89544 -0.844227 0
M  V30 68 H -4.50203 3.59339 -3.18655 0
M  V30 69 H 1.43626 1.57453 -0.915934 0
M  V30 70 H 2.04757 2.85278 0.928134 0
M  V30 71 H 1.19889 2.7358 3.06035 0
M  V30 72 H -0.12249 1.64425 2.70729 0
M  V30 73 H -0.761848 3.96609 2.9408 0
M  V30 74 H -1.13476 3.55162 1.23928 0
M  V30 75 H 1.36157 5.03874 2.3603 0
M  V30 76 H 1.16634 4.60595 0.640239 0
M  V30 77 H -1.15922 6.09345 1.37037 0
M  V30 78 H -0.77841 8.62147 1.80362 0
M  V30 79 H 0.413833 9.32772 0.675694 0
M  V30 80 H 2.35909 7.9181 0.218697 0
M  V30 81 H 4.10786 0.00368102 1.07135 0
M  V30 82 H 1.49625 -0.908902 -0.197628 0
M  V30 83 H 2.88948 -1.6477 -2.05677 0
M  V30 84 H 3.07837 0.0763636 -1.75804 0
M  V30 85 H 5.30137 0.934031 -1.02961 0
M  V30 86 H 9.21008 -2.86081 -1.26925 0
M  V30 87 H 10.8095 -0.976438 -1.01822 0
M  V30 88 H 9.92639 1.30392 -0.820727 0
M  V30 89 H 7.48076 1.73884 -0.864647 0
M  V30 90 H 7.01859 -3.64769 -1.43526 0
M  V30 91 H 4.60578 -3.22659 -1.48334 0
M  V30 92 H 2.00201 -4.3205 0.69612 0
M  V30 93 H 1.76422 -3.77236 -1.9027 0
M  V30 94 H 0.752552 -2.43971 -1.30517 0
M  V30 95 H -2.07544 -4.73036 -0.628463 0
M  V30 96 H -0.56124 -2.5271 0.663338 0
M  V30 97 H -1.65707 -3.85339 2.19011 0
M  V30 98 H -2.4128 -2.27088 2.18381 0
M  V30 99 H -2.94916 -5.87011 1.3787 0
M  V30 100 H -5.16765 -6.85797 1.10079 0
M  V30 101 H -8.04463 -5.84315 1.68343 0
M  V30 102 H -6.94271 -3.04134 1.03891 0
M  V30 103 H -4.68153 -2.00079 1.32425 0
M  V30 END ATOM
M  V30 BEGIN BOND
M  V30 1 1 1 2
M  V30 2 1 2 3
M  V30 3 1 3 4
M  V30 4 1 4 5
M  V30 5 1 5 6
M  V30 6 1 6 7
M  V30 7 1 7 8
M  V30 8 1 8 9
M  V30 9 2 8 10 CFG=2
M  V30 10 1 3 11
M  V30 11 2 11 12
M  V30 12 1 11 13
M  V30 13 1 13 14
M  V30 14 1 14 15
M  V30 15 1 15 16
M  V30 16 1 16 17
M  V30 17 1 17 18
M  V30 18 1 18 19
M  V30 19 1 19 20
M  V30 20 2 19 21 CFG=2
M  V30 21 1 14 22
M  V30 22 2 22 23
M  V30 23 1 22 24
M  V30 24 1 24 25
M  V30 25 1 25 26
M  V30 26 1 26 27
M  V30 27 2 27 28
M  V30 28 1 28 29
M  V30 29 2 29 30
M  V30 30 1 30 31
M  V30 31 2 31 32
M  V30 32 1 32 33
M  V30 33 2 33 34
M  V30 34 1 30 35
M  V30 35 2 35 36
M  V30 36 1 25 37
M  V30 37 2 37 38
M  V30 38 1 37 39
M  V30 39 1 39 40
M  V30 40 1 40 41
M  V30 41 2 41 42
M  V30 42 1 41 43
M  V30 43 1 43 44
M  V30 44 1 44 45
M  V30 45 1 45 46
M  V30 46 2 46 47
M  V30 47 1 47 48
M  V30 48 2 48 49
M  V30 49 1 49 50
M  V30 50 1 49 51
M  V30 51 2 51 52
M  V30 52 1 44 53
M  V30 53 2 53 54
M  V30 54 1 53 2
M  V30 55 1 36 27
M  V30 56 1 52 46
M  V30 57 1 34 29
M  V30 58 1 1 55
M  V30 59 1 1 56
M  V30 60 1 1 57
M  V30 61 1 3 58 CFG=1
M  V30 62 1 4 59
M  V30 63 1 4 60
M  V30 64 1 5 61
M  V30 65 1 5 62
M  V30 66 1 6 63
M  V30 67 1 6 64
M  V30 68 1 7 65
M  V30 69 1 9 66
M  V30 70 1 9 67
M  V30 71 1 10 68
M  V30 72 1 13 69
M  V30 73 1 14 70 CFG=3
M  V30 74 1 15 71
M  V30 75 1 15 72
M  V30 76 1 16 73
M  V30 77 1 16 74
M  V30 78 1 17 75
M  V30 79 1 17 76
M  V30 80 1 18 77
M  V30 81 1 20 78
M  V30 82 1 20 79
M  V30 83 1 21 80
M  V30 84 1 24 81
M  V30 85 1 25 82 CFG=3
M  V30 86 1 26 83
M  V30 87 1 26 84
M  V30 88 1 28 85
M  V30 89 1 31 86
M  V30 90 1 32 87
M  V30 91 1 33 88
M  V30 92 1 34 89
M  V30 93 1 35 90
M  V30 94 1 36 91
M  V30 95 1 39 92
M  V30 96 1 40 93
M  V30 97 1 40 94
M  V30 98 1 43 95
M  V30 99 1 44 96 CFG=1
M  V30 100 1 45 97
M  V30 101 1 45 98
M  V30 102 1 47 99
M  V30 103 1 48 100
M  V30 104 1 50 101
M  V30 105 1 51 102
M  V30 106 1 52 103
M  V30 END BOND
M  V30 END CTAB
M  END
