
     RDKit          3D

  0  0  0  0  0  0  0  0  0  0999 V3000
M  V30 BEGIN CTAB
M  V30 COUNTS 45 46 0 0 0
M  V30 BEGIN ATOM
M  V30 1 N 6.97487 2.29821 1.33163 0
M  V30 2 C 6.52652 1.15023 0.623006 0
M  V30 3 N 7.33656 0.559627 -0.156859 0
M  V30 4 C 5.14714 0.71991 0.840716 0
M  V30 5 C 4.61245 -0.378847 0.20443 0
M  V30 6 C 3.28748 -0.78778 0.417 0
M  V30 7 C 2.47775 -0.0924768 1.27719 0
M  V30 8 N 1.14208 -0.443299 1.5191 0
M  V30 9 C 0.465524 -1.38152 0.667176 0
M  V30 10 C 0.231203 -0.772095 -0.72196 0
M  V30 11 C -0.470763 -1.83287 -1.52282 0
M  V30 12 N -1.70967 -2.16941 -0.903064 0
M  V30 13 C -2.80774 -1.26711 -0.860283 0
M  V30 14 C -2.87198 -0.112914 -1.60457 0
M  V30 15 C -3.94375 0.758733 -1.53858 0
M  V30 16 C -5.01957 0.520289 -0.716984 0
M  V30 17 C -4.95569 -0.650387 0.0380491 0
M  V30 18 C -3.89774 -1.52163 -0.0194425 0
M  V30 19 C -6.16873 1.40685 -0.613553 0
M  V30 20 N -7.23782 1.08739 0.258442 0
M  V30 21 N -6.23996 2.48491 -1.30085 0
M  V30 22 C 3.00621 1.02524 1.93099 0
M  V30 23 C 4.30698 1.3959 1.69878 0
M  V30 24 H 7.37173 2.18027 2.28197 0
M  V30 25 H 6.92313 3.25887 0.938386 0
M  V30 26 H 7.12001 -0.270998 -0.712637 0
M  V30 27 H 5.22269 -0.942783 -0.47522 0
M  V30 28 H 2.91335 -1.67157 -0.102314 0
M  V30 29 H 0.626655 -0.0128527 2.33825 0
M  V30 30 H 1.06774 -2.31406 0.517949 0
M  V30 31 H -0.474636 -1.68741 1.12304 0
M  V30 32 H 1.18272 -0.552325 -1.20444 0
M  V30 33 H -0.417472 0.115889 -0.592351 0
M  V30 34 H -0.654034 -1.41945 -2.53657 0
M  V30 35 H 0.169365 -2.72747 -1.66784 0
M  V30 36 H -1.82661 -3.10823 -0.46205 0
M  V30 37 H -2.04258 0.106454 -2.27683 0
M  V30 38 H -3.94412 1.66254 -2.15155 0
M  V30 39 H -5.8193 -0.827687 0.68773 0
M  V30 40 H -3.86793 -2.40893 0.56424 0
M  V30 41 H -8.24101 1.16614 0.00512666 0
M  V30 42 H -7.00491 0.752064 1.21472 0
M  V30 43 H -5.56286 2.8588 -1.96949 0
M  V30 44 H 2.35639 1.57246 2.61352 0
M  V30 45 H 4.71034 2.27333 2.21661 0
M  V30 END ATOM
M  V30 BEGIN BOND
M  V30 1 1 1 2
M  V30 2 2 2 3 CFG=2
M  V30 3 1 2 4
M  V30 4 2 4 5
M  V30 5 1 5 6
M  V30 6 2 6 7
M  V30 7 1 7 8
M  V30 8 1 8 9
M  V30 9 1 9 10
M  V30 10 1 10 11
M  V30 11 1 11 12
M  V30 12 1 12 13
M  V30 13 2 13 14
M  V30 14 1 14 15
M  V30 15 2 15 16
M  V30 16 1 16 17
M  V30 17 2 17 18
M  V30 18 1 16 19
M  V30 19 1 19 20
M  V30 20 2 19 21 CFG=2
M  V30 21 1 7 22
M  V30 22 2 22 23
M  V30 23 1 23 4
M  V30 24 1 18 13
M  V30 25 1 1 24
M  V30 26 1 1 25
M  V30 27 1 3 26
M  V30 28 1 5 27
M  V30 29 1 6 28
M  V30 30 1 8 29
M  V30 31 1 9 30
M  V30 32 1 9 31
M  V30 33 1 10 32
M  V30 34 1 10 33
M  V30 35 1 11 34
M  V30 36 1 11 35
M  V30 37 1 12 36
M  V30 38 1 14 37
M  V30 39 1 15 38
M  V30 40 1 17 39
M  V30 41 1 18 40
M  V30 42 1 20 41
M  V30 43 1 20 42
M  V30 44 1 21 43
M  V30 45 1 22 44
M  V30 46 1 23 45
M  V30 END BOND
M  V30 END CTAB
M  END
