
     RDKit          3D

  0  0  0  0  0  0  0  0  0  0999 V3000
M  V30 BEGIN CTAB
M  V30 COUNTS 41 41 0 0 0
M  V30 BEGIN ATOM
M  V30 1 N -1.70892 3.49255 0.995779 0
M  V30 2 C -1.45776 2.51675 -0.0781308 0
M  V30 3 C -0.00157153 2.24867 -0.0705808 0
M  V30 4 C 0.580437 1.31577 -1.03503 0
M  V30 5 N 0.271682 -0.0868362 -1.01848 0
M  V30 6 C 1.15935 -0.933305 -0.227719 0
M  V30 7 O 0.908281 -2.15707 -0.199854 0
M  V30 8 C 2.31296 -0.428223 0.526255 0 CFG=2
M  V30 9 C 3.59742 -0.489699 -0.330912 0
M  V30 10 C 4.71903 0.0525241 0.52032 0
M  V30 11 N 2.56255 -1.41891 1.60696 0
M  V30 12 C -0.747129 -0.749588 -1.7535 0
M  V30 13 C -1.95897 -1.19327 -1.0689 0
M  V30 14 C -2.05474 -1.25516 0.291384 0
M  V30 15 C -3.22083 -1.7068 0.914045 0
M  V30 16 C -4.30224 -2.09931 0.156734 0
M  V30 17 C -4.21938 -2.04096 -1.21817 0
M  V30 18 C -3.08056 -1.60046 -1.82323 0
M  V30 19 H -2.68924 3.8308 0.948667 0
M  V30 20 H -1.01083 4.25755 0.953666 0
M  V30 21 H -2.15183 1.71135 0.0434727 0
M  V30 22 H -1.72565 3.09888 -1.0074 0
M  V30 23 H 0.317523 2.01972 1.00322 0
M  V30 24 H 0.483098 3.27822 -0.204065 0
M  V30 25 H 1.71259 1.39333 -0.902502 0
M  V30 26 H 0.373516 1.73092 -2.08336 0
M  V30 27 H 2.25183 0.576852 0.914178 0
M  V30 28 H 3.52398 0.031091 -1.27029 0
M  V30 29 H 3.84778 -1.55955 -0.519014 0
M  V30 30 H 5.3915 0.706473 -0.0507817 0
M  V30 31 H 4.31371 0.689349 1.35783 0
M  V30 32 H 5.27822 -0.761696 1.03228 0
M  V30 33 H 3.52624 -1.32188 1.95886 0
M  V30 34 H 2.48694 -2.34166 1.12338 0
M  V30 35 H -1.11231 -0.0982276 -2.60706 0
M  V30 36 H -0.346649 -1.66083 -2.29898 0
M  V30 37 H -1.2674 -0.948038 0.958664 0
M  V30 38 H -3.31028 -1.76169 1.98825 0
M  V30 39 H -5.22047 -2.45426 0.612707 0
M  V30 40 H -5.0559 -2.34336 -1.84448 0
M  V30 41 H -2.97598 -1.54003 -2.89123 0
M  V30 END ATOM
M  V30 BEGIN BOND
M  V30 1 1 1 2
M  V30 2 1 2 3
M  V30 3 1 3 4
M  V30 4 1 4 5
M  V30 5 1 5 6
M  V30 6 2 6 7
M  V30 7 1 6 8
M  V30 8 1 8 9
M  V30 9 1 9 10
M  V30 10 1 8 11
M  V30 11 1 5 12
M  V30 12 1 12 13
M  V30 13 2 13 14
M  V30 14 1 14 15
M  V30 15 2 15 16
M  V30 16 1 16 17
M  V30 17 2 17 18
M  V30 18 1 18 13
M  V30 19 1 1 19
M  V30 20 1 1 20
M  V30 21 1 2 21
M  V30 22 1 2 22
M  V30 23 1 3 23
M  V30 24 1 3 24
M  V30 25 1 4 25
M  V30 26 1 4 26
M  V30 27 1 8 27 CFG=1
M  V30 28 1 9 28
M  V30 29 1 9 29
M  V30 30 1 10 30
M  V30 31 1 10 31
M  V30 32 1 10 32
M  V30 33 1 11 33
M  V30 34 1 11 34
M  V30 35 1 12 35
M  V30 36 1 12 36
M  V30 37 1 14 37
M  V30 38 1 15 38
M  V30 39 1 16 39
M  V30 40 1 17 40
M  V30 41 1 18 41
M  V30 END BOND
M  V30 END CTAB
M  END
