
     RDKit          3D

  0  0  0  0  0  0  0  0  0  0999 V3000
M  V30 BEGIN CTAB
M  V30 COUNTS 71 70 0 0 0
M  V30 BEGIN ATOM
M  V30 1 C 9.17164 1.9192 0.486572 0
M  V30 2 C 8.46115 0.806409 1.25845 0 CFG=1
M  V30 3 O 9.143 0.657846 2.48821 0
M  V30 4 C 7.04644 1.211 1.58675 0 CFG=2
M  V30 5 N 6.49682 0.122554 2.42001 0
M  V30 6 C 6.22424 1.34987 0.34896 0
M  V30 7 O 6.58025 2.22157 -0.480665 0
M  V30 8 N 5.10504 0.545561 0.118685 0
M  V30 9 C 4.22934 0.561727 -1.01458 0 CFG=1
M  V30 10 C 4.32999 -0.727414 -1.75956 0
M  V30 11 O 5.65767 -0.877992 -2.17155 0
M  V30 12 C 2.86007 1.02506 -0.736386 0
M  V30 13 O 2.71786 1.79042 0.260248 0
M  V30 14 N 1.7266 0.682656 -1.48446 0
M  V30 15 C 0.374556 1.13298 -1.25169 0 CFG=1
M  V30 16 C -0.226588 1.52556 -2.58046 0
M  V30 17 O -0.191064 0.381488 -3.39531 0
M  V30 18 C -0.462588 0.00250201 -0.691161 0
M  V30 19 O 0.0781296 -1.09288 -0.525165 0
M  V30 20 N -1.82418 0.195447 -0.364321 0
M  V30 21 C -2.69743 -0.807765 0.177042 0 CFG=1
M  V30 22 C -3.12568 -0.532593 1.57566 0
M  V30 23 C -3.85438 0.732785 1.82213 0
M  V30 24 C -5.14003 0.927496 1.104 0
M  V30 25 C -5.67865 2.30312 1.54274 0
M  V30 26 N -6.92691 2.57613 0.891236 0
M  V30 27 C -3.78684 -1.22819 -0.72764 0
M  V30 28 O -3.92428 -0.749643 -1.90674 0
M  V30 29 N -4.7472 -2.19551 -0.335638 0
M  V30 30 C -5.82139 -2.63857 -1.18242 0 CFG=1
M  V30 31 C -5.53221 -4.10196 -1.54421 0
M  V30 32 S -5.4558 -5.10208 -0.0183752 0
M  V30 33 C -7.08869 -2.60254 -0.415774 0
M  V30 34 O -8.30818 -2.95985 -1.02082 0
M  V30 35 O -7.16146 -2.26326 0.783367 0
M  V30 36 H 9.1623 1.6468 -0.575131 0
M  V30 37 H 8.65493 2.85863 0.728888 0
M  V30 38 H 10.2293 1.96067 0.819936 0
M  V30 39 H 8.51543 -0.165456 0.7528 0
M  V30 40 H 9.94553 1.21986 2.51419 0
M  V30 41 H 7.07427 2.14951 2.16921 0
M  V30 42 H 6.51287 -0.770349 1.90727 0
M  V30 43 H 5.55837 0.358121 2.79532 0
M  V30 44 H 4.85434 -0.176697 0.859907 0
M  V30 45 H 4.67247 1.36329 -1.70416 0
M  V30 46 H 4.11226 -1.5593 -1.06547 0
M  V30 47 H 3.67555 -0.771991 -2.67058 0
M  V30 48 H 5.88341 -0.311528 -2.95064 0
M  V30 49 H 1.85348 0.0314774 -2.30453 0
M  V30 50 H 0.33808 1.93964 -0.48639 0
M  V30 51 H -1.29421 1.83892 -2.42596 0
M  V30 52 H 0.279119 2.36051 -3.05913 0
M  V30 53 H 0.178426 0.643754 -4.2829 0
M  V30 54 H -2.22083 1.14753 -0.53085 0
M  V30 55 H -2.02436 -1.73958 0.266195 0
M  V30 56 H -2.2326 -0.530135 2.26714 0
M  V30 57 H -3.74988 -1.37395 1.9559 0
M  V30 58 H -4.10628 0.738865 2.92531 0
M  V30 59 H -3.23311 1.64686 1.69232 0
M  V30 60 H -5.10375 0.973665 0.0194016 0
M  V30 61 H -5.92879 0.219309 1.43176 0
M  V30 62 H -5.75406 2.28172 2.6481 0
M  V30 63 H -4.95024 3.08595 1.27139 0
M  V30 64 H -6.79049 3.34001 0.203595 0
M  V30 65 H -7.73653 2.71775 1.51939 0
M  V30 66 H -4.6653 -2.6042 0.618073 0
M  V30 67 H -5.89102 -2.09175 -2.11965 0
M  V30 68 H -4.57008 -4.1713 -2.05235 0
M  V30 69 H -6.37309 -4.4817 -2.13227 0
M  V30 70 H -4.42663 -4.68344 0.830115 0
M  V30 71 H -8.69811 -3.88263 -0.782133 0
M  V30 END ATOM
M  V30 BEGIN BOND
M  V30 1 1 1 2
M  V30 2 1 2 3
M  V30 3 1 2 4
M  V30 4 1 4 5
M  V30 5 1 4 6
M  V30 6 2 6 7
M  V30 7 1 6 8
M  V30 8 1 8 9
M  V30 9 1 9 10
M  V30 10 1 10 11
M  V30 11 1 9 12
M  V30 12 2 12 13
M  V30 13 1 12 14
M  V30 14 1 14 15
M  V30 15 1 15 16
M  V30 16 1 16 17
M  V30 17 1 15 18
M  V30 18 2 18 19
M  V30 19 1 18 20
M  V30 20 1 20 21
M  V30 21 1 21 22
M  V30 22 1 22 23
M  V30 23 1 23 24
M  V30 24 1 24 25
M  V30 25 1 25 26
M  V30 26 1 21 27
M  V30 27 2 27 28
M  V30 28 1 27 29
M  V30 29 1 29 30
M  V30 30 1 30 31
M  V30 31 1 31 32
M  V30 32 1 30 33
M  V30 33 1 33 34
M  V30 34 2 33 35
M  V30 35 1 1 36
M  V30 36 1 1 37
M  V30 37 1 1 38
M  V30 38 1 2 39 CFG=3
M  V30 39 1 3 40
M  V30 40 1 4 41 CFG=1
M  V30 41 1 5 42
M  V30 42 1 5 43
M  V30 43 1 8 44
M  V30 44 1 9 45 CFG=3
M  V30 45 1 10 46
M  V30 46 1 10 47
M  V30 47 1 11 48
M  V30 48 1 14 49
M  V30 49 1 15 50 CFG=1
M  V30 50 1 16 51
M  V30 51 1 16 52
M  V30 52 1 17 53
M  V30 53 1 20 54
M  V30 54 1 21 55 CFG=1
M  V30 55 1 22 56
M  V30 56 1 22 57
M  V30 57 1 23 58
M  V30 58 1 23 59
M  V30 59 1 24 60
M  V30 60 1 24 61
M  V30 61 1 25 62
M  V30 62 1 25 63
M  V30 63 1 26 64
M  V30 64 1 26 65
M  V30 65 1 29 66
M  V30 66 1 30 67 CFG=3
M  V30 67 1 31 68
M  V30 68 1 31 69
M  V30 69 1 32 70
M  V30 70 1 34 71
M  V30 END BOND
M  V30 END CTAB
M  END
