
     RDKit          3D

  0  0  0  0  0  0  0  0  0  0999 V3000
M  V30 BEGIN CTAB
M  V30 COUNTS 56 59 0 0 0
M  V30 BEGIN ATOM
M  V30 1 O -5.49611 2.21088 0.614354 0
M  V30 2 C -5.78097 1.08743 1.41908 0
M  V30 3 C -4.69751 0.0967687 1.34014 0
M  V30 4 N -4.30868 -0.484535 0.112103 0
M  V30 5 C -2.99379 -0.0374584 -0.368755 0
M  V30 6 N -2.86637 0.793181 -1.40263 0
M  V30 7 C -1.66048 1.19921 -1.82427 0
M  V30 8 N -1.4929 2.08552 -2.92256 0
M  V30 9 C -0.540018 0.746634 -1.17371 0
M  V30 10 C -0.676287 -0.127891 -0.0862669 0
M  V30 11 C -1.90824 -0.536754 0.337229 0
M  V30 12 C -2.11464 -1.42841 1.43587 0
M  V30 13 N -2.34197 -2.15995 2.33966 0
M  V30 14 C 0.473484 -0.581166 0.563431 0
M  V30 15 C 0.702002 -1.48152 1.63344 0
M  V30 16 C 2.1604 -1.45083 1.90394 0
M  V30 17 O 2.79282 -2.01053 2.83934 0
M  V30 18 N 2.75374 -0.665588 0.910428 0
M  V30 19 C 1.69584 -0.141236 0.102938 0
M  V30 20 N 1.80086 0.713376 -0.961843 0
M  V30 21 C 0.714003 1.15262 -1.59244 0
M  V30 22 N 0.877202 2.03263 -2.68392 0
M  V30 23 C 4.14682 -0.396491 0.677155 0
M  V30 24 C 4.71516 -0.770057 -0.519919 0
M  V30 25 C 6.06927 -0.522373 -0.774417 0
M  V30 26 C 6.83874 0.0986801 0.177414 0
M  V30 27 C 6.29464 0.471672 1.35829 0
M  V30 28 C 4.95752 0.222898 1.5997 0
M  V30 29 Cl 7.26564 1.26612 2.5868 0
M  V30 30 O 8.17712 0.341913 -0.077112 0
M  V30 31 C 8.78739 -0.0316134 -1.30001 0
M  V30 32 C -5.02442 -1.41211 -0.666983 0
M  V30 33 C -6.22009 -1.09091 -1.43726 0
M  V30 34 O -7.31821 -0.634411 -0.787279 0
M  V30 35 H -5.91644 3.02548 0.973747 0
M  V30 36 H -5.76217 1.57567 2.491 0
M  V30 37 H -6.80571 0.826957 1.31759 0
M  V30 38 H -3.78485 0.545015 1.86607 0
M  V30 39 H -4.99095 -0.726056 2.0946 0
M  V30 40 H -1.46659 3.12346 -2.80251 0
M  V30 41 H -1.39394 1.70915 -3.89125 0
M  V30 42 H 0.289027 -1.02491 2.56959 0
M  V30 43 H 0.323653 -2.50044 1.62295 0
M  V30 44 H 0.978444 1.69266 -3.65059 0
M  V30 45 H 0.898479 3.05156 -2.5031 0
M  V30 46 H 4.11139 -1.2522 -1.2593 0
M  V30 47 H 6.49316 -0.824269 -1.71847 0
M  V30 48 H 4.52812 0.517497 2.5334 0
M  V30 49 H 8.26877 0.547152 -2.09583 0
M  V30 50 H 8.5846 -1.10781 -1.46584 0
M  V30 51 H 9.86418 0.188673 -1.23798 0
M  V30 52 H -5.32729 -2.2509 0.0596344 0
M  V30 53 H -4.27976 -1.87317 -1.39069 0
M  V30 54 H -6.0271 -0.398439 -2.30818 0
M  V30 55 H -6.56201 -2.04062 -1.98361 0
M  V30 56 H -7.80496 -1.36015 -0.316929 0
M  V30 END ATOM
M  V30 BEGIN BOND
M  V30 1 1 1 2
M  V30 2 1 2 3
M  V30 3 1 3 4
M  V30 4 1 4 5
M  V30 5 2 5 6
M  V30 6 1 6 7
M  V30 7 1 7 8
M  V30 8 2 7 9
M  V30 9 1 9 10
M  V30 10 2 10 11
M  V30 11 1 11 12
M  V30 12 3 12 13
M  V30 13 1 10 14
M  V30 14 1 14 15
M  V30 15 1 15 16
M  V30 16 2 16 17
M  V30 17 1 16 18
M  V30 18 1 18 19
M  V30 19 1 19 20
M  V30 20 2 20 21
M  V30 21 1 21 22
M  V30 22 1 18 23
M  V30 23 2 23 24
M  V30 24 1 24 25
M  V30 25 2 25 26
M  V30 26 1 26 27
M  V30 27 2 27 28
M  V30 28 1 27 29
M  V30 29 1 26 30
M  V30 30 1 30 31
M  V30 31 1 4 32
M  V30 32 1 32 33
M  V30 33 1 33 34
M  V30 34 1 11 5
M  V30 35 2 19 14
M  V30 36 1 28 23
M  V30 37 1 21 9
M  V30 38 1 1 35
M  V30 39 1 2 36
M  V30 40 1 2 37
M  V30 41 1 3 38
M  V30 42 1 3 39
M  V30 43 1 8 40
M  V30 44 1 8 41
M  V30 45 1 15 42
M  V30 46 1 15 43
M  V30 47 1 22 44
M  V30 48 1 22 45
M  V30 49 1 24 46
M  V30 50 1 25 47
M  V30 51 1 28 48
M  V30 52 1 31 49
M  V30 53 1 31 50
M  V30 54 1 31 51
M  V30 55 1 32 52
M  V30 56 1 32 53
M  V30 57 1 33 54
M  V30 58 1 33 55
M  V30 59 1 34 56
M  V30 END BOND
M  V30 END CTAB
M  END
