
     RDKit          3D

  0  0  0  0  0  0  0  0  0  0999 V3000
M  V30 BEGIN CTAB
M  V30 COUNTS 40 43 0 0 0
M  V30 BEGIN ATOM
M  V30 1 N 5.33193 -2.48082 1.66992 0
M  V30 2 C 4.59944 -1.78776 0.675231 0
M  V30 3 N 5.24682 -1.36385 -0.427316 0
M  V30 4 C 4.62255 -0.700568 -1.41623 0
M  V30 5 N 5.29349 -0.249389 -2.57765 0
M  V30 6 C 3.26068 -0.447782 -1.28987 0
M  V30 7 F 2.63811 0.227017 -2.30298 0
M  V30 8 C 2.55202 -0.859266 -0.183799 0
M  V30 9 N 1.16556 -0.575445 -0.112831 0
M  V30 10 N 0.117007 -1.35862 -0.260555 0
M  V30 11 C -1.04476 -0.656455 -0.0990094 0
M  V30 12 C -0.665428 0.622322 0.160489 0
M  V30 13 N 0.68887 0.624787 0.141508 0
M  V30 14 C -1.41127 1.83733 0.432035 0
M  V30 15 C -1.35616 2.46769 1.67865 0
M  V30 16 C -2.06261 3.61859 1.93502 0
M  V30 17 C -2.84449 4.17209 0.952658 0
M  V30 18 F -3.54383 5.31728 1.21848 0
M  V30 19 C -2.91612 3.57517 -0.277184 0
M  V30 20 C -2.19992 2.41428 -0.526966 0
M  V30 21 C -2.39266 -1.1859 -0.190105 0
M  V30 22 C -2.89799 -2.01467 0.798685 0
M  V30 23 C -4.17192 -2.53238 0.684364 0
M  V30 24 N -4.93853 -2.24442 -0.380478 0
M  V30 25 C -4.46988 -1.44184 -1.35378 0
M  V30 26 C -3.20644 -0.914356 -1.26238 0
M  V30 27 C 3.24216 -1.53596 0.802238 0
M  V30 28 F 2.59795 -1.96141 1.90403 0
M  V30 29 H 4.9667 -3.38527 2.0213 0
M  V30 30 H 6.21506 -2.10548 2.05014 0
M  V30 31 H 5.3453 -0.909281 -3.38265 0
M  V30 32 H 5.74015 0.686845 -2.69648 0
M  V30 33 H -0.732897 2.01081 2.43379 0
M  V30 34 H -2.01349 4.09796 2.89521 0
M  V30 35 H -3.53297 4.00909 -1.05791 0
M  V30 36 H -2.29313 2.01237 -1.50772 0
M  V30 37 H -2.32616 -2.27915 1.67631 0
M  V30 38 H -4.57666 -3.1803 1.4472 0
M  V30 39 H -5.13581 -1.2512 -2.1868 0
M  V30 40 H -2.89065 -0.272046 -2.08458 0
M  V30 END ATOM
M  V30 BEGIN BOND
M  V30 1 1 1 2
M  V30 2 2 2 3
M  V30 3 1 3 4
M  V30 4 1 4 5
M  V30 5 2 4 6
M  V30 6 1 6 7
M  V30 7 1 6 8
M  V30 8 1 8 9
M  V30 9 1 9 10
M  V30 10 2 10 11
M  V30 11 1 11 12
M  V30 12 2 12 13
M  V30 13 1 12 14
M  V30 14 2 14 15
M  V30 15 1 15 16
M  V30 16 2 16 17
M  V30 17 1 17 18
M  V30 18 1 17 19
M  V30 19 2 19 20
M  V30 20 1 11 21
M  V30 21 2 21 22
M  V30 22 1 22 23
M  V30 23 2 23 24
M  V30 24 1 24 25
M  V30 25 2 25 26
M  V30 26 2 8 27
M  V30 27 1 27 28
M  V30 28 1 27 2
M  V30 29 1 13 9
M  V30 30 1 20 14
M  V30 31 1 26 21
M  V30 32 1 1 29
M  V30 33 1 1 30
M  V30 34 1 5 31
M  V30 35 1 5 32
M  V30 36 1 15 33
M  V30 37 1 16 34
M  V30 38 1 19 35
M  V30 39 1 20 36
M  V30 40 1 22 37
M  V30 41 1 23 38
M  V30 42 1 25 39
M  V30 43 1 26 40
M  V30 END BOND
M  V30 END CTAB
M  END
