
     RDKit          3D

  0  0  0  0  0  0  0  0  0  0999 V3000
M  V30 BEGIN CTAB
M  V30 COUNTS 54 56 0 0 0
M  V30 BEGIN ATOM
M  V30 1 N -2.66544 -3.02125 2.22441 0
M  V30 2 C -2.44577 -2.01073 1.2363 0
M  V30 3 N -2.52576 -0.784526 1.58511 0
M  V30 4 C -2.33123 0.268989 0.543738 0
M  V30 5 N -1.48372 -0.182795 -0.453943 0
M  V30 6 C -0.528684 0.649654 -1.13418 0
M  V30 7 C 0.701944 1.04668 -0.336734 0
M  V30 8 C 1.49405 -0.153867 0.0639015 0
M  V30 9 C 2.8067 0.199694 0.757689 0
M  V30 10 C 3.5933 1.01225 -0.205058 0
M  V30 11 O 4.88472 1.29019 0.118118 0
M  V30 12 C 5.9598 0.491463 0.260336 0
M  V30 13 C 7.1746 1.08907 0.582114 0
M  V30 14 C 8.31548 0.343955 0.733249 0
M  V30 15 C 8.27977 -1.01979 0.566895 0
M  V30 16 Cl 9.7352 -1.92866 0.745504 0
M  V30 17 C 7.09225 -1.62674 0.250872 0
M  V30 18 C 5.95321 -0.874474 0.102564 0
M  V30 19 C -1.46982 -1.58689 -0.822839 0
M  V30 20 N -0.945183 -1.89882 -2.10817 0
M  V30 21 N -1.92427 -2.46808 -0.000856649 0
M  V30 22 C -3.77733 0.447937 0.0853241 0
M  V30 23 C -4.61273 1.02808 0.996509 0
M  V30 24 C -5.99315 1.15359 0.769877 0
M  V30 25 C -6.5151 0.660404 -0.434392 0
M  V30 26 C -5.6361 0.0846457 -1.3256 0
M  V30 27 C -4.26455 -0.0339262 -1.09341 0
M  V30 28 C -7.98802 0.762352 -0.69791 0
M  V30 29 F -8.57505 1.47759 0.309569 0
M  V30 30 F -8.58805 -0.500829 -0.661314 0
M  V30 31 F -8.20039 1.35615 -1.91709 0
M  V30 32 H -3.40035 -3.70185 2.03421 0
M  V30 33 H -2.08513 -2.99828 3.06449 0
M  V30 34 H -2.07434 1.21288 1.05548 0
M  V30 35 H -0.117312 0.164703 -2.06074 0
M  V30 36 H -1.02308 1.57559 -1.55568 0
M  V30 37 H 0.46382 1.63237 0.58138 0
M  V30 38 H 1.24323 1.74602 -1.01977 0
M  V30 39 H 0.891667 -0.792351 0.787246 0
M  V30 40 H 1.75829 -0.830916 -0.78617 0
M  V30 41 H 3.29026 -0.655389 1.21086 0
M  V30 42 H 2.5593 0.880783 1.64671 0
M  V30 43 H 3.47666 0.542208 -1.22981 0
M  V30 44 H 3.02168 1.99698 -0.315957 0
M  V30 45 H 7.19143 2.16582 0.707371 0
M  V30 46 H 9.24744 0.810588 0.977967 0
M  V30 47 H 7.02531 -2.70734 0.118692 0
M  V30 48 H 5.05521 -1.40907 -0.136892 0
M  V30 49 H -1.3383 -1.50788 -3.0076 0
M  V30 50 H -0.133048 -2.55022 -2.14308 0
M  V30 51 H -4.26083 1.41395 1.93157 0
M  V30 52 H -6.68119 1.59936 1.45495 0
M  V30 53 H -6.02242 -0.295931 -2.26173 0
M  V30 54 H -3.60894 -0.476966 -1.79406 0
M  V30 END ATOM
M  V30 BEGIN BOND
M  V30 1 1 1 2
M  V30 2 2 2 3
M  V30 3 1 3 4
M  V30 4 1 4 5
M  V30 5 1 5 6
M  V30 6 1 6 7
M  V30 7 1 7 8
M  V30 8 1 8 9
M  V30 9 1 9 10
M  V30 10 1 10 11
M  V30 11 1 11 12
M  V30 12 2 12 13
M  V30 13 1 13 14
M  V30 14 2 14 15
M  V30 15 1 15 16
M  V30 16 1 15 17
M  V30 17 2 17 18
M  V30 18 1 5 19
M  V30 19 1 19 20
M  V30 20 2 19 21
M  V30 21 1 4 22
M  V30 22 2 22 23
M  V30 23 1 23 24
M  V30 24 2 24 25
M  V30 25 1 25 26
M  V30 26 2 26 27
M  V30 27 1 25 28
M  V30 28 1 28 29
M  V30 29 1 28 30
M  V30 30 1 28 31
M  V30 31 1 21 2
M  V30 32 1 27 22
M  V30 33 1 18 12
M  V30 34 1 1 32
M  V30 35 1 1 33
M  V30 36 1 4 34
M  V30 37 1 6 35
M  V30 38 1 6 36
M  V30 39 1 7 37
M  V30 40 1 7 38
M  V30 41 1 8 39
M  V30 42 1 8 40
M  V30 43 1 9 41
M  V30 44 1 9 42
M  V30 45 1 10 43
M  V30 46 1 10 44
M  V30 47 1 13 45
M  V30 48 1 14 46
M  V30 49 1 17 47
M  V30 50 1 18 48
M  V30 51 1 20 49
M  V30 52 1 20 50
M  V30 53 1 23 51
M  V30 54 1 24 52
M  V30 55 1 26 53
M  V30 56 1 27 54
M  V30 END BOND
M  V30 END CTAB
M  END
