
     RDKit          3D

  0  0  0  0  0  0  0  0  0  0999 V3000
M  V30 BEGIN CTAB
M  V30 COUNTS 41 41 0 0 0
M  V30 BEGIN ATOM
M  V30 1 C -3.1076 -5.04059 -0.387819 0
M  V30 2 C -2.37004 -3.75623 -0.468858 0
M  V30 3 C -1.06648 -3.73831 -0.0328125 0
M  V30 4 C -0.33862 -2.56733 -0.0792438 0
M  V30 5 C -0.858487 -1.3872 -0.548348 0
M  V30 6 C -2.16468 -1.41284 -0.98363 0
M  V30 7 C -2.90946 -2.59673 -0.940787 0
M  V30 8 N -0.130152 -0.128475 -0.551817 0
M  V30 9 C -0.602548 0.912972 -1.37953 0
M  V30 10 C -1.29153 2.089 -0.873774 0
M  V30 11 C -0.666943 3.10006 -0.0599326 0
M  V30 12 O 0.545206 3.23703 0.127412 0
M  V30 13 N -1.55695 4.0535 0.601981 0
M  V30 14 N -1.05203 5.0565 1.39673 0
M  V30 15 C 0.970399 -0.029396 0.345653 0
M  V30 16 C 2.27296 0.181183 -0.396445 0
M  V30 17 C 3.40803 0.289765 0.630908 0
M  V30 18 O 3.14275 -0.259955 1.76928 0
M  V30 19 N 4.55203 0.909775 0.345518 0
M  V30 20 N 5.68869 1.52572 0.0621918 0
M  V30 21 H -2.60003 -5.7551 -1.07148 0
M  V30 22 H -2.91055 -5.43457 0.648074 0
M  V30 23 H -4.1814 -4.95575 -0.576102 0
M  V30 24 H -0.582329 -4.62311 0.348812 0
M  V30 25 H 0.663749 -2.60594 0.246582 0
M  V30 26 H -2.61541 -0.501939 -1.34962 0
M  V30 27 H -3.92069 -2.58677 -1.28436 0
M  V30 28 H -1.1654 0.422237 -2.24878 0
M  V30 29 H 0.298756 1.34139 -1.99853 0
M  V30 30 H -1.66743 2.65629 -1.81327 0
M  V30 31 H -2.29311 1.76225 -0.420148 0
M  V30 32 H -2.57524 3.96203 0.465885 0
M  V30 33 H -1.48104 5.97771 1.29597 0
M  V30 34 H -0.703786 4.78749 2.31776 0
M  V30 35 H 0.793922 0.764239 1.1017 0
M  V30 36 H 1.06363 -0.947508 1.01285 0
M  V30 37 H 2.53782 -0.612689 -1.07768 0
M  V30 38 H 2.2332 1.1478 -0.894027 0
M  V30 39 H 5.04095 0.651537 1.62092 0
M  V30 40 H 5.6347 2.54234 0.374434 0
M  V30 41 H 5.96513 1.56963 -0.943738 0
M  V30 END ATOM
M  V30 BEGIN BOND
M  V30 1 1 1 2
M  V30 2 2 2 3
M  V30 3 1 3 4
M  V30 4 2 4 5
M  V30 5 1 5 6
M  V30 6 2 6 7
M  V30 7 1 5 8
M  V30 8 1 8 9
M  V30 9 1 9 10
M  V30 10 1 10 11
M  V30 11 2 11 12
M  V30 12 1 11 13
M  V30 13 1 13 14
M  V30 14 1 8 15
M  V30 15 1 15 16
M  V30 16 1 16 17
M  V30 17 2 17 18
M  V30 18 1 17 19
M  V30 19 1 19 20
M  V30 20 1 7 2
M  V30 21 1 1 21
M  V30 22 1 1 22
M  V30 23 1 1 23
M  V30 24 1 3 24
M  V30 25 1 4 25
M  V30 26 1 6 26
M  V30 27 1 7 27
M  V30 28 1 9 28
M  V30 29 1 9 29
M  V30 30 1 10 30
M  V30 31 1 10 31
M  V30 32 1 13 32
M  V30 33 1 14 33
M  V30 34 1 14 34
M  V30 35 1 15 35
M  V30 36 1 15 36
M  V30 37 1 16 37
M  V30 38 1 16 38
M  V30 39 1 19 39
M  V30 40 1 20 40
M  V30 41 1 20 41
M  V30 END BOND
M  V30 END CTAB
M  END
