
     RDKit          3D

  0  0  0  0  0  0  0  0  0  0999 V3000
M  V30 BEGIN CTAB
M  V30 COUNTS 65 68 0 0 0
M  V30 BEGIN ATOM
M  V30 1 C -4.06368 -5.41132 -1.81745 0
M  V30 2 N -3.98035 -4.64121 -0.580088 0
M  V30 3 C -4.27584 -5.26034 0.689702 0
M  V30 4 C -3.57808 -3.27961 -0.680678 0
M  V30 5 C -4.44045 -2.35716 -1.19801 0
M  V30 6 C -4.06951 -1.05326 -1.29439 0
M  V30 7 C -2.77687 -0.657125 -0.851623 0
M  V30 8 O -2.50036 0.68945 -0.986964 0
M  V30 9 C -2.89288 1.62229 -0.0292236 0
M  V30 10 C -2.24586 1.91066 1.11752 0
M  V30 11 C -2.69297 2.86235 2.02983 0
M  V30 12 C -3.85138 3.54203 1.75016 0
M  V30 13 C -4.53817 3.27077 0.587657 0
M  V30 14 C -4.08899 2.34258 -0.288478 0
M  V30 15 C -5.7704 3.99336 0.286193 0
M  V30 16 N -6.47678 3.71048 -0.92364 0
M  V30 17 N -6.25795 4.875 1.05193 0
M  V30 18 C -1.87801 -1.54005 -0.334751 0
M  V30 19 C -2.33157 -2.88164 -0.261037 0
M  V30 20 C -0.479158 -1.31193 -0.0635691 0
M  V30 21 O 0.136588 -2.2861 0.522034 0
M  V30 22 N 0.315632 -0.206649 -0.327307 0
M  V30 23 C 1.70381 -0.042066 -0.0314454 0
M  V30 24 C 2.19942 1.24956 0.199229 0
M  V30 25 C 3.52778 1.45288 0.468531 0
M  V30 26 C 4.43095 0.403017 0.523772 0
M  V30 27 C 3.92598 -0.847534 0.295294 0
M  V30 28 C 2.5908 -1.07883 0.0212972 0
M  V30 29 C 5.80207 0.696474 0.874513 0
M  V30 30 C 6.13757 0.951736 2.22404 0
M  V30 31 C 7.43689 1.19031 2.60987 0
M  V30 32 C 8.42217 1.17776 1.64546 0
M  V30 33 C 8.14269 0.935391 0.320548 0
M  V30 34 C 6.79819 0.69338 -0.0486211 0
M  V30 35 S 6.45156 0.443495 -1.73343 0
M  V30 36 N 5.37259 1.6495 -2.35901 0
M  V30 37 O 7.75269 0.551781 -2.53785 0
M  V30 38 O 5.92518 -0.910842 -2.02264 0
M  V30 39 H -3.5485 -4.89162 -2.65021 0
M  V30 40 H -5.14602 -5.60521 -2.07798 0
M  V30 41 H -3.59534 -6.40122 -1.63611 0
M  V30 42 H -3.57413 -4.80685 1.44432 0
M  V30 43 H -5.33746 -5.1624 0.981433 0
M  V30 44 H -4.03052 -6.34625 0.622661 0
M  V30 45 H -5.42311 -2.64766 -1.53546 0
M  V30 46 H -4.73656 -0.30303 -1.69962 0
M  V30 47 H -1.33409 1.4018 1.39633 0
M  V30 48 H -2.12394 3.04906 2.93447 0
M  V30 49 H -4.21318 4.29199 2.45684 0
M  V30 50 H -4.59194 2.10168 -1.20234 0
M  V30 51 H -7.17465 2.95514 -0.902576 0
M  V30 52 H -6.23833 4.29108 -1.75621 0
M  V30 53 H -5.91721 5.22706 1.95507 0
M  V30 54 H -1.65244 -3.62141 0.146853 0
M  V30 55 H -0.107442 0.632725 -0.814527 0
M  V30 56 H 1.47502 2.05482 0.149691 0
M  V30 57 H 3.87367 2.45779 0.640773 0
M  V30 58 H 4.60366 -1.71758 0.346297 0
M  V30 59 H 2.29058 -2.11951 -0.164425 0
M  V30 60 H 5.32196 0.949327 2.92436 0
M  V30 61 H 7.66077 1.38022 3.64115 0
M  V30 62 H 9.47318 1.36285 1.91297 0
M  V30 63 H 8.90826 0.923225 -0.448214 0
M  V30 64 H 5.84008 2.57834 -2.10616 0
M  V30 65 H 5.41442 1.51703 -3.40677 0
M  V30 END ATOM
M  V30 BEGIN BOND
M  V30 1 1 1 2
M  V30 2 1 2 3
M  V30 3 1 2 4
M  V30 4 2 4 5
M  V30 5 1 5 6
M  V30 6 2 6 7
M  V30 7 1 7 8
M  V30 8 1 8 9
M  V30 9 2 9 10
M  V30 10 1 10 11
M  V30 11 2 11 12
M  V30 12 1 12 13
M  V30 13 2 13 14
M  V30 14 1 13 15
M  V30 15 1 15 16
M  V30 16 2 15 17 CFG=2
M  V30 17 1 7 18
M  V30 18 2 18 19
M  V30 19 1 18 20
M  V30 20 2 20 21
M  V30 21 1 20 22
M  V30 22 1 22 23
M  V30 23 2 23 24
M  V30 24 1 24 25
M  V30 25 2 25 26
M  V30 26 1 26 27
M  V30 27 2 27 28
M  V30 28 1 26 29
M  V30 29 2 29 30
M  V30 30 1 30 31
M  V30 31 2 31 32
M  V30 32 1 32 33
M  V30 33 2 33 34
M  V30 34 1 34 35
M  V30 35 1 35 36
M  V30 36 2 35 37
M  V30 37 2 35 38
M  V30 38 1 19 4
M  V30 39 1 28 23
M  V30 40 1 34 29
M  V30 41 1 14 9
M  V30 42 1 1 39
M  V30 43 1 1 40
M  V30 44 1 1 41
M  V30 45 1 3 42
M  V30 46 1 3 43
M  V30 47 1 3 44
M  V30 48 1 5 45
M  V30 49 1 6 46
M  V30 50 1 10 47
M  V30 51 1 11 48
M  V30 52 1 12 49
M  V30 53 1 14 50
M  V30 54 1 16 51
M  V30 55 1 16 52
M  V30 56 1 17 53
M  V30 57 1 19 54
M  V30 58 1 22 55
M  V30 59 1 24 56
M  V30 60 1 25 57
M  V30 61 1 27 58
M  V30 62 1 28 59
M  V30 63 1 30 60
M  V30 64 1 31 61
M  V30 65 1 32 62
M  V30 66 1 33 63
M  V30 67 1 36 64
M  V30 68 1 36 65
M  V30 END BOND
M  V30 END CTAB
M  END
