
     RDKit          3D

  0  0  0  0  0  0  0  0  0  0999 V3000
M  V30 BEGIN CTAB
M  V30 COUNTS 29 29 0 0 0
M  V30 BEGIN ATOM
M  V30 1 C 4.44998 -0.636261 0.571653 0
M  V30 2 O 3.23209 0.0855588 0.565771 0
M  V30 3 C 2.27935 0.0607501 -0.432254 0
M  V30 4 O 2.50975 -0.666035 -1.42586 0
M  V30 5 C 1.07988 0.848097 -0.30988 0
M  V30 6 C -0.212529 0.204874 -0.143183 0
M  V30 7 C -1.31139 1.10961 -0.231372 0
M  V30 8 C -2.58806 0.637682 -0.0731493 0
M  V30 9 C -2.84532 -0.694197 0.171049 0
M  V30 10 C -1.80712 -1.56894 0.25874 0
M  V30 11 C -0.512124 -1.08844 0.0977279 0
M  V30 12 N 0.536434 -2.01289 0.208248 0
M  V30 13 N -1.99581 -2.94944 0.522923 0
M  V30 14 O -1.07011 2.43367 -0.471548 0
M  V30 15 C -1.98712 3.45962 -0.588638 0
M  V30 16 F -1.83367 4.312 0.512813 0
M  V30 17 F -1.80781 4.16137 -1.77378 0
M  V30 18 H 4.36833 -1.65564 0.167722 0
M  V30 19 H 4.79983 -0.74618 1.62082 0
M  V30 20 H 5.23421 -0.0782311 0.0147246 0
M  V30 21 H 1.13431 1.60782 0.539189 0
M  V30 22 H 0.96519 1.54923 -1.20322 0
M  V30 23 H -3.48127 1.25435 -0.125039 0
M  V30 24 H -3.84145 -1.09635 0.303148 0
M  V30 25 H 1.23261 -1.95382 0.966394 0
M  V30 26 H 0.611757 -2.77302 -0.492176 0
M  V30 27 H -2.40705 -3.58257 -0.177832 0
M  V30 28 H -1.71024 -3.32346 1.44796 0
M  V30 29 H -3.02267 3.10086 -0.520954 0
M  V30 END ATOM
M  V30 BEGIN BOND
M  V30 1 1 1 2
M  V30 2 1 2 3
M  V30 3 2 3 4
M  V30 4 1 3 5
M  V30 5 1 5 6
M  V30 6 2 6 7
M  V30 7 1 7 8
M  V30 8 2 8 9
M  V30 9 1 9 10
M  V30 10 2 10 11
M  V30 11 1 11 12
M  V30 12 1 10 13
M  V30 13 1 7 14
M  V30 14 1 14 15
M  V30 15 1 15 16
M  V30 16 1 15 17
M  V30 17 1 11 6
M  V30 18 1 1 18
M  V30 19 1 1 19
M  V30 20 1 1 20
M  V30 21 1 5 21
M  V30 22 1 5 22
M  V30 23 1 8 23
M  V30 24 1 9 24
M  V30 25 1 12 25
M  V30 26 1 12 26
M  V30 27 1 13 27
M  V30 28 1 13 28
M  V30 29 1 15 29
M  V30 END BOND
M  V30 END CTAB
M  END
