
     RDKit          3D

  0  0  0  0  0  0  0  0  0  0999 V3000
M  V30 BEGIN CTAB
M  V30 COUNTS 45 47 0 0 0
M  V30 BEGIN ATOM
M  V30 1 N 6.59081 1.47945 0.155942 0
M  V30 2 C 5.34563 1.60506 0.885582 0
M  V30 3 C 4.1302 1.81788 0.000813089 0
M  V30 4 C 3.39381 0.835312 0.924609 0
M  V30 5 C 4.73276 0.274727 1.28783 0
M  V30 6 C 2.47558 -0.067335 0.2205 0
M  V30 7 C 1.14918 -0.125518 0.66067 0
M  V30 8 C 0.240598 -0.954496 0.0410501 0
M  V30 9 N -1.12784 -1.02632 0.477428 0
M  V30 10 C -2.07329 -1.88978 -0.164822 0
M  V30 11 C -3.41923 -1.73872 0.467469 0
M  V30 12 C -3.8965 -0.365983 0.335571 0
M  V30 13 C -3.88186 0.537991 1.37406 0
M  V30 14 C -4.32895 1.83468 1.26848 0
M  V30 15 C -4.8142 2.2353 0.0530218 0
M  V30 16 C -4.84716 1.37043 -1.00477 0
M  V30 17 C -4.39331 0.065992 -0.88432 0
M  V30 18 C -4.4845 -0.77788 -2.09219 0
M  V30 19 N 0.65538 -1.70348 -0.991893 0
M  V30 20 C 1.93894 -1.66301 -1.43633 0
M  V30 21 N 2.79056 -0.842229 -0.804561 0
M  V30 22 N 2.30599 -2.48273 -2.53428 0
M  V30 23 H 7.35911 1.44737 0.862514 0
M  V30 24 H 6.72466 2.38827 -0.363009 0
M  V30 25 H 5.35692 2.37324 1.70022 0
M  V30 26 H 4.21841 1.37532 -0.990988 0
M  V30 27 H 3.72572 2.8485 0.0603525 0
M  V30 28 H 2.93841 1.37261 1.77202 0
M  V30 29 H 5.08285 -0.517886 0.582354 0
M  V30 30 H 4.92861 0.0862463 2.3561 0
M  V30 31 H 0.790431 0.468019 1.49058 0
M  V30 32 H -1.42988 -0.439296 1.27806 0
M  V30 33 H -1.73215 -2.95979 -0.168072 0
M  V30 34 H -2.12223 -1.63341 -1.2549 0
M  V30 35 H -3.35954 -1.99195 1.56421 0
M  V30 36 H -4.15103 -2.49579 0.0674812 0
M  V30 37 H -3.49838 0.24386 2.35976 0
M  V30 38 H -4.29267 2.50536 2.12408 0
M  V30 39 H -5.17377 3.25918 -0.0530686 0
M  V30 40 H -5.23985 1.72457 -1.95687 0
M  V30 41 H -3.62274 -0.49977 -2.75326 0
M  V30 42 H -5.43231 -0.569178 -2.63983 0
M  V30 43 H -4.45412 -1.85315 -1.87936 0
M  V30 44 H 2.60742 -2.02614 -3.42008 0
M  V30 45 H 2.29353 -3.52553 -2.51225 0
M  V30 END ATOM
M  V30 BEGIN BOND
M  V30 1 1 1 2
M  V30 2 1 2 3
M  V30 3 1 3 4
M  V30 4 1 4 5
M  V30 5 1 4 6
M  V30 6 2 6 7
M  V30 7 1 7 8
M  V30 8 1 8 9
M  V30 9 1 9 10
M  V30 10 1 10 11
M  V30 11 1 11 12
M  V30 12 2 12 13
M  V30 13 1 13 14
M  V30 14 2 14 15
M  V30 15 1 15 16
M  V30 16 2 16 17
M  V30 17 1 17 18
M  V30 18 2 8 19
M  V30 19 1 19 20
M  V30 20 2 20 21
M  V30 21 1 20 22
M  V30 22 1 5 2
M  V30 23 1 21 6
M  V30 24 1 17 12
M  V30 25 1 1 23
M  V30 26 1 1 24
M  V30 27 1 2 25
M  V30 28 1 3 26
M  V30 29 1 3 27
M  V30 30 1 4 28
M  V30 31 1 5 29
M  V30 32 1 5 30
M  V30 33 1 7 31
M  V30 34 1 9 32
M  V30 35 1 10 33
M  V30 36 1 10 34
M  V30 37 1 11 35
M  V30 38 1 11 36
M  V30 39 1 13 37
M  V30 40 1 14 38
M  V30 41 1 15 39
M  V30 42 1 16 40
M  V30 43 1 18 41
M  V30 44 1 18 42
M  V30 45 1 18 43
M  V30 46 1 22 44
M  V30 47 1 22 45
M  V30 END BOND
M  V30 END CTAB
M  END
