
     RDKit          3D

  0  0  0  0  0  0  0  0  0  0999 V3000
M  V30 BEGIN CTAB
M  V30 COUNTS 18 18 0 0 0
M  V30 BEGIN ATOM
M  V30 1 N 0.292463 1.60925 -1.34195 0
M  V30 2 C -0.564549 0.709872 -0.649862 0
M  V30 3 N -1.87507 0.579561 -0.978221 0
M  V30 4 C -2.69271 -0.272275 -0.324893 0
M  V30 5 C -2.16811 -1.02969 0.708236 0
M  V30 6 C -0.84286 -0.935936 1.08263 0
M  V30 7 C -0.0313769 -0.0391863 0.377056 0
M  V30 8 S 1.63977 0.142429 0.778609 0
M  V30 9 N 2.59993 -0.261668 -0.592859 0
M  V30 10 O 1.96662 1.49974 1.31613 0
M  V30 11 O 1.99514 -0.847173 1.87888 0
M  V30 12 H 0.87421 1.31684 -2.16047 0
M  V30 13 H 0.30112 2.60264 -0.968783 0
M  V30 14 H -3.72916 -0.397634 -0.559739 0
M  V30 15 H -2.82534 -1.72261 1.24254 0
M  V30 16 H -0.421393 -1.52113 1.88671 0
M  V30 17 H 2.05858 -0.631271 -1.38479 0
M  V30 18 H 3.42274 -0.801744 -0.309225 0
M  V30 END ATOM
M  V30 BEGIN BOND
M  V30 1 1 1 2
M  V30 2 2 2 3
M  V30 3 1 3 4
M  V30 4 2 4 5
M  V30 5 1 5 6
M  V30 6 2 6 7
M  V30 7 1 7 8
M  V30 8 1 8 9
M  V30 9 2 8 10
M  V30 10 2 8 11
M  V30 11 1 7 2
M  V30 12 1 1 12
M  V30 13 1 1 13
M  V30 14 1 4 14
M  V30 15 1 5 15
M  V30 16 1 6 16
M  V30 17 1 9 17
M  V30 18 1 9 18
M  V30 END BOND
M  V30 END CTAB
M  END
