
     RDKit          3D

  0  0  0  0  0  0  0  0  0  0999 V3000
M  V30 BEGIN CTAB
M  V30 COUNTS 20 19 0 0 0
M  V30 BEGIN ATOM
M  V30 1 N 3.50437 -0.26086 -0.0362654 0
M  V30 2 C 2.33213 0.577576 -0.215305 0
M  V30 3 C 1.08365 -0.230693 -0.193811 0
M  V30 4 O 1.15178 -1.43625 -0.0390811 0
M  V30 5 C -0.19916 0.507082 -0.367385 0
M  V30 6 C -1.38433 -0.464709 -0.321553 0
M  V30 7 N -1.42401 -1.15963 0.947265 0
M  V30 8 C -2.59184 0.365186 -0.452134 0
M  V30 9 O -3.5169 0.368592 0.562239 0
M  V30 10 O -2.74549 1.0449 -1.48048 0
M  V30 11 H 3.42317 -0.741941 0.891311 0
M  V30 12 H 4.32645 0.380305 -0.0446714 0
M  V30 13 H 2.34158 1.36917 0.557425 0
M  V30 14 H 2.37631 1.07137 -1.20553 0
M  V30 15 H -0.1922 0.916628 -1.40202 0
M  V30 16 H -0.311071 1.33579 0.328537 0
M  V30 17 H -1.25635 -1.17932 -1.16144 0
M  V30 18 H -2.36447 -1.11467 1.39886 0
M  V30 19 H -1.22542 -2.17401 0.787557 0
M  V30 20 H -3.32819 0.825469 1.44649 0
M  V30 END ATOM
M  V30 BEGIN BOND
M  V30 1 1 1 2
M  V30 2 1 2 3
M  V30 3 2 3 4
M  V30 4 1 3 5
M  V30 5 1 5 6
M  V30 6 1 6 7
M  V30 7 1 6 8
M  V30 8 1 8 9
M  V30 9 2 8 10
M  V30 10 1 1 11
M  V30 11 1 1 12
M  V30 12 1 2 13
M  V30 13 1 2 14
M  V30 14 1 5 15
M  V30 15 1 5 16
M  V30 16 1 6 17
M  V30 17 1 7 18
M  V30 18 1 7 19
M  V30 19 1 9 20
M  V30 END BOND
M  V30 END CTAB
M  END
