
     RDKit          3D

  0  0  0  0  0  0  0  0  0  0999 V3000
M  V30 BEGIN CTAB
M  V30 COUNTS 44 46 0 0 0
M  V30 BEGIN ATOM
M  V30 1 C 0.0517325 -2.45281 -1.29125 0
M  V30 2 O 1.00905 -1.74899 -0.545841 0
M  V30 3 C 0.662174 -0.828437 0.443463 0
M  V30 4 C -0.654908 -0.546374 0.757474 0
M  V30 5 C -0.976084 0.364369 1.73605 0
M  V30 6 C -2.36475 0.652657 2.05722 0
M  V30 7 N -3.39159 0.136988 1.50294 0
M  V30 8 N -4.69471 0.468867 1.8722 0
M  V30 9 C -5.55197 0.706887 0.955251 0
M  V30 10 C -5.12559 0.619708 -0.426475 0
M  V30 11 N -3.92062 0.315563 -0.93 0
M  V30 12 O -3.99064 0.355713 -2.22185 0
M  V30 13 N -5.1949 0.674658 -2.5992 0
M  V30 14 C -5.96051 0.854641 -1.49939 0
M  V30 15 N -7.34894 1.21433 -1.46286 0
M  V30 16 N -6.91324 1.0546 1.28262 0
M  V30 17 C 0.0659143 0.985405 2.392 0
M  V30 18 C 1.38233 0.740077 2.11735 0
M  V30 19 C 1.67303 -0.183302 1.12552 0
M  V30 20 O 3.01339 -0.4234 0.856263 0
M  V30 21 C 3.74689 0.285056 -0.0783297 0
M  V30 22 O 3.20506 1.18764 -0.72456 0
M  V30 23 C 5.14809 -0.0469985 -0.28382 0
M  V30 24 C 5.91848 0.637927 -1.21 0
M  V30 25 C 7.24359 0.306064 -1.38755 0
M  V30 26 C 7.8498 -0.700953 -0.667066 0
M  V30 27 C 7.09763 -1.37633 0.243447 0
M  V30 28 C 5.7717 -1.05764 0.433643 0
M  V30 29 Cl 9.54426 -1.04858 -0.966038 0
M  V30 30 H 0.495523 -3.36384 -1.73668 0
M  V30 31 H -0.428874 -1.8418 -2.07535 0
M  V30 32 H -0.727748 -2.81249 -0.567349 0
M  V30 33 H -1.45037 -1.04992 0.225212 0
M  V30 34 H -2.58249 1.38413 2.85309 0
M  V30 35 H -8.10407 0.533079 -1.23344 0
M  V30 36 H -7.64603 2.19185 -1.67026 0
M  V30 37 H -7.2535 2.02596 1.2112 0
M  V30 38 H -7.55726 0.303607 1.59615 0
M  V30 39 H -0.193728 1.71346 3.17431 0
M  V30 40 H 2.18839 1.24417 2.65016 0
M  V30 41 H 5.43056 1.4311 -1.77362 0
M  V30 42 H 7.82658 0.860327 -2.12213 0
M  V30 43 H 7.53615 -2.17057 0.826291 0
M  V30 44 H 5.17217 -1.5964 1.15976 0
M  V30 END ATOM
M  V30 BEGIN BOND
M  V30 1 1 1 2
M  V30 2 1 2 3
M  V30 3 2 3 4
M  V30 4 1 4 5
M  V30 5 1 5 6
M  V30 6 2 6 7
M  V30 7 1 7 8
M  V30 8 2 8 9
M  V30 9 1 9 10
M  V30 10 2 10 11
M  V30 11 1 11 12
M  V30 12 1 12 13
M  V30 13 2 13 14
M  V30 14 1 14 15
M  V30 15 1 9 16
M  V30 16 2 5 17
M  V30 17 1 17 18
M  V30 18 2 18 19
M  V30 19 1 19 20
M  V30 20 1 20 21
M  V30 21 2 21 22
M  V30 22 1 21 23
M  V30 23 2 23 24
M  V30 24 1 24 25
M  V30 25 2 25 26
M  V30 26 1 26 27
M  V30 27 2 27 28
M  V30 28 1 26 29
M  V30 29 1 19 3
M  V30 30 1 28 23
M  V30 31 1 14 10
M  V30 32 1 1 30
M  V30 33 1 1 31
M  V30 34 1 1 32
M  V30 35 1 4 33
M  V30 36 1 6 34
M  V30 37 1 15 35
M  V30 38 1 15 36
M  V30 39 1 16 37
M  V30 40 1 16 38
M  V30 41 1 17 39
M  V30 42 1 18 40
M  V30 43 1 24 41
M  V30 44 1 25 42
M  V30 45 1 27 43
M  V30 46 1 28 44
M  V30 END BOND
M  V30 END CTAB
M  END
