
     RDKit          3D

  0  0  0  0  0  0  0  0  0  0999 V3000
M  V30 BEGIN CTAB
M  V30 COUNTS 25 26 0 0 0
M  V30 BEGIN ATOM
M  V30 1 N 5.17924 0.239074 0.410941 0
M  V30 2 C 3.83964 0.187386 -0.0320877 0
M  V30 3 N 2.7904 0.0914293 0.78908 0
M  V30 4 C 1.49994 0.0425128 0.34378 0
M  V30 5 N 0.425066 -0.0598044 1.24243 0
M  V30 6 C 1.26213 0.0932022 -0.994658 0
M  V30 7 S -0.281472 0.0481479 -1.82507 0
M  V30 8 C -1.7185 -0.0694984 -0.822912 0
M  V30 9 C -2.27382 -1.26781 -0.438284 0
M  V30 10 C -3.41503 -1.3453 0.336682 0
M  V30 11 C -4.04913 -0.197965 0.759555 0
M  V30 12 Cl -5.49632 -0.310876 1.7424 0
M  V30 13 C -3.51156 1.01246 0.386891 0
M  V30 14 C -2.37196 1.08974 -0.386977 0
M  V30 15 C 2.38441 0.193808 -1.8308 0
M  V30 16 N 3.63085 0.23926 -1.36332 0
M  V30 17 H 5.67049 1.14304 0.447118 0
M  V30 18 H 5.66203 -0.623969 0.696427 0
M  V30 19 H -0.0433966 0.777844 1.62786 0
M  V30 20 H 0.0931099 -0.995129 1.53911 0
M  V30 21 H -1.76835 -2.17746 -0.775406 0
M  V30 22 H -3.82163 -2.32458 0.618962 0
M  V30 23 H -4.0076 1.9277 0.717564 0
M  V30 24 H -1.95259 2.04697 -0.677783 0
M  V30 25 H 2.27406 0.239822 -2.92608 0
M  V30 END ATOM
M  V30 BEGIN BOND
M  V30 1 1 1 2
M  V30 2 2 2 3
M  V30 3 1 3 4
M  V30 4 1 4 5
M  V30 5 2 4 6
M  V30 6 1 6 7
M  V30 7 1 7 8
M  V30 8 2 8 9
M  V30 9 1 9 10
M  V30 10 2 10 11
M  V30 11 1 11 12
M  V30 12 1 11 13
M  V30 13 2 13 14
M  V30 14 1 6 15
M  V30 15 2 15 16
M  V30 16 1 16 2
M  V30 17 1 14 8
M  V30 18 1 1 17
M  V30 19 1 1 18
M  V30 20 1 5 19
M  V30 21 1 5 20
M  V30 22 1 9 21
M  V30 23 1 10 22
M  V30 24 1 13 23
M  V30 25 1 14 24
M  V30 26 1 15 25
M  V30 END BOND
M  V30 END CTAB
M  END
