
     RDKit          3D

  0  0  0  0  0  0  0  0  0  0999 V3000
M  V30 BEGIN CTAB
M  V30 COUNTS 57 59 0 0 0
M  V30 BEGIN ATOM
M  V30 1 C 1.64865 -0.477166 0.409886 0 CFG=2
M  V30 2 C 1.13087 -1.09807 1.6984 0
M  V30 3 C -0.347606 -1.37919 1.67142 0
M  V30 4 C -1.09191 -0.648031 0.620905 0
M  V30 5 C -0.499283 -0.308912 -0.599723 0
M  V30 6 C -1.15809 0.432184 -1.49945 0
M  V30 7 C -2.46244 0.909353 -1.29759 0
M  V30 8 N -3.07404 1.61773 -2.33611 0
M  V30 9 C -3.07316 0.589987 -0.114589 0
M  V30 10 C -4.39819 1.14443 0.195662 0
M  V30 11 C -5.55406 0.181017 -0.0387084 0
M  V30 12 C -4.66023 2.58389 0.0780778 0
M  V30 13 C -2.36621 -0.19269 0.833315 0
M  V30 14 N -2.9975 -0.483916 2.08143 0
M  V30 15 C 0.853698 -0.936533 -0.781479 0 CFG=2
M  V30 16 C 0.597432 -2.42763 -0.785857 0
M  V30 17 C 1.55984 -0.479671 -2.01615 0
M  V30 18 C 2.81609 -1.29116 -2.14572 0
M  V30 19 C 3.50001 -1.5615 -0.862105 0
M  V30 20 C 3.12373 -0.577303 0.239892 0 CFG=2
M  V30 21 C 3.84923 -1.02325 1.47777 0
M  V30 22 C 3.75313 0.703605 -0.164154 0
M  V30 23 O 4.49856 0.765604 -1.1723 0
M  V30 24 O 3.534 1.84926 0.561217 0
M  V30 25 C 4.16055 3.04874 0.127197 0
M  V30 26 H 1.42935 0.628556 0.506847 0
M  V30 27 H 1.65544 -2.01414 1.95545 0
M  V30 28 H 1.34495 -0.343722 2.5122 0
M  V30 29 H -0.585758 -2.44678 1.60924 0
M  V30 30 H -0.771415 -1.05686 2.6605 0
M  V30 31 H -0.669399 0.670517 -2.4423 0
M  V30 32 H -2.68507 1.43994 -3.33641 0
M  V30 33 H -3.83637 2.2811 -2.34018 0
M  V30 34 H -4.36597 1.03442 1.41097 0
M  V30 35 H -6.34784 0.381435 0.697924 0
M  V30 36 H -6.00917 0.363678 -1.05733 0
M  V30 37 H -5.18208 -0.835147 0.0973765 0
M  V30 38 H -5.20138 3.0198 0.975853 0
M  V30 39 H -5.39868 2.78237 -0.753889 0
M  V30 40 H -3.76022 3.21187 -0.0808268 0
M  V30 41 H -2.7181 0.0630425 2.9097 0
M  V30 42 H -3.70997 -1.22248 2.20122 0
M  V30 43 H -0.509852 -2.64529 -0.71114 0
M  V30 44 H 0.845 -2.79298 -1.82811 0
M  V30 45 H 1.0772 -2.99315 0.00798678 0
M  V30 46 H 0.902877 -0.661657 -2.89861 0
M  V30 47 H 1.75455 0.614329 -1.92762 0
M  V30 48 H 3.50753 -0.764538 -2.88176 0
M  V30 49 H 2.57128 -2.23818 -2.64989 0
M  V30 50 H 3.40064 -2.60527 -0.461929 0
M  V30 51 H 4.60313 -1.43473 -1.04121 0
M  V30 52 H 3.75182 -0.35026 2.31681 0
M  V30 53 H 4.94417 -0.998534 1.18895 0
M  V30 54 H 3.68274 -2.09007 1.73392 0
M  V30 55 H 5.13149 3.16466 0.61283 0
M  V30 56 H 4.29804 2.97138 -0.953845 0
M  V30 57 H 3.508 3.9259 0.323547 0
M  V30 END ATOM
M  V30 BEGIN BOND
M  V30 1 1 1 2
M  V30 2 1 2 3
M  V30 3 1 3 4
M  V30 4 2 4 5
M  V30 5 1 5 6
M  V30 6 2 6 7
M  V30 7 1 7 8
M  V30 8 1 7 9
M  V30 9 1 9 10
M  V30 10 1 10 11
M  V30 11 1 10 12
M  V30 12 2 9 13
M  V30 13 1 13 14
M  V30 14 1 5 15
M  V30 15 1 15 16 CFG=3
M  V30 16 1 15 17
M  V30 17 1 17 18
M  V30 18 1 18 19
M  V30 19 1 19 20
M  V30 20 1 20 21
M  V30 21 1 20 22 CFG=3
M  V30 22 2 22 23
M  V30 23 1 22 24
M  V30 24 1 24 25
M  V30 25 1 15 1
M  V30 26 1 20 1
M  V30 27 1 13 4
M  V30 28 1 1 26 CFG=1
M  V30 29 1 2 27
M  V30 30 1 2 28
M  V30 31 1 3 29
M  V30 32 1 3 30
M  V30 33 1 6 31
M  V30 34 1 8 32
M  V30 35 1 8 33
M  V30 36 1 10 34
M  V30 37 1 11 35
M  V30 38 1 11 36
M  V30 39 1 11 37
M  V30 40 1 12 38
M  V30 41 1 12 39
M  V30 42 1 12 40
M  V30 43 1 14 41
M  V30 44 1 14 42
M  V30 45 1 16 43
M  V30 46 1 16 44
M  V30 47 1 16 45
M  V30 48 1 17 46
M  V30 49 1 17 47
M  V30 50 1 18 48
M  V30 51 1 18 49
M  V30 52 1 19 50
M  V30 53 1 19 51
M  V30 54 1 21 52
M  V30 55 1 21 53
M  V30 56 1 21 54
M  V30 57 1 25 55
M  V30 58 1 25 56
M  V30 59 1 25 57
M  V30 END BOND
M  V30 END CTAB
M  END
