
     RDKit          3D

  0  0  0  0  0  0  0  0  0  0999 V3000
M  V30 BEGIN CTAB
M  V30 COUNTS 31 32 0 0 0
M  V30 BEGIN ATOM
M  V30 1 N 0.647537 -2.70698 0.21652 0
M  V30 2 C -0.0825828 -1.99759 -0.793149 0
M  V30 3 C -0.386789 -0.567211 -0.302979 0
M  V30 4 C -1.13499 0.0815699 -1.41771 0
M  V30 5 C -1.60894 1.43414 -0.934453 0
M  V30 6 C -2.64641 1.15701 0.126589 0
M  V30 7 C -2.14677 0.36107 1.26996 0
M  V30 8 C -1.16928 -0.702873 0.965634 0
M  V30 9 C 0.921641 0.0772723 -0.0073813 0
M  V30 10 N 1.37479 0.447433 1.22764 0
M  V30 11 N 2.56605 0.976008 1.15281 0
M  V30 12 C 2.93153 0.97037 -0.12254 0
M  V30 13 N 1.92174 0.418726 -0.836928 0
M  V30 14 N 4.17285 1.46453 -0.600735 0
M  V30 15 H 0.105281 -3.39335 0.741432 0
M  V30 16 H 1.55346 -3.00222 -0.148479 0
M  V30 17 H 0.353341 -2.00543 -1.78928 0
M  V30 18 H -1.10406 -2.46794 -0.877159 0
M  V30 19 H -2.04723 -0.520597 -1.59704 0
M  V30 20 H -0.480871 0.147871 -2.30169 0
M  V30 21 H -2.12442 2.00495 -1.73263 0
M  V30 22 H -0.719818 1.96899 -0.539071 0
M  V30 23 H -3.46782 0.596458 -0.37678 0
M  V30 24 H -3.02789 2.14129 0.45932 0
M  V30 25 H -3.03756 -0.127118 1.76142 0
M  V30 26 H -1.77046 1.08084 2.05546 0
M  V30 27 H -1.64277 -1.72834 1.00913 0
M  V30 28 H -0.420227 -0.729087 1.80879 0
M  V30 29 H 3.17987 1.35563 1.93755 0
M  V30 30 H 5.0322 0.929559 -0.381681 0
M  V30 31 H 4.2586 2.33501 -1.15542 0
M  V30 END ATOM
M  V30 BEGIN BOND
M  V30 1 1 1 2
M  V30 2 1 2 3
M  V30 3 1 3 4
M  V30 4 1 4 5
M  V30 5 1 5 6
M  V30 6 1 6 7
M  V30 7 1 7 8
M  V30 8 1 3 9
M  V30 9 2 9 10
M  V30 10 1 10 11
M  V30 11 1 11 12
M  V30 12 2 12 13
M  V30 13 1 12 14
M  V30 14 1 8 3
M  V30 15 1 13 9
M  V30 16 1 1 15
M  V30 17 1 1 16
M  V30 18 1 2 17
M  V30 19 1 2 18
M  V30 20 1 4 19
M  V30 21 1 4 20
M  V30 22 1 5 21
M  V30 23 1 5 22
M  V30 24 1 6 23
M  V30 25 1 6 24
M  V30 26 1 7 25
M  V30 27 1 7 26
M  V30 28 1 8 27
M  V30 29 1 8 28
M  V30 30 1 11 29
M  V30 31 1 14 30
M  V30 32 1 14 31
M  V30 END BOND
M  V30 END CTAB
M  END
