
     RDKit          3D

  0  0  0  0  0  0  0  0  0  0999 V3000
M  V30 BEGIN CTAB
M  V30 COUNTS 34 36 0 0 0
M  V30 BEGIN ATOM
M  V30 1 N -2.95469 1.62357 0.964015 0
M  V30 2 C -2.90065 0.183775 0.844456 0 CFG=1
M  V30 3 C -3.34084 -0.301431 -0.482936 0
M  V30 4 C -2.33077 -0.342309 -1.55688 0
M  V30 5 C -0.902381 -0.39207 -1.14537 0
M  V30 6 C -0.620794 0.374396 0.118282 0 CFG=1
M  V30 7 C -1.47914 -0.276423 1.18663 0 CFG=1
M  V30 8 O -1.12755 0.0739114 2.4576 0
M  V30 9 N 0.754762 0.423479 0.460261 0
M  V30 10 C 1.24037 1.14565 1.49553 0
M  V30 11 N 2.57155 1.00146 1.57737 0
M  V30 12 C 2.96271 0.190625 0.604188 0
M  V30 13 C 1.81205 -0.164425 -0.089035 0
M  V30 14 N 1.94884 -0.98841 -1.13073 0
M  V30 15 C 3.14843 -1.46621 -1.50844 0
M  V30 16 N 4.26869 -1.1111 -0.821281 0
M  V30 17 C 4.21729 -0.291793 0.231588 0
M  V30 18 N 5.32916 0.122215 0.993484 0
M  V30 19 H -3.52109 1.95457 1.75554 0
M  V30 20 H -3.21357 2.04683 0.0458682 0
M  V30 21 H -3.58373 -0.218274 1.64582 0
M  V30 22 H -3.81477 -1.31321 -0.335542 0
M  V30 23 H -4.20948 0.349938 -0.801537 0
M  V30 24 H -2.46959 0.529809 -2.24721 0
M  V30 25 H -2.52521 -1.2373 -2.20272 0
M  V30 26 H -0.594702 -1.44337 -0.967361 0
M  V30 27 H -0.28445 0.0222477 -1.96816 0
M  V30 28 H -1.01301 1.41909 -0.0605278 0
M  V30 29 H -1.4943 -1.38702 1.01965 0
M  V30 30 H -1.31009 -0.707131 3.067 0
M  V30 31 H 0.655591 1.76782 2.18477 0
M  V30 32 H 3.22543 -2.13342 -2.35877 0
M  V30 33 H 6.01869 -0.578602 1.35561 0
M  V30 34 H 5.53723 1.1231 1.2425 0
M  V30 END ATOM
M  V30 BEGIN BOND
M  V30 1 1 1 2
M  V30 2 1 2 3
M  V30 3 1 3 4
M  V30 4 1 4 5
M  V30 5 1 5 6
M  V30 6 1 6 7
M  V30 7 1 7 8
M  V30 8 1 6 9
M  V30 9 1 9 10
M  V30 10 2 10 11
M  V30 11 1 11 12
M  V30 12 2 12 13
M  V30 13 1 13 14
M  V30 14 2 14 15
M  V30 15 1 15 16
M  V30 16 2 16 17
M  V30 17 1 17 18
M  V30 18 1 7 2
M  V30 19 1 13 9
M  V30 20 1 17 12
M  V30 21 1 1 19
M  V30 22 1 1 20
M  V30 23 1 2 21 CFG=1
M  V30 24 1 3 22
M  V30 25 1 3 23
M  V30 26 1 4 24
M  V30 27 1 4 25
M  V30 28 1 5 26
M  V30 29 1 5 27
M  V30 30 1 6 28 CFG=3
M  V30 31 1 7 29 CFG=1
M  V30 32 1 8 30
M  V30 33 1 10 31
M  V30 34 1 15 32
M  V30 35 1 18 33
M  V30 36 1 18 34
M  V30 END BOND
M  V30 END CTAB
M  END
