
     RDKit          3D

  0  0  0  0  0  0  0  0  0  0999 V3000
M  V30 BEGIN CTAB
M  V30 COUNTS 24 24 0 0 0
M  V30 BEGIN ATOM
M  V30 1 N 3.54621 2.35289 0.54421 0
M  V30 2 N 2.3656 1.6178 0.425595 0
M  V30 3 C 2.40606 0.222294 0.420623 0
M  V30 4 O 3.53701 -0.370218 0.526007 0
M  V30 5 C 1.23171 -0.634806 0.301829 0
M  V30 6 N 0.0141564 -0.103744 0.187847 0
M  V30 7 C -1.08723 -0.856916 0.0767218 0
M  V30 8 C -0.985955 -2.25431 0.0774037 0
M  V30 9 C 0.250239 -2.84383 0.192804 0
M  V30 10 O 0.358575 -4.09481 0.195119 0
M  V30 11 C 1.33863 -2.0071 0.303222 0
M  V30 12 C -2.43589 -0.321907 -0.0499607 0
M  V30 13 O -3.43246 -1.09108 -0.150928 0
M  V30 14 N -2.71188 1.06694 -0.0678123 0
M  V30 15 N -4.03673 1.54089 -0.192621 0
M  V30 16 H 3.97485 2.05648 1.46625 0
M  V30 17 H 4.1975 1.99525 -0.189983 0
M  V30 18 H 1.47114 2.13748 0.342574 0
M  V30 19 H -0.130803 0.936858 0.180639 0
M  V30 20 H -1.89407 -2.87196 -0.0141888 0
M  V30 21 H 2.33627 -2.42754 0.3967 0
M  V30 22 H -1.91741 1.74029 0.0130764 0
M  V30 23 H -4.26096 1.7493 -1.20267 0
M  V30 24 H -4.13458 2.46176 0.29929 0
M  V30 END ATOM
M  V30 BEGIN BOND
M  V30 1 1 1 2
M  V30 2 1 2 3
M  V30 3 2 3 4
M  V30 4 1 3 5
M  V30 5 1 5 6
M  V30 6 1 6 7
M  V30 7 2 7 8
M  V30 8 1 8 9
M  V30 9 2 9 10
M  V30 10 1 9 11
M  V30 11 1 7 12
M  V30 12 2 12 13
M  V30 13 1 12 14
M  V30 14 1 14 15
M  V30 15 2 11 5
M  V30 16 1 1 16
M  V30 17 1 1 17
M  V30 18 1 2 18
M  V30 19 1 6 19
M  V30 20 1 8 20
M  V30 21 1 11 21
M  V30 22 1 14 22
M  V30 23 1 15 23
M  V30 24 1 15 24
M  V30 END BOND
M  V30 END CTAB
M  END
