
     RDKit          3D

  0  0  0  0  0  0  0  0  0  0999 V3000
M  V30 BEGIN CTAB
M  V30 COUNTS 26 25 0 0 0
M  V30 BEGIN ATOM
M  V30 1 C -2.19305 0.401576 -0.568355 0 CFG=1
M  V30 2 N -1.74836 1.75387 -0.481362 0
M  V30 3 C -1.25594 -0.463443 0.242128 0
M  V30 4 C 0.129645 -0.27962 -0.38548 0
M  V30 5 C 1.08148 -1.12351 0.39096 0
M  V30 6 N 2.42434 -1.0365 -0.128298 0
M  V30 7 C 3.26734 0.0874072 -0.0456743 0
M  V30 8 N 2.80223 1.39321 -0.275551 0
M  V30 9 N 4.50641 -0.070524 0.246554 0
M  V30 10 C -3.56837 0.211209 -0.0238114 0
M  V30 11 O -4.15651 -1.06256 -0.0200694 0
M  V30 12 O -4.23696 1.15547 0.44013 0
M  V30 13 H -2.12966 0.0462231 -1.61162 0
M  V30 14 H -1.09846 1.96636 0.279432 0
M  V30 15 H -2.58081 2.38877 -0.448546 0
M  V30 16 H -1.26667 -0.0732679 1.27548 0
M  V30 17 H -1.55626 -1.52976 0.206188 0
M  V30 18 H 0.402022 0.770583 -0.414664 0
M  V30 19 H 0.0083997 -0.627287 -1.43904 0
M  V30 20 H 1.15361 -0.710025 1.44566 0
M  V30 21 H 0.742989 -2.17428 0.503128 0
M  V30 22 H 2.75637 -1.9333 -0.609149 0
M  V30 23 H 2.57927 1.79472 -1.19716 0
M  V30 24 H 2.67096 2.0142 0.569968 0
M  V30 25 H 4.85915 -1.03066 0.416252 0
M  V30 26 H -3.59316 -1.86887 0.137813 0
M  V30 END ATOM
M  V30 BEGIN BOND
M  V30 1 1 1 2
M  V30 2 1 1 3
M  V30 3 1 3 4
M  V30 4 1 4 5
M  V30 5 1 5 6
M  V30 6 1 6 7
M  V30 7 1 7 8
M  V30 8 2 7 9 CFG=2
M  V30 9 1 1 10
M  V30 10 1 10 11
M  V30 11 2 10 12
M  V30 12 1 1 13 CFG=3
M  V30 13 1 2 14
M  V30 14 1 2 15
M  V30 15 1 3 16
M  V30 16 1 3 17
M  V30 17 1 4 18
M  V30 18 1 4 19
M  V30 19 1 5 20
M  V30 20 1 5 21
M  V30 21 1 6 22
M  V30 22 1 8 23
M  V30 23 1 8 24
M  V30 24 1 9 25
M  V30 25 1 11 26
M  V30 END BOND
M  V30 END CTAB
M  END
