
     RDKit          3D

  0  0  0  0  0  0  0  0  0  0999 V3000
M  V30 BEGIN CTAB
M  V30 COUNTS 25 24 0 0 0
M  V30 BEGIN ATOM
M  V30 1 C 3.83989 -0.344662 -0.212602 0
M  V30 2 C 2.57716 0.261789 0.364044 0
M  V30 3 C 1.39905 -0.431904 -0.286887 0
M  V30 4 S -0.179576 0.218457 0.332155 0
M  V30 5 C -1.49582 -0.668817 -0.501034 0
M  V30 6 C -2.87113 -0.22684 -0.0793697 0
M  V30 7 N -3.04342 1.19185 -0.376959 0
M  V30 8 C -3.19552 -0.561897 1.33957 0
M  V30 9 N 2.52401 1.68254 0.144899 0
M  V30 10 H 4.67274 0.331729 0.0770687 0
M  V30 11 H 4.04867 -1.32031 0.259168 0
M  V30 12 H 3.79263 -0.392821 -1.31018 0
M  V30 13 H 2.58096 0.0850554 1.45939 0
M  V30 14 H 1.4835 -0.38097 -1.38129 0
M  V30 15 H 1.43567 -1.51312 -0.0149368 0
M  V30 16 H -1.4115 -0.454993 -1.59374 0
M  V30 17 H -1.37647 -1.74543 -0.288161 0
M  V30 18 H -3.5946 -0.777655 -0.726387 0
M  V30 19 H -3.62841 1.33432 -1.24548 0
M  V30 20 H -3.62311 1.61433 0.400439 0
M  V30 21 H -4.13528 -0.0164666 1.60429 0
M  V30 22 H -3.42445 -1.63922 1.41467 0
M  V30 23 H -2.44175 -0.27424 2.06903 0
M  V30 24 H 3.06133 1.87508 -0.741918 0
M  V30 25 H 3.00542 2.1542 0.957658 0
M  V30 END ATOM
M  V30 BEGIN BOND
M  V30 1 1 1 2
M  V30 2 1 2 3
M  V30 3 1 3 4
M  V30 4 1 4 5
M  V30 5 1 5 6
M  V30 6 1 6 7
M  V30 7 1 6 8
M  V30 8 1 2 9
M  V30 9 1 1 10
M  V30 10 1 1 11
M  V30 11 1 1 12
M  V30 12 1 2 13
M  V30 13 1 3 14
M  V30 14 1 3 15
M  V30 15 1 5 16
M  V30 16 1 5 17
M  V30 17 1 6 18
M  V30 18 1 7 19
M  V30 19 1 7 20
M  V30 20 1 8 21
M  V30 21 1 8 22
M  V30 22 1 8 23
M  V30 23 1 9 24
M  V30 24 1 9 25
M  V30 END BOND
M  V30 END CTAB
M  END
