
     RDKit          3D

  0  0  0  0  0  0  0  0  0  0999 V3000
M  V30 BEGIN CTAB
M  V30 COUNTS 35 36 0 0 0
M  V30 BEGIN ATOM
M  V30 1 C 4.69371 1.92888 0.353932 0
M  V30 2 C 3.62714 1.58499 1.34062 0
M  V30 3 O 2.58298 0.8032 0.848148 0
M  V30 4 C 2.64738 -0.452591 0.319086 0
M  V30 5 C 3.83034 -1.12426 0.216555 0
M  V30 6 C 3.82572 -2.39636 -0.32968 0
M  V30 7 C 2.68486 -3.01075 -0.771815 0
M  V30 8 C 1.49458 -2.31547 -0.660051 0
M  V30 9 C 1.45505 -1.04997 -0.123676 0
M  V30 10 C 0.180208 -0.312131 -0.00689537 0
M  V30 11 S -1.1582 -1.34633 -0.659734 0
M  V30 12 C -2.70659 -0.466625 -0.524891 0
M  V30 13 N -3.4264 -0.610694 0.609964 0
M  V30 14 C -4.60993 0.0232669 0.787533 0
M  V30 15 N -5.37193 -0.133963 1.99808 0
M  V30 16 C -5.11877 0.843586 -0.198129 0
M  V30 17 C -4.36838 0.985211 -1.36459 0
M  V30 18 N -3.18432 0.325603 -1.49306 0
M  V30 19 N -4.87146 1.82136 -2.38783 0
M  V30 20 H 5.68421 1.53829 0.686454 0
M  V30 21 H 4.8122 3.02071 0.251943 0
M  V30 22 H 4.45484 1.49178 -0.636364 0
M  V30 23 H 3.22267 2.54382 1.76741 0
M  V30 24 H 4.07521 1.04812 2.21921 0
M  V30 25 H 4.78283 -0.685486 0.559364 0
M  V30 26 H 4.7507 -2.93952 -0.417746 0
M  V30 27 H 2.718 -4.00476 -1.19289 0
M  V30 28 H 0.585719 -2.81252 -1.01544 0
M  V30 29 H 0.217073 0.671784 -0.521359 0
M  V30 30 H -0.010057 -0.15581 1.07777 0
M  V30 31 H -6.36102 -0.465031 1.87257 0
M  V30 32 H -4.97429 0.0652983 2.93271 0
M  V30 33 H -6.05628 1.33472 -0.0360598 0
M  V30 34 H -4.80093 1.5296 -3.37825 0
M  V30 35 H -5.30685 2.72206 -2.12289 0
M  V30 END ATOM
M  V30 BEGIN BOND
M  V30 1 1 1 2
M  V30 2 1 2 3
M  V30 3 1 3 4
M  V30 4 2 4 5
M  V30 5 1 5 6
M  V30 6 2 6 7
M  V30 7 1 7 8
M  V30 8 2 8 9
M  V30 9 1 9 10
M  V30 10 1 10 11
M  V30 11 1 11 12
M  V30 12 2 12 13
M  V30 13 1 13 14
M  V30 14 1 14 15
M  V30 15 2 14 16
M  V30 16 1 16 17
M  V30 17 2 17 18
M  V30 18 1 17 19
M  V30 19 1 9 4
M  V30 20 1 18 12
M  V30 21 1 1 20
M  V30 22 1 1 21
M  V30 23 1 1 22
M  V30 24 1 2 23
M  V30 25 1 2 24
M  V30 26 1 5 25
M  V30 27 1 6 26
M  V30 28 1 7 27
M  V30 29 1 8 28
M  V30 30 1 10 29
M  V30 31 1 10 30
M  V30 32 1 15 31
M  V30 33 1 15 32
M  V30 34 1 16 33
M  V30 35 1 19 34
M  V30 36 1 19 35
M  V30 END BOND
M  V30 END CTAB
M  END
