
     RDKit          3D

  0  0  0  0  0  0  0  0  0  0999 V3000
M  V30 BEGIN CTAB
M  V30 COUNTS 24 24 0 0 0
M  V30 BEGIN ATOM
M  V30 1 N -3.86071 -0.212679 -0.43122 0
M  V30 2 C -2.79905 -0.935854 0.123682 0
M  V30 3 C -1.53352 -0.433251 -0.521734 0 CFG=1
M  V30 4 O -1.31785 0.903335 -0.311358 0
M  V30 5 C 0.021814 1.17013 -0.391797 0
M  V30 6 C 0.746703 -0.15724 -0.551897 0 CFG=2
M  V30 7 C -0.293292 -1.10172 0.018347 0
M  V30 8 C 2.01608 -0.197688 0.160944 0
M  V30 9 O 2.24191 -1.04144 1.0629 0
M  V30 10 N 3.0188 0.738131 -0.172692 0
M  V30 11 N 4.25989 0.758924 0.468323 0
M  V30 12 H -4.64399 -0.620562 -0.795805 0
M  V30 13 H -3.63542 0.703137 -0.705202 0
M  V30 14 H -2.74047 -0.614265 1.20563 0
M  V30 15 H -2.89778 -2.02015 0.0763039 0
M  V30 16 H -1.57402 -0.665679 -1.6109 0
M  V30 17 H 0.331057 1.67417 0.559218 0
M  V30 18 H 0.223067 1.85902 -1.2267 0
M  V30 19 H 0.849536 -0.394901 -1.62833 0
M  V30 20 H -0.272795 -1.04779 1.14074 0
M  V30 21 H -0.15811 -2.13533 -0.34781 0
M  V30 22 H 2.84605 1.43998 -0.91492 0
M  V30 23 H 4.96015 1.28514 -0.100793 0
M  V30 24 H 4.21194 1.04657 1.45828 0
M  V30 END ATOM
M  V30 BEGIN BOND
M  V30 1 1 1 2
M  V30 2 1 2 3
M  V30 3 1 3 4
M  V30 4 1 4 5
M  V30 5 1 5 6
M  V30 6 1 6 7
M  V30 7 1 6 8
M  V30 8 2 8 9
M  V30 9 1 8 10
M  V30 10 1 10 11
M  V30 11 1 7 3
M  V30 12 1 1 12
M  V30 13 1 1 13
M  V30 14 1 2 14
M  V30 15 1 2 15
M  V30 16 1 3 16 CFG=3
M  V30 17 1 5 17
M  V30 18 1 5 18
M  V30 19 1 6 19 CFG=3
M  V30 20 1 7 20
M  V30 21 1 7 21
M  V30 22 1 10 22
M  V30 23 1 11 23
M  V30 24 1 11 24
M  V30 END BOND
M  V30 END CTAB
M  END
