
     RDKit          3D

  0  0  0  0  0  0  0  0  0  0999 V3000
M  V30 BEGIN CTAB
M  V30 COUNTS 21 20 0 0 0
M  V30 BEGIN ATOM
M  V30 1 C -0.843651 -1.20389 1.04422 0
M  V30 2 C -1.02736 0.180048 0.401679 0
M  V30 3 C -2.42617 0.298986 -0.0880782 0
M  V30 4 C -3.06859 1.47276 -0.123915 0
M  V30 5 N -0.137712 0.195212 -0.734909 0
M  V30 6 C 1.2687 0.0229429 -0.620364 0
M  V30 7 N 2.09027 1.03865 -0.68046 0
M  V30 8 N 3.4677 0.902749 -0.572012 0
M  V30 9 N 1.8839 -1.24604 -0.434469 0
M  V30 10 H 0.148314 -1.23937 1.49131 0
M  V30 11 H -1.67439 -1.31399 1.76272 0
M  V30 12 H -0.945176 -1.93541 0.22132 0
M  V30 13 H -0.78263 0.974268 1.14343 0
M  V30 14 H -2.90562 -0.610472 -0.416488 0
M  V30 15 H -2.60294 2.3733 0.197974 0
M  V30 16 H -4.08727 1.48913 -0.492454 0
M  V30 17 H -0.541671 0.338789 -1.68074 0
M  V30 18 H 4.07601 0.646157 -1.36644 0
M  V30 19 H 3.9003 1.06781 0.352223 0
M  V30 20 H 1.49205 -2.07253 -0.911768 0
M  V30 21 H 2.71593 -1.37911 0.164518 0
M  V30 END ATOM
M  V30 BEGIN BOND
M  V30 1 1 1 2
M  V30 2 1 2 3
M  V30 3 2 3 4 CFG=2
M  V30 4 1 2 5
M  V30 5 1 5 6
M  V30 6 2 6 7
M  V30 7 1 7 8
M  V30 8 1 6 9
M  V30 9 1 1 10
M  V30 10 1 1 11
M  V30 11 1 1 12
M  V30 12 1 2 13
M  V30 13 1 3 14
M  V30 14 1 4 15
M  V30 15 1 4 16
M  V30 16 1 5 17
M  V30 17 1 8 18
M  V30 18 1 8 19
M  V30 19 1 9 20
M  V30 20 1 9 21
M  V30 END BOND
M  V30 END CTAB
M  END
