
     RDKit          3D

  0  0  0  0  0  0  0  0  0  0999 V3000
M  V30 BEGIN CTAB
M  V30 COUNTS 19 19 0 0 0
M  V30 BEGIN ATOM
M  V30 1 F 2.72714 1.02296 0.145008 0
M  V30 2 C 1.4482 0.582069 0.0688547 0
M  V30 3 C 0.376419 1.44645 -0.054349 0
M  V30 4 N 0.603763 2.8271 -0.0961987 0
M  V30 5 C -0.909487 0.906245 -0.119992 0
M  V30 6 C -1.15408 -0.448877 -0.0682038 0
M  V30 7 C -0.0547849 -1.27895 0.0542818 0
M  V30 8 C 1.23759 -0.785273 0.123261 0
M  V30 9 N 2.34657 -1.6608 0.258362 0
M  V30 10 C -2.54583 -0.996572 -0.142052 0
M  V30 11 F -2.68216 -1.94014 -1.12838 0
M  V30 12 F -3.42329 0.0522679 -0.318374 0
M  V30 13 F -2.82335 -1.64017 1.06902 0
M  V30 14 H 1.15124 3.22595 -0.881506 0
M  V30 15 H 0.219169 3.45637 0.634379 0
M  V30 16 H -1.76422 1.56539 -0.212638 0
M  V30 17 H -0.231848 -2.36718 0.0964414 0
M  V30 18 H 3.01898 -1.5539 1.01615 0
M  V30 19 H 2.45997 -2.41294 -0.444063 0
M  V30 END ATOM
M  V30 BEGIN BOND
M  V30 1 1 1 2
M  V30 2 2 2 3
M  V30 3 1 3 4
M  V30 4 1 3 5
M  V30 5 2 5 6
M  V30 6 1 6 7
M  V30 7 2 7 8
M  V30 8 1 8 9
M  V30 9 1 6 10
M  V30 10 1 10 11
M  V30 11 1 10 12
M  V30 12 1 10 13
M  V30 13 1 8 2
M  V30 14 1 4 14
M  V30 15 1 4 15
M  V30 16 1 5 16
M  V30 17 1 7 17
M  V30 18 1 9 18
M  V30 19 1 9 19
M  V30 END BOND
M  V30 END CTAB
M  END
