
     RDKit          3D

  0  0  0  0  0  0  0  0  0  0999 V3000
M  V30 BEGIN CTAB
M  V30 COUNTS 24 24 0 0 0
M  V30 BEGIN ATOM
M  V30 1 C 3.43059 -1.59589 -0.00328667 0
M  V30 2 N 2.02127 -1.88661 0.083793 0
M  V30 3 C 1.09295 -0.826423 -0.019248 0
M  V30 4 N 1.5078 0.440343 -0.19626 0
M  V30 5 C 0.695771 1.48506 -0.301402 0
M  V30 6 N 1.22832 2.78764 -0.487184 0
M  V30 7 C -0.675595 1.22566 -0.219635 0
M  V30 8 N -1.56202 2.31012 -0.327229 0
M  V30 9 C -1.14427 -0.0566595 -0.0387234 0
M  V30 10 N -2.54064 -0.328237 0.0454776 0
M  V30 11 C -3.05418 -1.65683 0.233894 0
M  V30 12 N -0.240867 -1.04385 0.0558138 0
M  V30 13 H 4.05402 -2.36894 0.487274 0
M  V30 14 H 3.58425 -0.608581 0.496048 0
M  V30 15 H 3.68524 -1.45362 -1.06678 0
M  V30 16 H 1.68835 -2.84736 0.218705 0
M  V30 17 H 0.786992 3.57582 0.0370398 0
M  V30 18 H 2.04114 2.96476 -1.12977 0
M  V30 19 H -2.04308 2.46132 -1.23559 0
M  V30 20 H -1.70788 2.9177 0.489125 0
M  V30 21 H -3.23938 0.448166 -0.029302 0
M  V30 22 H -3.82902 -1.63842 1.05371 0
M  V30 23 H -2.2483 -2.33552 0.561405 0
M  V30 24 H -3.53146 -1.96964 -0.716407 0
M  V30 END ATOM
M  V30 BEGIN BOND
M  V30 1 1 1 2
M  V30 2 1 2 3
M  V30 3 2 3 4
M  V30 4 1 4 5
M  V30 5 1 5 6
M  V30 6 2 5 7
M  V30 7 1 7 8
M  V30 8 1 7 9
M  V30 9 1 9 10
M  V30 10 1 10 11
M  V30 11 2 9 12
M  V30 12 1 12 3
M  V30 13 1 1 13
M  V30 14 1 1 14
M  V30 15 1 1 15
M  V30 16 1 2 16
M  V30 17 1 6 17
M  V30 18 1 6 18
M  V30 19 1 8 19
M  V30 20 1 8 20
M  V30 21 1 10 21
M  V30 22 1 11 22
M  V30 23 1 11 23
M  V30 24 1 11 24
M  V30 END BOND
M  V30 END CTAB
M  END
