
     RDKit          3D

  0  0  0  0  0  0  0  0  0  0999 V3000
M  V30 BEGIN CTAB
M  V30 COUNTS 47 49 0 0 0
M  V30 BEGIN ATOM
M  V30 1 C 5.22223 0.899942 -0.394296 0 CFG=1
M  V30 2 N 5.92745 0.977623 -1.63812 0
M  V30 3 C 4.5325 -0.42213 -0.189591 0
M  V30 4 C 3.51671 -0.729906 -1.24865 0
M  V30 5 S 2.19457 0.445079 -1.37503 0
M  V30 6 C 1.11031 0.491044 0.0580866 0
M  V30 7 C 0.322588 -0.750427 0.26727 0 CFG=1
M  V30 8 O -0.476653 -0.643833 1.36934 0
M  V30 9 C -1.75118 -1.08793 1.08063 0 CFG=2
M  V30 10 C -1.63162 -1.9267 -0.155208 0 CFG=2
M  V30 11 O -1.06745 -3.14965 0.223582 0
M  V30 12 C -0.535236 -1.14857 -0.901544 0 CFG=2
M  V30 13 O 0.0788192 -2.04998 -1.74216 0
M  V30 14 N -2.69059 -0.0098783 0.975031 0
M  V30 15 C -2.41973 1.26434 1.25686 0
M  V30 16 C -3.55487 1.99341 1.03823 0
M  V30 17 C -4.5573 1.14143 0.607987 0
M  V30 18 C -3.96315 -0.102836 0.585624 0
M  V30 19 N -4.77174 -1.12402 0.185967 0
M  V30 20 C -6.05351 -0.930954 -0.160396 0
M  V30 21 N -6.64438 0.259965 -0.145474 0
M  V30 22 C -5.88007 1.31685 0.24679 0
M  V30 23 N -6.46329 2.60707 0.279309 0
M  V30 24 C 6.19679 1.06415 0.713451 0
M  V30 25 O 5.81983 1.03806 2.06072 0
M  V30 26 O 7.41441 1.23514 0.484593 0
M  V30 27 H 4.52876 1.7574 -0.34383 0
M  V30 28 H 6.73991 1.61666 -1.63964 0
M  V30 29 H 5.30941 1.10321 -2.46253 0
M  V30 30 H 5.31716 -1.20597 -0.194744 0
M  V30 31 H 4.05049 -0.41581 0.79736 0
M  V30 32 H 4.05748 -0.756347 -2.22253 0
M  V30 33 H 3.1455 -1.76163 -1.0711 0
M  V30 34 H 0.422615 1.37277 -0.0906989 0
M  V30 35 H 1.64989 0.714581 1.00255 0
M  V30 36 H 1.05938 -1.59141 0.42119 0
M  V30 37 H -2.09654 -1.71669 1.95401 0
M  V30 38 H -2.53599 -2.03194 -0.745705 0
M  V30 39 H -1.70945 -3.7857 0.585471 0
M  V30 40 H -1.00688 -0.315837 -1.42352 0
M  V30 41 H 0.294337 -2.88283 -1.27254 0
M  V30 42 H -1.47927 1.65293 1.59505 0
M  V30 43 H -3.7027 3.07804 1.16626 0
M  V30 44 H -6.6077 -1.81489 -0.463904 0
M  V30 45 H -6.42032 3.15278 1.14857 0
M  V30 46 H -6.93234 3.00941 -0.557522 0
M  V30 47 H 6.0408 0.164001 2.55001 0
M  V30 END ATOM
M  V30 BEGIN BOND
M  V30 1 1 1 2
M  V30 2 1 1 3
M  V30 3 1 3 4
M  V30 4 1 4 5
M  V30 5 1 5 6
M  V30 6 1 6 7
M  V30 7 1 7 8
M  V30 8 1 8 9
M  V30 9 1 9 10
M  V30 10 1 10 11
M  V30 11 1 10 12
M  V30 12 1 12 13
M  V30 13 1 9 14
M  V30 14 1 14 15
M  V30 15 2 15 16
M  V30 16 1 16 17
M  V30 17 2 17 18
M  V30 18 1 18 19
M  V30 19 2 19 20
M  V30 20 1 20 21
M  V30 21 2 21 22
M  V30 22 1 22 23
M  V30 23 1 1 24
M  V30 24 1 24 25
M  V30 25 2 24 26
M  V30 26 1 12 7
M  V30 27 1 18 14
M  V30 28 1 22 17
M  V30 29 1 1 27 CFG=3
M  V30 30 1 2 28
M  V30 31 1 2 29
M  V30 32 1 3 30
M  V30 33 1 3 31
M  V30 34 1 4 32
M  V30 35 1 4 33
M  V30 36 1 6 34
M  V30 37 1 6 35
M  V30 38 1 7 36 CFG=1
M  V30 39 1 9 37 CFG=1
M  V30 40 1 10 38 CFG=3
M  V30 41 1 11 39
M  V30 42 1 12 40 CFG=3
M  V30 43 1 13 41
M  V30 44 1 15 42
M  V30 45 1 16 43
M  V30 46 1 20 44
M  V30 47 1 23 45
M  V30 48 1 23 46
M  V30 49 1 25 47
M  V30 END BOND
M  V30 END CTAB
M  END
