
     RDKit          3D

  0  0  0  0  0  0  0  0  0  0999 V3000
M  V30 BEGIN CTAB
M  V30 COUNTS 53 54 0 0 0
M  V30 BEGIN ATOM
M  V30 1 N 5.55105 0.169449 -2.18905 0
M  V30 2 C 6.21237 0.227402 -0.936279 0
M  V30 3 N 7.56167 0.400886 -0.868193 0
M  V30 4 C 8.17646 0.454491 0.324177 0
M  V30 5 N 9.59731 0.636474 0.420269 0
M  V30 6 C 7.40079 0.328996 1.45633 0
M  V30 7 Cl 8.21834 0.400767 3.02437 0
M  V30 8 N 6.06173 0.156759 1.38869 0
M  V30 9 C 5.44446 0.102896 0.198253 0
M  V30 10 C 4.00229 -0.0823652 0.124043 0
M  V30 11 O 3.44957 -0.128775 -1.0041 0
M  V30 12 N 3.18589 -0.213845 1.27224 0
M  V30 13 C 1.78202 -0.393228 1.21954 0
M  V30 14 N 1.13189 -0.506612 2.32115 0
M  V30 15 N 1.09082 -0.446568 -0.0440861 0
M  V30 16 C 0.443479 0.699396 -0.587517 0
M  V30 17 C -0.775446 1.16864 0.132597 0
M  V30 18 C -1.89175 0.172898 0.192951 0
M  V30 19 C -2.39703 -0.247036 -1.16857 0
M  V30 20 C -3.49737 -1.23487 -0.914004 0
M  V30 21 C -3.29223 -2.5862 -1.09221 0
M  V30 22 C -4.31608 -3.47802 -0.851805 0
M  V30 23 C -5.56563 -3.07447 -0.431634 0
M  V30 24 C -5.76776 -1.72168 -0.254271 0
M  V30 25 C -4.74548 -0.826191 -0.493897 0
M  V30 26 O -4.99339 0.518611 -0.303209 0
M  V30 27 C -6.22115 1.03227 0.120249 0
M  V30 28 C -6.06882 2.54956 0.200059 0
M  V30 29 O -5.07001 2.83305 1.1041 0
M  V30 30 H 5.14471 1.03518 -2.61365 0
M  V30 31 H 5.46665 -0.729584 -2.68969 0
M  V30 32 H 10.0931 1.29963 -0.217099 0
M  V30 33 H 10.1808 0.13039 1.10946 0
M  V30 34 H 3.65112 -0.175633 2.19465 0
M  V30 35 H 0.125517 -0.638996 2.42203 0
M  V30 36 H 1.10369 -1.37983 -0.519912 0
M  V30 37 H 1.15794 1.57632 -0.59355 0
M  V30 38 H 0.262048 0.498688 -1.66496 0
M  V30 39 H -1.16397 2.1221 -0.219395 0
M  V30 40 H -0.471259 1.3465 1.20592 0
M  V30 41 H -1.66987 -0.700134 0.837773 0
M  V30 42 H -2.75111 0.69461 0.697755 0
M  V30 43 H -1.65152 -0.729723 -1.79726 0
M  V30 44 H -2.85391 0.594642 -1.72084 0
M  V30 45 H -2.32739 -2.97024 -1.42279 0
M  V30 46 H -4.17008 -4.55236 -0.988123 0
M  V30 47 H -6.3662 -3.80353 -0.246346 0
M  V30 48 H -6.74846 -1.41157 0.075123 0
M  V30 49 H -7.07083 0.825168 -0.537099 0
M  V30 50 H -6.44868 0.66329 1.13915 0
M  V30 51 H -7.04516 2.97434 0.465652 0
M  V30 52 H -5.83427 2.89753 -0.826957 0
M  V30 53 H -5.32088 3.52051 1.76201 0
M  V30 END ATOM
M  V30 BEGIN BOND
M  V30 1 1 1 2
M  V30 2 2 2 3
M  V30 3 1 3 4
M  V30 4 1 4 5
M  V30 5 2 4 6
M  V30 6 1 6 7
M  V30 7 1 6 8
M  V30 8 2 8 9
M  V30 9 1 9 10
M  V30 10 2 10 11
M  V30 11 1 10 12
M  V30 12 1 12 13
M  V30 13 2 13 14 CFG=2
M  V30 14 1 13 15
M  V30 15 1 15 16
M  V30 16 1 16 17
M  V30 17 1 17 18
M  V30 18 1 18 19
M  V30 19 1 19 20
M  V30 20 2 20 21
M  V30 21 1 21 22
M  V30 22 2 22 23
M  V30 23 1 23 24
M  V30 24 2 24 25
M  V30 25 1 25 26
M  V30 26 1 26 27
M  V30 27 1 27 28
M  V30 28 1 28 29
M  V30 29 1 9 2
M  V30 30 1 25 20
M  V30 31 1 1 30
M  V30 32 1 1 31
M  V30 33 1 5 32
M  V30 34 1 5 33
M  V30 35 1 12 34
M  V30 36 1 14 35
M  V30 37 1 15 36
M  V30 38 1 16 37
M  V30 39 1 16 38
M  V30 40 1 17 39
M  V30 41 1 17 40
M  V30 42 1 18 41
M  V30 43 1 18 42
M  V30 44 1 19 43
M  V30 45 1 19 44
M  V30 46 1 21 45
M  V30 47 1 22 46
M  V30 48 1 23 47
M  V30 49 1 24 48
M  V30 50 1 27 49
M  V30 51 1 27 50
M  V30 52 1 28 51
M  V30 53 1 28 52
M  V30 54 1 29 53
M  V30 END BOND
M  V30 END CTAB
M  END
