
     RDKit          3D

  0  0  0  0  0  0  0  0  0  0999 V3000
M  V30 BEGIN CTAB
M  V30 COUNTS 17 17 0 0 0
M  V30 BEGIN ATOM
M  V30 1 N 2.62758 -0.0463437 0.00894268 0
M  V30 2 N 1.47501 -0.501304 0.609464 0
M  V30 3 C 0.235238 0.0775562 0.256455 0
M  V30 4 C -0.878723 -0.678464 -0.099759 0
M  V30 5 N -0.770317 -2.08394 -0.111454 0
M  V30 6 C -2.04151 -0.0345612 -0.431432 0
M  V30 7 N -2.13965 1.29728 -0.423275 0
M  V30 8 C -1.09037 2.08039 -0.0863903 0
M  V30 9 C 0.0872564 1.46759 0.250583 0
M  V30 10 H 2.71816 0.963779 -0.108145 0
M  V30 11 H 3.03557 -0.654239 -0.702529 0
M  V30 12 H 1.46259 -1.26446 1.32035 0
M  V30 13 H -0.687605 -2.65689 -0.99773 0
M  V30 14 H -0.777561 -2.57806 0.809434 0
M  V30 15 H -2.93578 -0.601121 -0.712396 0
M  V30 16 H -1.24573 3.13785 -0.104995 0
M  V30 17 H 0.925853 2.07493 0.522879 0
M  V30 END ATOM
M  V30 BEGIN BOND
M  V30 1 1 1 2
M  V30 2 1 2 3
M  V30 3 2 3 4
M  V30 4 1 4 5
M  V30 5 1 4 6
M  V30 6 2 6 7
M  V30 7 1 7 8
M  V30 8 2 8 9
M  V30 9 1 9 3
M  V30 10 1 1 10
M  V30 11 1 1 11
M  V30 12 1 2 12
M  V30 13 1 5 13
M  V30 14 1 5 14
M  V30 15 1 6 15
M  V30 16 1 8 16
M  V30 17 1 9 17
M  V30 END BOND
M  V30 END CTAB
M  END
