
     RDKit          3D

  0  0  0  0  0  0  0  0  0  0999 V3000
M  V30 BEGIN CTAB
M  V30 COUNTS 26 27 0 0 0
M  V30 BEGIN ATOM
M  V30 1 C -4.63952 -0.180061 -0.326728 0
M  V30 2 C -3.28127 -0.773826 0.0466053 0
M  V30 3 O -2.40648 0.273555 0.201895 0
M  V30 4 C -1.12847 -0.0952572 0.541918 0
M  V30 5 C -0.421649 0.746661 1.63777 0
M  V30 6 C 0.0705875 0.658309 0.201236 0
M  V30 7 C 1.35535 -0.0718831 0.0485474 0
M  V30 8 N 1.58882 -1.28061 0.577773 0
M  V30 9 N 2.83139 -1.6487 0.255146 0
M  V30 10 C 3.40973 -0.692614 -0.478569 0
M  V30 11 N 2.4776 0.286431 -0.600385 0
M  V30 12 N 2.66055 1.4764 -1.2919 0
M  V30 13 N 4.72907 -0.68088 -1.02947 0
M  V30 14 H -4.72756 0.00818899 -1.39704 0
M  V30 15 H -5.42496 -0.846232 0.0656325 0
M  V30 16 H -4.74021 0.785729 0.235091 0
M  V30 17 H -3.01793 -1.47414 -0.762826 0
M  V30 18 H -3.43294 -1.28734 1.03118 0
M  V30 19 H -0.995366 -1.20951 0.641436 0
M  V30 20 H 0.100482 0.163548 2.40415 0
M  V30 21 H -0.950942 1.67424 1.96021 0
M  V30 22 H 0.0707343 1.64021 -0.307233 0
M  V30 23 H 1.87165 2.01707 -1.72968 0
M  V30 24 H 3.61023 1.87557 -1.39798 0
M  V30 25 H 5.56962 -0.467678 -0.461597 0
M  V30 26 H 4.82147 -0.897183 -2.03781 0
M  V30 END ATOM
M  V30 BEGIN BOND
M  V30 1 1 1 2
M  V30 2 1 2 3
M  V30 3 1 3 4
M  V30 4 1 4 5
M  V30 5 1 5 6
M  V30 6 1 6 7
M  V30 7 2 7 8
M  V30 8 1 8 9
M  V30 9 2 9 10
M  V30 10 1 10 11
M  V30 11 1 11 12
M  V30 12 1 10 13
M  V30 13 1 6 4
M  V30 14 1 11 7
M  V30 15 1 1 14
M  V30 16 1 1 15
M  V30 17 1 1 16
M  V30 18 1 2 17
M  V30 19 1 2 18
M  V30 20 1 4 19
M  V30 21 1 5 20
M  V30 22 1 5 21
M  V30 23 1 6 22
M  V30 24 1 12 23
M  V30 25 1 12 24
M  V30 26 1 13 25
M  V30 27 1 13 26
M  V30 END BOND
M  V30 END CTAB
M  END
