
     RDKit          3D

  0  0  0  0  0  0  0  0  0  0999 V3000
M  V30 BEGIN CTAB
M  V30 COUNTS 68 73 0 0 0
M  V30 BEGIN ATOM
M  V30 1 N 1.77938 -6.09699 0.507128 0
M  V30 2 C 1.31383 -5.03783 0.493711 0
M  V30 3 C 0.747746 -3.72006 0.459418 0
M  V30 4 C -0.52895 -3.59255 -0.0468418 0
M  V30 5 N -1.28671 -4.70375 -0.526676 0
M  V30 6 N -1.07734 -2.36383 -0.0874913 0
M  V30 7 C -0.40206 -1.2691 0.355017 0
M  V30 8 C 0.876474 -1.34803 0.868626 0
M  V30 9 C 1.45364 -2.60088 0.91824 0
M  V30 10 N 2.75174 -2.86747 1.42382 0
M  V30 11 C 1.58665 -0.152712 1.33568 0
M  V30 12 C 2.94056 0.00910415 0.727131 0
M  V30 13 C 4.07039 -0.0441571 1.50636 0
M  V30 14 C 5.34413 0.0991508 0.983822 0
M  V30 15 C 5.52121 0.304535 -0.367077 0
M  V30 16 C 4.39271 0.359095 -1.15488 0
M  V30 17 C 3.10721 0.214475 -0.626771 0
M  V30 18 O 4.55674 0.56335 -2.50448 0
M  V30 19 C 3.44239 0.626382 -3.35074 0
M  V30 20 O 6.79251 0.453947 -0.932643 0
M  V30 21 C 7.96288 0.399172 -0.125055 0
M  V30 22 C 0.805274 1.08225 1.22703 0
M  V30 23 C -0.407245 1.11803 0.740444 0
M  V30 24 N -1.09754 -0.0364252 0.270016 0
M  V30 25 C -2.43954 0.0325143 -0.273106 0
M  V30 26 S -2.94549 0.34181 -1.87006 0
M  V30 27 C -4.62649 0.239808 -1.64875 0
M  V30 28 C -4.76211 -0.0369972 -0.317739 0
M  V30 29 C -3.61392 -0.145836 0.404738 0
M  V30 30 C -3.62121 -0.444404 1.85473 0
M  V30 31 N -3.61249 -0.663569 2.99277 0
M  V30 32 C -6.2276 -0.176211 0.110316 0
M  V30 33 C -6.88421 1.1102 -0.343719 0
M  V30 34 C -6.90636 1.21754 -1.84927 0
M  V30 35 C -5.86297 0.374994 -2.50917 0
M  V30 36 C -1.21326 2.39778 0.611299 0
M  V30 37 C -0.737936 3.44902 1.57721 0
M  V30 38 C 0.751111 3.64585 1.26603 0
M  V30 39 C 1.38028 2.36777 1.68675 0
M  V30 40 O 2.37641 2.34743 2.41498 0
M  V30 41 H -0.915628 -5.40135 -1.2009 0
M  V30 42 H -2.26782 -4.78437 -0.153439 0
M  V30 43 H 3.53929 -3.08164 0.802791 0
M  V30 44 H 2.89538 -2.84084 2.47105 0
M  V30 45 H 1.74804 -0.323227 2.44744 0
M  V30 46 H 3.94157 -0.20532 2.56962 0
M  V30 47 H 6.21287 0.0525077 1.62398 0
M  V30 48 H 2.24898 0.260479 -1.25864 0
M  V30 49 H 2.85163 -0.320319 -3.19094 0
M  V30 50 H 3.71562 0.705275 -4.41953 0
M  V30 51 H 2.78742 1.46318 -3.04072 0
M  V30 52 H 8.82864 0.820062 -0.673029 0
M  V30 53 H 8.19118 -0.600718 0.244552 0
M  V30 54 H 7.79435 1.04296 0.769832 0
M  V30 55 H -6.30514 -0.250869 1.19473 0
M  V30 56 H -6.65023 -1.0265 -0.425706 0
M  V30 57 H -6.31864 1.98251 0.0430431 0
M  V30 58 H -7.90442 1.18285 0.0856545 0
M  V30 59 H -7.90883 0.848622 -2.19099 0
M  V30 60 H -6.78502 2.25621 -2.17537 0
M  V30 61 H -5.52218 0.781991 -3.47612 0
M  V30 62 H -6.27535 -0.666357 -2.60611 0
M  V30 63 H -1.18363 2.75915 -0.447893 0
M  V30 64 H -2.28335 2.21223 0.83812 0
M  V30 65 H -1.30796 4.36169 1.41207 0
M  V30 66 H -0.845885 3.0341 2.60131 0
M  V30 67 H 0.858828 3.77335 0.168134 0
M  V30 68 H 1.16045 4.51092 1.78628 0
M  V30 END ATOM
M  V30 BEGIN BOND
M  V30 1 3 1 2
M  V30 2 1 2 3
M  V30 3 2 3 4
M  V30 4 1 4 5
M  V30 5 1 4 6
M  V30 6 2 6 7
M  V30 7 1 7 8
M  V30 8 2 8 9
M  V30 9 1 9 10
M  V30 10 1 8 11
M  V30 11 1 11 12
M  V30 12 2 12 13
M  V30 13 1 13 14
M  V30 14 2 14 15
M  V30 15 1 15 16
M  V30 16 2 16 17
M  V30 17 1 16 18
M  V30 18 1 18 19
M  V30 19 1 15 20
M  V30 20 1 20 21
M  V30 21 1 11 22
M  V30 22 2 22 23
M  V30 23 1 23 24
M  V30 24 1 24 25
M  V30 25 1 25 26
M  V30 26 1 26 27
M  V30 27 2 27 28
M  V30 28 1 28 29
M  V30 29 1 29 30
M  V30 30 3 30 31
M  V30 31 1 28 32
M  V30 32 1 32 33
M  V30 33 1 33 34
M  V30 34 1 34 35
M  V30 35 1 23 36
M  V30 36 1 36 37
M  V30 37 1 37 38
M  V30 38 1 38 39
M  V30 39 2 39 40
M  V30 40 1 9 3
M  V30 41 1 17 12
M  V30 42 1 39 22
M  V30 43 1 24 7
M  V30 44 2 29 25
M  V30 45 1 35 27
M  V30 46 1 5 41
M  V30 47 1 5 42
M  V30 48 1 10 43
M  V30 49 1 10 44
M  V30 50 1 11 45
M  V30 51 1 13 46
M  V30 52 1 14 47
M  V30 53 1 17 48
M  V30 54 1 19 49
M  V30 55 1 19 50
M  V30 56 1 19 51
M  V30 57 1 21 52
M  V30 58 1 21 53
M  V30 59 1 21 54
M  V30 60 1 32 55
M  V30 61 1 32 56
M  V30 62 1 33 57
M  V30 63 1 33 58
M  V30 64 1 34 59
M  V30 65 1 34 60
M  V30 66 1 35 61
M  V30 67 1 35 62
M  V30 68 1 36 63
M  V30 69 1 36 64
M  V30 70 1 37 65
M  V30 71 1 37 66
M  V30 72 1 38 67
M  V30 73 1 38 68
M  V30 END BOND
M  V30 END CTAB
M  END
