
     RDKit          3D

  0  0  0  0  0  0  0  0  0  0999 V3000
M  V30 BEGIN CTAB
M  V30 COUNTS 35 37 0 0 0
M  V30 BEGIN ATOM
M  V30 1 C 4.9521 -2.13684 0.31042 0
M  V30 2 C 4.4295 -0.749825 0.161511 0
M  V30 3 C 5.3594 0.259948 0.0297581 0
M  V30 4 C 4.90682 1.55134 -0.109482 0
M  V30 5 C 3.55617 1.83124 -0.11734 0
M  V30 6 C 2.60675 0.83662 0.0130361 0
M  V30 7 C 3.08745 -0.446829 0.150869 0
M  V30 8 C 1.1752 1.07464 0.0114012 0
M  V30 9 N 0.615065 2.28997 -0.117215 0
M  V30 10 N -0.694377 2.10669 -0.0729747 0
M  V30 11 C -0.99662 0.81945 0.0792082 0
M  V30 12 N 0.182989 0.177515 0.131393 0
M  V30 13 C -2.34645 0.285724 0.164127 0
M  V30 14 C -2.52716 -1.06981 0.321972 0
M  V30 15 C -3.81379 -1.5638 0.401236 0
M  V30 16 N -3.97332 -2.98714 0.566445 0
M  V30 17 C -4.91609 -0.752174 0.328288 0
M  V30 18 C -4.7243 0.591618 0.171587 0
M  V30 19 C -3.43954 1.10911 0.0896732 0
M  V30 20 N -5.86113 1.4293 0.0963028 0
M  V30 21 H 5.68263 -2.37235 -0.507996 0
M  V30 22 H 5.39843 -2.31161 1.29343 0
M  V30 23 H 4.10854 -2.84646 0.162045 0
M  V30 24 H 6.42633 0.0208566 0.0380223 0
M  V30 25 H 5.63331 2.33543 -0.211865 0
M  V30 26 H 3.16794 2.84418 -0.22597 0
M  V30 27 H 2.39512 -1.28089 0.258356 0
M  V30 28 H 1.08935 3.21257 -0.230882 0
M  V30 29 H -1.66859 -1.75951 0.385346 0
M  V30 30 H -4.42876 -3.37674 1.40547 0
M  V30 31 H -3.59761 -3.57188 -0.216321 0
M  V30 32 H -5.88992 -1.19387 0.396013 0
M  V30 33 H -3.36308 2.18532 -0.0344656 0
M  V30 34 H -6.38115 1.66383 0.949185 0
M  V30 35 H -6.15121 1.79439 -0.826304 0
M  V30 END ATOM
M  V30 BEGIN BOND
M  V30 1 1 1 2
M  V30 2 2 2 3
M  V30 3 1 3 4
M  V30 4 2 4 5
M  V30 5 1 5 6
M  V30 6 2 6 7
M  V30 7 1 6 8
M  V30 8 1 8 9
M  V30 9 1 9 10
M  V30 10 2 10 11
M  V30 11 1 11 12
M  V30 12 1 11 13
M  V30 13 2 13 14
M  V30 14 1 14 15
M  V30 15 1 15 16
M  V30 16 2 15 17
M  V30 17 1 17 18
M  V30 18 2 18 19
M  V30 19 1 18 20
M  V30 20 1 7 2
M  V30 21 2 12 8
M  V30 22 1 19 13
M  V30 23 1 1 21
M  V30 24 1 1 22
M  V30 25 1 1 23
M  V30 26 1 3 24
M  V30 27 1 4 25
M  V30 28 1 5 26
M  V30 29 1 7 27
M  V30 30 1 9 28
M  V30 31 1 14 29
M  V30 32 1 16 30
M  V30 33 1 16 31
M  V30 34 1 17 32
M  V30 35 1 19 33
M  V30 36 1 20 34
M  V30 37 1 20 35
M  V30 END BOND
M  V30 END CTAB
M  END
