
     RDKit          3D

  0  0  0  0  0  0  0  0  0  0999 V3000
M  V30 BEGIN CTAB
M  V30 COUNTS 36 37 0 0 0
M  V30 BEGIN ATOM
M  V30 1 N -4.00993 0.11763 -1.50448 0
M  V30 2 C -3.61741 0.181531 -0.141916 0
M  V30 3 N -2.33019 0.240368 0.228665 0
M  V30 4 C -1.94465 0.300788 1.50707 0
M  V30 5 O -0.627573 0.360296 1.84205 0
M  V30 6 C 0.502228 0.367869 1.05079 0
M  V30 7 C 0.595088 -0.888544 0.239907 0
M  V30 8 N 1.77713 -0.893414 -0.589156 0
M  V30 9 C 1.79431 0.0507376 -1.64472 0
M  V30 10 C 2.85991 1.10444 -1.53825 0
M  V30 11 C 4.22174 0.544024 -1.24564 0
M  V30 12 C 4.12965 -0.950693 -0.913186 0
M  V30 13 C 3.0049 -1.05043 0.126667 0
M  V30 14 C -2.93192 0.302499 2.49879 0
M  V30 15 N -4.22009 0.243841 2.13408 0
M  V30 16 C -4.59436 0.183655 0.851603 0
M  V30 17 N -5.94966 0.121483 0.449241 0
M  V30 18 H -3.49946 0.669449 -2.20463 0
M  V30 19 H -4.79986 -0.479311 -1.77791 0
M  V30 20 H 1.45207 0.447298 1.62673 0
M  V30 21 H 0.423402 1.24541 0.353103 0
M  V30 22 H 0.73411 -1.73474 0.971227 0
M  V30 23 H -0.270654 -1.11347 -0.373337 0
M  V30 24 H 2.00878 -0.51228 -2.60077 0
M  V30 25 H 0.828591 0.586065 -1.80612 0
M  V30 26 H 2.55056 1.86616 -0.799163 0
M  V30 27 H 2.91765 1.59219 -2.55599 0
M  V30 28 H 4.58344 1.0314 -0.29753 0
M  V30 29 H 4.94563 0.680737 -2.07361 0
M  V30 30 H 5.07574 -1.33877 -0.539845 0
M  V30 31 H 3.76118 -1.44773 -1.83854 0
M  V30 32 H 3.01789 -2.0456 0.616079 0
M  V30 33 H 3.20547 -0.277137 0.890562 0
M  V30 34 H -2.65367 0.350311 3.53924 0
M  V30 35 H -6.5604 -0.571259 0.925914 0
M  V30 36 H -6.37965 0.715203 -0.285672 0
M  V30 END ATOM
M  V30 BEGIN BOND
M  V30 1 1 1 2
M  V30 2 2 2 3
M  V30 3 1 3 4
M  V30 4 1 4 5
M  V30 5 1 5 6
M  V30 6 1 6 7
M  V30 7 1 7 8
M  V30 8 1 8 9
M  V30 9 1 9 10
M  V30 10 1 10 11
M  V30 11 1 11 12
M  V30 12 1 12 13
M  V30 13 2 4 14
M  V30 14 1 14 15
M  V30 15 2 15 16
M  V30 16 1 16 17
M  V30 17 1 16 2
M  V30 18 1 13 8
M  V30 19 1 1 18
M  V30 20 1 1 19
M  V30 21 1 6 20
M  V30 22 1 6 21
M  V30 23 1 7 22
M  V30 24 1 7 23
M  V30 25 1 9 24
M  V30 26 1 9 25
M  V30 27 1 10 26
M  V30 28 1 10 27
M  V30 29 1 11 28
M  V30 30 1 11 29
M  V30 31 1 12 30
M  V30 32 1 12 31
M  V30 33 1 13 32
M  V30 34 1 13 33
M  V30 35 1 14 34
M  V30 36 1 17 35
M  V30 37 1 17 36
M  V30 END BOND
M  V30 END CTAB
M  END
