
     RDKit          3D

  0  0  0  0  0  0  0  0  0  0999 V3000
M  V30 BEGIN CTAB
M  V30 COUNTS 21 22 0 0 0
M  V30 BEGIN ATOM
M  V30 1 N -2.74582 2.33341 -0.270803 0
M  V30 2 C -1.87491 1.1964 -0.144271 0
M  V30 3 N -0.5353 1.35146 -0.0664921 0
M  V30 4 C 0.298556 0.300711 0.0523548 0
M  V30 5 N -0.227054 -0.934394 0.0939336 0
M  V30 6 C -1.55617 -1.14668 0.0203499 0
M  V30 7 N -2.34023 -0.0543688 -0.0978061 0
M  V30 8 N -2.13163 -2.43694 0.0620539 0
M  V30 9 C 1.76121 0.554498 0.132064 0
M  V30 10 C 2.47912 -0.201435 -0.967667 0
M  V30 11 S 2.36358 -1.69473 0.014938 0
M  V30 12 C 2.49202 -0.272366 1.13667 0
M  V30 13 H -3.00433 2.90791 0.564813 0
M  V30 14 H -3.13215 2.59675 -1.21509 0
M  V30 15 H -2.60129 -2.84331 -0.760873 0
M  V30 16 H -2.08411 -2.99051 0.933414 0
M  V30 17 H 2.01252 1.6273 0.0822029 0
M  V30 18 H 3.50554 0.189998 -1.12482 0
M  V30 19 H 1.86005 -0.16498 -1.89095 0
M  V30 20 H 1.95676 -0.412214 2.11589 0
M  V30 21 H 3.50365 0.0934661 1.3301 0
M  V30 END ATOM
M  V30 BEGIN BOND
M  V30 1 1 1 2
M  V30 2 2 2 3
M  V30 3 1 3 4
M  V30 4 2 4 5
M  V30 5 1 5 6
M  V30 6 2 6 7
M  V30 7 1 6 8
M  V30 8 1 4 9
M  V30 9 1 9 10
M  V30 10 1 10 11
M  V30 11 1 11 12
M  V30 12 1 7 2
M  V30 13 1 12 9
M  V30 14 1 1 13
M  V30 15 1 1 14
M  V30 16 1 8 15
M  V30 17 1 8 16
M  V30 18 1 9 17
M  V30 19 1 10 18
M  V30 20 1 10 19
M  V30 21 1 12 20
M  V30 22 1 12 21
M  V30 END BOND
M  V30 END CTAB
M  END
