
     RDKit          3D

  0  0  0  0  0  0  0  0  0  0999 V3000
M  V30 BEGIN CTAB
M  V30 COUNTS 28 27 0 0 0
M  V30 BEGIN ATOM
M  V30 1 N -3.4189 -0.391394 -1.33584 0
M  V30 2 C -2.23387 0.347084 -0.960948 0
M  V30 3 C -1.0544 -0.565587 -0.735479 0
M  V30 4 C 0.184483 0.209081 -0.343399 0
M  V30 5 C 1.31735 -0.764071 -0.13538 0
M  V30 6 N 2.50678 0.00988798 0.243756 0
M  V30 7 C 3.69308 -0.71853 0.487826 0
M  V30 8 N 4.54303 -0.326737 1.55027 0
M  V30 9 N 4.03656 -1.7295 -0.218684 0
M  V30 10 P -2.61572 1.35671 0.479032 0
M  V30 11 O -2.68427 0.443675 1.89676 0
M  V30 12 O -4.17864 1.99539 0.21777 0
M  V30 13 O -1.68632 2.53397 0.6258 0
M  V30 14 H -3.14886 -1.04636 -2.10261 0
M  V30 15 H -3.7689 -0.868959 -0.490607 0
M  V30 16 H -1.96871 1.02096 -1.80141 0
M  V30 17 H -1.25403 -1.35859 0.00548874 0
M  V30 18 H -0.828174 -1.05581 -1.7062 0
M  V30 19 H 0.007059 0.736119 0.611854 0
M  V30 20 H 0.405321 0.957587 -1.10705 0
M  V30 21 H 1.57508 -1.33635 -1.02495 0
M  V30 22 H 1.02787 -1.45925 0.659859 0
M  V30 23 H 2.50058 1.04171 0.334337 0
M  V30 24 H 4.24633 -0.241746 2.53899 0
M  V30 25 H 5.53453 -0.111848 1.30498 0
M  V30 26 H 3.51413 -2.11761 -1.0148 0
M  V30 27 H -2.12783 0.862775 2.61168 0
M  V30 28 H -4.12354 2.57739 -0.591046 0
M  V30 END ATOM
M  V30 BEGIN BOND
M  V30 1 1 1 2
M  V30 2 1 2 3
M  V30 3 1 3 4
M  V30 4 1 4 5
M  V30 5 1 5 6
M  V30 6 1 6 7
M  V30 7 1 7 8
M  V30 8 2 7 9 CFG=2
M  V30 9 1 2 10
M  V30 10 1 10 11
M  V30 11 1 10 12
M  V30 12 2 10 13
M  V30 13 1 1 14
M  V30 14 1 1 15
M  V30 15 1 2 16
M  V30 16 1 3 17
M  V30 17 1 3 18
M  V30 18 1 4 19
M  V30 19 1 4 20
M  V30 20 1 5 21
M  V30 21 1 5 22
M  V30 22 1 6 23
M  V30 23 1 8 24
M  V30 24 1 8 25
M  V30 25 1 9 26
M  V30 26 1 11 27
M  V30 27 1 12 28
M  V30 END BOND
M  V30 END CTAB
M  END
