
     RDKit          3D

  0  0  0  0  0  0  0  0  0  0999 V3000
M  V30 BEGIN CTAB
M  V30 COUNTS 42 43 0 0 0
M  V30 BEGIN ATOM
M  V30 1 N -2.15354 -0.426969 -1.84406 0
M  V30 2 C -2.72362 -1.70482 -1.57006 0
M  V30 3 C -2.52555 -2.25096 -0.193149 0
M  V30 4 C -1.222 -2.577 0.316542 0
M  V30 5 N -0.144682 -1.59366 0.38939 0
M  V30 6 C 0.729343 -1.5854 -0.703099 0
M  V30 7 O 0.427168 -2.50345 -1.60747 0
M  V30 8 C 1.87859 -0.813349 -1.06362 0
M  V30 9 C 2.58952 -1.03138 -2.26855 0
M  V30 10 O 3.59397 -0.190967 -2.31492 0
M  V30 11 C 3.64609 0.5638 -1.29241 0
M  V30 12 C 2.58596 0.200888 -0.488677 0
M  V30 13 C 4.63461 1.65135 -0.962214 0
M  V30 14 N 4.12381 2.87557 -1.50155 0
M  V30 15 C -0.0151043 -0.743705 1.5194 0
M  V30 16 C -0.892462 0.426174 1.62647 0
M  V30 17 C -0.691216 1.58935 0.953264 0
M  V30 18 C -1.5491 2.67771 1.10562 0
M  V30 19 C -2.62863 2.60947 1.94328 0
M  V30 20 C -2.83939 1.41771 2.63626 0
M  V30 21 C -2.00445 0.358685 2.488 0
M  V30 22 H -1.6026 -0.391997 -2.72829 0
M  V30 23 H -2.87057 0.357114 -1.81653 0
M  V30 24 H -3.8428 -1.6009 -1.73268 0
M  V30 25 H -2.44081 -2.45137 -2.36557 0
M  V30 26 H -3.20516 -1.69712 0.524692 0
M  V30 27 H -3.1005 -3.26012 -0.23091 0
M  V30 28 H -0.820275 -3.47291 -0.251142 0
M  V30 29 H -1.31078 -3.00299 1.36358 0
M  V30 30 H 2.35486 -1.76567 -3.03353 0
M  V30 31 H 2.36364 0.67843 0.452152 0
M  V30 32 H 4.83246 1.66533 0.11496 0
M  V30 33 H 5.61281 1.39747 -1.46517 0
M  V30 34 H 4.57998 3.05061 -2.42172 0
M  V30 35 H 4.19294 3.6843 -0.844281 0
M  V30 36 H -0.208168 -1.34376 2.48189 0
M  V30 37 H 1.02866 -0.438924 1.65719 0
M  V30 38 H 0.139672 1.7475 0.256652 0
M  V30 39 H -1.34782 3.60006 0.54079 0
M  V30 40 H -3.28351 3.46393 2.04895 0
M  V30 41 H -3.70412 1.40755 3.28718 0
M  V30 42 H -2.18722 -0.575573 3.04419 0
M  V30 END ATOM
M  V30 BEGIN BOND
M  V30 1 1 1 2
M  V30 2 1 2 3
M  V30 3 1 3 4
M  V30 4 1 4 5
M  V30 5 1 5 6
M  V30 6 2 6 7
M  V30 7 1 6 8
M  V30 8 2 8 9
M  V30 9 1 9 10
M  V30 10 1 10 11
M  V30 11 2 11 12
M  V30 12 1 11 13
M  V30 13 1 13 14
M  V30 14 1 5 15
M  V30 15 1 15 16
M  V30 16 2 16 17
M  V30 17 1 17 18
M  V30 18 2 18 19
M  V30 19 1 19 20
M  V30 20 2 20 21
M  V30 21 1 12 8
M  V30 22 1 21 16
M  V30 23 1 1 22
M  V30 24 1 1 23
M  V30 25 1 2 24
M  V30 26 1 2 25
M  V30 27 1 3 26
M  V30 28 1 3 27
M  V30 29 1 4 28
M  V30 30 1 4 29
M  V30 31 1 9 30
M  V30 32 1 12 31
M  V30 33 1 13 32
M  V30 34 1 13 33
M  V30 35 1 14 34
M  V30 36 1 14 35
M  V30 37 1 15 36
M  V30 38 1 15 37
M  V30 39 1 17 38
M  V30 40 1 18 39
M  V30 41 1 19 40
M  V30 42 1 20 41
M  V30 43 1 21 42
M  V30 END BOND
M  V30 END CTAB
M  END
