
     RDKit          3D

  0  0  0  0  0  0  0  0  0  0999 V3000
M  V30 BEGIN CTAB
M  V30 COUNTS 28 28 0 0 0
M  V30 BEGIN ATOM
M  V30 1 N 4.12703 1.11868 -0.454759 0
M  V30 2 C 2.77436 0.712412 -0.250147 0
M  V30 3 C 2.12754 1.1019 0.903336 0
M  V30 4 C 0.819693 0.705744 1.09509 0
M  V30 5 C 0.156199 -0.0660929 0.160035 0
M  V30 6 C 0.81833 -0.448966 -0.992112 0
M  V30 7 C 2.12181 -0.068795 -1.20973 0
M  V30 8 C -1.24203 -0.516231 0.316835 0
M  V30 9 C -1.93725 -0.295704 -0.966572 0
M  V30 10 N -2.47614 -1.24492 -1.6426 0
M  V30 11 N -2.00933 1.02661 -1.46945 0
M  V30 12 C -1.95166 0.214472 1.4368 0
M  V30 13 C -1.25562 -1.98147 0.654581 0
M  V30 14 H 4.44543 2.07805 -0.262494 0
M  V30 15 H 4.81488 0.423101 -0.809939 0
M  V30 16 H 2.65811 1.70509 1.62573 0
M  V30 17 H 0.300946 1.00608 1.99845 0
M  V30 18 H 0.346365 -1.05575 -1.76171 0
M  V30 19 H 2.65007 -0.361523 -2.10588 0
M  V30 20 H -2.95213 -1.0521 -2.53322 0
M  V30 21 H -1.13521 1.53877 -1.66735 0
M  V30 22 H -2.95464 1.43232 -1.62054 0
M  V30 23 H -3.01912 -0.135851 1.41095 0
M  V30 24 H -1.91696 1.30359 1.32483 0
M  V30 25 H -1.51475 -0.0470198 2.40621 0
M  V30 26 H -1.04972 -2.13288 1.7329 0
M  V30 27 H -0.499722 -2.56796 0.103297 0
M  V30 28 H -2.24649 -2.39154 0.343331 0
M  V30 END ATOM
M  V30 BEGIN BOND
M  V30 1 1 1 2
M  V30 2 2 2 3
M  V30 3 1 3 4
M  V30 4 2 4 5
M  V30 5 1 5 6
M  V30 6 2 6 7
M  V30 7 1 5 8
M  V30 8 1 8 9
M  V30 9 2 9 10 CFG=2
M  V30 10 1 9 11
M  V30 11 1 8 12
M  V30 12 1 8 13
M  V30 13 1 7 2
M  V30 14 1 1 14
M  V30 15 1 1 15
M  V30 16 1 3 16
M  V30 17 1 4 17
M  V30 18 1 6 18
M  V30 19 1 7 19
M  V30 20 1 10 20
M  V30 21 1 11 21
M  V30 22 1 11 22
M  V30 23 1 12 23
M  V30 24 1 12 24
M  V30 25 1 12 25
M  V30 26 1 13 26
M  V30 27 1 13 27
M  V30 28 1 13 28
M  V30 END BOND
M  V30 END CTAB
M  END
