
     RDKit          3D

  0  0  0  0  0  0  0  0  0  0999 V3000
M  V30 BEGIN CTAB
M  V30 COUNTS 25 26 0 0 0
M  V30 BEGIN ATOM
M  V30 1 N 3.54659 0.746955 1.65071 0
M  V30 2 C 2.64384 0.304567 0.654277 0
M  V30 3 C 3.13904 -0.381275 -0.45941 0
M  V30 4 C 2.24937 -0.806398 -1.42228 0
M  V30 5 C 0.886716 -0.588782 -1.34349 0
M  V30 6 C 0.398074 0.0861143 -0.247282 0
M  V30 7 C 1.28034 0.516357 0.722763 0
M  V30 8 C -1.02309 0.359323 -0.0645579 0
M  V30 9 N -1.43944 1.61727 0.293443 0
M  V30 10 C -2.72693 1.92772 0.48358 0
M  V30 11 C -3.66382 0.943644 0.311986 0
M  V30 12 C -3.27209 -0.326215 -0.0467787 0
M  V30 13 C -1.94507 -0.645204 -0.242309 0
M  V30 14 N -1.50984 -1.94142 -0.601948 0
M  V30 15 H 3.89998 1.71907 1.59995 0
M  V30 16 H 3.86758 0.142405 2.42536 0
M  V30 17 H 4.20757 -0.553039 -0.523171 0
M  V30 18 H 2.62395 -1.33613 -2.28428 0
M  V30 19 H 0.257809 -0.949375 -2.14438 0
M  V30 20 H 0.932696 1.05403 1.60508 0
M  V30 21 H -3.00913 2.94387 0.768146 0
M  V30 22 H -4.70144 1.19351 0.46498 0
M  V30 23 H -3.98413 -1.12905 -0.191271 0
M  V30 24 H -1.58596 -2.36662 -1.54786 0
M  V30 25 H -1.07264 -2.53134 0.138762 0
M  V30 END ATOM
M  V30 BEGIN BOND
M  V30 1 1 1 2
M  V30 2 2 2 3
M  V30 3 1 3 4
M  V30 4 2 4 5
M  V30 5 1 5 6
M  V30 6 2 6 7
M  V30 7 1 6 8
M  V30 8 2 8 9
M  V30 9 1 9 10
M  V30 10 2 10 11
M  V30 11 1 11 12
M  V30 12 2 12 13
M  V30 13 1 13 14
M  V30 14 1 7 2
M  V30 15 1 13 8
M  V30 16 1 1 15
M  V30 17 1 1 16
M  V30 18 1 3 17
M  V30 19 1 4 18
M  V30 20 1 5 19
M  V30 21 1 7 20
M  V30 22 1 10 21
M  V30 23 1 11 22
M  V30 24 1 12 23
M  V30 25 1 14 24
M  V30 26 1 14 25
M  V30 END BOND
M  V30 END CTAB
M  END
