
     RDKit          3D

  0  0  0  0  0  0  0  0  0  0999 V3000
M  V30 BEGIN CTAB
M  V30 COUNTS 25 26 0 0 0
M  V30 BEGIN ATOM
M  V30 1 C 4.77424 0.485933 -0.166837 0
M  V30 2 N 3.51288 -0.188901 0.172324 0
M  V30 3 N 3.3624 -1.38804 0.703456 0
M  V30 4 C 2.04501 -1.66778 0.871234 0
M  V30 5 C 1.3595 -0.567518 0.412074 0
M  V30 6 N 2.29768 0.302444 -0.00162033 0
M  V30 7 C -0.109307 -0.390119 0.384514 0
M  V30 8 C -0.89763 -1.40535 0.856834 0
M  V30 9 C -2.28098 -1.23832 0.830901 0
M  V30 10 C -2.83554 -0.0780142 0.340888 0
M  V30 11 C -2.04135 0.942733 -0.134055 0
M  V30 12 C -0.675454 0.7636 -0.102213 0
M  V30 13 N -2.55756 2.15052 -0.646213 0
M  V30 14 N -4.24217 0.12165 0.301434 0
M  V30 15 H 4.90466 1.28442 0.580032 0
M  V30 16 H 4.62642 0.949341 -1.16183 0
M  V30 17 H 5.58372 -0.258293 -0.182887 0
M  V30 18 H 1.5812 -2.55193 1.27492 0
M  V30 19 H -0.443596 -2.3117 1.23888 0
M  V30 20 H -2.90133 -2.03949 1.20358 0
M  V30 21 H -0.0225535 1.54598 -0.467757 0
M  V30 22 H -2.88202 2.89076 0.00843456 0
M  V30 23 H -2.59221 2.25111 -1.68724 0
M  V30 24 H -4.79835 0.273058 1.17095 0
M  V30 25 H -4.76767 0.123903 -0.596934 0
M  V30 END ATOM
M  V30 BEGIN BOND
M  V30 1 1 1 2
M  V30 2 1 2 3
M  V30 3 2 3 4
M  V30 4 1 4 5
M  V30 5 2 5 6
M  V30 6 1 5 7
M  V30 7 2 7 8
M  V30 8 1 8 9
M  V30 9 2 9 10
M  V30 10 1 10 11
M  V30 11 2 11 12
M  V30 12 1 11 13
M  V30 13 1 10 14
M  V30 14 1 6 2
M  V30 15 1 12 7
M  V30 16 1 1 15
M  V30 17 1 1 16
M  V30 18 1 1 17
M  V30 19 1 4 18
M  V30 20 1 8 19
M  V30 21 1 9 20
M  V30 22 1 12 21
M  V30 23 1 13 22
M  V30 24 1 13 23
M  V30 25 1 14 24
M  V30 26 1 14 25
M  V30 END BOND
M  V30 END CTAB
M  END
