
     RDKit          3D

  0  0  0  0  0  0  0  0  0  0999 V3000
M  V30 BEGIN CTAB
M  V30 COUNTS 26 26 0 0 0
M  V30 BEGIN ATOM
M  V30 1 C -2.94165 0.11094 1.21115 0
M  V30 2 C -2.08895 0.423772 0.0197007 0
M  V30 3 O -1.19877 -0.637888 -0.212145 0
M  V30 4 C 0.176882 -0.523167 -0.225414 0
M  V30 5 C 0.962988 -0.678294 0.877727 0
M  V30 6 N 0.372736 -0.976179 2.13483 0
M  V30 7 C 2.32984 -0.553009 0.807681 0
M  V30 8 C 2.95537 -0.260422 -0.408436 0
M  V30 9 C 2.15451 -0.103994 -1.52418 0
M  V30 10 C 0.781873 -0.231967 -1.44297 0
M  V30 11 F 0.0198289 -0.0699519 -2.57085 0
M  V30 12 Cl 2.94545 0.262899 -3.0466 0
M  V30 13 N 4.36604 -0.126007 -0.506434 0
M  V30 14 C -3.00357 0.659281 -1.18355 0
M  V30 15 H -3.33063 -0.946373 1.15263 0
M  V30 16 H -3.85869 0.759607 1.12897 0
M  V30 17 H -2.4044 0.284807 2.15806 0
M  V30 18 H -1.56621 1.37488 0.193141 0
M  V30 19 H 0.185647 -1.97838 2.34165 0
M  V30 20 H 0.156353 -0.207453 2.781 0
M  V30 21 H 2.98545 -0.673034 1.68063 0
M  V30 22 H 4.82295 0.590317 0.0951804 0
M  V30 23 H 4.93067 -0.715648 -1.15139 0
M  V30 24 H -3.24053 -0.307627 -1.65777 0
M  V30 25 H -3.9389 1.08735 -0.766046 0
M  V30 26 H -2.5743 1.39445 -1.88656 0
M  V30 END ATOM
M  V30 BEGIN BOND
M  V30 1 1 1 2
M  V30 2 1 2 3
M  V30 3 1 3 4
M  V30 4 2 4 5
M  V30 5 1 5 6
M  V30 6 1 5 7
M  V30 7 2 7 8
M  V30 8 1 8 9
M  V30 9 2 9 10
M  V30 10 1 10 11
M  V30 11 1 9 12
M  V30 12 1 8 13
M  V30 13 1 2 14
M  V30 14 1 10 4
M  V30 15 1 1 15
M  V30 16 1 1 16
M  V30 17 1 1 17
M  V30 18 1 2 18
M  V30 19 1 6 19
M  V30 20 1 6 20
M  V30 21 1 7 21
M  V30 22 1 13 22
M  V30 23 1 13 23
M  V30 24 1 14 24
M  V30 25 1 14 25
M  V30 26 1 14 26
M  V30 END BOND
M  V30 END CTAB
M  END
