
     RDKit          3D

  0  0  0  0  0  0  0  0  0  0999 V3000
M  V30 BEGIN CTAB
M  V30 COUNTS 23 23 0 0 0
M  V30 BEGIN ATOM
M  V30 1 C -2.46095 -1.13071 0.656913 0
M  V30 2 C -2.50228 0.377227 0.505222 0
M  V30 3 S -1.48404 0.805737 -0.914039 0
M  V30 4 O -2.08359 0.123214 -2.10849 0
M  V30 5 O -1.57843 2.27375 -1.08901 0
M  V30 6 C 0.166158 0.277373 -0.673261 0
M  V30 7 C 0.761014 -0.618796 -1.53607 0
M  V30 8 N 2.03055 -1.02071 -1.34466 0
M  V30 9 C 2.78534 -0.572355 -0.305988 0
M  V30 10 N 2.18868 0.300623 0.524575 0
M  V30 11 C 0.925775 0.735498 0.381338 0
M  V30 12 N 0.365876 1.66138 1.30426 0
M  V30 13 N 4.12574 -1.00375 -0.113367 0
M  V30 14 H -1.46994 -1.42827 1.01731 0
M  V30 15 H -2.74197 -1.57998 -0.30856 0
M  V30 16 H -3.19953 -1.40885 1.44357 0
M  V30 17 H -3.52667 0.68998 0.260272 0
M  V30 18 H -2.09886 0.864097 1.40353 0
M  V30 19 H 0.206344 -1.00631 -2.37744 0
M  V30 20 H 0.012078 2.58702 1.00561 0
M  V30 21 H 0.307718 1.40537 2.31214 0
M  V30 22 H 4.52296 -1.03054 0.848904 0
M  V30 23 H 4.74802 -1.30101 -0.892748 0
M  V30 END ATOM
M  V30 BEGIN BOND
M  V30 1 1 1 2
M  V30 2 1 2 3
M  V30 3 2 3 4
M  V30 4 2 3 5
M  V30 5 1 3 6
M  V30 6 2 6 7
M  V30 7 1 7 8
M  V30 8 2 8 9
M  V30 9 1 9 10
M  V30 10 2 10 11
M  V30 11 1 11 12
M  V30 12 1 9 13
M  V30 13 1 11 6
M  V30 14 1 1 14
M  V30 15 1 1 15
M  V30 16 1 1 16
M  V30 17 1 2 17
M  V30 18 1 2 18
M  V30 19 1 7 19
M  V30 20 1 12 20
M  V30 21 1 12 21
M  V30 22 1 13 22
M  V30 23 1 13 23
M  V30 END BOND
M  V30 END CTAB
M  END
