
     RDKit          3D

  0  0  0  0  0  0  0  0  0  0999 V3000
M  V30 BEGIN CTAB
M  V30 COUNTS 31 32 0 0 0
M  V30 BEGIN ATOM
M  V30 1 N -5.57006 0.846689 -0.511896 0
M  V30 2 C -4.96859 0.512239 0.738249 0
M  V30 3 N -5.69435 0.392645 1.80986 0
M  V30 4 N -3.57711 0.305348 0.834619 0
M  V30 5 C -2.7392 0.424774 -0.310791 0
M  V30 6 O -3.2662 0.718909 -1.41143 0
M  V30 7 C -1.30843 0.207215 -0.188 0
M  V30 8 N -0.783435 -0.103206 0.994407 0
M  V30 9 C 0.523344 -0.312662 1.15964 0
M  V30 10 C 1.34472 -0.20143 0.0655171 0
M  V30 11 N 0.818088 0.116726 -1.15396 0
M  V30 12 C -0.493671 0.323824 -1.30424 0
M  V30 13 N -1.12108 0.657518 -2.53349 0
M  V30 14 C 2.78551 -0.411182 0.143239 0
M  V30 15 C 3.58526 -0.287883 -0.996104 0
M  V30 16 C 4.94704 -0.475653 -0.974264 0
M  V30 17 C 5.57868 -0.799985 0.206122 0
M  V30 18 C 4.82679 -0.930613 1.34985 0
M  V30 19 C 3.43902 -0.733232 1.29785 0
M  V30 20 H -5.53384 1.83674 -0.814318 0
M  V30 21 H -6.02051 0.0844359 -1.06949 0
M  V30 22 H -5.28227 0.150343 2.73133 0
M  V30 23 H -3.16619 0.0596513 1.77355 0
M  V30 24 H 0.925431 -0.568209 2.15301 0
M  V30 25 H -1.16849 1.64511 -2.90446 0
M  V30 26 H -1.57472 -0.0749436 -3.1409 0
M  V30 27 H 3.07126 -0.0305132 -1.92429 0
M  V30 28 H 5.54779 -0.374973 -1.86986 0
M  V30 29 H 6.66461 -0.948141 0.215747 0
M  V30 30 H 5.33565 -1.18473 2.2655 0
M  V30 31 H 2.87498 -0.844807 2.22282 0
M  V30 END ATOM
M  V30 BEGIN BOND
M  V30 1 1 1 2
M  V30 2 2 2 3 CFG=2
M  V30 3 1 2 4
M  V30 4 1 4 5
M  V30 5 2 5 6
M  V30 6 1 5 7
M  V30 7 2 7 8
M  V30 8 1 8 9
M  V30 9 2 9 10
M  V30 10 1 10 11
M  V30 11 2 11 12
M  V30 12 1 12 13
M  V30 13 1 10 14
M  V30 14 2 14 15
M  V30 15 1 15 16
M  V30 16 2 16 17
M  V30 17 1 17 18
M  V30 18 2 18 19
M  V30 19 1 12 7
M  V30 20 1 19 14
M  V30 21 1 1 20
M  V30 22 1 1 21
M  V30 23 1 3 22
M  V30 24 1 4 23
M  V30 25 1 9 24
M  V30 26 1 13 25
M  V30 27 1 13 26
M  V30 28 1 15 27
M  V30 29 1 16 28
M  V30 30 1 17 29
M  V30 31 1 18 30
M  V30 32 1 19 31
M  V30 END BOND
M  V30 END CTAB
M  END
