
     RDKit          3D

  0  0  0  0  0  0  0  0  0  0999 V3000
M  V30 BEGIN CTAB
M  V30 COUNTS 28 31 0 0 0
M  V30 BEGIN ATOM
M  V30 1 N 3.81756 0.388178 0.519036 0
M  V30 2 C 2.52407 0.271956 0.411404 0
M  V30 3 C 1.60399 -0.683168 1.13415 0
M  V30 4 C 0.649998 0.090966 0.282481 0
M  V30 5 C 1.45936 1.30733 0.67286 0
M  V30 6 C 1.71326 -0.0838626 -0.813413 0
M  V30 7 C -0.653585 -0.0230977 0.128741 0
M  V30 8 C -1.41714 -1.24601 -0.382026 0
M  V30 9 C -2.50925 -0.277696 -0.0269008 0
M  V30 10 C -1.62844 0.77958 -0.662202 0
M  V30 11 C -1.72101 -0.0163465 1.22108 0
M  V30 12 N -3.80164 -0.419702 -0.165929 0
M  V30 13 H 4.26915 -0.0375613 1.36777 0
M  V30 14 H 4.41726 0.184159 -0.32424 0
M  V30 15 H 1.70779 -1.72967 0.774097 0
M  V30 16 H 1.5234 -0.559362 2.21669 0
M  V30 17 H 1.34798 1.52891 1.73839 0
M  V30 18 H 1.41217 2.15174 -0.0214443 0
M  V30 19 H 1.85952 -1.10866 -1.14743 0
M  V30 20 H 1.6622 0.715438 -1.54747 0
M  V30 21 H -1.36591 -2.08751 0.33629 0
M  V30 22 H -1.27958 -1.47855 -1.43467 0
M  V30 23 H -1.8256 1.81451 -0.310539 0
M  V30 24 H -1.59309 0.630729 -1.74349 0
M  V30 25 H -1.6427 -0.819383 1.95118 0
M  V30 26 H -1.93892 1.00151 1.60022 0
M  V30 27 H -4.3806 -0.249008 0.681702 0
M  V30 28 H -4.21026 -0.0454136 -1.0395 0
M  V30 END ATOM
M  V30 BEGIN BOND
M  V30 1 1 1 2
M  V30 2 1 2 3
M  V30 3 1 3 4
M  V30 4 1 4 5
M  V30 5 1 4 6
M  V30 6 1 4 7
M  V30 7 1 7 8
M  V30 8 1 8 9
M  V30 9 1 9 10
M  V30 10 1 9 11
M  V30 11 1 9 12
M  V30 12 1 5 2
M  V30 13 1 10 7
M  V30 14 1 6 2
M  V30 15 1 11 7
M  V30 16 1 1 13
M  V30 17 1 1 14
M  V30 18 1 3 15
M  V30 19 1 3 16
M  V30 20 1 5 17
M  V30 21 1 5 18
M  V30 22 1 6 19
M  V30 23 1 6 20
M  V30 24 1 8 21
M  V30 25 1 8 22
M  V30 26 1 10 23
M  V30 27 1 10 24
M  V30 28 1 11 25
M  V30 29 1 11 26
M  V30 30 1 12 27
M  V30 31 1 12 28
M  V30 END BOND
M  V30 END CTAB
M  END
