
     RDKit          3D

  0  0  0  0  0  0  0  0  0  0999 V3000
M  V30 BEGIN CTAB
M  V30 COUNTS 33 35 0 0 0
M  V30 BEGIN ATOM
M  V30 1 N -6.59933 1.5858 2.17345 0
M  V30 2 C -5.87771 1.51446 0.940698 0
M  V30 3 N -5.81724 2.40398 -0.0459228 0
M  V30 4 N -5.13043 2.17759 -1.06604 0
M  V30 5 C -4.44814 1.03196 -1.17216 0
M  V30 6 S -4.85988 0.282626 0.314582 0
M  V30 7 S -3.43019 0.477276 -2.52287 0
M  V30 8 C -2.64415 -1.10784 -2.23792 0
M  V30 9 C -1.58616 -1.0828 -1.19401 0
M  V30 10 C -1.78873 -1.49707 0.0981165 0
M  V30 11 C -0.790103 -1.41425 1.06855 0
M  V30 12 C 0.433739 -0.908704 0.742525 0
M  V30 13 C 0.635383 -0.49275 -0.56192 0
M  V30 14 N -0.364322 -0.587322 -1.48991 0
M  V30 15 C 1.93733 0.0960618 -0.998632 0
M  V30 16 S 3.17095 -1.18853 -1.35234 0
M  V30 17 C 4.69537 -0.669382 -0.519206 0
M  V30 18 N 5.14508 -0.875327 0.707078 0
M  V30 19 N 6.26566 -0.415019 1.06025 0
M  V30 20 C 7.00565 0.282917 0.202629 0
M  V30 21 S 5.99459 0.25477 -1.19719 0
M  V30 22 N 8.29165 0.903945 0.376505 0
M  V30 23 H -7.29537 0.86789 2.39453 0
M  V30 24 H -6.39993 2.35639 2.81747 0
M  V30 25 H -2.24486 -1.44729 -3.22573 0
M  V30 26 H -3.41509 -1.88142 -1.97668 0
M  V30 27 H -2.7148 -1.92269 0.425205 0
M  V30 28 H -0.941732 -1.73532 2.08181 0
M  V30 29 H 1.25078 -0.819141 1.45997 0
M  V30 30 H 1.75314 0.684994 -1.92124 0
M  V30 31 H 2.26635 0.816672 -0.232075 0
M  V30 32 H 9.18423 0.391162 0.29828 0
M  V30 33 H 8.31825 1.91636 0.59121 0
M  V30 END ATOM
M  V30 BEGIN BOND
M  V30 1 1 1 2
M  V30 2 2 2 3
M  V30 3 1 3 4
M  V30 4 2 4 5
M  V30 5 1 5 6
M  V30 6 1 5 7
M  V30 7 1 7 8
M  V30 8 1 8 9
M  V30 9 2 9 10
M  V30 10 1 10 11
M  V30 11 2 11 12
M  V30 12 1 12 13
M  V30 13 2 13 14
M  V30 14 1 13 15
M  V30 15 1 15 16
M  V30 16 1 16 17
M  V30 17 2 17 18
M  V30 18 1 18 19
M  V30 19 2 19 20
M  V30 20 1 20 21
M  V30 21 1 20 22
M  V30 22 1 6 2
M  V30 23 1 14 9
M  V30 24 1 21 17
M  V30 25 1 1 23
M  V30 26 1 1 24
M  V30 27 1 8 25
M  V30 28 1 8 26
M  V30 29 1 10 27
M  V30 30 1 11 28
M  V30 31 1 12 29
M  V30 32 1 15 30
M  V30 33 1 15 31
M  V30 34 1 22 32
M  V30 35 1 22 33
M  V30 END BOND
M  V30 END CTAB
M  END
