
     RDKit          3D

  0  0  0  0  0  0  0  0  0  0999 V3000
M  V30 BEGIN CTAB
M  V30 COUNTS 39 39 0 0 0
M  V30 BEGIN ATOM
M  V30 1 N 7.45596 0.681981 0.190696 0
M  V30 2 C 6.1224 0.555959 -0.385018 0
M  V30 3 C 5.78225 -0.860241 -0.701216 0
M  V30 4 O 4.53152 -1.01221 -1.242 0
M  V30 5 C 3.28178 -0.794753 -0.751668 0
M  V30 6 C 3.01654 -0.365813 0.519857 0
M  V30 7 C 1.74198 -0.148708 0.990027 0
M  V30 8 C 0.610041 -0.359776 0.175856 0
M  V30 9 C 0.866918 -0.789353 -1.09326 0
M  V30 10 C 2.14936 -1.00239 -1.55251 0
M  V30 11 N -0.675891 -0.135509 0.743462 0
M  V30 12 C -1.82007 0.0560856 -0.0340338 0
M  V30 13 O -1.87744 0.0651437 -1.26184 0
M  V30 14 C -3.10898 0.272657 0.713521 0
M  V30 15 C -4.21445 0.457517 -0.269637 0
M  V30 16 C -5.53143 0.679072 0.442525 0
M  V30 17 N -5.84993 -0.448628 1.27388 0
M  V30 18 C -6.60238 0.817475 -0.623158 0
M  V30 19 H 8.09873 0.0782016 -0.377741 0
M  V30 20 H 7.76401 1.6591 0.223609 0
M  V30 21 H 5.43906 1.07096 0.259908 0
M  V30 22 H 6.17916 1.15657 -1.34679 0
M  V30 23 H 5.79731 -1.47669 0.255698 0
M  V30 24 H 6.55858 -1.34116 -1.36365 0
M  V30 25 H 3.85705 -0.206487 1.2112 0
M  V30 26 H 1.5421 0.193102 2.00151 0
M  V30 27 H 0.0404852 -0.992764 -1.78371 0
M  V30 28 H 2.33254 -1.34455 -2.56829 0
M  V30 29 H -0.767681 -0.115437 1.80853 0
M  V30 30 H -3.04013 1.18877 1.33754 0
M  V30 31 H -3.23643 -0.575825 1.38291 0
M  V30 32 H -4.35379 -0.490666 -0.86513 0
M  V30 33 H -4.02681 1.28604 -0.979803 0
M  V30 34 H -5.49591 1.57763 1.09985 0
M  V30 35 H -6.84694 -0.707548 1.22922 0
M  V30 36 H -5.2504 -1.27503 1.11272 0
M  V30 37 H -6.28851 0.219663 -1.49892 0
M  V30 38 H -6.57514 1.88938 -0.951009 0
M  V30 39 H -7.60546 0.538247 -0.243821 0
M  V30 END ATOM
M  V30 BEGIN BOND
M  V30 1 1 1 2
M  V30 2 1 2 3
M  V30 3 1 3 4
M  V30 4 1 4 5
M  V30 5 2 5 6
M  V30 6 1 6 7
M  V30 7 2 7 8
M  V30 8 1 8 9
M  V30 9 2 9 10
M  V30 10 1 8 11
M  V30 11 1 11 12
M  V30 12 2 12 13
M  V30 13 1 12 14
M  V30 14 1 14 15
M  V30 15 1 15 16
M  V30 16 1 16 17
M  V30 17 1 16 18
M  V30 18 1 10 5
M  V30 19 1 1 19
M  V30 20 1 1 20
M  V30 21 1 2 21
M  V30 22 1 2 22
M  V30 23 1 3 23
M  V30 24 1 3 24
M  V30 25 1 6 25
M  V30 26 1 7 26
M  V30 27 1 9 27
M  V30 28 1 10 28
M  V30 29 1 11 29
M  V30 30 1 14 30
M  V30 31 1 14 31
M  V30 32 1 15 32
M  V30 33 1 15 33
M  V30 34 1 16 34
M  V30 35 1 17 35
M  V30 36 1 17 36
M  V30 37 1 18 37
M  V30 38 1 18 38
M  V30 39 1 18 39
M  V30 END BOND
M  V30 END CTAB
M  END
