
     RDKit          3D

  0  0  0  0  0  0  0  0  0  0999 V3000
M  V30 BEGIN CTAB
M  V30 COUNTS 73 74 0 0 0
M  V30 BEGIN ATOM
M  V30 1 C 3.94623 2.65522 -1.06065 0
M  V30 2 N 4.34373 1.2461 -0.812066 0
M  V30 3 C 5.17801 0.852765 -1.96458 0
M  V30 4 C 6.49731 1.50474 -1.9208 0
M  V30 5 N 7.41125 1.15065 -0.89055 0
M  V30 6 C 7.91323 -0.148132 -0.70829 0
M  V30 7 O 7.50359 -1.07589 -1.48018 0
M  V30 8 C 8.88848 -0.550191 0.294508 0
M  V30 9 C 9.33674 -1.87432 0.395877 0
M  V30 10 N 8.72396 -2.82524 -0.481979 0
M  V30 11 N 10.3005 -2.23778 1.28949 0
M  V30 12 C 10.8632 -1.34051 2.11464 0
M  V30 13 N 11.8834 -1.69865 3.0371 0
M  V30 14 C 10.42 -0.0450078 2.01479 0
M  V30 15 Cl 11.1578 1.13119 3.10776 0
M  V30 16 N 9.46978 0.318176 1.13583 0
M  V30 17 C 3.10931 0.427979 -0.878703 0
M  V30 18 C 2.20717 0.886189 0.235213 0
M  V30 19 C 0.954401 0.0570644 0.201611 0
M  V30 20 O 1.06092 -1.17912 0.276659 0
M  V30 21 N -0.261924 0.719991 0.0758489 0
M  V30 22 C -1.56733 0.0410613 0.056745 0
M  V30 23 C -2.5942 1.08372 -0.315363 0
M  V30 24 N -3.96351 0.670653 -0.295773 0
M  V30 25 C -4.50422 0.57506 1.0107 0
M  V30 26 C -5.91778 0.220865 1.15341 0
M  V30 27 C -6.40951 0.249796 2.47192 0
M  V30 28 O -5.55637 0.61867 3.50232 0
M  V30 29 C -7.70922 -0.0757076 2.76085 0
M  V30 30 Br -8.41441 -0.0249336 4.55478 0
M  V30 31 C -8.57486 -0.443905 1.75569 0
M  V30 32 C -8.11713 -0.486359 0.435083 0
M  V30 33 C -6.81556 -0.150563 0.196747 0
M  V30 34 C -9.05938 -0.918605 -0.631318 0
M  V30 35 C -10.4923 -0.926282 -0.0945471 0
M  V30 36 C -9.02294 0.0628616 -1.76355 0
M  V30 37 C -8.70401 -2.28859 -1.16139 0
M  V30 38 H 4.58004 3.16413 -1.75822 0
M  V30 39 H 2.88093 2.68411 -1.44324 0
M  V30 40 H 3.93138 3.16027 -0.0828849 0
M  V30 41 H 5.27704 -0.240018 -2.06069 0
M  V30 42 H 4.61052 1.15371 -2.90668 0
M  V30 43 H 7.01186 1.4718 -2.94242 0
M  V30 44 H 6.37872 2.64449 -1.80793 0
M  V30 45 H 7.79627 1.86136 -0.170566 0
M  V30 46 H 7.79359 -3.24663 -0.264936 0
M  V30 47 H 9.20224 -3.11854 -1.36385 0
M  V30 48 H 12.3993 -0.951931 3.57668 0
M  V30 49 H 12.1605 -2.67696 3.20826 0
M  V30 50 H 2.6409 0.61448 -1.88174 0
M  V30 51 H 3.39082 -0.616022 -0.791186 0
M  V30 52 H 2.67844 0.67359 1.22955 0
M  V30 53 H 1.98054 1.95959 0.184809 0
M  V30 54 H -0.255925 1.78239 -0.00515192 0
M  V30 55 H -1.83719 -0.359406 1.06881 0
M  V30 56 H -1.55299 -0.825071 -0.621014 0
M  V30 57 H -2.49739 1.97159 0.354063 0
M  V30 58 H -2.3876 1.48098 -1.34552 0
M  V30 59 H -4.05434 -0.191025 -0.879028 0
M  V30 60 H -3.91186 -0.139172 1.64541 0
M  V30 61 H -4.30157 1.57438 1.51167 0
M  V30 62 H -5.85927 0.656161 4.4491 0
M  V30 63 H -9.59255 -0.691021 1.96034 0
M  V30 64 H -6.4571 -0.171731 -0.825425 0
M  V30 65 H -11.1405 -1.0739 -0.960408 0
M  V30 66 H -10.6552 0.0677152 0.33889 0
M  V30 67 H -10.6205 -1.76342 0.586308 0
M  V30 68 H -8.9026 1.08563 -1.37212 0
M  V30 69 H -9.97223 0.0273436 -2.35019 0
M  V30 70 H -8.20022 -0.147913 -2.49732 0
M  V30 71 H -7.75626 -2.69097 -0.813345 0
M  V30 72 H -9.51633 -2.98159 -0.804674 0
M  V30 73 H -8.72591 -2.33137 -2.27225 0
M  V30 END ATOM
M  V30 BEGIN BOND
M  V30 1 1 1 2
M  V30 2 1 2 3
M  V30 3 1 3 4
M  V30 4 1 4 5
M  V30 5 1 5 6
M  V30 6 2 6 7
M  V30 7 1 6 8
M  V30 8 2 8 9
M  V30 9 1 9 10
M  V30 10 1 9 11
M  V30 11 2 11 12
M  V30 12 1 12 13
M  V30 13 1 12 14
M  V30 14 1 14 15
M  V30 15 2 14 16
M  V30 16 1 2 17
M  V30 17 1 17 18
M  V30 18 1 18 19
M  V30 19 2 19 20
M  V30 20 1 19 21
M  V30 21 1 21 22
M  V30 22 1 22 23
M  V30 23 1 23 24
M  V30 24 1 24 25
M  V30 25 1 25 26
M  V30 26 2 26 27
M  V30 27 1 27 28
M  V30 28 1 27 29
M  V30 29 1 29 30
M  V30 30 2 29 31
M  V30 31 1 31 32
M  V30 32 2 32 33
M  V30 33 1 32 34
M  V30 34 1 34 35
M  V30 35 1 34 36
M  V30 36 1 34 37
M  V30 37 1 16 8
M  V30 38 1 33 26
M  V30 39 1 1 38
M  V30 40 1 1 39
M  V30 41 1 1 40
M  V30 42 1 3 41
M  V30 43 1 3 42
M  V30 44 1 4 43
M  V30 45 1 4 44
M  V30 46 1 5 45
M  V30 47 1 10 46
M  V30 48 1 10 47
M  V30 49 1 13 48
M  V30 50 1 13 49
M  V30 51 1 17 50
M  V30 52 1 17 51
M  V30 53 1 18 52
M  V30 54 1 18 53
M  V30 55 1 21 54
M  V30 56 1 22 55
M  V30 57 1 22 56
M  V30 58 1 23 57
M  V30 59 1 23 58
M  V30 60 1 24 59
M  V30 61 1 25 60
M  V30 62 1 25 61
M  V30 63 1 28 62
M  V30 64 1 31 63
M  V30 65 1 33 64
M  V30 66 1 35 65
M  V30 67 1 35 66
M  V30 68 1 35 67
M  V30 69 1 36 68
M  V30 70 1 36 69
M  V30 71 1 36 70
M  V30 72 1 37 71
M  V30 73 1 37 72
M  V30 74 1 37 73
M  V30 END BOND
M  V30 END CTAB
M  END
