
     RDKit          3D

  0  0  0  0  0  0  0  0  0  0999 V3000
M  V30 BEGIN CTAB
M  V30 COUNTS 63 65 0 0 0
M  V30 BEGIN ATOM
M  V30 1 C -7.23183 -0.860145 0.00682911 0
M  V30 2 C -5.72197 -0.80833 -0.024871 0
M  V30 3 C -5.19361 -2.23396 0.049398 0
M  V30 4 C -5.3048 -0.252028 -1.35436 0
M  V30 5 O -5.24023 -0.0959583 1.07427 0
M  V30 6 C -5.55069 1.23156 1.33634 0
M  V30 7 O -6.31528 1.78854 0.507304 0
M  V30 8 C -5.01791 1.96254 2.52227 0 CFG=1
M  V30 9 N -4.18099 1.13646 3.33736 0
M  V30 10 C -4.2732 3.17157 1.94458 0
M  V30 11 C -3.17374 2.63606 1.05051 0
M  V30 12 O -2.32679 1.846 1.85924 0
M  V30 13 C -1.24046 1.23683 1.28175 0
M  V30 14 C -0.975679 1.39052 -0.0670832 0
M  V30 15 C 0.111658 0.783632 -0.655649 0
M  V30 16 F 0.374517 0.93173 -1.97686 0
M  V30 17 C 0.990655 -0.00639912 0.0657233 0
M  V30 18 N 2.11705 -0.636297 -0.536228 0
M  V30 19 C 2.00808 -1.7225 -1.31663 0
M  V30 20 O 0.86893 -2.21725 -1.53504 0
M  V30 21 C 3.15345 -2.26204 -1.85531 0
M  V30 22 C 4.41375 -1.72787 -1.62322 0
M  V30 23 C 4.50733 -0.612982 -0.819136 0
M  V30 24 C 5.78812 0.0204749 -0.541761 0
M  V30 25 O 5.78226 1.07429 0.156605 0
M  V30 26 C 7.05571 -0.471406 -1.00911 0
M  V30 27 C 7.80232 0.283519 -1.91805 0
M  V30 28 C 8.9997 -0.231313 -2.35571 0
M  V30 29 C 9.4272 -1.45931 -1.8948 0
M  V30 30 F 10.621 -1.9199 -2.36237 0
M  V30 31 C 8.70679 -2.21063 -1.00387 0
M  V30 32 C 7.49803 -1.70118 -0.555437 0
M  V30 33 F 6.77199 -2.41892 0.34627 0
M  V30 34 C 3.32425 -0.106245 -0.300182 0
M  V30 35 N 3.43254 1.05316 0.533255 0
M  V30 36 C 0.721628 -0.156134 1.41007 0
M  V30 37 F 1.55752 -0.92201 2.15308 0
M  V30 38 C -0.359139 0.439903 2.02371 0
M  V30 39 H -7.59529 -1.83776 -0.354096 0
M  V30 40 H -7.52032 -0.780333 1.08643 0
M  V30 41 H -7.69167 0.00788842 -0.4952 0
M  V30 42 H -4.08092 -2.23269 -0.0961917 0
M  V30 43 H -5.36055 -2.67976 1.05444 0
M  V30 44 H -5.63173 -2.88011 -0.734599 0
M  V30 45 H -5.84501 0.676457 -1.6397 0
M  V30 46 H -4.21047 -0.163729 -1.47845 0
M  V30 47 H -5.62759 -1.0131 -2.12561 0
M  V30 48 H -5.82933 2.37248 3.15816 0
M  V30 49 H -4.61944 0.930397 4.28383 0
M  V30 50 H -3.95838 0.204407 2.92423 0
M  V30 51 H -3.90635 3.85101 2.71144 0
M  V30 52 H -4.98984 3.71188 1.2939 0
M  V30 53 H -2.59791 3.44238 0.570118 0
M  V30 54 H -3.63404 2.04822 0.216935 0
M  V30 55 H -1.64603 2.00338 -0.659623 0
M  V30 56 H 3.10005 -3.15288 -2.49971 0
M  V30 57 H 5.29916 -2.19084 -2.08793 0
M  V30 58 H 7.41201 1.25044 -2.24756 0
M  V30 59 H 9.58249 0.363303 -3.06791 0
M  V30 60 H 9.05925 -3.18456 -0.646857 0
M  V30 61 H 3.22406 2.01336 0.167031 0
M  V30 62 H 3.72427 0.954056 1.52971 0
M  V30 63 H -0.584615 0.332126 3.07993 0
M  V30 END ATOM
M  V30 BEGIN BOND
M  V30 1 1 1 2
M  V30 2 1 2 3
M  V30 3 1 2 4
M  V30 4 1 2 5
M  V30 5 1 5 6
M  V30 6 2 6 7
M  V30 7 1 6 8
M  V30 8 1 8 9
M  V30 9 1 8 10
M  V30 10 1 10 11
M  V30 11 1 11 12
M  V30 12 1 12 13
M  V30 13 2 13 14
M  V30 14 1 14 15
M  V30 15 1 15 16
M  V30 16 2 15 17
M  V30 17 1 17 18
M  V30 18 1 18 19
M  V30 19 2 19 20
M  V30 20 1 19 21
M  V30 21 2 21 22
M  V30 22 1 22 23
M  V30 23 1 23 24
M  V30 24 2 24 25
M  V30 25 1 24 26
M  V30 26 2 26 27
M  V30 27 1 27 28
M  V30 28 2 28 29
M  V30 29 1 29 30
M  V30 30 1 29 31
M  V30 31 2 31 32
M  V30 32 1 32 33
M  V30 33 2 23 34
M  V30 34 1 34 35
M  V30 35 1 17 36
M  V30 36 1 36 37
M  V30 37 2 36 38
M  V30 38 1 38 13
M  V30 39 1 34 18
M  V30 40 1 32 26
M  V30 41 1 1 39
M  V30 42 1 1 40
M  V30 43 1 1 41
M  V30 44 1 3 42
M  V30 45 1 3 43
M  V30 46 1 3 44
M  V30 47 1 4 45
M  V30 48 1 4 46
M  V30 49 1 4 47
M  V30 50 1 8 48 CFG=1
M  V30 51 1 9 49
M  V30 52 1 9 50
M  V30 53 1 10 51
M  V30 54 1 10 52
M  V30 55 1 11 53
M  V30 56 1 11 54
M  V30 57 1 14 55
M  V30 58 1 21 56
M  V30 59 1 22 57
M  V30 60 1 27 58
M  V30 61 1 28 59
M  V30 62 1 31 60
M  V30 63 1 35 61
M  V30 64 1 35 62
M  V30 65 1 38 63
M  V30 END BOND
M  V30 END CTAB
M  END
