
     RDKit          3D

  0  0  0  0  0  0  0  0  0  0999 V3000
M  V30 BEGIN CTAB
M  V30 COUNTS 27 28 0 0 0
M  V30 BEGIN ATOM
M  V30 1 O 1.13638 -1.583 -2.00543 0
M  V30 2 C 1.24651 -0.82339 -1.01296 0
M  V30 3 C 2.55344 -0.372605 -0.548667 0
M  V30 4 C 2.70275 0.462135 0.539116 0
M  V30 5 C 3.93404 0.892235 0.983648 0
M  V30 6 C 5.08884 0.49633 0.344625 0
M  V30 7 C 4.94203 -0.338911 -0.744068 0
M  V30 8 C 3.71351 -0.774493 -1.19612 0
M  V30 9 F 3.57421 -1.5907 -2.26043 0
M  V30 10 O 0.104353 -0.417963 -0.362655 0
M  V30 11 N -1.15893 -0.78553 -0.721399 0
M  V30 12 C -2.16902 -0.180302 -0.196635 0
M  V30 13 C -3.52161 -0.583421 -0.589384 0
M  V30 14 N -3.84392 -1.54875 -1.46764 0
M  V30 15 O -5.13675 -1.6385 -1.57625 0
M  V30 16 N -5.67543 -0.762803 -0.797265 0
M  V30 17 C -4.72271 -0.0686107 -0.150298 0
M  V30 18 N -4.91199 0.970516 0.783675 0
M  V30 19 N -1.92314 0.845263 0.734335 0
M  V30 20 H 1.78015 0.778371 1.04957 0
M  V30 21 H 4.0339 1.54571 1.83694 0
M  V30 22 H 6.0711 0.826831 0.68259 0
M  V30 23 H 5.85445 -0.649755 -1.24637 0
M  V30 24 H -4.33824 1.08017 1.64726 0
M  V30 25 H -5.67502 1.6864 0.611933 0
M  V30 26 H -1.6901 0.69112 1.74182 0
M  V30 27 H -1.96881 1.84366 0.429302 0
M  V30 END ATOM
M  V30 BEGIN BOND
M  V30 1 2 1 2
M  V30 2 1 2 3
M  V30 3 2 3 4
M  V30 4 1 4 5
M  V30 5 2 5 6
M  V30 6 1 6 7
M  V30 7 2 7 8
M  V30 8 1 8 9
M  V30 9 1 2 10
M  V30 10 1 10 11
M  V30 11 2 11 12
M  V30 12 1 12 13
M  V30 13 2 13 14
M  V30 14 1 14 15
M  V30 15 1 15 16
M  V30 16 2 16 17
M  V30 17 1 17 18
M  V30 18 1 12 19
M  V30 19 1 8 3
M  V30 20 1 17 13
M  V30 21 1 4 20
M  V30 22 1 5 21
M  V30 23 1 6 22
M  V30 24 1 7 23
M  V30 25 1 18 24
M  V30 26 1 18 25
M  V30 27 1 19 26
M  V30 28 1 19 27
M  V30 END BOND
M  V30 END CTAB
M  END
