
     RDKit          3D

  0  0  0  0  0  0  0  0  0  0999 V3000
M  V30 BEGIN CTAB
M  V30 COUNTS 18 17 0 0 0
M  V30 BEGIN ATOM
M  V30 1 C 2.33157 0.193422 0.193778 0
M  V30 2 C 0.884673 0.581979 0.388059 0
M  V30 3 C -0.0213715 -0.14177 -0.576157 0
M  V30 4 C -1.40982 0.306483 -0.305051 0
M  V30 5 N -2.10518 0.885155 -1.21974 0
M  V30 6 N -2.03525 0.124358 0.955893 0
M  V30 7 N 0.0229384 -1.56675 -0.332457 0
M  V30 8 H 2.64081 0.385502 -0.866999 0
M  V30 9 H 2.95041 0.811727 0.859492 0
M  V30 10 H 2.487 -0.886466 0.438691 0
M  V30 11 H 0.81618 1.6752 0.14417 0
M  V30 12 H 0.573195 0.344992 1.40824 0
M  V30 13 H 0.265681 0.0778179 -1.61788 0
M  V30 14 H -3.07461 1.21396 -1.07739 0
M  V30 15 H -1.94837 0.774109 1.75924 0
M  V30 16 H -2.62579 -0.743579 1.05598 0
M  V30 17 H -0.717409 -2.06184 -0.831152 0
M  V30 18 H 0.965348 -1.97429 -0.376722 0
M  V30 END ATOM
M  V30 BEGIN BOND
M  V30 1 1 1 2
M  V30 2 1 2 3
M  V30 3 1 3 4
M  V30 4 2 4 5 CFG=2
M  V30 5 1 4 6
M  V30 6 1 3 7
M  V30 7 1 1 8
M  V30 8 1 1 9
M  V30 9 1 1 10
M  V30 10 1 2 11
M  V30 11 1 2 12
M  V30 12 1 3 13
M  V30 13 1 5 14
M  V30 14 1 6 15
M  V30 15 1 6 16
M  V30 16 1 7 17
M  V30 17 1 7 18
M  V30 END BOND
M  V30 END CTAB
M  END
