
     RDKit          3D

  0  0  0  0  0  0  0  0  0  0999 V3000
M  V30 BEGIN CTAB
M  V30 COUNTS 36 38 0 0 0
M  V30 BEGIN ATOM
M  V30 1 N -1.1429 5.08775 0.167375 0
M  V30 2 C -0.803908 4.15608 -0.829512 0
M  V30 3 S -0.363028 4.72755 -2.29581 0
M  V30 4 C -0.838904 2.7217 -0.578577 0
M  V30 5 N 0.284227 2.02347 -0.425896 0
M  V30 6 C 0.305968 0.681846 -0.189814 0
M  V30 7 C 1.56262 -0.0346858 -0.0271372 0
M  V30 8 C 1.94478 -1.05078 -0.884098 0
M  V30 9 C 3.15009 -1.68369 -0.670332 0
M  V30 10 C 3.99405 -1.34875 0.361484 0
M  V30 11 C 3.61408 -0.330383 1.22256 0
M  V30 12 C 2.40623 0.307426 1.01251 0
M  V30 13 C -0.900311 0.0270327 -0.107281 0
M  V30 14 N -2.0508 0.751667 -0.26525 0
M  V30 15 C -2.05174 2.06553 -0.495869 0
M  V30 16 N -3.25932 2.80928 -0.659257 0
M  V30 17 C -0.974655 -1.39758 0.136022 0
M  V30 18 C -1.57735 -2.20174 -0.800324 0
M  V30 19 C -1.68795 -3.57079 -0.641993 0
M  V30 20 C -1.18056 -4.16638 0.490098 0
M  V30 21 C -0.573319 -3.38994 1.44269 0
M  V30 22 C -0.475633 -2.01275 1.25767 0
M  V30 23 H -2.12153 5.35938 0.375617 0
M  V30 24 H -0.375485 5.52304 0.719296 0
M  V30 25 H 1.30323 -1.35437 -1.72595 0
M  V30 26 H 3.48738 -2.49069 -1.32397 0
M  V30 27 H 4.95544 -1.85315 0.532291 0
M  V30 28 H 4.29164 -0.0810029 2.02902 0
M  V30 29 H 2.13468 1.09064 1.69087 0
M  V30 30 H -4.06385 2.59037 -0.0209979 0
M  V30 31 H -3.39437 3.54536 -1.36093 0
M  V30 32 H -1.98305 -1.75946 -1.69583 0
M  V30 33 H -2.17238 -4.17752 -1.40432 0
M  V30 34 H -1.26587 -5.23057 0.614129 0
M  V30 35 H -0.186389 -3.8893 2.31725 0
M  V30 36 H 0.00887946 -1.4446 2.03427 0
M  V30 END ATOM
M  V30 BEGIN BOND
M  V30 1 1 1 2
M  V30 2 2 2 3
M  V30 3 1 2 4
M  V30 4 2 4 5
M  V30 5 1 5 6
M  V30 6 1 6 7
M  V30 7 2 7 8
M  V30 8 1 8 9
M  V30 9 2 9 10
M  V30 10 1 10 11
M  V30 11 2 11 12
M  V30 12 2 6 13
M  V30 13 1 13 14
M  V30 14 2 14 15
M  V30 15 1 15 16
M  V30 16 1 13 17
M  V30 17 2 17 18
M  V30 18 1 18 19
M  V30 19 2 19 20
M  V30 20 1 20 21
M  V30 21 2 21 22
M  V30 22 1 15 4
M  V30 23 1 22 17
M  V30 24 1 12 7
M  V30 25 1 1 23
M  V30 26 1 1 24
M  V30 27 1 8 25
M  V30 28 1 9 26
M  V30 29 1 10 27
M  V30 30 1 11 28
M  V30 31 1 12 29
M  V30 32 1 16 30
M  V30 33 1 16 31
M  V30 34 1 18 32
M  V30 35 1 19 33
M  V30 36 1 20 34
M  V30 37 1 21 35
M  V30 38 1 22 36
M  V30 END BOND
M  V30 END CTAB
M  END
