
     RDKit          3D

  0  0  0  0  0  0  0  0  0  0999 V3000
M  V30 BEGIN CTAB
M  V30 COUNTS 19 19 0 0 0
M  V30 BEGIN ATOM
M  V30 1 N -1.36504 1.87397 0.71377 0
M  V30 2 C -0.512915 0.817668 0.301774 0
M  V30 3 C 0.865031 1.00859 0.316686 0
M  V30 4 C 1.7413 0.00413473 -0.0776509 0
M  V30 5 N 3.15548 0.180023 -0.0695282 0
M  V30 6 C 1.25343 -1.22131 -0.498225 0
M  V30 7 C -0.120346 -1.36838 -0.497569 0
M  V30 8 C -0.996156 -0.406121 -0.118383 0
M  V30 9 C -2.48103 -0.64045 -0.144715 0
M  V30 10 F -2.69655 -1.93931 -0.602226 0
M  V30 11 F -3.08272 0.301061 -0.926565 0
M  V30 12 F -2.96103 -0.613587 1.16935 0
M  V30 13 Br 2.41486 -2.63124 -1.04909 0
M  V30 14 H -1.52432 2.72523 0.138044 0
M  V30 15 H -1.85749 1.80777 1.62739 0
M  V30 16 H 1.30767 1.96025 0.6408 0
M  V30 17 H 3.6557 0.6971 -0.813059 0
M  V30 18 H 3.73268 -0.224882 0.716014 0
M  V30 19 H -0.528555 -2.33052 -0.826809 0
M  V30 END ATOM
M  V30 BEGIN BOND
M  V30 1 1 1 2
M  V30 2 2 2 3
M  V30 3 1 3 4
M  V30 4 1 4 5
M  V30 5 2 4 6
M  V30 6 1 6 7
M  V30 7 2 7 8
M  V30 8 1 8 9
M  V30 9 1 9 10
M  V30 10 1 9 11
M  V30 11 1 9 12
M  V30 12 1 6 13
M  V30 13 1 8 2
M  V30 14 1 1 14
M  V30 15 1 1 15
M  V30 16 1 3 16
M  V30 17 1 5 17
M  V30 18 1 5 18
M  V30 19 1 7 19
M  V30 END BOND
M  V30 END CTAB
M  END
