
     RDKit          3D

  0  0  0  0  0  0  0  0  0  0999 V3000
M  V30 BEGIN CTAB
M  V30 COUNTS 64 69 0 0 0
M  V30 BEGIN ATOM
M  V30 1 N 10.4362 1.48468 0.20804 0
M  V30 2 C 9.43414 0.62821 -0.296959 0
M  V30 3 N 9.68761 -0.140324 -1.35395 0
M  V30 4 C 8.75873 -0.975012 -1.87091 0
M  V30 5 N 7.55356 -1.00112 -1.27077 0
M  V30 6 C 7.24424 -0.246465 -0.201185 0
M  V30 7 C 8.21467 0.599396 0.307433 0
M  V30 8 N 7.68704 1.24134 1.35573 0
M  V30 9 C 6.42294 0.806528 1.49517 0
M  V30 10 N 6.14521 -0.0980309 0.55303 0
M  V30 11 C 4.89579 -0.809484 0.351996 0 CFG=1
M  V30 12 C 4.37994 -1.38212 1.67227 0
M  V30 13 C 2.89898 -1.56516 1.32527 0 CFG=2
M  V30 14 O 2.70753 -2.9061 0.987918 0
M  V30 15 C 2.71306 -0.661384 0.132575 0 CFG=1
M  V30 16 C 1.48349 0.194784 0.304063 0
M  V30 17 O 1.28052 1.05605 -0.753262 0
M  V30 18 P -0.0995599 1.99157 -0.521795 0
M  V30 19 O -0.546696 2.70966 -1.9848 0
M  V30 20 O 0.307067 3.13961 0.407545 0
M  V30 21 O -1.34766 1.17412 0.215099 0
M  V30 22 C -2.58061 1.37369 -0.400292 0 CFG=1
M  V30 23 C -3.07788 0.0107114 -0.835395 0
M  V30 24 C -3.99117 -0.381019 0.275098 0 CFG=1
M  V30 25 O -4.31099 0.716729 1.01508 0
M  V30 26 C -3.65206 1.81412 0.540925 0 CFG=2
M  V30 27 C -4.64047 2.76107 -0.103038 0
M  V30 28 O -5.60096 3.19347 0.778321 0
M  V30 29 N -5.18797 -1.04323 -0.2189 0
M  V30 30 C -5.28937 -1.7529 -1.35733 0
M  V30 31 N -6.55244 -2.20422 -1.46343 0
M  V30 32 C -7.26885 -1.78781 -0.395407 0
M  V30 33 C -6.39317 -1.05763 0.378306 0
M  V30 34 N -6.88694 -0.531087 1.51618 0
M  V30 35 C -8.15347 -0.697285 1.89015 0
M  V30 36 N -8.99965 -1.41767 1.11763 0
M  V30 37 C -8.58737 -1.97636 -0.0322535 0
M  V30 38 N -9.49032 -2.72833 -0.828652 0
M  V30 39 O 3.87118 0.0636825 0.0202251 0
M  V30 40 H 10.7948 2.24391 -0.404575 0
M  V30 41 H 10.8235 1.38565 1.15757 0
M  V30 42 H 8.98522 -1.58019 -2.71713 0
M  V30 43 H 5.72146 1.12961 2.25115 0
M  V30 44 H 5.00374 -1.64606 -0.336211 0
M  V30 45 H 4.42714 -0.609338 2.47234 0
M  V30 46 H 4.86048 -2.32598 1.93871 0
M  V30 47 H 2.26128 -1.31861 2.1744 0
M  V30 48 H 3.21381 -3.12128 0.145487 0
M  V30 49 H 2.61739 -1.29832 -0.770267 0
M  V30 50 H 0.613271 -0.515325 0.360021 0
M  V30 51 H 1.55793 0.7604 1.23194 0
M  V30 52 H -1.0329 3.5453 -1.76172 0
M  V30 53 H -2.5029 2.04503 -1.27772 0
M  V30 54 H -3.59348 0.0519565 -1.81568 0
M  V30 55 H -2.23335 -0.709661 -0.917215 0
M  V30 56 H -3.50191 -1.12876 0.961756 0
M  V30 57 H -3.17624 2.3401 1.41432 0
M  V30 58 H -4.11738 3.65414 -0.50793 0
M  V30 59 H -5.09801 2.24424 -0.962708 0
M  V30 60 H -6.45988 3.42702 0.349624 0
M  V30 61 H -4.46456 -1.91895 -2.06126 0
M  V30 62 H -8.55192 -0.278227 2.7989 0
M  V30 63 H -10.1206 -3.41644 -0.410762 0
M  V30 64 H -9.49122 -2.55688 -1.85557 0
M  V30 END ATOM
M  V30 BEGIN BOND
M  V30 1 1 1 2
M  V30 2 2 2 3
M  V30 3 1 3 4
M  V30 4 2 4 5
M  V30 5 1 5 6
M  V30 6 2 6 7
M  V30 7 1 7 8
M  V30 8 2 8 9
M  V30 9 1 9 10
M  V30 10 1 10 11
M  V30 11 1 11 12
M  V30 12 1 12 13
M  V30 13 1 13 14
M  V30 14 1 13 15
M  V30 15 1 15 16
M  V30 16 1 16 17
M  V30 17 1 17 18
M  V30 18 1 18 19
M  V30 19 2 18 20
M  V30 20 1 18 21
M  V30 21 1 21 22
M  V30 22 1 22 23
M  V30 23 1 23 24
M  V30 24 1 24 25
M  V30 25 1 25 26
M  V30 26 1 26 27
M  V30 27 1 27 28
M  V30 28 1 24 29
M  V30 29 1 29 30
M  V30 30 2 30 31
M  V30 31 1 31 32
M  V30 32 2 32 33
M  V30 33 1 33 34
M  V30 34 2 34 35
M  V30 35 1 35 36
M  V30 36 2 36 37
M  V30 37 1 37 38
M  V30 38 1 15 39
M  V30 39 1 7 2
M  V30 40 1 39 11
M  V30 41 1 10 6
M  V30 42 1 26 22
M  V30 43 1 33 29
M  V30 44 1 37 32
M  V30 45 1 1 40
M  V30 46 1 1 41
M  V30 47 1 4 42
M  V30 48 1 9 43
M  V30 49 1 11 44 CFG=3
M  V30 50 1 12 45
M  V30 51 1 12 46
M  V30 52 1 13 47 CFG=1
M  V30 53 1 14 48
M  V30 54 1 15 49 CFG=3
M  V30 55 1 16 50
M  V30 56 1 16 51
M  V30 57 1 19 52
M  V30 58 1 22 53 CFG=3
M  V30 59 1 23 54
M  V30 60 1 23 55
M  V30 61 1 24 56 CFG=1
M  V30 62 1 26 57 CFG=1
M  V30 63 1 27 58
M  V30 64 1 27 59
M  V30 65 1 28 60
M  V30 66 1 30 61
M  V30 67 1 35 62
M  V30 68 1 38 63
M  V30 69 1 38 64
M  V30 END BOND
M  V30 END CTAB
M  END
