
     RDKit          3D

  0  0  0  0  0  0  0  0  0  0999 V3000
M  V30 BEGIN CTAB
M  V30 COUNTS 31 31 0 0 0
M  V30 BEGIN ATOM
M  V30 1 N -2.55747 -1.13633 0.94754 0
M  V30 2 C -1.71646 -1.04996 -0.186536 0
M  V30 3 C -0.794327 0.162718 -0.0684629 0
M  V30 4 C -1.65013 1.38204 0.0237128 0
M  V30 5 N -2.45948 1.48434 -1.15646 0
M  V30 6 C 0.0571224 0.174292 -1.31593 0
M  V30 7 C 1.26204 -0.701291 -1.03158 0
M  V30 8 C 2.14464 0.124803 -0.0918762 0
M  V30 9 C 1.38599 0.507462 1.13337 0
M  V30 10 C -0.0137765 0.0107018 1.18981 0
M  V30 11 C 3.42682 -0.592725 0.181064 0
M  V30 12 H -3.52312 -0.865535 0.851943 0
M  V30 13 H -2.26677 -1.70995 1.72148 0
M  V30 14 H -1.01752 -1.93789 -0.185474 0
M  V30 15 H -2.22118 -1.07352 -1.16494 0
M  V30 16 H -2.22812 1.34609 0.958573 0
M  V30 17 H -0.987774 2.28579 0.0422024 0
M  V30 18 H -3.17122 0.730189 -1.23956 0
M  V30 19 H -2.87586 2.43802 -1.27935 0
M  V30 20 H -0.487156 -0.258687 -2.17535 0
M  V30 21 H 0.382524 1.17703 -1.60445 0
M  V30 22 H 1.80101 -0.900285 -1.97637 0
M  V30 23 H 0.973532 -1.6355 -0.510666 0
M  V30 24 H 2.37637 1.0589 -0.663219 0
M  V30 25 H 1.93461 0.0536817 2.01145 0
M  V30 26 H 1.4407 1.61725 1.33983 0
M  V30 27 H -0.527217 0.572133 2.02622 0
M  V30 28 H -0.0120775 -1.05835 1.54712 0
M  V30 29 H 3.71625 -1.14707 -0.736922 0
M  V30 30 H 4.2268 0.179521 0.330688 0
M  V30 31 H 3.38125 -1.23788 1.08215 0
M  V30 END ATOM
M  V30 BEGIN BOND
M  V30 1 1 1 2
M  V30 2 1 2 3
M  V30 3 1 3 4
M  V30 4 1 4 5
M  V30 5 1 3 6
M  V30 6 1 6 7
M  V30 7 1 7 8
M  V30 8 1 8 9
M  V30 9 1 9 10
M  V30 10 1 8 11
M  V30 11 1 10 3
M  V30 12 1 1 12
M  V30 13 1 1 13
M  V30 14 1 2 14
M  V30 15 1 2 15
M  V30 16 1 4 16
M  V30 17 1 4 17
M  V30 18 1 5 18
M  V30 19 1 5 19
M  V30 20 1 6 20
M  V30 21 1 6 21
M  V30 22 1 7 22
M  V30 23 1 7 23
M  V30 24 1 8 24
M  V30 25 1 9 25
M  V30 26 1 9 26
M  V30 27 1 10 27
M  V30 28 1 10 28
M  V30 29 1 11 29
M  V30 30 1 11 30
M  V30 31 1 11 31
M  V30 END BOND
M  V30 END CTAB
M  END
