
     RDKit          3D

  0  0  0  0  0  0  0  0  0  0999 V3000
M  V30 BEGIN CTAB
M  V30 COUNTS 37 36 0 0 0
M  V30 BEGIN ATOM
M  V30 1 N 4.52488 0.677547 -0.443287 0
M  V30 2 C 4.20813 0.580765 0.975361 0
M  V30 3 C 3.10774 -0.428388 1.21417 0
M  V30 4 C 1.84399 -0.0537232 0.490742 0
M  V30 5 O 1.87464 0.990866 -0.177115 0
M  V30 6 N 0.722225 -0.863116 0.591433 0
M  V30 7 C -0.553887 -0.63949 -0.0360502 0
M  V30 8 C -1.13153 0.638346 0.442766 0
M  V30 9 C -2.44961 1.05457 -0.0900192 0
M  V30 10 C -3.60777 0.154842 0.164041 0
M  V30 11 C -2.79243 2.38208 0.612217 0
M  V30 12 C -0.327939 -0.597361 -1.54401 0
M  V30 13 N 0.239951 -1.88251 -1.91047 0
M  V30 14 C -1.40934 -1.85567 0.241872 0
M  V30 15 H 4.18286 1.60179 -0.7892 0
M  V30 16 H 4.02859 -0.0990157 -0.934494 0
M  V30 17 H 5.06851 0.28999 1.57476 0
M  V30 18 H 3.83653 1.56832 1.35203 0
M  V30 19 H 3.43326 -1.45267 0.918857 0
M  V30 20 H 2.94194 -0.47396 2.31223 0
M  V30 21 H 0.822281 -1.73888 1.19882 0
M  V30 22 H -1.16221 0.641231 1.55872 0
M  V30 23 H -0.415077 1.46488 0.167608 0
M  V30 24 H -2.40587 1.24849 -1.18897 0
M  V30 25 H -3.66436 -0.0690295 1.26184 0
M  V30 26 H -4.54487 0.774473 -0.0309352 0
M  V30 27 H -3.71905 -0.711446 -0.481704 0
M  V30 28 H -2.08967 3.17294 0.358252 0
M  V30 29 H -2.72022 2.16637 1.70938 0
M  V30 30 H -3.85432 2.62255 0.426525 0
M  V30 31 H -1.31164 -0.555201 -2.07297 0
M  V30 32 H 0.336848 0.219152 -1.84513 0
M  V30 33 H 0.747859 -2.33664 -1.10849 0
M  V30 34 H 0.881916 -1.81837 -2.72717 0
M  V30 35 H -0.703898 -2.71889 0.471324 0
M  V30 36 H -2.04557 -1.78556 1.12024 0
M  V30 37 H -1.89288 -2.1693 -0.696681 0
M  V30 END ATOM
M  V30 BEGIN BOND
M  V30 1 1 1 2
M  V30 2 1 2 3
M  V30 3 1 3 4
M  V30 4 2 4 5
M  V30 5 1 4 6
M  V30 6 1 6 7
M  V30 7 1 7 8
M  V30 8 1 8 9
M  V30 9 1 9 10
M  V30 10 1 9 11
M  V30 11 1 7 12
M  V30 12 1 12 13
M  V30 13 1 7 14
M  V30 14 1 1 15
M  V30 15 1 1 16
M  V30 16 1 2 17
M  V30 17 1 2 18
M  V30 18 1 3 19
M  V30 19 1 3 20
M  V30 20 1 6 21
M  V30 21 1 8 22
M  V30 22 1 8 23
M  V30 23 1 9 24
M  V30 24 1 10 25
M  V30 25 1 10 26
M  V30 26 1 10 27
M  V30 27 1 11 28
M  V30 28 1 11 29
M  V30 29 1 11 30
M  V30 30 1 12 31
M  V30 31 1 12 32
M  V30 32 1 13 33
M  V30 33 1 13 34
M  V30 34 1 14 35
M  V30 35 1 14 36
M  V30 36 1 14 37
M  V30 END BOND
M  V30 END CTAB
M  END
