
     RDKit          3D

  0  0  0  0  0  0  0  0  0  0999 V3000
M  V30 BEGIN CTAB
M  V30 COUNTS 32 34 0 0 0
M  V30 BEGIN ATOM
M  V30 1 N -3.97822 0.55493 -1.41194 0
M  V30 2 C -3.39937 -0.610159 -0.778768 0
M  V30 3 C -1.92135 -0.62481 -0.929009 0
M  V30 4 N -1.31423 -1.19853 -1.97735 0
M  V30 5 N -0.0439286 -1.034 -1.80693 0
M  V30 6 C 0.180514 -0.364166 -0.667176 0
M  V30 7 N -1.0045 -0.0969225 -0.0970872 0
M  V30 8 C -1.32733 0.584928 1.11407 0
M  V30 9 C -0.672724 0.506036 2.38011 0
M  V30 10 C -1.92292 -0.351998 2.18248 0
M  V30 11 C 1.49909 -0.000225905 -0.160369 0 CFG=2
M  V30 12 C 2.3241 0.772179 -1.20893 0
M  V30 13 C 3.53651 -0.0150718 -0.712966 0 CFG=2
M  V30 14 C 2.56521 -1.09467 -0.325039 0
M  V30 15 N 4.15744 0.673929 0.376062 0
M  V30 16 H -3.63808 0.546435 -2.41158 0
M  V30 17 H -3.64546 1.44736 -1.0034 0
M  V30 18 H -3.72779 -0.723621 0.26639 0
M  V30 19 H -3.82642 -1.49401 -1.3134 0
M  V30 20 H -1.98375 1.48394 0.938267 0
M  V30 21 H 0.241596 -0.0485213 2.64563 0
M  V30 22 H -0.848309 1.31855 3.12422 0
M  V30 23 H -1.76037 -1.43177 2.06905 0
M  V30 24 H -2.85466 -0.0759153 2.66681 0
M  V30 25 H 1.5705 0.569277 0.762915 0
M  V30 26 H 2.36797 1.84957 -1.03973 0
M  V30 27 H 2.03794 0.418754 -2.2096 0
M  V30 28 H 4.22439 -0.32695 -1.54411 0
M  V30 29 H 2.29532 -1.77072 -1.13834 0
M  V30 30 H 2.82151 -1.55947 0.646533 0
M  V30 31 H 4.18796 1.71778 0.249455 0
M  V30 32 H 3.85935 0.377858 1.31372 0
M  V30 END ATOM
M  V30 BEGIN BOND
M  V30 1 1 1 2
M  V30 2 1 2 3
M  V30 3 2 3 4
M  V30 4 1 4 5
M  V30 5 2 5 6
M  V30 6 1 6 7
M  V30 7 1 7 8
M  V30 8 1 8 9
M  V30 9 1 9 10
M  V30 10 1 6 11
M  V30 11 1 11 12
M  V30 12 1 12 13
M  V30 13 1 13 14
M  V30 14 1 13 15
M  V30 15 1 7 3
M  V30 16 1 10 8
M  V30 17 1 14 11
M  V30 18 1 1 16
M  V30 19 1 1 17
M  V30 20 1 2 18
M  V30 21 1 2 19
M  V30 22 1 8 20
M  V30 23 1 9 21
M  V30 24 1 9 22
M  V30 25 1 10 23
M  V30 26 1 10 24
M  V30 27 1 11 25 CFG=1
M  V30 28 1 12 26
M  V30 29 1 12 27
M  V30 30 1 13 28 CFG=3
M  V30 31 1 14 29
M  V30 32 1 14 30
M  V30 33 1 15 31
M  V30 34 1 15 32
M  V30 END BOND
M  V30 END CTAB
M  END
