
     RDKit          3D

  0  0  0  0  0  0  0  0  0  0999 V3000
M  V30 BEGIN CTAB
M  V30 COUNTS 27 27 0 0 0
M  V30 BEGIN ATOM
M  V30 1 N 5.62522 1.06859 -0.171223 0
M  V30 2 C 4.37777 0.475106 0.142309 0
M  V30 3 S 4.29751 -1.13596 0.308226 0
M  V30 4 N 3.22753 1.26838 0.29739 0
M  V30 5 N 1.98454 0.729365 0.611487 0
M  V30 6 C 1.28449 -0.0522963 -0.322372 0
M  V30 7 O 1.78848 -0.273184 -1.4495 0
M  V30 8 C -0.0200221 -0.614071 -0.0186639 0
M  V30 9 C -0.195905 -1.70204 0.832835 0
M  V30 10 C -1.44295 -2.19485 1.09927 0
M  V30 11 C -2.55073 -1.61506 0.521329 0
M  V30 12 C -2.43603 -0.533163 -0.333608 0
M  V30 13 C -1.18046 -0.0578176 -0.585806 0
M  V30 14 S -3.8546 0.197179 -1.03548 0
M  V30 15 O -3.70657 0.406654 -2.51418 0
M  V30 16 O -5.06161 -0.719767 -0.803109 0
M  V30 17 N -4.26513 1.70472 -0.301298 0
M  V30 18 H 6.12255 0.632738 -1.0112 0
M  V30 19 H 6.06301 1.84971 0.329395 0
M  V30 20 H 3.30122 2.33178 0.166465 0
M  V30 21 H 1.54872 0.89889 1.55407 0
M  V30 22 H 0.712201 -2.11161 1.25141 0
M  V30 23 H -1.54039 -3.0536 1.77663 0
M  V30 24 H -3.53793 -1.99396 0.718984 0
M  V30 25 H -1.11173 0.790898 -1.25687 0
M  V30 26 H -5.17627 2.00359 -0.712124 0
M  V30 27 H -4.2529 1.69977 0.724891 0
M  V30 END ATOM
M  V30 BEGIN BOND
M  V30 1 1 1 2
M  V30 2 2 2 3
M  V30 3 1 2 4
M  V30 4 1 4 5
M  V30 5 1 5 6
M  V30 6 2 6 7
M  V30 7 1 6 8
M  V30 8 2 8 9
M  V30 9 1 9 10
M  V30 10 2 10 11
M  V30 11 1 11 12
M  V30 12 2 12 13
M  V30 13 1 12 14
M  V30 14 2 14 15
M  V30 15 2 14 16
M  V30 16 1 14 17
M  V30 17 1 13 8
M  V30 18 1 1 18
M  V30 19 1 1 19
M  V30 20 1 4 20
M  V30 21 1 5 21
M  V30 22 1 9 22
M  V30 23 1 10 23
M  V30 24 1 11 24
M  V30 25 1 13 25
M  V30 26 1 17 26
M  V30 27 1 17 27
M  V30 END BOND
M  V30 END CTAB
M  END
