
     RDKit          3D

  0  0  0  0  0  0  0  0  0  0999 V3000
M  V30 BEGIN CTAB
M  V30 COUNTS 25 25 0 0 0
M  V30 BEGIN ATOM
M  V30 1 C 3.90138 0.0409948 -0.579198 0
M  V30 2 C 3.31917 1.04191 0.373825 0
M  V30 3 O 1.92248 1.13198 0.172648 0
M  V30 4 C 1.04988 0.0909034 0.310195 0
M  V30 5 O 1.48412 -1.04017 0.637361 0
M  V30 6 C -0.38142 0.263949 0.0846538 0
M  V30 7 C -0.881428 1.51119 -0.27882 0
M  V30 8 C -2.22124 1.73642 -0.505102 0
M  V30 9 Cl -2.85524 3.30329 -0.962478 0
M  V30 10 C -3.08403 0.676001 -0.361652 0
M  V30 11 C -2.64386 -0.585834 -0.00236981 0
M  V30 12 C -1.2858 -0.751063 0.211864 0
M  V30 13 N -0.795866 -2.0325 0.582277 0
M  V30 14 N -3.5723 -1.67052 0.138446 0
M  V30 15 H 4.91779 0.364447 -0.841159 0
M  V30 16 H 3.91625 -0.951336 -0.0409772 0
M  V30 17 H 3.21859 -0.0184671 -1.46744 0
M  V30 18 H 3.73806 2.03759 0.115693 0
M  V30 19 H 3.59127 0.818031 1.42399 0
M  V30 20 H -0.170931 2.32746 -0.383281 0
M  V30 21 H -4.15574 0.822241 -0.534516 0
M  V30 22 H -0.84974 -2.33058 1.5704 0
M  V30 23 H -0.384419 -2.67356 -0.126372 0
M  V30 24 H -4.14863 -2.02561 -0.646353 0
M  V30 25 H -3.62833 -2.08675 1.10836 0
M  V30 END ATOM
M  V30 BEGIN BOND
M  V30 1 1 1 2
M  V30 2 1 2 3
M  V30 3 1 3 4
M  V30 4 2 4 5
M  V30 5 1 4 6
M  V30 6 2 6 7
M  V30 7 1 7 8
M  V30 8 1 8 9
M  V30 9 2 8 10
M  V30 10 1 10 11
M  V30 11 2 11 12
M  V30 12 1 12 13
M  V30 13 1 11 14
M  V30 14 1 12 6
M  V30 15 1 1 15
M  V30 16 1 1 16
M  V30 17 1 1 17
M  V30 18 1 2 18
M  V30 19 1 2 19
M  V30 20 1 7 20
M  V30 21 1 10 21
M  V30 22 1 13 22
M  V30 23 1 13 23
M  V30 24 1 14 24
M  V30 25 1 14 25
M  V30 END BOND
M  V30 END CTAB
M  END
