
     RDKit          3D

  0  0  0  0  0  0  0  0  0  0999 V3000
M  V30 BEGIN CTAB
M  V30 COUNTS 49 53 0 0 0
M  V30 BEGIN ATOM
M  V30 1 C -0.0330962 -0.960225 -0.928389 0
M  V30 2 N -0.00983029 -0.084237 0.256796 0
M  V30 3 C -1.08096 0.452669 0.843922 0
M  V30 4 C -0.570735 1.30333 1.84749 0
M  V30 5 C 0.792888 1.23709 1.82344 0
M  V30 6 C 1.14346 0.339155 0.798379 0
M  V30 7 C 2.53983 0.000124185 0.468463 0
M  V30 8 N 3.60612 0.704859 0.926096 0
M  V30 9 C 4.7518 0.209116 0.450465 0
M  V30 10 C 6.0985 0.545371 0.599993 0
M  V30 11 C 7.09286 -0.151897 -0.0192002 0
M  V30 12 C 6.69242 -1.2312 -0.819323 0
M  V30 13 C 5.36878 -1.56871 -0.971694 0
M  V30 14 C 4.38308 -0.850519 -0.337053 0
M  V30 15 N 3.02227 -0.962636 -0.312312 0
M  V30 16 C 8.49703 0.186709 0.127441 0
M  V30 17 N 9.46288 -0.593098 -0.553089 0
M  V30 18 N 8.85775 1.15844 0.847751 0
M  V30 19 C -2.499 0.266848 0.575834 0
M  V30 20 N -3.47855 1.0969 1.06398 0
M  V30 21 C -4.67542 0.702823 0.62477 0
M  V30 22 C -5.98818 1.15277 0.790953 0
M  V30 23 C -7.06011 0.550937 0.214355 0
M  V30 24 C -6.8355 -0.576038 -0.585715 0
M  V30 25 C -5.55664 -1.04748 -0.771921 0
M  V30 26 C -4.48185 -0.401463 -0.162487 0
M  V30 27 N -3.13462 -0.629935 -0.161312 0
M  V30 28 C -8.45042 0.960265 0.34091 0
M  V30 29 N -9.50734 0.265024 -0.302473 0
M  V30 30 N -8.74526 1.983 1.05553 0
M  V30 31 H 0.804164 -0.612513 -1.59835 0
M  V30 32 H 0.0299369 -2.0026 -0.733026 0
M  V30 33 H -0.933461 -0.729325 -1.56442 0
M  V30 34 H -1.20788 1.89645 2.5098 0
M  V30 35 H 1.49455 1.76115 2.45724 0
M  V30 36 H 6.32902 1.39109 1.23375 0
M  V30 37 H 7.47164 -1.81067 -1.33005 0
M  V30 38 H 5.07887 -2.40303 -1.5918 0
M  V30 39 H 2.5158 -1.7206 -0.827672 0
M  V30 40 H 9.80887 -1.46322 -0.122356 0
M  V30 41 H 9.80702 -0.277823 -1.47276 0
M  V30 42 H 8.27617 1.80581 1.39471 0
M  V30 43 H -6.1267 2.01317 1.40591 0
M  V30 44 H -7.65897 -1.08956 -1.06629 0
M  V30 45 H -5.36166 -1.91597 -1.38575 0
M  V30 46 H -2.7517 -1.46119 -0.692151 0
M  V30 47 H -9.87413 -0.600403 0.109727 0
M  V30 48 H -9.88951 0.64397 -1.17688 0
M  V30 49 H -8.0142 2.51727 1.53976 0
M  V30 END ATOM
M  V30 BEGIN BOND
M  V30 1 1 1 2
M  V30 2 1 2 3
M  V30 3 2 3 4
M  V30 4 1 4 5
M  V30 5 2 5 6
M  V30 6 1 6 7
M  V30 7 2 7 8
M  V30 8 1 8 9
M  V30 9 2 9 10
M  V30 10 1 10 11
M  V30 11 2 11 12
M  V30 12 1 12 13
M  V30 13 2 13 14
M  V30 14 1 14 15
M  V30 15 1 11 16
M  V30 16 1 16 17
M  V30 17 2 16 18 CFG=2
M  V30 18 1 3 19
M  V30 19 2 19 20
M  V30 20 1 20 21
M  V30 21 2 21 22
M  V30 22 1 22 23
M  V30 23 2 23 24
M  V30 24 1 24 25
M  V30 25 2 25 26
M  V30 26 1 26 27
M  V30 27 1 23 28
M  V30 28 1 28 29
M  V30 29 2 28 30 CFG=2
M  V30 30 1 6 2
M  V30 31 1 15 7
M  V30 32 1 27 19
M  V30 33 1 14 9
M  V30 34 1 26 21
M  V30 35 1 1 31
M  V30 36 1 1 32
M  V30 37 1 1 33
M  V30 38 1 4 34
M  V30 39 1 5 35
M  V30 40 1 10 36
M  V30 41 1 12 37
M  V30 42 1 13 38
M  V30 43 1 15 39
M  V30 44 1 17 40
M  V30 45 1 17 41
M  V30 46 1 18 42
M  V30 47 1 22 43
M  V30 48 1 24 44
M  V30 49 1 25 45
M  V30 50 1 27 46
M  V30 51 1 29 47
M  V30 52 1 29 48
M  V30 53 1 30 49
M  V30 END BOND
M  V30 END CTAB
M  END
