
     RDKit          3D

  0  0  0  0  0  0  0  0  0  0999 V3000
M  V30 BEGIN CTAB
M  V30 COUNTS 34 34 0 0 0
M  V30 BEGIN ATOM
M  V30 1 C -4.366 -1.6141 -0.05211 0
M  V30 2 C -3.64259 -0.265742 -0.0983036 0
M  V30 3 C -2.21513 -0.527894 0.248549 0
M  V30 4 C -1.34605 0.690974 0.253144 0 CFG=1
M  V30 5 C 0.0304167 0.256295 0.614869 0
M  V30 6 O 0.140834 -0.375064 1.67418 0
M  V30 7 N 1.10954 0.55057 -0.198452 0
M  V30 8 C 2.47882 0.23549 -0.0412726 0
M  V30 9 C 3.41678 0.641899 -1.00837 0
M  V30 10 C 4.74139 0.357948 -0.89226 0
M  V30 11 C 5.22947 -0.344719 0.183528 0
M  V30 12 N 4.3508 -0.738094 1.11135 0
M  V30 13 C 3.01784 -0.463236 1.01331 0
M  V30 14 N 6.61447 -0.655829 0.329445 0
M  V30 15 N -1.29981 1.39577 -0.977191 0
M  V30 16 C -4.3476 0.641476 0.857671 0
M  V30 17 H -4.79868 -1.75248 0.976185 0
M  V30 18 H -5.13157 -1.69559 -0.827092 0
M  V30 19 H -3.65157 -2.45339 -0.189258 0
M  V30 20 H -3.7374 0.116448 -1.13078 0
M  V30 21 H -2.17482 -0.958242 1.28624 0
M  V30 22 H -1.80886 -1.25449 -0.469892 0
M  V30 23 H -1.68602 1.41824 1.0459 0
M  V30 24 H 0.876497 1.1027 -1.08623 0
M  V30 25 H 3.01374 1.20028 -1.85899 0
M  V30 26 H 5.44823 0.684473 -1.65602 0
M  V30 27 H 2.38843 -0.814864 1.79853 0
M  V30 28 H 7.29403 0.0471094 0.729828 0
M  V30 29 H 6.93132 -1.58686 0.0323944 0
M  V30 30 H -2.02426 1.12441 -1.66977 0
M  V30 31 H -1.11866 2.40082 -0.914714 0
M  V30 32 H -5.18291 1.13567 0.298711 0
M  V30 33 H -3.71885 1.44652 1.26527 0
M  V30 34 H -4.83182 0.053506 1.66815 0
M  V30 END ATOM
M  V30 BEGIN BOND
M  V30 1 1 1 2
M  V30 2 1 2 3
M  V30 3 1 3 4
M  V30 4 1 4 5
M  V30 5 2 5 6
M  V30 6 1 5 7
M  V30 7 1 7 8
M  V30 8 2 8 9
M  V30 9 1 9 10
M  V30 10 2 10 11
M  V30 11 1 11 12
M  V30 12 2 12 13
M  V30 13 1 11 14
M  V30 14 1 4 15
M  V30 15 1 2 16
M  V30 16 1 13 8
M  V30 17 1 1 17
M  V30 18 1 1 18
M  V30 19 1 1 19
M  V30 20 1 2 20
M  V30 21 1 3 21
M  V30 22 1 3 22
M  V30 23 1 4 23 CFG=1
M  V30 24 1 7 24
M  V30 25 1 9 25
M  V30 26 1 10 26
M  V30 27 1 13 27
M  V30 28 1 14 28
M  V30 29 1 14 29
M  V30 30 1 15 30
M  V30 31 1 15 31
M  V30 32 1 16 32
M  V30 33 1 16 33
M  V30 34 1 16 34
M  V30 END BOND
M  V30 END CTAB
M  END
