
     RDKit          3D

  0  0  0  0  0  0  0  0  0  0999 V3000
M  V30 BEGIN CTAB
M  V30 COUNTS 23 23 0 0 0
M  V30 BEGIN ATOM
M  V30 1 N 3.29028 0.352838 -0.690384 0
M  V30 2 C 2.22127 -0.246792 0.0057182 0
M  V30 3 C 2.38062 -1.15464 1.00537 0
M  V30 4 C 1.26871 -1.65606 1.66211 0
M  V30 5 N 0.0445988 -1.21281 1.27999 0
M  V30 6 C -0.101957 -0.316604 0.292018 0
M  V30 7 N 0.973095 0.140176 -0.314684 0
M  V30 8 C -1.42302 0.207985 -0.0800513 0
M  V30 9 N -2.4321 -0.810221 -0.247732 0
M  V30 10 C -1.83875 1.14824 1.04117 0
M  V30 11 C -1.32673 0.938728 -1.40781 0
M  V30 12 H 4.06507 0.788456 -0.191854 0
M  V30 13 H 3.25636 0.318791 -1.7323 0
M  V30 14 H 3.38117 -1.46488 1.26198 0
M  V30 15 H 1.39876 -2.38132 2.4489 0
M  V30 16 H -2.27033 -1.70143 0.263496 0
M  V30 17 H -3.36262 -0.380664 -0.109946 0
M  V30 18 H -0.91694 1.67928 1.40145 0
M  V30 19 H -2.18475 0.52444 1.86825 0
M  V30 20 H -2.56685 1.92038 0.705556 0
M  V30 21 H -2.31144 1.36992 -1.67014 0
M  V30 22 H -1.00088 0.21252 -2.15196 0
M  V30 23 H -0.543562 1.72367 -1.31735 0
M  V30 END ATOM
M  V30 BEGIN BOND
M  V30 1 1 1 2
M  V30 2 2 2 3
M  V30 3 1 3 4
M  V30 4 2 4 5
M  V30 5 1 5 6
M  V30 6 2 6 7
M  V30 7 1 6 8
M  V30 8 1 8 9
M  V30 9 1 8 10
M  V30 10 1 8 11
M  V30 11 1 7 2
M  V30 12 1 1 12
M  V30 13 1 1 13
M  V30 14 1 3 14
M  V30 15 1 4 15
M  V30 16 1 9 16
M  V30 17 1 9 17
M  V30 18 1 10 18
M  V30 19 1 10 19
M  V30 20 1 10 20
M  V30 21 1 11 21
M  V30 22 1 11 22
M  V30 23 1 11 23
M  V30 END BOND
M  V30 END CTAB
M  END
