
     RDKit          3D

  0  0  0  0  0  0  0  0  0  0999 V3000
M  V30 BEGIN CTAB
M  V30 COUNTS 59 61 0 0 0
M  V30 BEGIN ATOM
M  V30 1 N 8.57768 0.867609 1.54298 0
M  V30 2 C 7.27283 1.44942 1.22178 0
M  V30 3 C 6.34007 0.302877 0.900925 0
M  V30 4 C 4.99276 0.776196 0.56182 0
M  V30 5 O 4.78767 2.03648 0.579442 0
M  V30 6 N 3.94981 -0.125456 0.225433 0
M  V30 7 C 2.61792 0.291857 -0.112766 0
M  V30 8 C 1.70321 -0.847713 -0.428067 0
M  V30 9 C 2.14299 -1.68285 -1.57443 0
M  V30 10 C 1.59815 -1.33819 -2.9071 0
M  V30 11 C 0.169874 -0.843319 -2.89042 0
M  V30 12 C 0.121599 0.290078 -1.88705 0
M  V30 13 N 0.355817 -0.315861 -0.593504 0
M  V30 14 C -0.598579 -0.395082 0.446679 0
M  V30 15 O -0.177577 -0.940301 1.53054 0
M  V30 16 C -1.99419 0.0866943 0.371512 0
M  V30 17 C -2.55856 0.0431166 1.77609 0
M  V30 18 C -4.04099 0.335562 1.81717 0
M  V30 19 C -4.3422 1.65162 1.17566 0
M  V30 20 C -5.20701 1.58923 -0.0245885 0
M  V30 21 C -4.95868 0.467143 -0.958067 0
M  V30 22 C -4.28513 -0.7291 -0.330747 0
M  V30 23 C -2.81371 -0.756004 -0.576994 0
M  V30 24 C -4.70215 -0.82846 1.10009 0
M  V30 25 N -6.12829 -0.791564 1.1813 0
M  V30 26 H 9.30504 1.52768 1.21209 0
M  V30 27 H 8.67058 0.00276967 0.978951 0
M  V30 28 H 7.4054 2.09013 0.324276 0
M  V30 29 H 6.94639 2.00933 2.10994 0
M  V30 30 H 6.35688 -0.374507 1.78066 0
M  V30 31 H 6.82111 -0.282668 0.0682896 0
M  V30 32 H 4.1679 -1.1425 0.225549 0
M  V30 33 H 2.22098 0.909218 0.717822 0
M  V30 34 H 2.70994 0.98596 -0.982686 0
M  V30 35 H 1.67609 -1.51829 0.480189 0
M  V30 36 H 1.93075 -2.7733 -1.37538 0
M  V30 37 H 3.26846 -1.63112 -1.61364 0
M  V30 38 H 1.59719 -2.26403 -3.54625 0
M  V30 39 H 2.20125 -0.599887 -3.47322 0
M  V30 40 H -0.457601 -1.6719 -2.50301 0
M  V30 41 H -0.120011 -0.539034 -3.89695 0
M  V30 42 H 1.02656 0.925599 -2.13034 0
M  V30 43 H -0.737108 0.943649 -1.95738 0
M  V30 44 H -1.99769 1.11817 0.0201629 0
M  V30 45 H -2.01304 0.841459 2.34802 0
M  V30 46 H -2.36953 -0.931258 2.27473 0
M  V30 47 H -4.3689 0.284744 2.86486 0
M  V30 48 H -3.39866 2.24253 0.983925 0
M  V30 49 H -4.88351 2.27712 1.94676 0
M  V30 50 H -6.28913 1.63903 0.288174 0
M  V30 51 H -5.05629 2.54949 -0.601164 0
M  V30 52 H -4.34038 0.744785 -1.85416 0
M  V30 53 H -5.94719 0.158301 -1.39266 0
M  V30 54 H -4.70826 -1.64149 -0.848153 0
M  V30 55 H -2.65184 -0.375266 -1.60337 0
M  V30 56 H -2.47342 -1.81021 -0.571425 0
M  V30 57 H -4.28928 -1.75856 1.51742 0
M  V30 58 H -6.52355 -1.11019 0.265308 0
M  V30 59 H -6.50242 -1.41973 1.94884 0
M  V30 END ATOM
M  V30 BEGIN BOND
M  V30 1 1 1 2
M  V30 2 1 2 3
M  V30 3 1 3 4
M  V30 4 2 4 5
M  V30 5 1 4 6
M  V30 6 1 6 7
M  V30 7 1 7 8
M  V30 8 1 8 9
M  V30 9 1 9 10
M  V30 10 1 10 11
M  V30 11 1 11 12
M  V30 12 1 12 13
M  V30 13 1 13 14
M  V30 14 2 14 15
M  V30 15 1 14 16
M  V30 16 1 16 17
M  V30 17 1 17 18
M  V30 18 1 18 19
M  V30 19 1 19 20
M  V30 20 1 20 21
M  V30 21 1 21 22
M  V30 22 1 22 23
M  V30 23 1 22 24
M  V30 24 1 24 25
M  V30 25 1 13 8
M  V30 26 1 23 16
M  V30 27 1 24 18
M  V30 28 1 1 26
M  V30 29 1 1 27
M  V30 30 1 2 28
M  V30 31 1 2 29
M  V30 32 1 3 30
M  V30 33 1 3 31
M  V30 34 1 6 32
M  V30 35 1 7 33
M  V30 36 1 7 34
M  V30 37 1 8 35
M  V30 38 1 9 36
M  V30 39 1 9 37
M  V30 40 1 10 38
M  V30 41 1 10 39
M  V30 42 1 11 40
M  V30 43 1 11 41
M  V30 44 1 12 42
M  V30 45 1 12 43
M  V30 46 1 16 44
M  V30 47 1 17 45
M  V30 48 1 17 46
M  V30 49 1 18 47
M  V30 50 1 19 48
M  V30 51 1 19 49
M  V30 52 1 20 50
M  V30 53 1 20 51
M  V30 54 1 21 52
M  V30 55 1 21 53
M  V30 56 1 22 54
M  V30 57 1 23 55
M  V30 58 1 23 56
M  V30 59 1 24 57
M  V30 60 1 25 58
M  V30 61 1 25 59
M  V30 END BOND
M  V30 END CTAB
M  END
