
     RDKit          3D

  0  0  0  0  0  0  0  0  0  0999 V3000
M  V30 BEGIN CTAB
M  V30 COUNTS 38 40 0 0 0
M  V30 BEGIN ATOM
M  V30 1 N -3.75634 3.12693 -0.76758 0
M  V30 2 C -2.67036 2.17886 -1.03449 0
M  V30 3 C -2.2528 1.65244 0.323008 0
M  V30 4 N -1.1858 0.702035 0.26323 0
M  V30 5 C 0.153964 1.05559 -0.119016 0
M  V30 6 C 0.889453 0.0870444 -0.953393 0 CFG=2
M  V30 7 C 0.38362 -1.3142 -0.999729 0
M  V30 8 C -0.685023 -1.61865 -0.0256492 0
M  V30 9 C -1.44643 -0.653478 0.591081 0
M  V30 10 C -2.42259 -1.03194 1.48752 0
M  V30 11 C -2.61875 -2.36784 1.74936 0
M  V30 12 C -1.86802 -3.34805 1.14256 0
M  V30 13 C -0.900868 -2.95267 0.253505 0
M  V30 14 N 2.29418 0.0503054 -0.620263 0
M  V30 15 C 3.2412 -0.567082 -1.34766 0
M  V30 16 C 4.46809 -0.41076 -0.749654 0
M  V30 17 C 4.22163 0.332246 0.378405 0
M  V30 18 N 2.87743 0.592693 0.41918 0
M  V30 19 N 5.20634 0.736483 1.30895 0
M  V30 20 H -3.45015 4.10743 -0.846986 0
M  V30 21 H -4.22665 2.90413 0.125356 0
M  V30 22 H -1.86637 2.61564 -1.62391 0
M  V30 23 H -3.14675 1.3771 -1.64884 0
M  V30 24 H -3.16977 1.24328 0.771874 0
M  V30 25 H -1.94884 2.50426 0.994299 0
M  V30 26 H 0.160502 2.07376 -0.615465 0
M  V30 27 H 0.768818 1.23353 0.815223 0
M  V30 28 H 0.852606 0.470379 -2.01989 0
M  V30 29 H 0.00776751 -1.61193 -2.00474 0
M  V30 30 H 1.21264 -2.04665 -0.786983 0
M  V30 31 H -3.00108 -0.262821 1.96112 0
M  V30 32 H -3.40502 -2.60681 2.46189 0
M  V30 33 H -2.04899 -4.40992 1.37234 0
M  V30 34 H -0.303606 -3.7279 -0.228793 0
M  V30 35 H 3.07747 -1.11433 -2.2734 0
M  V30 36 H 5.41202 -0.77302 -1.07059 0
M  V30 37 H 6.20157 0.857867 1.02601 0
M  V30 38 H 4.9449 0.916026 2.29213 0
M  V30 END ATOM
M  V30 BEGIN BOND
M  V30 1 1 1 2
M  V30 2 1 2 3
M  V30 3 1 3 4
M  V30 4 1 4 5
M  V30 5 1 5 6
M  V30 6 1 6 7
M  V30 7 1 7 8
M  V30 8 2 8 9
M  V30 9 1 9 10
M  V30 10 2 10 11
M  V30 11 1 11 12
M  V30 12 2 12 13
M  V30 13 1 6 14
M  V30 14 1 14 15
M  V30 15 2 15 16
M  V30 16 1 16 17
M  V30 17 2 17 18
M  V30 18 1 17 19
M  V30 19 1 9 4
M  V30 20 1 18 14
M  V30 21 1 13 8
M  V30 22 1 1 20
M  V30 23 1 1 21
M  V30 24 1 2 22
M  V30 25 1 2 23
M  V30 26 1 3 24
M  V30 27 1 3 25
M  V30 28 1 5 26
M  V30 29 1 5 27
M  V30 30 1 6 28 CFG=3
M  V30 31 1 7 29
M  V30 32 1 7 30
M  V30 33 1 10 31
M  V30 34 1 11 32
M  V30 35 1 12 33
M  V30 36 1 13 34
M  V30 37 1 15 35
M  V30 38 1 16 36
M  V30 39 1 19 37
M  V30 40 1 19 38
M  V30 END BOND
M  V30 END CTAB
M  END
