
     RDKit          3D

  0  0  0  0  0  0  0  0  0  0999 V3000
M  V30 BEGIN CTAB
M  V30 COUNTS 41 41 0 0 0
M  V30 BEGIN ATOM
M  V30 1 N 5.13289 1.33375 0.521273 0
M  V30 2 C 4.90387 -0.00945028 0.0136967 0
M  V30 3 C 3.52652 -0.51241 0.384025 0
M  V30 4 C 2.46025 0.359666 -0.170935 0
M  V30 5 O 2.84471 1.36192 -0.849317 0
M  V30 6 N 1.08353 0.0930274 0.041668 0
M  V30 7 C 0.112509 0.978905 -0.5249 0
M  V30 8 C -1.30956 0.56113 -0.210444 0
M  V30 9 N -1.53941 0.537124 1.22604 0
M  V30 10 C -2.21184 1.61583 -0.803243 0
M  V30 11 C -3.66515 1.38362 -0.483479 0
M  V30 12 C -4.15036 0.0234474 -0.926494 0
M  V30 13 C -3.85291 -0.956191 0.161105 0
M  V30 14 C -2.52555 -1.62407 0.014503 0
M  V30 15 C -1.5309 -0.796174 -0.786595 0
M  V30 16 C 3.40901 -1.91716 -0.169995 0
M  V30 17 H 4.70229 1.40798 1.47958 0
M  V30 18 H 6.15408 1.53328 0.58808 0
M  V30 19 H 5.02789 0.04558 -1.08276 0
M  V30 20 H 5.66461 -0.682294 0.4478 0
M  V30 21 H 3.38649 -0.582739 1.46756 0
M  V30 22 H 0.831536 -0.742311 0.605403 0
M  V30 23 H 0.196909 1.08835 -1.62112 0
M  V30 24 H 0.255492 1.99895 -0.0694265 0
M  V30 25 H -0.968678 -0.216925 1.68764 0
M  V30 26 H -1.27406 1.45629 1.65937 0
M  V30 27 H -2.08004 1.70479 -1.88406 0
M  V30 28 H -1.92833 2.58052 -0.332261 0
M  V30 29 H -3.91197 1.52033 0.578256 0
M  V30 30 H -4.24807 2.13413 -1.05717 0
M  V30 31 H -3.78103 -0.245553 -1.91363 0
M  V30 32 H -5.27087 0.119314 -1.02683 0
M  V30 33 H -4.68956 -1.71493 0.153308 0
M  V30 34 H -3.96772 -0.438652 1.14998 0
M  V30 35 H -2.58962 -2.61512 -0.487626 0
M  V30 36 H -2.08523 -1.80094 1.00818 0
M  V30 37 H -0.570385 -1.3537 -0.744053 0
M  V30 38 H -1.81048 -0.770725 -1.86694 0
M  V30 39 H 4.32928 -2.45366 0.131655 0
M  V30 40 H 3.38025 -1.93252 -1.27437 0
M  V30 41 H 2.55961 -2.47242 0.264735 0
M  V30 END ATOM
M  V30 BEGIN BOND
M  V30 1 1 1 2
M  V30 2 1 2 3
M  V30 3 1 3 4
M  V30 4 2 4 5
M  V30 5 1 4 6
M  V30 6 1 6 7
M  V30 7 1 7 8
M  V30 8 1 8 9
M  V30 9 1 8 10
M  V30 10 1 10 11
M  V30 11 1 11 12
M  V30 12 1 12 13
M  V30 13 1 13 14
M  V30 14 1 14 15
M  V30 15 1 3 16
M  V30 16 1 15 8
M  V30 17 1 1 17
M  V30 18 1 1 18
M  V30 19 1 2 19
M  V30 20 1 2 20
M  V30 21 1 3 21
M  V30 22 1 6 22
M  V30 23 1 7 23
M  V30 24 1 7 24
M  V30 25 1 9 25
M  V30 26 1 9 26
M  V30 27 1 10 27
M  V30 28 1 10 28
M  V30 29 1 11 29
M  V30 30 1 11 30
M  V30 31 1 12 31
M  V30 32 1 12 32
M  V30 33 1 13 33
M  V30 34 1 13 34
M  V30 35 1 14 35
M  V30 36 1 14 36
M  V30 37 1 15 37
M  V30 38 1 15 38
M  V30 39 1 16 39
M  V30 40 1 16 40
M  V30 41 1 16 41
M  V30 END BOND
M  V30 END CTAB
M  END
