
     RDKit          3D

  0  0  0  0  0  0  0  0  0  0999 V3000
M  V30 BEGIN CTAB
M  V30 COUNTS 74 79 0 0 0
M  V30 BEGIN ATOM
M  V30 1 N -7.35993 -2.80309 2.37506 0
M  V30 2 C -7.14668 -1.81883 1.37154 0
M  V30 3 N -8.01618 -1.7963 0.344831 0
M  V30 4 C -7.84936 -0.872154 -0.635495 0
M  V30 5 N -8.73216 -0.795425 -1.74637 0
M  V30 6 C -6.78862 0.0282122 -0.559452 0
M  V30 7 C -5.92126 -0.0109494 0.485906 0
M  V30 8 N -6.11415 -0.941261 1.44408 0
M  V30 9 N -4.98928 0.965751 0.317536 0
M  V30 10 C -5.30507 1.57078 -0.811875 0
M  V30 11 N -6.39885 1.0104 -1.35706 0
M  V30 12 C -3.92969 1.16849 1.27469 0 CFG=1
M  V30 13 C -2.96919 0.0452594 1.30644 0
M  V30 14 C -1.60512 0.287029 0.770182 0
M  V30 15 C -0.561978 -0.415901 1.61987 0
M  V30 16 C 0.777442 -0.427789 0.869113 0
M  V30 17 N 0.58727 -1.36206 -0.205849 0
M  V30 18 C -0.744586 -1.58986 -0.683587 0
M  V30 19 C -1.47049 -0.263265 -0.634201 0
M  V30 20 C 1.67993 -2.03074 -0.767894 0
M  V30 21 O 1.49178 -2.84266 -1.70743 0
M  V30 22 C 3.08664 -1.84418 -0.320427 0
M  V30 23 C 4.05147 -2.67294 -1.08565 0
M  V30 24 C 5.45971 -2.50038 -0.643952 0
M  V30 25 C 6.0145 -1.15462 -0.793063 0
M  V30 26 N 5.49465 -0.0210665 -1.29686 0
M  V30 27 C 6.37938 0.959185 -1.22144 0
M  V30 28 C 7.53607 0.43924 -0.638604 0
M  V30 29 N 7.26909 -0.852189 -0.39376 0
M  V30 30 C 8.24715 -1.74508 0.22091 0
M  V30 31 C 8.62053 1.26093 -0.444117 0
M  V30 32 C 8.56546 2.58339 -0.820728 0
M  V30 33 C 7.4323 3.12587 -1.40066 0
M  V30 34 C 6.35483 2.29409 -1.58973 0
M  V30 35 O -1.21287 1.61183 0.72039 0
M  V30 36 C -2.18379 2.44276 0.166103 0
M  V30 37 C -3.27314 2.52008 1.19361 0 CFG=1
M  V30 38 C -4.20288 3.6578 1.05507 0
M  V30 39 O -2.60703 2.68085 2.43706 0
M  V30 40 H -6.84606 -3.71169 2.38896 0
M  V30 41 H -8.06471 -2.58286 3.11675 0
M  V30 42 H -9.62533 -0.255307 -1.62308 0
M  V30 43 H -8.52927 -1.24847 -2.66502 0
M  V30 44 H -4.7827 2.38458 -1.24355 0
M  V30 45 H -4.45462 1.17653 2.28142 0
M  V30 46 H -3.41839 -0.795432 0.696011 0
M  V30 47 H -2.86388 -0.413366 2.3315 0
M  V30 48 H -0.83199 -1.44994 1.8402 0
M  V30 49 H -0.417681 0.158344 2.57367 0
M  V30 50 H 0.853932 0.591565 0.401534 0
M  V30 51 H 1.6098 -0.658421 1.53722 0
M  V30 52 H -1.30622 -2.27575 -0.0105836 0
M  V30 53 H -0.78681 -1.96075 -1.71845 0
M  V30 54 H -1.00044 0.46911 -1.33497 0
M  V30 55 H -2.50682 -0.46626 -1.01176 0
M  V30 56 H 3.18372 -2.14081 0.76387 0
M  V30 57 H 3.29707 -0.77154 -0.348313 0
M  V30 58 H 4.01201 -2.34877 -2.16647 0
M  V30 59 H 3.74583 -3.75 -1.10243 0
M  V30 60 H 5.54653 -2.77053 0.435239 0
M  V30 61 H 6.13326 -3.19046 -1.2279 0
M  V30 62 H 8.47402 -1.40821 1.26334 0
M  V30 63 H 7.80243 -2.74995 0.277587 0
M  V30 64 H 9.17447 -1.8002 -0.35204 0
M  V30 65 H 9.51576 0.883052 0.000488684 0
M  V30 66 H 9.4379 3.22934 -0.660267 0
M  V30 67 H 7.35829 4.15277 -1.70508 0
M  V30 68 H 5.44126 2.68959 -2.04599 0
M  V30 69 H -2.46303 2.01788 -0.793695 0
M  V30 70 H -1.69414 3.41839 -0.0278424 0
M  V30 71 H -4.06972 4.23688 0.0958407 0
M  V30 72 H -5.28184 3.38753 1.14792 0
M  V30 73 H -4.05626 4.44925 1.84901 0
M  V30 74 H -2.2523 3.61267 2.51019 0
M  V30 END ATOM
M  V30 BEGIN BOND
M  V30 1 1 1 2
M  V30 2 2 2 3
M  V30 3 1 3 4
M  V30 4 1 4 5
M  V30 5 2 4 6
M  V30 6 1 6 7
M  V30 7 2 7 8
M  V30 8 1 7 9
M  V30 9 1 9 10
M  V30 10 2 10 11
M  V30 11 1 9 12
M  V30 12 1 12 13
M  V30 13 1 13 14
M  V30 14 1 14 15
M  V30 15 1 15 16
M  V30 16 1 16 17
M  V30 17 1 17 18
M  V30 18 1 18 19
M  V30 19 1 17 20
M  V30 20 2 20 21
M  V30 21 1 20 22
M  V30 22 1 22 23
M  V30 23 1 23 24
M  V30 24 1 24 25
M  V30 25 2 25 26
M  V30 26 1 26 27
M  V30 27 2 27 28
M  V30 28 1 28 29
M  V30 29 1 29 30
M  V30 30 1 28 31
M  V30 31 2 31 32
M  V30 32 1 32 33
M  V30 33 2 33 34
M  V30 34 1 14 35
M  V30 35 1 35 36
M  V30 36 1 36 37
M  V30 37 1 37 38
M  V30 38 1 37 39 CFG=1
M  V30 39 1 8 2
M  V30 40 1 37 12
M  V30 41 1 11 6
M  V30 42 1 19 14
M  V30 43 1 29 25
M  V30 44 1 34 27
M  V30 45 1 1 40
M  V30 46 1 1 41
M  V30 47 1 5 42
M  V30 48 1 5 43
M  V30 49 1 10 44
M  V30 50 1 12 45 CFG=1
M  V30 51 1 13 46
M  V30 52 1 13 47
M  V30 53 1 15 48
M  V30 54 1 15 49
M  V30 55 1 16 50
M  V30 56 1 16 51
M  V30 57 1 18 52
M  V30 58 1 18 53
M  V30 59 1 19 54
M  V30 60 1 19 55
M  V30 61 1 22 56
M  V30 62 1 22 57
M  V30 63 1 23 58
M  V30 64 1 23 59
M  V30 65 1 24 60
M  V30 66 1 24 61
M  V30 67 1 30 62
M  V30 68 1 30 63
M  V30 69 1 30 64
M  V30 70 1 31 65
M  V30 71 1 32 66
M  V30 72 1 33 67
M  V30 73 1 34 68
M  V30 74 1 36 69
M  V30 75 1 36 70
M  V30 76 1 38 71
M  V30 77 1 38 72
M  V30 78 1 38 73
M  V30 79 1 39 74
M  V30 END BOND
M  V30 END CTAB
M  END
