
     RDKit          3D

  0  0  0  0  0  0  0  0  0  0999 V3000
M  V30 BEGIN CTAB
M  V30 COUNTS 21 21 0 0 0
M  V30 BEGIN ATOM
M  V30 1 N 3.23382 -1.71107 0.044102 0
M  V30 2 N 2.61431 -0.488044 0.242248 0
M  V30 3 C 1.29824 -0.270801 -0.247569 0
M  V30 4 O 0.785882 -1.27322 -0.86087 0
M  V30 5 C 0.559796 0.958084 -0.0960146 0
M  V30 6 C 1.06504 2.22291 -0.248805 0
M  V30 7 O 0.110618 3.10087 0.00360945 0
M  V30 8 C -0.981688 2.44595 0.309991 0
M  V30 9 C -0.764585 1.06918 0.265324 0
M  V30 10 C -1.78226 0.0542057 0.505286 0
M  V30 11 O -2.31543 0.0533272 1.67764 0
M  V30 12 N -2.21703 -0.891779 -0.429264 0
M  V30 13 N -3.17554 -1.84038 -0.133686 0
M  V30 14 H 4.19546 -1.63554 -0.390749 0
M  V30 15 H 2.67618 -2.27696 -0.65808 0
M  V30 16 H 3.09088 0.279945 0.734638 0
M  V30 17 H 2.07812 2.4721 -0.52987 0
M  V30 18 H -1.94297 2.90806 0.573616 0
M  V30 19 H -1.8319 -0.870625 -1.39866 0
M  V30 20 H -2.76615 -2.77227 0.114753 0
M  V30 21 H -3.93081 -1.53395 0.519254 0
M  V30 END ATOM
M  V30 BEGIN BOND
M  V30 1 1 1 2
M  V30 2 1 2 3
M  V30 3 2 3 4
M  V30 4 1 3 5
M  V30 5 2 5 6
M  V30 6 1 6 7
M  V30 7 1 7 8
M  V30 8 2 8 9
M  V30 9 1 9 10
M  V30 10 2 10 11
M  V30 11 1 10 12
M  V30 12 1 12 13
M  V30 13 1 9 5
M  V30 14 1 1 14
M  V30 15 1 1 15
M  V30 16 1 2 16
M  V30 17 1 6 17
M  V30 18 1 8 18
M  V30 19 1 12 19
M  V30 20 1 13 20
M  V30 21 1 13 21
M  V30 END BOND
M  V30 END CTAB
M  END
