
     RDKit          3D

  0  0  0  0  0  0  0  0  0  0999 V3000
M  V30 BEGIN CTAB
M  V30 COUNTS 32 35 0 0 0
M  V30 BEGIN ATOM
M  V30 1 N 5.22763 0.879393 0.821991 0
M  V30 2 C 4.02845 0.327135 0.315459 0
M  V30 3 C 2.81352 0.880587 0.644517 0
M  V30 4 C 1.61879 0.352688 0.15676 0
M  V30 5 C 1.64706 -0.744254 -0.671255 0
M  V30 6 C 2.85494 -1.31685 -1.01532 0
M  V30 7 C 4.0289 -0.767988 -0.513234 0
M  V30 8 C 0.474567 -1.27629 -1.1605 0
M  V30 9 N 0.553745 -2.4052 -2.00894 0
M  V30 10 C -0.706311 -0.669396 -0.788484 0
M  V30 11 C -2.09906 -1.00212 -1.14317 0
M  V30 12 C -2.92881 0.00885736 -0.439415 0
M  V30 13 C -2.12092 0.870936 0.272641 0
M  V30 14 C -2.71891 1.88286 0.994237 0
M  V30 15 C -4.08043 2.07385 1.03819 0
M  V30 16 C -4.87455 1.20388 0.321179 0
M  V30 17 C -4.29965 0.177532 -0.413041 0
M  V30 18 C -0.753568 0.426343 0.037218 0
M  V30 19 N 0.428817 0.897317 0.480983 0
M  V30 20 H 5.37551 1.90391 0.973061 0
M  V30 21 H 6.0261 0.229126 1.06495 0
M  V30 22 H 2.74014 1.75013 1.29711 0
M  V30 23 H 2.84348 -2.17163 -1.66302 0
M  V30 24 H 4.95459 -1.24024 -0.802212 0
M  V30 25 H 0.827682 -3.32023 -1.59796 0
M  V30 26 H 0.347036 -2.3424 -3.02135 0
M  V30 27 H -2.27246 -0.870275 -2.24527 0
M  V30 28 H -2.3887 -2.03564 -0.909397 0
M  V30 29 H -2.09233 2.56623 1.55766 0
M  V30 30 H -4.53958 2.88646 1.61921 0
M  V30 31 H -5.94495 1.3294 0.337092 0
M  V30 32 H -4.9707 -0.484124 -0.963327 0
M  V30 END ATOM
M  V30 BEGIN BOND
M  V30 1 1 1 2
M  V30 2 2 2 3
M  V30 3 1 3 4
M  V30 4 2 4 5
M  V30 5 1 5 6
M  V30 6 2 6 7
M  V30 7 1 5 8
M  V30 8 1 8 9
M  V30 9 2 8 10
M  V30 10 1 10 11
M  V30 11 1 11 12
M  V30 12 2 12 13
M  V30 13 1 13 14
M  V30 14 2 14 15
M  V30 15 1 15 16
M  V30 16 2 16 17
M  V30 17 1 13 18
M  V30 18 2 18 19
M  V30 19 1 7 2
M  V30 20 1 18 10
M  V30 21 1 19 4
M  V30 22 1 17 12
M  V30 23 1 1 20
M  V30 24 1 1 21
M  V30 25 1 3 22
M  V30 26 1 6 23
M  V30 27 1 7 24
M  V30 28 1 9 25
M  V30 29 1 9 26
M  V30 30 1 11 27
M  V30 31 1 11 28
M  V30 32 1 14 29
M  V30 33 1 15 30
M  V30 34 1 16 31
M  V30 35 1 17 32
M  V30 END BOND
M  V30 END CTAB
M  END
