
     RDKit          3D

  0  0  0  0  0  0  0  0  0  0999 V3000
M  V30 BEGIN CTAB
M  V30 COUNTS 17 17 0 0 0
M  V30 BEGIN ATOM
M  V30 1 N -0.201061 2.87077 0.243543 0
M  V30 2 C -0.170921 1.44338 0.125573 0
M  V30 3 C 1.03197 0.785983 -0.0172129 0
M  V30 4 C 1.08596 -0.584555 -0.132353 0
M  V30 5 C -0.116473 -1.27143 -0.0985906 0
M  V30 6 C -1.32881 -0.624318 0.0440636 0
M  V30 7 N -1.317 0.717084 0.151944 0
M  V30 8 N -2.53987 -1.38138 0.0727728 0
M  V30 9 N 2.32351 -1.28787 -0.281459 0 CHG=1
M  V30 10 O 2.31536 -2.51941 -0.380736 0
M  V30 11 O 3.49489 -0.583828 -0.311512 0 CHG=-1
M  V30 12 H -0.384747 3.26548 1.19241 0
M  V30 13 H -0.0532295 3.51446 -0.546726 0
M  V30 14 H 1.96575 1.32625 -0.0428804 0
M  V30 15 H -0.116089 -2.34095 -0.185331 0
M  V30 16 H -2.55631 -2.36168 0.429648 0
M  V30 17 H -3.43293 -0.967974 -0.26315 0
M  V30 END ATOM
M  V30 BEGIN BOND
M  V30 1 1 1 2
M  V30 2 2 2 3
M  V30 3 1 3 4
M  V30 4 2 4 5
M  V30 5 1 5 6
M  V30 6 2 6 7
M  V30 7 1 6 8
M  V30 8 1 4 9
M  V30 9 2 9 10
M  V30 10 1 9 11
M  V30 11 1 7 2
M  V30 12 1 1 12
M  V30 13 1 1 13
M  V30 14 1 3 14
M  V30 15 1 5 15
M  V30 16 1 8 16
M  V30 17 1 8 17
M  V30 END BOND
M  V30 END CTAB
M  END
