
     RDKit          3D

  0  0  0  0  0  0  0  0  0  0999 V3000
M  V30 BEGIN CTAB
M  V30 COUNTS 80 81 0 0 0
M  V30 BEGIN ATOM
M  V30 1 N -4.37827 6.09467 -1.79076 0
M  V30 2 C -3.56757 5.5429 -2.80623 0
M  V30 3 N -2.39906 5.99556 -3.04552 0
M  V30 4 N -4.04965 4.4568 -3.59163 0
M  V30 5 C -3.22455 3.284 -3.68459 0
M  V30 6 C -3.166 2.58484 -2.32592 0
M  V30 7 C -2.31858 1.35406 -2.37652 0
M  V30 8 C -2.13601 0.618864 -1.11583 0 CFG=1
M  V30 9 N -1.39862 -0.643839 -1.24182 0
M  V30 10 S -2.26586 -2.02016 -0.789085 0
M  V30 11 O -1.34901 -3.21787 -1.0044 0
M  V30 12 O -3.44373 -2.26295 -1.72214 0
M  V30 13 C -2.7919 -2.08129 0.881388 0
M  V30 14 C -3.54522 -3.40834 1.04671 0
M  V30 15 C -4.04421 -3.60432 2.42255 0
M  V30 16 C -5.29933 -3.16304 2.82294 0
M  V30 17 C -5.73804 -3.36622 4.10794 0
M  V30 18 C -4.96639 -4.00987 5.05627 0
M  V30 19 C -3.71783 -4.45058 4.66203 0
M  V30 20 C -3.26745 -4.25177 3.37339 0
M  V30 21 C -1.31577 1.33824 -0.0804619 0
M  V30 22 O -1.05772 0.643364 0.965504 0
M  V30 23 N -0.831797 2.63954 -0.177432 0
M  V30 24 C -0.0421513 3.14847 0.947204 0
M  V30 25 C 1.21234 2.44164 1.17697 0
M  V30 26 O 1.87385 2.84536 2.20552 0
M  V30 27 N 1.78299 1.40993 0.448671 0
M  V30 28 C 3.08674 0.770244 0.825509 0 CFG=1
M  V30 29 C 2.73403 -0.573813 1.2652 0
M  V30 30 C 3.67042 -1.58607 1.72173 0
M  V30 31 C 4.71804 -2.14581 0.853796 0
M  V30 32 N 4.14469 -2.75694 -0.328766 0
M  V30 33 C 4.93987 -3.36984 -1.32844 0
M  V30 34 N 6.36101 -3.2829 -1.29737 0
M  V30 35 N 4.38654 -4.01121 -2.27835 0
M  V30 36 C 3.95346 1.03208 -0.287982 0
M  V30 37 O 3.41167 1.01968 -1.45417 0
M  V30 38 C 5.38701 1.31932 -0.279907 0
M  V30 39 N 6.24282 1.40634 0.71472 0
M  V30 40 C 7.48457 1.67366 0.502026 0
M  V30 41 C 7.8943 1.86679 -0.790304 0
M  V30 42 S 6.39899 1.63715 -1.62291 0
M  V30 43 H -5.28074 6.5414 -2.09808 0
M  V30 44 H -4.15114 6.09306 -0.776851 0
M  V30 45 H -1.7908 5.59701 -3.79111 0
M  V30 46 H -4.97311 4.52224 -4.07984 0
M  V30 47 H -2.18523 3.55698 -3.94767 0
M  V30 48 H -3.56558 2.57394 -4.46217 0
M  V30 49 H -4.26232 2.1955 -2.22914 0
M  V30 50 H -3.0796 3.2477 -1.4909 0
M  V30 51 H -1.33955 1.68269 -2.84009 0
M  V30 52 H -2.73518 0.651968 -3.16175 0
M  V30 53 H -3.14157 0.343153 -0.722384 0
M  V30 54 H -1.10178 -0.687832 -2.23364 0
M  V30 55 H -3.51413 -1.30065 1.1641 0
M  V30 56 H -1.91234 -2.14676 1.53489 0
M  V30 57 H -2.86593 -4.25648 0.746575 0
M  V30 58 H -4.39322 -3.46397 0.335865 0
M  V30 59 H -5.89386 -2.65778 2.07118 0
M  V30 60 H -6.72834 -3.00383 4.37258 0
M  V30 61 H -5.31404 -4.16794 6.06664 0
M  V30 62 H -3.07944 -4.9544 5.35754 0
M  V30 63 H -2.27572 -4.61322 3.09135 0
M  V30 64 H -0.97479 3.25183 -1.01617 0
M  V30 65 H -0.68218 3.05425 1.84518 0
M  V30 66 H 0.177174 4.22425 0.809762 0
M  V30 67 H 1.30343 1.06017 -0.422862 0
M  V30 68 H 3.39652 1.36069 1.73852 0
M  V30 69 H 2.01822 -0.415293 2.15869 0
M  V30 70 H 1.96126 -1.00673 0.528038 0
M  V30 71 H 3.0383 -2.46428 2.08697 0
M  V30 72 H 4.19435 -1.3008 2.69462 0
M  V30 73 H 5.20657 -3.05084 1.38217 0
M  V30 74 H 5.56356 -1.55588 0.55661 0
M  V30 75 H 3.11851 -2.74208 -0.441203 0
M  V30 76 H 6.84567 -2.35041 -1.25195 0
M  V30 77 H 6.96706 -4.12161 -1.31653 0
M  V30 78 H 4.95814 -4.46176 -3.01207 0
M  V30 79 H 8.22221 1.7509 1.33588 0
M  V30 80 H 8.901 2.09813 -1.16229 0
M  V30 END ATOM
M  V30 BEGIN BOND
M  V30 1 1 1 2
M  V30 2 2 2 3 CFG=2
M  V30 3 1 2 4
M  V30 4 1 4 5
M  V30 5 1 5 6
M  V30 6 1 6 7
M  V30 7 1 7 8
M  V30 8 1 8 9
M  V30 9 1 9 10
M  V30 10 2 10 11
M  V30 11 2 10 12
M  V30 12 1 10 13
M  V30 13 1 13 14
M  V30 14 1 14 15
M  V30 15 2 15 16
M  V30 16 1 16 17
M  V30 17 2 17 18
M  V30 18 1 18 19
M  V30 19 2 19 20
M  V30 20 1 8 21
M  V30 21 2 21 22
M  V30 22 1 21 23
M  V30 23 1 23 24
M  V30 24 1 24 25
M  V30 25 2 25 26
M  V30 26 1 25 27
M  V30 27 1 27 28
M  V30 28 1 28 29
M  V30 29 1 29 30
M  V30 30 1 30 31
M  V30 31 1 31 32
M  V30 32 1 32 33
M  V30 33 1 33 34
M  V30 34 2 33 35 CFG=2
M  V30 35 1 28 36
M  V30 36 2 36 37
M  V30 37 1 36 38
M  V30 38 2 38 39
M  V30 39 1 39 40
M  V30 40 2 40 41
M  V30 41 1 41 42
M  V30 42 1 20 15
M  V30 43 1 42 38
M  V30 44 1 1 43
M  V30 45 1 1 44
M  V30 46 1 3 45
M  V30 47 1 4 46
M  V30 48 1 5 47
M  V30 49 1 5 48
M  V30 50 1 6 49
M  V30 51 1 6 50
M  V30 52 1 7 51
M  V30 53 1 7 52
M  V30 54 1 8 53 CFG=1
M  V30 55 1 9 54
M  V30 56 1 13 55
M  V30 57 1 13 56
M  V30 58 1 14 57
M  V30 59 1 14 58
M  V30 60 1 16 59
M  V30 61 1 17 60
M  V30 62 1 18 61
M  V30 63 1 19 62
M  V30 64 1 20 63
M  V30 65 1 23 64
M  V30 66 1 24 65
M  V30 67 1 24 66
M  V30 68 1 27 67
M  V30 69 1 28 68 CFG=1
M  V30 70 1 29 69
M  V30 71 1 29 70
M  V30 72 1 30 71
M  V30 73 1 30 72
M  V30 74 1 31 73
M  V30 75 1 31 74
M  V30 76 1 32 75
M  V30 77 1 34 76
M  V30 78 1 34 77
M  V30 79 1 35 78
M  V30 80 1 40 79
M  V30 81 1 41 80
M  V30 END BOND
M  V30 END CTAB
M  END
