
     RDKit          3D

  0  0  0  0  0  0  0  0  0  0999 V3000
M  V30 BEGIN CTAB
M  V30 COUNTS 34 35 0 0 0
M  V30 BEGIN ATOM
M  V30 1 C 4.80325 -1.24218 0.31571 0
M  V30 2 C 3.53877 -0.481191 0.15684 0
M  V30 3 C 2.41573 -0.788974 0.894589 0
M  V30 4 C 1.21958 -0.109775 0.775403 0
M  V30 5 C 1.18551 0.933903 -0.147724 0
M  V30 6 C 2.31455 1.25217 -0.896581 0
M  V30 7 C 3.49599 0.554174 -0.755404 0
M  V30 8 N 4.62412 0.908083 -1.54006 0
M  V30 9 C 0.0537885 -0.442875 1.58354 0
M  V30 10 O 0.30964 -0.921715 2.74211 0
M  V30 11 C -1.31957 -0.261735 1.14763 0
M  V30 12 C -1.72916 -0.216115 -0.160396 0
M  V30 13 C -3.03639 -0.0227284 -0.541291 0
M  V30 14 C -3.43757 0.0147414 -1.97999 0
M  V30 15 C -3.98366 0.133442 0.439855 0
M  V30 16 N -5.34337 0.339614 0.0201528 0
M  V30 17 C -3.62407 0.0951019 1.76677 0
M  V30 18 C -2.28311 -0.104298 2.122 0
M  V30 19 H 5.17719 -1.63825 -0.651218 0
M  V30 20 H 5.60565 -0.620331 0.773217 0
M  V30 21 H 4.64479 -2.10956 1.01124 0
M  V30 22 H 2.42714 -1.59931 1.62013 0
M  V30 23 H 0.31101 1.51831 -0.305266 0
M  V30 24 H 2.30266 2.06539 -1.62174 0
M  V30 25 H 4.68269 0.759409 -2.55711 0
M  V30 26 H 5.4459 1.34458 -1.0708 0
M  V30 27 H -1.00623 -0.343404 -0.937969 0
M  V30 28 H -2.83198 0.770795 -2.51783 0
M  V30 29 H -4.51163 0.319215 -2.04822 0
M  V30 30 H -3.373 -1.00066 -2.43782 0
M  V30 31 H -5.62435 1.20188 -0.508361 0
M  V30 32 H -6.04606 -0.39351 0.254388 0
M  V30 33 H -4.36756 0.216549 2.52593 0
M  V30 34 H -2.04027 -0.130749 3.16991 0
M  V30 END ATOM
M  V30 BEGIN BOND
M  V30 1 1 1 2
M  V30 2 2 2 3
M  V30 3 1 3 4
M  V30 4 2 4 5
M  V30 5 1 5 6
M  V30 6 2 6 7
M  V30 7 1 7 8
M  V30 8 1 4 9
M  V30 9 2 9 10
M  V30 10 1 9 11
M  V30 11 2 11 12
M  V30 12 1 12 13
M  V30 13 1 13 14
M  V30 14 2 13 15
M  V30 15 1 15 16
M  V30 16 1 15 17
M  V30 17 2 17 18
M  V30 18 1 7 2
M  V30 19 1 18 11
M  V30 20 1 1 19
M  V30 21 1 1 20
M  V30 22 1 1 21
M  V30 23 1 3 22
M  V30 24 1 5 23
M  V30 25 1 6 24
M  V30 26 1 8 25
M  V30 27 1 8 26
M  V30 28 1 12 27
M  V30 29 1 14 28
M  V30 30 1 14 29
M  V30 31 1 14 30
M  V30 32 1 16 31
M  V30 33 1 16 32
M  V30 34 1 17 33
M  V30 35 1 18 34
M  V30 END BOND
M  V30 END CTAB
M  END
