
     RDKit          3D

  0  0  0  0  0  0  0  0  0  0999 V3000
M  V30 BEGIN CTAB
M  V30 COUNTS 52 56 0 0 0
M  V30 BEGIN ATOM
M  V30 1 N -3.12184 -2.92979 0.457552 0
M  V30 2 C -2.15812 -1.94036 0.125379 0
M  V30 3 N -0.942494 -2.3588 -0.306606 0
M  V30 4 C 0.0673152 -1.58407 -0.659227 0
M  V30 5 C 1.37587 -2.1351 -1.12329 0
M  V30 6 N 2.29573 -1.09977 -1.48831 0
M  V30 7 C 2.20351 -0.0737905 -2.50069 0
M  V30 8 C 2.86633 1.11631 -1.80319 0
M  V30 9 C 3.93751 0.442076 -1.04186 0
M  V30 10 C 3.57442 -0.874777 -0.867657 0
M  V30 11 C 4.43786 -1.71618 -0.170612 0
M  V30 12 C 5.63071 -1.24463 0.335316 0
M  V30 13 C 5.98891 0.0814386 0.15592 0
M  V30 14 C 5.13116 0.907575 -0.533814 0
M  V30 15 S 7.50949 0.643102 0.811864 0
M  V30 16 O 8.50026 -0.490846 0.879449 0
M  V30 17 O 8.07646 1.75607 -0.0496884 0
M  V30 18 N 7.32351 1.23332 2.43071 0
M  V30 19 N -0.163334 -0.270581 -0.570456 0
M  V30 20 C -1.36505 0.225482 -0.142931 0
M  V30 21 C -2.43094 -0.561971 0.229566 0
M  V30 22 C -3.54319 0.0708364 0.625202 0
M  V30 23 C -4.84323 -0.55035 1.08049 0
M  V30 24 C -5.9635 -0.138451 0.138748 0
M  V30 25 C -6.57972 1.13121 0.7055 0
M  V30 26 C -5.80249 2.29351 0.171718 0
M  V30 27 C -4.54152 2.48534 0.985962 0
M  V30 28 C -3.50204 1.47327 0.617053 0
M  V30 29 S -1.94995 1.82083 0.0708327 0
M  V30 30 H -3.79647 -3.3161 -0.210659 0
M  V30 31 H -3.13331 -3.27608 1.43999 0
M  V30 32 H 1.82501 -2.80684 -0.377308 0
M  V30 33 H 1.23149 -2.76958 -2.04274 0
M  V30 34 H 1.16912 0.248968 -2.72424 0
M  V30 35 H 2.76243 -0.342497 -3.42114 0
M  V30 36 H 3.26082 1.77786 -2.60214 0
M  V30 37 H 2.14712 1.63418 -1.14413 0
M  V30 38 H 4.17595 -2.7642 -0.0174966 0
M  V30 39 H 6.27247 -1.92021 0.867444 0
M  V30 40 H 5.45302 1.93993 -0.650481 0
M  V30 41 H 6.57664 0.711422 2.92351 0
M  V30 42 H 7.17915 2.25428 2.46704 0
M  V30 43 H -4.82437 -1.61358 1.11921 0
M  V30 44 H -5.09175 -0.162609 2.10038 0
M  V30 45 H -5.59262 -0.0200601 -0.880598 0
M  V30 46 H -6.73759 -0.910473 0.178504 0
M  V30 47 H -6.5245 1.05337 1.81035 0
M  V30 48 H -7.63782 1.23736 0.405475 0
M  V30 49 H -5.49974 2.15682 -0.871102 0
M  V30 50 H -6.39432 3.24651 0.300397 0
M  V30 51 H -4.13371 3.47701 0.704246 0
M  V30 52 H -4.69864 2.45362 2.06254 0
M  V30 END ATOM
M  V30 BEGIN BOND
M  V30 1 1 1 2
M  V30 2 2 2 3
M  V30 3 1 3 4
M  V30 4 1 4 5
M  V30 5 1 5 6
M  V30 6 1 6 7
M  V30 7 1 7 8
M  V30 8 1 8 9
M  V30 9 2 9 10
M  V30 10 1 10 11
M  V30 11 2 11 12
M  V30 12 1 12 13
M  V30 13 2 13 14
M  V30 14 1 13 15
M  V30 15 2 15 16
M  V30 16 2 15 17
M  V30 17 1 15 18
M  V30 18 2 4 19
M  V30 19 1 19 20
M  V30 20 2 20 21
M  V30 21 1 21 22
M  V30 22 1 22 23
M  V30 23 1 23 24
M  V30 24 1 24 25
M  V30 25 1 25 26
M  V30 26 1 26 27
M  V30 27 1 27 28
M  V30 28 1 28 29
M  V30 29 1 21 2
M  V30 30 2 28 22
M  V30 31 1 10 6
M  V30 32 1 29 20
M  V30 33 1 14 9
M  V30 34 1 1 30
M  V30 35 1 1 31
M  V30 36 1 5 32
M  V30 37 1 5 33
M  V30 38 1 7 34
M  V30 39 1 7 35
M  V30 40 1 8 36
M  V30 41 1 8 37
M  V30 42 1 11 38
M  V30 43 1 12 39
M  V30 44 1 14 40
M  V30 45 1 18 41
M  V30 46 1 18 42
M  V30 47 1 23 43
M  V30 48 1 23 44
M  V30 49 1 24 45
M  V30 50 1 24 46
M  V30 51 1 25 47
M  V30 52 1 25 48
M  V30 53 1 26 49
M  V30 54 1 26 50
M  V30 55 1 27 51
M  V30 56 1 27 52
M  V30 END BOND
M  V30 END CTAB
M  END
