
     RDKit          3D

  0  0  0  0  0  0  0  0  0  0999 V3000
M  V30 BEGIN CTAB
M  V30 COUNTS 38 38 0 0 0
M  V30 BEGIN ATOM
M  V30 1 N 5.17753 0.683974 -1.52043 0
M  V30 2 C 3.89201 0.0208011 -1.4039 0
M  V30 3 C 3.19777 0.568337 -0.1749 0
M  V30 4 N 1.89485 -0.0595071 0.000153537 0
M  V30 5 C 0.689409 0.665915 -0.0207636 0
M  V30 6 O 0.723701 1.89887 -0.19558 0
M  V30 7 C -0.601468 -0.0170978 0.1611 0
M  V30 8 C -1.77317 0.905208 0.110405 0
M  V30 9 C -3.03033 0.143254 0.291868 0
M  V30 10 C -4.27221 0.776947 0.1337 0
M  V30 11 C -5.46228 0.102302 0.28982 0
M  V30 12 C -5.48018 -1.2333 0.610312 0
M  V30 13 C -4.28657 -1.88631 0.772811 0
M  V30 14 C -3.09108 -1.19492 0.61264 0
M  V30 15 N -1.84944 1.68981 -1.11284 0
M  V30 16 C 1.82211 -1.49588 0.206128 0
M  V30 17 C 4.10014 0.312045 1.00425 0
M  V30 18 H 5.01148 1.71405 -1.52268 0
M  V30 19 H 5.80839 0.423604 -0.744262 0
M  V30 20 H 3.33299 0.242858 -2.34006 0
M  V30 21 H 4.09931 -1.05704 -1.28062 0
M  V30 22 H 3.09508 1.66272 -0.321222 0
M  V30 23 H -0.658554 -0.536366 1.15939 0
M  V30 24 H -0.776342 -0.820508 -0.597917 0
M  V30 25 H -1.64464 1.62771 0.950858 0
M  V30 26 H -4.24972 1.82716 -0.11827 0
M  V30 27 H -6.41772 0.606611 0.164106 0
M  V30 28 H -6.41421 -1.79106 0.739678 0
M  V30 29 H -4.26629 -2.94016 1.02586 0
M  V30 30 H -2.19216 -1.75321 0.748088 0
M  V30 31 H -2.48318 2.50393 -0.886551 0
M  V30 32 H -2.28211 1.16177 -1.90159 0
M  V30 33 H 1.44145 -1.67131 1.2519 0
M  V30 34 H 2.80089 -1.98598 0.155567 0
M  V30 35 H 1.0813 -1.93342 -0.463632 0
M  V30 36 H 3.58599 0.448455 1.9736 0
M  V30 37 H 4.5584 -0.697757 0.992732 0
M  V30 38 H 4.91887 1.0875 0.980999 0
M  V30 END ATOM
M  V30 BEGIN BOND
M  V30 1 1 1 2
M  V30 2 1 2 3
M  V30 3 1 3 4
M  V30 4 1 4 5
M  V30 5 2 5 6
M  V30 6 1 5 7
M  V30 7 1 7 8
M  V30 8 1 8 9
M  V30 9 2 9 10
M  V30 10 1 10 11
M  V30 11 2 11 12
M  V30 12 1 12 13
M  V30 13 2 13 14
M  V30 14 1 8 15
M  V30 15 1 4 16
M  V30 16 1 3 17
M  V30 17 1 14 9
M  V30 18 1 1 18
M  V30 19 1 1 19
M  V30 20 1 2 20
M  V30 21 1 2 21
M  V30 22 1 3 22
M  V30 23 1 7 23
M  V30 24 1 7 24
M  V30 25 1 8 25
M  V30 26 1 10 26
M  V30 27 1 11 27
M  V30 28 1 12 28
M  V30 29 1 13 29
M  V30 30 1 14 30
M  V30 31 1 15 31
M  V30 32 1 15 32
M  V30 33 1 16 33
M  V30 34 1 16 34
M  V30 35 1 16 35
M  V30 36 1 17 36
M  V30 37 1 17 37
M  V30 38 1 17 38
M  V30 END BOND
M  V30 END CTAB
M  END
