
     RDKit          3D

  0  0  0  0  0  0  0  0  0  0999 V3000
M  V30 BEGIN CTAB
M  V30 COUNTS 35 34 0 0 0
M  V30 BEGIN ATOM
M  V30 1 C -4.14271 0.269224 -0.710896 0 CFG=1
M  V30 2 N -5.31235 1.09587 -0.503339 0
M  V30 3 C -3.50303 -0.0194813 0.639401 0
M  V30 4 S -2.03151 -1.04967 0.464905 0
M  V30 5 C -0.719566 -0.194537 -0.404848 0
M  V30 6 C -0.159477 0.97975 0.33464 0
M  V30 7 C 0.430495 0.63029 1.65742 0
M  V30 8 S 1.78698 -0.552447 1.45548 0
M  V30 9 C 3.11719 0.29786 0.560938 0
M  V30 10 C 4.29973 -0.628528 0.345897 0 CFG=2
M  V30 11 N 4.84944 -1.10027 1.58096 0
M  V30 12 C 5.34283 0.0797245 -0.435263 0
M  V30 13 O 5.05421 0.633652 -1.67472 0
M  V30 14 O 6.52338 0.211269 -0.0187655 0
M  V30 15 C -4.50622 -0.991204 -1.4024 0
M  V30 16 O -3.5002 -1.8979 -1.68169 0
M  V30 17 O -5.70547 -1.19205 -1.70914 0
M  V30 18 H -3.36577 0.804352 -1.31918 0
M  V30 19 H -5.18326 1.69752 0.354355 0
M  V30 20 H -5.39267 1.73957 -1.3216 0
M  V30 21 H -4.23078 -0.609619 1.26722 0
M  V30 22 H -3.24508 0.919483 1.1352 0
M  V30 23 H 0.0934561 -0.946573 -0.609182 0
M  V30 24 H -1.10587 0.133326 -1.39182 0
M  V30 25 H -0.999459 1.6963 0.499465 0
M  V30 26 H 0.574235 1.47517 -0.310752 0
M  V30 27 H 0.883496 1.57429 2.07554 0
M  V30 28 H -0.317067 0.243768 2.36359 0
M  V30 29 H 2.68809 0.628609 -0.398853 0
M  V30 30 H 3.44593 1.19311 1.13455 0
M  V30 31 H 3.9106 -1.50987 -0.209117 0
M  V30 32 H 5.68102 -1.68885 1.40717 0
M  V30 33 H 4.15515 -1.49437 2.22637 0
M  V30 34 H 4.28532 0.255982 -2.20638 0
M  V30 35 H -3.70109 -2.68375 -2.2774 0
M  V30 END ATOM
M  V30 BEGIN BOND
M  V30 1 1 1 2
M  V30 2 1 1 3
M  V30 3 1 3 4
M  V30 4 1 4 5
M  V30 5 1 5 6
M  V30 6 1 6 7
M  V30 7 1 7 8
M  V30 8 1 8 9
M  V30 9 1 9 10
M  V30 10 1 10 11
M  V30 11 1 10 12
M  V30 12 1 12 13
M  V30 13 2 12 14
M  V30 14 1 1 15
M  V30 15 1 15 16
M  V30 16 2 15 17
M  V30 17 1 1 18 CFG=3
M  V30 18 1 2 19
M  V30 19 1 2 20
M  V30 20 1 3 21
M  V30 21 1 3 22
M  V30 22 1 5 23
M  V30 23 1 5 24
M  V30 24 1 6 25
M  V30 25 1 6 26
M  V30 26 1 7 27
M  V30 27 1 7 28
M  V30 28 1 9 29
M  V30 29 1 9 30
M  V30 30 1 10 31 CFG=3
M  V30 31 1 11 32
M  V30 32 1 11 33
M  V30 33 1 13 34
M  V30 34 1 16 35
M  V30 END BOND
M  V30 END CTAB
M  END
