
     RDKit          3D

  0  0  0  0  0  0  0  0  0  0999 V3000
M  V30 BEGIN CTAB
M  V30 COUNTS 35 36 0 0 0
M  V30 BEGIN ATOM
M  V30 1 N -4.56136 1.70254 0.350162 0
M  V30 2 C -3.74563 0.829507 -0.484316 0
M  V30 3 C -2.37669 0.828652 0.104384 0
M  V30 4 N -1.42554 -0.0078026 -0.627201 0
M  V30 5 C -1.71129 -1.39924 -0.532434 0
M  V30 6 C -1.22124 -2.06192 0.72707 0
M  V30 7 C 0.200158 -2.55539 0.426016 0
M  V30 8 O 1.02718 -1.47906 0.623906 0
M  V30 9 C 0.98976 -0.545274 -0.439847 0 CFG=1
M  V30 10 C -0.129405 0.406582 -0.217737 0
M  V30 11 N 2.25109 0.163663 -0.338368 0
M  V30 12 C 2.37859 1.43207 0.0831346 0
M  V30 13 C 3.70983 1.78634 0.0585984 0
M  V30 14 C 4.38505 0.675074 -0.397145 0
M  V30 15 N 3.46546 -0.279307 -0.623933 0
M  V30 16 N 5.79021 0.599961 -0.577359 0
M  V30 17 H -4.11521 1.96661 1.23844 0
M  V30 18 H -5.52532 1.43725 0.426324 0
M  V30 19 H -4.23661 -0.163268 -0.435792 0
M  V30 20 H -3.71637 1.26443 -1.48834 0
M  V30 21 H -1.97369 1.87683 -0.036891 0
M  V30 22 H -2.33339 0.656787 1.19222 0
M  V30 23 H -2.78892 -1.58407 -0.605191 0
M  V30 24 H -1.21968 -1.90011 -1.4182 0
M  V30 25 H -1.12834 -1.33951 1.58536 0
M  V30 26 H -1.8124 -2.95055 1.00078 0
M  V30 27 H 0.227701 -2.87023 -0.649752 0
M  V30 28 H 0.503414 -3.38107 1.06445 0
M  V30 29 H 0.900246 -1.0983 -1.39683 0
M  V30 30 H -0.174087 0.710397 0.849963 0
M  V30 31 H 0.111277 1.33603 -0.81241 0
M  V30 32 H 1.56733 2.08149 0.397717 0
M  V30 33 H 4.06518 2.76172 0.354958 0
M  V30 34 H 6.24781 -0.330723 -0.528059 0
M  V30 35 H 6.37488 1.42991 -0.753331 0
M  V30 END ATOM
M  V30 BEGIN BOND
M  V30 1 1 1 2
M  V30 2 1 2 3
M  V30 3 1 3 4
M  V30 4 1 4 5
M  V30 5 1 5 6
M  V30 6 1 6 7
M  V30 7 1 7 8
M  V30 8 1 8 9
M  V30 9 1 9 10
M  V30 10 1 9 11
M  V30 11 1 11 12
M  V30 12 2 12 13
M  V30 13 1 13 14
M  V30 14 2 14 15
M  V30 15 1 14 16
M  V30 16 1 10 4
M  V30 17 1 15 11
M  V30 18 1 1 17
M  V30 19 1 1 18
M  V30 20 1 2 19
M  V30 21 1 2 20
M  V30 22 1 3 21
M  V30 23 1 3 22
M  V30 24 1 5 23
M  V30 25 1 5 24
M  V30 26 1 6 25
M  V30 27 1 6 26
M  V30 28 1 7 27
M  V30 29 1 7 28
M  V30 30 1 9 29 CFG=3
M  V30 31 1 10 30
M  V30 32 1 10 31
M  V30 33 1 12 32
M  V30 34 1 13 33
M  V30 35 1 16 34
M  V30 36 1 16 35
M  V30 END BOND
M  V30 END CTAB
M  END
