
     RDKit          3D

  0  0  0  0  0  0  0  0  0  0999 V3000
M  V30 BEGIN CTAB
M  V30 COUNTS 21 21 0 0 0
M  V30 BEGIN ATOM
M  V30 1 N 2.72084 -3.13814 0.510845 0
M  V30 2 C 2.07604 -2.18685 0.353686 0
M  V30 3 C 1.27695 -1.00087 0.183039 0
M  V30 4 C -0.104975 -1.08559 0.113313 0
M  V30 5 C -0.881511 0.0420671 -0.0498983 0
M  V30 6 O -2.242 -0.00145818 -0.122748 0
M  V30 7 C -3.07088 -1.1191 -0.0519885 0
M  V30 8 F -3.9303 -1.01491 1.02841 0
M  V30 9 F -3.79537 -1.24326 -1.23173 0
M  V30 10 C -0.304233 1.31712 -0.151602 0
M  V30 11 C 1.06496 1.39004 -0.0813582 0
M  V30 12 C 1.83404 0.256875 0.0820129 0
M  V30 13 N 3.24501 0.37017 0.150374 0
M  V30 14 N -1.11284 2.46979 -0.319279 0
M  V30 15 H -0.518742 -2.07746 0.194436 0
M  V30 16 H -2.50242 -2.05077 0.0786868 0
M  V30 17 H 1.50899 2.39323 -0.161963 0
M  V30 18 H 3.72268 0.847092 -0.646631 0
M  V30 19 H 3.82227 0.00856762 0.941243 0
M  V30 20 H -1.8433 2.77693 0.351713 0
M  V30 21 H -0.965206 3.0465 -1.17055 0
M  V30 END ATOM
M  V30 BEGIN BOND
M  V30 1 3 1 2
M  V30 2 1 2 3
M  V30 3 2 3 4
M  V30 4 1 4 5
M  V30 5 1 5 6
M  V30 6 1 6 7
M  V30 7 1 7 8
M  V30 8 1 7 9
M  V30 9 2 5 10
M  V30 10 1 10 11
M  V30 11 2 11 12
M  V30 12 1 12 13
M  V30 13 1 10 14
M  V30 14 1 12 3
M  V30 15 1 4 15
M  V30 16 1 7 16
M  V30 17 1 11 17
M  V30 18 1 13 18
M  V30 19 1 13 19
M  V30 20 1 14 20
M  V30 21 1 14 21
M  V30 END BOND
M  V30 END CTAB
M  END
