
     RDKit          3D

  0  0  0  0  0  0  0  0  0  0999 V3000
M  V30 BEGIN CTAB
M  V30 COUNTS 27 28 0 0 0
M  V30 BEGIN ATOM
M  V30 1 N 2.27124 -1.646 0.785402 0
M  V30 2 N 2.10695 -0.420017 0.171176 0
M  V30 3 C 3.06894 0.333253 -0.373892 0
M  V30 4 N 4.44377 0.0505061 -0.443044 0
M  V30 5 N 2.49925 1.44544 -0.864879 0
M  V30 6 N 1.19343 1.38731 -0.628612 0
M  V30 7 C 0.947496 0.216554 0.0215692 0
M  V30 8 C -0.429993 -0.167515 0.439458 0
M  V30 9 C -1.23035 -0.717667 -0.704154 0
M  V30 10 C -2.68773 -0.80292 -0.248904 0
M  V30 11 C -3.22322 0.545258 0.151765 0
M  V30 12 C -2.08108 1.54478 0.172859 0
M  V30 13 N -1.06046 0.990918 1.04297 0
M  V30 14 H 2.56639 -2.46426 0.1992 0
M  V30 15 H 2.1207 -1.81988 1.80611 0
M  V30 16 H 5.20281 0.761334 -0.223635 0
M  V30 17 H 4.7537 -0.90958 -0.724955 0
M  V30 18 H -0.382628 -0.952065 1.22303 0
M  V30 19 H -1.12657 -0.17042 -1.63792 0
M  V30 20 H -0.898719 -1.77802 -0.855369 0
M  V30 21 H -2.66778 -1.51793 0.625616 0
M  V30 22 H -3.32637 -1.21847 -1.05726 0
M  V30 23 H -3.64059 0.437457 1.18583 0
M  V30 24 H -3.98842 0.940753 -0.543681 0
M  V30 25 H -1.68005 1.62675 -0.843814 0
M  V30 26 H -2.38905 2.53164 0.520711 0
M  V30 27 H -0.361668 1.77279 1.20596 0
M  V30 END ATOM
M  V30 BEGIN BOND
M  V30 1 1 1 2
M  V30 2 1 2 3
M  V30 3 1 3 4
M  V30 4 2 3 5
M  V30 5 1 5 6
M  V30 6 2 6 7
M  V30 7 1 7 8
M  V30 8 1 8 9
M  V30 9 1 9 10
M  V30 10 1 10 11
M  V30 11 1 11 12
M  V30 12 1 12 13
M  V30 13 1 7 2
M  V30 14 1 13 8
M  V30 15 1 1 14
M  V30 16 1 1 15
M  V30 17 1 4 16
M  V30 18 1 4 17
M  V30 19 1 8 18
M  V30 20 1 9 19
M  V30 21 1 9 20
M  V30 22 1 10 21
M  V30 23 1 10 22
M  V30 24 1 11 23
M  V30 25 1 11 24
M  V30 26 1 12 25
M  V30 27 1 12 26
M  V30 28 1 13 27
M  V30 END BOND
M  V30 END CTAB
M  END
