
     RDKit          3D

  0  0  0  0  0  0  0  0  0  0999 V3000
M  V30 BEGIN CTAB
M  V30 COUNTS 54 56 0 0 0
M  V30 BEGIN ATOM
M  V30 1 N -5.30305 -0.618252 2.96737 0
M  V30 2 C -4.37178 -1.08873 1.93019 0
M  V30 3 C -5.00388 -0.859527 0.606047 0
M  V30 4 C -4.2172 -1.27391 -0.585158 0
M  V30 5 C -2.92237 -0.591174 -0.764596 0
M  V30 6 O -2.61665 0.349614 -0.00128728 0
M  V30 7 N -2.02827 -0.991632 -1.79171 0
M  V30 8 C -0.749027 -0.36198 -2.01559 0 CFG=1
M  V30 9 C -0.817282 1.08483 -2.29106 0
M  V30 10 C -0.0148292 2.00329 -1.45348 0
M  V30 11 C 1.35995 1.50072 -1.0878 0 CFG=1
M  V30 12 C 1.522 0.0451646 -1.28608 0 CFG=1
M  V30 13 C 0.201569 -0.608733 -0.846484 0
M  V30 14 O 1.66857 -0.2654 -2.67087 0
M  V30 15 O 2.3497 2.13661 -1.87671 0
M  V30 16 C 1.60481 1.89338 0.335433 0
M  V30 17 N 2.86749 1.49492 0.870241 0
M  V30 18 C 3.99995 2.23411 0.654037 0
M  V30 19 N 4.99329 1.58917 1.25445 0
M  V30 20 C 4.56002 0.471502 1.84784 0
M  V30 21 C 3.20499 0.415999 1.60038 0
M  V30 22 N 2.54477 -0.628052 2.11729 0
M  V30 23 C 3.13992 -1.57537 2.83389 0
M  V30 24 N 4.47569 -1.5017 3.06469 0
M  V30 25 C 5.21556 -0.48348 2.58111 0
M  V30 26 N 6.59871 -0.464958 2.85615 0
M  V30 27 C -2.40243 -2.08411 -2.66755 0
M  V30 28 H -6.19061 -0.269222 2.54891 0
M  V30 29 H -4.85095 0.164097 3.4835 0
M  V30 30 H -4.30583 -2.1977 2.10879 0
M  V30 31 H -3.3981 -0.612113 2.0629 0
M  V30 32 H -5.17843 0.253159 0.500059 0
M  V30 33 H -6.01198 -1.34896 0.515899 0
M  V30 34 H -4.8155 -1.17603 -1.53912 0
M  V30 35 H -4.0788 -2.39446 -0.49367 0
M  V30 36 H -0.255916 -0.863972 -2.87645 0
M  V30 37 H -0.614255 1.28505 -3.37758 0
M  V30 38 H -1.8955 1.41868 -2.17705 0
M  V30 39 H -0.576345 2.33185 -0.555939 0
M  V30 40 H 0.143488 2.95139 -2.04754 0
M  V30 41 H 2.35028 -0.445426 -0.805748 0
M  V30 42 H 0.331839 -1.668 -0.627415 0
M  V30 43 H -0.184487 -0.0123957 0.00126745 0
M  V30 44 H 1.83658 0.574134 -3.1649 0
M  V30 45 H 2.26951 3.10917 -1.8545 0
M  V30 46 H 0.811979 1.44615 1.01397 0
M  V30 47 H 1.44511 3.00215 0.490497 0
M  V30 48 H 4.07652 3.15444 0.107764 0
M  V30 49 H 2.58694 -2.39666 3.23353 0
M  V30 50 H 7.27581 -0.255497 2.10956 0
M  V30 51 H 6.92758 -0.663338 3.81326 0
M  V30 52 H -2.90186 -2.90371 -2.07851 0
M  V30 53 H -1.50106 -2.53053 -3.1191 0
M  V30 54 H -3.15624 -1.77454 -3.4191 0
M  V30 END ATOM
M  V30 BEGIN BOND
M  V30 1 1 1 2
M  V30 2 1 2 3
M  V30 3 1 3 4
M  V30 4 1 4 5
M  V30 5 2 5 6
M  V30 6 1 5 7
M  V30 7 1 7 8
M  V30 8 1 8 9
M  V30 9 1 9 10
M  V30 10 1 10 11
M  V30 11 1 11 12
M  V30 12 1 12 13
M  V30 13 1 12 14
M  V30 14 1 11 15 CFG=3
M  V30 15 1 11 16
M  V30 16 1 16 17
M  V30 17 1 17 18
M  V30 18 2 18 19
M  V30 19 1 19 20
M  V30 20 2 20 21
M  V30 21 1 21 22
M  V30 22 2 22 23
M  V30 23 1 23 24
M  V30 24 2 24 25
M  V30 25 1 25 26
M  V30 26 1 7 27
M  V30 27 1 13 8
M  V30 28 1 21 17
M  V30 29 1 25 20
M  V30 30 1 1 28
M  V30 31 1 1 29
M  V30 32 1 2 30
M  V30 33 1 2 31
M  V30 34 1 3 32
M  V30 35 1 3 33
M  V30 36 1 4 34
M  V30 37 1 4 35
M  V30 38 1 8 36 CFG=3
M  V30 39 1 9 37
M  V30 40 1 9 38
M  V30 41 1 10 39
M  V30 42 1 10 40
M  V30 43 1 12 41 CFG=1
M  V30 44 1 13 42
M  V30 45 1 13 43
M  V30 46 1 14 44
M  V30 47 1 15 45
M  V30 48 1 16 46
M  V30 49 1 16 47
M  V30 50 1 18 48
M  V30 51 1 23 49
M  V30 52 1 26 50
M  V30 53 1 26 51
M  V30 54 1 27 52
M  V30 55 1 27 53
M  V30 56 1 27 54
M  V30 END BOND
M  V30 END CTAB
M  END
