
     RDKit          3D

  0  0  0  0  0  0  0  0  0  0999 V3000
M  V30 BEGIN CTAB
M  V30 COUNTS 64 68 0 0 0
M  V30 BEGIN ATOM
M  V30 1 N -12.8432 -2.60222 1.56513 0
M  V30 2 C -12.2371 -1.49197 0.943022 0
M  V30 3 C -11.7639 -0.417451 1.66817 0
M  V30 4 C -11.185 0.627242 1.0006 0
M  V30 5 C -11.0334 0.694017 -0.36887 0
M  V30 6 C -11.5171 -0.401904 -1.09739 0
M  V30 7 C -12.1027 -1.46162 -0.437267 0
M  V30 8 N -10.4316 1.79499 -0.973746 0
M  V30 9 N -9.38741 2.26225 -1.23249 0
M  V30 10 C -8.01611 2.03357 -1.1113 0
M  V30 11 C -7.31061 1.1947 -1.95249 0
M  V30 12 C -5.95628 0.956905 -1.84984 0
M  V30 13 C -5.24448 1.59457 -0.841632 0
M  V30 14 C -5.90254 2.43368 0.0135264 0
M  V30 15 C -7.26065 2.65679 -0.108607 0
M  V30 16 N -3.85425 1.3237 -0.771017 0
M  V30 17 N -3.23793 0.820233 0.189547 0
M  V30 18 C -1.81407 0.584056 0.162938 0
M  V30 19 C -1.21312 -0.0944658 -0.876143 0
M  V30 20 C 0.15044 -0.338867 -0.936849 0
M  V30 21 C 0.944816 0.121173 0.0959949 0
M  V30 22 C 0.361814 0.801793 1.14391 0
M  V30 23 C -0.99861 1.03295 1.18211 0
M  V30 24 N 2.3583 -0.129696 0.0372406 0
M  V30 25 N 3.19244 0.631961 0.59665 0
M  V30 26 C 4.60463 0.426379 0.56685 0
M  V30 27 C 5.26786 0.0102773 -0.569122 0
M  V30 28 C 6.62913 -0.185472 -0.590532 0
M  V30 29 C 7.39453 0.0295149 0.53903 0
M  V30 30 C 6.73928 0.449331 1.69291 0
M  V30 31 C 5.37357 0.640379 1.695 0
M  V30 32 N 8.81633 -0.166067 0.553083 0
M  V30 33 N 9.44974 -0.861459 -0.271896 0
M  V30 34 C 10.8606 -1.03962 -0.235319 0
M  V30 35 C 11.5503 -0.779186 0.933654 0
M  V30 36 C 12.9276 -0.950884 0.976553 0
M  V30 37 C 13.639 -1.37778 -0.122167 0
M  V30 38 C 12.9584 -1.63543 -1.2792 0
M  V30 39 C 11.5757 -1.46562 -1.32983 0
M  V30 40 N 15.048 -1.53592 -0.0188426 0
M  V30 41 H -13.4571 -2.46233 2.38089 0
M  V30 42 H -12.6733 -3.55263 1.20455 0
M  V30 43 H -11.8803 -0.461333 2.74366 0
M  V30 44 H -10.8223 1.45658 1.61838 0
M  V30 45 H -11.3989 -0.350083 -2.1638 0
M  V30 46 H -12.4541 -2.27656 -1.07241 0
M  V30 47 H -7.86481 0.702229 -2.73258 0
M  V30 48 H -5.43854 0.280081 -2.54376 0
M  V30 49 H -5.32303 2.91508 0.786787 0
M  V30 50 H -7.80283 3.32185 0.563067 0
M  V30 51 H -1.84248 -0.450211 -1.67841 0
M  V30 52 H 0.585985 -0.886406 -1.78835 0
M  V30 53 H 0.979209 1.15859 1.94424 0
M  V30 54 H -1.46633 1.56592 2.00044 0
M  V30 55 H 4.6801 -0.166278 -1.47315 0
M  V30 56 H 7.13152 -0.516946 -1.51031 0
M  V30 57 H 7.36341 0.610326 2.56314 0
M  V30 58 H 4.88137 0.964484 2.59002 0
M  V30 59 H 10.9857 -0.44437 1.79514 0
M  V30 60 H 13.4802 -0.75127 1.88221 0
M  V30 61 H 13.5258 -1.96986 -2.13957 0
M  V30 62 H 11.0522 -1.67153 -2.24653 0
M  V30 63 H 15.5248 -1.78232 0.889403 0
M  V30 64 H 15.7012 -1.41782 -0.835963 0
M  V30 END ATOM
M  V30 BEGIN BOND
M  V30 1 1 1 2
M  V30 2 2 2 3
M  V30 3 1 3 4
M  V30 4 2 4 5
M  V30 5 1 5 6
M  V30 6 2 6 7
M  V30 7 1 5 8
M  V30 8 2 8 9
M  V30 9 1 9 10
M  V30 10 2 10 11
M  V30 11 1 11 12
M  V30 12 2 12 13
M  V30 13 1 13 14
M  V30 14 2 14 15
M  V30 15 1 13 16
M  V30 16 2 16 17
M  V30 17 1 17 18
M  V30 18 2 18 19
M  V30 19 1 19 20
M  V30 20 2 20 21
M  V30 21 1 21 22
M  V30 22 2 22 23
M  V30 23 1 21 24
M  V30 24 2 24 25
M  V30 25 1 25 26
M  V30 26 2 26 27
M  V30 27 1 27 28
M  V30 28 2 28 29
M  V30 29 1 29 30
M  V30 30 2 30 31
M  V30 31 1 29 32
M  V30 32 2 32 33
M  V30 33 1 33 34
M  V30 34 2 34 35
M  V30 35 1 35 36
M  V30 36 2 36 37
M  V30 37 1 37 38
M  V30 38 2 38 39
M  V30 39 1 37 40
M  V30 40 1 7 2
M  V30 41 1 15 10
M  V30 42 1 23 18
M  V30 43 1 31 26
M  V30 44 1 39 34
M  V30 45 1 1 41
M  V30 46 1 1 42
M  V30 47 1 3 43
M  V30 48 1 4 44
M  V30 49 1 6 45
M  V30 50 1 7 46
M  V30 51 1 11 47
M  V30 52 1 12 48
M  V30 53 1 14 49
M  V30 54 1 15 50
M  V30 55 1 19 51
M  V30 56 1 20 52
M  V30 57 1 22 53
M  V30 58 1 23 54
M  V30 59 1 27 55
M  V30 60 1 28 56
M  V30 61 1 30 57
M  V30 62 1 31 58
M  V30 63 1 35 59
M  V30 64 1 36 60
M  V30 65 1 38 61
M  V30 66 1 39 62
M  V30 67 1 40 63
M  V30 68 1 40 64
M  V30 END BOND
M  V30 END CTAB
M  END
