
     RDKit          3D

  0  0  0  0  0  0  0  0  0  0999 V3000
M  V30 BEGIN CTAB
M  V30 COUNTS 30 31 0 0 0
M  V30 BEGIN ATOM
M  V30 1 N 0.772008 -0.832683 2.05033 0
M  V30 2 C 0.230382 -0.221237 0.831012 0
M  V30 3 C -0.501555 1.04499 1.14961 0
M  V30 4 C -1.95859 0.874693 1.39824 0
M  V30 5 C -2.63803 1.00791 0.0313879 0
M  V30 6 C -2.76797 -0.413776 -0.492858 0
M  V30 7 C -1.39758 -0.781309 -1.00806 0
M  V30 8 C -0.52402 -1.26769 0.119561 0
M  V30 9 C 1.42591 0.172054 0.0287231 0
M  V30 10 O 1.47116 1.02557 -0.976567 0
M  V30 11 N 2.70482 1.11414 -1.43525 0
M  V30 12 C 3.50652 0.311652 -0.735842 0
M  V30 13 N 2.70043 -0.26839 0.170491 0
M  V30 14 N 4.90153 0.0815131 -0.859123 0
M  V30 15 H 0.0713229 -1.41361 2.56191 0
M  V30 16 H 1.50904 -1.48905 1.72592 0
M  V30 17 H -0.367134 1.78192 0.304681 0
M  V30 18 H -0.00732199 1.45904 2.06745 0
M  V30 19 H -2.32394 1.72356 2.01729 0
M  V30 20 H -2.2453 -0.0545349 1.86396 0
M  V30 21 H -3.60809 1.50485 0.0804771 0
M  V30 22 H -2.00391 1.5992 -0.669104 0
M  V30 23 H -3.53255 -0.484205 -1.308 0
M  V30 24 H -3.0412 -1.03746 0.38732 0
M  V30 25 H -1.53262 -1.61997 -1.75654 0
M  V30 26 H -0.910411 0.0348102 -1.56435 0
M  V30 27 H 0.239059 -1.97142 -0.351932 0
M  V30 28 H -1.10554 -1.89581 0.819819 0
M  V30 29 H 5.39107 -0.789264 -0.570159 0
M  V30 30 H 5.54251 0.804503 -1.27562 0
M  V30 END ATOM
M  V30 BEGIN BOND
M  V30 1 1 1 2
M  V30 2 1 2 3
M  V30 3 1 3 4
M  V30 4 1 4 5
M  V30 5 1 5 6
M  V30 6 1 6 7
M  V30 7 1 7 8
M  V30 8 1 2 9
M  V30 9 1 9 10
M  V30 10 1 10 11
M  V30 11 2 11 12
M  V30 12 1 12 13
M  V30 13 1 12 14
M  V30 14 1 8 2
M  V30 15 2 13 9
M  V30 16 1 1 15
M  V30 17 1 1 16
M  V30 18 1 3 17
M  V30 19 1 3 18
M  V30 20 1 4 19
M  V30 21 1 4 20
M  V30 22 1 5 21
M  V30 23 1 5 22
M  V30 24 1 6 23
M  V30 25 1 6 24
M  V30 26 1 7 25
M  V30 27 1 7 26
M  V30 28 1 8 27
M  V30 29 1 8 28
M  V30 30 1 14 29
M  V30 31 1 14 30
M  V30 END BOND
M  V30 END CTAB
M  END
