
     RDKit          3D

  0  0  0  0  0  0  0  0  0  0999 V3000
M  V30 BEGIN CTAB
M  V30 COUNTS 28 29 0 0 0
M  V30 BEGIN ATOM
M  V30 1 N 1.45217 -3.75241 0.41631 0
M  V30 2 C 1.71572 -2.62629 0.238984 0
M  V30 3 C 2.01597 -1.24457 0.012978 0
M  V30 4 C 3.11673 -0.682201 0.609891 0
M  V30 5 C 3.4087 0.667973 0.388115 0
M  V30 6 C 2.56752 1.38446 -0.43084 0
M  V30 7 C 1.467 0.815992 -1.02567 0
M  V30 8 C 1.1992 -0.50662 -0.79557 0
M  V30 9 S -0.225642 -1.28968 -1.54986 0
M  V30 10 C -1.60279 -1.10124 -0.423238 0
M  V30 11 N -1.86366 -2.00238 0.522737 0
M  V30 12 C -2.899 -1.84322 1.3553 0
M  V30 13 N -3.69135 -0.766117 1.2453 0
M  V30 14 C -3.46017 0.160661 0.306697 0
M  V30 15 C -2.3988 0.00457729 -0.552367 0
M  V30 16 N -2.16403 0.994105 -1.54431 0
M  V30 17 N -4.2811 1.31323 0.16419 0
M  V30 18 N 4.53236 1.28917 0.982611 0 CHG=1
M  V30 19 O 4.74603 2.48278 0.755277 0
M  V30 20 O 5.33968 0.53188 1.79065 0 CHG=-1
M  V30 21 H 3.75968 -1.26927 1.24832 0
M  V30 22 H 2.78558 2.43512 -0.609848 0
M  V30 23 H 0.847177 1.44582 -1.66178 0
M  V30 24 H -3.10128 -2.59958 2.13389 0
M  V30 25 H -2.44521 0.859645 -2.53773 0
M  V30 26 H -1.69242 1.89103 -1.27207 0
M  V30 27 H -3.81221 2.23382 0.0329693 0
M  V30 28 H -5.31584 1.1733 0.199064 0
M  V30 END ATOM
M  V30 BEGIN BOND
M  V30 1 3 1 2
M  V30 2 1 2 3
M  V30 3 2 3 4
M  V30 4 1 4 5
M  V30 5 2 5 6
M  V30 6 1 6 7
M  V30 7 2 7 8
M  V30 8 1 8 9
M  V30 9 1 9 10
M  V30 10 2 10 11
M  V30 11 1 11 12
M  V30 12 2 12 13
M  V30 13 1 13 14
M  V30 14 2 14 15
M  V30 15 1 15 16
M  V30 16 1 14 17
M  V30 17 1 5 18
M  V30 18 2 18 19
M  V30 19 1 18 20
M  V30 20 1 8 3
M  V30 21 1 15 10
M  V30 22 1 4 21
M  V30 23 1 6 22
M  V30 24 1 7 23
M  V30 25 1 12 24
M  V30 26 1 16 25
M  V30 27 1 16 26
M  V30 28 1 17 27
M  V30 29 1 17 28
M  V30 END BOND
M  V30 END CTAB
M  END
