
     RDKit          3D

  0  0  0  0  0  0  0  0  0  0999 V3000
M  V30 BEGIN CTAB
M  V30 COUNTS 53 56 0 0 0
M  V30 BEGIN ATOM
M  V30 1 C 8.18673 0.21181 -0.537661 0
M  V30 2 C 7.06048 -0.765631 -0.417118 0
M  V30 3 O 5.82511 -0.0787484 -0.364432 0
M  V30 4 C 4.6214 -0.784922 -0.251311 0
M  V30 5 O 4.72369 -2.03158 -0.20241 0
M  V30 6 C 3.34603 -0.121739 -0.194696 0
M  V30 7 C 3.11001 1.24137 -0.23969 0
M  V30 8 N 4.12771 2.21674 -0.351881 0
M  V30 9 O 1.81493 1.46725 -0.162628 0
M  V30 10 C 1.21004 0.315778 -0.0704635 0
M  V30 11 C 2.09653 -0.71781 -0.0839719 0
M  V30 12 C 1.67616 -2.0229 0.0025368 0
M  V30 13 C 0.329441 -2.27123 0.103936 0
M  V30 14 O -0.31592 -3.39355 0.196852 0
M  V30 15 C -1.58905 -3.19495 0.272598 0
M  V30 16 C -1.86665 -1.79659 0.228728 0
M  V30 17 C -0.618272 -1.22438 0.120856 0
M  V30 18 C -0.178517 0.0485521 0.0348927 0
M  V30 19 C -1.03052 1.21915 0.0434621 0
M  V30 20 C -1.42904 1.75444 -1.15921 0
M  V30 21 C -2.13832 2.94201 -1.22996 0
M  V30 22 C -2.44893 3.59561 -0.0830099 0
M  V30 23 C -2.07287 3.09898 1.12666 0
M  V30 24 C -1.35439 1.89607 1.19784 0
M  V30 25 Cl -2.50218 3.98661 2.57201 0
M  V30 26 C -3.21613 4.8793 -0.162446 0
M  V30 27 C -3.17967 -1.23878 0.285973 0
M  V30 28 O -3.65914 -0.122551 0.26589 0
M  V30 29 O -4.24295 -2.21062 0.396269 0
M  V30 30 C -5.59145 -1.71013 0.458024 0
M  V30 31 C -6.53334 -2.85362 0.568141 0
M  V30 32 N -2.57919 -4.20651 0.383449 0
M  V30 33 H 7.80944 1.22042 -0.366119 0
M  V30 34 H 8.98251 0.00102854 0.196909 0
M  V30 35 H 8.65547 0.179024 -1.54267 0
M  V30 36 H 7.18902 -1.31734 0.557662 0
M  V30 37 H 7.04196 -1.52707 -1.22195 0
M  V30 38 H 4.17755 2.8619 -1.18756 0
M  V30 39 H 4.87507 2.35927 0.362971 0
M  V30 40 H 2.41968 -2.8003 -0.0127105 0
M  V30 41 H -1.2006 1.26224 -2.1038 0
M  V30 42 H -2.44313 3.34638 -2.1958 0
M  V30 43 H -1.06659 1.51953 2.15346 0
M  V30 44 H -2.94338 5.45333 -1.06667 0
M  V30 45 H -3.10285 5.49991 0.726684 0
M  V30 46 H -4.27909 4.60399 -0.266563 0
M  V30 47 H -5.6891 -0.948 1.23562 0
M  V30 48 H -5.77207 -1.20536 -0.532788 0
M  V30 49 H -7.45664 -2.60405 0.00813243 0
M  V30 50 H -6.76182 -3.09034 1.63232 0
M  V30 51 H -6.08524 -3.72729 0.0375991 0
M  V30 52 H -3.21561 -4.30224 1.21279 0
M  V30 53 H -2.71633 -4.91246 -0.374751 0
M  V30 END ATOM
M  V30 BEGIN BOND
M  V30 1 1 1 2
M  V30 2 1 2 3
M  V30 3 1 3 4
M  V30 4 2 4 5
M  V30 5 1 4 6
M  V30 6 2 6 7
M  V30 7 1 7 8
M  V30 8 1 7 9
M  V30 9 1 9 10
M  V30 10 2 10 11
M  V30 11 1 11 12
M  V30 12 2 12 13
M  V30 13 1 13 14
M  V30 14 1 14 15
M  V30 15 2 15 16
M  V30 16 1 16 17
M  V30 17 2 17 18
M  V30 18 1 18 19
M  V30 19 2 19 20
M  V30 20 1 20 21
M  V30 21 2 21 22
M  V30 22 1 22 23
M  V30 23 2 23 24
M  V30 24 1 23 25
M  V30 25 1 22 26
M  V30 26 1 16 27
M  V30 27 2 27 28
M  V30 28 1 27 29
M  V30 29 1 29 30
M  V30 30 1 30 31
M  V30 31 1 15 32
M  V30 32 1 11 6
M  V30 33 1 17 13
M  V30 34 1 24 19
M  V30 35 1 18 10
M  V30 36 1 1 33
M  V30 37 1 1 34
M  V30 38 1 1 35
M  V30 39 1 2 36
M  V30 40 1 2 37
M  V30 41 1 8 38
M  V30 42 1 8 39
M  V30 43 1 12 40
M  V30 44 1 20 41
M  V30 45 1 21 42
M  V30 46 1 24 43
M  V30 47 1 26 44
M  V30 48 1 26 45
M  V30 49 1 26 46
M  V30 50 1 30 47
M  V30 51 1 30 48
M  V30 52 1 31 49
M  V30 53 1 31 50
M  V30 54 1 31 51
M  V30 55 1 32 52
M  V30 56 1 32 53
M  V30 END BOND
M  V30 END CTAB
M  END
