
     RDKit          3D

  0  0  0  0  0  0  0  0  0  0999 V3000
M  V30 BEGIN CTAB
M  V30 COUNTS 35 35 0 0 0
M  V30 BEGIN ATOM
M  V30 1 O -0.673052 -0.486009 2.47949 0
M  V30 2 C -0.862365 0.166955 1.42239 0
M  V30 3 C -2.00145 -0.185022 0.57274 0
M  V30 4 C -2.27611 0.4829 -0.601209 0
M  V30 5 C -3.36636 0.141375 -1.40848 0
M  V30 6 N -3.64792 0.823959 -2.60924 0
M  V30 7 C -4.20752 -0.888624 -1.04457 0
M  V30 8 C -3.93191 -1.55581 0.129517 0
M  V30 9 C -2.85014 -1.21254 0.924846 0
M  V30 10 N -4.79063 -2.62689 0.526216 0
M  V30 11 O 0.0155776 1.17415 1.12988 0
M  V30 12 C 1.12742 1.56411 1.89891 0
M  V30 13 C 2.13889 0.490155 2.09264 0
M  V30 14 O 2.71827 -0.0320259 0.940723 0
M  V30 15 C 3.45764 0.697525 0.0385233 0
M  V30 16 O 3.64618 1.92413 0.235916 0
M  V30 17 C 4.04561 0.103305 -1.16138 0
M  V30 18 C 3.8961 -1.17735 -1.44447 0
M  V30 19 C 4.82352 0.982727 -2.06458 0
M  V30 20 H -1.63917 1.28438 -0.904495 0
M  V30 21 H -3.57875 1.85619 -2.63156 0
M  V30 22 H -3.92182 0.317869 -3.46791 0
M  V30 23 H -5.06432 -1.1863 -1.64129 0
M  V30 24 H -2.62806 -1.743 1.8617 0
M  V30 25 H -5.38674 -3.12133 -0.177807 0
M  V30 26 H -4.84546 -2.9389 1.5095 0
M  V30 27 H 0.828579 1.91213 2.91848 0
M  V30 28 H 1.59196 2.44601 1.42195 0
M  V30 29 H 2.96394 0.955312 2.71442 0
M  V30 30 H 1.76594 -0.333847 2.76668 0
M  V30 31 H 3.34075 -1.85208 -0.818904 0
M  V30 32 H 4.34524 -1.5739 -2.33746 0
M  V30 33 H 4.60299 2.05614 -1.88162 0
M  V30 34 H 4.45065 0.758705 -3.10494 0
M  V30 35 H 5.91251 0.775614 -1.96793 0
M  V30 END ATOM
M  V30 BEGIN BOND
M  V30 1 2 1 2
M  V30 2 1 2 3
M  V30 3 2 3 4
M  V30 4 1 4 5
M  V30 5 1 5 6
M  V30 6 2 5 7
M  V30 7 1 7 8
M  V30 8 2 8 9
M  V30 9 1 8 10
M  V30 10 1 2 11
M  V30 11 1 11 12
M  V30 12 1 12 13
M  V30 13 1 13 14
M  V30 14 1 14 15
M  V30 15 2 15 16
M  V30 16 1 15 17
M  V30 17 2 17 18 CFG=2
M  V30 18 1 17 19
M  V30 19 1 9 3
M  V30 20 1 4 20
M  V30 21 1 6 21
M  V30 22 1 6 22
M  V30 23 1 7 23
M  V30 24 1 9 24
M  V30 25 1 10 25
M  V30 26 1 10 26
M  V30 27 1 12 27
M  V30 28 1 12 28
M  V30 29 1 13 29
M  V30 30 1 13 30
M  V30 31 1 18 31
M  V30 32 1 18 32
M  V30 33 1 19 33
M  V30 34 1 19 34
M  V30 35 1 19 35
M  V30 END BOND
M  V30 END CTAB
M  END
