
     RDKit          3D

  0  0  0  0  0  0  0  0  0  0999 V3000
M  V30 BEGIN CTAB
M  V30 COUNTS 46 49 0 0 0
M  V30 BEGIN ATOM
M  V30 1 N 7.00702 2.03012 0.411481 0
M  V30 2 C 6.58528 0.683499 0.260381 0
M  V30 3 C 7.4479 -0.362012 0.0460773 0
M  V30 4 C 6.89362 -1.6364 -0.0842694 0
M  V30 5 N 7.82165 -2.68043 -0.303685 0
M  V30 6 N 5.56868 -1.83674 -0.0038767 0
M  V30 7 C 4.72874 -0.794296 0.208155 0
M  V30 8 N 5.27463 0.410322 0.329576 0
M  V30 9 S 2.96215 -1.02396 0.320506 0
M  V30 10 C 2.21147 0.600405 0.605456 0
M  V30 11 C 0.752243 0.548997 0.717355 0
M  V30 12 O 0.0549902 0.377602 1.82098 0
M  V30 13 N -1.21896 0.382072 1.56571 0
M  V30 14 C -1.40807 0.561942 0.24612 0
M  V30 15 N -0.158369 0.664396 -0.267593 0
M  V30 16 C -2.68914 0.633452 -0.489821 0
M  V30 17 C -3.12257 -0.70331 -0.949694 0
M  V30 18 C -2.99756 -1.82135 -0.165384 0
M  V30 19 C -3.4017 -3.08255 -0.574856 0
M  V30 20 C -3.95479 -3.22064 -1.82821 0
M  V30 21 C -4.10416 -2.13146 -2.65827 0
M  V30 22 C -3.68722 -0.893753 -2.2079 0
M  V30 23 C -3.72955 1.29819 0.283422 0
M  V30 24 C -4.00195 2.66368 0.114854 0
M  V30 25 C -4.95463 3.33804 0.807713 0
M  V30 26 C -5.70272 2.65635 1.73051 0
M  V30 27 C -5.49275 1.33589 1.94429 0
M  V30 28 C -4.50796 0.663958 1.22028 0
M  V30 29 H 6.72906 2.55426 1.26722 0
M  V30 30 H 7.58629 2.51397 -0.305242 0
M  V30 31 H 8.4946 -0.164787 -0.0120678 0
M  V30 32 H 8.45941 -3.03156 0.435442 0
M  V30 33 H 7.87144 -3.11848 -1.24341 0
M  V30 34 H 2.53038 1.25296 -0.228758 0
M  V30 35 H 2.70398 1.01404 1.52621 0
M  V30 36 H -2.55073 1.26136 -1.43315 0
M  V30 37 H -2.55216 -1.7181 0.836151 0
M  V30 38 H -3.28969 -3.96405 0.0758101 0
M  V30 39 H -4.2666 -4.20159 -2.14069 0
M  V30 40 H -4.54054 -2.25766 -3.63981 0
M  V30 41 H -3.79207 -0.0225816 -2.83708 0
M  V30 42 H -3.41009 3.2059 -0.616124 0
M  V30 43 H -5.16188 4.38874 0.675772 0
M  V30 44 H -6.47494 3.19686 2.29396 0
M  V30 45 H -6.09687 0.808041 2.6824 0
M  V30 46 H -4.41587 -0.379328 1.46265 0
M  V30 END ATOM
M  V30 BEGIN BOND
M  V30 1 1 1 2
M  V30 2 2 2 3
M  V30 3 1 3 4
M  V30 4 1 4 5
M  V30 5 2 4 6
M  V30 6 1 6 7
M  V30 7 2 7 8
M  V30 8 1 7 9
M  V30 9 1 9 10
M  V30 10 1 10 11
M  V30 11 1 11 12
M  V30 12 1 12 13
M  V30 13 2 13 14
M  V30 14 1 14 15
M  V30 15 1 14 16
M  V30 16 1 16 17
M  V30 17 2 17 18
M  V30 18 1 18 19
M  V30 19 2 19 20
M  V30 20 1 20 21
M  V30 21 2 21 22
M  V30 22 1 16 23
M  V30 23 2 23 24
M  V30 24 1 24 25
M  V30 25 2 25 26
M  V30 26 1 26 27
M  V30 27 2 27 28
M  V30 28 1 8 2
M  V30 29 2 15 11
M  V30 30 1 22 17
M  V30 31 1 28 23
M  V30 32 1 1 29
M  V30 33 1 1 30
M  V30 34 1 3 31
M  V30 35 1 5 32
M  V30 36 1 5 33
M  V30 37 1 10 34
M  V30 38 1 10 35
M  V30 39 1 16 36
M  V30 40 1 18 37
M  V30 41 1 19 38
M  V30 42 1 20 39
M  V30 43 1 21 40
M  V30 44 1 22 41
M  V30 45 1 24 42
M  V30 46 1 25 43
M  V30 47 1 26 44
M  V30 48 1 27 45
M  V30 49 1 28 46
M  V30 END BOND
M  V30 END CTAB
M  END
