
     RDKit          3D

  0  0  0  0  0  0  0  0  0  0999 V3000
M  V30 BEGIN CTAB
M  V30 COUNTS 26 27 0 0 0
M  V30 BEGIN ATOM
M  V30 1 C -4.46779 1.19385 -0.0415202 0
M  V30 2 C -3.29167 0.280125 0.0207612 0
M  V30 3 C -3.34937 -1.09546 0.0765388 0
M  V30 4 C -2.05597 -1.56628 0.122916 0
M  V30 5 C -1.24153 -0.455899 0.0938464 0
M  V30 6 O -2.01923 0.580978 0.0347404 0
M  V30 7 C 0.240011 -0.445264 0.124177 0
M  V30 8 C 0.963843 -1.59191 0.186717 0
M  V30 9 C 2.34677 -1.52117 0.212482 0
M  V30 10 C 2.9958 -0.314081 0.175933 0
M  V30 11 C 2.27751 0.85455 0.112599 0
M  V30 12 C 0.907521 0.757954 0.0881701 0
M  V30 13 N 2.86119 2.14413 0.071275 0
M  V30 14 N 4.42918 -0.24475 0.202816 0
M  V30 15 H -4.18698 2.19702 -0.423499 0
M  V30 16 H -4.90324 1.36945 0.975449 0
M  V30 17 H -5.25247 0.808331 -0.732725 0
M  V30 18 H -4.2487 -1.7293 0.0841088 0
M  V30 19 H -1.75587 -2.59692 0.171837 0
M  V30 20 H 0.47646 -2.57036 0.217178 0
M  V30 21 H 2.95051 -2.43097 0.2627 0
M  V30 22 H 0.308661 1.65697 0.0384883 0
M  V30 23 H 3.11594 2.60275 0.970249 0
M  V30 24 H 3.01514 2.58904 -0.861143 0
M  V30 25 H 4.97293 -1.1286 0.0966276 0
M  V30 26 H 4.91137 0.655819 0.324022 0
M  V30 END ATOM
M  V30 BEGIN BOND
M  V30 1 1 1 2
M  V30 2 2 2 3
M  V30 3 1 3 4
M  V30 4 2 4 5
M  V30 5 1 5 6
M  V30 6 1 5 7
M  V30 7 2 7 8
M  V30 8 1 8 9
M  V30 9 2 9 10
M  V30 10 1 10 11
M  V30 11 2 11 12
M  V30 12 1 11 13
M  V30 13 1 10 14
M  V30 14 1 6 2
M  V30 15 1 12 7
M  V30 16 1 1 15
M  V30 17 1 1 16
M  V30 18 1 1 17
M  V30 19 1 3 18
M  V30 20 1 4 19
M  V30 21 1 8 20
M  V30 22 1 9 21
M  V30 23 1 12 22
M  V30 24 1 13 23
M  V30 25 1 13 24
M  V30 26 1 14 25
M  V30 27 1 14 26
M  V30 END BOND
M  V30 END CTAB
M  END
