
     RDKit          3D

  0  0  0  0  0  0  0  0  0  0999 V3000
M  V30 BEGIN CTAB
M  V30 COUNTS 24 25 0 0 0
M  V30 BEGIN ATOM
M  V30 1 N 4.19377 1.96027 1.12871 0
M  V30 2 C 3.21466 1.07434 0.601705 0
M  V30 3 N 1.89087 1.23605 0.879183 0
M  V30 4 C 0.961517 0.39817 0.381164 0
M  V30 5 S -0.784379 0.639924 0.767809 0
M  V30 6 C -1.7168 -0.671703 -0.0746411 0
M  V30 7 C -3.16815 -0.462627 0.252614 0
M  V30 8 C -3.71266 0.875112 -0.194558 0
M  V30 9 C -4.21004 -0.38619 -0.778762 0
M  V30 10 N 1.37758 -0.603762 -0.398649 0
M  V30 11 C 2.67946 -0.815799 -0.710137 0
M  V30 12 N 3.56423 0.0493447 -0.186885 0
M  V30 13 N 3.08155 -1.88341 -1.53614 0
M  V30 14 H 4.3969 2.90271 0.731962 0
M  V30 15 H 4.74593 1.64862 1.9671 0
M  V30 16 H -1.52703 -0.53866 -1.17901 0
M  V30 17 H -1.35071 -1.68403 0.200076 0
M  V30 18 H -3.44021 -0.818967 1.2806 0
M  V30 19 H -4.2858 1.42742 0.576777 0
M  V30 20 H -3.11263 1.51545 -0.864647 0
M  V30 21 H -5.23578 -0.696166 -0.449548 0
M  V30 22 H -4.01933 -0.617666 -1.84386 0
M  V30 23 H 2.95338 -2.85412 -1.2213 0
M  V30 24 H 3.50368 -1.6943 -2.45481 0
M  V30 END ATOM
M  V30 BEGIN BOND
M  V30 1 1 1 2
M  V30 2 2 2 3
M  V30 3 1 3 4
M  V30 4 1 4 5
M  V30 5 1 5 6
M  V30 6 1 6 7
M  V30 7 1 7 8
M  V30 8 1 8 9
M  V30 9 2 4 10
M  V30 10 1 10 11
M  V30 11 2 11 12
M  V30 12 1 11 13
M  V30 13 1 12 2
M  V30 14 1 9 7
M  V30 15 1 1 14
M  V30 16 1 1 15
M  V30 17 1 6 16
M  V30 18 1 6 17
M  V30 19 1 7 18
M  V30 20 1 8 19
M  V30 21 1 8 20
M  V30 22 1 9 21
M  V30 23 1 9 22
M  V30 24 1 13 23
M  V30 25 1 13 24
M  V30 END BOND
M  V30 END CTAB
M  END
