
     RDKit          3D

  0  0  0  0  0  0  0  0  0  0999 V3000
M  V30 BEGIN CTAB
M  V30 COUNTS 22 22 0 0 0
M  V30 BEGIN ATOM
M  V30 1 N -0.977693 -2.60921 0.289726 0
M  V30 2 C -1.23691 -1.0993 0.519205 0
M  V30 3 C 0.0895557 -0.504666 0.257718 0
M  V30 4 C 1.26404 -1.00974 0.631854 0
M  V30 5 C 2.49194 -0.430155 0.279257 0
M  V30 6 F 3.67311 -0.955619 0.792223 0
M  V30 7 C 2.42464 0.673307 -0.488355 0
M  V30 8 C 1.21966 1.26127 -0.914335 0
M  V30 9 C 0.0662744 0.693014 -0.532927 0
M  V30 10 C -1.32947 1.22374 -0.718497 0
M  V30 11 N -1.76441 1.66884 0.605333 0
M  V30 12 H -0.973201 -2.54202 -0.84651 0
M  V30 13 H 0.0484595 -2.72465 0.473229 0
M  V30 14 H -2.08043 -0.856379 -0.0508095 0
M  V30 15 H -1.33489 -1.14982 1.66646 0
M  V30 16 H 1.35494 -1.86845 1.36446 0
M  V30 17 H 3.31842 1.21935 -0.838814 0
M  V30 18 H 1.19165 2.09457 -1.57959 0
M  V30 19 H -1.0823 2.25491 -1.23582 0
M  V30 20 H -1.97988 0.746232 -1.32552 0
M  V30 21 H -1.7888 2.69911 0.719219 0
M  V30 22 H -2.59472 1.21567 0.932494 0
M  V30 END ATOM
M  V30 BEGIN BOND
M  V30 1 1 1 2
M  V30 2 1 2 3
M  V30 3 2 3 4
M  V30 4 1 4 5
M  V30 5 1 5 6
M  V30 6 2 5 7
M  V30 7 1 7 8
M  V30 8 2 8 9
M  V30 9 1 9 10
M  V30 10 1 10 11
M  V30 11 1 9 3
M  V30 12 1 1 12
M  V30 13 1 1 13
M  V30 14 1 2 14
M  V30 15 1 2 15
M  V30 16 1 4 16
M  V30 17 1 7 17
M  V30 18 1 8 18
M  V30 19 1 10 19
M  V30 20 1 10 20
M  V30 21 1 11 21
M  V30 22 1 11 22
M  V30 END BOND
M  V30 END CTAB
M  END
