
     RDKit          3D

  0  0  0  0  0  0  0  0  0  0999 V3000
M  V30 BEGIN CTAB
M  V30 COUNTS 27 27 0 0 0
M  V30 BEGIN ATOM
M  V30 1 N -2.25522 0.122946 1.06637 0
M  V30 2 C -1.48449 0.589324 -0.0604863 0
M  V30 3 C -0.688831 1.82451 0.282189 0
M  V30 4 C 0.642938 1.60261 -0.361221 0
M  V30 5 N 0.736743 0.209483 -0.508663 0
M  V30 6 C -0.481609 -0.446667 -0.54859 0
M  V30 7 C -0.962981 -0.930838 -1.88158 0
M  V30 8 C -0.450488 -1.63485 0.406356 0
M  V30 9 S 2.14482 -0.556585 -0.109455 0
M  V30 10 O 3.29962 0.101817 -0.860936 0
M  V30 11 O 2.23447 -2.00509 -0.388251 0
M  V30 12 N 2.55374 -0.361327 1.58184 0
M  V30 13 H -1.71361 0.190588 1.9445 0
M  V30 14 H -3.08434 0.770828 1.14615 0
M  V30 15 H -2.20388 0.877998 -0.850003 0
M  V30 16 H -0.656395 1.90324 1.38153 0
M  V30 17 H -1.13674 2.75073 -0.110769 0
M  V30 18 H 1.42115 1.96101 0.374418 0
M  V30 19 H 0.78774 2.17899 -1.30288 0
M  V30 20 H -1.37412 -0.085667 -2.44976 0
M  V30 21 H -0.213365 -1.49246 -2.45889 0
M  V30 22 H -1.8065 -1.63247 -1.69526 0
M  V30 23 H -1.49323 -1.84684 0.768368 0
M  V30 24 H -0.146423 -2.57388 -0.119319 0
M  V30 25 H 0.235376 -1.46836 1.25286 0
M  V30 26 H 2.53862 0.6438 1.85342 0
M  V30 27 H 3.557 -0.69285 1.64806 0
M  V30 END ATOM
M  V30 BEGIN BOND
M  V30 1 1 1 2
M  V30 2 1 2 3
M  V30 3 1 3 4
M  V30 4 1 4 5
M  V30 5 1 5 6
M  V30 6 1 6 7
M  V30 7 1 6 8
M  V30 8 1 5 9
M  V30 9 2 9 10
M  V30 10 2 9 11
M  V30 11 1 9 12
M  V30 12 1 6 2
M  V30 13 1 1 13
M  V30 14 1 1 14
M  V30 15 1 2 15
M  V30 16 1 3 16
M  V30 17 1 3 17
M  V30 18 1 4 18
M  V30 19 1 4 19
M  V30 20 1 7 20
M  V30 21 1 7 21
M  V30 22 1 7 22
M  V30 23 1 8 23
M  V30 24 1 8 24
M  V30 25 1 8 25
M  V30 26 1 12 26
M  V30 27 1 12 27
M  V30 END BOND
M  V30 END CTAB
M  END
