
     RDKit          3D

  0  0  0  0  0  0  0  0  0  0999 V3000
M  V30 BEGIN CTAB
M  V30 COUNTS 44 46 0 0 0
M  V30 BEGIN ATOM
M  V30 1 N -2.91515 -3.13586 0.671124 0
M  V30 2 C -2.9928 -1.78819 0.214248 0
M  V30 3 C -1.58911 -1.15513 0.162056 0
M  V30 4 O -0.709274 -1.9614 0.539899 0
M  V30 5 N -1.46279 0.163748 -0.274546 0
M  V30 6 C -2.71633 0.808503 -0.696444 0
M  V30 7 C -2.50608 2.00486 -1.56311 0
M  V30 8 C -1.56165 2.98878 -0.912029 0
M  V30 9 C -0.559967 2.39366 -0.0333643 0
M  V30 10 C -0.225613 0.914519 -0.306997 0
M  V30 11 C 0.629285 0.496911 0.828848 0
M  V30 12 N 0.144809 0.886093 2.05664 0
M  V30 13 C 0.684381 0.491531 3.19926 0
M  V30 14 N 0.203296 0.820068 4.48357 0
M  V30 15 N 1.76051 -0.333412 3.12387 0
M  V30 16 C 2.29332 -0.754252 1.99158 0
M  V30 17 C 1.69968 -0.316605 0.785532 0
M  V30 18 C 2.37449 -0.696868 -0.460319 0
M  V30 19 C 2.61142 -2.01208 -0.723379 0
M  V30 20 C 3.29464 -2.41273 -1.85106 0
M  V30 21 C 3.7404 -1.4304 -2.71874 0
M  V30 22 C 3.51296 -0.0639598 -2.46884 0
M  V30 23 C 2.81824 0.263368 -1.32077 0
M  V30 24 Cl 4.06496 1.18401 -3.52481 0
M  V30 25 H -2.74441 -3.86334 -0.0118 0
M  V30 26 H -3.10936 -3.33649 1.64217 0
M  V30 27 H -3.45008 -1.7931 -0.778867 0
M  V30 28 H -3.62556 -1.19833 0.887884 0
M  V30 29 H -3.29462 1.13137 0.194958 0
M  V30 30 H -3.29158 0.0710586 -1.28103 0
M  V30 31 H -2.15387 1.7868 -2.57943 0
M  V30 32 H -3.48491 2.51898 -1.69265 0
M  V30 33 H -2.175 3.77866 -0.403712 0
M  V30 34 H -1.08458 3.53942 -1.77161 0
M  V30 35 H 0.446649 2.92054 -0.209229 0
M  V30 36 H -0.781596 2.51814 1.02645 0
M  V30 37 H 0.28161 0.774748 -1.23658 0
M  V30 38 H 0.50213 1.68485 4.95997 0
M  V30 39 H -0.449721 0.156556 4.96044 0
M  V30 40 H 3.15118 -1.40832 1.92964 0
M  V30 41 H 2.27546 -2.83104 -0.0679391 0
M  V30 42 H 3.49538 -3.44785 -2.08041 0
M  V30 43 H 4.28193 -1.67156 -3.62955 0
M  V30 44 H 2.61731 1.31372 -1.06093 0
M  V30 END ATOM
M  V30 BEGIN BOND
M  V30 1 1 1 2
M  V30 2 1 2 3
M  V30 3 2 3 4
M  V30 4 1 3 5
M  V30 5 1 5 6
M  V30 6 1 6 7
M  V30 7 1 7 8
M  V30 8 1 8 9
M  V30 9 1 9 10
M  V30 10 1 10 11
M  V30 11 2 11 12
M  V30 12 1 12 13
M  V30 13 1 13 14
M  V30 14 2 13 15
M  V30 15 1 15 16
M  V30 16 2 16 17
M  V30 17 1 17 18
M  V30 18 2 18 19
M  V30 19 1 19 20
M  V30 20 2 20 21
M  V30 21 1 21 22
M  V30 22 2 22 23
M  V30 23 1 22 24
M  V30 24 1 10 5
M  V30 25 1 17 11
M  V30 26 1 23 18
M  V30 27 1 1 25
M  V30 28 1 1 26
M  V30 29 1 2 27
M  V30 30 1 2 28
M  V30 31 1 6 29
M  V30 32 1 6 30
M  V30 33 1 7 31
M  V30 34 1 7 32
M  V30 35 1 8 33
M  V30 36 1 8 34
M  V30 37 1 9 35
M  V30 38 1 9 36
M  V30 39 1 10 37
M  V30 40 1 14 38
M  V30 41 1 14 39
M  V30 42 1 16 40
M  V30 43 1 19 41
M  V30 44 1 20 42
M  V30 45 1 21 43
M  V30 46 1 23 44
M  V30 END BOND
M  V30 END CTAB
M  END
