
     RDKit          3D

  0  0  0  0  0  0  0  0  0  0999 V3000
M  V30 BEGIN CTAB
M  V30 COUNTS 35 37 0 0 0
M  V30 BEGIN ATOM
M  V30 1 N 6.62627 -0.485563 -0.593109 0
M  V30 2 C 5.21215 -0.38929 -0.442432 0
M  V30 3 N 4.40388 0.00572253 -1.4426 0
M  V30 4 C 3.06293 0.0980554 -1.30309 0
M  V30 5 C 2.46653 -0.217584 -0.10135 0
M  V30 6 C 1.09562 -0.121478 0.0358253 0
M  V30 7 C 0.27348 0.283769 -0.992538 0
M  V30 8 N -1.16393 0.367014 -0.792999 0
M  V30 9 C -1.7156 0.0281889 0.466906 0
M  V30 10 C -3.17929 0.158995 0.522292 0
M  V30 11 C -3.90657 0.57101 -0.55799 0
M  V30 12 C -5.29137 0.676716 -0.448005 0
M  V30 13 C -5.96548 0.382724 0.708309 0
M  V30 14 C -5.21066 -0.0296449 1.78083 0
M  V30 15 C -3.84907 -0.147368 1.71671 0
M  V30 16 Cl -2.87499 -0.668258 3.06479 0
M  V30 17 C 0.86038 0.601186 -2.19687 0
M  V30 18 C 2.2431 0.504057 -2.3346 0
M  V30 19 C 3.29401 -0.623073 0.926073 0
M  V30 20 N 2.69682 -0.949901 2.16379 0
M  V30 21 N 4.64089 -0.69933 0.733277 0
M  V30 22 H 7.17242 -1.34387 -0.481405 0
M  V30 23 H 7.15189 0.401861 -0.840137 0
M  V30 24 H 0.670798 -0.379038 0.996403 0
M  V30 25 H -1.71471 0.674554 -1.59623 0
M  V30 26 H -1.34763 0.734951 1.28917 0
M  V30 27 H -1.38494 -1.00682 0.770858 0
M  V30 28 H -3.52576 0.836665 -1.52909 0
M  V30 29 H -5.87511 1.00128 -1.29547 0
M  V30 30 H -7.05557 0.474026 0.769038 0
M  V30 31 H -5.71282 -0.265521 2.69609 0
M  V30 32 H 0.231194 0.922683 -3.02016 0
M  V30 33 H 2.72232 0.747355 -3.26721 0
M  V30 34 H 2.85152 -0.35589 2.9964 0
M  V30 35 H 2.09726 -1.78818 2.25139 0
M  V30 END ATOM
M  V30 BEGIN BOND
M  V30 1 1 1 2
M  V30 2 2 2 3
M  V30 3 1 3 4
M  V30 4 2 4 5
M  V30 5 1 5 6
M  V30 6 2 6 7
M  V30 7 1 7 8
M  V30 8 1 8 9
M  V30 9 1 9 10
M  V30 10 2 10 11
M  V30 11 1 11 12
M  V30 12 2 12 13
M  V30 13 1 13 14
M  V30 14 2 14 15
M  V30 15 1 15 16
M  V30 16 1 7 17
M  V30 17 2 17 18
M  V30 18 1 5 19
M  V30 19 1 19 20
M  V30 20 2 19 21
M  V30 21 1 21 2
M  V30 22 1 18 4
M  V30 23 1 15 10
M  V30 24 1 1 22
M  V30 25 1 1 23
M  V30 26 1 6 24
M  V30 27 1 8 25
M  V30 28 1 9 26
M  V30 29 1 9 27
M  V30 30 1 11 28
M  V30 31 1 12 29
M  V30 32 1 13 30
M  V30 33 1 14 31
M  V30 34 1 17 32
M  V30 35 1 18 33
M  V30 36 1 20 34
M  V30 37 1 20 35
M  V30 END BOND
M  V30 END CTAB
M  END
