
     RDKit          3D

  0  0  0  0  0  0  0  0  0  0999 V3000
M  V30 BEGIN CTAB
M  V30 COUNTS 44 44 0 0 0
M  V30 BEGIN ATOM
M  V30 1 C -5.24187 2.02643 -0.78049 0
M  V30 2 C -5.19587 0.549193 -1.12355 0
M  V30 3 C -4.32806 -0.165763 -0.0768434 0
M  V30 4 C -2.95044 0.376696 -0.0700918 0
M  V30 5 C -2.03519 -0.304791 0.874879 0
M  V30 6 N -0.68469 0.288181 0.832361 0
M  V30 7 C 0.437804 -0.40392 0.349804 0
M  V30 8 O 0.237898 -1.59725 -0.0611419 0
M  V30 9 C 1.79687 0.191997 0.306696 0
M  V30 10 C 2.74521 -0.802866 -0.255747 0
M  V30 11 C 4.13126 -0.348533 -0.357621 0
M  V30 12 C 4.61528 0.808703 0.213642 0
M  V30 13 C 5.93414 1.19264 0.0872951 0
M  V30 14 C 6.82278 0.422852 -0.622854 0
M  V30 15 C 6.36217 -0.738793 -1.20318 0
M  V30 16 C 5.03736 -1.11003 -1.0675 0
M  V30 17 N 2.29722 -1.24327 -1.58415 0
M  V30 18 C -2.47746 -0.471584 2.28008 0
M  V30 19 N -3.6484 -1.24583 2.50588 0
M  V30 20 H -5.3774 2.13465 0.316598 0
M  V30 21 H -6.12161 2.51832 -1.26259 0
M  V30 22 H -4.29831 2.53219 -1.03663 0
M  V30 23 H -6.22793 0.159499 -1.02842 0
M  V30 24 H -4.84318 0.365847 -2.14202 0
M  V30 25 H -4.35174 -1.23985 -0.269908 0
M  V30 26 H -4.90411 0.0321407 0.879664 0
M  V30 27 H -2.92242 1.49208 0.0525464 0
M  V30 28 H -2.54134 0.196991 -1.11013 0
M  V30 29 H -1.85362 -1.3524 0.443544 0
M  V30 30 H -0.53765 1.27148 1.17446 0
M  V30 31 H 2.14531 0.429981 1.35273 0
M  V30 32 H 1.72552 1.1332 -0.240636 0
M  V30 33 H 2.73446 -1.69912 0.413451 0
M  V30 34 H 3.96719 1.43681 0.772081 0
M  V30 35 H 6.28523 2.09537 0.540157 0
M  V30 36 H 7.86876 0.689911 -0.745808 0
M  V30 37 H 7.07615 -1.34598 -1.76688 0
M  V30 38 H 4.74342 -2.0275 -1.54489 0
M  V30 39 H 2.77249 -0.615143 -2.26808 0
M  V30 40 H 2.71696 -2.1999 -1.71053 0
M  V30 41 H -1.65241 -0.946282 2.89111 0
M  V30 42 H -2.55028 0.562997 2.72418 0
M  V30 43 H -4.22936 -0.799211 3.24659 0
M  V30 44 H -3.48015 -2.25014 2.65897 0
M  V30 END ATOM
M  V30 BEGIN BOND
M  V30 1 1 1 2
M  V30 2 1 2 3
M  V30 3 1 3 4
M  V30 4 1 4 5
M  V30 5 1 5 6
M  V30 6 1 6 7
M  V30 7 2 7 8
M  V30 8 1 7 9
M  V30 9 1 9 10
M  V30 10 1 10 11
M  V30 11 2 11 12
M  V30 12 1 12 13
M  V30 13 2 13 14
M  V30 14 1 14 15
M  V30 15 2 15 16
M  V30 16 1 10 17
M  V30 17 1 5 18
M  V30 18 1 18 19
M  V30 19 1 16 11
M  V30 20 1 1 20
M  V30 21 1 1 21
M  V30 22 1 1 22
M  V30 23 1 2 23
M  V30 24 1 2 24
M  V30 25 1 3 25
M  V30 26 1 3 26
M  V30 27 1 4 27
M  V30 28 1 4 28
M  V30 29 1 5 29
M  V30 30 1 6 30
M  V30 31 1 9 31
M  V30 32 1 9 32
M  V30 33 1 10 33
M  V30 34 1 12 34
M  V30 35 1 13 35
M  V30 36 1 14 36
M  V30 37 1 15 37
M  V30 38 1 16 38
M  V30 39 1 17 39
M  V30 40 1 17 40
M  V30 41 1 18 41
M  V30 42 1 18 42
M  V30 43 1 19 43
M  V30 44 1 19 44
M  V30 END BOND
M  V30 END CTAB
M  END
