
     RDKit          3D

  0  0  0  0  0  0  0  0  0  0999 V3000
M  V30 BEGIN CTAB
M  V30 COUNTS 110 118 0 0 0
M  V30 BEGIN ATOM
M  V30 1 C 6.62188 1.68508 3.02211 0
M  V30 2 C 6.07883 0.367362 2.54468 0
M  V30 3 O 4.91919 0.630477 1.77679 0
M  V30 4 C 4.1522 -0.348113 1.17259 0
M  V30 5 O 4.53739 -1.53896 1.33674 0
M  V30 6 C 2.96928 0.0294685 0.398582 0 CFG=1
M  V30 7 N 2.87671 1.4423 0.272275 0
M  V30 8 C 3.87475 2.38314 -0.174104 0
M  V30 9 C 4.85935 1.76182 -1.1019 0
M  V30 10 C 6.06496 2.47488 -1.10159 0
M  V30 11 N 6.19195 3.60903 -0.287813 0
M  V30 12 C 7.13153 2.09012 -1.88168 0
M  V30 13 C 7.01849 0.976214 -2.68617 0
M  V30 14 C 5.85811 0.239484 -2.72544 0
M  V30 15 O 5.71905 -0.898231 -3.53613 0
M  V30 16 C 6.74268 -1.36642 -4.36045 0
M  V30 17 C 4.80273 0.658249 -1.92474 0
M  V30 18 C 3.67503 -0.257069 -2.13221 0
M  V30 19 N 2.93922 -0.539033 -0.921554 0
M  V30 20 C 1.94374 -1.57332 -0.903011 0
M  V30 21 O 1.87764 -2.52446 -1.72223 0
M  V30 22 N 1.07721 -1.30924 0.196188 0
M  V30 23 C -0.211825 -2.00375 0.169941 0
M  V30 24 N -1.23221 -0.990869 0.167523 0
M  V30 25 C -1.51309 -0.349196 -1.09786 0
M  V30 26 O -0.932607 -0.679019 -2.17962 0
M  V30 27 N -2.48682 0.640303 -0.902129 0
M  V30 28 C -2.72224 1.7621 -1.77611 0
M  V30 29 C -4.15662 2.16105 -1.75742 0
M  V30 30 C -4.9643 2.35779 -0.672551 0
M  V30 31 C -4.7123 2.25224 0.812361 0
M  V30 32 N -3.53993 1.45614 1.07193 0
M  V30 33 C -2.52232 1.64747 2.04488 0
M  V30 34 O -2.60958 2.51002 2.98241 0
M  V30 35 N -1.44697 0.75023 1.79646 0
M  V30 36 C -0.156795 1.15932 2.22939 0
M  V30 37 N 0.952296 0.783206 1.414 0
M  V30 38 C 1.56488 1.82575 0.667451 0
M  V30 39 O 1.07253 2.95058 0.364446 0
M  V30 40 C 1.69684 -0.404554 1.1024 0 CFG=2
M  V30 41 C 2.10198 -1.14259 2.32656 0
M  V30 42 O 2.65943 -0.608282 3.31485 0
M  V30 43 O 1.85467 -2.49871 2.39171 0
M  V30 44 C 2.20609 -3.28288 3.52117 0
M  V30 45 C 1.78355 -4.70325 3.23298 0
M  V30 46 C -2.08955 -0.393614 1.12929 0 CFG=2
M  V30 47 C -2.63346 -1.32894 2.14869 0
M  V30 48 O -3.26436 -0.923075 3.15881 0
M  V30 49 O -2.44605 -2.67287 1.99077 0
M  V30 50 C -2.8608 -3.70811 2.81321 0
M  V30 51 C -4.34802 -3.83567 3.0102 0
M  V30 52 C -3.1681 0.269892 0.332512 0 CFG=2
M  V30 53 C -4.3412 -0.589153 0.0421936 0
M  V30 54 O -5.09341 -0.924118 0.979078 0
M  V30 55 O -4.64172 -1.04006 -1.23497 0
M  V30 56 C -5.78055 -1.86033 -1.44378 0
M  V30 57 C -5.66693 -3.14037 -0.63618 0
M  V30 58 C -6.28205 2.7254 -0.875525 0
M  V30 59 N -7.15063 2.93769 0.227163 0
M  V30 60 C -6.77527 2.89153 -2.16314 0
M  V30 61 C -5.92807 2.68358 -3.22841 0
M  V30 62 C -4.61251 2.31735 -3.0571 0
M  V30 63 O -3.74918 2.10529 -4.14228 0
M  V30 64 C -4.28634 2.28362 -5.43196 0
M  V30 65 H 7.65302 1.78418 2.62089 0
M  V30 66 H 6.71856 1.73616 4.12982 0
M  V30 67 H 6.04235 2.55559 2.69511 0
M  V30 68 H 6.81954 -0.221616 1.97552 0
M  V30 69 H 5.75742 -0.221379 3.45383 0
M  V30 70 H 3.40266 3.28147 -0.633217 0
M  V30 71 H 4.44156 2.77977 0.706039 0
M  V30 72 H 5.54697 4.40927 -0.40464 0
M  V30 73 H 6.9305 3.65471 0.434708 0
M  V30 74 H 8.07077 2.65711 -1.87202 0
M  V30 75 H 7.85244 0.647948 -3.31675 0
M  V30 76 H 7.60885 -1.7952 -3.81705 0
M  V30 77 H 6.29675 -2.07113 -5.08786 0
M  V30 78 H 7.1532 -0.51074 -4.96225 0
M  V30 79 H 3.99701 -1.21691 -2.59747 0
M  V30 80 H 3.00989 0.239698 -2.90078 0
M  V30 81 H -0.272847 -2.64318 1.04083 0
M  V30 82 H -0.307041 -2.60466 -0.76958 0
M  V30 83 H -2.47603 1.42845 -2.79923 0
M  V30 84 H -2.14696 2.66174 -1.48941 0
M  V30 85 H -5.61319 1.74753 1.24038 0
M  V30 86 H -4.6601 3.261 1.24695 0
M  V30 87 H -0.156275 2.27535 2.3705 0
M  V30 88 H -0.0481948 0.781526 3.29015 0
M  V30 89 H 1.56222 -2.90374 4.3646 0
M  V30 90 H 3.26639 -3.1943 3.7802 0
M  V30 91 H 1.63049 -5.25163 4.19457 0
M  V30 92 H 0.8111 -4.62436 2.66796 0
M  V30 93 H 2.56574 -5.16917 2.60007 0
M  V30 94 H -2.54027 -4.67958 2.33289 0
M  V30 95 H -2.32114 -3.72656 3.79787 0
M  V30 96 H -4.84332 -4.34871 2.15277 0
M  V30 97 H -4.77452 -2.82939 3.1304 0
M  V30 98 H -4.49235 -4.44451 3.93594 0
M  V30 99 H -5.91611 -2.0953 -2.51303 0
M  V30 100 H -6.69052 -1.31471 -1.12363 0
M  V30 101 H -4.67106 -3.12855 -0.105269 0
M  V30 102 H -5.71839 -4.02233 -1.31371 0
M  V30 103 H -6.47195 -3.25299 0.106984 0
M  V30 104 H -7.09428 3.7654 0.850246 0
M  V30 105 H -7.88137 2.22451 0.41866 0
M  V30 106 H -7.81832 3.18266 -2.33252 0
M  V30 107 H -6.26573 2.80037 -4.25087 0
M  V30 108 H -4.75202 3.28986 -5.56004 0
M  V30 109 H -5.13584 1.56124 -5.55273 0
M  V30 110 H -3.56799 2.16121 -6.24012 0
M  V30 END ATOM
M  V30 BEGIN BOND
M  V30 1 1 1 2
M  V30 2 1 2 3
M  V30 3 1 3 4
M  V30 4 2 4 5
M  V30 5 1 6 4 CFG=1
M  V30 6 1 6 7
M  V30 7 1 7 8
M  V30 8 1 8 9
M  V30 9 2 9 10
M  V30 10 1 10 11
M  V30 11 1 10 12
M  V30 12 2 12 13
M  V30 13 1 13 14
M  V30 14 1 14 15
M  V30 15 1 15 16
M  V30 16 2 14 17
M  V30 17 1 17 18
M  V30 18 1 18 19
M  V30 19 1 19 20
M  V30 20 2 20 21
M  V30 21 1 20 22
M  V30 22 1 22 23
M  V30 23 1 23 24
M  V30 24 1 24 25
M  V30 25 2 25 26
M  V30 26 1 25 27
M  V30 27 1 27 28
M  V30 28 1 28 29
M  V30 29 2 29 30
M  V30 30 1 30 31
M  V30 31 1 31 32
M  V30 32 1 32 33
M  V30 33 2 33 34
M  V30 34 1 33 35
M  V30 35 1 35 36
M  V30 36 1 36 37
M  V30 37 1 37 38
M  V30 38 2 38 39
M  V30 39 1 37 40
M  V30 40 1 40 41 CFG=1
M  V30 41 2 41 42
M  V30 42 1 41 43
M  V30 43 1 43 44
M  V30 44 1 44 45
M  V30 45 1 35 46
M  V30 46 1 46 47 CFG=1
M  V30 47 2 47 48
M  V30 48 1 47 49
M  V30 49 1 49 50
M  V30 50 1 50 51
M  V30 51 1 46 52
M  V30 52 1 52 53 CFG=3
M  V30 53 2 53 54
M  V30 54 1 53 55
M  V30 55 1 55 56
M  V30 56 1 56 57
M  V30 57 1 30 58
M  V30 58 1 58 59
M  V30 59 2 58 60
M  V30 60 1 60 61
M  V30 61 2 61 62
M  V30 62 1 62 63
M  V30 63 1 63 64
M  V30 64 1 19 6
M  V30 65 1 40 22
M  V30 66 1 40 6
M  V30 67 1 38 7
M  V30 68 1 17 9
M  V30 69 1 46 24
M  V30 70 1 52 27
M  V30 71 1 62 29
M  V30 72 1 52 32
M  V30 73 1 1 65
M  V30 74 1 1 66
M  V30 75 1 1 67
M  V30 76 1 2 68
M  V30 77 1 2 69
M  V30 78 1 8 70
M  V30 79 1 8 71
M  V30 80 1 11 72
M  V30 81 1 11 73
M  V30 82 1 12 74
M  V30 83 1 13 75
M  V30 84 1 16 76
M  V30 85 1 16 77
M  V30 86 1 16 78
M  V30 87 1 18 79
M  V30 88 1 18 80
M  V30 89 1 23 81
M  V30 90 1 23 82
M  V30 91 1 28 83
M  V30 92 1 28 84
M  V30 93 1 31 85
M  V30 94 1 31 86
M  V30 95 1 36 87
M  V30 96 1 36 88
M  V30 97 1 44 89
M  V30 98 1 44 90
M  V30 99 1 45 91
M  V30 100 1 45 92
M  V30 101 1 45 93
M  V30 102 1 50 94
M  V30 103 1 50 95
M  V30 104 1 51 96
M  V30 105 1 51 97
M  V30 106 1 51 98
M  V30 107 1 56 99
M  V30 108 1 56 100
M  V30 109 1 57 101
M  V30 110 1 57 102
M  V30 111 1 57 103
M  V30 112 1 59 104
M  V30 113 1 59 105
M  V30 114 1 60 106
M  V30 115 1 61 107
M  V30 116 1 64 108
M  V30 117 1 64 109
M  V30 118 1 64 110
M  V30 END BOND
M  V30 END CTAB
M  END
