
     RDKit          3D

  0  0  0  0  0  0  0  0  0  0999 V3000
M  V30 BEGIN CTAB
M  V30 COUNTS 21 22 0 0 0
M  V30 BEGIN ATOM
M  V30 1 N -3.17739 -0.0888806 -0.0143195 0
M  V30 2 C -1.8278 0.314755 -0.00569809 0
M  V30 3 C -1.47441 1.63972 0.0061265 0
M  V30 4 C -0.13813 2.01203 0.0144443 0
M  V30 5 F 0.127827 3.34563 0.0259742 0
M  V30 6 C 0.874462 1.07964 0.0112184 0
M  V30 7 C 0.546941 -0.261541 -0.00062704 0
M  V30 8 C -0.782081 -0.614211 -0.00876229 0
M  V30 9 N -1.11541 -1.99638 -0.0209546 0
M  V30 10 C 1.58022 -1.18225 -0.00367517 0
M  V30 11 C 2.87451 -0.707871 0.00527332 0
M  V30 12 C 3.18562 0.63778 0.0170874 0
M  V30 13 N 2.14286 1.51375 0.0197469 0
M  V30 14 H -3.57152 -0.545489 0.824881 0
M  V30 15 H -3.7675 0.068474 -0.84765 0
M  V30 16 H -2.27637 2.39134 0.00878034 0
M  V30 17 H -1.04934 -2.50254 -0.926328 0
M  V30 18 H -1.40811 -2.42628 0.880466 0
M  V30 19 H 1.35058 -2.23533 -0.0128683 0
M  V30 20 H 3.68286 -1.43597 0.00282578 0
M  V30 21 H 4.22217 0.99364 0.0240596 0
M  V30 END ATOM
M  V30 BEGIN BOND
M  V30 1 1 1 2
M  V30 2 2 2 3
M  V30 3 1 3 4
M  V30 4 1 4 5
M  V30 5 2 4 6
M  V30 6 1 6 7
M  V30 7 2 7 8
M  V30 8 1 8 9
M  V30 9 1 7 10
M  V30 10 2 10 11
M  V30 11 1 11 12
M  V30 12 2 12 13
M  V30 13 1 8 2
M  V30 14 1 13 6
M  V30 15 1 1 14
M  V30 16 1 1 15
M  V30 17 1 3 16
M  V30 18 1 9 17
M  V30 19 1 9 18
M  V30 20 1 10 19
M  V30 21 1 11 20
M  V30 22 1 12 21
M  V30 END BOND
M  V30 END CTAB
M  END
