
     RDKit          3D

  0  0  0  0  0  0  0  0  0  0999 V3000
M  V30 BEGIN CTAB
M  V30 COUNTS 24 24 0 0 0
M  V30 BEGIN ATOM
M  V30 1 C 2.6426 -0.91375 0.721032 0
M  V30 2 C 2.07502 0.430837 0.495066 0
M  V30 3 C 0.848106 0.607304 -0.286604 0
M  V30 4 C -0.413241 0.0148052 0.132599 0
M  V30 5 C -0.603827 -1.07591 0.904963 0
M  V30 6 N -1.84591 -1.59023 1.18404 0
M  V30 7 C -2.93678 -1.00364 0.680991 0
M  V30 8 C -2.84018 0.100822 -0.107932 0
M  V30 9 C -1.58555 0.609759 -0.380206 0
M  V30 10 N -1.47214 1.7965 -1.15812 0
M  V30 11 N 1.06839 0.0173 -1.66336 0
M  V30 12 H 3.76985 -0.921414 0.591165 0
M  V30 13 H 2.28304 -1.70647 0.0728426 0
M  V30 14 H 2.5222 -1.25504 1.78536 0
M  V30 15 H 1.9329 0.915406 1.5108 0
M  V30 16 H 2.8986 1.08047 0.0379396 0
M  V30 17 H 0.719055 1.69465 -0.517701 0
M  V30 18 H 0.261165 -1.58402 1.33002 0
M  V30 19 H -3.93714 -1.37907 0.880384 0
M  V30 20 H -3.74533 0.571874 -0.505874 0
M  V30 21 H -1.28793 2.69603 -0.63644 0
M  V30 22 H -1.56997 1.77557 -2.19013 0
M  V30 23 H 1.06009 -1.03441 -1.42939 0
M  V30 24 H 0.156963 0.152627 -2.14166 0
M  V30 END ATOM
M  V30 BEGIN BOND
M  V30 1 1 1 2
M  V30 2 1 2 3
M  V30 3 1 3 4
M  V30 4 2 4 5
M  V30 5 1 5 6
M  V30 6 2 6 7
M  V30 7 1 7 8
M  V30 8 2 8 9
M  V30 9 1 9 10
M  V30 10 1 3 11
M  V30 11 1 9 4
M  V30 12 1 1 12
M  V30 13 1 1 13
M  V30 14 1 1 14
M  V30 15 1 2 15
M  V30 16 1 2 16
M  V30 17 1 3 17
M  V30 18 1 5 18
M  V30 19 1 7 19
M  V30 20 1 8 20
M  V30 21 1 10 21
M  V30 22 1 10 22
M  V30 23 1 11 23
M  V30 24 1 11 24
M  V30 END BOND
M  V30 END CTAB
M  END
