
     RDKit          3D

  0  0  0  0  0  0  0  0  0  0999 V3000
M  V30 BEGIN CTAB
M  V30 COUNTS 42 44 0 0 0
M  V30 BEGIN ATOM
M  V30 1 N -5.77222 0.229713 0.970552 0
M  V30 2 C -4.56915 0.612622 0.249686 0
M  V30 3 C -4.27123 -0.295048 -0.892521 0
M  V30 4 S -2.80143 0.180904 -1.78132 0
M  V30 5 C -1.29187 0.0380168 -0.855614 0
M  V30 6 C -0.81644 1.12405 -0.158245 0
M  V30 7 C -1.4435 2.3514 -0.176307 0
M  V30 8 C -0.925424 3.41801 0.530143 0
M  V30 9 C 0.233036 3.29082 1.27434 0
M  V30 10 C 0.844089 2.06469 1.28063 0
M  V30 11 C 0.36021 0.97305 0.588646 0
M  V30 12 C 1.02739 -0.229594 0.626234 0
M  V30 13 C 0.557643 -1.31978 -0.0695759 0
M  V30 14 C -0.606472 -1.1764 -0.81047 0
M  V30 15 C -1.05503 -2.28634 -1.50133 0
M  V30 16 C -0.392335 -3.49729 -1.47249 0
M  V30 17 C 0.764652 -3.63904 -0.735949 0
M  V30 18 C 1.22349 -2.54035 -0.0419879 0
M  V30 19 S 2.53244 -0.444259 1.56235 0
M  V30 20 C 3.89359 -0.0278355 0.444569 0
M  V30 21 C 5.2461 -0.161771 1.05815 0
M  V30 22 N 6.23558 0.19697 0.0605631 0
M  V30 23 H -5.99402 0.939069 1.68234 0
M  V30 24 H -5.64152 -0.699506 1.41364 0
M  V30 25 H -3.77016 0.644727 1.02428 0
M  V30 26 H -4.72074 1.64337 -0.123503 0
M  V30 27 H -4.27294 -1.37112 -0.614939 0
M  V30 28 H -5.14585 -0.200861 -1.60111 0
M  V30 29 H -2.34367 2.51548 -0.744221 0
M  V30 30 H -1.4421 4.37574 0.497506 0
M  V30 31 H 0.613063 4.13604 1.81436 0
M  V30 32 H 1.75505 1.95281 1.86205 0
M  V30 33 H -1.97222 -2.15278 -2.07844 0
M  V30 34 H -0.75462 -4.35804 -2.01838 0
M  V30 35 H 1.28345 -4.59353 -0.71611 0
M  V30 36 H 2.12752 -2.64433 0.535935 0
M  V30 37 H 3.79972 -0.669304 -0.443901 0
M  V30 38 H 3.77771 1.03119 0.110649 0
M  V30 39 H 5.45551 -1.23079 1.34582 0
M  V30 40 H 5.37355 0.511964 1.91904 0
M  V30 41 H 7.11564 0.560147 0.434742 0
M  V30 42 H 5.7835 0.74718 -0.686892 0
M  V30 END ATOM
M  V30 BEGIN BOND
M  V30 1 1 1 2
M  V30 2 1 2 3
M  V30 3 1 3 4
M  V30 4 1 4 5
M  V30 5 2 5 6
M  V30 6 1 6 7
M  V30 7 2 7 8
M  V30 8 1 8 9
M  V30 9 2 9 10
M  V30 10 1 10 11
M  V30 11 2 11 12
M  V30 12 1 12 13
M  V30 13 2 13 14
M  V30 14 1 14 15
M  V30 15 2 15 16
M  V30 16 1 16 17
M  V30 17 2 17 18
M  V30 18 1 12 19
M  V30 19 1 19 20
M  V30 20 1 20 21
M  V30 21 1 21 22
M  V30 22 1 14 5
M  V30 23 1 11 6
M  V30 24 1 18 13
M  V30 25 1 1 23
M  V30 26 1 1 24
M  V30 27 1 2 25
M  V30 28 1 2 26
M  V30 29 1 3 27
M  V30 30 1 3 28
M  V30 31 1 7 29
M  V30 32 1 8 30
M  V30 33 1 9 31
M  V30 34 1 10 32
M  V30 35 1 15 33
M  V30 36 1 16 34
M  V30 37 1 17 35
M  V30 38 1 18 36
M  V30 39 1 20 37
M  V30 40 1 20 38
M  V30 41 1 21 39
M  V30 42 1 21 40
M  V30 43 1 22 41
M  V30 44 1 22 42
M  V30 END BOND
M  V30 END CTAB
M  END
