
     RDKit          3D

  0  0  0  0  0  0  0  0  0  0999 V3000
M  V30 BEGIN CTAB
M  V30 COUNTS 45 48 0 0 0
M  V30 BEGIN ATOM
M  V30 1 N 3.99357 2.2178 2.18609 0
M  V30 2 C 3.8577 1.23298 1.18702 0
M  V30 3 C 2.56691 0.839764 0.822685 0
M  V30 4 C 1.39378 1.42507 1.45146 0
M  V30 5 O 1.52813 2.29643 2.33494 0
M  V30 6 C 0.0471764 0.985259 1.04128 0
M  V30 7 C -0.151431 0.0278989 0.072094 0
M  V30 8 C 1.03353 -0.550325 -0.549962 0
M  V30 9 O 0.858118 -1.43103 -1.4423 0
M  V30 10 C 2.36761 -0.118344 -0.147389 0
M  V30 11 C 3.48362 -0.688687 -0.759373 0
M  V30 12 O 3.24422 -1.63823 -1.71945 0
M  V30 13 C 4.76589 -0.321157 -0.421011 0
M  V30 14 C 4.91507 0.635855 0.549379 0
M  V30 15 S 6.13363 -1.06759 -1.22114 0
M  V30 16 O 7.53303 -0.387838 -0.562189 0
M  V30 17 O 6.03356 -0.750528 -2.69173 0
M  V30 18 O 6.1591 -2.54314 -1.04984 0
M  V30 19 C -1.43467 -0.378021 -0.306836 0
M  V30 20 N -1.53462 -1.37194 -1.32241 0
M  V30 21 C -2.54029 0.179731 0.290241 0
M  V30 22 C -2.33549 1.14046 1.26243 0
M  V30 23 C -1.07406 1.5469 1.64261 0
M  V30 24 O -0.84502 2.51055 2.61723 0
M  V30 25 C -3.89007 -0.231626 -0.0861619 0
M  V30 26 C -4.86928 0.733399 -0.366127 0
M  V30 27 C -6.1572 0.41579 -0.718085 0
M  V30 28 C -6.46197 -0.928905 -0.788359 0
M  V30 29 O -7.76372 -1.32465 -1.14345 0
M  V30 30 C -5.51419 -1.89262 -0.516963 0
M  V30 31 C -4.22197 -1.56757 -0.163773 0
M  V30 32 H 3.78575 3.21223 1.95203 0
M  V30 33 H 4.29469 2.00432 3.16037 0
M  V30 34 H 4.02514 -2.07705 -2.18713 0
M  V30 35 H 5.91881 0.931797 0.82268 0
M  V30 36 H 8.04355 -1.07455 -0.0370024 0
M  V30 37 H -1.36765 -2.36091 -1.03801 0
M  V30 38 H -1.76397 -1.14106 -2.31412 0
M  V30 39 H -3.18566 1.57992 1.73214 0
M  V30 40 H -1.6821 2.9162 3.05228 0
M  V30 41 H -4.5968 1.78353 -0.30174 0
M  V30 42 H -6.90433 1.16765 -0.931851 0
M  V30 43 H -8.45871 -0.630337 -1.34234 0
M  V30 44 H -5.74569 -2.96093 -0.569868 0
M  V30 45 H -3.48371 -2.34652 0.0529178 0
M  V30 END ATOM
M  V30 BEGIN BOND
M  V30 1 1 1 2
M  V30 2 2 2 3
M  V30 3 1 3 4
M  V30 4 2 4 5
M  V30 5 1 4 6
M  V30 6 2 6 7
M  V30 7 1 7 8
M  V30 8 2 8 9
M  V30 9 1 8 10
M  V30 10 2 10 11
M  V30 11 1 11 12
M  V30 12 1 11 13
M  V30 13 2 13 14
M  V30 14 1 13 15
M  V30 15 1 15 16
M  V30 16 2 15 17
M  V30 17 2 15 18
M  V30 18 1 7 19
M  V30 19 1 19 20
M  V30 20 2 19 21
M  V30 21 1 21 22
M  V30 22 2 22 23
M  V30 23 1 23 24
M  V30 24 1 21 25
M  V30 25 2 25 26
M  V30 26 1 26 27
M  V30 27 2 27 28
M  V30 28 1 28 29
M  V30 29 1 28 30
M  V30 30 2 30 31
M  V30 31 1 14 2
M  V30 32 1 31 25
M  V30 33 1 10 3
M  V30 34 1 23 6
M  V30 35 1 1 32
M  V30 36 1 1 33
M  V30 37 1 12 34
M  V30 38 1 14 35
M  V30 39 1 16 36
M  V30 40 1 20 37
M  V30 41 1 20 38
M  V30 42 1 22 39
M  V30 43 1 24 40
M  V30 44 1 26 41
M  V30 45 1 27 42
M  V30 46 1 29 43
M  V30 47 1 30 44
M  V30 48 1 31 45
M  V30 END BOND
M  V30 END CTAB
M  END
