
     RDKit          3D

  0  0  0  0  0  0  0  0  0  0999 V3000
M  V30 BEGIN CTAB
M  V30 COUNTS 62 65 0 0 0
M  V30 BEGIN ATOM
M  V30 1 C 7.26573 0.305128 1.45103 0
M  V30 2 C 6.16623 0.688083 0.535583 0
M  V30 3 C 6.04168 2.00804 0.122139 0
M  V30 4 C 5.00867 2.29946 -0.725261 0
M  V30 5 C 4.12401 1.30321 -1.14744 0
M  V30 6 C 4.2537 0.00208968 -0.738862 0
M  V30 7 C 5.29626 -0.280233 0.114343 0
M  V30 8 C 3.41941 -1.07845 -1.21704 0
M  V30 9 C 2.59285 -1.78353 -0.357703 0
M  V30 10 C 1.94095 -2.86436 -0.89011 0
M  V30 11 C 2.07846 -3.25906 -2.23167 0
M  V30 12 C 2.89284 -2.55686 -3.07419 0
M  V30 13 C 3.55741 -1.47674 -2.57129 0
M  V30 14 C 2.38934 -1.28284 1.028 0
M  V30 15 O 1.59729 -0.211174 0.961113 0
M  V30 16 C 0.845845 0.816742 0.899702 0
M  V30 17 N 1.23541 2.08189 1.23799 0
M  V30 18 C 0.400569 3.1454 1.16883 0
M  V30 19 N 0.810779 4.46432 1.49833 0
M  V30 20 N -0.870932 2.97538 0.75523 0
M  V30 21 C -1.29721 1.77067 0.417322 0
M  V30 22 N -0.472942 0.73997 0.485805 0
M  V30 23 C -2.69643 1.42095 0.0735335 0
M  V30 24 C -3.01568 0.2855 -0.633054 0
M  V30 25 C -4.34865 -0.093713 -0.812911 0
M  V30 26 C -5.37263 0.648073 -0.291296 0
M  V30 27 C -6.8037 0.332249 -0.460576 0
M  V30 28 C -7.19438 -0.927634 0.293274 0 CFG=2
M  V30 29 N -6.89311 -0.866397 1.68891 0
M  V30 30 C -6.74301 -2.15201 -0.40514 0
M  V30 31 O -7.03843 -2.3127 -1.78546 0
M  V30 32 O -6.11137 -3.06274 0.142542 0
M  V30 33 C -5.02527 1.78389 0.410578 0
M  V30 34 C -3.70267 2.19402 0.607401 0
M  V30 35 C 1.80145 -2.34129 1.9764 0
M  V30 36 F 0.570525 -2.78475 1.67968 0
M  V30 37 F 1.83679 -1.88749 3.25946 0
M  V30 38 F 2.65144 -3.45152 1.94728 0
M  V30 39 H 7.47584 1.17471 2.10563 0
M  V30 40 H 6.96198 -0.527335 2.09924 0
M  V30 41 H 8.17308 -0.00645691 0.879617 0
M  V30 42 H 6.73114 2.79854 0.454375 0
M  V30 43 H 4.88259 3.30642 -1.07659 0
M  V30 44 H 3.32082 1.61204 -1.81712 0
M  V30 45 H 5.4534 -1.30748 0.461931 0
M  V30 46 H 1.29527 -3.46273 -0.267663 0
M  V30 47 H 1.53935 -4.11696 -2.57196 0
M  V30 48 H 3.00344 -2.85479 -4.12521 0
M  V30 49 H 4.19444 -0.895784 -3.19344 0
M  V30 50 H 3.36531 -1.02038 1.49451 0
M  V30 51 H 0.251152 4.95579 2.2571 0
M  V30 52 H 1.61798 4.88898 0.9991 0
M  V30 53 H -2.18088 -0.306521 -1.05132 0
M  V30 54 H -4.54109 -0.978 -1.36434 0
M  V30 55 H -7.11516 0.28273 -1.50773 0
M  V30 56 H -7.41735 1.15646 0.0140813 0
M  V30 57 H -8.34579 -0.974699 0.240258 0
M  V30 58 H -6.22934 -0.109445 1.96687 0
M  V30 59 H -6.50413 -1.78653 2.05127 0
M  V30 60 H -7.86519 -1.9316 -2.21092 0
M  V30 61 H -5.79696 2.41421 0.841646 0
M  V30 62 H -3.4611 3.09722 1.14883 0
M  V30 END ATOM
M  V30 BEGIN BOND
M  V30 1 1 1 2
M  V30 2 2 2 3
M  V30 3 1 3 4
M  V30 4 2 4 5
M  V30 5 1 5 6
M  V30 6 2 6 7
M  V30 7 1 6 8
M  V30 8 1 8 9
M  V30 9 2 9 10
M  V30 10 1 10 11
M  V30 11 2 11 12
M  V30 12 1 12 13
M  V30 13 1 9 14
M  V30 14 1 14 15
M  V30 15 1 15 16
M  V30 16 2 16 17
M  V30 17 1 17 18
M  V30 18 1 18 19
M  V30 19 2 18 20
M  V30 20 1 20 21
M  V30 21 2 21 22
M  V30 22 1 21 23
M  V30 23 2 23 24
M  V30 24 1 24 25
M  V30 25 2 25 26
M  V30 26 1 26 27
M  V30 27 1 27 28
M  V30 28 1 28 29
M  V30 29 1 28 30
M  V30 30 1 30 31
M  V30 31 2 30 32
M  V30 32 1 26 33
M  V30 33 2 33 34
M  V30 34 1 14 35
M  V30 35 1 35 36
M  V30 36 1 35 37
M  V30 37 1 35 38
M  V30 38 1 7 2
M  V30 39 2 13 8
M  V30 40 1 22 16
M  V30 41 1 34 23
M  V30 42 1 1 39
M  V30 43 1 1 40
M  V30 44 1 1 41
M  V30 45 1 3 42
M  V30 46 1 4 43
M  V30 47 1 5 44
M  V30 48 1 7 45
M  V30 49 1 10 46
M  V30 50 1 11 47
M  V30 51 1 12 48
M  V30 52 1 13 49
M  V30 53 1 14 50
M  V30 54 1 19 51
M  V30 55 1 19 52
M  V30 56 1 24 53
M  V30 57 1 25 54
M  V30 58 1 27 55
M  V30 59 1 27 56
M  V30 60 1 28 57 CFG=1
M  V30 61 1 29 58
M  V30 62 1 29 59
M  V30 63 1 31 60
M  V30 64 1 33 61
M  V30 65 1 34 62
M  V30 END BOND
M  V30 END CTAB
M  END
