
     RDKit          3D

  0  0  0  0  0  0  0  0  0  0999 V3000
M  V30 BEGIN CTAB
M  V30 COUNTS 52 54 0 0 0
M  V30 BEGIN ATOM
M  V30 1 C 7.45261 0.494188 -2.42056 0
M  V30 2 C 8.10764 0.428896 -1.04156 0
M  V30 3 C 9.62087 0.516742 -1.25581 0
M  V30 4 C 7.72937 -0.883687 -0.428214 0
M  V30 5 O 6.34493 -1.00743 -0.29794 0
M  V30 6 C 5.57055 -0.192027 0.452823 0
M  V30 7 O 6.04137 0.750588 1.10265 0
M  V30 8 O 4.19723 -0.404087 0.508954 0
M  V30 9 C 3.39377 0.426913 1.27637 0
M  V30 10 O 3.93544 1.35108 1.90072 0
M  V30 11 C 1.95832 0.162418 1.30209 0
M  V30 12 C 1.11129 0.956988 2.04845 0
M  V30 13 C -0.248387 0.726309 2.08801 0
M  V30 14 C -0.819336 -0.312477 1.38011 0
M  V30 15 C -2.28407 -0.556907 1.4259 0
M  V30 16 C -3.01826 0.193052 0.347504 0
M  V30 17 C -4.47388 -0.13477 0.500024 0
M  V30 18 N -5.37947 0.415031 -0.35624 0
M  V30 19 C -6.68841 0.131244 -0.232975 0
M  V30 20 C -7.16385 -0.713645 0.747882 0
M  V30 21 N -6.25576 -1.24516 1.58152 0
M  V30 22 C -4.94012 -0.981097 1.48434 0
M  V30 23 N -8.47594 -0.951478 0.812584 0
M  V30 24 C -9.39942 -0.422905 -0.0201127 0
M  V30 25 N -10.7766 -0.714852 0.101239 0
M  V30 26 N -8.9402 0.41203 -0.991318 0
M  V30 27 C -7.62771 0.6707 -1.08224 0
M  V30 28 N -7.14222 1.55087 -2.10577 0
M  V30 29 C 0.032308 -1.10535 0.634317 0
M  V30 30 C 1.39053 -0.875594 0.594276 0
M  V30 31 H 6.65059 1.26147 -2.41974 0
M  V30 32 H 8.18704 0.744967 -3.19245 0
M  V30 33 H 6.99717 -0.473966 -2.704 0
M  V30 34 H 7.84898 1.26625 -0.405785 0
M  V30 35 H 9.89577 0.0167255 -2.21673 0
M  V30 36 H 10.1649 0.0202037 -0.429156 0
M  V30 37 H 9.90334 1.58817 -1.28297 0
M  V30 38 H 8.03957 -1.67291 -1.17668 0
M  V30 39 H 8.26837 -1.08087 0.52858 0
M  V30 40 H 1.55841 1.7771 2.60791 0
M  V30 41 H -0.904773 1.36044 2.68054 0
M  V30 42 H -2.43186 -1.63723 1.26432 0
M  V30 43 H -2.63603 -0.199488 2.41464 0
M  V30 44 H -2.69966 -0.149711 -0.655501 0
M  V30 45 H -2.92537 1.28714 0.471444 0
M  V30 46 H -4.2437 -1.4316 2.17775 0
M  V30 47 H -11.4713 -0.013983 -0.18629 0
M  V30 48 H -11.0758 -1.62403 0.475357 0
M  V30 49 H -7.68733 1.56456 -2.99569 0
M  V30 50 H -6.29265 2.14433 -1.97006 0
M  V30 51 H -0.438062 -1.92374 0.079888 0
M  V30 52 H 2.03992 -1.50942 0.00310595 0
M  V30 END ATOM
M  V30 BEGIN BOND
M  V30 1 1 1 2
M  V30 2 1 2 3
M  V30 3 1 2 4
M  V30 4 1 4 5
M  V30 5 1 5 6
M  V30 6 2 6 7
M  V30 7 1 6 8
M  V30 8 1 8 9
M  V30 9 2 9 10
M  V30 10 1 9 11
M  V30 11 2 11 12
M  V30 12 1 12 13
M  V30 13 2 13 14
M  V30 14 1 14 15
M  V30 15 1 15 16
M  V30 16 1 16 17
M  V30 17 2 17 18
M  V30 18 1 18 19
M  V30 19 2 19 20
M  V30 20 1 20 21
M  V30 21 2 21 22
M  V30 22 1 20 23
M  V30 23 2 23 24
M  V30 24 1 24 25
M  V30 25 1 24 26
M  V30 26 2 26 27
M  V30 27 1 27 28
M  V30 28 1 14 29
M  V30 29 2 29 30
M  V30 30 1 30 11
M  V30 31 1 22 17
M  V30 32 1 27 19
M  V30 33 1 1 31
M  V30 34 1 1 32
M  V30 35 1 1 33
M  V30 36 1 2 34
M  V30 37 1 3 35
M  V30 38 1 3 36
M  V30 39 1 3 37
M  V30 40 1 4 38
M  V30 41 1 4 39
M  V30 42 1 12 40
M  V30 43 1 13 41
M  V30 44 1 15 42
M  V30 45 1 15 43
M  V30 46 1 16 44
M  V30 47 1 16 45
M  V30 48 1 22 46
M  V30 49 1 25 47
M  V30 50 1 25 48
M  V30 51 1 28 49
M  V30 52 1 28 50
M  V30 53 1 29 51
M  V30 54 1 30 52
M  V30 END BOND
M  V30 END CTAB
M  END
