
     RDKit          3D

  0  0  0  0  0  0  0  0  0  0999 V3000
M  V30 BEGIN CTAB
M  V30 COUNTS 28 28 0 0 0
M  V30 BEGIN ATOM
M  V30 1 C -0.387752 2.91927 0.554685 0
M  V30 2 C 0.00156339 1.51606 0.286627 0
M  V30 3 C -1.00275 0.573122 0.0397591 0
M  V30 4 C -2.44144 0.933062 0.0378209 0
M  V30 5 C -0.670837 -0.736186 -0.211948 0
M  V30 6 C 0.655329 -1.10443 -0.217702 0
M  V30 7 C 1.67806 -0.2015 0.0219059 0
M  V30 8 C 1.31925 1.10714 0.272057 0
M  V30 9 S 3.34399 -0.739926 -0.000951269 0
M  V30 10 N 3.75934 -1.23148 1.59356 0
M  V30 11 O 3.42399 -1.90316 -0.964061 0
M  V30 12 O 4.24689 0.378916 -0.419359 0
M  V30 13 S -1.90427 -1.89649 -0.515649 0
M  V30 14 N -2.87725 -1.53732 -1.8789 0
M  V30 15 O -1.30107 -3.2715 -0.75329 0
M  V30 16 O -2.84131 -2.07701 0.66977 0
M  V30 17 H -0.954192 3.28578 -0.337765 0
M  V30 18 H 0.494983 3.55196 0.778304 0
M  V30 19 H -1.02137 2.95883 1.47571 0
M  V30 20 H -2.50791 2.01078 0.330292 0
M  V30 21 H -3.03866 0.377688 0.767283 0
M  V30 22 H -2.87599 0.901793 -1.00122 0
M  V30 23 H 0.936368 -2.12735 -0.413205 0
M  V30 24 H 2.12612 1.82432 0.462073 0
M  V30 25 H 4.76106 -1.14499 1.8062 0
M  V30 26 H 3.31292 -2.10929 1.88941 0
M  V30 27 H -2.40233 -1.01278 -2.62153 0
M  V30 28 H -3.83273 -1.24531 -1.64988 0
M  V30 END ATOM
M  V30 BEGIN BOND
M  V30 1 1 1 2
M  V30 2 2 2 3
M  V30 3 1 3 4
M  V30 4 1 3 5
M  V30 5 2 5 6
M  V30 6 1 6 7
M  V30 7 2 7 8
M  V30 8 1 7 9
M  V30 9 1 9 10
M  V30 10 2 9 11
M  V30 11 2 9 12
M  V30 12 1 5 13
M  V30 13 1 13 14
M  V30 14 2 13 15
M  V30 15 2 13 16
M  V30 16 1 8 2
M  V30 17 1 1 17
M  V30 18 1 1 18
M  V30 19 1 1 19
M  V30 20 1 4 20
M  V30 21 1 4 21
M  V30 22 1 4 22
M  V30 23 1 6 23
M  V30 24 1 8 24
M  V30 25 1 10 25
M  V30 26 1 10 26
M  V30 27 1 14 27
M  V30 28 1 14 28
M  V30 END BOND
M  V30 END CTAB
M  END
