
     RDKit          3D

  0  0  0  0  0  0  0  0  0  0999 V3000
M  V30 BEGIN CTAB
M  V30 COUNTS 50 52 0 0 0
M  V30 BEGIN ATOM
M  V30 1 C 3.84631 -4.18884 0.356419 0
M  V30 2 S 4.77751 -2.68749 0.185013 0
M  V30 3 O 5.59133 -2.79542 -1.08507 0
M  V30 4 O 5.72921 -2.52982 1.32114 0
M  V30 5 C 3.72623 -1.29818 0.0720122 0
M  V30 6 C 3.39037 -0.741105 -1.14135 0
M  V30 7 C 2.53407 0.359495 -1.19622 0
M  V30 8 C 2.00278 0.917946 -0.0641629 0
M  V30 9 C 2.33934 0.360435 1.14834 0
M  V30 10 C 3.19389 -0.740548 1.23148 0
M  V30 11 C 1.13024 2.06717 -0.114218 0
M  V30 12 C -0.219597 1.93639 -0.047514 0
M  V30 13 C -0.964035 0.699395 0.116645 0
M  V30 14 C -0.900161 -0.381326 -0.712156 0
M  V30 15 C -1.64656 -1.54605 -0.485773 0
M  V30 16 C -2.47717 -1.64782 0.576543 0
M  V30 17 C -2.56489 -0.561813 1.43648 0
M  V30 18 C -1.82172 0.592831 1.2143 0
M  V30 19 S -3.42917 -3.06356 0.954006 0
M  V30 20 O -2.50166 -4.18371 1.29336 0
M  V30 21 O -4.36177 -2.74688 2.11911 0
M  V30 22 N -4.42679 -3.53079 -0.371997 0
M  V30 23 N -5.62565 -2.86779 -0.462762 0
M  V30 24 C -0.969103 3.12976 -0.112269 0
M  V30 25 N -2.38464 3.13818 -0.0362634 0
M  V30 26 N -3.12367 2.85629 -1.16553 0
M  V30 27 N -0.368601 4.32167 -0.231704 0
M  V30 28 C 0.96461 4.42574 -0.292994 0
M  V30 29 N 1.69996 3.30376 -0.235162 0
M  V30 30 C 1.55382 5.79404 -0.397284 0
M  V30 31 F 1.62254 6.35849 0.88963 0
M  V30 32 F 2.81465 5.73773 -0.917597 0
M  V30 33 F 0.726194 6.53133 -1.22595 0
M  V30 34 H 2.96086 -4.03258 1.02061 0
M  V30 35 H 3.60847 -4.63453 -0.607474 0
M  V30 36 H 4.51448 -4.9042 0.899568 0
M  V30 37 H 3.81648 -1.18796 -2.03496 0
M  V30 38 H 2.29497 0.766356 -2.19652 0
M  V30 39 H 1.94074 0.769578 2.08405 0
M  V30 40 H 3.45406 -1.17325 2.18242 0
M  V30 41 H -0.299342 -0.389483 -1.60451 0
M  V30 42 H -1.55781 -2.3898 -1.17536 0
M  V30 43 H -3.20596 -0.582508 2.30198 0
M  V30 44 H -1.8737 1.44359 1.87044 0
M  V30 45 H -4.56224 -4.56133 -0.296658 0
M  V30 46 H -6.41954 -3.50843 -0.658259 0
M  V30 47 H -5.55383 -2.17639 -1.27334 0
M  V30 48 H -2.84522 3.36217 0.85348 0
M  V30 49 H -2.54097 2.43832 -1.91614 0
M  V30 50 H -3.58934 3.74094 -1.48207 0
M  V30 END ATOM
M  V30 BEGIN BOND
M  V30 1 1 1 2
M  V30 2 2 2 3
M  V30 3 2 2 4
M  V30 4 1 2 5
M  V30 5 2 5 6
M  V30 6 1 6 7
M  V30 7 2 7 8
M  V30 8 1 8 9
M  V30 9 2 9 10
M  V30 10 1 8 11
M  V30 11 1 11 12
M  V30 12 1 12 13
M  V30 13 2 13 14
M  V30 14 1 14 15
M  V30 15 2 15 16
M  V30 16 1 16 17
M  V30 17 2 17 18
M  V30 18 1 16 19
M  V30 19 2 19 20
M  V30 20 2 19 21
M  V30 21 1 19 22
M  V30 22 1 22 23
M  V30 23 2 12 24
M  V30 24 1 24 25
M  V30 25 1 25 26
M  V30 26 1 24 27
M  V30 27 2 27 28
M  V30 28 1 28 29
M  V30 29 1 28 30
M  V30 30 1 30 31
M  V30 31 1 30 32
M  V30 32 1 30 33
M  V30 33 1 10 5
M  V30 34 2 29 11
M  V30 35 1 18 13
M  V30 36 1 1 34
M  V30 37 1 1 35
M  V30 38 1 1 36
M  V30 39 1 6 37
M  V30 40 1 7 38
M  V30 41 1 9 39
M  V30 42 1 10 40
M  V30 43 1 14 41
M  V30 44 1 15 42
M  V30 45 1 17 43
M  V30 46 1 18 44
M  V30 47 1 22 45
M  V30 48 1 23 46
M  V30 49 1 23 47
M  V30 50 1 25 48
M  V30 51 1 26 49
M  V30 52 1 26 50
M  V30 END BOND
M  V30 END CTAB
M  END
