
     RDKit          3D

  0  0  0  0  0  0  0  0  0  0999 V3000
M  V30 BEGIN CTAB
M  V30 COUNTS 25 25 0 0 0
M  V30 BEGIN ATOM
M  V30 1 C 2.83512 2.54804 0.119754 0
M  V30 2 C 2.41616 1.48682 -0.323782 0
M  V30 3 C 1.95872 0.230875 -0.837023 0
M  V30 4 N 0.999286 -0.465285 0.026755 0
M  V30 5 C 1.40757 -1.34215 1.07865 0
M  V30 6 O 2.61683 -1.57292 1.36901 0
M  V30 7 N 0.234046 -1.84831 1.66854 0
M  V30 8 C -0.813878 -1.39209 1.10766 0
M  V30 9 C -0.42306 -0.483221 0.0206647 0
M  V30 10 C -0.963322 -0.987497 -1.32451 0
M  V30 11 C -1.06031 0.850818 0.327474 0
M  V30 12 N -0.758993 1.90108 -0.576784 0
M  V30 13 N -2.18871 -1.71776 1.48197 0
M  V30 14 H 3.18017 3.46454 0.504494 0
M  V30 15 H 2.82894 -0.401664 -1.07585 0
M  V30 16 H 1.42396 0.407115 -1.79158 0
M  V30 17 H -2.04257 -0.764167 -1.31898 0
M  V30 18 H -0.500383 -0.348964 -2.09595 0
M  V30 19 H -0.784576 -2.05818 -1.44759 0
M  V30 20 H -2.15349 0.769957 0.471695 0
M  V30 21 H -0.661201 1.14607 1.34269 0
M  V30 22 H -0.678879 1.61147 -1.56082 0
M  V30 23 H -1.49926 2.63138 -0.498537 0
M  V30 24 H -2.64299 -2.5992 1.16013 0
M  V30 25 H -2.72918 -1.06674 2.07765 0
M  V30 END ATOM
M  V30 BEGIN BOND
M  V30 1 3 1 2
M  V30 2 1 2 3
M  V30 3 1 3 4
M  V30 4 1 4 5
M  V30 5 2 5 6
M  V30 6 1 5 7
M  V30 7 2 7 8
M  V30 8 1 8 9
M  V30 9 1 9 10
M  V30 10 1 9 11
M  V30 11 1 11 12
M  V30 12 1 8 13
M  V30 13 1 9 4
M  V30 14 1 1 14
M  V30 15 1 3 15
M  V30 16 1 3 16
M  V30 17 1 10 17
M  V30 18 1 10 18
M  V30 19 1 10 19
M  V30 20 1 11 20
M  V30 21 1 11 21
M  V30 22 1 12 22
M  V30 23 1 12 23
M  V30 24 1 13 24
M  V30 25 1 13 25
M  V30 END BOND
M  V30 END CTAB
M  END
