
     RDKit          3D

  0  0  0  0  0  0  0  0  0  0999 V3000
M  V30 BEGIN CTAB
M  V30 COUNTS 42 44 0 0 0
M  V30 BEGIN ATOM
M  V30 1 C -6.67145 -1.59489 3.07109 0
M  V30 2 C -5.25218 -1.9497 3.54026 0
M  V30 3 O -4.3495 -1.74507 2.68146 0
M  V30 4 C -3.43422 -1.54055 1.80465 0
M  V30 5 C -3.3388 -2.08802 0.564469 0
M  V30 6 C -2.30903 -1.80521 -0.306484 0
M  V30 7 C -1.2989 -0.954815 -0.00789736 0
M  V30 8 C -1.35941 -0.364283 1.26296 0
M  V30 9 C -2.35642 -0.626503 2.1317 0
M  V30 10 Br -2.46953 0.162788 3.85362 0
M  V30 11 C -0.161529 -0.582807 -0.859222 0
M  V30 12 N 0.782201 0.196016 -0.289465 0
M  V30 13 C 1.83897 0.609609 -0.968031 0
M  V30 14 C 2.79815 1.40219 -0.368767 0
M  V30 15 C 3.9385 1.86967 -1.03131 0
M  V30 16 C 4.06181 1.49135 -2.34653 0
M  V30 17 C 3.14964 0.71356 -2.99103 0
M  V30 18 C 2.03577 0.269792 -2.30202 0
M  V30 19 C 1.06841 -0.520609 -2.85673 0
M  V30 20 O 1.19008 -0.866856 -4.05803 0
M  V30 21 N -0.00502478 -0.926492 -2.11953 0
M  V30 22 N -0.919183 -1.73009 -2.83443 0
M  V30 23 C 4.89442 2.69061 -0.304577 0
M  V30 24 O 4.8591 2.82074 0.94843 0
M  V30 25 N 5.90585 3.37876 -0.993757 0
M  V30 26 N 6.86186 4.18499 -0.412768 0
M  V30 27 H -7.15992 -2.51828 2.70666 0
M  V30 28 H -7.28018 -1.25544 3.9427 0
M  V30 29 H -6.6336 -0.783684 2.32612 0
M  V30 30 H -5.3603 -3.03367 3.90336 0
M  V30 31 H -5.14608 -1.34777 4.53717 0
M  V30 32 H -4.13008 -2.79438 0.260523 0
M  V30 33 H -2.3456 -2.31184 -1.2509 0
M  V30 34 H -0.556439 0.345162 1.55574 0
M  V30 35 H 2.64559 1.6601 0.662047 0
M  V30 36 H 4.9195 1.82327 -2.91962 0
M  V30 37 H 3.23213 0.416088 -4.03054 0
M  V30 38 H -0.785988 -2.78247 -2.90635 0
M  V30 39 H -1.74619 -1.34262 -3.32375 0
M  V30 40 H 5.94959 3.28181 -2.05015 0
M  V30 41 H 7.36898 3.61024 0.309745 0
M  V30 42 H 7.569 4.53929 -1.08388 0
M  V30 END ATOM
M  V30 BEGIN BOND
M  V30 1 1 1 2
M  V30 2 1 2 3
M  V30 3 1 3 4
M  V30 4 2 4 5
M  V30 5 1 5 6
M  V30 6 2 6 7
M  V30 7 1 7 8
M  V30 8 2 8 9
M  V30 9 1 9 10
M  V30 10 1 7 11
M  V30 11 2 11 12
M  V30 12 1 12 13
M  V30 13 2 13 14
M  V30 14 1 14 15
M  V30 15 2 15 16
M  V30 16 1 16 17
M  V30 17 2 17 18
M  V30 18 1 18 19
M  V30 19 2 19 20
M  V30 20 1 19 21
M  V30 21 1 21 22
M  V30 22 1 15 23
M  V30 23 2 23 24
M  V30 24 1 23 25
M  V30 25 1 25 26
M  V30 26 1 9 4
M  V30 27 1 21 11
M  V30 28 1 18 13
M  V30 29 1 1 27
M  V30 30 1 1 28
M  V30 31 1 1 29
M  V30 32 1 2 30
M  V30 33 1 2 31
M  V30 34 1 5 32
M  V30 35 1 6 33
M  V30 36 1 8 34
M  V30 37 1 14 35
M  V30 38 1 16 36
M  V30 39 1 17 37
M  V30 40 1 22 38
M  V30 41 1 22 39
M  V30 42 1 25 40
M  V30 43 1 26 41
M  V30 44 1 26 42
M  V30 END BOND
M  V30 END CTAB
M  END
