
     RDKit          3D

  0  0  0  0  0  0  0  0  0  0999 V3000
M  V30 BEGIN CTAB
M  V30 COUNTS 28 28 0 0 0
M  V30 BEGIN ATOM
M  V30 1 C 2.93888 -0.574554 0.694712 0
M  V30 2 C 2.408 0.246749 -0.420885 0
M  V30 3 C 3.24252 1.37086 -0.900963 0
M  V30 4 C 1.25656 0.00782058 -0.971325 0
M  V30 5 C 0.317164 -1.10373 -0.571178 0
M  V30 6 C -0.981603 -0.510587 -0.168939 0
M  V30 7 C -1.84632 -0.0364827 -1.13685 0
M  V30 8 O -1.44548 -0.138898 -2.46688 0
M  V30 9 N -3.03204 0.503397 -0.792481 0
M  V30 10 C -3.44726 0.616027 0.487795 0
M  V30 11 N -4.71151 1.19572 0.796028 0
M  V30 12 N -2.61283 0.157532 1.43678 0
M  V30 13 C -1.40974 -0.393529 1.13521 0
M  V30 14 N -0.542462 -0.876015 2.16002 0
M  V30 15 H 2.83226 -1.64188 0.392776 0
M  V30 16 H 2.40531 -0.344099 1.62666 0
M  V30 17 H 4.03851 -0.379529 0.858138 0
M  V30 18 H 4.27052 0.950287 -1.07494 0
M  V30 19 H 2.88486 1.70408 -1.89609 0
M  V30 20 H 3.33293 2.19981 -0.183386 0
M  V30 21 H 0.926849 0.662632 -1.79875 0
M  V30 22 H 0.212448 -1.75527 -1.43633 0
M  V30 23 H 0.807726 -1.6268 0.275718 0
M  V30 24 H -0.933502 -0.882123 -2.87436 0
M  V30 25 H -4.8579 2.12167 1.2404 0
M  V30 26 H -5.55828 0.645367 0.555686 0
M  V30 27 H 0.172632 -0.264817 2.55861 0
M  V30 28 H -0.668227 -1.85363 2.47482 0
M  V30 END ATOM
M  V30 BEGIN BOND
M  V30 1 1 1 2
M  V30 2 1 2 3
M  V30 3 2 2 4
M  V30 4 1 4 5
M  V30 5 1 5 6
M  V30 6 2 6 7
M  V30 7 1 7 8
M  V30 8 1 7 9
M  V30 9 2 9 10
M  V30 10 1 10 11
M  V30 11 1 10 12
M  V30 12 2 12 13
M  V30 13 1 13 14
M  V30 14 1 13 6
M  V30 15 1 1 15
M  V30 16 1 1 16
M  V30 17 1 1 17
M  V30 18 1 3 18
M  V30 19 1 3 19
M  V30 20 1 3 20
M  V30 21 1 4 21
M  V30 22 1 5 22
M  V30 23 1 5 23
M  V30 24 1 8 24
M  V30 25 1 11 25
M  V30 26 1 11 26
M  V30 27 1 14 27
M  V30 28 1 14 28
M  V30 END BOND
M  V30 END CTAB
M  END
