
     RDKit          3D

  0  0  0  0  0  0  0  0  0  0999 V3000
M  V30 BEGIN CTAB
M  V30 COUNTS 25 26 0 0 0
M  V30 BEGIN ATOM
M  V30 1 C -4.76927 0.781111 0.165921 0
M  V30 2 N -3.46051 0.265999 -0.188401 0
M  V30 3 N -3.23082 -0.667187 -1.08776 0
M  V30 4 C -1.92491 -0.907016 -1.16897 0
M  V30 5 C -1.2911 -0.0816579 -0.272882 0
M  V30 6 N -2.29919 0.631818 0.314631 0
M  V30 7 C 0.127085 0.0400827 0.0185892 0
M  V30 8 N 0.66599 0.883228 0.92093 0
M  V30 9 C 2.0133 0.723728 0.924585 0
M  V30 10 N 2.34359 -0.221477 0.0254391 0
M  V30 11 C 1.17176 -0.638236 -0.529514 0
M  V30 12 N 1.09833 -1.6382 -1.53165 0
M  V30 13 N 3.5928 -0.713815 -0.313242 0
M  V30 14 C 2.94613 1.47003 1.77813 0
M  V30 15 H -4.75425 1.25741 1.17272 0
M  V30 16 H -5.46923 -0.0866226 0.161661 0
M  V30 17 H -5.14995 1.49881 -0.595911 0
M  V30 18 H -1.44767 -1.62033 -1.82011 0
M  V30 19 H 0.843458 -1.41851 -2.50552 0
M  V30 20 H 1.30913 -2.65095 -1.29019 0
M  V30 21 H 3.94933 -1.5674 0.143184 0
M  V30 22 H 4.16033 -0.223104 -1.02121 0
M  V30 23 H 3.28321 2.36721 1.23819 0
M  V30 24 H 3.8006 0.773702 2.01353 0
M  V30 25 H 2.49189 1.74139 2.762 0
M  V30 END ATOM
M  V30 BEGIN BOND
M  V30 1 1 1 2
M  V30 2 1 2 3
M  V30 3 2 3 4
M  V30 4 1 4 5
M  V30 5 2 5 6
M  V30 6 1 5 7
M  V30 7 1 7 8
M  V30 8 2 8 9
M  V30 9 1 9 10
M  V30 10 1 10 11
M  V30 11 1 11 12
M  V30 12 1 10 13
M  V30 13 1 9 14
M  V30 14 1 6 2
M  V30 15 2 11 7
M  V30 16 1 1 15
M  V30 17 1 1 16
M  V30 18 1 1 17
M  V30 19 1 4 18
M  V30 20 1 12 19
M  V30 21 1 12 20
M  V30 22 1 13 21
M  V30 23 1 13 22
M  V30 24 1 14 23
M  V30 25 1 14 24
M  V30 26 1 14 25
M  V30 END BOND
M  V30 END CTAB
M  END
