
     RDKit          3D

  0  0  0  0  0  0  0  0  0  0999 V3000
M  V30 BEGIN CTAB
M  V30 COUNTS 35 37 0 0 0
M  V30 BEGIN ATOM
M  V30 1 N 1.19916 4.15989 0.0305319 0
M  V30 2 C 0.437766 2.97575 -0.0425066 0
M  V30 3 N -0.899384 3.11034 -0.205252 0
M  V30 4 C -1.72542 2.04255 -0.28788 0
M  V30 5 N -3.1122 2.14348 -0.456056 0
M  V30 6 N -1.17048 0.810017 -0.202027 0
M  V30 7 C 0.163441 0.679015 -0.0397236 0
M  V30 8 N 0.664622 -0.505652 0.0389225 0
M  V30 9 C 2.04863 -0.766278 0.209258 0
M  V30 10 C 2.41189 -1.62164 1.23356 0
M  V30 11 C 3.72754 -1.94743 1.49264 0
M  V30 12 C 4.68272 -1.37646 0.675569 0
M  V30 13 C 4.3198 -0.5229 -0.346532 0
M  V30 14 C 3.00468 -0.196108 -0.606916 0
M  V30 15 N 0.98556 1.74573 0.0424504 0
M  V30 16 C -1.96145 -0.377126 -0.278602 0
M  V30 17 C -1.83892 -1.23994 -1.32157 0
M  V30 18 C -2.64457 -2.37328 -1.32317 0
M  V30 19 C -3.52827 -2.6033 -0.303943 0
M  V30 20 C -3.65958 -1.72531 0.766749 0
M  V30 21 C -2.85072 -0.603905 0.751765 0
M  V30 22 H 1.36188 4.61096 0.941514 0
M  V30 23 H 1.58951 4.5682 -0.830844 0
M  V30 24 H -3.65986 2.96372 -0.128037 0
M  V30 25 H -3.63922 1.37846 -0.926019 0
M  V30 26 H 1.66185 -2.08308 1.89146 0
M  V30 27 H 4.02132 -2.61563 2.29171 0
M  V30 28 H 5.73387 -1.60933 0.848425 0
M  V30 29 H 5.05881 -0.0582412 -1.00722 0
M  V30 30 H 2.72482 0.473874 -1.40975 0
M  V30 31 H -1.12895 -1.04389 -2.12908 0
M  V30 32 H -2.51825 -3.04225 -2.17615 0
M  V30 33 H -4.14191 -3.51291 -0.351908 0
M  V30 34 H -4.3621 -1.91495 1.57015 0
M  V30 35 H -2.95661 0.0775975 1.58848 0
M  V30 END ATOM
M  V30 BEGIN BOND
M  V30 1 1 1 2
M  V30 2 1 2 3
M  V30 3 2 3 4
M  V30 4 1 4 5
M  V30 5 1 4 6
M  V30 6 1 6 7
M  V30 7 2 7 8
M  V30 8 1 8 9
M  V30 9 2 9 10
M  V30 10 1 10 11
M  V30 11 2 11 12
M  V30 12 1 12 13
M  V30 13 2 13 14
M  V30 14 1 7 15
M  V30 15 1 6 16
M  V30 16 2 16 17
M  V30 17 1 17 18
M  V30 18 2 18 19
M  V30 19 1 19 20
M  V30 20 2 20 21
M  V30 21 2 15 2
M  V30 22 1 21 16
M  V30 23 1 14 9
M  V30 24 1 1 22
M  V30 25 1 1 23
M  V30 26 1 5 24
M  V30 27 1 5 25
M  V30 28 1 10 26
M  V30 29 1 11 27
M  V30 30 1 12 28
M  V30 31 1 13 29
M  V30 32 1 14 30
M  V30 33 1 17 31
M  V30 34 1 18 32
M  V30 35 1 19 33
M  V30 36 1 20 34
M  V30 37 1 21 35
M  V30 END BOND
M  V30 END CTAB
M  END
