
     RDKit          3D

  0  0  0  0  0  0  0  0  0  0999 V3000
M  V30 BEGIN CTAB
M  V30 COUNTS 38 40 0 0 0
M  V30 BEGIN ATOM
M  V30 1 C 4.21816 -0.357337 3.21224 0
M  V30 2 O 3.74445 0.103579 1.98453 0
M  V30 3 C 4.09144 -0.745873 0.946502 0
M  V30 4 C 3.58947 -0.26253 -0.373769 0
M  V30 5 N 2.14625 -0.140919 -0.416651 0
M  V30 6 C 1.52169 0.302861 -1.59271 0
M  V30 7 O 2.24285 0.592498 -2.60812 0
M  V30 8 C 0.0817723 0.464803 -1.75574 0
M  V30 9 C -0.58567 0.902102 -2.90287 0
M  V30 10 N 0.0663522 1.2623 -4.11132 0
M  V30 11 N -1.90737 0.922504 -2.67334 0
M  V30 12 C -2.16301 0.517532 -1.41938 0
M  V30 13 C -0.934525 0.229318 -0.836296 0
M  V30 14 N -0.905555 -0.203075 0.436269 0
M  V30 15 C -2.05281 -0.347933 1.11629 0
M  V30 16 C -2.05855 -0.796179 2.44328 0
M  V30 17 C -3.23301 -0.948913 3.15247 0
M  V30 18 C -4.44899 -0.660116 2.56492 0
M  V30 19 C -4.44235 -0.217175 1.25343 0
M  V30 20 C -3.27418 -0.0638403 0.543825 0
M  V30 21 N -3.32315 0.369071 -0.725884 0
M  V30 22 N -2.88938 1.30416 -3.58688 0
M  V30 23 H 3.94355 0.317376 4.04279 0
M  V30 24 H 3.8003 -1.37221 3.45686 0
M  V30 25 H 5.30884 -0.482639 3.13382 0
M  V30 26 H 3.7655 -1.78559 1.17212 0
M  V30 27 H 5.19902 -0.781098 0.904815 0
M  V30 28 H 4.05196 0.719809 -0.598766 0
M  V30 29 H 3.89793 -0.941362 -1.19434 0
M  V30 30 H 1.64303 -0.398222 0.455312 0
M  V30 31 H 0.237534 2.24886 -4.35404 0
M  V30 32 H 0.379045 0.524168 -4.767 0
M  V30 33 H -1.13008 -1.03145 2.93554 0
M  V30 34 H -3.24498 -1.29679 4.18395 0
M  V30 35 H -5.38023 -0.779998 3.1236 0
M  V30 36 H -5.37209 0.0150435 0.770449 0
M  V30 37 H -3.26425 0.659681 -4.32648 0
M  V30 38 H -3.31896 2.27388 -3.58941 0
M  V30 END ATOM
M  V30 BEGIN BOND
M  V30 1 1 1 2
M  V30 2 1 2 3
M  V30 3 1 3 4
M  V30 4 1 4 5
M  V30 5 1 5 6
M  V30 6 2 6 7
M  V30 7 1 6 8
M  V30 8 2 8 9
M  V30 9 1 9 10
M  V30 10 1 9 11
M  V30 11 1 11 12
M  V30 12 2 12 13
M  V30 13 1 13 14
M  V30 14 2 14 15
M  V30 15 1 15 16
M  V30 16 2 16 17
M  V30 17 1 17 18
M  V30 18 2 18 19
M  V30 19 1 19 20
M  V30 20 2 20 21
M  V30 21 1 11 22
M  V30 22 1 13 8
M  V30 23 1 20 15
M  V30 24 1 21 12
M  V30 25 1 1 23
M  V30 26 1 1 24
M  V30 27 1 1 25
M  V30 28 1 3 26
M  V30 29 1 3 27
M  V30 30 1 4 28
M  V30 31 1 4 29
M  V30 32 1 5 30
M  V30 33 1 10 31
M  V30 34 1 10 32
M  V30 35 1 16 33
M  V30 36 1 17 34
M  V30 37 1 18 35
M  V30 38 1 19 36
M  V30 39 1 22 37
M  V30 40 1 22 38
M  V30 END BOND
M  V30 END CTAB
M  END
