
     RDKit          3D

  0  0  0  0  0  0  0  0  0  0999 V3000
M  V30 BEGIN CTAB
M  V30 COUNTS 27 27 0 0 0
M  V30 BEGIN ATOM
M  V30 1 N -5.24945 -0.815816 -0.948142 0
M  V30 2 N -3.87721 -1.03999 -0.810752 0
M  V30 3 C -3.03463 -0.0630235 -0.224292 0
M  V30 4 O -3.54214 1.0119 0.171758 0
M  V30 5 C -1.59988 -0.306486 -0.0847212 0
M  V30 6 N -1.01787 -1.44687 -0.497322 0
M  V30 7 C 0.304226 -1.65328 -0.360636 0
M  V30 8 Cl 1.01981 -3.14644 -0.908944 0
M  V30 9 C 1.13584 -0.711391 0.208119 0
M  V30 10 N 2.52317 -0.96211 0.338486 0
M  V30 11 C 3.45446 -0.0277564 0.918736 0
M  V30 12 C 3.52937 1.28169 0.169728 0
M  V30 13 O 3.92739 1.10033 -1.1416 0
M  V30 14 N 0.552776 0.428194 0.62018 0
M  V30 15 C -0.768784 0.637063 0.484692 0
M  V30 16 N -1.39488 1.84712 0.921027 0
M  V30 17 H -5.38509 0.195747 -1.2444 0
M  V30 18 H -5.69972 -0.860351 0.00682686 0
M  V30 19 H -3.51176 -1.95643 -1.16009 0
M  V30 20 H 2.89766 -1.86832 -0.0010846 0
M  V30 21 H 4.47361 -0.44568 0.932661 0
M  V30 22 H 3.20672 0.206764 1.98494 0
M  V30 23 H 4.36568 1.85542 0.661947 0
M  V30 24 H 2.6394 1.90851 0.302162 0
M  V30 25 H 4.3082 0.206288 -1.31249 0
M  V30 26 H -1.48959 2.64875 0.252197 0
M  V30 27 H -1.76731 1.97616 1.88239 0
M  V30 END ATOM
M  V30 BEGIN BOND
M  V30 1 1 1 2
M  V30 2 1 2 3
M  V30 3 2 3 4
M  V30 4 1 3 5
M  V30 5 2 5 6
M  V30 6 1 6 7
M  V30 7 1 7 8
M  V30 8 2 7 9
M  V30 9 1 9 10
M  V30 10 1 10 11
M  V30 11 1 11 12
M  V30 12 1 12 13
M  V30 13 1 9 14
M  V30 14 2 14 15
M  V30 15 1 15 16
M  V30 16 1 15 5
M  V30 17 1 1 17
M  V30 18 1 1 18
M  V30 19 1 2 19
M  V30 20 1 10 20
M  V30 21 1 11 21
M  V30 22 1 11 22
M  V30 23 1 12 23
M  V30 24 1 12 24
M  V30 25 1 13 25
M  V30 26 1 16 26
M  V30 27 1 16 27
M  V30 END BOND
M  V30 END CTAB
M  END
