
     RDKit          3D

  0  0  0  0  0  0  0  0  0  0999 V3000
M  V30 BEGIN CTAB
M  V30 COUNTS 36 37 0 0 0
M  V30 BEGIN ATOM
M  V30 1 C -5.41447 0.816085 -1.26653 0
M  V30 2 N -4.82399 0.453629 -0.0124776 0
M  V30 3 C -3.47841 0.0270601 0.062026 0
M  V30 4 C -2.66742 -0.0620582 -1.06326 0
M  V30 5 C -1.36756 -0.470695 -1.01552 0
M  V30 6 C -0.810293 -0.815565 0.186842 0
M  V30 7 C -1.57136 -0.743596 1.32413 0
M  V30 8 C -2.88043 -0.328939 1.25429 0
M  V30 9 C 0.590436 -1.25366 0.222156 0
M  V30 10 N 1.28044 -1.31118 -0.863766 0
M  V30 11 N 2.59997 -1.72645 -0.812601 0
M  V30 12 C 3.66784 -0.834004 -0.436263 0
M  V30 13 N 4.94201 -1.26125 -0.394022 0
M  V30 14 C 5.94463 -0.434791 -0.0437917 0
M  V30 15 N 7.30014 -0.847112 0.0126548 0
M  V30 16 N 5.65444 0.8417 0.268089 0
M  V30 17 C 4.37011 1.27562 0.226401 0
M  V30 18 N 3.37058 0.440098 -0.125914 0
M  V30 19 N 4.06903 2.63812 0.560369 0
M  V30 20 C -5.61071 0.523915 1.19206 0
M  V30 21 H -5.28662 0.0423904 -2.05026 0
M  V30 22 H -6.44866 1.14803 -1.13879 0
M  V30 23 H -4.8471 1.71585 -1.64188 0
M  V30 24 H -3.12022 0.21594 -2.02473 0
M  V30 25 H -0.766905 -0.526306 -1.92133 0
M  V30 26 H -1.14874 -1.01221 2.28523 0
M  V30 27 H -3.51818 -0.260018 2.14733 0
M  V30 28 H 1.08083 -1.53693 1.13989 0
M  V30 29 H 2.81768 -2.71581 -1.05521 0
M  V30 30 H 7.74741 -0.931617 0.946849 0
M  V30 31 H 7.87782 -1.07114 -0.821327 0
M  V30 32 H 3.73473 2.91011 1.51338 0
M  V30 33 H 4.17208 3.41012 -0.13497 0
M  V30 34 H -5.56516 -0.457484 1.73146 0
M  V30 35 H -5.22321 1.34674 1.83163 0
M  V30 36 H -6.67075 0.795442 0.959296 0
M  V30 END ATOM
M  V30 BEGIN BOND
M  V30 1 1 1 2
M  V30 2 1 2 3
M  V30 3 2 3 4
M  V30 4 1 4 5
M  V30 5 2 5 6
M  V30 6 1 6 7
M  V30 7 2 7 8
M  V30 8 1 6 9
M  V30 9 2 9 10
M  V30 10 1 10 11
M  V30 11 1 11 12
M  V30 12 2 12 13
M  V30 13 1 13 14
M  V30 14 1 14 15
M  V30 15 2 14 16
M  V30 16 1 16 17
M  V30 17 2 17 18
M  V30 18 1 17 19
M  V30 19 1 2 20
M  V30 20 1 8 3
M  V30 21 1 18 12
M  V30 22 1 1 21
M  V30 23 1 1 22
M  V30 24 1 1 23
M  V30 25 1 4 24
M  V30 26 1 5 25
M  V30 27 1 7 26
M  V30 28 1 8 27
M  V30 29 1 9 28
M  V30 30 1 11 29
M  V30 31 1 15 30
M  V30 32 1 15 31
M  V30 33 1 19 32
M  V30 34 1 19 33
M  V30 35 1 20 34
M  V30 36 1 20 35
M  V30 37 1 20 36
M  V30 END BOND
M  V30 END CTAB
M  END
