
     RDKit          3D

  0  0  0  0  0  0  0  0  0  0999 V3000
M  V30 BEGIN CTAB
M  V30 COUNTS 83 83 0 0 0
M  V30 BEGIN ATOM
M  V30 1 N 7.34877 2.21463 -3.77855 0
M  V30 2 C 7.179 3.27805 -2.9154 0
M  V30 3 C 7.38728 2.9606 -1.47441 0
M  V30 4 C 6.43659 1.96575 -0.932653 0
M  V30 5 C 6.41346 0.602755 -1.50322 0
M  V30 6 C 5.38539 -0.212391 -0.709747 0 CFG=1
M  V30 7 C 5.84649 -0.188249 0.71449 0
M  V30 8 O 5.09038 0.201234 1.65673 0
M  V30 9 O 7.13588 -0.60166 1.02191 0
M  V30 10 N 4.0387 0.225818 -0.875268 0
M  V30 11 C 2.97398 -0.676818 -1.27811 0
M  V30 12 O 3.36841 -1.86126 -1.45908 0
M  V30 13 C 1.62059 -0.219017 -1.43872 0
M  V30 14 C 0.444381 -1.03778 -1.13775 0
M  V30 15 C 0.101214 -1.38047 0.240285 0 CFG=2
M  V30 16 C 0.947849 -2.18156 1.09179 0 CFG=2
M  V30 17 O 1.40978 -3.41979 0.706572 0
M  V30 18 C 2.61646 -3.70406 1.35022 0
M  V30 19 C -0.00584385 -2.66466 2.32205 0
M  V30 20 C -0.855259 -3.72438 1.70774 0
M  V30 21 C -1.41412 -3.2785 0.359652 0
M  V30 22 N -1.33591 -1.85157 0.322439 0
M  V30 23 C -2.34691 -0.884452 0.333137 0
M  V30 24 O -1.89199 0.345521 0.17133 0
M  V30 25 C -3.78669 -0.972457 0.490139 0 CFG=1
M  V30 26 N -4.45891 0.307879 0.258908 0
M  V30 27 C -4.88344 1.19433 1.251 0
M  V30 28 O -4.66519 0.871467 2.47163 0
M  V30 29 C -5.56127 2.47106 1.03242 0 CFG=2
M  V30 30 C -4.98551 3.30199 -0.0949272 0
M  V30 31 C -5.79346 4.58926 -0.198429 0
M  V30 32 C -3.54633 3.66843 0.0976951 0
M  V30 33 N -5.72173 3.2517 2.25354 0
M  V30 34 C -4.52107 -2.14519 -0.0467935 0
M  V30 35 C -6.04731 -1.97433 0.191443 0
M  V30 36 C -6.7278 -3.15126 -0.343432 0
M  V30 37 O -6.05055 -4.07948 -0.870849 0
M  V30 38 O -8.12819 -3.21996 -0.257102 0
M  V30 39 H 8.1649 1.69336 -3.73891 0
M  V30 40 H 6.70163 2.01074 -4.47285 0
M  V30 41 H 7.85072 4.14045 -3.23351 0
M  V30 42 H 6.11615 3.65509 -3.03189 0
M  V30 43 H 7.31142 3.94717 -0.908234 0
M  V30 44 H 8.45842 2.66796 -1.28542 0
M  V30 45 H 6.64178 1.88192 0.168289 0
M  V30 46 H 5.36962 2.3654 -0.98895 0
M  V30 47 H 6.07549 0.539707 -2.58051 0
M  V30 48 H 7.38546 0.0967738 -1.44786 0
M  V30 49 H 5.52369 -1.27926 -1.03054 0
M  V30 50 H 7.47785 -0.581889 1.95462 0
M  V30 51 H 3.77332 1.20485 -0.710441 0
M  V30 52 H 1.52184 0.766666 -0.872847 0
M  V30 53 H 1.52833 0.0557645 -2.55944 0
M  V30 54 H 0.520784 -1.98747 -1.79482 0
M  V30 55 H -0.503306 -0.561169 -1.58979 0
M  V30 56 H 0.000129892 -0.309601 0.7494 0
M  V30 57 H 1.72314 -1.63899 1.62947 0
M  V30 58 H 3.3754 -2.96059 1.14373 0
M  V30 59 H 3.03857 -4.68318 0.956978 0
M  V30 60 H 2.47581 -3.92383 2.44271 0
M  V30 61 H 0.723871 -3.0976 3.00279 0
M  V30 62 H -0.48158 -1.80203 2.73537 0
M  V30 63 H -1.68423 -3.96632 2.43154 0
M  V30 64 H -0.271259 -4.65018 1.54568 0
M  V30 65 H -2.33753 -3.75224 0.0712069 0
M  V30 66 H -0.671873 -3.64798 -0.433242 0
M  V30 67 H -3.93819 -1.07708 1.65188 0
M  V30 68 H -4.63794 0.584761 -0.747606 0
M  V30 69 H -6.6202 2.22216 0.715338 0
M  V30 70 H -5.1016 2.77434 -1.04732 0
M  V30 71 H -5.33351 5.42819 0.356801 0
M  V30 72 H -5.8951 4.85635 -1.29351 0
M  V30 73 H -6.85762 4.43409 0.12729 0
M  V30 74 H -3.0516 3.68874 -0.888401 0
M  V30 75 H -2.97108 2.94681 0.721618 0
M  V30 76 H -3.43304 4.71232 0.518832 0
M  V30 77 H -6.41211 3.9941 2.05275 0
M  V30 78 H -4.81338 3.62976 2.6143 0
M  V30 79 H -4.30159 -2.44643 -1.0779 0
M  V30 80 H -4.33443 -3.07958 0.586683 0
M  V30 81 H -6.38648 -1.01335 -0.283225 0
M  V30 82 H -6.17659 -1.86306 1.27147 0
M  V30 83 H -8.56118 -3.99684 -0.746114 0
M  V30 END ATOM
M  V30 BEGIN BOND
M  V30 1 1 1 2
M  V30 2 1 2 3
M  V30 3 1 3 4
M  V30 4 1 4 5
M  V30 5 1 5 6
M  V30 6 1 6 7
M  V30 7 2 7 8
M  V30 8 1 7 9
M  V30 9 1 6 10
M  V30 10 1 10 11
M  V30 11 2 11 12
M  V30 12 1 11 13
M  V30 13 1 13 14
M  V30 14 1 14 15
M  V30 15 1 15 16
M  V30 16 1 16 17
M  V30 17 1 17 18
M  V30 18 1 16 19
M  V30 19 1 19 20
M  V30 20 1 20 21
M  V30 21 1 21 22
M  V30 22 1 22 23
M  V30 23 2 23 24
M  V30 24 1 23 25
M  V30 25 1 25 26
M  V30 26 1 26 27
M  V30 27 2 27 28
M  V30 28 1 27 29
M  V30 29 1 29 30
M  V30 30 1 30 31
M  V30 31 1 30 32
M  V30 32 1 29 33
M  V30 33 1 25 34
M  V30 34 1 34 35
M  V30 35 1 35 36
M  V30 36 2 36 37
M  V30 37 1 36 38
M  V30 38 1 22 15
M  V30 39 1 1 39
M  V30 40 1 1 40
M  V30 41 1 2 41
M  V30 42 1 2 42
M  V30 43 1 3 43
M  V30 44 1 3 44
M  V30 45 1 4 45
M  V30 46 1 4 46
M  V30 47 1 5 47
M  V30 48 1 5 48
M  V30 49 1 6 49 CFG=3
M  V30 50 1 9 50
M  V30 51 1 10 51
M  V30 52 1 13 52
M  V30 53 1 13 53
M  V30 54 1 14 54
M  V30 55 1 14 55
M  V30 56 1 15 56 CFG=1
M  V30 57 1 16 57 CFG=1
M  V30 58 1 18 58
M  V30 59 1 18 59
M  V30 60 1 18 60
M  V30 61 1 19 61
M  V30 62 1 19 62
M  V30 63 1 20 63
M  V30 64 1 20 64
M  V30 65 1 21 65
M  V30 66 1 21 66
M  V30 67 1 25 67 CFG=1
M  V30 68 1 26 68
M  V30 69 1 29 69 CFG=3
M  V30 70 1 30 70
M  V30 71 1 31 71
M  V30 72 1 31 72
M  V30 73 1 31 73
M  V30 74 1 32 74
M  V30 75 1 32 75
M  V30 76 1 32 76
M  V30 77 1 33 77
M  V30 78 1 33 78
M  V30 79 1 34 79
M  V30 80 1 34 80
M  V30 81 1 35 81
M  V30 82 1 35 82
M  V30 83 1 38 83
M  V30 END BOND
M  V30 END CTAB
M  END
