
     RDKit          3D

  0  0  0  0  0  0  0  0  0  0999 V3000
M  V30 BEGIN CTAB
M  V30 COUNTS 22 23 0 0 0
M  V30 BEGIN ATOM
M  V30 1 N -3.47754 -1.92128 -0.31117 0
M  V30 2 C -2.35791 -1.05717 -0.202132 0
M  V30 3 N -2.51249 0.285965 -0.157523 0
M  V30 4 C -1.49476 1.15136 -0.0551406 0
M  V30 5 N -1.64997 2.56381 -0.00773131 0
M  V30 6 C -0.217932 0.63371 0.00789164 0
M  V30 7 C 0.890501 1.44314 0.113973 0
M  V30 8 C 2.15978 0.915198 0.17609 0
M  V30 9 C 2.35535 -0.463379 0.132734 0
M  V30 10 C 1.26349 -1.27876 0.0275031 0
M  V30 11 C -0.00200722 -0.749271 -0.034302 0
M  V30 12 N -1.09772 -1.51918 -0.137927 0
M  V30 13 N 3.68012 -0.959912 0.199784 0 CHG=1
M  V30 14 O 3.87604 -2.31667 0.157344 0 CHG=-1
M  V30 15 O 4.67897 -0.227562 0.295496 0
M  V30 16 H -3.45383 -2.75146 -0.919844 0
M  V30 17 H -4.32935 -1.71243 0.229668 0
M  V30 18 H -1.48203 3.19658 -0.820375 0
M  V30 19 H -1.95483 3.00652 0.906787 0
M  V30 20 H 0.691918 2.51745 0.144702 0
M  V30 21 H 3.02364 1.57889 0.260106 0
M  V30 22 H 1.41054 -2.33552 -0.00593226 0
M  V30 END ATOM
M  V30 BEGIN BOND
M  V30 1 1 1 2
M  V30 2 2 2 3
M  V30 3 1 3 4
M  V30 4 1 4 5
M  V30 5 2 4 6
M  V30 6 1 6 7
M  V30 7 2 7 8
M  V30 8 1 8 9
M  V30 9 2 9 10
M  V30 10 1 10 11
M  V30 11 2 11 12
M  V30 12 1 9 13
M  V30 13 1 13 14
M  V30 14 2 13 15
M  V30 15 1 12 2
M  V30 16 1 11 6
M  V30 17 1 1 16
M  V30 18 1 1 17
M  V30 19 1 5 18
M  V30 20 1 5 19
M  V30 21 1 7 20
M  V30 22 1 8 21
M  V30 23 1 10 22
M  V30 END BOND
M  V30 END CTAB
M  END
