
     RDKit          3D

  0  0  0  0  0  0  0  0  0  0999 V3000
M  V30 BEGIN CTAB
M  V30 COUNTS 29 28 0 0 0
M  V30 BEGIN ATOM
M  V30 1 N -3.3873 -2.02104 0.362996 0
M  V30 2 C -3.19825 -0.796317 -0.386339 0
M  V30 3 C -1.96561 -0.100838 0.246467 0
M  V30 4 C -1.70307 1.1723 -0.473401 0
M  V30 5 S -0.361964 2.17553 0.0273975 0
M  V30 6 C 1.2457 1.75015 -0.49505 0
M  V30 7 C 1.77584 0.451493 -0.0239329 0
M  V30 8 C 3.20772 0.274381 -0.48474 0
M  V30 9 O 3.72219 1.16159 -1.16695 0
M  V30 10 N 3.88843 -0.884651 -0.119616 0
M  V30 11 N 5.21562 -1.04867 -0.548345 0
M  V30 12 F 1.1208 -0.532868 -0.822604 0
M  V30 13 F 1.58126 0.214892 1.27948 0
M  V30 14 C -2.40799 0.27793 1.67888 0
M  V30 15 H -2.44252 -2.36195 0.645681 0
M  V30 16 H -3.99214 -1.8089 1.17902 0
M  V30 17 H -2.98398 -1.06149 -1.42762 0
M  V30 18 H -4.0591 -0.116714 -0.292346 0
M  V30 19 H -1.20263 -0.846693 0.329228 0
M  V30 20 H -1.55759 0.953398 -1.5976 0
M  V30 21 H -2.65312 1.82231 -0.467447 0
M  V30 22 H 1.35813 1.7251 -1.63826 0
M  V30 23 H 1.98953 2.58888 -0.211528 0
M  V30 24 H 3.42446 -1.62208 0.463985 0
M  V30 25 H 5.63494 -0.10578 -0.742387 0
M  V30 26 H 5.30846 -1.6995 -1.33163 0
M  V30 27 H -2.13692 -0.538538 2.34668 0
M  V30 28 H -1.91376 1.22434 1.98457 0
M  V30 29 H -3.50714 0.417021 1.68542 0
M  V30 END ATOM
M  V30 BEGIN BOND
M  V30 1 1 1 2
M  V30 2 1 2 3
M  V30 3 1 3 4
M  V30 4 1 4 5
M  V30 5 1 5 6
M  V30 6 1 6 7
M  V30 7 1 7 8
M  V30 8 2 8 9
M  V30 9 1 8 10
M  V30 10 1 10 11
M  V30 11 1 7 12
M  V30 12 1 7 13
M  V30 13 1 3 14
M  V30 14 1 1 15
M  V30 15 1 1 16
M  V30 16 1 2 17
M  V30 17 1 2 18
M  V30 18 1 3 19
M  V30 19 1 4 20
M  V30 20 1 4 21
M  V30 21 1 6 22
M  V30 22 1 6 23
M  V30 23 1 10 24
M  V30 24 1 11 25
M  V30 25 1 11 26
M  V30 26 1 14 27
M  V30 27 1 14 28
M  V30 28 1 14 29
M  V30 END BOND
M  V30 END CTAB
M  END
