
     RDKit          3D

  0  0  0  0  0  0  0  0  0  0999 V3000
M  V30 BEGIN CTAB
M  V30 COUNTS 37 36 0 0 0
M  V30 BEGIN ATOM
M  V30 1 N 5.50052 1.58026 -0.985183 0
M  V30 2 C 4.46432 1.15391 -0.0843231 0
M  V30 3 C 4.3949 -0.37543 -0.0512106 0
M  V30 4 N 3.36914 -0.833621 0.847375 0
M  V30 5 C 2.04881 -0.490227 0.386941 0
M  V30 6 C 0.944247 -0.995055 1.29625 0
M  V30 7 C -0.402471 -0.58916 0.788884 0
M  V30 8 C -0.732623 -1.11832 -0.595704 0
M  V30 9 C -2.1343 -0.555997 -0.908723 0
M  V30 10 N -3.09411 -1.01285 0.0428691 0
M  V30 11 C -4.35152 -0.329411 -0.150619 0
M  V30 12 C -4.25196 1.13028 0.25645 0
M  V30 13 N -5.5353 1.77494 0.0638219 0
M  V30 14 H 5.86762 2.5271 -0.791208 0
M  V30 15 H 6.28402 0.878226 -0.971337 0
M  V30 16 H 3.49394 1.55161 -0.5161 0
M  V30 17 H 4.58786 1.58923 0.904964 0
M  V30 18 H 4.32342 -0.746344 -1.07352 0
M  V30 19 H 5.39172 -0.692225 0.342681 0
M  V30 20 H 3.56028 -0.468131 1.79272 0
M  V30 21 H 1.98526 0.636709 0.459188 0
M  V30 22 H 1.88407 -0.751432 -0.668834 0
M  V30 23 H 1.00452 -2.09446 1.45223 0
M  V30 24 H 1.09092 -0.514871 2.28549 0
M  V30 25 H -0.545314 0.489395 0.84939 0
M  V30 26 H -1.15267 -1.04708 1.4833 0
M  V30 27 H -0.0588178 -0.753571 -1.37198 0
M  V30 28 H -0.814402 -2.21628 -0.593006 0
M  V30 29 H -2.06157 0.527715 -0.909816 0
M  V30 30 H -2.35439 -0.897315 -1.95845 0
M  V30 31 H -3.25699 -2.03032 -0.169085 0
M  V30 32 H -4.66862 -0.334818 -1.21994 0
M  V30 33 H -5.16409 -0.844929 0.405643 0
M  V30 34 H -3.9396 1.16016 1.33684 0
M  V30 35 H -3.53774 1.679 -0.354848 0
M  V30 36 H -6.219 1.50985 0.804222 0
M  V30 37 H -5.92007 1.50345 -0.851312 0
M  V30 END ATOM
M  V30 BEGIN BOND
M  V30 1 1 1 2
M  V30 2 1 2 3
M  V30 3 1 3 4
M  V30 4 1 4 5
M  V30 5 1 5 6
M  V30 6 1 6 7
M  V30 7 1 7 8
M  V30 8 1 8 9
M  V30 9 1 9 10
M  V30 10 1 10 11
M  V30 11 1 11 12
M  V30 12 1 12 13
M  V30 13 1 1 14
M  V30 14 1 1 15
M  V30 15 1 2 16
M  V30 16 1 2 17
M  V30 17 1 3 18
M  V30 18 1 3 19
M  V30 19 1 4 20
M  V30 20 1 5 21
M  V30 21 1 5 22
M  V30 22 1 6 23
M  V30 23 1 6 24
M  V30 24 1 7 25
M  V30 25 1 7 26
M  V30 26 1 8 27
M  V30 27 1 8 28
M  V30 28 1 9 29
M  V30 29 1 9 30
M  V30 30 1 10 31
M  V30 31 1 11 32
M  V30 32 1 11 33
M  V30 33 1 12 34
M  V30 34 1 12 35
M  V30 35 1 13 36
M  V30 36 1 13 37
M  V30 END BOND
M  V30 END CTAB
M  END
