
     RDKit          3D

  0  0  0  0  0  0  0  0  0  0999 V3000
M  V30 BEGIN CTAB
M  V30 COUNTS 34 35 0 0 0
M  V30 BEGIN ATOM
M  V30 1 N 5.06057 0.199343 -0.842534 0
M  V30 2 C 3.79428 0.520013 -1.42073 0
M  V30 3 C 2.67508 0.0131919 -0.556672 0
M  V30 4 C 3.00016 -0.652389 0.60735 0
M  V30 5 C 1.99056 -1.12959 1.42156 0
M  V30 6 C 0.673444 -0.923136 1.04057 0
M  V30 7 C 0.321784 -0.263124 -0.114189 0
M  V30 8 C 1.35534 0.204995 -0.912191 0
M  V30 9 C -1.09078 -0.0732597 -0.46791 0
M  V30 10 C -1.83451 -1.38392 -0.619381 0
M  V30 11 N -3.08954 -1.09762 -1.26687 0
M  V30 12 C -3.9173 -0.316761 -0.366798 0
M  V30 13 C -3.24779 0.974632 0.0376442 0
M  V30 14 C -1.84569 0.746023 0.556229 0
M  V30 15 N -1.18463 2.02595 0.656632 0
M  V30 16 H 5.54566 -0.594754 -1.28758 0
M  V30 17 H 5.67502 1.02012 -0.655044 0
M  V30 18 H 3.70644 1.61899 -1.56331 0
M  V30 19 H 3.72205 0.0793258 -2.44668 0
M  V30 20 H 4.04747 -0.806609 0.893003 0
M  V30 21 H 2.26237 -1.64882 2.32994 0
M  V30 22 H -0.104305 -1.30165 1.68673 0
M  V30 23 H 1.1398 0.735814 -1.83976 0
M  V30 24 H -1.17571 0.479664 -1.43203 0
M  V30 25 H -2.0623 -1.74478 0.406295 0
M  V30 26 H -1.23601 -2.12531 -1.18598 0
M  V30 27 H -3.59302 -1.99501 -1.43907 0
M  V30 28 H -4.83595 -0.0489414 -0.942536 0
M  V30 29 H -4.156 -0.933332 0.506192 0
M  V30 30 H -3.2311 1.68786 -0.802971 0
M  V30 31 H -3.85055 1.42578 0.846009 0
M  V30 32 H -1.84612 0.241512 1.52535 0
M  V30 33 H -1.90525 2.73535 0.913389 0
M  V30 34 H -0.76347 2.33045 -0.248684 0
M  V30 END ATOM
M  V30 BEGIN BOND
M  V30 1 1 1 2
M  V30 2 1 2 3
M  V30 3 2 3 4
M  V30 4 1 4 5
M  V30 5 2 5 6
M  V30 6 1 6 7
M  V30 7 2 7 8
M  V30 8 1 7 9
M  V30 9 1 9 10
M  V30 10 1 10 11
M  V30 11 1 11 12
M  V30 12 1 12 13
M  V30 13 1 13 14
M  V30 14 1 14 15
M  V30 15 1 8 3
M  V30 16 1 14 9
M  V30 17 1 1 16
M  V30 18 1 1 17
M  V30 19 1 2 18
M  V30 20 1 2 19
M  V30 21 1 4 20
M  V30 22 1 5 21
M  V30 23 1 6 22
M  V30 24 1 8 23
M  V30 25 1 9 24
M  V30 26 1 10 25
M  V30 27 1 10 26
M  V30 28 1 11 27
M  V30 29 1 12 28
M  V30 30 1 12 29
M  V30 31 1 13 30
M  V30 32 1 13 31
M  V30 33 1 14 32
M  V30 34 1 15 33
M  V30 35 1 15 34
M  V30 END BOND
M  V30 END CTAB
M  END
