
     RDKit          3D

  0  0  0  0  0  0  0  0  0  0999 V3000
M  V30 BEGIN CTAB
M  V30 COUNTS 31 32 0 0 0
M  V30 BEGIN ATOM
M  V30 1 C -2.53022 -2.38808 -0.0962036 0
M  V30 2 O -1.62991 -1.38355 -0.527692 0
M  V30 3 C -1.80583 -0.0434761 -0.201852 0
M  V30 4 C -2.89908 0.319776 0.585834 0
M  V30 5 C -3.11796 1.62773 0.936465 0
M  V30 6 C -2.25918 2.61425 0.515564 0
M  V30 7 C -1.18318 2.2865 -0.255263 0
M  V30 8 C -0.964188 0.964721 -0.607132 0
M  V30 9 C 0.198338 0.634937 -1.47349 0
M  V30 10 C 1.29541 -0.0666934 -0.77085 0
M  V30 11 C 1.51966 -1.42814 -0.978709 0
M  V30 12 N 2.51104 -2.05827 -0.352171 0
M  V30 13 C 3.35571 -1.4288 0.514385 0
M  V30 14 N 4.41362 -2.10469 1.17838 0
M  V30 15 N 3.1167 -0.12947 0.689828 0
M  V30 16 C 2.14052 0.578831 0.0988822 0
M  V30 17 N 2.00409 1.98774 0.37082 0
M  V30 18 H -2.3871 -2.69451 0.93591 0
M  V30 19 H -2.39957 -3.26055 -0.804337 0
M  V30 20 H -3.5777 -2.06404 -0.25912 0
M  V30 21 H -3.61377 -0.423078 0.946619 0
M  V30 22 H -3.99032 1.88431 1.55671 0
M  V30 23 H -2.47003 3.65195 0.820996 0
M  V30 24 H -0.552795 3.11266 -0.566335 0
M  V30 25 H -0.159764 -0.0527147 -2.28635 0
M  V30 26 H 0.599154 1.52879 -1.99133 0
M  V30 27 H 0.854738 -1.94487 -1.68784 0
M  V30 28 H 4.92844 -2.84885 0.666487 0
M  V30 29 H 4.6801 -1.87213 2.15477 0
M  V30 30 H 2.19339 2.64358 -0.407494 0
M  V30 31 H 1.72967 2.35614 1.29451 0
M  V30 END ATOM
M  V30 BEGIN BOND
M  V30 1 1 1 2
M  V30 2 1 2 3
M  V30 3 2 3 4
M  V30 4 1 4 5
M  V30 5 2 5 6
M  V30 6 1 6 7
M  V30 7 2 7 8
M  V30 8 1 8 9
M  V30 9 1 9 10
M  V30 10 2 10 11
M  V30 11 1 11 12
M  V30 12 2 12 13
M  V30 13 1 13 14
M  V30 14 1 13 15
M  V30 15 2 15 16
M  V30 16 1 16 17
M  V30 17 1 8 3
M  V30 18 1 16 10
M  V30 19 1 1 18
M  V30 20 1 1 19
M  V30 21 1 1 20
M  V30 22 1 4 21
M  V30 23 1 5 22
M  V30 24 1 6 23
M  V30 25 1 7 24
M  V30 26 1 9 25
M  V30 27 1 9 26
M  V30 28 1 11 27
M  V30 29 1 14 28
M  V30 30 1 14 29
M  V30 31 1 17 30
M  V30 32 1 17 31
M  V30 END BOND
M  V30 END CTAB
M  END
