
     RDKit          3D

  0  0  0  0  0  0  0  0  0  0999 V3000
M  V30 BEGIN CTAB
M  V30 COUNTS 24 25 0 0 0
M  V30 BEGIN ATOM
M  V30 1 N 4.5094 0.197204 1.07288 0
M  V30 2 C 3.28407 0.413386 0.387434 0
M  V30 3 N 2.6523 1.57715 0.143935 0
M  V30 4 N 1.53854 1.34609 -0.523849 0
M  V30 5 N 1.38783 0.0558485 -0.745754 0
M  V30 6 C 2.45482 -0.552315 -0.192678 0
M  V30 7 C 0.275061 -0.590802 -1.45635 0
M  V30 8 C -0.773466 -0.924453 -0.494062 0
M  V30 9 O -0.754778 -2.04045 0.0803777 0
M  V30 10 N -1.83396 -0.0143186 -0.17862 0
M  V30 11 C -1.98296 1.20899 -0.712143 0
M  V30 12 C -3.1042 1.79897 -0.182157 0
M  V30 13 N -3.60393 0.88705 0.673823 0
M  V30 14 C -2.83577 -0.20574 0.673977 0
M  V30 15 N -3.07244 -1.36547 1.46332 0
M  V30 16 H 5.18488 -0.55783 0.835929 0
M  V30 17 H 4.76302 0.824184 1.86413 0
M  V30 18 H 2.64457 -1.60344 -0.192795 0
M  V30 19 H -0.121288 0.156422 -2.19091 0
M  V30 20 H 0.61451 -1.45794 -2.03761 0
M  V30 21 H -1.34946 1.69206 -1.44235 0
M  V30 22 H -3.53636 2.7733 -0.371934 0
M  V30 23 H -4.01297 -1.81482 1.48435 0
M  V30 24 H -2.32742 -1.80307 2.04106 0
M  V30 END ATOM
M  V30 BEGIN BOND
M  V30 1 1 1 2
M  V30 2 1 2 3
M  V30 3 2 3 4
M  V30 4 1 4 5
M  V30 5 1 5 6
M  V30 6 1 5 7
M  V30 7 1 7 8
M  V30 8 2 8 9
M  V30 9 1 8 10
M  V30 10 1 10 11
M  V30 11 2 11 12
M  V30 12 1 12 13
M  V30 13 2 13 14
M  V30 14 1 14 15
M  V30 15 2 6 2
M  V30 16 1 14 10
M  V30 17 1 1 16
M  V30 18 1 1 17
M  V30 19 1 6 18
M  V30 20 1 7 19
M  V30 21 1 7 20
M  V30 22 1 11 21
M  V30 23 1 12 22
M  V30 24 1 15 23
M  V30 25 1 15 24
M  V30 END BOND
M  V30 END CTAB
M  END
