
     RDKit          3D

  0  0  0  0  0  0  0  0  0  0999 V3000
M  V30 BEGIN CTAB
M  V30 COUNTS 37 38 0 0 0
M  V30 BEGIN ATOM
M  V30 1 N 5.64474 1.25207 1.66472 0
M  V30 2 C 4.81942 0.489779 0.789347 0
M  V30 3 N 3.79236 1.12682 0.166759 0
M  V30 4 C 2.96682 0.484128 -0.672231 0
M  V30 5 S 1.66028 1.36494 -1.40874 0
M  V30 6 C 0.464603 0.449344 -2.37741 0
M  V30 7 C -0.404624 -0.427181 -1.59739 0
M  V30 8 O -0.172116 -1.67441 -1.69567 0
M  V30 9 C -1.48913 -0.0842283 -0.732372 0
M  V30 10 C -2.24221 -1.04468 -0.045785 0
M  V30 11 N -1.93574 -2.39516 -0.211877 0
M  V30 12 N -3.25099 -0.690147 0.760127 0
M  V30 13 C -3.9913 -1.74448 1.44366 0
M  V30 14 C -3.58908 0.574554 0.951292 0
M  V30 15 O -4.55651 0.878928 1.72674 0
M  V30 16 N -2.91237 1.5476 0.326296 0
M  V30 17 C -1.89842 1.20631 -0.484743 0
M  V30 18 O -1.30104 2.18918 -1.04519 0
M  V30 19 C -3.27228 2.9323 0.528395 0
M  V30 20 N 3.16715 -0.808094 -0.893405 0
M  V30 21 C 4.17403 -1.50431 -0.303554 0
M  V30 22 O 4.35073 -2.71712 -0.519414 0
M  V30 23 C 5.00522 -0.849088 0.544003 0
M  V30 24 H 6.51367 1.73581 1.38706 0
M  V30 25 H 5.32647 1.31378 2.66577 0
M  V30 26 H -0.107841 1.26881 -2.92294 0
M  V30 27 H 1.05513 -0.127309 -3.15162 0
M  V30 28 H -1.37853 -2.8741 0.53238 0
M  V30 29 H -2.24368 -2.93655 -1.05157 0
M  V30 30 H -4.74316 -1.33581 2.13714 0
M  V30 31 H -3.26312 -2.41363 1.96597 0
M  V30 32 H -4.52513 -2.39152 0.704037 0
M  V30 33 H -3.26509 3.51292 -0.420388 0
M  V30 34 H -2.53092 3.36833 1.25903 0
M  V30 35 H -4.29852 3.02821 0.942638 0
M  V30 36 H 2.58637 -1.38339 -1.53856 0
M  V30 37 H 5.84483 -1.32261 1.06672 0
M  V30 END ATOM
M  V30 BEGIN BOND
M  V30 1 1 1 2
M  V30 2 1 2 3
M  V30 3 2 3 4
M  V30 4 1 4 5
M  V30 5 1 5 6
M  V30 6 1 6 7
M  V30 7 2 7 8
M  V30 8 1 7 9
M  V30 9 2 9 10
M  V30 10 1 10 11
M  V30 11 1 10 12
M  V30 12 1 12 13
M  V30 13 1 12 14
M  V30 14 2 14 15
M  V30 15 1 14 16
M  V30 16 1 16 17
M  V30 17 2 17 18
M  V30 18 1 16 19
M  V30 19 1 4 20
M  V30 20 1 20 21
M  V30 21 2 21 22
M  V30 22 1 21 23
M  V30 23 2 23 2
M  V30 24 1 17 9
M  V30 25 1 1 24
M  V30 26 1 1 25
M  V30 27 1 6 26
M  V30 28 1 6 27
M  V30 29 1 11 28
M  V30 30 1 11 29
M  V30 31 1 13 30
M  V30 32 1 13 31
M  V30 33 1 13 32
M  V30 34 1 19 33
M  V30 35 1 19 34
M  V30 36 1 19 35
M  V30 37 1 20 36
M  V30 38 1 23 37
M  V30 END BOND
M  V30 END CTAB
M  END
