
     RDKit          3D

  0  0  0  0  0  0  0  0  0  0999 V3000
M  V30 BEGIN CTAB
M  V30 COUNTS 41 42 0 0 0
M  V30 BEGIN ATOM
M  V30 1 N 4.50138 1.59621 3.08459 0
M  V30 2 C 3.92144 0.909659 1.98799 0
M  V30 3 C 3.80603 -0.452194 1.99487 0
M  V30 4 C 3.22846 -1.05573 0.871243 0
M  V30 5 C 2.78378 -0.34045 -0.214451 0
M  V30 6 C 2.93258 1.05679 -0.156806 0
M  V30 7 C 3.48999 1.69099 0.919863 0
M  V30 8 N 2.21044 -0.906482 -1.38603 0
M  V30 9 C 0.813434 -0.869213 -1.57472 0
M  V30 10 O 0.372619 -1.30338 -2.67054 0
M  V30 11 C -0.123682 -0.378841 -0.606128 0
M  V30 12 O 0.246953 -0.0117013 0.52152 0
M  V30 13 N -1.53261 -0.296772 -0.905756 0
M  V30 14 C -2.45276 0.116389 0.0743447 0
M  V30 15 O -2.01002 0.421272 1.22943 0
M  V30 16 C -3.88886 0.215059 -0.140042 0
M  V30 17 C -4.44892 -0.0409738 -1.39476 0
M  V30 18 C -5.80862 0.0754111 -1.54939 0
M  V30 19 C -6.6166 0.437387 -0.494376 0
M  V30 20 C -6.09268 0.695794 0.751245 0
M  V30 21 C -4.71918 0.579847 0.914508 0
M  V30 22 N -4.14035 0.818787 2.1864 0
M  V30 23 C 3.07206 -1.55366 -2.33951 0
M  V30 24 O 2.58348 -2.03518 -3.39118 0
M  V30 25 C 4.51703 -1.64418 -2.06855 0
M  V30 26 H 4.0895 1.50003 4.0216 0
M  V30 27 H 5.33916 2.18579 2.9212 0
M  V30 28 H 4.14964 -1.0366 2.8395 0
M  V30 29 H 3.13326 -2.11214 0.85959 0
M  V30 30 H 2.57886 1.61916 -1.0132 0
M  V30 31 H 3.6078 2.76525 0.976608 0
M  V30 32 H -1.81014 -0.574753 -1.8679 0
M  V30 33 H -3.7981 -0.324283 -2.21405 0
M  V30 34 H -6.27924 -0.116643 -2.50604 0
M  V30 35 H -7.6879 0.517573 -0.664106 0
M  V30 36 H -6.69927 0.981889 1.60792 0
M  V30 37 H -3.87896 1.80191 2.42655 0
M  V30 38 H -3.96535 0.0861132 2.87717 0
M  V30 39 H 4.62092 -2.40567 -1.23857 0
M  V30 40 H 4.85719 -0.660799 -1.71922 0
M  V30 41 H 5.09722 -1.95168 -2.95085 0
M  V30 END ATOM
M  V30 BEGIN BOND
M  V30 1 1 1 2
M  V30 2 2 2 3
M  V30 3 1 3 4
M  V30 4 2 4 5
M  V30 5 1 5 6
M  V30 6 2 6 7
M  V30 7 1 5 8
M  V30 8 1 8 9
M  V30 9 2 9 10
M  V30 10 1 9 11
M  V30 11 2 11 12
M  V30 12 1 11 13
M  V30 13 1 13 14
M  V30 14 2 14 15
M  V30 15 1 14 16
M  V30 16 2 16 17
M  V30 17 1 17 18
M  V30 18 2 18 19
M  V30 19 1 19 20
M  V30 20 2 20 21
M  V30 21 1 21 22
M  V30 22 1 8 23
M  V30 23 2 23 24
M  V30 24 1 23 25
M  V30 25 1 7 2
M  V30 26 1 21 16
M  V30 27 1 1 26
M  V30 28 1 1 27
M  V30 29 1 3 28
M  V30 30 1 4 29
M  V30 31 1 6 30
M  V30 32 1 7 31
M  V30 33 1 13 32
M  V30 34 1 17 33
M  V30 35 1 18 34
M  V30 36 1 19 35
M  V30 37 1 20 36
M  V30 38 1 22 37
M  V30 39 1 22 38
M  V30 40 1 25 39
M  V30 41 1 25 40
M  V30 42 1 25 41
M  V30 END BOND
M  V30 END CTAB
M  END
