
     RDKit          3D

  0  0  0  0  0  0  0  0  0  0999 V3000
M  V30 BEGIN CTAB
M  V30 COUNTS 31 32 0 0 0
M  V30 BEGIN ATOM
M  V30 1 C -3.94049 -0.494721 0.907004 0
M  V30 2 C -2.72345 0.168796 0.262546 0
M  V30 3 C -1.77621 0.655355 1.32566 0
M  V30 4 C -0.509467 1.15164 0.70892 0
M  V30 5 C 0.117504 0.0343192 -0.0895992 0
M  V30 6 C -0.78921 -0.378325 -1.23014 0
M  V30 7 C -2.07933 -0.871661 -0.610806 0
M  V30 8 C 1.44402 0.474628 -0.577742 0
M  V30 9 N 1.69181 1.49625 -1.40438 0
M  V30 10 N 2.99005 1.60396 -1.62909 0
M  V30 11 C 3.60909 0.632779 -0.935653 0
M  V30 12 N 2.63659 -0.0573881 -0.290157 0
M  V30 13 N 2.86135 -1.14874 0.540018 0
M  V30 14 N 5.00786 0.354192 -0.868811 0
M  V30 15 H -4.36515 -1.1711 0.126425 0
M  V30 16 H -4.66805 0.241085 1.27165 0
M  V30 17 H -3.53722 -1.16068 1.69601 0
M  V30 18 H -3.06382 1.04242 -0.327147 0
M  V30 19 H -2.23356 1.4862 1.88745 0
M  V30 20 H -1.52969 -0.156313 2.02728 0
M  V30 21 H 0.2036 1.38464 1.54935 0
M  V30 22 H -0.665685 2.05118 0.0703295 0
M  V30 23 H 0.195705 -0.838136 0.585136 0
M  V30 24 H -0.945133 0.403452 -1.97223 0
M  V30 25 H -0.304976 -1.25985 -1.71079 0
M  V30 26 H -2.79818 -1.25523 -1.34487 0
M  V30 27 H -1.79489 -1.72767 0.0616951 0
M  V30 28 H 3.16906 -2.04344 0.110897 0
M  V30 29 H 2.73259 -1.09495 1.55688 0
M  V30 30 H 5.69961 1.0531 -0.518187 0
M  V30 31 H 5.36568 -0.575814 -1.17766 0
M  V30 END ATOM
M  V30 BEGIN BOND
M  V30 1 1 1 2
M  V30 2 1 2 3
M  V30 3 1 3 4
M  V30 4 1 4 5
M  V30 5 1 5 6
M  V30 6 1 6 7
M  V30 7 1 5 8
M  V30 8 2 8 9
M  V30 9 1 9 10
M  V30 10 2 10 11
M  V30 11 1 11 12
M  V30 12 1 12 13
M  V30 13 1 11 14
M  V30 14 1 7 2
M  V30 15 1 12 8
M  V30 16 1 1 15
M  V30 17 1 1 16
M  V30 18 1 1 17
M  V30 19 1 2 18
M  V30 20 1 3 19
M  V30 21 1 3 20
M  V30 22 1 4 21
M  V30 23 1 4 22
M  V30 24 1 5 23
M  V30 25 1 6 24
M  V30 26 1 6 25
M  V30 27 1 7 26
M  V30 28 1 7 27
M  V30 29 1 13 28
M  V30 30 1 13 29
M  V30 31 1 14 30
M  V30 32 1 14 31
M  V30 END BOND
M  V30 END CTAB
M  END
