
     RDKit          3D

  0  0  0  0  0  0  0  0  0  0999 V3000
M  V30 BEGIN CTAB
M  V30 COUNTS 17 17 0 0 0
M  V30 BEGIN ATOM
M  V30 1 N 2.55616 -1.70667 0.131218 0
M  V30 2 C 1.3924 -0.905219 -0.00287328 0
M  V30 3 N 0.154749 -1.41722 -0.127444 0
M  V30 4 C -0.908681 -0.622358 -0.250814 0
M  V30 5 C -2.30179 -1.14405 -0.391764 0
M  V30 6 C -0.748692 0.734957 -0.251791 0
M  V30 7 C 0.511567 1.28097 -0.125271 0
M  V30 8 N 1.54987 0.440126 -0.00396007 0
M  V30 9 N 0.651878 2.69343 -0.129089 0
M  V30 10 Br -2.27682 1.89311 -0.429292 0
M  V30 11 H 2.63777 -2.37727 0.922452 0
M  V30 12 H 3.35298 -1.65783 -0.53744 0
M  V30 13 H -2.33654 -2.21696 -0.572899 0
M  V30 14 H -2.72391 -0.610725 -1.2885 0
M  V30 15 H -2.90394 -0.794164 0.467296 0
M  V30 16 H -0.126323 3.2548 0.280322 0
M  V30 17 H 1.51933 3.15507 -0.535164 0
M  V30 END ATOM
M  V30 BEGIN BOND
M  V30 1 1 1 2
M  V30 2 2 2 3
M  V30 3 1 3 4
M  V30 4 1 4 5
M  V30 5 2 4 6
M  V30 6 1 6 7
M  V30 7 2 7 8
M  V30 8 1 7 9
M  V30 9 1 6 10
M  V30 10 1 8 2
M  V30 11 1 1 11
M  V30 12 1 1 12
M  V30 13 1 5 13
M  V30 14 1 5 14
M  V30 15 1 5 15
M  V30 16 1 9 16
M  V30 17 1 9 17
M  V30 END BOND
M  V30 END CTAB
M  END
