
     RDKit          3D

  0  0  0  0  0  0  0  0  0  0999 V3000
M  V30 BEGIN CTAB
M  V30 COUNTS 26 26 0 0 0
M  V30 BEGIN ATOM
M  V30 1 C 4.47249 -0.923992 0.370203 0
M  V30 2 O 3.26195 -0.189041 0.292617 0
M  V30 3 C 2.08633 -0.908852 0.158089 0
M  V30 4 O 2.09886 -2.15963 0.107575 0
M  V30 5 C 0.797038 -0.23706 0.0708761 0
M  V30 6 C -0.381906 -0.92236 -0.0623998 0
M  V30 7 C -1.58068 -0.248282 -0.141429 0
M  V30 8 O -2.77341 -0.931901 -0.275861 0
M  V30 9 C -2.74109 -2.34211 -0.331086 0
M  V30 10 C -1.67177 1.14125 -0.0922883 0
M  V30 11 C -0.473893 1.82084 0.0424348 0
M  V30 12 C 0.740001 1.13798 0.122451 0
M  V30 13 N -0.502902 3.23465 0.0980886 0
M  V30 14 N -2.92089 1.80256 -0.176294 0
M  V30 15 H 4.59271 -1.29335 1.41424 0
M  V30 16 H 5.34965 -0.291301 0.126429 0
M  V30 17 H 4.37593 -1.79301 -0.313027 0
M  V30 18 H -0.319183 -2.0097 -0.101606 0
M  V30 19 H -3.72829 -2.66647 -0.720576 0
M  V30 20 H -2.55248 -2.75627 0.69315 0
M  V30 21 H -1.98472 -2.73402 -1.03044 0
M  V30 22 H 1.64918 1.70901 0.226956 0
M  V30 23 H -0.886258 3.68586 0.947151 0
M  V30 24 H -0.143878 3.7753 -0.703063 0
M  V30 25 H -3.4598 1.83734 -1.05976 0
M  V30 26 H -3.30298 2.26255 0.669533 0
M  V30 END ATOM
M  V30 BEGIN BOND
M  V30 1 1 1 2
M  V30 2 1 2 3
M  V30 3 2 3 4
M  V30 4 1 3 5
M  V30 5 2 5 6
M  V30 6 1 6 7
M  V30 7 1 7 8
M  V30 8 1 8 9
M  V30 9 2 7 10
M  V30 10 1 10 11
M  V30 11 2 11 12
M  V30 12 1 11 13
M  V30 13 1 10 14
M  V30 14 1 12 5
M  V30 15 1 1 15
M  V30 16 1 1 16
M  V30 17 1 1 17
M  V30 18 1 6 18
M  V30 19 1 9 19
M  V30 20 1 9 20
M  V30 21 1 9 21
M  V30 22 1 12 22
M  V30 23 1 13 23
M  V30 24 1 13 24
M  V30 25 1 14 25
M  V30 26 1 14 26
M  V30 END BOND
M  V30 END CTAB
M  END
