
     RDKit          3D

  0  0  0  0  0  0  0  0  0  0999 V3000
M  V30 BEGIN CTAB
M  V30 COUNTS 34 35 0 0 0
M  V30 BEGIN ATOM
M  V30 1 C -3.60786 -2.15705 -1.44327 0
M  V30 2 O -3.29716 -0.991357 -0.718903 0
M  V30 3 C -1.93252 -0.916766 -0.628223 0
M  V30 4 C -1.53921 0.306352 0.134079 0
M  V30 5 C -2.51587 1.13821 0.610796 0
M  V30 6 C -2.27893 2.29175 1.32492 0
M  V30 7 C -3.39576 3.14215 1.8083 0
M  V30 8 N -0.981103 2.57319 1.54051 0
M  V30 9 C 0.0174724 1.76334 1.078 0
M  V30 10 C -0.183372 0.613731 0.367487 0
M  V30 11 C 0.905396 -0.0715242 -0.0156438 0
M  V30 12 N 0.85931 -1.31413 -0.778264 0
M  V30 13 C 2.12844 0.42257 0.327726 0
M  V30 14 S 1.71434 1.85932 1.19346 0
M  V30 15 C 3.48303 -0.0970037 0.0553722 0
M  V30 16 N 4.51951 0.541879 0.480508 0
M  V30 17 N 5.79949 0.0767404 0.238934 0
M  V30 18 C 3.63721 -1.34107 -0.699368 0
M  V30 19 H -3.17616 -2.99994 -0.853374 0
M  V30 20 H -4.71549 -2.23367 -1.45764 0
M  V30 21 H -3.18033 -2.10652 -2.47266 0
M  V30 22 H -1.53086 -0.853071 -1.6617 0
M  V30 23 H -1.58593 -1.85033 -0.11077 0
M  V30 24 H -3.55041 0.874728 0.414991 0
M  V30 25 H -3.20738 4.22036 1.62917 0
M  V30 26 H -3.51443 2.92603 2.90143 0
M  V30 27 H -4.3164 2.88046 1.28786 0
M  V30 28 H 0.863386 -1.18725 -1.82183 0
M  V30 29 H 0.823286 -2.23391 -0.334055 0
M  V30 30 H 6.48271 0.702526 -0.256787 0
M  V30 31 H 6.12247 -0.878545 0.529588 0
M  V30 32 H 3.24532 -1.29685 -1.74294 0
M  V30 33 H 4.71213 -1.63372 -0.820177 0
M  V30 34 H 3.19568 -2.17062 -0.10753 0
M  V30 END ATOM
M  V30 BEGIN BOND
M  V30 1 1 1 2
M  V30 2 1 2 3
M  V30 3 1 3 4
M  V30 4 2 4 5
M  V30 5 1 5 6
M  V30 6 1 6 7
M  V30 7 2 6 8
M  V30 8 1 8 9
M  V30 9 2 9 10
M  V30 10 1 10 11
M  V30 11 1 11 12
M  V30 12 2 11 13
M  V30 13 1 13 14
M  V30 14 1 13 15
M  V30 15 2 15 16
M  V30 16 1 16 17
M  V30 17 1 15 18
M  V30 18 1 10 4
M  V30 19 1 14 9
M  V30 20 1 1 19
M  V30 21 1 1 20
M  V30 22 1 1 21
M  V30 23 1 3 22
M  V30 24 1 3 23
M  V30 25 1 5 24
M  V30 26 1 7 25
M  V30 27 1 7 26
M  V30 28 1 7 27
M  V30 29 1 12 28
M  V30 30 1 12 29
M  V30 31 1 17 30
M  V30 32 1 17 31
M  V30 33 1 18 32
M  V30 34 1 18 33
M  V30 35 1 18 34
M  V30 END BOND
M  V30 END CTAB
M  END
