
     RDKit          3D

  0  0  0  0  0  0  0  0  0  0999 V3000
M  V30 BEGIN CTAB
M  V30 COUNTS 50 51 0 0 0
M  V30 BEGIN ATOM
M  V30 1 C 6.18815 -0.271199 0.893003 0
M  V30 2 N 6.01546 0.936112 0.146284 0
M  V30 3 S 4.48716 1.6737 0.322087 0
M  V30 4 O 4.20345 2.07565 1.74309 0
M  V30 5 O 4.44792 2.91197 -0.511982 0
M  V30 6 C 3.21679 0.601374 -0.248446 0
M  V30 7 C 2.84368 0.659468 -1.57375 0
M  V30 8 C 1.86073 -0.169739 -2.01642 0
M  V30 9 C 1.24714 -1.04992 -1.16714 0
M  V30 10 C 1.57732 -1.15659 0.182799 0
M  V30 11 C 2.59431 -0.284217 0.592998 0
M  V30 12 S 0.914207 -2.23242 1.3444 0
M  V30 13 S -0.447626 -0.999311 2.38079 0
M  V30 14 C -1.92352 -1.25285 1.54477 0
M  V30 15 C -2.32452 -0.403381 0.531889 0
M  V30 16 C -3.48688 -0.543239 -0.177507 0
M  V30 17 C -4.29977 -1.61658 0.161116 0
M  V30 18 C -3.94192 -2.49585 1.16872 0
M  V30 19 C -2.76512 -2.32998 1.86615 0
M  V30 20 N -2.38483 -3.22068 2.89973 0
M  V30 21 S -3.94722 0.571446 -1.45974 0
M  V30 22 O -4.7245 -0.122167 -2.52831 0
M  V30 23 O -2.69465 1.12419 -2.11358 0
M  V30 24 N -4.86738 1.88426 -0.877942 0
M  V30 25 C -4.17415 2.70001 0.0732687 0
M  V30 26 C -6.13546 1.39102 -0.400804 0
M  V30 27 N 0.233312 -1.94804 -1.64638 0
M  V30 28 C 7.10699 1.85482 0.22288 0
M  V30 29 H 6.39571 -1.09066 0.159353 0
M  V30 30 H 7.07545 -0.203714 1.587 0
M  V30 31 H 5.29348 -0.514945 1.46432 0
M  V30 32 H 3.34466 1.37475 -2.2567 0
M  V30 33 H 1.5531 -0.142671 -3.04415 0
M  V30 34 H 2.91252 -0.309502 1.65016 0
M  V30 35 H -1.69327 0.452385 0.249839 0
M  V30 36 H -5.22364 -1.75674 -0.377931 0
M  V30 37 H -4.56691 -3.33591 1.44177 0
M  V30 38 H -1.87664 -4.10653 2.71888 0
M  V30 39 H -2.62577 -2.97431 3.87698 0
M  V30 40 H -3.53416 2.05901 0.694469 0
M  V30 41 H -4.86402 3.24732 0.745635 0
M  V30 42 H -3.57408 3.45235 -0.476294 0
M  V30 43 H -6.47535 0.623296 -1.14094 0
M  V30 44 H -5.95613 0.884397 0.567494 0
M  V30 45 H -6.88409 2.20487 -0.338199 0
M  V30 46 H -0.359444 -1.67044 -2.44808 0
M  V30 47 H 0.0637714 -2.88324 -1.21652 0
M  V30 48 H 7.24957 2.30703 -0.79362 0
M  V30 49 H 6.86575 2.68996 0.926261 0
M  V30 50 H 8.06044 1.40544 0.518294 0
M  V30 END ATOM
M  V30 BEGIN BOND
M  V30 1 1 1 2
M  V30 2 1 2 3
M  V30 3 2 3 4
M  V30 4 2 3 5
M  V30 5 1 3 6
M  V30 6 2 6 7
M  V30 7 1 7 8
M  V30 8 2 8 9
M  V30 9 1 9 10
M  V30 10 2 10 11
M  V30 11 1 10 12
M  V30 12 1 12 13
M  V30 13 1 13 14
M  V30 14 2 14 15
M  V30 15 1 15 16
M  V30 16 2 16 17
M  V30 17 1 17 18
M  V30 18 2 18 19
M  V30 19 1 19 20
M  V30 20 1 16 21
M  V30 21 2 21 22
M  V30 22 2 21 23
M  V30 23 1 21 24
M  V30 24 1 24 25
M  V30 25 1 24 26
M  V30 26 1 9 27
M  V30 27 1 2 28
M  V30 28 1 11 6
M  V30 29 1 19 14
M  V30 30 1 1 29
M  V30 31 1 1 30
M  V30 32 1 1 31
M  V30 33 1 7 32
M  V30 34 1 8 33
M  V30 35 1 11 34
M  V30 36 1 15 35
M  V30 37 1 17 36
M  V30 38 1 18 37
M  V30 39 1 20 38
M  V30 40 1 20 39
M  V30 41 1 25 40
M  V30 42 1 25 41
M  V30 43 1 25 42
M  V30 44 1 26 43
M  V30 45 1 26 44
M  V30 46 1 26 45
M  V30 47 1 27 46
M  V30 48 1 27 47
M  V30 49 1 28 48
M  V30 50 1 28 49
M  V30 51 1 28 50
M  V30 END BOND
M  V30 END CTAB
M  END
