
     RDKit          3D

  0  0  0  0  0  0  0  0  0  0999 V3000
M  V30 BEGIN CTAB
M  V30 COUNTS 47 49 0 0 0
M  V30 BEGIN ATOM
M  V30 1 N 6.47784 -2.01376 -0.429392 0
M  V30 2 C 5.13985 -1.95414 0.0824125 0
M  V30 3 C 4.80835 -0.669865 0.843132 0
M  V30 4 C 4.40248 -0.0802296 -0.506847 0
M  V30 5 C 4.16814 -1.49247 -0.982715 0
M  V30 6 C 3.20172 0.782019 -0.44145 0
M  V30 7 C 2.02513 0.321066 0.0963211 0
M  V30 8 C 0.897007 1.14394 0.152012 0
M  V30 9 N -0.300756 0.622841 0.711511 0
M  V30 10 C -1.46641 1.47837 0.76787 0
M  V30 11 C -2.63968 0.746812 1.36228 0
M  V30 12 N -3.01363 -0.421167 0.610039 0
M  V30 13 C -3.566 -0.110131 -0.686279 0
M  V30 14 C -4.49395 -1.16456 -1.20254 0
M  V30 15 C -5.74832 -1.12391 -0.324315 0
M  V30 16 C -5.30234 -0.913732 1.08258 0
M  V30 17 C -3.8589 -1.32284 1.31945 0
M  V30 18 N 1.01709 2.37035 -0.33125 0
M  V30 19 C 2.15967 2.85569 -0.867044 0
M  V30 20 N 3.24816 2.05705 -0.919567 0
M  V30 21 N 2.20224 4.18695 -1.36503 0
M  V30 22 H 6.49285 -2.14066 -1.46431 0
M  V30 23 H 7.02224 -1.18152 -0.116331 0
M  V30 24 H 4.76916 -2.84286 0.601943 0
M  V30 25 H 5.69419 -0.183128 1.29602 0
M  V30 26 H 3.91996 -0.760175 1.4818 0
M  V30 27 H 5.27969 0.379607 -1.00702 0
M  V30 28 H 4.49979 -1.67341 -2.02645 0
M  V30 29 H 3.13961 -1.83101 -0.754828 0
M  V30 30 H 1.97938 -0.683093 0.476065 0
M  V30 31 H -0.384381 -0.343143 1.08317 0
M  V30 32 H -1.25085 2.35242 1.41173 0
M  V30 33 H -1.67717 1.87505 -0.245187 0
M  V30 34 H -2.39218 0.464794 2.38977 0
M  V30 35 H -3.51674 1.42481 1.38223 0
M  V30 36 H -2.78663 0.204213 -1.42122 0
M  V30 37 H -4.19437 0.818671 -0.53733 0
M  V30 38 H -4.11777 -2.18475 -1.16347 0
M  V30 39 H -4.75948 -0.889737 -2.24658 0
M  V30 40 H -6.26452 -2.086 -0.475283 0
M  V30 41 H -6.3921 -0.324556 -0.718572 0
M  V30 42 H -5.93265 -1.53545 1.74964 0
M  V30 43 H -5.46194 0.131584 1.37086 0
M  V30 44 H -3.73869 -2.35736 0.943475 0
M  V30 45 H -3.71941 -1.32502 2.41533 0
M  V30 46 H 1.72373 4.45325 -2.25473 0
M  V30 47 H 2.7106 4.93919 -0.86034 0
M  V30 END ATOM
M  V30 BEGIN BOND
M  V30 1 1 1 2
M  V30 2 1 2 3
M  V30 3 1 3 4
M  V30 4 1 4 5
M  V30 5 1 4 6
M  V30 6 2 6 7
M  V30 7 1 7 8
M  V30 8 1 8 9
M  V30 9 1 9 10
M  V30 10 1 10 11
M  V30 11 1 11 12
M  V30 12 1 12 13
M  V30 13 1 13 14
M  V30 14 1 14 15
M  V30 15 1 15 16
M  V30 16 1 16 17
M  V30 17 2 8 18
M  V30 18 1 18 19
M  V30 19 2 19 20
M  V30 20 1 19 21
M  V30 21 1 5 2
M  V30 22 1 20 6
M  V30 23 1 17 12
M  V30 24 1 1 22
M  V30 25 1 1 23
M  V30 26 1 2 24
M  V30 27 1 3 25
M  V30 28 1 3 26
M  V30 29 1 4 27
M  V30 30 1 5 28
M  V30 31 1 5 29
M  V30 32 1 7 30
M  V30 33 1 9 31
M  V30 34 1 10 32
M  V30 35 1 10 33
M  V30 36 1 11 34
M  V30 37 1 11 35
M  V30 38 1 13 36
M  V30 39 1 13 37
M  V30 40 1 14 38
M  V30 41 1 14 39
M  V30 42 1 15 40
M  V30 43 1 15 41
M  V30 44 1 16 42
M  V30 45 1 16 43
M  V30 46 1 17 44
M  V30 47 1 17 45
M  V30 48 1 21 46
M  V30 49 1 21 47
M  V30 END BOND
M  V30 END CTAB
M  END
