
     RDKit          3D

  0  0  0  0  0  0  0  0  0  0999 V3000
M  V30 BEGIN CTAB
M  V30 COUNTS 63 67 0 0 0
M  V30 BEGIN ATOM
M  V30 1 C 2.32848 5.64657 1.1566 0
M  V30 2 O 2.01416 4.27862 1.31542 0
M  V30 3 C 1.2571 3.64823 0.366697 0
M  V30 4 C 0.805762 4.34765 -0.736098 0
M  V30 5 C 0.0493601 3.71786 -1.68411 0
M  V30 6 C -0.246858 2.38469 -1.51227 0
M  V30 7 C 0.170759 1.63598 -0.440674 0
M  V30 8 C 0.930679 2.29207 0.499405 0
M  V30 9 C -0.198663 0.183607 -0.355618 0
M  V30 10 C 0.90152 -0.682948 0.0384673 0
M  V30 11 C 0.966259 -1.7172 0.907993 0
M  V30 12 C -0.063622 -2.32758 1.74257 0
M  V30 13 N 2.24297 -2.17982 0.900995 0
M  V30 14 N 2.98944 -1.49282 0.071942 0
M  V30 15 C 2.21601 -0.576336 -0.471747 0
M  V30 16 N 2.61598 0.386066 -1.43702 0
M  V30 17 C 4.36595 -1.75451 -0.140717 0
M  V30 18 C 5.22007 -1.90176 0.931302 0
M  V30 19 C 6.56887 -2.15778 0.777204 0
M  V30 20 C 7.06989 -2.26847 -0.506341 0
M  V30 21 C 6.22079 -2.12222 -1.58377 0
M  V30 22 C 4.87267 -1.86633 -1.42993 0
M  V30 23 C -1.53966 -0.048081 0.102112 0
M  V30 24 C -2.10122 0.338917 1.29679 0
M  V30 25 C -1.55798 1.09166 2.43842 0
M  V30 26 N -3.40396 -0.0861115 1.31335 0
M  V30 27 N -3.69373 -0.716907 0.198483 0
M  V30 28 C -2.59923 -0.713958 -0.553375 0
M  V30 29 N -2.44611 -1.28301 -1.84379 0
M  V30 30 C -4.97172 -1.27439 -0.0786424 0
M  V30 31 C -5.65617 -1.91454 0.950586 0
M  V30 32 C -6.90181 -2.48299 0.766247 0
M  V30 33 C -7.47958 -2.40615 -0.49351 0
M  V30 34 C -6.79216 -1.77242 -1.49542 0
M  V30 35 C -5.55916 -1.21182 -1.30577 0
M  V30 36 H 1.39712 6.251 1.23714 0
M  V30 37 H 3.01841 5.91948 1.99169 0
M  V30 38 H 2.82961 5.84259 0.174208 0
M  V30 39 H 1.07984 5.40946 -0.809018 0
M  V30 40 H -0.315631 4.23559 -2.55223 0
M  V30 41 H -0.846326 1.90451 -2.27231 0
M  V30 42 H 1.28877 1.74598 1.35705 0
M  V30 43 H -0.259601 -0.0663972 -1.50895 0
M  V30 44 H 0.296194 -3.32629 2.16015 0
M  V30 45 H -1.00247 -2.60315 1.24626 0
M  V30 46 H -0.270199 -1.7557 2.69646 0
M  V30 47 H 2.12163 0.476319 -2.36297 0
M  V30 48 H 3.43244 1.00022 -1.1715 0
M  V30 49 H 4.87226 -1.82297 1.97271 0
M  V30 50 H 7.23376 -2.27201 1.64329 0
M  V30 51 H 8.1307 -2.47058 -0.685799 0
M  V30 52 H 6.58036 -2.20312 -2.6193 0
M  V30 53 H 4.21505 -1.75325 -2.27864 0
M  V30 54 H -2.15382 0.87743 3.37984 0
M  V30 55 H -1.58903 2.17483 2.35001 0
M  V30 56 H -0.547842 0.672259 2.71682 0
M  V30 57 H -2.30181 -0.70802 -2.69367 0
M  V30 58 H -2.47991 -2.31306 -1.93957 0
M  V30 59 H -5.21552 -1.98342 1.94684 0
M  V30 60 H -7.42842 -2.97998 1.57349 0
M  V30 61 H -8.45525 -2.84781 -0.650281 0
M  V30 62 H -7.21483 -1.69248 -2.499 0
M  V30 63 H -5.01059 -0.705208 -2.10851 0
M  V30 END ATOM
M  V30 BEGIN BOND
M  V30 1 1 1 2
M  V30 2 1 2 3
M  V30 3 2 3 4
M  V30 4 1 4 5
M  V30 5 2 5 6
M  V30 6 1 6 7
M  V30 7 2 7 8
M  V30 8 1 7 9
M  V30 9 1 9 10
M  V30 10 1 10 11
M  V30 11 1 11 12
M  V30 12 2 11 13
M  V30 13 1 13 14
M  V30 14 1 14 15
M  V30 15 1 15 16
M  V30 16 1 14 17
M  V30 17 2 17 18
M  V30 18 1 18 19
M  V30 19 2 19 20
M  V30 20 1 20 21
M  V30 21 2 21 22
M  V30 22 1 9 23
M  V30 23 1 23 24
M  V30 24 1 24 25
M  V30 25 2 24 26
M  V30 26 1 26 27
M  V30 27 1 27 28
M  V30 28 1 28 29
M  V30 29 1 27 30
M  V30 30 2 30 31
M  V30 31 1 31 32
M  V30 32 2 32 33
M  V30 33 1 33 34
M  V30 34 2 34 35
M  V30 35 1 8 3
M  V30 36 2 15 10
M  V30 37 1 22 17
M  V30 38 2 28 23
M  V30 39 1 35 30
M  V30 40 1 1 36
M  V30 41 1 1 37
M  V30 42 1 1 38
M  V30 43 1 4 39
M  V30 44 1 5 40
M  V30 45 1 6 41
M  V30 46 1 8 42
M  V30 47 1 9 43
M  V30 48 1 12 44
M  V30 49 1 12 45
M  V30 50 1 12 46
M  V30 51 1 16 47
M  V30 52 1 16 48
M  V30 53 1 18 49
M  V30 54 1 19 50
M  V30 55 1 20 51
M  V30 56 1 21 52
M  V30 57 1 22 53
M  V30 58 1 25 54
M  V30 59 1 25 55
M  V30 60 1 25 56
M  V30 61 1 29 57
M  V30 62 1 29 58
M  V30 63 1 31 59
M  V30 64 1 32 60
M  V30 65 1 33 61
M  V30 66 1 34 62
M  V30 67 1 35 63
M  V30 END BOND
M  V30 END CTAB
M  END
