
     RDKit          3D

  0  0  0  0  0  0  0  0  0  0999 V3000
M  V30 BEGIN CTAB
M  V30 COUNTS 17 17 0 0 0
M  V30 BEGIN ATOM
M  V30 1 F -3.12205 -0.521247 -0.837096 0
M  V30 2 C -2.22378 -0.586721 0.208149 0
M  V30 3 C -1.03702 0.267295 -0.00373671 0
M  V30 4 N -1.15862 1.60075 -0.23786 0
M  V30 5 C -0.0933775 2.39958 -0.433847 0
M  V30 6 N 1.11739 1.81432 -0.387767 0
M  V30 7 C 1.31983 0.504714 -0.161898 0
M  V30 8 C 0.217281 -0.305188 0.0379102 0
M  V30 9 N 0.384611 -1.6923 0.279454 0
M  V30 10 N 2.60066 -0.0897605 -0.117601 0
M  V30 11 F -2.92635 -0.156857 1.34108 0
M  V30 12 H -1.92179 -1.63154 0.3815 0
M  V30 13 H -0.196073 3.46469 -0.620581 0
M  V30 14 H -0.0768674 -2.17813 1.07671 0
M  V30 15 H 0.988766 -2.30469 -0.34054 0
M  V30 16 H 3.31727 0.33583 0.505474 0
M  V30 17 H 2.81013 -0.920744 -0.689354 0
M  V30 END ATOM
M  V30 BEGIN BOND
M  V30 1 1 1 2
M  V30 2 1 2 3
M  V30 3 2 3 4
M  V30 4 1 4 5
M  V30 5 2 5 6
M  V30 6 1 6 7
M  V30 7 2 7 8
M  V30 8 1 8 9
M  V30 9 1 7 10
M  V30 10 1 2 11
M  V30 11 1 8 3
M  V30 12 1 2 12
M  V30 13 1 5 13
M  V30 14 1 9 14
M  V30 15 1 9 15
M  V30 16 1 10 16
M  V30 17 1 10 17
M  V30 END BOND
M  V30 END CTAB
M  END
