
     RDKit          3D

  0  0  0  0  0  0  0  0  0  0999 V3000
M  V30 BEGIN CTAB
M  V30 COUNTS 26 26 0 0 0
M  V30 BEGIN ATOM
M  V30 1 C -4.04106 -1.50143 0.155993 0
M  V30 2 O -3.03204 -0.866396 -0.65287 0
M  V30 3 C -2.33121 0.205122 -0.066103 0
M  V30 4 O -2.62904 0.529816 1.08319 0
M  V30 5 C -1.25225 0.917016 -0.813138 0
M  V30 6 C 0.0996154 0.619955 -0.292004 0
M  V30 7 C 0.772127 -0.444682 -0.913435 0
M  V30 8 C 2.00027 -0.822271 -0.439721 0
M  V30 9 C 2.76026 -1.92127 -1.03153 0
M  V30 10 N 3.34489 -2.80649 -1.50865 0
M  V30 11 C 2.55343 -0.14917 0.639125 0
M  V30 12 C 1.91377 0.887674 1.25437 0
M  V30 13 C 0.647302 1.28264 0.770871 0
M  V30 14 N 0.0398938 2.41435 1.41268 0
M  V30 15 N 3.82923 -0.578225 1.09475 0
M  V30 16 H -4.78392 -1.99189 -0.498794 0
M  V30 17 H -4.56859 -0.765673 0.78079 0
M  V30 18 H -3.60849 -2.27997 0.789925 0
M  V30 19 H -1.26589 0.56167 -1.88266 0
M  V30 20 H -1.50594 1.97167 -0.842137 0
M  V30 21 H 0.329055 -0.953544 -1.74963 0
M  V30 22 H 2.35796 1.38841 2.08382 0
M  V30 23 H 0.643383 3.30766 1.46923 0
M  V30 24 H -0.879189 2.46561 1.82134 0
M  V30 25 H 4.05513 -0.485756 2.09732 0
M  V30 26 H 4.5513 -0.984824 0.476831 0
M  V30 END ATOM
M  V30 BEGIN BOND
M  V30 1 1 1 2
M  V30 2 1 2 3
M  V30 3 2 3 4
M  V30 4 1 3 5
M  V30 5 1 5 6
M  V30 6 2 6 7
M  V30 7 1 7 8
M  V30 8 1 8 9
M  V30 9 3 9 10
M  V30 10 2 8 11
M  V30 11 1 11 12
M  V30 12 2 12 13
M  V30 13 1 13 14
M  V30 14 1 11 15
M  V30 15 1 13 6
M  V30 16 1 1 16
M  V30 17 1 1 17
M  V30 18 1 1 18
M  V30 19 1 5 19
M  V30 20 1 5 20
M  V30 21 1 7 21
M  V30 22 1 12 22
M  V30 23 1 14 23
M  V30 24 1 14 24
M  V30 25 1 15 25
M  V30 26 1 15 26
M  V30 END BOND
M  V30 END CTAB
M  END
