
     RDKit          3D

  0  0  0  0  0  0  0  0  0  0999 V3000
M  V30 BEGIN CTAB
M  V30 COUNTS 74 75 0 0 0
M  V30 BEGIN ATOM
M  V30 1 N 8.48385 0.0467974 -0.757272 0
M  V30 2 C 7.5892 -0.943383 -1.26725 0
M  V30 3 C 6.17283 -0.752692 -0.629097 0
M  V30 4 C 5.26478 -1.7886 -1.16974 0
M  V30 5 C 3.87837 -1.88606 -0.675823 0
M  V30 6 C 3.01603 -0.674145 -0.874685 0 CFG=1
M  V30 7 C 1.63876 -0.96701 -0.381187 0
M  V30 8 O 1.19835 -2.08786 -0.845648 0
M  V30 9 N 0.804106 -0.242637 0.462966 0
M  V30 10 C 1.21223 1.01331 1.01096 0
M  V30 11 C 0.144861 1.71055 1.83543 0
M  V30 12 C 0.679536 3.00521 2.42527 0
M  V30 13 C -0.344308 4.11063 2.2727 0
M  V30 14 O -1.64599 3.59005 2.19999 0
M  V30 15 C -2.36351 4.21433 1.16415 0
M  V30 16 C -3.59607 3.43775 0.813267 0 CFG=2
M  V30 17 C -3.48815 2.74426 -0.520725 0 CFG=1
M  V30 18 C -4.05085 1.3628 -0.484994 0 CFG=2
M  V30 19 C -3.55005 0.483055 0.602957 0
M  V30 20 N -2.86548 -0.740844 0.0587246 0
M  V30 21 C -1.51221 -0.548588 -0.343987 0
M  V30 22 C -0.506349 -0.832037 0.765398 0
M  V30 23 C -3.65235 -1.86744 0.0153384 0
M  V30 24 O -4.8943 -1.63954 0.468963 0
M  V30 25 C -3.48183 -3.22659 -0.393703 0
M  V30 26 C -4.54569 -4.14168 -0.340659 0
M  V30 27 C -4.44943 -5.44844 -0.708725 0
M  V30 28 C -3.26927 -5.94625 -1.16313 0
M  V30 29 C -2.19396 -5.09848 -1.23678 0
M  V30 30 C -2.31558 -3.74728 -0.849895 0
M  V30 31 F -3.15184 -7.26128 -1.53932 0
M  V30 32 O -3.91282 0.803303 -1.75467 0
M  V30 33 O -4.18032 3.45882 -1.50169 0
M  V30 34 O -4.67055 4.34459 0.718461 0
M  V30 35 N 3.59683 0.45795 -0.264728 0
M  V30 36 H 8.02137 0.516882 0.0574997 0
M  V30 37 H 8.76662 0.742692 -1.46935 0
M  V30 38 H 7.473 -0.862544 -2.35788 0
M  V30 39 H 7.9638 -1.9552 -1.00938 0
M  V30 40 H 6.32216 -0.794154 0.456895 0
M  V30 41 H 5.89778 0.306516 -0.88116 0
M  V30 42 H 5.79319 -2.78663 -0.960714 0
M  V30 43 H 5.23508 -1.73635 -2.31424 0
M  V30 44 H 3.3497 -2.74315 -1.18165 0
M  V30 45 H 3.84568 -2.07474 0.452221 0
M  V30 46 H 2.94915 -0.462746 -1.98584 0
M  V30 47 H 2.08995 0.976129 1.68454 0
M  V30 48 H 1.484 1.68999 0.164424 0
M  V30 49 H -0.66459 2.0009 1.1425 0
M  V30 50 H -0.262298 1.13338 2.65179 0
M  V30 51 H 1.65213 3.29193 1.97505 0
M  V30 52 H 0.888482 2.87307 3.52338 0
M  V30 53 H -0.21324 4.80458 3.11157 0
M  V30 54 H -0.162535 4.63961 1.29395 0
M  V30 55 H -1.65553 4.29471 0.299647 0
M  V30 56 H -2.61434 5.26883 1.44234 0
M  V30 57 H -3.85797 2.73103 1.6263 0
M  V30 58 H -2.42442 2.69234 -0.819843 0
M  V30 59 H -5.16579 1.48009 -0.340685 0
M  V30 60 H -4.36358 0.170332 1.3059 0
M  V30 61 H -2.82564 1.02649 1.22498 0
M  V30 62 H -1.23687 -1.07005 -1.26685 0
M  V30 63 H -1.35582 0.554039 -0.650258 0
M  V30 64 H -0.376129 -1.93186 0.796781 0
M  V30 65 H -0.890894 -0.549608 1.7522 0
M  V30 66 H -5.50851 -3.78851 0.0154716 0
M  V30 67 H -5.30898 -6.13673 -0.652515 0
M  V30 68 H -1.2601 -5.50052 -1.5987 0
M  V30 69 H -1.40903 -3.20103 -0.948232 0
M  V30 70 H -3.10024 1.12243 -2.22356 0
M  V30 71 H -4.42683 2.82694 -2.22396 0
M  V30 72 H -5.49905 3.86476 0.987889 0
M  V30 73 H 4.08649 0.339817 0.618548 0
M  V30 74 H 3.72499 1.3038 -0.809917 0
M  V30 END ATOM
M  V30 BEGIN BOND
M  V30 1 1 1 2
M  V30 2 1 2 3
M  V30 3 1 3 4
M  V30 4 1 4 5
M  V30 5 1 5 6
M  V30 6 1 6 7
M  V30 7 2 7 8
M  V30 8 1 7 9
M  V30 9 1 9 10
M  V30 10 1 10 11
M  V30 11 1 11 12
M  V30 12 1 12 13
M  V30 13 1 13 14
M  V30 14 1 14 15
M  V30 15 1 15 16
M  V30 16 1 16 17
M  V30 17 1 17 18
M  V30 18 1 18 19
M  V30 19 1 19 20
M  V30 20 1 20 21
M  V30 21 1 21 22
M  V30 22 1 20 23
M  V30 23 2 23 24
M  V30 24 1 23 25
M  V30 25 2 25 26
M  V30 26 1 26 27
M  V30 27 2 27 28
M  V30 28 1 28 29
M  V30 29 2 29 30
M  V30 30 1 28 31
M  V30 31 1 18 32
M  V30 32 1 17 33
M  V30 33 1 16 34
M  V30 34 1 6 35
M  V30 35 1 22 9
M  V30 36 1 30 25
M  V30 37 1 1 36
M  V30 38 1 1 37
M  V30 39 1 2 38
M  V30 40 1 2 39
M  V30 41 1 3 40
M  V30 42 1 3 41
M  V30 43 1 4 42
M  V30 44 1 4 43
M  V30 45 1 5 44
M  V30 46 1 5 45
M  V30 47 1 6 46 CFG=3
M  V30 48 1 10 47
M  V30 49 1 10 48
M  V30 50 1 11 49
M  V30 51 1 11 50
M  V30 52 1 12 51
M  V30 53 1 12 52
M  V30 54 1 13 53
M  V30 55 1 13 54
M  V30 56 1 15 55
M  V30 57 1 15 56
M  V30 58 1 16 57 CFG=1
M  V30 59 1 17 58 CFG=3
M  V30 60 1 18 59 CFG=1
M  V30 61 1 19 60
M  V30 62 1 19 61
M  V30 63 1 21 62
M  V30 64 1 21 63
M  V30 65 1 22 64
M  V30 66 1 22 65
M  V30 67 1 26 66
M  V30 68 1 27 67
M  V30 69 1 29 68
M  V30 70 1 30 69
M  V30 71 1 32 70
M  V30 72 1 33 71
M  V30 73 1 34 72
M  V30 74 1 35 73
M  V30 75 1 35 74
M  V30 END BOND
M  V30 END CTAB
M  END
