
     RDKit          3D

  0  0  0  0  0  0  0  0  0  0999 V3000
M  V30 BEGIN CTAB
M  V30 COUNTS 31 32 0 0 0
M  V30 BEGIN ATOM
M  V30 1 N -2.47512 -0.149158 -1.85719 0
M  V30 2 C -1.52958 0.584945 -1.04774 0
M  V30 3 C -1.51218 0.122035 0.395543 0
M  V30 4 C -2.87152 0.303857 1.01417 0
M  V30 5 C -3.11157 -1.17361 0.849502 0
M  V30 6 C -1.65394 -1.34832 0.52426 0
M  V30 7 C -0.438109 0.770156 1.23444 0
M  V30 8 C 0.92125 0.507403 0.725325 0
M  V30 9 N 1.61702 1.23826 -0.160765 0
M  V30 10 N 2.80088 0.697572 -0.378841 0
M  V30 11 C 2.86965 -0.406949 0.384112 0
M  V30 12 N 1.71166 -0.527349 1.06671 0
M  V30 13 N 3.98206 -1.3039 0.460245 0
M  V30 14 C 3.85884 1.17148 -1.26551 0
M  V30 15 H -2.05224 -0.546447 -2.70419 0
M  V30 16 H -3.38067 0.318224 -1.97491 0
M  V30 17 H -0.507165 0.574747 -1.49702 0
M  V30 18 H -1.84929 1.66709 -1.11301 0
M  V30 19 H -2.78889 0.574441 2.08922 0
M  V30 20 H -3.5659 0.948669 0.429944 0
M  V30 21 H -3.82238 -1.33497 -0.0105667 0
M  V30 22 H -3.4527 -1.69414 1.772 0
M  V30 23 H -1.13345 -1.80621 1.39413 0
M  V30 24 H -1.51485 -1.94211 -0.401831 0
M  V30 25 H -0.635194 1.87961 1.19654 0
M  V30 26 H -0.576877 0.489439 2.29816 0
M  V30 27 H 4.15469 -1.98672 -0.293183 0
M  V30 28 H 4.6435 -1.29557 1.268 0
M  V30 29 H 4.83416 0.949624 -0.793727 0
M  V30 30 H 3.74925 2.26619 -1.37152 0
M  V30 31 H 3.72865 0.634703 -2.23229 0
M  V30 END ATOM
M  V30 BEGIN BOND
M  V30 1 1 1 2
M  V30 2 1 2 3
M  V30 3 1 3 4
M  V30 4 1 4 5
M  V30 5 1 5 6
M  V30 6 1 3 7
M  V30 7 1 7 8
M  V30 8 2 8 9
M  V30 9 1 9 10
M  V30 10 1 10 11
M  V30 11 2 11 12
M  V30 12 1 11 13
M  V30 13 1 10 14
M  V30 14 1 6 3
M  V30 15 1 12 8
M  V30 16 1 1 15
M  V30 17 1 1 16
M  V30 18 1 2 17
M  V30 19 1 2 18
M  V30 20 1 4 19
M  V30 21 1 4 20
M  V30 22 1 5 21
M  V30 23 1 5 22
M  V30 24 1 6 23
M  V30 25 1 6 24
M  V30 26 1 7 25
M  V30 27 1 7 26
M  V30 28 1 13 27
M  V30 29 1 13 28
M  V30 30 1 14 29
M  V30 31 1 14 30
M  V30 32 1 14 31
M  V30 END BOND
M  V30 END CTAB
M  END
