
     RDKit          3D

  0  0  0  0  0  0  0  0  0  0999 V3000
M  V30 BEGIN CTAB
M  V30 COUNTS 26 26 0 0 0
M  V30 BEGIN ATOM
M  V30 1 C -1.10247 2.79127 -0.0829468 0
M  V30 2 O -0.708025 1.71936 -0.915572 0
M  V30 3 C -0.181389 0.52667 -0.43834 0
M  V30 4 C 1.20578 0.506578 -0.291891 0
M  V30 5 N 2.01352 1.63338 -0.610887 0
M  V30 6 C 1.77349 -0.647346 0.174888 0
M  V30 7 C 3.25018 -0.709956 0.345425 0
M  V30 8 C 1.01217 -1.75326 0.491146 0
M  V30 9 C -0.359178 -1.73158 0.345687 0
M  V30 10 C -0.952438 -0.568435 -0.126972 0
M  V30 11 S -2.68949 -0.509456 -0.325068 0
M  V30 12 O -3.19951 0.609097 0.536404 0
M  V30 13 O -2.97062 -0.219055 -1.76121 0
M  V30 14 N -3.42139 -2.0078 0.109787 0
M  V30 15 Br 1.82815 -3.35611 1.14231 0
M  V30 16 H -0.366021 3.63737 -0.231327 0
M  V30 17 H -2.12794 3.1438 -0.355943 0
M  V30 18 H -1.04811 2.492 0.977614 0
M  V30 19 H 2.13151 1.90228 -1.62274 0
M  V30 20 H 2.50008 2.21683 0.0790126 0
M  V30 21 H 3.54331 -1.64783 0.830928 0
M  V30 22 H 3.63159 0.15711 0.915523 0
M  V30 23 H 3.68174 -0.733831 -0.680906 0
M  V30 24 H -0.972659 -2.59041 0.589045 0
M  V30 25 H -2.83625 -2.78299 -0.218887 0
M  V30 26 H -3.63602 -2.07768 1.12491 0
M  V30 END ATOM
M  V30 BEGIN BOND
M  V30 1 1 1 2
M  V30 2 1 2 3
M  V30 3 2 3 4
M  V30 4 1 4 5
M  V30 5 1 4 6
M  V30 6 1 6 7
M  V30 7 2 6 8
M  V30 8 1 8 9
M  V30 9 2 9 10
M  V30 10 1 10 11
M  V30 11 2 11 12
M  V30 12 2 11 13
M  V30 13 1 11 14
M  V30 14 1 8 15
M  V30 15 1 10 3
M  V30 16 1 1 16
M  V30 17 1 1 17
M  V30 18 1 1 18
M  V30 19 1 5 19
M  V30 20 1 5 20
M  V30 21 1 7 21
M  V30 22 1 7 22
M  V30 23 1 7 23
M  V30 24 1 9 24
M  V30 25 1 14 25
M  V30 26 1 14 26
M  V30 END BOND
M  V30 END CTAB
M  END
