
     RDKit          3D

  0  0  0  0  0  0  0  0  0  0999 V3000
M  V30 BEGIN CTAB
M  V30 COUNTS 36 39 0 0 0
M  V30 BEGIN ATOM
M  V30 1 N -2.96723 -0.343781 -2.52213 0
M  V30 2 C -3.65621 -0.117593 -1.30037 0
M  V30 3 N -3.17541 -0.673003 -0.183821 0
M  V30 4 C -3.78655 -0.488472 0.979265 0
M  V30 5 C -3.17755 -1.15005 2.18482 0
M  V30 6 S -1.98337 -0.0592854 2.9649 0
M  V30 7 C -0.589779 0.203351 1.88636 0
M  V30 8 N -0.478866 1.17425 0.970383 0
M  V30 9 N 0.691968 1.07499 0.343788 0
M  V30 10 C 1.31757 0.025858 0.879413 0
M  V30 11 O 0.525189 -0.478683 1.80305 0
M  V30 12 C 2.64327 -0.450976 0.488422 0
M  V30 13 C 3.31718 -1.53813 1.02806 0
M  V30 14 N 4.50166 -1.67097 0.422372 0
M  V30 15 C 4.65018 -0.703062 -0.514204 0
M  V30 16 C 3.48171 0.0672647 -0.475516 0
M  V30 17 C 3.34736 1.14808 -1.33843 0
M  V30 18 C 4.37045 1.44145 -2.21836 0
M  V30 19 C 5.49046 0.677223 -2.23285 0
M  V30 20 C 5.67172 -0.407046 -1.3955 0
M  V30 21 N -4.90078 0.258382 1.06727 0
M  V30 22 C -5.39628 0.82254 -0.0426681 0
M  V30 23 N -4.76813 0.629392 -1.22082 0
M  V30 24 N -6.5703 1.62094 -0.00695959 0
M  V30 25 H -2.67225 -1.33487 -2.71935 0
M  V30 26 H -2.78707 0.4566 -3.15484 0
M  V30 27 H -2.76828 -2.1293 1.89804 0
M  V30 28 H -4.03196 -1.27378 2.90814 0
M  V30 29 H 2.92685 -2.15853 1.80821 0
M  V30 30 H 5.22715 -2.40341 0.620493 0
M  V30 31 H 2.44202 1.74926 -1.31226 0
M  V30 32 H 4.20881 2.3018 -2.8719 0
M  V30 33 H 6.28636 0.914286 -2.9251 0
M  V30 34 H 6.55624 -1.02499 -1.39437 0
M  V30 35 H -7.39512 1.31206 0.534311 0
M  V30 36 H -6.55103 2.52818 -0.553697 0
M  V30 END ATOM
M  V30 BEGIN BOND
M  V30 1 1 1 2
M  V30 2 2 2 3
M  V30 3 1 3 4
M  V30 4 1 4 5
M  V30 5 1 5 6
M  V30 6 1 6 7
M  V30 7 2 7 8
M  V30 8 1 8 9
M  V30 9 2 9 10
M  V30 10 1 10 11
M  V30 11 1 10 12
M  V30 12 2 12 13
M  V30 13 1 13 14
M  V30 14 1 14 15
M  V30 15 2 15 16
M  V30 16 1 16 17
M  V30 17 2 17 18
M  V30 18 1 18 19
M  V30 19 2 19 20
M  V30 20 2 4 21
M  V30 21 1 21 22
M  V30 22 2 22 23
M  V30 23 1 22 24
M  V30 24 1 23 2
M  V30 25 1 11 7
M  V30 26 1 16 12
M  V30 27 1 20 15
M  V30 28 1 1 25
M  V30 29 1 1 26
M  V30 30 1 5 27
M  V30 31 1 5 28
M  V30 32 1 13 29
M  V30 33 1 14 30
M  V30 34 1 17 31
M  V30 35 1 18 32
M  V30 36 1 19 33
M  V30 37 1 20 34
M  V30 38 1 24 35
M  V30 39 1 24 36
M  V30 END BOND
M  V30 END CTAB
M  END
