
     RDKit          3D

  0  0  0  0  0  0  0  0  0  0999 V3000
M  V30 BEGIN CTAB
M  V30 COUNTS 25 25 0 0 0
M  V30 BEGIN ATOM
M  V30 1 C 3.66738 0.711296 -0.186605 0
M  V30 2 O 2.8257 -0.448471 -0.308414 0
M  V30 3 C 1.55036 0.141084 -0.347755 0
M  V30 4 C 0.419924 -0.854435 -0.177287 0
M  V30 5 C -0.793131 0.000192078 -0.0875393 0
M  V30 6 C -1.03668 1.0569 -0.930962 0
M  V30 7 N -2.18863 1.78879 -0.896682 0
M  V30 8 C -3.15073 1.46091 0.0222025 0
M  V30 9 C -2.99632 0.425615 0.896119 0
M  V30 10 C -1.80879 -0.294412 0.826877 0
M  V30 11 N -1.53211 -1.3406 1.71938 0
M  V30 12 N 0.474469 -1.7629 -1.24481 0
M  V30 13 H 3.2798 1.15725 0.788485 0
M  V30 14 H 4.67382 0.363327 0.0146834 0
M  V30 15 H 3.50783 1.4404 -0.966034 0
M  V30 16 H 1.44657 0.718315 -1.28799 0
M  V30 17 H 1.53249 0.875437 0.499943 0
M  V30 18 H 0.543521 -1.41226 0.777564 0
M  V30 19 H -0.305742 1.29596 -1.7109 0
M  V30 20 H -4.11462 2.03475 0.0605512 0
M  V30 21 H -3.7772 0.169112 1.63881 0
M  V30 22 H -1.32266 -1.05879 2.70803 0
M  V30 23 H -1.52665 -2.32439 1.47861 0
M  V30 24 H 0.23918 -2.74106 -1.08042 0
M  V30 25 H 0.392205 -1.40202 -2.20586 0
M  V30 END ATOM
M  V30 BEGIN BOND
M  V30 1 1 1 2
M  V30 2 1 2 3
M  V30 3 1 3 4
M  V30 4 1 4 5
M  V30 5 2 5 6
M  V30 6 1 6 7
M  V30 7 2 7 8
M  V30 8 1 8 9
M  V30 9 2 9 10
M  V30 10 1 10 11
M  V30 11 1 4 12
M  V30 12 1 10 5
M  V30 13 1 1 13
M  V30 14 1 1 14
M  V30 15 1 1 15
M  V30 16 1 3 16
M  V30 17 1 3 17
M  V30 18 1 4 18
M  V30 19 1 6 19
M  V30 20 1 8 20
M  V30 21 1 9 21
M  V30 22 1 11 22
M  V30 23 1 11 23
M  V30 24 1 12 24
M  V30 25 1 12 25
M  V30 END BOND
M  V30 END CTAB
M  END
