
     RDKit          3D

  0  0  0  0  0  0  0  0  0  0999 V3000
M  V30 BEGIN CTAB
M  V30 COUNTS 34 36 0 0 0
M  V30 BEGIN ATOM
M  V30 1 N -3.45458 2.5129 -0.0034998 0
M  V30 2 C -3.40957 1.24566 0.568058 0
M  V30 3 C -2.49051 0.29003 -0.130854 0 CFG=1
M  V30 4 O -1.17269 0.702585 -0.163765 0
M  V30 5 C -0.577078 -0.411713 -0.802234 0 CFG=2
M  V30 6 C -1.1747 -1.62416 -0.0972683 0 CFG=2
M  V30 7 O -1.58953 -2.56623 -1.0389 0
M  V30 8 C -2.35843 -1.02317 0.614811 0 CFG=2
M  V30 9 O -3.50426 -1.79657 0.498577 0
M  V30 10 N 0.848798 -0.376679 -0.734076 0
M  V30 11 C 1.66177 -0.965583 -1.64122 0
M  V30 12 C 2.98324 -0.748906 -1.29185 0
M  V30 13 C 2.96332 0.000282438 -0.128053 0
M  V30 14 C 1.63618 0.204571 0.176575 0
M  V30 15 N 1.35082 0.923124 1.29024 0
M  V30 16 C 2.30427 1.42984 2.08669 0
M  V30 17 N 3.58629 1.21477 1.76488 0
M  V30 18 C 3.96183 0.510763 0.674682 0
M  V30 19 N 5.31998 0.297377 0.356203 0
M  V30 20 H -3.43415 3.2597 0.662664 0
M  V30 21 H -2.91035 2.69377 -0.821964 0
M  V30 22 H -4.42509 0.797978 0.54989 0
M  V30 23 H -3.12872 1.30422 1.64621 0
M  V30 24 H -2.81338 0.108358 -1.17158 0
M  V30 25 H -0.972615 -0.381908 -1.84735 0
M  V30 26 H -0.446396 -2.08548 0.598363 0
M  V30 27 H -2.07152 -2.08894 -1.76002 0
M  V30 28 H -2.07518 -0.813646 1.65595 0
M  V30 29 H -3.46225 -2.42987 -0.25945 0
M  V30 30 H 1.36191 -1.52264 -2.50959 0
M  V30 31 H 3.87126 -1.08936 -1.81226 0
M  V30 32 H 1.99909 1.99083 2.95536 0
M  V30 33 H 5.67876 -0.664159 0.268993 0
M  V30 34 H 5.94349 1.10225 0.213061 0
M  V30 END ATOM
M  V30 BEGIN BOND
M  V30 1 1 1 2
M  V30 2 1 2 3
M  V30 3 1 3 4
M  V30 4 1 4 5
M  V30 5 1 5 6
M  V30 6 1 6 7
M  V30 7 1 6 8
M  V30 8 1 8 9
M  V30 9 1 5 10
M  V30 10 1 10 11
M  V30 11 2 11 12
M  V30 12 1 12 13
M  V30 13 2 13 14
M  V30 14 1 14 15
M  V30 15 2 15 16
M  V30 16 1 16 17
M  V30 17 2 17 18
M  V30 18 1 18 19
M  V30 19 1 8 3
M  V30 20 1 14 10
M  V30 21 1 18 13
M  V30 22 1 1 20
M  V30 23 1 1 21
M  V30 24 1 2 22
M  V30 25 1 2 23
M  V30 26 1 3 24 CFG=3
M  V30 27 1 5 25 CFG=3
M  V30 28 1 6 26 CFG=1
M  V30 29 1 7 27
M  V30 30 1 8 28 CFG=1
M  V30 31 1 9 29
M  V30 32 1 11 30
M  V30 33 1 12 31
M  V30 34 1 16 32
M  V30 35 1 19 33
M  V30 36 1 19 34
M  V30 END BOND
M  V30 END CTAB
M  END
