
     RDKit          3D

  0  0  0  0  0  0  0  0  0  0999 V3000
M  V30 BEGIN CTAB
M  V30 COUNTS 25 25 0 0 0
M  V30 BEGIN ATOM
M  V30 1 C -2.57897 -0.666641 -0.999773 0
M  V30 2 C -1.95162 -0.0302701 0.243054 0
M  V30 3 C -0.459289 0.031287 0.0407311 0
M  V30 4 N 0.205272 0.73382 -0.893998 0
M  V30 5 C 1.52253 0.523585 -0.741748 0
M  V30 6 C 1.708 -0.338886 0.32161 0
M  V30 7 N 0.468801 -0.613594 0.769453 0
M  V30 8 N 0.178695 -1.45852 1.85084 0
M  V30 9 N 2.93765 -0.829887 0.832525 0
M  V30 10 C 2.66071 1.07517 -1.52747 0
M  V30 11 C -2.49247 1.36009 0.363427 0
M  V30 12 H -3.55897 -0.211062 -1.1375 0
M  V30 13 H -1.93187 -0.370127 -1.84936 0
M  V30 14 H -2.61871 -1.77055 -0.864224 0
M  V30 15 H -2.18253 -0.689286 1.0869 0
M  V30 16 H 0.102175 -2.48568 1.72142 0
M  V30 17 H 0.0311047 -1.08608 2.8146 0
M  V30 18 H 3.67275 -1.17383 0.182355 0
M  V30 19 H 3.15302 -0.866967 1.84919 0
M  V30 20 H 2.45141 2.10957 -1.86735 0
M  V30 21 H 3.58411 1.10266 -0.911154 0
M  V30 22 H 2.90862 0.426918 -2.4071 0
M  V30 23 H -3.32764 1.42764 1.08978 0
M  V30 24 H -1.6844 2.05677 0.687841 0
M  V30 25 H -2.79837 1.74388 -0.654047 0
M  V30 END ATOM
M  V30 BEGIN BOND
M  V30 1 1 1 2
M  V30 2 1 2 3
M  V30 3 2 3 4
M  V30 4 1 4 5
M  V30 5 2 5 6
M  V30 6 1 6 7
M  V30 7 1 7 8
M  V30 8 1 6 9
M  V30 9 1 5 10
M  V30 10 1 2 11
M  V30 11 1 7 3
M  V30 12 1 1 12
M  V30 13 1 1 13
M  V30 14 1 1 14
M  V30 15 1 2 15
M  V30 16 1 8 16
M  V30 17 1 8 17
M  V30 18 1 9 18
M  V30 19 1 9 19
M  V30 20 1 10 20
M  V30 21 1 10 21
M  V30 22 1 10 22
M  V30 23 1 11 23
M  V30 24 1 11 24
M  V30 25 1 11 25
M  V30 END BOND
M  V30 END CTAB
M  END
