
     RDKit          3D

  0  0  0  0  0  0  0  0  0  0999 V3000
M  V30 BEGIN CTAB
M  V30 COUNTS 19 19 0 0 0
M  V30 BEGIN ATOM
M  V30 1 N -2.159 -0.903739 1.03851 0
M  V30 2 C -1.92339 0.366658 0.429559 0
M  V30 3 C -1.0203 0.298898 -0.775622 0
M  V30 4 N 0.284807 -0.228101 -0.469517 0
M  V30 5 N 0.589164 -1.5119 -0.526413 0
M  V30 6 C 1.87026 -1.71249 -0.190921 0
M  V30 7 C 2.39313 -0.46801 0.0925793 0
M  V30 8 C 1.38 0.451176 -0.0886965 0
M  V30 9 N 1.54686 1.84353 0.111747 0
M  V30 10 H -1.88198 -1.72038 0.450341 0
M  V30 11 H -3.13568 -1.0696 1.33716 0
M  V30 12 H -1.56098 1.06776 1.19794 0
M  V30 13 H -2.89893 0.776108 0.0694243 0
M  V30 14 H -0.925204 1.31479 -1.21062 0
M  V30 15 H -1.56206 -0.329317 -1.53765 0
M  V30 16 H 2.34753 -2.67507 -0.164021 0
M  V30 17 H 3.42116 -0.317952 0.396189 0
M  V30 18 H 0.946051 2.40651 0.767031 0
M  V30 19 H 2.28855 2.41112 -0.385413 0
M  V30 END ATOM
M  V30 BEGIN BOND
M  V30 1 1 1 2
M  V30 2 1 2 3
M  V30 3 1 3 4
M  V30 4 1 4 5
M  V30 5 2 5 6
M  V30 6 1 6 7
M  V30 7 2 7 8
M  V30 8 1 8 9
M  V30 9 1 8 4
M  V30 10 1 1 10
M  V30 11 1 1 11
M  V30 12 1 2 12
M  V30 13 1 2 13
M  V30 14 1 3 14
M  V30 15 1 3 15
M  V30 16 1 6 16
M  V30 17 1 7 17
M  V30 18 1 9 18
M  V30 19 1 9 19
M  V30 END BOND
M  V30 END CTAB
M  END
