
     RDKit          3D

  0  0  0  0  0  0  0  0  0  0999 V3000
M  V30 BEGIN CTAB
M  V30 COUNTS 42 43 0 0 0
M  V30 BEGIN ATOM
M  V30 1 C -3.99291 2.03384 0.875445 0
M  V30 2 C -2.91622 1.32524 0.0898929 0
M  V30 3 C -2.10501 0.486697 1.02959 0
M  V30 4 C -2.86925 -0.562723 1.76295 0
M  V30 5 C -3.12592 -1.80497 0.996341 0
M  V30 6 C -2.07784 -2.24094 0.0483054 0
M  V30 7 C -0.842249 -1.42779 -0.0466706 0
M  V30 8 N -0.918946 -0.0841713 0.479026 0
M  V30 9 C 0.272775 0.690593 0.432343 0
M  V30 10 O 0.190862 1.87728 0.898092 0
M  V30 11 C 1.53636 0.228072 -0.0958304 0
M  V30 12 O 1.87663 -0.912572 -0.615103 0
M  V30 13 C 3.11401 -0.958938 -0.981464 0
M  V30 14 C 3.69091 0.250999 -0.695282 0
M  V30 15 C 2.67634 1.00668 -0.128583 0
M  V30 16 S 5.32158 0.796751 -0.952897 0
M  V30 17 O 5.63233 0.797906 -2.43133 0
M  V30 18 O 6.30891 -0.0926128 -0.25482 0
M  V30 19 N 5.5025 2.41965 -0.401536 0
M  V30 20 C 3.84704 -2.10442 -1.61336 0
M  V30 21 N -3.50658 0.67392 -1.01452 0
M  V30 22 H -4.31515 2.9035 0.246959 0
M  V30 23 H -4.88959 1.42221 1.0388 0
M  V30 24 H -3.59416 2.4733 1.818 0
M  V30 25 H -2.23449 2.12486 -0.294724 0
M  V30 26 H -1.80878 1.22592 1.84644 0
M  V30 27 H -3.82943 -0.20398 2.18385 0
M  V30 28 H -2.24757 -0.83916 2.66585 0
M  V30 29 H -4.15158 -1.74635 0.525139 0
M  V30 30 H -3.2705 -2.6261 1.76301 0
M  V30 31 H -2.55467 -2.20665 -0.983547 0
M  V30 32 H -1.80176 -3.3198 0.244457 0
M  V30 33 H -0.456297 -1.41807 -1.11609 0
M  V30 34 H -0.0249063 -2.01354 0.480101 0
M  V30 35 H 2.79542 2.03262 0.218516 0
M  V30 36 H 5.84033 2.39947 0.600676 0
M  V30 37 H 4.58402 2.92824 -0.358723 0
M  V30 38 H 4.8505 -2.22491 -1.16738 0
M  V30 39 H 3.25903 -3.01461 -1.37618 0
M  V30 40 H 3.8854 -2.02609 -2.70712 0
M  V30 41 H -4.53739 0.739234 -1.0837 0
M  V30 42 H -3.11378 0.991393 -1.92492 0
M  V30 END ATOM
M  V30 BEGIN BOND
M  V30 1 1 1 2
M  V30 2 1 2 3
M  V30 3 1 3 4
M  V30 4 1 4 5
M  V30 5 1 5 6
M  V30 6 1 6 7
M  V30 7 1 7 8
M  V30 8 1 8 9
M  V30 9 2 9 10
M  V30 10 1 9 11
M  V30 11 1 11 12
M  V30 12 1 12 13
M  V30 13 2 13 14
M  V30 14 1 14 15
M  V30 15 1 14 16
M  V30 16 2 16 17
M  V30 17 2 16 18
M  V30 18 1 16 19
M  V30 19 1 13 20
M  V30 20 1 2 21
M  V30 21 1 8 3
M  V30 22 2 15 11
M  V30 23 1 1 22
M  V30 24 1 1 23
M  V30 25 1 1 24
M  V30 26 1 2 25
M  V30 27 1 3 26
M  V30 28 1 4 27
M  V30 29 1 4 28
M  V30 30 1 5 29
M  V30 31 1 5 30
M  V30 32 1 6 31
M  V30 33 1 6 32
M  V30 34 1 7 33
M  V30 35 1 7 34
M  V30 36 1 15 35
M  V30 37 1 19 36
M  V30 38 1 19 37
M  V30 39 1 20 38
M  V30 40 1 20 39
M  V30 41 1 20 40
M  V30 42 1 21 41
M  V30 43 1 21 42
M  V30 END BOND
M  V30 END CTAB
M  END
