
     RDKit          3D

  0  0  0  0  0  0  0  0  0  0999 V3000
M  V30 BEGIN CTAB
M  V30 COUNTS 66 68 0 0 0
M  V30 BEGIN ATOM
M  V30 1 C -3.22089 -0.720674 -1.4607 0
M  V30 2 C -3.53977 -1.49274 -0.17828 0
M  V30 3 C -3.73042 -2.93546 -0.426523 0
M  V30 4 N -4.7951 -0.895719 0.303346 0
M  V30 5 C -5.92497 -0.954649 -0.491334 0
M  V30 6 O -6.08486 -1.6061 -1.55641 0
M  V30 7 C -7.07513 -0.11302 -0.0418958 0
M  V30 8 C -8.30623 -0.11789 -0.639028 0
M  V30 9 N -8.57403 -1.22738 -1.48156 0
M  V30 10 N -9.20304 0.880575 -0.404092 0
M  V30 11 C -8.91606 1.89812 0.422658 0
M  V30 12 N -9.80533 2.99853 0.660734 0
M  V30 13 C -7.67229 1.90659 1.03743 0
M  V30 14 Cl -7.2853 3.26445 2.0877 0
M  V30 15 N -6.78544 0.921876 0.804385 0
M  V30 16 C -2.5184 -1.27723 0.896773 0
M  V30 17 O -2.36613 -2.00017 1.8952 0
M  V30 18 N -1.67856 -0.105021 0.774946 0
M  V30 19 C -0.643738 0.345557 1.60818 0
M  V30 20 C 0.656597 -0.454638 1.4197 0
M  V30 21 N 0.934055 -0.426567 -0.00876062 0
M  V30 22 C 2.23491 -0.337392 -0.465739 0
M  V30 23 C 3.14374 -1.48362 -0.202754 0
M  V30 24 O 2.54526 -2.62114 -0.761759 0
M  V30 25 C 4.4252 -1.27294 -1.05746 0
M  V30 26 O 5.2013 -0.281026 -0.790654 0
M  V30 27 C 5.95275 0.733943 -0.525523 0
M  V30 28 C 5.36587 2.01611 -0.428055 0
M  V30 29 C 6.06223 3.1471 -0.148007 0
M  V30 30 C 7.41775 3.08151 0.0589045 0
M  V30 31 C 8.0237 1.86698 -0.0383292 0
M  V30 32 C 9.42116 1.83013 0.0785565 0
M  V30 33 C 10.1159 0.674128 -0.0791314 0
M  V30 34 C 9.39942 -0.470537 -0.358275 0
M  V30 35 C 8.02799 -0.450737 -0.475726 0
M  V30 36 C 7.3096 0.720048 -0.320935 0
M  V30 37 H -3.76279 -1.22954 -2.29432 0
M  V30 38 H -2.15986 -0.662788 -1.68051 0
M  V30 39 H -3.65515 0.306439 -1.43402 0
M  V30 40 H -3.89652 -3.06216 -1.5488 0
M  V30 41 H -4.631 -3.39928 0.0716698 0
M  V30 42 H -2.86953 -3.59461 -0.110337 0
M  V30 43 H -4.79786 -0.440729 1.24596 0
M  V30 44 H -8.53362 -2.19373 -1.04715 0
M  V30 45 H -8.80388 -1.16471 -2.48587 0
M  V30 46 H -10.5633 3.03143 1.34431 0
M  V30 47 H -9.64373 3.85471 0.0391903 0
M  V30 48 H -1.95782 0.499103 -0.107466 0
M  V30 49 H -0.963003 -0.0152622 2.6665 0
M  V30 50 H -0.503981 1.40596 1.72951 0
M  V30 51 H 1.50042 0.0589541 1.9125 0
M  V30 52 H 0.555393 -1.46428 1.81835 0
M  V30 53 H 0.304441 0.279802 -0.445393 0
M  V30 54 H 2.65984 0.617225 -0.00413707 0
M  V30 55 H 2.17109 -0.127696 -1.58455 0
M  V30 56 H 3.34633 -1.63861 0.831434 0
M  V30 57 H 2.72407 -3.39198 -0.176324 0
M  V30 58 H 4.04014 -1.21286 -2.13288 0
M  V30 59 H 4.86973 -2.33762 -1.04269 0
M  V30 60 H 4.31801 2.09529 -0.579413 0
M  V30 61 H 5.60418 4.11674 -0.0653174 0
M  V30 62 H 7.99825 3.94826 0.282467 0
M  V30 63 H 9.97555 2.76102 0.313107 0
M  V30 64 H 11.1908 0.685142 0.00665743 0
M  V30 65 H 9.93429 -1.42041 -0.499297 0
M  V30 66 H 7.43784 -1.3448 -0.694523 0
M  V30 END ATOM
M  V30 BEGIN BOND
M  V30 1 1 1 2
M  V30 2 1 2 3
M  V30 3 1 2 4
M  V30 4 1 4 5
M  V30 5 2 5 6
M  V30 6 1 5 7
M  V30 7 2 7 8
M  V30 8 1 8 9
M  V30 9 1 8 10
M  V30 10 2 10 11
M  V30 11 1 11 12
M  V30 12 1 11 13
M  V30 13 1 13 14
M  V30 14 2 13 15
M  V30 15 1 2 16
M  V30 16 2 16 17
M  V30 17 1 16 18
M  V30 18 1 18 19
M  V30 19 1 19 20
M  V30 20 1 20 21
M  V30 21 1 21 22
M  V30 22 1 22 23
M  V30 23 1 23 24
M  V30 24 1 23 25
M  V30 25 1 25 26
M  V30 26 1 26 27
M  V30 27 2 27 28
M  V30 28 1 28 29
M  V30 29 2 29 30
M  V30 30 1 30 31
M  V30 31 2 31 32
M  V30 32 1 32 33
M  V30 33 2 33 34
M  V30 34 1 34 35
M  V30 35 2 35 36
M  V30 36 1 15 7
M  V30 37 1 36 27
M  V30 38 1 36 31
M  V30 39 1 1 37
M  V30 40 1 1 38
M  V30 41 1 1 39
M  V30 42 1 3 40
M  V30 43 1 3 41
M  V30 44 1 3 42
M  V30 45 1 4 43
M  V30 46 1 9 44
M  V30 47 1 9 45
M  V30 48 1 12 46
M  V30 49 1 12 47
M  V30 50 1 18 48
M  V30 51 1 19 49
M  V30 52 1 19 50
M  V30 53 1 20 51
M  V30 54 1 20 52
M  V30 55 1 21 53
M  V30 56 1 22 54
M  V30 57 1 22 55
M  V30 58 1 23 56
M  V30 59 1 24 57
M  V30 60 1 25 58
M  V30 61 1 25 59
M  V30 62 1 28 60
M  V30 63 1 29 61
M  V30 64 1 30 62
M  V30 65 1 32 63
M  V30 66 1 33 64
M  V30 67 1 34 65
M  V30 68 1 35 66
M  V30 END BOND
M  V30 END CTAB
M  END
