
     RDKit          3D

  0  0  0  0  0  0  0  0  0  0999 V3000
M  V30 BEGIN CTAB
M  V30 COUNTS 40 40 0 0 0
M  V30 BEGIN ATOM
M  V30 1 N 5.14916 0.948002 0.558426 0
M  V30 2 C 4.56429 -0.0979338 -0.237386 0
M  V30 3 C 3.08923 0.359229 -0.501207 0
M  V30 4 O 2.51861 0.483999 0.684874 0
M  V30 5 C 1.3295 0.845199 1.05084 0
M  V30 6 C 0.0464201 0.132192 0.893588 0
M  V30 7 N -0.454876 -0.250019 -0.339525 0
M  V30 8 C 0.131597 -1.44342 -0.84815 0
M  V30 9 C -0.857037 -2.58742 -0.949649 0
M  V30 10 C -1.91038 -2.59679 0.104178 0
M  V30 11 C -2.50332 -1.22332 0.408758 0
M  V30 12 C -1.84888 -0.275142 -0.575545 0
M  V30 13 C -2.55813 0.994818 -0.816547 0
M  V30 14 C -2.52029 2.03836 0.235277 0
M  V30 15 N -3.28295 3.22291 -0.117824 0
M  V30 16 H 5.95704 0.583816 1.14257 0
M  V30 17 H 5.39301 1.79229 0.0196553 0
M  V30 18 H 4.54041 -1.03456 0.339855 0
M  V30 19 H 5.04019 -0.184868 -1.22416 0
M  V30 20 H 2.74619 -0.32143 -1.26524 0
M  V30 21 H 3.19431 1.40095 -0.960169 0
M  V30 22 H 1.35952 1.22642 2.17488 0
M  V30 23 H 1.13721 1.90429 0.578852 0
M  V30 24 H -0.706187 0.645423 1.56772 0
M  V30 25 H 0.210979 -0.838282 1.54691 0
M  V30 26 H 0.951514 -1.80318 -0.197732 0
M  V30 27 H 0.532926 -1.25538 -1.85391 0
M  V30 28 H -0.256795 -3.53404 -0.822884 0
M  V30 29 H -1.25106 -2.68246 -1.99698 0
M  V30 30 H -1.54496 -3.10228 1.036 0
M  V30 31 H -2.73951 -3.26608 -0.258115 0
M  V30 32 H -3.60505 -1.25408 0.283575 0
M  V30 33 H -2.18662 -0.981003 1.45695 0
M  V30 34 H -1.96023 -0.844986 -1.57756 0
M  V30 35 H -3.65412 0.794779 -1.02705 0
M  V30 36 H -2.20645 1.41455 -1.81223 0
M  V30 37 H -2.83207 1.71743 1.2354 0
M  V30 38 H -1.44921 2.41202 0.274109 0
M  V30 39 H -3.37399 3.38524 -1.13539 0
M  V30 40 H -4.18997 3.27475 0.39807 0
M  V30 END ATOM
M  V30 BEGIN BOND
M  V30 1 1 1 2
M  V30 2 1 2 3
M  V30 3 1 3 4
M  V30 4 1 4 5
M  V30 5 1 5 6
M  V30 6 1 6 7
M  V30 7 1 7 8
M  V30 8 1 8 9
M  V30 9 1 9 10
M  V30 10 1 10 11
M  V30 11 1 11 12
M  V30 12 1 12 13
M  V30 13 1 13 14
M  V30 14 1 14 15
M  V30 15 1 12 7
M  V30 16 1 1 16
M  V30 17 1 1 17
M  V30 18 1 2 18
M  V30 19 1 2 19
M  V30 20 1 3 20
M  V30 21 1 3 21
M  V30 22 1 5 22
M  V30 23 1 5 23
M  V30 24 1 6 24
M  V30 25 1 6 25
M  V30 26 1 8 26
M  V30 27 1 8 27
M  V30 28 1 9 28
M  V30 29 1 9 29
M  V30 30 1 10 30
M  V30 31 1 10 31
M  V30 32 1 11 32
M  V30 33 1 11 33
M  V30 34 1 12 34
M  V30 35 1 13 35
M  V30 36 1 13 36
M  V30 37 1 14 37
M  V30 38 1 14 38
M  V30 39 1 15 39
M  V30 40 1 15 40
M  V30 END BOND
M  V30 END CTAB
M  END
