
     RDKit          3D

  0  0  0  0  0  0  0  0  0  0999 V3000
M  V30 BEGIN CTAB
M  V30 COUNTS 174 178 0 0 0
M  V30 BEGIN ATOM
M  V30 1 C -2.70964 -5.83619 1.53778 0 CFG=2
M  V30 2 C -3.26042 -7.21646 1.53565 0
M  V30 3 C -3.24423 -7.50653 3.0158 0
M  V30 4 C -1.87835 -6.95891 3.37756 0
M  V30 5 N -1.52798 -5.99591 2.31717 0
M  V30 6 C -0.292812 -5.35583 2.12261 0
M  V30 7 O 0.308633 -4.80577 3.11768 0
M  V30 8 C 0.416197 -5.25 0.815682 0 CFG=1
M  V30 9 N 1.78451 -4.82803 1.01636 0
M  V30 10 C 2.35918 -3.56892 0.857934 0
M  V30 11 O 2.83488 -2.97877 1.90038 0
M  V30 12 C 2.5213 -2.75704 -0.375393 0 CFG=2
M  V30 13 C 3.65174 -3.33873 -1.17529 0
M  V30 14 C 3.89891 -2.5615 -2.44021 0
M  V30 15 C 2.78166 -2.46686 -3.39763 0
M  V30 16 N 2.36399 -3.73039 -3.89074 0
M  V30 17 N 2.55426 -1.35975 -0.176796 0
M  V30 18 C 3.34101 -0.545328 0.681314 0
M  V30 19 O 2.74506 0.276006 1.48694 0
M  V30 20 C 4.79462 -0.496525 0.79418 0 CFG=2
M  V30 21 C 5.19144 -0.239061 2.25225 0
M  V30 22 C 6.66748 -0.16568 2.45403 0
M  V30 23 C 6.89991 0.0852444 3.94487 0
M  V30 24 C 7.36267 -1.44673 2.08957 0
M  V30 25 N 5.54075 0.307167 -0.110879 0
M  V30 26 C 5.26156 1.22223 -1.09331 0
M  V30 27 O 5.63773 0.946333 -2.29565 0
M  V30 28 C 4.56469 2.56186 -1.03365 0 CFG=1
M  V30 29 C 5.39346 3.56189 -0.28866 0
M  V30 30 C 6.70663 3.86815 -0.800267 0
M  V30 31 C 7.81902 3.18104 -0.385256 0
M  V30 32 C 9.08672 3.45035 -0.845453 0
M  V30 33 C 9.26415 4.4678 -1.77925 0
M  V30 34 C 8.16767 5.16925 -2.20969 0
M  V30 35 C 6.89265 4.87943 -1.72988 0
M  V30 36 N 4.11714 2.98281 -2.33547 0
M  V30 37 C 3.21777 3.93186 -2.75319 0
M  V30 38 O 3.6258 4.62525 -3.7816 0
M  V30 39 C 1.88123 4.32492 -2.27743 0 CFG=2
M  V30 40 C 1.24571 5.3533 -3.25201 0
M  V30 41 C 2.06904 6.59649 -2.89027 0
M  V30 42 C 2.77415 6.27328 -1.58245 0
M  V30 43 N 1.88421 5.19566 -1.10947 0
M  V30 44 C 1.20867 5.02757 0.0910046 0
M  V30 45 O 1.93596 4.81831 1.12926 0
M  V30 46 C -0.27386 5.06355 0.337743 0 CFG=1
M  V30 47 N -0.768006 3.92841 1.04232 0
M  V30 48 C -2.08846 3.48358 1.14132 0
M  V30 49 O -2.50326 3.05217 2.27502 0
M  V30 50 C -3.10776 3.44671 0.0551395 0 CFG=2
M  V30 51 C -4.40442 4.0816 0.398064 0
M  V30 52 C -4.39243 5.51692 0.750327 0
M  V30 53 C -5.80911 5.99269 1.05498 0
M  V30 54 N -6.68028 5.82685 -0.0694882 0
M  V30 55 N -3.20512 2.17285 -0.61272 0
M  V30 56 C -4.16143 1.16967 -0.698628 0
M  V30 57 O -4.63094 1.03102 -1.90488 0
M  V30 58 C -4.72852 0.250627 0.277314 0 CFG=2
M  V30 59 C -5.82058 0.560739 1.19001 0
M  V30 60 C -7.17871 0.893785 0.723601 0
M  V30 61 C -7.48313 2.03619 -0.116773 0
M  V30 62 C -7.8216 -0.365715 0.0745094 0
M  V30 63 N -3.67713 -0.515187 0.997332 0
M  V30 64 C -3.42766 -1.88706 0.836761 0
M  V30 65 O -2.27125 -2.3354 1.00078 0
M  V30 66 C -4.45287 -2.9241 0.472553 0 CFG=1
M  V30 67 C -4.24332 -3.25761 -0.942118 0
M  V30 68 C -5.20712 -4.26407 -1.49397 0
M  V30 69 C -4.94981 -5.60425 -1.59087 0
M  V30 70 C -5.89742 -6.4468 -2.09787 0
M  V30 71 C -7.15298 -5.9866 -2.53472 0
M  V30 72 C -7.39799 -4.62977 -2.43017 0
M  V30 73 C -6.44754 -3.77442 -1.91946 0
M  V30 74 N -4.5289 -3.97987 1.43853 0
M  V30 75 C -3.60588 -4.80597 2.05121 0
M  V30 76 O -3.4574 -4.70208 3.32718 0
M  V30 77 C -0.49615 6.39051 1.04411 0
M  V30 78 C 0.272758 6.49105 2.33862 0
M  V30 79 C -0.180811 7.55829 0.174398 0
M  V30 80 C 0.450245 -6.5975 0.112855 0
M  V30 81 C 1.16473 -7.63772 0.933275 0
M  V30 82 C 1.17234 -6.53058 -1.22168 0
M  V30 83 H -2.45915 -5.5604 0.507295 0
M  V30 84 H -2.48511 -7.85921 1.07371 0
M  V30 85 H -4.19068 -7.37622 1.02321 0
M  V30 86 H -4.07388 -7.06691 3.56274 0
M  V30 87 H -3.21663 -8.60194 3.16271 0
M  V30 88 H -1.98426 -6.37076 4.3046 0
M  V30 89 H -1.16138 -7.76375 3.51282 0
M  V30 90 H -0.0598988 -4.53449 0.127269 0
M  V30 91 H 2.42686 -5.61473 1.34984 0
M  V30 92 H 1.59907 -3.00789 -0.985682 0
M  V30 93 H 3.36217 -4.36333 -1.48284 0
M  V30 94 H 4.57848 -3.4963 -0.58549 0
M  V30 95 H 4.85398 -2.94149 -2.89839 0
M  V30 96 H 4.1697 -1.50626 -2.13874 0
M  V30 97 H 1.93404 -1.94494 -2.86233 0
M  V30 98 H 3.12543 -1.82146 -4.2475 0
M  V30 99 H 2.45609 -4.52357 -3.25069 0
M  V30 100 H 2.63544 -3.90877 -4.88656 0
M  V30 101 H 1.86642 -0.789394 -0.766545 0
M  V30 102 H 5.13302 -1.57246 0.642454 0
M  V30 103 H 4.74016 0.734615 2.54816 0
M  V30 104 H 4.73802 -1.05477 2.84378 0
M  V30 105 H 7.1431 0.66417 1.89591 0
M  V30 106 H 7.69385 0.816073 4.1203 0
M  V30 107 H 7.2203 -0.854051 4.45438 0
M  V30 108 H 5.97455 0.407595 4.45289 0
M  V30 109 H 7.89156 -1.90326 2.97881 0
M  V30 110 H 6.68822 -2.23481 1.72067 0
M  V30 111 H 8.1811 -1.26692 1.33944 0
M  V30 112 H 6.60886 0.125763 0.0287159 0
M  V30 113 H 3.65556 2.37381 -0.425969 0
M  V30 114 H 5.52725 3.14679 0.745695 0
M  V30 115 H 4.81271 4.48077 -0.136017 0
M  V30 116 H 7.67793 2.39756 0.334818 0
M  V30 117 H 9.9664 2.90999 -0.522704 0
M  V30 118 H 10.2543 4.67839 -2.14137 0
M  V30 119 H 8.3444 5.95872 -2.93973 0
M  V30 120 H 6.08229 5.47641 -2.11597 0
M  V30 121 H 4.60213 2.42291 -3.13736 0
M  V30 122 H 1.18626 3.47883 -2.15094 0
M  V30 123 H 0.199492 5.46048 -2.96607 0
M  V30 124 H 1.40897 5.05491 -4.29908 0
M  V30 125 H 1.38626 7.45443 -2.65921 0
M  V30 126 H 2.74386 6.9129 -3.67807 0
M  V30 127 H 3.76676 5.84514 -1.73523 0
M  V30 128 H 2.87789 7.12277 -0.929364 0
M  V30 129 H -0.829226 5.11102 -0.624979 0
M  V30 130 H -0.0340943 3.34984 1.55682 0
M  V30 131 H -2.66508 4.22413 -0.682874 0
M  V30 132 H -4.95151 3.55005 1.21749 0
M  V30 133 H -5.06279 3.97519 -0.515506 0
M  V30 134 H -3.78642 5.67086 1.66481 0
M  V30 135 H -3.99357 6.12296 -0.106867 0
M  V30 136 H -6.18043 5.35122 1.89455 0
M  V30 137 H -5.83177 7.07067 1.32422 0
M  V30 138 H -6.19022 5.68116 -0.976833 0
M  V30 139 H -7.51849 5.25689 0.088187 0
M  V30 140 H -2.28551 2.00338 -1.17878 0
M  V30 141 H -5.2249 -0.612734 -0.35741 0
M  V30 142 H -5.98662 -0.406148 1.79654 0
M  V30 143 H -5.50203 1.23675 2.05405 0
M  V30 144 H -7.8266 0.999263 1.66718 0
M  V30 145 H -8.46291 1.83191 -0.644988 0
M  V30 146 H -6.80783 2.3724 -0.887563 0
M  V30 147 H -7.77278 2.93322 0.537629 0
M  V30 148 H -8.92158 -0.210885 0.100677 0
M  V30 149 H -7.40608 -0.446389 -0.940607 0
M  V30 150 H -7.5587 -1.27112 0.656516 0
M  V30 151 H -3.12413 0.0882701 1.6532 0
M  V30 152 H -5.42813 -2.34273 0.528682 0
M  V30 153 H -3.17963 -3.61388 -1.12715 0
M  V30 154 H -4.33693 -2.38409 -1.6146 0
M  V30 155 H -4.00302 -5.98612 -1.27489 0
M  V30 156 H -5.73884 -7.49986 -2.19232 0
M  V30 157 H -7.89385 -6.66194 -2.93735 0
M  V30 158 H -8.34997 -4.19316 -2.74461 0
M  V30 159 H -6.62065 -2.70251 -1.82456 0
M  V30 160 H -5.55429 -4.14765 1.7493 0
M  V30 161 H -1.55564 6.44584 1.32638 0
M  V30 162 H 0.217344 5.55357 2.93131 0
M  V30 163 H 1.29277 6.90383 2.2329 0
M  V30 164 H -0.269153 7.26522 2.95602 0
M  V30 165 H 0.849532 7.96185 0.320497 0
M  V30 166 H -0.889933 8.37074 0.372999 0
M  V30 167 H -0.273598 7.33747 -0.914427 0
M  V30 168 H -0.593278 -6.90294 -0.0138236 0
M  V30 169 H 2.02666 -8.06505 0.388628 0
M  V30 170 H 0.463722 -8.50906 1.06619 0
M  V30 171 H 1.43663 -7.28577 1.94952 0
M  V30 172 H 2.25821 -6.44825 -1.10364 0
M  V30 173 H 0.712984 -5.81431 -1.91966 0
M  V30 174 H 1.00346 -7.54786 -1.68194 0
M  V30 END ATOM
M  V30 BEGIN BOND
M  V30 1 1 1 2
M  V30 2 1 2 3
M  V30 3 1 3 4
M  V30 4 1 4 5
M  V30 5 1 5 6
M  V30 6 2 6 7
M  V30 7 1 6 8
M  V30 8 1 8 9
M  V30 9 1 9 10
M  V30 10 2 10 11
M  V30 11 1 10 12
M  V30 12 1 12 13
M  V30 13 1 13 14
M  V30 14 1 14 15
M  V30 15 1 15 16
M  V30 16 1 12 17
M  V30 17 1 17 18
M  V30 18 2 18 19
M  V30 19 1 18 20
M  V30 20 1 20 21
M  V30 21 1 21 22
M  V30 22 1 22 23
M  V30 23 1 22 24
M  V30 24 1 20 25
M  V30 25 1 25 26
M  V30 26 2 26 27
M  V30 27 1 26 28
M  V30 28 1 28 29
M  V30 29 1 29 30
M  V30 30 2 30 31
M  V30 31 1 31 32
M  V30 32 2 32 33
M  V30 33 1 33 34
M  V30 34 2 34 35
M  V30 35 1 28 36
M  V30 36 1 36 37
M  V30 37 2 37 38
M  V30 38 1 37 39
M  V30 39 1 39 40
M  V30 40 1 40 41
M  V30 41 1 41 42
M  V30 42 1 42 43
M  V30 43 1 43 44
M  V30 44 2 44 45
M  V30 45 1 44 46
M  V30 46 1 46 47
M  V30 47 1 47 48
M  V30 48 2 48 49
M  V30 49 1 48 50
M  V30 50 1 50 51
M  V30 51 1 51 52
M  V30 52 1 52 53
M  V30 53 1 53 54
M  V30 54 1 50 55
M  V30 55 1 55 56
M  V30 56 2 56 57
M  V30 57 1 56 58
M  V30 58 1 58 59
M  V30 59 1 59 60
M  V30 60 1 60 61
M  V30 61 1 60 62
M  V30 62 1 58 63
M  V30 63 1 63 64
M  V30 64 2 64 65
M  V30 65 1 64 66
M  V30 66 1 66 67
M  V30 67 1 67 68
M  V30 68 2 68 69
M  V30 69 1 69 70
M  V30 70 2 70 71
M  V30 71 1 71 72
M  V30 72 2 72 73
M  V30 73 1 66 74
M  V30 74 1 74 75
M  V30 75 2 75 76
M  V30 76 1 46 77
M  V30 77 1 77 78
M  V30 78 1 77 79
M  V30 79 1 8 80
M  V30 80 1 80 81
M  V30 81 1 80 82
M  V30 82 1 5 1
M  V30 83 1 35 30
M  V30 84 1 43 39
M  V30 85 1 73 68
M  V30 86 1 75 1
M  V30 87 1 1 83 CFG=3
M  V30 88 1 2 84
M  V30 89 1 2 85
M  V30 90 1 3 86
M  V30 91 1 3 87
M  V30 92 1 4 88
M  V30 93 1 4 89
M  V30 94 1 8 90 CFG=3
M  V30 95 1 9 91
M  V30 96 1 12 92 CFG=3
M  V30 97 1 13 93
M  V30 98 1 13 94
M  V30 99 1 14 95
M  V30 100 1 14 96
M  V30 101 1 15 97
M  V30 102 1 15 98
M  V30 103 1 16 99
M  V30 104 1 16 100
M  V30 105 1 17 101
M  V30 106 1 20 102 CFG=3
M  V30 107 1 21 103
M  V30 108 1 21 104
M  V30 109 1 22 105
M  V30 110 1 23 106
M  V30 111 1 23 107
M  V30 112 1 23 108
M  V30 113 1 24 109
M  V30 114 1 24 110
M  V30 115 1 24 111
M  V30 116 1 25 112
M  V30 117 1 28 113 CFG=1
M  V30 118 1 29 114
M  V30 119 1 29 115
M  V30 120 1 31 116
M  V30 121 1 32 117
M  V30 122 1 33 118
M  V30 123 1 34 119
M  V30 124 1 35 120
M  V30 125 1 36 121
M  V30 126 1 39 122 CFG=1
M  V30 127 1 40 123
M  V30 128 1 40 124
M  V30 129 1 41 125
M  V30 130 1 41 126
M  V30 131 1 42 127
M  V30 132 1 42 128
M  V30 133 1 46 129 CFG=3
M  V30 134 1 47 130
M  V30 135 1 50 131 CFG=3
M  V30 136 1 51 132
M  V30 137 1 51 133
M  V30 138 1 52 134
M  V30 139 1 52 135
M  V30 140 1 53 136
M  V30 141 1 53 137
M  V30 142 1 54 138
M  V30 143 1 54 139
M  V30 144 1 55 140
M  V30 145 1 58 141 CFG=3
M  V30 146 1 59 142
M  V30 147 1 59 143
M  V30 148 1 60 144
M  V30 149 1 61 145
M  V30 150 1 61 146
M  V30 151 1 61 147
M  V30 152 1 62 148
M  V30 153 1 62 149
M  V30 154 1 62 150
M  V30 155 1 63 151
M  V30 156 1 66 152 CFG=3
M  V30 157 1 67 153
M  V30 158 1 67 154
M  V30 159 1 69 155
M  V30 160 1 70 156
M  V30 161 1 71 157
M  V30 162 1 72 158
M  V30 163 1 73 159
M  V30 164 1 74 160
M  V30 165 1 77 161
M  V30 166 1 78 162
M  V30 167 1 78 163
M  V30 168 1 78 164
M  V30 169 1 79 165
M  V30 170 1 79 166
M  V30 171 1 79 167
M  V30 172 1 80 168
M  V30 173 1 81 169
M  V30 174 1 81 170
M  V30 175 1 81 171
M  V30 176 1 82 172
M  V30 177 1 82 173
M  V30 178 1 82 174
M  V30 END BOND
M  V30 END CTAB
M  END
