
     RDKit          3D

  0  0  0  0  0  0  0  0  0  0999 V3000
M  V30 BEGIN CTAB
M  V30 COUNTS 48 50 0 0 0
M  V30 BEGIN ATOM
M  V30 1 O 0.896487 -3.42823 0.599951 0
M  V30 2 C 0.775114 -2.25211 0.50144 0
M  V30 3 N -0.489074 -1.72102 0.825014 0
M  V30 4 C -0.886804 -0.340708 0.764348 0
M  V30 5 C -2.34093 -0.309948 1.28045 0 CFG=2
M  V30 6 C -2.81778 -1.66865 0.891899 0 CFG=1
M  V30 7 C -1.6299 -2.52081 1.2883 0
M  V30 8 N -3.96644 -2.11716 1.65189 0
M  V30 9 C -3.05479 0.792998 0.634492 0
M  V30 10 C -3.57465 1.80859 1.39848 0
M  V30 11 C -4.26038 2.86957 0.794457 0
M  V30 12 C -4.42733 2.91589 -0.578858 0
M  V30 13 C -3.8964 1.88332 -1.33214 0
M  V30 14 C -3.21139 0.82275 -0.732653 0
M  V30 15 C 1.96505 -1.53117 0.0588355 0
M  V30 16 C 2.66462 -0.745492 1.1373 0
M  V30 17 C 3.99473 -0.261027 0.629977 0
M  V30 18 N 4.12049 -0.0916399 -0.746454 0
M  V30 19 C 3.0372 -0.169116 -1.6204 0
M  V30 20 C 1.69098 -0.48018 -1.02454 0
M  V30 21 S 5.0766 1.31388 -1.11825 0
M  V30 22 O 6.44307 1.20605 -0.538621 0
M  V30 23 O 5.0773 1.48137 -2.60689 0
M  V30 24 N 4.21813 2.67891 -0.452698 0
M  V30 25 H -0.269994 0.362838 1.31755 0
M  V30 26 H -1.00257 -0.0485414 -0.324667 0
M  V30 27 H -2.29724 -0.226076 2.37944 0
M  V30 28 H -2.96421 -1.7712 -0.194412 0
M  V30 29 H -1.65056 -3.51456 0.81639 0
M  V30 30 H -1.6325 -2.59278 2.39844 0
M  V30 31 H -4.72025 -2.33088 0.96164 0
M  V30 32 H -3.78392 -2.99603 2.18241 0
M  V30 33 H -3.45935 1.7985 2.47383 0
M  V30 34 H -4.67962 3.68169 1.3705 0
M  V30 35 H -4.95596 3.73338 -1.04718 0
M  V30 36 H -4.01728 1.90475 -2.39668 0
M  V30 37 H -2.78977 0.00723429 -1.30026 0
M  V30 38 H 2.69863 -2.23333 -0.443095 0
M  V30 39 H 2.7627 -1.33757 2.06296 0
M  V30 40 H 2.04367 0.137039 1.3727 0
M  V30 41 H 4.76473 -0.972034 0.999967 0
M  V30 42 H 4.21401 0.710006 1.16128 0
M  V30 43 H 2.90919 0.784887 -2.21154 0
M  V30 44 H 3.23724 -0.952571 -2.39682 0
M  V30 45 H 1.03332 -0.885565 -1.80405 0
M  V30 46 H 1.29949 0.446114 -0.55075 0
M  V30 47 H 4.64815 3.56345 -0.782938 0
M  V30 48 H 3.20819 2.59518 -0.646191 0
M  V30 END ATOM
M  V30 BEGIN BOND
M  V30 1 2 1 2
M  V30 2 1 2 3
M  V30 3 1 3 4
M  V30 4 1 4 5
M  V30 5 1 5 6
M  V30 6 1 6 7
M  V30 7 1 6 8
M  V30 8 1 5 9
M  V30 9 2 9 10
M  V30 10 1 10 11
M  V30 11 2 11 12
M  V30 12 1 12 13
M  V30 13 2 13 14
M  V30 14 1 2 15
M  V30 15 1 15 16
M  V30 16 1 16 17
M  V30 17 1 17 18
M  V30 18 1 18 19
M  V30 19 1 19 20
M  V30 20 1 18 21
M  V30 21 2 21 22
M  V30 22 2 21 23
M  V30 23 1 21 24
M  V30 24 1 7 3
M  V30 25 1 14 9
M  V30 26 1 20 15
M  V30 27 1 4 25
M  V30 28 1 4 26
M  V30 29 1 5 27 CFG=1
M  V30 30 1 6 28 CFG=3
M  V30 31 1 7 29
M  V30 32 1 7 30
M  V30 33 1 8 31
M  V30 34 1 8 32
M  V30 35 1 10 33
M  V30 36 1 11 34
M  V30 37 1 12 35
M  V30 38 1 13 36
M  V30 39 1 14 37
M  V30 40 1 15 38
M  V30 41 1 16 39
M  V30 42 1 16 40
M  V30 43 1 17 41
M  V30 44 1 17 42
M  V30 45 1 19 43
M  V30 46 1 19 44
M  V30 47 1 20 45
M  V30 48 1 20 46
M  V30 49 1 24 47
M  V30 50 1 24 48
M  V30 END BOND
M  V30 END CTAB
M  END
