
     RDKit          3D

  0  0  0  0  0  0  0  0  0  0999 V3000
M  V30 BEGIN CTAB
M  V30 COUNTS 61 65 0 0 0
M  V30 BEGIN ATOM
M  V30 1 C -0.142778 1.49908 2.83305 0 CFG=1
M  V30 2 S 0.0045153 -0.207511 2.34216 0
M  V30 3 C 1.24691 -0.18231 1.04566 0
M  V30 4 C 2.44265 0.645769 1.37203 0
M  V30 5 C 3.7462 0.021024 1.16917 0
M  V30 6 S 4.2253 -0.305155 -0.519454 0
M  V30 7 C 3.29467 -1.53919 -1.36198 0
M  V30 8 N 2.1828 -1.29895 -2.10476 0
M  V30 9 N 1.79489 -2.48433 -2.56235 0
M  V30 10 N 2.6444 -3.42015 -2.11237 0
M  V30 11 N 3.56733 -2.84633 -1.37493 0
M  V30 12 C 4.66491 -3.4867 -0.703787 0
M  V30 13 C 5.85683 -3.50637 -1.66982 0
M  V30 14 N 7.00834 -4.13026 -1.08931 0
M  V30 15 C 2.19671 1.84126 1.89343 0
M  V30 16 N 0.860026 2.26339 2.12289 0
M  V30 17 C -0.123155 3.22758 1.96848 0
M  V30 18 O -0.143298 4.43693 1.64864 0
M  V30 19 C -1.25299 2.29967 2.33381 0
M  V30 20 N -1.90387 1.87313 1.09532 0
M  V30 21 C -3.28661 2.06813 0.975864 0
M  V30 22 O -3.82251 2.62636 2.02349 0
M  V30 23 C -4.15939 1.7403 -0.119436 0
M  V30 24 N -3.79164 1.19024 -1.19762 0
M  V30 25 O -2.52312 0.833546 -1.46688 0
M  V30 26 C -2.31819 -0.47733 -1.94586 0
M  V30 27 C -2.08282 -1.54152 -1.10368 0
M  V30 28 C -1.89288 -2.79668 -1.64695 0
M  V30 29 C -1.94124 -2.96049 -3.00267 0
M  V30 30 C -2.17671 -1.89383 -3.84301 0
M  V30 31 C -2.36537 -0.648908 -3.30858 0
M  V30 32 C -5.62422 2.08344 0.0494059 0
M  V30 33 N -6.49307 1.80423 -0.931987 0
M  V30 34 S -7.95849 2.34326 -0.312186 0
M  V30 35 C -7.39036 2.9125 1.20009 0
M  V30 36 N -8.11296 3.52183 2.28183 0
M  V30 37 N -6.09473 2.64238 1.11711 0
M  V30 38 C 3.29772 2.74158 2.15315 0
M  V30 39 O 3.05305 4.01974 2.72187 0
M  V30 40 O 4.51092 2.54462 1.93269 0
M  V30 41 H -0.00817371 1.60124 3.91529 0
M  V30 42 H 1.57386 -1.21151 0.860731 0
M  V30 43 H 0.83809 0.21757 0.0826032 0
M  V30 44 H 3.628 -1.06242 1.63144 0
M  V30 45 H 4.59854 0.376785 1.73181 0
M  V30 46 H 4.93778 -2.97041 0.228654 0
M  V30 47 H 4.45211 -4.57533 -0.509982 0
M  V30 48 H 5.57515 -4.0481 -2.58455 0
M  V30 49 H 6.08908 -2.43334 -1.85677 0
M  V30 50 H 7.00458 -5.15637 -1.15349 0
M  V30 51 H 7.24534 -3.82241 -0.139755 0
M  V30 52 H -1.92862 2.7023 3.09142 0
M  V30 53 H -1.34889 1.44313 0.338348 0
M  V30 54 H -2.05373 -1.35712 -0.0271208 0
M  V30 55 H -1.70967 -3.61887 -0.968673 0
M  V30 56 H -1.79234 -3.94041 -3.42415 0
M  V30 57 H -2.20187 -2.09534 -4.9027 0
M  V30 58 H -2.54872 0.171398 -3.9967 0
M  V30 59 H -7.7618 3.43736 3.23526 0
M  V30 60 H -8.97653 4.03327 2.05944 0
M  V30 61 H 3.39006 4.8546 2.25898 0
M  V30 END ATOM
M  V30 BEGIN BOND
M  V30 1 1 1 2
M  V30 2 1 2 3
M  V30 3 1 3 4
M  V30 4 1 4 5
M  V30 5 1 5 6
M  V30 6 1 6 7
M  V30 7 2 7 8
M  V30 8 1 8 9
M  V30 9 2 9 10
M  V30 10 1 10 11
M  V30 11 1 11 12
M  V30 12 1 12 13
M  V30 13 1 13 14
M  V30 14 2 4 15
M  V30 15 1 15 16
M  V30 16 1 16 17
M  V30 17 2 17 18
M  V30 18 1 17 19
M  V30 19 1 19 20
M  V30 20 1 20 21
M  V30 21 2 21 22
M  V30 22 1 21 23
M  V30 23 2 23 24
M  V30 24 1 24 25
M  V30 25 1 25 26
M  V30 26 2 26 27
M  V30 27 1 27 28
M  V30 28 2 28 29
M  V30 29 1 29 30
M  V30 30 2 30 31
M  V30 31 1 23 32
M  V30 32 2 32 33
M  V30 33 1 33 34
M  V30 34 1 34 35
M  V30 35 1 35 36
M  V30 36 2 35 37
M  V30 37 1 15 38
M  V30 38 1 38 39
M  V30 39 2 38 40
M  V30 40 1 16 1
M  V30 41 1 31 26
M  V30 42 1 37 32
M  V30 43 1 19 1
M  V30 44 1 11 7
M  V30 45 1 1 41 CFG=1
M  V30 46 1 3 42
M  V30 47 1 3 43
M  V30 48 1 5 44
M  V30 49 1 5 45
M  V30 50 1 12 46
M  V30 51 1 12 47
M  V30 52 1 13 48
M  V30 53 1 13 49
M  V30 54 1 14 50
M  V30 55 1 14 51
M  V30 56 1 19 52
M  V30 57 1 20 53
M  V30 58 1 27 54
M  V30 59 1 28 55
M  V30 60 1 29 56
M  V30 61 1 30 57
M  V30 62 1 31 58
M  V30 63 1 36 59
M  V30 64 1 36 60
M  V30 65 1 39 61
M  V30 END BOND
M  V30 END CTAB
M  END
