
     RDKit          3D

  0  0  0  0  0  0  0  0  0  0999 V3000
M  V30 BEGIN CTAB
M  V30 COUNTS 28 27 0 0 0
M  V30 BEGIN ATOM
M  V30 1 C 2.25315 0.914393 0.555643 0 CFG=1
M  V30 2 N 2.16789 2.22035 0.00396404 0
M  V30 3 C 0.8993 0.444924 1.0223 0
M  V30 4 C -0.0947259 0.40875 -0.146459 0
M  V30 5 C -1.39894 -0.0690348 0.429077 0
M  V30 6 N -2.44484 -0.155268 -0.564336 0
M  V30 7 C -3.72349 -0.597991 -0.126843 0
M  V30 8 N -4.38872 0.0916919 0.923728 0
M  V30 9 N -4.26066 -1.61268 -0.68439 0
M  V30 10 C 2.84364 -0.0705073 -0.378242 0
M  V30 11 O 3.19278 0.335273 -1.51332 0
M  V30 12 N 3.01767 -1.42025 -0.0285291 0
M  V30 13 O 3.54948 -2.31849 -0.863066 0
M  V30 14 H 2.9077 0.948594 1.44549 0
M  V30 15 H 1.78576 2.21383 -0.982677 0
M  V30 16 H 3.10093 2.68165 -0.0549186 0
M  V30 17 H 0.509331 1.09862 1.82678 0
M  V30 18 H 1.02707 -0.563053 1.44606 0
M  V30 19 H -0.181318 1.41341 -0.604292 0
M  V30 20 H 0.239967 -0.325742 -0.888335 0
M  V30 21 H -1.69845 0.642816 1.21561 0
M  V30 22 H -1.23206 -1.04614 0.9015 0
M  V30 23 H -2.27254 0.0923934 -1.54409 0
M  V30 24 H -4.94027 0.959975 0.774106 0
M  V30 25 H -4.34004 -0.268452 1.91292 0
M  V30 26 H -3.78499 -2.12715 -1.45471 0
M  V30 27 H 2.72414 -1.75508 0.922106 0
M  V30 28 H 4.54224 -2.13685 -0.873949 0
M  V30 END ATOM
M  V30 BEGIN BOND
M  V30 1 1 1 2
M  V30 2 1 1 3
M  V30 3 1 3 4
M  V30 4 1 4 5
M  V30 5 1 5 6
M  V30 6 1 6 7
M  V30 7 1 7 8
M  V30 8 2 7 9 CFG=2
M  V30 9 1 1 10
M  V30 10 2 10 11
M  V30 11 1 10 12
M  V30 12 1 12 13
M  V30 13 1 1 14 CFG=1
M  V30 14 1 2 15
M  V30 15 1 2 16
M  V30 16 1 3 17
M  V30 17 1 3 18
M  V30 18 1 4 19
M  V30 19 1 4 20
M  V30 20 1 5 21
M  V30 21 1 5 22
M  V30 22 1 6 23
M  V30 23 1 8 24
M  V30 24 1 8 25
M  V30 25 1 9 26
M  V30 26 1 12 27
M  V30 27 1 13 28
M  V30 END BOND
M  V30 END CTAB
M  END
