
     RDKit          3D

  0  0  0  0  0  0  0  0  0  0999 V3000
M  V30 BEGIN CTAB
M  V30 COUNTS 57 61 0 0 0
M  V30 BEGIN ATOM
M  V30 1 C 2.657 -4.58279 0.418354 0
M  V30 2 C 2.5995 -3.09244 0.192411 0
M  V30 3 C 1.68718 -2.17692 0.643122 0
M  V30 4 C 1.89399 -0.884245 0.252305 0
M  V30 5 C 2.97035 -0.63243 -0.53482 0
M  V30 6 S 3.68987 -2.15746 -0.735302 0
M  V30 7 C 3.42646 0.655 -1.09752 0
M  V30 8 C 2.756 1.81848 -0.857353 0
M  V30 9 C 3.23659 2.98641 -1.41178 0
M  V30 10 C 4.37768 2.97179 -2.19625 0
M  V30 11 N 4.86705 4.18607 -2.7646 0
M  V30 12 C 5.06669 1.80604 -2.44911 0
M  V30 13 C 4.56537 0.635789 -1.87954 0
M  V30 14 C 0.559044 -2.56857 1.55444 0
M  V30 15 C -0.689908 -2.21801 1.41819 0
M  V30 16 C -1.39045 -1.38898 0.409937 0
M  V30 17 C -1.36788 -1.68298 -0.913324 0
M  V30 18 C -0.752511 -2.84934 -1.65391 0
M  V30 19 S -2.27905 -0.394705 -1.6108 0
M  V30 20 C -2.65268 0.463323 -0.196583 0
M  V30 21 C -2.05997 -0.269938 0.788143 0
M  V30 22 C -3.432 1.69303 -0.0853704 0
M  V30 23 C -3.95583 2.2889 -1.21456 0
M  V30 24 C -4.70248 3.45451 -1.1459 0
M  V30 25 C -4.95288 4.06844 0.0639486 0
M  V30 26 N -5.7208 5.26646 0.14597 0
M  V30 27 C -4.43455 3.48136 1.19505 0
M  V30 28 C -3.68593 2.31199 1.11745 0
M  V30 29 C -1.51518 -2.82017 2.53069 0
M  V30 30 F -2.62836 -2.11191 2.82568 0
M  V30 31 F -1.90113 -4.09137 2.16146 0
M  V30 32 C -0.470632 -2.8216 3.62741 0
M  V30 33 F -0.204132 -1.54067 4.01625 0
M  V30 34 F -0.81333 -3.65922 4.65196 0
M  V30 35 C 0.696011 -3.39672 2.79743 0
M  V30 36 F 1.88953 -3.17282 3.44915 0
M  V30 37 F 0.384037 -4.71268 2.61546 0
M  V30 38 H 3.03253 -4.85937 1.39692 0
M  V30 39 H 1.72367 -5.068 0.0873002 0
M  V30 40 H 3.44398 -4.95534 -0.307207 0
M  V30 41 H 1.23215 -0.0301292 0.543137 0
M  V30 42 H 1.86803 1.79226 -0.240944 0
M  V30 43 H 2.69789 3.90103 -1.21505 0
M  V30 44 H 4.25457 5.00731 -2.81933 0
M  V30 45 H 5.83939 4.26459 -3.13039 0
M  V30 46 H 5.95546 1.75638 -3.05353 0
M  V30 47 H 5.05964 -0.31126 -2.03949 0
M  V30 48 H -1.47493 -3.21042 -2.41016 0
M  V30 49 H 0.175262 -2.53395 -2.14024 0
M  V30 50 H -0.590351 -3.67267 -0.941427 0
M  V30 51 H -2.15721 0.0951885 1.84026 0
M  V30 52 H -3.77467 1.82655 -2.17159 0
M  V30 53 H -5.1118 3.9211 -2.03091 0
M  V30 54 H -6.61796 5.35469 -0.34459 0
M  V30 55 H -5.35418 6.04153 0.709497 0
M  V30 56 H -4.6258 3.95058 2.14874 0
M  V30 57 H -3.28841 1.8683 2.01789 0
M  V30 END ATOM
M  V30 BEGIN BOND
M  V30 1 1 1 2
M  V30 2 2 2 3
M  V30 3 1 3 4
M  V30 4 2 4 5
M  V30 5 1 5 6
M  V30 6 1 5 7
M  V30 7 2 7 8
M  V30 8 1 8 9
M  V30 9 2 9 10
M  V30 10 1 10 11
M  V30 11 1 10 12
M  V30 12 2 12 13
M  V30 13 1 3 14
M  V30 14 2 14 15
M  V30 15 1 15 16
M  V30 16 2 16 17
M  V30 17 1 17 18
M  V30 18 1 17 19
M  V30 19 1 19 20
M  V30 20 2 20 21
M  V30 21 1 20 22
M  V30 22 2 22 23
M  V30 23 1 23 24
M  V30 24 2 24 25
M  V30 25 1 25 26
M  V30 26 1 25 27
M  V30 27 2 27 28
M  V30 28 1 15 29
M  V30 29 1 29 30
M  V30 30 1 29 31
M  V30 31 1 29 32
M  V30 32 1 32 33
M  V30 33 1 32 34
M  V30 34 1 32 35
M  V30 35 1 35 36
M  V30 36 1 35 37
M  V30 37 1 6 2
M  V30 38 1 13 7
M  V30 39 1 35 14
M  V30 40 1 21 16
M  V30 41 1 28 22
M  V30 42 1 1 38
M  V30 43 1 1 39
M  V30 44 1 1 40
M  V30 45 1 4 41
M  V30 46 1 8 42
M  V30 47 1 9 43
M  V30 48 1 11 44
M  V30 49 1 11 45
M  V30 50 1 12 46
M  V30 51 1 13 47
M  V30 52 1 18 48
M  V30 53 1 18 49
M  V30 54 1 18 50
M  V30 55 1 21 51
M  V30 56 1 23 52
M  V30 57 1 24 53
M  V30 58 1 26 54
M  V30 59 1 26 55
M  V30 60 1 27 56
M  V30 61 1 28 57
M  V30 END BOND
M  V30 END CTAB
M  END
