
     RDKit          3D

  0  0  0  0  0  0  0  0  0  0999 V3000
M  V30 BEGIN CTAB
M  V30 COUNTS 40 43 0 0 0
M  V30 BEGIN ATOM
M  V30 1 C 0.38785 -2.47359 -0.953314 0
M  V30 2 C -0.0962305 -1.08687 -0.732867 0
M  V30 3 C 0.772227 -0.102428 -0.741787 0
M  V30 4 C 2.1805 -0.371303 -0.967034 0
M  V30 5 C 2.86193 -1.14084 -1.87783 0
M  V30 6 O 4.14108 -1.08177 -1.6834 0
M  V30 7 C 4.42687 -0.287397 -0.651421 0
M  V30 8 N 5.58252 0.0830108 -0.07472 0
M  V30 9 C 5.59758 0.919584 0.986231 0
M  V30 10 N 6.81956 1.31329 1.61078 0
M  V30 11 N 4.41758 1.38137 1.46027 0
M  V30 12 C 3.25051 1.02579 0.900763 0
M  V30 13 N 1.99407 1.50466 1.3883 0
M  V30 14 C 3.20666 0.172446 -0.183512 0
M  V30 15 C -1.52237 -0.881999 -0.499401 0
M  V30 16 C -1.97761 0.359075 -0.163505 0
M  V30 17 C -3.32601 0.618413 0.0438791 0
M  V30 18 C -4.22884 -0.417528 -0.0957089 0
M  V30 19 C -5.57074 -0.131889 0.116863 0
M  V30 20 C -5.98216 1.14265 0.455679 0
M  V30 21 C -5.06887 2.1764 0.594098 0
M  V30 22 C -3.73307 1.89748 0.38356 0
M  V30 23 C -3.77729 -1.65745 -0.431049 0
M  V30 24 C -2.43656 -1.90289 -0.634503 0
M  V30 25 H 0.359254 -2.812 -1.98677 0
M  V30 26 H -0.307 -3.14729 -0.362433 0
M  V30 27 H 1.38319 -2.67626 -0.493932 0
M  V30 28 H 0.436547 0.946046 -0.585612 0
M  V30 29 H 2.36839 -1.72191 -2.66058 0
M  V30 30 H 7.55218 1.84474 1.10935 0
M  V30 31 H 6.96513 1.05392 2.59494 0
M  V30 32 H 1.61142 2.3946 1.02772 0
M  V30 33 H 1.4543 0.954028 2.11559 0
M  V30 34 H -1.33564 1.22713 -0.0271972 0
M  V30 35 H -6.27062 -0.931479 0.00768144 0
M  V30 36 H -7.05728 1.30132 0.609284 0
M  V30 37 H -5.40276 3.16188 0.857633 0
M  V30 38 H -3.01617 2.71107 0.492953 0
M  V30 39 H -4.5229 -2.45993 -0.534632 0
M  V30 40 H -2.13723 -2.90409 -0.906028 0
M  V30 END ATOM
M  V30 BEGIN BOND
M  V30 1 1 1 2
M  V30 2 2 2 3
M  V30 3 1 3 4
M  V30 4 2 4 5
M  V30 5 1 5 6
M  V30 6 1 6 7
M  V30 7 2 7 8
M  V30 8 1 8 9
M  V30 9 1 9 10
M  V30 10 2 9 11
M  V30 11 1 11 12
M  V30 12 1 12 13
M  V30 13 2 12 14
M  V30 14 1 2 15
M  V30 15 2 15 16
M  V30 16 1 16 17
M  V30 17 2 17 18
M  V30 18 1 18 19
M  V30 19 2 19 20
M  V30 20 1 20 21
M  V30 21 2 21 22
M  V30 22 1 18 23
M  V30 23 2 23 24
M  V30 24 1 14 4
M  V30 25 1 24 15
M  V30 26 1 14 7
M  V30 27 1 22 17
M  V30 28 1 1 25
M  V30 29 1 1 26
M  V30 30 1 1 27
M  V30 31 1 3 28
M  V30 32 1 5 29
M  V30 33 1 10 30
M  V30 34 1 10 31
M  V30 35 1 13 32
M  V30 36 1 13 33
M  V30 37 1 16 34
M  V30 38 1 19 35
M  V30 39 1 20 36
M  V30 40 1 21 37
M  V30 41 1 22 38
M  V30 42 1 23 39
M  V30 43 1 24 40
M  V30 END BOND
M  V30 END CTAB
M  END
