
     RDKit          3D

  0  0  0  0  0  0  0  0  0  0999 V3000
M  V30 BEGIN CTAB
M  V30 COUNTS 59 62 0 0 0
M  V30 BEGIN ATOM
M  V30 1 O 1.94663 0.934676 1.21866 0
M  V30 2 C 1.99536 1.5119 0.129851 0
M  V30 3 N 0.858142 1.90612 -0.582337 0
M  V30 4 C -0.499064 1.75356 -0.259286 0
M  V30 5 C -0.960995 1.09559 0.857089 0
M  V30 6 C -2.31218 0.929711 1.16354 0
M  V30 7 C -3.2469 1.45403 0.299949 0
M  V30 8 C -2.80492 2.11645 -0.823022 0
M  V30 9 C -1.46447 2.28169 -1.12722 0
M  V30 10 N -1.16389 2.99821 -2.29879 0
M  V30 11 C -0.540943 4.26094 -2.54161 0
M  V30 12 C 0.0557589 4.18581 -3.91694 0
M  V30 13 C -0.23121 2.77444 -4.38467 0
M  V30 14 C -1.50478 2.46492 -3.62853 0
M  V30 15 S -2.85182 0.0862398 2.59782 0
M  V30 16 O -4.11464 0.656553 3.13761 0
M  V30 17 O -1.76351 0.238626 3.6301 0
M  V30 18 N -3.02996 -1.5673 2.2095 0
M  V30 19 C -1.80412 -2.18572 1.79509 0
M  V30 20 C -1.97931 -3.63124 1.42064 0
M  V30 21 O -2.76731 -4.32938 2.32065 0
M  V30 22 C -3.97226 -3.71982 2.57931 0
M  V30 23 C -3.74632 -2.33151 3.18411 0
M  V30 24 C 3.35749 1.78455 -0.419938 0
M  V30 25 S 4.67339 1.17169 0.622774 0
M  V30 26 C 4.64516 -0.602467 0.645025 0
M  V30 27 N 5.34275 -1.28819 -0.27513 0
M  V30 28 C 5.32086 -2.6407 -0.252166 0
M  V30 29 N 6.0761 -3.30651 -1.24747 0
M  V30 30 N 4.62026 -3.3172 0.666286 0
M  V30 31 C 3.91689 -2.63006 1.59419 0
M  V30 32 N 3.93953 -1.26622 1.57014 0
M  V30 33 N 3.15586 -3.28126 2.59182 0
M  V30 34 H 1.03115 2.39685 -1.53272 0
M  V30 35 H -0.282852 0.658988 1.57505 0
M  V30 36 H -4.299 1.32964 0.530228 0
M  V30 37 H -3.56623 2.52681 -1.499 0
M  V30 38 H 0.192561 4.59659 -1.81284 0
M  V30 39 H -1.36032 5.04348 -2.50951 0
M  V30 40 H 1.14098 4.41431 -3.92908 0
M  V30 41 H -0.521707 4.86238 -4.57941 0
M  V30 42 H -0.352037 2.70887 -5.47677 0
M  V30 43 H 0.562386 2.11226 -3.99102 0
M  V30 44 H -1.75301 1.4064 -3.61378 0
M  V30 45 H -2.31397 3.11478 -4.0104 0
M  V30 46 H -1.46287 -1.63871 0.874194 0
M  V30 47 H -0.994653 -2.13139 2.55542 0
M  V30 48 H -0.994973 -4.10367 1.34571 0
M  V30 49 H -2.44739 -3.65371 0.40572 0
M  V30 50 H -4.54521 -4.35803 3.27817 0
M  V30 51 H -4.53925 -3.58795 1.61153 0
M  V30 52 H -3.24075 -2.44853 4.14791 0
M  V30 53 H -4.74039 -1.84049 3.32525 0
M  V30 54 H 3.42729 2.88088 -0.552743 0
M  V30 55 H 3.44438 1.33303 -1.43199 0
M  V30 56 H 5.63806 -3.57714 -2.13034 0
M  V30 57 H 7.07444 -3.5127 -1.06465 0
M  V30 58 H 3.40606 -3.12934 3.61325 0
M  V30 59 H 2.35171 -3.91176 2.39475 0
M  V30 END ATOM
M  V30 BEGIN BOND
M  V30 1 2 1 2
M  V30 2 1 2 3
M  V30 3 1 3 4
M  V30 4 2 4 5
M  V30 5 1 5 6
M  V30 6 2 6 7
M  V30 7 1 7 8
M  V30 8 2 8 9
M  V30 9 1 9 10
M  V30 10 1 10 11
M  V30 11 1 11 12
M  V30 12 1 12 13
M  V30 13 1 13 14
M  V30 14 1 6 15
M  V30 15 2 15 16
M  V30 16 2 15 17
M  V30 17 1 15 18
M  V30 18 1 18 19
M  V30 19 1 19 20
M  V30 20 1 20 21
M  V30 21 1 21 22
M  V30 22 1 22 23
M  V30 23 1 2 24
M  V30 24 1 24 25
M  V30 25 1 25 26
M  V30 26 2 26 27
M  V30 27 1 27 28
M  V30 28 1 28 29
M  V30 29 2 28 30
M  V30 30 1 30 31
M  V30 31 2 31 32
M  V30 32 1 31 33
M  V30 33 1 9 4
M  V30 34 1 14 10
M  V30 35 1 23 18
M  V30 36 1 32 26
M  V30 37 1 3 34
M  V30 38 1 5 35
M  V30 39 1 7 36
M  V30 40 1 8 37
M  V30 41 1 11 38
M  V30 42 1 11 39
M  V30 43 1 12 40
M  V30 44 1 12 41
M  V30 45 1 13 42
M  V30 46 1 13 43
M  V30 47 1 14 44
M  V30 48 1 14 45
M  V30 49 1 19 46
M  V30 50 1 19 47
M  V30 51 1 20 48
M  V30 52 1 20 49
M  V30 53 1 22 50
M  V30 54 1 22 51
M  V30 55 1 23 52
M  V30 56 1 23 53
M  V30 57 1 24 54
M  V30 58 1 24 55
M  V30 59 1 29 56
M  V30 60 1 29 57
M  V30 61 1 33 58
M  V30 62 1 33 59
M  V30 END BOND
M  V30 END CTAB
M  END
