
     RDKit          3D

  0  0  0  0  0  0  0  0  0  0999 V3000
M  V30 BEGIN CTAB
M  V30 COUNTS 130 134 0 0 0
M  V30 BEGIN ATOM
M  V30 1 C 3.80067 -3.47347 -4.44166 0
M  V30 2 C 2.84774 -2.63284 -3.58061 0
M  V30 3 C 3.0691 -2.97353 -2.15569 0
M  V30 4 O 2.20931 -2.18809 -1.32133 0
M  V30 5 C 2.26556 -2.29517 0.12898 0
M  V30 6 C 3.13235 -1.48194 0.871966 0
M  V30 7 S 3.89336 0.0552883 0.423336 0
M  V30 8 C 3.12173 1.55813 -0.143444 0
M  V30 9 C 3.39148 1.68247 -1.49825 0
M  V30 10 C 2.70646 2.53401 -2.32657 0
M  V30 11 C 1.71652 3.2631 -1.71917 0
M  V30 12 C 1.41439 3.16976 -0.369942 0
M  V30 13 S -0.177224 3.91977 -0.112575 0
M  V30 14 C -1.73587 3.13483 0.252035 0
M  V30 15 C -2.03194 3.40459 1.58109 0
M  V30 16 C -2.9718 2.70943 2.29485 0
M  V30 17 C -3.60492 1.71049 1.60523 0
M  V30 18 C -3.3495 1.40087 0.284877 0
M  V30 19 S -4.06113 -0.18715 -0.0654076 0
M  V30 20 C -3.24736 -1.74411 -0.351685 0
M  V30 21 C -3.34035 -2.02669 -1.70148 0
M  V30 22 C -2.55854 -2.96631 -2.33493 0
M  V30 23 C -1.65977 -3.60808 -1.51681 0
M  V30 24 C -1.53413 -3.35772 -0.162884 0
M  V30 25 S 0.0139073 -4.04822 0.38104 0
M  V30 26 C 1.50943 -3.20502 0.844481 0
M  V30 27 C 1.65019 -3.31901 2.22332 0
M  V30 28 C 2.50921 -2.55213 2.95734 0
M  V30 29 C 3.23807 -1.63262 2.24537 0
M  V30 30 C 2.66846 -2.69878 4.44207 0
M  V30 31 C 1.83857 -1.7094 5.21376 0
M  V30 32 C 4.1536 -2.49193 4.78983 0
M  V30 33 C 2.30318 -4.0869 4.90928 0
M  V30 34 C -2.34758 -2.42508 0.468735 0
M  V30 35 O -2.29657 -2.19062 1.90395 0
M  V30 36 C -3.07626 -2.9403 2.82287 0
M  V30 37 C -4.55958 -2.8431 2.59387 0
M  V30 38 N -5.21488 -3.65771 3.60289 0
M  V30 39 C -2.65723 -3.26088 -3.78944 0
M  V30 40 C -3.2932 -2.08625 -4.50947 0
M  V30 41 C -1.27002 -3.43788 -4.39427 0
M  V30 42 C -3.47693 -4.51262 -3.96394 0
M  V30 43 C -2.40197 2.13999 -0.439413 0
M  V30 44 O -2.17856 1.87969 -1.85618 0
M  V30 45 C -2.9131 2.43269 -2.89635 0
M  V30 46 C -2.94161 3.87114 -3.15616 0
M  V30 47 C -1.62086 4.46949 -3.56821 0
M  V30 48 C -3.28651 3.04543 3.72033 0
M  V30 49 C -3.90984 4.43013 3.75268 0
M  V30 50 C -4.25522 2.05309 4.28067 0
M  V30 51 C -2.0121 3.0134 4.53855 0
M  V30 52 C 2.13361 2.31921 0.465533 0
M  V30 53 O 1.88677 2.25802 1.89727 0
M  V30 54 C 2.56203 3.1313 2.80818 0
M  V30 55 C 4.04963 2.90942 2.69813 0
M  V30 56 N 4.72449 3.78875 3.61302 0
M  V30 57 C 2.99134 2.64008 -3.79828 0
M  V30 58 C 3.30932 4.04746 -4.21676 0
M  V30 59 C 4.15663 1.75175 -4.16829 0
M  V30 60 C 1.77769 2.14764 -4.58259 0
M  V30 61 H 4.82571 -3.06568 -4.20387 0
M  V30 62 H 3.81118 -4.53471 -4.16452 0
M  V30 63 H 3.59977 -3.31319 -5.51329 0
M  V30 64 H 1.84836 -2.8856 -3.91164 0
M  V30 65 H 3.10742 -1.56413 -3.76099 0
M  V30 66 H 2.92959 -4.05797 -1.97234 0
M  V30 67 H 4.1304 -2.76659 -1.89033 0
M  V30 68 H 4.19822 1.14945 -2.04217 0
M  V30 69 H 1.23172 3.95719 -2.43431 0
M  V30 70 H -1.58475 4.21863 2.18291 0
M  V30 71 H -4.37962 1.20864 2.23522 0
M  V30 72 H -4.06667 -1.57236 -2.40288 0
M  V30 73 H -1.08235 -4.37943 -2.07681 0
M  V30 74 H 1.12018 -4.06355 2.85322 0
M  V30 75 H 3.93315 -1.06322 2.8949 0
M  V30 76 H 2.39288 -1.49334 6.17158 0
M  V30 77 H 0.882516 -2.18465 5.55937 0
M  V30 78 H 1.66527 -0.753789 4.72639 0
M  V30 79 H 4.7491 -2.74143 3.8787 0
M  V30 80 H 4.41373 -3.2175 5.57716 0
M  V30 81 H 4.34132 -1.4796 5.18743 0
M  V30 82 H 2.55966 -4.09418 6.01468 0
M  V30 83 H 1.23419 -4.3128 4.85194 0
M  V30 84 H 2.95516 -4.86646 4.45483 0
M  V30 85 H -2.84418 -2.55747 3.81575 0
M  V30 86 H -2.76162 -3.99775 2.74223 0
M  V30 87 H -4.88468 -1.79775 2.77377 0
M  V30 88 H -4.8932 -3.25797 1.6211 0
M  V30 89 H -5.1234 -3.25291 4.55604 0
M  V30 90 H -4.767 -4.60498 3.62678 0
M  V30 91 H -2.88336 -2.0815 -5.55943 0
M  V30 92 H -2.98101 -1.11665 -4.07693 0
M  V30 93 H -4.37553 -2.21287 -4.60222 0
M  V30 94 H -0.476297 -3.21899 -3.67104 0
M  V30 95 H -1.16789 -4.51654 -4.64912 0
M  V30 96 H -1.14379 -2.8233 -5.28011 0
M  V30 97 H -3.78802 -4.63583 -5.02614 0
M  V30 98 H -2.82928 -5.37401 -3.66362 0
M  V30 99 H -4.3327 -4.48061 -3.27891 0
M  V30 100 H -3.97058 2.0579 -2.83452 0
M  V30 101 H -2.51259 1.93338 -3.82827 0
M  V30 102 H -3.42362 4.48045 -2.3458 0
M  V30 103 H -3.64661 4.03626 -4.02782 0
M  V30 104 H -1.651 4.94612 -4.57284 0
M  V30 105 H -1.22479 5.23055 -2.87781 0
M  V30 106 H -0.834181 3.67218 -3.60747 0
M  V30 107 H -4.70746 4.52257 4.50789 0
M  V30 108 H -4.36334 4.68956 2.77149 0
M  V30 109 H -3.13132 5.21132 3.91752 0
M  V30 110 H -3.87585 1.01542 4.21613 0
M  V30 111 H -5.27288 2.18805 3.84334 0
M  V30 112 H -4.36811 2.27233 5.38222 0
M  V30 113 H -2.03123 2.16969 5.26691 0
M  V30 114 H -1.94264 3.95434 5.11596 0
M  V30 115 H -1.13745 2.8945 3.88208 0
M  V30 116 H 2.32279 4.18699 2.48981 0
M  V30 117 H 2.17007 2.91426 3.79809 0
M  V30 118 H 4.35377 3.09157 1.66434 0
M  V30 119 H 4.25408 1.86631 3.05417 0
M  V30 120 H 5.33038 4.42823 3.05516 0
M  V30 121 H 5.26997 3.25923 4.33223 0
M  V30 122 H 2.54853 4.77665 -3.85946 0
M  V30 123 H 3.24847 4.09424 -5.33418 0
M  V30 124 H 4.2866 4.41334 -3.84124 0
M  V30 125 H 5.08432 2.06392 -3.68027 0
M  V30 126 H 3.92243 0.678159 -3.99468 0
M  V30 127 H 4.30666 1.91402 -5.27858 0
M  V30 128 H 1.19834 2.96553 -5.00005 0
M  V30 129 H 1.12171 1.59778 -3.86463 0
M  V30 130 H 2.05117 1.44273 -5.36674 0
M  V30 END ATOM
M  V30 BEGIN BOND
M  V30 1 1 1 2
M  V30 2 1 2 3
M  V30 3 1 3 4
M  V30 4 1 4 5
M  V30 5 2 5 6
M  V30 6 1 6 7
M  V30 7 1 7 8
M  V30 8 2 8 9
M  V30 9 1 9 10
M  V30 10 2 10 11
M  V30 11 1 11 12
M  V30 12 1 12 13
M  V30 13 1 13 14
M  V30 14 2 14 15
M  V30 15 1 15 16
M  V30 16 2 16 17
M  V30 17 1 17 18
M  V30 18 1 18 19
M  V30 19 1 19 20
M  V30 20 1 20 21
M  V30 21 2 21 22
M  V30 22 1 22 23
M  V30 23 2 23 24
M  V30 24 1 24 25
M  V30 25 1 25 26
M  V30 26 2 26 27
M  V30 27 1 27 28
M  V30 28 2 28 29
M  V30 29 1 28 30
M  V30 30 1 30 31
M  V30 31 1 30 32
M  V30 32 1 30 33
M  V30 33 1 24 34
M  V30 34 1 34 35
M  V30 35 1 35 36
M  V30 36 1 36 37
M  V30 37 1 37 38
M  V30 38 1 22 39
M  V30 39 1 39 40
M  V30 40 1 39 41
M  V30 41 1 39 42
M  V30 42 2 18 43
M  V30 43 1 43 44
M  V30 44 1 44 45
M  V30 45 1 45 46
M  V30 46 1 46 47
M  V30 47 1 16 48
M  V30 48 1 48 49
M  V30 49 1 48 50
M  V30 50 1 48 51
M  V30 51 2 12 52
M  V30 52 1 52 53
M  V30 53 1 53 54
M  V30 54 1 54 55
M  V30 55 1 55 56
M  V30 56 1 10 57
M  V30 57 1 57 58
M  V30 58 1 57 59
M  V30 59 1 57 60
M  V30 60 1 26 5
M  V30 61 1 29 6
M  V30 62 1 52 8
M  V30 63 1 43 14
M  V30 64 2 34 20
M  V30 65 1 1 61
M  V30 66 1 1 62
M  V30 67 1 1 63
M  V30 68 1 2 64
M  V30 69 1 2 65
M  V30 70 1 3 66
M  V30 71 1 3 67
M  V30 72 1 9 68
M  V30 73 1 11 69
M  V30 74 1 15 70
M  V30 75 1 17 71
M  V30 76 1 21 72
M  V30 77 1 23 73
M  V30 78 1 27 74
M  V30 79 1 29 75
M  V30 80 1 31 76
M  V30 81 1 31 77
M  V30 82 1 31 78
M  V30 83 1 32 79
M  V30 84 1 32 80
M  V30 85 1 32 81
M  V30 86 1 33 82
M  V30 87 1 33 83
M  V30 88 1 33 84
M  V30 89 1 36 85
M  V30 90 1 36 86
M  V30 91 1 37 87
M  V30 92 1 37 88
M  V30 93 1 38 89
M  V30 94 1 38 90
M  V30 95 1 40 91
M  V30 96 1 40 92
M  V30 97 1 40 93
M  V30 98 1 41 94
M  V30 99 1 41 95
M  V30 100 1 41 96
M  V30 101 1 42 97
M  V30 102 1 42 98
M  V30 103 1 42 99
M  V30 104 1 45 100
M  V30 105 1 45 101
M  V30 106 1 46 102
M  V30 107 1 46 103
M  V30 108 1 47 104
M  V30 109 1 47 105
M  V30 110 1 47 106
M  V30 111 1 49 107
M  V30 112 1 49 108
M  V30 113 1 49 109
M  V30 114 1 50 110
M  V30 115 1 50 111
M  V30 116 1 50 112
M  V30 117 1 51 113
M  V30 118 1 51 114
M  V30 119 1 51 115
M  V30 120 1 54 116
M  V30 121 1 54 117
M  V30 122 1 55 118
M  V30 123 1 55 119
M  V30 124 1 56 120
M  V30 125 1 56 121
M  V30 126 1 58 122
M  V30 127 1 58 123
M  V30 128 1 58 124
M  V30 129 1 59 125
M  V30 130 1 59 126
M  V30 131 1 59 127
M  V30 132 1 60 128
M  V30 133 1 60 129
M  V30 134 1 60 130
M  V30 END BOND
M  V30 END CTAB
M  END
