
     RDKit          3D

  0  0  0  0  0  0  0  0  0  0999 V3000
M  V30 BEGIN CTAB
M  V30 COUNTS 81 81 0 0 0
M  V30 BEGIN ATOM
M  V30 1 C 5.21205 2.06329 1.48386 0 CFG=1
M  V30 2 C 4.3663 1.94069 2.76597 0
M  V30 3 O 6.48154 1.60518 1.81856 0
M  V30 4 C 4.54905 1.3283 0.378253 0 CFG=2
M  V30 5 N 3.25139 1.88656 0.0963152 0
M  V30 6 C 2.50831 1.55267 -1.06961 0
M  V30 7 O 3.02655 0.693452 -1.82215 0
M  V30 8 C 1.20969 2.13724 -1.4442 0 CFG=2
M  V30 9 C 0.689611 3.19764 -0.547495 0
M  V30 10 C -0.606308 3.69257 -1.06615 0
M  V30 11 O -1.40136 4.61028 -0.398262 0
M  V30 12 O -1.03565 3.26148 -2.1831 0
M  V30 13 N 0.197131 1.18161 -1.80473 0
M  V30 14 C 0.109232 0.36315 -2.88717 0
M  V30 15 O 1.06225 0.344138 -3.76232 0
M  V30 16 C -1.01031 -0.560217 -3.20988 0
M  V30 17 N -2.11184 -0.34041 -2.28878 0
M  V30 18 C -3.30772 -1.06157 -2.24104 0
M  V30 19 O -3.53538 -2.02662 -2.98617 0
M  V30 20 C -4.39107 -0.67576 -1.25857 0 CFG=2
M  V30 21 C -3.72237 0.193227 -0.185349 0
M  V30 22 C -4.73178 0.615957 0.837767 0
M  V30 23 C -5.83811 1.47891 0.245238 0
M  V30 24 N -6.73256 1.82609 1.32279 0
M  V30 25 C -7.50569 0.819703 1.92981 0
M  V30 26 N -8.70703 0.387542 1.27262 0
M  V30 27 N -7.1461 0.304982 3.05729 0
M  V30 28 N -4.98865 -1.76583 -0.69131 0
M  V30 29 C -5.58807 -2.84865 -0.127643 0
M  V30 30 O -6.84363 -3.06663 0.0236384 0
M  V30 31 C -4.74742 -3.98833 0.416558 0
M  V30 32 N -3.34291 -3.70569 0.217884 0
M  V30 33 C 4.49864 -0.161411 0.653641 0
M  V30 34 O 3.59662 -0.680389 1.3668 0
M  V30 35 N 5.49997 -1.02367 0.0891066 0
M  V30 36 C 6.56401 -0.590136 -0.792595 0
M  V30 37 C 7.69612 -1.54581 -0.402721 0
M  V30 38 C 6.9201 -2.84741 -0.330154 0
M  V30 39 C 5.6053 -2.43685 0.305884 0 CFG=1
M  V30 40 C 5.74322 -2.78492 1.75655 0
M  V30 41 O 5.83628 -1.83699 2.73945 0
M  V30 42 O 5.77303 -4.00845 2.04626 0
M  V30 43 H 5.28479 3.16628 1.27991 0
M  V30 44 H 4.14107 2.97113 3.17565 0
M  V30 45 H 3.36236 1.51342 2.51248 0
M  V30 46 H 4.90898 1.36526 3.53738 0
M  V30 47 H 6.48816 1.19788 2.71905 0
M  V30 48 H 5.18668 1.37287 -0.539714 0
M  V30 49 H 2.84246 2.55879 0.767936 0
M  V30 50 H 1.47597 2.67069 -2.43648 0
M  V30 51 H 1.36217 4.10718 -0.567069 0
M  V30 52 H 0.587748 2.92264 0.525605 0
M  V30 53 H -2.02216 4.3265 0.363389 0
M  V30 54 H -0.583524 1.15301 -1.03625 0
M  V30 55 H -0.724695 -1.6142 -3.22409 0
M  V30 56 H -1.34691 -0.288189 -4.2693 0
M  V30 57 H -2.02309 0.439901 -1.57886 0
M  V30 58 H -5.06448 0.0680275 -1.82285 0
M  V30 59 H -2.91532 -0.361514 0.273249 0
M  V30 60 H -3.35357 1.14655 -0.707683 0
M  V30 61 H -4.22901 1.11941 1.67877 0
M  V30 62 H -5.18448 -0.340986 1.2213 0
M  V30 63 H -6.35985 1.05142 -0.612789 0
M  V30 64 H -5.39978 2.45806 -0.122399 0
M  V30 65 H -6.83088 2.80621 1.68272 0
M  V30 66 H -9.59569 0.850952 1.48566 0
M  V30 67 H -8.65881 -0.387087 0.590035 0
M  V30 68 H -7.78293 -0.447886 3.45476 0
M  V30 69 H -6.22238 -1.2179 -0.906133 0
M  V30 70 H -4.98084 -4.92751 -0.0864132 0
M  V30 71 H -4.97627 -4.10016 1.51322 0
M  V30 72 H -3.14817 -3.8448 -0.813584 0
M  V30 73 H -2.73886 -4.4079 0.719802 0
M  V30 74 H 6.90774 0.424969 -0.673194 0
M  V30 75 H 6.26245 -0.789789 -1.85554 0
M  V30 76 H 8.48576 -1.58393 -1.1823 0
M  V30 77 H 8.04367 -1.19398 0.572856 0
M  V30 78 H 7.47782 -3.59166 0.308256 0
M  V30 79 H 6.79579 -3.21952 -1.36459 0
M  V30 80 H 4.80278 -3.00139 -0.154225 0
M  V30 81 H 6.62288 -1.90167 3.38166 0
M  V30 END ATOM
M  V30 BEGIN BOND
M  V30 1 1 1 2
M  V30 2 1 1 3
M  V30 3 1 1 4
M  V30 4 1 4 5
M  V30 5 1 5 6
M  V30 6 2 6 7
M  V30 7 1 6 8
M  V30 8 1 8 9
M  V30 9 1 9 10
M  V30 10 1 10 11
M  V30 11 2 10 12
M  V30 12 1 8 13
M  V30 13 1 13 14
M  V30 14 2 14 15
M  V30 15 1 14 16
M  V30 16 1 16 17
M  V30 17 1 17 18
M  V30 18 2 18 19
M  V30 19 1 18 20
M  V30 20 1 20 21
M  V30 21 1 21 22
M  V30 22 1 22 23
M  V30 23 1 23 24
M  V30 24 1 24 25
M  V30 25 1 25 26
M  V30 26 2 25 27 CFG=2
M  V30 27 1 20 28
M  V30 28 1 28 29
M  V30 29 2 29 30
M  V30 30 1 29 31
M  V30 31 1 31 32
M  V30 32 1 4 33
M  V30 33 2 33 34
M  V30 34 1 33 35
M  V30 35 1 35 36
M  V30 36 1 36 37
M  V30 37 1 37 38
M  V30 38 1 38 39
M  V30 39 1 39 40
M  V30 40 1 40 41
M  V30 41 2 40 42
M  V30 42 1 39 35
M  V30 43 1 1 43 CFG=3
M  V30 44 1 2 44
M  V30 45 1 2 45
M  V30 46 1 2 46
M  V30 47 1 3 47
M  V30 48 1 4 48 CFG=3
M  V30 49 1 5 49
M  V30 50 1 8 50 CFG=3
M  V30 51 1 9 51
M  V30 52 1 9 52
M  V30 53 1 11 53
M  V30 54 1 13 54
M  V30 55 1 16 55
M  V30 56 1 16 56
M  V30 57 1 17 57
M  V30 58 1 20 58 CFG=3
M  V30 59 1 21 59
M  V30 60 1 21 60
M  V30 61 1 22 61
M  V30 62 1 22 62
M  V30 63 1 23 63
M  V30 64 1 23 64
M  V30 65 1 24 65
M  V30 66 1 26 66
M  V30 67 1 26 67
M  V30 68 1 27 68
M  V30 69 1 28 69
M  V30 70 1 31 70
M  V30 71 1 31 71
M  V30 72 1 32 72
M  V30 73 1 32 73
M  V30 74 1 36 74
M  V30 75 1 36 75
M  V30 76 1 37 76
M  V30 77 1 37 77
M  V30 78 1 38 78
M  V30 79 1 38 79
M  V30 80 1 39 80 CFG=3
M  V30 81 1 41 81
M  V30 END BOND
M  V30 END CTAB
M  END
