
     RDKit          3D

  0  0  0  0  0  0  0  0  0  0999 V3000
M  V30 BEGIN CTAB
M  V30 COUNTS 31 31 0 0 0
M  V30 BEGIN ATOM
M  V30 1 N 4.77129 1.3202 1.31512 0
M  V30 2 N 3.44169 1.2085 1.76672 0
M  V30 3 C 2.53135 0.287142 1.21678 0
M  V30 4 O 2.8876 -0.471442 0.293976 0
M  V30 5 C 1.15676 0.220656 1.73348 0
M  V30 6 C 0.314727 -0.80388 1.04958 0
M  V30 7 N 0.167183 -0.59649 -0.353948 0
M  V30 8 C -0.65782 -1.63097 -0.922171 0
M  V30 9 C -2.12906 -1.40772 -0.658389 0
M  V30 10 C -2.52469 0.0362242 -0.89348 0
M  V30 11 C -1.37147 0.664925 -1.67994 0
M  V30 12 C -0.183427 0.725268 -0.743831 0
M  V30 13 N -3.71897 0.171056 -1.67264 0
M  V30 14 H 4.81757 0.782853 0.413642 0
M  V30 15 H 4.95771 2.32646 1.03621 0
M  V30 16 H 3.16491 1.84926 2.53598 0
M  V30 17 H 0.692616 1.22219 1.75636 0
M  V30 18 H 1.23688 -0.0909666 2.81432 0
M  V30 19 H -0.648522 -0.898351 1.56052 0
M  V30 20 H 0.832132 -1.796 1.18406 0
M  V30 21 H -0.376253 -2.58629 -0.431958 0
M  V30 22 H -0.452283 -1.7468 -1.99503 0
M  V30 23 H -2.40676 -1.72173 0.377384 0
M  V30 24 H -2.68612 -2.02342 -1.39861 0
M  V30 25 H -2.58504 0.557559 0.0785063 0
M  V30 26 H -1.16615 0.0694684 -2.59362 0
M  V30 27 H -1.7289 1.66864 -1.98451 0
M  V30 28 H -0.465385 1.4005 0.0850737 0
M  V30 29 H 0.631635 1.25156 -1.30863 0
M  V30 30 H -4.42816 0.70863 -1.11743 0
M  V30 31 H -4.07504 -0.697036 -2.08385 0
M  V30 END ATOM
M  V30 BEGIN BOND
M  V30 1 1 1 2
M  V30 2 1 2 3
M  V30 3 2 3 4
M  V30 4 1 3 5
M  V30 5 1 5 6
M  V30 6 1 6 7
M  V30 7 1 7 8
M  V30 8 1 8 9
M  V30 9 1 9 10
M  V30 10 1 10 11
M  V30 11 1 11 12
M  V30 12 1 10 13
M  V30 13 1 12 7
M  V30 14 1 1 14
M  V30 15 1 1 15
M  V30 16 1 2 16
M  V30 17 1 5 17
M  V30 18 1 5 18
M  V30 19 1 6 19
M  V30 20 1 6 20
M  V30 21 1 8 21
M  V30 22 1 8 22
M  V30 23 1 9 23
M  V30 24 1 9 24
M  V30 25 1 10 25
M  V30 26 1 11 26
M  V30 27 1 11 27
M  V30 28 1 12 28
M  V30 29 1 12 29
M  V30 30 1 13 30
M  V30 31 1 13 31
M  V30 END BOND
M  V30 END CTAB
M  END
