
     RDKit          3D

  0  0  0  0  0  0  0  0  0  0999 V3000
M  V30 BEGIN CTAB
M  V30 COUNTS 50 51 0 0 0
M  V30 BEGIN ATOM
M  V30 1 N -3.20288 1.50894 -0.626894 0
M  V30 2 C -3.68993 0.523918 0.214486 0 CFG=1
M  V30 3 C -4.8466 -0.171167 -0.490085 0
M  V30 4 C -5.90375 0.87512 -0.772958 0
M  V30 5 C -5.49322 -1.22306 0.388379 0
M  V30 6 C -4.41417 -0.835272 -1.75568 0
M  V30 7 C -2.62428 -0.422761 0.575762 0
M  V30 8 O -2.98573 -1.34837 1.38831 0
M  V30 9 N -1.29562 -0.423196 0.141494 0
M  V30 10 C -0.6675 0.491942 -0.760947 0
M  V30 11 C 0.761735 0.0997544 -1.09962 0
M  V30 12 N 1.54762 -0.201646 0.0591395 0
M  V30 13 C 0.879775 -0.866213 1.17008 0
M  V30 14 C -0.409581 -1.48559 0.668031 0
M  V30 15 C 2.90976 0.105222 0.164728 0
M  V30 16 C 3.58867 -0.135737 1.34599 0
M  V30 17 C 4.93568 0.144512 1.50653 0
M  V30 18 C 5.64486 0.68354 0.464164 0
M  V30 19 C 5.01167 0.934329 -0.712597 0
M  V30 20 C 3.64936 0.646632 -0.862911 0
M  V30 21 S 7.36225 1.04261 0.664787 0
M  V30 22 O 7.67688 1.38553 2.09462 0
M  V30 23 O 7.71656 2.26825 -0.153461 0
M  V30 24 N 8.32134 -0.309857 0.222264 0
M  V30 25 H -2.91484 2.37436 -0.323996 0
M  V30 26 H -3.40208 1.40288 -1.58125 0
M  V30 27 H -4.09998 0.977777 1.1699 0
M  V30 28 H -5.96286 1.11182 -1.86223 0
M  V30 29 H -5.68459 1.82109 -0.226398 0
M  V30 30 H -6.9131 0.558548 -0.43579 0
M  V30 31 H -6.54732 -1.32503 0.00613254 0
M  V30 32 H -5.57628 -0.92395 1.4325 0
M  V30 33 H -4.98476 -2.20604 0.232745 0
M  V30 34 H -3.56179 -1.5248 -1.51762 0
M  V30 35 H -5.24312 -1.51192 -2.07486 0
M  V30 36 H -4.21451 -0.167662 -2.59423 0
M  V30 37 H -0.665391 1.54728 -0.431838 0
M  V30 38 H -1.1951 0.478076 -1.76028 0
M  V30 39 H 0.78836 -0.695934 -1.86641 0
M  V30 40 H 1.19517 1.02325 -1.5831 0
M  V30 41 H 1.53053 -1.73338 1.45748 0
M  V30 42 H 0.70449 -0.190653 2.00764 0
M  V30 43 H -0.159283 -2.13807 -0.176657 0
M  V30 44 H -0.896357 -1.98998 1.502 0
M  V30 45 H 3.03326 -0.561891 2.17518 0
M  V30 46 H 5.41126 -0.069447 2.46397 0
M  V30 47 H 5.55252 1.35697 -1.54075 0
M  V30 48 H 3.18528 0.862286 -1.8237 0
M  V30 49 H 8.23598 -1.02064 0.98436 0
M  V30 50 H 7.91161 -0.742376 -0.639173 0
M  V30 END ATOM
M  V30 BEGIN BOND
M  V30 1 1 1 2
M  V30 2 1 2 3
M  V30 3 1 3 4
M  V30 4 1 3 5
M  V30 5 1 3 6
M  V30 6 1 2 7
M  V30 7 2 7 8
M  V30 8 1 7 9
M  V30 9 1 9 10
M  V30 10 1 10 11
M  V30 11 1 11 12
M  V30 12 1 12 13
M  V30 13 1 13 14
M  V30 14 1 12 15
M  V30 15 2 15 16
M  V30 16 1 16 17
M  V30 17 2 17 18
M  V30 18 1 18 19
M  V30 19 2 19 20
M  V30 20 1 18 21
M  V30 21 2 21 22
M  V30 22 2 21 23
M  V30 23 1 21 24
M  V30 24 1 14 9
M  V30 25 1 20 15
M  V30 26 1 1 25
M  V30 27 1 1 26
M  V30 28 1 2 27 CFG=1
M  V30 29 1 4 28
M  V30 30 1 4 29
M  V30 31 1 4 30
M  V30 32 1 5 31
M  V30 33 1 5 32
M  V30 34 1 5 33
M  V30 35 1 6 34
M  V30 36 1 6 35
M  V30 37 1 6 36
M  V30 38 1 10 37
M  V30 39 1 10 38
M  V30 40 1 11 39
M  V30 41 1 11 40
M  V30 42 1 13 41
M  V30 43 1 13 42
M  V30 44 1 14 43
M  V30 45 1 14 44
M  V30 46 1 16 45
M  V30 47 1 17 46
M  V30 48 1 19 47
M  V30 49 1 20 48
M  V30 50 1 24 49
M  V30 51 1 24 50
M  V30 END BOND
M  V30 END CTAB
M  END
