
     RDKit          3D

  0  0  0  0  0  0  0  0  0  0999 V3000
M  V30 BEGIN CTAB
M  V30 COUNTS 21 21 0 0 0
M  V30 BEGIN ATOM
M  V30 1 Cl 4.54863 -0.570316 0.874017 0
M  V30 2 C 2.84929 -0.338178 0.456558 0
M  V30 3 C 1.85558 -1.09966 1.0338 0
M  V30 4 C 0.507143 -0.952176 0.736184 0
M  V30 5 C 0.121122 -0.00180246 -0.180511 0
M  V30 6 C 1.12275 0.772101 -0.768086 0
M  V30 7 C 2.45527 0.609803 -0.458753 0
M  V30 8 N 0.751588 1.75956 -1.71674 0
M  V30 9 N -1.23349 0.206805 -0.529653 0
M  V30 10 S -2.53637 -0.784742 -0.0763377 0
M  V30 11 O -3.65767 -0.574281 -1.08802 0
M  V30 12 O -2.23865 -2.23764 -0.0165264 0
M  V30 13 N -3.1784 -0.287442 1.44443 0
M  V30 14 H 2.11719 -1.85092 1.75306 0
M  V30 15 H -0.243592 -1.58402 1.2274 0
M  V30 16 H 3.24145 1.20451 -0.908284 0
M  V30 17 H 0.496572 1.4396 -2.67028 0
M  V30 18 H 0.750454 2.75362 -1.42012 0
M  V30 19 H -1.44763 1.06156 -1.12555 0
M  V30 20 H -3.85148 0.497712 1.31038 0
M  V30 21 H -2.42976 -0.0240934 2.12304 0
M  V30 END ATOM
M  V30 BEGIN BOND
M  V30 1 1 1 2
M  V30 2 2 2 3
M  V30 3 1 3 4
M  V30 4 2 4 5
M  V30 5 1 5 6
M  V30 6 2 6 7
M  V30 7 1 6 8
M  V30 8 1 5 9
M  V30 9 1 9 10
M  V30 10 2 10 11
M  V30 11 2 10 12
M  V30 12 1 10 13
M  V30 13 1 7 2
M  V30 14 1 3 14
M  V30 15 1 4 15
M  V30 16 1 7 16
M  V30 17 1 8 17
M  V30 18 1 8 18
M  V30 19 1 9 19
M  V30 20 1 13 20
M  V30 21 1 13 21
M  V30 END BOND
M  V30 END CTAB
M  END
