
     RDKit          3D

  0  0  0  0  0  0  0  0  0  0999 V3000
M  V30 BEGIN CTAB
M  V30 COUNTS 77 81 0 0 0
M  V30 BEGIN ATOM
M  V30 1 C -6.83726 5.32251 0.324381 0
M  V30 2 C -8.24016 4.81006 0.157806 0
M  V30 3 C -8.31766 3.71113 -0.87379 0
M  V30 4 C -7.42335 2.54271 -0.436496 0
M  V30 5 C -7.48138 1.43225 -1.43693 0
M  V30 6 C -6.6237 0.27887 -1.04234 0
M  V30 7 C -5.18602 0.679521 -0.922981 0
M  V30 8 C -4.3307 -0.484079 -0.539899 0
M  V30 9 C -4.07138 -0.757926 0.783426 0
M  V30 10 C -3.27712 -1.84935 1.16225 0
M  V30 11 C -2.73204 -2.68158 0.212872 0
M  V30 12 C -3.00387 -2.39123 -1.12583 0
M  V30 13 C -3.7844 -1.31823 -1.49692 0
M  V30 14 C -1.92698 -3.842 0.541523 0
M  V30 15 C -2.58343 -5.00004 0.859491 0
M  V30 16 C -4.03773 -4.9827 0.871395 0
M  V30 17 N -5.2021 -4.98918 0.88929 0
M  V30 18 C -1.95769 -6.18669 1.17292 0
M  V30 19 N -2.73245 -7.3336 1.49035 0
M  V30 20 N -0.623579 -6.1548 1.15125 0
M  V30 21 C 0.0659095 -5.01451 0.838385 0
M  V30 22 C -0.519927 -3.81831 0.522745 0
M  V30 23 C 0.290694 -2.78879 0.241079 0
M  V30 24 N -0.154198 -1.43518 -0.105932 0
M  V30 25 C 1.64268 -3.02166 0.291393 0
M  V30 26 S 1.7341 -4.66506 0.729721 0
M  V30 27 C 2.74263 -2.06644 0.0379921 0
M  V30 28 O 2.45842 -0.899589 -0.242079 0
M  V30 29 N 4.05235 -2.54317 0.130907 0
M  V30 30 C 5.24925 -1.82313 -0.0535139 0
M  V30 31 C 5.28883 -0.453245 0.011065 0
M  V30 32 C 6.50883 0.222162 -0.206062 0
M  V30 33 C 7.66604 -0.452197 -0.479585 0
M  V30 34 C 7.59906 -1.86575 -0.541378 0
M  V30 35 C 6.4215 -2.53475 -0.333782 0
M  V30 36 C 8.95625 0.157382 -0.638977 0
M  V30 37 O 9.85057 -0.662827 -1.17339 0
M  V30 38 C 9.47209 1.4571 -0.339459 0
M  V30 39 C 8.91845 2.49404 0.228401 0
M  V30 40 C 9.70884 3.74772 0.412457 0
M  V30 41 C 9.27546 4.91128 0.986328 0
M  V30 42 C 10.1498 5.92205 1.05136 0
M  V30 43 C 11.4026 5.70667 0.539132 0
M  V30 44 S 11.3163 4.09746 -0.016986 0
M  V30 45 H -6.25351 4.61863 0.983305 0
M  V30 46 H -6.37512 5.41199 -0.685562 0
M  V30 47 H -6.86516 6.34102 0.743661 0
M  V30 48 H -8.88994 5.65647 -0.116383 0
M  V30 49 H -8.61103 4.44101 1.14791 0
M  V30 50 H -7.98079 4.13779 -1.84415 0
M  V30 51 H -9.36056 3.38003 -0.999344 0
M  V30 52 H -6.41316 2.95644 -0.318004 0
M  V30 53 H -7.7858 2.23261 0.554848 0
M  V30 54 H -8.49954 1.051 -1.61122 0
M  V30 55 H -7.12746 1.84124 -2.42255 0
M  V30 56 H -6.67957 -0.554794 -1.771 0
M  V30 57 H -6.96322 -0.0682441 -0.0436446 0
M  V30 58 H -5.03627 1.47119 -0.15148 0
M  V30 59 H -4.85122 1.06313 -1.90547 0
M  V30 60 H -4.50173 -0.102168 1.52503 0
M  V30 61 H -3.09194 -2.03704 2.22025 0
M  V30 62 H -2.57485 -3.04532 -1.86651 0
M  V30 63 H -3.99779 -1.08905 -2.5486 0
M  V30 64 H -2.41837 -7.95236 2.27095 0
M  V30 65 H -3.59333 -7.59028 0.989322 0
M  V30 66 H -0.197568 -1.10635 -1.07755 0
M  V30 67 H -0.421881 -0.790551 0.664606 0
M  V30 68 H 4.15749 -3.58195 0.376848 0
M  V30 69 H 4.44221 0.173075 0.231014 0
M  V30 70 H 6.49233 1.29121 -0.187411 0
M  V30 71 H 8.48075 -2.45227 -0.754351 0
M  V30 72 H 6.33727 -3.61027 -0.375484 0
M  V30 73 H 10.5533 1.6394 -0.642562 0
M  V30 74 H 7.92683 2.45881 0.589755 0
M  V30 75 H 8.23634 4.98752 1.37425 0
M  V30 76 H 9.90545 6.91699 1.49859 0
M  V30 77 H 12.2343 6.4342 0.515304 0
M  V30 END ATOM
M  V30 BEGIN BOND
M  V30 1 1 1 2
M  V30 2 1 2 3
M  V30 3 1 3 4
M  V30 4 1 4 5
M  V30 5 1 5 6
M  V30 6 1 6 7
M  V30 7 1 7 8
M  V30 8 2 8 9
M  V30 9 1 9 10
M  V30 10 2 10 11
M  V30 11 1 11 12
M  V30 12 2 12 13
M  V30 13 1 11 14
M  V30 14 2 14 15
M  V30 15 1 15 16
M  V30 16 3 16 17
M  V30 17 1 15 18
M  V30 18 1 18 19
M  V30 19 2 18 20
M  V30 20 1 20 21
M  V30 21 2 21 22
M  V30 22 1 22 23
M  V30 23 1 23 24
M  V30 24 2 23 25
M  V30 25 1 25 26
M  V30 26 1 25 27
M  V30 27 2 27 28
M  V30 28 1 27 29
M  V30 29 1 29 30
M  V30 30 2 30 31
M  V30 31 1 31 32
M  V30 32 2 32 33
M  V30 33 1 33 34
M  V30 34 2 34 35
M  V30 35 1 33 36
M  V30 36 2 36 37
M  V30 37 1 36 38
M  V30 38 2 38 39
M  V30 39 1 39 40
M  V30 40 2 40 41
M  V30 41 1 41 42
M  V30 42 2 42 43
M  V30 43 1 43 44
M  V30 44 1 13 8
M  V30 45 1 22 14
M  V30 46 1 35 30
M  V30 47 1 44 40
M  V30 48 1 26 21
M  V30 49 1 1 45
M  V30 50 1 1 46
M  V30 51 1 1 47
M  V30 52 1 2 48
M  V30 53 1 2 49
M  V30 54 1 3 50
M  V30 55 1 3 51
M  V30 56 1 4 52
M  V30 57 1 4 53
M  V30 58 1 5 54
M  V30 59 1 5 55
M  V30 60 1 6 56
M  V30 61 1 6 57
M  V30 62 1 7 58
M  V30 63 1 7 59
M  V30 64 1 9 60
M  V30 65 1 10 61
M  V30 66 1 12 62
M  V30 67 1 13 63
M  V30 68 1 19 64
M  V30 69 1 19 65
M  V30 70 1 24 66
M  V30 71 1 24 67
M  V30 72 1 29 68
M  V30 73 1 31 69
M  V30 74 1 32 70
M  V30 75 1 34 71
M  V30 76 1 35 72
M  V30 77 1 38 73
M  V30 78 1 39 74
M  V30 79 1 41 75
M  V30 80 1 42 76
M  V30 81 1 43 77
M  V30 END BOND
M  V30 END CTAB
M  END
