
     RDKit          3D

  0  0  0  0  0  0  0  0  0  0999 V3000
M  V30 BEGIN CTAB
M  V30 COUNTS 28 28 0 0 0
M  V30 BEGIN ATOM
M  V30 1 C 1.60157 -1.93446 -0.65806 0
M  V30 2 C 1.57295 -0.786251 0.329119 0
M  V30 3 C 0.668007 0.309525 -0.0602618 0
M  V30 4 C -0.730216 0.108312 -0.244466 0
M  V30 5 C -1.2785 0.457164 -1.47167 0
M  V30 6 C -2.63835 0.303047 -1.74613 0
M  V30 7 C -3.48437 -0.201698 -0.806151 0
M  V30 8 N -2.95955 -0.541337 0.383714 0
M  V30 9 C -1.64886 -0.393147 0.64894 0
M  V30 10 N -1.18254 -0.772791 1.8989 0
M  V30 11 C 0.840752 1.45793 0.953446 0
M  V30 12 N 2.23609 1.80522 1.10863 0
M  V30 13 O 1.21494 0.837494 -1.24427 0
M  V30 14 H 2.32179 -1.76591 -1.48672 0
M  V30 15 H 0.599638 -1.99455 -1.13668 0
M  V30 16 H 1.89675 -2.89272 -0.196215 0
M  V30 17 H 2.61215 -0.336449 0.232504 0
M  V30 18 H 1.55182 -1.10452 1.37513 0
M  V30 19 H -0.696724 0.866425 -2.28696 0
M  V30 20 H -3.06019 0.578409 -2.70922 0
M  V30 21 H -4.53522 -0.313412 -1.03804 0
M  V30 22 H -0.672661 -1.66543 2.04659 0
M  V30 23 H -1.34073 -0.159191 2.72186 0
M  V30 24 H 0.495981 1.17165 1.96648 0
M  V30 25 H 0.291584 2.35253 0.654427 0
M  V30 26 H 2.43111 2.72215 0.660522 0
M  V30 27 H 2.59778 1.70603 2.06086 0
M  V30 28 H 1.295 0.185977 -1.95629 0
M  V30 END ATOM
M  V30 BEGIN BOND
M  V30 1 1 1 2
M  V30 2 1 2 3
M  V30 3 1 3 4
M  V30 4 2 4 5
M  V30 5 1 5 6
M  V30 6 2 6 7
M  V30 7 1 7 8
M  V30 8 2 8 9
M  V30 9 1 9 10
M  V30 10 1 3 11
M  V30 11 1 11 12
M  V30 12 1 3 13
M  V30 13 1 9 4
M  V30 14 1 1 14
M  V30 15 1 1 15
M  V30 16 1 1 16
M  V30 17 1 2 17
M  V30 18 1 2 18
M  V30 19 1 5 19
M  V30 20 1 6 20
M  V30 21 1 7 21
M  V30 22 1 10 22
M  V30 23 1 10 23
M  V30 24 1 11 24
M  V30 25 1 11 25
M  V30 26 1 12 26
M  V30 27 1 12 27
M  V30 28 1 13 28
M  V30 END BOND
M  V30 END CTAB
M  END
