
     RDKit          3D

  0  0  0  0  0  0  0  0  0  0999 V3000
M  V30 BEGIN CTAB
M  V30 COUNTS 23 23 0 0 0
M  V30 BEGIN ATOM
M  V30 1 N -5.31777 -0.39518 -0.0165429 0
M  V30 2 N -3.94955 -0.630794 -0.0378678 0
M  V30 3 C -3.10482 0.234054 0.714052 0
M  V30 4 O -3.56786 1.19049 1.37984 0
M  V30 5 C -1.64912 0.0125344 0.725986 0
M  V30 6 S -0.888855 1.26117 -0.39746 0
M  V30 7 C 0.866412 0.906622 -0.36338 0
M  V30 8 C 1.36892 0.0433395 -1.28878 0
M  V30 9 C 2.70384 -0.290952 -1.2378 0
M  V30 10 C 3.47718 0.283011 -0.230521 0
M  V30 11 C 2.91453 1.15297 0.675019 0
M  V30 12 N 1.6063 1.45677 0.598149 0
M  V30 13 N 4.86399 -0.0630285 -0.125142 0
M  V30 14 H -5.52044 0.422927 0.572758 0
M  V30 15 H -5.74456 -1.28551 0.364266 0
M  V30 16 H -3.5906 -1.42874 -0.598769 0
M  V30 17 H -1.19915 0.077255 1.73513 0
M  V30 18 H -1.36752 -0.986358 0.287018 0
M  V30 19 H 0.721561 -0.383435 -2.06605 0
M  V30 20 H 3.13271 -0.978724 -1.96323 0
M  V30 21 H 3.58451 1.56365 1.42278 0
M  V30 22 H 5.41479 -0.167622 -0.993595 0
M  V30 23 H 5.24549 -0.19794 0.844133 0
M  V30 END ATOM
M  V30 BEGIN BOND
M  V30 1 1 1 2
M  V30 2 1 2 3
M  V30 3 2 3 4
M  V30 4 1 3 5
M  V30 5 1 5 6
M  V30 6 1 6 7
M  V30 7 2 7 8
M  V30 8 1 8 9
M  V30 9 2 9 10
M  V30 10 1 10 11
M  V30 11 2 11 12
M  V30 12 1 10 13
M  V30 13 1 12 7
M  V30 14 1 1 14
M  V30 15 1 1 15
M  V30 16 1 2 16
M  V30 17 1 5 17
M  V30 18 1 5 18
M  V30 19 1 8 19
M  V30 20 1 9 20
M  V30 21 1 11 21
M  V30 22 1 13 22
M  V30 23 1 13 23
M  V30 END BOND
M  V30 END CTAB
M  END
