
     RDKit          3D

  0  0  0  0  0  0  0  0  0  0999 V3000
M  V30 BEGIN CTAB
M  V30 COUNTS 22 23 0 0 0
M  V30 BEGIN ATOM
M  V30 1 N 3.94099 1.41693 0.389352 0
M  V30 2 C 2.96311 0.526583 -0.156027 0
M  V30 3 N 2.81232 0.179454 -1.44572 0
M  V30 4 N 1.78548 -0.669515 -1.52464 0
M  V30 5 C 1.27438 -0.872289 -0.301072 0
M  V30 6 N 2.01512 -0.124822 0.531692 0
M  V30 7 C 0.144307 -1.71046 0.164493 0
M  V30 8 N -1.10988 -0.986768 0.156005 0
M  V30 9 N -1.97088 -0.907536 -0.844481 0
M  V30 10 C -3.0346 -0.146315 -0.50049 0
M  V30 11 C -2.83541 0.283518 0.798508 0
M  V30 12 C -1.62332 -0.264592 1.16706 0
M  V30 13 N -3.69397 1.10356 1.56603 0
M  V30 14 H 3.83457 2.45357 0.358081 0
M  V30 15 H 4.78773 1.03479 0.833025 0
M  V30 16 H 3.41081 0.528373 -2.23806 0
M  V30 17 H 0.039174 -2.54209 -0.566439 0
M  V30 18 H 0.390052 -2.12143 1.15542 0
M  V30 19 H -3.90467 0.109598 -1.09262 0
M  V30 20 H -1.17266 -0.116474 2.14233 0
M  V30 21 H -4.60194 1.41813 1.16853 0
M  V30 22 H -3.4507 1.40778 2.5225 0
M  V30 END ATOM
M  V30 BEGIN BOND
M  V30 1 1 1 2
M  V30 2 1 2 3
M  V30 3 1 3 4
M  V30 4 2 4 5
M  V30 5 1 5 6
M  V30 6 1 5 7
M  V30 7 1 7 8
M  V30 8 1 8 9
M  V30 9 2 9 10
M  V30 10 1 10 11
M  V30 11 2 11 12
M  V30 12 1 11 13
M  V30 13 2 6 2
M  V30 14 1 12 8
M  V30 15 1 1 14
M  V30 16 1 1 15
M  V30 17 1 3 16
M  V30 18 1 7 17
M  V30 19 1 7 18
M  V30 20 1 10 19
M  V30 21 1 12 20
M  V30 22 1 13 21
M  V30 23 1 13 22
M  V30 END BOND
M  V30 END CTAB
M  END
