
     RDKit          3D

  0  0  0  0  0  0  0  0  0  0999 V3000
M  V30 BEGIN CTAB
M  V30 COUNTS 31 31 0 0 0
M  V30 BEGIN ATOM
M  V30 1 C 2.55247 0.844197 1.68511 0
M  V30 2 S 1.69362 -0.726225 1.55274 0
M  V30 3 C 1.15018 -1.04572 -0.168211 0
M  V30 4 C 0.114441 -0.0951748 -0.623001 0
M  V30 5 C -1.14579 -0.016342 0.0827709 0
M  V30 6 C -1.49009 -0.810371 1.13441 0
M  V30 7 N -2.67854 -0.741849 1.8041 0
M  V30 8 C -3.54637 0.190445 1.36309 0
M  V30 9 C -3.2791 1.02287 0.318869 0
M  V30 10 C -2.08124 0.93861 -0.340068 0
M  V30 11 N -1.7959 1.80498 -1.43577 0
M  V30 12 N 0.752444 1.23561 -0.625892 0
M  V30 13 C 2.36457 -0.784286 -1.09362 0
M  V30 14 C 0.841623 -2.49386 -0.287479 0
M  V30 15 H 2.96805 1.20411 0.717432 0
M  V30 16 H 1.80937 1.6086 2.0166 0
M  V30 17 H 3.35653 0.833167 2.45311 0
M  V30 18 H -0.112193 -0.295689 -1.70373 0
M  V30 19 H -0.834381 -1.58756 1.54084 0
M  V30 20 H -4.50086 0.289089 1.85514 0
M  V30 21 H -4.00156 1.74969 0.0037327 0
M  V30 22 H -1.8285 1.50073 -2.42121 0
M  V30 23 H -1.54584 2.78246 -1.21988 0
M  V30 24 H 0.797457 1.64952 -1.56398 0
M  V30 25 H 0.348131 1.84199 0.104044 0
M  V30 26 H 3.18262 -1.4742 -0.887849 0
M  V30 27 H 2.6108 0.274847 -1.06131 0
M  V30 28 H 1.95532 -1.0036 -2.12336 0
M  V30 29 H 1.61546 -2.98788 -0.903514 0
M  V30 30 H -0.120495 -2.66452 -0.849474 0
M  V30 31 H 0.847784 -3.04364 0.676343 0
M  V30 END ATOM
M  V30 BEGIN BOND
M  V30 1 1 1 2
M  V30 2 1 2 3
M  V30 3 1 3 4
M  V30 4 1 4 5
M  V30 5 2 5 6
M  V30 6 1 6 7
M  V30 7 2 7 8
M  V30 8 1 8 9
M  V30 9 2 9 10
M  V30 10 1 10 11
M  V30 11 1 4 12
M  V30 12 1 3 13
M  V30 13 1 3 14
M  V30 14 1 10 5
M  V30 15 1 1 15
M  V30 16 1 1 16
M  V30 17 1 1 17
M  V30 18 1 4 18
M  V30 19 1 6 19
M  V30 20 1 8 20
M  V30 21 1 9 21
M  V30 22 1 11 22
M  V30 23 1 11 23
M  V30 24 1 12 24
M  V30 25 1 12 25
M  V30 26 1 13 26
M  V30 27 1 13 27
M  V30 28 1 13 28
M  V30 29 1 14 29
M  V30 30 1 14 30
M  V30 31 1 14 31
M  V30 END BOND
M  V30 END CTAB
M  END
