
     RDKit          3D

  0  0  0  0  0  0  0  0  0  0999 V3000
M  V30 BEGIN CTAB
M  V30 COUNTS 28 28 0 0 0
M  V30 BEGIN ATOM
M  V30 1 C 3.8132 -0.093089 0.102283 0
M  V30 2 O 2.63004 0.0201728 0.857775 0
M  V30 3 C 1.536 -0.0844528 0.0393315 0
M  V30 4 C 0.70501 1.20069 0.0284496 0
M  V30 5 C -0.665559 0.617264 -0.336008 0
M  V30 6 N -0.755238 -0.489012 0.5417 0
M  V30 7 C 0.539376 -1.10616 0.483228 0
M  V30 8 S -2.02455 -1.60152 0.208514 0
M  V30 9 O -1.91654 -2.67463 1.28866 0
M  V30 10 O -3.374 -0.966885 0.373539 0
M  V30 11 N -1.93426 -2.3492 -1.28436 0
M  V30 12 C -1.7496 1.64513 -0.170173 0
M  V30 13 N -1.86563 2.14561 1.15829 0
M  V30 14 H 3.83491 -1.09102 -0.415238 0
M  V30 15 H 4.70372 -0.0880829 0.762141 0
M  V30 16 H 3.85187 0.68919 -0.651487 0
M  V30 17 H 1.86673 -0.231298 -1.00624 0
M  V30 18 H 0.71975 1.5825 1.05198 0
M  V30 19 H 1.04501 1.90718 -0.729025 0
M  V30 20 H -0.615706 0.296824 -1.39355 0
M  V30 21 H 0.83774 -1.52388 1.46832 0
M  V30 22 H 0.541859 -1.93346 -0.262331 0
M  V30 23 H -1.18761 -3.00811 -1.46025 0
M  V30 24 H -2.46489 -1.97758 -2.05708 0
M  V30 25 H -1.54844 2.51524 -0.840716 0
M  V30 26 H -2.71982 1.23471 -0.494656 0
M  V30 27 H -2.74813 2.70066 1.22651 0
M  V30 28 H -1.05524 2.66318 1.5104 0
M  V30 END ATOM
M  V30 BEGIN BOND
M  V30 1 1 1 2
M  V30 2 1 2 3
M  V30 3 1 3 4
M  V30 4 1 4 5
M  V30 5 1 5 6
M  V30 6 1 6 7
M  V30 7 1 6 8
M  V30 8 2 8 9
M  V30 9 2 8 10
M  V30 10 1 8 11
M  V30 11 1 5 12
M  V30 12 1 12 13
M  V30 13 1 7 3
M  V30 14 1 1 14
M  V30 15 1 1 15
M  V30 16 1 1 16
M  V30 17 1 3 17
M  V30 18 1 4 18
M  V30 19 1 4 19
M  V30 20 1 5 20
M  V30 21 1 7 21
M  V30 22 1 7 22
M  V30 23 1 11 23
M  V30 24 1 11 24
M  V30 25 1 12 25
M  V30 26 1 12 26
M  V30 27 1 13 27
M  V30 28 1 13 28
M  V30 END BOND
M  V30 END CTAB
M  END
