
     RDKit          3D

  0  0  0  0  0  0  0  0  0  0999 V3000
M  V30 BEGIN CTAB
M  V30 COUNTS 38 38 0 0 0
M  V30 BEGIN ATOM
M  V30 1 C -2.30537 1.38859 -0.892405 0
M  V30 2 C -3.02613 0.815225 0.30726 0
M  V30 3 C -3.12012 -0.672011 0.273725 0
M  V30 4 C -1.82443 -1.37045 0.241576 0
M  V30 5 O -1.50653 -2.03224 -0.773604 0
M  V30 6 N -0.940126 -1.30261 1.33622 0
M  V30 7 C 0.33363 -1.98715 1.28899 0
M  V30 8 C 1.36801 -1.29682 0.511813 0
M  V30 9 C 2.03921 -0.254022 1.16708 0
M  V30 10 C 3.02834 0.446896 0.518058 0
M  V30 11 C 3.40145 0.169479 -0.774008 0
M  V30 12 C 2.75287 -0.849206 -1.42963 0
M  V30 13 C 1.75227 -1.55634 -0.767681 0
M  V30 14 S 4.67982 1.10727 -1.5232 0
M  V30 15 O 5.26677 0.264245 -2.6493 0
M  V30 16 O 5.79437 1.39409 -0.5853 0
M  V30 17 N 4.09312 2.54522 -2.26801 0
M  V30 18 C -4.01154 -1.12205 -0.894216 0
M  V30 19 N -2.52687 1.32023 1.54039 0
M  V30 20 H -2.89668 1.24247 -1.83071 0
M  V30 21 H -1.30067 0.988779 -1.03917 0
M  V30 22 H -2.22741 2.48804 -0.762649 0
M  V30 23 H -4.08928 1.19132 0.216934 0
M  V30 24 H -3.7105 -0.969212 1.19097 0
M  V30 25 H -1.18441 -0.761081 2.20161 0
M  V30 26 H 0.729441 -2.09279 2.3417 0
M  V30 27 H 0.173357 -3.04041 0.952368 0
M  V30 28 H 1.77758 0.000765936 2.19036 0
M  V30 29 H 3.54265 1.24658 1.02408 0
M  V30 30 H 3.04098 -1.07222 -2.44567 0
M  V30 31 H 1.27272 -2.35019 -1.30685 0
M  V30 32 H 3.04667 2.63095 -2.22351 0
M  V30 33 H 4.46771 3.3825 -1.75618 0
M  V30 34 H -4.23763 -2.20538 -0.806254 0
M  V30 35 H -3.47071 -0.886744 -1.82575 0
M  V30 36 H -4.95522 -0.556599 -0.788331 0
M  V30 37 H -3.31222 1.60756 2.1991 0
M  V30 38 H -1.91513 2.14732 1.42175 0
M  V30 END ATOM
M  V30 BEGIN BOND
M  V30 1 1 1 2
M  V30 2 1 2 3
M  V30 3 1 3 4
M  V30 4 2 4 5
M  V30 5 1 4 6
M  V30 6 1 6 7
M  V30 7 1 7 8
M  V30 8 2 8 9
M  V30 9 1 9 10
M  V30 10 2 10 11
M  V30 11 1 11 12
M  V30 12 2 12 13
M  V30 13 1 11 14
M  V30 14 2 14 15
M  V30 15 2 14 16
M  V30 16 1 14 17
M  V30 17 1 3 18
M  V30 18 1 2 19
M  V30 19 1 13 8
M  V30 20 1 1 20
M  V30 21 1 1 21
M  V30 22 1 1 22
M  V30 23 1 2 23
M  V30 24 1 3 24
M  V30 25 1 6 25
M  V30 26 1 7 26
M  V30 27 1 7 27
M  V30 28 1 9 28
M  V30 29 1 10 29
M  V30 30 1 12 30
M  V30 31 1 13 31
M  V30 32 1 17 32
M  V30 33 1 17 33
M  V30 34 1 18 34
M  V30 35 1 18 35
M  V30 36 1 18 36
M  V30 37 1 19 37
M  V30 38 1 19 38
M  V30 END BOND
M  V30 END CTAB
M  END
