
     RDKit          3D

  0  0  0  0  0  0  0  0  0  0999 V3000
M  V30 BEGIN CTAB
M  V30 COUNTS 53 57 0 0 0
M  V30 BEGIN ATOM
M  V30 1 N -6.6642 -1.55959 3.59903 0
M  V30 2 C -5.74493 -0.955374 2.71516 0
M  V30 3 N -5.99552 0.318775 2.32418 0
M  V30 4 C -5.1728 0.961607 1.48642 0
M  V30 5 N -5.47859 2.29274 1.10745 0
M  V30 6 C -4.06124 0.302224 1.02639 0
M  V30 7 N -3.17401 0.866198 0.177356 0
M  V30 8 C -2.09957 0.201791 -0.258116 0
M  V30 9 C -1.16402 0.921658 -1.21943 0
M  V30 10 N -0.0580832 0.171987 -1.62741 0
M  V30 11 C -0.16359 -0.667021 -2.80921 0
M  V30 12 C 0.394901 -1.9131 -3.01046 0
M  V30 13 C 0.18348 -2.5908 -4.19031 0
M  V30 14 C -0.599284 -1.97078 -5.14319 0
M  V30 15 C -1.15374 -0.724991 -4.94071 0
M  V30 16 C -0.940369 -0.0474117 -3.75788 0
M  V30 17 C 1.2901 -2.66531 -2.1078 0
M  V30 18 C 1.97631 -2.16728 -1.06131 0
M  V30 19 C 2.0105 -0.784337 -0.558683 0
M  V30 20 C 1.12339 0.260498 -0.788368 0
M  V30 21 C 1.27813 1.50218 -0.239141 0
M  V30 22 C 2.37605 1.71567 0.583846 0
M  V30 23 C 3.29662 0.721169 0.853659 0
M  V30 24 C 3.08278 -0.516808 0.265621 0
M  V30 25 C 4.44746 0.945646 1.71331 0
M  V30 26 C 5.41071 1.11134 2.42272 0
M  V30 27 C 6.58983 1.28851 3.27571 0
M  V30 28 C 7.06322 -0.0383364 3.70529 0
M  V30 29 O 8.20084 -0.596314 3.13898 0
M  V30 30 O 6.42425 -0.669375 4.59704 0
M  V30 31 C -1.84498 -1.0648 0.127127 0
M  V30 32 N -2.71772 -1.67297 0.985973 0
M  V30 33 C -3.78546 -0.9877 1.40733 0
M  V30 34 N -4.66634 -1.58372 2.26372 0
M  V30 35 H -6.69937 -1.27078 4.59548 0
M  V30 36 H -7.29867 -2.28974 3.2412 0
M  V30 37 H -5.4452 3.08501 1.78174 0
M  V30 38 H -5.74667 2.50201 0.128969 0
M  V30 39 H -1.12548 1.98187 -1.02084 0
M  V30 40 H -1.93549 0.891272 -2.07883 0
M  V30 41 H 0.628491 -3.57608 -4.33872 0
M  V30 42 H -0.79277 -2.4754 -6.09403 0
M  V30 43 H -1.77477 -0.226293 -5.69047 0
M  V30 44 H -1.32519 0.943168 -3.58026 0
M  V30 45 H 1.40285 -3.7195 -2.31045 0
M  V30 46 H 2.58693 -2.86441 -0.510056 0
M  V30 47 H 0.556659 2.2611 -0.463373 0
M  V30 48 H 2.52084 2.67217 1.02519 0
M  V30 49 H 3.7993 -1.32164 0.464977 0
M  V30 50 H 6.3088 1.92437 4.13654 0
M  V30 51 H 7.41811 1.82116 2.73719 0
M  V30 52 H 8.22861 -0.654485 2.12271 0
M  V30 53 H -0.971095 -1.64383 -0.211271 0
M  V30 END ATOM
M  V30 BEGIN BOND
M  V30 1 1 1 2
M  V30 2 2 2 3
M  V30 3 1 3 4
M  V30 4 1 4 5
M  V30 5 2 4 6
M  V30 6 1 6 7
M  V30 7 2 7 8
M  V30 8 1 8 9
M  V30 9 1 9 10
M  V30 10 1 10 11
M  V30 11 1 11 12
M  V30 12 2 12 13
M  V30 13 1 13 14
M  V30 14 2 14 15
M  V30 15 1 15 16
M  V30 16 1 12 17
M  V30 17 2 17 18
M  V30 18 1 18 19
M  V30 19 2 19 20
M  V30 20 1 20 21
M  V30 21 2 21 22
M  V30 22 1 22 23
M  V30 23 2 23 24
M  V30 24 1 23 25
M  V30 25 3 25 26
M  V30 26 1 26 27
M  V30 27 1 27 28
M  V30 28 1 28 29
M  V30 29 2 28 30
M  V30 30 1 8 31
M  V30 31 2 31 32
M  V30 32 1 32 33
M  V30 33 2 33 34
M  V30 34 1 34 2
M  V30 35 1 33 6
M  V30 36 1 20 10
M  V30 37 2 16 11
M  V30 38 1 24 19
M  V30 39 1 1 35
M  V30 40 1 1 36
M  V30 41 1 5 37
M  V30 42 1 5 38
M  V30 43 1 9 39
M  V30 44 1 9 40
M  V30 45 1 13 41
M  V30 46 1 14 42
M  V30 47 1 15 43
M  V30 48 1 16 44
M  V30 49 1 17 45
M  V30 50 1 18 46
M  V30 51 1 21 47
M  V30 52 1 22 48
M  V30 53 1 24 49
M  V30 54 1 27 50
M  V30 55 1 27 51
M  V30 56 1 29 52
M  V30 57 1 31 53
M  V30 END BOND
M  V30 END CTAB
M  END
