
     RDKit          3D

  0  0  0  0  0  0  0  0  0  0999 V3000
M  V30 BEGIN CTAB
M  V30 COUNTS 30 33 0 0 0
M  V30 BEGIN ATOM
M  V30 1 N -4.23596 -0.0708011 0.278185 0
M  V30 2 C -2.9456 -0.647055 0.160696 0
M  V30 3 C -2.81489 -2.03304 0.109396 0
M  V30 4 C -1.55547 -2.5696 -0.00450263 0
M  V30 5 C -0.411388 -1.81316 -0.0710592 0
M  V30 6 C 0.853342 -2.33668 -0.184985 0
M  V30 7 C 1.95329 -1.51774 -0.246258 0
M  V30 8 C 1.83482 -0.143353 -0.196258 0
M  V30 9 C 0.548883 0.37316 -0.0808878 0
M  V30 10 C 0.42512 1.74945 -0.0304143 0
M  V30 11 C -0.825415 2.35317 0.0847898 0
M  V30 12 C -1.9165 1.51786 0.144883 0
M  V30 13 C -1.82209 0.146306 0.0968351 0
M  V30 14 C -0.573487 -0.425535 -0.0172704 0
M  V30 15 C 1.5184 2.56289 -0.0913276 0
M  V30 16 C 2.78333 2.03614 -0.205368 0
M  V30 17 C 2.94525 0.665482 -0.258643 0
M  V30 18 N 4.21314 0.049065 -0.375586 0
M  V30 19 H -4.97525 -0.4741 0.882365 0
M  V30 20 H -4.46917 0.791044 -0.255197 0
M  V30 21 H -3.7247 -2.6117 0.163005 0
M  V30 22 H -1.45415 -3.65201 -0.0445157 0
M  V30 23 H 0.998484 -3.39744 -0.227765 0
M  V30 24 H 2.96402 -1.91054 -0.336545 0
M  V30 25 H -0.918832 3.43526 0.12417 0
M  V30 26 H -2.88451 1.979 0.233881 0
M  V30 27 H 1.43974 3.64609 -0.0530538 0
M  V30 28 H 3.67439 2.67458 -0.255761 0
M  V30 29 H 4.84901 0.243256 -1.16683 0
M  V30 30 H 4.5262 -0.61998 0.34779 0
M  V30 END ATOM
M  V30 BEGIN BOND
M  V30 1 1 1 2
M  V30 2 2 2 3
M  V30 3 1 3 4
M  V30 4 2 4 5
M  V30 5 1 5 6
M  V30 6 2 6 7
M  V30 7 1 7 8
M  V30 8 1 8 9
M  V30 9 1 9 10
M  V30 10 2 10 11
M  V30 11 1 11 12
M  V30 12 2 12 13
M  V30 13 1 13 14
M  V30 14 1 10 15
M  V30 15 2 15 16
M  V30 16 1 16 17
M  V30 17 1 17 18
M  V30 18 1 13 2
M  V30 19 1 14 5
M  V30 20 2 17 8
M  V30 21 2 14 9
M  V30 22 1 1 19
M  V30 23 1 1 20
M  V30 24 1 3 21
M  V30 25 1 4 22
M  V30 26 1 6 23
M  V30 27 1 7 24
M  V30 28 1 11 25
M  V30 29 1 12 26
M  V30 30 1 15 27
M  V30 31 1 16 28
M  V30 32 1 18 29
M  V30 33 1 18 30
M  V30 END BOND
M  V30 END CTAB
M  END
