
     RDKit          3D

  0  0  0  0  0  0  0  0  0  0999 V3000
M  V30 BEGIN CTAB
M  V30 COUNTS 23 23 0 0 0
M  V30 BEGIN ATOM
M  V30 1 N 3.1766 -0.842011 -0.880565 0
M  V30 2 N 3.60524 0.343909 -0.316465 0
M  V30 3 C 2.84994 1.17641 0.25493 0
M  V30 4 S 1.10753 1.09597 0.500992 0
M  V30 5 C 0.419171 -0.392123 -0.213121 0
M  V30 6 C -1.05408 -0.490694 -0.00294378 0
M  V30 7 C -1.55701 -1.11214 1.12025 0
M  V30 8 C -2.90829 -1.20832 1.32311 0
M  V30 9 N -3.75954 -0.694617 0.423511 0
M  V30 10 C -3.34022 -0.0702554 -0.703011 0
M  V30 11 C -1.97625 0.0194639 -0.894586 0
M  V30 12 C -4.29763 0.460287 -1.6304 0
M  V30 13 N -5.07231 0.889765 -2.36757 0
M  V30 14 N 3.50864 2.3539 0.781374 0
M  V30 15 H 3.10714 -1.68208 -0.296164 0
M  V30 16 H 2.91713 -0.920764 -1.90938 0
M  V30 17 H 0.658225 -0.507223 -1.30401 0
M  V30 18 H 0.851563 -1.26267 0.317871 0
M  V30 19 H -0.842217 -1.51455 1.82379 0
M  V30 20 H -3.2413 -1.71299 2.23359 0
M  V30 21 H -1.63338 0.514591 -1.78808 0
M  V30 22 H 3.7932 2.41489 1.7806 0
M  V30 23 H 3.68784 3.14125 0.119521 0
M  V30 END ATOM
M  V30 BEGIN BOND
M  V30 1 1 1 2
M  V30 2 2 2 3 CFG=2
M  V30 3 1 3 4
M  V30 4 1 4 5
M  V30 5 1 5 6
M  V30 6 2 6 7
M  V30 7 1 7 8
M  V30 8 2 8 9
M  V30 9 1 9 10
M  V30 10 2 10 11
M  V30 11 1 10 12
M  V30 12 3 12 13
M  V30 13 1 3 14
M  V30 14 1 11 6
M  V30 15 1 1 15
M  V30 16 1 1 16
M  V30 17 1 5 17
M  V30 18 1 5 18
M  V30 19 1 7 19
M  V30 20 1 8 20
M  V30 21 1 11 21
M  V30 22 1 14 22
M  V30 23 1 14 23
M  V30 END BOND
M  V30 END CTAB
M  END
