
     RDKit          3D

  0  0  0  0  0  0  0  0  0  0999 V3000
M  V30 BEGIN CTAB
M  V30 COUNTS 27 27 0 0 0
M  V30 BEGIN ATOM
M  V30 1 C 1.69105 -0.46175 1.51298 0
M  V30 2 C 1.52938 0.123299 0.154847 0
M  V30 3 C 1.85241 -0.843718 -0.979914 0
M  V30 4 N 3.24849 -1.29701 -0.877203 0
M  V30 5 C 0.320225 0.938516 -0.0800273 0
M  V30 6 C -0.988447 0.338663 0.0795867 0
M  V30 7 C -1.31338 -0.940763 0.428255 0
M  V30 8 C -2.60781 -1.37822 0.543244 0
M  V30 9 C -3.63595 -0.501384 0.299804 0
M  V30 10 N -3.33583 0.761092 -0.044328 0
M  V30 11 C -2.06968 1.19727 -0.159058 0
M  V30 12 N -1.88707 2.55526 -0.529736 0
M  V30 13 H 1.90793 -1.5551 1.38183 0
M  V30 14 H 0.801482 -0.319781 2.17135 0
M  V30 15 H 2.55087 -0.0647917 2.08892 0
M  V30 16 H 2.39296 0.868182 0.0666626 0
M  V30 17 H 1.75785 -0.250792 -1.91705 0
M  V30 18 H 1.26087 -1.76207 -0.968347 0
M  V30 19 H 3.86592 -0.814661 -1.53489 0
M  V30 20 H 3.5112 -1.14675 0.123817 0
M  V30 21 H 0.426328 1.44987 -1.06166 0
M  V30 22 H 0.361456 1.7981 0.659524 0
M  V30 23 H -0.500358 -1.62047 0.616782 0
M  V30 24 H -2.84487 -2.40462 0.823075 0
M  V30 25 H -4.68164 -0.813658 0.381449 0
M  V30 26 H -1.39916 3.1779 0.133334 0
M  V30 27 H -2.2142 2.9674 -1.43071 0
M  V30 END ATOM
M  V30 BEGIN BOND
M  V30 1 1 1 2
M  V30 2 1 2 3
M  V30 3 1 3 4
M  V30 4 1 2 5
M  V30 5 1 5 6
M  V30 6 2 6 7
M  V30 7 1 7 8
M  V30 8 2 8 9
M  V30 9 1 9 10
M  V30 10 2 10 11
M  V30 11 1 11 12
M  V30 12 1 11 6
M  V30 13 1 1 13
M  V30 14 1 1 14
M  V30 15 1 1 15
M  V30 16 1 2 16
M  V30 17 1 3 17
M  V30 18 1 3 18
M  V30 19 1 4 19
M  V30 20 1 4 20
M  V30 21 1 5 21
M  V30 22 1 5 22
M  V30 23 1 7 23
M  V30 24 1 8 24
M  V30 25 1 9 25
M  V30 26 1 12 26
M  V30 27 1 12 27
M  V30 END BOND
M  V30 END CTAB
M  END
