
     RDKit          3D

  0  0  0  0  0  0  0  0  0  0999 V3000
M  V30 BEGIN CTAB
M  V30 COUNTS 31 32 0 0 0
M  V30 BEGIN ATOM
M  V30 1 Cl -0.585839 -1.37029 -2.77906 0
M  V30 2 C -1.30345 -0.662363 -1.35325 0
M  V30 3 C -2.67118 -0.497623 -1.28079 0
M  V30 4 C -3.25819 0.0591543 -0.164256 0
M  V30 5 N -4.67518 0.231633 -0.0851001 0
M  V30 6 C -2.42652 0.440968 0.867984 0
M  V30 7 C -1.05739 0.270241 0.782466 0
M  V30 8 C -0.456112 -0.286046 -0.329886 0
M  V30 9 N 0.952051 -0.467954 -0.431934 0
M  V30 10 C 1.7545 0.144245 -1.46664 0
M  V30 11 C 2.72922 1.06419 -0.784776 0
M  V30 12 C 3.45763 0.463022 0.358717 0
M  V30 13 C 3.03313 -0.863738 0.819617 0
M  V30 14 C 1.65023 -1.29064 0.516667 0
M  V30 15 N -3.03114 1.01283 2.01443 0
M  V30 16 H -3.34128 -0.792479 -2.08398 0
M  V30 17 H -5.03632 1.19363 0.0206987 0
M  V30 18 H -5.35023 -0.544338 -0.12744 0
M  V30 19 H -0.398294 0.574972 1.6053 0
M  V30 20 H 2.29578 -0.630627 -2.01286 0
M  V30 21 H 1.13259 0.762981 -2.15258 0
M  V30 22 H 3.41794 1.44709 -1.57727 0
M  V30 23 H 2.13322 1.97319 -0.474327 0
M  V30 24 H 3.44452 1.21143 1.20542 0
M  V30 25 H 4.55136 0.412058 0.0752984 0
M  V30 26 H 3.16623 -0.911506 1.94157 0
M  V30 27 H 3.74037 -1.66054 0.441691 0
M  V30 28 H 1.6155 -2.34023 0.0985355 0
M  V30 29 H 1.00817 -1.35933 1.44413 0
M  V30 30 H -3.6383 1.85021 1.97854 0
M  V30 31 H -2.853 0.565856 2.93309 0
M  V30 END ATOM
M  V30 BEGIN BOND
M  V30 1 1 1 2
M  V30 2 2 2 3
M  V30 3 1 3 4
M  V30 4 1 4 5
M  V30 5 2 4 6
M  V30 6 1 6 7
M  V30 7 2 7 8
M  V30 8 1 8 9
M  V30 9 1 9 10
M  V30 10 1 10 11
M  V30 11 1 11 12
M  V30 12 1 12 13
M  V30 13 1 13 14
M  V30 14 1 6 15
M  V30 15 1 8 2
M  V30 16 1 14 9
M  V30 17 1 3 16
M  V30 18 1 5 17
M  V30 19 1 5 18
M  V30 20 1 7 19
M  V30 21 1 10 20
M  V30 22 1 10 21
M  V30 23 1 11 22
M  V30 24 1 11 23
M  V30 25 1 12 24
M  V30 26 1 12 25
M  V30 27 1 13 26
M  V30 28 1 13 27
M  V30 29 1 14 28
M  V30 30 1 14 29
M  V30 31 1 15 30
M  V30 32 1 15 31
M  V30 END BOND
M  V30 END CTAB
M  END
