
     RDKit          3D

  0  0  0  0  0  0  0  0  0  0999 V3000
M  V30 BEGIN CTAB
M  V30 COUNTS 28 28 0 0 0
M  V30 BEGIN ATOM
M  V30 1 C -2.22152 0.773978 -1.11693 0
M  V30 2 C -1.38429 -0.058717 -0.170175 0
M  V30 3 C -1.80551 0.344482 1.2459 0
M  V30 4 C -1.75308 -1.48959 -0.34101 0
M  V30 5 C 0.0348668 0.254431 -0.304646 0
M  V30 6 C 0.409256 1.21216 -1.2232 0
M  V30 7 C 1.73067 1.57617 -1.42173 0
M  V30 8 C 2.71604 0.949047 -0.6631 0
M  V30 9 C 2.34492 -0.0031756 0.250315 0
M  V30 10 N 3.32221 -0.664626 1.04252 0
M  V30 11 C 1.02013 -0.347335 0.428387 0
M  V30 12 N 0.645487 -1.32649 1.36877 0
M  V30 13 H -2.17974 1.85445 -0.837003 0
M  V30 14 H -3.28445 0.439069 -0.971913 0
M  V30 15 H -1.98471 0.591349 -2.17585 0
M  V30 16 H -1.08084 1.06043 1.68354 0
M  V30 17 H -2.8054 0.8179 1.22616 0
M  V30 18 H -1.9234 -0.566819 1.8875 0
M  V30 19 H -2.82139 -1.51322 -0.649362 0
M  V30 20 H -1.69972 -2.09669 0.58407 0
M  V30 21 H -1.18423 -1.9101 -1.18471 0
M  V30 22 H -0.322275 1.73747 -1.84669 0
M  V30 23 H 2.04356 2.31282 -2.12504 0
M  V30 24 H 3.75981 1.1969 -0.779885 0
M  V30 25 H 4.23305 -0.187579 1.19884 0
M  V30 26 H 3.17358 -1.59004 1.46812 0
M  V30 27 H 0.631194 -2.32014 1.10369 0
M  V30 28 H 0.385788 -1.04616 2.32342 0
M  V30 END ATOM
M  V30 BEGIN BOND
M  V30 1 1 1 2
M  V30 2 1 2 3
M  V30 3 1 2 4
M  V30 4 1 2 5
M  V30 5 2 5 6
M  V30 6 1 6 7
M  V30 7 2 7 8
M  V30 8 1 8 9
M  V30 9 1 9 10
M  V30 10 2 9 11
M  V30 11 1 11 12
M  V30 12 1 11 5
M  V30 13 1 1 13
M  V30 14 1 1 14
M  V30 15 1 1 15
M  V30 16 1 3 16
M  V30 17 1 3 17
M  V30 18 1 3 18
M  V30 19 1 4 19
M  V30 20 1 4 20
M  V30 21 1 4 21
M  V30 22 1 6 22
M  V30 23 1 7 23
M  V30 24 1 8 24
M  V30 25 1 10 25
M  V30 26 1 10 26
M  V30 27 1 12 27
M  V30 28 1 12 28
M  V30 END BOND
M  V30 END CTAB
M  END
