
     RDKit          3D

  0  0  0  0  0  0  0  0  0  0999 V3000
M  V30 BEGIN CTAB
M  V30 COUNTS 23 23 0 0 0
M  V30 BEGIN ATOM
M  V30 1 N -0.96485 -0.552259 -1.76893 0
M  V30 2 C -1.54988 -0.313957 -0.48969 0
M  V30 3 C -2.93971 -0.422591 -0.375445 0
M  V30 4 C -3.58102 -0.208934 0.819637 0
M  V30 5 C -2.84042 0.12036 1.93413 0
M  V30 6 C -1.49416 0.221437 1.80551 0
M  V30 7 C -0.796773 0.0119304 0.604839 0
M  V30 8 C 0.648894 0.160564 0.641834 0
M  V30 9 C 1.49807 0.0166088 -0.333289 0
M  V30 10 S 3.23756 0.240218 -0.0959212 0
M  V30 11 O 3.80079 -1.04245 0.436041 0
M  V30 12 O 3.50512 1.33867 0.875701 0
M  V30 13 N 4.01652 0.60914 -1.58144 0
M  V30 14 H -0.841139 0.250758 -2.4202 0
M  V30 15 H -0.658687 -1.49464 -2.08516 0
M  V30 16 H -3.4893 -0.678085 -1.25073 0
M  V30 17 H -4.66099 -0.285269 0.943411 0
M  V30 18 H -3.33915 0.295702 2.90305 0
M  V30 19 H -0.941828 0.484932 2.71432 0
M  V30 20 H 1.07775 0.430434 1.62579 0
M  V30 21 H 1.19846 -0.238807 -1.30841 0
M  V30 22 H 4.31525 -0.235468 -2.1149 0
M  V30 23 H 4.79953 1.29172 -1.48015 0
M  V30 END ATOM
M  V30 BEGIN BOND
M  V30 1 1 1 2
M  V30 2 2 2 3
M  V30 3 1 3 4
M  V30 4 2 4 5
M  V30 5 1 5 6
M  V30 6 2 6 7
M  V30 7 1 7 8
M  V30 8 2 8 9
M  V30 9 1 9 10
M  V30 10 2 10 11
M  V30 11 2 10 12
M  V30 12 1 10 13
M  V30 13 1 7 2
M  V30 14 1 1 14
M  V30 15 1 1 15
M  V30 16 1 3 16
M  V30 17 1 4 17
M  V30 18 1 5 18
M  V30 19 1 6 19
M  V30 20 1 8 20
M  V30 21 1 9 21
M  V30 22 1 13 22
M  V30 23 1 13 23
M  V30 END BOND
M  V30 END CTAB
M  END
