
     RDKit          3D

  0  0  0  0  0  0  0  0  0  0999 V3000
M  V30 BEGIN CTAB
M  V30 COUNTS 39 40 0 0 0
M  V30 BEGIN ATOM
M  V30 1 N 5.19458 -0.401102 1.30964 0
M  V30 2 C 3.98751 -0.703003 0.531257 0
M  V30 3 C 4.30769 -0.599712 -0.92851 0
M  V30 4 C 3.34449 0.305469 -1.65651 0
M  V30 5 C 1.91975 -0.0603013 -1.28044 0
M  V30 6 N 1.76663 0.173624 0.139368 0
M  V30 7 C 2.9226 0.287422 0.968343 0
M  V30 8 C 0.435693 0.286326 0.682063 0
M  V30 9 O 0.320954 0.489507 1.9172 0
M  V30 10 C -0.756035 0.164625 -0.199455 0
M  V30 11 C -1.98069 0.323269 0.636407 0
M  V30 12 C -3.24965 0.230264 -0.0758197 0
M  V30 13 C -4.40829 0.216034 0.676309 0
M  V30 14 C -5.64622 0.129539 0.0640329 0
M  V30 15 C -5.76322 0.0551624 -1.30852 0
M  V30 16 C -4.58092 0.0714598 -2.04062 0
M  V30 17 C -3.34518 0.155868 -1.46786 0
M  V30 18 N -2.00747 -0.594381 1.76018 0
M  V30 19 H 6.00267 -0.760264 0.726011 0
M  V30 20 H 5.27579 0.632521 1.36795 0
M  V30 21 H 3.66484 -1.73813 0.811001 0
M  V30 22 H 4.30216 -1.57672 -1.4518 0
M  V30 23 H 5.33399 -0.168613 -1.07241 0
M  V30 24 H 3.5223 0.253305 -2.73256 0
M  V30 25 H 3.51441 1.33668 -1.25043 0
M  V30 26 H 1.65876 -1.08889 -1.58382 0
M  V30 27 H 1.22404 0.622551 -1.83478 0
M  V30 28 H 2.70093 0.0561358 2.02953 0
M  V30 29 H 3.38853 1.30879 0.947158 0
M  V30 30 H -0.67398 -0.780521 -0.732307 0
M  V30 31 H -0.671947 0.977906 -0.949332 0
M  V30 32 H -1.93394 1.35273 1.09221 0
M  V30 33 H -4.39212 0.271594 1.76531 0
M  V30 34 H -6.53704 0.12055 0.68097 0
M  V30 35 H -6.72387 -0.012843 -1.80119 0
M  V30 36 H -4.65864 0.0140418 -3.11146 0
M  V30 37 H -2.40683 0.171218 -2.00065 0
M  V30 38 H -2.69929 -1.37613 1.55453 0
M  V30 39 H -2.35298 -0.145971 2.63848 0
M  V30 END ATOM
M  V30 BEGIN BOND
M  V30 1 1 1 2
M  V30 2 1 2 3
M  V30 3 1 3 4
M  V30 4 1 4 5
M  V30 5 1 5 6
M  V30 6 1 6 7
M  V30 7 1 6 8
M  V30 8 2 8 9
M  V30 9 1 8 10
M  V30 10 1 10 11
M  V30 11 1 11 12
M  V30 12 2 12 13
M  V30 13 1 13 14
M  V30 14 2 14 15
M  V30 15 1 15 16
M  V30 16 2 16 17
M  V30 17 1 11 18
M  V30 18 1 7 2
M  V30 19 1 17 12
M  V30 20 1 1 19
M  V30 21 1 1 20
M  V30 22 1 2 21
M  V30 23 1 3 22
M  V30 24 1 3 23
M  V30 25 1 4 24
M  V30 26 1 4 25
M  V30 27 1 5 26
M  V30 28 1 5 27
M  V30 29 1 7 28
M  V30 30 1 7 29
M  V30 31 1 10 30
M  V30 32 1 10 31
M  V30 33 1 11 32
M  V30 34 1 13 33
M  V30 35 1 14 34
M  V30 36 1 15 35
M  V30 37 1 16 36
M  V30 38 1 17 37
M  V30 39 1 18 38
M  V30 40 1 18 39
M  V30 END BOND
M  V30 END CTAB
M  END
