
     RDKit          3D

  0  0  0  0  0  0  0  0  0  0999 V3000
M  V30 BEGIN CTAB
M  V30 COUNTS 26 27 0 0 0
M  V30 BEGIN ATOM
M  V30 1 C -4.64404 -0.525207 0.207129 0
M  V30 2 C -3.17591 -0.376856 0.143784 0
M  V30 3 C -2.65052 0.86098 -0.137836 0
M  V30 4 C -1.27624 0.983595 -0.193606 0
M  V30 5 C -0.43179 -0.0809845 0.0212706 0
M  V30 6 C -0.978547 -1.30048 0.299339 0
M  V30 7 C -2.36788 -1.45798 0.363048 0
M  V30 8 C 1.01463 0.127347 -0.0548209 0
M  V30 9 N 1.56129 1.31734 -0.326486 0
M  V30 10 C 2.8937 1.5135 -0.397555 0
M  V30 11 N 3.45237 2.77474 -0.685058 0
M  V30 12 N 3.68853 0.45155 -0.182265 0
M  V30 13 C 3.19856 -0.776139 0.0964389 0
M  V30 14 N 4.05478 -1.87901 0.319349 0
M  V30 15 N 1.86116 -0.902624 0.152387 0
M  V30 16 H -5.16152 0.45758 0.222365 0
M  V30 17 H -4.88276 -1.12018 1.11527 0
M  V30 18 H -4.95899 -1.0836 -0.702164 0
M  V30 19 H -3.25542 1.74323 -0.317921 0
M  V30 20 H -0.858986 1.93378 -0.410068 0
M  V30 21 H -0.316708 -2.13249 0.467243 0
M  V30 22 H -2.81594 -2.41558 0.581794 0
M  V30 23 H 4.01919 2.90395 -1.53356 0
M  V30 24 H 3.28671 3.55853 -0.0394664 0
M  V30 25 H 4.75008 -2.1657 -0.409353 0
M  V30 26 H 3.99425 -2.40931 1.21238 0
M  V30 END ATOM
M  V30 BEGIN BOND
M  V30 1 1 1 2
M  V30 2 2 2 3
M  V30 3 1 3 4
M  V30 4 2 4 5
M  V30 5 1 5 6
M  V30 6 2 6 7
M  V30 7 1 5 8
M  V30 8 2 8 9
M  V30 9 1 9 10
M  V30 10 1 10 11
M  V30 11 2 10 12
M  V30 12 1 12 13
M  V30 13 1 13 14
M  V30 14 2 13 15
M  V30 15 1 7 2
M  V30 16 1 15 8
M  V30 17 1 1 16
M  V30 18 1 1 17
M  V30 19 1 1 18
M  V30 20 1 3 19
M  V30 21 1 4 20
M  V30 22 1 6 21
M  V30 23 1 7 22
M  V30 24 1 11 23
M  V30 25 1 11 24
M  V30 26 1 14 25
M  V30 27 1 14 26
M  V30 END BOND
M  V30 END CTAB
M  END
