
     RDKit          3D

  0  0  0  0  0  0  0  0  0  0999 V3000
M  V30 BEGIN CTAB
M  V30 COUNTS 39 41 0 0 0
M  V30 BEGIN ATOM
M  V30 1 C -6.69764 1.5006 -0.0222556 0
M  V30 2 O -6.31111 0.155911 0.22281 0
M  V30 3 C -5.01877 -0.244625 -0.0962465 0
M  V30 4 C -4.08657 0.600734 -0.641386 0
M  V30 5 C -2.78915 0.183375 -0.957238 0
M  V30 6 C -2.43444 -1.12216 -0.712489 0
M  V30 7 C -3.37201 -1.98675 -0.160325 0
M  V30 8 C -4.6495 -1.55914 0.146051 0
M  V30 9 C -1.08256 -1.64907 -1.01459 0
M  V30 10 N -0.216366 -1.58345 0.137364 0
M  V30 11 N -0.116588 -2.57447 1.04103 0
M  V30 12 N 0.739954 -2.24713 1.97966 0
M  V30 13 N 1.18708 -1.04143 1.67074 0
M  V30 14 C 0.606314 -0.600406 0.52246 0
M  V30 15 S 0.870078 0.944537 -0.2979 0
M  V30 16 C 2.07218 1.9936 0.54569 0
M  V30 17 C 3.41568 1.34264 0.441165 0
M  V30 18 N 3.89665 0.482028 1.35142 0
M  V30 19 C 5.10059 -0.112307 1.27634 0
M  V30 20 N 5.57761 -1.01364 2.2518 0
M  V30 21 N 5.84972 0.209434 0.186304 0
M  V30 22 C 5.43432 1.05938 -0.760899 0
M  V30 23 N 4.22065 1.61895 -0.625872 0
M  V30 24 N 6.27228 1.36264 -1.89435 0
M  V30 25 H -6.65424 1.73794 -1.10309 0
M  V30 26 H -7.66711 1.73265 0.434144 0
M  V30 27 H -5.94033 2.15974 0.469739 0
M  V30 28 H -4.37024 1.61806 -0.829425 0
M  V30 29 H -2.11471 0.896317 -1.38291 0
M  V30 30 H -3.116 -3.0178 0.0401574 0
M  V30 31 H -5.37358 -2.25244 0.579485 0
M  V30 32 H -0.671908 -1.10401 -1.88717 0
M  V30 33 H -1.15078 -2.72944 -1.33559 0
M  V30 34 H 1.82302 1.94486 1.64315 0
M  V30 35 H 2.0825 3.01883 0.17037 0
M  V30 36 H 5.50186 -2.02685 2.09836 0
M  V30 37 H 6.00059 -0.648133 3.11447 0
M  V30 38 H 5.91339 1.34129 -2.86624 0
M  V30 39 H 7.26914 1.60974 -1.72587 0
M  V30 END ATOM
M  V30 BEGIN BOND
M  V30 1 1 1 2
M  V30 2 1 2 3
M  V30 3 2 3 4
M  V30 4 1 4 5
M  V30 5 2 5 6
M  V30 6 1 6 7
M  V30 7 2 7 8
M  V30 8 1 6 9
M  V30 9 1 9 10
M  V30 10 1 10 11
M  V30 11 2 11 12
M  V30 12 1 12 13
M  V30 13 2 13 14
M  V30 14 1 14 15
M  V30 15 1 15 16
M  V30 16 1 16 17
M  V30 17 2 17 18
M  V30 18 1 18 19
M  V30 19 1 19 20
M  V30 20 2 19 21
M  V30 21 1 21 22
M  V30 22 2 22 23
M  V30 23 1 22 24
M  V30 24 1 8 3
M  V30 25 1 14 10
M  V30 26 1 23 17
M  V30 27 1 1 25
M  V30 28 1 1 26
M  V30 29 1 1 27
M  V30 30 1 4 28
M  V30 31 1 5 29
M  V30 32 1 7 30
M  V30 33 1 8 31
M  V30 34 1 9 32
M  V30 35 1 9 33
M  V30 36 1 16 34
M  V30 37 1 16 35
M  V30 38 1 20 36
M  V30 39 1 20 37
M  V30 40 1 24 38
M  V30 41 1 24 39
M  V30 END BOND
M  V30 END CTAB
M  END
