
     RDKit          3D

  0  0  0  0  0  0  0  0  0  0999 V3000
M  V30 BEGIN CTAB
M  V30 COUNTS 34 36 0 0 0
M  V30 BEGIN ATOM
M  V30 1 N -2.96856 3.09257 0.756204 0
M  V30 2 C -2.84147 1.70882 0.510143 0
M  V30 3 N -1.6401 1.07575 0.562659 0
M  V30 4 C -1.59638 -0.229742 0.319507 0
M  V30 5 C -2.74737 -0.916156 0.0221246 0
M  V30 6 N -2.39874 -2.18063 -0.169159 0
M  V30 7 C -1.0882 -2.2883 -0.000482324 0
M  V30 8 N -0.568396 -1.07731 0.305993 0
M  V30 9 C 0.839457 -0.877475 0.547493 0 CFG=1
M  V30 10 C 1.58494 -1.47652 -0.63065 0
M  V30 11 C 2.38542 -0.27696 -1.12053 0 CFG=2
M  V30 12 O 3.59711 -0.655523 -1.66718 0
M  V30 13 C 2.53797 0.455809 0.197065 0 CFG=1
M  V30 14 C 3.0558 1.85181 0.0182295 0
M  V30 15 O 4.37636 1.75999 -0.409161 0
M  V30 16 O 1.19905 0.443014 0.632661 0
M  V30 17 C 3.31766 -0.339789 1.1094 0
M  V30 18 N 3.92542 -0.987137 1.84252 0
M  V30 19 C -3.98853 -0.272382 -0.034093 0
M  V30 20 N -5.17151 -0.975849 -0.339323 0
M  V30 21 N -3.98423 1.03607 0.216559 0
M  V30 22 H -2.88121 3.48104 1.70816 0
M  V30 23 H -3.15298 3.72957 -0.034291 0
M  V30 24 H -0.541792 -3.22917 -0.101365 0
M  V30 25 H 1.08552 -1.37326 1.50433 0
M  V30 26 H 0.900924 -1.85744 -1.41094 0
M  V30 27 H 2.31636 -2.22096 -0.275096 0
M  V30 28 H 1.75531 0.308823 -1.81512 0
M  V30 29 H 3.47057 -1.47205 -2.24307 0
M  V30 30 H 2.94733 2.48437 0.895796 0
M  V30 31 H 2.4936 2.33545 -0.814365 0
M  V30 32 H 4.98604 1.40965 0.288117 0
M  V30 33 H -5.9621 -0.969631 0.321641 0
M  V30 34 H -5.24327 -1.49647 -1.22572 0
M  V30 END ATOM
M  V30 BEGIN BOND
M  V30 1 1 1 2
M  V30 2 2 2 3
M  V30 3 1 3 4
M  V30 4 2 4 5
M  V30 5 1 5 6
M  V30 6 2 6 7
M  V30 7 1 7 8
M  V30 8 1 8 9
M  V30 9 1 9 10
M  V30 10 1 10 11
M  V30 11 1 11 12
M  V30 12 1 11 13
M  V30 13 1 13 14
M  V30 14 1 14 15
M  V30 15 1 13 16
M  V30 16 1 13 17 CFG=1
M  V30 17 3 17 18
M  V30 18 1 5 19
M  V30 19 1 19 20
M  V30 20 2 19 21
M  V30 21 1 21 2
M  V30 22 1 8 4
M  V30 23 1 16 9
M  V30 24 1 1 22
M  V30 25 1 1 23
M  V30 26 1 7 24
M  V30 27 1 9 25 CFG=1
M  V30 28 1 10 26
M  V30 29 1 10 27
M  V30 30 1 11 28 CFG=3
M  V30 31 1 12 29
M  V30 32 1 14 30
M  V30 33 1 14 31
M  V30 34 1 15 32
M  V30 35 1 20 33
M  V30 36 1 20 34
M  V30 END BOND
M  V30 END CTAB
M  END
