
     RDKit          3D

  0  0  0  0  0  0  0  0  0  0999 V3000
M  V30 BEGIN CTAB
M  V30 COUNTS 36 36 0 0 0
M  V30 BEGIN ATOM
M  V30 1 N 3.82702 -0.141872 0.147967 0
M  V30 2 C 2.58323 0.0785346 0.898235 0
M  V30 3 C 2.1295 1.46479 0.571254 0
M  V30 4 C 0.67937 1.70607 0.655166 0
M  V30 5 N -0.166895 0.537492 0.381464 0
M  V30 6 C 0.578647 -0.369618 -0.401825 0
M  V30 7 C 1.60535 -0.991344 0.583418 0
M  V30 8 C 2.15225 -2.2035 -0.083401 0
M  V30 9 C -1.423 1.01536 -0.10385 0
M  V30 10 C -2.54682 0.0585646 -0.200442 0
M  V30 11 N -3.70785 0.857862 -0.688363 0
M  V30 12 C -2.91889 -0.565342 1.10692 0
M  V30 13 C -2.41789 -1.01399 -1.26101 0
M  V30 14 H 4.56284 0.409575 0.644753 0
M  V30 15 H 3.738 0.342132 -0.795664 0
M  V30 16 H 2.86405 -0.0223914 1.97234 0
M  V30 17 H 2.5939 1.83341 -0.367493 0
M  V30 18 H 2.61219 2.12064 1.3663 0
M  V30 19 H 0.343515 2.08195 1.66762 0
M  V30 20 H 0.377821 2.48349 -0.0646432 0
M  V30 21 H 0.0994796 -1.21938 -0.844395 0
M  V30 22 H 1.19106 0.22971 -1.13953 0
M  V30 23 H 1.04939 -1.28302 1.50943 0
M  V30 24 H 1.6007 -2.51529 -0.990795 0
M  V30 25 H 2.0975 -3.06842 0.628935 0
M  V30 26 H 3.21772 -2.11754 -0.374105 0
M  V30 27 H -1.31103 1.50982 -1.11881 0
M  V30 28 H -1.752 1.8753 0.542565 0
M  V30 29 H -3.30823 1.4458 -1.45128 0
M  V30 30 H -4.04308 1.48942 0.0821832 0
M  V30 31 H -2.2443 -1.43098 1.31946 0
M  V30 32 H -2.80022 0.153598 1.95241 0
M  V30 33 H -3.95453 -0.935626 1.04481 0
M  V30 34 H -1.78977 -0.618484 -2.06928 0
M  V30 35 H -3.42136 -1.21866 -1.76775 0
M  V30 36 H -2.09766 -1.97809 -0.821995 0
M  V30 END ATOM
M  V30 BEGIN BOND
M  V30 1 1 1 2
M  V30 2 1 2 3
M  V30 3 1 3 4
M  V30 4 1 4 5
M  V30 5 1 5 6
M  V30 6 1 6 7
M  V30 7 1 7 8
M  V30 8 1 5 9
M  V30 9 1 9 10
M  V30 10 1 10 11
M  V30 11 1 10 12
M  V30 12 1 10 13
M  V30 13 1 7 2
M  V30 14 1 1 14
M  V30 15 1 1 15
M  V30 16 1 2 16
M  V30 17 1 3 17
M  V30 18 1 3 18
M  V30 19 1 4 19
M  V30 20 1 4 20
M  V30 21 1 6 21
M  V30 22 1 6 22
M  V30 23 1 7 23
M  V30 24 1 8 24
M  V30 25 1 8 25
M  V30 26 1 8 26
M  V30 27 1 9 27
M  V30 28 1 9 28
M  V30 29 1 11 29
M  V30 30 1 11 30
M  V30 31 1 12 31
M  V30 32 1 12 32
M  V30 33 1 12 33
M  V30 34 1 13 34
M  V30 35 1 13 35
M  V30 36 1 13 36
M  V30 END BOND
M  V30 END CTAB
M  END
