
     RDKit          3D

  0  0  0  0  0  0  0  0  0  0999 V3000
M  V30 BEGIN CTAB
M  V30 COUNTS 52 53 0 0 0
M  V30 BEGIN ATOM
M  V30 1 N -5.657 2.23155 -0.434138 0
M  V30 2 C -5.37006 0.922673 0.0518806 0
M  V30 3 C -3.92248 0.563202 -0.225319 0
M  V30 4 C -3.71624 -0.824023 0.323998 0
M  V30 5 N -2.36116 -1.34016 0.17991 0
M  V30 6 C -1.46663 -1.15973 1.2639 0
M  V30 7 O -2.00075 -0.609586 2.3357 0
M  V30 8 C -0.069839 -1.46796 1.40357 0
M  V30 9 C 0.466563 -2.77943 0.971498 0
M  V30 10 C 1.94103 -2.53397 1.02532 0
M  V30 11 O 2.80037 -3.41469 1.18958 0
M  V30 12 N 2.17636 -1.15657 0.859458 0
M  V30 13 C 0.870113 -0.496602 0.697732 0
M  V30 14 C 3.38749 -0.413959 0.842151 0
M  V30 15 C 4.29284 -0.586683 1.86278 0
M  V30 16 C 5.4643 0.126169 1.87325 0
M  V30 17 C 5.73714 1.01921 0.858461 0
M  V30 18 C 4.8234 1.1957 -0.17525 0
M  V30 19 C 3.65867 0.473676 -0.167181 0
M  V30 20 S 5.17266 2.33404 -1.45123 0
M  V30 21 O 3.8847 2.7741 -2.12243 0
M  V30 22 O 5.91966 3.51874 -0.953025 0
M  V30 23 N 6.08992 1.53634 -2.68798 0
M  V30 24 C -1.96374 -2.03169 -1.00255 0
M  V30 25 C -3.82682 0.522656 -1.76486 0
M  V30 26 C -3.03197 1.61077 0.338427 0
M  V30 27 H -4.94937 2.72381 -0.968862 0
M  V30 28 H -6.64067 2.37983 -0.756699 0
M  V30 29 H -5.53457 0.922869 1.16271 0
M  V30 30 H -6.06899 0.216463 -0.442976 0
M  V30 31 H -4.46899 -1.47994 -0.160935 0
M  V30 32 H -3.98514 -0.800358 1.3984 0
M  V30 33 H 0.219909 -1.39508 2.5129 0
M  V30 34 H 0.283709 -3.05542 -0.0838864 0
M  V30 35 H 0.179789 -3.60442 1.66442 0
M  V30 36 H 0.89428 0.485559 1.16427 0
M  V30 37 H 0.66282 -0.520178 -0.362039 0
M  V30 38 H 4.07614 -1.29231 2.6638 0
M  V30 39 H 6.18605 0.0017949 2.66942 0
M  V30 40 H 6.64529 1.60136 0.826048 0
M  V30 41 H 2.97393 0.647076 -0.999864 0
M  V30 42 H 5.66194 0.615826 -2.83372 0
M  V30 43 H 6.04963 2.15952 -3.5368 0
M  V30 44 H -1.04276 -1.63905 -1.44973 0
M  V30 45 H -2.72253 -1.95951 -1.8242 0
M  V30 46 H -1.93723 -3.1363 -0.787059 0
M  V30 47 H -4.44754 -0.372139 -2.06419 0
M  V30 48 H -2.7792 0.419841 -2.10486 0
M  V30 49 H -4.27217 1.38183 -2.25066 0
M  V30 50 H -3.15092 2.60407 -0.160533 0
M  V30 51 H -3.17001 1.81698 1.41252 0
M  V30 52 H -1.9619 1.26409 0.218879 0
M  V30 END ATOM
M  V30 BEGIN BOND
M  V30 1 1 1 2
M  V30 2 1 2 3
M  V30 3 1 3 4
M  V30 4 1 4 5
M  V30 5 1 5 6
M  V30 6 2 6 7
M  V30 7 1 6 8
M  V30 8 1 8 9
M  V30 9 1 9 10
M  V30 10 2 10 11
M  V30 11 1 10 12
M  V30 12 1 12 13
M  V30 13 1 12 14
M  V30 14 2 14 15
M  V30 15 1 15 16
M  V30 16 2 16 17
M  V30 17 1 17 18
M  V30 18 2 18 19
M  V30 19 1 18 20
M  V30 20 2 20 21
M  V30 21 2 20 22
M  V30 22 1 20 23
M  V30 23 1 5 24
M  V30 24 1 3 25
M  V30 25 1 3 26
M  V30 26 1 13 8
M  V30 27 1 19 14
M  V30 28 1 1 27
M  V30 29 1 1 28
M  V30 30 1 2 29
M  V30 31 1 2 30
M  V30 32 1 4 31
M  V30 33 1 4 32
M  V30 34 1 8 33
M  V30 35 1 9 34
M  V30 36 1 9 35
M  V30 37 1 13 36
M  V30 38 1 13 37
M  V30 39 1 15 38
M  V30 40 1 16 39
M  V30 41 1 17 40
M  V30 42 1 19 41
M  V30 43 1 23 42
M  V30 44 1 23 43
M  V30 45 1 24 44
M  V30 46 1 24 45
M  V30 47 1 24 46
M  V30 48 1 25 47
M  V30 49 1 25 48
M  V30 50 1 25 49
M  V30 51 1 26 50
M  V30 52 1 26 51
M  V30 53 1 26 52
M  V30 END BOND
M  V30 END CTAB
M  END
