
     RDKit          3D

  0  0  0  0  0  0  0  0  0  0999 V3000
M  V30 BEGIN CTAB
M  V30 COUNTS 29 30 0 0 0
M  V30 BEGIN ATOM
M  V30 1 N 5.69117 -1.02279 0.277696 0
M  V30 2 C 4.45771 -0.356414 0.132612 0
M  V30 3 N 3.36984 -1.00222 0.348749 0
M  V30 4 C 2.10693 -0.345805 0.207418 0
M  V30 5 S 1.78417 1.26974 -0.232615 0
M  V30 6 C 0.0795973 1.2227 -0.163102 0
M  V30 7 C -0.143435 -0.0855545 0.20926 0
M  V30 8 N 0.893436 -0.838527 0.385024 0
M  V30 9 C -1.55848 -0.617697 0.404545 0
M  V30 10 C -2.31817 -0.528345 -0.917874 0
M  V30 11 C -3.75749 -0.859263 -0.606859 0
M  V30 12 O -4.36169 0.0933495 0.198383 0
M  V30 13 C -3.46155 0.947451 0.812855 0
M  V30 14 C -2.28467 0.203379 1.41076 0
M  V30 15 N 4.45411 1.00754 -0.247737 0
M  V30 16 H 5.77588 -1.77902 0.982659 0
M  V30 17 H 6.48611 -0.738377 -0.327137 0
M  V30 18 H -0.682826 1.99975 -0.354673 0
M  V30 19 H -1.5673 -1.66795 0.6979 0
M  V30 20 H -2.2609 0.481691 -1.32839 0
M  V30 21 H -1.96111 -1.29929 -1.63478 0
M  V30 22 H -3.80363 -1.83402 -0.038512 0
M  V30 23 H -4.37294 -1.00061 -1.51754 0
M  V30 24 H -4.00714 1.45981 1.63526 0
M  V30 25 H -3.11778 1.69831 0.0670977 0
M  V30 26 H -1.63785 0.99269 1.88316 0
M  V30 27 H -2.70983 -0.407182 2.2584 0
M  V30 28 H 4.55091 1.71325 0.505808 0
M  V30 29 H 4.35691 1.2934 -1.25631 0
M  V30 END ATOM
M  V30 BEGIN BOND
M  V30 1 1 1 2
M  V30 2 2 2 3 CFG=2
M  V30 3 1 3 4
M  V30 4 1 4 5
M  V30 5 1 5 6
M  V30 6 2 6 7
M  V30 7 1 7 8
M  V30 8 1 7 9
M  V30 9 1 9 10
M  V30 10 1 10 11
M  V30 11 1 11 12
M  V30 12 1 12 13
M  V30 13 1 13 14
M  V30 14 1 2 15
M  V30 15 2 8 4
M  V30 16 1 14 9
M  V30 17 1 1 16
M  V30 18 1 1 17
M  V30 19 1 6 18
M  V30 20 1 9 19
M  V30 21 1 10 20
M  V30 22 1 10 21
M  V30 23 1 11 22
M  V30 24 1 11 23
M  V30 25 1 13 24
M  V30 26 1 13 25
M  V30 27 1 14 26
M  V30 28 1 14 27
M  V30 29 1 15 28
M  V30 30 1 15 29
M  V30 END BOND
M  V30 END CTAB
M  END
