
     RDKit          3D

  0  0  0  0  0  0  0  0  0  0999 V3000
M  V30 BEGIN CTAB
M  V30 COUNTS 24 24 0 0 0
M  V30 BEGIN ATOM
M  V30 1 N -1.96867 1.53063 1.41328 0
M  V30 2 C -0.952993 0.778384 0.76219 0
M  V30 3 C 0.378385 0.942512 1.1295 0
M  V30 4 C 1.34323 0.198997 0.480363 0
M  V30 5 C 0.98087 -0.680616 -0.505741 0
M  V30 6 N 1.9904 -1.43424 -1.15918 0
M  V30 7 C -0.357609 -0.837615 -0.866523 0
M  V30 8 C -1.3349 -0.100387 -0.22586 0
M  V30 9 S -3.02246 -0.248609 -0.628052 0
M  V30 10 O -3.26262 -1.37112 -1.85381 0
M  V30 11 O -3.58222 1.06499 -1.13412 0
M  V30 12 O -3.8208 -0.68789 0.586442 0
M  V30 13 S 3.0459 0.353428 0.891189 0
M  V30 14 O 3.92771 0.856166 -0.455633 0
M  V30 15 O 3.23822 1.36777 1.98129 0
M  V30 16 O 3.59049 -0.955108 1.37559 0
M  V30 17 H -2.14746 2.54034 1.25265 0
M  V30 18 H -2.56413 1.01228 2.09597 0
M  V30 19 H 0.673364 1.64194 1.91452 0
M  V30 20 H 1.96752 -2.47196 -1.0643 0
M  V30 21 H 2.75865 -1.02404 -1.73109 0
M  V30 22 H -0.614748 -1.53615 -1.64522 0
M  V30 23 H -3.61256 -2.19633 -1.46793 0
M  V30 24 H 3.34642 1.25663 -1.14554 0
M  V30 END ATOM
M  V30 BEGIN BOND
M  V30 1 1 1 2
M  V30 2 2 2 3
M  V30 3 1 3 4
M  V30 4 2 4 5
M  V30 5 1 5 6
M  V30 6 1 5 7
M  V30 7 2 7 8
M  V30 8 1 8 9
M  V30 9 1 9 10
M  V30 10 2 9 11
M  V30 11 2 9 12
M  V30 12 1 4 13
M  V30 13 1 13 14
M  V30 14 2 13 15
M  V30 15 2 13 16
M  V30 16 1 8 2
M  V30 17 1 1 17
M  V30 18 1 1 18
M  V30 19 1 3 19
M  V30 20 1 6 20
M  V30 21 1 6 21
M  V30 22 1 7 22
M  V30 23 1 10 23
M  V30 24 1 14 24
M  V30 END BOND
M  V30 END CTAB
M  END
