
     RDKit          3D

  0  0  0  0  0  0  0  0  0  0999 V3000
M  V30 BEGIN CTAB
M  V30 COUNTS 54 54 0 0 0
M  V30 BEGIN ATOM
M  V30 1 C 7.54037 0.904685 -1.21763 0
M  V30 2 C 6.9109 1.24468 0.132672 0
M  V30 3 C 5.39067 1.26549 -0.0769715 0
M  V30 4 C 4.75408 1.60082 1.2515 0
M  V30 5 C 3.24878 1.65653 1.18051 0
M  V30 6 C 2.73083 0.30291 0.738236 0
M  V30 7 O 1.3106 0.301892 0.657532 0
M  V30 8 C 0.696431 -0.875642 0.263627 0
M  V30 9 C 1.4148 -2.00988 -0.0415061 0
M  V30 10 C 0.798444 -3.19587 -0.438128 0
M  V30 11 N 1.56838 -4.35194 -0.746966 0
M  V30 12 C -0.579359 -3.2167 -0.522634 0
M  V30 13 N -1.23789 -4.40191 -0.92143 0
M  V30 14 C -1.2821 -2.07038 -0.212929 0
M  V30 15 C -0.695541 -0.896555 0.178295 0
M  V30 16 O -1.4005 0.259479 0.490822 0
M  V30 17 C -2.82844 0.168906 0.382092 0
M  V30 18 C -3.4926 1.46323 0.73917 0
M  V30 19 C -4.9873 1.29118 0.606363 0
M  V30 20 C -5.39663 0.912624 -0.80665 0
M  V30 21 C -6.91961 0.771593 -0.819626 0
M  V30 22 C -7.46924 2.13608 -0.406598 0
M  V30 23 H 6.96949 0.108454 -1.72092 0
M  V30 24 H 7.50641 1.82675 -1.83333 0
M  V30 25 H 8.60172 0.637641 -1.07765 0
M  V30 26 H 7.16368 0.444914 0.843841 0
M  V30 27 H 7.2083 2.25093 0.47013 0
M  V30 28 H 5.1761 2.00364 -0.85793 0
M  V30 29 H 5.12985 0.245668 -0.400275 0
M  V30 30 H 5.16785 2.52811 1.68341 0
M  V30 31 H 5.05821 0.782358 1.95364 0
M  V30 32 H 2.88357 2.46904 0.553118 0
M  V30 33 H 2.87137 1.80858 2.22028 0
M  V30 34 H 3.11844 0.0111507 -0.267667 0
M  V30 35 H 3.00444 -0.467661 1.48022 0
M  V30 36 H 2.49214 -1.9659 0.0330175 0
M  V30 37 H 1.60058 -5.18109 -0.100857 0
M  V30 38 H 2.11391 -4.37224 -1.64 0
M  V30 39 H -0.723614 -5.09462 -1.49131 0
M  V30 40 H -2.21878 -4.59622 -0.65984 0
M  V30 41 H -2.36458 -2.08465 -0.278677 0
M  V30 42 H -3.16398 -0.668774 0.990063 0
M  V30 43 H -2.99313 -0.0930383 -0.694758 0
M  V30 44 H -3.30953 1.61421 1.8441 0
M  V30 45 H -3.11444 2.32142 0.187186 0
M  V30 46 H -5.37512 0.487546 1.2636 0
M  V30 47 H -5.53595 2.21528 0.919686 0
M  V30 48 H -5.11663 1.6804 -1.54849 0
M  V30 49 H -4.97439 -0.0513786 -1.11228 0
M  V30 50 H -7.236 0.00754417 -0.0796002 0
M  V30 51 H -7.23191 0.531975 -1.83651 0
M  V30 52 H -6.75022 2.91687 -0.723513 0
M  V30 53 H -7.56327 2.15053 0.683918 0
M  V30 54 H -8.46956 2.27135 -0.888391 0
M  V30 END ATOM
M  V30 BEGIN BOND
M  V30 1 1 1 2
M  V30 2 1 2 3
M  V30 3 1 3 4
M  V30 4 1 4 5
M  V30 5 1 5 6
M  V30 6 1 6 7
M  V30 7 1 7 8
M  V30 8 2 8 9
M  V30 9 1 9 10
M  V30 10 1 10 11
M  V30 11 2 10 12
M  V30 12 1 12 13
M  V30 13 1 12 14
M  V30 14 2 14 15
M  V30 15 1 15 16
M  V30 16 1 16 17
M  V30 17 1 17 18
M  V30 18 1 18 19
M  V30 19 1 19 20
M  V30 20 1 20 21
M  V30 21 1 21 22
M  V30 22 1 15 8
M  V30 23 1 1 23
M  V30 24 1 1 24
M  V30 25 1 1 25
M  V30 26 1 2 26
M  V30 27 1 2 27
M  V30 28 1 3 28
M  V30 29 1 3 29
M  V30 30 1 4 30
M  V30 31 1 4 31
M  V30 32 1 5 32
M  V30 33 1 5 33
M  V30 34 1 6 34
M  V30 35 1 6 35
M  V30 36 1 9 36
M  V30 37 1 11 37
M  V30 38 1 11 38
M  V30 39 1 13 39
M  V30 40 1 13 40
M  V30 41 1 14 41
M  V30 42 1 17 42
M  V30 43 1 17 43
M  V30 44 1 18 44
M  V30 45 1 18 45
M  V30 46 1 19 46
M  V30 47 1 19 47
M  V30 48 1 20 48
M  V30 49 1 20 49
M  V30 50 1 21 50
M  V30 51 1 21 51
M  V30 52 1 22 52
M  V30 53 1 22 53
M  V30 54 1 22 54
M  V30 END BOND
M  V30 END CTAB
M  END
