
     RDKit          3D

  0  0  0  0  0  0  0  0  0  0999 V3000
M  V30 BEGIN CTAB
M  V30 COUNTS 23 24 0 0 0
M  V30 BEGIN ATOM
M  V30 1 N 2.49178 0.223255 -0.392009 0
M  V30 2 C 1.16437 0.0576488 0.0121535 0
M  V30 3 C 0.707144 0.910096 1.16415 0
M  V30 4 C -0.801427 0.975958 0.995231 0
M  V30 5 C -1.09582 0.0825935 -0.195077 0
M  V30 6 C 0.1282 0.444776 -1.05599 0
M  V30 7 C -0.798854 -1.35414 0.0924991 0
M  V30 8 C 0.725009 -1.35114 0.301308 0
M  V30 9 N -2.31382 0.35632 -0.831883 0
M  V30 10 H 2.60631 1.12799 -0.896063 0
M  V30 11 H 2.80891 -0.574029 -0.959377 0
M  V30 12 H 1.18362 1.88725 1.16756 0
M  V30 13 H 0.877123 0.321437 2.10655 0
M  V30 14 H -1.02216 2.02229 0.646236 0
M  V30 15 H -1.35153 0.695715 1.89261 0
M  V30 16 H 0.157223 1.50658 -1.2932 0
M  V30 17 H 0.151763 -0.235307 -1.90679 0
M  V30 18 H -0.9629 -1.92903 -0.835021 0
M  V30 19 H -1.31745 -1.76394 0.96603 0
M  V30 20 H 0.916719 -1.54537 1.37866 0
M  V30 21 H 1.22307 -2.10729 -0.302149 0
M  V30 22 H -3.09953 0.112306 -0.232888 0
M  V30 23 H -2.37775 0.136029 -1.82254 0
M  V30 END ATOM
M  V30 BEGIN BOND
M  V30 1 1 1 2
M  V30 2 1 2 3
M  V30 3 1 3 4
M  V30 4 1 4 5
M  V30 5 1 5 6
M  V30 6 1 5 7
M  V30 7 1 7 8
M  V30 8 1 5 9
M  V30 9 1 8 2
M  V30 10 1 6 2
M  V30 11 1 1 10
M  V30 12 1 1 11
M  V30 13 1 3 12
M  V30 14 1 3 13
M  V30 15 1 4 14
M  V30 16 1 4 15
M  V30 17 1 6 16
M  V30 18 1 6 17
M  V30 19 1 7 18
M  V30 20 1 7 19
M  V30 21 1 8 20
M  V30 22 1 8 21
M  V30 23 1 9 22
M  V30 24 1 9 23
M  V30 END BOND
M  V30 END CTAB
M  END
