
     RDKit          3D

  0  0  0  0  0  0  0  0  0  0999 V3000
M  V30 BEGIN CTAB
M  V30 COUNTS 23 23 0 0 0
M  V30 BEGIN ATOM
M  V30 1 N -3.79065 0.676317 1.61054 0
M  V30 2 C -2.82371 -0.0745069 0.881824 0
M  V30 3 S -2.02065 -1.267 1.62907 0
M  V30 4 N -2.58212 0.217945 -0.462826 0
M  V30 5 S -1.45088 -0.5871 -1.47879 0
M  V30 6 O -1.50076 -0.0626763 -2.88463 0
M  V30 7 O -1.81476 -2.05464 -1.46445 0
M  V30 8 C 0.145598 -0.352536 -0.806919 0
M  V30 9 C 0.747362 0.893595 -0.969872 0
M  V30 10 C 2.01039 1.10907 -0.472869 0
M  V30 11 C 2.73135 0.14203 0.191887 0
M  V30 12 N 4.03138 0.3815 0.697659 0
M  V30 13 C 2.12293 -1.07808 0.342335 0
M  V30 14 C 0.839143 -1.32621 -0.153011 0
M  V30 15 H -4.78678 0.396183 1.49392 0
M  V30 16 H -3.52107 1.4703 2.23329 0
M  V30 17 H -3.13203 0.99958 -0.916176 0
M  V30 18 H 0.199351 1.66749 -1.48876 0
M  V30 19 H 2.47992 2.07494 -0.597761 0
M  V30 20 H 4.44561 -0.239301 1.42189 0
M  V30 21 H 4.59475 1.18496 0.351694 0
M  V30 22 H 2.66082 -1.85731 0.858473 0
M  V30 23 H 0.414793 -2.31455 -0.0165018 0
M  V30 END ATOM
M  V30 BEGIN BOND
M  V30 1 1 1 2
M  V30 2 2 2 3
M  V30 3 1 2 4
M  V30 4 1 4 5
M  V30 5 2 5 6
M  V30 6 2 5 7
M  V30 7 1 5 8
M  V30 8 2 8 9
M  V30 9 1 9 10
M  V30 10 2 10 11
M  V30 11 1 11 12
M  V30 12 1 11 13
M  V30 13 2 13 14
M  V30 14 1 14 8
M  V30 15 1 1 15
M  V30 16 1 1 16
M  V30 17 1 4 17
M  V30 18 1 9 18
M  V30 19 1 10 19
M  V30 20 1 12 20
M  V30 21 1 12 21
M  V30 22 1 13 22
M  V30 23 1 14 23
M  V30 END BOND
M  V30 END CTAB
M  END
