
     RDKit          3D

  0  0  0  0  0  0  0  0  0  0999 V3000
M  V30 BEGIN CTAB
M  V30 COUNTS 23 24 0 0 0
M  V30 BEGIN ATOM
M  V30 1 N -3.26758 -1.3971 -1.34933 0
M  V30 2 C -2.35802 -0.522551 -0.700065 0
M  V30 3 N -2.78403 0.566225 -0.0418018 0
M  V30 4 C -1.97853 1.4203 0.584313 0
M  V30 5 N -2.46899 2.55626 1.26663 0
M  V30 6 N -0.663463 1.1638 0.546206 0
M  V30 7 C -0.108511 0.101916 -0.0823727 0
M  V30 8 C -0.985372 -0.750024 -0.713984 0
M  V30 9 C 1.33633 -0.0688061 -0.0528892 0
M  V30 10 C 1.88438 -1.15199 -0.695857 0
M  V30 11 C 3.27515 -1.28225 -0.645607 0
M  V30 12 C 4.01229 -0.337171 0.0324036 0
M  V30 13 N 3.41529 0.716441 0.651666 0
M  V30 14 C 2.08495 0.873441 0.624413 0
M  V30 15 H -3.17259 -2.42346 -1.23172 0
M  V30 16 H -4.03877 -1.04666 -1.94848 0
M  V30 17 H -2.06007 2.86574 2.16491 0
M  V30 18 H -3.25291 3.09329 0.864332 0
M  V30 19 H -0.628291 -1.61132 -1.23279 0
M  V30 20 H 1.33836 -1.9091 -1.23474 0
M  V30 21 H 3.73786 -2.1206 -1.13954 0
M  V30 22 H 5.08661 -0.461324 0.0561012 0
M  V30 23 H 1.59591 1.72494 1.12424 0
M  V30 END ATOM
M  V30 BEGIN BOND
M  V30 1 1 1 2
M  V30 2 2 2 3
M  V30 3 1 3 4
M  V30 4 1 4 5
M  V30 5 2 4 6
M  V30 6 1 6 7
M  V30 7 2 7 8
M  V30 8 1 7 9
M  V30 9 2 9 10
M  V30 10 1 10 11
M  V30 11 2 11 12
M  V30 12 1 12 13
M  V30 13 2 13 14
M  V30 14 1 8 2
M  V30 15 1 14 9
M  V30 16 1 1 15
M  V30 17 1 1 16
M  V30 18 1 5 17
M  V30 19 1 5 18
M  V30 20 1 8 19
M  V30 21 1 10 20
M  V30 22 1 11 21
M  V30 23 1 12 22
M  V30 24 1 14 23
M  V30 END BOND
M  V30 END CTAB
M  END
