
     RDKit          3D

  0  0  0  0  0  0  0  0  0  0999 V3000
M  V30 BEGIN CTAB
M  V30 COUNTS 48 51 0 0 0
M  V30 BEGIN ATOM
M  V30 1 N -6.14844 2.14187 0.241367 0
M  V30 2 C -4.78846 2.40686 -0.105114 0 CFG=2
M  V30 3 C -4.33432 1.36416 -1.14035 0
M  V30 4 C -4.22417 0.414505 0.0291464 0 CFG=2
M  V30 5 C -3.86872 1.65071 0.866223 0
M  V30 6 C -3.19125 -0.611352 -0.0684694 0
M  V30 7 C -1.89754 -0.384253 -0.46906 0
M  V30 8 C -0.952514 -1.39491 -0.547495 0
M  V30 9 N -1.33926 -2.63107 -0.215196 0
M  V30 10 C -2.60775 -2.88425 0.183588 0
M  V30 11 N -3.50581 -1.89264 0.252428 0
M  V30 12 N -2.91579 -4.23369 0.518083 0
M  V30 13 N 0.398787 -1.11296 -0.963398 0
M  V30 14 C 1.33997 -2.16385 -1.05749 0
M  V30 15 C 2.41081 -2.26342 -0.0431067 0
M  V30 16 C 3.29894 -1.09764 0.0617368 0
M  V30 17 N 3.15689 -0.0399103 0.910965 0
M  V30 18 C 4.15465 0.842139 0.735025 0
M  V30 19 C 4.95599 0.332588 -0.25559 0
M  V30 20 N 4.42189 -0.831086 -0.64297 0
M  V30 21 C 6.07223 1.05725 -0.634211 0
M  V30 22 C 6.36431 2.26285 -0.0241105 0
M  V30 23 C 5.56407 2.77701 0.96922 0
M  V30 24 C 4.4648 2.06153 1.34111 0
M  V30 25 F 5.88753 3.98023 1.55123 0
M  V30 26 C 0.726355 0.270515 -1.25201 0
M  V30 27 H -6.32147 1.74376 1.15483 0
M  V30 28 H -6.69687 1.6614 -0.471613 0
M  V30 29 H -4.50649 3.43383 -0.32059 0
M  V30 30 H -5.09726 1.12473 -1.88401 0
M  V30 31 H -3.3841 1.70156 -1.57364 0
M  V30 32 H -5.21427 0.0751461 0.347108 0
M  V30 33 H -4.2499 1.60427 1.89061 0
M  V30 34 H -2.83534 1.98284 0.704176 0
M  V30 35 H -1.6025 0.598483 -0.730892 0
M  V30 36 H -3.78904 -4.63368 0.121639 0
M  V30 37 H -2.27188 -4.77455 1.14021 0
M  V30 38 H 1.8241 -2.15815 -2.08154 0
M  V30 39 H 0.752602 -3.13655 -1.08734 0
M  V30 40 H 3.06035 -3.16202 -0.277189 0
M  V30 41 H 1.9879 -2.40627 1.00356 0
M  V30 42 H 4.80705 -1.46194 -1.38686 0
M  V30 43 H 6.6903 0.629465 -1.42405 0
M  V30 44 H 7.22469 2.81288 -0.322258 0
M  V30 45 H 3.80728 2.41803 2.11228 0
M  V30 46 H 0.0308764 0.672548 -2.04778 0
M  V30 47 H 1.72769 0.372844 -1.67198 0
M  V30 48 H 0.6131 0.88018 -0.341527 0
M  V30 END ATOM
M  V30 BEGIN BOND
M  V30 1 1 1 2
M  V30 2 1 2 3
M  V30 3 1 3 4
M  V30 4 1 4 5
M  V30 5 1 4 6
M  V30 6 2 6 7
M  V30 7 1 7 8
M  V30 8 2 8 9
M  V30 9 1 9 10
M  V30 10 2 10 11
M  V30 11 1 10 12
M  V30 12 1 8 13
M  V30 13 1 13 14
M  V30 14 1 14 15
M  V30 15 1 15 16
M  V30 16 2 16 17
M  V30 17 1 17 18
M  V30 18 2 18 19
M  V30 19 1 19 20
M  V30 20 1 19 21
M  V30 21 2 21 22
M  V30 22 1 22 23
M  V30 23 2 23 24
M  V30 24 1 23 25
M  V30 25 1 13 26
M  V30 26 1 5 2
M  V30 27 1 11 6
M  V30 28 1 20 16
M  V30 29 1 24 18
M  V30 30 1 1 27
M  V30 31 1 1 28
M  V30 32 1 2 29 CFG=3
M  V30 33 1 3 30
M  V30 34 1 3 31
M  V30 35 1 4 32 CFG=1
M  V30 36 1 5 33
M  V30 37 1 5 34
M  V30 38 1 7 35
M  V30 39 1 12 36
M  V30 40 1 12 37
M  V30 41 1 14 38
M  V30 42 1 14 39
M  V30 43 1 15 40
M  V30 44 1 15 41
M  V30 45 1 20 42
M  V30 46 1 21 43
M  V30 47 1 22 44
M  V30 48 1 24 45
M  V30 49 1 26 46
M  V30 50 1 26 47
M  V30 51 1 26 48
M  V30 END BOND
M  V30 END CTAB
M  END
