
     RDKit          3D

  0  0  0  0  0  0  0  0  0  0999 V3000
M  V30 BEGIN CTAB
M  V30 COUNTS 28 29 0 0 0
M  V30 BEGIN ATOM
M  V30 1 N -1.97794 -2.00966 0.856191 0
M  V30 2 C -2.61491 -0.833027 0.317384 0
M  V30 3 C -3.98556 -0.673549 0.405791 0
M  V30 4 C -4.59968 0.448904 -0.107393 0
M  V30 5 C -3.82561 1.4175 -0.714142 0
M  V30 6 C -2.44182 1.24842 -0.799152 0
M  V30 7 C -1.80794 0.13301 -0.292155 0
M  V30 8 N -0.425693 -0.0865953 -0.350383 0
M  V30 9 N 0.474103 0.775439 -0.295384 0
M  V30 10 C 1.82468 0.351958 -0.371593 0
M  V30 11 C 2.64005 0.431022 0.736942 0
M  V30 12 N 2.11685 0.943794 1.96922 0
M  V30 13 C 3.96956 0.0210063 0.685616 0
M  V30 14 C 4.51987 -0.478797 -0.474158 0
M  V30 15 C 3.70462 -0.557197 -1.58028 0
M  V30 16 C 2.38894 -0.149547 -1.52292 0
M  V30 17 H -1.12503 -1.89767 1.44827 0
M  V30 18 H -2.35683 -2.95482 0.661821 0
M  V30 19 H -4.59262 -1.42938 0.879644 0
M  V30 20 H -5.67465 0.588944 -0.0459333 0
M  V30 21 H -4.28919 2.30591 -1.12314 0
M  V30 22 H -1.82306 2.00032 -1.27239 0
M  V30 23 H 2.77119 1.43341 2.6187 0
M  V30 24 H 1.11502 0.841364 2.22848 0
M  V30 25 H 4.59631 0.0880922 1.55947 0
M  V30 26 H 5.55503 -0.79918 -0.518074 0
M  V30 27 H 4.11825 -0.945215 -2.4946 0
M  V30 28 H 1.74606 -0.214457 -2.40585 0
M  V30 END ATOM
M  V30 BEGIN BOND
M  V30 1 1 1 2
M  V30 2 2 2 3
M  V30 3 1 3 4
M  V30 4 2 4 5
M  V30 5 1 5 6
M  V30 6 2 6 7
M  V30 7 1 7 8
M  V30 8 2 8 9 CFG=2
M  V30 9 1 9 10
M  V30 10 2 10 11
M  V30 11 1 11 12
M  V30 12 1 11 13
M  V30 13 2 13 14
M  V30 14 1 14 15
M  V30 15 2 15 16
M  V30 16 1 7 2
M  V30 17 1 16 10
M  V30 18 1 1 17
M  V30 19 1 1 18
M  V30 20 1 3 19
M  V30 21 1 4 20
M  V30 22 1 5 21
M  V30 23 1 6 22
M  V30 24 1 12 23
M  V30 25 1 12 24
M  V30 26 1 13 25
M  V30 27 1 14 26
M  V30 28 1 15 27
M  V30 29 1 16 28
M  V30 END BOND
M  V30 END CTAB
M  END
