
     RDKit          3D

  0  0  0  0  0  0  0  0  0  0999 V3000
M  V30 BEGIN CTAB
M  V30 COUNTS 40 41 0 0 0
M  V30 BEGIN ATOM
M  V30 1 C 5.72713 -0.23299 -1.74345 0
M  V30 2 C 4.99722 0.335485 -0.565464 0
M  V30 3 C 3.59333 -0.228445 -0.556046 0
M  V30 4 O 2.84027 0.262716 0.529395 0
M  V30 5 C 1.51893 -0.121443 0.724589 0
M  V30 6 C 0.78119 0.362241 1.794 0
M  V30 7 C -0.545505 -0.0173867 1.99724 0
M  V30 8 C -1.19008 -0.885334 1.15412 0
M  V30 9 C -0.440101 -1.36968 0.0774842 0
M  V30 10 C 0.870027 -0.992133 -0.119318 0
M  V30 11 C -2.59321 -1.32152 1.2945 0
M  V30 12 C -3.55352 -0.7228 0.39371 0
M  V30 13 C -4.00062 -1.4547 -0.700077 0
M  V30 14 N -4.89137 -0.907924 -1.55199 0
M  V30 15 C -5.38318 0.347927 -1.39034 0
M  V30 16 N -4.95626 1.04735 -0.344909 0
M  V30 17 C -4.05339 0.535391 0.546415 0
M  V30 18 N -3.63735 1.31843 1.64812 0
M  V30 19 N -6.31984 0.83471 -2.34036 0
M  V30 20 C 4.97437 1.84674 -0.696303 0
M  V30 21 H 5.13235 -0.278697 -2.65898 0
M  V30 22 H 6.07787 -1.26287 -1.51063 0
M  V30 23 H 6.66506 0.34706 -1.96275 0
M  V30 24 H 5.50521 0.0567252 0.379693 0
M  V30 25 H 3.11564 -0.00301474 -1.54737 0
M  V30 26 H 3.66805 -1.32508 -0.455581 0
M  V30 27 H 1.2667 1.04933 2.47294 0
M  V30 28 H -1.09853 0.371886 2.85956 0
M  V30 29 H -0.942172 -2.06348 -0.602582 0
M  V30 30 H 1.43943 -1.37416 -0.956282 0
M  V30 31 H -2.68432 -2.44463 1.23021 0
M  V30 32 H -2.93259 -1.11265 2.35273 0
M  V30 33 H -3.62798 -2.45735 -0.855345 0
M  V30 34 H -3.15467 2.2184 1.46763 0
M  V30 35 H -3.7935 1.03079 2.63144 0
M  V30 36 H -7.14852 0.262878 -2.64352 0
M  V30 37 H -6.20617 1.76598 -2.75547 0
M  V30 38 H 4.30965 2.3052 0.0648682 0
M  V30 39 H 5.9958 2.21721 -0.528596 0
M  V30 40 H 4.67466 2.05984 -1.73276 0
M  V30 END ATOM
M  V30 BEGIN BOND
M  V30 1 1 1 2
M  V30 2 1 2 3
M  V30 3 1 3 4
M  V30 4 1 4 5
M  V30 5 2 5 6
M  V30 6 1 6 7
M  V30 7 2 7 8
M  V30 8 1 8 9
M  V30 9 2 9 10
M  V30 10 1 8 11
M  V30 11 1 11 12
M  V30 12 2 12 13
M  V30 13 1 13 14
M  V30 14 2 14 15
M  V30 15 1 15 16
M  V30 16 2 16 17
M  V30 17 1 17 18
M  V30 18 1 15 19
M  V30 19 1 2 20
M  V30 20 1 10 5
M  V30 21 1 17 12
M  V30 22 1 1 21
M  V30 23 1 1 22
M  V30 24 1 1 23
M  V30 25 1 2 24
M  V30 26 1 3 25
M  V30 27 1 3 26
M  V30 28 1 6 27
M  V30 29 1 7 28
M  V30 30 1 9 29
M  V30 31 1 10 30
M  V30 32 1 11 31
M  V30 33 1 11 32
M  V30 34 1 13 33
M  V30 35 1 18 34
M  V30 36 1 18 35
M  V30 37 1 19 36
M  V30 38 1 19 37
M  V30 39 1 20 38
M  V30 40 1 20 39
M  V30 41 1 20 40
M  V30 END BOND
M  V30 END CTAB
M  END
