
     RDKit          3D

  0  0  0  0  0  0  0  0  0  0999 V3000
M  V30 BEGIN CTAB
M  V30 COUNTS 53 57 0 0 0
M  V30 BEGIN ATOM
M  V30 1 N -2.06036 4.04383 1.25336 0
M  V30 2 C -1.57773 3.08378 0.822892 0
M  V30 3 C -0.992066 1.86715 0.268738 0
M  V30 4 C 0.274464 1.65432 0.553551 0
M  V30 5 N 1.00328 2.58596 1.36402 0
M  V30 6 N 0.98821 0.520273 0.0917496 0
M  V30 7 C 0.239493 -0.396965 -0.716662 0
M  V30 8 C -1.02789 -0.206547 -1.01535 0
M  V30 9 C -1.76627 0.949838 -0.547527 0
M  V30 10 C -3.07548 0.592893 0.0684372 0
M  V30 11 C -3.14871 -0.14654 1.23525 0
M  V30 12 C -4.39964 -0.458389 1.77969 0
M  V30 13 C -5.57146 -0.0485019 1.18492 0
M  V30 14 C -5.50564 0.685082 0.0276288 0
M  V30 15 C -4.26877 0.981607 -0.492098 0
M  V30 16 O -6.79816 1.00171 -0.415187 0
M  V30 17 C -7.66966 0.730797 0.666763 0
M  V30 18 O -6.93534 -0.19474 1.4736 0
M  V30 19 C -1.71574 -1.21686 -1.86384 0
M  V30 20 O -2.72974 -0.839474 -2.47246 0
M  V30 21 C -1.14588 -2.56062 -1.91115 0
M  V30 22 C 0.35064 -2.42442 -2.18894 0
M  V30 23 C 1.03652 -1.58108 -1.18137 0
M  V30 24 C 2.35855 0.315003 0.415193 0
M  V30 25 C 2.77837 -0.372003 1.52917 0
M  V30 26 C 4.11404 -0.513216 1.74884 0
M  V30 27 C 5.08017 -0.000404297 0.907777 0
M  V30 28 C 4.65274 0.687468 -0.207562 0
M  V30 29 C 3.3066 0.850927 -0.463325 0
M  V30 30 S 6.79477 -0.189357 1.20239 0
M  V30 31 O 7.50657 1.01981 0.663156 0
M  V30 32 O 7.03748 -0.307067 2.69942 0
M  V30 33 N 7.36744 -1.64768 0.444437 0
M  V30 34 H 1.40003 3.42954 0.931983 0
M  V30 35 H 1.10117 2.36693 2.36625 0
M  V30 36 H -2.03293 1.53943 -1.48946 0
M  V30 37 H -2.24145 -0.470383 1.70595 0
M  V30 38 H -4.45056 -1.03856 2.69492 0
M  V30 39 H -4.23219 1.56897 -1.41802 0
M  V30 40 H -7.84118 1.68431 1.19503 0
M  V30 41 H -8.58522 0.279618 0.247513 0
M  V30 42 H -1.55244 -3.17974 -2.71846 0
M  V30 43 H -1.29278 -3.12833 -0.961271 0
M  V30 44 H 0.752466 -3.47551 -2.09564 0
M  V30 45 H 0.504644 -2.13657 -3.23066 0
M  V30 46 H 1.41387 -2.17634 -0.308481 0
M  V30 47 H 1.95792 -1.14696 -1.65689 0
M  V30 48 H 2.00324 -0.766651 2.17666 0
M  V30 49 H 4.44388 -1.05557 2.62825 0
M  V30 50 H 5.38413 1.11573 -0.90943 0
M  V30 51 H 2.96722 1.40001 -1.35365 0
M  V30 52 H 8.28491 -1.86831 0.917026 0
M  V30 53 H 7.51449 -1.40818 -0.568807 0
M  V30 END ATOM
M  V30 BEGIN BOND
M  V30 1 3 1 2
M  V30 2 1 2 3
M  V30 3 2 3 4
M  V30 4 1 4 5
M  V30 5 1 4 6
M  V30 6 1 6 7
M  V30 7 2 7 8
M  V30 8 1 8 9
M  V30 9 1 9 10
M  V30 10 2 10 11
M  V30 11 1 11 12
M  V30 12 2 12 13
M  V30 13 1 13 14
M  V30 14 2 14 15
M  V30 15 1 14 16
M  V30 16 1 16 17
M  V30 17 1 17 18
M  V30 18 1 8 19
M  V30 19 2 19 20
M  V30 20 1 19 21
M  V30 21 1 21 22
M  V30 22 1 22 23
M  V30 23 1 6 24
M  V30 24 2 24 25
M  V30 25 1 25 26
M  V30 26 2 26 27
M  V30 27 1 27 28
M  V30 28 2 28 29
M  V30 29 1 27 30
M  V30 30 2 30 31
M  V30 31 2 30 32
M  V30 32 1 30 33
M  V30 33 1 9 3
M  V30 34 1 15 10
M  V30 35 1 29 24
M  V30 36 1 23 7
M  V30 37 1 18 13
M  V30 38 1 5 34
M  V30 39 1 5 35
M  V30 40 1 9 36
M  V30 41 1 11 37
M  V30 42 1 12 38
M  V30 43 1 15 39
M  V30 44 1 17 40
M  V30 45 1 17 41
M  V30 46 1 21 42
M  V30 47 1 21 43
M  V30 48 1 22 44
M  V30 49 1 22 45
M  V30 50 1 23 46
M  V30 51 1 23 47
M  V30 52 1 25 48
M  V30 53 1 26 49
M  V30 54 1 28 50
M  V30 55 1 29 51
M  V30 56 1 33 52
M  V30 57 1 33 53
M  V30 END BOND
M  V30 END CTAB
M  END
