
     RDKit          3D

  0  0  0  0  0  0  0  0  0  0999 V3000
M  V30 BEGIN CTAB
M  V30 COUNTS 52 52 0 0 0
M  V30 BEGIN ATOM
M  V30 1 N -7.55244 2.36769 1.25857 0
M  V30 2 C -8.03559 1.33764 0.379199 0
M  V30 3 C -7.61218 -0.0159417 0.809823 0
M  V30 4 C -6.12657 -0.167562 0.814581 0
M  V30 5 O -5.51006 0.00656929 -0.425394 0
M  V30 6 C -4.13563 -0.159332 -0.53664 0
M  V30 7 C -3.29567 0.907259 -0.380386 0
M  V30 8 Br -3.90868 2.69352 -0.0176662 0
M  V30 9 C -1.91132 0.721835 -0.494278 0
M  V30 10 C -1.34749 -0.504684 -0.760994 0
M  V30 11 C 0.123081 -0.680423 -0.878312 0
M  V30 12 C 0.704569 -0.996665 0.440541 0
M  V30 13 N -0.0598594 -1.07873 1.46147 0
M  V30 14 O 0.367466 -1.36467 2.72692 0
M  V30 15 C 2.12853 -1.21674 0.602558 0
M  V30 16 O 2.54997 -1.48089 1.75172 0
M  V30 17 N 2.94143 -1.11741 -0.549822 0
M  V30 18 C 4.35923 -1.31689 -0.451365 0
M  V30 19 C 4.95403 -0.264664 0.447169 0
M  V30 20 C 6.44869 -0.402944 0.600115 0
M  V30 21 C 7.11193 -0.249274 -0.734225 0
M  V30 22 C 6.82083 1.08838 -1.3035 0
M  V30 23 N 7.14701 2.2911 -0.624776 0
M  V30 24 N 6.25835 1.17468 -2.45438 0
M  V30 25 C -2.23432 -1.55558 -0.911944 0
M  V30 26 C -3.58996 -1.40614 -0.806399 0
M  V30 27 Br -4.75674 -2.89074 -1.02453 0
M  V30 28 H -8.23853 2.64961 1.99525 0
M  V30 29 H -7.24091 3.21468 0.733452 0
M  V30 30 H -9.13856 1.42866 0.215594 0
M  V30 31 H -7.596 1.56733 -0.634685 0
M  V30 32 H -7.94397 -0.131959 1.88407 0
M  V30 33 H -8.13121 -0.840593 0.275333 0
M  V30 34 H -5.88527 -1.15656 1.27879 0
M  V30 35 H -5.72498 0.64716 1.48576 0
M  V30 36 H -1.25651 1.57991 -0.367096 0
M  V30 37 H 0.384885 -1.43568 -1.6515 0
M  V30 38 H 0.6135 0.272991 -1.22787 0
M  V30 39 H -0.0656805 -2.12443 3.22421 0
M  V30 40 H 2.54807 -0.900098 -1.49259 0
M  V30 41 H 4.83972 -1.29045 -1.45406 0
M  V30 42 H 4.56523 -2.35299 -0.0271809 0
M  V30 43 H 4.6925 0.718909 -0.0467887 0
M  V30 44 H 4.5172 -0.211546 1.4438 0
M  V30 45 H 6.63444 -1.38944 1.05921 0
M  V30 46 H 6.76479 0.37272 1.33074 0
M  V30 47 H 8.21021 -0.357749 -0.548005 0
M  V30 48 H 6.83961 -1.06422 -1.39941 0
M  V30 49 H 7.96439 2.40496 0.0104881 0
M  V30 50 H 6.53982 3.12452 -0.759372 0
M  V30 51 H 6.04003 2.08405 -2.88323 0
M  V30 52 H -1.77141 -2.52918 -1.12468 0
M  V30 END ATOM
M  V30 BEGIN BOND
M  V30 1 1 1 2
M  V30 2 1 2 3
M  V30 3 1 3 4
M  V30 4 1 4 5
M  V30 5 1 5 6
M  V30 6 2 6 7
M  V30 7 1 7 8
M  V30 8 1 7 9
M  V30 9 2 9 10
M  V30 10 1 10 11
M  V30 11 1 11 12
M  V30 12 2 12 13 CFG=2
M  V30 13 1 13 14
M  V30 14 1 12 15
M  V30 15 2 15 16
M  V30 16 1 15 17
M  V30 17 1 17 18
M  V30 18 1 18 19
M  V30 19 1 19 20
M  V30 20 1 20 21
M  V30 21 1 21 22
M  V30 22 1 22 23
M  V30 23 2 22 24 CFG=2
M  V30 24 1 10 25
M  V30 25 2 25 26
M  V30 26 1 26 27
M  V30 27 1 26 6
M  V30 28 1 1 28
M  V30 29 1 1 29
M  V30 30 1 2 30
M  V30 31 1 2 31
M  V30 32 1 3 32
M  V30 33 1 3 33
M  V30 34 1 4 34
M  V30 35 1 4 35
M  V30 36 1 9 36
M  V30 37 1 11 37
M  V30 38 1 11 38
M  V30 39 1 14 39
M  V30 40 1 17 40
M  V30 41 1 18 41
M  V30 42 1 18 42
M  V30 43 1 19 43
M  V30 44 1 19 44
M  V30 45 1 20 45
M  V30 46 1 20 46
M  V30 47 1 21 47
M  V30 48 1 21 48
M  V30 49 1 23 49
M  V30 50 1 23 50
M  V30 51 1 24 51
M  V30 52 1 25 52
M  V30 END BOND
M  V30 END CTAB
M  END
