
     RDKit          3D

  0  0  0  0  0  0  0  0  0  0999 V3000
M  V30 BEGIN CTAB
M  V30 COUNTS 28 28 0 0 0
M  V30 BEGIN ATOM
M  V30 1 C -0.80058 2.08924 0.108504 0
M  V30 2 C -0.699314 0.654379 0.482367 0
M  V30 3 N 0.668597 0.131097 0.351986 0
M  V30 4 N 1.23179 -0.763378 1.14179 0
M  V30 5 C 2.47564 -1.02934 0.762108 0
M  V30 6 C 2.70995 -0.250685 -0.339093 0
M  V30 7 C 1.57081 0.465153 -0.578148 0
M  V30 8 N 1.32758 1.41598 -1.62097 0
M  V30 9 N 3.41452 -1.92986 1.34496 0
M  V30 10 C -1.60514 -0.250032 -0.309496 0
M  V30 11 C -1.44325 -1.68831 0.129141 0
M  V30 12 C -3.04827 0.114587 -0.204406 0
M  V30 13 H -1.58451 2.62834 0.718055 0
M  V30 14 H -1.06461 2.28231 -0.942574 0
M  V30 15 H 0.142663 2.64547 0.328279 0
M  V30 16 H -0.956254 0.557956 1.55733 0
M  V30 17 H 3.60132 -0.168038 -0.950702 0
M  V30 18 H 1.71577 2.37166 -1.51653 0
M  V30 19 H 0.778375 1.16685 -2.46437 0
M  V30 20 H 3.79851 -1.73577 2.2997 0
M  V30 21 H 3.73248 -2.79029 0.834786 0
M  V30 22 H -1.32453 -0.219287 -1.39097 0
M  V30 23 H -0.662558 -2.22597 -0.442917 0
M  V30 24 H -2.41356 -2.25685 0.0416626 0
M  V30 25 H -1.20736 -1.697 1.21494 0
M  V30 26 H -3.36129 0.893038 -0.928309 0
M  V30 27 H -3.35338 0.385974 0.833164 0
M  V30 28 H -3.64342 -0.797214 -0.460275 0
M  V30 END ATOM
M  V30 BEGIN BOND
M  V30 1 1 1 2
M  V30 2 1 2 3
M  V30 3 1 3 4
M  V30 4 2 4 5
M  V30 5 1 5 6
M  V30 6 2 6 7
M  V30 7 1 7 8
M  V30 8 1 5 9
M  V30 9 1 2 10
M  V30 10 1 10 11
M  V30 11 1 10 12
M  V30 12 1 7 3
M  V30 13 1 1 13
M  V30 14 1 1 14
M  V30 15 1 1 15
M  V30 16 1 2 16
M  V30 17 1 6 17
M  V30 18 1 8 18
M  V30 19 1 8 19
M  V30 20 1 9 20
M  V30 21 1 9 21
M  V30 22 1 10 22
M  V30 23 1 11 23
M  V30 24 1 11 24
M  V30 25 1 11 25
M  V30 26 1 12 26
M  V30 27 1 12 27
M  V30 28 1 12 28
M  V30 END BOND
M  V30 END CTAB
M  END
