
     RDKit          3D

  0  0  0  0  0  0  0  0  0  0999 V3000
M  V30 BEGIN CTAB
M  V30 COUNTS 52 54 0 0 0
M  V30 BEGIN ATOM
M  V30 1 N -3.63699 -4.26972 -1.21855 0
M  V30 2 C -3.00185 -3.63297 -0.127527 0
M  V30 3 N -2.59404 -4.30885 0.862166 0
M  V30 4 C -2.82879 -2.16317 -0.177357 0
M  V30 5 C -2.2151 -1.5339 0.867667 0
M  V30 6 C -2.04064 -0.145871 0.843629 0
M  V30 7 C -2.47811 0.595739 -0.217725 0
M  V30 8 C -3.09356 -0.0510223 -1.26162 0
M  V30 9 C -3.2735 -1.44153 -1.24769 0
M  V30 10 C -2.29453 2.02253 -0.233574 0
M  V30 11 C -1.09279 2.53496 -0.240967 0
M  V30 12 C -0.943826 4.04008 -0.248305 0
M  V30 13 C 0.1006 4.32581 0.823536 0
M  V30 14 C 1.43316 3.86131 0.314951 0
M  V30 15 C 1.40163 2.36818 0.195433 0
M  V30 16 C 2.45022 1.65372 0.472935 0
M  V30 17 C 2.46995 0.224508 0.382386 0
M  V30 18 C 3.33717 -0.396437 -0.491426 0
M  V30 19 C 3.44488 -1.78014 -0.540709 0
M  V30 20 C 2.68133 -2.58947 0.290188 0
M  V30 21 C 1.81952 -1.96903 1.1583 0
M  V30 22 C 1.72276 -0.573589 1.19566 0
M  V30 23 C 2.81936 -4.05783 0.214592 0
M  V30 24 N 3.76074 -4.59469 -0.733826 0
M  V30 25 N 2.15178 -4.84337 0.941291 0
M  V30 26 C 0.165177 1.80372 -0.313478 0
M  V30 27 O 0.139046 0.669606 -0.838456 0
M  V30 28 C 0.157076 5.75442 1.13392 0
M  V30 29 O -0.966004 6.42845 1.61702 0
M  V30 30 O 1.22741 6.38282 0.964569 0
M  V30 31 H -3.03527 -4.95703 -1.75941 0
M  V30 32 H -4.63104 -4.0945 -1.49663 0
M  V30 33 H -2.72466 -5.33581 0.876737 0
M  V30 34 H -1.87051 -2.12741 1.70597 0
M  V30 35 H -1.54798 0.326203 1.69107 0
M  V30 36 H -3.45745 0.486357 -2.12393 0
M  V30 37 H -3.757 -1.96004 -2.06406 0
M  V30 38 H -3.18506 2.68717 -0.240734 0
M  V30 39 H -0.548999 4.34283 -1.23243 0
M  V30 40 H -1.90251 4.53416 -0.0151005 0
M  V30 41 H -0.12991 3.70447 1.72731 0
M  V30 42 H 2.21497 4.19211 1.02108 0
M  V30 43 H 1.59709 4.3057 -0.673626 0
M  V30 44 H 3.38866 2.19453 0.799978 0
M  V30 45 H 3.93659 0.228514 -1.14334 0
M  V30 46 H 4.12405 -2.26796 -1.22547 0
M  V30 47 H 1.21937 -2.57544 1.80961 0
M  V30 48 H 1.03267 -0.124978 1.89342 0
M  V30 49 H 3.52904 -4.68113 -1.74677 0
M  V30 50 H 4.70999 -4.91595 -0.434931 0
M  V30 51 H 1.46513 -4.55838 1.63866 0
M  V30 52 H -1.24922 6.28231 2.58964 0
M  V30 END ATOM
M  V30 BEGIN BOND
M  V30 1 1 1 2
M  V30 2 2 2 3 CFG=2
M  V30 3 1 2 4
M  V30 4 2 4 5
M  V30 5 1 5 6
M  V30 6 2 6 7
M  V30 7 1 7 8
M  V30 8 2 8 9
M  V30 9 1 7 10
M  V30 10 2 10 11
M  V30 11 1 11 12
M  V30 12 1 12 13
M  V30 13 1 13 14
M  V30 14 1 14 15
M  V30 15 2 15 16
M  V30 16 1 16 17
M  V30 17 2 17 18
M  V30 18 1 18 19
M  V30 19 2 19 20
M  V30 20 1 20 21
M  V30 21 2 21 22
M  V30 22 1 20 23
M  V30 23 1 23 24
M  V30 24 2 23 25 CFG=2
M  V30 25 1 15 26
M  V30 26 2 26 27
M  V30 27 1 13 28
M  V30 28 1 28 29
M  V30 29 2 28 30
M  V30 30 1 9 4
M  V30 31 1 26 11
M  V30 32 1 22 17
M  V30 33 1 1 31
M  V30 34 1 1 32
M  V30 35 1 3 33
M  V30 36 1 5 34
M  V30 37 1 6 35
M  V30 38 1 8 36
M  V30 39 1 9 37
M  V30 40 1 10 38
M  V30 41 1 12 39
M  V30 42 1 12 40
M  V30 43 1 13 41
M  V30 44 1 14 42
M  V30 45 1 14 43
M  V30 46 1 16 44
M  V30 47 1 18 45
M  V30 48 1 19 46
M  V30 49 1 21 47
M  V30 50 1 22 48
M  V30 51 1 24 49
M  V30 52 1 24 50
M  V30 53 1 25 51
M  V30 54 1 29 52
M  V30 END BOND
M  V30 END CTAB
M  END
