
     RDKit          3D

  0  0  0  0  0  0  0  0  0  0999 V3000
M  V30 BEGIN CTAB
M  V30 COUNTS 38 39 0 0 0
M  V30 BEGIN ATOM
M  V30 1 N 5.00205 2.58806 -0.607058 0
M  V30 2 C 4.6805 1.88957 0.612268 0
M  V30 3 C 3.96128 0.621218 0.371288 0
M  V30 4 C 2.59451 0.630136 0.320642 0
M  V30 5 C 1.89652 -0.551502 0.0950708 0
M  V30 6 N 0.483225 -0.577012 0.0368607 0
M  V30 7 C -0.243383 0.646295 0.215145 0
M  V30 8 C -1.69164 0.496932 0.134597 0
M  V30 9 C -2.40697 0.234668 1.27666 0
M  V30 10 C -3.7984 0.0905008 1.20208 0
M  V30 11 C -4.46031 0.207313 0.00350047 0
M  V30 12 C -3.72824 0.470392 -1.13189 0
M  V30 13 C -2.33644 0.616962 -1.07213 0
M  V30 14 S -6.18503 0.0364659 -0.138337 0
M  V30 15 O -6.64291 0.879825 -1.29401 0
M  V30 16 O -6.88228 0.593089 1.09078 0
M  V30 17 N -6.66815 -1.58079 -0.439677 0
M  V30 18 N 2.64472 -1.67583 -0.0656779 0
M  V30 19 C 3.98693 -1.68832 -0.016567 0
M  V30 20 N 4.63446 -0.531032 0.202981 0
M  V30 21 C 4.75385 -2.96725 -0.202626 0
M  V30 22 H 5.07761 1.96848 -1.43795 0
M  V30 23 H 4.39246 3.42055 -0.769442 0
M  V30 24 H 5.63926 1.61944 1.12652 0
M  V30 25 H 4.15567 2.57978 1.28164 0
M  V30 26 H 1.99163 1.53519 0.45002 0
M  V30 27 H -0.0234365 -1.4587 -0.130933 0
M  V30 28 H 0.100788 1.07565 1.19284 0
M  V30 29 H 0.06993 1.32269 -0.627872 0
M  V30 30 H -1.93919 0.132466 2.24698 0
M  V30 31 H -4.34776 -0.115787 2.10972 0
M  V30 32 H -4.19947 0.571654 -2.09878 0
M  V30 33 H -1.80867 0.823663 -1.9975 0
M  V30 34 H -7.52554 -1.84974 0.0874601 0
M  V30 35 H -5.8921 -2.26948 -0.35279 0
M  V30 36 H 5.76072 -2.74469 -0.576169 0
M  V30 37 H 4.8072 -3.44298 0.802603 0
M  V30 38 H 4.14662 -3.59789 -0.862002 0
M  V30 END ATOM
M  V30 BEGIN BOND
M  V30 1 1 1 2
M  V30 2 1 2 3
M  V30 3 2 3 4
M  V30 4 1 4 5
M  V30 5 1 5 6
M  V30 6 1 6 7
M  V30 7 1 7 8
M  V30 8 2 8 9
M  V30 9 1 9 10
M  V30 10 2 10 11
M  V30 11 1 11 12
M  V30 12 2 12 13
M  V30 13 1 11 14
M  V30 14 2 14 15
M  V30 15 2 14 16
M  V30 16 1 14 17
M  V30 17 2 5 18
M  V30 18 1 18 19
M  V30 19 2 19 20
M  V30 20 1 19 21
M  V30 21 1 20 3
M  V30 22 1 13 8
M  V30 23 1 1 22
M  V30 24 1 1 23
M  V30 25 1 2 24
M  V30 26 1 2 25
M  V30 27 1 4 26
M  V30 28 1 6 27
M  V30 29 1 7 28
M  V30 30 1 7 29
M  V30 31 1 9 30
M  V30 32 1 10 31
M  V30 33 1 12 32
M  V30 34 1 13 33
M  V30 35 1 17 34
M  V30 36 1 17 35
M  V30 37 1 21 36
M  V30 38 1 21 37
M  V30 39 1 21 38
M  V30 END BOND
M  V30 END CTAB
M  END
