
     RDKit          3D

  0  0  0  0  0  0  0  0  0  0999 V3000
M  V30 BEGIN CTAB
M  V30 COUNTS 27 27 0 0 0
M  V30 BEGIN ATOM
M  V30 1 N 0.907871 -0.00695003 1.9894 0
M  V30 2 C 1.34398 0.401069 0.644262 0
M  V30 3 C 0.374808 -0.18594 -0.325532 0
M  V30 4 C -0.985631 0.344905 -0.160735 0
M  V30 5 C -1.26051 1.50593 0.533203 0
M  V30 6 N -2.54104 1.93282 0.606863 0
M  V30 7 C -3.57286 1.27662 0.0308434 0
M  V30 8 C -3.32393 0.105116 -0.671524 0
M  V30 9 C -2.03002 -0.345521 -0.7573 0
M  V30 10 N -1.80351 -1.55544 -1.46391 0
M  V30 11 O 0.352485 -1.55952 -0.232278 0
M  V30 12 C 2.72234 -0.211992 0.47849 0
M  V30 13 C 3.23314 0.153155 -0.841616 0
M  V30 14 C 3.64591 0.45669 -1.94183 0
M  V30 15 H 0.904663 -1.07135 1.97591 0
M  V30 16 H 1.71001 0.220317 2.62208 0
M  V30 17 H 1.43712 1.48509 0.621075 0
M  V30 18 H 0.701348 0.101288 -1.36673 0
M  V30 19 H -0.462838 2.03884 0.985659 0
M  V30 20 H -4.5778 1.66846 0.125484 0
M  V30 21 H -4.14623 -0.42065 -1.13116 0
M  V30 22 H -1.53629 -1.51932 -2.45366 0
M  V30 23 H -1.91104 -2.44561 -0.944864 0
M  V30 24 H 0.70851 -2.0196 -1.03793 0
M  V30 25 H 2.73022 -1.29477 0.618603 0
M  V30 26 H 3.39154 0.219058 1.25174 0
M  V30 27 H 3.98777 0.727319 -2.90347 0
M  V30 END ATOM
M  V30 BEGIN BOND
M  V30 1 1 1 2
M  V30 2 1 2 3
M  V30 3 1 3 4
M  V30 4 2 4 5
M  V30 5 1 5 6
M  V30 6 2 6 7
M  V30 7 1 7 8
M  V30 8 2 8 9
M  V30 9 1 9 10
M  V30 10 1 3 11
M  V30 11 1 2 12
M  V30 12 1 12 13
M  V30 13 3 13 14
M  V30 14 1 9 4
M  V30 15 1 1 15
M  V30 16 1 1 16
M  V30 17 1 2 17
M  V30 18 1 3 18
M  V30 19 1 5 19
M  V30 20 1 7 20
M  V30 21 1 8 21
M  V30 22 1 10 22
M  V30 23 1 10 23
M  V30 24 1 11 24
M  V30 25 1 12 25
M  V30 26 1 12 26
M  V30 27 1 14 27
M  V30 END BOND
M  V30 END CTAB
M  END
