
     RDKit          3D

  0  0  0  0  0  0  0  0  0  0999 V3000
M  V30 BEGIN CTAB
M  V30 COUNTS 23 23 0 0 0
M  V30 BEGIN ATOM
M  V30 1 N 3.18744 -2.02262 -1.34941 0
M  V30 2 C 2.76657 -1.50598 -0.406518 0
M  V30 3 C 2.23685 -0.817292 0.798583 0
M  V30 4 C 0.981793 -0.121016 0.391443 0
M  V30 5 C 1.05107 1.23351 0.165568 0
M  V30 6 C -0.0882595 1.89415 -0.225721 0
M  V30 7 N -0.0315072 3.30302 -0.474152 0
M  V30 8 C -1.27353 1.23689 -0.391059 0
M  V30 9 C -1.31453 -0.117704 -0.158097 0
M  V30 10 C -0.209366 -0.836541 0.23509 0
M  V30 11 N -0.239798 -2.22675 0.476807 0
M  V30 12 C -2.60024 -0.852664 -0.328225 0
M  V30 13 H 2.05959 -1.63628 1.53267 0
M  V30 14 H 2.9373 -0.0575194 1.18989 0
M  V30 15 H 2.00286 1.76033 0.301018 0
M  V30 16 H -0.885515 3.85654 -0.570494 0
M  V30 17 H 0.896616 3.77486 -0.559494 0
M  V30 18 H -2.16655 1.79317 -0.701335 0
M  V30 19 H -0.0700896 -2.88321 -0.308719 0
M  V30 20 H -0.428469 -2.6237 1.41809 0
M  V30 21 H -3.4084 -0.194924 -0.693167 0
M  V30 22 H -2.90051 -1.24958 0.676597 0
M  V30 23 H -2.5033 -1.7067 -1.01936 0
M  V30 END ATOM
M  V30 BEGIN BOND
M  V30 1 3 1 2
M  V30 2 1 2 3
M  V30 3 1 3 4
M  V30 4 2 4 5
M  V30 5 1 5 6
M  V30 6 1 6 7
M  V30 7 2 6 8
M  V30 8 1 8 9
M  V30 9 2 9 10
M  V30 10 1 10 11
M  V30 11 1 9 12
M  V30 12 1 10 4
M  V30 13 1 3 13
M  V30 14 1 3 14
M  V30 15 1 5 15
M  V30 16 1 7 16
M  V30 17 1 7 17
M  V30 18 1 8 18
M  V30 19 1 11 19
M  V30 20 1 11 20
M  V30 21 1 12 21
M  V30 22 1 12 22
M  V30 23 1 12 23
M  V30 END BOND
M  V30 END CTAB
M  END
