
     RDKit          3D

  0  0  0  0  0  0  0  0  0  0999 V3000
M  V30 BEGIN CTAB
M  V30 COUNTS 47 49 0 0 0
M  V30 BEGIN ATOM
M  V30 1 N -3.26409 5.04103 -1.4014 0
M  V30 2 C -3.22887 3.64505 -1.06606 0
M  V30 3 N -4.33781 2.98096 -0.749515 0
M  V30 4 C -4.26907 1.67574 -0.442127 0
M  V30 5 N -5.42664 0.93354 -0.097862 0
M  V30 6 C -3.0425 1.0096 -0.452076 0
M  V30 7 C -1.91189 1.68519 -0.774832 0
M  V30 8 C -0.572415 1.08475 -0.819994 0
M  V30 9 C 0.0216106 0.997585 0.53715 0
M  V30 10 C 1.386 0.40612 0.527721 0
M  V30 11 C 2.45002 1.26142 0.414527 0
M  V30 12 C 3.74735 0.826804 0.379266 0
M  V30 13 C 4.04175 -0.541996 0.459877 0
M  V30 14 N 5.40705 -0.869054 0.425956 0
M  V30 15 C 5.97275 -2.12459 0.177189 0
M  V30 16 O 5.29535 -3.14702 -0.0593234 0
M  V30 17 C 7.4589 -2.34663 0.174595 0
M  V30 18 Br 8.11412 -1.8758 -1.58511 0
M  V30 19 C 2.98752 -1.39042 0.573044 0
M  V30 20 C 1.66218 -0.935171 0.608395 0
M  V30 21 N -2.05936 3.02325 -1.07882 0
M  V30 22 C -3.03392 -0.409632 -0.16013 0
M  V30 23 C -2.77966 -1.35992 -1.13475 0
M  V30 24 C -2.80882 -2.69861 -0.898398 0
M  V30 25 C -3.10692 -3.13333 0.375247 0
M  V30 26 Cl -3.1441 -4.86278 0.668405 0
M  V30 27 C -3.36525 -2.21389 1.36811 0
M  V30 28 C -3.33602 -0.858947 1.12992 0
M  V30 29 H -2.40791 5.61063 -1.36082 0
M  V30 30 H -4.13751 5.50666 -1.68753 0
M  V30 31 H -5.66041 0.84194 0.912125 0
M  V30 32 H -6.06428 0.471805 -0.77778 0
M  V30 33 H 0.0940414 1.77816 -1.42146 0
M  V30 34 H -0.547852 0.123486 -1.38014 0
M  V30 35 H 0.110981 2.02909 0.957866 0
M  V30 36 H -0.583001 0.376344 1.1963 0
M  V30 37 H 2.2804 2.35149 0.348491 0
M  V30 38 H 4.53491 1.57947 0.285187 0
M  V30 39 H 6.11473 -0.0910985 0.612903 0
M  V30 40 H 7.71937 -3.4022 0.380526 0
M  V30 41 H 7.93341 -1.73509 0.980268 0
M  V30 42 H 3.18385 -2.45868 0.6457 0
M  V30 43 H 0.853742 -1.62445 0.697757 0
M  V30 44 H -2.54139 -1.00184 -2.15075 0
M  V30 45 H -2.59582 -3.40872 -1.70976 0
M  V30 46 H -3.60298 -2.59005 2.38085 0
M  V30 47 H -3.54153 -0.160213 1.91962 0
M  V30 END ATOM
M  V30 BEGIN BOND
M  V30 1 1 1 2
M  V30 2 2 2 3
M  V30 3 1 3 4
M  V30 4 1 4 5
M  V30 5 2 4 6
M  V30 6 1 6 7
M  V30 7 1 7 8
M  V30 8 1 8 9
M  V30 9 1 9 10
M  V30 10 2 10 11
M  V30 11 1 11 12
M  V30 12 2 12 13
M  V30 13 1 13 14
M  V30 14 1 14 15
M  V30 15 2 15 16
M  V30 16 1 15 17
M  V30 17 1 17 18
M  V30 18 1 13 19
M  V30 19 2 19 20
M  V30 20 2 7 21
M  V30 21 1 6 22
M  V30 22 2 22 23
M  V30 23 1 23 24
M  V30 24 2 24 25
M  V30 25 1 25 26
M  V30 26 1 25 27
M  V30 27 2 27 28
M  V30 28 1 21 2
M  V30 29 1 28 22
M  V30 30 1 20 10
M  V30 31 1 1 29
M  V30 32 1 1 30
M  V30 33 1 5 31
M  V30 34 1 5 32
M  V30 35 1 8 33
M  V30 36 1 8 34
M  V30 37 1 9 35
M  V30 38 1 9 36
M  V30 39 1 11 37
M  V30 40 1 12 38
M  V30 41 1 14 39
M  V30 42 1 17 40
M  V30 43 1 17 41
M  V30 44 1 19 42
M  V30 45 1 20 43
M  V30 46 1 23 44
M  V30 47 1 24 45
M  V30 48 1 27 46
M  V30 49 1 28 47
M  V30 END BOND
M  V30 END CTAB
M  END
