
     RDKit          3D

  0  0  0  0  0  0  0  0  0  0999 V3000
M  V30 BEGIN CTAB
M  V30 COUNTS 31 32 0 0 0
M  V30 BEGIN ATOM
M  V30 1 C -3.46278 -2.77354 0.517565 0
M  V30 2 O -2.41905 -1.87342 0.306918 0
M  V30 3 C -2.62456 -0.537798 0.00762948 0
M  V30 4 C -1.52484 0.331474 -0.19623 0
M  V30 5 O -0.336879 -0.217298 -0.0814038 0
M  V30 6 C 0.967233 -0.115081 -0.114009 0
M  V30 7 C 1.68271 -1.3168 0.151358 0
M  V30 8 C 3.04872 -1.34673 0.148061 0
M  V30 9 C 3.79196 -0.215154 -0.11223 0
M  V30 10 N 5.21861 -0.245989 -0.115749 0
M  V30 11 C 3.09076 0.933743 -0.365807 0
M  V30 12 N 3.80197 2.12665 -0.639674 0
M  V30 13 C 1.71685 1.00646 -0.372084 0
M  V30 14 C -1.82036 1.65005 -0.490987 0
M  V30 15 C -3.12439 2.07967 -0.578131 0
M  V30 16 C -4.16912 1.20969 -0.374523 0
M  V30 17 C -3.89852 -0.0882599 -0.0842219 0
M  V30 18 H -4.17177 -2.31726 1.23729 0
M  V30 19 H -3.1372 -3.72568 0.949796 0
M  V30 20 H -4.01756 -2.92835 -0.432609 0
M  V30 21 H 1.15802 -2.23904 0.3629 0
M  V30 22 H 3.62508 -2.2524 0.347773 0
M  V30 23 H 5.81862 0.424144 0.383235 0
M  V30 24 H 5.68326 -1.00314 -0.664259 0
M  V30 25 H 3.60656 2.63249 -1.52643 0
M  V30 26 H 4.51032 2.50925 0.0172006 0
M  V30 27 H 1.19554 1.92597 -0.575314 0
M  V30 28 H -1.00423 2.36848 -0.65878 0
M  V30 29 H -3.28791 3.13092 -0.813676 0
M  V30 30 H -5.17065 1.61437 -0.458255 0
M  V30 31 H -4.74639 -0.747422 0.0703667 0
M  V30 END ATOM
M  V30 BEGIN BOND
M  V30 1 1 1 2
M  V30 2 1 2 3
M  V30 3 2 3 4
M  V30 4 1 4 5
M  V30 5 1 5 6
M  V30 6 2 6 7
M  V30 7 1 7 8
M  V30 8 2 8 9
M  V30 9 1 9 10
M  V30 10 1 9 11
M  V30 11 1 11 12
M  V30 12 2 11 13
M  V30 13 1 4 14
M  V30 14 2 14 15
M  V30 15 1 15 16
M  V30 16 2 16 17
M  V30 17 1 17 3
M  V30 18 1 13 6
M  V30 19 1 1 18
M  V30 20 1 1 19
M  V30 21 1 1 20
M  V30 22 1 7 21
M  V30 23 1 8 22
M  V30 24 1 10 23
M  V30 25 1 10 24
M  V30 26 1 12 25
M  V30 27 1 12 26
M  V30 28 1 13 27
M  V30 29 1 14 28
M  V30 30 1 15 29
M  V30 31 1 16 30
M  V30 32 1 17 31
M  V30 END BOND
M  V30 END CTAB
M  END
