
     RDKit          3D

  0  0  0  0  0  0  0  0  0  0999 V3000
M  V30 BEGIN CTAB
M  V30 COUNTS 68 71 0 0 0
M  V30 BEGIN ATOM
M  V30 1 N 8.86646 0.605021 0.189915 0
M  V30 2 C 8.84796 -0.516098 1.0264 0
M  V30 3 N 10.0701 -0.820216 1.72503 0
M  V30 4 N 7.86835 -1.30891 1.24809 0
M  V30 5 C 6.61891 -1.08108 0.597536 0
M  V30 6 C 6.55601 -0.880764 -0.75952 0
M  V30 7 C 5.35176 -0.65424 -1.36624 0
M  V30 8 C 4.13144 -0.610735 -0.671751 0
M  V30 9 C 4.19583 -0.809088 0.666883 0
M  V30 10 C 5.4378 -1.04275 1.29263 0
M  V30 11 C 2.93393 -0.376866 -1.41292 0
M  V30 12 O 3.0908 -0.274403 -2.72218 0
M  V30 13 N 1.59611 -0.23202 -0.988064 0
M  V30 14 C 1.02351 -0.264102 0.312045 0
M  V30 15 C -0.467798 0.0957834 0.185183 0
M  V30 16 C -0.545919 0.730465 -1.1775 0
M  V30 17 C 0.50539 -0.00820266 -1.98827 0
M  V30 18 N -1.77407 0.939946 -1.76211 0
M  V30 19 C -2.23395 2.2527 -2.02509 0
M  V30 20 C -2.96675 2.92383 -0.934473 0
M  V30 21 C -2.34977 3.33603 0.235327 0
M  V30 22 C -3.05362 3.9791 1.25881 0
M  V30 23 C -4.40544 4.2262 1.13162 0
M  V30 24 C -5.0348 3.81739 -0.0366734 0
M  V30 25 C -4.31358 3.18802 -1.02346 0
M  V30 26 C -5.16508 4.89721 2.17248 0
M  V30 27 O -4.5676 5.32841 3.33517 0
M  V30 28 O -6.39239 5.09082 2.01152 0
M  V30 29 S -2.82496 -0.261927 -2.19098 0
M  V30 30 O -4.09812 0.331061 -2.7746 0
M  V30 31 O -2.27182 -1.27473 -3.16327 0
M  V30 32 C -3.37156 -1.20882 -0.801091 0
M  V30 33 C -3.47799 -2.50118 -0.83348 0
M  V30 34 C -3.92865 -3.28977 0.307404 0
M  V30 35 C -3.99927 -4.67796 0.198533 0
M  V30 36 C -4.41433 -5.47256 1.23056 0
M  V30 37 C -4.78829 -4.91942 2.44701 0
M  V30 38 Cl -5.32678 -5.88111 3.80135 0
M  V30 39 C -4.72588 -3.56246 2.5725 0
M  V30 40 C -4.30352 -2.77125 1.51927 0
M  V30 41 H 8.44111 1.51018 0.487274 0
M  V30 42 H 9.30026 0.60641 -0.770513 0
M  V30 43 H 10.9342 -0.943229 1.16305 0
M  V30 44 H 10.0473 -0.903824 2.75124 0
M  V30 45 H 7.47296 -0.911782 -1.32506 0
M  V30 46 H 5.39035 -0.504969 -2.44488 0
M  V30 47 H 3.3212 -0.802921 1.29948 0
M  V30 48 H 5.44449 -1.19532 2.36059 0
M  V30 49 H 1.49533 0.522223 0.970103 0
M  V30 50 H 1.10686 -1.22032 0.861908 0
M  V30 51 H -1.08334 -0.81226 0.304249 0
M  V30 52 H -0.712178 0.775653 1.02289 0
M  V30 53 H -0.0669145 1.761 -1.01854 0
M  V30 54 H 0.165102 -0.943415 -2.42733 0
M  V30 55 H 0.945178 0.614637 -2.78577 0
M  V30 56 H -1.40552 2.91053 -2.36609 0
M  V30 57 H -2.9075 2.17874 -2.93211 0
M  V30 58 H -1.31186 3.17946 0.3993 0
M  V30 59 H -2.5467 4.296 2.17724 0
M  V30 60 H -6.10755 4.00982 -0.143869 0
M  V30 61 H -4.90598 2.91286 -1.90992 0
M  V30 62 H -5.00779 6.07882 3.88251 0
M  V30 63 H -3.62001 -0.666412 0.097299 0
M  V30 64 H -3.22506 -3.04158 -1.74847 0
M  V30 65 H -3.70482 -5.13461 -0.758438 0
M  V30 66 H -4.47981 -6.55308 1.17957 0
M  V30 67 H -5.01268 -3.07679 3.51317 0
M  V30 68 H -4.25906 -1.68715 1.6364 0
M  V30 END ATOM
M  V30 BEGIN BOND
M  V30 1 1 1 2
M  V30 2 1 2 3
M  V30 3 2 2 4
M  V30 4 1 4 5
M  V30 5 2 5 6
M  V30 6 1 6 7
M  V30 7 2 7 8
M  V30 8 1 8 9
M  V30 9 2 9 10
M  V30 10 1 8 11
M  V30 11 2 11 12
M  V30 12 1 11 13
M  V30 13 1 13 14
M  V30 14 1 14 15
M  V30 15 1 15 16
M  V30 16 1 16 17
M  V30 17 1 16 18
M  V30 18 1 18 19
M  V30 19 1 19 20
M  V30 20 2 20 21
M  V30 21 1 21 22
M  V30 22 2 22 23
M  V30 23 1 23 24
M  V30 24 2 24 25
M  V30 25 1 23 26
M  V30 26 1 26 27
M  V30 27 2 26 28
M  V30 28 1 18 29
M  V30 29 2 29 30
M  V30 30 2 29 31
M  V30 31 1 29 32
M  V30 32 2 32 33
M  V30 33 1 33 34
M  V30 34 2 34 35
M  V30 35 1 35 36
M  V30 36 2 36 37
M  V30 37 1 37 38
M  V30 38 1 37 39
M  V30 39 2 39 40
M  V30 40 1 10 5
M  V30 41 1 17 13
M  V30 42 1 25 20
M  V30 43 1 40 34
M  V30 44 1 1 41
M  V30 45 1 1 42
M  V30 46 1 3 43
M  V30 47 1 3 44
M  V30 48 1 6 45
M  V30 49 1 7 46
M  V30 50 1 9 47
M  V30 51 1 10 48
M  V30 52 1 14 49
M  V30 53 1 14 50
M  V30 54 1 15 51
M  V30 55 1 15 52
M  V30 56 1 16 53
M  V30 57 1 17 54
M  V30 58 1 17 55
M  V30 59 1 19 56
M  V30 60 1 19 57
M  V30 61 1 21 58
M  V30 62 1 22 59
M  V30 63 1 24 60
M  V30 64 1 25 61
M  V30 65 1 27 62
M  V30 66 1 32 63
M  V30 67 1 33 64
M  V30 68 1 35 65
M  V30 69 1 36 66
M  V30 70 1 39 67
M  V30 71 1 40 68
M  V30 END BOND
M  V30 END CTAB
M  END
