
     RDKit          3D

  0  0  0  0  0  0  0  0  0  0999 V3000
M  V30 BEGIN CTAB
M  V30 COUNTS 29 29 0 0 0
M  V30 BEGIN ATOM
M  V30 1 O 5.03255 -0.65283 -0.836386 0
M  V30 2 C 3.65476 -0.932213 -0.983124 0
M  V30 3 O 3.20452 -1.34539 -2.09207 0
M  V30 4 C 2.8174 -0.710921 0.218259 0
M  V30 5 C 2.55331 0.792522 0.314571 0
M  V30 6 C 1.85094 1.195 -0.953909 0
M  V30 7 O 0.680696 0.535202 -1.1252 0
M  V30 8 C -0.514298 0.435703 -0.524384 0
M  V30 9 C -0.852322 1.14441 0.593939 0
M  V30 10 C -2.11769 1.00432 1.18804 0
M  V30 11 C -3.06189 0.150535 0.667196 0
M  V30 12 C -2.72048 -0.56797 -0.466829 0
M  V30 13 C -1.48396 -0.437842 -1.05594 0
M  V30 14 N -3.69204 -1.4431 -0.998262 0
M  V30 15 N -4.35314 -0.0129718 1.23539 0
M  V30 16 H 5.5407 -1.23776 -0.187907 0
M  V30 17 H 1.85189 -1.24831 0.174517 0
M  V30 18 H 3.36064 -0.986769 1.15303 0
M  V30 19 H 1.94124 1.00229 1.19383 0
M  V30 20 H 3.54551 1.32126 0.360645 0
M  V30 21 H 2.51519 0.950299 -1.84323 0
M  V30 22 H 1.7532 2.32051 -0.906538 0
M  V30 23 H -0.172964 1.83861 1.03802 0
M  V30 24 H -2.37752 1.57847 2.08379 0
M  V30 25 H -1.23611 -1.00477 -1.93964 0
M  V30 26 H -4.58211 -1.07782 -1.3611 0
M  V30 27 H -3.50031 -2.45284 -1.02111 0
M  V30 28 H -5.07742 0.742358 1.14925 0
M  V30 29 H -4.56028 -0.899987 1.7372 0
M  V30 END ATOM
M  V30 BEGIN BOND
M  V30 1 1 1 2
M  V30 2 2 2 3
M  V30 3 1 2 4
M  V30 4 1 4 5
M  V30 5 1 5 6
M  V30 6 1 6 7
M  V30 7 1 7 8
M  V30 8 2 8 9
M  V30 9 1 9 10
M  V30 10 2 10 11
M  V30 11 1 11 12
M  V30 12 2 12 13
M  V30 13 1 12 14
M  V30 14 1 11 15
M  V30 15 1 13 8
M  V30 16 1 1 16
M  V30 17 1 4 17
M  V30 18 1 4 18
M  V30 19 1 5 19
M  V30 20 1 5 20
M  V30 21 1 6 21
M  V30 22 1 6 22
M  V30 23 1 9 23
M  V30 24 1 10 24
M  V30 25 1 13 25
M  V30 26 1 14 26
M  V30 27 1 14 27
M  V30 28 1 15 28
M  V30 29 1 15 29
M  V30 END BOND
M  V30 END CTAB
M  END
