
     RDKit          3D

  0  0  0  0  0  0  0  0  0  0999 V3000
M  V30 BEGIN CTAB
M  V30 COUNTS 24 25 0 0 0
M  V30 BEGIN ATOM
M  V30 1 C -1.0911 2.84416 0.199727 0
M  V30 2 C -0.329012 1.57151 0.0731635 0
M  V30 3 C 1.03991 1.57424 -0.101527 0
M  V30 4 C 1.77755 0.409893 -0.222485 0
M  V30 5 N 3.18683 0.400896 -0.402574 0
M  V30 6 C 1.13283 -0.808904 -0.168228 0
M  V30 7 N 1.85327 -2.04651 -0.288695 0
M  V30 8 C -0.239266 -0.819642 0.00668644 0
M  V30 9 C -0.986877 0.338651 0.128778 0
M  V30 10 N -2.31996 0.305629 0.29822 0
M  V30 11 C -2.99442 -0.855422 0.357626 0
M  V30 12 C -2.28316 -2.02894 0.239823 0
M  V30 13 C -0.920154 -2.00931 0.0662557 0
M  V30 14 H -0.858901 3.46634 -0.6965 0
M  V30 15 H -2.16268 2.59697 0.279367 0
M  V30 16 H -0.735874 3.43668 1.07206 0
M  V30 17 H 1.55852 2.51631 -0.146053 0
M  V30 18 H 3.7793 0.631056 0.410872 0
M  V30 19 H 3.62257 0.176538 -1.30041 0
M  V30 20 H 2.22726 -2.42476 0.631085 0
M  V30 21 H 1.9924 -2.52229 -1.19236 0
M  V30 22 H -4.0895 -0.872191 0.497055 0
M  V30 23 H -2.82997 -2.95629 0.288306 0
M  V30 24 H -0.329579 -2.92461 -0.0301931 0
M  V30 END ATOM
M  V30 BEGIN BOND
M  V30 1 1 1 2
M  V30 2 2 2 3
M  V30 3 1 3 4
M  V30 4 1 4 5
M  V30 5 2 4 6
M  V30 6 1 6 7
M  V30 7 1 6 8
M  V30 8 2 8 9
M  V30 9 1 9 10
M  V30 10 2 10 11
M  V30 11 1 11 12
M  V30 12 2 12 13
M  V30 13 1 9 2
M  V30 14 1 13 8
M  V30 15 1 1 14
M  V30 16 1 1 15
M  V30 17 1 1 16
M  V30 18 1 3 17
M  V30 19 1 5 18
M  V30 20 1 5 19
M  V30 21 1 7 20
M  V30 22 1 7 21
M  V30 23 1 11 22
M  V30 24 1 12 23
M  V30 25 1 13 24
M  V30 END BOND
M  V30 END CTAB
M  END
