
     RDKit          3D

  0  0  0  0  0  0  0  0  0  0999 V3000
M  V30 BEGIN CTAB
M  V30 COUNTS 16 15 0 0 0
M  V30 BEGIN ATOM
M  V30 1 N -1.41327 -1.13673 -0.686451 0
M  V30 2 C -0.940383 -0.207949 0.326712 0
M  V30 3 C 0.120406 0.700553 -0.222116 0
M  V30 4 C 1.32468 -0.0289075 -0.724833 0
M  V30 5 S 2.14297 -1.00465 0.541318 0
M  V30 6 N 0.557217 1.57373 0.864988 0
M  V30 7 H -2.00805 -1.86299 -0.242279 0
M  V30 8 H -1.93017 -0.604448 -1.41619 0
M  V30 9 H -0.646178 -0.751364 1.22066 0
M  V30 10 H -1.82629 0.438241 0.57214 0
M  V30 11 H -0.301644 1.29377 -1.05028 0
M  V30 12 H 2.05078 0.730203 -1.08723 0
M  V30 13 H 1.04373 -0.645741 -1.62141 0
M  V30 14 H 1.4575 -2.14753 0.912424 0
M  V30 15 H 0.289185 1.14989 1.80118 0
M  V30 16 H 0.0795228 2.50391 0.811366 0
M  V30 END ATOM
M  V30 BEGIN BOND
M  V30 1 1 1 2
M  V30 2 1 2 3
M  V30 3 1 3 4
M  V30 4 1 4 5
M  V30 5 1 3 6
M  V30 6 1 1 7
M  V30 7 1 1 8
M  V30 8 1 2 9
M  V30 9 1 2 10
M  V30 10 1 3 11
M  V30 11 1 4 12
M  V30 12 1 4 13
M  V30 13 1 5 14
M  V30 14 1 6 15
M  V30 15 1 6 16
M  V30 END BOND
M  V30 END CTAB
M  END
