
     RDKit          3D

  0  0  0  0  0  0  0  0  0  0999 V3000
M  V30 BEGIN CTAB
M  V30 COUNTS 42 43 0 0 0
M  V30 BEGIN ATOM
M  V30 1 N -1.34715 -3.7175 0.993357 0
M  V30 2 C -0.354001 -3.88561 -0.00691442 0
M  V30 3 C -0.263129 -2.92744 -1.10965 0
M  V30 4 N 0.0322865 -1.52159 -0.763425 0
M  V30 5 C 1.38913 -1.21347 -0.620262 0
M  V30 6 O 2.15577 -2.27747 -0.822521 0
M  V30 7 C 2.07779 -0.00736427 -0.308821 0
M  V30 8 C 1.64008 1.24055 -0.0455833 0
M  V30 9 C 2.75668 2.05627 0.197464 0
M  V30 10 C 3.84033 1.22292 0.0619321 0
M  V30 11 O 3.41509 0.0426306 -0.229477 0
M  V30 12 S 5.51475 1.75501 0.268432 0
M  V30 13 O 5.50571 3.18958 0.703114 0
M  V30 14 O 6.26721 1.6339 -1.00202 0
M  V30 15 N 6.26379 0.856288 1.55504 0
M  V30 16 C -1.02419 -0.598093 -0.704602 0
M  V30 17 C -1.68845 -0.231213 0.555248 0
M  V30 18 C -2.75544 0.79807 0.176115 0
M  V30 19 C -2.49025 2.1457 0.173369 0
M  V30 20 C -3.4884 3.05198 -0.181145 0
M  V30 21 C -4.72544 2.5709 -0.522481 0
M  V30 22 C -5.03017 1.22446 -0.531539 0
M  V30 23 C -4.01597 0.368433 -0.175349 0
M  V30 24 H -2.21667 -3.33693 0.532378 0
M  V30 25 H -1.02376 -3.11792 1.78469 0
M  V30 26 H -0.497816 -4.91675 -0.435117 0
M  V30 27 H 0.630557 -3.99393 0.547516 0
M  V30 28 H -1.24481 -2.94546 -1.66422 0
M  V30 29 H 0.539464 -3.25988 -1.81138 0
M  V30 30 H 0.658527 1.65356 0.00275605 0
M  V30 31 H 2.72313 3.10896 0.436366 0
M  V30 32 H 5.73594 1.0709 2.43355 0
M  V30 33 H 7.24773 1.16884 1.60899 0
M  V30 34 H -1.86206 -1.04221 -1.35574 0
M  V30 35 H -0.69843 0.352572 -1.22388 0
M  V30 36 H -1.01139 0.34919 1.20974 0
M  V30 37 H -2.15554 -1.00932 1.15443 0
M  V30 38 H -1.51162 2.50995 0.446839 0
M  V30 39 H -3.26926 4.1169 -0.180533 0
M  V30 40 H -5.48102 3.29519 -0.793173 0
M  V30 41 H -6.02623 0.908389 -0.810694 0
M  V30 42 H -4.21274 -0.689003 -0.169708 0
M  V30 END ATOM
M  V30 BEGIN BOND
M  V30 1 1 1 2
M  V30 2 1 2 3
M  V30 3 1 3 4
M  V30 4 1 4 5
M  V30 5 2 5 6
M  V30 6 1 5 7
M  V30 7 2 7 8
M  V30 8 1 8 9
M  V30 9 2 9 10
M  V30 10 1 10 11
M  V30 11 1 10 12
M  V30 12 2 12 13
M  V30 13 2 12 14
M  V30 14 1 12 15
M  V30 15 1 4 16
M  V30 16 1 16 17
M  V30 17 1 17 18
M  V30 18 2 18 19
M  V30 19 1 19 20
M  V30 20 2 20 21
M  V30 21 1 21 22
M  V30 22 2 22 23
M  V30 23 1 11 7
M  V30 24 1 23 18
M  V30 25 1 1 24
M  V30 26 1 1 25
M  V30 27 1 2 26
M  V30 28 1 2 27
M  V30 29 1 3 28
M  V30 30 1 3 29
M  V30 31 1 8 30
M  V30 32 1 9 31
M  V30 33 1 15 32
M  V30 34 1 15 33
M  V30 35 1 16 34
M  V30 36 1 16 35
M  V30 37 1 17 36
M  V30 38 1 17 37
M  V30 39 1 19 38
M  V30 40 1 20 39
M  V30 41 1 21 40
M  V30 42 1 22 41
M  V30 43 1 23 42
M  V30 END BOND
M  V30 END CTAB
M  END
