
     RDKit          3D

  0  0  0  0  0  0  0  0  0  0999 V3000
M  V30 BEGIN CTAB
M  V30 COUNTS 35 36 0 0 0
M  V30 BEGIN ATOM
M  V30 1 C 4.83485 1.74122 -0.497297 0
M  V30 2 C 3.64645 0.975788 0.0665535 0
M  V30 3 C 2.52862 1.00199 -0.915004 0
M  V30 4 O 1.368 0.359381 -0.590874 0
M  V30 5 C 1.0112 -0.918522 -0.356477 0
M  V30 6 C -0.277763 -1.25084 -0.0167883 0
M  V30 7 C -0.558025 -2.60497 0.205762 0
M  V30 8 C 0.403329 -3.5475 0.0904373 0
M  V30 9 C 1.69258 -3.21045 -0.250401 0
M  V30 10 C 2.01366 -1.89271 -0.478758 0
M  V30 11 C -1.39137 -0.318034 0.133777 0
M  V30 12 N -2.62424 -0.805705 0.490683 0
M  V30 13 C -3.70329 -0.061363 0.658484 0
M  V30 14 N -4.96862 -0.586652 1.02796 0
M  V30 15 C -3.61316 1.30799 0.467746 0
M  V30 16 N -4.73598 2.14932 0.634119 0
M  V30 17 C -2.38959 1.82291 0.109688 0
M  V30 18 O -2.30558 3.05103 -0.0621446 0
M  V30 19 N -1.30364 0.98474 -0.048209 0
M  V30 20 H 5.00518 1.52468 -1.56598 0
M  V30 21 H 4.64559 2.82244 -0.352468 0
M  V30 22 H 5.71545 1.47046 0.122933 0
M  V30 23 H 4.0039 0.0241282 0.427497 0
M  V30 24 H 3.3436 1.5453 0.999978 0
M  V30 25 H 2.95125 0.660934 -1.91446 0
M  V30 26 H 2.28462 2.08667 -1.11806 0
M  V30 27 H -1.54857 -2.90208 0.471649 0
M  V30 28 H 0.225851 -4.6129 0.255815 0
M  V30 29 H 2.46551 -3.98163 -0.341567 0
M  V30 30 H 3.00814 -1.60571 -0.765808 0
M  V30 31 H -5.65683 -0.0409872 1.58235 0
M  V30 32 H -5.24652 -1.55659 0.745821 0
M  V30 33 H -4.68521 3.15428 0.835148 0
M  V30 34 H -5.68728 1.72561 0.547823 0
M  V30 35 H -0.452072 1.48778 -0.316233 0
M  V30 END ATOM
M  V30 BEGIN BOND
M  V30 1 1 1 2
M  V30 2 1 2 3
M  V30 3 1 3 4
M  V30 4 1 4 5
M  V30 5 2 5 6
M  V30 6 1 6 7
M  V30 7 2 7 8
M  V30 8 1 8 9
M  V30 9 2 9 10
M  V30 10 1 6 11
M  V30 11 2 11 12
M  V30 12 1 12 13
M  V30 13 1 13 14
M  V30 14 2 13 15
M  V30 15 1 15 16
M  V30 16 1 15 17
M  V30 17 2 17 18
M  V30 18 1 17 19
M  V30 19 1 10 5
M  V30 20 1 19 11
M  V30 21 1 1 20
M  V30 22 1 1 21
M  V30 23 1 1 22
M  V30 24 1 2 23
M  V30 25 1 2 24
M  V30 26 1 3 25
M  V30 27 1 3 26
M  V30 28 1 7 27
M  V30 29 1 8 28
M  V30 30 1 9 29
M  V30 31 1 10 30
M  V30 32 1 14 31
M  V30 33 1 14 32
M  V30 34 1 16 33
M  V30 35 1 16 34
M  V30 36 1 19 35
M  V30 END BOND
M  V30 END CTAB
M  END
