
     RDKit          3D

  0  0  0  0  0  0  0  0  0  0999 V3000
M  V30 BEGIN CTAB
M  V30 COUNTS 52 52 0 0 0
M  V30 BEGIN ATOM
M  V30 1 C -2.20712 -4.42293 -0.314823 0
M  V30 2 C -1.87597 -3.1667 0.504356 0
M  V30 3 C -2.65279 -3.22244 1.81578 0
M  V30 4 C -2.34695 -2.00862 -0.290766 0
M  V30 5 C -2.05472 -0.68893 0.411687 0 CFG=2
M  V30 6 N -2.62558 0.315804 -0.514661 0
M  V30 7 C -3.69407 1.10111 -0.0359234 0
M  V30 8 O -4.12392 0.93486 1.12283 0
M  V30 9 C -4.33708 2.13833 -0.879057 0 CFG=2
M  V30 10 O -4.33625 2.04887 -2.25032 0
M  V30 11 C -3.35538 2.92554 -1.70849 0 CFG=1
M  V30 12 C -3.60457 4.38149 -1.76457 0
M  V30 13 O -4.86483 4.93593 -1.62389 0
M  V30 14 O -2.62401 5.15138 -1.94894 0
M  V30 15 C -0.604578 -0.368433 0.44921 0
M  V30 16 O -0.167995 0.43158 -0.446085 0
M  V30 17 N 0.243062 -0.913612 1.42083 0
M  V30 18 C 1.64974 -0.614191 1.44237 0
M  V30 19 C 2.33631 -1.08863 0.200399 0
M  V30 20 C 3.81524 -0.748161 0.288295 0
M  V30 21 C 4.01394 0.744628 0.406386 0
M  V30 22 N 5.46012 1.01028 0.459155 0
M  V30 23 C 5.9328 1.93766 -0.281148 0
M  V30 24 N 5.06688 2.67569 -1.12041 0
M  V30 25 N 7.31226 2.21931 -0.251613 0
M  V30 26 H -1.51559 -5.2353 -0.0342087 0
M  V30 27 H -1.95547 -4.14342 -1.3737 0
M  V30 28 H -3.26721 -4.68927 -0.259404 0
M  V30 29 H -0.816418 -3.2281 0.732548 0
M  V30 30 H -2.49387 -4.21584 2.29395 0
M  V30 31 H -2.33825 -2.37187 2.4493 0
M  V30 32 H -3.74374 -3.14337 1.62671 0
M  V30 33 H -3.44927 -2.02668 -0.44167 0
M  V30 34 H -1.91397 -1.968 -1.31606 0
M  V30 35 H -2.55297 -0.668826 1.36753 0
M  V30 36 H -2.21804 0.385877 -1.44525 0
M  V30 37 H -5.18582 2.69816 -0.432017 0
M  V30 38 H -2.34166 2.54926 -1.82607 0
M  V30 39 H -5.41173 4.74514 -0.773111 0
M  V30 40 H -0.113681 -1.53671 2.16961 0
M  V30 41 H 1.74762 0.491097 1.58049 0
M  V30 42 H 2.1279 -1.052 2.36164 0
M  V30 43 H 2.30334 -2.22198 0.159798 0
M  V30 44 H 1.90546 -0.675371 -0.715496 0
M  V30 45 H 4.38186 -1.20377 -0.540132 0
M  V30 46 H 4.19183 -1.20612 1.23901 0
M  V30 47 H 3.54179 1.28887 -0.429079 0
M  V30 48 H 3.62883 1.11286 1.3785 0
M  V30 49 H 4.88682 2.40791 -2.12289 0
M  V30 50 H 4.55794 3.53676 -0.774781 0
M  V30 51 H 7.74747 2.68362 0.571011 0
M  V30 52 H 7.94229 1.97726 -1.04347 0
M  V30 END ATOM
M  V30 BEGIN BOND
M  V30 1 1 1 2
M  V30 2 1 2 3
M  V30 3 1 2 4
M  V30 4 1 4 5
M  V30 5 1 5 6
M  V30 6 1 6 7
M  V30 7 2 7 8
M  V30 8 1 7 9
M  V30 9 1 9 10
M  V30 10 1 10 11
M  V30 11 1 11 12
M  V30 12 1 12 13
M  V30 13 2 12 14
M  V30 14 1 5 15
M  V30 15 2 15 16
M  V30 16 1 15 17
M  V30 17 1 17 18
M  V30 18 1 18 19
M  V30 19 1 19 20
M  V30 20 1 20 21
M  V30 21 1 21 22
M  V30 22 2 22 23
M  V30 23 1 23 24
M  V30 24 1 23 25
M  V30 25 1 11 9
M  V30 26 1 1 26
M  V30 27 1 1 27
M  V30 28 1 1 28
M  V30 29 1 2 29
M  V30 30 1 3 30
M  V30 31 1 3 31
M  V30 32 1 3 32
M  V30 33 1 4 33
M  V30 34 1 4 34
M  V30 35 1 5 35 CFG=1
M  V30 36 1 6 36
M  V30 37 1 9 37 CFG=1
M  V30 38 1 11 38 CFG=1
M  V30 39 1 13 39
M  V30 40 1 17 40
M  V30 41 1 18 41
M  V30 42 1 18 42
M  V30 43 1 19 43
M  V30 44 1 19 44
M  V30 45 1 20 45
M  V30 46 1 20 46
M  V30 47 1 21 47
M  V30 48 1 21 48
M  V30 49 1 24 49
M  V30 50 1 24 50
M  V30 51 1 25 51
M  V30 52 1 25 52
M  V30 END BOND
M  V30 END CTAB
M  END
