
     RDKit          3D

  0  0  0  0  0  0  0  0  0  0999 V3000
M  V30 BEGIN CTAB
M  V30 COUNTS 53 56 0 0 0
M  V30 BEGIN ATOM
M  V30 1 N 8.006 -0.595951 0.929957 0
M  V30 2 C 6.8106 -0.615525 1.68563 0 CFG=2
M  V30 3 C 5.6175 -1.2522 0.965761 0
M  V30 4 C 4.75656 -0.17322 1.63525 0 CFG=1
M  V30 5 C 6.00714 0.678178 1.69896 0
M  V30 6 C 3.72817 0.296849 0.67398 0
M  V30 7 C 2.39327 0.205085 1.05395 0
M  V30 8 C 1.38234 0.624469 0.207975 0
M  V30 9 N 0.0210542 0.530822 0.596705 0
M  V30 10 C -1.03462 0.969222 -0.289815 0
M  V30 11 C -1.06292 0.239454 -1.57251 0
M  V30 12 C -2.37491 -0.0559485 -2.17171 0
M  V30 13 N -3.53557 0.176385 -1.39792 0
M  V30 14 C -3.45366 1.26405 -0.495906 0
M  V30 15 C -2.32624 0.991949 0.472047 0
M  V30 16 C -4.29264 -0.954969 -1.021 0
M  V30 17 C -5.46995 -0.546997 -0.228278 0
M  V30 18 C -5.50054 -0.580288 1.14655 0
M  V30 19 C -6.61338 -0.19382 1.86735 0
M  V30 20 N -7.6892 0.224346 1.18941 0
M  V30 21 C -7.70199 0.272537 -0.152203 0
M  V30 22 C -6.5961 -0.110922 -0.886854 0
M  V30 23 N 1.77603 1.11543 -0.979886 0
M  V30 24 C 3.05925 1.21149 -1.36335 0
M  V30 25 N 4.02642 0.799313 -0.528585 0
M  V30 26 N 3.42397 1.73664 -2.62687 0
M  V30 27 H 8.09183 -1.26812 0.174066 0
M  V30 28 H 8.82231 -0.45833 1.53143 0
M  V30 29 H 6.87373 -1.03322 2.69558 0
M  V30 30 H 5.64327 -1.11428 -0.132361 0
M  V30 31 H 5.3823 -2.2719 1.26922 0
M  V30 32 H 4.37871 -0.559686 2.58 0
M  V30 33 H 6.13777 1.28785 0.786364 0
M  V30 34 H 6.11229 1.24157 2.65572 0
M  V30 35 H 2.08663 -0.192097 2.01343 0
M  V30 36 H -0.209329 0.142038 1.5286 0
M  V30 37 H -0.79396 2.05031 -0.521929 0
M  V30 38 H -0.404031 0.761323 -2.33001 0
M  V30 39 H -0.526621 -0.744576 -1.4113 0
M  V30 40 H -2.43485 -1.12314 -2.54369 0
M  V30 41 H -2.49466 0.540983 -3.12681 0
M  V30 42 H -3.12011 2.15831 -1.09089 0
M  V30 43 H -4.3968 1.53645 -0.0323841 0
M  V30 44 H -2.33088 1.81503 1.21615 0
M  V30 45 H -2.42649 0.048944 1.01883 0
M  V30 46 H -3.72377 -1.74431 -0.491258 0
M  V30 47 H -4.66421 -1.45917 -1.9619 0
M  V30 48 H -4.63983 -0.915319 1.70407 0
M  V30 49 H -6.65749 -0.212591 2.94808 0
M  V30 50 H -8.58284 0.614182 -0.684304 0
M  V30 51 H -6.61667 -0.0676858 -1.98711 0
M  V30 52 H 4.33801 1.48139 -3.06 0
M  V30 53 H 2.7991 2.38566 -3.15622 0
M  V30 END ATOM
M  V30 BEGIN BOND
M  V30 1 1 1 2
M  V30 2 1 2 3
M  V30 3 1 3 4
M  V30 4 1 4 5
M  V30 5 1 4 6
M  V30 6 2 6 7
M  V30 7 1 7 8
M  V30 8 1 8 9
M  V30 9 1 9 10
M  V30 10 1 10 11
M  V30 11 1 11 12
M  V30 12 1 12 13
M  V30 13 1 13 14
M  V30 14 1 14 15
M  V30 15 1 13 16
M  V30 16 1 16 17
M  V30 17 2 17 18
M  V30 18 1 18 19
M  V30 19 2 19 20
M  V30 20 1 20 21
M  V30 21 2 21 22
M  V30 22 2 8 23
M  V30 23 1 23 24
M  V30 24 2 24 25
M  V30 25 1 24 26
M  V30 26 1 5 2
M  V30 27 1 25 6
M  V30 28 1 15 10
M  V30 29 1 22 17
M  V30 30 1 1 27
M  V30 31 1 1 28
M  V30 32 1 2 29 CFG=1
M  V30 33 1 3 30
M  V30 34 1 3 31
M  V30 35 1 4 32 CFG=1
M  V30 36 1 5 33
M  V30 37 1 5 34
M  V30 38 1 7 35
M  V30 39 1 9 36
M  V30 40 1 10 37
M  V30 41 1 11 38
M  V30 42 1 11 39
M  V30 43 1 12 40
M  V30 44 1 12 41
M  V30 45 1 14 42
M  V30 46 1 14 43
M  V30 47 1 15 44
M  V30 48 1 15 45
M  V30 49 1 16 46
M  V30 50 1 16 47
M  V30 51 1 18 48
M  V30 52 1 19 49
M  V30 53 1 21 50
M  V30 54 1 22 51
M  V30 55 1 26 52
M  V30 56 1 26 53
M  V30 END BOND
M  V30 END CTAB
M  END
