
     RDKit          3D

  0  0  0  0  0  0  0  0  0  0999 V3000
M  V30 BEGIN CTAB
M  V30 COUNTS 28 28 0 0 0
M  V30 BEGIN ATOM
M  V30 1 C -1.56733 0.725445 -1.41562 0
M  V30 2 C -1.59807 0.0279441 -0.0752678 0
M  V30 3 C -1.66976 -1.4432 -0.324062 0
M  V30 4 N -2.87101 0.420689 0.549168 0
M  V30 5 C -0.512957 0.465449 0.846356 0
M  V30 6 N -0.670013 -0.28721 2.08887 0
M  V30 7 C 0.848142 0.291925 0.326273 0
M  V30 8 C 1.49158 -0.926316 0.267797 0
M  V30 9 C 2.79322 -1.0229 -0.240993 0
M  V30 10 C 3.47436 0.0829002 -0.697942 0
M  V30 11 C 2.83025 1.29804 -0.638691 0
M  V30 12 C 1.53658 1.38308 -0.131206 0
M  V30 13 H -1.55814 1.81796 -1.32216 0
M  V30 14 H -0.75069 0.329999 -2.07276 0
M  V30 15 H -2.51677 0.422451 -1.94634 0
M  V30 16 H -2.58528 -1.61275 -0.956683 0
M  V30 17 H -1.82335 -2.05833 0.575578 0
M  V30 18 H -0.825171 -1.79117 -0.961628 0
M  V30 19 H -3.31575 -0.370547 1.03398 0
M  V30 20 H -2.75654 1.27615 1.13263 0
M  V30 21 H -0.735098 1.52096 1.1328 0
M  V30 22 H -0.500823 -1.30232 1.92749 0
M  V30 23 H 0.0780673 0.0517538 2.75925 0
M  V30 24 H 0.97489 -1.81335 0.6224 0
M  V30 25 H 3.29418 -1.99199 -0.283133 0
M  V30 26 H 4.48819 -0.0152895 -1.09043 0
M  V30 27 H 3.3633 2.17495 -0.998193 0
M  V30 28 H 1.08398 2.34567 -0.107482 0
M  V30 END ATOM
M  V30 BEGIN BOND
M  V30 1 1 1 2
M  V30 2 1 2 3
M  V30 3 1 2 4
M  V30 4 1 2 5
M  V30 5 1 5 6
M  V30 6 1 5 7
M  V30 7 2 7 8
M  V30 8 1 8 9
M  V30 9 2 9 10
M  V30 10 1 10 11
M  V30 11 2 11 12
M  V30 12 1 12 7
M  V30 13 1 1 13
M  V30 14 1 1 14
M  V30 15 1 1 15
M  V30 16 1 3 16
M  V30 17 1 3 17
M  V30 18 1 3 18
M  V30 19 1 4 19
M  V30 20 1 4 20
M  V30 21 1 5 21
M  V30 22 1 6 22
M  V30 23 1 6 23
M  V30 24 1 8 24
M  V30 25 1 9 25
M  V30 26 1 10 26
M  V30 27 1 11 27
M  V30 28 1 12 28
M  V30 END BOND
M  V30 END CTAB
M  END
