
     RDKit          3D

  0  0  0  0  0  0  0  0  0  0999 V3000
M  V30 BEGIN CTAB
M  V30 COUNTS 47 47 0 0 0
M  V30 BEGIN ATOM
M  V30 1 N -1.32526 1.68916 -0.573259 0
M  V30 2 C -2.05964 0.951043 0.395621 0
M  V30 3 C -3.52401 1.06626 0.0105954 0
M  V30 4 C -3.86003 2.5464 0.039342 0
M  V30 5 C -4.39054 0.408971 1.07395 0
M  V30 6 C -1.62475 -0.41277 0.722248 0
M  V30 7 C -1.58949 -1.48357 -0.261241 0
M  V30 8 N -0.788969 -1.39582 -1.43069 0
M  V30 9 C 0.531169 -1.87696 -1.45126 0
M  V30 10 O 1.21854 -1.73546 -2.48808 0
M  V30 11 C 1.10728 -2.54497 -0.285722 0
M  V30 12 C 2.58772 -2.70883 -0.271283 0
M  V30 13 N 3.24863 -1.44115 -0.264289 0
M  V30 14 N 3.65021 -0.748419 -1.2862 0
M  V30 15 C 4.22751 0.390759 -0.888639 0
M  V30 16 C 4.16942 0.384512 0.482673 0
M  V30 17 C 3.55436 -0.766313 0.877671 0
M  V30 18 S 4.78281 1.64384 1.54172 0
M  V30 19 O 5.95572 2.26312 0.873105 0
M  V30 20 O 5.18153 0.979328 2.83554 0
M  V30 21 N 3.57099 2.81845 1.84968 0
M  V30 22 C -1.31401 -0.843074 -2.69358 0
M  V30 23 H -0.397879 1.3302 -0.718939 0
M  V30 24 H -1.82352 1.91331 -1.42958 0
M  V30 25 H -1.99682 1.58169 1.34437 0
M  V30 26 H -3.73725 0.711552 -0.999201 0
M  V30 27 H -4.78865 2.76603 -0.542475 0
M  V30 28 H -2.99233 3.14624 -0.300306 0
M  V30 29 H -4.00185 2.80245 1.12935 0
M  V30 30 H -4.22641 -0.691705 1.12008 0
M  V30 31 H -5.45095 0.66057 0.88591 0
M  V30 32 H -4.04816 0.807183 2.05893 0
M  V30 33 H -2.24169 -0.758883 1.62454 0
M  V30 34 H -0.600836 -0.308035 1.20277 0
M  V30 35 H -2.60227 -1.83456 -0.606575 0
M  V30 36 H -1.21817 -2.42406 0.278743 0
M  V30 37 H 0.637265 -3.58805 -0.178149 0
M  V30 38 H 0.747546 -2.0552 0.6664 0
M  V30 39 H 2.89195 -3.26692 0.64595 0
M  V30 40 H 2.88205 -3.32943 -1.14677 0
M  V30 41 H 4.65751 1.16718 -1.53133 0
M  V30 42 H 3.35744 -1.06605 1.89902 0
M  V30 43 H 2.97891 2.97258 1.00336 0
M  V30 44 H 2.97826 2.47593 2.65079 0
M  V30 45 H -2.38582 -0.583357 -2.59975 0
M  V30 46 H -1.24269 -1.61893 -3.47283 0
M  V30 47 H -0.684829 0.00576055 -3.03469 0
M  V30 END ATOM
M  V30 BEGIN BOND
M  V30 1 1 1 2
M  V30 2 1 2 3
M  V30 3 1 3 4
M  V30 4 1 3 5
M  V30 5 1 2 6
M  V30 6 1 6 7
M  V30 7 1 7 8
M  V30 8 1 8 9
M  V30 9 2 9 10
M  V30 10 1 9 11
M  V30 11 1 11 12
M  V30 12 1 12 13
M  V30 13 1 13 14
M  V30 14 2 14 15
M  V30 15 1 15 16
M  V30 16 2 16 17
M  V30 17 1 16 18
M  V30 18 2 18 19
M  V30 19 2 18 20
M  V30 20 1 18 21
M  V30 21 1 8 22
M  V30 22 1 17 13
M  V30 23 1 1 23
M  V30 24 1 1 24
M  V30 25 1 2 25
M  V30 26 1 3 26
M  V30 27 1 4 27
M  V30 28 1 4 28
M  V30 29 1 4 29
M  V30 30 1 5 30
M  V30 31 1 5 31
M  V30 32 1 5 32
M  V30 33 1 6 33
M  V30 34 1 6 34
M  V30 35 1 7 35
M  V30 36 1 7 36
M  V30 37 1 11 37
M  V30 38 1 11 38
M  V30 39 1 12 39
M  V30 40 1 12 40
M  V30 41 1 15 41
M  V30 42 1 17 42
M  V30 43 1 21 43
M  V30 44 1 21 44
M  V30 45 1 22 45
M  V30 46 1 22 46
M  V30 47 1 22 47
M  V30 END BOND
M  V30 END CTAB
M  END
