
     RDKit          3D

  0  0  0  0  0  0  0  0  0  0999 V3000
M  V30 BEGIN CTAB
M  V30 COUNTS 27 26 0 0 0
M  V30 BEGIN ATOM
M  V30 1 N 1.02688 -3.21103 0.510296 0
M  V30 2 C 1.26053 -1.91348 -0.152507 0
M  V30 3 C -0.0651755 -1.22244 -0.162049 0
M  V30 4 C -0.0832124 0.129018 -0.798773 0
M  V30 5 C 0.782663 1.14029 -0.204089 0
M  V30 6 O 0.286128 2.22173 0.200858 0
M  V30 7 O 2.15785 0.991256 -0.0494422 0
M  V30 8 C 2.89383 2.04162 0.540059 0
M  V30 9 C -1.50813 0.619694 -0.838596 0
M  V30 10 C -2.17008 0.728466 0.4928 0
M  V30 11 N -3.5318 1.21647 0.23663 0
M  V30 12 H 0.681839 -3.90103 -0.208043 0
M  V30 13 H 1.91547 -3.58556 0.901031 0
M  V30 14 H 2.04097 -1.39297 0.439164 0
M  V30 15 H 1.64216 -2.16521 -1.15466 0
M  V30 16 H -0.768243 -1.86551 -0.730652 0
M  V30 17 H -0.42511 -1.21137 0.888179 0
M  V30 18 H 0.23258 -0.0254172 -1.87151 0
M  V30 19 H 2.56884 3.04054 0.143953 0
M  V30 20 H 3.9508 1.90834 0.237428 0
M  V30 21 H 2.74707 2.07557 1.62427 0
M  V30 22 H -1.57622 1.61787 -1.3423 0
M  V30 23 H -2.07481 -0.127533 -1.45096 0
M  V30 24 H -2.21116 -0.257532 1.02373 0
M  V30 25 H -1.74091 1.43213 1.20398 0
M  V30 26 H -3.88995 0.615027 -0.550094 0
M  V30 27 H -4.1428 1.10107 1.0713 0
M  V30 END ATOM
M  V30 BEGIN BOND
M  V30 1 1 1 2
M  V30 2 1 2 3
M  V30 3 1 3 4
M  V30 4 1 4 5
M  V30 5 2 5 6
M  V30 6 1 5 7
M  V30 7 1 7 8
M  V30 8 1 4 9
M  V30 9 1 9 10
M  V30 10 1 10 11
M  V30 11 1 1 12
M  V30 12 1 1 13
M  V30 13 1 2 14
M  V30 14 1 2 15
M  V30 15 1 3 16
M  V30 16 1 3 17
M  V30 17 1 4 18
M  V30 18 1 8 19
M  V30 19 1 8 20
M  V30 20 1 8 21
M  V30 21 1 9 22
M  V30 22 1 9 23
M  V30 23 1 10 24
M  V30 24 1 10 25
M  V30 25 1 11 26
M  V30 26 1 11 27
M  V30 END BOND
M  V30 END CTAB
M  END
