
     RDKit          3D

  0  0  0  0  0  0  0  0  0  0999 V3000
M  V30 BEGIN CTAB
M  V30 COUNTS 27 27 0 0 0
M  V30 BEGIN ATOM
M  V30 1 C -3.19776 1.28821 0.104227 0
M  V30 2 C -1.70903 1.16174 -0.165078 0
M  V30 3 C -1.22196 -0.221033 0.183375 0
M  V30 4 C 0.217383 -0.445166 -0.0547249 0
M  V30 5 C 1.1093 0.580607 -0.321172 0
M  V30 6 C 2.44225 0.252416 -0.515869 0
M  V30 7 C 3.42658 1.33916 -0.797681 0
M  V30 8 C 2.8472 -1.067 -0.442133 0
M  V30 9 N 1.94673 -2.04093 -0.179672 0
M  V30 10 C 0.647126 -1.77915 0.0164655 0
M  V30 11 N -0.309817 -2.80044 0.285089 0
M  V30 12 N -1.5705 -0.552422 1.56072 0
M  V30 13 H -3.47502 0.997197 1.13797 0
M  V30 14 H -3.46389 2.35283 -0.0191356 0
M  V30 15 H -3.76099 0.60343 -0.568973 0
M  V30 16 H -1.11372 1.92229 0.371673 0
M  V30 17 H -1.59247 1.37655 -1.25922 0
M  V30 18 H -1.81978 -0.957032 -0.435914 0
M  V30 19 H 0.757391 1.60445 -0.373003 0
M  V30 20 H 3.4964 1.96753 0.111631 0
M  V30 21 H 4.44447 0.904301 -0.942641 0
M  V30 22 H 3.15509 1.93706 -1.67849 0
M  V30 23 H 3.88087 -1.31459 -0.597001 0
M  V30 24 H -0.851335 -3.15194 -0.561613 0
M  V30 25 H -0.487704 -3.19378 1.23627 0
M  V30 26 H -1.29275 0.181102 2.24205 0
M  V30 27 H -2.50407 -0.945396 1.66284 0
M  V30 END ATOM
M  V30 BEGIN BOND
M  V30 1 1 1 2
M  V30 2 1 2 3
M  V30 3 1 3 4
M  V30 4 2 4 5
M  V30 5 1 5 6
M  V30 6 1 6 7
M  V30 7 2 6 8
M  V30 8 1 8 9
M  V30 9 2 9 10
M  V30 10 1 10 11
M  V30 11 1 3 12
M  V30 12 1 10 4
M  V30 13 1 1 13
M  V30 14 1 1 14
M  V30 15 1 1 15
M  V30 16 1 2 16
M  V30 17 1 2 17
M  V30 18 1 3 18
M  V30 19 1 5 19
M  V30 20 1 7 20
M  V30 21 1 7 21
M  V30 22 1 7 22
M  V30 23 1 8 23
M  V30 24 1 11 24
M  V30 25 1 11 25
M  V30 26 1 12 26
M  V30 27 1 12 27
M  V30 END BOND
M  V30 END CTAB
M  END
