
     RDKit          3D

  0  0  0  0  0  0  0  0  0  0999 V3000
M  V30 BEGIN CTAB
M  V30 COUNTS 27 27 0 0 0
M  V30 BEGIN ATOM
M  V30 1 C -1.89721 -1.0979 -0.465981 0
M  V30 2 C -1.63736 0.286837 0.091906 0
M  V30 3 N -1.36418 0.157124 1.49432 0
M  V30 4 C -0.535677 0.974575 -0.669877 0
M  V30 5 C 0.742478 0.258287 -0.62529 0
M  V30 6 C 1.08623 -0.687074 -1.56072 0
M  V30 7 C 2.30808 -1.36166 -1.50529 0
M  V30 8 N 3.1802 -1.09568 -0.524888 0
M  V30 9 C 2.87036 -0.180345 0.397866 0
M  V30 10 N 3.83079 0.0753805 1.43073 0
M  V30 11 C 1.65495 0.513321 0.371218 0
M  V30 12 C -2.89728 1.0588 -0.0688098 0
M  V30 13 O -3.6111 1.52965 1.03345 0
M  V30 14 O -3.29479 1.27089 -1.24104 0
M  V30 15 H -2.926 -1.44626 -0.241226 0
M  V30 16 H -1.20149 -1.85428 -0.0885448 0
M  V30 17 H -1.82594 -1.04337 -1.57274 0
M  V30 18 H -2.23327 -0.203089 1.94989 0
M  V30 19 H -0.597374 -0.519161 1.71567 0
M  V30 20 H -0.462232 2.02307 -0.296659 0
M  V30 21 H -0.907244 1.07814 -1.72799 0
M  V30 22 H 0.436832 -0.947206 -2.36884 0
M  V30 23 H 2.55497 -2.10315 -2.25589 0
M  V30 24 H 4.04645 1.01158 1.7991 0
M  V30 25 H 4.34697 -0.746808 1.83685 0
M  V30 26 H 1.46783 1.24117 1.14882 0
M  V30 27 H -3.13498 1.80715 1.88993 0
M  V30 END ATOM
M  V30 BEGIN BOND
M  V30 1 1 1 2
M  V30 2 1 2 3
M  V30 3 1 2 4
M  V30 4 1 4 5
M  V30 5 2 5 6
M  V30 6 1 6 7
M  V30 7 2 7 8
M  V30 8 1 8 9
M  V30 9 1 9 10
M  V30 10 2 9 11
M  V30 11 1 2 12
M  V30 12 1 12 13
M  V30 13 2 12 14
M  V30 14 1 11 5
M  V30 15 1 1 15
M  V30 16 1 1 16
M  V30 17 1 1 17
M  V30 18 1 3 18
M  V30 19 1 3 19
M  V30 20 1 4 20
M  V30 21 1 4 21
M  V30 22 1 6 22
M  V30 23 1 7 23
M  V30 24 1 10 24
M  V30 25 1 10 25
M  V30 26 1 11 26
M  V30 27 1 13 27
M  V30 END BOND
M  V30 END CTAB
M  END
