
     RDKit          3D

  0  0  0  0  0  0  0  0  0  0999 V3000
M  V30 BEGIN CTAB
M  V30 COUNTS 23 24 0 0 0
M  V30 BEGIN ATOM
M  V30 1 C -2.00819 -0.412955 0.201931 0
M  V30 2 N -3.24167 -0.246269 -0.489921 0
M  V30 3 C -1.20822 0.879799 0.426341 0
M  V30 4 C -0.00612037 0.12532 0.0636687 0
M  V30 5 C 0.904291 -0.377315 1.13304 0
M  V30 6 C 2.00929 -0.299791 0.0662556 0
M  V30 7 N 3.26041 0.171082 0.557827 0
M  V30 8 C 1.12944 0.76866 -0.60159 0
M  V30 9 C -0.829298 -0.871356 -0.669671 0
M  V30 10 H -2.03327 -0.961949 1.16593 0
M  V30 11 H -4.00123 -0.718898 0.0671705 0
M  V30 12 H -3.42891 0.737877 -0.706197 0
M  V30 13 H -1.2967 1.30056 1.43305 0
M  V30 14 H -1.5126 1.58636 -0.401819 0
M  V30 15 H 0.724148 -1.37791 1.52457 0
M  V30 16 H 1.12684 0.328468 1.9454 0
M  V30 17 H 2.03672 -1.17783 -0.607465 0
M  V30 18 H 3.45929 1.12225 0.205194 0
M  V30 19 H 4.00726 -0.491177 0.200961 0
M  V30 20 H 1.17711 0.787113 -1.68778 0
M  V30 21 H 1.38991 1.74771 -0.120958 0
M  V30 22 H -1.03 -0.684239 -1.73248 0
M  V30 23 H -0.628485 -1.93551 -0.46031 0
M  V30 END ATOM
M  V30 BEGIN BOND
M  V30 1 1 1 2
M  V30 2 1 1 3
M  V30 3 1 3 4
M  V30 4 1 4 5
M  V30 5 1 5 6
M  V30 6 1 6 7
M  V30 7 1 6 8
M  V30 8 1 4 9
M  V30 9 1 9 1
M  V30 10 1 8 4
M  V30 11 1 1 10
M  V30 12 1 2 11
M  V30 13 1 2 12
M  V30 14 1 3 13
M  V30 15 1 3 14
M  V30 16 1 5 15
M  V30 17 1 5 16
M  V30 18 1 6 17
M  V30 19 1 7 18
M  V30 20 1 7 19
M  V30 21 1 8 20
M  V30 22 1 8 21
M  V30 23 1 9 22
M  V30 24 1 9 23
M  V30 END BOND
M  V30 END CTAB
M  END
