
     RDKit          3D

  0  0  0  0  0  0  0  0  0  0999 V3000
M  V30 BEGIN CTAB
M  V30 COUNTS 29 30 0 0 0
M  V30 BEGIN ATOM
M  V30 1 N 5.25261 1.62031 0.500172 0
M  V30 2 C 4.0918 0.835061 0.295495 0
M  V30 3 C 3.85893 0.2022 -0.916848 0
M  V30 4 C 2.73829 -0.564769 -1.13741 0
M  V30 5 C 1.8084 -0.72197 -0.139757 0
M  V30 6 C 2.00522 -0.108427 1.08093 0
M  V30 7 C 3.14289 0.660566 1.28001 0
M  V30 8 Cl 0.847015 -0.300829 2.41166 0
M  V30 9 O 0.695299 -1.49738 -0.388893 0
M  V30 10 C -0.615128 -1.04979 -0.386749 0
M  V30 11 C -1.65194 -1.98277 -0.483554 0
M  V30 12 C -2.97356 -1.60014 -0.488095 0
M  V30 13 C -3.29137 -0.248166 -0.393923 0
M  V30 14 C -2.30619 0.69257 -0.298082 0
M  V30 15 C -0.992637 0.272391 -0.296813 0
M  V30 16 C -4.66523 0.207078 -0.394041 0
M  V30 17 S -5.43541 0.463047 -1.79306 0
M  V30 18 N -5.3252 0.425108 0.830315 0
M  V30 19 H 6.0214 1.28544 1.11083 0
M  V30 20 H 5.35236 2.54495 0.0414188 0
M  V30 21 H 4.60353 0.335124 -1.69835 0
M  V30 22 H 2.56951 -1.05188 -2.08612 0
M  V30 23 H 3.2585 1.13016 2.26485 0
M  V30 24 H -1.39973 -3.04819 -0.557728 0
M  V30 25 H -3.79869 -2.2981 -0.561763 0
M  V30 26 H -2.5144 1.76744 -0.222102 0
M  V30 27 H -0.17066 0.992897 -0.232435 0
M  V30 28 H -4.75659 0.69741 1.67869 0
M  V30 29 H -6.34902 0.34065 0.981341 0
M  V30 END ATOM
M  V30 BEGIN BOND
M  V30 1 1 1 2
M  V30 2 2 2 3
M  V30 3 1 3 4
M  V30 4 2 4 5
M  V30 5 1 5 6
M  V30 6 2 6 7
M  V30 7 1 6 8
M  V30 8 1 5 9
M  V30 9 1 9 10
M  V30 10 2 10 11
M  V30 11 1 11 12
M  V30 12 2 12 13
M  V30 13 1 13 14
M  V30 14 2 14 15
M  V30 15 1 13 16
M  V30 16 2 16 17
M  V30 17 1 16 18
M  V30 18 1 7 2
M  V30 19 1 15 10
M  V30 20 1 1 19
M  V30 21 1 1 20
M  V30 22 1 3 21
M  V30 23 1 4 22
M  V30 24 1 7 23
M  V30 25 1 11 24
M  V30 26 1 12 25
M  V30 27 1 14 26
M  V30 28 1 15 27
M  V30 29 1 18 28
M  V30 30 1 18 29
M  V30 END BOND
M  V30 END CTAB
M  END
