
     RDKit          3D

  0  0  0  0  0  0  0  0  0  0999 V3000
M  V30 BEGIN CTAB
M  V30 COUNTS 22 22 0 0 0
M  V30 BEGIN ATOM
M  V30 1 N -3.64839 0.0665943 1.25475 0
M  V30 2 C -2.57288 -0.539624 0.458139 0
M  V30 3 C -2.31778 0.417317 -0.6922 0
M  V30 4 S -0.994308 -0.239984 -1.74249 0
M  V30 5 C 0.532271 -0.209011 -0.773169 0
M  V30 6 C 1.3428 0.890425 -0.810751 0
M  V30 7 C 2.49434 0.900005 -0.0685124 0
M  V30 8 C 2.78794 -0.229893 0.701299 0
M  V30 9 N 1.97459 -1.29171 0.717514 0
M  V30 10 C 0.857156 -1.29079 -0.0077856 0
M  V30 11 N 3.97318 -0.235533 1.47311 0
M  V30 12 H -3.33962 1.0496 1.42075 0
M  V30 13 H -4.4982 0.101269 0.653378 0
M  V30 14 H -3.00466 -1.51028 0.0790296 0
M  V30 15 H -1.67095 -0.72998 1.06356 0
M  V30 16 H -2.02185 1.39197 -0.227273 0
M  V30 17 H -3.21165 0.585897 -1.30278 0
M  V30 18 H 1.09397 1.7549 -1.41687 0
M  V30 19 H 3.14893 1.73872 -0.0756327 0
M  V30 20 H 0.182477 -2.16763 0.00469671 0
M  V30 21 H 4.85785 0.160998 1.06582 0
M  V30 22 H 4.03475 -0.613259 2.44028 0
M  V30 END ATOM
M  V30 BEGIN BOND
M  V30 1 1 1 2
M  V30 2 1 2 3
M  V30 3 1 3 4
M  V30 4 1 4 5
M  V30 5 2 5 6
M  V30 6 1 6 7
M  V30 7 2 7 8
M  V30 8 1 8 9
M  V30 9 2 9 10
M  V30 10 1 8 11
M  V30 11 1 10 5
M  V30 12 1 1 12
M  V30 13 1 1 13
M  V30 14 1 2 14
M  V30 15 1 2 15
M  V30 16 1 3 16
M  V30 17 1 3 17
M  V30 18 1 6 18
M  V30 19 1 7 19
M  V30 20 1 10 20
M  V30 21 1 11 21
M  V30 22 1 11 22
M  V30 END BOND
M  V30 END CTAB
M  END
