
     RDKit          3D

  0  0  0  0  0  0  0  0  0  0999 V3000
M  V30 BEGIN CTAB
M  V30 COUNTS 22 22 0 0 0
M  V30 BEGIN ATOM
M  V30 1 N -2.90277 0.261736 0.346131 0
M  V30 2 C -1.79595 -0.633382 0.23199 0
M  V30 3 N -2.04471 -1.8661 0.295269 0
M  V30 4 C -0.45997 -0.115628 0.0521207 0
M  V30 5 C -0.121699 1.25313 -0.0258071 0
M  V30 6 C -1.07253 2.36768 0.0636363 0
M  V30 7 N 1.20207 1.35046 -0.193438 0
M  V30 8 N 1.75502 0.159609 -0.231289 0
M  V30 9 C 0.745687 -0.75054 -0.0816469 0
M  V30 10 N 0.937343 -2.15431 -0.0688801 0
M  V30 11 C 3.15122 -0.202645 -0.395963 0
M  V30 12 H -3.20285 0.612225 1.27864 0
M  V30 13 H -3.43342 0.584668 -0.486272 0
M  V30 14 H -1.49641 -2.70422 0.249083 0
M  V30 15 H -1.54842 2.33941 1.08644 0
M  V30 16 H -1.82809 2.34888 -0.745714 0
M  V30 17 H -0.506073 3.32088 0.0538623 0
M  V30 18 H 1.04653 -2.66695 0.810614 0
M  V30 19 H 0.975239 -2.72546 -0.958149 0
M  V30 20 H 3.77208 0.677947 -0.108663 0
M  V30 21 H 3.44983 -1.02615 0.279626 0
M  V30 22 H 3.37788 -0.431244 -1.45159 0
M  V30 END ATOM
M  V30 BEGIN BOND
M  V30 1 1 1 2
M  V30 2 2 2 3 CFG=2
M  V30 3 1 2 4
M  V30 4 1 4 5
M  V30 5 1 5 6
M  V30 6 2 5 7
M  V30 7 1 7 8
M  V30 8 1 8 9
M  V30 9 1 9 10
M  V30 10 1 8 11
M  V30 11 2 9 4
M  V30 12 1 1 12
M  V30 13 1 1 13
M  V30 14 1 3 14
M  V30 15 1 6 15
M  V30 16 1 6 16
M  V30 17 1 6 17
M  V30 18 1 10 18
M  V30 19 1 10 19
M  V30 20 1 11 20
M  V30 21 1 11 21
M  V30 22 1 11 22
M  V30 END BOND
M  V30 END CTAB
M  END
