
     RDKit          3D

  0  0  0  0  0  0  0  0  0  0999 V3000
M  V30 BEGIN CTAB
M  V30 COUNTS 32 33 0 0 0
M  V30 BEGIN ATOM
M  V30 1 N 1.10004 1.57842 1.3481 0
M  V30 2 C 1.54068 0.470359 0.539244 0
M  V30 3 C 0.903534 -0.722443 0.308465 0
M  V30 4 C -0.402069 -1.12794 0.808615 0
M  V30 5 C -1.59875 -0.630908 0.0873123 0
M  V30 6 C -2.89678 -1.12061 0.708075 0
M  V30 7 C -3.92456 -0.341749 -0.070554 0
M  V30 8 C -3.24468 0.900266 -0.536467 0
M  V30 9 C -1.81462 0.835699 0.0391258 0
M  V30 10 N 1.73885 -1.42484 -0.502175 0
M  V30 11 C 2.83637 -0.698304 -0.757114 0
M  V30 12 N 2.73457 0.46075 -0.130821 0
M  V30 13 N 3.64425 1.5323 -0.111403 0
M  V30 14 C 4.01902 -1.08207 -1.60637 0
M  V30 15 H 0.672998 1.47896 2.28264 0
M  V30 16 H 1.23317 2.50432 0.940995 0
M  V30 17 H -0.426335 -2.2592 0.825247 0
M  V30 18 H -0.550206 -0.868153 1.90037 0
M  V30 19 H -1.59894 -0.988318 -0.990732 0
M  V30 20 H -2.88157 -0.823256 1.79042 0
M  V30 21 H -3.01931 -2.21496 0.587666 0
M  V30 22 H -4.22806 -1.01127 -0.931277 0
M  V30 23 H -4.84633 -0.136802 0.521176 0
M  V30 24 H -3.13244 0.892393 -1.63913 0
M  V30 25 H -3.7945 1.77683 -0.196846 0
M  V30 26 H -1.90064 1.2336 1.06077 0
M  V30 27 H -1.13427 1.40123 -0.628262 0
M  V30 28 H 3.5901 2.27966 0.609451 0
M  V30 29 H 4.40055 1.60377 -0.823554 0
M  V30 30 H 4.29172 -0.217196 -2.25812 0
M  V30 31 H 4.89097 -1.30185 -0.968779 0
M  V30 32 H 3.79723 -1.97869 -2.20607 0
M  V30 END ATOM
M  V30 BEGIN BOND
M  V30 1 1 1 2
M  V30 2 2 2 3
M  V30 3 1 3 4
M  V30 4 1 4 5
M  V30 5 1 5 6
M  V30 6 1 6 7
M  V30 7 1 7 8
M  V30 8 1 8 9
M  V30 9 1 3 10
M  V30 10 2 10 11
M  V30 11 1 11 12
M  V30 12 1 12 13
M  V30 13 1 11 14
M  V30 14 1 12 2
M  V30 15 1 9 5
M  V30 16 1 1 15
M  V30 17 1 1 16
M  V30 18 1 4 17
M  V30 19 1 4 18
M  V30 20 1 5 19
M  V30 21 1 6 20
M  V30 22 1 6 21
M  V30 23 1 7 22
M  V30 24 1 7 23
M  V30 25 1 8 24
M  V30 26 1 8 25
M  V30 27 1 9 26
M  V30 28 1 9 27
M  V30 29 1 13 28
M  V30 30 1 13 29
M  V30 31 1 14 30
M  V30 32 1 14 31
M  V30 33 1 14 32
M  V30 END BOND
M  V30 END CTAB
M  END
