
     RDKit          3D

  0  0  0  0  0  0  0  0  0  0999 V3000
M  V30 BEGIN CTAB
M  V30 COUNTS 27 27 0 0 0
M  V30 BEGIN ATOM
M  V30 1 C -3.57786 -0.948754 0.0900823 0
M  V30 2 C -2.09602 -1.03084 0.102778 0
M  V30 3 N -1.43975 0.102123 -0.511719 0
M  V30 4 C 0.00923212 0.0688861 -0.524302 0
M  V30 5 C 0.727658 1.09471 -1.08326 0
M  V30 6 C 2.08236 1.0784 -1.10289 0
M  V30 7 C 2.7447 0.00209367 -0.54599 0
M  V30 8 C 2.00478 -1.02801 0.0156847 0
M  V30 9 N 0.67217 -0.965615 0.0104194 0
M  V30 10 N 2.71743 -2.14123 0.591117 0
M  V30 11 N 4.16448 -0.0541385 -0.545833 0
M  V30 12 O -2.09633 1.13421 -1.04537 0
M  V30 13 C -2.13192 2.25796 -0.26769 0
M  V30 14 H -3.97458 0.0871772 0.0635432 0
M  V30 15 H -4.05303 -1.44615 0.962157 0
M  V30 16 H -3.93829 -1.52764 -0.810042 0
M  V30 17 H -1.71926 -1.16356 1.15686 0
M  V30 18 H -1.71817 -1.93857 -0.450234 0
M  V30 19 H 0.217217 1.94245 -1.52214 0
M  V30 20 H 2.68371 1.89744 -1.54975 0
M  V30 21 H 2.31504 -3.09217 0.646435 0
M  V30 22 H 3.6601 -1.97855 0.958657 0
M  V30 23 H 4.6894 0.133187 0.325296 0
M  V30 24 H 4.65218 -0.284253 -1.42807 0
M  V30 25 H -1.46248 2.24739 0.600311 0
M  V30 26 H -1.95976 3.20559 -0.81925 0
M  V30 27 H -3.173 2.34785 0.14814 0
M  V30 END ATOM
M  V30 BEGIN BOND
M  V30 1 1 1 2
M  V30 2 1 2 3
M  V30 3 1 3 4
M  V30 4 2 4 5
M  V30 5 1 5 6
M  V30 6 2 6 7
M  V30 7 1 7 8
M  V30 8 2 8 9
M  V30 9 1 8 10
M  V30 10 1 7 11
M  V30 11 1 3 12
M  V30 12 1 12 13
M  V30 13 1 9 4
M  V30 14 1 1 14
M  V30 15 1 1 15
M  V30 16 1 1 16
M  V30 17 1 2 17
M  V30 18 1 2 18
M  V30 19 1 5 19
M  V30 20 1 6 20
M  V30 21 1 10 21
M  V30 22 1 10 22
M  V30 23 1 11 23
M  V30 24 1 11 24
M  V30 25 1 13 25
M  V30 26 1 13 26
M  V30 27 1 13 27
M  V30 END BOND
M  V30 END CTAB
M  END
