
     RDKit          3D

  0  0  0  0  0  0  0  0  0  0999 V3000
M  V30 BEGIN CTAB
M  V30 COUNTS 50 54 0 0 0
M  V30 BEGIN ATOM
M  V30 1 C 0.11614 -0.74974 -2.51162 0
M  V30 2 O 0.729655 0.129785 -1.62555 0
M  V30 3 C 1.30402 -0.168329 -0.407934 0
M  V30 4 C 0.613138 -0.0694312 0.763158 0
M  V30 5 C 1.33222 -0.407414 1.91395 0
M  V30 6 C 2.63919 -0.813714 1.91167 0
M  V30 7 C 3.31129 -0.903795 0.71312 0
M  V30 8 C 2.64908 -0.583609 -0.438325 0
M  V30 9 O 3.29083 -0.66182 -1.66141 0
M  V30 10 C 3.99703 0.405927 -2.23963 0
M  V30 11 O 4.61898 -1.33926 1.00363 0
M  V30 12 C 4.86592 -1.13771 2.38784 0
M  V30 13 O 3.54987 -1.19538 2.90256 0
M  V30 14 C -0.775483 0.388438 0.883155 0
M  V30 15 C -0.92355 1.80707 0.490039 0
M  V30 16 C 0.0331299 2.75331 0.880594 0
M  V30 17 C -0.11715 4.07607 0.530428 0
M  V30 18 C -1.19647 4.51685 -0.206335 0
M  V30 19 C -2.12429 3.60081 -0.585973 0
M  V30 20 C -1.97459 2.26196 -0.233343 0
M  V30 21 O -2.96966 1.41474 -0.670934 0
M  V30 22 C -2.88167 0.0597927 -0.358555 0
M  V30 23 C -1.83349 -0.448034 0.369671 0
M  V30 24 C -1.89897 -1.82743 0.591364 0
M  V30 25 N -0.91216 -2.50921 1.3202 0
M  V30 26 C -2.95093 -2.59256 0.102193 0
M  V30 27 C -3.96255 -2.03246 -0.613389 0
M  V30 28 N -3.90373 -0.710483 -0.828377 0
M  V30 29 N -5.05488 -2.8114 -1.12423 0
M  V30 30 C -2.9813 -4.00364 0.350607 0
M  V30 31 N -3.00382 -5.15158 0.555218 0
M  V30 32 O -1.31 5.85821 -0.537575 0
M  V30 33 H -0.919626 -0.443511 -2.7671 0
M  V30 34 H 0.0217336 -1.7964 -2.09567 0
M  V30 35 H 0.67548 -0.821803 -3.49169 0
M  V30 36 H 0.818696 -0.342105 2.85971 0
M  V30 37 H 3.599 1.39105 -1.95816 0
M  V30 38 H 5.07254 0.312824 -2.02536 0
M  V30 39 H 3.8676 0.312708 -3.34676 0
M  V30 40 H 5.30795 -0.12941 2.56637 0
M  V30 41 H 5.51456 -1.94666 2.7838 0
M  V30 42 H -0.998069 0.43916 2.02246 0
M  V30 43 H 0.897134 2.41789 1.46697 0
M  V30 44 H 0.632491 4.7937 0.841272 0
M  V30 45 H -2.98539 3.89914 -1.16318 0
M  V30 46 H -0.943846 -2.54167 2.35622 0
M  V30 47 H -0.142106 -2.98622 0.816874 0
M  V30 48 H -5.98529 -2.38677 -1.28243 0
M  V30 49 H -4.89396 -3.80111 -1.33 0
M  V30 50 H -1.8147 6.47322 0.120444 0
M  V30 END ATOM
M  V30 BEGIN BOND
M  V30 1 1 1 2
M  V30 2 1 2 3
M  V30 3 2 3 4
M  V30 4 1 4 5
M  V30 5 2 5 6
M  V30 6 1 6 7
M  V30 7 2 7 8
M  V30 8 1 8 9
M  V30 9 1 9 10
M  V30 10 1 7 11
M  V30 11 1 11 12
M  V30 12 1 12 13
M  V30 13 1 4 14
M  V30 14 1 14 15
M  V30 15 2 15 16
M  V30 16 1 16 17
M  V30 17 2 17 18
M  V30 18 1 18 19
M  V30 19 2 19 20
M  V30 20 1 20 21
M  V30 21 1 21 22
M  V30 22 2 22 23
M  V30 23 1 23 24
M  V30 24 1 24 25
M  V30 25 2 24 26
M  V30 26 1 26 27
M  V30 27 2 27 28
M  V30 28 1 27 29
M  V30 29 1 26 30
M  V30 30 3 30 31
M  V30 31 1 18 32
M  V30 32 1 8 3
M  V30 33 1 23 14
M  V30 34 1 13 6
M  V30 35 1 20 15
M  V30 36 1 28 22
M  V30 37 1 1 33
M  V30 38 1 1 34
M  V30 39 1 1 35
M  V30 40 1 5 36
M  V30 41 1 10 37
M  V30 42 1 10 38
M  V30 43 1 10 39
M  V30 44 1 12 40
M  V30 45 1 12 41
M  V30 46 1 14 42
M  V30 47 1 16 43
M  V30 48 1 17 44
M  V30 49 1 19 45
M  V30 50 1 25 46
M  V30 51 1 25 47
M  V30 52 1 29 48
M  V30 53 1 29 49
M  V30 54 1 32 50
M  V30 END BOND
M  V30 END CTAB
M  END
