
     RDKit          3D

  0  0  0  0  0  0  0  0  0  0999 V3000
M  V30 BEGIN CTAB
M  V30 COUNTS 34 35 0 0 0
M  V30 BEGIN ATOM
M  V30 1 N -2.87912 1.58858 0.503816 0
M  V30 2 C -2.95438 0.859017 -0.742508 0
M  V30 3 C -2.57667 -0.572754 -0.50801 0
M  V30 4 C -3.53641 -1.14669 0.504306 0
M  V30 5 O -3.2671 -2.4823 0.791681 0
M  V30 6 C -1.15439 -0.866695 -0.303689 0
M  V30 7 C -0.452009 -0.23037 0.835988 0
M  V30 8 N 0.960896 -0.654928 0.893882 0
M  V30 9 C 1.47164 -1.71121 1.55215 0
M  V30 10 N 2.78818 -1.79364 1.38499 0
M  V30 11 C 3.16913 -0.771184 0.597962 0
M  V30 12 C 2.01611 -0.0683998 0.299191 0
M  V30 13 N 2.07092 1.03357 -0.488133 0
M  V30 14 C 3.27413 1.41938 -0.966454 0
M  V30 15 N 3.39475 2.57844 -1.80532 0
M  V30 16 N 4.39943 0.73927 -0.678947 0
M  V30 17 C 4.37838 -0.343696 0.0891862 0
M  V30 18 O 5.40105 -1.01734 0.389698 0
M  V30 19 H -3.82616 1.75976 0.924013 0
M  V30 20 H -2.46879 2.531 0.317087 0
M  V30 21 H -4.03432 0.850728 -1.07213 0
M  V30 22 H -2.3246 1.35908 -1.50473 0
M  V30 23 H -2.86815 -1.10205 -1.48137 0
M  V30 24 H -3.61813 -0.52181 1.419 0
M  V30 25 H -4.54296 -1.13397 0.0280534 0
M  V30 26 H -2.9339 -2.88934 -0.0684987 0
M  V30 27 H -0.611885 -0.597911 -1.25778 0
M  V30 28 H -1.00014 -1.98218 -0.220076 0
M  V30 29 H -0.447568 0.894591 0.713759 0
M  V30 30 H -0.910507 -0.428219 1.8222 0
M  V30 31 H 0.862118 -2.40138 2.14372 0
M  V30 32 H 2.84935 2.69217 -2.68694 0
M  V30 33 H 4.04846 3.34179 -1.53403 0
M  V30 34 H 5.32263 1.06869 -1.06953 0
M  V30 END ATOM
M  V30 BEGIN BOND
M  V30 1 1 1 2
M  V30 2 1 2 3
M  V30 3 1 3 4
M  V30 4 1 4 5
M  V30 5 1 3 6
M  V30 6 1 6 7
M  V30 7 1 7 8
M  V30 8 1 8 9
M  V30 9 2 9 10
M  V30 10 1 10 11
M  V30 11 2 11 12
M  V30 12 1 12 13
M  V30 13 2 13 14
M  V30 14 1 14 15
M  V30 15 1 14 16
M  V30 16 1 16 17
M  V30 17 2 17 18
M  V30 18 1 12 8
M  V30 19 1 17 11
M  V30 20 1 1 19
M  V30 21 1 1 20
M  V30 22 1 2 21
M  V30 23 1 2 22
M  V30 24 1 3 23
M  V30 25 1 4 24
M  V30 26 1 4 25
M  V30 27 1 5 26
M  V30 28 1 6 27
M  V30 29 1 6 28
M  V30 30 1 7 29
M  V30 31 1 7 30
M  V30 32 1 9 31
M  V30 33 1 15 32
M  V30 34 1 15 33
M  V30 35 1 16 34
M  V30 END BOND
M  V30 END CTAB
M  END
