
     RDKit          3D

  0  0  0  0  0  0  0  0  0  0999 V3000
M  V30 BEGIN CTAB
M  V30 COUNTS 32 34 0 0 0
M  V30 BEGIN ATOM
M  V30 1 C -3.02666 3.11556 -0.934052 0
M  V30 2 O -2.08859 2.11837 -0.630369 0
M  V30 3 C -2.4259 0.841361 -0.205207 0
M  V30 4 N -3.68716 0.409758 -0.0344714 0
M  V30 5 C -3.95226 -0.853715 0.384565 0
M  V30 6 N -5.30704 -1.27391 0.553774 0
M  V30 7 N -2.96361 -1.72323 0.645337 0
M  V30 8 C -1.66618 -1.35108 0.493167 0
M  V30 9 N -0.67559 -2.22382 0.754732 0
M  V30 10 C 0.612958 -1.79319 0.583593 0
M  V30 11 N 1.66557 -2.70944 0.843779 0
M  V30 12 C 0.874809 -0.517302 0.161206 0
M  V30 13 N -0.136864 0.353454 -0.0995177 0
M  V30 14 C -1.40704 -0.0472604 0.0610987 0
M  V30 15 C 2.2628 -0.0954797 -0.0220514 0
M  V30 16 C 2.6529 0.548265 -1.18901 0
M  V30 17 C 3.93441 0.986352 -1.42987 0
M  V30 18 C 4.86767 0.762463 -0.441944 0
M  V30 19 C 4.50166 0.126145 0.722691 0
M  V30 20 C 3.20252 -0.315454 0.961982 0
M  V30 21 H -3.56091 2.95108 -1.8846 0
M  V30 22 H -3.78399 3.14015 -0.118035 0
M  V30 23 H -2.5169 4.111 -0.887304 0
M  V30 24 H -6.08149 -0.590064 0.689419 0
M  V30 25 H -5.5671 -2.28337 0.547135 0
M  V30 26 H 2.31808 -3.08411 0.136359 0
M  V30 27 H 1.78874 -3.02905 1.82872 0
M  V30 28 H 1.90681 0.723559 -1.97092 0
M  V30 29 H 4.19338 1.48974 -2.36748 0
M  V30 30 H 5.88599 1.08748 -0.584233 0
M  V30 31 H 5.21886 -0.0677173 1.52864 0
M  V30 32 H 2.96013 -0.806565 1.90287 0
M  V30 END ATOM
M  V30 BEGIN BOND
M  V30 1 1 1 2
M  V30 2 1 2 3
M  V30 3 2 3 4
M  V30 4 1 4 5
M  V30 5 1 5 6
M  V30 6 2 5 7
M  V30 7 1 7 8
M  V30 8 2 8 9
M  V30 9 1 9 10
M  V30 10 1 10 11
M  V30 11 2 10 12
M  V30 12 1 12 13
M  V30 13 2 13 14
M  V30 14 1 12 15
M  V30 15 2 15 16
M  V30 16 1 16 17
M  V30 17 2 17 18
M  V30 18 1 18 19
M  V30 19 2 19 20
M  V30 20 1 14 3
M  V30 21 1 20 15
M  V30 22 1 14 8
M  V30 23 1 1 21
M  V30 24 1 1 22
M  V30 25 1 1 23
M  V30 26 1 6 24
M  V30 27 1 6 25
M  V30 28 1 11 26
M  V30 29 1 11 27
M  V30 30 1 16 28
M  V30 31 1 17 29
M  V30 32 1 18 30
M  V30 33 1 19 31
M  V30 34 1 20 32
M  V30 END BOND
M  V30 END CTAB
M  END
