
     RDKit          3D

  0  0  0  0  0  0  0  0  0  0999 V3000
M  V30 BEGIN CTAB
M  V30 COUNTS 37 40 0 0 0
M  V30 BEGIN ATOM
M  V30 1 C -2.70332 -3.96711 1.06166 0
M  V30 2 C -2.54147 -2.55381 0.59904 0
M  V30 3 N -1.43209 -1.94197 0.145101 0
M  V30 4 N -1.68157 -0.682993 -0.170907 0
M  V30 5 C -2.98224 -0.448039 0.0762204 0
M  V30 6 N -3.50319 -1.61518 0.55278 0
M  V30 7 C -3.52976 0.799863 -0.163699 0
M  V30 8 C -4.86512 0.974899 0.1098 0
M  V30 9 C -5.41352 2.21392 -0.12726 0
M  V30 10 C -4.61784 3.21982 -0.622585 0
M  V30 11 C -3.27318 3.01839 -0.890447 0
M  V30 12 C -2.71472 1.7883 -0.65851 0
M  V30 13 N -1.4184 1.51721 -0.893758 0
M  V30 14 C -0.886601 0.296665 -0.658195 0
M  V30 15 S 0.850484 -0.0219499 -0.986956 0
M  V30 16 C 1.78437 0.355258 0.539773 0
M  V30 17 C 3.2364 0.100895 0.300707 0
M  V30 18 N 3.9815 1.11938 -0.161223 0
M  V30 19 C 5.30346 1.01288 -0.415822 0
M  V30 20 N 6.07342 2.09079 -0.900608 0
M  V30 21 N 5.83301 -0.208004 -0.169958 0
M  V30 22 C 5.11053 -1.23355 0.289164 0
M  V30 23 N 3.80005 -1.09439 0.531645 0
M  V30 24 N 5.76168 -2.48159 0.51671 0
M  V30 25 H -2.93466 -4.65373 0.217837 0
M  V30 26 H -3.58168 -4.0161 1.73983 0
M  V30 27 H -1.81992 -4.3305 1.59127 0
M  V30 28 H -5.48145 0.179242 0.49841 0
M  V30 29 H -6.45891 2.36318 0.0832071 0
M  V30 30 H -5.05703 4.1999 -0.808802 0
M  V30 31 H -2.65662 3.79795 -1.27425 0
M  V30 32 H 1.62202 1.42835 0.753712 0
M  V30 33 H 1.47779 -0.30044 1.37449 0
M  V30 34 H 6.56271 2.70571 -0.233584 0
M  V30 35 H 6.14367 2.25889 -1.91536 0
M  V30 36 H 5.98113 -2.75847 1.49898 0
M  V30 37 H 6.03107 -3.13369 -0.245048 0
M  V30 END ATOM
M  V30 BEGIN BOND
M  V30 1 1 1 2
M  V30 2 2 2 3
M  V30 3 1 3 4
M  V30 4 1 4 5
M  V30 5 2 5 6
M  V30 6 1 5 7
M  V30 7 2 7 8
M  V30 8 1 8 9
M  V30 9 2 9 10
M  V30 10 1 10 11
M  V30 11 2 11 12
M  V30 12 1 12 13
M  V30 13 2 13 14
M  V30 14 1 14 15
M  V30 15 1 15 16
M  V30 16 1 16 17
M  V30 17 2 17 18
M  V30 18 1 18 19
M  V30 19 1 19 20
M  V30 20 2 19 21
M  V30 21 1 21 22
M  V30 22 2 22 23
M  V30 23 1 22 24
M  V30 24 1 6 2
M  V30 25 1 12 7
M  V30 26 1 23 17
M  V30 27 1 14 4
M  V30 28 1 1 25
M  V30 29 1 1 26
M  V30 30 1 1 27
M  V30 31 1 8 28
M  V30 32 1 9 29
M  V30 33 1 10 30
M  V30 34 1 11 31
M  V30 35 1 16 32
M  V30 36 1 16 33
M  V30 37 1 20 34
M  V30 38 1 20 35
M  V30 39 1 24 36
M  V30 40 1 24 37
M  V30 END BOND
M  V30 END CTAB
M  END
