
     RDKit          3D

  0  0  0  0  0  0  0  0  0  0999 V3000
M  V30 BEGIN CTAB
M  V30 COUNTS 84 88 0 0 0
M  V30 BEGIN ATOM
M  V30 1 N 8.19858 4.70926 -0.341272 0
M  V30 2 N 7.05506 4.1811 0.197353 0
M  V30 3 C 6.25253 3.27609 -0.499492 0
M  V30 4 O 6.60642 2.93805 -1.67698 0
M  V30 5 C 5.04431 2.70823 0.0512309 0
M  V30 6 C 4.62887 3.03453 1.32036 0
M  V30 7 C 3.46231 2.4758 1.82236 0
M  V30 8 C 2.73868 1.60781 1.05175 0
M  V30 9 C 3.11013 1.2514 -0.216905 0
M  V30 10 C 2.39096 0.332027 -1.09758 0
M  V30 11 N 1.24058 -0.328374 -0.490609 0
M  V30 12 C 1.45055 -1.6319 0.089214 0 CFG=2
M  V30 13 C 1.13127 -2.78706 -0.797827 0
M  V30 14 C 1.87292 -2.90291 -2.04633 0
M  V30 15 C 3.07971 -3.56576 -2.18844 0
M  V30 16 C 3.7179 -3.64251 -3.41021 0
M  V30 17 C 3.16884 -3.05645 -4.53644 0
M  V30 18 C 1.97386 -2.39651 -4.41095 0
M  V30 19 C 1.3515 -2.32935 -3.18776 0
M  V30 20 C 0.689626 -1.74569 1.37669 0 CFG=2
M  V30 21 O 1.08912 -2.98312 1.94105 0
M  V30 22 C -0.779688 -1.74044 1.31084 0 CFG=1
M  V30 23 O -1.29447 -2.5984 2.28334 0
M  V30 24 C -1.43173 -0.410125 1.44703 0 CFG=1
M  V30 25 C -1.17983 0.367578 2.67586 0
M  V30 26 C -1.57276 -0.236327 3.95042 0
M  V30 27 C -0.671605 -0.943082 4.72646 0
M  V30 28 C -1.05871 -1.51359 5.92092 0
M  V30 29 C -2.35247 -1.37843 6.34413 0
M  V30 30 C -3.27407 -0.676582 5.58793 0
M  V30 31 C -2.86336 -0.121368 4.40792 0
M  V30 32 N -1.1545 0.392607 0.240998 0
M  V30 33 C -2.23855 1.27572 -0.106852 0
M  V30 34 C -3.20542 0.725289 -1.05933 0
M  V30 35 C -2.95202 -0.447891 -1.70659 0
M  V30 36 C -3.89434 -0.939843 -2.60796 0
M  V30 37 C -5.05999 -0.255259 -2.84196 0
M  V30 38 C -5.33169 0.925504 -2.20067 0
M  V30 39 C -4.37509 1.39714 -1.3042 0
M  V30 40 C -6.56189 1.66032 -2.4446 0
M  V30 41 O -6.80929 2.65722 -1.71278 0
M  V30 42 N -7.47347 1.29463 -3.46429 0
M  V30 43 N -8.63875 2.05323 -3.64087 0
M  V30 44 C 0.0144634 0.390873 -0.560851 0
M  V30 45 O -0.00147373 1.19115 -1.56601 0
M  V30 46 C 4.27176 1.81245 -0.707386 0
M  V30 47 H 8.73679 4.0328 -0.826169 0
M  V30 48 H 8.12417 5.63689 -0.615861 0
M  V30 49 H 6.80685 4.48665 1.15875 0
M  V30 50 H 5.18561 3.72978 1.97185 0
M  V30 51 H 3.143 2.74838 2.84631 0
M  V30 52 H 1.84151 1.20148 1.47287 0
M  V30 53 H 2.0296 0.846808 -2.00377 0
M  V30 54 H 3.10146 -0.451239 -1.43221 0
M  V30 55 H 2.53129 -1.63568 0.408212 0
M  V30 56 H 0.0525788 -2.7689 -1.05306 0
M  V30 57 H 1.36955 -3.71193 -0.194874 0
M  V30 58 H 3.47025 -4.0075 -1.28059 0
M  V30 59 H 4.65866 -4.16879 -3.48216 0
M  V30 60 H 3.7007 -3.1365 -5.49214 0
M  V30 61 H 1.54361 -1.93988 -5.28285 0
M  V30 62 H 0.390579 -1.79491 -3.1053 0
M  V30 63 H 1.0612 -0.962647 2.0636 0
M  V30 64 H 1.53533 -2.86116 2.80213 0
M  V30 65 H -1.18995 -2.16588 0.347415 0
M  V30 66 H -2.26347 -2.74061 2.09291 0
M  V30 67 H -2.54373 -0.608514 1.40478 0
M  V30 68 H -0.139909 0.738944 2.78536 0
M  V30 69 H -1.78952 1.31657 2.58826 0
M  V30 70 H 0.361126 -1.06081 4.41026 0
M  V30 71 H -0.348167 -2.06205 6.51802 0
M  V30 72 H -2.67378 -1.81844 7.27336 0
M  V30 73 H -4.30319 -0.581741 5.9476 0
M  V30 74 H -3.56444 0.437941 3.78599 0
M  V30 75 H -1.76538 2.16775 -0.586281 0
M  V30 76 H -2.74476 1.61556 0.828749 0
M  V30 77 H -2.04428 -0.991112 -1.53484 0
M  V30 78 H -3.65833 -1.88253 -3.10845 0
M  V30 79 H -5.75695 -0.685134 -3.55272 0
M  V30 80 H -4.61843 2.33469 -0.810727 0
M  V30 81 H -7.31744 0.475152 -4.10486 0
M  V30 82 H -9.47063 1.62061 -3.15853 0
M  V30 83 H -8.46616 3.0212 -3.3067 0
M  V30 84 H 4.64988 1.5977 -1.6951 0
M  V30 END ATOM
M  V30 BEGIN BOND
M  V30 1 1 1 2
M  V30 2 1 2 3
M  V30 3 2 3 4
M  V30 4 1 3 5
M  V30 5 2 5 6
M  V30 6 1 6 7
M  V30 7 2 7 8
M  V30 8 1 8 9
M  V30 9 1 9 10
M  V30 10 1 10 11
M  V30 11 1 11 12
M  V30 12 1 12 13
M  V30 13 1 13 14
M  V30 14 2 14 15
M  V30 15 1 15 16
M  V30 16 2 16 17
M  V30 17 1 17 18
M  V30 18 2 18 19
M  V30 19 1 12 20
M  V30 20 1 20 21
M  V30 21 1 20 22
M  V30 22 1 22 23
M  V30 23 1 22 24
M  V30 24 1 24 25
M  V30 25 1 25 26
M  V30 26 2 26 27
M  V30 27 1 27 28
M  V30 28 2 28 29
M  V30 29 1 29 30
M  V30 30 2 30 31
M  V30 31 1 24 32
M  V30 32 1 32 33
M  V30 33 1 33 34
M  V30 34 2 34 35
M  V30 35 1 35 36
M  V30 36 2 36 37
M  V30 37 1 37 38
M  V30 38 2 38 39
M  V30 39 1 38 40
M  V30 40 2 40 41
M  V30 41 1 40 42
M  V30 42 1 42 43
M  V30 43 1 32 44
M  V30 44 2 44 45
M  V30 45 2 9 46
M  V30 46 1 46 5
M  V30 47 1 44 11
M  V30 48 1 19 14
M  V30 49 1 31 26
M  V30 50 1 39 34
M  V30 51 1 1 47
M  V30 52 1 1 48
M  V30 53 1 2 49
M  V30 54 1 6 50
M  V30 55 1 7 51
M  V30 56 1 8 52
M  V30 57 1 10 53
M  V30 58 1 10 54
M  V30 59 1 12 55 CFG=1
M  V30 60 1 13 56
M  V30 61 1 13 57
M  V30 62 1 15 58
M  V30 63 1 16 59
M  V30 64 1 17 60
M  V30 65 1 18 61
M  V30 66 1 19 62
M  V30 67 1 20 63 CFG=1
M  V30 68 1 21 64
M  V30 69 1 22 65 CFG=3
M  V30 70 1 23 66
M  V30 71 1 24 67 CFG=3
M  V30 72 1 25 68
M  V30 73 1 25 69
M  V30 74 1 27 70
M  V30 75 1 28 71
M  V30 76 1 29 72
M  V30 77 1 30 73
M  V30 78 1 31 74
M  V30 79 1 33 75
M  V30 80 1 33 76
M  V30 81 1 35 77
M  V30 82 1 36 78
M  V30 83 1 37 79
M  V30 84 1 39 80
M  V30 85 1 42 81
M  V30 86 1 43 82
M  V30 87 1 43 83
M  V30 88 1 46 84
M  V30 END BOND
M  V30 END CTAB
M  END
