
     RDKit          3D

  0  0  0  0  0  0  0  0  0  0999 V3000
M  V30 BEGIN CTAB
M  V30 COUNTS 63 66 0 0 0
M  V30 BEGIN ATOM
M  V30 1 C 2.29757 -5.97942 2.20273 0
M  V30 2 O 2.13407 -4.7 2.76427 0
M  V30 3 C 2.13481 -3.54131 1.96694 0
M  V30 4 O 2.28998 -3.73955 0.745719 0
M  V30 5 C 1.96213 -2.23778 2.58242 0
M  V30 6 C 1.85741 -1.06489 1.66757 0
M  V30 7 C 3.04617 -0.87823 0.765007 0
M  V30 8 C 3.42102 0.523584 0.96179 0
M  V30 9 N 2.76947 0.981003 1.96016 0
M  V30 10 O 1.93673 0.0868544 2.55122 0
M  V30 11 C 4.38843 1.32031 0.167536 0
M  V30 12 C 4.6735 2.63241 0.449085 0
M  V30 13 C 5.58696 3.35134 -0.318264 0
M  V30 14 C 6.23227 2.76609 -1.38409 0
M  V30 15 C 5.93284 1.43446 -1.65767 0
M  V30 16 C 5.02784 0.726389 -0.895477 0
M  V30 17 C 6.62728 0.824325 -2.79486 0
M  V30 18 N 7.56307 1.56257 -3.56112 0
M  V30 19 N 6.42785 -0.394459 -3.14945 0
M  V30 20 C 0.547401 -0.988484 0.954914 0
M  V30 21 O 0.30175 -1.88696 0.137659 0
M  V30 22 N -0.344625 0.0498011 1.20841 0
M  V30 23 C -1.61033 0.30699 0.660477 0
M  V30 24 C -2.32298 1.43756 1.07462 0
M  V30 25 F -1.75856 2.2737 2.00738 0
M  V30 26 C -3.56922 1.77764 0.606844 0
M  V30 27 C -4.18245 0.977177 -0.328269 0
M  V30 28 C -3.50656 -0.132325 -0.75001 0
M  V30 29 C -2.23396 -0.486122 -0.276313 0
M  V30 30 C -5.48704 1.27631 -0.909933 0
M  V30 31 C -6.61621 0.528013 -0.656623 0
M  V30 32 C -7.81145 0.868291 -1.29346 0
M  V30 33 C -7.88496 1.93153 -2.16242 0
M  V30 34 C -6.7604 2.70189 -2.43164 0
M  V30 35 C -5.60732 2.33929 -1.79183 0
M  V30 36 S -6.61262 -0.789054 0.452631 0
M  V30 37 N -6.09529 -0.195734 2.00259 0
M  V30 38 O -5.91078 -2.01057 0.0257419 0
M  V30 39 O -8.07048 -1.20487 0.679502 0
M  V30 40 H 2.54026 -5.96896 1.13009 0
M  V30 41 H 1.31237 -6.50983 2.35147 0
M  V30 42 H 3.05238 -6.60369 2.73429 0
M  V30 43 H 2.84522 -2.02174 3.25929 0
M  V30 44 H 1.08439 -2.1818 3.27575 0
M  V30 45 H 2.75489 -1.0683 -0.30119 0
M  V30 46 H 3.86291 -1.59563 1.07028 0
M  V30 47 H 4.18698 3.10633 1.26881 0
M  V30 48 H 5.81446 4.39695 -0.0920759 0
M  V30 49 H 6.94485 3.30037 -1.99798 0
M  V30 50 H 4.81698 -0.311042 -1.13464 0
M  V30 51 H 8.44237 1.97483 -3.12783 0
M  V30 52 H 7.46033 1.75055 -4.58677 0
M  V30 53 H 5.7987 -1.07765 -2.72323 0
M  V30 54 H -0.0143497 0.767173 1.93682 0
M  V30 55 H -4.08738 2.67914 0.966232 0
M  V30 56 H -3.92592 -0.804981 -1.51359 0
M  V30 57 H -1.76486 -1.38515 -0.661608 0
M  V30 58 H -8.72179 0.293612 -1.11472 0
M  V30 59 H -8.7938 2.22879 -2.67534 0
M  V30 60 H -6.79505 3.54369 -3.1123 0
M  V30 61 H -4.70857 2.94188 -1.99813 0
M  V30 62 H -6.30956 0.80599 2.11855 0
M  V30 63 H -6.56916 -0.708319 2.78536 0
M  V30 END ATOM
M  V30 BEGIN BOND
M  V30 1 1 1 2
M  V30 2 1 2 3
M  V30 3 2 3 4
M  V30 4 1 3 5
M  V30 5 1 5 6
M  V30 6 1 6 7
M  V30 7 1 7 8
M  V30 8 2 8 9
M  V30 9 1 9 10
M  V30 10 1 8 11
M  V30 11 2 11 12
M  V30 12 1 12 13
M  V30 13 2 13 14
M  V30 14 1 14 15
M  V30 15 2 15 16
M  V30 16 1 15 17
M  V30 17 1 17 18
M  V30 18 2 17 19 CFG=2
M  V30 19 1 6 20
M  V30 20 2 20 21
M  V30 21 1 20 22
M  V30 22 1 22 23
M  V30 23 2 23 24
M  V30 24 1 24 25
M  V30 25 1 24 26
M  V30 26 2 26 27
M  V30 27 1 27 28
M  V30 28 2 28 29
M  V30 29 1 27 30
M  V30 30 2 30 31
M  V30 31 1 31 32
M  V30 32 2 32 33
M  V30 33 1 33 34
M  V30 34 2 34 35
M  V30 35 1 31 36
M  V30 36 1 36 37
M  V30 37 2 36 38
M  V30 38 2 36 39
M  V30 39 1 10 6
M  V30 40 1 16 11
M  V30 41 1 29 23
M  V30 42 1 35 30
M  V30 43 1 1 40
M  V30 44 1 1 41
M  V30 45 1 1 42
M  V30 46 1 5 43
M  V30 47 1 5 44
M  V30 48 1 7 45
M  V30 49 1 7 46
M  V30 50 1 12 47
M  V30 51 1 13 48
M  V30 52 1 14 49
M  V30 53 1 16 50
M  V30 54 1 18 51
M  V30 55 1 18 52
M  V30 56 1 19 53
M  V30 57 1 22 54
M  V30 58 1 26 55
M  V30 59 1 28 56
M  V30 60 1 29 57
M  V30 61 1 32 58
M  V30 62 1 33 59
M  V30 63 1 34 60
M  V30 64 1 35 61
M  V30 65 1 37 62
M  V30 66 1 37 63
M  V30 END BOND
M  V30 END CTAB
M  END
