
     RDKit          3D

  0  0  0  0  0  0  0  0  0  0999 V3000
M  V30 BEGIN CTAB
M  V30 COUNTS 34 34 0 0 0
M  V30 BEGIN ATOM
M  V30 1 C -3.7981 1.85892 0.48361 0
M  V30 2 C -2.53418 1.39117 -0.222665 0
M  V30 3 C -2.26585 -0.0157428 0.244429 0
M  V30 4 C -1.0306 -0.615184 -0.378453 0
M  V30 5 O -1.15643 -0.660425 -1.78654 0
M  V30 6 C -0.898076 -2.02326 0.0958036 0
M  V30 7 C 0.307888 -2.26994 0.956979 0
M  V30 8 C 1.52256 -1.85163 0.118532 0
M  V30 9 N 1.39456 -0.400995 -0.0188482 0
M  V30 10 C 0.133239 0.263285 -0.0498511 0
M  V30 11 C 2.58071 0.349074 -0.123117 0
M  V30 12 N 2.80427 1.42329 0.567372 0
M  V30 13 N 3.97752 2.14888 0.4518 0
M  V30 14 N 3.59048 -0.0784308 -1.02342 0
M  V30 15 H -4.25431 2.7037 -0.0620792 0
M  V30 16 H -4.46435 0.985535 0.568585 0
M  V30 17 H -3.50352 2.15048 1.52488 0
M  V30 18 H -2.77594 1.37759 -1.30381 0
M  V30 19 H -1.74225 2.09757 0.0426024 0
M  V30 20 H -3.14417 -0.638947 -0.021855 0
M  V30 21 H -2.14491 -0.0791844 1.34087 0
M  V30 22 H -1.33341 0.212142 -2.1681 0
M  V30 23 H -0.8374 -2.76421 -0.7518 0
M  V30 24 H -1.78988 -2.36185 0.688713 0
M  V30 25 H 0.363235 -3.34874 1.17109 0
M  V30 26 H 0.29843 -1.67846 1.88886 0
M  V30 27 H 2.46605 -2.15232 0.574711 0
M  V30 28 H 1.36993 -2.3404 -0.883106 0
M  V30 29 H -0.0719042 0.85266 0.890439 0
M  V30 30 H 0.193937 1.04637 -0.861326 0
M  V30 31 H 4.77993 1.95268 1.07153 0
M  V30 32 H 4.05842 2.89293 -0.256554 0
M  V30 33 H 3.58939 0.372414 -1.98065 0
M  V30 34 H 4.31471 -0.798963 -0.78862 0
M  V30 END ATOM
M  V30 BEGIN BOND
M  V30 1 1 1 2
M  V30 2 1 2 3
M  V30 3 1 3 4
M  V30 4 1 4 5
M  V30 5 1 4 6
M  V30 6 1 6 7
M  V30 7 1 7 8
M  V30 8 1 8 9
M  V30 9 1 9 10
M  V30 10 1 9 11
M  V30 11 2 11 12 CFG=2
M  V30 12 1 12 13
M  V30 13 1 11 14
M  V30 14 1 10 4
M  V30 15 1 1 15
M  V30 16 1 1 16
M  V30 17 1 1 17
M  V30 18 1 2 18
M  V30 19 1 2 19
M  V30 20 1 3 20
M  V30 21 1 3 21
M  V30 22 1 5 22
M  V30 23 1 6 23
M  V30 24 1 6 24
M  V30 25 1 7 25
M  V30 26 1 7 26
M  V30 27 1 8 27
M  V30 28 1 8 28
M  V30 29 1 10 29
M  V30 30 1 10 30
M  V30 31 1 13 31
M  V30 32 1 13 32
M  V30 33 1 14 33
M  V30 34 1 14 34
M  V30 END BOND
M  V30 END CTAB
M  END
