
     RDKit          3D

  0  0  0  0  0  0  0  0  0  0999 V3000
M  V30 BEGIN CTAB
M  V30 COUNTS 20 21 0 0 0
M  V30 BEGIN ATOM
M  V30 1 N 2.78916 -2.00319 -0.507303 0
M  V30 2 C 1.99006 -0.899706 -0.159475 0
M  V30 3 N 2.43349 0.244338 0.358875 0
M  V30 4 C 1.63145 1.268 0.673996 0
M  V30 5 N 2.1107 2.47568 1.22255 0
M  V30 6 N 0.322531 1.14261 0.460871 0
M  V30 7 C -0.180867 0.0161293 -0.0578005 0
M  V30 8 N 0.66372 -0.994708 -0.362451 0
M  V30 9 N -1.59064 -0.116822 -0.286483 0
M  V30 10 C -2.24565 0.456783 -1.3049 0
M  V30 11 N -3.55088 0.149071 -1.25156 0
M  V30 12 C -3.75704 -0.637313 -0.183944 0
M  V30 13 C -2.52109 -0.790435 0.403689 0
M  V30 14 H 3.24985 -2.0215 -1.43443 0
M  V30 15 H 2.8895 -2.77057 0.188532 0
M  V30 16 H 2.69192 3.11201 0.65729 0
M  V30 17 H 1.88092 2.72843 2.19522 0
M  V30 18 H -1.77412 1.07707 -2.05509 0
M  V30 19 H -4.71642 -1.06826 0.149237 0
M  V30 20 H -2.3166 -1.36761 1.29317 0
M  V30 END ATOM
M  V30 BEGIN BOND
M  V30 1 1 1 2
M  V30 2 2 2 3
M  V30 3 1 3 4
M  V30 4 1 4 5
M  V30 5 2 4 6
M  V30 6 1 6 7
M  V30 7 2 7 8
M  V30 8 1 7 9
M  V30 9 1 9 10
M  V30 10 2 10 11
M  V30 11 1 11 12
M  V30 12 2 12 13
M  V30 13 1 8 2
M  V30 14 1 13 9
M  V30 15 1 1 14
M  V30 16 1 1 15
M  V30 17 1 5 16
M  V30 18 1 5 17
M  V30 19 1 10 18
M  V30 20 1 12 19
M  V30 21 1 13 20
M  V30 END BOND
M  V30 END CTAB
M  END
