
     RDKit          3D

  0  0  0  0  0  0  0  0  0  0999 V3000
M  V30 BEGIN CTAB
M  V30 COUNTS 38 39 0 0 0
M  V30 BEGIN ATOM
M  V30 1 N -3.28705 0.98216 1.87196 0
M  V30 2 C -3.74818 -0.0649914 0.994594 0
M  V30 3 C -2.83404 -0.187902 -0.193792 0
M  V30 4 C -3.26058 -1.26045 -1.14362 0
M  V30 5 C -2.71613 1.10956 -0.964045 0
M  V30 6 C -1.46192 0.771683 -1.78452 0
M  V30 7 N -0.553735 0.236995 -0.742602 0
M  V30 8 C -1.3709 -0.365496 0.256591 0
M  V30 9 C 0.831431 0.364125 -0.840336 0
M  V30 10 O 1.27889 0.981323 -1.90909 0
M  V30 11 C 1.88379 -0.0673217 0.036208 0
M  V30 12 C 1.66119 -0.726955 1.21584 0
M  V30 13 C 2.71085 -1.13359 2.05131 0
M  V30 14 F 2.47671 -1.78394 3.21277 0
M  V30 15 C 4.01679 -0.883743 1.71612 0
M  V30 16 C 4.239 -0.219016 0.527391 0
M  V30 17 C 3.22299 0.181909 -0.294734 0
M  V30 18 N 3.57152 0.865967 -1.5072 0
M  V30 19 N 5.58845 0.0639669 0.136616 0 CHG=1
M  V30 20 O 6.43067 0.189398 1.03743 0
M  V30 21 O 5.86982 0.179207 -1.18546 0 CHG=-1
M  V30 22 H -3.46998 0.687778 2.8475 0
M  V30 23 H -3.75906 1.87673 1.65642 0
M  V30 24 H -4.74463 0.230197 0.599594 0
M  V30 25 H -3.83787 -1.03625 1.48147 0
M  V30 26 H -2.47154 -1.99377 -1.29868 0
M  V30 27 H -4.18603 -1.73279 -0.718544 0
M  V30 28 H -3.59972 -0.835781 -2.12917 0
M  V30 29 H -3.5634 1.30252 -1.61866 0
M  V30 30 H -2.49788 1.91377 -0.233719 0
M  V30 31 H -1.06551 1.66729 -2.25067 0
M  V30 32 H -1.73628 -0.0490164 -2.45296 0
M  V30 33 H -1.33025 0.159095 1.24091 0
M  V30 34 H -1.23148 -1.46344 0.353816 0
M  V30 35 H 0.693495 -0.981743 1.59319 0
M  V30 36 H 4.85115 -1.19237 2.35367 0
M  V30 37 H 3.71794 0.331847 -2.3891 0
M  V30 38 H 3.68148 1.88308 -1.52651 0
M  V30 END ATOM
M  V30 BEGIN BOND
M  V30 1 1 1 2
M  V30 2 1 2 3
M  V30 3 1 3 4
M  V30 4 1 3 5
M  V30 5 1 5 6
M  V30 6 1 6 7
M  V30 7 1 7 8
M  V30 8 1 7 9
M  V30 9 2 9 10
M  V30 10 1 9 11
M  V30 11 2 11 12
M  V30 12 1 12 13
M  V30 13 1 13 14
M  V30 14 2 13 15
M  V30 15 1 15 16
M  V30 16 2 16 17
M  V30 17 1 17 18
M  V30 18 1 16 19
M  V30 19 2 19 20
M  V30 20 1 19 21
M  V30 21 1 8 3
M  V30 22 1 17 11
M  V30 23 1 1 22
M  V30 24 1 1 23
M  V30 25 1 2 24
M  V30 26 1 2 25
M  V30 27 1 4 26
M  V30 28 1 4 27
M  V30 29 1 4 28
M  V30 30 1 5 29
M  V30 31 1 5 30
M  V30 32 1 6 31
M  V30 33 1 6 32
M  V30 34 1 8 33
M  V30 35 1 8 34
M  V30 36 1 12 35
M  V30 37 1 15 36
M  V30 38 1 18 37
M  V30 39 1 18 38
M  V30 END BOND
M  V30 END CTAB
M  END
