
     RDKit          3D

  0  0  0  0  0  0  0  0  0  0999 V3000
M  V30 BEGIN CTAB
M  V30 COUNTS 22 21 0 0 0
M  V30 BEGIN ATOM
M  V30 1 N 3.39197 0.000845407 -0.296859 0
M  V30 2 C 2.35744 0.965614 0.0512112 0
M  V30 3 C 1.11366 0.187793 0.298596 0
M  V30 4 C -0.00663517 0.359479 -0.39902 0
M  V30 5 C -1.2165 -0.465056 -0.0867209 0
M  V30 6 N -0.740896 -1.77073 0.310776 0
M  V30 7 C -2.10392 -0.620479 -1.28634 0
M  V30 8 F -3.18434 -1.38477 -0.918512 0
M  V30 9 F -2.57818 0.593477 -1.74078 0
M  V30 10 C -2.01141 0.175328 0.992603 0
M  V30 11 O -2.5309 1.43637 0.744652 0
M  V30 12 O -2.21623 -0.385544 2.09202 0
M  V30 13 H 4.22069 0.455357 -0.73189 0
M  V30 14 H 3.63132 -0.608801 0.508238 0
M  V30 15 H 2.22219 1.67453 -0.763928 0
M  V30 16 H 2.61794 1.47972 1.01326 0
M  V30 17 H 1.1153 -0.55298 1.08106 0
M  V30 18 H 0.0111347 1.10986 -1.18262 0
M  V30 19 H 0.112195 -1.96846 -0.265669 0
M  V30 20 H -0.544494 -1.73242 1.32455 0
M  V30 21 H -1.58369 -1.09566 -2.13974 0
M  V30 22 H -2.07664 2.14652 0.202394 0
M  V30 END ATOM
M  V30 BEGIN BOND
M  V30 1 1 1 2
M  V30 2 1 2 3
M  V30 3 2 3 4
M  V30 4 1 4 5
M  V30 5 1 5 6
M  V30 6 1 5 7
M  V30 7 1 7 8
M  V30 8 1 7 9
M  V30 9 1 5 10
M  V30 10 1 10 11
M  V30 11 2 10 12
M  V30 12 1 1 13
M  V30 13 1 1 14
M  V30 14 1 2 15
M  V30 15 1 2 16
M  V30 16 1 3 17
M  V30 17 1 4 18
M  V30 18 1 6 19
M  V30 19 1 6 20
M  V30 20 1 7 21
M  V30 21 1 11 22
M  V30 END BOND
M  V30 END CTAB
M  END
