
     RDKit          3D

  0  0  0  0  0  0  0  0  0  0999 V3000
M  V30 BEGIN CTAB
M  V30 COUNTS 24 24 0 0 0
M  V30 BEGIN ATOM
M  V30 1 C 3.47026 -1.12425 0.292752 0
M  V30 2 C 2.04689 -0.714769 0.255328 0
M  V30 3 C 1.71085 0.612598 0.258242 0
M  V30 4 C 0.38647 1.06329 0.224082 0
M  V30 5 C 0.0769734 2.49193 0.228739 0
M  V30 6 C -0.61062 0.108643 0.186007 0
M  V30 7 C -0.229604 -1.22423 0.184355 0
M  V30 8 N 1.07821 -1.61303 0.218622 0
M  V30 9 N -1.23183 -2.22301 0.145973 0
M  V30 10 C -2.02012 0.441908 0.148249 0
M  V30 11 N -2.47544 1.6447 0.146588 0
M  V30 12 N -2.99603 -0.594706 0.109634 0
M  V30 13 H 3.60535 -2.08452 0.841517 0
M  V30 14 H 4.04962 -0.292994 0.78824 0
M  V30 15 H 3.80534 -1.29394 -0.735023 0
M  V30 16 H 2.49383 1.37185 0.288234 0
M  V30 17 H -0.399196 2.88214 -0.69082 0
M  V30 18 H 1.06639 3.04654 0.263878 0
M  V30 19 H -0.423388 2.78201 1.16963 0
M  V30 20 H -1.58713 -2.59133 -0.751832 0
M  V30 21 H -1.60529 -2.58337 1.04053 0
M  V30 22 H -3.49053 1.85653 0.119124 0
M  V30 23 H -3.29192 -0.918151 -0.836428 0
M  V30 24 H -3.42907 -1.04384 0.93316 0
M  V30 END ATOM
M  V30 BEGIN BOND
M  V30 1 1 1 2
M  V30 2 2 2 3
M  V30 3 1 3 4
M  V30 4 1 4 5
M  V30 5 2 4 6
M  V30 6 1 6 7
M  V30 7 2 7 8
M  V30 8 1 7 9
M  V30 9 1 6 10
M  V30 10 2 10 11 CFG=2
M  V30 11 1 10 12
M  V30 12 1 8 2
M  V30 13 1 1 13
M  V30 14 1 1 14
M  V30 15 1 1 15
M  V30 16 1 3 16
M  V30 17 1 5 17
M  V30 18 1 5 18
M  V30 19 1 5 19
M  V30 20 1 9 20
M  V30 21 1 9 21
M  V30 22 1 11 22
M  V30 23 1 12 23
M  V30 24 1 12 24
M  V30 END BOND
M  V30 END CTAB
M  END
