
     RDKit          3D

  0  0  0  0  0  0  0  0  0  0999 V3000
M  V30 BEGIN CTAB
M  V30 COUNTS 29 29 0 0 0
M  V30 BEGIN ATOM
M  V30 1 N -0.85894 2.45459 -0.971653 0
M  V30 2 C -1.0405 1.9439 0.384699 0
M  V30 3 C -0.882424 0.450122 0.457282 0
M  V30 4 C -1.96126 -0.134144 -0.470609 0
M  V30 5 C -2.05693 -1.58521 -0.115062 0
M  V30 6 C -0.744251 -2.29561 -0.30388 0
M  V30 7 C 0.434037 -1.57454 0.227377 0
M  V30 8 C 0.409001 -0.0684492 -0.048557 0
M  V30 9 C 1.61956 0.480541 0.563507 0
M  V30 10 O 1.64098 1.33831 1.47764 0
M  V30 11 N 2.87441 0.0124723 0.0935008 0
M  V30 12 N 4.08187 0.48782 0.62728 0
M  V30 13 H -1.64304 2.00967 -1.53557 0
M  V30 14 H -1.14893 3.47748 -0.912276 0
M  V30 15 H -2.13382 2.1409 0.608409 0
M  V30 16 H -0.491205 2.50617 1.14118 0
M  V30 17 H -1.13534 0.132953 1.47252 0
M  V30 18 H -2.92164 0.364804 -0.350597 0
M  V30 19 H -1.54809 -0.0796942 -1.51087 0
M  V30 20 H -2.79698 -2.09169 -0.789745 0
M  V30 21 H -2.45038 -1.70033 0.907057 0
M  V30 22 H -0.834903 -3.2621 0.274877 0
M  V30 23 H -0.57329 -2.59827 -1.35116 0
M  V30 24 H 0.592706 -1.70424 1.31927 0
M  V30 25 H 1.35037 -1.9731 -0.270293 0
M  V30 26 H 0.469357 0.113357 -1.14856 0
M  V30 27 H 2.94534 -0.699424 -0.663158 0
M  V30 28 H 3.93855 1.47757 0.929479 0
M  V30 29 H 4.86574 0.376168 -0.0420804 0
M  V30 END ATOM
M  V30 BEGIN BOND
M  V30 1 1 1 2
M  V30 2 1 2 3
M  V30 3 1 3 4
M  V30 4 1 4 5
M  V30 5 1 5 6
M  V30 6 1 6 7
M  V30 7 1 7 8
M  V30 8 1 8 9
M  V30 9 2 9 10
M  V30 10 1 9 11
M  V30 11 1 11 12
M  V30 12 1 8 3
M  V30 13 1 1 13
M  V30 14 1 1 14
M  V30 15 1 2 15
M  V30 16 1 2 16
M  V30 17 1 3 17
M  V30 18 1 4 18
M  V30 19 1 4 19
M  V30 20 1 5 20
M  V30 21 1 5 21
M  V30 22 1 6 22
M  V30 23 1 6 23
M  V30 24 1 7 24
M  V30 25 1 7 25
M  V30 26 1 8 26
M  V30 27 1 11 27
M  V30 28 1 12 28
M  V30 29 1 12 29
M  V30 END BOND
M  V30 END CTAB
M  END
