
     RDKit          3D

  0  0  0  0  0  0  0  0  0  0999 V3000
M  V30 BEGIN CTAB
M  V30 COUNTS 25 25 0 0 0
M  V30 BEGIN ATOM
M  V30 1 C -3.46922 1.00315 1.14899 0
M  V30 2 C -3.1657 -0.180077 0.294883 0
M  V30 3 C -1.70674 -0.572269 0.318943 0
M  V30 4 S -0.634354 0.747275 -0.264094 0
M  V30 5 C 1.07048 0.177064 -0.194022 0
M  V30 6 N 2.04445 1.01542 -0.589163 0
M  V30 7 C 3.33954 0.656108 -0.563551 0
M  V30 8 N 4.37676 1.5555 -0.986828 0
M  V30 9 C 3.63326 -0.614414 -0.113264 0
M  V30 10 C 2.63671 -1.47657 0.292665 0
M  V30 11 O 2.90192 -2.63549 0.703619 0
M  V30 12 N 1.3534 -1.07132 0.248896 0
M  V30 13 N -3.50991 0.0422198 -1.11304 0
M  V30 14 H -4.29678 1.62459 0.728369 0
M  V30 15 H -2.58411 1.66396 1.32464 0
M  V30 16 H -3.81644 0.67855 2.15123 0
M  V30 17 H -3.76517 -1.05822 0.609883 0
M  V30 18 H -1.54995 -1.4454 -0.347907 0
M  V30 19 H -1.39484 -0.909354 1.34226 0
M  V30 20 H 5.1156 1.15952 -1.5995 0
M  V30 21 H 4.43205 2.54819 -0.725821 0
M  V30 22 H 4.68211 -0.916052 -0.0885369 0
M  V30 23 H 0.551018 -1.66539 0.538313 0
M  V30 24 H -2.76593 0.59337 -1.5626 0
M  V30 25 H -3.47814 -0.920373 -1.55437 0
M  V30 END ATOM
M  V30 BEGIN BOND
M  V30 1 1 1 2
M  V30 2 1 2 3
M  V30 3 1 3 4
M  V30 4 1 4 5
M  V30 5 2 5 6
M  V30 6 1 6 7
M  V30 7 1 7 8
M  V30 8 2 7 9
M  V30 9 1 9 10
M  V30 10 2 10 11
M  V30 11 1 10 12
M  V30 12 1 2 13
M  V30 13 1 12 5
M  V30 14 1 1 14
M  V30 15 1 1 15
M  V30 16 1 1 16
M  V30 17 1 2 17
M  V30 18 1 3 18
M  V30 19 1 3 19
M  V30 20 1 8 20
M  V30 21 1 8 21
M  V30 22 1 9 22
M  V30 23 1 12 23
M  V30 24 1 13 24
M  V30 25 1 13 25
M  V30 END BOND
M  V30 END CTAB
M  END
