
     RDKit          3D

  0  0  0  0  0  0  0  0  0  0999 V3000
M  V30 BEGIN CTAB
M  V30 COUNTS 23 23 0 0 0
M  V30 BEGIN ATOM
M  V30 1 N 2.99639 1.18052 -0.994658 0
M  V30 2 C 1.87608 0.458108 -0.4447 0
M  V30 3 N 0.679573 0.739574 -0.800507 0
M  V30 4 C -0.435459 0.0216587 -0.254135 0
M  V30 5 C -0.283602 -1.46643 -0.428845 0
M  V30 6 C -1.73799 0.425167 -0.909827 0
M  V30 7 C -2.70866 0.296132 0.209264 0
M  V30 8 C -2.111 0.286761 1.39027 0
M  V30 9 C -0.618236 0.412548 1.19469 0
M  V30 10 N 2.21491 -0.559242 0.496003 0
M  V30 11 H 3.71582 1.49228 -0.337544 0
M  V30 12 H 3.0043 1.3415 -2.03354 0
M  V30 13 H -1.23711 -1.93506 -0.744077 0
M  V30 14 H 0.447304 -1.62237 -1.25174 0
M  V30 15 H 0.0545695 -1.99151 0.466252 0
M  V30 16 H -2.01479 -0.313036 -1.69044 0
M  V30 17 H -1.72765 1.46672 -1.2775 0
M  V30 18 H -3.80787 0.213738 0.134678 0
M  V30 19 H -2.58342 0.203731 2.36344 0
M  V30 20 H -0.0696783 -0.221653 1.89685 0
M  V30 21 H -0.339455 1.46884 1.3334 0
M  V30 22 H 2.3894 -1.53431 0.154758 0
M  V30 23 H 2.29657 -0.363675 1.52789 0
M  V30 END ATOM
M  V30 BEGIN BOND
M  V30 1 1 1 2
M  V30 2 2 2 3 CFG=2
M  V30 3 1 3 4
M  V30 4 1 4 5
M  V30 5 1 4 6
M  V30 6 1 6 7
M  V30 7 2 7 8
M  V30 8 1 8 9
M  V30 9 1 2 10
M  V30 10 1 9 4
M  V30 11 1 1 11
M  V30 12 1 1 12
M  V30 13 1 5 13
M  V30 14 1 5 14
M  V30 15 1 5 15
M  V30 16 1 6 16
M  V30 17 1 6 17
M  V30 18 1 7 18
M  V30 19 1 8 19
M  V30 20 1 9 20
M  V30 21 1 9 21
M  V30 22 1 10 22
M  V30 23 1 10 23
M  V30 END BOND
M  V30 END CTAB
M  END
