
     RDKit          3D

  0  0  0  0  0  0  0  0  0  0999 V3000
M  V30 BEGIN CTAB
M  V30 COUNTS 35 35 0 0 0
M  V30 BEGIN ATOM
M  V30 1 N 4.52662 -1.65704 -1.22688 0
M  V30 2 C 4.28218 -2.03593 0.149454 0
M  V30 3 C 3.43651 -1.02212 0.883949 0
M  V30 4 C 2.10018 -0.86311 0.225452 0
M  V30 5 O 1.89499 -1.55463 -0.78245 0
M  V30 6 N 1.16658 0.0175773 0.740337 0
M  V30 7 C -0.139831 0.324824 0.289381 0
M  V30 8 C -0.75777 -0.227055 -0.803985 0
M  V30 9 C -2.05866 0.116153 -1.20502 0
M  V30 10 C -2.75517 1.04627 -0.477166 0
M  V30 11 C -2.17766 1.62891 0.6291 0
M  V30 12 C -0.905982 1.27125 0.993139 0
M  V30 13 C -0.30058 1.90742 2.18481 0
M  V30 14 C -2.91496 2.64038 1.4335 0
M  V30 15 S -2.77356 -0.629778 -2.60562 0
M  V30 16 O -1.72069 -0.923352 -3.66456 0
M  V30 17 O -3.77702 0.296177 -3.25998 0
M  V30 18 N -3.62981 -2.07242 -2.19371 0
M  V30 19 H 4.12913 -0.718844 -1.45327 0
M  V30 20 H 5.55256 -1.69227 -1.46253 0
M  V30 21 H 3.64376 -2.96601 0.0893264 0
M  V30 22 H 5.17013 -2.32558 0.706164 0
M  V30 23 H 3.32353 -1.40135 1.92398 0
M  V30 24 H 3.90581 -0.0250014 0.891281 0
M  V30 25 H 1.49306 0.550073 1.62491 0
M  V30 26 H -0.220442 -0.958937 -1.38353 0
M  V30 27 H -3.75636 1.35386 -0.730927 0
M  V30 28 H -0.943832 2.73766 2.53996 0
M  V30 29 H 0.681423 2.39411 1.9329 0
M  V30 30 H -0.202762 1.20509 3.03639 0
M  V30 31 H -3.96249 2.68698 1.08454 0
M  V30 32 H -2.95697 2.3331 2.50385 0
M  V30 33 H -2.48919 3.65631 1.32897 0
M  V30 34 H -3.59213 -2.25818 -1.1653 0
M  V30 35 H -3.27058 -2.83455 -2.77647 0
M  V30 END ATOM
M  V30 BEGIN BOND
M  V30 1 1 1 2
M  V30 2 1 2 3
M  V30 3 1 3 4
M  V30 4 2 4 5
M  V30 5 1 4 6
M  V30 6 1 6 7
M  V30 7 2 7 8
M  V30 8 1 8 9
M  V30 9 2 9 10
M  V30 10 1 10 11
M  V30 11 2 11 12
M  V30 12 1 12 13
M  V30 13 1 11 14
M  V30 14 1 9 15
M  V30 15 2 15 16
M  V30 16 2 15 17
M  V30 17 1 15 18
M  V30 18 1 12 7
M  V30 19 1 1 19
M  V30 20 1 1 20
M  V30 21 1 2 21
M  V30 22 1 2 22
M  V30 23 1 3 23
M  V30 24 1 3 24
M  V30 25 1 6 25
M  V30 26 1 8 26
M  V30 27 1 10 27
M  V30 28 1 13 28
M  V30 29 1 13 29
M  V30 30 1 13 30
M  V30 31 1 14 31
M  V30 32 1 14 32
M  V30 33 1 14 33
M  V30 34 1 18 34
M  V30 35 1 18 35
M  V30 END BOND
M  V30 END CTAB
M  END
