
     RDKit          3D

  0  0  0  0  0  0  0  0  0  0999 V3000
M  V30 BEGIN CTAB
M  V30 COUNTS 29 29 0 0 0
M  V30 BEGIN ATOM
M  V30 1 N 2.51604 1.39797 -0.639576 0
M  V30 2 C 2.24047 0.631567 0.557362 0
M  V30 3 C 0.999943 -0.216457 0.375095 0
M  V30 4 N 0.712393 -0.977098 1.5404 0
M  V30 5 C 1.14224 -1.17768 -0.789104 0
M  V30 6 C -0.273752 -1.32221 -1.36303 0
M  V30 7 O -1.22834 -1.29608 -0.373375 0
M  V30 8 C -1.48248 0.0172087 0.06042 0
M  V30 9 C -0.171539 0.729092 0.12343 0
M  V30 10 C -2.23053 0.0228333 1.36975 0
M  V30 11 C -2.44525 0.66468 -0.944504 0
M  V30 12 H 3.11625 0.806561 -1.28342 0
M  V30 13 H 3.1772 2.17359 -0.332443 0
M  V30 14 H 3.12706 0.0228705 0.789894 0
M  V30 15 H 1.99901 1.3658 1.36052 0
M  V30 16 H 0.764836 -0.495552 2.43338 0
M  V30 17 H 0.946269 -1.96692 1.51671 0
M  V30 18 H 1.53418 -2.16341 -0.485791 0
M  V30 19 H 1.81163 -0.787567 -1.58158 0
M  V30 20 H -0.366571 -0.467025 -2.08858 0
M  V30 21 H -0.287256 -2.26872 -1.90914 0
M  V30 22 H 0.0053667 1.21586 -0.853174 0
M  V30 23 H -0.117233 1.51778 0.898789 0
M  V30 24 H -2.74162 1.02909 1.42948 0
M  V30 25 H -2.99675 -0.791477 1.30359 0
M  V30 26 H -1.60057 -0.0471265 2.25142 0
M  V30 27 H -2.19815 0.423722 -1.97471 0
M  V30 28 H -3.46283 0.238174 -0.701872 0
M  V30 29 H -2.49001 1.72053 -0.689944 0
M  V30 END ATOM
M  V30 BEGIN BOND
M  V30 1 1 1 2
M  V30 2 1 2 3
M  V30 3 1 3 4
M  V30 4 1 3 5
M  V30 5 1 5 6
M  V30 6 1 6 7
M  V30 7 1 7 8
M  V30 8 1 8 9
M  V30 9 1 8 10
M  V30 10 1 8 11
M  V30 11 1 9 3
M  V30 12 1 1 12
M  V30 13 1 1 13
M  V30 14 1 2 14
M  V30 15 1 2 15
M  V30 16 1 4 16
M  V30 17 1 4 17
M  V30 18 1 5 18
M  V30 19 1 5 19
M  V30 20 1 6 20
M  V30 21 1 6 21
M  V30 22 1 9 22
M  V30 23 1 9 23
M  V30 24 1 10 24
M  V30 25 1 10 25
M  V30 26 1 10 26
M  V30 27 1 11 27
M  V30 28 1 11 28
M  V30 29 1 11 29
M  V30 END BOND
M  V30 END CTAB
M  END
