
     RDKit          3D

  0  0  0  0  0  0  0  0  0  0999 V3000
M  V30 BEGIN CTAB
M  V30 COUNTS 20 21 0 0 0
M  V30 BEGIN ATOM
M  V30 1 N -3.77762 -1.41764 0.400566 0
M  V30 2 C -2.59049 -0.638715 0.300426 0
M  V30 3 N -1.35557 -1.0789 0.0880319 0
M  V30 4 N -0.529453 -0.0466365 0.0607581 0
M  V30 5 C -1.25511 1.04758 0.257865 0
M  V30 6 N -2.51893 0.694896 0.405731 0
M  V30 7 N -0.751869 2.3866 0.302703 0
M  V30 8 C 0.882165 -0.181184 -0.15012 0
M  V30 9 C 1.59321 0.716587 -0.910856 0
M  V30 10 N 2.90689 0.532625 -1.06729 0
M  V30 11 C 3.56294 -0.495843 -0.510535 0
M  V30 12 C 2.86309 -1.39952 0.251808 0
M  V30 13 N 1.54741 -1.20947 0.404545 0
M  V30 14 H -4.71059 -0.996466 0.283509 0
M  V30 15 H -3.72551 -2.4364 0.595645 0
M  V30 16 H -1.34717 3.16428 -0.0824278 0
M  V30 17 H 0.160905 2.63841 0.690141 0
M  V30 18 H 1.05447 1.55042 -1.36079 0
M  V30 19 H 4.64649 -0.595813 -0.674656 0
M  V30 20 H 3.34473 -2.23481 0.714947 0
M  V30 END ATOM
M  V30 BEGIN BOND
M  V30 1 1 1 2
M  V30 2 2 2 3
M  V30 3 1 3 4
M  V30 4 1 4 5
M  V30 5 2 5 6
M  V30 6 1 5 7
M  V30 7 1 4 8
M  V30 8 2 8 9
M  V30 9 1 9 10
M  V30 10 2 10 11
M  V30 11 1 11 12
M  V30 12 2 12 13
M  V30 13 1 6 2
M  V30 14 1 13 8
M  V30 15 1 1 14
M  V30 16 1 1 15
M  V30 17 1 7 16
M  V30 18 1 7 17
M  V30 19 1 9 18
M  V30 20 1 11 19
M  V30 21 1 12 20
M  V30 END BOND
M  V30 END CTAB
M  END
