
     RDKit          3D

  0  0  0  0  0  0  0  0  0  0999 V3000
M  V30 BEGIN CTAB
M  V30 COUNTS 25 25 0 0 0
M  V30 BEGIN ATOM
M  V30 1 N -0.0167674 -2.03017 -0.99481 0
M  V30 2 C 0.611495 -0.835188 -0.389349 0
M  V30 3 C -0.542496 0.0196685 0.0155089 0
M  V30 4 C -0.920199 1.11836 -0.687676 0
M  V30 5 N -1.97996 1.85647 -0.296134 0
M  V30 6 C -2.64352 1.47083 0.804522 0
M  V30 7 C -2.30164 0.366809 1.55143 0
M  V30 8 C -1.2163 -0.398565 1.15976 0
M  V30 9 N -0.820407 -1.5452 1.89502 0
M  V30 10 C 1.42886 -0.206431 -1.48475 0
M  V30 11 C 2.17495 1.00572 -1.07783 0
M  V30 12 C 2.2446 1.52331 0.123771 0
M  V30 13 H 0.36637 -2.88931 -0.573115 0
M  V30 14 H 0.1694 -2.03558 -2.00449 0
M  V30 15 H 1.2523 -1.09827 0.458248 0
M  V30 16 H -0.410928 1.44455 -1.56453 0
M  V30 17 H -3.48987 2.05229 1.1257 0
M  V30 18 H -2.85688 0.0705558 2.44553 0
M  V30 19 H -1.11849 -2.49165 1.58811 0
M  V30 20 H -0.230825 -1.48652 2.74957 0
M  V30 21 H 0.813747 0.0425525 -2.36775 0
M  V30 22 H 2.21327 -0.937121 -1.83889 0
M  V30 23 H 2.72317 1.51476 -1.8809 0
M  V30 24 H 2.81819 2.40959 0.301922 0
M  V30 25 H 1.73193 1.05853 0.94112 0
M  V30 END ATOM
M  V30 BEGIN BOND
M  V30 1 1 1 2
M  V30 2 1 2 3
M  V30 3 2 3 4
M  V30 4 1 4 5
M  V30 5 2 5 6
M  V30 6 1 6 7
M  V30 7 2 7 8
M  V30 8 1 8 9
M  V30 9 1 2 10
M  V30 10 1 10 11
M  V30 11 2 11 12 CFG=2
M  V30 12 1 8 3
M  V30 13 1 1 13
M  V30 14 1 1 14
M  V30 15 1 2 15
M  V30 16 1 4 16
M  V30 17 1 6 17
M  V30 18 1 7 18
M  V30 19 1 9 19
M  V30 20 1 9 20
M  V30 21 1 10 21
M  V30 22 1 10 22
M  V30 23 1 11 23
M  V30 24 1 12 24
M  V30 25 1 12 25
M  V30 END BOND
M  V30 END CTAB
M  END
