
     RDKit          3D

  0  0  0  0  0  0  0  0  0  0999 V3000
M  V30 BEGIN CTAB
M  V30 COUNTS 49 52 0 0 0
M  V30 BEGIN ATOM
M  V30 1 N 4.30389 0.101991 -2.10096 0
M  V30 2 N 4.12694 -0.31696 -0.804952 0
M  V30 3 C 3.03745 -1.03258 -0.396253 0
M  V30 4 S 1.66398 -1.56278 -1.42717 0
M  V30 5 C 0.494868 -2.47177 -0.388649 0
M  V30 6 C -0.098133 -1.47443 0.589641 0
M  V30 7 C -1.07648 -2.25341 1.45803 0
M  V30 8 S -2.32519 -2.95208 0.343767 0
M  V30 9 C -3.25015 -1.59876 -0.351961 0
M  V30 10 N -3.01452 -0.89268 -1.46494 0
M  V30 11 N -3.95733 0.016052 -1.60382 0
M  V30 12 C -4.85054 -0.0745882 -0.565178 0
M  V30 13 N -4.39399 -1.06922 0.184539 0
M  V30 14 N -4.9318 -1.56878 1.36301 0
M  V30 15 C -6.01544 0.788013 -0.414178 0
M  V30 16 C -6.92683 0.692316 0.60875 0
M  V30 17 C -8.01764 1.53296 0.716928 0
M  V30 18 C -8.21418 2.50621 -0.223828 0
M  V30 19 C -7.30411 2.60711 -1.25149 0
M  V30 20 C -6.21584 1.78521 -1.37919 0
M  V30 21 N 3.22441 -1.24748 0.909647 0
M  V30 22 N 4.36105 -0.694719 1.27144 0
M  V30 23 C 4.96271 -0.0941705 0.208509 0
M  V30 24 C 6.23549 0.592353 0.316851 0
M  V30 25 C 6.87464 1.21902 -0.723184 0
M  V30 26 C 8.11111 1.86569 -0.558485 0
M  V30 27 C 8.73438 1.89518 0.665357 0
M  V30 28 C 8.10691 1.27098 1.72167 0
M  V30 29 C 6.89568 0.641712 1.54431 0
M  V30 30 H 4.97276 -0.37352 -2.72586 0
M  V30 31 H 3.75622 0.909344 -2.45753 0
M  V30 32 H -0.268977 -2.99578 -0.969788 0
M  V30 33 H 1.08441 -3.2601 0.155104 0
M  V30 34 H -0.653487 -0.732767 -0.0546022 0
M  V30 35 H 0.662631 -0.937791 1.15084 0
M  V30 36 H -0.477961 -3.03714 1.96641 0
M  V30 37 H -1.5117 -1.52179 2.15876 0
M  V30 38 H -4.51762 -1.30146 2.26755 0
M  V30 39 H -5.74124 -2.20367 1.33554 0
M  V30 40 H -6.82423 -0.0623026 1.38529 0
M  V30 41 H -8.68678 1.39831 1.54268 0
M  V30 42 H -9.0758 3.18416 -0.154368 0
M  V30 43 H -7.49204 3.3915 -1.97961 0
M  V30 44 H -5.52768 1.90116 -2.2026 0
M  V30 45 H 6.43848 1.23007 -1.70153 0
M  V30 46 H 8.59167 2.35015 -1.39218 0
M  V30 47 H 9.69241 2.38809 0.822275 0
M  V30 48 H 8.61761 1.30866 2.67147 0
M  V30 49 H 6.41999 0.154454 2.39797 0
M  V30 END ATOM
M  V30 BEGIN BOND
M  V30 1 1 1 2
M  V30 2 1 2 3
M  V30 3 1 3 4
M  V30 4 1 4 5
M  V30 5 1 5 6
M  V30 6 1 6 7
M  V30 7 1 7 8
M  V30 8 1 8 9
M  V30 9 2 9 10
M  V30 10 1 10 11
M  V30 11 2 11 12
M  V30 12 1 12 13
M  V30 13 1 13 14
M  V30 14 1 12 15
M  V30 15 2 15 16
M  V30 16 1 16 17
M  V30 17 2 17 18
M  V30 18 1 18 19
M  V30 19 2 19 20
M  V30 20 2 3 21
M  V30 21 1 21 22
M  V30 22 2 22 23
M  V30 23 1 23 24
M  V30 24 2 24 25
M  V30 25 1 25 26
M  V30 26 2 26 27
M  V30 27 1 27 28
M  V30 28 2 28 29
M  V30 29 1 23 2
M  V30 30 1 29 24
M  V30 31 1 13 9
M  V30 32 1 20 15
M  V30 33 1 1 30
M  V30 34 1 1 31
M  V30 35 1 5 32
M  V30 36 1 5 33
M  V30 37 1 6 34
M  V30 38 1 6 35
M  V30 39 1 7 36
M  V30 40 1 7 37
M  V30 41 1 14 38
M  V30 42 1 14 39
M  V30 43 1 16 40
M  V30 44 1 17 41
M  V30 45 1 18 42
M  V30 46 1 19 43
M  V30 47 1 20 44
M  V30 48 1 25 45
M  V30 49 1 26 46
M  V30 50 1 27 47
M  V30 51 1 28 48
M  V30 52 1 29 49
M  V30 END BOND
M  V30 END CTAB
M  END
