
     RDKit          3D

  0  0  0  0  0  0  0  0  0  0999 V3000
M  V30 BEGIN CTAB
M  V30 COUNTS 24 23 0 0 0
M  V30 BEGIN ATOM
M  V30 1 N -3.13236 -1.72119 -0.741048 0
M  V30 2 C -1.73655 -1.74446 -0.305296 0
M  V30 3 C -1.24555 -0.319159 -0.317281 0
M  V30 4 N 0.122015 -0.19363 0.0925511 0
M  V30 5 C 1.10681 0.412988 -0.733085 0
M  V30 6 O 0.795255 0.862292 -1.864 0
M  V30 7 C 2.47443 0.537518 -0.321083 0
M  V30 8 C 3.62227 0.644787 0.0460541 0
M  V30 9 C 5.01712 0.760223 0.512885 0
M  V30 10 C -2.09216 0.448525 0.686637 0
M  V30 11 N -1.68208 1.83602 0.73672 0
M  V30 12 H -3.50441 -2.68783 -0.778079 0
M  V30 13 H -3.1467 -1.27372 -1.68719 0
M  V30 14 H -1.09548 -2.32862 -0.973567 0
M  V30 15 H -1.66586 -2.11629 0.745101 0
M  V30 16 H -1.34246 0.126374 -1.33321 0
M  V30 17 H 0.393818 -0.5632 1.03051 0
M  V30 18 H 5.65805 -0.0206483 0.0443196 0
M  V30 19 H 5.01541 0.582882 1.62711 0
M  V30 20 H 5.36751 1.78124 0.271823 0
M  V30 21 H -1.90111 -0.00945449 1.66949 0
M  V30 22 H -3.14987 0.331971 0.452065 0
M  V30 23 H -1.90677 2.34926 -0.125234 0
M  V30 24 H -1.97133 2.30412 1.60857 0
M  V30 END ATOM
M  V30 BEGIN BOND
M  V30 1 1 1 2
M  V30 2 1 2 3
M  V30 3 1 3 4
M  V30 4 1 4 5
M  V30 5 2 5 6
M  V30 6 1 5 7
M  V30 7 3 7 8
M  V30 8 1 8 9
M  V30 9 1 3 10
M  V30 10 1 10 11
M  V30 11 1 1 12
M  V30 12 1 1 13
M  V30 13 1 2 14
M  V30 14 1 2 15
M  V30 15 1 3 16
M  V30 16 1 4 17
M  V30 17 1 9 18
M  V30 18 1 9 19
M  V30 19 1 9 20
M  V30 20 1 10 21
M  V30 21 1 10 22
M  V30 22 1 11 23
M  V30 23 1 11 24
M  V30 END BOND
M  V30 END CTAB
M  END
