
     RDKit          3D

  0  0  0  0  0  0  0  0  0  0999 V3000
M  V30 BEGIN CTAB
M  V30 COUNTS 58 61 0 0 0
M  V30 BEGIN ATOM
M  V30 1 C 6.82925 0.961517 0.247987 0
M  V30 2 C 5.7729 0.782175 -0.818415 0
M  V30 3 C 4.46049 0.326008 -0.258175 0
M  V30 4 C 4.55662 -0.98641 0.422869 0
M  V30 5 C 3.24196 -1.54746 0.877035 0
M  V30 6 C 2.26012 -1.54201 -0.27963 0
M  V30 7 N 2.17692 -0.160335 -0.696307 0
M  V30 8 C 3.36514 0.357287 -1.31911 0
M  V30 9 C 0.988639 0.652961 -0.478055 0
M  V30 10 O 1.15764 1.83788 -0.90217 0
M  V30 11 N -0.131683 0.0880532 0.132807 0
M  V30 12 C -1.2058 -0.453457 0.718448 0
M  V30 13 C -2.52213 -0.411452 -0.0478041 0
M  V30 14 N -2.34602 -1.09293 -1.29192 0
M  V30 15 C -3.0155 0.962786 -0.256069 0
M  V30 16 C -3.33415 1.68893 1.03681 0
M  V30 17 C -4.36427 0.897609 1.80258 0
M  V30 18 C -3.88131 -0.498 2.05031 0
M  V30 19 C -3.57357 -1.19166 0.741368 0
M  V30 20 C -4.83795 -1.22237 -0.0493669 0
M  V30 21 C -5.34855 0.185261 -0.332932 0
M  V30 22 C -4.31474 0.968952 -1.07285 0
M  V30 23 C -5.63991 0.858857 0.981494 0
M  V30 24 N 6.31545 -0.240543 -1.73745 0
M  V30 25 H 6.6359 1.96312 0.733498 0
M  V30 26 H 7.84339 1.10558 -0.212991 0
M  V30 27 H 6.83525 0.200504 1.0309 0
M  V30 28 H 5.6986 1.73476 -1.38102 0
M  V30 29 H 4.20848 1.08497 0.550567 0
M  V30 30 H 5.17197 -1.73291 -0.129424 0
M  V30 31 H 5.12902 -0.798757 1.38699 0
M  V30 32 H 3.39459 -2.56891 1.27135 0
M  V30 33 H 2.82644 -0.834166 1.64341 0
M  V30 34 H 2.72622 -2.1054 -1.13506 0
M  V30 35 H 1.31221 -2.03313 -0.0776094 0
M  V30 36 H 3.68639 -0.421146 -2.06659 0
M  V30 37 H 3.26136 1.36041 -1.74207 0
M  V30 38 H -0.723256 1.32052 0.109697 0
M  V30 39 H -1.09395 -1.58274 0.961176 0
M  V30 40 H -1.46178 0.0270247 1.71406 0
M  V30 41 H -1.61354 -1.84242 -1.2963 0
M  V30 42 H -2.31397 -0.477307 -2.13547 0
M  V30 43 H -2.32295 1.59893 -0.866193 0
M  V30 44 H -3.73497 2.69351 0.748117 0
M  V30 45 H -2.48194 1.84443 1.69132 0
M  V30 46 H -4.50528 1.38574 2.76724 0
M  V30 47 H -3.07274 -0.533401 2.77783 0
M  V30 48 H -4.77968 -1.05168 2.46837 0
M  V30 49 H -3.24006 -2.21967 0.938228 0
M  V30 50 H -5.65828 -1.71342 0.523276 0
M  V30 51 H -4.74474 -1.79764 -1.01445 0
M  V30 52 H -6.28386 0.0700529 -0.904381 0
M  V30 53 H -4.14296 0.592811 -2.07942 0
M  V30 54 H -4.66048 2.0392 -1.05272 0
M  V30 55 H -6.38897 0.258288 1.55067 0
M  V30 56 H -5.99185 1.89915 0.875201 0
M  V30 57 H 7.06341 0.241483 -2.29154 0
M  V30 58 H 6.81246 -0.929437 -1.11771 0
M  V30 END ATOM
M  V30 BEGIN BOND
M  V30 1 1 1 2
M  V30 2 1 2 3
M  V30 3 1 3 4
M  V30 4 1 4 5
M  V30 5 1 5 6
M  V30 6 1 6 7
M  V30 7 1 7 8
M  V30 8 1 7 9
M  V30 9 2 9 10
M  V30 10 1 9 11
M  V30 11 1 11 12
M  V30 12 1 12 13
M  V30 13 1 13 14
M  V30 14 1 13 15
M  V30 15 1 15 16
M  V30 16 1 16 17
M  V30 17 1 17 18
M  V30 18 1 18 19
M  V30 19 1 19 20
M  V30 20 1 20 21
M  V30 21 1 21 22
M  V30 22 1 21 23
M  V30 23 1 2 24
M  V30 24 1 8 3
M  V30 25 1 19 13
M  V30 26 1 22 15
M  V30 27 1 23 17
M  V30 28 1 1 25
M  V30 29 1 1 26
M  V30 30 1 1 27
M  V30 31 1 2 28
M  V30 32 1 3 29
M  V30 33 1 4 30
M  V30 34 1 4 31
M  V30 35 1 5 32
M  V30 36 1 5 33
M  V30 37 1 6 34
M  V30 38 1 6 35
M  V30 39 1 8 36
M  V30 40 1 8 37
M  V30 41 1 11 38
M  V30 42 1 12 39
M  V30 43 1 12 40
M  V30 44 1 14 41
M  V30 45 1 14 42
M  V30 46 1 15 43
M  V30 47 1 16 44
M  V30 48 1 16 45
M  V30 49 1 17 46
M  V30 50 1 18 47
M  V30 51 1 18 48
M  V30 52 1 19 49
M  V30 53 1 20 50
M  V30 54 1 20 51
M  V30 55 1 21 52
M  V30 56 1 22 53
M  V30 57 1 22 54
M  V30 58 1 23 55
M  V30 59 1 23 56
M  V30 60 1 24 57
M  V30 61 1 24 58
M  V30 END BOND
M  V30 END CTAB
M  END
