
     RDKit          3D

  0  0  0  0  0  0  0  0  0  0999 V3000
M  V30 BEGIN CTAB
M  V30 COUNTS 58 60 0 0 0
M  V30 BEGIN ATOM
M  V30 1 N -4.10892 2.64018 1.63974 0
M  V30 2 C -4.80796 2.16238 0.434927 0
M  V30 3 C -4.13124 0.887245 -0.0772131 0
M  V30 4 C -4.19808 -0.150468 0.976156 0
M  V30 5 C -5.15223 -1.27976 0.739151 0
M  V30 6 C -6.45264 -0.859821 0.115891 0
M  V30 7 C -6.28317 0.164537 -0.969518 0
M  V30 8 C -4.8563 0.44915 -1.30251 0
M  V30 9 C -2.69088 1.2515 -0.342448 0
M  V30 10 C -1.84213 0.17726 -0.840613 0
M  V30 11 O -2.27369 -0.986382 -1.02691 0
M  V30 12 N -0.460917 0.367372 -1.1531 0
M  V30 13 C 0.413721 -0.648066 -1.64039 0
M  V30 14 C 0.611805 -1.82671 -0.747465 0
M  V30 15 C 1.19586 -1.38979 0.570022 0
M  V30 16 C 2.50811 -0.727432 0.459998 0
M  V30 17 N 3.72074 -1.34715 0.493546 0
M  V30 18 N 4.68062 -0.464345 0.372558 0
M  V30 19 C 4.14539 0.764072 0.255189 0
M  V30 20 C 2.75321 0.618037 0.308847 0
M  V30 21 N 4.82618 1.98876 0.105047 0
M  V30 22 C 6.09889 -0.670651 0.356074 0
M  V30 23 C 6.75946 -1.36204 1.35014 0
M  V30 24 C 8.14017 -1.54564 1.30507 0
M  V30 25 C 8.88924 -1.04295 0.267086 0
M  V30 26 C 8.22967 -0.3437 -0.740456 0
M  V30 27 C 6.87777 -0.173739 -0.679819 0
M  V30 28 H -4.58481 2.33236 2.49625 0
M  V30 29 H -4.08796 3.68061 1.54948 0
M  V30 30 H -4.77132 2.89439 -0.391066 0
M  V30 31 H -5.83744 2.02 0.75067 0
M  V30 32 H -4.4481 0.368092 1.95686 0
M  V30 33 H -3.18645 -0.560746 1.16346 0
M  V30 34 H -4.68554 -2.08898 0.140666 0
M  V30 35 H -5.39138 -1.72171 1.72993 0
M  V30 36 H -7.19843 -0.505157 0.85993 0
M  V30 37 H -6.89667 -1.76345 -0.35261 0
M  V30 38 H -6.75689 -0.182233 -1.93851 0
M  V30 39 H -6.8007 1.11528 -0.753498 0
M  V30 40 H -4.45802 -0.436 -1.8135 0
M  V30 41 H -4.87821 1.3252 -2.01264 0
M  V30 42 H -2.60191 2.1016 -1.05821 0
M  V30 43 H -2.19761 1.64391 0.594602 0
M  V30 44 H -0.0995174 1.35752 -0.995263 0
M  V30 45 H -0.057929 -1.04686 -2.58266 0
M  V30 46 H 1.38732 -0.232146 -1.9548 0
M  V30 47 H 1.33235 -2.52647 -1.22677 0
M  V30 48 H -0.331302 -2.35299 -0.523264 0
M  V30 49 H 0.434256 -0.747743 1.06586 0
M  V30 50 H 1.30778 -2.28191 1.23869 0
M  V30 51 H 2.0207 1.41545 0.244414 0
M  V30 52 H 5.45423 2.32592 0.861628 0
M  V30 53 H 4.72191 2.57212 -0.742503 0
M  V30 54 H 6.17721 -1.7628 2.17383 0
M  V30 55 H 8.65433 -2.09049 2.09009 0
M  V30 56 H 9.97158 -1.16963 0.202738 0
M  V30 57 H 8.84869 0.0381872 -1.54181 0
M  V30 58 H 6.36712 0.3683 -1.461 0
M  V30 END ATOM
M  V30 BEGIN BOND
M  V30 1 1 1 2
M  V30 2 1 2 3
M  V30 3 1 3 4
M  V30 4 1 4 5
M  V30 5 1 5 6
M  V30 6 1 6 7
M  V30 7 1 7 8
M  V30 8 1 3 9
M  V30 9 1 9 10
M  V30 10 2 10 11
M  V30 11 1 10 12
M  V30 12 1 12 13
M  V30 13 1 13 14
M  V30 14 1 14 15
M  V30 15 1 15 16
M  V30 16 2 16 17
M  V30 17 1 17 18
M  V30 18 1 18 19
M  V30 19 2 19 20
M  V30 20 1 19 21
M  V30 21 1 18 22
M  V30 22 2 22 23
M  V30 23 1 23 24
M  V30 24 2 24 25
M  V30 25 1 25 26
M  V30 26 2 26 27
M  V30 27 1 8 3
M  V30 28 1 20 16
M  V30 29 1 27 22
M  V30 30 1 1 28
M  V30 31 1 1 29
M  V30 32 1 2 30
M  V30 33 1 2 31
M  V30 34 1 4 32
M  V30 35 1 4 33
M  V30 36 1 5 34
M  V30 37 1 5 35
M  V30 38 1 6 36
M  V30 39 1 6 37
M  V30 40 1 7 38
M  V30 41 1 7 39
M  V30 42 1 8 40
M  V30 43 1 8 41
M  V30 44 1 9 42
M  V30 45 1 9 43
M  V30 46 1 12 44
M  V30 47 1 13 45
M  V30 48 1 13 46
M  V30 49 1 14 47
M  V30 50 1 14 48
M  V30 51 1 15 49
M  V30 52 1 15 50
M  V30 53 1 20 51
M  V30 54 1 21 52
M  V30 55 1 21 53
M  V30 56 1 23 54
M  V30 57 1 24 55
M  V30 58 1 25 56
M  V30 59 1 26 57
M  V30 60 1 27 58
M  V30 END BOND
M  V30 END CTAB
M  END
