
     RDKit          3D

  0  0  0  0  0  0  0  0  0  0999 V3000
M  V30 BEGIN CTAB
M  V30 COUNTS 21 20 0 0 0
M  V30 BEGIN ATOM
M  V30 1 N 4.10418 0.806929 0.212447 0
M  V30 2 N 2.9223 1.09268 0.864128 0
M  V30 3 C 1.65941 0.62321 0.441866 0
M  V30 4 O 1.62852 -0.110353 -0.606553 0
M  V30 5 C 0.394723 0.918395 1.11789 0
M  V30 6 C -0.815419 0.395618 0.532364 0
M  V30 7 C -1.75009 1.21327 0.096262 0
M  V30 8 C -1.0834 -1.05757 0.381308 0
M  V30 9 O -0.133609 -1.7781 0.844516 0
M  V30 10 N -2.22495 -1.50346 -0.193482 0
M  V30 11 N -3.34 -1.9601 -0.755162 0
M  V30 12 H 3.98189 0.682323 -0.820018 0
M  V30 13 H 4.6313 -0.00680662 0.607054 0
M  V30 14 H 2.9971 1.70964 1.73387 0
M  V30 15 H 0.50489 0.60078 2.18753 0
M  V30 16 H 0.351135 2.05489 1.18143 0
M  V30 17 H -1.61378 2.27331 0.175568 0
M  V30 18 H -2.65957 0.843777 -0.344121 0
M  V30 19 H -1.84332 -2.81823 -0.0684624 0
M  V30 20 H -4.11237 -2.31274 -0.165718 0
M  V30 21 H -3.59892 -1.66747 -1.69558 0
M  V30 END ATOM
M  V30 BEGIN BOND
M  V30 1 1 1 2
M  V30 2 1 2 3
M  V30 3 2 3 4
M  V30 4 1 3 5
M  V30 5 1 5 6
M  V30 6 2 6 7 CFG=2
M  V30 7 1 6 8
M  V30 8 2 8 9
M  V30 9 1 8 10
M  V30 10 1 10 11
M  V30 11 1 1 12
M  V30 12 1 1 13
M  V30 13 1 2 14
M  V30 14 1 5 15
M  V30 15 1 5 16
M  V30 16 1 7 17
M  V30 17 1 7 18
M  V30 18 1 10 19
M  V30 19 1 11 20
M  V30 20 1 11 21
M  V30 END BOND
M  V30 END CTAB
M  END
