
     RDKit          3D

  0  0  0  0  0  0  0  0  0  0999 V3000
M  V30 BEGIN CTAB
M  V30 COUNTS 52 53 0 0 0
M  V30 BEGIN ATOM
M  V30 1 N 7.24055 -0.206037 -1.38866 0
M  V30 2 C 6.40155 -1.33504 -1.15303 0
M  V30 3 N 6.30359 -2.22698 -2.07643 0
M  V30 4 N 5.66782 -1.52608 0.0487082 0
M  V30 5 C 4.72022 -0.499811 0.527647 0
M  V30 6 C 3.56751 -0.433432 -0.396685 0
M  V30 7 C 2.51668 0.56027 -0.147703 0
M  V30 8 C 1.71013 0.472092 1.09768 0 CFG=2
M  V30 9 N 0.744781 1.62555 0.954284 0
M  V30 10 C -0.630974 1.30259 0.964653 0
M  V30 11 O -0.979789 0.112483 1.09028 0
M  V30 12 C -1.63879 2.38638 0.825384 0
M  V30 13 C -2.99681 2.27531 0.819244 0
M  V30 14 N -3.65057 0.982835 0.998206 0
M  V30 15 S -5.03346 0.517674 0.085893 0
M  V30 16 O -6.10034 0.0769217 1.05743 0
M  V30 17 O -5.62058 1.6511 -0.703528 0
M  V30 18 C -4.6077 -0.813589 -0.964955 0
M  V30 19 C -4.72273 -0.681716 -2.33158 0
M  V30 20 C -4.38524 -1.73217 -3.1687 0
M  V30 21 C -3.93736 -2.89317 -2.57578 0
M  V30 22 C -3.82273 -3.02129 -1.18958 0
M  V30 23 C -4.16037 -1.97187 -0.365171 0
M  V30 24 N -4.03296 -2.13262 1.03815 0
M  V30 25 C -3.69843 3.4258 0.663094 0
M  V30 26 C -2.98647 4.58175 0.527842 0
M  V30 27 S -1.37289 4.05862 0.618399 0
M  V30 28 C 2.37844 0.760886 2.37141 0
M  V30 29 O 2.63677 -0.136958 3.39249 0
M  V30 30 O 2.7525 1.97422 2.55599 0
M  V30 31 H 7.34938 0.226442 -2.32895 0
M  V30 32 H 7.77186 0.212524 -0.594471 0
M  V30 33 H 5.72749 -3.07906 -2.01076 0
M  V30 34 H 5.75884 -2.37223 0.630413 0
M  V30 35 H 5.27096 0.448632 0.552078 0
M  V30 36 H 4.41109 -0.738343 1.541 0
M  V30 37 H 3.05251 -1.45554 -0.480743 0
M  V30 38 H 3.90312 -0.284603 -1.47103 0
M  V30 39 H 1.80882 0.486657 -1.0515 0
M  V30 40 H 2.90798 1.62419 -0.257496 0
M  V30 41 H 1.13102 -0.449321 1.177 0
M  V30 42 H 1.17344 2.55085 0.860897 0
M  V30 43 H -3.30656 0.291953 1.69576 0
M  V30 44 H -5.07466 0.22439 -2.81528 0
M  V30 45 H -4.47155 -1.6405 -4.2422 0
M  V30 46 H -3.67349 -3.71433 -3.21587 0
M  V30 47 H -3.47137 -3.9383 -0.754363 0
M  V30 48 H -3.13052 -2.51416 1.41079 0
M  V30 49 H -4.78016 -1.8952 1.72068 0
M  V30 50 H -4.81494 3.49036 0.64338 0
M  V30 51 H -3.38184 5.60539 0.39252 0
M  V30 52 H 3.57626 -0.233527 3.79166 0
M  V30 END ATOM
M  V30 BEGIN BOND
M  V30 1 1 1 2
M  V30 2 2 2 3 CFG=2
M  V30 3 1 2 4
M  V30 4 1 4 5
M  V30 5 1 5 6
M  V30 6 1 6 7
M  V30 7 1 7 8
M  V30 8 1 8 9
M  V30 9 1 9 10
M  V30 10 2 10 11
M  V30 11 1 10 12
M  V30 12 2 12 13
M  V30 13 1 13 14
M  V30 14 1 14 15
M  V30 15 2 15 16
M  V30 16 2 15 17
M  V30 17 1 15 18
M  V30 18 2 18 19
M  V30 19 1 19 20
M  V30 20 2 20 21
M  V30 21 1 21 22
M  V30 22 2 22 23
M  V30 23 1 23 24
M  V30 24 1 13 25
M  V30 25 2 25 26
M  V30 26 1 26 27
M  V30 27 1 8 28
M  V30 28 1 28 29
M  V30 29 2 28 30
M  V30 30 1 27 12
M  V30 31 1 23 18
M  V30 32 1 1 31
M  V30 33 1 1 32
M  V30 34 1 3 33
M  V30 35 1 4 34
M  V30 36 1 5 35
M  V30 37 1 5 36
M  V30 38 1 6 37
M  V30 39 1 6 38
M  V30 40 1 7 39
M  V30 41 1 7 40
M  V30 42 1 8 41 CFG=1
M  V30 43 1 9 42
M  V30 44 1 14 43
M  V30 45 1 19 44
M  V30 46 1 20 45
M  V30 47 1 21 46
M  V30 48 1 22 47
M  V30 49 1 24 48
M  V30 50 1 24 49
M  V30 51 1 25 50
M  V30 52 1 26 51
M  V30 53 1 29 52
M  V30 END BOND
M  V30 END CTAB
M  END
