
     RDKit          3D

  0  0  0  0  0  0  0  0  0  0999 V3000
M  V30 BEGIN CTAB
M  V30 COUNTS 54 58 0 0 0
M  V30 BEGIN ATOM
M  V30 1 C -4.84147 -2.56728 -4.19363 0
M  V30 2 C -4.18168 -1.74741 -3.14236 0
M  V30 3 N -4.8168 -0.818052 -2.40189 0
M  V30 4 N -3.96715 -0.260335 -1.55599 0
M  V30 5 C -2.7789 -0.808714 -1.72751 0
M  V30 6 C -2.87884 -1.7621 -2.73229 0
M  V30 7 C -1.55794 -0.467782 -0.981546 0
M  V30 8 O -1.68141 0.421427 -0.115285 0
M  V30 9 N -0.372518 -1.14965 -1.28991 0
M  V30 10 C 0.905281 -0.992499 -0.7128 0
M  V30 11 C 1.17243 -0.0976874 0.286448 0
M  V30 12 C 2.48035 -0.0133236 0.799231 0
M  V30 13 C 3.51429 -0.784544 0.348976 0
M  V30 14 C 3.18381 -1.6807 -0.671437 0
M  V30 15 N 1.94959 -1.7649 -1.1593 0
M  V30 16 C 4.87837 -0.711936 0.823516 0
M  V30 17 C 5.32209 -1.77722 1.61948 0
M  V30 18 C 6.57467 -1.8235 2.15622 0
M  V30 19 C 7.46387 -0.786088 1.91908 0
M  V30 20 C 7.04138 0.245838 1.15034 0
M  V30 21 C 5.76055 0.298836 0.597546 0
M  V30 22 S 5.31623 1.637 -0.402926 0
M  V30 23 N 6.70334 2.69991 -0.545842 0
M  V30 24 O 4.98474 1.20429 -1.80052 0
M  V30 25 O 4.23609 2.48745 0.192972 0
M  V30 26 C -4.33221 0.773987 -0.620342 0
M  V30 27 C -4.79658 0.49434 0.647336 0
M  V30 28 C -5.14902 1.46545 1.55184 0
M  V30 29 C -5.03467 2.7897 1.17861 0
M  V30 30 O -5.42956 3.48906 2.21099 0
M  V30 31 N -5.78094 2.72075 3.1973 0
M  V30 32 C -5.63142 1.4238 2.85661 0
M  V30 33 N -5.90051 0.270998 3.63939 0
M  V30 34 C -4.56937 3.11811 -0.0939365 0
M  V30 35 C -4.22322 2.10034 -0.979204 0
M  V30 36 H -5.9166 -2.71679 -3.92 0
M  V30 37 H -4.38797 -3.55659 -4.28865 0
M  V30 38 H -4.77469 -2.00317 -5.1488 0
M  V30 39 H -2.08825 -2.39402 -3.11873 0
M  V30 40 H -0.404063 -1.89963 -2.06482 0
M  V30 41 H 0.431068 0.549518 0.704205 0
M  V30 42 H 2.66482 0.687159 1.60964 0
M  V30 43 H 4.00482 -2.30502 -1.03981 0
M  V30 44 H 4.64842 -2.59745 1.81889 0
M  V30 45 H 6.91975 -2.64411 2.7707 0
M  V30 46 H 8.44817 -0.839202 2.35108 0
M  V30 47 H 7.73482 1.07262 0.955143 0
M  V30 48 H 6.93326 3.13707 0.356025 0
M  V30 49 H 7.49689 2.19802 -0.997923 0
M  V30 50 H -4.89781 -0.532914 0.970693 0
M  V30 51 H -5.14374 -0.26223 4.11127 0
M  V30 52 H -6.87575 -0.0701285 3.75942 0
M  V30 53 H -4.49054 4.14484 -0.356765 0
M  V30 54 H -3.86548 2.4044 -1.96009 0
M  V30 END ATOM
M  V30 BEGIN BOND
M  V30 1 1 1 2
M  V30 2 2 2 3
M  V30 3 1 3 4
M  V30 4 1 4 5
M  V30 5 2 5 6
M  V30 6 1 5 7
M  V30 7 2 7 8
M  V30 8 1 7 9
M  V30 9 1 9 10
M  V30 10 2 10 11
M  V30 11 1 11 12
M  V30 12 2 12 13
M  V30 13 1 13 14
M  V30 14 2 14 15
M  V30 15 1 13 16
M  V30 16 2 16 17
M  V30 17 1 17 18
M  V30 18 2 18 19
M  V30 19 1 19 20
M  V30 20 2 20 21
M  V30 21 1 21 22
M  V30 22 1 22 23
M  V30 23 2 22 24
M  V30 24 2 22 25
M  V30 25 1 4 26
M  V30 26 2 26 27
M  V30 27 1 27 28
M  V30 28 2 28 29
M  V30 29 1 29 30
M  V30 30 1 30 31
M  V30 31 2 31 32
M  V30 32 1 32 33
M  V30 33 1 29 34
M  V30 34 2 34 35
M  V30 35 1 6 2
M  V30 36 1 15 10
M  V30 37 1 21 16
M  V30 38 1 35 26
M  V30 39 1 32 28
M  V30 40 1 1 36
M  V30 41 1 1 37
M  V30 42 1 1 38
M  V30 43 1 6 39
M  V30 44 1 9 40
M  V30 45 1 11 41
M  V30 46 1 12 42
M  V30 47 1 14 43
M  V30 48 1 17 44
M  V30 49 1 18 45
M  V30 50 1 19 46
M  V30 51 1 20 47
M  V30 52 1 23 48
M  V30 53 1 23 49
M  V30 54 1 27 50
M  V30 55 1 33 51
M  V30 56 1 33 52
M  V30 57 1 34 53
M  V30 58 1 35 54
M  V30 END BOND
M  V30 END CTAB
M  END
