
     RDKit          3D

  0  0  0  0  0  0  0  0  0  0999 V3000
M  V30 BEGIN CTAB
M  V30 COUNTS 34 35 0 0 0
M  V30 BEGIN ATOM
M  V30 1 N -3.56703 0.486724 1.66004 0
M  V30 2 C -3.21315 1.24518 0.505162 0
M  V30 3 C -2.18517 0.573886 -0.364315 0
M  V30 4 C -2.63973 -0.761656 -0.887308 0
M  V30 5 C -1.62045 -1.1446 -1.96937 0
M  V30 6 N -0.361151 -1.34588 -1.25543 0
M  V30 7 C 0.116262 -0.0809304 -0.736992 0
M  V30 8 C -0.85524 0.41326 0.331458 0
M  V30 9 C 1.4418 -0.22641 -0.129741 0
M  V30 10 C 1.719 -1.27697 0.711647 0
M  V30 11 C 2.97454 -1.43176 1.29863 0
M  V30 12 C 3.98508 -0.526474 1.04985 0
M  V30 13 C 3.70647 0.526095 0.206526 0
M  V30 14 C 2.46647 0.683462 -0.376344 0
M  V30 15 N 4.72256 1.47937 -0.0737585 0
M  V30 16 H -4.58184 0.258209 1.71735 0
M  V30 17 H -3.17584 0.846731 2.55776 0
M  V30 18 H -2.76869 2.21371 0.835121 0
M  V30 19 H -4.0869 1.50716 -0.12306 0
M  V30 20 H -2.00338 1.22212 -1.24947 0
M  V30 21 H -3.66379 -0.743352 -1.28041 0
M  V30 22 H -2.54662 -1.53699 -0.0795285 0
M  V30 23 H -1.47549 -0.283584 -2.64109 0
M  V30 24 H -1.91299 -2.06428 -2.49508 0
M  V30 25 H -0.560323 -2.00797 -0.473859 0
M  V30 26 H 0.0813258 0.657325 -1.55311 0
M  V30 27 H -0.526067 1.37947 0.722858 0
M  V30 28 H -0.994322 -0.358802 1.11402 0
M  V30 29 H 0.928368 -2.00338 0.919078 0
M  V30 30 H 3.15263 -2.28129 1.96144 0
M  V30 31 H 4.97202 -0.632924 1.5006 0
M  V30 32 H 2.23938 1.52079 -1.04928 0
M  V30 33 H 4.84962 1.87905 -1.01906 0
M  V30 34 H 5.38266 1.81471 0.665662 0
M  V30 END ATOM
M  V30 BEGIN BOND
M  V30 1 1 1 2
M  V30 2 1 2 3
M  V30 3 1 3 4
M  V30 4 1 4 5
M  V30 5 1 5 6
M  V30 6 1 6 7
M  V30 7 1 7 8
M  V30 8 1 7 9
M  V30 9 2 9 10
M  V30 10 1 10 11
M  V30 11 2 11 12
M  V30 12 1 12 13
M  V30 13 2 13 14
M  V30 14 1 13 15
M  V30 15 1 8 3
M  V30 16 1 14 9
M  V30 17 1 1 16
M  V30 18 1 1 17
M  V30 19 1 2 18
M  V30 20 1 2 19
M  V30 21 1 3 20
M  V30 22 1 4 21
M  V30 23 1 4 22
M  V30 24 1 5 23
M  V30 25 1 5 24
M  V30 26 1 6 25
M  V30 27 1 7 26
M  V30 28 1 8 27
M  V30 29 1 8 28
M  V30 30 1 10 29
M  V30 31 1 11 30
M  V30 32 1 12 31
M  V30 33 1 14 32
M  V30 34 1 15 33
M  V30 35 1 15 34
M  V30 END BOND
M  V30 END CTAB
M  END
