
     RDKit          3D

  0  0  0  0  0  0  0  0  0  0999 V3000
M  V30 BEGIN CTAB
M  V30 COUNTS 41 41 0 0 0
M  V30 BEGIN ATOM
M  V30 1 N -1.88987 1.91643 -2.44806 0
M  V30 2 C -0.838426 0.917877 -2.28267 0
M  V30 3 C -0.41559 0.855904 -0.825996 0
M  V30 4 C -1.57323 0.482306 0.0637266 0
M  V30 5 C -1.20115 0.410792 1.50533 0
M  V30 6 C -2.12919 -0.466676 2.2716 0
M  V30 7 C -3.54947 -0.423575 1.79274 0
M  V30 8 C -3.66165 -0.738631 0.318418 0
M  V30 9 C -2.26801 -0.778433 -0.325001 0
M  V30 10 N 0.682297 -0.0540629 -0.742003 0
M  V30 11 C 1.95262 0.422842 -0.334747 0
M  V30 12 O 2.11333 1.63667 -0.0494487 0
M  V30 13 C 3.14385 -0.457988 -0.221994 0
M  V30 14 N 2.85307 -1.82111 -0.569205 0
M  V30 15 C 3.72675 -0.385377 1.15003 0
M  V30 16 C 4.16982 0.0754288 -1.22313 0
M  V30 17 H -1.6487 2.70774 -1.82172 0
M  V30 18 H -1.83814 2.24795 -3.43095 0
M  V30 19 H -1.10141 -0.0607444 -2.70262 0
M  V30 20 H 0.045511 1.34417 -2.8423 0
M  V30 21 H -0.0776175 1.86852 -0.537941 0
M  V30 22 H -2.3268 1.3169 -0.0474184 0
M  V30 23 H -1.27271 1.44251 1.94136 0
M  V30 24 H -0.145156 0.0447933 1.64491 0
M  V30 25 H -1.73593 -1.51767 2.23572 0
M  V30 26 H -2.14554 -0.184195 3.35567 0
M  V30 27 H -4.12867 -1.14975 2.39862 0
M  V30 28 H -3.97151 0.585355 2.04165 0
M  V30 29 H -4.18054 -1.70071 0.19539 0
M  V30 30 H -4.27469 0.0557567 -0.148157 0
M  V30 31 H -1.73857 -1.62677 0.198853 0
M  V30 32 H -2.37134 -0.961047 -1.39386 0
M  V30 33 H 0.60844 -1.07046 -0.966071 0
M  V30 34 H 2.52488 -1.94844 -1.53668 0
M  V30 35 H 3.70598 -2.38491 -0.420805 0
M  V30 36 H 3.19816 -1.07672 1.86073 0
M  V30 37 H 3.7398 0.639118 1.5751 0
M  V30 38 H 4.78772 -0.772449 1.12806 0
M  V30 39 H 4.46835 1.07769 -0.822091 0
M  V30 40 H 5.0476 -0.604873 -1.24086 0
M  V30 41 H 3.71574 0.13582 -2.22077 0
M  V30 END ATOM
M  V30 BEGIN BOND
M  V30 1 1 1 2
M  V30 2 1 2 3
M  V30 3 1 3 4
M  V30 4 1 4 5
M  V30 5 1 5 6
M  V30 6 1 6 7
M  V30 7 1 7 8
M  V30 8 1 8 9
M  V30 9 1 3 10
M  V30 10 1 10 11
M  V30 11 2 11 12
M  V30 12 1 11 13
M  V30 13 1 13 14
M  V30 14 1 13 15
M  V30 15 1 13 16
M  V30 16 1 9 4
M  V30 17 1 1 17
M  V30 18 1 1 18
M  V30 19 1 2 19
M  V30 20 1 2 20
M  V30 21 1 3 21
M  V30 22 1 4 22
M  V30 23 1 5 23
M  V30 24 1 5 24
M  V30 25 1 6 25
M  V30 26 1 6 26
M  V30 27 1 7 27
M  V30 28 1 7 28
M  V30 29 1 8 29
M  V30 30 1 8 30
M  V30 31 1 9 31
M  V30 32 1 9 32
M  V30 33 1 10 33
M  V30 34 1 14 34
M  V30 35 1 14 35
M  V30 36 1 15 36
M  V30 37 1 15 37
M  V30 38 1 15 38
M  V30 39 1 16 39
M  V30 40 1 16 40
M  V30 41 1 16 41
M  V30 END BOND
M  V30 END CTAB
M  END
