
     RDKit          3D

  0  0  0  0  0  0  0  0  0  0999 V3000
M  V30 BEGIN CTAB
M  V30 COUNTS 38 41 0 0 0
M  V30 BEGIN ATOM
M  V30 1 F -4.51827 3.86252 0.536657 0
M  V30 2 C -4.04922 2.60407 0.244507 0
M  V30 3 C -4.01751 1.62719 1.20742 0
M  V30 4 C -3.53467 0.354135 0.883112 0
M  V30 5 C -3.08982 0.0561577 -0.381114 0
M  V30 6 C -3.13109 1.05102 -1.32902 0
M  V30 7 C -3.6047 2.31635 -1.02865 0
M  V30 8 C -2.58427 -1.31045 -0.720129 0
M  V30 9 C -3.4403 -2.06823 -1.50338 0
M  V30 10 S -2.63784 -3.55137 -1.63991 0
M  V30 11 C -1.24587 -3.20787 -0.720899 0
M  V30 12 C -1.44159 -1.9168 -0.319622 0
M  V30 13 C -0.382552 -1.40012 0.458918 0
M  V30 14 N 0.667556 -2.17709 0.728141 0
M  V30 15 C 0.840872 -3.4212 0.336136 0
M  V30 16 N -0.155868 -3.95119 -0.416429 0
M  V30 17 S -0.35917 0.26122 1.08631 0
M  V30 18 C 1.13851 0.610746 2.01771 0
M  V30 19 C 2.36781 0.661684 1.22456 0
M  V30 20 N 2.78423 1.81823 0.625194 0
M  V30 21 C 3.90459 1.90634 -0.0940906 0
M  V30 22 N 4.34 3.10816 -0.718669 0
M  V30 23 N 4.68629 0.826912 -0.259034 0
M  V30 24 C 4.29934 -0.322378 0.319925 0
M  V30 25 N 3.15784 -0.398193 1.04888 0
M  V30 26 N 5.0614 -1.50945 0.1989 0
M  V30 27 H -4.36897 1.85762 2.21024 0
M  V30 28 H -3.51326 -0.402941 1.64195 0
M  V30 29 H -2.7745 0.799385 -2.32709 0
M  V30 30 H -3.631 3.09314 -1.789 0
M  V30 31 H -4.41189 -1.78954 -1.94078 0
M  V30 32 H 1.67689 -4.0431 0.55024 0
M  V30 33 H 1.05207 1.57321 2.56697 0
M  V30 34 H 1.23076 -0.176309 2.82606 0
M  V30 35 H 4.68121 3.0845 -1.7039 0
M  V30 36 H 4.33965 4.03586 -0.241379 0
M  V30 37 H 5.48291 -1.929 1.04657 0
M  V30 38 H 5.18043 -1.9332 -0.739347 0
M  V30 END ATOM
M  V30 BEGIN BOND
M  V30 1 1 1 2
M  V30 2 2 2 3
M  V30 3 1 3 4
M  V30 4 2 4 5
M  V30 5 1 5 6
M  V30 6 2 6 7
M  V30 7 1 5 8
M  V30 8 2 8 9
M  V30 9 1 9 10
M  V30 10 1 10 11
M  V30 11 2 11 12
M  V30 12 1 12 13
M  V30 13 2 13 14
M  V30 14 1 14 15
M  V30 15 2 15 16
M  V30 16 1 13 17
M  V30 17 1 17 18
M  V30 18 1 18 19
M  V30 19 2 19 20
M  V30 20 1 20 21
M  V30 21 1 21 22
M  V30 22 2 21 23
M  V30 23 1 23 24
M  V30 24 2 24 25
M  V30 25 1 24 26
M  V30 26 1 7 2
M  V30 27 1 12 8
M  V30 28 1 25 19
M  V30 29 1 16 11
M  V30 30 1 3 27
M  V30 31 1 4 28
M  V30 32 1 6 29
M  V30 33 1 7 30
M  V30 34 1 9 31
M  V30 35 1 15 32
M  V30 36 1 18 33
M  V30 37 1 18 34
M  V30 38 1 22 35
M  V30 39 1 22 36
M  V30 40 1 26 37
M  V30 41 1 26 38
M  V30 END BOND
M  V30 END CTAB
M  END
