
     RDKit          3D

  0  0  0  0  0  0  0  0  0  0999 V3000
M  V30 BEGIN CTAB
M  V30 COUNTS 78 82 0 0 0
M  V30 BEGIN ATOM
M  V30 1 N -6.24194 5.57835 -0.191859 0
M  V30 2 C -5.94209 4.18274 -0.00441677 0
M  V30 3 N -6.84318 3.35741 -0.111338 0
M  V30 4 N -4.62635 3.79775 0.362659 0
M  V30 5 C -3.75875 3.02813 -0.472414 0
M  V30 6 C -2.38214 2.90188 0.144144 0
M  V30 7 C -2.20879 2.20555 1.39809 0
M  V30 8 C -2.33302 0.707041 1.50933 0 CFG=2
M  V30 9 N -1.46611 -0.0699255 0.781384 0
M  V30 10 C -1.30875 -0.229045 -0.562189 0
M  V30 11 C -0.458983 -1.53829 -0.660569 0
M  V30 12 C -0.231344 -1.93143 0.823443 0
M  V30 13 C -0.197664 -0.481371 1.41146 0 CFG=1
M  V30 14 C 0.972466 0.178465 0.802549 0
M  V30 15 O 0.849161 1.42253 0.504847 0
M  V30 16 N 2.21513 -0.415577 0.49355 0
M  V30 17 C 3.16906 0.235524 -0.293219 0
M  V30 18 O 2.8907 1.46267 -0.617297 0
M  V30 19 C 4.43786 -0.26086 -0.813133 0
M  V30 20 N 4.27539 -0.68975 -2.23252 0
M  V30 21 C 5.13122 -1.32322 -0.0967752 0
M  V30 22 C 4.61015 -2.59831 -0.0494867 0
M  V30 23 C 5.26423 -3.6002 0.605926 0
M  V30 24 C 6.46065 -3.34343 1.22788 0
M  V30 25 C 7.02974 -2.09011 1.21177 0
M  V30 26 C 6.33056 -1.10051 0.534353 0
M  V30 27 C 5.34689 0.930278 -0.92454 0
M  V30 28 C 5.31324 1.86725 0.111926 0
M  V30 29 C 6.06629 3.00591 0.0664131 0
M  V30 30 C 6.87689 3.23303 -1.01984 0
M  V30 31 C 6.9252 2.31925 -2.04895 0
M  V30 32 C 6.15326 1.17428 -1.98451 0
M  V30 33 C -3.74151 0.304255 1.64365 0
M  V30 34 O -4.54013 1.0629 2.29516 0
M  V30 35 C -4.38261 -0.902179 1.1031 0
M  V30 36 N -3.88678 -1.93133 0.495601 0
M  V30 37 C -4.59763 -2.90073 0.0334899 0
M  V30 38 C -4.13855 -4.03717 -0.634248 0
M  V30 39 C -4.96166 -4.9956 -1.08374 0
M  V30 40 C -6.3137 -4.92782 -0.925588 0
M  V30 41 C -6.80647 -3.79931 -0.260294 0
M  V30 42 C -5.97856 -2.79288 0.220166 0
M  V30 43 S -6.07102 -1.29774 1.04809 0
M  V30 44 H -7.18319 5.90035 0.0176373 0
M  V30 45 H -5.50156 6.20112 -0.53741 0
M  V30 46 H -7.51047 2.73144 -0.189189 0
M  V30 47 H -4.28649 4.08874 1.31967 0
M  V30 48 H -3.62179 3.48695 -1.47941 0
M  V30 49 H -4.16044 2.00552 -0.707502 0
M  V30 50 H -2.07745 3.99419 0.320262 0
M  V30 51 H -1.71327 2.6094 -0.69562 0
M  V30 52 H -3.0453 2.58584 2.10029 0
M  V30 53 H -1.29955 2.58027 1.96489 0
M  V30 54 H -1.94926 0.548695 2.6005 0
M  V30 55 H -0.645452 0.537962 -1.02914 0
M  V30 56 H -2.12963 -0.371832 -1.25321 0
M  V30 57 H 0.471662 -1.38004 -1.17155 0
M  V30 58 H -1.07696 -2.34784 -1.08815 0
M  V30 59 H -1.08303 -2.44437 1.26371 0
M  V30 60 H 0.720646 -2.42729 0.903972 0
M  V30 61 H -0.311504 -0.459043 2.46569 0
M  V30 62 H 2.39082 -1.3921 0.797006 0
M  V30 63 H 3.85869 -1.63206 -2.22953 0
M  V30 64 H 3.54619 -0.0175078 -2.60132 0
M  V30 65 H 3.65264 -2.82842 -0.548055 0
M  V30 66 H 4.83597 -4.63933 0.642699 0
M  V30 67 H 6.94406 -4.18661 1.73149 0
M  V30 68 H 7.97647 -1.88246 1.70968 0
M  V30 69 H 6.82657 -0.132765 0.548398 0
M  V30 70 H 4.68464 1.68331 0.957924 0
M  V30 71 H 6.05354 3.7518 0.864985 0
M  V30 72 H 7.48106 4.13475 -1.0557 0
M  V30 73 H 7.57954 2.52311 -2.89351 0
M  V30 74 H 6.19274 0.449409 -2.8057 0
M  V30 75 H -3.04829 -4.1738 -0.814275 0
M  V30 76 H -4.56693 -5.89854 -1.61745 0
M  V30 77 H -7.04233 -5.64933 -1.25041 0
M  V30 78 H -7.86276 -3.64793 -0.0837189 0
M  V30 END ATOM
M  V30 BEGIN BOND
M  V30 1 1 1 2
M  V30 2 2 2 3 CFG=2
M  V30 3 1 2 4
M  V30 4 1 4 5
M  V30 5 1 5 6
M  V30 6 1 6 7
M  V30 7 1 7 8
M  V30 8 1 8 9
M  V30 9 1 9 10
M  V30 10 1 10 11
M  V30 11 1 11 12
M  V30 12 1 12 13
M  V30 13 1 13 14
M  V30 14 2 14 15
M  V30 15 1 14 16
M  V30 16 1 16 17
M  V30 17 2 17 18
M  V30 18 1 17 19
M  V30 19 1 19 20
M  V30 20 1 19 21
M  V30 21 2 21 22
M  V30 22 1 22 23
M  V30 23 2 23 24
M  V30 24 1 24 25
M  V30 25 2 25 26
M  V30 26 1 19 27
M  V30 27 2 27 28
M  V30 28 1 28 29
M  V30 29 2 29 30
M  V30 30 1 30 31
M  V30 31 2 31 32
M  V30 32 1 8 33
M  V30 33 2 33 34
M  V30 34 1 33 35
M  V30 35 2 35 36
M  V30 36 1 36 37
M  V30 37 2 37 38
M  V30 38 1 38 39
M  V30 39 2 39 40
M  V30 40 1 40 41
M  V30 41 2 41 42
M  V30 42 1 42 43
M  V30 43 1 13 9
M  V30 44 1 26 21
M  V30 45 1 32 27
M  V30 46 1 43 35
M  V30 47 1 42 37
M  V30 48 1 1 44
M  V30 49 1 1 45
M  V30 50 1 3 46
M  V30 51 1 4 47
M  V30 52 1 5 48
M  V30 53 1 5 49
M  V30 54 1 6 50
M  V30 55 1 6 51
M  V30 56 1 7 52
M  V30 57 1 7 53
M  V30 58 1 8 54 CFG=1
M  V30 59 1 10 55
M  V30 60 1 10 56
M  V30 61 1 11 57
M  V30 62 1 11 58
M  V30 63 1 12 59
M  V30 64 1 12 60
M  V30 65 1 13 61 CFG=1
M  V30 66 1 16 62
M  V30 67 1 20 63
M  V30 68 1 20 64
M  V30 69 1 22 65
M  V30 70 1 23 66
M  V30 71 1 24 67
M  V30 72 1 25 68
M  V30 73 1 26 69
M  V30 74 1 28 70
M  V30 75 1 29 71
M  V30 76 1 30 72
M  V30 77 1 31 73
M  V30 78 1 32 74
M  V30 79 1 38 75
M  V30 80 1 39 76
M  V30 81 1 40 77
M  V30 82 1 41 78
M  V30 END BOND
M  V30 END CTAB
M  END
