
     RDKit          3D

  0  0  0  0  0  0  0  0  0  0999 V3000
M  V30 BEGIN CTAB
M  V30 COUNTS 22 22 0 0 0
M  V30 BEGIN ATOM
M  V30 1 N 2.48466 0.773179 1.94557 0
M  V30 2 C 2.95065 0.206693 1.02379 0
M  V30 3 C 3.5703 -0.458543 -0.0675317 0
M  V30 4 C 2.67358 -1.29258 -0.909472 0
M  V30 5 S 1.33704 -0.514475 -1.75101 0
M  V30 6 C -0.120792 -0.13416 -0.825429 0
M  V30 7 N -0.376435 -0.424428 0.432076 0
M  V30 8 C -1.50579 -0.104158 1.0691 0
M  V30 9 N -1.7419 -0.435308 2.42527 0
M  V30 10 C -2.4939 0.57805 0.392315 0
M  V30 11 C -2.26869 0.901296 -0.923399 0
M  V30 12 N -1.11662 0.547079 -1.4881 0
M  V30 13 N -3.24901 1.61179 -1.69819 0
M  V30 14 H 4.08957 0.280045 -0.772406 0
M  V30 15 H 4.43089 -1.10474 0.337692 0
M  V30 16 H 3.2958 -1.81485 -1.72641 0
M  V30 17 H 2.31515 -2.18258 -0.291765 0
M  V30 18 H -1.43188 0.287846 3.14074 0
M  V30 19 H -2.19112 -1.32791 2.72766 0
M  V30 20 H -3.43266 0.860096 0.873816 0
M  V30 21 H -3.26623 1.57904 -2.72671 0
M  V30 22 H -3.95262 2.16862 -1.1876 0
M  V30 END ATOM
M  V30 BEGIN BOND
M  V30 1 3 1 2
M  V30 2 1 2 3
M  V30 3 1 3 4
M  V30 4 1 4 5
M  V30 5 1 5 6
M  V30 6 2 6 7
M  V30 7 1 7 8
M  V30 8 1 8 9
M  V30 9 2 8 10
M  V30 10 1 10 11
M  V30 11 2 11 12
M  V30 12 1 11 13
M  V30 13 1 12 6
M  V30 14 1 3 14
M  V30 15 1 3 15
M  V30 16 1 4 16
M  V30 17 1 4 17
M  V30 18 1 9 18
M  V30 19 1 9 19
M  V30 20 1 10 20
M  V30 21 1 13 21
M  V30 22 1 13 22
M  V30 END BOND
M  V30 END CTAB
M  END
