
     RDKit          3D

  0  0  0  0  0  0  0  0  0  0999 V3000
M  V30 BEGIN CTAB
M  V30 COUNTS 27 28 0 0 0
M  V30 BEGIN ATOM
M  V30 1 C -3.05201 -1.98527 0.0630158 0
M  V30 2 C -2.01166 -0.942575 0.14856 0
M  V30 3 C -2.24867 0.338637 0.573798 0
M  V30 4 C -1.25278 1.28977 0.641913 0
M  V30 5 C -1.55212 2.66947 1.10916 0
M  V30 6 C 0.0264445 0.949358 0.271974 0
M  V30 7 C 0.300841 -0.336791 -0.162609 0
M  V30 8 C -0.709633 -1.27245 -0.223108 0
M  V30 9 C 1.61198 -0.62375 -0.523637 0
M  V30 10 N 1.89847 -1.9178 -0.963106 0
M  V30 11 C 2.61084 0.344507 -0.451128 0
M  V30 12 C 2.24601 1.59893 -0.00673004 0
M  V30 13 N 0.968235 1.89366 0.349522 0
M  V30 14 N 3.91688 -0.00765122 -0.830157 0
M  V30 15 H -3.76955 -1.80716 0.900338 0
M  V30 16 H -2.57749 -2.98593 0.195744 0
M  V30 17 H -3.55162 -1.91513 -0.911264 0
M  V30 18 H -3.26297 0.626087 0.872268 0
M  V30 19 H -1.68203 2.66955 2.21765 0
M  V30 20 H -2.54963 3.01798 0.710686 0
M  V30 21 H -0.808583 3.40082 0.768967 0
M  V30 22 H -0.443531 -2.25423 -0.566809 0
M  V30 23 H 1.94872 -2.12142 -1.97708 0
M  V30 24 H 2.06479 -2.6919 -0.296638 0
M  V30 25 H 3.03279 2.35096 0.0472455 0
M  V30 26 H 4.65045 -0.335241 -0.142116 0
M  V30 27 H 4.19583 0.0475598 -1.81646 0
M  V30 END ATOM
M  V30 BEGIN BOND
M  V30 1 1 1 2
M  V30 2 2 2 3
M  V30 3 1 3 4
M  V30 4 1 4 5
M  V30 5 2 4 6
M  V30 6 1 6 7
M  V30 7 2 7 8
M  V30 8 1 7 9
M  V30 9 1 9 10
M  V30 10 2 9 11
M  V30 11 1 11 12
M  V30 12 2 12 13
M  V30 13 1 11 14
M  V30 14 1 8 2
M  V30 15 1 13 6
M  V30 16 1 1 15
M  V30 17 1 1 16
M  V30 18 1 1 17
M  V30 19 1 3 18
M  V30 20 1 5 19
M  V30 21 1 5 20
M  V30 22 1 5 21
M  V30 23 1 8 22
M  V30 24 1 10 23
M  V30 25 1 10 24
M  V30 26 1 12 25
M  V30 27 1 14 26
M  V30 28 1 14 27
M  V30 END BOND
M  V30 END CTAB
M  END
