
     RDKit          3D

  0  0  0  0  0  0  0  0  0  0999 V3000
M  V30 BEGIN CTAB
M  V30 COUNTS 23 23 0 0 0
M  V30 BEGIN ATOM
M  V30 1 N -3.39554 -0.76292 -0.248314 0
M  V30 2 N -2.19828 -0.229541 -0.792503 0
M  V30 3 C -1.98609 1.16869 -0.772685 0
M  V30 4 O -2.87359 1.90228 -0.268069 0
M  V30 5 C -0.783669 1.84435 -1.30626 0
M  V30 6 S 0.513479 1.9873 -0.0225522 0
M  V30 7 C 1.05897 0.311301 0.345134 0
M  V30 8 C 0.460164 -0.421185 1.31888 0
M  V30 9 C 0.843258 -1.7225 1.63928 0
M  V30 10 N 1.87274 -2.24193 0.913433 0
M  V30 11 C 2.48679 -1.53774 -0.0601554 0
M  V30 12 C 2.09902 -0.248523 -0.369643 0
M  V30 13 N 2.77268 0.456637 -1.40115 0
M  V30 14 H -3.16665 -0.910695 0.778842 0
M  V30 15 H -4.15306 -0.0268141 -0.292981 0
M  V30 16 H -1.53145 -0.930367 -1.18175 0
M  V30 17 H -0.359724 1.26417 -2.14298 0
M  V30 18 H -1.01563 2.85728 -1.69839 0
M  V30 19 H -0.363364 0.00280963 1.89411 0
M  V30 20 H 0.34538 -2.27814 2.42174 0
M  V30 21 H 3.314 -1.97321 -0.637183 0
M  V30 22 H 3.12002 1.41501 -1.1915 0
M  V30 23 H 2.94054 0.073742 -2.35503 0
M  V30 END ATOM
M  V30 BEGIN BOND
M  V30 1 1 1 2
M  V30 2 1 2 3
M  V30 3 2 3 4
M  V30 4 1 3 5
M  V30 5 1 5 6
M  V30 6 1 6 7
M  V30 7 2 7 8
M  V30 8 1 8 9
M  V30 9 2 9 10
M  V30 10 1 10 11
M  V30 11 2 11 12
M  V30 12 1 12 13
M  V30 13 1 12 7
M  V30 14 1 1 14
M  V30 15 1 1 15
M  V30 16 1 2 16
M  V30 17 1 5 17
M  V30 18 1 5 18
M  V30 19 1 8 19
M  V30 20 1 9 20
M  V30 21 1 11 21
M  V30 22 1 13 22
M  V30 23 1 13 23
M  V30 END BOND
M  V30 END CTAB
M  END
