
     RDKit          3D

  0  0  0  0  0  0  0  0  0  0999 V3000
M  V30 BEGIN CTAB
M  V30 COUNTS 27 28 0 0 0
M  V30 BEGIN ATOM
M  V30 1 N 4.52505 -0.929539 0.871966 0
M  V30 2 C 3.25705 -0.568666 0.334164 0
M  V30 3 N 2.33475 -1.5091 -0.0137577 0
M  V30 4 C 1.16613 -1.07938 -0.51906 0
M  V30 5 C 0.89511 0.289443 -0.685118 0
M  V30 6 C -0.447245 0.634848 -1.13219 0
M  V30 7 C -1.57666 0.109954 -0.350602 0
M  V30 8 C -2.27283 -0.997604 -0.911095 0
M  V30 9 C -3.32089 -1.54467 -0.247718 0
M  V30 10 C -3.7584 -1.07574 0.966465 0
M  V30 11 C -3.09441 -0.0127243 1.5089 0
M  V30 12 C -2.00576 0.569594 0.838531 0
M  V30 13 I -1.14885 2.19397 1.85619 0
M  V30 14 C 1.84196 1.20333 -0.327684 0
M  V30 15 N 1.73715 2.61593 -0.535332 0
M  V30 16 N 3.00596 0.737059 0.178799 0
M  V30 17 H 4.62761 -1.02161 1.89641 0
M  V30 18 H 5.3536 -1.10128 0.273198 0
M  V30 19 H 0.431971 -1.83334 -0.790227 0
M  V30 20 H -0.553059 1.77058 -1.21384 0
M  V30 21 H -0.549237 0.304718 -2.1786 0
M  V30 22 H -1.93472 -1.3808 -1.87744 0
M  V30 23 H -3.85392 -2.39743 -0.689887 0
M  V30 24 H -4.61434 -1.54204 1.48423 0
M  V30 25 H -3.44486 0.357579 2.466 0
M  V30 26 H 1.81452 3.01111 -1.51815 0
M  V30 27 H 1.58431 3.19582 0.315852 0
M  V30 END ATOM
M  V30 BEGIN BOND
M  V30 1 1 1 2
M  V30 2 2 2 3
M  V30 3 1 3 4
M  V30 4 2 4 5
M  V30 5 1 5 6
M  V30 6 1 6 7
M  V30 7 2 7 8
M  V30 8 1 8 9
M  V30 9 2 9 10
M  V30 10 1 10 11
M  V30 11 2 11 12
M  V30 12 1 12 13
M  V30 13 1 5 14
M  V30 14 1 14 15
M  V30 15 2 14 16
M  V30 16 1 16 2
M  V30 17 1 12 7
M  V30 18 1 1 17
M  V30 19 1 1 18
M  V30 20 1 4 19
M  V30 21 1 6 20
M  V30 22 1 6 21
M  V30 23 1 8 22
M  V30 24 1 9 23
M  V30 25 1 10 24
M  V30 26 1 11 25
M  V30 27 1 15 26
M  V30 28 1 15 27
M  V30 END BOND
M  V30 END CTAB
M  END
