
     RDKit          3D

  0  0  0  0  0  0  0  0  0  0999 V3000
M  V30 BEGIN CTAB
M  V30 COUNTS 22 22 0 0 0
M  V30 BEGIN ATOM
M  V30 1 N 4.19193 0.00416216 -1.14479 0
M  V30 2 N 3.28053 -0.0628214 -0.0695467 0
M  V30 3 C 1.88477 -0.0662827 -0.281251 0
M  V30 4 O 1.49873 -0.00678978 -1.4732 0
M  V30 5 C 0.952365 -0.136542 0.851193 0
M  V30 6 C -0.461709 -0.131182 0.470723 0
M  V30 7 C -1.19505 -1.26722 0.209319 0
M  V30 8 C -2.5158 -1.16457 -0.140542 0
M  V30 9 O -3.20847 -2.33862 -0.393136 0
M  V30 10 N -3.07863 0.0511699 -0.223671 0
M  V30 11 C -2.37829 1.18666 0.028819 0
M  V30 12 N -1.08372 1.06583 0.370605 0
M  V30 13 N -3.03959 2.43107 -0.0791803 0
M  V30 14 H 5.1295 -0.355492 -0.859084 0
M  V30 15 H 4.31964 1.00767 -1.42353 0
M  V30 16 H 3.62336 -0.112195 0.92412 0
M  V30 17 H 1.14083 -1.12369 1.37006 0
M  V30 18 H 1.18999 0.631127 1.64141 0
M  V30 19 H -0.703878 -2.24233 0.286694 0
M  V30 20 H -3.02074 -3.15708 0.171994 0
M  V30 21 H -2.46522 3.29879 -0.116861 0
M  V30 22 H -4.06054 2.48835 -0.120143 0
M  V30 END ATOM
M  V30 BEGIN BOND
M  V30 1 1 1 2
M  V30 2 1 2 3
M  V30 3 2 3 4
M  V30 4 1 3 5
M  V30 5 1 5 6
M  V30 6 2 6 7
M  V30 7 1 7 8
M  V30 8 1 8 9
M  V30 9 2 8 10
M  V30 10 1 10 11
M  V30 11 2 11 12
M  V30 12 1 11 13
M  V30 13 1 12 6
M  V30 14 1 1 14
M  V30 15 1 1 15
M  V30 16 1 2 16
M  V30 17 1 5 17
M  V30 18 1 5 18
M  V30 19 1 7 19
M  V30 20 1 9 20
M  V30 21 1 13 21
M  V30 22 1 13 22
M  V30 END BOND
M  V30 END CTAB
M  END
