
     RDKit          3D

  0  0  0  0  0  0  0  0  0  0999 V3000
M  V30 BEGIN CTAB
M  V30 COUNTS 17 17 0 0 0
M  V30 BEGIN ATOM
M  V30 1 N 3.35531 0.301383 -0.177031 0
M  V30 2 C 1.96832 0.0225411 -0.100305 0
M  V30 3 N 1.05343 1.00724 0.054823 0
M  V30 4 C -0.257203 0.738103 0.125341 0
M  V30 5 N -1.19007 1.81785 0.288823 0
M  V30 6 C -0.754701 -0.54398 0.0461135 0
M  V30 7 C -2.20845 -0.784963 0.133557 0
M  V30 8 Br -3.08676 -0.313739 -1.52489 0
M  V30 9 C 0.176615 -1.54405 -0.111808 0
M  V30 10 N 1.48249 -1.23944 -0.179065 0
M  V30 11 H 3.67975 1.14678 -0.670576 0
M  V30 12 H 4.03969 -0.335283 0.256689 0
M  V30 13 H -1.2115 2.52861 -0.454324 0
M  V30 14 H -1.77056 1.78863 1.15397 0
M  V30 15 H -2.41125 -1.86007 0.399284 0
M  V30 16 H -2.70652 -0.175734 0.938442 0
M  V30 17 H -0.15859 -2.55387 -0.179043 0
M  V30 END ATOM
M  V30 BEGIN BOND
M  V30 1 1 1 2
M  V30 2 2 2 3
M  V30 3 1 3 4
M  V30 4 1 4 5
M  V30 5 2 4 6
M  V30 6 1 6 7
M  V30 7 1 7 8
M  V30 8 1 6 9
M  V30 9 2 9 10
M  V30 10 1 10 2
M  V30 11 1 1 11
M  V30 12 1 1 12
M  V30 13 1 5 13
M  V30 14 1 5 14
M  V30 15 1 7 15
M  V30 16 1 7 16
M  V30 17 1 9 17
M  V30 END BOND
M  V30 END CTAB
M  END
