
     RDKit          3D

  0  0  0  0  0  0  0  0  0  0999 V3000
M  V30 BEGIN CTAB
M  V30 COUNTS 32 32 0 0 0
M  V30 BEGIN ATOM
M  V30 1 N 6.10277 -0.469229 0.0717928 0
M  V30 2 C 4.75619 -0.968932 0.380995 0
M  V30 3 C 3.80201 0.136751 -0.0914102 0
M  V30 4 C 2.35905 -0.285115 0.186106 0
M  V30 5 O 1.52167 0.727442 -0.248039 0
M  V30 6 C 0.158912 0.767679 -0.193555 0
M  V30 7 C -0.585318 0.278949 -1.24132 0
M  V30 8 Br 0.307045 -0.452241 -2.76413 0
M  V30 9 C -1.96442 0.286909 -1.25528 0
M  V30 10 C -2.63462 0.800365 -0.186911 0
M  V30 11 C -4.13631 0.826045 -0.166236 0
M  V30 12 C -4.68046 -0.445058 0.447752 0
M  V30 13 N -4.2663 -1.61895 -0.298772 0
M  V30 14 C -1.90981 1.29849 0.880236 0
M  V30 15 C -0.532231 1.28389 0.880165 0
M  V30 16 Br 0.349842 1.99814 2.40679 0
M  V30 17 H 6.25124 0.366918 0.69424 0
M  V30 18 H 6.03303 -0.105115 -0.924878 0
M  V30 19 H 4.59998 -1.11158 1.44906 0
M  V30 20 H 4.52304 -1.85979 -0.239897 0
M  V30 21 H 4.06004 1.08928 0.371132 0
M  V30 22 H 3.98268 0.223767 -1.18293 0
M  V30 23 H 2.22416 -0.634822 1.20489 0
M  V30 24 H 2.18092 -1.17721 -0.485337 0
M  V30 25 H -2.5497 -0.0994277 -2.08345 0
M  V30 26 H -4.51933 1.67598 0.411453 0
M  V30 27 H -4.47624 0.963442 -1.21241 0
M  V30 28 H -4.31139 -0.482231 1.48951 0
M  V30 29 H -5.77942 -0.380985 0.409005 0
M  V30 30 H -5.02457 -2.33832 -0.153832 0
M  V30 31 H -3.39073 -1.9999 0.123872 0
M  V30 32 H -2.45174 1.70486 1.7255 0
M  V30 END ATOM
M  V30 BEGIN BOND
M  V30 1 1 1 2
M  V30 2 1 2 3
M  V30 3 1 3 4
M  V30 4 1 4 5
M  V30 5 1 5 6
M  V30 6 2 6 7
M  V30 7 1 7 8
M  V30 8 1 7 9
M  V30 9 2 9 10
M  V30 10 1 10 11
M  V30 11 1 11 12
M  V30 12 1 12 13
M  V30 13 1 10 14
M  V30 14 2 14 15
M  V30 15 1 15 16
M  V30 16 1 15 6
M  V30 17 1 1 17
M  V30 18 1 1 18
M  V30 19 1 2 19
M  V30 20 1 2 20
M  V30 21 1 3 21
M  V30 22 1 3 22
M  V30 23 1 4 23
M  V30 24 1 4 24
M  V30 25 1 9 25
M  V30 26 1 11 26
M  V30 27 1 11 27
M  V30 28 1 12 28
M  V30 29 1 12 29
M  V30 30 1 13 30
M  V30 31 1 13 31
M  V30 32 1 14 32
M  V30 END BOND
M  V30 END CTAB
M  END
