
     RDKit          3D

  0  0  0  0  0  0  0  0  0  0999 V3000
M  V30 BEGIN CTAB
M  V30 COUNTS 48 52 0 0 0
M  V30 BEGIN ATOM
M  V30 1 N 5.75621 -1.24097 -2.18577 0
M  V30 2 N 5.25573 -0.0891632 -1.57262 0
M  V30 3 C 4.22113 -0.146147 -0.600735 0
M  V30 4 N 2.91434 -0.0205019 -0.92795 0
M  V30 5 C 1.99015 -0.102107 0.0749174 0
M  V30 6 C 0.65102 0.0185986 -0.257764 0
M  V30 7 C -0.347518 -0.0581171 0.683691 0
M  V30 8 C 0.0396053 -0.264155 1.97957 0
M  V30 9 C 1.35576 -0.386616 2.3497 0
M  V30 10 C 2.33855 -0.305181 1.39043 0
M  V30 11 N 3.6435 -0.428236 1.6833 0
M  V30 12 C 4.57935 -0.35279 0.714911 0
M  V30 13 N 5.96681 -0.482965 0.994639 0
M  V30 14 N 6.67152 0.672785 1.22673 0
M  V30 15 C -1.78501 0.081448 0.314219 0
M  V30 16 C -1.92937 0.597078 -1.09844 0
M  V30 17 C -3.39683 0.766914 -1.3929 0
M  V30 18 C -4.02425 -0.594534 -1.32288 0
M  V30 19 C -3.91335 -1.10079 0.114712 0
M  V30 20 C -2.42343 -1.27756 0.397915 0
M  V30 21 C -4.53296 -0.166263 1.09823 0
M  V30 22 C -3.90086 1.20615 0.966097 0
M  V30 23 C -2.42005 1.07093 1.24472 0
M  V30 24 C -4.04524 1.72614 -0.439822 0
M  V30 25 H 6.55355 -1.61803 -1.65381 0
M  V30 26 H 5.03878 -2.00105 -2.17449 0
M  V30 27 H 5.64686 0.832867 -1.81727 0
M  V30 28 H 0.350265 0.190094 -1.28995 0
M  V30 29 H -0.704824 -0.332786 2.77589 0
M  V30 30 H 1.65535 -0.54419 3.39774 0
M  V30 31 H 6.42576 -1.38661 1.02935 0
M  V30 32 H 6.99329 0.818193 2.21238 0
M  V30 33 H 6.25291 1.53459 0.80897 0
M  V30 34 H -1.35796 1.55888 -1.15424 0
M  V30 35 H -1.55104 -0.157634 -1.83314 0
M  V30 36 H -3.57046 1.13218 -2.44021 0
M  V30 37 H -5.06011 -0.656017 -1.6108 0
M  V30 38 H -3.36414 -1.2662 -1.92702 0
M  V30 39 H -4.37481 -2.10973 0.187664 0
M  V30 40 H -1.96859 -1.90818 -0.380421 0
M  V30 41 H -2.29868 -1.73574 1.39578 0
M  V30 42 H -4.43169 -0.561314 2.10484 0
M  V30 43 H -5.61052 -0.0847488 0.864677 0
M  V30 44 H -4.36056 1.85748 1.70174 0
M  V30 45 H -2.30783 0.768981 2.30992 0
M  V30 46 H -1.87749 2.04317 1.14562 0
M  V30 47 H -3.62777 2.72655 -0.521671 0
M  V30 48 H -5.11508 1.77528 -0.659361 0
M  V30 END ATOM
M  V30 BEGIN BOND
M  V30 1 1 1 2
M  V30 2 1 2 3
M  V30 3 2 3 4
M  V30 4 1 4 5
M  V30 5 2 5 6
M  V30 6 1 6 7
M  V30 7 2 7 8
M  V30 8 1 8 9
M  V30 9 2 9 10
M  V30 10 1 10 11
M  V30 11 2 11 12
M  V30 12 1 12 13
M  V30 13 1 13 14
M  V30 14 1 7 15
M  V30 15 1 15 16
M  V30 16 1 16 17
M  V30 17 1 17 18
M  V30 18 1 18 19
M  V30 19 1 19 20
M  V30 20 1 19 21
M  V30 21 1 21 22
M  V30 22 1 22 23
M  V30 23 1 22 24
M  V30 24 1 12 3
M  V30 25 1 23 15
M  V30 26 1 10 5
M  V30 27 1 20 15
M  V30 28 1 24 17
M  V30 29 1 1 25
M  V30 30 1 1 26
M  V30 31 1 2 27
M  V30 32 1 6 28
M  V30 33 1 8 29
M  V30 34 1 9 30
M  V30 35 1 13 31
M  V30 36 1 14 32
M  V30 37 1 14 33
M  V30 38 1 16 34
M  V30 39 1 16 35
M  V30 40 1 17 36
M  V30 41 1 18 37
M  V30 42 1 18 38
M  V30 43 1 19 39
M  V30 44 1 20 40
M  V30 45 1 20 41
M  V30 46 1 21 42
M  V30 47 1 21 43
M  V30 48 1 22 44
M  V30 49 1 23 45
M  V30 50 1 23 46
M  V30 51 1 24 47
M  V30 52 1 24 48
M  V30 END BOND
M  V30 END CTAB
M  END
