
     RDKit          3D

  0  0  0  0  0  0  0  0  0  0999 V3000
M  V30 BEGIN CTAB
M  V30 COUNTS 34 36 0 0 0
M  V30 BEGIN ATOM
M  V30 1 N 4.29289 -2.46058 -0.466868 0
M  V30 2 C 3.59787 -1.21872 -0.306606 0
M  V30 3 N 2.2568 -1.15636 -0.398287 0
M  V30 4 C 1.61096 0.0244045 -0.24477 0
M  V30 5 C 2.30934 1.1812 0.00726178 0
M  V30 6 N 1.40689 2.16041 0.106538 0
M  V30 7 C 0.187929 1.6228 -0.0788888 0
M  V30 8 N 0.297825 0.299984 -0.297708 0
M  V30 9 C -0.795049 -0.651117 -0.544441 0 CFG=2
M  V30 10 O -1.73875 -0.00156499 -1.31821 0
M  V30 11 C -2.97283 -0.189289 -0.738959 0 CFG=2
M  V30 12 C -3.96745 0.888205 -1.03827 0
M  V30 13 O -3.59639 2.14223 -0.625082 0
M  V30 14 C -2.7343 -0.375543 0.745521 0 CFG=1
M  V30 15 O -3.7339 -1.10475 1.35652 0
M  V30 16 C -1.43518 -1.07282 0.711541 0
M  V30 17 C -0.960751 -1.88808 1.60679 0
M  V30 18 C 3.68603 1.10891 0.0999579 0
M  V30 19 N 4.38143 2.31277 0.359866 0
M  V30 20 N 4.27707 -0.082078 -0.0594979 0
M  V30 21 H 5.26345 -2.53395 -0.823228 0
M  V30 22 H 3.80176 -3.33721 -0.213613 0
M  V30 23 H -0.753871 2.18268 -0.0546428 0
M  V30 24 H -0.333882 -1.48808 -1.10581 0
M  V30 25 H -3.39032 -1.14456 -1.12074 0
M  V30 26 H -4.92093 0.603455 -0.535922 0
M  V30 27 H -4.17617 0.853928 -2.12769 0
M  V30 28 H -3.42796 2.70769 -1.42494 0
M  V30 29 H -2.58849 0.588588 1.27345 0
M  V30 30 H -3.61701 -1.02012 2.32914 0
M  V30 31 H 0.0089351 -2.34318 1.47545 0
M  V30 32 H -1.51701 -2.13157 2.49912 0
M  V30 33 H 4.74237 2.94418 -0.395563 0
M  V30 34 H 4.53869 2.57815 1.34859 0
M  V30 END ATOM
M  V30 BEGIN BOND
M  V30 1 1 1 2
M  V30 2 2 2 3
M  V30 3 1 3 4
M  V30 4 2 4 5
M  V30 5 1 5 6
M  V30 6 2 6 7
M  V30 7 1 7 8
M  V30 8 1 8 9
M  V30 9 1 9 10
M  V30 10 1 10 11
M  V30 11 1 11 12
M  V30 12 1 12 13
M  V30 13 1 11 14
M  V30 14 1 14 15
M  V30 15 1 14 16
M  V30 16 2 16 17 CFG=2
M  V30 17 1 5 18
M  V30 18 1 18 19
M  V30 19 2 18 20
M  V30 20 1 20 2
M  V30 21 1 8 4
M  V30 22 1 16 9
M  V30 23 1 1 21
M  V30 24 1 1 22
M  V30 25 1 7 23
M  V30 26 1 9 24 CFG=3
M  V30 27 1 11 25 CFG=3
M  V30 28 1 12 26
M  V30 29 1 12 27
M  V30 30 1 13 28
M  V30 31 1 14 29 CFG=1
M  V30 32 1 15 30
M  V30 33 1 17 31
M  V30 34 1 17 32
M  V30 35 1 19 33
M  V30 36 1 19 34
M  V30 END BOND
M  V30 END CTAB
M  END
