
     RDKit          3D

  0  0  0  0  0  0  0  0  0  0999 V3000
M  V30 BEGIN CTAB
M  V30 COUNTS 24 24 0 0 0
M  V30 BEGIN ATOM
M  V30 1 O 3.09179 0.908112 -0.102168 0
M  V30 2 C 1.86726 0.541571 -0.0586238 0
M  V30 3 N 1.50457 -0.828355 -0.0955071 0
M  V30 4 C 2.55383 -1.84362 -0.185267 0
M  V30 5 C 0.15496 -1.24276 -0.0479229 0
M  V30 6 O -0.143764 -2.48389 -0.0827517 0
M  V30 7 C -0.916025 -0.259769 0.0416101 0
M  V30 8 C -2.18866 -0.60742 0.0881586 0
M  V30 9 N -3.2493 0.322908 0.175123 0
M  V30 10 N -2.50297 -1.99123 0.0484315 0
M  V30 11 C -0.529507 1.14258 0.0786427 0
M  V30 12 O -1.41419 2.06105 0.156802 0
M  V30 13 N 0.839735 1.51771 0.0285797 0
M  V30 14 C 1.20636 2.92693 0.0668163 0
M  V30 15 H 3.54053 -1.35015 -0.215466 0
M  V30 16 H 2.44588 -2.47584 0.728253 0
M  V30 17 H 2.41449 -2.48623 -1.0693 0
M  V30 18 H -3.83239 0.514761 -0.692072 0
M  V30 19 H -3.50298 0.840828 1.04166 0
M  V30 20 H -2.845 -2.45251 -0.838176 0
M  V30 21 H -2.41993 -2.63157 0.871202 0
M  V30 22 H 1.72208 3.20881 0.984395 0
M  V30 23 H 1.90435 3.13499 -0.796181 0
M  V30 24 H 0.298882 3.5331 -0.126235 0
M  V30 END ATOM
M  V30 BEGIN BOND
M  V30 1 2 1 2
M  V30 2 1 2 3
M  V30 3 1 3 4
M  V30 4 1 3 5
M  V30 5 2 5 6
M  V30 6 1 5 7
M  V30 7 2 7 8 CFG=2
M  V30 8 1 8 9
M  V30 9 1 8 10
M  V30 10 1 7 11
M  V30 11 2 11 12
M  V30 12 1 11 13
M  V30 13 1 13 14
M  V30 14 1 13 2
M  V30 15 1 4 15
M  V30 16 1 4 16
M  V30 17 1 4 17
M  V30 18 1 9 18
M  V30 19 1 9 19
M  V30 20 1 10 20
M  V30 21 1 10 21
M  V30 22 1 14 22
M  V30 23 1 14 23
M  V30 24 1 14 24
M  V30 END BOND
M  V30 END CTAB
M  END
