
     RDKit          3D

  0  0  0  0  0  0  0  0  0  0999 V3000
M  V30 BEGIN CTAB
M  V30 COUNTS 39 40 0 0 0
M  V30 BEGIN ATOM
M  V30 1 O 1.40817 -0.915576 1.32828 0
M  V30 2 C 1.15467 -1.40597 0.207453 0
M  V30 3 O 2.09576 -2.15203 -0.459512 0
M  V30 4 C 3.37486 -2.4284 0.017528 0
M  V30 5 C 4.1653 -1.20229 0.24102 0
M  V30 6 N 4.6967 -0.521886 -0.786458 0
M  V30 7 C 5.42547 0.595645 -0.549938 0
M  V30 8 N 5.95242 1.25548 -1.69962 0
M  V30 9 N 5.61821 1.02334 0.691413 0
M  V30 10 C 5.09791 0.361905 1.73997 0
M  V30 11 N 4.37914 -0.742881 1.48372 0
M  V30 12 N 5.28094 0.78608 3.08164 0
M  V30 13 C -0.208749 -1.15188 -0.381465 0
M  V30 14 O -0.93944 -0.375522 0.510607 0
M  V30 15 C -2.226 0.0628406 0.329455 0
M  V30 16 C -2.81591 0.832787 1.32025 0
M  V30 17 C -4.12126 1.29817 1.17547 0
M  V30 18 C -4.82921 0.988798 0.0367806 0
M  V30 19 C -4.23333 0.21654 -0.953641 0
M  V30 20 C -2.94031 -0.249677 -0.820193 0
M  V30 21 C -5.00995 -0.0975172 -2.15472 0
M  V30 22 C -6.20599 1.45727 -0.158612 0
M  V30 23 H 3.93749 -3.02662 -0.74656 0
M  V30 24 H 3.34792 -3.04903 0.94158 0
M  V30 25 H 6.87149 1.74622 -1.69485 0
M  V30 26 H 5.41328 1.25875 -2.58929 0
M  V30 27 H 5.35936 0.124481 3.88395 0
M  V30 28 H 5.3392 1.81576 3.26637 0
M  V30 29 H -0.0403904 -0.692382 -1.36084 0
M  V30 30 H -0.682252 -2.15338 -0.584088 0
M  V30 31 H -2.27233 1.08917 2.2302 0
M  V30 32 H -4.58096 1.8999 1.95087 0
M  V30 33 H -2.47477 -0.851164 -1.59066 0
M  V30 34 H -5.12674 0.790885 -2.81767 0
M  V30 35 H -4.45631 -0.85155 -2.75037 0
M  V30 36 H -5.99374 -0.560594 -1.92724 0
M  V30 37 H -6.62999 1.64067 0.873028 0
M  V30 38 H -6.24912 2.44769 -0.654843 0
M  V30 39 H -6.88151 0.735969 -0.629018 0
M  V30 END ATOM
M  V30 BEGIN BOND
M  V30 1 2 1 2
M  V30 2 1 2 3
M  V30 3 1 3 4
M  V30 4 1 4 5
M  V30 5 2 5 6
M  V30 6 1 6 7
M  V30 7 1 7 8
M  V30 8 2 7 9
M  V30 9 1 9 10
M  V30 10 2 10 11
M  V30 11 1 10 12
M  V30 12 1 2 13
M  V30 13 1 13 14
M  V30 14 1 14 15
M  V30 15 2 15 16
M  V30 16 1 16 17
M  V30 17 2 17 18
M  V30 18 1 18 19
M  V30 19 2 19 20
M  V30 20 1 19 21
M  V30 21 1 18 22
M  V30 22 1 11 5
M  V30 23 1 20 15
M  V30 24 1 4 23
M  V30 25 1 4 24
M  V30 26 1 8 25
M  V30 27 1 8 26
M  V30 28 1 12 27
M  V30 29 1 12 28
M  V30 30 1 13 29
M  V30 31 1 13 30
M  V30 32 1 16 31
M  V30 33 1 17 32
M  V30 34 1 20 33
M  V30 35 1 21 34
M  V30 36 1 21 35
M  V30 37 1 21 36
M  V30 38 1 22 37
M  V30 39 1 22 38
M  V30 40 1 22 39
M  V30 END BOND
M  V30 END CTAB
M  END
