
     RDKit          3D

  0  0  0  0  0  0  0  0  0  0999 V3000
M  V30 BEGIN CTAB
M  V30 COUNTS 70 73 0 0 0
M  V30 BEGIN ATOM
M  V30 1 C 10.9817 3.1091 -2.28623 0
M  V30 2 C 10.2514 2.96492 -0.949516 0
M  V30 3 O 8.94293 2.43865 -1.2149 0
M  V30 4 C 8.06476 2.20974 -0.177366 0
M  V30 5 O 8.45313 2.47696 0.986898 0
M  V30 6 C 6.68991 1.667 -0.357934 0 CFG=1
M  V30 7 N 6.41856 1.40442 -1.75549 0
M  V30 8 C 6.61744 0.376523 0.394626 0
M  V30 9 C 5.28913 -0.284813 0.30348 0
M  V30 10 C 4.97962 -1.19219 -0.687675 0
M  V30 11 C 3.74293 -1.79206 -0.755371 0
M  V30 12 C 2.72641 -1.52141 0.171451 0
M  V30 13 C 3.04443 -0.618669 1.15199 0
M  V30 14 C 4.30292 -0.00511175 1.22494 0
M  V30 15 C 1.44287 -2.18871 0.0441422 0
M  V30 16 N 1.18294 -3.07637 -0.939384 0
M  V30 17 C 0.0158847 -3.7125 -1.09631 0
M  V30 18 N -0.231876 -4.63871 -2.13673 0
M  V30 19 N -0.964211 -3.43431 -0.195122 0
M  V30 20 C -0.805924 -2.57555 0.808431 0
M  V30 21 O -1.81698 -2.3103 1.71004 0
M  V30 22 C -3.08599 -2.91178 1.6542 0 CFG=2
M  V30 23 C -4.08434 -1.85211 1.38941 0
M  V30 24 C -5.08255 -2.02224 0.46716 0
M  V30 25 C -6.02167 -1.03687 0.208756 0
M  V30 26 C -5.96969 0.167503 0.892689 0
M  V30 27 C -4.97662 0.351742 1.81835 0
M  V30 28 C -4.03905 -0.652982 2.06507 0
M  V30 29 C -6.92998 1.23509 0.657704 0
M  V30 30 C -7.25333 2.05988 1.70716 0
M  V30 31 C -8.17308 3.0985 1.51532 0
M  V30 32 C -8.75172 3.29069 0.273881 0
M  V30 33 C -8.40491 2.44985 -0.745039 0
M  V30 34 O -8.96101 2.61306 -1.98982 0
M  V30 35 C -8.65938 1.79196 -3.09297 0
M  V30 36 C -7.49607 1.41032 -0.587559 0
M  V30 37 C -3.4357 -3.6564 2.91655 0
M  V30 38 F -4.70234 -4.1975 2.72944 0
M  V30 39 F -3.36665 -2.87703 4.03027 0
M  V30 40 F -2.58233 -4.72775 3.09614 0
M  V30 41 C 0.426318 -1.94416 0.923005 0
M  V30 42 H 11.7982 3.87584 -2.14076 0
M  V30 43 H 11.4167 2.14981 -2.60691 0
M  V30 44 H 10.2785 3.4807 -3.04763 0
M  V30 45 H 10.1603 3.95169 -0.451673 0
M  V30 46 H 10.8084 2.30467 -0.254852 0
M  V30 47 H 5.96552 2.3773 0.0893528 0
M  V30 48 H 5.4038 1.18141 -1.85871 0
M  V30 49 H 6.94529 0.549953 -2.04266 0
M  V30 50 H 6.92652 0.551774 1.4529 0
M  V30 51 H 7.37663 -0.314684 -0.0275736 0
M  V30 52 H 5.73698 -1.42462 -1.41734 0
M  V30 53 H 3.49102 -2.51553 -1.54298 0
M  V30 54 H 2.30842 -0.360949 1.90279 0
M  V30 55 H 4.51476 0.712034 2.02734 0
M  V30 56 H 0.364609 -5.47665 -2.23552 0
M  V30 57 H -1.00609 -4.48834 -2.80379 0
M  V30 58 H -3.10146 -3.62255 0.796613 0
M  V30 59 H -5.11228 -2.97206 -0.062941 0
M  V30 60 H -6.79461 -1.17451 -0.508545 0
M  V30 61 H -4.89658 1.27652 2.37648 0
M  V30 62 H -3.27342 -0.459031 2.8061 0
M  V30 63 H -6.80846 1.91374 2.66741 0
M  V30 64 H -8.43039 3.75035 2.34028 0
M  V30 65 H -9.46017 4.09892 0.145707 0
M  V30 66 H -9.35662 2.03013 -3.92906 0
M  V30 67 H -7.61449 1.98336 -3.39244 0
M  V30 68 H -8.74368 0.72511 -2.78158 0
M  V30 69 H -7.22887 0.748578 -1.40575 0
M  V30 70 H 0.553612 -1.25191 1.73202 0
M  V30 END ATOM
M  V30 BEGIN BOND
M  V30 1 1 1 2
M  V30 2 1 2 3
M  V30 3 1 3 4
M  V30 4 2 4 5
M  V30 5 1 4 6
M  V30 6 1 6 7
M  V30 7 1 6 8
M  V30 8 1 8 9
M  V30 9 2 9 10
M  V30 10 1 10 11
M  V30 11 2 11 12
M  V30 12 1 12 13
M  V30 13 2 13 14
M  V30 14 1 12 15
M  V30 15 2 15 16
M  V30 16 1 16 17
M  V30 17 1 17 18
M  V30 18 2 17 19
M  V30 19 1 19 20
M  V30 20 1 20 21
M  V30 21 1 21 22
M  V30 22 1 22 23
M  V30 23 2 23 24
M  V30 24 1 24 25
M  V30 25 2 25 26
M  V30 26 1 26 27
M  V30 27 2 27 28
M  V30 28 1 26 29
M  V30 29 2 29 30
M  V30 30 1 30 31
M  V30 31 2 31 32
M  V30 32 1 32 33
M  V30 33 1 33 34
M  V30 34 1 34 35
M  V30 35 2 33 36
M  V30 36 1 22 37
M  V30 37 1 37 38
M  V30 38 1 37 39
M  V30 39 1 37 40
M  V30 40 2 20 41
M  V30 41 1 14 9
M  V30 42 1 41 15
M  V30 43 1 28 23
M  V30 44 1 36 29
M  V30 45 1 1 42
M  V30 46 1 1 43
M  V30 47 1 1 44
M  V30 48 1 2 45
M  V30 49 1 2 46
M  V30 50 1 6 47 CFG=1
M  V30 51 1 7 48
M  V30 52 1 7 49
M  V30 53 1 8 50
M  V30 54 1 8 51
M  V30 55 1 10 52
M  V30 56 1 11 53
M  V30 57 1 13 54
M  V30 58 1 14 55
M  V30 59 1 18 56
M  V30 60 1 18 57
M  V30 61 1 22 58 CFG=3
M  V30 62 1 24 59
M  V30 63 1 25 60
M  V30 64 1 27 61
M  V30 65 1 28 62
M  V30 66 1 30 63
M  V30 67 1 31 64
M  V30 68 1 32 65
M  V30 69 1 35 66
M  V30 70 1 35 67
M  V30 71 1 35 68
M  V30 72 1 36 69
M  V30 73 1 41 70
M  V30 END BOND
M  V30 END CTAB
M  END
