
     RDKit          3D

  0  0  0  0  0  0  0  0  0  0999 V3000
M  V30 BEGIN CTAB
M  V30 COUNTS 19 19 0 0 0
M  V30 BEGIN ATOM
M  V30 1 C -1.09718 0.430714 0.163141 0 CFG=1
M  V30 2 N -2.29503 0.691963 -0.515629 0
M  V30 3 C -0.860722 -1.00564 0.544106 0
M  V30 4 C 0.653255 -1.22364 0.435966 0
M  V30 5 C 1.19894 0.180179 0.181599 0 CFG=1
M  V30 6 N 2.47335 0.172308 -0.457869 0
M  V30 7 C 0.0887972 0.713869 -0.737093 0
M  V30 8 H -0.967223 1.04152 1.06591 0
M  V30 9 H -2.73494 1.56173 -0.124375 0
M  V30 10 H -2.96869 -0.0891648 -0.55285 0
M  V30 11 H -1.15144 -1.19708 1.59797 0
M  V30 12 H -1.40694 -1.70455 -0.128617 0
M  V30 13 H 0.866581 -1.83286 -0.473348 0
M  V30 14 H 1.07365 -1.68865 1.3261 0
M  V30 15 H 1.17723 0.734386 1.14685 0
M  V30 16 H 2.48423 0.992945 -1.13429 0
M  V30 17 H 3.22583 0.41375 0.242996 0
M  V30 18 H 0.211162 1.76762 -0.969273 0
M  V30 19 H 0.0291452 0.0405947 -1.61129 0
M  V30 END ATOM
M  V30 BEGIN BOND
M  V30 1 1 1 2
M  V30 2 1 1 3
M  V30 3 1 3 4
M  V30 4 1 4 5
M  V30 5 1 5 6
M  V30 6 1 5 7
M  V30 7 1 7 1
M  V30 8 1 1 8 CFG=1
M  V30 9 1 2 9
M  V30 10 1 2 10
M  V30 11 1 3 11
M  V30 12 1 3 12
M  V30 13 1 4 13
M  V30 14 1 4 14
M  V30 15 1 5 15 CFG=1
M  V30 16 1 6 16
M  V30 17 1 6 17
M  V30 18 1 7 18
M  V30 19 1 7 19
M  V30 END BOND
M  V30 END CTAB
M  END
