
     RDKit          3D

  0  0  0  0  0  0  0  0  0  0999 V3000
M  V30 BEGIN CTAB
M  V30 COUNTS 36 37 0 0 0
M  V30 BEGIN ATOM
M  V30 1 N -0.683925 1.65466 1.68625 0
M  V30 2 C -1.45456 0.457812 1.82905 0
M  V30 3 C -2.01848 -0.018928 0.552972 0
M  V30 4 C -2.8786 -1.27929 0.676539 0
M  V30 5 C -2.94605 -1.78369 -0.75955 0
M  V30 6 C -2.07154 -0.904517 -1.6018 0
M  V30 7 C -1.04931 -0.372266 -0.519735 0
M  V30 8 N -0.155029 -1.46371 -0.23681 0
M  V30 9 S 1.37035 -1.14426 -0.937097 0
M  V30 10 O 2.21458 -2.40974 -0.817826 0
M  V30 11 O 1.12472 -0.980127 -2.43935 0
M  V30 12 C 2.20956 0.232492 -0.366143 0
M  V30 13 C 2.45887 1.29277 -1.20514 0
M  V30 14 C 3.13426 2.41226 -0.761552 0
M  V30 15 Cl 3.43783 3.75016 -1.85574 0
M  V30 16 C 3.5558 2.44299 0.550525 0
M  V30 17 N 3.32268 1.42654 1.37385 0
M  V30 18 C 2.66618 0.335406 0.947246 0
M  V30 19 N 2.45194 -0.710251 1.87675 0
M  V30 20 H -0.43154 2.10328 2.57883 0
M  V30 21 H -1.23124 2.32296 1.10136 0
M  V30 22 H -0.776311 -0.323989 2.231 0
M  V30 23 H -2.26518 0.674263 2.55851 0
M  V30 24 H -2.72928 0.75499 0.143138 0
M  V30 25 H -2.45423 -2.01531 1.36977 0
M  V30 26 H -3.91577 -1.04286 0.981812 0
M  V30 27 H -2.61012 -2.8397 -0.773183 0
M  V30 28 H -3.98137 -1.72265 -1.1669 0
M  V30 29 H -1.54423 -1.45115 -2.37905 0
M  V30 30 H -2.57714 -0.0225038 -1.97105 0
M  V30 31 H -0.610073 0.481198 -1.00654 0
M  V30 32 H -0.532875 -2.32413 -0.675321 0
M  V30 33 H 2.13782 1.30196 -2.25499 0
M  V30 34 H 4.08854 3.34046 0.878065 0
M  V30 35 H 2.20687 -0.474533 2.85255 0
M  V30 36 H 2.53688 -1.70061 1.59402 0
M  V30 END ATOM
M  V30 BEGIN BOND
M  V30 1 1 1 2
M  V30 2 1 2 3
M  V30 3 1 3 4
M  V30 4 1 4 5
M  V30 5 1 5 6
M  V30 6 1 6 7
M  V30 7 1 7 8
M  V30 8 1 8 9
M  V30 9 2 9 10
M  V30 10 2 9 11
M  V30 11 1 9 12
M  V30 12 2 12 13
M  V30 13 1 13 14
M  V30 14 1 14 15
M  V30 15 2 14 16
M  V30 16 1 16 17
M  V30 17 2 17 18
M  V30 18 1 18 19
M  V30 19 1 7 3
M  V30 20 1 18 12
M  V30 21 1 1 20
M  V30 22 1 1 21
M  V30 23 1 2 22
M  V30 24 1 2 23
M  V30 25 1 3 24
M  V30 26 1 4 25
M  V30 27 1 4 26
M  V30 28 1 5 27
M  V30 29 1 5 28
M  V30 30 1 6 29
M  V30 31 1 6 30
M  V30 32 1 7 31
M  V30 33 1 8 32
M  V30 34 1 13 33
M  V30 35 1 16 34
M  V30 36 1 19 35
M  V30 37 1 19 36
M  V30 END BOND
M  V30 END CTAB
M  END
