
     RDKit          3D

  0  0  0  0  0  0  0  0  0  0999 V3000
M  V30 BEGIN CTAB
M  V30 COUNTS 21 20 0 0 0
M  V30 BEGIN ATOM
M  V30 1 N 2.28511 -1.21541 1.84047 0
M  V30 2 C 2.1034 -0.436179 0.672024 0
M  V30 3 N 3.01261 0.390313 0.304162 0
M  V30 4 N 2.81245 1.14116 -0.841526 0
M  V30 5 N 0.932033 -0.551001 -0.103384 0
M  V30 6 C -0.379143 -0.158902 0.364399 0
M  V30 7 C -1.4448 -0.396237 -0.681735 0
M  V30 8 C -2.73983 0.0411087 -0.0913118 0
M  V30 9 C -3.44616 1.00019 -0.658166 0
M  V30 10 H 2.71784 -2.14853 1.74852 0
M  V30 11 H 1.96344 -0.788871 2.74115 0
M  V30 12 H 2.99181 0.722556 -1.76634 0
M  V30 13 H 2.48494 2.11754 -0.780513 0
M  V30 14 H 1.01918 -0.939223 -1.06365 0
M  V30 15 H -0.676625 -0.737504 1.27205 0
M  V30 16 H -0.393703 0.941163 0.578072 0
M  V30 17 H -1.24611 0.156657 -1.61561 0
M  V30 18 H -1.45698 -1.47349 -0.940822 0
M  V30 19 H -3.10628 -0.426879 0.805762 0
M  V30 20 H -3.05694 1.46086 -1.56606 0
M  V30 21 H -4.37625 1.30069 -0.217399 0
M  V30 END ATOM
M  V30 BEGIN BOND
M  V30 1 1 1 2
M  V30 2 2 2 3
M  V30 3 1 3 4
M  V30 4 1 2 5
M  V30 5 1 5 6
M  V30 6 1 6 7
M  V30 7 1 7 8
M  V30 8 2 8 9 CFG=2
M  V30 9 1 1 10
M  V30 10 1 1 11
M  V30 11 1 4 12
M  V30 12 1 4 13
M  V30 13 1 5 14
M  V30 14 1 6 15
M  V30 15 1 6 16
M  V30 16 1 7 17
M  V30 17 1 7 18
M  V30 18 1 8 19
M  V30 19 1 9 20
M  V30 20 1 9 21
M  V30 END BOND
M  V30 END CTAB
M  END
