
     RDKit          3D

  0  0  0  0  0  0  0  0  0  0999 V3000
M  V30 BEGIN CTAB
M  V30 COUNTS 51 53 0 0 0
M  V30 BEGIN ATOM
M  V30 1 N 6.70927 1.37178 2.67113 0
M  V30 2 C 6.03305 1.03253 1.40609 0
M  V30 3 C 5.89928 -0.450796 1.33973 0
M  V30 4 O 5.29037 -0.990385 0.234734 0
M  V30 5 C 4.03415 -0.896445 -0.279512 0
M  V30 6 C 3.02026 -0.168802 0.297092 0
M  V30 7 C 1.73532 -0.114863 -0.289672 0
M  V30 8 C 1.56005 -0.812765 -1.4383 0
M  V30 9 C 2.57674 -1.57085 -2.05832 0
M  V30 10 C 3.80924 -1.605 -1.46967 0
M  V30 11 C 4.93614 -2.37483 -2.05057 0
M  V30 12 C 0.722052 0.662104 0.365279 0
M  V30 13 O 1.12081 1.24165 1.48023 0
M  V30 14 N -0.605933 0.935255 0.068144 0
M  V30 15 C -1.36102 1.79808 1.0048 0
M  V30 16 C -2.68008 1.14277 1.37794 0
M  V30 17 N -3.43746 0.808411 0.185174 0
M  V30 18 C -2.78103 1.03096 -1.07656 0
M  V30 19 C -1.35578 0.483428 -1.05709 0
M  V30 20 C -4.75058 0.290307 0.20447 0
M  V30 21 C -5.42872 0.0584655 1.39137 0
M  V30 22 C -6.70235 -0.446262 1.3431 0
M  V30 23 O -7.33071 -0.662028 2.41201 0
M  V30 24 N -7.29829 -0.71743 0.170142 0
M  V30 25 C -6.63886 -0.491838 -0.978926 0
M  V30 26 N -5.38966 0.00330616 -0.928493 0
M  V30 27 N -7.28479 -0.784549 -2.21136 0
M  V30 28 H 7.69097 1.01344 2.56802 0
M  V30 29 H 6.75332 2.40991 2.75969 0
M  V30 30 H 6.76854 1.39696 0.624149 0
M  V30 31 H 5.10958 1.59482 1.30092 0
M  V30 32 H 6.93492 -0.866954 1.51663 0
M  V30 33 H 5.32927 -0.806386 2.25326 0
M  V30 34 H 3.18994 0.361758 1.21893 0
M  V30 35 H 0.622473 -0.828981 -1.94672 0
M  V30 36 H 2.37281 -2.10759 -2.97727 0
M  V30 37 H 4.5668 -3.42304 -2.24221 0
M  V30 38 H 5.75814 -2.46708 -1.34355 0
M  V30 39 H 5.23573 -1.9906 -3.04713 0
M  V30 40 H -0.761108 1.85059 1.92569 0
M  V30 41 H -1.49115 2.80481 0.602313 0
M  V30 42 H -2.43343 0.245157 1.98118 0
M  V30 43 H -3.20219 1.85408 2.03806 0
M  V30 44 H -3.30699 0.466515 -1.87054 0
M  V30 45 H -2.81946 2.1016 -1.29417 0
M  V30 46 H -0.900008 0.88343 -1.98736 0
M  V30 47 H -1.48347 -0.616541 -1.05297 0
M  V30 48 H -4.9942 0.25951 2.35533 0
M  V30 49 H -8.27236 -1.10247 0.165852 0
M  V30 50 H -8.24457 -0.433267 -2.45056 0
M  V30 51 H -6.82503 -1.37191 -2.94543 0
M  V30 END ATOM
M  V30 BEGIN BOND
M  V30 1 1 1 2
M  V30 2 1 2 3
M  V30 3 1 3 4
M  V30 4 1 4 5
M  V30 5 2 5 6
M  V30 6 1 6 7
M  V30 7 2 7 8
M  V30 8 1 8 9
M  V30 9 2 9 10
M  V30 10 1 10 11
M  V30 11 1 7 12
M  V30 12 2 12 13
M  V30 13 1 12 14
M  V30 14 1 14 15
M  V30 15 1 15 16
M  V30 16 1 16 17
M  V30 17 1 17 18
M  V30 18 1 18 19
M  V30 19 1 17 20
M  V30 20 2 20 21
M  V30 21 1 21 22
M  V30 22 2 22 23
M  V30 23 1 22 24
M  V30 24 1 24 25
M  V30 25 2 25 26
M  V30 26 1 25 27
M  V30 27 1 10 5
M  V30 28 1 19 14
M  V30 29 1 26 20
M  V30 30 1 1 28
M  V30 31 1 1 29
M  V30 32 1 2 30
M  V30 33 1 2 31
M  V30 34 1 3 32
M  V30 35 1 3 33
M  V30 36 1 6 34
M  V30 37 1 8 35
M  V30 38 1 9 36
M  V30 39 1 11 37
M  V30 40 1 11 38
M  V30 41 1 11 39
M  V30 42 1 15 40
M  V30 43 1 15 41
M  V30 44 1 16 42
M  V30 45 1 16 43
M  V30 46 1 18 44
M  V30 47 1 18 45
M  V30 48 1 19 46
M  V30 49 1 19 47
M  V30 50 1 21 48
M  V30 51 1 24 49
M  V30 52 1 27 50
M  V30 53 1 27 51
M  V30 END BOND
M  V30 END CTAB
M  END
