
     RDKit          3D

  0  0  0  0  0  0  0  0  0  0999 V3000
M  V30 BEGIN CTAB
M  V30 COUNTS 50 52 0 0 0
M  V30 BEGIN ATOM
M  V30 1 O 2.61035 2.86852 1.48288 0
M  V30 2 C 2.72487 1.63634 1.05372 0
M  V30 3 C 1.35108 1.03225 0.949726 0
M  V30 4 C 0.779771 0.331791 1.97528 0
M  V30 5 C -0.517697 -0.153861 1.864 0
M  V30 6 C -1.27507 0.0478495 0.730094 0
M  V30 7 C -0.696506 0.751326 -0.300764 0
M  V30 8 C 0.613279 1.24205 -0.18999 0
M  V30 9 C -2.6669 -0.477091 0.626021 0
M  V30 10 O -2.93993 -1.57096 1.17105 0
M  V30 11 N -3.62174 0.2875 -0.0815599 0
M  V30 12 C -4.96564 -0.0286602 -0.268206 0
M  V30 13 C -5.70049 0.570096 -1.30165 0
M  V30 14 C -7.02852 0.327286 -1.51912 0
M  V30 15 C -7.72033 -0.544631 -0.706811 0
M  V30 16 C -7.0197 -1.1435 0.313838 0
M  V30 17 C -5.66294 -0.884478 0.524202 0
M  V30 18 S -9.39996 -0.869003 -0.967094 0
M  V30 19 O -9.80996 -2.17548 -0.366768 0
M  V30 20 O -9.75343 -0.875465 -2.42967 0
M  V30 21 N -10.3882 0.349221 -0.208909 0
M  V30 22 N 3.87348 1.0568 0.770278 0
M  V30 23 C 5.06363 0.456383 0.476618 0
M  V30 24 C 5.69298 -0.436023 1.36296 0
M  V30 25 C 6.8966 -1.01589 1.05914 0
M  V30 26 C 7.55619 -0.76086 -0.125512 0
M  V30 27 C 6.9592 0.110974 -1.0132 0
M  V30 28 C 5.75136 0.698711 -0.717597 0
M  V30 29 S 9.11362 -1.46941 -0.478311 0
M  V30 30 O 9.30432 -2.77484 0.293289 0
M  V30 31 O 9.18918 -1.81529 -1.93591 0
M  V30 32 N 10.3785 -0.343137 -0.0418015 0
M  V30 33 H 1.33633 0.152647 2.88044 0
M  V30 34 H -0.974669 -0.717104 2.68884 0
M  V30 35 H -1.26202 0.926422 -1.21312 0
M  V30 36 H 1.0635 1.79443 -1.01534 0
M  V30 37 H -3.29337 1.20819 -0.524158 0
M  V30 38 H -5.20602 1.27556 -1.9804 0
M  V30 39 H -7.60035 0.794378 -2.33135 0
M  V30 40 H -7.53515 -1.82655 0.959643 0
M  V30 41 H -5.24691 -1.41913 1.36357 0
M  V30 42 H -9.99011 0.700052 0.667252 0
M  V30 43 H -10.5981 1.08849 -0.915457 0
M  V30 44 H 4.60368 2.15987 1.15597 0
M  V30 45 H 5.15383 -0.623066 2.28853 0
M  V30 46 H 7.35512 -1.69702 1.76364 0
M  V30 47 H 7.49466 0.310538 -1.95601 0
M  V30 48 H 5.28219 1.3873 -1.40929 0
M  V30 49 H 10.6796 -0.580165 0.903694 0
M  V30 50 H 10.0463 0.636641 -0.133979 0
M  V30 END ATOM
M  V30 BEGIN BOND
M  V30 1 2 1 2
M  V30 2 1 2 3
M  V30 3 2 3 4
M  V30 4 1 4 5
M  V30 5 2 5 6
M  V30 6 1 6 7
M  V30 7 2 7 8
M  V30 8 1 6 9
M  V30 9 2 9 10
M  V30 10 1 9 11
M  V30 11 1 11 12
M  V30 12 2 12 13
M  V30 13 1 13 14
M  V30 14 2 14 15
M  V30 15 1 15 16
M  V30 16 2 16 17
M  V30 17 1 15 18
M  V30 18 2 18 19
M  V30 19 2 18 20
M  V30 20 1 18 21
M  V30 21 1 2 22
M  V30 22 1 22 23
M  V30 23 2 23 24
M  V30 24 1 24 25
M  V30 25 2 25 26
M  V30 26 1 26 27
M  V30 27 2 27 28
M  V30 28 1 26 29
M  V30 29 2 29 30
M  V30 30 2 29 31
M  V30 31 1 29 32
M  V30 32 1 8 3
M  V30 33 1 17 12
M  V30 34 1 28 23
M  V30 35 1 4 33
M  V30 36 1 5 34
M  V30 37 1 7 35
M  V30 38 1 8 36
M  V30 39 1 11 37
M  V30 40 1 13 38
M  V30 41 1 14 39
M  V30 42 1 16 40
M  V30 43 1 17 41
M  V30 44 1 21 42
M  V30 45 1 21 43
M  V30 46 1 22 44
M  V30 47 1 24 45
M  V30 48 1 25 46
M  V30 49 1 27 47
M  V30 50 1 28 48
M  V30 51 1 32 49
M  V30 52 1 32 50
M  V30 END BOND
M  V30 END CTAB
M  END
