
     RDKit          3D

  0  0  0  0  0  0  0  0  0  0999 V3000
M  V30 BEGIN CTAB
M  V30 COUNTS 48 49 0 0 0
M  V30 BEGIN ATOM
M  V30 1 C -5.44342 1.74225 -0.111524 0
M  V30 2 C -4.96186 0.660035 -1.03781 0
M  V30 3 O -3.5803 0.59316 -1.12165 0
M  V30 4 C -2.97348 0.339222 0.0953321 0
M  V30 5 C -1.78301 1.19855 0.29983 0
M  V30 6 C -0.891227 0.0453786 -0.135549 0
M  V30 7 C -2.08187 -0.87039 0.0312577 0
M  V30 8 C -2.39329 -1.70734 -1.1954 0
M  V30 9 C -2.08148 -1.74422 1.24338 0
M  V30 10 N -0.517417 0.255552 -1.52431 0
M  V30 11 C 0.189243 -0.279219 0.798881 0
M  V30 12 O -0.146294 -0.16944 2.04842 0
M  V30 13 N 1.49744 -0.679756 0.57446 0
M  V30 14 C 2.16443 -0.926314 -0.67661 0
M  V30 15 C 3.34766 -0.0102532 -0.866814 0
M  V30 16 N 3.8916 0.541541 0.29764 0
M  V30 17 C 3.48997 0.140346 1.57389 0
M  V30 18 C 2.4347 -0.893323 1.71686 0
M  V30 19 S 5.61858 0.525329 0.208661 0
M  V30 20 O 6.16551 1.07164 1.51051 0
M  V30 21 O 6.05448 -0.89628 0.112329 0
M  V30 22 N 6.19476 1.4675 -1.10411 0
M  V30 23 H -4.84404 2.64503 -0.248771 0
M  V30 24 H -5.46475 1.44377 0.942202 0
M  V30 25 H -6.50113 2.00174 -0.401785 0
M  V30 26 H -5.33102 0.919307 -2.05828 0
M  V30 27 H -5.4009 -0.329148 -0.799149 0
M  V30 28 H -3.66526 0.226026 0.956101 0
M  V30 29 H -1.76211 2.08397 -0.380577 0
M  V30 30 H -1.62024 1.51822 1.35207 0
M  V30 31 H -1.66819 -2.54275 -1.2229 0
M  V30 32 H -2.38025 -1.08606 -2.09777 0
M  V30 33 H -3.44032 -2.0963 -1.04217 0
M  V30 34 H -1.12602 -2.30339 1.39366 0
M  V30 35 H -2.37148 -1.17451 2.15571 0
M  V30 36 H -2.83762 -2.58117 1.11873 0
M  V30 37 H 0.24832 0.960913 -1.60982 0
M  V30 38 H -1.31449 0.652996 -2.06721 0
M  V30 39 H 2.63464 -1.96211 -0.538399 0
M  V30 40 H 1.54636 -1.05248 -1.55829 0
M  V30 41 H 4.13903 -0.535942 -1.45607 0
M  V30 42 H 2.99677 0.816482 -1.53508 0
M  V30 43 H 4.35524 -0.201292 2.22024 0
M  V30 44 H 3.12872 1.05981 2.12812 0
M  V30 45 H 2.86566 -1.90194 1.59169 0
M  V30 46 H 1.89735 -0.755426 2.66925 0
M  V30 47 H 5.52988 1.31325 -1.90594 0
M  V30 48 H 6.19113 2.47702 -0.84213 0
M  V30 END ATOM
M  V30 BEGIN BOND
M  V30 1 1 1 2
M  V30 2 1 2 3
M  V30 3 1 3 4
M  V30 4 1 4 5
M  V30 5 1 5 6
M  V30 6 1 6 7
M  V30 7 1 7 8
M  V30 8 1 7 9
M  V30 9 1 6 10
M  V30 10 1 6 11
M  V30 11 2 11 12
M  V30 12 1 11 13
M  V30 13 1 13 14
M  V30 14 1 14 15
M  V30 15 1 15 16
M  V30 16 1 16 17
M  V30 17 1 17 18
M  V30 18 1 16 19
M  V30 19 2 19 20
M  V30 20 2 19 21
M  V30 21 1 19 22
M  V30 22 1 7 4
M  V30 23 1 18 13
M  V30 24 1 1 23
M  V30 25 1 1 24
M  V30 26 1 1 25
M  V30 27 1 2 26
M  V30 28 1 2 27
M  V30 29 1 4 28
M  V30 30 1 5 29
M  V30 31 1 5 30
M  V30 32 1 8 31
M  V30 33 1 8 32
M  V30 34 1 8 33
M  V30 35 1 9 34
M  V30 36 1 9 35
M  V30 37 1 9 36
M  V30 38 1 10 37
M  V30 39 1 10 38
M  V30 40 1 14 39
M  V30 41 1 14 40
M  V30 42 1 15 41
M  V30 43 1 15 42
M  V30 44 1 17 43
M  V30 45 1 17 44
M  V30 46 1 18 45
M  V30 47 1 18 46
M  V30 48 1 22 47
M  V30 49 1 22 48
M  V30 END BOND
M  V30 END CTAB
M  END
