
     RDKit          3D

  0  0  0  0  0  0  0  0  0  0999 V3000
M  V30 BEGIN CTAB
M  V30 COUNTS 137 141 0 0 0
M  V30 BEGIN ATOM
M  V30 1 N -11.0283 2.61303 0.724544 0
M  V30 2 C -10.9659 1.59717 1.82092 0 CFG=1
M  V30 3 C -12.3007 0.940397 1.85824 0
M  V30 4 C -12.4881 -0.0626015 2.90725 0
M  V30 5 O -13.6677 -0.840106 2.94015 0
M  V30 6 O -11.6745 -0.311202 3.81736 0
M  V30 7 C -9.82334 0.705915 1.50445 0
M  V30 8 O -9.46258 -0.21559 2.24723 0
M  V30 9 N -9.08036 0.883952 0.301415 0
M  V30 10 C -7.95723 0.0919001 -0.110846 0 CFG=1
M  V30 11 C -7.84335 -0.241384 -1.53696 0
M  V30 12 C -8.9056 -1.01409 -2.2129 0
M  V30 13 C -10.2631 -0.376281 -2.24993 0
M  V30 14 N -11.1835 -1.22703 -2.99109 0
M  V30 15 C -11.5529 -2.47076 -2.4198 0
M  V30 16 N -11.0156 -3.69711 -2.91816 0
M  V30 17 N -12.3876 -2.54111 -1.43312 0
M  V30 18 C -6.68195 0.810741 0.290137 0
M  V30 19 O -6.83063 1.89974 0.86579 0
M  V30 20 N -5.44784 0.261223 0.018542 0
M  V30 21 C -4.13415 0.825206 0.360657 0 CFG=2
M  V30 22 C -4.35639 1.76306 1.57278 0
M  V30 23 C -3.09601 1.71135 2.44775 0
M  V30 24 S -2.76858 0.020582 2.95204 0
M  V30 25 S -0.797592 -0.589511 2.54521 0
M  V30 26 C 0.464511 0.459778 3.25093 0
M  V30 27 C 0.867077 1.63383 2.41004 0
M  V30 28 C 1.25636 1.30569 0.9853 0 CFG=1
M  V30 29 N 0.636965 2.20569 0.04462 0
M  V30 30 C -0.557098 2.18861 -0.644222 0
M  V30 31 O -1.3423 3.2146 -0.462191 0
M  V30 32 C -1.14496 1.21753 -1.57973 0 CFG=1
M  V30 33 C -0.604284 -0.173758 -1.52815 0
M  V30 34 C -1.33079 -1.0091 -2.55778 0
M  V30 35 C -2.46482 -1.68895 -2.14692 0
M  V30 36 C -3.19128 -2.46932 -3.03127 0
M  V30 37 C -2.79166 -2.58097 -4.34522 0
M  V30 38 O -3.5336 -3.36818 -5.21967 0
M  V30 39 C -1.64851 -1.89094 -4.74333 0
M  V30 40 C -0.92845 -1.11588 -3.8612 0
M  V30 41 N -2.56684 1.31486 -1.66316 0
M  V30 42 C -3.58757 1.58447 -0.773332 0
M  V30 43 O -4.21485 2.71788 -0.939052 0
M  V30 44 C 2.75799 1.49552 0.954558 0
M  V30 45 O 3.20312 2.41278 0.212768 0
M  V30 46 N 3.63326 0.718505 1.69417 0
M  V30 47 C 5.11961 1.01504 1.5991 0 CFG=1
M  V30 48 C 5.48013 1.16556 3.03457 0
M  V30 49 C 6.84744 1.53086 3.38739 0
M  V30 50 C 7.27425 1.45537 4.72624 0
M  V30 51 N 8.52937 1.87825 4.79216 0
M  V30 52 C 8.90717 2.21239 3.56985 0
M  V30 53 N 7.88702 2.0034 2.71064 0
M  V30 54 C 5.65895 -0.217991 0.956941 0
M  V30 55 O 5.22703 -1.30598 1.4393 0
M  V30 56 N 6.57306 -0.273883 -0.113187 0
M  V30 57 C 7.2011 0.799229 -0.855093 0
M  V30 58 C 7.47789 0.235454 -2.22854 0
M  V30 59 C 7.07981 -1.20281 -2.17905 0
M  V30 60 C 7.03449 -1.50845 -0.699412 0 CFG=1
M  V30 61 C 8.35071 -1.9532 -0.207901 0
M  V30 62 O 8.87926 -2.99807 -0.727579 0
M  V30 63 N 9.09609 -1.32742 0.801102 0
M  V30 64 C 10.3758 -1.84689 1.21813 0 CFG=1
M  V30 65 C 11.5054 -0.879186 1.10059 0
M  V30 66 C 11.7653 -0.385482 -0.270316 0
M  V30 67 C 12.6198 -1.13916 -1.05559 0
M  V30 68 C 12.8963 -0.703352 -2.3328 0
M  V30 69 C 12.3589 0.453443 -2.86707 0
M  V30 70 C 11.514 1.17109 -2.04909 0
M  V30 71 C 11.2212 0.758469 -0.770388 0
M  V30 72 C 10.2491 -2.21182 2.67358 0
M  V30 73 O 11.4094 -2.73623 3.27537 0
M  V30 74 O 9.18092 -2.05648 3.29871 0
M  V30 75 H -11.9844 2.96875 0.728397 0
M  V30 76 H -10.3795 3.37989 0.920899 0
M  V30 77 H -10.8332 2.20524 2.73203 0
M  V30 78 H -13.0444 1.7793 2.05957 0
M  V30 79 H -12.6283 0.5707 0.851079 0
M  V30 80 H -14.2829 -0.79307 2.14169 0
M  V30 81 H -9.37678 1.65392 -0.332465 0
M  V30 82 H -7.89636 -0.855619 0.503652 0
M  V30 83 H -7.69324 0.706515 -2.16629 0
M  V30 84 H -6.87003 -0.791922 -1.77144 0
M  V30 85 H -8.64372 -1.21932 -3.29923 0
M  V30 86 H -9.01974 -2.05628 -1.80052 0
M  V30 87 H -10.2217 0.647247 -2.62895 0
M  V30 88 H -10.666 -0.376731 -1.1947 0
M  V30 89 H -11.5498 -0.928303 -3.89803 0
M  V30 90 H -10.94 -3.86965 -3.9398 0
M  V30 91 H -10.7037 -4.41021 -2.23802 0
M  V30 92 H -12.6359 -3.44625 -1.04195 0
M  V30 93 H -5.375 -0.670298 -0.483478 0
M  V30 94 H -3.54839 0.0268838 0.794388 0
M  V30 95 H -4.58753 2.77525 1.25705 0
M  V30 96 H -5.12673 1.2895 2.22814 0
M  V30 97 H -3.31235 2.28344 3.40449 0
M  V30 98 H -2.28316 2.22778 1.97322 0
M  V30 99 H 1.36856 -0.169878 3.43182 0
M  V30 100 H 0.182309 0.84226 4.26729 0
M  V30 101 H 1.69563 2.13926 2.97597 0
M  V30 102 H 0.0483859 2.41286 2.42667 0
M  V30 103 H 1.0889 0.239728 0.818952 0
M  V30 104 H 1.2553 3.07788 -0.143889 0
M  V30 105 H -0.782731 1.58233 -2.62853 0
M  V30 106 H -0.596264 -0.663764 -0.562689 0
M  V30 107 H 0.441101 -0.143602 -1.89732 0
M  V30 108 H -2.81 -1.62317 -1.11345 0
M  V30 109 H -4.0657 -2.98784 -2.68821 0
M  V30 110 H -4.28555 -2.85634 -5.70819 0
M  V30 111 H -1.34408 -1.98069 -5.76463 0
M  V30 112 H -0.0538913 -0.605196 -4.22388 0
M  V30 113 H -2.91361 1.12877 -2.68893 0
M  V30 114 H 3.38293 -0.0458248 2.29889 0
M  V30 115 H 5.26121 1.87674 0.958791 0
M  V30 116 H 5.28892 0.153442 3.50728 0
M  V30 117 H 4.81253 1.92279 3.55051 0
M  V30 118 H 6.68973 1.11138 5.57837 0
M  V30 119 H 9.89081 2.59284 3.31625 0
M  V30 120 H 7.92317 2.19858 1.69359 0
M  V30 121 H 8.15371 1.06078 -0.387037 0
M  V30 122 H 6.5191 1.67972 -0.95161 0
M  V30 123 H 6.80093 0.729356 -2.98046 0
M  V30 124 H 8.51136 0.419865 -2.58325 0
M  V30 125 H 7.83882 -1.88072 -2.62621 0
M  V30 126 H 6.06228 -1.40293 -2.58328 0
M  V30 127 H 6.27839 -2.3349 -0.506713 0
M  V30 128 H 8.75106 -0.482753 1.28019 0
M  V30 129 H 10.6333 -2.77257 0.64784 0
M  V30 130 H 11.3146 -0.00697354 1.79971 0
M  V30 131 H 12.4538 -1.36539 1.46189 0
M  V30 132 H 13.0703 -2.05247 -0.691867 0
M  V30 133 H 13.5714 -1.28527 -2.97636 0
M  V30 134 H 12.5748 0.799921 -3.87146 0
M  V30 135 H 11.0954 2.0774 -2.47156 0
M  V30 136 H 10.5422 1.36216 -0.157824 0
M  V30 137 H 12.0356 -2.11762 3.80712 0
M  V30 END ATOM
M  V30 BEGIN BOND
M  V30 1 1 1 2
M  V30 2 1 2 3
M  V30 3 1 3 4
M  V30 4 1 4 5
M  V30 5 2 4 6
M  V30 6 1 2 7
M  V30 7 2 7 8
M  V30 8 1 7 9
M  V30 9 1 9 10
M  V30 10 1 10 11
M  V30 11 1 11 12
M  V30 12 1 12 13
M  V30 13 1 13 14
M  V30 14 1 14 15
M  V30 15 1 15 16
M  V30 16 2 15 17 CFG=2
M  V30 17 1 10 18
M  V30 18 2 18 19
M  V30 19 1 18 20
M  V30 20 1 20 21
M  V30 21 1 21 22
M  V30 22 1 22 23
M  V30 23 1 23 24
M  V30 24 1 24 25
M  V30 25 1 25 26
M  V30 26 1 26 27
M  V30 27 1 27 28
M  V30 28 1 28 29
M  V30 29 1 29 30
M  V30 30 2 30 31
M  V30 31 1 30 32
M  V30 32 1 32 33
M  V30 33 1 33 34
M  V30 34 2 34 35
M  V30 35 1 35 36
M  V30 36 2 36 37
M  V30 37 1 37 38
M  V30 38 1 37 39
M  V30 39 2 39 40
M  V30 40 1 32 41
M  V30 41 1 41 42
M  V30 42 2 42 43
M  V30 43 1 28 44
M  V30 44 2 44 45
M  V30 45 1 44 46
M  V30 46 1 46 47
M  V30 47 1 47 48
M  V30 48 1 48 49
M  V30 49 2 49 50
M  V30 50 1 50 51
M  V30 51 2 51 52
M  V30 52 1 52 53
M  V30 53 1 47 54
M  V30 54 2 54 55
M  V30 55 1 54 56
M  V30 56 1 56 57
M  V30 57 1 57 58
M  V30 58 1 58 59
M  V30 59 1 59 60
M  V30 60 1 60 61
M  V30 61 2 61 62
M  V30 62 1 61 63
M  V30 63 1 63 64
M  V30 64 1 64 65
M  V30 65 1 65 66
M  V30 66 2 66 67
M  V30 67 1 67 68
M  V30 68 2 68 69
M  V30 69 1 69 70
M  V30 70 2 70 71
M  V30 71 1 64 72
M  V30 72 1 72 73
M  V30 73 2 72 74
M  V30 74 1 42 21
M  V30 75 1 53 49
M  V30 76 1 60 56
M  V30 77 1 71 66
M  V30 78 1 40 34
M  V30 79 1 1 75
M  V30 80 1 1 76
M  V30 81 1 2 77 CFG=1
M  V30 82 1 3 78
M  V30 83 1 3 79
M  V30 84 1 5 80
M  V30 85 1 9 81
M  V30 86 1 10 82 CFG=1
M  V30 87 1 11 83
M  V30 88 1 11 84
M  V30 89 1 12 85
M  V30 90 1 12 86
M  V30 91 1 13 87
M  V30 92 1 13 88
M  V30 93 1 14 89
M  V30 94 1 16 90
M  V30 95 1 16 91
M  V30 96 1 17 92
M  V30 97 1 20 93
M  V30 98 1 21 94 CFG=1
M  V30 99 1 22 95
M  V30 100 1 22 96
M  V30 101 1 23 97
M  V30 102 1 23 98
M  V30 103 1 26 99
M  V30 104 1 26 100
M  V30 105 1 27 101
M  V30 106 1 27 102
M  V30 107 1 28 103 CFG=3
M  V30 108 1 29 104
M  V30 109 1 32 105 CFG=3
M  V30 110 1 33 106
M  V30 111 1 33 107
M  V30 112 1 35 108
M  V30 113 1 36 109
M  V30 114 1 38 110
M  V30 115 1 39 111
M  V30 116 1 40 112
M  V30 117 1 41 113
M  V30 118 1 46 114
M  V30 119 1 47 115 CFG=3
M  V30 120 1 48 116
M  V30 121 1 48 117
M  V30 122 1 50 118
M  V30 123 1 52 119
M  V30 124 1 53 120
M  V30 125 1 57 121
M  V30 126 1 57 122
M  V30 127 1 58 123
M  V30 128 1 58 124
M  V30 129 1 59 125
M  V30 130 1 59 126
M  V30 131 1 60 127 CFG=3
M  V30 132 1 63 128
M  V30 133 1 64 129 CFG=3
M  V30 134 1 65 130
M  V30 135 1 65 131
M  V30 136 1 67 132
M  V30 137 1 68 133
M  V30 138 1 69 134
M  V30 139 1 70 135
M  V30 140 1 71 136
M  V30 141 1 73 137
M  V30 END BOND
M  V30 END CTAB
M  END
