
     RDKit          3D

  0  0  0  0  0  0  0  0  0  0999 V3000
M  V30 BEGIN CTAB
M  V30 COUNTS 34 35 0 0 0
M  V30 BEGIN ATOM
M  V30 1 C -0.412038 -3.50886 0.211902 0
M  V30 2 C 0.512638 -2.34324 0.294406 0
M  V30 3 O 1.4439 -2.46278 1.06841 0
M  V30 4 C 0.291499 -1.12138 -0.526994 0
M  V30 5 C -1.04355 -0.488876 -0.257254 0
M  V30 6 C -1.74566 0.0631368 -1.30426 0
M  V30 7 C -2.99023 0.661964 -1.10257 0
M  V30 8 C -3.54845 0.71099 0.17776 0
M  V30 9 N -4.81247 1.31825 0.387609 0
M  V30 10 C -2.80759 0.145667 1.18954 0
M  V30 11 C -1.57802 -0.450132 1.01299 0
M  V30 12 C 1.38055 -0.12221 -0.395655 0
M  V30 13 C 1.90989 0.281499 0.806787 0
M  V30 14 C 2.92278 1.2099 0.851916 0
M  V30 15 C 3.40409 1.73494 -0.33612 0
M  V30 16 N 4.44884 2.69157 -0.275281 0
M  V30 17 C 2.88111 1.33907 -1.5628 0
M  V30 18 C 1.87752 0.418453 -1.59891 0
M  V30 19 H 0.0843601 -4.45086 0.525611 0
M  V30 20 H -1.25889 -3.3525 0.920857 0
M  V30 21 H -0.766048 -3.67975 -0.824234 0
M  V30 22 H 0.278085 -1.51498 -1.59182 0
M  V30 23 H -1.36064 0.0525209 -2.313 0
M  V30 24 H -3.56254 1.10161 -1.90011 0
M  V30 25 H -5.55313 1.34215 -0.336412 0
M  V30 26 H -5.0212 1.76271 1.3005 0
M  V30 27 H -3.24262 0.183014 2.19195 0
M  V30 28 H -1.05128 -0.877535 1.87036 0
M  V30 29 H 1.53267 -0.121833 1.71531 0
M  V30 30 H 3.37968 1.5669 1.76285 0
M  V30 31 H 4.26135 3.64323 0.0973748 0
M  V30 32 H 5.39228 2.3858 -0.619719 0
M  V30 33 H 3.27806 1.76694 -2.4666 0
M  V30 34 H 1.47506 0.114636 -2.55503 0
M  V30 END ATOM
M  V30 BEGIN BOND
M  V30 1 1 1 2
M  V30 2 2 2 3
M  V30 3 1 2 4
M  V30 4 1 4 5
M  V30 5 2 5 6
M  V30 6 1 6 7
M  V30 7 2 7 8
M  V30 8 1 8 9
M  V30 9 1 8 10
M  V30 10 2 10 11
M  V30 11 1 4 12
M  V30 12 2 12 13
M  V30 13 1 13 14
M  V30 14 2 14 15
M  V30 15 1 15 16
M  V30 16 1 15 17
M  V30 17 2 17 18
M  V30 18 1 11 5
M  V30 19 1 18 12
M  V30 20 1 1 19
M  V30 21 1 1 20
M  V30 22 1 1 21
M  V30 23 1 4 22
M  V30 24 1 6 23
M  V30 25 1 7 24
M  V30 26 1 9 25
M  V30 27 1 9 26
M  V30 28 1 10 27
M  V30 29 1 11 28
M  V30 30 1 13 29
M  V30 31 1 14 30
M  V30 32 1 16 31
M  V30 33 1 16 32
M  V30 34 1 17 33
M  V30 35 1 18 34
M  V30 END BOND
M  V30 END CTAB
M  END
