
     RDKit          3D

  0  0  0  0  0  0  0  0  0  0999 V3000
M  V30 BEGIN CTAB
M  V30 COUNTS 28 27 0 0 0
M  V30 BEGIN ATOM
M  V30 1 C -2.55941 -0.508701 0.118999 0 CFG=1
M  V30 2 N -3.93507 -0.489409 -0.538023 0
M  V30 3 C -1.58942 -0.721239 -0.975168 0
M  V30 4 C -0.154663 -0.824069 -0.770637 0
M  V30 5 C 0.647149 0.28894 -0.234876 0
M  V30 6 N 2.05928 -0.162459 -0.211656 0
M  V30 7 C 3.05533 0.732246 0.267685 0
M  V30 8 N 3.06267 2.10593 -0.101267 0
M  V30 9 N 3.9943 0.329305 1.05915 0
M  V30 10 N 4.04336 -1.02695 1.46429 0 CHG=1
M  V30 11 O 4.5992 -1.93286 0.609411 0 CHG=-1
M  V30 12 O 3.59429 -1.39061 2.56747 0
M  V30 13 C -2.54398 0.776048 0.822735 0
M  V30 14 O -3.17465 1.91434 0.28411 0
M  V30 15 O -1.96787 0.892751 1.92278 0
M  V30 16 H -2.57923 -1.3344 0.835978 0
M  V30 17 H -4.61902 -0.718738 0.230378 0
M  V30 18 H -3.86655 -1.32552 -1.17628 0
M  V30 19 H -1.91518 -1.71795 -1.45832 0
M  V30 20 H -1.79479 0.0218864 -1.83038 0
M  V30 21 H 0.0812443 -1.75999 -0.167471 0
M  V30 22 H 0.332577 -1.09051 -1.78068 0
M  V30 23 H 0.610725 1.20223 -0.885664 0
M  V30 24 H 0.400143 0.61782 0.775962 0
M  V30 25 H 2.28851 -1.11597 -0.543819 0
M  V30 26 H 3.59197 2.47719 -0.920024 0
M  V30 27 H 2.51388 2.79519 0.466938 0
M  V30 28 H -4.1748 1.9655 0.168379 0
M  V30 END ATOM
M  V30 BEGIN BOND
M  V30 1 1 1 2
M  V30 2 1 1 3
M  V30 3 1 3 4
M  V30 4 1 4 5
M  V30 5 1 5 6
M  V30 6 1 6 7
M  V30 7 1 7 8
M  V30 8 2 7 9
M  V30 9 1 9 10
M  V30 10 1 10 11
M  V30 11 2 10 12
M  V30 12 1 1 13
M  V30 13 1 13 14
M  V30 14 2 13 15
M  V30 15 1 1 16 CFG=1
M  V30 16 1 2 17
M  V30 17 1 2 18
M  V30 18 1 3 19
M  V30 19 1 3 20
M  V30 20 1 4 21
M  V30 21 1 4 22
M  V30 22 1 5 23
M  V30 23 1 5 24
M  V30 24 1 6 25
M  V30 25 1 8 26
M  V30 26 1 8 27
M  V30 27 1 14 28
M  V30 END BOND
M  V30 END CTAB
M  END
