
     RDKit          3D

  0  0  0  0  0  0  0  0  0  0999 V3000
M  V30 BEGIN CTAB
M  V30 COUNTS 27 28 0 0 0
M  V30 BEGIN ATOM
M  V30 1 N -2.00454 -2.40166 0.86748 0
M  V30 2 C -1.98442 -1.15093 0.194296 0
M  V30 3 C -2.98094 -0.210361 0.435073 0
M  V30 4 C -2.99163 1.00537 -0.196392 0
M  V30 5 N -3.99272 1.98888 0.0252547 0
M  V30 6 N -2.00659 1.26133 -1.05766 0
M  V30 7 C -1.02213 0.374799 -1.31771 0
M  V30 8 N -1.02918 -0.811747 -0.688817 0
M  V30 9 S 0.284498 0.736546 -2.46395 0
M  V30 10 C 1.62049 1.51746 -1.5131 0
M  V30 11 C 2.25206 0.5754 -0.558095 0
M  V30 12 C 1.80356 0.386535 0.726744 0
M  V30 13 C 2.40878 -0.495957 1.59915 0
M  V30 14 C 3.50165 -1.21903 1.1798 0
M  V30 15 C 3.95531 -1.0248 -0.126797 0
M  V30 16 N 3.3206 -0.151212 -0.92334 0
M  V30 17 H -2.60536 -2.52346 1.7098 0
M  V30 18 H -1.44419 -3.21901 0.562564 0
M  V30 19 H -3.77432 -0.418231 1.12934 0
M  V30 20 H -4.84484 1.93704 -0.568471 0
M  V30 21 H -3.92475 2.74721 0.735972 0
M  V30 22 H 1.23186 2.39038 -0.913241 0
M  V30 23 H 2.38589 1.90479 -2.20306 0
M  V30 24 H 0.944668 0.960496 1.04107 0
M  V30 25 H 2.0522 -0.648258 2.62207 0
M  V30 26 H 4.03617 -1.93203 1.79641 0
M  V30 27 H 4.80786 -1.57955 -0.472809 0
M  V30 END ATOM
M  V30 BEGIN BOND
M  V30 1 1 1 2
M  V30 2 2 2 3
M  V30 3 1 3 4
M  V30 4 1 4 5
M  V30 5 2 4 6
M  V30 6 1 6 7
M  V30 7 2 7 8
M  V30 8 1 7 9
M  V30 9 1 9 10
M  V30 10 1 10 11
M  V30 11 2 11 12
M  V30 12 1 12 13
M  V30 13 2 13 14
M  V30 14 1 14 15
M  V30 15 2 15 16
M  V30 16 1 8 2
M  V30 17 1 16 11
M  V30 18 1 1 17
M  V30 19 1 1 18
M  V30 20 1 3 19
M  V30 21 1 5 20
M  V30 22 1 5 21
M  V30 23 1 10 22
M  V30 24 1 10 23
M  V30 25 1 12 24
M  V30 26 1 13 25
M  V30 27 1 14 26
M  V30 28 1 15 27
M  V30 END BOND
M  V30 END CTAB
M  END
