
     RDKit          3D

  0  0  0  0  0  0  0  0  0  0999 V3000
M  V30 BEGIN CTAB
M  V30 COUNTS 31 32 0 0 0
M  V30 BEGIN ATOM
M  V30 1 N -2.96761 -0.675769 1.85678 0
M  V30 2 C -2.62346 0.347732 0.920647 0
M  V30 3 C -3.53847 0.397542 -0.28308 0
M  V30 4 C -2.68238 0.254824 -1.50014 0
M  V30 5 C -1.33061 0.725417 -1.00057 0
M  V30 6 C -1.26038 0.0208542 0.347992 0
M  V30 7 C -0.171501 0.594021 1.22387 0
M  V30 8 C 1.1692 0.268465 0.654113 0
M  V30 9 N 1.93969 -0.806097 0.893795 0
M  V30 10 N 3.06909 -0.757864 0.207782 0
M  V30 11 C 3.03071 0.385371 -0.500488 0
M  V30 12 N 1.87407 1.01897 -0.234374 0
M  V30 13 N 4.02057 0.894165 -1.39982 0
M  V30 14 C 4.15382 -1.739 0.205462 0
M  V30 15 H -3.90756 -0.604383 2.25925 0
M  V30 16 H -2.67292 -1.61448 1.56875 0
M  V30 17 H -2.54527 1.34615 1.42044 0
M  V30 18 H -4.20499 -0.484224 -0.217173 0
M  V30 19 H -4.15117 1.32916 -0.288874 0
M  V30 20 H -2.54704 -0.832746 -1.75467 0
M  V30 21 H -3.02891 0.836184 -2.37225 0
M  V30 22 H -1.35435 1.82106 -0.758878 0
M  V30 23 H -0.501962 0.447344 -1.66113 0
M  V30 24 H -1.18372 -1.07645 0.23033 0
M  V30 25 H -0.2635 0.114808 2.21109 0
M  V30 26 H -0.296251 1.67614 1.26424 0
M  V30 27 H 4.28084 0.373161 -2.26602 0
M  V30 28 H 4.5248 1.79421 -1.24158 0
M  V30 29 H 3.69197 -2.7427 0.330705 0
M  V30 30 H 4.82475 -1.57513 1.05278 0
M  V30 31 H 4.65256 -1.73674 -0.778153 0
M  V30 END ATOM
M  V30 BEGIN BOND
M  V30 1 1 1 2
M  V30 2 1 2 3
M  V30 3 1 3 4
M  V30 4 1 4 5
M  V30 5 1 5 6
M  V30 6 1 6 7
M  V30 7 1 7 8
M  V30 8 2 8 9
M  V30 9 1 9 10
M  V30 10 1 10 11
M  V30 11 2 11 12
M  V30 12 1 11 13
M  V30 13 1 10 14
M  V30 14 1 6 2
M  V30 15 1 12 8
M  V30 16 1 1 15
M  V30 17 1 1 16
M  V30 18 1 2 17
M  V30 19 1 3 18
M  V30 20 1 3 19
M  V30 21 1 4 20
M  V30 22 1 4 21
M  V30 23 1 5 22
M  V30 24 1 5 23
M  V30 25 1 6 24
M  V30 26 1 7 25
M  V30 27 1 7 26
M  V30 28 1 13 27
M  V30 29 1 13 28
M  V30 30 1 14 29
M  V30 31 1 14 30
M  V30 32 1 14 31
M  V30 END BOND
M  V30 END CTAB
M  END
