
     RDKit          3D

  0  0  0  0  0  0  0  0  0  0999 V3000
M  V30 BEGIN CTAB
M  V30 COUNTS 36 39 0 0 0
M  V30 BEGIN ATOM
M  V30 1 N 7.39414 -0.935763 -1.22233 0
M  V30 2 C 6.18473 -0.484117 -0.639226 0
M  V30 3 C 6.24222 0.652612 0.14405 0
M  V30 4 C 5.10437 1.15365 0.745958 0
M  V30 5 C 3.89831 0.495953 0.551546 0
M  V30 6 C 3.8333 -0.649818 -0.236399 0
M  V30 7 C 4.98313 -1.12946 -0.825969 0
M  V30 8 O 2.58191 -1.08076 -0.262032 0
M  V30 9 C 1.83064 -0.283742 0.461829 0
M  V30 10 N 2.63512 0.695608 0.970079 0
M  V30 11 C 0.368668 -0.36499 0.727528 0
M  V30 12 C -0.341626 0.427803 -0.358362 0
M  V30 13 C -1.80169 0.420663 -0.201019 0
M  V30 14 N -2.52903 1.30656 0.493438 0
M  V30 15 C -3.8304 0.967956 0.403553 0
M  V30 16 C -3.86243 -0.170264 -0.381279 0
M  V30 17 O -2.61693 -0.458519 -0.719373 0
M  V30 18 C -5.07177 -0.750464 -0.648746 0
M  V30 19 C -6.25195 -0.240699 -0.164488 0
M  V30 20 C -6.22492 0.904325 0.625613 0
M  V30 21 C -5.01276 1.48164 0.890767 0
M  V30 22 N -7.51121 -0.86473 -0.45675 0
M  V30 23 H 7.73145 -1.88429 -1.03847 0
M  V30 24 H 7.91701 -0.278706 -1.83347 0
M  V30 25 H 7.18885 1.16109 0.291215 0
M  V30 26 H 5.11878 2.04798 1.36898 0
M  V30 27 H 4.97285 -2.01156 -1.44136 0
M  V30 28 H 0.0874816 -1.4414 0.635095 0
M  V30 29 H 0.085459 0.0267796 1.708 0
M  V30 30 H 0.000468274 -0.00273905 -1.33225 0
M  V30 31 H 0.0940454 1.45767 -0.322783 0
M  V30 32 H -5.08037 -1.65285 -1.27282 0
M  V30 33 H -7.17616 1.27455 0.987767 0
M  V30 34 H -5.00201 2.38202 1.51322 0
M  V30 35 H -8.3871 -0.353765 -0.280983 0
M  V30 36 H -7.55259 -1.81822 -0.840578 0
M  V30 END ATOM
M  V30 BEGIN BOND
M  V30 1 1 1 2
M  V30 2 2 2 3
M  V30 3 1 3 4
M  V30 4 2 4 5
M  V30 5 1 5 6
M  V30 6 2 6 7
M  V30 7 1 6 8
M  V30 8 1 8 9
M  V30 9 2 9 10
M  V30 10 1 9 11
M  V30 11 1 11 12
M  V30 12 1 12 13
M  V30 13 2 13 14
M  V30 14 1 14 15
M  V30 15 2 15 16
M  V30 16 1 16 17
M  V30 17 1 16 18
M  V30 18 2 18 19
M  V30 19 1 19 20
M  V30 20 2 20 21
M  V30 21 1 19 22
M  V30 22 1 7 2
M  V30 23 1 17 13
M  V30 24 1 10 5
M  V30 25 1 21 15
M  V30 26 1 1 23
M  V30 27 1 1 24
M  V30 28 1 3 25
M  V30 29 1 4 26
M  V30 30 1 7 27
M  V30 31 1 11 28
M  V30 32 1 11 29
M  V30 33 1 12 30
M  V30 34 1 12 31
M  V30 35 1 18 32
M  V30 36 1 20 33
M  V30 37 1 21 34
M  V30 38 1 22 35
M  V30 39 1 22 36
M  V30 END BOND
M  V30 END CTAB
M  END
