
     RDKit          3D

  0  0  0  0  0  0  0  0  0  0999 V3000
M  V30 BEGIN CTAB
M  V30 COUNTS 36 37 0 0 0
M  V30 BEGIN ATOM
M  V30 1 Cl 8.23307 1.22195 1.36604 0
M  V30 2 C 6.62156 0.843424 0.768866 0
M  V30 3 C 5.53903 1.25392 1.48457 0
M  V30 4 C 4.27683 0.909707 0.990382 0
M  V30 5 C 4.15812 0.180791 -0.200223 0
M  V30 6 C 5.3055 -0.192658 -0.879002 0
M  V30 7 C 6.53601 0.116666 -0.417849 0
M  V30 8 Cl 5.15064 -1.13292 -2.38767 0
M  V30 9 C 2.81122 0.0706414 -0.849888 0
M  V30 10 O 1.89624 -0.463276 -0.0293949 0
M  V30 11 C 0.574602 -0.699529 0.0710102 0
M  V30 12 C 0.0935221 -1.5225 1.10225 0
M  V30 13 C -1.23987 -1.77182 1.23196 0
M  V30 14 C -2.17061 -1.23906 0.393314 0
M  V30 15 C -1.69825 -0.42079 -0.642361 0
M  V30 16 C -0.32814 -0.15595 -0.795828 0
M  V30 17 C -3.62631 -1.49151 0.449598 0
M  V30 18 N -4.40748 -0.701425 -0.203871 0
M  V30 19 N -5.69759 -0.567619 -0.413155 0
M  V30 20 C -6.31469 0.577469 -0.20288 0
M  V30 21 N -5.61203 1.69911 0.286756 0
M  V30 22 N -7.68114 0.638063 -0.519515 0
M  V30 23 H 5.57828 1.84891 2.41935 0
M  V30 24 H 3.35734 1.19524 1.51599 0
M  V30 25 H 7.45974 -0.207053 -0.944502 0
M  V30 26 H 2.48881 1.14059 -1.11643 0
M  V30 27 H 2.91317 -0.476089 -1.78767 0
M  V30 28 H 0.860563 -1.9466 1.77449 0
M  V30 29 H -1.60042 -2.43122 2.02877 0
M  V30 30 H -2.41089 0.00247812 -1.31928 0
M  V30 31 H 0.0686776 0.48122 -1.58208 0
M  V30 32 H -4.05663 -2.32133 0.985032 0
M  V30 33 H -5.83687 2.08679 1.21535 0
M  V30 34 H -4.84658 2.15296 -0.288758 0
M  V30 35 H -7.98144 0.779034 -1.50533 0
M  V30 36 H -8.41399 0.542385 0.198258 0
M  V30 END ATOM
M  V30 BEGIN BOND
M  V30 1 1 1 2
M  V30 2 2 2 3
M  V30 3 1 3 4
M  V30 4 2 4 5
M  V30 5 1 5 6
M  V30 6 2 6 7
M  V30 7 1 6 8
M  V30 8 1 5 9
M  V30 9 1 9 10
M  V30 10 1 10 11
M  V30 11 2 11 12
M  V30 12 1 12 13
M  V30 13 2 13 14
M  V30 14 1 14 15
M  V30 15 2 15 16
M  V30 16 1 14 17
M  V30 17 2 17 18
M  V30 18 1 18 19
M  V30 19 2 19 20
M  V30 20 1 20 21
M  V30 21 1 20 22
M  V30 22 1 7 2
M  V30 23 1 16 11
M  V30 24 1 3 23
M  V30 25 1 4 24
M  V30 26 1 7 25
M  V30 27 1 9 26
M  V30 28 1 9 27
M  V30 29 1 12 28
M  V30 30 1 13 29
M  V30 31 1 15 30
M  V30 32 1 16 31
M  V30 33 1 17 32
M  V30 34 1 21 33
M  V30 35 1 21 34
M  V30 36 1 22 35
M  V30 37 1 22 36
M  V30 END BOND
M  V30 END CTAB
M  END
