
     RDKit          3D

  0  0  0  0  0  0  0  0  0  0999 V3000
M  V30 BEGIN CTAB
M  V30 COUNTS 26 27 0 0 0
M  V30 BEGIN ATOM
M  V30 1 N 4.9302 0.340851 0.0244766 0
M  V30 2 C 3.51162 0.245347 0.0814924 0
M  V30 3 C 2.85816 -0.91955 -0.269807 0
M  V30 4 C 1.4876 -1.03738 -0.234621 0
M  V30 5 F 0.885926 -2.20253 -0.587194 0
M  V30 6 C 0.724245 0.0639907 0.171624 0
M  V30 7 C 1.33965 1.24413 0.530288 0
M  V30 8 C 2.72729 1.31082 0.477852 0
M  V30 9 C -0.730421 -0.066465 0.197764 0
M  V30 10 C -1.49518 0.931676 -0.389576 0
M  V30 11 F -0.879138 2.00378 -0.970098 0
M  V30 12 C -2.87795 0.828387 -0.384544 0
M  V30 13 C -3.51668 -0.248246 0.193492 0
M  V30 14 N -4.93291 -0.337983 0.182683 0
M  V30 15 C -2.72762 -1.23043 0.773014 0
M  V30 16 C -1.33858 -1.15435 0.783644 0
M  V30 17 H 5.57571 0.142277 0.807917 0
M  V30 18 H 5.34421 0.636439 -0.890457 0
M  V30 19 H 3.45659 -1.76033 -0.580174 0
M  V30 20 H 0.768165 2.12212 0.855659 0
M  V30 21 H 3.1858 2.25942 0.767661 0
M  V30 22 H -3.43811 1.63829 -0.858383 0
M  V30 23 H -5.40308 -0.422359 -0.7549 0
M  V30 24 H -5.50172 -0.322574 1.05377 0
M  V30 25 H -3.17807 -2.10764 1.24881 0
M  V30 26 H -0.775712 -1.95768 1.25399 0
M  V30 END ATOM
M  V30 BEGIN BOND
M  V30 1 1 1 2
M  V30 2 2 2 3
M  V30 3 1 3 4
M  V30 4 1 4 5
M  V30 5 2 4 6
M  V30 6 1 6 7
M  V30 7 2 7 8
M  V30 8 1 6 9
M  V30 9 2 9 10
M  V30 10 1 10 11
M  V30 11 1 10 12
M  V30 12 2 12 13
M  V30 13 1 13 14
M  V30 14 1 13 15
M  V30 15 2 15 16
M  V30 16 1 8 2
M  V30 17 1 16 9
M  V30 18 1 1 17
M  V30 19 1 1 18
M  V30 20 1 3 19
M  V30 21 1 7 20
M  V30 22 1 8 21
M  V30 23 1 12 22
M  V30 24 1 14 23
M  V30 25 1 14 24
M  V30 26 1 15 25
M  V30 27 1 16 26
M  V30 END BOND
M  V30 END CTAB
M  END
