
     RDKit          3D

  0  0  0  0  0  0  0  0  0  0999 V3000
M  V30 BEGIN CTAB
M  V30 COUNTS 22 22 0 0 0
M  V30 BEGIN ATOM
M  V30 1 N -0.841017 -1.80192 1.05701 0
M  V30 2 C -1.06178 -0.308818 0.685427 0
M  V30 3 C 0.276966 0.0828306 0.281999 0
M  V30 4 C 1.13322 -0.767456 -0.405238 0
M  V30 5 C 2.47401 -0.486154 -0.665975 0
M  V30 6 C 3.00386 0.714862 -0.230714 0
M  V30 7 C 2.16546 1.61593 0.468603 0
M  V30 8 C 0.884884 1.28719 0.697591 0
M  V30 9 F 0.112663 2.22207 1.34506 0
M  V30 10 Cl 2.82685 3.20475 0.937839 0
M  V30 11 C -2.03834 -0.508777 -0.524966 0
M  V30 12 N -2.41005 0.84291 -0.979566 0
M  V30 13 H -0.914701 -2.29659 0.0959408 0
M  V30 14 H -1.72133 -2.10534 1.53954 0
M  V30 15 H -1.49807 0.225856 1.46761 0
M  V30 16 H 0.819153 -1.74671 -0.796151 0
M  V30 17 H 3.11895 -1.19451 -1.1523 0
M  V30 18 H 4.0167 0.992416 -0.407277 0
M  V30 19 H -1.46859 -1.0696 -1.35085 0
M  V30 20 H -2.90224 -1.0642 -0.24132 0
M  V30 21 H -3.33648 0.720267 -1.53625 0
M  V30 22 H -2.64011 1.44098 -0.133413 0
M  V30 END ATOM
M  V30 BEGIN BOND
M  V30 1 1 1 2
M  V30 2 1 2 3
M  V30 3 2 3 4
M  V30 4 1 4 5
M  V30 5 2 5 6
M  V30 6 1 6 7
M  V30 7 2 7 8
M  V30 8 1 8 9
M  V30 9 1 7 10
M  V30 10 1 2 11
M  V30 11 1 11 12
M  V30 12 1 8 3
M  V30 13 1 1 13
M  V30 14 1 1 14
M  V30 15 1 2 15
M  V30 16 1 4 16
M  V30 17 1 5 17
M  V30 18 1 6 18
M  V30 19 1 11 19
M  V30 20 1 11 20
M  V30 21 1 12 21
M  V30 22 1 12 22
M  V30 END BOND
M  V30 END CTAB
M  END
