
     RDKit          3D

  0  0  0  0  0  0  0  0  0  0999 V3000
M  V30 BEGIN CTAB
M  V30 COUNTS 32 34 0 0 0
M  V30 BEGIN ATOM
M  V30 1 N -6.88915 2.07785 0.656789 0
M  V30 2 C -5.95694 1.50343 0.282217 0
M  V30 3 C -4.79138 0.774488 -0.18583 0
M  V30 4 C -3.556 1.11139 0.308026 0
M  V30 5 C -2.41866 0.407933 -0.141696 0
M  V30 6 C -2.68195 -0.567453 -1.05315 0
M  V30 7 N -3.93152 -0.875112 -1.52314 0
M  V30 8 C -5.03009 -0.218663 -1.10929 0
M  V30 9 N -6.31726 -0.54505 -1.60185 0
M  V30 10 S -1.12028 -1.209 -1.38124 0
M  V30 11 C -0.201761 -0.215961 -0.351528 0
M  V30 12 C -1.13839 0.594711 0.225245 0
M  V30 13 N -0.679423 1.58578 1.18133 0
M  V30 14 C 1.24759 -0.278146 -0.180259 0
M  V30 15 O 1.77218 0.530834 0.623605 0
M  V30 16 N 2.01487 -1.22891 -0.908519 0
M  V30 17 C 3.43218 -1.23445 -0.691719 0
M  V30 18 S 4.65242 -2.2153 -1.37592 0
M  V30 19 C 6.0024 -1.54848 -0.569783 0
M  V30 20 C 5.40734 -0.577834 0.203147 0
M  V30 21 N 4.12401 -0.4488 0.117457 0
M  V30 22 C 6.24657 0.3002 1.1171 0
M  V30 23 H -3.47687 1.91214 1.03486 0
M  V30 24 H -6.53257 -0.831951 -2.5693 0
M  V30 25 H -7.13269 -0.495088 -0.935753 0
M  V30 26 H -0.31812 2.50046 0.884279 0
M  V30 27 H -0.729327 1.33787 2.17115 0
M  V30 28 H 1.59366 -1.8933 -1.5672 0
M  V30 29 H 7.07959 -1.79403 -0.620344 0
M  V30 30 H 7.17639 -0.213923 1.37995 0
M  V30 31 H 6.51261 1.23784 0.564018 0
M  V30 32 H 5.64054 0.516542 2.01046 0
M  V30 END ATOM
M  V30 BEGIN BOND
M  V30 1 3 1 2
M  V30 2 1 2 3
M  V30 3 2 3 4
M  V30 4 1 4 5
M  V30 5 2 5 6
M  V30 6 1 6 7
M  V30 7 2 7 8
M  V30 8 1 8 9
M  V30 9 1 6 10
M  V30 10 1 10 11
M  V30 11 2 11 12
M  V30 12 1 12 13
M  V30 13 1 11 14
M  V30 14 2 14 15
M  V30 15 1 14 16
M  V30 16 1 16 17
M  V30 17 1 17 18
M  V30 18 1 18 19
M  V30 19 2 19 20
M  V30 20 1 20 21
M  V30 21 1 20 22
M  V30 22 1 8 3
M  V30 23 2 21 17
M  V30 24 1 12 5
M  V30 25 1 4 23
M  V30 26 1 9 24
M  V30 27 1 9 25
M  V30 28 1 13 26
M  V30 29 1 13 27
M  V30 30 1 16 28
M  V30 31 1 19 29
M  V30 32 1 22 30
M  V30 33 1 22 31
M  V30 34 1 22 32
M  V30 END BOND
M  V30 END CTAB
M  END
