
     RDKit          3D

  0  0  0  0  0  0  0  0  0  0999 V3000
M  V30 BEGIN CTAB
M  V30 COUNTS 20 21 0 0 0
M  V30 BEGIN ATOM
M  V30 1 N -3.79441 -1.57825 -0.174166 0
M  V30 2 C -2.53436 -0.955895 -0.079123 0
M  V30 3 N -2.35981 0.326129 0.214604 0
M  V30 4 C -1.19867 0.963379 0.317149 0
M  V30 5 N -1.20486 2.34638 0.64187 0
M  V30 6 C -0.00723987 0.242449 0.0998177 0
M  V30 7 C -0.168945 -1.07656 -0.203104 0
M  V30 8 N -1.40074 -1.6642 -0.291154 0
M  V30 9 S 1.43023 -1.62841 -0.397249 0
M  V30 10 C 2.27013 -0.162903 -0.0873778 0
M  V30 11 C 1.24945 0.716378 0.160191 0
M  V30 12 C 3.71732 0.080903 -0.0887024 0
M  V30 13 O 4.11824 1.23091 0.164908 0
M  V30 14 O 4.61306 -0.920687 -0.359926 0
M  V30 15 H -4.44171 -1.31389 -0.93053 0
M  V30 16 H -4.06238 -2.30059 0.520335 0
M  V30 17 H -1.98002 2.96001 0.345693 0
M  V30 18 H -0.412143 2.77196 1.19471 0
M  V30 19 H 1.52738 1.77584 0.397525 0
M  V30 20 H 4.63948 -1.81296 0.120366 0
M  V30 END ATOM
M  V30 BEGIN BOND
M  V30 1 1 1 2
M  V30 2 2 2 3
M  V30 3 1 3 4
M  V30 4 1 4 5
M  V30 5 2 4 6
M  V30 6 1 6 7
M  V30 7 2 7 8
M  V30 8 1 7 9
M  V30 9 1 9 10
M  V30 10 2 10 11
M  V30 11 1 10 12
M  V30 12 2 12 13
M  V30 13 1 12 14
M  V30 14 1 8 2
M  V30 15 1 11 6
M  V30 16 1 1 15
M  V30 17 1 1 16
M  V30 18 1 5 17
M  V30 19 1 5 18
M  V30 20 1 11 19
M  V30 21 1 14 20
M  V30 END BOND
M  V30 END CTAB
M  END
