
     RDKit          3D

  0  0  0  0  0  0  0  0  0  0999 V3000
M  V30 BEGIN CTAB
M  V30 COUNTS 57 58 0 0 0
M  V30 BEGIN ATOM
M  V30 1 C -5.27503 0.392421 1.41147 0
M  V30 2 C -4.80746 1.34041 0.322741 0
M  V30 3 C -4.33763 0.562461 -0.87865 0
M  V30 4 C -3.20088 -0.317881 -0.429557 0
M  V30 5 O -3.35951 -1.54134 -0.604276 0
M  V30 6 N -2.08373 0.295941 0.135809 0
M  V30 7 C -0.905584 -0.310658 0.62661 0
M  V30 8 C -0.586984 -1.62525 0.402743 0
M  V30 9 C 0.568971 -2.22183 0.913235 0
M  V30 10 C 1.44502 -1.48184 1.67747 0
M  V30 11 C 1.15564 -0.161807 1.91987 0
M  V30 12 C 0.00955066 0.395649 1.40316 0
M  V30 13 O 1.97465 0.652856 2.67341 0
M  V30 14 C 3.17151 0.324966 3.28934 0
M  V30 15 C 4.19085 -0.115919 2.30441 0
M  V30 16 N 5.13942 -1.01381 2.63831 0
M  V30 17 C 6.05957 -1.39041 1.69859 0
M  V30 18 N 7.06886 -2.34004 2.03331 0
M  V30 19 N 6.00242 -0.860686 0.465318 0
M  V30 20 C 5.08219 0.0205557 0.116542 0
M  V30 21 N 4.16664 0.394124 1.05276 0
M  V30 22 N 4.94838 0.631498 -1.16502 0
M  V30 23 C 4.08919 0.104298 -2.18356 0
M  V30 24 C 5.74371 1.82859 -1.3792 0
M  V30 25 C -5.45004 -0.249135 -1.49398 0
M  V30 26 N -6.48404 0.700856 -1.89122 0
M  V30 27 C -3.78349 1.52699 -1.89501 0
M  V30 28 C -3.29962 0.772661 -3.12811 0
M  V30 29 H -6.3819 0.457337 1.50033 0
M  V30 30 H -4.78134 0.617535 2.37595 0
M  V30 31 H -4.99138 -0.668686 1.16583 0
M  V30 32 H -3.95877 1.91873 0.717337 0
M  V30 33 H -5.59908 2.07211 0.0560184 0
M  V30 34 H -2.08109 1.37004 0.221639 0
M  V30 35 H -1.19691 -2.27988 -0.182902 0
M  V30 36 H 0.809324 -3.26479 0.729161 0
M  V30 37 H 2.31877 -1.96517 2.05776 0
M  V30 38 H -0.215451 1.4437 1.59928 0
M  V30 39 H 3.54403 1.25991 3.80014 0
M  V30 40 H 3.03502 -0.453608 4.09383 0
M  V30 41 H 6.89854 -3.03054 2.78221 0
M  V30 42 H 7.97857 -2.3579 1.54145 0
M  V30 43 H 3.67109 0.950766 -2.77467 0
M  V30 44 H 4.63324 -0.636406 -2.76808 0
M  V30 45 H 3.19625 -0.391068 -1.70007 0
M  V30 46 H 5.38336 2.37763 -2.26003 0
M  V30 47 H 5.68644 2.50619 -0.507436 0
M  V30 48 H 6.82319 1.5268 -1.49806 0
M  V30 49 H -5.06856 -0.850566 -2.31964 0
M  V30 50 H -5.83576 -0.936166 -0.71217 0
M  V30 51 H -7.1644 0.78309 -1.10942 0
M  V30 52 H -6.93208 0.442461 -2.80623 0
M  V30 53 H -4.56908 2.28354 -2.18454 0
M  V30 54 H -2.92147 2.08991 -1.48614 0
M  V30 55 H -3.02764 -0.263587 -2.88226 0
M  V30 56 H -4.09009 0.815655 -3.9308 0
M  V30 57 H -2.40539 1.26769 -3.55498 0
M  V30 END ATOM
M  V30 BEGIN BOND
M  V30 1 1 1 2
M  V30 2 1 2 3
M  V30 3 1 3 4
M  V30 4 2 4 5
M  V30 5 1 4 6
M  V30 6 1 6 7
M  V30 7 2 7 8
M  V30 8 1 8 9
M  V30 9 2 9 10
M  V30 10 1 10 11
M  V30 11 2 11 12
M  V30 12 1 11 13
M  V30 13 1 13 14
M  V30 14 1 14 15
M  V30 15 2 15 16
M  V30 16 1 16 17
M  V30 17 1 17 18
M  V30 18 2 17 19
M  V30 19 1 19 20
M  V30 20 2 20 21
M  V30 21 1 20 22
M  V30 22 1 22 23
M  V30 23 1 22 24
M  V30 24 1 3 25
M  V30 25 1 25 26
M  V30 26 1 3 27
M  V30 27 1 27 28
M  V30 28 1 12 7
M  V30 29 1 21 15
M  V30 30 1 1 29
M  V30 31 1 1 30
M  V30 32 1 1 31
M  V30 33 1 2 32
M  V30 34 1 2 33
M  V30 35 1 6 34
M  V30 36 1 8 35
M  V30 37 1 9 36
M  V30 38 1 10 37
M  V30 39 1 12 38
M  V30 40 1 14 39
M  V30 41 1 14 40
M  V30 42 1 18 41
M  V30 43 1 18 42
M  V30 44 1 23 43
M  V30 45 1 23 44
M  V30 46 1 23 45
M  V30 47 1 24 46
M  V30 48 1 24 47
M  V30 49 1 24 48
M  V30 50 1 25 49
M  V30 51 1 25 50
M  V30 52 1 26 51
M  V30 53 1 26 52
M  V30 54 1 27 53
M  V30 55 1 27 54
M  V30 56 1 28 55
M  V30 57 1 28 56
M  V30 58 1 28 57
M  V30 END BOND
M  V30 END CTAB
M  END
