
     RDKit          3D

  0  0  0  0  0  0  0  0  0  0999 V3000
M  V30 BEGIN CTAB
M  V30 COUNTS 33 33 0 0 0
M  V30 BEGIN ATOM
M  V30 1 N -2.73321 1.88366 -1.13346 0
M  V30 2 C -3.65301 0.986811 -0.510033 0
M  V30 3 C -3.08469 0.20754 0.617419 0
M  V30 4 N -1.92748 -0.639886 0.232823 0
M  V30 5 C -0.63853 -0.0858244 0.395101 0
M  V30 6 S -0.606022 1.4223 1.11229 0
M  V30 7 N 0.555632 -0.659265 -0.0381213 0
M  V30 8 C 1.87345 -0.195814 0.102516 0
M  V30 9 C 2.84176 -0.478562 -0.872923 0
M  V30 10 C 4.14945 -0.0738489 -0.760636 0
M  V30 11 C 4.56622 0.641589 0.3411 0
M  V30 12 C 3.63601 0.929691 1.30938 0
M  V30 13 C 2.30402 0.508903 1.18049 0
M  V30 14 Cl 4.15067 1.84407 2.7263 0
M  V30 15 N 5.91492 1.07793 0.489402 0
M  V30 16 C -2.21053 -1.9359 -0.259562 0
M  V30 17 O -1.33912 -2.75009 -0.62143 0
M  V30 18 C -3.63 -2.42572 -0.378153 0
M  V30 19 H -2.81221 2.87057 -0.792105 0
M  V30 20 H -2.70093 1.83114 -2.16608 0
M  V30 21 H -4.07454 0.351844 -1.31729 0
M  V30 22 H -4.51437 1.63247 -0.148275 0
M  V30 23 H -3.85577 -0.390403 1.10524 0
M  V30 24 H -2.73221 0.931848 1.40557 0
M  V30 25 H 0.505501 -1.589 -0.568913 0
M  V30 26 H 2.49057 -1.04692 -1.73854 0
M  V30 27 H 4.88569 -0.30213 -1.52649 0
M  V30 28 H 1.6754 0.766882 1.99753 0
M  V30 29 H 6.6732 0.52712 0.0475774 0
M  V30 30 H 6.15053 1.9225 1.02217 0
M  V30 31 H -4.15195 -2.25073 0.571619 0
M  V30 32 H -4.06608 -1.97955 -1.27107 0
M  V30 33 H -3.64237 -3.5332 -0.55345 0
M  V30 END ATOM
M  V30 BEGIN BOND
M  V30 1 1 1 2
M  V30 2 1 2 3
M  V30 3 1 3 4
M  V30 4 1 4 5
M  V30 5 2 5 6
M  V30 6 1 5 7
M  V30 7 1 7 8
M  V30 8 2 8 9
M  V30 9 1 9 10
M  V30 10 2 10 11
M  V30 11 1 11 12
M  V30 12 2 12 13
M  V30 13 1 12 14
M  V30 14 1 11 15
M  V30 15 1 4 16
M  V30 16 2 16 17
M  V30 17 1 16 18
M  V30 18 1 13 8
M  V30 19 1 1 19
M  V30 20 1 1 20
M  V30 21 1 2 21
M  V30 22 1 2 22
M  V30 23 1 3 23
M  V30 24 1 3 24
M  V30 25 1 7 25
M  V30 26 1 9 26
M  V30 27 1 10 27
M  V30 28 1 13 28
M  V30 29 1 15 29
M  V30 30 1 15 30
M  V30 31 1 18 31
M  V30 32 1 18 32
M  V30 33 1 18 33
M  V30 END BOND
M  V30 END CTAB
M  END
