
     RDKit          3D

  0  0  0  0  0  0  0  0  0  0999 V3000
M  V30 BEGIN CTAB
M  V30 COUNTS 28 29 0 0 0
M  V30 BEGIN ATOM
M  V30 1 N -4.01067 0.119231 -0.0691485 0
M  V30 2 C -3.25463 -0.799348 0.75106 0
M  V30 3 C -2.19981 -0.154378 1.6266 0
M  V30 4 C -1.12462 -0.498961 0.643801 0
M  V30 5 C -2.12059 -1.41352 -0.0468528 0
M  V30 6 C -0.786294 0.703144 -0.22383 0
M  V30 7 S 0.512656 0.329885 -1.42541 0
M  V30 8 C 2.0875 0.0505151 -0.640042 0
M  V30 9 N 2.4414 -1.17647 -0.223559 0
M  V30 10 C 3.62874 -1.40179 0.363719 0
M  V30 11 C 4.51177 -0.366906 0.549811 0
M  V30 12 N 4.13969 0.850809 0.127268 0
M  V30 13 C 2.97578 1.09538 -0.453369 0
M  V30 14 N 2.62485 2.39498 -0.889766 0
M  V30 15 H -3.91781 1.11766 0.228711 0
M  V30 16 H -5.00844 -0.216071 -0.0673539 0
M  V30 17 H -3.87762 -1.51262 1.33385 0
M  V30 18 H -2.04925 -0.662801 2.60805 0
M  V30 19 H -2.424 0.907596 1.78236 0
M  V30 20 H -0.262459 -1.00373 1.11288 0
M  V30 21 H -2.1575 -1.20701 -1.15065 0
M  V30 22 H -1.9751 -2.4929 0.108873 0
M  V30 23 H -0.492727 1.50197 0.493559 0
M  V30 24 H -1.69085 0.998713 -0.783775 0
M  V30 25 H 3.96328 -2.3822 0.720694 0
M  V30 26 H 5.47501 -0.524777 1.02168 0
M  V30 27 H 2.55087 2.62109 -1.92257 0
M  V30 28 H 2.44082 3.12252 -0.17885 0
M  V30 END ATOM
M  V30 BEGIN BOND
M  V30 1 1 1 2
M  V30 2 1 2 3
M  V30 3 1 3 4
M  V30 4 1 4 5
M  V30 5 1 4 6
M  V30 6 1 6 7
M  V30 7 1 7 8
M  V30 8 2 8 9
M  V30 9 1 9 10
M  V30 10 2 10 11
M  V30 11 1 11 12
M  V30 12 2 12 13
M  V30 13 1 13 14
M  V30 14 1 5 2
M  V30 15 1 13 8
M  V30 16 1 1 15
M  V30 17 1 1 16
M  V30 18 1 2 17
M  V30 19 1 3 18
M  V30 20 1 3 19
M  V30 21 1 4 20
M  V30 22 1 5 21
M  V30 23 1 5 22
M  V30 24 1 6 23
M  V30 25 1 6 24
M  V30 26 1 10 25
M  V30 27 1 11 26
M  V30 28 1 14 27
M  V30 29 1 14 28
M  V30 END BOND
M  V30 END CTAB
M  END
