
     RDKit          3D

  0  0  0  0  0  0  0  0  0  0999 V3000
M  V30 BEGIN CTAB
M  V30 COUNTS 25 25 0 0 0
M  V30 BEGIN ATOM
M  V30 1 C -3.84358 -0.571075 0.021294 0
M  V30 2 C -2.53247 0.0885293 0.032269 0
M  V30 3 C -2.42328 1.46449 0.0828007 0
M  V30 4 C -1.16549 2.03137 0.090876 0
M  V30 5 C -0.0207216 1.26568 0.0500909 0
M  V30 6 C -0.11448 -0.111428 -0.000642955 0
M  V30 7 C -1.37588 -0.668053 -0.00829877 0
M  V30 8 C -1.45602 -2.11981 -0.0620088 0
M  V30 9 N -1.50938 -3.27451 -0.12043 0
M  V30 10 N 1.04248 -0.944027 -0.0440219 0
M  V30 11 C 2.35764 -0.447662 -0.0391989 0
M  V30 12 N 2.80248 0.14914 1.0107 0
M  V30 13 N 4.10138 0.646577 1.03309 0
M  V30 14 N 3.17704 -0.602648 -1.17081 0
M  V30 15 H -3.82492 -1.60488 0.407291 0
M  V30 16 H -4.56355 0.0175882 0.650322 0
M  V30 17 H -4.2503 -0.530296 -1.01774 0
M  V30 18 H -3.33115 2.04862 0.114286 0
M  V30 19 H -1.09512 3.10885 0.130595 0
M  V30 20 H 0.967191 1.72408 0.0569212 0
M  V30 21 H 0.915651 -1.97764 -0.0814748 0
M  V30 22 H 4.55194 0.886412 0.131184 0
M  V30 23 H 4.59055 0.767648 1.93746 0
M  V30 24 H 3.1204 0.018717 -2.0052 0
M  V30 25 H 3.87959 -1.36568 -1.19935 0
M  V30 END ATOM
M  V30 BEGIN BOND
M  V30 1 1 1 2
M  V30 2 2 2 3
M  V30 3 1 3 4
M  V30 4 2 4 5
M  V30 5 1 5 6
M  V30 6 2 6 7
M  V30 7 1 7 8
M  V30 8 3 8 9
M  V30 9 1 6 10
M  V30 10 1 10 11
M  V30 11 2 11 12 CFG=2
M  V30 12 1 12 13
M  V30 13 1 11 14
M  V30 14 1 7 2
M  V30 15 1 1 15
M  V30 16 1 1 16
M  V30 17 1 1 17
M  V30 18 1 3 18
M  V30 19 1 4 19
M  V30 20 1 5 20
M  V30 21 1 10 21
M  V30 22 1 13 22
M  V30 23 1 13 23
M  V30 24 1 14 24
M  V30 25 1 14 25
M  V30 END BOND
M  V30 END CTAB
M  END
