
     RDKit          3D

  0  0  0  0  0  0  0  0  0  0999 V3000
M  V30 BEGIN CTAB
M  V30 COUNTS 19 19 0 0 0
M  V30 BEGIN ATOM
M  V30 1 C 3.02769 2.25851 0.0310357 0
M  V30 2 C 2.92143 1.2911 -0.651081 0
M  V30 3 C 2.79267 0.129642 -1.5013 0
M  V30 4 S 1.12663 0.0327097 -2.19043 0
M  V30 5 C -0.104654 -0.264623 -0.953133 0
M  V30 6 N -0.485895 -1.48735 -0.579547 0
M  V30 7 C -1.44256 -1.64661 0.382361 0
M  V30 8 N -1.87108 -2.93577 0.802748 0
M  V30 9 N -2.0158 -0.586214 0.968485 0
M  V30 10 C -1.6369 0.633886 0.597201 0
M  V30 11 N -0.685397 0.781171 -0.359549 0
M  V30 12 N -2.24293 1.77526 1.21719 0
M  V30 13 H 3.12044 3.13381 0.634135 0
M  V30 14 H 3.56781 0.157332 -2.29013 0
M  V30 15 H 2.96452 -0.834765 -0.946807 0
M  V30 16 H -1.24523 -3.57663 1.33278 0
M  V30 17 H -2.85176 -3.25212 0.570765 0
M  V30 18 H -2.40279 1.77348 2.24654 0
M  V30 19 H -2.53618 2.61717 0.688742 0
M  V30 END ATOM
M  V30 BEGIN BOND
M  V30 1 3 1 2
M  V30 2 1 2 3
M  V30 3 1 3 4
M  V30 4 1 4 5
M  V30 5 2 5 6
M  V30 6 1 6 7
M  V30 7 1 7 8
M  V30 8 2 7 9
M  V30 9 1 9 10
M  V30 10 2 10 11
M  V30 11 1 10 12
M  V30 12 1 11 5
M  V30 13 1 1 13
M  V30 14 1 3 14
M  V30 15 1 3 15
M  V30 16 1 8 16
M  V30 17 1 8 17
M  V30 18 1 12 18
M  V30 19 1 12 19
M  V30 END BOND
M  V30 END CTAB
M  END
