
     RDKit          3D

  0  0  0  0  0  0  0  0  0  0999 V3000
M  V30 BEGIN CTAB
M  V30 COUNTS 40 42 0 0 0
M  V30 BEGIN ATOM
M  V30 1 N 5.64283 1.77082 -0.000389108 0
M  V30 2 C 4.94965 0.984466 0.975683 0
M  V30 3 C 4.07856 -0.111617 0.344736 0
M  V30 4 S 3.19907 -0.997642 1.64229 0
M  V30 5 C 1.41278 -0.787835 1.5719 0
M  V30 6 C 0.757742 -1.68374 0.550144 0 CFG=1
M  V30 7 O -0.603587 -1.43615 0.528503 0
M  V30 8 C -1.0229 -1.26788 -0.76196 0 CFG=2
M  V30 9 C 0.213772 -0.75054 -1.47991 0 CFG=2
M  V30 10 O 0.178863 -0.973651 -2.84963 0
M  V30 11 C 1.26972 -1.65207 -0.826453 0 CFG=2
M  V30 12 O 1.04129 -2.91883 -1.47219 0
M  V30 13 N -2.12989 -0.352591 -0.910494 0
M  V30 14 C -2.45551 0.217795 -2.07956 0
M  V30 15 N -3.50731 1.0301 -1.88304 0
M  V30 16 C -3.85043 0.978525 -0.589404 0
M  V30 17 C -2.98537 0.109467 0.0162228 0
M  V30 18 N -3.1488 -0.097929 1.33054 0
M  V30 19 C -4.11178 0.513688 2.02995 0
M  V30 20 N -4.97091 1.38067 1.40623 0
M  V30 21 C -4.87063 1.63873 0.0974098 0
M  V30 22 N -5.7035 2.52409 -0.631969 0
M  V30 23 H 5.18579 1.80294 -0.920341 0
M  V30 24 H 5.78746 2.72589 0.397966 0
M  V30 25 H 4.37804 1.55706 1.70726 0
M  V30 26 H 5.772 0.470366 1.58263 0
M  V30 27 H 3.3022 0.51689 -0.2426 0
M  V30 28 H 4.60743 -0.719429 -0.386026 0
M  V30 29 H 1.20383 0.286661 1.3378 0
M  V30 30 H 1.00291 -1.05242 2.58683 0
M  V30 31 H 0.842284 -2.75258 0.982875 0
M  V30 32 H -1.25375 -2.26797 -1.23519 0
M  V30 33 H 0.402687 0.297253 -1.23524 0
M  V30 34 H 0.556573 -0.174036 -3.27174 0
M  V30 35 H 2.27266 -1.31185 -1.02151 0
M  V30 36 H 0.867505 -3.62372 -0.787531 0
M  V30 37 H -1.98362 0.077204 -3.06506 0
M  V30 38 H -4.24502 0.359304 3.0875 0
M  V30 39 H -6.25692 2.14999 -1.43873 0
M  V30 40 H -5.82572 3.54058 -0.445137 0
M  V30 END ATOM
M  V30 BEGIN BOND
M  V30 1 1 1 2
M  V30 2 1 2 3
M  V30 3 1 3 4
M  V30 4 1 4 5
M  V30 5 1 5 6
M  V30 6 1 6 7
M  V30 7 1 7 8
M  V30 8 1 8 9
M  V30 9 1 9 10
M  V30 10 1 9 11
M  V30 11 1 11 12
M  V30 12 1 8 13
M  V30 13 1 13 14
M  V30 14 2 14 15
M  V30 15 1 15 16
M  V30 16 2 16 17
M  V30 17 1 17 18
M  V30 18 2 18 19
M  V30 19 1 19 20
M  V30 20 2 20 21
M  V30 21 1 21 22
M  V30 22 1 11 6
M  V30 23 1 17 13
M  V30 24 1 21 16
M  V30 25 1 1 23
M  V30 26 1 1 24
M  V30 27 1 2 25
M  V30 28 1 2 26
M  V30 29 1 3 27
M  V30 30 1 3 28
M  V30 31 1 5 29
M  V30 32 1 5 30
M  V30 33 1 6 31 CFG=1
M  V30 34 1 8 32 CFG=3
M  V30 35 1 9 33 CFG=3
M  V30 36 1 10 34
M  V30 37 1 11 35 CFG=1
M  V30 38 1 12 36
M  V30 39 1 14 37
M  V30 40 1 19 38
M  V30 41 1 22 39
M  V30 42 1 22 40
M  V30 END BOND
M  V30 END CTAB
M  END
