
     RDKit          3D

  0  0  0  0  0  0  0  0  0  0999 V3000
M  V30 BEGIN CTAB
M  V30 COUNTS 48 49 0 0 0
M  V30 BEGIN ATOM
M  V30 1 C 2.18052 1.45831 -2.45808 0
M  V30 2 C 2.27114 0.536628 -1.259 0
M  V30 3 C 2.51781 1.29138 0.0276459 0
M  V30 4 C 2.56265 0.363537 1.14262 0
M  V30 5 N 3.78637 -0.242982 1.32873 0
M  V30 6 C 3.9731 -1.17425 2.26329 0
M  V30 7 N 5.26186 -1.79933 2.44155 0
M  V30 8 N 2.93112 -1.51468 3.03173 0
M  V30 9 C 1.72663 -0.950406 2.88667 0
M  V30 10 N 0.6194 -1.30644 3.71852 0
M  V30 11 C 1.49356 0.0426243 1.90356 0
M  V30 12 C 0.206956 0.683206 1.83098 0
M  V30 13 C -0.735068 0.339782 0.753423 0
M  V30 14 C -1.23826 -0.926434 0.554399 0
M  V30 15 C -2.15884 -1.21077 -0.440328 0
M  V30 16 O -2.66884 -2.49298 -0.642261 0
M  V30 17 C -2.2006 -3.51029 0.224852 0
M  V30 18 C -2.61901 -0.229052 -1.28614 0
M  V30 19 O -3.54188 -0.490087 -2.29149 0
M  V30 20 C -4.91122 -0.361289 -1.91396 0
M  V30 21 C -2.13122 1.06861 -1.11482 0
M  V30 22 O -2.56071 2.0932 -1.93745 0
M  V30 23 C -2.1816 3.42092 -1.90042 0
M  V30 24 C -1.22189 1.32232 -0.124169 0
M  V30 25 H 1.81653 2.43972 -2.14382 0
M  V30 26 H 1.49091 1.01036 -3.2222 0
M  V30 27 H 3.14627 1.59159 -2.98097 0
M  V30 28 H 1.47067 -0.198017 -1.19074 0
M  V30 29 H 3.19645 -0.103582 -1.49275 0
M  V30 30 H 1.80343 2.12804 0.149504 0
M  V30 31 H 3.53016 1.77861 -0.108219 0
M  V30 32 H 6.10184 -1.51602 1.90555 0
M  V30 33 H 5.35615 -2.5655 3.13484 0
M  V30 34 H 0.492488 -0.752879 4.59279 0
M  V30 35 H -0.0160981 -2.07517 3.45424 0
M  V30 36 H -0.348202 0.437552 2.79902 0
M  V30 37 H 0.275975 1.81384 1.93083 0
M  V30 38 H -0.923154 -1.75351 1.18017 0
M  V30 39 H -1.1259 -3.77152 -0.0130198 0
M  V30 40 H -2.31645 -3.24809 1.29708 0
M  V30 41 H -2.76149 -4.45817 -0.00850708 0
M  V30 42 H -4.99966 0.625971 -1.41763 0
M  V30 43 H -5.10734 -1.13589 -1.1426 0
M  V30 44 H -5.58346 -0.409933 -2.77568 0
M  V30 45 H -2.94995 4.12003 -2.30943 0
M  V30 46 H -1.29358 3.54808 -2.57917 0
M  V30 47 H -1.81711 3.76744 -0.901985 0
M  V30 48 H -0.800455 2.3155 0.0626428 0
M  V30 END ATOM
M  V30 BEGIN BOND
M  V30 1 1 1 2
M  V30 2 1 2 3
M  V30 3 1 3 4
M  V30 4 2 4 5
M  V30 5 1 5 6
M  V30 6 1 6 7
M  V30 7 2 6 8
M  V30 8 1 8 9
M  V30 9 1 9 10
M  V30 10 2 9 11
M  V30 11 1 11 12
M  V30 12 1 12 13
M  V30 13 2 13 14
M  V30 14 1 14 15
M  V30 15 1 15 16
M  V30 16 1 16 17
M  V30 17 2 15 18
M  V30 18 1 18 19
M  V30 19 1 19 20
M  V30 20 1 18 21
M  V30 21 1 21 22
M  V30 22 1 22 23
M  V30 23 2 21 24
M  V30 24 1 11 4
M  V30 25 1 24 13
M  V30 26 1 1 25
M  V30 27 1 1 26
M  V30 28 1 1 27
M  V30 29 1 2 28
M  V30 30 1 2 29
M  V30 31 1 3 30
M  V30 32 1 3 31
M  V30 33 1 7 32
M  V30 34 1 7 33
M  V30 35 1 10 34
M  V30 36 1 10 35
M  V30 37 1 12 36
M  V30 38 1 12 37
M  V30 39 1 14 38
M  V30 40 1 17 39
M  V30 41 1 17 40
M  V30 42 1 17 41
M  V30 43 1 20 42
M  V30 44 1 20 43
M  V30 45 1 20 44
M  V30 46 1 23 45
M  V30 47 1 23 46
M  V30 48 1 23 47
M  V30 49 1 24 48
M  V30 END BOND
M  V30 END CTAB
M  END
