
     RDKit          3D

  0  0  0  0  0  0  0  0  0  0999 V3000
M  V30 BEGIN CTAB
M  V30 COUNTS 32 34 0 0 0
M  V30 BEGIN ATOM
M  V30 1 N -2.20928 2.16779 -1.62923 0
M  V30 2 C -2.91348 1.27884 -0.772271 0
M  V30 3 C -4.30487 1.49967 -0.664414 0
M  V30 4 C -5.04602 0.682633 0.132055 0
M  V30 5 C -4.45541 -0.340765 0.821741 0
M  V30 6 C -3.10731 -0.566188 0.726494 0
M  V30 7 C -2.30217 0.254896 -0.0861855 0
M  V30 8 N -1.01294 -0.170549 -0.0152847 0
M  V30 9 C -1.01796 -1.24985 0.837267 0
M  V30 10 C -2.27462 -1.50126 1.29307 0
M  V30 11 C 0.131392 0.312782 -0.659996 0
M  V30 12 O 0.2294 1.27458 -1.40026 0
M  V30 13 C 1.44184 -0.386684 -0.468069 0
M  V30 14 C 1.7327 -1.71659 -0.583813 0
M  V30 15 C 3.07534 -1.8461 -0.307556 0
M  V30 16 C 3.56072 -0.599371 -0.033072 0
M  V30 17 O 2.56499 0.207971 -0.141818 0
M  V30 18 S 5.19125 -0.167671 0.382642 0
M  V30 19 O 6.03915 -1.40508 0.409476 0
M  V30 20 O 5.28319 0.480094 1.74454 0
M  V30 21 N 5.85203 0.938593 -0.760008 0
M  V30 22 H -1.80677 3.06893 -1.32592 0
M  V30 23 H -2.12202 1.90158 -2.63329 0
M  V30 24 H -4.70346 2.32168 -1.23212 0
M  V30 25 H -6.10943 0.856313 0.21005 0
M  V30 26 H -5.0429 -0.990694 1.45478 0
M  V30 27 H -0.138664 -1.79285 1.10069 0
M  V30 28 H -2.63856 -2.2689 1.97338 0
M  V30 29 H 1.01626 -2.49792 -0.848154 0
M  V30 30 H 3.62471 -2.77767 -0.312924 0
M  V30 31 H 5.14239 1.27699 -1.45568 0
M  V30 32 H 6.32049 1.7548 -0.287066 0
M  V30 END ATOM
M  V30 BEGIN BOND
M  V30 1 1 1 2
M  V30 2 2 2 3
M  V30 3 1 3 4
M  V30 4 2 4 5
M  V30 5 1 5 6
M  V30 6 2 6 7
M  V30 7 1 7 8
M  V30 8 1 8 9
M  V30 9 2 9 10
M  V30 10 1 8 11
M  V30 11 2 11 12
M  V30 12 1 11 13
M  V30 13 2 13 14
M  V30 14 1 14 15
M  V30 15 2 15 16
M  V30 16 1 16 17
M  V30 17 1 16 18
M  V30 18 2 18 19
M  V30 19 2 18 20
M  V30 20 1 18 21
M  V30 21 1 7 2
M  V30 22 1 17 13
M  V30 23 1 10 6
M  V30 24 1 1 22
M  V30 25 1 1 23
M  V30 26 1 3 24
M  V30 27 1 4 25
M  V30 28 1 5 26
M  V30 29 1 9 27
M  V30 30 1 10 28
M  V30 31 1 14 29
M  V30 32 1 15 30
M  V30 33 1 21 31
M  V30 34 1 21 32
M  V30 END BOND
M  V30 END CTAB
M  END
