
     RDKit          3D

  0  0  0  0  0  0  0  0  0  0999 V3000
M  V30 BEGIN CTAB
M  V30 COUNTS 46 49 0 0 0
M  V30 BEGIN ATOM
M  V30 1 C -7.48989 -1.70691 -0.369814 0
M  V30 2 C -7.1671 -0.267972 0.0848469 0
M  V30 3 N -5.79232 -0.0329824 0.150029 0
M  V30 4 C -4.48707 0.190324 0.211973 0
M  V30 5 O -3.90391 1.29656 0.517433 0
M  V30 6 N -3.56594 -0.906565 -0.0899352 0
M  V30 7 C -2.17872 -0.633142 -0.0366264 0
M  V30 8 N -1.14407 -1.42703 -0.226055 0
M  V30 9 C 0.0669564 -0.97132 -0.150624 0
M  V30 10 C 0.230981 0.355985 0.131323 0
M  V30 11 S -1.38611 0.881984 0.274934 0
M  V30 12 C 1.49272 0.971475 0.237096 0
M  V30 13 C 2.62862 0.227841 0.0544139 0
M  V30 14 C 2.47183 -1.10955 -0.229318 0
M  V30 15 C 1.24707 -1.71344 -0.333758 0
M  V30 16 C 3.65656 -1.96261 -0.462533 0
M  V30 17 C 3.65734 -3.29566 -0.114764 0
M  V30 18 N 4.74163 -4.06398 -0.362093 0
M  V30 19 C 5.85629 -3.57618 -0.949225 0
M  V30 20 N 6.97225 -4.42571 -1.20137 0
M  V30 21 N 5.84526 -2.272 -1.28386 0
M  V30 22 C 4.79293 -1.46517 -1.06037 0
M  V30 23 C 1.42428 2.37951 0.519259 0
M  V30 24 C 2.1722 2.91833 1.5325 0
M  V30 25 N 2.07271 4.26348 1.76417 0
M  V30 26 C 1.29434 5.07471 1.06379 0
M  V30 27 N 1.18273 6.47154 1.29464 0
M  V30 28 N 0.545705 4.55841 0.0554421 0
M  V30 29 C 0.610575 3.25331 -0.206248 0
M  V30 30 H -7.35721 -1.78791 -1.47166 0
M  V30 31 H -8.54949 -1.9506 -0.144287 0
M  V30 32 H -6.79763 -2.35531 0.206077 0
M  V30 33 H -7.65356 -0.138634 1.11605 0
M  V30 34 H -7.76073 0.374238 -0.604305 0
M  V30 35 H -6.082 1.2814 0.510964 0
M  V30 36 H -3.93973 -1.81501 -0.325996 0
M  V30 37 H 3.57463 0.716519 0.139468 0
M  V30 38 H 1.2029 -2.78849 -0.564954 0
M  V30 39 H 2.78294 -3.71882 0.356937 0
M  V30 40 H 7.81932 -4.39771 -0.60142 0
M  V30 41 H 6.98055 -5.10473 -1.99509 0
M  V30 42 H 4.79118 -0.403575 -1.3383 0
M  V30 43 H 2.83334 2.30978 2.15391 0
M  V30 44 H 0.923679 7.12574 0.514844 0
M  V30 45 H 1.3576 6.84898 2.24674 0
M  V30 46 H 0.0263628 2.7909 -1.01423 0
M  V30 END ATOM
M  V30 BEGIN BOND
M  V30 1 1 1 2
M  V30 2 1 2 3
M  V30 3 1 3 4
M  V30 4 2 4 5
M  V30 5 1 4 6
M  V30 6 1 6 7
M  V30 7 2 7 8
M  V30 8 1 8 9
M  V30 9 2 9 10
M  V30 10 1 10 11
M  V30 11 1 10 12
M  V30 12 2 12 13
M  V30 13 1 13 14
M  V30 14 2 14 15
M  V30 15 1 14 16
M  V30 16 2 16 17
M  V30 17 1 17 18
M  V30 18 2 18 19
M  V30 19 1 19 20
M  V30 20 1 19 21
M  V30 21 2 21 22
M  V30 22 1 12 23
M  V30 23 2 23 24
M  V30 24 1 24 25
M  V30 25 2 25 26
M  V30 26 1 26 27
M  V30 27 1 26 28
M  V30 28 2 28 29
M  V30 29 1 11 7
M  V30 30 1 22 16
M  V30 31 1 29 23
M  V30 32 1 15 9
M  V30 33 1 1 30
M  V30 34 1 1 31
M  V30 35 1 1 32
M  V30 36 1 2 33
M  V30 37 1 2 34
M  V30 38 1 3 35
M  V30 39 1 6 36
M  V30 40 1 13 37
M  V30 41 1 15 38
M  V30 42 1 17 39
M  V30 43 1 20 40
M  V30 44 1 20 41
M  V30 45 1 22 42
M  V30 46 1 24 43
M  V30 47 1 27 44
M  V30 48 1 27 45
M  V30 49 1 29 46
M  V30 END BOND
M  V30 END CTAB
M  END
