
     RDKit          3D

  0  0  0  0  0  0  0  0  0  0999 V3000
M  V30 BEGIN CTAB
M  V30 COUNTS 35 36 0 0 0
M  V30 BEGIN ATOM
M  V30 1 C -1.61318 -1.53767 1.39131 0
M  V30 2 C -2.01935 -0.50177 0.3618 0
M  V30 3 C -2.09636 -1.1492 -1.01346 0
M  V30 4 N -3.32944 -0.0172999 0.660585 0
M  V30 5 C -3.72941 1.19124 0.67891 0
M  V30 6 N -5.09325 1.52083 0.995057 0
M  V30 7 N -2.7797 2.22782 0.435904 0
M  V30 8 C -1.54714 1.90808 0.215686 0
M  V30 9 N -0.569213 2.93891 -0.0400603 0
M  V30 10 N -1.05479 0.564668 0.271403 0
M  V30 11 O 0.276309 0.412635 0.259675 0
M  V30 12 C 0.815193 -0.543029 -0.533282 0
M  V30 13 C 2.31532 -0.49816 -0.377047 0
M  V30 14 C 3.08265 -1.38399 -1.09101 0
M  V30 15 C 4.47757 -1.37487 -0.974238 0
M  V30 16 Cl 5.46153 -2.495 -1.87598 0
M  V30 17 C 5.07471 -0.464229 -0.132174 0
M  V30 18 Cl 6.81822 -0.403288 0.0570501 0
M  V30 19 C 4.32198 0.432966 0.592855 0
M  V30 20 C 2.95002 0.39382 0.451644 0
M  V30 21 H -0.704873 -1.1995 1.94665 0
M  V30 22 H -2.47845 -1.71918 2.05321 0
M  V30 23 H -1.42387 -2.48543 0.851674 0
M  V30 24 H -1.5716 -2.10383 -0.990442 0
M  V30 25 H -3.19419 -1.28594 -1.24091 0
M  V30 26 H -1.72825 -0.472104 -1.78251 0
M  V30 27 H -5.87934 1.14793 0.436539 0
M  V30 28 H -5.29609 2.14205 1.79508 0
M  V30 29 H 0.0248671 3.30564 0.716576 0
M  V30 30 H -0.484653 3.29826 -1.01181 0
M  V30 31 H 0.550157 -1.5665 -0.15071 0
M  V30 32 H 0.635771 -0.435852 -1.62103 0
M  V30 33 H 2.62968 -2.09634 -1.74861 0
M  V30 34 H 4.8067 1.15816 1.26415 0
M  V30 35 H 2.35245 1.09019 1.01335 0
M  V30 END ATOM
M  V30 BEGIN BOND
M  V30 1 1 1 2
M  V30 2 1 2 3
M  V30 3 1 2 4
M  V30 4 2 4 5
M  V30 5 1 5 6
M  V30 6 1 5 7
M  V30 7 2 7 8
M  V30 8 1 8 9
M  V30 9 1 8 10
M  V30 10 1 10 11
M  V30 11 1 11 12
M  V30 12 1 12 13
M  V30 13 2 13 14
M  V30 14 1 14 15
M  V30 15 1 15 16
M  V30 16 2 15 17
M  V30 17 1 17 18
M  V30 18 1 17 19
M  V30 19 2 19 20
M  V30 20 1 10 2
M  V30 21 1 20 13
M  V30 22 1 1 21
M  V30 23 1 1 22
M  V30 24 1 1 23
M  V30 25 1 3 24
M  V30 26 1 3 25
M  V30 27 1 3 26
M  V30 28 1 6 27
M  V30 29 1 6 28
M  V30 30 1 9 29
M  V30 31 1 9 30
M  V30 32 1 12 31
M  V30 33 1 12 32
M  V30 34 1 14 33
M  V30 35 1 19 34
M  V30 36 1 20 35
M  V30 END BOND
M  V30 END CTAB
M  END
