
     RDKit          3D

  0  0  0  0  0  0  0  0  0  0999 V3000
M  V30 BEGIN CTAB
M  V30 COUNTS 34 35 0 0 0
M  V30 BEGIN ATOM
M  V30 1 C 5.59546 0.399143 -0.451271 0
M  V30 2 O 4.59116 -0.56117 -0.481537 0
M  V30 3 C 3.29625 -0.405197 -0.0151152 0
M  V30 4 C 2.42987 -1.4686 -0.125696 0
M  V30 5 C 1.1034 -1.42662 0.310365 0
M  V30 6 C 0.610997 -0.262154 0.888644 0
M  V30 7 C -0.748447 -0.139553 1.40005 0
M  V30 8 C -1.84288 -0.120138 0.438538 0
M  V30 9 C -2.11201 0.992424 -0.314817 0
M  V30 10 C -1.37505 2.2772 -0.243269 0
M  V30 11 N -3.14134 0.933883 -1.18705 0
M  V30 12 C -3.91088 -0.157888 -1.35021 0
M  V30 13 N -4.98886 -0.178226 -2.28245 0
M  V30 14 N -3.62944 -1.23666 -0.600554 0
M  V30 15 C -2.63038 -1.27165 0.288978 0
M  V30 16 N -2.38133 -2.44992 1.08358 0
M  V30 17 C 1.49029 0.796068 0.993621 0
M  V30 18 C 2.8115 0.74785 0.556745 0
M  V30 19 H 6.60584 -0.0782727 -0.393035 0
M  V30 20 H 5.58278 0.927031 -1.44492 0
M  V30 21 H 5.46799 1.19441 0.305631 0
M  V30 22 H 2.79331 -2.39363 -0.576165 0
M  V30 23 H 0.461531 -2.29544 0.19892 0
M  V30 24 H -0.911325 -0.981557 2.12859 0
M  V30 25 H -0.812505 0.821327 1.99641 0
M  V30 26 H -0.477563 2.31289 -0.882091 0
M  V30 27 H -1.06771 2.54848 0.78919 0
M  V30 28 H -2.06193 3.1112 -0.548441 0
M  V30 29 H -5.26481 -1.06314 -2.75137 0
M  V30 30 H -5.53208 0.693429 -2.52102 0
M  V30 31 H -2.05089 -3.29045 0.576493 0
M  V30 32 H -2.5439 -2.39624 2.11451 0
M  V30 33 H 1.16162 1.74425 1.45199 0
M  V30 34 H 3.48134 1.5837 0.646767 0
M  V30 END ATOM
M  V30 BEGIN BOND
M  V30 1 1 1 2
M  V30 2 1 2 3
M  V30 3 2 3 4
M  V30 4 1 4 5
M  V30 5 2 5 6
M  V30 6 1 6 7
M  V30 7 1 7 8
M  V30 8 2 8 9
M  V30 9 1 9 10
M  V30 10 1 9 11
M  V30 11 2 11 12
M  V30 12 1 12 13
M  V30 13 1 12 14
M  V30 14 2 14 15
M  V30 15 1 15 16
M  V30 16 1 6 17
M  V30 17 2 17 18
M  V30 18 1 18 3
M  V30 19 1 15 8
M  V30 20 1 1 19
M  V30 21 1 1 20
M  V30 22 1 1 21
M  V30 23 1 4 22
M  V30 24 1 5 23
M  V30 25 1 7 24
M  V30 26 1 7 25
M  V30 27 1 10 26
M  V30 28 1 10 27
M  V30 29 1 10 28
M  V30 30 1 13 29
M  V30 31 1 13 30
M  V30 32 1 16 31
M  V30 33 1 16 32
M  V30 34 1 17 33
M  V30 35 1 18 34
M  V30 END BOND
M  V30 END CTAB
M  END
