
     RDKit          3D

  0  0  0  0  0  0  0  0  0  0999 V3000
M  V30 BEGIN CTAB
M  V30 COUNTS 20 20 0 0 0
M  V30 BEGIN ATOM
M  V30 1 C 3.40534 -0.8676 2.3971 0
M  V30 2 S 3.08762 -1.29946 0.679955 0
M  V30 3 C 1.83514 -0.303118 -0.0733872 0
M  V30 4 N 0.54083 -0.518964 -0.109937 0
M  V30 5 C -0.241952 0.326031 -0.713315 0
M  V30 6 C -1.71461 0.122294 -0.779959 0
M  V30 7 O -2.44736 0.956072 -1.37061 0
M  V30 8 N -2.32761 -1.00458 -0.186447 0
M  V30 9 N -3.70834 -1.14266 -0.280447 0
M  V30 10 C 0.337891 1.42458 -1.29388 0
M  V30 11 N -0.287954 2.50251 -2.01593 0
M  V30 12 S 2.00466 1.15274 -0.919208 0
M  V30 13 H 4.30881 -0.219998 2.41853 0
M  V30 14 H 3.68297 -1.80216 2.93333 0
M  V30 15 H 2.53564 -0.390732 2.89295 0
M  V30 16 H -1.80153 -1.74761 0.323736 0
M  V30 17 H -4.00453 -2.05088 -0.676217 0
M  V30 18 H -4.21397 -0.942247 0.601647 0
M  V30 19 H -1.11592 3.00608 -1.68211 0
M  V30 20 H 0.124863 2.79971 -2.94829 0
M  V30 END ATOM
M  V30 BEGIN BOND
M  V30 1 1 1 2
M  V30 2 1 2 3
M  V30 3 2 3 4
M  V30 4 1 4 5
M  V30 5 1 5 6
M  V30 6 2 6 7
M  V30 7 1 6 8
M  V30 8 1 8 9
M  V30 9 2 5 10
M  V30 10 1 10 11
M  V30 11 1 10 12
M  V30 12 1 12 3
M  V30 13 1 1 13
M  V30 14 1 1 14
M  V30 15 1 1 15
M  V30 16 1 8 16
M  V30 17 1 9 17
M  V30 18 1 9 18
M  V30 19 1 11 19
M  V30 20 1 11 20
M  V30 END BOND
M  V30 END CTAB
M  END
