
     RDKit          3D

  0  0  0  0  0  0  0  0  0  0999 V3000
M  V30 BEGIN CTAB
M  V30 COUNTS 31 32 0 0 0
M  V30 BEGIN ATOM
M  V30 1 N 6.74472 0.240283 -0.212497 0
M  V30 2 C 5.31097 0.164935 -0.328448 0
M  V30 3 C 4.69993 -1.05391 -0.321345 0
M  V30 4 C 3.30805 -1.13999 -0.433296 0
M  V30 5 C 2.51747 -0.0159912 -0.552745 0
M  V30 6 C 3.15519 1.21217 -0.558066 0
M  V30 7 C 4.53129 1.30102 -0.447563 0
M  V30 8 N 1.12765 -0.159953 -0.661778 0
M  V30 9 N 0.306924 0.122634 0.260413 0
M  V30 10 C -1.10231 -0.0387179 0.10858 0
M  V30 11 C -1.85644 -0.77707 0.997277 0
M  V30 12 C -3.21985 -0.931176 0.847432 0
M  V30 13 C -3.90004 -0.349283 -0.207328 0
M  V30 14 C -3.14226 0.38908 -1.09503 0
M  V30 15 C -1.77907 0.542239 -0.943835 0
M  V30 16 S -5.62671 -0.54181 -0.400996 0
M  V30 17 N -6.49338 0.714643 0.420633 0
M  V30 18 O -6.03001 -0.474088 -1.84526 0
M  V30 19 O -6.10513 -1.85134 0.136851 0
M  V30 20 H 7.29045 -0.280548 -0.904076 0
M  V30 21 H 7.16944 0.808443 0.55265 0
M  V30 22 H 5.27657 -1.94719 -0.23072 0
M  V30 23 H 2.8179 -2.10515 -0.428192 0
M  V30 24 H 2.55629 2.0893 -0.649778 0
M  V30 25 H 5.04193 2.26039 -0.450682 0
M  V30 26 H -1.33479 -1.2359 1.82488 0
M  V30 27 H -3.82424 -1.51551 1.54864 0
M  V30 28 H -3.69593 0.843401 -1.92484 0
M  V30 29 H -1.22826 1.11835 -1.64773 0
M  V30 30 H -6.67315 1.53573 -0.221106 0
M  V30 31 H -5.84319 1.07499 1.17805 0
M  V30 END ATOM
M  V30 BEGIN BOND
M  V30 1 1 1 2
M  V30 2 2 2 3
M  V30 3 1 3 4
M  V30 4 2 4 5
M  V30 5 1 5 6
M  V30 6 2 6 7
M  V30 7 1 5 8
M  V30 8 2 8 9 CFG=2
M  V30 9 1 9 10
M  V30 10 2 10 11
M  V30 11 1 11 12
M  V30 12 2 12 13
M  V30 13 1 13 14
M  V30 14 2 14 15
M  V30 15 1 13 16
M  V30 16 1 16 17
M  V30 17 2 16 18
M  V30 18 2 16 19
M  V30 19 1 7 2
M  V30 20 1 15 10
M  V30 21 1 1 20
M  V30 22 1 1 21
M  V30 23 1 3 22
M  V30 24 1 4 23
M  V30 25 1 6 24
M  V30 26 1 7 25
M  V30 27 1 11 26
M  V30 28 1 12 27
M  V30 29 1 14 28
M  V30 30 1 15 29
M  V30 31 1 17 30
M  V30 32 1 17 31
M  V30 END BOND
M  V30 END CTAB
M  END
