
     RDKit          3D

  0  0  0  0  0  0  0  0  0  0999 V3000
M  V30 BEGIN CTAB
M  V30 COUNTS 22 22 0 0 0
M  V30 BEGIN ATOM
M  V30 1 C 2.781 -0.679045 -0.617065 0
M  V30 2 C 2.01899 -0.401823 0.650691 0
M  V30 3 N 0.602985 -0.398219 0.429561 0
M  V30 4 N -0.16552 -1.48449 0.531263 0
M  V30 5 C -1.44773 -1.17194 0.268022 0
M  V30 6 C -1.44006 0.187252 -0.00769827 0
M  V30 7 C -0.149844 0.663942 0.0959915 0
M  V30 8 C 0.296142 2.08021 -0.123129 0
M  V30 9 N -2.56981 0.952894 -0.339544 0
M  V30 10 N -2.57038 -2.05544 0.273286 0
M  V30 11 H 2.03596 -0.974459 -1.39683 0
M  V30 12 H 3.48249 -1.53232 -0.392327 0
M  V30 13 H 3.36809 0.185187 -0.975196 0
M  V30 14 H 2.30262 0.603706 1.02894 0
M  V30 15 H 2.25209 -1.11759 1.46487 0
M  V30 16 H 0.257118 2.36593 -1.18764 0
M  V30 17 H 1.30036 2.232 0.313161 0
M  V30 18 H -0.376319 2.79303 0.42875 0
M  V30 19 H -3.5222 0.824846 0.045322 0
M  V30 20 H -2.43458 1.7282 -1.04476 0
M  V30 21 H -3.23623 -2.1192 1.08532 0
M  V30 22 H -2.78518 -2.68269 -0.530988 0
M  V30 END ATOM
M  V30 BEGIN BOND
M  V30 1 1 1 2
M  V30 2 1 2 3
M  V30 3 1 3 4
M  V30 4 2 4 5
M  V30 5 1 5 6
M  V30 6 2 6 7
M  V30 7 1 7 8
M  V30 8 1 6 9
M  V30 9 1 5 10
M  V30 10 1 7 3
M  V30 11 1 1 11
M  V30 12 1 1 12
M  V30 13 1 1 13
M  V30 14 1 2 14
M  V30 15 1 2 15
M  V30 16 1 8 16
M  V30 17 1 8 17
M  V30 18 1 8 18
M  V30 19 1 9 19
M  V30 20 1 9 20
M  V30 21 1 10 21
M  V30 22 1 10 22
M  V30 END BOND
M  V30 END CTAB
M  END
