
     RDKit          3D

  0  0  0  0  0  0  0  0  0  0999 V3000
M  V30 BEGIN CTAB
M  V30 COUNTS 25 26 0 0 0
M  V30 BEGIN ATOM
M  V30 1 C -3.23945 0.248574 0.592862 0
M  V30 2 C -1.81497 0.395787 0.981417 0
M  V30 3 C -0.810241 -0.074033 -0.0259263 0
M  V30 4 C -0.943476 -1.46572 -0.446274 0
M  V30 5 C -1.22915 -0.330561 -1.44905 0
M  V30 6 C 0.487531 0.603911 0.0980264 0
M  V30 7 N 0.694043 1.89975 0.301436 0
M  V30 8 N 1.97389 2.19037 0.345713 0
M  V30 9 C 2.63108 1.06542 0.174013 0
M  V30 10 N 1.74204 0.0702147 0.0174241 0
M  V30 11 N 2.04446 -1.2307 -0.194088 0
M  V30 12 N 4.05353 0.923402 0.15865 0
M  V30 13 H -3.6598 -0.725977 0.935921 0
M  V30 14 H -3.45551 0.398279 -0.478764 0
M  V30 15 H -3.82297 1.04853 1.13663 0
M  V30 16 H -1.6137 -0.0903976 1.95313 0
M  V30 17 H -1.69173 1.51218 1.19704 0
M  V30 18 H -0.219035 -2.16706 -0.788609 0
M  V30 19 H -1.89177 -1.99148 -0.0677777 0
M  V30 20 H -0.460501 -0.211668 -2.27308 0
M  V30 21 H -2.25085 -0.287306 -1.80323 0
M  V30 22 H 2.54804 -1.50933 -1.06493 0
M  V30 23 H 1.7958 -1.99488 0.456151 0
M  V30 24 H 4.64212 1.07925 1.00089 0
M  V30 25 H 4.49063 0.64344 -0.757575 0
M  V30 END ATOM
M  V30 BEGIN BOND
M  V30 1 1 1 2
M  V30 2 1 2 3
M  V30 3 1 3 4
M  V30 4 1 4 5
M  V30 5 1 3 6
M  V30 6 2 6 7
M  V30 7 1 7 8
M  V30 8 2 8 9
M  V30 9 1 9 10
M  V30 10 1 10 11
M  V30 11 1 9 12
M  V30 12 1 5 3
M  V30 13 1 10 6
M  V30 14 1 1 13
M  V30 15 1 1 14
M  V30 16 1 1 15
M  V30 17 1 2 16
M  V30 18 1 2 17
M  V30 19 1 4 18
M  V30 20 1 4 19
M  V30 21 1 5 20
M  V30 22 1 5 21
M  V30 23 1 11 22
M  V30 24 1 11 23
M  V30 25 1 12 24
M  V30 26 1 12 25
M  V30 END BOND
M  V30 END CTAB
M  END
