
     RDKit          3D

  0  0  0  0  0  0  0  0  0  0999 V3000
M  V30 BEGIN CTAB
M  V30 COUNTS 45 46 0 0 0
M  V30 BEGIN ATOM
M  V30 1 N -5.93655 -0.440487 -3.09194 0
M  V30 2 C -6.438 -0.740857 -1.77207 0
M  V30 3 C -5.57672 -0.0307615 -0.771798 0
M  V30 4 C -5.8707 1.25481 -0.332861 0
M  V30 5 C -5.04516 1.85934 0.589332 0
M  V30 6 C -3.92386 1.21728 1.09432 0
M  V30 7 C -3.60709 -0.0564423 0.678028 0
M  V30 8 C -4.45977 -0.644022 -0.255972 0
M  V30 9 C -2.45797 -0.839709 1.14081 0
M  V30 10 N -1.18143 -0.229938 0.777466 0
M  V30 11 C 0.0507111 -0.992893 0.939019 0
M  V30 12 O -0.12274 -2.15424 1.3885 0
M  V30 13 C 1.29739 -0.380883 0.589842 0
M  V30 14 O 1.19709 0.837863 0.156932 0
M  V30 15 N 2.57234 -0.911391 0.653975 0
M  V30 16 C 3.63669 0.0272759 0.225502 0
M  V30 17 C 4.23832 0.808622 1.1772 0
M  V30 18 C 5.23462 1.67991 0.806165 0
M  V30 19 C 5.63417 1.77218 -0.532783 0
M  V30 20 C 5.00637 0.970009 -1.47103 0
M  V30 21 C 3.99598 0.0867494 -1.08789 0
M  V30 22 N 6.66576 2.67149 -0.901425 0
M  V30 23 C 2.99965 -2.19088 1.05947 0
M  V30 24 O 2.29304 -3.12142 1.44705 0
M  V30 25 C 4.48604 -2.49059 1.02765 0
M  V30 26 H -6.01324 0.565933 -3.2838 0
M  V30 27 H -6.41116 -0.966503 -3.84305 0
M  V30 28 H -6.47964 -1.8399 -1.59273 0
M  V30 29 H -7.4642 -0.287096 -1.65241 0
M  V30 30 H -6.72997 1.77258 -0.708521 0
M  V30 31 H -5.25765 2.84982 0.934027 0
M  V30 32 H -3.25721 1.67805 1.82422 0
M  V30 33 H -4.25944 -1.66162 -0.62888 0
M  V30 34 H -2.42365 -0.942793 2.24892 0
M  V30 35 H -2.48986 -1.84363 0.677696 0
M  V30 36 H -1.08675 0.732483 0.401852 0
M  V30 37 H 3.94502 0.75571 2.22607 0
M  V30 38 H 5.73912 2.31326 1.50717 0
M  V30 39 H 5.33928 1.06772 -2.49494 0
M  V30 40 H 3.50865 -0.534961 -1.82431 0
M  V30 41 H 7.09297 3.27525 -0.175373 0
M  V30 42 H 6.9936 2.72715 -1.88445 0
M  V30 43 H 4.7729 -2.50469 -0.0430203 0
M  V30 44 H 4.7235 -3.42802 1.56453 0
M  V30 45 H 5.06954 -1.68976 1.52011 0
M  V30 END ATOM
M  V30 BEGIN BOND
M  V30 1 1 1 2
M  V30 2 1 2 3
M  V30 3 2 3 4
M  V30 4 1 4 5
M  V30 5 2 5 6
M  V30 6 1 6 7
M  V30 7 2 7 8
M  V30 8 1 7 9
M  V30 9 1 9 10
M  V30 10 1 10 11
M  V30 11 2 11 12
M  V30 12 1 11 13
M  V30 13 2 13 14
M  V30 14 1 13 15
M  V30 15 1 15 16
M  V30 16 2 16 17
M  V30 17 1 17 18
M  V30 18 2 18 19
M  V30 19 1 19 20
M  V30 20 2 20 21
M  V30 21 1 19 22
M  V30 22 1 15 23
M  V30 23 2 23 24
M  V30 24 1 23 25
M  V30 25 1 8 3
M  V30 26 1 21 16
M  V30 27 1 1 26
M  V30 28 1 1 27
M  V30 29 1 2 28
M  V30 30 1 2 29
M  V30 31 1 4 30
M  V30 32 1 5 31
M  V30 33 1 6 32
M  V30 34 1 8 33
M  V30 35 1 9 34
M  V30 36 1 9 35
M  V30 37 1 10 36
M  V30 38 1 17 37
M  V30 39 1 18 38
M  V30 40 1 20 39
M  V30 41 1 21 40
M  V30 42 1 22 41
M  V30 43 1 22 42
M  V30 44 1 25 43
M  V30 45 1 25 44
M  V30 46 1 25 45
M  V30 END BOND
M  V30 END CTAB
M  END
