
     RDKit          3D

  0  0  0  0  0  0  0  0  0  0999 V3000
M  V30 BEGIN CTAB
M  V30 COUNTS 34 36 0 0 0
M  V30 BEGIN ATOM
M  V30 1 N -5.45054 2.33107 -0.62992 0
M  V30 2 C -4.78673 1.06377 -0.578797 0
M  V30 3 N -3.44922 0.947683 -0.75701 0
M  V30 4 C -2.82043 -0.235812 -0.710465 0
M  V30 5 S -1.05471 -0.408586 -0.943678 0
M  V30 6 C -0.283879 -0.251202 0.696904 0
M  V30 7 C 1.19422 -0.379015 0.623477 0
M  V30 8 C 1.8607 -1.57763 0.737581 0
M  V30 9 C 3.25732 -1.63446 0.659943 0
M  V30 10 Cl 4.07693 -3.16028 0.806834 0
M  V30 11 C 3.98614 -0.485707 0.46739 0
M  V30 12 C 3.33164 0.722335 0.35135 0
M  V30 13 C 1.94864 0.755752 0.431184 0
M  V30 14 O 4.10692 1.85648 0.157846 0
M  V30 15 C 5.33786 1.78097 -0.538845 0
M  V30 16 C 6.12483 0.567462 -0.151869 0
M  V30 17 O 5.36306 -0.471308 0.381781 0
M  V30 18 N -3.52471 -1.3602 -0.479758 0
M  V30 19 C -4.86421 -1.33183 -0.291134 0
M  V30 20 C -5.48072 -0.107319 -0.344175 0
M  V30 21 N -5.54545 -2.55624 -0.0522036 0
M  V30 22 H -5.60249 2.80609 -1.55291 0
M  V30 23 H -5.78519 2.78679 0.245826 0
M  V30 24 H -0.591326 0.740898 1.09784 0
M  V30 25 H -0.712542 -1.029 1.39082 0
M  V30 26 H 1.3013 -2.48745 0.888956 0
M  V30 27 H 1.47851 1.72322 0.334961 0
M  V30 28 H 5.17375 1.73526 -1.65507 0
M  V30 29 H 5.92096 2.71164 -0.341119 0
M  V30 30 H 6.94424 0.86257 0.543862 0
M  V30 31 H 6.65972 0.144852 -1.05259 0
M  V30 32 H -6.56198 -0.090251 -0.191286 0
M  V30 33 H -6.30425 -2.84418 -0.688602 0
M  V30 34 H -5.24834 -3.12639 0.769922 0
M  V30 END ATOM
M  V30 BEGIN BOND
M  V30 1 1 1 2
M  V30 2 2 2 3
M  V30 3 1 3 4
M  V30 4 1 4 5
M  V30 5 1 5 6
M  V30 6 1 6 7
M  V30 7 2 7 8
M  V30 8 1 8 9
M  V30 9 1 9 10
M  V30 10 2 9 11
M  V30 11 1 11 12
M  V30 12 2 12 13
M  V30 13 1 12 14
M  V30 14 1 14 15
M  V30 15 1 15 16
M  V30 16 1 16 17
M  V30 17 2 4 18
M  V30 18 1 18 19
M  V30 19 2 19 20
M  V30 20 1 19 21
M  V30 21 1 20 2
M  V30 22 1 13 7
M  V30 23 1 17 11
M  V30 24 1 1 22
M  V30 25 1 1 23
M  V30 26 1 6 24
M  V30 27 1 6 25
M  V30 28 1 8 26
M  V30 29 1 13 27
M  V30 30 1 15 28
M  V30 31 1 15 29
M  V30 32 1 16 30
M  V30 33 1 16 31
M  V30 34 1 20 32
M  V30 35 1 21 33
M  V30 36 1 21 34
M  V30 END BOND
M  V30 END CTAB
M  END
