
     RDKit          3D

  0  0  0  0  0  0  0  0  0  0999 V3000
M  V30 BEGIN CTAB
M  V30 COUNTS 63 65 0 0 0
M  V30 BEGIN ATOM
M  V30 1 N 7.60329 -1.80417 -0.268529 0
M  V30 2 C 6.30909 -1.98188 0.321101 0
M  V30 3 C 5.79666 -0.599081 0.738359 0
M  V30 4 C 5.72004 0.244891 -0.487971 0
M  V30 5 C 5.27728 1.6381 -0.335361 0
M  V30 6 C 3.89986 1.9043 0.206245 0 CFG=1
M  V30 7 C 2.87904 1.29809 -0.657586 0
M  V30 8 O 3.27517 1.10005 -1.87406 0
M  V30 9 N 1.56719 0.915777 -0.354811 0
M  V30 10 C 0.838318 1.08088 0.857887 0
M  V30 11 C -0.628764 1.41487 0.697392 0
M  V30 12 C -1.32263 0.645942 -0.394184 0
M  V30 13 C -0.466458 0.899335 -1.64706 0
M  V30 14 C 0.836463 0.21127 -1.43453 0
M  V30 15 O -2.55677 1.23565 -0.606203 0
M  V30 16 C -3.38536 0.489387 -1.41083 0
M  V30 17 C -3.84454 -0.804418 -0.733594 0 CFG=1
M  V30 18 C -2.86009 -1.2095 0.317649 0 CFG=1
M  V30 19 C -1.44753 -0.818845 -0.10042 0
M  V30 20 C -3.1993 -0.712653 1.69133 0
M  V30 21 O -2.85478 -2.62159 0.389586 0
M  V30 22 N -5.18069 -0.61463 -0.24176 0
M  V30 23 C -5.57607 0.567623 0.253985 0
M  V30 24 C -6.85425 0.727467 0.717728 0
M  V30 25 Br -7.40114 2.41489 1.41967 0
M  V30 26 C -7.7596 -0.310251 0.688263 0
M  V30 27 O -8.94418 -0.184879 1.11097 0
M  V30 28 N -7.33449 -1.48454 0.18536 0
M  V30 29 C -6.06873 -1.61985 -0.266727 0
M  V30 30 O -5.7588 -2.76754 -0.724044 0
M  V30 31 N 3.70767 1.57226 1.57478 0
M  V30 32 H 8.26321 -2.53038 0.0408123 0
M  V30 33 H 7.50877 -1.81276 -1.30747 0
M  V30 34 H 5.64459 -2.46392 -0.400148 0
M  V30 35 H 6.41993 -2.63389 1.21308 0
M  V30 36 H 4.82595 -0.790499 1.2277 0
M  V30 37 H 6.49152 -0.207775 1.48013 0
M  V30 38 H 6.78949 0.281962 -0.891368 0
M  V30 39 H 5.1693 -0.288827 -1.3096 0
M  V30 40 H 5.37633 2.15827 -1.32419 0
M  V30 41 H 6.04713 2.17721 0.299752 0
M  V30 42 H 3.82019 3.0616 0.0935984 0
M  V30 43 H 0.928812 0.151539 1.49411 0
M  V30 44 H 1.23067 1.90459 1.51848 0
M  V30 45 H -0.671424 2.49153 0.407275 0
M  V30 46 H -1.10713 1.27781 1.68734 0
M  V30 47 H -0.294237 1.9953 -1.65735 0
M  V30 48 H -0.93775 0.523094 -2.55186 0
M  V30 49 H 1.4047 0.210404 -2.38151 0
M  V30 50 H 0.70536 -0.839313 -1.10829 0
M  V30 51 H -2.95533 0.257539 -2.41061 0
M  V30 52 H -4.28203 1.13869 -1.63428 0
M  V30 53 H -3.82999 -1.61845 -1.51697 0
M  V30 54 H -1.26458 -1.36709 -1.06163 0
M  V30 55 H -0.717253 -1.20263 0.621403 0
M  V30 56 H -2.3644 -1.00564 2.36378 0
M  V30 57 H -3.32878 0.373172 1.76289 0
M  V30 58 H -4.10046 -1.26411 2.04189 0
M  V30 59 H -2.80006 -3.0324 -0.495329 0
M  V30 60 H -4.92037 1.43042 0.309895 0
M  V30 61 H -8.0306 -2.25839 0.170189 0
M  V30 62 H 3.22856 0.706136 1.8134 0
M  V30 63 H 3.48397 2.34985 2.21 0
M  V30 END ATOM
M  V30 BEGIN BOND
M  V30 1 1 1 2
M  V30 2 1 2 3
M  V30 3 1 3 4
M  V30 4 1 4 5
M  V30 5 1 5 6
M  V30 6 1 6 7
M  V30 7 2 7 8
M  V30 8 1 7 9
M  V30 9 1 9 10
M  V30 10 1 10 11
M  V30 11 1 11 12
M  V30 12 1 12 13
M  V30 13 1 13 14
M  V30 14 1 12 15
M  V30 15 1 15 16
M  V30 16 1 16 17
M  V30 17 1 17 18
M  V30 18 1 18 19
M  V30 19 1 18 20
M  V30 20 1 18 21 CFG=1
M  V30 21 1 17 22
M  V30 22 1 22 23
M  V30 23 2 23 24
M  V30 24 1 24 25
M  V30 25 1 24 26
M  V30 26 2 26 27
M  V30 27 1 26 28
M  V30 28 1 28 29
M  V30 29 2 29 30
M  V30 30 1 6 31
M  V30 31 1 14 9
M  V30 32 1 29 22
M  V30 33 1 19 12
M  V30 34 1 1 32
M  V30 35 1 1 33
M  V30 36 1 2 34
M  V30 37 1 2 35
M  V30 38 1 3 36
M  V30 39 1 3 37
M  V30 40 1 4 38
M  V30 41 1 4 39
M  V30 42 1 5 40
M  V30 43 1 5 41
M  V30 44 1 6 42 CFG=1
M  V30 45 1 10 43
M  V30 46 1 10 44
M  V30 47 1 11 45
M  V30 48 1 11 46
M  V30 49 1 13 47
M  V30 50 1 13 48
M  V30 51 1 14 49
M  V30 52 1 14 50
M  V30 53 1 16 51
M  V30 54 1 16 52
M  V30 55 1 17 53 CFG=3
M  V30 56 1 19 54
M  V30 57 1 19 55
M  V30 58 1 20 56
M  V30 59 1 20 57
M  V30 60 1 20 58
M  V30 61 1 21 59
M  V30 62 1 23 60
M  V30 63 1 28 61
M  V30 64 1 31 62
M  V30 65 1 31 63
M  V30 END BOND
M  V30 END CTAB
M  END
