
     RDKit          3D

  0  0  0  0  0  0  0  0  0  0999 V3000
M  V30 BEGIN CTAB
M  V30 COUNTS 18 19 0 0 0
M  V30 BEGIN ATOM
M  V30 1 N 4.17472 -0.267191 -0.494029 0
M  V30 2 C 2.73612 -0.162005 -0.418494 0
M  V30 3 N 1.94161 -0.238993 0.615094 0
M  V30 4 C 0.652938 -0.117956 0.486025 0
M  V30 5 C 0.165586 0.0932351 -0.777331 0
M  V30 6 S 1.61324 0.101721 -1.69296 0
M  V30 7 C -1.20164 0.238281 -1.03631 0
M  V30 8 C -2.12896 0.173991 -0.0175728 0
M  V30 9 N -3.51523 0.318694 -0.26274 0
M  V30 10 C -1.614 -0.039091 1.24337 0
M  V30 11 C -0.291302 -0.18316 1.52142 0
M  V30 12 H 4.72073 0.38657 -1.09192 0
M  V30 13 H 4.65479 -0.997006 0.0508143 0
M  V30 14 H -1.50946 0.400523 -2.04615 0
M  V30 15 H -3.90059 0.961812 -0.994562 0
M  V30 16 H -4.17745 -0.228319 0.298395 0
M  V30 17 H -2.34448 -0.0904731 2.05131 0
M  V30 18 H 0.0233726 -0.350632 2.56563 0
M  V30 END ATOM
M  V30 BEGIN BOND
M  V30 1 1 1 2
M  V30 2 2 2 3
M  V30 3 1 3 4
M  V30 4 2 4 5
M  V30 5 1 5 6
M  V30 6 1 5 7
M  V30 7 2 7 8
M  V30 8 1 8 9
M  V30 9 1 8 10
M  V30 10 2 10 11
M  V30 11 1 6 2
M  V30 12 1 11 4
M  V30 13 1 1 12
M  V30 14 1 1 13
M  V30 15 1 7 14
M  V30 16 1 9 15
M  V30 17 1 9 16
M  V30 18 1 10 17
M  V30 19 1 11 18
M  V30 END BOND
M  V30 END CTAB
M  END
