
     RDKit          3D

  0  0  0  0  0  0  0  0  0  0999 V3000
M  V30 BEGIN CTAB
M  V30 COUNTS 42 43 0 0 0
M  V30 BEGIN ATOM
M  V30 1 N -4.32738 2.29676 0.286874 0
M  V30 2 C -4.31603 0.85405 0.27239 0
M  V30 3 C -3.20892 0.361221 -0.659919 0
M  V30 4 C -3.15464 -1.12606 -0.710295 0
M  V30 5 C -2.478 -1.7829 0.466285 0
M  V30 6 C -1.41306 -0.87896 1.06886 0
M  V30 7 N -0.895744 0.0445733 0.0975063 0
M  V30 8 C -1.90666 1.04123 -0.348016 0
M  V30 9 C 0.369197 0.123213 -0.47345 0
M  V30 10 O 0.502445 1.10231 -1.30944 0
M  V30 11 C 1.56607 -0.701746 -0.295727 0
M  V30 12 C 2.77375 0.0279689 0.0980547 0
M  V30 13 C 3.97562 -0.263797 -0.509224 0
M  V30 14 C 5.13674 0.417688 -0.15326 0
M  V30 15 C 5.06015 1.38722 0.816043 0
M  V30 16 C 3.85157 1.68188 1.42805 0
M  V30 17 C 2.71993 1.00557 1.06921 0
M  V30 18 Br 6.64103 2.35428 1.33907 0
M  V30 19 N 1.44288 -1.83927 0.557748 0
M  V30 20 C 1.87083 -1.28511 -1.69057 0
M  V30 21 H -3.89391 2.73339 -0.540179 0
M  V30 22 H -3.8943 2.7004 1.13931 0
M  V30 23 H -4.23405 0.461338 1.2831 0
M  V30 24 H -5.2705 0.525604 -0.209165 0
M  V30 25 H -3.55321 0.689681 -1.68628 0
M  V30 26 H -2.6455 -1.42441 -1.6666 0
M  V30 27 H -4.19435 -1.50289 -0.749908 0
M  V30 28 H -3.2036 -2.12595 1.23436 0
M  V30 29 H -1.95591 -2.68255 0.0786211 0
M  V30 30 H -0.717308 -1.42122 1.68036 0
M  V30 31 H -2.00477 -0.245245 1.80797 0
M  V30 32 H -2.02878 1.76024 0.486778 0
M  V30 33 H -1.55248 1.60356 -1.2197 0
M  V30 34 H 4.12289 -1.01047 -1.27693 0
M  V30 35 H 6.09459 0.218137 -0.605046 0
M  V30 36 H 3.76422 2.4428 2.19613 0
M  V30 37 H 1.77063 1.20753 1.52106 0
M  V30 38 H 2.09933 -1.8888 1.33977 0
M  V30 39 H 1.25221 -2.73548 0.0724312 0
M  V30 40 H 2.41676 -0.486886 -2.23046 0
M  V30 41 H 2.50675 -2.1663 -1.65166 0
M  V30 42 H 0.911512 -1.47261 -2.23103 0
M  V30 END ATOM
M  V30 BEGIN BOND
M  V30 1 1 1 2
M  V30 2 1 2 3
M  V30 3 1 3 4
M  V30 4 1 4 5
M  V30 5 1 5 6
M  V30 6 1 6 7
M  V30 7 1 7 8
M  V30 8 1 7 9
M  V30 9 2 9 10
M  V30 10 1 9 11
M  V30 11 1 11 12
M  V30 12 2 12 13
M  V30 13 1 13 14
M  V30 14 2 14 15
M  V30 15 1 15 16
M  V30 16 2 16 17
M  V30 17 1 15 18
M  V30 18 1 11 19
M  V30 19 1 11 20
M  V30 20 1 8 3
M  V30 21 1 17 12
M  V30 22 1 1 21
M  V30 23 1 1 22
M  V30 24 1 2 23
M  V30 25 1 2 24
M  V30 26 1 3 25
M  V30 27 1 4 26
M  V30 28 1 4 27
M  V30 29 1 5 28
M  V30 30 1 5 29
M  V30 31 1 6 30
M  V30 32 1 6 31
M  V30 33 1 8 32
M  V30 34 1 8 33
M  V30 35 1 13 34
M  V30 36 1 14 35
M  V30 37 1 16 36
M  V30 38 1 17 37
M  V30 39 1 19 38
M  V30 40 1 19 39
M  V30 41 1 20 40
M  V30 42 1 20 41
M  V30 43 1 20 42
M  V30 END BOND
M  V30 END CTAB
M  END
