
     RDKit          3D

  0  0  0  0  0  0  0  0  0  0999 V3000
M  V30 BEGIN CTAB
M  V30 COUNTS 41 43 0 0 0
M  V30 BEGIN ATOM
M  V30 1 C -4.72521 -0.723404 1.09836 0
M  V30 2 N -4.67343 -0.136543 -0.204112 0
M  V30 3 C -3.85219 -0.839312 -1.14521 0
M  V30 4 C -2.4092 -0.857899 -0.750584 0
M  V30 5 N -1.95647 0.386942 -0.16498 0
M  V30 6 C -2.8399 1.43825 0.25218 0
M  V30 7 C -4.26226 1.23407 -0.150777 0
M  V30 8 C -0.557988 0.56774 0.00153776 0
M  V30 9 C 0.357016 -0.411921 -0.381368 0
M  V30 10 C 1.70515 -0.201452 -0.204649 0
M  V30 11 N 2.0936 0.959655 0.339242 0
M  V30 12 C 1.23654 1.92223 0.71804 0
M  V30 13 N -0.0678432 1.68744 0.5331 0
M  V30 14 N 1.61695 3.16273 1.297 0
M  V30 15 C 2.69822 -1.24965 -0.613544 0
M  V30 16 C 3.87826 -0.702429 -1.37469 0
M  V30 17 C 4.65934 -0.632138 -0.0955858 0
M  V30 18 C 3.63736 -1.58352 0.525357 0
M  V30 19 N 5.98964 -1.21682 -0.159131 0
M  V30 20 H -4.12498 -0.1993 1.8568 0
M  V30 21 H -4.38029 -1.79832 1.08447 0
M  V30 22 H -5.81012 -0.796108 1.38746 0
M  V30 23 H -4.18156 -1.90788 -1.23353 0
M  V30 24 H -3.97107 -0.339221 -2.13033 0
M  V30 25 H -1.82367 -1.10144 -1.68225 0
M  V30 26 H -2.17358 -1.68422 -0.0441109 0
M  V30 27 H -2.74426 1.56423 1.36219 0
M  V30 28 H -2.524 2.43841 -0.166372 0
M  V30 29 H -4.90313 1.7323 0.634292 0
M  V30 30 H -4.489 1.78285 -1.08819 0
M  V30 31 H 0.0085354 -1.33839 -0.817671 0
M  V30 32 H 1.24146 4.06321 0.985152 0
M  V30 33 H 2.32148 3.19291 2.09223 0
M  V30 34 H 2.20789 -2.12761 -1.03735 0
M  V30 35 H 3.61074 0.270248 -1.8359 0
M  V30 36 H 4.24132 -1.44573 -2.09641 0
M  V30 37 H 4.71032 0.360137 0.384543 0
M  V30 38 H 3.95997 -2.63064 0.59031 0
M  V30 39 H 3.29769 -1.15121 1.49172 0
M  V30 40 H 6.4931 -0.965371 0.722201 0
M  V30 41 H 6.50559 -0.722827 -0.926314 0
M  V30 END ATOM
M  V30 BEGIN BOND
M  V30 1 1 1 2
M  V30 2 1 2 3
M  V30 3 1 3 4
M  V30 4 1 4 5
M  V30 5 1 5 6
M  V30 6 1 6 7
M  V30 7 1 5 8
M  V30 8 2 8 9
M  V30 9 1 9 10
M  V30 10 2 10 11
M  V30 11 1 11 12
M  V30 12 2 12 13
M  V30 13 1 12 14
M  V30 14 1 10 15
M  V30 15 1 15 16
M  V30 16 1 16 17
M  V30 17 1 17 18
M  V30 18 1 17 19
M  V30 19 1 7 2
M  V30 20 1 13 8
M  V30 21 1 18 15
M  V30 22 1 1 20
M  V30 23 1 1 21
M  V30 24 1 1 22
M  V30 25 1 3 23
M  V30 26 1 3 24
M  V30 27 1 4 25
M  V30 28 1 4 26
M  V30 29 1 6 27
M  V30 30 1 6 28
M  V30 31 1 7 29
M  V30 32 1 7 30
M  V30 33 1 9 31
M  V30 34 1 14 32
M  V30 35 1 14 33
M  V30 36 1 15 34
M  V30 37 1 16 35
M  V30 38 1 16 36
M  V30 39 1 17 37
M  V30 40 1 18 38
M  V30 41 1 18 39
M  V30 42 1 19 40
M  V30 43 1 19 41
M  V30 END BOND
M  V30 END CTAB
M  END
