
     RDKit          3D

  0  0  0  0  0  0  0  0  0  0999 V3000
M  V30 BEGIN CTAB
M  V30 COUNTS 21 22 0 0 0
M  V30 BEGIN ATOM
M  V30 1 N -3.41149 0.593875 0.337255 0
M  V30 2 C -1.98989 0.49884 0.377457 0
M  V30 3 C -1.21937 1.56557 0.820165 0
M  V30 4 C 0.146933 1.43292 0.843249 0
M  V30 5 C 0.744541 0.269984 0.437435 0
M  V30 6 C 0.0211499 -0.808013 -0.0069931 0
M  V30 7 C -1.36752 -0.663722 -0.02689 0
M  V30 8 N -2.18935 -1.7264 -0.470809 0
M  V30 9 C 2.22285 0.188123 0.485615 0
M  V30 10 N 2.98236 -0.842564 0.138209 0
M  V30 11 C 4.26978 -0.735892 0.247142 0
M  V30 12 N 4.76901 0.412401 0.70607 0
M  V30 13 S 3.38257 1.33275 0.978449 0
M  V30 14 H -3.97675 -0.231307 0.130559 0
M  V30 15 H -3.85345 1.5296 0.525013 0
M  V30 16 H -1.7291 2.4691 1.13303 0
M  V30 17 H 0.760433 2.25105 1.18398 0
M  V30 18 H 0.470357 -1.7318 -0.330718 0
M  V30 19 H -2.62969 -2.36933 0.216853 0
M  V30 20 H -2.36215 -1.87662 -1.48546 0
M  V30 21 H 4.95876 -1.55858 -0.025746 0
M  V30 END ATOM
M  V30 BEGIN BOND
M  V30 1 1 1 2
M  V30 2 2 2 3
M  V30 3 1 3 4
M  V30 4 2 4 5
M  V30 5 1 5 6
M  V30 6 2 6 7
M  V30 7 1 7 8
M  V30 8 1 5 9
M  V30 9 2 9 10
M  V30 10 1 10 11
M  V30 11 2 11 12
M  V30 12 1 12 13
M  V30 13 1 7 2
M  V30 14 1 13 9
M  V30 15 1 1 14
M  V30 16 1 1 15
M  V30 17 1 3 16
M  V30 18 1 4 17
M  V30 19 1 6 18
M  V30 20 1 8 19
M  V30 21 1 8 20
M  V30 22 1 11 21
M  V30 END BOND
M  V30 END CTAB
M  END
