
     RDKit          3D

  0  0  0  0  0  0  0  0  0  0999 V3000
M  V30 BEGIN CTAB
M  V30 COUNTS 56 58 0 0 0
M  V30 BEGIN ATOM
M  V30 1 C -2.98392 2.22219 -0.819826 0
M  V30 2 N -2.32924 0.950362 -1.11928 0
M  V30 3 C -3.12316 -0.122772 -1.59339 0
M  V30 4 C -4.164 -0.475729 -0.561351 0
M  V30 5 N -5.38604 0.0863435 -0.581269 0
M  V30 6 C -6.33354 -0.210835 0.328023 0
M  V30 7 C -6.07833 -1.12109 1.33232 0
M  V30 8 N -4.8563 -1.68369 1.35295 0
M  V30 9 C -3.90342 -1.38659 0.440835 0
M  V30 10 N -7.02723 -1.41665 2.24186 0
M  V30 11 C -8.25693 -0.858935 2.23348 0
M  V30 12 N -9.22135 -1.19747 3.20627 0
M  V30 13 N -8.50333 0.0355304 1.24419 0
M  V30 14 C -7.58815 0.362459 0.314133 0
M  V30 15 N -7.86544 1.29997 -0.710608 0
M  V30 16 C -0.925369 0.86396 -0.913232 0
M  V30 17 C -0.206237 1.95739 -0.430317 0
M  V30 18 C 1.14227 1.95125 -0.207975 0
M  V30 19 C 1.85428 0.793981 -0.474001 0
M  V30 20 C 1.16771 -0.296867 -0.950537 0
M  V30 21 C -0.196078 -0.271917 -1.16917 0
M  V30 22 C 3.27329 0.793316 -0.23578 0
M  V30 23 O 3.8177 1.79575 0.281864 0
M  V30 24 N 4.07452 -0.311992 -0.571053 0
M  V30 25 C 5.52396 -0.30812 -0.324774 0
M  V30 26 C 5.85873 -1.45792 0.590056 0
M  V30 27 C 7.29519 -1.49528 0.862049 0
M  V30 28 C 7.98899 -2.57547 0.453307 0
M  V30 29 C 7.94237 -0.416092 1.56046 0
M  V30 30 O 9.33413 -0.537682 1.78745 0
M  V30 31 O 7.35257 0.60853 1.97373 0
M  V30 32 C 6.19296 -0.514931 -1.6305 0
M  V30 33 O 7.57536 -0.539061 -1.79448 0
M  V30 34 O 5.49555 -0.677835 -2.65667 0
M  V30 35 H -2.88609 2.3676 0.274925 0
M  V30 36 H -2.45532 3.06604 -1.32614 0
M  V30 37 H -4.04474 2.22772 -1.11896 0
M  V30 38 H -3.70468 0.219081 -2.50464 0
M  V30 39 H -2.62267 -1.05137 -1.84626 0
M  V30 40 H -2.93524 -1.85165 0.481836 0
M  V30 41 H -10.0687 -0.626197 3.32338 0
M  V30 42 H -9.07586 -2.0227 3.80349 0
M  V30 43 H -7.75408 2.32164 -0.459251 0
M  V30 44 H -8.16087 0.990814 -1.65199 0
M  V30 45 H -0.760515 2.86005 -0.221916 0
M  V30 46 H 1.6281 2.85027 0.171428 0
M  V30 47 H 1.68948 -1.21675 -1.16817 0
M  V30 48 H -0.665343 -1.16677 -1.54431 0
M  V30 49 H 3.68197 -1.16515 -1.00124 0
M  V30 50 H 5.83486 0.631993 0.138181 0
M  V30 51 H 5.52949 -2.43323 0.150714 0
M  V30 52 H 5.27698 -1.3219 1.55019 0
M  V30 53 H 7.49953 -3.38156 -0.0557676 0
M  V30 54 H 9.04342 -2.6252 0.641612 0
M  V30 55 H 9.92558 -0.00298891 1.17343 0
M  V30 56 H 8.08315 0.206375 -2.2693 0
M  V30 END ATOM
M  V30 BEGIN BOND
M  V30 1 1 1 2
M  V30 2 1 2 3
M  V30 3 1 3 4
M  V30 4 2 4 5
M  V30 5 1 5 6
M  V30 6 2 6 7
M  V30 7 1 7 8
M  V30 8 2 8 9
M  V30 9 1 7 10
M  V30 10 2 10 11
M  V30 11 1 11 12
M  V30 12 1 11 13
M  V30 13 2 13 14
M  V30 14 1 14 15
M  V30 15 1 2 16
M  V30 16 2 16 17
M  V30 17 1 17 18
M  V30 18 2 18 19
M  V30 19 1 19 20
M  V30 20 2 20 21
M  V30 21 1 19 22
M  V30 22 2 22 23
M  V30 23 1 22 24
M  V30 24 1 24 25
M  V30 25 1 25 26
M  V30 26 1 26 27
M  V30 27 2 27 28 CFG=2
M  V30 28 1 27 29
M  V30 29 1 29 30
M  V30 30 2 29 31
M  V30 31 1 25 32
M  V30 32 1 32 33
M  V30 33 2 32 34
M  V30 34 1 9 4
M  V30 35 1 21 16
M  V30 36 1 14 6
M  V30 37 1 1 35
M  V30 38 1 1 36
M  V30 39 1 1 37
M  V30 40 1 3 38
M  V30 41 1 3 39
M  V30 42 1 9 40
M  V30 43 1 12 41
M  V30 44 1 12 42
M  V30 45 1 15 43
M  V30 46 1 15 44
M  V30 47 1 17 45
M  V30 48 1 18 46
M  V30 49 1 20 47
M  V30 50 1 21 48
M  V30 51 1 24 49
M  V30 52 1 25 50
M  V30 53 1 26 51
M  V30 54 1 26 52
M  V30 55 1 28 53
M  V30 56 1 28 54
M  V30 57 1 30 55
M  V30 58 1 33 56
M  V30 END BOND
M  V30 END CTAB
M  END
