
     RDKit          3D

  0  0  0  0  0  0  0  0  0  0999 V3000
M  V30 BEGIN CTAB
M  V30 COUNTS 21 21 0 0 0
M  V30 BEGIN ATOM
M  V30 1 N 2.44806 0.326286 0.416279 0
M  V30 2 C 1.84738 0.90396 -0.751705 0
M  V30 3 C 0.725142 0.137743 -1.36197 0
M  V30 4 C -0.442208 -0.0743487 -0.429499 0
M  V30 5 N -1.46861 0.730207 -0.4843 0
M  V30 6 C -2.47535 0.583394 0.331633 0
M  V30 7 S -2.00353 -0.762444 1.26269 0
M  V30 8 C -0.473989 -1.06576 0.510939 0
M  V30 9 C 0.513691 -2.1572 0.826789 0
M  V30 10 N -3.65385 1.38462 0.382898 0
M  V30 11 H 3.4352 0.659898 0.495403 0
M  V30 12 H 1.94577 0.60113 1.30201 0
M  V30 13 H 2.66618 0.981551 -1.53031 0
M  V30 14 H 1.52883 1.95795 -0.515662 0
M  V30 15 H 1.11069 -0.851118 -1.70421 0
M  V30 16 H 0.41912 0.661157 -2.29105 0
M  V30 17 H 0.990148 -1.96497 1.78469 0
M  V30 18 H -0.112116 -3.089 0.960941 0
M  V30 19 H 1.16813 -2.37663 -0.0180874 0
M  V30 20 H -4.61762 0.999498 0.287244 0
M  V30 21 H -3.55106 2.41407 0.525271 0
M  V30 END ATOM
M  V30 BEGIN BOND
M  V30 1 1 1 2
M  V30 2 1 2 3
M  V30 3 1 3 4
M  V30 4 1 4 5
M  V30 5 2 5 6
M  V30 6 1 6 7
M  V30 7 1 7 8
M  V30 8 1 8 9
M  V30 9 1 6 10
M  V30 10 2 8 4
M  V30 11 1 1 11
M  V30 12 1 1 12
M  V30 13 1 2 13
M  V30 14 1 2 14
M  V30 15 1 3 15
M  V30 16 1 3 16
M  V30 17 1 9 17
M  V30 18 1 9 18
M  V30 19 1 9 19
M  V30 20 1 10 20
M  V30 21 1 10 21
M  V30 END BOND
M  V30 END CTAB
M  END
