
     RDKit          3D

  0  0  0  0  0  0  0  0  0  0999 V3000
M  V30 BEGIN CTAB
M  V30 COUNTS 23 23 0 0 0
M  V30 BEGIN ATOM
M  V30 1 N -4.37221 0.366205 -0.368832 0
M  V30 2 N -3.00466 0.660971 -0.346776 0
M  V30 3 C -2.09448 -0.217531 -0.114254 0
M  V30 4 C -0.670899 0.14025 -0.101619 0
M  V30 5 C -0.243402 1.42749 -0.337031 0
M  V30 6 C 1.08913 1.77317 -0.327419 0
M  V30 7 C 2.03478 0.803385 -0.0742477 0
M  V30 8 C 1.60992 -0.486706 0.161898 0
M  V30 9 C 0.269844 -0.822402 0.149816 0
M  V30 10 O 2.58386 -1.47231 0.419963 0
M  V30 11 C 3.94356 -1.15445 0.43684 0
M  V30 12 N -2.53092 -1.54868 0.129432 0
M  V30 13 H -5.00338 1.15585 -0.0378968 0
M  V30 14 H -4.78439 -0.522785 -0.670325 0
M  V30 15 H -0.984763 2.18414 -0.53477 0
M  V30 16 H 1.44897 2.77533 -0.509084 0
M  V30 17 H 3.10424 1.02576 -0.0553943 0
M  V30 18 H 0.0287894 -1.86315 0.346424 0
M  V30 19 H 4.2427 -0.857494 -0.59276 0
M  V30 20 H 4.52261 -1.98867 0.846708 0
M  V30 21 H 4.1689 -0.271624 1.10424 0
M  V30 22 H -3.38419 -1.95696 -0.291088 0
M  V30 23 H -1.97398 -2.16834 0.766174 0
M  V30 END ATOM
M  V30 BEGIN BOND
M  V30 1 1 1 2
M  V30 2 2 2 3
M  V30 3 1 3 4
M  V30 4 2 4 5
M  V30 5 1 5 6
M  V30 6 2 6 7
M  V30 7 1 7 8
M  V30 8 2 8 9
M  V30 9 1 8 10
M  V30 10 1 10 11
M  V30 11 1 3 12
M  V30 12 1 9 4
M  V30 13 1 1 13
M  V30 14 1 1 14
M  V30 15 1 5 15
M  V30 16 1 6 16
M  V30 17 1 7 17
M  V30 18 1 9 18
M  V30 19 1 11 19
M  V30 20 1 11 20
M  V30 21 1 11 21
M  V30 22 1 12 22
M  V30 23 1 12 23
M  V30 END BOND
M  V30 END CTAB
M  END
