
     RDKit          3D

  0  0  0  0  0  0  0  0  0  0999 V3000
M  V30 BEGIN CTAB
M  V30 COUNTS 41 41 0 0 0
M  V30 BEGIN ATOM
M  V30 1 C -3.38865 2.18433 0.729539 0
M  V30 2 C -3.51285 0.910362 -0.00264737 0
M  V30 3 C -2.39316 0.513892 -0.897832 0
M  V30 4 C -1.09681 0.362007 -0.169966 0
M  V30 5 O -1.03218 0.582263 1.06073 0
M  V30 6 N 0.0673639 -0.0312416 -0.862953 0
M  V30 7 C 1.37148 -0.220194 -0.358387 0
M  V30 8 C 1.83038 0.234253 0.850851 0
M  V30 9 C 3.11315 0.0103431 1.32391 0
M  V30 10 C 3.96879 -0.710285 0.526701 0
M  V30 11 C 3.52993 -1.17797 -0.695394 0
M  V30 12 C 2.25532 -0.94534 -1.14505 0
M  V30 13 S 5.61535 -1.07053 0.99346 0
M  V30 14 O 6.44236 -1.21744 -0.242978 0
M  V30 15 O 6.08693 0.0696299 1.85514 0
M  V30 16 N 5.70526 -2.56349 1.8607 0
M  V30 17 C -2.25459 1.41745 -2.09741 0
M  V30 18 N -2.00235 2.79973 -1.74704 0
M  V30 19 C -2.74649 -0.868183 -1.43665 0
M  V30 20 C -2.90373 -1.88028 -0.337827 0
M  V30 21 H -4.08027 2.98278 0.386202 0
M  V30 22 H -2.37852 2.61678 0.802054 0
M  V30 23 H -3.69553 2.00632 1.80291 0
M  V30 24 H -3.71731 0.0768447 0.687629 0
M  V30 25 H -4.42396 0.981945 -0.663258 0
M  V30 26 H -0.0486852 -0.206214 -1.91849 0
M  V30 27 H 1.19454 0.817265 1.50734 0
M  V30 28 H 3.44712 0.384026 2.28845 0
M  V30 29 H 4.22737 -1.75659 -1.32909 0
M  V30 30 H 1.94127 -1.33718 -2.12826 0
M  V30 31 H 6.60728 -2.57949 2.37347 0
M  V30 32 H 4.87927 -2.71809 2.47069 0
M  V30 33 H -1.4157 1.0587 -2.71044 0
M  V30 34 H -3.16651 1.32864 -2.72526 0
M  V30 35 H -2.2799 3.44695 -2.49307 0
M  V30 36 H -1.08346 2.95312 -1.32303 0
M  V30 37 H -2.06143 -1.18209 -2.23856 0
M  V30 38 H -3.75024 -0.746622 -1.91915 0
M  V30 39 H -3.96619 -2.04043 -0.048444 0
M  V30 40 H -2.52327 -2.89105 -0.620844 0
M  V30 41 H -2.36134 -1.59493 0.591193 0
M  V30 END ATOM
M  V30 BEGIN BOND
M  V30 1 1 1 2
M  V30 2 1 2 3
M  V30 3 1 3 4
M  V30 4 2 4 5
M  V30 5 1 4 6
M  V30 6 1 6 7
M  V30 7 2 7 8
M  V30 8 1 8 9
M  V30 9 2 9 10
M  V30 10 1 10 11
M  V30 11 2 11 12
M  V30 12 1 10 13
M  V30 13 2 13 14
M  V30 14 2 13 15
M  V30 15 1 13 16
M  V30 16 1 3 17
M  V30 17 1 17 18
M  V30 18 1 3 19
M  V30 19 1 19 20
M  V30 20 1 12 7
M  V30 21 1 1 21
M  V30 22 1 1 22
M  V30 23 1 1 23
M  V30 24 1 2 24
M  V30 25 1 2 25
M  V30 26 1 6 26
M  V30 27 1 8 27
M  V30 28 1 9 28
M  V30 29 1 11 29
M  V30 30 1 12 30
M  V30 31 1 16 31
M  V30 32 1 16 32
M  V30 33 1 17 33
M  V30 34 1 17 34
M  V30 35 1 18 35
M  V30 36 1 18 36
M  V30 37 1 19 37
M  V30 38 1 19 38
M  V30 39 1 20 39
M  V30 40 1 20 40
M  V30 41 1 20 41
M  V30 END BOND
M  V30 END CTAB
M  END
