
     RDKit          3D

  0  0  0  0  0  0  0  0  0  0999 V3000
M  V30 BEGIN CTAB
M  V30 COUNTS 25 25 0 0 0
M  V30 BEGIN ATOM
M  V30 1 C -0.951218 -2.87526 1.90877 0
M  V30 2 C -0.522047 -2.33135 0.595679 0
M  V30 3 C -0.190859 -3.2277 -0.391105 0
M  V30 4 C 0.207982 -2.73722 -1.61239 0
M  V30 5 N 0.268305 -1.38844 -1.8247 0
M  V30 6 C -0.0511805 -0.498865 -0.873072 0
M  V30 7 C 0.00709037 0.945759 -1.07629 0
M  V30 8 N -0.294632 1.78635 -0.156369 0
M  V30 9 N -0.275719 3.16461 -0.236353 0
M  V30 10 C 0.838819 3.98865 -0.149494 0
M  V30 11 N 2.12597 3.44225 0.0388702 0
M  V30 12 S 0.67562 5.59341 -0.262194 0
M  V30 13 C -0.454746 -0.955592 0.362424 0
M  V30 14 N -0.796965 -0.0634565 1.38887 0
M  V30 15 H -0.356142 -3.74936 2.2212 0
M  V30 16 H -1.02926 -2.11071 2.70252 0
M  V30 17 H -1.99408 -3.25494 1.75631 0
M  V30 18 H -0.234381 -4.31289 -0.240334 0
M  V30 19 H 0.474114 -3.43216 -2.40496 0
M  V30 20 H 0.311581 1.35448 -2.0283 0
M  V30 21 H -1.22331 3.62718 -0.37915 0
M  V30 22 H 2.92461 3.83949 -0.514956 0
M  V30 23 H 2.35523 2.66745 0.689808 0
M  V30 24 H -1.73849 0.366986 1.44219 0
M  V30 25 H -0.0762932 0.161326 2.11101 0
M  V30 END ATOM
M  V30 BEGIN BOND
M  V30 1 1 1 2
M  V30 2 2 2 3
M  V30 3 1 3 4
M  V30 4 2 4 5
M  V30 5 1 5 6
M  V30 6 1 6 7
M  V30 7 2 7 8
M  V30 8 1 8 9
M  V30 9 1 9 10
M  V30 10 1 10 11
M  V30 11 2 10 12
M  V30 12 2 6 13
M  V30 13 1 13 14
M  V30 14 1 13 2
M  V30 15 1 1 15
M  V30 16 1 1 16
M  V30 17 1 1 17
M  V30 18 1 3 18
M  V30 19 1 4 19
M  V30 20 1 7 20
M  V30 21 1 9 21
M  V30 22 1 11 22
M  V30 23 1 11 23
M  V30 24 1 14 24
M  V30 25 1 14 25
M  V30 END BOND
M  V30 END CTAB
M  END
