
     RDKit          3D

  0  0  0  0  0  0  0  0  0  0999 V3000
M  V30 BEGIN CTAB
M  V30 COUNTS 32 33 0 0 0
M  V30 BEGIN ATOM
M  V30 1 N -3.03849 2.81134 0.225433 0
M  V30 2 C -2.50707 1.47999 0.535772 0
M  V30 3 C -1.65358 1.0144 -0.594517 0
M  V30 4 C -1.05097 -0.311876 -0.433547 0
M  V30 5 C -1.59763 -1.5491 -0.596 0
M  V30 6 N -0.645239 -2.44406 -0.312797 0
M  V30 7 C 0.5011 -1.84939 0.0271396 0
M  V30 8 C 1.75677 -2.34233 0.400182 0
M  V30 9 C 2.76491 -1.457 0.699789 0
M  V30 10 C 2.54283 -0.0941296 0.633852 0
M  V30 11 C 1.302 0.370378 0.265037 0
M  V30 12 C 0.265338 -0.494789 -0.0431538 0
M  V30 13 S 3.85559 0.999694 1.02244 0
M  V30 14 N 4.75231 1.39541 -0.421926 0
M  V30 15 O 4.85404 0.29136 1.92553 0
M  V30 16 O 3.40077 2.21675 1.74749 0
M  V30 17 C -2.95509 -1.878 -1.00648 0
M  V30 18 O -3.93591 -0.980575 -1.30768 0
M  V30 19 O -3.29402 -3.10416 -1.10566 0
M  V30 20 H -3.93995 2.95481 0.723017 0
M  V30 21 H -3.17097 2.94277 -0.796816 0
M  V30 22 H -3.34463 0.847053 0.808362 0
M  V30 23 H -1.86907 1.62288 1.4376 0
M  V30 24 H -0.890697 1.8136 -0.77946 0
M  V30 25 H -2.26701 0.991066 -1.52296 0
M  V30 26 H -0.725806 -3.50513 -0.336095 0
M  V30 27 H 1.9117 -3.4112 0.446189 0
M  V30 28 H 3.76441 -1.81317 0.996746 0
M  V30 29 H 1.13015 1.42692 0.214034 0
M  V30 30 H 4.58844 2.40649 -0.651316 0
M  V30 31 H 4.38052 0.791547 -1.1895 0
M  V30 32 H -4.88474 -1.14157 -1.01071 0
M  V30 END ATOM
M  V30 BEGIN BOND
M  V30 1 1 1 2
M  V30 2 1 2 3
M  V30 3 1 3 4
M  V30 4 2 4 5
M  V30 5 1 5 6
M  V30 6 1 6 7
M  V30 7 2 7 8
M  V30 8 1 8 9
M  V30 9 2 9 10
M  V30 10 1 10 11
M  V30 11 2 11 12
M  V30 12 1 10 13
M  V30 13 1 13 14
M  V30 14 2 13 15
M  V30 15 2 13 16
M  V30 16 1 5 17
M  V30 17 1 17 18
M  V30 18 2 17 19
M  V30 19 1 12 4
M  V30 20 1 12 7
M  V30 21 1 1 20
M  V30 22 1 1 21
M  V30 23 1 2 22
M  V30 24 1 2 23
M  V30 25 1 3 24
M  V30 26 1 3 25
M  V30 27 1 6 26
M  V30 28 1 8 27
M  V30 29 1 9 28
M  V30 30 1 11 29
M  V30 31 1 14 30
M  V30 32 1 14 31
M  V30 33 1 18 32
M  V30 END BOND
M  V30 END CTAB
M  END
