
     RDKit          3D

  0  0  0  0  0  0  0  0  0  0999 V3000
M  V30 BEGIN CTAB
M  V30 COUNTS 58 61 0 0 0
M  V30 BEGIN ATOM
M  V30 1 N -6.67185 3.27615 2.56504 0
M  V30 2 C -5.80908 2.67155 1.65 0
M  V30 3 N -4.62903 2.12387 1.95882 0
M  V30 4 C -4.0725 1.19215 1.08018 0
M  V30 5 C -2.7847 0.601423 1.31977 0
M  V30 6 O -2.0813 0.637222 0.120787 0
M  V30 7 C -0.806157 0.19775 -0.178247 0
M  V30 8 C -0.0540276 -0.322623 0.760375 0
M  V30 9 C 1.20753 -0.766816 0.544183 0
M  V30 10 C 1.75917 -0.618401 -0.847676 0
M  V30 11 C 3.0383 -0.88437 -1.08705 0
M  V30 12 N 4.20398 -1.42153 -1.10143 0
M  V30 13 C 5.40784 -2.0055 -1.13874 0
M  V30 14 O 6.22815 -2.72792 -1.46837 0
M  V30 15 C 6.07254 -1.01888 -0.0223798 0
M  V30 16 C 7.14917 -0.336197 -0.526739 0
M  V30 17 C 7.70445 0.656699 0.14008 0
M  V30 18 C 7.2164 1.01641 1.33207 0
M  V30 19 C 6.10761 0.341111 1.88845 0
M  V30 20 C 5.51486 -0.75827 1.13801 0
M  V30 21 S 9.13242 1.42876 -0.499324 0
M  V30 22 F 10.2794 0.174233 -0.670368 0
M  V30 23 O 9.78979 2.3303 0.615045 0
M  V30 24 O 9.02296 2.15121 -1.76115 0
M  V30 25 C 0.887929 -0.0842833 -1.77138 0
M  V30 26 C -0.35053 0.332749 -1.52188 0
M  V30 27 C -4.69575 0.924464 -0.0189365 0
M  V30 28 C -5.94288 1.51235 -0.439973 0
M  V30 29 N -6.44562 1.25413 -1.72274 0
M  V30 30 N -6.45538 2.36947 0.435341 0
M  V30 31 C -4.58719 -0.40101 -0.677863 0
M  V30 32 C -4.48174 -0.67814 -1.93803 0
M  V30 33 C -4.81177 -1.91156 -2.45115 0
M  V30 34 Cl -4.78352 -2.28028 -4.17093 0
M  V30 35 C -5.25836 -2.99736 -1.66528 0
M  V30 36 Cl -5.9201 -4.44671 -2.2127 0
M  V30 37 C -5.37764 -2.68736 -0.281237 0
M  V30 38 C -5.04219 -1.45065 0.163989 0
M  V30 39 H -7.35887 2.52206 3.06379 0
M  V30 40 H -6.84452 4.21224 2.85405 0
M  V30 41 H -2.68209 -0.311236 1.85423 0
M  V30 42 H -2.15837 1.35948 1.94833 0
M  V30 43 H -0.428722 -0.468248 1.83146 0
M  V30 44 H 1.92154 -1.19796 1.17461 0
M  V30 45 H 3.35531 0.158757 -1.84041 0
M  V30 46 H 3.44968 0.0291025 -0.0476075 0
M  V30 47 H 3.52415 -2.6481 -1.39891 0
M  V30 48 H 7.47214 -0.640631 -1.52227 0
M  V30 49 H 7.59572 1.82556 1.89043 0
M  V30 50 H 5.65553 0.607233 2.80314 0
M  V30 51 H 4.67816 -1.25619 1.55608 0
M  V30 52 H 1.36272 0.0284677 -2.83578 0
M  V30 53 H -1.044 0.724868 -2.25868 0
M  V30 54 H -6.08023 1.68537 -2.62794 0
M  V30 55 H -7.22825 0.604107 -1.74931 0
M  V30 56 H -4.10087 0.0409331 -2.68171 0
M  V30 57 H -5.7058 -3.44656 0.371513 0
M  V30 58 H -5.04442 -1.22341 1.17023 0
M  V30 END ATOM
M  V30 BEGIN BOND
M  V30 1 1 1 2
M  V30 2 2 2 3
M  V30 3 1 3 4
M  V30 4 1 4 5
M  V30 5 1 5 6
M  V30 6 1 6 7
M  V30 7 2 7 8
M  V30 8 1 8 9
M  V30 9 2 9 10
M  V30 10 1 10 11
M  V30 11 1 11 12
M  V30 12 1 12 13
M  V30 13 2 13 14
M  V30 14 1 13 15
M  V30 15 2 15 16
M  V30 16 1 16 17
M  V30 17 2 17 18
M  V30 18 1 18 19
M  V30 19 2 19 20
M  V30 20 1 17 21
M  V30 21 1 21 22
M  V30 22 2 21 23
M  V30 23 2 21 24
M  V30 24 1 10 25
M  V30 25 2 25 26
M  V30 26 2 4 27
M  V30 27 1 27 28
M  V30 28 1 28 29
M  V30 29 2 28 30
M  V30 30 1 27 31
M  V30 31 2 31 32
M  V30 32 1 32 33
M  V30 33 1 33 34
M  V30 34 2 33 35
M  V30 35 1 35 36
M  V30 36 1 35 37
M  V30 37 2 37 38
M  V30 38 1 30 2
M  V30 39 1 38 31
M  V30 40 1 26 7
M  V30 41 1 20 15
M  V30 42 1 1 39
M  V30 43 1 1 40
M  V30 44 1 5 41
M  V30 45 1 5 42
M  V30 46 1 8 43
M  V30 47 1 9 44
M  V30 48 1 11 45
M  V30 49 1 11 46
M  V30 50 1 12 47
M  V30 51 1 16 48
M  V30 52 1 18 49
M  V30 53 1 19 50
M  V30 54 1 20 51
M  V30 55 1 25 52
M  V30 56 1 26 53
M  V30 57 1 29 54
M  V30 58 1 29 55
M  V30 59 1 32 56
M  V30 60 1 37 57
M  V30 61 1 38 58
M  V30 END BOND
M  V30 END CTAB
M  END
