
     RDKit          3D

  0  0  0  0  0  0  0  0  0  0999 V3000
M  V30 BEGIN CTAB
M  V30 COUNTS 20 20 0 0 0
M  V30 BEGIN ATOM
M  V30 1 O -2.22234 -2.83491 0.0288872 0 CHG=-1
M  V30 2 N -2.34386 -1.49717 0.310055 0 CHG=1
M  V30 3 O -3.43695 -1.09427 0.749914 0
M  V30 4 C -1.24172 -0.611769 0.098582 0
M  V30 5 C 0.0316388 -1.09085 0.257316 0
M  V30 6 C 1.11382 -0.256236 0.0591106 0
M  V30 7 C 0.91129 1.04897 -0.29575 0
M  V30 8 C -0.359179 1.55698 -0.46207 0
M  V30 9 C -1.45508 0.711552 -0.261314 0
M  V30 10 N -2.75792 1.17589 -0.417004 0
M  V30 11 C 2.48416 -0.755476 0.225052 0
M  V30 12 S 2.80581 -2.35281 0.275332 0
M  V30 13 N 3.55553 0.153434 0.345052 0
M  V30 14 H 0.247954 -2.12108 0.53765 0
M  V30 15 H 1.78112 1.68721 -0.446687 0
M  V30 16 H -0.529595 2.60611 -0.747244 0
M  V30 17 H -3.28035 0.963842 -1.28643 0
M  V30 18 H -3.21513 1.73339 0.326609 0
M  V30 19 H 3.51327 0.94144 1.01827 0
M  V30 20 H 4.39753 0.0357556 -0.245324 0
M  V30 END ATOM
M  V30 BEGIN BOND
M  V30 1 1 1 2
M  V30 2 2 2 3
M  V30 3 1 2 4
M  V30 4 2 4 5
M  V30 5 1 5 6
M  V30 6 2 6 7
M  V30 7 1 7 8
M  V30 8 2 8 9
M  V30 9 1 9 10
M  V30 10 1 6 11
M  V30 11 2 11 12
M  V30 12 1 11 13
M  V30 13 1 9 4
M  V30 14 1 5 14
M  V30 15 1 7 15
M  V30 16 1 8 16
M  V30 17 1 10 17
M  V30 18 1 10 18
M  V30 19 1 13 19
M  V30 20 1 13 20
M  V30 END BOND
M  V30 END CTAB
M  END
