
     RDKit          3D

  0  0  0  0  0  0  0  0  0  0999 V3000
M  V30 BEGIN CTAB
M  V30 COUNTS 29 30 0 0 0
M  V30 BEGIN ATOM
M  V30 1 N 3.78614 1.93181 0.194658 0
M  V30 2 C 3.20709 0.638368 0.22475 0
M  V30 3 C 3.7713 -0.434028 -0.442286 0
M  V30 4 C 3.17157 -1.69479 -0.389559 0
M  V30 5 C 2.01307 -1.89587 0.323117 0
M  V30 6 S 1.29946 -3.51023 0.37135 0
M  V30 7 S -0.49087 -3.45072 1.50226 0
M  V30 8 S -2.0195 -3.07409 0.111537 0
M  V30 9 C -2.36209 -1.35373 -0.150981 0
M  V30 10 C -1.75108 -0.609473 -1.13376 0
M  V30 11 C -2.03243 0.738144 -1.32457 0
M  V30 12 C -2.96665 1.35104 -0.488316 0
M  V30 13 N -3.29025 2.73363 -0.644086 0
M  V30 14 C -3.59266 0.628359 0.50341 0
M  V30 15 C -3.27844 -0.709318 0.652811 0
M  V30 16 C 1.47963 -0.81493 0.972101 0
M  V30 17 C 2.04476 0.441328 0.941079 0
M  V30 18 H 4.56425 2.1537 0.835451 0
M  V30 19 H 3.44154 2.65328 -0.457427 0
M  V30 20 H 4.68545 -0.260301 -1.00052 0
M  V30 21 H 3.68423 -2.47098 -0.941461 0
M  V30 22 H -1.03148 -1.10624 -1.76849 0
M  V30 23 H -1.56123 1.3355 -2.09137 0
M  V30 24 H -2.67686 3.44658 -0.227718 0
M  V30 25 H -4.13143 3.06026 -1.16771 0
M  V30 26 H -4.30617 1.15521 1.11975 0
M  V30 27 H -3.7824 -1.24599 1.43403 0
M  V30 28 H 0.551767 -0.91819 1.5587 0
M  V30 29 H 1.57327 1.28168 1.48324 0
M  V30 END ATOM
M  V30 BEGIN BOND
M  V30 1 1 1 2
M  V30 2 2 2 3
M  V30 3 1 3 4
M  V30 4 2 4 5
M  V30 5 1 5 6
M  V30 6 1 6 7
M  V30 7 1 7 8
M  V30 8 1 8 9
M  V30 9 2 9 10
M  V30 10 1 10 11
M  V30 11 2 11 12
M  V30 12 1 12 13
M  V30 13 1 12 14
M  V30 14 2 14 15
M  V30 15 1 5 16
M  V30 16 2 16 17
M  V30 17 1 17 2
M  V30 18 1 15 9
M  V30 19 1 1 18
M  V30 20 1 1 19
M  V30 21 1 3 20
M  V30 22 1 4 21
M  V30 23 1 10 22
M  V30 24 1 11 23
M  V30 25 1 13 24
M  V30 26 1 13 25
M  V30 27 1 14 26
M  V30 28 1 15 27
M  V30 29 1 16 28
M  V30 30 1 17 29
M  V30 END BOND
M  V30 END CTAB
M  END
