
     RDKit          3D

  0  0  0  0  0  0  0  0  0  0999 V3000
M  V30 BEGIN CTAB
M  V30 COUNTS 38 39 0 0 0
M  V30 BEGIN ATOM
M  V30 1 N 6.00992 -0.182937 1.32648 0
M  V30 2 N 4.62052 -0.388162 1.24269 0
M  V30 3 C 3.93304 -0.411833 0.0219909 0
M  V30 4 O 4.59509 -0.241523 -1.03801 0
M  V30 5 C 2.46419 -0.633998 0.0143331 0
M  V30 6 C 1.73071 0.425157 0.785149 0
M  V30 7 C 0.264146 0.464636 0.543113 0
M  V30 8 N -0.172186 -0.11393 -0.684075 0
M  V30 9 C 0.784545 -0.0340435 -1.74925 0
M  V30 10 C 1.99467 -0.846686 -1.37279 0
M  V30 11 S -1.58876 0.72989 -1.21193 0
M  V30 12 O -2.00142 0.242865 -2.58592 0
M  V30 13 O -1.21033 2.1865 -1.3888 0
M  V30 14 C -2.89763 0.592027 -0.077576 0
M  V30 15 C -3.43995 1.72297 0.504859 0
M  V30 16 C -4.48186 1.62668 1.40898 0
M  V30 17 C -4.99335 0.375617 1.73885 0
M  V30 18 C -4.4198 -0.726002 1.1318 0
M  V30 19 C -3.38933 -0.645953 0.236174 0
M  V30 20 N -2.83372 -1.8083 -0.360624 0
M  V30 21 H 6.53085 -1.07287 1.48414 0
M  V30 22 H 6.37209 0.321341 0.483787 0
M  V30 23 H 4.12125 -0.522974 2.13764 0
M  V30 24 H 2.30338 -1.60055 0.578076 0
M  V30 25 H 2.14147 1.40745 0.451175 0
M  V30 26 H 1.96259 0.334615 1.86717 0
M  V30 27 H -0.222922 -0.127254 1.37434 0
M  V30 28 H -0.160733 1.48531 0.644429 0
M  V30 29 H 1.02916 1.00956 -2.01695 0
M  V30 30 H 0.327504 -0.49644 -2.64871 0
M  V30 31 H 2.80099 -0.558766 -2.0787 0
M  V30 32 H 1.75608 -1.90474 -1.61061 0
M  V30 33 H -3.07091 2.71272 0.275236 0
M  V30 34 H -4.91818 2.49655 1.87379 0
M  V30 35 H -5.8116 0.261783 2.44531 0
M  V30 36 H -4.83169 -1.68548 1.40205 0
M  V30 37 H -2.37425 -2.4896 0.264566 0
M  V30 38 H -2.92358 -1.90364 -1.3972 0
M  V30 END ATOM
M  V30 BEGIN BOND
M  V30 1 1 1 2
M  V30 2 1 2 3
M  V30 3 2 3 4
M  V30 4 1 3 5
M  V30 5 1 5 6
M  V30 6 1 6 7
M  V30 7 1 7 8
M  V30 8 1 8 9
M  V30 9 1 9 10
M  V30 10 1 8 11
M  V30 11 2 11 12
M  V30 12 2 11 13
M  V30 13 1 11 14
M  V30 14 2 14 15
M  V30 15 1 15 16
M  V30 16 2 16 17
M  V30 17 1 17 18
M  V30 18 2 18 19
M  V30 19 1 19 20
M  V30 20 1 10 5
M  V30 21 1 19 14
M  V30 22 1 1 21
M  V30 23 1 1 22
M  V30 24 1 2 23
M  V30 25 1 5 24
M  V30 26 1 6 25
M  V30 27 1 6 26
M  V30 28 1 7 27
M  V30 29 1 7 28
M  V30 30 1 9 29
M  V30 31 1 9 30
M  V30 32 1 10 31
M  V30 33 1 10 32
M  V30 34 1 15 33
M  V30 35 1 16 34
M  V30 36 1 17 35
M  V30 37 1 18 36
M  V30 38 1 20 37
M  V30 39 1 20 38
M  V30 END BOND
M  V30 END CTAB
M  END
