
     RDKit          3D

  0  0  0  0  0  0  0  0  0  0999 V3000
M  V30 BEGIN CTAB
M  V30 COUNTS 23 22 0 0 0
M  V30 BEGIN ATOM
M  V30 1 N -2.46369 -0.21224 -0.474563 0
M  V30 2 C -1.44153 0.701338 -0.127127 0
M  V30 3 N -1.7439 1.59233 0.756408 0
M  V30 4 C -0.0817839 0.676564 -0.718254 0
M  V30 5 N 0.616166 -0.534581 -0.434772 0
M  V30 6 S 2.16816 -0.272629 0.25133 0
M  V30 7 O 3.0317 -1.44556 -0.120872 0
M  V30 8 O 2.83092 0.957887 -0.239133 0
M  V30 9 N 2.11834 -0.200276 1.97714 0
M  V30 10 C -0.0735846 -1.44318 0.452759 0
M  V30 11 C -0.29341 0.685869 -2.24436 0
M  V30 12 H -2.56966 -0.548784 -1.44896 0
M  V30 13 H -3.11888 -0.553066 0.252679 0
M  V30 14 H -2.65025 1.68518 1.21526 0
M  V30 15 H 0.494469 1.59251 -0.445086 0
M  V30 16 H 1.92761 0.774257 2.31969 0
M  V30 17 H 3.11289 -0.40468 2.29899 0
M  V30 18 H -0.722413 -2.09642 -0.161391 0
M  V30 19 H -0.6754 -0.973999 1.22342 0
M  V30 20 H 0.672091 -2.15 0.925461 0
M  V30 21 H -1.21524 1.26803 -2.45685 0
M  V30 22 H 0.533868 1.22716 -2.74416 0
M  V30 23 H -0.456479 -0.325708 -2.6136 0
M  V30 END ATOM
M  V30 BEGIN BOND
M  V30 1 1 1 2
M  V30 2 2 2 3 CFG=2
M  V30 3 1 2 4
M  V30 4 1 4 5
M  V30 5 1 5 6
M  V30 6 2 6 7
M  V30 7 2 6 8
M  V30 8 1 6 9
M  V30 9 1 5 10
M  V30 10 1 4 11
M  V30 11 1 1 12
M  V30 12 1 1 13
M  V30 13 1 3 14
M  V30 14 1 4 15
M  V30 15 1 9 16
M  V30 16 1 9 17
M  V30 17 1 10 18
M  V30 18 1 10 19
M  V30 19 1 10 20
M  V30 20 1 11 21
M  V30 21 1 11 22
M  V30 22 1 11 23
M  V30 END BOND
M  V30 END CTAB
M  END
