
     RDKit          3D

  0  0  0  0  0  0  0  0  0  0999 V3000
M  V30 BEGIN CTAB
M  V30 COUNTS 41 43 0 0 0
M  V30 BEGIN ATOM
M  V30 1 N -1.28398 -3.37773 -0.228233 0
M  V30 2 C -1.31674 -2.30271 -1.17074 0
M  V30 3 C -1.94492 -1.11517 -0.496205 0
M  V30 4 N -1.27576 -0.663299 0.655742 0
M  V30 5 C -2.3106 0.169457 1.3806 0
M  V30 6 C -2.87632 1.17127 0.427614 0
M  V30 7 C -1.77132 1.98064 -0.20778 0
M  V30 8 C -0.480372 1.52104 -0.140208 0
M  V30 9 C -0.184901 0.259977 0.544008 0 CFG=2
M  V30 10 C 1.14887 -0.307625 0.385059 0
M  V30 11 C 1.77271 -0.408276 -0.837909 0
M  V30 12 C 3.04417 -0.941745 -0.93066 0
M  V30 13 C 3.7382 -1.39316 0.202121 0
M  V30 14 C 3.11923 -1.29621 1.44202 0
M  V30 15 C 1.86696 -0.769441 1.51173 0
M  V30 16 N 5.03934 -1.94165 0.094177 0
M  V30 17 C 0.479017 2.3177 -0.719887 0
M  V30 18 C 0.133665 3.5235 -1.33895 0
M  V30 19 C -1.16553 3.95747 -1.3923 0
M  V30 20 C -2.12634 3.15944 -0.810542 0
M  V30 21 H -2.18027 -3.73579 0.033875 0
M  V30 22 H -0.490661 -3.48391 0.338192 0
M  V30 23 H -0.420688 -2.14598 -1.73382 0
M  V30 24 H -2.06904 -2.70371 -1.95416 0
M  V30 25 H -3.01404 -1.43203 -0.255086 0
M  V30 26 H -2.11437 -0.323804 -1.27118 0
M  V30 27 H -1.84065 0.654798 2.23124 0
M  V30 28 H -3.10561 -0.522891 1.68696 0
M  V30 29 H -3.52453 1.86737 1.01755 0
M  V30 30 H -3.51041 0.751534 -0.345788 0
M  V30 31 H -0.148186 0.654224 1.67739 0
M  V30 32 H 1.30346 -0.0913216 -1.76445 0
M  V30 33 H 3.49603 -1.00974 -1.88805 0
M  V30 34 H 3.67027 -1.65021 2.302 0
M  V30 35 H 1.41434 -0.701994 2.4955 0
M  V30 36 H 5.57193 -2.17539 0.95377 0
M  V30 37 H 5.49955 -2.12756 -0.810503 0
M  V30 38 H 1.53408 2.09177 -0.725975 0
M  V30 39 H 0.903707 4.12632 -1.79298 0
M  V30 40 H -1.43126 4.91497 -1.88523 0
M  V30 41 H -3.14904 3.49983 -0.85204 0
M  V30 END ATOM
M  V30 BEGIN BOND
M  V30 1 1 1 2
M  V30 2 1 2 3
M  V30 3 1 3 4
M  V30 4 1 4 5
M  V30 5 1 5 6
M  V30 6 1 6 7
M  V30 7 2 7 8
M  V30 8 1 8 9
M  V30 9 1 9 10
M  V30 10 2 10 11
M  V30 11 1 11 12
M  V30 12 2 12 13
M  V30 13 1 13 14
M  V30 14 2 14 15
M  V30 15 1 13 16
M  V30 16 1 8 17
M  V30 17 2 17 18
M  V30 18 1 18 19
M  V30 19 2 19 20
M  V30 20 1 9 4
M  V30 21 1 15 10
M  V30 22 1 20 7
M  V30 23 1 1 21
M  V30 24 1 1 22
M  V30 25 1 2 23
M  V30 26 1 2 24
M  V30 27 1 3 25
M  V30 28 1 3 26
M  V30 29 1 5 27
M  V30 30 1 5 28
M  V30 31 1 6 29
M  V30 32 1 6 30
M  V30 33 1 9 31 CFG=1
M  V30 34 1 11 32
M  V30 35 1 12 33
M  V30 36 1 14 34
M  V30 37 1 15 35
M  V30 38 1 16 36
M  V30 39 1 16 37
M  V30 40 1 17 38
M  V30 41 1 18 39
M  V30 42 1 19 40
M  V30 43 1 20 41
M  V30 END BOND
M  V30 END CTAB
M  END
