
     RDKit          3D

  0  0  0  0  0  0  0  0  0  0999 V3000
M  V30 BEGIN CTAB
M  V30 COUNTS 16 16 0 0 0
M  V30 BEGIN ATOM
M  V30 1 N -2.2482 -0.14914 0.127444 0
M  V30 2 C -0.83711 -0.306829 0.0630004 0
M  V30 3 C -0.0742505 0.833895 -0.0510192 0
M  V30 4 N -0.721092 2.09207 -0.0980796 0
M  V30 5 C 1.31374 0.6987 -0.11569 0
M  V30 6 Br 2.33743 2.2961 -0.27301 0
M  V30 7 C 1.90364 -0.551933 -0.0661102 0
M  V30 8 Br 3.80147 -0.691385 -0.157464 0
M  V30 9 C 1.15024 -1.70203 0.0480118 0
M  V30 10 Br 1.96099 -3.43621 0.117139 0
M  V30 11 C -0.221772 -1.55133 0.110837 0
M  V30 12 H -2.82546 0.173429 -0.691291 0
M  V30 13 H -2.78909 -0.34695 0.997886 0
M  V30 14 H -1.39373 2.29754 -0.858236 0
M  V30 15 H -0.497025 2.78277 0.644693 0
M  V30 16 H -0.85979 -2.4387 0.201888 0
M  V30 END ATOM
M  V30 BEGIN BOND
M  V30 1 1 1 2
M  V30 2 2 2 3
M  V30 3 1 3 4
M  V30 4 1 3 5
M  V30 5 1 5 6
M  V30 6 2 5 7
M  V30 7 1 7 8
M  V30 8 1 7 9
M  V30 9 1 9 10
M  V30 10 2 9 11
M  V30 11 1 11 2
M  V30 12 1 1 12
M  V30 13 1 1 13
M  V30 14 1 4 14
M  V30 15 1 4 15
M  V30 16 1 11 16
M  V30 END BOND
M  V30 END CTAB
M  END
