
     RDKit          3D

  0  0  0  0  0  0  0  0  0  0999 V3000
M  V30 BEGIN CTAB
M  V30 COUNTS 22 22 0 0 0
M  V30 BEGIN ATOM
M  V30 1 N -1.37774 -1.29368 -1.14214 0
M  V30 2 C -1.09528 -0.703801 0.20554 0
M  V30 3 C 0.310212 -0.279643 0.212873 0
M  V30 4 C 0.736434 0.953334 -0.291817 0
M  V30 5 C 2.0712 1.28978 -0.364086 0
M  V30 6 F 2.42043 2.47891 -0.897058 0
M  V30 7 C 3.04477 0.437576 0.0449275 0
M  V30 8 C 2.67404 -0.781126 0.548772 0
M  V30 9 C 1.32903 -1.10468 0.618028 0
M  V30 10 Br 0.830661 -2.80648 1.34042 0
M  V30 11 C -2.12159 0.335841 0.473791 0
M  V30 12 N -2.28621 1.44866 -0.332461 0
M  V30 13 H -2.14179 -1.97115 -1.04135 0
M  V30 14 H -0.490528 -1.64664 -1.54511 0
M  V30 15 H -1.22677 -1.54684 0.88623 0
M  V30 16 H 0.0262114 1.70231 -0.648015 0
M  V30 17 H 4.09014 0.713093 -0.0426386 0
M  V30 18 H 3.46051 -1.46162 0.886184 0
M  V30 19 H -3.10931 -0.222395 0.555319 0
M  V30 20 H -1.9235 0.696209 1.53758 0
M  V30 21 H -2.46787 2.30349 0.219134 0
M  V30 22 H -2.75305 1.45886 -1.22413 0
M  V30 END ATOM
M  V30 BEGIN BOND
M  V30 1 1 1 2
M  V30 2 1 2 3
M  V30 3 2 3 4
M  V30 4 1 4 5
M  V30 5 1 5 6
M  V30 6 2 5 7
M  V30 7 1 7 8
M  V30 8 2 8 9
M  V30 9 1 9 10
M  V30 10 1 2 11
M  V30 11 1 11 12
M  V30 12 1 9 3
M  V30 13 1 1 13
M  V30 14 1 1 14
M  V30 15 1 2 15
M  V30 16 1 4 16
M  V30 17 1 7 17
M  V30 18 1 8 18
M  V30 19 1 11 19
M  V30 20 1 11 20
M  V30 21 1 12 21
M  V30 22 1 12 22
M  V30 END BOND
M  V30 END CTAB
M  END
