
     RDKit          3D

  0  0  0  0  0  0  0  0  0  0999 V3000
M  V30 BEGIN CTAB
M  V30 COUNTS 48 50 0 0 0
M  V30 BEGIN ATOM
M  V30 1 N 5.93132 1.03835 0.0696397 0
M  V30 2 C 5.09514 0.367968 1.01403 0
M  V30 3 C 5.36745 -1.11307 1.03864 0
M  V30 4 C 4.81588 -1.8193 -0.171478 0
M  V30 5 C 3.33952 -1.59215 -0.228407 0
M  V30 6 C 3.04089 -0.114621 -0.346072 0
M  V30 7 C 3.64811 0.688667 0.771477 0
M  V30 8 N 1.60164 0.0382721 -0.2658 0
M  V30 9 C 0.820055 0.559408 -1.31256 0
M  V30 10 O 1.39886 0.914737 -2.38217 0
M  V30 11 N -0.586741 0.685847 -1.17687 0
M  V30 12 C -1.36903 0.31521 -0.00408389 0
M  V30 13 C -2.73522 0.108153 -0.607181 0 CFG=2
M  V30 14 C -2.79787 1.30338 -1.55366 0 CFG=1
M  V30 15 C -1.45307 1.21262 -2.21041 0
M  V30 16 N -3.90266 1.24616 -2.45182 0
M  V30 17 C -3.82374 0.158066 0.383644 0
M  V30 18 C -4.19201 1.10807 1.27838 0
M  V30 19 N -5.2768 0.61866 1.94252 0
M  V30 20 N -5.59055 -0.56798 1.50795 0
M  V30 21 C -4.72013 -0.88724 0.548153 0
M  V30 22 C -6.68183 -1.43199 1.95316 0
M  V30 23 H 6.81744 0.636051 -0.115849 0
M  V30 24 H 5.41083 1.51884 -0.619273 0
M  V30 25 H 5.37078 0.772277 2.01121 0
M  V30 26 H 5.00504 -1.6138 1.93955 0
M  V30 27 H 6.47969 -1.24647 1.00783 0
M  V30 28 H 4.97955 -2.91204 -0.00864288 0
M  V30 29 H 5.30626 -1.51291 -1.11883 0
M  V30 30 H 2.85288 -1.99233 0.672247 0
M  V30 31 H 2.91193 -2.07007 -1.14315 0
M  V30 32 H 3.36649 0.247622 -1.35221 0
M  V30 33 H 3.59608 1.76379 0.469574 0
M  V30 34 H 3.02581 0.588964 1.68176 0
M  V30 35 H 1.13131 -0.255269 0.615283 0
M  V30 36 H -0.973619 -0.550345 0.524914 0
M  V30 37 H -1.41036 1.24552 0.63011 0
M  V30 38 H -2.71427 -0.826126 -1.18561 0
M  V30 39 H -2.79621 2.21708 -0.912421 0
M  V30 40 H -1.08802 2.16946 -2.6219 0
M  V30 41 H -1.53564 0.457441 -3.0409 0
M  V30 42 H -3.69946 1.57719 -3.42074 0
M  V30 43 H -4.6905 1.80927 -2.00971 0
M  V30 44 H -3.69456 2.05915 1.40956 0
M  V30 45 H -4.737 -1.8385 -0.00735311 0
M  V30 46 H -7.60327 -0.87077 2.1006 0
M  V30 47 H -6.35609 -2.00308 2.85778 0
M  V30 48 H -6.88427 -2.20816 1.17629 0
M  V30 END ATOM
M  V30 BEGIN BOND
M  V30 1 1 1 2
M  V30 2 1 2 3
M  V30 3 1 3 4
M  V30 4 1 4 5
M  V30 5 1 5 6
M  V30 6 1 6 7
M  V30 7 1 6 8
M  V30 8 1 8 9
M  V30 9 2 9 10
M  V30 10 1 9 11
M  V30 11 1 11 12
M  V30 12 1 12 13
M  V30 13 1 13 14
M  V30 14 1 14 15
M  V30 15 1 14 16
M  V30 16 1 13 17
M  V30 17 1 17 18
M  V30 18 2 18 19
M  V30 19 1 19 20
M  V30 20 1 20 21
M  V30 21 1 20 22
M  V30 22 1 7 2
M  V30 23 1 15 11
M  V30 24 2 21 17
M  V30 25 1 1 23
M  V30 26 1 1 24
M  V30 27 1 2 25
M  V30 28 1 3 26
M  V30 29 1 3 27
M  V30 30 1 4 28
M  V30 31 1 4 29
M  V30 32 1 5 30
M  V30 33 1 5 31
M  V30 34 1 6 32
M  V30 35 1 7 33
M  V30 36 1 7 34
M  V30 37 1 8 35
M  V30 38 1 12 36
M  V30 39 1 12 37
M  V30 40 1 13 38 CFG=3
M  V30 41 1 14 39 CFG=1
M  V30 42 1 15 40
M  V30 43 1 15 41
M  V30 44 1 16 42
M  V30 45 1 16 43
M  V30 46 1 18 44
M  V30 47 1 21 45
M  V30 48 1 22 46
M  V30 49 1 22 47
M  V30 50 1 22 48
M  V30 END BOND
M  V30 END CTAB
M  END
