
     RDKit          3D

  0  0  0  0  0  0  0  0  0  0999 V3000
M  V30 BEGIN CTAB
M  V30 COUNTS 35 36 0 0 0
M  V30 BEGIN ATOM
M  V30 1 O 1.21159 0.571362 1.41412 0
M  V30 2 C 0.859628 -0.619228 1.55559 0
M  V30 3 C 1.92565 -1.50691 2.17039 0
M  V30 4 S 3.39032 -0.565214 2.51752 0
M  V30 5 C 4.19657 0.0269039 1.02512 0
M  V30 6 N 3.84268 -0.152636 -0.244949 0
M  V30 7 N 4.54031 0.346181 -1.17082 0
M  V30 8 C 5.629 1.05134 -0.878568 0
M  V30 9 S 5.61079 0.966978 0.834148 0
M  V30 10 N 6.53381 1.68683 -1.78384 0
M  V30 11 C 2.13772 -2.63021 1.18605 0
M  V30 12 N -0.370567 -1.19169 1.21649 0
M  V30 13 C -1.4654 -0.519546 0.63832 0
M  V30 14 C -2.66971 -1.23218 0.463829 0
M  V30 15 C -3.76346 -0.621986 -0.0999524 0
M  V30 16 C -3.75913 0.686621 -0.520278 0
M  V30 17 C -2.6001 1.39204 -0.358858 0
M  V30 18 C -1.47511 0.770661 0.218898 0
M  V30 19 S -5.21695 1.34056 -1.21894 0
M  V30 20 O -6.00177 0.264562 -1.9341 0
M  V30 21 O -4.92421 2.41088 -2.23188 0
M  V30 22 N -6.22888 2.04195 -0.00913842 0
M  V30 23 H 1.51869 -1.93228 3.10134 0
M  V30 24 H 6.82459 2.68171 -1.71076 0
M  V30 25 H 6.9178 1.11219 -2.55655 0
M  V30 26 H 2.17322 -2.16787 0.172834 0
M  V30 27 H 3.06762 -3.19692 1.39131 0
M  V30 28 H 1.25942 -3.29318 1.24422 0
M  V30 29 H -0.469916 -2.22848 1.41925 0
M  V30 30 H -2.69215 -2.27282 0.791883 0
M  V30 31 H -4.68612 -1.21191 -0.219237 0
M  V30 32 H -2.5675 2.42372 -0.68117 0
M  V30 33 H -0.60326 1.39151 0.307023 0
M  V30 34 H -6.3942 1.32886 0.730231 0
M  V30 35 H -5.75097 2.84817 0.445984 0
M  V30 END ATOM
M  V30 BEGIN BOND
M  V30 1 2 1 2
M  V30 2 1 2 3
M  V30 3 1 3 4
M  V30 4 1 4 5
M  V30 5 2 5 6
M  V30 6 1 6 7
M  V30 7 2 7 8
M  V30 8 1 8 9
M  V30 9 1 8 10
M  V30 10 1 3 11
M  V30 11 1 2 12
M  V30 12 1 12 13
M  V30 13 2 13 14
M  V30 14 1 14 15
M  V30 15 2 15 16
M  V30 16 1 16 17
M  V30 17 2 17 18
M  V30 18 1 16 19
M  V30 19 2 19 20
M  V30 20 2 19 21
M  V30 21 1 19 22
M  V30 22 1 9 5
M  V30 23 1 18 13
M  V30 24 1 3 23
M  V30 25 1 10 24
M  V30 26 1 10 25
M  V30 27 1 11 26
M  V30 28 1 11 27
M  V30 29 1 11 28
M  V30 30 1 12 29
M  V30 31 1 14 30
M  V30 32 1 15 31
M  V30 33 1 17 32
M  V30 34 1 18 33
M  V30 35 1 22 34
M  V30 36 1 22 35
M  V30 END BOND
M  V30 END CTAB
M  END
