
     RDKit          3D

  0  0  0  0  0  0  0  0  0  0999 V3000
M  V30 BEGIN CTAB
M  V30 COUNTS 51 53 0 0 0
M  V30 BEGIN ATOM
M  V30 1 O 1.32439 1.91573 0.514895 0
M  V30 2 C 0.849225 0.879633 0.543912 0
M  V30 3 N 1.60938 -0.290054 0.454541 0
M  V30 4 C 3.00753 -0.401137 0.305617 0
M  V30 5 C 3.89761 0.630369 0.205606 0
M  V30 6 C 5.26886 0.383394 0.0566823 0
M  V30 7 C 5.74097 -0.902262 0.00894012 0
M  V30 8 C 4.87564 -1.95629 0.106363 0
M  V30 9 C 3.53442 -1.70166 0.251951 0
M  V30 10 C 2.64074 -2.87563 0.354132 0
M  V30 11 S 6.37423 1.71383 -0.0694252 0
M  V30 12 O 5.60091 2.90089 -0.585467 0
M  V30 13 O 7.51415 1.43586 -0.997763 0
M  V30 14 N 6.91183 2.12699 1.52171 0
M  V30 15 C -0.640822 0.852665 0.688164 0
M  V30 16 N -1.12712 -0.485729 0.623217 0
M  V30 17 C -2.52218 -0.597855 1.02379 0
M  V30 18 C -3.3761 -0.663133 -0.16033 0 CFG=2
M  V30 19 C -2.3987 -0.363029 -1.30784 0 CFG=1
M  V30 20 C -1.14879 -0.981659 -0.755087 0
M  V30 21 N -2.84078 -0.975405 -2.53177 0
M  V30 22 C -4.49984 0.244491 -0.264418 0
M  V30 23 C -4.4654 1.59715 -0.014392 0
M  V30 24 C -5.56371 2.4343 -0.125697 0
M  V30 25 C -6.77695 1.89678 -0.510003 0
M  V30 26 C -6.86198 0.540881 -0.772768 0
M  V30 27 C -5.73353 -0.255307 -0.647044 0
M  V30 28 H 1.06316 -1.19592 0.533019 0
M  V30 29 H 3.55183 1.65008 0.240254 0
M  V30 30 H 6.79827 -1.1171 -0.104807 0
M  V30 31 H 5.27557 -2.96894 0.0660039 0
M  V30 32 H 2.08976 -2.80153 1.31394 0
M  V30 33 H 1.89929 -2.8499 -0.467875 0
M  V30 34 H 3.19073 -3.82606 0.384492 0
M  V30 35 H 7.2033 1.29668 2.06903 0
M  V30 36 H 7.70307 2.81521 1.47459 0
M  V30 37 H -1.07507 1.56409 -0.0234502 0
M  V30 38 H -0.822622 1.21393 1.73856 0
M  V30 39 H -2.58387 -1.59187 1.56306 0
M  V30 40 H -2.78991 0.149315 1.79296 0
M  V30 41 H -3.73591 -1.71309 -0.385131 0
M  V30 42 H -2.25817 0.723904 -1.43438 0
M  V30 43 H -1.29662 -2.07517 -0.694518 0
M  V30 44 H -0.244954 -0.690456 -1.33066 0
M  V30 45 H -2.61237 -2.0009 -2.56779 0
M  V30 46 H -2.24909 -0.551161 -3.30297 0
M  V30 47 H -3.523 2.01482 0.284254 0
M  V30 48 H -5.48628 3.51138 0.084593 0
M  V30 49 H -7.63562 2.5446 -0.598856 0
M  V30 50 H -7.81179 0.112025 -1.07533 0
M  V30 51 H -5.84368 -1.31776 -0.863187 0
M  V30 END ATOM
M  V30 BEGIN BOND
M  V30 1 2 1 2
M  V30 2 1 2 3
M  V30 3 1 3 4
M  V30 4 2 4 5
M  V30 5 1 5 6
M  V30 6 2 6 7
M  V30 7 1 7 8
M  V30 8 2 8 9
M  V30 9 1 9 10
M  V30 10 1 6 11
M  V30 11 2 11 12
M  V30 12 2 11 13
M  V30 13 1 11 14
M  V30 14 1 2 15
M  V30 15 1 15 16
M  V30 16 1 16 17
M  V30 17 1 17 18
M  V30 18 1 18 19
M  V30 19 1 19 20
M  V30 20 1 19 21
M  V30 21 1 18 22
M  V30 22 2 22 23
M  V30 23 1 23 24
M  V30 24 2 24 25
M  V30 25 1 25 26
M  V30 26 2 26 27
M  V30 27 1 9 4
M  V30 28 1 20 16
M  V30 29 1 27 22
M  V30 30 1 3 28
M  V30 31 1 5 29
M  V30 32 1 7 30
M  V30 33 1 8 31
M  V30 34 1 10 32
M  V30 35 1 10 33
M  V30 36 1 10 34
M  V30 37 1 14 35
M  V30 38 1 14 36
M  V30 39 1 15 37
M  V30 40 1 15 38
M  V30 41 1 17 39
M  V30 42 1 17 40
M  V30 43 1 18 41 CFG=3
M  V30 44 1 19 42 CFG=3
M  V30 45 1 20 43
M  V30 46 1 20 44
M  V30 47 1 21 45
M  V30 48 1 21 46
M  V30 49 1 23 47
M  V30 50 1 24 48
M  V30 51 1 25 49
M  V30 52 1 26 50
M  V30 53 1 27 51
M  V30 END BOND
M  V30 END CTAB
M  END
