
     RDKit          3D

  0  0  0  0  0  0  0  0  0  0999 V3000
M  V30 BEGIN CTAB
M  V30 COUNTS 16 16 0 0 0
M  V30 BEGIN ATOM
M  V30 1 N 1.62413 0.054516 1.06887 0
M  V30 2 C 1.02336 0.0892312 -0.22068 0 CFG=2
M  V30 3 C -0.0959255 1.0878 -0.392084 0
M  V30 4 C -1.04881 -0.0865595 -0.521785 0 CFG=1
M  V30 5 C 0.113597 -1.06227 -0.559489 0
M  V30 6 N -1.88228 -0.304792 0.634776 0
M  V30 7 H 2.32613 0.770368 1.17134 0
M  V30 8 H 1.98613 -0.860156 1.28033 0
M  V30 9 H 1.80076 0.200553 -0.993825 0
M  V30 10 H -0.0437631 1.71203 -1.29748 0
M  V30 11 H -0.346816 1.6582 0.529078 0
M  V30 12 H -1.66283 -0.0836907 -1.44931 0
M  V30 13 H 0.255561 -1.45918 -1.59696 0
M  V30 14 H 0.0325808 -1.85657 0.201018 0
M  V30 15 H -1.36147 -0.161321 1.5199 0
M  V30 16 H -2.72035 0.301835 0.62631 0
M  V30 END ATOM
M  V30 BEGIN BOND
M  V30 1 1 1 2
M  V30 2 1 2 3
M  V30 3 1 3 4
M  V30 4 1 4 5
M  V30 5 1 4 6
M  V30 6 1 5 2
M  V30 7 1 1 7
M  V30 8 1 1 8
M  V30 9 1 2 9 CFG=3
M  V30 10 1 3 10
M  V30 11 1 3 11
M  V30 12 1 4 12 CFG=3
M  V30 13 1 5 13
M  V30 14 1 5 14
M  V30 15 1 6 15
M  V30 16 1 6 16
M  V30 END BOND
M  V30 END CTAB
M  END
