
     RDKit          3D

  0  0  0  0  0  0  0  0  0  0999 V3000
M  V30 BEGIN CTAB
M  V30 COUNTS 27 27 0 0 0
M  V30 BEGIN ATOM
M  V30 1 C -2.53634 -1.51889 -0.00722234 0
M  V30 2 C -2.05877 -0.278297 0.721145 0
M  V30 3 N -0.987524 0.38405 0.0137291 0
M  V30 4 S -1.39786 1.59395 -1.14339 0
M  V30 5 O -2.77684 1.35132 -1.71802 0
M  V30 6 O -0.448655 1.60322 -2.30237 0
M  V30 7 N -1.47728 3.16682 -0.385152 0
M  V30 8 C 0.378179 0.0713828 0.240945 0
M  V30 9 C 1.07839 0.760307 1.20836 0
M  V30 10 C 2.40765 0.514277 1.488 0
M  V30 11 C 3.03229 -0.463298 0.755776 0
M  V30 12 C 2.38183 -1.19634 -0.23616 0
M  V30 13 C 1.06432 -0.899545 -0.460282 0
M  V30 14 N 3.09606 -2.19082 -0.949881 0
M  V30 15 H -1.8863 -2.38369 0.137735 0
M  V30 16 H -2.68553 -1.23079 -1.06141 0
M  V30 17 H -3.54717 -1.74987 0.404036 0
M  V30 18 H -1.7709 -0.496414 1.76826 0
M  V30 19 H -2.92636 0.412341 0.779056 0
M  V30 20 H -1.37815 3.888 -1.12936 0
M  V30 21 H -2.44354 3.28191 0.037568 0
M  V30 22 H 0.548874 1.52369 1.76364 0
M  V30 23 H 2.91176 1.07576 2.25013 0
M  V30 24 H 4.07773 -0.651495 0.981004 0
M  V30 25 H 0.545915 -1.44965 -1.21662 0
M  V30 26 H 4.12337 -2.0678 -1.09232 0
M  V30 27 H 2.67485 -3.05014 -1.35185 0
M  V30 END ATOM
M  V30 BEGIN BOND
M  V30 1 1 1 2
M  V30 2 1 2 3
M  V30 3 1 3 4
M  V30 4 2 4 5
M  V30 5 2 4 6
M  V30 6 1 4 7
M  V30 7 1 3 8
M  V30 8 2 8 9
M  V30 9 1 9 10
M  V30 10 2 10 11
M  V30 11 1 11 12
M  V30 12 2 12 13
M  V30 13 1 12 14
M  V30 14 1 13 8
M  V30 15 1 1 15
M  V30 16 1 1 16
M  V30 17 1 1 17
M  V30 18 1 2 18
M  V30 19 1 2 19
M  V30 20 1 7 20
M  V30 21 1 7 21
M  V30 22 1 9 22
M  V30 23 1 10 23
M  V30 24 1 11 24
M  V30 25 1 13 25
M  V30 26 1 14 26
M  V30 27 1 14 27
M  V30 END BOND
M  V30 END CTAB
M  END
