
     RDKit          3D

  0  0  0  0  0  0  0  0  0  0999 V3000
M  V30 BEGIN CTAB
M  V30 COUNTS 23 24 0 0 0
M  V30 BEGIN ATOM
M  V30 1 N 4.18073 0.612748 0.0263798 0
M  V30 2 C 2.77621 0.314927 0.0436827 0
M  V30 3 C 2.3143 -0.748524 -0.70147 0
M  V30 4 C 0.974909 -1.03293 -0.685223 0
M  V30 5 C 0.0467379 -0.303842 0.0463101 0
M  V30 6 C 0.532753 0.749442 0.779281 0
M  V30 7 C 1.88256 1.05864 0.780468 0
M  V30 8 N -1.34728 -0.654155 0.0209736 0
M  V30 9 N -1.82259 -1.88239 0.0811495 0
M  V30 10 C -3.15434 -1.89355 0.0368754 0
M  V30 11 C -3.57974 -0.584471 -0.0587232 0
M  V30 12 C -2.40865 0.168409 -0.0659115 0
M  V30 13 N -2.35021 1.5838 -0.15179 0
M  V30 14 H 4.80266 -0.110854 0.479644 0
M  V30 15 H 4.52364 1.48067 -0.406282 0
M  V30 16 H 2.99883 -1.36367 -1.30121 0
M  V30 17 H 0.59136 -1.86155 -1.26164 0
M  V30 18 H -0.14281 1.3454 1.36251 0
M  V30 19 H 2.29246 1.88434 1.34992 0
M  V30 20 H -3.84055 -2.72941 0.0655661 0
M  V30 21 H -4.60344 -0.206928 -0.116707 0
M  V30 22 H -2.5222 2.13125 0.733671 0
M  V30 23 H -2.14533 2.04265 -1.05747 0
M  V30 END ATOM
M  V30 BEGIN BOND
M  V30 1 1 1 2
M  V30 2 2 2 3
M  V30 3 1 3 4
M  V30 4 2 4 5
M  V30 5 1 5 6
M  V30 6 2 6 7
M  V30 7 1 5 8
M  V30 8 1 8 9
M  V30 9 2 9 10
M  V30 10 1 10 11
M  V30 11 2 11 12
M  V30 12 1 12 13
M  V30 13 1 7 2
M  V30 14 1 12 8
M  V30 15 1 1 14
M  V30 16 1 1 15
M  V30 17 1 3 16
M  V30 18 1 4 17
M  V30 19 1 6 18
M  V30 20 1 7 19
M  V30 21 1 10 20
M  V30 22 1 11 21
M  V30 23 1 13 22
M  V30 24 1 13 23
M  V30 END BOND
M  V30 END CTAB
M  END
