
     RDKit          3D

  0  0  0  0  0  0  0  0  0  0999 V3000
M  V30 BEGIN CTAB
M  V30 COUNTS 28 28 0 0 0
M  V30 BEGIN ATOM
M  V30 1 N -4.27764 0.00285208 -0.211445 0
M  V30 2 C -3.58333 -0.914381 0.64993 0
M  V30 3 C -2.10399 -0.91797 0.337384 0
M  V30 4 N -1.58274 0.395921 0.534702 0
M  V30 5 C -0.19931 0.720669 0.318779 0
M  V30 6 C 0.287011 1.99505 0.514219 0
M  V30 7 C 1.61549 2.32053 0.309963 0
M  V30 8 C 2.51608 1.35867 -0.105104 0
M  V30 9 C 2.04629 0.0772978 -0.30568 0
M  V30 10 C 0.709925 -0.230851 -0.0956904 0
M  V30 11 O 2.96772 -0.873802 -0.72265 0
M  V30 12 C 2.58458 -2.21576 -0.955778 0
M  V30 13 N 3.89546 1.65446 -0.327093 0
M  V30 14 H -4.13751 0.99638 0.0118461 0
M  V30 15 H -5.29002 -0.20503 -0.153077 0
M  V30 16 H -3.96717 -1.93979 0.416223 0
M  V30 17 H -3.77059 -0.737324 1.71744 0
M  V30 18 H -1.60336 -1.67629 0.975368 0
M  V30 19 H -2.01692 -1.2306 -0.74045 0
M  V30 20 H -2.20061 1.17664 0.84766 0
M  V30 21 H -0.431809 2.76083 0.845015 0
M  V30 22 H 1.99603 3.32141 0.463766 0
M  V30 23 H 0.360488 -1.24938 -0.260042 0
M  V30 24 H 2.42976 -2.79426 -0.0337637 0
M  V30 25 H 1.62352 -2.20427 -1.54379 0
M  V30 26 H 3.33127 -2.71973 -1.63528 0
M  V30 27 H 4.39779 2.42368 0.15982 0
M  V30 28 H 4.40356 1.06035 -1.01228 0
M  V30 END ATOM
M  V30 BEGIN BOND
M  V30 1 1 1 2
M  V30 2 1 2 3
M  V30 3 1 3 4
M  V30 4 1 4 5
M  V30 5 2 5 6
M  V30 6 1 6 7
M  V30 7 2 7 8
M  V30 8 1 8 9
M  V30 9 2 9 10
M  V30 10 1 9 11
M  V30 11 1 11 12
M  V30 12 1 8 13
M  V30 13 1 10 5
M  V30 14 1 1 14
M  V30 15 1 1 15
M  V30 16 1 2 16
M  V30 17 1 2 17
M  V30 18 1 3 18
M  V30 19 1 3 19
M  V30 20 1 4 20
M  V30 21 1 6 21
M  V30 22 1 7 22
M  V30 23 1 10 23
M  V30 24 1 12 24
M  V30 25 1 12 25
M  V30 26 1 12 26
M  V30 27 1 13 27
M  V30 28 1 13 28
M  V30 END BOND
M  V30 END CTAB
M  END
