
     RDKit          3D

  0  0  0  0  0  0  0  0  0  0999 V3000
M  V30 BEGIN CTAB
M  V30 COUNTS 24 25 0 0 0
M  V30 BEGIN ATOM
M  V30 1 N 0.944702 -0.504647 2.19532 0
M  V30 2 C 1.16787 -0.262017 0.817637 0
M  V30 3 C 2.47171 -0.0438572 0.362816 0
M  V30 4 N 3.57137 -0.0609923 1.25265 0
M  V30 5 C 2.59262 0.183591 -0.991277 0
M  V30 6 C 1.53001 0.201282 -1.85825 0
M  V30 7 N 0.292675 -0.0184912 -1.34594 0
M  V30 8 C 0.0904109 -0.247484 -0.039871 0
M  V30 9 N -1.20512 -0.477252 0.494243 0
M  V30 10 C -2.40464 -0.484515 -0.311822 0
M  V30 11 C -2.84289 0.675532 -1.09009 0
M  V30 12 C -3.50884 0.447835 0.225945 0
M  V30 13 H 0.416804 0.228015 2.75572 0
M  V30 14 H 1.2663 -1.3611 2.70095 0
M  V30 15 H 3.91417 -0.939585 1.72319 0
M  V30 16 H 4.04741 0.85508 1.4336 0
M  V30 17 H 3.58142 0.358253 -1.39459 0
M  V30 18 H 1.67178 0.386189 -2.92815 0
M  V30 19 H -1.34269 -0.653828 1.5141 0
M  V30 20 H -2.72296 -1.48992 -0.625904 0
M  V30 21 H -3.46528 0.464677 -1.98644 0
M  V30 22 H -2.27241 1.61547 -1.17443 0
M  V30 23 H -4.53033 0.00973769 0.266174 0
M  V30 24 H -3.2641 1.11803 1.05206 0
M  V30 END ATOM
M  V30 BEGIN BOND
M  V30 1 1 1 2
M  V30 2 2 2 3
M  V30 3 1 3 4
M  V30 4 1 3 5
M  V30 5 2 5 6
M  V30 6 1 6 7
M  V30 7 2 7 8
M  V30 8 1 8 9
M  V30 9 1 9 10
M  V30 10 1 10 11
M  V30 11 1 11 12
M  V30 12 1 8 2
M  V30 13 1 12 10
M  V30 14 1 1 13
M  V30 15 1 1 14
M  V30 16 1 4 15
M  V30 17 1 4 16
M  V30 18 1 5 17
M  V30 19 1 6 18
M  V30 20 1 9 19
M  V30 21 1 10 20
M  V30 22 1 11 21
M  V30 23 1 11 22
M  V30 24 1 12 23
M  V30 25 1 12 24
M  V30 END BOND
M  V30 END CTAB
M  END
