
     RDKit          3D

  0  0  0  0  0  0  0  0  0  0999 V3000
M  V30 BEGIN CTAB
M  V30 COUNTS 27 27 0 0 0
M  V30 BEGIN ATOM
M  V30 1 C 2.52155 -1.47617 0.104538 0
M  V30 2 C 1.36764 -0.578019 -0.23033 0
M  V30 3 C 0.147958 -0.868345 0.516554 0
M  V30 4 C -0.977486 0.0460509 0.307874 0
M  V30 5 C -0.822244 1.38745 0.497925 0
M  V30 6 N -1.85514 2.25136 0.351898 0
M  V30 7 C -3.08349 1.8278 0.0157143 0
M  V30 8 C -3.25678 0.472162 -0.17064 0
M  V30 9 C -2.23577 -0.427881 -0.0328367 0
M  V30 10 N -2.4842 -1.82442 -0.231618 0
M  V30 11 F 0.38699 -0.831985 1.92605 0
M  V30 12 C 1.80519 0.711622 -0.746775 0
M  V30 13 N 2.66186 1.52064 0.0860423 0
M  V30 14 H 3.32671 -1.39302 -0.69041 0
M  V30 15 H 2.26721 -2.50169 0.27629 0
M  V30 16 H 3.02959 -1.00768 1.01339 0
M  V30 17 H 1.09379 -1.12223 -1.34203 0
M  V30 18 H -0.143495 -1.92639 0.339863 0
M  V30 19 H 0.11436 1.84849 0.864457 0
M  V30 20 H -3.88009 2.5763 -0.111826 0
M  V30 21 H -4.22687 0.141689 -0.44498 0
M  V30 22 H -2.29188 -2.33571 -1.11294 0
M  V30 23 H -2.90516 -2.33584 0.608439 0
M  V30 24 H 2.4729 0.494485 -1.67618 0
M  V30 25 H 0.990403 1.30186 -1.25162 0
M  V30 26 H 2.32694 2.5011 0.146292 0
M  V30 27 H 3.64951 1.54838 -0.215736 0
M  V30 END ATOM
M  V30 BEGIN BOND
M  V30 1 1 1 2
M  V30 2 1 2 3
M  V30 3 1 3 4
M  V30 4 2 4 5
M  V30 5 1 5 6
M  V30 6 2 6 7
M  V30 7 1 7 8
M  V30 8 2 8 9
M  V30 9 1 9 10
M  V30 10 1 3 11
M  V30 11 1 2 12
M  V30 12 1 12 13
M  V30 13 1 9 4
M  V30 14 1 1 14
M  V30 15 1 1 15
M  V30 16 1 1 16
M  V30 17 1 2 17
M  V30 18 1 3 18
M  V30 19 1 5 19
M  V30 20 1 7 20
M  V30 21 1 8 21
M  V30 22 1 10 22
M  V30 23 1 10 23
M  V30 24 1 12 24
M  V30 25 1 12 25
M  V30 26 1 13 26
M  V30 27 1 13 27
M  V30 END BOND
M  V30 END CTAB
M  END
