
     RDKit          3D

  0  0  0  0  0  0  0  0  0  0999 V3000
M  V30 BEGIN CTAB
M  V30 COUNTS 33 33 0 0 0
M  V30 BEGIN ATOM
M  V30 1 C -3.34456 -0.400705 0.294459 0
M  V30 2 C -2.50871 0.81847 0.0657677 0
M  V30 3 C -1.04737 0.687417 0.254205 0
M  V30 4 C -0.448402 -0.315737 -0.683132 0
M  V30 5 C 1.02582 -0.429115 -0.498339 0
M  V30 6 C 1.67791 0.367899 0.416892 0
M  V30 7 C 3.04697 0.284074 0.608311 0
M  V30 8 C 3.76069 1.13237 1.58613 0
M  V30 9 C 3.77262 -0.619297 -0.135948 0
M  V30 10 N 3.12842 -1.39734 -1.03097 0
M  V30 11 C 1.78208 -1.32129 -1.22552 0
M  V30 12 N 1.18252 -2.17491 -2.18665 0
M  V30 13 N -1.11022 -1.56575 -0.597555 0
M  V30 14 C -3.08639 1.91495 0.982387 0
M  V30 15 H -4.38934 -0.0634763 0.61884 0
M  V30 16 H -2.94528 -1.08581 1.06945 0
M  V30 17 H -3.55411 -0.949015 -0.646731 0
M  V30 18 H -2.766 1.19153 -0.975548 0
M  V30 19 H -0.59298 1.6767 -0.0199483 0
M  V30 20 H -0.752162 0.500331 1.31263 0
M  V30 21 H -0.619056 0.0800931 -1.72755 0
M  V30 22 H 1.16847 1.09984 1.03441 0
M  V30 23 H 3.23494 1.02285 2.55666 0
M  V30 24 H 4.7836 0.788634 1.72911 0
M  V30 25 H 3.78921 2.18371 1.22866 0
M  V30 26 H 4.86296 -0.70656 -0.00360976 0
M  V30 27 H 0.672208 -1.78303 -3.00222 0
M  V30 28 H 1.23596 -3.20859 -2.10294 0
M  V30 29 H -0.603801 -2.29881 -0.0599926 0
M  V30 30 H -1.52372 -1.91791 -1.48451 0
M  V30 31 H -2.79919 1.7529 2.0239 0
M  V30 32 H -4.19903 1.82413 0.897885 0
M  V30 33 H -2.83408 2.91144 0.584029 0
M  V30 END ATOM
M  V30 BEGIN BOND
M  V30 1 1 1 2
M  V30 2 1 2 3
M  V30 3 1 3 4
M  V30 4 1 4 5
M  V30 5 2 5 6
M  V30 6 1 6 7
M  V30 7 1 7 8
M  V30 8 2 7 9
M  V30 9 1 9 10
M  V30 10 2 10 11
M  V30 11 1 11 12
M  V30 12 1 4 13
M  V30 13 1 2 14
M  V30 14 1 11 5
M  V30 15 1 1 15
M  V30 16 1 1 16
M  V30 17 1 1 17
M  V30 18 1 2 18
M  V30 19 1 3 19
M  V30 20 1 3 20
M  V30 21 1 4 21
M  V30 22 1 6 22
M  V30 23 1 8 23
M  V30 24 1 8 24
M  V30 25 1 8 25
M  V30 26 1 9 26
M  V30 27 1 12 27
M  V30 28 1 12 28
M  V30 29 1 13 29
M  V30 30 1 13 30
M  V30 31 1 14 31
M  V30 32 1 14 32
M  V30 33 1 14 33
M  V30 END BOND
M  V30 END CTAB
M  END
