
     RDKit          3D

  0  0  0  0  0  0  0  0  0  0999 V3000
M  V30 BEGIN CTAB
M  V30 COUNTS 25 25 0 0 0
M  V30 BEGIN ATOM
M  V30 1 C -3.25973 -1.03766 -1.04145 0
M  V30 2 C -2.38437 -1.14203 0.18198 0
M  V30 3 C -1.04216 -0.537638 -0.00636108 0
M  V30 4 N 0.0727169 -1.14398 -0.456443 0
M  V30 5 C 1.10294 -0.263055 -0.488896 0
M  V30 6 C 0.582692 0.918445 -0.0412025 0
M  V30 7 N -0.741353 0.745078 0.256907 0
M  V30 8 N -1.56923 1.76171 0.741628 0
M  V30 9 N 1.2839 2.15451 0.0979508 0
M  V30 10 C 2.5058 -0.556854 -0.909827 0
M  V30 11 C 3.41001 -0.73934 0.281368 0
M  V30 12 H -3.58987 -0.0182591 -1.25218 0
M  V30 13 H -2.74203 -1.47159 -1.90421 0
M  V30 14 H -4.18973 -1.62052 -0.777634 0
M  V30 15 H -2.22454 -2.247 0.353899 0
M  V30 16 H -2.89558 -0.783151 1.09041 0
M  V30 17 H -1.31035 2.21706 1.63995 0
M  V30 18 H -2.43085 2.10745 0.275936 0
M  V30 19 H 1.20184 2.82928 -0.689572 0
M  V30 20 H 1.85216 2.40074 0.926 0
M  V30 21 H 2.84808 0.316304 -1.53249 0
M  V30 22 H 2.55727 -1.45856 -1.54268 0
M  V30 23 H 3.77037 -1.79441 0.343501 0
M  V30 24 H 2.89771 -0.549738 1.25185 0
M  V30 25 H 4.2943 -0.0867826 0.139988 0
M  V30 END ATOM
M  V30 BEGIN BOND
M  V30 1 1 1 2
M  V30 2 1 2 3
M  V30 3 2 3 4
M  V30 4 1 4 5
M  V30 5 2 5 6
M  V30 6 1 6 7
M  V30 7 1 7 8
M  V30 8 1 6 9
M  V30 9 1 5 10
M  V30 10 1 10 11
M  V30 11 1 7 3
M  V30 12 1 1 12
M  V30 13 1 1 13
M  V30 14 1 1 14
M  V30 15 1 2 15
M  V30 16 1 2 16
M  V30 17 1 8 17
M  V30 18 1 8 18
M  V30 19 1 9 19
M  V30 20 1 9 20
M  V30 21 1 10 21
M  V30 22 1 10 22
M  V30 23 1 11 23
M  V30 24 1 11 24
M  V30 25 1 11 25
M  V30 END BOND
M  V30 END CTAB
M  END
