
     RDKit          3D

  0  0  0  0  0  0  0  0  0  0999 V3000
M  V30 BEGIN CTAB
M  V30 COUNTS 32 32 0 0 0
M  V30 BEGIN ATOM
M  V30 1 C 3.49037 -0.833408 0.730796 0
M  V30 2 C 2.67985 -0.201663 -0.357754 0
M  V30 3 C 1.53768 0.65143 0.215364 0
M  V30 4 C 0.773497 1.24866 -0.902231 0
M  V30 5 C -0.472307 0.532992 -1.28783 0
M  V30 6 C -1.33983 0.395127 -0.0525465 0
M  V30 7 C -0.593245 -0.525576 0.880052 0
M  V30 8 C 0.768999 -0.0805771 1.23427 0
M  V30 9 N -1.56784 1.69065 0.512738 0
M  V30 10 C -2.59526 -0.255536 -0.450513 0
M  V30 11 N -3.74175 0.264275 -0.319002 0
M  V30 12 O -3.95226 1.49807 0.210893 0
M  V30 13 N -2.57414 -1.57651 -1.0358 0
M  V30 14 H 4.57513 -0.767533 0.458027 0
M  V30 15 H 3.29981 -0.38641 1.73551 0
M  V30 16 H 3.23873 -1.91342 0.823665 0
M  V30 17 H 3.30429 0.522485 -0.9594 0
M  V30 18 H 2.31996 -0.959747 -1.05129 0
M  V30 19 H 2.08099 1.50068 0.728976 0
M  V30 20 H 0.525631 2.33426 -0.711485 0
M  V30 21 H 1.4399 1.28546 -1.80986 0
M  V30 22 H -0.196001 -0.492147 -1.6185 0
M  V30 23 H -0.990601 1.11579 -2.06366 0
M  V30 24 H -1.20671 -0.655298 1.80497 0
M  V30 25 H -0.571035 -1.52547 0.390161 0
M  V30 26 H 1.36507 -0.997672 1.52307 0
M  V30 27 H 0.701011 0.497693 2.203 0
M  V30 28 H -0.838166 1.93723 1.21546 0
M  V30 29 H -1.51262 2.40325 -0.250878 0
M  V30 30 H -4.80658 1.81622 0.629525 0
M  V30 31 H -2.84192 -2.34727 -0.400146 0
M  V30 32 H -2.30065 -1.66881 -2.02557 0
M  V30 END ATOM
M  V30 BEGIN BOND
M  V30 1 1 1 2
M  V30 2 1 2 3
M  V30 3 1 3 4
M  V30 4 1 4 5
M  V30 5 1 5 6
M  V30 6 1 6 7
M  V30 7 1 7 8
M  V30 8 1 6 9
M  V30 9 1 6 10
M  V30 10 2 10 11 CFG=2
M  V30 11 1 11 12
M  V30 12 1 10 13
M  V30 13 1 8 3
M  V30 14 1 1 14
M  V30 15 1 1 15
M  V30 16 1 1 16
M  V30 17 1 2 17
M  V30 18 1 2 18
M  V30 19 1 3 19
M  V30 20 1 4 20
M  V30 21 1 4 21
M  V30 22 1 5 22
M  V30 23 1 5 23
M  V30 24 1 7 24
M  V30 25 1 7 25
M  V30 26 1 8 26
M  V30 27 1 8 27
M  V30 28 1 9 28
M  V30 29 1 9 29
M  V30 30 1 12 30
M  V30 31 1 13 31
M  V30 32 1 13 32
M  V30 END BOND
M  V30 END CTAB
M  END
