
     RDKit          3D

  0  0  0  0  0  0  0  0  0  0999 V3000
M  V30 BEGIN CTAB
M  V30 COUNTS 39 42 0 0 0
M  V30 BEGIN ATOM
M  V30 1 N -6.12874 0.151483 1.54488 0
M  V30 2 C -6.37164 -0.361018 0.232414 0
M  V30 3 C -5.14714 -0.295224 -0.655875 0
M  V30 4 C -3.98387 -1.03661 -0.0524671 0
M  V30 5 C -2.81722 -0.164322 -0.318326 0
M  V30 6 C -3.29196 1.03526 -0.772892 0
M  V30 7 O -4.67675 1.02425 -0.828149 0
M  V30 8 C -2.39054 2.037 -1.09696 0
M  V30 9 Cl -2.98407 3.59302 -1.68538 0
M  V30 10 C -1.0307 1.83874 -0.967036 0
M  V30 11 C -0.5374 0.633023 -0.509449 0
M  V30 12 C -1.44307 -0.350081 -0.192288 0
M  V30 13 C 0.878 0.368439 -0.354076 0
M  V30 14 C 1.29015 -0.495183 0.642053 0
M  V30 15 C 2.62931 -0.762213 0.807116 0
M  V30 16 C 3.5489 -0.18672 0.00247397 0
M  V30 17 C 3.20375 0.669336 -0.992318 0
M  V30 18 C 1.84315 0.943011 -1.16294 0
M  V30 19 C 4.9682 -0.502273 0.215593 0
M  V30 20 N 5.52702 -1.30395 1.11739 0
M  V30 21 N 6.78021 -1.44819 1.1428 0
M  V30 22 C 7.54058 -0.798811 0.268288 0
M  V30 23 S 6.36 0.0561165 -0.623907 0
M  V30 24 N 8.98035 -0.838049 0.143867 0
M  V30 25 H -5.1725 0.485258 1.72322 0
M  V30 26 H -6.87359 0.854427 1.82667 0
M  V30 27 H -6.63749 -1.4395 0.315766 0
M  V30 28 H -7.18148 0.214198 -0.238325 0
M  V30 29 H -5.34535 -0.746496 -1.64344 0
M  V30 30 H -4.10293 -1.10705 1.03778 0
M  V30 31 H -3.85508 -2.03231 -0.52309 0
M  V30 32 H -0.327205 2.61876 -1.21953 0
M  V30 33 H -1.08944 -1.32402 0.174933 0
M  V30 34 H 0.576209 -0.962949 1.29272 0
M  V30 35 H 2.93074 -1.44728 1.60002 0
M  V30 36 H 3.89512 1.15839 -1.66514 0
M  V30 37 H 1.51985 1.6272 -1.953 0
M  V30 38 H 9.42034 -0.575179 -0.766576 0
M  V30 39 H 9.49629 -1.13046 0.982154 0
M  V30 END ATOM
M  V30 BEGIN BOND
M  V30 1 1 1 2
M  V30 2 1 2 3
M  V30 3 1 3 4
M  V30 4 1 4 5
M  V30 5 2 5 6
M  V30 6 1 6 7
M  V30 7 1 6 8
M  V30 8 1 8 9
M  V30 9 2 8 10
M  V30 10 1 10 11
M  V30 11 2 11 12
M  V30 12 1 11 13
M  V30 13 2 13 14
M  V30 14 1 14 15
M  V30 15 2 15 16
M  V30 16 1 16 17
M  V30 17 2 17 18
M  V30 18 1 16 19
M  V30 19 2 19 20
M  V30 20 1 20 21
M  V30 21 2 21 22
M  V30 22 1 22 23
M  V30 23 1 22 24
M  V30 24 1 7 3
M  V30 25 1 18 13
M  V30 26 1 23 19
M  V30 27 1 12 5
M  V30 28 1 1 25
M  V30 29 1 1 26
M  V30 30 1 2 27
M  V30 31 1 2 28
M  V30 32 1 3 29
M  V30 33 1 4 30
M  V30 34 1 4 31
M  V30 35 1 10 32
M  V30 36 1 12 33
M  V30 37 1 14 34
M  V30 38 1 15 35
M  V30 39 1 17 36
M  V30 40 1 18 37
M  V30 41 1 24 38
M  V30 42 1 24 39
M  V30 END BOND
M  V30 END CTAB
M  END
