
     RDKit          3D

  0  0  0  0  0  0  0  0  0  0999 V3000
M  V30 BEGIN CTAB
M  V30 COUNTS 19 20 0 0 0
M  V30 BEGIN ATOM
M  V30 1 N -3.20113 -1.38952 0.33557 0
M  V30 2 C -1.95019 -0.713933 0.196658 0
M  V30 3 N -0.809503 -1.43703 0.154704 0
M  V30 4 C 0.398869 -0.832023 0.0235283 0
M  V30 5 C 1.55762 -1.58381 -0.0180011 0
M  V30 6 C 2.74898 -0.900999 -0.152796 0
M  V30 7 C 2.71984 0.473759 -0.23753 0
M  V30 8 N 1.57343 1.17263 -0.193598 0
M  V30 9 C 0.385382 0.543098 -0.062424 0
M  V30 10 C -0.786818 1.28451 -0.019204 0
M  V30 11 N -1.95893 0.629124 0.112369 0
M  V30 12 N -0.747126 2.70389 -0.112011 0
M  V30 13 H -4.05981 -1.00329 -0.114416 0
M  V30 14 H -3.29165 -2.2667 0.877041 0
M  V30 15 H 1.55042 -2.66566 0.0509816 0
M  V30 16 H 3.7117 -1.43004 -0.193343 0
M  V30 17 H 3.65939 0.995811 -0.342776 0
M  V30 18 H 0.0805617 3.24592 0.194539 0
M  V30 19 H -1.58102 3.17427 -0.499292 0
M  V30 END ATOM
M  V30 BEGIN BOND
M  V30 1 1 1 2
M  V30 2 2 2 3
M  V30 3 1 3 4
M  V30 4 2 4 5
M  V30 5 1 5 6
M  V30 6 2 6 7
M  V30 7 1 7 8
M  V30 8 2 8 9
M  V30 9 1 9 10
M  V30 10 2 10 11
M  V30 11 1 10 12
M  V30 12 1 11 2
M  V30 13 1 9 4
M  V30 14 1 1 13
M  V30 15 1 1 14
M  V30 16 1 5 15
M  V30 17 1 6 16
M  V30 18 1 7 17
M  V30 19 1 12 18
M  V30 20 1 12 19
M  V30 END BOND
M  V30 END CTAB
M  END
