
     RDKit          3D

  0  0  0  0  0  0  0  0  0  0999 V3000
M  V30 BEGIN CTAB
M  V30 COUNTS 43 44 0 0 0
M  V30 BEGIN ATOM
M  V30 1 N 4.70522 -1.09738 -2.16612 0
M  V30 2 C 3.75654 -0.559029 -1.25923 0
M  V30 3 C 4.04397 0.640259 -0.659724 0
M  V30 4 N 5.26696 1.30499 -0.955586 0
M  V30 5 C 3.11842 1.17487 0.229756 0
M  V30 6 C 1.9207 0.572618 0.550319 0
M  V30 7 O 1.03355 1.15625 1.44033 0
M  V30 8 C -0.220101 1.7189 1.26645 0
M  V30 9 C -0.681605 1.94482 -0.138951 0
M  V30 10 O -2.06072 2.18314 -0.197316 0
M  V30 11 C -2.65949 1.57444 -1.30909 0
M  V30 12 C -4.05923 1.19517 -0.964493 0
M  V30 13 O -4.23362 -0.142424 -0.620149 0
M  V30 14 C -3.23024 -0.502821 0.238951 0
M  V30 15 C -3.5099 -1.75197 1.05038 0
M  V30 16 O -2.37059 -1.90104 1.87895 0
M  V30 17 C -1.36378 -2.52812 1.15181 0
M  V30 18 C -0.00871231 -1.87798 1.41247 0
M  V30 19 O 0.450847 -1.33912 0.204595 0
M  V30 20 C 1.62711 -0.648246 -0.0556181 0
M  V30 21 C 2.55804 -1.16145 -0.936331 0
M  V30 22 H 5.65714 -1.42052 -1.87137 0
M  V30 23 H 4.49202 -1.19665 -3.18452 0
M  V30 24 H 5.94778 1.41188 -0.172015 0
M  V30 25 H 5.50773 1.67839 -1.88811 0
M  V30 26 H 3.44482 2.14619 0.677483 0
M  V30 27 H -0.969613 1.06963 1.76321 0
M  V30 28 H -0.342884 2.70797 1.78522 0
M  V30 29 H -0.344802 1.21909 -0.876277 0
M  V30 30 H -0.218497 2.92878 -0.458024 0
M  V30 31 H -2.05872 0.742679 -1.71715 0
M  V30 32 H -2.7056 2.33664 -2.14046 0
M  V30 33 H -4.707 1.37566 -1.84608 0
M  V30 34 H -4.43625 1.8578 -0.158926 0
M  V30 35 H -2.31853 -0.721718 -0.343587 0
M  V30 36 H -3.1183 0.311455 0.984376 0
M  V30 37 H -4.36567 -1.58227 1.73808 0
M  V30 38 H -3.62679 -2.64277 0.426162 0
M  V30 39 H -1.37017 -3.58847 1.49555 0
M  V30 40 H -1.55788 -2.55855 0.0779697 0
M  V30 41 H -0.0356045 -1.17764 2.24211 0
M  V30 42 H 0.63278 -2.73572 1.79131 0
M  V30 43 H 2.41067 -2.11774 -1.47681 0
M  V30 END ATOM
M  V30 BEGIN BOND
M  V30 1 1 1 2
M  V30 2 2 2 3
M  V30 3 1 3 4
M  V30 4 1 3 5
M  V30 5 2 5 6
M  V30 6 1 6 7
M  V30 7 1 7 8
M  V30 8 1 8 9
M  V30 9 1 9 10
M  V30 10 1 10 11
M  V30 11 1 11 12
M  V30 12 1 12 13
M  V30 13 1 13 14
M  V30 14 1 14 15
M  V30 15 1 15 16
M  V30 16 1 16 17
M  V30 17 1 17 18
M  V30 18 1 18 19
M  V30 19 1 19 20
M  V30 20 2 20 21
M  V30 21 1 21 2
M  V30 22 1 20 6
M  V30 23 1 1 22
M  V30 24 1 1 23
M  V30 25 1 4 24
M  V30 26 1 4 25
M  V30 27 1 5 26
M  V30 28 1 8 27
M  V30 29 1 8 28
M  V30 30 1 9 29
M  V30 31 1 9 30
M  V30 32 1 11 31
M  V30 33 1 11 32
M  V30 34 1 12 33
M  V30 35 1 12 34
M  V30 36 1 14 35
M  V30 37 1 14 36
M  V30 38 1 15 37
M  V30 39 1 15 38
M  V30 40 1 17 39
M  V30 41 1 17 40
M  V30 42 1 18 41
M  V30 43 1 18 42
M  V30 44 1 21 43
M  V30 END BOND
M  V30 END CTAB
M  END
