
     RDKit          3D

  0  0  0  0  0  0  0  0  0  0999 V3000
M  V30 BEGIN CTAB
M  V30 COUNTS 39 41 0 0 0
M  V30 BEGIN ATOM
M  V30 1 C -4.82621 0.797085 0.579695 0
M  V30 2 C -3.74429 -0.0353676 -0.17173 0
M  V30 3 C -3.02931 -0.774288 0.909148 0
M  V30 4 C -2.95843 0.960741 -0.941051 0
M  V30 5 C -1.86515 0.510761 -1.81294 0
M  V30 6 N -0.756571 -0.204539 -1.21869 0
M  V30 7 C -0.547653 -1.52273 -1.13935 0
M  V30 8 C 0.659937 -1.81196 -0.541334 0
M  V30 9 C 1.22693 -0.590675 -0.234752 0
M  V30 10 C 0.346382 0.375295 -0.656452 0
M  V30 11 C 0.673917 1.69509 -0.467693 0
M  V30 12 C 1.85885 2.03265 0.130894 0
M  V30 13 C 2.73879 1.06334 0.552232 0
M  V30 14 N 3.90882 1.39252 1.14319 0
M  V30 15 C 4.76415 0.44661 1.55266 0
M  V30 16 N 6.00992 0.792874 2.18178 0
M  V30 17 N 4.46231 -0.845383 1.37727 0
M  V30 18 C 3.29885 -1.26144 0.787943 0
M  V30 19 N 3.03796 -2.63149 0.631604 0
M  V30 20 C 2.43578 -0.292336 0.375042 0
M  V30 21 H -4.41812 1.78502 0.851792 0
M  V30 22 H -5.13071 0.277813 1.48732 0
M  V30 23 H -5.70062 0.954445 -0.0666587 0
M  V30 24 H -4.25352 -0.717154 -0.866861 0
M  V30 25 H -2.09263 -0.269951 1.21212 0
M  V30 26 H -3.68927 -0.746869 1.84096 0
M  V30 27 H -2.92488 -1.87279 0.731225 0
M  V30 28 H -3.7277 1.49594 -1.59896 0
M  V30 29 H -2.62402 1.81932 -0.275707 0
M  V30 30 H -2.34301 -0.132427 -2.62908 0
M  V30 31 H -1.3855 1.34948 -2.38891 0
M  V30 32 H -1.28263 -2.23988 -1.52031 0
M  V30 33 H 0.978938 -2.82166 -0.401104 0
M  V30 34 H -0.0404877 2.44889 -0.810397 0
M  V30 35 H 2.1358 3.0688 0.288979 0
M  V30 36 H 6.20494 0.498618 3.15721 0
M  V30 37 H 6.73614 1.33855 1.68328 0
M  V30 38 H 3.33203 -3.18715 -0.220546 0
M  V30 39 H 2.53026 -3.14576 1.38587 0
M  V30 END ATOM
M  V30 BEGIN BOND
M  V30 1 1 1 2
M  V30 2 1 2 3
M  V30 3 1 2 4
M  V30 4 1 4 5
M  V30 5 1 5 6
M  V30 6 1 6 7
M  V30 7 2 7 8
M  V30 8 1 8 9
M  V30 9 2 9 10
M  V30 10 1 10 11
M  V30 11 2 11 12
M  V30 12 1 12 13
M  V30 13 2 13 14
M  V30 14 1 14 15
M  V30 15 1 15 16
M  V30 16 2 15 17
M  V30 17 1 17 18
M  V30 18 1 18 19
M  V30 19 2 18 20
M  V30 20 1 10 6
M  V30 21 1 20 13
M  V30 22 1 20 9
M  V30 23 1 1 21
M  V30 24 1 1 22
M  V30 25 1 1 23
M  V30 26 1 2 24
M  V30 27 1 3 25
M  V30 28 1 3 26
M  V30 29 1 3 27
M  V30 30 1 4 28
M  V30 31 1 4 29
M  V30 32 1 5 30
M  V30 33 1 5 31
M  V30 34 1 7 32
M  V30 35 1 8 33
M  V30 36 1 11 34
M  V30 37 1 12 35
M  V30 38 1 16 36
M  V30 39 1 16 37
M  V30 40 1 19 38
M  V30 41 1 19 39
M  V30 END BOND
M  V30 END CTAB
M  END
