
     RDKit          3D

  0  0  0  0  0  0  0  0  0  0999 V3000
M  V30 BEGIN CTAB
M  V30 COUNTS 53 56 0 0 0
M  V30 BEGIN ATOM
M  V30 1 N -3.60423 3.87567 -0.515054 0
M  V30 2 C -2.55925 2.93615 -0.250451 0
M  V30 3 N -2.81945 1.64166 0.0993233 0
M  V30 4 C -1.8243 0.789131 0.352667 0
M  V30 5 C -2.08883 -0.560854 0.919163 0
M  V30 6 O -2.45113 -1.53107 0.111869 0
M  V30 7 C -3.31102 -1.67147 -0.85275 0
M  V30 8 C -4.73282 -1.39687 -0.617971 0
M  V30 9 C -5.38528 -0.506421 -1.43535 0
M  V30 10 C -6.72921 -0.259626 -1.22232 0
M  V30 11 C -7.4188 -0.905464 -0.182238 0
M  V30 12 C -6.75639 -1.78126 0.616177 0
M  V30 13 C -5.429 -2.0133 0.385964 0
M  V30 14 C -0.557329 1.26519 0.249247 0
M  V30 15 C -0.249211 2.57216 -0.107154 0
M  V30 16 N 1.117 2.93985 -0.28638 0
M  V30 17 N -1.29481 3.35638 -0.343984 0
M  V30 18 C 0.570408 0.353637 0.399149 0
M  V30 19 C 1.20729 0.128531 1.56433 0
M  V30 20 C 2.37766 -0.660314 1.57642 0
M  V30 21 C 2.83266 -1.17121 0.400194 0
M  V30 22 N 4.22869 -1.64806 0.378139 0
M  V30 23 C 5.03207 -0.473671 0.108778 0
M  V30 24 C 6.44829 -0.501306 0.17189 0
M  V30 25 N 7.14201 0.665806 0.467979 0
M  V30 26 C 8.42316 0.424977 0.48693 0
M  V30 27 C 8.63422 -0.909964 0.211948 0
M  V30 28 N 7.3892 -1.42091 0.0270026 0
M  V30 29 C 2.19306 -0.968549 -0.783846 0
M  V30 30 C 1.03621 -0.19131 -0.820048 0
M  V30 31 H -4.60848 3.65074 -0.386696 0
M  V30 32 H -3.38402 4.84607 -0.866574 0
M  V30 33 H -1.20272 -0.857961 1.5276 0
M  V30 34 H -2.8799 -0.353837 1.7444 0
M  V30 35 H -3.30787 -2.79727 -1.15118 0
M  V30 36 H -3.00914 -1.21431 -1.85975 0
M  V30 37 H -4.83006 -0.0110006 -2.22309 0
M  V30 38 H -7.22635 0.468897 -1.8776 0
M  V30 39 H -8.47188 -0.651388 -0.0942626 0
M  V30 40 H -7.31631 -2.26383 1.40187 0
M  V30 41 H -4.87324 -2.70485 1.02303 0
M  V30 42 H 1.72362 3.11281 0.526929 0
M  V30 43 H 1.51739 3.05853 -1.26485 0
M  V30 44 H 0.836097 0.543928 2.4876 0
M  V30 45 H 2.86306 -0.839366 2.52276 0
M  V30 46 H 4.41972 -2.60606 0.525858 0
M  V30 47 H 4.62725 0.279206 0.882606 0
M  V30 48 H 4.61273 -0.0249391 -0.845345 0
M  V30 49 H 9.24139 1.14408 0.693255 0
M  V30 50 H 9.60143 -1.37065 0.171364 0
M  V30 51 H 7.24106 -2.42771 -0.206129 0
M  V30 52 H 2.52071 -1.37453 -1.70606 0
M  V30 53 H 0.484637 0.0159255 -1.71536 0
M  V30 END ATOM
M  V30 BEGIN BOND
M  V30 1 1 1 2
M  V30 2 2 2 3
M  V30 3 1 3 4
M  V30 4 1 4 5
M  V30 5 1 5 6
M  V30 6 1 6 7
M  V30 7 1 7 8
M  V30 8 2 8 9
M  V30 9 1 9 10
M  V30 10 2 10 11
M  V30 11 1 11 12
M  V30 12 2 12 13
M  V30 13 2 4 14
M  V30 14 1 14 15
M  V30 15 1 15 16
M  V30 16 2 15 17
M  V30 17 1 14 18
M  V30 18 2 18 19
M  V30 19 1 19 20
M  V30 20 2 20 21
M  V30 21 1 21 22
M  V30 22 1 22 23
M  V30 23 1 23 24
M  V30 24 2 24 25
M  V30 25 1 25 26
M  V30 26 2 26 27
M  V30 27 1 27 28
M  V30 28 1 21 29
M  V30 29 2 29 30
M  V30 30 1 17 2
M  V30 31 1 30 18
M  V30 32 1 13 8
M  V30 33 1 28 24
M  V30 34 1 1 31
M  V30 35 1 1 32
M  V30 36 1 5 33
M  V30 37 1 5 34
M  V30 38 1 7 35
M  V30 39 1 7 36
M  V30 40 1 9 37
M  V30 41 1 10 38
M  V30 42 1 11 39
M  V30 43 1 12 40
M  V30 44 1 13 41
M  V30 45 1 16 42
M  V30 46 1 16 43
M  V30 47 1 19 44
M  V30 48 1 20 45
M  V30 49 1 22 46
M  V30 50 1 23 47
M  V30 51 1 23 48
M  V30 52 1 26 49
M  V30 53 1 27 50
M  V30 54 1 28 51
M  V30 55 1 29 52
M  V30 56 1 30 53
M  V30 END BOND
M  V30 END CTAB
M  END
