
     RDKit          3D

  0  0  0  0  0  0  0  0  0  0999 V3000
M  V30 BEGIN CTAB
M  V30 COUNTS 54 56 0 0 0
M  V30 BEGIN ATOM
M  V30 1 N 8.11516 1.53552 -0.844655 0
M  V30 2 C 6.9874 0.645099 -0.664703 0
M  V30 3 C 5.7211 1.05018 -1.35007 0
M  V30 4 C 5.02064 1.1056 -0.00557445 0
M  V30 5 C 6.32863 0.869858 0.677261 0
M  V30 6 C 4.06523 -0.0281618 0.221426 0
M  V30 7 C 2.75186 0.188315 0.557718 0
M  V30 8 C 1.86197 -0.829937 0.772259 0
M  V30 9 N 2.36657 -2.09252 0.629783 0
M  V30 10 C 3.63973 -2.3426 0.303395 0
M  V30 11 N 4.47129 -1.32326 0.103448 0
M  V30 12 N 4.1216 -3.66404 0.166071 0
M  V30 13 N 0.50782 -0.672789 1.1121 0
M  V30 14 C -0.131516 0.602561 1.20806 0
M  V30 15 C -1.51612 0.638471 0.631489 0
M  V30 16 N -2.27134 -0.555831 0.771503 0
M  V30 17 C -1.51285 -1.7661 0.52866 0
M  V30 18 C -0.295497 -1.84189 1.3842 0
M  V30 19 C -3.44455 -0.632003 -0.0199069 0
M  V30 20 C -4.54157 0.263007 0.304677 0
M  V30 21 O -4.46553 1.0716 1.24607 0
M  V30 22 N -5.73097 0.228818 -0.455972 0
M  V30 23 C -6.83287 1.12444 -0.133467 0
M  V30 24 C -7.15249 1.9867 -1.3247 0
M  V30 25 C -8.04468 0.296862 0.264623 0
M  V30 26 H 7.90689 2.33577 -1.47058 0
M  V30 27 H 8.46684 1.80877 0.083296 0
M  V30 28 H 7.21706 -0.43202 -0.901653 0
M  V30 29 H 5.80677 2.04074 -1.84154 0
M  V30 30 H 5.26903 0.273522 -2.00028 0
M  V30 31 H 4.51576 2.06017 0.207598 0
M  V30 32 H 6.39893 -0.0720862 1.26779 0
M  V30 33 H 6.70268 1.7679 1.20601 0
M  V30 34 H 2.41362 1.21124 0.657086 0
M  V30 35 H 3.62149 -4.44709 0.667639 0
M  V30 36 H 4.94376 -3.94323 -0.397417 0
M  V30 37 H 0.429866 1.44705 0.777672 0
M  V30 38 H -0.248138 0.809332 2.31381 0
M  V30 39 H -2.05322 1.46479 1.14103 0
M  V30 40 H -1.44951 0.934089 -0.448211 0
M  V30 41 H -2.189 -2.61481 0.841879 0
M  V30 42 H -1.28061 -1.90366 -0.54082 0
M  V30 43 H -0.627334 -1.73494 2.45928 0
M  V30 44 H 0.251367 -2.78022 1.2149 0
M  V30 45 H -3.83797 -1.68768 0.0903008 0
M  V30 46 H -3.20008 -0.578588 -1.12387 0
M  V30 47 H -5.88334 -0.416792 -1.26364 0
M  V30 48 H -6.60085 1.77745 0.732055 0
M  V30 49 H -6.19661 2.47953 -1.64269 0
M  V30 50 H -7.8776 2.76476 -1.08655 0
M  V30 51 H -7.51687 1.31862 -2.14921 0
M  V30 52 H -8.77057 0.990327 0.725754 0
M  V30 53 H -8.46275 -0.275935 -0.588028 0
M  V30 54 H -7.76861 -0.454937 1.03037 0
M  V30 END ATOM
M  V30 BEGIN BOND
M  V30 1 1 1 2
M  V30 2 1 2 3
M  V30 3 1 3 4
M  V30 4 1 4 5
M  V30 5 1 4 6
M  V30 6 2 6 7
M  V30 7 1 7 8
M  V30 8 2 8 9
M  V30 9 1 9 10
M  V30 10 2 10 11
M  V30 11 1 10 12
M  V30 12 1 8 13
M  V30 13 1 13 14
M  V30 14 1 14 15
M  V30 15 1 15 16
M  V30 16 1 16 17
M  V30 17 1 17 18
M  V30 18 1 16 19
M  V30 19 1 19 20
M  V30 20 2 20 21
M  V30 21 1 20 22
M  V30 22 1 22 23
M  V30 23 1 23 24
M  V30 24 1 23 25
M  V30 25 1 5 2
M  V30 26 1 11 6
M  V30 27 1 18 13
M  V30 28 1 1 26
M  V30 29 1 1 27
M  V30 30 1 2 28
M  V30 31 1 3 29
M  V30 32 1 3 30
M  V30 33 1 4 31
M  V30 34 1 5 32
M  V30 35 1 5 33
M  V30 36 1 7 34
M  V30 37 1 12 35
M  V30 38 1 12 36
M  V30 39 1 14 37
M  V30 40 1 14 38
M  V30 41 1 15 39
M  V30 42 1 15 40
M  V30 43 1 17 41
M  V30 44 1 17 42
M  V30 45 1 18 43
M  V30 46 1 18 44
M  V30 47 1 19 45
M  V30 48 1 19 46
M  V30 49 1 22 47
M  V30 50 1 23 48
M  V30 51 1 24 49
M  V30 52 1 24 50
M  V30 53 1 24 51
M  V30 54 1 25 52
M  V30 55 1 25 53
M  V30 56 1 25 54
M  V30 END BOND
M  V30 END CTAB
M  END
