
     RDKit          3D

  0  0  0  0  0  0  0  0  0  0999 V3000
M  V30 BEGIN CTAB
M  V30 COUNTS 33 35 0 0 0
M  V30 BEGIN ATOM
M  V30 1 N 1.96912 -3.14236 2.31826 0
M  V30 2 C 1.13817 -2.46109 1.88692 0
M  V30 3 C 0.103536 -1.62687 1.3574 0
M  V30 4 C -0.99229 -1.45311 2.06447 0
M  V30 5 N -1.10593 -2.10075 3.3238 0
M  V30 6 O -2.07291 -0.663017 1.66298 0
M  V30 7 C -2.02277 -0.00342174 0.447951 0
M  V30 8 C -0.899883 -0.149834 -0.330907 0
M  V30 9 C 0.270345 -0.995967 0.042111 0
M  V30 10 C 1.55485 -0.34616 -0.193921 0
M  V30 11 C 2.37677 -0.720272 -1.25011 0
M  V30 12 C 3.5888 -0.143427 -1.52364 0
M  V30 13 C 4.01813 0.867115 -0.702942 0
M  V30 14 C 3.24527 1.27016 0.348728 0
M  V30 15 C 2.01935 0.668878 0.60478 0
M  V30 16 Cl 1.04942 1.1917 1.95122 0
M  V30 17 Cl 5.56776 1.64103 -1.00984 0
M  V30 18 C -0.829171 0.511054 -1.56158 0
M  V30 19 C -1.87468 1.29927 -1.98812 0
M  V30 20 C -3.02028 1.45339 -1.20371 0
M  V30 21 C -3.06108 0.782766 0.0187002 0
M  V30 22 N -4.08279 2.27234 -1.67162 0
M  V30 23 H -1.89544 -2.74397 3.54592 0
M  V30 24 H -0.401001 -1.95794 4.07358 0
M  V30 25 H 0.215049 -1.85871 -0.701707 0
M  V30 26 H 2.05211 -1.51784 -1.91168 0
M  V30 27 H 4.22602 -0.434626 -2.34491 0
M  V30 28 H 3.57635 2.05283 0.987436 0
M  V30 29 H 0.0320674 0.426587 -2.20885 0
M  V30 30 H -1.81109 1.81164 -2.95254 0
M  V30 31 H -3.96694 0.925258 0.603445 0
M  V30 32 H -5.06043 2.08987 -1.37169 0
M  V30 33 H -3.90645 3.05548 -2.30991 0
M  V30 END ATOM
M  V30 BEGIN BOND
M  V30 1 3 1 2
M  V30 2 1 2 3
M  V30 3 2 3 4
M  V30 4 1 4 5
M  V30 5 1 4 6
M  V30 6 1 6 7
M  V30 7 2 7 8
M  V30 8 1 8 9
M  V30 9 1 9 10
M  V30 10 2 10 11
M  V30 11 1 11 12
M  V30 12 2 12 13
M  V30 13 1 13 14
M  V30 14 2 14 15
M  V30 15 1 15 16
M  V30 16 1 13 17
M  V30 17 1 8 18
M  V30 18 2 18 19
M  V30 19 1 19 20
M  V30 20 2 20 21
M  V30 21 1 20 22
M  V30 22 1 9 3
M  V30 23 1 15 10
M  V30 24 1 21 7
M  V30 25 1 5 23
M  V30 26 1 5 24
M  V30 27 1 9 25
M  V30 28 1 11 26
M  V30 29 1 12 27
M  V30 30 1 14 28
M  V30 31 1 18 29
M  V30 32 1 19 30
M  V30 33 1 21 31
M  V30 34 1 22 32
M  V30 35 1 22 33
M  V30 END BOND
M  V30 END CTAB
M  END
