
     RDKit          3D

  0  0  0  0  0  0  0  0  0  0999 V3000
M  V30 BEGIN CTAB
M  V30 COUNTS 26 26 0 0 0
M  V30 BEGIN ATOM
M  V30 1 N 5.39785 1.2064 0.446549 0
M  V30 2 N 4.05419 1.38595 0.0985238 0
M  V30 3 C 3.2384 0.400771 0.234457 0
M  V30 4 S 1.54023 0.66012 -0.215695 0
M  V30 5 C 0.535313 -0.813912 0.0344134 0
M  V30 6 C -0.857787 -0.502828 -0.366261 0
M  V30 7 C -1.25148 -0.71595 -1.6692 0
M  V30 8 C -2.54186 -0.442966 -2.09998 0
M  V30 9 C -3.43313 0.0591882 -1.15803 0
M  V30 10 C -3.07904 0.286345 0.154063 0
M  V30 11 C -1.77475 -0.00330053 0.53523 0
M  V30 12 C -4.05904 0.825545 1.13865 0
M  V30 13 N 3.61761 -0.880576 0.723217 0
M  V30 14 H 6.14788 1.48852 -0.20783 0
M  V30 15 H 5.61926 0.788681 1.36538 0
M  V30 16 H 0.564809 -1.07764 1.11692 0
M  V30 17 H 0.933207 -1.70427 -0.513636 0
M  V30 18 H -0.511038 -1.10811 -2.35294 0
M  V30 19 H -2.83762 -0.617994 -3.13781 0
M  V30 20 H -4.4478 0.286249 -1.44777 0
M  V30 21 H -1.48535 0.171153 1.56336 0
M  V30 22 H -3.56419 0.867889 2.12983 0
M  V30 23 H -4.35099 1.8742 0.880402 0
M  V30 24 H -4.95371 0.209647 1.23296 0
M  V30 25 H 3.9163 -0.95409 1.72067 0
M  V30 26 H 3.58274 -1.68902 0.0719601 0
M  V30 END ATOM
M  V30 BEGIN BOND
M  V30 1 1 1 2
M  V30 2 2 2 3 CFG=2
M  V30 3 1 3 4
M  V30 4 1 4 5
M  V30 5 1 5 6
M  V30 6 2 6 7
M  V30 7 1 7 8
M  V30 8 2 8 9
M  V30 9 1 9 10
M  V30 10 2 10 11
M  V30 11 1 10 12
M  V30 12 1 3 13
M  V30 13 1 11 6
M  V30 14 1 1 14
M  V30 15 1 1 15
M  V30 16 1 5 16
M  V30 17 1 5 17
M  V30 18 1 7 18
M  V30 19 1 8 19
M  V30 20 1 9 20
M  V30 21 1 11 21
M  V30 22 1 12 22
M  V30 23 1 12 23
M  V30 24 1 12 24
M  V30 25 1 13 25
M  V30 26 1 13 26
M  V30 END BOND
M  V30 END CTAB
M  END
