
     RDKit          3D

  0  0  0  0  0  0  0  0  0  0999 V3000
M  V30 BEGIN CTAB
M  V30 COUNTS 37 38 0 0 0
M  V30 BEGIN ATOM
M  V30 1 N -2.22467 2.51816 -0.462267 0
M  V30 2 C -3.23348 1.70312 0.0306764 0
M  V30 3 C -3.03443 0.219742 0.00313768 0
M  V30 4 N -1.97826 -0.347435 0.713141 0
M  V30 5 C -1.95877 -1.80337 0.692786 0
M  V30 6 C -2.05784 -2.28832 -0.706204 0
M  V30 7 O -1.17641 -1.6011 -1.52531 0
M  V30 8 C 0.0542585 -1.38079 -0.995529 0
M  V30 9 C 0.230192 -0.0418806 -0.341757 0 CFG=1
M  V30 10 C -0.704632 0.217278 0.789506 0
M  V30 11 C 1.6651 0.0598034 0.0347043 0
M  V30 12 C 2.22846 -0.827579 0.943842 0
M  V30 13 C 3.55109 -0.761752 1.31455 0
M  V30 14 C 4.3676 0.198679 0.788217 0
M  V30 15 C 3.80143 1.07552 -0.113151 0
M  V30 16 N 2.48716 1.00205 -0.474871 0
M  V30 17 N 4.62465 2.07798 -0.671465 0
M  V30 18 H -1.94661 2.45586 -1.40205 0
M  V30 19 H -2.19888 3.44072 -0.0624973 0
M  V30 20 H -3.61808 2.04407 1.04497 0
M  V30 21 H -4.14913 1.89043 -0.624818 0
M  V30 22 H -4.0097 -0.176532 0.447352 0
M  V30 23 H -3.05222 -0.0690011 -1.0903 0
M  V30 24 H -2.76407 -2.14877 1.3603 0
M  V30 25 H -0.988734 -2.107 1.14955 0
M  V30 26 H -3.0976 -2.13989 -1.06209 0
M  V30 27 H -1.85789 -3.38267 -0.69865 0
M  V30 28 H 0.785165 -1.41724 -1.858 0
M  V30 29 H 0.346024 -2.24221 -0.364375 0
M  V30 30 H 0.067584 0.723325 -1.12265 0
M  V30 31 H -0.196614 -0.288828 1.69024 0
M  V30 32 H -0.728465 1.27162 1.09955 0
M  V30 33 H 1.57163 -1.57913 1.34762 0
M  V30 34 H 3.94282 -1.47162 2.02282 0
M  V30 35 H 5.42656 0.278829 1.06193 0
M  V30 36 H 5.41999 1.83036 -1.30093 0
M  V30 37 H 4.40675 3.06758 -0.432817 0
M  V30 END ATOM
M  V30 BEGIN BOND
M  V30 1 1 1 2
M  V30 2 1 2 3
M  V30 3 1 3 4
M  V30 4 1 4 5
M  V30 5 1 5 6
M  V30 6 1 6 7
M  V30 7 1 7 8
M  V30 8 1 8 9
M  V30 9 1 9 10
M  V30 10 1 9 11
M  V30 11 2 11 12
M  V30 12 1 12 13
M  V30 13 2 13 14
M  V30 14 1 14 15
M  V30 15 2 15 16
M  V30 16 1 15 17
M  V30 17 1 10 4
M  V30 18 1 16 11
M  V30 19 1 1 18
M  V30 20 1 1 19
M  V30 21 1 2 20
M  V30 22 1 2 21
M  V30 23 1 3 22
M  V30 24 1 3 23
M  V30 25 1 5 24
M  V30 26 1 5 25
M  V30 27 1 6 26
M  V30 28 1 6 27
M  V30 29 1 8 28
M  V30 30 1 8 29
M  V30 31 1 9 30 CFG=3
M  V30 32 1 10 31
M  V30 33 1 10 32
M  V30 34 1 12 33
M  V30 35 1 13 34
M  V30 36 1 14 35
M  V30 37 1 17 36
M  V30 38 1 17 37
M  V30 END BOND
M  V30 END CTAB
M  END
