
     RDKit          3D

  0  0  0  0  0  0  0  0  0  0999 V3000
M  V30 BEGIN CTAB
M  V30 COUNTS 21 21 0 0 0
M  V30 BEGIN ATOM
M  V30 1 N 3.3555 1.16471 0.311479 0
M  V30 2 C 2.7468 0.0291292 -0.251672 0
M  V30 3 S 3.70878 -0.980842 -1.1198 0
M  V30 4 C 1.32087 -0.275041 -0.0939878 0
M  V30 5 C 0.861035 -1.54934 0.18606 0
M  V30 6 C -0.477764 -1.84333 0.335757 0
M  V30 7 C -1.41827 -0.849522 0.20702 0
M  V30 8 C -0.992226 0.438663 -0.0734029 0
M  V30 9 C 0.355284 0.708317 -0.218959 0
M  V30 10 C -1.9913 1.5415 -0.21934 0
M  V30 11 N -2.80613 -1.11447 0.354455 0
M  V30 12 H 4.18771 1.01005 0.946521 0
M  V30 13 H 3.04017 2.14775 0.143911 0
M  V30 14 H 1.61542 -2.319 0.28396 0
M  V30 15 H -0.803783 -2.84749 0.553948 0
M  V30 16 H 0.655337 1.74441 -0.441569 0
M  V30 17 H -1.48776 2.4943 0.0476111 0
M  V30 18 H -2.84098 1.40434 0.45889 0
M  V30 19 H -2.38166 1.52182 -1.24844 0
M  V30 20 H -3.14267 -1.96098 0.847316 0
M  V30 21 H -3.50436 -0.464962 -0.0287956 0
M  V30 END ATOM
M  V30 BEGIN BOND
M  V30 1 1 1 2
M  V30 2 2 2 3
M  V30 3 1 2 4
M  V30 4 2 4 5
M  V30 5 1 5 6
M  V30 6 2 6 7
M  V30 7 1 7 8
M  V30 8 2 8 9
M  V30 9 1 8 10
M  V30 10 1 7 11
M  V30 11 1 9 4
M  V30 12 1 1 12
M  V30 13 1 1 13
M  V30 14 1 5 14
M  V30 15 1 6 15
M  V30 16 1 9 16
M  V30 17 1 10 17
M  V30 18 1 10 18
M  V30 19 1 10 19
M  V30 20 1 11 20
M  V30 21 1 11 21
M  V30 END BOND
M  V30 END CTAB
M  END
