
     RDKit          3D

  0  0  0  0  0  0  0  0  0  0999 V3000
M  V30 BEGIN CTAB
M  V30 COUNTS 55 57 0 0 0
M  V30 BEGIN ATOM
M  V30 1 N 5.39324 -2.90233 -0.612097 0
M  V30 2 C 4.54246 -2.68025 0.554595 0
M  V30 3 C 4.97016 -1.44349 1.30909 0
M  V30 4 C 4.07897 -1.26335 2.50008 0
M  V30 5 C 2.66133 -1.10465 2.07071 0
M  V30 6 N 2.4658 0.0603861 1.1858 0
M  V30 7 C 1.16851 0.345922 0.731177 0
M  V30 8 C 0.0976133 -0.443153 1.20579 0
M  V30 9 C -1.19218 -0.222575 0.82865 0
M  V30 10 C -1.52585 0.78826 -0.0419573 0
M  V30 11 N -2.88989 0.96627 -0.313871 0
M  V30 12 C -3.88331 -0.0520084 0.0588406 0
M  V30 13 C -3.77021 -1.29355 -0.767582 0
M  V30 14 C -4.77427 -2.34944 -0.375932 0
M  V30 15 C -6.19658 -1.87716 -0.529193 0
M  V30 16 N -7.14033 -2.92352 -0.146289 0
M  V30 17 C -0.524213 1.57636 -0.52798 0
M  V30 18 C 0.831021 1.36983 -0.151707 0
M  V30 19 C 1.89674 2.2052 -0.683425 0
M  V30 20 O 3.11422 2.04967 -0.370363 0
M  V30 21 C 1.55874 3.27501 -1.62263 0
M  V30 22 C 0.274687 3.4974 -2.00258 0
M  V30 23 C -0.0519691 4.51331 -2.89559 0
M  V30 24 N 0.964702 5.26072 -3.36135 0
M  V30 25 C 2.24522 5.0646 -3.00374 0
M  V30 26 C 2.58429 4.06326 -2.12093 0
M  V30 27 C -0.802351 2.64294 -1.45688 0
M  V30 28 O -1.97135 2.89517 -1.84745 0
M  V30 29 H 6.36214 -2.64689 -0.316018 0
M  V30 30 H 5.10177 -2.15743 -1.31265 0
M  V30 31 H 3.4826 -2.50103 0.221184 0
M  V30 32 H 4.58077 -3.53288 1.24816 0
M  V30 33 H 4.92374 -0.599301 0.603974 0
M  V30 34 H 6.0193 -1.52513 1.67278 0
M  V30 35 H 4.37942 -0.397885 3.1309 0
M  V30 36 H 4.11958 -2.13976 3.19026 0
M  V30 37 H 2.20836 -2.01592 1.68798 0
M  V30 38 H 2.08721 -0.811452 3.00114 0
M  V30 39 H 3.30549 0.569221 0.985299 0
M  V30 40 H 0.36151 -1.25245 1.90606 0
M  V30 41 H -1.92699 -0.905575 1.28208 0
M  V30 42 H -3.28008 1.79364 -0.751327 0
M  V30 43 H -4.88857 0.374115 -0.115595 0
M  V30 44 H -3.81459 -0.235037 1.14259 0
M  V30 45 H -2.74162 -1.6549 -0.771289 0
M  V30 46 H -3.99987 -1.08064 -1.85557 0
M  V30 47 H -4.62137 -3.20423 -1.07373 0
M  V30 48 H -4.59028 -2.75292 0.63913 0
M  V30 49 H -6.35195 -1.7137 -1.63406 0
M  V30 50 H -6.42713 -0.930378 -0.0451399 0
M  V30 51 H -6.94176 -3.77137 -0.738751 0
M  V30 52 H -7.07006 -3.13076 0.876269 0
M  V30 53 H -1.07109 4.64828 -3.16265 0
M  V30 54 H 3.06258 5.66889 -3.38101 0
M  V30 55 H 3.60564 3.88665 -1.81895 0
M  V30 END ATOM
M  V30 BEGIN BOND
M  V30 1 1 1 2
M  V30 2 1 2 3
M  V30 3 1 3 4
M  V30 4 1 4 5
M  V30 5 1 5 6
M  V30 6 1 6 7
M  V30 7 2 7 8
M  V30 8 1 8 9
M  V30 9 2 9 10
M  V30 10 1 10 11
M  V30 11 1 11 12
M  V30 12 1 12 13
M  V30 13 1 13 14
M  V30 14 1 14 15
M  V30 15 1 15 16
M  V30 16 1 10 17
M  V30 17 2 17 18
M  V30 18 1 18 19
M  V30 19 2 19 20
M  V30 20 1 19 21
M  V30 21 2 21 22
M  V30 22 1 22 23
M  V30 23 2 23 24
M  V30 24 1 24 25
M  V30 25 2 25 26
M  V30 26 1 22 27
M  V30 27 2 27 28
M  V30 28 1 18 7
M  V30 29 1 26 21
M  V30 30 1 27 17
M  V30 31 1 1 29
M  V30 32 1 1 30
M  V30 33 1 2 31
M  V30 34 1 2 32
M  V30 35 1 3 33
M  V30 36 1 3 34
M  V30 37 1 4 35
M  V30 38 1 4 36
M  V30 39 1 5 37
M  V30 40 1 5 38
M  V30 41 1 6 39
M  V30 42 1 8 40
M  V30 43 1 9 41
M  V30 44 1 11 42
M  V30 45 1 12 43
M  V30 46 1 12 44
M  V30 47 1 13 45
M  V30 48 1 13 46
M  V30 49 1 14 47
M  V30 50 1 14 48
M  V30 51 1 15 49
M  V30 52 1 15 50
M  V30 53 1 16 51
M  V30 54 1 16 52
M  V30 55 1 23 53
M  V30 56 1 25 54
M  V30 57 1 26 55
M  V30 END BOND
M  V30 END CTAB
M  END
