
     RDKit          3D

  0  0  0  0  0  0  0  0  0  0999 V3000
M  V30 BEGIN CTAB
M  V30 COUNTS 28 28 0 0 0
M  V30 BEGIN ATOM
M  V30 1 N 3.9739 -1.25518 0.608513 0
M  V30 2 C 4.54508 0.000453901 0.280735 0
M  V30 3 N 5.81781 0.165516 0.19594 0
M  V30 4 N 3.66281 1.11067 0.0392266 0
M  V30 5 N 2.47894 1.15484 0.770339 0
M  V30 6 C 1.3717 0.649965 0.349221 0
M  V30 7 C 1.2208 -0.0218425 -0.928033 0
M  V30 8 C 0.0599789 -0.532085 -1.33088 0
M  V30 9 C -1.10968 -0.419333 -0.46862 0
M  V30 10 C -0.984235 0.25031 0.818056 0
M  V30 11 C 0.194659 0.756397 1.2027 0
M  V30 12 N -2.24768 -0.89539 -0.814642 0
M  V30 13 N -3.35959 -0.788644 0.00416528 0
M  V30 14 C -4.54537 -0.177231 -0.448152 0
M  V30 15 N -5.58057 0.163032 0.438856 0
M  V30 16 N -4.68988 0.0770294 -1.69399 0
M  V30 17 H 3.66214 -1.86425 -0.174917 0
M  V30 18 H 3.86301 -1.57038 1.57296 0
M  V30 19 H 6.43104 -0.638744 0.371787 0
M  V30 20 H 3.91585 1.84412 -0.659295 0
M  V30 21 H 2.09832 -0.101445 -1.56484 0
M  V30 22 H -0.00240695 -1.03042 -2.3052 0
M  V30 23 H -1.87149 0.315811 1.43161 0
M  V30 24 H 0.26241 1.24719 2.15884 0
M  V30 25 H -3.32363 -1.16747 0.977628 0
M  V30 26 H -5.75797 1.15486 0.649187 0
M  V30 27 H -6.15733 -0.568028 0.875543 0
M  V30 28 H -3.92862 -0.171615 -2.35673 0
M  V30 END ATOM
M  V30 BEGIN BOND
M  V30 1 1 1 2
M  V30 2 2 2 3 CFG=2
M  V30 3 1 2 4
M  V30 4 1 4 5
M  V30 5 2 5 6 CFG=2
M  V30 6 1 6 7
M  V30 7 2 7 8
M  V30 8 1 8 9
M  V30 9 1 9 10
M  V30 10 2 10 11
M  V30 11 2 9 12 CFG=2
M  V30 12 1 12 13
M  V30 13 1 13 14
M  V30 14 1 14 15
M  V30 15 2 14 16 CFG=2
M  V30 16 1 11 6
M  V30 17 1 1 17
M  V30 18 1 1 18
M  V30 19 1 3 19
M  V30 20 1 4 20
M  V30 21 1 7 21
M  V30 22 1 8 22
M  V30 23 1 10 23
M  V30 24 1 11 24
M  V30 25 1 13 25
M  V30 26 1 15 26
M  V30 27 1 15 27
M  V30 28 1 16 28
M  V30 END BOND
M  V30 END CTAB
M  END
