
     RDKit          3D

  0  0  0  0  0  0  0  0  0  0999 V3000
M  V30 BEGIN CTAB
M  V30 COUNTS 22 23 0 0 0
M  V30 BEGIN ATOM
M  V30 1 N -2.65742 0.484985 -0.0127715 0
M  V30 2 C -1.28702 0.110493 0.0116129 0
M  V30 3 C -0.289107 1.05849 -0.130009 0
M  V30 4 C 1.04707 0.698185 -0.104466 0
M  V30 5 N 2.09331 1.6693 -0.249071 0
M  V30 6 C 1.33328 -0.643129 0.0680109 0
M  V30 7 C 0.336658 -1.58703 0.208974 0
M  V30 8 N 0.321308 -2.93702 0.386825 0
M  V30 9 O -0.912101 -3.346 0.460454 0
M  V30 10 N -1.73347 -2.34452 0.342088 0 CHG=1
M  V30 11 O -3.10258 -2.33458 0.364021 0 CHG=-1
M  V30 12 C -0.99178 -1.22616 0.183022 0
M  V30 13 N 2.69795 -1.03086 0.0952597 0 CHG=1
M  V30 14 O 3.23881 -1.6827 -0.969589 0 CHG=-1
M  V30 15 O 3.45186 -0.798024 1.08323 0
M  V30 16 N -0.610275 2.41247 -0.30302 0 CHG=1
M  V30 17 O -0.459088 3.3871 0.658824 0 CHG=-1
M  V30 18 O -1.07283 2.76094 -1.40681 0
M  V30 19 H -3.37716 0.0616168 -0.609388 0
M  V30 20 H -2.95509 1.25696 0.634645 0
M  V30 21 H 2.32467 1.93578 -1.24078 0
M  V30 22 H 2.603 2.09369 0.528937 0
M  V30 END ATOM
M  V30 BEGIN BOND
M  V30 1 1 1 2
M  V30 2 2 2 3
M  V30 3 1 3 4
M  V30 4 1 4 5
M  V30 5 2 4 6
M  V30 6 1 6 7
M  V30 7 2 7 8
M  V30 8 1 8 9
M  V30 9 1 9 10
M  V30 10 1 10 11
M  V30 11 2 10 12
M  V30 12 1 6 13
M  V30 13 1 13 14
M  V30 14 2 13 15
M  V30 15 1 3 16
M  V30 16 1 16 17
M  V30 17 2 16 18
M  V30 18 1 12 2
M  V30 19 1 12 7
M  V30 20 1 1 19
M  V30 21 1 1 20
M  V30 22 1 5 21
M  V30 23 1 5 22
M  V30 END BOND
M  V30 END CTAB
M  END
