
     RDKit          3D

  0  0  0  0  0  0  0  0  0  0999 V3000
M  V30 BEGIN CTAB
M  V30 COUNTS 25 25 0 0 0
M  V30 BEGIN ATOM
M  V30 1 C 3.84049 0.492548 0.0756938 0
M  V30 2 C 2.37891 0.448709 -0.369763 0
M  V30 3 C 1.54429 0.264222 0.87563 0
M  V30 4 C 0.103187 0.204669 0.590312 0
M  V30 5 N -0.720228 1.25572 0.555779 0
M  V30 6 C -1.95611 0.812597 0.264675 0
M  V30 7 C -1.90959 -0.553575 0.11188 0
M  V30 8 N -0.607382 -0.892829 0.323149 0
M  V30 9 N -0.16801 -2.21609 0.251286 0
M  V30 10 N -2.98721 -1.41645 -0.198389 0
M  V30 11 C -3.14505 1.67054 0.136701 0
M  V30 12 H 3.903 1.02346 1.05351 0
M  V30 13 H 4.17718 -0.553734 0.246415 0
M  V30 14 H 4.46544 1.04795 -0.62758 0
M  V30 15 H 2.25305 -0.337251 -1.11188 0
M  V30 16 H 2.17602 1.44237 -0.820953 0
M  V30 17 H 1.81752 1.10748 1.5599 0
M  V30 18 H 1.90515 -0.656057 1.41189 0
M  V30 19 H -0.242663 -2.86167 1.06777 0
M  V30 20 H 0.246192 -2.57826 -0.634439 0
M  V30 21 H -3.18379 -1.60995 -1.19584 0
M  V30 22 H -3.57387 -1.85097 0.550894 0
M  V30 23 H -3.13824 2.37254 1.01548 0
M  V30 24 H -3.1135 2.33602 -0.758395 0
M  V30 25 H -4.06478 1.04803 0.135242 0
M  V30 END ATOM
M  V30 BEGIN BOND
M  V30 1 1 1 2
M  V30 2 1 2 3
M  V30 3 1 3 4
M  V30 4 2 4 5
M  V30 5 1 5 6
M  V30 6 2 6 7
M  V30 7 1 7 8
M  V30 8 1 8 9
M  V30 9 1 7 10
M  V30 10 1 6 11
M  V30 11 1 8 4
M  V30 12 1 1 12
M  V30 13 1 1 13
M  V30 14 1 1 14
M  V30 15 1 2 15
M  V30 16 1 2 16
M  V30 17 1 3 17
M  V30 18 1 3 18
M  V30 19 1 9 19
M  V30 20 1 9 20
M  V30 21 1 10 21
M  V30 22 1 10 22
M  V30 23 1 11 23
M  V30 24 1 11 24
M  V30 25 1 11 25
M  V30 END BOND
M  V30 END CTAB
M  END
