
     RDKit          3D

  0  0  0  0  0  0  0  0  0  0999 V3000
M  V30 BEGIN CTAB
M  V30 COUNTS 29 29 0 0 0
M  V30 BEGIN ATOM
M  V30 1 C -3.18034 0.235523 -0.0162893 0
M  V30 2 C -1.70138 0.112981 0.0219104 0
M  V30 3 C -0.925591 1.22305 -0.240974 0
M  V30 4 N -1.59699 2.45263 -0.541276 0
M  V30 5 C 0.475014 1.1724 -0.220429 0
M  V30 6 C 1.25916 2.3768 -0.515074 0
M  V30 7 C 1.07929 -0.0275743 0.0726508 0
M  V30 8 C 0.316771 -1.16375 0.34145 0
M  V30 9 C 0.965002 -2.42265 0.640296 0
M  V30 10 C -1.05674 -1.07617 0.312156 0
M  V30 11 N -1.85104 -2.23554 0.586685 0
M  V30 12 S 2.77998 -0.178586 0.124703 0
M  V30 13 O 3.43909 -0.598352 -1.39017 0
M  V30 14 O 3.43864 1.14445 0.430118 0
M  V30 15 O 3.28587 -1.11943 1.18523 0
M  V30 16 H -3.55831 0.549072 -1.0131 0
M  V30 17 H -3.65762 -0.736931 0.205988 0
M  V30 18 H -3.52208 1.00301 0.703528 0
M  V30 19 H -2.29669 2.88821 0.0993843 0
M  V30 20 H -1.39506 2.95057 -1.4293 0
M  V30 21 H 0.611056 3.17677 -0.977071 0
M  V30 22 H 1.70019 2.83494 0.39623 0
M  V30 23 H 2.07601 2.24411 -1.24456 0
M  V30 24 H 1.29431 -2.42763 1.70018 0
M  V30 25 H 0.204307 -3.26416 0.606182 0
M  V30 26 H 1.83287 -2.69128 0.0261348 0
M  V30 27 H -2.54797 -2.25113 1.35269 0
M  V30 28 H -1.7568 -3.11508 0.0208942 0
M  V30 29 H 4.28906 -1.05627 -1.23816 0
M  V30 END ATOM
M  V30 BEGIN BOND
M  V30 1 1 1 2
M  V30 2 2 2 3
M  V30 3 1 3 4
M  V30 4 1 3 5
M  V30 5 1 5 6
M  V30 6 2 5 7
M  V30 7 1 7 8
M  V30 8 1 8 9
M  V30 9 2 8 10
M  V30 10 1 10 11
M  V30 11 1 7 12
M  V30 12 1 12 13
M  V30 13 2 12 14
M  V30 14 2 12 15
M  V30 15 1 10 2
M  V30 16 1 1 16
M  V30 17 1 1 17
M  V30 18 1 1 18
M  V30 19 1 4 19
M  V30 20 1 4 20
M  V30 21 1 6 21
M  V30 22 1 6 22
M  V30 23 1 6 23
M  V30 24 1 9 24
M  V30 25 1 9 25
M  V30 26 1 9 26
M  V30 27 1 11 27
M  V30 28 1 11 28
M  V30 29 1 13 29
M  V30 END BOND
M  V30 END CTAB
M  END
