
     RDKit          3D

  0  0  0  0  0  0  0  0  0  0999 V3000
M  V30 BEGIN CTAB
M  V30 COUNTS 50 54 0 0 0
M  V30 BEGIN ATOM
M  V30 1 N 5.63005 3.10189 1.41775 0
M  V30 2 C 5.7085 1.73031 1.71439 0
M  V30 3 N 6.12571 1.22629 2.88983 0
M  V30 4 O 6.06729 -0.0714329 2.80627 0
M  V30 5 C 5.63611 -0.460376 1.64539 0
M  V30 6 C 5.38651 0.666399 0.89329 0
M  V30 7 C 4.91455 0.568511 -0.396791 0
M  V30 8 C 4.67505 -0.658431 -0.98175 0
M  V30 9 C 4.91728 -1.79089 -0.249563 0
M  V30 10 C 5.38893 -1.67721 1.03877 0
M  V30 11 N 4.18969 -0.739876 -2.31275 0
M  V30 12 N 4.92345 -0.809903 -3.43444 0
M  V30 13 N 4.10519 -0.873355 -4.48019 0
M  V30 14 N 2.8631 -0.841841 -3.99344 0
M  V30 15 C 2.90841 -0.759943 -2.6637 0
M  V30 16 C 1.78413 -0.698266 -1.6851 0
M  V30 17 O 2.05529 -0.623621 -0.468189 0
M  V30 18 N 0.501928 -0.732104 -2.25988 0
M  V30 19 C -0.705206 -0.688043 -1.56891 0
M  V30 20 C -1.92908 -0.730674 -2.28411 0
M  V30 21 F -1.86235 -0.813961 -3.62655 0
M  V30 22 C -3.10739 -0.68739 -1.61184 0
M  V30 23 C -3.18315 -0.6022 -0.238685 0
M  V30 24 C -2.01778 -0.56101 0.464211 0
M  V30 25 C -0.792 -0.604225 -0.211879 0
M  V30 26 C -4.44719 -0.596567 0.47102 0
M  V30 27 C -4.93405 0.54517 1.03483 0
M  V30 28 C -6.14388 0.543178 1.74459 0
M  V30 29 C -6.86918 -0.611826 1.88795 0
M  V30 30 C -6.38579 -1.76851 1.32132 0
M  V30 31 C -5.19961 -1.76344 0.626788 0
M  V30 32 S -4.13914 2.0666 0.899633 0
M  V30 33 N -3.97275 2.39305 -0.813556 0
M  V30 34 O -4.99835 3.18234 1.50809 0
M  V30 35 O -2.81907 2.19013 1.52783 0
M  V30 36 H 6.42105 3.70095 1.10367 0
M  V30 37 H 4.68821 3.58492 1.51766 0
M  V30 38 H 4.7284 1.46836 -0.961254 0
M  V30 39 H 4.73558 -2.77358 -0.690252 0
M  V30 40 H 5.59566 -2.55665 1.6585 0
M  V30 41 H 0.428933 -0.799094 -3.34864 0
M  V30 42 H -4.05039 -0.719441 -2.15025 0
M  V30 43 H -2.01598 -0.509796 1.56322 0
M  V30 44 H 0.0927421 -0.564734 0.445589 0
M  V30 45 H -6.53177 1.44948 2.1941 0
M  V30 46 H -7.82002 -0.61154 2.44622 0
M  V30 47 H -6.96068 -2.683 1.43472 0
M  V30 48 H -4.81251 -2.66671 0.178661 0
M  V30 49 H -3.84347 3.43962 -0.942587 0
M  V30 50 H -4.93094 2.19245 -1.21254 0
M  V30 END ATOM
M  V30 BEGIN BOND
M  V30 1 1 1 2
M  V30 2 2 2 3
M  V30 3 1 3 4
M  V30 4 1 4 5
M  V30 5 2 5 6
M  V30 6 1 6 7
M  V30 7 2 7 8
M  V30 8 1 8 9
M  V30 9 2 9 10
M  V30 10 1 8 11
M  V30 11 1 11 12
M  V30 12 2 12 13
M  V30 13 1 13 14
M  V30 14 2 14 15
M  V30 15 1 15 16
M  V30 16 2 16 17
M  V30 17 1 16 18
M  V30 18 1 18 19
M  V30 19 2 19 20
M  V30 20 1 20 21
M  V30 21 1 20 22
M  V30 22 2 22 23
M  V30 23 1 23 24
M  V30 24 2 24 25
M  V30 25 1 23 26
M  V30 26 2 26 27
M  V30 27 1 27 28
M  V30 28 2 28 29
M  V30 29 1 29 30
M  V30 30 2 30 31
M  V30 31 1 27 32
M  V30 32 1 32 33
M  V30 33 2 32 34
M  V30 34 2 32 35
M  V30 35 1 6 2
M  V30 36 1 15 11
M  V30 37 1 25 19
M  V30 38 1 31 26
M  V30 39 1 10 5
M  V30 40 1 1 36
M  V30 41 1 1 37
M  V30 42 1 7 38
M  V30 43 1 9 39
M  V30 44 1 10 40
M  V30 45 1 18 41
M  V30 46 1 22 42
M  V30 47 1 24 43
M  V30 48 1 25 44
M  V30 49 1 28 45
M  V30 50 1 29 46
M  V30 51 1 30 47
M  V30 52 1 31 48
M  V30 53 1 33 49
M  V30 54 1 33 50
M  V30 END BOND
M  V30 END CTAB
M  END
