
     RDKit          3D

  0  0  0  0  0  0  0  0  0  0999 V3000
M  V30 BEGIN CTAB
M  V30 COUNTS 28 28 0 0 0
M  V30 BEGIN ATOM
M  V30 1 O -2.49282 1.70721 -0.672304 0
M  V30 2 C -2.6042 0.323758 -0.476041 0
M  V30 3 O -3.7468 -0.19535 -0.44973 0
M  V30 4 C -1.41182 -0.536208 -0.299788 0
M  V30 5 N -1.83608 -1.89123 -0.121095 0
M  V30 6 C -0.731504 -0.115286 1.00837 0
M  V30 7 C 0.696642 -0.527704 0.941327 0
M  V30 8 C 1.4262 0.39874 -0.013672 0
M  V30 9 C 0.588372 0.672932 -1.21575 0
M  V30 10 C -0.474226 -0.367331 -1.46836 0
M  V30 11 N 1.73703 1.63451 0.719048 0
M  V30 12 C 2.75805 -0.238811 -0.335114 0
M  V30 13 F 3.49244 0.549225 -1.20817 0
M  V30 14 F 3.47459 -0.284237 0.850686 0
M  V30 15 F 2.62897 -1.4932 -0.887161 0
M  V30 16 H -2.87383 2.36977 -0.00488576 0
M  V30 17 H -1.15964 -2.60001 -0.471355 0
M  V30 18 H -2.81349 -2.0737 -0.41521 0
M  V30 19 H -1.20593 -0.671837 1.85778 0
M  V30 20 H -0.899382 0.946233 1.20049 0
M  V30 21 H 0.735043 -1.54796 0.482501 0
M  V30 22 H 1.19515 -0.490083 1.92272 0
M  V30 23 H 1.25606 0.669121 -2.10448 0
M  V30 24 H 0.112434 1.68801 -1.20956 0
M  V30 25 H -0.0270526 -1.3296 -1.78675 0
M  V30 26 H -1.08721 -0.0150786 -2.32367 0
M  V30 27 H 2.37821 1.35166 1.49516 0
M  V30 28 H 0.884824 2.06645 1.11059 0
M  V30 END ATOM
M  V30 BEGIN BOND
M  V30 1 1 1 2
M  V30 2 2 2 3
M  V30 3 1 2 4
M  V30 4 1 4 5
M  V30 5 1 4 6
M  V30 6 1 6 7
M  V30 7 1 7 8
M  V30 8 1 8 9
M  V30 9 1 9 10
M  V30 10 1 8 11
M  V30 11 1 8 12
M  V30 12 1 12 13
M  V30 13 1 12 14
M  V30 14 1 12 15
M  V30 15 1 10 4
M  V30 16 1 1 16
M  V30 17 1 5 17
M  V30 18 1 5 18
M  V30 19 1 6 19
M  V30 20 1 6 20
M  V30 21 1 7 21
M  V30 22 1 7 22
M  V30 23 1 9 23
M  V30 24 1 9 24
M  V30 25 1 10 25
M  V30 26 1 10 26
M  V30 27 1 11 27
M  V30 28 1 11 28
M  V30 END BOND
M  V30 END CTAB
M  END
