
     RDKit          3D

  0  0  0  0  0  0  0  0  0  0999 V3000
M  V30 BEGIN CTAB
M  V30 COUNTS 18 17 0 0 0
M  V30 BEGIN ATOM
M  V30 1 C -2.90773 -0.706236 0.32048 0
M  V30 2 O -1.55955 -0.479012 0.683866 0
M  V30 3 C -0.82519 0.374338 -0.150709 0
M  V30 4 O -1.37213 0.879893 -1.14406 0
M  V30 5 C 0.599182 0.685718 0.132281 0
M  V30 6 N 1.08587 1.57457 -0.878427 0
M  V30 7 C 1.33286 -0.659912 0.0924428 0
M  V30 8 N 2.74391 -0.49036 0.355658 0
M  V30 9 H -2.89514 -1.54071 -0.41777 0
M  V30 10 H -3.446 -0.971793 1.25002 0
M  V30 11 H -3.30193 0.176718 -0.181174 0
M  V30 12 H 0.637692 1.11849 1.15746 0
M  V30 13 H 0.420095 1.69024 -1.6888 0
M  V30 14 H 1.17449 2.52709 -0.460843 0
M  V30 15 H 0.845886 -1.30168 0.85864 0
M  V30 16 H 1.13341 -1.08274 -0.907787 0
M  V30 17 H 3.21372 -0.393114 -0.576964 0
M  V30 18 H 3.12057 -1.40151 0.753204 0
M  V30 END ATOM
M  V30 BEGIN BOND
M  V30 1 1 1 2
M  V30 2 1 2 3
M  V30 3 2 3 4
M  V30 4 1 3 5
M  V30 5 1 5 6
M  V30 6 1 5 7
M  V30 7 1 7 8
M  V30 8 1 1 9
M  V30 9 1 1 10
M  V30 10 1 1 11
M  V30 11 1 5 12
M  V30 12 1 6 13
M  V30 13 1 6 14
M  V30 14 1 7 15
M  V30 15 1 7 16
M  V30 16 1 8 17
M  V30 17 1 8 18
M  V30 END BOND
M  V30 END CTAB
M  END
