
     RDKit          3D

  0  0  0  0  0  0  0  0  0  0999 V3000
M  V30 BEGIN CTAB
M  V30 COUNTS 43 46 0 0 0
M  V30 BEGIN ATOM
M  V30 1 N -5.93955 1.99412 0.139805 0
M  V30 2 C -4.78856 2.0541 0.0247362 0
M  V30 3 C -3.33679 2.15571 -0.113996 0
M  V30 4 C -2.83694 3.41051 -0.377162 0
M  V30 5 N -3.65761 4.53916 -0.50884 0
M  V30 6 N -1.48103 3.46178 -0.497419 0
M  V30 7 C -0.726248 2.35719 -0.363584 0
M  V30 8 C -1.18168 1.09407 -0.102443 0
M  V30 9 C -2.57981 1.01656 0.0256788 0
M  V30 10 C -3.29059 -0.211377 0.299395 0
M  V30 11 C -3.64936 -0.503194 1.5874 0
M  V30 12 C -4.34959 -1.66255 1.92149 0
M  V30 13 C -4.66673 -2.51116 0.877862 0
M  V30 14 C -4.31781 -2.24277 -0.432048 0
M  V30 15 C -3.62552 -1.08059 -0.703276 0
M  V30 16 Br -5.62369 -4.11261 1.26829 0
M  V30 17 C -0.270017 0.117501 -0.00275923 0
M  V30 18 N -0.576423 -1.27621 0.273086 0
M  V30 19 C 1.03651 0.45581 -0.168859 0
M  V30 20 S 0.958078 2.15421 -0.464232 0
M  V30 21 C 2.27998 -0.358505 -0.123638 0
M  V30 22 O 2.07658 -1.56665 0.11043 0
M  V30 23 N 3.50554 0.265585 -0.335748 0
M  V30 24 C 4.75143 -0.388751 -0.313307 0
M  V30 25 C 4.98283 -1.6499 0.159621 0
M  V30 26 C 6.23636 -2.24234 0.138791 0
M  V30 27 C 7.30047 -1.55505 -0.371225 0
M  V30 28 C 7.13384 -0.270409 -0.867189 0
M  V30 29 C 5.88388 0.275709 -0.827953 0
M  V30 30 H -4.13537 4.71018 -1.41571 0
M  V30 31 H -3.77667 5.18375 0.293094 0
M  V30 32 H -3.41538 0.142985 2.42997 0
M  V30 33 H -4.62362 -1.87041 2.95905 0
M  V30 34 H -4.57694 -2.92405 -1.23884 0
M  V30 35 H -3.37313 -0.913504 -1.74805 0
M  V30 36 H -0.637862 -1.95606 -0.500914 0
M  V30 37 H -0.716236 -1.51648 1.2738 0
M  V30 38 H 3.46855 1.31553 -0.523927 0
M  V30 39 H 4.18826 -2.24474 0.587056 0
M  V30 40 H 6.37654 -3.22971 0.517743 0
M  V30 41 H 8.30041 -1.97637 -0.409274 0
M  V30 42 H 7.96858 0.28726 -1.2745 0
M  V30 43 H 5.70531 1.27166 -1.2024 0
M  V30 END ATOM
M  V30 BEGIN BOND
M  V30 1 3 1 2
M  V30 2 1 2 3
M  V30 3 2 3 4
M  V30 4 1 4 5
M  V30 5 1 4 6
M  V30 6 2 6 7
M  V30 7 1 7 8
M  V30 8 2 8 9
M  V30 9 1 9 10
M  V30 10 2 10 11
M  V30 11 1 11 12
M  V30 12 2 12 13
M  V30 13 1 13 14
M  V30 14 2 14 15
M  V30 15 1 13 16
M  V30 16 1 8 17
M  V30 17 1 17 18
M  V30 18 2 17 19
M  V30 19 1 19 20
M  V30 20 1 19 21
M  V30 21 2 21 22
M  V30 22 1 21 23
M  V30 23 1 23 24
M  V30 24 2 24 25
M  V30 25 1 25 26
M  V30 26 2 26 27
M  V30 27 1 27 28
M  V30 28 2 28 29
M  V30 29 1 9 3
M  V30 30 1 15 10
M  V30 31 1 29 24
M  V30 32 1 20 7
M  V30 33 1 5 30
M  V30 34 1 5 31
M  V30 35 1 11 32
M  V30 36 1 12 33
M  V30 37 1 14 34
M  V30 38 1 15 35
M  V30 39 1 18 36
M  V30 40 1 18 37
M  V30 41 1 23 38
M  V30 42 1 25 39
M  V30 43 1 26 40
M  V30 44 1 27 41
M  V30 45 1 28 42
M  V30 46 1 29 43
M  V30 END BOND
M  V30 END CTAB
M  END
