
     RDKit          3D

  0  0  0  0  0  0  0  0  0  0999 V3000
M  V30 BEGIN CTAB
M  V30 COUNTS 64 67 0 0 0
M  V30 BEGIN ATOM
M  V30 1 N 9.57733 0.0625539 -1.00367 0
M  V30 2 C 9.59944 0.455862 0.320953 0
M  V30 3 C 8.5773 -0.155177 1.24465 0
M  V30 4 O 7.29125 0.011165 1.01336 0
M  V30 5 C 6.22488 -0.192092 0.234634 0
M  V30 6 C 6.22419 -0.916563 -0.945301 0
M  V30 7 C 5.10037 -1.07799 -1.69128 0
M  V30 8 C 3.91058 -0.505509 -1.26839 0
M  V30 9 C 3.82543 0.219643 -0.117807 0
M  V30 10 C 5.00423 0.367572 0.626566 0
M  V30 11 C 2.60283 0.776277 0.402669 0
M  V30 12 O 2.76783 1.69996 1.3187 0
M  V30 13 N 1.26802 0.479311 0.0795028 0
M  V30 14 C 0.267054 1.34518 0.756452 0
M  V30 15 C -0.817236 0.536014 1.34462 0
M  V30 16 C -1.54472 -0.254333 0.263702 0
M  V30 17 C -0.519167 -1.15861 -0.358875 0
M  V30 18 C 0.770022 -0.556631 -0.762787 0
M  V30 19 O -2.49649 -1.05981 0.871907 0
M  V30 20 C -3.5793 -0.37643 1.35417 0
M  V30 21 C -4.25394 0.506489 0.330569 0 CFG=1
M  V30 22 C -3.58239 0.442286 -1.01368 0 CFG=1
M  V30 23 C -2.09621 0.665493 -0.772316 0
M  V30 24 C -3.81912 -0.823689 -1.75948 0
M  V30 25 O -4.05192 1.50401 -1.78988 0
M  V30 26 N -5.68221 0.306075 0.26898 0
M  V30 27 C -6.21351 -0.936048 0.18733 0
M  V30 28 C -7.58418 -1.09618 0.130277 0
M  V30 29 C -8.40888 0.00775088 0.156425 0
M  V30 30 N -7.86385 1.23812 0.237926 0
M  V30 31 C -6.54547 1.35562 0.290995 0
M  V30 32 O -6.00396 2.50728 0.368467 0
M  V30 33 N -9.82711 -0.0735944 0.101819 0
M  V30 34 H 10.3584 -0.449191 -1.34701 0
M  V30 35 H 9.12477 0.660835 -1.65798 0
M  V30 36 H 9.47235 1.56391 0.410409 0
M  V30 37 H 10.599 0.242437 0.805007 0
M  V30 38 H 8.82852 0.232003 2.29366 0
M  V30 39 H 8.87862 -1.25817 1.35582 0
M  V30 40 H 7.14142 -1.40238 -1.29751 0
M  V30 41 H 5.12164 -1.64607 -2.6087 0
M  V30 42 H 3.07573 -0.629037 -1.92306 0
M  V30 43 H 4.94252 0.934718 1.52875 0
M  V30 44 H 0.726791 1.96797 1.52581 0
M  V30 45 H -0.055592 2.0374 -0.0484693 0
M  V30 46 H -0.379127 -0.184505 2.05921 0
M  V30 47 H -1.50342 1.17797 1.89528 0
M  V30 48 H -1.00525 -1.55902 -1.29969 0
M  V30 49 H -0.368217 -2.08599 0.25856 0
M  V30 50 H 1.51415 -1.41499 -0.663692 0
M  V30 51 H 0.753935 -0.256529 -1.83618 0
M  V30 52 H -3.34297 0.185444 2.30516 0
M  V30 53 H -4.33752 -1.13365 1.67203 0
M  V30 54 H -4.09851 1.56465 0.696562 0
M  V30 55 H -1.57621 0.587231 -1.75021 0
M  V30 56 H -2.02242 1.75425 -0.479116 0
M  V30 57 H -3.11967 -0.809355 -2.64685 0
M  V30 58 H -4.83947 -0.819956 -2.22388 0
M  V30 59 H -3.59637 -1.74598 -1.22275 0
M  V30 60 H -4.09467 1.25815 -2.7466 0
M  V30 61 H -5.54837 -1.78526 0.168348 0
M  V30 62 H -8.04426 -2.08459 0.064035 0
M  V30 63 H -10.3853 -0.132088 -0.769046 0
M  V30 64 H -10.3416 -0.0742017 1.00858 0
M  V30 END ATOM
M  V30 BEGIN BOND
M  V30 1 1 1 2
M  V30 2 1 2 3
M  V30 3 1 3 4
M  V30 4 1 4 5
M  V30 5 2 5 6
M  V30 6 1 6 7
M  V30 7 2 7 8
M  V30 8 1 8 9
M  V30 9 2 9 10
M  V30 10 1 9 11
M  V30 11 2 11 12
M  V30 12 1 11 13
M  V30 13 1 13 14
M  V30 14 1 14 15
M  V30 15 1 15 16
M  V30 16 1 16 17
M  V30 17 1 17 18
M  V30 18 1 16 19
M  V30 19 1 19 20
M  V30 20 1 20 21
M  V30 21 1 21 22
M  V30 22 1 22 23
M  V30 23 1 22 24
M  V30 24 1 22 25 CFG=3
M  V30 25 1 21 26
M  V30 26 1 26 27
M  V30 27 2 27 28
M  V30 28 1 28 29
M  V30 29 2 29 30
M  V30 30 1 30 31
M  V30 31 2 31 32
M  V30 32 1 29 33
M  V30 33 1 10 5
M  V30 34 1 18 13
M  V30 35 1 31 26
M  V30 36 1 23 16
M  V30 37 1 1 34
M  V30 38 1 1 35
M  V30 39 1 2 36
M  V30 40 1 2 37
M  V30 41 1 3 38
M  V30 42 1 3 39
M  V30 43 1 6 40
M  V30 44 1 7 41
M  V30 45 1 8 42
M  V30 46 1 10 43
M  V30 47 1 14 44
M  V30 48 1 14 45
M  V30 49 1 15 46
M  V30 50 1 15 47
M  V30 51 1 17 48
M  V30 52 1 17 49
M  V30 53 1 18 50
M  V30 54 1 18 51
M  V30 55 1 20 52
M  V30 56 1 20 53
M  V30 57 1 21 54 CFG=1
M  V30 58 1 23 55
M  V30 59 1 23 56
M  V30 60 1 24 57
M  V30 61 1 24 58
M  V30 62 1 24 59
M  V30 63 1 25 60
M  V30 64 1 27 61
M  V30 65 1 28 62
M  V30 66 1 33 63
M  V30 67 1 33 64
M  V30 END BOND
M  V30 END CTAB
M  END
