
     RDKit          3D

  0  0  0  0  0  0  0  0  0  0999 V3000
M  V30 BEGIN CTAB
M  V30 COUNTS 21 21 0 0 0
M  V30 BEGIN ATOM
M  V30 1 C 3.43512 0.416377 -0.149426 0
M  V30 2 C 2.05167 0.31072 -0.708384 0
M  V30 3 C 1.06129 -0.217444 0.315941 0
M  V30 4 C -0.295066 -0.179938 -0.316208 0
M  V30 5 N -0.553623 -0.0583996 -1.63101 0
M  V30 6 N -1.85355 -0.00286474 -1.80158 0
M  V30 7 C -2.48022 -0.089316 -0.575942 0
M  V30 8 N -1.49686 -0.197459 0.313342 0
M  V30 9 N -1.61753 -0.292588 1.71856 0
M  V30 10 N -3.87612 -0.0391139 -0.332588 0
M  V30 11 F 1.44903 -1.55215 0.498103 0
M  V30 12 F 1.10785 0.447766 1.47 0
M  V30 13 H 3.63488 1.49109 0.144091 0
M  V30 14 H 3.53038 -0.279491 0.703335 0
M  V30 15 H 4.18773 0.178249 -0.93459 0
M  V30 16 H 1.72386 1.21964 -1.22317 0
M  V30 17 H 2.10699 -0.477202 -1.53069 0
M  V30 18 H -1.82323 -1.21594 2.21463 0
M  V30 19 H -1.50302 0.550187 2.29791 0
M  V30 20 H -4.41996 0.82963 -0.53688 0
M  V30 21 H -4.36962 -0.841755 0.0645526 0
M  V30 END ATOM
M  V30 BEGIN BOND
M  V30 1 1 1 2
M  V30 2 1 2 3
M  V30 3 1 3 4
M  V30 4 2 4 5
M  V30 5 1 5 6
M  V30 6 2 6 7
M  V30 7 1 7 8
M  V30 8 1 8 9
M  V30 9 1 7 10
M  V30 10 1 3 11
M  V30 11 1 3 12
M  V30 12 1 8 4
M  V30 13 1 1 13
M  V30 14 1 1 14
M  V30 15 1 1 15
M  V30 16 1 2 16
M  V30 17 1 2 17
M  V30 18 1 9 18
M  V30 19 1 9 19
M  V30 20 1 10 20
M  V30 21 1 10 21
M  V30 END BOND
M  V30 END CTAB
M  END
