
     RDKit          3D

  0  0  0  0  0  0  0  0  0  0999 V3000
M  V30 BEGIN CTAB
M  V30 COUNTS 26 26 0 0 0
M  V30 BEGIN ATOM
M  V30 1 N 1.36737 1.40841 -1.24079 0
M  V30 2 C 1.46338 1.05732 0.127333 0
M  V30 3 C 0.51532 -0.0521259 0.580966 0
M  V30 4 N 0.827534 -0.213238 2.01778 0
M  V30 5 C 0.93225 -1.32168 -0.0784149 0
M  V30 6 C -0.0575582 -1.9392 -0.992403 0
M  V30 7 O -1.13579 -1.13994 -1.32193 0
M  V30 8 C -1.76132 -0.83516 -0.11352 0
M  V30 9 C -0.918332 0.294211 0.4943 0
M  V30 10 C -1.25364 1.53587 -0.284654 0
M  V30 11 H 1.01358 0.713819 -1.89235 0
M  V30 12 H 1.11245 2.39675 -1.44568 0
M  V30 13 H 1.35355 1.95564 0.802567 0
M  V30 14 H 2.48767 0.669505 0.347608 0
M  V30 15 H -0.0242534 -0.499942 2.5457 0
M  V30 16 H 1.23081 0.630281 2.42376 0
M  V30 17 H 1.23163 -2.12844 0.658948 0
M  V30 18 H 1.8832 -1.17928 -0.676578 0
M  V30 19 H 0.39518 -2.26676 -1.97386 0
M  V30 20 H -0.497409 -2.88466 -0.5613 0
M  V30 21 H -2.79647 -0.523485 -0.211245 0
M  V30 22 H -1.71074 -1.70162 0.59659 0
M  V30 23 H -1.39403 0.448541 1.51059 0
M  V30 24 H -1.2181 1.41139 -1.37026 0
M  V30 25 H -2.34032 1.75798 -0.0554553 0
M  V30 26 H -0.705956 2.40581 0.112278 0
M  V30 END ATOM
M  V30 BEGIN BOND
M  V30 1 1 1 2
M  V30 2 1 2 3
M  V30 3 1 3 4
M  V30 4 1 3 5
M  V30 5 1 5 6
M  V30 6 1 6 7
M  V30 7 1 7 8
M  V30 8 1 8 9
M  V30 9 1 9 10
M  V30 10 1 9 3
M  V30 11 1 1 11
M  V30 12 1 1 12
M  V30 13 1 2 13
M  V30 14 1 2 14
M  V30 15 1 4 15
M  V30 16 1 4 16
M  V30 17 1 5 17
M  V30 18 1 5 18
M  V30 19 1 6 19
M  V30 20 1 6 20
M  V30 21 1 8 21
M  V30 22 1 8 22
M  V30 23 1 9 23
M  V30 24 1 10 24
M  V30 25 1 10 25
M  V30 26 1 10 26
M  V30 END BOND
M  V30 END CTAB
M  END
