
     RDKit          3D

  0  0  0  0  0  0  0  0  0  0999 V3000
M  V30 BEGIN CTAB
M  V30 COUNTS 25 26 0 0 0
M  V30 BEGIN ATOM
M  V30 1 N 4.08807 0.873958 -0.778468 0
M  V30 2 C 3.86191 -0.210333 0.100684 0
M  V30 3 N 4.80619 -0.605762 0.871186 0
M  V30 4 N 2.57374 -0.799711 0.0679546 0
M  V30 5 N 1.47694 0.0451127 0.173423 0
M  V30 6 C 0.259991 -0.323848 0.0631457 0
M  V30 7 N -0.180741 -1.65946 -0.185937 0
M  V30 8 C -1.46518 -1.69683 -0.241068 0
M  V30 9 C -2.01671 -0.364391 -0.0301077 0
M  V30 10 C -0.935279 0.50449 0.162023 0
M  V30 11 C -1.15446 1.84702 0.38733 0
M  V30 12 C -2.42417 2.38605 0.433055 0
M  V30 13 C -3.4812 1.51876 0.242125 0
M  V30 14 C -3.28795 0.171067 0.0149375 0
M  V30 15 N -2.20242 -2.88684 -0.476038 0
M  V30 16 H 4.38858 0.675457 -1.74622 0
M  V30 17 H 3.9449 1.83327 -0.423202 0
M  V30 18 H 5.72946 -0.134529 0.850588 0
M  V30 19 H 2.49474 -1.81956 -0.0314579 0
M  V30 20 H -0.283482 2.47287 0.529212 0
M  V30 21 H -2.5891 3.44579 0.611221 0
M  V30 22 H -4.4761 1.95074 0.279629 0
M  V30 23 H -4.13104 -0.501513 -0.134007 0
M  V30 24 H -2.7674 -3.02788 -1.34789 0
M  V30 25 H -2.22929 -3.69393 0.200708 0
M  V30 END ATOM
M  V30 BEGIN BOND
M  V30 1 1 1 2
M  V30 2 2 2 3 CFG=2
M  V30 3 1 2 4
M  V30 4 1 4 5
M  V30 5 2 5 6
M  V30 6 1 6 7
M  V30 7 2 7 8
M  V30 8 1 8 9
M  V30 9 2 9 10
M  V30 10 1 10 11
M  V30 11 2 11 12
M  V30 12 1 12 13
M  V30 13 2 13 14
M  V30 14 1 8 15
M  V30 15 1 6 10
M  V30 16 1 14 9
M  V30 17 1 1 16
M  V30 18 1 1 17
M  V30 19 1 3 18
M  V30 20 1 4 19
M  V30 21 1 11 20
M  V30 22 1 12 21
M  V30 23 1 13 22
M  V30 24 1 14 23
M  V30 25 1 15 24
M  V30 26 1 15 25
M  V30 END BOND
M  V30 END CTAB
M  END
