
     RDKit          3D

  0  0  0  0  0  0  0  0  0  0999 V3000
M  V30 BEGIN CTAB
M  V30 COUNTS 31 32 0 0 0
M  V30 BEGIN ATOM
M  V30 1 C -1.2491 -1.53974 -1.28182 0
M  V30 2 C -1.19182 -0.784556 0.073321 0
M  V30 3 C -0.933275 -1.85373 1.10983 0
M  V30 4 N -2.51459 -0.282352 0.27229 0
M  V30 5 C -2.8359 0.949573 0.327946 0
M  V30 6 N -4.22549 1.25893 0.533198 0
M  V30 7 N -1.87646 1.99379 0.214471 0
M  V30 8 C -0.661885 1.61531 0.0551942 0
M  V30 9 N 0.300579 2.69097 -0.0610279 0
M  V30 10 N -0.235026 0.258104 0.00973247 0
M  V30 11 C 1.16736 0.0614507 -0.092201 0
M  V30 12 C 1.74553 -0.111447 -1.32712 0
M  V30 13 C 3.1317 -0.295245 -1.45263 0
M  V30 14 C 3.91216 -0.302091 -0.335847 0
M  V30 15 C 3.35622 -0.130929 0.907833 0
M  V30 16 C 1.97673 0.0503616 1.00879 0
M  V30 17 I 1.21792 0.331708 2.92965 0
M  V30 18 H -2.14811 -2.19261 -1.19834 0
M  V30 19 H -1.40001 -0.788492 -2.08805 0
M  V30 20 H -0.308303 -2.0964 -1.36295 0
M  V30 21 H -1.35543 -1.59385 2.1026 0
M  V30 22 H 0.085697 -2.23148 1.14164 0
M  V30 23 H -1.5749 -2.73183 0.781737 0
M  V30 24 H -4.88884 1.32951 -0.258191 0
M  V30 25 H -4.51432 1.40558 1.52569 0
M  V30 26 H 0.198616 3.35892 -0.848361 0
M  V30 27 H 1.05635 2.76411 0.636762 0
M  V30 28 H 1.17329 -0.115546 -2.25797 0
M  V30 29 H 3.59993 -0.431397 -2.40513 0
M  V30 30 H 4.98851 -0.445326 -0.436435 0
M  V30 31 H 4.00286 -0.141302 1.77539 0
M  V30 END ATOM
M  V30 BEGIN BOND
M  V30 1 1 1 2
M  V30 2 1 2 3
M  V30 3 1 2 4
M  V30 4 2 4 5
M  V30 5 1 5 6
M  V30 6 1 5 7
M  V30 7 2 7 8
M  V30 8 1 8 9
M  V30 9 1 8 10
M  V30 10 1 10 11
M  V30 11 2 11 12
M  V30 12 1 12 13
M  V30 13 2 13 14
M  V30 14 1 14 15
M  V30 15 2 15 16
M  V30 16 1 16 17
M  V30 17 1 10 2
M  V30 18 1 16 11
M  V30 19 1 1 18
M  V30 20 1 1 19
M  V30 21 1 1 20
M  V30 22 1 3 21
M  V30 23 1 3 22
M  V30 24 1 3 23
M  V30 25 1 6 24
M  V30 26 1 6 25
M  V30 27 1 9 26
M  V30 28 1 9 27
M  V30 29 1 12 28
M  V30 30 1 13 29
M  V30 31 1 14 30
M  V30 32 1 15 31
M  V30 END BOND
M  V30 END CTAB
M  END
