
     RDKit          3D

  0  0  0  0  0  0  0  0  0  0999 V3000
M  V30 BEGIN CTAB
M  V30 COUNTS 24 25 0 0 0
M  V30 BEGIN ATOM
M  V30 1 N -4.81681 0.334981 0.519663 0
M  V30 2 N -3.6686 -0.108023 -0.146938 0
M  V30 3 C -2.38157 0.165158 0.331225 0
M  V30 4 N -2.08417 0.855191 1.43972 0
M  V30 5 N -0.772038 0.89672 1.54994 0
M  V30 6 C -0.199479 0.227707 0.504142 0
M  V30 7 N -1.20213 -0.222439 -0.246167 0
M  V30 8 N -1.12906 -0.962314 -1.42155 0
M  V30 9 C 1.24327 0.10747 0.361192 0
M  V30 10 C 1.87986 -0.55156 -0.666573 0
M  V30 11 C 3.2755 -0.628914 -0.74284 0
M  V30 12 C 4.07373 -0.0492646 0.206744 0
M  V30 13 C 3.44481 0.611623 1.23772 0
M  V30 14 C 2.07374 0.690695 1.31755 0
M  V30 15 H -4.57002 0.340599 1.54187 0
M  V30 16 H -4.9555 1.32633 0.244328 0
M  V30 17 H -3.79328 -0.648316 -1.01125 0
M  V30 18 H -1.29906 -0.473028 -2.32107 0
M  V30 19 H -0.908062 -1.97379 -1.35966 0
M  V30 20 H 1.29759 -1.02367 -1.43771 0
M  V30 21 H 3.73701 -1.15335 -1.56222 0
M  V30 22 H 5.14473 -0.0714073 0.207469 0
M  V30 23 H 4.02801 1.09045 2.01958 0
M  V30 24 H 1.58153 1.21916 2.14229 0
M  V30 END ATOM
M  V30 BEGIN BOND
M  V30 1 1 1 2
M  V30 2 1 2 3
M  V30 3 2 3 4
M  V30 4 1 4 5
M  V30 5 2 5 6
M  V30 6 1 6 7
M  V30 7 1 7 8
M  V30 8 1 6 9
M  V30 9 2 9 10
M  V30 10 1 10 11
M  V30 11 2 11 12
M  V30 12 1 12 13
M  V30 13 2 13 14
M  V30 14 1 7 3
M  V30 15 1 14 9
M  V30 16 1 1 15
M  V30 17 1 1 16
M  V30 18 1 2 17
M  V30 19 1 8 18
M  V30 20 1 8 19
M  V30 21 1 10 20
M  V30 22 1 11 21
M  V30 23 1 12 22
M  V30 24 1 13 23
M  V30 25 1 14 24
M  V30 END BOND
M  V30 END CTAB
M  END
