
     RDKit          3D

  0  0  0  0  0  0  0  0  0  0999 V3000
M  V30 BEGIN CTAB
M  V30 COUNTS 52 53 0 0 0
M  V30 BEGIN ATOM
M  V30 1 N 6.39988 -0.873813 -2.18562 0
M  V30 2 C 5.77834 0.126862 -1.30637 0
M  V30 3 C 5.27507 -0.613025 -0.0850401 0
M  V30 4 C 4.61779 0.358357 0.873474 0
M  V30 5 C 3.45151 1.06278 0.246956 0
M  V30 6 C 2.37361 0.0842282 -0.20193 0 CFG=2
M  V30 7 C 1.2949 0.881631 -0.793033 0
M  V30 8 O 1.66538 1.62843 -1.77977 0
M  V30 9 N -0.0509433 0.942143 -0.442255 0
M  V30 10 C -0.956493 1.81572 -1.2088 0
M  V30 11 C -2.11511 0.859929 -1.56387 0
M  V30 12 C -2.88449 0.727458 -0.27038 0 CFG=2
M  V30 13 C -2.05316 0.617332 0.949432 0 CFG=2
M  V30 14 C -0.623306 0.194769 0.639245 0
M  V30 15 C -2.59969 -0.352503 1.97533 0
M  V30 16 O -1.93105 1.84535 1.64844 0
M  V30 17 N -3.99693 -0.194145 -0.338904 0
M  V30 18 C -5.26468 0.215772 -0.0528187 0
M  V30 19 C -6.36066 -0.614934 -0.100331 0
M  V30 20 C -6.15822 -1.92737 -0.456248 0
M  V30 21 O -7.13362 -2.72135 -0.512146 0
M  V30 22 N -4.92698 -2.33995 -0.737681 0
M  V30 23 C -3.88993 -1.49127 -0.677128 0
M  V30 24 O -2.77375 -1.97092 -0.958434 0
M  V30 25 N 1.9819 -0.801096 0.836806 0
M  V30 26 H 7.26346 -1.18391 -1.65852 0
M  V30 27 H 5.74096 -1.69745 -2.22159 0
M  V30 28 H 6.47036 0.940991 -1.06695 0
M  V30 29 H 4.86172 0.5131 -1.84036 0
M  V30 30 H 6.08437 -1.1383 0.431093 0
M  V30 31 H 4.56528 -1.39078 -0.448696 0
M  V30 32 H 5.36581 1.1142 1.14443 0
M  V30 33 H 4.27415 -0.148247 1.77604 0
M  V30 34 H 3.72003 1.68379 -0.621009 0
M  V30 35 H 2.99862 1.70817 1.03813 0
M  V30 36 H 2.80537 -0.532517 -1.0482 0
M  V30 37 H -1.31254 2.6611 -0.589278 0
M  V30 38 H -0.519922 2.13774 -2.1533 0
M  V30 39 H -1.63552 -0.0445768 -1.924 0
M  V30 40 H -2.77563 1.33376 -2.31843 0
M  V30 41 H -3.3811 1.75588 -0.190358 0
M  V30 42 H -0.548872 -0.906612 0.526695 0
M  V30 43 H -0.0647272 0.430433 1.60041 0
M  V30 44 H -2.23583 -0.0654822 3.00671 0
M  V30 45 H -2.18701 -1.37626 1.81739 0
M  V30 46 H -3.70056 -0.33353 2.04784 0
M  V30 47 H -1.65865 1.68972 2.57861 0
M  V30 48 H -5.4359 1.2466 0.228502 0
M  V30 49 H -7.36979 -0.243695 0.138572 0
M  V30 50 H -4.79837 -3.33725 -1.00447 0
M  V30 51 H 2.15398 -0.479191 1.79692 0
M  V30 52 H 2.20093 -1.79807 0.665548 0
M  V30 END ATOM
M  V30 BEGIN BOND
M  V30 1 1 1 2
M  V30 2 1 2 3
M  V30 3 1 3 4
M  V30 4 1 4 5
M  V30 5 1 5 6
M  V30 6 1 6 7
M  V30 7 2 7 8
M  V30 8 1 7 9
M  V30 9 1 9 10
M  V30 10 1 10 11
M  V30 11 1 11 12
M  V30 12 1 12 13
M  V30 13 1 13 14
M  V30 14 1 13 15
M  V30 15 1 13 16 CFG=1
M  V30 16 1 12 17
M  V30 17 1 17 18
M  V30 18 2 18 19
M  V30 19 1 19 20
M  V30 20 2 20 21
M  V30 21 1 20 22
M  V30 22 1 22 23
M  V30 23 2 23 24
M  V30 24 1 6 25
M  V30 25 1 14 9
M  V30 26 1 23 17
M  V30 27 1 1 26
M  V30 28 1 1 27
M  V30 29 1 2 28
M  V30 30 1 2 29
M  V30 31 1 3 30
M  V30 32 1 3 31
M  V30 33 1 4 32
M  V30 34 1 4 33
M  V30 35 1 5 34
M  V30 36 1 5 35
M  V30 37 1 6 36 CFG=3
M  V30 38 1 10 37
M  V30 39 1 10 38
M  V30 40 1 11 39
M  V30 41 1 11 40
M  V30 42 1 12 41 CFG=1
M  V30 43 1 14 42
M  V30 44 1 14 43
M  V30 45 1 15 44
M  V30 46 1 15 45
M  V30 47 1 15 46
M  V30 48 1 16 47
M  V30 49 1 18 48
M  V30 50 1 19 49
M  V30 51 1 22 50
M  V30 52 1 25 51
M  V30 53 1 25 52
M  V30 END BOND
M  V30 END CTAB
M  END
