
     RDKit          3D

  0  0  0  0  0  0  0  0  0  0999 V3000
M  V30 BEGIN CTAB
M  V30 COUNTS 56 59 0 0 0
M  V30 BEGIN ATOM
M  V30 1 N -3.86124 -0.68782 3.02179 0
M  V30 2 C -4.18945 -1.3146 1.80131 0
M  V30 3 C -3.10853 -1.26099 0.764153 0 CFG=2
M  V30 4 C -1.86701 -1.95481 1.30483 0
M  V30 5 N -0.74308 -1.20924 0.791247 0
M  V30 6 C -1.234 -0.224262 -0.138222 0
M  V30 7 C -2.58962 0.12395 0.498085 0 CFG=1
M  V30 8 C -3.38757 0.862339 -0.502717 0
M  V30 9 C -3.77348 2.15887 -0.25028 0
M  V30 10 C -4.52659 2.88641 -1.17063 0
M  V30 11 C -4.8983 2.31968 -2.35062 0
M  V30 12 C -4.52878 1.03192 -2.62864 0
M  V30 13 C -3.77258 0.306879 -1.70019 0
M  V30 14 C 0.611419 -1.39844 1.13884 0
M  V30 15 O 0.866385 -2.31314 1.99728 0
M  V30 16 C 1.7245 -0.600663 0.563375 0
M  V30 17 C 1.86928 -0.863561 -0.897093 0
M  V30 18 C 3.11527 -0.155124 -1.43462 0
M  V30 19 C 2.98525 1.32397 -1.27611 0
M  V30 20 C 3.80998 1.93375 -0.201606 0
M  V30 21 C 4.20533 1.0874 0.928862 0
M  V30 22 C 4.23051 -0.38765 0.688277 0
M  V30 23 C 2.99692 -1.04078 1.24347 0
M  V30 24 C 4.32644 -0.732222 -0.783167 0
M  V30 25 N 5.55056 -0.234635 -1.3271 0
M  V30 26 H -2.97201 -0.354339 3.1991 0
M  V30 27 H -4.3329 -1.11339 3.79862 0
M  V30 28 H -4.36916 -2.39 2.03086 0
M  V30 29 H -5.15 -0.929779 1.40042 0
M  V30 30 H -3.46205 -1.68631 -0.178821 0
M  V30 31 H -1.92774 -1.91997 2.41043 0
M  V30 32 H -1.85255 -3.02012 0.980054 0
M  V30 33 H -0.594545 0.665685 -0.228964 0
M  V30 34 H -1.4236 -0.710559 -1.12856 0
M  V30 35 H -2.36542 0.698589 1.39241 0
M  V30 36 H -3.50989 2.64919 0.655864 0
M  V30 37 H -4.82713 3.90563 -0.966483 0
M  V30 38 H -5.49214 2.9016 -3.06981 0
M  V30 39 H -4.83496 0.594781 -3.57743 0
M  V30 40 H -3.51052 -0.696614 -1.96811 0
M  V30 41 H 1.54574 0.474435 0.789824 0
M  V30 42 H 0.993623 -0.596518 -1.51033 0
M  V30 43 H 2.0938 -1.95812 -1.01398 0
M  V30 44 H 3.15415 -0.443785 -2.52538 0
M  V30 45 H 3.25337 1.79143 -2.25193 0
M  V30 46 H 1.89997 1.546 -1.13391 0
M  V30 47 H 3.25786 2.82618 0.185343 0
M  V30 48 H 4.74557 2.37644 -0.658105 0
M  V30 49 H 5.21986 1.37176 1.31014 0
M  V30 50 H 3.52903 1.2483 1.82033 0
M  V30 51 H 5.10096 -0.875386 1.1788 0
M  V30 52 H 3.09679 -2.13753 1.05131 0
M  V30 53 H 2.92151 -0.914653 2.34266 0
M  V30 54 H 4.28051 -1.83449 -0.85968 0
M  V30 55 H 5.43895 -0.135256 -2.35673 0
M  V30 56 H 6.28128 -0.990422 -1.19848 0
M  V30 END ATOM
M  V30 BEGIN BOND
M  V30 1 1 1 2
M  V30 2 1 2 3
M  V30 3 1 3 4
M  V30 4 1 4 5
M  V30 5 1 5 6
M  V30 6 1 6 7
M  V30 7 1 7 8
M  V30 8 2 8 9
M  V30 9 1 9 10
M  V30 10 2 10 11
M  V30 11 1 11 12
M  V30 12 2 12 13
M  V30 13 1 5 14
M  V30 14 2 14 15
M  V30 15 1 14 16
M  V30 16 1 16 17
M  V30 17 1 17 18
M  V30 18 1 18 19
M  V30 19 1 19 20
M  V30 20 1 20 21
M  V30 21 1 21 22
M  V30 22 1 22 23
M  V30 23 1 22 24
M  V30 24 1 24 25
M  V30 25 1 7 3
M  V30 26 1 13 8
M  V30 27 1 23 16
M  V30 28 1 24 18
M  V30 29 1 1 26
M  V30 30 1 1 27
M  V30 31 1 2 28
M  V30 32 1 2 29
M  V30 33 1 3 30 CFG=3
M  V30 34 1 4 31
M  V30 35 1 4 32
M  V30 36 1 6 33
M  V30 37 1 6 34
M  V30 38 1 7 35 CFG=1
M  V30 39 1 9 36
M  V30 40 1 10 37
M  V30 41 1 11 38
M  V30 42 1 12 39
M  V30 43 1 13 40
M  V30 44 1 16 41
M  V30 45 1 17 42
M  V30 46 1 17 43
M  V30 47 1 18 44
M  V30 48 1 19 45
M  V30 49 1 19 46
M  V30 50 1 20 47
M  V30 51 1 20 48
M  V30 52 1 21 49
M  V30 53 1 21 50
M  V30 54 1 22 51
M  V30 55 1 23 52
M  V30 56 1 23 53
M  V30 57 1 24 54
M  V30 58 1 25 55
M  V30 59 1 25 56
M  V30 END BOND
M  V30 END CTAB
M  END
