
     RDKit          3D

  0  0  0  0  0  0  0  0  0  0999 V3000
M  V30 BEGIN CTAB
M  V30 COUNTS 57 60 0 0 0
M  V30 BEGIN ATOM
M  V30 1 N -4.61745 4.33697 -2.39712 0
M  V30 2 C -4.55959 3.23778 -1.49237 0
M  V30 3 C -3.41844 3.02968 -0.727523 0
M  V30 4 C -3.3624 1.96324 0.153893 0
M  V30 5 C -4.41417 1.09454 0.296573 0
M  V30 6 C -5.53657 1.35554 -0.500593 0
M  V30 7 C -5.64222 2.38951 -1.38228 0
M  V30 8 N -4.42975 0.0207023 1.1629 0
M  V30 9 N -3.79322 -0.937204 1.45798 0
M  V30 10 C -2.58245 -1.48991 1.01057 0
M  V30 11 C -1.36045 -1.05185 1.54166 0
M  V30 12 O -1.32791 -0.0504297 2.51728 0
M  V30 13 C -0.147756 -1.56987 1.1469 0
M  V30 14 C 1.05253 -1.14861 1.65964 0
M  V30 15 N 1.04403 -0.121195 2.65051 0
M  V30 16 C 2.27727 -1.66534 1.26996 0
M  V30 17 N 3.46494 -1.21755 1.80918 0
M  V30 18 N 4.248 -0.326609 1.61023 0
M  V30 19 C 4.37131 0.730829 0.723749 0
M  V30 20 C 3.54707 1.00674 -0.343843 0
M  V30 21 C 3.75255 2.1012 -1.18667 0
M  V30 22 C 4.81019 2.95747 -0.970339 0
M  V30 23 C 5.64196 2.70049 0.0869006 0
M  V30 24 C 5.43847 1.61616 0.921659 0
M  V30 25 N 5.01194 4.07863 -1.8426 0 CHG=1
M  V30 26 O 4.15508 4.31225 -2.89887 0 CHG=-1
M  V30 27 O 5.97002 4.84696 -1.6415 0
M  V30 28 C 2.25193 -2.65559 0.313119 0
M  V30 29 C 1.04411 -3.10461 -0.228447 0
M  V30 30 C -0.162626 -2.56183 0.187513 0
M  V30 31 C -1.36455 -2.9988 -0.339876 0
M  V30 32 C -2.58403 -2.47779 0.0565459 0
M  V30 33 S -4.07289 -3.09563 -0.646045 0
M  V30 34 O -3.70824 -4.33349 -1.75396 0
M  V30 35 O -4.98178 -3.69594 0.385117 0
M  V30 36 O -4.81411 -2.06536 -1.43031 0
M  V30 37 S 3.70321 -3.42425 -0.282103 0
M  V30 38 O 4.55828 -4.17079 0.946652 0
M  V30 39 O 3.3547 -4.52859 -1.27138 0
M  V30 40 O 4.49873 -2.43257 -1.0516 0
M  V30 41 H -3.80698 4.61423 -2.99123 0
M  V30 42 H -5.48256 4.88953 -2.48065 0
M  V30 43 H -2.59831 3.7109 -0.840847 0
M  V30 44 H -2.45922 1.82777 0.738026 0
M  V30 45 H -6.3808 0.682876 -0.404966 0
M  V30 46 H -6.5494 2.53827 -1.97756 0
M  V30 47 H -2.21353 0.341081 2.82122 0
M  V30 48 H 1.1153 -0.433264 3.659 0
M  V30 49 H 0.972101 0.866795 2.3782 0
M  V30 50 H 2.70865 0.334086 -0.526391 0
M  V30 51 H 3.0905 2.28398 -2.007 0
M  V30 52 H 6.47417 3.39586 0.236363 0
M  V30 53 H 6.09709 1.42281 1.75098 0
M  V30 54 H 0.994167 -3.87827 -0.97987 0
M  V30 55 H -1.39478 -3.77683 -1.09467 0
M  V30 56 H -3.3576 -5.12218 -1.30314 0
M  V30 57 H 5.4755 -4.35252 0.629708 0
M  V30 END ATOM
M  V30 BEGIN BOND
M  V30 1 1 1 2
M  V30 2 2 2 3
M  V30 3 1 3 4
M  V30 4 2 4 5
M  V30 5 1 5 6
M  V30 6 2 6 7
M  V30 7 1 5 8
M  V30 8 2 8 9 CFG=2
M  V30 9 1 9 10
M  V30 10 2 10 11
M  V30 11 1 11 12
M  V30 12 1 11 13
M  V30 13 2 13 14
M  V30 14 1 14 15
M  V30 15 1 14 16
M  V30 16 1 16 17
M  V30 17 2 17 18 CFG=2
M  V30 18 1 18 19
M  V30 19 2 19 20
M  V30 20 1 20 21
M  V30 21 2 21 22
M  V30 22 1 22 23
M  V30 23 2 23 24
M  V30 24 1 22 25
M  V30 25 1 25 26
M  V30 26 2 25 27
M  V30 27 2 16 28
M  V30 28 1 28 29
M  V30 29 2 29 30
M  V30 30 1 30 31
M  V30 31 2 31 32
M  V30 32 1 32 33
M  V30 33 1 33 34
M  V30 34 2 33 35
M  V30 35 2 33 36
M  V30 36 1 28 37
M  V30 37 1 37 38
M  V30 38 2 37 39
M  V30 39 2 37 40
M  V30 40 1 7 2
M  V30 41 1 32 10
M  V30 42 1 30 13
M  V30 43 1 24 19
M  V30 44 1 1 41
M  V30 45 1 1 42
M  V30 46 1 3 43
M  V30 47 1 4 44
M  V30 48 1 6 45
M  V30 49 1 7 46
M  V30 50 1 12 47
M  V30 51 1 15 48
M  V30 52 1 15 49
M  V30 53 1 20 50
M  V30 54 1 21 51
M  V30 55 1 23 52
M  V30 56 1 24 53
M  V30 57 1 29 54
M  V30 58 1 31 55
M  V30 59 1 34 56
M  V30 60 1 38 57
M  V30 END BOND
M  V30 END CTAB
M  END
