
     RDKit          3D

  0  0  0  0  0  0  0  0  0  0999 V3000
M  V30 BEGIN CTAB
M  V30 COUNTS 44 46 0 0 0
M  V30 BEGIN ATOM
M  V30 1 C 2.87275 -1.07252 -1.07839 0
M  V30 2 C 2.14628 -0.845909 0.191703 0
M  V30 3 N 2.84138 -0.882185 1.2778 0
M  V30 4 N 4.22474 -1.12764 1.2309 0
M  V30 5 C 5.09347 -0.213647 1.01282 0
M  V30 6 C 6.5176 -0.552366 0.97974 0
M  V30 7 N 7.07999 -1.75863 1.15608 0
M  V30 8 O 8.35935 -1.58049 1.04116 0
M  V30 9 N 8.65821 -0.345599 0.803587 0
M  V30 10 C 7.52029 0.362673 0.752738 0
M  V30 11 N 7.39499 1.75552 0.514946 0
M  V30 12 N 4.64357 1.10681 0.808979 0
M  V30 13 C 0.694959 -0.590512 0.215093 0
M  V30 14 C -0.0211576 -0.556822 -0.953021 0
M  V30 15 C -1.39322 -0.31818 -0.966306 0
M  V30 16 C -2.04654 -0.110834 0.224973 0
M  V30 17 C -1.34158 -0.140913 1.41431 0
M  V30 18 C 0.0243386 -0.380793 1.39808 0
M  V30 19 O -3.40626 0.129221 0.257316 0
M  V30 20 C -4.11463 0.157509 -0.962532 0
M  V30 21 C -5.55811 0.426973 -0.741143 0
M  V30 22 C -6.43579 0.497365 -1.80185 0
M  V30 23 C -7.76291 0.749814 -1.53793 0
M  V30 24 C -8.22237 0.931098 -0.245606 0
M  V30 25 C -7.31964 0.853857 0.783427 0
M  V30 26 C -5.98841 0.603554 0.556167 0
M  V30 27 H 3.16559 -0.118462 -1.56112 0
M  V30 28 H 2.26006 -1.62447 -1.83153 0
M  V30 29 H 3.76793 -1.7391 -0.908824 0
M  V30 30 H 7.39249 2.12398 -0.45881 0
M  V30 31 H 7.30494 2.42146 1.29758 0
M  V30 32 H 4.15609 1.67938 1.53277 0
M  V30 33 H 4.80228 1.54681 -0.116163 0
M  V30 34 H 0.437807 -0.712229 -1.9148 0
M  V30 35 H -1.93738 -0.296541 -1.90453 0
M  V30 36 H -1.85424 0.023077 2.36553 0
M  V30 37 H 0.589812 -0.408148 2.31085 0
M  V30 38 H -4.07001 -0.863549 -1.44337 0
M  V30 39 H -3.66565 0.859717 -1.69885 0
M  V30 40 H -6.11059 0.360405 -2.82721 0
M  V30 41 H -8.4591 0.807516 -2.35542 0
M  V30 42 H -9.27025 1.13083 -0.0321051 0
M  V30 43 H -7.65 0.990985 1.79939 0
M  V30 44 H -5.32108 0.554014 1.41357 0
M  V30 END ATOM
M  V30 BEGIN BOND
M  V30 1 1 1 2
M  V30 2 2 2 3
M  V30 3 1 3 4
M  V30 4 2 4 5
M  V30 5 1 5 6
M  V30 6 2 6 7
M  V30 7 1 7 8
M  V30 8 1 8 9
M  V30 9 2 9 10
M  V30 10 1 10 11
M  V30 11 1 5 12
M  V30 12 1 2 13
M  V30 13 2 13 14
M  V30 14 1 14 15
M  V30 15 2 15 16
M  V30 16 1 16 17
M  V30 17 2 17 18
M  V30 18 1 16 19
M  V30 19 1 19 20
M  V30 20 1 20 21
M  V30 21 2 21 22
M  V30 22 1 22 23
M  V30 23 2 23 24
M  V30 24 1 24 25
M  V30 25 2 25 26
M  V30 26 1 10 6
M  V30 27 1 18 13
M  V30 28 1 26 21
M  V30 29 1 1 27
M  V30 30 1 1 28
M  V30 31 1 1 29
M  V30 32 1 11 30
M  V30 33 1 11 31
M  V30 34 1 12 32
M  V30 35 1 12 33
M  V30 36 1 14 34
M  V30 37 1 15 35
M  V30 38 1 17 36
M  V30 39 1 18 37
M  V30 40 1 20 38
M  V30 41 1 20 39
M  V30 42 1 22 40
M  V30 43 1 23 41
M  V30 44 1 24 42
M  V30 45 1 25 43
M  V30 46 1 26 44
M  V30 END BOND
M  V30 END CTAB
M  END
