
     RDKit          3D

  0  0  0  0  0  0  0  0  0  0999 V3000
M  V30 BEGIN CTAB
M  V30 COUNTS 47 49 0 0 0
M  V30 BEGIN ATOM
M  V30 1 F -8.54501 1.37948 1.00908 0
M  V30 2 C -7.37734 2.10153 0.729129 0
M  V30 3 O -6.31738 1.59719 1.45339 0
M  V30 4 C -5.18732 1.06333 0.937877 0
M  V30 5 C -4.21879 0.608226 1.82283 0
M  V30 6 C -3.05888 0.0594535 1.34533 0
M  V30 7 C -2.81034 -0.0611889 -0.00636361 0
M  V30 8 C -3.76245 0.386355 -0.897833 0
M  V30 9 C -4.93892 0.943043 -0.390691 0
M  V30 10 N -1.58803 -0.641854 -0.420034 0
M  V30 11 C -1.36674 -1.97347 -0.513756 0
M  V30 12 C -2.35965 -3.03571 -0.197885 0
M  V30 13 C -0.0627423 -2.09566 -0.949972 0
M  V30 14 C 0.508071 -0.841809 -1.12109 0
M  V30 15 C -0.491498 0.0398398 -0.775068 0
M  V30 16 C -0.382295 1.52262 -0.791875 0
M  V30 17 C 1.86046 -0.52993 -1.56323 0
M  V30 18 O 2.25966 0.654117 -1.63572 0
M  V30 19 C 2.79454 -1.61686 -1.93889 0
M  V30 20 S 4.4145 -1.05064 -2.43887 0
M  V30 21 C 5.23143 -0.340036 -1.00188 0
M  V30 22 N 5.9846 -1.11396 -0.184568 0
M  V30 23 C 6.62247 -0.647124 0.902276 0
M  V30 24 N 7.40553 -1.46036 1.74762 0
M  V30 25 N 6.47378 0.677082 1.15288 0
M  V30 26 C 5.73748 1.47645 0.36904 0
M  V30 27 N 5.10564 0.968431 -0.723671 0
M  V30 28 N 5.6305 2.85432 0.700132 0
M  V30 29 F -7.65834 3.42177 1.12086 0
M  V30 30 H -7.21183 2.09561 -0.3605 0
M  V30 31 H -4.39232 0.692866 2.88109 0
M  V30 32 H -2.32705 -0.28381 2.06386 0
M  V30 33 H -3.60471 0.309485 -1.96328 0
M  V30 34 H -5.6342 1.26869 -1.14158 0
M  V30 35 H -3.04891 -2.66744 0.58969 0
M  V30 36 H -1.83104 -3.919 0.163682 0
M  V30 37 H -2.93875 -3.31505 -1.12267 0
M  V30 38 H 0.4566 -3.00685 -1.13691 0
M  V30 39 H 0.149501 1.92762 0.0795201 0
M  V30 40 H 0.125593 1.87366 -1.73803 0
M  V30 41 H -1.40365 1.97883 -0.864908 0
M  V30 42 H 2.83586 -2.29842 -1.03901 0
M  V30 43 H 2.29857 -2.25623 -2.72207 0
M  V30 44 H 7.56141 -1.17374 2.7237 0
M  V30 45 H 7.81502 -2.33112 1.38711 0
M  V30 46 H 4.83178 3.28231 1.2072 0
M  V30 47 H 6.41518 3.47796 0.41047 0
M  V30 END ATOM
M  V30 BEGIN BOND
M  V30 1 1 1 2
M  V30 2 1 2 3
M  V30 3 1 3 4
M  V30 4 2 4 5
M  V30 5 1 5 6
M  V30 6 2 6 7
M  V30 7 1 7 8
M  V30 8 2 8 9
M  V30 9 1 7 10
M  V30 10 1 10 11
M  V30 11 1 11 12
M  V30 12 2 11 13
M  V30 13 1 13 14
M  V30 14 2 14 15
M  V30 15 1 15 16
M  V30 16 1 14 17
M  V30 17 2 17 18
M  V30 18 1 17 19
M  V30 19 1 19 20
M  V30 20 1 20 21
M  V30 21 2 21 22
M  V30 22 1 22 23
M  V30 23 1 23 24
M  V30 24 2 23 25
M  V30 25 1 25 26
M  V30 26 2 26 27
M  V30 27 1 26 28
M  V30 28 1 2 29
M  V30 29 1 9 4
M  V30 30 1 15 10
M  V30 31 1 27 21
M  V30 32 1 2 30
M  V30 33 1 5 31
M  V30 34 1 6 32
M  V30 35 1 8 33
M  V30 36 1 9 34
M  V30 37 1 12 35
M  V30 38 1 12 36
M  V30 39 1 12 37
M  V30 40 1 13 38
M  V30 41 1 16 39
M  V30 42 1 16 40
M  V30 43 1 16 41
M  V30 44 1 19 42
M  V30 45 1 19 43
M  V30 46 1 24 44
M  V30 47 1 24 45
M  V30 48 1 28 46
M  V30 49 1 28 47
M  V30 END BOND
M  V30 END CTAB
M  END
