
     RDKit          3D

  0  0  0  0  0  0  0  0  0  0999 V3000
M  V30 BEGIN CTAB
M  V30 COUNTS 20 19 0 0 0
M  V30 BEGIN ATOM
M  V30 1 N 0.861776 0.655387 -1.95534 0
M  V30 2 C -0.276117 0.091103 -1.29778 0
M  V30 3 N -1.09183 -0.663293 -1.95204 0
M  V30 4 C -2.23047 -1.24051 -1.3345 0
M  V30 5 N -3.36004 -0.638437 -1.47864 0
M  V30 6 N -2.14382 -2.4388 -0.58127 0
M  V30 7 S -0.614837 0.39855 0.427785 0
M  V30 8 C 0.689721 1.48004 1.07313 0
M  V30 9 C 2.00411 0.816336 1.0851 0
M  V30 10 C 2.65039 0.659157 2.21966 0
M  V30 11 Cl 2.02985 1.20513 3.76602 0
M  V30 12 H 0.96374 1.67757 -2.14325 0
M  V30 13 H 1.65242 0.0506181 -2.2799 0
M  V30 14 H -4.21577 -1.0328 -1.03994 0
M  V30 15 H -2.60172 -2.55549 0.347362 0
M  V30 16 H -1.60938 -3.25696 -0.938665 0
M  V30 17 H 0.420933 1.76746 2.10659 0
M  V30 18 H 0.792346 2.40225 0.455718 0
M  V30 19 H 2.44146 0.457756 0.170125 0
M  V30 20 H 3.63724 0.164928 2.25597 0
M  V30 END ATOM
M  V30 BEGIN BOND
M  V30 1 1 1 2
M  V30 2 2 2 3 CFG=2
M  V30 3 1 3 4
M  V30 4 2 4 5 CFG=2
M  V30 5 1 4 6
M  V30 6 1 2 7
M  V30 7 1 7 8
M  V30 8 1 8 9
M  V30 9 2 9 10 CFG=2
M  V30 10 1 10 11
M  V30 11 1 1 12
M  V30 12 1 1 13
M  V30 13 1 5 14
M  V30 14 1 6 15
M  V30 15 1 6 16
M  V30 16 1 8 17
M  V30 17 1 8 18
M  V30 18 1 9 19
M  V30 19 1 10 20
M  V30 END BOND
M  V30 END CTAB
M  END
