
     RDKit          3D

  0  0  0  0  0  0  0  0  0  0999 V3000
M  V30 BEGIN CTAB
M  V30 COUNTS 28 28 0 0 0
M  V30 BEGIN ATOM
M  V30 1 C 3.94654 -1.65596 -0.809781 0
M  V30 2 O 2.78068 -0.855359 -0.710523 0
M  V30 3 C 2.60166 -0.0433343 0.365324 0
M  V30 4 O 3.54304 -0.0776027 1.23646 0
M  V30 5 C 1.48032 0.863352 0.667829 0
M  V30 6 C 0.135435 0.472319 0.316769 0
M  V30 7 C -0.229526 -0.717948 -0.192253 0
M  V30 8 C -1.54841 -1.05709 -0.51262 0
M  V30 9 N -1.88525 -2.34061 -1.03653 0
M  V30 10 C -2.51815 -0.131557 -0.297946 0
M  V30 11 C -2.2069 1.09214 0.21594 0
M  V30 12 C -0.880015 1.40477 0.528585 0
M  V30 13 C -0.578028 2.73854 1.04913 0
M  V30 14 F -1.79393 3.43219 1.18286 0
M  V30 15 F 0.112664 3.52166 0.132287 0
M  V30 16 F -0.0161615 2.77207 2.307 0
M  V30 17 N -3.91163 -0.420225 -0.591659 0
M  V30 18 H 3.99682 -2.46604 -0.0624699 0
M  V30 19 H 4.80155 -0.983412 -0.501839 0
M  V30 20 H 4.12353 -2.05246 -1.80712 0
M  V30 21 H 1.79766 1.87854 0.431084 0
M  V30 22 H 1.48641 0.905603 1.84747 0
M  V30 23 H 0.48204 -1.47738 -0.367881 0
M  V30 24 H -1.1628 -2.82902 -1.57748 0
M  V30 25 H -2.80545 -2.72546 -0.868432 0
M  V30 26 H -2.99527 1.7961 0.378795 0
M  V30 27 H -4.20234 -0.590939 -1.5646 0
M  V30 28 H -4.55448 -0.452894 0.241594 0
M  V30 END ATOM
M  V30 BEGIN BOND
M  V30 1 1 1 2
M  V30 2 1 2 3
M  V30 3 2 3 4
M  V30 4 1 3 5
M  V30 5 1 5 6
M  V30 6 2 6 7
M  V30 7 1 7 8
M  V30 8 1 8 9
M  V30 9 2 8 10
M  V30 10 1 10 11
M  V30 11 2 11 12
M  V30 12 1 12 13
M  V30 13 1 13 14
M  V30 14 1 13 15
M  V30 15 1 13 16
M  V30 16 1 10 17
M  V30 17 1 12 6
M  V30 18 1 1 18
M  V30 19 1 1 19
M  V30 20 1 1 20
M  V30 21 1 5 21
M  V30 22 1 5 22
M  V30 23 1 7 23
M  V30 24 1 9 24
M  V30 25 1 9 25
M  V30 26 1 11 26
M  V30 27 1 17 27
M  V30 28 1 17 28
M  V30 END BOND
M  V30 END CTAB
M  END
