
     RDKit          3D

  0  0  0  0  0  0  0  0  0  0999 V3000
M  V30 BEGIN CTAB
M  V30 COUNTS 15 15 0 0 0
M  V30 BEGIN ATOM
M  V30 1 N -2.40906 -1.15658 -0.145119 0
M  V30 2 C -1.12157 -0.555682 -0.0280876 0
M  V30 3 N -0.96656 0.776958 0.0309433 0
M  V30 4 C 0.240288 1.38536 0.142236 0
M  V30 5 N 0.33293 2.80428 0.199714 0
M  V30 6 N 1.31983 0.5894 0.193997 0
M  V30 7 C 1.27911 -0.753291 0.143094 0
M  V30 8 S 2.71478 -1.78923 0.212749 0
M  V30 9 C 0.0207239 -1.32518 0.0292745 0
M  V30 10 H -3.25978 -0.619177 0.133854 0
M  V30 11 H -2.5222 -2.12246 -0.503539 0
M  V30 12 H -0.378394 3.42369 0.640871 0
M  V30 13 H 1.16331 3.26962 -0.224192 0
M  V30 14 H 3.62952 -1.52311 -0.811852 0
M  V30 15 H -0.0429213 -2.40461 -0.0139433 0
M  V30 END ATOM
M  V30 BEGIN BOND
M  V30 1 1 1 2
M  V30 2 2 2 3
M  V30 3 1 3 4
M  V30 4 1 4 5
M  V30 5 2 4 6
M  V30 6 1 6 7
M  V30 7 1 7 8
M  V30 8 2 7 9
M  V30 9 1 9 2
M  V30 10 1 1 10
M  V30 11 1 1 11
M  V30 12 1 5 12
M  V30 13 1 5 13
M  V30 14 1 8 14
M  V30 15 1 9 15
M  V30 END BOND
M  V30 END CTAB
M  END
