
     RDKit          3D

  0  0  0  0  0  0  0  0  0  0999 V3000
M  V30 BEGIN CTAB
M  V30 COUNTS 38 39 0 0 0
M  V30 BEGIN ATOM
M  V30 1 C -0.565933 -0.976559 -1.31419 0
M  V30 2 N -0.41932 0.0843235 -0.386384 0
M  V30 3 C -1.33736 1.15073 -0.467561 0
M  V30 4 C -2.75116 0.779428 -0.301826 0
M  V30 5 N -3.22872 -0.467089 -0.384835 0
M  V30 6 C -4.53252 -0.780158 -0.221214 0
M  V30 7 N -4.99198 -2.13987 -0.320943 0
M  V30 8 N -5.37887 0.23452 0.038881 0
M  V30 9 C -4.95415 1.51856 0.135066 0
M  V30 10 N -3.62467 1.76787 -0.0408787 0
M  V30 11 N -5.87329 2.55492 0.414188 0
M  V30 12 C 0.0296549 -0.264595 0.919192 0
M  V30 13 C 1.47944 -0.747114 0.90836 0
M  V30 14 O 2.33814 0.261804 0.413804 0
M  V30 15 C 3.69039 0.12768 0.283183 0
M  V30 16 C 4.41094 1.18801 -0.216159 0
M  V30 17 C 5.79382 1.03655 -0.343639 0
M  V30 18 C 6.40957 -0.134001 0.0190671 0
M  V30 19 C 5.67805 -1.1982 0.521966 0
M  V30 20 C 4.31618 -1.0515 0.64821 0
M  V30 21 H -1.17193 -0.661897 -2.1799 0
M  V30 22 H 0.447024 -1.22262 -1.73915 0
M  V30 23 H -0.926463 -1.93363 -0.85276 0
M  V30 24 H -1.0789 1.89595 0.316956 0
M  V30 25 H -1.19312 1.69709 -1.44507 0
M  V30 26 H -5.79401 -2.45176 0.232855 0
M  V30 27 H -4.52104 -2.83183 -0.953812 0
M  V30 28 H -6.02264 3.29368 -0.291389 0
M  V30 29 H -6.38 2.57265 1.30244 0
M  V30 30 H -0.635911 -0.993984 1.3943 0
M  V30 31 H -0.026724 0.65928 1.54531 0
M  V30 32 H 1.48582 -1.66912 0.308266 0
M  V30 33 H 1.70833 -1.00756 1.96629 0
M  V30 34 H 3.95763 2.1069 -0.506939 0
M  V30 35 H 6.3584 1.85295 -0.730999 0
M  V30 36 H 7.49424 -0.276582 -0.0732463 0
M  V30 37 H 6.12547 -2.134 0.816892 0
M  V30 38 H 3.68562 -1.84082 1.03548 0
M  V30 END ATOM
M  V30 BEGIN BOND
M  V30 1 1 1 2
M  V30 2 1 2 3
M  V30 3 1 3 4
M  V30 4 2 4 5
M  V30 5 1 5 6
M  V30 6 1 6 7
M  V30 7 2 6 8
M  V30 8 1 8 9
M  V30 9 2 9 10
M  V30 10 1 9 11
M  V30 11 1 2 12
M  V30 12 1 12 13
M  V30 13 1 13 14
M  V30 14 1 14 15
M  V30 15 2 15 16
M  V30 16 1 16 17
M  V30 17 2 17 18
M  V30 18 1 18 19
M  V30 19 2 19 20
M  V30 20 1 10 4
M  V30 21 1 20 15
M  V30 22 1 1 21
M  V30 23 1 1 22
M  V30 24 1 1 23
M  V30 25 1 3 24
M  V30 26 1 3 25
M  V30 27 1 7 26
M  V30 28 1 7 27
M  V30 29 1 11 28
M  V30 30 1 11 29
M  V30 31 1 12 30
M  V30 32 1 12 31
M  V30 33 1 13 32
M  V30 34 1 13 33
M  V30 35 1 16 34
M  V30 36 1 17 35
M  V30 37 1 18 36
M  V30 38 1 19 37
M  V30 39 1 20 38
M  V30 END BOND
M  V30 END CTAB
M  END
