
     RDKit          3D

  0  0  0  0  0  0  0  0  0  0999 V3000
M  V30 BEGIN CTAB
M  V30 COUNTS 38 39 0 0 0
M  V30 BEGIN ATOM
M  V30 1 C -4.66195 1.61578 -0.878572 0
M  V30 2 C -3.34597 2.09838 -0.349121 0
M  V30 3 O -2.60068 1.09372 0.301684 0
M  V30 4 C -2.23315 -0.0248077 -0.407973 0
M  V30 5 O -2.56548 -0.123333 -1.60207 0
M  V30 6 C -1.46972 -1.06781 0.235706 0
M  V30 7 C -0.161517 -1.24237 0.466343 0
M  V30 8 O -0.0817913 -2.44622 1.07908 0
M  V30 9 N -1.21786 -2.98844 1.22775 0
M  V30 10 C -2.1568 -2.20487 0.732541 0
M  V30 11 C -3.6262 -2.42268 0.683189 0
M  V30 12 C 1.05247 -0.497516 0.243022 0
M  V30 13 C 2.11522 -0.835823 1.11246 0
M  V30 14 N 2.0103 -1.79373 2.14139 0
M  V30 15 C 3.30642 -0.194227 0.947878 0
M  V30 16 C 3.526 0.762476 -0.0191605 0
M  V30 17 N 2.51882 1.06329 -0.823274 0
M  V30 18 C 1.28305 0.445833 -0.70704 0
M  V30 19 N 0.376871 0.882122 -1.69568 0
M  V30 20 C 4.85744 1.42132 -0.136772 0
M  V30 21 C 5.87631 0.38082 -0.414936 0
M  V30 22 N 6.67796 -0.417704 -0.644492 0
M  V30 23 C 5.20211 2.02784 1.15432 0
M  V30 24 N 5.47395 2.51705 2.16782 0
M  V30 25 H -4.95703 0.640745 -0.461158 0
M  V30 26 H -5.45135 2.36675 -0.626982 0
M  V30 27 H -4.5911 1.56144 -1.98595 0
M  V30 28 H -2.69706 2.48595 -1.17216 0
M  V30 29 H -3.51041 2.92768 0.373666 0
M  V30 30 H -3.93276 -2.86048 -0.301368 0
M  V30 31 H -4.17168 -1.44738 0.795732 0
M  V30 32 H -3.92858 -3.12481 1.46393 0
M  V30 33 H 2.31561 -2.80152 1.99902 0
M  V30 34 H 1.63319 -1.5907 3.10003 0
M  V30 35 H 4.14481 -0.425007 1.59952 0
M  V30 36 H -0.0367256 1.82558 -1.6263 0
M  V30 37 H 0.135168 0.235404 -2.50305 0
M  V30 38 H 4.89211 2.15725 -0.942984 0
M  V30 END ATOM
M  V30 BEGIN BOND
M  V30 1 1 1 2
M  V30 2 1 2 3
M  V30 3 1 3 4
M  V30 4 2 4 5
M  V30 5 1 4 6
M  V30 6 2 6 7
M  V30 7 1 7 8
M  V30 8 1 8 9
M  V30 9 2 9 10
M  V30 10 1 10 11
M  V30 11 1 7 12
M  V30 12 2 12 13
M  V30 13 1 13 14
M  V30 14 1 13 15
M  V30 15 2 15 16
M  V30 16 1 16 17
M  V30 17 2 17 18
M  V30 18 1 18 19
M  V30 19 1 16 20
M  V30 20 1 20 21
M  V30 21 3 21 22
M  V30 22 1 20 23
M  V30 23 3 23 24
M  V30 24 1 10 6
M  V30 25 1 18 12
M  V30 26 1 1 25
M  V30 27 1 1 26
M  V30 28 1 1 27
M  V30 29 1 2 28
M  V30 30 1 2 29
M  V30 31 1 11 30
M  V30 32 1 11 31
M  V30 33 1 11 32
M  V30 34 1 14 33
M  V30 35 1 14 34
M  V30 36 1 15 35
M  V30 37 1 19 36
M  V30 38 1 19 37
M  V30 39 1 20 38
M  V30 END BOND
M  V30 END CTAB
M  END
