
     RDKit          3D

  0  0  0  0  0  0  0  0  0  0999 V3000
M  V30 BEGIN CTAB
M  V30 COUNTS 37 38 0 0 0
M  V30 BEGIN ATOM
M  V30 1 N 4.87624 2.021 -0.569675 0
M  V30 2 C 3.91479 1.09404 0.00380822 0
M  V30 3 C 2.88187 0.766181 -1.03841 0
M  V30 4 N 1.87366 -0.137273 -0.609106 0
M  V30 5 C 2.25052 -1.4507 -0.35657 0
M  V30 6 C 1.22271 -2.45802 -0.0745885 0
M  V30 7 C -0.179036 -1.95189 0.0828833 0
M  V30 8 C -0.241975 -0.485686 0.438535 0 CFG=1
M  V30 9 C 0.568008 0.31021 -0.539251 0
M  V30 10 C -1.68026 -0.0950857 0.452863 0
M  V30 11 C -2.27174 0.32356 1.6387 0
M  V30 12 C -3.6039 0.693318 1.6918 0
M  V30 13 C -4.40619 0.660491 0.556057 0
M  V30 14 C -3.798 0.242656 -0.607836 0
M  V30 15 C -2.47192 -0.127157 -0.665911 0
M  V30 16 N -5.77777 1.0369 0.590431 0
M  V30 17 H 5.5395 2.29499 0.19956 0
M  V30 18 H 4.40706 2.8736 -0.91501 0
M  V30 19 H 3.43623 1.57077 0.902151 0
M  V30 20 H 4.4971 0.200085 0.327557 0
M  V30 21 H 3.43688 0.279026 -1.88966 0
M  V30 22 H 2.46837 1.71568 -1.41862 0
M  V30 23 H 2.87194 -1.8087 -1.23554 0
M  V30 24 H 3.02245 -1.43496 0.474748 0
M  V30 25 H 1.46497 -2.99286 0.891104 0
M  V30 26 H 1.21274 -3.27084 -0.837275 0
M  V30 27 H -0.744475 -2.49289 0.868182 0
M  V30 28 H -0.755462 -2.07158 -0.858164 0
M  V30 29 H 0.170914 -0.361781 1.45658 0
M  V30 30 H 0.539538 1.38364 -0.217869 0
M  V30 31 H 0.0875628 0.237345 -1.55709 0
M  V30 32 H -1.71279 0.374565 2.5581 0
M  V30 33 H -4.09214 1.02527 2.60621 0
M  V30 34 H -4.4038 0.206006 -1.52146 0
M  V30 35 H -1.99682 -0.457139 -1.58618 0
M  V30 36 H -6.46558 0.327986 0.91954 0
M  V30 37 H -6.14115 1.95927 0.313774 0
M  V30 END ATOM
M  V30 BEGIN BOND
M  V30 1 1 1 2
M  V30 2 1 2 3
M  V30 3 1 3 4
M  V30 4 1 4 5
M  V30 5 1 5 6
M  V30 6 1 6 7
M  V30 7 1 7 8
M  V30 8 1 8 9
M  V30 9 1 8 10
M  V30 10 2 10 11
M  V30 11 1 11 12
M  V30 12 2 12 13
M  V30 13 1 13 14
M  V30 14 2 14 15
M  V30 15 1 13 16
M  V30 16 1 9 4
M  V30 17 1 15 10
M  V30 18 1 1 17
M  V30 19 1 1 18
M  V30 20 1 2 19
M  V30 21 1 2 20
M  V30 22 1 3 21
M  V30 23 1 3 22
M  V30 24 1 5 23
M  V30 25 1 5 24
M  V30 26 1 6 25
M  V30 27 1 6 26
M  V30 28 1 7 27
M  V30 29 1 7 28
M  V30 30 1 8 29 CFG=1
M  V30 31 1 9 30
M  V30 32 1 9 31
M  V30 33 1 11 32
M  V30 34 1 12 33
M  V30 35 1 14 34
M  V30 36 1 15 35
M  V30 37 1 16 36
M  V30 38 1 16 37
M  V30 END BOND
M  V30 END CTAB
M  END
