
     RDKit          3D

  0  0  0  0  0  0  0  0  0  0999 V3000
M  V30 BEGIN CTAB
M  V30 COUNTS 22 22 0 0 0
M  V30 BEGIN ATOM
M  V30 1 N -3.97989 0.864678 0.089066 0
M  V30 2 C -2.66925 0.325709 0.415229 0
M  V30 3 C -2.15444 -0.382867 -0.793779 0
M  V30 4 O -0.893087 -0.963078 -0.645083 0
M  V30 5 C 0.278129 -0.327381 -0.341432 0
M  V30 6 C 1.42437 -1.09046 -0.23941 0
M  V30 7 Cl 1.36369 -2.83536 -0.496285 0
M  V30 8 C 2.644 -0.529275 0.0625568 0
M  V30 9 N 3.82438 -1.30249 0.169389 0
M  V30 10 C 2.69229 0.840207 0.264279 0
M  V30 11 Cl 4.24636 1.55975 0.649685 0
M  V30 12 C 1.54316 1.5663 0.156517 0
M  V30 13 N 0.363462 0.998989 -0.139012 0
M  V30 14 H -4.73585 0.164798 0.211501 0
M  V30 15 H -4.15951 1.78782 0.492761 0
M  V30 16 H -2.05614 1.15211 0.772823 0
M  V30 17 H -2.81005 -0.375343 1.28147 0
M  V30 18 H -2.86952 -1.23388 -0.994891 0
M  V30 19 H -2.16464 0.339464 -1.63842 0
M  V30 20 H 3.7755 -2.30351 -0.115041 0
M  V30 21 H 4.70186 -0.905843 0.512133 0
M  V30 22 H 1.63519 2.64967 0.325944 0
M  V30 END ATOM
M  V30 BEGIN BOND
M  V30 1 1 1 2
M  V30 2 1 2 3
M  V30 3 1 3 4
M  V30 4 1 4 5
M  V30 5 2 5 6
M  V30 6 1 6 7
M  V30 7 1 6 8
M  V30 8 1 8 9
M  V30 9 2 8 10
M  V30 10 1 10 11
M  V30 11 1 10 12
M  V30 12 2 12 13
M  V30 13 1 13 5
M  V30 14 1 1 14
M  V30 15 1 1 15
M  V30 16 1 2 16
M  V30 17 1 2 17
M  V30 18 1 3 18
M  V30 19 1 3 19
M  V30 20 1 9 20
M  V30 21 1 9 21
M  V30 22 1 12 22
M  V30 END BOND
M  V30 END CTAB
M  END
