
     RDKit          3D

  0  0  0  0  0  0  0  0  0  0999 V3000
M  V30 BEGIN CTAB
M  V30 COUNTS 49 52 0 0 0
M  V30 BEGIN ATOM
M  V30 1 C -5.58746 -2.50077 0.161567 0
M  V30 2 C -4.72874 -2.03393 1.30895 0
M  V30 3 O -3.42788 -1.66238 0.886735 0
M  V30 4 C -2.9061 -0.390521 1.10135 0
M  V30 5 O -3.64228 0.425711 1.69132 0
M  V30 6 C -1.56571 -0.0154205 0.663653 0
M  V30 7 C -0.622497 -0.774331 0.0058442 0
M  V30 8 N -0.868619 -2.13267 -0.354741 0
M  V30 9 N 0.501523 -0.0548996 -0.222738 0
M  V30 10 C 0.290169 1.17233 0.2862 0
M  V30 11 C -0.986815 1.22212 0.842438 0
M  V30 12 N -1.44827 2.36067 1.42669 0
M  V30 13 C -0.674831 3.46142 1.47658 0
M  V30 14 C -1.07925 4.64775 2.05311 0
M  V30 15 C -0.209551 5.74081 2.05975 0
M  V30 16 C 1.05002 5.68185 1.50772 0
M  V30 17 C 1.44547 4.49717 0.935538 0
M  V30 18 C 0.588307 3.40793 0.924924 0
M  V30 19 N 1.04589 2.2763 0.344674 0
M  V30 20 C 1.67387 -0.537377 -0.882734 0
M  V30 21 C 2.29982 -1.65533 -0.409432 0
M  V30 22 C 3.4192 -2.10058 -1.05438 0
M  V30 23 C 3.91232 -1.427 -2.17317 0
M  V30 24 C 3.27311 -0.300404 -2.64208 0
M  V30 25 C 2.14442 0.141386 -1.98488 0
M  V30 26 S 5.34047 -1.9798 -3.009 0
M  V30 27 O 5.22267 -1.55682 -4.44564 0
M  V30 28 O 5.46118 -3.47332 -2.91771 0
M  V30 29 N 6.74832 -1.22174 -2.31787 0
M  V30 30 C -4.57106 -3.14166 2.32573 0
M  V30 31 H -6.15542 -3.3901 0.513421 0
M  V30 32 H -6.34751 -1.73915 -0.100545 0
M  V30 33 H -4.9905 -2.83696 -0.706495 0
M  V30 34 H -5.2344 -1.18357 1.81317 0
M  V30 35 H -0.577992 -2.95624 0.184124 0
M  V30 36 H -1.38956 -2.28926 -1.2446 0
M  V30 37 H -2.05944 4.71981 2.49165 0
M  V30 38 H -0.511498 6.68987 2.51187 0
M  V30 39 H 1.73361 6.52941 1.50896 0
M  V30 40 H 2.44785 4.42796 0.488608 0
M  V30 41 H 1.92831 -2.19933 0.468514 0
M  V30 42 H 3.97656 -2.98749 -0.737106 0
M  V30 43 H 3.64876 0.238597 -3.51919 0
M  V30 44 H 1.62404 1.02054 -2.33014 0
M  V30 45 H 6.47063 -0.227899 -2.1305 0
M  V30 46 H 6.93709 -1.65889 -1.39521 0
M  V30 47 H -5.30852 -3.00335 3.142 0
M  V30 48 H -4.74791 -4.12987 1.83597 0
M  V30 49 H -3.5418 -3.10058 2.77279 0
M  V30 END ATOM
M  V30 BEGIN BOND
M  V30 1 1 1 2
M  V30 2 1 2 3
M  V30 3 1 3 4
M  V30 4 2 4 5
M  V30 5 1 4 6
M  V30 6 2 6 7
M  V30 7 1 7 8
M  V30 8 1 7 9
M  V30 9 1 9 10
M  V30 10 2 10 11
M  V30 11 1 11 12
M  V30 12 2 12 13
M  V30 13 1 13 14
M  V30 14 2 14 15
M  V30 15 1 15 16
M  V30 16 2 16 17
M  V30 17 1 17 18
M  V30 18 2 18 19
M  V30 19 1 9 20
M  V30 20 2 20 21
M  V30 21 1 21 22
M  V30 22 2 22 23
M  V30 23 1 23 24
M  V30 24 2 24 25
M  V30 25 1 23 26
M  V30 26 2 26 27
M  V30 27 2 26 28
M  V30 28 1 26 29
M  V30 29 1 2 30
M  V30 30 1 11 6
M  V30 31 1 18 13
M  V30 32 1 25 20
M  V30 33 1 19 10
M  V30 34 1 1 31
M  V30 35 1 1 32
M  V30 36 1 1 33
M  V30 37 1 2 34
M  V30 38 1 8 35
M  V30 39 1 8 36
M  V30 40 1 14 37
M  V30 41 1 15 38
M  V30 42 1 16 39
M  V30 43 1 17 40
M  V30 44 1 21 41
M  V30 45 1 22 42
M  V30 46 1 24 43
M  V30 47 1 25 44
M  V30 48 1 29 45
M  V30 49 1 29 46
M  V30 50 1 30 47
M  V30 51 1 30 48
M  V30 52 1 30 49
M  V30 END BOND
M  V30 END CTAB
M  END
