
     RDKit          3D

  0  0  0  0  0  0  0  0  0  0999 V3000
M  V30 BEGIN CTAB
M  V30 COUNTS 17 17 0 0 0
M  V30 BEGIN ATOM
M  V30 1 N -2.72144 1.5145 0.139181 0
M  V30 2 C -2.43592 0.25719 -0.457175 0
M  V30 3 S -3.63827 -0.45617 -1.29518 0
M  V30 4 C -1.10744 -0.301098 -0.281903 0
M  V30 5 C -0.820983 -1.6435 -0.0964131 0
M  V30 6 C 0.546249 -1.70551 0.02202 0
M  V30 7 C 1.05556 -0.432985 -0.0904554 0
M  V30 8 O 0.0333036 0.35703 -0.268885 0
M  V30 9 C 2.46013 -0.0421532 -0.0237244 0
M  V30 10 S 3.58106 -1.06767 0.614658 0
M  V30 11 N 2.89531 1.22429 -0.504137 0
M  V30 12 H -3.55829 1.6872 0.748802 0
M  V30 13 H -2.03672 2.2853 -0.0640321 0
M  V30 14 H -1.49073 -2.46464 -0.0515092 0
M  V30 15 H 1.10716 -2.61012 0.176863 0
M  V30 16 H 2.63021 1.5781 -1.44311 0
M  V30 17 H 3.50081 1.82024 0.103745 0
M  V30 END ATOM
M  V30 BEGIN BOND
M  V30 1 1 1 2
M  V30 2 2 2 3
M  V30 3 1 2 4
M  V30 4 2 4 5
M  V30 5 1 5 6
M  V30 6 2 6 7
M  V30 7 1 7 8
M  V30 8 1 7 9
M  V30 9 2 9 10
M  V30 10 1 9 11
M  V30 11 1 8 4
M  V30 12 1 1 12
M  V30 13 1 1 13
M  V30 14 1 5 14
M  V30 15 1 6 15
M  V30 16 1 11 16
M  V30 17 1 11 17
M  V30 END BOND
M  V30 END CTAB
M  END
