
     RDKit          3D

  0  0  0  0  0  0  0  0  0  0999 V3000
M  V30 BEGIN CTAB
M  V30 COUNTS 18 18 0 0 0
M  V30 BEGIN ATOM
M  V30 1 N 2.91198 -0.625019 -0.394651 0
M  V30 2 C 1.5687 -0.18318 -0.241185 0
M  V30 3 C 0.503969 -1.12772 -0.182356 0
M  V30 4 C -0.777998 -0.718681 0.0471324 0
M  V30 5 C -1.02982 0.604947 0.212583 0
M  V30 6 C -0.0159823 1.56668 0.151496 0
M  V30 7 N -0.318024 2.93345 0.260823 0
M  V30 8 N 1.24152 1.07738 -0.080586 0
M  V30 9 C -1.92889 -1.71411 0.0957115 0
M  V30 10 F -3.01949 -1.01864 0.593688 0
M  V30 11 F -1.71027 -2.85685 0.8223 0
M  V30 12 F -2.23259 -1.93079 -1.2333 0
M  V30 13 H 3.51974 -0.611096 -1.22867 0
M  V30 14 H 3.35607 -1.02106 0.515734 0
M  V30 15 H 0.759984 -2.18883 -0.272479 0
M  V30 16 H -2.04566 0.930922 0.387936 0
M  V30 17 H -0.0112198 3.55448 -0.549839 0
M  V30 18 H -0.77202 3.32812 1.09567 0
M  V30 END ATOM
M  V30 BEGIN BOND
M  V30 1 1 1 2
M  V30 2 2 2 3
M  V30 3 1 3 4
M  V30 4 2 4 5
M  V30 5 1 5 6
M  V30 6 1 6 7
M  V30 7 2 6 8
M  V30 8 1 4 9
M  V30 9 1 9 10
M  V30 10 1 9 11
M  V30 11 1 9 12
M  V30 12 1 8 2
M  V30 13 1 1 13
M  V30 14 1 1 14
M  V30 15 1 3 15
M  V30 16 1 5 16
M  V30 17 1 7 17
M  V30 18 1 7 18
M  V30 END BOND
M  V30 END CTAB
M  END
