
     RDKit          3D

  0  0  0  0  0  0  0  0  0  0999 V3000
M  V30 BEGIN CTAB
M  V30 COUNTS 27 27 0 0 0
M  V30 BEGIN ATOM
M  V30 1 C -2.91778 1.63871 0.931473 0
M  V30 2 C -2.33114 0.2542 1.15363 0
M  V30 3 N -1.70998 -0.268546 -0.0427877 0
M  V30 4 C -0.307137 -0.435267 -0.0730644 0
M  V30 5 C 0.56045 0.607368 -0.34832 0
M  V30 6 C 1.93362 0.424897 -0.375697 0
M  V30 7 N 2.76973 1.54357 -0.663735 0
M  V30 8 N 4.17099 1.46219 -0.671109 0
M  V30 9 N 2.43759 -0.808827 -0.126513 0
M  V30 10 C 1.59883 -1.82962 0.142505 0
M  V30 11 N 0.276121 -1.6302 0.164307 0
M  V30 12 N 2.11477 -3.13434 0.404273 0
M  V30 13 C -2.51569 -0.61335 -1.16714 0
M  V30 14 H -3.77208 1.73723 1.61245 0
M  V30 15 H -2.12419 2.40084 1.07695 0
M  V30 16 H -3.32728 1.66826 -0.116129 0
M  V30 17 H -3.08252 -0.463415 1.53392 0
M  V30 18 H -1.58344 0.359112 1.9871 0
M  V30 19 H 0.144551 1.58349 -0.545725 0
M  V30 20 H 2.34707 2.47315 -0.880599 0
M  V30 21 H 4.56901 1.91365 0.190321 0
M  V30 22 H 4.44343 0.442362 -0.683225 0
M  V30 23 H 2.91267 -3.30442 1.0528 0
M  V30 24 H 1.702 -3.96055 -0.0543445 0
M  V30 25 H -2.54731 0.232607 -1.89186 0
M  V30 26 H -3.60047 -0.770805 -0.883264 0
M  V30 27 H -2.16182 -1.5223 -1.72623 0
M  V30 END ATOM
M  V30 BEGIN BOND
M  V30 1 1 1 2
M  V30 2 1 2 3
M  V30 3 1 3 4
M  V30 4 2 4 5
M  V30 5 1 5 6
M  V30 6 1 6 7
M  V30 7 1 7 8
M  V30 8 2 6 9
M  V30 9 1 9 10
M  V30 10 2 10 11
M  V30 11 1 10 12
M  V30 12 1 3 13
M  V30 13 1 11 4
M  V30 14 1 1 14
M  V30 15 1 1 15
M  V30 16 1 1 16
M  V30 17 1 2 17
M  V30 18 1 2 18
M  V30 19 1 5 19
M  V30 20 1 7 20
M  V30 21 1 8 21
M  V30 22 1 8 22
M  V30 23 1 12 23
M  V30 24 1 12 24
M  V30 25 1 13 25
M  V30 26 1 13 26
M  V30 27 1 13 27
M  V30 END BOND
M  V30 END CTAB
M  END
