
     RDKit          3D

  0  0  0  0  0  0  0  0  0  0999 V3000
M  V30 BEGIN CTAB
M  V30 COUNTS 65 69 0 0 0
M  V30 BEGIN ATOM
M  V30 1 C 4.70094 4.17051 -0.822487 0
M  V30 2 O 3.31458 4.12806 -0.628198 0
M  V30 3 C 2.66204 3.01662 -0.0759952 0
M  V30 4 C 3.45076 1.94572 0.276656 0
M  V30 5 C 2.81205 0.833726 0.825791 0
M  V30 6 C 3.63272 -0.308686 1.20285 0
M  V30 7 C 3.65112 -1.47301 0.310758 0
M  V30 8 C 2.9747 -2.63238 0.675361 0
M  V30 9 N 2.99246 -3.72185 -0.105983 0
M  V30 10 C 3.65996 -3.75961 -1.2805 0
M  V30 11 N 3.67334 -4.91669 -2.09982 0
M  V30 12 N 4.32217 -2.67029 -1.66934 0
M  V30 13 C 4.31906 -1.55631 -0.895607 0
M  V30 14 N 5.05146 -0.466991 -1.38104 0
M  V30 15 C 1.42411 0.815687 1.01044 0
M  V30 16 C 0.521691 -0.0812655 1.51138 0
M  V30 17 C -0.7627 0.497113 1.43274 0
M  V30 18 C -2.02474 -0.143474 1.87059 0
M  V30 19 C -2.75775 -0.869688 0.833691 0
M  V30 20 C -3.68506 -0.397422 -0.100874 0
M  V30 21 N -3.99137 -1.4673 -0.856822 0
M  V30 22 C -3.31168 -2.58088 -0.447225 0
M  V30 23 C -3.28343 -3.88674 -0.887597 0
M  V30 24 C -2.48795 -4.83792 -0.282021 0
M  V30 25 C -1.69414 -4.46641 0.801903 0
M  V30 26 Cl -0.705428 -5.7114 1.5317 0
M  V30 27 C -1.72632 -3.16603 1.23578 0
M  V30 28 C -2.54324 -2.21537 0.604158 0
M  V30 29 C -4.20717 0.948336 -0.186595 0
M  V30 30 O -3.76954 1.80408 0.666811 0
M  V30 31 N -5.14049 1.45484 -1.08839 0
M  V30 32 C -5.7955 0.716246 -2.13773 0
M  V30 33 C -5.52389 2.89207 -0.996229 0
M  V30 34 O -0.572712 1.64663 0.918563 0
M  V30 35 C 0.669054 1.90685 0.646269 0
M  V30 36 C 1.2984 3.00266 0.102827 0
M  V30 37 O 0.533963 4.09539 -0.262192 0
M  V30 38 C 0.30338 5.10856 0.69311 0
M  V30 39 H 5.28404 4.27894 0.110196 0
M  V30 40 H 5.04521 3.27106 -1.39709 0
M  V30 41 H 4.93102 5.0436 -1.4842 0
M  V30 42 H 4.52976 2.00101 0.134331 0
M  V30 43 H 3.33514 -0.630493 2.25449 0
M  V30 44 H 4.69455 0.0597327 1.37509 0
M  V30 45 H 2.41013 -2.71093 1.59618 0
M  V30 46 H 4.22135 -5.75285 -1.83328 0
M  V30 47 H 3.1297 -4.93575 -2.9787 0
M  V30 48 H 4.61601 0.129709 -2.14197 0
M  V30 49 H 5.99561 -0.169597 -1.07301 0
M  V30 50 H 0.734424 -1.04576 1.90726 0
M  V30 51 H -2.72323 0.545376 2.3902 0
M  V30 52 H -1.71196 -0.851385 2.71017 0
M  V30 53 H -4.65169 -1.50317 -1.66286 0
M  V30 54 H -3.91942 -4.15682 -1.74618 0
M  V30 55 H -2.47461 -5.87625 -0.643175 0
M  V30 56 H -1.11788 -2.87636 2.06861 0
M  V30 57 H -5.10605 0.390689 -2.91371 0
M  V30 58 H -6.47143 -0.0897722 -1.73144 0
M  V30 59 H -6.53497 1.38535 -2.67515 0
M  V30 60 H -6.60891 2.91602 -0.815191 0
M  V30 61 H -5.31644 3.35242 -1.96736 0
M  V30 62 H -4.99715 3.37771 -0.178331 0
M  V30 63 H 0.897153 6.01597 0.431142 0
M  V30 64 H -0.782785 5.37406 0.773809 0
M  V30 65 H 0.607565 4.80408 1.72311 0
M  V30 END ATOM
M  V30 BEGIN BOND
M  V30 1 1 1 2
M  V30 2 1 2 3
M  V30 3 2 3 4
M  V30 4 1 4 5
M  V30 5 1 5 6
M  V30 6 1 6 7
M  V30 7 2 7 8
M  V30 8 1 8 9
M  V30 9 2 9 10
M  V30 10 1 10 11
M  V30 11 1 10 12
M  V30 12 2 12 13
M  V30 13 1 13 14
M  V30 14 2 5 15
M  V30 15 1 15 16
M  V30 16 2 16 17
M  V30 17 1 17 18
M  V30 18 1 18 19
M  V30 19 2 19 20
M  V30 20 1 20 21
M  V30 21 1 21 22
M  V30 22 2 22 23
M  V30 23 1 23 24
M  V30 24 2 24 25
M  V30 25 1 25 26
M  V30 26 1 25 27
M  V30 27 2 27 28
M  V30 28 1 20 29
M  V30 29 2 29 30
M  V30 30 1 29 31
M  V30 31 1 31 32
M  V30 32 1 31 33
M  V30 33 1 17 34
M  V30 34 1 34 35
M  V30 35 2 35 36
M  V30 36 1 36 37
M  V30 37 1 37 38
M  V30 38 1 36 3
M  V30 39 1 13 7
M  V30 40 1 35 15
M  V30 41 1 28 19
M  V30 42 1 28 22
M  V30 43 1 1 39
M  V30 44 1 1 40
M  V30 45 1 1 41
M  V30 46 1 4 42
M  V30 47 1 6 43
M  V30 48 1 6 44
M  V30 49 1 8 45
M  V30 50 1 11 46
M  V30 51 1 11 47
M  V30 52 1 14 48
M  V30 53 1 14 49
M  V30 54 1 16 50
M  V30 55 1 18 51
M  V30 56 1 18 52
M  V30 57 1 21 53
M  V30 58 1 23 54
M  V30 59 1 24 55
M  V30 60 1 27 56
M  V30 61 1 32 57
M  V30 62 1 32 58
M  V30 63 1 32 59
M  V30 64 1 33 60
M  V30 65 1 33 61
M  V30 66 1 33 62
M  V30 67 1 38 63
M  V30 68 1 38 64
M  V30 69 1 38 65
M  V30 END BOND
M  V30 END CTAB
M  END
