
     RDKit          3D

  0  0  0  0  0  0  0  0  0  0999 V3000
M  V30 BEGIN CTAB
M  V30 COUNTS 30 32 0 0 0
M  V30 BEGIN ATOM
M  V30 1 N 5.24181 -1.39947 0.840061 0
M  V30 2 C 4.04605 -0.669045 0.625884 0
M  V30 3 C 4.05553 0.720406 0.546137 0
M  V30 4 C 2.91896 1.46178 0.339814 0
M  V30 5 C 1.69846 0.815411 0.202459 0
M  V30 6 C 1.67383 -0.562696 0.279374 0
M  V30 7 C 2.81759 -1.29845 0.486398 0
M  V30 8 N 0.374022 -0.940075 0.114942 0
M  V30 9 C -0.387586 0.153647 -0.0581572 0
M  V30 10 N 0.437329 1.21373 -0.00170241 0
M  V30 11 C -1.82973 0.171126 -0.266057 0
M  V30 12 C -2.51524 1.34969 -0.433172 0
M  V30 13 C -3.88074 1.41989 -0.63316 0
M  V30 14 O -4.54314 2.64862 -0.799885 0
M  V30 15 C -4.57993 0.229474 -0.663999 0
M  V30 16 C -3.90926 -0.964084 -0.498141 0
M  V30 17 C -2.53902 -1.0096 -0.298914 0
M  V30 18 N -1.89983 -2.28362 -0.132879 0
M  V30 19 H 5.67919 -1.89218 0.0499125 0
M  V30 20 H 5.65207 -1.42441 1.78256 0
M  V30 21 H 4.99388 1.25249 0.649688 0
M  V30 22 H 2.91002 2.54754 0.275148 0
M  V30 23 H 2.80186 -2.3815 0.547361 0
M  V30 24 H 0.158437 2.21627 -0.100227 0
M  V30 25 H -1.939 2.26797 -0.404093 0
M  V30 26 H -3.9701 3.48252 -0.766338 0
M  V30 27 H -5.65403 0.285168 -0.821339 0
M  V30 28 H -4.49197 -1.88634 -0.52792 0
M  V30 29 H -1.73807 -2.91653 -0.943241 0
M  V30 30 H -1.5814 -2.60773 0.802557 0
M  V30 END ATOM
M  V30 BEGIN BOND
M  V30 1 1 1 2
M  V30 2 2 2 3
M  V30 3 1 3 4
M  V30 4 2 4 5
M  V30 5 1 5 6
M  V30 6 2 6 7
M  V30 7 1 6 8
M  V30 8 2 8 9
M  V30 9 1 9 10
M  V30 10 1 9 11
M  V30 11 2 11 12
M  V30 12 1 12 13
M  V30 13 1 13 14
M  V30 14 2 13 15
M  V30 15 1 15 16
M  V30 16 2 16 17
M  V30 17 1 17 18
M  V30 18 1 7 2
M  V30 19 1 17 11
M  V30 20 1 10 5
M  V30 21 1 1 19
M  V30 22 1 1 20
M  V30 23 1 3 21
M  V30 24 1 4 22
M  V30 25 1 7 23
M  V30 26 1 10 24
M  V30 27 1 12 25
M  V30 28 1 14 26
M  V30 29 1 15 27
M  V30 30 1 16 28
M  V30 31 1 18 29
M  V30 32 1 18 30
M  V30 END BOND
M  V30 END CTAB
M  END
