
     RDKit          3D

  0  0  0  0  0  0  0  0  0  0999 V3000
M  V30 BEGIN CTAB
M  V30 COUNTS 66 68 0 0 0
M  V30 BEGIN ATOM
M  V30 1 C -7.47067 3.82436 1.19567 0
M  V30 2 C -6.63269 2.87 2.01272 0
M  V30 3 O -6.15693 1.8489 1.1595 0
M  V30 4 C -7.04876 1.03107 0.488128 0
M  V30 5 O -8.2773 1.21754 0.656827 0
M  V30 6 C -6.55391 -0.0667792 -0.432829 0
M  V30 7 C -5.06847 -0.032663 -0.42744 0
M  V30 8 C -4.37552 -1.03049 -1.29603 0
M  V30 9 N -2.93322 -0.779548 -1.11584 0
M  V30 10 C -2.15516 -0.350352 -2.20328 0
M  V30 11 O -2.6693 -0.174733 -3.32955 0
M  V30 12 C -0.735263 -0.103018 -2.03017 0
M  V30 13 C 0.00427103 0.521582 -3.04447 0
M  V30 14 C 1.34615 0.778961 -2.9418 0
M  V30 15 C 2.03501 0.414887 -1.78892 0
M  V30 16 N 3.4284 0.670165 -1.64983 0
M  V30 17 C 4.0902 0.254853 -0.462953 0
M  V30 18 C 5.52335 0.56727 -0.371647 0
M  V30 19 C 6.21882 0.168534 0.784777 0
M  V30 20 Cl 5.30624 -0.683672 2.03172 0
M  V30 21 C 7.55278 0.420182 0.957338 0
M  V30 22 C 8.28182 1.09121 -0.0209637 0
M  V30 23 C 7.60994 1.48488 -1.15511 0
M  V30 24 C 6.27084 1.22375 -1.31206 0
M  V30 25 N 9.61053 1.36121 0.114251 0
M  V30 26 C 10.22 0.957786 1.23723 0
M  V30 27 N 11.6103 1.23049 1.3981 0
M  V30 28 N 9.54739 0.309767 2.19778 0
M  V30 29 C 8.22716 0.0241353 2.09856 0
M  V30 30 N 7.54254 -0.66315 3.1278 0
M  V30 31 C 1.3114 -0.200301 -0.787815 0
M  V30 32 C -0.0376057 -0.454078 -0.901555 0
M  V30 33 C -4.67262 -2.4017 -0.829693 0
M  V30 34 O -3.7286 -3.10024 -0.33601 0
M  V30 35 O -5.93074 -2.95581 -0.908974 0
M  V30 36 C -6.10212 -4.29504 -0.427115 0
M  V30 37 C -5.72816 -4.32344 1.04791 0
M  V30 38 H -7.28725 4.88228 1.47609 0
M  V30 39 H -8.55019 3.55074 1.38479 0
M  V30 40 H -7.26653 3.62794 0.127537 0
M  V30 41 H -5.77283 3.39849 2.49995 0
M  V30 42 H -7.2357 2.39933 2.83923 0
M  V30 43 H -7.02518 -0.987174 -0.0962439 0
M  V30 44 H -6.89818 0.142189 -1.48821 0
M  V30 45 H -4.68214 0.988804 -0.672984 0
M  V30 46 H -4.73418 -0.22662 0.620564 0
M  V30 47 H -4.58523 -0.867841 -2.36808 0
M  V30 48 H -2.53597 -0.937333 -0.149353 0
M  V30 49 H -0.55686 0.798522 -3.93933 0
M  V30 50 H 1.90733 1.26191 -3.73239 0
M  V30 51 H 3.91591 1.14704 -2.41269 0
M  V30 52 H 3.55243 0.57085 0.46894 0
M  V30 53 H 4.00546 -0.879076 -0.422521 0
M  V30 54 H 8.18352 2.01072 -1.92034 0
M  V30 55 H 5.77758 1.55814 -2.23523 0
M  V30 56 H 12.2519 0.467972 1.69266 0
M  V30 57 H 11.9131 2.20726 1.20579 0
M  V30 58 H 7.0978 -0.135922 3.90238 0
M  V30 59 H 7.50461 -1.70137 3.09126 0
M  V30 60 H 1.84731 -0.484679 0.111231 0
M  V30 61 H -0.530547 -0.940864 -0.0729226 0
M  V30 62 H -7.1887 -4.50905 -0.514517 0
M  V30 63 H -5.51871 -5.01061 -1.03354 0
M  V30 64 H -4.73129 -4.7335 1.23222 0
M  V30 65 H -6.45104 -4.96775 1.59517 0
M  V30 66 H -5.8666 -3.2869 1.47198 0
M  V30 END ATOM
M  V30 BEGIN BOND
M  V30 1 1 1 2
M  V30 2 1 2 3
M  V30 3 1 3 4
M  V30 4 2 4 5
M  V30 5 1 4 6
M  V30 6 1 6 7
M  V30 7 1 7 8
M  V30 8 1 8 9
M  V30 9 1 9 10
M  V30 10 2 10 11
M  V30 11 1 10 12
M  V30 12 2 12 13
M  V30 13 1 13 14
M  V30 14 2 14 15
M  V30 15 1 15 16
M  V30 16 1 16 17
M  V30 17 1 17 18
M  V30 18 2 18 19
M  V30 19 1 19 20
M  V30 20 1 19 21
M  V30 21 2 21 22
M  V30 22 1 22 23
M  V30 23 2 23 24
M  V30 24 1 22 25
M  V30 25 2 25 26
M  V30 26 1 26 27
M  V30 27 1 26 28
M  V30 28 2 28 29
M  V30 29 1 29 30
M  V30 30 1 15 31
M  V30 31 2 31 32
M  V30 32 1 8 33
M  V30 33 2 33 34
M  V30 34 1 33 35
M  V30 35 1 35 36
M  V30 36 1 36 37
M  V30 37 1 32 12
M  V30 38 1 24 18
M  V30 39 1 29 21
M  V30 40 1 1 38
M  V30 41 1 1 39
M  V30 42 1 1 40
M  V30 43 1 2 41
M  V30 44 1 2 42
M  V30 45 1 6 43
M  V30 46 1 6 44
M  V30 47 1 7 45
M  V30 48 1 7 46
M  V30 49 1 8 47
M  V30 50 1 9 48
M  V30 51 1 13 49
M  V30 52 1 14 50
M  V30 53 1 16 51
M  V30 54 1 17 52
M  V30 55 1 17 53
M  V30 56 1 23 54
M  V30 57 1 24 55
M  V30 58 1 27 56
M  V30 59 1 27 57
M  V30 60 1 30 58
M  V30 61 1 30 59
M  V30 62 1 31 60
M  V30 63 1 32 61
M  V30 64 1 36 62
M  V30 65 1 36 63
M  V30 66 1 37 64
M  V30 67 1 37 65
M  V30 68 1 37 66
M  V30 END BOND
M  V30 END CTAB
M  END
