
     RDKit          3D

  0  0  0  0  0  0  0  0  0  0999 V3000
M  V30 BEGIN CTAB
M  V30 COUNTS 26 26 0 0 0
M  V30 BEGIN ATOM
M  V30 1 N 4.0899 0.0759156 0.566221 0
M  V30 2 C 2.77346 0.633668 0.386841 0
M  V30 3 C 1.82709 -0.461028 -0.137702 0
M  V30 4 C 0.436025 -0.0385257 -0.310556 0
M  V30 5 C -0.426535 -0.216003 0.820722 0
M  V30 6 C -1.80779 -0.0374992 0.701872 0
M  V30 7 C -2.33127 0.313562 -0.514382 0
M  V30 8 C -1.49425 0.489543 -1.59663 0
M  V30 9 C -0.147007 0.319381 -1.50239 0
M  V30 10 Br 1.003 0.671489 -2.98406 0
M  V30 11 O -3.70395 0.468321 -0.622933 0
M  V30 12 C -4.59954 0.263161 0.46151 0
M  V30 13 N 2.38898 -1.26223 -1.18395 0
M  V30 14 H 4.69839 0.179481 -0.24835 0
M  V30 15 H 4.57013 0.43865 1.39435 0
M  V30 16 H 2.44733 1.20823 1.20978 0
M  V30 17 H 2.93216 1.27888 -0.599435 0
M  V30 18 H 1.81516 -1.19058 0.763906 0
M  V30 19 H -0.0530612 -0.502452 1.77405 0
M  V30 20 H -2.43046 -0.21265 1.56524 0
M  V30 21 H -1.87905 0.792635 -2.57588 0
M  V30 22 H -4.36149 -0.77045 0.811637 0
M  V30 23 H -5.63604 0.28314 -0.0278907 0
M  V30 24 H -4.50139 1.0452 1.20348 0
M  V30 25 H 1.61884 -1.58081 -1.86139 0
M  V30 26 H 2.77136 -2.18903 -0.791549 0
M  V30 END ATOM
M  V30 BEGIN BOND
M  V30 1 1 1 2
M  V30 2 1 2 3
M  V30 3 1 3 4
M  V30 4 2 4 5
M  V30 5 1 5 6
M  V30 6 2 6 7
M  V30 7 1 7 8
M  V30 8 2 8 9
M  V30 9 1 9 10
M  V30 10 1 7 11
M  V30 11 1 11 12
M  V30 12 1 3 13
M  V30 13 1 9 4
M  V30 14 1 1 14
M  V30 15 1 1 15
M  V30 16 1 2 16
M  V30 17 1 2 17
M  V30 18 1 3 18
M  V30 19 1 5 19
M  V30 20 1 6 20
M  V30 21 1 8 21
M  V30 22 1 12 22
M  V30 23 1 12 23
M  V30 24 1 12 24
M  V30 25 1 13 25
M  V30 26 1 13 26
M  V30 END BOND
M  V30 END CTAB
M  END
