
     RDKit          3D

  0  0  0  0  0  0  0  0  0  0999 V3000
M  V30 BEGIN CTAB
M  V30 COUNTS 37 38 0 0 0
M  V30 BEGIN ATOM
M  V30 1 N -2.53207 -3.83608 -0.27334 0
M  V30 2 C -2.84621 -2.74604 -0.123504 0
M  V30 3 C -3.2792 -1.32506 0.0578255 0
M  V30 4 C -4.37256 -0.985371 -0.546628 0
M  V30 5 N -5.0423 -2.02696 -1.32661 0
M  V30 6 C -5.0268 0.333231 -0.534564 0
M  V30 7 C -2.42205 -0.544811 0.867958 0
M  V30 8 O -1.38285 -1.17405 1.35247 0
M  V30 9 C -2.52476 0.85886 1.24397 0
M  V30 10 S -1.51731 1.95067 0.175141 0
M  V30 11 C 0.230565 1.62968 0.398719 0
M  V30 12 N 0.982651 0.74021 -0.286153 0
M  V30 13 C 2.246 0.788759 0.166094 0
M  V30 14 C 2.24122 1.74369 1.15683 0
M  V30 15 N 0.998572 2.27493 1.31341 0
M  V30 16 N 0.602036 3.2626 2.21356 0
M  V30 17 C 3.392 -0.0042542 -0.293442 0
M  V30 18 C 3.26763 -0.938446 -1.29972 0
M  V30 19 C 4.35775 -1.68689 -1.73331 0
M  V30 20 C 5.58942 -1.48878 -1.14247 0
M  V30 21 C 5.73792 -0.560361 -0.134632 0
M  V30 22 C 4.6466 0.148374 0.257497 0
M  V30 23 H -5.52332 -1.75975 -2.19365 0
M  V30 24 H -5.01465 -2.99403 -0.989026 0
M  V30 25 H -5.48791 0.50763 0.470845 0
M  V30 26 H -4.35326 1.1451 -0.792151 0
M  V30 27 H -5.88076 0.337897 -1.30016 0
M  V30 28 H -3.5197 1.26974 1.39698 0
M  V30 29 H -2.05859 0.925784 2.28889 0
M  V30 30 H 3.11473 2.02453 1.72656 0
M  V30 31 H 0.869281 3.18989 3.21252 0
M  V30 32 H 0.0403303 4.0792 1.91235 0
M  V30 33 H 2.29589 -1.09606 -1.76736 0
M  V30 34 H 4.24087 -2.42286 -2.5319 0
M  V30 35 H 6.45025 -2.06549 -1.47026 0
M  V30 36 H 6.7279 -0.43395 0.306028 0
M  V30 37 H 4.75267 0.878491 1.04602 0
M  V30 END ATOM
M  V30 BEGIN BOND
M  V30 1 3 1 2
M  V30 2 1 2 3
M  V30 3 2 3 4 CFG=2
M  V30 4 1 4 5
M  V30 5 1 4 6
M  V30 6 1 3 7
M  V30 7 2 7 8
M  V30 8 1 7 9
M  V30 9 1 9 10
M  V30 10 1 10 11
M  V30 11 2 11 12
M  V30 12 1 12 13
M  V30 13 2 13 14
M  V30 14 1 14 15
M  V30 15 1 15 16
M  V30 16 1 13 17
M  V30 17 2 17 18
M  V30 18 1 18 19
M  V30 19 2 19 20
M  V30 20 1 20 21
M  V30 21 2 21 22
M  V30 22 1 15 11
M  V30 23 1 22 17
M  V30 24 1 5 23
M  V30 25 1 5 24
M  V30 26 1 6 25
M  V30 27 1 6 26
M  V30 28 1 6 27
M  V30 29 1 9 28
M  V30 30 1 9 29
M  V30 31 1 14 30
M  V30 32 1 16 31
M  V30 33 1 16 32
M  V30 34 1 18 33
M  V30 35 1 19 34
M  V30 36 1 20 35
M  V30 37 1 21 36
M  V30 38 1 22 37
M  V30 END BOND
M  V30 END CTAB
M  END
