
     RDKit          3D

  0  0  0  0  0  0  0  0  0  0999 V3000
M  V30 BEGIN CTAB
M  V30 COUNTS 31 32 0 0 0
M  V30 BEGIN ATOM
M  V30 1 N 4.50034 1.38786 -0.104623 0
M  V30 2 C 3.21865 0.801656 -0.194584 0
M  V30 3 C 2.72433 0.0304796 0.857459 0
M  V30 4 C 1.47276 -0.548531 0.782755 0
M  V30 5 C 0.679196 -0.382028 -0.328475 0
M  V30 6 C 1.1612 0.377448 -1.36928 0
M  V30 7 C 2.42534 0.973877 -1.31697 0
M  V30 8 C -0.629571 -1.00598 -0.375734 0 CFG=1
M  V30 9 C -1.07529 -1.63638 0.909536 0
M  V30 10 C -2.54156 -1.9384 0.573077 0
M  V30 11 C -2.83198 -1.15358 -0.699854 0
M  V30 12 N -1.71952 -0.198285 -0.834823 0
M  V30 13 S -2.10659 1.13394 0.142141 0
M  V30 14 O -2.65588 0.74942 1.4952 0
M  V30 15 O -3.24726 1.87294 -0.551562 0
M  V30 16 N -0.829572 2.28167 0.299276 0
M  V30 17 H 5.33489 0.80857 -0.282112 0
M  V30 18 H 4.61402 2.38415 0.13533 0
M  V30 19 H 3.33461 -0.113105 1.74302 0
M  V30 20 H 1.14808 -1.14293 1.64893 0
M  V30 21 H 0.601773 0.5572 -2.27702 0
M  V30 22 H 2.81507 1.57241 -2.12753 0
M  V30 23 H -0.561264 -1.85948 -1.11824 0
M  V30 24 H -0.503221 -2.57597 1.03829 0
M  V30 25 H -0.970944 -1.02065 1.79596 0
M  V30 26 H -2.61111 -3.03461 0.381635 0
M  V30 27 H -3.17344 -1.65632 1.41412 0
M  V30 28 H -2.86631 -1.83516 -1.58117 0
M  V30 29 H -3.7817 -0.623645 -0.543749 0
M  V30 30 H -0.814289 2.85117 -0.577957 0
M  V30 31 H -1.11075 2.94228 1.06694 0
M  V30 END ATOM
M  V30 BEGIN BOND
M  V30 1 1 1 2
M  V30 2 2 2 3
M  V30 3 1 3 4
M  V30 4 2 4 5
M  V30 5 1 5 6
M  V30 6 2 6 7
M  V30 7 1 5 8
M  V30 8 1 8 9
M  V30 9 1 9 10
M  V30 10 1 10 11
M  V30 11 1 11 12
M  V30 12 1 12 13
M  V30 13 2 13 14
M  V30 14 2 13 15
M  V30 15 1 13 16
M  V30 16 1 7 2
M  V30 17 1 12 8
M  V30 18 1 1 17
M  V30 19 1 1 18
M  V30 20 1 3 19
M  V30 21 1 4 20
M  V30 22 1 6 21
M  V30 23 1 7 22
M  V30 24 1 8 23 CFG=3
M  V30 25 1 9 24
M  V30 26 1 9 25
M  V30 27 1 10 26
M  V30 28 1 10 27
M  V30 29 1 11 28
M  V30 30 1 11 29
M  V30 31 1 16 30
M  V30 32 1 16 31
M  V30 END BOND
M  V30 END CTAB
M  END
