
     RDKit          3D

  0  0  0  0  0  0  0  0  0  0999 V3000
M  V30 BEGIN CTAB
M  V30 COUNTS 24 24 0 0 0
M  V30 BEGIN ATOM
M  V30 1 C -3.48971 0.383627 0.621589 0
M  V30 2 N -2.31513 -0.380488 0.309558 0
M  V30 3 N -2.28365 -1.7455 0.603219 0
M  V30 4 C -1.19647 0.196169 -0.311787 0
M  V30 5 C 0.075166 -0.162443 0.0800796 0
M  V30 6 C 1.17227 0.376421 -0.54398 0
M  V30 7 N 0.896887 1.25906 -1.5456 0
M  V30 8 C -0.325158 1.59864 -1.91761 0
M  V30 9 N -1.36509 1.06813 -1.30117 0
M  V30 10 N 2.50527 0.0724864 -0.182372 0
M  V30 11 C 2.89895 -0.795806 0.884517 0
M  V30 12 N 3.54802 0.683114 -0.927638 0
M  V30 13 H -3.82735 0.931663 -0.261468 0
M  V30 14 H -3.32827 1.06449 1.49222 0
M  V30 15 H -4.30909 -0.309747 0.98809 0
M  V30 16 H -1.33348 -2.14662 0.441992 0
M  V30 17 H -2.93847 -2.16922 -0.132955 0
M  V30 18 H 0.212245 -0.883442 0.890461 0
M  V30 19 H -0.498604 2.3153 -2.7293 0
M  V30 20 H 2.06302 -1.0849 1.54764 0
M  V30 21 H 3.33758 -1.74626 0.455543 0
M  V30 22 H 3.712 -0.337408 1.51934 0
M  V30 23 H 3.60618 0.163849 -1.83166 0
M  V30 24 H 3.1829 1.64889 -1.17809 0
M  V30 END ATOM
M  V30 BEGIN BOND
M  V30 1 1 1 2
M  V30 2 1 2 3
M  V30 3 1 2 4
M  V30 4 2 4 5
M  V30 5 1 5 6
M  V30 6 2 6 7
M  V30 7 1 7 8
M  V30 8 2 8 9
M  V30 9 1 6 10
M  V30 10 1 10 11
M  V30 11 1 10 12
M  V30 12 1 9 4
M  V30 13 1 1 13
M  V30 14 1 1 14
M  V30 15 1 1 15
M  V30 16 1 3 16
M  V30 17 1 3 17
M  V30 18 1 5 18
M  V30 19 1 8 19
M  V30 20 1 11 20
M  V30 21 1 11 21
M  V30 22 1 11 22
M  V30 23 1 12 23
M  V30 24 1 12 24
M  V30 END BOND
M  V30 END CTAB
M  END
