
     RDKit          3D

  0  0  0  0  0  0  0  0  0  0999 V3000
M  V30 BEGIN CTAB
M  V30 COUNTS 34 35 0 0 0
M  V30 BEGIN ATOM
M  V30 1 N -3.76862 -0.598117 0.352481 0
M  V30 2 C -3.14163 0.514206 -0.276892 0
M  V30 3 C -1.69689 0.346692 -0.667663 0
M  V30 4 N -0.84202 0.10385 0.359803 0
M  V30 5 C -0.815686 -1.13799 1.0303 0
M  V30 6 C 0.00568188 -2.17348 0.252431 0
M  V30 7 C 1.33298 -1.54049 0.0169988 0
M  V30 8 C 1.56271 -0.158709 0.101832 0
M  V30 9 C 0.450906 0.73314 0.459575 0 CFG=1
M  V30 10 S 0.531236 2.32906 -0.22049 0
M  V30 11 O 1.70133 3.06836 0.437651 0
M  V30 12 O 0.734302 2.44018 -1.67043 0
M  V30 13 N -0.845233 3.29318 0.278692 0
M  V30 14 C 2.82752 0.317672 -0.135875 0
M  V30 15 C 3.91341 -0.497838 -0.460936 0
M  V30 16 C 3.6691 -1.85105 -0.538971 0
M  V30 17 C 2.40444 -2.34383 -0.302818 0
M  V30 18 H -3.88479 -0.483121 1.38279 0
M  V30 19 H -4.75192 -0.745713 -0.0056156 0
M  V30 20 H -3.7784 0.796097 -1.15284 0
M  V30 21 H -3.24685 1.36954 0.466926 0
M  V30 22 H -1.39175 1.12043 -1.42165 0
M  V30 23 H -1.73505 -0.582767 -1.34782 0
M  V30 24 H -0.239205 -1.00202 1.99456 0
M  V30 25 H -1.76894 -1.56902 1.33338 0
M  V30 26 H 0.0808951 -3.06232 0.907511 0
M  V30 27 H -0.4795 -2.48092 -0.690242 0
M  V30 28 H 0.542937 0.893174 1.58629 0
M  V30 29 H -1.60571 3.24756 -0.429875 0
M  V30 30 H -0.50268 4.30051 0.254929 0
M  V30 31 H 3.10161 1.36542 -0.0954406 0
M  V30 32 H 4.89972 -0.0921875 -0.640069 0
M  V30 33 H 4.50162 -2.501 -0.788089 0
M  V30 34 H 2.23449 -3.41852 -0.370438 0
M  V30 END ATOM
M  V30 BEGIN BOND
M  V30 1 1 1 2
M  V30 2 1 2 3
M  V30 3 1 3 4
M  V30 4 1 4 5
M  V30 5 1 5 6
M  V30 6 1 6 7
M  V30 7 2 7 8
M  V30 8 1 8 9
M  V30 9 1 9 10
M  V30 10 2 10 11
M  V30 11 2 10 12
M  V30 12 1 10 13
M  V30 13 1 8 14
M  V30 14 2 14 15
M  V30 15 1 15 16
M  V30 16 2 16 17
M  V30 17 1 9 4
M  V30 18 1 17 7
M  V30 19 1 1 18
M  V30 20 1 1 19
M  V30 21 1 2 20
M  V30 22 1 2 21
M  V30 23 1 3 22
M  V30 24 1 3 23
M  V30 25 1 5 24
M  V30 26 1 5 25
M  V30 27 1 6 26
M  V30 28 1 6 27
M  V30 29 1 9 28 CFG=1
M  V30 30 1 13 29
M  V30 31 1 13 30
M  V30 32 1 14 31
M  V30 33 1 15 32
M  V30 34 1 16 33
M  V30 35 1 17 34
M  V30 END BOND
M  V30 END CTAB
M  END
