
     RDKit          3D

  0  0  0  0  0  0  0  0  0  0999 V3000
M  V30 BEGIN CTAB
M  V30 COUNTS 40 41 0 0 0
M  V30 BEGIN ATOM
M  V30 1 C 4.68286 -0.0285552 -3.73781 0
M  V30 2 O 3.57556 0.691238 -3.21433 0
M  V30 3 C 3.19608 0.620982 -1.89383 0
M  V30 4 C 2.11724 1.3631 -1.47121 0
M  V30 5 C 1.69676 1.32611 -0.162546 0
M  V30 6 C 0.526167 2.11474 0.301507 0
M  V30 7 C -0.666483 1.27056 0.433032 0
M  V30 8 C -1.66588 0.566342 0.514328 0
M  V30 9 C -2.83871 -0.262 0.574957 0
M  V30 10 C -3.59506 -0.512182 -0.563366 0
M  V30 11 C -3.10984 0.134683 -1.82522 0
M  V30 12 N -4.68044 -1.28309 -0.502587 0
M  V30 13 C -5.07141 -1.83702 0.657661 0
M  V30 14 N -6.2405 -2.66198 0.701517 0
M  V30 15 N -4.35062 -1.6036 1.76371 0
M  V30 16 C -3.24842 -0.833021 1.74996 0
M  V30 17 N -2.48957 -0.585873 2.91342 0
M  V30 18 C 2.38463 0.52095 0.73124 0
M  V30 19 O 1.96581 0.48244 2.04305 0
M  V30 20 C 2.57714 -0.288172 3.0254 0
M  V30 21 C 3.46766 -0.235162 0.344742 0
M  V30 22 C 3.86166 -0.169265 -0.988372 0
M  V30 23 H 5.61763 0.324284 -3.26109 0
M  V30 24 H 4.57847 -1.12148 -3.56976 0
M  V30 25 H 4.70711 0.130701 -4.82389 0
M  V30 26 H 1.59601 1.98816 -2.20031 0
M  V30 27 H 0.377456 2.94996 -0.403355 0
M  V30 28 H 0.711 2.56231 1.30061 0
M  V30 29 H -3.78105 0.00750764 -2.66917 0
M  V30 30 H -2.93333 1.20926 -1.53345 0
M  V30 31 H -2.08515 -0.302406 -1.99609 0
M  V30 32 H -6.1799 -3.59207 0.241761 0
M  V30 33 H -7.13526 -2.39933 1.15535 0
M  V30 34 H -2.33204 -1.35126 3.58393 0
M  V30 35 H -2.09558 0.348256 3.09685 0
M  V30 36 H 2.27907 0.132759 4.03283 0
M  V30 37 H 3.68238 -0.314023 2.94023 0
M  V30 38 H 2.15913 -1.33118 2.94916 0
M  V30 39 H 4.0274 -0.881977 1.03664 0
M  V30 40 H 4.71203 -0.768628 -1.27549 0
M  V30 END ATOM
M  V30 BEGIN BOND
M  V30 1 1 1 2
M  V30 2 1 2 3
M  V30 3 2 3 4
M  V30 4 1 4 5
M  V30 5 1 5 6
M  V30 6 1 6 7
M  V30 7 3 7 8
M  V30 8 1 8 9
M  V30 9 2 9 10
M  V30 10 1 10 11
M  V30 11 1 10 12
M  V30 12 2 12 13
M  V30 13 1 13 14
M  V30 14 1 13 15
M  V30 15 2 15 16
M  V30 16 1 16 17
M  V30 17 2 5 18
M  V30 18 1 18 19
M  V30 19 1 19 20
M  V30 20 1 18 21
M  V30 21 2 21 22
M  V30 22 1 22 3
M  V30 23 1 16 9
M  V30 24 1 1 23
M  V30 25 1 1 24
M  V30 26 1 1 25
M  V30 27 1 4 26
M  V30 28 1 6 27
M  V30 29 1 6 28
M  V30 30 1 11 29
M  V30 31 1 11 30
M  V30 32 1 11 31
M  V30 33 1 14 32
M  V30 34 1 14 33
M  V30 35 1 17 34
M  V30 36 1 17 35
M  V30 37 1 20 36
M  V30 38 1 20 37
M  V30 39 1 20 38
M  V30 40 1 21 39
M  V30 41 1 22 40
M  V30 END BOND
M  V30 END CTAB
M  END
