
     RDKit          3D

  0  0  0  0  0  0  0  0  0  0999 V3000
M  V30 BEGIN CTAB
M  V30 COUNTS 69 71 0 0 0
M  V30 BEGIN ATOM
M  V30 1 C -4.46147 -0.908647 0.691257 0
M  V30 2 C -5.38221 0.210992 0.362492 0
M  V30 3 C -6.79861 -0.0103886 0.809298 0
M  V30 4 C -7.55238 1.23603 0.406162 0
M  V30 5 O -7.40011 2.25755 1.1211 0
M  V30 6 O -8.37692 1.29807 -0.682352 0
M  V30 7 C -9.08751 2.45668 -1.06997 0
M  V30 8 C -10.0368 2.9182 0.0179948 0
M  V30 9 N -3.12278 -0.563685 0.208577 0
M  V30 10 C -2.03537 -0.386053 1.09994 0
M  V30 11 O -2.22905 -0.529569 2.34928 0
M  V30 12 C -0.723611 -0.0457632 0.583376 0
M  V30 13 C 0.31691 0.070366 1.4866 0
M  V30 14 C 1.58757 0.390259 1.06122 0
M  V30 15 C 1.90215 0.61114 -0.261076 0
M  V30 16 C 3.25496 0.950272 -0.758385 0
M  V30 17 N 4.31607 0.379444 0.0911788 0
M  V30 18 C 5.68059 0.627231 -0.226179 0
M  V30 19 C 6.68889 0.0974312 0.552739 0
M  V30 20 C 6.44562 -0.741241 1.72553 0
M  V30 21 C 8.01277 0.395994 0.172241 0
M  V30 22 C 9.06717 -0.0908838 0.894861 0
M  V30 23 N 8.91779 -0.902919 2.0358 0
M  V30 24 N 10.3331 0.222013 0.49445 0
M  V30 25 C 10.5563 0.982341 -0.572601 0
M  V30 26 N 11.9239 1.27357 -0.938896 0
M  V30 27 N 9.5654 1.48586 -1.31661 0
M  V30 28 C 8.28916 1.19051 -0.941144 0
M  V30 29 C 7.24176 1.69179 -1.68165 0
M  V30 30 C 5.9525 1.42794 -1.34871 0
M  V30 31 C 0.84972 0.491592 -1.1545 0
M  V30 32 C -0.428738 0.171212 -0.738917 0
M  V30 33 C -4.87783 -2.21433 0.141778 0
M  V30 34 O -4.07638 -2.79809 -0.660447 0
M  V30 35 O -6.05202 -2.86611 0.414546 0
M  V30 36 C -6.30961 -4.11672 -0.188458 0
M  V30 37 C -6.31733 -3.99144 -1.67978 0
M  V30 38 H -4.3893 -0.974898 1.80722 0
M  V30 39 H -5.38541 0.428164 -0.729177 0
M  V30 40 H -5.00946 1.11043 0.932624 0
M  V30 41 H -6.81383 -0.150928 1.89621 0
M  V30 42 H -7.31014 -0.835668 0.269768 0
M  V30 43 H -8.41489 3.28845 -1.35091 0
M  V30 44 H -9.67095 2.18631 -1.96765 0
M  V30 45 H -10.7914 3.60851 -0.436648 0
M  V30 46 H -9.5229 3.47467 0.811597 0
M  V30 47 H -10.5476 2.05127 0.489441 0
M  V30 48 H -3.03208 -0.460829 -0.819596 0
M  V30 49 H 0.102958 -0.0990078 2.54915 0
M  V30 50 H 2.35425 0.469285 1.81505 0
M  V30 51 H 3.40689 0.464324 -1.75226 0
M  V30 52 H 3.40246 2.0488 -0.853043 0
M  V30 53 H 4.00846 -0.171228 0.870835 0
M  V30 54 H 6.5932 -0.278658 2.71405 0
M  V30 55 H 5.30418 -0.836914 1.77703 0
M  V30 56 H 6.67522 -1.81905 1.62782 0
M  V30 57 H 8.81039 -0.60073 3.00701 0
M  V30 58 H 8.94456 -1.95142 1.84989 0
M  V30 59 H 12.1422 2.03083 -1.59604 0
M  V30 60 H 12.7145 0.719402 -0.541986 0
M  V30 61 H 7.52447 2.30519 -2.53944 0
M  V30 62 H 5.12589 1.81607 -1.92267 0
M  V30 63 H 1.05914 0.659167 -2.20936 0
M  V30 64 H -1.21529 0.089511 -1.46922 0
M  V30 65 H -7.26989 -4.55993 0.196442 0
M  V30 66 H -5.47735 -4.78986 0.120887 0
M  V30 67 H -7.1708 -4.59983 -2.063 0
M  V30 68 H -5.33775 -4.35661 -2.09625 0
M  V30 69 H -6.44325 -2.9355 -1.93913 0
M  V30 END ATOM
M  V30 BEGIN BOND
M  V30 1 1 1 2
M  V30 2 1 2 3
M  V30 3 1 3 4
M  V30 4 2 4 5
M  V30 5 1 4 6
M  V30 6 1 6 7
M  V30 7 1 7 8
M  V30 8 1 1 9
M  V30 9 1 9 10
M  V30 10 2 10 11
M  V30 11 1 10 12
M  V30 12 2 12 13
M  V30 13 1 13 14
M  V30 14 2 14 15
M  V30 15 1 15 16
M  V30 16 1 16 17
M  V30 17 1 17 18
M  V30 18 2 18 19
M  V30 19 1 19 20
M  V30 20 1 19 21
M  V30 21 2 21 22
M  V30 22 1 22 23
M  V30 23 1 22 24
M  V30 24 2 24 25
M  V30 25 1 25 26
M  V30 26 1 25 27
M  V30 27 2 27 28
M  V30 28 1 28 29
M  V30 29 2 29 30
M  V30 30 1 15 31
M  V30 31 2 31 32
M  V30 32 1 1 33
M  V30 33 2 33 34
M  V30 34 1 33 35
M  V30 35 1 35 36
M  V30 36 1 36 37
M  V30 37 1 32 12
M  V30 38 1 30 18
M  V30 39 1 28 21
M  V30 40 1 1 38
M  V30 41 1 2 39
M  V30 42 1 2 40
M  V30 43 1 3 41
M  V30 44 1 3 42
M  V30 45 1 7 43
M  V30 46 1 7 44
M  V30 47 1 8 45
M  V30 48 1 8 46
M  V30 49 1 8 47
M  V30 50 1 9 48
M  V30 51 1 13 49
M  V30 52 1 14 50
M  V30 53 1 16 51
M  V30 54 1 16 52
M  V30 55 1 17 53
M  V30 56 1 20 54
M  V30 57 1 20 55
M  V30 58 1 20 56
M  V30 59 1 23 57
M  V30 60 1 23 58
M  V30 61 1 26 59
M  V30 62 1 26 60
M  V30 63 1 29 61
M  V30 64 1 30 62
M  V30 65 1 31 63
M  V30 66 1 32 64
M  V30 67 1 36 65
M  V30 68 1 36 66
M  V30 69 1 37 67
M  V30 70 1 37 68
M  V30 71 1 37 69
M  V30 END BOND
M  V30 END CTAB
M  END
