
     RDKit          3D

  0  0  0  0  0  0  0  0  0  0999 V3000
M  V30 BEGIN CTAB
M  V30 COUNTS 25 26 0 0 0
M  V30 BEGIN ATOM
M  V30 1 C 5.11878 -0.505157 -0.177562 0
M  V30 2 O 3.72042 -0.424987 -0.0560126 0
M  V30 3 C 2.84532 -0.361364 -1.11183 0
M  V30 4 O 3.32184 -0.375357 -2.27335 0
M  V30 5 C 1.3944 -0.278556 -0.955514 0
M  V30 6 S 0.238817 -0.196418 -2.19085 0
M  V30 7 C -1.18659 -0.12462 -1.23494 0
M  V30 8 C -0.701475 -0.16803 0.0337352 0
M  V30 9 C 0.646889 -0.248553 0.188483 0
M  V30 10 N 1.34504 -0.304524 1.46866 0
M  V30 11 C -1.67991 -0.122985 1.04562 0
M  V30 12 C -3.00895 -0.0413037 0.698832 0
M  V30 13 C -3.47407 0.00126659 -0.597301 0
M  V30 14 N -2.52151 -0.0430735 -1.54173 0
M  V30 15 N -4.85303 0.0855223 -0.914842 0
M  V30 16 C -4.00467 0.00423619 1.75367 0
M  V30 17 N -4.78993 0.0356717 2.6034 0
M  V30 18 H 5.6469 0.421207 0.0818482 0
M  V30 19 H 5.46609 -1.31888 0.49061 0
M  V30 20 H 5.45227 -0.788225 -1.19985 0
M  V30 21 H 1.49495 0.579621 1.97899 0
M  V30 22 H 1.68453 -1.18571 1.86681 0
M  V30 23 H -1.38201 -0.152746 2.08487 0
M  V30 24 H -5.22077 0.555916 -1.76866 0
M  V30 25 H -5.55333 -0.339336 -0.273073 0
M  V30 END ATOM
M  V30 BEGIN BOND
M  V30 1 1 1 2
M  V30 2 1 2 3
M  V30 3 2 3 4
M  V30 4 1 3 5
M  V30 5 1 5 6
M  V30 6 1 6 7
M  V30 7 2 7 8
M  V30 8 1 8 9
M  V30 9 1 9 10
M  V30 10 1 8 11
M  V30 11 2 11 12
M  V30 12 1 12 13
M  V30 13 2 13 14
M  V30 14 1 13 15
M  V30 15 1 12 16
M  V30 16 3 16 17
M  V30 17 2 9 5
M  V30 18 1 14 7
M  V30 19 1 1 18
M  V30 20 1 1 19
M  V30 21 1 1 20
M  V30 22 1 10 21
M  V30 23 1 10 22
M  V30 24 1 11 23
M  V30 25 1 15 24
M  V30 26 1 15 25
M  V30 END BOND
M  V30 END CTAB
M  END
