
     RDKit          3D

  0  0  0  0  0  0  0  0  0  0999 V3000
M  V30 BEGIN CTAB
M  V30 COUNTS 49 52 0 0 0
M  V30 BEGIN ATOM
M  V30 1 C 6.71306 -1.46103 0.880189 0
M  V30 2 C 5.78305 -0.354211 0.531481 0
M  V30 3 C 6.14271 0.928284 0.877296 0
M  V30 4 C 5.28738 1.95259 0.539173 0
M  V30 5 C 4.07835 1.71424 -0.142194 0
M  V30 6 C 3.71392 0.452587 -0.490791 0
M  V30 7 C 4.60228 -0.586623 -0.133786 0
M  V30 8 C 2.55251 0.0878952 -1.30466 0
M  V30 9 C 2.75092 -0.107744 -2.71095 0
M  V30 10 N 1.59247 -0.533199 -3.16077 0
M  V30 11 N 0.699659 -0.616304 -2.16698 0
M  V30 12 C 1.27942 -0.233102 -1.01278 0
M  V30 13 C 0.547637 -0.0484984 0.284305 0
M  V30 14 C -0.406354 -1.15609 0.57378 0
M  V30 15 C -1.72562 -1.20118 -0.0433405 0
M  V30 16 N -2.44865 0.0384435 0.316294 0
M  V30 17 C -1.66664 1.13645 0.708511 0
M  V30 18 C -0.273615 1.24605 0.165834 0
M  V30 19 C -3.86037 -0.000116795 0.230029 0
M  V30 20 C -4.68433 0.796614 0.982821 0
M  V30 21 C -6.05202 0.674129 0.859788 0
M  V30 22 N -6.9206 1.45666 1.64859 0
M  V30 23 N -6.58291 -0.235661 -0.013283 0
M  V30 24 C -5.75459 -1.01193 -0.748803 0
M  V30 25 N -4.446 -0.898984 -0.632375 0
M  V30 26 N -6.39764 -1.92895 -1.62549 0
M  V30 27 H 7.47791 -1.58364 0.0578921 0
M  V30 28 H 6.18985 -2.40519 1.02491 0
M  V30 29 H 7.23154 -1.23724 1.84611 0
M  V30 30 H 7.07011 1.14431 1.401 0
M  V30 31 H 5.59012 2.95882 0.81362 0
M  V30 32 H 3.43309 2.55432 -0.382754 0
M  V30 33 H 4.31427 -1.58189 -0.401631 0
M  V30 34 H 3.66752 0.0660104 -3.24531 0
M  V30 35 H -0.272542 -0.927575 -2.31733 0
M  V30 36 H 1.24363 0.0789719 1.11776 0
M  V30 37 H 0.151157 -2.13787 0.531231 0
M  V30 38 H -0.601123 -1.05327 1.7114 0
M  V30 39 H -1.89668 -1.42929 -1.07088 0
M  V30 40 H -2.28795 -2.05259 0.51103 0
M  V30 41 H -1.55423 1.1998 1.83456 0
M  V30 42 H -2.18615 2.09545 0.426307 0
M  V30 43 H -0.241731 1.61308 -0.879153 0
M  V30 44 H 0.222472 2.06488 0.759093 0
M  V30 45 H -4.31645 1.5318 1.67991 0
M  V30 46 H -7.09472 1.20286 2.63621 0
M  V30 47 H -7.3764 2.28407 1.22899 0
M  V30 48 H -6.3031 -2.95566 -1.52524 0
M  V30 49 H -6.98462 -1.54046 -2.39366 0
M  V30 END ATOM
M  V30 BEGIN BOND
M  V30 1 1 1 2
M  V30 2 2 2 3
M  V30 3 1 3 4
M  V30 4 2 4 5
M  V30 5 1 5 6
M  V30 6 2 6 7
M  V30 7 1 6 8
M  V30 8 1 8 9
M  V30 9 2 9 10
M  V30 10 1 10 11
M  V30 11 1 11 12
M  V30 12 1 12 13
M  V30 13 1 13 14
M  V30 14 1 14 15
M  V30 15 1 15 16
M  V30 16 1 16 17
M  V30 17 1 17 18
M  V30 18 1 16 19
M  V30 19 2 19 20
M  V30 20 1 20 21
M  V30 21 1 21 22
M  V30 22 2 21 23
M  V30 23 1 23 24
M  V30 24 2 24 25
M  V30 25 1 24 26
M  V30 26 1 7 2
M  V30 27 2 12 8
M  V30 28 1 18 13
M  V30 29 1 25 19
M  V30 30 1 1 27
M  V30 31 1 1 28
M  V30 32 1 1 29
M  V30 33 1 3 30
M  V30 34 1 4 31
M  V30 35 1 5 32
M  V30 36 1 7 33
M  V30 37 1 9 34
M  V30 38 1 11 35
M  V30 39 1 13 36
M  V30 40 1 14 37
M  V30 41 1 14 38
M  V30 42 1 15 39
M  V30 43 1 15 40
M  V30 44 1 17 41
M  V30 45 1 17 42
M  V30 46 1 18 43
M  V30 47 1 18 44
M  V30 48 1 20 45
M  V30 49 1 22 46
M  V30 50 1 22 47
M  V30 51 1 26 48
M  V30 52 1 26 49
M  V30 END BOND
M  V30 END CTAB
M  END
