
     RDKit          3D

  0  0  0  0  0  0  0  0  0  0999 V3000
M  V30 BEGIN CTAB
M  V30 COUNTS 47 48 0 0 0
M  V30 BEGIN ATOM
M  V30 1 C 5.29066 -0.457767 0.598318 0
M  V30 2 C 4.5068 -1.49034 -0.173127 0
M  V30 3 C 3.03777 -1.13127 -0.256004 0
M  V30 4 C 2.41672 -1.02888 1.10744 0
M  V30 5 N 1.02464 -0.678041 1.0627 0
M  V30 6 C 0.507636 0.590757 0.679394 0
M  V30 7 C -0.851166 0.7919 0.568009 0
M  V30 8 O -1.71921 -0.221179 0.80371 0
M  V30 9 C -2.15552 -1.18463 -0.0918312 0
M  V30 10 C -3.09059 -2.10069 0.344475 0
M  V30 11 C -3.56796 -3.08383 -0.486033 0
M  V30 12 N -4.52629 -4.04648 -0.0872322 0
M  V30 13 C -3.1248 -3.19508 -1.80725 0
M  V30 14 C -2.18013 -2.26109 -2.23062 0
M  V30 15 C -1.71442 -1.28557 -1.38688 0
M  V30 16 C -1.30087 2.03631 0.215878 0
M  V30 17 C -0.375978 3.06422 -0.0206735 0
M  V30 18 C 0.98019 2.87892 0.0864141 0
M  V30 19 C 1.42001 1.60263 0.447351 0
M  V30 20 C 1.93624 3.96145 -0.163491 0
M  V30 21 O 1.42294 5.20164 -0.517727 0
M  V30 22 O 3.16158 3.80964 -0.0710304 0
M  V30 23 S -2.99571 2.40797 0.05765 0
M  V30 24 N -3.83121 2.11628 1.56296 0
M  V30 25 O -3.17016 3.9047 -0.1866 0
M  V30 26 O -3.66882 1.73796 -1.07535 0
M  V30 27 H 6.35939 -0.674683 0.562467 0
M  V30 28 H 5.13303 0.575092 0.171015 0
M  V30 29 H 4.96663 -0.490064 1.66584 0
M  V30 30 H 4.92089 -1.56875 -1.19227 0
M  V30 31 H 4.66713 -2.45782 0.321512 0
M  V30 32 H 2.52241 -1.99809 -0.776937 0
M  V30 33 H 2.8803 -0.279246 -0.913806 0
M  V30 34 H 2.52529 -1.95905 1.68725 0
M  V30 35 H 2.9189 -0.215276 1.70812 0
M  V30 36 H 0.28606 -1.40585 1.33351 0
M  V30 37 H -3.4739 -2.06439 1.3648 0
M  V30 38 H -5.50828 -3.75191 0.0467859 0
M  V30 39 H -4.22581 -5.02448 0.062067 0
M  V30 40 H -3.48944 -3.95885 -2.46781 0
M  V30 41 H -1.80801 -2.31099 -3.25109 0
M  V30 42 H -0.987556 -0.591239 -1.76237 0
M  V30 43 H -0.755577 4.04012 -0.298524 0
M  V30 44 H 2.49336 1.499 0.533352 0
M  V30 45 H 1.30054 5.469 -1.50403 0
M  V30 46 H -3.36609 2.68083 2.30291 0
M  V30 47 H -4.79162 2.5471 1.42678 0
M  V30 END ATOM
M  V30 BEGIN BOND
M  V30 1 1 1 2
M  V30 2 1 2 3
M  V30 3 1 3 4
M  V30 4 1 4 5
M  V30 5 1 5 6
M  V30 6 2 6 7
M  V30 7 1 7 8
M  V30 8 1 8 9
M  V30 9 2 9 10
M  V30 10 1 10 11
M  V30 11 1 11 12
M  V30 12 2 11 13
M  V30 13 1 13 14
M  V30 14 2 14 15
M  V30 15 1 7 16
M  V30 16 2 16 17
M  V30 17 1 17 18
M  V30 18 2 18 19
M  V30 19 1 18 20
M  V30 20 1 20 21
M  V30 21 2 20 22
M  V30 22 1 16 23
M  V30 23 1 23 24
M  V30 24 2 23 25
M  V30 25 2 23 26
M  V30 26 1 19 6
M  V30 27 1 15 9
M  V30 28 1 1 27
M  V30 29 1 1 28
M  V30 30 1 1 29
M  V30 31 1 2 30
M  V30 32 1 2 31
M  V30 33 1 3 32
M  V30 34 1 3 33
M  V30 35 1 4 34
M  V30 36 1 4 35
M  V30 37 1 5 36
M  V30 38 1 10 37
M  V30 39 1 12 38
M  V30 40 1 12 39
M  V30 41 1 13 40
M  V30 42 1 14 41
M  V30 43 1 15 42
M  V30 44 1 17 43
M  V30 45 1 19 44
M  V30 46 1 21 45
M  V30 47 1 24 46
M  V30 48 1 24 47
M  V30 END BOND
M  V30 END CTAB
M  END
