
     RDKit          3D

  0  0  0  0  0  0  0  0  0  0999 V3000
M  V30 BEGIN CTAB
M  V30 COUNTS 30 31 0 0 0
M  V30 BEGIN ATOM
M  V30 1 C 4.66895 0.607968 -0.0651139 0
M  V30 2 C 3.18201 0.404852 0.0450921 0
M  V30 3 C 2.47267 -0.119111 -1.02906 0
M  V30 4 C 1.12822 -0.327686 -0.964257 0
M  V30 5 N 0.342461 -0.874794 -2.0073 0
M  V30 6 C 0.464763 -0.00990693 0.200563 0
M  V30 7 C 1.14488 0.512856 1.28529 0
M  V30 8 C 2.51002 0.720061 1.19941 0
M  V30 9 C -0.995308 -0.182921 0.300579 0
M  V30 10 C -1.8725 0.563039 -0.500459 0
M  V30 11 C -3.23551 0.427412 -0.354909 0
M  V30 12 N -4.14203 1.20735 -1.15598 0
M  V30 13 C -3.80775 -0.426126 0.558155 0
M  V30 14 C -2.95141 -1.15881 1.34307 0
M  V30 15 C -1.56649 -1.03541 1.21227 0
M  V30 16 O -0.755371 -1.80467 2.02803 0
M  V30 17 H 4.91895 1.50459 -0.692688 0
M  V30 18 H 5.16227 -0.31658 -0.412549 0
M  V30 19 H 5.04934 0.798599 0.94978 0
M  V30 20 H 2.99592 -0.369013 -1.94602 0
M  V30 21 H 0.0878081 -0.30592 -2.81738 0
M  V30 22 H 0.0227147 -1.8617 -1.95054 0
M  V30 23 H 0.612404 0.785158 2.21407 0
M  V30 24 H 3.01964 1.12608 2.06088 0
M  V30 25 H -1.4523 1.23311 -1.22631 0
M  V30 26 H -4.94159 0.761347 -1.67457 0
M  V30 27 H -4.05028 2.24033 -1.25148 0
M  V30 28 H -4.88005 -0.50206 0.642688 0
M  V30 29 H -3.36587 -1.83852 2.07045 0
M  V30 30 H 0.233438 -1.75952 1.93829 0
M  V30 END ATOM
M  V30 BEGIN BOND
M  V30 1 1 1 2
M  V30 2 2 2 3
M  V30 3 1 3 4
M  V30 4 1 4 5
M  V30 5 2 4 6
M  V30 6 1 6 7
M  V30 7 2 7 8
M  V30 8 1 6 9
M  V30 9 2 9 10
M  V30 10 1 10 11
M  V30 11 1 11 12
M  V30 12 2 11 13
M  V30 13 1 13 14
M  V30 14 2 14 15
M  V30 15 1 15 16
M  V30 16 1 8 2
M  V30 17 1 15 9
M  V30 18 1 1 17
M  V30 19 1 1 18
M  V30 20 1 1 19
M  V30 21 1 3 20
M  V30 22 1 5 21
M  V30 23 1 5 22
M  V30 24 1 7 23
M  V30 25 1 8 24
M  V30 26 1 10 25
M  V30 27 1 12 26
M  V30 28 1 12 27
M  V30 29 1 13 28
M  V30 30 1 14 29
M  V30 31 1 16 30
M  V30 END BOND
M  V30 END CTAB
M  END
