
     RDKit          3D

  0  0  0  0  0  0  0  0  0  0999 V3000
M  V30 BEGIN CTAB
M  V30 COUNTS 32 34 0 0 0
M  V30 BEGIN ATOM
M  V30 1 C -0.838612 3.42252 -0.944947 0
M  V30 2 C -0.543062 2.70086 0.296983 0
M  V30 3 N -0.33511 1.29731 0.236066 0
M  V30 4 C 0.898919 0.786932 0.03809 0
M  V30 5 C 2.16515 1.33133 -0.142716 0
M  V30 6 C 3.27941 0.56143 -0.327926 0
M  V30 7 C 3.18031 -0.812151 -0.341595 0
M  V30 8 N 4.34953 -1.587 -0.53523 0
M  V30 9 C 1.93904 -1.37502 -0.164968 0
M  V30 10 C 0.824172 -0.583844 0.0207795 0
M  V30 11 C -0.488334 -0.941674 0.212517 0
M  V30 12 C -1.16182 0.257689 0.339815 0
M  V30 13 C -2.52173 0.203118 0.545098 0
M  V30 14 C -3.193 -0.994252 0.621965 0
M  V30 15 C -2.51365 -2.17314 0.494201 0
M  V30 16 N -3.19284 -3.44363 0.570729 0
M  V30 17 C -1.16291 -2.15533 0.289544 0
M  V30 18 H -0.666006 4.50537 -0.757194 0
M  V30 19 H -0.15019 3.16164 -1.78566 0
M  V30 20 H -1.9147 3.36317 -1.2643 0
M  V30 21 H -1.42447 2.86956 0.98905 0
M  V30 22 H 0.303512 3.20614 0.809864 0
M  V30 23 H 2.26728 2.40822 -0.135697 0
M  V30 24 H 4.27111 1.00229 -0.469223 0
M  V30 25 H 4.35393 -2.34226 -1.24601 0
M  V30 26 H 5.20869 -1.41702 0.0202878 0
M  V30 27 H 1.84031 -2.43898 -0.172229 0
M  V30 28 H -3.03971 1.12087 0.642914 0
M  V30 29 H -4.25839 -1.04663 0.782605 0
M  V30 30 H -3.36277 -4.02048 -0.283201 0
M  V30 31 H -3.52763 -3.81218 1.47716 0
M  V30 32 H -0.586448 -3.05483 0.183227 0
M  V30 END ATOM
M  V30 BEGIN BOND
M  V30 1 1 1 2
M  V30 2 1 2 3
M  V30 3 1 3 4
M  V30 4 2 4 5
M  V30 5 1 5 6
M  V30 6 2 6 7
M  V30 7 1 7 8
M  V30 8 1 7 9
M  V30 9 2 9 10
M  V30 10 1 10 11
M  V30 11 2 11 12
M  V30 12 1 12 13
M  V30 13 2 13 14
M  V30 14 1 14 15
M  V30 15 1 15 16
M  V30 16 2 15 17
M  V30 17 1 12 3
M  V30 18 1 10 4
M  V30 19 1 17 11
M  V30 20 1 1 18
M  V30 21 1 1 19
M  V30 22 1 1 20
M  V30 23 1 2 21
M  V30 24 1 2 22
M  V30 25 1 5 23
M  V30 26 1 6 24
M  V30 27 1 8 25
M  V30 28 1 8 26
M  V30 29 1 9 27
M  V30 30 1 13 28
M  V30 31 1 14 29
M  V30 32 1 16 30
M  V30 33 1 16 31
M  V30 34 1 17 32
M  V30 END BOND
M  V30 END CTAB
M  END
