
     RDKit          3D

  0  0  0  0  0  0  0  0  0  0999 V3000
M  V30 BEGIN CTAB
M  V30 COUNTS 99 100 0 0 0
M  V30 BEGIN ATOM
M  V30 1 C 4.95769 0.855389 -0.521594 0 CFG=1
M  V30 2 N 6.17906 0.961283 0.185363 0
M  V30 3 C 5.03496 0.126387 -1.8151 0
M  V30 4 C 5.88814 0.611989 -2.90199 0
M  V30 5 C 5.59511 1.94114 -3.51726 0
M  V30 6 N 5.70389 3.10095 -2.70159 0
M  V30 7 C 6.94322 3.61956 -2.22334 0
M  V30 8 N 8.15443 3.03042 -2.65328 0
M  V30 9 N 6.99624 4.60683 -1.40098 0
M  V30 10 C 3.80124 0.32386 0.267739 0
M  V30 11 O 2.74131 0.126007 -0.43544 0
M  V30 12 N 3.73054 0.0291168 1.61793 0
M  V30 13 C 4.68577 0.115089 2.72765 0
M  V30 14 C 3.84504 0.938225 3.7078 0
M  V30 15 C 2.39124 0.650668 3.34826 0
M  V30 16 C 2.56198 -0.50337 2.35297 0 CFG=1
M  V30 17 C 1.35304 -0.670437 1.52118 0
M  V30 18 O 0.640674 0.369831 1.39741 0
M  V30 19 N 0.994436 -1.88073 0.902194 0
M  V30 20 C -0.0554344 -2.29016 0.0692772 0 CFG=1
M  V30 21 C -0.752433 -3.5656 0.372479 0
M  V30 22 C 0.110105 -4.76917 0.384635 0
M  V30 23 C 0.385648 -5.4948 -0.755826 0
M  V30 24 C 1.15268 -6.64212 -0.728971 0
M  V30 25 C 1.68279 -7.11787 0.444053 0
M  V30 26 O 2.46401 -8.28781 0.477025 0
M  V30 27 C 1.42253 -6.41064 1.59024 0
M  V30 28 C 0.646877 -5.24833 1.57335 0
M  V30 29 C -1.02626 -1.23866 -0.403041 0
M  V30 30 O -0.579322 -0.172375 -0.853684 0
M  V30 31 N -2.41389 -1.425 -0.348569 0
M  V30 32 C -3.36855 -0.407179 -0.825115 0 CFG=2
M  V30 33 C -3.9664 0.304876 0.318124 0
M  V30 34 O -3.62638 -0.117527 1.48022 0
M  V30 35 N -4.85203 1.38744 0.303251 0
M  V30 36 C -5.35241 2.00358 1.5481 0 CFG=1
M  V30 37 C -4.69055 3.31218 1.79547 0
M  V30 38 C -4.85267 4.37261 0.76626 0
M  V30 39 C -6.24247 4.83584 0.502133 0
M  V30 40 C -4.06969 5.59277 1.26952 0
M  V30 41 C -6.80253 1.99806 1.53093 0
M  V30 42 O -7.49424 2.54283 2.61199 0
M  V30 43 O -7.46773 1.52358 0.588494 0
M  V30 44 C -4.45043 -1.09686 -1.63678 0 CFG=1
M  V30 45 C -5.48277 -0.200704 -2.20481 0
M  V30 46 C -3.82721 -1.97152 -2.71164 0
M  V30 47 C -4.9113 -2.64494 -3.51066 0
M  V30 48 H 4.65789 1.92606 -0.763219 0
M  V30 49 H 6.9758 0.399617 -0.151873 0
M  V30 50 H 6.3958 1.888 0.573146 0
M  V30 51 H 3.96999 0.094048 -2.23163 0
M  V30 52 H 5.2105 -0.992007 -1.63432 0
M  V30 53 H 5.86912 -0.16459 -3.73234 0
M  V30 54 H 6.98385 0.647052 -2.62969 0
M  V30 55 H 6.31286 2.11454 -4.39061 0
M  V30 56 H 4.59615 1.95101 -4.03738 0
M  V30 57 H 4.84402 3.6459 -2.40638 0
M  V30 58 H 8.3071 2.81862 -3.66039 0
M  V30 59 H 8.93857 2.78387 -1.98192 0
M  V30 60 H 6.09902 5.01979 -1.09246 0
M  V30 61 H 5.63359 0.557371 2.51718 0
M  V30 62 H 4.72723 -0.92371 3.13941 0
M  V30 63 H 4.09653 1.99836 3.47439 0
M  V30 64 H 4.02623 0.656155 4.74287 0
M  V30 65 H 1.82053 0.362612 4.2311 0
M  V30 66 H 1.94738 1.49459 2.77885 0
M  V30 67 H 2.91259 -1.41633 2.85599 0
M  V30 68 H 1.74105 -2.67225 1.12338 0
M  V30 69 H 0.478552 -2.47163 -0.969602 0
M  V30 70 H -1.45464 -3.74183 -0.514789 0
M  V30 71 H -1.44638 -3.51034 1.22758 0
M  V30 72 H -0.0309363 -5.12634 -1.70503 0
M  V30 73 H 1.34009 -7.1799 -1.64009 0
M  V30 74 H 1.98398 -9.18914 0.627981 0
M  V30 75 H 1.82139 -6.75361 2.54168 0
M  V30 76 H 0.439302 -4.68786 2.47304 0
M  V30 77 H -2.81824 -2.29459 0.0333853 0
M  V30 78 H -2.82683 0.339249 -1.41369 0
M  V30 79 H -5.21299 1.83873 -0.559059 0
M  V30 80 H -4.94156 1.31254 2.36322 0
M  V30 81 H -5.05521 3.75012 2.77571 0
M  V30 82 H -3.58052 3.18848 1.99698 0
M  V30 83 H -4.31506 4.09236 -0.18725 0
M  V30 84 H -6.73926 5.08019 1.48155 0
M  V30 85 H -6.85243 4.19177 -0.151603 0
M  V30 86 H -6.25181 5.84071 -0.0329543 0
M  V30 87 H -4.49818 5.84012 2.26543 0
M  V30 88 H -4.1617 6.44286 0.569413 0
M  V30 89 H -3.01925 5.24511 1.36589 0
M  V30 90 H -8.49828 2.7373 2.53131 0
M  V30 91 H -4.96691 -1.78975 -0.900641 0
M  V30 92 H -5.93424 -0.703222 -3.11229 0
M  V30 93 H -5.02888 0.728902 -2.63356 0
M  V30 94 H -6.3245 -0.0357051 -1.53293 0
M  V30 95 H -3.12555 -2.71136 -2.26033 0
M  V30 96 H -3.22338 -1.35354 -3.39912 0
M  V30 97 H -4.60238 -3.66058 -3.85676 0
M  V30 98 H -5.87018 -2.71852 -2.92747 0
M  V30 99 H -5.12777 -2.014 -4.39465 0
M  V30 END ATOM
M  V30 BEGIN BOND
M  V30 1 1 1 2
M  V30 2 1 1 3
M  V30 3 1 3 4
M  V30 4 1 4 5
M  V30 5 1 5 6
M  V30 6 1 6 7
M  V30 7 1 7 8
M  V30 8 2 7 9 CFG=2
M  V30 9 1 1 10
M  V30 10 2 10 11
M  V30 11 1 10 12
M  V30 12 1 12 13
M  V30 13 1 13 14
M  V30 14 1 14 15
M  V30 15 1 15 16
M  V30 16 1 16 17
M  V30 17 2 17 18
M  V30 18 1 17 19
M  V30 19 1 19 20
M  V30 20 1 20 21
M  V30 21 1 21 22
M  V30 22 2 22 23
M  V30 23 1 23 24
M  V30 24 2 24 25
M  V30 25 1 25 26
M  V30 26 1 25 27
M  V30 27 2 27 28
M  V30 28 1 20 29
M  V30 29 2 29 30
M  V30 30 1 29 31
M  V30 31 1 31 32
M  V30 32 1 32 33
M  V30 33 2 33 34
M  V30 34 1 33 35
M  V30 35 1 35 36
M  V30 36 1 36 37
M  V30 37 1 37 38
M  V30 38 1 38 39
M  V30 39 1 38 40
M  V30 40 1 36 41
M  V30 41 1 41 42
M  V30 42 2 41 43
M  V30 43 1 32 44
M  V30 44 1 44 45
M  V30 45 1 44 46
M  V30 46 1 46 47
M  V30 47 1 16 12
M  V30 48 1 28 22
M  V30 49 1 1 48 CFG=3
M  V30 50 1 2 49
M  V30 51 1 2 50
M  V30 52 1 3 51
M  V30 53 1 3 52
M  V30 54 1 4 53
M  V30 55 1 4 54
M  V30 56 1 5 55
M  V30 57 1 5 56
M  V30 58 1 6 57
M  V30 59 1 8 58
M  V30 60 1 8 59
M  V30 61 1 9 60
M  V30 62 1 13 61
M  V30 63 1 13 62
M  V30 64 1 14 63
M  V30 65 1 14 64
M  V30 66 1 15 65
M  V30 67 1 15 66
M  V30 68 1 16 67 CFG=1
M  V30 69 1 19 68
M  V30 70 1 20 69 CFG=3
M  V30 71 1 21 70
M  V30 72 1 21 71
M  V30 73 1 23 72
M  V30 74 1 24 73
M  V30 75 1 26 74
M  V30 76 1 27 75
M  V30 77 1 28 76
M  V30 78 1 31 77
M  V30 79 1 32 78 CFG=3
M  V30 80 1 35 79
M  V30 81 1 36 80 CFG=1
M  V30 82 1 37 81
M  V30 83 1 37 82
M  V30 84 1 38 83
M  V30 85 1 39 84
M  V30 86 1 39 85
M  V30 87 1 39 86
M  V30 88 1 40 87
M  V30 89 1 40 88
M  V30 90 1 40 89
M  V30 91 1 42 90
M  V30 92 1 44 91 CFG=1
M  V30 93 1 45 92
M  V30 94 1 45 93
M  V30 95 1 45 94
M  V30 96 1 46 95
M  V30 97 1 46 96
M  V30 98 1 47 97
M  V30 99 1 47 98
M  V30 100 1 47 99
M  V30 END BOND
M  V30 END CTAB
M  END
