
     RDKit          3D

  0  0  0  0  0  0  0  0  0  0999 V3000
M  V30 BEGIN CTAB
M  V30 COUNTS 14 14 0 0 0
M  V30 BEGIN ATOM
M  V30 1 O -2.70644 0.575532 0.360961 0
M  V30 2 C -1.61827 -0.0346151 0.14427 0
M  V30 3 N -1.46834 -1.44281 0.101285 0
M  V30 4 N -0.125894 -1.69523 -0.161077 0
M  V30 5 C 0.579709 -0.639175 -0.287197 0
M  V30 6 C -0.289361 0.538689 -0.107292 0
M  V30 7 N 0.162266 1.39203 0.979494 0
M  V30 8 N 1.98178 -0.533352 -0.557569 0
M  V30 9 H -2.25167 -2.12206 0.246193 0
M  V30 10 H -0.274428 1.08375 -1.07819 0
M  V30 11 H -0.182341 2.37501 0.772157 0
M  V30 12 H 1.2083 1.47474 0.976048 0
M  V30 13 H 2.73266 -0.664414 0.142829 0
M  V30 14 H 2.25202 -0.308107 -1.53192 0
M  V30 END ATOM
M  V30 BEGIN BOND
M  V30 1 2 1 2
M  V30 2 1 2 3
M  V30 3 1 3 4
M  V30 4 2 4 5
M  V30 5 1 5 6
M  V30 6 1 6 7
M  V30 7 1 5 8
M  V30 8 1 6 2
M  V30 9 1 3 9
M  V30 10 1 6 10
M  V30 11 1 7 11
M  V30 12 1 7 12
M  V30 13 1 8 13
M  V30 14 1 8 14
M  V30 END BOND
M  V30 END CTAB
M  END
