
     RDKit          3D

  0  0  0  0  0  0  0  0  0  0999 V3000
M  V30 BEGIN CTAB
M  V30 COUNTS 26 27 0 0 0
M  V30 BEGIN ATOM
M  V30 1 N 3.48012 0.521872 -1.62391 0
M  V30 2 C 3.33798 0.28188 -0.211185 0
M  V30 3 C 1.9235 0.000610789 0.146038 0
M  V30 4 C 1.51296 -0.263374 1.43279 0
M  V30 5 C 0.190231 -0.519693 1.72331 0
M  V30 6 C -0.802731 -0.526202 0.735201 0
M  V30 7 C -0.380513 -0.261889 -0.541488 0
M  V30 8 C 0.960275 -0.00177674 -0.837893 0
M  V30 9 C -1.56593 -0.310788 -1.44796 0
M  V30 10 C -2.76957 -0.25854 -0.527071 0
M  V30 11 C -2.26514 -0.771206 0.805502 0
M  V30 12 N -3.28658 1.07179 -0.467243 0
M  V30 13 H 4.51907 0.529495 -1.83679 0
M  V30 14 H 3.17301 1.51283 -1.815 0
M  V30 15 H 3.98261 -0.54905 0.147151 0
M  V30 16 H 3.69077 1.18948 0.325382 0
M  V30 17 H 2.26801 -0.264041 2.22058 0
M  V30 18 H -0.139981 -0.730666 2.74947 0
M  V30 19 H 1.26278 0.205204 -1.86693 0
M  V30 20 H -1.52904 0.553651 -2.14405 0
M  V30 21 H -1.53006 -1.27519 -1.99472 0
M  V30 22 H -3.59386 -0.924515 -0.882988 0
M  V30 23 H -2.72123 -0.173059 1.6452 0
M  V30 24 H -2.4917 -1.84451 0.964552 0
M  V30 25 H -4.31652 1.13988 -0.611895 0
M  V30 26 H -2.90847 1.66779 0.27471 0
M  V30 END ATOM
M  V30 BEGIN BOND
M  V30 1 1 1 2
M  V30 2 1 2 3
M  V30 3 2 3 4
M  V30 4 1 4 5
M  V30 5 2 5 6
M  V30 6 1 6 7
M  V30 7 2 7 8
M  V30 8 1 7 9
M  V30 9 1 9 10
M  V30 10 1 10 11
M  V30 11 1 10 12
M  V30 12 1 8 3
M  V30 13 1 11 6
M  V30 14 1 1 13
M  V30 15 1 1 14
M  V30 16 1 2 15
M  V30 17 1 2 16
M  V30 18 1 4 17
M  V30 19 1 5 18
M  V30 20 1 8 19
M  V30 21 1 9 20
M  V30 22 1 9 21
M  V30 23 1 10 22
M  V30 24 1 11 23
M  V30 25 1 11 24
M  V30 26 1 12 25
M  V30 27 1 12 26
M  V30 END BOND
M  V30 END CTAB
M  END
