
     RDKit          3D

  0  0  0  0  0  0  0  0  0  0999 V3000
M  V30 BEGIN CTAB
M  V30 COUNTS 22 22 0 0 0
M  V30 BEGIN ATOM
M  V30 1 O 4.29767 -0.28985 0.292963 0
M  V30 2 C 2.92293 -0.256017 0.418916 0
M  V30 3 O 2.34906 -0.431971 1.51517 0
M  V30 4 C 2.07106 -0.000499621 -0.790972 0
M  V30 5 C 0.633256 -0.00704021 -0.42915 0
M  V30 6 C 0.0376737 1.17657 -0.0503314 0
M  V30 7 C -1.32017 1.18844 0.294833 0
M  V30 8 N -1.95157 2.38653 0.685508 0
M  V30 9 C -2.05463 0.0106226 0.252981 0
M  V30 10 C -1.46447 -1.17583 -0.125018 0
M  V30 11 C -0.112619 -1.16519 -0.46432 0
M  V30 12 N -2.24644 -2.36386 -0.156829 0
M  V30 13 I -4.07945 0.0363212 0.769191 0
M  V30 14 H 4.79568 0.563639 0.0305366 0
M  V30 15 H 2.39756 0.99824 -1.16988 0
M  V30 16 H 2.2522 -0.757931 -1.58139 0
M  V30 17 H 0.572215 2.11612 -0.00397717 0
M  V30 18 H -1.76008 2.79695 1.60882 0
M  V30 19 H -2.60655 2.85013 0.0416131 0
M  V30 20 H 0.339123 -2.10276 -0.759353 0
M  V30 21 H -2.25245 -3.05056 0.643235 0
M  V30 22 H -2.82 -2.52205 -1.02255 0
M  V30 END ATOM
M  V30 BEGIN BOND
M  V30 1 1 1 2
M  V30 2 2 2 3
M  V30 3 1 2 4
M  V30 4 1 4 5
M  V30 5 2 5 6
M  V30 6 1 6 7
M  V30 7 1 7 8
M  V30 8 2 7 9
M  V30 9 1 9 10
M  V30 10 2 10 11
M  V30 11 1 10 12
M  V30 12 1 9 13
M  V30 13 1 11 5
M  V30 14 1 1 14
M  V30 15 1 4 15
M  V30 16 1 4 16
M  V30 17 1 6 17
M  V30 18 1 8 18
M  V30 19 1 8 19
M  V30 20 1 11 20
M  V30 21 1 12 21
M  V30 22 1 12 22
M  V30 END BOND
M  V30 END CTAB
M  END
