
     RDKit          3D

  0  0  0  0  0  0  0  0  0  0999 V3000
M  V30 BEGIN CTAB
M  V30 COUNTS 33 34 0 0 0
M  V30 BEGIN ATOM
M  V30 1 N 4.87127 0.0493467 -0.634209 0
M  V30 2 C 3.6685 0.0152024 0.121903 0
M  V30 3 C 3.67509 -0.0308155 1.50231 0
M  V30 4 N 2.54201 -0.0634963 2.22529 0
M  V30 5 C 1.342 -0.0537304 1.63662 0
M  V30 6 C 1.29361 -0.00703223 0.240062 0
M  V30 7 C 2.44468 0.0272899 -0.519005 0
M  V30 8 N 2.33379 0.0753407 -1.93679 0
M  V30 9 C 0.0890117 0.00587666 -0.419045 0
M  V30 10 C -1.0679 -0.0275422 0.316227 0
M  V30 11 C -1.03774 -0.0735177 1.69125 0
M  V30 12 C 0.164565 -0.087225 2.37187 0
M  V30 13 C -2.40594 -0.0164231 -0.335763 0
M  V30 14 C -3.19198 -1.24844 0.048965 0
M  V30 15 C -3.19661 1.21272 0.105551 0
M  V30 16 C -2.31362 0.0367021 -1.83051 0
M  V30 17 H 5.72582 0.458498 -0.206332 0
M  V30 18 H 4.94703 -0.318566 -1.60263 0
M  V30 19 H 4.6606 -0.0402421 1.96927 0
M  V30 20 H 2.23271 -0.844282 -2.45948 0
M  V30 21 H 2.34318 0.929587 -2.50375 0
M  V30 22 H -0.00923646 0.0414658 -1.48962 0
M  V30 23 H -1.94957 -0.101265 2.2876 0
M  V30 24 H 0.240087 -0.12045 3.44295 0
M  V30 25 H -3.50997 -1.2238 1.11704 0
M  V30 26 H -2.60381 -2.13232 -0.216834 0
M  V30 27 H -4.14076 -1.22727 -0.561779 0
M  V30 28 H -4.26525 1.09738 -0.0988154 0
M  V30 29 H -2.72131 2.07362 -0.410322 0
M  V30 30 H -3.07622 1.33833 1.21426 0
M  V30 31 H -1.83075 -0.823788 -2.29411 0
M  V30 32 H -1.88177 1.01828 -2.17126 0
M  V30 33 H -3.37152 0.0605664 -2.21067 0
M  V30 END ATOM
M  V30 BEGIN BOND
M  V30 1 1 1 2
M  V30 2 2 2 3
M  V30 3 1 3 4
M  V30 4 2 4 5
M  V30 5 1 5 6
M  V30 6 2 6 7
M  V30 7 1 7 8
M  V30 8 1 6 9
M  V30 9 2 9 10
M  V30 10 1 10 11
M  V30 11 2 11 12
M  V30 12 1 10 13
M  V30 13 1 13 14
M  V30 14 1 13 15
M  V30 15 1 13 16
M  V30 16 1 7 2
M  V30 17 1 12 5
M  V30 18 1 1 17
M  V30 19 1 1 18
M  V30 20 1 3 19
M  V30 21 1 8 20
M  V30 22 1 8 21
M  V30 23 1 9 22
M  V30 24 1 11 23
M  V30 25 1 12 24
M  V30 26 1 14 25
M  V30 27 1 14 26
M  V30 28 1 14 27
M  V30 29 1 15 28
M  V30 30 1 15 29
M  V30 31 1 15 30
M  V30 32 1 16 31
M  V30 33 1 16 32
M  V30 34 1 16 33
M  V30 END BOND
M  V30 END CTAB
M  END
