
     RDKit          3D

  0  0  0  0  0  0  0  0  0  0999 V3000
M  V30 BEGIN CTAB
M  V30 COUNTS 49 52 0 0 0
M  V30 BEGIN ATOM
M  V30 1 Br -3.83181 -6.47438 1.4914 0
M  V30 2 C -2.74138 -4.99929 0.966482 0
M  V30 3 C -1.42042 -5.19858 0.644976 0
M  V30 4 C -0.618311 -4.15556 0.26588 0
M  V30 5 C -1.10094 -2.83834 0.186849 0
M  V30 6 C -2.3973 -2.66024 0.504546 0
M  V30 7 C -3.23027 -3.72162 0.895009 0
M  V30 8 C -0.1428 -1.81888 -0.246915 0
M  V30 9 N 1.12464 -2.14623 -0.678629 0
M  V30 10 N 1.78556 -1.06187 -0.98498 0
M  V30 11 C 1.01995 0.0107469 -0.780599 0
M  V30 12 N -0.180398 -0.492398 -0.318787 0
M  V30 13 C -1.26171 0.376517 0.0162289 0
M  V30 14 C -2.18288 0.701447 -1.14856 0
M  V30 15 C -3.28029 1.60822 -0.714301 0
M  V30 16 C -4.4818 1.11408 -0.236458 0
M  V30 17 C -5.47739 1.96444 0.157896 0
M  V30 18 C -5.29838 3.33532 0.0850166 0
M  V30 19 C -4.11457 3.85073 -0.385849 0
M  V30 20 C -3.13274 2.98548 -0.774703 0
M  V30 21 S 1.41289 1.7343 -1.0342 0
M  V30 22 C 3.08462 1.92153 -1.6396 0
M  V30 23 C 4.12465 1.53568 -0.664747 0
M  V30 24 N 4.58652 0.276428 -0.632415 0
M  V30 25 C 5.53843 -0.143017 0.235321 0
M  V30 26 N 6.01054 -1.47579 0.250568 0
M  V30 27 N 6.02441 0.778428 1.09648 0
M  V30 28 C 5.59361 2.05829 1.10513 0
M  V30 29 N 4.64974 2.40988 0.22102 0
M  V30 30 N 6.15403 2.96936 2.0426 0
M  V30 31 H -0.995126 -6.2104 0.691866 0
M  V30 32 H 0.437288 -4.34747 0.0158341 0
M  V30 33 H -2.84791 -1.70056 0.46066 0
M  V30 34 H -4.25137 -3.55705 1.14169 0
M  V30 35 H -0.811407 1.40757 0.271635 0
M  V30 36 H -1.73911 0.0869445 0.935745 0
M  V30 37 H -2.65436 -0.242224 -1.48096 0
M  V30 38 H -1.62784 1.09726 -2.00931 0
M  V30 39 H -4.63209 0.0440528 -0.175336 0
M  V30 40 H -6.43216 1.61741 0.53756 0
M  V30 41 H -6.08921 4.02533 0.398365 0
M  V30 42 H -3.93495 4.9284 -0.458651 0
M  V30 43 H -2.17182 3.36314 -1.15689 0
M  V30 44 H 3.23735 2.99971 -1.86172 0
M  V30 45 H 3.16994 1.35696 -2.59414 0
M  V30 46 H 6.60189 -1.79109 1.03849 0
M  V30 47 H 5.77258 -2.12797 -0.508934 0
M  V30 48 H 6.1075 4.00179 1.94021 0
M  V30 49 H 6.64463 2.60353 2.88922 0
M  V30 END ATOM
M  V30 BEGIN BOND
M  V30 1 1 1 2
M  V30 2 2 2 3
M  V30 3 1 3 4
M  V30 4 2 4 5
M  V30 5 1 5 6
M  V30 6 2 6 7
M  V30 7 1 5 8
M  V30 8 2 8 9
M  V30 9 1 9 10
M  V30 10 2 10 11
M  V30 11 1 11 12
M  V30 12 1 12 13
M  V30 13 1 13 14
M  V30 14 1 14 15
M  V30 15 2 15 16
M  V30 16 1 16 17
M  V30 17 2 17 18
M  V30 18 1 18 19
M  V30 19 2 19 20
M  V30 20 1 11 21
M  V30 21 1 21 22
M  V30 22 1 22 23
M  V30 23 2 23 24
M  V30 24 1 24 25
M  V30 25 1 25 26
M  V30 26 2 25 27
M  V30 27 1 27 28
M  V30 28 2 28 29
M  V30 29 1 28 30
M  V30 30 1 7 2
M  V30 31 1 12 8
M  V30 32 1 20 15
M  V30 33 1 29 23
M  V30 34 1 3 31
M  V30 35 1 4 32
M  V30 36 1 6 33
M  V30 37 1 7 34
M  V30 38 1 13 35
M  V30 39 1 13 36
M  V30 40 1 14 37
M  V30 41 1 14 38
M  V30 42 1 16 39
M  V30 43 1 17 40
M  V30 44 1 18 41
M  V30 45 1 19 42
M  V30 46 1 20 43
M  V30 47 1 22 44
M  V30 48 1 22 45
M  V30 49 1 26 46
M  V30 50 1 26 47
M  V30 51 1 30 48
M  V30 52 1 30 49
M  V30 END BOND
M  V30 END CTAB
M  END
