
     RDKit          3D

  0  0  0  0  0  0  0  0  0  0999 V3000
M  V30 BEGIN CTAB
M  V30 COUNTS 25 26 0 0 0
M  V30 BEGIN ATOM
M  V30 1 C 4.36005 -0.720366 -0.485298 0
M  V30 2 C 3.01174 -0.116975 -0.279862 0
M  V30 3 C 2.68268 1.06986 0.304611 0
M  V30 4 N 1.34809 1.18804 0.261721 0
M  V30 5 N 0.86202 0.110224 -0.330012 0
M  V30 6 C 1.85947 -0.715737 -0.677093 0
M  V30 7 C -0.524497 -0.185072 -0.589484 0
M  V30 8 N -0.89372 -1.02704 -1.55825 0
M  V30 9 C -2.16701 -1.34098 -1.84693 0
M  V30 10 C -3.16088 -0.757701 -1.09599 0
M  V30 11 C -2.83688 0.122865 -0.0788411 0
M  V30 12 C -1.50099 0.419356 0.185277 0
M  V30 13 N -1.18819 1.32392 1.23145 0
M  V30 14 N -3.8223 0.754807 0.728941 0
M  V30 15 H 5.14915 0.0261436 -0.186963 0
M  V30 16 H 4.44283 -0.957741 -1.5619 0
M  V30 17 H 4.41096 -1.63224 0.130228 0
M  V30 18 H 3.42964 1.75221 0.713326 0
M  V30 19 H 1.75477 -1.67258 -1.17701 0
M  V30 20 H -2.445 -2.03366 -2.64559 0
M  V30 21 H -4.21434 -0.956418 -1.2629 0
M  V30 22 H -1.59521 2.28 1.22896 0
M  V30 23 H -0.557859 1.07245 2.01828 0
M  V30 24 H -3.79847 1.78325 0.925524 0
M  V30 25 H -4.60605 0.213368 1.15524 0
M  V30 END ATOM
M  V30 BEGIN BOND
M  V30 1 1 1 2
M  V30 2 1 2 3
M  V30 3 2 3 4
M  V30 4 1 4 5
M  V30 5 1 5 6
M  V30 6 1 5 7
M  V30 7 2 7 8
M  V30 8 1 8 9
M  V30 9 2 9 10
M  V30 10 1 10 11
M  V30 11 2 11 12
M  V30 12 1 12 13
M  V30 13 1 11 14
M  V30 14 2 6 2
M  V30 15 1 12 7
M  V30 16 1 1 15
M  V30 17 1 1 16
M  V30 18 1 1 17
M  V30 19 1 3 18
M  V30 20 1 6 19
M  V30 21 1 9 20
M  V30 22 1 10 21
M  V30 23 1 13 22
M  V30 24 1 13 23
M  V30 25 1 14 24
M  V30 26 1 14 25
M  V30 END BOND
M  V30 END CTAB
M  END
