
     RDKit          3D

  0  0  0  0  0  0  0  0  0  0999 V3000
M  V30 BEGIN CTAB
M  V30 COUNTS 26 26 0 0 0
M  V30 BEGIN ATOM
M  V30 1 N -3.02641 1.14475 -0.605884 0
M  V30 2 C -2.71646 0.359853 0.531332 0 CFG=1
M  V30 3 C -2.72954 -1.10441 0.0901717 0
M  V30 4 C -1.47659 -1.10409 -0.800554 0
M  V30 5 N -0.558266 -0.287897 -0.0200434 0
M  V30 6 C -1.28843 0.52861 0.892481 0
M  V30 7 O -0.807592 1.24147 1.81018 0
M  V30 8 P 1.17635 -0.342921 -0.225821 0 CFG=1
M  V30 9 N 1.79861 -1.76702 0.586871 0
M  V30 10 O 1.54533 -0.40243 -1.67061 0
M  V30 11 N 1.96371 1.04241 0.474581 0
M  V30 12 S 3.66722 0.826666 0.366371 0
M  V30 13 O 4.28538 1.47282 -1.0467 0
M  V30 14 O 4.02495 -0.648382 0.367292 0
M  V30 15 O 4.32227 1.44121 1.54867 0
M  V30 16 H -2.69006 2.10609 -0.487947 0
M  V30 17 H -3.97725 1.05171 -0.909108 0
M  V30 18 H -3.40241 0.543891 1.38391 0
M  V30 19 H -3.60144 -1.34404 -0.532058 0
M  V30 20 H -2.60574 -1.79031 0.946294 0
M  V30 21 H -1.73993 -0.536605 -1.7315 0
M  V30 22 H -1.10548 -2.12226 -0.99012 0
M  V30 23 H 2.12214 -2.48448 -0.0884837 0
M  V30 24 H 1.06224 -2.19631 1.18667 0
M  V30 25 H 1.65303 1.939 0.0614104 0
M  V30 26 H 4.10438 2.43266 -1.13742 0
M  V30 END ATOM
M  V30 BEGIN BOND
M  V30 1 1 1 2
M  V30 2 1 2 3
M  V30 3 1 3 4
M  V30 4 1 4 5
M  V30 5 1 5 6
M  V30 6 2 6 7
M  V30 7 1 5 8
M  V30 8 1 8 9 CFG=1
M  V30 9 2 8 10
M  V30 10 1 8 11
M  V30 11 1 11 12
M  V30 12 1 12 13
M  V30 13 2 12 14
M  V30 14 2 12 15
M  V30 15 1 6 2
M  V30 16 1 1 16
M  V30 17 1 1 17
M  V30 18 1 2 18 CFG=1
M  V30 19 1 3 19
M  V30 20 1 3 20
M  V30 21 1 4 21
M  V30 22 1 4 22
M  V30 23 1 9 23
M  V30 24 1 9 24
M  V30 25 1 11 25
M  V30 26 1 13 26
M  V30 END BOND
M  V30 END CTAB
M  END
