
     RDKit          3D

  0  0  0  0  0  0  0  0  0  0999 V3000
M  V30 BEGIN CTAB
M  V30 COUNTS 16 16 0 0 0
M  V30 BEGIN ATOM
M  V30 1 N -2.52224 -3.08647 -0.0640438 0
M  V30 2 C -1.79754 -2.18999 -0.0423281 0
M  V30 3 C -0.880935 -1.09102 -0.0209587 0
M  V30 4 C 0.487609 -1.2728 -0.106586 0
M  V30 5 C 1.36255 -0.204556 -0.0849495 0
M  V30 6 N 2.77499 -0.397232 -0.17365 0
M  V30 7 N 0.821024 1.01943 0.0232211 0
M  V30 8 C -0.513806 1.22978 0.10887 0
M  V30 9 C -1.41261 0.178604 0.0896239 0
M  V30 10 N -1.00101 2.55565 0.220676 0
M  V30 11 H 0.895136 -2.28994 -0.194177 0
M  V30 12 H 3.28322 -0.071532 -1.04881 0
M  V30 13 H 3.34181 -0.843091 0.577443 0
M  V30 14 H -2.48904 0.317973 0.156743 0
M  V30 15 H -0.438049 3.2648 0.738706 0
M  V30 16 H -1.91111 2.88038 -0.191937 0
M  V30 END ATOM
M  V30 BEGIN BOND
M  V30 1 3 1 2
M  V30 2 1 2 3
M  V30 3 2 3 4
M  V30 4 1 4 5
M  V30 5 1 5 6
M  V30 6 2 5 7
M  V30 7 1 7 8
M  V30 8 2 8 9
M  V30 9 1 8 10
M  V30 10 1 9 3
M  V30 11 1 4 11
M  V30 12 1 6 12
M  V30 13 1 6 13
M  V30 14 1 9 14
M  V30 15 1 10 15
M  V30 16 1 10 16
M  V30 END BOND
M  V30 END CTAB
M  END
