
     RDKit          3D

  0  0  0  0  0  0  0  0  0  0999 V3000
M  V30 BEGIN CTAB
M  V30 COUNTS 27 27 0 0 0
M  V30 BEGIN ATOM
M  V30 1 C 3.01748 -1.58018 -0.490958 0
M  V30 2 C 1.57342 -1.68402 -0.145666 0
M  V30 3 N 0.852745 -0.428679 -0.240544 0
M  V30 4 C -0.541866 -0.444371 0.0492296 0
M  V30 5 N -1.15532 -1.59246 0.442141 0
M  V30 6 C -2.46554 -1.65095 0.728131 0
M  V30 7 C -3.19168 -0.485863 0.609877 0
M  V30 8 C -2.62538 0.703498 0.217174 0
M  V30 9 C -1.25994 0.724103 -0.0716128 0
M  V30 10 N -0.597031 1.89334 -0.483243 0
M  V30 11 N -3.32078 1.9193 0.0808149 0
M  V30 12 O 1.48048 0.700758 -0.583395 0
M  V30 13 C 2.42109 1.11441 0.367735 0
M  V30 14 H 3.62991 -1.28564 0.383896 0
M  V30 15 H 3.17406 -0.922352 -1.36616 0
M  V30 16 H 3.43441 -2.57588 -0.81307 0
M  V30 17 H 1.11489 -2.47877 -0.780709 0
M  V30 18 H 1.46428 -2.05633 0.904555 0
M  V30 19 H -2.93142 -2.59334 1.04281 0
M  V30 20 H -4.23061 -0.500643 0.829407 0
M  V30 21 H -0.326741 2.11437 -1.47455 0
M  V30 22 H -0.331381 2.63199 0.21688 0
M  V30 23 H -3.36798 2.61251 0.86377 0
M  V30 24 H -3.79139 2.12435 -0.812788 0
M  V30 25 H 2.21658 2.17457 0.620548 0
M  V30 26 H 2.31704 0.503921 1.28723 0
M  V30 27 H 3.44068 1.06236 -0.0606097 0
M  V30 END ATOM
M  V30 BEGIN BOND
M  V30 1 1 1 2
M  V30 2 1 2 3
M  V30 3 1 3 4
M  V30 4 2 4 5
M  V30 5 1 5 6
M  V30 6 2 6 7
M  V30 7 1 7 8
M  V30 8 2 8 9
M  V30 9 1 9 10
M  V30 10 1 8 11
M  V30 11 1 3 12
M  V30 12 1 12 13
M  V30 13 1 9 4
M  V30 14 1 1 14
M  V30 15 1 1 15
M  V30 16 1 1 16
M  V30 17 1 2 17
M  V30 18 1 2 18
M  V30 19 1 6 19
M  V30 20 1 7 20
M  V30 21 1 10 21
M  V30 22 1 10 22
M  V30 23 1 11 23
M  V30 24 1 11 24
M  V30 25 1 13 25
M  V30 26 1 13 26
M  V30 27 1 13 27
M  V30 END BOND
M  V30 END CTAB
M  END
