
     RDKit          3D

  0  0  0  0  0  0  0  0  0  0999 V3000
M  V30 BEGIN CTAB
M  V30 COUNTS 26 26 0 0 0
M  V30 BEGIN ATOM
M  V30 1 N 0.0117043 -0.35263 -1.5522 0
M  V30 2 C -0.480937 0.641988 -0.63735 0
M  V30 3 C -1.98566 0.745433 -0.737075 0
M  V30 4 C -2.56387 1.76351 0.189407 0
M  V30 5 C -2.61286 -0.591747 -0.416456 0
M  V30 6 C -0.0363458 0.270254 0.756396 0
M  V30 7 C 1.44621 0.216026 0.839327 0
M  V30 8 O 2.29421 1.16543 1.13991 0
M  V30 9 N 3.51247 0.738017 1.1092 0
M  V30 10 C 3.51564 -0.575178 0.770348 0
M  V30 11 N 2.20865 -0.880858 0.605968 0
M  V30 12 N 4.63031 -1.44799 0.617854 0
M  V30 13 H -0.211445 -1.31922 -1.30162 0
M  V30 14 H -0.0592407 -0.0993546 -2.54126 0
M  V30 15 H -0.0310095 1.61603 -0.916237 0
M  V30 16 H -2.29988 1.00481 -1.76763 0
M  V30 17 H -1.94592 2.70194 0.207294 0
M  V30 18 H -2.74852 1.38359 1.21529 0
M  V30 19 H -3.56442 2.05328 -0.208694 0
M  V30 20 H -3.7143 -0.520801 -0.639863 0
M  V30 21 H -2.43623 -0.893899 0.631125 0
M  V30 22 H -2.23506 -1.41037 -1.06043 0
M  V30 23 H -0.447604 -0.717465 1.05046 0
M  V30 24 H -0.377202 0.99213 1.51781 0
M  V30 25 H 4.6767 -2.18607 -0.126991 0
M  V30 26 H 5.45461 -1.38041 1.25543 0
M  V30 END ATOM
M  V30 BEGIN BOND
M  V30 1 1 1 2
M  V30 2 1 2 3
M  V30 3 1 3 4
M  V30 4 1 3 5
M  V30 5 1 2 6
M  V30 6 1 6 7
M  V30 7 1 7 8
M  V30 8 1 8 9
M  V30 9 2 9 10
M  V30 10 1 10 11
M  V30 11 1 10 12
M  V30 12 2 11 7
M  V30 13 1 1 13
M  V30 14 1 1 14
M  V30 15 1 2 15
M  V30 16 1 3 16
M  V30 17 1 4 17
M  V30 18 1 4 18
M  V30 19 1 4 19
M  V30 20 1 5 20
M  V30 21 1 5 21
M  V30 22 1 5 22
M  V30 23 1 6 23
M  V30 24 1 6 24
M  V30 25 1 12 25
M  V30 26 1 12 26
M  V30 END BOND
M  V30 END CTAB
M  END
