
     RDKit          3D

  0  0  0  0  0  0  0  0  0  0999 V3000
M  V30 BEGIN CTAB
M  V30 COUNTS 20 20 0 0 0
M  V30 BEGIN ATOM
M  V30 1 N 3.41453 0.212239 0.984355 0
M  V30 2 C 3.03468 0.484158 -0.383895 0
M  V30 3 C 1.56058 0.739475 -0.460784 0
M  V30 4 N 0.845144 -0.419877 0.00941333 0
M  V30 5 C -0.578864 -0.436041 0.0389865 0
M  V30 6 N -1.32678 -1.44616 0.450684 0
M  V30 7 C -2.61464 -1.34464 0.431478 0
M  V30 8 C -3.15682 -0.168616 -0.024855 0
M  V30 9 S -1.74352 0.727217 -0.402171 0
M  V30 10 N -4.55683 0.171485 -0.136611 0
M  V30 11 H 3.58669 1.08577 1.51139 0
M  V30 12 H 4.16868 -0.496386 1.07433 0
M  V30 13 H 3.55184 1.40994 -0.744209 0
M  V30 14 H 3.35469 -0.361368 -0.991853 0
M  V30 15 H 1.28792 1.60086 0.204982 0
M  V30 16 H 1.22677 1.04671 -1.47302 0
M  V30 17 H 1.39188 -1.23893 0.324472 0
M  V30 18 H -3.27865 -2.17011 0.768778 0
M  V30 19 H -5.06268 0.111359 -1.03332 0
M  V30 20 H -5.10462 0.492919 0.701036 0
M  V30 END ATOM
M  V30 BEGIN BOND
M  V30 1 1 1 2
M  V30 2 1 2 3
M  V30 3 1 3 4
M  V30 4 1 4 5
M  V30 5 2 5 6
M  V30 6 1 6 7
M  V30 7 2 7 8
M  V30 8 1 8 9
M  V30 9 1 8 10
M  V30 10 1 9 5
M  V30 11 1 1 11
M  V30 12 1 1 12
M  V30 13 1 2 13
M  V30 14 1 2 14
M  V30 15 1 3 15
M  V30 16 1 3 16
M  V30 17 1 4 17
M  V30 18 1 7 18
M  V30 19 1 10 19
M  V30 20 1 10 20
M  V30 END BOND
M  V30 END CTAB
M  END
