
     RDKit          3D

  0  0  0  0  0  0  0  0  0  0999 V3000
M  V30 BEGIN CTAB
M  V30 COUNTS 37 38 0 0 0
M  V30 BEGIN ATOM
M  V30 1 N 4.75044 1.27577 0.0373179 0
M  V30 2 C 4.00704 0.432121 0.945161 0
M  V30 3 C 2.79005 -0.144584 0.261629 0
M  V30 4 C 1.84033 0.892969 -0.236786 0
M  V30 5 N 0.499044 0.45748 0.0796651 0
M  V30 6 C 0.599495 -0.903658 0.528568 0
M  V30 7 C 1.95102 -0.900863 1.27086 0
M  V30 8 C 0.692433 -1.92409 -0.54845 0
M  V30 9 C -0.430596 0.729328 -0.953414 0
M  V30 10 C -1.82207 0.316274 -0.661003 0
M  V30 11 C -2.4493 -0.708605 -1.3337 0
M  V30 12 C -3.74441 -1.09741 -1.06014 0
M  V30 13 C -4.44597 -0.443109 -0.079712 0
M  V30 14 C -3.84956 0.573551 0.600273 0
M  V30 15 C -2.54596 0.960687 0.320954 0
M  V30 16 N -4.59337 1.23845 1.61204 0
M  V30 17 H 4.08183 1.5568 -0.726456 0
M  V30 18 H 5.08392 2.1034 0.574198 0
M  V30 19 H 4.62909 -0.43651 1.26769 0
M  V30 20 H 3.69767 0.953756 1.86269 0
M  V30 21 H 3.07437 -0.871724 -0.530664 0
M  V30 22 H 2.05586 1.88112 0.246892 0
M  V30 23 H 1.91605 1.07612 -1.32793 0
M  V30 24 H -0.14346 -1.19448 1.26692 0
M  V30 25 H 2.29848 -1.93287 1.42293 0
M  V30 26 H 1.85745 -0.306127 2.1836 0
M  V30 27 H 1.61648 -2.51657 -0.411747 0
M  V30 28 H 0.75751 -1.49082 -1.57062 0
M  V30 29 H -0.140281 -2.64928 -0.452324 0
M  V30 30 H -0.0995795 0.347806 -1.96123 0
M  V30 31 H -0.4285 1.85182 -1.08989 0
M  V30 32 H -1.93433 -1.23609 -2.10367 0
M  V30 33 H -4.2007 -1.90877 -1.61266 0
M  V30 34 H -5.46054 -0.740106 0.14189 0
M  V30 35 H -2.14993 1.77801 0.909322 0
M  V30 36 H -4.12753 1.76298 2.37231 0
M  V30 37 H -5.63248 1.21721 1.61802 0
M  V30 END ATOM
M  V30 BEGIN BOND
M  V30 1 1 1 2
M  V30 2 1 2 3
M  V30 3 1 3 4
M  V30 4 1 4 5
M  V30 5 1 5 6
M  V30 6 1 6 7
M  V30 7 1 6 8
M  V30 8 1 5 9
M  V30 9 1 9 10
M  V30 10 2 10 11
M  V30 11 1 11 12
M  V30 12 2 12 13
M  V30 13 1 13 14
M  V30 14 2 14 15
M  V30 15 1 14 16
M  V30 16 1 7 3
M  V30 17 1 15 10
M  V30 18 1 1 17
M  V30 19 1 1 18
M  V30 20 1 2 19
M  V30 21 1 2 20
M  V30 22 1 3 21
M  V30 23 1 4 22
M  V30 24 1 4 23
M  V30 25 1 6 24
M  V30 26 1 7 25
M  V30 27 1 7 26
M  V30 28 1 8 27
M  V30 29 1 8 28
M  V30 30 1 8 29
M  V30 31 1 9 30
M  V30 32 1 9 31
M  V30 33 1 11 32
M  V30 34 1 12 33
M  V30 35 1 13 34
M  V30 36 1 15 35
M  V30 37 1 16 36
M  V30 38 1 16 37
M  V30 END BOND
M  V30 END CTAB
M  END
