
     RDKit          3D

  0  0  0  0  0  0  0  0  0  0999 V3000
M  V30 BEGIN CTAB
M  V30 COUNTS 64 67 0 0 0
M  V30 BEGIN ATOM
M  V30 1 N -8.57143 -1.27663 3.5049 0
M  V30 2 S -9.55513 -0.909029 2.13401 0
M  V30 3 O -10.303 -2.14365 1.70441 0
M  V30 4 O -10.473 0.22018 2.43327 0
M  V30 5 C -8.45936 -0.391081 0.853193 0
M  V30 6 C -7.91415 -1.28957 -0.0339856 0
M  V30 7 C -7.0596 -0.813434 -1.01632 0
M  V30 8 C -6.75303 0.525968 -1.11557 0
M  V30 9 N -5.88857 1.06155 -2.10517 0
M  V30 10 S -4.39178 0.309369 -2.43818 0
M  V30 11 O -3.66265 1.06434 -3.53747 0
M  V30 12 O -4.57224 -1.10184 -2.90917 0
M  V30 13 C -3.33252 0.285476 -1.06645 0
M  V30 14 C -2.44022 1.30253 -0.777685 0
M  V30 15 C -1.61742 1.2356 0.329649 0
M  V30 16 C -1.65563 0.152915 1.18711 0
M  V30 17 C -2.54234 -0.858515 0.900579 0
M  V30 18 C -3.36233 -0.788621 -0.205763 0
M  V30 19 N -0.798476 0.0880044 2.3408 0
M  V30 20 N 0.447498 0.0750753 2.30335 0
M  V30 21 C 1.27882 0.119032 1.17385 0
M  V30 22 C 2.07911 1.22178 0.958999 0
M  V30 23 C 2.91349 1.30969 -0.134649 0
M  V30 24 C 2.98403 0.278502 -1.0776 0
M  V30 25 C 2.17341 -0.826207 -0.850078 0
M  V30 26 C 1.34427 -0.889487 0.256438 0
M  V30 27 S 4.02495 0.348692 -2.46982 0
M  V30 28 O 4.38005 1.80373 -2.78627 0
M  V30 29 O 3.25579 -0.126394 -3.69843 0
M  V30 30 N 5.4485 -0.58232 -2.35481 0
M  V30 31 C 6.45889 -0.403605 -1.39989 0
M  V30 32 C 6.24283 -0.387334 -0.0535588 0
M  V30 33 C 7.30825 -0.232062 0.836617 0
M  V30 34 C 8.60885 -0.0909114 0.40095 0
M  V30 35 C 8.82941 -0.107932 -0.959956 0
M  V30 36 C 7.77424 -0.260691 -1.82168 0
M  V30 37 S 9.87696 0.0981966 1.57709 0
M  V30 38 N 10.5472 -1.4077 2.07428 0
M  V30 39 O 9.35394 0.791371 2.8122 0
M  V30 40 O 11.0077 0.896419 0.96503 0
M  V30 41 C -7.31559 1.40069 -0.211633 0
M  V30 42 C -8.16312 0.951469 0.767623 0
M  V30 43 H -7.89464 -2.01405 3.20954 0
M  V30 44 H -7.98702 -0.415999 3.72068 0
M  V30 45 H -8.15916 -2.3354 0.0505043 0
M  V30 46 H -6.64923 -1.53345 -1.69569 0
M  V30 47 H -6.15113 1.92779 -2.65071 0
M  V30 48 H -2.38202 2.17643 -1.43441 0
M  V30 49 H -0.92287 2.06693 0.521113 0
M  V30 50 H -2.59124 -1.71545 1.55502 0
M  V30 51 H -4.072 -1.60187 -0.433868 0
M  V30 52 H 2.0847 2.06892 1.64479 0
M  V30 53 H 3.54269 2.16646 -0.311617 0
M  V30 54 H 2.2185 -1.63878 -1.57856 0
M  V30 55 H 0.732329 -1.79462 0.370069 0
M  V30 56 H 5.63245 -1.37927 -3.04326 0
M  V30 57 H 5.27628 -0.505655 0.39755 0
M  V30 58 H 7.11419 -0.221295 1.89761 0
M  V30 59 H 9.85598 0.00367504 -1.28052 0
M  V30 60 H 7.95269 -0.273278 -2.88114 0
M  V30 61 H 10.0993 -1.78598 2.92556 0
M  V30 62 H 10.4964 -2.07855 1.29805 0
M  V30 63 H -7.10709 2.46763 -0.244994 0
M  V30 64 H -8.59566 1.67581 1.47409 0
M  V30 END ATOM
M  V30 BEGIN BOND
M  V30 1 1 1 2
M  V30 2 2 2 3
M  V30 3 2 2 4
M  V30 4 1 2 5
M  V30 5 2 5 6
M  V30 6 1 6 7
M  V30 7 2 7 8
M  V30 8 1 8 9
M  V30 9 1 9 10
M  V30 10 2 10 11
M  V30 11 2 10 12
M  V30 12 1 10 13
M  V30 13 2 13 14
M  V30 14 1 14 15
M  V30 15 2 15 16
M  V30 16 1 16 17
M  V30 17 2 17 18
M  V30 18 1 16 19
M  V30 19 2 19 20 CFG=2
M  V30 20 1 20 21
M  V30 21 2 21 22
M  V30 22 1 22 23
M  V30 23 2 23 24
M  V30 24 1 24 25
M  V30 25 2 25 26
M  V30 26 1 24 27
M  V30 27 2 27 28
M  V30 28 2 27 29
M  V30 29 1 27 30
M  V30 30 1 30 31
M  V30 31 2 31 32
M  V30 32 1 32 33
M  V30 33 2 33 34
M  V30 34 1 34 35
M  V30 35 2 35 36
M  V30 36 1 34 37
M  V30 37 1 37 38
M  V30 38 2 37 39
M  V30 39 2 37 40
M  V30 40 1 8 41
M  V30 41 2 41 42
M  V30 42 1 42 5
M  V30 43 1 18 13
M  V30 44 1 26 21
M  V30 45 1 36 31
M  V30 46 1 1 43
M  V30 47 1 1 44
M  V30 48 1 6 45
M  V30 49 1 7 46
M  V30 50 1 9 47
M  V30 51 1 14 48
M  V30 52 1 15 49
M  V30 53 1 17 50
M  V30 54 1 18 51
M  V30 55 1 22 52
M  V30 56 1 23 53
M  V30 57 1 25 54
M  V30 58 1 26 55
M  V30 59 1 30 56
M  V30 60 1 32 57
M  V30 61 1 33 58
M  V30 62 1 35 59
M  V30 63 1 36 60
M  V30 64 1 38 61
M  V30 65 1 38 62
M  V30 66 1 41 63
M  V30 67 1 42 64
M  V30 END BOND
M  V30 END CTAB
M  END
