
     RDKit          3D

  0  0  0  0  0  0  0  0  0  0999 V3000
M  V30 BEGIN CTAB
M  V30 COUNTS 73 72 0 0 0
M  V30 BEGIN ATOM
M  V30 1 C 7.93785 0.367621 -2.32845 0
M  V30 2 C 7.52216 1.76651 -1.93881 0 CFG=2
M  V30 3 N 8.60071 2.55223 -1.42927 0
M  V30 4 C 6.39545 1.76016 -0.974104 0
M  V30 5 O 6.514 2.39812 0.0963183 0
M  V30 6 N 5.23389 1.04471 -1.28287 0
M  V30 7 C 4.09798 1.02721 -0.330187 0 CFG=2
M  V30 8 C 4.02216 -0.375081 0.132213 0
M  V30 9 C 2.96995 -0.801038 1.06533 0
M  V30 10 C 1.59673 -0.857377 0.552901 0
M  V30 11 O 1.38158 -0.954136 -0.673689 0
M  V30 12 N 0.502044 -0.802919 1.44262 0
M  V30 13 C -0.886852 -0.852056 1.04388 0 CFG=1
M  V30 14 C -1.57512 -2.07432 1.65838 0
M  V30 15 C -0.80346 -3.27687 1.10942 0
M  V30 16 C -1.3396 -4.55811 1.61585 0
M  V30 17 C -0.554569 -5.73307 1.09608 0 CFG=1
M  V30 18 N -1.13589 -6.97781 1.65331 0
M  V30 19 C -0.582888 -5.7814 -0.363275 0
M  V30 20 O -1.36825 -6.74623 -0.995478 0
M  V30 21 O 0.0688903 -4.99234 -1.07924 0
M  V30 22 C -1.62195 0.400769 1.31996 0
M  V30 23 O -1.01357 1.35371 1.84733 0
M  V30 24 N -2.97704 0.523379 0.997389 0
M  V30 25 C -3.69165 1.75766 1.26872 0 CFG=2
M  V30 26 C -4.76029 1.37551 2.30624 0
M  V30 27 C -4.3607 2.19178 0.029112 0
M  V30 28 O -4.25759 1.50303 -1.00761 0
M  V30 29 N -5.11294 3.39025 0.0358386 0
M  V30 30 C -5.77315 3.81889 -1.17581 0 CFG=2
M  V30 31 C -5.21393 5.12906 -1.70809 0
M  V30 32 C -7.22576 3.91751 -0.912182 0
M  V30 33 O -8.13168 4.30957 -1.90363 0
M  V30 34 O -7.68773 3.65295 0.205547 0
M  V30 35 C 2.978 1.64948 -1.0083 0
M  V30 36 O 1.89357 2.12274 -0.264891 0
M  V30 37 O 2.92304 1.80155 -2.25401 0
M  V30 38 H 8.67582 0.424454 -3.13355 0
M  V30 39 H 7.02892 -0.12358 -2.76808 0
M  V30 40 H 8.23376 -0.233254 -1.47314 0
M  V30 41 H 7.17105 2.25162 -2.89086 0
M  V30 42 H 8.40939 3.55824 -1.68715 0
M  V30 43 H 8.57139 2.52842 -0.387471 0
M  V30 44 H 5.11723 0.518097 -2.1525 0
M  V30 45 H 4.40332 1.67214 0.557928 0
M  V30 46 H 5.01471 -0.6063 0.609917 0
M  V30 47 H 3.99704 -1.08539 -0.743346 0
M  V30 48 H 3.22227 -1.87536 1.35713 0
M  V30 49 H 3.01625 -0.264778 2.05787 0
M  V30 50 H 0.675071 -0.720574 2.47028 0
M  V30 51 H -0.890308 -0.948091 -0.0831295 0
M  V30 52 H -1.48535 -2.0601 2.75015 0
M  V30 53 H -2.63296 -2.10318 1.36484 0
M  V30 54 H -0.854886 -3.17162 -0.00825016 0
M  V30 55 H 0.246184 -3.15613 1.42865 0
M  V30 56 H -1.23475 -4.55234 2.74565 0
M  V30 57 H -2.43021 -4.69393 1.44191 0
M  V30 58 H 0.496145 -5.72111 1.43806 0
M  V30 59 H -0.810661 -7.73825 1.01114 0
M  V30 60 H -0.71778 -7.09822 2.59047 0
M  V30 61 H -2.30766 -6.49208 -1.2287 0
M  V30 62 H -3.48329 -0.264364 0.561715 0
M  V30 63 H -3.00532 2.52552 1.70237 0
M  V30 64 H -4.2601 0.760702 3.07977 0
M  V30 65 H -5.14697 2.33205 2.70749 0
M  V30 66 H -5.56743 0.835383 1.77223 0
M  V30 67 H -5.21433 3.98519 0.883365 0
M  V30 68 H -5.6052 3.06372 -1.9962 0
M  V30 69 H -4.63928 5.66071 -0.930497 0
M  V30 70 H -6.07757 5.79858 -1.9712 0
M  V30 71 H -4.6144 4.97866 -2.63917 0
M  V30 72 H -8.83717 5.00457 -1.74355 0
M  V30 73 H 0.973664 1.97896 -0.655926 0
M  V30 END ATOM
M  V30 BEGIN BOND
M  V30 1 1 1 2
M  V30 2 1 2 3
M  V30 3 1 2 4
M  V30 4 2 4 5
M  V30 5 1 4 6
M  V30 6 1 6 7
M  V30 7 1 7 8
M  V30 8 1 8 9
M  V30 9 1 9 10
M  V30 10 2 10 11
M  V30 11 1 10 12
M  V30 12 1 12 13
M  V30 13 1 13 14
M  V30 14 1 14 15
M  V30 15 1 15 16
M  V30 16 1 16 17
M  V30 17 1 17 18
M  V30 18 1 17 19
M  V30 19 1 19 20
M  V30 20 2 19 21
M  V30 21 1 13 22
M  V30 22 2 22 23
M  V30 23 1 22 24
M  V30 24 1 24 25
M  V30 25 1 25 26
M  V30 26 1 25 27
M  V30 27 2 27 28
M  V30 28 1 27 29
M  V30 29 1 29 30
M  V30 30 1 30 31
M  V30 31 1 30 32
M  V30 32 1 32 33
M  V30 33 2 32 34
M  V30 34 1 7 35
M  V30 35 1 35 36
M  V30 36 2 35 37
M  V30 37 1 1 38
M  V30 38 1 1 39
M  V30 39 1 1 40
M  V30 40 1 2 41 CFG=3
M  V30 41 1 3 42
M  V30 42 1 3 43
M  V30 43 1 6 44
M  V30 44 1 7 45 CFG=1
M  V30 45 1 8 46
M  V30 46 1 8 47
M  V30 47 1 9 48
M  V30 48 1 9 49
M  V30 49 1 12 50
M  V30 50 1 13 51 CFG=3
M  V30 51 1 14 52
M  V30 52 1 14 53
M  V30 53 1 15 54
M  V30 54 1 15 55
M  V30 55 1 16 56
M  V30 56 1 16 57
M  V30 57 1 17 58 CFG=3
M  V30 58 1 18 59
M  V30 59 1 18 60
M  V30 60 1 20 61
M  V30 61 1 24 62
M  V30 62 1 25 63 CFG=1
M  V30 63 1 26 64
M  V30 64 1 26 65
M  V30 65 1 26 66
M  V30 66 1 29 67
M  V30 67 1 30 68 CFG=3
M  V30 68 1 31 69
M  V30 69 1 31 70
M  V30 70 1 31 71
M  V30 71 1 33 72
M  V30 72 1 36 73
M  V30 END BOND
M  V30 END CTAB
M  END
