
     RDKit          3D

  0  0  0  0  0  0  0  0  0  0999 V3000
M  V30 BEGIN CTAB
M  V30 COUNTS 25 24 0 0 0
M  V30 BEGIN ATOM
M  V30 1 N 0.232116 -3.87033 1.60855 0
M  V30 2 C 0.92052 -3.09729 0.617408 0
M  V30 3 C 0.523333 -1.6242 0.669468 0
M  V30 4 C 1.29422 -0.918316 -0.396973 0
M  V30 5 C 1.01554 0.551797 -0.478817 0
M  V30 6 C -0.409072 0.884114 -0.763362 0
M  V30 7 C -0.523275 2.38704 -0.813909 0
M  V30 8 O 0.506889 3.11931 -0.626897 0
M  V30 9 N -1.75952 3.02064 -1.06681 0
M  V30 10 N -1.83474 4.40618 -1.1076 0
M  V30 11 H -0.322479 -3.33624 2.2817 0
M  V30 12 H -0.161231 -4.75599 1.27996 0
M  V30 13 H 2.01259 -3.18398 0.725051 0
M  V30 14 H 0.669117 -3.42801 -0.424695 0
M  V30 15 H 0.712757 -1.20073 1.67183 0
M  V30 16 H -0.554494 -1.53543 0.438768 0
M  V30 17 H 2.38308 -1.02648 -0.144499 0
M  V30 18 H 1.1595 -1.42864 -1.36169 0
M  V30 19 H 1.62528 0.945904 -1.33572 0
M  V30 20 H 1.35036 1.08179 0.418404 0
M  V30 21 H -1.12583 0.532192 -0.0232968 0
M  V30 22 H -0.664976 0.520263 -1.77705 0
M  V30 23 H -2.60602 2.44434 -1.22089 0
M  V30 24 H -1.70784 4.72606 -2.08748 0
M  V30 25 H -2.73582 4.786 -0.745806 0
M  V30 END ATOM
M  V30 BEGIN BOND
M  V30 1 1 1 2
M  V30 2 1 2 3
M  V30 3 1 3 4
M  V30 4 1 4 5
M  V30 5 1 5 6
M  V30 6 1 6 7
M  V30 7 2 7 8
M  V30 8 1 7 9
M  V30 9 1 9 10
M  V30 10 1 1 11
M  V30 11 1 1 12
M  V30 12 1 2 13
M  V30 13 1 2 14
M  V30 14 1 3 15
M  V30 15 1 3 16
M  V30 16 1 4 17
M  V30 17 1 4 18
M  V30 18 1 5 19
M  V30 19 1 5 20
M  V30 20 1 6 21
M  V30 21 1 6 22
M  V30 22 1 9 23
M  V30 23 1 10 24
M  V30 24 1 10 25
M  V30 END BOND
M  V30 END CTAB
M  END
