
     RDKit          3D

  0  0  0  0  0  0  0  0  0  0999 V3000
M  V30 BEGIN CTAB
M  V30 COUNTS 34 35 0 0 0
M  V30 BEGIN ATOM
M  V30 1 N 2.26376 -2.85259 0.266375 0
M  V30 2 C 2.03084 -1.67771 -0.489435 0
M  V30 3 C 1.27299 -0.616232 0.289881 0
M  V30 4 N 1.03048 0.556449 -0.438512 0
M  V30 5 C 2.15065 1.36027 -0.761402 0
M  V30 6 C 2.06047 2.79441 -0.4146 0
M  V30 7 O 1.00413 3.24274 0.296478 0
M  V30 8 C 0.202735 2.29711 0.878343 0
M  V30 9 C -0.172011 1.29189 -0.182428 0 CFG=2
M  V30 10 C -1.33829 0.47376 0.0982503 0
M  V30 11 C -2.20568 0.637559 1.14817 0
M  V30 12 C -3.31385 -0.196571 1.32957 0
M  V30 13 C -3.55481 -1.21478 0.438625 0
M  V30 14 C -2.66673 -1.35593 -0.606534 0
M  V30 15 N -1.61232 -0.543357 -0.758162 0
M  V30 16 N -2.91638 -2.41982 -1.54008 0
M  V30 17 H 3.21706 -3.13117 0.292649 0
M  V30 18 H 1.77433 -2.96463 1.12651 0
M  V30 19 H 1.48618 -1.94543 -1.43467 0
M  V30 20 H 3.02655 -1.29473 -0.820415 0
M  V30 21 H 1.94528 -0.35335 1.16046 0
M  V30 22 H 0.394392 -1.07512 0.729875 0
M  V30 23 H 2.43839 1.23687 -1.84088 0
M  V30 24 H 3.03419 0.928346 -0.202331 0
M  V30 25 H 2.99982 3.15637 0.108891 0
M  V30 26 H 2.08274 3.40823 -1.37104 0
M  V30 27 H -0.667263 2.76284 1.3839 0
M  V30 28 H 0.822201 1.75396 1.6522 0
M  V30 29 H -0.31369 1.92312 -1.12242 0
M  V30 30 H -2.03974 1.42228 1.85873 0
M  V30 31 H -3.99934 -0.073368 2.15324 0
M  V30 32 H -4.41351 -1.88753 0.54887 0
M  V30 33 H -2.5725 -2.38017 -2.52322 0
M  V30 34 H -3.45109 -3.26375 -1.25488 0
M  V30 END ATOM
M  V30 BEGIN BOND
M  V30 1 1 1 2
M  V30 2 1 2 3
M  V30 3 1 3 4
M  V30 4 1 4 5
M  V30 5 1 5 6
M  V30 6 1 6 7
M  V30 7 1 7 8
M  V30 8 1 8 9
M  V30 9 1 9 10
M  V30 10 2 10 11
M  V30 11 1 11 12
M  V30 12 2 12 13
M  V30 13 1 13 14
M  V30 14 2 14 15
M  V30 15 1 14 16
M  V30 16 1 9 4
M  V30 17 1 15 10
M  V30 18 1 1 17
M  V30 19 1 1 18
M  V30 20 1 2 19
M  V30 21 1 2 20
M  V30 22 1 3 21
M  V30 23 1 3 22
M  V30 24 1 5 23
M  V30 25 1 5 24
M  V30 26 1 6 25
M  V30 27 1 6 26
M  V30 28 1 8 27
M  V30 29 1 8 28
M  V30 30 1 9 29 CFG=3
M  V30 31 1 11 30
M  V30 32 1 12 31
M  V30 33 1 13 32
M  V30 34 1 16 33
M  V30 35 1 16 34
M  V30 END BOND
M  V30 END CTAB
M  END
