
     RDKit          3D

  0  0  0  0  0  0  0  0  0  0999 V3000
M  V30 BEGIN CTAB
M  V30 COUNTS 27 27 0 0 0
M  V30 BEGIN ATOM
M  V30 1 N -2.74322 0.640065 0.249796 0
M  V30 2 C -1.56627 0.011061 -0.319785 0 CFG=2
M  V30 3 C -1.28152 -1.26506 0.431776 0
M  V30 4 C -0.206798 -2.01961 -0.321169 0
M  V30 5 C 0.711297 -0.966672 -0.931289 0
M  V30 6 N 0.787471 0.124141 0.0230537 0
M  V30 7 C -0.36609 0.951154 -0.137313 0 CFG=2
M  V30 8 C -0.680435 1.80969 1.0564 0
M  V30 9 S 2.27417 0.921304 -0.192444 0
M  V30 10 O 2.48958 2.08019 0.702117 0
M  V30 11 O 2.4759 1.3838 -1.60934 0
M  V30 12 N 3.54424 -0.226474 0.131194 0
M  V30 13 H -3.08576 0.100587 1.05583 0
M  V30 14 H -3.49902 0.750191 -0.421909 0
M  V30 15 H -1.7426 -0.225544 -1.37792 0
M  V30 16 H -2.20829 -1.87478 0.495153 0
M  V30 17 H -0.927285 -0.995024 1.44076 0
M  V30 18 H 0.38645 -2.65641 0.375107 0
M  V30 19 H -0.695746 -2.63781 -1.10099 0
M  V30 20 H 1.69189 -1.39825 -1.16278 0
M  V30 21 H 0.256402 -0.620922 -1.89935 0
M  V30 22 H -0.319366 1.54839 -1.09275 0
M  V30 23 H 0.160584 2.36872 1.45465 0
M  V30 24 H -1.09072 1.18083 1.85979 0
M  V30 25 H -1.47336 2.52345 0.747547 0
M  V30 26 H 3.51176 -0.53882 1.11697 0
M  V30 27 H 3.59672 -0.968187 -0.573105 0
M  V30 END ATOM
M  V30 BEGIN BOND
M  V30 1 1 1 2
M  V30 2 1 2 3
M  V30 3 1 3 4
M  V30 4 1 4 5
M  V30 5 1 5 6
M  V30 6 1 6 7
M  V30 7 1 7 8
M  V30 8 1 6 9
M  V30 9 2 9 10
M  V30 10 2 9 11
M  V30 11 1 9 12
M  V30 12 1 7 2
M  V30 13 1 1 13
M  V30 14 1 1 14
M  V30 15 1 2 15 CFG=3
M  V30 16 1 3 16
M  V30 17 1 3 17
M  V30 18 1 4 18
M  V30 19 1 4 19
M  V30 20 1 5 20
M  V30 21 1 5 21
M  V30 22 1 7 22 CFG=3
M  V30 23 1 8 23
M  V30 24 1 8 24
M  V30 25 1 8 25
M  V30 26 1 12 26
M  V30 27 1 12 27
M  V30 END BOND
M  V30 END CTAB
M  END
