
     RDKit          3D

  0  0  0  0  0  0  0  0  0  0999 V3000
M  V30 BEGIN CTAB
M  V30 COUNTS 20 20 0 0 0
M  V30 BEGIN ATOM
M  V30 1 S 4.02841 0.381425 -0.183294 0
M  V30 2 C 2.26273 0.188806 -0.0428833 0
M  V30 3 C 1.46153 1.27438 -0.309395 0
M  V30 4 C 0.0683173 1.16009 -0.209223 0
M  V30 5 C -0.490744 -0.0392651 0.155713 0
M  V30 6 C 0.313256 -1.12011 0.420761 0
M  V30 7 C 1.71053 -1.01389 0.322659 0
M  V30 8 N -0.270961 -2.35054 0.795691 0
M  V30 9 S -2.21586 -0.169509 0.276559 0
M  V30 10 O -2.72988 -1.24498 -0.643153 0
M  V30 11 O -2.56095 -0.54096 1.70416 0
M  V30 12 N -3.00617 1.30439 -0.0997949 0
M  V30 13 H 4.37454 1.72786 -0.314047 0
M  V30 14 H 1.91761 2.20689 -0.594182 0
M  V30 15 H -0.495447 2.05448 -0.433496 0
M  V30 16 H 2.33416 -1.8561 0.529321 0
M  V30 17 H -0.814932 -2.9086 0.108235 0
M  V30 18 H -0.17087 -2.7221 1.75879 0
M  V30 19 H -2.4874 1.84673 -0.821668 0
M  V30 20 H -3.22788 1.82101 0.758808 0
M  V30 END ATOM
M  V30 BEGIN BOND
M  V30 1 1 1 2
M  V30 2 2 2 3
M  V30 3 1 3 4
M  V30 4 2 4 5
M  V30 5 1 5 6
M  V30 6 2 6 7
M  V30 7 1 6 8
M  V30 8 1 5 9
M  V30 9 2 9 10
M  V30 10 2 9 11
M  V30 11 1 9 12
M  V30 12 1 7 2
M  V30 13 1 1 13
M  V30 14 1 3 14
M  V30 15 1 4 15
M  V30 16 1 7 16
M  V30 17 1 8 17
M  V30 18 1 8 18
M  V30 19 1 12 19
M  V30 20 1 12 20
M  V30 END BOND
M  V30 END CTAB
M  END
