
     RDKit          3D

  0  0  0  0  0  0  0  0  0  0999 V3000
M  V30 BEGIN CTAB
M  V30 COUNTS 34 35 0 0 0
M  V30 BEGIN ATOM
M  V30 1 N -2.3596 2.11451 0.902587 0
M  V30 2 C -3.38982 1.42012 0.219578 0
M  V30 3 C -3.16285 -0.0383104 0.177414 0
M  V30 4 N -1.99362 -0.505992 -0.511021 0
M  V30 5 C -2.05276 -1.95482 -0.436521 0
M  V30 6 C -0.792129 -2.6652 -0.748242 0
M  V30 7 O 0.239597 -2.05588 0.00507934 0
M  V30 8 C 0.380342 -0.797261 -0.574047 0 CFG=1
M  V30 9 C -0.766387 0.065605 -0.0676032 0
M  V30 10 C 1.69764 -0.263338 -0.223773 0
M  V30 11 C 2.78439 -1.12041 -0.322503 0
M  V30 12 C 4.06241 -0.736672 -0.0245982 0
M  V30 13 C 4.30151 0.557758 0.394862 0
M  V30 14 C 3.1999 1.39929 0.486721 0
M  V30 15 N 1.95231 0.984594 0.184005 0
M  V30 16 N 3.47415 2.73232 0.921908 0
M  V30 17 H -2.50272 2.01926 1.92219 0
M  V30 18 H -2.1602 3.05554 0.620479 0
M  V30 19 H -4.35737 1.66757 0.729721 0
M  V30 20 H -3.52449 1.84922 -0.817786 0
M  V30 21 H -4.05781 -0.598938 -0.249222 0
M  V30 22 H -3.15818 -0.425955 1.25037 0
M  V30 23 H -2.4008 -2.28158 0.5688 0
M  V30 24 H -2.81924 -2.26561 -1.20511 0
M  V30 25 H -0.917376 -3.72588 -0.423939 0
M  V30 26 H -0.461916 -2.61331 -1.79406 0
M  V30 27 H 0.264656 -0.849818 -1.67 0
M  V30 28 H -0.668057 1.0781 -0.565535 0
M  V30 29 H -0.764113 0.152237 1.01911 0
M  V30 30 H 2.63742 -2.1547 -0.650912 0
M  V30 31 H 4.87473 -1.43194 -0.114303 0
M  V30 32 H 5.29299 0.901218 0.639411 0
M  V30 33 H 2.88164 3.53177 0.612704 0
M  V30 34 H 4.26574 2.9565 1.55701 0
M  V30 END ATOM
M  V30 BEGIN BOND
M  V30 1 1 1 2
M  V30 2 1 2 3
M  V30 3 1 3 4
M  V30 4 1 4 5
M  V30 5 1 5 6
M  V30 6 1 6 7
M  V30 7 1 7 8
M  V30 8 1 8 9
M  V30 9 1 8 10
M  V30 10 2 10 11
M  V30 11 1 11 12
M  V30 12 2 12 13
M  V30 13 1 13 14
M  V30 14 2 14 15
M  V30 15 1 14 16
M  V30 16 1 9 4
M  V30 17 1 15 10
M  V30 18 1 1 17
M  V30 19 1 1 18
M  V30 20 1 2 19
M  V30 21 1 2 20
M  V30 22 1 3 21
M  V30 23 1 3 22
M  V30 24 1 5 23
M  V30 25 1 5 24
M  V30 26 1 6 25
M  V30 27 1 6 26
M  V30 28 1 8 27 CFG=3
M  V30 29 1 9 28
M  V30 30 1 9 29
M  V30 31 1 11 30
M  V30 32 1 12 31
M  V30 33 1 13 32
M  V30 34 1 16 33
M  V30 35 1 16 34
M  V30 END BOND
M  V30 END CTAB
M  END
