
     RDKit          3D

  0  0  0  0  0  0  0  0  0  0999 V3000
M  V30 BEGIN CTAB
M  V30 COUNTS 26 27 0 0 0
M  V30 BEGIN ATOM
M  V30 1 N 1.63871 1.86314 -0.499869 0
M  V30 2 C 0.875153 0.876467 0.12228 0 CFG=1
M  V30 3 C -0.587062 1.18842 0.254655 0
M  V30 4 C -1.08934 0.424712 1.48641 0
M  V30 5 C -0.590446 -0.999383 1.31964 0
M  V30 6 C -0.205693 -1.28971 -0.118422 0
M  V30 7 C 0.98868 -0.491047 -0.553993 0 CFG=2
M  V30 8 N 2.24378 -1.05331 -0.144625 0
M  V30 9 C -1.37902 -0.845482 -0.989751 0
M  V30 10 C -1.40531 0.673515 -0.913388 0
M  V30 11 H 2.53602 2.02748 -0.10677 0
M  V30 12 H 1.33019 2.22099 -1.35249 0
M  V30 13 H 1.2997 0.716126 1.15665 0
M  V30 14 H -0.769225 2.26225 0.329854 0
M  V30 15 H -0.577156 0.869995 2.35939 0
M  V30 16 H -2.18137 0.488226 1.58484 0
M  V30 17 H 0.307252 -1.19035 1.93135 0
M  V30 18 H -1.38311 -1.69302 1.62244 0
M  V30 19 H -0.0747267 -2.37829 -0.199063 0
M  V30 20 H 0.959124 -0.363292 -1.66345 0
M  V30 21 H 2.1871 -1.7952 0.557014 0
M  V30 22 H 2.93195 -1.18147 -0.897173 0
M  V30 23 H -2.33281 -1.27022 -0.651841 0
M  V30 24 H -1.17662 -1.15962 -2.02545 0
M  V30 25 H -1.09676 1.09449 -1.87668 0
M  V30 26 H -2.44901 1.00457 -0.731566 0
M  V30 END ATOM
M  V30 BEGIN BOND
M  V30 1 1 1 2
M  V30 2 1 2 3
M  V30 3 1 3 4
M  V30 4 1 4 5
M  V30 5 1 5 6
M  V30 6 1 6 7
M  V30 7 1 7 8
M  V30 8 1 6 9
M  V30 9 1 9 10
M  V30 10 1 7 2
M  V30 11 1 10 3
M  V30 12 1 1 11
M  V30 13 1 1 12
M  V30 14 1 2 13 CFG=1
M  V30 15 1 3 14
M  V30 16 1 4 15
M  V30 17 1 4 16
M  V30 18 1 5 17
M  V30 19 1 5 18
M  V30 20 1 6 19
M  V30 21 1 7 20 CFG=3
M  V30 22 1 8 21
M  V30 23 1 8 22
M  V30 24 1 9 23
M  V30 25 1 9 24
M  V30 26 1 10 25
M  V30 27 1 10 26
M  V30 END BOND
M  V30 END CTAB
M  END
