
     RDKit          3D

  0  0  0  0  0  0  0  0  0  0999 V3000
M  V30 BEGIN CTAB
M  V30 COUNTS 54 55 0 0 0
M  V30 BEGIN ATOM
M  V30 1 C -3.51313 0.583982 3.47844 0
M  V30 2 O -2.14488 0.437704 3.27422 0
M  V30 3 C -1.4903 0.177618 2.11012 0
M  V30 4 C -0.127418 0.062947 2.08041 0
M  V30 5 O 0.581549 0.216135 3.25821 0
M  V30 6 C 1.03053 1.50847 3.62215 0
M  V30 7 C 0.551614 -0.204342 0.887651 0
M  V30 8 O 1.93416 -0.301074 0.971913 0
M  V30 9 C 2.66607 -0.576061 -0.223972 0
M  V30 10 C 4.12608 -0.639894 0.0823951 0
M  V30 11 C 4.98673 -0.932608 -1.11552 0
M  V30 12 C 4.83305 0.111095 -2.18635 0
M  V30 13 C 5.20336 1.48384 -1.70981 0
M  V30 14 C 6.60961 1.61313 -1.28174 0
M  V30 15 O 7.60314 0.685795 -1.47117 0
M  V30 16 O 6.89261 2.71041 -0.681267 0
M  V30 17 C -0.152421 -0.355224 -0.277477 0
M  V30 18 C -1.55855 -0.243629 -0.287333 0
M  V30 19 C -2.23476 -0.442691 -1.57091 0
M  V30 20 C -3.64312 -0.819773 -1.49411 0
M  V30 21 C -4.00293 -2.16315 -1.51035 0
M  V30 22 N -5.29001 -2.52734 -1.40372 0
M  V30 23 C -6.29068 -1.63903 -1.27726 0
M  V30 24 N -7.64587 -2.08156 -1.16727 0
M  V30 25 N -5.95908 -0.338889 -1.26079 0
M  V30 26 C -4.66473 0.091604 -1.36657 0
M  V30 27 N -4.3806 1.48248 -1.38578 0
M  V30 28 C -2.18407 0.0179142 0.902834 0
M  V30 29 H -3.72669 0.220049 4.52648 0
M  V30 30 H -4.14421 -0.0585943 2.82265 0
M  V30 31 H -3.85318 1.65156 3.41003 0
M  V30 32 H 0.177118 2.12512 3.98335 0
M  V30 33 H 1.82216 1.47095 4.39957 0
M  V30 34 H 1.39393 2.01758 2.7024 0
M  V30 35 H 2.42977 0.175625 -0.986649 0
M  V30 36 H 2.36884 -1.57399 -0.648852 0
M  V30 37 H 4.32995 -1.45527 0.822285 0
M  V30 38 H 4.45924 0.299126 0.5614 0
M  V30 39 H 4.74124 -1.96077 -1.52854 0
M  V30 40 H 6.05388 -1.01119 -0.845333 0
M  V30 41 H 5.39358 -0.169295 -3.11564 0
M  V30 42 H 3.76681 0.111355 -2.50513 0
M  V30 43 H 4.575 1.75289 -0.830827 0
M  V30 44 H 5.05786 2.21851 -2.53737 0
M  V30 45 H 8.26968 0.756993 -2.23062 0
M  V30 46 H 0.383558 -0.56303 -1.19622 0
M  V30 47 H -1.6799 -1.16356 -2.22753 0
M  V30 48 H -2.19267 0.518994 -2.17271 0
M  V30 49 H -3.19793 -2.88487 -1.61282 0
M  V30 50 H -8.29609 -1.94064 -1.97039 0
M  V30 51 H -8.04109 -2.54642 -0.320982 0
M  V30 52 H -4.41604 1.98474 -2.29549 0
M  V30 53 H -4.13979 2.01983 -0.533821 0
M  V30 54 H -3.27099 0.0864475 0.90615 0
M  V30 END ATOM
M  V30 BEGIN BOND
M  V30 1 1 1 2
M  V30 2 1 2 3
M  V30 3 2 3 4
M  V30 4 1 4 5
M  V30 5 1 5 6
M  V30 6 1 4 7
M  V30 7 1 7 8
M  V30 8 1 8 9
M  V30 9 1 9 10
M  V30 10 1 10 11
M  V30 11 1 11 12
M  V30 12 1 12 13
M  V30 13 1 13 14
M  V30 14 1 14 15
M  V30 15 2 14 16
M  V30 16 2 7 17
M  V30 17 1 17 18
M  V30 18 1 18 19
M  V30 19 1 19 20
M  V30 20 2 20 21
M  V30 21 1 21 22
M  V30 22 2 22 23
M  V30 23 1 23 24
M  V30 24 1 23 25
M  V30 25 2 25 26
M  V30 26 1 26 27
M  V30 27 2 18 28
M  V30 28 1 28 3
M  V30 29 1 26 20
M  V30 30 1 1 29
M  V30 31 1 1 30
M  V30 32 1 1 31
M  V30 33 1 6 32
M  V30 34 1 6 33
M  V30 35 1 6 34
M  V30 36 1 9 35
M  V30 37 1 9 36
M  V30 38 1 10 37
M  V30 39 1 10 38
M  V30 40 1 11 39
M  V30 41 1 11 40
M  V30 42 1 12 41
M  V30 43 1 12 42
M  V30 44 1 13 43
M  V30 45 1 13 44
M  V30 46 1 15 45
M  V30 47 1 17 46
M  V30 48 1 19 47
M  V30 49 1 19 48
M  V30 50 1 21 49
M  V30 51 1 24 50
M  V30 52 1 24 51
M  V30 53 1 27 52
M  V30 54 1 27 53
M  V30 55 1 28 54
M  V30 END BOND
M  V30 END CTAB
M  END
