
     RDKit          3D

  0  0  0  0  0  0  0  0  0  0999 V3000
M  V30 BEGIN CTAB
M  V30 COUNTS 18 18 0 0 0
M  V30 BEGIN ATOM
M  V30 1 N -3.94585 0.833057 0.367944 0
M  V30 2 N -3.03052 -0.219169 0.43217 0
M  V30 3 C -1.62975 -0.0110628 0.207437 0
M  V30 4 O -1.22774 1.13851 -0.0506468 0
M  V30 5 C -0.724189 -1.18212 0.294075 0
M  V30 6 C 0.663373 -0.680978 0.0192185 0
M  V30 7 N 1.30699 -0.579 -1.13687 0
M  V30 8 N 2.48598 -0.127914 -1.1694 0
M  V30 9 C 3.08303 0.245438 -0.0425518 0
M  V30 10 N 4.4169 0.779505 0.107839 0
M  V30 11 S 1.85963 -0.0815677 1.10423 0
M  V30 12 H -3.62575 1.67264 0.897605 0
M  V30 13 H -4.22607 1.05963 -0.611684 0
M  V30 14 H -3.41748 -1.16351 0.651802 0
M  V30 15 H -0.962221 -1.87665 -0.54182 0
M  V30 16 H -0.765862 -1.70326 1.25872 0
M  V30 17 H 5.1904 0.170002 -0.176434 0
M  V30 18 H 4.54913 1.72645 0.484039 0
M  V30 END ATOM
M  V30 BEGIN BOND
M  V30 1 1 1 2
M  V30 2 1 2 3
M  V30 3 2 3 4
M  V30 4 1 3 5
M  V30 5 1 5 6
M  V30 6 2 6 7
M  V30 7 1 7 8
M  V30 8 2 8 9
M  V30 9 1 9 10
M  V30 10 1 9 11
M  V30 11 1 11 6
M  V30 12 1 1 12
M  V30 13 1 1 13
M  V30 14 1 2 14
M  V30 15 1 5 15
M  V30 16 1 5 16
M  V30 17 1 10 17
M  V30 18 1 10 18
M  V30 END BOND
M  V30 END CTAB
M  END
