
     RDKit          3D

  0  0  0  0  0  0  0  0  0  0999 V3000
M  V30 BEGIN CTAB
M  V30 COUNTS 21 22 0 0 0
M  V30 BEGIN ATOM
M  V30 1 N -2.55966 -2.40709 -0.507996 0
M  V30 2 C -1.92031 -1.17552 -0.165286 0
M  V30 3 N -2.64103 -0.0893642 0.209751 0
M  V30 4 C -2.00873 1.06246 0.528317 0
M  V30 5 N -2.72678 2.21326 0.923085 0
M  V30 6 N -0.662307 1.1427 0.476707 0
M  V30 7 C 0.120937 0.10943 0.114397 0
M  V30 8 C -0.546382 -1.06089 -0.207879 0
M  V30 9 N 1.54526 0.199066 0.0612538 0
M  V30 10 C 2.30416 0.378406 -1.03757 0
M  V30 11 C 3.63356 0.406966 -0.638844 0
M  V30 12 C 3.6381 0.238695 0.73236 0
M  V30 13 N 2.36421 0.119516 1.09723 0
M  V30 14 H -3.35266 -2.43772 -1.15259 0
M  V30 15 H -2.1659 -3.28336 -0.0571776 0
M  V30 16 H -2.78448 2.47539 1.91999 0
M  V30 17 H -3.19616 2.79492 0.210687 0
M  V30 18 H 0.0511611 -1.9185 -0.50562 0
M  V30 19 H 1.88828 0.476538 -2.03333 0
M  V30 20 H 4.47331 0.539059 -1.31491 0
M  V30 21 H 4.54543 0.216043 1.34742 0
M  V30 END ATOM
M  V30 BEGIN BOND
M  V30 1 1 1 2
M  V30 2 2 2 3
M  V30 3 1 3 4
M  V30 4 1 4 5
M  V30 5 2 4 6
M  V30 6 1 6 7
M  V30 7 2 7 8
M  V30 8 1 7 9
M  V30 9 1 9 10
M  V30 10 2 10 11
M  V30 11 1 11 12
M  V30 12 2 12 13
M  V30 13 1 8 2
M  V30 14 1 13 9
M  V30 15 1 1 14
M  V30 16 1 1 15
M  V30 17 1 5 16
M  V30 18 1 5 17
M  V30 19 1 8 18
M  V30 20 1 10 19
M  V30 21 1 11 20
M  V30 22 1 12 21
M  V30 END BOND
M  V30 END CTAB
M  END
