
     RDKit          3D

  0  0  0  0  0  0  0  0  0  0999 V3000
M  V30 BEGIN CTAB
M  V30 COUNTS 46 48 0 0 0
M  V30 BEGIN ATOM
M  V30 1 C -3.4016 -2.99421 -1.32385 0
M  V30 2 O -4.09695 -1.80967 -0.98989 0
M  V30 3 C -3.4277 -0.611434 -0.741488 0
M  V30 4 C -2.04499 -0.587587 -0.825824 0
M  V30 5 C -1.42996 0.620847 -0.571395 0
M  V30 6 C 0.0531793 0.655257 -0.659735 0
M  V30 7 C 0.632183 0.32854 0.69806 0
M  V30 8 C 2.11466 0.352619 0.651998 0
M  V30 9 N 2.77546 -0.787762 0.350038 0
M  V30 10 C 4.11864 -0.830327 0.292508 0
M  V30 11 C 4.77927 -2.00121 -0.0169251 0
M  V30 12 N 4.04877 -3.1914 -0.282226 0
M  V30 13 N 6.13243 -1.98675 -0.0608914 0
M  V30 14 C 6.8598 -0.884375 0.183073 0
M  V30 15 N 8.28666 -0.920892 0.124036 0
M  V30 16 N 6.19243 0.246982 0.483083 0
M  V30 17 C 4.8555 0.309572 0.545314 0
M  V30 18 N 4.16928 1.42757 0.842697 0
M  V30 19 C 2.82743 1.49036 0.905126 0
M  V30 20 C -2.16448 1.74362 -0.249855 0
M  V30 21 C -3.53709 1.71069 -0.168392 0
M  V30 22 O -4.31143 2.80209 0.148106 0
M  V30 23 C -3.8127 4.08328 0.428002 0
M  V30 24 C -4.16117 0.508556 -0.420698 0
M  V30 25 O -5.53632 0.414544 -0.353957 0
M  V30 26 C -6.13761 0.0770171 0.873264 0
M  V30 27 H -2.97988 -2.87991 -2.33629 0
M  V30 28 H -4.10855 -3.84402 -1.3203 0
M  V30 29 H -2.57205 -3.13045 -0.599801 0
M  V30 30 H -1.47324 -1.48083 -1.08084 0
M  V30 31 H 0.435217 1.63414 -0.976922 0
M  V30 32 H 0.424043 -0.116128 -1.38545 0
M  V30 33 H 0.327196 -0.701666 0.971079 0
M  V30 34 H 0.228448 1.05021 1.43587 0
M  V30 35 H 4.09255 -4.04013 0.321679 0
M  V30 36 H 3.43223 -3.23333 -1.12132 0
M  V30 37 H 8.83237 -0.445064 0.873897 0
M  V30 38 H 8.81283 -1.40236 -0.635807 0
M  V30 39 H 2.31068 2.40974 1.14801 0
M  V30 40 H -1.67228 2.68265 -0.0531466 0
M  V30 41 H -2.82518 4.045 0.932456 0
M  V30 42 H -3.67726 4.61422 -0.54005 0
M  V30 43 H -4.51504 4.65982 1.09089 0
M  V30 44 H -6.47616 -0.97862 0.902048 0
M  V30 45 H -6.95487 0.803812 1.05325 0
M  V30 46 H -5.42474 0.186995 1.73082 0
M  V30 END ATOM
M  V30 BEGIN BOND
M  V30 1 1 1 2
M  V30 2 1 2 3
M  V30 3 2 3 4
M  V30 4 1 4 5
M  V30 5 1 5 6
M  V30 6 1 6 7
M  V30 7 1 7 8
M  V30 8 2 8 9
M  V30 9 1 9 10
M  V30 10 2 10 11
M  V30 11 1 11 12
M  V30 12 1 11 13
M  V30 13 2 13 14
M  V30 14 1 14 15
M  V30 15 1 14 16
M  V30 16 2 16 17
M  V30 17 1 17 18
M  V30 18 2 18 19
M  V30 19 2 5 20
M  V30 20 1 20 21
M  V30 21 1 21 22
M  V30 22 1 22 23
M  V30 23 2 21 24
M  V30 24 1 24 25
M  V30 25 1 25 26
M  V30 26 1 24 3
M  V30 27 1 19 8
M  V30 28 1 17 10
M  V30 29 1 1 27
M  V30 30 1 1 28
M  V30 31 1 1 29
M  V30 32 1 4 30
M  V30 33 1 6 31
M  V30 34 1 6 32
M  V30 35 1 7 33
M  V30 36 1 7 34
M  V30 37 1 12 35
M  V30 38 1 12 36
M  V30 39 1 15 37
M  V30 40 1 15 38
M  V30 41 1 19 39
M  V30 42 1 20 40
M  V30 43 1 23 41
M  V30 44 1 23 42
M  V30 45 1 23 43
M  V30 46 1 26 44
M  V30 47 1 26 45
M  V30 48 1 26 46
M  V30 END BOND
M  V30 END CTAB
M  END
