
     RDKit          3D

  0  0  0  0  0  0  0  0  0  0999 V3000
M  V30 BEGIN CTAB
M  V30 COUNTS 34 35 0 0 0
M  V30 BEGIN ATOM
M  V30 1 N 1.19456 2.20258 0.903673 0
M  V30 2 C 1.94784 1.09449 0.455684 0
M  V30 3 C 3.33203 1.0949 0.610586 0
M  V30 4 C 4.10561 0.0772659 0.115163 0
M  V30 5 C 3.51327 -0.961833 -0.543161 0
M  V30 6 C 2.14709 -0.947847 -0.686005 0
M  V30 7 C 1.31587 0.0853891 -0.187797 0
M  V30 8 C -0.0997116 -0.198318 -0.320673 0 CFG=2
M  V30 9 C -0.328278 -0.797253 -1.71156 0
M  V30 10 C -1.40834 -1.83933 -1.56905 0
M  V30 11 C -2.58855 -1.10098 -0.936521 0
M  V30 12 C -2.3302 0.344337 -0.728919 0
M  V30 13 N -1.14005 0.605207 0.0993598 0
M  V30 14 S -1.71101 0.253234 1.72342 0
M  V30 15 O -0.942762 -0.94849 2.25666 0
M  V30 16 O -3.15471 -0.148642 1.7331 0
M  V30 17 N -1.5622 1.5876 2.80066 0
M  V30 18 H 0.593027 2.76516 0.281823 0
M  V30 19 H 1.25677 2.45832 1.90495 0
M  V30 20 H 3.72833 1.94478 1.1514 0
M  V30 21 H 5.18443 0.107518 0.25577 0
M  V30 22 H 4.14734 -1.74842 -0.923834 0
M  V30 23 H 1.74554 -1.81863 -1.18902 0
M  V30 24 H -0.209799 -1.15551 0.399976 0
M  V30 25 H -0.759261 0.0647899 -2.35254 0
M  V30 26 H 0.560398 -1.09697 -2.2472 0
M  V30 27 H -1.68095 -2.27686 -2.56192 0
M  V30 28 H -1.03177 -2.62873 -0.890953 0
M  V30 29 H -3.41962 -1.18614 -1.67258 0
M  V30 30 H -2.90443 -1.67944 -0.0642129 0
M  V30 31 H -3.22081 0.72657 -0.131603 0
M  V30 32 H -2.36245 0.897938 -1.65463 0
M  V30 33 H -2.44687 1.71297 3.37955 0
M  V30 34 H -1.47032 2.51034 2.30044 0
M  V30 END ATOM
M  V30 BEGIN BOND
M  V30 1 1 1 2
M  V30 2 2 2 3
M  V30 3 1 3 4
M  V30 4 2 4 5
M  V30 5 1 5 6
M  V30 6 2 6 7
M  V30 7 1 7 8
M  V30 8 1 8 9
M  V30 9 1 9 10
M  V30 10 1 10 11
M  V30 11 1 11 12
M  V30 12 1 12 13
M  V30 13 1 13 14
M  V30 14 2 14 15
M  V30 15 2 14 16
M  V30 16 1 14 17
M  V30 17 1 7 2
M  V30 18 1 13 8
M  V30 19 1 1 18
M  V30 20 1 1 19
M  V30 21 1 3 20
M  V30 22 1 4 21
M  V30 23 1 5 22
M  V30 24 1 6 23
M  V30 25 1 8 24 CFG=1
M  V30 26 1 9 25
M  V30 27 1 9 26
M  V30 28 1 10 27
M  V30 29 1 10 28
M  V30 30 1 11 29
M  V30 31 1 11 30
M  V30 32 1 12 31
M  V30 33 1 12 32
M  V30 34 1 17 33
M  V30 35 1 17 34
M  V30 END BOND
M  V30 END CTAB
M  END
