
     RDKit          3D

  0  0  0  0  0  0  0  0  0  0999 V3000
M  V30 BEGIN CTAB
M  V30 COUNTS 29 29 0 0 0
M  V30 BEGIN ATOM
M  V30 1 C 3.96917 1.02177 -0.459554 0
M  V30 2 C 2.70357 0.197559 -0.445604 0
M  V30 3 C 2.27982 -0.157592 0.954865 0
M  V30 4 S 0.776762 -1.12331 0.881732 0
M  V30 5 C -0.61271 -0.134394 0.373848 0
M  V30 6 C -0.570595 1.22497 0.177668 0
M  V30 7 C -1.68272 1.96443 -0.238717 0
M  V30 8 C -2.89014 1.34324 -0.472441 0
M  V30 9 C -2.94024 -0.0213407 -0.276944 0
M  V30 10 C -1.84765 -0.751661 0.132299 0
M  V30 11 N -1.92228 -2.1521 0.326041 0
M  V30 12 C -4.23401 -0.718879 -0.521908 0
M  V30 13 N 2.90768 -1.07154 -1.14393 0
M  V30 14 H 4.19738 1.40653 -1.4636 0
M  V30 15 H 3.7548 1.92817 0.176404 0
M  V30 16 H 4.83608 0.467969 -0.0793477 0
M  V30 17 H 1.92714 0.733066 -1.00793 0
M  V30 18 H 2.15594 0.759124 1.58156 0
M  V30 19 H 3.11447 -0.711398 1.45391 0
M  V30 20 H 0.352842 1.7417 0.364431 0
M  V30 21 H -1.63689 3.02668 -0.388865 0
M  V30 22 H -3.77261 1.862 -0.792201 0
M  V30 23 H -2.80578 -2.68136 0.0947761 0
M  V30 24 H -1.14387 -2.70689 0.690658 0
M  V30 25 H -4.41724 -1.44668 0.28071 0
M  V30 26 H -4.15273 -1.27327 -1.48321 0
M  V30 27 H -5.05838 0.00557413 -0.580739 0
M  V30 28 H 3.36842 -0.95119 -2.05222 0
M  V30 29 H 3.34379 -1.78119 -0.520102 0
M  V30 END ATOM
M  V30 BEGIN BOND
M  V30 1 1 1 2
M  V30 2 1 2 3
M  V30 3 1 3 4
M  V30 4 1 4 5
M  V30 5 2 5 6
M  V30 6 1 6 7
M  V30 7 2 7 8
M  V30 8 1 8 9
M  V30 9 2 9 10
M  V30 10 1 10 11
M  V30 11 1 9 12
M  V30 12 1 2 13
M  V30 13 1 10 5
M  V30 14 1 1 14
M  V30 15 1 1 15
M  V30 16 1 1 16
M  V30 17 1 2 17
M  V30 18 1 3 18
M  V30 19 1 3 19
M  V30 20 1 6 20
M  V30 21 1 7 21
M  V30 22 1 8 22
M  V30 23 1 11 23
M  V30 24 1 11 24
M  V30 25 1 12 25
M  V30 26 1 12 26
M  V30 27 1 12 27
M  V30 28 1 13 28
M  V30 29 1 13 29
M  V30 END BOND
M  V30 END CTAB
M  END
