
     RDKit          3D

  0  0  0  0  0  0  0  0  0  0999 V3000
M  V30 BEGIN CTAB
M  V30 COUNTS 36 37 0 0 0
M  V30 BEGIN ATOM
M  V30 1 O 0.569197 2.14791 0.706601 0
M  V30 2 C 0.286438 1.15448 0.020264 0
M  V30 3 N 1.22132 0.216118 -0.439509 0
M  V30 4 C 2.62059 0.214827 -0.215266 0
M  V30 5 C 3.29126 0.995368 0.690824 0
M  V30 6 C 4.65933 0.99401 0.884122 0
M  V30 7 C 5.43216 0.150249 0.118429 0
M  V30 8 C 4.81049 -0.654034 -0.804723 0
M  V30 9 C 3.4489 -0.630603 -0.974527 0
M  V30 10 O 6.78678 0.146636 0.30735 0
M  V30 11 C 7.72437 -0.6342 -0.370199 0
M  V30 12 F 8.6102 0.235444 -0.98959 0
M  V30 13 F 8.42928 -1.40212 0.567633 0
M  V30 14 C -1.15511 0.959479 -0.332029 0
M  V30 15 S -1.97359 -0.0305284 0.962272 0
M  V30 16 C -3.68591 -0.21371 0.450649 0
M  V30 17 N -4.10569 -1.22439 -0.310319 0
M  V30 18 C -5.38621 -1.37491 -0.703186 0
M  V30 19 N -5.81784 -2.46158 -1.51617 0
M  V30 20 C -6.31048 -0.434788 -0.297092 0
M  V30 21 C -5.8914 0.632504 0.501005 0
M  V30 22 N -4.59656 0.7101 0.849194 0
M  V30 23 N -6.83069 1.59427 0.917688 0
M  V30 24 H 0.885731 -0.623847 -1.03328 0
M  V30 25 H 2.71312 1.67079 1.3245 0
M  V30 26 H 5.12117 1.65735 1.63827 0
M  V30 27 H 5.35377 -1.33793 -1.43664 0
M  V30 28 H 2.97364 -1.27508 -1.71268 0
M  V30 29 H 7.33719 -1.30783 -1.12996 0
M  V30 30 H -1.67193 1.92772 -0.421698 0
M  V30 31 H -1.23745 0.420389 -1.30097 0
M  V30 32 H -5.29133 -2.59751 -2.41838 0
M  V30 33 H -6.60913 -3.09268 -1.24287 0
M  V30 34 H -7.35872 -0.514892 -0.590302 0
M  V30 35 H -7.68157 1.39782 1.49073 0
M  V30 36 H -6.67133 2.58516 0.63536 0
M  V30 END ATOM
M  V30 BEGIN BOND
M  V30 1 2 1 2
M  V30 2 1 2 3
M  V30 3 1 3 4
M  V30 4 2 4 5
M  V30 5 1 5 6
M  V30 6 2 6 7
M  V30 7 1 7 8
M  V30 8 2 8 9
M  V30 9 1 7 10
M  V30 10 1 10 11
M  V30 11 1 11 12
M  V30 12 1 11 13
M  V30 13 1 2 14
M  V30 14 1 14 15
M  V30 15 1 15 16
M  V30 16 2 16 17
M  V30 17 1 17 18
M  V30 18 1 18 19
M  V30 19 2 18 20
M  V30 20 1 20 21
M  V30 21 2 21 22
M  V30 22 1 21 23
M  V30 23 1 9 4
M  V30 24 1 22 16
M  V30 25 1 3 24
M  V30 26 1 5 25
M  V30 27 1 6 26
M  V30 28 1 8 27
M  V30 29 1 9 28
M  V30 30 1 11 29
M  V30 31 1 14 30
M  V30 32 1 14 31
M  V30 33 1 19 32
M  V30 34 1 19 33
M  V30 35 1 20 34
M  V30 36 1 23 35
M  V30 37 1 23 36
M  V30 END BOND
M  V30 END CTAB
M  END
