
     RDKit          3D

  0  0  0  0  0  0  0  0  0  0999 V3000
M  V30 BEGIN CTAB
M  V30 COUNTS 24 25 0 0 0
M  V30 BEGIN ATOM
M  V30 1 C -1.9587 -2.04272 0.00883735 0
M  V30 2 C -1.5851 -0.954684 0.983153 0
M  V30 3 C -0.705324 0.0919733 0.371934 0
M  V30 4 C -1.23714 1.30523 0.020319 0
M  V30 5 C -0.532286 2.33748 -0.549838 0
M  V30 6 N -1.18482 3.54503 -0.875088 0
M  V30 7 C 0.814071 2.09024 -0.767776 0
M  V30 8 C 1.37887 0.862862 -0.417713 0
M  V30 9 C 0.660222 -0.148333 0.147193 0
M  V30 10 N 1.29851 -1.25458 0.434983 0
M  V30 11 C 2.58507 -1.37445 0.183361 0
M  V30 12 S 2.93766 0.17182 -0.507569 0
M  V30 13 N 3.48001 -2.45096 0.400094 0
M  V30 14 H -3.06424 -2.18008 -0.0512969 0
M  V30 15 H -1.56753 -2.99724 0.462069 0
M  V30 16 H -1.57966 -1.87504 -1.00583 0
M  V30 17 H -1.07271 -1.32702 1.89709 0
M  V30 18 H -2.5248 -0.467626 1.31201 0
M  V30 19 H -2.29965 1.4662 0.206198 0
M  V30 20 H -0.747978 4.46319 -0.644044 0
M  V30 21 H -2.12356 3.5736 -1.35257 0
M  V30 22 H 1.42792 2.83044 -1.20579 0
M  V30 23 H 4.46763 -2.34357 0.134797 0
M  V30 24 H 3.13353 -3.32176 0.815471 0
M  V30 END ATOM
M  V30 BEGIN BOND
M  V30 1 1 1 2
M  V30 2 1 2 3
M  V30 3 2 3 4
M  V30 4 1 4 5
M  V30 5 1 5 6
M  V30 6 2 5 7
M  V30 7 1 7 8
M  V30 8 2 8 9
M  V30 9 1 9 10
M  V30 10 2 10 11
M  V30 11 1 11 12
M  V30 12 1 11 13
M  V30 13 1 9 3
M  V30 14 1 12 8
M  V30 15 1 1 14
M  V30 16 1 1 15
M  V30 17 1 1 16
M  V30 18 1 2 17
M  V30 19 1 2 18
M  V30 20 1 4 19
M  V30 21 1 6 20
M  V30 22 1 6 21
M  V30 23 1 7 22
M  V30 24 1 13 23
M  V30 25 1 13 24
M  V30 END BOND
M  V30 END CTAB
M  END
