
     RDKit          3D

  0  0  0  0  0  0  0  0  0  0999 V3000
M  V30 BEGIN CTAB
M  V30 COUNTS 20 20 0 0 0
M  V30 BEGIN ATOM
M  V30 1 C -2.87237 0.978781 0.00766341 0
M  V30 2 C -1.48905 0.696161 0.584689 0
M  V30 3 C -0.731738 -0.0671507 -0.482397 0
M  V30 4 C 0.652579 -0.400264 -0.0192045 0
M  V30 5 N 1.74852 0.271771 -0.394992 0
M  V30 6 C 2.82357 -0.274479 0.192883 0
M  V30 7 N 2.32629 -1.30376 0.93814 0
M  V30 8 O 1.03843 -1.33917 0.781215 0
M  V30 9 N 4.18336 0.120372 0.0749368 0
M  V30 10 N -1.46447 -1.25101 -0.867517 0
M  V30 11 H -3.43137 1.5995 0.725499 0
M  V30 12 H -2.71111 1.59619 -0.896609 0
M  V30 13 H -3.3554 0.0273187 -0.244807 0
M  V30 14 H -1.57698 0.145294 1.53239 0
M  V30 15 H -1.01531 1.68899 0.72855 0
M  V30 16 H -0.689469 0.589076 -1.37456 0
M  V30 17 H 4.65461 -0.0382063 -0.834639 0
M  V30 18 H 4.72641 0.555081 0.842426 0
M  V30 19 H -0.761133 -2.00352 -1.05107 0
M  V30 20 H -2.05538 -1.59097 -0.0732601 0
M  V30 END ATOM
M  V30 BEGIN BOND
M  V30 1 1 1 2
M  V30 2 1 2 3
M  V30 3 1 3 4
M  V30 4 2 4 5
M  V30 5 1 5 6
M  V30 6 2 6 7
M  V30 7 1 7 8
M  V30 8 1 6 9
M  V30 9 1 3 10
M  V30 10 1 8 4
M  V30 11 1 1 11
M  V30 12 1 1 12
M  V30 13 1 1 13
M  V30 14 1 2 14
M  V30 15 1 2 15
M  V30 16 1 3 16
M  V30 17 1 9 17
M  V30 18 1 9 18
M  V30 19 1 10 19
M  V30 20 1 10 20
M  V30 END BOND
M  V30 END CTAB
M  END
