
     RDKit          3D

  0  0  0  0  0  0  0  0  0  0999 V3000
M  V30 BEGIN CTAB
M  V30 COUNTS 35 37 0 0 0
M  V30 BEGIN ATOM
M  V30 1 N 4.25396 1.97795 0.684702 0
M  V30 2 C 3.62287 0.80024 0.234328 0
M  V30 3 N 2.40112 0.793315 -0.328636 0
M  V30 4 C 1.78128 -0.31245 -0.764064 0
M  V30 5 N 2.43541 -1.47713 -0.621449 0
M  V30 6 C 3.65835 -1.55801 -0.0698707 0
M  V30 7 N 4.22807 -0.415436 0.347502 0
M  V30 8 N 4.36136 -2.77777 0.0877471 0
M  V30 9 C 0.428981 -0.205034 -1.37155 0
M  V30 10 N -0.625542 -0.350298 -0.414803 0
M  V30 11 C -0.795062 -1.54853 0.395429 0
M  V30 12 C -2.23131 -2.01635 0.311648 0
M  V30 13 C -3.24542 -0.957442 0.562717 0
M  V30 14 C -2.83438 0.413277 0.244092 0
M  V30 15 C -1.56693 0.686476 -0.224854 0
M  V30 16 C -1.23814 1.99302 -0.504584 0
M  V30 17 C -2.13827 3.02762 -0.328911 0
M  V30 18 C -3.39866 2.757 0.137167 0
M  V30 19 C -3.72801 1.4407 0.418453 0
M  V30 20 H 4.4981 2.71084 0.00575887 0
M  V30 21 H 4.46618 2.09889 1.68255 0
M  V30 22 H 5.10919 -2.85027 0.805429 0
M  V30 23 H 4.17694 -3.63848 -0.483722 0
M  V30 24 H 0.324676 0.652115 -2.03452 0
M  V30 25 H 0.369586 -1.10206 -2.06943 0
M  V30 26 H -0.166871 -2.3602 0.00581829 0
M  V30 27 H -0.558767 -1.30149 1.43356 0
M  V30 28 H -2.3565 -2.81986 1.06853 0
M  V30 29 H -2.42661 -2.51481 -0.675734 0
M  V30 30 H -4.17192 -1.24722 -0.0196815 0
M  V30 31 H -3.61828 -0.959923 1.6282 0
M  V30 32 H -0.236321 2.18882 -0.870943 0
M  V30 33 H -1.89289 4.05702 -0.544676 0
M  V30 34 H -4.14576 3.54666 0.291779 0
M  V30 35 H -4.74042 1.26881 0.787029 0
M  V30 END ATOM
M  V30 BEGIN BOND
M  V30 1 1 1 2
M  V30 2 2 2 3
M  V30 3 1 3 4
M  V30 4 2 4 5
M  V30 5 1 5 6
M  V30 6 2 6 7
M  V30 7 1 6 8
M  V30 8 1 4 9
M  V30 9 1 9 10
M  V30 10 1 10 11
M  V30 11 1 11 12
M  V30 12 1 12 13
M  V30 13 1 13 14
M  V30 14 2 14 15
M  V30 15 1 15 16
M  V30 16 2 16 17
M  V30 17 1 17 18
M  V30 18 2 18 19
M  V30 19 1 7 2
M  V30 20 1 15 10
M  V30 21 1 19 14
M  V30 22 1 1 20
M  V30 23 1 1 21
M  V30 24 1 8 22
M  V30 25 1 8 23
M  V30 26 1 9 24
M  V30 27 1 9 25
M  V30 28 1 11 26
M  V30 29 1 11 27
M  V30 30 1 12 28
M  V30 31 1 12 29
M  V30 32 1 13 30
M  V30 33 1 13 31
M  V30 34 1 16 32
M  V30 35 1 17 33
M  V30 36 1 18 34
M  V30 37 1 19 35
M  V30 END BOND
M  V30 END CTAB
M  END
