
     RDKit          3D

  0  0  0  0  0  0  0  0  0  0999 V3000
M  V30 BEGIN CTAB
M  V30 COUNTS 25 26 0 0 0
M  V30 BEGIN ATOM
M  V30 1 C 0.189801 2.8524 0.982085 0
M  V30 2 N -0.331832 1.57755 0.472564 0
M  V30 3 N -1.6107 1.41487 0.212841 0
M  V30 4 C -2.16962 0.302274 -0.248483 0
M  V30 5 C -3.62258 0.149083 -0.533004 0
M  V30 6 C -1.36988 -0.796646 -0.487028 0
M  V30 7 O -1.85832 -1.88646 -0.929427 0
M  V30 8 C -0.0217717 -0.66082 -0.225151 0
M  V30 9 C 0.493798 0.536258 0.257425 0
M  V30 10 N 1.81543 0.620746 0.49791 0
M  V30 11 C 2.6705 -0.399809 0.294423 0
M  V30 12 N 4.05774 -0.27002 0.560595 0
M  V30 13 N 2.15711 -1.56152 -0.175994 0
M  V30 14 C 0.848756 -1.70004 -0.432387 0
M  V30 15 N 0.292591 -2.91941 -0.928936 0
M  V30 16 H 1.28295 2.82665 0.937097 0
M  V30 17 H -0.272583 3.70385 0.454715 0
M  V30 18 H -0.0696241 2.94322 2.0762 0
M  V30 19 H -4.05964 -0.37775 0.333713 0
M  V30 20 H -4.03429 1.18485 -0.588555 0
M  V30 21 H -3.74184 -0.389442 -1.4722 0
M  V30 22 H 4.45984 0.0571308 1.45944 0
M  V30 23 H 4.70368 -0.531903 -0.230255 0
M  V30 24 H 0.0621414 -3.73278 -0.315977 0
M  V30 25 H 0.128349 -2.94229 -1.9716 0
M  V30 END ATOM
M  V30 BEGIN BOND
M  V30 1 1 1 2
M  V30 2 1 2 3
M  V30 3 2 3 4
M  V30 4 1 4 5
M  V30 5 1 4 6
M  V30 6 2 6 7
M  V30 7 1 6 8
M  V30 8 2 8 9
M  V30 9 1 9 10
M  V30 10 2 10 11
M  V30 11 1 11 12
M  V30 12 1 11 13
M  V30 13 2 13 14
M  V30 14 1 14 15
M  V30 15 1 9 2
M  V30 16 1 14 8
M  V30 17 1 1 16
M  V30 18 1 1 17
M  V30 19 1 1 18
M  V30 20 1 5 19
M  V30 21 1 5 20
M  V30 22 1 5 21
M  V30 23 1 12 22
M  V30 24 1 12 23
M  V30 25 1 15 24
M  V30 26 1 15 25
M  V30 END BOND
M  V30 END CTAB
M  END
