
     RDKit          3D

  0  0  0  0  0  0  0  0  0  0999 V3000
M  V30 BEGIN CTAB
M  V30 COUNTS 46 49 0 0 0
M  V30 BEGIN ATOM
M  V30 1 N -3.02725 -1.11907 -0.63123 0
M  V30 2 C -3.17491 0.260103 -1.06204 0 CFG=1
M  V30 3 C -4.64196 0.647369 -1.04416 0 CFG=1
M  V30 4 C -5.20095 0.105825 0.206406 0
M  V30 5 C -4.64558 0.792471 1.19847 0
M  V30 6 C -3.70607 1.80626 0.629193 0 CFG=1
M  V30 7 C -2.54215 1.12487 0.0100107 0 CFG=1
M  V30 8 C -1.68506 0.388326 0.948886 0
M  V30 9 O -2.13262 0.292122 2.14148 0
M  V30 10 N -0.442661 -0.206741 0.651221 0
M  V30 11 C 0.0825339 -0.095313 -0.687679 0
M  V30 12 C 1.53837 0.302352 -0.698807 0
M  V30 13 C 2.25586 -0.120996 0.559592 0
M  V30 14 C 1.59467 -1.34602 1.15495 0
M  V30 15 C 0.259826 -0.9052 1.71129 0
M  V30 16 C 3.66941 -0.459959 0.23069 0
M  V30 17 C 3.95462 -1.50543 -0.641351 0
M  V30 18 C 5.25829 -1.83053 -0.954926 0
M  V30 19 N 6.29434 -1.13155 -0.414711 0
M  V30 20 C 6.00262 -0.122323 0.427673 0
M  V30 21 N 4.72095 0.199127 0.737469 0
M  V30 22 N 7.07458 0.634765 1.01459 0
M  V30 23 C -4.50829 2.13284 -0.651779 0
M  V30 24 H -3.9104 -1.56541 -0.375296 0
M  V30 25 H -2.54439 -1.69953 -1.32563 0
M  V30 26 H -2.70316 0.374608 -2.03641 0
M  V30 27 H -5.18347 0.481237 -1.94481 0
M  V30 28 H -5.91949 -0.692976 0.269594 0
M  V30 29 H -4.83185 0.653304 2.25148 0
M  V30 30 H -3.52495 2.65801 1.24223 0
M  V30 31 H -1.91778 1.92785 -0.47438 0
M  V30 32 H -0.476046 0.697336 -1.21422 0
M  V30 33 H -0.0688519 -1.03897 -1.22447 0
M  V30 34 H 1.69733 1.38797 -0.856064 0
M  V30 35 H 2.01861 -0.223751 -1.54829 0
M  V30 36 H 2.25773 0.731298 1.26116 0
M  V30 37 H 2.23052 -1.74373 1.95917 0
M  V30 38 H 1.46091 -2.07668 0.333843 0
M  V30 39 H -0.28498 -1.81643 2.03687 0
M  V30 40 H 0.475808 -0.233045 2.57294 0
M  V30 41 H 3.16397 -2.07475 -1.08322 0
M  V30 42 H 5.53155 -2.6337 -1.62677 0
M  V30 43 H 7.74771 1.18422 0.472923 0
M  V30 44 H 7.1508 0.607407 2.05426 0
M  V30 45 H -5.47664 2.57368 -0.416812 0
M  V30 46 H -3.89148 2.67874 -1.36649 0
M  V30 END ATOM
M  V30 BEGIN BOND
M  V30 1 1 1 2
M  V30 2 1 2 3
M  V30 3 1 3 4
M  V30 4 2 4 5
M  V30 5 1 5 6
M  V30 6 1 6 7
M  V30 7 1 7 8
M  V30 8 2 8 9
M  V30 9 1 8 10
M  V30 10 1 10 11
M  V30 11 1 11 12
M  V30 12 1 12 13
M  V30 13 1 13 14
M  V30 14 1 14 15
M  V30 15 1 13 16
M  V30 16 2 16 17
M  V30 17 1 17 18
M  V30 18 2 18 19
M  V30 19 1 19 20
M  V30 20 2 20 21
M  V30 21 1 20 22
M  V30 22 1 6 23
M  V30 23 1 7 2
M  V30 24 1 15 10
M  V30 25 1 21 16
M  V30 26 1 23 3
M  V30 27 1 1 24
M  V30 28 1 1 25
M  V30 29 1 2 26 CFG=3
M  V30 30 1 3 27 CFG=3
M  V30 31 1 4 28
M  V30 32 1 5 29
M  V30 33 1 6 30 CFG=1
M  V30 34 1 7 31 CFG=3
M  V30 35 1 11 32
M  V30 36 1 11 33
M  V30 37 1 12 34
M  V30 38 1 12 35
M  V30 39 1 13 36
M  V30 40 1 14 37
M  V30 41 1 14 38
M  V30 42 1 15 39
M  V30 43 1 15 40
M  V30 44 1 17 41
M  V30 45 1 18 42
M  V30 46 1 22 43
M  V30 47 1 22 44
M  V30 48 1 23 45
M  V30 49 1 23 46
M  V30 END BOND
M  V30 END CTAB
M  END
