
     RDKit          3D

  0  0  0  0  0  0  0  0  0  0999 V3000
M  V30 BEGIN CTAB
M  V30 COUNTS 23 23 0 0 0
M  V30 BEGIN ATOM
M  V30 1 N 2.95531 0.929274 0.352673 0
M  V30 2 C 2.41249 -0.424318 0.507468 0
M  V30 3 C 1.205 -0.506466 -0.38857 0
M  V30 4 O 0.586986 -1.73102 -0.347083 0
M  V30 5 C -0.705543 -1.58789 -0.78217 0
M  V30 6 C -1.05501 -0.132923 -0.750758 0
M  V30 7 C 0.107377 0.442153 0.0404045 0
M  V30 8 C -2.37463 0.109936 -0.0540756 0
M  V30 9 N -2.73556 1.49146 -0.00830955 0
M  V30 10 H 2.95806 1.44879 1.24947 0
M  V30 11 H 3.86928 0.922207 -0.134003 0
M  V30 12 H 3.16186 -1.16382 0.158499 0
M  V30 13 H 2.17496 -0.551138 1.5669 0
M  V30 14 H 1.44591 -0.253417 -1.44098 0
M  V30 15 H -0.837238 -2.04608 -1.7863 0
M  V30 16 H -1.37043 -2.10523 -0.0348277 0
M  V30 17 H -1.0347 0.349449 -1.73914 0
M  V30 18 H 0.326981 1.49239 -0.244336 0
M  V30 19 H -0.144153 0.333849 1.11493 0
M  V30 20 H -3.14803 -0.414403 -0.672419 0
M  V30 21 H -2.41328 -0.381053 0.939343 0
M  V30 22 H -3.4393 1.63899 0.758901 0
M  V30 23 H -1.94634 2.13926 0.200525 0
M  V30 END ATOM
M  V30 BEGIN BOND
M  V30 1 1 1 2
M  V30 2 1 2 3
M  V30 3 1 3 4
M  V30 4 1 4 5
M  V30 5 1 5 6
M  V30 6 1 6 7
M  V30 7 1 6 8
M  V30 8 1 8 9
M  V30 9 1 7 3
M  V30 10 1 1 10
M  V30 11 1 1 11
M  V30 12 1 2 12
M  V30 13 1 2 13
M  V30 14 1 3 14
M  V30 15 1 5 15
M  V30 16 1 5 16
M  V30 17 1 6 17
M  V30 18 1 7 18
M  V30 19 1 7 19
M  V30 20 1 8 20
M  V30 21 1 8 21
M  V30 22 1 9 22
M  V30 23 1 9 23
M  V30 END BOND
M  V30 END CTAB
M  END
