
     RDKit          3D

  0  0  0  0  0  0  0  0  0  0999 V3000
M  V30 BEGIN CTAB
M  V30 COUNTS 22 22 0 0 0
M  V30 BEGIN ATOM
M  V30 1 N -2.34557 1.17572 -1.98812 0
M  V30 2 N -2.39904 0.393819 -0.949557 0
M  V30 3 C -1.78811 -0.211055 -0.0329838 0
M  V30 4 C -0.346047 -0.12643 0.103768 0
M  V30 5 C 0.419072 0.646116 -0.795007 0
M  V30 6 C 1.7929 0.752423 -0.697708 0
M  V30 7 C 2.4253 0.0777423 0.313785 0
M  V30 8 C 1.72868 -0.687446 1.21465 0
M  V30 9 C 0.32114 -0.782464 1.09636 0
M  V30 10 Cl -0.52105 -1.76247 2.25724 0
M  V30 11 N 3.82932 0.187962 0.411134 0
M  V30 12 C -2.68214 -1.00262 0.873517 0
M  V30 13 H -2.45191 2.23724 -1.90043 0
M  V30 14 H -2.20024 0.898908 -2.99534 0
M  V30 15 H -0.0557836 1.18225 -1.59388 0
M  V30 16 H 2.34016 1.34388 -1.39254 0
M  V30 17 H 2.1999 -1.22592 2.01613 0
M  V30 18 H 4.36625 -0.452199 1.02848 0
M  V30 19 H 4.37398 0.896489 -0.11715 0
M  V30 20 H -2.52855 -2.07746 0.781384 0
M  V30 21 H -2.73238 -0.648498 1.8918 0
M  V30 22 H -3.74588 -0.815984 0.474455 0
M  V30 END ATOM
M  V30 BEGIN BOND
M  V30 1 1 1 2
M  V30 2 2 2 3 CFG=2
M  V30 3 1 3 4
M  V30 4 2 4 5
M  V30 5 1 5 6
M  V30 6 2 6 7
M  V30 7 1 7 8
M  V30 8 2 8 9
M  V30 9 1 9 10
M  V30 10 1 7 11
M  V30 11 1 3 12
M  V30 12 1 9 4
M  V30 13 1 1 13
M  V30 14 1 1 14
M  V30 15 1 5 15
M  V30 16 1 6 16
M  V30 17 1 8 17
M  V30 18 1 11 18
M  V30 19 1 11 19
M  V30 20 1 12 20
M  V30 21 1 12 21
M  V30 22 1 12 22
M  V30 END BOND
M  V30 END CTAB
M  END
