
     RDKit          3D

  0  0  0  0  0  0  0  0  0  0999 V3000
M  V30 BEGIN CTAB
M  V30 COUNTS 46 48 0 0 0
M  V30 BEGIN ATOM
M  V30 1 N 4.15926 2.37325 -2.0927 0
M  V30 2 C 4.62363 1.53838 -1.44217 0
M  V30 3 C 5.17846 0.503388 -0.645848 0
M  V30 4 C 6.37019 0.720911 0.0105935 0
M  V30 5 N 7.07964 1.95436 -0.0754755 0
M  V30 6 C 6.86365 -0.319203 0.770611 0
M  V30 7 C 6.18553 -1.51434 0.859884 0
M  V30 8 N 5.01161 -1.68066 0.192534 0
M  V30 9 C 4.48757 -0.699538 -0.561265 0
M  V30 10 S 2.9381 -0.940779 -1.4329 0
M  V30 11 C 1.57586 -0.419033 -0.354547 0
M  V30 12 C 0.281173 -0.600465 -1.03263 0
M  V30 13 O 0.259708 -1.0602 -2.19189 0
M  V30 14 C -0.941753 -0.230729 -0.31305 0
M  V30 15 C -1.03403 0.282728 0.961695 0
M  V30 16 C -2.3947 0.477467 1.21796 0
M  V30 17 N -3.09922 0.0958699 0.137958 0
M  V30 18 C -2.24539 -0.338193 -0.806658 0
M  V30 19 C -2.59207 -0.852799 -2.15985 0
M  V30 20 C -4.51162 0.129807 -0.0187046 0
M  V30 21 C -5.28625 -1.00328 -0.159043 0
M  V30 22 C -6.6523 -0.980473 -0.310764 0
M  V30 23 C -7.311 0.232107 -0.326999 0
M  V30 24 C -6.55585 1.37942 -0.188163 0
M  V30 25 C -5.18634 1.35305 -0.036217 0
M  V30 26 Cl -7.41048 2.91998 -0.210781 0
M  V30 27 F -8.65588 0.30975 -0.473759 0
M  V30 28 C -3.00668 1.01621 2.46704 0
M  V30 29 N 6.71574 -2.55756 1.64436 0
M  V30 30 H 8.11492 1.97979 -0.203962 0
M  V30 31 H 6.52633 2.84791 -0.00531492 0
M  V30 32 H 7.79142 -0.213413 1.30911 0
M  V30 33 H 1.70094 0.627147 -0.00296932 0
M  V30 34 H 1.58347 -1.05054 0.573578 0
M  V30 35 H -0.228055 0.502175 1.65151 0
M  V30 36 H -3.64035 -0.592247 -2.40807 0
M  V30 37 H -1.96989 -0.306536 -2.92407 0
M  V30 38 H -2.41978 -1.93125 -2.25747 0
M  V30 39 H -4.75973 -1.95582 -0.145234 0
M  V30 40 H -7.25938 -1.8711 -0.42087 0
M  V30 41 H -4.60325 2.24752 0.0713531 0
M  V30 42 H -3.50669 1.98192 2.28684 0
M  V30 43 H -2.22343 1.19856 3.23151 0
M  V30 44 H -3.77867 0.329671 2.88172 0
M  V30 45 H 7.61269 -2.99528 1.38093 0
M  V30 46 H 6.21288 -2.88794 2.48223 0
M  V30 END ATOM
M  V30 BEGIN BOND
M  V30 1 3 1 2
M  V30 2 1 2 3
M  V30 3 2 3 4
M  V30 4 1 4 5
M  V30 5 1 4 6
M  V30 6 2 6 7
M  V30 7 1 7 8
M  V30 8 2 8 9
M  V30 9 1 9 10
M  V30 10 1 10 11
M  V30 11 1 11 12
M  V30 12 2 12 13
M  V30 13 1 12 14
M  V30 14 1 14 15
M  V30 15 2 15 16
M  V30 16 1 16 17
M  V30 17 1 17 18
M  V30 18 1 18 19
M  V30 19 1 17 20
M  V30 20 2 20 21
M  V30 21 1 21 22
M  V30 22 2 22 23
M  V30 23 1 23 24
M  V30 24 2 24 25
M  V30 25 1 24 26
M  V30 26 1 23 27
M  V30 27 1 16 28
M  V30 28 1 7 29
M  V30 29 1 9 3
M  V30 30 2 18 14
M  V30 31 1 25 20
M  V30 32 1 5 30
M  V30 33 1 5 31
M  V30 34 1 6 32
M  V30 35 1 11 33
M  V30 36 1 11 34
M  V30 37 1 15 35
M  V30 38 1 19 36
M  V30 39 1 19 37
M  V30 40 1 19 38
M  V30 41 1 21 39
M  V30 42 1 22 40
M  V30 43 1 25 41
M  V30 44 1 28 42
M  V30 45 1 28 43
M  V30 46 1 28 44
M  V30 47 1 29 45
M  V30 48 1 29 46
M  V30 END BOND
M  V30 END CTAB
M  END
