
     RDKit          3D

  0  0  0  0  0  0  0  0  0  0999 V3000
M  V30 BEGIN CTAB
M  V30 COUNTS 51 53 0 0 0
M  V30 BEGIN ATOM
M  V30 1 C 5.68587 2.00562 1.13497 0
M  V30 2 C 5.0931 0.667122 1.00066 0
M  V30 3 N 4.38921 0.322512 -0.183224 0
M  V30 4 C 2.99086 0.0500907 -0.148447 0
M  V30 5 N 2.54935 -1.18023 0.125153 0
M  V30 6 C 1.25615 -1.47227 0.219331 0
M  V30 7 N 0.811028 -2.8014 0.511403 0
M  V30 8 C 0.311475 -0.497105 0.0355471 0
M  V30 9 C 0.739687 0.825486 -0.257416 0
M  V30 10 C 2.07893 1.08302 -0.34879 0
M  V30 11 C 2.61808 2.35007 -0.738401 0
M  V30 12 N 3.12506 3.34891 -1.08057 0
M  V30 13 C -0.185962 1.81037 -0.435812 0
M  V30 14 C 0.0804366 3.188 -0.687418 0
M  V30 15 N 0.2212 4.31688 -0.878629 0
M  V30 16 C -1.54152 1.45049 -0.321249 0
M  V30 17 S -2.69246 2.57274 -0.524727 0
M  V30 18 N -1.91965 0.206139 -0.0489094 0
M  V30 19 C -1.02055 -0.777901 0.13295 0
M  V30 20 N -1.4496 -2.10655 0.425867 0
M  V30 21 C -3.30847 -0.101582 0.0525223 0
M  V30 22 C -4.04498 0.285437 1.14748 0
M  V30 23 C -5.40587 -0.0143169 1.25278 0
M  V30 24 C -6.06736 -0.707598 0.268765 0
M  V30 25 C -5.30824 -1.09791 -0.843551 0
M  V30 26 C -3.96364 -0.797629 -0.939838 0
M  V30 27 O -7.40848 -1.0461 0.290587 0
M  V30 28 C -8.31865 -0.74218 1.31279 0
M  V30 29 C 4.99742 0.184857 -1.48677 0
M  V30 30 C 5.91781 -0.987605 -1.60763 0
M  V30 31 H 6.58623 1.95172 1.78521 0
M  V30 32 H 5.03233 2.76726 1.61295 0
M  V30 33 H 6.03213 2.47125 0.191571 0
M  V30 34 H 4.39728 0.540295 1.89105 0
M  V30 35 H 5.89605 -0.101374 1.25152 0
M  V30 36 H 0.692199 -3.05944 1.50407 0
M  V30 37 H 0.616058 -3.50054 -0.223122 0
M  V30 38 H -1.56334 -2.33807 1.44393 0
M  V30 39 H -1.65274 -2.82681 -0.289179 0
M  V30 40 H -3.54469 0.840618 1.94946 0
M  V30 41 H -5.94882 0.305135 2.12685 0
M  V30 42 H -5.80734 -1.64682 -1.63424 0
M  V30 43 H -3.37442 -1.09581 -1.79449 0
M  V30 44 H -7.92139 -0.0313397 2.06169 0
M  V30 45 H -8.65206 -1.65229 1.87598 0
M  V30 46 H -9.262 -0.278823 0.907816 0
M  V30 47 H 4.2691 0.131803 -2.31859 0
M  V30 48 H 5.58425 1.12725 -1.6866 0
M  V30 49 H 5.39558 -1.81927 -2.16628 0
M  V30 50 H 6.2259 -1.42554 -0.644334 0
M  V30 51 H 6.76947 -0.696603 -2.25541 0
M  V30 END ATOM
M  V30 BEGIN BOND
M  V30 1 1 1 2
M  V30 2 1 2 3
M  V30 3 1 3 4
M  V30 4 1 4 5
M  V30 5 2 5 6
M  V30 6 1 6 7
M  V30 7 1 6 8
M  V30 8 1 8 9
M  V30 9 1 9 10
M  V30 10 1 10 11
M  V30 11 3 11 12
M  V30 12 2 9 13
M  V30 13 1 13 14
M  V30 14 3 14 15
M  V30 15 1 13 16
M  V30 16 2 16 17
M  V30 17 1 16 18
M  V30 18 1 18 19
M  V30 19 1 19 20
M  V30 20 1 18 21
M  V30 21 2 21 22
M  V30 22 1 22 23
M  V30 23 2 23 24
M  V30 24 1 24 25
M  V30 25 2 25 26
M  V30 26 1 24 27
M  V30 27 1 27 28
M  V30 28 1 3 29
M  V30 29 1 29 30
M  V30 30 2 10 4
M  V30 31 1 26 21
M  V30 32 2 19 8
M  V30 33 1 1 31
M  V30 34 1 1 32
M  V30 35 1 1 33
M  V30 36 1 2 34
M  V30 37 1 2 35
M  V30 38 1 7 36
M  V30 39 1 7 37
M  V30 40 1 20 38
M  V30 41 1 20 39
M  V30 42 1 22 40
M  V30 43 1 23 41
M  V30 44 1 25 42
M  V30 45 1 26 43
M  V30 46 1 28 44
M  V30 47 1 28 45
M  V30 48 1 28 46
M  V30 49 1 29 47
M  V30 50 1 29 48
M  V30 51 1 30 49
M  V30 52 1 30 50
M  V30 53 1 30 51
M  V30 END BOND
M  V30 END CTAB
M  END
