
     RDKit          3D

  0  0  0  0  0  0  0  0  0  0999 V3000
M  V30 BEGIN CTAB
M  V30 COUNTS 36 35 0 0 0
M  V30 BEGIN ATOM
M  V30 1 N 5.94437 0.183596 0.2374 0
M  V30 2 C 4.76663 1.04607 0.084122 0
M  V30 3 C 3.59374 0.43088 0.825702 0
M  V30 4 N 3.19635 -0.845226 0.325148 0
M  V30 5 C 2.50833 -0.801952 -0.959229 0
M  V30 6 C 1.13578 -0.153704 -0.739825 0
M  V30 7 N 0.40201 -0.918428 0.268514 0
M  V30 8 C -0.755961 -0.279088 0.74267 0
M  V30 9 C -1.95208 -0.201576 -0.176886 0
M  V30 10 N -2.94885 0.576732 0.497491 0
M  V30 11 C -4.20533 0.745651 -0.0641645 0
M  V30 12 C -5.1178 -0.480041 -0.0568563 0
M  V30 13 N -6.34476 -0.112195 -0.658017 0
M  V30 14 H 5.83026 -0.330051 1.14417 0
M  V30 15 H 6.07311 -0.409656 -0.584836 0
M  V30 16 H 4.57976 1.24922 -0.968875 0
M  V30 17 H 5.01453 2.00338 0.583854 0
M  V30 18 H 2.76232 1.18154 0.805907 0
M  V30 19 H 3.88104 0.308619 1.88744 0
M  V30 20 H 4.08484 -1.40666 0.148234 0
M  V30 21 H 2.3511 -1.81365 -1.32214 0
M  V30 22 H 3.02244 -0.188863 -1.71415 0
M  V30 23 H 0.570148 -0.312876 -1.6842 0
M  V30 24 H 1.25112 0.876524 -0.442573 0
M  V30 25 H 1.05284 -1.06339 1.06979 0
M  V30 26 H -0.596401 0.734407 1.15428 0
M  V30 27 H -1.10967 -0.891763 1.63812 0
M  V30 28 H -1.74404 0.236998 -1.15531 0
M  V30 29 H -2.3377 -1.25053 -0.375078 0
M  V30 30 H -2.76748 0.837774 1.46183 0
M  V30 31 H -4.09461 1.04496 -1.14047 0
M  V30 32 H -4.74807 1.59096 0.428521 0
M  V30 33 H -5.32532 -0.70867 1.01345 0
M  V30 34 H -4.59782 -1.31574 -0.54902 0
M  V30 35 H -6.32444 0.121966 -1.65985 0
M  V30 36 H -7.05038 0.314806 -0.0640527 0
M  V30 END ATOM
M  V30 BEGIN BOND
M  V30 1 1 1 2
M  V30 2 1 2 3
M  V30 3 1 3 4
M  V30 4 1 4 5
M  V30 5 1 5 6
M  V30 6 1 6 7
M  V30 7 1 7 8
M  V30 8 1 8 9
M  V30 9 1 9 10
M  V30 10 1 10 11
M  V30 11 1 11 12
M  V30 12 1 12 13
M  V30 13 1 1 14
M  V30 14 1 1 15
M  V30 15 1 2 16
M  V30 16 1 2 17
M  V30 17 1 3 18
M  V30 18 1 3 19
M  V30 19 1 4 20
M  V30 20 1 5 21
M  V30 21 1 5 22
M  V30 22 1 6 23
M  V30 23 1 6 24
M  V30 24 1 7 25
M  V30 25 1 8 26
M  V30 26 1 8 27
M  V30 27 1 9 28
M  V30 28 1 9 29
M  V30 29 1 10 30
M  V30 30 1 11 31
M  V30 31 1 11 32
M  V30 32 1 12 33
M  V30 33 1 12 34
M  V30 34 1 13 35
M  V30 35 1 13 36
M  V30 END BOND
M  V30 END CTAB
M  END
