
     RDKit          3D

  0  0  0  0  0  0  0  0  0  0999 V3000
M  V30 BEGIN CTAB
M  V30 COUNTS 45 49 0 0 0
M  V30 BEGIN ATOM
M  V30 1 C -5.05651 -3.16868 -0.901831 0
M  V30 2 C -3.94608 -2.23584 -0.60386 0
M  V30 3 C -2.69276 -2.45291 -1.13081 0
M  V30 4 C -2.39131 -3.61982 -2.01518 0
M  V30 5 C -1.67944 -1.56775 -0.835915 0
M  V30 6 C -1.89969 -0.478205 -0.0286721 0
M  V30 7 N -1.06621 0.514171 0.393561 0
M  V30 8 C -1.81348 1.29749 1.15221 0
M  V30 9 N -3.07766 0.847837 1.22925 0
M  V30 10 C -3.17043 -0.286264 0.486462 0
M  V30 11 C -4.2091 -1.15543 0.210111 0
M  V30 12 C -1.33245 2.51983 1.83743 0
M  V30 13 N -0.113186 3.04209 1.82343 0
M  V30 14 C 0.128892 4.12548 2.48652 0
M  V30 15 C -0.908279 4.69258 3.18582 0
M  V30 16 S -2.18671 3.61343 2.83923 0
M  V30 17 C 0.308473 0.619509 0.0490175 0
M  V30 18 C 0.742973 1.52194 -0.915457 0
M  V30 19 C 2.07485 1.62696 -1.25217 0
M  V30 20 C 3.03043 0.842215 -0.647081 0
M  V30 21 C 4.3596 0.962194 -0.99802 0
M  V30 22 N 4.72984 1.90016 -1.98617 0
M  V30 23 N 5.24591 0.167814 -0.371285 0
M  V30 24 C 4.87086 -0.71991 0.568296 0
M  V30 25 N 5.83418 -1.56075 1.2273 0
M  V30 26 N 3.56512 -0.81371 0.889364 0
M  V30 27 C 2.61743 -0.0644907 0.317834 0
M  V30 28 C 1.28202 -0.162407 0.648179 0
M  V30 29 H -4.75515 -4.22328 -0.935297 0
M  V30 30 H -5.50949 -2.82018 -1.87407 0
M  V30 31 H -5.8324 -3.09626 -0.0949047 0
M  V30 32 H -2.82417 -3.4307 -3.01392 0
M  V30 33 H -2.85861 -4.54268 -1.61272 0
M  V30 34 H -1.29634 -3.79609 -2.04565 0
M  V30 35 H -0.687099 -1.72623 -1.24403 0
M  V30 36 H -5.18409 -0.977068 0.626492 0
M  V30 37 H 1.13895 4.5947 2.49979 0
M  V30 38 H -0.882724 5.61039 3.8019 0
M  V30 39 H -0.00993585 2.1456 -1.39749 0
M  V30 40 H 2.38306 2.33161 -1.99982 0
M  V30 41 H 5.11914 2.8119 -1.69544 0
M  V30 42 H 4.62002 1.69472 -2.99149 0
M  V30 43 H 5.54263 -2.05566 2.09767 0
M  V30 44 H 6.7807 -1.64491 0.815534 0
M  V30 45 H 1.00821 -0.883377 1.40588 0
M  V30 END ATOM
M  V30 BEGIN BOND
M  V30 1 1 1 2
M  V30 2 2 2 3
M  V30 3 1 3 4
M  V30 4 1 3 5
M  V30 5 2 5 6
M  V30 6 1 6 7
M  V30 7 1 7 8
M  V30 8 2 8 9
M  V30 9 1 9 10
M  V30 10 2 10 11
M  V30 11 1 8 12
M  V30 12 2 12 13
M  V30 13 1 13 14
M  V30 14 2 14 15
M  V30 15 1 15 16
M  V30 16 1 7 17
M  V30 17 2 17 18
M  V30 18 1 18 19
M  V30 19 2 19 20
M  V30 20 1 20 21
M  V30 21 1 21 22
M  V30 22 2 21 23
M  V30 23 1 23 24
M  V30 24 1 24 25
M  V30 25 2 24 26
M  V30 26 1 26 27
M  V30 27 2 27 28
M  V30 28 1 11 2
M  V30 29 1 16 12
M  V30 30 1 28 17
M  V30 31 1 10 6
M  V30 32 1 27 20
M  V30 33 1 1 29
M  V30 34 1 1 30
M  V30 35 1 1 31
M  V30 36 1 4 32
M  V30 37 1 4 33
M  V30 38 1 4 34
M  V30 39 1 5 35
M  V30 40 1 11 36
M  V30 41 1 14 37
M  V30 42 1 15 38
M  V30 43 1 18 39
M  V30 44 1 19 40
M  V30 45 1 22 41
M  V30 46 1 22 42
M  V30 47 1 25 43
M  V30 48 1 25 44
M  V30 49 1 28 45
M  V30 END BOND
M  V30 END CTAB
M  END
