
     RDKit          3D

  0  0  0  0  0  0  0  0  0  0999 V3000
M  V30 BEGIN CTAB
M  V30 COUNTS 48 50 0 0 0
M  V30 BEGIN ATOM
M  V30 1 N 3.11538 3.80611 0.0104027 0
M  V30 2 C 3.49352 2.44326 -0.172757 0
M  V30 3 N 2.70665 1.54531 -0.779674 0
M  V30 4 C 3.07216 0.246566 -0.951652 0
M  V30 5 S 1.92505 -0.847582 -1.77979 0
M  V30 6 C 0.796315 -1.63245 -0.582283 0
M  V30 7 C -0.0949458 -0.669454 0.0471143 0
M  V30 8 O 0.512482 0.201698 0.793816 0
M  V30 9 N -1.50268 -0.557494 -0.0456954 0
M  V30 10 C -2.17299 0.580473 0.6653 0
M  V30 11 C -1.90095 0.436856 2.09467 0
M  V30 12 C -1.53535 1.70256 2.76972 0
M  V30 13 S -1.70543 2.93966 1.50802 0
M  V30 14 O -3.01806 3.67195 1.65546 0
M  V30 15 O -0.551383 3.88712 1.48286 0
M  V30 16 C -1.73778 1.87379 0.0878935 0
M  V30 17 C -2.39791 -1.45175 -0.726169 0
M  V30 18 C -2.11262 -1.66309 -2.17041 0
M  V30 19 C -2.31788 -3.15159 -2.46045 0
M  V30 20 C -3.04476 -3.67453 -1.24931 0
M  V30 21 C -2.45498 -2.84372 -0.132468 0
M  V30 22 N 4.26012 -0.123816 -0.491991 0
M  V30 23 C 5.10566 0.732356 0.131393 0
M  V30 24 C 4.73413 2.05208 0.306139 0
M  V30 25 N 6.34115 0.244892 0.582068 0
M  V30 26 H 3.82494 4.57965 -0.00891565 0
M  V30 27 H 2.131 4.11457 0.171816 0
M  V30 28 H 1.48167 -2.01098 0.238358 0
M  V30 29 H 0.378828 -2.51812 -1.03681 0
M  V30 30 H -3.28293 0.500475 0.469875 0
M  V30 31 H -2.87826 0.098289 2.58914 0
M  V30 32 H -1.21814 -0.41289 2.34236 0
M  V30 33 H -2.16238 1.9446 3.65388 0
M  V30 34 H -0.459612 1.64573 3.10087 0
M  V30 35 H -0.731275 1.90562 -0.358955 0
M  V30 36 H -2.50783 2.29311 -0.607346 0
M  V30 37 H -3.43992 -1.01444 -0.622389 0
M  V30 38 H -2.82257 -1.07468 -2.81452 0
M  V30 39 H -1.11028 -1.37336 -2.47937 0
M  V30 40 H -2.85923 -3.30782 -3.39967 0
M  V30 41 H -1.336 -3.66458 -2.54132 0
M  V30 42 H -4.13571 -3.47593 -1.2912 0
M  V30 43 H -2.84817 -4.76403 -1.11351 0
M  V30 44 H -1.46238 -3.21487 0.0898912 0
M  V30 45 H -3.12879 -2.84599 0.761463 0
M  V30 46 H 5.38398 2.76814 0.800539 0
M  V30 47 H 6.92937 -0.312321 -0.0742443 0
M  V30 48 H 6.73881 0.390615 1.53786 0
M  V30 END ATOM
M  V30 BEGIN BOND
M  V30 1 1 1 2
M  V30 2 2 2 3
M  V30 3 1 3 4
M  V30 4 1 4 5
M  V30 5 1 5 6
M  V30 6 1 6 7
M  V30 7 2 7 8
M  V30 8 1 7 9
M  V30 9 1 9 10
M  V30 10 1 10 11
M  V30 11 1 11 12
M  V30 12 1 12 13
M  V30 13 2 13 14
M  V30 14 2 13 15
M  V30 15 1 13 16
M  V30 16 1 9 17
M  V30 17 1 17 18
M  V30 18 1 18 19
M  V30 19 1 19 20
M  V30 20 1 20 21
M  V30 21 2 4 22
M  V30 22 1 22 23
M  V30 23 2 23 24
M  V30 24 1 23 25
M  V30 25 1 24 2
M  V30 26 1 16 10
M  V30 27 1 21 17
M  V30 28 1 1 26
M  V30 29 1 1 27
M  V30 30 1 6 28
M  V30 31 1 6 29
M  V30 32 1 10 30
M  V30 33 1 11 31
M  V30 34 1 11 32
M  V30 35 1 12 33
M  V30 36 1 12 34
M  V30 37 1 16 35
M  V30 38 1 16 36
M  V30 39 1 17 37
M  V30 40 1 18 38
M  V30 41 1 18 39
M  V30 42 1 19 40
M  V30 43 1 19 41
M  V30 44 1 20 42
M  V30 45 1 20 43
M  V30 46 1 21 44
M  V30 47 1 21 45
M  V30 48 1 24 46
M  V30 49 1 25 47
M  V30 50 1 25 48
M  V30 END BOND
M  V30 END CTAB
M  END
