
     RDKit          3D

  0  0  0  0  0  0  0  0  0  0999 V3000
M  V30 BEGIN CTAB
M  V30 COUNTS 40 42 0 0 0
M  V30 BEGIN ATOM
M  V30 1 N -3.69803 -2.11543 -0.283751 0
M  V30 2 C -2.44793 -2.40843 0.255797 0
M  V30 3 C -1.54924 -1.20354 0.543699 0
M  V30 4 N -1.19378 -0.42186 -0.526261 0
M  V30 5 C -2.17251 0.411196 -1.16572 0
M  V30 6 C -2.37883 1.73615 -0.447223 0
M  V30 7 C -1.06682 2.26277 -0.00402675 0
M  V30 8 C 0.1014 1.55603 -0.125439 0
M  V30 9 C 0.0652566 0.187771 -0.710261 0 CFG=1
M  V30 10 C 1.27821 -0.572749 -0.424194 0
M  V30 11 C 1.75093 -0.914648 0.827982 0
M  V30 12 C 2.91029 -1.6447 1.02037 0
M  V30 13 C 3.66273 -2.07277 -0.054422 0
M  V30 14 N 3.21454 -1.74771 -1.26299 0
M  V30 15 C 2.09267 -1.04156 -1.46596 0
M  V30 16 N 4.85327 -2.81252 0.07611 0
M  V30 17 C 1.27584 2.09906 0.297749 0
M  V30 18 C 1.29758 3.38358 0.860448 0
M  V30 19 C 0.126282 4.09319 0.983344 0
M  V30 20 C -1.0644 3.54891 0.556483 0
M  V30 21 H -4.47914 -1.97422 0.350903 0
M  V30 22 H -3.94735 -2.49611 -1.17872 0
M  V30 23 H -2.59231 -2.99866 1.19993 0
M  V30 24 H -1.92474 -3.09745 -0.466714 0
M  V30 25 H -0.761162 -1.59788 1.21589 0
M  V30 26 H -2.19788 -0.596459 1.27737 0
M  V30 27 H -1.68061 0.722199 -2.15101 0
M  V30 28 H -3.11001 -0.0334843 -1.44886 0
M  V30 29 H -3.13725 1.70368 0.33879 0
M  V30 30 H -2.80142 2.43767 -1.22927 0
M  V30 31 H 0.101709 0.402936 -1.83603 0
M  V30 32 H 1.2287 -0.600332 1.69756 0
M  V30 33 H 3.28251 -1.91414 2.00551 0
M  V30 34 H 1.79244 -0.817772 -2.47688 0
M  V30 35 H 4.93817 -3.47848 0.862203 0
M  V30 36 H 5.61404 -2.65933 -0.630739 0
M  V30 37 H 2.24075 1.61673 0.233041 0
M  V30 38 H 2.21684 3.82986 1.20112 0
M  V30 39 H 0.11985 5.10037 1.42136 0
M  V30 40 H -1.96058 4.12813 0.662838 0
M  V30 END ATOM
M  V30 BEGIN BOND
M  V30 1 1 1 2
M  V30 2 1 2 3
M  V30 3 1 3 4
M  V30 4 1 4 5
M  V30 5 1 5 6
M  V30 6 1 6 7
M  V30 7 2 7 8
M  V30 8 1 8 9
M  V30 9 1 9 10
M  V30 10 2 10 11
M  V30 11 1 11 12
M  V30 12 2 12 13
M  V30 13 1 13 14
M  V30 14 2 14 15
M  V30 15 1 13 16
M  V30 16 1 8 17
M  V30 17 2 17 18
M  V30 18 1 18 19
M  V30 19 2 19 20
M  V30 20 1 9 4
M  V30 21 1 15 10
M  V30 22 1 20 7
M  V30 23 1 1 21
M  V30 24 1 1 22
M  V30 25 1 2 23
M  V30 26 1 2 24
M  V30 27 1 3 25
M  V30 28 1 3 26
M  V30 29 1 5 27
M  V30 30 1 5 28
M  V30 31 1 6 29
M  V30 32 1 6 30
M  V30 33 1 9 31 CFG=3
M  V30 34 1 11 32
M  V30 35 1 12 33
M  V30 36 1 15 34
M  V30 37 1 16 35
M  V30 38 1 16 36
M  V30 39 1 17 37
M  V30 40 1 18 38
M  V30 41 1 19 39
M  V30 42 1 20 40
M  V30 END BOND
M  V30 END CTAB
M  END
