
     RDKit          3D

  0  0  0  0  0  0  0  0  0  0999 V3000
M  V30 BEGIN CTAB
M  V30 COUNTS 38 40 0 0 0
M  V30 BEGIN ATOM
M  V30 1 C -0.874971 2.06687 0.417237 0
M  V30 2 C -1.25414 0.682582 0.152814 0
M  V30 3 C -0.314969 -0.350288 -0.0729054 0
M  V30 4 C 1.093 0.0701102 -0.000679586 0
M  V30 5 N 2.04297 -0.962362 -0.237309 0
M  V30 6 C 3.44714 -0.654176 -0.183945 0
M  V30 7 C 4.42275 -1.60097 -0.402276 0
M  V30 8 C 5.76746 -1.30375 -0.350574 0
M  V30 9 Br 7.03539 -2.70227 -0.671542 0
M  V30 10 C 6.1463 -0.0279057 -0.0736412 0
M  V30 11 C 5.20768 0.950368 0.151262 0
M  V30 12 C 3.87341 0.621278 0.0924299 0
M  V30 13 C -0.667415 -1.6338 -0.327277 0
M  V30 14 C -2.01235 -1.99562 -0.377224 0
M  V30 15 C -2.94876 -1.03869 -0.166443 0
M  V30 16 C -2.58361 0.263128 0.0913518 0
M  V30 17 C -3.58652 1.15299 0.29178 0
M  V30 18 N -3.37645 2.49897 0.565935 0
M  V30 19 N -4.89511 0.749702 0.234613 0
M  V30 20 C -5.24014 -0.520844 -0.0174895 0
M  V30 21 N -6.58718 -0.942051 -0.0776613 0
M  V30 22 N -4.25512 -1.40599 -0.216344 0
M  V30 23 H -1.0611 2.79627 -0.398936 0
M  V30 24 H -0.987445 2.43672 1.44521 0
M  V30 25 H 0.267089 2.07873 0.365563 0
M  V30 26 H 1.30223 0.854148 -0.796761 0
M  V30 27 H 1.28049 0.54431 1.02389 0
M  V30 28 H 1.79921 -1.92149 -0.446291 0
M  V30 29 H 4.09831 -2.61147 -0.621365 0
M  V30 30 H 7.209 0.187333 -0.0370956 0
M  V30 31 H 5.57546 1.94837 0.367162 0
M  V30 32 H 3.15812 1.4127 0.273873 0
M  V30 33 H 0.0291423 -2.44774 -0.504269 0
M  V30 34 H -2.27638 -3.02312 -0.581305 0
M  V30 35 H -3.33082 3.21679 -0.182551 0
M  V30 36 H -3.27316 2.82241 1.54821 0
M  V30 37 H -7.17887 -1.15844 0.742957 0
M  V30 38 H -7.05065 -1.05277 -1.02041 0
M  V30 END ATOM
M  V30 BEGIN BOND
M  V30 1 1 1 2
M  V30 2 2 2 3
M  V30 3 1 3 4
M  V30 4 1 4 5
M  V30 5 1 5 6
M  V30 6 2 6 7
M  V30 7 1 7 8
M  V30 8 1 8 9
M  V30 9 2 8 10
M  V30 10 1 10 11
M  V30 11 2 11 12
M  V30 12 1 3 13
M  V30 13 2 13 14
M  V30 14 1 14 15
M  V30 15 2 15 16
M  V30 16 1 16 17
M  V30 17 1 17 18
M  V30 18 2 17 19
M  V30 19 1 19 20
M  V30 20 1 20 21
M  V30 21 2 20 22
M  V30 22 1 16 2
M  V30 23 1 12 6
M  V30 24 1 22 15
M  V30 25 1 1 23
M  V30 26 1 1 24
M  V30 27 1 1 25
M  V30 28 1 4 26
M  V30 29 1 4 27
M  V30 30 1 5 28
M  V30 31 1 7 29
M  V30 32 1 10 30
M  V30 33 1 11 31
M  V30 34 1 12 32
M  V30 35 1 13 33
M  V30 36 1 14 34
M  V30 37 1 18 35
M  V30 38 1 18 36
M  V30 39 1 21 37
M  V30 40 1 21 38
M  V30 END BOND
M  V30 END CTAB
M  END
