
     RDKit          3D

 38 40  0  0  0  0  0  0  0  0999 V2000
    0.3960   -2.9141    3.5698 N   0  0  0  0  0  0  0  0  0  0  0  0
    0.1212   -2.1253    2.4474 C   0  0  0  0  0  0  0  0  0  0  0  0
    0.6335   -0.8311    2.3536 C   0  0  0  0  0  0  0  0  0  0  0  0
    0.4641   -0.0766    1.1868 C   0  0  0  0  0  0  0  0  0  0  0  0
   -0.4729   -2.6899    1.3183 C   0  0  0  0  0  0  0  0  0  0  0  0
   -0.6440   -1.9406    0.1484 C   0  0  0  0  0  0  0  0  0  0  0  0
   -0.1854   -0.6163    0.0650 C   0  0  0  0  0  0  0  0  0  0  0  0
   -0.3592    0.1596   -1.1393 N   0  0  0  0  0  0  0  0  0  0  0  0
   -0.7178    1.5549   -1.0535 C   0  0  0  0  0  0  0  0  0  0  0  0
   -0.1324    2.5068   -1.9037 C   0  0  0  0  0  0  0  0  0  0  0  0
   -0.4797    3.8601   -1.8180 C   0  0  0  0  0  0  0  0  0  0  0  0
   -1.4509    4.2920   -0.9144 C   0  0  0  0  0  0  0  0  0  0  0  0
   -1.7074    5.6578   -0.7523 N   0  0  0  0  0  0  0  0  0  0  0  0
   -1.9942    3.3632   -0.0264 C   0  0  0  0  0  0  0  0  0  0  0  0
   -1.6496    2.0088   -0.1065 C   0  0  0  0  0  0  0  0  0  0  0  0
   -0.1663   -0.4576   -2.4306 C   0  0  0  0  0  0  0  0  0  0  0  0
    0.8829   -1.3682   -2.6490 C   0  0  0  0  0  0  0  0  0  0  0  0
    1.0696   -1.9646   -3.8989 C   0  0  0  0  0  0  0  0  0  0  0  0
    0.2099   -1.6615   -4.9519 C   0  0  0  0  0  0  0  0  0  0  0  0
   -0.8358   -0.7624   -4.7573 C   0  0  0  0  0  0  0  0  0  0  0  0
   -1.0220   -0.1652   -3.5077 C   0  0  0  0  0  0  0  0  0  0  0  0
   -0.2500   -3.6868    3.6957 H   0  0  0  0  0  0  0  0  0  0  0  0
    0.5297   -2.3801    4.4227 H   0  0  0  0  0  0  0  0  0  0  0  0
    1.1741   -0.3931    3.1881 H   0  0  0  0  0  0  0  0  0  0  0  0
    0.8737    0.9301    1.1501 H   0  0  0  0  0  0  0  0  0  0  0  0
   -0.8150   -3.7211    1.3363 H   0  0  0  0  0  0  0  0  0  0  0  0
   -1.1451   -2.4013   -0.6995 H   0  0  0  0  0  0  0  0  0  0  0  0
    0.6265    2.2054   -2.6217 H   0  0  0  0  0  0  0  0  0  0  0  0
    0.0219    4.5731   -2.4666 H   0  0  0  0  0  0  0  0  0  0  0  0
   -1.5423    6.2077   -1.5893 H   0  0  0  0  0  0  0  0  0  0  0  0
   -2.6087    5.8583   -0.3306 H   0  0  0  0  0  0  0  0  0  0  0  0
   -2.6977    3.6818    0.7379 H   0  0  0  0  0  0  0  0  0  0  0  0
   -2.1219    1.3077    0.5772 H   0  0  0  0  0  0  0  0  0  0  0  0
    1.5766   -1.6056   -1.8456 H   0  0  0  0  0  0  0  0  0  0  0  0
    1.8893   -2.6626   -4.0477 H   0  0  0  0  0  0  0  0  0  0  0  0
    0.3551   -2.1258   -5.9238 H   0  0  0  0  0  0  0  0  0  0  0  0
   -1.5109   -0.5265   -5.5757 H   0  0  0  0  0  0  0  0  0  0  0  0
   -1.8553    0.5204   -3.3728 H   0  0  0  0  0  0  0  0  0  0  0  0
  1  2  1  0
  2  3  2  0
  3  4  1  0
  2  5  1  0
  5  6  2  0
  6  7  1  0
  7  8  1  0
  8  9  1  0
  9 10  2  0
 10 11  1  0
 11 12  2  0
 12 13  1  0
 12 14  1  0
 14 15  2  0
  8 16  1  0
 16 17  2  0
 17 18  1  0
 18 19  2  0
 19 20  1  0
 20 21  2  0
  7  4  2  0
 15  9  1  0
 21 16  1  0
  1 22  1  0
  1 23  1  0
  3 24  1  0
  4 25  1  0
  5 26  1  0
  6 27  1  0
 10 28  1  0
 11 29  1  0
 13 30  1  0
 13 31  1  0
 14 32  1  0
 15 33  1  0
 17 34  1  0
 18 35  1  0
 19 36  1  0
 20 37  1  0
 21 38  1  0
M  END
