
     RDKit          3D

  0  0  0  0  0  0  0  0  0  0999 V3000
M  V30 BEGIN CTAB
M  V30 COUNTS 35 37 0 0 0
M  V30 BEGIN ATOM
M  V30 1 N 5.17345 1.13215 -1.00374 0
M  V30 2 C 3.8763 0.63918 -0.691046 0
M  V30 3 N 3.7621 -0.586617 -0.162135 0
M  V30 4 C 2.56181 -1.0925 0.147295 0
M  V30 5 C 2.45864 -2.34778 0.708073 0
M  V30 6 C 1.24599 -2.87828 1.04756 0
M  V30 7 C 0.133323 -2.14494 0.821009 0
M  V30 8 C 0.188186 -0.857518 0.248972 0
M  V30 9 N -1.06457 -0.259006 -0.000805971 0
M  V30 10 C -1.69519 -0.474662 -1.26797 0
M  V30 11 C -2.86994 0.375883 -1.59108 0
M  V30 12 C -3.71103 0.654307 -0.364965 0
M  V30 13 C -2.88651 1.2875 0.701017 0
M  V30 14 C -1.71334 0.450955 1.05464 0
M  V30 15 C 1.39579 -0.329448 -0.0849805 0
M  V30 16 C 1.53642 0.915399 -0.621638 0
M  V30 17 N 0.464174 1.81527 -0.862764 0
M  V30 18 N 2.79475 1.38759 -0.922001 0
M  V30 19 H 5.74438 0.652016 -1.73105 0
M  V30 20 H 5.60782 1.96183 -0.546256 0
M  V30 21 H 3.39519 -2.89332 0.865751 0
M  V30 22 H 1.19772 -3.8922 1.49887 0
M  V30 23 H -0.835136 -2.52966 1.07508 0
M  V30 24 H -2.12027 -1.55129 -1.25392 0
M  V30 25 H -0.929755 -0.458952 -2.06556 0
M  V30 26 H -3.51273 -0.154382 -2.3212 0
M  V30 27 H -2.58927 1.34159 -2.09952 0
M  V30 28 H -4.11755 -0.292159 0.00618593 0
M  V30 29 H -4.55841 1.29879 -0.675079 0
M  V30 30 H -3.50734 1.43626 1.60868 0
M  V30 31 H -2.50259 2.27849 0.327839 0
M  V30 32 H -2.0861 -0.29596 1.84022 0
M  V30 33 H -0.96632 1.04343 1.66915 0
M  V30 34 H 0.149786 2.45901 -0.0964316 0
M  V30 35 H -0.0197954 1.90903 -1.76538 0
M  V30 END ATOM
M  V30 BEGIN BOND
M  V30 1 1 1 2
M  V30 2 2 2 3
M  V30 3 1 3 4
M  V30 4 2 4 5
M  V30 5 1 5 6
M  V30 6 2 6 7
M  V30 7 1 7 8
M  V30 8 1 8 9
M  V30 9 1 9 10
M  V30 10 1 10 11
M  V30 11 1 11 12
M  V30 12 1 12 13
M  V30 13 1 13 14
M  V30 14 2 8 15
M  V30 15 1 15 16
M  V30 16 1 16 17
M  V30 17 2 16 18
M  V30 18 1 18 2
M  V30 19 1 15 4
M  V30 20 1 14 9
M  V30 21 1 1 19
M  V30 22 1 1 20
M  V30 23 1 5 21
M  V30 24 1 6 22
M  V30 25 1 7 23
M  V30 26 1 10 24
M  V30 27 1 10 25
M  V30 28 1 11 26
M  V30 29 1 11 27
M  V30 30 1 12 28
M  V30 31 1 12 29
M  V30 32 1 13 30
M  V30 33 1 13 31
M  V30 34 1 14 32
M  V30 35 1 14 33
M  V30 36 1 17 34
M  V30 37 1 17 35
M  V30 END BOND
M  V30 END CTAB
M  END
