
     RDKit          3D

  0  0  0  0  0  0  0  0  0  0999 V3000
M  V30 BEGIN CTAB
M  V30 COUNTS 29 29 0 0 0
M  V30 BEGIN ATOM
M  V30 1 N 4.02408 -0.67293 1.78161 0
M  V30 2 C 2.67907 -0.581611 1.24274 0
M  V30 3 C 2.72752 0.252739 -0.0281806 0
M  V30 4 C 1.38342 0.406054 -0.660324 0
M  V30 5 N 0.795305 -0.86888 -1.03141 0
M  V30 6 S -0.749764 -0.632524 -1.75416 0
M  V30 7 O -1.24719 -2.00045 -2.18127 0
M  V30 8 O -0.596453 0.22269 -2.97761 0
M  V30 9 C -1.87719 0.129684 -0.660368 0
M  V30 10 C -2.49266 1.34686 -0.910728 0
M  V30 11 C -3.37691 1.90956 -0.0158419 0
M  V30 12 Cl -4.16001 3.44017 -0.315344 0
M  V30 13 C -3.65439 1.24489 1.15487 0
M  V30 14 N -3.07502 0.083275 1.4073 0
M  V30 15 C -2.19838 -0.489657 0.536063 0
M  V30 16 N -1.62415 -1.7333 0.883928 0
M  V30 17 H 4.66304 -1.22405 1.17895 0
M  V30 18 H 4.42866 0.275481 1.89542 0
M  V30 19 H 2.37069 -1.60227 0.986922 0
M  V30 20 H 2.00924 -0.162735 1.99056 0
M  V30 21 H 3.40002 -0.219439 -0.769162 0
M  V30 22 H 3.11083 1.26784 0.201225 0
M  V30 23 H 0.671198 0.962237 -0.0176854 0
M  V30 24 H 1.50898 1.0143 -1.57954 0
M  V30 25 H 0.722375 -1.5012 -0.204555 0
M  V30 26 H -2.25486 1.83696 -1.82995 0
M  V30 27 H -4.35033 1.66944 1.87863 0
M  V30 28 H -1.02078 -1.81481 1.71354 0
M  V30 29 H -1.81634 -2.5583 0.297339 0
M  V30 END ATOM
M  V30 BEGIN BOND
M  V30 1 1 1 2
M  V30 2 1 2 3
M  V30 3 1 3 4
M  V30 4 1 4 5
M  V30 5 1 5 6
M  V30 6 2 6 7
M  V30 7 2 6 8
M  V30 8 1 6 9
M  V30 9 2 9 10
M  V30 10 1 10 11
M  V30 11 1 11 12
M  V30 12 2 11 13
M  V30 13 1 13 14
M  V30 14 2 14 15
M  V30 15 1 15 16
M  V30 16 1 15 9
M  V30 17 1 1 17
M  V30 18 1 1 18
M  V30 19 1 2 19
M  V30 20 1 2 20
M  V30 21 1 3 21
M  V30 22 1 3 22
M  V30 23 1 4 23
M  V30 24 1 4 24
M  V30 25 1 5 25
M  V30 26 1 10 26
M  V30 27 1 13 27
M  V30 28 1 16 28
M  V30 29 1 16 29
M  V30 END BOND
M  V30 END CTAB
M  END
