
     RDKit          3D

  0  0  0  0  0  0  0  0  0  0999 V3000
M  V30 BEGIN CTAB
M  V30 COUNTS 27 28 0 0 0
M  V30 BEGIN ATOM
M  V30 1 N 1.67703 -0.720207 1.41011 0
M  V30 2 N 1.7618 -0.230166 0.11703 0
M  V30 3 C 2.93799 0.0111798 -0.501049 0
M  V30 4 N 4.25315 -0.126434 0.00547233 0
M  V30 5 N 2.56803 0.457793 -1.72475 0
M  V30 6 N 1.26577 0.485747 -1.83601 0
M  V30 7 C 0.717837 0.0581028 -0.683173 0
M  V30 8 C -0.705119 -0.00189014 -0.39261 0
M  V30 9 C -1.50968 0.276424 -1.67831 0
M  V30 10 C -1.28357 -1.16119 0.27079 0
M  V30 11 N -2.59551 -0.680661 0.744849 0
M  V30 12 C -2.49776 0.753109 0.908312 0
M  V30 13 C -1.10816 1.16402 0.540833 0
M  V30 14 H 1.54802 -1.74871 1.54792 0
M  V30 15 H 1.73072 -0.12066 2.24636 0
M  V30 16 H 4.54498 -0.966145 0.511115 0
M  V30 17 H 4.91412 0.646575 -0.15624 0
M  V30 18 H -2.58387 0.24736 -1.40347 0
M  V30 19 H -1.27116 1.23849 -2.10395 0
M  V30 20 H -1.33646 -0.578806 -2.33592 0
M  V30 21 H -0.775236 -1.55993 1.17129 0
M  V30 22 H -1.44647 -2.0478 -0.392746 0
M  V30 23 H -3.36631 -0.963351 0.112673 0
M  V30 24 H -2.75693 1.02326 1.97757 0
M  V30 25 H -3.20542 1.31347 0.238699 0
M  V30 26 H -1.06137 2.12282 -0.000374064 0
M  V30 27 H -0.416393 1.10759 1.40557 0
M  V30 END ATOM
M  V30 BEGIN BOND
M  V30 1 1 1 2
M  V30 2 1 2 3
M  V30 3 1 3 4
M  V30 4 2 3 5
M  V30 5 1 5 6
M  V30 6 2 6 7
M  V30 7 1 7 8
M  V30 8 1 8 9
M  V30 9 1 8 10
M  V30 10 1 10 11
M  V30 11 1 11 12
M  V30 12 1 12 13
M  V30 13 1 7 2
M  V30 14 1 13 8
M  V30 15 1 1 14
M  V30 16 1 1 15
M  V30 17 1 4 16
M  V30 18 1 4 17
M  V30 19 1 9 18
M  V30 20 1 9 19
M  V30 21 1 9 20
M  V30 22 1 10 21
M  V30 23 1 10 22
M  V30 24 1 11 23
M  V30 25 1 12 24
M  V30 26 1 12 25
M  V30 27 1 13 26
M  V30 28 1 13 27
M  V30 END BOND
M  V30 END CTAB
M  END
