
     RDKit          3D

  0  0  0  0  0  0  0  0  0  0999 V3000
M  V30 BEGIN CTAB
M  V30 COUNTS 28 28 0 0 0
M  V30 BEGIN ATOM
M  V30 1 N 2.52096 0.099901 1.32465 0
M  V30 2 N 2.63624 -0.376289 0.0472043 0
M  V30 3 C 1.7036 -0.607766 -0.779782 0
M  V30 4 N 0.323949 -0.420898 -0.556566 0
M  V30 5 C -0.481442 -1.5414 -0.146154 0
M  V30 6 C -1.29562 -1.27709 1.08442 0
M  V30 7 C -1.91771 0.076461 1.14231 0
M  V30 8 C -1.12645 1.18402 0.536424 0
M  V30 9 C -0.376345 0.827276 -0.706012 0
M  V30 10 C 0.551987 1.9673 -1.05116 0
M  V30 11 O -3.20966 0.0446459 0.601872 0
M  V30 12 N 2.08228 -1.11112 -2.07652 0
M  V30 13 H 2.45976 -0.539474 2.14218 0
M  V30 14 H 2.49201 1.12301 1.50431 0
M  V30 15 H -1.19909 -1.74338 -0.98294 0
M  V30 16 H 0.0987503 -2.46314 0.024775 0
M  V30 17 H -0.6498 -1.50558 1.96179 0
M  V30 18 H -2.11227 -2.0364 1.10395 0
M  V30 19 H -2.05544 0.325855 2.21768 0
M  V30 20 H -1.82237 2.0116 0.281231 0
M  V30 21 H -0.394577 1.62189 1.25839 0
M  V30 22 H -1.09449 0.712474 -1.54105 0
M  V30 23 H 0.954005 2.36933 -0.103816 0
M  V30 24 H 1.32083 1.64266 -1.75557 0
M  V30 25 H -0.0471793 2.76758 -1.51209 0
M  V30 26 H -3.81249 -0.542194 1.12616 0
M  V30 27 H 1.43546 -1.69913 -2.64675 0
M  V30 28 H 3.01511 -0.910153 -2.49896 0
M  V30 END ATOM
M  V30 BEGIN BOND
M  V30 1 1 1 2
M  V30 2 2 2 3 CFG=2
M  V30 3 1 3 4
M  V30 4 1 4 5
M  V30 5 1 5 6
M  V30 6 1 6 7
M  V30 7 1 7 8
M  V30 8 1 8 9
M  V30 9 1 9 10
M  V30 10 1 7 11
M  V30 11 1 3 12
M  V30 12 1 9 4
M  V30 13 1 1 13
M  V30 14 1 1 14
M  V30 15 1 5 15
M  V30 16 1 5 16
M  V30 17 1 6 17
M  V30 18 1 6 18
M  V30 19 1 7 19
M  V30 20 1 8 20
M  V30 21 1 8 21
M  V30 22 1 9 22
M  V30 23 1 10 23
M  V30 24 1 10 24
M  V30 25 1 10 25
M  V30 26 1 11 26
M  V30 27 1 12 27
M  V30 28 1 12 28
M  V30 END BOND
M  V30 END CTAB
M  END
