
     RDKit          3D

  0  0  0  0  0  0  0  0  0  0999 V3000
M  V30 BEGIN CTAB
M  V30 COUNTS 38 41 0 0 0
M  V30 BEGIN ATOM
M  V30 1 C -4.62832 0.780715 -0.584004 0
M  V30 2 C -3.89663 -0.522857 -0.565156 0
M  V30 3 C -3.81541 -1.1749 -1.92659 0
M  V30 4 N -2.52038 -0.280549 -0.127978 0
M  V30 5 N -1.4338 -0.230342 -0.86439 0
M  V30 6 C -0.35479 0.0164334 -0.0762407 0
M  V30 7 C -0.830684 0.120325 1.19769 0
M  V30 8 C -0.30113 0.374927 2.45838 0
M  V30 9 N 1.10078 0.619703 2.53759 0
M  V30 10 N -1.08667 0.419745 3.52354 0
M  V30 11 C -2.40266 0.229759 3.45584 0
M  V30 12 N -2.98933 -0.0179019 2.27928 0
M  V30 13 C -2.22301 -0.0698759 1.18041 0
M  V30 14 C 0.996223 0.165431 -0.558584 0
M  V30 15 C 2.02316 -0.631569 -0.124209 0
M  V30 16 C 3.31423 -0.467866 -0.571991 0
M  V30 17 C 3.62598 0.514253 -1.48495 0
M  V30 18 C 2.59369 1.30946 -1.91771 0
M  V30 19 C 1.31092 1.16501 -1.48781 0
M  V30 20 N 4.94499 0.431055 -1.72859 0
M  V30 21 C 5.45467 -0.587161 -0.980759 0
M  V30 22 N 6.78804 -1.03626 -0.915373 0
M  V30 23 O 4.45117 -1.08832 -0.313438 0
M  V30 24 H -5.68259 0.670106 -0.200611 0
M  V30 25 H -4.1283 1.46923 0.12728 0
M  V30 26 H -4.68259 1.2542 -1.58611 0
M  V30 27 H -4.40228 -1.21484 0.150825 0
M  V30 28 H -3.1293 -2.04715 -1.82475 0
M  V30 29 H -4.79222 -1.49685 -2.30891 0
M  V30 30 H -3.29095 -0.464646 -2.60516 0
M  V30 31 H 1.7974 -0.012354 2.96821 0
M  V30 32 H 1.44616 1.51117 2.12563 0
M  V30 33 H -3.01941 0.274951 4.36834 0
M  V30 34 H 1.85928 -1.45325 0.589095 0
M  V30 35 H 2.84118 2.08953 -2.64332 0
M  V30 36 H 0.498356 1.79408 -1.83114 0
M  V30 37 H 7.02721 -1.99054 -1.23089 0
M  V30 38 H 7.53699 -0.422853 -0.554414 0
M  V30 END ATOM
M  V30 BEGIN BOND
M  V30 1 1 1 2
M  V30 2 1 2 3
M  V30 3 1 2 4
M  V30 4 1 4 5
M  V30 5 2 5 6
M  V30 6 1 6 7
M  V30 7 2 7 8
M  V30 8 1 8 9
M  V30 9 1 8 10
M  V30 10 2 10 11
M  V30 11 1 11 12
M  V30 12 2 12 13
M  V30 13 1 6 14
M  V30 14 2 14 15
M  V30 15 1 15 16
M  V30 16 2 16 17
M  V30 17 1 17 18
M  V30 18 2 18 19
M  V30 19 1 17 20
M  V30 20 2 20 21
M  V30 21 1 21 22
M  V30 22 1 21 23
M  V30 23 1 13 4
M  V30 24 1 19 14
M  V30 25 1 13 7
M  V30 26 1 23 16
M  V30 27 1 1 24
M  V30 28 1 1 25
M  V30 29 1 1 26
M  V30 30 1 2 27
M  V30 31 1 3 28
M  V30 32 1 3 29
M  V30 33 1 3 30
M  V30 34 1 9 31
M  V30 35 1 9 32
M  V30 36 1 11 33
M  V30 37 1 15 34
M  V30 38 1 18 35
M  V30 39 1 19 36
M  V30 40 1 22 37
M  V30 41 1 22 38
M  V30 END BOND
M  V30 END CTAB
M  END
