
     RDKit          3D

  0  0  0  0  0  0  0  0  0  0999 V3000
M  V30 BEGIN CTAB
M  V30 COUNTS 20 20 0 0 0
M  V30 BEGIN ATOM
M  V30 1 N 3.47479 -0.20292 0.786384 0
M  V30 2 N 2.44363 -0.0826506 -0.0735459 0
M  V30 3 C 1.17677 0.393694 0.365254 0
M  V30 4 O 1.01219 0.710584 1.58268 0
M  V30 5 C 0.0395471 0.528716 -0.572208 0 CFG=2
M  V30 6 C -1.20107 1.0467 0.0916828 0
M  V30 7 C -1.98874 -0.0367492 -0.578706 0 CFG=1
M  V30 8 C -0.684819 -0.73423 -0.907831 0
M  V30 9 N -2.80893 -0.7891 0.349915 0
M  V30 10 H 3.25132 -0.152964 1.7314 0
M  V30 11 H 4.31297 -0.648133 0.501192 0
M  V30 12 H 2.58292 -0.342482 -1.06585 0
M  V30 13 H 0.339959 1.06361 -1.49228 0
M  V30 14 H -1.49463 2.0801 -0.170111 0
M  V30 15 H -1.14961 0.892072 1.19197 0
M  V30 16 H -2.5434 0.3656 -1.45056 0
M  V30 17 H -0.642893 -1.01326 -1.99089 0
M  V30 18 H -0.500282 -1.5672 -0.217993 0
M  V30 19 H -3.46143 -0.1535 0.837164 0
M  V30 20 H -2.15829 -1.17769 1.08234 0
M  V30 END ATOM
M  V30 BEGIN BOND
M  V30 1 1 1 2
M  V30 2 1 2 3
M  V30 3 2 3 4
M  V30 4 1 3 5
M  V30 5 1 5 6
M  V30 6 1 6 7
M  V30 7 1 7 8
M  V30 8 1 7 9
M  V30 9 1 8 5
M  V30 10 1 1 10
M  V30 11 1 1 11
M  V30 12 1 2 12
M  V30 13 1 5 13 CFG=3
M  V30 14 1 6 14
M  V30 15 1 6 15
M  V30 16 1 7 16 CFG=3
M  V30 17 1 8 17
M  V30 18 1 8 18
M  V30 19 1 9 19
M  V30 20 1 9 20
M  V30 END BOND
M  V30 END CTAB
M  END
