
     RDKit          3D

  0  0  0  0  0  0  0  0  0  0999 V3000
M  V30 BEGIN CTAB
M  V30 COUNTS 32 34 0 0 0
M  V30 BEGIN ATOM
M  V30 1 N 1.68407 1.73291 -1.21452 0
M  V30 2 C 2.398 0.775205 -0.454343 0
M  V30 3 C 3.74723 0.955052 -0.232264 0
M  V30 4 C 4.49562 0.0550265 0.500418 0
M  V30 5 C 3.91141 -1.07132 1.04377 0
M  V30 6 C 2.56363 -1.24644 0.819618 0
M  V30 7 C 1.78764 -0.349495 0.0816247 0
M  V30 8 C 0.375429 -0.56174 -0.143181 0
M  V30 9 C -0.549108 0.247768 0.460231 0
M  V30 10 N -0.0930357 1.28655 1.31339 0
M  V30 11 C -1.91357 0.0987681 0.281987 0
M  V30 12 C -2.37179 -0.905316 -0.535702 0
M  V30 13 C -3.7342 -1.06457 -0.724616 0
M  V30 14 C -4.65874 -0.249514 -0.119968 0
M  V30 15 C -4.18479 0.753451 0.697832 0
M  V30 16 C -2.819 0.933902 0.903544 0
M  V30 17 C -1.46602 -1.75017 -1.16727 0
M  V30 18 C -0.0928832 -1.56685 -0.961938 0
M  V30 19 H 1.6346 2.70605 -0.854026 0
M  V30 20 H 1.21643 1.48642 -2.1071 0
M  V30 21 H 4.20622 1.85025 -0.665257 0
M  V30 22 H 5.56838 0.229023 0.657607 0
M  V30 23 H 4.49482 -1.7831 1.62059 0
M  V30 24 H 2.09801 -2.11474 1.23512 0
M  V30 25 H 0.439574 1.13827 2.19095 0
M  V30 26 H -0.323746 2.27693 1.01409 0
M  V30 27 H -4.07501 -1.85841 -1.3714 0
M  V30 28 H -5.73921 -0.39014 -0.281593 0
M  V30 29 H -4.91709 1.4046 1.18224 0
M  V30 30 H -2.48719 1.72826 1.54983 0
M  V30 31 H -1.81179 -2.54647 -1.81556 0
M  V30 32 H 0.616113 -2.20016 -1.43566 0
M  V30 END ATOM
M  V30 BEGIN BOND
M  V30 1 1 1 2
M  V30 2 2 2 3
M  V30 3 1 3 4
M  V30 4 2 4 5
M  V30 5 1 5 6
M  V30 6 2 6 7
M  V30 7 1 7 8
M  V30 8 2 8 9
M  V30 9 1 9 10
M  V30 10 1 9 11
M  V30 11 2 11 12
M  V30 12 1 12 13
M  V30 13 2 13 14
M  V30 14 1 14 15
M  V30 15 2 15 16
M  V30 16 1 12 17
M  V30 17 2 17 18
M  V30 18 1 7 2
M  V30 19 1 18 8
M  V30 20 1 16 11
M  V30 21 1 1 19
M  V30 22 1 1 20
M  V30 23 1 3 21
M  V30 24 1 4 22
M  V30 25 1 5 23
M  V30 26 1 6 24
M  V30 27 1 10 25
M  V30 28 1 10 26
M  V30 29 1 13 27
M  V30 30 1 14 28
M  V30 31 1 15 29
M  V30 32 1 16 30
M  V30 33 1 17 31
M  V30 34 1 18 32
M  V30 END BOND
M  V30 END CTAB
M  END
