
     RDKit          3D

  0  0  0  0  0  0  0  0  0  0999 V3000
M  V30 BEGIN CTAB
M  V30 COUNTS 32 33 0 0 0
M  V30 BEGIN ATOM
M  V30 1 S -0.0796736 0.82996 -1.49982 0
M  V30 2 C -0.00374949 0.0352088 -0.111449 0
M  V30 3 N 1.23972 -0.304516 0.465927 0
M  V30 4 C 2.54599 -0.0783739 0.0533783 0
M  V30 5 C 2.97078 0.561606 -1.07053 0
M  V30 6 C 4.33328 0.717694 -1.36134 0
M  V30 7 C 5.29331 0.228329 -0.518987 0
M  V30 8 C 4.89898 -0.423421 0.625073 0
M  V30 9 C 3.56385 -0.562713 0.886177 0
M  V30 10 Cl 3.13989 -1.40685 2.36674 0
M  V30 11 N 6.68672 0.358615 -0.765105 0
M  V30 12 N -1.1767 -0.346834 0.571869 0
M  V30 13 C -2.52678 -0.170044 0.280759 0
M  V30 14 C -3.05034 0.456867 -0.807397 0
M  V30 15 C -4.44515 0.582029 -1.00764 0
M  V30 16 C -5.33674 0.07094 -0.103151 0
M  V30 17 C -4.82056 -0.56458 1.00014 0
M  V30 18 C -3.47072 -0.687119 1.1964 0
M  V30 19 Cl -2.87123 -1.51292 2.63096 0
M  V30 20 N -6.74715 0.196572 -0.30405 0
M  V30 21 H 1.11762 -0.840046 1.40363 0
M  V30 22 H 2.27551 0.964666 -1.76557 0
M  V30 23 H 4.65692 1.22555 -2.25304 0
M  V30 24 H 5.66174 -0.814009 1.29744 0
M  V30 25 H 7.37264 -0.413173 -0.623501 0
M  V30 26 H 7.01585 1.29025 -1.10641 0
M  V30 27 H -0.922832 -0.880744 1.50175 0
M  V30 28 H -2.42727 0.881522 -1.55731 0
M  V30 29 H -4.82391 1.09325 -1.89564 0
M  V30 30 H -5.53632 -0.964155 1.70754 0
M  V30 31 H -7.32063 0.846022 0.268527 0
M  V30 32 H -7.21305 -0.369591 -1.03483 0
M  V30 END ATOM
M  V30 BEGIN BOND
M  V30 1 2 1 2
M  V30 2 1 2 3
M  V30 3 1 3 4
M  V30 4 2 4 5
M  V30 5 1 5 6
M  V30 6 2 6 7
M  V30 7 1 7 8
M  V30 8 2 8 9
M  V30 9 1 9 10
M  V30 10 1 7 11
M  V30 11 1 2 12
M  V30 12 1 12 13
M  V30 13 2 13 14
M  V30 14 1 14 15
M  V30 15 2 15 16
M  V30 16 1 16 17
M  V30 17 2 17 18
M  V30 18 1 18 19
M  V30 19 1 16 20
M  V30 20 1 9 4
M  V30 21 1 18 13
M  V30 22 1 3 21
M  V30 23 1 5 22
M  V30 24 1 6 23
M  V30 25 1 8 24
M  V30 26 1 11 25
M  V30 27 1 11 26
M  V30 28 1 12 27
M  V30 29 1 14 28
M  V30 30 1 15 29
M  V30 31 1 17 30
M  V30 32 1 20 31
M  V30 33 1 20 32
M  V30 END BOND
M  V30 END CTAB
M  END
