
     RDKit          3D

  0  0  0  0  0  0  0  0  0  0999 V3000
M  V30 BEGIN CTAB
M  V30 COUNTS 38 40 0 0 0
M  V30 BEGIN ATOM
M  V30 1 C 6.56827 1.43188 0.324131 0
M  V30 2 C 5.39371 0.531507 0.307253 0
M  V30 3 C 5.54069 -0.841423 0.138747 0
M  V30 4 C 4.47098 -1.69698 0.119421 0
M  V30 5 C 4.63684 -3.16201 -0.0610672 0
M  V30 6 C 3.21902 -1.1563 0.273855 0
M  V30 7 C 3.00345 0.196659 0.445088 0
M  V30 8 C 4.09394 1.02063 0.459263 0
M  V30 9 C 1.67447 0.766632 0.608391 0
M  V30 10 N 1.438 2.0782 0.776411 0
M  V30 11 N 0.145449 2.24918 0.891182 0
M  V30 12 C -0.412117 1.03577 0.792878 0
M  V30 13 O 0.521121 0.134987 0.620744 0
M  V30 14 S -2.18065 0.681299 0.882337 0
M  V30 15 C -2.88891 0.770055 -0.779514 0
M  V30 16 C -4.35227 0.470273 -0.660967 0
M  V30 17 N -4.83057 -0.783535 -0.756794 0
M  V30 18 C -6.14178 -1.06863 -0.652587 0
M  V30 19 N -6.59369 -2.41883 -0.762517 0
M  V30 20 N -6.9943 -0.0569355 -0.445499 0
M  V30 21 C -6.56645 1.22508 -0.341092 0
M  V30 22 N -5.25087 1.45681 -0.451965 0
M  V30 23 N -7.48861 2.2684 -0.122914 0
M  V30 24 H 6.28109 2.31519 0.959363 0
M  V30 25 H 6.78612 1.84622 -0.68346 0
M  V30 26 H 7.42781 0.942974 0.786396 0
M  V30 27 H 6.56371 -1.20766 0.021264 0
M  V30 28 H 5.54275 -3.54011 0.453444 0
M  V30 29 H 4.71479 -3.36315 -1.16042 0
M  V30 30 H 3.70413 -3.66237 0.296609 0
M  V30 31 H 2.3393 -1.78382 0.266845 0
M  V30 32 H 4.02798 2.09804 0.587783 0
M  V30 33 H -2.44726 -0.0382475 -1.38688 0
M  V30 34 H -2.75052 1.77669 -1.18971 0
M  V30 35 H -7.135 -2.67548 -1.59966 0
M  V30 36 H -6.40309 -3.14678 -0.0434458 0
M  V30 37 H -7.83192 2.83641 -0.912879 0
M  V30 38 H -7.82561 2.46937 0.831441 0
M  V30 END ATOM
M  V30 BEGIN BOND
M  V30 1 1 1 2
M  V30 2 2 2 3
M  V30 3 1 3 4
M  V30 4 1 4 5
M  V30 5 2 4 6
M  V30 6 1 6 7
M  V30 7 2 7 8
M  V30 8 1 7 9
M  V30 9 2 9 10
M  V30 10 1 10 11
M  V30 11 2 11 12
M  V30 12 1 12 13
M  V30 13 1 12 14
M  V30 14 1 14 15
M  V30 15 1 15 16
M  V30 16 2 16 17
M  V30 17 1 17 18
M  V30 18 1 18 19
M  V30 19 2 18 20
M  V30 20 1 20 21
M  V30 21 2 21 22
M  V30 22 1 21 23
M  V30 23 1 8 2
M  V30 24 1 13 9
M  V30 25 1 22 16
M  V30 26 1 1 24
M  V30 27 1 1 25
M  V30 28 1 1 26
M  V30 29 1 3 27
M  V30 30 1 5 28
M  V30 31 1 5 29
M  V30 32 1 5 30
M  V30 33 1 6 31
M  V30 34 1 8 32
M  V30 35 1 15 33
M  V30 36 1 15 34
M  V30 37 1 19 35
M  V30 38 1 19 36
M  V30 39 1 23 37
M  V30 40 1 23 38
M  V30 END BOND
M  V30 END CTAB
M  END
