
     RDKit          3D

  0  0  0  0  0  0  0  0  0  0999 V3000
M  V30 BEGIN CTAB
M  V30 COUNTS 46 48 0 0 0
M  V30 BEGIN ATOM
M  V30 1 C 3.66808 -1.34274 -2.26946 0
M  V30 2 C 3.68426 0.143414 -2.01612 0
M  V30 3 C 4.1935 0.383364 -0.658378 0
M  V30 4 N 5.51281 0.706653 -0.525667 0
M  V30 5 C 6.02829 0.909199 0.69991 0
M  V30 6 N 7.3934 1.23982 0.845267 0
M  V30 7 N 5.22204 0.787704 1.78661 0
M  V30 8 C 3.93085 0.475006 1.71039 0
M  V30 9 N 3.07057 0.343607 2.82005 0
M  V30 10 C 3.40074 0.26592 0.429654 0
M  V30 11 C 1.99673 -0.0489707 0.320144 0
M  V30 12 C 1.43631 -1.29032 0.291584 0
M  V30 13 C 0.0739552 -1.42591 0.203581 0
M  V30 14 C -0.785474 -0.32799 0.140758 0
M  V30 15 N -2.18905 -0.541538 0.0638628 0
M  V30 16 C -3.11004 0.537287 0.0762891 0
M  V30 17 C -4.53563 0.171744 0.0602397 0
M  V30 18 C -5.45674 1.19791 -0.106488 0
M  V30 19 C -6.81589 0.938713 -0.125389 0
M  V30 20 C -7.30886 -0.346001 0.0203872 0
M  V30 21 C -6.39194 -1.35281 0.185192 0
M  V30 22 C -5.01493 -1.08954 0.204137 0
M  V30 23 C -8.72883 -0.595599 -0.00329867 0
M  V30 24 N -9.86772 -0.801651 -0.0406575 0
M  V30 25 C -0.229428 0.931 0.168182 0
M  V30 26 C 1.13439 1.05479 0.255957 0
M  V30 27 H 3.97554 -1.85956 -1.34297 0
M  V30 28 H 4.52795 -1.53848 -2.99384 0
M  V30 29 H 2.725 -1.71598 -2.71665 0
M  V30 30 H 4.33329 0.656966 -2.76055 0
M  V30 31 H 2.62958 0.499649 -2.12495 0
M  V30 32 H 7.92523 0.71522 1.57126 0
M  V30 33 H 7.82857 1.96172 0.259621 0
M  V30 34 H 2.95589 1.11783 3.48751 0
M  V30 35 H 2.5505 -0.536886 2.96456 0
M  V30 36 H 2.11923 -2.14949 0.342363 0
M  V30 37 H -0.32577 -2.43796 0.184604 0
M  V30 38 H -2.52345 -1.52 -0.0075767 0
M  V30 39 H -2.95518 1.07343 1.06203 0
M  V30 40 H -2.90565 1.31449 -0.695813 0
M  V30 41 H -5.12581 2.20574 -0.223311 0
M  V30 42 H -7.54641 1.73106 -0.254815 0
M  V30 43 H -6.75613 -2.35317 0.300092 0
M  V30 44 H -4.39213 -1.95147 0.342339 0
M  V30 45 H -0.89639 1.78812 0.118749 0
M  V30 46 H 1.54473 2.0757 0.273948 0
M  V30 END ATOM
M  V30 BEGIN BOND
M  V30 1 1 1 2
M  V30 2 1 2 3
M  V30 3 2 3 4
M  V30 4 1 4 5
M  V30 5 1 5 6
M  V30 6 2 5 7
M  V30 7 1 7 8
M  V30 8 1 8 9
M  V30 9 2 8 10
M  V30 10 1 10 11
M  V30 11 2 11 12
M  V30 12 1 12 13
M  V30 13 2 13 14
M  V30 14 1 14 15
M  V30 15 1 15 16
M  V30 16 1 16 17
M  V30 17 2 17 18
M  V30 18 1 18 19
M  V30 19 2 19 20
M  V30 20 1 20 21
M  V30 21 2 21 22
M  V30 22 1 20 23
M  V30 23 3 23 24
M  V30 24 1 14 25
M  V30 25 2 25 26
M  V30 26 1 10 3
M  V30 27 1 26 11
M  V30 28 1 22 17
M  V30 29 1 1 27
M  V30 30 1 1 28
M  V30 31 1 1 29
M  V30 32 1 2 30
M  V30 33 1 2 31
M  V30 34 1 6 32
M  V30 35 1 6 33
M  V30 36 1 9 34
M  V30 37 1 9 35
M  V30 38 1 12 36
M  V30 39 1 13 37
M  V30 40 1 15 38
M  V30 41 1 16 39
M  V30 42 1 16 40
M  V30 43 1 18 41
M  V30 44 1 19 42
M  V30 45 1 21 43
M  V30 46 1 22 44
M  V30 47 1 25 45
M  V30 48 1 26 46
M  V30 END BOND
M  V30 END CTAB
M  END
