
     RDKit          3D

  0  0  0  0  0  0  0  0  0  0999 V3000
M  V30 BEGIN CTAB
M  V30 COUNTS 24 25 0 0 0
M  V30 BEGIN ATOM
M  V30 1 N -2.90562 -1.22046 -0.567918 0
M  V30 2 C -2.6679 0.193686 -0.447707 0
M  V30 3 C -2.17398 0.559561 0.928355 0
M  V30 4 C -0.771607 0.657979 0.380208 0
M  V30 5 C -1.35635 0.690935 -1.01236 0
M  V30 6 C 0.0470873 -0.600873 0.636517 0
M  V30 7 C 1.41395 -0.454255 0.0806823 0
M  V30 8 O 1.80437 -0.776528 -1.12448 0
M  V30 9 N 3.06561 -0.518116 -1.28358 0
M  V30 10 C 3.51142 -0.00389483 -0.124673 0
M  V30 11 N 2.475 0.0405671 0.744016 0
M  V30 12 N 4.84677 0.410624 0.111821 0
M  V30 13 H -3.00908 -1.71481 0.333117 0
M  V30 14 H -3.56433 -1.48685 -1.30441 0
M  V30 15 H -3.54213 0.816332 -0.796886 0
M  V30 16 H -2.30694 -0.245604 1.68217 0
M  V30 17 H -2.57241 1.55721 1.2448 0
M  V30 18 H -0.257135 1.59285 0.674394 0
M  V30 19 H -1.47136 1.69176 -1.45273 0
M  V30 20 H -0.852321 -0.0529989 -1.678 0
M  V30 21 H -0.418058 -1.45359 0.101829 0
M  V30 22 H 0.0683876 -0.796301 1.74729 0
M  V30 23 H 5.3201 0.0835267 0.971479 0
M  V30 24 H 5.3165 1.02925 -0.578816 0
M  V30 END ATOM
M  V30 BEGIN BOND
M  V30 1 1 1 2
M  V30 2 1 2 3
M  V30 3 1 3 4
M  V30 4 1 4 5
M  V30 5 1 4 6
M  V30 6 1 6 7
M  V30 7 1 7 8
M  V30 8 1 8 9
M  V30 9 2 9 10
M  V30 10 1 10 11
M  V30 11 1 10 12
M  V30 12 1 5 2
M  V30 13 2 11 7
M  V30 14 1 1 13
M  V30 15 1 1 14
M  V30 16 1 2 15
M  V30 17 1 3 16
M  V30 18 1 3 17
M  V30 19 1 4 18
M  V30 20 1 5 19
M  V30 21 1 5 20
M  V30 22 1 6 21
M  V30 23 1 6 22
M  V30 24 1 12 23
M  V30 25 1 12 24
M  V30 END BOND
M  V30 END CTAB
M  END
