
     RDKit          3D

  0  0  0  0  0  0  0  0  0  0999 V3000
M  V30 BEGIN CTAB
M  V30 COUNTS 23 23 0 0 0
M  V30 BEGIN ATOM
M  V30 1 O -3.57175 1.53058 0.941342 0
M  V30 2 N -3.41535 0.460224 0.101208 0
M  V30 3 C -2.46319 -0.384092 0.182746 0
M  V30 4 C -1.43201 -0.2636 1.21913 0
M  V30 5 C -0.060155 -0.11087 0.650469 0
M  V30 6 C 0.745968 -1.19606 0.374791 0
M  V30 7 C 2.01865 -1.05634 -0.152666 0
M  V30 8 C 2.51448 0.20639 -0.418293 0
M  V30 9 C 1.71013 1.31783 -0.144649 0
M  V30 10 C 0.458797 1.13821 0.37606 0
M  V30 11 N 3.7933 0.412516 -0.951545 0
M  V30 12 N -2.39984 -1.45278 -0.739369 0
M  V30 13 H -3.69433 2.47495 0.586985 0
M  V30 14 H -1.39157 -1.1946 1.8528 0
M  V30 15 H -1.59058 0.571672 1.90955 0
M  V30 16 H 0.356061 -2.17146 0.5828 0
M  V30 17 H 2.65754 -1.90238 -0.371852 0
M  V30 18 H 2.09159 2.31052 -0.350057 0
M  V30 19 H -0.157382 2.00562 0.584883 0
M  V30 20 H 4.29812 -0.33312 -1.47613 0
M  V30 21 H 4.27867 1.32949 -0.835402 0
M  V30 22 H -2.65843 -1.30137 -1.71282 0
M  V30 23 H -2.08873 -2.39132 -0.419223 0
M  V30 END ATOM
M  V30 BEGIN BOND
M  V30 1 1 1 2
M  V30 2 2 2 3 CFG=2
M  V30 3 1 3 4
M  V30 4 1 4 5
M  V30 5 2 5 6
M  V30 6 1 6 7
M  V30 7 2 7 8
M  V30 8 1 8 9
M  V30 9 2 9 10
M  V30 10 1 8 11
M  V30 11 1 3 12
M  V30 12 1 10 5
M  V30 13 1 1 13
M  V30 14 1 4 14
M  V30 15 1 4 15
M  V30 16 1 6 16
M  V30 17 1 7 17
M  V30 18 1 9 18
M  V30 19 1 10 19
M  V30 20 1 11 20
M  V30 21 1 11 21
M  V30 22 1 12 22
M  V30 23 1 12 23
M  V30 END BOND
M  V30 END CTAB
M  END
