
     RDKit          3D

  0  0  0  0  0  0  0  0  0  0999 V3000
M  V30 BEGIN CTAB
M  V30 COUNTS 27 27 0 0 0
M  V30 BEGIN ATOM
M  V30 1 N 3.33133 -0.311625 -0.849186 0
M  V30 2 C 2.90466 0.990198 -0.437444 0
M  V30 3 C 1.6717 0.888242 0.421261 0
M  V30 4 N 0.617518 0.291843 -0.276666 0
M  V30 5 C 0.630181 -1.07128 -0.599364 0
M  V30 6 C -0.76639 -1.6119 -0.282411 0
M  V30 7 C -1.59097 -0.386346 -0.460349 0
M  V30 8 C -0.689929 0.793802 -0.171244 0
M  V30 9 C -2.7492 -0.335683 0.514732 0
M  V30 10 N -3.52187 0.880063 0.298304 0
M  V30 11 H 3.98647 -0.227495 -1.65545 0
M  V30 12 H 3.72177 -0.821382 -0.0321586 0
M  V30 13 H 3.69768 1.53541 0.127251 0
M  V30 14 H 2.5888 1.60398 -1.33231 0
M  V30 15 H 1.91705 0.3801 1.4057 0
M  V30 16 H 1.45068 1.946 0.759762 0
M  V30 17 H 1.38899 -1.71149 -0.105792 0
M  V30 18 H 0.743492 -1.19178 -1.69983 0
M  V30 19 H -0.75366 -1.97119 0.761463 0
M  V30 20 H -1.07834 -2.4178 -0.943816 0
M  V30 21 H -1.96413 -0.346826 -1.47914 0
M  V30 22 H -0.962505 1.27559 0.766483 0
M  V30 23 H -0.856903 1.53938 -0.994229 0
M  V30 24 H -2.31346 -0.309826 1.54885 0
M  V30 25 H -3.35169 -1.24845 0.438003 0
M  V30 26 H -4.5232 0.703998 0.551465 0
M  V30 27 H -3.52809 1.13447 -0.714975 0
M  V30 END ATOM
M  V30 BEGIN BOND
M  V30 1 1 1 2
M  V30 2 1 2 3
M  V30 3 1 3 4
M  V30 4 1 4 5
M  V30 5 1 5 6
M  V30 6 1 6 7
M  V30 7 1 7 8
M  V30 8 1 7 9
M  V30 9 1 9 10
M  V30 10 1 8 4
M  V30 11 1 1 11
M  V30 12 1 1 12
M  V30 13 1 2 13
M  V30 14 1 2 14
M  V30 15 1 3 15
M  V30 16 1 3 16
M  V30 17 1 5 17
M  V30 18 1 5 18
M  V30 19 1 6 19
M  V30 20 1 6 20
M  V30 21 1 7 21
M  V30 22 1 8 22
M  V30 23 1 8 23
M  V30 24 1 9 24
M  V30 25 1 9 25
M  V30 26 1 10 26
M  V30 27 1 10 27
M  V30 END BOND
M  V30 END CTAB
M  END
