
     RDKit          3D

  0  0  0  0  0  0  0  0  0  0999 V3000
M  V30 BEGIN CTAB
M  V30 COUNTS 23 24 0 0 0
M  V30 BEGIN ATOM
M  V30 1 N -3.63021 -1.31771 0.0834894 0
M  V30 2 N -2.43831 -0.591544 -0.030528 0
M  V30 3 C -1.17974 -1.02729 0.20272 0
M  V30 4 C -0.30501 -0.0123556 -0.0227195 0
M  V30 5 N -1.07412 1.04361 -0.397497 0
M  V30 6 C -2.34753 0.683514 -0.397933 0
M  V30 7 N -3.42218 1.55225 -0.743188 0
M  V30 8 C 1.14071 0.0526332 0.0788968 0
M  V30 9 C 1.84646 1.20071 -0.199795 0
M  V30 10 C 3.2447 1.23691 -0.0936606 0
M  V30 11 C 3.94016 0.106238 0.296943 0
M  V30 12 Cl 5.69197 0.208627 0.413166 0
M  V30 13 C 3.24048 -1.04184 0.576143 0
M  V30 14 C 1.84216 -1.06794 0.467028 0
M  V30 15 H -4.47683 -0.807344 0.410647 0
M  V30 16 H -3.68816 -2.3325 -0.145937 0
M  V30 17 H -0.888344 -2.01846 0.518553 0
M  V30 18 H -4.38159 1.17664 -0.937054 0
M  V30 19 H -3.30397 2.58332 -0.817145 0
M  V30 20 H 1.29527 2.08665 -0.506372 0
M  V30 21 H 3.77459 2.1607 -0.321078 0
M  V30 22 H 3.80729 -1.91137 0.879204 0
M  V30 23 H 1.3122 -1.96343 0.686116 0
M  V30 END ATOM
M  V30 BEGIN BOND
M  V30 1 1 1 2
M  V30 2 1 2 3
M  V30 3 2 3 4
M  V30 4 1 4 5
M  V30 5 2 5 6
M  V30 6 1 6 7
M  V30 7 1 4 8
M  V30 8 2 8 9
M  V30 9 1 9 10
M  V30 10 2 10 11
M  V30 11 1 11 12
M  V30 12 1 11 13
M  V30 13 2 13 14
M  V30 14 1 6 2
M  V30 15 1 14 8
M  V30 16 1 1 15
M  V30 17 1 1 16
M  V30 18 1 3 17
M  V30 19 1 7 18
M  V30 20 1 7 19
M  V30 21 1 9 20
M  V30 22 1 10 21
M  V30 23 1 13 22
M  V30 24 1 14 23
M  V30 END BOND
M  V30 END CTAB
M  END
