
     RDKit          3D

  0  0  0  0  0  0  0  0  0  0999 V3000
M  V30 BEGIN CTAB
M  V30 COUNTS 52 54 0 0 0
M  V30 BEGIN ATOM
M  V30 1 C 8.85645 -0.640741 -0.904187 0
M  V30 2 C 7.38378 -0.387877 -0.969937 0
M  V30 3 O 6.82669 -0.799253 -2.01685 0
M  V30 4 N 6.74679 0.267667 0.102544 0
M  V30 5 C 5.33694 0.57727 0.181199 0
M  V30 6 C 4.56105 -0.690984 0.130733 0
M  V30 7 C 3.06606 -0.489456 0.21235 0
M  V30 8 C 2.62246 0.181836 1.45755 0
M  V30 9 C 1.15108 0.376214 1.53797 0
M  V30 10 C 0.524278 1.20734 0.525077 0
M  V30 11 O 1.21154 1.87198 -0.279403 0
M  V30 12 N -0.891077 1.29738 0.412242 0
M  V30 13 C -1.67122 2.07587 -0.53428 0
M  V30 14 C -2.63692 1.00298 -1.04715 0
M  V30 15 C -2.93548 0.259122 0.24247 0
M  V30 16 C -1.88359 0.622386 1.22877 0
M  V30 17 O -3.08386 -1.11761 0.029184 0
M  V30 18 C -4.3666 -1.2802 -0.531383 0
M  V30 19 C -5.15544 -0.215706 -0.168508 0
M  V30 20 C -4.32673 0.677388 0.671408 0
M  V30 21 C -6.45064 -0.169958 -0.606811 0
M  V30 22 N -7.33248 0.917596 -0.263348 0
M  V30 23 N -6.94378 -1.15997 -1.38581 0
M  V30 24 C -6.17386 -2.21515 -1.74987 0
M  V30 25 N -4.90691 -2.23205 -1.3042 0
M  V30 26 N -6.69259 -3.25642 -2.56924 0
M  V30 27 H 9.33309 -0.58405 -1.89511 0
M  V30 28 H 9.03655 -1.64227 -0.473703 0
M  V30 29 H 9.2981 0.110464 -0.204358 0
M  V30 30 H 7.34065 0.559074 0.918808 0
M  V30 31 H 5.1181 1.21733 -0.718954 0
M  V30 32 H 5.13339 1.19839 1.06647 0
M  V30 33 H 4.74612 -1.19676 -0.83608 0
M  V30 34 H 4.9143 -1.38968 0.916523 0
M  V30 35 H 2.72338 0.0683271 -0.667963 0
M  V30 36 H 2.63187 -1.5345 0.234315 0
M  V30 37 H 2.90246 -0.411934 2.37974 0
M  V30 38 H 3.13055 1.19121 1.52523 0
M  V30 39 H 0.890863 0.667607 2.58294 0
M  V30 40 H 0.682251 -0.652746 1.43845 0
M  V30 41 H -2.25754 2.82843 -0.000896851 0
M  V30 42 H -1.06058 2.46924 -1.35505 0
M  V30 43 H -2.08129 0.314486 -1.74312 0
M  V30 44 H -3.52239 1.45192 -1.50428 0
M  V30 45 H -1.45942 -0.242618 1.77455 0
M  V30 46 H -2.3026 1.38908 1.92175 0
M  V30 47 H -4.53029 1.74351 0.490406 0
M  V30 48 H -4.45782 0.393568 1.73809 0
M  V30 49 H -8.159 0.805664 0.340635 0
M  V30 50 H -7.10917 1.85804 -0.653494 0
M  V30 51 H -7.61825 -3.71691 -2.34552 0
M  V30 52 H -6.15926 -3.57454 -3.40193 0
M  V30 END ATOM
M  V30 BEGIN BOND
M  V30 1 1 1 2
M  V30 2 2 2 3
M  V30 3 1 2 4
M  V30 4 1 4 5
M  V30 5 1 5 6
M  V30 6 1 6 7
M  V30 7 1 7 8
M  V30 8 1 8 9
M  V30 9 1 9 10
M  V30 10 2 10 11
M  V30 11 1 10 12
M  V30 12 1 12 13
M  V30 13 1 13 14
M  V30 14 1 14 15
M  V30 15 1 15 16
M  V30 16 1 15 17
M  V30 17 1 17 18
M  V30 18 2 18 19
M  V30 19 1 19 20
M  V30 20 1 19 21
M  V30 21 1 21 22
M  V30 22 2 21 23
M  V30 23 1 23 24
M  V30 24 2 24 25
M  V30 25 1 24 26
M  V30 26 1 16 12
M  V30 27 1 25 18
M  V30 28 1 20 15
M  V30 29 1 1 27
M  V30 30 1 1 28
M  V30 31 1 1 29
M  V30 32 1 4 30
M  V30 33 1 5 31
M  V30 34 1 5 32
M  V30 35 1 6 33
M  V30 36 1 6 34
M  V30 37 1 7 35
M  V30 38 1 7 36
M  V30 39 1 8 37
M  V30 40 1 8 38
M  V30 41 1 9 39
M  V30 42 1 9 40
M  V30 43 1 13 41
M  V30 44 1 13 42
M  V30 45 1 14 43
M  V30 46 1 14 44
M  V30 47 1 16 45
M  V30 48 1 16 46
M  V30 49 1 20 47
M  V30 50 1 20 48
M  V30 51 1 22 49
M  V30 52 1 22 50
M  V30 53 1 26 51
M  V30 54 1 26 52
M  V30 END BOND
M  V30 END CTAB
M  END
