
     RDKit          3D

  0  0  0  0  0  0  0  0  0  0999 V3000
M  V30 BEGIN CTAB
M  V30 COUNTS 44 45 0 0 0
M  V30 BEGIN ATOM
M  V30 1 N 6.65051 1.45716 -0.318792 0
M  V30 2 C 5.42093 0.701136 -0.399451 0
M  V30 3 N 5.03849 -0.0854429 0.608326 0
M  V30 4 C 3.89239 -0.810332 0.565913 0
M  V30 5 N 3.54546 -1.62177 1.65439 0
M  V30 6 C 3.07703 -0.755171 -0.535069 0
M  V30 7 C 1.84742 -1.51766 -0.614174 0
M  V30 8 C 0.673334 -1.02787 0.142537 0
M  V30 9 C 0.209198 0.348003 -0.254175 0
M  V30 10 N -0.956118 0.633427 0.599894 0
M  V30 11 C -0.791203 1.26641 1.85895 0
M  V30 12 O 0.388897 1.59122 2.18026 0
M  V30 13 C -1.88023 1.56285 2.79538 0
M  V30 14 F -2.86044 2.36151 2.22283 0
M  V30 15 F -2.50729 0.440215 3.30096 0
M  V30 16 F -1.36173 2.27539 3.86328 0
M  V30 17 C -2.26147 0.276042 0.181681 0
M  V30 18 C -3.03586 1.11883 -0.622016 0
M  V30 19 C -4.30217 0.73847 -1.0224 0
M  V30 20 C -4.85209 -0.468351 -0.654894 0
M  V30 21 C -4.09581 -1.30194 0.135286 0
M  V30 22 C -2.81675 -0.927473 0.544767 0
M  V30 23 C -6.2 -0.826216 -1.10283 0
M  V30 24 O -6.95445 0.0246597 -1.89485 0
M  V30 25 O -6.72216 -1.92167 -0.783407 0
M  V30 26 C 3.47651 0.0583097 -1.57201 0
M  V30 27 O 2.7711 0.150873 -2.60792 0
M  V30 28 N 4.63961 0.772134 -1.48827 0
M  V30 29 H 7.54692 0.956775 -0.399108 0
M  V30 30 H 6.56517 2.48099 -0.1827 0
M  V30 31 H 2.88544 -1.25332 2.37079 0
M  V30 32 H 3.91166 -2.58513 1.79628 0
M  V30 33 H 1.50197 -1.62813 -1.68777 0
M  V30 34 H 2.00518 -2.59356 -0.300972 0
M  V30 35 H -0.181502 -1.72276 -0.0939119 0
M  V30 36 H 0.774599 -1.07654 1.25088 0
M  V30 37 H 0.92874 1.14087 -0.0654982 0
M  V30 38 H -0.129727 0.350128 -1.30348 0
M  V30 39 H -2.59197 2.05547 -0.899386 0
M  V30 40 H -4.90563 1.38871 -1.64553 0
M  V30 41 H -4.53848 -2.24569 0.416192 0
M  V30 42 H -2.25303 -1.60574 1.16381 0
M  V30 43 H -6.50935 0.433439 -2.70705 0
M  V30 44 H 4.9569 1.39173 -2.26227 0
M  V30 END ATOM
M  V30 BEGIN BOND
M  V30 1 1 1 2
M  V30 2 2 2 3
M  V30 3 1 3 4
M  V30 4 1 4 5
M  V30 5 2 4 6
M  V30 6 1 6 7
M  V30 7 1 7 8
M  V30 8 1 8 9
M  V30 9 1 9 10
M  V30 10 1 10 11
M  V30 11 2 11 12
M  V30 12 1 11 13
M  V30 13 1 13 14
M  V30 14 1 13 15
M  V30 15 1 13 16
M  V30 16 1 10 17
M  V30 17 2 17 18
M  V30 18 1 18 19
M  V30 19 2 19 20
M  V30 20 1 20 21
M  V30 21 2 21 22
M  V30 22 1 20 23
M  V30 23 1 23 24
M  V30 24 2 23 25
M  V30 25 1 6 26
M  V30 26 2 26 27
M  V30 27 1 26 28
M  V30 28 1 28 2
M  V30 29 1 22 17
M  V30 30 1 1 29
M  V30 31 1 1 30
M  V30 32 1 5 31
M  V30 33 1 5 32
M  V30 34 1 7 33
M  V30 35 1 7 34
M  V30 36 1 8 35
M  V30 37 1 8 36
M  V30 38 1 9 37
M  V30 39 1 9 38
M  V30 40 1 18 39
M  V30 41 1 19 40
M  V30 42 1 21 41
M  V30 43 1 22 42
M  V30 44 1 24 43
M  V30 45 1 28 44
M  V30 END BOND
M  V30 END CTAB
M  END
