
     RDKit          3D

  0  0  0  0  0  0  0  0  0  0999 V3000
M  V30 BEGIN CTAB
M  V30 COUNTS 26 26 0 0 0
M  V30 BEGIN ATOM
M  V30 1 C -2.97777 -0.707172 -0.664151 0
M  V30 2 C -2.37709 -0.358973 0.704402 0
M  V30 3 C -0.951026 -0.0421697 0.464237 0
M  V30 4 C -0.622584 1.18233 -0.0633938 0
M  V30 5 C -1.63958 2.192 -0.367232 0
M  V30 6 N 0.705366 1.38868 -0.273794 0
M  V30 7 C 1.63071 0.455424 0.0159278 0
M  V30 8 N 2.98408 0.78206 -0.246936 0
M  V30 9 N 3.82278 -0.0237447 -1.01313 0
M  V30 10 N 1.32464 -0.753977 0.534735 0
M  V30 11 N 2.30409 -1.71986 0.828832 0
M  V30 12 C 0.020546 -0.999363 0.759645 0
M  V30 13 O -0.346611 -2.10252 1.24362 0
M  V30 14 H -3.73169 -1.50773 -0.526794 0
M  V30 15 H -2.17553 -1.14827 -1.29938 0
M  V30 16 H -3.34935 0.215187 -1.12322 0
M  V30 17 H -2.97665 0.437089 1.12991 0
M  V30 18 H -2.47787 -1.24444 1.38881 0
M  V30 19 H -2.49725 2.22614 0.320476 0
M  V30 20 H -1.94278 2.13879 -1.43054 0
M  V30 21 H -1.14603 3.20326 -0.241188 0
M  V30 22 H 3.34737 1.66882 0.15849 0
M  V30 23 H 3.34432 -0.451931 -1.83815 0
M  V30 24 H 4.3281 -0.676847 -0.405859 0
M  V30 25 H 2.41559 -2.61178 0.326376 0
M  V30 26 H 2.9842 -1.54101 1.6183 0
M  V30 END ATOM
M  V30 BEGIN BOND
M  V30 1 1 1 2
M  V30 2 1 2 3
M  V30 3 2 3 4
M  V30 4 1 4 5
M  V30 5 1 4 6
M  V30 6 2 6 7
M  V30 7 1 7 8
M  V30 8 1 8 9
M  V30 9 1 7 10
M  V30 10 1 10 11
M  V30 11 1 10 12
M  V30 12 2 12 13
M  V30 13 1 12 3
M  V30 14 1 1 14
M  V30 15 1 1 15
M  V30 16 1 1 16
M  V30 17 1 2 17
M  V30 18 1 2 18
M  V30 19 1 5 19
M  V30 20 1 5 20
M  V30 21 1 5 21
M  V30 22 1 8 22
M  V30 23 1 9 23
M  V30 24 1 9 24
M  V30 25 1 11 25
M  V30 26 1 11 26
M  V30 END BOND
M  V30 END CTAB
M  END
