
     RDKit          3D

  0  0  0  0  0  0  0  0  0  0999 V3000
M  V30 BEGIN CTAB
M  V30 COUNTS 24 24 0 0 0
M  V30 BEGIN ATOM
M  V30 1 N 4.34069 -0.569959 -0.273226 0
M  V30 2 C 2.97607 -0.267696 -0.651513 0
M  V30 3 C 2.17167 -0.132359 0.607737 0
M  V30 4 C 0.742375 0.180469 0.340489 0
M  V30 5 N -0.158883 -0.809113 0.184488 0
M  V30 6 C -1.46263 -0.589871 -0.0585766 0
M  V30 7 N -2.39393 -1.65006 -0.219407 0
M  V30 8 C -3.79452 -1.44308 -0.480209 0
M  V30 9 N -1.89876 0.692886 -0.152637 0
M  V30 10 C -1.03211 1.69966 -0.00320825 0
M  V30 11 N 0.272396 1.43865 0.240437 0
M  V30 12 N -1.52318 3.03488 -0.107929 0
M  V30 13 H 4.86574 0.267633 0.0485761 0
M  V30 14 H 4.42697 -1.36642 0.374732 0
M  V30 15 H 2.94914 0.678558 -1.19323 0
M  V30 16 H 2.61424 -1.12256 -1.26257 0
M  V30 17 H 2.22188 -1.06877 1.22522 0
M  V30 18 H 2.6238 0.713775 1.18949 0
M  V30 19 H -2.03565 -2.62304 -0.143008 0
M  V30 20 H -4.42969 -2.26167 -0.0824515 0
M  V30 21 H -3.95015 -1.39969 -1.59744 0
M  V30 22 H -4.15524 -0.512331 0.00837241 0
M  V30 23 H -1.0395 3.80532 0.440099 0
M  V30 24 H -2.33074 3.3048 -0.690978 0
M  V30 END ATOM
M  V30 BEGIN BOND
M  V30 1 1 1 2
M  V30 2 1 2 3
M  V30 3 1 3 4
M  V30 4 2 4 5
M  V30 5 1 5 6
M  V30 6 1 6 7
M  V30 7 1 7 8
M  V30 8 2 6 9
M  V30 9 1 9 10
M  V30 10 2 10 11
M  V30 11 1 10 12
M  V30 12 1 11 4
M  V30 13 1 1 13
M  V30 14 1 1 14
M  V30 15 1 2 15
M  V30 16 1 2 16
M  V30 17 1 3 17
M  V30 18 1 3 18
M  V30 19 1 7 19
M  V30 20 1 8 20
M  V30 21 1 8 21
M  V30 22 1 8 22
M  V30 23 1 12 23
M  V30 24 1 12 24
M  V30 END BOND
M  V30 END CTAB
M  END
