
     RDKit          3D

  0  0  0  0  0  0  0  0  0  0999 V3000
M  V30 BEGIN CTAB
M  V30 COUNTS 20 19 0 0 0
M  V30 BEGIN ATOM
M  V30 1 N 3.35661 -0.322655 0.402165 0
M  V30 2 C 2.25129 0.527309 0.00146727 0
M  V30 3 C 1.00285 -0.295605 -0.295568 0
M  V30 4 S -0.280114 0.862055 -0.775556 0
M  V30 5 O -0.442787 1.99888 0.180734 0
M  V30 6 C -1.81961 0.0207567 -1.1566 0
M  V30 7 C -2.21178 -0.713427 0.131524 0
M  V30 8 N -2.36103 0.321642 1.14106 0
M  V30 9 H 3.54382 -1.07764 -0.283075 0
M  V30 10 H 4.17814 0.309595 0.533375 0
M  V30 11 H 2.45795 1.14342 -0.871903 0
M  V30 12 H 2.00609 1.18251 0.869855 0
M  V30 13 H 1.24062 -1.01025 -1.09027 0
M  V30 14 H 0.644074 -0.81651 0.618058 0
M  V30 15 H -2.64214 0.735238 -1.34583 0
M  V30 16 H -1.64093 -0.685504 -1.98952 0
M  V30 17 H -1.42607 -1.4497 0.414904 0
M  V30 18 H -3.18733 -1.22636 0.0182965 0
M  V30 19 H -1.49481 0.3936 1.73314 0
M  V30 20 H -3.17486 0.102647 1.76375 0
M  V30 END ATOM
M  V30 BEGIN BOND
M  V30 1 1 1 2
M  V30 2 1 2 3
M  V30 3 1 3 4
M  V30 4 2 4 5
M  V30 5 1 4 6
M  V30 6 1 6 7
M  V30 7 1 7 8
M  V30 8 1 1 9
M  V30 9 1 1 10
M  V30 10 1 2 11
M  V30 11 1 2 12
M  V30 12 1 3 13
M  V30 13 1 3 14
M  V30 14 1 6 15
M  V30 15 1 6 16
M  V30 16 1 7 17
M  V30 17 1 7 18
M  V30 18 1 8 19
M  V30 19 1 8 20
M  V30 END BOND
M  V30 END CTAB
M  END
