
     RDKit          3D

  0  0  0  0  0  0  0  0  0  0999 V3000
M  V30 BEGIN CTAB
M  V30 COUNTS 24 25 0 0 0
M  V30 BEGIN ATOM
M  V30 1 F -3.84495 0.473505 0.310722 0
M  V30 2 C -2.80314 0.429063 0.402261 0
M  V30 3 F -2.29541 1.52535 1.11501 0
M  V30 4 C -2.33244 -0.796166 1.15993 0
M  V30 5 N -0.993057 -1.06979 0.678571 0
M  V30 6 C -0.829375 -0.423326 -0.584544 0 CFG=1
M  V30 7 C -2.05033 0.361444 -0.894384 0
M  V30 8 C 0.420637 0.392001 -0.673143 0
M  V30 9 N 0.599814 1.62238 -1.14457 0
M  V30 10 N 1.88018 1.93434 -1.02114 0
M  V30 11 C 2.55885 0.914279 -0.46756 0
M  V30 12 N 1.61183 -0.0470578 -0.258018 0
M  V30 13 N 1.93205 -1.27733 0.310713 0
M  V30 14 N 3.94224 0.841134 -0.165262 0
M  V30 15 H -2.38724 -0.674826 2.25233 0
M  V30 16 H -2.96461 -1.65737 0.850382 0
M  V30 17 H -0.331719 -0.601786 1.36692 0
M  V30 18 H -0.682948 -1.24545 -1.34381 0
M  V30 19 H -1.83509 1.37646 -1.29781 0
M  V30 20 H -2.67328 -0.23188 -1.60926 0
M  V30 21 H 1.72652 -2.2009 -0.117935 0
M  V30 22 H 2.41221 -1.26748 1.23235 0
M  V30 23 H 4.51706 0.0323524 -0.469989 0
M  V30 24 H 4.42218 1.59105 0.368242 0
M  V30 END ATOM
M  V30 BEGIN BOND
M  V30 1 1 1 2
M  V30 2 1 2 3
M  V30 3 1 2 4
M  V30 4 1 4 5
M  V30 5 1 5 6
M  V30 6 1 6 7
M  V30 7 1 6 8
M  V30 8 2 8 9
M  V30 9 1 9 10
M  V30 10 2 10 11
M  V30 11 1 11 12
M  V30 12 1 12 13
M  V30 13 1 11 14
M  V30 14 1 7 2
M  V30 15 1 12 8
M  V30 16 1 4 15
M  V30 17 1 4 16
M  V30 18 1 5 17
M  V30 19 1 6 18 CFG=3
M  V30 20 1 7 19
M  V30 21 1 7 20
M  V30 22 1 13 21
M  V30 23 1 13 22
M  V30 24 1 14 23
M  V30 25 1 14 24
M  V30 END BOND
M  V30 END CTAB
M  END
