
     RDKit          3D

  0  0  0  0  0  0  0  0  0  0999 V3000
M  V30 BEGIN CTAB
M  V30 COUNTS 24 24 0 0 0
M  V30 BEGIN ATOM
M  V30 1 N 4.81691 -0.0575909 0.41009 0
M  V30 2 O 3.51207 -0.439167 0.358073 0
M  V30 3 C 2.79347 0.611192 -0.218541 0
M  V30 4 C 1.36423 0.29834 -0.321213 0
M  V30 5 C 0.511497 1.22365 -0.866154 0
M  V30 6 C -0.843146 1.00189 -0.995997 0
M  V30 7 C -1.38812 -0.18696 -0.569915 0
M  V30 8 C -2.85547 -0.418894 -0.714141 0
M  V30 9 O -3.45435 0.0397333 0.445996 0
M  V30 10 N -4.78141 -0.154177 0.350532 0
M  V30 11 C -0.551281 -1.13152 -0.0192554 0
M  V30 12 C 0.8094 -0.894256 0.10485 0
M  V30 13 H 5.38454 -0.770704 0.931198 0
M  V30 14 H 5.16709 -0.089281 -0.577524 0
M  V30 15 H 3.2116 0.858971 -1.2223 0
M  V30 16 H 2.93987 1.53883 0.399606 0
M  V30 17 H 0.918799 2.16604 -1.20803 0
M  V30 18 H -1.52113 1.7285 -1.4253 0
M  V30 19 H -3.20645 0.181205 -1.57804 0
M  V30 20 H -3.00928 -1.49578 -0.885839 0
M  V30 21 H -5.31648 0.697659 0.126268 0
M  V30 22 H -5.04686 -0.996394 -0.197646 0
M  V30 23 H -0.944135 -2.08939 0.33176 0
M  V30 24 H 1.48863 -1.62189 0.53483 0
M  V30 END ATOM
M  V30 BEGIN BOND
M  V30 1 1 1 2
M  V30 2 1 2 3
M  V30 3 1 3 4
M  V30 4 2 4 5
M  V30 5 1 5 6
M  V30 6 2 6 7
M  V30 7 1 7 8
M  V30 8 1 8 9
M  V30 9 1 9 10
M  V30 10 1 7 11
M  V30 11 2 11 12
M  V30 12 1 12 4
M  V30 13 1 1 13
M  V30 14 1 1 14
M  V30 15 1 3 15
M  V30 16 1 3 16
M  V30 17 1 5 17
M  V30 18 1 6 18
M  V30 19 1 8 19
M  V30 20 1 8 20
M  V30 21 1 10 21
M  V30 22 1 10 22
M  V30 23 1 11 23
M  V30 24 1 12 24
M  V30 END BOND
M  V30 END CTAB
M  END
