
     RDKit          3D

  0  0  0  0  0  0  0  0  0  0999 V3000
M  V30 BEGIN CTAB
M  V30 COUNTS 23 23 0 0 0
M  V30 BEGIN ATOM
M  V30 1 N 0.94195 -1.69523 1.86522 0
M  V30 2 C 1.58571 -0.871356 0.906675 0
M  V30 3 C 2.97894 -0.903257 0.812326 0
M  V30 4 C 3.53704 -0.0768095 -0.141067 0
M  V30 5 C 2.77157 0.734474 -0.955221 0
M  V30 6 N 1.43392 0.712243 -0.806963 0
M  V30 7 C 0.811005 -0.0710497 0.105358 0
M  V30 8 N -0.585488 -0.0932265 0.259025 0
M  V30 9 C -1.50014 0.705744 -0.52793 0
M  V30 10 C -2.92242 0.471745 -0.140797 0
M  V30 11 N -3.86188 1.24444 -0.896865 0
M  V30 12 Cl 3.5347 1.77909 -2.16566 0
M  V30 13 H 0.808231 -2.72034 1.75343 0
M  V30 14 H 0.570523 -1.27501 2.74426 0
M  V30 15 H 3.54837 -1.54442 1.45905 0
M  V30 16 H 4.62562 -0.0721668 -0.247024 0
M  V30 17 H -1.01179 -0.714285 0.976178 0
M  V30 18 H -1.17785 1.75159 -0.44581 0
M  V30 19 H -1.38303 0.410857 -1.59038 0
M  V30 20 H -3.11421 -0.631533 -0.25358 0
M  V30 21 H -3.10527 0.688344 0.942043 0
M  V30 22 H -3.66902 1.25979 -1.91921 0
M  V30 23 H -4.81649 0.91037 -0.663816 0
M  V30 END ATOM
M  V30 BEGIN BOND
M  V30 1 1 1 2
M  V30 2 2 2 3
M  V30 3 1 3 4
M  V30 4 2 4 5
M  V30 5 1 5 6
M  V30 6 2 6 7
M  V30 7 1 7 8
M  V30 8 1 8 9
M  V30 9 1 9 10
M  V30 10 1 10 11
M  V30 11 1 5 12
M  V30 12 1 7 2
M  V30 13 1 1 13
M  V30 14 1 1 14
M  V30 15 1 3 15
M  V30 16 1 4 16
M  V30 17 1 8 17
M  V30 18 1 9 18
M  V30 19 1 9 19
M  V30 20 1 10 20
M  V30 21 1 10 21
M  V30 22 1 11 22
M  V30 23 1 11 23
M  V30 END BOND
M  V30 END CTAB
M  END
