
     RDKit          3D

  0  0  0  0  0  0  0  0  0  0999 V3000
M  V30 BEGIN CTAB
M  V30 COUNTS 45 46 0 0 0
M  V30 BEGIN ATOM
M  V30 1 N -0.0340135 2.93636 1.00969 0
M  V30 2 C -1.25456 2.33143 0.549418 0
M  V30 3 C -1.10843 0.822683 0.560197 0
M  V30 4 C -2.40064 0.223237 0.0740192 0
M  V30 5 C -2.77847 0.637243 -1.30621 0
M  V30 6 C -3.75091 -0.361952 -1.87258 0
M  V30 7 C -4.67586 -0.93108 -0.810127 0
M  V30 8 C -3.90842 -1.67879 0.246882 0
M  V30 9 C -2.43019 -1.2715 0.17424 0
M  V30 10 N 0.0258917 0.451272 -0.222039 0
M  V30 11 C 1.10903 -0.278511 0.321729 0
M  V30 12 O 1.05798 -0.604001 1.5342 0
M  V30 13 C 2.28404 -0.668333 -0.470895 0
M  V30 14 C 3.03779 0.485767 -1.05509 0
M  V30 15 C 4.45467 0.00224856 -1.2521 0
M  V30 16 C 4.6571 -1.00899 -0.17606 0
M  V30 17 C 3.29082 -1.45712 0.298192 0
M  V30 18 N 5.4053 -0.544922 0.951725 0
M  V30 19 H -0.122504 3.97 0.906228 0
M  V30 20 H 0.226037 2.6351 1.97429 0
M  V30 21 H -1.37524 2.61833 -0.52514 0
M  V30 22 H -2.14031 2.66956 1.12448 0
M  V30 23 H -0.959191 0.440393 1.60573 0
M  V30 24 H -3.20286 0.610831 0.768117 0
M  V30 25 H -3.29723 1.62087 -1.25338 0
M  V30 26 H -1.91011 0.726597 -2.00342 0
M  V30 27 H -4.42365 0.0892049 -2.65212 0
M  V30 28 H -3.20885 -1.23678 -2.30563 0
M  V30 29 H -5.3388 -0.139897 -0.378686 0
M  V30 30 H -5.37279 -1.61923 -1.36095 0
M  V30 31 H -4.22973 -1.41467 1.27874 0
M  V30 32 H -4.00527 -2.75918 0.108912 0
M  V30 33 H -1.88907 -1.64876 1.07257 0
M  V30 34 H -2.02916 -1.77405 -0.729347 0
M  V30 35 H 0.0830729 0.713228 -1.22718 0
M  V30 36 H 1.93797 -1.30271 -1.32501 0
M  V30 37 H 2.656 0.816315 -2.03843 0
M  V30 38 H 3.10394 1.36278 -0.358164 0
M  V30 39 H 5.15673 0.863194 -1.1485 0
M  V30 40 H 4.62486 -0.401578 -2.27143 0
M  V30 41 H 5.2086 -1.87661 -0.612564 0
M  V30 42 H 3.13971 -2.55973 0.113777 0
M  V30 43 H 3.14169 -1.23168 1.3784 0
M  V30 44 H 6.36491 -0.246966 0.760109 0
M  V30 45 H 4.8801 -0.0096098 1.64722 0
M  V30 END ATOM
M  V30 BEGIN BOND
M  V30 1 1 1 2
M  V30 2 1 2 3
M  V30 3 1 3 4
M  V30 4 1 4 5
M  V30 5 1 5 6
M  V30 6 1 6 7
M  V30 7 1 7 8
M  V30 8 1 8 9
M  V30 9 1 3 10
M  V30 10 1 10 11
M  V30 11 2 11 12
M  V30 12 1 11 13
M  V30 13 1 13 14
M  V30 14 1 14 15
M  V30 15 1 15 16
M  V30 16 1 16 17
M  V30 17 1 16 18
M  V30 18 1 9 4
M  V30 19 1 17 13
M  V30 20 1 1 19
M  V30 21 1 1 20
M  V30 22 1 2 21
M  V30 23 1 2 22
M  V30 24 1 3 23
M  V30 25 1 4 24
M  V30 26 1 5 25
M  V30 27 1 5 26
M  V30 28 1 6 27
M  V30 29 1 6 28
M  V30 30 1 7 29
M  V30 31 1 7 30
M  V30 32 1 8 31
M  V30 33 1 8 32
M  V30 34 1 9 33
M  V30 35 1 9 34
M  V30 36 1 10 35
M  V30 37 1 13 36
M  V30 38 1 14 37
M  V30 39 1 14 38
M  V30 40 1 15 39
M  V30 41 1 15 40
M  V30 42 1 16 41
M  V30 43 1 17 42
M  V30 44 1 17 43
M  V30 45 1 18 44
M  V30 46 1 18 45
M  V30 END BOND
M  V30 END CTAB
M  END
