
     RDKit          3D

  0  0  0  0  0  0  0  0  0  0999 V3000
M  V30 BEGIN CTAB
M  V30 COUNTS 33 33 0 0 0
M  V30 BEGIN ATOM
M  V30 1 C -3.74789 0.783754 -0.101894 0
M  V30 2 C -3.36741 -0.671875 -0.289346 0
M  V30 3 O -2.14257 -0.733171 -0.96127 0
M  V30 4 C -1.18811 -0.0873258 -0.207586 0
M  V30 5 C -0.352833 0.938019 -0.99136 0
M  V30 6 C 0.794413 0.502783 -0.117569 0
M  V30 7 C 0.138665 -0.855268 -0.072372 0
M  V30 8 C 0.408564 -1.73455 -1.24123 0
M  V30 9 C 0.297151 -1.54157 1.25554 0
M  V30 10 N 0.657596 1.11053 1.20007 0
M  V30 11 C 2.1373 0.511054 -0.67295 0
M  V30 12 O 2.31352 0.0772576 -1.83698 0
M  V30 13 N 3.28317 0.99617 0.0526041 0
M  V30 14 N 4.54064 0.976566 -0.536072 0
M  V30 15 H -3.42901 1.178 0.873038 0
M  V30 16 H -3.22233 1.38424 -0.876591 0
M  V30 17 H -4.84622 0.870592 -0.165193 0
M  V30 18 H -3.32867 -1.12994 0.711636 0
M  V30 19 H -4.1413 -1.19793 -0.909162 0
M  V30 20 H -1.52105 0.344274 0.739116 0
M  V30 21 H -0.261562 0.722074 -2.07073 0
M  V30 22 H -0.682838 1.98527 -0.845453 0
M  V30 23 H -0.250567 -2.64989 -1.23986 0
M  V30 24 H 0.300693 -1.2279 -2.2184 0
M  V30 25 H 1.45628 -2.10341 -1.17731 0
M  V30 26 H 0.253075 -0.825916 2.09973 0
M  V30 27 H -0.483497 -2.30528 1.44019 0
M  V30 28 H 1.30557 -1.99937 1.26529 0
M  V30 29 H 1.39229 0.849056 1.85641 0
M  V30 30 H 0.408271 2.10933 1.1553 0
M  V30 31 H 3.18104 1.36517 1.02225 0
M  V30 32 H 4.92295 1.93245 -0.665876 0
M  V30 33 H 5.17465 0.426801 0.0999921 0
M  V30 END ATOM
M  V30 BEGIN BOND
M  V30 1 1 1 2
M  V30 2 1 2 3
M  V30 3 1 3 4
M  V30 4 1 4 5
M  V30 5 1 5 6
M  V30 6 1 6 7
M  V30 7 1 7 8
M  V30 8 1 7 9
M  V30 9 1 6 10
M  V30 10 1 6 11
M  V30 11 2 11 12
M  V30 12 1 11 13
M  V30 13 1 13 14
M  V30 14 1 7 4
M  V30 15 1 1 15
M  V30 16 1 1 16
M  V30 17 1 1 17
M  V30 18 1 2 18
M  V30 19 1 2 19
M  V30 20 1 4 20
M  V30 21 1 5 21
M  V30 22 1 5 22
M  V30 23 1 8 23
M  V30 24 1 8 24
M  V30 25 1 8 25
M  V30 26 1 9 26
M  V30 27 1 9 27
M  V30 28 1 9 28
M  V30 29 1 10 29
M  V30 30 1 10 30
M  V30 31 1 13 31
M  V30 32 1 14 32
M  V30 33 1 14 33
M  V30 END BOND
M  V30 END CTAB
M  END
