
     RDKit          3D

  0  0  0  0  0  0  0  0  0  0999 V3000
M  V30 BEGIN CTAB
M  V30 COUNTS 48 49 0 0 0
M  V30 BEGIN ATOM
M  V30 1 N -2.97169 -1.45896 -1.68971 0
M  V30 2 C -2.43934 -0.138217 -1.7678 0
M  V30 3 C -2.58489 0.67951 -0.496277 0
M  V30 4 C -3.99673 0.876974 -0.066766 0
M  V30 5 C -4.13732 2.26016 0.543059 0
M  V30 6 C -4.40632 -0.17965 0.895681 0
M  V30 7 C -3.52813 -0.14212 2.12915 0
M  V30 8 C -2.10674 -0.448803 1.73456 0
M  V30 9 N -1.69718 0.263714 0.544424 0
M  V30 10 C -0.317208 0.566897 0.42196 0
M  V30 11 O 0.067753 1.19361 -0.59654 0
M  V30 12 C 0.674026 0.173527 1.44849 0
M  V30 13 C 2.09895 0.370685 1.02339 0
M  V30 14 C 2.43891 -0.460766 -0.156578 0
M  V30 15 C 3.84498 -0.29555 -0.607818 0
M  V30 16 C 4.37999 -1.28089 -1.42279 0
M  V30 17 C 5.67988 -1.2129 -1.89161 0
M  V30 18 C 6.49458 -0.15037 -1.55938 0
M  V30 19 C 5.9501 0.828222 -0.744823 0
M  V30 20 C 4.65587 0.758155 -0.279496 0
M  V30 21 N 2.34217 -1.87144 0.267747 0
M  V30 22 H -3.8964 -1.56872 -2.16686 0
M  V30 23 H -2.2961 -2.2075 -1.88858 0
M  V30 24 H -1.36269 -0.202422 -2.01064 0
M  V30 25 H -2.90797 0.38583 -2.63215 0
M  V30 26 H -2.21425 1.70926 -0.804414 0
M  V30 27 H -4.69641 0.853873 -0.926179 0
M  V30 28 H -4.19286 2.97886 -0.308089 0
M  V30 29 H -5.06553 2.30606 1.1436 0
M  V30 30 H -3.23899 2.54402 1.12968 0
M  V30 31 H -5.47348 -0.0725011 1.19193 0
M  V30 32 H -4.31668 -1.19308 0.479108 0
M  V30 33 H -3.60781 0.815445 2.68304 0
M  V30 34 H -3.90115 -0.933451 2.81249 0
M  V30 35 H -1.46242 -0.116018 2.57311 0
M  V30 36 H -1.98435 -1.531 1.5322 0
M  V30 37 H 0.424403 0.795938 2.3577 0
M  V30 38 H 0.491195 -0.893722 1.7226 0
M  V30 39 H 2.34202 1.44756 0.905439 0
M  V30 40 H 2.7427 0.000148884 1.87472 0
M  V30 41 H 1.80042 -0.385811 -1.03094 0
M  V30 42 H 3.79247 -2.1343 -1.71589 0
M  V30 43 H 6.10358 -1.99243 -2.53653 0
M  V30 44 H 7.52128 -0.0682408 -1.91222 0
M  V30 45 H 6.60053 1.6661 -0.485961 0
M  V30 46 H 4.2841 1.53305 0.342416 0
M  V30 47 H 1.34731 -2.18623 0.275139 0
M  V30 48 H 2.72541 -1.88251 1.24898 0
M  V30 END ATOM
M  V30 BEGIN BOND
M  V30 1 1 1 2
M  V30 2 1 2 3
M  V30 3 1 3 4
M  V30 4 1 4 5
M  V30 5 1 4 6
M  V30 6 1 6 7
M  V30 7 1 7 8
M  V30 8 1 8 9
M  V30 9 1 9 10
M  V30 10 2 10 11
M  V30 11 1 10 12
M  V30 12 1 12 13
M  V30 13 1 13 14
M  V30 14 1 14 15
M  V30 15 2 15 16
M  V30 16 1 16 17
M  V30 17 2 17 18
M  V30 18 1 18 19
M  V30 19 2 19 20
M  V30 20 1 14 21
M  V30 21 1 9 3
M  V30 22 1 20 15
M  V30 23 1 1 22
M  V30 24 1 1 23
M  V30 25 1 2 24
M  V30 26 1 2 25
M  V30 27 1 3 26
M  V30 28 1 4 27
M  V30 29 1 5 28
M  V30 30 1 5 29
M  V30 31 1 5 30
M  V30 32 1 6 31
M  V30 33 1 6 32
M  V30 34 1 7 33
M  V30 35 1 7 34
M  V30 36 1 8 35
M  V30 37 1 8 36
M  V30 38 1 12 37
M  V30 39 1 12 38
M  V30 40 1 13 39
M  V30 41 1 13 40
M  V30 42 1 14 41
M  V30 43 1 16 42
M  V30 44 1 17 43
M  V30 45 1 18 44
M  V30 46 1 19 45
M  V30 47 1 20 46
M  V30 48 1 21 47
M  V30 49 1 21 48
M  V30 END BOND
M  V30 END CTAB
M  END
