
     RDKit          3D

  0  0  0  0  0  0  0  0  0  0999 V3000
M  V30 BEGIN CTAB
M  V30 COUNTS 53 55 0 0 0
M  V30 BEGIN ATOM
M  V30 1 C 0.653613 -0.725177 -0.275625 0 CFG=1
M  V30 2 S 0.327299 -2.32471 0.409176 0
M  V30 3 C -1.37736 -2.63966 0.119732 0
M  V30 4 C -2.23778 -1.46682 -0.0742073 0
M  V30 5 C -3.68499 -1.84247 -0.0953318 0
M  V30 6 C -4.05405 -3.10031 0.0288645 0
M  V30 7 C -1.83757 -0.234206 -0.209477 0
M  V30 8 N -0.446842 0.136665 -0.183748 0
M  V30 9 C 0.478165 1.17665 -0.0941122 0
M  V30 10 O 0.532051 2.39886 -0.452255 0
M  V30 11 C 1.39227 0.239758 0.608964 0
M  V30 12 N 2.79441 0.374373 0.238996 0
M  V30 13 C 3.82553 0.23453 1.19248 0
M  V30 14 O 3.38169 -0.016981 2.38173 0
M  V30 15 C 5.24351 0.341554 0.966499 0
M  V30 16 N 5.98837 0.169927 2.03248 0
M  V30 17 O 5.47565 -0.0921272 3.27562 0
M  V30 18 C 5.78609 -1.36 3.85223 0
M  V30 19 C 5.88364 0.61842 -0.339576 0
M  V30 20 C 7.28121 0.698734 -0.423196 0
M  V30 21 S 7.52091 1.01859 -2.07692 0
M  V30 22 C 5.87353 1.03631 -2.58004 0
M  V30 23 N 5.33922 1.25592 -3.89426 0
M  V30 24 N 5.25213 0.796862 -1.4514 0
M  V30 25 C -2.80755 0.837938 -0.41395 0
M  V30 26 O -2.31428 2.03534 -0.533086 0
M  V30 27 O -4.15086 0.806866 -0.50371 0
M  V30 28 C -4.93397 1.96122 -0.706977 0
M  V30 29 C -6.41919 1.59718 -0.76415 0
M  V30 30 N -6.59553 0.676243 -1.86405 0
M  V30 31 C -6.80912 0.969841 0.512751 0
M  V30 32 O -6.71737 1.6829 1.68527 0
M  V30 33 O -7.22239 -0.206306 0.534825 0
M  V30 34 H 1.09474 -0.758199 -1.26084 0
M  V30 35 H -1.56335 -3.34162 -0.743505 0
M  V30 36 H -1.74907 -3.22737 1.02917 0
M  V30 37 H -4.42838 -1.11116 -0.204967 0
M  V30 38 H -3.31987 -3.86495 0.144979 0
M  V30 39 H -5.11231 -3.32882 0.00978895 0
M  V30 40 H 1.17312 0.0247836 1.65083 0
M  V30 41 H 2.97408 0.574704 -0.742093 0
M  V30 42 H 5.59833 -2.18543 3.12557 0
M  V30 43 H 6.87289 -1.43465 4.08945 0
M  V30 44 H 5.25225 -1.51122 4.81079 0
M  V30 45 H 7.99051 0.577689 0.402514 0
M  V30 46 H 5.98248 1.25203 -4.68723 0
M  V30 47 H 4.33853 1.40812 -3.99674 0
M  V30 48 H -4.84029 2.68707 0.126039 0
M  V30 49 H -4.70455 2.49748 -1.63531 0
M  V30 50 H -6.95217 2.55279 -0.959933 0
M  V30 51 H -5.75429 0.643193 -2.46161 0
M  V30 52 H -6.7748 -0.305447 -1.53837 0
M  V30 53 H -7.49831 1.7951 2.31462 0
M  V30 END ATOM
M  V30 BEGIN BOND
M  V30 1 1 1 2
M  V30 2 1 2 3
M  V30 3 1 3 4
M  V30 4 1 4 5
M  V30 5 2 5 6 CFG=2
M  V30 6 2 4 7
M  V30 7 1 7 8
M  V30 8 1 8 9
M  V30 9 2 9 10
M  V30 10 1 9 11
M  V30 11 1 11 12
M  V30 12 1 12 13
M  V30 13 2 13 14
M  V30 14 1 13 15
M  V30 15 2 15 16
M  V30 16 1 16 17
M  V30 17 1 17 18
M  V30 18 1 15 19
M  V30 19 2 19 20
M  V30 20 1 20 21
M  V30 21 1 21 22
M  V30 22 1 22 23
M  V30 23 2 22 24
M  V30 24 1 7 25
M  V30 25 2 25 26
M  V30 26 1 25 27
M  V30 27 1 27 28
M  V30 28 1 28 29
M  V30 29 1 29 30
M  V30 30 1 29 31
M  V30 31 1 31 32
M  V30 32 2 31 33
M  V30 33 1 8 1
M  V30 34 1 24 19
M  V30 35 1 11 1
M  V30 36 1 1 34 CFG=3
M  V30 37 1 3 35
M  V30 38 1 3 36
M  V30 39 1 5 37
M  V30 40 1 6 38
M  V30 41 1 6 39
M  V30 42 1 11 40
M  V30 43 1 12 41
M  V30 44 1 18 42
M  V30 45 1 18 43
M  V30 46 1 18 44
M  V30 47 1 20 45
M  V30 48 1 23 46
M  V30 49 1 23 47
M  V30 50 1 28 48
M  V30 51 1 28 49
M  V30 52 1 29 50
M  V30 53 1 30 51
M  V30 54 1 30 52
M  V30 55 1 32 53
M  V30 END BOND
M  V30 END CTAB
M  END
