
     RDKit          3D

  0  0  0  0  0  0  0  0  0  0999 V3000
M  V30 BEGIN CTAB
M  V30 COUNTS 31 32 0 0 0
M  V30 BEGIN ATOM
M  V30 1 N -3.14405 -1.30376 1.28174 0
M  V30 2 C -2.40916 -0.11393 0.918666 0
M  V30 3 C -1.01478 -0.505535 0.555074 0 CFG=1
M  V30 4 C -0.935929 -1.46052 -0.600197 0
M  V30 5 C 0.481023 -1.9261 -0.769848 0
M  V30 6 C 1.52806 -0.960054 -0.418126 0
M  V30 7 C 1.21159 0.296552 0.0735906 0
M  V30 8 N -0.163655 0.603191 0.196955 0
M  V30 9 S -0.679491 2.20382 -0.0725953 0
M  V30 10 O 0.401907 3.15275 -0.499283 0
M  V30 11 O -1.29636 2.72986 1.18823 0
M  V30 12 N -1.82314 2.2633 -1.40783 0
M  V30 13 C 2.23032 1.20082 0.415854 0
M  V30 14 C 3.54558 0.833126 0.258544 0
M  V30 15 C 3.84083 -0.416665 -0.231216 0
M  V30 16 C 2.82848 -1.31644 -0.57047 0
M  V30 17 H -4.12773 -1.24665 1.27201 0
M  V30 18 H -2.74103 -1.71534 2.11977 0
M  V30 19 H -2.46401 0.54652 1.80406 0
M  V30 20 H -2.90078 0.298413 0.0189361 0
M  V30 21 H -0.58227 -1.01547 1.43056 0
M  V30 22 H -1.24185 -0.888544 -1.5243 0
M  V30 23 H -1.64239 -2.31587 -0.469941 0
M  V30 24 H 0.65048 -2.23185 -1.84311 0
M  V30 25 H 0.60331 -2.81898 -0.106179 0
M  V30 26 H -1.63943 3.0609 -2.04497 0
M  V30 27 H -2.73883 2.47929 -0.954806 0
M  V30 28 H 1.89987 2.13978 0.806186 0
M  V30 29 H 4.3529 1.49401 0.507219 0
M  V30 30 H 4.85883 -0.762884 -0.377095 0
M  V30 31 H 3.11171 -2.30372 -0.957428 0
M  V30 END ATOM
M  V30 BEGIN BOND
M  V30 1 1 1 2
M  V30 2 1 2 3
M  V30 3 1 3 4
M  V30 4 1 4 5
M  V30 5 1 5 6
M  V30 6 2 6 7
M  V30 7 1 7 8
M  V30 8 1 8 9
M  V30 9 2 9 10
M  V30 10 2 9 11
M  V30 11 1 9 12
M  V30 12 1 7 13
M  V30 13 2 13 14
M  V30 14 1 14 15
M  V30 15 2 15 16
M  V30 16 1 8 3
M  V30 17 1 16 6
M  V30 18 1 1 17
M  V30 19 1 1 18
M  V30 20 1 2 19
M  V30 21 1 2 20
M  V30 22 1 3 21 CFG=1
M  V30 23 1 4 22
M  V30 24 1 4 23
M  V30 25 1 5 24
M  V30 26 1 5 25
M  V30 27 1 12 26
M  V30 28 1 12 27
M  V30 29 1 13 28
M  V30 30 1 14 29
M  V30 31 1 15 30
M  V30 32 1 16 31
M  V30 END BOND
M  V30 END CTAB
M  END
