
     RDKit          3D

  0  0  0  0  0  0  0  0  0  0999 V3000
M  V30 BEGIN CTAB
M  V30 COUNTS 19 19 0 0 0
M  V30 BEGIN ATOM
M  V30 1 F 4.12406 -0.212858 0.144553 0
M  V30 2 C 2.78749 -0.143307 0.376413 0
M  V30 3 C 1.94656 -0.295123 -0.874588 0
M  V30 4 C 0.530977 -0.198932 -0.468107 0
M  V30 5 N -0.222325 -1.23173 -0.108889 0
M  V30 6 C -1.51182 -1.05986 0.250317 0
M  V30 7 N -2.34427 -2.13524 0.638567 0
M  V30 8 N -2.02848 0.201136 0.23709 0
M  V30 9 C -1.28569 1.25558 -0.121867 0
M  V30 10 N -0.010727 1.05484 -0.472961 0
M  V30 11 N -1.81658 2.56494 -0.137269 0
M  V30 12 F 2.5149 1.10567 0.917481 0
M  V30 13 F 2.32959 -1.07179 1.28876 0
M  V30 14 H 2.18919 0.489864 -1.6361 0
M  V30 15 H 2.09373 -1.31862 -1.29727 0
M  V30 16 H -1.91705 -2.90484 1.1988 0
M  V30 17 H -3.36217 -2.14449 0.362888 0
M  V30 18 H -1.41876 3.26878 0.500635 0
M  V30 19 H -2.59861 2.77598 -0.798452 0
M  V30 END ATOM
M  V30 BEGIN BOND
M  V30 1 1 1 2
M  V30 2 1 2 3
M  V30 3 1 3 4
M  V30 4 2 4 5
M  V30 5 1 5 6
M  V30 6 1 6 7
M  V30 7 2 6 8
M  V30 8 1 8 9
M  V30 9 2 9 10
M  V30 10 1 9 11
M  V30 11 1 2 12
M  V30 12 1 2 13
M  V30 13 1 10 4
M  V30 14 1 3 14
M  V30 15 1 3 15
M  V30 16 1 7 16
M  V30 17 1 7 17
M  V30 18 1 11 18
M  V30 19 1 11 19
M  V30 END BOND
M  V30 END CTAB
M  END
