
     RDKit          3D

  0  0  0  0  0  0  0  0  0  0999 V3000
M  V30 BEGIN CTAB
M  V30 COUNTS 18 18 0 0 0
M  V30 BEGIN ATOM
M  V30 1 F 1.83787 -1.53815 -1.39211 0
M  V30 2 C 1.54538 -0.780007 -0.331449 0
M  V30 3 C 2.76677 -0.0814116 0.320735 0
M  V30 4 F 2.29818 0.71545 1.35366 0
M  V30 5 F 3.5808 -1.04466 0.987739 0
M  V30 6 F 3.57098 0.54306 -0.557261 0
M  V30 7 C 0.454133 0.20618 -0.458832 0
M  V30 8 N 0.465095 1.47576 -0.859817 0
M  V30 9 N -0.739882 2.02771 -0.765252 0
M  V30 10 C -1.60149 1.10062 -0.292199 0
M  V30 11 N -0.828814 -0.0102617 -0.116545 0
M  V30 12 N -1.35194 -1.22746 0.32033 0
M  V30 13 N -2.99452 1.19605 -0.00179015 0
M  V30 14 F 1.15957 -1.69675 0.712102 0
M  V30 15 H -1.45995 -1.98162 -0.359148 0
M  V30 16 H -1.6586 -1.45635 1.29597 0
M  V30 17 H -3.54991 1.84262 -0.628337 0
M  V30 18 H -3.49368 0.709228 0.772196 0
M  V30 END ATOM
M  V30 BEGIN BOND
M  V30 1 1 1 2
M  V30 2 1 2 3
M  V30 3 1 3 4
M  V30 4 1 3 5
M  V30 5 1 3 6
M  V30 6 1 2 7
M  V30 7 2 7 8
M  V30 8 1 8 9
M  V30 9 2 9 10
M  V30 10 1 10 11
M  V30 11 1 11 12
M  V30 12 1 10 13
M  V30 13 1 2 14
M  V30 14 1 11 7
M  V30 15 1 12 15
M  V30 16 1 12 16
M  V30 17 1 13 17
M  V30 18 1 13 18
M  V30 END BOND
M  V30 END CTAB
M  END
