
     RDKit          3D

  0  0  0  0  0  0  0  0  0  0999 V3000
M  V30 BEGIN CTAB
M  V30 COUNTS 59 61 0 0 0
M  V30 BEGIN ATOM
M  V30 1 C -1.57356 -3.33006 3.80123 0
M  V30 2 N -1.90063 -2.51999 2.63098 0
M  V30 3 C -3.27396 -2.20186 2.44739 0
M  V30 4 C -3.6083 -1.42489 1.24597 0
M  V30 5 C -3.72998 -0.0507162 1.22845 0
M  V30 6 C -4.05961 0.63601 0.0636888 0
M  V30 7 C -4.18305 2.01168 0.0498705 0
M  V30 8 N -3.95906 2.70429 1.2745 0
M  V30 9 C -4.51178 2.69363 -1.10273 0
M  V30 10 C -4.73311 2.03959 -2.29541 0
M  V30 11 N -5.07438 2.74691 -3.49136 0
M  V30 12 C -4.61078 0.665443 -2.28619 0
M  V30 13 C -4.27981 -0.0224544 -1.12647 0
M  V30 14 C -4.15863 -1.40115 -1.11409 0
M  V30 15 C -3.83056 -2.08389 0.0463241 0
M  V30 16 C -0.821174 -2.13068 1.78413 0
M  V30 17 C -0.0693021 -1.01574 2.10675 0
M  V30 18 C 0.991282 -0.601016 1.31795 0
M  V30 19 C 1.34174 -1.28378 0.176075 0
M  V30 20 C 0.588143 -2.40081 -0.148222 0
M  V30 21 C -0.471986 -2.81585 0.640329 0
M  V30 22 C 2.46781 -0.89319 -0.686346 0
M  V30 23 O 2.53507 -1.31088 -1.88369 0
M  V30 24 N 3.47714 -0.0629939 -0.20766 0
M  V30 25 C 4.60212 0.30829 -1.11381 0 CFG=1
M  V30 26 C 4.59225 1.78523 -1.16698 0
M  V30 27 C 5.5576 2.54184 -1.96447 0
M  V30 28 C 6.97263 2.475 -1.58477 0
M  V30 29 O 7.35116 2.48291 -0.241815 0
M  V30 30 O 7.85638 2.41344 -2.48183 0
M  V30 31 C 5.79193 -0.397492 -0.670417 0
M  V30 32 O 6.96797 -0.566855 -1.38228 0
M  V30 33 O 5.79174 -0.941491 0.49189 0
M  V30 34 H -2.45426 -3.80558 4.22485 0
M  V30 35 H -1.13132 -2.65405 4.55223 0
M  V30 36 H -0.799139 -4.0678 3.50372 0
M  V30 37 H -3.61635 -1.67994 3.38945 0
M  V30 38 H -3.83548 -3.18272 2.48297 0
M  V30 39 H -3.56106 0.505735 2.15767 0
M  V30 40 H -4.31265 2.4006 2.19096 0
M  V30 41 H -3.38214 3.59354 1.19451 0
M  V30 42 H -4.61007 3.7772 -1.11669 0
M  V30 43 H -5.76809 3.52897 -3.49516 0
M  V30 44 H -4.63512 2.49488 -4.39328 0
M  V30 45 H -4.776 0.114797 -3.19975 0
M  V30 46 H -4.33446 -1.91227 -2.05852 0
M  V30 47 H -3.74234 -3.15932 0.032414 0
M  V30 48 H -0.353305 -0.476246 3.017 0
M  V30 49 H 1.57281 0.276187 1.58452 0
M  V30 50 H 0.879814 -2.93328 -1.06145 0
M  V30 51 H -1.04715 -3.69113 0.366806 0
M  V30 52 H 3.50259 0.316533 0.736225 0
M  V30 53 H 4.36595 -0.0901573 -2.14259 0
M  V30 54 H 3.53692 2.17304 -1.41183 0
M  V30 55 H 4.68981 2.19798 -0.091334 0
M  V30 56 H 5.45136 2.37268 -3.07331 0
M  V30 57 H 5.28241 3.64527 -1.87682 0
M  V30 58 H 7.31979 3.37023 0.22245 0
M  V30 59 H 7.72219 -1.16362 -1.08437 0
M  V30 END ATOM
M  V30 BEGIN BOND
M  V30 1 1 1 2
M  V30 2 1 2 3
M  V30 3 1 3 4
M  V30 4 2 4 5
M  V30 5 1 5 6
M  V30 6 2 6 7
M  V30 7 1 7 8
M  V30 8 1 7 9
M  V30 9 2 9 10
M  V30 10 1 10 11
M  V30 11 1 10 12
M  V30 12 2 12 13
M  V30 13 1 13 14
M  V30 14 2 14 15
M  V30 15 1 2 16
M  V30 16 2 16 17
M  V30 17 1 17 18
M  V30 18 2 18 19
M  V30 19 1 19 20
M  V30 20 2 20 21
M  V30 21 1 19 22
M  V30 22 2 22 23
M  V30 23 1 22 24
M  V30 24 1 24 25
M  V30 25 1 25 26
M  V30 26 1 26 27
M  V30 27 1 27 28
M  V30 28 1 28 29
M  V30 29 2 28 30
M  V30 30 1 25 31
M  V30 31 1 31 32
M  V30 32 2 31 33
M  V30 33 1 15 4
M  V30 34 1 21 16
M  V30 35 1 13 6
M  V30 36 1 1 34
M  V30 37 1 1 35
M  V30 38 1 1 36
M  V30 39 1 3 37
M  V30 40 1 3 38
M  V30 41 1 5 39
M  V30 42 1 8 40
M  V30 43 1 8 41
M  V30 44 1 9 42
M  V30 45 1 11 43
M  V30 46 1 11 44
M  V30 47 1 12 45
M  V30 48 1 14 46
M  V30 49 1 15 47
M  V30 50 1 17 48
M  V30 51 1 18 49
M  V30 52 1 20 50
M  V30 53 1 21 51
M  V30 54 1 24 52
M  V30 55 1 25 53 CFG=3
M  V30 56 1 26 54
M  V30 57 1 26 55
M  V30 58 1 27 56
M  V30 59 1 27 57
M  V30 60 1 29 58
M  V30 61 1 32 59
M  V30 END BOND
M  V30 END CTAB
M  END
