
     RDKit          3D

  0  0  0  0  0  0  0  0  0  0999 V3000
M  V30 BEGIN CTAB
M  V30 COUNTS 52 55 0 0 0
M  V30 BEGIN ATOM
M  V30 1 C 5.93389 -0.486676 -3.54719 0
M  V30 2 O 6.58035 -0.144904 -2.32283 0
M  V30 3 C 5.89918 -0.196576 -1.12416 0
M  V30 4 C 6.5739 0.144093 0.0287876 0
M  V30 5 C 5.91539 0.103143 1.26005 0
M  V30 6 C 4.5989 -0.279625 1.28885 0
M  V30 7 C 3.88887 -0.629318 0.146587 0
M  V30 8 C 4.58251 -0.576178 -1.06893 0
M  V30 9 N 2.51695 -1.02541 0.216382 0
M  V30 10 C 1.84235 -1.29638 -1.01749 0
M  V30 11 C 0.3494 -1.44137 -0.908985 0
M  V30 12 N -0.167832 -1.31658 0.411155 0
M  V30 13 C 0.626354 -1.93676 1.4837 0
M  V30 14 C 1.91793 -1.1245 1.52412 0
M  V30 15 C -1.36343 -0.660132 0.783939 0
M  V30 16 C -2.18437 -0.091196 -0.154802 0
M  V30 17 C -3.3586 0.55344 0.244335 0
M  V30 18 N -3.65375 0.597981 1.55262 0
M  V30 19 C -2.8551 0.0417303 2.49258 0
M  V30 20 N -1.75263 -0.558797 2.07075 0
M  V30 21 N -3.2015 0.109174 3.86672 0
M  V30 22 C -4.26808 1.17951 -0.752772 0
M  V30 23 C -5.70337 0.762216 -0.514915 0
M  V30 24 C -5.90275 2.04762 0.246441 0
M  V30 25 C -4.67484 2.5954 -0.402191 0
M  V30 26 N -7.14696 2.69091 -0.113108 0
M  V30 27 H 6.6847 -0.517325 -4.35574 0
M  V30 28 H 5.14104 0.269311 -3.71217 0
M  V30 29 H 5.45898 -1.47609 -3.37961 0
M  V30 30 H 7.59848 0.441457 0.00146897 0
M  V30 31 H 6.4337 0.367644 2.16928 0
M  V30 32 H 4.08868 -0.310451 2.24671 0
M  V30 33 H 4.07523 -0.840334 -1.98846 0
M  V30 34 H 2.29629 -2.21238 -1.44814 0
M  V30 35 H 2.1013 -0.475656 -1.72583 0
M  V30 36 H 0.0786931 -2.48276 -1.25473 0
M  V30 37 H -0.103302 -0.777261 -1.65487 0
M  V30 38 H 0.145543 -1.85147 2.45675 0
M  V30 39 H 0.886655 -2.97297 1.17839 0
M  V30 40 H 1.67206 -0.102462 1.8632 0
M  V30 41 H 2.57538 -1.67361 2.25587 0
M  V30 42 H -1.94614 -0.129076 -1.20632 0
M  V30 43 H -2.72424 -0.486838 4.5707 0
M  V30 44 H -3.94047 0.75506 4.20541 0
M  V30 45 H -3.90924 1.06256 -1.79609 0
M  V30 46 H -6.2617 0.726543 -1.47216 0
M  V30 47 H -5.83776 -0.111588 0.13577 0
M  V30 48 H -5.84009 1.97163 1.35086 0
M  V30 49 H -4.86274 3.16358 -1.35302 0
M  V30 50 H -3.93833 3.09267 0.265293 0
M  V30 51 H -6.97309 3.46748 -0.786249 0
M  V30 52 H -7.8924 2.04153 -0.40249 0
M  V30 END ATOM
M  V30 BEGIN BOND
M  V30 1 1 1 2
M  V30 2 1 2 3
M  V30 3 2 3 4
M  V30 4 1 4 5
M  V30 5 2 5 6
M  V30 6 1 6 7
M  V30 7 2 7 8
M  V30 8 1 7 9
M  V30 9 1 9 10
M  V30 10 1 10 11
M  V30 11 1 11 12
M  V30 12 1 12 13
M  V30 13 1 13 14
M  V30 14 1 12 15
M  V30 15 2 15 16
M  V30 16 1 16 17
M  V30 17 2 17 18
M  V30 18 1 18 19
M  V30 19 2 19 20
M  V30 20 1 19 21
M  V30 21 1 17 22
M  V30 22 1 22 23
M  V30 23 1 23 24
M  V30 24 1 24 25
M  V30 25 1 24 26
M  V30 26 1 8 3
M  V30 27 1 14 9
M  V30 28 1 20 15
M  V30 29 1 25 22
M  V30 30 1 1 27
M  V30 31 1 1 28
M  V30 32 1 1 29
M  V30 33 1 4 30
M  V30 34 1 5 31
M  V30 35 1 6 32
M  V30 36 1 8 33
M  V30 37 1 10 34
M  V30 38 1 10 35
M  V30 39 1 11 36
M  V30 40 1 11 37
M  V30 41 1 13 38
M  V30 42 1 13 39
M  V30 43 1 14 40
M  V30 44 1 14 41
M  V30 45 1 16 42
M  V30 46 1 21 43
M  V30 47 1 21 44
M  V30 48 1 22 45
M  V30 49 1 23 46
M  V30 50 1 23 47
M  V30 51 1 24 48
M  V30 52 1 25 49
M  V30 53 1 25 50
M  V30 54 1 26 51
M  V30 55 1 26 52
M  V30 END BOND
M  V30 END CTAB
M  END
