
     RDKit          3D

  0  0  0  0  0  0  0  0  0  0999 V3000
M  V30 BEGIN CTAB
M  V30 COUNTS 64 70 0 0 0
M  V30 BEGIN ATOM
M  V30 1 C -3.29066 -1.89131 1.28364 0
M  V30 2 C -3.62466 -2.19152 -0.139571 0
M  V30 3 C -3.40632 -1.28894 -1.16054 0
M  V30 4 C -3.75394 -1.62392 -2.47602 0
M  V30 5 C -4.30494 -2.82422 -2.77825 0
M  V30 6 C -4.52202 -3.72441 -1.75905 0
M  V30 7 C -4.18716 -3.409 -0.470823 0
M  V30 8 N -2.84841 -0.0165365 -0.831816 0
M  V30 9 C -1.6192 0.349039 -1.1493 0
M  V30 10 C -0.679871 -0.556189 -1.85381 0
M  V30 11 N 0.513316 -0.863819 -1.13434 0
M  V30 12 N 1.58849 -0.106339 -1.15304 0
M  V30 13 C 2.562 -0.64032 -0.360068 0
M  V30 14 C 2.0841 -1.78386 0.180186 0
M  V30 15 C 2.60894 -2.74434 1.02218 0
M  V30 16 N 3.933 -2.68779 1.52913 0
M  V30 17 N 1.80182 -3.79942 1.33357 0
M  V30 18 C 0.553128 -3.90024 0.842198 0
M  V30 19 N 0.0545706 -2.96419 0.0248647 0
M  V30 20 C 0.776567 -1.89498 -0.333403 0
M  V30 21 C 3.88083 -0.048337 -0.193586 0
M  V30 22 C 4.71017 0.177368 -1.2845 0
M  V30 23 C 5.92103 0.791512 -1.13446 0
M  V30 24 C 6.32265 1.19237 0.122584 0
M  V30 25 N 7.41472 1.80369 0.61204 0
M  V30 26 C 7.26955 1.95228 1.95333 0
M  V30 27 N 8.24775 2.56432 2.78613 0
M  V30 28 O 6.11648 1.44689 2.29365 0
M  V30 29 C 5.52303 0.983363 1.22416 0
M  V30 30 C 4.29128 0.35573 1.05073 0
M  V30 31 C -1.1732 1.63692 -0.798712 0
M  V30 32 C -1.97484 2.52187 -0.138182 0
M  V30 33 C -1.47542 3.78527 0.182618 0
M  V30 34 C -2.29103 4.6686 0.847914 0
M  V30 35 C -3.55873 4.28805 1.17431 0
M  V30 36 C -4.07633 3.01958 0.858341 0
M  V30 37 C -5.44264 2.64184 1.22326 0
M  V30 38 C -3.25517 2.13253 0.189431 0
M  V30 39 C -3.64893 0.888484 -0.163714 0
M  V30 40 O -4.7931 0.508087 0.114426 0
M  V30 41 H -2.75925 -2.79523 1.68072 0
M  V30 42 H -2.56711 -1.07185 1.30459 0
M  V30 43 H -4.17821 -1.75686 1.9063 0
M  V30 44 H -3.55871 -0.87279 -3.23694 0
M  V30 45 H -4.55983 -3.04193 -3.81717 0
M  V30 46 H -4.95788 -4.68834 -1.96098 0
M  V30 47 H -4.34985 -4.10685 0.354855 0
M  V30 48 H -1.23979 -1.46346 -2.15499 0
M  V30 49 H -0.45764 -0.0378418 -2.83729 0
M  V30 50 H 4.06582 -2.41938 2.52629 0
M  V30 51 H 4.7861 -2.89701 0.971046 0
M  V30 52 H -0.0256567 -4.76641 1.13578 0
M  V30 53 H 4.37174 -0.146433 -2.25811 0
M  V30 54 H 6.59845 0.984895 -1.97028 0
M  V30 55 H 9.16502 2.11113 2.95857 0
M  V30 56 H 8.05583 3.47749 3.23486 0
M  V30 57 H 3.65768 0.214891 1.93714 0
M  V30 58 H -0.167189 1.90391 -1.07198 0
M  V30 59 H -0.46304 4.04633 -0.0953275 0
M  V30 60 H -1.92617 5.66963 1.11377 0
M  V30 61 H -4.18407 5.00486 1.70037 0
M  V30 62 H -5.88584 3.5366 1.76294 0
M  V30 63 H -5.5203 1.85242 2.0098 0
M  V30 64 H -6.14694 2.51412 0.379936 0
M  V30 END ATOM
M  V30 BEGIN BOND
M  V30 1 1 1 2
M  V30 2 2 2 3
M  V30 3 1 3 4
M  V30 4 2 4 5
M  V30 5 1 5 6
M  V30 6 2 6 7
M  V30 7 1 3 8
M  V30 8 1 8 9
M  V30 9 1 9 10
M  V30 10 1 10 11
M  V30 11 1 11 12
M  V30 12 2 12 13
M  V30 13 1 13 14
M  V30 14 2 14 15
M  V30 15 1 15 16
M  V30 16 1 15 17
M  V30 17 2 17 18
M  V30 18 1 18 19
M  V30 19 2 19 20
M  V30 20 1 13 21
M  V30 21 2 21 22
M  V30 22 1 22 23
M  V30 23 2 23 24
M  V30 24 1 24 25
M  V30 25 2 25 26
M  V30 26 1 26 27
M  V30 27 1 26 28
M  V30 28 1 28 29
M  V30 29 2 29 30
M  V30 30 2 9 31
M  V30 31 1 31 32
M  V30 32 2 32 33
M  V30 33 1 33 34
M  V30 34 2 34 35
M  V30 35 1 35 36
M  V30 36 1 36 37
M  V30 37 2 36 38
M  V30 38 1 38 39
M  V30 39 2 39 40
M  V30 40 1 7 2
M  V30 41 1 39 8
M  V30 42 1 20 11
M  V30 43 1 30 21
M  V30 44 1 38 32
M  V30 45 1 20 14
M  V30 46 1 29 24
M  V30 47 1 1 41
M  V30 48 1 1 42
M  V30 49 1 1 43
M  V30 50 1 4 44
M  V30 51 1 5 45
M  V30 52 1 6 46
M  V30 53 1 7 47
M  V30 54 1 10 48
M  V30 55 1 10 49
M  V30 56 1 16 50
M  V30 57 1 16 51
M  V30 58 1 18 52
M  V30 59 1 22 53
M  V30 60 1 23 54
M  V30 61 1 27 55
M  V30 62 1 27 56
M  V30 63 1 30 57
M  V30 64 1 31 58
M  V30 65 1 33 59
M  V30 66 1 34 60
M  V30 67 1 35 61
M  V30 68 1 37 62
M  V30 69 1 37 63
M  V30 70 1 37 64
M  V30 END BOND
M  V30 END CTAB
M  END
