
     RDKit          3D

  0  0  0  0  0  0  0  0  0  0999 V3000
M  V30 BEGIN CTAB
M  V30 COUNTS 17 17 0 0 0
M  V30 BEGIN ATOM
M  V30 1 N 2.88108 -0.403371 0.150621 0
M  V30 2 C 1.46818 -0.281304 0.0518238 0
M  V30 3 C 0.814298 0.896477 0.351756 0
M  V30 4 C -0.563467 0.99604 0.249412 0
M  V30 5 O -1.23227 2.17028 0.546815 0
M  V30 6 C -1.34458 -0.0759854 -0.156481 0
M  V30 7 C -0.682154 -1.25161 -0.454923 0
M  V30 8 C 0.691235 -1.34907 -0.352355 0
M  V30 9 F -1.39195 -2.33266 -0.856715 0
M  V30 10 N -2.7525 0.0141087 -0.264656 0
M  V30 11 H 3.55643 -0.0513715 -0.543027 0
M  V30 12 H 3.28024 -0.895348 1.00452 0
M  V30 13 H 1.4126 1.73396 0.667704 0
M  V30 14 H -0.809349 3.02159 0.850089 0
M  V30 15 H 1.22374 -2.27887 -0.58756 0
M  V30 16 H -3.17922 -0.112013 -1.19804 0
M  V30 17 H -3.3723 0.199146 0.541014 0
M  V30 END ATOM
M  V30 BEGIN BOND
M  V30 1 1 1 2
M  V30 2 2 2 3
M  V30 3 1 3 4
M  V30 4 1 4 5
M  V30 5 2 4 6
M  V30 6 1 6 7
M  V30 7 2 7 8
M  V30 8 1 7 9
M  V30 9 1 6 10
M  V30 10 1 8 2
M  V30 11 1 1 11
M  V30 12 1 1 12
M  V30 13 1 3 13
M  V30 14 1 5 14
M  V30 15 1 8 15
M  V30 16 1 10 16
M  V30 17 1 10 17
M  V30 END BOND
M  V30 END CTAB
M  END
