
     RDKit          3D

  0  0  0  0  0  0  0  0  0  0999 V3000
M  V30 BEGIN CTAB
M  V30 COUNTS 45 46 0 0 0
M  V30 BEGIN ATOM
M  V30 1 O -1.42962 -0.822199 -1.92697 0
M  V30 2 C -0.866817 -0.192265 -1.01303 0
M  V30 3 C 0.599388 -0.438108 -0.778514 0
M  V30 4 C 1.39691 0.82084 -0.947099 0
M  V30 5 C 2.84878 0.50583 -0.821435 0
M  V30 6 C 3.55135 1.34102 0.201457 0
M  V30 7 C 3.22328 1.02488 1.60838 0
M  V30 8 C 2.83833 -0.355633 1.93661 0
M  V30 9 C 2.30278 -1.18646 0.81074 0
M  V30 10 C 0.828641 -0.966466 0.610503 0
M  V30 11 C 3.10673 -0.93519 -0.436056 0
M  V30 12 N 4.51624 -1.02077 -0.0664944 0
M  V30 13 N -1.57777 0.724025 -0.219967 0
M  V30 14 C -2.93966 1.10064 -0.243172 0
M  V30 15 C -4.01191 0.155405 0.0861668 0
M  V30 16 N -5.28343 0.952123 -0.0232237 0
M  V30 17 C -3.99634 -0.292899 1.54358 0
M  V30 18 C -4.23476 -1.02288 -0.78222 0
M  V30 19 H 0.95547 -1.17205 -1.52265 0
M  V30 20 H 1.09124 1.5387 -0.155139 0
M  V30 21 H 1.1439 1.31331 -1.9119 0
M  V30 22 H 3.32737 0.661017 -1.80586 0
M  V30 23 H 3.32316 2.41669 -0.0388376 0
M  V30 24 H 4.65484 1.24321 0.00236578 0
M  V30 25 H 2.42664 1.74765 1.94412 0
M  V30 26 H 4.11766 1.30851 2.23301 0
M  V30 27 H 2.06676 -0.359043 2.73746 0
M  V30 28 H 3.71194 -0.912976 2.38866 0
M  V30 29 H 2.43325 -2.26763 1.0638 0
M  V30 30 H 0.498807 -0.158764 1.31769 0
M  V30 31 H 0.210129 -1.84857 0.847402 0
M  V30 32 H 2.92579 -1.64406 -1.2383 0
M  V30 33 H 5.13363 -0.980172 -0.90651 0
M  V30 34 H 4.7299 -1.92752 0.40953 0
M  V30 35 H -0.979128 1.2307 0.544061 0
M  V30 36 H -3.11967 2.05744 0.334262 0
M  V30 37 H -3.16527 1.4579 -1.31798 0
M  V30 38 H -6.00495 0.370015 0.466315 0
M  V30 39 H -5.14591 1.80124 0.569548 0
M  V30 40 H -5.03136 -0.610735 1.81366 0
M  V30 41 H -3.70376 0.523243 2.21416 0
M  V30 42 H -3.36436 -1.18993 1.60373 0
M  V30 43 H -5.30566 -1.38088 -0.552537 0
M  V30 44 H -3.58764 -1.86486 -0.502171 0
M  V30 45 H -4.2149 -0.744319 -1.83882 0
M  V30 END ATOM
M  V30 BEGIN BOND
M  V30 1 2 1 2
M  V30 2 1 2 3
M  V30 3 1 3 4
M  V30 4 1 4 5
M  V30 5 1 5 6
M  V30 6 1 6 7
M  V30 7 1 7 8
M  V30 8 1 8 9
M  V30 9 1 9 10
M  V30 10 1 9 11
M  V30 11 1 11 12
M  V30 12 1 2 13
M  V30 13 1 13 14
M  V30 14 1 14 15
M  V30 15 1 15 16
M  V30 16 1 15 17
M  V30 17 1 15 18
M  V30 18 1 10 3
M  V30 19 1 11 5
M  V30 20 1 3 19
M  V30 21 1 4 20
M  V30 22 1 4 21
M  V30 23 1 5 22
M  V30 24 1 6 23
M  V30 25 1 6 24
M  V30 26 1 7 25
M  V30 27 1 7 26
M  V30 28 1 8 27
M  V30 29 1 8 28
M  V30 30 1 9 29
M  V30 31 1 10 30
M  V30 32 1 10 31
M  V30 33 1 11 32
M  V30 34 1 12 33
M  V30 35 1 12 34
M  V30 36 1 13 35
M  V30 37 1 14 36
M  V30 38 1 14 37
M  V30 39 1 16 38
M  V30 40 1 16 39
M  V30 41 1 17 40
M  V30 42 1 17 41
M  V30 43 1 17 42
M  V30 44 1 18 43
M  V30 45 1 18 44
M  V30 46 1 18 45
M  V30 END BOND
M  V30 END CTAB
M  END
