
     RDKit          3D

  0  0  0  0  0  0  0  0  0  0999 V3000
M  V30 BEGIN CTAB
M  V30 COUNTS 46 45 0 0 0
M  V30 BEGIN ATOM
M  V30 1 C 5.22945 0.610254 1.11245 0
M  V30 2 C 4.18472 1.39244 0.353231 0
M  V30 3 C 2.81255 0.870752 0.525955 0
M  V30 4 C 2.54708 -0.537763 0.121586 0 CFG=1
M  V30 5 C 1.10649 -0.804182 0.417993 0
M  V30 6 O 0.765457 -0.366827 1.59303 0
M  V30 7 N 0.16738 -1.43632 -0.399131 0
M  V30 8 C -1.18922 -1.55726 0.122268 0
M  V30 9 C -2.03111 -0.336735 -0.273626 0
M  V30 10 C -3.40131 -0.563271 0.310883 0
M  V30 11 C -4.35224 0.562444 0.00413698 0
M  V30 12 C -5.68873 0.253271 0.623284 0
M  V30 13 C -3.81277 1.90881 0.408086 0
M  V30 14 N -3.30026 -0.87525 1.69686 0
M  V30 15 C 0.435176 -1.97824 -1.69094 0
M  V30 16 N 2.85367 -0.888811 -1.21627 0
M  V30 17 C 4.57297 1.52603 -1.07554 0
M  V30 18 H 4.91727 0.336338 2.11853 0
M  V30 19 H 5.51901 -0.27049 0.477403 0
M  V30 20 H 6.1327 1.24585 1.18315 0
M  V30 21 H 4.24672 2.43792 0.828257 0
M  V30 22 H 2.079 1.51702 -0.0364445 0
M  V30 23 H 2.5187 1.04591 1.60393 0
M  V30 24 H 3.09741 -1.27278 0.775058 0
M  V30 25 H -1.2223 -1.62624 1.21629 0
M  V30 26 H -1.63969 -2.48261 -0.289349 0
M  V30 27 H -2.07013 -0.21485 -1.36611 0
M  V30 28 H -1.60949 0.584783 0.16782 0
M  V30 29 H -3.81857 -1.47397 -0.206007 0
M  V30 30 H -4.48974 0.582787 -1.09715 0
M  V30 31 H -6.51447 0.43938 -0.11556 0
M  V30 32 H -5.84299 0.831606 1.55558 0
M  V30 33 H -5.74406 -0.828786 0.853607 0
M  V30 34 H -3.39595 2.47262 -0.458103 0
M  V30 35 H -4.62653 2.53931 0.822782 0
M  V30 36 H -2.98796 1.83323 1.14525 0
M  V30 37 H -3.62211 -0.139426 2.34642 0
M  V30 38 H -3.6375 -1.82967 1.94894 0
M  V30 39 H 0.650653 -1.22985 -2.48058 0
M  V30 40 H 1.23958 -2.74795 -1.71821 0
M  V30 41 H -0.480972 -2.56704 -2.04403 0
M  V30 42 H 2.69656 -0.197707 -1.94838 0
M  V30 43 H 3.67994 -1.49805 -1.34455 0
M  V30 44 H 5.40835 2.28056 -1.11757 0
M  V30 45 H 3.69839 1.89907 -1.65331 0
M  V30 46 H 4.91891 0.553694 -1.46858 0
M  V30 END ATOM
M  V30 BEGIN BOND
M  V30 1 1 1 2
M  V30 2 1 2 3
M  V30 3 1 3 4
M  V30 4 1 4 5
M  V30 5 2 5 6
M  V30 6 1 5 7
M  V30 7 1 7 8
M  V30 8 1 8 9
M  V30 9 1 9 10
M  V30 10 1 10 11
M  V30 11 1 11 12
M  V30 12 1 11 13
M  V30 13 1 10 14
M  V30 14 1 7 15
M  V30 15 1 4 16
M  V30 16 1 2 17
M  V30 17 1 1 18
M  V30 18 1 1 19
M  V30 19 1 1 20
M  V30 20 1 2 21
M  V30 21 1 3 22
M  V30 22 1 3 23
M  V30 23 1 4 24 CFG=1
M  V30 24 1 8 25
M  V30 25 1 8 26
M  V30 26 1 9 27
M  V30 27 1 9 28
M  V30 28 1 10 29
M  V30 29 1 11 30
M  V30 30 1 12 31
M  V30 31 1 12 32
M  V30 32 1 12 33
M  V30 33 1 13 34
M  V30 34 1 13 35
M  V30 35 1 13 36
M  V30 36 1 14 37
M  V30 37 1 14 38
M  V30 38 1 15 39
M  V30 39 1 15 40
M  V30 40 1 15 41
M  V30 41 1 16 42
M  V30 42 1 16 43
M  V30 43 1 17 44
M  V30 44 1 17 45
M  V30 45 1 17 46
M  V30 END BOND
M  V30 END CTAB
M  END
