
     RDKit          3D

  0  0  0  0  0  0  0  0  0  0999 V3000
M  V30 BEGIN CTAB
M  V30 COUNTS 187 190 0 0 0
M  V30 BEGIN ATOM
M  V30 1 C 13.9647 0.851595 0.0383073 0
M  V30 2 C 14.7654 -0.37856 -0.299207 0
M  V30 3 C 15.1425 -0.510548 -1.72974 0
M  V30 4 C 15.9698 0.698397 -2.19683 0
M  V30 5 C 14.1408 -0.973972 -2.69317 0
M  V30 6 N 14.8234 -1.01872 -4.01467 0
M  V30 7 C 12.908 -0.18729 -2.85996 0
M  V30 8 N 11.7015 -0.530971 -2.76018 0
M  V30 9 C 10.674 0.355124 -2.95526 0
M  V30 10 C 11.1171 1.54097 -3.8376 0
M  V30 11 S 12.8535 1.56986 -3.30918 0
M  V30 12 C 10.0374 0.813381 -1.737 0
M  V30 13 O 9.37079 1.90971 -1.8448 0
M  V30 14 N 10.0635 0.216111 -0.481058 0
M  V30 15 C 9.42572 0.747419 0.681409 0
M  V30 16 C 10.3729 0.8854 1.85185 0
M  V30 17 C 11.0311 -0.372569 2.2879 0
M  V30 18 C 10.1008 -1.46467 2.72238 0
M  V30 19 C 11.9539 -0.115257 3.4992 0
M  V30 20 C 8.11643 0.162812 1.04088 0
M  V30 21 O 7.73864 -0.910404 0.561552 0
M  V30 22 N 7.25398 0.844944 1.95906 0
M  V30 23 C 5.95092 0.320131 2.37147 0 CFG=1
M  V30 24 C 5.55453 0.865585 3.67218 0
M  V30 25 C 4.22136 0.401038 4.15863 0
M  V30 26 C 3.94491 0.993006 5.53049 0
M  V30 27 O 2.76589 0.767517 6.2057 0
M  V30 28 O 4.82313 1.70983 6.05951 0
M  V30 29 C 4.94548 0.604915 1.28146 0
M  V30 30 O 5.20511 1.5731 0.494046 0
M  V30 31 N 3.8113 -0.194932 1.17516 0
M  V30 32 C 2.8305 -0.0482295 0.161813 0
M  V30 33 C 3.00774 -1.01588 -0.98956 0
M  V30 34 C 4.38083 -0.763128 -1.62095 0
M  V30 35 C 2.83729 -2.45363 -0.657033 0
M  V30 36 C 3.77656 -3.03513 0.339732 0
M  V30 37 C 1.43555 0.0371577 0.603506 0
M  V30 38 O 1.23267 0.56754 1.7581 0
M  V30 39 N 0.351923 -0.42705 -0.161732 0
M  V30 40 C -1.03119 -0.324419 0.311278 0 CFG=2
M  V30 41 C -1.51857 -1.6395 0.874924 0
M  V30 42 C -1.28033 -2.82662 0.0163099 0
M  V30 43 C -2.49176 -3.50256 -0.535644 0
M  V30 44 C -3.40154 -4.12301 0.499571 0
M  V30 45 N -4.47027 -3.25763 0.934084 0
M  V30 46 C -5.62341 -2.90304 0.222301 0
M  V30 47 O -5.7658 -1.648 -0.0531106 0
M  V30 48 C -6.71323 -3.78633 -0.257721 0 CFG=2
M  V30 49 C -6.93484 -3.52577 -1.72224 0
M  V30 50 C -7.97622 -4.32651 -2.34271 0
M  V30 51 O -8.27165 -4.18162 -3.68325 0
M  V30 52 O -8.62081 -5.16396 -1.66902 0
M  V30 53 N -7.91394 -3.71849 0.545044 0
M  V30 54 C -8.55015 -2.6112 1.10366 0
M  V30 55 O -8.70729 -2.63898 2.38311 0
M  V30 56 C -9.08694 -1.38607 0.45753 0
M  V30 57 N -9.22861 -0.333637 1.44631 0
M  V30 58 C -9.81294 0.917329 1.36461 0
M  V30 59 O -10.824 1.09966 2.17133 0
M  V30 60 C -9.47288 2.0791 0.515245 0 CFG=2
M  V30 61 C -10.2819 2.25732 -0.70964 0
M  V30 62 C -11.7007 2.51041 -0.393274 0
M  V30 63 C -12.6922 1.59057 -0.259436 0
M  V30 64 C -13.9685 1.98078 0.0347812 0
M  V30 65 C -14.3026 3.32876 0.206505 0
M  V30 66 C -13.2979 4.25172 0.0697174 0
M  V30 67 C -12.0347 3.86128 -0.220612 0
M  V30 68 N -8.09596 2.48096 0.500934 0
M  V30 69 C -7.20692 2.9851 -0.424237 0
M  V30 70 O -7.11111 4.3118 -0.427052 0
M  V30 71 C -6.29172 2.46649 -1.44206 0
M  V30 72 N -4.95704 3.10524 -1.30929 0
M  V30 73 C -4.09284 3.07176 -0.230313 0
M  V30 74 O -3.69915 4.18341 0.244084 0
M  V30 75 C -3.52817 1.89592 0.486521 0
M  V30 76 C -4.41714 1.37163 1.56712 0
M  V30 77 C -4.71235 2.333 2.66813 0
M  V30 78 C -3.45143 2.72675 3.3958 0
M  V30 79 N -2.76115 1.59534 3.98644 0
M  V30 80 N -3.1973 0.828724 -0.44581 0
M  V30 81 C -1.94588 0.258996 -0.687405 0
M  V30 82 O -1.48956 0.20732 -1.87826 0
M  V30 83 C -6.7384 2.659 -2.86966 0
M  V30 84 C -7.01083 4.10554 -3.23175 0
M  V30 85 C -7.62421 1.65442 -3.4714 0
M  V30 86 C -6.8822 0.304129 -3.41653 0
M  V30 87 C -10.4361 -1.85725 -0.056391 0
M  V30 88 C -11.5232 -2.19363 0.70607 0
M  V30 89 C -12.5721 -2.57816 -0.114837 0
M  V30 90 C -12.085 -2.46271 -1.39606 0
M  V30 91 N -10.7988 -2.02725 -1.33584 0
M  V30 92 H 14.4748 1.78105 -0.3097 0
M  V30 93 H 12.9175 0.807886 -0.253248 0
M  V30 94 H 13.9807 0.941465 1.17208 0
M  V30 95 H 15.6672 -0.350784 0.383272 0
M  V30 96 H 14.1725 -1.24303 0.0757232 0
M  V30 97 H 15.9537 -1.3387 -1.7281 0
M  V30 98 H 15.3324 1.61263 -2.15271 0
M  V30 99 H 16.8186 0.841478 -1.50168 0
M  V30 100 H 16.3495 0.466632 -3.19896 0
M  V30 101 H 13.8621 -2.01952 -2.44623 0
M  V30 102 H 15.6266 -1.6695 -3.85661 0
M  V30 103 H 14.1302 -1.37883 -4.68764 0
M  V30 104 H 9.89474 -0.14808 -3.64175 0
M  V30 105 H 10.5624 2.46371 -3.58213 0
M  V30 106 H 11.0821 1.28139 -4.91509 0
M  V30 107 H 10.5932 -0.704535 -0.374719 0
M  V30 108 H 9.15585 1.82316 0.391316 0
M  V30 109 H 11.1665 1.63213 1.64667 0
M  V30 110 H 9.81331 1.30897 2.72581 0
M  V30 111 H 11.7184 -0.794209 1.51894 0
M  V30 112 H 9.15917 -1.11102 3.14502 0
M  V30 113 H 10.6496 -2.11649 3.46812 0
M  V30 114 H 9.96808 -2.14597 1.82689 0
M  V30 115 H 12.6817 0.662792 3.23012 0
M  V30 116 H 12.5032 -1.05059 3.66918 0
M  V30 117 H 11.3486 0.163565 4.38576 0
M  V30 118 H 7.55204 1.75343 2.3549 0
M  V30 119 H 6.00529 -0.783097 2.37945 0
M  V30 120 H 6.32579 0.581786 4.4496 0
M  V30 121 H 5.51965 1.99028 3.68082 0
M  V30 122 H 4.09632 -0.682951 4.26373 0
M  V30 123 H 3.39584 0.765842 3.48098 0
M  V30 124 H 2.39228 -0.167231 6.23918 0
M  V30 125 H 3.65148 -0.94786 1.88852 0
M  V30 126 H 3.0571 0.965169 -0.333827 0
M  V30 127 H 2.29522 -0.738315 -1.77838 0
M  V30 128 H 4.3748 0.287141 -1.95812 0
M  V30 129 H 5.21164 -0.913494 -0.934885 0
M  V30 130 H 4.45475 -1.39209 -2.55228 0
M  V30 131 H 2.93686 -3.01797 -1.62558 0
M  V30 132 H 1.80533 -2.60073 -0.255905 0
M  V30 133 H 4.06825 -4.06598 -0.0248483 0
M  V30 134 H 4.73286 -2.50706 0.445649 0
M  V30 135 H 3.30162 -3.25535 1.34063 0
M  V30 136 H 0.454642 -0.853629 -1.08756 0
M  V30 137 H -0.983837 0.409845 1.1692 0
M  V30 138 H -2.5451 -1.53074 1.24253 0
M  V30 139 H -0.893454 -1.79235 1.81473 0
M  V30 140 H -0.711029 -3.64216 0.563523 0
M  V30 141 H -0.600648 -2.62337 -0.863533 0
M  V30 142 H -3.0367 -2.88436 -1.27192 0
M  V30 143 H -2.09431 -4.37694 -1.14073 0
M  V30 144 H -2.76531 -4.44506 1.33423 0
M  V30 145 H -3.89243 -5.04314 0.109613 0
M  V30 146 H -4.35079 -2.83973 1.91481 0
M  V30 147 H -6.26662 -4.83116 -0.227292 0
M  V30 148 H -7.07423 -2.43133 -1.91819 0
M  V30 149 H -5.94814 -3.7617 -2.21446 0
M  V30 150 H -8.811 -3.39908 -4.06821 0
M  V30 151 H -8.35023 -4.69682 0.723167 0
M  V30 152 H -8.49604 -1.07296 -0.40502 0
M  V30 153 H -8.80077 -0.568105 2.41597 0
M  V30 154 H -9.937 3.0033 1.15991 0
M  V30 155 H -9.88622 3.11357 -1.28171 0
M  V30 156 H -10.1848 1.38973 -1.42261 0
M  V30 157 H -12.469 0.554344 -0.386509 0
M  V30 158 H -14.7718 1.29089 0.152165 0
M  V30 159 H -15.3115 3.63217 0.439021 0
M  V30 160 H -13.5287 5.31148 0.197341 0
M  V30 161 H -11.2716 4.65014 -0.320464 0
M  V30 162 H -7.69457 2.36704 1.544 0
M  V30 163 H -6.17185 1.3576 -1.3473 0
M  V30 164 H -4.66078 3.65138 -2.16065 0
M  V30 165 H -2.58678 2.22364 1.03086 0
M  V30 166 H -5.3349 0.883274 1.16642 0
M  V30 167 H -3.84562 0.521549 2.02892 0
M  V30 168 H -5.18779 3.27639 2.3309 0
M  V30 169 H -5.37389 1.82469 3.40238 0
M  V30 170 H -2.76442 3.32503 2.7782 0
M  V30 171 H -3.76504 3.42781 4.22472 0
M  V30 172 H -1.99514 1.33866 3.3242 0
M  V30 173 H -3.40749 0.7811 3.99464 0
M  V30 174 H -4.01354 0.465933 -0.986692 0
M  V30 175 H -5.73166 2.49333 -3.47976 0
M  V30 176 H -6.16999 4.72159 -2.91174 0
M  V30 177 H -7.99165 4.44601 -2.81812 0
M  V30 178 H -7.08861 4.13682 -4.3455 0
M  V30 179 H -7.68604 1.90332 -4.57276 0
M  V30 180 H -8.63191 1.53474 -3.12867 0
M  V30 181 H -7.25405 -0.213969 -2.50112 0
M  V30 182 H -7.08234 -0.300539 -4.30271 0
M  V30 183 H -5.79492 0.469628 -3.31916 0
M  V30 184 H -11.6151 -2.1861 1.7862 0
M  V30 185 H -13.5544 -2.90196 0.14788 0
M  V30 186 H -12.6311 -2.68118 -2.30314 0
M  V30 187 H -10.1977 -1.85644 -2.1528 0
M  V30 END ATOM
M  V30 BEGIN BOND
M  V30 1 1 1 2
M  V30 2 1 2 3
M  V30 3 1 3 4
M  V30 4 1 3 5
M  V30 5 1 5 6
M  V30 6 1 5 7
M  V30 7 2 7 8
M  V30 8 1 8 9
M  V30 9 1 9 10
M  V30 10 1 10 11
M  V30 11 1 9 12
M  V30 12 2 12 13
M  V30 13 1 12 14
M  V30 14 1 14 15
M  V30 15 1 15 16
M  V30 16 1 16 17
M  V30 17 1 17 18
M  V30 18 1 17 19
M  V30 19 1 15 20
M  V30 20 2 20 21
M  V30 21 1 20 22
M  V30 22 1 22 23
M  V30 23 1 23 24
M  V30 24 1 24 25
M  V30 25 1 25 26
M  V30 26 1 26 27
M  V30 27 2 26 28
M  V30 28 1 23 29
M  V30 29 2 29 30
M  V30 30 1 29 31
M  V30 31 1 31 32
M  V30 32 1 32 33
M  V30 33 1 33 34
M  V30 34 1 33 35
M  V30 35 1 35 36
M  V30 36 1 32 37
M  V30 37 2 37 38
M  V30 38 1 37 39
M  V30 39 1 39 40
M  V30 40 1 40 41
M  V30 41 1 41 42
M  V30 42 1 42 43
M  V30 43 1 43 44
M  V30 44 1 44 45
M  V30 45 1 45 46
M  V30 46 2 46 47
M  V30 47 1 46 48
M  V30 48 1 48 49
M  V30 49 1 49 50
M  V30 50 1 50 51
M  V30 51 2 50 52
M  V30 52 1 48 53
M  V30 53 1 53 54
M  V30 54 2 54 55
M  V30 55 1 54 56
M  V30 56 1 56 57
M  V30 57 1 57 58
M  V30 58 2 58 59
M  V30 59 1 58 60
M  V30 60 1 60 61
M  V30 61 1 61 62
M  V30 62 2 62 63
M  V30 63 1 63 64
M  V30 64 2 64 65
M  V30 65 1 65 66
M  V30 66 2 66 67
M  V30 67 1 60 68
M  V30 68 1 68 69
M  V30 69 2 69 70
M  V30 70 1 69 71
M  V30 71 1 71 72
M  V30 72 1 72 73
M  V30 73 2 73 74
M  V30 74 1 73 75
M  V30 75 1 75 76
M  V30 76 1 76 77
M  V30 77 1 77 78
M  V30 78 1 78 79
M  V30 79 1 75 80
M  V30 80 1 80 81
M  V30 81 2 81 82
M  V30 82 1 71 83
M  V30 83 1 83 84
M  V30 84 1 83 85
M  V30 85 1 85 86
M  V30 86 1 56 87
M  V30 87 2 87 88
M  V30 88 1 88 89
M  V30 89 2 89 90
M  V30 90 1 90 91
M  V30 91 1 11 7
M  V30 92 1 81 40
M  V30 93 1 91 87
M  V30 94 1 67 62
M  V30 95 1 1 92
M  V30 96 1 1 93
M  V30 97 1 1 94
M  V30 98 1 2 95
M  V30 99 1 2 96
M  V30 100 1 3 97
M  V30 101 1 4 98
M  V30 102 1 4 99
M  V30 103 1 4 100
M  V30 104 1 5 101
M  V30 105 1 6 102
M  V30 106 1 6 103
M  V30 107 1 9 104
M  V30 108 1 10 105
M  V30 109 1 10 106
M  V30 110 1 14 107
M  V30 111 1 15 108
M  V30 112 1 16 109
M  V30 113 1 16 110
M  V30 114 1 17 111
M  V30 115 1 18 112
M  V30 116 1 18 113
M  V30 117 1 18 114
M  V30 118 1 19 115
M  V30 119 1 19 116
M  V30 120 1 19 117
M  V30 121 1 22 118
M  V30 122 1 23 119 CFG=1
M  V30 123 1 24 120
M  V30 124 1 24 121
M  V30 125 1 25 122
M  V30 126 1 25 123
M  V30 127 1 27 124
M  V30 128 1 31 125
M  V30 129 1 32 126
M  V30 130 1 33 127
M  V30 131 1 34 128
M  V30 132 1 34 129
M  V30 133 1 34 130
M  V30 134 1 35 131
M  V30 135 1 35 132
M  V30 136 1 36 133
M  V30 137 1 36 134
M  V30 138 1 36 135
M  V30 139 1 39 136
M  V30 140 1 40 137 CFG=1
M  V30 141 1 41 138
M  V30 142 1 41 139
M  V30 143 1 42 140
M  V30 144 1 42 141
M  V30 145 1 43 142
M  V30 146 1 43 143
M  V30 147 1 44 144
M  V30 148 1 44 145
M  V30 149 1 45 146
M  V30 150 1 48 147 CFG=3
M  V30 151 1 49 148
M  V30 152 1 49 149
M  V30 153 1 51 150
M  V30 154 1 53 151
M  V30 155 1 56 152
M  V30 156 1 57 153
M  V30 157 1 60 154 CFG=1
M  V30 158 1 61 155
M  V30 159 1 61 156
M  V30 160 1 63 157
M  V30 161 1 64 158
M  V30 162 1 65 159
M  V30 163 1 66 160
M  V30 164 1 67 161
M  V30 165 1 68 162
M  V30 166 1 71 163
M  V30 167 1 72 164
M  V30 168 1 75 165
M  V30 169 1 76 166
M  V30 170 1 76 167
M  V30 171 1 77 168
M  V30 172 1 77 169
M  V30 173 1 78 170
M  V30 174 1 78 171
M  V30 175 1 79 172
M  V30 176 1 79 173
M  V30 177 1 80 174
M  V30 178 1 83 175
M  V30 179 1 84 176
M  V30 180 1 84 177
M  V30 181 1 84 178
M  V30 182 1 85 179
M  V30 183 1 85 180
M  V30 184 1 86 181
M  V30 185 1 86 182
M  V30 186 1 86 183
M  V30 187 1 88 184
M  V30 188 1 89 185
M  V30 189 1 90 186
M  V30 190 1 91 187
M  V30 END BOND
M  V30 END CTAB
M  END
