
     RDKit          3D

  0  0  0  0  0  0  0  0  0  0999 V3000
M  V30 BEGIN CTAB
M  V30 COUNTS 24 24 0 0 0
M  V30 BEGIN ATOM
M  V30 1 N -2.695 -1.35451 -0.870853 0
M  V30 2 C -2.57286 -0.160886 -0.0817941 0
M  V30 3 C -1.46015 0.741611 -0.429669 0
M  V30 4 N -1.53142 1.90909 0.481099 0
M  V30 5 C -0.091214 0.24518 -0.291853 0
M  V30 6 C 0.319919 -1.03757 -0.0717713 0
M  V30 7 C 1.68977 -1.2962 0.0203886 0
M  V30 8 C 2.65053 -0.330318 -0.0979066 0
M  V30 9 C 2.22786 0.957035 -0.318885 0
M  V30 10 C 0.900839 1.23472 -0.412621 0
M  V30 11 N 4.04211 -0.59349 -0.00418269 0 CHG=1
M  V30 12 O 4.49612 -1.86628 0.215623 0 CHG=-1
M  V30 13 O 4.85262 0.335968 -0.122208 0
M  V30 14 H -3.56135 -1.36223 -1.47954 0
M  V30 15 H -2.74757 -2.23088 -0.31048 0
M  V30 16 H -2.60746 -0.402297 1.01875 0
M  V30 17 H -3.52497 0.429591 -0.246527 0
M  V30 18 H -1.65009 1.15606 -1.45494 0
M  V30 19 H -1.35178 1.49406 1.44106 0
M  V30 20 H -2.54401 2.1916 0.48577 0
M  V30 21 H -0.40963 -1.80058 0.028213 0
M  V30 22 H 1.99007 -2.31448 0.193911 0
M  V30 23 H 2.95736 1.7786 -0.42266 0
M  V30 24 H 0.620312 2.27619 -0.589099 0
M  V30 END ATOM
M  V30 BEGIN BOND
M  V30 1 1 1 2
M  V30 2 1 2 3
M  V30 3 1 3 4
M  V30 4 1 3 5
M  V30 5 2 5 6
M  V30 6 1 6 7
M  V30 7 2 7 8
M  V30 8 1 8 9
M  V30 9 2 9 10
M  V30 10 1 8 11
M  V30 11 1 11 12
M  V30 12 2 11 13
M  V30 13 1 10 5
M  V30 14 1 1 14
M  V30 15 1 1 15
M  V30 16 1 2 16
M  V30 17 1 2 17
M  V30 18 1 3 18
M  V30 19 1 4 19
M  V30 20 1 4 20
M  V30 21 1 6 21
M  V30 22 1 7 22
M  V30 23 1 9 23
M  V30 24 1 10 24
M  V30 END BOND
M  V30 END CTAB
M  END
