
     RDKit          3D

  0  0  0  0  0  0  0  0  0  0999 V3000
M  V30 BEGIN CTAB
M  V30 COUNTS 33 33 0 0 0
M  V30 BEGIN ATOM
M  V30 1 C 3.76234 0.652146 -0.49315 0
M  V30 2 C 2.52602 -0.273678 -0.514205 0
M  V30 3 C 1.28177 0.560188 -0.187935 0
M  V30 4 C 0.0606269 -0.270211 -0.213856 0
M  V30 5 C -1.22965 0.369908 0.0130597 0
M  V30 6 C -2.36898 -0.370908 -0.303101 0
M  V30 7 C -2.36893 -1.71333 -0.875447 0
M  V30 8 C -3.63518 0.198853 -0.0875581 0
M  V30 9 C -3.79533 1.44647 0.41719 0
M  V30 10 N -2.71049 2.1436 0.714006 0
M  V30 11 C -1.46602 1.61662 0.516111 0
M  V30 12 N -0.409702 2.45375 0.863227 0
M  V30 13 C 0.156295 -1.38078 0.871991 0
M  V30 14 N 2.7838 -1.34347 0.379181 0
M  V30 15 H 3.41565 1.59966 -0.983597 0
M  V30 16 H 4.54496 0.174743 -1.0936 0
M  V30 17 H 4.06471 0.914894 0.5233 0
M  V30 18 H 2.49087 -0.687035 -1.5383 0
M  V30 19 H 1.2343 1.35628 -0.925557 0
M  V30 20 H 1.51493 0.908925 0.862656 0
M  V30 21 H 0.0242866 -0.791057 -1.18766 0
M  V30 22 H -1.41355 -2.19246 -1.05788 0
M  V30 23 H -2.93631 -2.40782 -0.182566 0
M  V30 24 H -3.02713 -1.6779 -1.77947 0
M  V30 25 H -4.54001 -0.362109 -0.327307 0
M  V30 26 H -4.77256 1.89384 0.586025 0
M  V30 27 H -0.00589666 3.09192 0.136167 0
M  V30 28 H 0.0314553 2.50906 1.81717 0
M  V30 29 H 0.465003 -2.3407 0.436155 0
M  V30 30 H -0.88177 -1.5871 1.28178 0
M  V30 31 H 0.718987 -1.03626 1.75016 0
M  V30 32 H 3.63695 -1.19129 0.936031 0
M  V30 33 H 2.84855 -2.26475 -0.0908145 0
M  V30 END ATOM
M  V30 BEGIN BOND
M  V30 1 1 1 2
M  V30 2 1 2 3
M  V30 3 1 3 4
M  V30 4 1 4 5
M  V30 5 2 5 6
M  V30 6 1 6 7
M  V30 7 1 6 8
M  V30 8 2 8 9
M  V30 9 1 9 10
M  V30 10 2 10 11
M  V30 11 1 11 12
M  V30 12 1 4 13
M  V30 13 1 2 14
M  V30 14 1 11 5
M  V30 15 1 1 15
M  V30 16 1 1 16
M  V30 17 1 1 17
M  V30 18 1 2 18
M  V30 19 1 3 19
M  V30 20 1 3 20
M  V30 21 1 4 21
M  V30 22 1 7 22
M  V30 23 1 7 23
M  V30 24 1 7 24
M  V30 25 1 8 25
M  V30 26 1 9 26
M  V30 27 1 12 27
M  V30 28 1 12 28
M  V30 29 1 13 29
M  V30 30 1 13 30
M  V30 31 1 13 31
M  V30 32 1 14 32
M  V30 33 1 14 33
M  V30 END BOND
M  V30 END CTAB
M  END
