
     RDKit          3D

  0  0  0  0  0  0  0  0  0  0999 V3000
M  V30 BEGIN CTAB
M  V30 COUNTS 33 33 0 0 0
M  V30 BEGIN ATOM
M  V30 1 C 3.96006 -0.265432 0.610888 0
M  V30 2 C 2.83507 -1.19834 0.132062 0
M  V30 3 C 3.45972 -2.04547 -0.961881 0
M  V30 4 O 1.80523 -0.393909 -0.302375 0
M  V30 5 C 0.536517 -0.243333 0.165225 0
M  V30 6 C 0.111528 -0.966259 1.24459 0
M  V30 7 C -1.1535 -0.863217 1.76703 0
M  V30 8 C -2.00832 0.0173745 1.15248 0
M  V30 9 C -1.59335 0.773147 0.0390386 0
M  V30 10 C -0.330111 0.667011 -0.478804 0
M  V30 11 N 0.144324 1.39919 -1.59429 0
M  V30 12 C -0.480001 2.33625 -2.39409 0
M  V30 13 N -1.79059 2.80375 -2.28381 0
M  V30 14 S 0.393526 3.00675 -3.63934 0
M  V30 15 S -3.62023 0.198237 1.75925 0
M  V30 16 N -4.74441 -0.86965 1.04467 0
M  V30 17 O -3.62288 0.064176 3.25806 0
M  V30 18 O -4.05357 1.62623 1.45859 0
M  V30 19 H 4.68624 -0.844288 1.18432 0
M  V30 20 H 4.38336 0.234091 -0.289886 0
M  V30 21 H 3.43701 0.510323 1.22545 0
M  V30 22 H 2.62701 -1.84408 1.0088 0
M  V30 23 H 4.1352 -1.37292 -1.53111 0
M  V30 24 H 2.68502 -2.41739 -1.67465 0
M  V30 25 H 4.06032 -2.86711 -0.573425 0
M  V30 26 H 0.764847 -1.68304 1.76649 0
M  V30 27 H -1.4497 -1.45328 2.62214 0
M  V30 28 H -2.29801 1.45035 -0.409452 0
M  V30 29 H 1.17281 1.18634 -1.86463 0
M  V30 30 H -2.5752 2.29359 -2.72627 0
M  V30 31 H -1.99457 3.67073 -1.75547 0
M  V30 32 H -5.12224 -1.49854 1.79514 0
M  V30 33 H -4.36112 -1.4113 0.245243 0
M  V30 END ATOM
M  V30 BEGIN BOND
M  V30 1 1 1 2
M  V30 2 1 2 3
M  V30 3 1 2 4
M  V30 4 1 4 5
M  V30 5 2 5 6
M  V30 6 1 6 7
M  V30 7 2 7 8
M  V30 8 1 8 9
M  V30 9 2 9 10
M  V30 10 1 10 11
M  V30 11 1 11 12
M  V30 12 1 12 13
M  V30 13 2 12 14
M  V30 14 1 8 15
M  V30 15 1 15 16
M  V30 16 2 15 17
M  V30 17 2 15 18
M  V30 18 1 10 5
M  V30 19 1 1 19
M  V30 20 1 1 20
M  V30 21 1 1 21
M  V30 22 1 2 22
M  V30 23 1 3 23
M  V30 24 1 3 24
M  V30 25 1 3 25
M  V30 26 1 6 26
M  V30 27 1 7 27
M  V30 28 1 9 28
M  V30 29 1 11 29
M  V30 30 1 13 30
M  V30 31 1 13 31
M  V30 32 1 16 32
M  V30 33 1 16 33
M  V30 END BOND
M  V30 END CTAB
M  END
