
     RDKit          3D

  0  0  0  0  0  0  0  0  0  0999 V3000
M  V30 BEGIN CTAB
M  V30 COUNTS 40 42 0 0 0
M  V30 BEGIN ATOM
M  V30 1 C 2.88514 3.13211 -0.783704 0
M  V30 2 N 2.48069 1.77397 -0.501199 0
M  V30 3 C 3.45063 0.820231 -0.390646 0
M  V30 4 O 4.66702 1.11112 -0.530261 0
M  V30 5 N 3.09481 -0.441381 -0.129643 0
M  V30 6 C 4.13296 -1.44225 -0.0150716 0
M  V30 7 C 1.80498 -0.769488 0.0220965 0
M  V30 8 C 0.790549 0.186981 -0.0858021 0
M  V30 9 C 1.18388 1.47414 -0.35427 0
M  V30 10 O 0.362801 2.40926 -0.471928 0
M  V30 11 C -0.527687 -0.15273 0.0694804 0
M  V30 12 C -0.820078 -1.48291 0.337952 0
M  V30 13 C -2.21773 -1.85184 0.500735 0
M  V30 14 N -2.33675 -3.25881 0.770591 0
M  V30 15 C 0.168895 -2.43338 0.446506 0
M  V30 16 N -0.0889313 -3.80104 0.719731 0
M  V30 17 N 1.46413 -2.02165 0.279533 0
M  V30 18 C -1.59999 0.789496 -0.0319315 0
M  V30 19 C -2.26428 1.07793 -1.22927 0
M  V30 20 Cl -1.74865 0.26155 -2.68891 0
M  V30 21 C -3.30344 1.97983 -1.28574 0
M  V30 22 C -3.72962 2.63693 -0.151258 0
M  V30 23 C -3.10231 2.38187 1.04888 0
M  V30 24 C -2.06457 1.47717 1.08871 0
M  V30 25 F -1.46123 1.24622 2.28353 0
M  V30 26 H 2.35063 3.78205 -0.0483887 0
M  V30 27 H 3.97678 3.24852 -0.666437 0
M  V30 28 H 2.60464 3.36046 -1.83029 0
M  V30 29 H 3.67184 -2.45132 -0.204683 0
M  V30 30 H 4.9397 -1.30011 -0.757505 0
M  V30 31 H 4.54351 -1.47133 0.996382 0
M  V30 32 H -2.88106 -1.51043 -0.317401 0
M  V30 33 H -2.60338 -1.29259 1.40576 0
M  V30 34 H -3.13232 -3.48285 1.41055 0
M  V30 35 H -2.54573 -3.81179 -0.113946 0
M  V30 36 H -0.243101 -4.48658 -0.0333432 0
M  V30 37 H -0.117508 -4.12114 1.70587 0
M  V30 38 H -3.81698 2.19873 -2.22779 0
M  V30 39 H -4.55228 3.35 -0.199457 0
M  V30 40 H -3.41596 2.88503 1.96256 0
M  V30 END ATOM
M  V30 BEGIN BOND
M  V30 1 1 1 2
M  V30 2 1 2 3
M  V30 3 2 3 4
M  V30 4 1 3 5
M  V30 5 1 5 6
M  V30 6 1 5 7
M  V30 7 2 7 8
M  V30 8 1 8 9
M  V30 9 2 9 10
M  V30 10 1 8 11
M  V30 11 2 11 12
M  V30 12 1 12 13
M  V30 13 1 13 14
M  V30 14 1 12 15
M  V30 15 1 15 16
M  V30 16 2 15 17
M  V30 17 1 11 18
M  V30 18 2 18 19
M  V30 19 1 19 20
M  V30 20 1 19 21
M  V30 21 2 21 22
M  V30 22 1 22 23
M  V30 23 2 23 24
M  V30 24 1 24 25
M  V30 25 1 9 2
M  V30 26 1 24 18
M  V30 27 1 17 7
M  V30 28 1 1 26
M  V30 29 1 1 27
M  V30 30 1 1 28
M  V30 31 1 6 29
M  V30 32 1 6 30
M  V30 33 1 6 31
M  V30 34 1 13 32
M  V30 35 1 13 33
M  V30 36 1 14 34
M  V30 37 1 14 35
M  V30 38 1 16 36
M  V30 39 1 16 37
M  V30 40 1 21 38
M  V30 41 1 22 39
M  V30 42 1 23 40
M  V30 END BOND
M  V30 END CTAB
M  END
