
     RDKit          3D

  0  0  0  0  0  0  0  0  0  0999 V3000
M  V30 BEGIN CTAB
M  V30 COUNTS 53 55 0 0 0
M  V30 BEGIN ATOM
M  V30 1 N -3.72775 -1.45057 1.2666 0
M  V30 2 C -4.20671 -0.409714 0.373867 0
M  V30 3 C -5.05077 0.513888 1.27015 0
M  V30 4 C -4.1808 1.61621 1.81535 0
M  V30 5 C -2.73618 1.27684 1.93713 0
M  V30 6 O -2.18074 0.625485 0.851267 0
M  V30 7 C -3.09986 0.454076 -0.146606 0
M  V30 8 C -2.53497 0.0326199 -1.47035 0
M  V30 9 C -1.43618 1.00287 -1.82318 0
M  V30 10 C -0.354817 0.319568 -2.59174 0
M  V30 11 N 0.298988 -0.627092 -1.66973 0
M  V30 12 C -0.603645 -1.53566 -1.01266 0
M  V30 13 C -2.0253 -1.35719 -1.52658 0
M  V30 14 C 1.67696 -0.567664 -1.5219 0
M  V30 15 O 2.34366 0.294197 -2.19202 0
M  V30 16 C 2.50761 -1.42171 -0.641299 0
M  V30 17 C 3.46897 -0.59615 0.148301 0
M  V30 18 C 4.77015 -0.42856 -0.290138 0
M  V30 19 C 5.68775 0.323919 0.411037 0
M  V30 20 C 5.33999 0.94563 1.59008 0
M  V30 21 C 4.04791 0.788214 2.03919 0
M  V30 22 C 3.11925 0.0249722 1.32679 0
M  V30 23 C 6.33777 1.76489 2.36 0
M  V30 24 N 1.76195 -2.33257 0.178869 0
M  V30 25 H -3.99562 -2.41162 0.965303 0
M  V30 26 H -3.91947 -1.26873 2.27154 0
M  V30 27 H -4.79603 -0.83181 -0.439025 0
M  V30 28 H -5.53353 -0.0700166 2.08354 0
M  V30 29 H -5.85666 0.909616 0.632587 0
M  V30 30 H -4.37193 2.58767 1.28948 0
M  V30 31 H -4.55495 1.80665 2.8654 0
M  V30 32 H -2.19575 2.25637 2.0978 0
M  V30 33 H -2.58371 0.638456 2.84111 0
M  V30 34 H -3.54252 1.48147 -0.333631 0
M  V30 35 H -3.35627 0.113064 -2.24139 0
M  V30 36 H -1.90885 1.82347 -2.41629 0
M  V30 37 H -1.01354 1.41237 -0.877446 0
M  V30 38 H -0.777587 -0.238038 -3.45968 0
M  V30 39 H 0.378429 1.04924 -2.95604 0
M  V30 40 H -0.299588 -2.57221 -1.30053 0
M  V30 41 H -0.62896 -1.36479 0.0726802 0
M  V30 42 H -2.65085 -2.08654 -0.986682 0
M  V30 43 H -2.00247 -1.73532 -2.58896 0
M  V30 44 H 3.12202 -2.0444 -1.36433 0
M  V30 45 H 5.0339 -0.92239 -1.21823 0
M  V30 46 H 6.7155 0.453422 0.0584667 0
M  V30 47 H 3.77392 1.27878 2.9714 0
M  V30 48 H 2.11445 -0.0798977 1.69967 0
M  V30 49 H 6.19325 1.45486 3.43233 0
M  V30 50 H 7.3603 1.55407 2.03212 0
M  V30 51 H 6.03551 2.81876 2.28321 0
M  V30 52 H 1.80061 -2.00949 1.1683 0
M  V30 53 H 2.23718 -3.25952 0.158629 0
M  V30 END ATOM
M  V30 BEGIN BOND
M  V30 1 1 1 2
M  V30 2 1 2 3
M  V30 3 1 3 4
M  V30 4 1 4 5
M  V30 5 1 5 6
M  V30 6 1 6 7
M  V30 7 1 7 8
M  V30 8 1 8 9
M  V30 9 1 9 10
M  V30 10 1 10 11
M  V30 11 1 11 12
M  V30 12 1 12 13
M  V30 13 1 11 14
M  V30 14 2 14 15
M  V30 15 1 14 16
M  V30 16 1 16 17
M  V30 17 2 17 18
M  V30 18 1 18 19
M  V30 19 2 19 20
M  V30 20 1 20 21
M  V30 21 2 21 22
M  V30 22 1 20 23
M  V30 23 1 16 24
M  V30 24 1 7 2
M  V30 25 1 13 8
M  V30 26 1 22 17
M  V30 27 1 1 25
M  V30 28 1 1 26
M  V30 29 1 2 27
M  V30 30 1 3 28
M  V30 31 1 3 29
M  V30 32 1 4 30
M  V30 33 1 4 31
M  V30 34 1 5 32
M  V30 35 1 5 33
M  V30 36 1 7 34
M  V30 37 1 8 35
M  V30 38 1 9 36
M  V30 39 1 9 37
M  V30 40 1 10 38
M  V30 41 1 10 39
M  V30 42 1 12 40
M  V30 43 1 12 41
M  V30 44 1 13 42
M  V30 45 1 13 43
M  V30 46 1 16 44
M  V30 47 1 18 45
M  V30 48 1 19 46
M  V30 49 1 21 47
M  V30 50 1 22 48
M  V30 51 1 23 49
M  V30 52 1 23 50
M  V30 53 1 23 51
M  V30 54 1 24 52
M  V30 55 1 24 53
M  V30 END BOND
M  V30 END CTAB
M  END
