
     RDKit          3D

  0  0  0  0  0  0  0  0  0  0999 V3000
M  V30 BEGIN CTAB
M  V30 COUNTS 17 17 0 0 0
M  V30 BEGIN ATOM
M  V30 1 N -1.78145 -1.33678 0.54761 0
M  V30 2 C -0.72919 -0.469854 0.213203 0
M  V30 3 C -1.05601 0.87264 0.0620471 0
M  V30 4 N -2.39702 1.31075 0.244104 0
M  V30 5 N -0.0510086 1.70513 -0.258069 0
M  V30 6 C 1.20911 1.2619 -0.424159 0
M  V30 7 C 1.5672 -0.0580091 -0.282442 0
M  V30 8 C 0.569534 -0.948513 0.0454825 0
M  V30 9 N 2.92355 -0.489909 -0.468365 0 CHG=1
M  V30 10 O 3.3092 -1.78185 -0.336241 0 CHG=-1
M  V30 11 O 3.78119 0.360933 -0.763773 0
M  V30 12 H -2.60782 -1.39238 -0.0735053 0
M  V30 13 H -1.73746 -1.91525 1.40254 0
M  V30 14 H -2.78192 1.55405 1.17854 0
M  V30 15 H -3.02625 1.39568 -0.5757 0
M  V30 16 H 2.02326 1.949 -0.685503 0
M  V30 17 H 0.785081 -2.01756 0.174233 0
M  V30 END ATOM
M  V30 BEGIN BOND
M  V30 1 1 1 2
M  V30 2 2 2 3
M  V30 3 1 3 4
M  V30 4 1 3 5
M  V30 5 2 5 6
M  V30 6 1 6 7
M  V30 7 2 7 8
M  V30 8 1 7 9
M  V30 9 1 9 10
M  V30 10 2 9 11
M  V30 11 1 8 2
M  V30 12 1 1 12
M  V30 13 1 1 13
M  V30 14 1 4 14
M  V30 15 1 4 15
M  V30 16 1 6 16
M  V30 17 1 8 17
M  V30 END BOND
M  V30 END CTAB
M  END
