
     RDKit          3D

  0  0  0  0  0  0  0  0  0  0999 V3000
M  V30 BEGIN CTAB
M  V30 COUNTS 29 31 0 0 0
M  V30 BEGIN ATOM
M  V30 1 N -5.59586 0.0474928 -0.578117 0
M  V30 2 C -4.19061 -0.0480111 -0.360259 0
M  V30 3 N -3.30124 0.661314 -1.0785 0
M  V30 4 C -1.96743 0.578452 -0.880375 0
M  V30 5 C -1.46803 -0.260667 0.0925561 0
M  V30 6 N -0.13622 -0.393151 0.345734 0
M  V30 7 C 0.694138 0.3402 -0.403902 0
M  V30 8 C 0.206913 1.18093 -1.37768 0
M  V30 9 O 1.00936 1.85373 -2.06226 0
M  V30 10 N -1.10469 1.31612 -1.63225 0
M  V30 11 C 2.12746 0.204627 -0.139699 0
M  V30 12 C 2.71799 -1.03729 0.0351107 0
M  V30 13 C 4.068 -1.15396 0.283667 0
M  V30 14 C 4.89271 -0.0510176 0.370345 0
M  V30 15 C 4.31664 1.19045 0.198157 0
M  V30 16 C 2.96668 1.29762 -0.0498573 0
M  V30 17 C -2.40056 -0.977012 0.815172 0
M  V30 18 N -1.93142 -1.84996 1.82333 0
M  V30 19 N -3.71909 -0.868689 0.589943 0
M  V30 20 H -6.05711 -0.248133 -1.44623 0
M  V30 21 H -6.17717 0.438991 0.189312 0
M  V30 22 H -1.47762 1.9558 -2.37332 0
M  V30 23 H 2.0586 -1.90416 -0.0350237 0
M  V30 24 H 4.48902 -2.14393 0.414109 0
M  V30 25 H 5.94687 -0.190355 0.567098 0
M  V30 26 H 4.98447 2.04203 0.270657 0
M  V30 27 H 2.541 2.27923 -0.180432 0
M  V30 28 H -2.27222 -2.82266 1.88177 0
M  V30 29 H -1.2206 -1.438 2.49716 0
M  V30 END ATOM
M  V30 BEGIN BOND
M  V30 1 1 1 2
M  V30 2 2 2 3
M  V30 3 1 3 4
M  V30 4 2 4 5
M  V30 5 1 5 6
M  V30 6 2 6 7
M  V30 7 1 7 8
M  V30 8 2 8 9
M  V30 9 1 8 10
M  V30 10 1 7 11
M  V30 11 2 11 12
M  V30 12 1 12 13
M  V30 13 2 13 14
M  V30 14 1 14 15
M  V30 15 2 15 16
M  V30 16 1 5 17
M  V30 17 1 17 18
M  V30 18 2 17 19
M  V30 19 1 19 2
M  V30 20 1 10 4
M  V30 21 1 16 11
M  V30 22 1 1 20
M  V30 23 1 1 21
M  V30 24 1 10 22
M  V30 25 1 12 23
M  V30 26 1 13 24
M  V30 27 1 14 25
M  V30 28 1 15 26
M  V30 29 1 16 27
M  V30 30 1 18 28
M  V30 31 1 18 29
M  V30 END BOND
M  V30 END CTAB
M  END
