
     RDKit          3D

  0  0  0  0  0  0  0  0  0  0999 V3000
M  V30 BEGIN CTAB
M  V30 COUNTS 37 36 0 0 0
M  V30 BEGIN ATOM
M  V30 1 N -2.92149 1.46679 1.18907 0
M  V30 2 C -3.46992 0.730715 0.1335 0 CFG=1
M  V30 3 C -3.4434 1.62039 -1.11033 0
M  V30 4 S -4.44828 3.08627 -0.705715 0
M  V30 5 C -2.63982 -0.473241 -0.12013 0
M  V30 6 O -2.95708 -1.27878 -1.03312 0
M  V30 7 N -1.48481 -0.730817 0.658135 0
M  V30 8 C -0.630879 -1.86924 0.477124 0 CFG=1
M  V30 9 C 0.711534 -1.383 -0.0120176 0
M  V30 10 C 1.37729 -0.446862 0.939049 0
M  V30 11 C 2.70559 -0.0262171 0.354204 0
M  V30 12 N 2.56034 0.645283 -0.911828 0
M  V30 13 C 3.70749 1.10665 -1.60899 0
M  V30 14 N 4.84818 0.258145 -1.63485 0
M  V30 15 N 3.75904 2.24264 -2.20969 0
M  V30 16 C -0.555684 -2.64244 1.71227 0
M  V30 17 O 0.213676 -3.7851 1.76668 0
M  V30 18 O -1.18041 -2.28693 2.73216 0
M  V30 19 H -2.24286 2.14165 0.999895 0
M  V30 20 H -3.16673 1.29234 2.11058 0
M  V30 21 H -4.51557 0.435328 0.35889 0
M  V30 22 H -3.87754 1.10735 -1.98622 0
M  V30 23 H -2.39804 1.94392 -1.26282 0
M  V30 24 H -3.61646 4.18387 -0.41947 0
M  V30 25 H -1.21619 -0.0553179 1.42589 0
M  V30 26 H -1.06699 -2.46786 -0.372096 0
M  V30 27 H 0.522764 -0.843403 -0.962578 0
M  V30 28 H 1.37261 -2.24056 -0.282023 0
M  V30 29 H 0.75258 0.467396 1.04394 0
M  V30 30 H 1.54633 -0.888584 1.93453 0
M  V30 31 H 3.22346 0.645848 1.08909 0
M  V30 32 H 3.38243 -0.895641 0.208478 0
M  V30 33 H 1.63168 0.812551 -1.3485 0
M  V30 34 H 5.04038 -0.41445 -2.39184 0
M  V30 35 H 5.53844 0.306747 -0.851839 0
M  V30 36 H 2.97272 2.91281 -2.23541 0
M  V30 37 H -0.0343815 -4.67826 1.38529 0
M  V30 END ATOM
M  V30 BEGIN BOND
M  V30 1 1 1 2
M  V30 2 1 2 3
M  V30 3 1 3 4
M  V30 4 1 2 5
M  V30 5 2 5 6
M  V30 6 1 5 7
M  V30 7 1 7 8
M  V30 8 1 8 9
M  V30 9 1 9 10
M  V30 10 1 10 11
M  V30 11 1 11 12
M  V30 12 1 12 13
M  V30 13 1 13 14
M  V30 14 2 13 15 CFG=2
M  V30 15 1 8 16
M  V30 16 1 16 17
M  V30 17 2 16 18
M  V30 18 1 1 19
M  V30 19 1 1 20
M  V30 20 1 2 21 CFG=1
M  V30 21 1 3 22
M  V30 22 1 3 23
M  V30 23 1 4 24
M  V30 24 1 7 25
M  V30 25 1 8 26 CFG=3
M  V30 26 1 9 27
M  V30 27 1 9 28
M  V30 28 1 10 29
M  V30 29 1 10 30
M  V30 30 1 11 31
M  V30 31 1 11 32
M  V30 32 1 12 33
M  V30 33 1 14 34
M  V30 34 1 14 35
M  V30 35 1 15 36
M  V30 36 1 17 37
M  V30 END BOND
M  V30 END CTAB
M  END
