
     RDKit          3D

  0  0  0  0  0  0  0  0  0  0999 V3000
M  V30 BEGIN CTAB
M  V30 COUNTS 47 48 0 0 0
M  V30 BEGIN ATOM
M  V30 1 C 5.97847 1.20438 -1.07146 0
M  V30 2 C 5.93992 -0.313417 -0.925714 0
M  V30 3 C 5.31938 -0.665 0.387258 0
M  V30 4 C 3.91311 -0.113112 0.491539 0
M  V30 5 C 3.06048 -0.682691 -0.587707 0
M  V30 6 O 1.74659 -0.314878 -0.637999 0
M  V30 7 C 0.71636 -0.513693 0.239727 0
M  V30 8 C -0.534681 0.00473397 -0.0600071 0
M  V30 9 C -1.60903 -0.154183 0.763246 0
M  V30 10 C -1.44331 -0.85466 1.93314 0
M  V30 11 C -0.228003 -1.39049 2.28104 0
M  V30 12 C 0.847738 -1.20945 1.41659 0
M  V30 13 N -2.86412 0.41637 0.372158 0
M  V30 14 C -3.12041 1.73777 0.796529 0
M  V30 15 N -2.1588 2.44862 1.5766 0
M  V30 16 N -4.25195 2.27968 0.455441 0
M  V30 17 C -5.18747 1.54342 -0.322162 0
M  V30 18 N -6.41697 2.12232 -0.696913 0
M  V30 19 N -4.9494 0.335985 -0.707985 0
M  V30 20 C -3.74743 -0.397196 -0.411608 0
M  V30 21 C -3.08571 -0.897531 -1.68462 0
M  V30 22 C -4.07288 -1.63875 0.414308 0
M  V30 23 H 5.16211 1.56843 -1.71088 0
M  V30 24 H 5.85811 1.67014 -0.0688575 0
M  V30 25 H 6.98847 1.50302 -1.42375 0
M  V30 26 H 5.44761 -0.740831 -1.80578 0
M  V30 27 H 6.99154 -0.705583 -0.952162 0
M  V30 28 H 5.96366 -0.291318 1.22239 0
M  V30 29 H 5.31137 -1.77589 0.515298 0
M  V30 30 H 3.93149 1.00064 0.329289 0
M  V30 31 H 3.59221 -0.252102 1.51833 0
M  V30 32 H 3.52753 -0.357438 -1.57277 0
M  V30 33 H 3.11674 -1.80109 -0.630207 0
M  V30 34 H -0.621528 0.550948 -0.993497 0
M  V30 35 H -2.28951 -0.994497 2.60854 0
M  V30 36 H -0.0610591 -1.9513 3.20045 0
M  V30 37 H 1.81966 -1.65704 1.6878 0
M  V30 38 H -1.80498 2.09644 2.48611 0
M  V30 39 H -1.78632 3.3602 1.23348 0
M  V30 40 H -7.19452 2.15311 -0.0224152 0
M  V30 41 H -6.53436 2.51238 -1.6428 0
M  V30 42 H -3.87002 -1.34873 -2.32984 0
M  V30 43 H -2.6519 -0.0618149 -2.28363 0
M  V30 44 H -2.33729 -1.66951 -1.47481 0
M  V30 45 H -4.89773 -2.15697 -0.116597 0
M  V30 46 H -4.35934 -1.34344 1.44427 0
M  V30 47 H -3.15382 -2.256 0.422721 0
M  V30 END ATOM
M  V30 BEGIN BOND
M  V30 1 1 1 2
M  V30 2 1 2 3
M  V30 3 1 3 4
M  V30 4 1 4 5
M  V30 5 1 5 6
M  V30 6 1 6 7
M  V30 7 2 7 8
M  V30 8 1 8 9
M  V30 9 2 9 10
M  V30 10 1 10 11
M  V30 11 2 11 12
M  V30 12 1 9 13
M  V30 13 1 13 14
M  V30 14 1 14 15
M  V30 15 2 14 16
M  V30 16 1 16 17
M  V30 17 1 17 18
M  V30 18 2 17 19
M  V30 19 1 19 20
M  V30 20 1 20 21
M  V30 21 1 20 22
M  V30 22 1 12 7
M  V30 23 1 20 13
M  V30 24 1 1 23
M  V30 25 1 1 24
M  V30 26 1 1 25
M  V30 27 1 2 26
M  V30 28 1 2 27
M  V30 29 1 3 28
M  V30 30 1 3 29
M  V30 31 1 4 30
M  V30 32 1 4 31
M  V30 33 1 5 32
M  V30 34 1 5 33
M  V30 35 1 8 34
M  V30 36 1 10 35
M  V30 37 1 11 36
M  V30 38 1 12 37
M  V30 39 1 15 38
M  V30 40 1 15 39
M  V30 41 1 18 40
M  V30 42 1 18 41
M  V30 43 1 21 42
M  V30 44 1 21 43
M  V30 45 1 21 44
M  V30 46 1 22 45
M  V30 47 1 22 46
M  V30 48 1 22 47
M  V30 END BOND
M  V30 END CTAB
M  END
