
     RDKit          3D

  0  0  0  0  0  0  0  0  0  0999 V3000
M  V30 BEGIN CTAB
M  V30 COUNTS 37 38 0 0 0
M  V30 BEGIN ATOM
M  V30 1 C 5.11668 -2.06915 0.96033 0
M  V30 2 O 4.52118 -0.837758 0.707468 0
M  V30 3 C 3.20136 -0.608552 0.449329 0
M  V30 4 C 2.23078 -1.58013 0.397348 0
M  V30 5 C 0.8836 -1.29939 0.128241 0
M  V30 6 C 0.484225 -0.0135201 -0.0960037 0
M  V30 7 C 1.47107 0.997258 -0.0464439 0
M  V30 8 C 2.78185 0.690685 0.219002 0
M  V30 9 S 3.98779 1.97481 0.273625 0
M  V30 10 O 4.6431 1.98866 1.64775 0
M  V30 11 O 3.32312 3.28719 0.0547516 0
M  V30 12 N 5.16455 1.62916 -0.931921 0
M  V30 13 N -0.840602 0.416179 -0.35088 0
M  V30 14 C -1.98665 -0.297079 0.0392849 0
M  V30 15 O -1.86799 -1.37981 0.6611 0
M  V30 16 C -3.34441 0.184949 -0.258284 0
M  V30 17 C -3.61349 1.35032 -0.929894 0
M  V30 18 C -4.91396 1.76888 -1.19022 0
M  V30 19 C -5.98604 1.00553 -0.770113 0
M  V30 20 C -5.74071 -0.161925 -0.0976882 0
M  V30 21 C -4.44608 -0.553851 0.147293 0
M  V30 22 N -4.24801 -1.77991 0.852504 0
M  V30 23 H 6.1221 -2.05896 0.448938 0
M  V30 24 H 4.54382 -2.89515 0.539858 0
M  V30 25 H 5.31313 -2.1775 2.06225 0
M  V30 26 H 2.52385 -2.61263 0.573328 0
M  V30 27 H 0.18063 -2.13162 0.0860248 0
M  V30 28 H 1.17119 2.03489 -0.224285 0
M  V30 29 H 5.1048 0.669377 -1.30728 0
M  V30 30 H 5.07228 2.3648 -1.67811 0
M  V30 31 H -0.988838 1.34746 -0.880572 0
M  V30 32 H -2.83312 1.98456 -1.28074 0
M  V30 33 H -5.08002 2.70765 -1.73043 0
M  V30 34 H -7.01115 1.30104 -0.955597 0
M  V30 35 H -6.59309 -0.758367 0.230325 0
M  V30 36 H -4.32802 -1.81845 1.89044 0
M  V30 37 H -4.01893 -2.66966 0.359266 0
M  V30 END ATOM
M  V30 BEGIN BOND
M  V30 1 1 1 2
M  V30 2 1 2 3
M  V30 3 2 3 4
M  V30 4 1 4 5
M  V30 5 2 5 6
M  V30 6 1 6 7
M  V30 7 2 7 8
M  V30 8 1 8 9
M  V30 9 2 9 10
M  V30 10 2 9 11
M  V30 11 1 9 12
M  V30 12 1 6 13
M  V30 13 1 13 14
M  V30 14 2 14 15
M  V30 15 1 14 16
M  V30 16 2 16 17
M  V30 17 1 17 18
M  V30 18 2 18 19
M  V30 19 1 19 20
M  V30 20 2 20 21
M  V30 21 1 21 22
M  V30 22 1 8 3
M  V30 23 1 21 16
M  V30 24 1 1 23
M  V30 25 1 1 24
M  V30 26 1 1 25
M  V30 27 1 4 26
M  V30 28 1 5 27
M  V30 29 1 7 28
M  V30 30 1 12 29
M  V30 31 1 12 30
M  V30 32 1 13 31
M  V30 33 1 17 32
M  V30 34 1 18 33
M  V30 35 1 19 34
M  V30 36 1 20 35
M  V30 37 1 22 36
M  V30 38 1 22 37
M  V30 END BOND
M  V30 END CTAB
M  END
