
     RDKit          3D

  0  0  0  0  0  0  0  0  0  0999 V3000
M  V30 BEGIN CTAB
M  V30 COUNTS 34 34 0 0 0
M  V30 BEGIN ATOM
M  V30 1 N -2.77107 2.17306 -1.61752 0
M  V30 2 C -1.62905 2.34757 -0.737914 0
M  V30 3 C -1.79824 1.64802 0.570108 0
M  V30 4 C -1.98011 0.191367 0.476865 0
M  V30 5 C -3.24096 -0.322522 0.623159 0
M  V30 6 C -3.46746 -1.67856 0.538233 0
M  V30 7 C -2.41841 -2.52281 0.30407 0
M  V30 8 O -2.62256 -3.89764 0.214228 0
M  V30 9 C -1.13403 -1.978 0.156925 0
M  V30 10 O -0.137174 -2.87904 -0.0746869 0
M  V30 11 C -0.855124 -0.639324 0.233016 0
M  V30 12 S 0.662744 0.186059 0.0882893 0
M  V30 13 C 2.15736 -0.636088 -0.217346 0
M  V30 14 C 3.28643 0.424527 -0.252382 0 CFG=2
M  V30 15 N 4.53053 -0.278091 -0.508584 0
M  V30 16 C 3.28295 1.08447 1.06537 0
M  V30 17 O 4.37633 0.991057 1.88912 0
M  V30 18 O 2.2831 1.72889 1.43173 0
M  V30 19 H -3.20858 1.24667 -1.53289 0
M  V30 20 H -2.44477 2.36245 -2.58451 0
M  V30 21 H -0.734133 2.0367 -1.29149 0
M  V30 22 H -1.54985 3.44514 -0.548433 0
M  V30 23 H -2.61164 2.14037 1.14997 0
M  V30 24 H -0.869543 1.85427 1.17115 0
M  V30 25 H -4.11377 0.303795 0.810762 0
M  V30 26 H -4.45311 -2.06852 0.654301 0
M  V30 27 H -1.81592 -4.47624 0.0419595 0
M  V30 28 H 0.794248 -2.69743 -0.200537 0
M  V30 29 H 2.47457 -1.2837 0.655257 0
M  V30 30 H 2.26504 -1.16361 -1.19178 0
M  V30 31 H 3.01178 1.1226 -1.06872 0
M  V30 32 H 4.36758 -0.867276 -1.36384 0
M  V30 33 H 5.24259 0.432706 -0.784066 0
M  V30 34 H 5.12026 1.66912 1.90018 0
M  V30 END ATOM
M  V30 BEGIN BOND
M  V30 1 1 1 2
M  V30 2 1 2 3
M  V30 3 1 3 4
M  V30 4 2 4 5
M  V30 5 1 5 6
M  V30 6 2 6 7
M  V30 7 1 7 8
M  V30 8 1 7 9
M  V30 9 1 9 10
M  V30 10 2 9 11
M  V30 11 1 11 12
M  V30 12 1 12 13
M  V30 13 1 13 14
M  V30 14 1 14 15
M  V30 15 1 14 16
M  V30 16 1 16 17
M  V30 17 2 16 18
M  V30 18 1 11 4
M  V30 19 1 1 19
M  V30 20 1 1 20
M  V30 21 1 2 21
M  V30 22 1 2 22
M  V30 23 1 3 23
M  V30 24 1 3 24
M  V30 25 1 5 25
M  V30 26 1 6 26
M  V30 27 1 8 27
M  V30 28 1 10 28
M  V30 29 1 13 29
M  V30 30 1 13 30
M  V30 31 1 14 31 CFG=3
M  V30 32 1 15 32
M  V30 33 1 15 33
M  V30 34 1 17 34
M  V30 END BOND
M  V30 END CTAB
M  END
