
     RDKit          3D

  0  0  0  0  0  0  0  0  0  0999 V3000
M  V30 BEGIN CTAB
M  V30 COUNTS 18 18 0 0 0
M  V30 BEGIN ATOM
M  V30 1 N -2.33749 -0.776175 0.319568 0
M  V30 2 C -1.53677 -0.0251727 -0.66518 0
M  V30 3 C -0.152402 -0.100444 -0.310335 0
M  V30 4 C 0.609407 -1.28156 -0.424747 0
M  V30 5 N 1.87123 -1.29988 -0.0245116 0
M  V30 6 C 2.4938 -0.2095 0.490506 0
M  V30 7 O 3.67294 -0.185655 0.831554 0
M  V30 8 N 1.78651 0.966325 0.619055 0
M  V30 9 C 0.476045 0.998973 0.216348 0
M  V30 10 N -0.205463 2.21115 0.262361 0
M  V30 11 H -2.88112 -0.0884415 0.889246 0
M  V30 12 H -1.79793 -1.43496 0.889433 0
M  V30 13 H -1.9906 0.878578 -0.96628 0
M  V30 14 H -1.61084 -0.720992 -1.62261 0
M  V30 15 H 0.150528 -2.18081 -0.910611 0
M  V30 16 H 2.46014 -2.14975 -0.129205 0
M  V30 17 H -0.818691 2.54441 -0.543851 0
M  V30 18 H -0.189296 2.8539 1.07926 0
M  V30 END ATOM
M  V30 BEGIN BOND
M  V30 1 1 1 2
M  V30 2 1 2 3
M  V30 3 2 3 4
M  V30 4 1 4 5
M  V30 5 1 5 6
M  V30 6 2 6 7
M  V30 7 1 6 8
M  V30 8 2 8 9
M  V30 9 1 9 10
M  V30 10 1 9 3
M  V30 11 1 1 11
M  V30 12 1 1 12
M  V30 13 1 2 13
M  V30 14 1 2 14
M  V30 15 1 4 15
M  V30 16 1 5 16
M  V30 17 1 10 17
M  V30 18 1 10 18
M  V30 END BOND
M  V30 END CTAB
M  END
