
     RDKit          3D

  0  0  0  0  0  0  0  0  0  0999 V3000
M  V30 BEGIN CTAB
M  V30 COUNTS 61 65 0 0 0
M  V30 BEGIN ATOM
M  V30 1 N -4.44451 3.20348 -2.37667 0
M  V30 2 C -4.33721 2.62714 -1.12398 0
M  V30 3 C -4.60274 1.14924 -1.08771 0 CFG=1
M  V30 4 C -3.64781 0.400461 -1.95827 0
M  V30 5 C -3.87544 -1.07958 -1.92192 0
M  V30 6 C -3.92454 -1.64692 -0.512607 0 CFG=2
M  V30 7 C -4.93188 -0.867324 0.209644 0
M  V30 8 C -4.62115 0.604541 0.326248 0
M  V30 9 C -2.56427 -1.71778 -0.00281557 0
M  V30 10 N -1.72247 -0.714897 0.234033 0
M  V30 11 C -0.539287 -1.16783 0.708252 0
M  V30 12 C -0.624233 -2.51205 0.775801 0
M  V30 13 N -1.85992 -2.83939 0.34261 0
M  V30 14 C -2.22926 -4.1025 0.287516 0
M  V30 15 C -1.39843 -5.13167 0.656047 0
M  V30 16 N -0.178809 -4.79838 1.0797 0
M  V30 17 C 0.255262 -3.51906 1.15787 0
M  V30 18 N 1.5827 -3.23087 1.58066 0
M  V30 19 C 0.594316 -0.31309 1.03152 0
M  V30 20 C 1.12644 -0.281447 2.29949 0
M  V30 21 C 2.21617 0.499678 2.62518 0
M  V30 22 C 2.82875 1.29849 1.67148 0
M  V30 23 C 2.31209 1.28073 0.400627 0
M  V30 24 O 2.88624 2.05371 -0.582281 0
M  V30 25 C 3.99987 2.88147 -0.442089 0
M  V30 26 C 5.25399 2.20888 -0.0837049 0
M  V30 27 C 6.30375 2.86232 0.511466 0
M  V30 28 C 7.48382 2.23896 0.839509 0
M  V30 29 C 7.64569 0.896087 0.56886 0
M  V30 30 C 6.60645 0.19176 -0.0347913 0
M  V30 31 C 5.43838 0.849725 -0.349375 0
M  V30 32 C 1.2043 0.479051 0.0936005 0
M  V30 33 H -4.56962 2.60846 -3.12283 0
M  V30 34 H -4.16193 4.13059 -2.45705 0
M  V30 35 H -5.1086 3.10649 -0.455371 0
M  V30 36 H -3.36169 2.81244 -0.618912 0
M  V30 37 H -5.63515 0.962773 -1.4998 0
M  V30 38 H -3.81399 0.715054 -3.01662 0
M  V30 39 H -2.62353 0.723517 -1.70645 0
M  V30 40 H -4.81178 -1.29814 -2.47114 0
M  V30 41 H -3.00022 -1.54583 -2.46198 0
M  V30 42 H -4.37175 -2.68438 -0.663418 0
M  V30 43 H -5.30493 -1.30514 1.15747 0
M  V30 44 H -5.8691 -0.901372 -0.437153 0
M  V30 45 H -5.4839 1.09249 0.854208 0
M  V30 46 H -3.67198 0.82319 0.848404 0
M  V30 47 H -3.22618 -4.33633 -0.0617638 0
M  V30 48 H -1.67838 -6.18028 0.620938 0
M  V30 49 H 2.33 -2.90678 0.928103 0
M  V30 50 H 1.82084 -3.34569 2.57139 0
M  V30 51 H 0.678563 -0.869881 3.09532 0
M  V30 52 H 2.63084 0.517558 3.63148 0
M  V30 53 H 3.68694 1.91326 1.98398 0
M  V30 54 H 3.82952 3.67361 0.347369 0
M  V30 55 H 4.19139 3.47711 -1.38042 0
M  V30 56 H 6.20228 3.91038 0.732357 0
M  V30 57 H 8.32152 2.77106 1.31714 0
M  V30 58 H 8.57371 0.393671 0.824056 0
M  V30 59 H 6.76405 -0.862531 -0.234994 0
M  V30 60 H 4.62177 0.328727 -0.815289 0
M  V30 61 H 0.805073 0.473054 -0.909832 0
M  V30 END ATOM
M  V30 BEGIN BOND
M  V30 1 1 1 2
M  V30 2 1 2 3
M  V30 3 1 3 4
M  V30 4 1 4 5
M  V30 5 1 5 6
M  V30 6 1 6 7
M  V30 7 1 7 8
M  V30 8 1 6 9
M  V30 9 2 9 10
M  V30 10 1 10 11
M  V30 11 2 11 12
M  V30 12 1 12 13
M  V30 13 1 13 14
M  V30 14 2 14 15
M  V30 15 1 15 16
M  V30 16 2 16 17
M  V30 17 1 17 18
M  V30 18 1 11 19
M  V30 19 2 19 20
M  V30 20 1 20 21
M  V30 21 2 21 22
M  V30 22 1 22 23
M  V30 23 1 23 24
M  V30 24 1 24 25
M  V30 25 1 25 26
M  V30 26 2 26 27
M  V30 27 1 27 28
M  V30 28 2 28 29
M  V30 29 1 29 30
M  V30 30 2 30 31
M  V30 31 2 23 32
M  V30 32 1 8 3
M  V30 33 1 13 9
M  V30 34 1 32 19
M  V30 35 1 17 12
M  V30 36 1 31 26
M  V30 37 1 1 33
M  V30 38 1 1 34
M  V30 39 1 2 35
M  V30 40 1 2 36
M  V30 41 1 3 37 CFG=3
M  V30 42 1 4 38
M  V30 43 1 4 39
M  V30 44 1 5 40
M  V30 45 1 5 41
M  V30 46 1 6 42 CFG=3
M  V30 47 1 7 43
M  V30 48 1 7 44
M  V30 49 1 8 45
M  V30 50 1 8 46
M  V30 51 1 14 47
M  V30 52 1 15 48
M  V30 53 1 18 49
M  V30 54 1 18 50
M  V30 55 1 20 51
M  V30 56 1 21 52
M  V30 57 1 22 53
M  V30 58 1 25 54
M  V30 59 1 25 55
M  V30 60 1 27 56
M  V30 61 1 28 57
M  V30 62 1 29 58
M  V30 63 1 30 59
M  V30 64 1 31 60
M  V30 65 1 32 61
M  V30 END BOND
M  V30 END CTAB
M  END
