
     RDKit          3D

  0  0  0  0  0  0  0  0  0  0999 V3000
M  V30 BEGIN CTAB
M  V30 COUNTS 60 63 0 0 0
M  V30 BEGIN ATOM
M  V30 1 C 8.72916 0.392212 -0.270527 0
M  V30 2 C 7.24269 0.64873 -0.263466 0
M  V30 3 C 6.47002 -0.609537 0.11746 0
M  V30 4 C 5.02168 -0.285936 0.104367 0
M  V30 5 C 4.41256 0.0962631 -1.07405 0
M  V30 6 C 3.06806 0.39687 -1.08705 0
M  V30 7 C 2.30276 0.325821 0.0597119 0
M  V30 8 C 2.94045 -0.0588778 1.21987 0
M  V30 9 C 4.28701 -0.366862 1.26584 0
M  V30 10 N 0.920665 0.632443 0.0578384 0
M  V30 11 C 0.0336683 -0.292817 0.376912 0
M  V30 12 N 0.533959 -1.60589 0.717863 0
M  V30 13 C -1.31269 -0.0858787 0.403024 0
M  V30 14 C -2.18118 -1.08894 0.73974 0
M  V30 15 N -1.66414 -2.36853 1.0717 0
M  V30 16 N -3.47055 -0.817617 0.741045 0
M  V30 17 C -3.98957 0.384487 0.433098 0
M  V30 18 C -3.15191 1.45148 0.0827707 0
M  V30 19 C -1.80273 1.20467 0.0670958 0
M  V30 20 C -0.918382 2.16279 -0.263208 0
M  V30 21 C 0.45689 1.83807 -0.256734 0
M  V30 22 S 1.5055 3.01773 -0.65609 0
M  V30 23 C -1.24796 3.48906 -0.664856 0
M  V30 24 N -1.44209 4.59342 -1.01661 0
M  V30 25 C -3.75045 2.72461 -0.147819 0
M  V30 26 N -4.28717 3.73406 -0.296749 0
M  V30 27 N -5.39648 0.450681 0.439586 0
M  V30 28 C -6.13788 -0.413992 1.40593 0
M  V30 29 C -6.59593 -1.60694 0.56731 0
M  V30 30 C -7.06235 -1.14288 -0.795994 0
M  V30 31 C -7.50409 0.30937 -0.658021 0
M  V30 32 C -6.26382 1.20955 -0.412165 0
M  V30 33 C 6.82306 -1.72873 -0.816211 0
M  V30 34 H 9.22741 1.31182 0.148363 0
M  V30 35 H 9.11759 0.322186 -1.32735 0
M  V30 36 H 9.03898 -0.454433 0.348583 0
M  V30 37 H 6.95984 1.47198 0.432716 0
M  V30 38 H 6.9041 0.927079 -1.28232 0
M  V30 39 H 6.78227 -0.893852 1.14247 0
M  V30 40 H 5.00816 0.154493 -1.98051 0
M  V30 41 H 2.59484 0.695878 -2.01246 0
M  V30 42 H 2.3844 -0.130117 2.1466 0
M  V30 43 H 4.77195 -0.671587 2.20611 0
M  V30 44 H 0.785662 -1.87065 1.68227 0
M  V30 45 H 0.62255 -2.25342 -0.120745 0
M  V30 46 H -1.53956 -3.07352 0.327725 0
M  V30 47 H -1.42745 -2.5888 2.05469 0
M  V30 48 H -5.42526 -0.778153 2.15921 0
M  V30 49 H -6.97499 0.127798 1.85985 0
M  V30 50 H -7.45807 -2.07074 1.07682 0
M  V30 51 H -5.75728 -2.31677 0.426179 0
M  V30 52 H -6.31044 -1.27577 -1.58031 0
M  V30 53 H -7.95464 -1.72677 -1.06873 0
M  V30 54 H -8.20153 0.357142 0.188949 0
M  V30 55 H -7.98331 0.608958 -1.5958 0
M  V30 56 H -5.84329 1.4975 -1.3861 0
M  V30 57 H -6.67365 2.06138 0.162836 0
M  V30 58 H 7.37417 -1.3283 -1.70092 0
M  V30 59 H 5.90812 -2.20981 -1.21648 0
M  V30 60 H 7.50068 -2.48242 -0.357001 0
M  V30 END ATOM
M  V30 BEGIN BOND
M  V30 1 1 1 2
M  V30 2 1 2 3
M  V30 3 1 3 4
M  V30 4 2 4 5
M  V30 5 1 5 6
M  V30 6 2 6 7
M  V30 7 1 7 8
M  V30 8 2 8 9
M  V30 9 1 7 10
M  V30 10 1 10 11
M  V30 11 1 11 12
M  V30 12 2 11 13
M  V30 13 1 13 14
M  V30 14 1 14 15
M  V30 15 2 14 16
M  V30 16 1 16 17
M  V30 17 2 17 18
M  V30 18 1 18 19
M  V30 19 2 19 20
M  V30 20 1 20 21
M  V30 21 2 21 22
M  V30 22 1 20 23
M  V30 23 3 23 24
M  V30 24 1 18 25
M  V30 25 3 25 26
M  V30 26 1 17 27
M  V30 27 1 27 28
M  V30 28 1 28 29
M  V30 29 1 29 30
M  V30 30 1 30 31
M  V30 31 1 31 32
M  V30 32 1 3 33
M  V30 33 1 9 4
M  V30 34 1 21 10
M  V30 35 1 32 27
M  V30 36 1 19 13
M  V30 37 1 1 34
M  V30 38 1 1 35
M  V30 39 1 1 36
M  V30 40 1 2 37
M  V30 41 1 2 38
M  V30 42 1 3 39
M  V30 43 1 5 40
M  V30 44 1 6 41
M  V30 45 1 8 42
M  V30 46 1 9 43
M  V30 47 1 12 44
M  V30 48 1 12 45
M  V30 49 1 15 46
M  V30 50 1 15 47
M  V30 51 1 28 48
M  V30 52 1 28 49
M  V30 53 1 29 50
M  V30 54 1 29 51
M  V30 55 1 30 52
M  V30 56 1 30 53
M  V30 57 1 31 54
M  V30 58 1 31 55
M  V30 59 1 32 56
M  V30 60 1 32 57
M  V30 61 1 33 58
M  V30 62 1 33 59
M  V30 63 1 33 60
M  V30 END BOND
M  V30 END CTAB
M  END
