
     RDKit          3D

  0  0  0  0  0  0  0  0  0  0999 V3000
M  V30 BEGIN CTAB
M  V30 COUNTS 23 24 0 0 0
M  V30 BEGIN ATOM
M  V30 1 C -2.23819 1.3538 -0.154129 0
M  V30 2 C -1.50256 0.0964595 -0.0463349 0
M  V30 3 C -2.17556 -1.13856 0.0223357 0
M  V30 4 C -1.49215 -2.32325 0.12242 0
M  V30 5 O -2.12469 -3.40451 0.181421 0
M  V30 6 N -0.157271 -2.35123 0.158736 0
M  V30 7 C 0.528003 -1.21367 0.0971962 0
M  V30 8 C -0.128541 0.0111553 -0.00496649 0
M  V30 9 C 0.645443 1.13426 -0.0631272 0
M  V30 10 N 0.0251649 2.40556 -0.16603 0
M  V30 11 N 2.01998 1.08995 -0.0246746 0
M  V30 12 C 2.62133 -0.0908261 0.0729396 0
M  V30 13 N 4.06803 -0.200017 0.117736 0
M  V30 14 N 1.87315 -1.1951 0.130525 0
M  V30 15 H -2.28838 1.99086 0.734768 0
M  V30 16 H -2.23744 1.85023 -1.14075 0
M  V30 17 H -3.35035 1.0254 -0.16366 0
M  V30 18 H -3.25732 -1.08627 -0.00911731 0
M  V30 19 H 0.383457 -3.25232 0.235379 0
M  V30 20 H -0.194072 2.85726 -1.07342 0
M  V30 21 H -0.207953 2.93181 0.69735 0
M  V30 22 H 4.52439 -0.990982 0.615135 0
M  V30 23 H 4.66552 0.499994 -0.339736 0
M  V30 END ATOM
M  V30 BEGIN BOND
M  V30 1 1 1 2
M  V30 2 2 2 3
M  V30 3 1 3 4
M  V30 4 2 4 5
M  V30 5 1 4 6
M  V30 6 1 6 7
M  V30 7 2 7 8
M  V30 8 1 8 9
M  V30 9 1 9 10
M  V30 10 2 9 11
M  V30 11 1 11 12
M  V30 12 1 12 13
M  V30 13 2 12 14
M  V30 14 1 8 2
M  V30 15 1 14 7
M  V30 16 1 1 15
M  V30 17 1 1 16
M  V30 18 1 1 17
M  V30 19 1 3 18
M  V30 20 1 6 19
M  V30 21 1 10 20
M  V30 22 1 10 21
M  V30 23 1 13 22
M  V30 24 1 13 23
M  V30 END BOND
M  V30 END CTAB
M  END
