
     RDKit          3D

  0  0  0  0  0  0  0  0  0  0999 V3000
M  V30 BEGIN CTAB
M  V30 COUNTS 26 27 0 0 0
M  V30 BEGIN ATOM
M  V30 1 N 4.23814 0.215703 1.09168 0
M  V30 2 C 3.52377 0.472577 -0.142113 0
M  V30 3 C 2.06457 0.24028 0.0221277 0
M  V30 4 N 1.18381 1.17858 0.404189 0
M  V30 5 C -0.0211319 0.590284 0.435813 0
M  V30 6 C 0.095356 -0.725048 0.0727883 0
M  V30 7 N 1.40509 -0.914876 -0.179123 0
M  V30 8 C -1.03538 -1.66887 -0.000315528 0
M  V30 9 C -2.36669 -1.02205 -0.0644401 0
M  V30 10 C -2.33719 0.469561 -0.218952 0
M  V30 11 C -1.36903 1.09728 0.77679 0
M  V30 12 N -3.64883 1.00747 0.0541079 0
M  V30 13 H 4.33339 -0.80698 1.29306 0
M  V30 14 H 5.14315 0.717397 1.04424 0
M  V30 15 H 3.68599 1.55851 -0.376694 0
M  V30 16 H 3.91606 -0.179359 -0.968276 0
M  V30 17 H 1.87976 -1.7968 -0.483697 0
M  V30 18 H -0.926548 -2.3976 -0.85278 0
M  V30 19 H -0.961301 -2.31886 0.919638 0
M  V30 20 H -2.98596 -1.42491 -0.911976 0
M  V30 21 H -2.96246 -1.28216 0.858501 0
M  V30 22 H -2.02316 0.725776 -1.23556 0
M  V30 23 H -1.67841 0.837222 1.81247 0
M  V30 24 H -1.46435 2.18596 0.67952 0
M  V30 25 H -4.05933 1.51123 -0.775375 0
M  V30 26 H -3.62933 1.72969 0.822495 0
M  V30 END ATOM
M  V30 BEGIN BOND
M  V30 1 1 1 2
M  V30 2 1 2 3
M  V30 3 2 3 4
M  V30 4 1 4 5
M  V30 5 2 5 6
M  V30 6 1 6 7
M  V30 7 1 6 8
M  V30 8 1 8 9
M  V30 9 1 9 10
M  V30 10 1 10 11
M  V30 11 1 10 12
M  V30 12 1 7 3
M  V30 13 1 11 5
M  V30 14 1 1 13
M  V30 15 1 1 14
M  V30 16 1 2 15
M  V30 17 1 2 16
M  V30 18 1 7 17
M  V30 19 1 8 18
M  V30 20 1 8 19
M  V30 21 1 9 20
M  V30 22 1 9 21
M  V30 23 1 10 22
M  V30 24 1 11 23
M  V30 25 1 11 24
M  V30 26 1 12 25
M  V30 27 1 12 26
M  V30 END BOND
M  V30 END CTAB
M  END
