
     RDKit          3D

  0  0  0  0  0  0  0  0  0  0999 V3000
M  V30 BEGIN CTAB
M  V30 COUNTS 23 23 0 0 0
M  V30 BEGIN ATOM
M  V30 1 F -3.91822 0.655768 0.860113 0
M  V30 2 C -2.54723 0.788459 0.737006 0
M  V30 3 C -1.99399 -0.14831 -0.312391 0
M  V30 4 C -0.529957 0.0557813 -0.380821 0
M  V30 5 C 0.0240581 0.827037 -1.38929 0
M  V30 6 C 1.37927 0.992518 -1.41944 0
M  V30 7 C 2.23013 0.42751 -0.491369 0
M  V30 8 C 1.67472 -0.346867 0.521299 0
M  V30 9 C 0.298914 -0.521071 0.5607 0
M  V30 10 N 2.44221 -0.971319 1.52093 0
M  V30 11 O 3.60011 0.599795 -0.528935 0
M  V30 12 N -2.32587 -1.52033 -0.0594664 0
M  V30 13 H -2.36047 1.82924 0.402388 0
M  V30 14 H -2.03422 0.660717 1.7137 0
M  V30 15 H -2.45421 0.144175 -1.27721 0
M  V30 16 H -0.666064 1.25737 -2.10256 0
M  V30 17 H 1.78394 1.60818 -2.23009 0
M  V30 18 H -0.135614 -1.13294 1.36153 0
M  V30 19 H 2.77992 -1.95762 1.46965 0
M  V30 20 H 2.70283 -0.435323 2.37675 0
M  V30 21 H 3.97973 1.16807 -1.27629 0
M  V30 22 H -1.98462 -2.0793 -0.873153 0
M  V30 23 H -1.94534 -1.90155 0.816945 0
M  V30 END ATOM
M  V30 BEGIN BOND
M  V30 1 1 1 2
M  V30 2 1 2 3
M  V30 3 1 3 4
M  V30 4 2 4 5
M  V30 5 1 5 6
M  V30 6 2 6 7
M  V30 7 1 7 8
M  V30 8 2 8 9
M  V30 9 1 8 10
M  V30 10 1 7 11
M  V30 11 1 3 12
M  V30 12 1 9 4
M  V30 13 1 2 13
M  V30 14 1 2 14
M  V30 15 1 3 15
M  V30 16 1 5 16
M  V30 17 1 6 17
M  V30 18 1 9 18
M  V30 19 1 10 19
M  V30 20 1 10 20
M  V30 21 1 11 21
M  V30 22 1 12 22
M  V30 23 1 12 23
M  V30 END BOND
M  V30 END CTAB
M  END
