
     RDKit          3D

  0  0  0  0  0  0  0  0  0  0999 V3000
M  V30 BEGIN CTAB
M  V30 COUNTS 68 71 0 0 0
M  V30 BEGIN ATOM
M  V30 1 C -7.60985 -1.76656 1.80334 0
M  V30 2 N -8.01967 -2.09872 0.466554 0
M  V30 3 C -9.17504 -2.94044 0.257172 0
M  V30 4 C -7.31807 -1.62029 -0.669737 0
M  V30 5 C -7.69979 -1.93903 -1.96064 0
M  V30 6 C -7.00086 -1.46092 -3.04635 0
M  V30 7 C -5.89507 -0.645856 -2.85022 0
M  V30 8 C -5.47943 -0.302519 -1.57098 0
M  V30 9 C -6.21503 -0.80866 -0.521716 0
M  V30 10 C -4.33186 0.541842 -1.36291 0
M  V30 11 C -4.31726 1.37023 -0.250756 0
M  V30 12 C -3.26721 2.20248 0.0254385 0
M  V30 13 C -2.1844 2.23012 -0.816854 0
M  V30 14 C -2.20072 1.40185 -1.92778 0
M  V30 15 C -3.25929 0.571225 -2.19467 0
M  V30 16 C -0.993852 3.11042 -0.582498 0 CFG=1
M  V30 17 O 0.164046 2.32599 -0.792101 0
M  V30 18 C 0.987752 2.00517 0.262335 0
M  V30 19 C 2.14276 1.22767 0.0808028 0
M  V30 20 C 2.93928 0.927568 1.15429 0
M  V30 21 N 2.57159 1.40039 2.35628 0
M  V30 22 C 1.48087 2.14503 2.58039 0
M  V30 23 N 1.1136 2.62995 3.85686 0
M  V30 24 N 0.708076 2.42662 1.48997 0
M  V30 25 C 4.13915 0.122603 1.00428 0
M  V30 26 C 4.92576 -0.177384 2.12622 0
M  V30 27 C 6.07043 -0.938531 2.01533 0
M  V30 28 C 6.49781 -1.44077 0.802458 0
M  V30 29 C 7.73659 -2.24943 0.774952 0
M  V30 30 C 8.96411 -1.39186 0.553531 0 CFG=2
M  V30 31 N 8.92462 -0.666893 -0.686158 0
M  V30 32 C 10.1466 -2.27787 0.565799 0
M  V30 33 O 11.0314 -2.32328 -0.526515 0
M  V30 34 O 10.4373 -3.03256 1.52632 0
M  V30 35 C 5.73783 -1.15612 -0.310271 0
M  V30 36 C 4.57395 -0.381757 -0.1951 0
M  V30 37 C -1.05908 4.33993 -1.42661 0
M  V30 38 F -1.08886 4.01519 -2.7861 0
M  V30 39 F -2.16206 5.0582 -1.07397 0
M  V30 40 F 0.0645043 5.10479 -1.13674 0
M  V30 41 H -7.43745 -0.657328 1.83277 0
M  V30 42 H -8.41347 -1.9455 2.55135 0
M  V30 43 H -6.66931 -2.31977 2.05858 0
M  V30 44 H -9.78991 -2.99435 1.19445 0
M  V30 45 H -8.92896 -3.96224 -0.0315381 0
M  V30 46 H -9.85892 -2.46987 -0.508078 0
M  V30 47 H -8.56909 -2.57918 -2.08871 0
M  V30 48 H -7.338 -1.73809 -4.03558 0
M  V30 49 H -5.38223 -0.297301 -3.73684 0
M  V30 50 H -5.91212 -0.556618 0.485806 0
M  V30 51 H -5.162 1.36772 0.432792 0
M  V30 52 H -3.22747 2.86401 0.890516 0
M  V30 53 H -1.34491 1.43044 -2.58531 0
M  V30 54 H -3.26931 -0.0781516 -3.06759 0
M  V30 55 H -1.08102 3.41901 0.489429 0
M  V30 56 H 2.35116 0.896798 -0.920575 0
M  V30 57 H 1.7186 2.41135 4.66608 0
M  V30 58 H 0.264852 3.18973 3.9922 0
M  V30 59 H 4.58375 0.217847 3.06552 0
M  V30 60 H 6.65954 -1.15457 2.90197 0
M  V30 61 H 7.65126 -3.0397 -0.00850941 0
M  V30 62 H 7.88622 -2.78241 1.74252 0
M  V30 63 H 9.03896 -0.734073 1.45105 0
M  V30 64 H 9.40116 -1.14972 -1.46448 0
M  V30 65 H 9.20997 0.330951 -0.584381 0
M  V30 66 H 11.4721 -1.47993 -0.872901 0
M  V30 67 H 6.05557 -1.54114 -1.27185 0
M  V30 68 H 4.01045 -0.185738 -1.10116 0
M  V30 END ATOM
M  V30 BEGIN BOND
M  V30 1 1 1 2
M  V30 2 1 2 3
M  V30 3 1 2 4
M  V30 4 2 4 5
M  V30 5 1 5 6
M  V30 6 2 6 7
M  V30 7 1 7 8
M  V30 8 2 8 9
M  V30 9 1 8 10
M  V30 10 2 10 11
M  V30 11 1 11 12
M  V30 12 2 12 13
M  V30 13 1 13 14
M  V30 14 2 14 15
M  V30 15 1 13 16
M  V30 16 1 16 17
M  V30 17 1 17 18
M  V30 18 2 18 19
M  V30 19 1 19 20
M  V30 20 2 20 21
M  V30 21 1 21 22
M  V30 22 1 22 23
M  V30 23 2 22 24
M  V30 24 1 20 25
M  V30 25 2 25 26
M  V30 26 1 26 27
M  V30 27 2 27 28
M  V30 28 1 28 29
M  V30 29 1 29 30
M  V30 30 1 30 31
M  V30 31 1 30 32
M  V30 32 1 32 33
M  V30 33 2 32 34
M  V30 34 1 28 35
M  V30 35 2 35 36
M  V30 36 1 16 37
M  V30 37 1 37 38
M  V30 38 1 37 39
M  V30 39 1 37 40
M  V30 40 1 9 4
M  V30 41 1 15 10
M  V30 42 1 24 18
M  V30 43 1 36 25
M  V30 44 1 1 41
M  V30 45 1 1 42
M  V30 46 1 1 43
M  V30 47 1 3 44
M  V30 48 1 3 45
M  V30 49 1 3 46
M  V30 50 1 5 47
M  V30 51 1 6 48
M  V30 52 1 7 49
M  V30 53 1 9 50
M  V30 54 1 11 51
M  V30 55 1 12 52
M  V30 56 1 14 53
M  V30 57 1 15 54
M  V30 58 1 16 55 CFG=1
M  V30 59 1 19 56
M  V30 60 1 23 57
M  V30 61 1 23 58
M  V30 62 1 26 59
M  V30 63 1 27 60
M  V30 64 1 29 61
M  V30 65 1 29 62
M  V30 66 1 30 63 CFG=1
M  V30 67 1 31 64
M  V30 68 1 31 65
M  V30 69 1 33 66
M  V30 70 1 35 67
M  V30 71 1 36 68
M  V30 END BOND
M  V30 END CTAB
M  END
