
     RDKit          3D

  0  0  0  0  0  0  0  0  0  0999 V3000
M  V30 BEGIN CTAB
M  V30 COUNTS 29 30 0 0 0
M  V30 BEGIN ATOM
M  V30 1 N -4.91113 -0.73148 1.26031 0
M  V30 2 C -3.71791 -0.186091 0.672276 0
M  V30 3 N -3.15347 0.934515 1.14332 0
M  V30 4 C -2.04798 1.46578 0.63362 0
M  V30 5 C -1.42249 0.844136 -0.449641 0
M  V30 6 C -0.1779 1.42392 -0.987154 0
M  V30 7 C 1.04817 0.808749 -0.507672 0
M  V30 8 C 1.79892 -0.0949996 -1.20019 0
M  V30 9 C 2.95976 -0.63118 -0.626576 0
M  V30 10 C 3.39153 -0.282686 0.631283 0
M  V30 11 C 2.62156 0.6386 1.32764 0
M  V30 12 C 1.47957 1.17175 0.775271 0
M  V30 13 N 4.54403 -0.79761 1.25911 0 CHG=1
M  V30 14 O 5.32233 -1.70077 0.59643 0 CHG=-1
M  V30 15 O 4.86411 -0.45176 2.40366 0
M  V30 16 C -1.99848 -0.299338 -0.930693 0
M  V30 17 N -1.40324 -0.953747 -2.04593 0
M  V30 18 N -3.14441 -0.81634 -0.372013 0
M  V30 19 H -4.78247 -1.17722 2.17993 0
M  V30 20 H -5.81872 -0.68113 0.800012 0
M  V30 21 H -1.57812 2.37821 1.0086 0
M  V30 22 H -0.233784 2.52224 -0.802108 0
M  V30 23 H -0.19768 1.32444 -2.11164 0
M  V30 24 H 1.50815 -0.395927 -2.20749 0
M  V30 25 H 3.54358 -1.34445 -1.18844 0
M  V30 26 H 2.94114 0.930698 2.32109 0
M  V30 27 H 0.911864 1.8829 1.34854 0
M  V30 28 H -1.3226 -0.506651 -2.98534 0
M  V30 29 H -1.02433 -1.91983 -1.94619 0
M  V30 END ATOM
M  V30 BEGIN BOND
M  V30 1 1 1 2
M  V30 2 2 2 3
M  V30 3 1 3 4
M  V30 4 2 4 5
M  V30 5 1 5 6
M  V30 6 1 6 7
M  V30 7 2 7 8
M  V30 8 1 8 9
M  V30 9 2 9 10
M  V30 10 1 10 11
M  V30 11 2 11 12
M  V30 12 1 10 13
M  V30 13 1 13 14
M  V30 14 2 13 15
M  V30 15 1 5 16
M  V30 16 1 16 17
M  V30 17 2 16 18
M  V30 18 1 18 2
M  V30 19 1 12 7
M  V30 20 1 1 19
M  V30 21 1 1 20
M  V30 22 1 4 21
M  V30 23 1 6 22
M  V30 24 1 6 23
M  V30 25 1 8 24
M  V30 26 1 9 25
M  V30 27 1 11 26
M  V30 28 1 12 27
M  V30 29 1 17 28
M  V30 30 1 17 29
M  V30 END BOND
M  V30 END CTAB
M  END
