
     RDKit          3D

  0  0  0  0  0  0  0  0  0  0999 V3000
M  V30 BEGIN CTAB
M  V30 COUNTS 28 27 0 0 0
M  V30 BEGIN ATOM
M  V30 1 C -1.49852 0.0359552 0.646977 0 CFG=2
M  V30 2 O -1.31954 -0.851306 1.70406 0
M  V30 3 C -3.00003 -0.0290469 0.337303 0
M  V30 4 N -3.39241 0.82589 -0.736673 0
M  V30 5 C -0.760788 -0.398954 -0.589201 0 CFG=1
M  V30 6 O -0.946876 0.50006 -1.62678 0
M  V30 7 C 0.692323 -0.694344 -0.349547 0 CFG=2
M  V30 8 O 0.884885 -1.59867 0.693476 0
M  V30 9 C 1.51261 0.516765 -0.0341669 0 CFG=2
M  V30 10 O 1.45778 1.52926 -0.954905 0
M  V30 11 C 2.96034 0.0439036 0.118062 0
M  V30 12 N 3.49145 -0.44296 -1.11972 0
M  V30 13 H -1.2461 1.06839 0.877628 0
M  V30 14 H -1.30095 -0.414837 2.58579 0
M  V30 15 H -3.5843 0.298702 1.24633 0
M  V30 16 H -3.32105 -1.07449 0.15775 0
M  V30 17 H -4.16295 0.435879 -1.30074 0
M  V30 18 H -3.46434 1.81925 -0.50258 0
M  V30 19 H -1.26246 -1.35289 -0.926067 0
M  V30 20 H -0.962539 1.44088 -1.36534 0
M  V30 21 H 1.10864 -1.17134 -1.25838 0
M  V30 22 H 1.12341 -1.11352 1.51353 0
M  V30 23 H 1.20736 0.861815 0.988181 0
M  V30 24 H 1.392 1.23264 -1.87526 0
M  V30 25 H 3.05307 -0.753902 0.870605 0
M  V30 26 H 3.60282 0.886747 0.455255 0
M  V30 27 H 4.46472 -0.167321 -1.30744 0
M  V30 28 H 3.27145 -1.43254 -1.31221 0
M  V30 END ATOM
M  V30 BEGIN BOND
M  V30 1 1 1 2
M  V30 2 1 1 3
M  V30 3 1 3 4
M  V30 4 1 1 5
M  V30 5 1 5 6
M  V30 6 1 5 7
M  V30 7 1 7 8
M  V30 8 1 7 9
M  V30 9 1 9 10
M  V30 10 1 9 11
M  V30 11 1 11 12
M  V30 12 1 1 13 CFG=1
M  V30 13 1 2 14
M  V30 14 1 3 15
M  V30 15 1 3 16
M  V30 16 1 4 17
M  V30 17 1 4 18
M  V30 18 1 5 19 CFG=3
M  V30 19 1 6 20
M  V30 20 1 7 21 CFG=3
M  V30 21 1 8 22
M  V30 22 1 9 23 CFG=1
M  V30 23 1 10 24
M  V30 24 1 11 25
M  V30 25 1 11 26
M  V30 26 1 12 27
M  V30 27 1 12 28
M  V30 END BOND
M  V30 END CTAB
M  END
