
     RDKit          3D

  0  0  0  0  0  0  0  0  0  0999 V3000
M  V30 BEGIN CTAB
M  V30 COUNTS 25 25 0 0 0
M  V30 BEGIN ATOM
M  V30 1 C 2.95068 -0.463377 0.220655 0
M  V30 2 C 1.6781 0.196717 -0.452169 0 CFG=1
M  V30 3 C 0.557349 -0.476879 0.190294 0
M  V30 4 C -0.817151 -0.0247183 0.0124578 0
M  V30 5 C -1.15653 1.3112 -0.0153377 0
M  V30 6 C -2.51769 1.67864 -0.0330421 0
M  V30 7 C -3.48902 0.763432 -0.0316951 0
M  V30 8 N -3.16639 -0.560567 -0.00588598 0
M  V30 9 C -1.8614 -0.925652 0.0130479 0
M  V30 10 N -1.58639 -2.33955 -0.0345083 0
M  V30 11 O 0.825819 -0.260904 1.63186 0
M  V30 12 N 1.92421 1.57661 -0.388313 0
M  V30 13 H 3.84655 0.00227602 -0.141619 0
M  V30 14 H 2.82786 -1.53593 0.0779546 0
M  V30 15 H 2.82111 -0.264235 1.31024 0
M  V30 16 H 1.79018 -0.119998 -1.51065 0
M  V30 17 H 0.679127 -1.57753 0.0887867 0
M  V30 18 H -0.463918 2.12159 -0.0161231 0
M  V30 19 H -2.75863 2.73652 -0.0574336 0
M  V30 20 H -4.57261 0.993911 -0.0380406 0
M  V30 21 H -1.30774 -2.73885 -0.95047 0
M  V30 22 H -1.66873 -2.90648 0.815275 0
M  V30 23 H 1.00093 -1.11189 2.05618 0
M  V30 24 H 1.47837 2.12249 -1.18909 0
M  V30 25 H 2.98591 1.80319 -0.439386 0
M  V30 END ATOM
M  V30 BEGIN BOND
M  V30 1 1 1 2
M  V30 2 1 2 3
M  V30 3 1 3 4
M  V30 4 2 4 5
M  V30 5 1 5 6
M  V30 6 2 6 7
M  V30 7 1 7 8
M  V30 8 2 8 9
M  V30 9 1 9 10
M  V30 10 1 3 11
M  V30 11 1 2 12
M  V30 12 1 9 4
M  V30 13 1 1 13
M  V30 14 1 1 14
M  V30 15 1 1 15
M  V30 16 1 2 16 CFG=3
M  V30 17 1 3 17
M  V30 18 1 5 18
M  V30 19 1 6 19
M  V30 20 1 7 20
M  V30 21 1 10 21
M  V30 22 1 10 22
M  V30 23 1 11 23
M  V30 24 1 12 24
M  V30 25 1 12 25
M  V30 END BOND
M  V30 END CTAB
M  END
