
     RDKit          3D

  0  0  0  0  0  0  0  0  0  0999 V3000
M  V30 BEGIN CTAB
M  V30 COUNTS 44 46 0 0 0
M  V30 BEGIN ATOM
M  V30 1 C 5.74529 0.117537 1.44424 0
M  V30 2 C 4.54957 -0.301749 0.615226 0
M  V30 3 C 4.45029 0.637158 -0.559859 0
M  V30 4 C 3.28151 0.306128 -1.45794 0
M  V30 5 C 1.96433 0.386814 -0.724981 0
M  V30 6 C 0.848825 0.0440897 -1.68616 0
M  V30 7 C -0.465721 0.0818307 -1.06878 0
M  V30 8 C -1.26656 1.18622 -1.17824 0
M  V30 9 C -2.49253 1.27378 -0.575749 0
M  V30 10 C -2.97561 0.188191 0.199412 0
M  V30 11 C -4.18431 0.284346 0.790413 0
M  V30 12 N -4.81663 -0.672367 1.58674 0
M  V30 13 N -4.88971 1.46135 0.59738 0
M  V30 14 C -4.45734 2.48222 -0.120218 0
M  V30 15 N -5.23775 3.68293 -0.285154 0
M  V30 16 N -3.25651 2.36513 -0.696748 0
M  V30 17 C -2.1886 -0.962101 0.33677 0
M  V30 18 C -0.950702 -0.964222 -0.313394 0
M  V30 19 C -0.167247 -2.10222 -0.19764 0
M  V30 20 C -0.585138 -3.18194 0.525679 0
M  V30 21 C -1.80252 -3.16154 1.15849 0
M  V30 22 C -2.62266 -2.02817 1.06253 0
M  V30 23 H 5.77533 1.23372 1.41492 0
M  V30 24 H 6.69821 -0.255239 1.03385 0
M  V30 25 H 5.59866 -0.147679 2.51361 0
M  V30 26 H 3.6559 -0.225552 1.27743 0
M  V30 27 H 4.73716 -1.35018 0.299271 0
M  V30 28 H 5.38976 0.583849 -1.12746 0
M  V30 29 H 4.34466 1.6642 -0.156387 0
M  V30 30 H 3.3008 1.01469 -2.31171 0
M  V30 31 H 3.40176 -0.718512 -1.86339 0
M  V30 32 H 1.95597 -0.298801 0.110373 0
M  V30 33 H 1.77005 1.41746 -0.343954 0
M  V30 34 H 0.884082 0.874491 -2.46097 0
M  V30 35 H 1.06651 -0.860061 -2.29104 0
M  V30 36 H -0.935375 2.04205 -1.7632 0
M  V30 37 H -4.73496 -0.73787 2.63116 0
M  V30 38 H -5.47389 -1.36815 1.11959 0
M  V30 39 H -4.83914 4.61095 -0.111288 0
M  V30 40 H -6.23266 3.61721 -0.5887 0
M  V30 41 H 0.790949 -2.09357 -0.726403 0
M  V30 42 H 0.0529303 -4.0516 0.594309 0
M  V30 43 H -2.16524 -3.99345 1.7378 0
M  V30 44 H -3.52173 -2.08138 1.56017 0
M  V30 END ATOM
M  V30 BEGIN BOND
M  V30 1 1 1 2
M  V30 2 1 2 3
M  V30 3 1 3 4
M  V30 4 1 4 5
M  V30 5 1 5 6
M  V30 6 1 6 7
M  V30 7 2 7 8
M  V30 8 1 8 9
M  V30 9 2 9 10
M  V30 10 1 10 11
M  V30 11 1 11 12
M  V30 12 2 11 13
M  V30 13 1 13 14
M  V30 14 1 14 15
M  V30 15 2 14 16
M  V30 16 1 10 17
M  V30 17 2 17 18
M  V30 18 1 18 19
M  V30 19 2 19 20
M  V30 20 1 20 21
M  V30 21 2 21 22
M  V30 22 1 18 7
M  V30 23 1 16 9
M  V30 24 1 22 17
M  V30 25 1 1 23
M  V30 26 1 1 24
M  V30 27 1 1 25
M  V30 28 1 2 26
M  V30 29 1 2 27
M  V30 30 1 3 28
M  V30 31 1 3 29
M  V30 32 1 4 30
M  V30 33 1 4 31
M  V30 34 1 5 32
M  V30 35 1 5 33
M  V30 36 1 6 34
M  V30 37 1 6 35
M  V30 38 1 8 36
M  V30 39 1 12 37
M  V30 40 1 12 38
M  V30 41 1 15 39
M  V30 42 1 15 40
M  V30 43 1 19 41
M  V30 44 1 20 42
M  V30 45 1 21 43
M  V30 46 1 22 44
M  V30 END BOND
M  V30 END CTAB
M  END
