
     RDKit          3D

  0  0  0  0  0  0  0  0  0  0999 V3000
M  V30 BEGIN CTAB
M  V30 COUNTS 31 31 0 0 0
M  V30 BEGIN ATOM
M  V30 1 N 4.79567 0.727672 1.06816 0
M  V30 2 C 3.46392 0.686227 0.593801 0
M  V30 3 N 2.78357 1.81425 0.425862 0
M  V30 4 C 1.51819 1.83899 -0.0200705 0
M  V30 5 C 0.834399 0.647963 -0.33857 0
M  V30 6 C 1.575 -0.522558 -0.152294 0
M  V30 7 C 2.88055 -0.511601 0.310176 0
M  V30 8 N 3.59681 -1.73579 0.483513 0
M  V30 9 O -0.360571 0.660242 -0.760884 0
M  V30 10 C -1.59644 0.672937 -1.19765 0
M  V30 11 C -2.51378 -0.102798 -0.227675 0
M  V30 12 C -1.99935 -1.50642 -0.174683 0
M  V30 13 C -2.3351 0.54979 1.12439 0
M  V30 14 C -3.9513 -0.0264626 -0.691737 0
M  V30 15 H 5.16289 1.54643 1.62681 0
M  V30 16 H 5.49541 -0.0417687 0.897859 0
M  V30 17 H 0.962933 2.7553 -0.157564 0
M  V30 18 H 1.10146 -1.46942 -0.384322 0
M  V30 19 H 4.52585 -1.92129 0.0600585 0
M  V30 20 H 3.1198 -2.45943 1.07944 0
M  V30 21 H -1.79526 0.186218 -2.20467 0
M  V30 22 H -2.01564 1.72247 -1.23261 0
M  V30 23 H -1.50695 -1.832 -1.13643 0
M  V30 24 H -1.25432 -1.68041 0.617091 0
M  V30 25 H -2.83221 -2.23517 -0.0366567 0
M  V30 26 H -2.42603 -0.163318 1.95089 0
M  V30 27 H -1.33354 1.04412 1.22397 0
M  V30 28 H -3.07305 1.37457 1.19512 0
M  V30 29 H -4.59023 -0.237105 0.170224 0
M  V30 30 H -4.11202 -0.789679 -1.45686 0
M  V30 31 H -4.12066 1.00806 -1.04733 0
M  V30 END ATOM
M  V30 BEGIN BOND
M  V30 1 1 1 2
M  V30 2 2 2 3
M  V30 3 1 3 4
M  V30 4 2 4 5
M  V30 5 1 5 6
M  V30 6 2 6 7
M  V30 7 1 7 8
M  V30 8 1 5 9
M  V30 9 1 9 10
M  V30 10 1 10 11
M  V30 11 1 11 12
M  V30 12 1 11 13
M  V30 13 1 11 14
M  V30 14 1 7 2
M  V30 15 1 1 15
M  V30 16 1 1 16
M  V30 17 1 4 17
M  V30 18 1 6 18
M  V30 19 1 8 19
M  V30 20 1 8 20
M  V30 21 1 10 21
M  V30 22 1 10 22
M  V30 23 1 12 23
M  V30 24 1 12 24
M  V30 25 1 12 25
M  V30 26 1 13 26
M  V30 27 1 13 27
M  V30 28 1 13 28
M  V30 29 1 14 29
M  V30 30 1 14 30
M  V30 31 1 14 31
M  V30 END BOND
M  V30 END CTAB
M  END
