
     RDKit          3D

  0  0  0  0  0  0  0  0  0  0999 V3000
M  V30 BEGIN CTAB
M  V30 COUNTS 45 47 0 0 0
M  V30 BEGIN ATOM
M  V30 1 N -3.14471 4.05093 0.357584 0
M  V30 2 C -2.40936 2.82897 0.178991 0
M  V30 3 N -2.79068 1.77593 0.792708 0
M  V30 4 C -2.11645 0.494128 0.666014 0
M  V30 5 N -0.876724 0.540017 -0.0162229 0
M  V30 6 C 0.0617549 -0.53107 -0.0203464 0
M  V30 7 C 0.731676 -0.74495 1.33434 0
M  V30 8 C 1.70868 -1.90419 1.24682 0
M  V30 9 O 2.71419 -1.78721 0.341928 0
M  V30 10 C 3.76507 -0.955673 0.152133 0
M  V30 11 C 4.14094 0.10882 0.933774 0
M  V30 12 C 5.2492 0.904076 0.644881 0
M  V30 13 C 6.01714 0.637966 -0.458657 0
M  V30 14 C 5.67898 -0.409617 -1.2597 0
M  V30 15 C 4.5919 -1.17873 -0.96482 0
M  V30 16 F 4.29289 -2.20695 -1.7859 0
M  V30 17 C -0.48957 1.74809 -0.717068 0
M  V30 18 N 0.682784 1.77122 -1.51393 0
M  V30 19 N -1.2372 2.79059 -0.589479 0
M  V30 20 C -3.12764 -0.434567 0.140136 0
M  V30 21 C -4.27825 -0.630605 0.867933 0
M  V30 22 C -5.27561 -1.47855 0.402441 0
M  V30 23 C -5.13741 -2.14287 -0.797608 0
M  V30 24 C -3.98069 -1.94881 -1.53498 0
M  V30 25 C -2.9858 -1.08987 -1.05017 0
M  V30 26 H -4.18108 4.05142 0.416171 0
M  V30 27 H -2.61432 4.94973 0.427328 0
M  V30 28 H -1.91479 0.153568 1.72586 0
M  V30 29 H -0.420603 -1.49946 -0.244393 0
M  V30 30 H 0.885298 -0.377653 -0.757102 0
M  V30 31 H 1.30692 0.164629 1.53682 0
M  V30 32 H 0.00981227 -0.996272 2.1254 0
M  V30 33 H 1.06513 -2.78957 0.93714 0
M  V30 34 H 2.07944 -2.17952 2.2724 0
M  V30 35 H 3.57186 0.337777 1.8112 0
M  V30 36 H 5.53213 1.74514 1.27552 0
M  V30 37 H 6.88521 1.24255 -0.706721 0
M  V30 38 H 6.31682 -0.588524 -2.13218 0
M  V30 39 H 0.665062 1.61485 -2.53816 0
M  V30 40 H 1.59902 1.95265 -1.05122 0
M  V30 41 H -4.46136 -0.143526 1.82126 0
M  V30 42 H -6.15945 -1.60272 1.00375 0
M  V30 43 H -5.93318 -2.79272 -1.12576 0
M  V30 44 H -3.88848 -2.4685 -2.45831 0
M  V30 45 H -2.12853 -0.980954 -1.68979 0
M  V30 END ATOM
M  V30 BEGIN BOND
M  V30 1 1 1 2
M  V30 2 2 2 3
M  V30 3 1 3 4
M  V30 4 1 4 5
M  V30 5 1 5 6
M  V30 6 1 6 7
M  V30 7 1 7 8
M  V30 8 1 8 9
M  V30 9 1 9 10
M  V30 10 2 10 11
M  V30 11 1 11 12
M  V30 12 2 12 13
M  V30 13 1 13 14
M  V30 14 2 14 15
M  V30 15 1 15 16
M  V30 16 1 5 17
M  V30 17 1 17 18
M  V30 18 2 17 19
M  V30 19 1 4 20
M  V30 20 2 20 21
M  V30 21 1 21 22
M  V30 22 2 22 23
M  V30 23 1 23 24
M  V30 24 2 24 25
M  V30 25 1 19 2
M  V30 26 1 25 20
M  V30 27 1 15 10
M  V30 28 1 1 26
M  V30 29 1 1 27
M  V30 30 1 4 28
M  V30 31 1 6 29
M  V30 32 1 6 30
M  V30 33 1 7 31
M  V30 34 1 7 32
M  V30 35 1 8 33
M  V30 36 1 8 34
M  V30 37 1 11 35
M  V30 38 1 12 36
M  V30 39 1 13 37
M  V30 40 1 14 38
M  V30 41 1 18 39
M  V30 42 1 18 40
M  V30 43 1 21 41
M  V30 44 1 22 42
M  V30 45 1 23 43
M  V30 46 1 24 44
M  V30 47 1 25 45
M  V30 END BOND
M  V30 END CTAB
M  END
