
     RDKit          3D

  0  0  0  0  0  0  0  0  0  0999 V3000
M  V30 BEGIN CTAB
M  V30 COUNTS 19 19 0 0 0
M  V30 BEGIN ATOM
M  V30 1 N -2.09716 -1.48694 -0.517151 0
M  V30 2 C -1.51838 -0.178764 -0.124284 0
M  V30 3 N -2.34679 0.711183 0.0825872 0
M  V30 4 N -2.24951 1.98805 0.448776 0
M  V30 5 C -0.085922 -0.0867853 -0.112873 0
M  V30 6 C 0.610532 -1.31405 -0.0712833 0
M  V30 7 N 1.93299 -1.40512 0.0440167 0
M  V30 8 C 2.73195 -0.332488 0.131096 0
M  V30 9 C 2.12543 0.887698 0.0955085 0
M  V30 10 C 0.712584 0.999779 -0.0280077 0
M  V30 11 O 0.281978 2.17514 -0.0573781 0
M  V30 12 H -1.96678 -2.32133 0.0424307 0
M  V30 13 H -2.63159 -1.47332 -1.38959 0
M  V30 14 H -2.03736 2.34552 1.42879 0
M  V30 15 H -2.4215 2.74094 -0.298437 0
M  V30 16 H 0.0540812 -2.22838 -0.134005 0
M  V30 17 H 2.37762 -2.35472 0.0733341 0
M  V30 18 H 3.81284 -0.454749 0.225296 0
M  V30 19 H 2.71498 1.78833 0.161179 0
M  V30 END ATOM
M  V30 BEGIN BOND
M  V30 1 1 1 2
M  V30 2 2 2 3
M  V30 3 1 3 4
M  V30 4 1 2 5
M  V30 5 2 5 6
M  V30 6 1 6 7
M  V30 7 1 7 8
M  V30 8 2 8 9
M  V30 9 1 9 10
M  V30 10 2 10 11
M  V30 11 1 10 5
M  V30 12 1 1 12
M  V30 13 1 1 13
M  V30 14 1 4 14
M  V30 15 1 4 15
M  V30 16 1 6 16
M  V30 17 1 7 17
M  V30 18 1 8 18
M  V30 19 1 9 19
M  V30 END BOND
M  V30 END CTAB
M  END
