
     RDKit          3D

  0  0  0  0  0  0  0  0  0  0999 V3000
M  V30 BEGIN CTAB
M  V30 COUNTS 59 60 0 0 0
M  V30 BEGIN ATOM
M  V30 1 O 2.60989 0.00031857 0.573453 0
M  V30 2 C 2.86853 1.18609 0.26955 0
M  V30 3 N 3.90525 1.8538 0.961122 0
M  V30 4 C 4.70232 1.26093 2.00878 0
M  V30 5 C 5.71318 0.33386 1.39709 0
M  V30 6 C 6.84636 0.850024 0.79002 0
M  V30 7 C 7.7738 0.00678951 0.234308 0
M  V30 8 C 7.62767 -1.37629 0.251362 0
M  V30 9 C 6.49651 -1.8873 0.857615 0
M  V30 10 C 5.57494 -1.03485 1.41057 0
M  V30 11 S 8.82613 -2.40416 -0.464602 0
M  V30 12 O 8.12519 -3.66463 -0.926818 0
M  V30 13 O 9.43737 -1.69437 -1.63682 0
M  V30 14 N 10.0378 -2.83909 0.658496 0
M  V30 15 C 2.07374 1.82955 -0.801137 0
M  V30 16 C 1.05858 0.863501 -1.36328 0
M  V30 17 S -0.0942963 0.287417 -0.104277 0
M  V30 18 C -1.13003 1.67393 0.467477 0
M  V30 19 C -2.01774 2.15303 -0.647826 0
M  V30 20 C -2.87742 1.00751 -1.06646 0
M  V30 21 O -2.78755 -0.109253 -0.507206 0
M  V30 22 N -3.81511 1.22283 -2.13439 0
M  V30 23 C -4.63282 0.124639 -2.53134 0
M  V30 24 C -5.75706 -0.155572 -1.59201 0
M  V30 25 C -6.02645 0.614291 -0.4798 0
M  V30 26 C -7.09329 0.302888 0.364164 0
M  V30 27 C -7.91814 -0.77701 0.127443 0
M  V30 28 C -7.64284 -1.54232 -0.986424 0
M  V30 29 C -6.58834 -1.23426 -1.82034 0
M  V30 30 S -9.25163 -1.15 1.19902 0
M  V30 31 O -9.68904 0.135266 1.83157 0
M  V30 32 O -10.416 -1.69656 0.437171 0
M  V30 33 N -8.76879 -2.21716 2.46077 0
M  V30 34 H 4.08935 2.86131 0.669107 0
M  V30 35 H 5.23484 1.98578 2.61905 0
M  V30 36 H 4.00013 0.638198 2.62476 0
M  V30 37 H 6.96418 1.91892 0.774035 0
M  V30 38 H 8.65793 0.451944 -0.237491 0
M  V30 39 H 6.39501 -2.96626 0.863991 0
M  V30 40 H 4.71496 -1.47792 1.87227 0
M  V30 41 H 10.7202 -2.06629 0.736159 0
M  V30 42 H 9.60339 -3.14296 1.53457 0
M  V30 43 H 1.51282 2.68308 -0.348363 0
M  V30 44 H 2.73113 2.21129 -1.60823 0
M  V30 45 H 0.444386 1.45335 -2.10654 0
M  V30 46 H 1.5636 0.0172174 -1.87536 0
M  V30 47 H -0.52372 2.47002 0.896595 0
M  V30 48 H -1.80315 1.25995 1.25601 0
M  V30 49 H -2.69567 2.92095 -0.241421 0
M  V30 50 H -1.43873 2.53199 -1.52047 0
M  V30 51 H -3.87084 2.1829 -2.59122 0
M  V30 52 H -5.03302 0.277896 -3.56951 0
M  V30 53 H -3.98914 -0.784338 -2.55739 0
M  V30 54 H -5.38657 1.47066 -0.278131 0
M  V30 55 H -7.28442 0.91444 1.22247 0
M  V30 56 H -8.29961 -2.38749 -1.15924 0
M  V30 57 H -6.38199 -1.84407 -2.69359 0
M  V30 58 H -7.74679 -2.42015 2.43991 0
M  V30 59 H -9.34905 -3.08424 2.48856 0
M  V30 END ATOM
M  V30 BEGIN BOND
M  V30 1 2 1 2
M  V30 2 1 2 3
M  V30 3 1 3 4
M  V30 4 1 4 5
M  V30 5 2 5 6
M  V30 6 1 6 7
M  V30 7 2 7 8
M  V30 8 1 8 9
M  V30 9 2 9 10
M  V30 10 1 8 11
M  V30 11 2 11 12
M  V30 12 2 11 13
M  V30 13 1 11 14
M  V30 14 1 2 15
M  V30 15 1 15 16
M  V30 16 1 16 17
M  V30 17 1 17 18
M  V30 18 1 18 19
M  V30 19 1 19 20
M  V30 20 2 20 21
M  V30 21 1 20 22
M  V30 22 1 22 23
M  V30 23 1 23 24
M  V30 24 2 24 25
M  V30 25 1 25 26
M  V30 26 2 26 27
M  V30 27 1 27 28
M  V30 28 2 28 29
M  V30 29 1 27 30
M  V30 30 2 30 31
M  V30 31 2 30 32
M  V30 32 1 30 33
M  V30 33 1 10 5
M  V30 34 1 29 24
M  V30 35 1 3 34
M  V30 36 1 4 35
M  V30 37 1 4 36
M  V30 38 1 6 37
M  V30 39 1 7 38
M  V30 40 1 9 39
M  V30 41 1 10 40
M  V30 42 1 14 41
M  V30 43 1 14 42
M  V30 44 1 15 43
M  V30 45 1 15 44
M  V30 46 1 16 45
M  V30 47 1 16 46
M  V30 48 1 18 47
M  V30 49 1 18 48
M  V30 50 1 19 49
M  V30 51 1 19 50
M  V30 52 1 22 51
M  V30 53 1 23 52
M  V30 54 1 23 53
M  V30 55 1 25 54
M  V30 56 1 26 55
M  V30 57 1 28 56
M  V30 58 1 29 57
M  V30 59 1 33 58
M  V30 60 1 33 59
M  V30 END BOND
M  V30 END CTAB
M  END
