
     RDKit          3D

  0  0  0  0  0  0  0  0  0  0999 V3000
M  V30 BEGIN CTAB
M  V30 COUNTS 66 69 0 0 0
M  V30 BEGIN ATOM
M  V30 1 N 9.91794 0.818418 -1.41612 0
M  V30 2 C 8.51465 1.21734 -1.4518 0
M  V30 3 C 7.97817 1.09171 -0.0394549 0
M  V30 4 C 6.50934 1.49069 0.0220386 0
M  V30 5 C 5.66652 0.628083 -0.859327 0
M  V30 6 C 5.65644 -0.813767 -0.564199 0
M  V30 7 C 5.06198 -1.31201 0.702081 0
M  V30 8 N 3.64999 -1.11544 0.83661 0
M  V30 9 C 3.09032 -0.106099 1.48474 0
M  V30 10 O 3.72645 0.786499 2.09747 0
M  V30 11 C 1.68512 0.0281804 1.52999 0
M  V30 12 C 1.09628 1.07919 2.20321 0
M  V30 13 C -0.271104 1.22376 2.25645 0
M  V30 14 C -1.10991 0.307037 1.62787 0
M  V30 15 C -2.48819 0.436098 1.67074 0
M  V30 16 O -3.01476 1.39727 2.28676 0
M  V30 17 N -3.24116 -0.485056 1.04203 0
M  V30 18 C -4.67987 -0.411439 1.04665 0
M  V30 19 C -5.08949 0.410166 -0.16648 0
M  V30 20 C -6.61384 0.487731 -0.160569 0
M  V30 21 C -7.01708 1.29535 -1.35291 0
M  V30 22 C -8.46591 1.50946 -1.51282 0
M  V30 23 C -9.35692 0.34576 -1.67674 0
M  V30 24 N -9.42534 -0.610909 -0.638318 0
M  V30 25 C -2.65446 -1.50446 0.389547 0
M  V30 26 O -3.36496 -2.36932 -0.200848 0
M  V30 27 C -1.28366 -1.64818 0.336806 0
M  V30 28 C -0.684353 -2.70498 -0.339783 0
M  V30 29 C 0.680944 -2.85187 -0.394685 0
M  V30 30 C 1.48955 -1.93945 0.229964 0
M  V30 31 C 2.8605 -2.03766 0.206658 0
M  V30 32 O 3.40406 -2.98857 -0.402021 0
M  V30 33 C 0.877101 -0.887337 0.903123 0
M  V30 34 C -0.491785 -0.732587 0.963031 0
M  V30 35 H 10.2481 0.561277 -2.36343 0
M  V30 36 H 10.4895 1.56202 -0.964421 0
M  V30 37 H 8.41822 2.22905 -1.85586 0
M  V30 38 H 7.95332 0.502349 -2.08924 0
M  V30 39 H 8.14577 0.0599701 0.302473 0
M  V30 40 H 8.52808 1.80639 0.60535 0
M  V30 41 H 6.47314 2.52811 -0.416426 0
M  V30 42 H 6.20058 1.49236 1.05807 0
M  V30 43 H 4.62175 1.01767 -0.789437 0
M  V30 44 H 5.93774 0.758684 -1.93276 0
M  V30 45 H 6.68641 -1.23979 -0.739765 0
M  V30 46 H 5.06586 -1.30355 -1.41401 0
M  V30 47 H 5.59404 -0.887147 1.59356 0
M  V30 48 H 5.23253 -2.42923 0.791362 0
M  V30 49 H 1.72181 1.81171 2.70412 0
M  V30 50 H -0.76205 2.03247 2.77329 0
M  V30 51 H -4.98945 0.058639 1.98807 0
M  V30 52 H -5.07433 -1.43034 0.99299 0
M  V30 53 H -4.62643 1.40809 -0.157555 0
M  V30 54 H -4.73908 -0.121578 -1.073 0
M  V30 55 H -6.98525 -0.551529 -0.142169 0
M  V30 56 H -6.95255 1.00153 0.75872 0
M  V30 57 H -6.5593 2.32085 -1.1824 0
M  V30 58 H -6.50206 0.958356 -2.28787 0
M  V30 59 H -8.62993 2.18331 -2.38969 0
M  V30 60 H -8.80531 2.14523 -0.63443 0
M  V30 61 H -9.19517 -0.174501 -2.67077 0
M  V30 62 H -10.4061 0.759505 -1.79893 0
M  V30 63 H -9.39356 -1.59903 -0.929351 0
M  V30 64 H -10.0247 -0.395982 0.16089 0
M  V30 65 H -1.37146 -3.40621 -0.821843 0
M  V30 66 H 1.08732 -3.69229 -0.934894 0
M  V30 END ATOM
M  V30 BEGIN BOND
M  V30 1 1 1 2
M  V30 2 1 2 3
M  V30 3 1 3 4
M  V30 4 1 4 5
M  V30 5 1 5 6
M  V30 6 1 6 7
M  V30 7 1 7 8
M  V30 8 1 8 9
M  V30 9 2 9 10
M  V30 10 1 9 11
M  V30 11 2 11 12
M  V30 12 1 12 13
M  V30 13 2 13 14
M  V30 14 1 14 15
M  V30 15 2 15 16
M  V30 16 1 15 17
M  V30 17 1 17 18
M  V30 18 1 18 19
M  V30 19 1 19 20
M  V30 20 1 20 21
M  V30 21 1 21 22
M  V30 22 1 22 23
M  V30 23 1 23 24
M  V30 24 1 17 25
M  V30 25 2 25 26
M  V30 26 1 25 27
M  V30 27 2 27 28
M  V30 28 1 28 29
M  V30 29 2 29 30
M  V30 30 1 30 31
M  V30 31 2 31 32
M  V30 32 1 30 33
M  V30 33 2 33 34
M  V30 34 1 31 8
M  V30 35 1 33 11
M  V30 36 1 34 14
M  V30 37 1 34 27
M  V30 38 1 1 35
M  V30 39 1 1 36
M  V30 40 1 2 37
M  V30 41 1 2 38
M  V30 42 1 3 39
M  V30 43 1 3 40
M  V30 44 1 4 41
M  V30 45 1 4 42
M  V30 46 1 5 43
M  V30 47 1 5 44
M  V30 48 1 6 45
M  V30 49 1 6 46
M  V30 50 1 7 47
M  V30 51 1 7 48
M  V30 52 1 12 49
M  V30 53 1 13 50
M  V30 54 1 18 51
M  V30 55 1 18 52
M  V30 56 1 19 53
M  V30 57 1 19 54
M  V30 58 1 20 55
M  V30 59 1 20 56
M  V30 60 1 21 57
M  V30 61 1 21 58
M  V30 62 1 22 59
M  V30 63 1 22 60
M  V30 64 1 23 61
M  V30 65 1 23 62
M  V30 66 1 24 63
M  V30 67 1 24 64
M  V30 68 1 28 65
M  V30 69 1 29 66
M  V30 END BOND
M  V30 END CTAB
M  END
