
     RDKit          3D

  0  0  0  0  0  0  0  0  0  0999 V3000
M  V30 BEGIN CTAB
M  V30 COUNTS 36 38 0 0 0
M  V30 BEGIN ATOM
M  V30 1 N -5.59237 2.35993 0.568275 0
M  V30 2 C -4.53282 1.4237 0.407952 0
M  V30 3 N -3.37307 1.73706 -0.171171 0
M  V30 4 C -2.34213 0.892177 -0.347084 0
M  V30 5 C -2.53082 -0.403258 0.122536 0
M  V30 6 C -1.49018 -1.2876 -0.0453721 0
M  V30 7 C -0.293506 -0.916695 -0.657216 0
M  V30 8 N 0.749733 -1.85586 -0.819567 0
M  V30 9 C 2.05871 -1.53838 -1.31862 0
M  V30 10 C 2.83414 -0.623912 -0.457172 0
M  V30 11 C 3.98119 -0.0586182 -0.972592 0
M  V30 12 C 4.75423 0.798292 -0.2171 0
M  V30 13 C 4.417 1.12763 1.08272 0
M  V30 14 O 5.20966 1.99762 1.8373 0
M  V30 15 C 3.27191 0.564446 1.59993 0
M  V30 16 C 2.49202 -0.301546 0.834316 0
M  V30 17 C -0.13773 0.370581 -1.11098 0
M  V30 18 C -1.16785 1.28181 -0.955401 0
M  V30 19 C -3.71178 -0.777703 0.728943 0
M  V30 20 N -3.87089 -2.11663 1.19929 0
M  V30 21 N -4.68215 0.144627 0.856183 0
M  V30 22 H -6.26854 2.44274 -0.220236 0
M  V30 23 H -5.68736 2.93458 1.43205 0
M  V30 24 H -1.59451 -2.31742 0.308949 0
M  V30 25 H 0.549549 -2.85789 -0.555038 0
M  V30 26 H 2.63905 -2.4604 -1.51303 0
M  V30 27 H 1.89912 -1.01512 -2.2972 0
M  V30 28 H 4.27271 -0.297647 -1.99038 0
M  V30 29 H 5.65504 1.23497 -0.638701 0
M  V30 30 H 5.9813 1.65266 2.42085 0
M  V30 31 H 3.01027 0.823012 2.61546 0
M  V30 32 H 1.61511 -0.718099 1.26577 0
M  V30 33 H 0.796008 0.673195 -1.59854 0
M  V30 34 H -1.03943 2.30804 -1.31869 0
M  V30 35 H -4.15334 -2.83344 0.489891 0
M  V30 36 H -3.71824 -2.38685 2.19446 0
M  V30 END ATOM
M  V30 BEGIN BOND
M  V30 1 1 1 2
M  V30 2 2 2 3
M  V30 3 1 3 4
M  V30 4 2 4 5
M  V30 5 1 5 6
M  V30 6 2 6 7
M  V30 7 1 7 8
M  V30 8 1 8 9
M  V30 9 1 9 10
M  V30 10 2 10 11
M  V30 11 1 11 12
M  V30 12 2 12 13
M  V30 13 1 13 14
M  V30 14 1 13 15
M  V30 15 2 15 16
M  V30 16 1 7 17
M  V30 17 2 17 18
M  V30 18 1 5 19
M  V30 19 1 19 20
M  V30 20 2 19 21
M  V30 21 1 21 2
M  V30 22 1 18 4
M  V30 23 1 16 10
M  V30 24 1 1 22
M  V30 25 1 1 23
M  V30 26 1 6 24
M  V30 27 1 8 25
M  V30 28 1 9 26
M  V30 29 1 9 27
M  V30 30 1 11 28
M  V30 31 1 12 29
M  V30 32 1 14 30
M  V30 33 1 15 31
M  V30 34 1 16 32
M  V30 35 1 17 33
M  V30 36 1 18 34
M  V30 37 1 20 35
M  V30 38 1 20 36
M  V30 END BOND
M  V30 END CTAB
M  END
