
     RDKit          3D

  0  0  0  0  0  0  0  0  0  0999 V3000
M  V30 BEGIN CTAB
M  V30 COUNTS 24 23 0 0 0
M  V30 BEGIN ATOM
M  V30 1 N 2.43319 2.38263 1.74141 0
M  V30 2 N 2.22278 1.4184 0.759712 0
M  V30 3 C 0.922076 1.12216 0.28535 0
M  V30 4 O -0.0501981 1.75143 0.770951 0
M  V30 5 C 0.659367 0.109562 -0.751468 0
M  V30 6 C -0.202819 -1.02302 -0.255646 0
M  V30 7 N -1.49665 -0.595846 0.205879 0
M  V30 8 C -2.17379 -1.82831 0.640736 0
M  V30 9 C -2.30567 -0.0284181 -0.860258 0
M  V30 10 N 1.93609 -0.468002 -1.1436 0
M  V30 11 H 2.91274 3.1844 1.29482 0
M  V30 12 H 1.51791 2.61486 2.16341 0
M  V30 13 H 3.05963 0.924799 0.389208 0
M  V30 14 H 0.216713 0.604073 -1.6342 0
M  V30 15 H -0.347667 -1.71307 -1.12373 0
M  V30 16 H 0.312289 -1.50953 0.57714 0
M  V30 17 H -1.53015 -2.38522 1.36733 0
M  V30 18 H -3.17875 -1.63468 1.01299 0
M  V30 19 H -2.21047 -2.47157 -0.26712 0
M  V30 20 H -1.80395 0.788146 -1.38048 0
M  V30 21 H -3.2209 0.388293 -0.385606 0
M  V30 22 H -2.6238 -0.831835 -1.56526 0
M  V30 23 H 2.60951 0.230654 -1.47576 0
M  V30 24 H 2.3425 -1.02991 -0.365833 0
M  V30 END ATOM
M  V30 BEGIN BOND
M  V30 1 1 1 2
M  V30 2 1 2 3
M  V30 3 2 3 4
M  V30 4 1 3 5
M  V30 5 1 5 6
M  V30 6 1 6 7
M  V30 7 1 7 8
M  V30 8 1 7 9
M  V30 9 1 5 10
M  V30 10 1 1 11
M  V30 11 1 1 12
M  V30 12 1 2 13
M  V30 13 1 5 14
M  V30 14 1 6 15
M  V30 15 1 6 16
M  V30 16 1 8 17
M  V30 17 1 8 18
M  V30 18 1 8 19
M  V30 19 1 9 20
M  V30 20 1 9 21
M  V30 21 1 9 22
M  V30 22 1 10 23
M  V30 23 1 10 24
M  V30 END BOND
M  V30 END CTAB
M  END
