
     RDKit          3D

  0  0  0  0  0  0  0  0  0  0999 V3000
M  V30 BEGIN CTAB
M  V30 COUNTS 19 19 0 0 0
M  V30 BEGIN ATOM
M  V30 1 F 2.51915 -2.66409 0.135369 0
M  V30 2 C 2.17697 -1.28936 0.139692 0
M  V30 3 O 0.827153 -1.16489 0.0414158 0
M  V30 4 C -0.0719395 -0.17225 -0.00688585 0
M  V30 5 C 0.171116 1.1768 0.032063 0
M  V30 6 N 1.47593 1.72807 0.130837 0
M  V30 7 C -0.871275 2.11157 -0.0269199 0
M  V30 8 N -2.1562 1.69884 -0.124887 0
M  V30 9 C -2.43778 0.384321 -0.166117 0
M  V30 10 C -1.42478 -0.546707 -0.109113 0
M  V30 11 N -1.77853 -1.92612 -0.156503 0
M  V30 12 F 2.61067 -0.868467 1.40742 0
M  V30 13 F 2.93495 -0.738417 -0.87115 0
M  V30 14 H 1.9592 1.90588 1.01515 0
M  V30 15 H 1.97574 1.97898 -0.774313 0
M  V30 16 H -0.617241 3.15943 0.00807482 0
M  V30 17 H -3.48252 0.113757 -0.244776 0
M  V30 18 H -1.7624 -2.39058 -1.08974 0
M  V30 19 H -2.04821 -2.49678 0.660385 0
M  V30 END ATOM
M  V30 BEGIN BOND
M  V30 1 1 1 2
M  V30 2 1 2 3
M  V30 3 1 3 4
M  V30 4 2 4 5
M  V30 5 1 5 6
M  V30 6 1 5 7
M  V30 7 2 7 8
M  V30 8 1 8 9
M  V30 9 2 9 10
M  V30 10 1 10 11
M  V30 11 1 2 12
M  V30 12 1 2 13
M  V30 13 1 10 4
M  V30 14 1 6 14
M  V30 15 1 6 15
M  V30 16 1 7 16
M  V30 17 1 9 17
M  V30 18 1 11 18
M  V30 19 1 11 19
M  V30 END BOND
M  V30 END CTAB
M  END
