
     RDKit          3D

  0  0  0  0  0  0  0  0  0  0999 V3000
M  V30 BEGIN CTAB
M  V30 COUNTS 23 24 0 0 0
M  V30 BEGIN ATOM
M  V30 1 N -2.91404 -1.55857 1.65286 0
M  V30 2 C -2.21609 -0.679047 0.778316 0
M  V30 3 N -1.07595 -1.06827 0.154281 0
M  V30 4 C -0.397575 -0.257116 -0.676494 0
M  V30 5 C 0.847816 -0.647704 -1.3734 0
M  V30 6 C 2.04695 -0.298417 -0.515179 0
M  V30 7 C 2.63561 0.926446 -0.623439 0
M  V30 8 S 3.90538 0.841272 0.511858 0
M  V30 9 C 3.65386 -0.740727 1.08947 0
M  V30 10 C 2.56661 -1.16829 0.368578 0
M  V30 11 N -0.869454 0.987691 -0.895743 0
M  V30 12 C -2.00834 1.39895 -0.282286 0
M  V30 13 N -2.66721 0.566306 0.544341 0
M  V30 14 N -2.43936 2.71366 -0.560859 0
M  V30 15 H -3.4868 -2.32701 1.2622 0
M  V30 16 H -2.85131 -1.43288 2.68127 0
M  V30 17 H 0.891968 -0.131743 -2.32878 0
M  V30 18 H 0.835194 -1.73865 -1.57968 0
M  V30 19 H 2.34354 1.76212 -1.29417 0
M  V30 20 H 4.20885 -1.31478 1.85511 0
M  V30 21 H 2.17837 -2.20279 0.553762 0
M  V30 22 H -2.97398 2.89794 -1.42491 0
M  V30 23 H -2.21403 3.47162 0.10288 0
M  V30 END ATOM
M  V30 BEGIN BOND
M  V30 1 1 1 2
M  V30 2 2 2 3
M  V30 3 1 3 4
M  V30 4 1 4 5
M  V30 5 1 5 6
M  V30 6 2 6 7
M  V30 7 1 7 8
M  V30 8 1 8 9
M  V30 9 2 9 10
M  V30 10 2 4 11
M  V30 11 1 11 12
M  V30 12 2 12 13
M  V30 13 1 12 14
M  V30 14 1 13 2
M  V30 15 1 10 6
M  V30 16 1 1 15
M  V30 17 1 1 16
M  V30 18 1 5 17
M  V30 19 1 5 18
M  V30 20 1 7 19
M  V30 21 1 9 20
M  V30 22 1 10 21
M  V30 23 1 14 22
M  V30 24 1 14 23
M  V30 END BOND
M  V30 END CTAB
M  END
