
     RDKit          3D

  0  0  0  0  0  0  0  0  0  0999 V3000
M  V30 BEGIN CTAB
M  V30 COUNTS 24 24 0 0 0
M  V30 BEGIN ATOM
M  V30 1 N 4.48399 -0.208996 -0.380517 0
M  V30 2 C 3.07462 -0.219507 -0.150961 0
M  V30 3 C 2.23838 -1.0387 -0.881452 0
M  V30 4 C 0.890284 -0.991743 -0.601106 0
M  V30 5 C 0.341019 -0.173126 0.365452 0
M  V30 6 C 1.19416 0.636488 1.08284 0
M  V30 7 C 2.54767 0.607563 0.820791 0
M  V30 8 C -1.11952 -0.147764 0.641996 0
M  V30 9 N -1.75792 0.864201 -0.209755 0
M  V30 10 S -3.44022 0.917659 0.0852377 0
M  V30 11 O -3.9808 2.29281 -0.186891 0
M  V30 12 O -3.66495 0.534914 1.53862 0
M  V30 13 N -4.28933 -0.17932 -0.95598 0
M  V30 14 H 4.8975 -0.402144 -1.3187 0
M  V30 15 H 5.1515 -0.00464552 0.395535 0
M  V30 16 H 2.65662 -1.69518 -1.65278 0
M  V30 17 H 0.202717 -1.6296 -1.16367 0
M  V30 18 H 0.797349 1.28995 1.84728 0
M  V30 19 H 3.20881 1.26189 1.40542 0
M  V30 20 H -1.5949 -1.14194 0.483538 0
M  V30 21 H -1.25944 0.181166 1.69648 0
M  V30 22 H -1.51343 0.71148 -1.20783 0
M  V30 23 H -3.81026 -1.11456 -1.00096 0
M  V30 24 H -5.25385 -0.350902 -0.613257 0
M  V30 END ATOM
M  V30 BEGIN BOND
M  V30 1 1 1 2
M  V30 2 2 2 3
M  V30 3 1 3 4
M  V30 4 2 4 5
M  V30 5 1 5 6
M  V30 6 2 6 7
M  V30 7 1 5 8
M  V30 8 1 8 9
M  V30 9 1 9 10
M  V30 10 2 10 11
M  V30 11 2 10 12
M  V30 12 1 10 13
M  V30 13 1 7 2
M  V30 14 1 1 14
M  V30 15 1 1 15
M  V30 16 1 3 16
M  V30 17 1 4 17
M  V30 18 1 6 18
M  V30 19 1 7 19
M  V30 20 1 8 20
M  V30 21 1 8 21
M  V30 22 1 9 22
M  V30 23 1 13 23
M  V30 24 1 13 24
M  V30 END BOND
M  V30 END CTAB
M  END
