
     RDKit          3D

  0  0  0  0  0  0  0  0  0  0999 V3000
M  V30 BEGIN CTAB
M  V30 COUNTS 30 32 0 0 0
M  V30 BEGIN ATOM
M  V30 1 N 5.56896 -0.712409 -1.44739 0
M  V30 2 C 4.40089 -0.790351 -0.615725 0
M  V30 3 C 4.37218 -0.926934 0.761248 0
M  V30 4 N 3.0763 -0.956912 1.11468 0
M  V30 5 N 2.31428 -0.847405 0.0418503 0
M  V30 6 N 3.11129 -0.747791 -0.993219 0
M  V30 7 C 0.842433 -0.843072 0.0567333 0
M  V30 8 C 0.318203 0.514371 0.199593 0
M  V30 9 O 1.20893 1.43539 0.288431 0
M  V30 10 N -1.03732 0.913039 0.249381 0
M  V30 11 C -1.44532 2.21116 0.387182 0
M  V30 12 N -0.611869 3.34991 0.501273 0
M  V30 13 N -2.76606 2.1966 0.393199 0
M  V30 14 C -3.24411 0.948868 0.265698 0
M  V30 15 C -2.13501 0.127402 0.173623 0
M  V30 16 C -2.37041 -1.21553 0.0345407 0
M  V30 17 C -3.6506 -1.76182 -0.0153645 0
M  V30 18 C -4.71926 -0.906502 0.0800602 0
M  V30 19 C -4.51852 0.442794 0.219973 0
M  V30 20 H 6.4848 -0.607027 -0.997588 0
M  V30 21 H 5.4155 -0.768849 -2.48802 0
M  V30 22 H 5.26274 -0.990662 1.36785 0
M  V30 23 H 0.525445 -1.21883 -0.938885 0
M  V30 24 H 0.579977 -1.52197 0.883301 0
M  V30 25 H -0.654204 4.13276 -0.205639 0
M  V30 26 H 0.0820458 3.48574 1.27368 0
M  V30 27 H -1.5405 -1.8739 -0.0393124 0
M  V30 28 H -3.73845 -2.83774 -0.127339 0
M  V30 29 H -5.72845 -1.30661 0.0439118 0
M  V30 30 H -5.40389 1.07626 0.291168 0
M  V30 END ATOM
M  V30 BEGIN BOND
M  V30 1 1 1 2
M  V30 2 1 2 3
M  V30 3 2 3 4
M  V30 4 1 4 5
M  V30 5 1 5 6
M  V30 6 1 5 7
M  V30 7 1 7 8
M  V30 8 2 8 9
M  V30 9 1 8 10
M  V30 10 1 10 11
M  V30 11 1 11 12
M  V30 12 2 11 13
M  V30 13 1 13 14
M  V30 14 2 14 15
M  V30 15 1 15 16
M  V30 16 2 16 17
M  V30 17 1 17 18
M  V30 18 2 18 19
M  V30 19 2 6 2
M  V30 20 1 15 10
M  V30 21 1 19 14
M  V30 22 1 1 20
M  V30 23 1 1 21
M  V30 24 1 3 22
M  V30 25 1 7 23
M  V30 26 1 7 24
M  V30 27 1 12 25
M  V30 28 1 12 26
M  V30 29 1 16 27
M  V30 30 1 17 28
M  V30 31 1 18 29
M  V30 32 1 19 30
M  V30 END BOND
M  V30 END CTAB
M  END
