
     RDKit          3D

  0  0  0  0  0  0  0  0  0  0999 V3000
M  V30 BEGIN CTAB
M  V30 COUNTS 19 19 0 0 0
M  V30 BEGIN ATOM
M  V30 1 C 2.87432 -0.652752 -0.144418 0
M  V30 2 C 1.46022 -0.218189 -0.07961 0
M  V30 3 C 0.403738 -1.08273 0.0148247 0
M  V30 4 C -0.891358 -0.644717 0.0726493 0
M  V30 5 N -1.98185 -1.56021 0.171032 0
M  V30 6 C -1.19395 0.712658 0.0376053 0
M  V30 7 N -2.54506 1.13473 0.0993051 0
M  V30 8 C -0.138808 1.58397 -0.0570174 0
M  V30 9 Br -0.54723 3.45819 -0.105977 0
M  V30 10 C 1.15451 1.12785 -0.114033 0
M  V30 11 H 3.07419 -1.07549 -1.14464 0
M  V30 12 H 3.53416 0.207894 0.109178 0
M  V30 13 H 3.00285 -1.42358 0.666905 0
M  V30 14 H 0.617528 -2.15568 0.0439915 0
M  V30 15 H -2.88002 -1.34478 0.610107 0
M  V30 16 H -1.81245 -2.51713 -0.250182 0
M  V30 17 H -3.26255 0.721402 -0.512803 0
M  V30 18 H -2.81224 1.87008 0.77097 0
M  V30 19 H 1.94399 1.85849 -0.187892 0
M  V30 END ATOM
M  V30 BEGIN BOND
M  V30 1 1 1 2
M  V30 2 2 2 3
M  V30 3 1 3 4
M  V30 4 1 4 5
M  V30 5 2 4 6
M  V30 6 1 6 7
M  V30 7 1 6 8
M  V30 8 1 8 9
M  V30 9 2 8 10
M  V30 10 1 10 2
M  V30 11 1 1 11
M  V30 12 1 1 12
M  V30 13 1 1 13
M  V30 14 1 3 14
M  V30 15 1 5 15
M  V30 16 1 5 16
M  V30 17 1 7 17
M  V30 18 1 7 18
M  V30 19 1 10 19
M  V30 END BOND
M  V30 END CTAB
M  END
