
     RDKit          3D

  0  0  0  0  0  0  0  0  0  0999 V3000
M  V30 BEGIN CTAB
M  V30 COUNTS 48 50 0 0 0
M  V30 BEGIN ATOM
M  V30 1 C -6.94909 -0.566535 -1.63056 0
M  V30 2 C -6.65383 -1.28351 -0.317419 0
M  V30 3 C -5.24872 -1.00551 0.0767881 0
M  V30 4 C -4.95361 0.0988871 0.859738 0
M  V30 5 C -3.63633 0.372484 1.23689 0
M  V30 6 C -2.63931 -0.464443 0.82397 0
M  V30 7 C -2.93339 -1.56318 0.0461593 0
M  V30 8 C -4.236 -1.81982 -0.318284 0
M  V30 9 C -1.21499 -0.158577 1.22302 0
M  V30 10 N -0.529014 0.471133 0.131914 0
M  V30 11 C 0.817427 0.856796 0.251208 0
M  V30 12 C 1.78554 -0.109728 0.373645 0
M  V30 13 C 3.13025 0.22609 0.459985 0
M  V30 14 N 3.42627 1.536 0.41739 0
M  V30 15 C 2.5038 2.50624 0.298879 0
M  V30 16 N 1.21337 2.14775 0.217873 0
M  V30 17 N 2.91869 3.8684 0.256062 0
M  V30 18 C 4.13613 -0.848794 0.609493 0
M  V30 19 C 5.02511 -1.0606 -0.630157 0
M  V30 20 C 5.98899 -0.072911 -0.0266741 0
M  V30 21 C 5.35983 -0.347258 1.3239 0
M  V30 22 N 7.38646 -0.468069 -0.114414 0
M  V30 23 C -1.22408 0.726739 -1.10465 0
M  V30 24 H -7.76374 -1.15472 -2.12891 0
M  V30 25 H -6.05261 -0.445992 -2.24099 0
M  V30 26 H -7.32379 0.454017 -1.38874 0
M  V30 27 H -7.31162 -0.841907 0.457831 0
M  V30 28 H -6.85823 -2.36439 -0.398551 0
M  V30 29 H -5.73591 0.761592 1.18678 0
M  V30 30 H -3.4252 1.24639 1.85191 0
M  V30 31 H -2.10374 -2.19214 -0.252068 0
M  V30 32 H -4.4796 -2.68732 -0.936794 0
M  V30 33 H -1.22416 0.420664 2.15656 0
M  V30 34 H -0.686781 -1.14471 1.40119 0
M  V30 35 H 1.48374 -1.1383 0.40276 0
M  V30 36 H 2.21816 4.61283 0.435078 0
M  V30 37 H 3.8942 4.157 0.0539389 0
M  V30 38 H 3.70832 -1.80846 0.970321 0
M  V30 39 H 5.4299 -2.10264 -0.589032 0
M  V30 40 H 4.54776 -0.790478 -1.58163 0
M  V30 41 H 5.79835 0.949649 -0.384879 0
M  V30 42 H 5.20514 0.569061 1.93801 0
M  V30 43 H 5.87075 -1.15108 1.91885 0
M  V30 44 H 7.59555 -1.09892 0.672623 0
M  V30 45 H 7.92871 0.407362 -0.147247 0
M  V30 46 H -0.627761 1.43561 -1.72547 0
M  V30 47 H -2.22545 1.11583 -0.876501 0
M  V30 48 H -1.33552 -0.250513 -1.6345 0
M  V30 END ATOM
M  V30 BEGIN BOND
M  V30 1 1 1 2
M  V30 2 1 2 3
M  V30 3 2 3 4
M  V30 4 1 4 5
M  V30 5 2 5 6
M  V30 6 1 6 7
M  V30 7 2 7 8
M  V30 8 1 6 9
M  V30 9 1 9 10
M  V30 10 1 10 11
M  V30 11 2 11 12
M  V30 12 1 12 13
M  V30 13 2 13 14
M  V30 14 1 14 15
M  V30 15 2 15 16
M  V30 16 1 15 17
M  V30 17 1 13 18
M  V30 18 1 18 19
M  V30 19 1 19 20
M  V30 20 1 20 21
M  V30 21 1 20 22
M  V30 22 1 10 23
M  V30 23 1 8 3
M  V30 24 1 16 11
M  V30 25 1 21 18
M  V30 26 1 1 24
M  V30 27 1 1 25
M  V30 28 1 1 26
M  V30 29 1 2 27
M  V30 30 1 2 28
M  V30 31 1 4 29
M  V30 32 1 5 30
M  V30 33 1 7 31
M  V30 34 1 8 32
M  V30 35 1 9 33
M  V30 36 1 9 34
M  V30 37 1 12 35
M  V30 38 1 17 36
M  V30 39 1 17 37
M  V30 40 1 18 38
M  V30 41 1 19 39
M  V30 42 1 19 40
M  V30 43 1 20 41
M  V30 44 1 21 42
M  V30 45 1 21 43
M  V30 46 1 22 44
M  V30 47 1 22 45
M  V30 48 1 23 46
M  V30 49 1 23 47
M  V30 50 1 23 48
M  V30 END BOND
M  V30 END CTAB
M  END
