
     RDKit          3D

  0  0  0  0  0  0  0  0  0  0999 V3000
M  V30 BEGIN CTAB
M  V30 COUNTS 29 30 0 0 0
M  V30 BEGIN ATOM
M  V30 1 N -3.74551 -1.0746 -1.84461 0
M  V30 2 C -3.05152 -0.263063 -0.910458 0
M  V30 3 C -1.7196 -0.569105 -0.599423 0
M  V30 4 C -1.0055 0.181242 0.29425 0
M  V30 5 N 0.365315 -0.174334 0.575155 0
M  V30 6 C 0.957643 -1.28984 -0.095721 0
M  V30 7 C 2.37836 -1.58448 0.123352 0
M  V30 8 C 3.3926 -0.582064 -0.309598 0
M  V30 9 C 3.45655 0.821054 0.271429 0
M  V30 10 C 2.94001 0.619828 -1.07913 0
M  V30 11 N -1.61264 1.22746 0.87352 0
M  V30 12 C -2.8949 1.55952 0.603916 0
M  V30 13 N -3.56641 0.80026 -0.279291 0
M  V30 14 N -3.51308 2.68828 1.24395 0
M  V30 15 H -3.2124 -1.58403 -2.58482 0
M  V30 16 H -4.78084 -1.19685 -1.83754 0
M  V30 17 H -1.27282 -1.4188 -1.08506 0
M  V30 18 H 0.810482 0.42884 1.28529 0
M  V30 19 H 0.722073 -1.27416 -1.19805 0
M  V30 20 H 0.37378 -2.20666 0.249182 0
M  V30 21 H 2.62786 -2.54039 -0.449919 0
M  V30 22 H 2.57458 -1.88525 1.21225 0
M  V30 23 H 4.4053 -0.987717 -0.651231 0
M  V30 24 H 4.52318 1.23827 0.383295 0
M  V30 25 H 2.88506 1.10273 1.15704 0
M  V30 26 H 3.58988 0.94314 -1.91551 0
M  V30 27 H 1.86272 0.774502 -1.31169 0
M  V30 28 H -3.39244 3.65065 0.859622 0
M  V30 29 H -4.09772 2.59556 2.10376 0
M  V30 END ATOM
M  V30 BEGIN BOND
M  V30 1 1 1 2
M  V30 2 2 2 3
M  V30 3 1 3 4
M  V30 4 1 4 5
M  V30 5 1 5 6
M  V30 6 1 6 7
M  V30 7 1 7 8
M  V30 8 1 8 9
M  V30 9 1 9 10
M  V30 10 2 4 11
M  V30 11 1 11 12
M  V30 12 2 12 13
M  V30 13 1 12 14
M  V30 14 1 13 2
M  V30 15 1 10 8
M  V30 16 1 1 15
M  V30 17 1 1 16
M  V30 18 1 3 17
M  V30 19 1 5 18
M  V30 20 1 6 19
M  V30 21 1 6 20
M  V30 22 1 7 21
M  V30 23 1 7 22
M  V30 24 1 8 23
M  V30 25 1 9 24
M  V30 26 1 9 25
M  V30 27 1 10 26
M  V30 28 1 10 27
M  V30 29 1 14 28
M  V30 30 1 14 29
M  V30 END BOND
M  V30 END CTAB
M  END
