
     RDKit          3D

  0  0  0  0  0  0  0  0  0  0999 V3000
M  V30 BEGIN CTAB
M  V30 COUNTS 22 23 0 0 0
M  V30 BEGIN ATOM
M  V30 1 N -3.84566 1.44187 0.478272 0
M  V30 2 C -2.56433 0.831759 0.253299 0
M  V30 3 N -2.44637 -0.360744 -0.358972 0
M  V30 4 C -1.2347 -0.927435 -0.566487 0
M  V30 5 N -1.11518 -2.18409 -1.2125 0
M  V30 6 C -0.0815404 -0.274874 -0.143438 0
M  V30 7 C -0.224633 0.938499 0.477921 0
M  V30 8 N -1.44764 1.46068 0.661409 0
M  V30 9 C 0.923132 1.57662 0.893181 0
M  V30 10 C 2.1618 1.00689 0.686217 0
M  V30 11 C 2.28596 -0.212068 0.0605861 0
M  V30 12 C 1.1399 -0.874974 -0.367487 0
M  V30 13 N 3.57086 -0.805284 -0.155478 0 CHG=1
M  V30 14 O 3.7084 -2.04102 -0.237049 0
M  V30 15 O 4.65146 0.03464 -0.270329 0 CHG=-1
M  V30 16 F 3.28848 1.63351 1.09431 0
M  V30 17 H -4.67111 0.894137 0.79103 0
M  V30 18 H -3.96047 2.46949 0.324931 0
M  V30 19 H -0.518331 -2.95092 -0.844727 0
M  V30 20 H -1.63752 -2.36944 -2.09252 0
M  V30 21 H 0.825018 2.55112 1.39334 0
M  V30 22 H 1.19246 -1.83838 -0.865511 0
M  V30 END ATOM
M  V30 BEGIN BOND
M  V30 1 1 1 2
M  V30 2 2 2 3
M  V30 3 1 3 4
M  V30 4 1 4 5
M  V30 5 2 4 6
M  V30 6 1 6 7
M  V30 7 2 7 8
M  V30 8 1 7 9
M  V30 9 2 9 10
M  V30 10 1 10 11
M  V30 11 2 11 12
M  V30 12 1 11 13
M  V30 13 2 13 14
M  V30 14 1 13 15
M  V30 15 1 10 16
M  V30 16 1 8 2
M  V30 17 1 12 6
M  V30 18 1 1 17
M  V30 19 1 1 18
M  V30 20 1 5 19
M  V30 21 1 5 20
M  V30 22 1 9 21
M  V30 23 1 12 22
M  V30 END BOND
M  V30 END CTAB
M  END
