
     RDKit          3D

  0  0  0  0  0  0  0  0  0  0999 V3000
M  V30 BEGIN CTAB
M  V30 COUNTS 35 37 0 0 0
M  V30 BEGIN ATOM
M  V30 1 N -4.74741 -1.77797 -2.22225 0
M  V30 2 C -4.11205 -0.984939 -1.23431 0
M  V30 3 C -4.93277 -0.28519 -0.366048 0
M  V30 4 C -4.32632 0.493401 0.603942 0
M  V30 5 N -5.09611 1.24781 1.54032 0
M  V30 6 C -2.9615 0.559625 0.689815 0
M  V30 7 C -2.13355 -0.133102 -0.169699 0
M  V30 8 C -2.73053 -0.917776 -1.14724 0
M  V30 9 C -0.686284 -0.0412832 -0.0517394 0
M  V30 10 N 0.242509 -0.650009 -0.806603 0
M  V30 11 C 1.47595 -0.310606 -0.381207 0
M  V30 12 C 1.31002 0.545289 0.683091 0
M  V30 13 N -0.0373297 0.692522 0.86278 0
M  V30 14 C 2.40474 1.05054 1.31443 0
M  V30 15 C 3.68555 0.707381 0.890822 0
M  V30 16 C 3.85849 -0.141257 -0.164435 0
M  V30 17 C 2.7599 -0.64929 -0.799237 0
M  V30 18 C 5.21074 -0.505705 -0.614379 0
M  V30 19 C 4.85776 1.2625 1.58444 0
M  V30 20 H -4.25388 -1.98183 -3.12701 0
M  V30 21 H -5.69481 -2.18675 -2.11735 0
M  V30 22 H -6.01208 -0.32719 -0.421063 0
M  V30 23 H -5.55472 2.15591 1.26593 0
M  V30 24 H -5.24509 0.948562 2.52951 0
M  V30 25 H -2.50553 1.17422 1.45548 0
M  V30 26 H -2.10829 -1.48141 -1.84673 0
M  V30 27 H 0.0787479 -1.30274 -1.61903 0
M  V30 28 H 2.23464 1.72351 2.15113 0
M  V30 29 H 2.8614 -1.32868 -1.6441 0
M  V30 30 H 5.16738 -1.36139 -1.32099 0
M  V30 31 H 5.63186 0.351768 -1.19604 0
M  V30 32 H 5.87802 -0.814405 0.209522 0
M  V30 33 H 4.54126 1.57169 2.62177 0
M  V30 34 H 5.26723 2.17288 1.10155 0
M  V30 35 H 5.67207 0.523911 1.74492 0
M  V30 END ATOM
M  V30 BEGIN BOND
M  V30 1 1 1 2
M  V30 2 2 2 3
M  V30 3 1 3 4
M  V30 4 1 4 5
M  V30 5 2 4 6
M  V30 6 1 6 7
M  V30 7 2 7 8
M  V30 8 1 7 9
M  V30 9 1 9 10
M  V30 10 1 10 11
M  V30 11 2 11 12
M  V30 12 1 12 13
M  V30 13 1 12 14
M  V30 14 2 14 15
M  V30 15 1 15 16
M  V30 16 2 16 17
M  V30 17 1 16 18
M  V30 18 1 15 19
M  V30 19 1 8 2
M  V30 20 2 13 9
M  V30 21 1 17 11
M  V30 22 1 1 20
M  V30 23 1 1 21
M  V30 24 1 3 22
M  V30 25 1 5 23
M  V30 26 1 5 24
M  V30 27 1 6 25
M  V30 28 1 8 26
M  V30 29 1 10 27
M  V30 30 1 14 28
M  V30 31 1 17 29
M  V30 32 1 18 30
M  V30 33 1 18 31
M  V30 34 1 18 32
M  V30 35 1 19 33
M  V30 36 1 19 34
M  V30 37 1 19 35
M  V30 END BOND
M  V30 END CTAB
M  END
