
     RDKit          3D

  0  0  0  0  0  0  0  0  0  0999 V3000
M  V30 BEGIN CTAB
M  V30 COUNTS 31 31 0 0 0
M  V30 BEGIN ATOM
M  V30 1 N -5.26114 1.16447 0.647757 0
M  V30 2 C -3.98715 0.541231 0.430135 0
M  V30 3 C -3.93559 -0.743871 -0.0675095 0
M  V30 4 C -2.68612 -1.33511 -0.273226 0
M  V30 5 N -2.61995 -2.66244 -0.786967 0
M  V30 6 C -1.50982 -0.66206 0.0102111 0
M  V30 7 O -0.331301 -1.3031 -0.216112 0
M  V30 8 C 0.959811 -0.811944 -0.00117381 0
M  V30 9 C 1.30653 0.408454 -0.76843 0
M  V30 10 C 2.6959 0.817696 -0.450358 0
M  V30 11 O 3.23583 1.79137 -0.947249 0
M  V30 12 C 3.48923 0.0200589 0.516427 0
M  V30 13 C 4.88108 0.585774 0.700305 0
M  V30 14 O 4.86487 1.89065 1.17647 0
M  V30 15 N -1.64425 0.587608 0.492537 0
M  V30 16 C -2.80854 1.19435 0.705884 0
M  V30 17 H -5.38619 2.19804 0.64863 0
M  V30 18 H -6.09085 0.582 0.810311 0
M  V30 19 H -4.8556 -1.30148 -0.301257 0
M  V30 20 H -3.30777 -3.3874 -0.485603 0
M  V30 21 H -1.88985 -2.95214 -1.47438 0
M  V30 22 H 1.6739 -1.61387 -0.281606 0
M  V30 23 H 1.13109 -0.630958 1.09317 0
M  V30 24 H 1.30804 0.15707 -1.86836 0
M  V30 25 H 0.599553 1.25181 -0.616987 0
M  V30 26 H 3.6068 -1.0146 0.14459 0
M  V30 27 H 2.99523 0.0501309 1.52395 0
M  V30 28 H 5.38571 -0.0283366 1.47774 0
M  V30 29 H 5.48055 0.535334 -0.221359 0
M  V30 30 H 5.57553 2.45215 0.759718 0
M  V30 31 H -2.87556 2.21911 1.10219 0
M  V30 END ATOM
M  V30 BEGIN BOND
M  V30 1 1 1 2
M  V30 2 2 2 3
M  V30 3 1 3 4
M  V30 4 1 4 5
M  V30 5 2 4 6
M  V30 6 1 6 7
M  V30 7 1 7 8
M  V30 8 1 8 9
M  V30 9 1 9 10
M  V30 10 2 10 11
M  V30 11 1 10 12
M  V30 12 1 12 13
M  V30 13 1 13 14
M  V30 14 1 6 15
M  V30 15 2 15 16
M  V30 16 1 16 2
M  V30 17 1 1 17
M  V30 18 1 1 18
M  V30 19 1 3 19
M  V30 20 1 5 20
M  V30 21 1 5 21
M  V30 22 1 8 22
M  V30 23 1 8 23
M  V30 24 1 9 24
M  V30 25 1 9 25
M  V30 26 1 12 26
M  V30 27 1 12 27
M  V30 28 1 13 28
M  V30 29 1 13 29
M  V30 30 1 14 30
M  V30 31 1 16 31
M  V30 END BOND
M  V30 END CTAB
M  END
