
     RDKit          3D

  0  0  0  0  0  0  0  0  0  0999 V3000
M  V30 BEGIN CTAB
M  V30 COUNTS 48 49 0 0 0
M  V30 BEGIN ATOM
M  V30 1 N -5.77218 0.445234 2.31026 0
M  V30 2 C -5.67915 -0.978672 2.09113 0
M  V30 3 C -5.42777 -1.26467 0.63164 0
M  V30 4 N -4.22001 -0.684894 0.128565 0
M  V30 5 C -4.10788 -1.0191 -1.27899 0
M  V30 6 C -2.71104 -1.31305 -1.70331 0
M  V30 7 N -1.74965 -0.445834 -1.05071 0
M  V30 8 C -1.84193 -0.281169 0.373918 0
M  V30 9 C -3.02947 -1.12774 0.830557 0
M  V30 10 C -0.758418 0.221539 -1.78433 0
M  V30 11 O -0.725384 0.0668024 -3.03544 0
M  V30 12 C 0.225196 1.0797 -1.15206 0
M  V30 13 O 0.276084 1.27811 0.0995474 0
M  V30 14 N 1.20698 1.75304 -1.9712 0
M  V30 15 C 2.20297 2.61618 -1.35182 0
M  V30 16 C 3.24708 1.74312 -0.719894 0
M  V30 17 C 3.71824 0.621724 -1.37126 0
M  V30 18 C 4.68087 -0.198053 -0.800205 0
M  V30 19 C 5.20396 0.0818393 0.447645 0
M  V30 20 C 4.72729 1.20453 1.09101 0
M  V30 21 C 3.76827 2.02271 0.524008 0
M  V30 22 S 6.42103 -0.95226 1.17448 0
M  V30 23 O 6.30132 -2.37033 0.671337 0
M  V30 24 O 6.28659 -0.992078 2.66633 0
M  V30 25 N 7.99376 -0.37673 0.709261 0
M  V30 26 H -6.60284 0.873599 1.89004 0
M  V30 27 H -5.58597 0.739162 3.28108 0
M  V30 28 H -4.97203 -1.45628 2.76372 0
M  V30 29 H -6.70121 -1.39471 2.32598 0
M  V30 30 H -5.33035 -2.38064 0.495594 0
M  V30 31 H -6.26156 -0.913021 -0.000793323 0
M  V30 32 H -4.51598 -0.21409 -1.93081 0
M  V30 33 H -4.7319 -1.92698 -1.49226 0
M  V30 34 H -2.48252 -2.3787 -1.48383 0
M  V30 35 H -2.63987 -1.13733 -2.80055 0
M  V30 36 H -0.981179 -0.641648 0.939082 0
M  V30 37 H -2.03201 0.785627 0.650619 0
M  V30 38 H -3.16315 -1.07039 1.90855 0
M  V30 39 H -2.82893 -2.16678 0.519739 0
M  V30 40 H 1.18535 1.60782 -3.00257 0
M  V30 41 H 1.73407 3.18193 -0.513032 0
M  V30 42 H 2.69189 3.27208 -2.09663 0
M  V30 43 H 3.28932 0.424032 -2.3534 0
M  V30 44 H 5.03536 -1.07275 -1.33041 0
M  V30 45 H 5.14312 1.41478 2.06784 0
M  V30 46 H 3.4016 2.89422 1.02873 0
M  V30 47 H 7.8725 0.00449632 -0.277209 0
M  V30 48 H 8.23953 0.425631 1.30296 0
M  V30 END ATOM
M  V30 BEGIN BOND
M  V30 1 1 1 2
M  V30 2 1 2 3
M  V30 3 1 3 4
M  V30 4 1 4 5
M  V30 5 1 5 6
M  V30 6 1 6 7
M  V30 7 1 7 8
M  V30 8 1 8 9
M  V30 9 1 7 10
M  V30 10 2 10 11
M  V30 11 1 10 12
M  V30 12 2 12 13
M  V30 13 1 12 14
M  V30 14 1 14 15
M  V30 15 1 15 16
M  V30 16 2 16 17
M  V30 17 1 17 18
M  V30 18 2 18 19
M  V30 19 1 19 20
M  V30 20 2 20 21
M  V30 21 1 19 22
M  V30 22 2 22 23
M  V30 23 2 22 24
M  V30 24 1 22 25
M  V30 25 1 9 4
M  V30 26 1 21 16
M  V30 27 1 1 26
M  V30 28 1 1 27
M  V30 29 1 2 28
M  V30 30 1 2 29
M  V30 31 1 3 30
M  V30 32 1 3 31
M  V30 33 1 5 32
M  V30 34 1 5 33
M  V30 35 1 6 34
M  V30 36 1 6 35
M  V30 37 1 8 36
M  V30 38 1 8 37
M  V30 39 1 9 38
M  V30 40 1 9 39
M  V30 41 1 14 40
M  V30 42 1 15 41
M  V30 43 1 15 42
M  V30 44 1 17 43
M  V30 45 1 18 44
M  V30 46 1 20 45
M  V30 47 1 21 46
M  V30 48 1 25 47
M  V30 49 1 25 48
M  V30 END BOND
M  V30 END CTAB
M  END
