
     RDKit          3D

  0  0  0  0  0  0  0  0  0  0999 V3000
M  V30 BEGIN CTAB
M  V30 COUNTS 73 77 0 0 0
M  V30 BEGIN ATOM
M  V30 1 N 9.86816 -3.15364 -0.0621513 0
M  V30 2 C 9.91619 -2.39982 -1.25118 0
M  V30 3 S 10.8708 -2.83849 -2.46486 0
M  V30 4 C 9.07026 -1.18672 -1.37398 0
M  V30 5 C 8.28768 -0.827752 -0.377999 0
M  V30 6 N 7.43907 0.306427 -0.380895 0
M  V30 7 C 7.45868 1.0938 -1.56355 0
M  V30 8 C 8.23368 0.759096 -2.58012 0
M  V30 9 C 9.12603 -0.405506 -2.61787 0
M  V30 10 C 6.6425 0.578592 0.768414 0 CFG=2
M  V30 11 O 5.82563 -0.445786 1.15917 0
M  V30 12 C 4.7187 0.0653283 1.79106 0 CFG=2
M  V30 13 C 3.50049 -0.363345 0.964704 0
M  V30 14 O 2.32753 0.119858 1.54465 0
M  V30 15 P 1.01402 -0.383885 0.590511 0
M  V30 16 O 1.25548 0.0664362 -0.998962 0
M  V30 17 O 1.02907 -1.91015 0.632973 0
M  V30 18 O -0.383048 0.208259 1.28237 0
M  V30 19 P -1.2874 1.20783 0.29981 0
M  V30 20 O -0.656567 1.45185 -1.22596 0
M  V30 21 O -1.35962 2.57211 0.985593 0
M  V30 22 O -2.88266 0.652889 0.116586 0
M  V30 23 C -3.33614 0.114388 1.31894 0
M  V30 24 C -4.73214 -0.396616 1.2424 0 CFG=1
M  V30 25 O -5.66679 0.565553 0.904934 0
M  V30 26 C -6.76127 -0.204111 0.534151 0 CFG=2
M  V30 27 C -6.12996 -1.10365 -0.534924 0 CFG=2
M  V30 28 O -6.91166 -2.20215 -0.810737 0
M  V30 29 C -4.82158 -1.46269 0.148007 0 CFG=2
M  V30 30 O -4.99386 -2.71396 0.748399 0
M  V30 31 N -7.84331 0.569676 0.00396308 0
M  V30 32 C -7.83967 1.79832 -0.511993 0
M  V30 33 N -9.08326 2.13418 -0.888589 0
M  V30 34 C -9.90137 1.08814 -0.603564 0
M  V30 35 C -9.11921 0.122015 -0.0492734 0
M  V30 36 N -9.71042 -1.04316 0.328784 0
M  V30 37 C -11.0226 -1.2602 0.171689 0
M  V30 38 N -11.7719 -0.292465 -0.377056 0
M  V30 39 C -11.2527 0.879593 -0.771641 0
M  V30 40 N -12.1047 1.84944 -1.34072 0
M  V30 41 C 4.77429 1.55643 1.74427 0 CFG=1
M  V30 42 O 5.29118 1.99582 2.98182 0
M  V30 43 C 5.78809 1.80306 0.64448 0 CFG=1
M  V30 44 O 6.46304 2.97481 0.976225 0
M  V30 45 H 9.5538 -4.1485 -0.0517023 0
M  V30 46 H 10.1507 -2.72434 0.845604 0
M  V30 47 H 8.30929 -1.47211 0.51686 0
M  V30 48 H 6.82839 1.97795 -1.62641 0
M  V30 49 H 8.22605 1.39479 -3.48937 0
M  V30 50 H 8.91541 -1.06743 -3.50258 0
M  V30 51 H 10.1976 -0.0889501 -2.74877 0
M  V30 52 H 7.3551 0.773826 1.62253 0
M  V30 53 H 4.6766 -0.341309 2.80405 0
M  V30 54 H 3.55778 0.0418303 -0.0572595 0
M  V30 55 H 3.42434 -1.46628 0.898917 0
M  V30 56 H 1.66179 -0.668896 -1.54208 0
M  V30 57 H -0.844842 2.34662 -1.59673 0
M  V30 58 H -3.222 0.823338 2.16149 0
M  V30 59 H -2.67039 -0.743904 1.54687 0
M  V30 60 H -5.02109 -0.80793 2.22323 0
M  V30 61 H -7.07822 -0.820192 1.37784 0
M  V30 62 H -5.92727 -0.479946 -1.44581 0
M  V30 63 H -6.72996 -2.46343 -1.75275 0
M  V30 64 H -3.95858 -1.42519 -0.523076 0
M  V30 65 H -4.38397 -2.85065 1.51927 0
M  V30 66 H -6.97566 2.41892 -0.60943 0
M  V30 67 H -11.4991 -2.17727 0.467128 0
M  V30 68 H -12.5933 2.56863 -0.743399 0
M  V30 69 H -12.2473 1.84385 -2.38865 0
M  V30 70 H 3.80197 2.03969 1.53064 0
M  V30 71 H 5.81217 1.26329 3.41404 0
M  V30 72 H 5.22813 1.87112 -0.299417 0
M  V30 73 H 6.12388 3.68151 0.351103 0
M  V30 END ATOM
M  V30 BEGIN BOND
M  V30 1 1 1 2
M  V30 2 2 2 3
M  V30 3 1 2 4
M  V30 4 2 4 5
M  V30 5 1 5 6
M  V30 6 1 6 7
M  V30 7 2 7 8
M  V30 8 1 8 9
M  V30 9 1 6 10
M  V30 10 1 10 11
M  V30 11 1 11 12
M  V30 12 1 12 13
M  V30 13 1 13 14
M  V30 14 1 14 15
M  V30 15 1 15 16
M  V30 16 2 15 17
M  V30 17 1 15 18
M  V30 18 1 18 19
M  V30 19 1 19 20
M  V30 20 2 19 21
M  V30 21 1 19 22
M  V30 22 1 22 23
M  V30 23 1 23 24
M  V30 24 1 24 25
M  V30 25 1 25 26
M  V30 26 1 26 27
M  V30 27 1 27 28
M  V30 28 1 27 29
M  V30 29 1 29 30
M  V30 30 1 26 31
M  V30 31 1 31 32
M  V30 32 2 32 33
M  V30 33 1 33 34
M  V30 34 2 34 35
M  V30 35 1 35 36
M  V30 36 2 36 37
M  V30 37 1 37 38
M  V30 38 2 38 39
M  V30 39 1 39 40
M  V30 40 1 12 41
M  V30 41 1 41 42
M  V30 42 1 41 43
M  V30 43 1 43 44
M  V30 44 1 9 4
M  V30 45 1 43 10
M  V30 46 1 29 24
M  V30 47 1 35 31
M  V30 48 1 39 34
M  V30 49 1 1 45
M  V30 50 1 1 46
M  V30 51 1 5 47
M  V30 52 1 7 48
M  V30 53 1 8 49
M  V30 54 1 9 50
M  V30 55 1 9 51
M  V30 56 1 10 52 CFG=1
M  V30 57 1 12 53 CFG=1
M  V30 58 1 13 54
M  V30 59 1 13 55
M  V30 60 1 16 56
M  V30 61 1 20 57
M  V30 62 1 23 58
M  V30 63 1 23 59
M  V30 64 1 24 60 CFG=1
M  V30 65 1 26 61 CFG=1
M  V30 66 1 27 62 CFG=3
M  V30 67 1 28 63
M  V30 68 1 29 64 CFG=3
M  V30 69 1 30 65
M  V30 70 1 32 66
M  V30 71 1 37 67
M  V30 72 1 40 68
M  V30 73 1 40 69
M  V30 74 1 41 70 CFG=3
M  V30 75 1 42 71
M  V30 76 1 43 72 CFG=3
M  V30 77 1 44 73
M  V30 END BOND
M  V30 END CTAB
M  END
