
     RDKit          3D

  0  0  0  0  0  0  0  0  0  0999 V3000
M  V30 BEGIN CTAB
M  V30 COUNTS 21 22 0 0 0
M  V30 BEGIN ATOM
M  V30 1 N -2.9596 0.965754 -0.389451 0
M  V30 2 C -1.66581 0.425499 -0.161918 0
M  V30 3 C -0.553066 1.12124 -0.551766 0
M  V30 4 C 0.681229 0.543397 -0.303189 0
M  V30 5 C 0.782266 -0.690824 0.316086 0
M  V30 6 C 2.03937 -1.22087 0.53975 0
M  V30 7 C 3.19817 -0.57107 0.17148 0
M  V30 8 C 3.10343 0.657278 -0.445051 0
M  V30 9 C 1.8519 1.19123 -0.670881 0
M  V30 10 N -0.341505 -1.34252 0.684091 0
M  V30 11 C -1.56897 -0.804888 0.455568 0
M  V30 12 N -2.74975 -1.48266 0.838717 0
M  V30 13 H -3.22447 1.79056 0.224029 0
M  V30 14 H -3.63675 0.631913 -1.0784 0
M  V30 15 H -0.619241 2.0875 -1.03704 0
M  V30 16 H 2.15067 -2.1803 1.02 0
M  V30 17 H 4.18488 -0.999578 0.353329 0
M  V30 18 H 3.98087 1.20924 -0.754147 0
M  V30 19 H 1.71524 2.15845 -1.15419 0
M  V30 20 H -2.9758 -2.3912 0.396379 0
M  V30 21 H -3.39308 -1.09815 1.5466 0
M  V30 END ATOM
M  V30 BEGIN BOND
M  V30 1 1 1 2
M  V30 2 2 2 3
M  V30 3 1 3 4
M  V30 4 2 4 5
M  V30 5 1 5 6
M  V30 6 2 6 7
M  V30 7 1 7 8
M  V30 8 2 8 9
M  V30 9 1 5 10
M  V30 10 2 10 11
M  V30 11 1 11 12
M  V30 12 1 11 2
M  V30 13 1 9 4
M  V30 14 1 1 13
M  V30 15 1 1 14
M  V30 16 1 3 15
M  V30 17 1 6 16
M  V30 18 1 7 17
M  V30 19 1 8 18
M  V30 20 1 9 19
M  V30 21 1 12 20
M  V30 22 1 12 21
M  V30 END BOND
M  V30 END CTAB
M  END
