
     RDKit          3D

  0  0  0  0  0  0  0  0  0  0999 V3000
M  V30 BEGIN CTAB
M  V30 COUNTS 38 38 0 0 0
M  V30 BEGIN ATOM
M  V30 1 C -4.7059 -0.888584 -1.60135 0
M  V30 2 C -4.42497 0.485874 -1.1438 0
M  V30 3 C -2.99936 0.885311 -0.971022 0
M  V30 4 C -2.20445 0.114274 0.0459405 0
M  V30 5 C -0.81005 0.700723 0.0912886 0
M  V30 6 O -0.150171 0.655436 -0.960177 0
M  V30 7 N -0.263287 1.27439 1.24892 0
M  V30 8 C 1.0404 1.84273 1.35268 0
M  V30 9 C 2.13298 0.84283 1.06853 0
M  V30 10 C 2.02319 -0.518195 0.968422 0
M  V30 11 C 3.13767 -1.20833 0.703326 0
M  V30 12 C 4.29849 -0.501785 0.553234 0
M  V30 13 S 3.79726 1.10913 0.787419 0
M  V30 14 S 5.9048 -1.11189 0.205194 0
M  V30 15 O 5.8276 -2.60484 0.0777581 0
M  V30 16 O 6.8221 -0.777673 1.3358 0
M  V30 17 N 6.50857 -0.452381 -1.27306 0
M  V30 18 N -2.82417 0.228697 1.33271 0
M  V30 19 C -1.96446 -1.33384 -0.356884 0
M  V30 20 H -5.59815 -0.863776 -2.3013 0
M  V30 21 H -5.03341 -1.58138 -0.790883 0
M  V30 22 H -3.89978 -1.31903 -2.20332 0
M  V30 23 H -4.85257 1.21509 -1.90306 0
M  V30 24 H -4.98359 0.628482 -0.169867 0
M  V30 25 H -2.51274 0.825042 -1.99165 0
M  V30 26 H -2.93315 1.98668 -0.740606 0
M  V30 27 H -0.887904 1.2758 2.10898 0
M  V30 28 H 1.13739 2.70423 0.636086 0
M  V30 29 H 1.22357 2.25041 2.3468 0
M  V30 30 H 1.02486 -0.981405 1.11285 0
M  V30 31 H 3.15484 -2.31526 0.602304 0
M  V30 32 H 6.23754 0.568553 -1.2793 0
M  V30 33 H 7.5481 -0.561367 -1.24369 0
M  V30 34 H -2.32098 -0.316579 2.06557 0
M  V30 35 H -2.86275 1.22994 1.60213 0
M  V30 36 H -1.70103 -1.35065 -1.43089 0
M  V30 37 H -2.81777 -1.95212 -0.106463 0
M  V30 38 H -1.06871 -1.71219 0.221393 0
M  V30 END ATOM
M  V30 BEGIN BOND
M  V30 1 1 1 2
M  V30 2 1 2 3
M  V30 3 1 3 4
M  V30 4 1 4 5
M  V30 5 2 5 6
M  V30 6 1 5 7
M  V30 7 1 7 8
M  V30 8 1 8 9
M  V30 9 2 9 10
M  V30 10 1 10 11
M  V30 11 2 11 12
M  V30 12 1 12 13
M  V30 13 1 12 14
M  V30 14 2 14 15
M  V30 15 2 14 16
M  V30 16 1 14 17
M  V30 17 1 4 18
M  V30 18 1 4 19
M  V30 19 1 13 9
M  V30 20 1 1 20
M  V30 21 1 1 21
M  V30 22 1 1 22
M  V30 23 1 2 23
M  V30 24 1 2 24
M  V30 25 1 3 25
M  V30 26 1 3 26
M  V30 27 1 7 27
M  V30 28 1 8 28
M  V30 29 1 8 29
M  V30 30 1 10 30
M  V30 31 1 11 31
M  V30 32 1 17 32
M  V30 33 1 17 33
M  V30 34 1 18 34
M  V30 35 1 18 35
M  V30 36 1 19 36
M  V30 37 1 19 37
M  V30 38 1 19 38
M  V30 END BOND
M  V30 END CTAB
M  END
