
     RDKit          3D

  0  0  0  0  0  0  0  0  0  0999 V3000
M  V30 BEGIN CTAB
M  V30 COUNTS 33 33 0 0 0
M  V30 BEGIN ATOM
M  V30 1 C 5.21643 0.155032 0.791945 0
M  V30 2 C 4.68049 -1.01803 0.012828 0
M  V30 3 O 3.3881 -0.851136 -0.471683 0
M  V30 4 C 2.25517 -0.623707 0.26995 0
M  V30 5 O 2.37426 -0.555091 1.52351 0
M  V30 6 C 0.890374 -0.45112 -0.294941 0
M  V30 7 N 0.904001 -0.571398 -1.73863 0
M  V30 8 C 0.254346 0.840953 0.122797 0
M  V30 9 C -1.10132 0.934034 -0.484267 0
M  V30 10 O -1.25461 1.38834 -1.66999 0
M  V30 11 C -2.27348 0.5092 0.262888 0
M  V30 12 C -2.17205 0.00690939 1.54105 0
M  V30 13 C -3.2876 -0.398378 2.24935 0
M  V30 14 C -4.52634 -0.296768 1.66268 0
M  V30 15 C -4.61216 0.206511 0.386292 0
M  V30 16 C -3.50742 0.616749 -0.337895 0
M  V30 17 N -3.64765 1.13681 -1.67186 0
M  V30 18 H 4.66652 0.310611 1.73985 0
M  V30 19 H 5.17155 1.10602 0.240526 0
M  V30 20 H 6.27508 -0.0863685 1.04126 0
M  V30 21 H 5.34511 -1.13845 -0.891449 0
M  V30 22 H 4.84952 -1.91793 0.62033 0
M  V30 23 H 0.289088 -1.32041 0.088225 0
M  V30 24 H -0.0446668 -0.697897 -2.13826 0
M  V30 25 H 1.53432 -1.36075 -2.01861 0
M  V30 26 H 0.911982 1.65457 -0.290212 0
M  V30 27 H 0.238181 0.981721 1.21052 0
M  V30 28 H -1.2294 -0.100143 2.05905 0
M  V30 29 H -3.19074 -0.79427 3.26199 0
M  V30 30 H -5.4363 -0.600425 2.1735 0
M  V30 31 H -5.56898 0.302869 -0.111845 0
M  V30 32 H -3.9663 2.10653 -1.80789 0
M  V30 33 H -3.4255 0.525414 -2.45882 0
M  V30 END ATOM
M  V30 BEGIN BOND
M  V30 1 1 1 2
M  V30 2 1 2 3
M  V30 3 1 3 4
M  V30 4 2 4 5
M  V30 5 1 4 6
M  V30 6 1 6 7
M  V30 7 1 6 8
M  V30 8 1 8 9
M  V30 9 2 9 10
M  V30 10 1 9 11
M  V30 11 2 11 12
M  V30 12 1 12 13
M  V30 13 2 13 14
M  V30 14 1 14 15
M  V30 15 2 15 16
M  V30 16 1 16 17
M  V30 17 1 16 11
M  V30 18 1 1 18
M  V30 19 1 1 19
M  V30 20 1 1 20
M  V30 21 1 2 21
M  V30 22 1 2 22
M  V30 23 1 6 23
M  V30 24 1 7 24
M  V30 25 1 7 25
M  V30 26 1 8 26
M  V30 27 1 8 27
M  V30 28 1 12 28
M  V30 29 1 13 29
M  V30 30 1 14 30
M  V30 31 1 15 31
M  V30 32 1 17 32
M  V30 33 1 17 33
M  V30 END BOND
M  V30 END CTAB
M  END
