
     RDKit          3D

  0  0  0  0  0  0  0  0  0  0999 V3000
M  V30 BEGIN CTAB
M  V30 COUNTS 29 29 0 0 0
M  V30 BEGIN ATOM
M  V30 1 N 4.16928 -1.85311 -1.33325 0
M  V30 2 N 3.83587 -1.46817 -0.061769 0
M  V30 3 C 2.70181 -0.611537 0.160004 0
M  V30 4 C 1.50884 -1.13699 0.522555 0
M  V30 5 C 0.426444 -0.265486 0.696145 0
M  V30 6 O -0.762313 -0.815791 1.06689 0
M  V30 7 C -1.99502 -0.206303 1.27806 0
M  V30 8 C -2.45351 0.357056 -0.0556101 0
M  V30 9 C -2.55559 -0.885248 -0.970826 0
M  V30 10 C -3.76466 1.06718 -0.00340772 0
M  V30 11 N 0.577709 1.04964 0.505669 0
M  V30 12 C 1.76761 1.54938 0.1474 0
M  V30 13 N 2.8072 0.72107 -0.0197164 0
M  V30 14 N 1.88196 2.96764 -0.0388762 0
M  V30 15 H 5.14522 -1.84806 -1.60801 0
M  V30 16 H 3.49186 -2.39388 -1.8692 0
M  V30 17 H 4.41935 -1.80456 0.726129 0
M  V30 18 H 1.41301 -2.20569 0.666734 0
M  V30 19 H -2.74274 -0.964931 1.61632 0
M  V30 20 H -1.97675 0.595605 2.04031 0
M  V30 21 H -1.66778 0.98261 -0.524455 0
M  V30 22 H -2.98528 -1.68985 -0.301406 0
M  V30 23 H -1.56301 -1.14543 -1.34118 0
M  V30 24 H -3.24502 -0.67027 -1.80341 0
M  V30 25 H -3.94328 1.62405 0.932127 0
M  V30 26 H -3.77058 1.76053 -0.890484 0
M  V30 27 H -4.58911 0.319017 -0.107193 0
M  V30 28 H 1.61927 3.44237 -0.911462 0
M  V30 29 H 2.2492 3.52917 0.752105 0
M  V30 END ATOM
M  V30 BEGIN BOND
M  V30 1 1 1 2
M  V30 2 1 2 3
M  V30 3 2 3 4
M  V30 4 1 4 5
M  V30 5 1 5 6
M  V30 6 1 6 7
M  V30 7 1 7 8
M  V30 8 1 8 9
M  V30 9 1 8 10
M  V30 10 2 5 11
M  V30 11 1 11 12
M  V30 12 2 12 13
M  V30 13 1 12 14
M  V30 14 1 13 3
M  V30 15 1 1 15
M  V30 16 1 1 16
M  V30 17 1 2 17
M  V30 18 1 4 18
M  V30 19 1 7 19
M  V30 20 1 7 20
M  V30 21 1 8 21
M  V30 22 1 9 22
M  V30 23 1 9 23
M  V30 24 1 9 24
M  V30 25 1 10 25
M  V30 26 1 10 26
M  V30 27 1 10 27
M  V30 28 1 14 28
M  V30 29 1 14 29
M  V30 END BOND
M  V30 END CTAB
M  END
