
     RDKit          3D

  0  0  0  0  0  0  0  0  0  0999 V3000
M  V30 BEGIN CTAB
M  V30 COUNTS 26 27 0 0 0
M  V30 BEGIN ATOM
M  V30 1 N -1.76096 1.08253 1.20273 0
M  V30 2 C -1.86069 -0.321073 0.813727 0 CFG=1
M  V30 3 C -3.26292 -0.521623 0.237526 0
M  V30 4 C -3.04254 -0.243995 -1.22331 0
M  V30 5 O -1.73151 0.180224 -1.37599 0
M  V30 6 C -1.0274 -0.566421 -0.441219 0 CFG=1
M  V30 7 C 0.367819 -0.16918 -0.284065 0
M  V30 8 N 1.40185 -1.04898 -0.223118 0
M  V30 9 N 2.54255 -0.414821 -0.0800029 0
M  V30 10 C 2.25483 0.911081 -0.0458407 0
M  V30 11 N 0.917102 1.03069 -0.172852 0
M  V30 12 N 3.22739 1.93668 0.0991297 0
M  V30 13 C 3.87776 -1.01002 0.0242492 0
M  V30 14 H -2.19712 1.66379 0.461603 0
M  V30 15 H -2.27962 1.22269 2.08096 0
M  V30 16 H -1.6312 -1.01228 1.62138 0
M  V30 17 H -3.50013 -1.61825 0.36558 0
M  V30 18 H -4.00874 0.118774 0.711411 0
M  V30 19 H -3.1667 -1.16244 -1.85267 0
M  V30 20 H -3.78287 0.53544 -1.5254 0
M  V30 21 H -1.13932 -1.62607 -0.691115 0
M  V30 22 H 3.40079 2.56806 -0.711028 0
M  V30 23 H 3.78591 2.10779 0.961248 0
M  V30 24 H 4.58468 -0.545879 -0.699599 0
M  V30 25 H 3.7851 -2.0802 -0.304998 0
M  V30 26 H 4.24594 -1.01652 1.05167 0
M  V30 END ATOM
M  V30 BEGIN BOND
M  V30 1 1 1 2
M  V30 2 1 2 3
M  V30 3 1 3 4
M  V30 4 1 4 5
M  V30 5 1 5 6
M  V30 6 1 6 7
M  V30 7 2 7 8
M  V30 8 1 8 9
M  V30 9 1 9 10
M  V30 10 2 10 11
M  V30 11 1 10 12
M  V30 12 1 9 13
M  V30 13 1 6 2
M  V30 14 1 11 7
M  V30 15 1 1 14
M  V30 16 1 1 15
M  V30 17 1 2 16 CFG=1
M  V30 18 1 3 17
M  V30 19 1 3 18
M  V30 20 1 4 19
M  V30 21 1 4 20
M  V30 22 1 6 21 CFG=3
M  V30 23 1 12 22
M  V30 24 1 12 23
M  V30 25 1 13 24
M  V30 26 1 13 25
M  V30 27 1 13 26
M  V30 END BOND
M  V30 END CTAB
M  END
