
     RDKit          3D

  0  0  0  0  0  0  0  0  0  0999 V3000
M  V30 BEGIN CTAB
M  V30 COUNTS 31 32 0 0 0
M  V30 BEGIN ATOM
M  V30 1 N 4.80082 0.562438 0.155068 0
M  V30 2 C 3.89474 -0.251213 0.932994 0
M  V30 3 C 3.44819 -1.47878 0.212922 0
M  V30 4 C 2.71656 -1.18194 -1.07167 0
M  V30 5 C 1.49169 -0.376089 -0.832172 0
M  V30 6 N 1.41587 0.963425 -0.830761 0
M  V30 7 N 0.14802 1.27762 -0.575926 0
M  V30 8 C -0.600719 0.177059 -0.412023 0
M  V30 9 N 0.249389 -0.849065 -0.574368 0
M  V30 10 C -2.02495 0.0696684 -0.121 0
M  V30 11 C -2.65939 -1.14576 0.0208133 0
M  V30 12 C -4.00064 -1.24469 0.294843 0
M  V30 13 C -4.75134 -0.0975651 0.435676 0
M  V30 14 C -4.15436 1.13815 0.301277 0
M  V30 15 C -2.80268 1.19859 0.0255235 0
M  V30 16 N -4.97806 2.28458 0.456967 0
M  V30 17 H 5.58594 -0.0481918 -0.138174 0
M  V30 18 H 5.17345 1.32218 0.752323 0
M  V30 19 H 2.97866 0.360943 1.14457 0
M  V30 20 H 4.32495 -0.473884 1.93 0
M  V30 21 H 2.74562 -2.02419 0.882147 0
M  V30 22 H 4.27237 -2.1822 -0.00485157 0
M  V30 23 H 3.37735 -0.655592 -1.80497 0
M  V30 24 H 2.40963 -2.17566 -1.50699 0
M  V30 25 H 2.21106 1.65107 -1.00085 0
M  V30 26 H -2.03855 -2.03224 -0.0963134 0
M  V30 27 H -4.47801 -2.19011 0.40187 0
M  V30 28 H -5.81444 -0.208694 0.653215 0
M  V30 29 H -2.37078 2.18695 -0.0726965 0
M  V30 30 H -5.22133 2.59833 1.41726 0
M  V30 31 H -5.34906 2.82485 -0.352324 0
M  V30 END ATOM
M  V30 BEGIN BOND
M  V30 1 1 1 2
M  V30 2 1 2 3
M  V30 3 1 3 4
M  V30 4 1 4 5
M  V30 5 1 5 6
M  V30 6 1 6 7
M  V30 7 2 7 8
M  V30 8 1 8 9
M  V30 9 1 8 10
M  V30 10 2 10 11
M  V30 11 1 11 12
M  V30 12 2 12 13
M  V30 13 1 13 14
M  V30 14 2 14 15
M  V30 15 1 14 16
M  V30 16 2 9 5
M  V30 17 1 15 10
M  V30 18 1 1 17
M  V30 19 1 1 18
M  V30 20 1 2 19
M  V30 21 1 2 20
M  V30 22 1 3 21
M  V30 23 1 3 22
M  V30 24 1 4 23
M  V30 25 1 4 24
M  V30 26 1 6 25
M  V30 27 1 11 26
M  V30 28 1 12 27
M  V30 29 1 13 28
M  V30 30 1 15 29
M  V30 31 1 16 30
M  V30 32 1 16 31
M  V30 END BOND
M  V30 END CTAB
M  END
