
     RDKit          3D

  0  0  0  0  0  0  0  0  0  0999 V3000
M  V30 BEGIN CTAB
M  V30 COUNTS 24 24 0 0 0
M  V30 BEGIN ATOM
M  V30 1 N 3.27532 0.928171 -0.732673 0
M  V30 2 C 1.91927 0.50619 -1.05054 0
M  V30 3 C 1.1661 0.43358 0.256868 0
M  V30 4 C -0.244194 0.00971019 0.0640892 0
M  V30 5 N -1.25738 0.798125 0.394021 0
M  V30 6 C -2.55242 0.473646 0.244748 0
M  V30 7 N -3.58589 1.37246 0.621811 0
M  V30 8 C -2.8689 -0.751106 -0.28267 0
M  V30 9 C -1.80796 -1.58562 -0.631983 0
M  V30 10 O -2.11816 -2.70346 -1.11353 0
M  V30 11 N -0.522131 -1.19799 -0.455716 0
M  V30 12 C 1.87917 -0.465896 1.25824 0
M  V30 13 H 3.78928 0.236333 -0.160082 0
M  V30 14 H 3.81652 1.1844 -1.58096 0
M  V30 15 H 1.92599 -0.421995 -1.61644 0
M  V30 16 H 1.46958 1.36096 -1.627 0
M  V30 17 H 1.19608 1.45395 0.694678 0
M  V30 18 H -3.62301 2.32966 0.215414 0
M  V30 19 H -4.29207 1.04059 1.30901 0
M  V30 20 H -3.90207 -1.05065 -0.419198 0
M  V30 21 H 0.219776 -1.87337 -0.739361 0
M  V30 22 H 2.4497 -1.26511 0.773969 0
M  V30 23 H 2.57967 0.119249 1.87486 0
M  V30 24 H 1.08772 -0.931821 1.87108 0
M  V30 END ATOM
M  V30 BEGIN BOND
M  V30 1 1 1 2
M  V30 2 1 2 3
M  V30 3 1 3 4
M  V30 4 2 4 5
M  V30 5 1 5 6
M  V30 6 1 6 7
M  V30 7 2 6 8
M  V30 8 1 8 9
M  V30 9 2 9 10
M  V30 10 1 9 11
M  V30 11 1 3 12
M  V30 12 1 11 4
M  V30 13 1 1 13
M  V30 14 1 1 14
M  V30 15 1 2 15
M  V30 16 1 2 16
M  V30 17 1 3 17
M  V30 18 1 7 18
M  V30 19 1 7 19
M  V30 20 1 8 20
M  V30 21 1 11 21
M  V30 22 1 12 22
M  V30 23 1 12 23
M  V30 24 1 12 24
M  V30 END BOND
M  V30 END CTAB
M  END
