
     RDKit          3D

  0  0  0  0  0  0  0  0  0  0999 V3000
M  V30 BEGIN CTAB
M  V30 COUNTS 22 23 0 0 0
M  V30 BEGIN ATOM
M  V30 1 N -4.26008 1.16689 -0.937531 0
M  V30 2 N -2.8935 0.928345 -0.634519 0
M  V30 3 C -2.49696 -0.278612 -0.0402103 0
M  V30 4 O -3.36339 -1.14409 0.222978 0
M  V30 5 C -1.09485 -0.532883 0.272865 0
M  V30 6 C -0.827289 -1.54677 1.2055 0
M  V30 7 C 0.495848 -1.78977 1.49197 0
M  V30 8 C 1.51501 -1.05325 0.875139 0
M  V30 9 C 1.25104 -0.0661045 -0.0331827 0
M  V30 10 C -0.100097 0.181183 -0.325074 0
M  V30 11 N 2.27215 0.559799 -0.55 0
M  V30 12 C 3.4926 0.245427 -0.204228 0
M  V30 13 S 3.22381 -1.02081 0.930709 0
M  V30 14 N 4.75078 0.80313 -0.647454 0
M  V30 15 H -4.25451 1.77541 -1.78669 0
M  V30 16 H -4.72825 1.69501 -0.168776 0
M  V30 17 H -2.1872 1.65359 -0.850485 0
M  V30 18 H -1.64353 -2.07208 1.64098 0
M  V30 19 H 0.792165 -2.54038 2.18734 0
M  V30 20 H -0.354913 0.962461 -1.05338 0
M  V30 21 H 4.95285 1.80753 -0.4418 0
M  V30 22 H 5.4583 0.265981 -1.15415 0
M  V30 END ATOM
M  V30 BEGIN BOND
M  V30 1 1 1 2
M  V30 2 1 2 3
M  V30 3 2 3 4
M  V30 4 1 3 5
M  V30 5 2 5 6
M  V30 6 1 6 7
M  V30 7 2 7 8
M  V30 8 1 8 9
M  V30 9 2 9 10
M  V30 10 1 9 11
M  V30 11 2 11 12
M  V30 12 1 12 13
M  V30 13 1 12 14
M  V30 14 1 10 5
M  V30 15 1 13 8
M  V30 16 1 1 15
M  V30 17 1 1 16
M  V30 18 1 2 17
M  V30 19 1 6 18
M  V30 20 1 7 19
M  V30 21 1 10 20
M  V30 22 1 14 21
M  V30 23 1 14 22
M  V30 END BOND
M  V30 END CTAB
M  END
