
     RDKit          3D

  0  0  0  0  0  0  0  0  0  0999 V3000
M  V30 BEGIN CTAB
M  V30 COUNTS 18 18 0 0 0
M  V30 BEGIN ATOM
M  V30 1 N -3.53183 0.936603 -0.182827 0
M  V30 2 N -2.74424 -0.0787288 -0.718006 0
M  V30 3 C -1.33212 -0.136594 -0.478233 0
M  V30 4 C -0.859108 -1.02296 0.464971 0
M  V30 5 C 0.508526 -1.05454 0.687882 0
M  V30 6 C 1.376 -0.226811 -0.00914786 0
M  V30 7 N 2.774 -0.270323 0.222511 0
M  V30 8 N 3.63758 0.614955 -0.463626 0
M  V30 9 N 0.820655 0.604773 -0.909386 0
M  V30 10 N -0.475109 0.65236 -1.13964 0
M  V30 11 H -3.554 0.98873 0.842561 0
M  V30 12 H -3.33185 1.8104 -0.69747 0
M  V30 13 H -3.10118 -0.866896 -1.31827 0
M  V30 14 H -1.52494 -1.69502 1.03333 0
M  V30 15 H 0.91496 -1.73864 1.41311 0
M  V30 16 H 3.16497 -0.974178 0.915667 0
M  V30 17 H 4.23482 1.1156 0.260249 0
M  V30 18 H 3.02288 1.34127 -0.906009 0
M  V30 END ATOM
M  V30 BEGIN BOND
M  V30 1 1 1 2
M  V30 2 1 2 3
M  V30 3 2 3 4
M  V30 4 1 4 5
M  V30 5 2 5 6
M  V30 6 1 6 7
M  V30 7 1 7 8
M  V30 8 1 6 9
M  V30 9 2 9 10
M  V30 10 1 10 3
M  V30 11 1 1 11
M  V30 12 1 1 12
M  V30 13 1 2 13
M  V30 14 1 4 14
M  V30 15 1 5 15
M  V30 16 1 7 16
M  V30 17 1 8 17
M  V30 18 1 8 18
M  V30 END BOND
M  V30 END CTAB
M  END
