
     RDKit          3D

  0  0  0  0  0  0  0  0  0  0999 V3000
M  V30 BEGIN CTAB
M  V30 COUNTS 30 30 0 0 0
M  V30 BEGIN ATOM
M  V30 1 N 5.1399 -0.808155 0.575554 0
M  V30 2 C 4.00919 -0.297187 0.258782 0
M  V30 3 N 3.89166 1.1142 0.217167 0
M  V30 4 N 2.92485 -1.17028 -0.0362932 0
M  V30 5 C 1.95754 -0.898344 -1.0249 0
M  V30 6 N 2.32531 -0.980638 -2.25716 0
M  V30 7 C 0.584019 -0.534369 -0.745675 0
M  V30 8 N -0.295316 -0.285823 -1.75363 0
M  V30 9 C -1.56484 0.0513708 -1.55693 0
M  V30 10 Cl -2.64281 0.357263 -2.88367 0
M  V30 11 C -2.01055 0.153457 -0.24388 0
M  V30 12 N -1.14894 -0.0901731 0.750984 0
M  V30 13 C 0.156546 -0.437059 0.559783 0
M  V30 14 N 0.99352 -0.675646 1.6778 0
M  V30 15 N -3.34204 0.505749 0.0650246 0
M  V30 16 C -4.42991 -0.308408 -0.395217 0
M  V30 17 C -3.60092 1.68599 0.844063 0
M  V30 18 H 5.99526 -0.2833 0.809365 0
M  V30 19 H 3.93883 1.71092 1.0948 0
M  V30 20 H 3.75195 1.66091 -0.669482 0
M  V30 21 H 2.83264 -2.06489 0.499704 0
M  V30 22 H 3.26809 -1.22874 -2.58481 0
M  V30 23 H 1.06717 -1.63441 2.04416 0
M  V30 24 H 1.51814 0.0896178 2.12157 0
M  V30 25 H -4.10722 -1.26617 -0.832279 0
M  V30 26 H -5.13714 -0.578393 0.443372 0
M  V30 27 H -5.07741 0.260014 -1.12436 0
M  V30 28 H -3.20216 2.60903 0.375723 0
M  V30 29 H -4.67266 1.83619 1.05761 0
M  V30 30 H -3.12272 1.50728 1.85103 0
M  V30 END ATOM
M  V30 BEGIN BOND
M  V30 1 2 1 2 CFG=2
M  V30 2 1 2 3
M  V30 3 1 2 4
M  V30 4 1 4 5
M  V30 5 2 5 6 CFG=2
M  V30 6 1 5 7
M  V30 7 2 7 8
M  V30 8 1 8 9
M  V30 9 1 9 10
M  V30 10 2 9 11
M  V30 11 1 11 12
M  V30 12 2 12 13
M  V30 13 1 13 14
M  V30 14 1 11 15
M  V30 15 1 15 16
M  V30 16 1 15 17
M  V30 17 1 13 7
M  V30 18 1 1 18
M  V30 19 1 3 19
M  V30 20 1 3 20
M  V30 21 1 4 21
M  V30 22 1 6 22
M  V30 23 1 14 23
M  V30 24 1 14 24
M  V30 25 1 16 25
M  V30 26 1 16 26
M  V30 27 1 16 27
M  V30 28 1 17 28
M  V30 29 1 17 29
M  V30 30 1 17 30
M  V30 END BOND
M  V30 END CTAB
M  END
