
     RDKit          3D

  0  0  0  0  0  0  0  0  0  0999 V3000
M  V30 BEGIN CTAB
M  V30 COUNTS 45 46 0 0 0
M  V30 BEGIN ATOM
M  V30 1 N 6.81629 0.242998 1.24018 0
M  V30 2 C 5.59592 1.0039 1.34073 0
M  V30 3 C 4.93257 1.05913 -0.0422827 0
M  V30 4 C 4.2022 -0.22827 0.362612 0
M  V30 5 C 4.38386 0.210718 1.80032 0
M  V30 6 C 2.81926 -0.170611 -0.146583 0
M  V30 7 C 1.96522 0.854653 0.10284 0
M  V30 8 C 0.673487 0.809823 -0.429025 0
M  V30 9 N -0.234395 1.87676 -0.186579 0
M  V30 10 C -1.55174 1.80815 -0.723741 0
M  V30 11 C -2.39609 0.721584 -0.218891 0
M  V30 12 O -2.02608 -0.120058 0.642656 0
M  V30 13 N -3.71648 0.591165 -0.718395 0
M  V30 14 C -4.62098 -0.453385 -0.275685 0
M  V30 15 C -4.83473 -0.31376 1.22398 0
M  V30 16 C -4.0832 -1.82974 -0.543668 0
M  V30 17 C -5.97368 -0.336122 -0.929013 0
M  V30 18 N 0.338161 -0.261982 -1.17116 0
M  V30 19 C 1.17663 -1.27992 -1.42251 0
M  V30 20 N 2.39736 -1.21904 -0.90933 0
M  V30 21 N 0.806823 -2.40157 -2.20655 0
M  V30 22 H 6.66313 -0.735033 0.944431 0
M  V30 23 H 7.47308 0.375255 2.0154 0
M  V30 24 H 5.73748 1.97842 1.80517 0
M  V30 25 H 4.22457 1.91692 -0.111398 0
M  V30 26 H 5.62424 0.932128 -0.884377 0
M  V30 27 H 4.78527 -1.1077 0.0895672 0
M  V30 28 H 3.58641 0.874393 2.17789 0
M  V30 29 H 4.62426 -0.640429 2.47322 0
M  V30 30 H 2.29699 1.68574 0.706421 0
M  V30 31 H 0.108523 2.69459 0.39307 0
M  V30 32 H -1.4492 1.64949 -1.83565 0
M  V30 33 H -2.09453 2.77301 -0.616374 0
M  V30 34 H -4.07991 1.2568 -1.43235 0
M  V30 35 H -5.83234 -0.742736 1.46669 0
M  V30 36 H -4.08085 -0.963098 1.71525 0
M  V30 37 H -4.7436 0.739573 1.56221 0
M  V30 38 H -3.47181 -2.19172 0.314663 0
M  V30 39 H -3.4674 -1.86776 -1.48326 0
M  V30 40 H -4.93365 -2.51301 -0.706016 0
M  V30 41 H -5.9095 -0.564865 -2.02036 0
M  V30 42 H -6.42599 0.672513 -0.763671 0
M  V30 43 H -6.63463 -1.08102 -0.433337 0
M  V30 44 H 0.305272 -2.31547 -3.12337 0
M  V30 45 H 1.02379 -3.3904 -1.89669 0
M  V30 END ATOM
M  V30 BEGIN BOND
M  V30 1 1 1 2
M  V30 2 1 2 3
M  V30 3 1 3 4
M  V30 4 1 4 5
M  V30 5 1 4 6
M  V30 6 2 6 7
M  V30 7 1 7 8
M  V30 8 1 8 9
M  V30 9 1 9 10
M  V30 10 1 10 11
M  V30 11 2 11 12
M  V30 12 1 11 13
M  V30 13 1 13 14
M  V30 14 1 14 15
M  V30 15 1 14 16
M  V30 16 1 14 17
M  V30 17 2 8 18
M  V30 18 1 18 19
M  V30 19 2 19 20
M  V30 20 1 19 21
M  V30 21 1 5 2
M  V30 22 1 20 6
M  V30 23 1 1 22
M  V30 24 1 1 23
M  V30 25 1 2 24
M  V30 26 1 3 25
M  V30 27 1 3 26
M  V30 28 1 4 27
M  V30 29 1 5 28
M  V30 30 1 5 29
M  V30 31 1 7 30
M  V30 32 1 9 31
M  V30 33 1 10 32
M  V30 34 1 10 33
M  V30 35 1 13 34
M  V30 36 1 15 35
M  V30 37 1 15 36
M  V30 38 1 15 37
M  V30 39 1 16 38
M  V30 40 1 16 39
M  V30 41 1 16 40
M  V30 42 1 17 41
M  V30 43 1 17 42
M  V30 44 1 17 43
M  V30 45 1 21 44
M  V30 46 1 21 45
M  V30 END BOND
M  V30 END CTAB
M  END
