
     RDKit          3D

  0  0  0  0  0  0  0  0  0  0999 V3000
M  V30 BEGIN CTAB
M  V30 COUNTS 48 49 0 0 0
M  V30 BEGIN ATOM
M  V30 1 N 6.69846 1.83744 0.13395 0
M  V30 2 C 5.99433 0.571302 -0.114497 0
M  V30 3 C 4.55044 0.947999 -0.340922 0
M  V30 4 N 3.7172 -0.23942 -0.600356 0
M  V30 5 C 3.60235 -1.05715 0.561695 0
M  V30 6 C 2.33776 -1.81924 0.729976 0
M  V30 7 N 1.18336 -0.912638 0.457035 0
M  V30 8 C 1.58066 0.410973 0.212236 0
M  V30 9 C 2.45565 0.322344 -1.07082 0
M  V30 10 C -0.0667021 -1.50777 0.497991 0
M  V30 11 S -0.130695 -3.16896 0.8666 0
M  V30 12 N -1.36096 -0.961552 0.282348 0
M  V30 13 C -2.49454 -1.88468 0.415638 0
M  V30 14 C -3.52086 -1.48303 -0.602203 0
M  V30 15 N -3.99546 -0.1285 -0.359839 0
M  V30 16 C -2.95792 0.828534 -0.418854 0
M  V30 17 C -1.58855 0.40058 -0.0513888 0
M  V30 18 C -4.91031 -0.0554244 0.724228 0
M  V30 19 C -5.42676 1.3021 1.02199 0
M  V30 20 N -6.12267 1.92372 -0.0757223 0
M  V30 21 H 6.03805 2.39642 0.743842 0
M  V30 22 H 7.57431 1.67524 0.675755 0
M  V30 23 H 6.39436 0.210561 -1.10108 0
M  V30 24 H 6.13894 -0.126418 0.70527 0
M  V30 25 H 4.12286 1.44295 0.533266 0
M  V30 26 H 4.42792 1.5948 -1.22828 0
M  V30 27 H 3.85818 -0.532897 1.50865 0
M  V30 28 H 4.423 -1.83539 0.467417 0
M  V30 29 H 2.27558 -2.72075 0.108415 0
M  V30 30 H 2.23029 -2.08268 1.81016 0
M  V30 31 H 0.89283 1.2256 0.15255 0
M  V30 32 H 2.30885 0.684624 1.05127 0
M  V30 33 H 2.57052 1.31194 -1.52888 0
M  V30 34 H 2.02951 -0.447202 -1.75513 0
M  V30 35 H -2.22616 -2.92521 0.244131 0
M  V30 36 H -2.95504 -1.79569 1.42486 0
M  V30 37 H -3.16634 -1.55322 -1.63822 0
M  V30 38 H -4.41933 -2.14503 -0.512499 0
M  V30 39 H -2.9931 1.27916 -1.46726 0
M  V30 40 H -3.23173 1.72302 0.213841 0
M  V30 41 H -1.25122 0.999696 0.846066 0
M  V30 42 H -0.955158 0.619224 -0.96305 0
M  V30 43 H -4.50477 -0.494239 1.66166 0
M  V30 44 H -5.78171 -0.723954 0.458908 0
M  V30 45 H -6.23045 1.15393 1.81872 0
M  V30 46 H -4.7387 2.01375 1.46753 0
M  V30 47 H -5.49913 2.37975 -0.768241 0
M  V30 48 H -6.87715 1.34541 -0.474662 0
M  V30 END ATOM
M  V30 BEGIN BOND
M  V30 1 1 1 2
M  V30 2 1 2 3
M  V30 3 1 3 4
M  V30 4 1 4 5
M  V30 5 1 5 6
M  V30 6 1 6 7
M  V30 7 1 7 8
M  V30 8 1 8 9
M  V30 9 1 7 10
M  V30 10 2 10 11
M  V30 11 1 10 12
M  V30 12 1 12 13
M  V30 13 1 13 14
M  V30 14 1 14 15
M  V30 15 1 15 16
M  V30 16 1 16 17
M  V30 17 1 15 18
M  V30 18 1 18 19
M  V30 19 1 19 20
M  V30 20 1 9 4
M  V30 21 1 17 12
M  V30 22 1 1 21
M  V30 23 1 1 22
M  V30 24 1 2 23
M  V30 25 1 2 24
M  V30 26 1 3 25
M  V30 27 1 3 26
M  V30 28 1 5 27
M  V30 29 1 5 28
M  V30 30 1 6 29
M  V30 31 1 6 30
M  V30 32 1 8 31
M  V30 33 1 8 32
M  V30 34 1 9 33
M  V30 35 1 9 34
M  V30 36 1 13 35
M  V30 37 1 13 36
M  V30 38 1 14 37
M  V30 39 1 14 38
M  V30 40 1 16 39
M  V30 41 1 16 40
M  V30 42 1 17 41
M  V30 43 1 17 42
M  V30 44 1 18 43
M  V30 45 1 18 44
M  V30 46 1 19 45
M  V30 47 1 19 46
M  V30 48 1 20 47
M  V30 49 1 20 48
M  V30 END BOND
M  V30 END CTAB
M  END
