
     RDKit          3D

  0  0  0  0  0  0  0  0  0  0999 V3000
M  V30 BEGIN CTAB
M  V30 COUNTS 47 50 0 0 0
M  V30 BEGIN ATOM
M  V30 1 C -1.86989 -4.3099 -0.468778 0
M  V30 2 C -1.37257 -2.90734 -0.475199 0
M  V30 3 C -0.0703092 -2.45115 -0.470441 0
M  V30 4 N -0.0477595 -1.10543 -0.479343 0
M  V30 5 C -1.31105 -0.653282 -0.489959 0
M  V30 6 C -2.14983 -1.74617 -0.487659 0
M  V30 7 C -3.59239 -1.52923 -0.497801 0
M  V30 8 O -4.34087 -2.48278 -0.188285 0
M  V30 9 C -4.09954 -0.183669 -0.876139 0
M  V30 10 C -3.25132 0.875652 -0.233395 0
M  V30 11 C -3.72705 2.22238 -0.783114 0
M  V30 12 C -3.52156 0.932436 1.26969 0
M  V30 13 C -1.79562 0.746659 -0.502248 0
M  V30 14 C 1.15921 -0.305934 -0.477487 0
M  V30 15 C 2.02368 -0.418647 0.578432 0
M  V30 16 C 3.17997 0.325961 0.612986 0
M  V30 17 C 3.48021 1.19634 -0.419887 0
M  V30 18 C 2.59334 1.29196 -1.47238 0
M  V30 19 C 1.43994 0.548963 -1.50646 0
M  V30 20 C 4.6388 1.95825 -0.409632 0
M  V30 21 N 4.87696 2.82993 -1.50791 0
M  V30 22 N 5.45388 1.82507 0.627379 0
M  V30 23 C 5.2476 1.00805 1.67406 0
M  V30 24 C 4.08936 0.253013 1.65356 0
M  V30 25 N 3.78609 -0.638153 2.71532 0
M  V30 26 H -2.24125 -4.58128 -1.49597 0
M  V30 27 H -0.993885 -4.94834 -0.221081 0
M  V30 28 H -2.67765 -4.41479 0.276175 0
M  V30 29 H 0.794355 -3.1113 -0.460829 0
M  V30 30 H -4.05358 -0.0180047 -1.97716 0
M  V30 31 H -5.13394 -0.0646824 -0.482528 0
M  V30 32 H -4.82237 2.24611 -0.627596 0
M  V30 33 H -3.22323 3.06086 -0.254446 0
M  V30 34 H -3.46276 2.21131 -1.87062 0
M  V30 35 H -3.21272 -0.00609974 1.7714 0
M  V30 36 H -4.61137 1.08809 1.38607 0
M  V30 37 H -3.03217 1.83007 1.69668 0
M  V30 38 H -1.52246 1.21726 -1.47621 0
M  V30 39 H -1.25756 1.36766 0.273259 0
M  V30 40 H 1.82999 -1.09344 1.41911 0
M  V30 41 H 2.84345 1.97747 -2.27195 0
M  V30 42 H 0.751736 0.64169 -2.3517 0
M  V30 43 H 5.15564 2.42957 -2.44856 0
M  V30 44 H 4.78718 3.87307 -1.42659 0
M  V30 45 H 5.93832 0.930545 2.49844 0
M  V30 46 H 2.96066 -0.438706 3.29346 0
M  V30 47 H 4.36436 -1.48004 2.92864 0
M  V30 END ATOM
M  V30 BEGIN BOND
M  V30 1 1 1 2
M  V30 2 2 2 3
M  V30 3 1 3 4
M  V30 4 1 4 5
M  V30 5 2 5 6
M  V30 6 1 6 7
M  V30 7 2 7 8
M  V30 8 1 7 9
M  V30 9 1 9 10
M  V30 10 1 10 11
M  V30 11 1 10 12
M  V30 12 1 10 13
M  V30 13 1 4 14
M  V30 14 2 14 15
M  V30 15 1 15 16
M  V30 16 2 16 17
M  V30 17 1 17 18
M  V30 18 2 18 19
M  V30 19 1 17 20
M  V30 20 1 20 21
M  V30 21 2 20 22
M  V30 22 1 22 23
M  V30 23 2 23 24
M  V30 24 1 24 25
M  V30 25 1 6 2
M  V30 26 1 19 14
M  V30 27 1 13 5
M  V30 28 1 24 16
M  V30 29 1 1 26
M  V30 30 1 1 27
M  V30 31 1 1 28
M  V30 32 1 3 29
M  V30 33 1 9 30
M  V30 34 1 9 31
M  V30 35 1 11 32
M  V30 36 1 11 33
M  V30 37 1 11 34
M  V30 38 1 12 35
M  V30 39 1 12 36
M  V30 40 1 12 37
M  V30 41 1 13 38
M  V30 42 1 13 39
M  V30 43 1 15 40
M  V30 44 1 18 41
M  V30 45 1 19 42
M  V30 46 1 21 43
M  V30 47 1 21 44
M  V30 48 1 23 45
M  V30 49 1 25 46
M  V30 50 1 25 47
M  V30 END BOND
M  V30 END CTAB
M  END
