
     RDKit          3D

  0  0  0  0  0  0  0  0  0  0999 V3000
M  V30 BEGIN CTAB
M  V30 COUNTS 49 52 0 0 0
M  V30 BEGIN ATOM
M  V30 1 O -0.267705 -0.77536 1.62659 0
M  V30 2 C -1.17676 -0.675854 0.708655 0
M  V30 3 N -0.738001 -0.898986 -0.596431 0
M  V30 4 C -1.65451 -0.81947 -1.70604 0
M  V30 5 C -0.85807 -0.548578 -2.97466 0
M  V30 6 O -0.208013 0.684594 -2.74316 0
M  V30 7 C 1.12547 0.43682 -2.55764 0
M  V30 8 C 1.50806 -0.049145 -1.1939 0
M  V30 9 C 0.676522 -1.21506 -0.724664 0
M  V30 10 O 1.43281 0.963412 -0.213392 0
M  V30 11 C 2.64802 1.06612 0.461601 0
M  V30 12 C 3.57334 0.244483 -0.131126 0
M  V30 13 C 2.96141 -0.451352 -1.26232 0
M  V30 14 C 4.86761 0.193579 0.390576 0
M  V30 15 N 5.79686 -0.664828 -0.246463 0
M  V30 16 N 5.13426 0.954805 1.4476 0
M  V30 17 C 4.25555 1.76131 2.04287 0
M  V30 18 N 3.01332 1.8144 1.54711 0
M  V30 19 N 4.60286 2.54776 3.16893 0
M  V30 20 C -2.53283 -0.34278 1.18129 0
M  V30 21 C -3.59251 -1.35783 0.797461 0
M  V30 22 C -4.81877 -0.989811 1.61994 0
M  V30 23 N -5.29597 0.326187 1.34181 0
M  V30 24 C -4.43967 1.12526 0.498905 0
M  V30 25 C -2.98356 1.05244 0.909876 0
M  V30 26 H -2.1494 -1.80505 -1.85939 0
M  V30 27 H -2.4422 -0.0662514 -1.59246 0
M  V30 28 H -1.59615 -0.382881 -3.78146 0
M  V30 29 H -0.146228 -1.35433 -3.17917 0
M  V30 30 H 1.50968 -0.280304 -3.31869 0
M  V30 31 H 1.67583 1.39595 -2.7346 0
M  V30 32 H 0.753253 -2.03714 -1.46324 0
M  V30 33 H 1.03213 -1.62249 0.237524 0
M  V30 34 H 3.45001 -0.116811 -2.22436 0
M  V30 35 H 3.05263 -1.55858 -1.1691 0
M  V30 36 H 6.31298 -1.4362 0.253052 0
M  V30 37 H 5.96487 -0.505354 -1.27526 0
M  V30 38 H 4.12266 2.42049 4.08212 0
M  V30 39 H 5.34723 3.26097 3.08184 0
M  V30 40 H -2.53579 -0.414183 2.33294 0
M  V30 41 H -3.84011 -1.3966 -0.258419 0
M  V30 42 H -3.25672 -2.349 1.18175 0
M  V30 43 H -5.57976 -1.76055 1.43835 0
M  V30 44 H -4.50882 -1.06974 2.69307 0
M  V30 45 H -5.69576 0.833651 2.14391 0
M  V30 46 H -4.7471 2.18934 0.64584 0
M  V30 47 H -4.50457 0.841811 -0.561899 0
M  V30 48 H -2.86624 1.72806 1.81302 0
M  V30 49 H -2.38214 1.53276 0.121243 0
M  V30 END ATOM
M  V30 BEGIN BOND
M  V30 1 2 1 2
M  V30 2 1 2 3
M  V30 3 1 3 4
M  V30 4 1 4 5
M  V30 5 1 5 6
M  V30 6 1 6 7
M  V30 7 1 7 8
M  V30 8 1 8 9
M  V30 9 1 8 10
M  V30 10 1 10 11
M  V30 11 2 11 12
M  V30 12 1 12 13
M  V30 13 1 12 14
M  V30 14 1 14 15
M  V30 15 2 14 16
M  V30 16 1 16 17
M  V30 17 2 17 18
M  V30 18 1 17 19
M  V30 19 1 2 20
M  V30 20 1 20 21
M  V30 21 1 21 22
M  V30 22 1 22 23
M  V30 23 1 23 24
M  V30 24 1 24 25
M  V30 25 1 9 3
M  V30 26 1 18 11
M  V30 27 1 25 20
M  V30 28 1 13 8
M  V30 29 1 4 26
M  V30 30 1 4 27
M  V30 31 1 5 28
M  V30 32 1 5 29
M  V30 33 1 7 30
M  V30 34 1 7 31
M  V30 35 1 9 32
M  V30 36 1 9 33
M  V30 37 1 13 34
M  V30 38 1 13 35
M  V30 39 1 15 36
M  V30 40 1 15 37
M  V30 41 1 19 38
M  V30 42 1 19 39
M  V30 43 1 20 40
M  V30 44 1 21 41
M  V30 45 1 21 42
M  V30 46 1 22 43
M  V30 47 1 22 44
M  V30 48 1 23 45
M  V30 49 1 24 46
M  V30 50 1 24 47
M  V30 51 1 25 48
M  V30 52 1 25 49
M  V30 END BOND
M  V30 END CTAB
M  END
