
 OpenBabel01241711223D

 21 20  0  0  0  0  0  0  0  0999 V2000
    1.5413    0.6085   -2.4473 N   0  0  0  0  0  0  0  0  0  0  0  0
    1.3779    1.4836   -1.2895 C   0  0  0  0  0  0  0  0  0  0  0  0
    0.0340    1.2687   -0.5892 C   0  0  0  0  0  0  0  0  0  0  0  0
   -0.2389   -0.1662   -0.1299 C   0  0  0  0  0  0  0  0  0  0  0  0
    0.7028   -0.7217    0.9437 C   0  0  0  0  0  0  0  0  0  0  0  0
    0.4816   -0.1275    2.3378 C   0  0  0  0  0  0  0  0  0  0  0  0
    1.4097    0.9610    2.6254 N   0  0  0  0  0  0  0  0  0  0  0  0
    2.4060    0.8499   -2.9323 H   0  0  0  0  0  0  0  0  0  0  0  0
    0.7852    0.7688   -3.1084 H   0  0  0  0  0  0  0  0  0  0  0  0
    1.4377    2.5249   -1.6267 H   0  0  0  0  0  0  0  0  0  0  0  0
    2.2050    1.3231   -0.5925 H   0  0  0  0  0  0  0  0  0  0  0  0
   -0.0368    1.9528    0.2642 H   0  0  0  0  0  0  0  0  0  0  0  0
   -0.7698    1.5607   -1.2782 H   0  0  0  0  0  0  0  0  0  0  0  0
   -0.2038   -0.8354   -0.9983 H   0  0  0  0  0  0  0  0  0  0  0  0
   -1.2703   -0.2209    0.2412 H   0  0  0  0  0  0  0  0  0  0  0  0
    1.7501   -0.6304    0.6320 H   0  0  0  0  0  0  0  0  0  0  0  0
    0.5111   -1.8002    1.0131 H   0  0  0  0  0  0  0  0  0  0  0  0
   -0.5462    0.2330    2.4528 H   0  0  0  0  0  0  0  0  0  0  0  0
    0.6324   -0.9120    3.0882 H   0  0  0  0  0  0  0  0  0  0  0  0
    2.3636    0.5993    2.5931 H   0  0  0  0  0  0  0  0  0  0  0  0
    1.2674    1.2681    3.5878 H   0  0  0  0  0  0  0  0  0  0  0  0
  1  2  1  0  0  0  0
  1  8  1  0  0  0  0
  1  9  1  0  0  0  0
  2  3  1  0  0  0  0
  2 10  1  0  0  0  0
  2 11  1  0  0  0  0
  3  4  1  0  0  0  0
  3 12  1  0  0  0  0
  3 13  1  0  0  0  0
  4  5  1  0  0  0  0
  4 14  1  0  0  0  0
  4 15  1  0  0  0  0
  5  6  1  0  0  0  0
  5 16  1  0  0  0  0
  5 17  1  0  0  0  0
  6  7  1  0  0  0  0
  6 18  1  0  0  0  0
  6 19  1  0  0  0  0
  7 20  1  0  0  0  0
  7 21  1  0  0  0  0
M  END
