
     RDKit          3D

  0  0  0  0  0  0  0  0  0  0999 V3000
M  V30 BEGIN CTAB
M  V30 COUNTS 37 39 0 0 0
M  V30 BEGIN ATOM
M  V30 1 N 2.04215 -3.01417 -2.03458 0
M  V30 2 C 2.07318 -1.91952 -1.10606 0
M  V30 3 N 0.950038 -1.35764 -0.620178 0
M  V30 4 C 1.04228 -0.339464 0.242938 0
M  V30 5 C 2.30293 0.0948364 0.60114 0
M  V30 6 N 2.10215 1.11109 1.46503 0
M  V30 7 C 0.797809 1.29629 1.6328 0
M  V30 8 N 0.123388 0.388977 0.868487 0
M  V30 9 C -1.29927 0.320044 0.821604 0 CFG=2
M  V30 10 O -1.80598 -0.868545 0.359334 0
M  V30 11 C -3.17327 -0.629462 0.307503 0 CFG=2
M  V30 12 C -3.87968 -1.5345 -0.67668 0
M  V30 13 O -5.24542 -1.17847 -0.619111 0
M  V30 14 C -3.3535 0.789961 -0.16081 0 CFG=1
M  V30 15 O -4.05908 1.47555 0.82055 0
M  V30 16 C -1.91935 1.31535 -0.143957 0 CFG=1
M  V30 17 O -1.83618 2.61046 0.307647 0
M  V30 18 C 3.46442 -0.467851 0.11426 0
M  V30 19 N 3.31192 -1.49347 -0.754682 0
M  V30 20 S 5.00854 0.14114 0.618368 0
M  V30 21 N 5.57309 1.40463 -0.416265 0
M  V30 22 O 4.82767 0.757762 1.99454 0
M  V30 23 O 6.01875 -0.951354 0.764947 0
M  V30 24 H 2.17962 -4.00236 -1.7264 0
M  V30 25 H 1.87437 -2.76991 -3.03767 0
M  V30 26 H 0.368893 2.05133 2.27693 0
M  V30 27 H -1.73743 0.537651 1.81466 0
M  V30 28 H -3.57897 -0.79705 1.32306 0
M  V30 29 H -3.56453 -1.30952 -1.71446 0
M  V30 30 H -3.8117 -2.59378 -0.427382 0
M  V30 31 H -5.40895 -0.384118 -1.15748 0
M  V30 32 H -3.802 0.872476 -1.16346 0
M  V30 33 H -3.52984 2.12258 1.31804 0
M  V30 34 H -1.48166 1.19804 -1.17129 0
M  V30 35 H -2.05555 3.20742 -0.45269 0
M  V30 36 H 6.52268 1.68317 -0.0333367 0
M  V30 37 H 4.95848 2.23242 -0.235331 0
M  V30 END ATOM
M  V30 BEGIN BOND
M  V30 1 1 1 2
M  V30 2 2 2 3
M  V30 3 1 3 4
M  V30 4 2 4 5
M  V30 5 1 5 6
M  V30 6 2 6 7
M  V30 7 1 7 8
M  V30 8 1 8 9
M  V30 9 1 9 10
M  V30 10 1 10 11
M  V30 11 1 11 12
M  V30 12 1 12 13
M  V30 13 1 11 14
M  V30 14 1 14 15
M  V30 15 1 14 16
M  V30 16 1 16 17
M  V30 17 1 5 18
M  V30 18 2 18 19
M  V30 19 1 18 20
M  V30 20 1 20 21
M  V30 21 2 20 22
M  V30 22 2 20 23
M  V30 23 1 19 2
M  V30 24 1 8 4
M  V30 25 1 16 9
M  V30 26 1 1 24
M  V30 27 1 1 25
M  V30 28 1 7 26
M  V30 29 1 9 27 CFG=1
M  V30 30 1 11 28 CFG=1
M  V30 31 1 12 29
M  V30 32 1 12 30
M  V30 33 1 13 31
M  V30 34 1 14 32 CFG=3
M  V30 35 1 15 33
M  V30 36 1 16 34 CFG=3
M  V30 37 1 17 35
M  V30 38 1 21 36
M  V30 39 1 21 37
M  V30 END BOND
M  V30 END CTAB
M  END
