
     RDKit          3D

  0  0  0  0  0  0  0  0  0  0999 V3000
M  V30 BEGIN CTAB
M  V30 COUNTS 42 44 0 0 0
M  V30 BEGIN ATOM
M  V30 1 C -2.87667 -3.91291 -0.747826 0
M  V30 2 O -1.95707 -2.84672 -0.756399 0
M  V30 3 C -2.60723 -1.7181 -1.21253 0
M  V30 4 C -1.68415 -0.532191 -1.2489 0
M  V30 5 N -1.12243 -0.173012 0.0265341 0
M  V30 6 C 0.07007 -0.738607 0.468496 0
M  V30 7 N 0.339994 -0.199826 1.64438 0
M  V30 8 N -0.585288 0.654168 1.97146 0
M  V30 9 C -1.51463 0.679024 0.956797 0
M  V30 10 C -2.65658 1.56863 1.02228 0
M  V30 11 C -3.73042 1.58223 0.189944 0
M  V30 12 C -4.75288 2.51185 0.322196 0
M  V30 13 N -4.70603 3.42386 1.28051 0
M  V30 14 C -3.66391 3.43957 2.11871 0
M  V30 15 C -2.64061 2.54334 2.02033 0
M  V30 16 S 1.02201 -1.93829 -0.388296 0
M  V30 17 C 2.25589 -1.2679 -1.49315 0
M  V30 18 C 3.35307 -0.538016 -0.813481 0
M  V30 19 N 3.31297 0.780526 -0.554023 0
M  V30 20 C 4.31451 1.45077 0.0666227 0
M  V30 21 N 4.25481 2.83584 0.330176 0
M  V30 22 N 5.40024 0.752756 0.438205 0
M  V30 23 C 5.48249 -0.554328 0.201293 0
M  V30 24 N 4.45774 -1.20155 -0.425478 0
M  V30 25 N 6.64474 -1.26292 0.606967 0
M  V30 26 H -3.21845 -4.02977 -1.80658 0
M  V30 27 H -2.3302 -4.80083 -0.37743 0
M  V30 28 H -3.71221 -3.61127 -0.0869476 0
M  V30 29 H -3.033 -1.87234 -2.22037 0
M  V30 30 H -3.49006 -1.49234 -0.555712 0
M  V30 31 H -2.1224 0.321974 -1.76332 0
M  V30 32 H -0.834715 -0.842813 -1.95325 0
M  V30 33 H -3.84675 0.874094 -0.585816 0
M  V30 34 H -5.60532 2.51612 -0.346936 0
M  V30 35 H -3.60785 4.18354 2.91417 0
M  V30 36 H -1.79616 2.58333 2.72531 0
M  V30 37 H 2.7268 -2.14223 -2.02636 0
M  V30 38 H 1.81299 -0.645266 -2.31701 0
M  V30 39 H 4.7687 3.49804 -0.269223 0
M  V30 40 H 3.69668 3.1838 1.1226 0
M  V30 41 H 6.59312 -2.22653 0.99901 0
M  V30 42 H 7.58821 -0.835684 0.523041 0
M  V30 END ATOM
M  V30 BEGIN BOND
M  V30 1 1 1 2
M  V30 2 1 2 3
M  V30 3 1 3 4
M  V30 4 1 4 5
M  V30 5 1 5 6
M  V30 6 2 6 7
M  V30 7 1 7 8
M  V30 8 2 8 9
M  V30 9 1 9 10
M  V30 10 2 10 11
M  V30 11 1 11 12
M  V30 12 2 12 13
M  V30 13 1 13 14
M  V30 14 2 14 15
M  V30 15 1 6 16
M  V30 16 1 16 17
M  V30 17 1 17 18
M  V30 18 2 18 19
M  V30 19 1 19 20
M  V30 20 1 20 21
M  V30 21 2 20 22
M  V30 22 1 22 23
M  V30 23 2 23 24
M  V30 24 1 23 25
M  V30 25 1 9 5
M  V30 26 1 15 10
M  V30 27 1 24 18
M  V30 28 1 1 26
M  V30 29 1 1 27
M  V30 30 1 1 28
M  V30 31 1 3 29
M  V30 32 1 3 30
M  V30 33 1 4 31
M  V30 34 1 4 32
M  V30 35 1 11 33
M  V30 36 1 12 34
M  V30 37 1 14 35
M  V30 38 1 15 36
M  V30 39 1 17 37
M  V30 40 1 17 38
M  V30 41 1 21 39
M  V30 42 1 21 40
M  V30 43 1 25 41
M  V30 44 1 25 42
M  V30 END BOND
M  V30 END CTAB
M  END
