
     RDKit          3D

  0  0  0  0  0  0  0  0  0  0999 V3000
M  V30 BEGIN CTAB
M  V30 COUNTS 28 28 0 0 0
M  V30 BEGIN ATOM
M  V30 1 C 3.03775 1.34477 -1.27107 0
M  V30 2 C 1.88745 0.67847 -0.609673 0
M  V30 3 N 0.604879 0.946663 -0.91199 0
M  V30 4 C -0.148888 0.157643 -0.112685 0
M  V30 5 N 0.647803 -0.571067 0.657215 0
M  V30 6 C 1.9434 -0.286856 0.388797 0
M  V30 7 N 3.12621 -0.839992 0.957834 0
M  V30 8 N 0.291772 -1.49741 1.63056 0
M  V30 9 C -1.63294 0.136306 -0.165879 0
M  V30 10 C -2.17965 1.18033 -1.09993 0
M  V30 11 C -2.08429 -1.21978 -0.747158 0
M  V30 12 C -2.20179 0.34608 1.19776 0
M  V30 13 H 2.78077 2.40497 -1.50604 0
M  V30 14 H 3.23038 0.788388 -2.20688 0
M  V30 15 H 3.87619 1.31045 -0.548704 0
M  V30 16 H 3.60767 -0.441242 1.79049 0
M  V30 17 H 3.575 -1.72051 0.552439 0
M  V30 18 H 0.0847459 -1.14777 2.61659 0
M  V30 19 H 0.209999 -2.51863 1.49234 0
M  V30 20 H -2.17916 2.1808 -0.615209 0
M  V30 21 H -1.56867 1.27183 -2.02764 0
M  V30 22 H -3.21064 0.861378 -1.38161 0
M  V30 23 H -3.08559 -1.52326 -0.370455 0
M  V30 24 H -1.28072 -1.97435 -0.544041 0
M  V30 25 H -2.1604 -1.1176 -1.85917 0
M  V30 26 H -1.71994 1.2326 1.65927 0
M  V30 27 H -3.30825 0.571303 1.1653 0
M  V30 28 H -2.14311 -0.553504 1.86952 0
M  V30 END ATOM
M  V30 BEGIN BOND
M  V30 1 1 1 2
M  V30 2 1 2 3
M  V30 3 2 3 4
M  V30 4 1 4 5
M  V30 5 1 5 6
M  V30 6 1 6 7
M  V30 7 1 5 8
M  V30 8 1 4 9
M  V30 9 1 9 10
M  V30 10 1 9 11
M  V30 11 1 9 12
M  V30 12 2 6 2
M  V30 13 1 1 13
M  V30 14 1 1 14
M  V30 15 1 1 15
M  V30 16 1 7 16
M  V30 17 1 7 17
M  V30 18 1 8 18
M  V30 19 1 8 19
M  V30 20 1 10 20
M  V30 21 1 10 21
M  V30 22 1 10 22
M  V30 23 1 11 23
M  V30 24 1 11 24
M  V30 25 1 11 25
M  V30 26 1 12 26
M  V30 27 1 12 27
M  V30 28 1 12 28
M  V30 END BOND
M  V30 END CTAB
M  END
