
     RDKit          3D

  0  0  0  0  0  0  0  0  0  0999 V3000
M  V30 BEGIN CTAB
M  V30 COUNTS 51 53 0 0 0
M  V30 BEGIN ATOM
M  V30 1 N 10.7599 -0.858751 0.0260582 0
M  V30 2 C 9.32265 -0.888758 -0.0702431 0
M  V30 3 N 8.56366 -0.811351 1.03758 0
M  V30 4 C 7.23199 -0.839237 1.00634 0
M  V30 5 C 6.60652 -0.954031 -0.241949 0
M  V30 6 N 5.26405 -0.986193 -0.335514 0
M  V30 7 C 4.48467 -0.910766 0.752376 0
M  V30 8 C 2.97802 -0.929916 0.687638 0
M  V30 9 S 2.47954 0.815675 0.522099 0
M  V30 10 C 0.699531 0.902661 0.459306 0
M  V30 11 C -0.0314699 1.03557 1.63836 0
M  V30 12 C -1.40142 1.10946 1.65908 0
M  V30 13 C -2.08749 1.04922 0.449721 0
M  V30 14 C -1.40232 0.918981 -0.730745 0
M  V30 15 C -0.0121637 0.846283 -0.717701 0
M  V30 16 C -3.53461 1.13189 0.454415 0
M  V30 17 O -4.09225 1.21062 1.59235 0
M  V30 18 N -4.29222 1.12576 -0.737533 0
M  V30 19 C -5.75157 1.20893 -0.788281 0
M  V30 20 C -6.29227 -0.0533138 -0.231062 0
M  V30 21 C -7.78476 -0.179446 -0.190405 0
M  V30 22 C -8.08279 -1.54703 0.374373 0
M  V30 23 O -8.9305 -1.64083 1.47693 0
M  V30 24 O -7.56863 -2.55914 -0.148717 0
M  V30 25 C -6.25121 2.44536 -0.180303 0
M  V30 26 O -7.59634 2.72375 -0.134182 0
M  V30 27 O -5.46693 3.28354 0.313317 0
M  V30 28 C 5.11674 -0.797367 1.98986 0
M  V30 29 N 6.45367 -0.763731 2.09319 0
M  V30 30 C 7.36802 -1.03324 -1.38481 0
M  V30 31 N 6.78812 -1.15726 -2.67489 0
M  V30 32 N 8.70978 -0.997084 -1.25461 0
M  V30 33 H 11.2911 -0.65938 -0.86072 0
M  V30 34 H 11.2547 -1.02688 0.914652 0
M  V30 35 H 2.62982 -1.35363 1.64911 0
M  V30 36 H 2.6542 -1.53754 -0.174873 0
M  V30 37 H 0.549206 1.0779 2.54516 0
M  V30 38 H -1.93118 1.21272 2.59003 0
M  V30 39 H -1.84871 0.865072 -1.70336 0
M  V30 40 H 0.536436 0.742035 -1.65862 0
M  V30 41 H -3.7791 1.05953 -1.6443 0
M  V30 42 H -6.02625 1.3101 -1.89727 0
M  V30 43 H -5.90607 -0.172688 0.827607 0
M  V30 44 H -5.90263 -0.906591 -0.844835 0
M  V30 45 H -8.30512 0.542852 0.446285 0
M  V30 46 H -8.15375 -0.171417 -1.24884 0
M  V30 47 H -8.67661 -2.34954 2.17913 0
M  V30 48 H -8.2171 2.54662 -0.906465 0
M  V30 49 H 4.44046 -0.740289 2.85552 0
M  V30 50 H 6.66475 -0.283053 -3.22813 0
M  V30 51 H 6.47802 -2.05608 -3.10719 0
M  V30 END ATOM
M  V30 BEGIN BOND
M  V30 1 1 1 2
M  V30 2 2 2 3
M  V30 3 1 3 4
M  V30 4 2 4 5
M  V30 5 1 5 6
M  V30 6 2 6 7
M  V30 7 1 7 8
M  V30 8 1 8 9
M  V30 9 1 9 10
M  V30 10 2 10 11
M  V30 11 1 11 12
M  V30 12 2 12 13
M  V30 13 1 13 14
M  V30 14 2 14 15
M  V30 15 1 13 16
M  V30 16 2 16 17
M  V30 17 1 16 18
M  V30 18 1 18 19
M  V30 19 1 19 20
M  V30 20 1 20 21
M  V30 21 1 21 22
M  V30 22 1 22 23
M  V30 23 2 22 24
M  V30 24 1 19 25
M  V30 25 1 25 26
M  V30 26 2 25 27
M  V30 27 1 7 28
M  V30 28 2 28 29
M  V30 29 1 5 30
M  V30 30 1 30 31
M  V30 31 2 30 32
M  V30 32 1 32 2
M  V30 33 1 29 4
M  V30 34 1 15 10
M  V30 35 1 1 33
M  V30 36 1 1 34
M  V30 37 1 8 35
M  V30 38 1 8 36
M  V30 39 1 11 37
M  V30 40 1 12 38
M  V30 41 1 14 39
M  V30 42 1 15 40
M  V30 43 1 18 41
M  V30 44 1 19 42
M  V30 45 1 20 43
M  V30 46 1 20 44
M  V30 47 1 21 45
M  V30 48 1 21 46
M  V30 49 1 23 47
M  V30 50 1 26 48
M  V30 51 1 28 49
M  V30 52 1 31 50
M  V30 53 1 31 51
M  V30 END BOND
M  V30 END CTAB
M  END
