
     RDKit          3D

  0  0  0  0  0  0  0  0  0  0999 V3000
M  V30 BEGIN CTAB
M  V30 COUNTS 26 26 0 0 0
M  V30 BEGIN ATOM
M  V30 1 N -4.0381 0.608868 -0.25185 0
M  V30 2 C -2.9015 -0.208436 0.114375 0
M  V30 3 C -1.67696 0.383819 -0.499617 0
M  V30 4 C -0.44705 -0.356917 -0.201673 0
M  V30 5 C -0.502998 -1.56338 0.465175 0
M  V30 6 C 0.675883 -2.25262 0.739571 0
M  V30 7 C 1.8903 -1.75378 0.358995 0
M  V30 8 C 1.95654 -0.545923 -0.30952 0
M  V30 9 C 0.783088 0.127269 -0.575587 0
M  V30 10 S 3.56125 0.0684797 -0.787873 0
M  V30 11 C 4.2029 1.08872 0.564439 0
M  V30 12 N -1.52975 1.79578 -0.193621 0
M  V30 13 H -4.28598 0.455583 -1.26447 0
M  V30 14 H -3.76388 1.59899 -0.0721975 0
M  V30 15 H -3.06694 -1.20584 -0.366252 0
M  V30 16 H -2.85178 -0.34073 1.20041 0
M  V30 17 H -1.82907 0.34037 -1.61756 0
M  V30 18 H -1.46014 -1.97435 0.774906 0
M  V30 19 H 0.632016 -3.21119 1.26938 0
M  V30 20 H 2.82136 -2.29244 0.572583 0
M  V30 21 H 0.850561 1.07014 -1.09884 0
M  V30 22 H 5.32612 1.06036 0.533571 0
M  V30 23 H 3.81346 0.785722 1.54743 0
M  V30 24 H 3.88639 2.14702 0.363533 0
M  V30 25 H -0.847602 2.18469 -0.882149 0
M  V30 26 H -1.1981 1.98978 0.751764 0
M  V30 END ATOM
M  V30 BEGIN BOND
M  V30 1 1 1 2
M  V30 2 1 2 3
M  V30 3 1 3 4
M  V30 4 2 4 5
M  V30 5 1 5 6
M  V30 6 2 6 7
M  V30 7 1 7 8
M  V30 8 2 8 9
M  V30 9 1 8 10
M  V30 10 1 10 11
M  V30 11 1 3 12
M  V30 12 1 9 4
M  V30 13 1 1 13
M  V30 14 1 1 14
M  V30 15 1 2 15
M  V30 16 1 2 16
M  V30 17 1 3 17
M  V30 18 1 5 18
M  V30 19 1 6 19
M  V30 20 1 7 20
M  V30 21 1 9 21
M  V30 22 1 11 22
M  V30 23 1 11 23
M  V30 24 1 11 24
M  V30 25 1 12 25
M  V30 26 1 12 26
M  V30 END BOND
M  V30 END CTAB
M  END
