
     RDKit          3D

  0  0  0  0  0  0  0  0  0  0999 V3000
M  V30 BEGIN CTAB
M  V30 COUNTS 32 34 0 0 0
M  V30 BEGIN ATOM
M  V30 1 N -3.20699 -0.921986 1.28528 0
M  V30 2 C -1.96344 -0.379664 0.959419 0 CFG=2
M  V30 3 C -1.91635 1.12863 1.06653 0
M  V30 4 C -1.63834 1.59005 -0.324768 0 CFG=1
M  V30 5 C -0.763492 0.470954 -0.870625 0 CFG=2
M  V30 6 C -1.52888 -0.735959 -0.437646 0 CFG=2
M  V30 7 O -2.62223 -0.877507 -1.30665 0
M  V30 8 N 0.561054 0.559517 -0.355387 0
M  V30 9 C 1.10562 1.62713 0.253912 0
M  V30 10 N 2.39134 1.34592 0.612579 0
M  V30 11 C 2.67168 0.104803 0.236067 0
M  V30 12 C 1.52387 -0.377994 -0.366968 0
M  V30 13 N 1.57474 -1.63661 -0.833575 0
M  V30 14 C 2.66439 -2.41717 -0.738584 0
M  V30 15 N 3.76812 -1.91843 -0.145412 0
M  V30 16 C 3.82341 -0.675903 0.353555 0
M  V30 17 N 4.97511 -0.146359 0.976064 0
M  V30 18 O -2.8552 1.58334 -1.04473 0
M  V30 19 H -3.37879 -1.83009 0.973469 0
M  V30 20 H -3.95335 -0.32277 1.4221 0
M  V30 21 H -1.21336 -0.798076 1.66963 0
M  V30 22 H -2.89375 1.5422 1.42376 0
M  V30 23 H -1.10856 1.47319 1.75184 0
M  V30 24 H -1.19513 2.57607 -0.418445 0
M  V30 25 H -0.82651 0.547653 -1.97709 0
M  V30 26 H -0.987666 -1.67108 -0.442734 0
M  V30 27 H -3.47155 -0.86824 -0.832676 0
M  V30 28 H 0.645268 2.59602 0.460101 0
M  V30 29 H 2.63524 -3.42776 -1.13867 0
M  V30 30 H 4.91818 0.71585 1.54023 0
M  V30 31 H 5.88544 -0.640962 0.856587 0
M  V30 32 H -3.61988 1.78524 -0.46558 0
M  V30 END ATOM
M  V30 BEGIN BOND
M  V30 1 1 1 2
M  V30 2 1 2 3
M  V30 3 1 3 4
M  V30 4 1 4 5
M  V30 5 1 5 6
M  V30 6 1 6 7
M  V30 7 1 5 8
M  V30 8 1 8 9
M  V30 9 2 9 10
M  V30 10 1 10 11
M  V30 11 2 11 12
M  V30 12 1 12 13
M  V30 13 2 13 14
M  V30 14 1 14 15
M  V30 15 2 15 16
M  V30 16 1 16 17
M  V30 17 1 4 18
M  V30 18 1 6 2
M  V30 19 1 12 8
M  V30 20 1 16 11
M  V30 21 1 1 19
M  V30 22 1 1 20
M  V30 23 1 2 21 CFG=1
M  V30 24 1 3 22
M  V30 25 1 3 23
M  V30 26 1 4 24 CFG=1
M  V30 27 1 5 25 CFG=3
M  V30 28 1 6 26 CFG=1
M  V30 29 1 7 27
M  V30 30 1 9 28
M  V30 31 1 14 29
M  V30 32 1 17 30
M  V30 33 1 17 31
M  V30 34 1 18 32
M  V30 END BOND
M  V30 END CTAB
M  END
