
     RDKit          3D

  0  0  0  0  0  0  0  0  0  0999 V3000
M  V30 BEGIN CTAB
M  V30 COUNTS 28 29 0 0 0
M  V30 BEGIN ATOM
M  V30 1 N 2.49742 0.612567 -1.50038 0
M  V30 2 N 2.41398 -0.119849 -0.318198 0
M  V30 3 C 1.30063 -0.761913 0.0666403 0
M  V30 4 C -0.00713703 -0.829945 -0.63767 0
M  V30 5 C -0.916933 0.294334 -0.215634 0
M  V30 6 C -2.21895 0.11932 -1.0004 0
M  V30 7 O -3.08079 -0.763836 -0.354566 0
M  V30 8 C -3.58472 -0.255109 0.827121 0
M  V30 9 C -2.61455 0.795107 1.34464 0
M  V30 10 N -1.26772 0.233086 1.18034 0
M  V30 11 N 1.60411 -1.34573 1.24067 0
M  V30 12 N 2.85553 -1.06875 1.55761 0
M  V30 13 C 3.40091 -0.301846 0.606641 0
M  V30 14 N 4.71315 0.218887 0.550847 0
M  V30 15 H 2.72712 0.174372 -2.39243 0
M  V30 16 H 2.31823 1.63353 -1.45804 0
M  V30 17 H 0.113019 -0.750913 -1.74147 0
M  V30 18 H -0.525775 -1.78288 -0.424195 0
M  V30 19 H -0.439634 1.24679 -0.504242 0
M  V30 20 H -1.9647 -0.324433 -1.97725 0
M  V30 21 H -2.7257 1.06763 -1.17132 0
M  V30 22 H -4.61365 0.113714 0.749317 0
M  V30 23 H -3.57951 -1.07237 1.59116 0
M  V30 24 H -2.81632 0.975165 2.41732 0
M  V30 25 H -2.72068 1.7595 0.81679 0
M  V30 26 H -1.3252 -0.75382 1.50494 0
M  V30 27 H 5.3949 0.034307 -0.205629 0
M  V30 28 H 5.06297 0.853085 1.32781 0
M  V30 END ATOM
M  V30 BEGIN BOND
M  V30 1 1 1 2
M  V30 2 1 2 3
M  V30 3 1 3 4
M  V30 4 1 4 5
M  V30 5 1 5 6
M  V30 6 1 6 7
M  V30 7 1 7 8
M  V30 8 1 8 9
M  V30 9 1 9 10
M  V30 10 2 3 11
M  V30 11 1 11 12
M  V30 12 2 12 13
M  V30 13 1 13 14
M  V30 14 1 13 2
M  V30 15 1 10 5
M  V30 16 1 1 15
M  V30 17 1 1 16
M  V30 18 1 4 17
M  V30 19 1 4 18
M  V30 20 1 5 19
M  V30 21 1 6 20
M  V30 22 1 6 21
M  V30 23 1 8 22
M  V30 24 1 8 23
M  V30 25 1 9 24
M  V30 26 1 9 25
M  V30 27 1 10 26
M  V30 28 1 14 27
M  V30 29 1 14 28
M  V30 END BOND
M  V30 END CTAB
M  END
