
     RDKit          3D

  0  0  0  0  0  0  0  0  0  0999 V3000
M  V30 BEGIN CTAB
M  V30 COUNTS 44 48 0 0 0
M  V30 BEGIN ATOM
M  V30 1 N -4.65959 4.09466 0.36556 0
M  V30 2 C -3.62258 3.61652 0.407716 0
M  V30 3 C -2.31943 3.02855 0.439359 0
M  V30 4 C -1.30811 3.67823 1.11823 0
M  V30 5 N -1.5438 4.91395 1.78115 0
M  V30 6 N -0.113644 3.07857 1.1108 0
M  V30 7 C 0.15076 1.9154 0.499403 0
M  V30 8 C -0.837847 1.21961 -0.198895 0
M  V30 9 C -2.07911 1.81076 -0.211109 0
M  V30 10 N -3.1846 1.20709 -0.90307 0
M  V30 11 C -0.585254 -0.0742003 -0.875363 0
M  V30 12 C -1.50215 -1.16178 -0.469029 0
M  V30 13 C -2.36929 -1.78444 -1.33748 0
M  V30 14 C -3.22083 -2.80052 -0.941182 0
M  V30 15 C -3.21475 -3.21621 0.36167 0
M  V30 16 C -2.35546 -2.60859 1.25127 0
M  V30 17 C -1.50902 -1.59555 0.847972 0
M  V30 18 F -4.05219 -4.21951 0.763887 0
M  V30 19 C 0.840608 -0.517873 -0.747326 0
M  V30 20 C 1.79886 0.182834 -0.0549817 0
M  V30 21 O 1.45475 1.37484 0.554558 0
M  V30 22 C 3.10692 -0.260989 0.0558625 0
M  V30 23 C 4.06373 0.447429 0.752962 0
M  V30 24 C 5.36339 0.006039 0.862852 0
M  V30 25 C 5.67946 -1.1861 0.242704 0
M  V30 26 C 4.72908 -1.88881 -0.449152 0
M  V30 27 C 3.43876 -1.45128 -0.558655 0
M  V30 28 C 2.49759 -2.19117 -1.27003 0
M  V30 29 C 1.23229 -1.69948 -1.33977 0
M  V30 30 H -0.970437 5.75618 1.60619 0
M  V30 31 H -2.32027 4.96249 2.46234 0
M  V30 32 H -3.98753 0.784646 -0.384991 0
M  V30 33 H -3.15509 1.20636 -1.95808 0
M  V30 34 H -0.745773 0.0600402 -1.98754 0
M  V30 35 H -2.4002 -1.4756 -2.39049 0
M  V30 36 H -3.89634 -3.27303 -1.6565 0
M  V30 37 H -2.36237 -2.95113 2.28652 0
M  V30 38 H -0.849547 -1.15057 1.59661 0
M  V30 39 H 3.7898 1.3787 1.22965 0
M  V30 40 H 6.11367 0.574176 1.41702 0
M  V30 41 H 6.68841 -1.55883 0.310077 0
M  V30 42 H 4.96787 -2.83187 -0.942961 0
M  V30 43 H 2.76779 -3.12276 -1.74819 0
M  V30 44 H 0.481478 -2.27679 -1.89955 0
M  V30 END ATOM
M  V30 BEGIN BOND
M  V30 1 3 1 2
M  V30 2 1 2 3
M  V30 3 2 3 4
M  V30 4 1 4 5
M  V30 5 1 4 6
M  V30 6 2 6 7
M  V30 7 1 7 8
M  V30 8 2 8 9
M  V30 9 1 9 10
M  V30 10 1 8 11
M  V30 11 1 11 12
M  V30 12 2 12 13
M  V30 13 1 13 14
M  V30 14 2 14 15
M  V30 15 1 15 16
M  V30 16 2 16 17
M  V30 17 1 15 18
M  V30 18 1 11 19
M  V30 19 2 19 20
M  V30 20 1 20 21
M  V30 21 1 20 22
M  V30 22 2 22 23
M  V30 23 1 23 24
M  V30 24 2 24 25
M  V30 25 1 25 26
M  V30 26 2 26 27
M  V30 27 1 27 28
M  V30 28 2 28 29
M  V30 29 1 9 3
M  V30 30 1 17 12
M  V30 31 1 29 19
M  V30 32 1 21 7
M  V30 33 1 27 22
M  V30 34 1 5 30
M  V30 35 1 5 31
M  V30 36 1 10 32
M  V30 37 1 10 33
M  V30 38 1 11 34
M  V30 39 1 13 35
M  V30 40 1 14 36
M  V30 41 1 16 37
M  V30 42 1 17 38
M  V30 43 1 23 39
M  V30 44 1 24 40
M  V30 45 1 25 41
M  V30 46 1 26 42
M  V30 47 1 28 43
M  V30 48 1 29 44
M  V30 END BOND
M  V30 END CTAB
M  END
