
     RDKit          3D

  0  0  0  0  0  0  0  0  0  0999 V3000
M  V30 BEGIN CTAB
M  V30 COUNTS 34 36 0 0 0
M  V30 BEGIN ATOM
M  V30 1 N -6.56422 -0.600051 0.464383 0
M  V30 2 C -5.40498 0.277343 0.35737 0
M  V30 3 N -5.59177 1.58798 0.139916 0
M  V30 4 S -4.02296 2.18367 0.0720654 0
M  V30 5 C -3.17934 0.720579 0.32833 0
M  V30 6 N -4.1787 -0.142736 0.4501 0
M  V30 7 N -1.7891 0.451456 0.382809 0
M  V30 8 C -0.978041 1.01696 1.4174 0
M  V30 9 C 0.0257094 -0.0394311 1.81835 0
M  V30 10 N 0.894998 -0.386566 0.726131 0
M  V30 11 C 0.308691 -0.0817279 -0.556791 0
M  V30 12 C -1.18018 -0.406687 -0.597459 0
M  V30 13 C 2.13638 0.328579 0.938619 0
M  V30 14 C 3.17338 0.0207134 -0.0799303 0
M  V30 15 C 3.30091 0.528923 -1.3425 0
M  V30 16 N 4.29369 0.112177 -2.06444 0
M  V30 17 C 5.14294 -0.776699 -1.57173 0
M  V30 18 S 4.50935 -1.04344 -0.00309281 0
M  V30 19 N 6.30349 -1.36217 -2.20558 0
M  V30 20 H -6.88619 -0.866914 1.40095 0
M  V30 21 H -7.0185 -0.921757 -0.40568 0
M  V30 22 H -1.55927 1.35263 2.2966 0
M  V30 23 H -0.46972 1.91853 0.98749 0
M  V30 24 H -0.568726 -0.947109 2.07279 0
M  V30 25 H 0.573767 0.232822 2.73908 0
M  V30 26 H 0.80489 -0.611196 -1.37015 0
M  V30 27 H 0.358414 1.02117 -0.713696 0
M  V30 28 H -1.54942 -0.163323 -1.61843 0
M  V30 29 H -1.33838 -1.466 -0.322981 0
M  V30 30 H 1.92519 1.43994 0.917209 0
M  V30 31 H 2.48944 0.0605523 1.95252 0
M  V30 32 H 2.56929 1.27458 -1.72803 0
M  V30 33 H 6.43769 -2.37608 -2.27842 0
M  V30 34 H 7.03127 -0.734519 -2.6032 0
M  V30 END ATOM
M  V30 BEGIN BOND
M  V30 1 1 1 2
M  V30 2 2 2 3
M  V30 3 1 3 4
M  V30 4 1 4 5
M  V30 5 2 5 6
M  V30 6 1 5 7
M  V30 7 1 7 8
M  V30 8 1 8 9
M  V30 9 1 9 10
M  V30 10 1 10 11
M  V30 11 1 11 12
M  V30 12 1 10 13
M  V30 13 1 13 14
M  V30 14 2 14 15
M  V30 15 1 15 16
M  V30 16 2 16 17
M  V30 17 1 17 18
M  V30 18 1 17 19
M  V30 19 1 6 2
M  V30 20 1 12 7
M  V30 21 1 18 14
M  V30 22 1 1 20
M  V30 23 1 1 21
M  V30 24 1 8 22
M  V30 25 1 8 23
M  V30 26 1 9 24
M  V30 27 1 9 25
M  V30 28 1 11 26
M  V30 29 1 11 27
M  V30 30 1 12 28
M  V30 31 1 12 29
M  V30 32 1 13 30
M  V30 33 1 13 31
M  V30 34 1 15 32
M  V30 35 1 19 33
M  V30 36 1 19 34
M  V30 END BOND
M  V30 END CTAB
M  END
