
     RDKit          3D

  0  0  0  0  0  0  0  0  0  0999 V3000
M  V30 BEGIN CTAB
M  V30 COUNTS 51 55 0 0 0
M  V30 BEGIN ATOM
M  V30 1 N 2.92991 -2.39573 1.15397 0
M  V30 2 C 2.0844 -1.30263 0.817086 0
M  V30 3 N 0.745671 -1.38331 0.931616 0
M  V30 4 C -0.0744553 -0.366033 0.621748 0
M  V30 5 N 0.49921 0.753514 0.186198 0
M  V30 6 C 1.82812 0.927686 0.0390963 0
M  V30 7 N 2.37301 2.15891 -0.431704 0
M  V30 8 C 2.64949 -0.139907 0.366701 0
M  V30 9 N 4.05583 -0.0183431 0.232945 0
M  V30 10 N 4.57793 1.13717 0.226955 0
M  V30 11 C 5.98286 1.33626 0.0965835 0
M  V30 12 C 6.48017 2.58575 -0.205371 0
M  V30 13 C 7.8525 2.7633 -0.329075 0
M  V30 14 C 8.69458 1.68953 -0.148416 0
M  V30 15 C 8.18799 0.444607 0.153067 0
M  V30 16 C 6.8201 0.264089 0.27713 0
M  V30 17 C -1.54234 -0.48226 0.758731 0
M  V30 18 N -2.40541 0.496981 0.46363 0
M  V30 19 N -3.65858 0.134766 0.676116 0
M  V30 20 C -4.87357 0.940563 0.467032 0
M  V30 21 C -5.39185 0.760533 -0.898857 0
M  V30 22 C -4.78931 1.37346 -1.97363 0
M  V30 23 F -3.70788 2.14779 -1.73496 0
M  V30 24 C -5.24571 1.22606 -3.26387 0
M  V30 25 C -6.36293 0.427146 -3.51306 0
M  V30 26 C -6.96795 -0.187801 -2.43694 0
M  V30 27 C -6.51003 -0.0403575 -1.13926 0
M  V30 28 C -3.60038 -1.13112 1.12705 0
M  V30 29 C -2.28369 -1.53443 1.18546 0
M  V30 30 C -1.9717 -2.80213 1.62047 0
M  V30 31 C -2.96894 -3.67538 1.9997 0
M  V30 32 C -4.26454 -3.22251 1.92214 0
M  V30 33 N -4.58744 -1.98708 1.49952 0
M  V30 34 H 3.88917 -2.19212 1.46167 0
M  V30 35 H 2.64054 -3.39439 1.10996 0
M  V30 36 H 2.79532 2.13899 -1.38173 0
M  V30 37 H 2.31645 2.97488 0.183426 0
M  V30 38 H 5.81688 3.43883 -0.349398 0
M  V30 39 H 8.23583 3.75489 -0.568017 0
M  V30 40 H 9.76389 1.81398 -0.241684 0
M  V30 41 H 8.87249 -0.384404 0.29043 0
M  V30 42 H 6.40321 -0.71155 0.514598 0
M  V30 43 H -4.61126 2.02308 0.570754 0
M  V30 44 H -5.58353 0.698899 1.25589 0
M  V30 45 H -4.78773 1.69709 -4.11441 0
M  V30 46 H -6.71564 0.312796 -4.50862 0
M  V30 47 H -7.83565 -0.813459 -2.5965 0
M  V30 48 H -7.00245 -0.533534 -0.311102 0
M  V30 49 H -0.964631 -3.11988 1.66805 0
M  V30 50 H -2.72503 -4.68577 2.34669 0
M  V30 51 H -5.06296 -3.91743 2.22435 0
M  V30 END ATOM
M  V30 BEGIN BOND
M  V30 1 1 1 2
M  V30 2 2 2 3
M  V30 3 1 3 4
M  V30 4 2 4 5
M  V30 5 1 5 6
M  V30 6 1 6 7
M  V30 7 2 6 8
M  V30 8 1 8 9
M  V30 9 2 9 10
M  V30 10 1 10 11
M  V30 11 2 11 12
M  V30 12 1 12 13
M  V30 13 2 13 14
M  V30 14 1 14 15
M  V30 15 2 15 16
M  V30 16 1 4 17
M  V30 17 2 17 18
M  V30 18 1 18 19
M  V30 19 1 19 20
M  V30 20 1 20 21
M  V30 21 2 21 22
M  V30 22 1 22 23
M  V30 23 1 22 24
M  V30 24 2 24 25
M  V30 25 1 25 26
M  V30 26 2 26 27
M  V30 27 1 19 28
M  V30 28 2 28 29
M  V30 29 1 29 30
M  V30 30 2 30 31
M  V30 31 1 31 32
M  V30 32 2 32 33
M  V30 33 1 8 2
M  V30 34 1 16 11
M  V30 35 1 29 17
M  V30 36 1 27 21
M  V30 37 1 33 28
M  V30 38 1 1 34
M  V30 39 1 1 35
M  V30 40 1 7 36
M  V30 41 1 7 37
M  V30 42 1 12 38
M  V30 43 1 13 39
M  V30 44 1 14 40
M  V30 45 1 15 41
M  V30 46 1 16 42
M  V30 47 1 20 43
M  V30 48 1 20 44
M  V30 49 1 24 45
M  V30 50 1 25 46
M  V30 51 1 26 47
M  V30 52 1 27 48
M  V30 53 1 30 49
M  V30 54 1 31 50
M  V30 55 1 32 51
M  V30 END BOND
M  V30 END CTAB
M  END
