
     RDKit          3D

  0  0  0  0  0  0  0  0  0  0999 V3000
M  V30 BEGIN CTAB
M  V30 COUNTS 26 27 0 0 0
M  V30 BEGIN ATOM
M  V30 1 O -0.670622 -0.759094 -1.68964 0
M  V30 2 C -0.391876 0.206624 -0.718724 0
M  V30 3 C -1.63347 0.524636 0.0142129 0
M  V30 4 N -2.65256 1.1772 -0.886807 0
M  V30 5 C -1.98565 0.383239 1.4042 0
M  V30 6 C -2.299 -0.786587 0.50938 0
M  V30 7 C 0.870409 0.0595749 -0.0281835 0
M  V30 8 C 1.22184 0.593864 1.18062 0
M  V30 9 C 2.50439 0.419367 1.72498 0
M  V30 10 C 3.45882 -0.301536 1.05266 0
M  V30 11 N 3.10512 -0.816303 -0.12378 0
M  V30 12 C 1.88579 -0.666533 -0.670072 0
M  V30 13 N 1.70505 -1.28203 -1.93752 0
M  V30 14 H -1.33133 -0.445711 -2.34225 0
M  V30 15 H -0.276018 1.16 -1.43444 0
M  V30 16 H -2.15928 1.60255 -1.69158 0
M  V30 17 H -3.10747 1.95423 -0.353321 0
M  V30 18 H -2.94911 0.919744 1.71193 0
M  V30 19 H -1.34486 0.200817 2.27131 0
M  V30 20 H -3.31809 -1.02572 0.226009 0
M  V30 21 H -1.66575 -1.66534 0.679347 0
M  V30 22 H 0.530196 1.18599 1.71897 0
M  V30 23 H 2.77027 0.84505 2.67991 0
M  V30 24 H 4.46875 -0.444144 1.46372 0
M  V30 25 H 1.27467 -2.22441 -1.96702 0
M  V30 26 H 1.98979 -0.815478 -2.79391 0
M  V30 END ATOM
M  V30 BEGIN BOND
M  V30 1 1 1 2
M  V30 2 1 2 3
M  V30 3 1 3 4
M  V30 4 1 3 5
M  V30 5 1 5 6
M  V30 6 1 2 7
M  V30 7 2 7 8
M  V30 8 1 8 9
M  V30 9 2 9 10
M  V30 10 1 10 11
M  V30 11 2 11 12
M  V30 12 1 12 13
M  V30 13 1 6 3
M  V30 14 1 12 7
M  V30 15 1 1 14
M  V30 16 1 2 15
M  V30 17 1 4 16
M  V30 18 1 4 17
M  V30 19 1 5 18
M  V30 20 1 5 19
M  V30 21 1 6 20
M  V30 22 1 6 21
M  V30 23 1 8 22
M  V30 24 1 9 23
M  V30 25 1 10 24
M  V30 26 1 13 25
M  V30 27 1 13 26
M  V30 END BOND
M  V30 END CTAB
M  END
