
     RDKit          3D

  0  0  0  0  0  0  0  0  0  0999 V3000
M  V30 BEGIN CTAB
M  V30 COUNTS 16 16 0 0 0
M  V30 BEGIN ATOM
M  V30 1 N -2.17389 -1.52516 -0.101275 0
M  V30 2 C -1.14929 -0.564016 -0.0549481 0
M  V30 3 C 0.178612 -0.95794 0.00579456 0
M  V30 4 C 1.21432 -0.0472321 0.0526482 0
M  V30 5 N 2.5564 -0.474319 0.114039 0
M  V30 6 C 0.957946 1.30786 0.0403709 0
M  V30 7 C -0.362219 1.70247 -0.0200162 0
M  V30 8 C -1.4074 0.807503 -0.0673084 0
M  V30 9 Br -3.21636 1.3887 -0.150061 0
M  V30 10 I 2.53024 2.72606 0.111522 0
M  V30 11 H -2.04979 -2.43282 0.384862 0
M  V30 12 H -3.05716 -1.34517 -0.614443 0
M  V30 13 H 0.381546 -2.02834 0.0154995 0
M  V30 14 H 3.30282 -0.171968 -0.551534 0
M  V30 15 H 2.85404 -1.13743 0.864337 0
M  V30 16 H -0.559821 2.7518 -0.0294869 0
M  V30 END ATOM
M  V30 BEGIN BOND
M  V30 1 1 1 2
M  V30 2 2 2 3
M  V30 3 1 3 4
M  V30 4 1 4 5
M  V30 5 2 4 6
M  V30 6 1 6 7
M  V30 7 2 7 8
M  V30 8 1 8 9
M  V30 9 1 6 10
M  V30 10 1 8 2
M  V30 11 1 1 11
M  V30 12 1 1 12
M  V30 13 1 3 13
M  V30 14 1 5 14
M  V30 15 1 5 15
M  V30 16 1 7 16
M  V30 END BOND
M  V30 END CTAB
M  END
