
     RDKit          3D

  0  0  0  0  0  0  0  0  0  0999 V3000
M  V30 BEGIN CTAB
M  V30 COUNTS 88 90 0 0 0
M  V30 BEGIN ATOM
M  V30 1 C 3.15589 -1.97079 1.21184 0
M  V30 2 C 3.88261 -0.76624 0.54439 0 CFG=2
M  V30 3 N 2.94442 -0.210411 -0.425584 0
M  V30 4 C 1.86459 0.569838 -0.0334342 0
M  V30 5 O 1.63117 0.8371 1.14617 0
M  V30 6 C 0.906322 1.12328 -1.10405 0 CFG=2
M  V30 7 C 1.38438 2.51547 -1.46911 0
M  V30 8 C 1.31385 3.51131 -0.39923 0
M  V30 9 C 2.14355 3.83249 0.639719 0
M  V30 10 N 1.54561 4.76636 1.37517 0
M  V30 11 C 0.322 5.09439 0.865487 0
M  V30 12 C 0.169398 4.313 -0.248084 0
M  V30 13 C -1.00653 4.45149 -0.996105 0
M  V30 14 C -1.9763 5.33908 -0.629311 0
M  V30 15 C -1.79604 6.11016 0.495697 0
M  V30 16 C -0.636246 5.99108 1.25343 0
M  V30 17 N -0.376385 0.912386 -0.75369 0
M  V30 18 C -1.7108 0.718137 -0.364532 0
M  V30 19 O -2.34046 1.35347 0.472271 0
M  V30 20 C -2.48797 -0.42014 -1.03705 0 CFG=2
M  V30 21 C -3.06569 -0.121354 -2.31265 0
M  V30 22 C -4.05815 0.859358 -2.69214 0
M  V30 23 C -5.45963 0.869267 -2.32776 0
M  V30 24 C -6.00024 1.00147 -0.974986 0
M  V30 25 N -5.68207 2.19614 -0.250941 0
M  V30 26 N -3.23208 -1.1811 -0.081616 0
M  V30 27 C -2.90076 -2.56009 0.136831 0
M  V30 28 O -1.93067 -3.01696 -0.569892 0
M  V30 29 C -3.52292 -3.48886 1.06231 0 CFG=1
M  V30 30 N -2.49474 -3.86757 2.05393 0
M  V30 31 C -4.8142 -3.14621 1.66757 0
M  V30 32 C -5.97068 -2.95551 0.730516 0
M  V30 33 C -6.33554 -4.18308 -0.010874 0
M  V30 34 O -7.33614 -4.14942 -1.00466 0
M  V30 35 O -5.82261 -5.31762 0.156885 0
M  V30 36 C 5.02344 -1.35437 -0.134239 0
M  V30 37 O 4.76059 -1.96037 -1.25128 0
M  V30 38 N 6.34305 -1.30638 0.327196 0
M  V30 39 C 6.8713 -0.695009 1.49927 0
M  V30 40 C 8.07028 0.0753128 0.907231 0
M  V30 41 C 8.59769 -0.921604 -0.103088 0
M  V30 42 C 7.47433 -1.89732 -0.396164 0 CFG=1
M  V30 43 C 7.71251 -3.25037 0.101801 0
M  V30 44 O 8.35818 -4.2222 -0.679023 0
M  V30 45 O 7.34839 -3.60017 1.22877 0
M  V30 46 H 3.87585 -2.41436 1.89274 0
M  V30 47 H 2.27443 -1.66621 1.75012 0
M  V30 48 H 2.92752 -2.66695 0.398549 0
M  V30 49 H 4.0515 -0.0954568 1.36582 0
M  V30 50 H 3.07728 -0.402792 -1.45391 0
M  V30 51 H 1.1923 0.510879 -2.02324 0
M  V30 52 H 2.49721 2.37381 -1.66152 0
M  V30 53 H 0.972585 2.79743 -2.43187 0
M  V30 54 H 3.12295 3.35301 0.780896 0
M  V30 55 H 1.95411 5.20097 2.23821 0
M  V30 56 H -1.13904 3.84861 -1.87635 0
M  V30 57 H -2.89454 5.43499 -1.22839 0
M  V30 58 H -2.54594 6.81758 0.812338 0
M  V30 59 H -0.452578 6.58544 2.15172 0
M  V30 60 H -0.204284 1.79304 0.286976 0
M  V30 61 H -1.6133 -1.18474 -1.3006 0
M  V30 62 H -3.51148 -1.14561 -2.6891 0
M  V30 63 H -2.18722 -0.0921467 -3.10732 0
M  V30 64 H -4.04567 0.883843 -3.85709 0
M  V30 65 H -3.66851 1.93953 -2.5144 0
M  V30 66 H -6.01734 1.69495 -2.94291 0
M  V30 67 H -5.94361 -0.0533144 -2.84698 0
M  V30 68 H -5.92859 0.135811 -0.300065 0
M  V30 69 H -7.15611 1.06831 -1.12619 0
M  V30 70 H -6.57876 2.54647 0.206187 0
M  V30 71 H -5.11921 1.90604 0.607006 0
M  V30 72 H -3.97749 -0.728667 0.481075 0
M  V30 73 H -3.67399 -4.47071 0.50303 0
M  V30 74 H -1.67362 -4.20367 1.46717 0
M  V30 75 H -2.82191 -4.72168 2.54009 0
M  V30 76 H -5.11596 -4.04251 2.31133 0
M  V30 77 H -4.77676 -2.31854 2.41815 0
M  V30 78 H -5.69821 -2.20981 -0.0461928 0
M  V30 79 H -6.89267 -2.63598 1.28338 0
M  V30 80 H -7.14566 -4.64676 -1.88034 0
M  V30 81 H 6.16268 0.0297106 1.96662 0
M  V30 82 H 7.23231 -1.42788 2.22673 0
M  V30 83 H 7.6537 0.946743 0.403916 0
M  V30 84 H 8.80909 0.295694 1.70914 0
M  V30 85 H 8.82884 -0.397226 -1.07039 0
M  V30 86 H 9.51407 -1.40735 0.268565 0
M  V30 87 H 7.2458 -1.95486 -1.48958 0
M  V30 88 H 8.52351 -5.15308 -0.379357 0
M  V30 END ATOM
M  V30 BEGIN BOND
M  V30 1 1 1 2
M  V30 2 1 2 3
M  V30 3 1 3 4
M  V30 4 2 4 5
M  V30 5 1 4 6
M  V30 6 1 6 7
M  V30 7 1 7 8
M  V30 8 2 8 9
M  V30 9 1 9 10
M  V30 10 1 10 11
M  V30 11 2 11 12
M  V30 12 1 12 13
M  V30 13 2 13 14
M  V30 14 1 14 15
M  V30 15 2 15 16
M  V30 16 1 6 17
M  V30 17 1 17 18
M  V30 18 2 18 19
M  V30 19 1 18 20
M  V30 20 1 20 21
M  V30 21 1 21 22
M  V30 22 1 22 23
M  V30 23 1 23 24
M  V30 24 1 24 25
M  V30 25 1 20 26
M  V30 26 1 26 27
M  V30 27 2 27 28
M  V30 28 1 27 29
M  V30 29 1 29 30
M  V30 30 1 29 31
M  V30 31 1 31 32
M  V30 32 1 32 33
M  V30 33 1 33 34
M  V30 34 2 33 35
M  V30 35 1 2 36
M  V30 36 2 36 37
M  V30 37 1 36 38
M  V30 38 1 38 39
M  V30 39 1 39 40
M  V30 40 1 40 41
M  V30 41 1 41 42
M  V30 42 1 42 43
M  V30 43 1 43 44
M  V30 44 2 43 45
M  V30 45 1 12 8
M  V30 46 1 42 38
M  V30 47 1 16 11
M  V30 48 1 1 46
M  V30 49 1 1 47
M  V30 50 1 1 48
M  V30 51 1 2 49 CFG=1
M  V30 52 1 3 50
M  V30 53 1 6 51 CFG=3
M  V30 54 1 7 52
M  V30 55 1 7 53
M  V30 56 1 9 54
M  V30 57 1 10 55
M  V30 58 1 13 56
M  V30 59 1 14 57
M  V30 60 1 15 58
M  V30 61 1 16 59
M  V30 62 1 17 60
M  V30 63 1 20 61 CFG=3
M  V30 64 1 21 62
M  V30 65 1 21 63
M  V30 66 1 22 64
M  V30 67 1 22 65
M  V30 68 1 23 66
M  V30 69 1 23 67
M  V30 70 1 24 68
M  V30 71 1 24 69
M  V30 72 1 25 70
M  V30 73 1 25 71
M  V30 74 1 26 72
M  V30 75 1 29 73 CFG=3
M  V30 76 1 30 74
M  V30 77 1 30 75
M  V30 78 1 31 76
M  V30 79 1 31 77
M  V30 80 1 32 78
M  V30 81 1 32 79
M  V30 82 1 34 80
M  V30 83 1 39 81
M  V30 84 1 39 82
M  V30 85 1 40 83
M  V30 86 1 40 84
M  V30 87 1 41 85
M  V30 88 1 41 86
M  V30 89 1 42 87 CFG=3
M  V30 90 1 44 88
M  V30 END BOND
M  V30 END CTAB
M  END
