
     RDKit          3D

  0  0  0  0  0  0  0  0  0  0999 V3000
M  V30 BEGIN CTAB
M  V30 COUNTS 61 63 0 0 0
M  V30 BEGIN ATOM
M  V30 1 N 8.36401 -0.313564 0.689228 0
M  V30 2 C 8.34346 -1.68787 0.245181 0
M  V30 3 C 7.18057 -2.48223 0.748098 0
M  V30 4 C 5.83415 -1.94246 0.351492 0
M  V30 5 O 5.59747 -0.654338 0.83016 0
M  V30 6 C 4.44426 0.062573 0.619639 0
M  V30 7 C 3.40328 -0.465146 -0.113599 0
M  V30 8 C 2.22247 0.243294 -0.338228 0
M  V30 9 C 2.07903 1.4966 0.176249 0
M  V30 10 C 3.10351 2.04809 0.911869 0
M  V30 11 C 4.25305 1.33864 1.12145 0
M  V30 12 C 0.819248 2.24747 -0.0640811 0
M  V30 13 N 0.446088 2.22518 -1.43899 0
M  V30 14 C -0.22685 1.67744 0.842309 0
M  V30 15 O 0.0853423 1.52355 2.04863 0
M  V30 16 N -1.52259 1.33093 0.332712 0
M  V30 17 C -2.55665 0.779791 1.14515 0
M  V30 18 C -3.7718 1.72772 1.3085 0
M  V30 19 N -4.56276 0.529331 0.972177 0
M  V30 20 C -5.95088 0.238817 1.23116 0
M  V30 21 C -6.0524 -0.948347 2.09268 0
M  V30 22 O -4.90344 -1.65391 2.41847 0
M  V30 23 O -7.12635 -1.39373 2.57451 0
M  V30 24 C -6.6454 0.0317887 -0.0686282 0
M  V30 25 C -6.54665 -1.08813 -0.837518 0
M  V30 26 C -7.23184 -1.1461 -2.04645 0
M  V30 27 C -8.01632 -0.121062 -2.5174 0
M  V30 28 O -8.70996 -0.161008 -3.72636 0
M  V30 29 C -8.09671 1.00851 -1.70861 0
M  V30 30 C -7.4268 1.08159 -0.513277 0
M  V30 31 C -3.45942 -0.101078 0.357613 0
M  V30 32 O -3.28584 -1.02599 -0.50096 0
M  V30 33 C 8.60158 -1.85783 -1.19154 0
M  V30 34 O 8.82084 -0.731596 -1.96834 0
M  V30 35 O 8.63905 -2.96442 -1.77517 0
M  V30 36 H 8.1486 -0.313667 1.71216 0
M  V30 37 H 7.74304 0.305708 0.123752 0
M  V30 38 H 9.24732 -2.15531 0.752964 0
M  V30 39 H 7.22099 -2.43862 1.86594 0
M  V30 40 H 7.25344 -3.52223 0.445228 0
M  V30 41 H 5.67368 -2.01698 -0.766176 0
M  V30 42 H 5.07234 -2.61414 0.795002 0
M  V30 43 H 3.53377 -1.46248 -0.512667 0
M  V30 44 H 1.45178 -0.267827 -0.937238 0
M  V30 45 H 2.93867 3.05815 1.30332 0
M  V30 46 H 5.06754 1.76928 1.70192 0
M  V30 47 H 0.985141 3.30323 0.302059 0
M  V30 48 H 0.636422 1.35413 -1.9393 0
M  V30 49 H 0.973637 3.01408 -1.92143 0
M  V30 50 H -1.69149 1.49747 -0.679173 0
M  V30 51 H -2.27834 0.449669 2.14764 0
M  V30 52 H -3.95508 2.07372 2.32257 0
M  V30 53 H -3.72547 2.48673 0.505548 0
M  V30 54 H -6.44711 1.07556 1.7959 0
M  V30 55 H -4.84877 -2.66413 2.45172 0
M  V30 56 H -5.94538 -1.94069 -0.497444 0
M  V30 57 H -7.15494 -2.03428 -2.65987 0
M  V30 58 H -8.71511 -0.916579 -4.37148 0
M  V30 59 H -8.71242 1.84865 -2.04982 0
M  V30 60 H -7.52334 1.99831 0.0863954 0
M  V30 61 H 8.90633 -0.740268 -2.96715 0
M  V30 END ATOM
M  V30 BEGIN BOND
M  V30 1 1 1 2
M  V30 2 1 2 3
M  V30 3 1 3 4
M  V30 4 1 4 5
M  V30 5 1 5 6
M  V30 6 2 6 7
M  V30 7 1 7 8
M  V30 8 2 8 9
M  V30 9 1 9 10
M  V30 10 2 10 11
M  V30 11 1 9 12
M  V30 12 1 12 13
M  V30 13 1 12 14
M  V30 14 2 14 15
M  V30 15 1 14 16
M  V30 16 1 16 17
M  V30 17 1 17 18
M  V30 18 1 18 19
M  V30 19 1 19 20
M  V30 20 1 20 21
M  V30 21 1 21 22
M  V30 22 2 21 23
M  V30 23 1 20 24
M  V30 24 2 24 25
M  V30 25 1 25 26
M  V30 26 2 26 27
M  V30 27 1 27 28
M  V30 28 1 27 29
M  V30 29 2 29 30
M  V30 30 1 19 31
M  V30 31 2 31 32
M  V30 32 1 2 33
M  V30 33 1 33 34
M  V30 34 2 33 35
M  V30 35 1 11 6
M  V30 36 1 31 17
M  V30 37 1 30 24
M  V30 38 1 1 36
M  V30 39 1 1 37
M  V30 40 1 2 38
M  V30 41 1 3 39
M  V30 42 1 3 40
M  V30 43 1 4 41
M  V30 44 1 4 42
M  V30 45 1 7 43
M  V30 46 1 8 44
M  V30 47 1 10 45
M  V30 48 1 11 46
M  V30 49 1 12 47
M  V30 50 1 13 48
M  V30 51 1 13 49
M  V30 52 1 16 50
M  V30 53 1 17 51
M  V30 54 1 18 52
M  V30 55 1 18 53
M  V30 56 1 20 54
M  V30 57 1 22 55
M  V30 58 1 25 56
M  V30 59 1 26 57
M  V30 60 1 28 58
M  V30 61 1 29 59
M  V30 62 1 30 60
M  V30 63 1 34 61
M  V30 END BOND
M  V30 END CTAB
M  END
