
     RDKit          3D

  0  0  0  0  0  0  0  0  0  0999 V3000
M  V30 BEGIN CTAB
M  V30 COUNTS 11 11 0 0 0
M  V30 BEGIN ATOM
M  V30 1 N 2.39164 0.357218 -0.59146 0
M  V30 2 C 1.0479 -0.072174 -0.420556 0
M  V30 3 N 0.57966 -1.29323 -0.724857 0
M  V30 4 N -0.694213 -1.32366 -0.434927 0
M  V30 5 C -1.06264 -0.130869 0.0569795 0
M  V30 6 N -2.37612 0.220059 0.485751 0
M  V30 7 O 0.0232499 0.599824 0.0491719 0
M  V30 8 H 3.146 -0.355853 -0.512634 0
M  V30 9 H 2.69478 1.33311 -0.791016 0
M  V30 10 H -2.7611 1.18735 0.422146 0
M  V30 11 H -2.98915 -0.521782 0.884143 0
M  V30 END ATOM
M  V30 BEGIN BOND
M  V30 1 1 1 2
M  V30 2 2 2 3
M  V30 3 1 3 4
M  V30 4 2 4 5
M  V30 5 1 5 6
M  V30 6 1 5 7
M  V30 7 1 7 2
M  V30 8 1 1 8
M  V30 9 1 1 9
M  V30 10 1 6 10
M  V30 11 1 6 11
M  V30 END BOND
M  V30 END CTAB
M  END
