
     RDKit          3D

  0  0  0  0  0  0  0  0  0  0999 V3000
M  V30 BEGIN CTAB
M  V30 COUNTS 22 22 0 0 0
M  V30 BEGIN ATOM
M  V30 1 C 2.00897 -1.70717 -0.130421 0
M  V30 2 C 0.863685 -0.809415 -0.0620495 0
M  V30 3 C -0.401119 -1.35704 -0.128746 0
M  V30 4 C -1.50123 -0.526914 -0.069748 0
M  V30 5 N -2.82162 -1.03242 -0.133459 0
M  V30 6 C -1.36299 0.847786 0.0553031 0
M  V30 7 C -0.10357 1.39136 0.12163 0
M  V30 8 C 1.01807 0.550112 0.0620018 0
M  V30 9 C 2.376 1.13578 0.138047 0
M  V30 10 F 3.13951 0.850209 -0.980819 0
M  V30 11 F 3.01817 0.865123 1.32354 0
M  V30 12 F 2.24058 2.53458 0.11759 0
M  V30 13 N -2.47702 1.71484 0.117339 0
M  V30 14 H 1.77535 -2.59624 0.526823 0
M  V30 15 H 2.12914 -2.16895 -1.15427 0
M  V30 16 H 2.9698 -1.3319 0.199031 0
M  V30 17 H -0.512186 -2.42815 -0.226246 0
M  V30 18 H -3.54013 -0.673345 -0.776219 0
M  V30 19 H -3.08637 -1.81134 0.503521 0
M  V30 20 H 0.043237 2.47374 0.220614 0
M  V30 21 H -2.40742 2.65477 -0.287959 0
M  V30 22 H -3.36885 1.42459 0.564496 0
M  V30 END ATOM
M  V30 BEGIN BOND
M  V30 1 1 1 2
M  V30 2 2 2 3
M  V30 3 1 3 4
M  V30 4 1 4 5
M  V30 5 2 4 6
M  V30 6 1 6 7
M  V30 7 2 7 8
M  V30 8 1 8 9
M  V30 9 1 9 10
M  V30 10 1 9 11
M  V30 11 1 9 12
M  V30 12 1 6 13
M  V30 13 1 8 2
M  V30 14 1 1 14
M  V30 15 1 1 15
M  V30 16 1 1 16
M  V30 17 1 3 17
M  V30 18 1 5 18
M  V30 19 1 5 19
M  V30 20 1 7 20
M  V30 21 1 13 21
M  V30 22 1 13 22
M  V30 END BOND
M  V30 END CTAB
M  END
