
     RDKit          3D

  0  0  0  0  0  0  0  0  0  0999 V3000
M  V30 BEGIN CTAB
M  V30 COUNTS 33 34 0 0 0
M  V30 BEGIN ATOM
M  V30 1 N -4.21953 0.21287 -2.48286 0
M  V30 2 C -3.17274 -0.018723 -1.55552 0
M  V30 3 C -3.48616 -0.122044 -0.214621 0
M  V30 4 C -2.48932 -0.345863 0.704747 0
M  V30 5 C -1.14151 -0.479519 0.34707 0
M  V30 6 C -0.859427 -0.374358 -0.986742 0
M  V30 7 C -1.85787 -0.148112 -1.90922 0
M  V30 8 C -0.24132 -0.844647 1.40037 0
M  V30 9 C 0.983043 -0.428443 1.49605 0
M  V30 10 C 1.65179 0.468505 0.596802 0
M  V30 11 C 1.21631 1.72555 0.231848 0
M  V30 12 C 1.94724 2.51035 -0.628332 0
M  V30 13 C 3.14295 2.10172 -1.17461 0
M  V30 14 C 3.58089 0.838809 -0.8082 0
M  V30 15 C 2.8563 0.0409356 0.0547495 0
M  V30 16 N 3.38999 -1.25388 0.375284 0
M  V30 17 C -0.689773 -1.8037 2.44555 0
M  V30 18 O -1.83038 -2.28535 2.43754 0
M  V30 19 O 0.165363 -2.18103 3.45803 0
M  V30 20 H -4.68785 -0.586231 -2.96225 0
M  V30 21 H -4.5592 1.16911 -2.72072 0
M  V30 22 H -4.53422 -0.0220162 0.0847907 0
M  V30 23 H -2.82077 -0.379796 1.74842 0
M  V30 24 H 0.163886 -0.516861 -1.34084 0
M  V30 25 H -1.61057 -0.0644718 -2.97354 0
M  V30 26 H 1.61837 -0.791992 2.37012 0
M  V30 27 H 0.283392 2.08197 0.638951 0
M  V30 28 H 1.61652 3.51457 -0.929375 0
M  V30 29 H 3.70684 2.73133 -1.84995 0
M  V30 30 H 4.51107 0.462489 -1.20283 0
M  V30 31 H 4.41083 -1.42274 0.485517 0
M  V30 32 H 2.75971 -2.07291 0.508045 0
M  V30 33 H 0.196144 -1.71552 4.35574 0
M  V30 END ATOM
M  V30 BEGIN BOND
M  V30 1 1 1 2
M  V30 2 2 2 3
M  V30 3 1 3 4
M  V30 4 2 4 5
M  V30 5 1 5 6
M  V30 6 2 6 7
M  V30 7 1 5 8
M  V30 8 2 8 9
M  V30 9 1 9 10
M  V30 10 2 10 11
M  V30 11 1 11 12
M  V30 12 2 12 13
M  V30 13 1 13 14
M  V30 14 2 14 15
M  V30 15 1 15 16
M  V30 16 1 8 17
M  V30 17 2 17 18
M  V30 18 1 17 19
M  V30 19 1 7 2
M  V30 20 1 15 10
M  V30 21 1 1 20
M  V30 22 1 1 21
M  V30 23 1 3 22
M  V30 24 1 4 23
M  V30 25 1 6 24
M  V30 26 1 7 25
M  V30 27 1 9 26
M  V30 28 1 11 27
M  V30 29 1 12 28
M  V30 30 1 13 29
M  V30 31 1 14 30
M  V30 32 1 16 31
M  V30 33 1 16 32
M  V30 34 1 19 33
M  V30 END BOND
M  V30 END CTAB
M  END
