
     RDKit          3D

  0  0  0  0  0  0  0  0  0  0999 V3000
M  V30 BEGIN CTAB
M  V30 COUNTS 54 57 0 0 0
M  V30 BEGIN ATOM
M  V30 1 C -3.53943 -3.9282 0.238034 0
M  V30 2 C -4.7219 -3.05267 0.580113 0
M  V30 3 C -4.83296 -1.86659 -0.349278 0
M  V30 4 C -3.62974 -0.99879 -0.299495 0
M  V30 5 C -3.24304 -0.324462 0.842004 0
M  V30 6 C -2.13386 0.477984 0.893931 0
M  V30 7 C -1.33957 0.646079 -0.226619 0
M  V30 8 C -1.70269 -0.0231155 -1.40066 0
M  V30 9 C -2.8197 -0.817784 -1.41444 0
M  V30 10 N -0.189425 1.47394 -0.187161 0
M  V30 11 C 0.767076 1.21972 0.708916 0
M  V30 12 S 0.579525 -0.146052 1.82912 0
M  V30 13 C 1.27958 -1.6169 1.08199 0
M  V30 14 C 2.75544 -1.41857 0.954923 0
M  V30 15 N 3.60156 -1.78218 1.93167 0
M  V30 16 C 4.95159 -1.60752 1.8296 0
M  V30 17 N 5.82628 -1.99658 2.86802 0
M  V30 18 N 5.39598 -1.04784 0.690883 0
M  V30 19 C 4.6049 -0.660695 -0.32628 0
M  V30 20 N 3.27117 -0.865111 -0.155233 0
M  V30 21 N 5.11728 -0.07397 -1.5089 0
M  V30 22 N 1.86983 1.97245 0.784105 0
M  V30 23 C 2.04094 3.01869 -0.055334 0
M  V30 24 C 1.08215 3.31498 -0.991421 0
M  V30 25 C -0.0465474 2.50515 -1.03244 0
M  V30 26 O -0.939905 2.75733 -1.883 0
M  V30 27 C 1.21794 4.37935 -1.87307 0
M  V30 28 C 2.34461 5.16724 -1.81447 0
M  V30 29 C 3.32609 4.89601 -0.88544 0
M  V30 30 C 3.16647 3.82145 -0.0110463 0
M  V30 31 Cl 2.56771 6.53416 -2.91447 0
M  V30 32 C -6.03735 -1.06322 0.0478161 0
M  V30 33 H -2.70912 -3.24516 -0.0750289 0
M  V30 34 H -3.28981 -4.5367 1.11299 0
M  V30 35 H -3.77484 -4.60308 -0.60473 0
M  V30 36 H -5.63417 -3.68118 0.374669 0
M  V30 37 H -4.75946 -2.77641 1.63924 0
M  V30 38 H -4.91193 -2.27552 -1.37633 0
M  V30 39 H -3.85117 -0.442747 1.72951 0
M  V30 40 H -1.8946 0.973958 1.82363 0
M  V30 41 H -1.05881 0.125535 -2.27458 0
M  V30 42 H -3.06355 -1.31817 -2.34832 0
M  V30 43 H 0.886098 -1.69016 0.0438432 0
M  V30 44 H 1.05693 -2.543 1.66578 0
M  V30 45 H 5.6456 -2.85196 3.41341 0
M  V30 46 H 6.65312 -1.41689 3.07973 0
M  V30 47 H 4.47151 0.375506 -2.18112 0
M  V30 48 H 6.12695 -0.0891829 -1.70958 0
M  V30 49 H 0.446931 4.58699 -2.59895 0
M  V30 50 H 4.20656 5.51973 -0.847592 0
M  V30 51 H 3.91347 3.59285 0.716008 0
M  V30 52 H -6.97244 -1.5126 -0.345399 0
M  V30 53 H -6.11547 -1.06839 1.15277 0
M  V30 54 H -5.9618 -0.0177278 -0.342309 0
M  V30 END ATOM
M  V30 BEGIN BOND
M  V30 1 1 1 2
M  V30 2 1 2 3
M  V30 3 1 3 4
M  V30 4 2 4 5
M  V30 5 1 5 6
M  V30 6 2 6 7
M  V30 7 1 7 8
M  V30 8 2 8 9
M  V30 9 1 7 10
M  V30 10 1 10 11
M  V30 11 1 11 12
M  V30 12 1 12 13
M  V30 13 1 13 14
M  V30 14 2 14 15
M  V30 15 1 15 16
M  V30 16 1 16 17
M  V30 17 2 16 18
M  V30 18 1 18 19
M  V30 19 2 19 20
M  V30 20 1 19 21
M  V30 21 2 11 22
M  V30 22 1 22 23
M  V30 23 2 23 24
M  V30 24 1 24 25
M  V30 25 2 25 26
M  V30 26 1 24 27
M  V30 27 2 27 28
M  V30 28 1 28 29
M  V30 29 2 29 30
M  V30 30 1 28 31
M  V30 31 1 3 32
M  V30 32 1 9 4
M  V30 33 1 25 10
M  V30 34 1 20 14
M  V30 35 1 30 23
M  V30 36 1 1 33
M  V30 37 1 1 34
M  V30 38 1 1 35
M  V30 39 1 2 36
M  V30 40 1 2 37
M  V30 41 1 3 38
M  V30 42 1 5 39
M  V30 43 1 6 40
M  V30 44 1 8 41
M  V30 45 1 9 42
M  V30 46 1 13 43
M  V30 47 1 13 44
M  V30 48 1 17 45
M  V30 49 1 17 46
M  V30 50 1 21 47
M  V30 51 1 21 48
M  V30 52 1 27 49
M  V30 53 1 29 50
M  V30 54 1 30 51
M  V30 55 1 32 52
M  V30 56 1 32 53
M  V30 57 1 32 54
M  V30 END BOND
M  V30 END CTAB
M  END
