
     RDKit          3D

  0  0  0  0  0  0  0  0  0  0999 V3000
M  V30 BEGIN CTAB
M  V30 COUNTS 27 28 0 0 0
M  V30 BEGIN ATOM
M  V30 1 N -3.15039 2.66758 -0.0627168 0
M  V30 2 C -2.5165 1.38378 -0.174523 0
M  V30 3 N -1.25706 1.27567 -0.632873 0
M  V30 4 C -0.614333 0.102615 -0.758438 0
M  V30 5 O 0.654263 0.127241 -1.23395 0
M  V30 6 C 1.84476 0.169209 -0.591862 0
M  V30 7 C 2.31994 1.37743 -0.0811272 0
M  V30 8 C 3.52145 1.43525 0.567663 0
M  V30 9 C 4.32189 0.330415 0.754616 0
M  V30 10 C 3.8426 -0.855427 0.246302 0
M  V30 11 C 2.62009 -0.935673 -0.418643 0
M  V30 12 C -1.25783 -1.04084 -0.408783 0
M  V30 13 C -0.682731 -2.34995 -0.51891 0
M  V30 14 N -0.228679 -3.40436 -0.629138 0
M  V30 15 C -2.57199 -0.996589 0.0765706 0
M  V30 16 N -3.25492 -2.19394 0.446988 0
M  V30 17 C -3.18349 0.232247 0.185469 0
M  V30 18 H -2.76311 3.42719 0.512909 0
M  V30 19 H -4.03096 2.80527 -0.593847 0
M  V30 20 H 1.7168 2.28613 -0.205616 0
M  V30 21 H 3.82329 2.41473 0.937405 0
M  V30 22 H 5.27206 0.409657 1.27511 0
M  V30 23 H 4.44184 -1.73446 0.375147 0
M  V30 24 H 2.37194 -1.92206 -0.775282 0
M  V30 25 H -4.08872 -2.48712 -0.0905561 0
M  V30 26 H -2.95803 -2.80055 1.24079 0
M  V30 27 H -4.19216 0.276534 0.557296 0
M  V30 END ATOM
M  V30 BEGIN BOND
M  V30 1 1 1 2
M  V30 2 2 2 3
M  V30 3 1 3 4
M  V30 4 1 4 5
M  V30 5 1 5 6
M  V30 6 2 6 7
M  V30 7 1 7 8
M  V30 8 2 8 9
M  V30 9 1 9 10
M  V30 10 2 10 11
M  V30 11 2 4 12
M  V30 12 1 12 13
M  V30 13 3 13 14
M  V30 14 1 12 15
M  V30 15 1 15 16
M  V30 16 2 15 17
M  V30 17 1 17 2
M  V30 18 1 11 6
M  V30 19 1 1 18
M  V30 20 1 1 19
M  V30 21 1 7 20
M  V30 22 1 8 21
M  V30 23 1 9 22
M  V30 24 1 10 23
M  V30 25 1 11 24
M  V30 26 1 16 25
M  V30 27 1 16 26
M  V30 28 1 17 27
M  V30 END BOND
M  V30 END CTAB
M  END
