
     RDKit          3D

  0  0  0  0  0  0  0  0  0  0999 V3000
M  V30 BEGIN CTAB
M  V30 COUNTS 23 23 0 0 0
M  V30 BEGIN ATOM
M  V30 1 C -2.82887 1.92522 -0.302652 0
M  V30 2 O -2.42353 0.591048 -0.290821 0
M  V30 3 C -1.13981 0.132891 -0.140335 0
M  V30 4 C -0.042062 0.947271 0.0245407 0
M  V30 5 C 1.21297 0.396199 0.168571 0
M  V30 6 C 1.40037 -0.978394 0.151301 0
M  V30 7 C 0.306487 -1.80344 -0.013402 0
M  V30 8 C -0.941541 -1.23595 -0.156042 0
M  V30 9 N -2.02575 -2.15043 -0.322185 0
M  V30 10 N 2.72055 -1.48179 0.305109 0
M  V30 11 C 2.39522 1.2783 0.346275 0
M  V30 12 F 3.31941 1.09332 -0.666186 0
M  V30 13 F 2.03631 2.5962 0.450968 0
M  V30 14 F 3.03807 0.93742 1.52635 0
M  V30 15 H -3.83309 2.07526 0.178263 0
M  V30 16 H -2.9431 2.23326 -1.38369 0
M  V30 17 H -2.12144 2.63333 0.142188 0
M  V30 18 H -0.177307 2.02394 0.0395301 0
M  V30 19 H 0.456236 -2.88353 -0.0266486 0
M  V30 20 H -2.44465 -2.63953 0.484967 0
M  V30 21 H -2.41553 -2.34248 -1.2593 0
M  V30 22 H 3.1363 -1.60504 1.25049 0
M  V30 23 H 3.31478 -1.74307 -0.507293 0
M  V30 END ATOM
M  V30 BEGIN BOND
M  V30 1 1 1 2
M  V30 2 1 2 3
M  V30 3 2 3 4
M  V30 4 1 4 5
M  V30 5 2 5 6
M  V30 6 1 6 7
M  V30 7 2 7 8
M  V30 8 1 8 9
M  V30 9 1 6 10
M  V30 10 1 5 11
M  V30 11 1 11 12
M  V30 12 1 11 13
M  V30 13 1 11 14
M  V30 14 1 8 3
M  V30 15 1 1 15
M  V30 16 1 1 16
M  V30 17 1 1 17
M  V30 18 1 4 18
M  V30 19 1 7 19
M  V30 20 1 9 20
M  V30 21 1 9 21
M  V30 22 1 10 22
M  V30 23 1 10 23
M  V30 END BOND
M  V30 END CTAB
M  END
