
     RDKit          3D

  0  0  0  0  0  0  0  0  0  0999 V3000
M  V30 BEGIN CTAB
M  V30 COUNTS 58 61 0 0 0
M  V30 BEGIN ATOM
M  V30 1 C 7.99002 3.61641 -1.22085 0
M  V30 2 O 6.60448 3.49027 -1.43784 0
M  V30 3 C 5.9212 2.4444 -0.850689 0
M  V30 4 C 6.55066 1.53308 -0.0672379 0
M  V30 5 C 5.86428 0.479293 0.524563 0
M  V30 6 C 4.50996 0.35979 0.308096 0
M  V30 7 C 3.85116 1.27589 -0.485386 0
M  V30 8 C 4.57495 2.32174 -1.0631 0
M  V30 9 N 2.45241 1.15769 -0.716731 0
M  V30 10 C 1.72581 0.0770837 -0.138391 0
M  V30 11 C 0.272306 0.122609 -0.505881 0
M  V30 12 N -0.40563 1.03007 -1.19394 0
M  V30 13 N -1.67552 0.669188 -1.28693 0
M  V30 14 C -1.83998 -0.488229 -0.65455 0
M  V30 15 N -0.638838 -0.836537 -0.166239 0
M  V30 16 C -0.346022 -2.04139 0.601719 0
M  V30 17 C -0.489956 -3.27491 -0.277368 0
M  V30 18 C 0.029266 -4.44706 0.540387 0
M  V30 19 C -0.661762 -4.602 1.85612 0
M  V30 20 C -1.64056 -3.50608 2.17336 0
M  V30 21 C -1.10111 -2.13243 1.87843 0
M  V30 22 S -3.34352 -1.45359 -0.45714 0
M  V30 23 C -4.74335 -0.68434 -1.24351 0
M  V30 24 C -5.17927 0.589828 -0.64653 0
M  V30 25 N -4.63312 1.72477 -1.11392 0
M  V30 26 C -4.95996 2.94363 -0.642746 0
M  V30 27 N -4.37237 4.13519 -1.14905 0
M  V30 28 N -5.87172 3.03201 0.337594 0
M  V30 29 C -6.42644 1.90701 0.815141 0
M  V30 30 N -6.09033 0.681115 0.333497 0
M  V30 31 N -7.39464 1.93694 1.84627 0
M  V30 32 H 8.22808 3.8951 -0.183279 0
M  V30 33 H 8.37627 4.37538 -1.95357 0
M  V30 34 H 8.4346 2.60548 -1.44752 0
M  V30 35 H 7.61731 1.59831 0.123417 0
M  V30 36 H 6.36874 -0.244416 1.1481 0
M  V30 37 H 3.93139 -0.459507 0.758681 0
M  V30 38 H 4.05142 3.0358 -1.68352 0
M  V30 39 H 1.97791 1.86277 -1.3056 0
M  V30 40 H 1.77747 0.121516 0.983607 0
M  V30 41 H 2.1552 -0.89608 -0.414185 0
M  V30 42 H 0.75023 -2.02026 0.876374 0
M  V30 43 H 0.248823 -3.14251 -1.11766 0
M  V30 44 H -1.49812 -3.43576 -0.652071 0
M  V30 45 H 1.1173 -4.26666 0.700663 0
M  V30 46 H -0.013681 -5.39032 -0.0724213 0
M  V30 47 H -1.21911 -5.56858 1.8265 0
M  V30 48 H 0.0785663 -4.72463 2.6984 0
M  V30 49 H -1.82552 -3.54442 3.27701 0
M  V30 50 H -2.598 -3.72584 1.68178 0
M  V30 51 H -1.95273 -1.42452 1.87378 0
M  V30 52 H -0.469474 -1.81297 2.75886 0
M  V30 53 H -5.60725 -1.39583 -1.16122 0
M  V30 54 H -4.61381 -0.507006 -2.32946 0
M  V30 55 H -4.70765 4.53691 -2.04208 0
M  V30 56 H -3.60933 4.58159 -0.602878 0
M  V30 57 H -8.1769 1.25539 1.84671 0
M  V30 58 H -7.35417 2.62965 2.62141 0
M  V30 END ATOM
M  V30 BEGIN BOND
M  V30 1 1 1 2
M  V30 2 1 2 3
M  V30 3 2 3 4
M  V30 4 1 4 5
M  V30 5 2 5 6
M  V30 6 1 6 7
M  V30 7 2 7 8
M  V30 8 1 7 9
M  V30 9 1 9 10
M  V30 10 1 10 11
M  V30 11 2 11 12
M  V30 12 1 12 13
M  V30 13 2 13 14
M  V30 14 1 14 15
M  V30 15 1 15 16
M  V30 16 1 16 17
M  V30 17 1 17 18
M  V30 18 1 18 19
M  V30 19 1 19 20
M  V30 20 1 20 21
M  V30 21 1 14 22
M  V30 22 1 22 23
M  V30 23 1 23 24
M  V30 24 2 24 25
M  V30 25 1 25 26
M  V30 26 1 26 27
M  V30 27 2 26 28
M  V30 28 1 28 29
M  V30 29 2 29 30
M  V30 30 1 29 31
M  V30 31 1 8 3
M  V30 32 1 15 11
M  V30 33 1 21 16
M  V30 34 1 30 24
M  V30 35 1 1 32
M  V30 36 1 1 33
M  V30 37 1 1 34
M  V30 38 1 4 35
M  V30 39 1 5 36
M  V30 40 1 6 37
M  V30 41 1 8 38
M  V30 42 1 9 39
M  V30 43 1 10 40
M  V30 44 1 10 41
M  V30 45 1 16 42
M  V30 46 1 17 43
M  V30 47 1 17 44
M  V30 48 1 18 45
M  V30 49 1 18 46
M  V30 50 1 19 47
M  V30 51 1 19 48
M  V30 52 1 20 49
M  V30 53 1 20 50
M  V30 54 1 21 51
M  V30 55 1 21 52
M  V30 56 1 23 53
M  V30 57 1 23 54
M  V30 58 1 27 55
M  V30 59 1 27 56
M  V30 60 1 31 57
M  V30 61 1 31 58
M  V30 END BOND
M  V30 END CTAB
M  END
