
     RDKit          3D

  0  0  0  0  0  0  0  0  0  0999 V3000
M  V30 BEGIN CTAB
M  V30 COUNTS 50 53 0 0 0
M  V30 BEGIN ATOM
M  V30 1 N 6.98744 -0.817294 0.327573 0
M  V30 2 C 5.88753 0.0639906 0.146529 0
M  V30 3 N 6.10356 1.39672 0.21049 0
M  V30 4 C 5.11148 2.2851 0.0488911 0
M  V30 5 N 5.33503 3.67625 0.116013 0
M  V30 6 N 3.87299 1.81876 -0.182422 0
M  V30 7 C 3.59286 0.508962 -0.257418 0
M  V30 8 C 4.61656 -0.391792 -0.0904019 0
M  V30 9 N 2.29147 0.00584755 -0.500756 0
M  V30 10 C 1.19163 0.945602 -0.685479 0
M  V30 11 C 0.100473 0.471334 0.281179 0
M  V30 12 C -0.436473 -0.842483 -0.220631 0
M  V30 13 C 0.589813 -1.76227 -0.757677 0
M  V30 14 C 2.00383 -1.38309 -0.573521 0
M  V30 15 C -1.16057 -1.532 0.915051 0
M  V30 16 C -2.5698 -1.04793 0.865393 0
M  V30 17 N -2.74163 -0.340531 -0.386511 0
M  V30 18 C -1.58424 -0.628292 -1.21126 0
M  V30 19 C -3.86538 0.471904 -0.681787 0
M  V30 20 O -3.89389 1.02751 -1.80702 0
M  V30 21 C -4.9805 0.685791 0.263173 0
M  V30 22 C -5.411 2.1408 0.420022 0
M  V30 23 C -6.31095 1.12255 -0.223345 0
M  V30 24 C -3.5541 -2.15744 0.992665 0
M  V30 25 O -3.59118 -2.8946 2.00493 0
M  V30 26 O -4.45803 -2.39609 -0.0212943 0
M  V30 27 H 7.26967 -1.54346 -0.363103 0
M  V30 28 H 7.53587 -0.719548 1.20885 0
M  V30 29 H 5.7696 4.20843 -0.656253 0
M  V30 30 H 5.05343 4.18731 0.971916 0
M  V30 31 H 4.42993 -1.45664 -0.144111 0
M  V30 32 H 1.4898 1.98364 -0.448428 0
M  V30 33 H 0.762641 0.876612 -1.70825 0
M  V30 34 H -0.69299 1.22084 0.257491 0
M  V30 35 H 0.485322 0.397192 1.3038 0
M  V30 36 H 0.402117 -1.86563 -1.86825 0
M  V30 37 H 0.454313 -2.8083 -0.371707 0
M  V30 38 H 2.66627 -1.82055 -1.37497 0
M  V30 39 H 2.39697 -1.85617 0.374656 0
M  V30 40 H -1.1436 -2.63149 0.72995 0
M  V30 41 H -0.694591 -1.30231 1.90073 0
M  V30 42 H -2.74247 -0.336724 1.69353 0
M  V30 43 H -1.33167 0.203404 -1.88678 0
M  V30 44 H -1.73067 -1.59996 -1.72374 0
M  V30 45 H -4.89657 0.164939 1.25516 0
M  V30 46 H -4.91678 2.8928 -0.256547 0
M  V30 47 H -5.63386 2.53525 1.41775 0
M  V30 48 H -6.44359 1.22436 -1.31698 0
M  V30 49 H -7.20394 0.869653 0.344023 0
M  V30 50 H -4.41211 -3.25095 -0.583509 0
M  V30 END ATOM
M  V30 BEGIN BOND
M  V30 1 1 1 2
M  V30 2 2 2 3
M  V30 3 1 3 4
M  V30 4 1 4 5
M  V30 5 2 4 6
M  V30 6 1 6 7
M  V30 7 2 7 8
M  V30 8 1 7 9
M  V30 9 1 9 10
M  V30 10 1 10 11
M  V30 11 1 11 12
M  V30 12 1 12 13
M  V30 13 1 13 14
M  V30 14 1 12 15
M  V30 15 1 15 16
M  V30 16 1 16 17
M  V30 17 1 17 18
M  V30 18 1 17 19
M  V30 19 2 19 20
M  V30 20 1 19 21
M  V30 21 1 21 22
M  V30 22 1 22 23
M  V30 23 1 16 24
M  V30 24 2 24 25
M  V30 25 1 24 26
M  V30 26 1 8 2
M  V30 27 1 14 9
M  V30 28 1 23 21
M  V30 29 1 18 12
M  V30 30 1 1 27
M  V30 31 1 1 28
M  V30 32 1 5 29
M  V30 33 1 5 30
M  V30 34 1 8 31
M  V30 35 1 10 32
M  V30 36 1 10 33
M  V30 37 1 11 34
M  V30 38 1 11 35
M  V30 39 1 13 36
M  V30 40 1 13 37
M  V30 41 1 14 38
M  V30 42 1 14 39
M  V30 43 1 15 40
M  V30 44 1 15 41
M  V30 45 1 16 42
M  V30 46 1 18 43
M  V30 47 1 18 44
M  V30 48 1 21 45
M  V30 49 1 22 46
M  V30 50 1 22 47
M  V30 51 1 23 48
M  V30 52 1 23 49
M  V30 53 1 26 50
M  V30 END BOND
M  V30 END CTAB
M  END
