
     RDKit          3D

  0  0  0  0  0  0  0  0  0  0999 V3000
M  V30 BEGIN CTAB
M  V30 COUNTS 28 30 0 0 0
M  V30 BEGIN ATOM
M  V30 1 N 5.10309 -0.131452 0.255237 0
M  V30 2 C 3.70987 -0.384632 0.373563 0
M  V30 3 C 3.28913 -1.51711 1.01818 0
M  V30 4 C 1.92599 -1.74969 1.12524 0
M  V30 5 C 0.985614 -0.874927 0.602206 0
M  V30 6 C -0.418546 -1.17643 0.748202 0
M  V30 7 O -0.787344 -2.2333 1.35025 0
M  V30 8 C -1.38514 -0.238518 0.188264 0
M  V30 9 C -1.0193 0.919798 -0.472337 0
M  V30 10 C -1.9416 1.79781 -0.996856 0
M  V30 11 C -3.28714 1.53894 -0.874273 0
M  V30 12 C -3.69981 0.379715 -0.214077 0
M  V30 13 N -5.08112 0.0936137 -0.0764978 0
M  V30 14 C -2.73898 -0.480894 0.301172 0
M  V30 15 Cl -3.26591 -1.94327 1.13389 0
M  V30 16 C 0.421831 1.17705 -0.59209 0
M  V30 17 O 0.821898 2.20862 -1.17892 0
M  V30 18 C 1.42062 0.263272 -0.0454257 0
M  V30 19 C 2.78039 0.493557 -0.151227 0
M  V30 20 Cl 3.28225 1.95557 -0.984237 0
M  V30 21 H 5.62913 0.327209 1.0351 0
M  V30 22 H 5.66045 -0.380955 -0.588778 0
M  V30 23 H 3.97557 -2.24208 1.44982 0
M  V30 24 H 1.56589 -2.62817 1.62461 0
M  V30 25 H -1.64455 2.70106 -1.51175 0
M  V30 26 H -4.06651 2.18197 -1.26046 0
M  V30 27 H -5.55296 -0.579714 -0.726621 0
M  V30 28 H -5.6828 0.522944 0.654315 0
M  V30 END ATOM
M  V30 BEGIN BOND
M  V30 1 1 1 2
M  V30 2 2 2 3
M  V30 3 1 3 4
M  V30 4 2 4 5
M  V30 5 1 5 6
M  V30 6 2 6 7
M  V30 7 1 6 8
M  V30 8 2 8 9
M  V30 9 1 9 10
M  V30 10 2 10 11
M  V30 11 1 11 12
M  V30 12 1 12 13
M  V30 13 2 12 14
M  V30 14 1 14 15
M  V30 15 1 9 16
M  V30 16 2 16 17
M  V30 17 1 16 18
M  V30 18 2 18 19
M  V30 19 1 19 20
M  V30 20 1 19 2
M  V30 21 1 18 5
M  V30 22 1 14 8
M  V30 23 1 1 21
M  V30 24 1 1 22
M  V30 25 1 3 23
M  V30 26 1 4 24
M  V30 27 1 10 25
M  V30 28 1 11 26
M  V30 29 1 13 27
M  V30 30 1 13 28
M  V30 END BOND
M  V30 END CTAB
M  END
