
     RDKit          3D

  0  0  0  0  0  0  0  0  0  0999 V3000
M  V30 BEGIN CTAB
M  V30 COUNTS 41 43 0 0 0
M  V30 BEGIN ATOM
M  V30 1 C 4.90101 0.876911 1.09826 0
M  V30 2 C 4.53364 0.60626 -0.339232 0
M  V30 3 O 3.31173 -0.107902 -0.365241 0
M  V30 4 C 2.13809 0.365894 0.1545 0
M  V30 5 O 2.12218 1.49854 0.690503 0
M  V30 6 C 0.920983 -0.488292 0.0615263 0
M  V30 7 C 1.01867 -1.66108 -0.514021 0
M  V30 8 N 2.32931 -2.04157 -1.02517 0
M  V30 9 O -0.0281388 -2.55815 -0.669206 0
M  V30 10 C -1.25989 -2.16206 -0.169765 0
M  V30 11 C -1.44497 -0.952617 0.445217 0
M  V30 12 C -0.345697 -0.00559196 0.60435 0
M  V30 13 C -0.685026 1.35791 0.112833 0
M  V30 14 C -1.14436 2.30008 0.991811 0
M  V30 15 C -1.47811 3.58072 0.611479 0
M  V30 16 C -1.34107 3.92371 -0.717613 0
M  V30 17 C -0.874227 2.96496 -1.60892 0
M  V30 18 C -0.545523 1.69057 -1.21195 0
M  V30 19 C -2.73 -0.632715 0.924 0
M  V30 20 C -3.73341 -1.53672 0.755891 0
M  V30 21 C -3.56208 -2.7514 0.141625 0
M  V30 22 C -2.31704 -3.07612 -0.328946 0
M  V30 23 N -4.60844 -3.69804 -0.0356694 0
M  V30 24 H 4.49987 1.84236 1.4319 0
M  V30 25 H 6.01407 0.900536 1.15045 0
M  V30 26 H 4.54353 0.0330748 1.73534 0
M  V30 27 H 5.3404 0.00971854 -0.808707 0
M  V30 28 H 4.43253 1.53859 -0.932849 0
M  V30 29 H 2.62349 -1.82705 -1.9865 0
M  V30 30 H 2.98042 -2.5468 -0.388528 0
M  V30 31 H -0.199569 0.100524 1.72727 0
M  V30 32 H -1.2589 2.04121 2.05518 0
M  V30 33 H -1.84321 4.30402 1.35392 0
M  V30 34 H -1.59899 4.9288 -1.03783 0
M  V30 35 H -0.789181 3.29893 -2.64083 0
M  V30 36 H -0.188179 0.989452 -1.95015 0
M  V30 37 H -2.85839 0.326913 1.40957 0
M  V30 38 H -4.71915 -1.28084 1.12799 0
M  V30 39 H -2.14901 -4.02883 -0.819298 0
M  V30 40 H -5.24913 -4.0067 0.730498 0
M  V30 41 H -4.75824 -4.11721 -0.9767 0
M  V30 END ATOM
M  V30 BEGIN BOND
M  V30 1 1 1 2
M  V30 2 1 2 3
M  V30 3 1 3 4
M  V30 4 2 4 5
M  V30 5 1 4 6
M  V30 6 2 6 7
M  V30 7 1 7 8
M  V30 8 1 7 9
M  V30 9 1 9 10
M  V30 10 2 10 11
M  V30 11 1 11 12
M  V30 12 1 12 13
M  V30 13 2 13 14
M  V30 14 1 14 15
M  V30 15 2 15 16
M  V30 16 1 16 17
M  V30 17 2 17 18
M  V30 18 1 11 19
M  V30 19 2 19 20
M  V30 20 1 20 21
M  V30 21 2 21 22
M  V30 22 1 21 23
M  V30 23 1 12 6
M  V30 24 1 18 13
M  V30 25 1 22 10
M  V30 26 1 1 24
M  V30 27 1 1 25
M  V30 28 1 1 26
M  V30 29 1 2 27
M  V30 30 1 2 28
M  V30 31 1 8 29
M  V30 32 1 8 30
M  V30 33 1 12 31
M  V30 34 1 14 32
M  V30 35 1 15 33
M  V30 36 1 16 34
M  V30 37 1 17 35
M  V30 38 1 18 36
M  V30 39 1 19 37
M  V30 40 1 20 38
M  V30 41 1 22 39
M  V30 42 1 23 40
M  V30 43 1 23 41
M  V30 END BOND
M  V30 END CTAB
M  END
