
     RDKit          3D

  0  0  0  0  0  0  0  0  0  0999 V3000
M  V30 BEGIN CTAB
M  V30 COUNTS 34 36 0 0 0
M  V30 BEGIN ATOM
M  V30 1 N 2.83748 -1.24625 1.71563 0
M  V30 2 C 2.67244 -0.222587 0.711551 0
M  V30 3 N 3.76654 0.42169 0.23449 0
M  V30 4 C 3.5156 1.35702 -0.69604 0
M  V30 5 N 4.54122 2.12987 -1.30533 0
M  V30 6 C 2.20744 1.64215 -1.13904 0
M  V30 7 S 1.51074 2.71984 -2.26435 0
M  V30 8 C -0.117791 2.27194 -2.04505 0
M  V30 9 O -1.17786 2.72409 -2.61662 0
M  V30 10 N -0.0716864 1.31492 -1.11986 0
M  V30 11 C -1.34154 0.661763 -0.654478 0 CFG=2
M  V30 12 O -1.12482 0.141449 0.616153 0
M  V30 13 C -2.12463 -0.762765 0.84371 0 CFG=2
M  V30 14 C -1.73046 -1.76528 1.90662 0
M  V30 15 O -1.46015 -1.08912 3.09879 0
M  V30 16 C -2.31629 -1.46612 -0.479976 0 CFG=1
M  V30 17 O -3.68344 -1.61358 -0.688931 0
M  V30 18 C -1.68077 -0.518908 -1.47696 0 CFG=1
M  V30 19 O -2.64905 -0.267786 -2.45332 0
M  V30 20 C 1.12455 0.982763 -0.646 0
M  V30 21 N 1.42865 0.0283473 0.309711 0
M  V30 22 H 2.86412 -2.21835 1.40951 0
M  V30 23 H 2.92263 -0.968778 2.70112 0
M  V30 24 H 5.31367 2.57607 -0.745283 0
M  V30 25 H 4.49392 2.23643 -2.34332 0
M  V30 26 H -2.13834 1.39752 -0.606126 0
M  V30 27 H -3.02525 -0.224591 1.16198 0
M  V30 28 H -2.55579 -2.48508 2.07144 0
M  V30 29 H -0.803685 -2.28142 1.5724 0
M  V30 30 H -1.57054 -0.107606 3.0157 0
M  V30 31 H -1.86923 -2.46609 -0.500974 0
M  V30 32 H -4.14338 -0.776224 -0.872314 0
M  V30 33 H -0.788823 -1.03085 -1.88621 0
M  V30 34 H -2.82549 -1.09451 -2.94872 0
M  V30 END ATOM
M  V30 BEGIN BOND
M  V30 1 1 1 2
M  V30 2 2 2 3
M  V30 3 1 3 4
M  V30 4 1 4 5
M  V30 5 2 4 6
M  V30 6 1 6 7
M  V30 7 1 7 8
M  V30 8 2 8 9
M  V30 9 1 8 10
M  V30 10 1 10 11
M  V30 11 1 11 12
M  V30 12 1 12 13
M  V30 13 1 13 14
M  V30 14 1 14 15
M  V30 15 1 13 16
M  V30 16 1 16 17
M  V30 17 1 16 18
M  V30 18 1 18 19
M  V30 19 1 10 20
M  V30 20 2 20 21
M  V30 21 1 21 2
M  V30 22 1 20 6
M  V30 23 1 18 11
M  V30 24 1 1 22
M  V30 25 1 1 23
M  V30 26 1 5 24
M  V30 27 1 5 25
M  V30 28 1 11 26 CFG=1
M  V30 29 1 13 27 CFG=1
M  V30 30 1 14 28
M  V30 31 1 14 29
M  V30 32 1 15 30
M  V30 33 1 16 31 CFG=1
M  V30 34 1 17 32
M  V30 35 1 18 33 CFG=3
M  V30 36 1 19 34
M  V30 END BOND
M  V30 END CTAB
M  END
