
     RDKit          3D

  0  0  0  0  0  0  0  0  0  0999 V3000
M  V30 BEGIN CTAB
M  V30 COUNTS 32 33 0 0 0
M  V30 BEGIN ATOM
M  V30 1 N 5.49458 0.692843 -0.0739094 0
M  V30 2 C 4.27526 0.000500642 0.184793 0
M  V30 3 N 4.07605 -1.11193 0.891059 0
M  V30 4 N 2.77478 -1.42974 0.887379 0
M  V30 5 C 2.10654 -0.533913 0.181808 0
M  V30 6 C 3.04306 0.390365 -0.277699 0
M  V30 7 C 0.669202 -0.397168 -0.146363 0 CFG=2
M  V30 8 O 0.34972 0.964666 0.0606793 0
M  V30 9 C -0.483583 1.3189 -1.00705 0
M  V30 10 C -1.72367 0.440141 -0.85437 0
M  V30 11 N -2.00002 0.385551 0.54924 0
M  V30 12 C -1.38602 -0.653544 1.27123 0
M  V30 13 C -0.221538 -1.31609 0.589153 0
M  V30 14 S -3.61274 0.715066 0.905239 0
M  V30 15 O -3.9509 2.10926 0.400844 0
M  V30 16 O -3.7892 0.753688 2.39967 0
M  V30 17 N -4.73998 -0.370495 0.234413 0
M  V30 18 H 6.3831 0.164777 -0.0945196 0
M  V30 19 H 5.53521 1.71759 -0.24541 0
M  V30 20 H 2.34442 -2.24695 1.35932 0
M  V30 21 H 2.86328 1.27223 -0.893312 0
M  V30 22 H 0.597714 -0.634427 -1.24718 0
M  V30 23 H 0.0667546 1.0762 -1.93667 0
M  V30 24 H -0.745312 2.37519 -0.909214 0
M  V30 25 H -2.5507 0.998961 -1.37033 0
M  V30 26 H -1.6235 -0.519811 -1.34869 0
M  V30 27 H -2.15577 -1.42444 1.52444 0
M  V30 28 H -1.01768 -0.261138 2.2478 0
M  V30 29 H -0.664593 -2.10165 -0.0910428 0
M  V30 30 H 0.333515 -1.90477 1.35979 0
M  V30 31 H -5.69707 0.0342671 0.342001 0
M  V30 32 H -4.55091 -0.50413 -0.763153 0
M  V30 END ATOM
M  V30 BEGIN BOND
M  V30 1 1 1 2
M  V30 2 2 2 3
M  V30 3 1 3 4
M  V30 4 1 4 5
M  V30 5 2 5 6
M  V30 6 1 5 7
M  V30 7 1 7 8
M  V30 8 1 8 9
M  V30 9 1 9 10
M  V30 10 1 10 11
M  V30 11 1 11 12
M  V30 12 1 12 13
M  V30 13 1 11 14
M  V30 14 2 14 15
M  V30 15 2 14 16
M  V30 16 1 14 17
M  V30 17 1 6 2
M  V30 18 1 13 7
M  V30 19 1 1 18
M  V30 20 1 1 19
M  V30 21 1 4 20
M  V30 22 1 6 21
M  V30 23 1 7 22 CFG=3
M  V30 24 1 9 23
M  V30 25 1 9 24
M  V30 26 1 10 25
M  V30 27 1 10 26
M  V30 28 1 12 27
M  V30 29 1 12 28
M  V30 30 1 13 29
M  V30 31 1 13 30
M  V30 32 1 17 31
M  V30 33 1 17 32
M  V30 END BOND
M  V30 END CTAB
M  END
