
     RDKit          3D

  0  0  0  0  0  0  0  0  0  0999 V3000
M  V30 BEGIN CTAB
M  V30 COUNTS 23 23 0 0 0
M  V30 BEGIN ATOM
M  V30 1 N 3.19746 -0.123299 2.64543 0
M  V30 2 N 2.08225 -0.079624 1.76865 0
M  V30 3 C 2.30677 -0.0580716 0.385968 0
M  V30 4 O 3.50788 -0.0783048 -0.0469916 0
M  V30 5 C 1.25549 -0.0134031 -0.620284 0
M  V30 6 C -0.0778098 0.0114247 -0.242598 0
M  V30 7 C -1.08342 0.0536818 -1.18045 0
M  V30 8 N -0.739181 0.0708404 -2.50272 0
M  V30 9 C 0.544781 0.0474441 -2.89302 0
M  V30 10 C 1.56656 0.00514766 -1.97319 0
M  V30 11 C -2.47857 0.0794165 -0.772466 0
M  V30 12 O -3.35756 0.117706 -1.66458 0
M  V30 13 N -2.86306 0.0626264 0.583223 0
M  V30 14 N -4.24861 0.0901531 0.885972 0
M  V30 15 H 4.01924 -0.55275 2.21164 0
M  V30 16 H 3.36756 0.837962 2.98828 0
M  V30 17 H 1.1659 -0.066933 2.23972 0
M  V30 18 H -0.26018 -0.00465736 0.820748 0
M  V30 19 H 0.813256 0.061564 -3.96226 0
M  V30 20 H 2.59579 -0.0129417 -2.32069 0
M  V30 21 H -2.17798 0.0306312 1.39039 0
M  V30 22 H -4.38189 0.228002 1.91224 0
M  V30 23 H -4.75467 0.804986 0.34699 0
M  V30 END ATOM
M  V30 BEGIN BOND
M  V30 1 1 1 2
M  V30 2 1 2 3
M  V30 3 2 3 4
M  V30 4 1 3 5
M  V30 5 2 5 6
M  V30 6 1 6 7
M  V30 7 2 7 8
M  V30 8 1 8 9
M  V30 9 2 9 10
M  V30 10 1 7 11
M  V30 11 2 11 12
M  V30 12 1 11 13
M  V30 13 1 13 14
M  V30 14 1 10 5
M  V30 15 1 1 15
M  V30 16 1 1 16
M  V30 17 1 2 17
M  V30 18 1 6 18
M  V30 19 1 9 19
M  V30 20 1 10 20
M  V30 21 1 13 21
M  V30 22 1 14 22
M  V30 23 1 14 23
M  V30 END BOND
M  V30 END CTAB
M  END
