
     RDKit          3D

  0  0  0  0  0  0  0  0  0  0999 V3000
M  V30 BEGIN CTAB
M  V30 COUNTS 25 25 0 0 0
M  V30 BEGIN ATOM
M  V30 1 N 3.29541 -1.25315 0.520114 0
M  V30 2 O 2.7552 -0.135998 0.0490833 0
M  V30 3 C 1.66136 -0.337415 -0.777481 0
M  V30 4 C 0.477433 0.238119 -0.0860719 0
M  V30 5 N -0.681546 -0.44327 -0.0381413 0
M  V30 6 C -1.77674 0.0378098 0.575502 0
M  V30 7 N -2.98641 -0.699377 0.612376 0
M  V30 8 C -3.0281 -1.99293 -0.0270417 0
M  V30 9 N -1.67214 1.2539 1.1545 0
M  V30 10 C -0.54515 1.98258 1.14129 0
M  V30 11 N 0.513845 1.44195 0.50981 0
M  V30 12 N -0.476302 3.24737 1.75703 0
M  V30 13 C 1.84721 0.226544 -2.15517 0
M  V30 14 H 2.92847 -2.13074 0.126268 0
M  V30 15 H 4.31782 -1.23126 0.667622 0
M  V30 16 H 1.50064 -1.43333 -0.843741 0
M  V30 17 H -3.79942 -0.278112 1.10029 0
M  V30 18 H -3.5563 -2.75425 0.578694 0
M  V30 19 H -3.47917 -1.86579 -1.031 0
M  V30 20 H -1.99886 -2.37407 -0.184655 0
M  V30 21 H -0.0895023 3.33012 2.7075 0
M  V30 22 H -0.809854 4.08593 1.26247 0
M  V30 23 H 0.934328 0.795854 -2.4647 0
M  V30 24 H 2.72179 0.882723 -2.25146 0
M  V30 25 H 1.94599 -0.59321 -2.90307 0
M  V30 END ATOM
M  V30 BEGIN BOND
M  V30 1 1 1 2
M  V30 2 1 2 3
M  V30 3 1 3 4
M  V30 4 2 4 5
M  V30 5 1 5 6
M  V30 6 1 6 7
M  V30 7 1 7 8
M  V30 8 2 6 9
M  V30 9 1 9 10
M  V30 10 2 10 11
M  V30 11 1 10 12
M  V30 12 1 3 13
M  V30 13 1 11 4
M  V30 14 1 1 14
M  V30 15 1 1 15
M  V30 16 1 3 16
M  V30 17 1 7 17
M  V30 18 1 8 18
M  V30 19 1 8 19
M  V30 20 1 8 20
M  V30 21 1 12 21
M  V30 22 1 12 22
M  V30 23 1 13 23
M  V30 24 1 13 24
M  V30 25 1 13 25
M  V30 END BOND
M  V30 END CTAB
M  END
