
     RDKit          3D

  0  0  0  0  0  0  0  0  0  0999 V3000
M  V30 BEGIN CTAB
M  V30 COUNTS 35 35 0 0 0
M  V30 BEGIN ATOM
M  V30 1 N -4.93467 0.82159 -0.434785 0
M  V30 2 C -4.38173 -0.282449 0.297588 0
M  V30 3 C -3.11169 0.112378 1.06016 0
M  V30 4 C -2.04985 0.596156 0.17774 0
M  V30 5 O -1.58795 1.75777 0.302179 0
M  V30 6 N -1.51154 -0.224564 -0.839757 0
M  V30 7 C -0.476336 0.233914 -1.70839 0
M  V30 8 C 0.861595 0.260739 -1.07923 0
M  V30 9 C 1.91543 0.737044 -1.84082 0
M  V30 10 C 3.20006 0.784913 -1.30344 0
M  V30 11 C 3.4668 0.370533 -0.0244051 0
M  V30 12 C 2.42212 -0.101425 0.730092 0
M  V30 13 C 1.12943 -0.153188 0.199199 0
M  V30 14 S 5.10889 0.450145 0.607082 0
M  V30 15 O 5.08959 0.695405 2.08759 0
M  V30 16 O 5.79787 1.59606 -0.069043 0
M  V30 17 N 5.94052 -1.00013 0.283478 0
M  V30 18 C -2.72139 -1.09286 1.88212 0
M  V30 19 H -4.91252 0.646596 -1.48172 0
M  V30 20 H -5.96215 0.883027 -0.166786 0
M  V30 21 H -4.19673 -1.17528 -0.351098 0
M  V30 22 H -5.08627 -0.650554 1.09485 0
M  V30 23 H -3.44842 0.92619 1.76765 0
M  V30 24 H -1.89813 -1.18737 -0.936896 0
M  V30 25 H -0.683035 1.2933 -2.04513 0
M  V30 26 H -0.45603 -0.363079 -2.65066 0
M  V30 27 H 1.76779 1.08363 -2.872 0
M  V30 28 H 4.02911 1.16143 -1.90689 0
M  V30 29 H 2.57597 -0.434551 1.72667 0
M  V30 30 H 0.298867 -0.525764 0.790491 0
M  V30 31 H 5.69126 -1.45618 -0.620065 0
M  V30 32 H 6.04746 -1.64025 1.07803 0
M  V30 33 H -1.64622 -1.01503 2.12106 0
M  V30 34 H -2.92451 -2.03682 1.32138 0
M  V30 35 H -3.35358 -1.07132 2.80373 0
M  V30 END ATOM
M  V30 BEGIN BOND
M  V30 1 1 1 2
M  V30 2 1 2 3
M  V30 3 1 3 4
M  V30 4 2 4 5
M  V30 5 1 4 6
M  V30 6 1 6 7
M  V30 7 1 7 8
M  V30 8 2 8 9
M  V30 9 1 9 10
M  V30 10 2 10 11
M  V30 11 1 11 12
M  V30 12 2 12 13
M  V30 13 1 11 14
M  V30 14 2 14 15
M  V30 15 2 14 16
M  V30 16 1 14 17
M  V30 17 1 3 18
M  V30 18 1 13 8
M  V30 19 1 1 19
M  V30 20 1 1 20
M  V30 21 1 2 21
M  V30 22 1 2 22
M  V30 23 1 3 23
M  V30 24 1 6 24
M  V30 25 1 7 25
M  V30 26 1 7 26
M  V30 27 1 9 27
M  V30 28 1 10 28
M  V30 29 1 12 29
M  V30 30 1 13 30
M  V30 31 1 17 31
M  V30 32 1 17 32
M  V30 33 1 18 33
M  V30 34 1 18 34
M  V30 35 1 18 35
M  V30 END BOND
M  V30 END CTAB
M  END
