
     RDKit          3D

  0  0  0  0  0  0  0  0  0  0999 V3000
M  V30 BEGIN CTAB
M  V30 COUNTS 38 39 0 0 0
M  V30 BEGIN ATOM
M  V30 1 C -6.4539 1.63528 -1.07659 0
M  V30 2 C -5.0187 1.27631 -0.898394 0
M  V30 3 C -4.0872 1.60215 -1.88911 0
M  V30 4 C -2.77755 1.25184 -1.68929 0
M  V30 5 C -2.32163 0.579005 -0.536228 0
M  V30 6 N -0.958965 0.303735 -0.41756 0
M  V30 7 C -0.349048 -0.827339 0.264573 0
M  V30 8 O -1.18623 -1.63589 0.783797 0
M  V30 9 N 1.00248 -0.890396 0.267677 0
M  V30 10 C 2.3564 -0.953576 0.270794 0
M  V30 11 C 2.99672 -1.95679 -0.469962 0
M  V30 12 C 4.36981 -2.04554 -0.514838 0
M  V30 13 C 5.10768 -1.10512 0.202433 0
M  V30 14 C 6.57544 -1.13478 0.196621 0
M  V30 15 C 4.50088 -0.115021 0.935883 0
M  V30 16 N 5.29394 0.819016 1.65377 0
M  V30 17 C 3.13918 -0.0181604 0.985722 0
M  V30 18 C -3.25403 0.281036 0.402337 0
M  V30 19 C -4.6103 0.626726 0.229459 0
M  V30 20 N -5.5043 0.270914 1.27589 0
M  V30 21 H -7.0953 0.759968 -0.93759 0
M  V30 22 H -6.76424 2.48333 -0.436217 0
M  V30 23 H -6.58455 2.01261 -2.13545 0
M  V30 24 H -4.44662 2.11447 -2.76113 0
M  V30 25 H -2.05858 1.50824 -2.46516 0
M  V30 26 H -0.264106 0.96651 -0.861045 0
M  V30 27 H 0.95675 -1.99215 1.06588 0
M  V30 28 H 2.38784 -2.6665 -1.00748 0
M  V30 29 H 4.89019 -2.81004 -1.07998 0
M  V30 30 H 6.9007 -1.54493 -0.801949 0
M  V30 31 H 7.05287 -0.136857 0.304743 0
M  V30 32 H 6.99186 -1.83584 0.946779 0
M  V30 33 H 4.9719 1.80855 1.85199 0
M  V30 34 H 6.24106 0.583605 2.03005 0
M  V30 35 H 2.6029 0.753145 1.55665 0
M  V30 36 H -2.96749 -0.222022 1.31577 0
M  V30 37 H -5.32497 -0.612432 1.80121 0
M  V30 38 H -6.31089 0.866953 1.51337 0
M  V30 END ATOM
M  V30 BEGIN BOND
M  V30 1 1 1 2
M  V30 2 2 2 3
M  V30 3 1 3 4
M  V30 4 2 4 5
M  V30 5 1 5 6
M  V30 6 1 6 7
M  V30 7 2 7 8
M  V30 8 1 7 9
M  V30 9 1 9 10
M  V30 10 2 10 11
M  V30 11 1 11 12
M  V30 12 2 12 13
M  V30 13 1 13 14
M  V30 14 1 13 15
M  V30 15 1 15 16
M  V30 16 2 15 17
M  V30 17 1 5 18
M  V30 18 2 18 19
M  V30 19 1 19 20
M  V30 20 1 19 2
M  V30 21 1 17 10
M  V30 22 1 1 21
M  V30 23 1 1 22
M  V30 24 1 1 23
M  V30 25 1 3 24
M  V30 26 1 4 25
M  V30 27 1 6 26
M  V30 28 1 9 27
M  V30 29 1 11 28
M  V30 30 1 12 29
M  V30 31 1 14 30
M  V30 32 1 14 31
M  V30 33 1 14 32
M  V30 34 1 16 33
M  V30 35 1 16 34
M  V30 36 1 17 35
M  V30 37 1 18 36
M  V30 38 1 20 37
M  V30 39 1 20 38
M  V30 END BOND
M  V30 END CTAB
M  END
