
     RDKit          3D

  0  0  0  0  0  0  0  0  0  0999 V3000
M  V30 BEGIN CTAB
M  V30 COUNTS 31 31 0 0 0
M  V30 BEGIN ATOM
M  V30 1 C -2.24006 1.85307 1.70824 0
M  V30 2 C -0.873308 1.33245 1.39367 0
M  V30 3 C -0.761662 0.786342 -0.00941928 0
M  V30 4 C 0.616476 0.307416 -0.200398 0
M  V30 5 N 1.42592 0.890114 -1.08364 0
M  V30 6 C 2.70448 0.48248 -1.29354 0
M  V30 7 N 3.54062 1.14205 -2.2574 0
M  V30 8 N 3.15176 -0.553958 -0.569248 0
M  V30 9 C 2.33559 -1.14157 0.321394 0
M  V30 10 N 1.06807 -0.721095 0.514884 0
M  V30 11 N 2.83923 -2.25117 1.08567 0
M  V30 12 C -1.80488 -0.243297 -0.31319 0
M  V30 13 C -1.62731 -0.740289 -1.73144 0
M  V30 14 C -1.76014 -1.43654 0.591978 0
M  V30 15 H -2.77393 2.22049 0.80983 0
M  V30 16 H -2.83343 1.06964 2.24747 0
M  V30 17 H -2.14001 2.69119 2.42307 0
M  V30 18 H -0.607286 0.546902 2.1423 0
M  V30 19 H -0.141699 2.15496 1.52935 0
M  V30 20 H -0.956094 1.65291 -0.694707 0
M  V30 21 H 3.68203 0.781764 -3.22071 0
M  V30 22 H 4.05034 2.03356 -2.01482 0
M  V30 23 H 2.98182 -3.13918 0.584572 0
M  V30 24 H 3.02277 -2.07505 2.08988 0
M  V30 25 H -2.8101 0.19421 -0.250151 0
M  V30 26 H -1.96594 -1.79163 -1.83961 0
M  V30 27 H -2.15914 -0.0532934 -2.41055 0
M  V30 28 H -0.527317 -0.66552 -1.95687 0
M  V30 29 H -1.03867 -2.20548 0.232848 0
M  V30 30 H -2.76737 -1.9302 0.511701 0
M  V30 31 H -1.63073 -1.19127 1.65885 0
M  V30 END ATOM
M  V30 BEGIN BOND
M  V30 1 1 1 2
M  V30 2 1 2 3
M  V30 3 1 3 4
M  V30 4 2 4 5
M  V30 5 1 5 6
M  V30 6 1 6 7
M  V30 7 2 6 8
M  V30 8 1 8 9
M  V30 9 2 9 10
M  V30 10 1 9 11
M  V30 11 1 3 12
M  V30 12 1 12 13
M  V30 13 1 12 14
M  V30 14 1 10 4
M  V30 15 1 1 15
M  V30 16 1 1 16
M  V30 17 1 1 17
M  V30 18 1 2 18
M  V30 19 1 2 19
M  V30 20 1 3 20
M  V30 21 1 7 21
M  V30 22 1 7 22
M  V30 23 1 11 23
M  V30 24 1 11 24
M  V30 25 1 12 25
M  V30 26 1 13 26
M  V30 27 1 13 27
M  V30 28 1 13 28
M  V30 29 1 14 29
M  V30 30 1 14 30
M  V30 31 1 14 31
M  V30 END BOND
M  V30 END CTAB
M  END
