
     RDKit          3D

  0  0  0  0  0  0  0  0  0  0999 V3000
M  V30 BEGIN CTAB
M  V30 COUNTS 53 55 0 0 0
M  V30 BEGIN ATOM
M  V30 1 C -5.13894 3.39654 1.92086 0
M  V30 2 O -4.71847 2.71394 0.755318 0
M  V30 3 C -5.27749 1.47501 0.48452 0
M  V30 4 N -6.19042 0.901426 1.27178 0
M  V30 5 C -6.66426 -0.315114 0.90116 0
M  V30 6 O -7.6232 -0.891379 1.74893 0
M  V30 7 C -8.16188 -2.14985 1.4331 0
M  V30 8 N -6.2735 -0.951575 -0.182589 0
M  V30 9 C -5.34219 -0.394718 -1.00833 0
M  V30 10 C -4.83844 0.823798 -0.680293 0
M  V30 11 N -4.98291 -1.07262 -2.16892 0
M  V30 12 S -3.80218 -0.602586 -3.29502 0
M  V30 13 O -3.73903 -1.55702 -4.46132 0
M  V30 14 O -4.07122 0.809462 -3.80323 0
M  V30 15 C -2.22456 -0.570438 -2.57928 0
M  V30 16 C -1.48981 0.536055 -2.26658 0
M  V30 17 C -0.217471 0.481344 -1.68792 0
M  V30 18 C 0.329158 -0.740409 -1.41745 0
M  V30 19 C -0.381533 -1.92209 -1.7174 0
M  V30 20 C -1.61329 -1.80065 -2.27854 0
M  V30 21 N 1.60084 -0.884756 -0.860384 0
M  V30 22 C 2.58966 0.100941 -0.831803 0
M  V30 23 O 2.48688 1.24555 -1.30189 0
M  V30 24 C 3.91135 -0.210427 -0.183438 0
M  V30 25 S 4.97823 1.22606 -0.291239 0
M  V30 26 C 6.54696 0.818041 0.492008 0
M  V30 27 N 6.75028 1.02992 1.80937 0
M  V30 28 C 7.91036 0.735362 2.42129 0
M  V30 29 N 8.11453 0.961442 3.80647 0
M  V30 30 C 8.92585 0.196087 1.66473 0
M  V30 31 C 8.75459 -0.0353179 0.3122 0
M  V30 32 N 7.56345 0.290355 -0.209631 0
M  V30 33 N 9.81519 -0.589269 -0.434281 0
M  V30 34 H -6.24419 3.48925 1.9662 0
M  V30 35 H -4.77932 2.84998 2.80636 0
M  V30 36 H -4.69181 4.403 1.94262 0
M  V30 37 H -7.44854 -2.85925 1.00823 0
M  V30 38 H -8.64074 -2.58977 2.33435 0
M  V30 39 H -8.94356 -1.98039 0.636309 0
M  V30 40 H -4.12848 1.31774 -1.30709 0
M  V30 41 H -5.50147 -2.0027 -2.39563 0
M  V30 42 H -1.92401 1.51308 -2.48211 0
M  V30 43 H 0.251032 1.42784 -1.47692 0
M  V30 44 H 0.0700987 -2.87456 -1.49437 0
M  V30 45 H -2.15933 -2.70571 -2.50901 0
M  V30 46 H 1.87357 -1.82405 -0.403612 0
M  V30 47 H 4.30748 -1.10112 -0.722804 0
M  V30 48 H 3.76275 -0.528138 0.870498 0
M  V30 49 H 8.68823 1.76485 4.1285 0
M  V30 50 H 7.67328 0.300442 4.47337 0
M  V30 51 H 9.89207 -0.0612597 2.1192 0
M  V30 52 H 9.88017 -0.445948 -1.45357 0
M  V30 53 H 10.5363 -1.14642 0.0493297 0
M  V30 END ATOM
M  V30 BEGIN BOND
M  V30 1 1 1 2
M  V30 2 1 2 3
M  V30 3 2 3 4
M  V30 4 1 4 5
M  V30 5 1 5 6
M  V30 6 1 6 7
M  V30 7 2 5 8
M  V30 8 1 8 9
M  V30 9 2 9 10
M  V30 10 1 9 11
M  V30 11 1 11 12
M  V30 12 2 12 13
M  V30 13 2 12 14
M  V30 14 1 12 15
M  V30 15 2 15 16
M  V30 16 1 16 17
M  V30 17 2 17 18
M  V30 18 1 18 19
M  V30 19 2 19 20
M  V30 20 1 18 21
M  V30 21 1 21 22
M  V30 22 2 22 23
M  V30 23 1 22 24
M  V30 24 1 24 25
M  V30 25 1 25 26
M  V30 26 2 26 27
M  V30 27 1 27 28
M  V30 28 1 28 29
M  V30 29 2 28 30
M  V30 30 1 30 31
M  V30 31 2 31 32
M  V30 32 1 31 33
M  V30 33 1 10 3
M  V30 34 1 20 15
M  V30 35 1 32 26
M  V30 36 1 1 34
M  V30 37 1 1 35
M  V30 38 1 1 36
M  V30 39 1 7 37
M  V30 40 1 7 38
M  V30 41 1 7 39
M  V30 42 1 10 40
M  V30 43 1 11 41
M  V30 44 1 16 42
M  V30 45 1 17 43
M  V30 46 1 19 44
M  V30 47 1 20 45
M  V30 48 1 21 46
M  V30 49 1 24 47
M  V30 50 1 24 48
M  V30 51 1 29 49
M  V30 52 1 29 50
M  V30 53 1 30 51
M  V30 54 1 33 52
M  V30 55 1 33 53
M  V30 END BOND
M  V30 END CTAB
M  END
