
     RDKit          3D

  0  0  0  0  0  0  0  0  0  0999 V3000
M  V30 BEGIN CTAB
M  V30 COUNTS 21 22 0 0 0
M  V30 BEGIN ATOM
M  V30 1 N -3.03306 -0.866745 0.0585317 0
M  V30 2 C -3.19607 0.541106 0.0266621 0
M  V30 3 N -4.51739 1.12009 0.0306082 0
M  V30 4 N -2.16135 1.29388 -0.00563305 0
M  V30 5 C -0.85851 0.71061 -0.00922518 0
M  V30 6 N 0.31667 1.2962 -0.0393524 0
M  V30 7 C 1.4126 0.594509 -0.0372777 0
M  V30 8 C 1.29477 -0.767822 -0.00273781 0
M  V30 9 S -0.402861 -0.957689 0.0249198 0
M  V30 10 C 2.40609 -1.61829 0.00271699 0
M  V30 11 C 3.69213 -1.11267 -0.0269899 0
M  V30 12 C 3.78186 0.265353 -0.061527 0
M  V30 13 C 2.72424 1.11886 -0.0677848 0
M  V30 14 H -2.96908 -1.40428 -0.807651 0
M  V30 15 H -2.9783 -1.35524 0.9753 0
M  V30 16 H -4.95517 1.50551 -0.823272 0
M  V30 17 H -5.03074 1.13997 0.937948 0
M  V30 18 H 2.21384 -2.66096 0.0305303 0
M  V30 19 H 4.57352 -1.72806 -0.024089 0
M  V30 20 H 4.77983 0.694592 -0.085475 0
M  V30 21 H 2.90697 2.19107 -0.0962026 0
M  V30 END ATOM
M  V30 BEGIN BOND
M  V30 1 1 1 2
M  V30 2 1 2 3
M  V30 3 2 2 4
M  V30 4 1 4 5
M  V30 5 2 5 6
M  V30 6 1 6 7
M  V30 7 2 7 8
M  V30 8 1 8 9
M  V30 9 1 8 10
M  V30 10 2 10 11
M  V30 11 1 11 12
M  V30 12 2 12 13
M  V30 13 1 9 5
M  V30 14 1 13 7
M  V30 15 1 1 14
M  V30 16 1 1 15
M  V30 17 1 3 16
M  V30 18 1 3 17
M  V30 19 1 10 18
M  V30 20 1 11 19
M  V30 21 1 12 20
M  V30 22 1 13 21
M  V30 END BOND
M  V30 END CTAB
M  END
