
     RDKit          3D

  0  0  0  0  0  0  0  0  0  0999 V3000
M  V30 BEGIN CTAB
M  V30 COUNTS 30 31 0 0 0
M  V30 BEGIN ATOM
M  V30 1 C -2.5764 1.63416 1.44878 0
M  V30 2 C -2.76081 0.674536 0.331892 0
M  V30 3 C -2.02964 -0.611119 0.418224 0
M  V30 4 C -2.35498 -1.46007 -0.795431 0
M  V30 5 C -0.940269 -1.95236 -0.56736 0
M  V30 6 N -0.64341 -0.659543 0.0056128 0
M  V30 7 C 0.533805 0.110234 0.0525712 0
M  V30 8 N 0.467501 1.37788 0.483287 0
M  V30 9 C 1.5563 2.15626 0.533812 0
M  V30 10 C 2.80559 1.71485 0.151578 0
M  V30 11 C 2.91716 0.433685 -0.291927 0
M  V30 12 C 1.7592 -0.364111 -0.335528 0
M  V30 13 N 1.94828 -1.68893 -0.793866 0
M  V30 14 N 4.16991 -0.0788332 -0.698199 0
M  V30 15 H -3.59147 1.86054 1.89235 0
M  V30 16 H -2.21348 2.63766 1.1315 0
M  V30 17 H -1.96671 1.2152 2.28603 0
M  V30 18 H -3.85577 0.404091 0.250972 0
M  V30 19 H -2.56033 1.18891 -0.636837 0
M  V30 20 H -2.24139 -1.17901 1.35667 0
M  V30 21 H -2.51758 -0.891181 -1.72407 0
M  V30 22 H -3.07762 -2.28393 -0.600071 0
M  V30 23 H -0.38676 -2.16235 -1.50282 0
M  V30 24 H -0.907759 -2.72948 0.19513 0
M  V30 25 H 1.47024 3.18148 0.888293 0
M  V30 26 H 3.68462 2.34093 0.191425 0
M  V30 27 H 2.07053 -1.85686 -1.8032 0
M  V30 28 H 1.96557 -2.484 -0.137832 0
M  V30 29 H 4.49953 0.113289 -1.66008 0
M  V30 30 H 4.77613 -0.641929 -0.0708999 0
M  V30 END ATOM
M  V30 BEGIN BOND
M  V30 1 1 1 2
M  V30 2 1 2 3
M  V30 3 1 3 4
M  V30 4 1 4 5
M  V30 5 1 5 6
M  V30 6 1 6 7
M  V30 7 2 7 8
M  V30 8 1 8 9
M  V30 9 2 9 10
M  V30 10 1 10 11
M  V30 11 2 11 12
M  V30 12 1 12 13
M  V30 13 1 11 14
M  V30 14 1 6 3
M  V30 15 1 12 7
M  V30 16 1 1 15
M  V30 17 1 1 16
M  V30 18 1 1 17
M  V30 19 1 2 18
M  V30 20 1 2 19
M  V30 21 1 3 20
M  V30 22 1 4 21
M  V30 23 1 4 22
M  V30 24 1 5 23
M  V30 25 1 5 24
M  V30 26 1 9 25
M  V30 27 1 10 26
M  V30 28 1 13 27
M  V30 29 1 13 28
M  V30 30 1 14 29
M  V30 31 1 14 30
M  V30 END BOND
M  V30 END CTAB
M  END
