
     RDKit          3D

  0  0  0  0  0  0  0  0  0  0999 V3000
M  V30 BEGIN CTAB
M  V30 COUNTS 34 35 0 0 0
M  V30 BEGIN ATOM
M  V30 1 N -4.72235 1.76107 0.594828 0
M  V30 2 C -3.38642 1.32437 0.441109 0 CFG=2
M  V30 3 C -2.912 1.48822 -1.00718 0
M  V30 4 C -1.70296 0.548555 -0.982011 0
M  V30 5 N -1.99031 -0.464476 -0.020087 0
M  V30 6 C -3.25042 -0.176493 0.597804 0
M  V30 7 S -0.798442 -0.658616 1.18502 0
M  V30 8 O -0.649412 0.625678 1.98562 0
M  V30 9 O -1.32312 -1.68655 2.17572 0
M  V30 10 C 0.746434 -1.12835 0.54955 0
M  V30 11 C 1.0751 -2.46004 0.40358 0
M  V30 12 C 2.31685 -2.84461 -0.107232 0
M  V30 13 C 3.25578 -1.90731 -0.482724 0
M  V30 14 C 2.9282 -0.577392 -0.337214 0
M  V30 15 C 1.71423 -0.225945 0.161954 0
M  V30 16 S 4.12418 0.605162 -0.815576 0
M  V30 17 O 4.96597 0.0491016 -1.92595 0
M  V30 18 O 3.44393 1.87312 -1.30636 0
M  V30 19 N 5.16864 1.02775 0.486421 0
M  V30 20 H -5.34906 1.63885 -0.15064 0
M  V30 21 H -4.76981 2.67557 1.0261 0
M  V30 22 H -2.67344 1.79636 1.13305 0
M  V30 23 H -2.6316 2.52132 -1.23232 0
M  V30 24 H -3.70229 1.06587 -1.63788 0
M  V30 25 H -0.77722 1.12134 -0.774663 0
M  V30 26 H -1.63712 0.112241 -2.01748 0
M  V30 27 H -3.26336 -0.48816 1.66853 0
M  V30 28 H -4.07419 -0.632635 0.011374 0
M  V30 29 H 0.390027 -3.24807 0.676634 0
M  V30 30 H 2.59003 -3.88776 -0.228003 0
M  V30 31 H 4.21687 -2.22963 -0.878303 0
M  V30 32 H 1.45428 0.832907 0.27745 0
M  V30 33 H 5.06424 0.418828 1.31554 0
M  V30 34 H 6.15874 1.12972 0.169788 0
M  V30 END ATOM
M  V30 BEGIN BOND
M  V30 1 1 1 2
M  V30 2 1 2 3
M  V30 3 1 3 4
M  V30 4 1 4 5
M  V30 5 1 5 6
M  V30 6 1 5 7
M  V30 7 2 7 8
M  V30 8 2 7 9
M  V30 9 1 7 10
M  V30 10 2 10 11
M  V30 11 1 11 12
M  V30 12 2 12 13
M  V30 13 1 13 14
M  V30 14 2 14 15
M  V30 15 1 14 16
M  V30 16 2 16 17
M  V30 17 2 16 18
M  V30 18 1 16 19
M  V30 19 1 6 2
M  V30 20 1 15 10
M  V30 21 1 1 20
M  V30 22 1 1 21
M  V30 23 1 2 22 CFG=1
M  V30 24 1 3 23
M  V30 25 1 3 24
M  V30 26 1 4 25
M  V30 27 1 4 26
M  V30 28 1 6 27
M  V30 29 1 6 28
M  V30 30 1 11 29
M  V30 31 1 12 30
M  V30 32 1 13 31
M  V30 33 1 15 32
M  V30 34 1 19 33
M  V30 35 1 19 34
M  V30 END BOND
M  V30 END CTAB
M  END
