
     RDKit          3D

  0  0  0  0  0  0  0  0  0  0999 V3000
M  V30 BEGIN CTAB
M  V30 COUNTS 24 25 0 0 0
M  V30 BEGIN ATOM
M  V30 1 N -5.6975 -0.147744 0.571268 0
M  V30 2 C -4.62921 0.0653378 0.195425 0
M  V30 3 C -3.30788 0.334061 -0.246374 0
M  V30 4 C -2.97872 1.12412 -1.3162 0
M  V30 5 N -1.65299 1.12102 -1.3975 0
M  V30 6 N -1.10075 0.386413 -0.458077 0
M  V30 7 C -2.09125 -0.115546 0.27198 0
M  V30 8 N -2.04262 -0.971621 1.40509 0
M  V30 9 C 0.293172 0.193823 -0.292295 0
M  V30 10 C 1.18605 1.25277 -0.510999 0
M  V30 11 C 2.54426 1.07624 -0.352507 0
M  V30 12 C 3.0676 -0.142779 0.0248676 0
M  V30 13 C 2.16842 -1.16211 0.232176 0
M  V30 14 C 0.805492 -1.0356 0.0870451 0
M  V30 15 N 4.48009 -0.328893 0.190389 0
M  V30 16 H -3.66079 1.6552 -1.97714 0
M  V30 17 H -1.88035 -0.660493 2.38209 0
M  V30 18 H -2.18109 -1.9881 1.23618 0
M  V30 19 H 0.782204 2.22909 -0.811999 0
M  V30 20 H 3.24648 1.89779 -0.521413 0
M  V30 21 H 2.56427 -2.12317 0.528339 0
M  V30 22 H 0.121549 -1.86765 0.260309 0
M  V30 23 H 5.13378 0.400862 -0.110664 0
M  V30 24 H 4.82979 -1.19301 0.610006 0
M  V30 END ATOM
M  V30 BEGIN BOND
M  V30 1 3 1 2
M  V30 2 1 2 3
M  V30 3 1 3 4
M  V30 4 2 4 5
M  V30 5 1 5 6
M  V30 6 1 6 7
M  V30 7 1 7 8
M  V30 8 1 6 9
M  V30 9 2 9 10
M  V30 10 1 10 11
M  V30 11 2 11 12
M  V30 12 1 12 13
M  V30 13 2 13 14
M  V30 14 1 12 15
M  V30 15 2 7 3
M  V30 16 1 14 9
M  V30 17 1 4 16
M  V30 18 1 8 17
M  V30 19 1 8 18
M  V30 20 1 10 19
M  V30 21 1 11 20
M  V30 22 1 13 21
M  V30 23 1 14 22
M  V30 24 1 15 23
M  V30 25 1 15 24
M  V30 END BOND
M  V30 END CTAB
M  END
