
     RDKit          3D

  0  0  0  0  0  0  0  0  0  0999 V3000
M  V30 BEGIN CTAB
M  V30 COUNTS 26 26 0 0 0
M  V30 BEGIN ATOM
M  V30 1 N 5.53011 0.022526 0.975384 0
M  V30 2 N 4.14042 -0.00161853 1.13029 0
M  V30 3 C 3.27381 0.0344268 0.00631502 0
M  V30 4 O 3.75199 0.0896116 -1.16661 0
M  V30 5 C 1.82708 0.00641365 0.236284 0
M  V30 6 S 0.865315 0.0578587 -1.28637 0
M  V30 7 C -0.878333 0.0196135 -0.900337 0
M  V30 8 N -1.27874 -0.0387669 0.376173 0
M  V30 9 C -2.54359 -0.0718367 0.783328 0
M  V30 10 C -2.81018 -0.135979 2.23886 0
M  V30 11 C -3.53419 -0.0446451 -0.169472 0
M  V30 12 C -3.13613 0.0158928 -1.4984 0
M  V30 13 O -4.05072 0.0408968 -2.37573 0
M  V30 14 N -1.82895 0.0468926 -1.8431 0
M  V30 15 N -1.47127 0.10726 -3.1801 0
M  V30 16 Br -5.34182 -0.0901643 0.370732 0
M  V30 17 H 5.76896 0.594242 0.132605 0
M  V30 18 H 5.99717 0.347693 1.84533 0
M  V30 19 H 3.77603 -0.046993 2.10332 0
M  V30 20 H 1.59301 -0.971361 0.751295 0
M  V30 21 H 1.54169 0.798178 0.952247 0
M  V30 22 H -3.67547 -0.773076 2.48835 0
M  V30 23 H -1.93167 -0.5617 2.7664 0
M  V30 24 H -2.92638 0.902002 2.66584 0
M  V30 25 H -2.11562 0.476351 -3.90634 0
M  V30 26 H -0.54249 -0.216999 -3.4963 0
M  V30 END ATOM
M  V30 BEGIN BOND
M  V30 1 1 1 2
M  V30 2 1 2 3
M  V30 3 2 3 4
M  V30 4 1 3 5
M  V30 5 1 5 6
M  V30 6 1 6 7
M  V30 7 2 7 8
M  V30 8 1 8 9
M  V30 9 1 9 10
M  V30 10 2 9 11
M  V30 11 1 11 12
M  V30 12 2 12 13
M  V30 13 1 12 14
M  V30 14 1 14 15
M  V30 15 1 11 16
M  V30 16 1 14 7
M  V30 17 1 1 17
M  V30 18 1 1 18
M  V30 19 1 2 19
M  V30 20 1 5 20
M  V30 21 1 5 21
M  V30 22 1 10 22
M  V30 23 1 10 23
M  V30 24 1 10 24
M  V30 25 1 15 25
M  V30 26 1 15 26
M  V30 END BOND
M  V30 END CTAB
M  END
