
     RDKit          3D

  0  0  0  0  0  0  0  0  0  0999 V3000
M  V30 BEGIN CTAB
M  V30 COUNTS 23 23 0 0 0
M  V30 BEGIN ATOM
M  V30 1 C 3.61815 0.327797 -0.493069 0
M  V30 2 O 2.60936 -0.672573 -0.689504 0
M  V30 3 C 1.29401 -0.342925 -0.362219 0
M  V30 4 C 0.966389 0.905254 0.135637 0
M  V30 5 C -0.320871 1.20971 0.44945 0
M  V30 6 N -0.712589 2.49246 0.969859 0
M  V30 7 C -1.31769 0.268867 0.27236 0
M  V30 8 C -0.987896 -0.992335 -0.230492 0
M  V30 9 C 0.321839 -1.28846 -0.544914 0
M  V30 10 C -2.0556 -1.97638 -0.411709 0
M  V30 11 O -3.25119 -1.71305 -0.127181 0
M  V30 12 O -1.71824 -3.224 -0.910913 0
M  V30 13 N -2.66152 0.543426 0.58452 0
M  V30 14 H 4.57254 0.0182981 -0.928526 0
M  V30 15 H 3.64234 0.565593 0.573642 0
M  V30 16 H 3.24123 1.22398 -1.06752 0
M  V30 17 H 1.74008 1.65957 0.281682 0
M  V30 18 H -1.65653 2.8588 0.717365 0
M  V30 19 H -0.067107 3.03234 1.57952 0
M  V30 20 H 0.543587 -2.286 -0.936404 0
M  V30 21 H -1.43357 -3.9231 -0.252109 0
M  V30 22 H -3.24074 1.12895 -0.0550283 0
M  V30 23 H -3.12597 0.183776 1.44555 0
M  V30 END ATOM
M  V30 BEGIN BOND
M  V30 1 1 1 2
M  V30 2 1 2 3
M  V30 3 2 3 4
M  V30 4 1 4 5
M  V30 5 1 5 6
M  V30 6 2 5 7
M  V30 7 1 7 8
M  V30 8 2 8 9
M  V30 9 1 8 10
M  V30 10 2 10 11
M  V30 11 1 10 12
M  V30 12 1 7 13
M  V30 13 1 9 3
M  V30 14 1 1 14
M  V30 15 1 1 15
M  V30 16 1 1 16
M  V30 17 1 4 17
M  V30 18 1 6 18
M  V30 19 1 6 19
M  V30 20 1 9 20
M  V30 21 1 12 21
M  V30 22 1 13 22
M  V30 23 1 13 23
M  V30 END BOND
M  V30 END CTAB
M  END
