
     RDKit          3D

  0  0  0  0  0  0  0  0  0  0999 V3000
M  V30 BEGIN CTAB
M  V30 COUNTS 34 35 0 0 0
M  V30 BEGIN ATOM
M  V30 1 N -4.2893 0.751751 -0.133782 0
M  V30 2 C -2.94396 0.427662 -0.562698 0
M  V30 3 C -2.05648 1.57989 -0.117688 0
M  V30 4 N -0.678698 1.3 -0.28692 0
M  V30 5 C -0.218355 0.0162431 0.110389 0
M  V30 6 C -1.03528 -1.09922 -0.404976 0
M  V30 7 C -2.49262 -0.865689 0.0178338 0
M  V30 8 C -0.603863 -2.45302 0.155559 0
M  V30 9 C 1.24028 -0.0637653 -0.148596 0
M  V30 10 C 1.87394 -1.00861 -0.904835 0
M  V30 11 C 3.26094 -0.967488 -1.04695 0
M  V30 12 C 4.00354 0.0176861 -0.432724 0
M  V30 13 C 3.37381 0.981141 0.335698 0
M  V30 14 C 2.01269 0.918186 0.459287 0
M  V30 15 N 4.16946 1.98228 0.954475 0
M  V30 16 H -4.77703 1.41044 -0.763617 0
M  V30 17 H -4.89489 -0.0864921 -0.0255424 0
M  V30 18 H -2.92138 0.393793 -1.66265 0
M  V30 19 H -2.32351 2.44074 -0.79332 0
M  V30 20 H -2.27303 1.91583 0.90244 0
M  V30 21 H -0.395002 1.45383 -1.28567 0
M  V30 22 H -0.304419 -0.0331998 1.24574 0
M  V30 23 H -1.04703 -1.11333 -1.51416 0
M  V30 24 H -3.14342 -1.67278 -0.31379 0
M  V30 25 H -2.49095 -0.750982 1.13934 0
M  V30 26 H -1.44398 -2.85363 0.755683 0
M  V30 27 H 0.320272 -2.37886 0.770164 0
M  V30 28 H -0.504898 -3.14409 -0.706421 0
M  V30 29 H 1.33494 -1.78896 -1.41199 0
M  V30 30 H 3.71831 -1.72403 -1.64576 0
M  V30 31 H 5.08891 0.0398628 -0.551096 0
M  V30 32 H 1.53889 1.69168 1.07224 0
M  V30 33 H 5.09428 2.23133 0.563538 0
M  V30 34 H 3.80784 2.4518 1.79541 0
M  V30 END ATOM
M  V30 BEGIN BOND
M  V30 1 1 1 2
M  V30 2 1 2 3
M  V30 3 1 3 4
M  V30 4 1 4 5
M  V30 5 1 5 6
M  V30 6 1 6 7
M  V30 7 1 6 8
M  V30 8 1 5 9
M  V30 9 2 9 10
M  V30 10 1 10 11
M  V30 11 2 11 12
M  V30 12 1 12 13
M  V30 13 2 13 14
M  V30 14 1 13 15
M  V30 15 1 7 2
M  V30 16 1 14 9
M  V30 17 1 1 16
M  V30 18 1 1 17
M  V30 19 1 2 18
M  V30 20 1 3 19
M  V30 21 1 3 20
M  V30 22 1 4 21
M  V30 23 1 5 22
M  V30 24 1 6 23
M  V30 25 1 7 24
M  V30 26 1 7 25
M  V30 27 1 8 26
M  V30 28 1 8 27
M  V30 29 1 8 28
M  V30 30 1 10 29
M  V30 31 1 11 30
M  V30 32 1 12 31
M  V30 33 1 14 32
M  V30 34 1 15 33
M  V30 35 1 15 34
M  V30 END BOND
M  V30 END CTAB
M  END
