
     RDKit          3D

  0  0  0  0  0  0  0  0  0  0999 V3000
M  V30 BEGIN CTAB
M  V30 COUNTS 61 65 0 0 0
M  V30 BEGIN ATOM
M  V30 1 C -8.72194 1.52943 0.503285 0
M  V30 2 O -7.95854 0.962763 -0.502126 0
M  V30 3 C -7.70787 -0.372753 -0.325856 0
M  V30 4 C -6.92902 -0.710601 0.900892 0
M  V30 5 N -5.6328 -0.0788774 0.860881 0
M  V30 6 C -5.2631 1.11111 1.32283 0
M  V30 7 N -3.95487 1.30456 1.07935 0
M  V30 8 C -3.49402 0.22694 0.457972 0
M  V30 9 C -4.53085 -0.652819 0.311323 0
M  V30 10 C -4.33193 -1.86529 -0.306172 0
M  V30 11 C -3.10127 -2.19466 -0.774805 0
M  V30 12 C -2.00947 -1.29908 -0.63543 0
M  V30 13 C -2.22125 -0.0975133 -0.0184008 0
M  V30 14 C -0.726412 -1.71872 -1.1117 0
M  V30 15 O -0.701092 -3.00487 -1.43633 0
M  V30 16 N 0.470927 -1.03763 -1.29442 0
M  V30 17 C 1.65471 -1.87562 -1.79283 0
M  V30 18 C 2.93089 -1.14303 -1.44974 0
M  V30 19 C 2.77215 -0.587325 -0.0537522 0 CFG=2
M  V30 20 C 1.79168 0.555256 0.00680252 0 CFG=2
M  V30 21 C 0.808268 0.318243 -1.14701 0
M  V30 22 C 2.41937 1.89479 -0.230664 0
M  V30 23 O 1.14666 0.532892 1.20209 0
M  V30 24 N 4.02021 -0.311126 0.594751 0
M  V30 25 C 4.34139 -0.530121 1.88426 0
M  V30 26 N 5.59564 -0.151159 2.14323 0
M  V30 27 C 6.07056 0.321748 0.966257 0
M  V30 28 C 5.10417 0.229883 -0.00781084 0
M  V30 29 N 5.38877 0.651597 -1.24897 0
M  V30 30 C 6.61615 1.1482 -1.48281 0
M  V30 31 N 6.98675 1.61767 -2.79166 0
M  V30 32 N 7.57108 1.24395 -0.53954 0
M  V30 33 C 7.32592 0.831711 0.719188 0
M  V30 34 N 8.30786 0.914334 1.75104 0
M  V30 35 H -8.85554 2.61165 0.253787 0
M  V30 36 H -9.77325 1.11773 0.489819 0
M  V30 37 H -8.36672 1.34951 1.52281 0
M  V30 38 H -7.11235 -0.716583 -1.19898 0
M  V30 39 H -8.64399 -0.983056 -0.296641 0
M  V30 40 H -6.78133 -1.82914 0.888837 0
M  V30 41 H -7.41342 -0.410644 1.84893 0
M  V30 42 H -5.8905 1.83988 1.82465 0
M  V30 43 H -5.15298 -2.55651 -0.419184 0
M  V30 44 H -2.96751 -3.15702 -1.26194 0
M  V30 45 H -1.45217 0.619852 0.150448 0
M  V30 46 H 1.56846 -2.78564 -1.17295 0
M  V30 47 H 1.51344 -2.07866 -2.85585 0
M  V30 48 H 3.21334 -0.388858 -2.19932 0
M  V30 49 H 3.78508 -1.88047 -1.3645 0
M  V30 50 H 2.28943 -1.42329 0.536865 0
M  V30 51 H 0.0334821 1.06425 -1.2189 0
M  V30 52 H 1.42021 0.557893 -2.12687 0
M  V30 53 H 2.66429 2.08861 -1.30087 0
M  V30 54 H 3.26503 2.12077 0.447739 0
M  V30 55 H 1.63252 2.66067 0.0224982 0
M  V30 56 H 1.67052 0.00961602 1.85497 0
M  V30 57 H 3.70562 -0.960603 2.67512 0
M  V30 58 H 7.46533 0.945165 -3.42181 0
M  V30 59 H 6.77257 2.58429 -3.06153 0
M  V30 60 H 8.91143 0.0827178 1.9364 0
M  V30 61 H 8.4603 1.75399 2.33189 0
M  V30 END ATOM
M  V30 BEGIN BOND
M  V30 1 1 1 2
M  V30 2 1 2 3
M  V30 3 1 3 4
M  V30 4 1 4 5
M  V30 5 1 5 6
M  V30 6 2 6 7
M  V30 7 1 7 8
M  V30 8 2 8 9
M  V30 9 1 9 10
M  V30 10 2 10 11
M  V30 11 1 11 12
M  V30 12 2 12 13
M  V30 13 1 12 14
M  V30 14 2 14 15
M  V30 15 1 14 16
M  V30 16 1 16 17
M  V30 17 1 17 18
M  V30 18 1 18 19
M  V30 19 1 19 20
M  V30 20 1 20 21
M  V30 21 1 20 22
M  V30 22 1 20 23 CFG=1
M  V30 23 1 19 24
M  V30 24 1 24 25
M  V30 25 2 25 26
M  V30 26 1 26 27
M  V30 27 2 27 28
M  V30 28 1 28 29
M  V30 29 2 29 30
M  V30 30 1 30 31
M  V30 31 1 30 32
M  V30 32 2 32 33
M  V30 33 1 33 34
M  V30 34 1 9 5
M  V30 35 1 21 16
M  V30 36 1 28 24
M  V30 37 1 13 8
M  V30 38 1 33 27
M  V30 39 1 1 35
M  V30 40 1 1 36
M  V30 41 1 1 37
M  V30 42 1 3 38
M  V30 43 1 3 39
M  V30 44 1 4 40
M  V30 45 1 4 41
M  V30 46 1 6 42
M  V30 47 1 10 43
M  V30 48 1 11 44
M  V30 49 1 13 45
M  V30 50 1 17 46
M  V30 51 1 17 47
M  V30 52 1 18 48
M  V30 53 1 18 49
M  V30 54 1 19 50 CFG=1
M  V30 55 1 21 51
M  V30 56 1 21 52
M  V30 57 1 22 53
M  V30 58 1 22 54
M  V30 59 1 22 55
M  V30 60 1 23 56
M  V30 61 1 25 57
M  V30 62 1 31 58
M  V30 63 1 31 59
M  V30 64 1 34 60
M  V30 65 1 34 61
M  V30 END BOND
M  V30 END CTAB
M  END
