
     RDKit          3D

  0  0  0  0  0  0  0  0  0  0999 V3000
M  V30 BEGIN CTAB
M  V30 COUNTS 29 29 0 0 0
M  V30 BEGIN ATOM
M  V30 1 C 4.05951 1.22223 0.0297592 0
M  V30 2 C 3.97389 -0.278012 -0.174717 0
M  V30 3 O 2.80506 -0.67366 -0.819929 0
M  V30 4 C 1.52321 -0.474062 -0.352898 0
M  V30 5 O 1.35724 0.105253 0.742377 0
M  V30 6 C 0.379623 -0.929443 -1.12247 0
M  V30 7 C -0.932141 -0.662411 -0.489046 0
M  V30 8 C -1.3809 -1.47008 0.535418 0
M  V30 9 C -0.562533 -2.5648 0.951636 0
M  V30 10 N 0.0977943 -3.47258 1.28463 0
M  V30 11 C -2.60273 -1.24254 1.16015 0
M  V30 12 C -3.38408 -0.187797 0.748494 0
M  V30 13 C -2.95264 0.629631 -0.273092 0
M  V30 14 C -1.73096 0.390949 -0.887975 0
M  V30 15 N -1.31143 1.25759 -1.93978 0
M  V30 16 N -3.71575 1.73654 -0.739933 0
M  V30 17 H 3.47499 1.49392 0.930752 0
M  V30 18 H 5.12112 1.52937 0.20129 0
M  V30 19 H 3.74154 1.78846 -0.876102 0
M  V30 20 H 3.98318 -0.740479 0.848947 0
M  V30 21 H 4.84272 -0.614778 -0.788139 0
M  V30 22 H 0.404149 -0.39975 -2.12058 0
M  V30 23 H 0.461844 -2.01995 -1.40301 0
M  V30 24 H -2.9517 -1.87467 1.95945 0
M  V30 25 H -4.34796 0.0423338 1.19614 0
M  V30 26 H -0.861908 2.18654 -1.76147 0
M  V30 27 H -1.47858 0.911111 -2.91518 0
M  V30 28 H -4.01384 2.50889 -0.106877 0
M  V30 29 H -3.99874 1.8022 -1.74014 0
M  V30 END ATOM
M  V30 BEGIN BOND
M  V30 1 1 1 2
M  V30 2 1 2 3
M  V30 3 1 3 4
M  V30 4 2 4 5
M  V30 5 1 4 6
M  V30 6 1 6 7
M  V30 7 2 7 8
M  V30 8 1 8 9
M  V30 9 3 9 10
M  V30 10 1 8 11
M  V30 11 2 11 12
M  V30 12 1 12 13
M  V30 13 2 13 14
M  V30 14 1 14 15
M  V30 15 1 13 16
M  V30 16 1 14 7
M  V30 17 1 1 17
M  V30 18 1 1 18
M  V30 19 1 1 19
M  V30 20 1 2 20
M  V30 21 1 2 21
M  V30 22 1 6 22
M  V30 23 1 6 23
M  V30 24 1 11 24
M  V30 25 1 12 25
M  V30 26 1 15 26
M  V30 27 1 15 27
M  V30 28 1 16 28
M  V30 29 1 16 29
M  V30 END BOND
M  V30 END CTAB
M  END
