
     RDKit          3D

  0  0  0  0  0  0  0  0  0  0999 V3000
M  V30 BEGIN CTAB
M  V30 COUNTS 21 20 0 0 0
M  V30 BEGIN ATOM
M  V30 1 N -2.80577 -0.682469 -0.925051 0
M  V30 2 C -1.88227 0.300557 -0.458783 0
M  V30 3 C -0.587242 -0.390124 -0.0758685 0
M  V30 4 C 0.43645 0.599614 0.427724 0
M  V30 5 C 1.69038 -0.15238 0.793734 0
M  V30 6 C 2.30542 -0.888276 -0.305646 0
M  V30 7 O 1.94991 -2.05681 -0.550085 0
M  V30 8 O 3.28749 -0.299857 -1.0875 0
M  V30 9 N -0.0144799 1.2793 1.62275 0
M  V30 10 H -3.67013 -0.318657 -1.34267 0
M  V30 11 H -2.39705 -1.50801 -1.3714 0
M  V30 12 H -2.2717 0.779113 0.46122 0
M  V30 13 H -1.64169 1.09189 -1.19112 0
M  V30 14 H -0.180711 -0.949824 -0.93821 0
M  V30 15 H -0.809945 -1.10546 0.721636 0
M  V30 16 H 0.646275 1.39524 -0.32871 0
M  V30 17 H 2.40099 0.588501 1.25466 0
M  V30 18 H 1.39911 -0.819957 1.65743 0
M  V30 19 H 3.05055 0.0762401 -2.0082 0
M  V30 20 H -0.756306 0.773908 2.12711 0
M  V30 21 H -0.14928 2.28745 1.51697 0
M  V30 END ATOM
M  V30 BEGIN BOND
M  V30 1 1 1 2
M  V30 2 1 2 3
M  V30 3 1 3 4
M  V30 4 1 4 5
M  V30 5 1 5 6
M  V30 6 2 6 7
M  V30 7 1 6 8
M  V30 8 1 4 9
M  V30 9 1 1 10
M  V30 10 1 1 11
M  V30 11 1 2 12
M  V30 12 1 2 13
M  V30 13 1 3 14
M  V30 14 1 3 15
M  V30 15 1 4 16
M  V30 16 1 5 17
M  V30 17 1 5 18
M  V30 18 1 8 19
M  V30 19 1 9 20
M  V30 20 1 9 21
M  V30 END BOND
M  V30 END CTAB
M  END
