
     RDKit          3D

  0  0  0  0  0  0  0  0  0  0999 V3000
M  V30 BEGIN CTAB
M  V30 COUNTS 28 28 0 0 0
M  V30 BEGIN ATOM
M  V30 1 C 3.21388 -1.27679 -0.32542 0
M  V30 2 C 2.34566 -0.189286 0.227438 0 CFG=2
M  V30 3 C 0.906703 -0.292813 -0.225644 0
M  V30 4 C 0.0374626 0.596241 0.616558 0
M  V30 5 C -1.38843 0.545238 0.227697 0
M  V30 6 C -1.98863 1.55788 -0.493067 0
M  V30 7 C -3.3275 1.44777 -0.825271 0
M  V30 8 C -4.10627 0.365749 -0.470546 0
M  V30 9 N -3.49201 -0.602137 0.230025 0
M  V30 10 C -2.17909 -0.532935 0.576818 0
M  V30 11 N -1.54839 -1.5662 1.31742 0
M  V30 12 O 0.77666 -0.0862003 -1.58463 0
M  V30 13 N 2.9244 1.10893 -0.0547804 0
M  V30 14 H 2.90893 -1.62504 -1.33667 0
M  V30 15 H 3.24822 -2.10927 0.404535 0
M  V30 16 H 4.2556 -0.860649 -0.377894 0
M  V30 17 H 2.37051 -0.28256 1.35264 0
M  V30 18 H 0.633392 -1.37768 -0.0633783 0
M  V30 19 H 0.150714 0.225291 1.67507 0
M  V30 20 H 0.442589 1.62893 0.631267 0
M  V30 21 H -1.37314 2.40326 -0.768907 0
M  V30 22 H -3.80432 2.24613 -1.39474 0
M  V30 23 H -5.16854 0.298511 -0.744959 0
M  V30 24 H -1.29821 -2.46334 0.858218 0
M  V30 25 H -1.33704 -1.42584 2.31931 0
M  V30 26 H 1.15211 -0.872609 -2.05433 0
M  V30 27 H 3.1949 1.25298 -1.03143 0
M  V30 28 H 2.44982 1.88644 0.41834 0
M  V30 END ATOM
M  V30 BEGIN BOND
M  V30 1 1 1 2
M  V30 2 1 2 3
M  V30 3 1 3 4
M  V30 4 1 4 5
M  V30 5 2 5 6
M  V30 6 1 6 7
M  V30 7 2 7 8
M  V30 8 1 8 9
M  V30 9 2 9 10
M  V30 10 1 10 11
M  V30 11 1 3 12
M  V30 12 1 2 13
M  V30 13 1 10 5
M  V30 14 1 1 14
M  V30 15 1 1 15
M  V30 16 1 1 16
M  V30 17 1 2 17 CFG=1
M  V30 18 1 3 18
M  V30 19 1 4 19
M  V30 20 1 4 20
M  V30 21 1 6 21
M  V30 22 1 7 22
M  V30 23 1 8 23
M  V30 24 1 11 24
M  V30 25 1 11 25
M  V30 26 1 12 26
M  V30 27 1 13 27
M  V30 28 1 13 28
M  V30 END BOND
M  V30 END CTAB
M  END
