
     RDKit          3D

  0  0  0  0  0  0  0  0  0  0999 V3000
M  V30 BEGIN CTAB
M  V30 COUNTS 16 16 0 0 0
M  V30 BEGIN ATOM
M  V30 1 C -2.42062 -0.215541 -0.106251 0
M  V30 2 N -0.988014 -0.544888 -0.0641454 0
M  V30 3 N -0.445581 -1.74153 -0.0956874 0
M  V30 4 C 0.893148 -1.6807 -0.0400491 0
M  V30 5 C 1.23918 -0.344662 0.0328072 0
M  V30 6 N 2.55438 0.130636 0.105921 0
M  V30 7 C 0.0296132 0.332462 0.0149572 0
M  V30 8 N -0.0692101 1.75641 0.0741002 0
M  V30 9 H -2.72984 -0.255626 -1.16111 0
M  V30 10 H -2.97214 -0.948452 0.518669 0
M  V30 11 H -2.58181 0.776973 0.360218 0
M  V30 12 H 1.58352 -2.52246 -0.0500579 0
M  V30 13 H 3.00724 0.380352 1.00926 0
M  V30 14 H 3.12759 0.250265 -0.754764 0
M  V30 15 H 0.146674 2.31046 0.926616 0
M  V30 16 H -0.374131 2.31631 -0.770482 0
M  V30 END ATOM
M  V30 BEGIN BOND
M  V30 1 1 1 2
M  V30 2 1 2 3
M  V30 3 2 3 4
M  V30 4 1 4 5
M  V30 5 1 5 6
M  V30 6 2 5 7
M  V30 7 1 7 8
M  V30 8 1 7 2
M  V30 9 1 1 9
M  V30 10 1 1 10
M  V30 11 1 1 11
M  V30 12 1 4 12
M  V30 13 1 6 13
M  V30 14 1 6 14
M  V30 15 1 8 15
M  V30 16 1 8 16
M  V30 END BOND
M  V30 END CTAB
M  END
