
     RDKit          3D

  0  0  0  0  0  0  0  0  0  0999 V3000
M  V30 BEGIN CTAB
M  V30 COUNTS 49 51 0 0 0
M  V30 BEGIN ATOM
M  V30 1 C -6.1957 -1.66334 -0.408891 0
M  V30 2 C -5.68196 -0.336192 0.0703016 0
M  V30 3 N -6.55735 0.0356652 1.20353 0
M  V30 4 C -4.29618 -0.434575 0.621935 0
M  V30 5 C -3.33188 -0.939699 -0.406172 0
M  V30 6 S -1.65367 -1.06766 0.371521 0
M  V30 7 C -1.06978 0.579737 0.715995 0
M  V30 8 C 0.315843 0.891565 0.219154 0 CFG=1
M  V30 9 O 1.2758 0.0202599 0.812939 0
M  V30 10 C 2.37524 0.313229 0.0382496 0 CFG=2
M  V30 11 C 1.78357 -0.0291537 -1.33746 0 CFG=2
M  V30 12 O 2.62018 0.310215 -2.36252 0
M  V30 13 C 0.527288 0.849886 -1.2465 0 CFG=2
M  V30 14 O 0.970926 2.12323 -1.67787 0
M  V30 15 N 3.56762 -0.398123 0.319194 0
M  V30 16 C 3.75256 -1.67167 0.625959 0
M  V30 17 N 5.07252 -1.94594 0.825412 0
M  V30 18 C 5.7452 -0.821893 0.642708 0
M  V30 19 C 7.09 -0.519333 0.716018 0
M  V30 20 N 8.04719 -1.48893 1.03221 0
M  V30 21 N 7.4702 0.741389 0.470827 0
M  V30 22 C 6.58516 1.71078 0.160749 0
M  V30 23 N 5.26204 1.411 0.0896926 0
M  V30 24 C 4.80668 0.153771 0.325083 0
M  V30 25 C -5.80025 0.702247 -0.975365 0
M  V30 26 O -6.47126 1.91101 -0.687294 0
M  V30 27 O -5.32043 0.562657 -2.12402 0
M  V30 28 H -7.19273 -1.90807 0.00307387 0
M  V30 29 H -5.52177 -2.46685 -0.0246932 0
M  V30 30 H -6.23413 -1.72521 -1.50239 0
M  V30 31 H -7.54139 0.0324167 0.930176 0
M  V30 32 H -6.22764 0.87865 1.69777 0
M  V30 33 H -4.02528 0.5942 0.970527 0
M  V30 34 H -4.30189 -1.0848 1.53605 0
M  V30 35 H -3.2183 -0.166024 -1.19142 0
M  V30 36 H -3.65515 -1.90003 -0.80449 0
M  V30 37 H -1.1094 0.872411 1.80142 0
M  V30 38 H -1.7383 1.32722 0.183811 0
M  V30 39 H 0.57282 1.90629 0.646281 0
M  V30 40 H 2.5503 1.42962 0.0444354 0
M  V30 41 H 1.43406 -1.05724 -1.31537 0
M  V30 42 H 3.49619 -0.15802 -2.1932 0
M  V30 43 H -0.276817 0.474645 -1.86715 0
M  V30 44 H 1.27802 2.65611 -0.91573 0
M  V30 45 H 2.96514 -2.39442 0.707043 0
M  V30 46 H 8.42098 -1.67962 1.99628 0
M  V30 47 H 8.47296 -2.11323 0.274183 0
M  V30 48 H 6.86796 2.72429 -0.0389274 0
M  V30 49 H -5.90518 2.75752 -0.550174 0
M  V30 END ATOM
M  V30 BEGIN BOND
M  V30 1 1 1 2
M  V30 2 1 2 3
M  V30 3 1 2 4
M  V30 4 1 4 5
M  V30 5 1 5 6
M  V30 6 1 6 7
M  V30 7 1 7 8
M  V30 8 1 8 9
M  V30 9 1 9 10
M  V30 10 1 10 11
M  V30 11 1 11 12
M  V30 12 1 11 13
M  V30 13 1 13 14
M  V30 14 1 10 15
M  V30 15 1 15 16
M  V30 16 2 16 17
M  V30 17 1 17 18
M  V30 18 2 18 19
M  V30 19 1 19 20
M  V30 20 1 19 21
M  V30 21 2 21 22
M  V30 22 1 22 23
M  V30 23 2 23 24
M  V30 24 1 2 25
M  V30 25 1 25 26
M  V30 26 2 25 27
M  V30 27 1 13 8
M  V30 28 1 24 15
M  V30 29 1 24 18
M  V30 30 1 1 28
M  V30 31 1 1 29
M  V30 32 1 1 30
M  V30 33 1 3 31
M  V30 34 1 3 32
M  V30 35 1 4 33
M  V30 36 1 4 34
M  V30 37 1 5 35
M  V30 38 1 5 36
M  V30 39 1 7 37
M  V30 40 1 7 38
M  V30 41 1 8 39 CFG=1
M  V30 42 1 10 40 CFG=3
M  V30 43 1 11 41 CFG=1
M  V30 44 1 12 42
M  V30 45 1 13 43 CFG=3
M  V30 46 1 14 44
M  V30 47 1 16 45
M  V30 48 1 20 46
M  V30 49 1 20 47
M  V30 50 1 22 48
M  V30 51 1 26 49
M  V30 END BOND
M  V30 END CTAB
M  END
