
     RDKit          3D

  0  0  0  0  0  0  0  0  0  0999 V3000
M  V30 BEGIN CTAB
M  V30 COUNTS 29 29 0 0 0
M  V30 BEGIN ATOM
M  V30 1 C -1.66321 0.335586 -2.06681 0
M  V30 2 C -1.52441 1.07447 -0.753557 0
M  V30 3 C -1.0179 0.160917 0.359827 0
M  V30 4 C 0.274231 -0.410581 0.0769261 0
M  V30 5 N 0.572302 -1.70077 -0.0631023 0
M  V30 6 C 1.87927 -1.84709 -0.344942 0
M  V30 7 N 2.45681 -0.642034 -0.392963 0
M  V30 8 C 1.47587 0.242936 -0.134712 0
M  V30 9 N 1.61146 1.63493 -0.0793559 0
M  V30 10 N 3.80258 -0.309055 -0.654017 0
M  V30 11 O -1.99744 -0.753863 0.528841 0
M  V30 12 C -1.96399 -1.68767 1.4839 0
M  V30 13 C -0.881679 1.06636 1.58965 0
M  V30 14 H -2.08054 -0.667054 -1.85652 0
M  V30 15 H -2.3651 0.888954 -2.7192 0
M  V30 16 H -0.71042 0.218575 -2.60385 0
M  V30 17 H -2.57065 1.32008 -0.461159 0
M  V30 18 H -0.998948 2.01959 -0.817544 0
M  V30 19 H 2.3686 -2.79366 -0.50422 0
M  V30 20 H 1.39987 2.29244 -0.871784 0
M  V30 21 H 1.94717 2.07779 0.807117 0
M  V30 22 H 4.04528 0.535299 -1.18364 0
M  V30 23 H 4.57905 -0.916685 -0.312585 0
M  V30 24 H -2.93059 -2.28953 1.37837 0
M  V30 25 H -1.18088 -2.45512 1.47119 0
M  V30 26 H -2.02718 -1.32208 2.53108 0
M  V30 27 H -0.578711 2.06816 1.23474 0
M  V30 28 H -0.0676104 0.699699 2.24371 0
M  V30 29 H -1.85324 1.15943 2.11459 0
M  V30 END ATOM
M  V30 BEGIN BOND
M  V30 1 1 1 2
M  V30 2 1 2 3
M  V30 3 1 3 4
M  V30 4 1 4 5
M  V30 5 2 5 6
M  V30 6 1 6 7
M  V30 7 1 7 8
M  V30 8 1 8 9
M  V30 9 1 7 10
M  V30 10 1 3 11
M  V30 11 1 11 12
M  V30 12 1 3 13
M  V30 13 2 8 4
M  V30 14 1 1 14
M  V30 15 1 1 15
M  V30 16 1 1 16
M  V30 17 1 2 17
M  V30 18 1 2 18
M  V30 19 1 6 19
M  V30 20 1 9 20
M  V30 21 1 9 21
M  V30 22 1 10 22
M  V30 23 1 10 23
M  V30 24 1 12 24
M  V30 25 1 12 25
M  V30 26 1 12 26
M  V30 27 1 13 27
M  V30 28 1 13 28
M  V30 29 1 13 29
M  V30 END BOND
M  V30 END CTAB
M  END
