
     RDKit          3D

  0  0  0  0  0  0  0  0  0  0999 V3000
M  V30 BEGIN CTAB
M  V30 COUNTS 29 29 0 0 0
M  V30 BEGIN ATOM
M  V30 1 C -2.15552 -1.04773 -1.29879 0
M  V30 2 C -1.88661 -0.254723 -0.047551 0
M  V30 3 C -2.8709 0.911906 -0.0408854 0
M  V30 4 N -2.14642 -1.01331 1.14299 0
M  V30 5 C -0.498571 0.255434 0.0134837 0
M  V30 6 C -0.216024 1.60358 0.00291018 0
M  V30 7 C 1.07674 2.07911 0.069049 0
M  V30 8 C 2.12798 1.16714 0.148959 0
M  V30 9 N 3.43959 1.6994 0.215227 0
M  V30 10 C 1.87339 -0.178866 0.160962 0
M  V30 11 C 2.98831 -1.11402 0.245048 0
M  V30 12 O 2.79678 -2.49392 0.261394 0
M  V30 13 O 4.16663 -0.680757 0.305498 0
M  V30 14 C 0.544987 -0.630886 0.0920857 0
M  V30 15 O 0.423243 -2.00233 0.110833 0
M  V30 16 H -2.94999 -0.592837 -1.9228 0
M  V30 17 H -2.47305 -2.09023 -1.09131 0
M  V30 18 H -1.23042 -1.02292 -1.94413 0
M  V30 19 H -2.75545 1.50715 -0.967228 0
M  V30 20 H -2.73033 1.54736 0.847477 0
M  V30 21 H -3.88433 0.477791 0.0284589 0
M  V30 22 H -3.15383 -1.24592 1.2887 0
M  V30 23 H -1.72719 -0.519999 1.95918 0
M  V30 24 H -1.02847 2.33193 -0.0593323 0
M  V30 25 H 1.307 3.14473 0.0610881 0
M  V30 26 H 3.91346 1.84024 1.12198 0
M  V30 27 H 3.95335 1.9599 -0.651209 0
M  V30 28 H 3.51147 -3.09377 -0.118047 0
M  V30 29 H -0.415831 -2.54344 0.0659614 0
M  V30 END ATOM
M  V30 BEGIN BOND
M  V30 1 1 1 2
M  V30 2 1 2 3
M  V30 3 1 2 4
M  V30 4 1 2 5
M  V30 5 2 5 6
M  V30 6 1 6 7
M  V30 7 2 7 8
M  V30 8 1 8 9
M  V30 9 1 8 10
M  V30 10 1 10 11
M  V30 11 1 11 12
M  V30 12 2 11 13
M  V30 13 2 10 14
M  V30 14 1 14 15
M  V30 15 1 14 5
M  V30 16 1 1 16
M  V30 17 1 1 17
M  V30 18 1 1 18
M  V30 19 1 3 19
M  V30 20 1 3 20
M  V30 21 1 3 21
M  V30 22 1 4 22
M  V30 23 1 4 23
M  V30 24 1 6 24
M  V30 25 1 7 25
M  V30 26 1 9 26
M  V30 27 1 9 27
M  V30 28 1 12 28
M  V30 29 1 15 29
M  V30 END BOND
M  V30 END CTAB
M  END
