
     RDKit          3D

  0  0  0  0  0  0  0  0  0  0999 V3000
M  V30 BEGIN CTAB
M  V30 COUNTS 34 35 0 0 0
M  V30 BEGIN ATOM
M  V30 1 C 6.00339 -0.343839 0.916432 0
M  V30 2 O 4.58872 -0.372792 0.691687 0
M  V30 3 C 3.88555 0.78614 0.39234 0
M  V30 4 O 4.4743 1.8868 0.311776 0
M  V30 5 C 2.46864 0.711265 0.1746 0
M  V30 6 C 1.7836 -0.509163 0.258794 0
M  V30 7 C 0.422074 -0.570025 0.0479057 0
M  V30 8 C -0.241717 0.582305 -0.243967 0
M  V30 9 C 0.401641 1.78738 -0.332463 0
M  V30 10 C 1.76362 1.85917 -0.123247 0
M  V30 11 C -1.70565 0.496933 -0.467556 0
M  V30 12 C -2.41805 0.103275 0.765818 0
M  V30 13 C -3.71377 -0.0519587 0.779961 0
M  V30 14 N -4.45702 -0.41254 1.88451 0
M  V30 15 S -4.54381 0.187074 -0.81424 0
M  V30 16 C -3.31152 -0.56921 -1.93378 0
M  V30 17 C -2.05378 -0.323308 -1.62127 0
M  V30 18 C -0.985476 -0.896218 -2.46514 0
M  V30 19 N -0.161734 -1.35648 -3.13186 0
M  V30 20 N -3.6699 -1.34893 -3.03741 0
M  V30 21 C -1.68353 -0.124171 2.01182 0
M  V30 22 N -1.11614 -0.291211 3.00523 0
M  V30 23 H 6.48268 0.310847 0.188826 0
M  V30 24 H 6.34598 -1.38567 0.88821 0
M  V30 25 H 6.24315 0.0434441 1.93214 0
M  V30 26 H 2.3745 -1.38026 0.493865 0
M  V30 27 H -0.0610517 -1.54428 0.125497 0
M  V30 28 H -0.139822 2.71991 -0.569333 0
M  V30 29 H 2.27456 2.82807 -0.195424 0
M  V30 30 H -2.04942 1.55834 -0.691963 0
M  V30 31 H -4.70566 0.256995 2.68088 0
M  V30 32 H -4.84238 -1.40045 2.02453 0
M  V30 33 H -4.17416 -0.865995 -3.82957 0
M  V30 34 H -3.47781 -2.37145 -3.13937 0
M  V30 END ATOM
M  V30 BEGIN BOND
M  V30 1 1 1 2
M  V30 2 1 2 3
M  V30 3 2 3 4
M  V30 4 1 3 5
M  V30 5 2 5 6
M  V30 6 1 6 7
M  V30 7 2 7 8
M  V30 8 1 8 9
M  V30 9 2 9 10
M  V30 10 1 8 11
M  V30 11 1 11 12
M  V30 12 2 12 13
M  V30 13 1 13 14
M  V30 14 1 13 15
M  V30 15 1 15 16
M  V30 16 2 16 17
M  V30 17 1 17 18
M  V30 18 3 18 19
M  V30 19 1 16 20
M  V30 20 1 12 21
M  V30 21 3 21 22
M  V30 22 1 10 5
M  V30 23 1 17 11
M  V30 24 1 1 23
M  V30 25 1 1 24
M  V30 26 1 1 25
M  V30 27 1 6 26
M  V30 28 1 7 27
M  V30 29 1 9 28
M  V30 30 1 10 29
M  V30 31 1 11 30
M  V30 32 1 14 31
M  V30 33 1 14 32
M  V30 34 1 20 33
M  V30 35 1 20 34
M  V30 END BOND
M  V30 END CTAB
M  END
