
     RDKit          3D

  0  0  0  0  0  0  0  0  0  0999 V3000
M  V30 BEGIN CTAB
M  V30 COUNTS 51 54 0 0 0
M  V30 BEGIN ATOM
M  V30 1 N 5.63762 1.22647 2.87008 0
M  V30 2 C 6.17633 0.84897 1.6038 0
M  V30 3 C 5.04525 0.531559 0.695009 0
M  V30 4 C 5.25225 0.133303 -0.605906 0
M  V30 5 C 4.21367 -0.158603 -1.44398 0
M  V30 6 C 2.85527 -0.0731235 -1.03697 0
M  V30 7 C 2.65972 0.321634 0.256283 0
M  V30 8 C 3.73632 0.613756 1.08886 0
M  V30 9 C 1.83595 -0.447824 -1.97732 0
M  V30 10 O 2.29153 -1.05974 -3.06635 0
M  V30 11 N 0.467967 -0.257695 -1.90267 0
M  V30 12 C -0.349637 -0.834737 -3.06143 0
M  V30 13 C -1.6779 -1.23787 -2.52219 0
M  V30 14 C -1.65132 -1.73446 -1.09041 0 CFG=1
M  V30 15 C -1.06429 -0.696693 -0.156483 0 CFG=1
M  V30 16 C -0.390733 0.411253 -0.987195 0
M  V30 17 N -1.97804 -0.183436 0.814845 0
M  V30 18 C -2.01052 -0.466765 2.13182 0
M  V30 19 N -3.00238 0.195571 2.7391 0
M  V30 20 C -3.63026 0.921703 1.81861 0
M  V30 21 C -2.98247 0.681976 0.601892 0
M  V30 22 N -3.47505 1.33276 -0.465188 0
M  V30 23 C -4.52823 2.15974 -0.346362 0
M  V30 24 N -5.14945 2.38801 0.82734 0
M  V30 25 C -4.70656 1.76938 1.92921 0
M  V30 26 N -5.31519 1.96205 3.21076 0
M  V30 27 C -3.06524 -2.10987 -0.720286 0
M  V30 28 O -0.90715 -2.91869 -1.09654 0
M  V30 29 H 6.16809 1.92429 3.38351 0
M  V30 30 H 5.46837 0.396021 3.43871 0
M  V30 31 H 6.84654 1.62176 1.17614 0
M  V30 32 H 6.74448 -0.103094 1.75372 0
M  V30 33 H 6.29459 0.0644554 -0.928435 0
M  V30 34 H 4.40049 -0.467108 -2.46608 0
M  V30 35 H 1.6663 0.381856 0.651356 0
M  V30 36 H 3.51452 0.924973 2.11136 0
M  V30 37 H -0.490169 0.0422465 -3.72333 0
M  V30 38 H 0.231117 -1.60259 -3.56317 0
M  V30 39 H -2.0123 -2.13064 -3.13057 0
M  V30 40 H -2.47402 -0.48286 -2.69582 0
M  V30 41 H -0.208253 -1.1983 0.364951 0
M  V30 42 H 0.000992516 1.18799 -0.354567 0
M  V30 43 H -1.20703 0.895818 -1.62967 0
M  V30 44 H -1.32815 -1.14474 2.65944 0
M  V30 45 H -4.94334 2.69837 -1.20393 0
M  V30 46 H -5.4014 1.18399 3.88937 0
M  V30 47 H -5.68435 2.89153 3.4865 0
M  V30 48 H -3.26311 -3.20154 -0.934263 0
M  V30 49 H -3.82354 -1.56934 -1.33557 0
M  V30 50 H -3.30956 -1.96146 0.330202 0
M  V30 51 H -1.47774 -3.67023 -1.38815 0
M  V30 END ATOM
M  V30 BEGIN BOND
M  V30 1 1 1 2
M  V30 2 1 2 3
M  V30 3 2 3 4
M  V30 4 1 4 5
M  V30 5 2 5 6
M  V30 6 1 6 7
M  V30 7 2 7 8
M  V30 8 1 6 9
M  V30 9 2 9 10
M  V30 10 1 9 11
M  V30 11 1 11 12
M  V30 12 1 12 13
M  V30 13 1 13 14
M  V30 14 1 14 15
M  V30 15 1 15 16
M  V30 16 1 15 17
M  V30 17 1 17 18
M  V30 18 2 18 19
M  V30 19 1 19 20
M  V30 20 2 20 21
M  V30 21 1 21 22
M  V30 22 2 22 23
M  V30 23 1 23 24
M  V30 24 2 24 25
M  V30 25 1 25 26
M  V30 26 1 14 27
M  V30 27 1 14 28 CFG=3
M  V30 28 1 8 3
M  V30 29 1 16 11
M  V30 30 1 21 17
M  V30 31 1 25 20
M  V30 32 1 1 29
M  V30 33 1 1 30
M  V30 34 1 2 31
M  V30 35 1 2 32
M  V30 36 1 4 33
M  V30 37 1 5 34
M  V30 38 1 7 35
M  V30 39 1 8 36
M  V30 40 1 12 37
M  V30 41 1 12 38
M  V30 42 1 13 39
M  V30 43 1 13 40
M  V30 44 1 15 41 CFG=1
M  V30 45 1 16 42
M  V30 46 1 16 43
M  V30 47 1 18 44
M  V30 48 1 23 45
M  V30 49 1 26 46
M  V30 50 1 26 47
M  V30 51 1 27 48
M  V30 52 1 27 49
M  V30 53 1 27 50
M  V30 54 1 28 51
M  V30 END BOND
M  V30 END CTAB
M  END
