
     RDKit          3D

  0  0  0  0  0  0  0  0  0  0999 V3000
M  V30 BEGIN CTAB
M  V30 COUNTS 39 39 0 0 0
M  V30 BEGIN ATOM
M  V30 1 C 6.30257 -1.71787 0.16501 0
M  V30 2 O 5.67918 -0.455976 0.31233 0
M  V30 3 C 4.31036 -0.330851 0.1567 0
M  V30 4 C 3.5255 -1.42281 -0.143267 0
M  V30 5 C 2.13951 -1.27463 -0.296955 0
M  V30 6 C 1.51008 -0.0671462 -0.160283 0
M  V30 7 C 2.35719 1.00941 0.145003 0
M  V30 8 C 3.7122 0.900594 0.30179 0
M  V30 9 N 4.50121 2.05239 0.613123 0
M  V30 10 N 0.136083 0.173122 -0.295911 0
M  V30 11 C -0.881609 -0.735394 -0.595662 0
M  V30 12 O -0.745696 -1.96299 -0.803134 0
M  V30 13 C -2.29186 -0.231203 -0.687524 0 CFG=2
M  V30 14 C -2.72938 0.375266 0.627529 0
M  V30 15 C -4.12805 0.89375 0.58797 0
M  V30 16 C -4.22895 1.9636 -0.478697 0
M  V30 17 C -5.1863 -0.129456 0.348699 0
M  V30 18 N -3.13936 -1.34738 -1.00314 0
M  V30 19 H 6.14384 -2.35414 1.07082 0
M  V30 20 H 5.90985 -2.22126 -0.733477 0
M  V30 21 H 7.39858 -1.51505 0.0323562 0
M  V30 22 H 3.93084 -2.41081 -0.269402 0
M  V30 23 H 1.55201 -2.15009 -0.531876 0
M  V30 24 H 1.9344 2.01839 0.272653 0
M  V30 25 H 5.46753 2.1473 0.238116 0
M  V30 26 H 4.05536 2.76894 1.22321 0
M  V30 27 H -0.172647 1.191 -0.149513 0
M  V30 28 H -2.34907 0.530087 -1.50173 0
M  V30 29 H -2.56726 -0.335535 1.45194 0
M  V30 30 H -2.0588 1.23742 0.815381 0
M  V30 31 H -4.33196 1.36131 1.57769 0
M  V30 32 H -3.44077 2.72348 -0.30653 0
M  V30 33 H -4.1361 1.51636 -1.47833 0
M  V30 34 H -5.22751 2.4698 -0.389421 0
M  V30 35 H -5.45626 -0.22847 -0.723545 0
M  V30 36 H -4.96567 -1.11293 0.816915 0
M  V30 37 H -6.13241 0.214518 0.862901 0
M  V30 38 H -3.64088 -1.27705 -1.89296 0
M  V30 39 H -2.75575 -2.26568 -0.770947 0
M  V30 END ATOM
M  V30 BEGIN BOND
M  V30 1 1 1 2
M  V30 2 1 2 3
M  V30 3 2 3 4
M  V30 4 1 4 5
M  V30 5 2 5 6
M  V30 6 1 6 7
M  V30 7 2 7 8
M  V30 8 1 8 9
M  V30 9 1 6 10
M  V30 10 1 10 11
M  V30 11 2 11 12
M  V30 12 1 11 13
M  V30 13 1 13 14
M  V30 14 1 14 15
M  V30 15 1 15 16
M  V30 16 1 15 17
M  V30 17 1 13 18
M  V30 18 1 8 3
M  V30 19 1 1 19
M  V30 20 1 1 20
M  V30 21 1 1 21
M  V30 22 1 4 22
M  V30 23 1 5 23
M  V30 24 1 7 24
M  V30 25 1 9 25
M  V30 26 1 9 26
M  V30 27 1 10 27
M  V30 28 1 13 28 CFG=3
M  V30 29 1 14 29
M  V30 30 1 14 30
M  V30 31 1 15 31
M  V30 32 1 16 32
M  V30 33 1 16 33
M  V30 34 1 16 34
M  V30 35 1 17 35
M  V30 36 1 17 36
M  V30 37 1 17 37
M  V30 38 1 18 38
M  V30 39 1 18 39
M  V30 END BOND
M  V30 END CTAB
M  END
