
     RDKit          3D

  0  0  0  0  0  0  0  0  0  0999 V3000
M  V30 BEGIN CTAB
M  V30 COUNTS 36 38 0 0 0
M  V30 BEGIN ATOM
M  V30 1 N -7.73472 1.1033 0.209388 0
M  V30 2 C -6.3817 0.706481 0.0563991 0
M  V30 3 C -5.32957 1.46921 0.535145 0
M  V30 4 C -4.01177 1.0691 0.378533 0
M  V30 5 C -3.68083 -0.107743 -0.261341 0
M  V30 6 C -4.7349 -0.865274 -0.737286 0
M  V30 7 C -6.04174 -0.476099 -0.58622 0
M  V30 8 O -2.37696 -0.545242 -0.439522 0
M  V30 9 C -1.30838 0.249967 0.0581692 0
M  V30 10 C 0.00349592 -0.329939 -0.199068 0
M  V30 11 N 0.295186 -1.47803 -0.824882 0
M  V30 12 N 1.60735 -1.64941 -0.854177 0
M  V30 13 C 2.15951 -0.594291 -0.237589 0
M  V30 14 N 1.17022 0.211744 0.162122 0
M  V30 15 C 3.6078 -0.363089 -0.0353951 0
M  V30 16 C 4.51415 -1.26753 -0.494219 0
M  V30 17 C 5.86847 -1.0748 -0.318238 0
M  V30 18 C 6.30826 0.0692514 0.342315 0
M  V30 19 C 5.39061 0.968631 0.797745 0
M  V30 20 C 4.022 0.769399 0.617413 0
M  V30 21 N 7.71242 0.270787 0.525738 0
M  V30 22 H -8.12974 1.95158 -0.235333 0
M  V30 23 H -8.35712 0.515837 0.794268 0
M  V30 24 H -5.57341 2.40497 1.04491 0
M  V30 25 H -3.18361 1.66638 0.753656 0
M  V30 26 H -4.49565 -1.80226 -1.24797 0
M  V30 27 H -6.88231 -1.07122 -0.960749 0
M  V30 28 H -1.52781 0.456505 1.11304 0
M  V30 29 H -1.37537 1.22535 -0.501789 0
M  V30 30 H 2.15669 -2.43563 -1.26506 0
M  V30 31 H 4.22602 -2.18174 -1.01887 0
M  V30 32 H 6.59447 -1.7795 -0.67473 0
M  V30 33 H 5.69609 1.86996 1.31608 0
M  V30 34 H 3.33799 1.51919 1.00118 0
M  V30 35 H 8.06566 1.16628 0.89639 0
M  V30 36 H 8.38919 -0.476052 0.289945 0
M  V30 END ATOM
M  V30 BEGIN BOND
M  V30 1 1 1 2
M  V30 2 2 2 3
M  V30 3 1 3 4
M  V30 4 2 4 5
M  V30 5 1 5 6
M  V30 6 2 6 7
M  V30 7 1 5 8
M  V30 8 1 8 9
M  V30 9 1 9 10
M  V30 10 2 10 11
M  V30 11 1 11 12
M  V30 12 1 12 13
M  V30 13 2 13 14
M  V30 14 1 13 15
M  V30 15 2 15 16
M  V30 16 1 16 17
M  V30 17 2 17 18
M  V30 18 1 18 19
M  V30 19 2 19 20
M  V30 20 1 18 21
M  V30 21 1 7 2
M  V30 22 1 14 10
M  V30 23 1 20 15
M  V30 24 1 1 22
M  V30 25 1 1 23
M  V30 26 1 3 24
M  V30 27 1 4 25
M  V30 28 1 6 26
M  V30 29 1 7 27
M  V30 30 1 9 28
M  V30 31 1 9 29
M  V30 32 1 12 30
M  V30 33 1 16 31
M  V30 34 1 17 32
M  V30 35 1 19 33
M  V30 36 1 20 34
M  V30 37 1 21 35
M  V30 38 1 21 36
M  V30 END BOND
M  V30 END CTAB
M  END
