
     RDKit          3D

  0  0  0  0  0  0  0  0  0  0999 V3000
M  V30 BEGIN CTAB
M  V30 COUNTS 32 32 0 0 0
M  V30 BEGIN ATOM
M  V30 1 C -1.40187 -0.687939 -1.97924 0
M  V30 2 C -1.28089 -1.15351 -0.549549 0
M  V30 3 C -2.31397 -0.554004 0.348089 0
M  V30 4 C -3.71112 -0.941628 -0.130295 0
M  V30 5 C -2.27062 0.933813 0.496091 0
M  V30 6 N 0.0189287 -1.05289 0.0178595 0
M  V30 7 C 0.938091 0.000471663 -0.0469159 0
M  V30 8 N 0.744558 1.1328 -0.739417 0
M  V30 9 C 1.59349 2.14894 -0.851539 0
M  V30 10 C 2.79939 2.04286 -0.195086 0
M  V30 11 C 3.06838 0.902745 0.539093 0
M  V30 12 C 2.15433 -0.116604 0.620471 0
M  V30 13 N 2.48378 -1.25991 1.38643 0
M  V30 14 N 4.32027 0.765791 1.23469 0
M  V30 15 H -1.34786 0.415092 -2.08514 0
M  V30 16 H -2.37144 -1.08688 -2.37715 0
M  V30 17 H -0.605136 -1.15437 -2.57899 0
M  V30 18 H -1.58146 -2.26456 -0.633934 0
M  V30 19 H -2.25599 -0.980845 1.39109 0
M  V30 20 H -3.74619 -2.04469 -0.118137 0
M  V30 21 H -4.41096 -0.512384 0.629615 0
M  V30 22 H -3.86583 -0.495678 -1.12071 0
M  V30 23 H -2.21534 1.44103 -0.485098 0
M  V30 24 H -1.50893 1.2769 1.21381 0
M  V30 25 H -3.29104 1.22103 0.887441 0
M  V30 26 H 0.331972 -1.91497 0.577339 0
M  V30 27 H 1.40936 3.0472 -1.41612 0
M  V30 28 H 3.52616 2.84912 -0.257565 0
M  V30 29 H 1.8389 -1.72616 2.05745 0
M  V30 30 H 3.43523 -1.66613 1.27452 0
M  V30 31 H 5.16232 0.665939 0.625214 0
M  V30 32 H 4.35349 0.769434 2.26569 0
M  V30 END ATOM
M  V30 BEGIN BOND
M  V30 1 1 1 2
M  V30 2 1 2 3
M  V30 3 1 3 4
M  V30 4 1 3 5
M  V30 5 1 2 6
M  V30 6 1 6 7
M  V30 7 2 7 8
M  V30 8 1 8 9
M  V30 9 2 9 10
M  V30 10 1 10 11
M  V30 11 2 11 12
M  V30 12 1 12 13
M  V30 13 1 11 14
M  V30 14 1 12 7
M  V30 15 1 1 15
M  V30 16 1 1 16
M  V30 17 1 1 17
M  V30 18 1 2 18
M  V30 19 1 3 19
M  V30 20 1 4 20
M  V30 21 1 4 21
M  V30 22 1 4 22
M  V30 23 1 5 23
M  V30 24 1 5 24
M  V30 25 1 5 25
M  V30 26 1 6 26
M  V30 27 1 9 27
M  V30 28 1 10 28
M  V30 29 1 13 29
M  V30 30 1 13 30
M  V30 31 1 14 31
M  V30 32 1 14 32
M  V30 END BOND
M  V30 END CTAB
M  END
