
     RDKit          3D

  0  0  0  0  0  0  0  0  0  0999 V3000
M  V30 BEGIN CTAB
M  V30 COUNTS 73 78 0 0 0
M  V30 BEGIN ATOM
M  V30 1 N 10.6685 1.48209 0.22197 0
M  V30 2 C 9.67305 0.489156 0.42404 0
M  V30 3 N 8.36838 0.722223 0.197434 0
M  V30 4 C 7.4022 -0.193942 0.378343 0
M  V30 5 C 7.7989 -1.43723 0.822764 0
M  V30 6 N 6.66049 -2.15133 0.918894 0
M  V30 7 C 5.61171 -1.39565 0.55472 0
M  V30 8 N 6.05531 -0.174576 0.215282 0
M  V30 9 C 5.29358 0.972633 -0.240855 0 CFG=2
M  V30 10 O 3.97536 0.618619 -0.323637 0
M  V30 11 C 3.51539 0.84592 -1.59245 0 CFG=2
M  V30 12 C 2.49615 -0.146949 -2.07455 0
M  V30 13 O 1.40832 -0.0970954 -1.21835 0
M  V30 14 P 0.200049 -1.2 -1.69859 0
M  V30 15 O 0.591634 -2.76857 -1.18328 0
M  V30 16 O 0.0610475 -1.21314 -3.21252 0
M  V30 17 O -1.29476 -0.791083 -1.04088 0
M  V30 18 P -1.24112 0.802248 -0.518862 0
M  V30 19 O 0.0627532 0.973418 0.548745 0
M  V30 20 O -1.00106 1.71386 -1.70321 0
M  V30 21 O -2.70393 1.16034 0.24963 0
M  V30 22 C -2.83379 0.304233 1.33476 0
M  V30 23 C -4.12147 0.547808 2.0934 0 CFG=1
M  V30 24 O -5.24651 0.365905 1.31944 0
M  V30 25 C -6.26506 0.0360927 2.20906 0 CFG=2
M  V30 26 C -5.60284 -1.01365 3.07488 0 CFG=2
M  V30 27 O -6.21713 -1.13841 4.31976 0
M  V30 28 C -4.20022 -0.43 3.23526 0 CFG=2
M  V30 29 O -4.15803 0.197821 4.47331 0
M  V30 30 N -7.39833 -0.527259 1.54412 0
M  V30 31 C -8.23654 -1.42135 2.09509 0
M  V30 32 N -9.19133 -1.7448 1.20457 0
M  V30 33 C -8.94234 -1.04448 0.0912547 0
M  V30 34 C -7.81881 -0.282649 0.306454 0
M  V30 35 N -7.38255 0.515941 -0.708209 0
M  V30 36 C -8.0236 0.565754 -1.88926 0
M  V30 37 N -7.57894 1.38948 -2.94486 0
M  V30 38 N -9.11741 -0.187547 -2.07337 0
M  V30 39 C -9.60582 -0.999043 -1.11774 0
M  V30 40 O -10.6431 -1.70781 -1.30463 0
M  V30 41 C 4.72042 0.93597 -2.50446 0 CFG=1
M  V30 42 O 4.49012 1.7825 -3.58631 0
M  V30 43 C 5.75429 1.50772 -1.55584 0 CFG=1
M  V30 44 O 5.64819 2.89863 -1.5757 0
M  V30 45 C 9.13095 -1.69663 1.06099 0
M  V30 46 O 9.51559 -2.81999 1.46559 0
M  V30 47 N 10.0525 -0.742866 0.862843 0
M  V30 48 H 10.3779 2.44763 -0.0329699 0
M  V30 49 H 11.6584 1.26049 0.323354 0
M  V30 50 H 4.55054 -1.69114 0.525783 0
M  V30 51 H 5.3703 1.80482 0.51673 0
M  V30 52 H 3.04667 1.86114 -1.60277 0
M  V30 53 H 2.89978 -1.14486 -2.24239 0
M  V30 54 H 2.12309 0.244825 -3.06581 0
M  V30 55 H 1.57366 -2.90912 -1.24056 0
M  V30 56 H 0.262095 0.102734 0.954936 0
M  V30 57 H -2.00042 0.4051 2.05866 0
M  V30 58 H -2.78043 -0.745095 0.957005 0
M  V30 59 H -4.07894 1.56778 2.51347 0
M  V30 60 H -6.6101 0.900258 2.81128 0
M  V30 61 H -5.52691 -1.95184 2.52291 0
M  V30 62 H -5.4858 -1.27454 4.99126 0
M  V30 63 H -3.43686 -1.2216 3.15121 0
M  V30 64 H -3.26269 0.559101 4.68614 0
M  V30 65 H -8.22369 -1.86729 3.09067 0
M  V30 66 H -8.23244 1.78657 -3.66138 0
M  V30 67 H -6.56991 1.63899 -3.05538 0
M  V30 68 H -9.64093 -0.168807 -2.98997 0
M  V30 69 H 5.07711 -0.0684434 -2.81475 0
M  V30 70 H 4.9946 1.40947 -4.35552 0
M  V30 71 H 6.76386 1.16103 -1.84859 0
M  V30 72 H 5.74143 3.28017 -0.665645 0
M  V30 73 H 11.0795 -0.889679 1.02946 0
M  V30 END ATOM
M  V30 BEGIN BOND
M  V30 1 1 1 2
M  V30 2 2 2 3
M  V30 3 1 3 4
M  V30 4 2 4 5
M  V30 5 1 5 6
M  V30 6 2 6 7
M  V30 7 1 7 8
M  V30 8 1 8 9
M  V30 9 1 9 10
M  V30 10 1 10 11
M  V30 11 1 11 12
M  V30 12 1 12 13
M  V30 13 1 13 14
M  V30 14 1 14 15
M  V30 15 2 14 16
M  V30 16 1 14 17
M  V30 17 1 17 18
M  V30 18 1 18 19
M  V30 19 2 18 20
M  V30 20 1 18 21
M  V30 21 1 21 22
M  V30 22 1 22 23
M  V30 23 1 23 24
M  V30 24 1 24 25
M  V30 25 1 25 26
M  V30 26 1 26 27
M  V30 27 1 26 28
M  V30 28 1 28 29
M  V30 29 1 25 30
M  V30 30 1 30 31
M  V30 31 2 31 32
M  V30 32 1 32 33
M  V30 33 2 33 34
M  V30 34 1 34 35
M  V30 35 2 35 36
M  V30 36 1 36 37
M  V30 37 1 36 38
M  V30 38 1 38 39
M  V30 39 2 39 40
M  V30 40 1 11 41
M  V30 41 1 41 42
M  V30 42 1 41 43
M  V30 43 1 43 44
M  V30 44 1 5 45
M  V30 45 2 45 46
M  V30 46 1 45 47
M  V30 47 1 47 2
M  V30 48 1 8 4
M  V30 49 1 43 9
M  V30 50 1 28 23
M  V30 51 1 34 30
M  V30 52 1 39 33
M  V30 53 1 1 48
M  V30 54 1 1 49
M  V30 55 1 7 50
M  V30 56 1 9 51 CFG=1
M  V30 57 1 11 52 CFG=1
M  V30 58 1 12 53
M  V30 59 1 12 54
M  V30 60 1 15 55
M  V30 61 1 19 56
M  V30 62 1 22 57
M  V30 63 1 22 58
M  V30 64 1 23 59 CFG=1
M  V30 65 1 25 60 CFG=1
M  V30 66 1 26 61 CFG=3
M  V30 67 1 27 62
M  V30 68 1 28 63 CFG=1
M  V30 69 1 29 64
M  V30 70 1 31 65
M  V30 71 1 37 66
M  V30 72 1 37 67
M  V30 73 1 38 68
M  V30 74 1 41 69 CFG=3
M  V30 75 1 42 70
M  V30 76 1 43 71 CFG=3
M  V30 77 1 44 72
M  V30 78 1 47 73
M  V30 END BOND
M  V30 END CTAB
M  END
