
     RDKit          3D

  0  0  0  0  0  0  0  0  0  0999 V3000
M  V30 BEGIN CTAB
M  V30 COUNTS 19 19 0 0 0
M  V30 BEGIN ATOM
M  V30 1 N -3.54443 0.554921 -0.191387 0
M  V30 2 N -2.58335 -0.055439 0.585047 0
M  V30 3 C -1.20971 -0.165426 0.303856 0
M  V30 4 C -0.627672 -1.31274 -0.195209 0
M  V30 5 C 0.714488 -1.41008 -0.447844 0
M  V30 6 C 1.57975 -0.327755 -0.208922 0
M  V30 7 C 0.970984 0.800142 0.28659 0
M  V30 8 N -0.356228 0.860629 0.524367 0
M  V30 9 N 1.73873 1.97122 0.547203 0
M  V30 10 N 2.95559 -0.469265 -0.475926 0 CHG=1
M  V30 11 O 3.31096 -1.25699 -1.3738 0
M  V30 12 O 3.89241 0.218647 0.210832 0 CHG=-1
M  V30 13 H -4.48295 0.126887 0.0279615 0
M  V30 14 H -3.42379 0.528075 -1.2161 0
M  V30 15 H -2.89438 -0.490449 1.49754 0
M  V30 16 H -1.25685 -2.17441 -0.394197 0
M  V30 17 H 1.18467 -2.29797 -0.832578 0
M  V30 18 H 1.40603 2.68608 1.26823 0
M  V30 19 H 2.62574 2.21392 0.0843414 0
M  V30 END ATOM
M  V30 BEGIN BOND
M  V30 1 1 1 2
M  V30 2 1 2 3
M  V30 3 2 3 4
M  V30 4 1 4 5
M  V30 5 2 5 6
M  V30 6 1 6 7
M  V30 7 2 7 8
M  V30 8 1 7 9
M  V30 9 1 6 10
M  V30 10 2 10 11
M  V30 11 1 10 12
M  V30 12 1 8 3
M  V30 13 1 1 13
M  V30 14 1 1 14
M  V30 15 1 2 15
M  V30 16 1 4 16
M  V30 17 1 5 17
M  V30 18 1 9 18
M  V30 19 1 9 19
M  V30 END BOND
M  V30 END CTAB
M  END
