
     RDKit          3D

  0  0  0  0  0  0  0  0  0  0999 V3000
M  V30 BEGIN CTAB
M  V30 COUNTS 25 25 0 0 0
M  V30 BEGIN ATOM
M  V30 1 N 3.95461 -0.364471 0.142258 0
M  V30 2 C 2.5397 -0.280052 0.0692216 0
M  V30 3 C 1.82629 -0.628389 -1.05642 0
M  V30 4 C 0.451256 -0.553624 -1.14795 0
M  V30 5 C -0.240624 -0.097057 -0.0272312 0
M  V30 6 C 0.418039 0.263377 1.12018 0
M  V30 7 C 1.79354 0.168266 1.15518 0
M  V30 8 N -1.64328 0.000206491 -0.062948 0
M  V30 9 C -2.40639 -1.16623 -0.218067 0
M  V30 10 S -4.03564 -1.18748 -0.275331 0
M  V30 11 N -1.7761 -2.45978 -0.340114 0
M  V30 12 C -2.26781 1.2509 0.0553502 0
M  V30 13 O -3.51021 1.32403 0.021782 0
M  V30 14 C -1.51009 2.52904 0.223187 0
M  V30 15 H 4.52248 0.24317 0.764689 0
M  V30 16 H 4.44792 -1.05564 -0.444394 0
M  V30 17 H 2.4095 -0.978175 -1.90312 0
M  V30 18 H -0.0772015 -0.838718 -2.05759 0
M  V30 19 H -0.125302 0.616004 1.98391 0
M  V30 20 H 2.35554 0.445674 2.05012 0
M  V30 21 H -1.74296 -2.92844 -1.26477 0
M  V30 22 H -1.37851 -2.85741 0.542193 0
M  V30 23 H -1.42866 2.79517 1.29028 0
M  V30 24 H -2.05944 3.31134 -0.361446 0
M  V30 25 H -0.516624 2.44829 -0.258967 0
M  V30 END ATOM
M  V30 BEGIN BOND
M  V30 1 1 1 2
M  V30 2 2 2 3
M  V30 3 1 3 4
M  V30 4 2 4 5
M  V30 5 1 5 6
M  V30 6 2 6 7
M  V30 7 1 5 8
M  V30 8 1 8 9
M  V30 9 2 9 10
M  V30 10 1 9 11
M  V30 11 1 8 12
M  V30 12 2 12 13
M  V30 13 1 12 14
M  V30 14 1 7 2
M  V30 15 1 1 15
M  V30 16 1 1 16
M  V30 17 1 3 17
M  V30 18 1 4 18
M  V30 19 1 6 19
M  V30 20 1 7 20
M  V30 21 1 11 21
M  V30 22 1 11 22
M  V30 23 1 14 23
M  V30 24 1 14 24
M  V30 25 1 14 25
M  V30 END BOND
M  V30 END CTAB
M  END
