
     RDKit          3D

  0  0  0  0  0  0  0  0  0  0999 V3000
M  V30 BEGIN CTAB
M  V30 COUNTS 36 39 0 0 0
M  V30 BEGIN ATOM
M  V30 1 N -4.57601 -1.58804 -0.923976 0
M  V30 2 C -4.09859 -0.443573 -0.191273 0
M  V30 3 C -4.98249 0.572815 0.0940286 0
M  V30 4 C -4.524 1.66676 0.794986 0
M  V30 5 C -3.1844 1.69176 1.18234 0
M  V30 6 C -2.31398 0.663521 0.88707 0
M  V30 7 C -2.77565 -0.430413 0.18523 0
M  V30 8 C -1.88931 -1.58523 -0.17188 0
M  V30 9 N -0.557618 -1.35691 0.319755 0
M  V30 10 N -0.0236883 -1.67685 1.47098 0
M  V30 11 N 1.23891 -1.29055 1.54332 0
M  V30 12 C 1.56709 -0.685782 0.392651 0
M  V30 13 C 0.428601 -0.727416 -0.38372 0
M  V30 14 N 0.45637 -0.189975 -1.60862 0
M  V30 15 C 1.56856 0.397441 -2.11794 0
M  V30 16 N 1.58961 0.964342 -3.41631 0
M  V30 17 N 2.66609 0.424115 -1.33829 0
M  V30 18 C 2.71533 -0.0881518 -0.112711 0
M  V30 19 C 3.91478 -0.0489466 0.71605 0
M  V30 20 C 5.13076 0.52272 0.322806 0
M  V30 21 C 6.02533 0.371293 1.35986 0
M  V30 22 C 5.32389 -0.286105 2.34643 0
M  V30 23 O 4.08742 -0.511753 1.9216 0
M  V30 24 H -4.97447 -2.35596 -0.345238 0
M  V30 25 H -4.52513 -1.64158 -1.96135 0
M  V30 26 H -6.02092 0.546773 -0.209733 0
M  V30 27 H -5.19912 2.47963 1.03205 0
M  V30 28 H -2.86874 2.56491 1.72778 0
M  V30 29 H -1.27103 0.699804 1.19745 0
M  V30 30 H -2.33108 -2.54473 0.204042 0
M  V30 31 H -1.91109 -1.65651 -1.27775 0
M  V30 32 H 0.88658 1.66193 -3.71175 0
M  V30 33 H 2.32684 0.670651 -4.08024 0
M  V30 34 H 5.36907 1.00566 -0.614347 0
M  V30 35 H 7.05425 0.675073 1.44437 0
M  V30 36 H 5.67785 -0.589922 3.32233 0
M  V30 END ATOM
M  V30 BEGIN BOND
M  V30 1 1 1 2
M  V30 2 2 2 3
M  V30 3 1 3 4
M  V30 4 2 4 5
M  V30 5 1 5 6
M  V30 6 2 6 7
M  V30 7 1 7 8
M  V30 8 1 8 9
M  V30 9 1 9 10
M  V30 10 2 10 11
M  V30 11 1 11 12
M  V30 12 2 12 13
M  V30 13 1 13 14
M  V30 14 2 14 15
M  V30 15 1 15 16
M  V30 16 1 15 17
M  V30 17 2 17 18
M  V30 18 1 18 19
M  V30 19 2 19 20
M  V30 20 1 20 21
M  V30 21 2 21 22
M  V30 22 1 22 23
M  V30 23 1 7 2
M  V30 24 1 13 9
M  V30 25 1 23 19
M  V30 26 1 18 12
M  V30 27 1 1 24
M  V30 28 1 1 25
M  V30 29 1 3 26
M  V30 30 1 4 27
M  V30 31 1 5 28
M  V30 32 1 6 29
M  V30 33 1 8 30
M  V30 34 1 8 31
M  V30 35 1 16 32
M  V30 36 1 16 33
M  V30 37 1 20 34
M  V30 38 1 21 35
M  V30 39 1 22 36
M  V30 END BOND
M  V30 END CTAB
M  END
