
     RDKit          3D

  0  0  0  0  0  0  0  0  0  0999 V3000
M  V30 BEGIN CTAB
M  V30 COUNTS 41 43 0 0 0
M  V30 BEGIN ATOM
M  V30 1 N 3.68262 -0.948872 -0.0922232 0
M  V30 2 C 2.58557 -1.28791 0.675418 0
M  V30 3 C 1.36033 -0.45322 0.620172 0
M  V30 4 N 0.739929 -0.341546 -0.640143 0
M  V30 5 C 1.41022 0.476156 -1.62849 0
M  V30 6 C 0.785312 1.87237 -1.77006 0
M  V30 7 C 0.295048 2.32257 -0.407556 0
M  V30 8 C -0.46064 1.36204 0.300943 0
M  V30 9 C -0.655039 0.164854 -0.499239 0 CFG=2
M  V30 10 C -1.64003 -0.831436 -0.194995 0
M  V30 11 C -2.82708 -0.594206 0.45743 0
M  V30 12 C -3.71038 -1.6034 0.719184 0
M  V30 13 C -3.42497 -2.89882 0.326641 0
M  V30 14 C -2.2438 -3.16005 -0.330321 0
M  V30 15 C -1.3637 -2.13434 -0.587456 0
M  V30 16 N -0.185566 -2.49629 -1.33833 0
M  V30 17 C -0.87092 1.67562 1.54683 0
M  V30 18 C -0.57462 2.8897 2.12182 0
M  V30 19 C 0.160609 3.81866 1.41952 0
M  V30 20 C 0.598568 3.52804 0.141864 0
M  V30 21 H 4.40842 -0.41521 0.318634 0
M  V30 22 H 3.90953 -1.50315 -0.884532 0
M  V30 23 H 2.36425 -2.37866 0.427842 0
M  V30 24 H 2.92352 -1.37358 1.76394 0
M  V30 25 H 1.71081 0.595865 0.901852 0
M  V30 26 H 0.632557 -0.740388 1.42544 0
M  V30 27 H 1.27818 -0.0283835 -2.60951 0
M  V30 28 H 2.46821 0.562507 -1.39497 0
M  V30 29 H 0.0386292 1.9339 -2.54583 0
M  V30 30 H 1.61159 2.56043 -2.03982 0
M  V30 31 H -0.899027 0.499241 -1.56069 0
M  V30 32 H -3.09122 0.441387 0.750335 0
M  V30 33 H -4.65431 -1.40379 1.24281 0
M  V30 34 H -4.10531 -3.72535 0.519946 0
M  V30 35 H -1.98422 -4.17819 -0.660084 0
M  V30 36 H -0.0285613 -2.19072 -2.31111 0
M  V30 37 H 0.522973 -3.088 -0.880666 0
M  V30 38 H -1.43262 0.926963 2.13572 0
M  V30 39 H -0.928866 3.11188 3.14722 0
M  V30 40 H 0.403318 4.77157 1.84673 0
M  V30 41 H 1.19069 4.26176 -0.434271 0
M  V30 END ATOM
M  V30 BEGIN BOND
M  V30 1 1 1 2
M  V30 2 1 2 3
M  V30 3 1 3 4
M  V30 4 1 4 5
M  V30 5 1 5 6
M  V30 6 1 6 7
M  V30 7 2 7 8
M  V30 8 1 8 9
M  V30 9 1 9 10
M  V30 10 2 10 11
M  V30 11 1 11 12
M  V30 12 2 12 13
M  V30 13 1 13 14
M  V30 14 2 14 15
M  V30 15 1 15 16
M  V30 16 1 8 17
M  V30 17 2 17 18
M  V30 18 1 18 19
M  V30 19 2 19 20
M  V30 20 1 9 4
M  V30 21 1 15 10
M  V30 22 1 20 7
M  V30 23 1 1 21
M  V30 24 1 1 22
M  V30 25 1 2 23
M  V30 26 1 2 24
M  V30 27 1 3 25
M  V30 28 1 3 26
M  V30 29 1 5 27
M  V30 30 1 5 28
M  V30 31 1 6 29
M  V30 32 1 6 30
M  V30 33 1 9 31 CFG=3
M  V30 34 1 11 32
M  V30 35 1 12 33
M  V30 36 1 13 34
M  V30 37 1 14 35
M  V30 38 1 16 36
M  V30 39 1 16 37
M  V30 40 1 17 38
M  V30 41 1 18 39
M  V30 42 1 19 40
M  V30 43 1 20 41
M  V30 END BOND
M  V30 END CTAB
M  END
