
     RDKit          3D

  0  0  0  0  0  0  0  0  0  0999 V3000
M  V30 BEGIN CTAB
M  V30 COUNTS 44 46 0 0 0
M  V30 BEGIN ATOM
M  V30 1 N 6.37282 0.977901 -1.21039 0
M  V30 2 C 6.14482 -0.441931 -0.887821 0
M  V30 3 C 4.84258 -0.509628 -0.220948 0
M  V30 4 C 4.57324 0.190456 0.921405 0
M  V30 5 C 3.34481 0.0951511 1.50887 0
M  V30 6 C 2.31563 -0.706518 0.987795 0
M  V30 7 C 2.60311 -1.40788 -0.162136 0
M  V30 8 C 3.85999 -1.30257 -0.75444 0
M  V30 9 C 0.998587 -0.771174 1.658 0
M  V30 10 N 0.0420737 0.199692 1.19962 0
M  V30 11 C -0.742705 0.0752437 0.0162098 0
M  V30 12 O -0.624496 -0.951056 -0.721844 0
M  V30 13 C -1.6759 1.1128 -0.355789 0
M  V30 14 C -1.18036 2.3858 -0.667208 0
M  V30 15 N -2.04307 3.35414 -1.03006 0
M  V30 16 C -3.35795 3.09602 -1.09218 0
M  V30 17 N -3.81984 1.87733 -0.791329 0
M  V30 18 C -3.01828 0.848367 -0.416602 0
M  V30 19 C -3.54976 -0.461754 -0.142621 0
M  V30 20 C -3.28107 -1.23018 0.951562 0
M  V30 21 C -3.86739 -2.48575 1.06385 0
M  V30 22 C -4.72287 -2.97027 0.0824026 0
M  V30 23 C -4.98626 -2.19737 -1.00441 0
M  V30 24 C -4.40476 -0.970921 -1.10107 0
M  V30 25 N -4.23023 4.13486 -1.49829 0
M  V30 26 H 6.54909 1.48633 -0.3341 0
M  V30 27 H 5.59178 1.37594 -1.77573 0
M  V30 28 H 7.00956 -0.761497 -0.29594 0
M  V30 29 H 6.16019 -1.01042 -1.84615 0
M  V30 30 H 5.32216 0.824961 1.38643 0
M  V30 31 H 3.08453 0.638444 2.4234 0
M  V30 32 H 1.90343 -2.06836 -0.642361 0
M  V30 33 H 4.06125 -1.86179 -1.65635 0
M  V30 34 H 0.592982 -1.81326 1.59528 0
M  V30 35 H 1.1947 -0.555764 2.75214 0
M  V30 36 H -0.0666454 1.07465 1.80855 0
M  V30 37 H -0.104478 2.58158 -0.613007 0
M  V30 38 H -2.63543 -0.887504 1.72802 0
M  V30 39 H -3.68199 -3.13239 1.91574 0
M  V30 40 H -5.17724 -3.93019 0.151135 0
M  V30 41 H -5.65526 -2.54099 -1.80499 0
M  V30 42 H -4.64519 -0.377633 -1.99715 0
M  V30 43 H -3.91331 5.1297 -1.42603 0
M  V30 44 H -5.18284 3.88743 -1.865 0
M  V30 END ATOM
M  V30 BEGIN BOND
M  V30 1 1 1 2
M  V30 2 1 2 3
M  V30 3 2 3 4
M  V30 4 1 4 5
M  V30 5 2 5 6
M  V30 6 1 6 7
M  V30 7 2 7 8
M  V30 8 1 6 9
M  V30 9 1 9 10
M  V30 10 1 10 11
M  V30 11 2 11 12
M  V30 12 1 11 13
M  V30 13 2 13 14
M  V30 14 1 14 15
M  V30 15 2 15 16
M  V30 16 1 16 17
M  V30 17 2 17 18
M  V30 18 1 18 19
M  V30 19 2 19 20
M  V30 20 1 20 21
M  V30 21 2 21 22
M  V30 22 1 22 23
M  V30 23 2 23 24
M  V30 24 1 16 25
M  V30 25 1 8 3
M  V30 26 1 18 13
M  V30 27 1 24 19
M  V30 28 1 1 26
M  V30 29 1 1 27
M  V30 30 1 2 28
M  V30 31 1 2 29
M  V30 32 1 4 30
M  V30 33 1 5 31
M  V30 34 1 7 32
M  V30 35 1 8 33
M  V30 36 1 9 34
M  V30 37 1 9 35
M  V30 38 1 10 36
M  V30 39 1 14 37
M  V30 40 1 20 38
M  V30 41 1 21 39
M  V30 42 1 22 40
M  V30 43 1 23 41
M  V30 44 1 24 42
M  V30 45 1 25 43
M  V30 46 1 25 44
M  V30 END BOND
M  V30 END CTAB
M  END
