
     RDKit          3D

  0  0  0  0  0  0  0  0  0  0999 V3000
M  V30 BEGIN CTAB
M  V30 COUNTS 32 33 0 0 0
M  V30 BEGIN ATOM
M  V30 1 C -3.09692 -0.150336 -1.0209 0
M  V30 2 C -1.93244 -0.33497 -0.0577972 0
M  V30 3 C -2.43844 -0.943467 1.21917 0
M  V30 4 O -1.36616 0.922884 0.122567 0
M  V30 5 C -0.036512 0.712357 0.362057 0 CFG=1
M  V30 6 C 0.262742 -0.547334 -0.429501 0 CFG=2
M  V30 7 O -0.951532 -1.16379 -0.568646 0
M  V30 8 C 1.26256 -1.33192 0.382737 0 CFG=1
M  V30 9 N 0.99611 -2.75932 0.262656 0
M  V30 10 C 2.62323 -1.07325 -0.166673 0
M  V30 11 S 3.30144 0.522956 0.187047 0
M  V30 12 C 2.13098 1.7792 0.64643 0
M  V30 13 C 0.870878 1.78884 -0.166596 0 CFG=2
M  V30 14 N 0.190394 3.06545 0.0695916 0
M  V30 15 H -2.77545 0.0611931 -2.04233 0
M  V30 16 H -3.67036 0.722822 -0.641556 0
M  V30 17 H -3.76331 -1.01787 -1.01288 0
M  V30 18 H -2.14819 -2.02633 1.28001 0
M  V30 19 H -2.0401 -0.441731 2.11247 0
M  V30 20 H -3.54847 -0.940552 1.29732 0
M  V30 21 H 0.118843 0.540354 1.44942 0
M  V30 22 H 0.669353 -0.337068 -1.43038 0
M  V30 23 H 1.26752 -1.03896 1.45653 0
M  V30 24 H 0.0276448 -3.01438 0.520402 0
M  V30 25 H 1.70555 -3.26676 0.828261 0
M  V30 26 H 2.59524 -1.23692 -1.26739 0
M  V30 27 H 3.30813 -1.85854 0.26929 0
M  V30 28 H 1.91487 1.74172 1.74519 0
M  V30 29 H 2.6191 2.78536 0.486089 0
M  V30 30 H 1.14617 1.65382 -1.224 0
M  V30 31 H 0.642615 3.59641 0.832735 0
M  V30 32 H 0.114509 3.59012 -0.826361 0
M  V30 END ATOM
M  V30 BEGIN BOND
M  V30 1 1 1 2
M  V30 2 1 2 3
M  V30 3 1 2 4
M  V30 4 1 4 5
M  V30 5 1 5 6
M  V30 6 1 6 7
M  V30 7 1 6 8
M  V30 8 1 8 9
M  V30 9 1 8 10
M  V30 10 1 10 11
M  V30 11 1 11 12
M  V30 12 1 12 13
M  V30 13 1 13 14
M  V30 14 1 7 2
M  V30 15 1 13 5
M  V30 16 1 1 15
M  V30 17 1 1 16
M  V30 18 1 1 17
M  V30 19 1 3 18
M  V30 20 1 3 19
M  V30 21 1 3 20
M  V30 22 1 5 21 CFG=1
M  V30 23 1 6 22 CFG=3
M  V30 24 1 8 23 CFG=1
M  V30 25 1 9 24
M  V30 26 1 9 25
M  V30 27 1 10 26
M  V30 28 1 10 27
M  V30 29 1 12 28
M  V30 30 1 12 29
M  V30 31 1 13 30 CFG=3
M  V30 32 1 14 31
M  V30 33 1 14 32
M  V30 END BOND
M  V30 END CTAB
M  END
