
     RDKit          3D

  0  0  0  0  0  0  0  0  0  0999 V3000
M  V30 BEGIN CTAB
M  V30 COUNTS 22 23 0 0 0
M  V30 BEGIN ATOM
M  V30 1 N 3.22431 1.15045 -0.464128 0
M  V30 2 C 2.61911 0.146454 0.361291 0 CFG=2
M  V30 3 C 1.65591 -0.745038 -0.432556 0
M  V30 4 C 0.627232 0.333856 -0.264493 0 CFG=2
M  V30 5 C 1.36602 0.751592 1.00802 0
M  V30 6 C -0.758694 -0.126796 -0.0408716 0
M  V30 7 N -1.15775 -1.05861 0.824656 0
M  V30 8 N -2.47324 -1.19915 0.739483 0
M  V30 9 C -2.94963 -0.337579 -0.206065 0
M  V30 10 N -1.86166 0.312691 -0.670973 0
M  V30 11 N -4.30379 -0.190358 -0.586351 0
M  V30 12 H 3.85813 1.76654 -0.0479906 0
M  V30 13 H 2.89282 1.23806 -1.40142 0
M  V30 14 H 3.27687 -0.388618 1.04873 0
M  V30 15 H 1.49432 -1.67854 0.131586 0
M  V30 16 H 1.97469 -0.951058 -1.4645 0
M  V30 17 H 0.737258 1.11151 -1.02519 0
M  V30 18 H 1.06945 0.131557 1.86966 0
M  V30 19 H 1.42084 1.83314 1.17784 0
M  V30 20 H -3.105 -1.83235 1.26568 0
M  V30 21 H -4.53908 0.229791 -1.50059 0
M  V30 22 H -5.06813 -0.497543 0.0379537 0
M  V30 END ATOM
M  V30 BEGIN BOND
M  V30 1 1 1 2
M  V30 2 1 2 3
M  V30 3 1 3 4
M  V30 4 1 4 5
M  V30 5 1 4 6
M  V30 6 2 6 7
M  V30 7 1 7 8
M  V30 8 1 8 9
M  V30 9 2 9 10
M  V30 10 1 9 11
M  V30 11 1 5 2
M  V30 12 1 10 6
M  V30 13 1 1 12
M  V30 14 1 1 13
M  V30 15 1 2 14 CFG=1
M  V30 16 1 3 15
M  V30 17 1 3 16
M  V30 18 1 4 17 CFG=3
M  V30 19 1 5 18
M  V30 20 1 5 19
M  V30 21 1 8 20
M  V30 22 1 11 21
M  V30 23 1 11 22
M  V30 END BOND
M  V30 END CTAB
M  END
