
     RDKit          3D

  0  0  0  0  0  0  0  0  0  0999 V3000
M  V30 BEGIN CTAB
M  V30 COUNTS 25 26 0 0 0
M  V30 BEGIN ATOM
M  V30 1 N -4.81254 1.5456 0.190432 0
M  V30 2 C -3.52573 0.927501 0.0889701 0
M  V30 3 S -2.00674 1.65674 0.34075 0
M  V30 4 C -0.999733 0.312326 0.0421358 0
M  V30 5 C -1.89432 -0.678931 -0.249233 0
M  V30 6 C -3.19485 -0.364088 -0.225594 0
M  V30 7 C -1.38239 -2.07004 -0.581233 0
M  V30 8 C 0.479248 0.227383 0.085025 0
M  V30 9 N 1.2696 -0.815534 -0.14579 0
M  V30 10 C 2.56599 -0.477144 -0.00317667 0
M  V30 11 N 2.56316 0.832271 0.329777 0
M  V30 12 N 1.28851 1.25635 0.382061 0
M  V30 13 C 3.76882 1.60094 0.57789 0
M  V30 14 N 3.69326 -1.3327 -0.171644 0
M  V30 15 H -5.18058 1.74783 1.14605 0
M  V30 16 H -5.34572 1.77688 -0.671456 0
M  V30 17 H -4.01628 -1.07959 -0.443528 0
M  V30 18 H -2.20108 -2.71632 -0.957359 0
M  V30 19 H -0.958612 -2.52641 0.32341 0
M  V30 20 H -0.653087 -1.99452 -1.42219 0
M  V30 21 H 4.40894 1.15846 1.3586 0
M  V30 22 H 4.36574 1.7345 -0.367263 0
M  V30 23 H 3.51064 2.62728 0.909709 0
M  V30 24 H 3.88252 -1.79677 -1.10802 0
M  V30 25 H 4.37522 -1.55203 0.57167 0
M  V30 END ATOM
M  V30 BEGIN BOND
M  V30 1 1 1 2
M  V30 2 1 2 3
M  V30 3 1 3 4
M  V30 4 2 4 5
M  V30 5 1 5 6
M  V30 6 1 5 7
M  V30 7 1 4 8
M  V30 8 1 8 9
M  V30 9 2 9 10
M  V30 10 1 10 11
M  V30 11 1 11 12
M  V30 12 1 11 13
M  V30 13 1 10 14
M  V30 14 2 6 2
M  V30 15 2 12 8
M  V30 16 1 1 15
M  V30 17 1 1 16
M  V30 18 1 6 17
M  V30 19 1 7 18
M  V30 20 1 7 19
M  V30 21 1 7 20
M  V30 22 1 13 21
M  V30 23 1 13 22
M  V30 24 1 13 23
M  V30 25 1 14 24
M  V30 26 1 14 25
M  V30 END BOND
M  V30 END CTAB
M  END
