
     RDKit          3D

  0  0  0  0  0  0  0  0  0  0999 V3000
M  V30 BEGIN CTAB
M  V30 COUNTS 25 25 0 0 0
M  V30 BEGIN ATOM
M  V30 1 N 2.74755 -2.07982 0.723279 0
M  V30 2 N 3.49476 -1.07495 0.145607 0
M  V30 3 C 2.93761 -0.0249348 -0.306946 0
M  V30 4 N 1.56723 0.227225 -0.276007 0
M  V30 5 C 0.532579 -0.580717 0.266891 0
M  V30 6 C -0.823378 0.0434676 0.139468 0
M  V30 7 C -1.01439 1.4053 0.215156 0
M  V30 8 C -2.29815 1.94851 0.0882086 0
M  V30 9 C -3.40165 1.14717 -0.114409 0
M  V30 10 C -3.22626 -0.214117 -0.191944 0
M  V30 11 C -1.9589 -0.724793 -0.0648027 0
M  V30 12 O -4.332 -1.05982 -0.398044 0
M  V30 13 N 3.82703 0.960372 -0.890651 0
M  V30 14 H 2.54658 -2.09555 1.73416 0
M  V30 15 H 2.38046 -2.84463 0.125577 0
M  V30 16 H 1.23971 1.14257 -0.718128 0
M  V30 17 H 0.418423 -1.56689 -0.272873 0
M  V30 18 H 0.630454 -0.738959 1.38134 0
M  V30 19 H -0.185307 2.05516 0.374004 0
M  V30 20 H -2.38528 3.04044 0.157365 0
M  V30 21 H -4.37071 1.60768 -0.206511 0
M  V30 22 H -1.807 -1.79241 -0.123746 0
M  V30 23 H -4.77349 -1.37333 0.480895 0
M  V30 24 H 3.81052 1.02661 -1.92465 0
M  V30 25 H 4.44362 1.56641 -0.343244 0
M  V30 END ATOM
M  V30 BEGIN BOND
M  V30 1 1 1 2
M  V30 2 2 2 3
M  V30 3 1 3 4
M  V30 4 1 4 5
M  V30 5 1 5 6
M  V30 6 2 6 7
M  V30 7 1 7 8
M  V30 8 2 8 9
M  V30 9 1 9 10
M  V30 10 2 10 11
M  V30 11 1 10 12
M  V30 12 1 3 13
M  V30 13 1 11 6
M  V30 14 1 1 14
M  V30 15 1 1 15
M  V30 16 1 4 16
M  V30 17 1 5 17
M  V30 18 1 5 18
M  V30 19 1 7 19
M  V30 20 1 8 20
M  V30 21 1 9 21
M  V30 22 1 11 22
M  V30 23 1 12 23
M  V30 24 1 13 24
M  V30 25 1 13 25
M  V30 END BOND
M  V30 END CTAB
M  END
