
     RDKit          3D

  0  0  0  0  0  0  0  0  0  0999 V3000
M  V30 BEGIN CTAB
M  V30 COUNTS 54 55 0 0 0
M  V30 BEGIN ATOM
M  V30 1 C -6.60736 -1.69497 1.86843 0
M  V30 2 C -5.29907 -2.23325 1.37896 0
M  V30 3 C -4.29213 -1.11536 1.06958 0
M  V30 4 C -4.80356 -0.205874 0.02668 0
M  V30 5 C -3.8669 0.951785 -0.295536 0
M  V30 6 N -2.61416 0.512803 -0.767168 0
M  V30 7 C -1.59644 1.02461 -1.55006 0
M  V30 8 O -1.54735 2.11064 -2.12141 0
M  V30 9 C -0.32495 0.181302 -1.76694 0 CFG=2
M  V30 10 C 0.458294 0.252519 -0.44646 0
M  V30 11 C 1.71112 -0.509347 -0.55737 0
M  V30 12 N 2.00258 -1.79901 -0.291756 0
M  V30 13 C 3.3129 -2.0328 -0.529088 0
M  V30 14 N 3.89959 -0.898007 -0.954672 0
M  V30 15 C 2.93081 0.0387072 -0.975198 0
M  V30 16 C 5.27072 -0.667225 -1.3212 0
M  V30 17 C 6.00768 -0.221075 -0.108076 0
M  V30 18 C 6.50371 -1.15062 0.760261 0
M  V30 19 C 7.20446 -0.712185 1.87414 0
M  V30 20 C 7.38888 0.629087 2.09084 0
M  V30 21 C 6.881 1.54546 1.20572 0
M  V30 22 C 6.18372 1.14717 0.0929606 0
M  V30 23 N 0.472193 0.746754 -2.78473 0
M  V30 24 C -4.71878 1.81461 -1.24649 0
M  V30 25 N -4.07531 3.04027 -1.62089 0
M  V30 26 H -6.46078 -1.05377 2.76826 0
M  V30 27 H -7.1238 -1.08795 1.07805 0
M  V30 28 H -7.2701 -2.57593 2.1007 0
M  V30 29 H -4.86006 -2.87277 2.16597 0
M  V30 30 H -5.46228 -2.85077 0.483571 0
M  V30 31 H -3.40396 -1.68005 0.692762 0
M  V30 32 H -3.97034 -0.642866 2.01108 0
M  V30 33 H -4.92331 -0.757286 -0.948754 0
M  V30 34 H -5.8064 0.225403 0.249075 0
M  V30 35 H -3.70032 1.66187 0.548732 0
M  V30 36 H -2.34855 -0.513692 -0.407684 0
M  V30 37 H -0.646381 -0.842862 -1.97399 0
M  V30 38 H 0.739301 1.33454 -0.273454 0
M  V30 39 H -0.159315 -0.115095 0.387978 0
M  V30 40 H 3.83934 -2.98699 -0.402187 0
M  V30 41 H 3.07346 1.06743 -1.27718 0
M  V30 42 H 5.301 0.161761 -2.08478 0
M  V30 43 H 5.71599 -1.57677 -1.76958 0
M  V30 44 H 6.3471 -2.21806 0.579229 0
M  V30 45 H 7.58799 -1.46191 2.54029 0
M  V30 46 H 7.94329 0.955834 2.98493 0
M  V30 47 H 7.04799 2.60984 1.39548 0
M  V30 48 H 5.78086 1.87886 -0.604714 0
M  V30 49 H 0.342241 0.440682 -3.74565 0
M  V30 50 H 0.997733 1.59884 -2.59477 0
M  V30 51 H -5.12578 1.22856 -2.08448 0
M  V30 52 H -5.61304 2.11652 -0.619753 0
M  V30 53 H -4.74965 3.78608 -1.94373 0
M  V30 54 H -3.57388 3.41456 -0.726711 0
M  V30 END ATOM
M  V30 BEGIN BOND
M  V30 1 1 1 2
M  V30 2 1 2 3
M  V30 3 1 3 4
M  V30 4 1 4 5
M  V30 5 1 5 6
M  V30 6 1 6 7
M  V30 7 2 7 8
M  V30 8 1 7 9
M  V30 9 1 9 10
M  V30 10 1 10 11
M  V30 11 1 11 12
M  V30 12 2 12 13
M  V30 13 1 13 14
M  V30 14 1 14 15
M  V30 15 1 14 16
M  V30 16 1 16 17
M  V30 17 2 17 18
M  V30 18 1 18 19
M  V30 19 2 19 20
M  V30 20 1 20 21
M  V30 21 2 21 22
M  V30 22 1 9 23
M  V30 23 1 5 24
M  V30 24 1 24 25
M  V30 25 2 15 11
M  V30 26 1 22 17
M  V30 27 1 1 26
M  V30 28 1 1 27
M  V30 29 1 1 28
M  V30 30 1 2 29
M  V30 31 1 2 30
M  V30 32 1 3 31
M  V30 33 1 3 32
M  V30 34 1 4 33
M  V30 35 1 4 34
M  V30 36 1 5 35
M  V30 37 1 6 36
M  V30 38 1 9 37 CFG=3
M  V30 39 1 10 38
M  V30 40 1 10 39
M  V30 41 1 13 40
M  V30 42 1 15 41
M  V30 43 1 16 42
M  V30 44 1 16 43
M  V30 45 1 18 44
M  V30 46 1 19 45
M  V30 47 1 20 46
M  V30 48 1 21 47
M  V30 49 1 22 48
M  V30 50 1 23 49
M  V30 51 1 23 50
M  V30 52 1 24 51
M  V30 53 1 24 52
M  V30 54 1 25 53
M  V30 55 1 25 54
M  V30 END BOND
M  V30 END CTAB
M  END
