
     RDKit          3D

  0  0  0  0  0  0  0  0  0  0999 V3000
M  V30 BEGIN CTAB
M  V30 COUNTS 24 24 0 0 0
M  V30 BEGIN ATOM
M  V30 1 O -4.72348 1.35561 0.803465 0
M  V30 2 N -3.36577 1.23607 0.660737 0
M  V30 3 C -2.82196 0.139096 0.263184 0
M  V30 4 C -1.37446 0.0576497 0.125953 0
M  V30 5 C -0.732918 -1.07403 -0.290335 0
M  V30 6 F -1.44013 -2.18351 -0.596146 0
M  V30 7 C 0.64868 -1.13558 -0.416088 0
M  V30 8 F 1.22425 -2.29663 -0.836845 0
M  V30 9 C 1.41833 -0.0148166 -0.111389 0
M  V30 10 C 0.774146 1.11889 0.305762 0
M  V30 11 C -0.595739 1.15586 0.422641 0
M  V30 12 F -1.15754 2.31542 0.84188 0
M  V30 13 F 1.49685 2.21185 0.605031 0
M  V30 14 C 2.86931 -0.0657857 -0.239018 0
M  V30 15 N 3.56174 0.979066 0.0469576 0
M  V30 16 O 4.92296 1.01289 -0.0463006 0
M  V30 17 N 3.47999 -1.26206 -0.673882 0
M  V30 18 N -3.67436 -0.95029 -0.0250454 0
M  V30 19 H -5.2942 1.97261 0.219934 0
M  V30 20 H 5.3764 1.66417 -0.687168 0
M  V30 21 H 3.8665 -1.43234 -1.6194 0
M  V30 22 H 3.55759 -2.06251 0.0115311 0
M  V30 23 H -4.11697 -1.04818 -0.966617 0
M  V30 24 H -3.8992 -1.69344 0.670561 0
M  V30 END ATOM
M  V30 BEGIN BOND
M  V30 1 1 1 2
M  V30 2 2 2 3 CFG=2
M  V30 3 1 3 4
M  V30 4 2 4 5
M  V30 5 1 5 6
M  V30 6 1 5 7
M  V30 7 1 7 8
M  V30 8 2 7 9
M  V30 9 1 9 10
M  V30 10 2 10 11
M  V30 11 1 11 12
M  V30 12 1 10 13
M  V30 13 1 9 14
M  V30 14 2 14 15 CFG=2
M  V30 15 1 15 16
M  V30 16 1 14 17
M  V30 17 1 3 18
M  V30 18 1 11 4
M  V30 19 1 1 19
M  V30 20 1 16 20
M  V30 21 1 17 21
M  V30 22 1 17 22
M  V30 23 1 18 23
M  V30 24 1 18 24
M  V30 END BOND
M  V30 END CTAB
M  END
