
     RDKit          3D

  0  0  0  0  0  0  0  0  0  0999 V3000
M  V30 BEGIN CTAB
M  V30 COUNTS 14 13 0 0 0
M  V30 BEGIN ATOM
M  V30 1 C -1.1522 -0.98904 -0.352458 0
M  V30 2 N -0.528267 -0.0914614 0.573796 0
M  V30 3 S 0.94187 0.570787 0.0768221 0
M  V30 4 O 1.11226 1.95393 0.655126 0
M  V30 5 O 0.931589 0.716506 -1.4255 0
M  V30 6 N 2.31762 -0.34367 0.514516 0
M  V30 7 N -1.40134 0.807864 1.16304 0
M  V30 8 H -2.22564 -1.08512 -0.0488841 0
M  V30 9 H -0.672912 -1.98098 -0.292196 0
M  V30 10 H -1.06145 -0.574547 -1.37036 0
M  V30 11 H 2.18782 -1.35799 0.482047 0
M  V30 12 H 3.15698 0.0264708 0.0605291 0
M  V30 13 H -1.20654 1.80091 0.909955 0
M  V30 14 H -2.39978 0.546327 1.06458 0
M  V30 END ATOM
M  V30 BEGIN BOND
M  V30 1 1 1 2
M  V30 2 1 2 3
M  V30 3 2 3 4
M  V30 4 2 3 5
M  V30 5 1 3 6
M  V30 6 1 2 7
M  V30 7 1 1 8
M  V30 8 1 1 9
M  V30 9 1 1 10
M  V30 10 1 6 11
M  V30 11 1 6 12
M  V30 12 1 7 13
M  V30 13 1 7 14
M  V30 END BOND
M  V30 END CTAB
M  END
