
     RDKit          3D

  0  0  0  0  0  0  0  0  0  0999 V3000
M  V30 BEGIN CTAB
M  V30 COUNTS 40 41 0 0 0
M  V30 BEGIN ATOM
M  V30 1 C -3.25459 5.71032 0.520483 0
M  V30 2 C -1.83217 5.13252 0.449899 0
M  V30 3 O -2.03883 3.73978 0.18421 0
M  V30 4 C -1.01349 2.83354 0.133793 0
M  V30 5 O 0.127429 3.27349 0.3307 0
M  V30 6 C -1.3737 1.4289 -0.165636 0
M  V30 7 S -2.91341 0.827866 -0.623248 0
M  V30 8 C -2.54201 -0.814123 -0.761558 0
M  V30 9 C -1.20383 -0.885575 -0.429698 0
M  V30 10 C -0.584811 0.281534 -0.127069 0
M  V30 11 C 0.862711 0.446183 0.342232 0
M  V30 12 S 1.95115 0.350059 -1.04883 0
M  V30 13 C 3.67292 0.344861 -0.639085 0
M  V30 14 N 4.68799 0.581426 -1.47982 0
M  V30 15 N 5.8785 0.446923 -1.10614 0
M  V30 16 C 6.14191 0.0626254 0.146439 0
M  V30 17 S 4.55475 -0.10148 0.798486 0
M  V30 18 N 7.45015 -0.16537 0.708456 0
M  V30 19 C -0.637729 -2.25402 -0.162821 0
M  V30 20 O 0.548693 -2.43558 0.135116 0
M  V30 21 O -1.44121 -3.37872 -0.222977 0
M  V30 22 C -0.96553 -4.66177 0.137431 0
M  V30 23 C -2.0211 -5.69678 -0.301478 0
M  V30 24 N -3.40296 -1.8791 -1.16556 0
M  V30 25 H -4.00109 4.90008 0.766588 0
M  V30 26 H -3.30863 6.5012 1.25286 0
M  V30 27 H -3.52274 6.09255 -0.490164 0
M  V30 28 H -1.26936 5.65283 -0.353627 0
M  V30 29 H -1.39571 5.24014 1.48064 0
M  V30 30 H 0.912805 1.29941 1.02036 0
M  V30 31 H 1.09186 -0.449671 1.00328 0
M  V30 32 H 8.19144 -0.607848 0.0685103 0
M  V30 33 H 7.6966 0.0434106 1.67668 0
M  V30 34 H 0.0141481 -4.92235 -0.179564 0
M  V30 35 H -0.93001 -4.67187 1.2872 0
M  V30 36 H -3.01541 -5.30929 -0.0230549 0
M  V30 37 H -1.91467 -5.74408 -1.43629 0
M  V30 38 H -1.78413 -6.71436 0.105755 0
M  V30 39 H -3.51443 -2.09107 -2.15918 0
M  V30 40 H -3.90149 -2.4066 -0.443068 0
M  V30 END ATOM
M  V30 BEGIN BOND
M  V30 1 1 1 2
M  V30 2 1 2 3
M  V30 3 1 3 4
M  V30 4 2 4 5
M  V30 5 1 4 6
M  V30 6 1 6 7
M  V30 7 1 7 8
M  V30 8 2 8 9
M  V30 9 1 9 10
M  V30 10 1 10 11
M  V30 11 1 11 12
M  V30 12 1 12 13
M  V30 13 2 13 14
M  V30 14 1 14 15
M  V30 15 2 15 16
M  V30 16 1 16 17
M  V30 17 1 16 18
M  V30 18 1 9 19
M  V30 19 2 19 20
M  V30 20 1 19 21
M  V30 21 1 21 22
M  V30 22 1 22 23
M  V30 23 1 8 24
M  V30 24 2 10 6
M  V30 25 1 17 13
M  V30 26 1 1 25
M  V30 27 1 1 26
M  V30 28 1 1 27
M  V30 29 1 2 28
M  V30 30 1 2 29
M  V30 31 1 11 30
M  V30 32 1 11 31
M  V30 33 1 18 32
M  V30 34 1 18 33
M  V30 35 1 22 34
M  V30 36 1 22 35
M  V30 37 1 23 36
M  V30 38 1 23 37
M  V30 39 1 23 38
M  V30 40 1 24 39
M  V30 41 1 24 40
M  V30 END BOND
M  V30 END CTAB
M  END
