
     RDKit          3D

  0  0  0  0  0  0  0  0  0  0999 V3000
M  V30 BEGIN CTAB
M  V30 COUNTS 25 26 0 0 0
M  V30 BEGIN ATOM
M  V30 1 C -3.03815 2.09102 0.841971 0
M  V30 2 C -2.33006 0.851432 0.356666 0
M  V30 3 C -3.00396 -0.253098 -0.0611186 0
M  V30 4 C -2.34725 -1.38429 -0.504122 0
M  V30 5 C -0.955897 -1.38239 -0.519025 0
M  V30 6 C -0.251756 -0.271503 -0.0991299 0
M  V30 7 C -0.952219 0.832717 0.333977 0
M  V30 8 C 1.21649 -0.284915 -0.120789 0
M  V30 9 N 2.02695 -1.26708 -0.508141 0
M  V30 10 N 3.29264 -0.852181 -0.362562 0
M  V30 11 C 3.29746 0.407687 0.122591 0
M  V30 12 N 1.98361 0.745586 0.267472 0
M  V30 13 N 4.4292 1.21088 0.419227 0
M  V30 14 N -0.295979 -2.54973 -0.975977 0
M  V30 15 H -2.44847 2.48948 1.70039 0
M  V30 16 H -4.07989 1.88741 1.09743 0
M  V30 17 H -2.96441 2.8746 0.0387684 0
M  V30 18 H -4.09001 -0.232814 -0.041119 0
M  V30 19 H -2.88472 -2.26881 -0.838695 0
M  V30 20 H -0.35747 1.68369 0.654994 0
M  V30 21 H 4.1605 -1.38857 -0.578879 0
M  V30 22 H 4.66191 2.01841 -0.211597 0
M  V30 23 H 5.05194 1.05939 1.22157 0
M  V30 24 H 0.260324 -2.6079 -1.85599 0
M  V30 25 H -0.380771 -3.40901 -0.377923 0
M  V30 END ATOM
M  V30 BEGIN BOND
M  V30 1 1 1 2
M  V30 2 2 2 3
M  V30 3 1 3 4
M  V30 4 2 4 5
M  V30 5 1 5 6
M  V30 6 2 6 7
M  V30 7 1 6 8
M  V30 8 2 8 9
M  V30 9 1 9 10
M  V30 10 1 10 11
M  V30 11 2 11 12
M  V30 12 1 11 13
M  V30 13 1 5 14
M  V30 14 1 7 2
M  V30 15 1 12 8
M  V30 16 1 1 15
M  V30 17 1 1 16
M  V30 18 1 1 17
M  V30 19 1 3 18
M  V30 20 1 4 19
M  V30 21 1 7 20
M  V30 22 1 10 21
M  V30 23 1 13 22
M  V30 24 1 13 23
M  V30 25 1 14 24
M  V30 26 1 14 25
M  V30 END BOND
M  V30 END CTAB
M  END
