
     RDKit          3D

  0  0  0  0  0  0  0  0  0  0999 V3000
M  V30 BEGIN CTAB
M  V30 COUNTS 38 39 0 0 0
M  V30 BEGIN ATOM
M  V30 1 N -3.39261 1.14692 -0.385837 0
M  V30 2 C -4.07778 -0.0917094 -0.324882 0
M  V30 3 C -5.3357 -0.244618 -0.913866 0
M  V30 4 C -5.94381 -1.47481 -0.814285 0
M  V30 5 C -5.33744 -2.51348 -0.160382 0
M  V30 6 C -4.08584 -2.34652 0.420827 0
M  V30 7 C -3.46804 -1.13164 0.331014 0
M  V30 8 C -2.16339 -0.948871 0.926885 0
M  V30 9 O -1.60456 -1.90253 1.52919 0
M  V30 10 O -1.48123 0.256197 0.864308 0
M  V30 11 C -0.208757 0.348943 1.47065 0
M  V30 12 C 0.263876 1.78878 1.21856 0
M  V30 13 S 1.81921 2.21215 1.83807 0
M  V30 14 C 3.30829 1.58043 1.2558 0
M  V30 15 O 4.35534 1.78694 2.0315 0
M  V30 16 C 3.53297 0.851346 0.0283472 0
M  V30 17 C 4.83232 0.360783 -0.194422 0
M  V30 18 N 5.8278 0.580771 0.809765 0
M  V30 19 C 5.15084 -0.320058 -1.35028 0
M  V30 20 C 4.22634 -0.556395 -2.34097 0
M  V30 21 C 2.95863 -0.0910612 -2.15056 0
M  V30 22 C 2.64253 0.601269 -0.972134 0
M  V30 23 H -3.39221 1.85256 0.375382 0
M  V30 24 H -2.85518 1.36514 -1.24764 0
M  V30 25 H -5.81501 0.585158 -1.4333 0
M  V30 26 H -6.93126 -1.6262 -1.2664 0
M  V30 27 H -5.78365 -3.50361 -0.0581655 0
M  V30 28 H -3.61982 -3.18391 0.936393 0
M  V30 29 H 0.446297 -0.401566 0.997817 0
M  V30 30 H -0.256374 0.245114 2.57198 0
M  V30 31 H -0.0156007 2.07808 0.175998 0
M  V30 32 H -0.524956 2.39712 1.82554 0
M  V30 33 H 6.45512 1.42021 0.776162 0
M  V30 34 H 5.97129 -0.0753407 1.60776 0
M  V30 35 H 6.18466 -0.681427 -1.4723 0
M  V30 36 H 4.47783 -1.08779 -3.24077 0
M  V30 37 H 2.199 -0.251451 -2.89711 0
M  V30 38 H 1.64087 0.975058 -0.852918 0
M  V30 END ATOM
M  V30 BEGIN BOND
M  V30 1 1 1 2
M  V30 2 2 2 3
M  V30 3 1 3 4
M  V30 4 2 4 5
M  V30 5 1 5 6
M  V30 6 2 6 7
M  V30 7 1 7 8
M  V30 8 2 8 9
M  V30 9 1 8 10
M  V30 10 1 10 11
M  V30 11 1 11 12
M  V30 12 1 12 13
M  V30 13 1 13 14
M  V30 14 2 14 15
M  V30 15 1 14 16
M  V30 16 2 16 17
M  V30 17 1 17 18
M  V30 18 1 17 19
M  V30 19 2 19 20
M  V30 20 1 20 21
M  V30 21 2 21 22
M  V30 22 1 7 2
M  V30 23 1 22 16
M  V30 24 1 1 23
M  V30 25 1 1 24
M  V30 26 1 3 25
M  V30 27 1 4 26
M  V30 28 1 5 27
M  V30 29 1 6 28
M  V30 30 1 11 29
M  V30 31 1 11 30
M  V30 32 1 12 31
M  V30 33 1 12 32
M  V30 34 1 18 33
M  V30 35 1 18 34
M  V30 36 1 19 35
M  V30 37 1 20 36
M  V30 38 1 21 37
M  V30 39 1 22 38
M  V30 END BOND
M  V30 END CTAB
M  END
