
     RDKit          3D

  0  0  0  0  0  0  0  0  0  0999 V3000
M  V30 BEGIN CTAB
M  V30 COUNTS 41 42 0 0 0
M  V30 BEGIN ATOM
M  V30 1 C -1.6 -3.62184 1.56281 0
M  V30 2 C -1.45349 -2.52946 0.522187 0
M  V30 3 C -0.146368 -1.80376 0.695137 0
M  V30 4 C -0.0128875 -0.741796 -0.323568 0
M  V30 5 C -0.102037 -1.42092 -1.70341 0
M  V30 6 C 1.34208 -0.0888351 -0.298768 0
M  V30 7 C 2.3227 -0.565013 -1.11977 0
M  V30 8 C 3.61184 -0.026099 -1.18599 0
M  V30 9 C 3.87681 1.04349 -0.365611 0
M  V30 10 N 5.16569 1.65363 -0.372889 0
M  V30 11 C 2.89293 1.54088 0.475666 0
M  V30 12 C 1.63402 0.985647 0.515172 0
M  V30 13 C -0.990785 0.342254 -0.216825 0
M  V30 14 C -1.21626 1.14103 -1.34854 0
M  V30 15 C -2.12454 2.15599 -1.22912 0
M  V30 16 C -2.82171 2.43146 -0.0667349 0
M  V30 17 N -3.7555 3.49035 0.0268377 0
M  V30 18 C -2.58991 1.6374 1.04086 0
M  V30 19 C -1.67903 0.616081 0.927463 0
M  V30 20 H -2.39985 -4.29765 1.23528 0
M  V30 21 H -0.655019 -4.19351 1.55377 0
M  V30 22 H -1.78883 -3.18103 2.55801 0
M  V30 23 H -1.41665 -3.05661 -0.461606 0
M  V30 24 H -2.31185 -1.85081 0.55674 0
M  V30 25 H 0.686613 -2.5437 0.643619 0
M  V30 26 H -0.131179 -1.42001 1.74191 0
M  V30 27 H 0.43757 -2.37487 -1.64453 0
M  V30 28 H -1.16113 -1.62397 -1.95915 0
M  V30 29 H 0.403225 -0.774866 -2.43074 0
M  V30 30 H 2.19893 -1.42108 -1.80465 0
M  V30 31 H 4.37833 -0.410581 -1.83803 0
M  V30 32 H 5.88471 1.50074 0.347272 0
M  V30 33 H 5.41963 2.31141 -1.16494 0
M  V30 34 H 3.0961 2.37632 1.11808 0
M  V30 35 H 0.850105 1.34948 1.15869 0
M  V30 36 H -0.678415 0.953042 -2.29019 0
M  V30 37 H -2.31171 2.78225 -2.09293 0
M  V30 38 H -3.52723 4.4036 -0.397086 0
M  V30 39 H -4.65766 3.36607 0.509489 0
M  V30 40 H -3.12695 1.84222 1.95612 0
M  V30 41 H -1.54229 0.0230521 1.84578 0
M  V30 END ATOM
M  V30 BEGIN BOND
M  V30 1 1 1 2
M  V30 2 1 2 3
M  V30 3 1 3 4
M  V30 4 1 4 5
M  V30 5 1 4 6
M  V30 6 2 6 7
M  V30 7 1 7 8
M  V30 8 2 8 9
M  V30 9 1 9 10
M  V30 10 1 9 11
M  V30 11 2 11 12
M  V30 12 1 4 13
M  V30 13 2 13 14
M  V30 14 1 14 15
M  V30 15 2 15 16
M  V30 16 1 16 17
M  V30 17 1 16 18
M  V30 18 2 18 19
M  V30 19 1 12 6
M  V30 20 1 19 13
M  V30 21 1 1 20
M  V30 22 1 1 21
M  V30 23 1 1 22
M  V30 24 1 2 23
M  V30 25 1 2 24
M  V30 26 1 3 25
M  V30 27 1 3 26
M  V30 28 1 5 27
M  V30 29 1 5 28
M  V30 30 1 5 29
M  V30 31 1 7 30
M  V30 32 1 8 31
M  V30 33 1 10 32
M  V30 34 1 10 33
M  V30 35 1 11 34
M  V30 36 1 12 35
M  V30 37 1 14 36
M  V30 38 1 15 37
M  V30 39 1 17 38
M  V30 40 1 17 39
M  V30 41 1 18 40
M  V30 42 1 19 41
M  V30 END BOND
M  V30 END CTAB
M  END
