
     RDKit          3D

  0  0  0  0  0  0  0  0  0  0999 V3000
M  V30 BEGIN CTAB
M  V30 COUNTS 22 22 0 0 0
M  V30 BEGIN ATOM
M  V30 1 N 2.35466 -1.32731 -1.1245 0
M  V30 2 P 1.59138 -0.424924 0.195814 0
M  V30 3 N 2.57277 0.91233 0.572348 0
M  V30 4 O 1.58547 -1.37941 1.39499 0
M  V30 5 N -0.0120607 -0.108994 -0.252191 0
M  V30 6 C -0.48842 1.19596 -0.282533 0
M  V30 7 C -1.75026 1.33362 0.502513 0
M  V30 8 O -2.69691 0.403452 0.296835 0
M  V30 9 C -2.35792 -0.837884 -0.0876547 0
M  V30 10 C -0.912015 -1.17519 -0.155795 0
M  V30 11 H 2.51423 -0.651996 -1.92321 0
M  V30 12 H 3.31105 -1.60003 -0.800531 0
M  V30 13 H 2.118 1.79082 0.809668 0
M  V30 14 H 3.45655 0.968064 0.0499801 0
M  V30 15 H 0.224927 1.95171 0.0674335 0
M  V30 16 H -0.729522 1.48112 -1.34947 0
M  V30 17 H -1.51988 1.43567 1.6038 0
M  V30 18 H -2.18882 2.34179 0.235042 0
M  V30 19 H -2.83195 -1.57147 0.632136 0
M  V30 20 H -2.88251 -1.06239 -1.06417 0
M  V30 21 H -0.594317 -1.84036 0.700682 0
M  V30 22 H -0.764432 -1.83459 -1.06314 0
M  V30 END ATOM
M  V30 BEGIN BOND
M  V30 1 1 1 2
M  V30 2 1 2 3
M  V30 3 2 2 4
M  V30 4 1 2 5
M  V30 5 1 5 6
M  V30 6 1 6 7
M  V30 7 1 7 8
M  V30 8 1 8 9
M  V30 9 1 9 10
M  V30 10 1 10 5
M  V30 11 1 1 11
M  V30 12 1 1 12
M  V30 13 1 3 13
M  V30 14 1 3 14
M  V30 15 1 6 15
M  V30 16 1 6 16
M  V30 17 1 7 17
M  V30 18 1 7 18
M  V30 19 1 9 19
M  V30 20 1 9 20
M  V30 21 1 10 21
M  V30 22 1 10 22
M  V30 END BOND
M  V30 END CTAB
M  END
