
     RDKit          3D

  0  0  0  0  0  0  0  0  0  0999 V3000
M  V30 BEGIN CTAB
M  V30 COUNTS 62 65 0 0 0
M  V30 BEGIN ATOM
M  V30 1 N 2.76586 -6.49355 -1.20096 0
M  V30 2 C 1.89329 -5.45378 -0.795571 0
M  V30 3 N 2.24395 -4.14631 -0.99187 0
M  V30 4 C 1.43565 -3.1454 -0.619515 0
M  V30 5 C 1.89727 -1.73844 -0.843387 0
M  V30 6 O 3.10746 -1.74513 -1.44845 0
M  V30 7 C 3.82832 -0.640148 -1.67978 0
M  V30 8 C 3.28007 0.478821 -2.51408 0
M  V30 9 C 4.35644 1.57387 -2.64109 0
M  V30 10 C 4.46958 2.40802 -1.40273 0
M  V30 11 C 3.22844 3.24343 -1.16114 0
M  V30 12 C 2.14938 2.69562 -2.05966 0
M  V30 13 C 2.07925 1.17334 -1.95649 0
M  V30 14 C 0.241912 -3.48485 -0.0350687 0
M  V30 15 C -0.153239 -4.78607 0.183802 0
M  V30 16 N -1.38872 -5.07299 0.796557 0
M  V30 17 N 0.719732 -5.75466 -0.21973 0
M  V30 18 C -0.615188 -2.3722 0.330581 0
M  V30 19 C -1.39182 -1.82455 -0.65028 0
M  V30 20 C -2.20954 -0.768217 -0.327616 0
M  V30 21 C -2.26418 -0.247661 0.96598 0
M  V30 22 N -3.12262 0.848852 1.26421 0
M  V30 23 C -3.16334 1.36734 2.608 0
M  V30 24 C -4.06718 2.52434 2.78554 0
M  V30 25 C -4.43234 3.36194 1.7624 0
M  V30 26 C -5.29208 4.4418 1.95928 0
M  V30 27 C -5.77284 4.65381 3.21214 0
M  V30 28 Cl -6.86137 6.01619 3.47274 0
M  V30 29 C -5.43313 3.84062 4.26301 0
M  V30 30 C -4.59152 2.78864 4.05652 0
M  V30 31 C -1.4708 -0.810801 1.95998 0
M  V30 32 C -0.667048 -1.86566 1.59491 0
M  V30 33 H 2.38378 -7.41899 -1.41559 0
M  V30 34 H 3.80172 -6.32286 -1.28316 0
M  V30 35 H 1.09729 -1.14972 -1.33344 0
M  V30 36 H 2.00234 -1.28333 0.165865 0
M  V30 37 H 4.13697 -0.117137 -0.699399 0
M  V30 38 H 4.85212 -0.875564 -2.11352 0
M  V30 39 H 3.0952 0.108283 -3.5283 0
M  V30 40 H 5.32608 1.0453 -2.78016 0
M  V30 41 H 4.09339 2.18725 -3.49634 0
M  V30 42 H 5.35441 3.08919 -1.55838 0
M  V30 43 H 4.69952 1.82503 -0.489331 0
M  V30 44 H 3.43463 4.27795 -1.45587 0
M  V30 45 H 2.92253 3.23457 -0.0895744 0
M  V30 46 H 2.3245 3.05041 -3.07731 0
M  V30 47 H 1.17965 3.12285 -1.70569 0
M  V30 48 H 1.90286 0.98303 -0.875331 0
M  V30 49 H 1.16644 0.869915 -2.50274 0
M  V30 50 H -1.81901 -4.53226 1.57178 0
M  V30 51 H -1.92082 -5.89773 0.448722 0
M  V30 52 H -1.39945 -2.18628 -1.69567 0
M  V30 53 H -2.84387 -0.306721 -1.09169 0
M  V30 54 H -3.70516 1.25237 0.508703 0
M  V30 55 H -3.45409 0.569629 3.3276 0
M  V30 56 H -2.10381 1.62732 2.88941 0
M  V30 57 H -4.05554 3.20874 0.761876 0
M  V30 58 H -5.55682 5.07262 1.13824 0
M  V30 59 H -5.84995 4.05807 5.24774 0
M  V30 60 H -4.29793 2.12339 4.85316 0
M  V30 61 H -1.50987 -0.408072 2.9726 0
M  V30 62 H -0.0567559 -2.27351 2.42408 0
M  V30 END ATOM
M  V30 BEGIN BOND
M  V30 1 1 1 2
M  V30 2 2 2 3
M  V30 3 1 3 4
M  V30 4 1 4 5
M  V30 5 1 5 6
M  V30 6 1 6 7
M  V30 7 1 7 8
M  V30 8 1 8 9
M  V30 9 1 9 10
M  V30 10 1 10 11
M  V30 11 1 11 12
M  V30 12 1 12 13
M  V30 13 2 4 14
M  V30 14 1 14 15
M  V30 15 1 15 16
M  V30 16 2 15 17
M  V30 17 1 14 18
M  V30 18 2 18 19
M  V30 19 1 19 20
M  V30 20 2 20 21
M  V30 21 1 21 22
M  V30 22 1 22 23
M  V30 23 1 23 24
M  V30 24 2 24 25
M  V30 25 1 25 26
M  V30 26 2 26 27
M  V30 27 1 27 28
M  V30 28 1 27 29
M  V30 29 2 29 30
M  V30 30 1 21 31
M  V30 31 2 31 32
M  V30 32 1 17 2
M  V30 33 1 32 18
M  V30 34 1 13 8
M  V30 35 1 30 24
M  V30 36 1 1 33
M  V30 37 1 1 34
M  V30 38 1 5 35
M  V30 39 1 5 36
M  V30 40 1 7 37
M  V30 41 1 7 38
M  V30 42 1 8 39
M  V30 43 1 9 40
M  V30 44 1 9 41
M  V30 45 1 10 42
M  V30 46 1 10 43
M  V30 47 1 11 44
M  V30 48 1 11 45
M  V30 49 1 12 46
M  V30 50 1 12 47
M  V30 51 1 13 48
M  V30 52 1 13 49
M  V30 53 1 16 50
M  V30 54 1 16 51
M  V30 55 1 19 52
M  V30 56 1 20 53
M  V30 57 1 22 54
M  V30 58 1 23 55
M  V30 59 1 23 56
M  V30 60 1 25 57
M  V30 61 1 26 58
M  V30 62 1 29 59
M  V30 63 1 30 60
M  V30 64 1 31 61
M  V30 65 1 32 62
M  V30 END BOND
M  V30 END CTAB
M  END
