
     RDKit          3D

  0  0  0  0  0  0  0  0  0  0999 V3000
M  V30 BEGIN CTAB
M  V30 COUNTS 44 45 0 0 0
M  V30 BEGIN ATOM
M  V30 1 C 5.14193 0.75404 1.92902 0
M  V30 2 C 4.17015 0.18577 0.9698 0
M  V30 3 C 2.81811 0.302907 1.21696 0
M  V30 4 C 1.87446 -0.219457 0.336806 0
M  V30 5 C 2.33779 -0.853104 -0.781983 0
M  V30 6 C 3.68459 -0.981209 -1.04811 0
M  V30 7 C 4.10288 -1.69303 -2.30172 0
M  V30 8 C 4.60355 -0.459982 -0.169197 0
M  V30 9 C 0.449369 -0.047039 0.684577 0 CFG=1
M  V30 10 N 0.313175 1.34722 1.12753 0
M  V30 11 C -0.466152 -0.305083 -0.471849 0 CFG=2
M  V30 12 N -0.186587 0.616147 -1.58644 0
M  V30 13 C -1.90219 -0.113731 -0.154218 0
M  V30 14 C -2.74788 -0.0475879 -1.26943 0
M  V30 15 C -4.10209 0.127087 -1.08451 0
M  V30 16 C -4.981 0.194642 -2.27752 0
M  V30 17 C -4.57888 0.231207 0.202147 0
M  V30 18 C -3.74731 0.165934 1.29292 0
M  V30 19 C -4.31052 0.283199 2.64834 0
M  V30 20 C -2.40719 -0.00717477 1.1036 0
M  V30 21 H 6.13312 0.8402 1.47978 0
M  V30 22 H 5.20372 0.0238808 2.78416 0
M  V30 23 H 4.75573 1.70473 2.3553 0
M  V30 24 H 2.52094 0.822073 2.13119 0
M  V30 25 H 1.59342 -1.25707 -1.46063 0
M  V30 26 H 3.47479 -1.31862 -3.13528 0
M  V30 27 H 4.09525 -2.77646 -2.18207 0
M  V30 28 H 5.13907 -1.31164 -2.51556 0
M  V30 29 H 5.6746 -0.566837 -0.389527 0
M  V30 30 H 0.188162 -0.717587 1.51597 0
M  V30 31 H 0.553687 1.35746 2.14338 0
M  V30 32 H 0.946636 1.90922 0.53197 0
M  V30 33 H -0.342584 -1.36185 -0.787659 0
M  V30 34 H -0.332026 0.0521926 -2.45321 0
M  V30 35 H -0.885787 1.39053 -1.61561 0
M  V30 36 H -2.35606 -0.131701 -2.28446 0
M  V30 37 H -5.95502 0.647831 -1.99953 0
M  V30 38 H -5.19151 -0.853361 -2.59493 0
M  V30 39 H -4.48378 0.692936 -3.11488 0
M  V30 40 H -5.65504 0.368909 0.316703 0
M  V30 41 H -4.96952 -0.564682 2.92118 0
M  V30 42 H -4.96122 1.20485 2.65653 0
M  V30 43 H -3.52056 0.433202 3.41241 0
M  V30 44 H -1.69221 -0.0689512 1.91805 0
M  V30 END ATOM
M  V30 BEGIN BOND
M  V30 1 1 1 2
M  V30 2 2 2 3
M  V30 3 1 3 4
M  V30 4 2 4 5
M  V30 5 1 5 6
M  V30 6 1 6 7
M  V30 7 2 6 8
M  V30 8 1 4 9
M  V30 9 1 9 10
M  V30 10 1 9 11
M  V30 11 1 11 12
M  V30 12 1 11 13
M  V30 13 2 13 14
M  V30 14 1 14 15
M  V30 15 1 15 16
M  V30 16 2 15 17
M  V30 17 1 17 18
M  V30 18 1 18 19
M  V30 19 2 18 20
M  V30 20 1 8 2
M  V30 21 1 20 13
M  V30 22 1 1 21
M  V30 23 1 1 22
M  V30 24 1 1 23
M  V30 25 1 3 24
M  V30 26 1 5 25
M  V30 27 1 7 26
M  V30 28 1 7 27
M  V30 29 1 7 28
M  V30 30 1 8 29
M  V30 31 1 9 30 CFG=1
M  V30 32 1 10 31
M  V30 33 1 10 32
M  V30 34 1 11 33 CFG=3
M  V30 35 1 12 34
M  V30 36 1 12 35
M  V30 37 1 14 36
M  V30 38 1 16 37
M  V30 39 1 16 38
M  V30 40 1 16 39
M  V30 41 1 17 40
M  V30 42 1 19 41
M  V30 43 1 19 42
M  V30 44 1 19 43
M  V30 45 1 20 44
M  V30 END BOND
M  V30 END CTAB
M  END
