
     RDKit          3D

  0  0  0  0  0  0  0  0  0  0999 V3000
M  V30 BEGIN CTAB
M  V30 COUNTS 38 40 0 0 0
M  V30 BEGIN ATOM
M  V30 1 C -4.00571 -1.14995 -0.286185 0
M  V30 2 C -3.64533 -0.134638 0.743989 0
M  V30 3 C -2.47976 0.761899 0.287138 0
M  V30 4 C -2.97619 1.44189 -0.97858 0
M  V30 5 O -2.31732 1.67108 1.33189 0
M  V30 6 C -1.44969 2.66485 0.942546 0
M  V30 7 C -0.132988 1.96825 0.679385 0
M  V30 8 C 0.00980228 0.6811 0.245788 0
M  V30 9 C -1.29769 -0.0764257 0.023436 0
M  V30 10 C 1.29261 0.227687 0.060583 0
M  V30 11 C 1.74617 -1.02419 -0.370986 0
M  V30 12 N 0.95999 -2.11623 -0.705831 0
M  V30 13 N 1.61239 -3.3229 -1.16654 0
M  V30 14 N 3.08682 -1.22031 -0.473369 0
M  V30 15 C 4.03078 -0.348441 -0.206992 0
M  V30 16 N 3.62315 0.858775 0.208585 0
M  V30 17 C 2.28203 1.12229 0.333324 0
M  V30 18 S 1.48136 2.53205 0.825203 0
M  V30 19 N 5.39911 -0.664638 -0.350883 0
M  V30 20 N 6.40252 0.267121 -0.0682019 0
M  V30 21 H -4.16223 -2.13108 0.247616 0
M  V30 22 H -3.23339 -1.2538 -1.08578 0
M  V30 23 H -5.01014 -0.909677 -0.722149 0
M  V30 24 H -4.48226 0.51668 1.04741 0
M  V30 25 H -3.2708 -0.616868 1.68595 0
M  V30 26 H -3.61902 0.710492 -1.55244 0
M  V30 27 H -3.63829 2.29801 -0.760763 0
M  V30 28 H -2.13155 1.66652 -1.63238 0
M  V30 29 H -1.77618 3.25195 0.0751256 0
M  V30 30 H -1.29407 3.31525 1.84829 0
M  V30 31 H -1.37204 -0.42422 -1.03061 0
M  V30 32 H -1.36051 -0.966572 0.671237 0
M  V30 33 H -0.0423632 -2.15378 -0.65503 0
M  V30 34 H 2.50296 -3.46091 -0.650602 0
M  V30 35 H 0.964757 -4.12689 -1.08441 0
M  V30 36 H 5.69287 -1.59481 -0.669821 0
M  V30 37 H 6.47149 1.02257 -0.775847 0
M  V30 38 H 6.13871 0.717874 0.839324 0
M  V30 END ATOM
M  V30 BEGIN BOND
M  V30 1 1 1 2
M  V30 2 1 2 3
M  V30 3 1 3 4
M  V30 4 1 3 5
M  V30 5 1 5 6
M  V30 6 1 6 7
M  V30 7 2 7 8
M  V30 8 1 8 9
M  V30 9 1 8 10
M  V30 10 2 10 11
M  V30 11 1 11 12
M  V30 12 1 12 13
M  V30 13 1 11 14
M  V30 14 2 14 15
M  V30 15 1 15 16
M  V30 16 2 16 17
M  V30 17 1 17 18
M  V30 18 1 15 19
M  V30 19 1 19 20
M  V30 20 1 9 3
M  V30 21 1 17 10
M  V30 22 1 18 7
M  V30 23 1 1 21
M  V30 24 1 1 22
M  V30 25 1 1 23
M  V30 26 1 2 24
M  V30 27 1 2 25
M  V30 28 1 4 26
M  V30 29 1 4 27
M  V30 30 1 4 28
M  V30 31 1 6 29
M  V30 32 1 6 30
M  V30 33 1 9 31
M  V30 34 1 9 32
M  V30 35 1 12 33
M  V30 36 1 13 34
M  V30 37 1 13 35
M  V30 38 1 19 36
M  V30 39 1 20 37
M  V30 40 1 20 38
M  V30 END BOND
M  V30 END CTAB
M  END
