
     RDKit          3D

  0  0  0  0  0  0  0  0  0  0999 V3000
M  V30 BEGIN CTAB
M  V30 COUNTS 27 27 0 0 0
M  V30 BEGIN ATOM
M  V30 1 N 3.17023 1.63326 0.753612 0
M  V30 2 N 2.00274 0.985122 0.480321 0
M  V30 3 C 1.86144 -0.149176 -0.108633 0
M  V30 4 N 0.602485 -0.749655 -0.349873 0
M  V30 5 C -0.457673 0.0206506 -0.925832 0
M  V30 6 C -1.61204 0.296513 -0.0100437 0
M  V30 7 C -2.39827 -0.820182 0.584917 0
M  V30 8 C -1.69757 1.65273 0.709518 0
M  V30 9 C -2.48578 1.45944 -0.537133 0
M  V30 10 C 0.35581 -2.1369 -0.0254637 0
M  V30 11 N 3.06148 -0.791627 -0.519539 0
M  V30 12 H 4.08138 1.15332 0.647205 0
M  V30 13 H 3.16405 2.61894 1.07146 0
M  V30 14 H -0.796305 -0.544291 -1.83987 0
M  V30 15 H -0.0992376 0.992014 -1.32194 0
M  V30 16 H -2.49928 -1.60491 -0.18835 0
M  V30 17 H -1.98117 -1.19782 1.54207 0
M  V30 18 H -3.41794 -0.468738 0.831116 0
M  V30 19 H -0.82838 2.31946 0.643938 0
M  V30 20 H -2.23522 1.64273 1.70346 0
M  V30 21 H -3.58644 1.3568 -0.433163 0
M  V30 22 H -2.1702 2.00945 -1.42322 0
M  V30 23 H 1.28809 -2.75481 -0.192234 0
M  V30 24 H -0.379404 -2.58236 -0.745257 0
M  V30 25 H 0.0796826 -2.30908 1.02547 0
M  V30 26 H 3.33949 -0.652301 -1.5169 0
M  V30 27 H 3.63803 -1.37859 0.144373 0
M  V30 END ATOM
M  V30 BEGIN BOND
M  V30 1 1 1 2
M  V30 2 2 2 3 CFG=2
M  V30 3 1 3 4
M  V30 4 1 4 5
M  V30 5 1 5 6
M  V30 6 1 6 7
M  V30 7 1 6 8
M  V30 8 1 8 9
M  V30 9 1 4 10
M  V30 10 1 3 11
M  V30 11 1 9 6
M  V30 12 1 1 12
M  V30 13 1 1 13
M  V30 14 1 5 14
M  V30 15 1 5 15
M  V30 16 1 7 16
M  V30 17 1 7 17
M  V30 18 1 7 18
M  V30 19 1 8 19
M  V30 20 1 8 20
M  V30 21 1 9 21
M  V30 22 1 9 22
M  V30 23 1 10 23
M  V30 24 1 10 24
M  V30 25 1 10 25
M  V30 26 1 11 26
M  V30 27 1 11 27
M  V30 END BOND
M  V30 END CTAB
M  END
