
     RDKit          3D

  0  0  0  0  0  0  0  0  0  0999 V3000
M  V30 BEGIN CTAB
M  V30 COUNTS 18 18 0 0 0
M  V30 BEGIN ATOM
M  V30 1 N -1.2611 2.52829 -0.291012 0
M  V30 2 C -0.614686 1.26279 -0.146099 0
M  V30 3 C 0.747031 1.10907 -0.243989 0
M  V30 4 C 1.36039 -0.130357 -0.100293 0
M  V30 5 C 0.614264 -1.26175 0.148422 0
M  V30 6 C -0.754683 -1.11643 0.248309 0
M  V30 7 N -1.58069 -2.24017 0.502976 0
M  V30 8 C -1.35358 0.127887 0.102525 0
M  V30 9 N 2.78915 -0.254944 -0.208892 0 CHG=1
M  V30 10 O 3.37453 -1.46479 -0.0673703 0 CHG=-1
M  V30 11 O 3.44373 0.76115 -0.430926 0
M  V30 12 H -2.14594 2.77211 0.204251 0
M  V30 13 H -0.841598 3.24383 -0.913108 0
M  V30 14 H 1.37861 1.96058 -0.437486 0
M  V30 15 H 1.06923 -2.24204 0.264787 0
M  V30 16 H -2.5617 -2.25347 0.16638 0
M  V30 17 H -1.22714 -3.05818 1.02223 0
M  V30 18 H -2.43581 0.256444 0.179298 0
M  V30 END ATOM
M  V30 BEGIN BOND
M  V30 1 1 1 2
M  V30 2 2 2 3
M  V30 3 1 3 4
M  V30 4 2 4 5
M  V30 5 1 5 6
M  V30 6 1 6 7
M  V30 7 2 6 8
M  V30 8 1 4 9
M  V30 9 1 9 10
M  V30 10 2 9 11
M  V30 11 1 8 2
M  V30 12 1 1 12
M  V30 13 1 1 13
M  V30 14 1 3 14
M  V30 15 1 5 15
M  V30 16 1 7 16
M  V30 17 1 7 17
M  V30 18 1 8 18
M  V30 END BOND
M  V30 END CTAB
M  END
