
     RDKit          3D

  0  0  0  0  0  0  0  0  0  0999 V3000
M  V30 BEGIN CTAB
M  V30 COUNTS 34 34 0 0 0
M  V30 BEGIN ATOM
M  V30 1 N -3.04657 1.61824 -1.15007 0
M  V30 2 C -3.43152 0.624903 -0.225303 0
M  V30 3 N -4.39769 0.90067 0.584399 0
M  V30 4 C -2.80153 -0.716528 -0.140595 0
M  V30 5 C -1.32877 -0.667342 0.00901792 0
M  V30 6 C -0.500859 -0.960714 -1.06867 0
M  V30 7 C 0.884915 -0.920205 -0.947774 0
M  V30 8 C 1.71452 -1.27347 -2.14521 0
M  V30 9 C 1.40325 -0.581338 0.266557 0
M  V30 10 C 0.553292 -0.28803 1.34741 0
M  V30 11 C -0.812239 -0.3256 1.23841 0
M  V30 12 C -1.69577 -0.0163864 2.38546 0
M  V30 13 C 2.87596 -0.493373 0.439916 0
M  V30 14 C 3.42593 0.801964 -0.0944258 0
M  V30 15 N 4.39835 0.861659 -0.935701 0
M  V30 16 N 2.89411 2.0446 0.330388 0
M  V30 17 H -2.68596 2.53001 -0.844259 0
M  V30 18 H -3.13186 1.4149 -2.15969 0
M  V30 19 H -4.70964 0.194401 1.28194 0
M  V30 20 H -3.02153 -1.22426 -1.12451 0
M  V30 21 H -3.28774 -1.34845 0.615433 0
M  V30 22 H -0.914841 -1.22907 -2.03295 0
M  V30 23 H 2.77178 -1.41308 -1.92659 0
M  V30 24 H 1.48532 -0.572564 -2.95902 0
M  V30 25 H 1.36456 -2.28333 -2.54056 0
M  V30 26 H 0.983667 -0.022852 2.30478 0
M  V30 27 H -1.14874 -0.177423 3.36308 0
M  V30 28 H -2.56904 -0.68758 2.44657 0
M  V30 29 H -1.98933 1.0515 2.42625 0
M  V30 30 H 3.40897 -1.35321 0.0359422 0
M  V30 31 H 3.08403 -0.464233 1.52702 0
M  V30 32 H 4.83076 -0.0192625 -1.26754 0
M  V30 33 H 2.24748 2.5569 -0.287948 0
M  V30 34 H 3.14673 2.43856 1.24825 0
M  V30 END ATOM
M  V30 BEGIN BOND
M  V30 1 1 1 2
M  V30 2 2 2 3 CFG=2
M  V30 3 1 2 4
M  V30 4 1 4 5
M  V30 5 2 5 6
M  V30 6 1 6 7
M  V30 7 1 7 8
M  V30 8 2 7 9
M  V30 9 1 9 10
M  V30 10 2 10 11
M  V30 11 1 11 12
M  V30 12 1 9 13
M  V30 13 1 13 14
M  V30 14 2 14 15 CFG=2
M  V30 15 1 14 16
M  V30 16 1 11 5
M  V30 17 1 1 17
M  V30 18 1 1 18
M  V30 19 1 3 19
M  V30 20 1 4 20
M  V30 21 1 4 21
M  V30 22 1 6 22
M  V30 23 1 8 23
M  V30 24 1 8 24
M  V30 25 1 8 25
M  V30 26 1 10 26
M  V30 27 1 12 27
M  V30 28 1 12 28
M  V30 29 1 12 29
M  V30 30 1 13 30
M  V30 31 1 13 31
M  V30 32 1 15 32
M  V30 33 1 16 33
M  V30 34 1 16 34
M  V30 END BOND
M  V30 END CTAB
M  END
