
     RDKit          3D

  0  0  0  0  0  0  0  0  0  0999 V3000
M  V30 BEGIN CTAB
M  V30 COUNTS 52 54 0 0 0
M  V30 BEGIN ATOM
M  V30 1 C 6.23139 0.845594 -1.40217 0
M  V30 2 N 6.52486 0.553987 -0.0326148 0
M  V30 3 C 7.94728 0.395661 0.172385 0
M  V30 4 S 5.65051 -0.830486 0.491662 0
M  V30 5 O 6.04154 -1.15085 1.90191 0
M  V30 6 O 6.0023 -1.97137 -0.422308 0
M  V30 7 C 3.95017 -0.494729 0.364167 0
M  V30 8 C 3.29857 -0.79397 -0.811185 0
M  V30 9 C 1.95118 -0.520417 -0.891717 0
M  V30 10 C 1.22421 0.0417016 0.156304 0
M  V30 11 C 1.91746 0.324965 1.31422 0
M  V30 12 C 3.26685 0.0651926 1.43237 0
M  V30 13 N -0.189009 0.310145 0.0185822 0
M  V30 14 C -0.8553 0.846783 1.17619 0
M  V30 15 C -2.32719 0.882899 1.09702 0
M  V30 16 N -2.88712 0.463303 -0.163851 0
M  V30 17 C -2.15344 0.68177 -1.36874 0
M  V30 18 C -0.803574 0.0250539 -1.24328 0
M  V30 19 C -4.15102 -0.146795 -0.246397 0
M  V30 20 C -5.27295 0.642987 -0.429525 0
M  V30 21 C -5.09827 2.11511 -0.53713 0
M  V30 22 N -6.50252 0.063525 -0.507084 0
M  V30 23 C -6.67377 -1.26518 -0.411546 0
M  V30 24 N -7.97304 -1.87121 -0.494048 0
M  V30 25 N -5.58083 -2.02519 -0.233893 0
M  V30 26 C -4.32069 -1.50515 -0.148035 0
M  V30 27 N -3.18984 -2.32486 0.04274 0
M  V30 28 H 6.98657 1.57533 -1.76617 0
M  V30 29 H 6.28537 -0.0269759 -2.07139 0
M  V30 30 H 5.23709 1.33609 -1.4545 0
M  V30 31 H 8.16198 0.698606 1.22637 0
M  V30 32 H 8.50541 1.10572 -0.470756 0
M  V30 33 H 8.24776 -0.666714 0.00395442 0
M  V30 34 H 3.85315 -1.22895 -1.62724 0
M  V30 35 H 1.42497 -0.750846 -1.8093 0
M  V30 36 H 1.34789 0.76815 2.1408 0
M  V30 37 H 3.7715 0.309276 2.37497 0
M  V30 38 H -0.588343 0.156929 2.03181 0
M  V30 39 H -0.396452 1.82166 1.44055 0
M  V30 40 H -2.83788 0.274359 1.8958 0
M  V30 41 H -2.66811 1.94924 1.24611 0
M  V30 42 H -2.64171 0.241482 -2.26346 0
M  V30 43 H -1.95555 1.77584 -1.51125 0
M  V30 44 H -0.216878 0.407354 -2.10915 0
M  V30 45 H -0.820282 -1.07638 -1.36572 0
M  V30 46 H -4.87674 2.4923 0.482897 0
M  V30 47 H -4.31788 2.39733 -1.26968 0
M  V30 48 H -6.09325 2.56982 -0.807352 0
M  V30 49 H -8.69521 -1.56249 -1.15949 0
M  V30 50 H -8.2109 -2.66015 0.141591 0
M  V30 51 H -2.6298 -2.73151 -0.728676 0
M  V30 52 H -2.90048 -2.53394 1.02699 0
M  V30 END ATOM
M  V30 BEGIN BOND
M  V30 1 1 1 2
M  V30 2 1 2 3
M  V30 3 1 2 4
M  V30 4 2 4 5
M  V30 5 2 4 6
M  V30 6 1 4 7
M  V30 7 2 7 8
M  V30 8 1 8 9
M  V30 9 2 9 10
M  V30 10 1 10 11
M  V30 11 2 11 12
M  V30 12 1 10 13
M  V30 13 1 13 14
M  V30 14 1 14 15
M  V30 15 1 15 16
M  V30 16 1 16 17
M  V30 17 1 17 18
M  V30 18 1 16 19
M  V30 19 2 19 20
M  V30 20 1 20 21
M  V30 21 1 20 22
M  V30 22 2 22 23
M  V30 23 1 23 24
M  V30 24 1 23 25
M  V30 25 2 25 26
M  V30 26 1 26 27
M  V30 27 1 12 7
M  V30 28 1 18 13
M  V30 29 1 26 19
M  V30 30 1 1 28
M  V30 31 1 1 29
M  V30 32 1 1 30
M  V30 33 1 3 31
M  V30 34 1 3 32
M  V30 35 1 3 33
M  V30 36 1 8 34
M  V30 37 1 9 35
M  V30 38 1 11 36
M  V30 39 1 12 37
M  V30 40 1 14 38
M  V30 41 1 14 39
M  V30 42 1 15 40
M  V30 43 1 15 41
M  V30 44 1 17 42
M  V30 45 1 17 43
M  V30 46 1 18 44
M  V30 47 1 18 45
M  V30 48 1 21 46
M  V30 49 1 21 47
M  V30 50 1 21 48
M  V30 51 1 24 49
M  V30 52 1 24 50
M  V30 53 1 27 51
M  V30 54 1 27 52
M  V30 END BOND
M  V30 END CTAB
M  END
