
     RDKit          3D

  0  0  0  0  0  0  0  0  0  0999 V3000
M  V30 BEGIN CTAB
M  V30 COUNTS 19 20 0 0 0
M  V30 BEGIN ATOM
M  V30 1 N 3.34747 -1.13953 0.144306 0
M  V30 2 C 2.04194 -0.567364 0.0990259 0
M  V30 3 N 0.949457 -1.33673 -0.0536048 0
M  V30 4 C -0.291966 -0.820739 -0.0992413 0
M  V30 5 N -1.38455 -1.60767 -0.253485 0 CHG=1
M  V30 6 O -1.16796 -2.96607 -0.362121 0 CHG=-1
M  V30 7 C -2.60787 -1.05919 -0.294766 0
M  V30 8 C -2.81854 0.302376 -0.18539 0
M  V30 9 N -1.73298 1.08419 -0.0321454 0
M  V30 10 C -0.498492 0.538512 0.0102292 0
M  V30 11 C 0.621607 1.33544 0.167465 0
M  V30 12 N 0.460463 2.7302 0.283598 0
M  V30 13 N 1.84522 0.757997 0.206117 0
M  V30 14 H 3.66931 -1.62261 1.01764 0
M  V30 15 H 4.01439 -1.10761 -0.649779 0
M  V30 16 H -3.45649 -1.71438 -0.41861 0
M  V30 17 H -3.82048 0.677161 -0.226042 0
M  V30 18 H 1.2688 3.35143 0.0963984 0
M  V30 19 H -0.439326 3.16459 0.550401 0
M  V30 END ATOM
M  V30 BEGIN BOND
M  V30 1 1 1 2
M  V30 2 2 2 3
M  V30 3 1 3 4
M  V30 4 2 4 5
M  V30 5 1 5 6
M  V30 6 1 5 7
M  V30 7 2 7 8
M  V30 8 1 8 9
M  V30 9 2 9 10
M  V30 10 1 10 11
M  V30 11 1 11 12
M  V30 12 2 11 13
M  V30 13 1 13 2
M  V30 14 1 10 4
M  V30 15 1 1 14
M  V30 16 1 1 15
M  V30 17 1 7 16
M  V30 18 1 8 17
M  V30 19 1 12 18
M  V30 20 1 12 19
M  V30 END BOND
M  V30 END CTAB
M  END
