
     RDKit          3D

  0  0  0  0  0  0  0  0  0  0999 V3000
M  V30 BEGIN CTAB
M  V30 COUNTS 68 71 0 0 0
M  V30 BEGIN ATOM
M  V30 1 C -5.52234 0.126506 5.309 0
M  V30 2 O -6.11954 -0.163819 4.05466 0
M  V30 3 C -5.36468 -0.36738 2.9119 0
M  V30 4 C -3.96448 -0.296985 2.92394 0
M  V30 5 C -3.18969 -0.499032 1.78304 0
M  V30 6 C -1.71952 -0.389106 1.79658 0
M  V30 7 O -1.45284 1.02349 1.67516 0
M  V30 8 C -0.40317 1.63045 1.08129 0
M  V30 9 C 0.652536 1.00229 0.454717 0
M  V30 10 C 1.67628 1.71758 -0.122156 0
M  V30 11 N 1.67239 3.08196 -0.0891201 0
M  V30 12 C 0.647081 3.67483 0.518974 0
M  V30 13 N 0.622337 5.10656 0.573355 0
M  V30 14 N -0.362627 2.99678 1.08904 0
M  V30 15 C 2.81284 1.07683 -0.804579 0
M  V30 16 C 3.00642 -0.27435 -0.862328 0
M  V30 17 C 4.10419 -0.822894 -1.53851 0
M  V30 18 C 5.03091 -0.0308185 -2.17253 0
M  V30 19 C 6.18901 -0.551299 -2.89414 0
M  V30 20 C 7.43972 -0.703279 -2.07845 0 CFG=2
M  V30 21 N 7.88006 0.574369 -1.52777 0
M  V30 22 C 8.50042 -1.17669 -3.00054 0
M  V30 23 O 9.64458 -0.458168 -3.28009 0
M  V30 24 O 8.35101 -2.28928 -3.55864 0
M  V30 25 C 4.84015 1.33367 -2.11782 0
M  V30 26 C 3.75621 1.86128 -1.448 0
M  V30 27 C -1.19839 -0.629578 3.24015 0
M  V30 28 F -1.58088 -1.80925 3.75643 0
M  V30 29 F -1.47259 0.440052 4.00426 0
M  V30 30 F 0.224152 -0.748701 3.12539 0
M  V30 31 C -3.8392 -0.780345 0.603816 0
M  V30 32 C -5.24953 -0.853062 0.580207 0
M  V30 33 C -5.98728 -0.647196 1.72375 0
M  V30 34 O -7.38914 -0.717341 1.71137 0
M  V30 35 C -8.01299 -1.01152 0.486603 0
M  V30 36 C -3.14608 -1.05315 -0.621691 0
M  V30 37 C -3.1619 -2.37831 -1.09256 0
M  V30 38 C -2.55819 -2.72409 -2.28555 0
M  V30 39 C -1.91605 -1.78326 -3.06181 0
M  V30 40 C -1.896 -0.500793 -2.61508 0
M  V30 41 C -2.5054 -0.156224 -1.41369 0
M  V30 42 H -4.79946 -0.658667 5.61753 0
M  V30 43 H -6.3303 0.159581 6.03702 0
M  V30 44 H -4.92758 1.06622 5.22445 0
M  V30 45 H -3.56096 -0.0900019 3.87843 0
M  V30 46 H -1.1838 -1.00265 1.09641 0
M  V30 47 H 0.704185 -0.0819983 0.385987 0
M  V30 48 H 1.21526 5.64695 1.20994 0
M  V30 49 H -0.0265503 5.6049 -0.062108 0
M  V30 50 H 2.3216 -0.938241 -0.389001 0
M  V30 51 H 4.25756 -1.89144 -1.58387 0
M  V30 52 H 6.44142 0.076433 -3.77656 0
M  V30 53 H 5.93723 -1.57213 -3.2803 0
M  V30 54 H 7.34038 -1.47892 -1.28371 0
M  V30 55 H 7.16648 0.933635 -0.854919 0
M  V30 56 H 8.80744 0.44484 -1.05267 0
M  V30 57 H 10.2721 -0.0627824 -2.60708 0
M  V30 58 H 5.55821 1.99405 -2.61037 0
M  V30 59 H 3.64351 2.94099 -1.43032 0
M  V30 60 H -5.72435 -1.07423 -0.360459 0
M  V30 61 H -7.85355 -2.07335 0.177104 0
M  V30 62 H -9.10726 -0.899623 0.647753 0
M  V30 63 H -7.64584 -0.38164 -0.350238 0
M  V30 64 H -3.6658 -3.11212 -0.484132 0
M  V30 65 H -2.57406 -3.74721 -2.64398 0
M  V30 66 H -1.45094 -2.08584 -3.98807 0
M  V30 67 H -1.38805 0.250662 -3.22178 0
M  V30 68 H -2.46468 0.882815 -1.11359 0
M  V30 END ATOM
M  V30 BEGIN BOND
M  V30 1 1 1 2
M  V30 2 1 2 3
M  V30 3 2 3 4
M  V30 4 1 4 5
M  V30 5 1 5 6
M  V30 6 1 6 7
M  V30 7 1 7 8
M  V30 8 2 8 9
M  V30 9 1 9 10
M  V30 10 2 10 11
M  V30 11 1 11 12
M  V30 12 1 12 13
M  V30 13 2 12 14
M  V30 14 1 10 15
M  V30 15 2 15 16
M  V30 16 1 16 17
M  V30 17 2 17 18
M  V30 18 1 18 19
M  V30 19 1 19 20
M  V30 20 1 20 21
M  V30 21 1 20 22
M  V30 22 1 22 23
M  V30 23 2 22 24
M  V30 24 1 18 25
M  V30 25 2 25 26
M  V30 26 1 6 27
M  V30 27 1 27 28
M  V30 28 1 27 29
M  V30 29 1 27 30
M  V30 30 2 5 31
M  V30 31 1 31 32
M  V30 32 2 32 33
M  V30 33 1 33 34
M  V30 34 1 34 35
M  V30 35 1 31 36
M  V30 36 2 36 37
M  V30 37 1 37 38
M  V30 38 2 38 39
M  V30 39 1 39 40
M  V30 40 2 40 41
M  V30 41 1 33 3
M  V30 42 1 41 36
M  V30 43 1 14 8
M  V30 44 1 26 15
M  V30 45 1 1 42
M  V30 46 1 1 43
M  V30 47 1 1 44
M  V30 48 1 4 45
M  V30 49 1 6 46
M  V30 50 1 9 47
M  V30 51 1 13 48
M  V30 52 1 13 49
M  V30 53 1 16 50
M  V30 54 1 17 51
M  V30 55 1 19 52
M  V30 56 1 19 53
M  V30 57 1 20 54 CFG=1
M  V30 58 1 21 55
M  V30 59 1 21 56
M  V30 60 1 23 57
M  V30 61 1 25 58
M  V30 62 1 26 59
M  V30 63 1 32 60
M  V30 64 1 35 61
M  V30 65 1 35 62
M  V30 66 1 35 63
M  V30 67 1 37 64
M  V30 68 1 38 65
M  V30 69 1 39 66
M  V30 70 1 40 67
M  V30 71 1 41 68
M  V30 END BOND
M  V30 END CTAB
M  END
