
     RDKit          3D

  0  0  0  0  0  0  0  0  0  0999 V3000
M  V30 BEGIN CTAB
M  V30 COUNTS 50 52 0 0 0
M  V30 BEGIN ATOM
M  V30 1 C -5.78927 3.02809 1.02835 0
M  V30 2 O -4.53475 2.44348 1.29063 0
M  V30 3 C -4.06777 1.28647 0.696838 0
M  V30 4 C -2.82137 0.804791 1.02634 0
M  V30 5 C -2.33339 -0.366788 0.431594 0
M  V30 6 N -1.02989 -0.802065 0.803355 0
M  V30 7 C -0.897094 -2.10841 1.36989 0
M  V30 8 C 0.0534026 0.0754333 0.590653 0
M  V30 9 C 1.05168 -0.257053 -0.455559 0
M  V30 10 C 1.80264 -1.53592 -0.289336 0
M  V30 11 C 2.8698 -1.42155 0.790485 0
M  V30 12 C 3.81591 -0.343804 0.38387 0
M  V30 13 N 5.14194 -0.451422 0.700397 0
M  V30 14 C 5.99813 0.512449 0.336361 0
M  V30 15 N 7.40145 0.450256 0.642943 0
M  V30 16 N 5.54697 1.58193 -0.340041 0
M  V30 17 C 4.2621 1.74063 -0.677123 0
M  V30 18 N 3.75966 2.85859 -1.38782 0
M  V30 19 C 3.36266 0.734233 -0.297569 0
M  V30 20 C 1.96303 0.919691 -0.665359 0
M  V30 21 C -3.08281 -1.06362 -0.491877 0
M  V30 22 O -2.59444 -2.21781 -1.07313 0
M  V30 23 C -3.23986 -3.00772 -2.00838 0
M  V30 24 C -4.33378 -0.57739 -0.820105 0
M  V30 25 C -4.8169 0.593568 -0.223717 0
M  V30 26 H -5.94806 3.88935 1.71467 0
M  V30 27 H -5.77279 3.35363 -0.0383853 0
M  V30 28 H -6.58099 2.28273 1.22032 0
M  V30 29 H -2.25178 1.35757 1.74687 0
M  V30 30 H -0.964916 -2.92841 0.628133 0
M  V30 31 H -1.67276 -2.2977 2.17456 0
M  V30 32 H 0.0689169 -2.26824 1.92437 0
M  V30 33 H -0.275443 1.13903 0.374749 0
M  V30 34 H 0.644673 0.208224 1.55178 0
M  V30 35 H 0.455599 -0.352719 -1.42491 0
M  V30 36 H 2.39503 -1.67638 -1.24495 0
M  V30 37 H 1.23073 -2.43614 -0.162895 0
M  V30 38 H 3.46134 -2.37847 0.720031 0
M  V30 39 H 2.44643 -1.27617 1.79006 0
M  V30 40 H 7.7079 0.56977 1.62992 0
M  V30 41 H 8.06314 0.285392 -0.147322 0
M  V30 42 H 3.40354 2.73822 -2.36002 0
M  V30 43 H 3.71349 3.82884 -1.00745 0
M  V30 44 H 1.86159 1.31742 -1.7141 0
M  V30 45 H 1.55623 1.7713 -0.0310295 0
M  V30 46 H -4.02014 -2.523 -2.6022 0
M  V30 47 H -2.48872 -3.54959 -2.65033 0
M  V30 48 H -3.74596 -3.84509 -1.44314 0
M  V30 49 H -4.98316 -1.07458 -1.54236 0
M  V30 50 H -5.79193 0.988948 -0.468069 0
M  V30 END ATOM
M  V30 BEGIN BOND
M  V30 1 1 1 2
M  V30 2 1 2 3
M  V30 3 2 3 4
M  V30 4 1 4 5
M  V30 5 1 5 6
M  V30 6 1 6 7
M  V30 7 1 6 8
M  V30 8 1 8 9
M  V30 9 1 9 10
M  V30 10 1 10 11
M  V30 11 1 11 12
M  V30 12 2 12 13
M  V30 13 1 13 14
M  V30 14 1 14 15
M  V30 15 2 14 16
M  V30 16 1 16 17
M  V30 17 1 17 18
M  V30 18 2 17 19
M  V30 19 1 19 20
M  V30 20 2 5 21
M  V30 21 1 21 22
M  V30 22 1 22 23
M  V30 23 1 21 24
M  V30 24 2 24 25
M  V30 25 1 25 3
M  V30 26 1 20 9
M  V30 27 1 19 12
M  V30 28 1 1 26
M  V30 29 1 1 27
M  V30 30 1 1 28
M  V30 31 1 4 29
M  V30 32 1 7 30
M  V30 33 1 7 31
M  V30 34 1 7 32
M  V30 35 1 8 33
M  V30 36 1 8 34
M  V30 37 1 9 35
M  V30 38 1 10 36
M  V30 39 1 10 37
M  V30 40 1 11 38
M  V30 41 1 11 39
M  V30 42 1 15 40
M  V30 43 1 15 41
M  V30 44 1 18 42
M  V30 45 1 18 43
M  V30 46 1 20 44
M  V30 47 1 20 45
M  V30 48 1 23 46
M  V30 49 1 23 47
M  V30 50 1 23 48
M  V30 51 1 24 49
M  V30 52 1 25 50
M  V30 END BOND
M  V30 END CTAB
M  END
