
     RDKit          3D

  0  0  0  0  0  0  0  0  0  0999 V3000
M  V30 BEGIN CTAB
M  V30 COUNTS 45 47 0 0 0
M  V30 BEGIN ATOM
M  V30 1 N 3.7117 2.20056 1.41257 0
M  V30 2 C 4.31328 0.998585 0.893013 0
M  V30 3 C 3.65347 -0.297063 1.38386 0
M  V30 4 C 3.86882 -0.833279 -0.0349683 0
M  V30 5 C 3.79953 0.617518 -0.50179 0
M  V30 6 C 2.75384 -1.64186 -0.558062 0
M  V30 7 C 1.45272 -1.20396 -0.425129 0
M  V30 8 C 0.378764 -1.95643 -0.914621 0
M  V30 9 N -0.969247 -1.51266 -0.782189 0
M  V30 10 C -1.2101 -0.275028 -0.135506 0
M  V30 11 C -2.63921 0.0962675 -0.0480142 0
M  V30 12 C -3.69691 -0.636779 -0.524991 0
M  V30 13 C -5.02036 -0.186514 -0.38674 0
M  V30 14 C -5.26801 1.01552 0.239954 0
M  V30 15 C -4.23177 1.78079 0.73257 0
M  V30 16 C -2.96954 1.3142 0.580749 0
M  V30 17 C -1.85272 2.13276 1.1083 0
M  V30 18 C -4.54224 3.04898 1.38989 0
M  V30 19 N 0.697416 -3.11729 -1.51396 0
M  V30 20 C 1.95296 -3.5684 -1.6576 0
M  V30 21 N 2.96646 -2.81848 -1.17425 0
M  V30 22 N 2.20881 -4.82645 -2.31418 0
M  V30 23 H 3.18911 2.6934 0.63998 0
M  V30 24 H 4.48288 2.8867 1.67245 0
M  V30 25 H 5.43197 0.962925 0.950898 0
M  V30 26 H 2.585 -0.147223 1.57357 0
M  V30 27 H 4.22973 -0.82271 2.15166 0
M  V30 28 H 4.86461 -1.26636 -0.192709 0
M  V30 29 H 2.74826 0.993383 -0.576119 0
M  V30 30 H 4.46804 0.872175 -1.32478 0
M  V30 31 H 1.22074 -0.263673 0.0622909 0
M  V30 32 H -1.70306 -2.10846 -1.16047 0
M  V30 33 H -0.774328 -0.230638 0.898975 0
M  V30 34 H -0.705426 0.587656 -0.667624 0
M  V30 35 H -3.51942 -1.58336 -1.01985 0
M  V30 36 H -5.79506 -0.823716 -0.789991 0
M  V30 37 H -6.31419 1.31231 0.317466 0
M  V30 38 H -1.29638 1.49273 1.85561 0
M  V30 39 H -2.18558 3.01168 1.66287 0
M  V30 40 H -1.10282 2.35932 0.317178 0
M  V30 41 H -4.00166 3.85657 0.813284 0
M  V30 42 H -5.60326 3.28979 1.3387 0
M  V30 43 H -4.14965 3.12981 2.42186 0
M  V30 44 H 2.63377 -5.63035 -1.8436 0
M  V30 45 H 1.93903 -4.90297 -3.32548 0
M  V30 END ATOM
M  V30 BEGIN BOND
M  V30 1 1 1 2
M  V30 2 1 2 3
M  V30 3 1 3 4
M  V30 4 1 4 5
M  V30 5 1 4 6
M  V30 6 2 6 7
M  V30 7 1 7 8
M  V30 8 1 8 9
M  V30 9 1 9 10
M  V30 10 1 10 11
M  V30 11 2 11 12
M  V30 12 1 12 13
M  V30 13 2 13 14
M  V30 14 1 14 15
M  V30 15 2 15 16
M  V30 16 1 16 17
M  V30 17 1 15 18
M  V30 18 2 8 19
M  V30 19 1 19 20
M  V30 20 2 20 21
M  V30 21 1 20 22
M  V30 22 1 5 2
M  V30 23 1 21 6
M  V30 24 1 16 11
M  V30 25 1 1 23
M  V30 26 1 1 24
M  V30 27 1 2 25
M  V30 28 1 3 26
M  V30 29 1 3 27
M  V30 30 1 4 28
M  V30 31 1 5 29
M  V30 32 1 5 30
M  V30 33 1 7 31
M  V30 34 1 9 32
M  V30 35 1 10 33
M  V30 36 1 10 34
M  V30 37 1 12 35
M  V30 38 1 13 36
M  V30 39 1 14 37
M  V30 40 1 17 38
M  V30 41 1 17 39
M  V30 42 1 17 40
M  V30 43 1 18 41
M  V30 44 1 18 42
M  V30 45 1 18 43
M  V30 46 1 22 44
M  V30 47 1 22 45
M  V30 END BOND
M  V30 END CTAB
M  END
