
     RDKit          3D

  0  0  0  0  0  0  0  0  0  0999 V3000
M  V30 BEGIN CTAB
M  V30 COUNTS 20 21 0 0 0
M  V30 BEGIN ATOM
M  V30 1 N 3.53051 -0.239423 -0.139031 0
M  V30 2 N 2.17704 0.0291328 -0.0787737 0
M  V30 3 C 1.49539 1.26786 0.0484668 0
M  V30 4 O 2.10114 2.3755 0.129318 0
M  V30 5 C 0.0546376 1.02301 0.0660023 0
M  V30 6 C -1.02109 1.90094 0.172256 0
M  V30 7 C -2.28616 1.38512 0.16126 0
M  V30 8 C -2.52883 0.0110506 0.0471772 0
M  V30 9 C -1.44184 -0.829373 -0.0560895 0
M  V30 10 N -1.62224 -2.22901 -0.17414 0
M  V30 11 C -0.152394 -0.339648 -0.0480393 0
M  V30 12 C 1.16718 -0.970564 -0.13919 0
M  V30 13 O 1.32728 -2.20339 -0.251773 0
M  V30 14 H 4.12588 0.553064 -0.388269 0
M  V30 15 H 3.88781 -0.8908 0.561069 0
M  V30 16 H -0.785921 2.94606 0.257669 0
M  V30 17 H -3.13325 2.05125 0.242739 0
M  V30 18 H -3.52162 -0.392788 0.0385905 0
M  V30 19 H -1.62413 -2.82205 0.679612 0
M  V30 20 H -1.74939 -2.62593 -1.12885 0
M  V30 END ATOM
M  V30 BEGIN BOND
M  V30 1 1 1 2
M  V30 2 1 2 3
M  V30 3 2 3 4
M  V30 4 1 3 5
M  V30 5 2 5 6
M  V30 6 1 6 7
M  V30 7 2 7 8
M  V30 8 1 8 9
M  V30 9 1 9 10
M  V30 10 2 9 11
M  V30 11 1 11 12
M  V30 12 2 12 13
M  V30 13 1 12 2
M  V30 14 1 11 5
M  V30 15 1 1 14
M  V30 16 1 1 15
M  V30 17 1 6 16
M  V30 18 1 7 17
M  V30 19 1 8 18
M  V30 20 1 10 19
M  V30 21 1 10 20
M  V30 END BOND
M  V30 END CTAB
M  END
