
     RDKit          3D

  0  0  0  0  0  0  0  0  0  0999 V3000
M  V30 BEGIN CTAB
M  V30 COUNTS 21 21 0 0 0
M  V30 BEGIN ATOM
M  V30 1 N -1.69528 2.61943 0.240139 0
M  V30 2 C -1.84646 1.23395 0.42512 0
M  V30 3 N -2.94848 0.724097 1.00526 0
M  V30 4 C -3.14298 -0.587739 1.2063 0
M  V30 5 C -2.11826 -1.43498 0.773833 0
M  V30 6 N -1.0189 -0.9221 0.194632 0
M  V30 7 C -0.833807 0.391064 -0.00175566 0
M  V30 8 S 0.648474 1.03685 -0.782844 0
M  V30 9 C 1.76667 -0.331126 -1.21172 0
M  V30 10 C 2.29266 -1.00772 0.0461806 0
M  V30 11 N 3.01666 0.0035784 0.825296 0
M  V30 12 H -1.76026 3.23281 1.09078 0
M  V30 13 H -1.52636 3.06143 -0.669344 0
M  V30 14 H -4.01052 -1.02222 1.66574 0
M  V30 15 H -2.2558 -2.51017 0.928152 0
M  V30 16 H 1.14704 -1.10874 -1.74595 0
M  V30 17 H 2.56938 0.0631493 -1.83574 0
M  V30 18 H 2.99978 -1.81129 -0.250327 0
M  V30 19 H 1.48768 -1.43367 0.652434 0
M  V30 20 H 3.86356 0.289549 0.254645 0
M  V30 21 H 3.36521 -0.486147 1.67221 0
M  V30 END ATOM
M  V30 BEGIN BOND
M  V30 1 1 1 2
M  V30 2 2 2 3
M  V30 3 1 3 4
M  V30 4 2 4 5
M  V30 5 1 5 6
M  V30 6 2 6 7
M  V30 7 1 7 8
M  V30 8 1 8 9
M  V30 9 1 9 10
M  V30 10 1 10 11
M  V30 11 1 7 2
M  V30 12 1 1 12
M  V30 13 1 1 13
M  V30 14 1 4 14
M  V30 15 1 5 15
M  V30 16 1 9 16
M  V30 17 1 9 17
M  V30 18 1 10 18
M  V30 19 1 10 19
M  V30 20 1 11 20
M  V30 21 1 11 21
M  V30 END BOND
M  V30 END CTAB
M  END
