
     RDKit          3D

  0  0  0  0  0  0  0  0  0  0999 V3000
M  V30 BEGIN CTAB
M  V30 COUNTS 24 23 0 0 0
M  V30 BEGIN ATOM
M  V30 1 N 2.95966 1.23682 0.30535 0
M  V30 2 C 1.80446 0.579397 0.861269 0
M  V30 3 C 1.18118 -0.235237 -0.251862 0 CFG=1
M  V30 4 O 2.17958 -1.15163 -0.660462 0
M  V30 5 C 0.019525 -1.05821 0.221935 0
M  V30 6 O -0.396522 -1.84339 -0.86532 0
M  V30 7 C -1.15121 -0.262446 0.678937 0 CFG=2
M  V30 8 O -2.15578 -1.15934 1.05921 0
M  V30 9 C -1.73446 0.617406 -0.396619 0
M  V30 10 N -2.87404 1.3599 0.0233017 0
M  V30 11 H 3.46712 1.76233 0.97528 0
M  V30 12 H 3.4411 0.740783 -0.423932 0
M  V30 13 H 2.16431 -0.0670329 1.69199 0
M  V30 14 H 1.11218 1.37085 1.23204 0
M  V30 15 H 0.95332 0.418834 -1.09214 0
M  V30 16 H 2.19702 -1.84675 0.0608778 0
M  V30 17 H 0.368746 -1.68064 1.06296 0
M  V30 18 H -0.385508 -1.233 -1.66279 0
M  V30 19 H -0.92237 0.338296 1.58674 0
M  V30 20 H -2.36528 -1.69811 0.246418 0
M  V30 21 H -1.98788 0.0225718 -1.2803 0
M  V30 22 H -0.933158 1.3393 -0.691138 0
M  V30 23 H -3.30737 1.03544 0.909076 0
M  V30 24 H -3.63462 1.41386 -0.691725 0
M  V30 END ATOM
M  V30 BEGIN BOND
M  V30 1 1 1 2
M  V30 2 1 2 3
M  V30 3 1 3 4
M  V30 4 1 3 5
M  V30 5 1 5 6
M  V30 6 1 5 7
M  V30 7 1 7 8
M  V30 8 1 7 9
M  V30 9 1 9 10
M  V30 10 1 1 11
M  V30 11 1 1 12
M  V30 12 1 2 13
M  V30 13 1 2 14
M  V30 14 1 3 15 CFG=3
M  V30 15 1 4 16
M  V30 16 1 5 17
M  V30 17 1 6 18
M  V30 18 1 7 19 CFG=1
M  V30 19 1 8 20
M  V30 20 1 9 21
M  V30 21 1 9 22
M  V30 22 1 10 23
M  V30 23 1 10 24
M  V30 END BOND
M  V30 END CTAB
M  END
