
     RDKit          3D

  0  0  0  0  0  0  0  0  0  0999 V3000
M  V30 BEGIN CTAB
M  V30 COUNTS 38 39 0 0 0
M  V30 BEGIN ATOM
M  V30 1 N -6.33567 1.38588 0.341027 0
M  V30 2 C -4.91885 1.42748 0.144081 0
M  V30 3 C -4.37805 0.0407183 0.0585775 0
M  V30 4 C -5.23581 -1.03564 0.138964 0
M  V30 5 C -4.71561 -2.31422 0.05782 0
M  V30 6 C -3.36589 -2.50175 -0.100279 0
M  V30 7 C -2.52031 -1.39878 -0.178746 0
M  V30 8 C -2.99898 -0.111611 -0.102398 0
M  V30 9 C -1.07652 -1.64466 -0.356633 0
M  V30 10 N -0.227022 -0.593682 0.106734 0
M  V30 11 C 1.20008 -0.66201 -0.146001 0
M  V30 12 O 1.62422 -1.65269 -0.765946 0
M  V30 13 N 2.00288 0.367399 0.31031 0
M  V30 14 C 3.39112 0.530031 0.186831 0
M  V30 15 C 4.18122 -0.379924 -0.462189 0
M  V30 16 C 5.56127 -0.197521 -0.578135 0
M  V30 17 C 6.15127 0.90384 -0.0399544 0
M  V30 18 C 5.38212 1.81978 0.60932 0
M  V30 19 C 4.03008 1.65427 0.730591 0
M  V30 20 Cl 3.03876 2.83 1.56285 0
M  V30 21 N 7.56347 1.08595 -0.16402 0
M  V30 22 H -6.64924 1.84843 1.22136 0
M  V30 23 H -6.89099 1.68278 -0.491637 0
M  V30 24 H -4.43595 1.90695 1.03473 0
M  V30 25 H -4.6765 2.01028 -0.775606 0
M  V30 26 H -6.28612 -0.87323 0.262549 0
M  V30 27 H -5.3839 -3.18529 0.119848 0
M  V30 28 H -2.92806 -3.4857 -0.16671 0
M  V30 29 H -2.37777 0.770033 -0.162127 0
M  V30 30 H -0.901185 -1.79011 -1.44877 0
M  V30 31 H -0.774397 -2.58464 0.149899 0
M  V30 32 H -0.619537 0.203579 0.618881 0
M  V30 33 H 1.49713 1.16468 0.838783 0
M  V30 34 H 3.82412 -1.2833 -0.92372 0
M  V30 35 H 6.18624 -0.931537 -1.09995 0
M  V30 36 H 5.86299 2.71393 1.04615 0
M  V30 37 H 8.16584 0.307979 -0.507275 0
M  V30 38 H 8.03352 1.97229 0.0739069 0
M  V30 END ATOM
M  V30 BEGIN BOND
M  V30 1 1 1 2
M  V30 2 1 2 3
M  V30 3 2 3 4
M  V30 4 1 4 5
M  V30 5 2 5 6
M  V30 6 1 6 7
M  V30 7 2 7 8
M  V30 8 1 7 9
M  V30 9 1 9 10
M  V30 10 1 10 11
M  V30 11 2 11 12
M  V30 12 1 11 13
M  V30 13 1 13 14
M  V30 14 2 14 15
M  V30 15 1 15 16
M  V30 16 2 16 17
M  V30 17 1 17 18
M  V30 18 2 18 19
M  V30 19 1 19 20
M  V30 20 1 17 21
M  V30 21 1 8 3
M  V30 22 1 19 14
M  V30 23 1 1 22
M  V30 24 1 1 23
M  V30 25 1 2 24
M  V30 26 1 2 25
M  V30 27 1 4 26
M  V30 28 1 5 27
M  V30 29 1 6 28
M  V30 30 1 8 29
M  V30 31 1 9 30
M  V30 32 1 9 31
M  V30 33 1 10 32
M  V30 34 1 13 33
M  V30 35 1 15 34
M  V30 36 1 16 35
M  V30 37 1 18 36
M  V30 38 1 21 37
M  V30 39 1 21 38
M  V30 END BOND
M  V30 END CTAB
M  END
