
     RDKit          3D

  0  0  0  0  0  0  0  0  0  0999 V3000
M  V30 BEGIN CTAB
M  V30 COUNTS 45 47 0 0 0
M  V30 BEGIN ATOM
M  V30 1 C -3.27696 -2.35523 0.208459 0
M  V30 2 C -3.58641 -1.36329 1.29137 0
M  V30 3 C -4.03383 -0.0477207 0.779727 0
M  V30 4 C -3.1152 0.841495 0.273368 0
M  V30 5 C -3.61174 2.04575 -0.189725 0
M  V30 6 N -2.67557 2.97682 -0.715155 0
M  V30 7 N -4.93136 2.3072 -0.135368 0
M  V30 8 C -5.83236 1.43527 0.361252 0
M  V30 9 N -7.22024 1.73885 0.401765 0
M  V30 10 N -5.34744 0.261512 0.812619 0
M  V30 11 C -1.66886 0.564036 0.211664 0
M  V30 12 C -0.90755 0.725859 1.34307 0
M  V30 13 C 0.422764 0.492311 1.34102 0
M  V30 14 C 1.05789 0.082362 0.195378 0
M  V30 15 N 2.46452 -0.15035 0.21141 0
M  V30 16 C 3.13023 -0.661612 -0.995639 0
M  V30 17 C 4.58727 -0.752062 -0.719246 0
M  V30 18 C 5.43922 0.266062 -1.1613 0
M  V30 19 C 6.79346 0.25095 -0.938125 0
M  V30 20 Cl 7.79604 1.55325 -1.51938 0
M  V30 21 C 7.36567 -0.792344 -0.256207 0
M  V30 22 Cl 9.10412 -0.843651 0.0480347 0
M  V30 23 C 6.54167 -1.82105 0.196082 0
M  V30 24 C 5.18614 -1.78319 -0.0401877 0
M  V30 25 C 0.2996 -0.0817336 -0.941629 0
M  V30 26 C -1.05071 0.156916 -0.933184 0
M  V30 27 H -3.97278 -3.234 0.27098 0
M  V30 28 H -3.44743 -1.8471 -0.770223 0
M  V30 29 H -2.26832 -2.74742 0.346157 0
M  V30 30 H -2.67601 -1.20925 1.90248 0
M  V30 31 H -4.35927 -1.80785 1.9581 0
M  V30 32 H -2.49384 3.84283 -0.180137 0
M  V30 33 H -2.20761 2.76413 -1.60819 0
M  V30 34 H -7.80703 1.64976 1.25263 0
M  V30 35 H -7.67181 2.06858 -0.473101 0
M  V30 36 H -1.39219 1.04781 2.24945 0
M  V30 37 H 1.02419 0.625323 2.25427 0
M  V30 38 H 3.00158 0.0458098 1.08301 0
M  V30 39 H 2.91489 -0.0498563 -1.88382 0
M  V30 40 H 2.73326 -1.69121 -1.20767 0
M  V30 41 H 4.94488 1.08541 -1.70392 0
M  V30 42 H 7.02284 -2.62452 0.728773 0
M  V30 43 H 4.56353 -2.58898 0.318273 0
M  V30 44 H 0.824648 -0.407602 -1.83932 0
M  V30 45 H -1.66387 0.0317059 -1.82782 0
M  V30 END ATOM
M  V30 BEGIN BOND
M  V30 1 1 1 2
M  V30 2 1 2 3
M  V30 3 2 3 4
M  V30 4 1 4 5
M  V30 5 1 5 6
M  V30 6 2 5 7
M  V30 7 1 7 8
M  V30 8 1 8 9
M  V30 9 2 8 10
M  V30 10 1 4 11
M  V30 11 2 11 12
M  V30 12 1 12 13
M  V30 13 2 13 14
M  V30 14 1 14 15
M  V30 15 1 15 16
M  V30 16 1 16 17
M  V30 17 2 17 18
M  V30 18 1 18 19
M  V30 19 1 19 20
M  V30 20 2 19 21
M  V30 21 1 21 22
M  V30 22 1 21 23
M  V30 23 2 23 24
M  V30 24 1 14 25
M  V30 25 2 25 26
M  V30 26 1 10 3
M  V30 27 1 26 11
M  V30 28 1 24 17
M  V30 29 1 1 27
M  V30 30 1 1 28
M  V30 31 1 1 29
M  V30 32 1 2 30
M  V30 33 1 2 31
M  V30 34 1 6 32
M  V30 35 1 6 33
M  V30 36 1 9 34
M  V30 37 1 9 35
M  V30 38 1 12 36
M  V30 39 1 13 37
M  V30 40 1 15 38
M  V30 41 1 16 39
M  V30 42 1 16 40
M  V30 43 1 18 41
M  V30 44 1 23 42
M  V30 45 1 24 43
M  V30 46 1 25 44
M  V30 47 1 26 45
M  V30 END BOND
M  V30 END CTAB
M  END
