
     RDKit          3D

  0  0  0  0  0  0  0  0  0  0999 V3000
M  V30 BEGIN CTAB
M  V30 COUNTS 43 44 0 0 0
M  V30 BEGIN ATOM
M  V30 1 N -6.38674 -2.5821 0.1399 0
M  V30 2 C -5.37921 -1.54911 0.170275 0
M  V30 3 C -4.94441 -1.02855 1.37173 0
M  V30 4 C -3.98205 -0.0439158 1.37199 0
M  V30 5 C -3.44179 0.433147 0.170942 0
M  V30 6 C -3.87087 -0.0800433 -1.01405 0
M  V30 7 C -4.85163 -1.08272 -0.9981 0
M  V30 8 C -2.42017 1.49853 0.209377 0
M  V30 9 O -2.39862 2.29174 1.1878 0
M  V30 10 N -1.50355 1.60207 -0.834667 0
M  V30 11 C -0.43496 2.51879 -1.02285 0
M  V30 12 C 0.708652 2.53798 -0.095501 0
M  V30 13 N 1.40758 1.27233 -0.0101322 0
M  V30 14 C 2.72989 1.15899 -0.497215 0
M  V30 15 O 3.25941 2.1902 -0.99838 0
M  V30 16 C 3.47672 -0.102737 -0.43177 0
M  V30 17 C 2.96147 -1.26006 0.100015 0
M  V30 18 C 3.75114 -2.41478 0.118161 0
M  V30 19 C 5.03415 -2.41533 -0.385971 0
M  V30 20 C 5.53365 -1.25794 -0.911588 0
M  V30 21 C 4.75834 -0.134818 -0.926387 0
M  V30 22 N 5.8405 -3.60871 -0.363389 0
M  V30 23 C 0.531682 3.09395 1.27476 0
M  V30 24 H -6.48855 -3.19196 -0.695641 0
M  V30 25 H -6.99427 -2.69741 0.957508 0
M  V30 26 H -5.39063 -1.4285 2.26963 0
M  V30 27 H -3.62987 0.374686 2.297 0
M  V30 28 H -3.48278 0.267281 -1.97267 0
M  V30 29 H -5.16565 -1.46545 -1.97342 0
M  V30 30 H -1.64254 0.847078 -1.6131 0
M  V30 31 H -0.893988 3.55635 -0.989134 0
M  V30 32 H -0.0163833 2.46293 -2.06895 0
M  V30 33 H 1.46418 3.25107 -0.594875 0
M  V30 34 H 0.885198 0.470728 0.422937 0
M  V30 35 H 1.95391 -1.26785 0.49825 0
M  V30 36 H 3.31715 -3.31911 0.546037 0
M  V30 37 H 6.55608 -1.24606 -1.31683 0
M  V30 38 H 5.19507 0.769278 -1.35527 0
M  V30 39 H 5.40558 -4.54548 -0.599888 0
M  V30 40 H 6.84895 -3.53865 -0.113374 0
M  V30 41 H -0.146462 3.96144 1.31854 0
M  V30 42 H 1.55512 3.43358 1.62335 0
M  V30 43 H 0.290709 2.26911 1.97237 0
M  V30 END ATOM
M  V30 BEGIN BOND
M  V30 1 1 1 2
M  V30 2 2 2 3
M  V30 3 1 3 4
M  V30 4 2 4 5
M  V30 5 1 5 6
M  V30 6 2 6 7
M  V30 7 1 5 8
M  V30 8 2 8 9
M  V30 9 1 8 10
M  V30 10 1 10 11
M  V30 11 1 11 12
M  V30 12 1 12 13
M  V30 13 1 13 14
M  V30 14 2 14 15
M  V30 15 1 14 16
M  V30 16 2 16 17
M  V30 17 1 17 18
M  V30 18 2 18 19
M  V30 19 1 19 20
M  V30 20 2 20 21
M  V30 21 1 19 22
M  V30 22 1 12 23
M  V30 23 1 7 2
M  V30 24 1 21 16
M  V30 25 1 1 24
M  V30 26 1 1 25
M  V30 27 1 3 26
M  V30 28 1 4 27
M  V30 29 1 6 28
M  V30 30 1 7 29
M  V30 31 1 10 30
M  V30 32 1 11 31
M  V30 33 1 11 32
M  V30 34 1 12 33
M  V30 35 1 13 34
M  V30 36 1 17 35
M  V30 37 1 18 36
M  V30 38 1 20 37
M  V30 39 1 21 38
M  V30 40 1 22 39
M  V30 41 1 22 40
M  V30 42 1 23 41
M  V30 43 1 23 42
M  V30 44 1 23 43
M  V30 END BOND
M  V30 END CTAB
M  END
