
     RDKit          3D

  0  0  0  0  0  0  0  0  0  0999 V3000
M  V30 BEGIN CTAB
M  V30 COUNTS 92 95 0 0 0
M  V30 BEGIN ATOM
M  V30 1 N -5.92875 4.11703 -0.0297029 0
M  V30 2 C -6.26111 2.72837 -0.0422727 0 CFG=1
M  V30 3 C -7.51226 2.47764 -0.803517 0
M  V30 4 C -7.9557 1.08332 -0.887218 0
M  V30 5 C -8.69982 0.482897 0.134371 0
M  V30 6 C -9.15253 -0.81319 0.025105 0
M  V30 7 C -8.89224 -1.56822 -1.09031 0
M  V30 8 C -8.15804 -0.974094 -2.09695 0
M  V30 9 C -7.70213 0.317256 -1.99781 0
M  V30 10 C -5.08133 1.93328 -0.452944 0
M  V30 11 O -4.81409 1.83261 -1.67231 0
M  V30 12 N -4.29413 1.31715 0.547872 0
M  V30 13 C -3.10521 0.523796 0.34505 0 CFG=1
M  V30 14 C -3.34229 -0.874038 -0.0560146 0
M  V30 15 C -4.12278 -1.64624 0.948133 0
M  V30 16 C -3.41259 -2.2859 1.94398 0
M  V30 17 C -4.04571 -3.02926 2.92903 0
M  V30 18 C -5.41633 -3.15797 2.94995 0
M  V30 19 C -6.10697 -2.50807 1.94189 0
M  V30 20 C -5.47283 -1.7736 0.96989 0
M  V30 21 C -2.20521 1.22307 -0.607353 0
M  V30 22 O -2.33163 2.47969 -0.82531 0
M  V30 23 N -1.1757 0.5752 -1.32176 0
M  V30 24 C -0.310026 1.28566 -2.23074 0
M  V30 25 C 0.530341 2.34019 -1.55351 0
M  V30 26 N 1.39465 1.76532 -0.552717 0
M  V30 27 C 2.39379 0.812719 -0.849558 0
M  V30 28 O 2.5442 0.443676 -2.06713 0
M  V30 29 C 3.30162 0.186253 0.129068 0 CFG=2
M  V30 30 C 4.08327 1.1351 0.972336 0
M  V30 31 C 4.98239 2.04672 0.207081 0
M  V30 32 C 4.58238 3.30439 -0.178082 0
M  V30 33 C 5.45602 4.10699 -0.898574 0
M  V30 34 C 6.71999 3.69621 -1.24861 0
M  V30 35 C 7.09323 2.42369 -0.845015 0
M  V30 36 C 6.24922 1.61442 -0.134389 0
M  V30 37 N 4.1936 -0.776169 -0.546897 0
M  V30 38 C 4.17644 -2.14968 -0.240044 0
M  V30 39 O 3.38688 -2.56476 0.633356 0
M  V30 40 C 5.05864 -3.10444 -0.918314 0 CFG=1
M  V30 41 N 5.84496 -2.46752 -1.97134 0
M  V30 42 C 5.99505 -3.85403 -0.00381886 0
M  V30 43 C 6.90801 -3.00054 0.743622 0
M  V30 44 C 6.55026 -2.55093 1.99066 0
M  V30 45 C 7.39401 -1.72835 2.72876 0
M  V30 46 C 8.62754 -1.32118 2.25392 0
M  V30 47 C 8.98022 -1.78719 0.980877 0
M  V30 48 C 8.12969 -2.6007 0.267558 0
M  V30 49 H -5.09506 4.37919 -0.499818 0
M  V30 50 H -6.73688 4.689 -0.0254838 0
M  V30 51 H -6.47763 2.46333 1.02422 0
M  V30 52 H -7.3767 2.83209 -1.86632 0
M  V30 53 H -8.36469 3.07445 -0.39797 0
M  V30 54 H -8.91535 1.05831 1.02075 0
M  V30 55 H -9.73538 -1.28951 0.821749 0
M  V30 56 H -9.23305 -2.59319 -1.20929 0
M  V30 57 H -7.94472 -1.5751 -2.99839 0
M  V30 58 H -7.14709 0.715402 -2.82503 0
M  V30 59 H -4.63493 1.46844 1.56141 0
M  V30 60 H -2.47973 0.577317 1.31721 0
M  V30 61 H -3.89301 -0.902882 -1.02397 0
M  V30 62 H -2.41825 -1.45514 -0.228133 0
M  V30 63 H -2.34075 -2.22012 1.97819 0
M  V30 64 H -3.47986 -3.52726 3.70816 0
M  V30 65 H -5.93301 -3.73643 3.71257 0
M  V30 66 H -7.20339 -2.6196 1.97247 0
M  V30 67 H -6.06731 -1.29332 0.217689 0
M  V30 68 H -1.01011 -0.445576 -1.21195 0
M  V30 69 H 0.267606 0.61787 -2.87375 0
M  V30 70 H -1.0202 1.81596 -2.94318 0
M  V30 71 H 1.21269 2.72762 -2.37449 0
M  V30 72 H -0.0523369 3.15397 -1.13124 0
M  V30 73 H 1.27313 2.06883 0.435028 0
M  V30 74 H 2.66388 -0.424851 0.826575 0
M  V30 75 H 4.73629 0.58941 1.68302 0
M  V30 76 H 3.3671 1.72872 1.58655 0
M  V30 77 H 3.58401 3.68706 0.0839755 0
M  V30 78 H 5.13749 5.09192 -1.19827 0
M  V30 79 H 7.41566 4.30609 -1.80894 0
M  V30 80 H 8.09824 2.05965 -1.10781 0
M  V30 81 H 6.54433 0.612814 0.181963 0
M  V30 82 H 4.82493 -0.344108 -1.2621 0
M  V30 83 H 4.42142 -3.85938 -1.42533 0
M  V30 84 H 6.26078 -3.13766 -2.62443 0
M  V30 85 H 6.42288 -1.68495 -1.65523 0
M  V30 86 H 6.50255 -4.61831 -0.629178 0
M  V30 87 H 5.35977 -4.41891 0.721936 0
M  V30 88 H 5.61728 -2.81518 2.44322 0
M  V30 89 H 7.11501 -1.36947 3.72034 0
M  V30 90 H 9.27061 -0.683946 2.83382 0
M  V30 91 H 9.93789 -1.48749 0.580044 0
M  V30 92 H 8.44894 -2.93162 -0.702976 0
M  V30 END ATOM
M  V30 BEGIN BOND
M  V30 1 1 1 2
M  V30 2 1 2 3
M  V30 3 1 3 4
M  V30 4 2 4 5
M  V30 5 1 5 6
M  V30 6 2 6 7
M  V30 7 1 7 8
M  V30 8 2 8 9
M  V30 9 1 2 10
M  V30 10 2 10 11
M  V30 11 1 10 12
M  V30 12 1 12 13
M  V30 13 1 13 14
M  V30 14 1 14 15
M  V30 15 2 15 16
M  V30 16 1 16 17
M  V30 17 2 17 18
M  V30 18 1 18 19
M  V30 19 2 19 20
M  V30 20 1 13 21
M  V30 21 2 21 22
M  V30 22 1 21 23
M  V30 23 1 23 24
M  V30 24 1 24 25
M  V30 25 1 25 26
M  V30 26 1 26 27
M  V30 27 2 27 28
M  V30 28 1 27 29
M  V30 29 1 29 30
M  V30 30 1 30 31
M  V30 31 2 31 32
M  V30 32 1 32 33
M  V30 33 2 33 34
M  V30 34 1 34 35
M  V30 35 2 35 36
M  V30 36 1 29 37
M  V30 37 1 37 38
M  V30 38 2 38 39
M  V30 39 1 38 40
M  V30 40 1 40 41
M  V30 41 1 40 42
M  V30 42 1 42 43
M  V30 43 2 43 44
M  V30 44 1 44 45
M  V30 45 2 45 46
M  V30 46 1 46 47
M  V30 47 2 47 48
M  V30 48 1 9 4
M  V30 49 1 20 15
M  V30 50 1 36 31
M  V30 51 1 48 43
M  V30 52 1 1 49
M  V30 53 1 1 50
M  V30 54 1 2 51 CFG=1
M  V30 55 1 3 52
M  V30 56 1 3 53
M  V30 57 1 5 54
M  V30 58 1 6 55
M  V30 59 1 7 56
M  V30 60 1 8 57
M  V30 61 1 9 58
M  V30 62 1 12 59
M  V30 63 1 13 60 CFG=1
M  V30 64 1 14 61
M  V30 65 1 14 62
M  V30 66 1 16 63
M  V30 67 1 17 64
M  V30 68 1 18 65
M  V30 69 1 19 66
M  V30 70 1 20 67
M  V30 71 1 23 68
M  V30 72 1 24 69
M  V30 73 1 24 70
M  V30 74 1 25 71
M  V30 75 1 25 72
M  V30 76 1 26 73
M  V30 77 1 29 74 CFG=1
M  V30 78 1 30 75
M  V30 79 1 30 76
M  V30 80 1 32 77
M  V30 81 1 33 78
M  V30 82 1 34 79
M  V30 83 1 35 80
M  V30 84 1 36 81
M  V30 85 1 37 82
M  V30 86 1 40 83 CFG=3
M  V30 87 1 41 84
M  V30 88 1 41 85
M  V30 89 1 42 86
M  V30 90 1 42 87
M  V30 91 1 44 88
M  V30 92 1 45 89
M  V30 93 1 46 90
M  V30 94 1 47 91
M  V30 95 1 48 92
M  V30 END BOND
M  V30 END CTAB
M  END
