
     RDKit          3D

  0  0  0  0  0  0  0  0  0  0999 V3000
M  V30 BEGIN CTAB
M  V30 COUNTS 29 29 0 0 0
M  V30 BEGIN ATOM
M  V30 1 N 4.11856 -0.049205 0.000585115 0
M  V30 2 C 3.01613 0.824409 0.145894 0
M  V30 3 N 1.81258 0.424267 -0.0511242 0
M  V30 4 C 1.48839 -0.927253 -0.430907 0
M  V30 5 C 0.233231 -1.42244 0.222218 0
M  V30 6 C -0.981311 -0.643957 -0.114463 0
M  V30 7 C -2.22388 -1.22592 0.585826 0
M  V30 8 C -3.37509 -0.628604 -0.238637 0
M  V30 9 C -3.41374 0.799523 0.13745 0
M  V30 10 C -2.29004 1.45802 0.323197 0
M  V30 11 C -0.964336 0.805243 0.164982 0
M  V30 12 N 3.23777 2.17166 0.516735 0
M  V30 13 H 4.33386 -0.741631 0.729731 0
M  V30 14 H 4.69828 0.032394 -0.861174 0
M  V30 15 H 2.36706 -1.57048 -0.150976 0
M  V30 16 H 1.40854 -1.02805 -1.5527 0
M  V30 17 H 0.0730313 -2.47575 -0.158144 0
M  V30 18 H 0.394113 -1.55523 1.31465 0
M  V30 19 H -1.19017 -0.800132 -1.21509 0
M  V30 20 H -2.16612 -2.31209 0.484504 0
M  V30 21 H -2.30109 -0.85995 1.62635 0
M  V30 22 H -4.32325 -1.16002 -0.0342587 0
M  V30 23 H -3.08678 -0.677315 -1.31855 0
M  V30 24 H -4.38439 1.26281 0.249109 0
M  V30 25 H -2.32204 2.53748 0.608137 0
M  V30 26 H -0.371253 1.0763 1.08602 0
M  V30 27 H -0.464784 1.35828 -0.689838 0
M  V30 28 H 2.65847 2.64371 1.21324 0
M  V30 29 H 4.01826 2.68393 0.0572932 0
M  V30 END ATOM
M  V30 BEGIN BOND
M  V30 1 1 1 2
M  V30 2 2 2 3 CFG=2
M  V30 3 1 3 4
M  V30 4 1 4 5
M  V30 5 1 5 6
M  V30 6 1 6 7
M  V30 7 1 7 8
M  V30 8 1 8 9
M  V30 9 2 9 10
M  V30 10 1 10 11
M  V30 11 1 2 12
M  V30 12 1 11 6
M  V30 13 1 1 13
M  V30 14 1 1 14
M  V30 15 1 4 15
M  V30 16 1 4 16
M  V30 17 1 5 17
M  V30 18 1 5 18
M  V30 19 1 6 19
M  V30 20 1 7 20
M  V30 21 1 7 21
M  V30 22 1 8 22
M  V30 23 1 8 23
M  V30 24 1 9 24
M  V30 25 1 10 25
M  V30 26 1 11 26
M  V30 27 1 11 27
M  V30 28 1 12 28
M  V30 29 1 12 29
M  V30 END BOND
M  V30 END CTAB
M  END
