
     RDKit          3D

  0  0  0  0  0  0  0  0  0  0999 V3000
M  V30 BEGIN CTAB
M  V30 COUNTS 38 38 0 0 0
M  V30 BEGIN ATOM
M  V30 1 C -3.75051 0.987529 -2.27094 0
M  V30 2 C -2.50742 1.20042 -1.43024 0
M  V30 3 C -2.64853 0.60038 -0.0559154 0
M  V30 4 C -1.37358 0.857853 0.708138 0
M  V30 5 N -0.223886 0.272284 0.0706295 0
M  V30 6 C 1.06263 0.398925 0.622372 0
M  V30 7 O 1.17107 1.04784 1.70152 0
M  V30 8 C 2.24615 -0.211007 -0.0449002 0
M  V30 9 C 2.12271 -0.861724 -1.2441 0
M  V30 10 S 3.70943 -1.36965 -1.58229 0
M  V30 11 C 4.49013 -0.747768 -0.200889 0
M  V30 12 C 3.47568 -0.154013 0.492964 0
M  V30 13 S 6.20719 -0.840612 0.244157 0
M  V30 14 O 7.03185 -0.295998 -0.864595 0
M  V30 15 O 6.51726 -2.31854 0.347472 0
M  V30 16 N 6.44075 -0.0493141 1.73207 0
M  V30 17 C -2.86669 -0.895744 -0.154258 0
M  V30 18 C -3.01299 -1.54216 1.18361 0
M  V30 19 N -3.72556 1.24325 0.672681 0
M  V30 20 H -4.61175 0.677553 -1.64397 0
M  V30 21 H -3.54717 0.233885 -3.05593 0
M  V30 22 H -3.987 1.94737 -2.75306 0
M  V30 23 H -2.30627 2.29208 -1.28356 0
M  V30 24 H -1.65568 0.778741 -1.96345 0
M  V30 25 H -1.21756 1.92682 0.927614 0
M  V30 26 H -1.45543 0.360065 1.71786 0
M  V30 27 H -0.345405 -0.256346 -0.814707 0
M  V30 28 H 1.21329 -1.01182 -1.83422 0
M  V30 29 H 3.71937 0.342819 1.46178 0
M  V30 30 H 7.35292 0.464998 1.69975 0
M  V30 31 H 5.71023 0.702078 1.83633 0
M  V30 32 H -2.04038 -1.37898 -0.702736 0
M  V30 33 H -3.82526 -1.04875 -0.708711 0
M  V30 34 H -3.58025 -0.937687 1.91615 0
M  V30 35 H -3.60564 -2.47934 1.04156 0
M  V30 36 H -2.03297 -1.88936 1.60388 0
M  V30 37 H -3.50212 1.16112 1.67636 0
M  V30 38 H -4.64859 0.792803 0.461055 0
M  V30 END ATOM
M  V30 BEGIN BOND
M  V30 1 1 1 2
M  V30 2 1 2 3
M  V30 3 1 3 4
M  V30 4 1 4 5
M  V30 5 1 5 6
M  V30 6 2 6 7
M  V30 7 1 6 8
M  V30 8 2 8 9
M  V30 9 1 9 10
M  V30 10 1 10 11
M  V30 11 2 11 12
M  V30 12 1 11 13
M  V30 13 2 13 14
M  V30 14 2 13 15
M  V30 15 1 13 16
M  V30 16 1 3 17
M  V30 17 1 17 18
M  V30 18 1 3 19
M  V30 19 1 12 8
M  V30 20 1 1 20
M  V30 21 1 1 21
M  V30 22 1 1 22
M  V30 23 1 2 23
M  V30 24 1 2 24
M  V30 25 1 4 25
M  V30 26 1 4 26
M  V30 27 1 5 27
M  V30 28 1 9 28
M  V30 29 1 12 29
M  V30 30 1 16 30
M  V30 31 1 16 31
M  V30 32 1 17 32
M  V30 33 1 17 33
M  V30 34 1 18 34
M  V30 35 1 18 35
M  V30 36 1 18 36
M  V30 37 1 19 37
M  V30 38 1 19 38
M  V30 END BOND
M  V30 END CTAB
M  END
