
     RDKit          3D

  0  0  0  0  0  0  0  0  0  0999 V3000
M  V30 BEGIN CTAB
M  V30 COUNTS 26 26 0 0 0
M  V30 BEGIN ATOM
M  V30 1 N 3.53188 -0.079953 -0.976577 0
M  V30 2 C 2.98708 0.680068 0.106339 0
M  V30 3 C 1.6456 0.215681 0.562741 0
M  V30 4 C 0.626533 0.282257 -0.526986 0
M  V30 5 C -0.735841 -0.181973 -0.0887327 0
M  V30 6 C -0.756898 -1.59407 0.387978 0
M  V30 7 C -1.36962 0.709332 0.926962 0
M  V30 8 N -2.74451 0.743382 0.546288 0
M  V30 9 C -2.9044 0.320243 -0.641379 0
M  V30 10 O -1.67051 -0.0316333 -1.1593 0
M  V30 11 N -4.16392 0.211244 -1.36601 0
M  V30 12 H 4.55837 0.130842 -1.03082 0
M  V30 13 H 3.4744 -1.10235 -0.715969 0
M  V30 14 H 2.97761 1.75999 -0.180757 0
M  V30 15 H 3.68562 0.634721 0.990568 0
M  V30 16 H 1.7387 -0.849447 0.87448 0
M  V30 17 H 1.34558 0.860439 1.42694 0
M  V30 18 H 0.540894 1.2978 -0.965249 0
M  V30 19 H 0.972724 -0.376089 -1.3524 0
M  V30 20 H 0.164631 -2.1604 0.159247 0
M  V30 21 H -1.66024 -2.14696 -0.00166452 0
M  V30 22 H -0.863969 -1.64213 1.50811 0
M  V30 23 H -1.33287 0.219834 1.94538 0
M  V30 24 H -0.90006 1.71108 0.992598 0
M  V30 25 H -4.26907 0.886087 -2.15083 0
M  V30 26 H -4.87771 -0.497979 -1.09102 0
M  V30 END ATOM
M  V30 BEGIN BOND
M  V30 1 1 1 2
M  V30 2 1 2 3
M  V30 3 1 3 4
M  V30 4 1 4 5
M  V30 5 1 5 6
M  V30 6 1 5 7
M  V30 7 1 7 8
M  V30 8 2 8 9
M  V30 9 1 9 10
M  V30 10 1 9 11
M  V30 11 1 10 5
M  V30 12 1 1 12
M  V30 13 1 1 13
M  V30 14 1 2 14
M  V30 15 1 2 15
M  V30 16 1 3 16
M  V30 17 1 3 17
M  V30 18 1 4 18
M  V30 19 1 4 19
M  V30 20 1 6 20
M  V30 21 1 6 21
M  V30 22 1 6 22
M  V30 23 1 7 23
M  V30 24 1 7 24
M  V30 25 1 11 25
M  V30 26 1 11 26
M  V30 END BOND
M  V30 END CTAB
M  END
