
     RDKit          3D

  0  0  0  0  0  0  0  0  0  0999 V3000
M  V30 BEGIN CTAB
M  V30 COUNTS 45 46 0 0 0
M  V30 BEGIN ATOM
M  V30 1 C -6.22693 0.483418 0.695265 0
M  V30 2 C -4.86484 0.580051 0.0580684 0
M  V30 3 C -4.13292 1.82982 0.523553 0
M  V30 4 C -4.05869 -0.657219 0.406759 0 CFG=1
M  V30 5 N -4.77859 -1.8039 -0.10547 0
M  V30 6 C -2.75715 -0.580846 -0.305451 0
M  V30 7 O -2.45934 -1.42516 -1.17549 0
M  V30 8 O -1.8746 0.423003 -0.00723775 0
M  V30 9 C -0.652172 0.547893 -0.625101 0
M  V30 10 C 0.326889 -0.575338 -0.436012 0 CFG=1
M  V30 11 O 1.47676 -0.223686 -1.13527 0
M  V30 12 C 2.54071 -0.876479 -0.547282 0 CFG=1
M  V30 13 N 3.75564 -0.159689 -0.720416 0
M  V30 14 C 4.8544 -0.762201 -1.19583 0
M  V30 15 C 6.05095 -0.0792294 -1.37221 0
M  V30 16 C 6.11814 1.25633 -1.05143 0
M  V30 17 N 7.28258 2.03792 -1.19326 0
M  V30 18 N 5.00368 1.83892 -0.576494 0
M  V30 19 C 3.83863 1.14009 -0.413389 0
M  V30 20 O 2.87814 1.78025 0.0311292 0
M  V30 21 C 2.17682 -1.16565 0.880627 0
M  V30 22 F 2.23483 -2.52104 1.18181 0
M  V30 23 F 3.00122 -0.542495 1.78894 0
M  V30 24 C 0.739056 -0.751093 1.0037 0 CFG=2
M  V30 25 O -0.0695827 -1.74352 1.55534 0
M  V30 26 H -6.89634 1.15762 0.178603 0
M  V30 27 H -6.13069 0.794032 1.74061 0
M  V30 28 H -6.57189 -0.537807 0.65273 0
M  V30 29 H -5.02895 0.574793 -1.03871 0
M  V30 30 H -4.91795 2.59859 0.753391 0
M  V30 31 H -3.54267 1.56361 1.40451 0
M  V30 32 H -3.53421 2.22289 -0.323091 0
M  V30 33 H -3.88807 -0.727276 1.50004 0
M  V30 34 H -4.56128 -1.86493 -1.13287 0
M  V30 35 H -4.47024 -2.6861 0.343791 0
M  V30 36 H -0.136883 1.47975 -0.232264 0
M  V30 37 H -0.718129 0.736581 -1.728 0
M  V30 38 H -0.0983721 -1.50475 -0.833819 0
M  V30 39 H 2.59552 -1.88323 -1.06115 0
M  V30 40 H 4.86992 -1.81269 -1.46818 0
M  V30 41 H 6.93539 -0.567937 -1.75584 0
M  V30 42 H 8.20331 1.60211 -1.08876 0
M  V30 43 H 7.18448 3.05293 -1.40352 0
M  V30 44 H 0.590114 0.162426 1.60782 0
M  V30 45 H -0.286686 -2.41077 0.85196 0
M  V30 END ATOM
M  V30 BEGIN BOND
M  V30 1 1 1 2
M  V30 2 1 2 3
M  V30 3 1 2 4
M  V30 4 1 4 5
M  V30 5 1 4 6
M  V30 6 2 6 7
M  V30 7 1 6 8
M  V30 8 1 8 9
M  V30 9 1 9 10
M  V30 10 1 10 11
M  V30 11 1 11 12
M  V30 12 1 12 13
M  V30 13 1 13 14
M  V30 14 2 14 15
M  V30 15 1 15 16
M  V30 16 1 16 17
M  V30 17 2 16 18
M  V30 18 1 18 19
M  V30 19 2 19 20
M  V30 20 1 12 21
M  V30 21 1 21 22
M  V30 22 1 21 23
M  V30 23 1 21 24
M  V30 24 1 24 25
M  V30 25 1 24 10
M  V30 26 1 19 13
M  V30 27 1 1 26
M  V30 28 1 1 27
M  V30 29 1 1 28
M  V30 30 1 2 29
M  V30 31 1 3 30
M  V30 32 1 3 31
M  V30 33 1 3 32
M  V30 34 1 4 33 CFG=1
M  V30 35 1 5 34
M  V30 36 1 5 35
M  V30 37 1 9 36
M  V30 38 1 9 37
M  V30 39 1 10 38 CFG=3
M  V30 40 1 12 39 CFG=3
M  V30 41 1 14 40
M  V30 42 1 15 41
M  V30 43 1 17 42
M  V30 44 1 17 43
M  V30 45 1 24 44 CFG=1
M  V30 46 1 25 45
M  V30 END BOND
M  V30 END CTAB
M  END
