
     RDKit          3D

  0  0  0  0  0  0  0  0  0  0999 V3000
M  V30 BEGIN CTAB
M  V30 COUNTS 31 32 0 0 0
M  V30 BEGIN ATOM
M  V30 1 C 4.36274 -0.702003 -0.176437 0
M  V30 2 C 3.92519 0.708981 -0.0048906 0
M  V30 3 C 2.44774 0.911137 0.0281304 0
M  V30 4 C 1.66489 0.492658 -1.16648 0
M  V30 5 N 0.588477 0.129542 -0.231335 0
M  V30 6 C 1.63909 -0.152072 0.727747 0
M  V30 7 C -0.8375 0.0855991 -0.278786 0
M  V30 8 C -1.53853 0.441774 -1.41371 0
M  V30 9 C -2.92087 0.368131 -1.36823 0
M  V30 10 C -3.5683 -0.0487356 -0.221729 0
M  V30 11 C -2.84761 -0.400472 0.90257 0
M  V30 12 C -1.4847 -0.330168 0.864509 0
M  V30 13 N -3.55822 -0.829104 2.07588 0
M  V30 14 N -4.99517 -0.123163 -0.179452 0
M  V30 15 H 3.66943 -1.34515 -0.726363 0
M  V30 16 H 4.51543 -1.19578 0.825266 0
M  V30 17 H 5.34362 -0.735222 -0.703031 0
M  V30 18 H 4.34287 1.08848 0.950635 0
M  V30 19 H 4.34036 1.36562 -0.799678 0
M  V30 20 H 2.19749 1.9382 0.32895 0
M  V30 21 H 1.98651 -0.430569 -1.68262 0
M  V30 22 H 1.39039 1.25634 -1.89635 0
M  V30 23 H 2.06843 -1.14614 0.524933 0
M  V30 24 H 1.37311 0.0665418 1.77941 0
M  V30 25 H -0.996129 0.762057 -2.28904 0
M  V30 26 H -3.48306 0.650796 -2.26965 0
M  V30 27 H -0.949412 -0.614174 1.7665 0
M  V30 28 H -3.45523 -0.247649 2.93092 0
M  V30 29 H -4.1432 -1.68803 2.04282 0
M  V30 30 H -5.57508 0.607235 -0.654491 0
M  V30 31 H -5.50277 -0.884662 0.311231 0
M  V30 END ATOM
M  V30 BEGIN BOND
M  V30 1 1 1 2
M  V30 2 1 2 3
M  V30 3 1 3 4
M  V30 4 1 4 5
M  V30 5 1 5 6
M  V30 6 1 5 7
M  V30 7 2 7 8
M  V30 8 1 8 9
M  V30 9 2 9 10
M  V30 10 1 10 11
M  V30 11 2 11 12
M  V30 12 1 11 13
M  V30 13 1 10 14
M  V30 14 1 6 3
M  V30 15 1 12 7
M  V30 16 1 1 15
M  V30 17 1 1 16
M  V30 18 1 1 17
M  V30 19 1 2 18
M  V30 20 1 2 19
M  V30 21 1 3 20
M  V30 22 1 4 21
M  V30 23 1 4 22
M  V30 24 1 6 23
M  V30 25 1 6 24
M  V30 26 1 8 25
M  V30 27 1 9 26
M  V30 28 1 12 27
M  V30 29 1 13 28
M  V30 30 1 13 29
M  V30 31 1 14 30
M  V30 32 1 14 31
M  V30 END BOND
M  V30 END CTAB
M  END
