
     RDKit          3D

  0  0  0  0  0  0  0  0  0  0999 V3000
M  V30 BEGIN CTAB
M  V30 COUNTS 31 31 0 0 0
M  V30 BEGIN ATOM
M  V30 1 C 4.26879 0.319274 -1.48725 0
M  V30 2 C 2.97062 0.0950981 -0.762896 0
M  V30 3 C 1.95373 -0.541315 -1.39618 0
M  V30 4 C 0.739969 -0.770538 -0.770095 0
M  V30 5 C 0.53669 -0.353667 0.519875 0
M  V30 6 C 1.613 0.302003 1.14402 0
M  V30 7 C 2.81662 0.532656 0.532413 0
M  V30 8 C -0.724528 -0.54734 1.25543 0
M  V30 9 N -1.91742 -0.124184 0.587845 0
M  V30 10 N -2.38919 -0.665268 -0.596022 0
M  V30 11 C -3.11885 -0.023638 -1.4332 0
M  V30 12 N -3.55903 -0.650788 -2.62 0
M  V30 13 N -3.46761 1.3129 -1.14111 0
M  V30 14 P -0.642241 0.207511 2.91773 0
M  V30 15 O 0.402102 -0.671968 3.92713 0
M  V30 16 O -2.03226 0.0613809 3.52141 0
M  V30 17 H 4.10537 1.0994 -2.24168 0
M  V30 18 H 5.05052 0.685191 -0.782856 0
M  V30 19 H 4.55308 -0.633825 -1.97197 0
M  V30 20 H 2.02094 -0.909849 -2.42414 0
M  V30 21 H -0.062803 -1.28908 -1.28871 0
M  V30 22 H 1.50401 0.650749 2.16259 0
M  V30 23 H 3.64417 1.03635 1.01115 0
M  V30 24 H -0.791112 -1.65791 1.48012 0
M  V30 25 H -2.48267 0.64538 1.00983 0
M  V30 26 H -3.29555 -0.289935 -3.58404 0
M  V30 27 H -4.1672 -1.50317 -2.63505 0
M  V30 28 H -4.27553 1.50968 -0.518366 0
M  V30 29 H -2.93754 2.11614 -1.53237 0
M  V30 30 H -0.225277 1.53045 2.87357 0
M  V30 31 H -0.0907955 -1.47169 4.24283 0
M  V30 END ATOM
M  V30 BEGIN BOND
M  V30 1 1 1 2
M  V30 2 2 2 3
M  V30 3 1 3 4
M  V30 4 2 4 5
M  V30 5 1 5 6
M  V30 6 2 6 7
M  V30 7 1 5 8
M  V30 8 1 8 9
M  V30 9 1 9 10
M  V30 10 2 10 11
M  V30 11 1 11 12
M  V30 12 1 11 13
M  V30 13 1 8 14
M  V30 14 1 14 15
M  V30 15 2 14 16
M  V30 16 1 7 2
M  V30 17 1 1 17
M  V30 18 1 1 18
M  V30 19 1 1 19
M  V30 20 1 3 20
M  V30 21 1 4 21
M  V30 22 1 6 22
M  V30 23 1 7 23
M  V30 24 1 8 24
M  V30 25 1 9 25
M  V30 26 1 12 26
M  V30 27 1 12 27
M  V30 28 1 13 28
M  V30 29 1 13 29
M  V30 30 1 14 30
M  V30 31 1 15 31
M  V30 END BOND
M  V30 END CTAB
M  END
