
     RDKit          3D

  0  0  0  0  0  0  0  0  0  0999 V3000
M  V30 BEGIN CTAB
M  V30 COUNTS 33 34 0 0 0
M  V30 BEGIN ATOM
M  V30 1 N 6.52116 0.0743538 -0.380549 0
M  V30 2 C 5.10528 0.138167 -0.350811 0
M  V30 3 C 4.30867 -0.985746 -0.280169 0
M  V30 4 C 2.92131 -0.896427 -0.252295 0
M  V30 5 C 2.33026 0.335738 -0.29574 0
M  V30 6 C 3.10923 1.45631 -0.365912 0
M  V30 7 C 4.49934 1.38951 -0.394998 0
M  V30 8 C 0.864794 0.500468 -0.259669 0
M  V30 9 O 0.439073 1.62559 -0.663206 0
M  V30 10 N 0.0415033 -0.541707 0.197356 0
M  V30 11 C -1.36368 -0.534017 0.285477 0
M  V30 12 C -1.98632 -1.64409 0.874161 0
M  V30 13 C -3.35003 -1.70426 0.985778 0
M  V30 14 C -4.17624 -0.696305 0.534654 0
M  V30 15 C -3.57324 0.397182 -0.0447273 0
M  V30 16 C -2.17385 0.469085 -0.164413 0
M  V30 17 C -4.43655 1.50026 -0.540892 0
M  V30 18 N -5.59356 -0.728159 0.63551 0
M  V30 19 H 7.0034 -0.712769 0.103149 0
M  V30 20 H 7.11463 0.780784 -0.866054 0
M  V30 21 H 4.821 -1.94127 -0.24757 0
M  V30 22 H 2.3717 -1.80174 -0.201665 0
M  V30 23 H 2.69439 2.46796 -0.403362 0
M  V30 24 H 5.107 2.28256 -0.450631 0
M  V30 25 H 0.565133 -1.42515 0.508941 0
M  V30 26 H -1.40749 -2.47281 1.25109 0
M  V30 27 H -3.82085 -2.5657 1.44186 0
M  V30 28 H -1.81232 1.36743 -0.637207 0
M  V30 29 H -3.78934 2.34283 -0.907995 0
M  V30 30 H -5.08842 1.11586 -1.36829 0
M  V30 31 H -5.03589 1.92941 0.283169 0
M  V30 32 H -6.07371 -1.52092 0.153968 0
M  V30 33 H -6.1364 -0.0024242 1.16081 0
M  V30 END ATOM
M  V30 BEGIN BOND
M  V30 1 1 1 2
M  V30 2 2 2 3
M  V30 3 1 3 4
M  V30 4 2 4 5
M  V30 5 1 5 6
M  V30 6 2 6 7
M  V30 7 1 5 8
M  V30 8 2 8 9
M  V30 9 1 8 10
M  V30 10 1 10 11
M  V30 11 2 11 12
M  V30 12 1 12 13
M  V30 13 2 13 14
M  V30 14 1 14 15
M  V30 15 2 15 16
M  V30 16 1 15 17
M  V30 17 1 14 18
M  V30 18 1 7 2
M  V30 19 1 16 11
M  V30 20 1 1 19
M  V30 21 1 1 20
M  V30 22 1 3 21
M  V30 23 1 4 22
M  V30 24 1 6 23
M  V30 25 1 7 24
M  V30 26 1 10 25
M  V30 27 1 12 26
M  V30 28 1 13 27
M  V30 29 1 16 28
M  V30 30 1 17 29
M  V30 31 1 17 30
M  V30 32 1 17 31
M  V30 33 1 18 32
M  V30 34 1 18 33
M  V30 END BOND
M  V30 END CTAB
M  END
