
     RDKit          3D

  0  0  0  0  0  0  0  0  0  0999 V3000
M  V30 BEGIN CTAB
M  V30 COUNTS 81 86 0 0 0
M  V30 BEGIN ATOM
M  V30 1 N -13.5973 -1.35373 -0.781308 0
M  V30 2 C -12.1802 -1.31219 -0.830805 0
M  V30 3 N -11.5533 -1.89877 -1.863 0
M  V30 4 C -10.1897 -1.87378 -1.93562 0
M  V30 5 N -9.44356 -1.26853 -0.987406 0
M  V30 6 C -10.0216 -0.673108 0.0554375 0
M  V30 7 C -11.4045 -0.6994 0.127502 0
M  V30 8 N -11.7326 -0.0503287 1.23898 0
M  V30 9 C -10.5913 0.369098 1.84374 0
M  V30 10 N -9.52987 -0.0117911 1.11864 0
M  V30 11 C -8.17189 0.265596 1.46809 0 CFG=1
M  V30 12 O -7.26924 -0.22495 0.537036 0
M  V30 13 C -6.0556 0.258616 1.05395 0 CFG=1
M  V30 14 C -4.90674 0.0247908 0.0973366 0
M  V30 15 O -3.76435 0.531098 0.690526 0
M  V30 16 P -2.39118 0.337211 -0.274005 0
M  V30 17 O -1.99661 -1.32409 -0.383859 0
M  V30 18 O -1.23997 0.993698 0.459735 0
M  V30 19 O -2.60731 0.987455 -1.81566 0
M  V30 20 P -1.54574 0.31786 -2.93541 0
M  V30 21 O -1.34688 1.39591 -4.19957 0
M  V30 22 O -2.2126 -0.952224 -3.46746 0
M  V30 23 O -0.0925381 -0.157726 -2.23478 0
M  V30 24 P 1.12505 0.992855 -2.42629 0
M  V30 25 O 1.77772 0.776129 -3.98389 0
M  V30 26 O 0.640398 2.39621 -2.21715 0
M  V30 27 O 2.32327 0.692871 -1.24822 0
M  V30 28 P 3.36618 2.03624 -1.25215 0
M  V30 29 O 2.73943 3.19831 -0.186378 0
M  V30 30 O 3.39002 2.57184 -2.67213 0
M  V30 31 O 4.90228 1.55384 -0.804899 0
M  V30 32 C 5.14608 1.76589 0.55741 0
M  V30 33 C 6.54905 1.30974 0.896237 0 CFG=1
M  V30 34 O 6.72561 -0.0441592 0.623018 0
M  V30 35 C 8.09874 -0.199497 0.72015 0 CFG=2
M  V30 36 C 8.60292 0.898903 -0.191233 0 CFG=2
M  V30 37 O 9.88933 1.29574 0.119919 0
M  V30 38 C 7.58719 1.99501 0.0568263 0 CFG=2
M  V30 39 O 8.13401 3.0556 0.784246 0
M  V30 40 N 8.55253 -1.47621 0.204037 0
M  V30 41 C 8.03695 -2.18624 -0.798962 0
M  V30 42 N 8.7391 -3.32477 -0.981879 0
M  V30 43 C 9.73029 -3.3642 -0.086804 0
M  V30 44 C 9.60738 -2.19159 0.661213 0
M  V30 45 N 10.489 -1.96708 1.64833 0
M  V30 46 C 11.4627 -2.85773 1.90082 0
M  V30 47 N 11.5841 -4.00486 1.17021 0
M  V30 48 C 10.7294 -4.2749 0.174709 0
M  V30 49 N 10.8661 -5.46644 -0.574371 0
M  V30 50 C -6.33864 1.72181 1.25413 0 CFG=2
M  V30 51 O -5.69062 2.13676 2.40952 0
M  V30 52 C -7.84884 1.72536 1.52591 0 CFG=2
M  V30 53 O -8.09482 2.15071 2.85136 0
M  V30 54 H -14.2069 -0.942826 -1.52443 0
M  V30 55 H -14.13 -1.80656 0.0167719 0
M  V30 56 H -9.65236 -2.33641 -2.75333 0
M  V30 57 H -10.5984 0.919611 2.76366 0
M  V30 58 H -7.87888 -0.175643 2.45245 0
M  V30 59 H -5.85007 -0.273007 2.00534 0
M  V30 60 H -5.10799 0.434522 -0.902559 0
M  V30 61 H -4.77493 -1.07876 0.0113597 0
M  V30 62 H -1.62933 -1.59274 0.512486 0
M  V30 63 H -1.2519 2.33969 -3.87951 0
M  V30 64 H 1.36323 1.4274 -4.59508 0
M  V30 65 H 2.29734 2.71973 0.56672 0
M  V30 66 H 4.43332 1.13009 1.1212 0
M  V30 67 H 4.99292 2.81153 0.839962 0
M  V30 68 H 6.73162 1.48666 1.97042 0
M  V30 69 H 8.47283 -0.0389068 1.75202 0
M  V30 70 H 8.53053 0.515455 -1.24265 0
M  V30 71 H 10.498 0.905068 -0.54535 0
M  V30 72 H 7.18137 2.34815 -0.912829 0
M  V30 73 H 7.84661 3.8834 0.353282 0
M  V30 74 H 7.17358 -1.87866 -1.37765 0
M  V30 75 H 12.1799 -2.68745 2.69473 0
M  V30 76 H 10.3796 -6.32748 -0.237632 0
M  V30 77 H 11.4372 -5.47552 -1.43537 0
M  V30 78 H -6.08595 2.33102 0.384842 0
M  V30 79 H -5.22229 1.37974 2.87115 0
M  V30 80 H -8.38612 2.34639 0.803853 0
M  V30 81 H -7.72037 3.03865 3.02652 0
M  V30 END ATOM
M  V30 BEGIN BOND
M  V30 1 1 1 2
M  V30 2 2 2 3
M  V30 3 1 3 4
M  V30 4 2 4 5
M  V30 5 1 5 6
M  V30 6 2 6 7
M  V30 7 1 7 8
M  V30 8 2 8 9
M  V30 9 1 9 10
M  V30 10 1 10 11
M  V30 11 1 11 12
M  V30 12 1 12 13
M  V30 13 1 13 14
M  V30 14 1 14 15
M  V30 15 1 15 16
M  V30 16 1 16 17
M  V30 17 2 16 18
M  V30 18 1 16 19
M  V30 19 1 19 20
M  V30 20 1 20 21
M  V30 21 2 20 22
M  V30 22 1 20 23
M  V30 23 1 23 24
M  V30 24 1 24 25
M  V30 25 2 24 26
M  V30 26 1 24 27
M  V30 27 1 27 28
M  V30 28 1 28 29
M  V30 29 2 28 30
M  V30 30 1 28 31
M  V30 31 1 31 32
M  V30 32 1 32 33
M  V30 33 1 33 34
M  V30 34 1 34 35
M  V30 35 1 35 36
M  V30 36 1 36 37
M  V30 37 1 36 38
M  V30 38 1 38 39
M  V30 39 1 35 40
M  V30 40 1 40 41
M  V30 41 2 41 42
M  V30 42 1 42 43
M  V30 43 2 43 44
M  V30 44 1 44 45
M  V30 45 2 45 46
M  V30 46 1 46 47
M  V30 47 2 47 48
M  V30 48 1 48 49
M  V30 49 1 13 50
M  V30 50 1 50 51
M  V30 51 1 50 52
M  V30 52 1 52 53
M  V30 53 1 7 2
M  V30 54 1 52 11
M  V30 55 1 10 6
M  V30 56 1 38 33
M  V30 57 1 44 40
M  V30 58 1 48 43
M  V30 59 1 1 54
M  V30 60 1 1 55
M  V30 61 1 4 56
M  V30 62 1 9 57
M  V30 63 1 11 58 CFG=1
M  V30 64 1 13 59 CFG=1
M  V30 65 1 14 60
M  V30 66 1 14 61
M  V30 67 1 17 62
M  V30 68 1 21 63
M  V30 69 1 25 64
M  V30 70 1 29 65
M  V30 71 1 32 66
M  V30 72 1 32 67
M  V30 73 1 33 68 CFG=1
M  V30 74 1 35 69 CFG=1
M  V30 75 1 36 70 CFG=3
M  V30 76 1 37 71
M  V30 77 1 38 72 CFG=3
M  V30 78 1 39 73
M  V30 79 1 41 74
M  V30 80 1 46 75
M  V30 81 1 49 76
M  V30 82 1 49 77
M  V30 83 1 50 78 CFG=3
M  V30 84 1 51 79
M  V30 85 1 52 80 CFG=3
M  V30 86 1 53 81
M  V30 END BOND
M  V30 END CTAB
M  END
