
     RDKit          3D

  0  0  0  0  0  0  0  0  0  0999 V3000
M  V30 BEGIN CTAB
M  V30 COUNTS 33 34 0 0 0
M  V30 BEGIN ATOM
M  V30 1 C -4.00879 2.76942 -1.13568 0
M  V30 2 N -2.94214 2.01985 -0.536133 0
M  V30 3 C -3.1512 0.620612 -0.304904 0
M  V30 4 S -4.58147 -0.277151 -0.679656 0
M  V30 5 N -4.08573 -1.76893 -0.143405 0
M  V30 6 C -2.84518 -1.59186 0.317216 0
M  V30 7 C -2.33855 -0.336572 0.238776 0
M  V30 8 C -0.954599 -0.0572704 0.735186 0
M  V30 9 O -0.459299 1.0916 0.676564 0
M  V30 10 O -0.151057 -1.01548 1.27588 0
M  V30 11 C 1.13214 -0.916912 1.77177 0
M  V30 12 C 2.17759 -0.469298 0.854147 0
M  V30 13 N 2.53223 0.82351 0.767857 0
M  V30 14 C 3.47752 1.28739 -0.0502102 0
M  V30 15 N 3.84726 2.66352 -0.134617 0
M  V30 16 N 4.10692 0.373548 -0.836011 0
M  V30 17 C 3.79978 -0.937698 -0.799062 0
M  V30 18 N 2.83919 -1.3309 0.047664 0
M  V30 19 N 4.48867 -1.86361 -1.64449 0
M  V30 20 C -2.10863 -2.80605 0.88683 0
M  V30 21 H -3.99663 3.8319 -0.833121 0
M  V30 22 H -5.01708 2.35312 -0.925393 0
M  V30 23 H -3.89246 2.76182 -2.24224 0
M  V30 24 H -2.05772 2.44578 -0.275282 0
M  V30 25 H 1.07895 -0.270836 2.70031 0
M  V30 26 H 1.40466 -1.9313 2.19164 0
M  V30 27 H 4.82037 2.88689 -0.442585 0
M  V30 28 H 3.16935 3.41059 0.102726 0
M  V30 29 H 5.4412 -2.22718 -1.43803 0
M  V30 30 H 4.02421 -2.21046 -2.53161 0
M  V30 31 H -1.85651 -2.62349 1.95116 0
M  V30 32 H -1.1817 -2.99018 0.294757 0
M  V30 33 H -2.71129 -3.71438 0.769703 0
M  V30 END ATOM
M  V30 BEGIN BOND
M  V30 1 1 1 2
M  V30 2 1 2 3
M  V30 3 1 3 4
M  V30 4 1 4 5
M  V30 5 2 5 6
M  V30 6 1 6 7
M  V30 7 1 7 8
M  V30 8 2 8 9
M  V30 9 1 8 10
M  V30 10 1 10 11
M  V30 11 1 11 12
M  V30 12 2 12 13
M  V30 13 1 13 14
M  V30 14 1 14 15
M  V30 15 2 14 16
M  V30 16 1 16 17
M  V30 17 2 17 18
M  V30 18 1 17 19
M  V30 19 1 6 20
M  V30 20 2 7 3
M  V30 21 1 18 12
M  V30 22 1 1 21
M  V30 23 1 1 22
M  V30 24 1 1 23
M  V30 25 1 2 24
M  V30 26 1 11 25
M  V30 27 1 11 26
M  V30 28 1 15 27
M  V30 29 1 15 28
M  V30 30 1 19 29
M  V30 31 1 19 30
M  V30 32 1 20 31
M  V30 33 1 20 32
M  V30 34 1 20 33
M  V30 END BOND
M  V30 END CTAB
M  END
