
     RDKit          3D

  0  0  0  0  0  0  0  0  0  0999 V3000
M  V30 BEGIN CTAB
M  V30 COUNTS 31 32 0 0 0
M  V30 BEGIN ATOM
M  V30 1 N 6.12524 0.663514 0.210602 0
M  V30 2 C 4.72283 0.440234 0.140603 0
M  V30 3 C 4.19711 -0.798957 -0.201029 0
M  V30 4 C 2.83524 -0.997824 -0.264098 0
M  V30 5 C 1.92466 0.0157917 0.00669554 0
M  V30 6 C 0.488713 -0.293811 -0.0870634 0
M  V30 7 C -0.413826 0.614998 0.155146 0
M  V30 8 C -1.83245 0.305535 0.061535 0
M  V30 9 C -2.74724 1.31192 0.330303 0
M  V30 10 C -4.08345 1.09369 0.262112 0
M  V30 11 O -4.93763 2.16865 0.549993 0
M  V30 12 C -4.58031 -0.154947 -0.0818915 0
M  V30 13 C -3.71288 -1.18601 -0.357701 0
M  V30 14 N -4.18752 -2.47327 -0.712123 0
M  V30 15 C -2.3423 -0.924444 -0.27746 0
M  V30 16 C 2.43542 1.23936 0.343967 0
M  V30 17 C 3.81018 1.44047 0.407731 0
M  V30 18 H 6.76637 0.0592689 -0.338861 0
M  V30 19 H 6.5087 1.42509 0.806446 0
M  V30 20 H 4.91871 -1.59381 -0.413331 0
M  V30 21 H 2.43819 -1.98674 -0.536583 0
M  V30 22 H 0.171529 -1.29269 -0.361712 0
M  V30 23 H -0.129055 1.64506 0.4381 0
M  V30 24 H -2.38827 2.27991 0.596825 0
M  V30 25 H -5.92683 1.97682 0.49125 0
M  V30 26 H -5.65622 -0.289241 -0.125488 0
M  V30 27 H -4.26557 -2.70098 -1.73976 0
M  V30 28 H -4.46488 -3.21104 -0.0454148 0
M  V30 29 H -1.68819 -1.75651 -0.500349 0
M  V30 30 H 1.78808 2.06675 0.565636 0
M  V30 31 H 4.22565 2.4132 0.675915 0
M  V30 END ATOM
M  V30 BEGIN BOND
M  V30 1 1 1 2
M  V30 2 2 2 3
M  V30 3 1 3 4
M  V30 4 2 4 5
M  V30 5 1 5 6
M  V30 6 2 6 7 CFG=2
M  V30 7 1 7 8
M  V30 8 2 8 9
M  V30 9 1 9 10
M  V30 10 1 10 11
M  V30 11 2 10 12
M  V30 12 1 12 13
M  V30 13 1 13 14
M  V30 14 2 13 15
M  V30 15 1 5 16
M  V30 16 2 16 17
M  V30 17 1 17 2
M  V30 18 1 15 8
M  V30 19 1 1 18
M  V30 20 1 1 19
M  V30 21 1 3 20
M  V30 22 1 4 21
M  V30 23 1 6 22
M  V30 24 1 7 23
M  V30 25 1 9 24
M  V30 26 1 11 25
M  V30 27 1 12 26
M  V30 28 1 14 27
M  V30 29 1 14 28
M  V30 30 1 15 29
M  V30 31 1 16 30
M  V30 32 1 17 31
M  V30 END BOND
M  V30 END CTAB
M  END
