
     RDKit          3D

  0  0  0  0  0  0  0  0  0  0999 V3000
M  V30 BEGIN CTAB
M  V30 COUNTS 22 21 0 0 0
M  V30 BEGIN ATOM
M  V30 1 C -2.14886 0.660097 0.902642 0
M  V30 2 N -1.7925 -0.624004 0.320296 0
M  V30 3 N -2.84825 -1.16422 -0.38124 0
M  V30 4 C -0.599154 -0.548293 -0.509702 0
M  V30 5 C 0.591441 -0.30109 0.385893 0
M  V30 6 N 1.82546 -0.187047 -0.299486 0
M  V30 7 C 2.90202 0.150562 0.555971 0
M  V30 8 N 1.80495 0.357484 -1.54375 0
M  V30 9 H -1.35308 1.43721 0.716254 0
M  V30 10 H -3.10817 1.06259 0.489358 0
M  V30 11 H -2.26075 0.593927 1.99661 0
M  V30 12 H -3.73534 -0.807473 0.000880989 0
M  V30 13 H -2.70844 -1.06106 -1.40186 0
M  V30 14 H -0.680247 0.199768 -1.3273 0
M  V30 15 H -0.481327 -1.55438 -0.960558 0
M  V30 16 H 0.687407 -1.16413 1.11426 0
M  V30 17 H 0.430043 0.574308 1.04262 0
M  V30 18 H 2.58672 -0.0881281 1.60957 0
M  V30 19 H 3.85202 -0.373429 0.367958 0
M  V30 20 H 3.04051 1.26874 0.561142 0
M  V30 21 H 1.29546 1.25051 -1.58319 0
M  V30 22 H 2.70008 0.318064 -2.05637 0
M  V30 END ATOM
M  V30 BEGIN BOND
M  V30 1 1 1 2
M  V30 2 1 2 3
M  V30 3 1 2 4
M  V30 4 1 4 5
M  V30 5 1 5 6
M  V30 6 1 6 7
M  V30 7 1 6 8
M  V30 8 1 1 9
M  V30 9 1 1 10
M  V30 10 1 1 11
M  V30 11 1 3 12
M  V30 12 1 3 13
M  V30 13 1 4 14
M  V30 14 1 4 15
M  V30 15 1 5 16
M  V30 16 1 5 17
M  V30 17 1 7 18
M  V30 18 1 7 19
M  V30 19 1 7 20
M  V30 20 1 8 21
M  V30 21 1 8 22
M  V30 END BOND
M  V30 END CTAB
M  END
