
     RDKit          3D

  0  0  0  0  0  0  0  0  0  0999 V3000
M  V30 BEGIN CTAB
M  V30 COUNTS 39 40 0 0 0
M  V30 BEGIN ATOM
M  V30 1 N -5.15449 -2.53185 -0.0655187 0
M  V30 2 C -4.13837 -2.16645 -1.02582 0
M  V30 3 C -3.34449 -0.979903 -0.605187 0
M  V30 4 C -2.02653 -1.09973 -0.258799 0
M  V30 5 C -1.24717 -0.0195649 0.12467 0
M  V30 6 N 0.108872 -0.211103 0.489852 0
M  V30 7 C 1.12888 0.763482 0.421012 0
M  V30 8 O 0.964342 1.92318 0.0265997 0
M  V30 9 C 2.49837 0.366153 0.851527 0
M  V30 10 C 3.53782 1.4255 0.579484 0
M  V30 11 C 4.80599 0.615169 0.899634 0
M  V30 12 C 4.49352 -0.726769 0.235435 0
M  V30 13 C 3.02719 -0.763186 -0.0349085 0
M  V30 14 N 5.24826 -0.742507 -1.00487 0
M  V30 15 C -1.85607 1.21012 0.14815 0
M  V30 16 C -3.19168 1.39245 -0.193945 0
M  V30 17 C -3.90245 0.264838 -0.565662 0
M  V30 18 C -3.84359 2.72273 -0.161002 0
M  V30 19 F -4.50207 3.00417 -1.33566 0
M  V30 20 F -2.85316 3.67652 0.0282837 0
M  V30 21 F -4.71744 2.80406 0.922095 0
M  V30 22 H -5.90578 -1.84272 0.0220635 0
M  V30 23 H -4.77725 -2.73508 0.886909 0
M  V30 24 H -3.44692 -3.02636 -1.12782 0
M  V30 25 H -4.62327 -2.02262 -1.99849 0
M  V30 26 H -1.51298 -2.06338 -0.261843 0
M  V30 27 H 0.333447 -1.19302 0.84949 0
M  V30 28 H 2.50338 0.00950716 1.88686 0
M  V30 29 H 3.44636 2.30556 1.20251 0
M  V30 30 H 3.4769 1.62902 -0.514349 0
M  V30 31 H 5.71793 1.09056 0.492391 0
M  V30 32 H 4.80776 0.500266 1.99712 0
M  V30 33 H 4.80159 -1.56641 0.90352 0
M  V30 34 H 2.84469 -0.465022 -1.10592 0
M  V30 35 H 2.52438 -1.70554 0.213476 0
M  V30 36 H 6.24015 -0.924142 -0.808495 0
M  V30 37 H 4.82058 -1.37535 -1.71866 0
M  V30 38 H -1.33331 2.11429 0.450131 0
M  V30 39 H -4.95337 0.343157 -0.84426 0
M  V30 END ATOM
M  V30 BEGIN BOND
M  V30 1 1 1 2
M  V30 2 1 2 3
M  V30 3 2 3 4
M  V30 4 1 4 5
M  V30 5 1 5 6
M  V30 6 1 6 7
M  V30 7 2 7 8
M  V30 8 1 7 9
M  V30 9 1 9 10
M  V30 10 1 10 11
M  V30 11 1 11 12
M  V30 12 1 12 13
M  V30 13 1 12 14
M  V30 14 2 5 15
M  V30 15 1 15 16
M  V30 16 2 16 17
M  V30 17 1 16 18
M  V30 18 1 18 19
M  V30 19 1 18 20
M  V30 20 1 18 21
M  V30 21 1 17 3
M  V30 22 1 13 9
M  V30 23 1 1 22
M  V30 24 1 1 23
M  V30 25 1 2 24
M  V30 26 1 2 25
M  V30 27 1 4 26
M  V30 28 1 6 27
M  V30 29 1 9 28
M  V30 30 1 10 29
M  V30 31 1 10 30
M  V30 32 1 11 31
M  V30 33 1 11 32
M  V30 34 1 12 33
M  V30 35 1 13 34
M  V30 36 1 13 35
M  V30 37 1 14 36
M  V30 38 1 14 37
M  V30 39 1 15 38
M  V30 40 1 17 39
M  V30 END BOND
M  V30 END CTAB
M  END
