
     RDKit          3D

  0  0  0  0  0  0  0  0  0  0999 V3000
M  V30 BEGIN CTAB
M  V30 COUNTS 28 29 0 0 0
M  V30 BEGIN ATOM
M  V30 1 N -4.23974 -2.09267 0.990778 0
M  V30 2 C -3.60072 -0.989717 0.378491 0
M  V30 3 C -4.09606 0.307142 0.498895 0
M  V30 4 C -3.48398 1.39027 -0.0919085 0
M  V30 5 N -4.00632 2.70595 0.0435457 0
M  V30 6 N -2.36714 1.15732 -0.806313 0
M  V30 7 C -1.85512 -0.0881129 -0.946435 0
M  V30 8 N -2.47356 -1.12781 -0.358488 0
M  V30 9 S -0.369701 -0.25226 -1.92047 0
M  V30 10 C 1.08941 -0.0713612 -0.87903 0
M  V30 11 C 2.32973 -0.217065 -1.73794 0
M  V30 12 C 3.50303 -0.0538629 -0.798882 0
M  V30 13 C 4.15124 -1.03688 -0.0968238 0
M  V30 14 C 5.17366 -0.657072 0.680849 0
M  V30 15 C 5.48779 0.669645 0.713112 0
M  V30 16 S 4.34581 1.36008 -0.345883 0
M  V30 17 H -3.68331 -2.79723 1.50705 0
M  V30 18 H -5.26602 -2.21915 0.937305 0
M  V30 19 H -5.00857 0.443367 1.09155 0
M  V30 20 H -5.05487 2.8732 0.0792009 0
M  V30 21 H -3.41831 3.55858 0.113876 0
M  V30 22 H 1.13408 -0.843262 -0.0863637 0
M  V30 23 H 1.04041 0.901759 -0.381851 0
M  V30 24 H 2.40886 0.599511 -2.48446 0
M  V30 25 H 2.41214 -1.21628 -2.1775 0
M  V30 26 H 3.79646 -2.08571 -0.210024 0
M  V30 27 H 5.75992 -1.37569 1.28663 0
M  V30 28 H 6.29087 1.15731 1.29173 0
M  V30 END ATOM
M  V30 BEGIN BOND
M  V30 1 1 1 2
M  V30 2 2 2 3
M  V30 3 1 3 4
M  V30 4 1 4 5
M  V30 5 2 4 6
M  V30 6 1 6 7
M  V30 7 2 7 8
M  V30 8 1 7 9
M  V30 9 1 9 10
M  V30 10 1 10 11
M  V30 11 1 11 12
M  V30 12 2 12 13
M  V30 13 1 13 14
M  V30 14 2 14 15
M  V30 15 1 15 16
M  V30 16 1 8 2
M  V30 17 1 16 12
M  V30 18 1 1 17
M  V30 19 1 1 18
M  V30 20 1 3 19
M  V30 21 1 5 20
M  V30 22 1 5 21
M  V30 23 1 10 22
M  V30 24 1 10 23
M  V30 25 1 11 24
M  V30 26 1 11 25
M  V30 27 1 13 26
M  V30 28 1 14 27
M  V30 29 1 15 28
M  V30 END BOND
M  V30 END CTAB
M  END
