
     RDKit          3D

  0  0  0  0  0  0  0  0  0  0999 V3000
M  V30 BEGIN CTAB
M  V30 COUNTS 21 21 0 0 0
M  V30 BEGIN ATOM
M  V30 1 C -1.54956 -0.513529 0.572675 0 CFG=1
M  V30 2 N -2.87819 -1.03157 0.222414 0
M  V30 3 C -0.637658 -0.939309 -0.524898 0
M  V30 4 N 0.7182 -0.529842 -0.364325 0
M  V30 5 C 1.68301 -1.22732 0.285621 0
M  V30 6 N 2.80482 -0.532063 0.204436 0
M  V30 7 C 2.5584 0.585189 -0.48336 0
M  V30 8 N 3.47293 1.61672 -0.807768 0
M  V30 9 N 1.27953 0.572766 -0.82429 0
M  V30 10 C -1.63117 0.941268 0.713711 0
M  V30 11 O -2.83264 1.58314 0.387689 0
M  V30 12 O -0.66678 1.65215 1.11706 0
M  V30 13 H -1.23666 -0.969674 1.52284 0
M  V30 14 H -2.79578 -2.0739 0.340968 0
M  V30 15 H -2.96774 -0.865437 -0.804918 0
M  V30 16 H -0.664227 -2.05549 -0.596971 0
M  V30 17 H -0.98293 -0.559789 -1.52093 0
M  V30 18 H 1.50101 -2.17837 0.764544 0
M  V30 19 H 4.37742 1.39084 -1.2685 0
M  V30 20 H 3.23589 2.59998 -0.583301 0
M  V30 21 H -2.78788 2.53423 0.0468661 0
M  V30 END ATOM
M  V30 BEGIN BOND
M  V30 1 1 1 2
M  V30 2 1 1 3
M  V30 3 1 3 4
M  V30 4 1 4 5
M  V30 5 2 5 6
M  V30 6 1 6 7
M  V30 7 1 7 8
M  V30 8 2 7 9
M  V30 9 1 1 10
M  V30 10 1 10 11
M  V30 11 2 10 12
M  V30 12 1 9 4
M  V30 13 1 1 13 CFG=1
M  V30 14 1 2 14
M  V30 15 1 2 15
M  V30 16 1 3 16
M  V30 17 1 3 17
M  V30 18 1 5 18
M  V30 19 1 8 19
M  V30 20 1 8 20
M  V30 21 1 11 21
M  V30 END BOND
M  V30 END CTAB
M  END
