
     RDKit          3D

  0  0  0  0  0  0  0  0  0  0999 V3000
M  V30 BEGIN CTAB
M  V30 COUNTS 62 66 0 0 0
M  V30 BEGIN ATOM
M  V30 1 C -0.0806599 -1.93156 -2.80201 0
M  V30 2 C -1.03016 -1.46393 -1.76688 0
M  V30 3 N -2.13566 -2.11622 -1.39302 0
M  V30 4 N -2.76066 -1.41248 -0.436724 0
M  V30 5 C -2.06557 -0.305563 -0.187474 0
M  V30 6 C -0.966502 -0.296089 -1.00348 0
M  V30 7 C 0.103223 0.677146 -1.18362 0
M  V30 8 C 1.46636 0.202841 -0.854519 0
M  V30 9 C 2.58878 0.473263 -1.62929 0
M  V30 10 C 2.59265 1.2433 -2.88158 0
M  V30 11 N 3.62839 -0.0913672 -1.04644 0
M  V30 12 N 3.24203 -0.72126 0.0737172 0
M  V30 13 C 1.92744 -0.563905 0.223017 0
M  V30 14 N 1.14361 -1.08892 1.25794 0
M  V30 15 C 4.18942 -1.40009 0.879663 0
M  V30 16 C 4.9616 -2.39425 0.27912 0
M  V30 17 C 5.9069 -3.05693 0.986775 0
M  V30 18 C 6.07184 -2.71012 2.31746 0
M  V30 19 C 5.31623 -1.72922 2.92447 0
M  V30 20 C 4.35477 -1.05533 2.20127 0
M  V30 21 C -0.189533 2.03809 -0.653367 0
M  V30 22 C -0.976406 2.91273 -1.41225 0
M  V30 23 C -1.27209 4.18814 -1.02325 0
M  V30 24 C -0.762078 4.62811 0.189787 0
M  V30 25 C 0.00835169 3.77786 0.940671 0
M  V30 26 C 0.313193 2.47308 0.544766 0
M  V30 27 C -1.03471 6.01655 0.679748 0
M  V30 28 F -1.64892 6.75721 -0.325416 0
M  V30 29 F 0.174718 6.61358 0.976547 0
M  V30 30 F -1.88889 6.017 1.7477 0
M  V30 31 N -2.3983 0.709413 0.747595 0
M  V30 32 C -3.98697 -1.87565 0.132744 0
M  V30 33 C -5.0089 -1.00726 0.491 0
M  V30 34 C -6.17912 -1.48378 1.04001 0
M  V30 35 C -6.36561 -2.85177 1.24947 0
M  V30 36 C -5.35847 -3.72611 0.897732 0
M  V30 37 C -4.20257 -3.22234 0.353479 0
M  V30 38 H -0.560688 -2.72372 -3.4109 0
M  V30 39 H 0.819873 -2.3832 -2.32949 0
M  V30 40 H 0.183295 -1.11442 -3.50559 0
M  V30 41 H 0.129198 0.859439 -2.32808 0
M  V30 42 H 3.59428 1.6262 -3.14158 0
M  V30 43 H 2.22309 0.630613 -3.74778 0
M  V30 44 H 1.8782 2.07832 -2.79075 0
M  V30 45 H 0.474824 -1.87946 1.21901 0
M  V30 46 H 1.22832 -0.637289 2.21765 0
M  V30 47 H 4.7802 -2.6128 -0.760569 0
M  V30 48 H 6.53697 -3.8354 0.58014 0
M  V30 49 H 6.83023 -3.23936 2.88451 0
M  V30 50 H 5.49965 -1.50908 3.95893 0
M  V30 51 H 3.78995 -0.305018 2.70379 0
M  V30 52 H -1.35241 2.52872 -2.34588 0
M  V30 53 H -1.87898 4.87579 -1.59636 0
M  V30 54 H 0.408767 4.10188 1.87482 0
M  V30 55 H 0.932955 1.8656 1.19712 0
M  V30 56 H -2.02028 0.717917 1.74413 0
M  V30 57 H -3.03611 1.51494 0.529646 0
M  V30 58 H -4.92096 0.0579405 0.350245 0
M  V30 59 H -7.01172 -0.84922 1.33668 0
M  V30 60 H -7.26567 -3.26946 1.67645 0
M  V30 61 H -5.5163 -4.80628 1.06818 0
M  V30 62 H -3.42443 -3.91683 0.0803105 0
M  V30 END ATOM
M  V30 BEGIN BOND
M  V30 1 1 1 2
M  V30 2 2 2 3
M  V30 3 1 3 4
M  V30 4 1 4 5
M  V30 5 2 5 6
M  V30 6 1 6 7
M  V30 7 1 7 8
M  V30 8 1 8 9
M  V30 9 1 9 10
M  V30 10 2 9 11
M  V30 11 1 11 12
M  V30 12 1 12 13
M  V30 13 1 13 14
M  V30 14 1 12 15
M  V30 15 2 15 16
M  V30 16 1 16 17
M  V30 17 2 17 18
M  V30 18 1 18 19
M  V30 19 2 19 20
M  V30 20 1 7 21
M  V30 21 2 21 22
M  V30 22 1 22 23
M  V30 23 2 23 24
M  V30 24 1 24 25
M  V30 25 2 25 26
M  V30 26 1 24 27
M  V30 27 1 27 28
M  V30 28 1 27 29
M  V30 29 1 27 30
M  V30 30 1 5 31
M  V30 31 1 4 32
M  V30 32 2 32 33
M  V30 33 1 33 34
M  V30 34 2 34 35
M  V30 35 1 35 36
M  V30 36 2 36 37
M  V30 37 1 6 2
M  V30 38 2 13 8
M  V30 39 1 20 15
M  V30 40 1 26 21
M  V30 41 1 37 32
M  V30 42 1 1 38
M  V30 43 1 1 39
M  V30 44 1 1 40
M  V30 45 1 7 41
M  V30 46 1 10 42
M  V30 47 1 10 43
M  V30 48 1 10 44
M  V30 49 1 14 45
M  V30 50 1 14 46
M  V30 51 1 16 47
M  V30 52 1 17 48
M  V30 53 1 18 49
M  V30 54 1 19 50
M  V30 55 1 20 51
M  V30 56 1 22 52
M  V30 57 1 23 53
M  V30 58 1 25 54
M  V30 59 1 26 55
M  V30 60 1 31 56
M  V30 61 1 31 57
M  V30 62 1 33 58
M  V30 63 1 34 59
M  V30 64 1 35 60
M  V30 65 1 36 61
M  V30 66 1 37 62
M  V30 END BOND
M  V30 END CTAB
M  END
