
     RDKit          3D

  0  0  0  0  0  0  0  0  0  0999 V3000
M  V30 BEGIN CTAB
M  V30 COUNTS 28 29 0 0 0
M  V30 BEGIN ATOM
M  V30 1 C -1.70321 -1.56004 1.29577 0
M  V30 2 C -1.77992 -0.687302 0.0802062 0
M  V30 3 N -3.08286 -0.0891702 -0.107468 0
M  V30 4 C -2.9023 1.18608 -0.724776 0
M  V30 5 C -1.40698 1.42726 -0.844197 0
M  V30 6 C -0.895567 0.508634 0.272905 0
M  V30 7 C 0.536088 0.227579 0.0740254 0
M  V30 8 N 1.41789 0.542303 1.03651 0
M  V30 9 C 2.74442 0.318342 0.933199 0
M  V30 10 N 3.65962 0.65711 1.95904 0
M  V30 11 N 3.18136 -0.248867 -0.198356 0
M  V30 12 C 2.32189 -0.574871 -1.17928 0
M  V30 13 N 1.00229 -0.340137 -1.04994 0
M  V30 14 N 2.89131 -1.16764 -2.32822 0
M  V30 15 H -2.69968 -1.722 1.74928 0
M  V30 16 H -1.24196 -2.5384 0.976559 0
M  V30 17 H -1.00065 -1.14582 2.04939 0
M  V30 18 H -1.53131 -1.23394 -0.840976 0
M  V30 19 H -3.65615 -0.0849436 0.743507 0
M  V30 20 H -3.42214 1.25961 -1.69754 0
M  V30 21 H -3.29902 2.03394 -0.104715 0
M  V30 22 H -1.11995 2.46378 -0.696043 0
M  V30 23 H -1.08386 0.999142 -1.81795 0
M  V30 24 H -1.09812 0.971104 1.24068 0
M  V30 25 H 3.85425 1.6505 2.14688 0
M  V30 26 H 4.12218 -0.0811901 2.50745 0
M  V30 27 H 3.15476 -2.16162 -2.29768 0
M  V30 28 H 3.03761 -0.609439 -3.17825 0
M  V30 END ATOM
M  V30 BEGIN BOND
M  V30 1 1 1 2
M  V30 2 1 2 3
M  V30 3 1 3 4
M  V30 4 1 4 5
M  V30 5 1 5 6
M  V30 6 1 6 7
M  V30 7 2 7 8
M  V30 8 1 8 9
M  V30 9 1 9 10
M  V30 10 2 9 11
M  V30 11 1 11 12
M  V30 12 2 12 13
M  V30 13 1 12 14
M  V30 14 1 6 2
M  V30 15 1 13 7
M  V30 16 1 1 15
M  V30 17 1 1 16
M  V30 18 1 1 17
M  V30 19 1 2 18
M  V30 20 1 3 19
M  V30 21 1 4 20
M  V30 22 1 4 21
M  V30 23 1 5 22
M  V30 24 1 5 23
M  V30 25 1 6 24
M  V30 26 1 10 25
M  V30 27 1 10 26
M  V30 28 1 14 27
M  V30 29 1 14 28
M  V30 END BOND
M  V30 END CTAB
M  END
