
     RDKit          3D

  0  0  0  0  0  0  0  0  0  0999 V3000
M  V30 BEGIN CTAB
M  V30 COUNTS 16 16 0 0 0
M  V30 BEGIN ATOM
M  V30 1 N 1.73752 1.56242 -0.165687 0
M  V30 2 C 0.582827 0.726983 -0.117093 0
M  V30 3 C -0.690336 1.25799 -0.207952 0
M  V30 4 C -1.82052 0.443223 -0.160683 0
M  V30 5 C -1.69693 -0.925723 -0.0208284 0
M  V30 6 O -2.80739 -1.77458 0.0304181 0
M  V30 7 N -0.445805 -1.42002 0.0657195 0
M  V30 8 C 0.655788 -0.646166 0.0216641 0
M  V30 9 N 1.94952 -1.22339 0.117733 0
M  V30 10 H 2.12377 2.04588 0.681531 0
M  V30 11 H 2.2418 1.7217 -1.05695 0
M  V30 12 H -0.79068 2.33263 -0.31784 0
M  V30 13 H -2.81775 0.85122 -0.231059 0
M  V30 14 H -3.09283 -2.056 0.979511 0
M  V30 15 H 2.25656 -1.55499 1.05605 0
M  V30 16 H 2.61446 -1.34117 -0.674535 0
M  V30 END ATOM
M  V30 BEGIN BOND
M  V30 1 1 1 2
M  V30 2 2 2 3
M  V30 3 1 3 4
M  V30 4 2 4 5
M  V30 5 1 5 6
M  V30 6 1 5 7
M  V30 7 2 7 8
M  V30 8 1 8 9
M  V30 9 1 8 2
M  V30 10 1 1 10
M  V30 11 1 1 11
M  V30 12 1 3 12
M  V30 13 1 4 13
M  V30 14 1 6 14
M  V30 15 1 9 15
M  V30 16 1 9 16
M  V30 END BOND
M  V30 END CTAB
M  END
