
     RDKit          3D

  0  0  0  0  0  0  0  0  0  0999 V3000
M  V30 BEGIN CTAB
M  V30 COUNTS 34 34 0 0 0
M  V30 BEGIN ATOM
M  V30 1 N -2.051 0.264415 -1.22262 0
M  V30 2 N -2.7004 0.662701 -0.0829971 0
M  V30 3 N -4.09467 0.78809 -0.103475 0
M  V30 4 C -4.95564 -0.302125 -0.146276 0
M  V30 5 O -6.22702 -0.0111886 -0.127396 0
M  V30 6 C -4.57897 -1.71715 -0.210101 0
M  V30 7 Cl -3.29267 -2.05746 0.95497 0
M  V30 8 Cl -6.02934 -2.72828 0.241879 0
M  V30 9 Cl -4.09065 -2.16459 -1.84916 0
M  V30 10 N -4.57959 2.12702 -0.0833913 0
M  V30 11 C -2.06404 1.00529 1.14336 0
M  V30 12 O -2.75664 1.33842 2.1537 0
M  V30 13 C -0.609144 0.987143 1.28358 0
M  V30 14 O 0.00927004 0.655181 0.0776131 0
M  V30 15 N 1.39061 0.581035 -0.00886985 0
M  V30 16 C 2.04748 -0.52326 -0.0630402 0
M  V30 17 C 3.49378 -0.493629 -0.150432 0
M  V30 18 C 4.19809 0.688739 -0.178057 0
M  V30 19 C 5.56601 0.786616 -0.250134 0
M  V30 20 C 6.2767 -0.414415 -0.297687 0
M  V30 21 C 5.60627 -1.61306 -0.272099 0
M  V30 22 C 4.21014 -1.66149 -0.198659 0
M  V30 23 H -1.51769 -0.613886 -1.19665 0
M  V30 24 H -1.62771 1.02849 -1.79459 0
M  V30 25 H -5.55503 2.17439 -0.439146 0
M  V30 26 H -3.97132 2.70636 -0.722645 0
M  V30 27 H -0.222428 1.9726 1.68475 0
M  V30 28 H -0.384143 0.198826 2.06058 0
M  V30 29 H 1.51779 -1.45189 -0.0412634 0
M  V30 30 H 3.63275 1.61005 -0.144159 0
M  V30 31 H 6.0987 1.73052 -0.274476 0
M  V30 32 H 7.35207 -0.373581 -0.35501 0
M  V30 33 H 6.1571 -2.54176 -0.309834 0
M  V30 34 H 3.75134 -2.63812 -0.184309 0
M  V30 END ATOM
M  V30 BEGIN BOND
M  V30 1 1 1 2
M  V30 2 1 2 3
M  V30 3 1 3 4
M  V30 4 2 4 5
M  V30 5 1 4 6
M  V30 6 1 6 7
M  V30 7 1 6 8
M  V30 8 1 6 9
M  V30 9 1 3 10
M  V30 10 1 2 11
M  V30 11 2 11 12
M  V30 12 1 11 13
M  V30 13 1 13 14
M  V30 14 1 14 15
M  V30 15 2 15 16
M  V30 16 1 16 17
M  V30 17 2 17 18
M  V30 18 1 18 19
M  V30 19 2 19 20
M  V30 20 1 20 21
M  V30 21 2 21 22
M  V30 22 1 22 17
M  V30 23 1 1 23
M  V30 24 1 1 24
M  V30 25 1 10 25
M  V30 26 1 10 26
M  V30 27 1 13 27
M  V30 28 1 13 28
M  V30 29 1 16 29
M  V30 30 1 18 30
M  V30 31 1 19 31
M  V30 32 1 20 32
M  V30 33 1 21 33
M  V30 34 1 22 34
M  V30 END BOND
M  V30 END CTAB
M  END
