
     RDKit          3D

  0  0  0  0  0  0  0  0  0  0999 V3000
M  V30 BEGIN CTAB
M  V30 COUNTS 33 35 0 0 0
M  V30 BEGIN ATOM
M  V30 1 N 2.50381 -2.76335 -2.23652 0
M  V30 2 C 1.54159 -2.2543 -1.79408 0
M  V30 3 C 0.365984 -1.63476 -1.25071 0
M  V30 4 C -0.69613 -2.39559 -1.03699 0
M  V30 5 N -0.680932 -3.79882 -1.33685 0
M  V30 6 O -1.86693 -1.86021 -0.513003 0
M  V30 7 C -1.90229 -0.49844 -0.214779 0
M  V30 8 C -0.844162 0.353434 -0.407965 0
M  V30 9 C 0.429698 -0.192746 -0.97047 0
M  V30 10 C 1.58963 0.193353 -0.153149 0
M  V30 11 C 2.53615 1.09237 -0.617108 0
M  V30 12 C 3.61591 1.4348 0.176928 0
M  V30 13 C 3.74678 0.884653 1.41932 0
M  V30 14 C 2.79586 -0.0242861 1.89657 0
M  V30 15 C 1.72791 -0.355688 1.09704 0
M  V30 16 F 0.811369 -1.22608 1.54589 0
M  V30 17 C -0.933033 1.71536 -0.0908987 0
M  V30 18 C -2.08466 2.26122 0.428497 0
M  V30 19 C -3.15715 1.41616 0.628171 0
M  V30 20 C -3.0574 0.0782065 0.312315 0
M  V30 21 N -4.34312 1.98825 1.16509 0
M  V30 22 H 0.00281455 -4.44172 -0.853457 0
M  V30 23 H -1.34632 -4.18756 -2.03416 0
M  V30 24 H 0.525989 0.328811 -1.97062 0
M  V30 25 H 2.45176 1.5334 -1.58531 0
M  V30 26 H 4.37713 2.1391 -0.159834 0
M  V30 27 H 4.58443 1.13683 2.06132 0
M  V30 28 H 2.95098 -0.423379 2.87896 0
M  V30 29 H -0.0721749 2.34975 -0.260453 0
M  V30 30 H -2.12554 3.31458 0.663939 0
M  V30 31 H -3.9009 -0.576565 0.471435 0
M  V30 32 H -4.24449 2.73088 1.8882 0
M  V30 33 H -5.30257 1.68235 0.85268 0
M  V30 END ATOM
M  V30 BEGIN BOND
M  V30 1 3 1 2
M  V30 2 1 2 3
M  V30 3 2 3 4
M  V30 4 1 4 5
M  V30 5 1 4 6
M  V30 6 1 6 7
M  V30 7 2 7 8
M  V30 8 1 8 9
M  V30 9 1 9 10
M  V30 10 2 10 11
M  V30 11 1 11 12
M  V30 12 2 12 13
M  V30 13 1 13 14
M  V30 14 2 14 15
M  V30 15 1 15 16
M  V30 16 1 8 17
M  V30 17 2 17 18
M  V30 18 1 18 19
M  V30 19 2 19 20
M  V30 20 1 19 21
M  V30 21 1 9 3
M  V30 22 1 15 10
M  V30 23 1 20 7
M  V30 24 1 5 22
M  V30 25 1 5 23
M  V30 26 1 9 24
M  V30 27 1 11 25
M  V30 28 1 12 26
M  V30 29 1 13 27
M  V30 30 1 14 28
M  V30 31 1 17 29
M  V30 32 1 18 30
M  V30 33 1 20 31
M  V30 34 1 21 32
M  V30 35 1 21 33
M  V30 END BOND
M  V30 END CTAB
M  END
