
     RDKit          3D

  0  0  0  0  0  0  0  0  0  0999 V3000
M  V30 BEGIN CTAB
M  V30 COUNTS 28 29 0 0 0
M  V30 BEGIN ATOM
M  V30 1 N -3.65872 1.91927 0.551429 0
M  V30 2 C -3.06364 0.683852 0.210853 0
M  V30 3 C -3.86433 -0.320347 -0.271369 0
M  V30 4 C -3.2665 -1.53612 -0.604869 0
M  V30 5 C -1.91478 -1.71259 -0.451958 0
M  V30 6 C -1.07524 -0.699112 0.0392764 0
M  V30 7 C -1.70048 0.482212 0.357596 0
M  V30 8 C 0.33993 -0.980322 0.220646 0
M  V30 9 O 0.562351 -2.1951 0.59617 0
M  V30 10 C 1.45296 -0.107658 0.040635 0
M  V30 11 C 1.38786 1.16015 -0.471198 0
M  V30 12 C 2.55924 1.91807 -0.633766 0
M  V30 13 C 3.80438 1.43623 -0.296156 0
M  V30 14 C 3.86394 0.158453 0.21704 0
M  V30 15 C 2.72333 -0.590504 0.380375 0
M  V30 16 N 2.83704 -1.89878 0.911715 0
M  V30 17 H -4.0531 2.07114 1.52024 0
M  V30 18 H -3.69479 2.65707 -0.162556 0
M  V30 19 H -4.93231 -0.19853 -0.39803 0
M  V30 20 H -3.934 -2.31129 -0.982927 0
M  V30 21 H -1.44989 -2.64732 -0.707983 0
M  V30 22 H -1.13228 1.29229 0.765132 0
M  V30 23 H 0.446122 1.56815 -0.774165 0
M  V30 24 H 2.46177 2.91957 -1.04315 0
M  V30 25 H 4.71599 2.00145 -0.412321 0
M  V30 26 H 4.82069 -0.283522 0.505118 0
M  V30 27 H 2.94834 -2.66317 0.181486 0
M  V30 28 H 2.81614 -2.12355 1.93361 0
M  V30 END ATOM
M  V30 BEGIN BOND
M  V30 1 1 1 2
M  V30 2 2 2 3
M  V30 3 1 3 4
M  V30 4 2 4 5
M  V30 5 1 5 6
M  V30 6 2 6 7
M  V30 7 1 6 8
M  V30 8 2 8 9
M  V30 9 1 8 10
M  V30 10 2 10 11
M  V30 11 1 11 12
M  V30 12 2 12 13
M  V30 13 1 13 14
M  V30 14 2 14 15
M  V30 15 1 15 16
M  V30 16 1 7 2
M  V30 17 1 15 10
M  V30 18 1 1 17
M  V30 19 1 1 18
M  V30 20 1 3 19
M  V30 21 1 4 20
M  V30 22 1 5 21
M  V30 23 1 7 22
M  V30 24 1 11 23
M  V30 25 1 12 24
M  V30 26 1 13 25
M  V30 27 1 14 26
M  V30 28 1 16 27
M  V30 29 1 16 28
M  V30 END BOND
M  V30 END CTAB
M  END
