
     RDKit          3D

  0  0  0  0  0  0  0  0  0  0999 V3000
M  V30 BEGIN CTAB
M  V30 COUNTS 23 24 0 0 0
M  V30 BEGIN ATOM
M  V30 1 C 3.06455 -0.795712 0.779692 0
M  V30 2 C 2.34176 -0.94886 -0.552384 0
M  V30 3 N 1.27534 0.0316772 -0.633229 0
M  V30 4 C 1.38859 1.27658 -1.134 0
M  V30 5 N 0.209742 1.92082 -1.05735 0
M  V30 6 C -0.687895 1.10398 -0.505359 0
M  V30 7 C -0.00739459 -0.0819961 -0.242228 0
M  V30 8 N -0.66936 -1.12686 0.331915 0
M  V30 9 C -1.96996 -0.947886 0.617271 0
M  V30 10 N -2.67225 -2.0249 1.2145 0
M  V30 11 N -2.63374 0.194876 0.365922 0
M  V30 12 C -2.01876 1.25857 -0.202582 0
M  V30 13 N -2.7172 2.46153 -0.467233 0
M  V30 14 H 3.19978 -1.75705 1.29624 0
M  V30 15 H 2.45626 -0.13386 1.44249 0
M  V30 16 H 4.01775 -0.261504 0.586949 0
M  V30 17 H 1.91997 -1.96697 -0.611237 0
M  V30 18 H 3.0706 -0.809447 -1.38493 0
M  V30 19 H 2.33019 1.67763 -1.54093 0
M  V30 20 H -3.19581 -2.69846 0.618105 0
M  V30 21 H -2.69148 -2.18016 2.2436 0
M  V30 22 H -2.39787 3.40626 -0.174405 0
M  V30 23 H -3.6128 2.40173 -0.990798 0
M  V30 END ATOM
M  V30 BEGIN BOND
M  V30 1 1 1 2
M  V30 2 1 2 3
M  V30 3 1 3 4
M  V30 4 2 4 5
M  V30 5 1 5 6
M  V30 6 2 6 7
M  V30 7 1 7 8
M  V30 8 2 8 9
M  V30 9 1 9 10
M  V30 10 1 9 11
M  V30 11 2 11 12
M  V30 12 1 12 13
M  V30 13 1 7 3
M  V30 14 1 12 6
M  V30 15 1 1 14
M  V30 16 1 1 15
M  V30 17 1 1 16
M  V30 18 1 2 17
M  V30 19 1 2 18
M  V30 20 1 4 19
M  V30 21 1 10 20
M  V30 22 1 10 21
M  V30 23 1 13 22
M  V30 24 1 13 23
M  V30 END BOND
M  V30 END CTAB
M  END
