
     RDKit          3D

  0  0  0  0  0  0  0  0  0  0999 V3000
M  V30 BEGIN CTAB
M  V30 COUNTS 33 33 0 0 0
M  V30 BEGIN ATOM
M  V30 1 N 3.80838 0.911964 -1.18586 0
M  V30 2 C 4.34683 -0.142723 -0.391615 0
M  V30 3 C 3.38005 -1.27743 -0.157695 0
M  V30 4 C 2.13673 -0.775893 0.560686 0
M  V30 5 N 1.19036 -1.8192 0.804003 0
M  V30 6 S -0.175819 -1.21093 1.60538 0
M  V30 7 O -1.14442 -2.25642 2.02932 0
M  V30 8 O 0.302959 -0.520003 2.87414 0
M  V30 9 C -1.00157 -0.00450726 0.650072 0
M  V30 10 C -0.652704 1.31538 0.77394 0
M  V30 11 C -1.29935 2.256 0.026503 0
M  V30 12 C -2.29302 1.85343 -0.839524 0
M  V30 13 C -2.63276 0.519375 -0.952691 0
M  V30 14 C -1.99408 -0.455527 -0.20745 0
M  V30 15 S -3.90081 0.0605899 -2.06616 0
M  V30 16 O -3.61341 -1.25819 -2.69448 0
M  V30 17 O -3.97092 1.09032 -3.1712 0
M  V30 18 N -5.39734 0.0988439 -1.23139 0
M  V30 19 F 3.00294 -1.87332 -1.34599 0
M  V30 20 F 4.02597 -2.24036 0.591073 0
M  V30 21 H 3.461 1.72788 -0.63903 0
M  V30 22 H 4.37698 1.17976 -2.00226 0
M  V30 23 H 4.69816 0.2635 0.566299 0
M  V30 24 H 5.21432 -0.576857 -0.959898 0
M  V30 25 H 2.49655 -0.316515 1.50342 0
M  V30 26 H 1.64096 0.033438 -0.0100227 0
M  V30 27 H 1.01584 -2.43657 0.00765611 0
M  V30 28 H 0.128521 1.64598 1.45265 0
M  V30 29 H -1.07138 3.31418 0.0774946 0
M  V30 30 H -2.84064 2.57335 -1.46078 0
M  V30 31 H -2.25178 -1.5139 -0.286195 0
M  V30 32 H -5.62446 -0.860844 -0.909008 0
M  V30 33 H -5.36209 0.695194 -0.369912 0
M  V30 END ATOM
M  V30 BEGIN BOND
M  V30 1 1 1 2
M  V30 2 1 2 3
M  V30 3 1 3 4
M  V30 4 1 4 5
M  V30 5 1 5 6
M  V30 6 2 6 7
M  V30 7 2 6 8
M  V30 8 1 6 9
M  V30 9 2 9 10
M  V30 10 1 10 11
M  V30 11 2 11 12
M  V30 12 1 12 13
M  V30 13 2 13 14
M  V30 14 1 13 15
M  V30 15 2 15 16
M  V30 16 2 15 17
M  V30 17 1 15 18
M  V30 18 1 3 19
M  V30 19 1 3 20
M  V30 20 1 14 9
M  V30 21 1 1 21
M  V30 22 1 1 22
M  V30 23 1 2 23
M  V30 24 1 2 24
M  V30 25 1 4 25
M  V30 26 1 4 26
M  V30 27 1 5 27
M  V30 28 1 10 28
M  V30 29 1 11 29
M  V30 30 1 12 30
M  V30 31 1 14 31
M  V30 32 1 18 32
M  V30 33 1 18 33
M  V30 END BOND
M  V30 END CTAB
M  END
