
     RDKit          3D

  0  0  0  0  0  0  0  0  0  0999 V3000
M  V30 BEGIN CTAB
M  V30 COUNTS 23 23 0 0 0
M  V30 BEGIN ATOM
M  V30 1 C 3.71829 -1.33295 1.18001 0
M  V30 2 C 2.97856 -1.17689 0.107422 0
M  V30 3 C 1.51238 -1.16815 0.223412 0
M  V30 4 N 1.0069 0.117472 -0.264823 0
M  V30 5 C -0.402674 0.328683 -0.236812 0
M  V30 6 N -1.25148 -0.619892 0.223114 0
M  V30 7 C -2.57891 -0.463734 0.26712 0
M  V30 8 N -3.47426 -1.44607 0.744745 0
M  V30 9 N -3.07329 0.70361 -0.173303 0
M  V30 10 C -2.30983 1.70635 -0.648574 0
M  V30 11 C -0.944235 1.51493 -0.681166 0
M  V30 12 N -0.131724 2.57263 -1.18309 0
M  V30 13 Cl -3.06105 3.18778 -1.19739 0
M  V30 14 H 3.28197 -1.45613 2.15275 0
M  V30 15 H 4.78696 -1.33804 1.08586 0
M  V30 16 H 3.42837 -1.05364 -0.86732 0
M  V30 17 H 1.06448 -1.94714 -0.425901 0
M  V30 18 H 1.14581 -1.26792 1.25256 0
M  V30 19 H 1.61785 0.85712 -0.619283 0
M  V30 20 H -3.82228 -2.18955 0.130231 0
M  V30 21 H -3.78878 -1.42198 1.72936 0
M  V30 22 H -0.18591 2.73374 -2.2192 0
M  V30 23 H 0.482831 3.15976 -0.579722 0
M  V30 END ATOM
M  V30 BEGIN BOND
M  V30 1 2 1 2 CFG=2
M  V30 2 1 2 3
M  V30 3 1 3 4
M  V30 4 1 4 5
M  V30 5 2 5 6
M  V30 6 1 6 7
M  V30 7 1 7 8
M  V30 8 2 7 9
M  V30 9 1 9 10
M  V30 10 2 10 11
M  V30 11 1 11 12
M  V30 12 1 10 13
M  V30 13 1 11 5
M  V30 14 1 1 14
M  V30 15 1 1 15
M  V30 16 1 2 16
M  V30 17 1 3 17
M  V30 18 1 3 18
M  V30 19 1 4 19
M  V30 20 1 8 20
M  V30 21 1 8 21
M  V30 22 1 12 22
M  V30 23 1 12 23
M  V30 END BOND
M  V30 END CTAB
M  END
