
     RDKit          3D

  0  0  0  0  0  0  0  0  0  0999 V3000
M  V30 BEGIN CTAB
M  V30 COUNTS 32 32 0 0 0
M  V30 BEGIN ATOM
M  V30 1 N -2.64004 1.29957 0.645488 0
M  V30 2 C -3.1653 0.19547 0.0222752 0 CFG=1
M  V30 3 C -3.31666 0.420113 -1.46238 0
M  V30 4 S -1.65252 -0.0156155 -2.03515 0
M  V30 5 C -1.15277 -1.016 -0.57943 0 CFG=1
M  V30 6 C 0.0231877 -0.438025 0.107222 0
M  V30 7 C 1.24903 -0.343606 -0.75639 0
M  V30 8 C 2.33963 0.286041 0.110489 0
M  V30 9 C 3.61359 0.394834 -0.680693 0
M  V30 10 C 4.68086 1.02968 0.12355 0
M  V30 11 O 5.27004 0.326104 1.15577 0
M  V30 12 O 5.05306 2.2258 -0.133184 0
M  V30 13 C -2.4167 -1.09455 0.183878 0 CFG=1
M  V30 14 N -2.26024 -1.48727 1.53637 0
M  V30 15 H -2.34586 1.33279 1.56116 0
M  V30 16 H -2.40797 2.0815 0.0582273 0
M  V30 17 H -4.19096 0.0088657 0.414865 0
M  V30 18 H -4.10176 -0.282074 -1.85177 0
M  V30 19 H -3.58127 1.47842 -1.68507 0
M  V30 20 H -0.897707 -2.02692 -1.00738 0
M  V30 21 H -0.157887 0.573679 0.529122 0
M  V30 22 H 0.303436 -1.07262 0.975126 0
M  V30 23 H 1.10984 0.245557 -1.67024 0
M  V30 24 H 1.57355 -1.36495 -1.02015 0
M  V30 25 H 2.05255 1.26539 0.512981 0
M  V30 26 H 2.57019 -0.360827 0.981822 0
M  V30 27 H 3.40854 1.07565 -1.54087 0
M  V30 28 H 3.96582 -0.571367 -1.07038 0
M  V30 29 H 5.07651 0.634199 2.1163 0
M  V30 30 H -3.05804 -1.87435 -0.324784 0
M  V30 31 H -2.92944 -2.19629 1.89659 0
M  V30 32 H -2.01474 -0.729186 2.19357 0
M  V30 END ATOM
M  V30 BEGIN BOND
M  V30 1 1 1 2
M  V30 2 1 2 3
M  V30 3 1 3 4
M  V30 4 1 4 5
M  V30 5 1 5 6
M  V30 6 1 6 7
M  V30 7 1 7 8
M  V30 8 1 8 9
M  V30 9 1 9 10
M  V30 10 1 10 11
M  V30 11 2 10 12
M  V30 12 1 5 13
M  V30 13 1 13 14
M  V30 14 1 13 2
M  V30 15 1 1 15
M  V30 16 1 1 16
M  V30 17 1 2 17 CFG=1
M  V30 18 1 3 18
M  V30 19 1 3 19
M  V30 20 1 5 20 CFG=3
M  V30 21 1 6 21
M  V30 22 1 6 22
M  V30 23 1 7 23
M  V30 24 1 7 24
M  V30 25 1 8 25
M  V30 26 1 8 26
M  V30 27 1 9 27
M  V30 28 1 9 28
M  V30 29 1 11 29
M  V30 30 1 13 30 CFG=3
M  V30 31 1 14 31
M  V30 32 1 14 32
M  V30 END BOND
M  V30 END CTAB
M  END
