
     RDKit          3D

  0  0  0  0  0  0  0  0  0  0999 V3000
M  V30 BEGIN CTAB
M  V30 COUNTS 52 54 0 0 0
M  V30 BEGIN ATOM
M  V30 1 C 3.30896 -2.12281 -0.114308 0
M  V30 2 C 2.22446 -1.5639 0.779331 0
M  V30 3 C 2.75475 -0.680478 1.85528 0
M  V30 4 C 3.48999 0.493715 1.38594 0
M  V30 5 C 4.8511 0.414489 1.17842 0
M  V30 6 C 5.55382 1.51309 0.737674 0
M  V30 7 C 4.92077 2.7039 0.49634 0
M  V30 8 C 3.56859 2.80941 0.694657 0
M  V30 9 C 2.85625 1.69147 1.14272 0
M  V30 10 N 1.2496 -0.906349 -0.0276173 0
M  V30 11 C -0.0650775 -1.43584 -0.119869 0
M  V30 12 O -0.337571 -2.47904 0.517817 0
M  V30 13 C -1.07562 -0.745705 -0.963479 0
M  V30 14 C -1.23639 0.636894 -0.442359 0
M  V30 15 C -1.43832 1.6514 -1.34099 0
M  V30 16 C -1.59781 2.95261 -0.940404 0
M  V30 17 C -1.55523 3.25372 0.392914 0
M  V30 18 N -1.71473 4.58604 0.859711 0
M  V30 19 C -1.35065 2.23179 1.31633 0
M  V30 20 C -1.19061 0.92375 0.909004 0
M  V30 21 C -2.35342 -1.45693 -1.07152 0
M  V30 22 C -3.02504 -1.99069 0.00617067 0
M  V30 23 C -4.23521 -2.66214 -0.164796 0
M  V30 24 C -4.80719 -2.81935 -1.40911 0
M  V30 25 N -6.05358 -3.51173 -1.57862 0
M  V30 26 C -4.13585 -2.2847 -2.49223 0
M  V30 27 C -2.94097 -1.62243 -2.31935 0
M  V30 28 H 2.83476 -2.92258 -0.729644 0
M  V30 29 H 4.12456 -2.5963 0.444071 0
M  V30 30 H 3.65165 -1.3544 -0.84027 0
M  V30 31 H 1.78055 -2.46803 1.29252 0
M  V30 32 H 1.86223 -0.345328 2.46043 0
M  V30 33 H 3.39527 -1.22299 2.57423 0
M  V30 34 H 5.41657 -0.491539 1.34771 0
M  V30 35 H 6.61488 1.4567 0.574375 0
M  V30 36 H 5.47281 3.5558 0.153387 0
M  V30 37 H 3.04545 3.74072 0.51065 0
M  V30 38 H 1.79347 1.8375 1.28067 0
M  V30 39 H 1.51743 -0.0238663 -0.553516 0
M  V30 40 H -0.624525 -0.637052 -1.99779 0
M  V30 41 H -1.48046 1.46154 -2.41878 0
M  V30 42 H -1.76014 3.76935 -1.66017 0
M  V30 43 H -2.38741 4.77706 1.63119 0
M  V30 44 H -1.186 5.37036 0.459447 0
M  V30 45 H -1.31886 2.48288 2.37116 0
M  V30 46 H -1.02975 0.102728 1.59672 0
M  V30 47 H -2.64159 -1.9027 1.01365 0
M  V30 48 H -4.73554 -3.06732 0.69081 0
M  V30 49 H -6.36509 -4.26004 -0.936606 0
M  V30 50 H -6.63426 -3.22627 -2.38099 0
M  V30 51 H -4.58811 -2.40869 -3.47746 0
M  V30 52 H -2.42293 -1.20774 -3.17051 0
M  V30 END ATOM
M  V30 BEGIN BOND
M  V30 1 1 1 2
M  V30 2 1 2 3
M  V30 3 1 3 4
M  V30 4 2 4 5
M  V30 5 1 5 6
M  V30 6 2 6 7
M  V30 7 1 7 8
M  V30 8 2 8 9
M  V30 9 1 2 10
M  V30 10 1 10 11
M  V30 11 2 11 12
M  V30 12 1 11 13
M  V30 13 1 13 14
M  V30 14 2 14 15
M  V30 15 1 15 16
M  V30 16 2 16 17
M  V30 17 1 17 18
M  V30 18 1 17 19
M  V30 19 2 19 20
M  V30 20 1 13 21
M  V30 21 2 21 22
M  V30 22 1 22 23
M  V30 23 2 23 24
M  V30 24 1 24 25
M  V30 25 1 24 26
M  V30 26 2 26 27
M  V30 27 1 9 4
M  V30 28 1 20 14
M  V30 29 1 27 21
M  V30 30 1 1 28
M  V30 31 1 1 29
M  V30 32 1 1 30
M  V30 33 1 2 31
M  V30 34 1 3 32
M  V30 35 1 3 33
M  V30 36 1 5 34
M  V30 37 1 6 35
M  V30 38 1 7 36
M  V30 39 1 8 37
M  V30 40 1 9 38
M  V30 41 1 10 39
M  V30 42 1 13 40
M  V30 43 1 15 41
M  V30 44 1 16 42
M  V30 45 1 18 43
M  V30 46 1 18 44
M  V30 47 1 19 45
M  V30 48 1 20 46
M  V30 49 1 22 47
M  V30 50 1 23 48
M  V30 51 1 25 49
M  V30 52 1 25 50
M  V30 53 1 26 51
M  V30 54 1 27 52
M  V30 END BOND
M  V30 END CTAB
M  END
