
     RDKit          3D

  0  0  0  0  0  0  0  0  0  0999 V3000
M  V30 BEGIN CTAB
M  V30 COUNTS 29 30 0 0 0
M  V30 BEGIN ATOM
M  V30 1 C 3.31466 0.951567 1.31999 0
M  V30 2 N 2.74898 0.0976402 0.280326 0
M  V30 3 C 1.47 0.346728 -0.27546 0
M  V30 4 C 1.29893 1.13151 -1.41195 0
M  V30 5 C 0.0495391 1.36184 -1.932 0
M  V30 6 C -1.05724 0.816116 -1.33213 0
M  V30 7 C -0.934746 0.032421 -0.204762 0
M  V30 8 C 0.345292 -0.194494 0.315117 0
M  V30 9 C -2.03998 -0.515314 0.399043 0
M  V30 10 N -1.86143 -1.31158 1.55544 0
M  V30 11 C -3.28017 -0.279271 -0.12656 0
M  V30 12 C -3.39216 0.503818 -1.25138 0
M  V30 13 N -2.29316 1.01414 -1.80308 0
M  V30 14 N -4.45139 -0.837674 0.480855 0
M  V30 15 C 3.55522 -1.01689 -0.160163 0
M  V30 16 H 3.13999 0.53548 2.33775 0
M  V30 17 H 2.81566 1.94976 1.18735 0
M  V30 18 H 4.39672 1.12628 1.17488 0
M  V30 19 H 2.1821 1.55651 -1.87592 0
M  V30 20 H -0.0904727 1.9689 -2.81173 0
M  V30 21 H 0.466262 -0.80675 1.19971 0
M  V30 22 H -1.23069 -1.03189 2.33052 0
M  V30 23 H -2.37614 -2.21141 1.64376 0
M  V30 24 H -4.38271 0.668193 -1.63638 0
M  V30 25 H -4.97291 -1.6427 0.0794234 0
M  V30 26 H -4.80484 -0.424792 1.36727 0
M  V30 27 H 4.57962 -0.585729 -0.358891 0
M  V30 28 H 3.6102 -1.78942 0.636715 0
M  V30 29 H 3.19485 -1.413 -1.12772 0
M  V30 END ATOM
M  V30 BEGIN BOND
M  V30 1 1 1 2
M  V30 2 1 2 3
M  V30 3 2 3 4
M  V30 4 1 4 5
M  V30 5 2 5 6
M  V30 6 1 6 7
M  V30 7 2 7 8
M  V30 8 1 7 9
M  V30 9 1 9 10
M  V30 10 2 9 11
M  V30 11 1 11 12
M  V30 12 2 12 13
M  V30 13 1 11 14
M  V30 14 1 2 15
M  V30 15 1 8 3
M  V30 16 1 13 6
M  V30 17 1 1 16
M  V30 18 1 1 17
M  V30 19 1 1 18
M  V30 20 1 4 19
M  V30 21 1 5 20
M  V30 22 1 8 21
M  V30 23 1 10 22
M  V30 24 1 10 23
M  V30 25 1 12 24
M  V30 26 1 14 25
M  V30 27 1 14 26
M  V30 28 1 15 27
M  V30 29 1 15 28
M  V30 30 1 15 29
M  V30 END BOND
M  V30 END CTAB
M  END
