
     RDKit          3D

  0  0  0  0  0  0  0  0  0  0999 V3000
M  V30 BEGIN CTAB
M  V30 COUNTS 22 22 0 0 0
M  V30 BEGIN ATOM
M  V30 1 C -3.17237 1.51973 0.241393 0
M  V30 2 C -1.98205 1.06856 -0.133257 0
M  V30 3 C -1.75645 -0.331039 -0.552359 0
M  V30 4 C -0.78468 -1.09698 0.266036 0
M  V30 5 C 0.591302 -0.550594 0.30271 0
M  V30 6 N 1.61623 -1.26547 0.78776 0
M  V30 7 N 2.71747 -0.565363 0.705709 0
M  V30 8 C 2.39893 0.612286 0.162432 0
M  V30 9 N 1.08624 0.622002 -0.0866221 0
M  V30 10 N 3.34455 1.66966 -0.0954314 0
M  V30 11 N -0.70699 -2.44661 -0.253369 0
M  V30 12 H -4.0012 0.838559 0.238612 0
M  V30 13 H -3.34346 2.5335 0.546617 0
M  V30 14 H -1.17475 1.80862 -0.112895 0
M  V30 15 H -1.53772 -0.380118 -1.65569 0
M  V30 16 H -2.74582 -0.865474 -0.446621 0
M  V30 17 H -1.19517 -1.16476 1.29733 0
M  V30 18 H 3.69995 -0.826755 0.996473 0
M  V30 19 H 4.32696 1.43462 -0.254107 0
M  V30 20 H 3.05351 2.66773 -0.124464 0
M  V30 21 H -0.600166 -2.40938 -1.28592 0
M  V30 22 H 0.165682 -2.87272 0.144756 0
M  V30 END ATOM
M  V30 BEGIN BOND
M  V30 1 2 1 2 CFG=2
M  V30 2 1 2 3
M  V30 3 1 3 4
M  V30 4 1 4 5
M  V30 5 2 5 6
M  V30 6 1 6 7
M  V30 7 1 7 8
M  V30 8 2 8 9
M  V30 9 1 8 10
M  V30 10 1 4 11
M  V30 11 1 9 5
M  V30 12 1 1 12
M  V30 13 1 1 13
M  V30 14 1 2 14
M  V30 15 1 3 15
M  V30 16 1 3 16
M  V30 17 1 4 17
M  V30 18 1 7 18
M  V30 19 1 10 19
M  V30 20 1 10 20
M  V30 21 1 11 21
M  V30 22 1 11 22
M  V30 END BOND
M  V30 END CTAB
M  END
