
     RDKit          3D

  0  0  0  0  0  0  0  0  0  0999 V3000
M  V30 BEGIN CTAB
M  V30 COUNTS 29 28 0 0 0
M  V30 BEGIN ATOM
M  V30 1 N 4.25873 0.145052 0.476307 0
M  V30 2 C 3.08931 0.966354 0.4326 0
M  V30 3 C 2.28242 0.780858 -0.809805 0
M  V30 4 C 1.77809 -0.604894 -1.01814 0
M  V30 5 N 0.915355 -1.09107 0.0380826 0
M  V30 6 C -0.333238 -0.347743 0.0213173 0
M  V30 7 C -1.27862 -0.80167 1.08672 0
M  V30 8 F -1.59713 -2.15078 0.91547 0
M  V30 9 F -0.787846 -0.57949 2.3615 0
M  V30 10 C -2.55701 -0.0181422 0.980064 0
M  V30 11 C -3.2753 -0.161719 -0.324445 0
M  V30 12 N -4.50034 0.634089 -0.300173 0
M  V30 13 H 4.13136 -0.773633 0.918631 0
M  V30 14 H 4.85147 0.179794 -0.355153 0
M  V30 15 H 2.51743 0.847121 1.36292 0
M  V30 16 H 3.43732 2.0411 0.42871 0
M  V30 17 H 1.46574 1.5182 -0.829093 0
M  V30 18 H 2.93758 1.03206 -1.67566 0
M  V30 19 H 2.60396 -1.31325 -1.23279 0
M  V30 20 H 1.15156 -0.59281 -1.94623 0
M  V30 21 H 0.786177 -2.10646 -0.103028 0
M  V30 22 H -0.834201 -0.558031 -0.970052 0
M  V30 23 H -0.115472 0.712978 0.168878 0
M  V30 24 H -3.27669 -0.322275 1.77908 0
M  V30 25 H -2.34528 1.06472 1.17129 0
M  V30 26 H -2.6584 0.235311 -1.17251 0
M  V30 27 H -3.55545 -1.21194 -0.518323 0
M  V30 28 H -4.67846 1.03476 -1.25358 0
M  V30 29 H -4.41307 1.44151 0.367421 0
M  V30 END ATOM
M  V30 BEGIN BOND
M  V30 1 1 1 2
M  V30 2 1 2 3
M  V30 3 1 3 4
M  V30 4 1 4 5
M  V30 5 1 5 6
M  V30 6 1 6 7
M  V30 7 1 7 8
M  V30 8 1 7 9
M  V30 9 1 7 10
M  V30 10 1 10 11
M  V30 11 1 11 12
M  V30 12 1 1 13
M  V30 13 1 1 14
M  V30 14 1 2 15
M  V30 15 1 2 16
M  V30 16 1 3 17
M  V30 17 1 3 18
M  V30 18 1 4 19
M  V30 19 1 4 20
M  V30 20 1 5 21
M  V30 21 1 6 22
M  V30 22 1 6 23
M  V30 23 1 10 24
M  V30 24 1 10 25
M  V30 25 1 11 26
M  V30 26 1 11 27
M  V30 27 1 12 28
M  V30 28 1 12 29
M  V30 END BOND
M  V30 END CTAB
M  END
