
     RDKit          3D

  0  0  0  0  0  0  0  0  0  0999 V3000
M  V30 BEGIN CTAB
M  V30 COUNTS 39 41 0 0 0
M  V30 BEGIN ATOM
M  V30 1 C -3.86445 -0.9457 -0.638584 0
M  V30 2 C -3.17215 -0.201364 0.488619 0
M  V30 3 C -3.72319 1.20473 0.634763 0
M  V30 4 C -3.37091 -0.909454 1.78668 0
M  V30 5 N -1.77055 -0.0850836 0.128612 0
M  V30 6 N -0.695441 -0.422015 0.755621 0
M  V30 7 C 0.427639 -0.129911 0.0427649 0
M  V30 8 C -0.00807351 0.436468 -1.1186 0
M  V30 9 C -1.38932 0.458254 -1.05394 0
M  V30 10 N -2.07802 0.982324 -2.08281 0
M  V30 11 C -1.52621 1.49679 -3.18609 0
M  V30 12 N -0.1924 1.4827 -3.25666 0
M  V30 13 C 0.581711 0.970935 -2.26033 0
M  V30 14 N 1.98307 1.00845 -2.35704 0
M  V30 15 C 1.79676 -0.347335 0.462803 0
M  V30 16 C 2.7436 -1.0899 -0.195793 0
M  V30 17 C 4.04106 -1.23343 0.246679 0
M  V30 18 C 4.45774 -0.619185 1.40691 0
M  V30 19 N 5.81076 -0.758398 1.88436 0
M  V30 20 C 3.53226 0.13326 2.09363 0
M  V30 21 C 2.24207 0.271351 1.64559 0
M  V30 22 H -4.34029 -1.85626 -0.218269 0
M  V30 23 H -3.13079 -1.32253 -1.39812 0
M  V30 24 H -4.5847 -0.319203 -1.17845 0
M  V30 25 H -4.69321 1.1255 1.15101 0
M  V30 26 H -3.891 1.69235 -0.344997 0
M  V30 27 H -2.98077 1.79443 1.23419 0
M  V30 28 H -2.78906 -1.85287 1.76046 0
M  V30 29 H -4.46558 -1.10287 1.89837 0
M  V30 30 H -3.03555 -0.257892 2.60212 0
M  V30 31 H -2.14614 1.90974 -3.99227 0
M  V30 32 H 2.46609 0.366541 -3.01511 0
M  V30 33 H 2.52711 1.6582 -1.78856 0
M  V30 34 H 2.43346 -1.60705 -1.10739 0
M  V30 35 H 4.74354 -1.83704 -0.324566 0
M  V30 36 H 6.56253 -0.345557 1.28124 0
M  V30 37 H 6.04806 -1.23567 2.77037 0
M  V30 38 H 3.88564 0.612935 3.0148 0
M  V30 39 H 1.56471 0.873747 2.22801 0
M  V30 END ATOM
M  V30 BEGIN BOND
M  V30 1 1 1 2
M  V30 2 1 2 3
M  V30 3 1 2 4
M  V30 4 1 2 5
M  V30 5 1 5 6
M  V30 6 2 6 7
M  V30 7 1 7 8
M  V30 8 2 8 9
M  V30 9 1 9 10
M  V30 10 2 10 11
M  V30 11 1 11 12
M  V30 12 2 12 13
M  V30 13 1 13 14
M  V30 14 1 7 15
M  V30 15 2 15 16
M  V30 16 1 16 17
M  V30 17 2 17 18
M  V30 18 1 18 19
M  V30 19 1 18 20
M  V30 20 2 20 21
M  V30 21 1 9 5
M  V30 22 1 21 15
M  V30 23 1 13 8
M  V30 24 1 1 22
M  V30 25 1 1 23
M  V30 26 1 1 24
M  V30 27 1 3 25
M  V30 28 1 3 26
M  V30 29 1 3 27
M  V30 30 1 4 28
M  V30 31 1 4 29
M  V30 32 1 4 30
M  V30 33 1 11 31
M  V30 34 1 14 32
M  V30 35 1 14 33
M  V30 36 1 16 34
M  V30 37 1 17 35
M  V30 38 1 19 36
M  V30 39 1 19 37
M  V30 40 1 20 38
M  V30 41 1 21 39
M  V30 END BOND
M  V30 END CTAB
M  END
