
     RDKit          3D

  0  0  0  0  0  0  0  0  0  0999 V3000
M  V30 BEGIN CTAB
M  V30 COUNTS 20 21 0 0 0
M  V30 BEGIN ATOM
M  V30 1 N -1.27226 -1.58858 0.594689 0
M  V30 2 C -0.966773 -0.259801 0.197867 0
M  V30 3 C -1.88933 0.744726 -0.0153936 0
M  V30 4 N -3.30581 0.688118 0.107018 0
M  V30 5 C -1.1162 1.84283 -0.382455 0
M  V30 6 N 0.169836 1.44828 -0.368131 0
M  V30 7 N 0.284499 0.188115 -0.0222127 0
M  V30 8 C 1.50863 -0.608191 0.109786 0
M  V30 9 C 2.51917 -0.553615 -0.943386 0
M  V30 10 C 2.77343 0.120921 0.404691 0
M  V30 11 H -0.706719 -2.09362 1.31762 0
M  V30 12 H -2.08946 -2.04532 0.133357 0
M  V30 13 H -3.90187 0.148283 -0.549948 0
M  V30 14 H -3.79097 1.19854 0.876393 0
M  V30 15 H -1.55112 2.80431 -0.620294 0
M  V30 16 H 1.39332 -1.56759 0.656103 0
M  V30 17 H 2.4406 0.0929805 -1.84096 0
M  V30 18 H 3.17832 -1.4392 -1.12115 0
M  V30 19 H 3.52733 -0.342774 1.08355 0
M  V30 20 H 2.79537 1.22158 0.382861 0
M  V30 END ATOM
M  V30 BEGIN BOND
M  V30 1 1 1 2
M  V30 2 2 2 3
M  V30 3 1 3 4
M  V30 4 1 3 5
M  V30 5 2 5 6
M  V30 6 1 6 7
M  V30 7 1 7 8
M  V30 8 1 8 9
M  V30 9 1 9 10
M  V30 10 1 7 2
M  V30 11 1 10 8
M  V30 12 1 1 11
M  V30 13 1 1 12
M  V30 14 1 4 13
M  V30 15 1 4 14
M  V30 16 1 5 15
M  V30 17 1 8 16
M  V30 18 1 9 17
M  V30 19 1 9 18
M  V30 20 1 10 19
M  V30 21 1 10 20
M  V30 END BOND
M  V30 END CTAB
M  END
