
     RDKit          3D

  0  0  0  0  0  0  0  0  0  0999 V3000
M  V30 BEGIN CTAB
M  V30 COUNTS 59 61 0 0 0
M  V30 BEGIN ATOM
M  V30 1 N -5.70645 0.245239 -1.54879 0
M  V30 2 C -5.31114 -0.290426 -0.254651 0
M  V30 3 C -6.43408 0.0170582 0.729484 0
M  V30 4 C -6.59399 1.50347 0.805927 0
M  V30 5 C -5.26517 2.17869 1.03206 0
M  V30 6 O -4.33446 1.80791 0.0562253 0
M  V30 7 C -4.09309 0.446297 0.228617 0
M  V30 8 C -2.83367 0.0548092 -0.492902 0
M  V30 9 C -1.70411 0.867006 0.0924103 0
M  V30 10 C -0.40557 0.48581 -0.596274 0
M  V30 11 N -0.184905 -0.903669 -0.399027 0
M  V30 12 C -1.24474 -1.74495 -1.02566 0
M  V30 13 C -2.56202 -1.42871 -0.407073 0
M  V30 14 C 0.818578 -1.59926 0.24186 0
M  V30 15 O 0.839721 -2.8905 0.280268 0
M  V30 16 C 1.97678 -0.993976 0.948199 0
M  V30 17 C 3.13393 -1.13702 0.0123283 0
M  V30 18 C 4.4621 -0.629704 0.397672 0
M  V30 19 C 5.48303 -1.00203 -0.744464 0
M  V30 20 C 6.82632 -0.762497 -0.156812 0
M  V30 21 C 7.06336 0.664086 0.25906 0
M  V30 22 C 5.89694 1.31272 0.905684 0
M  V30 23 C 4.54381 0.876793 0.369115 0
M  V30 24 N 1.73406 0.316601 1.46661 0
M  V30 25 H -5.05774 0.951939 -1.91799 0
M  V30 26 H -5.90415 -0.525951 -2.22396 0
M  V30 27 H -5.20213 -1.3731 -0.281371 0
M  V30 28 H -7.36869 -0.468836 0.405542 0
M  V30 29 H -6.08458 -0.406872 1.71378 0
M  V30 30 H -6.99155 1.85725 -0.156686 0
M  V30 31 H -7.27292 1.82599 1.6151 0
M  V30 32 H -4.82757 1.96593 2.02072 0
M  V30 33 H -5.41524 3.27593 0.926703 0
M  V30 34 H -4.01196 0.268215 1.32094 0
M  V30 35 H -2.9284 0.332166 -1.55603 0
M  V30 36 H -1.61569 0.568516 1.1593 0
M  V30 37 H -1.95082 1.93336 -0.0316454 0
M  V30 38 H -0.657791 0.621371 -1.70819 0
M  V30 39 H 0.404524 1.17626 -0.402689 0
M  V30 40 H -1.00183 -2.80276 -0.983363 0
M  V30 41 H -1.22868 -1.41198 -2.10156 0
M  V30 42 H -3.35026 -1.93153 -1.00285 0
M  V30 43 H -2.54541 -1.78368 0.642301 0
M  V30 44 H 2.1823 -1.62006 1.90156 0
M  V30 45 H 3.23493 -2.25619 -0.166281 0
M  V30 46 H 2.79515 -0.674381 -0.960582 0
M  V30 47 H 4.87558 -1.08327 1.31817 0
M  V30 48 H 5.2515 -0.321899 -1.55229 0
M  V30 49 H 5.37573 -2.06685 -0.974056 0
M  V30 50 H 7.58853 -0.997229 -0.955894 0
M  V30 51 H 7.04723 -1.47759 0.661553 0
M  V30 52 H 7.46369 1.25655 -0.607217 0
M  V30 53 H 7.9036 0.642941 1.00315 0
M  V30 54 H 5.89846 1.22765 1.99683 0
M  V30 55 H 5.958 2.41787 0.684951 0
M  V30 56 H 4.47801 1.16093 -0.726094 0
M  V30 57 H 3.79973 1.44448 0.878445 0
M  V30 58 H 2.30901 0.488817 2.34416 0
M  V30 59 H 0.744204 0.392269 1.82702 0
M  V30 END ATOM
M  V30 BEGIN BOND
M  V30 1 1 1 2
M  V30 2 1 2 3
M  V30 3 1 3 4
M  V30 4 1 4 5
M  V30 5 1 5 6
M  V30 6 1 6 7
M  V30 7 1 7 8
M  V30 8 1 8 9
M  V30 9 1 9 10
M  V30 10 1 10 11
M  V30 11 1 11 12
M  V30 12 1 12 13
M  V30 13 1 11 14
M  V30 14 2 14 15
M  V30 15 1 14 16
M  V30 16 1 16 17
M  V30 17 1 17 18
M  V30 18 1 18 19
M  V30 19 1 19 20
M  V30 20 1 20 21
M  V30 21 1 21 22
M  V30 22 1 22 23
M  V30 23 1 16 24
M  V30 24 1 7 2
M  V30 25 1 13 8
M  V30 26 1 23 18
M  V30 27 1 1 25
M  V30 28 1 1 26
M  V30 29 1 2 27
M  V30 30 1 3 28
M  V30 31 1 3 29
M  V30 32 1 4 30
M  V30 33 1 4 31
M  V30 34 1 5 32
M  V30 35 1 5 33
M  V30 36 1 7 34
M  V30 37 1 8 35
M  V30 38 1 9 36
M  V30 39 1 9 37
M  V30 40 1 10 38
M  V30 41 1 10 39
M  V30 42 1 12 40
M  V30 43 1 12 41
M  V30 44 1 13 42
M  V30 45 1 13 43
M  V30 46 1 16 44
M  V30 47 1 17 45
M  V30 48 1 17 46
M  V30 49 1 18 47
M  V30 50 1 19 48
M  V30 51 1 19 49
M  V30 52 1 20 50
M  V30 53 1 20 51
M  V30 54 1 21 52
M  V30 55 1 21 53
M  V30 56 1 22 54
M  V30 57 1 22 55
M  V30 58 1 23 56
M  V30 59 1 23 57
M  V30 60 1 24 58
M  V30 61 1 24 59
M  V30 END BOND
M  V30 END CTAB
M  END
