
     RDKit          3D

  0  0  0  0  0  0  0  0  0  0999 V3000
M  V30 BEGIN CTAB
M  V30 COUNTS 27 27 0 0 0
M  V30 BEGIN ATOM
M  V30 1 N 3.10705 0.540275 1.74974 0
M  V30 2 C 3.20515 0.833965 0.349513 0
M  V30 3 C 2.20838 0.0345977 -0.470064 0
M  V30 4 C 0.796415 0.323236 -0.0595798 0
M  V30 5 C -0.198903 -0.464789 -0.868097 0
M  V30 6 C -1.5974 -0.178582 -0.463516 0
M  V30 7 C -1.87756 0.82882 0.437578 0
M  V30 8 C -3.16914 1.10422 0.817989 0
M  V30 9 N -4.17898 0.379688 0.303585 0
M  V30 10 C -3.96312 -0.603874 -0.569855 0
M  V30 11 C -2.66147 -0.895047 -0.965049 0
M  V30 12 N 0.00749134 -1.88383 -0.814149 0
M  V30 13 H 3.40936 -0.398949 2.01715 0
M  V30 14 H 3.44006 1.28187 2.36866 0
M  V30 15 H 4.21901 0.500115 0.0156306 0
M  V30 16 H 3.08967 1.90881 0.173203 0
M  V30 17 H 2.35142 0.255954 -1.54659 0
M  V30 18 H 2.45656 -1.03698 -0.332321 0
M  V30 19 H 0.675143 0.202524 1.03277 0
M  V30 20 H 0.582999 1.40654 -0.274563 0
M  V30 21 H -0.0974027 -0.0707569 -1.92526 0
M  V30 22 H -1.08982 1.45027 0.887688 0
M  V30 23 H -3.35733 1.9078 1.53287 0
M  V30 24 H -4.77599 -1.20103 -0.995958 0
M  V30 25 H -2.4723 -1.69707 -1.68079 0
M  V30 26 H -0.895242 -2.34304 -0.579471 0
M  V30 27 H 0.785954 -2.18474 -0.19044 0
M  V30 END ATOM
M  V30 BEGIN BOND
M  V30 1 1 1 2
M  V30 2 1 2 3
M  V30 3 1 3 4
M  V30 4 1 4 5
M  V30 5 1 5 6
M  V30 6 2 6 7
M  V30 7 1 7 8
M  V30 8 2 8 9
M  V30 9 1 9 10
M  V30 10 2 10 11
M  V30 11 1 5 12
M  V30 12 1 11 6
M  V30 13 1 1 13
M  V30 14 1 1 14
M  V30 15 1 2 15
M  V30 16 1 2 16
M  V30 17 1 3 17
M  V30 18 1 3 18
M  V30 19 1 4 19
M  V30 20 1 4 20
M  V30 21 1 5 21
M  V30 22 1 7 22
M  V30 23 1 8 23
M  V30 24 1 10 24
M  V30 25 1 11 25
M  V30 26 1 12 26
M  V30 27 1 12 27
M  V30 END BOND
M  V30 END CTAB
M  END
