
     RDKit          3D

  0  0  0  0  0  0  0  0  0  0999 V3000
M  V30 BEGIN CTAB
M  V30 COUNTS 46 48 0 0 0
M  V30 BEGIN ATOM
M  V30 1 C 1.20404 -3.56291 -0.50257 0
M  V30 2 C 0.394221 -2.69826 0.0705544 0
M  V30 3 C 0.239671 -1.35584 -0.521849 0
M  V30 4 N 0.622227 -0.291073 0.381707 0
M  V30 5 C -0.240608 0.300144 1.23096 0
M  V30 6 N 0.480674 1.22546 1.89014 0
M  V30 7 N 1.74645 1.18644 1.44316 0
M  V30 8 C 1.85215 0.240095 0.496238 0
M  V30 9 C 3.08367 -0.136963 -0.266437 0
M  V30 10 C 4.18895 -0.449574 0.685674 0
M  V30 11 C 5.18963 0.679638 0.733235 0
M  V30 12 C 5.88974 0.824097 -0.615389 0
M  V30 13 C 4.86965 0.821199 -1.71277 0
M  V30 14 C 3.51842 1.06661 -1.11341 0
M  V30 15 S -1.99718 -0.0792198 1.43349 0
M  V30 16 C -2.87974 1.00038 0.245069 0
M  V30 17 C -4.32 0.808368 0.28561 0
M  V30 18 N -5.08112 1.53736 1.11347 0
M  V30 19 C -6.43565 1.34748 1.14262 0
M  V30 20 N -7.21423 2.13382 2.02908 0
M  V30 21 N -7.01443 0.436725 0.349526 0
M  V30 22 C -6.2551 -0.298795 -0.484374 0
M  V30 23 N -4.9105 -0.0997953 -0.50313 0
M  V30 24 N -6.85791 -1.26645 -1.32876 0
M  V30 25 H 1.75756 -3.32243 -1.38993 0
M  V30 26 H 1.31261 -4.53824 -0.0669518 0
M  V30 27 H -0.162238 -2.94424 0.965124 0
M  V30 28 H 0.775876 -1.28056 -1.49666 0
M  V30 29 H -0.850528 -1.24502 -0.784026 0
M  V30 30 H 2.88314 -0.942782 -0.983082 0
M  V30 31 H 4.73538 -1.34049 0.286091 0
M  V30 32 H 3.83978 -0.614642 1.72425 0
M  V30 33 H 5.95139 0.417376 1.51455 0
M  V30 34 H 4.73613 1.63215 1.06895 0
M  V30 35 H 6.45144 1.76318 -0.601987 0
M  V30 36 H 6.53635 -0.0746994 -0.731062 0
M  V30 37 H 4.83443 -0.160567 -2.22673 0
M  V30 38 H 5.08811 1.63057 -2.42201 0
M  V30 39 H 2.7621 1.21967 -1.93436 0
M  V30 40 H 3.47641 1.98951 -0.49671 0
M  V30 41 H -2.58906 2.07075 0.445009 0
M  V30 42 H -2.42352 0.772469 -0.750641 0
M  V30 43 H -7.02358 2.17983 3.04386 0
M  V30 44 H -8.00452 2.68265 1.64177 0
M  V30 45 H -7.71943 -1.05207 -1.8639 0
M  V30 46 H -6.44086 -2.21136 -1.42339 0
M  V30 END ATOM
M  V30 BEGIN BOND
M  V30 1 2 1 2 CFG=2
M  V30 2 1 2 3
M  V30 3 1 3 4
M  V30 4 1 4 5
M  V30 5 2 5 6
M  V30 6 1 6 7
M  V30 7 2 7 8
M  V30 8 1 8 9
M  V30 9 1 9 10
M  V30 10 1 10 11
M  V30 11 1 11 12
M  V30 12 1 12 13
M  V30 13 1 13 14
M  V30 14 1 5 15
M  V30 15 1 15 16
M  V30 16 1 16 17
M  V30 17 2 17 18
M  V30 18 1 18 19
M  V30 19 1 19 20
M  V30 20 2 19 21
M  V30 21 1 21 22
M  V30 22 2 22 23
M  V30 23 1 22 24
M  V30 24 1 8 4
M  V30 25 1 14 9
M  V30 26 1 23 17
M  V30 27 1 1 25
M  V30 28 1 1 26
M  V30 29 1 2 27
M  V30 30 1 3 28
M  V30 31 1 3 29
M  V30 32 1 9 30
M  V30 33 1 10 31
M  V30 34 1 10 32
M  V30 35 1 11 33
M  V30 36 1 11 34
M  V30 37 1 12 35
M  V30 38 1 12 36
M  V30 39 1 13 37
M  V30 40 1 13 38
M  V30 41 1 14 39
M  V30 42 1 14 40
M  V30 43 1 16 41
M  V30 44 1 16 42
M  V30 45 1 20 43
M  V30 46 1 20 44
M  V30 47 1 24 45
M  V30 48 1 24 46
M  V30 END BOND
M  V30 END CTAB
M  END
