
     RDKit          3D

  0  0  0  0  0  0  0  0  0  0999 V3000
M  V30 BEGIN CTAB
M  V30 COUNTS 36 36 0 0 0
M  V30 BEGIN ATOM
M  V30 1 N 4.85851 -1.1316 -0.510079 0
M  V30 2 C 3.96297 -0.387931 0.379113 0
M  V30 3 C 2.52538 -0.556409 -0.0440333 0
M  V30 4 C 1.66744 0.226543 0.921496 0
M  V30 5 N 0.266691 0.122897 0.603482 0
M  V30 6 C -0.384959 -1.14294 0.776755 0
M  V30 7 C -1.85332 -1.09801 0.365537 0
M  V30 8 C -2.48364 -2.47554 0.573539 0
M  V30 9 N -3.87366 -2.45512 0.190994 0
M  V30 10 C -0.398831 1.28176 0.142754 0
M  V30 11 C -0.257798 1.75937 -1.16002 0
M  V30 12 C -0.915071 2.87628 -1.60728 0
M  V30 13 C -1.74582 3.56936 -0.771373 0
M  V30 14 C -1.91587 3.12243 0.546112 0
M  V30 15 C -1.25177 2.00482 0.978503 0
M  V30 16 H 4.75451 -0.749822 -1.49389 0
M  V30 17 H 4.61419 -2.16526 -0.48133 0
M  V30 18 H 4.21035 0.701849 0.2371 0
M  V30 19 H 4.08487 -0.653213 1.43268 0
M  V30 20 H 2.24643 -1.63185 0.0863498 0
M  V30 21 H 2.35695 -0.205212 -1.0745 0
M  V30 22 H 1.99025 1.27135 0.889749 0
M  V30 23 H 1.77239 -0.213555 1.95681 0
M  V30 24 H 0.130406 -1.89034 0.139376 0
M  V30 25 H -0.304979 -1.52425 1.83415 0
M  V30 26 H -2.44362 -0.409284 1.00004 0
M  V30 27 H -1.94662 -0.774409 -0.673478 0
M  V30 28 H -2.4498 -2.7382 1.66244 0
M  V30 29 H -1.97625 -3.25251 -0.0193989 0
M  V30 30 H -4.09429 -3.15701 -0.551908 0
M  V30 31 H -4.536 -2.48045 0.994137 0
M  V30 32 H 0.423842 1.17543 -1.79966 0
M  V30 33 H -0.780148 3.20706 -2.60443 0
M  V30 34 H -2.30434 4.46507 -1.0506 0
M  V30 35 H -2.57848 3.66663 1.22233 0
M  V30 36 H -1.3699 1.64205 1.99704 0
M  V30 END ATOM
M  V30 BEGIN BOND
M  V30 1 1 1 2
M  V30 2 1 2 3
M  V30 3 1 3 4
M  V30 4 1 4 5
M  V30 5 1 5 6
M  V30 6 1 6 7
M  V30 7 1 7 8
M  V30 8 1 8 9
M  V30 9 1 5 10
M  V30 10 2 10 11
M  V30 11 1 11 12
M  V30 12 2 12 13
M  V30 13 1 13 14
M  V30 14 2 14 15
M  V30 15 1 15 10
M  V30 16 1 1 16
M  V30 17 1 1 17
M  V30 18 1 2 18
M  V30 19 1 2 19
M  V30 20 1 3 20
M  V30 21 1 3 21
M  V30 22 1 4 22
M  V30 23 1 4 23
M  V30 24 1 6 24
M  V30 25 1 6 25
M  V30 26 1 7 26
M  V30 27 1 7 27
M  V30 28 1 8 28
M  V30 29 1 8 29
M  V30 30 1 9 30
M  V30 31 1 9 31
M  V30 32 1 11 32
M  V30 33 1 12 33
M  V30 34 1 13 34
M  V30 35 1 14 35
M  V30 36 1 15 36
M  V30 END BOND
M  V30 END CTAB
M  END
