
     RDKit          3D

  0  0  0  0  0  0  0  0  0  0999 V3000
M  V30 BEGIN CTAB
M  V30 COUNTS 24 25 0 0 0
M  V30 BEGIN ATOM
M  V30 1 N -3.78887 -0.881255 0.143163 0
M  V30 2 C -3.03552 0.314132 -0.104328 0
M  V30 3 C -1.57476 0.118904 -0.0480302 0
M  V30 4 C -0.761468 1.19304 -0.268882 0
M  V30 5 C 0.604813 1.00913 -0.21594 0
M  V30 6 C 1.13985 -0.233394 0.0543684 0
M  V30 7 C 0.325297 -1.33862 0.281839 0
M  V30 8 C -1.03533 -1.11388 0.220244 0
M  V30 9 C 2.51621 -0.412646 0.10641 0
M  V30 10 N 3.05089 -1.69435 0.385081 0
M  V30 11 N 3.30452 0.66358 -0.115152 0
M  V30 12 C 2.79574 1.88541 -0.38079 0
M  V30 13 C 1.43427 2.09526 -0.439207 0
M  V30 14 H -3.74205 -1.12047 1.16081 0
M  V30 15 H -3.49652 -1.67952 -0.430204 0
M  V30 16 H -3.39444 1.11072 0.583976 0
M  V30 17 H -3.27098 0.694727 -1.13431 0
M  V30 18 H -1.13528 2.19943 -0.48721 0
M  V30 19 H 0.73822 -2.32344 0.495979 0
M  V30 20 H -1.65959 -2.0018 0.403297 0
M  V30 21 H 3.25545 -1.94128 1.37166 0
M  V30 22 H 3.23656 -2.37527 -0.370734 0
M  V30 23 H 3.45276 2.74749 -0.558017 0
M  V30 24 H 1.04022 3.08411 -0.65402 0
M  V30 END ATOM
M  V30 BEGIN BOND
M  V30 1 1 1 2
M  V30 2 1 2 3
M  V30 3 2 3 4
M  V30 4 1 4 5
M  V30 5 2 5 6
M  V30 6 1 6 7
M  V30 7 2 7 8
M  V30 8 1 6 9
M  V30 9 1 9 10
M  V30 10 2 9 11
M  V30 11 1 11 12
M  V30 12 2 12 13
M  V30 13 1 8 3
M  V30 14 1 13 5
M  V30 15 1 1 14
M  V30 16 1 1 15
M  V30 17 1 2 16
M  V30 18 1 2 17
M  V30 19 1 4 18
M  V30 20 1 7 19
M  V30 21 1 8 20
M  V30 22 1 10 21
M  V30 23 1 10 22
M  V30 24 1 12 23
M  V30 25 1 13 24
M  V30 END BOND
M  V30 END CTAB
M  END
