
     RDKit          3D

  0  0  0  0  0  0  0  0  0  0999 V3000
M  V30 BEGIN CTAB
M  V30 COUNTS 26 27 0 0 0
M  V30 BEGIN ATOM
M  V30 1 Cl 3.10884 2.9589 -1.3547 0
M  V30 2 C 2.88529 1.32892 -0.782966 0
M  V30 3 C 3.9139 0.436644 -0.82134 0
M  V30 4 C 3.66527 -0.842927 -0.350161 0
M  V30 5 C 2.46226 -1.23914 0.139012 0
M  V30 6 C 1.40545 -0.332697 0.18108 0
M  V30 7 C 1.63937 0.926505 -0.278319 0
M  V30 8 N 0.19345 -0.824578 0.735494 0
M  V30 9 C -1.06446 -0.328181 0.415312 0
M  V30 10 N -1.26761 0.628265 -0.490619 0
M  V30 11 C -2.45648 1.12658 -0.857474 0
M  V30 12 N -2.59364 2.14915 -1.83381 0
M  V30 13 N -3.53838 0.59422 -0.237218 0
M  V30 14 C -3.40789 -0.374976 0.688102 0
M  V30 15 C -2.18924 -0.882152 1.06064 0
M  V30 16 N -2.03762 -1.90442 2.03527 0
M  V30 17 H 4.90726 0.696441 -1.20485 0
M  V30 18 H 4.46614 -1.58509 -0.364999 0
M  V30 19 H 2.3271 -2.26883 0.498404 0
M  V30 20 H 0.859801 1.68702 -0.252057 0
M  V30 21 H 0.243321 -1.62614 1.4476 0
M  V30 22 H -3.33686 2.88127 -1.81724 0
M  V30 23 H -1.919 2.18765 -2.62477 0
M  V30 24 H -4.27783 -0.809621 1.19321 0
M  V30 25 H -1.50171 -2.7823 1.88656 0
M  V30 26 H -2.48672 -1.80052 2.98984 0
M  V30 END ATOM
M  V30 BEGIN BOND
M  V30 1 1 1 2
M  V30 2 2 2 3
M  V30 3 1 3 4
M  V30 4 2 4 5
M  V30 5 1 5 6
M  V30 6 2 6 7
M  V30 7 1 6 8
M  V30 8 1 8 9
M  V30 9 2 9 10
M  V30 10 1 10 11
M  V30 11 1 11 12
M  V30 12 2 11 13
M  V30 13 1 13 14
M  V30 14 2 14 15
M  V30 15 1 15 16
M  V30 16 1 7 2
M  V30 17 1 15 9
M  V30 18 1 3 17
M  V30 19 1 4 18
M  V30 20 1 5 19
M  V30 21 1 7 20
M  V30 22 1 8 21
M  V30 23 1 12 22
M  V30 24 1 12 23
M  V30 25 1 14 24
M  V30 26 1 16 25
M  V30 27 1 16 26
M  V30 END BOND
M  V30 END CTAB
M  END
