
     RDKit          3D

  0  0  0  0  0  0  0  0  0  0999 V3000
M  V30 BEGIN CTAB
M  V30 COUNTS 22 21 0 0 0
M  V30 BEGIN ATOM
M  V30 1 N 3.87576 0.232448 -0.48975 0
M  V30 2 C 2.53155 -0.302928 -0.213095 0
M  V30 3 C 1.57674 0.835817 -0.0160067 0
M  V30 4 N 0.227381 0.4598 0.265166 0
M  V30 5 C -0.567651 -0.301328 -0.614514 0
M  V30 6 O -0.0742056 -0.67153 -1.70604 0
M  V30 7 C -1.95314 -0.675306 -0.296596 0
M  V30 8 N -2.29953 -0.138544 1.00866 0
M  V30 9 C -2.95185 -0.147253 -1.28935 0
M  V30 10 H 4.19327 0.776966 0.361473 0
M  V30 11 H 3.73948 0.948002 -1.23904 0
M  V30 12 H 2.25005 -0.938635 -1.04816 0
M  V30 13 H 2.64511 -0.934878 0.681629 0
M  V30 14 H 2.00563 1.50572 0.782112 0
M  V30 15 H 1.5946 1.49079 -0.936345 0
M  V30 16 H -0.187716 0.772341 1.18126 0
M  V30 17 H -2.03818 -1.7742 -0.222908 0
M  V30 18 H -3.23354 -0.516729 1.2946 0
M  V30 19 H -1.61594 -0.595442 1.68451 0
M  V30 20 H -3.97116 -0.206011 -0.859636 0
M  V30 21 H -2.97651 -0.720194 -2.23635 0
M  V30 22 H -2.77015 0.901099 -1.55091 0
M  V30 END ATOM
M  V30 BEGIN BOND
M  V30 1 1 1 2
M  V30 2 1 2 3
M  V30 3 1 3 4
M  V30 4 1 4 5
M  V30 5 2 5 6
M  V30 6 1 5 7
M  V30 7 1 7 8
M  V30 8 1 7 9
M  V30 9 1 1 10
M  V30 10 1 1 11
M  V30 11 1 2 12
M  V30 12 1 2 13
M  V30 13 1 3 14
M  V30 14 1 3 15
M  V30 15 1 4 16
M  V30 16 1 7 17
M  V30 17 1 8 18
M  V30 18 1 8 19
M  V30 19 1 9 20
M  V30 20 1 9 21
M  V30 21 1 9 22
M  V30 END BOND
M  V30 END CTAB
M  END
