
     RDKit          3D

  0  0  0  0  0  0  0  0  0  0999 V3000
M  V30 BEGIN CTAB
M  V30 COUNTS 19 19 0 0 0
M  V30 BEGIN ATOM
M  V30 1 F 3.16349 -0.573224 1.4941 0
M  V30 2 C 2.88997 -0.423065 0.129563 0
M  V30 3 C 1.43995 -0.0460202 -0.0244925 0
M  V30 4 C 1.0581 1.13076 -0.638745 0
M  V30 5 C -0.27094 1.48235 -0.783149 0
M  V30 6 C -1.25195 0.636869 -0.301411 0
M  V30 7 C -0.894161 -0.541305 0.314355 0
M  V30 8 C 0.442992 -0.870043 0.446333 0
M  V30 9 N -1.83989 -1.45696 0.832318 0
M  V30 10 N -2.63677 0.964797 -0.431418 0
M  V30 11 F 3.06114 -1.66464 -0.449251 0
M  V30 12 H 3.53613 0.352913 -0.30439 0
M  V30 13 H 1.8185 1.79985 -1.01946 0
M  V30 14 H -0.579999 2.40574 -1.26483 0
M  V30 15 H 0.767561 -1.79008 0.925733 0
M  V30 16 H -2.55109 -1.83689 0.197726 0
M  V30 17 H -1.82714 -1.74989 1.83817 0
M  V30 18 H -3.21408 1.16354 0.419893 0
M  V30 19 H -3.11183 1.01529 -1.38104 0
M  V30 END ATOM
M  V30 BEGIN BOND
M  V30 1 1 1 2
M  V30 2 1 2 3
M  V30 3 2 3 4
M  V30 4 1 4 5
M  V30 5 2 5 6
M  V30 6 1 6 7
M  V30 7 2 7 8
M  V30 8 1 7 9
M  V30 9 1 6 10
M  V30 10 1 2 11
M  V30 11 1 8 3
M  V30 12 1 2 12
M  V30 13 1 4 13
M  V30 14 1 5 14
M  V30 15 1 8 15
M  V30 16 1 9 16
M  V30 17 1 9 17
M  V30 18 1 10 18
M  V30 19 1 10 19
M  V30 END BOND
M  V30 END CTAB
M  END
