
     RDKit          3D

  0  0  0  0  0  0  0  0  0  0999 V3000
M  V30 BEGIN CTAB
M  V30 COUNTS 44 46 0 0 0
M  V30 BEGIN ATOM
M  V30 1 N -5.14595 -1.8506 -0.0556036 0
M  V30 2 C -5.41716 -0.425682 0.00409788 0
M  V30 3 C -4.35618 0.396554 -0.644393 0
M  V30 4 C -2.99447 0.218872 -0.0197766 0
M  V30 5 C -2.95381 0.590729 1.42365 0
M  V30 6 C -1.56931 0.303945 1.95078 0
M  V30 7 C -0.569743 0.0450257 0.856191 0
M  V30 8 N -0.685399 0.907728 -0.265519 0
M  V30 9 C -2.01043 1.1341 -0.741098 0
M  V30 10 C 0.100313 0.364868 -1.35851 0
M  V30 11 C 1.53382 0.24479 -1.00005 0
M  V30 12 N 2.33502 1.29137 -1.24753 0
M  V30 13 C 3.63923 1.26953 -0.95654 0
M  V30 14 N 4.50383 2.38226 -1.21685 0
M  V30 15 C 4.18909 0.159602 -0.391256 0
M  V30 16 C 3.3578 -0.915119 -0.138972 0
M  V30 17 N 2.05817 -0.857768 -0.44325 0
M  V30 18 C 3.8649 -2.06203 0.431883 0
M  V30 19 C 5.20092 -2.14632 0.75481 0
M  V30 20 C 6.01575 -1.05313 0.491553 0
M  V30 21 C 5.5495 0.112615 -0.0780281 0
M  V30 22 H -5.95369 -2.35593 0.356769 0
M  V30 23 H -4.24565 -2.03379 0.414024 0
M  V30 24 H -6.35871 -0.267923 -0.570055 0
M  V30 25 H -5.64577 -0.119793 1.04428 0
M  V30 26 H -4.29676 0.0982717 -1.71116 0
M  V30 27 H -4.67754 1.45684 -0.627099 0
M  V30 28 H -2.60985 -0.809642 -0.16666 0
M  V30 29 H -3.73906 0.110854 2.04049 0
M  V30 30 H -3.08045 1.71116 1.4894 0
M  V30 31 H -1.64103 -0.651406 2.54226 0
M  V30 32 H -1.21834 1.07378 2.66207 0
M  V30 33 H -0.561835 -1.03769 0.538922 0
M  V30 34 H 0.443681 0.207479 1.30973 0
M  V30 35 H -2.3562 2.1799 -0.592264 0
M  V30 36 H -2.11222 0.917191 -1.8316 0
M  V30 37 H 0.0358768 1.00491 -2.26155 0
M  V30 38 H -0.305742 -0.642649 -1.65782 0
M  V30 39 H 4.78343 2.988 -0.433639 0
M  V30 40 H 4.85583 2.58814 -2.19463 0
M  V30 41 H 3.21656 -2.89772 0.62761 0
M  V30 42 H 5.60496 -3.05549 1.20778 0
M  V30 43 H 7.06708 -1.1326 0.75098 0
M  V30 44 H 6.14952 0.971269 -0.293436 0
M  V30 END ATOM
M  V30 BEGIN BOND
M  V30 1 1 1 2
M  V30 2 1 2 3
M  V30 3 1 3 4
M  V30 4 1 4 5
M  V30 5 1 5 6
M  V30 6 1 6 7
M  V30 7 1 7 8
M  V30 8 1 8 9
M  V30 9 1 8 10
M  V30 10 1 10 11
M  V30 11 2 11 12
M  V30 12 1 12 13
M  V30 13 1 13 14
M  V30 14 2 13 15
M  V30 15 1 15 16
M  V30 16 2 16 17
M  V30 17 1 16 18
M  V30 18 2 18 19
M  V30 19 1 19 20
M  V30 20 2 20 21
M  V30 21 1 9 4
M  V30 22 1 17 11
M  V30 23 1 21 15
M  V30 24 1 1 22
M  V30 25 1 1 23
M  V30 26 1 2 24
M  V30 27 1 2 25
M  V30 28 1 3 26
M  V30 29 1 3 27
M  V30 30 1 4 28
M  V30 31 1 5 29
M  V30 32 1 5 30
M  V30 33 1 6 31
M  V30 34 1 6 32
M  V30 35 1 7 33
M  V30 36 1 7 34
M  V30 37 1 9 35
M  V30 38 1 9 36
M  V30 39 1 10 37
M  V30 40 1 10 38
M  V30 41 1 14 39
M  V30 42 1 14 40
M  V30 43 1 18 41
M  V30 44 1 19 42
M  V30 45 1 20 43
M  V30 46 1 21 44
M  V30 END BOND
M  V30 END CTAB
M  END
