
     RDKit          3D

  0  0  0  0  0  0  0  0  0  0999 V3000
M  V30 BEGIN CTAB
M  V30 COUNTS 27 27 0 0 0
M  V30 BEGIN ATOM
M  V30 1 N -4.28152 0.887434 -0.42369 0
M  V30 2 N -3.11594 0.581666 0.263365 0
M  V30 3 C -2.06958 0.104105 -0.303743 0
M  V30 4 N -0.885959 -0.201865 0.419409 0
M  V30 5 C 0.242092 0.655914 0.28619 0
M  V30 6 C 1.41166 0.0320332 -0.426729 0
M  V30 7 C 2.54309 1.03665 -0.504223 0
M  V30 8 C 3.471 0.0800213 0.184757 0
M  V30 9 C 2.29485 -0.849695 0.400694 0
M  V30 10 C -0.89244 -1.39014 1.26799 0
M  V30 11 N -2.05664 -0.140441 -1.70318 0
M  V30 12 H -4.59178 0.337841 -1.25219 0
M  V30 13 H -4.85628 1.68955 -0.0947824 0
M  V30 14 H -0.054626 1.55583 -0.283291 0
M  V30 15 H 0.603859 0.996597 1.2807 0
M  V30 16 H 1.19163 -0.409095 -1.40426 0
M  V30 17 H 2.83222 1.31911 -1.53784 0
M  V30 18 H 2.40375 1.94321 0.138955 0
M  V30 19 H 3.8847 0.440623 1.16292 0
M  V30 20 H 4.2322 -0.286443 -0.523541 0
M  V30 21 H 2.54481 -1.843 -0.0245494 0
M  V30 22 H 2.00673 -0.925557 1.48297 0
M  V30 23 H -0.759962 -1.11262 2.33403 0
M  V30 24 H -0.125269 -2.12934 0.938784 0
M  V30 25 H -1.86339 -1.91394 1.18996 0
M  V30 26 H -1.64539 0.58444 -2.33345 0
M  V30 27 H -2.46384 -1.04289 -2.02087 0
M  V30 END ATOM
M  V30 BEGIN BOND
M  V30 1 1 1 2
M  V30 2 2 2 3 CFG=2
M  V30 3 1 3 4
M  V30 4 1 4 5
M  V30 5 1 5 6
M  V30 6 1 6 7
M  V30 7 1 7 8
M  V30 8 1 8 9
M  V30 9 1 4 10
M  V30 10 1 3 11
M  V30 11 1 9 6
M  V30 12 1 1 12
M  V30 13 1 1 13
M  V30 14 1 5 14
M  V30 15 1 5 15
M  V30 16 1 6 16
M  V30 17 1 7 17
M  V30 18 1 7 18
M  V30 19 1 8 19
M  V30 20 1 8 20
M  V30 21 1 9 21
M  V30 22 1 9 22
M  V30 23 1 10 23
M  V30 24 1 10 24
M  V30 25 1 10 25
M  V30 26 1 11 26
M  V30 27 1 11 27
M  V30 END BOND
M  V30 END CTAB
M  END
