
     RDKit          3D

  0  0  0  0  0  0  0  0  0  0999 V3000
M  V30 BEGIN CTAB
M  V30 COUNTS 18 18 0 0 0
M  V30 BEGIN ATOM
M  V30 1 C 3.45377 0.326247 0.42616 0
M  V30 2 S 1.95064 1.05807 -0.271095 0
M  V30 3 C 0.559294 0.0134177 0.123079 0
M  V30 4 C -0.711196 0.345744 -0.293432 0
M  V30 5 N -0.91392 1.51512 -1.0338 0
M  V30 6 C -1.81122 -0.449741 -0.000146862 0
M  V30 7 N -3.09942 -0.0556654 -0.456946 0
M  V30 8 N -1.6128 -1.56995 0.70981 0
M  V30 9 C -0.366395 -1.9126 1.12845 0
M  V30 10 N 0.688596 -1.13274 0.836951 0
M  V30 11 H 3.88351 -0.464308 -0.225222 0
M  V30 12 H 4.20899 1.1487 0.551226 0
M  V30 13 H 3.19768 -0.0790362 1.44186 0
M  V30 14 H -0.844724 2.439 -0.580734 0
M  V30 15 H -1.13461 1.4616 -2.04067 0
M  V30 16 H -3.35982 -0.0851753 -1.46637 0
M  V30 17 H -3.79736 0.270907 0.245328 0
M  V30 18 H -0.291019 -2.82959 1.69481 0
M  V30 END ATOM
M  V30 BEGIN BOND
M  V30 1 1 1 2
M  V30 2 1 2 3
M  V30 3 2 3 4
M  V30 4 1 4 5
M  V30 5 1 4 6
M  V30 6 1 6 7
M  V30 7 2 6 8
M  V30 8 1 8 9
M  V30 9 2 9 10
M  V30 10 1 10 3
M  V30 11 1 1 11
M  V30 12 1 1 12
M  V30 13 1 1 13
M  V30 14 1 5 14
M  V30 15 1 5 15
M  V30 16 1 7 16
M  V30 17 1 7 17
M  V30 18 1 9 18
M  V30 END BOND
M  V30 END CTAB
M  END
