
     RDKit          3D

  0  0  0  0  0  0  0  0  0  0999 V3000
M  V30 BEGIN CTAB
M  V30 COUNTS 34 34 0 0 0
M  V30 BEGIN ATOM
M  V30 1 N 3.25599 -1.87296 -0.192815 0
M  V30 2 C 1.81574 -1.83504 -0.360261 0
M  V30 3 C 1.31844 -0.406636 -0.171909 0
M  V30 4 C 2.00441 0.443523 -1.22759 0
M  V30 5 N 1.63823 1.83188 -1.17709 0
M  V30 6 C 1.6016 0.0818942 1.21152 0
M  V30 7 C 0.394591 0.908723 1.54814 0
M  V30 8 C -0.731603 0.0801002 0.960598 0
M  V30 9 C -0.179408 -0.317526 -0.371737 0
M  V30 10 S -2.15429 1.12271 0.861779 0
M  V30 11 O -1.86491 2.41151 0.165656 0
M  V30 12 O -2.51898 1.48921 2.29679 0
M  V30 13 C -3.56545 0.297865 0.186106 0
M  V30 14 C -3.36834 -0.218697 -1.19535 0
M  V30 15 H 3.53794 -1.72737 0.794008 0
M  V30 16 H 3.59135 -2.81593 -0.527778 0
M  V30 17 H 1.57041 -2.19337 -1.38126 0
M  V30 18 H 1.33036 -2.53133 0.350383 0
M  V30 19 H 1.8151 0.0362078 -2.24684 0
M  V30 20 H 3.12167 0.383324 -1.1088 0
M  V30 21 H 2.15247 2.34135 -0.447781 0
M  V30 22 H 0.64326 2.04698 -1.25039 0
M  V30 23 H 1.62183 -0.774172 1.91991 0
M  V30 24 H 2.55006 0.643858 1.29654 0
M  V30 25 H 0.399817 1.91992 1.13286 0
M  V30 26 H 0.204358 0.913176 2.66205 0
M  V30 27 H -0.923271 -0.786238 1.58938 0
M  V30 28 H -0.471665 0.357351 -1.20166 0
M  V30 29 H -0.51432 -1.32404 -0.695797 0
M  V30 30 H -4.41768 1.01951 0.263269 0
M  V30 31 H -3.82907 -0.521419 0.906976 0
M  V30 32 H -2.86561 -1.2031 -1.14831 0
M  V30 33 H -2.79317 0.528688 -1.77687 0
M  V30 34 H -4.36986 -0.32996 -1.6637 0
M  V30 END ATOM
M  V30 BEGIN BOND
M  V30 1 1 1 2
M  V30 2 1 2 3
M  V30 3 1 3 4
M  V30 4 1 4 5
M  V30 5 1 3 6
M  V30 6 1 6 7
M  V30 7 1 7 8
M  V30 8 1 8 9
M  V30 9 1 8 10
M  V30 10 2 10 11
M  V30 11 2 10 12
M  V30 12 1 10 13
M  V30 13 1 13 14
M  V30 14 1 9 3
M  V30 15 1 1 15
M  V30 16 1 1 16
M  V30 17 1 2 17
M  V30 18 1 2 18
M  V30 19 1 4 19
M  V30 20 1 4 20
M  V30 21 1 5 21
M  V30 22 1 5 22
M  V30 23 1 6 23
M  V30 24 1 6 24
M  V30 25 1 7 25
M  V30 26 1 7 26
M  V30 27 1 8 27
M  V30 28 1 9 28
M  V30 29 1 9 29
M  V30 30 1 13 30
M  V30 31 1 13 31
M  V30 32 1 14 32
M  V30 33 1 14 33
M  V30 34 1 14 34
M  V30 END BOND
M  V30 END CTAB
M  END
