
     RDKit          3D

  0  0  0  0  0  0  0  0  0  0999 V3000
M  V30 BEGIN CTAB
M  V30 COUNTS 17 18 0 0 0
M  V30 BEGIN ATOM
M  V30 1 N 3.27514 -0.38714 0.114037 0
M  V30 2 C 1.906 -0.0254362 0.0585693 0
M  V30 3 N 0.863815 -0.898089 0.0628705 0
M  V30 4 C -0.302116 -0.230287 0.00104598 0
M  V30 5 C -1.61381 -0.684415 -0.0196386 0
M  V30 6 N -1.89364 -2.06679 0.0280487 0
M  V30 7 N -2.58291 0.245736 -0.0862141 0
M  V30 8 C -2.313 1.57694 -0.132124 0
M  V30 9 N -1.02863 1.97114 -0.109827 0
M  V30 10 C 0.0057038 1.11516 -0.0443092 0
M  V30 11 N 1.34543 1.19785 -0.0077247 0
M  V30 12 H 3.59863 -1.25668 0.579496 0
M  V30 13 H 3.98749 0.227928 -0.32052 0
M  V30 14 H -1.63679 -2.61618 0.862717 0
M  V30 15 H -2.35421 -2.5193 -0.774124 0
M  V30 16 H -3.14604 2.26518 -0.184846 0
M  V30 17 H 1.88894 2.08437 -0.0274571 0
M  V30 END ATOM
M  V30 BEGIN BOND
M  V30 1 1 1 2
M  V30 2 2 2 3
M  V30 3 1 3 4
M  V30 4 2 4 5
M  V30 5 1 5 6
M  V30 6 1 5 7
M  V30 7 2 7 8
M  V30 8 1 8 9
M  V30 9 2 9 10
M  V30 10 1 10 11
M  V30 11 1 11 2
M  V30 12 1 10 4
M  V30 13 1 1 12
M  V30 14 1 1 13
M  V30 15 1 6 14
M  V30 16 1 6 15
M  V30 17 1 8 16
M  V30 18 1 11 17
M  V30 END BOND
M  V30 END CTAB
M  END
