
     RDKit          3D

  0  0  0  0  0  0  0  0  0  0999 V3000
M  V30 BEGIN CTAB
M  V30 COUNTS 41 42 0 0 0
M  V30 BEGIN ATOM
M  V30 1 N -0.150274 -0.632907 -2.06937 0
M  V30 2 C 0.0988562 -0.597631 -0.614121 0
M  V30 3 N 0.634629 -1.8857 -0.286224 0
M  V30 4 C -1.21348 -0.320659 0.112263 0
M  V30 5 C -2.22795 -1.40498 -0.19427 0
M  V30 6 C -3.54007 -1.16367 0.492021 0
M  V30 7 C -3.84567 0.294622 0.703674 0
M  V30 8 C -3.21489 1.12304 -0.394353 0
M  V30 9 C -1.72218 1.06049 -0.167182 0
M  V30 10 C 1.11843 0.473834 -0.29654 0
M  V30 11 C 1.46146 0.605294 1.14149 0
M  V30 12 C 2.74454 -0.152419 1.49966 0
M  V30 13 C 3.89064 0.620777 0.886644 0
M  V30 14 C 3.53738 1.03107 -0.5176 0
M  V30 15 C 2.39444 0.269028 -1.09728 0
M  V30 16 H 0.642243 -1.10762 -2.55506 0
M  V30 17 H -0.268463 0.300993 -2.46697 0
M  V30 18 H 0.309424 -2.62916 -0.974742 0
M  V30 19 H 0.398617 -2.24316 0.641933 0
M  V30 20 H -1.04151 -0.399668 1.20446 0
M  V30 21 H -2.39561 -1.39527 -1.27661 0
M  V30 22 H -1.8287 -2.36131 0.202109 0
M  V30 23 H -3.60217 -1.72581 1.44699 0
M  V30 24 H -4.33595 -1.58002 -0.159696 0
M  V30 25 H -3.45227 0.629687 1.68585 0
M  V30 26 H -4.94491 0.470685 0.736288 0
M  V30 27 H -3.51725 0.711116 -1.36568 0
M  V30 28 H -3.50955 2.19011 -0.270061 0
M  V30 29 H -1.25777 1.52824 -1.05538 0
M  V30 30 H -1.50954 1.77014 0.681391 0
M  V30 31 H 0.729985 1.47757 -0.633888 0
M  V30 32 H 1.70639 1.68242 1.38625 0
M  V30 33 H 0.713944 0.306914 1.8689 0
M  V30 34 H 2.85274 -0.126226 2.58538 0
M  V30 35 H 2.741 -1.1726 1.10957 0
M  V30 36 H 4.12927 1.53141 1.4905 0
M  V30 37 H 4.80307 -0.00885987 0.932205 0
M  V30 38 H 4.43168 0.832916 -1.1507 0
M  V30 39 H 3.36632 2.13458 -0.555881 0
M  V30 40 H 2.65517 -0.806361 -1.10478 0
M  V30 41 H 2.21797 0.669094 -2.11774 0
M  V30 END ATOM
M  V30 BEGIN BOND
M  V30 1 1 1 2
M  V30 2 1 2 3
M  V30 3 1 2 4
M  V30 4 1 4 5
M  V30 5 1 5 6
M  V30 6 1 6 7
M  V30 7 1 7 8
M  V30 8 1 8 9
M  V30 9 1 2 10
M  V30 10 1 10 11
M  V30 11 1 11 12
M  V30 12 1 12 13
M  V30 13 1 13 14
M  V30 14 1 14 15
M  V30 15 1 9 4
M  V30 16 1 15 10
M  V30 17 1 1 16
M  V30 18 1 1 17
M  V30 19 1 3 18
M  V30 20 1 3 19
M  V30 21 1 4 20
M  V30 22 1 5 21
M  V30 23 1 5 22
M  V30 24 1 6 23
M  V30 25 1 6 24
M  V30 26 1 7 25
M  V30 27 1 7 26
M  V30 28 1 8 27
M  V30 29 1 8 28
M  V30 30 1 9 29
M  V30 31 1 9 30
M  V30 32 1 10 31
M  V30 33 1 11 32
M  V30 34 1 11 33
M  V30 35 1 12 34
M  V30 36 1 12 35
M  V30 37 1 13 36
M  V30 38 1 13 37
M  V30 39 1 14 38
M  V30 40 1 14 39
M  V30 41 1 15 40
M  V30 42 1 15 41
M  V30 END BOND
M  V30 END CTAB
M  END
