
     RDKit          3D

  0  0  0  0  0  0  0  0  0  0999 V3000
M  V30 BEGIN CTAB
M  V30 COUNTS 40 42 0 0 0
M  V30 BEGIN ATOM
M  V30 1 N 4.754 2.6458 1.08681 0
M  V30 2 C 4.67523 1.22627 1.15673 0
M  V30 3 N 3.46533 0.625416 1.35084 0
M  V30 4 C 3.37113 -0.707204 1.41918 0
M  V30 5 S 1.78011 -1.47446 1.67382 0
M  V30 6 C 0.987478 -1.79962 0.0713862 0
M  V30 7 C 0.685544 -0.466256 -0.556746 0
M  V30 8 C 0.0231895 -0.545469 -1.87572 0
M  V30 9 C -1.32414 -1.14415 -1.96523 0
M  V30 10 N -2.382 -0.485993 -1.27547 0
M  V30 11 C -3.18797 0.584849 -1.82449 0
M  V30 12 O -3.0615 1.10366 -2.97377 0
M  V30 13 C -4.15333 0.94109 -0.815814 0
M  V30 14 C -3.97815 0.154555 0.298996 0
M  V30 15 C -2.85962 -0.750755 0.0151953 0
M  V30 16 O -2.47851 -1.60078 0.886818 0
M  V30 17 C -4.7781 0.289936 1.42239 0
M  V30 18 C -5.77205 1.23376 1.42365 0
M  V30 19 C -5.94978 2.02252 0.309152 0
M  V30 20 C -5.16452 1.89985 -0.811978 0
M  V30 21 N 4.47081 -1.46887 1.29688 0
M  V30 22 C 5.68536 -0.915819 1.1041 0
M  V30 23 N 5.75347 0.428739 1.03893 0
M  V30 24 N 6.85096 -1.70837 0.973963 0
M  V30 25 H 4.77561 3.25907 1.92385 0
M  V30 26 H 4.7928 3.1104 0.152866 0
M  V30 27 H 0.144339 -2.46758 0.208301 0
M  V30 28 H 1.74656 -2.28635 -0.597469 0
M  V30 29 H 0.13763 0.147903 0.191082 0
M  V30 30 H 1.69166 0.0223395 -0.720575 0
M  V30 31 H 0.697062 -1.18927 -2.5287 0
M  V30 32 H 0.0249112 0.440721 -2.42038 0
M  V30 33 H -1.58398 -1.20172 -3.06066 0
M  V30 34 H -1.30037 -2.21791 -1.63067 0
M  V30 35 H -4.64938 -0.3266 2.31111 0
M  V30 36 H -6.42605 1.36855 2.29877 0
M  V30 37 H -6.73631 2.76223 0.322896 0
M  V30 38 H -5.28091 2.50445 -1.7002 0
M  V30 39 H 7.58789 -1.73269 1.70137 0
M  V30 40 H 6.9656 -2.28223 0.118782 0
M  V30 END ATOM
M  V30 BEGIN BOND
M  V30 1 1 1 2
M  V30 2 2 2 3
M  V30 3 1 3 4
M  V30 4 1 4 5
M  V30 5 1 5 6
M  V30 6 1 6 7
M  V30 7 1 7 8
M  V30 8 1 8 9
M  V30 9 1 9 10
M  V30 10 1 10 11
M  V30 11 2 11 12
M  V30 12 1 11 13
M  V30 13 2 13 14
M  V30 14 1 14 15
M  V30 15 2 15 16
M  V30 16 1 14 17
M  V30 17 2 17 18
M  V30 18 1 18 19
M  V30 19 2 19 20
M  V30 20 2 4 21
M  V30 21 1 21 22
M  V30 22 2 22 23
M  V30 23 1 22 24
M  V30 24 1 23 2
M  V30 25 1 15 10
M  V30 26 1 20 13
M  V30 27 1 1 25
M  V30 28 1 1 26
M  V30 29 1 6 27
M  V30 30 1 6 28
M  V30 31 1 7 29
M  V30 32 1 7 30
M  V30 33 1 8 31
M  V30 34 1 8 32
M  V30 35 1 9 33
M  V30 36 1 9 34
M  V30 37 1 17 35
M  V30 38 1 18 36
M  V30 39 1 19 37
M  V30 40 1 20 38
M  V30 41 1 24 39
M  V30 42 1 24 40
M  V30 END BOND
M  V30 END CTAB
M  END
