
     RDKit          3D

  0  0  0  0  0  0  0  0  0  0999 V3000
M  V30 BEGIN CTAB
M  V30 COUNTS 50 51 0 0 0
M  V30 BEGIN ATOM
M  V30 1 N 6.74209 -1.33019 -0.452694 0
M  V30 2 C 5.86805 -0.17903 -0.343498 0
M  V30 3 C 4.4917 -0.620397 -0.783996 0
M  V30 4 C 3.44796 0.426963 -0.734066 0
M  V30 5 C 3.11657 1.02411 0.578213 0
M  V30 6 C 2.5465 0.0843438 1.61181 0 CFG=1
M  V30 7 C 1.28788 -0.545729 1.14474 0
M  V30 8 O 1.14863 -1.78017 1.25775 0
M  V30 9 N 0.25784 0.222537 0.581083 0
M  V30 10 C -0.997808 -0.37763 0.11085 0
M  V30 11 C -1.85279 0.735893 -0.424179 0 CFG=2
M  V30 12 O -2.14186 1.69647 0.536439 0
M  V30 13 C -2.39731 2.88923 -0.15339 0
M  V30 14 C -3.39517 2.67237 -1.23705 0
M  V30 15 O -3.94812 3.69484 -1.71175 0
M  V30 16 N -3.7335 1.39612 -1.73686 0
M  V30 17 C -3.07371 0.239961 -1.1452 0 CFG=2
M  V30 18 C -3.96776 -0.564448 -0.317449 0
M  V30 19 C -3.96984 -1.93943 -0.42471 0
M  V30 20 C -4.82144 -2.71375 0.363122 0
M  V30 21 C -5.68433 -2.13589 1.26974 0
M  V30 22 C -5.68304 -0.764552 1.3775 0
M  V30 23 C -4.8295 0.000791076 0.587012 0
M  V30 24 N 3.41468 -0.881777 2.14843 0
M  V30 25 H 7.28514 -1.48257 0.429088 0
M  V30 26 H 7.32593 -1.32885 -1.30548 0
M  V30 27 H 6.24536 0.660159 -0.976443 0
M  V30 28 H 5.86745 0.144261 0.708229 0
M  V30 29 H 4.61807 -0.877651 -1.88633 0
M  V30 30 H 4.27446 -1.56387 -0.266157 0
M  V30 31 H 3.81198 1.2733 -1.39334 0
M  V30 32 H 2.55612 0.0276369 -1.27809 0
M  V30 33 H 4.04881 1.4552 1.0398 0
M  V30 34 H 2.35703 1.85592 0.483373 0
M  V30 35 H 2.28622 0.785676 2.49069 0
M  V30 36 H 0.412102 1.26884 0.502228 0
M  V30 37 H -1.47801 -0.930116 0.939544 0
M  V30 38 H -0.79794 -1.07088 -0.733928 0
M  V30 39 H -1.22473 1.26528 -1.20029 0
M  V30 40 H -1.44134 3.21413 -0.584356 0
M  V30 41 H -2.73078 3.64941 0.572037 0
M  V30 42 H -4.43412 1.32917 -2.50119 0
M  V30 43 H -2.69674 -0.359952 -2.02369 0
M  V30 44 H -3.30574 -2.42126 -1.12541 0
M  V30 45 H -4.83939 -3.79041 0.295415 0
M  V30 46 H -6.34912 -2.74617 1.88428 0
M  V30 47 H -6.36505 -0.326367 2.09259 0
M  V30 48 H -4.84186 1.06069 0.683619 0
M  V30 49 H 4.33249 -0.521354 2.37227 0
M  V30 50 H 3.25795 -1.82087 1.84265 0
M  V30 END ATOM
M  V30 BEGIN BOND
M  V30 1 1 1 2
M  V30 2 1 2 3
M  V30 3 1 3 4
M  V30 4 1 4 5
M  V30 5 1 5 6
M  V30 6 1 6 7
M  V30 7 2 7 8
M  V30 8 1 7 9
M  V30 9 1 9 10
M  V30 10 1 10 11
M  V30 11 1 11 12
M  V30 12 1 12 13
M  V30 13 1 13 14
M  V30 14 2 14 15
M  V30 15 1 14 16
M  V30 16 1 16 17
M  V30 17 1 17 18
M  V30 18 2 18 19
M  V30 19 1 19 20
M  V30 20 2 20 21
M  V30 21 1 21 22
M  V30 22 2 22 23
M  V30 23 1 6 24
M  V30 24 1 17 11
M  V30 25 1 23 18
M  V30 26 1 1 25
M  V30 27 1 1 26
M  V30 28 1 2 27
M  V30 29 1 2 28
M  V30 30 1 3 29
M  V30 31 1 3 30
M  V30 32 1 4 31
M  V30 33 1 4 32
M  V30 34 1 5 33
M  V30 35 1 5 34
M  V30 36 1 6 35 CFG=1
M  V30 37 1 9 36
M  V30 38 1 10 37
M  V30 39 1 10 38
M  V30 40 1 11 39 CFG=3
M  V30 41 1 13 40
M  V30 42 1 13 41
M  V30 43 1 16 42
M  V30 44 1 17 43 CFG=3
M  V30 45 1 19 44
M  V30 46 1 20 45
M  V30 47 1 21 46
M  V30 48 1 22 47
M  V30 49 1 23 48
M  V30 50 1 24 49
M  V30 51 1 24 50
M  V30 END BOND
M  V30 END CTAB
M  END
