
     RDKit          3D

  0  0  0  0  0  0  0  0  0  0999 V3000
M  V30 BEGIN CTAB
M  V30 COUNTS 62 65 0 0 0
M  V30 BEGIN ATOM
M  V30 1 N 7.6451 -0.407817 3.42448 0
M  V30 2 C 7.99636 -0.857425 2.15549 0
M  V30 3 C 6.78534 -0.798394 1.21153 0
M  V30 4 C 6.27002 0.597493 1.08428 0
M  V30 5 O 5.18771 0.753749 0.279469 0
M  V30 6 C 3.92655 0.277921 0.438176 0
M  V30 7 C 3.53162 -0.446908 1.53155 0
M  V30 8 C 2.22465 -0.87093 1.55525 0
M  V30 9 C 1.32038 -0.601947 0.550802 0
M  V30 10 C 1.69 0.11646 -0.538702 0
M  V30 11 C 3.02288 0.550395 -0.569148 0
M  V30 12 C 0.827823 0.526178 -1.63497 0
M  V30 13 O 1.49948 0.991047 -2.65813 0
M  V30 14 N -0.541392 0.524991 -1.80986 0
M  V30 15 C -0.999159 0.986515 -3.13955 0
M  V30 16 C -1.62543 -0.205672 -3.8103 0 CFG=2
M  V30 17 O -1.98504 0.168992 -5.10407 0
M  V30 18 C -2.76131 -0.805755 -3.05626 0
M  V30 19 C -3.54917 0.16883 -2.23046 0 CFG=2
M  V30 20 C -2.82198 0.780176 -1.09899 0 CFG=2
M  V30 21 C -1.46703 0.154759 -0.792015 0
M  V30 22 N -3.56977 0.863987 0.125939 0
M  V30 23 C -4.33644 1.89447 0.565139 0
M  V30 24 N -4.87005 1.60409 1.74267 0
M  V30 25 C -4.47834 0.392956 2.11062 0
M  V30 26 C -3.65448 -0.0784924 1.08842 0
M  V30 27 N -3.12345 -1.29431 1.21804 0
M  V30 28 C -3.36244 -2.0509 2.28703 0
M  V30 29 N -4.15367 -1.58551 3.25787 0
M  V30 30 C -4.73445 -0.378394 3.22211 0
M  V30 31 N -5.57583 0.0757491 4.28972 0
M  V30 32 C -4.77823 -0.576822 -1.73923 0
M  V30 33 O -4.05054 1.13442 -3.13771 0
M  V30 34 H 7.02464 -0.955837 3.92823 0
M  V30 35 H 7.65588 0.565476 3.54108 0
M  V30 36 H 8.77258 -0.206054 1.69046 0
M  V30 37 H 8.35826 -1.89878 2.13365 0
M  V30 38 H 6.07089 -1.54682 1.52887 0
M  V30 39 H 7.23447 -1.10895 0.211949 0
M  V30 40 H 6.07724 1.06063 2.08896 0
M  V30 41 H 7.12912 1.23177 0.691933 0
M  V30 42 H 4.21475 -0.646762 2.34036 0
M  V30 43 H 1.89454 -1.44936 2.41684 0
M  V30 44 H 0.308696 -1.00654 0.630018 0
M  V30 45 H 3.38101 1.13495 -1.42088 0
M  V30 46 H -1.60986 1.88043 -3.09936 0
M  V30 47 H -0.106959 1.23659 -3.73859 0
M  V30 48 H -0.834028 -0.977982 -3.91138 0
M  V30 49 H -1.36709 -0.126662 -5.79088 0
M  V30 50 H -3.47289 -1.23927 -3.80275 0
M  V30 51 H -2.46801 -1.65328 -2.40327 0
M  V30 52 H -2.59269 1.85454 -1.36919 0
M  V30 53 H -1.51969 -0.929726 -0.750159 0
M  V30 54 H -1.17541 0.567173 0.201416 0
M  V30 55 H -4.47682 2.81299 0.0140721 0
M  V30 56 H -2.91014 -3.03339 2.35154 0
M  V30 57 H -6.47587 0.562509 4.12983 0
M  V30 58 H -5.19627 -0.130196 5.26033 0
M  V30 59 H -4.53027 -1.63895 -1.46107 0
M  V30 60 H -5.34512 -0.0431586 -0.981627 0
M  V30 61 H -5.48264 -0.699926 -2.61529 0
M  V30 62 H -4.04803 1.99039 -2.63429 0
M  V30 END ATOM
M  V30 BEGIN BOND
M  V30 1 1 1 2
M  V30 2 1 2 3
M  V30 3 1 3 4
M  V30 4 1 4 5
M  V30 5 1 5 6
M  V30 6 2 6 7
M  V30 7 1 7 8
M  V30 8 2 8 9
M  V30 9 1 9 10
M  V30 10 2 10 11
M  V30 11 1 10 12
M  V30 12 2 12 13
M  V30 13 1 12 14
M  V30 14 1 14 15
M  V30 15 1 15 16
M  V30 16 1 16 17
M  V30 17 1 16 18
M  V30 18 1 18 19
M  V30 19 1 19 20
M  V30 20 1 20 21
M  V30 21 1 20 22
M  V30 22 1 22 23
M  V30 23 2 23 24
M  V30 24 1 24 25
M  V30 25 2 25 26
M  V30 26 1 26 27
M  V30 27 2 27 28
M  V30 28 1 28 29
M  V30 29 2 29 30
M  V30 30 1 30 31
M  V30 31 1 19 32
M  V30 32 1 19 33 CFG=3
M  V30 33 1 11 6
M  V30 34 1 21 14
M  V30 35 1 26 22
M  V30 36 1 30 25
M  V30 37 1 1 34
M  V30 38 1 1 35
M  V30 39 1 2 36
M  V30 40 1 2 37
M  V30 41 1 3 38
M  V30 42 1 3 39
M  V30 43 1 4 40
M  V30 44 1 4 41
M  V30 45 1 7 42
M  V30 46 1 8 43
M  V30 47 1 9 44
M  V30 48 1 11 45
M  V30 49 1 15 46
M  V30 50 1 15 47
M  V30 51 1 16 48 CFG=3
M  V30 52 1 17 49
M  V30 53 1 18 50
M  V30 54 1 18 51
M  V30 55 1 20 52 CFG=3
M  V30 56 1 21 53
M  V30 57 1 21 54
M  V30 58 1 23 55
M  V30 59 1 28 56
M  V30 60 1 31 57
M  V30 61 1 31 58
M  V30 62 1 32 59
M  V30 63 1 32 60
M  V30 64 1 32 61
M  V30 65 1 33 62
M  V30 END BOND
M  V30 END CTAB
M  END
