
     RDKit          3D

  0  0  0  0  0  0  0  0  0  0999 V3000
M  V30 BEGIN CTAB
M  V30 COUNTS 38 39 0 0 0
M  V30 BEGIN ATOM
M  V30 1 C 7.55174 -0.253689 -0.647722 0
M  V30 2 O 6.19833 -0.202972 -0.210505 0
M  V30 3 C 5.11746 -0.229368 -1.06626 0
M  V30 4 O 5.31875 -0.301837 -2.29689 0
M  V30 5 C 3.7526 -0.173757 -0.552981 0
M  V30 6 C 3.49998 -0.0961726 0.804167 0
M  V30 7 C 2.1993 -0.0419687 1.28009 0
M  V30 8 C 1.11219 -0.0623034 0.434304 0
M  V30 9 C -0.247413 0.000702883 1.04039 0
M  V30 10 C -0.730465 1.40529 1.20226 0
M  V30 11 S -2.37254 1.40825 1.95491 0
M  V30 12 C -3.61533 0.684946 0.92098 0
M  V30 13 C -3.92229 -0.6405 0.98319 0
M  V30 14 N -3.27087 -1.48757 1.89705 0
M  V30 15 N -4.87101 -1.13254 0.160364 0
M  V30 16 C -5.5042 -0.350856 -0.700876 0
M  V30 17 N -6.49545 -0.875015 -1.5576 0
M  V30 18 N -5.2032 0.947779 -0.761093 0
M  V30 19 C -4.27143 1.52174 0.0212818 0
M  V30 20 O -3.98389 2.7424 -0.030642 0
M  V30 21 C 1.34962 -0.138575 -0.907778 0
M  V30 22 C 2.6571 -0.193471 -1.38869 0
M  V30 23 H 8.21949 -0.555143 0.193602 0
M  V30 24 H 7.88564 0.761196 -0.960817 0
M  V30 25 H 7.62739 -0.980199 -1.47077 0
M  V30 26 H 4.34294 -0.079959 1.46612 0
M  V30 27 H 2.01282 0.0191125 2.36266 0
M  V30 28 H -0.91626 -0.501098 0.298613 0
M  V30 29 H -0.341466 -0.534694 1.98471 0
M  V30 30 H -0.816499 1.9495 0.234041 0
M  V30 31 H -0.070437 1.99267 1.88688 0
M  V30 32 H -3.3272 -1.29607 2.91049 0
M  V30 33 H -2.73291 -2.30483 1.56651 0
M  V30 34 H -6.90594 -1.82261 -1.45627 0
M  V30 35 H -6.87432 -0.308127 -2.36369 0
M  V30 36 H -5.71597 1.53805 -1.44658 0
M  V30 37 H 0.502372 -0.15521 -1.58891 0
M  V30 38 H 2.84137 -0.253098 -2.44238 0
M  V30 END ATOM
M  V30 BEGIN BOND
M  V30 1 1 1 2
M  V30 2 1 2 3
M  V30 3 2 3 4
M  V30 4 1 3 5
M  V30 5 2 5 6
M  V30 6 1 6 7
M  V30 7 2 7 8
M  V30 8 1 8 9
M  V30 9 1 9 10
M  V30 10 1 10 11
M  V30 11 1 11 12
M  V30 12 2 12 13
M  V30 13 1 13 14
M  V30 14 1 13 15
M  V30 15 2 15 16
M  V30 16 1 16 17
M  V30 17 1 16 18
M  V30 18 1 18 19
M  V30 19 2 19 20
M  V30 20 1 8 21
M  V30 21 2 21 22
M  V30 22 1 22 5
M  V30 23 1 19 12
M  V30 24 1 1 23
M  V30 25 1 1 24
M  V30 26 1 1 25
M  V30 27 1 6 26
M  V30 28 1 7 27
M  V30 29 1 9 28
M  V30 30 1 9 29
M  V30 31 1 10 30
M  V30 32 1 10 31
M  V30 33 1 14 32
M  V30 34 1 14 33
M  V30 35 1 17 34
M  V30 36 1 17 35
M  V30 37 1 18 36
M  V30 38 1 21 37
M  V30 39 1 22 38
M  V30 END BOND
M  V30 END CTAB
M  END
