
     RDKit          3D

  0  0  0  0  0  0  0  0  0  0999 V3000
M  V30 BEGIN CTAB
M  V30 COUNTS 22 22 0 0 0
M  V30 BEGIN ATOM
M  V30 1 N -1.87695 1.26694 0.795594 0
M  V30 2 C -2.14205 -0.0891526 0.4243 0
M  V30 3 C -1.15001 -0.462846 -0.677333 0
M  V30 4 C 0.235606 -0.345786 -0.22349 0
M  V30 5 C 0.895284 -1.48832 0.177887 0
M  V30 6 C 2.19996 -1.43067 0.612396 0
M  V30 7 F 2.79481 -2.58725 0.993922 0
M  V30 8 C 2.90927 -0.244176 0.669507 0
M  V30 9 C 2.24023 0.891047 0.266072 0
M  V30 10 C 0.935111 0.85991 -0.172701 0
M  V30 11 F 2.92395 2.08342 0.313567 0
M  V30 12 N -1.43019 0.294241 -1.87564 0
M  V30 13 H -1.11603 1.35879 1.47092 0
M  V30 14 H -1.9171 1.93318 0.0226383 0
M  V30 15 H -3.18714 -0.245878 0.0740088 0
M  V30 16 H -2.0245 -0.750941 1.30532 0
M  V30 17 H -1.35832 -1.52467 -0.914648 0
M  V30 18 H 0.392072 -2.47091 0.159214 0
M  V30 19 H 3.93455 -0.178468 1.0078 0
M  V30 20 H 0.420136 1.7787 -0.49047 0
M  V30 21 H -1.2503 1.29698 -1.79771 0
M  V30 22 H -2.42837 0.0558697 -2.14115 0
M  V30 END ATOM
M  V30 BEGIN BOND
M  V30 1 1 1 2
M  V30 2 1 2 3
M  V30 3 1 3 4
M  V30 4 2 4 5
M  V30 5 1 5 6
M  V30 6 1 6 7
M  V30 7 2 6 8
M  V30 8 1 8 9
M  V30 9 2 9 10
M  V30 10 1 9 11
M  V30 11 1 3 12
M  V30 12 1 10 4
M  V30 13 1 1 13
M  V30 14 1 1 14
M  V30 15 1 2 15
M  V30 16 1 2 16
M  V30 17 1 3 17
M  V30 18 1 5 18
M  V30 19 1 8 19
M  V30 20 1 10 20
M  V30 21 1 12 21
M  V30 22 1 12 22
M  V30 END BOND
M  V30 END CTAB
M  END
