
     RDKit          3D

  0  0  0  0  0  0  0  0  0  0999 V3000
M  V30 BEGIN CTAB
M  V30 COUNTS 35 37 0 0 0
M  V30 BEGIN ATOM
M  V30 1 N 6.58847 0.0583585 0.694801 0
M  V30 2 C 5.16981 0.00199609 0.489251 0
M  V30 3 N 4.34346 0.637478 1.32817 0
M  V30 4 C 3.01233 0.621933 1.18884 0
M  V30 5 C 2.47733 -0.0870706 0.124764 0
M  V30 6 C 1.0973 -0.127455 -0.0545331 0
M  V30 7 C 0.301689 0.537189 0.828891 0
M  V30 8 N -1.10147 0.512424 0.669912 0
M  V30 9 C -1.66849 -0.224421 -0.436726 0
M  V30 10 C -3.14657 -0.164844 -0.452645 0
M  V30 11 C -3.83933 -0.125125 -1.66921 0
M  V30 12 C -5.21349 -0.0737908 -1.65905 0
M  V30 13 C -5.88981 -0.0620355 -0.461479 0
M  V30 14 C -5.20233 -0.101281 0.726269 0
M  V30 15 Cl -6.04055 -0.0874294 2.27455 0
M  V30 16 C -3.81167 -0.153724 0.754432 0
M  V30 17 C 0.832072 1.24133 1.88559 0
M  V30 18 C 2.19103 1.30495 2.09636 0
M  V30 19 C 3.32174 -0.738463 -0.735388 0
M  V30 20 N 2.73546 -1.4592 -1.82082 0
M  V30 21 N 4.64046 -0.680185 -0.535849 0
M  V30 22 H 6.94491 -0.145277 1.63998 0
M  V30 23 H 7.19229 0.29382 -0.085296 0
M  V30 24 H 0.737465 -0.69392 -0.89875 0
M  V30 25 H -1.73682 1.02238 1.3416 0
M  V30 26 H -1.30129 -1.27284 -0.337391 0
M  V30 27 H -1.25753 0.236606 -1.37539 0
M  V30 28 H -3.24789 -0.136831 -2.59019 0
M  V30 29 H -5.71071 -0.0442824 -2.61917 0
M  V30 30 H -6.95405 -0.0224206 -0.437838 0
M  V30 31 H -3.31267 -0.18565 1.7201 0
M  V30 32 H 0.181877 1.77577 2.59503 0
M  V30 33 H 2.65238 1.84484 2.91137 0
M  V30 34 H 2.66586 -1.09057 -2.79375 0
M  V30 35 H 2.34876 -2.41228 -1.64902 0
M  V30 END ATOM
M  V30 BEGIN BOND
M  V30 1 1 1 2
M  V30 2 2 2 3
M  V30 3 1 3 4
M  V30 4 2 4 5
M  V30 5 1 5 6
M  V30 6 2 6 7
M  V30 7 1 7 8
M  V30 8 1 8 9
M  V30 9 1 9 10
M  V30 10 2 10 11
M  V30 11 1 11 12
M  V30 12 2 12 13
M  V30 13 1 13 14
M  V30 14 1 14 15
M  V30 15 2 14 16
M  V30 16 1 7 17
M  V30 17 2 17 18
M  V30 18 1 5 19
M  V30 19 1 19 20
M  V30 20 2 19 21
M  V30 21 1 21 2
M  V30 22 1 18 4
M  V30 23 1 16 10
M  V30 24 1 1 22
M  V30 25 1 1 23
M  V30 26 1 6 24
M  V30 27 1 8 25
M  V30 28 1 9 26
M  V30 29 1 9 27
M  V30 30 1 11 28
M  V30 31 1 12 29
M  V30 32 1 13 30
M  V30 33 1 16 31
M  V30 34 1 17 32
M  V30 35 1 18 33
M  V30 36 1 20 34
M  V30 37 1 20 35
M  V30 END BOND
M  V30 END CTAB
M  END
