
     RDKit          3D

  0  0  0  0  0  0  0  0  0  0999 V3000
M  V30 BEGIN CTAB
M  V30 COUNTS 46 47 0 0 0
M  V30 BEGIN ATOM
M  V30 1 N 5.57394 -0.537491 -0.634936 0
M  V30 2 C 5.64323 0.298913 0.55715 0
M  V30 3 C 4.97595 1.59671 0.199265 0
M  V30 4 N 3.61166 1.34793 -0.190641 0
M  V30 5 C 2.68473 0.798753 0.71591 0
M  V30 6 O 2.92095 0.486326 1.90295 0
M  V30 7 C 1.28802 0.560955 0.233304 0
M  V30 8 C 0.405397 -0.0241155 1.29149 0
M  V30 9 N -0.910744 -0.205701 0.703419 0
M  V30 10 C -1.88564 0.815719 0.762248 0
M  V30 11 O -1.53685 1.96537 1.09655 0
M  V30 12 C -3.29294 0.5523 0.439514 0
M  V30 13 O -3.44162 -0.566821 -0.432469 0
M  V30 14 C -2.52607 -1.58636 -0.513513 0
M  V30 15 C -1.27893 -1.41382 0.043908 0
M  V30 16 N -0.388928 -2.4166 -0.0398813 0
M  V30 17 C -0.704913 -3.5849 -0.662131 0
M  V30 18 N 0.238841 -4.64905 -0.751325 0
M  V30 19 C -1.9413 -3.79996 -1.23357 0
M  V30 20 C -2.86288 -2.7764 -1.15313 0
M  V30 21 C -4.05151 1.7366 -0.0673569 0
M  V30 22 C -4.03429 2.81823 0.990916 0
M  V30 23 C -3.49526 2.26975 -1.36962 0
M  V30 24 H 6.01818 -1.45195 -0.517228 0
M  V30 25 H 5.93453 0.0335805 -1.42834 0
M  V30 26 H 6.72609 0.464406 0.834796 0
M  V30 27 H 5.10676 -0.179731 1.38513 0
M  V30 28 H 5.01173 2.29564 1.07517 0
M  V30 29 H 5.51454 2.09669 -0.655569 0
M  V30 30 H 3.27252 1.5714 -1.16657 0
M  V30 31 H 0.817254 1.49536 -0.121491 0
M  V30 32 H 1.35952 -0.123153 -0.617683 0
M  V30 33 H 0.741462 -1.04497 1.60784 0
M  V30 34 H 0.32789 0.594525 2.1892 0
M  V30 35 H -3.78739 0.232077 1.39889 0
M  V30 36 H 1.26109 -4.44391 -0.783157 0
M  V30 37 H -0.0516514 -5.64862 -0.787185 0
M  V30 38 H -2.18174 -4.73812 -1.72808 0
M  V30 39 H -3.82798 -2.9476 -1.60062 0
M  V30 40 H -5.09844 1.4593 -0.257545 0
M  V30 41 H -5.04717 3.29859 1.07744 0
M  V30 42 H -3.31037 3.63577 0.751676 0
M  V30 43 H -3.77723 2.44075 1.99572 0
M  V30 44 H -4.01748 1.85005 -2.25855 0
M  V30 45 H -3.58473 3.37296 -1.45004 0
M  V30 46 H -2.39823 2.05063 -1.46068 0
M  V30 END ATOM
M  V30 BEGIN BOND
M  V30 1 1 1 2
M  V30 2 1 2 3
M  V30 3 1 3 4
M  V30 4 1 4 5
M  V30 5 2 5 6
M  V30 6 1 5 7
M  V30 7 1 7 8
M  V30 8 1 8 9
M  V30 9 1 9 10
M  V30 10 2 10 11
M  V30 11 1 10 12
M  V30 12 1 12 13
M  V30 13 1 13 14
M  V30 14 2 14 15
M  V30 15 1 15 16
M  V30 16 2 16 17
M  V30 17 1 17 18
M  V30 18 1 17 19
M  V30 19 2 19 20
M  V30 20 1 12 21
M  V30 21 1 21 22
M  V30 22 1 21 23
M  V30 23 1 15 9
M  V30 24 1 20 14
M  V30 25 1 1 24
M  V30 26 1 1 25
M  V30 27 1 2 26
M  V30 28 1 2 27
M  V30 29 1 3 28
M  V30 30 1 3 29
M  V30 31 1 4 30
M  V30 32 1 7 31
M  V30 33 1 7 32
M  V30 34 1 8 33
M  V30 35 1 8 34
M  V30 36 1 12 35
M  V30 37 1 18 36
M  V30 38 1 18 37
M  V30 39 1 19 38
M  V30 40 1 20 39
M  V30 41 1 21 40
M  V30 42 1 22 41
M  V30 43 1 22 42
M  V30 44 1 22 43
M  V30 45 1 23 44
M  V30 46 1 23 45
M  V30 47 1 23 46
M  V30 END BOND
M  V30 END CTAB
M  END
