
     RDKit          3D

  0  0  0  0  0  0  0  0  0  0999 V3000
M  V30 BEGIN CTAB
M  V30 COUNTS 35 37 0 0 0
M  V30 BEGIN ATOM
M  V30 1 N -1.0013 0.135818 -3.39987 0
M  V30 2 C -1.43343 0.362789 -2.35243 0
M  V30 3 C -1.96428 0.667134 -1.03368 0
M  V30 4 C -3.20407 1.12306 -0.97107 0
M  V30 5 N -4.06348 1.34754 -2.05303 0
M  V30 6 S -3.83854 1.4424 0.71007 0
M  V30 7 C -3.0768 0.0725635 1.62601 0
M  V30 8 C -1.84921 -0.238643 1.26866 0
M  V30 9 C -1.17776 0.51675 0.183712 0
M  V30 10 C 0.195142 0.0180175 -0.062849 0
M  V30 11 C 1.28407 0.8085 0.222167 0
M  V30 12 C 2.58134 0.408286 0.0179539 0
M  V30 13 O 3.6703 1.2471 0.322559 0
M  V30 14 C 3.44932 2.53741 0.852531 0
M  V30 15 C 2.80722 -0.842822 -0.496329 0
M  V30 16 C 1.72015 -1.66033 -0.792355 0
M  V30 17 C 0.419843 -1.23697 -0.578663 0
M  V30 18 O 2.28114 -2.83544 -1.2867 0
M  V30 19 C 3.65693 -2.86357 -0.986345 0
M  V30 20 O 3.99456 -1.50679 -0.803868 0
M  V30 21 C -1.15274 -1.32115 1.93653 0
M  V30 22 N -0.611918 -2.194 2.47231 0
M  V30 23 N -3.77999 -0.579276 2.63328 0
M  V30 24 H -4.60664 0.570403 -2.45376 0
M  V30 25 H -4.15269 2.29282 -2.44936 0
M  V30 26 H -1.07551 1.5692 0.605557 0
M  V30 27 H 1.13207 1.80539 0.631035 0
M  V30 28 H 2.68911 3.06528 0.215099 0
M  V30 29 H 3.146 2.46706 1.90731 0
M  V30 30 H 4.39439 3.10504 0.732634 0
M  V30 31 H -0.386277 -1.91074 -0.825548 0
M  V30 32 H 4.26984 -3.28336 -1.81958 0
M  V30 33 H 3.8725 -3.39775 -0.0392537 0
M  V30 34 H -3.36684 -0.93903 3.53193 0
M  V30 35 H -4.82244 -0.752684 2.53536 0
M  V30 END ATOM
M  V30 BEGIN BOND
M  V30 1 3 1 2
M  V30 2 1 2 3
M  V30 3 2 3 4
M  V30 4 1 4 5
M  V30 5 1 4 6
M  V30 6 1 6 7
M  V30 7 2 7 8
M  V30 8 1 8 9
M  V30 9 1 9 10
M  V30 10 2 10 11
M  V30 11 1 11 12
M  V30 12 1 12 13
M  V30 13 1 13 14
M  V30 14 2 12 15
M  V30 15 1 15 16
M  V30 16 2 16 17
M  V30 17 1 16 18
M  V30 18 1 18 19
M  V30 19 1 19 20
M  V30 20 1 8 21
M  V30 21 3 21 22
M  V30 22 1 7 23
M  V30 23 1 9 3
M  V30 24 1 17 10
M  V30 25 1 20 15
M  V30 26 1 5 24
M  V30 27 1 5 25
M  V30 28 1 9 26
M  V30 29 1 11 27
M  V30 30 1 14 28
M  V30 31 1 14 29
M  V30 32 1 14 30
M  V30 33 1 17 31
M  V30 34 1 19 32
M  V30 35 1 19 33
M  V30 36 1 23 34
M  V30 37 1 23 35
M  V30 END BOND
M  V30 END CTAB
M  END
