
     RDKit          3D

  0  0  0  0  0  0  0  0  0  0999 V3000
M  V30 BEGIN CTAB
M  V30 COUNTS 42 43 0 0 0
M  V30 BEGIN ATOM
M  V30 1 C -3.0333 -3.53111 -0.713839 0
M  V30 2 O -2.20074 -2.42108 -0.517239 0
M  V30 3 C -2.72672 -1.13364 -0.494617 0
M  V30 4 C -4.12166 -0.990896 -0.675945 0
M  V30 5 C -4.68191 0.258391 -0.660768 0
M  V30 6 C -3.87597 1.35834 -0.468702 0
M  V30 7 C -2.52714 1.1929 -0.295396 0
M  V30 8 C -1.89332 -0.0703932 -0.301495 0
M  V30 9 C -0.458438 -0.12429 -0.108479 0
M  V30 10 O 0.163873 0.983609 0.0597029 0
M  V30 11 N 0.336335 -1.27724 -0.0852934 0
M  V30 12 C 1.74675 -1.30837 0.118949 0
M  V30 13 C 2.47341 -2.3903 -0.413663 0
M  V30 14 C 3.83383 -2.50552 -0.235518 0
M  V30 15 C 4.52072 -1.52609 0.492834 0
M  V30 16 C 3.83804 -0.465156 1.02093 0
M  V30 17 C 2.44637 -0.38459 0.816316 0
M  V30 18 N 4.48658 0.550519 1.77134 0
M  V30 19 S 5.92621 1.35191 1.34487 0
M  V30 20 O 6.63613 1.75631 2.62441 0
M  V30 21 O 6.8581 0.447458 0.607631 0
M  V30 22 N 5.62623 2.78551 0.420469 0
M  V30 23 S -4.61218 2.94274 -0.452999 0
M  V30 24 O -3.59684 3.9695 -0.913801 0
M  V30 25 O -5.76676 3.02539 -1.41929 0
M  V30 26 N -5.08082 3.36373 1.14015 0
M  V30 27 H -3.77844 -3.6445 0.118955 0
M  V30 28 H -3.64672 -3.40495 -1.6506 0
M  V30 29 H -2.469 -4.47247 -0.868758 0
M  V30 30 H -4.72671 -1.88561 -0.825105 0
M  V30 31 H -5.73083 0.372264 -0.796625 0
M  V30 32 H -1.86947 2.05879 -0.140994 0
M  V30 33 H -0.0852923 -2.25402 -0.22289 0
M  V30 34 H 1.9589 -3.15963 -0.98115 0
M  V30 35 H 4.42584 -3.31753 -0.626747 0
M  V30 36 H 5.58568 -1.62293 0.632191 0
M  V30 37 H 1.99319 0.465781 1.28045 0
M  V30 38 H 4.01644 0.825356 2.6813 0
M  V30 39 H 6.40612 3.4656 0.479793 0
M  V30 40 H 4.75804 3.26629 0.728767 0
M  V30 41 H -6.0603 3.03548 1.37022 0
M  V30 42 H -5.09423 4.41448 1.25265 0
M  V30 END ATOM
M  V30 BEGIN BOND
M  V30 1 1 1 2
M  V30 2 1 2 3
M  V30 3 2 3 4
M  V30 4 1 4 5
M  V30 5 2 5 6
M  V30 6 1 6 7
M  V30 7 2 7 8
M  V30 8 1 8 9
M  V30 9 2 9 10
M  V30 10 1 9 11
M  V30 11 1 11 12
M  V30 12 2 12 13
M  V30 13 1 13 14
M  V30 14 2 14 15
M  V30 15 1 15 16
M  V30 16 2 16 17
M  V30 17 1 16 18
M  V30 18 1 18 19
M  V30 19 2 19 20
M  V30 20 2 19 21
M  V30 21 1 19 22
M  V30 22 1 6 23
M  V30 23 2 23 24
M  V30 24 2 23 25
M  V30 25 1 23 26
M  V30 26 1 8 3
M  V30 27 1 17 12
M  V30 28 1 1 27
M  V30 29 1 1 28
M  V30 30 1 1 29
M  V30 31 1 4 30
M  V30 32 1 5 31
M  V30 33 1 7 32
M  V30 34 1 11 33
M  V30 35 1 13 34
M  V30 36 1 14 35
M  V30 37 1 15 36
M  V30 38 1 17 37
M  V30 39 1 18 38
M  V30 40 1 22 39
M  V30 41 1 22 40
M  V30 42 1 26 41
M  V30 43 1 26 42
M  V30 END BOND
M  V30 END CTAB
M  END
