
     RDKit          3D

  0  0  0  0  0  0  0  0  0  0999 V3000
M  V30 BEGIN CTAB
M  V30 COUNTS 16 16 0 0 0
M  V30 BEGIN ATOM
M  V30 1 H -3.10049 0.616513 -0.117068 0 MASS=2
M  V30 2 C -2.07307 0.267422 -0.0533642 0
M  V30 3 C -1.80284 -1.07151 0.178109 0
M  V30 4 H -2.59543 -1.77198 0.295937 0 MASS=2
M  V30 5 C -0.497052 -1.4899 0.254724 0
M  V30 6 H -0.200389 -2.51941 0.433014 0 MASS=2
M  V30 7 C 0.536725 -0.573902 0.100641 0
M  V30 8 N 1.89233 -0.983622 0.175949 0
M  V30 9 C 0.293014 0.763514 -0.130479 0
M  V30 10 N 1.37988 1.66681 -0.282183 0
M  V30 11 C -1.02472 1.16943 -0.204987 0
M  V30 12 H -1.245 2.22385 -0.387296 0 MASS=2
M  V30 13 H 2.25162 -1.68224 -0.524003 0
M  V30 14 H 2.57484 -0.642687 0.881545 0
M  V30 15 H 1.947 1.94565 0.564957 0
M  V30 16 H 1.66357 2.08206 -1.1855 0
M  V30 END ATOM
M  V30 BEGIN BOND
M  V30 1 1 1 2
M  V30 2 2 2 3
M  V30 3 1 3 4
M  V30 4 1 3 5
M  V30 5 1 5 6
M  V30 6 2 5 7
M  V30 7 1 7 8
M  V30 8 1 7 9
M  V30 9 1 9 10
M  V30 10 2 9 11
M  V30 11 1 11 12
M  V30 12 1 11 2
M  V30 13 1 8 13
M  V30 14 1 8 14
M  V30 15 1 10 15
M  V30 16 1 10 16
M  V30 END BOND
M  V30 END CTAB
M  END
