
     RDKit          3D

  0  0  0  0  0  0  0  0  0  0999 V3000
M  V30 BEGIN CTAB
M  V30 COUNTS 25 25 0 0 0
M  V30 BEGIN ATOM
M  V30 1 N -3.87446 0.533805 -0.453634 0
M  V30 2 C -2.43662 0.766607 -0.397617 0
M  V30 3 C -1.66614 -0.510288 -0.623607 0
M  V30 4 C -0.215962 -0.286395 -0.558974 0
M  V30 5 C 0.66173 -1.379 -0.495673 0
M  V30 6 C 2.01429 -1.16094 -0.431713 0
M  V30 7 C 2.52903 0.127039 -0.428657 0
M  V30 8 C 1.66189 1.19634 -0.490965 0
M  V30 9 C 0.286196 0.994961 -0.556322 0
M  V30 10 C 3.97258 0.406675 -0.361243 0
M  V30 11 F 4.39555 -0.00868553 0.909664 0
M  V30 12 F 4.69876 -0.243833 -1.32745 0
M  V30 13 N -2.14556 -1.47999 0.34169 0
M  V30 14 H -4.18564 0.453147 0.561635 0
M  V30 15 H -4.34729 1.40305 -0.807031 0
M  V30 16 H -2.14718 1.20216 0.570788 0
M  V30 17 H -2.2123 1.53117 -1.18023 0
M  V30 18 H -1.8778 -0.930281 -1.6312 0
M  V30 19 H 0.23211 -2.38124 -0.499528 0
M  V30 20 H 2.71713 -1.97458 -0.382109 0
M  V30 21 H 2.03093 2.23159 -0.490761 0
M  V30 22 H -0.339532 1.88772 -0.601026 0
M  V30 23 H 4.12405 1.49928 -0.372958 0
M  V30 24 H -1.61497 -1.46084 1.2362 0
M  V30 25 H -2.26079 -2.41749 -0.061384 0
M  V30 END ATOM
M  V30 BEGIN BOND
M  V30 1 1 1 2
M  V30 2 1 2 3
M  V30 3 1 3 4
M  V30 4 2 4 5
M  V30 5 1 5 6
M  V30 6 2 6 7
M  V30 7 1 7 8
M  V30 8 2 8 9
M  V30 9 1 7 10
M  V30 10 1 10 11
M  V30 11 1 10 12
M  V30 12 1 3 13
M  V30 13 1 9 4
M  V30 14 1 1 14
M  V30 15 1 1 15
M  V30 16 1 2 16
M  V30 17 1 2 17
M  V30 18 1 3 18
M  V30 19 1 5 19
M  V30 20 1 6 20
M  V30 21 1 8 21
M  V30 22 1 9 22
M  V30 23 1 10 23
M  V30 24 1 13 24
M  V30 25 1 13 25
M  V30 END BOND
M  V30 END CTAB
M  END
