
     RDKit          3D

  0  0  0  0  0  0  0  0  0  0999 V3000
M  V30 BEGIN CTAB
M  V30 COUNTS 26 27 0 0 0
M  V30 BEGIN ATOM
M  V30 1 N -3.70989 1.12317 -0.985207 0
M  V30 2 C -2.61751 1.41903 -0.0936645 0
M  V30 3 C -1.52209 0.381328 -0.134442 0
M  V30 4 C -2.00474 -0.932948 0.423421 0
M  V30 5 C -0.677869 -1.56532 0.865466 0
M  V30 6 C 0.149545 -0.360047 1.15456 0
M  V30 7 O -0.540157 0.753732 0.741575 0
M  V30 8 C 1.50267 -0.437626 0.543599 0
M  V30 9 N 2.11191 -1.48778 -0.00135379 0
M  V30 10 N 3.31427 -1.16769 -0.441047 0
M  V30 11 C 3.48596 0.134698 -0.169897 0
M  V30 12 N 2.37795 0.576956 0.431204 0
M  V30 13 N 4.67714 0.886622 -0.489937 0
M  V30 14 H -3.75869 1.75679 -1.8111 0
M  V30 15 H -4.62716 1.28416 -0.469423 0
M  V30 16 H -2.97109 1.4842 0.953219 0
M  V30 17 H -2.21544 2.40446 -0.370289 0
M  V30 18 H -1.13551 0.196962 -1.14607 0
M  V30 19 H -2.67718 -0.780766 1.27709 0
M  V30 20 H -2.49764 -1.57211 -0.322437 0
M  V30 21 H -0.260895 -2.20426 0.0606165 0
M  V30 22 H -0.911934 -2.16071 1.76699 0
M  V30 23 H 0.317485 -0.283889 2.2587 0
M  V30 24 H 4.01334 -1.77875 -0.90851 0
M  V30 25 H 5.36045 0.530905 -1.16501 0
M  V30 26 H 4.81708 1.79887 -0.0130278 0
M  V30 END ATOM
M  V30 BEGIN BOND
M  V30 1 1 1 2
M  V30 2 1 2 3
M  V30 3 1 3 4
M  V30 4 1 4 5
M  V30 5 1 5 6
M  V30 6 1 6 7
M  V30 7 1 6 8
M  V30 8 2 8 9
M  V30 9 1 9 10
M  V30 10 1 10 11
M  V30 11 2 11 12
M  V30 12 1 11 13
M  V30 13 1 7 3
M  V30 14 1 12 8
M  V30 15 1 1 14
M  V30 16 1 1 15
M  V30 17 1 2 16
M  V30 18 1 2 17
M  V30 19 1 3 18
M  V30 20 1 4 19
M  V30 21 1 4 20
M  V30 22 1 5 21
M  V30 23 1 5 22
M  V30 24 1 6 23
M  V30 25 1 10 24
M  V30 26 1 13 25
M  V30 27 1 13 26
M  V30 END BOND
M  V30 END CTAB
M  END
