
     RDKit          3D

  0  0  0  0  0  0  0  0  0  0999 V3000
M  V30 BEGIN CTAB
M  V30 COUNTS 28 29 0 0 0
M  V30 BEGIN ATOM
M  V30 1 N 3.49677 0.554664 1.26512 0
M  V30 2 C 3.76971 -0.520109 0.298066 0
M  V30 3 C 2.9933 -0.302937 -0.960076 0
M  V30 4 C 1.51688 -0.322834 -0.673264 0
M  V30 5 N 0.747385 0.182477 -1.60814 0
M  V30 6 C -0.5643 0.36722 -1.47404 0
M  V30 7 N -1.5008 0.758433 -2.42341 0
M  V30 8 C -1.15058 -0.0266018 -0.200421 0
M  V30 9 C -0.368131 -0.545694 0.725166 0
M  V30 10 N 1.04181 -0.702831 0.510998 0
M  V30 11 O -0.851094 -1.01953 1.99766 0
M  V30 12 C -2.4774 0.604085 -0.00922718 0
M  V30 13 C -3.85165 0.424364 0.104183 0
M  V30 14 C -3.16299 -0.260702 1.16008 0
M  V30 15 H 3.14731 0.206926 2.1581 0
M  V30 16 H 4.32978 1.18686 1.365 0
M  V30 17 H 3.52746 -1.46157 0.776345 0
M  V30 18 H 4.86633 -0.510079 0.06548 0
M  V30 19 H 3.22775 -0.940526 -1.83683 0
M  V30 20 H 3.23211 0.812065 -1.2062 0
M  V30 21 H -1.32236 1.5139 -3.07098 0
M  V30 22 H -2.39679 0.21926 -2.50548 0
M  V30 23 H -1.09303 -2.01875 2.0613 0
M  V30 24 H -2.11974 1.65632 0.561936 0
M  V30 25 H -4.4307 -0.123624 -0.703587 0
M  V30 26 H -4.46121 1.38141 0.323217 0
M  V30 27 H -3.05404 0.196337 2.17318 0
M  V30 28 H -3.09176 -1.30853 1.12583 0
M  V30 END ATOM
M  V30 BEGIN BOND
M  V30 1 1 1 2
M  V30 2 1 2 3
M  V30 3 1 3 4
M  V30 4 2 4 5
M  V30 5 1 5 6
M  V30 6 1 6 7
M  V30 7 2 6 8
M  V30 8 1 8 9
M  V30 9 2 9 10
M  V30 10 1 9 11
M  V30 11 1 8 12
M  V30 12 1 12 13
M  V30 13 1 13 14
M  V30 14 1 10 4
M  V30 15 1 14 12
M  V30 16 1 1 15
M  V30 17 1 1 16
M  V30 18 1 2 17
M  V30 19 1 2 18
M  V30 20 1 3 19
M  V30 21 1 3 20
M  V30 22 1 7 21
M  V30 23 1 7 22
M  V30 24 1 11 23
M  V30 25 1 12 24
M  V30 26 1 13 25
M  V30 27 1 13 26
M  V30 28 1 14 27
M  V30 29 1 14 28
M  V30 END BOND
M  V30 END CTAB
M  END
