
     RDKit          3D

  0  0  0  0  0  0  0  0  0  0999 V3000
M  V30 BEGIN CTAB
M  V30 COUNTS 35 36 0 0 0
M  V30 BEGIN ATOM
M  V30 1 N -3.76154 2.09253 -0.273912 0
M  V30 2 C -3.26223 0.796433 -0.763679 0
M  V30 3 C -3.26382 -0.126444 0.403401 0
M  V30 4 C -2.51471 -1.42687 0.18676 0
M  V30 5 C -1.56275 -1.27702 -0.994513 0
M  V30 6 N -0.956156 0.0012143 -0.995518 0
M  V30 7 C -1.91977 1.07645 -1.38658 0
M  V30 8 C 0.310747 0.405681 -0.645706 0
M  V30 9 O 0.542319 1.71279 -0.868427 0
M  V30 10 C 1.44878 -0.276815 -0.0881594 0
M  V30 11 C 1.40598 -1.5564 0.402916 0
M  V30 12 C 2.53611 -2.15512 0.989685 0
M  V30 13 C 3.68866 -1.44681 1.0698 0
M  V30 14 C 3.7548 -0.154799 0.582689 0
M  V30 15 C 2.66281 0.442033 0.00755776 0
M  V30 16 N 2.7473 1.76561 -0.492362 0
M  V30 17 N 4.95728 0.61814 0.654611 0 CHG=1
M  V30 18 O 4.92997 1.85012 0.781526 0
M  V30 19 O 6.17105 -0.0163418 0.581441 0 CHG=-1
M  V30 20 H -4.76088 1.93431 -0.0128138 0
M  V30 21 H -3.24453 2.24404 0.641186 0
M  V30 22 H -4.0073 0.480833 -1.54232 0
M  V30 23 H -2.98508 0.379674 1.34989 0
M  V30 24 H -4.34072 -0.437633 0.555126 0
M  V30 25 H -3.17133 -2.28774 -0.0177996 0
M  V30 26 H -1.92819 -1.62747 1.0989 0
M  V30 27 H -2.20777 -1.29482 -1.95032 0
M  V30 28 H -0.882915 -2.10095 -1.08324 0
M  V30 29 H -1.46839 2.01975 -1.13103 0
M  V30 30 H -2.00093 0.978118 -2.48313 0
M  V30 31 H 0.514421 -2.12873 0.388679 0
M  V30 32 H 2.43014 -3.15392 1.34954 0
M  V30 33 H 4.57543 -1.87289 1.51191 0
M  V30 34 H 2.94253 1.93439 -1.49559 0
M  V30 35 H 2.6207 2.60865 0.109162 0
M  V30 END ATOM
M  V30 BEGIN BOND
M  V30 1 1 1 2
M  V30 2 1 2 3
M  V30 3 1 3 4
M  V30 4 1 4 5
M  V30 5 1 5 6
M  V30 6 1 6 7
M  V30 7 1 6 8
M  V30 8 2 8 9
M  V30 9 1 8 10
M  V30 10 2 10 11
M  V30 11 1 11 12
M  V30 12 2 12 13
M  V30 13 1 13 14
M  V30 14 2 14 15
M  V30 15 1 15 16
M  V30 16 1 14 17
M  V30 17 2 17 18
M  V30 18 1 17 19
M  V30 19 1 7 2
M  V30 20 1 15 10
M  V30 21 1 1 20
M  V30 22 1 1 21
M  V30 23 1 2 22
M  V30 24 1 3 23
M  V30 25 1 3 24
M  V30 26 1 4 25
M  V30 27 1 4 26
M  V30 28 1 5 27
M  V30 29 1 5 28
M  V30 30 1 7 29
M  V30 31 1 7 30
M  V30 32 1 11 31
M  V30 33 1 12 32
M  V30 34 1 13 33
M  V30 35 1 16 34
M  V30 36 1 16 35
M  V30 END BOND
M  V30 END CTAB
M  END
