
     RDKit          3D

  0  0  0  0  0  0  0  0  0  0999 V3000
M  V30 BEGIN CTAB
M  V30 COUNTS 15 14 0 0 0
M  V30 BEGIN ATOM
M  V30 1 C -2.07482 -0.688251 -0.316331 0
M  V30 2 C -0.830369 0.00483642 0.133021 0
M  V30 3 C 0.312134 -0.387095 -0.389827 0
M  V30 4 C 1.53267 0.249231 0.0113629 0
M  V30 5 S 1.5453 1.4531 1.10472 0
M  V30 6 N 2.76574 -0.157594 -0.538251 0
M  V30 7 N -0.953856 1.03306 1.0864 0
M  V30 8 H -2.94888 0.00897074 -0.308456 0
M  V30 9 H -1.93079 -1.0176 -1.36412 0
M  V30 10 H -2.2205 -1.53871 0.383811 0
M  V30 11 H 0.31902 -1.17591 -1.10839 0
M  V30 12 H 3.21295 -1.07247 -0.315963 0
M  V30 13 H 3.27014 0.471146 -1.19999 0
M  V30 14 H -0.907349 0.81244 2.09101 0
M  V30 15 H -1.09139 2.00485 0.730991 0
M  V30 END ATOM
M  V30 BEGIN BOND
M  V30 1 1 1 2
M  V30 2 2 2 3
M  V30 3 1 3 4
M  V30 4 2 4 5
M  V30 5 1 4 6
M  V30 6 1 2 7
M  V30 7 1 1 8
M  V30 8 1 1 9
M  V30 9 1 1 10
M  V30 10 1 3 11
M  V30 11 1 6 12
M  V30 12 1 6 13
M  V30 13 1 7 14
M  V30 14 1 7 15
M  V30 END BOND
M  V30 END CTAB
M  END
