
     RDKit          3D

  0  0  0  0  0  0  0  0  0  0999 V3000
M  V30 BEGIN CTAB
M  V30 COUNTS 29 30 0 0 0
M  V30 BEGIN ATOM
M  V30 1 N -0.0636631 1.1534 -2.40587 0
M  V30 2 Si -0.044292 1.08191 -0.605925 0 VAL=4
M  V30 3 N -0.00393569 2.72422 0.0959254 0
M  V30 4 C 1.50931 0.229702 -0.131052 0
M  V30 5 C 2.61473 0.303149 -0.951521 0
M  V30 6 C 3.81275 -0.31185 -0.657204 0
M  V30 7 C 3.89878 -1.0304 0.513021 0
M  V30 8 C 2.80468 -1.11985 1.35363 0
M  V30 9 C 1.62289 -0.497155 1.03599 0
M  V30 10 C -1.51737 0.15981 -0.0746968 0
M  V30 11 C -1.43012 -1.18974 0.169257 0
M  V30 12 C -2.55208 -1.91339 0.578039 0
M  V30 13 C -3.75803 -1.26164 0.737022 0
M  V30 14 C -3.81434 0.0888322 0.485529 0
M  V30 15 C -2.70572 0.80466 0.0814532 0
M  V30 16 H -0.995395 1.51814 -2.74656 0
M  V30 17 H 0.0691569 0.156198 -2.7206 0
M  V30 18 H 0.891881 3.17102 -0.167655 0
M  V30 19 H -0.84221 3.25374 -0.241091 0
M  V30 20 H 2.59315 0.863287 -1.89236 0
M  V30 21 H 4.68794 -0.260715 -1.29485 0
M  V30 22 H 4.82204 -1.52362 0.772697 0
M  V30 23 H 2.89094 -1.68466 2.26175 0
M  V30 24 H 0.778475 -0.577743 1.70444 0
M  V30 25 H -0.523836 -1.77114 0.0677556 0
M  V30 26 H -2.48054 -2.989 0.771999 0
M  V30 27 H -4.63183 -1.82707 1.05574 0
M  V30 28 H -4.78832 0.572021 0.622406 0
M  V30 29 H -2.84503 1.87789 -0.0959169 0
M  V30 END ATOM
M  V30 BEGIN BOND
M  V30 1 1 1 2
M  V30 2 1 2 3
M  V30 3 1 2 4
M  V30 4 2 4 5
M  V30 5 1 5 6
M  V30 6 2 6 7
M  V30 7 1 7 8
M  V30 8 2 8 9
M  V30 9 1 2 10
M  V30 10 2 10 11
M  V30 11 1 11 12
M  V30 12 2 12 13
M  V30 13 1 13 14
M  V30 14 2 14 15
M  V30 15 1 9 4
M  V30 16 1 15 10
M  V30 17 1 1 16
M  V30 18 1 1 17
M  V30 19 1 3 18
M  V30 20 1 3 19
M  V30 21 1 5 20
M  V30 22 1 6 21
M  V30 23 1 7 22
M  V30 24 1 8 23
M  V30 25 1 9 24
M  V30 26 1 11 25
M  V30 27 1 12 26
M  V30 28 1 13 27
M  V30 29 1 14 28
M  V30 30 1 15 29
M  V30 END BOND
M  V30 END CTAB
M  END
