
     RDKit          3D

  0  0  0  0  0  0  0  0  0  0999 V3000
M  V30 BEGIN CTAB
M  V30 COUNTS 21 21 0 0 0
M  V30 BEGIN ATOM
M  V30 1 N -2.64724 -1.80901 0.0568695 0
M  V30 2 C -1.75179 -0.71555 0.07432 0
M  V30 3 C -0.376251 -0.89508 -0.0417813 0
M  V30 4 C 0.517948 0.15223 -0.02779 0
M  V30 5 C 1.94223 -0.0852517 -0.151604 0
M  V30 6 O 2.75959 0.871135 -0.137858 0
M  V30 7 C 2.51861 -1.44529 -0.299788 0
M  V30 8 C 0.05983 1.44677 0.105793 0
M  V30 9 C -1.30059 1.63521 0.221465 0
M  V30 10 C -2.19478 0.58462 0.207213 0
M  V30 11 F -3.52824 0.817338 0.324286 0
M  V30 12 N 0.977008 2.55143 0.12248 0
M  V30 13 H -3.10339 -2.12006 0.928628 0
M  V30 14 H -2.84217 -2.29456 -0.833201 0
M  V30 15 H -0.0656238 -1.93642 -0.144666 0
M  V30 16 H 1.84252 -2.15022 -0.820613 0
M  V30 17 H 2.73087 -1.84558 0.726197 0
M  V30 18 H 3.43242 -1.38443 -0.89961 0
M  V30 19 H -1.62493 2.6768 0.325665 0
M  V30 20 H 1.31783 2.96295 1.0188 0
M  V30 21 H 1.33614 2.98297 -0.754806 0
M  V30 END ATOM
M  V30 BEGIN BOND
M  V30 1 1 1 2
M  V30 2 2 2 3
M  V30 3 1 3 4
M  V30 4 1 4 5
M  V30 5 2 5 6
M  V30 6 1 5 7
M  V30 7 2 4 8
M  V30 8 1 8 9
M  V30 9 2 9 10
M  V30 10 1 10 11
M  V30 11 1 8 12
M  V30 12 1 10 2
M  V30 13 1 1 13
M  V30 14 1 1 14
M  V30 15 1 3 15
M  V30 16 1 7 16
M  V30 17 1 7 17
M  V30 18 1 7 18
M  V30 19 1 9 19
M  V30 20 1 12 20
M  V30 21 1 12 21
M  V30 END BOND
M  V30 END CTAB
M  END
