
     RDKit          3D

  0  0  0  0  0  0  0  0  0  0999 V3000
M  V30 BEGIN CTAB
M  V30 COUNTS 50 52 0 0 0
M  V30 BEGIN ATOM
M  V30 1 F 8.29406 -2.58612 0.194356 0
M  V30 2 C 7.05644 -2.02803 0.254292 0
M  V30 3 C 5.93939 -2.71514 -0.141483 0
M  V30 4 C 4.7007 -2.11322 -0.0649837 0
M  V30 5 C 4.51944 -0.826115 0.399315 0
M  V30 6 C 5.64259 -0.138945 0.795833 0
M  V30 7 C 6.8775 -0.733636 0.721585 0
M  V30 8 C 3.15219 -0.208181 0.466237 0
M  V30 9 C 2.82914 0.509401 -0.825949 0
M  V30 10 N 1.53557 1.11854 -0.818262 0
M  V30 11 C 1.27969 2.36062 -0.41289 0
M  V30 12 C 2.17183 3.41729 0.113231 0
M  V30 13 C -0.0787586 2.54145 -0.569592 0
M  V30 14 C -0.657964 1.39602 -1.07655 0
M  V30 15 C 0.402 0.516345 -1.22017 0
M  V30 16 C 0.219851 -0.876326 -1.75127 0
M  V30 17 C -2.06509 1.15707 -1.39249 0
M  V30 18 O -2.38917 0.0533275 -1.84558 0
M  V30 19 C -3.02317 2.25299 -1.15112 0
M  V30 20 S -4.68496 1.70511 -1.60615 0
M  V30 21 C -5.26517 0.417674 -0.527176 0
M  V30 22 N -5.0411 -0.883509 -0.796403 0
M  V30 23 C -5.46019 -1.88476 -0.0113235 0
M  V30 24 N -5.20079 -3.24015 -0.335603 0
M  V30 25 C -6.15631 -1.55703 1.12957 0
M  V30 26 C -6.415 -0.222879 1.45422 0
M  V30 27 N -5.95576 0.707514 0.60759 0
M  V30 28 N -7.13199 0.062353 2.63375 0
M  V30 29 H 6.02738 -3.74409 -0.519594 0
M  V30 30 H 3.79587 -2.64871 -0.377742 0
M  V30 31 H 5.59554 0.868793 1.17089 0
M  V30 32 H 7.7869 -0.218314 1.02708 0
M  V30 33 H 3.03598 0.437476 1.35847 0
M  V30 34 H 2.43695 -1.04709 0.598125 0
M  V30 35 H 2.88695 -0.276524 -1.63048 0
M  V30 36 H 3.56974 1.2664 -1.09368 0
M  V30 37 H 2.29411 4.26379 -0.589359 0
M  V30 38 H 3.16988 3.06298 0.378158 0
M  V30 39 H 1.69692 3.83057 1.02607 0
M  V30 40 H -0.662481 3.44145 -0.340818 0
M  V30 41 H -0.0971712 -0.78964 -2.81518 0
M  V30 42 H 1.19712 -1.4091 -1.77317 0
M  V30 43 H -0.532195 -1.43372 -1.15695 0
M  V30 44 H -2.76016 3.1622 -1.71245 0
M  V30 45 H -3.03197 2.54168 -0.0634691 0
M  V30 46 H -5.89895 -3.99897 -0.152312 0
M  V30 47 H -4.30145 -3.51794 -0.768155 0
M  V30 48 H -6.51226 -2.32653 1.78962 0
M  V30 49 H -6.64385 0.103136 3.54054 0
M  V30 50 H -8.14785 0.230485 2.58733 0
M  V30 END ATOM
M  V30 BEGIN BOND
M  V30 1 1 1 2
M  V30 2 2 2 3
M  V30 3 1 3 4
M  V30 4 2 4 5
M  V30 5 1 5 6
M  V30 6 2 6 7
M  V30 7 1 5 8
M  V30 8 1 8 9
M  V30 9 1 9 10
M  V30 10 1 10 11
M  V30 11 1 11 12
M  V30 12 2 11 13
M  V30 13 1 13 14
M  V30 14 2 14 15
M  V30 15 1 15 16
M  V30 16 1 14 17
M  V30 17 2 17 18
M  V30 18 1 17 19
M  V30 19 1 19 20
M  V30 20 1 20 21
M  V30 21 2 21 22
M  V30 22 1 22 23
M  V30 23 1 23 24
M  V30 24 2 23 25
M  V30 25 1 25 26
M  V30 26 2 26 27
M  V30 27 1 26 28
M  V30 28 1 7 2
M  V30 29 1 15 10
M  V30 30 1 27 21
M  V30 31 1 3 29
M  V30 32 1 4 30
M  V30 33 1 6 31
M  V30 34 1 7 32
M  V30 35 1 8 33
M  V30 36 1 8 34
M  V30 37 1 9 35
M  V30 38 1 9 36
M  V30 39 1 12 37
M  V30 40 1 12 38
M  V30 41 1 12 39
M  V30 42 1 13 40
M  V30 43 1 16 41
M  V30 44 1 16 42
M  V30 45 1 16 43
M  V30 46 1 19 44
M  V30 47 1 19 45
M  V30 48 1 24 46
M  V30 49 1 24 47
M  V30 50 1 25 48
M  V30 51 1 28 49
M  V30 52 1 28 50
M  V30 END BOND
M  V30 END CTAB
M  END
