
     RDKit          3D

  0  0  0  0  0  0  0  0  0  0999 V3000
M  V30 BEGIN CTAB
M  V30 COUNTS 23 23 0 0 0
M  V30 BEGIN ATOM
M  V30 1 Br 3.26948 1.84293 2.37864 0
M  V30 2 C 3.24667 0.826383 0.776437 0
M  V30 3 C 4.22852 0.826357 -0.105917 0
M  V30 4 C 2.05662 -0.0146064 0.503372 0
M  V30 5 N 0.904912 0.830693 0.438318 0
M  V30 6 C -0.362915 0.261397 0.186582 0
M  V30 7 C -1.5126 1.01646 0.110987 0
M  V30 8 C -2.69932 0.37135 -0.138126 0
M  V30 9 N -3.89734 1.13983 -0.219102 0
M  V30 10 N -2.72377 -0.972418 -0.303049 0
M  V30 11 C -1.60571 -1.69618 -0.228269 0
M  V30 12 N -0.456884 -1.0601 0.0142788 0
M  V30 13 N -1.58556 -3.11403 -0.395656 0
M  V30 14 H 4.21531 0.255078 -1.00597 0
M  V30 15 H 5.10554 1.44715 0.0969387 0
M  V30 16 H 1.93235 -0.811178 1.2787 0
M  V30 17 H 2.18621 -0.602291 -0.457291 0
M  V30 18 H 0.979975 1.84337 0.57079 0
M  V30 19 H -1.42113 2.08386 0.252413 0
M  V30 20 H -3.93949 2.09741 -0.591674 0
M  V30 21 H -4.77548 0.688222 0.12479 0
M  V30 22 H -1.45616 -3.47017 -1.38421 0
M  V30 23 H -1.68922 -3.78952 0.386838 0
M  V30 END ATOM
M  V30 BEGIN BOND
M  V30 1 1 1 2
M  V30 2 2 2 3 CFG=2
M  V30 3 1 2 4
M  V30 4 1 4 5
M  V30 5 1 5 6
M  V30 6 2 6 7
M  V30 7 1 7 8
M  V30 8 1 8 9
M  V30 9 2 8 10
M  V30 10 1 10 11
M  V30 11 2 11 12
M  V30 12 1 11 13
M  V30 13 1 12 6
M  V30 14 1 3 14
M  V30 15 1 3 15
M  V30 16 1 4 16
M  V30 17 1 4 17
M  V30 18 1 5 18
M  V30 19 1 7 19
M  V30 20 1 9 20
M  V30 21 1 9 21
M  V30 22 1 13 22
M  V30 23 1 13 23
M  V30 END BOND
M  V30 END CTAB
M  END
