
     RDKit          3D

  0  0  0  0  0  0  0  0  0  0999 V3000
M  V30 BEGIN CTAB
M  V30 COUNTS 39 41 0 0 0
M  V30 BEGIN ATOM
M  V30 1 N 6.32058 -1.74453 -0.770201 0
M  V30 2 C 5.01162 -1.17884 -1.12596 0
M  V30 3 C 4.252 -0.932028 0.154735 0
M  V30 4 S 4.77922 -1.23976 1.74502 0
M  V30 5 C 3.38752 -0.704284 2.5779 0
M  V30 6 C 2.56965 -0.306187 1.55157 0
M  V30 7 N 3.05067 -0.439924 0.33075 0
M  V30 8 C 1.21245 0.245263 1.83209 0
M  V30 9 O 0.835213 0.338042 3.00842 0
M  V30 10 N 0.355825 0.660094 0.797031 0
M  V30 11 C -0.958048 1.19874 0.981924 0
M  V30 12 C -1.103 2.61369 0.501431 0
M  V30 13 C -1.49598 2.76776 -0.912028 0
M  V30 14 C -1.69418 1.52156 -1.69201 0
M  V30 15 C -2.40442 0.480115 -0.908585 0
M  V30 16 C -2.02471 0.3372 0.409943 0
M  V30 17 C -2.69441 -0.641599 1.13863 0
M  V30 18 C -3.67676 -1.42215 0.581796 0
M  V30 19 C -4.03523 -1.26038 -0.729503 0
M  V30 20 C -3.3948 -0.302352 -1.48101 0
M  V30 21 N -5.04312 -2.04207 -1.34835 0
M  V30 22 H 7.04559 -1.40484 -1.422 0
M  V30 23 H 6.54448 -1.53141 0.227743 0
M  V30 24 H 5.16507 -0.233676 -1.64314 0
M  V30 25 H 4.47505 -1.94746 -1.70787 0
M  V30 26 H 3.19705 -0.684733 3.66844 0
M  V30 27 H 0.705943 0.567797 -0.182648 0
M  V30 28 H -1.14 1.21349 2.08785 0
M  V30 29 H -1.80974 3.14396 1.17191 0
M  V30 30 H -0.115839 3.12138 0.653708 0
M  V30 31 H -2.45634 3.35657 -0.972246 0
M  V30 32 H -0.763025 3.40781 -1.48677 0
M  V30 33 H -0.747935 1.09567 -2.09463 0
M  V30 34 H -2.32068 1.73871 -2.59696 0
M  V30 35 H -2.3857 -0.744996 2.1788 0
M  V30 36 H -4.16421 -2.16291 1.1825 0
M  V30 37 H -3.6835 -0.174252 -2.53166 0
M  V30 38 H -4.74704 -2.92747 -1.81164 0
M  V30 39 H -6.04922 -1.78338 -1.36499 0
M  V30 END ATOM
M  V30 BEGIN BOND
M  V30 1 1 1 2
M  V30 2 1 2 3
M  V30 3 1 3 4
M  V30 4 1 4 5
M  V30 5 2 5 6
M  V30 6 1 6 7
M  V30 7 1 6 8
M  V30 8 2 8 9
M  V30 9 1 8 10
M  V30 10 1 10 11
M  V30 11 1 11 12
M  V30 12 1 12 13
M  V30 13 1 13 14
M  V30 14 1 14 15
M  V30 15 2 15 16
M  V30 16 1 16 17
M  V30 17 2 17 18
M  V30 18 1 18 19
M  V30 19 2 19 20
M  V30 20 1 19 21
M  V30 21 2 7 3
M  V30 22 1 16 11
M  V30 23 1 20 15
M  V30 24 1 1 22
M  V30 25 1 1 23
M  V30 26 1 2 24
M  V30 27 1 2 25
M  V30 28 1 5 26
M  V30 29 1 10 27
M  V30 30 1 11 28
M  V30 31 1 12 29
M  V30 32 1 12 30
M  V30 33 1 13 31
M  V30 34 1 13 32
M  V30 35 1 14 33
M  V30 36 1 14 34
M  V30 37 1 17 35
M  V30 38 1 18 36
M  V30 39 1 20 37
M  V30 40 1 21 38
M  V30 41 1 21 39
M  V30 END BOND
M  V30 END CTAB
M  END
