
     RDKit          3D

  0  0  0  0  0  0  0  0  0  0999 V3000
M  V30 BEGIN CTAB
M  V30 COUNTS 44 47 0 0 0
M  V30 BEGIN ATOM
M  V30 1 N -4.93211 -2.4134 -0.0485328 0
M  V30 2 C -3.7781 -2.3986 0.0054585 0
M  V30 3 C -2.32802 -2.40698 0.0754697 0
M  V30 4 C -1.64701 -3.58906 0.198358 0
M  V30 5 N -2.37882 -4.7984 0.254016 0
M  V30 6 N -0.312179 -3.5277 0.259454 0
M  V30 7 C 0.342941 -2.3211 0.200753 0
M  V30 8 C -0.267646 -1.10116 0.07857 0
M  V30 9 C -1.67412 -1.19399 0.0157386 0
M  V30 10 C -2.48499 -0.00166869 -0.122672 0
M  V30 11 C -3.0396 0.60085 0.970641 0
M  V30 12 C -3.83658 1.70787 0.789043 0
M  V30 13 C -4.10708 2.24641 -0.453471 0
M  V30 14 C -3.53368 1.62006 -1.5571 0
M  V30 15 C -2.73927 0.514757 -1.36378 0
M  V30 16 C -4.97475 3.44257 -0.60573 0
M  V30 17 C 0.547197 -0.0111162 0.0394669 0
M  V30 18 N 0.0310223 1.3611 -0.0822491 0
M  V30 19 C 1.89551 -0.250292 0.126284 0
M  V30 20 S 2.00274 -1.93719 0.256818 0
M  V30 21 C 2.93295 0.772614 0.133933 0
M  V30 22 O 2.58993 1.98323 0.088678 0
M  V30 23 C 4.35187 0.513762 0.194923 0
M  V30 24 C 4.88164 -0.646417 -0.282073 0
M  V30 25 C 6.26063 -0.850263 -0.16628 0
M  V30 26 C 7.09097 0.0746025 0.407408 0
M  V30 27 C 6.5416 1.24498 0.884922 0
M  V30 28 C 5.19581 1.44799 0.774576 0
M  V30 29 Cl 8.83377 -0.214874 0.535839 0
M  V30 30 H -2.49149 -5.3453 -0.626684 0
M  V30 31 H -2.80156 -5.16269 1.11186 0
M  V30 32 H -2.88001 0.238789 2.00914 0
M  V30 33 H -4.28747 2.20093 1.66184 0
M  V30 34 H -3.74648 2.04534 -2.52661 0
M  V30 35 H -2.33216 0.0897749 -2.28975 0
M  V30 36 H -5.90251 3.20444 -1.17043 0
M  V30 37 H -4.43773 4.30164 -1.03601 0
M  V30 38 H -5.30266 3.74578 0.407848 0
M  V30 39 H 0.0428001 1.75669 -1.04488 0
M  V30 40 H -0.301228 1.90405 0.711434 0
M  V30 41 H 4.30629 -1.43264 -0.769382 0
M  V30 42 H 6.69074 -1.7752 -0.545812 0
M  V30 43 H 7.21597 1.97933 1.34278 0
M  V30 44 H 4.7629 2.38047 1.1562 0
M  V30 END ATOM
M  V30 BEGIN BOND
M  V30 1 3 1 2
M  V30 2 1 2 3
M  V30 3 2 3 4
M  V30 4 1 4 5
M  V30 5 1 4 6
M  V30 6 2 6 7
M  V30 7 1 7 8
M  V30 8 2 8 9
M  V30 9 1 9 10
M  V30 10 2 10 11
M  V30 11 1 11 12
M  V30 12 2 12 13
M  V30 13 1 13 14
M  V30 14 2 14 15
M  V30 15 1 13 16
M  V30 16 1 8 17
M  V30 17 1 17 18
M  V30 18 2 17 19
M  V30 19 1 19 20
M  V30 20 1 19 21
M  V30 21 2 21 22
M  V30 22 1 21 23
M  V30 23 2 23 24
M  V30 24 1 24 25
M  V30 25 2 25 26
M  V30 26 1 26 27
M  V30 27 2 27 28
M  V30 28 1 26 29
M  V30 29 1 9 3
M  V30 30 1 15 10
M  V30 31 1 28 23
M  V30 32 1 20 7
M  V30 33 1 5 30
M  V30 34 1 5 31
M  V30 35 1 11 32
M  V30 36 1 12 33
M  V30 37 1 14 34
M  V30 38 1 15 35
M  V30 39 1 16 36
M  V30 40 1 16 37
M  V30 41 1 16 38
M  V30 42 1 18 39
M  V30 43 1 18 40
M  V30 44 1 24 41
M  V30 45 1 25 42
M  V30 46 1 27 43
M  V30 47 1 28 44
M  V30 END BOND
M  V30 END CTAB
M  END
