
     RDKit          3D

  0  0  0  0  0  0  0  0  0  0999 V3000
M  V30 BEGIN CTAB
M  V30 COUNTS 32 33 0 0 0
M  V30 BEGIN ATOM
M  V30 1 C -5.82856 0.872166 -0.526769 0
M  V30 2 O -4.45549 1.05877 -0.805973 0
M  V30 3 C -3.47735 0.255746 -0.248187 0
M  V30 4 C -3.88027 -0.751011 0.603403 0
M  V30 5 C -2.97392 -1.59889 1.20416 0
M  V30 6 C -1.64137 -1.39877 0.917808 0
M  V30 7 C -1.21883 -0.381248 0.055686 0
M  V30 8 C -2.13633 0.456111 -0.535524 0
M  V30 9 O -1.80078 1.47727 -1.39246 0
M  V30 10 C 0.183284 -0.227177 -0.199903 0
M  V30 11 N 1.09033 -0.981867 0.325424 0
M  V30 12 N 2.4439 -0.781541 0.0369771 0
M  V30 13 C 3.05447 0.299668 0.450095 0
M  V30 14 C 4.46322 0.520084 0.156424 0
M  V30 15 N 5.19575 1.5662 0.514407 0
M  V30 16 O 6.42738 1.40709 0.0647872 0
M  V30 17 N 6.52418 0.282187 -0.580409 0
M  V30 18 C 5.29829 -0.317999 -0.548758 0
M  V30 19 N 4.93241 -1.55978 -1.12188 0
M  V30 20 N 2.26594 1.21652 1.18479 0
M  V30 21 H -6.34944 1.77724 -0.947125 0
M  V30 22 H -6.20896 -0.0615461 -0.938195 0
M  V30 23 H -5.96203 0.840685 0.585801 0
M  V30 24 H -4.93935 -0.907838 0.829188 0
M  V30 25 H -3.30033 -2.39538 1.8786 0
M  V30 26 H -0.884705 -2.02921 1.35678 0
M  V30 27 H -0.885096 1.73627 -1.68745 0
M  V30 28 H 0.532867 0.547071 -0.858487 0
M  V30 29 H 4.93141 -2.45896 -0.581076 0
M  V30 30 H 4.65313 -1.56176 -2.13209 0
M  V30 31 H 1.89456 2.08576 0.762506 0
M  V30 32 H 2.05168 1.01414 2.17744 0
M  V30 END ATOM
M  V30 BEGIN BOND
M  V30 1 1 1 2
M  V30 2 1 2 3
M  V30 3 2 3 4
M  V30 4 1 4 5
M  V30 5 2 5 6
M  V30 6 1 6 7
M  V30 7 2 7 8
M  V30 8 1 8 9
M  V30 9 1 7 10
M  V30 10 2 10 11
M  V30 11 1 11 12
M  V30 12 2 12 13
M  V30 13 1 13 14
M  V30 14 2 14 15
M  V30 15 1 15 16
M  V30 16 1 16 17
M  V30 17 2 17 18
M  V30 18 1 18 19
M  V30 19 1 13 20
M  V30 20 1 8 3
M  V30 21 1 18 14
M  V30 22 1 1 21
M  V30 23 1 1 22
M  V30 24 1 1 23
M  V30 25 1 4 24
M  V30 26 1 5 25
M  V30 27 1 6 26
M  V30 28 1 9 27
M  V30 29 1 10 28
M  V30 30 1 19 29
M  V30 31 1 19 30
M  V30 32 1 20 31
M  V30 33 1 20 32
M  V30 END BOND
M  V30 END CTAB
M  END
