
     RDKit          3D

  0  0  0  0  0  0  0  0  0  0999 V3000
M  V30 BEGIN CTAB
M  V30 COUNTS 18 18 0 0 0
M  V30 BEGIN ATOM
M  V30 1 N -3.01255 0.0908081 -1.19197 0
M  V30 2 C -1.79517 -0.482532 -0.732621 0
M  V30 3 N -1.74424 -1.75444 -0.674301 0
M  V30 4 C -0.673027 0.362068 -0.352213 0
M  V30 5 N -0.637314 1.70552 -0.381356 0
M  V30 6 N 0.567481 2.08371 0.0436341 0
M  V30 7 N 1.29784 1.02753 0.341541 0
M  V30 8 C 0.553995 -0.0553069 0.10576 0
M  V30 9 N 0.916029 -1.41695 0.279704 0
M  V30 10 C 2.65522 1.00281 0.834469 0
M  V30 11 H -3.6601 0.553491 -0.517651 0
M  V30 12 H -3.24095 0.0407347 -2.19631 0
M  V30 13 H -2.51195 -2.39083 -0.932696 0
M  V30 14 H 1.63685 -1.86109 -0.347828 0
M  V30 15 H 0.513069 -2.04186 1.00562 0
M  V30 16 H 3.24336 1.79569 0.294242 0
M  V30 17 H 3.16602 0.0509815 0.627281 0
M  V30 18 H 2.72544 1.28965 1.91172 0
M  V30 END ATOM
M  V30 BEGIN BOND
M  V30 1 1 1 2
M  V30 2 2 2 3 CFG=2
M  V30 3 1 2 4
M  V30 4 1 4 5
M  V30 5 2 5 6
M  V30 6 1 6 7
M  V30 7 1 7 8
M  V30 8 1 8 9
M  V30 9 1 7 10
M  V30 10 2 8 4
M  V30 11 1 1 11
M  V30 12 1 1 12
M  V30 13 1 3 13
M  V30 14 1 9 14
M  V30 15 1 9 15
M  V30 16 1 10 16
M  V30 17 1 10 17
M  V30 18 1 10 18
M  V30 END BOND
M  V30 END CTAB
M  END
