
     RDKit          3D

  0  0  0  0  0  0  0  0  0  0999 V3000
M  V30 BEGIN CTAB
M  V30 COUNTS 33 34 0 0 0
M  V30 BEGIN ATOM
M  V30 1 O 2.24725 -1.6822 -2.00595 0
M  V30 2 C 1.64564 -0.934922 -1.1612 0
M  V30 3 N 2.38434 -0.318477 -0.162695 0
M  V30 4 C 1.86079 0.544048 0.874832 0
M  V30 5 C 2.88503 0.993045 1.8746 0
M  V30 6 O 4.18215 0.987339 1.50447 0
M  V30 7 C 4.42433 0.816135 0.163586 0
M  V30 8 C 3.8524 -0.567738 -0.171294 0
M  V30 9 C 0.206286 -0.802367 -1.33765 0
M  V30 10 O -0.405288 0.0437918 -0.399692 0
M  V30 11 N -1.75751 0.273948 -0.430015 0
M  V30 12 C -2.63217 -0.571745 -0.00453709 0
M  V30 13 C -4.05457 -0.342488 -0.0306881 0
M  V30 14 N -4.99025 -1.2026 0.404522 0
M  V30 15 O -6.16564 -0.717305 0.25049 0
M  V30 16 N -6.05677 0.467068 -0.285418 0
M  V30 17 C -4.76528 0.753735 -0.483109 0
M  V30 18 N -4.13795 1.90164 -1.03055 0
M  V30 19 N -2.13866 -1.79581 0.516749 0
M  V30 20 H 1.05951 0.0197811 1.46704 0
M  V30 21 H 1.39344 1.42752 0.399213 0
M  V30 22 H 2.78925 0.405035 2.83579 0
M  V30 23 H 2.61948 2.0399 2.18303 0
M  V30 24 H 5.49507 0.822288 -0.0968906 0
M  V30 25 H 3.84373 1.54473 -0.425614 0
M  V30 26 H 4.0815 -1.30959 0.616355 0
M  V30 27 H 4.14169 -0.897761 -1.16408 0
M  V30 28 H -0.265677 -1.81399 -1.2885 0
M  V30 29 H -0.0200257 -0.326056 -2.34104 0
M  V30 30 H -3.43723 1.81336 -1.80149 0
M  V30 31 H -4.35649 2.86461 -0.681278 0
M  V30 32 H -1.67134 -1.77748 1.44223 0
M  V30 33 H -2.25706 -2.65744 -0.0320488 0
M  V30 END ATOM
M  V30 BEGIN BOND
M  V30 1 2 1 2
M  V30 2 1 2 3
M  V30 3 1 3 4
M  V30 4 1 4 5
M  V30 5 1 5 6
M  V30 6 1 6 7
M  V30 7 1 7 8
M  V30 8 1 2 9
M  V30 9 1 9 10
M  V30 10 1 10 11
M  V30 11 2 11 12
M  V30 12 1 12 13
M  V30 13 2 13 14
M  V30 14 1 14 15
M  V30 15 1 15 16
M  V30 16 2 16 17
M  V30 17 1 17 18
M  V30 18 1 12 19
M  V30 19 1 8 3
M  V30 20 1 17 13
M  V30 21 1 4 20
M  V30 22 1 4 21
M  V30 23 1 5 22
M  V30 24 1 5 23
M  V30 25 1 7 24
M  V30 26 1 7 25
M  V30 27 1 8 26
M  V30 28 1 8 27
M  V30 29 1 9 28
M  V30 30 1 9 29
M  V30 31 1 18 30
M  V30 32 1 18 31
M  V30 33 1 19 32
M  V30 34 1 19 33
M  V30 END BOND
M  V30 END CTAB
M  END
