
     RDKit          3D

  0  0  0  0  0  0  0  0  0  0999 V3000
M  V30 BEGIN CTAB
M  V30 COUNTS 41 44 0 0 0
M  V30 BEGIN ATOM
M  V30 1 N 6.94021 -0.395058 1.94314 0
M  V30 2 C 5.69994 -0.268911 1.26049 0
M  V30 3 N 5.41678 0.90454 0.606872 0
M  V30 4 C 4.2335 1.06021 -0.0139379 0
M  V30 5 N 3.82058 2.21989 -0.724261 0
M  V30 6 C 3.31565 -0.00703365 0.0335552 0
M  V30 7 C 2.09534 0.218397 -0.547297 0
M  V30 8 C 1.17864 -0.824125 -0.440594 0
M  V30 9 N -0.117869 -0.443664 -0.89674 0
M  V30 10 C -0.961201 0.144637 0.157116 0
M  V30 11 C -2.19068 0.702884 -0.417898 0
M  V30 12 C -3.382 0.0572432 -0.0878708 0
M  V30 13 C -3.3792 -1.10394 0.621311 0
M  V30 14 C -4.50049 -1.85661 0.896434 0
M  V30 15 C -5.71085 -1.37221 0.409336 0
M  V30 16 C -5.759 -0.215764 -0.294657 0
M  V30 17 C -4.57564 0.527059 -0.561994 0
M  V30 18 C -4.56034 1.65439 -1.33613 0
M  V30 19 C -3.37078 2.33785 -1.67825 0
M  V30 20 C -2.17516 1.80564 -1.1938 0
M  V30 21 C 1.44888 -1.98602 0.170675 0
M  V30 22 C 2.71505 -2.22231 0.788531 0
M  V30 23 C 3.59494 -1.16718 0.672424 0
M  V30 24 N 4.80336 -1.24305 1.26794 0
M  V30 25 H 7.49165 -1.25681 1.87232 0
M  V30 26 H 7.30597 0.398044 2.50816 0
M  V30 27 H 3.72553 3.13551 -0.24954 0
M  V30 28 H 3.5851 2.16881 -1.7444 0
M  V30 29 H 1.8603 1.11931 -1.06137 0
M  V30 30 H -0.455291 -0.552784 -1.82693 0
M  V30 31 H -0.3568 1.14624 0.448942 0
M  V30 32 H -0.938026 -0.400864 1.05914 0
M  V30 33 H -2.42794 -1.48519 0.983549 0
M  V30 34 H -4.49066 -2.75427 1.4564 0
M  V30 35 H -6.64007 -1.9299 0.579657 0
M  V30 36 H -6.64845 0.207426 -0.70278 0
M  V30 37 H -5.51817 2.01736 -1.68788 0
M  V30 38 H -3.40164 3.22494 -2.29072 0
M  V30 39 H -1.28196 2.37178 -1.48737 0
M  V30 40 H 0.691551 -2.79457 0.190049 0
M  V30 41 H 2.91923 -3.14188 1.26461 0
M  V30 END ATOM
M  V30 BEGIN BOND
M  V30 1 1 1 2
M  V30 2 2 2 3
M  V30 3 1 3 4
M  V30 4 1 4 5
M  V30 5 2 4 6
M  V30 6 1 6 7
M  V30 7 2 7 8
M  V30 8 1 8 9
M  V30 9 1 9 10
M  V30 10 1 10 11
M  V30 11 1 11 12
M  V30 12 2 12 13
M  V30 13 1 13 14
M  V30 14 2 14 15
M  V30 15 1 15 16
M  V30 16 2 16 17
M  V30 17 1 17 18
M  V30 18 2 18 19
M  V30 19 1 19 20
M  V30 20 1 8 21
M  V30 21 2 21 22
M  V30 22 1 22 23
M  V30 23 2 23 24
M  V30 24 1 24 2
M  V30 25 1 23 6
M  V30 26 2 20 11
M  V30 27 1 17 12
M  V30 28 1 1 25
M  V30 29 1 1 26
M  V30 30 1 5 27
M  V30 31 1 5 28
M  V30 32 1 7 29
M  V30 33 1 9 30
M  V30 34 1 10 31
M  V30 35 1 10 32
M  V30 36 1 13 33
M  V30 37 1 14 34
M  V30 38 1 15 35
M  V30 39 1 16 36
M  V30 40 1 18 37
M  V30 41 1 19 38
M  V30 42 1 20 39
M  V30 43 1 21 40
M  V30 44 1 22 41
M  V30 END BOND
M  V30 END CTAB
M  END
