
     RDKit          3D

  0  0  0  0  0  0  0  0  0  0999 V3000
M  V30 BEGIN CTAB
M  V30 COUNTS 31 32 0 0 0
M  V30 BEGIN ATOM
M  V30 1 C 1.52489 -1.56394 -0.617267 0
M  V30 2 C 1.2702 -0.0319186 -0.663714 0
M  V30 3 C 0.974858 0.310931 -2.11165 0
M  V30 4 N 2.4703 0.647959 -0.275905 0
M  V30 5 C 2.64431 1.3469 0.787604 0
M  V30 6 N 3.88497 1.98139 1.07912 0
M  V30 7 N 1.56814 1.52536 1.70651 0
M  V30 8 C 0.442274 0.975014 1.43235 0
M  V30 9 N -0.654073 1.14668 2.3578 0
M  V30 10 N 0.215669 0.225831 0.248125 0
M  V30 11 C -1.13153 -0.239232 0.0305783 0
M  V30 12 C -2.12081 0.49677 -0.565138 0
M  V30 13 Br -1.77429 2.26702 -1.11826 0
M  V30 14 C -3.40232 -0.0383166 -0.756565 0
M  V30 15 C -3.70099 -1.32022 -0.3493 0
M  V30 16 C -2.70423 -2.05426 0.248775 0
M  V30 17 C -1.43158 -1.517 0.436216 0
M  V30 18 H 1.67615 -1.89899 0.414065 0
M  V30 19 H 2.48665 -1.74615 -1.17666 0
M  V30 20 H 0.687136 -2.11083 -1.08309 0
M  V30 21 H 0.0283851 -0.0973556 -2.47926 0
M  V30 22 H 1.78288 -0.211066 -2.71448 0
M  V30 23 H 1.14226 1.38745 -2.30955 0
M  V30 24 H 4.22441 2.04537 2.05867 0
M  V30 25 H 4.45668 2.38297 0.317107 0
M  V30 26 H -1.13998 0.356755 2.79744 0
M  V30 27 H -0.912108 2.14893 2.54289 0
M  V30 28 H -4.1973 0.521414 -1.22353 0
M  V30 29 H -4.70841 -1.74217 -0.4993 0
M  V30 30 H -2.94525 -3.07427 0.572101 0
M  V30 31 H -0.657287 -2.12101 0.914331 0
M  V30 END ATOM
M  V30 BEGIN BOND
M  V30 1 1 1 2
M  V30 2 1 2 3
M  V30 3 1 2 4
M  V30 4 2 4 5
M  V30 5 1 5 6
M  V30 6 1 5 7
M  V30 7 2 7 8
M  V30 8 1 8 9
M  V30 9 1 8 10
M  V30 10 1 10 11
M  V30 11 2 11 12
M  V30 12 1 12 13
M  V30 13 1 12 14
M  V30 14 2 14 15
M  V30 15 1 15 16
M  V30 16 2 16 17
M  V30 17 1 10 2
M  V30 18 1 17 11
M  V30 19 1 1 18
M  V30 20 1 1 19
M  V30 21 1 1 20
M  V30 22 1 3 21
M  V30 23 1 3 22
M  V30 24 1 3 23
M  V30 25 1 6 24
M  V30 26 1 6 25
M  V30 27 1 9 26
M  V30 28 1 9 27
M  V30 29 1 14 28
M  V30 30 1 15 29
M  V30 31 1 16 30
M  V30 32 1 17 31
M  V30 END BOND
M  V30 END CTAB
M  END
