
     RDKit          3D

  0  0  0  0  0  0  0  0  0  0999 V3000
M  V30 BEGIN CTAB
M  V30 COUNTS 16 16 0 0 0
M  V30 BEGIN ATOM
M  V30 1 N 2.47254 -0.929687 0.162266 0
M  V30 2 C 1.21998 -0.257356 0.0714979 0
M  V30 3 C 1.16447 1.12196 0.00835588 0
M  V30 4 F 2.3259 1.82122 0.0345657 0
M  V30 5 C -0.0285728 1.81859 -0.0805273 0
M  V30 6 F -0.0811088 3.16275 -0.141987 0
M  V30 7 C -1.20629 1.07513 -0.105571 0
M  V30 8 Cl -2.76963 1.84193 -0.215593 0
M  V30 9 C -1.14913 -0.301416 -0.0424667 0
M  V30 10 N -2.36157 -1.04573 -0.0691222 0
M  V30 11 C 0.0449108 -0.969319 0.0452068 0
M  V30 12 F 0.0856462 -2.32062 0.106379 0
M  V30 13 H 2.49022 -1.96166 0.281001 0
M  V30 14 H 3.37003 -0.437135 0.115361 0
M  V30 15 H -2.92586 -1.18756 0.819709 0
M  V30 16 H -2.65153 -1.43111 -0.989075 0
M  V30 END ATOM
M  V30 BEGIN BOND
M  V30 1 1 1 2
M  V30 2 2 2 3
M  V30 3 1 3 4
M  V30 4 1 3 5
M  V30 5 1 5 6
M  V30 6 2 5 7
M  V30 7 1 7 8
M  V30 8 1 7 9
M  V30 9 1 9 10
M  V30 10 2 9 11
M  V30 11 1 11 12
M  V30 12 1 11 2
M  V30 13 1 1 13
M  V30 14 1 1 14
M  V30 15 1 10 15
M  V30 16 1 10 16
M  V30 END BOND
M  V30 END CTAB
M  END
