
     RDKit          3D

  0  0  0  0  0  0  0  0  0  0999 V3000
M  V30 BEGIN CTAB
M  V30 COUNTS 46 47 0 0 0
M  V30 BEGIN ATOM
M  V30 1 O -1.91009 -0.531144 2.5597 0
M  V30 2 C -1.69748 -0.528836 1.29243 0
M  V30 3 C -0.342519 -0.716271 0.854554 0
M  V30 4 C -0.103988 -1.88734 -0.0956498 0
M  V30 5 C 1.27965 -1.52734 -0.577444 0
M  V30 6 O 2.03253 -2.31331 -1.19446 0
M  V30 7 N 1.56304 -0.185856 -0.21662 0
M  V30 8 C 0.223827 0.405207 -0.0347017 0
M  V30 9 C 2.80275 0.446818 -0.0417484 0
M  V30 10 C 3.0093 1.41313 0.943509 0
M  V30 11 C 4.21535 2.03387 1.1373 0
M  V30 12 C 5.27555 1.703 0.335472 0
M  V30 13 C 5.13622 0.746719 -0.666429 0
M  V30 14 C 3.90721 0.15121 -0.822312 0
M  V30 15 S 6.52859 0.367762 -1.65371 0
M  V30 16 O 7.44091 1.55013 -1.80557 0
M  V30 17 O 6.08516 -0.0360907 -3.03628 0
M  V30 18 N 7.47598 -0.90998 -0.952847 0
M  V30 19 N -2.79566 -0.345135 0.444636 0
M  V30 20 C -4.10851 -0.172223 1.03789 0
M  V30 21 C -5.14345 -0.000819695 -0.0156779 0
M  V30 22 N -6.48023 0.167778 0.583279 0
M  V30 23 C -4.90057 1.17466 -0.912939 0
M  V30 24 C -5.22699 -1.25962 -0.854804 0
M  V30 25 H 0.369215 -0.870593 1.7206 0
M  V30 26 H -0.107211 -2.85623 0.431078 0
M  V30 27 H -0.766094 -1.80256 -0.95011 0
M  V30 28 H 0.231262 1.37127 0.450589 0
M  V30 29 H -0.267691 0.342755 -1.01913 0
M  V30 30 H 2.1864 1.66782 1.56217 0
M  V30 31 H 4.33778 2.76334 1.89728 0
M  V30 32 H 6.2427 2.17445 0.463017 0
M  V30 33 H 3.79231 -0.588978 -1.59464 0
M  V30 34 H 6.89001 -1.71435 -0.666571 0
M  V30 35 H 7.9311 -0.508855 -0.101203 0
M  V30 36 H -2.65207 -0.33308 -0.578581 0
M  V30 37 H -4.2879 -1.08586 1.6466 0
M  V30 38 H -4.15674 0.688964 1.73172 0
M  V30 39 H -7.01213 0.782419 -0.0566439 0
M  V30 40 H -6.39759 0.531339 1.55718 0
M  V30 41 H -4.34995 1.96219 -0.385298 0
M  V30 42 H -5.89513 1.61946 -1.1706 0
M  V30 43 H -4.44394 0.867049 -1.87693 0
M  V30 44 H -6.1696 -1.20251 -1.46198 0
M  V30 45 H -5.4018 -2.10443 -0.128178 0
M  V30 46 H -4.33951 -1.44993 -1.4572 0
M  V30 END ATOM
M  V30 BEGIN BOND
M  V30 1 2 1 2
M  V30 2 1 2 3
M  V30 3 1 3 4
M  V30 4 1 4 5
M  V30 5 2 5 6
M  V30 6 1 5 7
M  V30 7 1 7 8
M  V30 8 1 7 9
M  V30 9 2 9 10
M  V30 10 1 10 11
M  V30 11 2 11 12
M  V30 12 1 12 13
M  V30 13 2 13 14
M  V30 14 1 13 15
M  V30 15 2 15 16
M  V30 16 2 15 17
M  V30 17 1 15 18
M  V30 18 1 2 19
M  V30 19 1 19 20
M  V30 20 1 20 21
M  V30 21 1 21 22
M  V30 22 1 21 23
M  V30 23 1 21 24
M  V30 24 1 8 3
M  V30 25 1 14 9
M  V30 26 1 3 25
M  V30 27 1 4 26
M  V30 28 1 4 27
M  V30 29 1 8 28
M  V30 30 1 8 29
M  V30 31 1 10 30
M  V30 32 1 11 31
M  V30 33 1 12 32
M  V30 34 1 14 33
M  V30 35 1 18 34
M  V30 36 1 18 35
M  V30 37 1 19 36
M  V30 38 1 20 37
M  V30 39 1 20 38
M  V30 40 1 22 39
M  V30 41 1 22 40
M  V30 42 1 23 41
M  V30 43 1 23 42
M  V30 44 1 23 43
M  V30 45 1 24 44
M  V30 46 1 24 45
M  V30 47 1 24 46
M  V30 END BOND
M  V30 END CTAB
M  END
