
     RDKit          3D

  0  0  0  0  0  0  0  0  0  0999 V3000
M  V30 BEGIN CTAB
M  V30 COUNTS 23 24 0 0 0
M  V30 BEGIN ATOM
M  V30 1 N -1.41041 -0.00165354 -2.00563 0
M  V30 2 C -1.55189 -0.157666 -0.593557 0
M  V30 3 C -0.477867 0.608391 0.189239 0
M  V30 4 C -1.10502 0.562521 1.58358 0
M  V30 5 N -2.46656 0.936275 1.25584 0
M  V30 6 C -2.77792 0.488433 -0.0561219 0
M  V30 7 O -3.86675 0.601285 -0.669904 0
M  V30 8 C 0.823722 -0.0246538 0.128349 0
M  V30 9 N 1.97402 0.527751 -0.289008 0
M  V30 10 C 2.97799 -0.36414 -0.203999 0
M  V30 11 N 2.43186 -1.49931 0.279573 0
M  V30 12 N 1.12081 -1.28243 0.478473 0
M  V30 13 N 4.35632 -0.244039 -0.526927 0
M  V30 14 H -1.06561 -0.856344 -2.49648 0
M  V30 15 H -2.31128 0.349291 -2.39126 0
M  V30 16 H -1.56021 -1.22222 -0.265933 0
M  V30 17 H -0.524281 1.64335 -0.139348 0
M  V30 18 H -0.614289 1.29439 2.25184 0
M  V30 19 H -1.11913 -0.442872 2.00125 0
M  V30 20 H -3.10258 1.45294 1.8962 0
M  V30 21 H 0.449663 -1.98683 0.846916 0
M  V30 22 H 5.07313 0.0255103 0.209183 0
M  V30 23 H 4.74627 -0.407974 -1.48227 0
M  V30 END ATOM
M  V30 BEGIN BOND
M  V30 1 1 1 2
M  V30 2 1 2 3
M  V30 3 1 3 4
M  V30 4 1 4 5
M  V30 5 1 5 6
M  V30 6 2 6 7
M  V30 7 1 3 8
M  V30 8 2 8 9
M  V30 9 1 9 10
M  V30 10 2 10 11
M  V30 11 1 11 12
M  V30 12 1 10 13
M  V30 13 1 6 2
M  V30 14 1 12 8
M  V30 15 1 1 14
M  V30 16 1 1 15
M  V30 17 1 2 16
M  V30 18 1 3 17
M  V30 19 1 4 18
M  V30 20 1 4 19
M  V30 21 1 5 20
M  V30 22 1 12 21
M  V30 23 1 13 22
M  V30 24 1 13 23
M  V30 END BOND
M  V30 END CTAB
M  END
