
     RDKit          3D

  0  0  0  0  0  0  0  0  0  0999 V3000
M  V30 BEGIN CTAB
M  V30 COUNTS 20 20 0 0 0
M  V30 BEGIN ATOM
M  V30 1 C 3.73557 -0.499299 1.06622 0
M  V30 2 O 2.36626 -0.723764 0.813872 0
M  V30 3 C 1.56597 0.286101 0.294593 0
M  V30 4 O 2.08896 1.38993 0.0592651 0
M  V30 5 C 0.153303 0.000295167 0.0518936 0
M  V30 6 N -0.373099 -1.20721 0.320168 0
M  V30 7 C -1.68301 -1.46166 0.0916668 0
M  V30 8 F -2.15681 -2.69402 0.380558 0
M  V30 9 C -2.53314 -0.498326 -0.424294 0
M  V30 10 N -3.90726 -0.747722 -0.669701 0
M  V30 11 N -2.0038 0.708426 -0.691631 0
M  V30 12 C -0.686093 0.964387 -0.461768 0
M  V30 13 N -0.130421 2.23467 -0.743559 0
M  V30 14 H 4.26554 -0.66956 0.0997792 0
M  V30 15 H 4.07529 -1.31519 1.75311 0
M  V30 16 H 3.95632 0.466918 1.52434 0
M  V30 17 H -4.30181 -1.65926 -0.96822 0
M  V30 18 H -4.5705 0.0401294 -0.541521 0
M  V30 19 H 0.080853 2.87565 0.0407558 0
M  V30 20 H 0.0578643 2.5095 -1.71668 0
M  V30 END ATOM
M  V30 BEGIN BOND
M  V30 1 1 1 2
M  V30 2 1 2 3
M  V30 3 2 3 4
M  V30 4 1 3 5
M  V30 5 2 5 6
M  V30 6 1 6 7
M  V30 7 1 7 8
M  V30 8 2 7 9
M  V30 9 1 9 10
M  V30 10 1 9 11
M  V30 11 2 11 12
M  V30 12 1 12 13
M  V30 13 1 12 5
M  V30 14 1 1 14
M  V30 15 1 1 15
M  V30 16 1 1 16
M  V30 17 1 10 17
M  V30 18 1 10 18
M  V30 19 1 13 19
M  V30 20 1 13 20
M  V30 END BOND
M  V30 END CTAB
M  END
