
     RDKit          3D

  0  0  0  0  0  0  0  0  0  0999 V3000
M  V30 BEGIN CTAB
M  V30 COUNTS 35 37 0 0 0
M  V30 BEGIN ATOM
M  V30 1 N 2.72523 -1.99471 -1.81928 0
M  V30 2 C 2.95919 -0.974439 -0.853509 0
M  V30 3 N 1.95034 -0.142539 -0.479454 0
M  V30 4 C 2.13021 0.828344 0.424822 0
M  V30 5 N 3.34776 0.967885 0.965463 0
M  V30 6 C 4.3815 0.157943 0.619034 0
M  V30 7 N 4.15239 -0.792576 -0.284547 0
M  V30 8 N 5.64133 0.378153 1.24425 0
M  V30 9 C 1.04478 1.715 0.820035 0
M  V30 10 N -0.2063 1.42487 0.137226 0
M  V30 11 C -0.6836 1.9568 -1.09128 0
M  V30 12 O -0.0174054 2.79536 -1.7578 0
M  V30 13 N -1.95686 1.39776 -1.38927 0
M  V30 14 C -2.20525 0.36097 -0.445156 0
M  V30 15 C -1.19795 0.521425 0.610064 0
M  V30 16 O -1.20639 -0.0393543 1.73563 0
M  V30 17 C -2.22604 -1.02438 -1.04506 0
M  V30 18 C -2.79604 -1.84704 0.063684 0
M  V30 19 C -3.7604 -0.937295 0.756674 0
M  V30 20 C -3.57298 0.445354 0.19316 0
M  V30 21 H 3.50105 -2.5658 -2.16811 0
M  V30 22 H 1.76118 -2.15148 -2.16396 0
M  V30 23 H 6.35253 0.915376 0.710975 0
M  V30 24 H 5.77826 -0.00522451 2.1864 0
M  V30 25 H 0.857171 1.59223 1.90677 0
M  V30 26 H 1.30016 2.79981 0.68932 0
M  V30 27 H -2.55891 1.72908 -2.17368 0
M  V30 28 H -1.19177 -1.29104 -1.30996 0
M  V30 29 H -2.8906 -0.981869 -1.93129 0
M  V30 30 H -1.94332 -2.16732 0.72937 0
M  V30 31 H -3.27492 -2.78936 -0.268559 0
M  V30 32 H -4.81796 -1.27677 0.634478 0
M  V30 33 H -3.52997 -0.950173 1.83702 0
M  V30 34 H -4.35404 0.743981 -0.508182 0
M  V30 35 H -3.49239 1.20106 1.0081 0
M  V30 END ATOM
M  V30 BEGIN BOND
M  V30 1 1 1 2
M  V30 2 2 2 3
M  V30 3 1 3 4
M  V30 4 2 4 5
M  V30 5 1 5 6
M  V30 6 2 6 7
M  V30 7 1 6 8
M  V30 8 1 4 9
M  V30 9 1 9 10
M  V30 10 1 10 11
M  V30 11 2 11 12
M  V30 12 1 11 13
M  V30 13 1 13 14
M  V30 14 1 14 15
M  V30 15 2 15 16
M  V30 16 1 14 17
M  V30 17 1 17 18
M  V30 18 1 18 19
M  V30 19 1 19 20
M  V30 20 1 7 2
M  V30 21 1 15 10
M  V30 22 1 20 14
M  V30 23 1 1 21
M  V30 24 1 1 22
M  V30 25 1 8 23
M  V30 26 1 8 24
M  V30 27 1 9 25
M  V30 28 1 9 26
M  V30 29 1 13 27
M  V30 30 1 17 28
M  V30 31 1 17 29
M  V30 32 1 18 30
M  V30 33 1 18 31
M  V30 34 1 19 32
M  V30 35 1 19 33
M  V30 36 1 20 34
M  V30 37 1 20 35
M  V30 END BOND
M  V30 END CTAB
M  END
