
     RDKit          3D

  0  0  0  0  0  0  0  0  0  0999 V3000
M  V30 BEGIN CTAB
M  V30 COUNTS 155 155 0 0 0
M  V30 BEGIN ATOM
M  V30 1 C -12.2506 -0.164008 -3.88541 0
M  V30 2 C -12.3785 -0.159608 -2.35261 0
M  V30 3 C -12.4547 -1.61876 -1.95507 0
M  V30 4 C -11.1445 0.473164 -1.72129 0
M  V30 5 C -11.2021 0.512023 -0.240354 0 CFG=2
M  V30 6 N -12.3508 1.28766 0.282182 0
M  V30 7 C -13.0411 0.785015 1.41562 0
M  V30 8 O -12.6816 -0.277663 1.93448 0
M  V30 9 C -14.185 1.54791 1.96244 0
M  V30 10 N -14.74 0.950824 3.15982 0
M  V30 11 C -13.8875 0.854944 4.3092 0
M  V30 12 O -12.7323 1.29954 4.25621 0
M  V30 13 C -14.3642 0.228605 5.56718 0
M  V30 14 N -13.2814 0.27525 6.54936 0
M  V30 15 C -9.92446 1.33515 0.181266 0
M  V30 16 O -10.1923 2.55566 -0.0352249 0
M  V30 17 N -8.85408 0.788183 0.655119 0
M  V30 18 C -7.63959 0.188822 1.19085 0 CFG=1
M  V30 19 C -7.95851 -1.10211 1.89914 0
M  V30 20 C -8.91146 -0.840334 3.05522 0
M  V30 21 C -6.73824 -1.77852 2.44276 0
M  V30 22 C -6.68008 -0.104845 0.0519134 0
M  V30 23 O -7.19948 -0.662499 -0.929521 0
M  V30 24 N -5.33931 0.230128 0.100895 0
M  V30 25 C -4.28735 0.0803045 -0.845615 0 CFG=1
M  V30 26 C -3.87459 1.47076 -1.31895 0
M  V30 27 C -4.86341 2.29165 -2.02189 0
M  V30 28 C -5.33456 2.05524 -3.37575 0
M  V30 29 N -5.97121 0.886049 -3.83151 0
M  V30 30 C -6.49795 0.865065 -5.18784 0
M  V30 31 N -5.88643 1.53263 -6.24747 0
M  V30 32 N -7.58325 0.213146 -5.37548 0
M  V30 33 C -3.05161 -0.573688 -0.279265 0
M  V30 34 O -2.93958 -0.998989 0.874847 0
M  V30 35 N -1.97377 -0.682682 -1.18785 0
M  V30 36 C -0.683658 -1.26385 -0.885388 0 CFG=1
M  V30 37 C -0.387715 -2.37817 -1.90654 0
M  V30 38 O 0.838019 -2.9653 -1.66037 0
M  V30 39 C 0.415234 -0.283158 -1.06871 0
M  V30 40 O 0.136064 0.795267 -1.63626 0
M  V30 41 N 1.73663 -0.525257 -0.630566 0
M  V30 42 C 2.80977 0.491854 -0.853441 0 CFG=1
M  V30 43 C 2.70248 1.3863 0.383282 0
M  V30 44 C 3.66596 2.52669 0.423179 0
M  V30 45 C 2.70293 0.525847 1.64558 0
M  V30 46 C 4.0555 -0.194281 -1.03688 0
M  V30 47 O 4.03734 -1.49301 -0.852842 0
M  V30 48 N 5.32752 0.299503 -1.39258 0
M  V30 49 C 6.47915 -0.627269 -1.50968 0 CFG=1
M  V30 50 C 6.7856 -0.757581 -3.00189 0
M  V30 51 C 7.63179 -0.0712343 -0.769517 0
M  V30 52 O 7.56249 1.17007 -0.448299 0
M  V30 53 N 8.76457 -0.82354 -0.401979 0
M  V30 54 C 9.89419 -0.346738 0.346902 0 CFG=1
M  V30 55 C 9.78279 -0.821397 1.80312 0
M  V30 56 C 8.51533 -0.300731 2.41294 0
M  V30 57 C 8.39035 0.922396 3.04952 0
M  V30 58 N 7.13754 1.08867 3.47676 0
M  V30 59 C 6.45023 -0.0431552 3.11878 0
M  V30 60 N 7.31822 -0.866586 2.47246 0
M  V30 61 C 11.1721 -0.807086 -0.272379 0
M  V30 62 O 11.0868 -1.26358 -1.46198 0
M  V30 63 N 12.359 -0.750351 0.401027 0
M  V30 64 C 13.7236 -1.01718 0.348282 0 CFG=1
M  V30 65 C 13.9461 -2.27976 -0.526317 0
M  V30 66 C 13.2564 -3.47707 0.0416386 0
M  V30 67 C 13.6932 -3.91435 1.37125 0
M  V30 68 O 14.8438 -3.49056 1.98071 0
M  V30 69 O 12.9494 -4.7556 2.00802 0
M  V30 70 C 14.5309 0.0793925 -0.26638 0
M  V30 71 O 14.2419 0.579247 -1.38149 0
M  V30 72 N 15.6629 0.587628 0.428437 0
M  V30 73 C 16.5198 1.60523 -0.0864547 0 CFG=1
M  V30 74 C 15.7477 2.95108 -0.196731 0
M  V30 75 C 17.6914 1.88107 0.788428 0
M  V30 76 O 18.5961 2.88746 0.561752 0
M  V30 77 O 17.7841 1.09032 1.79169 0
M  V30 78 H -11.7584 -1.13182 -4.19063 0
M  V30 79 H -13.226 -0.150699 -4.36036 0
M  V30 80 H -11.5589 0.621255 -4.23986 0
M  V30 81 H -13.3173 0.401176 -2.08828 0
M  V30 82 H -12.3555 -1.68409 -0.839263 0
M  V30 83 H -13.4008 -2.09004 -2.28265 0
M  V30 84 H -11.5901 -2.14985 -2.37799 0
M  V30 85 H -10.2425 -0.0661474 -2.05654 0
M  V30 86 H -11.0707 1.4847 -2.18975 0
M  V30 87 H -11.1735 -0.446296 0.226397 0
M  V30 88 H -12.6658 2.16953 -0.154818 0
M  V30 89 H -14.9276 1.70854 1.18387 0
M  V30 90 H -13.7255 2.5223 2.32588 0
M  V30 91 H -15.7007 0.574769 3.24322 0
M  V30 92 H -15.2047 0.842929 5.99507 0
M  V30 93 H -14.6758 -0.809718 5.43825 0
M  V30 94 H -13.7442 0.0628352 7.48429 0
M  V30 95 H -12.6607 -0.583624 6.40484 0
M  V30 96 H -8.2056 1.98622 0.669615 0
M  V30 97 H -7.13393 0.860348 1.88274 0
M  V30 98 H -8.48571 -1.77917 1.15027 0
M  V30 99 H -9.67151 -0.117404 2.63575 0
M  V30 100 H -8.41042 -0.445071 3.931 0
M  V30 101 H -9.44656 -1.80958 3.21964 0
M  V30 102 H -6.49163 -2.65423 1.77087 0
M  V30 103 H -5.83468 -1.13917 2.36389 0
M  V30 104 H -6.94985 -2.15299 3.4418 0
M  V30 105 H -5.01469 0.680426 1.02771 0
M  V30 106 H -4.60534 -0.512988 -1.69402 0
M  V30 107 H -2.93739 1.43311 -1.91811 0
M  V30 108 H -3.56057 2.03509 -0.386828 0
M  V30 109 H -5.8229 2.26337 -1.34795 0
M  V30 110 H -4.59063 3.39653 -1.85815 0
M  V30 111 H -4.54481 2.35473 -4.15728 0
M  V30 112 H -6.12687 2.89226 -3.57805 0
M  V30 113 H -6.11022 0.0166207 -3.30989 0
M  V30 114 H -6.29159 2.46352 -6.53058 0
M  V30 115 H -5.06171 1.07492 -6.71833 0
M  V30 116 H -8.05818 -0.282834 -4.57876 0
M  V30 117 H -2.0669 -0.347155 -2.18637 0
M  V30 118 H -0.625888 -1.69828 0.117721 0
M  V30 119 H -0.489571 -1.95993 -2.91396 0
M  V30 120 H -1.18158 -3.1332 -1.75729 0
M  V30 121 H 0.70345 -3.95934 -1.64315 0
M  V30 122 H 1.99593 -1.39884 -0.142904 0
M  V30 123 H 2.5391 1.12622 -1.70564 0
M  V30 124 H 1.65973 1.81664 0.354519 0
M  V30 125 H 3.11073 3.49056 0.660271 0
M  V30 126 H 4.33164 2.38795 1.31765 0
M  V30 127 H 4.18606 2.7591 -0.497875 0
M  V30 128 H 1.79765 -0.104238 1.65885 0
M  V30 129 H 3.63043 -0.0916823 1.65625 0
M  V30 130 H 2.66956 1.16145 2.55669 0
M  V30 131 H 5.56752 1.29113 -1.59089 0
M  V30 132 H 6.18534 -1.627 -1.14514 0
M  V30 133 H 7.72875 -0.231501 -3.22515 0
M  V30 134 H 5.93418 -0.372739 -3.60321 0
M  V30 135 H 6.91503 -1.8435 -3.28695 0
M  V30 136 H 8.80866 -1.84084 -0.702723 0
M  V30 137 H 9.83388 0.763995 0.426615 0
M  V30 138 H 9.78207 -1.9138 1.84516 0
M  V30 139 H 10.6124 -0.390156 2.37407 0
M  V30 140 H 9.18202 1.66079 3.19734 0
M  V30 141 H 5.4106 -0.184396 3.34871 0
M  V30 142 H 7.01657 -1.80009 2.09198 0
M  V30 143 H 12.1584 -0.278502 1.44105 0
M  V30 144 H 14.1687 -1.26741 1.33312 0
M  V30 145 H 13.5585 -2.12014 -1.53432 0
M  V30 146 H 15.046 -2.46017 -0.653553 0
M  V30 147 H 13.3432 -4.31639 -0.695554 0
M  V30 148 H 12.1613 -3.25498 0.128308 0
M  V30 149 H 15.1366 -3.8755 2.86623 0
M  V30 150 H 15.9102 0.218413 1.3784 0
M  V30 151 H 16.8532 1.419 -1.13497 0
M  V30 152 H 16.5341 3.74799 -0.165554 0
M  V30 153 H 15.1359 3.02315 0.715667 0
M  V30 154 H 15.1517 2.97101 -1.14351 0
M  V30 155 H 18.4803 3.80492 1.01859 0
M  V30 END ATOM
M  V30 BEGIN BOND
M  V30 1 1 1 2
M  V30 2 1 2 3
M  V30 3 1 2 4
M  V30 4 1 4 5
M  V30 5 1 5 6
M  V30 6 1 6 7
M  V30 7 2 7 8
M  V30 8 1 7 9
M  V30 9 1 9 10
M  V30 10 1 10 11
M  V30 11 2 11 12
M  V30 12 1 11 13
M  V30 13 1 13 14
M  V30 14 1 5 15
M  V30 15 2 15 16
M  V30 16 1 15 17
M  V30 17 1 17 18
M  V30 18 1 18 19
M  V30 19 1 19 20
M  V30 20 1 19 21
M  V30 21 1 18 22
M  V30 22 2 22 23
M  V30 23 1 22 24
M  V30 24 1 24 25
M  V30 25 1 25 26
M  V30 26 1 26 27
M  V30 27 1 27 28
M  V30 28 1 28 29
M  V30 29 1 29 30
M  V30 30 1 30 31
M  V30 31 2 30 32 CFG=2
M  V30 32 1 25 33
M  V30 33 2 33 34
M  V30 34 1 33 35
M  V30 35 1 35 36
M  V30 36 1 36 37
M  V30 37 1 37 38
M  V30 38 1 36 39
M  V30 39 2 39 40
M  V30 40 1 39 41
M  V30 41 1 41 42
M  V30 42 1 42 43
M  V30 43 1 43 44
M  V30 44 1 43 45
M  V30 45 1 42 46
M  V30 46 2 46 47
M  V30 47 1 46 48
M  V30 48 1 48 49
M  V30 49 1 49 50
M  V30 50 1 49 51
M  V30 51 2 51 52
M  V30 52 1 51 53
M  V30 53 1 53 54
M  V30 54 1 54 55
M  V30 55 1 55 56
M  V30 56 2 56 57
M  V30 57 1 57 58
M  V30 58 2 58 59
M  V30 59 1 59 60
M  V30 60 1 54 61
M  V30 61 2 61 62
M  V30 62 1 61 63
M  V30 63 1 63 64
M  V30 64 1 64 65
M  V30 65 1 65 66
M  V30 66 1 66 67
M  V30 67 1 67 68
M  V30 68 2 67 69
M  V30 69 1 64 70
M  V30 70 2 70 71
M  V30 71 1 70 72
M  V30 72 1 72 73
M  V30 73 1 73 74
M  V30 74 1 73 75
M  V30 75 1 75 76
M  V30 76 2 75 77
M  V30 77 1 60 56
M  V30 78 1 1 78
M  V30 79 1 1 79
M  V30 80 1 1 80
M  V30 81 1 2 81
M  V30 82 1 3 82
M  V30 83 1 3 83
M  V30 84 1 3 84
M  V30 85 1 4 85
M  V30 86 1 4 86
M  V30 87 1 5 87 CFG=1
M  V30 88 1 6 88
M  V30 89 1 9 89
M  V30 90 1 9 90
M  V30 91 1 10 91
M  V30 92 1 13 92
M  V30 93 1 13 93
M  V30 94 1 14 94
M  V30 95 1 14 95
M  V30 96 1 17 96
M  V30 97 1 18 97 CFG=1
M  V30 98 1 19 98
M  V30 99 1 20 99
M  V30 100 1 20 100
M  V30 101 1 20 101
M  V30 102 1 21 102
M  V30 103 1 21 103
M  V30 104 1 21 104
M  V30 105 1 24 105
M  V30 106 1 25 106 CFG=3
M  V30 107 1 26 107
M  V30 108 1 26 108
M  V30 109 1 27 109
M  V30 110 1 27 110
M  V30 111 1 28 111
M  V30 112 1 28 112
M  V30 113 1 29 113
M  V30 114 1 31 114
M  V30 115 1 31 115
M  V30 116 1 32 116
M  V30 117 1 35 117
M  V30 118 1 36 118 CFG=1
M  V30 119 1 37 119
M  V30 120 1 37 120
M  V30 121 1 38 121
M  V30 122 1 41 122
M  V30 123 1 42 123 CFG=3
M  V30 124 1 43 124
M  V30 125 1 44 125
M  V30 126 1 44 126
M  V30 127 1 44 127
M  V30 128 1 45 128
M  V30 129 1 45 129
M  V30 130 1 45 130
M  V30 131 1 48 131
M  V30 132 1 49 132 CFG=1
M  V30 133 1 50 133
M  V30 134 1 50 134
M  V30 135 1 50 135
M  V30 136 1 53 136
M  V30 137 1 54 137 CFG=1
M  V30 138 1 55 138
M  V30 139 1 55 139
M  V30 140 1 57 140
M  V30 141 1 59 141
M  V30 142 1 60 142
M  V30 143 1 63 143
M  V30 144 1 64 144 CFG=1
M  V30 145 1 65 145
M  V30 146 1 65 146
M  V30 147 1 66 147
M  V30 148 1 66 148
M  V30 149 1 68 149
M  V30 150 1 72 150
M  V30 151 1 73 151 CFG=3
M  V30 152 1 74 152
M  V30 153 1 74 153
M  V30 154 1 74 154
M  V30 155 1 76 155
M  V30 END BOND
M  V30 END CTAB
M  END
