
     RDKit          3D

  0  0  0  0  0  0  0  0  0  0999 V3000
M  V30 BEGIN CTAB
M  V30 COUNTS 30 29 0 0 0
M  V30 BEGIN ATOM
M  V30 1 N 2.04116 0.537137 -0.654094 0
M  V30 2 C 2.46277 -0.810431 -0.605135 0
M  V30 3 N 3.51408 -1.17362 0.048142 0
M  V30 4 C 4.33526 -0.252535 0.771167 0
M  V30 5 N 3.84292 0.459455 1.7172 0
M  V30 6 N 5.72143 -0.117576 0.445585 0
M  V30 7 S 1.47084 -2.00818 -1.50316 0
M  V30 8 C 0.0564785 -1.21702 -2.30316 0
M  V30 9 C -0.914325 -0.7073 -1.32862 0
M  V30 10 C -1.73263 -0.301511 -0.533246 0
M  V30 11 C -2.74877 0.192626 0.416079 0
M  V30 12 C -2.22773 1.36091 1.22367 0
M  V30 13 C -3.17307 -0.93589 1.30462 0
M  V30 14 C -4.00146 0.656533 -0.325012 0
M  V30 15 H 2.24396 1.09495 -1.49988 0
M  V30 16 H 1.5407 0.938112 0.152341 0
M  V30 17 H 4.45653 1.1236 2.23136 0
M  V30 18 H 6.0157 0.623213 -0.216132 0
M  V30 19 H 6.37593 -0.784932 0.899909 0
M  V30 20 H 0.480516 -0.37881 -2.91767 0
M  V30 21 H -0.425435 -1.91435 -3.00185 0
M  V30 22 H -1.37044 1.0326 1.85332 0
M  V30 23 H -1.83942 2.09713 0.486199 0
M  V30 24 H -3.08223 1.74092 1.81483 0
M  V30 25 H -3.64873 -1.72837 0.666568 0
M  V30 26 H -4.03314 -0.542248 1.92297 0
M  V30 27 H -2.40298 -1.34479 1.95367 0
M  V30 28 H -3.75609 1.10193 -1.30928 0
M  V30 29 H -4.48643 1.46592 0.275506 0
M  V30 30 H -4.71538 -0.207482 -0.439466 0
M  V30 END ATOM
M  V30 BEGIN BOND
M  V30 1 1 1 2
M  V30 2 2 2 3 CFG=2
M  V30 3 1 3 4
M  V30 4 2 4 5 CFG=2
M  V30 5 1 4 6
M  V30 6 1 2 7
M  V30 7 1 7 8
M  V30 8 1 8 9
M  V30 9 3 9 10
M  V30 10 1 10 11
M  V30 11 1 11 12
M  V30 12 1 11 13
M  V30 13 1 11 14
M  V30 14 1 1 15
M  V30 15 1 1 16
M  V30 16 1 5 17
M  V30 17 1 6 18
M  V30 18 1 6 19
M  V30 19 1 8 20
M  V30 20 1 8 21
M  V30 21 1 12 22
M  V30 22 1 12 23
M  V30 23 1 12 24
M  V30 24 1 13 25
M  V30 25 1 13 26
M  V30 26 1 13 27
M  V30 27 1 14 28
M  V30 28 1 14 29
M  V30 29 1 14 30
M  V30 END BOND
M  V30 END CTAB
M  END
