
     RDKit          3D

  0  0  0  0  0  0  0  0  0  0999 V3000
M  V30 BEGIN CTAB
M  V30 COUNTS 48 48 0 0 0
M  V30 BEGIN ATOM
M  V30 1 C 3.8196 3.55556 0.0958503 0
M  V30 2 C 4.02269 2.24245 0.841583 0
M  V30 3 C 3.08318 1.23707 0.166056 0
M  V30 4 C 3.21799 -0.101505 0.844098 0
M  V30 5 O 2.43122 -1.0806 0.326881 0
M  V30 6 C 1.11494 -1.32512 0.193075 0
M  V30 7 C 0.0975574 -0.494182 0.648565 0
M  V30 8 C -1.24542 -0.773501 0.497337 0
M  V30 9 O -2.26189 -0.00420332 0.918948 0
M  V30 10 C -2.39202 1.18592 1.5631 0
M  V30 11 C -1.82657 2.40986 0.903431 0
M  V30 12 C -2.44723 2.67263 -0.452068 0
M  V30 13 C -3.9357 2.8742 -0.300885 0
M  V30 14 C -1.54878 -1.96377 -0.151821 0
M  V30 15 C -2.95589 -2.32466 -0.347199 0
M  V30 16 N -3.07215 -3.59515 -1.04038 0
M  V30 17 C -0.556611 -2.80453 -0.611694 0
M  V30 18 C 0.769023 -2.51829 -0.457346 0
M  V30 19 C 1.8305 -3.43713 -0.960055 0
M  V30 20 N 1.27263 -4.59784 -1.59246 0
M  V30 21 H 4.38386 3.50851 -0.850474 0
M  V30 22 H 4.163 4.39169 0.759421 0
M  V30 23 H 2.72832 3.66451 -0.14273 0
M  V30 24 H 3.71974 2.41893 1.8811 0
M  V30 25 H 5.07378 1.91848 0.790803 0
M  V30 26 H 3.40002 1.08232 -0.891552 0
M  V30 27 H 2.06343 1.60194 0.259799 0
M  V30 28 H 4.32852 -0.337429 0.780137 0
M  V30 29 H 2.9786 0.0188526 1.93377 0
M  V30 30 H 0.34717 0.420436 1.17277 0
M  V30 31 H -3.50092 1.39315 1.6769 0
M  V30 32 H -2.02299 1.21422 2.61247 0
M  V30 33 H -0.745407 2.48785 0.931675 0
M  V30 34 H -2.19304 3.27136 1.54604 0
M  V30 35 H -2.25749 1.82515 -1.12502 0
M  V30 36 H -2.02603 3.62591 -0.833443 0
M  V30 37 H -4.49115 1.96238 -0.597457 0
M  V30 38 H -4.20387 3.11566 0.758828 0
M  V30 39 H -4.30141 3.7181 -0.914479 0
M  V30 40 H -3.54542 -1.57549 -0.900548 0
M  V30 41 H -3.38633 -2.51342 0.680115 0
M  V30 42 H -2.74184 -4.3956 -0.493634 0
M  V30 43 H -4.09808 -3.68996 -1.2839 0
M  V30 44 H -0.811665 -3.74405 -1.12376 0
M  V30 45 H 2.52367 -2.93474 -1.64887 0
M  V30 46 H 2.41258 -3.78184 -0.0798069 0
M  V30 47 H 0.889192 -4.40965 -2.52999 0
M  V30 48 H 1.89669 -5.41444 -1.59784 0
M  V30 END ATOM
M  V30 BEGIN BOND
M  V30 1 1 1 2
M  V30 2 1 2 3
M  V30 3 1 3 4
M  V30 4 1 4 5
M  V30 5 1 5 6
M  V30 6 2 6 7
M  V30 7 1 7 8
M  V30 8 1 8 9
M  V30 9 1 9 10
M  V30 10 1 10 11
M  V30 11 1 11 12
M  V30 12 1 12 13
M  V30 13 2 8 14
M  V30 14 1 14 15
M  V30 15 1 15 16
M  V30 16 1 14 17
M  V30 17 2 17 18
M  V30 18 1 18 19
M  V30 19 1 19 20
M  V30 20 1 18 6
M  V30 21 1 1 21
M  V30 22 1 1 22
M  V30 23 1 1 23
M  V30 24 1 2 24
M  V30 25 1 2 25
M  V30 26 1 3 26
M  V30 27 1 3 27
M  V30 28 1 4 28
M  V30 29 1 4 29
M  V30 30 1 7 30
M  V30 31 1 10 31
M  V30 32 1 10 32
M  V30 33 1 11 33
M  V30 34 1 11 34
M  V30 35 1 12 35
M  V30 36 1 12 36
M  V30 37 1 13 37
M  V30 38 1 13 38
M  V30 39 1 13 39
M  V30 40 1 15 40
M  V30 41 1 15 41
M  V30 42 1 16 42
M  V30 43 1 16 43
M  V30 44 1 17 44
M  V30 45 1 19 45
M  V30 46 1 19 46
M  V30 47 1 20 47
M  V30 48 1 20 48
M  V30 END BOND
M  V30 END CTAB
M  END
