
     RDKit          3D

  0  0  0  0  0  0  0  0  0  0999 V3000
M  V30 BEGIN CTAB
M  V30 COUNTS 25 24 0 0 0
M  V30 BEGIN ATOM
M  V30 1 O -2.03714 1.15586 1.59544 0
M  V30 2 C -0.877273 1.50276 0.930375 0
M  V30 3 C -0.0577652 0.306739 0.516212 0
M  V30 4 C -0.808212 -0.656598 -0.354622 0
M  V30 5 C -1.28945 -0.0284904 -1.639 0
M  V30 6 C -1.9713 -1.30539 0.324119 0
M  V30 7 N 1.12257 0.743798 -0.163851 0
M  V30 8 C 2.23831 0.0977579 -0.196332 0
M  V30 9 N 3.30391 0.687223 -0.922601 0
M  V30 10 N 2.40974 -1.1493 0.460117 0
M  V30 11 H -2.16249 1.66522 2.44661 0
M  V30 12 H -0.245616 2.06685 1.66413 0
M  V30 13 H -1.04426 2.20225 0.0857888 0
M  V30 14 H 0.202125 -0.233703 1.45299 0
M  V30 15 H -0.091208 -1.45684 -0.635619 0
M  V30 16 H -1.9733 -0.757743 -2.1242 0
M  V30 17 H -0.456293 0.130767 -2.36348 0
M  V30 18 H -1.86705 0.893971 -1.47446 0
M  V30 19 H -2.17038 -2.26966 -0.221685 0
M  V30 20 H -1.72079 -1.46515 1.37926 0
M  V30 21 H -2.88151 -0.684246 0.178828 0
M  V30 22 H 3.91253 1.37982 -0.444259 0
M  V30 23 H 3.48315 0.445704 -1.89962 0
M  V30 24 H 1.80498 -1.478 1.23945 0
M  V30 25 H 3.17671 -1.79361 0.166418 0
M  V30 END ATOM
M  V30 BEGIN BOND
M  V30 1 1 1 2
M  V30 2 1 2 3
M  V30 3 1 3 4
M  V30 4 1 4 5
M  V30 5 1 4 6
M  V30 6 1 3 7
M  V30 7 2 7 8 CFG=2
M  V30 8 1 8 9
M  V30 9 1 8 10
M  V30 10 1 1 11
M  V30 11 1 2 12
M  V30 12 1 2 13
M  V30 13 1 3 14
M  V30 14 1 4 15
M  V30 15 1 5 16
M  V30 16 1 5 17
M  V30 17 1 5 18
M  V30 18 1 6 19
M  V30 19 1 6 20
M  V30 20 1 6 21
M  V30 21 1 9 22
M  V30 22 1 9 23
M  V30 23 1 10 24
M  V30 24 1 10 25
M  V30 END BOND
M  V30 END CTAB
M  END
