
     RDKit          3D

  0  0  0  0  0  0  0  0  0  0999 V3000
M  V30 BEGIN CTAB
M  V30 COUNTS 31 33 0 0 0
M  V30 BEGIN ATOM
M  V30 1 N 5.29836 1.53935 1.22817 0
M  V30 2 C 4.51907 0.540115 0.578665 0
M  V30 3 C 5.1631 -0.26403 -0.342645 0
M  V30 4 C 4.40545 -1.22833 -0.967561 0
M  V30 5 N 5.03079 -2.08608 -1.93104 0
M  V30 6 N 3.08975 -1.36876 -0.680498 0
M  V30 7 C 2.47183 -0.579316 0.219448 0
M  V30 8 N 3.20993 0.362218 0.830144 0
M  V30 9 S 0.725223 -0.779084 0.588515 0
M  V30 10 C -0.220132 0.263873 -0.547314 0
M  V30 11 C -1.67017 0.150029 -0.300126 0
M  V30 12 N -2.5867 -0.683844 -0.812357 0
M  V30 13 C -3.80656 -0.431488 -0.298849 0
M  V30 14 C -3.63879 0.610726 0.57546 0
M  V30 15 N -2.33373 0.951283 0.561801 0
M  V30 16 C -4.74109 1.10593 1.27393 0
M  V30 17 C -5.98355 0.532822 1.06858 0
M  V30 18 C -6.17889 -0.505128 0.204635 0
M  V30 19 C -5.06607 -0.978684 -0.477364 0
M  V30 20 F -5.23597 -2.00333 -1.33574 0
M  V30 21 H 6.25919 1.2962 1.57195 0
M  V30 22 H 4.87291 2.4857 1.33581 0
M  V30 23 H 6.21585 -0.144019 -0.565519 0
M  V30 24 H 5.51224 -1.66419 -2.76797 0
M  V30 25 H 5.03002 -3.12579 -1.83839 0
M  V30 26 H 0.0548984 -0.0333741 -1.58121 0
M  V30 27 H 0.113474 1.30965 -0.403552 0
M  V30 28 H -1.94604 1.73068 1.15286 0
M  V30 29 H -4.58865 1.93367 1.96375 0
M  V30 30 H -6.81017 0.93631 1.62054 0
M  V30 31 H -7.16557 -0.921155 0.0758771 0
M  V30 END ATOM
M  V30 BEGIN BOND
M  V30 1 1 1 2
M  V30 2 2 2 3
M  V30 3 1 3 4
M  V30 4 1 4 5
M  V30 5 2 4 6
M  V30 6 1 6 7
M  V30 7 2 7 8
M  V30 8 1 7 9
M  V30 9 1 9 10
M  V30 10 1 10 11
M  V30 11 2 11 12
M  V30 12 1 12 13
M  V30 13 2 13 14
M  V30 14 1 14 15
M  V30 15 1 14 16
M  V30 16 2 16 17
M  V30 17 1 17 18
M  V30 18 2 18 19
M  V30 19 1 19 20
M  V30 20 1 8 2
M  V30 21 1 15 11
M  V30 22 1 19 13
M  V30 23 1 1 21
M  V30 24 1 1 22
M  V30 25 1 3 23
M  V30 26 1 5 24
M  V30 27 1 5 25
M  V30 28 1 10 26
M  V30 29 1 10 27
M  V30 30 1 15 28
M  V30 31 1 16 29
M  V30 32 1 17 30
M  V30 33 1 18 31
M  V30 END BOND
M  V30 END CTAB
M  END
