
     RDKit          3D

  0  0  0  0  0  0  0  0  0  0999 V3000
M  V30 BEGIN CTAB
M  V30 COUNTS 42 42 0 0 0
M  V30 BEGIN ATOM
M  V30 1 C 1.54704 -2.64522 0.526851 0
M  V30 2 C 0.74877 -1.40572 0.438829 0
M  V30 3 C 1.33183 -0.272381 -0.0808003 0
M  V30 4 C 2.7361 -0.209012 -0.554095 0
M  V30 5 C 3.62874 -0.10994 0.647265 0
M  V30 6 C 5.0945 -0.0362717 0.286268 0
M  V30 7 C 5.40798 1.15573 -0.570778 0
M  V30 8 N 5.08159 2.38603 0.0796604 0
M  V30 9 N 0.575609 0.859379 -0.156299 0
M  V30 10 C -0.681028 0.882889 0.253196 0
M  V30 11 O -1.32792 1.96921 0.154771 0
M  V30 12 C -1.28439 -0.24123 0.776811 0
M  V30 13 C -2.69792 -0.156667 1.22584 0
M  V30 14 C -3.59769 -0.154425 0.014698 0
M  V30 15 C -5.05652 -0.0692718 0.397167 0
M  V30 16 C -5.86068 -0.0721756 -0.907326 0
M  V30 17 N -7.27672 0.00570914 -0.643144 0
M  V30 18 N -0.542518 -1.35543 0.851967 0
M  V30 19 H 1.8987 -2.78373 1.58334 0
M  V30 20 H 0.889901 -3.53028 0.318031 0
M  V30 21 H 2.37185 -2.70645 -0.206893 0
M  V30 22 H 2.84272 0.751162 -1.14014 0
M  V30 23 H 3.0029 -1.07633 -1.19727 0
M  V30 24 H 3.39907 0.832078 1.18133 0
M  V30 25 H 3.41077 -0.945938 1.32209 0
M  V30 26 H 5.64904 0.0892621 1.2481 0
M  V30 27 H 5.38533 -0.976442 -0.182835 0
M  V30 28 H 4.93079 1.04922 -1.57095 0
M  V30 29 H 6.51443 1.12886 -0.759383 0
M  V30 30 H 5.88666 2.87282 0.50807 0
M  V30 31 H 4.61818 3.07008 -0.556371 0
M  V30 32 H 1.00264 1.71775 -0.544824 0
M  V30 33 H -2.87141 0.680118 1.90668 0
M  V30 34 H -2.92094 -1.09963 1.78917 0
M  V30 35 H -3.39543 0.701453 -0.661912 0
M  V30 36 H -3.44949 -1.10228 -0.512356 0
M  V30 37 H -5.25053 0.901533 0.891875 0
M  V30 38 H -5.37543 -0.872563 1.06535 0
M  V30 39 H -5.61007 0.845711 -1.50678 0
M  V30 40 H -5.57724 -0.924547 -1.55695 0
M  V30 41 H -7.74089 0.823294 -1.09817 0
M  V30 42 H -7.43835 0.0236454 0.389082 0
M  V30 END ATOM
M  V30 BEGIN BOND
M  V30 1 1 1 2
M  V30 2 2 2 3
M  V30 3 1 3 4
M  V30 4 1 4 5
M  V30 5 1 5 6
M  V30 6 1 6 7
M  V30 7 1 7 8
M  V30 8 1 3 9
M  V30 9 1 9 10
M  V30 10 2 10 11
M  V30 11 1 10 12
M  V30 12 1 12 13
M  V30 13 1 13 14
M  V30 14 1 14 15
M  V30 15 1 15 16
M  V30 16 1 16 17
M  V30 17 2 12 18
M  V30 18 1 18 2
M  V30 19 1 1 19
M  V30 20 1 1 20
M  V30 21 1 1 21
M  V30 22 1 4 22
M  V30 23 1 4 23
M  V30 24 1 5 24
M  V30 25 1 5 25
M  V30 26 1 6 26
M  V30 27 1 6 27
M  V30 28 1 7 28
M  V30 29 1 7 29
M  V30 30 1 8 30
M  V30 31 1 8 31
M  V30 32 1 9 32
M  V30 33 1 13 33
M  V30 34 1 13 34
M  V30 35 1 14 35
M  V30 36 1 14 36
M  V30 37 1 15 37
M  V30 38 1 15 38
M  V30 39 1 16 39
M  V30 40 1 16 40
M  V30 41 1 17 41
M  V30 42 1 17 42
M  V30 END BOND
M  V30 END CTAB
M  END
