
     RDKit          3D

  0  0  0  0  0  0  0  0  0  0999 V3000
M  V30 BEGIN CTAB
M  V30 COUNTS 56 58 0 0 0
M  V30 BEGIN ATOM
M  V30 1 C -3.17667 -4.58327 0.80217 0
M  V30 2 C -2.94086 -3.81542 -0.479693 0
M  V30 3 C -2.66818 -2.33739 -0.17624 0
M  V30 4 C -2.44052 -1.60258 -1.45315 0
M  V30 5 N -2.17219 -0.200252 -1.31835 0
M  V30 6 C -0.964434 0.360455 -1.2167 0
M  V30 7 S 0.651289 -0.388562 -1.22239 0
M  V30 8 C 1.10732 -0.768621 0.489914 0
M  V30 9 C 2.44529 -1.36146 0.564889 0
M  V30 10 O 2.48197 -2.63584 0.651945 0
M  V30 11 C 3.67409 -0.606207 0.546303 0
M  V30 12 C 4.89131 -1.30179 0.651078 0
M  V30 13 N 4.85516 -2.72125 0.778658 0
M  V30 14 N 6.06319 -0.687352 0.634263 0
M  V30 15 C 7.33668 -1.39928 0.742384 0
M  V30 16 C 6.05328 0.649152 0.511562 0
M  V30 17 O 7.19294 1.2243 0.498097 0
M  V30 18 N 4.93757 1.36708 0.407937 0
M  V30 19 C 3.73676 0.749222 0.423675 0
M  V30 20 O 2.67466 1.44175 0.322634 0
M  V30 21 C 4.96613 2.80321 0.277162 0
M  V30 22 N -1.12469 1.69338 -1.1018 0
M  V30 23 C -2.41201 2.01015 -1.1269 0
M  V30 24 C -3.08652 0.815832 -1.26422 0
M  V30 25 C -4.4632 0.774513 -1.32596 0
M  V30 26 C -5.17671 1.95088 -1.24863 0
M  V30 27 C -4.53749 3.16308 -1.11113 0
M  V30 28 C -3.15389 3.17311 -1.05195 0
M  V30 29 S -5.36651 4.69612 -1.00579 0
M  V30 30 O -6.62105 4.63422 -1.8042 0
M  V30 31 O -4.51461 5.80074 -1.57959 0
M  V30 32 N -5.7287 5.12902 0.621824 0
M  V30 33 H -4.24084 -4.54638 1.0583 0
M  V30 34 H -2.94006 -5.65743 0.56924 0
M  V30 35 H -2.52476 -4.21494 1.61957 0
M  V30 36 H -2.15376 -4.2573 -1.10248 0
M  V30 37 H -3.89169 -3.85045 -1.05133 0
M  V30 38 H -3.65518 -1.96155 0.231372 0
M  V30 39 H -1.87511 -2.29611 0.557063 0
M  V30 40 H -1.53324 -2.0775 -1.93426 0
M  V30 41 H -3.25253 -1.80492 -2.2063 0
M  V30 42 H 0.326849 -1.52371 0.830517 0
M  V30 43 H 0.928751 0.117143 1.10672 0
M  V30 44 H 5.02938 -3.33783 -0.0463536 0
M  V30 45 H 4.64876 -3.1093 1.72298 0
M  V30 46 H 8.07714 -0.917033 0.0568845 0
M  V30 47 H 7.67662 -1.36682 1.80195 0
M  V30 48 H 7.25079 -2.44815 0.435227 0
M  V30 49 H 5.11643 3.1387 -0.762347 0
M  V30 50 H 4.00664 3.22037 0.638451 0
M  V30 51 H 5.75973 3.26563 0.898334 0
M  V30 52 H -5.0026 -0.155842 -1.43425 0
M  V30 53 H -6.263 1.96529 -1.29288 0
M  V30 54 H -2.62664 4.10977 -0.944975 0
M  V30 55 H -4.89236 5.16231 1.22401 0
M  V30 56 H -6.4887 4.5191 0.98543 0
M  V30 END ATOM
M  V30 BEGIN BOND
M  V30 1 1 1 2
M  V30 2 1 2 3
M  V30 3 1 3 4
M  V30 4 1 4 5
M  V30 5 1 5 6
M  V30 6 1 6 7
M  V30 7 1 7 8
M  V30 8 1 8 9
M  V30 9 2 9 10
M  V30 10 1 9 11
M  V30 11 2 11 12
M  V30 12 1 12 13
M  V30 13 1 12 14
M  V30 14 1 14 15
M  V30 15 1 14 16
M  V30 16 2 16 17
M  V30 17 1 16 18
M  V30 18 1 18 19
M  V30 19 2 19 20
M  V30 20 1 18 21
M  V30 21 2 6 22
M  V30 22 1 22 23
M  V30 23 2 23 24
M  V30 24 1 24 25
M  V30 25 2 25 26
M  V30 26 1 26 27
M  V30 27 2 27 28
M  V30 28 1 27 29
M  V30 29 2 29 30
M  V30 30 2 29 31
M  V30 31 1 29 32
M  V30 32 1 24 5
M  V30 33 1 19 11
M  V30 34 1 28 23
M  V30 35 1 1 33
M  V30 36 1 1 34
M  V30 37 1 1 35
M  V30 38 1 2 36
M  V30 39 1 2 37
M  V30 40 1 3 38
M  V30 41 1 3 39
M  V30 42 1 4 40
M  V30 43 1 4 41
M  V30 44 1 8 42
M  V30 45 1 8 43
M  V30 46 1 13 44
M  V30 47 1 13 45
M  V30 48 1 15 46
M  V30 49 1 15 47
M  V30 50 1 15 48
M  V30 51 1 21 49
M  V30 52 1 21 50
M  V30 53 1 21 51
M  V30 54 1 25 52
M  V30 55 1 26 53
M  V30 56 1 28 54
M  V30 57 1 32 55
M  V30 58 1 32 56
M  V30 END BOND
M  V30 END CTAB
M  END
