
     RDKit          3D

  0  0  0  0  0  0  0  0  0  0999 V3000
M  V30 BEGIN CTAB
M  V30 COUNTS 25 26 0 0 0
M  V30 BEGIN ATOM
M  V30 1 N 3.88261 0.709054 1.00283 0
M  V30 2 C 2.6323 0.578453 0.339067 0
M  V30 3 N 2.12627 1.45899 -0.548191 0
M  V30 4 N 0.957055 0.977053 -0.930195 0
M  V30 5 C 0.672816 -0.171196 -0.339587 0
M  V30 6 N 1.76345 -0.405451 0.469971 0
M  V30 7 N 1.96799 -1.50251 1.3198 0
M  V30 8 C -0.418676 -1.12903 -0.357265 0
M  V30 9 C -1.6324 -0.876211 -1.12042 0
M  V30 10 C -2.55402 0.21131 -0.825925 0
M  V30 11 C -2.42335 1.64404 -0.7917 0
M  V30 12 C -2.32311 0.894161 0.525356 0
M  V30 13 H 3.97276 0.577481 2.03334 0
M  V30 14 H 4.7585 0.941533 0.485226 0
M  V30 15 H 1.73971 -2.48532 1.02036 0
M  V30 16 H 2.35732 -1.31702 2.26883 0
M  V30 17 H -0.716236 -1.45235 0.691213 0
M  V30 18 H 0.0357278 -2.10118 -0.752415 0
M  V30 19 H -2.22216 -1.86349 -1.09589 0
M  V30 20 H -1.39323 -0.82845 -2.24169 0
M  V30 21 H -3.65776 -0.133487 -0.948539 0
M  V30 22 H -1.58967 2.28865 -1.02921 0
M  V30 23 H -3.39039 2.24674 -0.849273 0
M  V30 24 H -3.18052 0.932118 1.23843 0
M  V30 25 H -1.36498 0.806117 1.03882 0
M  V30 END ATOM
M  V30 BEGIN BOND
M  V30 1 1 1 2
M  V30 2 2 2 3
M  V30 3 1 3 4
M  V30 4 2 4 5
M  V30 5 1 5 6
M  V30 6 1 6 7
M  V30 7 1 5 8
M  V30 8 1 8 9
M  V30 9 1 9 10
M  V30 10 1 10 11
M  V30 11 1 11 12
M  V30 12 1 6 2
M  V30 13 1 12 10
M  V30 14 1 1 13
M  V30 15 1 1 14
M  V30 16 1 7 15
M  V30 17 1 7 16
M  V30 18 1 8 17
M  V30 19 1 8 18
M  V30 20 1 9 19
M  V30 21 1 9 20
M  V30 22 1 10 21
M  V30 23 1 11 22
M  V30 24 1 11 23
M  V30 25 1 12 24
M  V30 26 1 12 25
M  V30 END BOND
M  V30 END CTAB
M  END
