
     RDKit          3D

  0  0  0  0  0  0  0  0  0  0999 V3000
M  V30 BEGIN CTAB
M  V30 COUNTS 54 55 0 0 0
M  V30 BEGIN ATOM
M  V30 1 N 6.67934 0.356715 -2.0385 0
M  V30 2 C 5.72064 -0.117835 -1.12594 0 CFG=2
M  V30 3 C 4.62891 0.950876 -0.932396 0
M  V30 4 O 4.93559 2.11903 -1.30353 0
M  V30 5 N 3.49054 0.532259 -0.400933 0
M  V30 6 C 2.29687 0.0940886 0.156178 0
M  V30 7 C 1.16063 0.298196 -0.786237 0
M  V30 8 O 1.43156 0.836779 -1.90903 0
M  V30 9 N -0.133987 -0.096553 -0.437595 0
M  V30 10 C -0.450343 -0.657273 0.825789 0
M  V30 11 C -1.85968 -0.463865 1.23954 0
M  V30 12 N -2.78258 -0.626812 0.125061 0
M  V30 13 C -2.2479 -1.01962 -1.18961 0
M  V30 14 C -1.17407 0.034037 -1.47005 0
M  V30 15 C -4.15398 -0.398429 0.360669 0
M  V30 16 C -5.04702 -0.091511 -0.654449 0
M  V30 17 C -6.38984 0.115929 -0.404322 0
M  V30 18 C -6.89089 0.024657 0.868642 0
M  V30 19 C -6.02059 -0.281698 1.90516 0
M  V30 20 C -4.66878 -0.486217 1.62648 0
M  V30 21 S -8.57805 0.292244 1.24122 0
M  V30 22 O -9.37666 -0.130997 0.0278477 0
M  V30 23 O -8.92459 -0.49638 2.46232 0
M  V30 24 N -8.80671 1.98133 1.58755 0
M  V30 25 C 6.40844 -0.395661 0.211212 0
M  V30 26 C 7.45561 -1.45356 -0.0682461 0
M  V30 27 C 7.06561 0.90486 0.648001 0
M  V30 28 H 7.05241 -0.324024 -2.68371 0
M  V30 29 H 6.57294 1.25393 -2.44187 0
M  V30 30 H 5.27137 -1.06026 -1.46417 0
M  V30 31 H 2.95153 1.80105 -0.410281 0
M  V30 32 H 2.11532 0.511031 1.16733 0
M  V30 33 H 2.27402 -1.03196 0.336078 0
M  V30 34 H 0.270084 -0.269865 1.59596 0
M  V30 35 H -0.286307 -1.7824 0.791952 0
M  V30 36 H -2.14043 -1.1478 2.08324 0
M  V30 37 H -2.00796 0.585529 1.57892 0
M  V30 38 H -3.00976 -0.988348 -1.94913 0
M  V30 39 H -1.74633 -2.00837 -1.12173 0
M  V30 40 H -0.780834 -0.16755 -2.48204 0
M  V30 41 H -1.59914 1.04619 -1.45838 0
M  V30 42 H -4.64308 -0.0101131 -1.66624 0
M  V30 43 H -7.04763 0.351775 -1.21242 0
M  V30 44 H -6.37861 -0.368083 2.92217 0
M  V30 45 H -4.02421 -0.724392 2.48253 0
M  V30 46 H -8.98082 2.51914 0.727771 0
M  V30 47 H -7.96222 2.3035 2.10092 0
M  V30 48 H 5.64069 -0.726113 0.920979 0
M  V30 49 H 8.44941 -1.12644 0.322033 0
M  V30 50 H 7.47205 -1.75331 -1.13616 0
M  V30 51 H 7.09273 -2.37174 0.485745 0
M  V30 52 H 6.43566 1.43851 1.37887 0
M  V30 53 H 8.03979 0.663457 1.12482 0
M  V30 54 H 7.20125 1.56208 -0.234442 0
M  V30 END ATOM
M  V30 BEGIN BOND
M  V30 1 1 1 2
M  V30 2 1 2 3
M  V30 3 2 3 4
M  V30 4 1 3 5
M  V30 5 1 5 6
M  V30 6 1 6 7
M  V30 7 2 7 8
M  V30 8 1 7 9
M  V30 9 1 9 10
M  V30 10 1 10 11
M  V30 11 1 11 12
M  V30 12 1 12 13
M  V30 13 1 13 14
M  V30 14 1 12 15
M  V30 15 2 15 16
M  V30 16 1 16 17
M  V30 17 2 17 18
M  V30 18 1 18 19
M  V30 19 2 19 20
M  V30 20 1 18 21
M  V30 21 2 21 22
M  V30 22 2 21 23
M  V30 23 1 21 24
M  V30 24 1 2 25
M  V30 25 1 25 26
M  V30 26 1 25 27
M  V30 27 1 14 9
M  V30 28 1 20 15
M  V30 29 1 1 28
M  V30 30 1 1 29
M  V30 31 1 2 30 CFG=3
M  V30 32 1 5 31
M  V30 33 1 6 32
M  V30 34 1 6 33
M  V30 35 1 10 34
M  V30 36 1 10 35
M  V30 37 1 11 36
M  V30 38 1 11 37
M  V30 39 1 13 38
M  V30 40 1 13 39
M  V30 41 1 14 40
M  V30 42 1 14 41
M  V30 43 1 16 42
M  V30 44 1 17 43
M  V30 45 1 19 44
M  V30 46 1 20 45
M  V30 47 1 24 46
M  V30 48 1 24 47
M  V30 49 1 25 48
M  V30 50 1 26 49
M  V30 51 1 26 50
M  V30 52 1 26 51
M  V30 53 1 27 52
M  V30 54 1 27 53
M  V30 55 1 27 54
M  V30 END BOND
M  V30 END CTAB
M  END
