
     RDKit          3D

  0  0  0  0  0  0  0  0  0  0999 V3000
M  V30 BEGIN CTAB
M  V30 COUNTS 21 22 0 0 0
M  V30 BEGIN ATOM
M  V30 1 N -3.79159 0.0656985 -0.733211 0
M  V30 2 N -2.84868 0.489688 0.175394 0
M  V30 3 C -1.43732 0.341648 0.0794668 0
M  V30 4 C -0.599471 1.43205 -0.0976684 0
M  V30 5 C 0.770441 1.31402 -0.172888 0
M  V30 6 C 1.32217 0.0467505 -0.0612837 0
M  V30 7 C 0.52706 -1.05992 0.116029 0
M  V30 8 C -0.860148 -0.906562 0.183843 0
M  V30 9 N 1.36997 -2.12116 0.202419 0
M  V30 10 N 2.61782 -1.69263 0.0838096 0
M  V30 11 C 2.65166 -0.364392 -0.0807341 0
M  V30 12 N 3.7713 0.483716 -0.229354 0
M  V30 13 H -3.98865 -0.951752 -0.715957 0
M  V30 14 H -4.65764 0.649355 -0.715508 0
M  V30 15 H -3.21462 0.989692 1.04374 0
M  V30 16 H -1.06025 2.41072 -0.169334 0
M  V30 17 H 1.44936 2.15732 -0.319522 0
M  V30 18 H -1.42186 -1.80848 0.320121 0
M  V30 19 H 1.01519 -3.10233 0.345339 0
M  V30 20 H 3.668 1.52245 -0.181366 0
M  V30 21 H 4.71726 0.104106 -0.387767 0
M  V30 END ATOM
M  V30 BEGIN BOND
M  V30 1 1 1 2
M  V30 2 1 2 3
M  V30 3 2 3 4
M  V30 4 1 4 5
M  V30 5 2 5 6
M  V30 6 1 6 7
M  V30 7 2 7 8
M  V30 8 1 7 9
M  V30 9 1 9 10
M  V30 10 2 10 11
M  V30 11 1 11 12
M  V30 12 1 8 3
M  V30 13 1 11 6
M  V30 14 1 1 13
M  V30 15 1 1 14
M  V30 16 1 2 15
M  V30 17 1 4 16
M  V30 18 1 5 17
M  V30 19 1 8 18
M  V30 20 1 9 19
M  V30 21 1 12 20
M  V30 22 1 12 21
M  V30 END BOND
M  V30 END CTAB
M  END
