
     RDKit          3D

  0  0  0  0  0  0  0  0  0  0999 V3000
M  V30 BEGIN CTAB
M  V30 COUNTS 61 65 0 0 0
M  V30 BEGIN ATOM
M  V30 1 N -6.92384 3.79182 -1.89266 0
M  V30 2 C -5.93929 2.86464 -1.41602 0
M  V30 3 N -5.6068 2.91452 -0.116831 0
M  V30 4 C -4.68511 2.05099 0.343467 0
M  V30 5 N -4.28675 2.02488 1.63087 0
M  V30 6 C -3.36278 1.15328 2.07374 0
M  V30 7 C -2.78574 0.240389 1.19461 0
M  V30 8 C -1.78887 -0.684593 1.77992 0
M  V30 9 N -1.06675 -1.55177 0.952086 0
M  V30 10 C 0.115329 -1.06885 0.320922 0
M  V30 11 C 0.258205 0.289139 0.416748 0
M  V30 12 C 1.3375 1.00371 -0.124443 0
M  V30 13 C 2.30903 0.306111 -0.787578 0
M  V30 14 O 3.37854 0.941192 -1.33043 0
M  V30 15 C 3.82497 2.22167 -1.3981 0
M  V30 16 C 4.17972 2.88449 -0.0884798 0
M  V30 17 C 5.28331 2.11378 0.637311 0
M  V30 18 C 6.54487 2.04109 -0.193793 0
M  V30 19 C 7.60913 1.28568 0.546491 0
M  V30 20 O 8.85947 1.08551 -0.0107703 0
M  V30 21 O 7.34408 0.83225 1.69412 0
M  V30 22 C 2.20049 -1.08854 -0.907323 0
M  V30 23 C 1.12552 -1.74427 -0.361172 0
M  V30 24 C 1.25743 -3.16407 -0.590489 0
M  V30 25 C 0.39852 -4.11241 -0.361059 0
M  V30 26 C -0.941369 -4.02032 0.191071 0
M  V30 27 C -1.54043 -2.90142 0.742092 0
M  V30 28 C -2.80948 -3.0193 1.19257 0
M  V30 29 C -3.53897 -4.22647 1.12415 0
M  V30 30 C -2.89385 -5.30597 0.567446 0
M  V30 31 C -1.60803 -5.24281 0.0943187 0
M  V30 32 N -3.20081 0.291002 -0.0733818 0
M  V30 33 C -4.10965 1.14771 -0.510915 0
M  V30 34 C -4.45392 1.093 -1.86576 0
M  V30 35 N -3.85021 0.151471 -2.74308 0
M  V30 36 N -5.38099 1.98034 -2.26989 0
M  V30 37 H -7.92732 3.52347 -1.67442 0
M  V30 38 H -6.6804 4.65868 -2.41082 0
M  V30 39 H -3.0655 1.16028 3.11744 0
M  V30 40 H -2.20593 -1.19648 2.72935 0
M  V30 41 H -1.12808 -0.0279254 2.4608 0
M  V30 42 H -0.476597 0.84729 0.943695 0
M  V30 43 H 1.30518 2.06928 0.0176605 0
M  V30 44 H 4.75213 2.25439 -2.05298 0
M  V30 45 H 3.13273 2.92846 -1.9366 0
M  V30 46 H 3.31367 2.9893 0.547067 0
M  V30 47 H 4.61866 3.90157 -0.294567 0
M  V30 48 H 4.88688 1.07526 0.745621 0
M  V30 49 H 5.44664 2.53959 1.63423 0
M  V30 50 H 6.94041 3.02615 -0.443209 0
M  V30 51 H 6.31067 1.4078 -1.08393 0
M  V30 52 H 9.20635 1.6827 -0.755843 0
M  V30 53 H 2.9881 -1.59403 -1.43728 0
M  V30 54 H 2.23764 -3.45022 -1.02145 0
M  V30 55 H 0.740052 -5.10455 -0.621469 0
M  V30 56 H -3.31451 -2.20932 1.61161 0
M  V30 57 H -4.55522 -4.26501 1.50119 0
M  V30 58 H -3.42968 -6.24427 0.502531 0
M  V30 59 H -1.08768 -6.08558 -0.346793 0
M  V30 60 H -3.46842 0.387678 -3.67416 0
M  V30 61 H -3.79225 -0.852369 -2.41402 0
M  V30 END ATOM
M  V30 BEGIN BOND
M  V30 1 1 1 2
M  V30 2 2 2 3
M  V30 3 1 3 4
M  V30 4 2 4 5
M  V30 5 1 5 6
M  V30 6 2 6 7
M  V30 7 1 7 8
M  V30 8 1 8 9
M  V30 9 1 9 10
M  V30 10 2 10 11
M  V30 11 1 11 12
M  V30 12 2 12 13
M  V30 13 1 13 14
M  V30 14 1 14 15
M  V30 15 1 15 16
M  V30 16 1 16 17
M  V30 17 1 17 18
M  V30 18 1 18 19
M  V30 19 1 19 20
M  V30 20 2 19 21
M  V30 21 1 13 22
M  V30 22 2 22 23
M  V30 23 1 23 24
M  V30 24 2 24 25
M  V30 25 1 25 26
M  V30 26 2 26 27
M  V30 27 1 27 28
M  V30 28 2 28 29
M  V30 29 1 29 30
M  V30 30 2 30 31
M  V30 31 1 7 32
M  V30 32 2 32 33
M  V30 33 1 33 34
M  V30 34 1 34 35
M  V30 35 2 34 36
M  V30 36 1 36 2
M  V30 37 1 33 4
M  V30 38 1 27 9
M  V30 39 1 23 10
M  V30 40 1 31 26
M  V30 41 1 1 37
M  V30 42 1 1 38
M  V30 43 1 6 39
M  V30 44 1 8 40
M  V30 45 1 8 41
M  V30 46 1 11 42
M  V30 47 1 12 43
M  V30 48 1 15 44
M  V30 49 1 15 45
M  V30 50 1 16 46
M  V30 51 1 16 47
M  V30 52 1 17 48
M  V30 53 1 17 49
M  V30 54 1 18 50
M  V30 55 1 18 51
M  V30 56 1 20 52
M  V30 57 1 22 53
M  V30 58 1 24 54
M  V30 59 1 25 55
M  V30 60 1 28 56
M  V30 61 1 29 57
M  V30 62 1 30 58
M  V30 63 1 31 59
M  V30 64 1 35 60
M  V30 65 1 35 61
M  V30 END BOND
M  V30 END CTAB
M  END
