
     RDKit          3D

  0  0  0  0  0  0  0  0  0  0999 V3000
M  V30 BEGIN CTAB
M  V30 COUNTS 30 29 0 0 0
M  V30 BEGIN ATOM
M  V30 1 C -2.58093 1.49269 0.569307 0
M  V30 2 C -2.52693 0.859378 -0.798719 0
M  V30 3 C -1.153 0.338825 -1.12983 0
M  V30 4 C -0.687032 -0.709841 -0.151805 0 CFG=1
M  V30 5 N -1.62996 -1.81438 -0.195221 0
M  V30 6 C 0.663562 -1.2484 -0.445321 0 CFG=2
M  V30 7 N 0.988378 -2.24061 0.563245 0
M  V30 8 C 1.76043 -0.22972 -0.464206 0
M  V30 9 C 1.93007 0.497248 0.83285 0
M  V30 10 C 3.05772 1.48792 0.684164 0
M  V30 11 H -2.40031 0.736709 1.34704 0
M  V30 12 H -1.84056 2.30821 0.684279 0
M  V30 13 H -3.59911 1.8877 0.712328 0
M  V30 14 H -2.82181 1.62733 -1.5272 0
M  V30 15 H -3.30158 0.0687095 -0.821402 0
M  V30 16 H -1.15383 -0.109611 -2.13218 0
M  V30 17 H -0.474999 1.21345 -1.16899 0
M  V30 18 H -0.702663 -0.321065 0.899026 0
M  V30 19 H -1.46478 -2.48501 0.602895 0
M  V30 20 H -1.49738 -2.3163 -1.12438 0
M  V30 21 H 0.654345 -1.74706 -1.43802 0
M  V30 22 H 0.499622 -3.1447 0.318443 0
M  V30 23 H 0.659724 -1.87161 1.49033 0
M  V30 24 H 1.64019 0.478404 -1.33384 0
M  V30 25 H 2.71141 -0.769331 -0.66372 0
M  V30 26 H 1.02884 1.02616 1.17663 0
M  V30 27 H 2.2087 -0.238409 1.60259 0
M  V30 28 H 2.86971 2.39288 1.30324 0
M  V30 29 H 4.01234 1.04934 1.00329 0
M  V30 30 H 3.14986 1.7811 -0.394818 0
M  V30 END ATOM
M  V30 BEGIN BOND
M  V30 1 1 1 2
M  V30 2 1 2 3
M  V30 3 1 3 4
M  V30 4 1 4 5
M  V30 5 1 4 6
M  V30 6 1 6 7
M  V30 7 1 6 8
M  V30 8 1 8 9
M  V30 9 1 9 10
M  V30 10 1 1 11
M  V30 11 1 1 12
M  V30 12 1 1 13
M  V30 13 1 2 14
M  V30 14 1 2 15
M  V30 15 1 3 16
M  V30 16 1 3 17
M  V30 17 1 4 18 CFG=1
M  V30 18 1 5 19
M  V30 19 1 5 20
M  V30 20 1 6 21 CFG=3
M  V30 21 1 7 22
M  V30 22 1 7 23
M  V30 23 1 8 24
M  V30 24 1 8 25
M  V30 25 1 9 26
M  V30 26 1 9 27
M  V30 27 1 10 28
M  V30 28 1 10 29
M  V30 29 1 10 30
M  V30 END BOND
M  V30 END CTAB
M  END
