
     RDKit          3D

  0  0  0  0  0  0  0  0  0  0999 V3000
M  V30 BEGIN CTAB
M  V30 COUNTS 27 27 0 0 0
M  V30 BEGIN ATOM
M  V30 1 C -2.62225 -1.09787 0.267148 0
M  V30 2 C -1.36215 -0.219827 0.310298 0
M  V30 3 C -1.55339 0.920005 -0.668044 0
M  V30 4 N -2.70898 1.72807 -0.330378 0
M  V30 5 C -0.231879 -1.08956 -0.109221 0
M  V30 6 C 1.09579 -0.481499 -0.15496 0
M  V30 7 C 1.65593 -0.0712024 -1.34808 0
M  V30 8 C 2.89757 0.516364 -1.42424 0
M  V30 9 C 3.62613 0.710612 -0.267306 0
M  V30 10 N 3.08298 0.313208 0.88532 0
M  V30 11 C 1.85264 -0.270632 0.970455 0
M  V30 12 N 1.44107 -0.639481 2.26224 0
M  V30 13 F -1.31071 0.292609 1.56826 0
M  V30 14 H -3.28988 -0.758892 -0.555313 0
M  V30 15 H -3.1899 -1.07114 1.20551 0
M  V30 16 H -2.38267 -2.16164 0.0744879 0
M  V30 17 H -1.6515 0.510865 -1.66967 0
M  V30 18 H -0.670364 1.57588 -0.566974 0
M  V30 19 H -2.88233 2.48099 -0.999615 0
M  V30 20 H -2.70031 2.03931 0.663167 0
M  V30 21 H -0.499848 -1.46369 -1.14417 0
M  V30 22 H -0.237451 -2.02976 0.502896 0
M  V30 23 H 1.09393 -0.217302 -2.27362 0
M  V30 24 H 3.35152 0.844133 -2.35657 0
M  V30 25 H 4.61672 1.17809 -0.319126 0
M  V30 26 H 1.28304 -1.62938 2.50059 0
M  V30 27 H 1.29629 0.0917366 2.9769 0
M  V30 END ATOM
M  V30 BEGIN BOND
M  V30 1 1 1 2
M  V30 2 1 2 3
M  V30 3 1 3 4
M  V30 4 1 2 5
M  V30 5 1 5 6
M  V30 6 2 6 7
M  V30 7 1 7 8
M  V30 8 2 8 9
M  V30 9 1 9 10
M  V30 10 2 10 11
M  V30 11 1 11 12
M  V30 12 1 2 13
M  V30 13 1 11 6
M  V30 14 1 1 14
M  V30 15 1 1 15
M  V30 16 1 1 16
M  V30 17 1 3 17
M  V30 18 1 3 18
M  V30 19 1 4 19
M  V30 20 1 4 20
M  V30 21 1 5 21
M  V30 22 1 5 22
M  V30 23 1 7 23
M  V30 24 1 8 24
M  V30 25 1 9 25
M  V30 26 1 12 26
M  V30 27 1 12 27
M  V30 END BOND
M  V30 END CTAB
M  END
