
     RDKit          3D

  0  0  0  0  0  0  0  0  0  0999 V3000
M  V30 BEGIN CTAB
M  V30 COUNTS 35 37 0 0 0
M  V30 BEGIN ATOM
M  V30 1 C 7.42523 -0.522636 0.735772 0
M  V30 2 O 6.57411 0.25715 -0.0508112 0
M  V30 3 C 5.21336 0.0982751 0.0294543 0
M  V30 4 C 4.68608 -0.830322 0.885805 0
M  V30 5 C 3.35775 -1.04917 1.02484 0
M  V30 6 C 2.42013 -0.312147 0.274447 0
M  V30 7 N 1.13014 -0.435707 0.324777 0
M  V30 8 C 0.351301 0.306165 -0.421965 0
M  V30 9 N -1.07073 0.346512 -0.534558 0
M  V30 10 C -1.60766 1.28647 -1.4572 0
M  V30 11 O -0.885103 2.04637 -2.14272 0
M  V30 12 C -3.08216 1.39702 -1.63937 0
M  V30 13 C -3.64933 2.29233 -2.52094 0
M  V30 14 S -5.3157 1.98447 -2.31503 0
M  V30 15 C -5.20308 0.75062 -1.13507 0
M  V30 16 N -6.26971 0.0188912 -0.494492 0
M  V30 17 C -5.93466 -0.86807 0.367052 0
M  V30 18 N -6.97516 -1.60455 1.01351 0
M  V30 19 N -4.58719 -1.15435 0.709898 0
M  V30 20 N -3.902 0.644678 -0.9663 0
M  V30 21 S 1.51116 1.26767 -1.27664 0
M  V30 22 C 2.93583 0.621652 -0.587458 0
M  V30 23 C 4.3128 0.833947 -0.717723 0
M  V30 24 H 8.4828 -0.163892 0.661889 0
M  V30 25 H 7.4676 -1.58988 0.38531 0
M  V30 26 H 7.18141 -0.499053 1.81915 0
M  V30 27 H 5.3921 -1.41955 1.48345 0
M  V30 28 H 3.02892 -1.81826 1.73972 0
M  V30 29 H -1.66499 -0.262099 0.0136751 0
M  V30 30 H -3.13237 3.01497 -3.18157 0
M  V30 31 H -7.74788 -2.05481 0.501028 0
M  V30 32 H -6.9041 -1.66037 2.05871 0
M  V30 33 H -4.07932 -1.94678 0.269239 0
M  V30 34 H -4.08114 -0.560047 1.42293 0
M  V30 35 H 4.62157 1.5845 -1.41602 0
M  V30 END ATOM
M  V30 BEGIN BOND
M  V30 1 1 1 2
M  V30 2 1 2 3
M  V30 3 2 3 4
M  V30 4 1 4 5
M  V30 5 2 5 6
M  V30 6 1 6 7
M  V30 7 2 7 8
M  V30 8 1 8 9
M  V30 9 1 9 10
M  V30 10 2 10 11
M  V30 11 1 10 12
M  V30 12 2 12 13
M  V30 13 1 13 14
M  V30 14 1 14 15
M  V30 15 1 15 16
M  V30 16 2 16 17
M  V30 17 1 17 18
M  V30 18 1 17 19
M  V30 19 2 15 20
M  V30 20 1 8 21
M  V30 21 1 21 22
M  V30 22 2 22 23
M  V30 23 1 23 3
M  V30 24 1 22 6
M  V30 25 1 20 12
M  V30 26 1 1 24
M  V30 27 1 1 25
M  V30 28 1 1 26
M  V30 29 1 4 27
M  V30 30 1 5 28
M  V30 31 1 9 29
M  V30 32 1 13 30
M  V30 33 1 18 31
M  V30 34 1 18 32
M  V30 35 1 19 33
M  V30 36 1 19 34
M  V30 37 1 23 35
M  V30 END BOND
M  V30 END CTAB
M  END
