
     RDKit          3D

  0  0  0  0  0  0  0  0  0  0999 V3000
M  V30 BEGIN CTAB
M  V30 COUNTS 29 30 0 0 0
M  V30 BEGIN ATOM
M  V30 1 N -4.21211 -0.380601 1.60414 0
M  V30 2 C -3.10453 -0.168022 0.715114 0
M  V30 3 N -1.84213 -0.255874 1.16251 0
M  V30 4 C -0.749293 -0.0630493 0.360178 0
M  V30 5 O 0.501006 -0.17703 0.922618 0
M  V30 6 C 1.71191 -0.0213845 0.29008 0
M  V30 7 C 2.57068 1.08236 0.867543 0
M  V30 8 C 3.91827 0.774806 0.2503 0
M  V30 9 C 3.93167 -0.701328 -0.0565593 0
M  V30 10 C 2.59155 -1.25485 0.340015 0
M  V30 11 C -1.02499 0.231049 -0.953855 0
M  V30 12 C -2.33537 0.327972 -1.4436 0
M  V30 13 C -3.40339 0.125815 -0.598839 0
M  V30 14 N -4.75619 0.20628 -1.01774 0
M  V30 15 H -4.36534 0.232054 2.42038 0
M  V30 16 H -4.84339 -1.17613 1.38272 0
M  V30 17 H 1.60095 0.219731 -0.782719 0
M  V30 18 H 2.19438 2.04918 0.479859 0
M  V30 19 H 2.59767 1.07464 1.97059 0
M  V30 20 H 3.99318 1.30913 -0.737174 0
M  V30 21 H 4.75704 1.01766 0.917183 0
M  V30 22 H 4.07129 -0.915134 -1.137 0
M  V30 23 H 4.71001 -1.2407 0.511684 0
M  V30 24 H 2.18472 -1.95803 -0.428587 0
M  V30 25 H 2.56903 -1.72382 1.32623 0
M  V30 26 H -0.183787 0.39225 -1.62796 0
M  V30 27 H -2.5248 0.559121 -2.47511 0
M  V30 28 H -5.45554 -0.392236 -0.536289 0
M  V30 29 H -5.1025 0.826127 -1.77844 0
M  V30 END ATOM
M  V30 BEGIN BOND
M  V30 1 1 1 2
M  V30 2 2 2 3
M  V30 3 1 3 4
M  V30 4 1 4 5
M  V30 5 1 5 6
M  V30 6 1 6 7
M  V30 7 1 7 8
M  V30 8 1 8 9
M  V30 9 1 9 10
M  V30 10 2 4 11
M  V30 11 1 11 12
M  V30 12 2 12 13
M  V30 13 1 13 14
M  V30 14 1 13 2
M  V30 15 1 10 6
M  V30 16 1 1 15
M  V30 17 1 1 16
M  V30 18 1 6 17
M  V30 19 1 7 18
M  V30 20 1 7 19
M  V30 21 1 8 20
M  V30 22 1 8 21
M  V30 23 1 9 22
M  V30 24 1 9 23
M  V30 25 1 10 24
M  V30 26 1 10 25
M  V30 27 1 11 26
M  V30 28 1 12 27
M  V30 29 1 14 28
M  V30 30 1 14 29
M  V30 END BOND
M  V30 END CTAB
M  END
