
     RDKit          3D

  0  0  0  0  0  0  0  0  0  0999 V3000
M  V30 BEGIN CTAB
M  V30 COUNTS 32 33 0 0 0
M  V30 BEGIN ATOM
M  V30 1 N -4.73608 1.65299 -0.344626 0
M  V30 2 C -3.56075 0.851729 -0.227302 0
M  V30 3 C -2.43178 1.31821 0.409225 0
M  V30 4 C -1.29467 0.545025 0.530287 0
M  V30 5 C -1.23535 -0.733133 0.0181829 0
M  V30 6 C -2.38658 -1.17964 -0.619011 0
M  V30 7 C -3.52453 -0.424141 -0.747914 0
M  V30 8 N -4.68841 -0.91695 -1.40831 0 CHG=1
M  V30 9 O -4.94621 -2.2577 -1.34257 0 CHG=-1
M  V30 10 O -5.47851 -0.192388 -2.03608 0
M  V30 11 C -0.0535343 -1.57574 0.115499 0
M  V30 12 O -0.271695 -2.82067 0.0835069 0
M  V30 13 C 1.29606 -1.05345 0.243934 0
M  V30 14 C 1.70706 0.15885 -0.233247 0
M  V30 15 C 3.01705 0.61292 -0.0339505 0
M  V30 16 C 3.93832 -0.14742 0.650284 0
M  V30 17 N 5.25577 0.349751 0.846435 0
M  V30 18 C 3.51716 -1.36522 1.1249 0
M  V30 19 C 2.22157 -1.82456 0.933202 0
M  V30 20 N 3.42236 1.87735 -0.554772 0 CHG=1
M  V30 21 O 2.53002 2.91356 -0.66771 0 CHG=-1
M  V30 22 O 4.59452 2.07073 -0.919092 0
M  V30 23 H -5.42342 1.65887 0.427516 0
M  V30 24 H -4.92393 2.23251 -1.18069 0
M  V30 25 H -2.46023 2.30909 0.811676 0
M  V30 26 H -0.426068 0.955521 1.05913 0
M  V30 27 H -2.36427 -2.18678 -1.03156 0
M  V30 28 H 1.03164 0.794978 -0.784723 0
M  V30 29 H 5.39513 1.18654 1.45911 0
M  V30 30 H 6.09177 -0.0602022 0.42534 0
M  V30 31 H 4.25588 -1.95657 1.66677 0
M  V30 32 H 1.93171 -2.79406 1.32657 0
M  V30 END ATOM
M  V30 BEGIN BOND
M  V30 1 1 1 2
M  V30 2 2 2 3
M  V30 3 1 3 4
M  V30 4 2 4 5
M  V30 5 1 5 6
M  V30 6 2 6 7
M  V30 7 1 7 8
M  V30 8 1 8 9
M  V30 9 2 8 10
M  V30 10 1 5 11
M  V30 11 2 11 12
M  V30 12 1 11 13
M  V30 13 2 13 14
M  V30 14 1 14 15
M  V30 15 2 15 16
M  V30 16 1 16 17
M  V30 17 1 16 18
M  V30 18 2 18 19
M  V30 19 1 15 20
M  V30 20 1 20 21
M  V30 21 2 20 22
M  V30 22 1 7 2
M  V30 23 1 19 13
M  V30 24 1 1 23
M  V30 25 1 1 24
M  V30 26 1 3 25
M  V30 27 1 4 26
M  V30 28 1 6 27
M  V30 29 1 14 28
M  V30 30 1 17 29
M  V30 31 1 17 30
M  V30 32 1 18 31
M  V30 33 1 19 32
M  V30 END BOND
M  V30 END CTAB
M  END
