
     RDKit          3D

  0  0  0  0  0  0  0  0  0  0999 V3000
M  V30 BEGIN CTAB
M  V30 COUNTS 59 63 0 0 0
M  V30 BEGIN ATOM
M  V30 1 C 6.44583 3.44536 1.23864 0
M  V30 2 C 5.69723 2.51124 0.35364 0
M  V30 3 C 5.81726 1.14117 0.470894 0
M  V30 4 C 5.11409 0.287435 -0.360034 0
M  V30 5 C 4.26446 0.759958 -1.33963 0
M  V30 6 C 4.14542 2.12915 -1.45575 0
M  V30 7 C 4.84652 2.98193 -0.627251 0
M  V30 8 S 3.38694 -0.345606 -2.37726 0
M  V30 9 O 4.28169 -1.5582 -2.55805 0
M  V30 10 O 3.26331 0.281339 -3.7516 0
M  V30 11 C 1.84081 -0.779704 -1.72316 0
M  V30 12 C 0.63037 -0.145673 -1.91979 0
M  V30 13 N 0.430891 1.00005 -2.7099 0
M  V30 14 N -0.347636 -0.775779 -1.24734 0
M  V30 15 C 0.212567 -1.82488 -0.606439 0
M  V30 16 C 1.56625 -1.85357 -0.881654 0
M  V30 17 N 2.39178 -2.79656 -0.376008 0
M  V30 18 C 1.83403 -3.73293 0.427375 0
M  V30 19 C 2.68939 -4.68918 0.936139 0
M  V30 20 C 2.1391 -5.65446 1.75894 0
M  V30 21 C 0.798469 -5.67214 2.06503 0
M  V30 22 C -0.0184868 -4.70805 1.54217 0
M  V30 23 C 0.484378 -3.71393 0.708757 0
M  V30 24 N -0.3313 -2.76652 0.197748 0
M  V30 25 C -1.7531 -0.418936 -1.19961 0
M  V30 26 C -1.98593 0.529603 -0.047723 0
M  V30 27 C -3.41205 0.910607 0.0250331 0
M  V30 28 C -4.28114 0.156289 0.781693 0
M  V30 29 C -5.62628 0.46577 0.886318 0
M  V30 30 C -6.12468 1.55271 0.223028 0
M  V30 31 C -5.28086 2.32424 -0.539893 0
M  V30 32 C -3.92878 2.00323 -0.637889 0
M  V30 33 S -7.83827 1.94966 0.354385 0
M  V30 34 O -8.30404 2.62658 -0.886011 0
M  V30 35 O -8.61854 0.682198 0.531644 0
M  V30 36 N -8.09762 3.01465 1.68886 0
M  V30 37 H 7.4788 3.00959 1.37501 0
M  V30 38 H 6.60905 4.42603 0.760742 0
M  V30 39 H 6.02319 3.50419 2.25617 0
M  V30 40 H 6.48397 0.768553 1.23956 0
M  V30 41 H 5.21754 -0.785742 -0.257231 0
M  V30 42 H 3.48859 2.51273 -2.21276 0
M  V30 43 H 4.76627 4.07387 -0.702794 0
M  V30 44 H 0.0496362 0.987085 -3.68003 0
M  V30 45 H 0.6763 1.93169 -2.31178 0
M  V30 46 H 3.73945 -4.73202 0.737642 0
M  V30 47 H 2.77878 -6.41949 2.17572 0
M  V30 48 H 0.370701 -6.43898 2.71662 0
M  V30 49 H -1.07714 -4.71095 1.77584 0
M  V30 50 H -2.00873 0.0969932 -2.15208 0
M  V30 51 H -2.40951 -1.28496 -1.09038 0
M  V30 52 H -1.67967 0.0680968 0.902302 0
M  V30 53 H -1.40892 1.46603 -0.199596 0
M  V30 54 H -3.90903 -0.700812 1.30983 0
M  V30 55 H -6.29166 -0.138687 1.48508 0
M  V30 56 H -5.70956 3.17469 -1.04942 0
M  V30 57 H -3.30977 2.6313 -1.24239 0
M  V30 58 H -8.95536 3.58416 1.52659 0
M  V30 59 H -7.25503 3.65958 1.71978 0
M  V30 END ATOM
M  V30 BEGIN BOND
M  V30 1 1 1 2
M  V30 2 2 2 3
M  V30 3 1 3 4
M  V30 4 2 4 5
M  V30 5 1 5 6
M  V30 6 2 6 7
M  V30 7 1 5 8
M  V30 8 2 8 9
M  V30 9 2 8 10
M  V30 10 1 8 11
M  V30 11 2 11 12
M  V30 12 1 12 13
M  V30 13 1 12 14
M  V30 14 1 14 15
M  V30 15 2 15 16
M  V30 16 1 16 17
M  V30 17 2 17 18
M  V30 18 1 18 19
M  V30 19 2 19 20
M  V30 20 1 20 21
M  V30 21 2 21 22
M  V30 22 1 22 23
M  V30 23 2 23 24
M  V30 24 1 14 25
M  V30 25 1 25 26
M  V30 26 1 26 27
M  V30 27 2 27 28
M  V30 28 1 28 29
M  V30 29 2 29 30
M  V30 30 1 30 31
M  V30 31 2 31 32
M  V30 32 1 30 33
M  V30 33 2 33 34
M  V30 34 2 33 35
M  V30 35 1 33 36
M  V30 36 1 7 2
M  V30 37 1 16 11
M  V30 38 1 23 18
M  V30 39 1 32 27
M  V30 40 1 24 15
M  V30 41 1 1 37
M  V30 42 1 1 38
M  V30 43 1 1 39
M  V30 44 1 3 40
M  V30 45 1 4 41
M  V30 46 1 6 42
M  V30 47 1 7 43
M  V30 48 1 13 44
M  V30 49 1 13 45
M  V30 50 1 19 46
M  V30 51 1 20 47
M  V30 52 1 21 48
M  V30 53 1 22 49
M  V30 54 1 25 50
M  V30 55 1 25 51
M  V30 56 1 26 52
M  V30 57 1 26 53
M  V30 58 1 28 54
M  V30 59 1 29 55
M  V30 60 1 31 56
M  V30 61 1 32 57
M  V30 62 1 36 58
M  V30 63 1 36 59
M  V30 END BOND
M  V30 END CTAB
M  END
