
     RDKit          3D

  0  0  0  0  0  0  0  0  0  0999 V3000
M  V30 BEGIN CTAB
M  V30 COUNTS 38 40 0 0 0
M  V30 BEGIN ATOM
M  V30 1 N -0.905677 -3.59561 1.49354 0
M  V30 2 C -0.718071 -2.30655 0.951672 0
M  V30 3 C 0.278905 -2.06476 0.024672 0
M  V30 4 C 0.485973 -0.81896 -0.521098 0
M  V30 5 C -0.337384 0.208973 -0.118232 0
M  V30 6 C -1.34282 0.0107888 0.803148 0
M  V30 7 C -1.53672 -1.24342 1.3401 0
M  V30 8 O -2.18278 1.06407 1.21277 0
M  V30 9 C -3.33654 1.23162 0.452003 0
M  V30 10 C -3.38266 2.04484 -0.652042 0
M  V30 11 C -4.54709 2.20286 -1.40512 0
M  V30 12 C -5.6581 1.4993 -0.986363 0
M  V30 13 C -5.63811 0.680578 0.11283 0
M  V30 14 C -4.47039 0.549717 0.831275 0
M  V30 15 O 1.50788 -0.612654 -1.45901 0
M  V30 16 C 2.7504 -0.249752 -0.959031 0
M  V30 17 C 3.72155 -1.17931 -0.611475 0
M  V30 18 C 4.93154 -0.734524 -0.12132 0
M  V30 19 C 5.19586 0.604763 0.0300122 0
M  V30 20 C 4.23955 1.53331 -0.311766 0
M  V30 21 C 3.02217 1.09146 -0.804711 0
M  V30 22 N 6.43468 1.06093 0.531869 0
M  V30 23 H -0.256303 -3.96132 2.20236 0
M  V30 24 H -1.6998 -4.16868 1.17293 0
M  V30 25 H 0.908477 -2.89042 -0.27166 0
M  V30 26 H -0.18585 1.20993 -0.544007 0
M  V30 27 H -2.32538 -1.44789 2.07731 0
M  V30 28 H -2.51543 2.5809 -0.961445 0
M  V30 29 H -4.55206 2.85218 -2.2718 0
M  V30 30 H -6.5851 1.59501 -1.54582 0
M  V30 31 H -6.51286 0.119215 0.452399 0
M  V30 32 H -4.45585 -0.0956801 1.69719 0
M  V30 33 H 3.47184 -2.22195 -0.746512 0
M  V30 34 H 5.69075 -1.44647 0.150911 0
M  V30 35 H 4.38935 2.60077 -0.215002 0
M  V30 36 H 2.25977 1.81314 -1.07785 0
M  V30 37 H 7.34551 0.698929 0.171052 0
M  V30 38 H 6.51076 1.78469 1.29076 0
M  V30 END ATOM
M  V30 BEGIN BOND
M  V30 1 1 1 2
M  V30 2 2 2 3
M  V30 3 1 3 4
M  V30 4 2 4 5
M  V30 5 1 5 6
M  V30 6 2 6 7
M  V30 7 1 6 8
M  V30 8 1 8 9
M  V30 9 2 9 10
M  V30 10 1 10 11
M  V30 11 2 11 12
M  V30 12 1 12 13
M  V30 13 2 13 14
M  V30 14 1 4 15
M  V30 15 1 15 16
M  V30 16 2 16 17
M  V30 17 1 17 18
M  V30 18 2 18 19
M  V30 19 1 19 20
M  V30 20 2 20 21
M  V30 21 1 19 22
M  V30 22 1 7 2
M  V30 23 1 14 9
M  V30 24 1 21 16
M  V30 25 1 1 23
M  V30 26 1 1 24
M  V30 27 1 3 25
M  V30 28 1 5 26
M  V30 29 1 7 27
M  V30 30 1 10 28
M  V30 31 1 11 29
M  V30 32 1 12 30
M  V30 33 1 13 31
M  V30 34 1 14 32
M  V30 35 1 17 33
M  V30 36 1 18 34
M  V30 37 1 20 35
M  V30 38 1 21 36
M  V30 39 1 22 37
M  V30 40 1 22 38
M  V30 END BOND
M  V30 END CTAB
M  END
