
     RDKit          3D

  0  0  0  0  0  0  0  0  0  0999 V3000
M  V30 BEGIN CTAB
M  V30 COUNTS 37 39 0 0 0
M  V30 BEGIN ATOM
M  V30 1 C 5.89693 -0.228382 0.332808 0
M  V30 2 C 5.382 -1.06046 1.03245 0
M  V30 3 C 4.74919 -2.09253 1.8694 0
M  V30 4 S 3.64642 -3.11707 0.851931 0
M  V30 5 C 2.2814 -2.09957 0.284923 0
M  V30 6 N 2.17526 -0.803919 0.611604 0
M  V30 7 C 1.19042 0.00234186 0.224189 0
M  V30 8 N 1.14521 1.37887 0.596059 0
M  V30 9 C 0.179065 -0.538332 -0.590223 0
M  V30 10 C 0.255777 -1.84845 -0.941477 0
M  V30 11 N 1.30668 -2.59081 -0.491886 0
M  V30 12 O -0.701148 -2.49218 -1.75764 0
M  V30 13 C -1.74639 -1.68349 -2.18515 0
M  V30 14 C -1.87561 -0.427531 -1.87909 0
M  V30 15 C -0.933946 0.28023 -1.04423 0
M  V30 16 C -1.56166 1.11198 -0.0028663 0
M  V30 17 C -1.67585 2.45196 -0.202037 0
M  V30 18 C -2.26592 3.29811 0.743656 0
M  V30 19 C -2.72901 2.70143 1.8957 0
M  V30 20 C -2.62211 1.32759 2.12122 0
M  V30 21 C -2.0268 0.540165 1.14533 0
M  V30 22 F -3.10376 0.830654 3.27912 0
M  V30 23 C -3.05804 0.264963 -2.43501 0
M  V30 24 N -3.98779 0.834803 -2.86293 0
M  V30 25 N -2.77448 -2.28195 -3.03856 0
M  V30 26 H 6.35163 0.496984 -0.301727 0
M  V30 27 H 5.52314 -2.70446 2.33188 0
M  V30 28 H 4.17352 -1.58441 2.66575 0
M  V30 29 H 0.850149 1.72716 1.53308 0
M  V30 30 H 1.43665 2.05696 -0.144886 0
M  V30 31 H -0.435381 1.03833 -1.75315 0
M  V30 32 H -1.32029 2.97061 -1.10637 0
M  V30 33 H -2.35129 4.36228 0.574029 0
M  V30 34 H -3.19281 3.35293 2.64391 0
M  V30 35 H -1.97054 -0.520204 1.37377 0
M  V30 36 H -3.62783 -2.66204 -2.62504 0
M  V30 37 H -2.58277 -2.29256 -4.0516 0
M  V30 END ATOM
M  V30 BEGIN BOND
M  V30 1 3 1 2
M  V30 2 1 2 3
M  V30 3 1 3 4
M  V30 4 1 4 5
M  V30 5 2 5 6
M  V30 6 1 6 7
M  V30 7 1 7 8
M  V30 8 2 7 9
M  V30 9 1 9 10
M  V30 10 2 10 11
M  V30 11 1 10 12
M  V30 12 1 12 13
M  V30 13 2 13 14
M  V30 14 1 14 15
M  V30 15 1 15 16
M  V30 16 2 16 17
M  V30 17 1 17 18
M  V30 18 2 18 19
M  V30 19 1 19 20
M  V30 20 2 20 21
M  V30 21 1 20 22
M  V30 22 1 14 23
M  V30 23 3 23 24
M  V30 24 1 13 25
M  V30 25 1 11 5
M  V30 26 1 21 16
M  V30 27 1 15 9
M  V30 28 1 1 26
M  V30 29 1 3 27
M  V30 30 1 3 28
M  V30 31 1 8 29
M  V30 32 1 8 30
M  V30 33 1 15 31
M  V30 34 1 17 32
M  V30 35 1 18 33
M  V30 36 1 19 34
M  V30 37 1 21 35
M  V30 38 1 25 36
M  V30 39 1 25 37
M  V30 END BOND
M  V30 END CTAB
M  END
