
     RDKit          3D

  0  0  0  0  0  0  0  0  0  0999 V3000
M  V30 BEGIN CTAB
M  V30 COUNTS 33 34 0 0 0
M  V30 BEGIN ATOM
M  V30 1 N -1.79102 3.53047 -0.574321 0
M  V30 2 C -1.95527 2.39462 -0.423538 0
M  V30 3 C -2.18175 0.957855 -0.250667 0
M  V30 4 C -3.10656 0.40788 -0.999587 0
M  V30 5 N -3.8669 1.16792 -1.94639 0
M  V30 6 S -3.3791 -1.3369 -0.794861 0
M  V30 7 C -2.61458 -1.84796 0.730567 0
M  V30 8 C -1.75304 -0.993245 1.251 0
M  V30 9 C -1.36097 0.299586 0.731198 0
M  V30 10 C 0.0740622 0.279986 0.299125 0
M  V30 11 C 1.03225 0.999339 0.97869 0
M  V30 12 C 2.33711 0.944578 0.536882 0
M  V30 13 C 2.73505 0.199758 -0.560298 0
M  V30 14 C 1.76298 -0.523498 -1.24109 0
M  V30 15 C 0.453465 -0.467584 -0.796436 0
M  V30 16 O 2.07711 -1.29558 -2.35056 0
M  V30 17 O 4.04271 0.154939 -0.989808 0
M  V30 18 C 5.1033 0.832479 -0.39489 0
M  V30 19 C -1.13526 -1.42661 2.49919 0
M  V30 20 N -0.633029 -1.7785 3.48111 0
M  V30 21 N -2.92271 -3.09107 1.3298 0
M  V30 22 H -4.29304 0.649751 -2.73581 0
M  V30 23 H -4.0098 2.18249 -1.8854 0
M  V30 24 H -1.36455 0.990659 1.64176 0
M  V30 25 H 0.774576 1.61034 1.85928 0
M  V30 26 H 3.0704 1.52986 1.10312 0
M  V30 27 H -0.261598 -1.04546 -1.35791 0
M  V30 28 H 3.04271 -1.31748 -2.65287 0
M  V30 29 H 4.78074 1.82402 0.0344646 0
M  V30 30 H 5.46758 0.224728 0.464662 0
M  V30 31 H 5.93632 1.05653 -1.09076 0
M  V30 32 H -2.24005 -3.8655 1.28259 0
M  V30 33 H -3.82114 -3.24841 1.81886 0
M  V30 END ATOM
M  V30 BEGIN BOND
M  V30 1 3 1 2
M  V30 2 1 2 3
M  V30 3 2 3 4
M  V30 4 1 4 5
M  V30 5 1 4 6
M  V30 6 1 6 7
M  V30 7 2 7 8
M  V30 8 1 8 9
M  V30 9 1 9 10
M  V30 10 2 10 11
M  V30 11 1 11 12
M  V30 12 2 12 13
M  V30 13 1 13 14
M  V30 14 2 14 15
M  V30 15 1 14 16
M  V30 16 1 13 17
M  V30 17 1 17 18
M  V30 18 1 8 19
M  V30 19 3 19 20
M  V30 20 1 7 21
M  V30 21 1 9 3
M  V30 22 1 15 10
M  V30 23 1 5 22
M  V30 24 1 5 23
M  V30 25 1 9 24
M  V30 26 1 11 25
M  V30 27 1 12 26
M  V30 28 1 15 27
M  V30 29 1 16 28
M  V30 30 1 18 29
M  V30 31 1 18 30
M  V30 32 1 18 31
M  V30 33 1 21 32
M  V30 34 1 21 33
M  V30 END BOND
M  V30 END CTAB
M  END
