
     RDKit          3D

  0  0  0  0  0  0  0  0  0  0999 V3000
M  V30 BEGIN CTAB
M  V30 COUNTS 58 63 0 0 0
M  V30 BEGIN ATOM
M  V30 1 N 4.36833 -2.2843 -1.21089 0
M  V30 2 C 3.10814 -1.80535 -0.761836 0
M  V30 3 C 1.9881 -2.58632 -0.91963 0
M  V30 4 C 0.772134 -2.13019 -0.491218 0
M  V30 5 C 0.604799 -0.881976 0.114161 0
M  V30 6 C -0.663582 -0.485237 0.67519 0
M  V30 7 C -0.838372 -0.664326 2.05994 0
M  V30 8 C -2.03526 -0.438012 2.65912 0
M  V30 9 C -3.09908 -0.0271671 1.91424 0
M  V30 10 N -4.38327 0.223193 2.51261 0
M  V30 11 C -2.94167 0.154589 0.550464 0
M  V30 12 C -1.73054 -0.0713866 -0.0758809 0
M  V30 13 C -1.60404 0.156381 -1.52369 0
M  V30 14 O -0.523745 -0.03818 -2.09654 0
M  V30 15 C -2.75496 0.618958 -2.30134 0
M  V30 16 C -3.96386 0.842633 -1.67541 0
M  V30 17 C -5.04773 1.28474 -2.43383 0
M  V30 18 C -4.94481 1.50442 -3.78928 0
M  V30 19 C -3.72423 1.27512 -4.40618 0
M  V30 20 C -2.6397 0.836474 -3.66648 0
M  V30 21 C -4.09548 0.619685 -0.241398 0
M  V30 22 O -5.19008 0.820025 0.345562 0
M  V30 23 S -2.26604 -0.666525 4.38884 0
M  V30 24 O -3.45521 -1.85612 4.57786 0
M  V30 25 O -1.01341 -1.0167 5.09679 0
M  V30 26 O -2.80166 0.623962 4.93905 0
M  V30 27 C 1.71682 -0.106266 0.268526 0
M  V30 28 C 2.96288 -0.56133 -0.164782 0
M  V30 29 C 4.15923 0.254131 -0.0281546 0
M  V30 30 O 5.27426 -0.179074 -0.426212 0
M  V30 31 C 4.10628 1.58579 0.566509 0
M  V30 32 C 2.88996 2.05883 0.999402 0
M  V30 33 C 2.79306 3.30442 1.56232 0
M  V30 34 C 3.92127 4.07212 1.68985 0
M  V30 35 C 5.14047 3.59225 1.25446 0
M  V30 36 C 5.26339 2.35691 0.690826 0
M  V30 37 C 1.67872 1.22158 0.856799 0
M  V30 38 O 0.591623 1.72536 1.27479 0
M  V30 39 S 2.14495 -4.16711 -1.65295 0
M  V30 40 O 2.74206 -4.05296 -3.19236 0
M  V30 41 O 3.00335 -5.09582 -0.844626 0
M  V30 42 O 0.762759 -4.79909 -1.75252 0
M  V30 43 H 4.71224 -2.12651 -2.18171 0
M  V30 44 H 4.95012 -2.80853 -0.533731 0
M  V30 45 H -0.112685 -2.73235 -0.61024 0
M  V30 46 H 0.00154059 -0.986742 2.64351 0
M  V30 47 H -4.67087 1.13869 2.89485 0
M  V30 48 H -5.06022 -0.563204 2.56392 0
M  V30 49 H -5.96726 1.44693 -1.91963 0
M  V30 50 H -5.77202 1.84792 -4.39243 0
M  V30 51 H -3.61826 1.43846 -5.46192 0
M  V30 52 H -1.70066 0.664531 -4.16948 0
M  V30 53 H -3.367 -2.55499 3.86644 0
M  V30 54 H 1.81266 3.64046 1.88828 0
M  V30 55 H 3.85352 5.03539 2.1268 0
M  V30 56 H 5.9962 4.22728 1.37555 0
M  V30 57 H 6.21076 1.94523 0.337105 0
M  V30 58 H 2.45607 -4.83069 -3.76942 0
M  V30 END ATOM
M  V30 BEGIN BOND
M  V30 1 1 1 2
M  V30 2 2 2 3
M  V30 3 1 3 4
M  V30 4 2 4 5
M  V30 5 1 5 6
M  V30 6 2 6 7
M  V30 7 1 7 8
M  V30 8 2 8 9
M  V30 9 1 9 10
M  V30 10 1 9 11
M  V30 11 2 11 12
M  V30 12 1 12 13
M  V30 13 2 13 14
M  V30 14 1 13 15
M  V30 15 2 15 16
M  V30 16 1 16 17
M  V30 17 2 17 18
M  V30 18 1 18 19
M  V30 19 2 19 20
M  V30 20 1 16 21
M  V30 21 2 21 22
M  V30 22 1 8 23
M  V30 23 1 23 24
M  V30 24 2 23 25
M  V30 25 2 23 26
M  V30 26 1 5 27
M  V30 27 2 27 28
M  V30 28 1 28 29
M  V30 29 2 29 30
M  V30 30 1 29 31
M  V30 31 2 31 32
M  V30 32 1 32 33
M  V30 33 2 33 34
M  V30 34 1 34 35
M  V30 35 2 35 36
M  V30 36 1 32 37
M  V30 37 2 37 38
M  V30 38 1 3 39
M  V30 39 1 39 40
M  V30 40 2 39 41
M  V30 41 2 39 42
M  V30 42 1 28 2
M  V30 43 1 36 31
M  V30 44 1 12 6
M  V30 45 1 20 15
M  V30 46 1 37 27
M  V30 47 1 21 11
M  V30 48 1 1 43
M  V30 49 1 1 44
M  V30 50 1 4 45
M  V30 51 1 7 46
M  V30 52 1 10 47
M  V30 53 1 10 48
M  V30 54 1 17 49
M  V30 55 1 18 50
M  V30 56 1 19 51
M  V30 57 1 20 52
M  V30 58 1 24 53
M  V30 59 1 33 54
M  V30 60 1 34 55
M  V30 61 1 35 56
M  V30 62 1 36 57
M  V30 63 1 40 58
M  V30 END BOND
M  V30 END CTAB
M  END
