
     RDKit          3D

  0  0  0  0  0  0  0  0  0  0999 V3000
M  V30 BEGIN CTAB
M  V30 COUNTS 57 61 0 0 0
M  V30 BEGIN ATOM
M  V30 1 N 7.93736 1.24533 1.4224 0
M  V30 2 C 6.74159 0.572302 1.06164 0
M  V30 3 N 5.55386 1.0395 1.47633 0
M  V30 4 C 4.37861 0.485906 1.1935 0
M  V30 5 O 3.08047 0.838193 1.53796 0
M  V30 6 C 2.22862 0.292402 0.515448 0
M  V30 7 C 2.89349 -1.04603 0.271635 0
M  V30 8 C 4.34244 -0.664919 0.410984 0
M  V30 9 C 5.54148 -1.16325 -0.0262636 0
M  V30 10 N 6.71061 -0.536652 0.307027 0
M  V30 11 N 5.55412 -2.33195 -0.829667 0
M  V30 12 C 2.3865 1.11878 -0.73607 0
M  V30 13 O 2.28511 0.342362 -1.87091 0
M  V30 14 C 1.0126 0.021814 -2.22143 0
M  V30 15 C -0.083591 0.573673 -1.37284 0
M  V30 16 N -0.154177 -0.00128654 -0.0430606 0
M  V30 17 C 0.826277 0.208536 1.00461 0
M  V30 18 C -1.26778 -0.809396 0.290261 0
M  V30 19 O -1.28221 -1.34819 1.44345 0
M  V30 20 C -2.35637 -1.04343 -0.606301 0
M  V30 21 C -2.1938 -1.98768 -1.64432 0
M  V30 22 C -3.21657 -2.22682 -2.52465 0
M  V30 23 C -4.40594 -1.54997 -2.40358 0
M  V30 24 C -4.57191 -0.62828 -1.39265 0
M  V30 25 C -3.53436 -0.361534 -0.470457 0
M  V30 26 C -3.74203 0.636274 0.531886 0
M  V30 27 C -3.1451 1.88498 0.522128 0
M  V30 28 C -3.4465 2.8696 1.42902 0
M  V30 29 C -4.37434 2.66703 2.41373 0
M  V30 30 C -4.99194 1.45175 2.46846 0
M  V30 31 C -4.68934 0.438772 1.54755 0
M  V30 32 C -5.35887 -0.824509 1.78005 0
M  V30 33 O -5.13445 -1.8641 1.15017 0
M  V30 34 O -6.34907 -0.948264 2.78292 0
M  V30 35 H 7.95524 2.26513 1.68011 0
M  V30 36 H 8.85082 0.75032 1.44654 0
M  V30 37 H 2.77448 -1.39514 -0.765536 0
M  V30 38 H 2.6827 -1.79434 1.0369 0
M  V30 39 H 6.02821 -2.3549 -1.75325 0
M  V30 40 H 5.07807 -3.18453 -0.4844 0
M  V30 41 H 3.46034 1.5288 -0.780545 0
M  V30 42 H 1.77608 2.01838 -0.774443 0
M  V30 43 H 0.909277 -1.08696 -2.23753 0
M  V30 44 H 0.830777 0.434042 -3.25956 0
M  V30 45 H -1.03562 0.375544 -1.94306 0
M  V30 46 H -0.0700461 1.67542 -1.29175 0
M  V30 47 H 0.540921 1.07302 1.65388 0
M  V30 48 H 0.805754 -0.72009 1.66991 0
M  V30 49 H -1.22251 -2.50572 -1.70071 0
M  V30 50 H -3.05357 -2.95848 -3.30474 0
M  V30 51 H -5.2159 -1.74965 -3.11552 0
M  V30 52 H -5.48514 -0.0681486 -1.24987 0
M  V30 53 H -2.42397 2.06917 -0.25791 0
M  V30 54 H -2.92252 3.81907 1.3406 0
M  V30 55 H -4.63391 3.42378 3.14121 0
M  V30 56 H -5.73567 1.27552 3.24915 0
M  V30 57 H -7.06864 -0.241189 2.85825 0
M  V30 END ATOM
M  V30 BEGIN BOND
M  V30 1 1 1 2
M  V30 2 2 2 3
M  V30 3 1 3 4
M  V30 4 1 4 5
M  V30 5 1 5 6
M  V30 6 1 6 7
M  V30 7 1 7 8
M  V30 8 1 8 9
M  V30 9 2 9 10
M  V30 10 1 9 11
M  V30 11 1 6 12
M  V30 12 1 12 13
M  V30 13 1 13 14
M  V30 14 1 14 15
M  V30 15 1 15 16
M  V30 16 1 16 17
M  V30 17 1 16 18
M  V30 18 2 18 19
M  V30 19 1 18 20
M  V30 20 2 20 21
M  V30 21 1 21 22
M  V30 22 2 22 23
M  V30 23 1 23 24
M  V30 24 2 24 25
M  V30 25 1 25 26
M  V30 26 2 26 27
M  V30 27 1 27 28
M  V30 28 2 28 29
M  V30 29 1 29 30
M  V30 30 2 30 31
M  V30 31 1 31 32
M  V30 32 2 32 33
M  V30 33 1 32 34
M  V30 34 1 10 2
M  V30 35 1 25 20
M  V30 36 1 31 26
M  V30 37 2 8 4
M  V30 38 1 17 6
M  V30 39 1 1 35
M  V30 40 1 1 36
M  V30 41 1 7 37
M  V30 42 1 7 38
M  V30 43 1 11 39
M  V30 44 1 11 40
M  V30 45 1 12 41
M  V30 46 1 12 42
M  V30 47 1 14 43
M  V30 48 1 14 44
M  V30 49 1 15 45
M  V30 50 1 15 46
M  V30 51 1 17 47
M  V30 52 1 17 48
M  V30 53 1 21 49
M  V30 54 1 22 50
M  V30 55 1 23 51
M  V30 56 1 24 52
M  V30 57 1 27 53
M  V30 58 1 28 54
M  V30 59 1 29 55
M  V30 60 1 30 56
M  V30 61 1 34 57
M  V30 END BOND
M  V30 END CTAB
M  END
