
     RDKit          3D

  0  0  0  0  0  0  0  0  0  0999 V3000
M  V30 BEGIN CTAB
M  V30 COUNTS 21 21 0 0 0
M  V30 BEGIN ATOM
M  V30 1 N -3.33323 0.563717 -0.34263 0
M  V30 2 C -1.92953 0.35103 -0.389116 0
M  V30 3 C -1.32194 -0.229976 0.691031 0
M  V30 4 N -1.9944 -0.629722 1.85066 0
M  V30 5 C 0.0708029 -0.459498 0.683796 0
M  V30 6 C 0.837052 -0.129589 -0.351153 0
M  V30 7 C 0.190831 0.455079 -1.41808 0
M  V30 8 C -1.18304 0.712701 -1.4821 0
M  V30 9 S 2.78427 -0.645182 -0.449236 0
M  V30 10 F 4.27254 0.63363 -1.57074 0
M  V30 11 F 3.65651 0.241478 1.97115 0
M  V30 12 F 3.38452 -1.59506 -1.34363 0
M  V30 13 F 3.26857 1.84207 0.253288 0
M  V30 14 F 3.72369 -1.85854 0.987775 0
M  V30 15 H -4.02966 -0.0550568 -0.831615 0
M  V30 16 H -3.69718 1.3741 0.203344 0
M  V30 17 H -2.87433 -0.139777 2.10943 0
M  V30 18 H -1.67408 -1.39147 2.48122 0
M  V30 19 H 0.520977 -0.916241 1.54174 0
M  V30 20 H 0.883675 0.710802 -2.23269 0
M  V30 21 H -1.55606 1.1655 -2.36245 0
M  V30 END ATOM
M  V30 BEGIN BOND
M  V30 1 1 1 2
M  V30 2 2 2 3
M  V30 3 1 3 4
M  V30 4 1 3 5
M  V30 5 2 5 6
M  V30 6 1 6 7
M  V30 7 2 7 8
M  V30 8 1 6 9
M  V30 9 1 9 10
M  V30 10 1 9 11
M  V30 11 1 9 12
M  V30 12 1 9 13
M  V30 13 1 9 14
M  V30 14 1 8 2
M  V30 15 1 1 15
M  V30 16 1 1 16
M  V30 17 1 4 17
M  V30 18 1 4 18
M  V30 19 1 5 19
M  V30 20 1 7 20
M  V30 21 1 8 21
M  V30 END BOND
M  V30 END CTAB
M  END
