
     RDKit          3D

  0  0  0  0  0  0  0  0  0  0999 V3000
M  V30 BEGIN CTAB
M  V30 COUNTS 29 30 0 0 0
M  V30 BEGIN ATOM
M  V30 1 C -0.76997 -0.566264 -2.02431 0
M  V30 2 C -0.66334 -0.0746215 -0.574126 0
M  V30 3 C -1.24063 -1.04159 0.472465 0
M  V30 4 C -1.89395 0.279279 0.0903022 0
M  V30 5 C -2.03858 1.23626 1.2232 0
M  V30 6 C -3.19661 0.078707 -0.694809 0
M  V30 7 C 0.666696 0.434152 -0.224295 0
M  V30 8 N 1.05834 1.65349 0.202202 0
M  V30 9 C 2.36138 1.71269 0.412026 0
M  V30 10 N 2.86018 0.503325 0.119693 0
M  V30 11 C 1.83946 -0.307497 -0.275892 0
M  V30 12 N 2.03067 -1.66002 -0.656857 0
M  V30 13 N 4.20375 0.159581 0.213571 0
M  V30 14 H -1.47449 -1.42609 -2.09475 0
M  V30 15 H -1.14173 0.228933 -2.69399 0
M  V30 16 H 0.195661 -0.90923 -2.41326 0
M  V30 17 H -1.65256 -1.97888 0.0870769 0
M  V30 18 H -0.734917 -1.10462 1.45313 0
M  V30 19 H -2.74171 2.06767 0.960554 0
M  V30 20 H -1.11921 1.66291 1.60867 0
M  V30 21 H -2.55877 0.682065 2.05808 0
M  V30 22 H -4.06463 0.24099 -0.0250035 0
M  V30 23 H -3.28153 -0.95201 -1.08288 0
M  V30 24 H -3.28321 0.84596 -1.4987 0
M  V30 25 H 2.95602 2.56968 0.758836 0
M  V30 26 H 2.19816 -1.97865 -1.63452 0
M  V30 27 H 2.00608 -2.4024 0.0735403 0
M  V30 28 H 4.53771 -0.838168 0.278117 0
M  V30 29 H 4.94173 0.884363 0.223888 0
M  V30 END ATOM
M  V30 BEGIN BOND
M  V30 1 1 1 2
M  V30 2 1 2 3
M  V30 3 1 3 4
M  V30 4 1 4 5
M  V30 5 1 4 6
M  V30 6 1 2 7
M  V30 7 1 7 8
M  V30 8 2 8 9
M  V30 9 1 9 10
M  V30 10 1 10 11
M  V30 11 1 11 12
M  V30 12 1 10 13
M  V30 13 1 4 2
M  V30 14 2 11 7
M  V30 15 1 1 14
M  V30 16 1 1 15
M  V30 17 1 1 16
M  V30 18 1 3 17
M  V30 19 1 3 18
M  V30 20 1 5 19
M  V30 21 1 5 20
M  V30 22 1 5 21
M  V30 23 1 6 22
M  V30 24 1 6 23
M  V30 25 1 6 24
M  V30 26 1 9 25
M  V30 27 1 12 26
M  V30 28 1 12 27
M  V30 29 1 13 28
M  V30 30 1 13 29
M  V30 END BOND
M  V30 END CTAB
M  END
