
     RDKit          3D

  0  0  0  0  0  0  0  0  0  0999 V3000
M  V30 BEGIN CTAB
M  V30 COUNTS 27 27 0 0 0
M  V30 BEGIN ATOM
M  V30 1 C 3.95224 0.371955 -1.14592 0
M  V30 2 C 3.09831 -0.137766 -0.0354056 0
M  V30 3 C 1.61414 0.00742046 -0.340021 0
M  V30 4 S 0.634485 -0.628125 1.04485 0
M  V30 5 C -1.07322 -0.440662 0.649021 0
M  V30 6 N -1.72104 0.677923 0.972149 0
M  V30 7 C -3.02278 0.809173 0.665209 0
M  V30 8 N -3.67237 2.01259 1.02603 0
M  V30 9 C -3.7094 -0.216967 0.00841132 0
M  V30 10 C -3.01731 -1.35314 -0.310242 0
M  V30 11 N -1.71511 -1.43151 0.0207635 0
M  V30 12 N -3.62079 -2.43922 -0.97096 0
M  V30 13 F 3.39638 -1.4647 0.258764 0
M  V30 14 C 3.38979 0.649502 1.22773 0
M  V30 15 H 3.37707 0.896175 -1.94181 0
M  V30 16 H 4.73073 1.09124 -0.804454 0
M  V30 17 H 4.49048 -0.470771 -1.62149 0
M  V30 18 H 1.35701 1.05633 -0.494504 0
M  V30 19 H 1.40362 -0.573895 -1.2691 0
M  V30 20 H -3.77792 2.27523 2.01584 0
M  V30 21 H -4.03987 2.62526 0.284308 0
M  V30 22 H -4.74545 -0.0746849 -0.218854 0
M  V30 23 H -3.61024 -2.48383 -2.00142 0
M  V30 24 H -4.07291 -3.18927 -0.425986 0
M  V30 25 H 3.02209 1.6716 1.09231 0
M  V30 26 H 2.84982 0.117645 2.0647 0
M  V30 27 H 4.48222 0.642511 1.44666 0
M  V30 END ATOM
M  V30 BEGIN BOND
M  V30 1 1 1 2
M  V30 2 1 2 3
M  V30 3 1 3 4
M  V30 4 1 4 5
M  V30 5 2 5 6
M  V30 6 1 6 7
M  V30 7 1 7 8
M  V30 8 2 7 9
M  V30 9 1 9 10
M  V30 10 2 10 11
M  V30 11 1 10 12
M  V30 12 1 2 13
M  V30 13 1 2 14
M  V30 14 1 11 5
M  V30 15 1 1 15
M  V30 16 1 1 16
M  V30 17 1 1 17
M  V30 18 1 3 18
M  V30 19 1 3 19
M  V30 20 1 8 20
M  V30 21 1 8 21
M  V30 22 1 9 22
M  V30 23 1 12 23
M  V30 24 1 12 24
M  V30 25 1 14 25
M  V30 26 1 14 26
M  V30 27 1 14 27
M  V30 END BOND
M  V30 END CTAB
M  END
