
     RDKit          3D

  0  0  0  0  0  0  0  0  0  0999 V3000
M  V30 BEGIN CTAB
M  V30 COUNTS 32 32 0 0 0
M  V30 BEGIN ATOM
M  V30 1 C -1.56683 1.40307 -1.99909 0
M  V30 2 C -1.27647 1.45968 -0.539376 0
M  V30 3 N -0.844825 0.20287 0.0385374 0
M  V30 4 C 0.482109 0.0890793 0.514109 0
M  V30 5 N 0.709212 -0.157321 1.82865 0
M  V30 6 C 1.92003 -0.277362 2.37045 0
M  V30 7 C 3.04091 -0.151488 1.58973 0
M  V30 8 C 2.86955 0.100504 0.240921 0
M  V30 9 C 1.59713 0.21728 -0.278715 0
M  V30 10 N 1.47883 0.472568 -1.66192 0
M  V30 11 N 4.03639 0.229421 -0.563325 0
M  V30 12 C -1.84238 -0.845724 0.0847483 0
M  V30 13 C -1.38374 -2.12792 0.666184 0
M  V30 14 C -3.04534 -0.373489 0.907831 0
M  V30 15 H -1.47212 0.37117 -2.42201 0
M  V30 16 H -2.62653 1.75038 -2.17274 0
M  V30 17 H -0.926013 2.11341 -2.55441 0
M  V30 18 H -0.51641 2.27245 -0.349156 0
M  V30 19 H -2.18369 1.82825 0.0247304 0
M  V30 20 H 2.02992 -0.477628 3.44457 0
M  V30 21 H 4.01652 -0.252019 2.04708 0
M  V30 22 H 1.24825 -0.352654 -2.28947 0
M  V30 23 H 1.5974 1.3946 -2.11362 0
M  V30 24 H 4.09209 1.06035 -1.17615 0
M  V30 25 H 4.76431 -0.514265 -0.490997 0
M  V30 26 H -2.24204 -0.932991 -0.963326 0
M  V30 27 H -1.81407 -2.33225 1.68818 0
M  V30 28 H -1.7945 -2.9558 0.0154483 0
M  V30 29 H -0.304423 -2.27314 0.74548 0
M  V30 30 H -3.69402 -1.27048 1.04246 0
M  V30 31 H -2.73108 -0.0818888 1.93789 0
M  V30 32 H -3.61816 0.411351 0.387301 0
M  V30 END ATOM
M  V30 BEGIN BOND
M  V30 1 1 1 2
M  V30 2 1 2 3
M  V30 3 1 3 4
M  V30 4 2 4 5
M  V30 5 1 5 6
M  V30 6 2 6 7
M  V30 7 1 7 8
M  V30 8 2 8 9
M  V30 9 1 9 10
M  V30 10 1 8 11
M  V30 11 1 3 12
M  V30 12 1 12 13
M  V30 13 1 12 14
M  V30 14 1 9 4
M  V30 15 1 1 15
M  V30 16 1 1 16
M  V30 17 1 1 17
M  V30 18 1 2 18
M  V30 19 1 2 19
M  V30 20 1 6 20
M  V30 21 1 7 21
M  V30 22 1 10 22
M  V30 23 1 10 23
M  V30 24 1 11 24
M  V30 25 1 11 25
M  V30 26 1 12 26
M  V30 27 1 13 27
M  V30 28 1 13 28
M  V30 29 1 13 29
M  V30 30 1 14 30
M  V30 31 1 14 31
M  V30 32 1 14 32
M  V30 END BOND
M  V30 END CTAB
M  END
