
     RDKit          3D

  0  0  0  0  0  0  0  0  0  0999 V3000
M  V30 BEGIN CTAB
M  V30 COUNTS 41 42 0 0 0
M  V30 BEGIN ATOM
M  V30 1 C -4.98173 0.101936 -1.12107 0
M  V30 2 C -4.1018 0.244702 0.0827605 0
M  V30 3 C -4.38967 1.59334 0.734692 0
M  V30 4 C -4.42423 -0.819394 1.13225 0
M  V30 5 C -2.63704 0.237045 -0.253544 0
M  V30 6 N -1.65813 -0.451481 0.353036 0
M  V30 7 N -0.484342 -0.17366 -0.205347 0
M  V30 8 C -0.675287 0.707728 -1.20346 0
M  V30 9 N 0.29976 1.25874 -2.04983 0
M  V30 10 C -2.05369 0.970208 -1.23351 0
M  V30 11 C 0.782702 -0.694993 0.244886 0
M  V30 12 C 1.94178 -3.05123e-06 0.28946 0
M  V30 13 C 3.13881 -0.501451 0.83986 0
M  V30 14 C 4.33964 0.309213 0.77829 0
M  V30 15 C 5.50292 -0.266843 -0.00669728 0
M  V30 16 N 6.55191 0.737427 -0.00439283 0
M  V30 17 C 3.13269 -1.77775 1.35843 0
M  V30 18 C 1.96239 -2.50706 1.31418 0
M  V30 19 C 0.808673 -1.9905 0.776302 0
M  V30 20 H -5.63552 -0.779541 -1.07671 0
M  V30 21 H -5.533 1.03911 -1.34729 0
M  V30 22 H -4.32541 -0.0592857 -2.0146 0
M  V30 23 H -5.46579 1.71715 0.769209 0
M  V30 24 H -3.9348 1.59515 1.74734 0
M  V30 25 H -3.91812 2.33257 0.0651238 0
M  V30 26 H -4.23011 -0.342067 2.14265 0
M  V30 27 H -5.50696 -0.984484 1.09451 0
M  V30 28 H -3.87019 -1.74903 1.00303 0
M  V30 29 H 0.794066 0.657316 -2.70156 0
M  V30 30 H 0.547776 2.28764 -2.03028 0
M  V30 31 H -2.46817 1.6589 -1.96464 0
M  V30 32 H 1.93147 1.01896 -0.11715 0
M  V30 33 H 4.05149 1.2918 0.228649 0
M  V30 34 H 4.62988 0.643514 1.80835 0
M  V30 35 H 5.18488 -0.449749 -1.04899 0
M  V30 36 H 5.86312 -1.21944 0.46302 0
M  V30 37 H 6.31387 1.40237 -0.78139 0
M  V30 38 H 6.6153 1.2619 0.906637 0
M  V30 39 H 4.02701 -2.22537 1.80946 0
M  V30 40 H 1.97998 -3.52237 1.72225 0
M  V30 41 H -0.106133 -2.55225 0.726847 0
M  V30 END ATOM
M  V30 BEGIN BOND
M  V30 1 1 1 2
M  V30 2 1 2 3
M  V30 3 1 2 4
M  V30 4 1 2 5
M  V30 5 2 5 6
M  V30 6 1 6 7
M  V30 7 1 7 8
M  V30 8 1 8 9
M  V30 9 2 8 10
M  V30 10 1 7 11
M  V30 11 2 11 12
M  V30 12 1 12 13
M  V30 13 1 13 14
M  V30 14 1 14 15
M  V30 15 1 15 16
M  V30 16 2 13 17
M  V30 17 1 17 18
M  V30 18 2 18 19
M  V30 19 1 10 5
M  V30 20 1 19 11
M  V30 21 1 1 20
M  V30 22 1 1 21
M  V30 23 1 1 22
M  V30 24 1 3 23
M  V30 25 1 3 24
M  V30 26 1 3 25
M  V30 27 1 4 26
M  V30 28 1 4 27
M  V30 29 1 4 28
M  V30 30 1 9 29
M  V30 31 1 9 30
M  V30 32 1 10 31
M  V30 33 1 12 32
M  V30 34 1 14 33
M  V30 35 1 14 34
M  V30 36 1 15 35
M  V30 37 1 15 36
M  V30 38 1 16 37
M  V30 39 1 16 38
M  V30 40 1 17 39
M  V30 41 1 18 40
M  V30 42 1 19 41
M  V30 END BOND
M  V30 END CTAB
M  END
