
     RDKit          3D

  0  0  0  0  0  0  0  0  0  0999 V3000
M  V30 BEGIN CTAB
M  V30 COUNTS 25 26 0 0 0
M  V30 BEGIN ATOM
M  V30 1 N -4.03584 -0.33578 -0.516229 0
M  V30 2 C -2.64119 -0.268869 -0.355958 0
M  V30 3 C -1.76785 -1.19415 -0.915304 0
M  V30 4 C -0.398495 -1.10684 -0.743208 0
M  V30 5 C 0.128646 -0.082441 -0.00115898 0
M  V30 6 C -0.720318 0.827437 0.549678 0
M  V30 7 C -2.09335 0.760996 0.391522 0
M  V30 8 N -2.9268 1.72998 0.983922 0
M  V30 9 C 1.58694 -0.0209379 0.160612 0
M  V30 10 N 2.16163 0.909353 0.842594 0
M  V30 11 C 3.59647 0.72491 0.834317 0
M  V30 12 C 3.72778 -0.737774 0.474711 0
M  V30 13 N 2.55585 -0.917493 -0.369207 0
M  V30 14 H -4.43718 -0.385369 -1.471 0
M  V30 15 H -4.67034 -0.336592 0.298238 0
M  V30 16 H -2.22633 -1.98622 -1.49323 0
M  V30 17 H 0.196744 -1.87262 -1.2166 0
M  V30 18 H -0.307538 1.64397 1.14055 0
M  V30 19 H -3.35492 1.55585 1.90365 0
M  V30 20 H -3.10748 2.61628 0.492888 0
M  V30 21 H 4.05574 0.97294 1.80565 0
M  V30 22 H 3.99892 1.36477 0.0229065 0
M  V30 23 H 4.6703 -0.954228 -0.0641622 0
M  V30 24 H 3.5985 -1.36113 1.38805 0
M  V30 25 H 2.41012 -1.54604 -1.18617 0
M  V30 END ATOM
M  V30 BEGIN BOND
M  V30 1 1 1 2
M  V30 2 2 2 3
M  V30 3 1 3 4
M  V30 4 2 4 5
M  V30 5 1 5 6
M  V30 6 2 6 7
M  V30 7 1 7 8
M  V30 8 1 5 9
M  V30 9 2 9 10
M  V30 10 1 10 11
M  V30 11 1 11 12
M  V30 12 1 12 13
M  V30 13 1 7 2
M  V30 14 1 13 9
M  V30 15 1 1 14
M  V30 16 1 1 15
M  V30 17 1 3 16
M  V30 18 1 4 17
M  V30 19 1 6 18
M  V30 20 1 8 19
M  V30 21 1 8 20
M  V30 22 1 11 21
M  V30 23 1 11 22
M  V30 24 1 12 23
M  V30 25 1 12 24
M  V30 26 1 13 25
M  V30 END BOND
M  V30 END CTAB
M  END
