
     RDKit          3D

  0  0  0  0  0  0  0  0  0  0999 V3000
M  V30 BEGIN CTAB
M  V30 COUNTS 22 22 0 0 0
M  V30 BEGIN ATOM
M  V30 1 N 3.59163 0.739437 -0.126149 0
M  V30 2 C 2.90072 -0.449142 -0.578178 0
M  V30 3 C 1.46501 -0.395615 -0.284406 0
M  V30 4 C 0.666117 -1.45754 -0.653482 0
M  V30 5 C -0.672996 -1.43412 -0.392394 0
M  V30 6 C -1.21628 -0.329037 0.247967 0
M  V30 7 C -0.429451 0.735834 0.620729 0
M  V30 8 C 0.925992 0.704476 0.352723 0
M  V30 9 Br -1.24057 2.2357 1.50367 0
M  V30 10 S -2.94287 -0.285451 0.591115 0
M  V30 11 O -3.10951 -0.20529 2.09106 0
M  V30 12 O -3.58826 -1.53183 0.0375575 0
M  V30 13 N -3.69963 1.05868 -0.185527 0
M  V30 14 H 3.19969 1.60952 -0.525805 0
M  V30 15 H 3.50804 0.744459 0.924629 0
M  V30 16 H 3.01664 -0.571615 -1.6825 0
M  V30 17 H 3.336 -1.3134 -0.0289149 0
M  V30 18 H 1.09962 -2.32849 -1.15917 0
M  V30 19 H -1.35721 -2.24583 -0.660785 0
M  V30 20 H 1.50413 1.56287 0.663657 0
M  V30 21 H -3.81672 1.87365 0.454908 0
M  V30 22 H -3.14006 1.28272 -1.03538 0
M  V30 END ATOM
M  V30 BEGIN BOND
M  V30 1 1 1 2
M  V30 2 1 2 3
M  V30 3 2 3 4
M  V30 4 1 4 5
M  V30 5 2 5 6
M  V30 6 1 6 7
M  V30 7 2 7 8
M  V30 8 1 7 9
M  V30 9 1 6 10
M  V30 10 2 10 11
M  V30 11 2 10 12
M  V30 12 1 10 13
M  V30 13 1 8 3
M  V30 14 1 1 14
M  V30 15 1 1 15
M  V30 16 1 2 16
M  V30 17 1 2 17
M  V30 18 1 4 18
M  V30 19 1 5 19
M  V30 20 1 8 20
M  V30 21 1 13 21
M  V30 22 1 13 22
M  V30 END BOND
M  V30 END CTAB
M  END
