
     RDKit          3D

  0  0  0  0  0  0  0  0  0  0999 V3000
M  V30 BEGIN CTAB
M  V30 COUNTS 31 31 0 0 0
M  V30 BEGIN ATOM
M  V30 1 C 4.80355 0.40298 0.720872 0
M  V30 2 C 4.57379 -0.834291 -0.0938238 0
M  V30 3 O 3.46463 -0.735355 -0.950273 0
M  V30 4 C 2.17402 -0.514206 -0.547205 0
M  V30 5 O 1.92865 -0.386214 0.664036 0
M  V30 6 C 1.11346 -0.43592 -1.58162 0
M  V30 7 C -0.223137 -0.196255 -1.02436 0
M  V30 8 C -0.716165 1.09624 -0.835399 0
M  V30 9 C -1.97181 1.32491 -0.31195 0
M  V30 10 N -2.4486 2.66976 -0.130525 0
M  V30 11 C -2.78459 0.275953 0.0433638 0
M  V30 12 C -2.31839 -1.01579 -0.134359 0
M  V30 13 C -1.07173 -1.22276 -0.654334 0
M  V30 14 N -3.18093 -2.08246 0.24203 0
M  V30 15 C -4.14238 0.503243 0.609643 0
M  V30 16 H 4.32077 0.342929 1.72553 0
M  V30 17 H 4.51387 1.30201 0.152871 0
M  V30 18 H 5.899 0.48511 0.914603 0
M  V30 19 H 4.53581 -1.7412 0.54514 0
M  V30 20 H 5.47399 -0.974569 -0.759293 0
M  V30 21 H 1.44027 0.334104 -2.31351 0
M  V30 22 H 1.08679 -1.40407 -2.15733 0
M  V30 23 H -0.0722832 1.91882 -1.11678 0
M  V30 24 H -2.03453 3.4148 -0.699911 0
M  V30 25 H -3.1976 2.89382 0.561057 0
M  V30 26 H -0.733327 -2.25929 -0.781987 0
M  V30 27 H -3.74984 -2.63932 -0.405415 0
M  V30 28 H -3.22107 -2.29727 1.2682 0
M  V30 29 H -4.67006 -0.44027 0.738813 0
M  V30 30 H -4.10131 1.07804 1.55295 0
M  V30 31 H -4.69084 1.13653 -0.14171 0
M  V30 END ATOM
M  V30 BEGIN BOND
M  V30 1 1 1 2
M  V30 2 1 2 3
M  V30 3 1 3 4
M  V30 4 2 4 5
M  V30 5 1 4 6
M  V30 6 1 6 7
M  V30 7 2 7 8
M  V30 8 1 8 9
M  V30 9 1 9 10
M  V30 10 2 9 11
M  V30 11 1 11 12
M  V30 12 2 12 13
M  V30 13 1 12 14
M  V30 14 1 11 15
M  V30 15 1 13 7
M  V30 16 1 1 16
M  V30 17 1 1 17
M  V30 18 1 1 18
M  V30 19 1 2 19
M  V30 20 1 2 20
M  V30 21 1 6 21
M  V30 22 1 6 22
M  V30 23 1 8 23
M  V30 24 1 10 24
M  V30 25 1 10 25
M  V30 26 1 13 26
M  V30 27 1 14 27
M  V30 28 1 14 28
M  V30 29 1 15 29
M  V30 30 1 15 30
M  V30 31 1 15 31
M  V30 END BOND
M  V30 END CTAB
M  END
