
     RDKit          3D

  0  0  0  0  0  0  0  0  0  0999 V3000
M  V30 BEGIN CTAB
M  V30 COUNTS 20 20 0 0 0
M  V30 BEGIN ATOM
M  V30 1 C 3.04154 0.654616 -0.0782931 0
M  V30 2 N 2.03715 -0.370833 0.125966 0
M  V30 3 C 0.65288 -0.0995517 -0.00894358 0
M  V30 4 C -0.275035 -1.0982 0.19246 0
M  V30 5 N 0.141478 -2.40588 0.536173 0
M  V30 6 O 0.212731 -2.67883 1.75227 0
M  V30 7 C -1.64421 -0.86776 0.068381 0
M  V30 8 N -2.55183 -1.93015 0.286562 0
M  V30 9 N -2.02127 0.376788 -0.257782 0
M  V30 10 C -1.14139 1.38051 -0.462794 0
M  V30 11 N -1.57291 2.69527 -0.808954 0
M  V30 12 N 0.173364 1.11473 -0.332644 0
M  V30 13 H 3.88675 0.330765 -0.687087 0
M  V30 14 H 3.45229 0.885543 0.941089 0
M  V30 15 H 2.57238 1.58662 -0.469116 0
M  V30 16 H 2.35331 -1.31764 0.375494 0
M  V30 17 H -2.40476 -2.7078 0.951943 0
M  V30 18 H -3.4368 -1.93537 -0.261046 0
M  V30 19 H -1.54139 3.0383 -1.77977 0
M  V30 20 H -1.93428 3.34888 -0.0839151 0
M  V30 END ATOM
M  V30 BEGIN BOND
M  V30 1 1 1 2
M  V30 2 1 2 3
M  V30 3 2 3 4
M  V30 4 1 4 5
M  V30 5 2 5 6
M  V30 6 1 4 7
M  V30 7 1 7 8
M  V30 8 2 7 9
M  V30 9 1 9 10
M  V30 10 1 10 11
M  V30 11 2 10 12
M  V30 12 1 12 3
M  V30 13 1 1 13
M  V30 14 1 1 14
M  V30 15 1 1 15
M  V30 16 1 2 16
M  V30 17 1 8 17
M  V30 18 1 8 18
M  V30 19 1 11 19
M  V30 20 1 11 20
M  V30 END BOND
M  V30 END CTAB
M  END
