
     RDKit          3D

  0  0  0  0  0  0  0  0  0  0999 V3000
M  V30 BEGIN CTAB
M  V30 COUNTS 18 18 0 0 0
M  V30 BEGIN ATOM
M  V30 1 N 2.98164 -0.7508 -0.116788 0
M  V30 2 C 1.63385 -0.249566 -0.113671 0
M  V30 3 C 0.612313 -1.06987 0.245232 0
M  V30 4 C -0.693204 -0.633418 0.265448 0
M  V30 5 N -1.77518 -1.45942 0.632247 0
M  V30 6 C -1.00662 0.674512 -0.0842663 0
M  V30 7 C 0.0453841 1.48886 -0.443571 0
M  V30 8 C 1.34221 1.03932 -0.45967 0
M  V30 9 F -0.220084 2.77798 -0.791203 0
M  V30 10 N -2.33638 1.16264 -0.0829376 0 CHG=1
M  V30 11 O -2.85695 1.40808 1.01939 0
M  V30 12 O -3.08433 1.38527 -1.20233 0 CHG=-1
M  V30 13 H 3.22457 -1.3596 0.693484 0
M  V30 14 H 3.59469 -0.480041 -0.898603 0
M  V30 15 H 0.775386 -2.12143 0.535012 0
M  V30 16 H -2.69625 -1.37416 0.17082 0
M  V30 17 H -1.65514 -2.16885 1.38033 0
M  V30 18 H 2.11409 1.7305 -0.74893 0
M  V30 END ATOM
M  V30 BEGIN BOND
M  V30 1 1 1 2
M  V30 2 2 2 3
M  V30 3 1 3 4
M  V30 4 1 4 5
M  V30 5 2 4 6
M  V30 6 1 6 7
M  V30 7 2 7 8
M  V30 8 1 7 9
M  V30 9 1 6 10
M  V30 10 2 10 11
M  V30 11 1 10 12
M  V30 12 1 8 2
M  V30 13 1 1 13
M  V30 14 1 1 14
M  V30 15 1 3 15
M  V30 16 1 5 16
M  V30 17 1 5 17
M  V30 18 1 8 18
M  V30 END BOND
M  V30 END CTAB
M  END
