
     RDKit          3D

  0  0  0  0  0  0  0  0  0  0999 V3000
M  V30 BEGIN CTAB
M  V30 COUNTS 42 43 0 0 0
M  V30 BEGIN ATOM
M  V30 1 C -2.19896 3.66764 -2.22163 0
M  V30 2 O -2.82005 2.90775 -1.20634 0
M  V30 3 C -2.16712 1.78806 -0.723344 0
M  V30 4 C -0.959909 1.43229 -1.21706 0
M  V30 5 C -0.322667 0.287113 -0.703944 0
M  V30 6 O 0.890856 -0.0532176 -1.22194 0
M  V30 7 C 2.11803 0.0228596 -0.605227 0
M  V30 8 C 2.32899 0.567129 0.656769 0
M  V30 9 N 3.5466 0.621497 1.22269 0
M  V30 10 C 4.63482 0.141131 0.577107 0
M  V30 11 N 5.90394 0.198468 1.16698 0
M  V30 12 N 4.46008 -0.383777 -0.630038 0
M  V30 13 C 3.2705 -0.463967 -1.24113 0
M  V30 14 N 3.20343 -1.04414 -2.52028 0
M  V30 15 C -0.870707 -0.500725 0.285363 0
M  V30 16 C -2.11805 -0.0883393 0.761564 0
M  V30 17 C -2.76517 1.03085 0.276806 0
M  V30 18 O -4.00262 1.42998 0.758548 0
M  V30 19 C -4.59945 0.656954 1.77382 0
M  V30 20 C -0.316443 -1.72199 0.846133 0
M  V30 21 C -1.40427 -2.45636 1.66416 0
M  V30 22 C 0.282483 -2.68381 -0.0856333 0
M  V30 23 H -1.24726 4.05851 -1.81934 0
M  V30 24 H -2.87842 4.47279 -2.59001 0
M  V30 25 H -1.92698 2.99537 -3.08141 0
M  V30 26 H -0.429804 1.98102 -2.0033 0
M  V30 27 H 1.50237 0.961689 1.20912 0
M  V30 28 H 6.67979 0.657841 0.665309 0
M  V30 29 H 6.12739 -0.201961 2.1055 0
M  V30 30 H 2.60186 -0.628502 -3.28416 0
M  V30 31 H 3.74075 -1.90505 -2.77386 0
M  V30 32 H -2.65042 -0.616068 1.53712 0
M  V30 33 H -4.87098 -0.363132 1.42015 0
M  V30 34 H -3.93111 0.506707 2.65876 0
M  V30 35 H -5.54901 1.15589 2.0733 0
M  V30 36 H 0.425731 -1.45687 1.62958 0
M  V30 37 H -1.61735 -1.9537 2.61763 0
M  V30 38 H -2.34621 -2.54766 1.09364 0
M  V30 39 H -1.01228 -3.49151 1.90031 0
M  V30 40 H 0.220801 -2.41217 -1.16622 0
M  V30 41 H 1.32549 -2.91799 0.21442 0
M  V30 42 H -0.258668 -3.65061 -0.0198921 0
M  V30 END ATOM
M  V30 BEGIN BOND
M  V30 1 1 1 2
M  V30 2 1 2 3
M  V30 3 2 3 4
M  V30 4 1 4 5
M  V30 5 1 5 6
M  V30 6 1 6 7
M  V30 7 2 7 8
M  V30 8 1 8 9
M  V30 9 2 9 10
M  V30 10 1 10 11
M  V30 11 1 10 12
M  V30 12 2 12 13
M  V30 13 1 13 14
M  V30 14 2 5 15
M  V30 15 1 15 16
M  V30 16 2 16 17
M  V30 17 1 17 18
M  V30 18 1 18 19
M  V30 19 1 15 20
M  V30 20 1 20 21
M  V30 21 1 20 22
M  V30 22 1 17 3
M  V30 23 1 13 7
M  V30 24 1 1 23
M  V30 25 1 1 24
M  V30 26 1 1 25
M  V30 27 1 4 26
M  V30 28 1 8 27
M  V30 29 1 11 28
M  V30 30 1 11 29
M  V30 31 1 14 30
M  V30 32 1 14 31
M  V30 33 1 16 32
M  V30 34 1 19 33
M  V30 35 1 19 34
M  V30 36 1 19 35
M  V30 37 1 20 36
M  V30 38 1 21 37
M  V30 39 1 21 38
M  V30 40 1 21 39
M  V30 41 1 22 40
M  V30 42 1 22 41
M  V30 43 1 22 42
M  V30 END BOND
M  V30 END CTAB
M  END
