
     RDKit          3D

  0  0  0  0  0  0  0  0  0  0999 V3000
M  V30 BEGIN CTAB
M  V30 COUNTS 44 44 0 0 0
M  V30 BEGIN ATOM
M  V30 1 C 5.81511 -1.37633 -0.680755 0
M  V30 2 C 5.06711 -0.968176 0.549621 0
M  V30 3 C 3.63755 -0.725315 0.403095 0
M  V30 4 C 2.69834 -1.68281 0.81755 0
M  V30 5 C 1.34828 -1.50883 0.702178 0
M  V30 6 C 0.828104 -0.335943 0.141041 0
M  V30 7 C 1.7903 0.612074 -0.263019 0
M  V30 8 C 3.13636 0.428003 -0.138724 0
M  V30 9 S 4.20409 1.72643 -0.648499 0
M  V30 10 O 5.07661 1.40111 -1.77923 0
M  V30 11 O 3.31389 2.87243 -1.10619 0
M  V30 12 N 5.08778 2.33213 0.741569 0
M  V30 13 N -0.492676 -0.0282651 -0.0777468 0
M  V30 14 C -1.75228 0.269871 -0.283211 0
M  V30 15 O -2.28306 1.35064 0.228601 0
M  V30 16 C -2.76847 -0.496075 -1.08935 0 CFG=2
M  V30 17 C -4.02268 0.247556 -1.22356 0
M  V30 18 C -4.86992 0.52442 -0.0386926 0
M  V30 19 C -5.50034 -0.713721 0.573583 0
M  V30 20 C -5.92406 1.59375 -0.320092 0
M  V30 21 N -2.92235 -1.83066 -0.626551 0
M  V30 22 H 6.68319 -0.743303 -0.872779 0
M  V30 23 H 6.19172 -2.4264 -0.555709 0
M  V30 24 H 5.16027 -1.47256 -1.59129 0
M  V30 25 H 5.17118 -1.79286 1.32792 0
M  V30 26 H 5.63243 -0.10965 1.00043 0
M  V30 27 H 3.12549 -2.58923 1.26327 0
M  V30 28 H 0.635497 -2.24115 1.02291 0
M  V30 29 H 1.38749 1.52455 -0.696721 0
M  V30 30 H 4.57816 3.17401 1.12152 0
M  V30 31 H 6.03289 2.58186 0.420762 0
M  V30 32 H -0.400082 0.825186 0.993949 0
M  V30 33 H -2.28239 -0.468664 -2.13583 0
M  V30 34 H -3.76688 1.22921 -1.75527 0
M  V30 35 H -4.6693 -0.363579 -1.9647 0
M  V30 36 H -4.26743 0.958122 0.855854 0
M  V30 37 H -5.98697 -1.22666 -0.28545 0
M  V30 38 H -4.72884 -1.25956 1.09897 0
M  V30 39 H -6.32533 -0.316632 1.20339 0
M  V30 40 H -6.49535 1.85998 0.574841 0
M  V30 41 H -5.41625 2.47865 -0.737195 0
M  V30 42 H -6.60622 1.25973 -1.14286 0
M  V30 43 H -2.56453 -2.05315 0.295985 0
M  V30 44 H -2.55641 -2.52018 -1.38762 0
M  V30 END ATOM
M  V30 BEGIN BOND
M  V30 1 1 1 2
M  V30 2 1 2 3
M  V30 3 2 3 4
M  V30 4 1 4 5
M  V30 5 2 5 6
M  V30 6 1 6 7
M  V30 7 2 7 8
M  V30 8 1 8 9
M  V30 9 2 9 10
M  V30 10 2 9 11
M  V30 11 1 9 12
M  V30 12 1 6 13
M  V30 13 1 13 14
M  V30 14 2 14 15
M  V30 15 1 14 16
M  V30 16 1 16 17
M  V30 17 1 17 18
M  V30 18 1 18 19
M  V30 19 1 18 20
M  V30 20 1 16 21
M  V30 21 1 8 3
M  V30 22 1 1 22
M  V30 23 1 1 23
M  V30 24 1 1 24
M  V30 25 1 2 25
M  V30 26 1 2 26
M  V30 27 1 4 27
M  V30 28 1 5 28
M  V30 29 1 7 29
M  V30 30 1 12 30
M  V30 31 1 12 31
M  V30 32 1 13 32
M  V30 33 1 16 33 CFG=3
M  V30 34 1 17 34
M  V30 35 1 17 35
M  V30 36 1 18 36
M  V30 37 1 19 37
M  V30 38 1 19 38
M  V30 39 1 19 39
M  V30 40 1 20 40
M  V30 41 1 20 41
M  V30 42 1 20 42
M  V30 43 1 21 43
M  V30 44 1 21 44
M  V30 END BOND
M  V30 END CTAB
M  END
