
     RDKit          3D

  0  0  0  0  0  0  0  0  0  0999 V3000
M  V30 BEGIN CTAB
M  V30 COUNTS 30 33 0 0 0
M  V30 BEGIN ATOM
M  V30 1 N 6.59803 -0.0672545 0.247564 0
M  V30 2 C 5.18744 0.0350955 0.0801521 0
M  V30 3 N 4.22505 -0.780528 0.555951 0
M  V30 4 C 3.02993 -0.297152 0.150274 0
M  V30 5 C 1.72721 -0.702601 0.329244 0
M  V30 6 C 0.707687 0.0346087 -0.232958 0
M  V30 7 C 1.03747 1.15776 -0.95803 0
M  V30 8 C 2.31689 1.55935 -1.13601 0
M  V30 9 C 3.34004 0.833234 -0.580888 0
M  V30 10 O 4.63583 1.01077 -0.608459 0
M  V30 11 C -0.69181 -0.35763 -0.0691879 0
M  V30 12 C -1.64537 0.627359 -0.0381212 0
M  V30 13 C -3.00475 0.325581 0.114564 0
M  V30 14 C -3.40086 -0.992291 0.237404 0
M  V30 15 O -4.70717 -0.962417 0.364 0
M  V30 16 C -5.16092 0.268331 0.330442 0
M  V30 17 N -6.51995 0.671496 0.438917 0
M  V30 18 N -4.11179 1.09583 0.174521 0
M  V30 19 C -2.45026 -1.98837 0.207223 0
M  V30 20 C -1.09681 -1.66586 0.0537839 0
M  V30 21 H 7.20001 -0.515985 -0.477206 0
M  V30 22 H 7.05986 0.303473 1.09729 0
M  V30 23 H 1.53162 -1.58593 0.903536 0
M  V30 24 H 0.205484 1.71917 -1.39139 0
M  V30 25 H 2.57725 2.44463 -1.70715 0
M  V30 26 H -1.38541 1.67039 -0.129501 0
M  V30 27 H -6.79615 1.63286 0.144633 0
M  V30 28 H -7.25552 0.0181604 0.811328 0
M  V30 29 H -2.77874 -3.02464 0.305037 0
M  V30 30 H -0.374307 -2.46743 0.0329722 0
M  V30 END ATOM
M  V30 BEGIN BOND
M  V30 1 1 1 2
M  V30 2 2 2 3
M  V30 3 1 3 4
M  V30 4 2 4 5
M  V30 5 1 5 6
M  V30 6 2 6 7
M  V30 7 1 7 8
M  V30 8 2 8 9
M  V30 9 1 9 10
M  V30 10 1 6 11
M  V30 11 2 11 12
M  V30 12 1 12 13
M  V30 13 2 13 14
M  V30 14 1 14 15
M  V30 15 1 15 16
M  V30 16 1 16 17
M  V30 17 2 16 18
M  V30 18 1 14 19
M  V30 19 2 19 20
M  V30 20 1 10 2
M  V30 21 1 20 11
M  V30 22 1 9 4
M  V30 23 1 18 13
M  V30 24 1 1 21
M  V30 25 1 1 22
M  V30 26 1 5 23
M  V30 27 1 7 24
M  V30 28 1 8 25
M  V30 29 1 12 26
M  V30 30 1 17 27
M  V30 31 1 17 28
M  V30 32 1 19 29
M  V30 33 1 20 30
M  V30 END BOND
M  V30 END CTAB
M  END
