
     RDKit          3D

  0  0  0  0  0  0  0  0  0  0999 V3000
M  V30 BEGIN CTAB
M  V30 COUNTS 58 62 0 0 0
M  V30 BEGIN ATOM
M  V30 1 N 0.597008 -1.94466 -1.96872 0
M  V30 2 C 1.14566 -1.18821 -1.30726 0
M  V30 3 C 1.84089 -0.222147 -0.501716 0
M  V30 4 C 1.12043 0.723323 0.164112 0
M  V30 5 N 1.78062 1.63129 0.912385 0
M  V30 6 C 3.10456 1.66728 1.0467 0
M  V30 7 C 3.86539 0.705699 0.369714 0
M  V30 8 C 3.20263 -0.241567 -0.408529 0
M  V30 9 C 3.93566 -1.19331 -1.09903 0
M  V30 10 C 5.29993 -1.19544 -1.01406 0
M  V30 11 S 6.25188 -2.42516 -1.90589 0
M  V30 12 C 8.0065 -2.05568 -1.67849 0
M  V30 13 C 8.37711 -2.21568 -0.252263 0
M  V30 14 O 8.55099 -1.28995 0.561696 0
M  V30 15 O 8.54717 -3.5214 0.228208 0
M  V30 16 N 5.88569 -0.264984 -0.254138 0
M  V30 17 C 5.22017 0.680928 0.439949 0
M  V30 18 N 5.94567 1.62542 1.23743 0
M  V30 19 N 3.78121 2.62228 1.85272 0
M  V30 20 N -0.294916 0.797518 0.140479 0
M  V30 21 C -1.05008 -0.0785985 0.99814 0
M  V30 22 C -2.50111 0.244619 1.12363 0
M  V30 23 N -2.99902 1.28705 0.315706 0
M  V30 24 C -2.07722 2.34067 0.0668125 0
M  V30 25 C -0.926914 1.72888 -0.753997 0
M  V30 26 C -4.35438 1.66716 0.491401 0
M  V30 27 C -5.24189 0.546949 0.0943791 0
M  V30 28 C -4.89463 -0.364281 -0.873682 0
M  V30 29 C -5.7555 -1.37315 -1.21147 0
M  V30 30 C -6.98987 -1.49304 -0.583841 0
M  V30 31 C -7.30449 -0.567372 0.379139 0
M  V30 32 C -6.46024 0.447411 0.73024 0
M  V30 33 O -8.57497 -0.883996 0.864371 0
M  V30 34 C -9.20314 -1.77915 -0.0560246 0
M  V30 35 O -8.07459 -2.36864 -0.676843 0
M  V30 36 H 3.3797 -1.9077 -1.68952 0
M  V30 37 H 8.16827 -0.994088 -1.98261 0
M  V30 38 H 8.65244 -2.66075 -2.3598 0
M  V30 39 H 7.68734 -4.0731 0.306028 0
M  V30 40 H 6.0772 1.49528 2.25974 0
M  V30 41 H 6.35908 2.47089 0.792266 0
M  V30 42 H 4.16868 3.47715 1.42691 0
M  V30 43 H 3.88524 2.45792 2.86964 0
M  V30 44 H -0.561065 -0.0107737 2.00841 0
M  V30 45 H -0.918166 -1.13241 0.642814 0
M  V30 46 H -2.70961 0.478636 2.22291 0
M  V30 47 H -3.08598 -0.720459 0.994858 0
M  V30 48 H -2.4996 3.17171 -0.537017 0
M  V30 49 H -1.63739 2.79641 0.971603 0
M  V30 50 H -0.274322 2.48195 -1.17601 0
M  V30 51 H -1.46925 1.17294 -1.57528 0
M  V30 52 H -4.56984 2.53926 -0.1698 0
M  V30 53 H -4.59748 1.96388 1.5423 0
M  V30 54 H -3.93242 -0.299031 -1.38397 0
M  V30 55 H -5.54075 -2.1208 -1.9619 0
M  V30 56 H -6.75738 1.16804 1.50712 0
M  V30 57 H -9.80341 -1.27159 -0.812326 0
M  V30 58 H -9.7775 -2.53343 0.533988 0
M  V30 END ATOM
M  V30 BEGIN BOND
M  V30 1 3 1 2
M  V30 2 1 2 3
M  V30 3 2 3 4
M  V30 4 1 4 5
M  V30 5 2 5 6
M  V30 6 1 6 7
M  V30 7 2 7 8
M  V30 8 1 8 9
M  V30 9 2 9 10
M  V30 10 1 10 11
M  V30 11 1 11 12
M  V30 12 1 12 13
M  V30 13 2 13 14
M  V30 14 1 13 15
M  V30 15 1 10 16
M  V30 16 2 16 17
M  V30 17 1 17 18
M  V30 18 1 6 19
M  V30 19 1 4 20
M  V30 20 1 20 21
M  V30 21 1 21 22
M  V30 22 1 22 23
M  V30 23 1 23 24
M  V30 24 1 24 25
M  V30 25 1 23 26
M  V30 26 1 26 27
M  V30 27 2 27 28
M  V30 28 1 28 29
M  V30 29 2 29 30
M  V30 30 1 30 31
M  V30 31 2 31 32
M  V30 32 1 31 33
M  V30 33 1 33 34
M  V30 34 1 34 35
M  V30 35 1 8 3
M  V30 36 1 25 20
M  V30 37 1 32 27
M  V30 38 1 17 7
M  V30 39 1 35 30
M  V30 40 1 9 36
M  V30 41 1 12 37
M  V30 42 1 12 38
M  V30 43 1 15 39
M  V30 44 1 18 40
M  V30 45 1 18 41
M  V30 46 1 19 42
M  V30 47 1 19 43
M  V30 48 1 21 44
M  V30 49 1 21 45
M  V30 50 1 22 46
M  V30 51 1 22 47
M  V30 52 1 24 48
M  V30 53 1 24 49
M  V30 54 1 25 50
M  V30 55 1 25 51
M  V30 56 1 26 52
M  V30 57 1 26 53
M  V30 58 1 28 54
M  V30 59 1 29 55
M  V30 60 1 32 56
M  V30 61 1 34 57
M  V30 62 1 34 58
M  V30 END BOND
M  V30 END CTAB
M  END
