
     RDKit          3D

  0  0  0  0  0  0  0  0  0  0999 V3000
M  V30 BEGIN CTAB
M  V30 COUNTS 90 90 0 0 0
M  V30 BEGIN ATOM
M  V30 1 C 11.1007 -0.20812 2.01759 0
M  V30 2 C 9.94172 -0.976368 1.41432 0
M  V30 3 C 9.945 -0.884254 -0.0956526 0
M  V30 4 C 9.83649 0.499714 -0.600974 0
M  V30 5 C 8.68165 1.31479 -0.233005 0
M  V30 6 C 7.30518 0.980579 -0.640254 0
M  V30 7 C 6.67818 -0.262239 -0.201487 0
M  V30 8 C 5.19746 -0.308202 -0.666536 0
M  V30 9 C 5.1278 -0.266629 -2.11308 0
M  V30 10 C 3.86397 -0.320671 -2.86684 0
M  V30 11 C 2.93617 -1.42934 -2.7812 0
M  V30 12 C 2.16714 -1.73463 -1.53478 0
M  V30 13 O 1.27067 -0.92318 -1.05981 0
M  V30 14 C 0.788965 0.18929 -0.573951 0
M  V30 15 C 1.5068 1.34868 -0.338265 0
M  V30 16 C 0.907523 2.46429 0.173328 0
M  V30 17 N 1.6743 3.63433 0.407184 0
M  V30 18 C -0.436345 2.45938 0.467322 0
M  V30 19 N -1.04903 3.61091 0.995279 0
M  V30 20 C -1.19509 1.33268 0.251494 0
M  V30 21 C -0.63121 0.192558 -0.259423 0
M  V30 22 O -1.25315 -0.945469 -0.508683 0
M  V30 23 C -2.23865 -1.79391 -0.578227 0
M  V30 24 C -3.02199 -2.24069 0.631889 0
M  V30 25 C -3.759 -1.1759 1.35763 0
M  V30 26 C -4.76367 -0.457251 0.519934 0
M  V30 27 C -5.84985 -1.33637 -0.0114439 0
M  V30 28 C -6.7126 -1.96639 1.05609 0
M  V30 29 C -7.35813 -0.86077 1.86967 0
M  V30 30 C -8.16992 0.0471163 0.986754 0
M  V30 31 C -9.24535 -0.739269 0.306412 0
M  V30 32 C -10.0847 0.130518 -0.613834 0
M  V30 33 C -10.7758 1.25598 0.0799078 0
M  V30 34 C -11.7417 0.818415 1.15683 0
M  V30 35 H 12.0124 -0.504655 1.43077 0
M  V30 36 H 10.9396 0.871482 1.8266 0
M  V30 37 H 11.2739 -0.45479 3.06418 0
M  V30 38 H 9.01249 -0.561159 1.84985 0
M  V30 39 H 10.0342 -2.01826 1.76925 0
M  V30 40 H 9.32196 -1.63593 -0.541176 0
M  V30 41 H 11.0303 -1.21012 -0.359807 0
M  V30 42 H 9.87446 0.485312 -1.75078 0
M  V30 43 H 10.806 1.07147 -0.38444 0
M  V30 44 H 8.879 2.36504 -0.651712 0
M  V30 45 H 8.6838 1.55696 0.893509 0
M  V30 46 H 6.65216 1.83959 -0.285489 0
M  V30 47 H 7.25878 1.12407 -1.77148 0
M  V30 48 H 7.19323 -1.144 -0.654397 0
M  V30 49 H 6.71729 -0.340762 0.895076 0
M  V30 50 H 4.68032 0.572766 -0.187559 0
M  V30 51 H 4.8136 -1.20122 -0.136376 0
M  V30 52 H 5.9107 -0.967754 -2.54943 0
M  V30 53 H 5.57993 0.752675 -2.42684 0
M  V30 54 H 3.2946 0.645424 -2.75343 0
M  V30 55 H 4.17779 -0.237963 -3.97771 0
M  V30 56 H 3.36822 -2.40432 -3.21867 0
M  V30 57 H 2.11692 -1.22821 -3.5649 0
M  V30 58 H 1.61636 -2.75365 -1.8055 0
M  V30 59 H 2.85103 -2.11087 -0.710386 0
M  V30 60 H 2.57371 1.36609 -0.579075 0
M  V30 61 H 2.24069 3.68767 1.286 0
M  V30 62 H 1.68201 4.42626 -0.26674 0
M  V30 63 H -1.20137 3.6908 2.01096 0
M  V30 64 H -1.35351 4.3867 0.378491 0
M  V30 65 H -2.27334 1.35539 0.484608 0
M  V30 66 H -1.83867 -2.79835 -0.998911 0
M  V30 67 H -2.96913 -1.53 -1.41637 0
M  V30 68 H -3.74555 -3.03501 0.326405 0
M  V30 69 H -2.33676 -2.73702 1.35765 0
M  V30 70 H -4.32921 -1.69769 2.18549 0
M  V30 71 H -3.12375 -0.451953 1.9024 0
M  V30 72 H -5.25827 0.315302 1.18124 0
M  V30 73 H -4.29224 0.162384 -0.279217 0
M  V30 74 H -5.4184 -2.21819 -0.579843 0
M  V30 75 H -6.49738 -0.836206 -0.746307 0
M  V30 76 H -7.45914 -2.65264 0.644319 0
M  V30 77 H -6.08174 -2.58027 1.76928 0
M  V30 78 H -8.08848 -1.3775 2.5523 0
M  V30 79 H -6.6191 -0.340282 2.49798 0
M  V30 80 H -8.63054 0.814159 1.68809 0
M  V30 81 H -7.46885 0.559683 0.289946 0
M  V30 82 H -9.84605 -1.22703 1.08009 0
M  V30 83 H -8.77125 -1.5008 -0.343758 0
M  V30 84 H -9.4252 0.569995 -1.39816 0
M  V30 85 H -10.815 -0.521953 -1.11678 0
M  V30 86 H -10.0334 1.99196 0.480335 0
M  V30 87 H -11.3533 1.81614 -0.681714 0
M  V30 88 H -12.2807 1.74216 1.49603 0
M  V30 89 H -11.235 0.335782 2.01249 0
M  V30 90 H -12.4936 0.104833 0.769414 0
M  V30 END ATOM
M  V30 BEGIN BOND
M  V30 1 1 1 2
M  V30 2 1 2 3
M  V30 3 1 3 4
M  V30 4 1 4 5
M  V30 5 1 5 6
M  V30 6 1 6 7
M  V30 7 1 7 8
M  V30 8 1 8 9
M  V30 9 1 9 10
M  V30 10 1 10 11
M  V30 11 1 11 12
M  V30 12 1 12 13
M  V30 13 1 13 14
M  V30 14 2 14 15
M  V30 15 1 15 16
M  V30 16 1 16 17
M  V30 17 2 16 18
M  V30 18 1 18 19
M  V30 19 1 18 20
M  V30 20 2 20 21
M  V30 21 1 21 22
M  V30 22 1 22 23
M  V30 23 1 23 24
M  V30 24 1 24 25
M  V30 25 1 25 26
M  V30 26 1 26 27
M  V30 27 1 27 28
M  V30 28 1 28 29
M  V30 29 1 29 30
M  V30 30 1 30 31
M  V30 31 1 31 32
M  V30 32 1 32 33
M  V30 33 1 33 34
M  V30 34 1 21 14
M  V30 35 1 1 35
M  V30 36 1 1 36
M  V30 37 1 1 37
M  V30 38 1 2 38
M  V30 39 1 2 39
M  V30 40 1 3 40
M  V30 41 1 3 41
M  V30 42 1 4 42
M  V30 43 1 4 43
M  V30 44 1 5 44
M  V30 45 1 5 45
M  V30 46 1 6 46
M  V30 47 1 6 47
M  V30 48 1 7 48
M  V30 49 1 7 49
M  V30 50 1 8 50
M  V30 51 1 8 51
M  V30 52 1 9 52
M  V30 53 1 9 53
M  V30 54 1 10 54
M  V30 55 1 10 55
M  V30 56 1 11 56
M  V30 57 1 11 57
M  V30 58 1 12 58
M  V30 59 1 12 59
M  V30 60 1 15 60
M  V30 61 1 17 61
M  V30 62 1 17 62
M  V30 63 1 19 63
M  V30 64 1 19 64
M  V30 65 1 20 65
M  V30 66 1 23 66
M  V30 67 1 23 67
M  V30 68 1 24 68
M  V30 69 1 24 69
M  V30 70 1 25 70
M  V30 71 1 25 71
M  V30 72 1 26 72
M  V30 73 1 26 73
M  V30 74 1 27 74
M  V30 75 1 27 75
M  V30 76 1 28 76
M  V30 77 1 28 77
M  V30 78 1 29 78
M  V30 79 1 29 79
M  V30 80 1 30 80
M  V30 81 1 30 81
M  V30 82 1 31 82
M  V30 83 1 31 83
M  V30 84 1 32 84
M  V30 85 1 32 85
M  V30 86 1 33 86
M  V30 87 1 33 87
M  V30 88 1 34 88
M  V30 89 1 34 89
M  V30 90 1 34 90
M  V30 END BOND
M  V30 END CTAB
M  END
