
     RDKit          3D

  0  0  0  0  0  0  0  0  0  0999 V3000
M  V30 BEGIN CTAB
M  V30 COUNTS 21 22 0 0 0
M  V30 BEGIN ATOM
M  V30 1 N 4.62121 0.0224237 0.17708 0
M  V30 2 C 3.20228 -0.0798242 -0.0176739 0
M  V30 3 N 2.25249 0.0831472 0.923079 0
M  V30 4 N 1.04556 -0.082863 0.391591 0
M  V30 5 C 1.20323 -0.358907 -0.917028 0
M  V30 6 N 2.52913 -0.353085 -1.15032 0
M  V30 7 C 0.093488 -0.577751 -1.71213 0
M  V30 8 C -1.19383 -0.519308 -1.18894 0
M  V30 9 C -1.30519 -0.234245 0.152307 0
M  V30 10 C -0.189563 -0.0190424 0.929395 0
M  V30 11 S -2.88084 -0.143745 0.880388 0
M  V30 12 O -3.82368 -1.00574 0.0529502 0
M  V30 13 O -2.87302 -0.57672 2.31718 0
M  V30 14 N -3.44194 1.46627 0.767073 0
M  V30 15 H 5.19576 -0.693901 0.626615 0
M  V30 16 H 5.10921 0.889204 -0.162743 0
M  V30 17 H 0.255551 -0.796452 -2.75614 0
M  V30 18 H -2.04279 -0.694125 -1.83142 0
M  V30 19 H -0.317864 0.203464 1.98439 0
M  V30 20 H -4.45959 1.52567 0.650225 0
M  V30 21 H -2.97959 1.94553 -0.0332962 0
M  V30 END ATOM
M  V30 BEGIN BOND
M  V30 1 1 1 2
M  V30 2 2 2 3
M  V30 3 1 3 4
M  V30 4 1 4 5
M  V30 5 2 5 6
M  V30 6 1 5 7
M  V30 7 2 7 8
M  V30 8 1 8 9
M  V30 9 2 9 10
M  V30 10 1 9 11
M  V30 11 2 11 12
M  V30 12 2 11 13
M  V30 13 1 11 14
M  V30 14 1 6 2
M  V30 15 1 10 4
M  V30 16 1 1 15
M  V30 17 1 1 16
M  V30 18 1 7 17
M  V30 19 1 8 18
M  V30 20 1 10 19
M  V30 21 1 14 20
M  V30 22 1 14 21
M  V30 END BOND
M  V30 END CTAB
M  END
