
     RDKit          3D

  0  0  0  0  0  0  0  0  0  0999 V3000
M  V30 BEGIN CTAB
M  V30 COUNTS 23 23 0 0 0
M  V30 BEGIN ATOM
M  V30 1 N 3.15303 -0.0303251 0.606395 0
M  V30 2 C 2.59133 0.286004 -0.656376 0
M  V30 3 N 1.32578 0.168531 -0.880686 0
M  V30 4 C 0.47406 -0.296991 0.188373 0
M  V30 5 C -0.941522 -0.465264 -0.267611 0
M  V30 6 C -1.8337 -0.961072 0.882427 0
M  V30 7 C -3.15832 -0.42602 0.397287 0
M  V30 8 C -2.81406 0.905238 -0.13371 0
M  V30 9 C -1.55771 0.888237 -0.513072 0
M  V30 10 N 3.49057 0.742069 -1.67335 0
M  V30 11 H 3.62731 -0.940199 0.770124 0
M  V30 12 H 3.0762 0.676893 1.36586 0
M  V30 13 H 0.467683 0.491255 0.989158 0
M  V30 14 H 0.858329 -1.21675 0.66915 0
M  V30 15 H -1.03731 -1.14043 -1.12178 0
M  V30 16 H -1.80359 -2.0426 0.986759 0
M  V30 17 H -1.5819 -0.401055 1.81156 0
M  V30 18 H -3.91855 -0.386211 1.20157 0
M  V30 19 H -3.49648 -1.06428 -0.461172 0
M  V30 20 H -3.54386 1.73505 -0.175438 0
M  V30 21 H -1.00104 1.70963 -0.947079 0
M  V30 22 H 3.53576 1.74699 -1.94488 0
M  V30 23 H 4.088 0.0213023 -2.11918 0
M  V30 END ATOM
M  V30 BEGIN BOND
M  V30 1 1 1 2
M  V30 2 2 2 3 CFG=2
M  V30 3 1 3 4
M  V30 4 1 4 5
M  V30 5 1 5 6
M  V30 6 1 6 7
M  V30 7 1 7 8
M  V30 8 2 8 9
M  V30 9 1 2 10
M  V30 10 1 9 5
M  V30 11 1 1 11
M  V30 12 1 1 12
M  V30 13 1 4 13
M  V30 14 1 4 14
M  V30 15 1 5 15
M  V30 16 1 6 16
M  V30 17 1 6 17
M  V30 18 1 7 18
M  V30 19 1 7 19
M  V30 20 1 8 20
M  V30 21 1 9 21
M  V30 22 1 10 22
M  V30 23 1 10 23
M  V30 END BOND
M  V30 END CTAB
M  END
