
     RDKit          3D

  0  0  0  0  0  0  0  0  0  0999 V3000
M  V30 BEGIN CTAB
M  V30 COUNTS 59 61 0 0 0
M  V30 BEGIN ATOM
M  V30 1 C -6.05759 -0.88075 -3.03649 0
M  V30 2 C -4.68473 -0.281242 -2.81583 0
M  V30 3 O -4.56204 0.085118 -1.45047 0
M  V30 4 C -3.4471 0.658531 -0.899264 0
M  V30 5 O -2.50259 0.835472 -1.76083 0
M  V30 6 C -3.30366 1.02464 0.484232 0
M  V30 7 C -2.03587 1.49574 0.774226 0
M  V30 8 N -1.09627 1.55414 -0.258473 0
M  V30 9 C 0.07021 1.00948 -0.130599 0
M  V30 10 N 1.03159 1.07305 -1.19511 0
M  V30 11 C 2.34797 0.603308 -0.931619 0
M  V30 12 N 3.29872 0.642706 -1.91148 0
M  V30 13 C 4.54326 0.216287 -1.71723 0
M  V30 14 C 5.5908 0.252861 -2.77561 0
M  V30 15 C 4.92902 -0.290049 -0.50099 0
M  V30 16 C 3.98627 -0.339206 0.501799 0
M  V30 17 N 2.74738 0.105167 0.247022 0
M  V30 18 C 4.37015 -0.845604 1.71987 0
M  V30 19 C 5.65333 -1.29075 1.93702 0
M  V30 20 C 6.60773 -1.24754 0.942106 0
M  V30 21 C 6.21502 -0.738299 -0.276793 0
M  V30 22 C 7.97315 -1.74299 1.24028 0
M  V30 23 C 8.77125 -0.542942 1.76469 0
M  V30 24 N 0.350705 0.35483 1.0819 0
M  V30 25 N -1.77703 1.90844 2.10131 0
M  V30 26 C -4.21425 0.873417 1.59265 0
M  V30 27 O -3.68956 1.04535 2.80293 0
M  V30 28 C -5.60402 0.564899 1.59199 0
M  V30 29 C -6.54053 0.748273 0.631229 0
M  V30 30 C -7.84617 0.299157 0.704106 0
M  V30 31 C -8.23685 -0.383714 1.83369 0
M  V30 32 C -7.35062 -0.609512 2.8562 0
M  V30 33 C -6.07595 -0.144095 2.72672 0
M  V30 34 H -6.58183 -0.361337 -3.88714 0
M  V30 35 H -6.02318 -1.95435 -3.25194 0
M  V30 36 H -6.72614 -0.724833 -2.1581 0
M  V30 37 H -3.94481 -1.10466 -3.0006 0
M  V30 38 H -4.49666 0.608239 -3.43648 0
M  V30 39 H 0.784013 1.44572 -2.12368 0
M  V30 40 H 5.09482 0.61235 -3.69947 0
M  V30 41 H 6.40693 0.936218 -2.49161 0
M  V30 42 H 5.97927 -0.779045 -2.86498 0
M  V30 43 H 3.64556 -0.89181 2.51665 0
M  V30 44 H 5.93537 -1.68339 2.8955 0
M  V30 45 H 6.93742 -0.693919 -1.06587 0
M  V30 46 H 7.94137 -2.53528 2.01394 0
M  V30 47 H 8.47766 -2.1447 0.333325 0
M  V30 48 H 9.74692 -0.857537 2.15056 0
M  V30 49 H 8.83624 0.211032 0.95797 0
M  V30 50 H 8.17737 -0.0753824 2.58792 0
M  V30 51 H 0.849913 0.856118 1.82833 0
M  V30 52 H 0.0548938 -0.621583 1.21502 0
M  V30 53 H -1.28564 1.31347 2.79783 0
M  V30 54 H -2.08431 2.85983 2.42402 0
M  V30 55 H -6.303 1.34131 -0.227016 0
M  V30 56 H -8.56256 0.457291 -0.0730432 0
M  V30 57 H -9.24726 -0.745727 1.91914 0
M  V30 58 H -7.67276 -1.14709 3.73936 0
M  V30 59 H -5.40131 -0.335112 3.53854 0
M  V30 END ATOM
M  V30 BEGIN BOND
M  V30 1 1 1 2
M  V30 2 1 2 3
M  V30 3 1 3 4
M  V30 4 2 4 5
M  V30 5 1 4 6
M  V30 6 2 6 7
M  V30 7 1 7 8
M  V30 8 2 8 9
M  V30 9 1 9 10
M  V30 10 1 10 11
M  V30 11 2 11 12
M  V30 12 1 12 13
M  V30 13 1 13 14
M  V30 14 2 13 15
M  V30 15 1 15 16
M  V30 16 2 16 17
M  V30 17 1 16 18
M  V30 18 2 18 19
M  V30 19 1 19 20
M  V30 20 2 20 21
M  V30 21 1 20 22
M  V30 22 1 22 23
M  V30 23 1 9 24
M  V30 24 1 7 25
M  V30 25 1 6 26
M  V30 26 2 26 27
M  V30 27 1 26 28
M  V30 28 2 28 29
M  V30 29 1 29 30
M  V30 30 2 30 31
M  V30 31 1 31 32
M  V30 32 2 32 33
M  V30 33 1 17 11
M  V30 34 1 33 28
M  V30 35 1 21 15
M  V30 36 1 1 34
M  V30 37 1 1 35
M  V30 38 1 1 36
M  V30 39 1 2 37
M  V30 40 1 2 38
M  V30 41 1 10 39
M  V30 42 1 14 40
M  V30 43 1 14 41
M  V30 44 1 14 42
M  V30 45 1 18 43
M  V30 46 1 19 44
M  V30 47 1 21 45
M  V30 48 1 22 46
M  V30 49 1 22 47
M  V30 50 1 23 48
M  V30 51 1 23 49
M  V30 52 1 23 50
M  V30 53 1 24 51
M  V30 54 1 24 52
M  V30 55 1 25 53
M  V30 56 1 25 54
M  V30 57 1 29 55
M  V30 58 1 30 56
M  V30 59 1 31 57
M  V30 60 1 32 58
M  V30 61 1 33 59
M  V30 END BOND
M  V30 END CTAB
M  END
