
     RDKit          3D

  0  0  0  0  0  0  0  0  0  0999 V3000
M  V30 BEGIN CTAB
M  V30 COUNTS 41 44 0 0 0
M  V30 BEGIN ATOM
M  V30 1 N 4.99467 1.80293 -1.76445 0
M  V30 2 C 4.94238 1.20863 -0.473335 0
M  V30 3 N 5.82258 1.71915 0.559812 0
M  V30 4 N 4.18692 0.28673 -0.132044 0
M  V30 5 C 3.20052 -0.48473 -0.703736 0
M  V30 6 O 3.52616 -1.6539 -1.10717 0
M  V30 7 C 1.81976 -0.00378052 -0.837602 0
M  V30 8 C 0.670696 -0.787498 -0.510468 0
M  V30 9 C 0.890637 -2.18882 -0.141305 0
M  V30 10 C 1.14849 -2.64207 1.29991 0
M  V30 11 C -0.159053 -2.90193 0.677304 0
M  V30 12 N -0.376371 -0.0285356 -0.768768 0
M  V30 13 N 0.0611543 1.12901 -1.21596 0
M  V30 14 C 1.38665 1.2039 -1.28095 0
M  V30 15 C -1.76704 -0.308514 -0.748414 0
M  V30 16 C -2.61846 0.563897 -0.0656496 0
M  V30 17 C -2.17725 1.62051 0.691803 0
M  V30 18 C -3.08828 2.4363 1.3344 0
M  V30 19 C -4.4486 2.20291 1.23284 0
M  V30 20 C -4.89506 1.15642 0.483512 0
M  V30 21 C -4.00079 0.33126 -0.168227 0
M  V30 22 C -4.49861 -0.723838 -0.914143 0
M  V30 23 C -3.59792 -1.55874 -1.56954 0
M  V30 24 C -2.25556 -1.37845 -1.50514 0
M  V30 25 H 4.32407 1.4476 -2.50186 0
M  V30 26 H 5.67654 2.55885 -1.94277 0
M  V30 27 H 5.45133 2.52121 1.08582 0
M  V30 28 H 6.75211 1.32989 0.775259 0
M  V30 29 H 1.40494 -2.79583 -0.929363 0
M  V30 30 H 1.91114 -3.45826 1.43455 0
M  V30 31 H 1.18859 -1.84359 2.10496 0
M  V30 32 H -1.05681 -2.38577 1.07898 0
M  V30 33 H -0.330935 -3.95595 0.378835 0
M  V30 34 H 2.013 2.04202 -1.60249 0
M  V30 35 H -1.13314 1.7936 0.785183 0
M  V30 36 H -2.81137 3.28133 1.94419 0
M  V30 37 H -5.20706 2.83378 1.72187 0
M  V30 38 H -5.94022 0.928489 0.373147 0
M  V30 39 H -5.5618 -0.899642 -0.994373 0
M  V30 40 H -3.93018 -2.40741 -2.17467 0
M  V30 41 H -1.51781 -1.9912 -2.00387 0
M  V30 END ATOM
M  V30 BEGIN BOND
M  V30 1 1 1 2
M  V30 2 1 2 3
M  V30 3 2 2 4
M  V30 4 1 4 5
M  V30 5 2 5 6
M  V30 6 1 5 7
M  V30 7 2 7 8
M  V30 8 1 8 9
M  V30 9 1 9 10
M  V30 10 1 10 11
M  V30 11 1 8 12
M  V30 12 1 12 13
M  V30 13 2 13 14
M  V30 14 1 12 15
M  V30 15 1 15 16
M  V30 16 2 16 17
M  V30 17 1 17 18
M  V30 18 2 18 19
M  V30 19 1 19 20
M  V30 20 2 20 21
M  V30 21 1 21 22
M  V30 22 2 22 23
M  V30 23 1 23 24
M  V30 24 1 14 7
M  V30 25 2 24 15
M  V30 26 1 11 9
M  V30 27 1 21 16
M  V30 28 1 1 25
M  V30 29 1 1 26
M  V30 30 1 3 27
M  V30 31 1 3 28
M  V30 32 1 9 29
M  V30 33 1 10 30
M  V30 34 1 10 31
M  V30 35 1 11 32
M  V30 36 1 11 33
M  V30 37 1 14 34
M  V30 38 1 17 35
M  V30 39 1 18 36
M  V30 40 1 19 37
M  V30 41 1 20 38
M  V30 42 1 22 39
M  V30 43 1 23 40
M  V30 44 1 24 41
M  V30 END BOND
M  V30 END CTAB
M  END
