
     RDKit          3D

  0  0  0  0  0  0  0  0  0  0999 V3000
M  V30 BEGIN CTAB
M  V30 COUNTS 36 38 0 0 0
M  V30 BEGIN ATOM
M  V30 1 N 5.58788 -1.27425 0.380845 0
M  V30 2 C 4.24669 -0.810455 0.103358 0
M  V30 3 C 3.33628 -0.621579 1.11518 0
M  V30 4 C 2.05157 -0.174267 0.820227 0
M  V30 5 C 1.66427 0.0864323 -0.467982 0
M  V30 6 C 2.593 -0.110587 -1.4588 0
M  V30 7 N 3.85595 -0.551734 -1.15534 0
M  V30 8 C 0.30641 0.562204 -0.807901 0 CFG=2
M  V30 9 C 0.210134 2.00734 -0.386986 0
M  V30 10 N -1.11306 2.49127 -0.665727 0
M  V30 11 C -2.18008 1.73467 -0.0619758 0
M  V30 12 C -1.97483 0.373631 0.131002 0
M  V30 13 N -0.744387 -0.217194 -0.266907 0
M  V30 14 S -0.649349 -1.94114 -0.10089 0
M  V30 15 O 0.68536 -2.46411 -0.592758 0
M  V30 16 O -0.712618 -2.26715 1.34902 0
M  V30 17 N -1.83234 -2.75595 -1.05637 0
M  V30 18 C -2.99943 -0.349096 0.699918 0
M  V30 19 C -4.17496 0.281248 1.05523 0
M  V30 20 C -4.36594 1.63239 0.858247 0
M  V30 21 C -3.33407 2.37579 0.281984 0
M  V30 22 H 6.38098 -0.600358 0.449743 0
M  V30 23 H 5.78611 -2.285 0.51645 0
M  V30 24 H 3.65286 -0.831052 2.13366 0
M  V30 25 H 1.32401 -0.0215062 1.61165 0
M  V30 26 H 2.3264 0.0840394 -2.49007 0
M  V30 27 H 0.151878 0.571723 -1.92839 0
M  V30 28 H 0.440619 2.00151 0.72123 0
M  V30 29 H 0.997526 2.59876 -0.910809 0
M  V30 30 H -1.30427 3.31159 -1.24563 0
M  V30 31 H -1.44121 -3.19854 -1.91327 0
M  V30 32 H -2.21371 -3.54871 -0.469343 0
M  V30 33 H -2.85894 -1.41109 0.853823 0
M  V30 34 H -4.98428 -0.286035 1.50406 0
M  V30 35 H -5.269 2.16366 1.12151 0
M  V30 36 H -3.44544 3.44355 0.106911 0
M  V30 END ATOM
M  V30 BEGIN BOND
M  V30 1 1 1 2
M  V30 2 2 2 3
M  V30 3 1 3 4
M  V30 4 2 4 5
M  V30 5 1 5 6
M  V30 6 2 6 7
M  V30 7 1 5 8
M  V30 8 1 8 9
M  V30 9 1 9 10
M  V30 10 1 10 11
M  V30 11 2 11 12
M  V30 12 1 12 13
M  V30 13 1 13 14
M  V30 14 2 14 15
M  V30 15 2 14 16
M  V30 16 1 14 17
M  V30 17 1 12 18
M  V30 18 2 18 19
M  V30 19 1 19 20
M  V30 20 2 20 21
M  V30 21 1 7 2
M  V30 22 1 13 8
M  V30 23 1 21 11
M  V30 24 1 1 22
M  V30 25 1 1 23
M  V30 26 1 3 24
M  V30 27 1 4 25
M  V30 28 1 6 26
M  V30 29 1 8 27 CFG=3
M  V30 30 1 9 28
M  V30 31 1 9 29
M  V30 32 1 10 30
M  V30 33 1 17 31
M  V30 34 1 17 32
M  V30 35 1 18 33
M  V30 36 1 19 34
M  V30 37 1 20 35
M  V30 38 1 21 36
M  V30 END BOND
M  V30 END CTAB
M  END
