
     RDKit          3D

  0  0  0  0  0  0  0  0  0  0999 V3000
M  V30 BEGIN CTAB
M  V30 COUNTS 33 35 0 0 0
M  V30 BEGIN ATOM
M  V30 1 N -4.61073 2.31724 0.228845 0
M  V30 2 C -4.24301 0.93628 0.331752 0
M  V30 3 N -5.18247 -0.0159956 0.48429 0
M  V30 4 C -4.89505 -1.31797 0.585368 0
M  V30 5 C -3.55779 -1.71907 0.531134 0
M  V30 6 C -2.59119 -0.774432 0.377449 0
M  V30 7 N -2.96379 0.536543 0.281357 0
M  V30 8 C -1.18281 -1.1217 0.313351 0
M  V30 9 C -0.734801 -2.39434 0.400694 0
M  V30 10 C 0.634964 -2.65505 0.331227 0
M  V30 11 C 1.56823 -1.66578 0.175731 0
M  V30 12 O 2.93605 -1.92475 0.106238 0
M  V30 13 C 1.11817 -0.349991 0.0845291 0
M  V30 14 C -0.233376 -0.0988248 0.153634 0
M  V30 15 C 2.12031 0.687177 -0.0801293 0
M  V30 16 N 3.43121 0.358891 -0.13919 0
M  V30 17 C 4.42069 1.25095 -0.289538 0
M  V30 18 N 5.78949 0.858628 -0.346613 0
M  V30 19 N 4.05488 2.54155 -0.384313 0
M  V30 20 C 2.77831 2.94108 -0.334211 0
M  V30 21 C 1.74861 2.00183 -0.176736 0
M  V30 22 H -3.95713 3.0135 -0.156143 0
M  V30 23 H -5.54627 2.62273 0.545201 0
M  V30 24 H -5.62484 -2.10071 0.707849 0
M  V30 25 H -3.29759 -2.77526 0.611294 0
M  V30 26 H -1.37636 -3.23771 0.52273 0
M  V30 27 H 0.986506 -3.67899 0.402102 0
M  V30 28 H 3.22191 -2.9054 0.177593 0
M  V30 29 H -0.608932 0.923399 0.0845562 0
M  V30 30 H 6.55048 1.54011 -0.134645 0
M  V30 31 H 6.05729 -0.106184 -0.598349 0
M  V30 32 H 2.46625 3.97363 -0.408711 0
M  V30 33 H 0.722782 2.33861 -0.137931 0
M  V30 END ATOM
M  V30 BEGIN BOND
M  V30 1 1 1 2
M  V30 2 2 2 3
M  V30 3 1 3 4
M  V30 4 2 4 5
M  V30 5 1 5 6
M  V30 6 2 6 7
M  V30 7 1 6 8
M  V30 8 2 8 9
M  V30 9 1 9 10
M  V30 10 2 10 11
M  V30 11 1 11 12
M  V30 12 1 11 13
M  V30 13 2 13 14
M  V30 14 1 13 15
M  V30 15 2 15 16
M  V30 16 1 16 17
M  V30 17 1 17 18
M  V30 18 2 17 19
M  V30 19 1 19 20
M  V30 20 2 20 21
M  V30 21 1 7 2
M  V30 22 1 14 8
M  V30 23 1 21 15
M  V30 24 1 1 22
M  V30 25 1 1 23
M  V30 26 1 4 24
M  V30 27 1 5 25
M  V30 28 1 9 26
M  V30 29 1 10 27
M  V30 30 1 12 28
M  V30 31 1 14 29
M  V30 32 1 18 30
M  V30 33 1 18 31
M  V30 34 1 20 32
M  V30 35 1 21 33
M  V30 END BOND
M  V30 END CTAB
M  END
