
     RDKit          3D

  0  0  0  0  0  0  0  0  0  0999 V3000
M  V30 BEGIN CTAB
M  V30 COUNTS 45 46 0 0 0
M  V30 BEGIN ATOM
M  V30 1 C -6.00069 -0.194705 0.604611 0
M  V30 2 C -4.89116 -0.261219 -0.419979 0
M  V30 3 C -3.59031 -0.401262 0.33863 0
M  V30 4 C -2.39637 -0.477997 -0.59957 0
M  V30 5 C -1.19368 -0.611474 0.226932 0
M  V30 6 O -1.11018 -1.62007 0.981413 0
M  V30 7 N -0.119534 0.299431 0.246528 0
M  V30 8 C 1.05227 0.135506 1.07542 0
M  V30 9 C 1.15573 1.23751 2.07403 0
M  V30 10 C 2.573 1.52918 2.51115 0
M  V30 11 C 3.32565 1.97888 1.25741 0
M  V30 12 C 3.37391 0.80328 0.351895 0
M  V30 13 C 2.29157 -0.0492038 0.284067 0
M  V30 14 C 2.37794 -1.12402 -0.566096 0
M  V30 15 C 3.51156 -1.36284 -1.34228 0
M  V30 16 C 4.60065 -0.512022 -1.27925 0
M  V30 17 C 4.49914 0.562959 -0.420983 0
M  V30 18 N 5.76531 -0.739038 -2.06297 0
M  V30 19 N -2.40982 0.69176 -1.42368 0
M  V30 20 C -2.54162 -1.68539 -1.5351 0
M  V30 21 H -6.86241 -0.850608 0.331077 0
M  V30 22 H -6.3366 0.857599 0.6977 0
M  V30 23 H -5.64702 -0.524648 1.61676 0
M  V30 24 H -4.83417 0.681044 -0.999699 0
M  V30 25 H -5.07038 -1.08009 -1.12147 0
M  V30 26 H -3.46034 0.469049 0.981529 0
M  V30 27 H -3.63159 -1.36234 0.898338 0
M  V30 28 H -0.172332 1.13577 -0.369058 0
M  V30 29 H 0.901181 -0.823671 1.65219 0
M  V30 30 H 0.704856 2.15242 1.62536 0
M  V30 31 H 0.54477 0.980121 2.95619 0
M  V30 32 H 2.54592 2.30988 3.27493 0
M  V30 33 H 3.02968 0.599478 2.89853 0
M  V30 34 H 2.78485 2.83875 0.820737 0
M  V30 35 H 4.35608 2.3112 1.53484 0
M  V30 36 H 1.523 -1.80157 -0.622811 0
M  V30 37 H 3.52518 -2.22831 -1.99738 0
M  V30 38 H 5.35595 1.24075 -0.365082 0
M  V30 39 H 6.74178 -0.5798 -1.73576 0
M  V30 40 H 5.64345 -1.08983 -3.03562 0
M  V30 41 H -2.55357 1.58027 -0.932079 0
M  V30 42 H -1.67553 0.699661 -2.15758 0
M  V30 43 H -3.38826 -1.42678 -2.22316 0
M  V30 44 H -2.68816 -2.61742 -0.990948 0
M  V30 45 H -1.60968 -1.6702 -2.16024 0
M  V30 END ATOM
M  V30 BEGIN BOND
M  V30 1 1 1 2
M  V30 2 1 2 3
M  V30 3 1 3 4
M  V30 4 1 4 5
M  V30 5 2 5 6
M  V30 6 1 5 7
M  V30 7 1 7 8
M  V30 8 1 8 9
M  V30 9 1 9 10
M  V30 10 1 10 11
M  V30 11 1 11 12
M  V30 12 2 12 13
M  V30 13 1 13 14
M  V30 14 2 14 15
M  V30 15 1 15 16
M  V30 16 2 16 17
M  V30 17 1 16 18
M  V30 18 1 4 19
M  V30 19 1 4 20
M  V30 20 1 13 8
M  V30 21 1 17 12
M  V30 22 1 1 21
M  V30 23 1 1 22
M  V30 24 1 1 23
M  V30 25 1 2 24
M  V30 26 1 2 25
M  V30 27 1 3 26
M  V30 28 1 3 27
M  V30 29 1 7 28
M  V30 30 1 8 29
M  V30 31 1 9 30
M  V30 32 1 9 31
M  V30 33 1 10 32
M  V30 34 1 10 33
M  V30 35 1 11 34
M  V30 36 1 11 35
M  V30 37 1 14 36
M  V30 38 1 15 37
M  V30 39 1 17 38
M  V30 40 1 18 39
M  V30 41 1 18 40
M  V30 42 1 19 41
M  V30 43 1 19 42
M  V30 44 1 20 43
M  V30 45 1 20 44
M  V30 46 1 20 45
M  V30 END BOND
M  V30 END CTAB
M  END
