
     RDKit          3D

  0  0  0  0  0  0  0  0  0  0999 V3000
M  V30 BEGIN CTAB
M  V30 COUNTS 30 30 0 0 0
M  V30 BEGIN ATOM
M  V30 1 N -1.04641 2.33285 0.484304 0
M  V30 2 C -0.744692 1.6557 -0.742983 0
M  V30 3 C -0.442273 0.220234 -0.648475 0
M  V30 4 C 0.719974 -0.0929876 0.211501 0
M  V30 5 C 0.594696 -0.860045 1.37262 0
M  V30 6 N 1.62338 -1.14454 2.18689 0
M  V30 7 C 2.84201 -0.69732 1.9191 0
M  V30 8 C 3.07738 0.0670029 0.801569 0
M  V30 9 C 2.00693 0.350428 -0.0265817 0
M  V30 10 N 2.29575 1.13027 -1.17733 0
M  V30 11 C -1.58137 -0.727629 -0.604104 0
M  V30 12 C -2.56331 -0.643418 0.469213 0
M  V30 13 C -1.0459 -2.13523 -0.729107 0
M  V30 14 F 0.10606 -0.0631099 -1.94546 0
M  V30 15 H -2.07354 2.33512 0.674262 0
M  V30 16 H -0.788313 3.36236 0.397412 0
M  V30 17 H -1.6597 1.85974 -1.39651 0
M  V30 18 H 0.0397129 2.21666 -1.26253 0
M  V30 19 H -0.352453 -1.25836 1.67006 0
M  V30 20 H 3.68589 -0.918361 2.56802 0
M  V30 21 H 4.04432 0.456992 0.534109 0
M  V30 22 H 2.38884 2.17881 -1.05871 0
M  V30 23 H 2.42169 0.691547 -2.11367 0
M  V30 24 H -2.17077 -0.589313 -1.57725 0
M  V30 25 H -2.33863 0.0381805 1.31072 0
M  V30 26 H -2.65447 -1.64971 0.954737 0
M  V30 27 H -3.61035 -0.463338 0.0806758 0
M  V30 28 H -1.36092 -2.78304 0.139577 0
M  V30 29 H -1.46463 -2.68996 -1.61463 0
M  V30 30 H 0.0510967 -2.17954 -0.877406 0
M  V30 END ATOM
M  V30 BEGIN BOND
M  V30 1 1 1 2
M  V30 2 1 2 3
M  V30 3 1 3 4
M  V30 4 2 4 5
M  V30 5 1 5 6
M  V30 6 2 6 7
M  V30 7 1 7 8
M  V30 8 2 8 9
M  V30 9 1 9 10
M  V30 10 1 3 11
M  V30 11 1 11 12
M  V30 12 1 11 13
M  V30 13 1 3 14
M  V30 14 1 9 4
M  V30 15 1 1 15
M  V30 16 1 1 16
M  V30 17 1 2 17
M  V30 18 1 2 18
M  V30 19 1 5 19
M  V30 20 1 7 20
M  V30 21 1 8 21
M  V30 22 1 10 22
M  V30 23 1 10 23
M  V30 24 1 11 24
M  V30 25 1 12 25
M  V30 26 1 12 26
M  V30 27 1 12 27
M  V30 28 1 13 28
M  V30 29 1 13 29
M  V30 30 1 13 30
M  V30 END BOND
M  V30 END CTAB
M  END
