
     RDKit          3D

  0  0  0  0  0  0  0  0  0  0999 V3000
M  V30 BEGIN CTAB
M  V30 COUNTS 44 45 0 0 0
M  V30 BEGIN ATOM
M  V30 1 O -0.741366 -0.782299 -1.38161 0
M  V30 2 C -0.380904 -0.225096 -0.326297 0
M  V30 3 C 1.04865 -0.064873 -0.0515983 0
M  V30 4 S 2.05285 -0.754865 -1.39051 0
M  V30 5 C 3.77796 -0.524305 -0.989014 0
M  V30 6 N 4.42847 0.587576 -1.36287 0
M  V30 7 C 5.7229 0.776131 -1.0695 0
M  V30 8 N 6.42873 1.94093 -1.45379 0
M  V30 9 C 6.37264 -0.214281 -0.366163 0
M  V30 10 C 5.72805 -1.37739 0.0357401 0
M  V30 11 N 4.4224 -1.47267 -0.308804 0
M  V30 12 N 6.40149 -2.38419 0.754636 0
M  V30 13 C 1.4403 1.35073 0.288242 0
M  V30 14 N -1.35235 0.239194 0.580619 0
M  V30 15 C -2.7543 0.110689 0.365843 0
M  V30 16 C -3.36806 -1.03355 0.839709 0
M  V30 17 C -2.62644 -2.09544 1.54309 0
M  V30 18 C -4.71948 -1.19202 0.650705 0
M  V30 19 C -5.48217 -0.225427 -0.00716917 0
M  V30 20 C -4.82116 0.897478 -0.460392 0
M  V30 21 C -3.46666 1.0931 -0.290169 0
M  V30 22 C -2.77259 2.31337 -0.787489 0
M  V30 23 C -6.94311 -0.402171 -0.208598 0
M  V30 24 H 1.27783 -0.684915 0.860227 0
M  V30 25 H 6.03484 2.89309 -1.34922 0
M  V30 26 H 7.40411 1.89189 -1.8711 0
M  V30 27 H 7.40808 -0.100696 -0.112378 0
M  V30 28 H 5.98478 -3.3226 0.835133 0
M  V30 29 H 7.31687 -2.15673 1.19485 0
M  V30 30 H 0.937888 2.11165 -0.311536 0
M  V30 31 H 2.54379 1.42738 0.206706 0
M  V30 32 H 1.22002 1.54327 1.37924 0
M  V30 33 H -1.03159 0.709551 1.47105 0
M  V30 34 H -3.21374 -3.01245 1.60911 0
M  V30 35 H -1.65264 -2.33618 1.04634 0
M  V30 36 H -2.33316 -1.68535 2.55245 0
M  V30 37 H -5.19504 -2.08677 1.02212 0
M  V30 38 H -5.36166 1.68292 -0.979107 0
M  V30 39 H -3.54314 3.08643 -0.99203 0
M  V30 40 H -2.1975 2.14055 -1.70392 0
M  V30 41 H -2.10501 2.74832 -0.00974968 0
M  V30 42 H -7.54108 0.250671 0.449155 0
M  V30 43 H -7.18393 -1.45334 0.0481588 0
M  V30 44 H -7.16557 -0.207295 -1.28718 0
M  V30 END ATOM
M  V30 BEGIN BOND
M  V30 1 2 1 2
M  V30 2 1 2 3
M  V30 3 1 3 4
M  V30 4 1 4 5
M  V30 5 2 5 6
M  V30 6 1 6 7
M  V30 7 1 7 8
M  V30 8 2 7 9
M  V30 9 1 9 10
M  V30 10 2 10 11
M  V30 11 1 10 12
M  V30 12 1 3 13
M  V30 13 1 2 14
M  V30 14 1 14 15
M  V30 15 2 15 16
M  V30 16 1 16 17
M  V30 17 1 16 18
M  V30 18 2 18 19
M  V30 19 1 19 20
M  V30 20 2 20 21
M  V30 21 1 21 22
M  V30 22 1 19 23
M  V30 23 1 11 5
M  V30 24 1 21 15
M  V30 25 1 3 24
M  V30 26 1 8 25
M  V30 27 1 8 26
M  V30 28 1 9 27
M  V30 29 1 12 28
M  V30 30 1 12 29
M  V30 31 1 13 30
M  V30 32 1 13 31
M  V30 33 1 13 32
M  V30 34 1 14 33
M  V30 35 1 17 34
M  V30 36 1 17 35
M  V30 37 1 17 36
M  V30 38 1 18 37
M  V30 39 1 20 38
M  V30 40 1 22 39
M  V30 41 1 22 40
M  V30 42 1 22 41
M  V30 43 1 23 42
M  V30 44 1 23 43
M  V30 45 1 23 44
M  V30 END BOND
M  V30 END CTAB
M  END
