
     RDKit          3D

  0  0  0  0  0  0  0  0  0  0999 V3000
M  V30 BEGIN CTAB
M  V30 COUNTS 83 84 0 0 0
M  V30 BEGIN ATOM
M  V30 1 C 0.338403 0.556533 -0.423324 0 CFG=1
M  V30 2 C 0.541515 1.34386 0.828414 0
M  V30 3 C 0.729627 0.416677 2.01122 0
M  V30 4 C 0.903758 1.22834 3.28821 0
M  V30 5 N 2.06583 2.06557 3.16765 0
M  V30 6 C 2.42618 2.965 4.22421 0
M  V30 7 N 1.7761 2.82222 5.46672 0
M  V30 8 N 3.32549 3.87912 4.02082 0
M  V30 9 N 1.44111 -0.300793 -0.747829 0
M  V30 10 C 2.06985 -0.198835 -2.00005 0
M  V30 11 O 1.66148 0.65372 -2.82271 0
M  V30 12 C 3.19681 -1.06107 -2.40068 0 CFG=2
M  V30 13 C 4.3049 -1.19795 -1.43817 0
M  V30 14 C 5.0504 -0.0435441 -1.00778 0
M  V30 15 C 6.14546 0.427878 -1.69572 0
M  V30 16 C 6.89655 1.5267 -1.2934 0
M  V30 17 C 6.54551 2.20397 -0.138711 0
M  V30 18 O 7.2516 3.3037 0.313891 0
M  V30 19 C 5.45822 1.75434 0.566283 0
M  V30 20 C 4.71157 0.647059 0.149407 0
M  V30 21 N 3.60161 -0.795297 -3.77413 0
M  V30 22 C 4.52777 -1.56351 -4.50695 0
M  V30 23 N 4.60546 -2.97173 -4.38584 0
M  V30 24 N 5.3277 -0.970994 -5.3132 0
M  V30 25 C -0.913218 -0.274349 -0.275653 0
M  V30 26 O -0.816068 -1.49566 -0.455232 0
M  V30 27 N -2.10719 0.379253 0.0545052 0
M  V30 28 C -3.41366 -0.177101 0.264927 0 CFG=1
M  V30 29 C -4.18265 -0.301842 -1.03606 0
M  V30 30 C -4.35587 1.01476 -1.68522 0
M  V30 31 C -5.41417 1.86219 -1.44726 0
M  V30 32 C -5.50146 3.0938 -2.10565 0
M  V30 33 C -4.53768 3.48154 -2.99914 0
M  V30 34 C -3.47144 2.64978 -3.25186 0
M  V30 35 C -3.40336 1.43194 -2.58826 0
M  V30 36 C -3.48402 -1.42269 1.03017 0
M  V30 37 O -2.48377 -1.96388 1.53035 0
M  V30 38 N -4.73368 -2.06299 1.22261 0
M  V30 39 C -4.84331 -3.29794 1.95755 0
M  V30 40 C -6.30571 -3.70878 1.98033 0
M  V30 41 S -6.4204 -5.24722 2.87833 0
M  V30 42 O -8.04774 -5.69362 2.89857 0
M  V30 43 O -5.89824 -5.1218 4.26911 0
M  V30 44 O -5.66442 -6.32503 2.1217 0
M  V30 45 H 0.129101 1.20856 -1.29923 0
M  V30 46 H -0.315875 2.00964 0.996099 0
M  V30 47 H 1.42353 2.035 0.738013 0
M  V30 48 H 1.58172 -0.27505 1.85996 0
M  V30 49 H -0.179644 -0.204255 2.1219 0
M  V30 50 H -0.0221137 1.84439 3.45917 0
M  V30 51 H 1.03901 0.574123 4.16352 0
M  V30 52 H 2.65468 2.01894 2.31557 0
M  V30 53 H 0.754038 2.94331 5.53342 0
M  V30 54 H 2.31951 2.59518 6.31351 0
M  V30 55 H 3.64128 4.56228 4.72305 0
M  V30 56 H 1.79677 -1.01027 -0.071483 0
M  V30 57 H 2.73003 -2.10181 -2.47454 0
M  V30 58 H 3.89044 -1.75587 -0.54606 0
M  V30 59 H 5.03656 -1.94763 -1.87002 0
M  V30 60 H 6.41977 -0.116964 -2.59573 0
M  V30 61 H 7.73776 1.87397 -1.84092 0
M  V30 62 H 7.039 4.24258 0.050569 0
M  V30 63 H 5.16124 2.27663 1.48722 0
M  V30 64 H 3.89121 0.375936 0.780717 0
M  V30 65 H 3.16927 0.0278605 -4.23761 0
M  V30 66 H 5.52465 -3.39616 -4.11297 0
M  V30 67 H 3.8162 -3.62632 -4.54928 0
M  V30 68 H 5.32223 0.0615136 -5.45193 0
M  V30 69 H -2.00732 1.45653 0.143607 0
M  V30 70 H -3.96752 0.594155 0.92464 0
M  V30 71 H -3.64998 -1.00766 -1.72747 0
M  V30 72 H -5.18067 -0.735242 -0.883417 0
M  V30 73 H -6.17114 1.55341 -0.744056 0
M  V30 74 H -6.36071 3.70171 -1.86475 0
M  V30 75 H -4.63733 4.45281 -3.49552 0
M  V30 76 H -2.73177 2.98597 -3.96004 0
M  V30 77 H -2.5645 0.801138 -2.80086 0
M  V30 78 H -5.58986 -1.63241 0.83482 0
M  V30 79 H -4.22326 -4.08552 1.45217 0
M  V30 80 H -4.49982 -3.18091 3.01289 0
M  V30 81 H -6.9443 -2.9386 2.41714 0
M  V30 82 H -6.57591 -3.92628 0.92339 0
M  V30 83 H -8.36107 -5.76596 3.82235 0
M  V30 END ATOM
M  V30 BEGIN BOND
M  V30 1 1 1 2
M  V30 2 1 2 3
M  V30 3 1 3 4
M  V30 4 1 4 5
M  V30 5 1 5 6
M  V30 6 1 6 7
M  V30 7 2 6 8 CFG=2
M  V30 8 1 1 9
M  V30 9 1 9 10
M  V30 10 2 10 11
M  V30 11 1 10 12
M  V30 12 1 12 13
M  V30 13 1 13 14
M  V30 14 2 14 15
M  V30 15 1 15 16
M  V30 16 2 16 17
M  V30 17 1 17 18
M  V30 18 1 17 19
M  V30 19 2 19 20
M  V30 20 1 12 21
M  V30 21 1 21 22
M  V30 22 1 22 23
M  V30 23 2 22 24 CFG=2
M  V30 24 1 1 25
M  V30 25 2 25 26
M  V30 26 1 25 27
M  V30 27 1 27 28
M  V30 28 1 28 29
M  V30 29 1 29 30
M  V30 30 2 30 31
M  V30 31 1 31 32
M  V30 32 2 32 33
M  V30 33 1 33 34
M  V30 34 2 34 35
M  V30 35 1 28 36
M  V30 36 2 36 37
M  V30 37 1 36 38
M  V30 38 1 38 39
M  V30 39 1 39 40
M  V30 40 1 40 41
M  V30 41 1 41 42
M  V30 42 2 41 43
M  V30 43 2 41 44
M  V30 44 1 20 14
M  V30 45 1 35 30
M  V30 46 1 1 45 CFG=3
M  V30 47 1 2 46
M  V30 48 1 2 47
M  V30 49 1 3 48
M  V30 50 1 3 49
M  V30 51 1 4 50
M  V30 52 1 4 51
M  V30 53 1 5 52
M  V30 54 1 7 53
M  V30 55 1 7 54
M  V30 56 1 8 55
M  V30 57 1 9 56
M  V30 58 1 12 57 CFG=3
M  V30 59 1 13 58
M  V30 60 1 13 59
M  V30 61 1 15 60
M  V30 62 1 16 61
M  V30 63 1 18 62
M  V30 64 1 19 63
M  V30 65 1 20 64
M  V30 66 1 21 65
M  V30 67 1 23 66
M  V30 68 1 23 67
M  V30 69 1 24 68
M  V30 70 1 27 69
M  V30 71 1 28 70 CFG=1
M  V30 72 1 29 71
M  V30 73 1 29 72
M  V30 74 1 31 73
M  V30 75 1 32 74
M  V30 76 1 33 75
M  V30 77 1 34 76
M  V30 78 1 35 77
M  V30 79 1 38 78
M  V30 80 1 39 79
M  V30 81 1 39 80
M  V30 82 1 40 81
M  V30 83 1 40 82
M  V30 84 1 42 83
M  V30 END BOND
M  V30 END CTAB
M  END
