
     RDKit          3D

  0  0  0  0  0  0  0  0  0  0999 V3000
M  V30 BEGIN CTAB
M  V30 COUNTS 22 22 0 0 0
M  V30 BEGIN ATOM
M  V30 1 C -2.02301 -0.461143 -1.20422 0
M  V30 2 C -2.03299 -0.124912 0.24307 0
M  V30 3 C -0.975086 0.795172 0.712343 0
M  V30 4 N 0.366854 0.375814 0.531322 0
M  V30 5 N 1.19504 -0.321071 1.28353 0
M  V30 6 C 2.3897 -0.484249 0.703599 0
M  V30 7 N 2.31698 0.139982 -0.475652 0
M  V30 8 C 1.08289 0.666253 -0.58374 0
M  V30 9 N 0.655457 1.40267 -1.71247 0
M  V30 10 N 3.46017 -1.18921 1.28868 0
M  V30 11 O -2.10009 -1.30713 1.00207 0
M  V30 12 H -2.2244 0.420535 -1.84563 0
M  V30 13 H -1.15428 -1.04048 -1.53897 0
M  V30 14 H -2.91298 -1.13755 -1.37941 0
M  V30 15 H -3.02209 0.387004 0.4478 0
M  V30 16 H -1.14924 0.965372 1.81272 0
M  V30 17 H -1.12271 1.78951 0.246312 0
M  V30 18 H 0.912052 1.07238 -2.65468 0
M  V30 19 H 0.0917416 2.26453 -1.61658 0
M  V30 20 H 3.71311 -1.01721 2.27417 0
M  V30 21 H 3.98904 -1.87657 0.729328 0
M  V30 22 H -1.45616 -1.31969 1.7364 0
M  V30 END ATOM
M  V30 BEGIN BOND
M  V30 1 1 1 2
M  V30 2 1 2 3
M  V30 3 1 3 4
M  V30 4 1 4 5
M  V30 5 2 5 6
M  V30 6 1 6 7
M  V30 7 2 7 8
M  V30 8 1 8 9
M  V30 9 1 6 10
M  V30 10 1 2 11
M  V30 11 1 8 4
M  V30 12 1 1 12
M  V30 13 1 1 13
M  V30 14 1 1 14
M  V30 15 1 2 15
M  V30 16 1 3 16
M  V30 17 1 3 17
M  V30 18 1 9 18
M  V30 19 1 9 19
M  V30 20 1 10 20
M  V30 21 1 10 21
M  V30 22 1 11 22
M  V30 END BOND
M  V30 END CTAB
M  END
