
     RDKit          3D

  0  0  0  0  0  0  0  0  0  0999 V3000
M  V30 BEGIN CTAB
M  V30 COUNTS 45 48 0 0 0
M  V30 BEGIN ATOM
M  V30 1 N -5.17427 1.71155 -0.321579 0
M  V30 2 C -3.86592 1.15798 -0.198639 0
M  V30 3 C -3.22665 0.609213 -1.26228 0
M  V30 4 C -1.96439 0.0772767 -1.13602 0
M  V30 5 C -1.32778 0.095371 0.0830447 0
M  V30 6 C -1.99603 0.65618 1.14343 0
M  V30 7 C -3.26329 1.19785 1.04764 0
M  V30 8 C 0.056208 -0.465355 0.29575 0
M  V30 9 C 0.121649 -1.27219 1.54006 0
M  V30 10 N 0.712884 -2.60418 1.34987 0
M  V30 11 C -0.118712 -3.41807 0.485827 0
M  V30 12 C -0.376728 -2.68972 -0.801117 0
M  V30 13 C 0.418069 -1.41402 -0.839539 0
M  V30 14 C 1.87956 -1.8078 -0.565655 0
M  V30 15 C 2.02207 -2.48017 0.778464 0
M  V30 16 C 1.00528 0.662079 0.192463 0
M  V30 17 C 1.03597 1.33657 -1.03307 0
M  V30 18 C 1.88439 2.40043 -1.23349 0
M  V30 19 C 2.73622 2.84952 -0.248344 0
M  V30 20 C 2.68555 2.16745 0.948836 0
M  V30 21 C 1.84649 1.09302 1.18951 0
M  V30 22 N 3.61704 3.94168 -0.432956 0
M  V30 23 H -6.02418 1.09091 -0.178833 0
M  V30 24 H -5.36813 2.7024 -0.546187 0
M  V30 25 H -3.7614 0.609823 -2.22236 0
M  V30 26 H -1.49883 -0.343961 -1.98625 0
M  V30 27 H -1.53602 0.695774 2.13224 0
M  V30 28 H -3.78242 1.64097 1.90146 0
M  V30 29 H -0.947114 -1.52422 1.85701 0
M  V30 30 H 0.605477 -0.8484 2.40785 0
M  V30 31 H -1.03889 -3.66188 1.05043 0
M  V30 32 H 0.47961 -4.32516 0.241162 0
M  V30 33 H -0.0620735 -3.27847 -1.69536 0
M  V30 34 H -1.46813 -2.53853 -0.881548 0
M  V30 35 H 0.436057 -0.944876 -1.82791 0
M  V30 36 H 2.55509 -0.938569 -0.656622 0
M  V30 37 H 2.13952 -2.50848 -1.40528 0
M  V30 38 H 2.43999 -3.50379 0.593844 0
M  V30 39 H 2.71501 -1.91375 1.40535 0
M  V30 40 H 0.415032 1.07523 -1.87162 0
M  V30 41 H 1.90556 2.92238 -2.18866 0
M  V30 42 H 3.34215 2.49909 1.73595 0
M  V30 43 H 1.86849 0.613796 2.15372 0
M  V30 44 H 4.6262 3.76858 -0.571768 0
M  V30 45 H 3.25141 4.90643 -0.42883 0
M  V30 END ATOM
M  V30 BEGIN BOND
M  V30 1 1 1 2
M  V30 2 2 2 3
M  V30 3 1 3 4
M  V30 4 2 4 5
M  V30 5 1 5 6
M  V30 6 2 6 7
M  V30 7 1 5 8
M  V30 8 1 8 9
M  V30 9 1 9 10
M  V30 10 1 10 11
M  V30 11 1 11 12
M  V30 12 1 12 13
M  V30 13 1 13 14
M  V30 14 1 14 15
M  V30 15 1 8 16
M  V30 16 2 16 17
M  V30 17 1 17 18
M  V30 18 2 18 19
M  V30 19 1 19 20
M  V30 20 2 20 21
M  V30 21 1 19 22
M  V30 22 1 7 2
M  V30 23 1 13 8
M  V30 24 1 21 16
M  V30 25 1 15 10
M  V30 26 1 1 23
M  V30 27 1 1 24
M  V30 28 1 3 25
M  V30 29 1 4 26
M  V30 30 1 6 27
M  V30 31 1 7 28
M  V30 32 1 9 29
M  V30 33 1 9 30
M  V30 34 1 11 31
M  V30 35 1 11 32
M  V30 36 1 12 33
M  V30 37 1 12 34
M  V30 38 1 13 35
M  V30 39 1 14 36
M  V30 40 1 14 37
M  V30 41 1 15 38
M  V30 42 1 15 39
M  V30 43 1 17 40
M  V30 44 1 18 41
M  V30 45 1 20 42
M  V30 46 1 21 43
M  V30 47 1 22 44
M  V30 48 1 22 45
M  V30 END BOND
M  V30 END CTAB
M  END
