
     RDKit          3D

  0  0  0  0  0  0  0  0  0  0999 V3000
M  V30 BEGIN CTAB
M  V30 COUNTS 24 24 0 0 0
M  V30 BEGIN ATOM
M  V30 1 N -2.30904 -2.07799 -0.935104 0
M  V30 2 C -1.05243 -1.36516 -1.0402 0
M  V30 3 C -1.0784 -0.150575 -0.180284 0
M  V30 4 C -2.16214 0.204359 0.586939 0
M  V30 5 C -2.18238 1.32247 1.37677 0
M  V30 6 F -3.2354 1.69413 2.1413 0
M  V30 7 C -1.0563 2.10813 1.38468 0
M  V30 8 C 0.0582306 1.75277 0.602053 0
M  V30 9 C 0.0767212 0.631374 -0.188485 0
M  V30 10 N 1.18578 0.290598 -0.98388 0
M  V30 11 S 2.78322 0.370414 -0.396511 0
M  V30 12 O 3.02964 1.37956 0.659974 0
M  V30 13 O 3.73751 0.71601 -1.53656 0
M  V30 14 N 3.24177 -1.17349 0.27367 0
M  V30 15 H -2.44131 -2.51927 0.000270547 0
M  V30 16 H -2.42834 -2.75345 -1.71764 0
M  V30 17 H -0.174862 -2.00619 -0.799076 0
M  V30 18 H -0.956059 -1.04649 -2.10766 0
M  V30 19 H -3.04917 -0.412181 0.582018 0
M  V30 20 H -1.02962 3.00677 1.99887 0
M  V30 21 H 0.914641 2.42498 0.643072 0
M  V30 22 H 1.01535 -0.0200833 -1.96418 0
M  V30 23 H 2.82923 -1.23657 1.22582 0
M  V30 24 H 4.28336 -1.14012 0.37414 0
M  V30 END ATOM
M  V30 BEGIN BOND
M  V30 1 1 1 2
M  V30 2 1 2 3
M  V30 3 2 3 4
M  V30 4 1 4 5
M  V30 5 1 5 6
M  V30 6 2 5 7
M  V30 7 1 7 8
M  V30 8 2 8 9
M  V30 9 1 9 10
M  V30 10 1 10 11
M  V30 11 2 11 12
M  V30 12 2 11 13
M  V30 13 1 11 14
M  V30 14 1 9 3
M  V30 15 1 1 15
M  V30 16 1 1 16
M  V30 17 1 2 17
M  V30 18 1 2 18
M  V30 19 1 4 19
M  V30 20 1 7 20
M  V30 21 1 8 21
M  V30 22 1 10 22
M  V30 23 1 14 23
M  V30 24 1 14 24
M  V30 END BOND
M  V30 END CTAB
M  END
