
     RDKit          3D

  0  0  0  0  0  0  0  0  0  0999 V3000
M  V30 BEGIN CTAB
M  V30 COUNTS 47 48 0 0 0
M  V30 BEGIN ATOM
M  V30 1 N -5.37006 1.95314 2.8455 0
M  V30 2 C -6.20055 0.930068 2.28885 0
M  V30 3 C -5.60677 0.453162 1.01303 0
M  V30 4 C -6.20165 -0.585146 0.317783 0
M  V30 5 C -5.64961 -1.01885 -0.855727 0
M  V30 6 C -4.51204 -0.45101 -1.37172 0
M  V30 7 C -3.89494 0.587712 -0.700445 0
M  V30 8 C -4.46442 1.01614 0.485466 0
M  V30 9 C -2.6709 1.20715 -1.24041 0
M  V30 10 N -1.45242 0.771984 -0.649041 0
M  V30 11 C -0.824753 -0.476676 -0.914828 0
M  V30 12 O -1.34427 -1.28753 -1.71874 0
M  V30 13 N 0.402284 -0.843215 -0.282977 0
M  V30 14 C 1.0251 -2.11853 -0.563566 0
M  V30 15 C 2.29714 -2.35269 0.164439 0
M  V30 16 C 3.38139 -1.40397 -0.0875724 0
M  V30 17 C 4.28883 -1.56925 -1.11304 0
M  V30 18 C 5.29106 -0.6812 -1.32917 0
M  V30 19 C 5.45741 0.432715 -0.537674 0
M  V30 20 C 4.5666 0.612919 0.484778 0
M  V30 21 C 3.52897 -0.295757 0.718022 0
M  V30 22 S 6.7623 1.56026 -0.846072 0
M  V30 23 O 6.31624 2.95499 -0.520805 0
M  V30 24 O 7.04636 1.53167 -2.32802 0
M  V30 25 N 8.18891 1.18003 -0.00585543 0
M  V30 26 H -5.39486 2.80389 2.2695 0
M  V30 27 H -5.54351 2.13011 3.85723 0
M  V30 28 H -7.18708 1.3921 2.0071 0
M  V30 29 H -6.36949 0.0955643 3.01345 0
M  V30 30 H -7.09311 -1.01397 0.743603 0
M  V30 31 H -6.11686 -1.82829 -1.39338 0
M  V30 32 H -4.13483 -0.852775 -2.31518 0
M  V30 33 H -3.95758 1.84368 1.0028 0
M  V30 34 H -2.7662 2.32771 -1.16183 0
M  V30 35 H -2.58729 1.02987 -2.34281 0
M  V30 36 H -0.982176 1.43252 0.0411287 0
M  V30 37 H 0.825971 -0.151895 0.38699 0
M  V30 38 H 1.08578 -2.31849 -1.654 0
M  V30 39 H 0.296424 -2.89505 -0.182403 0
M  V30 40 H 2.0577 -2.30156 1.26866 0
M  V30 41 H 2.61031 -3.417 0.0157173 0
M  V30 42 H 4.15971 -2.44165 -1.73339 0
M  V30 43 H 6.01391 -0.810175 -2.14466 0
M  V30 44 H 4.69512 1.49623 1.11581 0
M  V30 45 H 2.88511 -0.0554631 1.5592 0
M  V30 46 H 9.01072 1.13666 -0.656293 0
M  V30 47 H 8.13202 0.28988 0.546975 0
M  V30 END ATOM
M  V30 BEGIN BOND
M  V30 1 1 1 2
M  V30 2 1 2 3
M  V30 3 2 3 4
M  V30 4 1 4 5
M  V30 5 2 5 6
M  V30 6 1 6 7
M  V30 7 2 7 8
M  V30 8 1 7 9
M  V30 9 1 9 10
M  V30 10 1 10 11
M  V30 11 2 11 12
M  V30 12 1 11 13
M  V30 13 1 13 14
M  V30 14 1 14 15
M  V30 15 1 15 16
M  V30 16 2 16 17
M  V30 17 1 17 18
M  V30 18 2 18 19
M  V30 19 1 19 20
M  V30 20 2 20 21
M  V30 21 1 19 22
M  V30 22 2 22 23
M  V30 23 2 22 24
M  V30 24 1 22 25
M  V30 25 1 8 3
M  V30 26 1 21 16
M  V30 27 1 1 26
M  V30 28 1 1 27
M  V30 29 1 2 28
M  V30 30 1 2 29
M  V30 31 1 4 30
M  V30 32 1 5 31
M  V30 33 1 6 32
M  V30 34 1 8 33
M  V30 35 1 9 34
M  V30 36 1 9 35
M  V30 37 1 10 36
M  V30 38 1 13 37
M  V30 39 1 14 38
M  V30 40 1 14 39
M  V30 41 1 15 40
M  V30 42 1 15 41
M  V30 43 1 17 42
M  V30 44 1 18 43
M  V30 45 1 20 44
M  V30 46 1 21 45
M  V30 47 1 25 46
M  V30 48 1 25 47
M  V30 END BOND
M  V30 END CTAB
M  END
