
     RDKit          3D

  0  0  0  0  0  0  0  0  0  0999 V3000
M  V30 BEGIN CTAB
M  V30 COUNTS 37 38 0 0 0
M  V30 BEGIN ATOM
M  V30 1 C -1.85971 -2.01827 0.702877 0
M  V30 2 C -2.28823 -0.621669 0.262075 0
M  V30 3 C -2.36956 0.188983 1.5722 0
M  V30 4 N -3.57434 -0.595324 -0.30038 0
M  V30 5 C -3.85192 -0.0969656 -1.44019 0
M  V30 6 N -5.21023 -0.11703 -1.93524 0
M  V30 7 N -2.88077 0.499406 -2.2893 0
M  V30 8 C -1.66703 0.515032 -1.8421 0
M  V30 9 N -0.606976 1.08918 -2.61016 0
M  V30 10 N -1.30212 -0.0209114 -0.589928 0
M  V30 11 C 0.0735079 0.0408809 -0.173684 0
M  V30 12 C 0.89601 -0.999391 -0.50325 0
M  V30 13 C 2.23603 -0.951525 -0.104344 0
M  V30 14 C 2.71435 0.133877 0.611739 0
M  V30 15 C 1.87959 1.17832 0.940129 0
M  V30 16 C 0.556032 1.10041 0.529673 0
M  V30 17 S 4.41536 0.147037 1.09262 0
M  V30 18 C 5.40131 0.905682 -0.144283 0
M  V30 19 O 4.91172 -1.24551 1.35607 0
M  V30 20 O 4.50683 0.930326 2.3835 0
M  V30 21 H -2.65615 -2.42529 1.35667 0
M  V30 22 H -0.941512 -1.89155 1.31204 0
M  V30 23 H -1.72577 -2.69504 -0.15761 0
M  V30 24 H -3.17994 -0.273042 2.15625 0
M  V30 25 H -1.40732 0.0974735 2.07626 0
M  V30 26 H -2.61847 1.23248 1.38392 0
M  V30 27 H -5.85286 0.577399 -1.51181 0
M  V30 28 H -5.54898 -0.769782 -2.66386 0
M  V30 29 H 0.30458 0.623355 -2.67707 0
M  V30 30 H -0.787215 1.97963 -3.09078 0
M  V30 31 H 0.573967 -1.87317 -1.06217 0
M  V30 32 H 2.89112 -1.75893 -0.355486 0
M  V30 33 H 2.22913 2.0281 1.49382 0
M  V30 34 H -0.0988733 1.91208 0.783153 0
M  V30 35 H 6.04712 1.72955 0.238091 0
M  V30 36 H 6.06384 0.163098 -0.601725 0
M  V30 37 H 4.72748 1.28109 -0.955018 0
M  V30 END ATOM
M  V30 BEGIN BOND
M  V30 1 1 1 2
M  V30 2 1 2 3
M  V30 3 1 2 4
M  V30 4 2 4 5
M  V30 5 1 5 6
M  V30 6 1 5 7
M  V30 7 2 7 8
M  V30 8 1 8 9
M  V30 9 1 8 10
M  V30 10 1 10 11
M  V30 11 2 11 12
M  V30 12 1 12 13
M  V30 13 2 13 14
M  V30 14 1 14 15
M  V30 15 2 15 16
M  V30 16 1 14 17
M  V30 17 1 17 18
M  V30 18 2 17 19
M  V30 19 2 17 20
M  V30 20 1 10 2
M  V30 21 1 16 11
M  V30 22 1 1 21
M  V30 23 1 1 22
M  V30 24 1 1 23
M  V30 25 1 3 24
M  V30 26 1 3 25
M  V30 27 1 3 26
M  V30 28 1 6 27
M  V30 29 1 6 28
M  V30 30 1 9 29
M  V30 31 1 9 30
M  V30 32 1 12 31
M  V30 33 1 13 32
M  V30 34 1 15 33
M  V30 35 1 16 34
M  V30 36 1 18 35
M  V30 37 1 18 36
M  V30 38 1 18 37
M  V30 END BOND
M  V30 END CTAB
M  END
