
     RDKit          3D

  0  0  0  0  0  0  0  0  0  0999 V3000
M  V30 BEGIN CTAB
M  V30 COUNTS 53 56 0 0 0
M  V30 BEGIN ATOM
M  V30 1 F -2.78121 4.11491 -3.34822 0
M  V30 2 C -2.34612 3.48705 -2.20833 0
M  V30 3 C -2.75669 3.91406 -0.982941 0
M  V30 4 C -2.30876 3.26933 0.176565 0
M  V30 5 C -1.44979 2.19832 0.101541 0
M  V30 6 C -1.05266 1.78933 -1.13844 0
M  V30 7 C -1.48039 2.40756 -2.28623 0
M  V30 8 C -0.996363 1.55391 1.33768 0
M  V30 9 C 0.402155 1.89328 1.68029 0
M  V30 10 C 1.11342 0.7955 1.84902 0
M  V30 11 C 0.255811 -0.360056 1.63694 0
M  V30 12 O 0.606679 -1.59317 1.71701 0
M  V30 13 N -1.0338 0.138226 1.32685 0
M  V30 14 C -2.1209 -0.761425 1.07042 0
M  V30 15 C -3.1315 -1.01262 1.98079 0
M  V30 16 C -4.15985 -1.89852 1.68404 0
M  V30 17 C -4.20858 -2.55158 0.482382 0
M  V30 18 C -3.20955 -2.31027 -0.431592 0
M  V30 19 C -2.17638 -1.41994 -0.131747 0
M  V30 20 S -5.50761 -3.68591 0.0877904 0
M  V30 21 O -4.93089 -4.65181 -0.909904 0
M  V30 22 O -5.90645 -4.47053 1.29448 0
M  V30 23 N -6.84801 -2.88748 -0.631264 0
M  V30 24 N 2.4965 0.668613 2.18314 0
M  V30 25 C 3.47043 0.298413 1.21336 0
M  V30 26 C 3.10552 0.0431179 -0.101335 0
M  V30 27 C 4.03555 -0.314591 -1.05454 0
M  V30 28 C 5.37391 -0.434923 -0.744188 0
M  V30 29 C 5.7447 -0.182996 0.55964 0
M  V30 30 C 4.80575 0.177498 1.51998 0
M  V30 31 S 6.56589 -0.894396 -1.95681 0
M  V30 32 O 6.00411 -1.92415 -2.87967 0
M  V30 33 O 7.71246 -1.51772 -1.18495 0
M  V30 34 N 7.17359 0.493159 -2.73971 0
M  V30 35 H -3.43075 4.75585 -0.940826 0
M  V30 36 H -2.67834 3.66577 1.10797 0
M  V30 37 H -0.381845 0.95484 -1.22373 0
M  V30 38 H -1.15735 2.07214 -3.28294 0
M  V30 39 H -1.6075 1.89367 2.21307 0
M  V30 40 H 0.860222 2.87212 1.79566 0
M  V30 41 H -3.0675 -0.482351 2.92069 0
M  V30 42 H -4.94094 -2.08616 2.40103 0
M  V30 43 H -3.2508 -2.8307 -1.38701 0
M  V30 44 H -1.44882 -1.3071 -0.909003 0
M  V30 45 H -7.33798 -3.53281 -1.3196 0
M  V30 46 H -7.57955 -2.73622 0.122415 0
M  V30 47 H 2.83306 0.847134 3.16165 0
M  V30 48 H 2.06756 0.134566 -0.355153 0
M  V30 49 H 3.76214 -0.517174 -2.08968 0
M  V30 50 H 6.77446 -0.2656 0.838842 0
M  V30 51 H 5.11015 0.376756 2.55698 0
M  V30 52 H 8.18852 0.41971 -2.86995 0
M  V30 53 H 6.82425 1.39536 -2.37124 0
M  V30 END ATOM
M  V30 BEGIN BOND
M  V30 1 1 1 2
M  V30 2 2 2 3
M  V30 3 1 3 4
M  V30 4 2 4 5
M  V30 5 1 5 6
M  V30 6 2 6 7
M  V30 7 1 5 8
M  V30 8 1 8 9
M  V30 9 2 9 10
M  V30 10 1 10 11
M  V30 11 2 11 12
M  V30 12 1 11 13
M  V30 13 1 13 14
M  V30 14 2 14 15
M  V30 15 1 15 16
M  V30 16 2 16 17
M  V30 17 1 17 18
M  V30 18 2 18 19
M  V30 19 1 17 20
M  V30 20 2 20 21
M  V30 21 2 20 22
M  V30 22 1 20 23
M  V30 23 1 10 24
M  V30 24 1 24 25
M  V30 25 2 25 26
M  V30 26 1 26 27
M  V30 27 2 27 28
M  V30 28 1 28 29
M  V30 29 2 29 30
M  V30 30 1 28 31
M  V30 31 2 31 32
M  V30 32 2 31 33
M  V30 33 1 31 34
M  V30 34 1 7 2
M  V30 35 1 13 8
M  V30 36 1 19 14
M  V30 37 1 30 25
M  V30 38 1 3 35
M  V30 39 1 4 36
M  V30 40 1 6 37
M  V30 41 1 7 38
M  V30 42 1 8 39
M  V30 43 1 9 40
M  V30 44 1 15 41
M  V30 45 1 16 42
M  V30 46 1 18 43
M  V30 47 1 19 44
M  V30 48 1 23 45
M  V30 49 1 23 46
M  V30 50 1 24 47
M  V30 51 1 26 48
M  V30 52 1 27 49
M  V30 53 1 29 50
M  V30 54 1 30 51
M  V30 55 1 34 52
M  V30 56 1 34 53
M  V30 END BOND
M  V30 END CTAB
M  END
