
     RDKit          3D

  0  0  0  0  0  0  0  0  0  0999 V3000
M  V30 BEGIN CTAB
M  V30 COUNTS 34 35 0 0 0
M  V30 BEGIN ATOM
M  V30 1 N 5.4271 2.10703 0.0617747 0
M  V30 2 N 4.03308 1.92473 0.126047 0
M  V30 3 C 3.51134 0.658528 -0.230286 0
M  V30 4 O 4.28841 -0.271228 -0.593836 0
M  V30 5 C 2.05956 0.435273 -0.17374 0
M  V30 6 C 1.152 1.38681 0.205052 0
M  V30 7 N -0.164276 1.11613 0.232363 0
M  V30 8 C -0.638962 -0.0905598 -0.108522 0
M  V30 9 C 0.26224 -1.0648 -0.493888 0
M  V30 10 C 1.61764 -0.840676 -0.539311 0
M  V30 11 N 2.54235 -1.84651 -0.936791 0
M  V30 12 C -0.182736 -2.33665 -0.859507 0
M  V30 13 C -1.52966 -2.60813 -0.831779 0
M  V30 14 C -2.41516 -1.61966 -0.443383 0
M  V30 15 C -2.01293 -0.36029 -0.0778502 0
M  V30 16 C -2.92753 0.703588 0.338886 0
M  V30 17 C -4.37079 0.201563 0.184534 0
M  V30 18 C -2.80551 1.08457 1.79799 0
M  V30 19 H 5.7222 2.56857 -0.825651 0
M  V30 20 H 5.95793 1.25459 0.300586 0
M  V30 21 H 3.48529 2.74988 0.435811 0
M  V30 22 H 1.527 2.38576 0.488408 0
M  V30 23 H 2.71627 -1.95656 -1.95853 0
M  V30 24 H 3.00934 -2.43109 -0.221166 0
M  V30 25 H 0.550792 -3.07585 -1.15574 0
M  V30 26 H -1.88881 -3.59262 -1.11352 0
M  V30 27 H -3.46341 -1.84401 -0.425815 0
M  V30 28 H -2.84603 1.58847 -0.318028 0
M  V30 29 H -4.46748 -0.651419 0.886431 0
M  V30 30 H -4.55218 -0.074699 -0.852615 0
M  V30 31 H -5.04902 0.989798 0.567396 0
M  V30 32 H -3.27233 2.09703 1.89674 0
M  V30 33 H -3.46622 0.409905 2.41815 0
M  V30 34 H -1.80951 1.00252 2.21979 0
M  V30 END ATOM
M  V30 BEGIN BOND
M  V30 1 1 1 2
M  V30 2 1 2 3
M  V30 3 2 3 4
M  V30 4 1 3 5
M  V30 5 2 5 6
M  V30 6 1 6 7
M  V30 7 2 7 8
M  V30 8 1 8 9
M  V30 9 2 9 10
M  V30 10 1 10 11
M  V30 11 1 9 12
M  V30 12 2 12 13
M  V30 13 1 13 14
M  V30 14 2 14 15
M  V30 15 1 15 16
M  V30 16 1 16 17
M  V30 17 1 16 18
M  V30 18 1 10 5
M  V30 19 1 15 8
M  V30 20 1 1 19
M  V30 21 1 1 20
M  V30 22 1 2 21
M  V30 23 1 6 22
M  V30 24 1 11 23
M  V30 25 1 11 24
M  V30 26 1 12 25
M  V30 27 1 13 26
M  V30 28 1 14 27
M  V30 29 1 16 28
M  V30 30 1 17 29
M  V30 31 1 17 30
M  V30 32 1 17 31
M  V30 33 1 18 32
M  V30 34 1 18 33
M  V30 35 1 18 34
M  V30 END BOND
M  V30 END CTAB
M  END
