
     RDKit          3D

  0  0  0  0  0  0  0  0  0  0999 V3000
M  V30 BEGIN CTAB
M  V30 COUNTS 29 29 0 0 0
M  V30 BEGIN ATOM
M  V30 1 N -2.4314 2.3403 -0.834457 0
M  V30 2 N -1.65516 1.37624 -0.136648 0
M  V30 3 C -1.92406 0.0167741 -0.397375 0
M  V30 4 O -2.82917 -0.278692 -1.22007 0
M  V30 5 C -1.20409 -1.09997 0.237464 0
M  V30 6 C 0.187218 -1.30992 -0.258486 0
M  V30 7 C 1.10077 -0.170287 -0.0709237 0
M  V30 8 C 1.4134 0.631325 -1.17375 0
M  V30 9 C 2.26595 1.71193 -1.08829 0
M  V30 10 C 2.80967 1.97825 0.14932 0
M  V30 11 C 2.50705 1.19382 1.24061 0
M  V30 12 C 1.6563 0.114677 1.15765 0
M  V30 13 N 0.821458 -2.44678 0.437231 0
M  V30 14 C -2.02923 -2.38904 0.136121 0
M  V30 15 H -3.37932 1.95655 -1.03244 0
M  V30 16 H -2.48775 3.23389 -0.29063 0
M  V30 17 H -0.936417 1.72922 0.535892 0
M  V30 18 H -1.15684 -0.911859 1.34764 0
M  V30 19 H 0.178223 -1.56745 -1.36265 0
M  V30 20 H 0.990249 0.429249 -2.15147 0
M  V30 21 H 2.51486 2.3344 -1.92227 0
M  V30 22 H 3.49467 2.82791 0.270012 0
M  V30 23 H 2.93754 1.40091 2.231 0
M  V30 24 H 1.43759 -0.48648 2.04368 0
M  V30 25 H 1.84529 -2.34273 0.269032 0
M  V30 26 H 0.654351 -2.26852 1.45166 0
M  V30 27 H -2.25035 -2.62628 -0.90447 0
M  V30 28 H -3.00288 -2.18568 0.641112 0
M  V30 29 H -1.52792 -3.19177 0.695513 0
M  V30 END ATOM
M  V30 BEGIN BOND
M  V30 1 1 1 2
M  V30 2 1 2 3
M  V30 3 2 3 4
M  V30 4 1 3 5
M  V30 5 1 5 6
M  V30 6 1 6 7
M  V30 7 2 7 8
M  V30 8 1 8 9
M  V30 9 2 9 10
M  V30 10 1 10 11
M  V30 11 2 11 12
M  V30 12 1 6 13
M  V30 13 1 5 14
M  V30 14 1 12 7
M  V30 15 1 1 15
M  V30 16 1 1 16
M  V30 17 1 2 17
M  V30 18 1 5 18
M  V30 19 1 6 19
M  V30 20 1 8 20
M  V30 21 1 9 21
M  V30 22 1 10 22
M  V30 23 1 11 23
M  V30 24 1 12 24
M  V30 25 1 13 25
M  V30 26 1 13 26
M  V30 27 1 14 27
M  V30 28 1 14 28
M  V30 29 1 14 29
M  V30 END BOND
M  V30 END CTAB
M  END
