
     RDKit          3D

  0  0  0  0  0  0  0  0  0  0999 V3000
M  V30 BEGIN CTAB
M  V30 COUNTS 30 31 0 0 0
M  V30 BEGIN ATOM
M  V30 1 N -1.37383 1.70821 -1.71359 0
M  V30 2 C -1.72054 0.541663 -0.925492 0 CFG=2
M  V30 3 C -2.30183 0.909075 0.413758 0
M  V30 4 C -3.00354 -0.348701 0.943714 0
M  V30 5 C -2.09236 -1.51757 0.650333 0
M  V30 6 C -0.638128 -1.07416 0.605261 0
M  V30 7 C -0.440996 -0.256436 -0.653848 0 CFG=2
M  V30 8 C 0.645565 0.749748 -0.40844 0
M  V30 9 C 1.95262 0.0854611 -0.130127 0
M  V30 10 O 2.21483 -1.17954 -0.0851533 0
M  V30 11 N 3.46841 -1.39434 0.185809 0
M  V30 12 C 4.06458 -0.200765 0.327105 0
M  V30 13 N 3.10717 0.720138 0.127424 0
M  V30 14 N 5.4416 0.0804234 0.629724 0
M  V30 15 H -1.0237 1.36417 -2.63393 0
M  V30 16 H -2.20697 2.28499 -1.89953 0
M  V30 17 H -2.4308 -0.0596322 -1.49953 0
M  V30 18 H -1.49889 1.14591 1.14177 0
M  V30 19 H -3.03079 1.74352 0.345823 0
M  V30 20 H -3.14124 -0.271467 2.02388 0
M  V30 21 H -3.96865 -0.516472 0.439007 0
M  V30 22 H -2.30975 -1.97009 -0.333444 0
M  V30 23 H -2.22595 -2.28092 1.42184 0
M  V30 24 H -0.340725 -0.507021 1.50053 0
M  V30 25 H -0.0149678 -2.00205 0.561674 0
M  V30 26 H -0.195298 -0.885588 -1.51671 0
M  V30 27 H 0.817387 1.41973 -1.26931 0
M  V30 28 H 0.409136 1.38759 0.465043 0
M  V30 29 H 6.01432 -0.690311 1.03039 0
M  V30 30 H 5.82332 1.01445 0.44858 0
M  V30 END ATOM
M  V30 BEGIN BOND
M  V30 1 1 1 2
M  V30 2 1 2 3
M  V30 3 1 3 4
M  V30 4 1 4 5
M  V30 5 1 5 6
M  V30 6 1 6 7
M  V30 7 1 7 8
M  V30 8 1 8 9
M  V30 9 1 9 10
M  V30 10 1 10 11
M  V30 11 2 11 12
M  V30 12 1 12 13
M  V30 13 1 12 14
M  V30 14 1 7 2
M  V30 15 2 13 9
M  V30 16 1 1 15
M  V30 17 1 1 16
M  V30 18 1 2 17 CFG=3
M  V30 19 1 3 18
M  V30 20 1 3 19
M  V30 21 1 4 20
M  V30 22 1 4 21
M  V30 23 1 5 22
M  V30 24 1 5 23
M  V30 25 1 6 24
M  V30 26 1 6 25
M  V30 27 1 7 26 CFG=3
M  V30 28 1 8 27
M  V30 29 1 8 28
M  V30 30 1 14 29
M  V30 31 1 14 30
M  V30 END BOND
M  V30 END CTAB
M  END
