
     RDKit          3D

  0  0  0  0  0  0  0  0  0  0999 V3000
M  V30 BEGIN CTAB
M  V30 COUNTS 40 42 0 0 0
M  V30 BEGIN ATOM
M  V30 1 C -3.40195 1.83485 -0.519465 0
M  V30 2 C -3.77197 0.48057 -0.0204791 0
M  V30 3 C -2.8303 -0.459749 0.311845 0
M  V30 4 C -3.27912 -1.69981 0.75667 0
M  V30 5 N -4.58932 -1.95181 0.852234 0
M  V30 6 C -5.54927 -1.06423 0.539275 0
M  V30 7 N -6.93536 -1.37997 0.658152 0
M  V30 8 C -5.11194 0.174238 0.0948333 0
M  V30 9 C -1.38744 -0.194188 0.223644 0
M  V30 10 C -0.781383 0.919191 0.756828 0
M  V30 11 C 0.589468 1.11386 0.634355 0
M  V30 12 C 1.39292 0.210576 -0.0188785 0
M  V30 13 C 0.781831 -0.898238 -0.548612 0
M  V30 14 C -0.592942 -1.1082 -0.434201 0
M  V30 15 C 2.84029 0.43123 -0.157854 0
M  V30 16 C 3.79471 -0.500673 0.142549 0
M  V30 17 C 3.38672 -1.82676 0.669484 0
M  V30 18 C 5.14033 -0.179643 -0.0426073 0
M  V30 19 C 5.55677 1.04561 -0.518635 0
M  V30 20 N 6.93954 1.35863 -0.702631 0
M  V30 21 N 4.59341 1.93706 -0.80308 0
M  V30 22 C 3.29336 1.66748 -0.639504 0
M  V30 23 H -2.46052 1.81565 -1.07579 0
M  V30 24 H -4.22876 2.19944 -1.19346 0
M  V30 25 H -3.37463 2.5142 0.362357 0
M  V30 26 H -2.52588 -2.42362 1.012 0
M  V30 27 H -7.2815 -2.31136 0.353123 0
M  V30 28 H -7.63195 -0.711504 1.04263 0
M  V30 29 H -5.8906 0.90488 -0.162831 0
M  V30 30 H -1.3683 1.64321 1.27513 0
M  V30 31 H 1.01617 1.99753 1.06664 0
M  V30 32 H 1.35251 -1.6313 -1.06976 0
M  V30 33 H -1.05039 -1.99309 -0.861927 0
M  V30 34 H 2.49507 -1.68729 1.30836 0
M  V30 35 H 4.20351 -2.1011 1.40504 0
M  V30 36 H 3.28584 -2.60526 -0.106732 0
M  V30 37 H 5.87958 -0.938706 0.203566 0
M  V30 38 H 7.4898 1.05274 -1.5296 0
M  V30 39 H 7.43874 1.92474 0.0243304 0
M  V30 40 H 2.57297 2.44082 -0.891879 0
M  V30 END ATOM
M  V30 BEGIN BOND
M  V30 1 1 1 2
M  V30 2 2 2 3
M  V30 3 1 3 4
M  V30 4 2 4 5
M  V30 5 1 5 6
M  V30 6 1 6 7
M  V30 7 2 6 8
M  V30 8 1 3 9
M  V30 9 2 9 10
M  V30 10 1 10 11
M  V30 11 2 11 12
M  V30 12 1 12 13
M  V30 13 2 13 14
M  V30 14 1 12 15
M  V30 15 2 15 16
M  V30 16 1 16 17
M  V30 17 1 16 18
M  V30 18 2 18 19
M  V30 19 1 19 20
M  V30 20 1 19 21
M  V30 21 2 21 22
M  V30 22 1 8 2
M  V30 23 1 14 9
M  V30 24 1 22 15
M  V30 25 1 1 23
M  V30 26 1 1 24
M  V30 27 1 1 25
M  V30 28 1 4 26
M  V30 29 1 7 27
M  V30 30 1 7 28
M  V30 31 1 8 29
M  V30 32 1 10 30
M  V30 33 1 11 31
M  V30 34 1 13 32
M  V30 35 1 14 33
M  V30 36 1 17 34
M  V30 37 1 17 35
M  V30 38 1 17 36
M  V30 39 1 18 37
M  V30 40 1 20 38
M  V30 41 1 20 39
M  V30 42 1 22 40
M  V30 END BOND
M  V30 END CTAB
M  END
