
     RDKit          3D

  0  0  0  0  0  0  0  0  0  0999 V3000
M  V30 BEGIN CTAB
M  V30 COUNTS 23 23 0 0 0
M  V30 BEGIN ATOM
M  V30 1 O 0.765799 -0.645217 2.16392 0
M  V30 2 C 0.837228 -0.0833858 0.874158 0
M  V30 3 C 2.17266 -0.266493 0.277573 0
M  V30 4 C 2.58894 0.190184 -1.0373 0
M  V30 5 C 3.03064 1.00275 0.188325 0
M  V30 6 C -0.297439 -0.67407 0.0661735 0
M  V30 7 N -1.51465 -0.32534 0.724317 0
M  V30 8 C -2.6172 -0.010503 0.186409 0
M  V30 9 N -3.71145 0.303265 1.06536 0
M  V30 10 N -2.87609 0.0622651 -1.19955 0
M  V30 11 H 0.902906 -1.62263 2.1165 0
M  V30 12 H 0.621198 0.99783 0.977525 0
M  V30 13 H 2.7435 -1.14051 0.709172 0
M  V30 14 H 1.92885 0.70829 -1.7548 0
M  V30 15 H 3.4364 -0.324842 -1.53385 0
M  V30 16 H 2.51665 1.97673 0.301043 0
M  V30 17 H 4.08281 0.946936 0.502628 0
M  V30 18 H -0.184441 -1.78896 0.147216 0
M  V30 19 H -0.245902 -0.390031 -0.993159 0
M  V30 20 H -4.34589 -0.403537 1.45749 0
M  V30 21 H -3.89088 1.30959 1.33569 0
M  V30 22 H -2.77821 0.962432 -1.68711 0
M  V30 23 H -3.16546 -0.78476 -1.73642 0
M  V30 END ATOM
M  V30 BEGIN BOND
M  V30 1 1 1 2
M  V30 2 1 2 3
M  V30 3 1 3 4
M  V30 4 1 4 5
M  V30 5 1 2 6
M  V30 6 1 6 7
M  V30 7 2 7 8 CFG=2
M  V30 8 1 8 9
M  V30 9 1 8 10
M  V30 10 1 5 3
M  V30 11 1 1 11
M  V30 12 1 2 12
M  V30 13 1 3 13
M  V30 14 1 4 14
M  V30 15 1 4 15
M  V30 16 1 5 16
M  V30 17 1 5 17
M  V30 18 1 6 18
M  V30 19 1 6 19
M  V30 20 1 9 20
M  V30 21 1 9 21
M  V30 22 1 10 22
M  V30 23 1 10 23
M  V30 END BOND
M  V30 END CTAB
M  END
