
     RDKit          3D

  0  0  0  0  0  0  0  0  0  0999 V3000
M  V30 BEGIN CTAB
M  V30 COUNTS 114 121 0 0 0
M  V30 BEGIN ATOM
M  V30 1 N -3.15288 3.11389 -2.50496 0
M  V30 2 C -2.54525 2.12642 -1.73472 0 CFG=2
M  V30 3 C -3.45512 1.48116 -0.809046 0
M  V30 4 O -2.94496 1.12244 0.319515 0
M  V30 5 N -4.80962 1.2223 -1.04582 0
M  V30 6 C -5.5893 1.46536 -2.20314 0
M  V30 7 C -5.95341 0.0974428 -2.83384 0
M  V30 8 N -6.64003 -0.658564 -1.81726 0
M  V30 9 C -6.48174 -0.446831 -0.505993 0
M  V30 10 C -5.58456 0.591823 0.066193 0 CFG=2
M  V30 11 C -6.34131 1.70081 0.726925 0
M  V30 12 C -7.20014 1.28775 1.87324 0
M  V30 13 C -6.36836 0.656162 2.95893 0
M  V30 14 C -7.29836 0.0235941 3.96612 0
M  V30 15 C -8.63315 0.709545 3.92042 0
M  V30 16 C -8.51187 2.18964 3.76442 0
M  V30 17 C -7.7954 2.55346 2.50286 0
M  V30 18 N -7.27636 -1.33348 0.121812 0
M  V30 19 C -7.93578 -2.10145 -0.77778 0
M  V30 20 C -7.52906 -1.67065 -2.00008 0
M  V30 21 C -8.87575 -3.14704 -0.420994 0
M  V30 22 C -9.49642 -3.86855 -1.42316 0
M  V30 23 C -10.4022 -4.8728 -1.17656 0
M  V30 24 C -10.7287 -5.20131 0.138146 0
M  V30 25 C -10.116 -4.48905 1.13667 0
M  V30 26 C -9.20668 -3.4808 0.871123 0
M  V30 27 C -1.29476 2.72224 -1.08665 0
M  V30 28 S -0.246375 3.25294 -2.41876 0
M  V30 29 S 0.388212 1.62864 -3.55529 0
M  V30 30 C 1.93576 0.990628 -3.10607 0
M  V30 31 C 2.19514 0.295239 -1.82436 0 CFG=1
M  V30 32 C 3.59262 -0.162342 -1.71321 0
M  V30 33 O 3.74344 -1.43734 -1.89484 0
M  V30 34 N 4.76515 0.533031 -1.45419 0
M  V30 35 C 4.84639 1.95086 -1.29026 0
M  V30 36 C 5.58037 2.39508 -0.0891897 0
M  V30 37 N 6.17939 1.28896 0.617466 0
M  V30 38 C 6.42157 0.0772678 0.0876108 0
M  V30 39 C 6.07037 -0.224847 -1.32167 0 CFG=2
M  V30 40 C 6.88744 0.225376 -2.4175 0
M  V30 41 C 8.23861 -0.232912 -2.74662 0
M  V30 42 C 9.27364 0.0484602 -1.71945 0
M  V30 43 C 10.3855 -1.013 -1.734 0
M  V30 44 C 9.70215 -2.29353 -1.30842 0
M  V30 45 C 8.63578 -2.67918 -2.27548 0
M  V30 46 C 8.31037 -1.63888 -3.29803 0
M  V30 47 N 6.96173 -0.663036 1.09435 0
M  V30 48 C 7.06746 0.0346343 2.22245 0
M  V30 49 C 6.57277 1.27623 1.92937 0
M  V30 50 C 7.5979 -0.40625 3.52477 0
M  V30 51 C 7.63582 0.472968 4.58821 0
M  V30 52 C 8.12344 0.096761 5.81566 0
M  V30 53 C 8.59909 -1.17214 6.05683 0
M  V30 54 C 8.56853 -2.07647 4.99174 0
M  V30 55 C 8.06901 -1.67119 3.75323 0
M  V30 56 N 1.89097 1.17317 -0.705943 0
M  V30 57 H -3.81416 3.73209 -2.05257 0
M  V30 58 H -2.63593 3.56818 -3.23273 0
M  V30 59 H -2.0999 1.30399 -2.39869 0
M  V30 60 H -6.60521 1.91343 -1.94479 0
M  V30 61 H -5.21739 2.05344 -3.01453 0
M  V30 62 H -6.54223 0.241865 -3.73917 0
M  V30 63 H -4.99517 -0.407633 -3.09465 0
M  V30 64 H -4.8637 0.117019 0.731699 0
M  V30 65 H -5.58965 2.468 1.07669 0
M  V30 66 H -6.98955 2.26651 0.0142885 0
M  V30 67 H -8.04757 0.645803 1.55463 0
M  V30 68 H -5.77489 1.4693 3.41973 0
M  V30 69 H -5.61308 -0.0705787 2.58361 0
M  V30 70 H -7.48233 -1.03327 3.60208 0
M  V30 71 H -6.86725 -0.025463 4.98301 0
M  V30 72 H -9.28495 0.313162 3.10185 0
M  V30 73 H -9.14713 0.515485 4.89458 0
M  V30 74 H -9.55442 2.6205 3.6917 0
M  V30 75 H -7.97016 2.63813 4.62923 0
M  V30 76 H -8.44739 3.07815 1.7528 0
M  V30 77 H -6.92806 3.23318 2.68411 0
M  V30 78 H -7.86914 -2.07862 -2.9557 0
M  V30 79 H -9.24234 -3.60983 -2.46119 0
M  V30 80 H -10.8892 -5.43665 -1.95043 0
M  V30 81 H -11.4473 -5.99867 0.309662 0
M  V30 82 H -10.3462 -4.718 2.16068 0
M  V30 83 H -8.73779 -2.93484 1.6788 0
M  V30 84 H -0.897234 2.11866 -0.298721 0
M  V30 85 H -1.66609 3.67055 -0.57222 0
M  V30 86 H 2.73121 1.76392 -3.33795 0
M  V30 87 H 2.21892 0.198577 -3.91098 0
M  V30 88 H 1.52969 -0.592189 -1.70303 0
M  V30 89 H 5.40562 2.3392 -2.21882 0
M  V30 90 H 3.86524 2.4871 -1.41464 0
M  V30 91 H 4.81953 2.92113 0.571594 0
M  V30 92 H 6.35828 3.16061 -0.307741 0
M  V30 93 H 5.73397 -1.29177 -1.36641 0
M  V30 94 H 6.24698 0.218826 -3.36846 0
M  V30 95 H 7.00757 1.3749 -2.28892 0
M  V30 96 H 8.55154 0.395367 -3.64977 0
M  V30 97 H 8.97059 0.193231 -0.699054 0
M  V30 98 H 9.85767 1.00296 -1.96871 0
M  V30 99 H 10.8606 -1.08379 -2.73206 0
M  V30 100 H 11.1374 -0.693262 -0.997492 0
M  V30 101 H 10.5042 -3.05851 -1.20594 0
M  V30 102 H 9.24164 -2.08745 -0.314764 0
M  V30 103 H 8.99606 -3.6132 -2.79143 0
M  V30 104 H 7.73432 -2.98549 -1.711 0
M  V30 105 H 9.0535 -1.72683 -4.11434 0
M  V30 106 H 7.32441 -1.87668 -3.74019 0
M  V30 107 H 6.5052 2.11844 2.62602 0
M  V30 108 H 7.25656 1.49052 4.40819 0
M  V30 109 H 8.15356 0.790492 6.64884 0
M  V30 110 H 8.98164 -1.46523 7.03054 0
M  V30 111 H 8.94197 -3.07238 5.17701 0
M  V30 112 H 8.05929 -2.38694 2.95357 0
M  V30 113 H 1.01131 0.831741 -0.210222 0
M  V30 114 H 2.68185 1.13016 0.00687244 0
M  V30 END ATOM
M  V30 BEGIN BOND
M  V30 1 1 1 2
M  V30 2 1 2 3
M  V30 3 2 3 4
M  V30 4 1 3 5
M  V30 5 1 5 6
M  V30 6 1 6 7
M  V30 7 1 7 8
M  V30 8 1 8 9
M  V30 9 1 9 10
M  V30 10 1 10 11
M  V30 11 1 11 12
M  V30 12 1 12 13
M  V30 13 1 13 14
M  V30 14 1 14 15
M  V30 15 1 15 16
M  V30 16 1 16 17
M  V30 17 2 9 18
M  V30 18 1 18 19
M  V30 19 2 19 20
M  V30 20 1 19 21
M  V30 21 2 21 22
M  V30 22 1 22 23
M  V30 23 2 23 24
M  V30 24 1 24 25
M  V30 25 2 25 26
M  V30 26 1 2 27
M  V30 27 1 27 28
M  V30 28 1 28 29
M  V30 29 1 29 30
M  V30 30 1 30 31
M  V30 31 1 31 32
M  V30 32 2 32 33
M  V30 33 1 32 34
M  V30 34 1 34 35
M  V30 35 1 35 36
M  V30 36 1 36 37
M  V30 37 1 37 38
M  V30 38 1 38 39
M  V30 39 1 39 40
M  V30 40 1 40 41
M  V30 41 1 41 42
M  V30 42 1 42 43
M  V30 43 1 43 44
M  V30 44 1 44 45
M  V30 45 1 45 46
M  V30 46 2 38 47
M  V30 47 1 47 48
M  V30 48 2 48 49
M  V30 49 1 48 50
M  V30 50 2 50 51
M  V30 51 1 51 52
M  V30 52 2 52 53
M  V30 53 1 53 54
M  V30 54 2 54 55
M  V30 55 1 31 56
M  V30 56 1 10 5
M  V30 57 1 17 12
M  V30 58 1 26 21
M  V30 59 1 39 34
M  V30 60 1 46 41
M  V30 61 1 55 50
M  V30 62 1 20 8
M  V30 63 1 49 37
M  V30 64 1 1 57
M  V30 65 1 1 58
M  V30 66 1 2 59 CFG=3
M  V30 67 1 6 60
M  V30 68 1 6 61
M  V30 69 1 7 62
M  V30 70 1 7 63
M  V30 71 1 10 64 CFG=1
M  V30 72 1 11 65
M  V30 73 1 11 66
M  V30 74 1 12 67
M  V30 75 1 13 68
M  V30 76 1 13 69
M  V30 77 1 14 70
M  V30 78 1 14 71
M  V30 79 1 15 72
M  V30 80 1 15 73
M  V30 81 1 16 74
M  V30 82 1 16 75
M  V30 83 1 17 76
M  V30 84 1 17 77
M  V30 85 1 20 78
M  V30 86 1 22 79
M  V30 87 1 23 80
M  V30 88 1 24 81
M  V30 89 1 25 82
M  V30 90 1 26 83
M  V30 91 1 27 84
M  V30 92 1 27 85
M  V30 93 1 30 86
M  V30 94 1 30 87
M  V30 95 1 31 88 CFG=1
M  V30 96 1 35 89
M  V30 97 1 35 90
M  V30 98 1 36 91
M  V30 99 1 36 92
M  V30 100 1 39 93 CFG=1
M  V30 101 1 40 94
M  V30 102 1 40 95
M  V30 103 1 41 96
M  V30 104 1 42 97
M  V30 105 1 42 98
M  V30 106 1 43 99
M  V30 107 1 43 100
M  V30 108 1 44 101
M  V30 109 1 44 102
M  V30 110 1 45 103
M  V30 111 1 45 104
M  V30 112 1 46 105
M  V30 113 1 46 106
M  V30 114 1 49 107
M  V30 115 1 51 108
M  V30 116 1 52 109
M  V30 117 1 53 110
M  V30 118 1 54 111
M  V30 119 1 55 112
M  V30 120 1 56 113
M  V30 121 1 56 114
M  V30 END BOND
M  V30 END CTAB
M  END
