
     RDKit          3D

  0  0  0  0  0  0  0  0  0  0999 V3000
M  V30 BEGIN CTAB
M  V30 COUNTS 25 25 0 0 0
M  V30 BEGIN ATOM
M  V30 1 O 4.15891 0.20297 0.457114 0
M  V30 2 C 2.78588 0.345584 0.402157 0
M  V30 3 O 2.25254 0.873016 1.44002 0
M  V30 4 C 1.9313 -0.062868 -0.747179 0
M  V30 5 C 0.508975 0.135349 -0.466854 0
M  V30 6 C -0.117243 1.36116 -0.781528 0
M  V30 7 C -1.42457 1.62334 -0.477658 0
M  V30 8 N -2.01719 2.87325 -0.810899 0
M  V30 9 C -2.15113 0.644112 0.161561 0
M  V30 10 C -1.57853 -0.59119 0.495766 0
M  V30 11 C -0.232689 -0.827269 0.167321 0
M  V30 12 C 0.290131 -2.14291 0.462786 0
M  V30 13 F -0.643948 -2.96433 1.12355 0
M  V30 14 F 0.42818 -2.7975 -0.78943 0
M  V30 15 F 1.45039 -2.31314 1.09388 0
M  V30 16 N -2.34811 -1.57253 1.15133 0
M  V30 17 H 4.68603 -0.0261467 -0.374405 0
M  V30 18 H 2.28878 0.588257 -1.59697 0
M  V30 19 H 2.21451 -1.12059 -0.95757 0
M  V30 20 H 0.468891 2.09674 -1.27526 0
M  V30 21 H -3.01077 3.09592 -0.588585 0
M  V30 22 H -1.46684 3.61537 -1.2949 0
M  V30 23 H -3.18844 0.843812 0.407273 0
M  V30 24 H -2.91359 -2.2535 0.612268 0
M  V30 25 H -2.37144 -1.62689 2.18622 0
M  V30 END ATOM
M  V30 BEGIN BOND
M  V30 1 1 1 2
M  V30 2 2 2 3
M  V30 3 1 2 4
M  V30 4 1 4 5
M  V30 5 2 5 6
M  V30 6 1 6 7
M  V30 7 1 7 8
M  V30 8 2 7 9
M  V30 9 1 9 10
M  V30 10 2 10 11
M  V30 11 1 11 12
M  V30 12 1 12 13
M  V30 13 1 12 14
M  V30 14 1 12 15
M  V30 15 1 10 16
M  V30 16 1 11 5
M  V30 17 1 1 17
M  V30 18 1 4 18
M  V30 19 1 4 19
M  V30 20 1 6 20
M  V30 21 1 8 21
M  V30 22 1 8 22
M  V30 23 1 9 23
M  V30 24 1 16 24
M  V30 25 1 16 25
M  V30 END BOND
M  V30 END CTAB
M  END
