
     RDKit          3D

  0  0  0  0  0  0  0  0  0  0999 V3000
M  V30 BEGIN CTAB
M  V30 COUNTS 61 62 0 0 0
M  V30 BEGIN ATOM
M  V30 1 N -8.77858 -1.28184 -2.60919 0
M  V30 2 C -7.70191 -0.983485 -1.7291 0
M  V30 3 N -7.62195 -1.57642 -0.528899 0
M  V30 4 C -6.63183 -1.32317 0.318728 0
M  V30 5 N -6.56871 -1.96261 1.58283 0
M  V30 6 C -5.59707 -0.416309 0.0194841 0
M  V30 7 C -4.55682 -0.210276 1.02154 0
M  V30 8 C -3.43834 0.727288 0.644067 0
M  V30 9 C -2.44779 0.835254 1.76105 0
M  V30 10 C -1.26056 1.68734 1.56888 0
M  V30 11 C -1.44291 3.10259 1.27435 0
M  V30 12 O -1.72975 3.87688 2.22196 0
M  V30 13 C -1.32525 3.77631 -0.0416895 0
M  V30 14 F -2.17922 3.35848 -1.00883 0
M  V30 15 F -1.56745 5.15532 0.0777266 0
M  V30 16 F 0.0113609 3.74635 -0.487594 0
M  V30 17 C -0.0665234 1.03756 0.963885 0
M  V30 18 C -0.0176221 0.646509 -0.371678 0
M  V30 19 C 1.09127 0.0396551 -0.937552 0
M  V30 20 C 2.21161 -0.204768 -0.183647 0
M  V30 21 C 2.2135 0.166385 1.15352 0
M  V30 22 C 1.10215 0.759436 1.66658 0
M  V30 23 C 3.36273 -0.843432 -0.782065 0
M  V30 24 O 3.22717 -1.32146 -1.95378 0
M  V30 25 N 4.62544 -0.980102 -0.173702 0
M  V30 26 C 5.75963 -1.62749 -0.799582 0
M  V30 27 C 6.7981 -0.662746 -1.23348 0
M  V30 28 C 7.39781 0.253028 -0.252135 0
M  V30 29 C 8.13534 -0.202159 0.886087 0
M  V30 30 O 8.60963 0.778943 1.79466 0
M  V30 31 O 8.41377 -1.35844 1.17922 0
M  V30 32 C 6.18209 -2.88171 -0.186329 0
M  V30 33 O 7.18339 -3.62914 -0.801716 0
M  V30 34 O 5.64121 -3.27589 0.879113 0
M  V30 35 C -5.68878 0.18058 -1.20369 0
M  V30 36 O -4.83913 1.01796 -1.62037 0
M  V30 37 N -6.73059 -0.118188 -2.03583 0
M  V30 38 H -9.03647 -2.25395 -2.79577 0
M  V30 39 H -9.31496 -0.516405 -3.07235 0
M  V30 40 H -6.60913 -1.33096 2.4207 0
M  V30 41 H -6.48808 -2.97418 1.74559 0
M  V30 42 H -4.10805 -1.19432 1.29007 0
M  V30 43 H -5.06245 0.164763 1.96011 0
M  V30 44 H -3.00929 0.358097 -0.295586 0
M  V30 45 H -3.93832 1.69925 0.436504 0
M  V30 46 H -3.05956 1.13084 2.67029 0
M  V30 47 H -2.17838 -0.234935 2.01809 0
M  V30 48 H -0.875563 1.75391 2.70849 0
M  V30 49 H -0.850645 0.806784 -1.02083 0
M  V30 50 H 1.07255 -0.242918 -1.98106 0
M  V30 51 H 3.10283 -0.0333626 1.73531 0
M  V30 52 H 1.16715 1.02909 2.73046 0
M  V30 53 H 4.77546 -0.600831 0.780056 0
M  V30 54 H 5.29544 -1.98679 -1.81374 0
M  V30 55 H 6.32627 -0.0562501 -2.07776 0
M  V30 56 H 7.57438 -1.2592 -1.78821 0
M  V30 57 H 6.55254 0.983873 0.0575005 0
M  V30 58 H 8.02816 0.989079 -0.887678 0
M  V30 59 H 7.97716 1.51019 2.02354 0
M  V30 60 H 7.6686 -4.38188 -0.331543 0
M  V30 61 H -6.78505 0.353872 -2.97924 0
M  V30 END ATOM
M  V30 BEGIN BOND
M  V30 1 1 1 2
M  V30 2 2 2 3
M  V30 3 1 3 4
M  V30 4 1 4 5
M  V30 5 2 4 6
M  V30 6 1 6 7
M  V30 7 1 7 8
M  V30 8 1 8 9
M  V30 9 1 9 10
M  V30 10 1 10 11
M  V30 11 2 11 12
M  V30 12 1 11 13
M  V30 13 1 13 14
M  V30 14 1 13 15
M  V30 15 1 13 16
M  V30 16 1 10 17
M  V30 17 2 17 18
M  V30 18 1 18 19
M  V30 19 2 19 20
M  V30 20 1 20 21
M  V30 21 2 21 22
M  V30 22 1 20 23
M  V30 23 2 23 24
M  V30 24 1 23 25
M  V30 25 1 25 26
M  V30 26 1 26 27
M  V30 27 1 27 28
M  V30 28 1 28 29
M  V30 29 1 29 30
M  V30 30 2 29 31
M  V30 31 1 26 32
M  V30 32 1 32 33
M  V30 33 2 32 34
M  V30 34 1 6 35
M  V30 35 2 35 36
M  V30 36 1 35 37
M  V30 37 1 37 2
M  V30 38 1 22 17
M  V30 39 1 1 38
M  V30 40 1 1 39
M  V30 41 1 5 40
M  V30 42 1 5 41
M  V30 43 1 7 42
M  V30 44 1 7 43
M  V30 45 1 8 44
M  V30 46 1 8 45
M  V30 47 1 9 46
M  V30 48 1 9 47
M  V30 49 1 10 48
M  V30 50 1 18 49
M  V30 51 1 19 50
M  V30 52 1 21 51
M  V30 53 1 22 52
M  V30 54 1 25 53
M  V30 55 1 26 54
M  V30 56 1 27 55
M  V30 57 1 27 56
M  V30 58 1 28 57
M  V30 59 1 28 58
M  V30 60 1 30 59
M  V30 61 1 33 60
M  V30 62 1 37 61
M  V30 END BOND
M  V30 END CTAB
M  END
