
     RDKit          3D

  0  0  0  0  0  0  0  0  0  0999 V3000
M  V30 BEGIN CTAB
M  V30 COUNTS 45 46 0 0 0
M  V30 BEGIN ATOM
M  V30 1 C -1.00257 -3.53029 0.2173 0
M  V30 2 C -1.95618 -2.37461 -0.124588 0
M  V30 3 C -1.38701 -1.08314 0.189263 0
M  V30 4 C -0.146729 -0.987939 0.775041 0
M  V30 5 C 0.429893 0.251398 1.08759 0
M  V30 6 C 1.76269 0.289599 1.73198 0
M  V30 7 C 2.89698 0.0587871 0.84809 0
M  V30 8 C 3.43485 0.963976 -0.022805 0
M  V30 9 N 2.89717 2.274 -0.123142 0
M  V30 10 N 4.50118 0.621252 -0.805462 0
M  V30 11 C 5.03131 -0.606374 -0.727341 0
M  V30 12 N 6.13967 -0.94775 -1.5477 0
M  V30 13 N 4.5394 -1.50917 0.102763 0
M  V30 14 C 3.49137 -1.20534 0.886394 0
M  V30 15 C -0.290494 1.38403 0.787742 0
M  V30 16 C -1.56062 1.32084 0.188655 0
M  V30 17 C -2.26354 2.58482 -0.107537 0
M  V30 18 C -2.22741 3.00022 -1.54213 0
M  V30 19 C -2.08368 0.0659717 -0.0991424 0
M  V30 20 C -3.39696 -0.0401664 -0.709075 0
M  V30 21 C -4.39928 -0.445999 0.38152 0
M  V30 22 H -0.00253102 -3.3675 -0.274927 0
M  V30 23 H -0.838504 -3.62745 1.2886 0
M  V30 24 H -1.37829 -4.47717 -0.229849 0
M  V30 25 H -2.13623 -2.43377 -1.22429 0
M  V30 26 H -2.9028 -2.64264 0.35959 0
M  V30 27 H 0.440779 -1.8608 1.02116 0
M  V30 28 H 1.78714 -0.371627 2.6492 0
M  V30 29 H 1.90471 1.31785 2.17189 0
M  V30 30 H 2.19528 2.57169 -0.827144 0
M  V30 31 H 3.24177 2.9773 0.567448 0
M  V30 32 H 6.97898 -1.46386 -1.1671 0
M  V30 33 H 6.18321 -0.707983 -2.56517 0
M  V30 34 H 3.10468 -1.96155 1.55983 0
M  V30 35 H 0.142172 2.33447 1.03429 0
M  V30 36 H -1.82434 3.39796 0.52659 0
M  V30 37 H -3.35076 2.5055 0.187202 0
M  V30 38 H -3.17631 3.49785 -1.79874 0
M  V30 39 H -1.42431 3.72992 -1.77096 0
M  V30 40 H -2.0887 2.15028 -2.24925 0
M  V30 41 H -3.49316 -0.808818 -1.49226 0
M  V30 42 H -3.80183 0.889474 -1.1569 0
M  V30 43 H -5.17582 0.3255 0.530595 0
M  V30 44 H -4.9351 -1.38407 0.128717 0
M  V30 45 H -3.86008 -0.674706 1.34408 0
M  V30 END ATOM
M  V30 BEGIN BOND
M  V30 1 1 1 2
M  V30 2 1 2 3
M  V30 3 2 3 4
M  V30 4 1 4 5
M  V30 5 1 5 6
M  V30 6 1 6 7
M  V30 7 2 7 8
M  V30 8 1 8 9
M  V30 9 1 8 10
M  V30 10 2 10 11
M  V30 11 1 11 12
M  V30 12 1 11 13
M  V30 13 2 13 14
M  V30 14 2 5 15
M  V30 15 1 15 16
M  V30 16 1 16 17
M  V30 17 1 17 18
M  V30 18 2 16 19
M  V30 19 1 19 20
M  V30 20 1 20 21
M  V30 21 1 19 3
M  V30 22 1 14 7
M  V30 23 1 1 22
M  V30 24 1 1 23
M  V30 25 1 1 24
M  V30 26 1 2 25
M  V30 27 1 2 26
M  V30 28 1 4 27
M  V30 29 1 6 28
M  V30 30 1 6 29
M  V30 31 1 9 30
M  V30 32 1 9 31
M  V30 33 1 12 32
M  V30 34 1 12 33
M  V30 35 1 14 34
M  V30 36 1 15 35
M  V30 37 1 17 36
M  V30 38 1 17 37
M  V30 39 1 18 38
M  V30 40 1 18 39
M  V30 41 1 18 40
M  V30 42 1 20 41
M  V30 43 1 20 42
M  V30 44 1 21 43
M  V30 45 1 21 44
M  V30 46 1 21 45
M  V30 END BOND
M  V30 END CTAB
M  END
