
     RDKit          3D

  0  0  0  0  0  0  0  0  0  0999 V3000
M  V30 BEGIN CTAB
M  V30 COUNTS 24 25 0 0 0
M  V30 BEGIN ATOM
M  V30 1 N -1.61607 1.51322 -0.114449 0
M  V30 2 C -1.1289 0.338734 -0.732831 0
M  V30 3 N -0.0701159 0.416684 -1.44472 0
M  V30 4 N 0.554435 1.65362 -1.57847 0
M  V30 5 C 1.72956 1.80235 -1.08366 0
M  V30 6 C 2.31824 0.64813 -0.414782 0
M  V30 7 C 3.57169 0.638193 0.170765 0
M  V30 8 C 3.77667 -0.61892 0.696704 0
M  V30 9 C 2.63157 -1.32725 0.407583 0
M  V30 10 O 1.82485 -0.544879 -0.235154 0
M  V30 11 C -1.85366 -0.930724 -0.53773 0
M  V30 12 N -1.53803 -2.13119 -1.04398 0
M  V30 13 O -2.4292 -2.96739 -0.629936 0
M  V30 14 N -3.3117 -2.40749 0.113565 0
M  V30 15 C -2.98848 -1.09955 0.204794 0
M  V30 16 N -3.70792 -0.131583 0.933831 0
M  V30 17 H -2.42135 2.03377 -0.52008 0
M  V30 18 H -1.15113 1.85431 0.764512 0
M  V30 19 H 2.28208 2.73934 -1.1481 0
M  V30 20 H 4.2748 1.46307 0.214684 0
M  V30 21 H 4.65522 -0.988696 1.23143 0
M  V30 22 H 2.50821 -2.36297 0.705165 0
M  V30 23 H -4.41526 0.44092 0.429717 0
M  V30 24 H -3.49549 -0.031705 1.96041 0
M  V30 END ATOM
M  V30 BEGIN BOND
M  V30 1 1 1 2
M  V30 2 2 2 3
M  V30 3 1 3 4
M  V30 4 2 4 5
M  V30 5 1 5 6
M  V30 6 2 6 7
M  V30 7 1 7 8
M  V30 8 2 8 9
M  V30 9 1 9 10
M  V30 10 1 2 11
M  V30 11 2 11 12
M  V30 12 1 12 13
M  V30 13 1 13 14
M  V30 14 2 14 15
M  V30 15 1 15 16
M  V30 16 1 10 6
M  V30 17 1 15 11
M  V30 18 1 1 17
M  V30 19 1 1 18
M  V30 20 1 5 19
M  V30 21 1 7 20
M  V30 22 1 8 21
M  V30 23 1 9 22
M  V30 24 1 16 23
M  V30 25 1 16 24
M  V30 END BOND
M  V30 END CTAB
M  END
