
     RDKit          3D

  0  0  0  0  0  0  0  0  0  0999 V3000
M  V30 BEGIN CTAB
M  V30 COUNTS 40 42 0 0 0
M  V30 BEGIN ATOM
M  V30 1 N -2.63207 -2.19637 -0.851541 0
M  V30 2 C -3.0154 -1.93122 0.518866 0
M  V30 3 C -1.8186 -1.59211 1.35629 0
M  V30 4 N -1.04918 -0.469602 0.971303 0
M  V30 5 C 0.375517 -0.354529 1.3365 0
M  V30 6 C 1.06866 0.248403 0.13651 0 CFG=2
M  V30 7 C 0.311254 0.43875 -1.09696 0
M  V30 8 C -0.986001 1.14484 -0.771226 0
M  V30 9 C -1.66747 0.596374 0.280972 0
M  V30 10 C -2.88977 1.13059 0.667946 0
M  V30 11 C -3.43748 2.20243 0.0221841 0
M  V30 12 C -2.73669 2.74686 -1.04045 0
M  V30 13 C -1.49481 2.20365 -1.43317 0
M  V30 14 C 2.50352 -0.0273389 0.101369 0
M  V30 15 C 3.16492 -0.0114262 1.35609 0
M  V30 16 C 4.56119 -0.106818 1.4059 0
M  V30 17 C 5.31682 -0.216433 0.285427 0
M  V30 18 N 4.68007 -0.23344 -0.910737 0
M  V30 19 C 3.30352 -0.14096 -0.989799 0
M  V30 20 N 2.73402 -0.260933 -2.27302 0
M  V30 21 H -3.05434 -1.49722 -1.49321 0
M  V30 22 H -2.97796 -3.11417 -1.15137 0
M  V30 23 H -3.86331 -1.28064 0.510932 0
M  V30 24 H -3.43948 -2.92194 0.913856 0
M  V30 25 H -1.22604 -2.52813 1.41062 0
M  V30 26 H -2.14386 -1.4541 2.43913 0
M  V30 27 H 0.421468 0.311355 2.21464 0
M  V30 28 H 0.782929 -1.35365 1.59513 0
M  V30 29 H 1.12314 1.39535 0.523638 0
M  V30 30 H 0.868674 1.16388 -1.74475 0
M  V30 31 H -0.027273 -0.453331 -1.6397 0
M  V30 32 H -3.38003 0.660552 1.49474 0
M  V30 33 H -4.37751 2.64544 0.295948 0
M  V30 34 H -3.10341 3.59581 -1.59465 0
M  V30 35 H -0.962739 2.64568 -2.27508 0
M  V30 36 H 2.56836 0.0699898 2.25456 0
M  V30 37 H 5.06988 -0.0995029 2.38148 0
M  V30 38 H 6.40472 -0.280244 0.308755 0
M  V30 39 H 2.73002 0.510612 -2.95437 0
M  V30 40 H 2.29473 -1.18646 -2.56273 0
M  V30 END ATOM
M  V30 BEGIN BOND
M  V30 1 1 1 2
M  V30 2 1 2 3
M  V30 3 1 3 4
M  V30 4 1 4 5
M  V30 5 1 5 6
M  V30 6 1 6 7
M  V30 7 1 7 8
M  V30 8 2 8 9
M  V30 9 1 9 10
M  V30 10 2 10 11
M  V30 11 1 11 12
M  V30 12 2 12 13
M  V30 13 1 6 14
M  V30 14 2 14 15
M  V30 15 1 15 16
M  V30 16 2 16 17
M  V30 17 1 17 18
M  V30 18 2 18 19
M  V30 19 1 19 20
M  V30 20 1 9 4
M  V30 21 1 19 14
M  V30 22 1 13 8
M  V30 23 1 1 21
M  V30 24 1 1 22
M  V30 25 1 2 23
M  V30 26 1 2 24
M  V30 27 1 3 25
M  V30 28 1 3 26
M  V30 29 1 5 27
M  V30 30 1 5 28
M  V30 31 1 6 29 CFG=1
M  V30 32 1 7 30
M  V30 33 1 7 31
M  V30 34 1 10 32
M  V30 35 1 11 33
M  V30 36 1 12 34
M  V30 37 1 13 35
M  V30 38 1 15 36
M  V30 39 1 16 37
M  V30 40 1 17 38
M  V30 41 1 20 39
M  V30 42 1 20 40
M  V30 END BOND
M  V30 END CTAB
M  END
