
     RDKit          3D

  0  0  0  0  0  0  0  0  0  0999 V3000
M  V30 BEGIN CTAB
M  V30 COUNTS 35 38 0 0 0
M  V30 BEGIN ATOM
M  V30 1 N 1.20581 3.76323 1.73924 0
M  V30 2 C 0.518156 2.93764 1.3125 0
M  V30 3 C -0.338014 1.86483 0.771163 0
M  V30 4 C -1.55103 2.19246 0.419351 0
M  V30 5 N -1.96114 3.58307 0.587984 0
M  V30 6 O -2.49876 1.32866 -0.107136 0
M  V30 7 C -2.09792 0.000121593 -0.265076 0
M  V30 8 C -0.851428 -0.41117 0.0796754 0
M  V30 9 C 0.15371 0.523753 0.642266 0
M  V30 10 C 0.384335 0.0196491 2.02516 0
M  V30 11 O -0.481276 -0.0413109 2.97098 0
M  V30 12 N 1.72198 -0.38387 2.12739 0
M  V30 13 C 2.34316 -0.156638 0.870695 0
M  V30 14 C 1.45692 0.36869 -0.0084379 0
M  V30 15 C 1.94871 0.640229 -1.29232 0
M  V30 16 C 3.24706 0.400715 -1.67237 0
M  V30 17 Br 3.80418 0.811173 -3.4504 0
M  V30 18 C 4.10034 -0.128652 -0.751715 0
M  V30 19 C 3.68351 -0.418324 0.523745 0
M  V30 20 C -0.480512 -1.7465 -0.0902813 0
M  V30 21 C -1.39406 -2.61603 -0.606059 0
M  V30 22 C -2.66635 -2.2325 -0.966093 0
M  V30 23 C -3.01637 -0.917732 -0.793431 0
M  V30 24 N -3.57717 -3.20146 -1.50325 0
M  V30 25 H -1.84543 4.03107 1.50156 0
M  V30 26 H -2.3478 4.04078 -0.229045 0
M  V30 27 H 2.18287 -0.78899 2.99956 0
M  V30 28 H 1.27225 1.0504 -1.99228 0
M  V30 29 H 5.13587 -0.311835 -1.07952 0
M  V30 30 H 4.37573 -0.839441 1.24442 0
M  V30 31 H 0.519383 -1.99951 0.203556 0
M  V30 32 H -1.10802 -3.66667 -0.741816 0
M  V30 33 H -4.00015 -0.562724 -1.05869 0
M  V30 34 H -3.23806 -4.05274 -2.00107 0
M  V30 35 H -4.60051 -3.08039 -1.41025 0
M  V30 END ATOM
M  V30 BEGIN BOND
M  V30 1 3 1 2
M  V30 2 1 2 3
M  V30 3 2 3 4
M  V30 4 1 4 5
M  V30 5 1 4 6
M  V30 6 1 6 7
M  V30 7 2 7 8
M  V30 8 1 8 9
M  V30 9 1 9 10
M  V30 10 2 10 11
M  V30 11 1 10 12
M  V30 12 1 12 13
M  V30 13 2 13 14
M  V30 14 1 14 15
M  V30 15 2 15 16
M  V30 16 1 16 17
M  V30 17 1 16 18
M  V30 18 2 18 19
M  V30 19 1 8 20
M  V30 20 2 20 21
M  V30 21 1 21 22
M  V30 22 2 22 23
M  V30 23 1 22 24
M  V30 24 1 9 3
M  V30 25 1 19 13
M  V30 26 1 23 7
M  V30 27 1 14 9
M  V30 28 1 5 25
M  V30 29 1 5 26
M  V30 30 1 12 27
M  V30 31 1 15 28
M  V30 32 1 18 29
M  V30 33 1 19 30
M  V30 34 1 20 31
M  V30 35 1 21 32
M  V30 36 1 23 33
M  V30 37 1 24 34
M  V30 38 1 24 35
M  V30 END BOND
M  V30 END CTAB
M  END
