
     RDKit          3D

  0  0  0  0  0  0  0  0  0  0999 V3000
M  V30 BEGIN CTAB
M  V30 COUNTS 28 28 0 0 0
M  V30 BEGIN ATOM
M  V30 1 N 4.46087 -0.641841 0.92455 0
M  V30 2 C 3.36818 0.168615 0.388007 0
M  V30 3 C 2.0864 -0.600185 0.455738 0
M  V30 4 C 0.894473 0.190704 0.115911 0
M  V30 5 N -0.282969 -0.466262 0.03776 0
M  V30 6 C -1.43828 0.152836 -0.265573 0
M  V30 7 N -1.39338 1.45888 -0.492506 0
M  V30 8 C -0.242984 2.16349 -0.427634 0
M  V30 9 N 0.891568 1.50642 -0.120553 0
M  V30 10 N -0.292973 3.55754 -0.69383 0
M  V30 11 N -2.60811 -0.638565 -0.323923 0
M  V30 12 C -3.045 -1.31338 0.903041 0
M  V30 13 C -3.38417 -0.797849 -1.53173 0
M  V30 14 O 2.17575 -1.79124 -0.291889 0
M  V30 15 H 4.19116 -1.63272 0.724784 0
M  V30 16 H 4.45066 -0.527772 1.96728 0
M  V30 17 H 3.29507 1.11214 0.958918 0
M  V30 18 H 3.64204 0.367455 -0.682341 0
M  V30 19 H 1.94105 -0.938663 1.5239 0
M  V30 20 H -0.0060957 3.97474 -1.60521 0
M  V30 21 H -0.629594 4.21868 0.0386155 0
M  V30 22 H -3.0323 -2.42138 0.69536 0
M  V30 23 H -4.02079 -0.949903 1.26427 0
M  V30 24 H -2.30677 -1.17001 1.71695 0
M  V30 25 H -3.61022 -1.84467 -1.78979 0
M  V30 26 H -4.33077 -0.206592 -1.35405 0
M  V30 27 H -2.84516 -0.328781 -2.3816 0
M  V30 28 H 2.07232 -2.60167 0.245544 0
M  V30 END ATOM
M  V30 BEGIN BOND
M  V30 1 1 1 2
M  V30 2 1 2 3
M  V30 3 1 3 4
M  V30 4 2 4 5
M  V30 5 1 5 6
M  V30 6 2 6 7
M  V30 7 1 7 8
M  V30 8 2 8 9
M  V30 9 1 8 10
M  V30 10 1 6 11
M  V30 11 1 11 12
M  V30 12 1 11 13
M  V30 13 1 3 14
M  V30 14 1 9 4
M  V30 15 1 1 15
M  V30 16 1 1 16
M  V30 17 1 2 17
M  V30 18 1 2 18
M  V30 19 1 3 19
M  V30 20 1 10 20
M  V30 21 1 10 21
M  V30 22 1 12 22
M  V30 23 1 12 23
M  V30 24 1 12 24
M  V30 25 1 13 25
M  V30 26 1 13 26
M  V30 27 1 13 27
M  V30 28 1 14 28
M  V30 END BOND
M  V30 END CTAB
M  END
