
     RDKit          3D

  0  0  0  0  0  0  0  0  0  0999 V3000
M  V30 BEGIN CTAB
M  V30 COUNTS 36 37 0 0 0
M  V30 BEGIN ATOM
M  V30 1 N -3.21744 3.05606 -0.292096 0
M  V30 2 C -2.87837 1.97979 -0.0432822 0
M  V30 3 C -2.43377 0.597463 0.250251 0
M  V30 4 C -2.69697 0.161262 1.45889 0
M  V30 5 N -3.37201 1.00368 2.39963 0
M  V30 6 S -2.20429 -1.49758 1.90005 0
M  V30 7 C -1.99955 -2.35976 0.332826 0
M  V30 8 C -1.81211 -1.61765 -0.73114 0
M  V30 9 C -1.74916 -0.163771 -0.793234 0
M  V30 10 C -0.362764 0.365083 -0.99676 0
M  V30 11 C -0.0861361 1.05546 -2.15728 0
M  V30 12 C 1.17191 1.5785 -2.42767 0
M  V30 13 C 2.13923 1.38331 -1.49241 0
M  V30 14 C 1.94275 0.705477 -0.309386 0
M  V30 15 C 0.65396 0.201119 -0.0926472 0
M  V30 16 N 2.96646 0.513916 0.651595 0
M  V30 17 C 2.68125 -0.208748 1.86884 0
M  V30 18 C 4.27294 1.03621 0.410738 0
M  V30 19 C -1.65583 -2.39654 -1.97353 0
M  V30 20 N -1.53011 -2.99008 -2.96414 0
M  V30 21 N -2.04189 -3.78045 0.269879 0
M  V30 22 H -3.83639 0.597219 3.22336 0
M  V30 23 H -3.40443 2.03505 2.26733 0
M  V30 24 H -2.30754 0.114435 -1.7717 0
M  V30 25 H -0.845515 1.22818 -2.92844 0
M  V30 26 H 1.32518 2.10261 -3.34164 0
M  V30 27 H 3.1223 1.78372 -1.68779 0
M  V30 28 H 0.494414 -0.325845 0.821252 0
M  V30 29 H 2.1516 -1.15266 1.67836 0
M  V30 30 H 2.10265 0.453704 2.55525 0
M  V30 31 H 3.61754 -0.466046 2.40692 0
M  V30 32 H 4.58522 0.824767 -0.637845 0
M  V30 33 H 4.2156 2.14754 0.526371 0
M  V30 34 H 5.03188 0.664661 1.12178 0
M  V30 35 H -1.13516 -4.28991 0.312129 0
M  V30 36 H -2.90546 -4.34019 0.185531 0
M  V30 END ATOM
M  V30 BEGIN BOND
M  V30 1 3 1 2
M  V30 2 1 2 3
M  V30 3 2 3 4
M  V30 4 1 4 5
M  V30 5 1 4 6
M  V30 6 1 6 7
M  V30 7 2 7 8
M  V30 8 1 8 9
M  V30 9 1 9 10
M  V30 10 2 10 11
M  V30 11 1 11 12
M  V30 12 2 12 13
M  V30 13 1 13 14
M  V30 14 2 14 15
M  V30 15 1 14 16
M  V30 16 1 16 17
M  V30 17 1 16 18
M  V30 18 1 8 19
M  V30 19 3 19 20
M  V30 20 1 7 21
M  V30 21 1 9 3
M  V30 22 1 15 10
M  V30 23 1 5 22
M  V30 24 1 5 23
M  V30 25 1 9 24
M  V30 26 1 11 25
M  V30 27 1 12 26
M  V30 28 1 13 27
M  V30 29 1 15 28
M  V30 30 1 17 29
M  V30 31 1 17 30
M  V30 32 1 17 31
M  V30 33 1 18 32
M  V30 34 1 18 33
M  V30 35 1 18 34
M  V30 36 1 21 35
M  V30 37 1 21 36
M  V30 END BOND
M  V30 END CTAB
M  END
