
     RDKit          3D

  0  0  0  0  0  0  0  0  0  0999 V3000
M  V30 BEGIN CTAB
M  V30 COUNTS 57 59 0 0 0
M  V30 BEGIN ATOM
M  V30 1 C -5.69286 -0.954789 1.3145 0 CFG=2
M  V30 2 C -6.37796 0.360813 1.09662 0
M  V30 3 C -6.46768 0.734431 -0.361964 0
M  V30 4 C -7.1554 2.03704 -0.516907 0
M  V30 5 O -7.55766 2.63701 0.507018 0
M  V30 6 N -7.36579 2.61266 -1.78326 0
M  V30 7 O -7.98694 3.7896 -1.92838 0
M  V30 8 N -4.35431 -0.879066 0.788848 0
M  V30 9 C -3.24633 -1.0085 1.65257 0
M  V30 10 O -3.47164 -1.18967 2.88287 0
M  V30 11 C -1.88518 -0.938991 1.16622 0
M  V30 12 C -1.56822 -0.877807 -0.153001 0
M  V30 13 C -0.225307 -0.808541 -0.539743 0
M  V30 14 C 0.815344 -0.798774 0.363141 0
M  V30 15 C 0.440686 -0.862962 1.6976 0
M  V30 16 C -0.862624 -0.931344 2.10376 0
M  V30 17 N 2.17194 -0.728599 -0.0254832 0
M  V30 18 C 2.52989 -0.667313 -1.41679 0
M  V30 19 C 3.19956 -0.717164 0.986693 0
M  V30 20 C 4.56513 -0.641564 0.444444 0
M  V30 21 N 5.18678 0.528319 0.167372 0
M  V30 22 C 6.44365 0.580249 -0.328501 0
M  V30 23 C 7.1267 -0.584682 -0.564881 0
M  V30 24 N 6.54177 -1.77342 -0.301717 0
M  V30 25 C 5.29383 -1.79741 0.189943 0
M  V30 26 N 8.36856 -0.563001 -1.05399 0
M  V30 27 C 8.97615 0.60955 -1.32547 0
M  V30 28 N 10.2976 0.537165 -1.84217 0
M  V30 29 N 8.32953 1.7494 -1.10268 0
M  V30 30 C 7.0752 1.77149 -0.609956 0
M  V30 31 N 6.37935 2.9879 -0.370562 0
M  V30 32 C -6.45939 -2.03554 0.651522 0
M  V30 33 O -7.76542 -2.26895 1.0204 0
M  V30 34 O -5.91364 -2.74837 -0.257908 0
M  V30 35 H -5.66604 -1.14805 2.41388 0
M  V30 36 H -7.41411 0.272677 1.52463 0
M  V30 37 H -5.80497 1.12626 1.64933 0
M  V30 38 H -5.45557 0.748324 -0.807214 0
M  V30 39 H -7.08522 -0.0331673 -0.90716 0
M  V30 40 H -7.03754 2.12963 -2.65918 0
M  V30 41 H -8.6078 4.01429 -1.19153 0
M  V30 42 H -4.20109 -0.730498 -0.222024 0
M  V30 43 H -2.33119 -0.882158 -0.916907 0
M  V30 44 H -0.0279175 -0.762205 -1.59917 0
M  V30 45 H 1.22244 -0.858218 2.45109 0
M  V30 46 H -1.10388 -0.979747 3.15981 0
M  V30 47 H 3.61938 -0.67949 -1.57528 0
M  V30 48 H 2.1228 0.238082 -1.92141 0
M  V30 49 H 2.11939 -1.5342 -1.9952 0
M  V30 50 H 2.99965 0.0682727 1.76408 0
M  V30 51 H 3.1003 -1.68895 1.54156 0
M  V30 52 H 4.83327 -2.75631 0.398168 0
M  V30 53 H 10.5225 0.558743 -2.85008 0
M  V30 54 H 11.067 0.4584 -1.147 0
M  V30 55 H 6.88289 3.89413 -0.202625 0
M  V30 56 H 5.34359 2.98819 -0.360239 0
M  V30 57 H -8.48314 -1.60316 0.775577 0
M  V30 END ATOM
M  V30 BEGIN BOND
M  V30 1 1 1 2
M  V30 2 1 2 3
M  V30 3 1 3 4
M  V30 4 2 4 5
M  V30 5 1 4 6
M  V30 6 1 6 7
M  V30 7 1 1 8
M  V30 8 1 8 9
M  V30 9 2 9 10
M  V30 10 1 9 11
M  V30 11 2 11 12
M  V30 12 1 12 13
M  V30 13 2 13 14
M  V30 14 1 14 15
M  V30 15 2 15 16
M  V30 16 1 14 17
M  V30 17 1 17 18
M  V30 18 1 17 19
M  V30 19 1 19 20
M  V30 20 2 20 21
M  V30 21 1 21 22
M  V30 22 2 22 23
M  V30 23 1 23 24
M  V30 24 2 24 25
M  V30 25 1 23 26
M  V30 26 2 26 27
M  V30 27 1 27 28
M  V30 28 1 27 29
M  V30 29 2 29 30
M  V30 30 1 30 31
M  V30 31 1 1 32
M  V30 32 1 32 33
M  V30 33 2 32 34
M  V30 34 1 16 11
M  V30 35 1 25 20
M  V30 36 1 30 22
M  V30 37 1 1 35 CFG=1
M  V30 38 1 2 36
M  V30 39 1 2 37
M  V30 40 1 3 38
M  V30 41 1 3 39
M  V30 42 1 6 40
M  V30 43 1 7 41
M  V30 44 1 8 42
M  V30 45 1 12 43
M  V30 46 1 13 44
M  V30 47 1 15 45
M  V30 48 1 16 46
M  V30 49 1 18 47
M  V30 50 1 18 48
M  V30 51 1 18 49
M  V30 52 1 19 50
M  V30 53 1 19 51
M  V30 54 1 25 52
M  V30 55 1 28 53
M  V30 56 1 28 54
M  V30 57 1 31 55
M  V30 58 1 31 56
M  V30 59 1 33 57
M  V30 END BOND
M  V30 END CTAB
M  END
