
     RDKit          3D

  0  0  0  0  0  0  0  0  0  0999 V3000
M  V30 BEGIN CTAB
M  V30 COUNTS 31 32 0 0 0
M  V30 BEGIN ATOM
M  V30 1 N 4.68719 -1.62828 0.113227 0
M  V30 2 C 4.06175 -0.378465 0.00988039 0
M  V30 3 C 2.70087 -0.200777 0.220269 0
M  V30 4 S 1.6874 -1.63686 0.640906 0
M  V30 5 C -0.0300585 -1.12568 0.831081 0
M  V30 6 S -0.737745 -0.57083 -0.759095 0
M  V30 7 C -2.42456 -0.0910182 -0.433211 0
M  V30 8 C -3.47057 -0.984394 -0.525293 0
M  V30 9 N -3.2386 -2.34882 -0.89205 0
M  V30 10 C -4.78824 -0.590541 -0.265839 0
M  V30 11 C -5.04988 0.719804 0.0900618 0
M  V30 12 C -4.01431 1.62248 0.185652 0
M  V30 13 C -2.72463 1.20989 -0.0748929 0
M  V30 14 C 2.13501 1.05293 0.106028 0
M  V30 15 C 2.90028 2.1687 -0.220283 0
M  V30 16 C 4.23916 1.9776 -0.424471 0
M  V30 17 C 4.8099 0.719311 -0.310299 0
M  V30 18 H 4.42426 -2.40329 -0.5333 0
M  V30 19 H 5.41791 -1.77023 0.845173 0
M  V30 20 H -0.646786 -1.87967 1.32448 0
M  V30 21 H -0.0291672 -0.228946 1.49564 0
M  V30 22 H -2.65249 -2.9616 -0.287794 0
M  V30 23 H -3.6452 -2.76436 -1.76488 0
M  V30 24 H -5.61774 -1.29833 -0.338865 0
M  V30 25 H -6.05334 1.06087 0.297383 0
M  V30 26 H -4.24317 2.63791 0.465385 0
M  V30 27 H -1.88517 1.8976 -0.00830872 0
M  V30 28 H 1.07043 1.15893 0.277727 0
M  V30 29 H 2.39139 3.12702 -0.293904 0
M  V30 30 H 4.84498 2.85618 -0.681648 0
M  V30 31 H 5.88113 0.652885 -0.488986 0
M  V30 END ATOM
M  V30 BEGIN BOND
M  V30 1 1 1 2
M  V30 2 2 2 3
M  V30 3 1 3 4
M  V30 4 1 4 5
M  V30 5 1 5 6
M  V30 6 1 6 7
M  V30 7 2 7 8
M  V30 8 1 8 9
M  V30 9 1 8 10
M  V30 10 2 10 11
M  V30 11 1 11 12
M  V30 12 2 12 13
M  V30 13 1 3 14
M  V30 14 2 14 15
M  V30 15 1 15 16
M  V30 16 2 16 17
M  V30 17 1 17 2
M  V30 18 1 13 7
M  V30 19 1 1 18
M  V30 20 1 1 19
M  V30 21 1 5 20
M  V30 22 1 5 21
M  V30 23 1 9 22
M  V30 24 1 9 23
M  V30 25 1 10 24
M  V30 26 1 11 25
M  V30 27 1 12 26
M  V30 28 1 13 27
M  V30 29 1 14 28
M  V30 30 1 15 29
M  V30 31 1 16 30
M  V30 32 1 17 31
M  V30 END BOND
M  V30 END CTAB
M  END
