
     RDKit          3D

  0  0  0  0  0  0  0  0  0  0999 V3000
M  V30 BEGIN CTAB
M  V30 COUNTS 49 52 0 0 0
M  V30 BEGIN ATOM
M  V30 1 C -2.58672 4.24161 -0.404406 0
M  V30 2 C -1.71866 3.48503 -1.36719 0
M  V30 3 O -1.6601 2.1148 -1.00751 0
M  V30 4 C -2.76212 1.30745 -0.939988 0
M  V30 5 O -3.85798 1.83338 -1.21443 0
M  V30 6 C -2.64362 -0.103832 -0.562142 0
M  V30 7 C -1.41871 -0.651695 -0.266066 0
M  V30 8 S -1.80337 -2.29355 0.105724 0
M  V30 9 C -3.47314 -2.23437 -0.121798 0
M  V30 10 C -3.70791 -0.931187 -0.485304 0
M  V30 11 C -5.18089 -0.697468 -0.725775 0
M  V30 12 C -5.89785 -1.09744 0.549927 0
M  V30 13 C -5.76872 -2.58689 0.782663 0
M  V30 14 C -4.64215 -3.18246 -0.0292295 0
M  V30 15 N -0.101897 -0.111477 -0.236939 0
M  V30 16 C 0.953322 -1.02359 0.130837 0
M  V30 17 O 0.761483 -2.20947 0.410098 0
M  V30 18 C 2.30672 -0.471925 0.161729 0
M  V30 19 S 2.82865 1.11843 -0.17915 0
M  V30 20 C 4.50098 0.923831 0.0834387 0
M  V30 21 C 4.60634 -0.390024 0.433314 0
M  V30 22 C 3.46938 -1.11996 0.475601 0
M  V30 23 N 3.41618 -2.53634 0.831506 0
M  V30 24 C 5.91726 -0.835274 0.714115 0
M  V30 25 C 6.95946 0.0483786 0.620405 0
M  V30 26 C 6.83328 1.37459 0.264718 0
M  V30 27 N 5.57716 1.77722 0.00180223 0
M  V30 28 N 7.93234 2.25673 0.178629 0
M  V30 29 C 8.31911 -0.384879 0.904345 0
M  V30 30 N 9.39451 -0.740141 1.14065 0
M  V30 31 H -3.10792 3.60373 0.328189 0
M  V30 32 H -2.00702 4.99955 0.17857 0
M  V30 33 H -3.37198 4.83238 -0.943728 0
M  V30 34 H -0.695206 3.90664 -1.30352 0
M  V30 35 H -2.13724 3.60668 -2.38191 0
M  V30 36 H -5.46878 0.290819 -0.994854 0
M  V30 37 H -5.47494 -1.47024 -1.4969 0
M  V30 38 H -6.95888 -0.791686 0.438646 0
M  V30 39 H -5.41644 -0.531721 1.3768 0
M  V30 40 H -6.7025 -3.10183 0.476812 0
M  V30 41 H -5.61699 -2.80956 1.85658 0
M  V30 42 H -4.29832 -4.08605 0.53544 0
M  V30 43 H -4.99515 -3.39497 -1.03608 0
M  V30 44 H 0.0914414 0.860992 -0.461342 0
M  V30 45 H 3.10071 -2.86527 1.75916 0
M  V30 46 H 3.70722 -3.22972 0.121797 0
M  V30 47 H 6.13347 -1.85326 1.00233 0
M  V30 48 H 8.88622 1.87906 0.0891821 0
M  V30 49 H 7.77998 3.27497 0.205251 0
M  V30 END ATOM
M  V30 BEGIN BOND
M  V30 1 1 1 2
M  V30 2 1 2 3
M  V30 3 1 3 4
M  V30 4 2 4 5
M  V30 5 1 4 6
M  V30 6 2 6 7
M  V30 7 1 7 8
M  V30 8 1 8 9
M  V30 9 2 9 10
M  V30 10 1 10 11
M  V30 11 1 11 12
M  V30 12 1 12 13
M  V30 13 1 13 14
M  V30 14 1 7 15
M  V30 15 1 15 16
M  V30 16 2 16 17
M  V30 17 1 16 18
M  V30 18 1 18 19
M  V30 19 1 19 20
M  V30 20 2 20 21
M  V30 21 1 21 22
M  V30 22 1 22 23
M  V30 23 1 21 24
M  V30 24 2 24 25
M  V30 25 1 25 26
M  V30 26 2 26 27
M  V30 27 1 26 28
M  V30 28 1 25 29
M  V30 29 3 29 30
M  V30 30 1 10 6
M  V30 31 2 22 18
M  V30 32 1 14 9
M  V30 33 1 27 20
M  V30 34 1 1 31
M  V30 35 1 1 32
M  V30 36 1 1 33
M  V30 37 1 2 34
M  V30 38 1 2 35
M  V30 39 1 11 36
M  V30 40 1 11 37
M  V30 41 1 12 38
M  V30 42 1 12 39
M  V30 43 1 13 40
M  V30 44 1 13 41
M  V30 45 1 14 42
M  V30 46 1 14 43
M  V30 47 1 15 44
M  V30 48 1 23 45
M  V30 49 1 23 46
M  V30 50 1 24 47
M  V30 51 1 28 48
M  V30 52 1 28 49
M  V30 END BOND
M  V30 END CTAB
M  END
