
     RDKit          3D

  0  0  0  0  0  0  0  0  0  0999 V3000
M  V30 BEGIN CTAB
M  V30 COUNTS 20 21 0 0 0
M  V30 BEGIN ATOM
M  V30 1 N -3.81252 -0.0573108 0.3948 0
M  V30 2 C -2.45386 0.0886927 0.0237237 0
M  V30 3 C -2.09933 0.712744 -1.15487 0
M  V30 4 N -0.81407 0.866098 -1.53412 0
M  V30 5 C 0.217763 0.420286 -0.788281 0
M  V30 6 C -0.0912254 -0.210958 0.400181 0
M  V30 7 C -1.4025 -0.378534 0.807635 0
M  V30 8 C 0.976096 -0.661164 1.15141 0
M  V30 9 O 0.704941 -1.24714 2.25345 0
M  V30 10 N 2.24218 -0.484424 0.730359 0
M  V30 11 C 2.54288 0.134153 -0.434092 0
M  V30 12 N 1.49928 0.573631 -1.16729 0
M  V30 13 N 3.87317 0.320586 -0.877821 0
M  V30 14 H -4.2976 0.668693 0.95374 0
M  V30 15 H -4.34583 -0.899651 0.110226 0
M  V30 16 H -2.87568 1.09718 -1.80654 0
M  V30 17 H -1.62753 -0.880026 1.7503 0
M  V30 18 H 3.04505 -0.826841 1.30241 0
M  V30 19 H 4.11812 0.0200741 -1.83468 0
M  V30 20 H 4.60067 0.743903 -0.280541 0
M  V30 END ATOM
M  V30 BEGIN BOND
M  V30 1 1 1 2
M  V30 2 2 2 3
M  V30 3 1 3 4
M  V30 4 2 4 5
M  V30 5 1 5 6
M  V30 6 2 6 7
M  V30 7 1 6 8
M  V30 8 2 8 9
M  V30 9 1 8 10
M  V30 10 1 10 11
M  V30 11 2 11 12
M  V30 12 1 11 13
M  V30 13 1 7 2
M  V30 14 1 12 5
M  V30 15 1 1 14
M  V30 16 1 1 15
M  V30 17 1 3 16
M  V30 18 1 7 17
M  V30 19 1 10 18
M  V30 20 1 13 19
M  V30 21 1 13 20
M  V30 END BOND
M  V30 END CTAB
M  END
