
     RDKit          3D

  0  0  0  0  0  0  0  0  0  0999 V3000
M  V30 BEGIN CTAB
M  V30 COUNTS 61 64 0 0 0
M  V30 BEGIN ATOM
M  V30 1 C -7.22772 -0.748343 2.20684 0
M  V30 2 O -6.90132 0.230927 1.2513 0
M  V30 3 C -5.68655 0.1746 0.60487 0
M  V30 4 C -4.78375 -0.87112 0.91375 0
M  V30 5 C -3.57043 -0.974864 0.304929 0
M  V30 6 C -3.25862 0.00816646 -0.645026 0
M  V30 7 C -4.12032 1.02497 -0.954294 0
M  V30 8 C -5.3631 1.11682 -0.319877 0
M  V30 9 C -6.2299 2.2214 -0.695553 0
M  V30 10 C -7.48019 2.57526 -0.262951 0
M  V30 11 C -7.87789 3.71514 -0.93307 0
M  V30 12 C -6.84139 4.02545 -1.76634 0
M  V30 13 O -5.90103 3.14507 -1.60876 0
M  V30 14 C -2.5881 -2.03155 0.562765 0
M  V30 15 O -1.29282 -1.49345 0.840144 0
M  V30 16 C -0.231235 -1.76035 -0.00634294 0
M  V30 17 C 1.03589 -1.24207 0.252609 0
M  V30 18 C 2.10822 -1.49081 -0.570808 0
M  V30 19 N 1.87569 -2.26779 -1.65258 0
M  V30 20 C 0.672181 -2.78922 -1.94278 0
M  V30 21 N 0.49573 -3.59456 -3.09088 0
M  V30 22 N -0.366783 -2.52113 -1.1039 0
M  V30 23 C 3.43871 -0.948294 -0.301505 0
M  V30 24 C 4.48417 -1.23812 -1.17636 0
M  V30 25 C 5.76281 -0.762874 -0.987535 0
M  V30 26 C 6.08241 0.0446491 0.104584 0
M  V30 27 C 7.41755 0.563176 0.362492 0
M  V30 28 C 7.81088 1.8471 -0.242085 0 CFG=2
M  V30 29 N 9.20105 2.09816 0.198361 0
M  V30 30 C 7.00261 2.9818 0.2004 0
M  V30 31 O 7.53759 3.99334 0.97849 0
M  V30 32 O 5.79734 3.08175 -0.107091 0
M  V30 33 C 5.04202 0.324664 0.962448 0
M  V30 34 C 3.74777 -0.154725 0.77383 0
M  V30 35 C -3.02848 -3.03759 1.56666 0
M  V30 36 F -4.16936 -3.66906 1.12183 0
M  V30 37 F -2.08284 -4.05151 1.72921 0
M  V30 38 F -3.19234 -2.49886 2.84147 0
M  V30 39 H -8.27065 -0.642882 2.56888 0
M  V30 40 H -6.53076 -0.741073 3.0739 0
M  V30 41 H -7.16036 -1.78483 1.7868 0
M  V30 42 H -5.12998 -1.56411 1.66678 0
M  V30 43 H -2.31122 -0.0382556 -1.14721 0
M  V30 44 H -3.81564 1.7522 -1.69914 0
M  V30 45 H -8.07343 2.06254 0.477454 0
M  V30 46 H -8.80593 4.23016 -0.810394 0
M  V30 47 H -6.81374 4.88163 -2.45524 0
M  V30 48 H -2.45876 -2.63554 -0.407187 0
M  V30 49 H 1.12646 -0.635291 1.13529 0
M  V30 50 H 1.30877 -4.00886 -3.56875 0
M  V30 51 H -0.457118 -3.7645 -3.44737 0
M  V30 52 H 4.23143 -1.87468 -2.03692 0
M  V30 53 H 6.55667 -0.99296 -1.66704 0
M  V30 54 H 8.18489 -0.210827 0.0821595 0
M  V30 55 H 7.52553 0.666204 1.47793 0
M  V30 56 H 7.87265 1.84593 -1.34858 0
M  V30 57 H 9.78597 1.3004 -0.147649 0
M  V30 58 H 9.23082 2.05131 1.24136 0
M  V30 59 H 8.48997 4.02584 1.28608 0
M  V30 60 H 5.23941 0.955669 1.83763 0
M  V30 61 H 2.95657 0.0957714 1.4832 0
M  V30 END ATOM
M  V30 BEGIN BOND
M  V30 1 1 1 2
M  V30 2 1 2 3
M  V30 3 2 3 4
M  V30 4 1 4 5
M  V30 5 2 5 6
M  V30 6 1 6 7
M  V30 7 2 7 8
M  V30 8 1 8 9
M  V30 9 2 9 10
M  V30 10 1 10 11
M  V30 11 2 11 12
M  V30 12 1 12 13
M  V30 13 1 5 14
M  V30 14 1 14 15
M  V30 15 1 15 16
M  V30 16 2 16 17
M  V30 17 1 17 18
M  V30 18 2 18 19
M  V30 19 1 19 20
M  V30 20 1 20 21
M  V30 21 2 20 22
M  V30 22 1 18 23
M  V30 23 2 23 24
M  V30 24 1 24 25
M  V30 25 2 25 26
M  V30 26 1 26 27
M  V30 27 1 27 28
M  V30 28 1 28 29
M  V30 29 1 28 30
M  V30 30 1 30 31
M  V30 31 2 30 32
M  V30 32 1 26 33
M  V30 33 2 33 34
M  V30 34 1 14 35
M  V30 35 1 35 36
M  V30 36 1 35 37
M  V30 37 1 35 38
M  V30 38 1 8 3
M  V30 39 1 13 9
M  V30 40 1 22 16
M  V30 41 1 34 23
M  V30 42 1 1 39
M  V30 43 1 1 40
M  V30 44 1 1 41
M  V30 45 1 4 42
M  V30 46 1 6 43
M  V30 47 1 7 44
M  V30 48 1 10 45
M  V30 49 1 11 46
M  V30 50 1 12 47
M  V30 51 1 14 48
M  V30 52 1 17 49
M  V30 53 1 21 50
M  V30 54 1 21 51
M  V30 55 1 24 52
M  V30 56 1 25 53
M  V30 57 1 27 54
M  V30 58 1 27 55
M  V30 59 1 28 56 CFG=3
M  V30 60 1 29 57
M  V30 61 1 29 58
M  V30 62 1 31 59
M  V30 63 1 33 60
M  V30 64 1 34 61
M  V30 END BOND
M  V30 END CTAB
M  END
