
     RDKit          3D

  0  0  0  0  0  0  0  0  0  0999 V3000
M  V30 BEGIN CTAB
M  V30 COUNTS 56 58 0 0 0
M  V30 BEGIN ATOM
M  V30 1 N 1.51525 4.87229 0.901262 0
M  V30 2 C 1.55752 3.50534 0.623582 0 CFG=1
M  V30 3 C 0.76426 2.76588 1.67975 0
M  V30 4 C 1.3423 3.02067 3.01832 0
M  V30 5 C 2.34012 2.23046 3.55481 0
M  V30 6 C 2.90457 2.42181 4.79235 0
M  V30 7 C 2.44116 3.48088 5.55583 0
M  V30 8 C 1.438 4.30189 5.05525 0
M  V30 9 C 0.898491 4.07829 3.81277 0
M  V30 10 C 0.986991 3.24249 -0.739152 0
M  V30 11 O 0.673599 4.25774 -1.38616 0
M  V30 12 N 0.822291 1.94767 -1.23633 0
M  V30 13 C 0.323245 1.48367 -2.46084 0
M  V30 14 C 0.207658 2.3544 -3.50874 0
M  V30 15 C -0.221144 1.91334 -4.7573 0
M  V30 16 C -0.530391 0.603445 -4.9453 0
M  V30 17 C -0.420627 -0.307571 -3.88697 0
M  V30 18 C 0.000777643 0.124855 -2.65683 0
M  V30 19 N 0.0583151 -0.764555 -1.55865 0
M  V30 20 C -0.0727782 -2.15329 -1.52079 0
M  V30 21 O -0.269328 -2.84273 -2.52491 0
M  V30 22 C 0.0215059 -2.87682 -0.228737 0 CFG=1
M  V30 23 N 0.471293 -1.9087 0.796398 0
M  V30 24 C -1.289 -3.39673 0.283578 0
M  V30 25 C -1.98932 -4.34182 -0.580051 0
M  V30 26 C -1.72903 -5.69048 -0.507642 0
M  V30 27 C -2.38631 -6.60625 -1.29831 0
M  V30 28 C -3.33187 -6.1669 -2.18824 0
M  V30 29 C -3.58994 -4.81303 -2.25757 0
M  V30 30 C -2.93331 -3.89885 -1.46796 0
M  V30 31 H 0.678627 5.37954 0.769692 0
M  V30 32 H 2.14259 5.20846 1.59451 0
M  V30 33 H 2.60525 3.15178 0.69939 0
M  V30 34 H -0.323363 3.03163 1.62908 0
M  V30 35 H 0.888012 1.6642 1.49524 0
M  V30 36 H 2.72543 1.39233 2.9818 0
M  V30 37 H 3.68447 1.79478 5.19537 0
M  V30 38 H 2.8109 3.72369 6.54078 0
M  V30 39 H 1.07112 5.13103 5.64867 0
M  V30 40 H 0.111605 4.70303 3.39054 0
M  V30 41 H 1.16673 1.16389 -0.575777 0
M  V30 42 H 0.453222 3.43671 -3.43886 0
M  V30 43 H -0.295295 2.66077 -5.56486 0
M  V30 44 H -0.869655 0.228681 -5.9119 0
M  V30 45 H -0.689523 -1.33789 -4.10259 0
M  V30 46 H 0.198703 -0.319288 -0.5913 0
M  V30 47 H 0.799413 -3.66733 -0.300219 0
M  V30 48 H 0.728964 -2.49397 1.64238 0
M  V30 49 H -0.387329 -1.3729 1.05489 0
M  V30 50 H -1.0765 -3.8251 1.29301 0
M  V30 51 H -1.91061 -2.47637 0.498904 0
M  V30 52 H -0.983224 -6.11363 0.183283 0
M  V30 53 H -2.1691 -7.68401 -1.23227 0
M  V30 54 H -3.86041 -6.88883 -2.82245 0
M  V30 55 H -4.35448 -4.47263 -2.97983 0
M  V30 56 H -3.14987 -2.856 -1.53974 0
M  V30 END ATOM
M  V30 BEGIN BOND
M  V30 1 1 1 2
M  V30 2 1 2 3
M  V30 3 1 3 4
M  V30 4 2 4 5
M  V30 5 1 5 6
M  V30 6 2 6 7
M  V30 7 1 7 8
M  V30 8 2 8 9
M  V30 9 1 2 10
M  V30 10 2 10 11
M  V30 11 1 10 12
M  V30 12 1 12 13
M  V30 13 2 13 14
M  V30 14 1 14 15
M  V30 15 2 15 16
M  V30 16 1 16 17
M  V30 17 2 17 18
M  V30 18 1 18 19
M  V30 19 1 19 20
M  V30 20 2 20 21
M  V30 21 1 20 22
M  V30 22 1 22 23
M  V30 23 1 22 24
M  V30 24 1 24 25
M  V30 25 2 25 26
M  V30 26 1 26 27
M  V30 27 2 27 28
M  V30 28 1 28 29
M  V30 29 2 29 30
M  V30 30 1 9 4
M  V30 31 1 18 13
M  V30 32 1 30 25
M  V30 33 1 1 31
M  V30 34 1 1 32
M  V30 35 1 2 33 CFG=3
M  V30 36 1 3 34
M  V30 37 1 3 35
M  V30 38 1 5 36
M  V30 39 1 6 37
M  V30 40 1 7 38
M  V30 41 1 8 39
M  V30 42 1 9 40
M  V30 43 1 12 41
M  V30 44 1 14 42
M  V30 45 1 15 43
M  V30 46 1 16 44
M  V30 47 1 17 45
M  V30 48 1 19 46
M  V30 49 1 22 47 CFG=3
M  V30 50 1 23 48
M  V30 51 1 23 49
M  V30 52 1 24 50
M  V30 53 1 24 51
M  V30 54 1 26 52
M  V30 55 1 27 53
M  V30 56 1 28 54
M  V30 57 1 29 55
M  V30 58 1 30 56
M  V30 END BOND
M  V30 END CTAB
M  END
