
     RDKit          3D

  0  0  0  0  0  0  0  0  0  0999 V3000
M  V30 BEGIN CTAB
M  V30 COUNTS 64 67 0 0 0
M  V30 BEGIN ATOM
M  V30 1 N -7.50949 0.023352 3.51047 0
M  V30 2 C -6.78542 1.28079 3.49932 0
M  V30 3 C -6.29634 1.48456 2.06301 0
M  V30 4 O -5.48553 0.406414 1.7779 0
M  V30 5 B -4.9188 0.435386 0.437483 0
M  V30 6 C -5.77999 0.0430782 -0.792009 0
M  V30 7 C -6.04499 -1.2911 -1.05323 0
M  V30 8 C -6.80268 -1.6797 -2.1297 0
M  V30 9 C -7.33782 -0.748537 -3.0059 0
M  V30 10 C -7.06346 0.579376 -2.73014 0
M  V30 11 C -6.30547 0.980564 -1.65451 0
M  V30 12 C -3.36968 0.322836 0.307374 0
M  V30 13 C -2.64878 1.1444 -0.540818 0
M  V30 14 C -1.28618 0.979401 -0.592438 0
M  V30 15 C -0.621975 0.0388492 0.159107 0
M  V30 16 C -1.32734 -0.780854 1.0033 0
M  V30 17 C -2.70042 -0.630144 1.06936 0
M  V30 18 C 0.809719 -0.0713311 0.0486143 0
M  V30 19 C 1.41219 0.209551 -1.15358 0
M  V30 20 C 2.77786 0.102269 -1.22889 0
M  V30 21 C 3.51849 -0.275122 -0.13254 0
M  V30 22 C 2.92107 -0.552667 1.05548 0
M  V30 23 C 1.5456 -0.447812 1.14253 0
M  V30 24 B 5.08507 -0.390727 -0.222168 0
M  V30 25 O 5.62506 -1.54578 -0.928134 0
M  V30 26 C 5.92547 -2.57946 -0.046068 0
M  V30 27 C 6.48881 -3.78064 -0.766843 0
M  V30 28 N 7.71194 -3.31267 -1.43696 0
M  V30 29 C 5.90724 0.908853 0.0226985 0
M  V30 30 C 6.99935 0.912683 0.859026 0
M  V30 31 C 7.70196 2.09514 1.0492 0
M  V30 32 C 7.28118 3.23159 0.391763 0
M  V30 33 C 6.18938 3.25471 -0.452318 0
M  V30 34 C 5.51484 2.06323 -0.618401 0
M  V30 35 H -8.35077 0.145913 2.90745 0
M  V30 36 H -6.9088 -0.736341 3.1261 0
M  V30 37 H -7.46996 2.09403 3.8147 0
M  V30 38 H -5.91102 1.21934 4.1703 0
M  V30 39 H -5.74951 2.45634 2.06918 0
M  V30 40 H -7.13073 1.58641 1.36589 0
M  V30 41 H -5.62727 -2.04205 -0.367894 0
M  V30 42 H -7.00189 -2.73893 -2.3212 0
M  V30 43 H -7.93445 -1.05683 -3.85308 0
M  V30 44 H -7.47828 1.31824 -3.41041 0
M  V30 45 H -6.09061 2.02283 -1.4386 0
M  V30 46 H -3.14727 1.87527 -1.12672 0
M  V30 47 H -0.752638 1.65409 -1.27904 0
M  V30 48 H -0.84853 -1.55057 1.62729 0
M  V30 49 H -3.31033 -1.26527 1.73118 0
M  V30 50 H 0.828648 0.509809 -2.02969 0
M  V30 51 H 3.24522 0.322361 -2.1694 0
M  V30 52 H 3.44963 -0.853566 1.95054 0
M  V30 53 H 1.0596 -0.670684 2.10015 0
M  V30 54 H 6.63736 -2.2339 0.7163 0
M  V30 55 H 5.01319 -2.91108 0.505556 0
M  V30 56 H 5.78877 -4.13442 -1.54601 0
M  V30 57 H 6.73113 -4.58887 -0.0481223 0
M  V30 58 H 7.35556 -2.6857 -2.20938 0
M  V30 59 H 8.20733 -2.67109 -0.777678 0
M  V30 60 H 7.33396 0.00451867 1.38217 0
M  V30 61 H 8.57567 2.11117 1.71435 0
M  V30 62 H 7.83917 4.15021 0.549834 0
M  V30 63 H 5.8679 4.16973 -0.967356 0
M  V30 64 H 4.64802 2.08856 -1.29053 0
M  V30 END ATOM
M  V30 BEGIN BOND
M  V30 1 1 1 2
M  V30 2 1 2 3
M  V30 3 1 3 4
M  V30 4 1 4 5
M  V30 5 1 5 6
M  V30 6 2 6 7
M  V30 7 1 7 8
M  V30 8 2 8 9
M  V30 9 1 9 10
M  V30 10 2 10 11
M  V30 11 1 5 12
M  V30 12 2 12 13
M  V30 13 1 13 14
M  V30 14 2 14 15
M  V30 15 1 15 16
M  V30 16 2 16 17
M  V30 17 1 15 18
M  V30 18 2 18 19
M  V30 19 1 19 20
M  V30 20 2 20 21
M  V30 21 1 21 22
M  V30 22 2 22 23
M  V30 23 1 21 24
M  V30 24 1 24 25
M  V30 25 1 25 26
M  V30 26 1 26 27
M  V30 27 1 27 28
M  V30 28 1 24 29
M  V30 29 2 29 30
M  V30 30 1 30 31
M  V30 31 2 31 32
M  V30 32 1 32 33
M  V30 33 2 33 34
M  V30 34 1 11 6
M  V30 35 1 17 12
M  V30 36 1 23 18
M  V30 37 1 34 29
M  V30 38 1 1 35
M  V30 39 1 1 36
M  V30 40 1 2 37
M  V30 41 1 2 38
M  V30 42 1 3 39
M  V30 43 1 3 40
M  V30 44 1 7 41
M  V30 45 1 8 42
M  V30 46 1 9 43
M  V30 47 1 10 44
M  V30 48 1 11 45
M  V30 49 1 13 46
M  V30 50 1 14 47
M  V30 51 1 16 48
M  V30 52 1 17 49
M  V30 53 1 19 50
M  V30 54 1 20 51
M  V30 55 1 22 52
M  V30 56 1 23 53
M  V30 57 1 26 54
M  V30 58 1 26 55
M  V30 59 1 27 56
M  V30 60 1 27 57
M  V30 61 1 28 58
M  V30 62 1 28 59
M  V30 63 1 30 60
M  V30 64 1 31 61
M  V30 65 1 32 62
M  V30 66 1 33 63
M  V30 67 1 34 64
M  V30 END BOND
M  V30 END CTAB
M  END
