
     RDKit          3D

  0  0  0  0  0  0  0  0  0  0999 V3000
M  V30 BEGIN CTAB
M  V30 COUNTS 31 32 0 0 0
M  V30 BEGIN ATOM
M  V30 1 N 3.62983 -1.11745 0.761016 0
M  V30 2 C 2.58798 -0.27263 0.139857 0
M  V30 3 C 1.48957 -0.124571 1.1118 0
M  V30 4 N 0.307418 0.582515 0.644842 0
M  V30 5 C 0.602327 1.95258 0.400837 0
M  V30 6 C -0.219234 2.35669 -0.826228 0
M  V30 7 C -0.289127 1.0172 -1.59003 0
M  V30 8 C -0.292969 0.00587273 -0.47471 0 CFG=2
M  V30 9 C -1.54717 -0.689624 -0.388458 0
M  V30 10 C -2.09533 -1.35893 -1.50345 0
M  V30 11 N -3.15604 -2.10693 -1.08408 0
M  V30 12 N -3.28301 -1.92226 0.229853 0
M  V30 13 C -2.33978 -1.08313 0.658422 0
M  V30 14 N -2.17097 -0.568156 1.96917 0
M  V30 15 H 3.69857 -0.96245 1.77132 0
M  V30 16 H 3.27944 -2.10479 0.65549 0
M  V30 17 H 2.41043 -0.61026 -0.853664 0
M  V30 18 H 3.17576 0.721078 0.00517243 0
M  V30 19 H 1.89929 0.472429 1.96267 0
M  V30 20 H 1.20733 -1.09276 1.567 0
M  V30 21 H 0.364451 2.58381 1.28636 0
M  V30 22 H 1.65809 2.11131 0.130409 0
M  V30 23 H -1.22825 2.64503 -0.432421 0
M  V30 24 H 0.246358 3.12608 -1.42392 0
M  V30 25 H -1.24297 1.00862 -2.17745 0
M  V30 26 H 0.606731 0.971313 -2.20969 0
M  V30 27 H 0.43598 -0.831725 -0.893663 0
M  V30 28 H -1.73426 -1.29532 -2.51994 0
M  V30 29 H -3.735 -2.71467 -1.71512 0
M  V30 30 H -1.94174 -1.14916 2.74511 0
M  V30 31 H -2.32369 0.450279 2.0535 0
M  V30 END ATOM
M  V30 BEGIN BOND
M  V30 1 1 1 2
M  V30 2 1 2 3
M  V30 3 1 3 4
M  V30 4 1 4 5
M  V30 5 1 5 6
M  V30 6 1 6 7
M  V30 7 1 7 8
M  V30 8 1 8 9
M  V30 9 2 9 10
M  V30 10 1 10 11
M  V30 11 1 11 12
M  V30 12 2 12 13
M  V30 13 1 13 14
M  V30 14 1 8 4
M  V30 15 1 13 9
M  V30 16 1 1 15
M  V30 17 1 1 16
M  V30 18 1 2 17
M  V30 19 1 2 18
M  V30 20 1 3 19
M  V30 21 1 3 20
M  V30 22 1 5 21
M  V30 23 1 5 22
M  V30 24 1 6 23
M  V30 25 1 6 24
M  V30 26 1 7 25
M  V30 27 1 7 26
M  V30 28 1 8 27 CFG=3
M  V30 29 1 10 28
M  V30 30 1 11 29
M  V30 31 1 14 30
M  V30 32 1 14 31
M  V30 END BOND
M  V30 END CTAB
M  END
