
     RDKit          3D

  0  0  0  0  0  0  0  0  0  0999 V3000
M  V30 BEGIN CTAB
M  V30 COUNTS 35 37 0 0 0
M  V30 BEGIN ATOM
M  V30 1 N 1.8727 4.21879 -1.10582 0
M  V30 2 C 1.03814 3.03802 -0.950794 0
M  V30 3 N 1.62925 1.91891 -0.925706 0
M  V30 4 C 0.984122 0.682293 -0.783534 0
M  V30 5 N -0.439887 0.803061 -0.66628 0
M  V30 6 C -1.28592 -0.344434 -0.512516 0
M  V30 7 C -1.57054 -0.790923 0.751944 0
M  V30 8 C -2.39242 -1.90851 0.958277 0
M  V30 9 C -2.91838 -2.56289 -0.130352 0
M  V30 10 C -2.63777 -2.12145 -1.40207 0
M  V30 11 Cl -3.32562 -2.9804 -2.76233 0
M  V30 12 C -1.81314 -1.0008 -1.59541 0
M  V30 13 C -1.04197 2.07662 -0.701059 0
M  V30 14 N -2.46935 2.11518 -0.577869 0
M  V30 15 N -0.369961 3.1766 -0.836202 0
M  V30 16 C 1.56393 -0.183814 0.275684 0
M  V30 17 C 1.92826 0.254546 1.5296 0
M  V30 18 C 2.45535 -0.591156 2.46614 0
M  V30 19 C 2.65036 -1.9445 2.19565 0
M  V30 20 C 2.28818 -2.38481 0.946453 0
M  V30 21 C 1.75702 -1.52119 0.00946627 0
M  V30 22 H 1.8318 4.95328 -0.388188 0
M  V30 23 H 2.48927 4.30993 -1.92038 0
M  V30 24 H 1.16082 0.129874 -1.77535 0
M  V30 25 H -1.19033 -0.323329 1.64834 0
M  V30 26 H -2.60994 -2.25157 1.9618 0
M  V30 27 H -3.55304 -3.42761 0.0630126 0
M  V30 28 H -1.61846 -0.68877 -2.59355 0
M  V30 29 H -3.03053 1.55004 -1.22745 0
M  V30 30 H -2.89323 2.69377 0.140887 0
M  V30 31 H 1.7915 1.28663 1.76852 0
M  V30 32 H 2.75142 -0.274723 3.46151 0
M  V30 33 H 3.0683 -2.6013 2.94637 0
M  V30 34 H 2.42499 -3.4202 0.705725 0
M  V30 35 H 1.47508 -1.88516 -0.974526 0
M  V30 END ATOM
M  V30 BEGIN BOND
M  V30 1 1 1 2
M  V30 2 2 2 3
M  V30 3 1 3 4
M  V30 4 1 4 5
M  V30 5 1 5 6
M  V30 6 2 6 7
M  V30 7 1 7 8
M  V30 8 2 8 9
M  V30 9 1 9 10
M  V30 10 1 10 11
M  V30 11 2 10 12
M  V30 12 1 5 13
M  V30 13 1 13 14
M  V30 14 2 13 15
M  V30 15 1 4 16
M  V30 16 2 16 17
M  V30 17 1 17 18
M  V30 18 2 18 19
M  V30 19 1 19 20
M  V30 20 2 20 21
M  V30 21 1 15 2
M  V30 22 1 21 16
M  V30 23 1 12 6
M  V30 24 1 1 22
M  V30 25 1 1 23
M  V30 26 1 4 24
M  V30 27 1 7 25
M  V30 28 1 8 26
M  V30 29 1 9 27
M  V30 30 1 12 28
M  V30 31 1 14 29
M  V30 32 1 14 30
M  V30 33 1 17 31
M  V30 34 1 18 32
M  V30 35 1 19 33
M  V30 36 1 20 34
M  V30 37 1 21 35
M  V30 END BOND
M  V30 END CTAB
M  END
