
     RDKit          3D

  0  0  0  0  0  0  0  0  0  0999 V3000
M  V30 BEGIN CTAB
M  V30 COUNTS 25 25 0 0 0
M  V30 BEGIN ATOM
M  V30 1 C 3.76564 1.3784 -0.0726438 0
M  V30 2 O 2.50277 0.86452 0.210478 0
M  V30 3 C 2.38684 -0.403815 -0.301317 0
M  V30 4 S 1.08338 -0.539871 -1.5502 0
M  V30 5 C -0.541007 -0.28448 -0.846908 0
M  V30 6 N -1.06344 0.953618 -0.79157 0
M  V30 7 C -2.27778 1.2341 -0.279756 0
M  V30 8 N -2.81237 2.53885 -0.229182 0
M  V30 9 C -3.03896 0.198663 0.21947 0
M  V30 10 C -2.53027 -1.07693 0.17606 0
M  V30 11 N -1.29405 -1.28422 -0.356422 0
M  V30 12 N -3.3026 -2.15651 0.687368 0
M  V30 13 C 2.18882 -1.44912 0.796678 0
M  V30 14 H 4.58274 0.763372 0.363188 0
M  V30 15 H 3.85324 2.44756 0.219293 0
M  V30 16 H 3.88533 1.29281 -1.18977 0
M  V30 17 H 3.33524 -0.679885 -0.80602 0
M  V30 18 H -2.78961 3.06546 0.654543 0
M  V30 19 H -3.22146 2.95439 -1.07722 0
M  V30 20 H -4.02986 0.405016 0.640175 0
M  V30 21 H -3.98366 -1.93979 1.44474 0
M  V30 22 H -3.19272 -3.10726 0.325255 0
M  V30 23 H 3.12317 -2.05001 0.966941 0
M  V30 24 H 1.97198 -0.963568 1.77077 0
M  V30 25 H 1.39866 -2.16129 0.518622 0
M  V30 END ATOM
M  V30 BEGIN BOND
M  V30 1 1 1 2
M  V30 2 1 2 3
M  V30 3 1 3 4
M  V30 4 1 4 5
M  V30 5 2 5 6
M  V30 6 1 6 7
M  V30 7 1 7 8
M  V30 8 2 7 9
M  V30 9 1 9 10
M  V30 10 2 10 11
M  V30 11 1 10 12
M  V30 12 1 3 13
M  V30 13 1 11 5
M  V30 14 1 1 14
M  V30 15 1 1 15
M  V30 16 1 1 16
M  V30 17 1 3 17
M  V30 18 1 8 18
M  V30 19 1 8 19
M  V30 20 1 9 20
M  V30 21 1 12 21
M  V30 22 1 12 22
M  V30 23 1 13 23
M  V30 24 1 13 24
M  V30 25 1 13 25
M  V30 END BOND
M  V30 END CTAB
M  END
