
     RDKit          3D

  0  0  0  0  0  0  0  0  0  0999 V3000
M  V30 BEGIN CTAB
M  V30 COUNTS 84 90 0 0 0
M  V30 BEGIN ATOM
M  V30 1 O -0.983518 -2.68647 0.530557 0
M  V30 2 C -1.64283 -2.36134 -0.56621 0 CFG=1
M  V30 3 C -2.16792 -0.964347 -0.469646 0
M  V30 4 N -2.98146 -0.610575 -1.57949 0
M  V30 5 C -4.35996 -0.961132 -1.7188 0
M  V30 6 C -4.8709 -2.01172 -2.41162 0
M  V30 7 F -4.05313 -2.83598 -3.10416 0
M  V30 8 C -6.25127 -2.25307 -2.43856 0
M  V30 9 C -7.09737 -1.41142 -1.75271 0
M  V30 10 C -6.62416 -0.310424 -1.02085 0
M  V30 11 C -5.26936 -0.130117 -1.03446 0
M  V30 12 Cl -4.53635 1.19111 -0.177412 0
M  V30 13 N -7.45341 0.494086 -0.360769 0
M  V30 14 C -8.80587 0.211576 -0.417861 0
M  V30 15 C -9.33189 -0.837552 -1.10751 0
M  V30 16 C -8.46139 -1.65211 -1.77875 0
M  V30 17 O -8.89337 -2.63701 -2.43255 0
M  V30 18 C -10.7667 -1.08477 -1.12988 0
M  V30 19 O -11.5629 -0.332834 -0.512824 0
M  V30 20 O -11.3102 -2.15275 -1.82791 0
M  V30 21 C -7.14267 1.61431 0.407336 0
M  V30 22 N -6.92303 1.49832 1.71652 0
M  V30 23 C -6.74052 2.56734 2.54805 0
M  V30 24 N -6.51041 2.44641 3.93461 0
M  V30 25 C -6.78827 3.81994 1.98662 0
M  V30 26 C -7.01125 4.01855 0.631897 0
M  V30 27 C -7.18651 2.86342 -0.136079 0
M  V30 28 F -7.41078 3.07556 -1.46136 0
M  V30 29 F -6.61207 4.93619 2.76997 0
M  V30 30 C -0.73224 -2.47901 -1.7805 0
M  V30 31 O 0.387326 -1.732 -1.77751 0
M  V30 32 C 1.36464 -1.92951 -0.862922 0
M  V30 33 C 1.81129 -0.664084 -0.108649 0
M  V30 34 N 3.14411 -1.23086 -0.119941 0
M  V30 35 C 2.78856 -1.8202 -1.41293 0
M  V30 36 C 4.30675 -1.25382 0.683975 0
M  V30 37 C 4.5355 -2.17721 1.65177 0
M  V30 38 F 3.60867 -3.14427 1.88525 0
M  V30 39 C 5.68492 -2.14571 2.39479 0
M  V30 40 C 6.65049 -1.17884 2.18947 0
M  V30 41 C 6.41136 -0.220977 1.18394 0
M  V30 42 C 5.26568 -0.253058 0.444075 0
M  V30 43 Cl 4.89938 0.910229 -0.824468 0
M  V30 44 N 7.34644 0.687148 1.00933 0
M  V30 45 C 8.50131 0.684345 1.78693 0
M  V30 46 C 8.73734 -0.227967 2.75116 0
M  V30 47 C 7.78877 -1.19082 2.96411 0
M  V30 48 O 7.94944 -2.06418 3.84269 0
M  V30 49 C 9.97732 -0.195751 3.56151 0
M  V30 50 O 10.8777 0.655372 3.40611 0
M  V30 51 O 10.1295 -1.16144 4.5322 0
M  V30 52 C 7.31452 1.732 0.0563293 0
M  V30 53 N 7.85486 1.54717 -1.14093 0
M  V30 54 C 8.01211 2.54877 -2.05556 0
M  V30 55 N 8.59129 2.32499 -3.31831 0
M  V30 56 C 7.57666 3.79541 -1.68339 0
M  V30 57 C 7.00501 4.05532 -0.45624 0
M  V30 58 C 6.88384 2.96841 0.418385 0
M  V30 59 F 6.32449 3.22073 1.63922 0
M  V30 60 F 7.70096 4.85328 -2.54691 0
M  V30 61 H -1.36069 -3.05364 1.20313 0
M  V30 62 H -2.48231 -3.05859 -0.675827 0
M  V30 63 H -1.27168 -0.281548 -0.413859 0
M  V30 64 H -2.69249 -0.862079 0.511345 0
M  V30 65 H -2.5861 -0.050816 -2.37833 0
M  V30 66 H -6.60588 -3.10493 -3.00592 0
M  V30 67 H -9.52186 0.849758 0.111039 0
M  V30 68 H -11.2783 -2.1731 -2.83902 0
M  V30 69 H -5.81036 3.04618 4.44846 0
M  V30 70 H -7.01927 1.75367 4.54465 0
M  V30 71 H -7.05156 4.9984 0.172935 0
M  V30 72 H -0.561579 -3.57241 -1.96535 0
M  V30 73 H -1.33665 -2.1508 -2.67751 0
M  V30 74 H 1.26838 -2.72952 -0.10706 0
M  V30 75 H 1.33544 -0.623718 0.901266 0
M  V30 76 H 1.67827 0.260046 -0.681824 0
M  V30 77 H 2.81751 -1.0234 -2.17694 0
M  V30 78 H 3.28728 -2.76083 -1.63813 0
M  V30 79 H 5.88582 -2.87794 3.17567 0
M  V30 80 H 9.24102 1.46319 1.59597 0
M  V30 81 H 10.7422 -1.93808 4.3192 0
M  V30 82 H 9.40776 1.65175 -3.40122 0
M  V30 83 H 8.28856 2.76862 -4.21071 0
M  V30 84 H 6.67792 5.05312 -0.211077 0
M  V30 END ATOM
M  V30 BEGIN BOND
M  V30 1 1 1 2
M  V30 2 1 2 3
M  V30 3 1 3 4
M  V30 4 1 4 5
M  V30 5 2 5 6
M  V30 6 1 6 7
M  V30 7 1 6 8
M  V30 8 2 8 9
M  V30 9 1 9 10
M  V30 10 2 10 11
M  V30 11 1 11 12
M  V30 12 1 10 13
M  V30 13 1 13 14
M  V30 14 2 14 15
M  V30 15 1 15 16
M  V30 16 2 16 17
M  V30 17 1 15 18
M  V30 18 2 18 19
M  V30 19 1 18 20
M  V30 20 1 13 21
M  V30 21 2 21 22
M  V30 22 1 22 23
M  V30 23 1 23 24
M  V30 24 2 23 25
M  V30 25 1 25 26
M  V30 26 2 26 27
M  V30 27 1 27 28
M  V30 28 1 25 29
M  V30 29 1 2 30
M  V30 30 1 30 31
M  V30 31 1 31 32
M  V30 32 1 32 33
M  V30 33 1 33 34
M  V30 34 1 34 35
M  V30 35 1 34 36
M  V30 36 2 36 37
M  V30 37 1 37 38
M  V30 38 1 37 39
M  V30 39 2 39 40
M  V30 40 1 40 41
M  V30 41 2 41 42
M  V30 42 1 42 43
M  V30 43 1 41 44
M  V30 44 1 44 45
M  V30 45 2 45 46
M  V30 46 1 46 47
M  V30 47 2 47 48
M  V30 48 1 46 49
M  V30 49 2 49 50
M  V30 50 1 49 51
M  V30 51 1 44 52
M  V30 52 2 52 53
M  V30 53 1 53 54
M  V30 54 1 54 55
M  V30 55 2 54 56
M  V30 56 1 56 57
M  V30 57 2 57 58
M  V30 58 1 58 59
M  V30 59 1 56 60
M  V30 60 1 11 5
M  V30 61 1 27 21
M  V30 62 1 35 32
M  V30 63 1 42 36
M  V30 64 1 58 52
M  V30 65 1 16 9
M  V30 66 1 47 40
M  V30 67 1 1 61
M  V30 68 1 2 62 CFG=3
M  V30 69 1 3 63
M  V30 70 1 3 64
M  V30 71 1 4 65
M  V30 72 1 8 66
M  V30 73 1 14 67
M  V30 74 1 20 68
M  V30 75 1 24 69
M  V30 76 1 24 70
M  V30 77 1 26 71
M  V30 78 1 30 72
M  V30 79 1 30 73
M  V30 80 1 32 74
M  V30 81 1 33 75
M  V30 82 1 33 76
M  V30 83 1 35 77
M  V30 84 1 35 78
M  V30 85 1 39 79
M  V30 86 1 45 80
M  V30 87 1 51 81
M  V30 88 1 55 82
M  V30 89 1 55 83
M  V30 90 1 57 84
M  V30 END BOND
M  V30 END CTAB
M  END
