
     RDKit          3D

  0  0  0  0  0  0  0  0  0  0999 V3000
M  V30 BEGIN CTAB
M  V30 COUNTS 41 44 0 0 0
M  V30 BEGIN ATOM
M  V30 1 N -5.47239 -1.53159 -0.71488 0
M  V30 2 C -4.31797 -1.57577 -0.819449 0
M  V30 3 C -2.86976 -1.60439 -0.953978 0
M  V30 4 C -2.36183 -2.67418 -1.65253 0
M  V30 5 N -3.17341 -3.69531 -2.2145 0
M  V30 6 N -1.01575 -2.68798 -1.77037 0
M  V30 7 C -0.24328 -1.6983 -1.22411 0
M  V30 8 C -0.726357 -0.629266 -0.52791 0
M  V30 9 C -2.11848 -0.596273 -0.395337 0
M  V30 10 C -2.8352 0.453404 0.301725 0
M  V30 11 C -3.23395 0.216416 1.60504 0
M  V30 12 C -3.93283 1.15662 2.32214 0
M  V30 13 C -4.2349 2.36321 1.70672 0
M  V30 14 C -3.85924 2.64371 0.411824 0
M  V30 15 C -3.15979 1.66813 -0.26545 0
M  V30 16 C 0.173345 0.257358 -0.054051 0
M  V30 17 N -0.147259 1.45917 0.713989 0
M  V30 18 C 1.50299 0.00745181 -0.315313 0
M  V30 19 S 1.43547 -1.45198 -1.208 0
M  V30 20 C 2.6675 0.786519 0.106345 0
M  V30 21 O 2.48172 1.78848 0.828607 0
M  V30 22 C 4.01477 0.446793 -0.274016 0
M  V30 23 C 4.41192 -0.23254 -1.38679 0
M  V30 24 C 5.74569 -0.524362 -1.62639 0
M  V30 25 C 6.75685 -0.155377 -0.770753 0
M  V30 26 C 6.3684 0.535963 0.363166 0
M  V30 27 C 5.05357 0.821677 0.595821 0
M  V30 28 H -4.20803 -3.7054 -2.16891 0
M  V30 29 H -2.70875 -4.48716 -2.70594 0
M  V30 30 H -2.98119 -0.742865 2.06329 0
M  V30 31 H -4.2486 0.965146 3.36002 0
M  V30 32 H -4.7922 3.09869 2.29258 0
M  V30 33 H -4.09554 3.58492 -0.0642283 0
M  V30 34 H -2.83733 1.83111 -1.28639 0
M  V30 35 H -0.137883 2.3384 0.141381 0
M  V30 36 H -0.351159 1.39302 1.71748 0
M  V30 37 H 3.66816 -0.537554 -2.10957 0
M  V30 38 H 6.02122 -1.0712 -2.52707 0
M  V30 39 H 7.78028 -0.406278 -0.998589 0
M  V30 40 H 7.16447 0.826644 1.04098 0
M  V30 41 H 4.81674 1.36493 1.49957 0
M  V30 END ATOM
M  V30 BEGIN BOND
M  V30 1 3 1 2
M  V30 2 1 2 3
M  V30 3 2 3 4
M  V30 4 1 4 5
M  V30 5 1 4 6
M  V30 6 2 6 7
M  V30 7 1 7 8
M  V30 8 2 8 9
M  V30 9 1 9 10
M  V30 10 2 10 11
M  V30 11 1 11 12
M  V30 12 2 12 13
M  V30 13 1 13 14
M  V30 14 2 14 15
M  V30 15 1 8 16
M  V30 16 1 16 17
M  V30 17 2 16 18
M  V30 18 1 18 19
M  V30 19 1 18 20
M  V30 20 2 20 21
M  V30 21 1 20 22
M  V30 22 2 22 23
M  V30 23 1 23 24
M  V30 24 2 24 25
M  V30 25 1 25 26
M  V30 26 2 26 27
M  V30 27 1 9 3
M  V30 28 1 15 10
M  V30 29 1 27 22
M  V30 30 1 19 7
M  V30 31 1 5 28
M  V30 32 1 5 29
M  V30 33 1 11 30
M  V30 34 1 12 31
M  V30 35 1 13 32
M  V30 36 1 14 33
M  V30 37 1 15 34
M  V30 38 1 17 35
M  V30 39 1 17 36
M  V30 40 1 23 37
M  V30 41 1 24 38
M  V30 42 1 25 39
M  V30 43 1 26 40
M  V30 44 1 27 41
M  V30 END BOND
M  V30 END CTAB
M  END
