
     RDKit          3D

  0  0  0  0  0  0  0  0  0  0999 V3000
M  V30 BEGIN CTAB
M  V30 COUNTS 82 85 0 0 0
M  V30 BEGIN ATOM
M  V30 1 N 12.9712 3.95779 -0.24186 0
M  V30 2 C 12.1421 2.81208 -0.148042 0
M  V30 3 C 11.6305 2.50001 1.08242 0
M  V30 4 C 10.8164 1.37365 1.18464 0
M  V30 5 C 10.5308 0.592683 0.0868546 0
M  V30 6 O 9.73611 -0.512927 0.189382 0
M  V30 7 C 8.37609 -0.412371 0.0625834 0
M  V30 8 C 7.62867 -0.137495 1.17754 0
M  V30 9 C 6.24315 -0.0466576 1.05373 0
M  V30 10 C 5.66221 -0.232834 -0.174126 0
M  V30 11 C 4.1945 -0.26582 -0.28506 0
M  V30 12 N 3.46343 -0.173472 0.944525 0
M  V30 13 C 3.1948 -1.48352 1.51132 0
M  V30 14 C 2.37598 -2.36445 0.676324 0
M  V30 15 C 0.972088 -1.75616 0.39437 0
M  V30 16 C 0.288712 -2.67994 -0.545877 0
M  V30 17 C -1.08899 -2.42507 -0.923404 0
M  V30 18 C -1.53754 -1.15819 -1.54064 0
M  V30 19 C -1.54225 0.0831383 -0.745603 0
M  V30 20 C -2.3642 0.150342 0.488033 0
M  V30 21 N -3.75312 0.0326964 0.421814 0
M  V30 22 C -4.39891 -1.16752 0.130081 0
M  V30 23 C -5.88958 -1.13138 0.100861 0
M  V30 24 C -6.6001 -0.246187 -0.681797 0
M  V30 25 C -7.99197 -0.272108 -0.703063 0
M  V30 26 C -8.69418 -1.18371 0.0605395 0
M  V30 27 O -10.1089 -1.18097 0.0215292 0
M  V30 28 C -10.6705 0.108846 0.113911 0
M  V30 29 C -10.7922 0.685444 1.36139 0
M  V30 30 C -11.331 1.94793 1.52852 0
M  V30 31 C -11.7644 2.66886 0.434668 0
M  V30 32 N -12.318 3.99009 0.612991 0
M  V30 33 C -11.6421 2.09147 -0.811027 0
M  V30 34 C -11.1007 0.82165 -0.975117 0
M  V30 35 C -8.01171 -2.07813 0.849798 0
M  V30 36 C -6.622 -2.02565 0.847222 0
M  V30 37 C 6.40017 -0.506473 -1.31317 0
M  V30 38 C 7.78195 -0.591836 -1.16037 0
M  V30 39 C 11.0671 0.94675 -1.12947 0
M  V30 40 C 11.8772 2.05724 -1.26516 0
M  V30 41 H 12.9019 4.56573 -1.06712 0
M  V30 42 H 13.634 4.1561 0.531126 0
M  V30 43 H 11.8218 3.07885 1.97392 0
M  V30 44 H 10.415 1.13297 2.15609 0
M  V30 45 H 8.03941 0.0144252 2.16306 0
M  V30 46 H 5.62904 0.170611 1.90129 0
M  V30 47 H 3.84701 -1.08339 -0.903407 0
M  V30 48 H 3.90008 0.681331 -0.855217 0
M  V30 49 H 2.65586 0.453922 0.918505 0
M  V30 50 H 2.70731 -1.30539 2.5185 0
M  V30 51 H 4.13888 -2.0092 1.77522 0
M  V30 52 H 2.20851 -3.34724 1.21184 0
M  V30 53 H 2.80698 -2.63451 -0.295044 0
M  V30 54 H 0.511921 -1.59765 1.36835 0
M  V30 55 H 1.2459 -0.76526 -0.0467109 0
M  V30 56 H 0.374477 -3.75508 -0.19087 0
M  V30 57 H 0.937513 -2.68367 -1.51048 0
M  V30 58 H -1.78902 -2.60922 -0.0368465 0
M  V30 59 H -1.40409 -3.30922 -1.59556 0
M  V30 60 H -2.42435 -1.34071 -2.1856 0
M  V30 61 H -0.756552 -0.920118 -2.41565 0
M  V30 62 H -1.92113 0.927177 -1.47309 0
M  V30 63 H -0.536446 0.472782 -0.503768 0
M  V30 64 H -2.09181 1.14116 0.984278 0
M  V30 65 H -1.97974 -0.621414 1.251 0
M  V30 66 H -4.27812 0.903504 0.157495 0
M  V30 67 H -4.11559 -1.57679 -0.866648 0
M  V30 68 H -4.13336 -1.91064 0.937501 0
M  V30 69 H -6.02453 0.475235 -1.28248 0
M  V30 70 H -8.45846 0.456615 -1.34348 0
M  V30 71 H -10.442 0.0945458 2.2123 0
M  V30 72 H -11.4247 2.39321 2.50426 0
M  V30 73 H -13.3176 4.21626 0.47898 0
M  V30 74 H -11.6153 4.72109 0.892014 0
M  V30 75 H -11.9698 2.61049 -1.69204 0
M  V30 76 H -11.0043 0.355314 -1.96204 0
M  V30 77 H -8.56306 -2.80166 1.45037 0
M  V30 78 H -6.08674 -2.7475 1.48439 0
M  V30 79 H 5.90917 -0.644494 -2.26898 0
M  V30 80 H 8.38465 -0.814774 -2.04175 0
M  V30 81 H 10.8337 0.320824 -1.98072 0
M  V30 82 H 12.3028 2.34797 -2.20709 0
M  V30 END ATOM
M  V30 BEGIN BOND
M  V30 1 1 1 2
M  V30 2 2 2 3
M  V30 3 1 3 4
M  V30 4 2 4 5
M  V30 5 1 5 6
M  V30 6 1 6 7
M  V30 7 2 7 8
M  V30 8 1 8 9
M  V30 9 2 9 10
M  V30 10 1 10 11
M  V30 11 1 11 12
M  V30 12 1 12 13
M  V30 13 1 13 14
M  V30 14 1 14 15
M  V30 15 1 15 16
M  V30 16 1 16 17
M  V30 17 1 17 18
M  V30 18 1 18 19
M  V30 19 1 19 20
M  V30 20 1 20 21
M  V30 21 1 21 22
M  V30 22 1 22 23
M  V30 23 2 23 24
M  V30 24 1 24 25
M  V30 25 2 25 26
M  V30 26 1 26 27
M  V30 27 1 27 28
M  V30 28 2 28 29
M  V30 29 1 29 30
M  V30 30 2 30 31
M  V30 31 1 31 32
M  V30 32 1 31 33
M  V30 33 2 33 34
M  V30 34 1 26 35
M  V30 35 2 35 36
M  V30 36 1 10 37
M  V30 37 2 37 38
M  V30 38 1 5 39
M  V30 39 2 39 40
M  V30 40 1 40 2
M  V30 41 1 38 7
M  V30 42 1 36 23
M  V30 43 1 34 28
M  V30 44 1 1 41
M  V30 45 1 1 42
M  V30 46 1 3 43
M  V30 47 1 4 44
M  V30 48 1 8 45
M  V30 49 1 9 46
M  V30 50 1 11 47
M  V30 51 1 11 48
M  V30 52 1 12 49
M  V30 53 1 13 50
M  V30 54 1 13 51
M  V30 55 1 14 52
M  V30 56 1 14 53
M  V30 57 1 15 54
M  V30 58 1 15 55
M  V30 59 1 16 56
M  V30 60 1 16 57
M  V30 61 1 17 58
M  V30 62 1 17 59
M  V30 63 1 18 60
M  V30 64 1 18 61
M  V30 65 1 19 62
M  V30 66 1 19 63
M  V30 67 1 20 64
M  V30 68 1 20 65
M  V30 69 1 21 66
M  V30 70 1 22 67
M  V30 71 1 22 68
M  V30 72 1 24 69
M  V30 73 1 25 70
M  V30 74 1 29 71
M  V30 75 1 30 72
M  V30 76 1 32 73
M  V30 77 1 32 74
M  V30 78 1 33 75
M  V30 79 1 34 76
M  V30 80 1 35 77
M  V30 81 1 36 78
M  V30 82 1 37 79
M  V30 83 1 38 80
M  V30 84 1 39 81
M  V30 85 1 40 82
M  V30 END BOND
M  V30 END CTAB
M  END
