
     RDKit          3D

  0  0  0  0  0  0  0  0  0  0999 V3000
M  V30 BEGIN CTAB
M  V30 COUNTS 74 77 0 0 0
M  V30 BEGIN ATOM
M  V30 1 N -3.0556 -1.71006 1.99887 0
M  V30 2 C -3.43971 -0.585761 1.36704 0 CFG=2
M  V30 3 C -4.81996 -0.682109 0.744069 0
M  V30 4 C -4.98971 -1.75009 -0.247312 0
M  V30 5 C -4.72059 -1.53972 -1.58804 0
M  V30 6 C -4.83219 -2.57656 -2.4764 0
M  V30 7 C -5.20646 -3.85341 -2.10796 0
M  V30 8 Cl -5.33106 -5.14593 -3.29511 0
M  V30 9 C -5.47364 -4.05449 -0.774552 0
M  V30 10 C -5.36579 -3.0137 0.136732 0
M  V30 11 Cl -5.82346 -3.4254 1.79852 0
M  V30 12 C -2.54275 0.17944 0.490366 0
M  V30 13 O -3.12619 1.21534 -0.0431275 0
M  V30 14 N -1.20843 0.0201711 0.126864 0
M  V30 15 C -0.42057 -1.16892 0.503917 0
M  V30 16 C 0.630467 -1.50235 -0.554385 0
M  V30 17 N 1.51149 -0.405826 -0.772639 0
M  V30 18 C 2.08138 -0.22674 -2.04133 0
M  V30 19 C 3.09199 -1.22834 -2.49273 0
M  V30 20 C 4.27563 -1.28735 -1.57045 0
M  V30 21 C 4.3314 -2.19118 -0.526781 0
M  V30 22 C 5.40648 -2.26133 0.350538 0
M  V30 23 C 5.44909 -3.17154 1.3885 0
M  V30 24 C 6.51239 -3.249 2.26222 0
M  V30 25 C 7.58672 -2.39204 2.11123 0
M  V30 26 C 7.55066 -1.4763 1.07192 0
M  V30 27 C 6.47398 -1.40455 0.194008 0
M  V30 28 C 6.42208 -0.501758 -0.846193 0
M  V30 29 C 5.3526 -0.435058 -1.71534 0
M  V30 30 C 1.02356 0.797405 -0.142747 0
M  V30 31 C -0.439713 0.983606 -0.626963 0 CFG=2
M  V30 32 C -0.790466 2.42057 -0.520045 0
M  V30 33 C -0.6857 3.04024 0.834979 0
M  V30 34 C -1.03709 4.50917 0.813998 0
M  V30 35 N -2.35218 4.81073 0.362407 0
M  V30 36 C -2.8407 6.14243 0.254066 0
M  V30 37 N -1.95058 7.26706 0.236796 0
M  V30 38 N -4.08495 6.40241 0.163073 0
M  V30 39 H -2.94244 -2.61136 1.64857 0
M  V30 40 H -2.72366 -1.62155 2.94906 0
M  V30 41 H -3.65079 0.175814 2.25272 0
M  V30 42 H -4.99091 0.289737 0.19401 0
M  V30 43 H -5.61593 -0.682457 1.52766 0
M  V30 44 H -4.42754 -0.582729 -1.94772 0
M  V30 45 H -4.62069 -2.4219 -3.55165 0
M  V30 46 H -5.77233 -5.05621 -0.459954 0
M  V30 47 H -1.13299 -2.01375 0.494709 0
M  V30 48 H 0.0617307 -1.10685 1.45872 0
M  V30 49 H 0.0691863 -1.71966 -1.47479 0
M  V30 50 H 1.19749 -2.39034 -0.267564 0
M  V30 51 H 1.23304 -0.217785 -2.79002 0
M  V30 52 H 2.47741 0.820427 -2.10537 0
M  V30 53 H 3.44962 -0.964773 -3.51811 0
M  V30 54 H 2.70745 -2.25447 -2.55887 0
M  V30 55 H 3.51032 -2.87298 -0.388457 0
M  V30 56 H 4.59643 -3.83732 1.49162 0
M  V30 57 H 6.54879 -3.96607 3.08236 0
M  V30 58 H 8.42041 -2.44018 2.78548 0
M  V30 59 H 8.39396 -0.804868 0.957069 0
M  V30 60 H 7.27285 0.158657 -0.946088 0
M  V30 61 H 5.34719 0.293896 -2.52907 0
M  V30 62 H 1.01041 0.608122 0.94556 0
M  V30 63 H 1.62166 1.64575 -0.467776 0
M  V30 64 H -0.409439 0.685358 -1.69648 0
M  V30 65 H -1.68562 2.70068 -1.09664 0
M  V30 66 H 0.0415588 2.96317 -1.12446 0
M  V30 67 H 0.391822 3.03327 1.19825 0
M  V30 68 H -1.30327 2.51556 1.55558 0
M  V30 69 H -0.821155 4.90875 1.83527 0
M  V30 70 H -0.285275 5.03511 0.154202 0
M  V30 71 H -2.99879 4.05137 0.0938522 0
M  V30 72 H -2.24086 8.1562 0.688702 0
M  V30 73 H -1.01505 7.22897 -0.215884 0
M  V30 74 H -4.877 5.74535 0.154219 0
M  V30 END ATOM
M  V30 BEGIN BOND
M  V30 1 1 1 2
M  V30 2 1 2 3
M  V30 3 1 3 4
M  V30 4 2 4 5
M  V30 5 1 5 6
M  V30 6 2 6 7
M  V30 7 1 7 8
M  V30 8 1 7 9
M  V30 9 2 9 10
M  V30 10 1 10 11
M  V30 11 1 2 12
M  V30 12 2 12 13
M  V30 13 1 12 14
M  V30 14 1 14 15
M  V30 15 1 15 16
M  V30 16 1 16 17
M  V30 17 1 17 18
M  V30 18 1 18 19
M  V30 19 1 19 20
M  V30 20 2 20 21
M  V30 21 1 21 22
M  V30 22 2 22 23
M  V30 23 1 23 24
M  V30 24 2 24 25
M  V30 25 1 25 26
M  V30 26 2 26 27
M  V30 27 1 27 28
M  V30 28 2 28 29
M  V30 29 1 17 30
M  V30 30 1 30 31
M  V30 31 1 31 32
M  V30 32 1 32 33
M  V30 33 1 33 34
M  V30 34 1 34 35
M  V30 35 1 35 36
M  V30 36 1 36 37
M  V30 37 2 36 38 CFG=2
M  V30 38 1 10 4
M  V30 39 1 31 14
M  V30 40 1 29 20
M  V30 41 1 27 22
M  V30 42 1 1 39
M  V30 43 1 1 40
M  V30 44 1 2 41 CFG=1
M  V30 45 1 3 42
M  V30 46 1 3 43
M  V30 47 1 5 44
M  V30 48 1 6 45
M  V30 49 1 9 46
M  V30 50 1 15 47
M  V30 51 1 15 48
M  V30 52 1 16 49
M  V30 53 1 16 50
M  V30 54 1 18 51
M  V30 55 1 18 52
M  V30 56 1 19 53
M  V30 57 1 19 54
M  V30 58 1 21 55
M  V30 59 1 23 56
M  V30 60 1 24 57
M  V30 61 1 25 58
M  V30 62 1 26 59
M  V30 63 1 28 60
M  V30 64 1 29 61
M  V30 65 1 30 62
M  V30 66 1 30 63
M  V30 67 1 31 64 CFG=3
M  V30 68 1 32 65
M  V30 69 1 32 66
M  V30 70 1 33 67
M  V30 71 1 33 68
M  V30 72 1 34 69
M  V30 73 1 34 70
M  V30 74 1 35 71
M  V30 75 1 37 72
M  V30 76 1 37 73
M  V30 77 1 38 74
M  V30 END BOND
M  V30 END CTAB
M  END
