
     RDKit          3D

  0  0  0  0  0  0  0  0  0  0999 V3000
M  V30 BEGIN CTAB
M  V30 COUNTS 35 36 0 0 0
M  V30 BEGIN ATOM
M  V30 1 O 1.17864 2.01543 1.03341 0
M  V30 2 C 0.987464 0.981539 0.387175 0
M  V30 3 N 1.97398 0.0847938 -0.0194119 0
M  V30 4 C 3.34597 0.203584 0.23636 0
M  V30 5 C 3.96732 1.28705 0.81376 0
M  V30 6 C 5.34599 1.36392 1.0402 0
M  V30 7 Cl 6.08553 2.76566 1.78026 0
M  V30 8 C 6.15087 0.309421 0.672637 0
M  V30 9 C 5.56196 -0.776419 0.0984208 0
M  V30 10 C 4.20499 -0.852078 -0.12416 0
M  V30 11 C 3.71106 -2.09833 -0.749371 0
M  V30 12 C -0.470345 0.681022 0.0187298 0
M  V30 13 S -1.53264 1.0231 1.45078 0
M  V30 14 C -3.19846 0.604771 0.957865 0
M  V30 15 N -3.57805 -0.697722 1.12227 0
M  V30 16 C -4.80122 -1.13931 0.80967 0
M  V30 17 N -5.18568 -2.49925 0.972319 0
M  V30 18 C -5.68679 -0.204863 0.303492 0
M  V30 19 C -5.33645 1.13596 0.121385 0
M  V30 20 N -4.08141 1.47423 0.466797 0
M  V30 21 N -6.27713 2.05935 -0.389936 0
M  V30 22 H 1.69847 -0.784205 -0.581872 0
M  V30 23 H 3.38825 2.13374 1.11446 0
M  V30 24 H 7.20906 0.382775 0.852224 0
M  V30 25 H 6.22027 -1.59957 -0.183135 0
M  V30 26 H 3.70585 -1.91997 -1.85724 0
M  V30 27 H 2.69845 -2.40686 -0.406429 0
M  V30 28 H 4.4578 -2.90906 -0.505004 0
M  V30 29 H -0.487784 -0.347317 -0.324428 0
M  V30 30 H -0.702021 1.40246 -0.807652 0
M  V30 31 H -5.0873 -3.0813 0.0854054 0
M  V30 32 H -5.52994 -2.93536 1.82659 0
M  V30 33 H -6.70213 -0.469122 0.0206456 0
M  V30 34 H -5.94073 2.92256 -0.843037 0
M  V30 35 H -7.29384 1.88936 -0.316257 0
M  V30 END ATOM
M  V30 BEGIN BOND
M  V30 1 2 1 2
M  V30 2 1 2 3
M  V30 3 1 3 4
M  V30 4 2 4 5
M  V30 5 1 5 6
M  V30 6 1 6 7
M  V30 7 2 6 8
M  V30 8 1 8 9
M  V30 9 2 9 10
M  V30 10 1 10 11
M  V30 11 1 2 12
M  V30 12 1 12 13
M  V30 13 1 13 14
M  V30 14 2 14 15
M  V30 15 1 15 16
M  V30 16 1 16 17
M  V30 17 2 16 18
M  V30 18 1 18 19
M  V30 19 2 19 20
M  V30 20 1 19 21
M  V30 21 1 10 4
M  V30 22 1 20 14
M  V30 23 1 3 22
M  V30 24 1 5 23
M  V30 25 1 8 24
M  V30 26 1 9 25
M  V30 27 1 11 26
M  V30 28 1 11 27
M  V30 29 1 11 28
M  V30 30 1 12 29
M  V30 31 1 12 30
M  V30 32 1 17 31
M  V30 33 1 17 32
M  V30 34 1 18 33
M  V30 35 1 21 34
M  V30 36 1 21 35
M  V30 END BOND
M  V30 END CTAB
M  END
