
     RDKit          3D

  0  0  0  0  0  0  0  0  0  0999 V3000
M  V30 BEGIN CTAB
M  V30 COUNTS 40 42 0 0 0
M  V30 BEGIN ATOM
M  V30 1 N -5.3753 -0.362701 -1.67971 0
M  V30 2 C -4.21129 0.176927 -1.00565 0
M  V30 3 C -3.18155 -0.926119 -0.883514 0
M  V30 4 C -1.93171 -0.445722 -0.20625 0
M  V30 5 C -0.926627 0.291072 -0.771305 0
M  V30 6 C -0.863463 0.739098 -2.16047 0
M  V30 7 N 0.00694294 0.507825 0.227396 0
M  V30 8 C -0.415804 -0.0758614 1.37068 0
M  V30 9 C -1.64144 -0.688557 1.12223 0
M  V30 10 C -2.33083 -1.37029 2.1014 0
M  V30 11 C -1.78389 -1.43951 3.35888 0
M  V30 12 C -0.576998 -0.841849 3.64061 0
M  V30 13 C 0.0872443 -0.168612 2.64046 0
M  V30 14 C 1.17476 1.20558 -0.0224797 0
M  V30 15 O 1.32797 1.73994 -1.22206 0
M  V30 16 C 2.36935 1.50897 0.778681 0
M  V30 17 N 3.55574 1.18831 -0.093872 0
M  V30 18 N 4.18014 1.95641 -0.939675 0
M  V30 19 C 5.16424 1.28018 -1.55698 0
M  V30 20 C 5.14234 -0.0102654 -1.0493 0
M  V30 21 N 4.13716 0.00629176 -0.163971 0
M  V30 22 N 5.98887 -1.10078 -1.40045 0
M  V30 23 H -5.08876 -1.09052 -2.36849 0
M  V30 24 H -5.98651 -0.760115 -0.949392 0
M  V30 25 H -3.85339 1.06659 -1.54576 0
M  V30 26 H -4.53051 0.52235 0.0139298 0
M  V30 27 H -3.60047 -1.81041 -0.367748 0
M  V30 28 H -2.89011 -1.26596 -1.91509 0
M  V30 29 H -1.84342 0.465701 -2.66521 0
M  V30 30 H -0.768758 1.81752 -2.33247 0
M  V30 31 H -0.10579 0.145041 -2.73292 0
M  V30 32 H -3.27296 -1.83589 1.85223 0
M  V30 33 H -2.31608 -1.96738 4.12305 0
M  V30 34 H -0.154253 -0.906286 4.64519 0
M  V30 35 H 1.02325 0.311956 2.85842 0
M  V30 36 H 2.51817 0.922432 1.64496 0
M  V30 37 H 2.47814 2.62176 0.937337 0
M  V30 38 H 5.86352 1.6123 -2.3095 0
M  V30 39 H 5.66508 -2.08951 -1.36471 0
M  V30 40 H 6.96699 -0.929888 -1.70181 0
M  V30 END ATOM
M  V30 BEGIN BOND
M  V30 1 1 1 2
M  V30 2 1 2 3
M  V30 3 1 3 4
M  V30 4 2 4 5
M  V30 5 1 5 6
M  V30 6 1 5 7
M  V30 7 1 7 8
M  V30 8 2 8 9
M  V30 9 1 9 10
M  V30 10 2 10 11
M  V30 11 1 11 12
M  V30 12 2 12 13
M  V30 13 1 7 14
M  V30 14 2 14 15
M  V30 15 1 14 16
M  V30 16 1 16 17
M  V30 17 1 17 18
M  V30 18 2 18 19
M  V30 19 1 19 20
M  V30 20 2 20 21
M  V30 21 1 20 22
M  V30 22 1 9 4
M  V30 23 1 21 17
M  V30 24 1 13 8
M  V30 25 1 1 23
M  V30 26 1 1 24
M  V30 27 1 2 25
M  V30 28 1 2 26
M  V30 29 1 3 27
M  V30 30 1 3 28
M  V30 31 1 6 29
M  V30 32 1 6 30
M  V30 33 1 6 31
M  V30 34 1 10 32
M  V30 35 1 11 33
M  V30 36 1 12 34
M  V30 37 1 13 35
M  V30 38 1 16 36
M  V30 39 1 16 37
M  V30 40 1 19 38
M  V30 41 1 22 39
M  V30 42 1 22 40
M  V30 END BOND
M  V30 END CTAB
M  END
