
     RDKit          3D

  0  0  0  0  0  0  0  0  0  0999 V3000
M  V30 BEGIN CTAB
M  V30 COUNTS 47 48 0 0 0
M  V30 BEGIN ATOM
M  V30 1 N -3.34973 1.7714 -2.06001 0
M  V30 2 C -2.36579 0.767105 -2.00628 0
M  V30 3 C -2.61546 -0.233244 -0.898332 0 CFG=1
M  V30 4 O -1.61656 -1.1595 -0.927603 0
M  V30 5 C -1.22216 -1.48478 0.361019 0 CFG=1
M  V30 6 C -1.72616 -2.89499 0.722174 0
M  V30 7 O -3.10372 -2.95953 0.655861 0
M  V30 8 O 0.15299 -1.55273 0.462771 0
M  V30 9 C 0.837359 -0.391402 0.150038 0 CFG=1
M  V30 10 O 1.58015 -0.00268564 1.23313 0
M  V30 11 C 2.53503 0.958311 0.964984 0 CFG=2
M  V30 12 C 1.94884 2.27981 0.547473 0
M  V30 13 N 1.09312 2.79627 1.61861 0
M  V30 14 C 3.58017 0.513321 -0.0188469 0 CFG=1
M  V30 15 O 4.83303 0.35169 0.560241 0
M  V30 16 C 3.12071 -0.829462 -0.564472 0 CFG=2
M  V30 17 O 3.96184 -1.31089 -1.54399 0
M  V30 18 C 1.71459 -0.600726 -1.08388 0 CFG=1
M  V30 19 O 1.36558 -1.76423 -1.76476 0
M  V30 20 C -1.88124 -0.557627 1.33 0 CFG=1
M  V30 21 O -1.05555 0.0322454 2.25139 0
M  V30 22 C -2.57738 0.450405 0.438043 0 CFG=2
M  V30 23 O -3.90675 0.66913 0.824893 0
M  V30 24 H -4.24472 1.57133 -2.40314 0
M  V30 25 H -3.18505 2.54134 -1.43953 0
M  V30 26 H -2.20282 0.274144 -2.98157 0
M  V30 27 H -1.38712 1.26631 -1.76214 0
M  V30 28 H -3.60785 -0.711801 -1.09295 0
M  V30 29 H -1.42639 -3.15191 1.75792 0
M  V30 30 H -1.26432 -3.65315 0.0575695 0
M  V30 31 H -3.33376 -3.26123 -0.269421 0
M  V30 32 H 0.109984 0.405155 -0.0979877 0
M  V30 33 H 3.07292 1.14612 1.93421 0
M  V30 34 H 1.44024 2.268 -0.41573 0
M  V30 35 H 2.81011 2.99838 0.47901 0
M  V30 36 H 1.26294 3.81545 1.76634 0
M  V30 37 H 1.19736 2.24928 2.4994 0
M  V30 38 H 3.66285 1.19479 -0.889958 0
M  V30 39 H 5.51429 0.474981 -0.140004 0
M  V30 40 H 3.02227 -1.51331 0.305526 0
M  V30 41 H 4.18724 -2.24829 -1.31308 0
M  V30 42 H 1.69874 0.288043 -1.747 0
M  V30 43 H 1.70839 -1.63324 -2.70613 0
M  V30 44 H -2.72404 -1.07461 1.88886 0
M  V30 45 H -1.5317 0.164648 3.12824 0
M  V30 46 H -1.99339 1.3855 0.45782 0
M  V30 47 H -4.08909 0.356179 1.73129 0
M  V30 END ATOM
M  V30 BEGIN BOND
M  V30 1 1 1 2
M  V30 2 1 2 3
M  V30 3 1 3 4
M  V30 4 1 4 5
M  V30 5 1 5 6
M  V30 6 1 6 7
M  V30 7 1 5 8 CFG=3
M  V30 8 1 8 9
M  V30 9 1 9 10
M  V30 10 1 10 11
M  V30 11 1 11 12
M  V30 12 1 12 13
M  V30 13 1 11 14
M  V30 14 1 14 15
M  V30 15 1 14 16
M  V30 16 1 16 17
M  V30 17 1 16 18
M  V30 18 1 18 19
M  V30 19 1 5 20
M  V30 20 1 20 21
M  V30 21 1 20 22
M  V30 22 1 22 23
M  V30 23 1 22 3
M  V30 24 1 18 9
M  V30 25 1 1 24
M  V30 26 1 1 25
M  V30 27 1 2 26
M  V30 28 1 2 27
M  V30 29 1 3 28 CFG=3
M  V30 30 1 6 29
M  V30 31 1 6 30
M  V30 32 1 7 31
M  V30 33 1 9 32 CFG=3
M  V30 34 1 11 33 CFG=1
M  V30 35 1 12 34
M  V30 36 1 12 35
M  V30 37 1 13 36
M  V30 38 1 13 37
M  V30 39 1 14 38 CFG=3
M  V30 40 1 15 39
M  V30 41 1 16 40 CFG=1
M  V30 42 1 17 41
M  V30 43 1 18 42 CFG=3
M  V30 44 1 19 43
M  V30 45 1 20 44 CFG=1
M  V30 46 1 21 45
M  V30 47 1 22 46 CFG=3
M  V30 48 1 23 47
M  V30 END BOND
M  V30 END CTAB
M  END
