
     RDKit          3D

  0  0  0  0  0  0  0  0  0  0999 V3000
M  V30 BEGIN CTAB
M  V30 COUNTS 49 52 0 0 0
M  V30 BEGIN ATOM
M  V30 1 N 7.30241 -1.20099 -0.63415 0
M  V30 2 C 6.05056 -0.863879 -0.0651172 0
M  V30 3 N 4.91494 -1.49885 -0.362496 0
M  V30 4 C 3.7093 -1.1777 0.183079 0
M  V30 5 C 2.48557 -1.93133 -0.197974 0
M  V30 6 S 1.61378 -1.23159 -1.59755 0
M  V30 7 C 0.925302 0.36523 -1.20686 0
M  V30 8 N 1.57351 1.51521 -1.37661 0
M  V30 9 N 0.775771 2.4569 -0.990142 0
M  V30 10 C -0.426249 1.94356 -0.553565 0
M  V30 11 N -0.323639 0.650313 -0.691206 0
M  V30 12 C -1.19947 -0.409282 -0.410283 0
M  V30 13 C -1.27015 -1.00636 0.853115 0
M  V30 14 C -2.09628 -2.07346 1.12296 0
M  V30 15 C -2.89929 -2.60472 0.144478 0
M  V30 16 C -2.85861 -2.04426 -1.11439 0
M  V30 17 C -2.03229 -0.977401 -1.38292 0
M  V30 18 C -3.72453 -2.60456 -2.20046 0
M  V30 19 C -3.79271 -3.75465 0.426459 0
M  V30 20 C -1.49935 2.78081 -0.0478802 0
M  V30 21 C -1.25693 4.15597 0.0838662 0
M  V30 22 C -2.20252 5.03849 0.53978 0
M  V30 23 C -3.45808 4.61361 0.897141 0
M  V30 24 C -3.71346 3.27071 0.774612 0
M  V30 25 C -2.74262 2.36207 0.305942 0
M  V30 26 N 3.69939 -0.16096 1.06506 0
M  V30 27 C 4.81723 0.519602 1.40585 0
M  V30 28 N 5.97015 0.148857 0.829123 0
M  V30 29 N 4.80847 1.59501 2.33796 0
M  V30 30 H 7.48491 -2.18884 -0.882746 0
M  V30 31 H 8.03558 -0.492691 -0.807251 0
M  V30 32 H 2.74264 -2.99207 -0.461921 0
M  V30 33 H 1.79347 -2.01745 0.677244 0
M  V30 34 H -0.65518 -0.61604 1.6429 0
M  V30 35 H -2.1374 -2.52525 2.11369 0
M  V30 36 H -2.01584 -0.554367 -2.37361 0
M  V30 37 H -3.56565 -3.69777 -2.30097 0
M  V30 38 H -4.78476 -2.4177 -2.04097 0
M  V30 39 H -3.41604 -2.16012 -3.1763 0
M  V30 40 H -3.42105 -4.31245 1.33067 0
M  V30 41 H -4.84698 -3.45529 0.574456 0
M  V30 42 H -3.77803 -4.47454 -0.424967 0
M  V30 43 H -0.276082 4.53597 -0.186801 0
M  V30 44 H -1.99273 6.08655 0.632405 0
M  V30 45 H -4.22675 5.26997 1.25796 0
M  V30 46 H -4.69384 2.86942 1.04298 0
M  V30 47 H -3.03494 1.33367 0.235635 0
M  V30 48 H 4.54726 2.55895 2.11609 0
M  V30 49 H 5.09117 1.37373 3.31795 0
M  V30 END ATOM
M  V30 BEGIN BOND
M  V30 1 1 1 2
M  V30 2 2 2 3
M  V30 3 1 3 4
M  V30 4 1 4 5
M  V30 5 1 5 6
M  V30 6 1 6 7
M  V30 7 2 7 8
M  V30 8 1 8 9
M  V30 9 2 9 10
M  V30 10 1 10 11
M  V30 11 1 11 12
M  V30 12 2 12 13
M  V30 13 1 13 14
M  V30 14 2 14 15
M  V30 15 1 15 16
M  V30 16 2 16 17
M  V30 17 1 16 18
M  V30 18 1 15 19
M  V30 19 1 10 20
M  V30 20 2 20 21
M  V30 21 1 21 22
M  V30 22 2 22 23
M  V30 23 1 23 24
M  V30 24 2 24 25
M  V30 25 2 4 26
M  V30 26 1 26 27
M  V30 27 2 27 28
M  V30 28 1 27 29
M  V30 29 1 28 2
M  V30 30 1 11 7
M  V30 31 1 17 12
M  V30 32 1 25 20
M  V30 33 1 1 30
M  V30 34 1 1 31
M  V30 35 1 5 32
M  V30 36 1 5 33
M  V30 37 1 13 34
M  V30 38 1 14 35
M  V30 39 1 17 36
M  V30 40 1 18 37
M  V30 41 1 18 38
M  V30 42 1 18 39
M  V30 43 1 19 40
M  V30 44 1 19 41
M  V30 45 1 19 42
M  V30 46 1 21 43
M  V30 47 1 22 44
M  V30 48 1 23 45
M  V30 49 1 24 46
M  V30 50 1 25 47
M  V30 51 1 29 48
M  V30 52 1 29 49
M  V30 END BOND
M  V30 END CTAB
M  END
