
     RDKit          3D

  0  0  0  0  0  0  0  0  0  0999 V3000
M  V30 BEGIN CTAB
M  V30 COUNTS 26 27 0 0 0
M  V30 BEGIN ATOM
M  V30 1 N -4.40015 -0.836095 -2.06954 0
M  V30 2 C -3.49754 -0.502142 -1.03397 0
M  V30 3 N -2.16715 -0.462085 -1.18828 0
M  V30 4 C -1.31213 -0.151312 -0.228041 0
M  V30 5 N 0.108024 -0.130882 -0.475756 0
M  V30 6 C 1.02303 0.199891 0.545165 0
M  V30 7 O 0.588766 0.484262 1.70531 0
M  V30 8 C 2.45354 0.211351 0.258681 0
M  V30 9 C 2.9864 0.0729327 -1.00121 0
M  V30 10 C 4.37212 0.0903242 -1.19974 0
M  V30 11 C 5.19008 0.248417 -0.112053 0
M  V30 12 N 4.636 0.379658 1.09372 0
M  V30 13 C 3.33208 0.368745 1.32538 0
M  V30 14 N -1.79881 0.146856 0.99112 0
M  V30 15 C -3.13599 0.123658 1.20963 0
M  V30 16 N -3.7204 0.424559 2.46123 0
M  V30 17 N -3.97825 -0.198734 0.2033 0
M  V30 18 H -4.74563 -0.140073 -2.75784 0
M  V30 19 H -4.73696 -1.81453 -2.1534 0
M  V30 20 H 0.447543 -0.364208 -1.42039 0
M  V30 21 H 2.34149 -0.049098 -1.85676 0
M  V30 22 H 4.76652 -0.0215164 -2.20817 0
M  V30 23 H 6.2637 0.264989 -0.240687 0
M  V30 24 H 2.8869 0.476039 2.31024 0
M  V30 25 H -3.82941 -0.234092 3.2451 0
M  V30 26 H -4.07378 1.41309 2.59696 0
M  V30 END ATOM
M  V30 BEGIN BOND
M  V30 1 1 1 2
M  V30 2 2 2 3
M  V30 3 1 3 4
M  V30 4 1 4 5
M  V30 5 1 5 6
M  V30 6 2 6 7
M  V30 7 1 6 8
M  V30 8 2 8 9
M  V30 9 1 9 10
M  V30 10 2 10 11
M  V30 11 1 11 12
M  V30 12 2 12 13
M  V30 13 2 4 14
M  V30 14 1 14 15
M  V30 15 1 15 16
M  V30 16 2 15 17
M  V30 17 1 17 2
M  V30 18 1 13 8
M  V30 19 1 1 18
M  V30 20 1 1 19
M  V30 21 1 5 20
M  V30 22 1 9 21
M  V30 23 1 10 22
M  V30 24 1 11 23
M  V30 25 1 13 24
M  V30 26 1 16 25
M  V30 27 1 16 26
M  V30 END BOND
M  V30 END CTAB
M  END
