
     RDKit          3D

  0  0  0  0  0  0  0  0  0  0999 V3000
M  V30 BEGIN CTAB
M  V30 COUNTS 45 47 0 0 0
M  V30 BEGIN ATOM
M  V30 1 N -4.28675 3.96738 -0.34287 0
M  V30 2 C -3.63198 2.70452 -0.258732 0
M  V30 3 C -2.70449 2.46921 0.759886 0
M  V30 4 C -2.10514 1.24998 0.801174 0
M  V30 5 C -2.37466 0.22008 -0.129671 0
M  V30 6 C -3.27498 0.467257 -1.10945 0
M  V30 7 C -3.90055 1.71607 -1.16544 0
M  V30 8 N -1.64022 -0.984027 0.032979 0
M  V30 9 C -2.17315 -2.29974 0.0836899 0
M  V30 10 C -1.74164 -3.1145 1.1514 0
M  V30 11 C -2.14818 -4.42517 1.26673 0
M  V30 12 C -3.00026 -4.9533 0.313497 0
M  V30 13 C -3.43927 -4.19168 -0.735114 0
M  V30 14 C -3.00151 -2.86023 -0.81821 0
M  V30 15 C -0.193041 -0.843123 0.022274 0
M  V30 16 S 0.744008 -2.20425 0.140866 0
M  V30 17 N 0.459907 0.374643 -0.157928 0
M  V30 18 C 1.90019 0.506951 -0.121419 0
M  V30 19 C 2.73096 -0.130843 0.729474 0
M  V30 20 C 4.10376 0.0304802 0.661823 0
M  V30 21 C 4.68456 0.842084 -0.266428 0
M  V30 22 C 3.84258 1.50281 -1.14423 0
M  V30 23 C 2.47926 1.3468 -1.08299 0
M  V30 24 S 6.42153 1.02539 -0.326914 0
M  V30 25 O 6.81955 1.38598 -1.72991 0
M  V30 26 O 7.13534 -0.216757 0.0520214 0
M  V30 27 N 6.85886 2.33781 0.69238 0
M  V30 28 H -4.42769 4.47612 -1.24115 0
M  V30 29 H -4.66719 4.45669 0.516495 0
M  V30 30 H -2.53757 3.27526 1.43369 0
M  V30 31 H -1.37501 1.0634 1.60249 0
M  V30 32 H -3.53558 -0.261168 -1.89477 0
M  V30 33 H -4.61562 1.87497 -1.96382 0
M  V30 34 H -1.10001 -2.66871 1.88923 0
M  V30 35 H -1.81453 -5.05036 2.08803 0
M  V30 36 H -3.35373 -5.98487 0.356247 0
M  V30 37 H -4.11274 -4.59715 -1.49417 0
M  V30 38 H -3.3602 -2.32376 -1.66644 0
M  V30 39 H -0.0164109 1.2961 -0.361059 0
M  V30 40 H 2.34367 -0.772666 1.5121 0
M  V30 41 H 4.74293 -0.490205 1.35138 0
M  V30 42 H 4.27044 2.156 -1.8942 0
M  V30 43 H 1.85667 1.89029 -1.79847 0
M  V30 44 H 7.0196 3.19895 0.145036 0
M  V30 45 H 6.11827 2.5373 1.41016 0
M  V30 END ATOM
M  V30 BEGIN BOND
M  V30 1 1 1 2
M  V30 2 2 2 3
M  V30 3 1 3 4
M  V30 4 2 4 5
M  V30 5 1 5 6
M  V30 6 2 6 7
M  V30 7 1 5 8
M  V30 8 1 8 9
M  V30 9 2 9 10
M  V30 10 1 10 11
M  V30 11 2 11 12
M  V30 12 1 12 13
M  V30 13 2 13 14
M  V30 14 1 8 15
M  V30 15 2 15 16
M  V30 16 1 15 17
M  V30 17 1 17 18
M  V30 18 2 18 19
M  V30 19 1 19 20
M  V30 20 2 20 21
M  V30 21 1 21 22
M  V30 22 2 22 23
M  V30 23 1 21 24
M  V30 24 2 24 25
M  V30 25 2 24 26
M  V30 26 1 24 27
M  V30 27 1 7 2
M  V30 28 1 14 9
M  V30 29 1 23 18
M  V30 30 1 1 28
M  V30 31 1 1 29
M  V30 32 1 3 30
M  V30 33 1 4 31
M  V30 34 1 6 32
M  V30 35 1 7 33
M  V30 36 1 10 34
M  V30 37 1 11 35
M  V30 38 1 12 36
M  V30 39 1 13 37
M  V30 40 1 14 38
M  V30 41 1 17 39
M  V30 42 1 19 40
M  V30 43 1 20 41
M  V30 44 1 22 42
M  V30 45 1 23 43
M  V30 46 1 27 44
M  V30 47 1 27 45
M  V30 END BOND
M  V30 END CTAB
M  END
