
     RDKit          3D

  0  0  0  0  0  0  0  0  0  0999 V3000
M  V30 BEGIN CTAB
M  V30 COUNTS 21 21 0 0 0
M  V30 BEGIN ATOM
M  V30 1 C -2.52235 -0.541534 -0.685532 0
M  V30 2 C -1.65362 -0.588685 0.537973 0
M  V30 3 N -0.288578 -0.243831 0.295777 0
M  V30 4 C 0.609587 -1.19007 -0.035734 0
M  V30 5 N 0.200839 -2.41744 -0.1282 0
M  V30 6 N 1.91667 -0.868617 -0.268897 0
M  V30 7 C 2.33885 0.396851 -0.173719 0
M  V30 8 N 3.70723 0.740534 -0.416759 0
M  V30 9 N 1.45381 1.33704 0.154084 0
M  V30 10 C 0.153083 1.01539 0.385856 0
M  V30 11 N -0.73624 2.04874 0.728192 0
M  V30 12 H -3.46753 -1.09355 -0.425782 0
M  V30 13 H -2.09704 -1.04248 -1.55521 0
M  V30 14 H -2.86746 0.499745 -0.916725 0
M  V30 15 H -2.1422 0.08005 1.30415 0
M  V30 16 H -1.75206 -1.61719 0.965244 0
M  V30 17 H 0.886783 -3.1641 -0.384904 0
M  V30 18 H 4.48099 0.0522448 -0.403263 0
M  V30 19 H 3.96257 1.7304 -0.620398 0
M  V30 20 H -1.49794 2.27148 0.0199739 0
M  V30 21 H -0.685409 2.59502 1.62387 0
M  V30 END ATOM
M  V30 BEGIN BOND
M  V30 1 1 1 2
M  V30 2 1 2 3
M  V30 3 1 3 4
M  V30 4 2 4 5 CFG=2
M  V30 5 1 4 6
M  V30 6 2 6 7
M  V30 7 1 7 8
M  V30 8 1 7 9
M  V30 9 2 9 10
M  V30 10 1 10 11
M  V30 11 1 10 3
M  V30 12 1 1 12
M  V30 13 1 1 13
M  V30 14 1 1 14
M  V30 15 1 2 15
M  V30 16 1 2 16
M  V30 17 1 5 17
M  V30 18 1 8 18
M  V30 19 1 8 19
M  V30 20 1 11 20
M  V30 21 1 11 21
M  V30 END BOND
M  V30 END CTAB
M  END
