
     RDKit          3D

  0  0  0  0  0  0  0  0  0  0999 V3000
M  V30 BEGIN CTAB
M  V30 COUNTS 51 54 0 0 0
M  V30 BEGIN ATOM
M  V30 1 N 4.57424 -0.73815 0.165245 0
M  V30 2 C 3.44826 0.00905693 -0.360072 0
M  V30 3 C 3.86639 1.08533 -1.31219 0
M  V30 4 C 3.0558 2.32397 -1.03149 0
M  V30 5 C 1.58091 2.02826 -0.815624 0
M  V30 6 C 1.3218 1.03964 0.286865 0
M  V30 7 C 2.73011 0.647878 0.79873 0
M  V30 8 O 0.681818 -0.0459756 -0.206401 0
M  V30 9 C -0.491852 -0.447007 0.469351 0
M  V30 10 C -0.027336 -0.709794 1.84901 0
M  V30 11 C -0.0479806 -1.87549 2.42306 0
M  V30 12 C -0.550001 -3.03739 1.70651 0
M  V30 13 C -0.98662 -2.92235 0.466725 0
M  V30 14 C -1.55251 -3.87956 -0.527113 0
M  V30 15 C -2.64592 -3.06326 -1.17487 0
M  V30 16 C -2.38593 -1.59694 -0.779935 0
M  V30 17 C -0.961974 -1.63782 -0.259105 0
M  V30 18 C -1.51377 0.632846 0.467299 0
M  V30 19 C -2.46301 0.711296 1.46393 0
M  V30 20 C -3.42038 1.70538 1.44703 0
M  V30 21 C -3.40741 2.61608 0.414936 0
M  V30 22 C -2.44787 2.50281 -0.554578 0
M  V30 23 N -2.47669 3.46521 -1.59672 0
M  V30 24 N -1.53168 1.52742 -0.511522 0
M  V30 25 H 4.88424 -1.4747 -0.499085 0
M  V30 26 H 4.25049 -1.23323 1.037 0
M  V30 27 H 2.76884 -0.712504 -0.864631 0
M  V30 28 H 4.93354 1.36565 -1.2003 0
M  V30 29 H 3.65639 0.747901 -2.34542 0
M  V30 30 H 3.48559 2.98184 -0.262933 0
M  V30 31 H 3.08776 2.9229 -1.98268 0
M  V30 32 H 1.20766 1.66893 -1.81311 0
M  V30 33 H 1.10682 3.01727 -0.631245 0
M  V30 34 H 0.844694 1.55408 1.13329 0
M  V30 35 H 2.64377 -0.0665563 1.63853 0
M  V30 36 H 3.22556 1.5583 1.16074 0
M  V30 37 H 0.371356 0.102474 2.47434 0
M  V30 38 H 0.312572 -2.02008 3.46625 0
M  V30 39 H -0.585236 -4.02204 2.15088 0
M  V30 40 H -1.92126 -4.80696 -0.0581055 0
M  V30 41 H -0.744572 -4.06845 -1.26492 0
M  V30 42 H -2.65526 -3.19293 -2.2739 0
M  V30 43 H -3.59373 -3.35785 -0.70782 0
M  V30 44 H -2.36878 -1.03131 -1.73229 0
M  V30 45 H -3.12722 -1.28058 -0.0533297 0
M  V30 46 H -0.286284 -1.84549 -1.15842 0
M  V30 47 H -2.51156 0.0188945 2.29277 0
M  V30 48 H -4.18667 1.81086 2.20451 0
M  V30 49 H -4.16815 3.4088 0.398396 0
M  V30 50 H -1.72319 4.16973 -1.65656 0
M  V30 51 H -3.25577 3.4436 -2.28103 0
M  V30 END ATOM
M  V30 BEGIN BOND
M  V30 1 1 1 2
M  V30 2 1 2 3
M  V30 3 1 3 4
M  V30 4 1 4 5
M  V30 5 1 5 6
M  V30 6 1 6 7
M  V30 7 1 6 8
M  V30 8 1 8 9
M  V30 9 1 9 10
M  V30 10 2 10 11
M  V30 11 1 11 12
M  V30 12 2 12 13
M  V30 13 1 13 14
M  V30 14 1 14 15
M  V30 15 1 15 16
M  V30 16 1 16 17
M  V30 17 1 9 18
M  V30 18 2 18 19
M  V30 19 1 19 20
M  V30 20 2 20 21
M  V30 21 1 21 22
M  V30 22 1 22 23
M  V30 23 2 22 24
M  V30 24 1 7 2
M  V30 25 1 17 9
M  V30 26 1 24 18
M  V30 27 1 17 13
M  V30 28 1 1 25
M  V30 29 1 1 26
M  V30 30 1 2 27
M  V30 31 1 3 28
M  V30 32 1 3 29
M  V30 33 1 4 30
M  V30 34 1 4 31
M  V30 35 1 5 32
M  V30 36 1 5 33
M  V30 37 1 6 34
M  V30 38 1 7 35
M  V30 39 1 7 36
M  V30 40 1 10 37
M  V30 41 1 11 38
M  V30 42 1 12 39
M  V30 43 1 14 40
M  V30 44 1 14 41
M  V30 45 1 15 42
M  V30 46 1 15 43
M  V30 47 1 16 44
M  V30 48 1 16 45
M  V30 49 1 17 46
M  V30 50 1 19 47
M  V30 51 1 20 48
M  V30 52 1 21 49
M  V30 53 1 23 50
M  V30 54 1 23 51
M  V30 END BOND
M  V30 END CTAB
M  END
