
     RDKit          3D

  0  0  0  0  0  0  0  0  0  0999 V3000
M  V30 BEGIN CTAB
M  V30 COUNTS 60 63 0 0 0
M  V30 BEGIN ATOM
M  V30 1 O 0.861845 1.72498 0.425639 0
M  V30 2 C 1.33222 0.844846 1.15372 0
M  V30 3 N 0.620761 -0.324594 1.47512 0
M  V30 4 C -0.702842 -0.597041 1.09187 0
M  V30 5 C -1.61553 0.470882 1.11182 0
M  V30 6 C -2.95852 0.244296 0.946985 0
M  V30 7 C -3.40525 -1.04075 0.758434 0
M  V30 8 C -2.504 -2.07082 0.735533 0
M  V30 9 C -1.13011 -1.90643 0.89773 0
M  V30 10 N -0.245959 -3.01467 0.777802 0
M  V30 11 C -0.748641 -4.39171 0.777056 0
M  V30 12 C 0.420132 -5.27965 0.514764 0
M  V30 13 C 1.33053 -4.3323 -0.280533 0
M  V30 14 C 1.18912 -3.08142 0.589861 0
M  V30 15 S -4.0988 1.59361 0.998345 0
M  V30 16 O -3.52213 2.63483 1.88292 0
M  V30 17 O -5.41393 1.15501 1.59002 0
M  V30 18 N -4.28501 2.20051 -0.579673 0
M  V30 19 C -4.81876 1.23769 -1.5177 0
M  V30 20 C -6.28853 1.01891 -1.33532 0
M  V30 21 O -6.93318 2.01797 -0.676273 0
M  V30 22 C -6.49069 3.29785 -0.880299 0
M  V30 23 C -5.03219 3.4452 -0.61447 0
M  V30 24 C 2.72562 1.03066 1.72913 0
M  V30 25 S 3.49846 2.46728 1.0128 0
M  V30 26 C 4.98757 2.06476 0.0728913 0
M  V30 27 N 5.43623 0.788759 0.0502071 0
M  V30 28 C 6.60927 0.435015 -0.571518 0
M  V30 29 N 7.04787 -0.915679 -0.509363 0
M  V30 30 C 7.33443 1.43679 -1.1926 0
M  V30 31 C 6.87594 2.72652 -1.17204 0
M  V30 32 N 5.69707 3.01968 -0.531338 0
M  V30 33 N 7.61158 3.76074 -1.79546 0
M  V30 34 H 1.09375 -1.06199 2.07438 0
M  V30 35 H -1.29773 1.5046 1.26794 0
M  V30 36 H -4.44707 -1.26576 0.626844 0
M  V30 37 H -2.84739 -3.11705 0.59369 0
M  V30 38 H -1.29781 -4.6132 1.70901 0
M  V30 39 H -1.45546 -4.41346 -0.105405 0
M  V30 40 H 0.142323 -6.17027 -0.0467427 0
M  V30 41 H 0.881858 -5.53405 1.50543 0
M  V30 42 H 2.35624 -4.68366 -0.359594 0
M  V30 43 H 0.819199 -4.15967 -1.24879 0
M  V30 44 H 1.61214 -2.21909 0.037332 0
M  V30 45 H 1.73455 -3.30989 1.52359 0
M  V30 46 H -4.29719 0.277855 -1.37892 0
M  V30 47 H -4.54302 1.58774 -2.5492 0
M  V30 48 H -6.70282 0.854357 -2.36889 0
M  V30 49 H -6.49161 0.0504361 -0.79404 0
M  V30 50 H -6.78192 3.71881 -1.87029 0
M  V30 51 H -7.0306 3.92884 -0.10877 0
M  V30 52 H -4.50171 4.05651 -1.40934 0
M  V30 53 H -4.81243 3.99603 0.322372 0
M  V30 54 H 3.32543 0.104686 1.4376 0
M  V30 55 H 2.72969 1.08522 2.81292 0
M  V30 56 H 6.8228 -1.57119 -1.27532 0
M  V30 57 H 7.6108 -1.23256 0.338768 0
M  V30 58 H 8.26926 1.16797 -1.68363 0
M  V30 59 H 7.11878 4.36031 -2.51995 0
M  V30 60 H 8.60536 3.99676 -1.62529 0
M  V30 END ATOM
M  V30 BEGIN BOND
M  V30 1 2 1 2
M  V30 2 1 2 3
M  V30 3 1 3 4
M  V30 4 2 4 5
M  V30 5 1 5 6
M  V30 6 2 6 7
M  V30 7 1 7 8
M  V30 8 2 8 9
M  V30 9 1 9 10
M  V30 10 1 10 11
M  V30 11 1 11 12
M  V30 12 1 12 13
M  V30 13 1 13 14
M  V30 14 1 6 15
M  V30 15 2 15 16
M  V30 16 2 15 17
M  V30 17 1 15 18
M  V30 18 1 18 19
M  V30 19 1 19 20
M  V30 20 1 20 21
M  V30 21 1 21 22
M  V30 22 1 22 23
M  V30 23 1 2 24
M  V30 24 1 24 25
M  V30 25 1 25 26
M  V30 26 2 26 27
M  V30 27 1 27 28
M  V30 28 1 28 29
M  V30 29 2 28 30
M  V30 30 1 30 31
M  V30 31 2 31 32
M  V30 32 1 31 33
M  V30 33 1 9 4
M  V30 34 1 14 10
M  V30 35 1 23 18
M  V30 36 1 32 26
M  V30 37 1 3 34
M  V30 38 1 5 35
M  V30 39 1 7 36
M  V30 40 1 8 37
M  V30 41 1 11 38
M  V30 42 1 11 39
M  V30 43 1 12 40
M  V30 44 1 12 41
M  V30 45 1 13 42
M  V30 46 1 13 43
M  V30 47 1 14 44
M  V30 48 1 14 45
M  V30 49 1 19 46
M  V30 50 1 19 47
M  V30 51 1 20 48
M  V30 52 1 20 49
M  V30 53 1 22 50
M  V30 54 1 22 51
M  V30 55 1 23 52
M  V30 56 1 23 53
M  V30 57 1 24 54
M  V30 58 1 24 55
M  V30 59 1 29 56
M  V30 60 1 29 57
M  V30 61 1 30 58
M  V30 62 1 33 59
M  V30 63 1 33 60
M  V30 END BOND
M  V30 END CTAB
M  END
