
     RDKit          3D

  0  0  0  0  0  0  0  0  0  0999 V3000
M  V30 BEGIN CTAB
M  V30 COUNTS 21 20 0 0 0
M  V30 BEGIN ATOM
M  V30 1 O 4.17763 -0.0593185 1.0658 0
M  V30 2 C 2.9481 0.420313 0.573803 0
M  V30 3 O 2.6268 1.57118 0.884636 0
M  V30 4 C 2.17993 -0.514676 -0.262915 0
M  V30 5 C 0.866922 -0.0210934 -0.741366 0
M  V30 6 C -0.109965 0.303468 0.343543 0
M  V30 7 N -1.36873 0.762628 -0.214858 0
M  V30 8 C -2.50424 0.255063 0.0918937 0
M  V30 9 N -2.64074 -0.809025 1.01069 0
M  V30 10 N -3.6644 0.782861 -0.516207 0
M  V30 11 H 4.79844 -0.596841 0.471278 0
M  V30 12 H 2.06874 -1.47054 0.319797 0
M  V30 13 H 2.87052 -0.764179 -1.12576 0
M  V30 14 H 0.401245 -0.817941 -1.38396 0
M  V30 15 H 0.989562 0.9117 -1.35281 0
M  V30 16 H 0.277625 1.15906 0.92294 0
M  V30 17 H -0.313865 -0.587974 0.994165 0
M  V30 18 H -2.82389 -0.698744 2.03109 0
M  V30 19 H -2.55713 -1.80918 0.680018 0
M  V30 20 H -3.92838 1.77158 -0.355078 0
M  V30 21 H -4.29415 0.211657 -1.14126 0
M  V30 END ATOM
M  V30 BEGIN BOND
M  V30 1 1 1 2
M  V30 2 2 2 3
M  V30 3 1 2 4
M  V30 4 1 4 5
M  V30 5 1 5 6
M  V30 6 1 6 7
M  V30 7 2 7 8 CFG=2
M  V30 8 1 8 9
M  V30 9 1 8 10
M  V30 10 1 1 11
M  V30 11 1 4 12
M  V30 12 1 4 13
M  V30 13 1 5 14
M  V30 14 1 5 15
M  V30 15 1 6 16
M  V30 16 1 6 17
M  V30 17 1 9 18
M  V30 18 1 9 19
M  V30 19 1 10 20
M  V30 20 1 10 21
M  V30 END BOND
M  V30 END CTAB
M  END
