
     RDKit          3D

  0  0  0  0  0  0  0  0  0  0999 V3000
M  V30 BEGIN CTAB
M  V30 COUNTS 25 27 0 0 0
M  V30 BEGIN ATOM
M  V30 1 N -2.70291 2.95646 0.193991 0
M  V30 2 C -1.95385 1.71992 0.185455 0
M  V30 3 N -0.638224 1.70101 -0.0359645 0
M  V30 4 C 0.058789 0.535128 -0.0424204 0
M  V30 5 C -0.555868 -0.657659 0.177163 0
M  V30 6 C 0.0780335 -1.98079 0.223819 0
M  V30 7 C 1.5017 -1.9622 -0.154746 0
M  V30 8 C 2.15541 -0.653593 -0.341239 0
M  V30 9 C 1.53326 0.546825 -0.322512 0
M  V30 10 C 2.29704 1.64626 -0.531453 0
M  V30 11 C 3.63207 1.4644 -0.743499 0
M  V30 12 S 3.81615 -0.217357 -0.652547 0
M  V30 13 C -1.94826 -0.6371 0.410922 0
M  V30 14 N -2.59738 -1.86899 0.638898 0
M  V30 15 N -2.56012 0.54489 0.400987 0
M  V30 16 H -2.51332 3.70901 0.867424 0
M  V30 17 H -3.47 3.11841 -0.497492 0
M  V30 18 H 0.00400115 -2.41651 1.27715 0
M  V30 19 H -0.470842 -2.71357 -0.455961 0
M  V30 20 H 2.13477 -2.61296 0.515624 0
M  V30 21 H 1.58623 -2.46892 -1.16764 0
M  V30 22 H 1.89346 2.6862 -0.539404 0
M  V30 23 H 4.38392 2.26308 -0.928241 0
M  V30 24 H -3.26942 -2.32212 -0.0116325 0
M  V30 25 H -2.39465 -2.37982 1.53331 0
M  V30 END ATOM
M  V30 BEGIN BOND
M  V30 1 1 1 2
M  V30 2 2 2 3
M  V30 3 1 3 4
M  V30 4 2 4 5
M  V30 5 1 5 6
M  V30 6 1 6 7
M  V30 7 1 7 8
M  V30 8 2 8 9
M  V30 9 1 9 10
M  V30 10 2 10 11
M  V30 11 1 11 12
M  V30 12 1 5 13
M  V30 13 1 13 14
M  V30 14 2 13 15
M  V30 15 1 15 2
M  V30 16 1 9 4
M  V30 17 1 12 8
M  V30 18 1 1 16
M  V30 19 1 1 17
M  V30 20 1 6 18
M  V30 21 1 6 19
M  V30 22 1 7 20
M  V30 23 1 7 21
M  V30 24 1 10 22
M  V30 25 1 11 23
M  V30 26 1 14 24
M  V30 27 1 14 25
M  V30 END BOND
M  V30 END CTAB
M  END
