
     RDKit          3D

  0  0  0  0  0  0  0  0  0  0999 V3000
M  V30 BEGIN CTAB
M  V30 COUNTS 53 56 0 0 0
M  V30 BEGIN ATOM
M  V30 1 N 8.02715 2.16345 -0.031934 0
M  V30 2 C 6.65322 2.51513 -0.141663 0
M  V30 3 N 6.38825 3.75739 -0.235571 0
M  V30 4 C 5.6341 1.46727 -0.140019 0
M  V30 5 C 6.03755 0.128635 -0.034178 0
M  V30 6 C 5.09896 -0.873696 -0.0280928 0
M  V30 7 C 3.76399 -0.539914 -0.127205 0
M  V30 8 N 2.62177 -1.27688 -0.147785 0
M  V30 9 C 1.53858 -0.485841 -0.258962 0
M  V30 10 N 1.9962 0.753745 -0.309063 0
M  V30 11 C 3.34891 0.768122 -0.231854 0
M  V30 12 C 4.29877 1.77098 -0.237376 0
M  V30 13 C 0.172053 -1.02769 -0.301397 0
M  V30 14 C -0.0497446 -2.39544 -0.234181 0
M  V30 15 C -1.272 -2.97914 -0.260254 0
M  V30 16 C -1.4069 -4.44727 -0.184101 0
M  V30 17 C -1.5067 -4.93154 1.21114 0
M  V30 18 O -1.64192 -6.2898 1.43295 0
M  V30 19 O -1.47006 -4.13574 2.1664 0
M  V30 20 C -2.36503 -2.14579 -0.360772 0
M  V30 21 C -2.23943 -0.775037 -0.433226 0
M  V30 22 C -0.939209 -0.222656 -0.401606 0
M  V30 23 O -0.896574 1.13551 -0.477462 0
M  V30 24 C -3.39071 0.111304 -0.495095 0
M  V30 25 C -3.52847 1.14381 0.439923 0
M  V30 26 C -4.60893 1.98202 0.455024 0
M  V30 27 C -5.58446 1.7976 -0.480134 0
M  V30 28 C -5.50903 0.807282 -1.42184 0
M  V30 29 C -4.39365 -0.0329129 -1.41343 0
M  V30 30 O -4.35687 -1.00958 -2.38234 0
M  V30 31 S -4.78179 3.27827 1.62759 0
M  V30 32 N -4.06458 4.721 0.985868 0
M  V30 33 O -4.06206 2.92154 2.89435 0
M  V30 34 O -6.22874 3.52737 1.86837 0
M  V30 35 H 8.56513 2.29299 0.843988 0
M  V30 36 H 8.50595 1.76332 -0.859871 0
M  V30 37 H 5.42522 4.10762 -0.319122 0
M  V30 38 H 7.10137 -0.0536348 0.0399428 0
M  V30 39 H 5.41141 -1.90198 0.053715 0
M  V30 40 H 2.68164 -2.32784 -0.0799355 0
M  V30 41 H 3.92551 2.80291 -0.322852 0
M  V30 42 H 0.81062 -3.04136 -0.155571 0
M  V30 43 H -2.35017 -4.70709 -0.748923 0
M  V30 44 H -0.593423 -4.94064 -0.730593 0
M  V30 45 H -0.857952 -6.82303 1.79177 0
M  V30 46 H -3.35361 -2.61859 -0.375193 0
M  V30 47 H -0.217419 1.8154 -0.483467 0
M  V30 48 H -2.75129 1.27797 1.17216 0
M  V30 49 H -6.45171 2.46818 -0.468752 0
M  V30 50 H -6.27924 0.658909 -2.16241 0
M  V30 51 H -3.63086 -1.64637 -2.51594 0
M  V30 52 H -4.03063 4.70515 -0.0460469 0
M  V30 53 H -3.1932 4.9866 1.45981 0
M  V30 END ATOM
M  V30 BEGIN BOND
M  V30 1 1 1 2
M  V30 2 2 2 3 CFG=2
M  V30 3 1 2 4
M  V30 4 2 4 5
M  V30 5 1 5 6
M  V30 6 2 6 7
M  V30 7 1 7 8
M  V30 8 1 8 9
M  V30 9 2 9 10
M  V30 10 1 10 11
M  V30 11 2 11 12
M  V30 12 1 9 13
M  V30 13 2 13 14
M  V30 14 1 14 15
M  V30 15 1 15 16
M  V30 16 1 16 17
M  V30 17 1 17 18
M  V30 18 2 17 19
M  V30 19 2 15 20
M  V30 20 1 20 21
M  V30 21 2 21 22
M  V30 22 1 22 23
M  V30 23 1 21 24
M  V30 24 2 24 25
M  V30 25 1 25 26
M  V30 26 2 26 27
M  V30 27 1 27 28
M  V30 28 2 28 29
M  V30 29 1 29 30
M  V30 30 1 26 31
M  V30 31 1 31 32
M  V30 32 2 31 33
M  V30 33 2 31 34
M  V30 34 1 12 4
M  V30 35 1 22 13
M  V30 36 1 29 24
M  V30 37 1 11 7
M  V30 38 1 1 35
M  V30 39 1 1 36
M  V30 40 1 3 37
M  V30 41 1 5 38
M  V30 42 1 6 39
M  V30 43 1 8 40
M  V30 44 1 12 41
M  V30 45 1 14 42
M  V30 46 1 16 43
M  V30 47 1 16 44
M  V30 48 1 18 45
M  V30 49 1 20 46
M  V30 50 1 23 47
M  V30 51 1 25 48
M  V30 52 1 27 49
M  V30 53 1 28 50
M  V30 54 1 30 51
M  V30 55 1 32 52
M  V30 56 1 32 53
M  V30 END BOND
M  V30 END CTAB
M  END
