
     RDKit          3D

  0  0  0  0  0  0  0  0  0  0999 V3000
M  V30 BEGIN CTAB
M  V30 COUNTS 26 27 0 0 0
M  V30 BEGIN ATOM
M  V30 1 N -2.71535 0.1934 -0.836178 0
M  V30 2 C -1.91463 0.0459831 0.344325 0 CFG=1
M  V30 3 C -1.3772 -1.36626 0.444642 0
M  V30 4 C -0.407338 -1.63783 -0.692304 0
M  V30 5 C 0.732904 -0.709576 -0.518017 0
M  V30 6 C 0.500378 0.545545 -0.00573 0
M  V30 7 C 1.59506 1.37662 0.13882 0
M  V30 8 C 2.86961 0.979332 -0.210559 0
M  V30 9 C 3.10484 -0.277263 -0.723833 0
M  V30 10 C 2.02253 -1.11733 -0.873722 0
M  V30 11 C -0.83094 1.0625 0.397939 0 CFG=2
M  V30 12 N -0.699781 1.53164 1.7666 0
M  V30 13 H -3.28095 1.01586 -0.773734 0
M  V30 14 H -2.27246 0.00641029 -1.71139 0
M  V30 15 H -2.59433 0.192153 1.20912 0
M  V30 16 H -0.822378 -1.44401 1.39295 0
M  V30 17 H -2.22543 -2.07064 0.448349 0
M  V30 18 H -0.895701 -1.49763 -1.66156 0
M  V30 19 H -0.085812 -2.69664 -0.572697 0
M  V30 20 H 1.44198 2.3736 0.540836 0
M  V30 21 H 3.71615 1.63586 -0.0935125 0
M  V30 22 H 4.09727 -0.618698 -1.00805 0
M  V30 23 H 2.18394 -2.11582 -1.27758 0
M  V30 24 H -1.11127 1.95043 -0.21536 0
M  V30 25 H -1.31919 1.03364 2.42467 0
M  V30 26 H 0.288095 1.60871 2.06596 0
M  V30 END ATOM
M  V30 BEGIN BOND
M  V30 1 1 1 2
M  V30 2 1 2 3
M  V30 3 1 3 4
M  V30 4 1 4 5
M  V30 5 2 5 6
M  V30 6 1 6 7
M  V30 7 2 7 8
M  V30 8 1 8 9
M  V30 9 2 9 10
M  V30 10 1 6 11
M  V30 11 1 11 12
M  V30 12 1 11 2
M  V30 13 1 10 5
M  V30 14 1 1 13
M  V30 15 1 1 14
M  V30 16 1 2 15 CFG=1
M  V30 17 1 3 16
M  V30 18 1 3 17
M  V30 19 1 4 18
M  V30 20 1 4 19
M  V30 21 1 7 20
M  V30 22 1 8 21
M  V30 23 1 9 22
M  V30 24 1 10 23
M  V30 25 1 11 24 CFG=3
M  V30 26 1 12 25
M  V30 27 1 12 26
M  V30 END BOND
M  V30 END CTAB
M  END
