
     RDKit          3D

  0  0  0  0  0  0  0  0  0  0999 V3000
M  V30 BEGIN CTAB
M  V30 COUNTS 23 23 0 0 0
M  V30 BEGIN ATOM
M  V30 1 N -1.34081 -2.63834 1.10835 0
M  V30 2 C -0.774056 -1.80871 0.50055 0
M  V30 3 C -0.114466 -0.791894 -0.257345 0
M  V30 4 N -0.905882 -0.19975 -1.13391 0
M  V30 5 N -2.22767 -0.514898 -1.31269 0
M  V30 6 C -3.13823 0.309735 -0.922674 0
M  V30 7 N -4.50941 -0.0132231 -1.10618 0
M  V30 8 N -2.79942 1.54443 -0.308416 0
M  V30 9 C 1.26702 -0.3901 -0.141849 0
M  V30 10 C 1.73992 0.619995 -0.962206 0
M  V30 11 C 3.05384 1.04588 -0.895453 0
M  V30 12 C 3.93781 0.475273 -0.00586322 0
M  V30 13 C 3.47933 -0.529642 0.814728 0
M  V30 14 C 2.14717 -0.950912 0.73668 0
M  V30 15 Cl 1.66396 -2.23211 1.82037 0
M  V30 16 Cl 4.56425 -1.28913 1.96485 0
M  V30 17 H -4.84332 -1.0007 -1.03433 0
M  V30 18 H -5.21606 0.721269 -1.31626 0
M  V30 19 H -3.2254 1.75067 0.617852 0
M  V30 20 H -2.14751 2.19455 -0.793166 0
M  V30 21 H 1.03202 1.05994 -1.65785 0
M  V30 22 H 3.38406 1.84432 -1.56006 0
M  V30 23 H 4.97285 0.793368 0.0638692 0
M  V30 END ATOM
M  V30 BEGIN BOND
M  V30 1 3 1 2
M  V30 2 1 2 3
M  V30 3 2 3 4
M  V30 4 1 4 5
M  V30 5 2 5 6
M  V30 6 1 6 7
M  V30 7 1 6 8
M  V30 8 1 3 9
M  V30 9 2 9 10
M  V30 10 1 10 11
M  V30 11 2 11 12
M  V30 12 1 12 13
M  V30 13 2 13 14
M  V30 14 1 14 15
M  V30 15 1 13 16
M  V30 16 1 14 9
M  V30 17 1 7 17
M  V30 18 1 7 18
M  V30 19 1 8 19
M  V30 20 1 8 20
M  V30 21 1 10 21
M  V30 22 1 11 22
M  V30 23 1 12 23
M  V30 END BOND
M  V30 END CTAB
M  END
