
     RDKit          3D

  0  0  0  0  0  0  0  0  0  0999 V3000
M  V30 BEGIN CTAB
M  V30 COUNTS 23 24 0 0 0
M  V30 BEGIN ATOM
M  V30 1 C 2.12263 2.17841 0.55698 0
M  V30 2 C 1.20717 1.02193 0.276759 0
M  V30 3 N -0.131583 1.05631 0.161294 0
M  V30 4 C -0.567952 -0.191193 -0.0910013 0
M  V30 5 N 0.457439 -1.04987 -0.144507 0
M  V30 6 C 1.55964 -0.299401 0.0833653 0
M  V30 7 N 2.91944 -0.759604 0.128161 0
M  V30 8 N 0.463879 -2.42381 -0.378234 0
M  V30 9 C -2.00899 -0.569509 -0.286098 0
M  V30 10 C -2.89634 0.518349 -0.906934 0
M  V30 11 C -3.00228 0.180031 0.551703 0
M  V30 12 H 3.15739 1.9004 0.334539 0
M  V30 13 H 1.9643 2.53325 1.573 0
M  V30 14 H 1.86294 3.0203 -0.139728 0
M  V30 15 H 3.44357 -0.818296 1.04299 0
M  V30 16 H 3.37878 -1.03459 -0.760555 0
M  V30 17 H 1.15266 -2.84976 -1.02663 0
M  V30 18 H -0.241638 -3.00574 0.116699 0
M  V30 19 H -2.24633 -1.62137 -0.486798 0
M  V30 20 H -3.64839 0.164498 -1.61873 0
M  V30 21 H -2.39079 1.49344 -1.12572 0
M  V30 22 H -3.9539 -0.343425 0.847785 0
M  V30 23 H -2.60165 0.899646 1.29165 0
M  V30 END ATOM
M  V30 BEGIN BOND
M  V30 1 1 1 2
M  V30 2 1 2 3
M  V30 3 2 3 4
M  V30 4 1 4 5
M  V30 5 1 5 6
M  V30 6 1 6 7
M  V30 7 1 5 8
M  V30 8 1 4 9
M  V30 9 1 9 10
M  V30 10 1 10 11
M  V30 11 2 6 2
M  V30 12 1 11 9
M  V30 13 1 1 12
M  V30 14 1 1 13
M  V30 15 1 1 14
M  V30 16 1 7 15
M  V30 17 1 7 16
M  V30 18 1 8 17
M  V30 19 1 8 18
M  V30 20 1 9 19
M  V30 21 1 10 20
M  V30 22 1 10 21
M  V30 23 1 11 22
M  V30 24 1 11 23
M  V30 END BOND
M  V30 END CTAB
M  END
