
     RDKit          3D

  0  0  0  0  0  0  0  0  0  0999 V3000
M  V30 BEGIN CTAB
M  V30 COUNTS 18 18 0 0 0
M  V30 BEGIN ATOM
M  V30 1 F 4.10005 -0.241221 -1.47868 0
M  V30 2 C 3.5651 -0.0644587 -0.239477 0
M  V30 3 C 2.07472 -0.349022 -0.258286 0
M  V30 4 C 1.57917 -1.55767 -0.683491 0
M  V30 5 S -0.104232 -1.32388 -0.495928 0
M  V30 6 C -0.0823223 0.27006 0.102209 0
M  V30 7 N 1.20325 0.544233 0.129221 0
M  V30 8 N -1.10742 1.17705 0.503966 0
M  V30 9 C -2.31747 0.800157 0.433895 0
M  V30 10 N -2.63814 -0.486187 -0.0308181 0
M  V30 11 N -3.33659 1.69007 0.828872 0
M  V30 12 F 4.10274 -1.01132 0.626807 0
M  V30 13 H 3.78531 0.947008 0.127956 0
M  V30 14 H 2.15158 -2.43205 -1.0462 0
M  V30 15 H -2.91907 -0.711817 -1.01308 0
M  V30 16 H -2.61145 -1.33059 0.615046 0
M  V30 17 H -3.73274 2.32513 0.080167 0
M  V30 18 H -3.71249 1.75451 1.79783 0
M  V30 END ATOM
M  V30 BEGIN BOND
M  V30 1 1 1 2
M  V30 2 1 2 3
M  V30 3 2 3 4
M  V30 4 1 4 5
M  V30 5 1 5 6
M  V30 6 2 6 7
M  V30 7 1 6 8
M  V30 8 2 8 9 CFG=2
M  V30 9 1 9 10
M  V30 10 1 9 11
M  V30 11 1 2 12
M  V30 12 1 7 3
M  V30 13 1 2 13
M  V30 14 1 4 14
M  V30 15 1 10 15
M  V30 16 1 10 16
M  V30 17 1 11 17
M  V30 18 1 11 18
M  V30 END BOND
M  V30 END CTAB
M  END
