
     RDKit          3D

  0  0  0  0  0  0  0  0  0  0999 V3000
M  V30 BEGIN CTAB
M  V30 COUNTS 25 27 0 0 0
M  V30 BEGIN ATOM
M  V30 1 N 3.47087 1.49295 -0.39805 0
M  V30 2 C 3.78782 0.0955491 -0.365215 0
M  V30 3 N 4.99994 -0.488927 -0.396535 0
M  V30 4 O 4.81971 -1.77557 -0.346609 0
M  V30 5 N 3.5619 -2.07318 -0.284316 0
M  V30 6 C 2.88333 -0.931136 -0.293635 0
M  V30 7 C 1.41347 -0.795773 -0.236759 0
M  V30 8 N 0.753712 0.358127 -0.247255 0
M  V30 9 C -0.617159 0.151473 -0.183248 0
M  V30 10 N -0.706729 -1.16324 -0.136173 0
M  V30 11 N 0.505934 -1.74828 -0.1675 0
M  V30 12 C -1.88855 -1.97643 -0.0597795 0
M  V30 13 C -1.53388 1.26079 -0.181418 0
M  V30 14 N -1.10912 2.57946 -0.242331 0
M  V30 15 O -2.11714 3.36536 -0.226361 0
M  V30 16 N -3.22542 2.72522 -0.159405 0
M  V30 17 C -2.87067 1.37575 -0.129794 0
M  V30 18 N -3.87132 0.386179 -0.0560352 0
M  V30 19 H 3.82648 2.11115 0.342584 0
M  V30 20 H 2.87921 1.86172 -1.18042 0
M  V30 21 H -2.43945 -1.8768 -1.01119 0
M  V30 22 H -1.5673 -3.07806 -0.0315179 0
M  V30 23 H -2.46189 -1.88574 0.862823 0
M  V30 24 H -4.2638 -0.00702224 -0.928421 0
M  V30 25 H -4.22995 0.0364505 0.848091 0
M  V30 END ATOM
M  V30 BEGIN BOND
M  V30 1 1 1 2
M  V30 2 2 2 3
M  V30 3 1 3 4
M  V30 4 1 4 5
M  V30 5 2 5 6
M  V30 6 1 6 7
M  V30 7 1 7 8
M  V30 8 2 8 9
M  V30 9 1 9 10
M  V30 10 1 10 11
M  V30 11 1 10 12
M  V30 12 1 9 13
M  V30 13 2 13 14
M  V30 14 1 14 15
M  V30 15 1 15 16
M  V30 16 2 16 17
M  V30 17 1 17 18
M  V30 18 1 6 2
M  V30 19 2 11 7
M  V30 20 1 17 13
M  V30 21 1 1 19
M  V30 22 1 1 20
M  V30 23 1 12 21
M  V30 24 1 12 22
M  V30 25 1 12 23
M  V30 26 1 18 24
M  V30 27 1 18 25
M  V30 END BOND
M  V30 END CTAB
M  END
