
     RDKit          3D

  0  0  0  0  0  0  0  0  0  0999 V3000
M  V30 BEGIN CTAB
M  V30 COUNTS 44 45 0 0 0
M  V30 BEGIN ATOM
M  V30 1 O 0.959148 1.34664 -0.651922 0
M  V30 2 C 0.757484 0.128082 -0.791652 0
M  V30 3 N -0.42697 -0.338715 -1.48496 0
M  V30 4 C -1.33228 0.666054 -1.98892 0
M  V30 5 C -2.66228 0.401567 -1.38429 0
M  V30 6 C -3.20334 -0.851822 -1.30821 0
M  V30 7 C -4.44016 -1.09373 -0.745347 0
M  V30 8 C -5.16769 -0.0321849 -0.235768 0
M  V30 9 C -4.64614 1.24248 -0.299247 0
M  V30 10 C -3.4048 1.44743 -0.869777 0
M  V30 11 S -6.74153 -0.229809 0.496793 0
M  V30 12 O -7.5548 1.03623 0.307527 0
M  V30 13 O -7.51869 -1.35027 -0.109193 0
M  V30 14 N -6.61245 -0.51257 2.18936 0
M  V30 15 C -1.49591 0.562373 -3.49782 0
M  V30 16 N 1.65288 -0.821797 -0.292326 0
M  V30 17 C 2.82739 -0.488724 0.414437 0
M  V30 18 C 3.83409 -1.48022 0.453576 0
M  V30 19 C 5.00156 -1.2686 1.13069 0
M  V30 20 C 5.27941 -0.100755 1.81037 0
M  V30 21 C 4.29589 0.859455 1.76873 0
M  V30 22 C 3.09398 0.664765 1.08284 0
M  V30 23 S 6.78525 0.136823 2.66671 0
M  V30 24 O 6.52578 1.02811 3.84523 0
M  V30 25 O 7.32319 -1.15524 3.17612 0
M  V30 26 N 7.90679 0.837172 1.56574 0
M  V30 27 H -0.563543 -1.35805 -1.5833 0
M  V30 28 H -0.980905 1.69109 -1.76614 0
M  V30 29 H -2.63269 -1.67346 -1.70629 0
M  V30 30 H -4.86732 -2.09291 -0.686717 0
M  V30 31 H -5.19965 2.08302 0.0933339 0
M  V30 32 H -2.99912 2.44839 -0.917743 0
M  V30 33 H -5.62189 -0.607239 2.5022 0
M  V30 34 H -7.17879 -1.33156 2.48995 0
M  V30 35 H -0.510206 0.492257 -3.99976 0
M  V30 36 H -2.18197 -0.248643 -3.78277 0
M  V30 37 H -1.98767 1.51259 -3.82066 0
M  V30 38 H 1.41739 -1.85585 -0.462351 0
M  V30 39 H 3.65757 -2.43155 -0.0754358 0
M  V30 40 H 5.77778 -2.04283 1.15633 0
M  V30 41 H 4.47259 1.79382 2.28996 0
M  V30 42 H 2.36145 1.45252 1.10639 0
M  V30 43 H 7.44241 1.24083 0.72474 0
M  V30 44 H 8.55877 0.0875913 1.18956 0
M  V30 END ATOM
M  V30 BEGIN BOND
M  V30 1 2 1 2
M  V30 2 1 2 3
M  V30 3 1 3 4
M  V30 4 1 4 5
M  V30 5 2 5 6
M  V30 6 1 6 7
M  V30 7 2 7 8
M  V30 8 1 8 9
M  V30 9 2 9 10
M  V30 10 1 8 11
M  V30 11 2 11 12
M  V30 12 2 11 13
M  V30 13 1 11 14
M  V30 14 1 4 15
M  V30 15 1 2 16
M  V30 16 1 16 17
M  V30 17 2 17 18
M  V30 18 1 18 19
M  V30 19 2 19 20
M  V30 20 1 20 21
M  V30 21 2 21 22
M  V30 22 1 20 23
M  V30 23 2 23 24
M  V30 24 2 23 25
M  V30 25 1 23 26
M  V30 26 1 10 5
M  V30 27 1 22 17
M  V30 28 1 3 27
M  V30 29 1 4 28
M  V30 30 1 6 29
M  V30 31 1 7 30
M  V30 32 1 9 31
M  V30 33 1 10 32
M  V30 34 1 14 33
M  V30 35 1 14 34
M  V30 36 1 15 35
M  V30 37 1 15 36
M  V30 38 1 15 37
M  V30 39 1 16 38
M  V30 40 1 18 39
M  V30 41 1 19 40
M  V30 42 1 21 41
M  V30 43 1 22 42
M  V30 44 1 26 43
M  V30 45 1 26 44
M  V30 END BOND
M  V30 END CTAB
M  END
