
     RDKit          3D

  0  0  0  0  0  0  0  0  0  0999 V3000
M  V30 BEGIN CTAB
M  V30 COUNTS 52 55 0 0 0
M  V30 BEGIN ATOM
M  V30 1 N -3.04146 -3.94354 -0.660213 0
M  V30 2 C -3.02669 -2.60231 -0.234762 0
M  V30 3 N -1.80975 -2.06246 0.0604696 0
M  V30 4 C -1.72315 -0.788463 0.472245 0
M  V30 5 C -0.368025 -0.219116 0.790118 0
M  V30 6 S 0.311717 0.523818 -0.742403 0
M  V30 7 C 1.92414 1.20208 -0.380007 0
M  V30 8 N 2.22591 2.43857 0.0464022 0
M  V30 9 N 3.53113 2.54292 0.194922 0
M  V30 10 C 4.13295 1.35923 -0.134993 0
M  V30 11 N 3.13483 0.557616 -0.481974 0
M  V30 12 N 3.198 -0.775174 -0.907148 0
M  V30 13 C 5.5846 1.11958 -0.0846921 0
M  V30 14 C 6.40187 2.16653 0.329865 0
M  V30 15 C 7.75732 1.99461 0.3929 0
M  V30 16 C 8.34578 0.784389 0.0486602 0
M  V30 17 C 7.56938 -0.267483 -0.363928 0
M  V30 18 C 6.18782 -0.059252 -0.417384 0
M  V30 19 O 9.70323 0.692157 0.137984 0
M  V30 20 C 10.5218 -0.389822 -0.144094 0
M  V30 21 F 11.3973 0.00441882 -1.16658 0
M  V30 22 F 11.3648 -0.696451 0.931415 0
M  V30 23 N -2.83749 -0.0717851 0.584831 0
M  V30 24 C -4.0766 -0.574414 0.299015 0
M  V30 25 N -4.11235 -1.83817 -0.104254 0
M  V30 26 N -5.18625 0.282522 0.455155 0
M  V30 27 C -6.52859 0.0415642 0.24159 0
M  V30 28 C -7.03631 -1.15354 -0.181048 0
M  V30 29 C -8.41495 -1.33976 -0.380917 0
M  V30 30 C -9.30237 -0.330948 -0.159876 0
M  V30 31 C -8.82004 0.867965 0.261373 0
M  V30 32 C -7.46476 1.05194 0.458115 0
M  V30 33 C -6.99156 2.38599 0.91994 0
M  V30 34 H -3.47892 -4.68083 -0.093061 0
M  V30 35 H -2.60016 -4.18823 -1.56633 0
M  V30 36 H 0.309457 -0.974706 1.21024 0
M  V30 37 H -0.497022 0.606978 1.52005 0
M  V30 38 H 3.2477 -1.56222 -0.224854 0
M  V30 39 H 3.19547 -0.988873 -1.9256 0
M  V30 40 H 5.93957 3.12538 0.603016 0
M  V30 41 H 8.40745 2.8143 0.718508 0
M  V30 42 H 7.9697 -1.23138 -0.644214 0
M  V30 43 H 5.58936 -0.904517 -0.746892 0
M  V30 44 H 9.97554 -1.27857 -0.484602 0
M  V30 45 H -4.95384 1.28259 0.794252 0
M  V30 46 H -6.44317 -2.00915 -0.384656 0
M  V30 47 H -8.71695 -2.32201 -0.716457 0
M  V30 48 H -10.3549 -0.490644 -0.317924 0
M  V30 49 H -9.53527 1.6646 0.434435 0
M  V30 50 H -6.37198 2.87448 0.137989 0
M  V30 51 H -6.39202 2.30285 1.86559 0
M  V30 52 H -7.8422 3.05673 1.11521 0
M  V30 END ATOM
M  V30 BEGIN BOND
M  V30 1 1 1 2
M  V30 2 2 2 3
M  V30 3 1 3 4
M  V30 4 1 4 5
M  V30 5 1 5 6
M  V30 6 1 6 7
M  V30 7 2 7 8
M  V30 8 1 8 9
M  V30 9 2 9 10
M  V30 10 1 10 11
M  V30 11 1 11 12
M  V30 12 1 10 13
M  V30 13 2 13 14
M  V30 14 1 14 15
M  V30 15 2 15 16
M  V30 16 1 16 17
M  V30 17 2 17 18
M  V30 18 1 16 19
M  V30 19 1 19 20
M  V30 20 1 20 21
M  V30 21 1 20 22
M  V30 22 2 4 23
M  V30 23 1 23 24
M  V30 24 2 24 25
M  V30 25 1 24 26
M  V30 26 1 26 27
M  V30 27 2 27 28
M  V30 28 1 28 29
M  V30 29 2 29 30
M  V30 30 1 30 31
M  V30 31 2 31 32
M  V30 32 1 32 33
M  V30 33 1 25 2
M  V30 34 1 32 27
M  V30 35 1 11 7
M  V30 36 1 18 13
M  V30 37 1 1 34
M  V30 38 1 1 35
M  V30 39 1 5 36
M  V30 40 1 5 37
M  V30 41 1 12 38
M  V30 42 1 12 39
M  V30 43 1 14 40
M  V30 44 1 15 41
M  V30 45 1 17 42
M  V30 46 1 18 43
M  V30 47 1 20 44
M  V30 48 1 26 45
M  V30 49 1 28 46
M  V30 50 1 29 47
M  V30 51 1 30 48
M  V30 52 1 31 49
M  V30 53 1 33 50
M  V30 54 1 33 51
M  V30 55 1 33 52
M  V30 END BOND
M  V30 END CTAB
M  END
