
     RDKit          3D

  0  0  0  0  0  0  0  0  0  0999 V3000
M  V30 BEGIN CTAB
M  V30 COUNTS 40 41 0 0 0
M  V30 BEGIN ATOM
M  V30 1 N -2.06883 3.76242 -0.238474 0
M  V30 2 C -1.0981 2.66084 -0.161769 0
M  V30 3 C -1.79734 1.43185 -0.552045 0
M  V30 4 N -1.03706 0.202028 -0.560205 0
M  V30 5 C -1.93871 -0.8134 -1.00938 0
M  V30 6 C -2.80978 -1.40218 0.0723289 0
M  V30 7 C -2.24852 -2.77133 0.386851 0
M  V30 8 C -0.729757 -2.57279 0.505251 0
M  V30 9 C -0.479162 -1.36532 1.28553 0
M  V30 10 C -0.258412 -0.0747476 0.572196 0 CFG=1
M  V30 11 C 1.22529 0.0848054 0.332827 0
M  V30 12 C 1.8358 -0.425237 -0.793466 0
M  V30 13 C 3.18516 -0.302838 -1.0495 0
M  V30 14 C 3.96722 0.360008 -0.139735 0
M  V30 15 C 3.40153 0.877986 0.984713 0
M  V30 16 C 2.052 0.744809 1.22123 0
M  V30 17 N 5.36221 0.50016 -0.378595 0
M  V30 18 H -3.0136 3.38714 -0.0214206 0
M  V30 19 H -2.00018 4.28795 -1.11249 0
M  V30 20 H -0.259751 2.95619 -0.816365 0
M  V30 21 H -0.825293 2.63105 0.910419 0
M  V30 22 H -2.7373 1.33719 0.0316373 0
M  V30 23 H -2.15343 1.56389 -1.61829 0
M  V30 24 H -1.4505 -1.59366 -1.63345 0
M  V30 25 H -2.66597 -0.344381 -1.74201 0
M  V30 26 H -2.88971 -0.733415 0.932865 0
M  V30 27 H -3.85275 -1.57856 -0.278821 0
M  V30 28 H -2.6486 -3.19229 1.30957 0
M  V30 29 H -2.4208 -3.41298 -0.478852 0
M  V30 30 H -0.217958 -2.69223 -0.448711 0
M  V30 31 H -0.401399 -3.46572 1.12268 0
M  V30 32 H -1.29203 -1.28034 2.06061 0
M  V30 33 H 0.44387 -1.53714 1.92112 0
M  V30 34 H -0.497417 0.707972 1.33078 0
M  V30 35 H 1.27621 -0.95743 -1.54702 0
M  V30 36 H 3.6594 -0.708695 -1.94106 0
M  V30 37 H 4.00779 1.41468 1.73115 0
M  V30 38 H 1.62717 1.17702 2.14403 0
M  V30 39 H 5.65428 1.04741 -1.20798 0
M  V30 40 H 6.09443 0.0892915 0.224481 0
M  V30 END ATOM
M  V30 BEGIN BOND
M  V30 1 1 1 2
M  V30 2 1 2 3
M  V30 3 1 3 4
M  V30 4 1 4 5
M  V30 5 1 5 6
M  V30 6 1 6 7
M  V30 7 1 7 8
M  V30 8 1 8 9
M  V30 9 1 9 10
M  V30 10 1 10 11
M  V30 11 2 11 12
M  V30 12 1 12 13
M  V30 13 2 13 14
M  V30 14 1 14 15
M  V30 15 2 15 16
M  V30 16 1 14 17
M  V30 17 1 10 4
M  V30 18 1 16 11
M  V30 19 1 1 18
M  V30 20 1 1 19
M  V30 21 1 2 20
M  V30 22 1 2 21
M  V30 23 1 3 22
M  V30 24 1 3 23
M  V30 25 1 5 24
M  V30 26 1 5 25
M  V30 27 1 6 26
M  V30 28 1 6 27
M  V30 29 1 7 28
M  V30 30 1 7 29
M  V30 31 1 8 30
M  V30 32 1 8 31
M  V30 33 1 9 32
M  V30 34 1 9 33
M  V30 35 1 10 34 CFG=1
M  V30 36 1 12 35
M  V30 37 1 13 36
M  V30 38 1 15 37
M  V30 39 1 16 38
M  V30 40 1 17 39
M  V30 41 1 17 40
M  V30 END BOND
M  V30 END CTAB
M  END
