
     RDKit          3D

  0  0  0  0  0  0  0  0  0  0999 V3000
M  V30 BEGIN CTAB
M  V30 COUNTS 26 25 0 0 0
M  V30 BEGIN ATOM
M  V30 1 N 2.5716 1.72544 0.296374 0
M  V30 2 N 1.40527 1.17061 -0.167103 0
M  V30 3 C 0.99386 -0.0298188 0.0522323 0
M  V30 4 C -0.286327 -0.435077 -0.534194 0
M  V30 5 N -1.35447 0.0738187 0.23895 0
M  V30 6 C -1.54603 -0.358774 1.5564 0
M  V30 7 C -1.57128 1.49947 0.0550147 0
M  V30 8 C -0.273553 -1.95367 -0.615965 0
M  V30 9 C -0.354317 0.0353873 -1.98983 0
M  V30 10 N 1.78352 -0.884403 0.830836 0
M  V30 11 H 3.12286 2.38225 -0.291589 0
M  V30 12 H 2.934 1.50675 1.24237 0
M  V30 13 H -1.92302 0.54593 2.13848 0
M  V30 14 H -0.673034 -0.685734 2.1281 0
M  V30 15 H -2.40973 -1.07413 1.67384 0
M  V30 16 H -1.21834 1.9033 -0.886133 0
M  V30 17 H -2.65102 1.68107 0.219886 0
M  V30 18 H -1.04772 1.99915 0.927822 0
M  V30 19 H 0.641777 -2.21801 -1.19573 0
M  V30 20 H -0.129922 -2.41311 0.384987 0
M  V30 21 H -1.11994 -2.36768 -1.18264 0
M  V30 22 H 0.454164 0.753383 -2.22416 0
M  V30 23 H -1.36616 0.399147 -2.21239 0
M  V30 24 H -0.178544 -0.820629 -2.70502 0
M  V30 25 H 1.56568 -1.03399 1.83483 0
M  V30 26 H 2.63068 -1.40067 0.424633 0
M  V30 END ATOM
M  V30 BEGIN BOND
M  V30 1 1 1 2
M  V30 2 2 2 3 CFG=2
M  V30 3 1 3 4
M  V30 4 1 4 5
M  V30 5 1 5 6
M  V30 6 1 5 7
M  V30 7 1 4 8
M  V30 8 1 4 9
M  V30 9 1 3 10
M  V30 10 1 1 11
M  V30 11 1 1 12
M  V30 12 1 6 13
M  V30 13 1 6 14
M  V30 14 1 6 15
M  V30 15 1 7 16
M  V30 16 1 7 17
M  V30 17 1 7 18
M  V30 18 1 8 19
M  V30 19 1 8 20
M  V30 20 1 8 21
M  V30 21 1 9 22
M  V30 22 1 9 23
M  V30 23 1 9 24
M  V30 24 1 10 25
M  V30 25 1 10 26
M  V30 END BOND
M  V30 END CTAB
M  END
