
     RDKit          3D

  0  0  0  0  0  0  0  0  0  0999 V3000
M  V30 BEGIN CTAB
M  V30 COUNTS 26 26 0 0 0
M  V30 BEGIN ATOM
M  V30 1 N 3.26434 0.137846 0.100512 0
M  V30 2 C 2.33478 -0.57341 -0.717105 0
M  V30 3 C 0.893281 -0.241546 -0.44166 0 CFG=2
M  V30 4 O 0.589536 1.08299 -0.636755 0
M  V30 5 C -0.775638 1.17908 -0.916636 0
M  V30 6 O -1.2564 2.4264 -0.51432 0
M  V30 7 C -1.58983 0.101791 -0.288691 0 CFG=2
M  V30 8 N -2.92613 0.642687 -0.0436491 0
M  V30 9 C -1.05169 -0.409147 1.0106 0 CFG=1
M  V30 10 O -1.67847 -1.62591 1.29398 0
M  V30 11 C 0.461362 -0.631763 0.944981 0 CFG=2
M  V30 12 O 1.05219 0.176779 1.91048 0
M  V30 13 H 4.19221 0.140248 -0.403969 0
M  V30 14 H 3.44255 -0.438518 0.975906 0
M  V30 15 H 2.52307 -0.298621 -1.7879 0
M  V30 16 H 2.4908 -1.66364 -0.658947 0
M  V30 17 H 0.282849 -0.832534 -1.16564 0
M  V30 18 H -0.902805 1.1249 -2.02628 0
M  V30 19 H -1.11333 3.09941 -1.22942 0
M  V30 20 H -1.75335 -0.778048 -0.973251 0
M  V30 21 H -3.3197 0.833798 -1.01187 0
M  V30 22 H -3.54073 -0.118149 0.344863 0
M  V30 23 H -1.31537 0.282223 1.84637 0
M  V30 24 H -1.38309 -2.30826 0.656145 0
M  V30 25 H 0.690539 -1.68026 1.13057 0
M  V30 26 H 0.389046 0.371651 2.60169 0
M  V30 END ATOM
M  V30 BEGIN BOND
M  V30 1 1 1 2
M  V30 2 1 2 3
M  V30 3 1 3 4
M  V30 4 1 4 5
M  V30 5 1 5 6
M  V30 6 1 5 7
M  V30 7 1 7 8
M  V30 8 1 7 9
M  V30 9 1 9 10
M  V30 10 1 9 11
M  V30 11 1 11 12
M  V30 12 1 11 3
M  V30 13 1 1 13
M  V30 14 1 1 14
M  V30 15 1 2 15
M  V30 16 1 2 16
M  V30 17 1 3 17 CFG=3
M  V30 18 1 5 18
M  V30 19 1 6 19
M  V30 20 1 7 20 CFG=3
M  V30 21 1 8 21
M  V30 22 1 8 22
M  V30 23 1 9 23 CFG=1
M  V30 24 1 10 24
M  V30 25 1 11 25 CFG=1
M  V30 26 1 12 26
M  V30 END BOND
M  V30 END CTAB
M  END
