
     RDKit          3D

  0  0  0  0  0  0  0  0  0  0999 V3000
M  V30 BEGIN CTAB
M  V30 COUNTS 23 23 0 0 0
M  V30 BEGIN ATOM
M  V30 1 N -2.43967 3.92821 -1.17188 0
M  V30 2 C -2.03753 2.86174 -0.934743 0
M  V30 3 C -1.55583 1.52882 -0.620856 0
M  V30 4 C -2.42454 0.49888 -0.337163 0
M  V30 5 C -1.96924 -0.741328 -0.025595 0
M  V30 6 C -2.90595 -1.88387 0.248107 0
M  V30 7 C -0.613768 -1.0122 0.0227395 0
M  V30 8 C 0.303697 -0.00608115 -0.25572 0
M  V30 9 C -0.213606 1.27274 -0.579675 0
M  V30 10 N 1.62015 -0.235694 -0.154571 0
M  V30 11 C 2.73233 -0.161758 0.198136 0
M  V30 12 N 3.81674 -0.978643 -0.330358 0
M  V30 13 N 3.1631 0.858452 1.15977 0
M  V30 14 H -3.51161 0.68208 -0.366909 0
M  V30 15 H -2.64137 -2.7216 -0.46626 0
M  V30 16 H -3.94546 -1.58104 -0.0255812 0
M  V30 17 H -2.80063 -2.30242 1.23591 0
M  V30 18 H -0.232735 -1.9859 0.264805 0
M  V30 19 H 0.510799 2.07434 -0.797715 0
M  V30 20 H 3.88427 -1.26005 -1.31878 0
M  V30 21 H 4.54938 -1.27687 0.347312 0
M  V30 22 H 4.06997 1.33552 0.887079 0
M  V30 23 H 2.6415 1.10667 2.01378 0
M  V30 END ATOM
M  V30 BEGIN BOND
M  V30 1 3 1 2
M  V30 2 1 2 3
M  V30 3 2 3 4
M  V30 4 1 4 5
M  V30 5 1 5 6
M  V30 6 2 5 7
M  V30 7 1 7 8
M  V30 8 2 8 9
M  V30 9 1 8 10
M  V30 10 2 10 11 CFG=2
M  V30 11 1 11 12
M  V30 12 1 11 13
M  V30 13 1 9 3
M  V30 14 1 4 14
M  V30 15 1 6 15
M  V30 16 1 6 16
M  V30 17 1 6 17
M  V30 18 1 7 18
M  V30 19 1 9 19
M  V30 20 1 12 20
M  V30 21 1 12 21
M  V30 22 1 13 22
M  V30 23 1 13 23
M  V30 END BOND
M  V30 END CTAB
M  END
