
     RDKit          3D

  0  0  0  0  0  0  0  0  0  0999 V3000
M  V30 BEGIN CTAB
M  V30 COUNTS 22 22 0 0 0
M  V30 BEGIN ATOM
M  V30 1 C -3.94993 0.0415563 -0.0632675 0
M  V30 2 O -2.55755 0.220486 0.134227 0
M  V30 3 C -1.61127 -0.552856 -0.544372 0
M  V30 4 O -2.06383 -1.41114 -1.33524 0
M  V30 5 C -0.181935 -0.376679 -0.348482 0
M  V30 6 C 0.682052 -1.18027 -1.05662 0
M  V30 7 C 2.04421 -1.02144 -0.87817 0
M  V30 8 C 2.59342 -0.0887791 -0.0173312 0
M  V30 9 C 1.71555 0.711595 0.68754 0
M  V30 10 C 0.335286 0.559698 0.514932 0
M  V30 11 N -0.550378 1.40144 1.25715 0
M  V30 12 F 2.23448 1.63062 1.53525 0
M  V30 13 N 3.99481 0.0584706 0.151568 0
M  V30 14 H -4.18255 -0.0904616 -1.1434 0
M  V30 15 H -4.26398 -0.850388 0.492436 0
M  V30 16 H -4.50432 0.906977 0.294178 0
M  V30 17 H 0.295385 -1.92705 -1.74458 0
M  V30 18 H 2.74182 -1.64105 -1.42339 0
M  V30 19 H -0.937295 2.29471 0.852548 0
M  V30 20 H -0.799512 1.09389 2.22083 0
M  V30 21 H 4.56449 0.281361 -0.683251 0
M  V30 22 H 4.40102 -0.0606882 1.09744 0
M  V30 END ATOM
M  V30 BEGIN BOND
M  V30 1 1 1 2
M  V30 2 1 2 3
M  V30 3 2 3 4
M  V30 4 1 3 5
M  V30 5 2 5 6
M  V30 6 1 6 7
M  V30 7 2 7 8
M  V30 8 1 8 9
M  V30 9 2 9 10
M  V30 10 1 10 11
M  V30 11 1 9 12
M  V30 12 1 8 13
M  V30 13 1 10 5
M  V30 14 1 1 14
M  V30 15 1 1 15
M  V30 16 1 1 16
M  V30 17 1 6 17
M  V30 18 1 7 18
M  V30 19 1 11 19
M  V30 20 1 11 20
M  V30 21 1 13 21
M  V30 22 1 13 22
M  V30 END BOND
M  V30 END CTAB
M  END
