
     RDKit          3D

  0  0  0  0  0  0  0  0  0  0999 V3000
M  V30 BEGIN CTAB
M  V30 COUNTS 68 71 0 0 0
M  V30 BEGIN ATOM
M  V30 1 N -11.8049 1.77111 -2.18279 0
M  V30 2 C -10.6124 1.9842 -1.47748 0
M  V30 3 N -9.77166 2.90814 -1.83504 0
M  V30 4 N -10.2607 1.20275 -0.337813 0
M  V30 5 C -10.5039 -0.224888 -0.280928 0
M  V30 6 C -10.0123 -0.752839 1.04622 0
M  V30 7 N -8.62014 -0.537324 1.27061 0
M  V30 8 C -7.5797 -1.03631 0.47015 0
M  V30 9 O -7.86523 -1.73505 -0.531868 0
M  V30 10 C -6.17532 -0.777095 0.751964 0
M  V30 11 C -5.74167 -0.0427827 1.83334 0
M  V30 12 C -4.36495 -0.0253146 1.74102 0
M  V30 13 C -3.95521 -0.732337 0.627827 0
M  V30 14 N -5.10912 -1.18021 0.0455593 0
M  V30 15 C -2.633 -0.875675 0.294064 0
M  V30 16 C -1.61553 -0.299287 1.08339 0
M  V30 17 N -0.268303 -0.455468 0.673383 0
M  V30 18 C 0.819723 -0.328083 1.52989 0
M  V30 19 O 0.737353 -0.0698447 2.77338 0
M  V30 20 C 2.17072 -0.492911 1.01782 0
M  V30 21 C 3.32459 -0.428485 1.74201 0
M  V30 22 C 4.3608 -0.634998 0.850024 0
M  V30 23 C 3.83158 -0.82294 -0.407 0
M  V30 24 N 2.49608 -0.727691 -0.2543 0
M  V30 25 C 4.66663 -1.05039 -1.48733 0
M  V30 26 C 6.04739 -1.09253 -1.32055 0
M  V30 27 C 6.54363 -0.90244 -0.05981 0
M  V30 28 C 5.70241 -0.672479 1.0324 0
M  V30 29 C 7.97339 -0.939022 0.177039 0
M  V30 30 O 8.40049 -0.697496 1.34946 0
M  V30 31 N 8.9028 -1.22931 -0.83012 0
M  V30 32 C 10.3029 -1.25708 -0.587628 0
M  V30 33 C 10.8382 0.0685469 -0.149892 0
M  V30 34 N 10.6536 1.10091 -1.12475 0
M  V30 35 C 9.4322 1.69686 -1.51481 0
M  V30 36 N 8.80093 2.6288 -0.655688 0
M  V30 37 N 8.89811 1.41422 -2.64356 0
M  V30 38 C -2.03435 0.400202 2.18415 0
M  V30 39 C -3.39074 0.537579 2.5124 0
M  V30 40 H -12.6412 1.3302 -1.74341 0
M  V30 41 H -11.8827 2.05307 -3.17849 0
M  V30 42 H -10.0057 3.49019 -2.66203 0
M  V30 43 H -9.81465 1.6581 0.486631 0
M  V30 44 H -11.6133 -0.33625 -0.36312 0
M  V30 45 H -9.98821 -0.708597 -1.13316 0
M  V30 46 H -10.5908 -0.376625 1.89231 0
M  V30 47 H -10.2033 -1.86118 1.01432 0
M  V30 48 H -8.32177 0.0486268 2.10926 0
M  V30 49 H -6.35599 0.433351 2.61231 0
M  V30 50 H -5.09316 -1.74836 -0.82102 0
M  V30 51 H -2.30454 -1.426 -0.573115 0
M  V30 52 H -0.0631533 -0.683843 -0.352102 0
M  V30 53 H 3.42149 -0.248445 2.82247 0
M  V30 54 H 1.82722 -0.833441 -1.07244 0
M  V30 55 H 4.27018 -1.19757 -2.47053 0
M  V30 56 H 6.64357 -1.27178 -2.1992 0
M  V30 57 H 6.11332 -0.521706 2.03673 0
M  V30 58 H 8.54602 -1.44577 -1.80555 0
M  V30 59 H 10.866 -1.55611 -1.53093 0
M  V30 60 H 10.5731 -2.06867 0.149008 0
M  V30 61 H 10.4338 0.405954 0.84268 0
M  V30 62 H 11.9619 -0.101063 -0.0151814 0
M  V30 63 H 11.5569 1.4481 -1.60374 0
M  V30 64 H 9.25839 2.98284 0.22235 0
M  V30 65 H 7.84419 3.01605 -0.847566 0
M  V30 66 H 7.99885 1.83935 -2.95511 0
M  V30 67 H -1.32566 0.888042 2.83681 0
M  V30 68 H -3.69506 1.09848 3.39282 0
M  V30 END ATOM
M  V30 BEGIN BOND
M  V30 1 1 1 2
M  V30 2 2 2 3 CFG=2
M  V30 3 1 2 4
M  V30 4 1 4 5
M  V30 5 1 5 6
M  V30 6 1 6 7
M  V30 7 1 7 8
M  V30 8 2 8 9
M  V30 9 1 8 10
M  V30 10 2 10 11
M  V30 11 1 11 12
M  V30 12 2 12 13
M  V30 13 1 13 14
M  V30 14 1 13 15
M  V30 15 2 15 16
M  V30 16 1 16 17
M  V30 17 1 17 18
M  V30 18 2 18 19
M  V30 19 1 18 20
M  V30 20 2 20 21
M  V30 21 1 21 22
M  V30 22 2 22 23
M  V30 23 1 23 24
M  V30 24 1 23 25
M  V30 25 2 25 26
M  V30 26 1 26 27
M  V30 27 2 27 28
M  V30 28 1 27 29
M  V30 29 2 29 30
M  V30 30 1 29 31
M  V30 31 1 31 32
M  V30 32 1 32 33
M  V30 33 1 33 34
M  V30 34 1 34 35
M  V30 35 1 35 36
M  V30 36 2 35 37 CFG=2
M  V30 37 1 16 38
M  V30 38 2 38 39
M  V30 39 1 14 10
M  V30 40 1 24 20
M  V30 41 1 39 12
M  V30 42 1 28 22
M  V30 43 1 1 40
M  V30 44 1 1 41
M  V30 45 1 3 42
M  V30 46 1 4 43
M  V30 47 1 5 44
M  V30 48 1 5 45
M  V30 49 1 6 46
M  V30 50 1 6 47
M  V30 51 1 7 48
M  V30 52 1 11 49
M  V30 53 1 14 50
M  V30 54 1 15 51
M  V30 55 1 17 52
M  V30 56 1 21 53
M  V30 57 1 24 54
M  V30 58 1 25 55
M  V30 59 1 26 56
M  V30 60 1 28 57
M  V30 61 1 31 58
M  V30 62 1 32 59
M  V30 63 1 32 60
M  V30 64 1 33 61
M  V30 65 1 33 62
M  V30 66 1 34 63
M  V30 67 1 36 64
M  V30 68 1 36 65
M  V30 69 1 37 66
M  V30 70 1 38 67
M  V30 71 1 39 68
M  V30 END BOND
M  V30 END CTAB
M  END
