
     RDKit          3D

  0  0  0  0  0  0  0  0  0  0999 V3000
M  V30 BEGIN CTAB
M  V30 COUNTS 24 25 0 0 0
M  V30 BEGIN ATOM
M  V30 1 N 2.48977 -1.52557 0.357136 0
M  V30 2 C 1.36245 -0.680817 0.607741 0
M  V30 3 C 1.40071 0.544978 -0.293767 0
M  V30 4 N 1.70532 1.71501 0.490661 0
M  V30 5 C -0.0408649 0.3177 -0.614823 0
M  V30 6 C 0.0680672 -1.06339 -0.0415609 0
M  V30 7 O -0.960475 -1.21905 0.885476 0
M  V30 8 C -2.19887 -0.976279 0.271035 0
M  V30 9 C -2.39785 0.477794 -0.0490816 0
M  V30 10 C -1.03478 1.15643 0.148472 0
M  V30 11 H 2.27028 -2.42514 -0.101785 0
M  V30 12 H 3.27581 -1.00913 -0.107792 0
M  V30 13 H 1.27795 -0.445568 1.687 0
M  V30 14 H 2.02444 0.390096 -1.19738 0
M  V30 15 H 1.25391 2.58487 0.141957 0
M  V30 16 H 2.75653 1.78466 0.527837 0
M  V30 17 H -0.313114 0.298407 -1.68787 0
M  V30 18 H 0.104533 -1.83989 -0.816867 0
M  V30 19 H -2.22102 -1.62722 -0.63387 0
M  V30 20 H -3.00107 -1.33705 0.942634 0
M  V30 21 H -3.18746 0.966129 0.519261 0
M  V30 22 H -2.67439 0.557759 -1.12884 0
M  V30 23 H -0.844608 1.20029 1.227 0
M  V30 24 H -1.11525 2.15498 -0.294636 0
M  V30 END ATOM
M  V30 BEGIN BOND
M  V30 1 1 1 2
M  V30 2 1 2 3
M  V30 3 1 3 4
M  V30 4 1 3 5
M  V30 5 1 5 6
M  V30 6 1 6 7
M  V30 7 1 7 8
M  V30 8 1 8 9
M  V30 9 1 9 10
M  V30 10 1 6 2
M  V30 11 1 10 5
M  V30 12 1 1 11
M  V30 13 1 1 12
M  V30 14 1 2 13
M  V30 15 1 3 14
M  V30 16 1 4 15
M  V30 17 1 4 16
M  V30 18 1 5 17
M  V30 19 1 6 18
M  V30 20 1 8 19
M  V30 21 1 8 20
M  V30 22 1 9 21
M  V30 23 1 9 22
M  V30 24 1 10 23
M  V30 25 1 10 24
M  V30 END BOND
M  V30 END CTAB
M  END
