
     RDKit          3D

  0  0  0  0  0  0  0  0  0  0999 V3000
M  V30 BEGIN CTAB
M  V30 COUNTS 39 40 0 0 0
M  V30 BEGIN ATOM
M  V30 1 C 6.28021 -0.187928 0.796961 0
M  V30 2 O 5.23208 0.175601 1.65768 0
M  V30 3 C 3.93006 0.255927 1.13193 0
M  V30 4 C 2.85816 0.607637 1.92597 0
M  V30 5 C 1.56946 0.691233 1.42319 0
M  V30 6 C 1.33506 0.419198 0.0977364 0
M  V30 7 C 2.38473 0.0640909 -0.725768 0
M  V30 8 C 3.66975 -0.0126421 -0.195961 0
M  V30 9 C -0.0464537 0.494739 -0.501768 0
M  V30 10 N 0.100513 1.19615 -1.74663 0
M  V30 11 C -0.543191 -0.897736 -0.61875 0
M  V30 12 C -1.91002 -1.05669 -1.19514 0
M  V30 13 N -2.07573 -0.553268 -2.51617 0
M  V30 14 C -2.97719 -0.50423 -0.321358 0
M  V30 15 C -3.66728 -1.32991 0.572153 0
M  V30 16 C -4.66186 -0.846937 1.395 0
M  V30 17 C -5.01436 0.483277 1.36454 0
M  V30 18 C -4.34794 1.31488 0.492143 0
M  V30 19 C -3.35186 0.823405 -0.329788 0
M  V30 20 H 6.16311 -1.25716 0.547437 0
M  V30 21 H 6.27326 0.377466 -0.143614 0
M  V30 22 H 7.25647 0.0141892 1.3099 0
M  V30 23 H 3.02293 0.822967 2.96123 0
M  V30 24 H 0.71508 0.964921 2.02755 0
M  V30 25 H 2.23928 -0.15862 -1.77986 0
M  V30 26 H 4.46954 -0.292611 -0.863794 0
M  V30 27 H -0.640885 1.12698 0.185723 0
M  V30 28 H 0.384364 0.584341 -2.54338 0
M  V30 29 H 0.72197 2.01135 -1.59841 0
M  V30 30 H 0.180889 -1.4876 -1.21667 0
M  V30 31 H -0.547995 -1.34818 0.395728 0
M  V30 32 H -2.09731 -2.1714 -1.24921 0
M  V30 33 H -2.34479 -1.27608 -3.22439 0
M  V30 34 H -2.78793 0.210432 -2.60108 0
M  V30 35 H -3.35922 -2.37562 0.566308 0
M  V30 36 H -5.14312 -1.56364 2.05729 0
M  V30 37 H -5.80105 0.835672 2.02362 0
M  V30 38 H -4.62709 2.35036 0.473001 0
M  V30 39 H -2.84165 1.49542 -1.00776 0
M  V30 END ATOM
M  V30 BEGIN BOND
M  V30 1 1 1 2
M  V30 2 1 2 3
M  V30 3 2 3 4
M  V30 4 1 4 5
M  V30 5 2 5 6
M  V30 6 1 6 7
M  V30 7 2 7 8
M  V30 8 1 6 9
M  V30 9 1 9 10
M  V30 10 1 9 11
M  V30 11 1 11 12
M  V30 12 1 12 13
M  V30 13 1 12 14
M  V30 14 2 14 15
M  V30 15 1 15 16
M  V30 16 2 16 17
M  V30 17 1 17 18
M  V30 18 2 18 19
M  V30 19 1 8 3
M  V30 20 1 19 14
M  V30 21 1 1 20
M  V30 22 1 1 21
M  V30 23 1 1 22
M  V30 24 1 4 23
M  V30 25 1 5 24
M  V30 26 1 7 25
M  V30 27 1 8 26
M  V30 28 1 9 27
M  V30 29 1 10 28
M  V30 30 1 10 29
M  V30 31 1 11 30
M  V30 32 1 11 31
M  V30 33 1 12 32
M  V30 34 1 13 33
M  V30 35 1 13 34
M  V30 36 1 15 35
M  V30 37 1 16 36
M  V30 38 1 17 37
M  V30 39 1 18 38
M  V30 40 1 19 39
M  V30 END BOND
M  V30 END CTAB
M  END
