
     RDKit          3D

  0  0  0  0  0  0  0  0  0  0999 V3000
M  V30 BEGIN CTAB
M  V30 COUNTS 34 35 0 0 0
M  V30 BEGIN ATOM
M  V30 1 N -5.92712 -1.10908 1.05062 0
M  V30 2 C -4.80053 -0.538598 0.421487 0
M  V30 3 N -3.98592 -1.28007 -0.346873 0
M  V30 4 C -2.90185 -0.726437 -0.95118 0
M  V30 5 C -2.03752 -1.61223 -1.79418 0
M  V30 6 S -0.731015 -2.35978 -0.785316 0
M  V30 7 C 0.382479 -1.0385 -0.222654 0
M  V30 8 C 1.45869 -1.6488 0.608538 0
M  V30 9 O 2.41227 -0.829594 1.13948 0
M  V30 10 C 3.36334 -0.012076 0.613181 0
M  V30 11 C 3.60831 0.177211 -0.713762 0
M  V30 12 C 4.59602 1.02674 -1.13681 0
M  V30 13 C 5.35364 1.69936 -0.205715 0
M  V30 14 C 5.14332 1.53984 1.15055 0
M  V30 15 C 4.15382 0.688636 1.53493 0
M  V30 16 F 3.93156 0.518464 2.87575 0
M  V30 17 N -2.66282 0.576996 -0.763678 0
M  V30 18 C -3.4482 1.34904 -0.00730129 0
M  V30 19 N -4.51325 0.754111 0.572501 0
M  V30 20 N -3.21149 2.73625 0.203708 0
M  V30 21 H -6.61085 -1.6139 0.446546 0
M  V30 22 H -6.12227 -1.0615 2.06787 0
M  V30 23 H -2.63059 -2.44768 -2.23599 0
M  V30 24 H -1.60722 -1.01702 -2.64743 0
M  V30 25 H -0.209052 -0.369167 0.460669 0
M  V30 26 H 0.753524 -0.516493 -1.08823 0
M  V30 27 H 0.918194 -2.13801 1.48394 0
M  V30 28 H 1.88789 -2.5476 0.0755861 0
M  V30 29 H 3.01595 -0.366697 -1.44448 0
M  V30 30 H 4.78989 1.17687 -2.21218 0
M  V30 31 H 6.13013 2.36606 -0.574371 0
M  V30 32 H 5.77266 2.09698 1.84419 0
M  V30 33 H -2.33216 3.21124 -0.0830248 0
M  V30 34 H -3.93984 3.31546 0.663621 0
M  V30 END ATOM
M  V30 BEGIN BOND
M  V30 1 1 1 2
M  V30 2 2 2 3
M  V30 3 1 3 4
M  V30 4 1 4 5
M  V30 5 1 5 6
M  V30 6 1 6 7
M  V30 7 1 7 8
M  V30 8 1 8 9
M  V30 9 1 9 10
M  V30 10 2 10 11
M  V30 11 1 11 12
M  V30 12 2 12 13
M  V30 13 1 13 14
M  V30 14 2 14 15
M  V30 15 1 15 16
M  V30 16 2 4 17
M  V30 17 1 17 18
M  V30 18 2 18 19
M  V30 19 1 18 20
M  V30 20 1 19 2
M  V30 21 1 15 10
M  V30 22 1 1 21
M  V30 23 1 1 22
M  V30 24 1 5 23
M  V30 25 1 5 24
M  V30 26 1 7 25
M  V30 27 1 7 26
M  V30 28 1 8 27
M  V30 29 1 8 28
M  V30 30 1 11 29
M  V30 31 1 12 30
M  V30 32 1 13 31
M  V30 33 1 14 32
M  V30 34 1 20 33
M  V30 35 1 20 34
M  V30 END BOND
M  V30 END CTAB
M  END
