
     RDKit          3D

  0  0  0  0  0  0  0  0  0  0999 V3000
M  V30 BEGIN CTAB
M  V30 COUNTS 37 39 0 0 0
M  V30 BEGIN ATOM
M  V30 1 N -4.65306 3.09464 0.147702 0
M  V30 2 N -3.27134 2.83188 0.156128 0
M  V30 3 C -2.74187 1.51596 0.07183 0
M  V30 4 O -3.551 0.556881 -0.0114122 0
M  V30 5 C -1.29313 1.30149 0.0843476 0
M  V30 6 C -0.61683 0.11499 0.0181586 0
M  V30 7 C 0.71833 0.456892 0.0538443 0
M  V30 8 C 1.84006 -0.363501 0.02391 0
M  V30 9 C 3.09376 0.214527 0.0854978 0
M  V30 10 C 3.20467 1.58195 0.174618 0
M  V30 11 C 2.11221 2.41783 0.204316 0
M  V30 12 C 0.851629 1.81831 0.141508 0
M  V30 13 N -0.387868 2.32374 0.158481 0
M  V30 14 S 4.50982 -0.775118 0.0587308 0
M  V30 15 N 5.14585 -0.994603 -1.51544 0
M  V30 16 O 4.21306 -2.16483 0.620382 0
M  V30 17 O 5.61385 -0.239508 0.95198 0
M  V30 18 C -1.18279 -1.21262 -0.0310904 0
M  V30 19 C -1.09985 -2.02318 1.12471 0
M  V30 20 C -1.61729 -3.29857 1.15148 0
M  V30 21 C -2.23539 -3.82059 0.0434437 0
M  V30 22 C -2.32454 -3.04692 -1.08517 0
M  V30 23 C -1.80608 -1.77733 -1.10505 0
M  V30 24 H -4.84256 3.60029 -0.773751 0
M  V30 25 H -4.86167 3.72663 0.958283 0
M  V30 26 H -2.6469 3.67919 0.229184 0
M  V30 27 H 1.71316 -1.43008 -0.0466267 0
M  V30 28 H 4.17824 2.04896 0.224681 0
M  V30 29 H 2.17699 3.49089 0.277608 0
M  V30 30 H -0.619693 3.36341 0.220222 0
M  V30 31 H 4.82184 -1.84487 -2.0029 0
M  V30 32 H 5.05381 -0.128358 -2.10804 0
M  V30 33 H -0.609605 -1.60375 2.00066 0
M  V30 34 H -1.52191 -3.88463 2.07391 0
M  V30 35 H -2.63849 -4.82839 0.0797082 0
M  V30 36 H -2.82466 -3.49216 -1.95541 0
M  V30 37 H -1.90074 -1.20946 -2.02351 0
M  V30 END ATOM
M  V30 BEGIN BOND
M  V30 1 1 1 2
M  V30 2 1 2 3
M  V30 3 2 3 4
M  V30 4 1 3 5
M  V30 5 2 5 6
M  V30 6 1 6 7
M  V30 7 2 7 8
M  V30 8 1 8 9
M  V30 9 2 9 10
M  V30 10 1 10 11
M  V30 11 2 11 12
M  V30 12 1 12 13
M  V30 13 1 9 14
M  V30 14 1 14 15
M  V30 15 2 14 16
M  V30 16 2 14 17
M  V30 17 1 6 18
M  V30 18 2 18 19
M  V30 19 1 19 20
M  V30 20 2 20 21
M  V30 21 1 21 22
M  V30 22 2 22 23
M  V30 23 1 13 5
M  V30 24 1 23 18
M  V30 25 1 12 7
M  V30 26 1 1 24
M  V30 27 1 1 25
M  V30 28 1 2 26
M  V30 29 1 8 27
M  V30 30 1 10 28
M  V30 31 1 11 29
M  V30 32 1 13 30
M  V30 33 1 15 31
M  V30 34 1 15 32
M  V30 35 1 19 33
M  V30 36 1 20 34
M  V30 37 1 21 35
M  V30 38 1 22 36
M  V30 39 1 23 37
M  V30 END BOND
M  V30 END CTAB
M  END
