
     RDKit          3D

  0  0  0  0  0  0  0  0  0  0999 V3000
M  V30 BEGIN CTAB
M  V30 COUNTS 19 19 0 0 0
M  V30 BEGIN ATOM
M  V30 1 N -1.62401 1.90346 0.426614 0
M  V30 2 C -1.77763 0.693396 -0.327356 0
M  V30 3 C -0.940334 -0.454843 0.127159 0
M  V30 4 C 0.523826 -0.120466 0.064597 0
M  V30 5 S 1.26984 1.39906 -0.13718 0
M  V30 6 C 2.90215 0.916648 -0.0752154 0
M  V30 7 C 2.81017 -0.438634 0.104428 0
M  V30 8 C 1.58043 -0.973924 0.175786 0
M  V30 9 Cl 1.30489 -2.72472 0.397762 0
M  V30 10 N -1.14281 -1.5858 -0.754644 0
M  V30 11 H -2.55373 2.32388 0.706422 0
M  V30 12 H -1.0577 1.85106 1.27401 0
M  V30 13 H -1.62278 0.840157 -1.42447 0
M  V30 14 H -2.84416 0.358316 -0.212038 0
M  V30 15 H -1.21635 -0.739902 1.17692 0
M  V30 16 H 3.8262 1.52652 -0.149568 0
M  V30 17 H 3.75985 -1.02987 0.177869 0
M  V30 18 H -1.50543 -2.42649 -0.29753 0
M  V30 19 H -1.69242 -1.31785 -1.62225 0
M  V30 END ATOM
M  V30 BEGIN BOND
M  V30 1 1 1 2
M  V30 2 1 2 3
M  V30 3 1 3 4
M  V30 4 1 4 5
M  V30 5 1 5 6
M  V30 6 2 6 7
M  V30 7 1 7 8
M  V30 8 1 8 9
M  V30 9 1 3 10
M  V30 10 2 8 4
M  V30 11 1 1 11
M  V30 12 1 1 12
M  V30 13 1 2 13
M  V30 14 1 2 14
M  V30 15 1 3 15
M  V30 16 1 6 16
M  V30 17 1 7 17
M  V30 18 1 10 18
M  V30 19 1 10 19
M  V30 END BOND
M  V30 END CTAB
M  END
