
     RDKit          3D

  0  0  0  0  0  0  0  0  0  0999 V3000
M  V30 BEGIN CTAB
M  V30 COUNTS 23 22 0 0 0
M  V30 BEGIN ATOM
M  V30 1 N 2.58701 0.849794 0.374281 0
M  V30 2 C 1.33363 0.657712 -0.238189 0
M  V30 3 C 0.55428 -0.479193 0.434899 0 CFG=1
M  V30 4 N -0.681067 -0.59717 -0.242649 0
M  V30 5 S -2.07251 -0.2853 0.65901 0
M  V30 6 O -1.96114 -0.609105 2.10419 0
M  V30 7 O -3.2663 -1.00601 0.0552241 0
M  V30 8 N -2.42183 1.42205 0.508151 0
M  V30 9 C -0.74723 -0.0158445 -1.54123 0
M  V30 10 C 1.42292 -1.6938 0.397638 0
M  V30 11 H 2.57592 1.11715 1.32565 0
M  V30 12 H 3.22715 1.3511 -0.201436 0
M  V30 13 H 0.759112 1.61173 -0.130107 0
M  V30 14 H 1.47354 0.357917 -1.29128 0
M  V30 15 H 0.359761 -0.188286 1.48735 0
M  V30 16 H -2.32527 1.63313 -0.529976 0
M  V30 17 H -3.42289 1.60561 0.736178 0
M  V30 18 H -0.600061 1.06313 -1.54817 0
M  V30 19 H -0.0786095 -0.575392 -2.22949 0
M  V30 20 H -1.79002 -0.202478 -1.92978 0
M  V30 21 H 1.46284 -2.13154 -0.612188 0
M  V30 22 H 2.47718 -1.41087 0.651415 0
M  V30 23 H 1.13358 -2.47435 1.12668 0
M  V30 END ATOM
M  V30 BEGIN BOND
M  V30 1 1 1 2
M  V30 2 1 2 3
M  V30 3 1 3 4
M  V30 4 1 4 5
M  V30 5 2 5 6
M  V30 6 2 5 7
M  V30 7 1 5 8
M  V30 8 1 4 9
M  V30 9 1 3 10
M  V30 10 1 1 11
M  V30 11 1 1 12
M  V30 12 1 2 13
M  V30 13 1 2 14
M  V30 14 1 3 15 CFG=1
M  V30 15 1 8 16
M  V30 16 1 8 17
M  V30 17 1 9 18
M  V30 18 1 9 19
M  V30 19 1 9 20
M  V30 20 1 10 21
M  V30 21 1 10 22
M  V30 22 1 10 23
M  V30 END BOND
M  V30 END CTAB
M  END
