
     RDKit          3D

  0  0  0  0  0  0  0  0  0  0999 V3000
M  V30 BEGIN CTAB
M  V30 COUNTS 26 26 0 0 0
M  V30 BEGIN ATOM
M  V30 1 C -2.66785 1.91446 0.502184 0
M  V30 2 C -2.09222 0.685717 -0.0937367 0
M  V30 3 C -0.818453 0.240507 0.247805 0
M  V30 4 C -0.258481 -0.886034 -0.280645 0
M  V30 5 S 1.34056 -1.52674 0.0762347 0
M  V30 6 C 2.32666 -0.553884 1.19677 0
M  V30 7 C 2.7558 0.769513 0.603668 0
M  V30 8 N 3.55407 1.51086 1.57855 0
M  V30 9 C -1.02412 -1.60803 -1.20676 0
M  V30 10 C -2.28114 -1.21501 -1.57753 0
M  V30 11 C -2.7903 -0.0670513 -1.00723 0
M  V30 12 N -0.514307 -2.796 -1.80519 0
M  V30 13 H -3.77688 1.81644 0.522063 0
M  V30 14 H -2.46126 2.81435 -0.132731 0
M  V30 15 H -2.3614 2.08239 1.55089 0
M  V30 16 H -0.250867 0.804119 0.965154 0
M  V30 17 H 3.28644 -1.1262 1.36342 0
M  V30 18 H 1.85608 -0.401641 2.18914 0
M  V30 19 H 3.47628 0.531303 -0.23704 0
M  V30 20 H 1.91888 1.3714 0.239398 0
M  V30 21 H 3.60911 2.52747 1.36338 0
M  V30 22 H 4.5041 1.07924 1.57918 0
M  V30 23 H -2.88983 -1.76253 -2.29483 0
M  V30 24 H -3.79661 0.278038 -1.28078 0
M  V30 25 H 0.192498 -2.74853 -2.56255 0
M  V30 26 H -0.836758 -3.73415 -1.4988 0
M  V30 END ATOM
M  V30 BEGIN BOND
M  V30 1 1 1 2
M  V30 2 2 2 3
M  V30 3 1 3 4
M  V30 4 1 4 5
M  V30 5 1 5 6
M  V30 6 1 6 7
M  V30 7 1 7 8
M  V30 8 2 4 9
M  V30 9 1 9 10
M  V30 10 2 10 11
M  V30 11 1 9 12
M  V30 12 1 11 2
M  V30 13 1 1 13
M  V30 14 1 1 14
M  V30 15 1 1 15
M  V30 16 1 3 16
M  V30 17 1 6 17
M  V30 18 1 6 18
M  V30 19 1 7 19
M  V30 20 1 7 20
M  V30 21 1 8 21
M  V30 22 1 8 22
M  V30 23 1 10 23
M  V30 24 1 11 24
M  V30 25 1 12 25
M  V30 26 1 12 26
M  V30 END BOND
M  V30 END CTAB
M  END
