
     RDKit          3D

  0  0  0  0  0  0  0  0  0  0999 V3000
M  V30 BEGIN CTAB
M  V30 COUNTS 24 25 0 0 0
M  V30 BEGIN ATOM
M  V30 1 C -2.73331 2.27268 -0.161599 0
M  V30 2 C -2.42875 1.10597 -0.198747 0
M  V30 3 C -2.07998 -0.324974 -0.247552 0
M  V30 4 C -2.62388 -1.19779 0.844291 0
M  V30 5 C -3.26133 -1.26949 -0.486262 0
M  V30 6 O -0.903257 -0.73069 -0.865016 0
M  V30 7 C 0.370807 -0.367575 -0.528396 0
M  V30 8 C 0.707055 0.481156 0.503596 0
M  V30 9 C 2.01355 0.808762 0.792719 0
M  V30 10 N 2.38503 1.67824 1.84745 0
M  V30 11 N 2.96892 0.256966 0.0128055 0
M  V30 12 C 2.68069 -0.574904 -1.00252 0
M  V30 13 N 1.39487 -0.871917 -1.25524 0
M  V30 14 N 3.76817 -1.09843 -1.75925 0
M  V30 15 H -3.00412 3.29628 -0.126771 0
M  V30 16 H -1.95304 -1.99317 1.19632 0
M  V30 17 H -3.18392 -0.710969 1.67851 0
M  V30 18 H -3.09673 -2.17094 -1.10589 0
M  V30 19 H -4.26307 -0.820324 -0.632447 0
M  V30 20 H -0.0925245 0.891414 1.09175 0
M  V30 21 H 1.90919 2.59591 1.92474 0
M  V30 22 H 3.1169 1.39604 2.52248 0
M  V30 23 H 3.89749 -2.1344 -1.72099 0
M  V30 24 H 4.41125 -0.517842 -2.324 0
M  V30 END ATOM
M  V30 BEGIN BOND
M  V30 1 3 1 2
M  V30 2 1 2 3
M  V30 3 1 3 4
M  V30 4 1 4 5
M  V30 5 1 3 6
M  V30 6 1 6 7
M  V30 7 2 7 8
M  V30 8 1 8 9
M  V30 9 1 9 10
M  V30 10 2 9 11
M  V30 11 1 11 12
M  V30 12 2 12 13
M  V30 13 1 12 14
M  V30 14 1 5 3
M  V30 15 1 13 7
M  V30 16 1 1 15
M  V30 17 1 4 16
M  V30 18 1 4 17
M  V30 19 1 5 18
M  V30 20 1 5 19
M  V30 21 1 8 20
M  V30 22 1 10 21
M  V30 23 1 10 22
M  V30 24 1 14 23
M  V30 25 1 14 24
M  V30 END BOND
M  V30 END CTAB
M  END
