
     RDKit          3D

  0  0  0  0  0  0  0  0  0  0999 V3000
M  V30 BEGIN CTAB
M  V30 COUNTS 37 39 0 0 0
M  V30 BEGIN ATOM
M  V30 1 N -2.30535 1.86412 1.84457 0
M  V30 2 C -2.23485 2.34225 0.404035 0
M  V30 3 C -0.99514 1.60688 -0.113407 0
M  V30 4 C 0.0698598 2.42348 -0.562596 0
M  V30 5 N -0.201559 3.77779 -0.577857 0
M  V30 6 N 1.26358 1.84627 -0.887314 0
M  V30 7 C 1.40883 0.511911 -0.768617 0
M  V30 8 N 0.38842 -0.237693 -0.369893 0
M  V30 9 C -0.821667 0.281124 -0.0346069 0
M  V30 10 C -1.89855 -0.685207 0.0863561 0
M  V30 11 C -2.65497 -1.05625 -0.987134 0
M  V30 12 Cl -2.55244 -0.124584 -2.47622 0
M  V30 13 C -3.53687 -2.12395 -0.958407 0
M  V30 14 C -3.66485 -2.85655 0.186276 0
M  V30 15 Cl -4.73305 -4.24707 0.29664 0
M  V30 16 C -2.93293 -2.54396 1.31482 0
M  V30 17 C -2.07071 -1.47517 1.26276 0
M  V30 18 C 2.77349 -0.131004 -0.720241 0
M  V30 19 C 2.85538 -1.16502 0.201443 0
M  V30 20 C 4.05635 -1.79661 0.572017 0
M  V30 21 C 5.18717 -1.34907 -0.0310563 0
M  V30 22 F 6.3926 -1.92154 0.338072 0
M  V30 23 C 5.14302 -0.307994 -0.965173 0
M  V30 24 F 6.24833 0.0935111 -1.56157 0
M  V30 25 C 3.90777 0.29062 -1.29515 0
M  V30 26 H -2.94282 1.12999 2.00111 0
M  V30 27 H -1.31083 1.77552 2.19349 0
M  V30 28 H -3.14665 1.83922 -0.0750755 0
M  V30 29 H -2.26615 3.38289 0.338431 0
M  V30 30 H -0.985517 4.19 -1.1247 0
M  V30 31 H 0.414481 4.4343 -0.0172241 0
M  V30 32 H -4.16273 -2.39781 -1.82752 0
M  V30 33 H -3.06731 -3.12168 2.2086 0
M  V30 34 H -1.49755 -1.2438 2.16427 0
M  V30 35 H 1.96189 -1.53052 0.643702 0
M  V30 36 H 4.01185 -2.58033 1.34839 0
M  V30 37 H 3.89949 1.10592 -2.05121 0
M  V30 END ATOM
M  V30 BEGIN BOND
M  V30 1 1 1 2
M  V30 2 1 2 3
M  V30 3 2 3 4
M  V30 4 1 4 5
M  V30 5 1 4 6
M  V30 6 2 6 7
M  V30 7 1 7 8
M  V30 8 2 8 9
M  V30 9 1 9 10
M  V30 10 2 10 11
M  V30 11 1 11 12
M  V30 12 1 11 13
M  V30 13 2 13 14
M  V30 14 1 14 15
M  V30 15 1 14 16
M  V30 16 2 16 17
M  V30 17 1 7 18
M  V30 18 2 18 19
M  V30 19 1 19 20
M  V30 20 2 20 21
M  V30 21 1 21 22
M  V30 22 1 21 23
M  V30 23 1 23 24
M  V30 24 2 23 25
M  V30 25 1 9 3
M  V30 26 1 17 10
M  V30 27 1 25 18
M  V30 28 1 1 26
M  V30 29 1 1 27
M  V30 30 1 2 28
M  V30 31 1 2 29
M  V30 32 1 5 30
M  V30 33 1 5 31
M  V30 34 1 13 32
M  V30 35 1 16 33
M  V30 36 1 17 34
M  V30 37 1 19 35
M  V30 38 1 20 36
M  V30 39 1 25 37
M  V30 END BOND
M  V30 END CTAB
M  END
