
     RDKit          3D

  0  0  0  0  0  0  0  0  0  0999 V3000
M  V30 BEGIN CTAB
M  V30 COUNTS 37 36 0 0 0
M  V30 BEGIN ATOM
M  V30 1 C 2.61563 0.150686 -0.740848 0 CFG=1
M  V30 2 N 3.47733 1.21809 -1.17248 0
M  V30 3 C 3.41991 -0.88632 -0.0224638 0
M  V30 4 C 4.45044 -1.42412 -0.934526 0
M  V30 5 O 5.34629 -2.39843 -0.553762 0
M  V30 6 O 4.52227 -0.983121 -2.10617 0
M  V30 7 C 1.52716 0.705351 0.106471 0
M  V30 8 O 1.47884 1.96185 0.33976 0
M  V30 9 N 0.556367 -0.166848 0.645059 0
M  V30 10 C -0.48714 0.366377 1.45763 0 CFG=1
M  V30 11 C -1.87205 0.144042 0.795648 0
M  V30 12 C -1.92003 0.816669 -0.532638 0
M  V30 13 C -3.22092 0.697717 -1.22536 0
M  V30 14 C -3.73628 -0.639823 -1.57372 0
M  V30 15 N -4.00943 -1.54979 -0.522125 0
M  V30 16 C -0.555915 -0.338696 2.75358 0
M  V30 17 O -1.51003 0.04306 3.6739 0
M  V30 18 O 0.246707 -1.26476 2.99468 0
M  V30 19 H 2.13091 -0.281292 -1.63983 0
M  V30 20 H 4.0976 1.58134 -0.420861 0
M  V30 21 H 2.97552 1.96722 -1.69025 0
M  V30 22 H 2.77706 -1.7277 0.330103 0
M  V30 23 H 3.89612 -0.382851 0.855814 0
M  V30 24 H 6.32117 -2.17827 -0.299495 0
M  V30 25 H 0.616513 -1.18046 0.442081 0
M  V30 26 H -0.428495 1.46567 1.59169 0
M  V30 27 H -1.99779 -0.956855 0.731267 0
M  V30 28 H -2.58351 0.644863 1.4787 0
M  V30 29 H -1.70972 1.91909 -0.424064 0
M  V30 30 H -1.10849 0.459134 -1.21943 0
M  V30 31 H -4.01081 1.24394 -0.626711 0
M  V30 32 H -3.17178 1.29176 -2.18633 0
M  V30 33 H -4.662 -0.489945 -2.19196 0
M  V30 34 H -2.9954 -1.13625 -2.25765 0
M  V30 35 H -4.3604 -1.10951 0.355472 0
M  V30 36 H -4.48761 -2.41186 -0.785136 0
M  V30 37 H -1.62802 -0.388421 4.57396 0
M  V30 END ATOM
M  V30 BEGIN BOND
M  V30 1 1 1 2
M  V30 2 1 1 3
M  V30 3 1 3 4
M  V30 4 1 4 5
M  V30 5 2 4 6
M  V30 6 1 1 7
M  V30 7 2 7 8
M  V30 8 1 7 9
M  V30 9 1 9 10
M  V30 10 1 10 11
M  V30 11 1 11 12
M  V30 12 1 12 13
M  V30 13 1 13 14
M  V30 14 1 14 15
M  V30 15 1 10 16
M  V30 16 1 16 17
M  V30 17 2 16 18
M  V30 18 1 1 19 CFG=3
M  V30 19 1 2 20
M  V30 20 1 2 21
M  V30 21 1 3 22
M  V30 22 1 3 23
M  V30 23 1 5 24
M  V30 24 1 9 25
M  V30 25 1 10 26 CFG=1
M  V30 26 1 11 27
M  V30 27 1 11 28
M  V30 28 1 12 29
M  V30 29 1 12 30
M  V30 30 1 13 31
M  V30 31 1 13 32
M  V30 32 1 14 33
M  V30 33 1 14 34
M  V30 34 1 15 35
M  V30 35 1 15 36
M  V30 36 1 17 37
M  V30 END BOND
M  V30 END CTAB
M  END
