
     RDKit          3D

  0  0  0  0  0  0  0  0  0  0999 V3000
M  V30 BEGIN CTAB
M  V30 COUNTS 27 27 0 0 0
M  V30 BEGIN ATOM
M  V30 1 C 3.27007 -1.7828 0.375569 0
M  V30 2 O 2.8985 -0.455799 0.180595 0
M  V30 3 C 1.60339 0.00110002 0.0726553 0
M  V30 4 C 0.549109 -0.884509 0.157119 0
M  V30 5 C -0.770054 -0.470872 0.0542512 0
M  V30 6 C -1.01818 0.873838 -0.138726 0
M  V30 7 C 0.0379168 1.76151 -0.223412 0
M  V30 8 C 1.36001 1.34501 -0.120048 0
M  V30 9 N 2.41747 2.29168 -0.212753 0
M  V30 10 O -2.34292 1.26544 -0.238766 0
M  V30 11 C -2.75732 2.59618 -0.435654 0
M  V30 12 S -2.10703 -1.60759 0.163212 0
M  V30 13 O -2.98933 -1.2431 1.31771 0
M  V30 14 O -2.92419 -1.55354 -1.11837 0
M  V30 15 N -1.51678 -3.18965 0.40076 0
M  V30 16 H 2.55524 -2.25805 1.09943 0
M  V30 17 H 3.17247 -2.34006 -0.576926 0
M  V30 18 H 4.27365 -1.88078 0.835287 0
M  V30 19 H 0.704251 -1.93795 0.306846 0
M  V30 20 H -0.185484 2.78771 -0.371868 0
M  V30 21 H 2.77613 2.48942 -1.18095 0
M  V30 22 H 2.83712 2.77818 0.592216 0
M  V30 23 H -2.1176 3.31921 0.0912223 0
M  V30 24 H -2.74842 2.79959 -1.52965 0
M  V30 25 H -3.80107 2.66168 -0.0260824 0
M  V30 26 H -2.30798 -3.84142 0.489181 0
M  V30 27 H -0.868961 -3.52442 -0.318909 0
M  V30 END ATOM
M  V30 BEGIN BOND
M  V30 1 1 1 2
M  V30 2 1 2 3
M  V30 3 2 3 4
M  V30 4 1 4 5
M  V30 5 2 5 6
M  V30 6 1 6 7
M  V30 7 2 7 8
M  V30 8 1 8 9
M  V30 9 1 6 10
M  V30 10 1 10 11
M  V30 11 1 5 12
M  V30 12 2 12 13
M  V30 13 2 12 14
M  V30 14 1 12 15
M  V30 15 1 8 3
M  V30 16 1 1 16
M  V30 17 1 1 17
M  V30 18 1 1 18
M  V30 19 1 4 19
M  V30 20 1 7 20
M  V30 21 1 9 21
M  V30 22 1 9 22
M  V30 23 1 11 23
M  V30 24 1 11 24
M  V30 25 1 11 25
M  V30 26 1 15 26
M  V30 27 1 15 27
M  V30 END BOND
M  V30 END CTAB
M  END
