
     RDKit          3D

  0  0  0  0  0  0  0  0  0  0999 V3000
M  V30 BEGIN CTAB
M  V30 COUNTS 33 33 0 0 0
M  V30 BEGIN ATOM
M  V30 1 N 3.8139 0.158478 -0.929714 0
M  V30 2 C 2.79648 0.501764 0.00516866 0
M  V30 3 C 1.61814 -0.414621 -0.172643 0
M  V30 4 N 0.52473 -0.178667 0.684996 0
M  V30 5 C -0.25916 -1.40578 0.898074 0
M  V30 6 C -0.646323 -2.09173 -0.352059 0
M  V30 7 C -2.17445 -1.95204 -0.457109 0
M  V30 8 C -2.51059 -0.497324 -0.174261 0
M  V30 9 C -1.43497 0.413396 -0.71308 0
M  V30 10 C -0.422844 0.847366 0.334442 0 CFG=2
M  V30 11 C 0.129557 2.16262 -0.0473722 0
M  V30 12 N -0.962603 3.08903 -0.351128 0
M  V30 13 H 4.70002 0.519772 -0.868189 0
M  V30 14 H 3.63764 -0.627964 -1.46666 0
M  V30 15 H 2.65399 1.55682 -0.0154541 0
M  V30 16 H 3.28361 0.274844 1.00633 0
M  V30 17 H 1.337 -0.500088 -1.25387 0
M  V30 18 H 1.99576 -1.45865 0.0637465 0
M  V30 19 H -1.05343 -1.18201 1.61254 0
M  V30 20 H 0.453352 -2.08905 1.45971 0
M  V30 21 H -0.468723 -3.20558 -0.278015 0
M  V30 22 H -0.170316 -1.77059 -1.27282 0
M  V30 23 H -2.59395 -2.56389 0.360942 0
M  V30 24 H -2.55877 -2.31625 -1.40754 0
M  V30 25 H -3.46736 -0.30861 -0.73642 0
M  V30 26 H -2.7107 -0.285286 0.874549 0
M  V30 27 H -1.98111 1.3577 -1.00459 0
M  V30 28 H -0.976432 0.0577015 -1.64306 0
M  V30 29 H -1.03419 1.00896 1.27174 0
M  V30 30 H 0.688154 2.61619 0.77968 0
M  V30 31 H 0.720692 2.14874 -0.993677 0
M  V30 32 H -1.78776 2.95803 0.243355 0
M  V30 33 H -1.13935 3.17671 -1.36774 0
M  V30 END ATOM
M  V30 BEGIN BOND
M  V30 1 1 1 2
M  V30 2 1 2 3
M  V30 3 1 3 4
M  V30 4 1 4 5
M  V30 5 1 5 6
M  V30 6 1 6 7
M  V30 7 1 7 8
M  V30 8 1 8 9
M  V30 9 1 9 10
M  V30 10 1 10 11
M  V30 11 1 11 12
M  V30 12 1 10 4
M  V30 13 1 1 13
M  V30 14 1 1 14
M  V30 15 1 2 15
M  V30 16 1 2 16
M  V30 17 1 3 17
M  V30 18 1 3 18
M  V30 19 1 5 19
M  V30 20 1 5 20
M  V30 21 1 6 21
M  V30 22 1 6 22
M  V30 23 1 7 23
M  V30 24 1 7 24
M  V30 25 1 8 25
M  V30 26 1 8 26
M  V30 27 1 9 27
M  V30 28 1 9 28
M  V30 29 1 10 29 CFG=1
M  V30 30 1 11 30
M  V30 31 1 11 31
M  V30 32 1 12 32
M  V30 33 1 12 33
M  V30 END BOND
M  V30 END CTAB
M  END
