
     RDKit          3D

  0  0  0  0  0  0  0  0  0  0999 V3000
M  V30 BEGIN CTAB
M  V30 COUNTS 33 35 0 0 0
M  V30 BEGIN ATOM
M  V30 1 C 4.36325 -2.42962 0.0666295 0
M  V30 2 O 4.01988 -1.06245 -0.0341687 0
M  V30 3 C 2.65148 -0.747495 -0.0180465 0
M  V30 4 C 1.6769 -1.69322 0.088664 0
M  V30 5 C 0.324544 -1.42283 0.107916 0
M  V30 6 N -0.600492 -2.41485 0.216853 0
M  V30 7 C -1.9178 -2.14561 0.235108 0
M  V30 8 C -2.30966 -0.822919 0.139415 0
M  V30 9 C -3.64404 -0.476427 0.151902 0
M  V30 10 N -4.61837 -1.5099 0.265705 0
M  V30 11 N -3.97603 0.822524 0.0563072 0
M  V30 12 C -3.09809 1.82894 -0.0523746 0
M  V30 13 N -3.48875 3.19029 -0.151245 0
M  V30 14 N -1.78065 1.49483 -0.0653477 0
M  V30 15 C -1.40063 0.20837 0.0277683 0
M  V30 16 C -0.0510254 -0.100022 0.0117121 0
M  V30 17 C 0.918157 0.892088 -0.0986056 0
M  V30 18 C 2.24665 0.583967 -0.114062 0
M  V30 19 O 3.2568 1.52817 -0.221729 0
M  V30 20 C 2.92225 2.89775 -0.322992 0
M  V30 21 H 5.44357 -2.54743 -0.150445 0
M  V30 22 H 3.78361 -2.96276 -0.725156 0
M  V30 23 H 4.11976 -2.8479 1.0791 0
M  V30 24 H 1.95252 -2.74272 0.165652 0
M  V30 25 H -2.66297 -2.95051 0.323324 0
M  V30 26 H -4.94082 -1.81314 1.21065 0
M  V30 27 H -4.97451 -1.92682 -0.609578 0
M  V30 28 H -2.91935 3.90781 -0.642056 0
M  V30 29 H -4.38433 3.49656 0.283554 0
M  V30 30 H 0.599569 1.92066 -0.172604 0
M  V30 31 H 2.08419 3.02802 -1.02781 0
M  V30 32 H 2.6375 3.30829 0.672755 0
M  V30 33 H 3.76689 3.50835 -0.6968 0
M  V30 END ATOM
M  V30 BEGIN BOND
M  V30 1 1 1 2
M  V30 2 1 2 3
M  V30 3 2 3 4
M  V30 4 1 4 5
M  V30 5 2 5 6
M  V30 6 1 6 7
M  V30 7 2 7 8
M  V30 8 1 8 9
M  V30 9 1 9 10
M  V30 10 2 9 11
M  V30 11 1 11 12
M  V30 12 1 12 13
M  V30 13 2 12 14
M  V30 14 1 14 15
M  V30 15 2 15 16
M  V30 16 1 16 17
M  V30 17 2 17 18
M  V30 18 1 18 19
M  V30 19 1 19 20
M  V30 20 1 18 3
M  V30 21 1 16 5
M  V30 22 1 15 8
M  V30 23 1 1 21
M  V30 24 1 1 22
M  V30 25 1 1 23
M  V30 26 1 4 24
M  V30 27 1 7 25
M  V30 28 1 10 26
M  V30 29 1 10 27
M  V30 30 1 13 28
M  V30 31 1 13 29
M  V30 32 1 17 30
M  V30 33 1 20 31
M  V30 34 1 20 32
M  V30 35 1 20 33
M  V30 END BOND
M  V30 END CTAB
M  END
