
     RDKit          3D

  0  0  0  0  0  0  0  0  0  0999 V3000
M  V30 BEGIN CTAB
M  V30 COUNTS 20 21 0 0 0
M  V30 BEGIN ATOM
M  V30 1 N 3.67325 -0.366714 0.104367 0
M  V30 2 C 2.26085 -0.195374 0.0652101 0
M  V30 3 N 1.39316 -1.21239 -0.0457216 0
M  V30 4 C 0.054546 -1.01488 -0.0801099 0
M  V30 5 C -0.366873 0.308024 0.00665643 0
M  V30 6 C -1.72844 0.519102 -0.0275385 0
M  V30 7 C -2.65825 -0.493061 -0.140401 0
M  V30 8 Br -4.52533 -0.138433 -0.182248 0
M  V30 9 C -2.19778 -1.78805 -0.223557 0
M  V30 10 C -0.848416 -2.04514 -0.193377 0
M  V30 11 C 0.525688 1.34976 0.120424 0
M  V30 12 N 0.0200487 2.6664 0.203579 0
M  V30 13 N 1.82086 1.09571 0.148825 0
M  V30 14 H 4.26168 -0.416787 -0.738006 0
M  V30 15 H 4.12546 -0.444767 1.05166 0
M  V30 16 H -2.05527 1.56699 0.0414535 0
M  V30 17 H -2.92142 -2.61422 -0.314365 0
M  V30 18 H -0.509897 -3.06024 -0.259402 0
M  V30 19 H 0.0411872 3.27424 -0.637293 0
M  V30 20 H -0.365055 3.00982 1.09985 0
M  V30 END ATOM
M  V30 BEGIN BOND
M  V30 1 1 1 2
M  V30 2 2 2 3
M  V30 3 1 3 4
M  V30 4 2 4 5
M  V30 5 1 5 6
M  V30 6 2 6 7
M  V30 7 1 7 8
M  V30 8 1 7 9
M  V30 9 2 9 10
M  V30 10 1 5 11
M  V30 11 1 11 12
M  V30 12 2 11 13
M  V30 13 1 13 2
M  V30 14 1 10 4
M  V30 15 1 1 14
M  V30 16 1 1 15
M  V30 17 1 6 16
M  V30 18 1 9 17
M  V30 19 1 10 18
M  V30 20 1 12 19
M  V30 21 1 12 20
M  V30 END BOND
M  V30 END CTAB
M  END
