
     RDKit          3D

  0  0  0  0  0  0  0  0  0  0999 V3000
M  V30 BEGIN CTAB
M  V30 COUNTS 18 18 0 0 0
M  V30 BEGIN ATOM
M  V30 1 N -2.56718 -0.863303 0.698482 0
M  V30 2 C -1.77526 0.246981 0.196561 0
M  V30 3 C -0.333737 -0.134345 0.11875 0
M  V30 4 N 0.0795927 -1.3596 0.484666 0
M  V30 5 C 1.36684 -1.75083 0.432807 0
M  V30 6 C 2.26465 -0.802952 -0.0280703 0
M  V30 7 C 1.87232 0.465792 -0.412186 0
M  V30 8 C 0.538846 0.829084 -0.343858 0
M  V30 9 N 0.0704947 2.11044 -0.721271 0
M  V30 10 F 3.56646 -1.14196 -0.100252 0
M  V30 11 H -2.94758 -1.44879 -0.0790001 0
M  V30 12 H -2.02279 -1.40699 1.40094 0
M  V30 13 H -2.17305 0.502886 -0.786903 0
M  V30 14 H -1.92366 1.09983 0.913103 0
M  V30 15 H 1.67312 -2.74937 0.735476 0
M  V30 16 H 2.56338 1.20272 -0.769475 0
M  V30 17 H 0.670655 2.96121 -0.746788 0
M  V30 18 H -0.923094 2.2392 -0.992985 0
M  V30 END ATOM
M  V30 BEGIN BOND
M  V30 1 1 1 2
M  V30 2 1 2 3
M  V30 3 2 3 4
M  V30 4 1 4 5
M  V30 5 2 5 6
M  V30 6 1 6 7
M  V30 7 2 7 8
M  V30 8 1 8 9
M  V30 9 1 6 10
M  V30 10 1 8 3
M  V30 11 1 1 11
M  V30 12 1 1 12
M  V30 13 1 2 13
M  V30 14 1 2 14
M  V30 15 1 5 15
M  V30 16 1 7 16
M  V30 17 1 9 17
M  V30 18 1 9 18
M  V30 END BOND
M  V30 END CTAB
M  END
