
     RDKit          3D

  0  0  0  0  0  0  0  0  0  0999 V3000
M  V30 BEGIN CTAB
M  V30 COUNTS 23 23 0 0 0
M  V30 BEGIN ATOM
M  V30 1 C 3.08668 -1.34805 0.206436 0
M  V30 2 O 2.89663 0.0468942 0.0980628 0
M  V30 3 C 1.59845 0.525098 -0.0435127 0
M  V30 4 C 1.36046 1.90121 -0.154699 0
M  V30 5 C 0.052017 2.30808 -0.292423 0
M  V30 6 C -1.00472 1.41598 -0.322907 0
M  V30 7 N -2.34551 1.86926 -0.466462 0
M  V30 8 C -0.779281 0.0592134 -0.214063 0
M  V30 9 C -1.93253 -0.880715 -0.249547 0
M  V30 10 N -1.4919 -2.25574 -0.121253 0
M  V30 11 C 0.530311 -0.348176 -0.0762066 0
M  V30 12 H 4.19877 -1.52588 0.162301 0
M  V30 13 H 2.73595 -1.7191 1.21259 0
M  V30 14 H 2.57085 -1.87068 -0.60677 0
M  V30 15 H 2.20636 2.56353 -0.126882 0
M  V30 16 H -0.132238 3.37624 -0.378682 0
M  V30 17 H -2.5899 2.76922 -0.961519 0
M  V30 18 H -3.12841 1.31732 -0.081811 0
M  V30 19 H -2.61296 -0.683527 0.627134 0
M  V30 20 H -2.53507 -0.803778 -1.15067 0
M  V30 21 H -2.35171 -2.8521 -0.259147 0
M  V30 22 H -1.00207 -2.4291 0.764196 0
M  V30 23 H 0.669819 -1.43518 0.0075163 0
M  V30 END ATOM
M  V30 BEGIN BOND
M  V30 1 1 1 2
M  V30 2 1 2 3
M  V30 3 2 3 4
M  V30 4 1 4 5
M  V30 5 2 5 6
M  V30 6 1 6 7
M  V30 7 1 6 8
M  V30 8 1 8 9
M  V30 9 1 9 10
M  V30 10 2 8 11
M  V30 11 1 11 3
M  V30 12 1 1 12
M  V30 13 1 1 13
M  V30 14 1 1 14
M  V30 15 1 4 15
M  V30 16 1 5 16
M  V30 17 1 7 17
M  V30 18 1 7 18
M  V30 19 1 9 19
M  V30 20 1 9 20
M  V30 21 1 10 21
M  V30 22 1 10 22
M  V30 23 1 11 23
M  V30 END BOND
M  V30 END CTAB
M  END
