
     RDKit          3D

  0  0  0  0  0  0  0  0  0  0999 V3000
M  V30 BEGIN CTAB
M  V30 COUNTS 35 35 0 0 0
M  V30 BEGIN ATOM
M  V30 1 C 3.22889 -1.07194 0.576433 0
M  V30 2 C 2.00421 -1.90716 0.822475 0
M  V30 3 O 0.911485 -1.14479 1.19267 0
M  V30 4 C 0.275298 -0.132857 0.516755 0
M  V30 5 C 0.604827 1.20538 0.66408 0
M  V30 6 N 1.62451 1.59351 1.56483 0
M  V30 7 C -0.0518232 2.19118 -0.030262 0
M  V30 8 C 0.320533 3.58419 0.147241 0
M  V30 9 C -1.05873 1.84271 -0.88964 0
M  V30 10 N -1.73774 2.8386 -1.60483 0
M  V30 11 C -1.39426 0.497174 -1.04021 0
M  V30 12 C -0.749889 -0.508508 -0.355055 0
M  V30 13 C -1.14033 -1.9415 -0.538474 0
M  V30 14 C -2.38741 -1.98826 -1.4139 0
M  V30 15 C -1.48169 -2.54834 0.805024 0
M  V30 16 H 3.6084 -0.654309 1.52824 0
M  V30 17 H 4.0882 -1.73648 0.222744 0
M  V30 18 H 3.06013 -0.336505 -0.222131 0
M  V30 19 H 1.8537 -2.53469 -0.095381 0
M  V30 20 H 2.23128 -2.64989 1.637 0
M  V30 21 H 1.76195 1.13772 2.48231 0
M  V30 22 H 2.24951 2.37397 1.26688 0
M  V30 23 H 1.39561 3.71462 -0.155959 0
M  V30 24 H 0.293453 3.87606 1.23415 0
M  V30 25 H -0.248708 4.30619 -0.432219 0
M  V30 26 H -2.7565 3.02635 -1.59257 0
M  V30 27 H -1.1577 3.46844 -2.22372 0
M  V30 28 H -2.20047 0.203622 -1.72636 0
M  V30 29 H -0.292339 -2.45497 -1.0397 0
M  V30 30 H -3.15765 -1.39035 -0.896441 0
M  V30 31 H -2.72586 -3.04539 -1.42459 0
M  V30 32 H -2.18712 -1.69796 -2.45263 0
M  V30 33 H -2.54597 -2.91998 0.825495 0
M  V30 34 H -1.42953 -1.78424 1.61918 0
M  V30 35 H -0.808271 -3.41159 1.02855 0
M  V30 END ATOM
M  V30 BEGIN BOND
M  V30 1 1 1 2
M  V30 2 1 2 3
M  V30 3 1 3 4
M  V30 4 2 4 5
M  V30 5 1 5 6
M  V30 6 1 5 7
M  V30 7 1 7 8
M  V30 8 2 7 9
M  V30 9 1 9 10
M  V30 10 1 9 11
M  V30 11 2 11 12
M  V30 12 1 12 13
M  V30 13 1 13 14
M  V30 14 1 13 15
M  V30 15 1 12 4
M  V30 16 1 1 16
M  V30 17 1 1 17
M  V30 18 1 1 18
M  V30 19 1 2 19
M  V30 20 1 2 20
M  V30 21 1 6 21
M  V30 22 1 6 22
M  V30 23 1 8 23
M  V30 24 1 8 24
M  V30 25 1 8 25
M  V30 26 1 10 26
M  V30 27 1 10 27
M  V30 28 1 11 28
M  V30 29 1 13 29
M  V30 30 1 14 30
M  V30 31 1 14 31
M  V30 32 1 14 32
M  V30 33 1 15 33
M  V30 34 1 15 34
M  V30 35 1 15 35
M  V30 END BOND
M  V30 END CTAB
M  END
