
     RDKit          3D

  0  0  0  0  0  0  0  0  0  0999 V3000
M  V30 BEGIN CTAB
M  V30 COUNTS 39 40 0 0 0
M  V30 BEGIN ATOM
M  V30 1 C 3.83647 -0.920593 -2.22481 0
M  V30 2 C 3.08182 0.163651 -1.51604 0
M  V30 3 N 2.55166 -0.217464 -0.251465 0
M  V30 4 C 1.14159 -0.299276 -0.106035 0
M  V30 5 N 0.62738 -1.5276 0.172396 0
M  V30 6 C -0.700786 -1.69973 0.322138 0
M  V30 7 N -1.19561 -2.98939 0.609233 0
M  V30 8 C -1.57719 -0.656749 0.201648 0
M  V30 9 C -1.05544 0.58881 -0.0806666 0
M  V30 10 C 0.299305 0.758299 -0.232343 0
M  V30 11 C 0.845735 2.05244 -0.522303 0
M  V30 12 N 1.30367 3.08642 -0.751629 0
M  V30 13 C -1.94139 1.64651 -0.20189 0
M  V30 14 C -3.30493 1.50134 -0.0527999 0
M  V30 15 N -3.74645 0.261001 0.221183 0
M  V30 16 C -2.94982 -0.811471 0.353028 0
M  V30 17 N -3.43696 -2.1062 0.642227 0
M  V30 18 O -4.17763 2.59495 -0.181955 0
M  V30 19 C -5.57306 2.31587 -0.00435415 0
M  V30 20 C 3.37829 -0.515776 0.894542 0
M  V30 21 C 4.08382 0.715253 1.41998 0
M  V30 22 H 4.87156 -0.60468 -2.51215 0
M  V30 23 H 3.88432 -1.86762 -1.65759 0
M  V30 24 H 3.30647 -1.14931 -3.17 0
M  V30 25 H 3.80853 1.01678 -1.36724 0
M  V30 26 H 2.30835 0.591644 -2.2013 0
M  V30 27 H -1.32622 -3.27818 1.592 0
M  V30 28 H -1.41958 -3.6253 -0.172594 0
M  V30 29 H -1.5111 2.61113 -0.423657 0
M  V30 30 H -3.59111 -2.48206 1.6019 0
M  V30 31 H -3.65461 -2.72236 -0.176571 0
M  V30 32 H -5.76822 1.23486 -0.182336 0
M  V30 33 H -5.79532 2.52397 1.05902 0
M  V30 34 H -6.21418 2.94624 -0.619498 0
M  V30 35 H 2.76507 -0.902271 1.74614 0
M  V30 36 H 4.09443 -1.33323 0.660781 0
M  V30 37 H 3.40261 1.3523 2.02271 0
M  V30 38 H 4.44789 1.33654 0.564168 0
M  V30 39 H 4.90066 0.411252 2.1022 0
M  V30 END ATOM
M  V30 BEGIN BOND
M  V30 1 1 1 2
M  V30 2 1 2 3
M  V30 3 1 3 4
M  V30 4 2 4 5
M  V30 5 1 5 6
M  V30 6 1 6 7
M  V30 7 2 6 8
M  V30 8 1 8 9
M  V30 9 2 9 10
M  V30 10 1 10 11
M  V30 11 3 11 12
M  V30 12 1 9 13
M  V30 13 2 13 14
M  V30 14 1 14 15
M  V30 15 2 15 16
M  V30 16 1 16 17
M  V30 17 1 14 18
M  V30 18 1 18 19
M  V30 19 1 3 20
M  V30 20 1 20 21
M  V30 21 1 10 4
M  V30 22 1 16 8
M  V30 23 1 1 22
M  V30 24 1 1 23
M  V30 25 1 1 24
M  V30 26 1 2 25
M  V30 27 1 2 26
M  V30 28 1 7 27
M  V30 29 1 7 28
M  V30 30 1 13 29
M  V30 31 1 17 30
M  V30 32 1 17 31
M  V30 33 1 19 32
M  V30 34 1 19 33
M  V30 35 1 19 34
M  V30 36 1 20 35
M  V30 37 1 20 36
M  V30 38 1 21 37
M  V30 39 1 21 38
M  V30 40 1 21 39
M  V30 END BOND
M  V30 END CTAB
M  END
