
     RDKit          3D

  0  0  0  0  0  0  0  0  0  0999 V3000
M  V30 BEGIN CTAB
M  V30 COUNTS 31 32 0 0 0
M  V30 BEGIN ATOM
M  V30 1 N 4.69232 -0.525932 1.23926 0
M  V30 2 C 3.51759 -0.229558 0.495705 0
M  V30 3 N 3.36058 0.430525 -0.643884 0
M  V30 4 N 2.07307 0.451186 -0.948966 0
M  V30 5 C 1.36059 -0.196301 -0.0130429 0
M  V30 6 N 2.28675 -0.613304 0.88054 0
M  V30 7 C -0.0993169 -0.42266 0.061716 0
M  V30 8 C -0.62351 -1.20631 -1.11375 0
M  V30 9 C -1.93271 -1.85372 -0.655285 0
M  V30 10 C -2.64919 -0.921186 0.307299 0
M  V30 11 C -2.36489 0.499587 -0.0728698 0
M  V30 12 C -0.901533 0.831344 0.213704 0
M  V30 13 C -0.514017 1.94636 -0.692471 0
M  V30 14 N -0.829321 1.25878 1.58158 0
M  V30 15 H 5.33841 0.2694 1.42917 0
M  V30 16 H 4.8905 -1.49212 1.57412 0
M  V30 17 H 1.68922 0.913171 -1.80549 0
M  V30 18 H -0.341853 -1.04247 0.976763 0
M  V30 19 H -0.763467 -0.608977 -2.02 0
M  V30 20 H 0.0496564 -2.06777 -1.36917 0
M  V30 21 H -2.59861 -2.07051 -1.51295 0
M  V30 22 H -1.66465 -2.75846 -0.0771573 0
M  V30 23 H -2.34474 -1.08073 1.35807 0
M  V30 24 H -3.75017 -1.08433 0.280232 0
M  V30 25 H -2.61742 0.685445 -1.13994 0
M  V30 26 H -3.00203 1.15879 0.553621 0
M  V30 27 H -1.29194 2.75404 -0.55028 0
M  V30 28 H -0.578222 1.68929 -1.76801 0
M  V30 29 H 0.444838 2.43838 -0.437237 0
M  V30 30 H -0.301725 0.601514 2.17695 0
M  V30 31 H -0.534195 2.24654 1.69177 0
M  V30 END ATOM
M  V30 BEGIN BOND
M  V30 1 1 1 2
M  V30 2 2 2 3
M  V30 3 1 3 4
M  V30 4 1 4 5
M  V30 5 2 5 6
M  V30 6 1 5 7
M  V30 7 1 7 8
M  V30 8 1 8 9
M  V30 9 1 9 10
M  V30 10 1 10 11
M  V30 11 1 11 12
M  V30 12 1 12 13
M  V30 13 1 12 14
M  V30 14 1 6 2
M  V30 15 1 12 7
M  V30 16 1 1 15
M  V30 17 1 1 16
M  V30 18 1 4 17
M  V30 19 1 7 18
M  V30 20 1 8 19
M  V30 21 1 8 20
M  V30 22 1 9 21
M  V30 23 1 9 22
M  V30 24 1 10 23
M  V30 25 1 10 24
M  V30 26 1 11 25
M  V30 27 1 11 26
M  V30 28 1 13 27
M  V30 29 1 13 28
M  V30 30 1 13 29
M  V30 31 1 14 30
M  V30 32 1 14 31
M  V30 END BOND
M  V30 END CTAB
M  END
