
     RDKit          3D

  0  0  0  0  0  0  0  0  0  0999 V3000
M  V30 BEGIN CTAB
M  V30 COUNTS 19 19 0 0 0
M  V30 BEGIN ATOM
M  V30 1 N 2.81984 -1.19585 0.030244 0
M  V30 2 C 1.54305 -0.592516 0.00180268 0
M  V30 3 C 1.41765 0.779911 0.194366 0
M  V30 4 C 0.189004 1.40966 0.174326 0
M  V30 5 N 0.0538359 2.80818 0.369845 0
M  V30 6 C -0.918366 0.62802 -0.0444599 0
M  V30 7 C -0.858361 -0.746958 -0.243456 0
M  V30 8 C 0.39322 -1.31278 -0.21178 0
M  V30 9 C -2.06867 -1.50079 -0.467642 0
M  V30 10 O -2.02976 -2.73518 -0.647804 0
M  V30 11 O -3.29839 -0.879733 -0.488942 0
M  V30 12 I -2.80133 1.59149 -0.075391 0
M  V30 13 H 3.26295 -1.37547 0.956027 0
M  V30 14 H 3.36855 -1.48267 -0.804537 0
M  V30 15 H 2.29771 1.38372 0.365649 0
M  V30 16 H 0.34114 3.19027 1.29294 0
M  V30 17 H -0.311163 3.41754 -0.366014 0
M  V30 18 H 0.495364 -2.37783 -0.360762 0
M  V30 19 H -3.89627 -1.00902 0.325588 0
M  V30 END ATOM
M  V30 BEGIN BOND
M  V30 1 1 1 2
M  V30 2 2 2 3
M  V30 3 1 3 4
M  V30 4 1 4 5
M  V30 5 2 4 6
M  V30 6 1 6 7
M  V30 7 2 7 8
M  V30 8 1 7 9
M  V30 9 2 9 10
M  V30 10 1 9 11
M  V30 11 1 6 12
M  V30 12 1 8 2
M  V30 13 1 1 13
M  V30 14 1 1 14
M  V30 15 1 3 15
M  V30 16 1 5 16
M  V30 17 1 5 17
M  V30 18 1 8 18
M  V30 19 1 11 19
M  V30 END BOND
M  V30 END CTAB
M  END
