
     RDKit          3D

  0  0  0  0  0  0  0  0  0  0999 V3000
M  V30 BEGIN CTAB
M  V30 COUNTS 31 31 0 0 0
M  V30 BEGIN ATOM
M  V30 1 C -2.1612 -2.10368 -0.494066 0
M  V30 2 C -1.20765 -0.957656 -0.653126 0
M  V30 3 C 0.200254 -1.33502 -0.244655 0
M  V30 4 N 1.03725 -0.165584 -0.279992 0
M  V30 5 C 0.61206 1.18431 0.00621849 0
M  V30 6 C -0.842796 1.39265 0.124195 0
M  V30 7 C -1.6496 0.135057 0.321552 0
M  V30 8 O -2.99925 0.36016 0.0561957 0
M  V30 9 C -1.22183 2.33066 1.27495 0
M  V30 10 C 2.40951 -0.328672 -0.62502 0
M  V30 11 N 3.35776 -0.334588 0.225708 0
M  V30 12 N 3.22062 -0.187962 1.58955 0
M  V30 13 N 2.71548 -0.492718 -2.00484 0
M  V30 14 H -1.74285 -3.06899 -0.800463 0
M  V30 15 H -2.46557 -2.17153 0.589944 0
M  V30 16 H -3.09445 -1.84427 -1.03398 0
M  V30 17 H -1.24847 -0.493045 -1.65855 0
M  V30 18 H 0.118153 -1.74826 0.794355 0
M  V30 19 H 0.568154 -2.14568 -0.908857 0
M  V30 20 H 1.01834 1.81393 -0.840474 0
M  V30 21 H 1.15548 1.47619 0.952472 0
M  V30 22 H -1.23288 1.88309 -0.792125 0
M  V30 23 H -1.4845 -0.27233 1.33375 0
M  V30 24 H -3.01749 0.977979 -0.730944 0
M  V30 25 H -2.25044 2.68565 1.05241 0
M  V30 26 H -0.493422 3.15869 1.36084 0
M  V30 27 H -1.28023 1.70113 2.17526 0
M  V30 28 H 3.3164 0.702527 2.12233 0
M  V30 29 H 2.99835 -1.04992 2.15531 0
M  V30 30 H 2.77558 0.32801 -2.63669 0
M  V30 31 H 2.88923 -1.43013 -2.43126 0
M  V30 END ATOM
M  V30 BEGIN BOND
M  V30 1 1 1 2
M  V30 2 1 2 3
M  V30 3 1 3 4
M  V30 4 1 4 5
M  V30 5 1 5 6
M  V30 6 1 6 7
M  V30 7 1 7 8
M  V30 8 1 6 9
M  V30 9 1 4 10
M  V30 10 2 10 11 CFG=2
M  V30 11 1 11 12
M  V30 12 1 10 13
M  V30 13 1 7 2
M  V30 14 1 1 14
M  V30 15 1 1 15
M  V30 16 1 1 16
M  V30 17 1 2 17
M  V30 18 1 3 18
M  V30 19 1 3 19
M  V30 20 1 5 20
M  V30 21 1 5 21
M  V30 22 1 6 22
M  V30 23 1 7 23
M  V30 24 1 8 24
M  V30 25 1 9 25
M  V30 26 1 9 26
M  V30 27 1 9 27
M  V30 28 1 12 28
M  V30 29 1 12 29
M  V30 30 1 13 30
M  V30 31 1 13 31
M  V30 END BOND
M  V30 END CTAB
M  END
