
     RDKit          3D

  0  0  0  0  0  0  0  0  0  0999 V3000
M  V30 BEGIN CTAB
M  V30 COUNTS 20 21 0 0 0
M  V30 BEGIN ATOM
M  V30 1 N 3.58237 -0.722845 0.199999 0
M  V30 2 C 2.55945 0.280669 -0.000346935 0
M  V30 3 C 1.19674 -0.308013 0.0131433 0
M  V30 4 N 0.951185 -1.61441 0.189808 0
M  V30 5 N -0.277535 -2.10494 0.196112 0
M  V30 6 C -1.36699 -1.31433 0.0238077 0
M  V30 7 C -1.12133 0.0300312 -0.158355 0
M  V30 8 C 0.136605 0.555771 -0.168228 0
M  V30 9 C -2.35282 0.657558 -0.314477 0
M  V30 10 N -2.54399 2.05065 -0.526776 0
M  V30 11 N -3.26667 -0.321515 -0.220621 0
M  V30 12 N -2.68223 -1.49198 -0.0198613 0
M  V30 13 H 3.44573 -1.53403 -0.447154 0
M  V30 14 H 4.50043 -0.269811 0.0988592 0
M  V30 15 H 2.61367 1.01567 0.828155 0
M  V30 16 H 2.75086 0.765259 -0.998453 0
M  V30 17 H 0.290441 1.60292 -0.312089 0
M  V30 18 H -1.93538 2.75674 -0.0795362 0
M  V30 19 H -3.31124 2.38558 -1.14507 0
M  V30 20 H -3.16927 -2.41898 0.0889635 0
M  V30 END ATOM
M  V30 BEGIN BOND
M  V30 1 1 1 2
M  V30 2 1 2 3
M  V30 3 2 3 4
M  V30 4 1 4 5
M  V30 5 2 5 6
M  V30 6 1 6 7
M  V30 7 2 7 8
M  V30 8 1 7 9
M  V30 9 1 9 10
M  V30 10 2 9 11
M  V30 11 1 11 12
M  V30 12 1 8 3
M  V30 13 1 12 6
M  V30 14 1 1 13
M  V30 15 1 1 14
M  V30 16 1 2 15
M  V30 17 1 2 16
M  V30 18 1 8 17
M  V30 19 1 10 18
M  V30 20 1 10 19
M  V30 21 1 12 20
M  V30 END BOND
M  V30 END CTAB
M  END
