
     RDKit          3D

  0  0  0  0  0  0  0  0  0  0999 V3000
M  V30 BEGIN CTAB
M  V30 COUNTS 33 33 0 0 0
M  V30 BEGIN ATOM
M  V30 1 C -3.81682 0.352371 0.733241 0
M  V30 2 C -2.45548 -0.198824 0.620024 0 CFG=2
M  V30 3 C -1.38306 0.728815 1.21897 0
M  V30 4 C -0.234181 -0.203382 1.48492 0
M  V30 5 N 0.286627 -0.818407 0.297433 0
M  V30 6 C -0.489903 -0.603145 -0.885726 0
M  V30 7 C -1.95166 -0.463711 -0.769165 0 CFG=2
M  V30 8 N -2.408 0.670277 -1.57598 0
M  V30 9 C 1.58207 -0.140963 0.0813439 0
M  V30 10 C 2.45469 -0.93962 -0.809867 0
M  V30 11 S 3.96843 -0.0629972 -1.06215 0
M  V30 12 O 4.89432 -0.971806 -1.85026 0
M  V30 13 O 3.74253 1.18637 -1.83863 0
M  V30 14 N 4.756 0.310697 0.415566 0
M  V30 15 H -4.2029 0.103756 1.76102 0
M  V30 16 H -4.50992 -0.0844964 0.029775 0
M  V30 17 H -3.79256 1.47093 0.724137 0
M  V30 18 H -2.43161 -1.18588 1.15648 0
M  V30 19 H -1.76166 1.21181 2.14039 0
M  V30 20 H -1.06531 1.46193 0.454861 0
M  V30 21 H -0.627143 -1.05375 2.12647 0
M  V30 22 H 0.553335 0.28292 2.114 0
M  V30 23 H -0.284938 -1.47028 -1.56048 0
M  V30 24 H -0.0555128 0.277629 -1.44406 0
M  V30 25 H -2.51967 -1.34369 -1.16986 0
M  V30 26 H -3.39979 0.921615 -1.35366 0
M  V30 27 H -1.85253 1.52229 -1.40749 0
M  V30 28 H 1.28424 0.809727 -0.451058 0
M  V30 29 H 2.00528 0.150688 1.0485 0
M  V30 30 H 1.9277 -1.16672 -1.74665 0
M  V30 31 H 2.62953 -1.91668 -0.296877 0
M  V30 32 H 4.83325 1.34174 0.583792 0
M  V30 33 H 4.32465 -0.179227 1.231 0
M  V30 END ATOM
M  V30 BEGIN BOND
M  V30 1 1 1 2
M  V30 2 1 2 3
M  V30 3 1 3 4
M  V30 4 1 4 5
M  V30 5 1 5 6
M  V30 6 1 6 7
M  V30 7 1 7 8
M  V30 8 1 5 9
M  V30 9 1 9 10
M  V30 10 1 10 11
M  V30 11 2 11 12
M  V30 12 2 11 13
M  V30 13 1 11 14
M  V30 14 1 7 2
M  V30 15 1 1 15
M  V30 16 1 1 16
M  V30 17 1 1 17
M  V30 18 1 2 18 CFG=1
M  V30 19 1 3 19
M  V30 20 1 3 20
M  V30 21 1 4 21
M  V30 22 1 4 22
M  V30 23 1 6 23
M  V30 24 1 6 24
M  V30 25 1 7 25 CFG=3
M  V30 26 1 8 26
M  V30 27 1 8 27
M  V30 28 1 9 28
M  V30 29 1 9 29
M  V30 30 1 10 30
M  V30 31 1 10 31
M  V30 32 1 14 32
M  V30 33 1 14 33
M  V30 END BOND
M  V30 END CTAB
M  END
