
     RDKit          3D

  0  0  0  0  0  0  0  0  0  0999 V3000
M  V30 BEGIN CTAB
M  V30 COUNTS 18 19 0 0 0
M  V30 BEGIN ATOM
M  V30 1 N -4.02659 1.76914 -0.129028 0
M  V30 2 C -3.00703 1.21741 -0.0583894 0
M  V30 3 C -1.73775 0.55133 0.0450053 0
M  V30 4 C -0.558197 1.1663 -0.312128 0
M  V30 5 N 0.644677 0.566498 -0.225683 0
M  V30 6 N 1.87656 0.963034 -0.508407 0
M  V30 7 C 2.75002 -0.020049 -0.244528 0
M  V30 8 N 2.00646 -1.04711 0.215441 0
M  V30 9 C 0.696802 -0.703147 0.234841 0
M  V30 10 N -0.436317 -1.34652 0.597236 0
M  V30 11 C -1.65083 -0.760133 0.517016 0
M  V30 12 N -2.85631 -1.38487 0.880633 0
M  V30 13 N 4.15939 0.0215734 -0.416637 0
M  V30 14 H -0.642039 2.18667 -0.677546 0
M  V30 15 H -3.44124 -1.95946 0.218996 0
M  V30 16 H -3.20077 -1.2865 1.83941 0
M  V30 17 H 4.82377 -0.274689 0.350234 0
M  V30 18 H 4.59939 0.340538 -1.29176 0
M  V30 END ATOM
M  V30 BEGIN BOND
M  V30 1 3 1 2
M  V30 2 1 2 3
M  V30 3 2 3 4
M  V30 4 1 4 5
M  V30 5 1 5 6
M  V30 6 2 6 7
M  V30 7 1 7 8
M  V30 8 2 8 9
M  V30 9 1 9 10
M  V30 10 2 10 11
M  V30 11 1 11 12
M  V30 12 1 7 13
M  V30 13 1 11 3
M  V30 14 1 9 5
M  V30 15 1 4 14
M  V30 16 1 12 15
M  V30 17 1 12 16
M  V30 18 1 13 17
M  V30 19 1 13 18
M  V30 END BOND
M  V30 END CTAB
M  END
