
     RDKit          3D

  0  0  0  0  0  0  0  0  0  0999 V3000
M  V30 BEGIN CTAB
M  V30 COUNTS 25 26 0 0 0
M  V30 BEGIN ATOM
M  V30 1 O -3.07154 0.726978 -1.42474 0
M  V30 2 C -3.36833 0.359976 -0.118064 0
M  V30 3 C -2.49672 -0.795518 0.339936 0
M  V30 4 C -1.0652 -0.433908 0.258211 0
M  V30 5 N -0.605149 0.8129 0.101305 0
M  V30 6 C 0.738064 0.789318 0.0665529 0
M  V30 7 C 1.12667 -0.514459 0.206356 0
M  V30 8 N -0.00831622 -1.23755 0.321578 0
M  V30 9 N 2.43889 -0.827243 0.205887 0
M  V30 10 C 3.37036 0.141494 0.0679655 0
M  V30 11 C 3.01985 1.46672 -0.075379 0
M  V30 12 C 1.68835 1.80962 -0.0778529 0
M  V30 13 N 4.74795 -0.193978 0.0682829 0
M  V30 14 N -2.69763 -1.9578 -0.5078 0
M  V30 15 H -2.97552 1.71405 -1.51479 0
M  V30 16 H -3.17014 1.22869 0.522787 0
M  V30 17 H -4.42689 0.031607 -0.0667794 0
M  V30 18 H -2.7926 -1.09902 1.36355 0
M  V30 19 H -0.01735 -2.26723 0.440816 0
M  V30 20 H 3.796 2.24202 -0.186621 0
M  V30 21 H 1.37389 2.83985 -0.188109 0
M  V30 22 H 5.22279 -0.504928 -0.798591 0
M  V30 23 H 5.27154 -0.120539 0.96038 0
M  V30 24 H -3.57544 -2.43527 -0.2806 0
M  V30 25 H -2.52354 -1.77579 -1.50618 0
M  V30 END ATOM
M  V30 BEGIN BOND
M  V30 1 1 1 2
M  V30 2 1 2 3
M  V30 3 1 3 4
M  V30 4 2 4 5
M  V30 5 1 5 6
M  V30 6 2 6 7
M  V30 7 1 7 8
M  V30 8 1 7 9
M  V30 9 2 9 10
M  V30 10 1 10 11
M  V30 11 2 11 12
M  V30 12 1 10 13
M  V30 13 1 3 14
M  V30 14 1 8 4
M  V30 15 1 12 6
M  V30 16 1 1 15
M  V30 17 1 2 16
M  V30 18 1 2 17
M  V30 19 1 3 18
M  V30 20 1 8 19
M  V30 21 1 11 20
M  V30 22 1 12 21
M  V30 23 1 13 22
M  V30 24 1 13 23
M  V30 25 1 14 24
M  V30 26 1 14 25
M  V30 END BOND
M  V30 END CTAB
M  END
