
     RDKit          3D

  0  0  0  0  0  0  0  0  0  0999 V3000
M  V30 BEGIN CTAB
M  V30 COUNTS 32 34 0 0 0
M  V30 BEGIN ATOM
M  V30 1 C 5.59403 0.196077 -1.52752 0
M  V30 2 C 4.29886 0.0329822 -0.797885 0
M  V30 3 C 4.28905 -0.376325 0.520154 0
M  V30 4 C 3.10614 -0.533078 1.2116 0
M  V30 5 C 1.90023 -0.288158 0.614745 0
M  V30 6 C 1.90602 0.120571 -0.700797 0
M  V30 7 C 3.09569 0.280615 -1.40389 0
M  V30 8 N 0.606296 0.282159 -1.01476 0
M  V30 9 C -0.156705 -0.011366 0.0501287 0
M  V30 10 N 0.630276 -0.367934 1.07238 0
M  V30 11 C -1.61829 0.0325342 0.140315 0
M  V30 12 C -2.39786 0.405698 -0.936544 0
M  V30 13 C -3.77083 0.452066 -0.868282 0
M  V30 14 N -4.56815 0.835021 -1.97381 0
M  V30 15 C -4.39732 0.108663 0.33549 0
M  V30 16 C -3.65183 -0.268791 1.43154 0
M  V30 17 C -2.2769 -0.297596 1.30648 0
M  V30 18 N -4.28798 -0.613392 2.64075 0
M  V30 19 H 6.39715 -0.320506 -0.978976 0
M  V30 20 H 5.53315 -0.171134 -2.56828 0
M  V30 21 H 5.86489 1.27364 -1.58167 0
M  V30 22 H 5.24355 -0.569834 0.991432 0
M  V30 23 H 3.08503 -0.858046 2.26014 0
M  V30 24 H 3.06375 0.602345 -2.43364 0
M  V30 25 H 0.337306 -0.658952 2.05477 0
M  V30 26 H -1.88696 0.666671 -1.85687 0
M  V30 27 H -4.60196 0.271965 -2.83801 0
M  V30 28 H -5.12753 1.69995 -1.90818 0
M  V30 29 H -5.47792 0.142096 0.399068 0
M  V30 30 H -1.68443 -0.599517 2.18382 0
M  V30 31 H -4.62227 0.130137 3.26981 0
M  V30 32 H -4.42448 -1.59856 2.90649 0
M  V30 END ATOM
M  V30 BEGIN BOND
M  V30 1 1 1 2
M  V30 2 2 2 3
M  V30 3 1 3 4
M  V30 4 2 4 5
M  V30 5 1 5 6
M  V30 6 2 6 7
M  V30 7 1 6 8
M  V30 8 2 8 9
M  V30 9 1 9 10
M  V30 10 1 9 11
M  V30 11 2 11 12
M  V30 12 1 12 13
M  V30 13 1 13 14
M  V30 14 2 13 15
M  V30 15 1 15 16
M  V30 16 2 16 17
M  V30 17 1 16 18
M  V30 18 1 7 2
M  V30 19 1 17 11
M  V30 20 1 10 5
M  V30 21 1 1 19
M  V30 22 1 1 20
M  V30 23 1 1 21
M  V30 24 1 3 22
M  V30 25 1 4 23
M  V30 26 1 7 24
M  V30 27 1 10 25
M  V30 28 1 12 26
M  V30 29 1 14 27
M  V30 30 1 14 28
M  V30 31 1 15 29
M  V30 32 1 17 30
M  V30 33 1 18 31
M  V30 34 1 18 32
M  V30 END BOND
M  V30 END CTAB
M  END
