
     RDKit          3D

  0  0  0  0  0  0  0  0  0  0999 V3000
M  V30 BEGIN CTAB
M  V30 COUNTS 45 47 0 0 0
M  V30 BEGIN ATOM
M  V30 1 C -4.1256 -2.95177 -2.16947 0
M  V30 2 O -3.62813 -3.5888 -1.07553 0
M  V30 3 C -3.44783 -2.84598 0.0633075 0
M  V30 4 C -2.46534 -1.71933 -0.222395 0
M  V30 5 C -2.29547 -0.966865 1.05472 0
M  V30 6 N -1.43273 0.145618 1.06113 0
M  V30 7 C -0.153065 0.0756995 1.40824 0
M  V30 8 S 0.604635 -1.46123 1.87587 0
M  V30 9 C 1.37923 -2.22214 0.443787 0
M  V30 10 C 2.5398 -1.42063 -0.0481112 0
M  V30 11 N 3.78613 -1.63865 0.412601 0
M  V30 12 C 4.86307 -0.94611 0.0058911 0
M  V30 13 N 6.16348 -1.17932 0.492681 0
M  V30 14 N 4.64903 0.0252711 -0.926614 0
M  V30 15 C 3.4103 0.277545 -1.41685 0
M  V30 16 N 2.38595 -0.450675 -0.966556 0
M  V30 17 N 3.29325 1.3122 -2.38499 0
M  V30 18 N 0.648551 1.1843 1.40896 0
M  V30 19 C 0.157885 2.37751 1.05598 0
M  V30 20 C -1.15872 2.51337 0.686428 0
M  V30 21 C -1.92191 1.35281 0.706037 0
M  V30 22 O -3.11205 1.42847 0.381101 0
M  V30 23 C -1.69472 3.72601 0.316597 0
M  V30 24 C -0.899091 4.83591 0.313808 0
M  V30 25 C 0.415122 4.74891 0.673413 0
M  V30 26 C 0.940763 3.52835 1.04209 0
M  V30 27 H -3.55361 -2.12886 -2.58909 0
M  V30 28 H -5.15935 -2.54771 -2.00461 0
M  V30 29 H -4.19884 -3.7158 -3.00144 0
M  V30 30 H -4.44239 -2.36935 0.283506 0
M  V30 31 H -3.12485 -3.44234 0.928019 0
M  V30 32 H -2.98433 -1.08085 -1.00648 0
M  V30 33 H -1.56753 -2.17722 -0.611952 0
M  V30 34 H -3.33706 -0.723015 1.41377 0
M  V30 35 H -1.92956 -1.72883 1.81085 0
M  V30 36 H 1.7784 -3.22797 0.767282 0
M  V30 37 H 0.726977 -2.41781 -0.401081 0
M  V30 38 H 6.33992 -1.98516 1.11667 0
M  V30 39 H 6.94624 -0.557187 0.236245 0
M  V30 40 H 2.67121 2.13201 -2.25272 0
M  V30 41 H 3.86158 1.22507 -3.25192 0
M  V30 42 H -2.7333 3.7632 0.0383665 0
M  V30 43 H -1.27601 5.83153 0.0266154 0
M  V30 44 H 1.08855 5.60644 0.686617 0
M  V30 45 H 1.99141 3.40336 1.33925 0
M  V30 END ATOM
M  V30 BEGIN BOND
M  V30 1 1 1 2
M  V30 2 1 2 3
M  V30 3 1 3 4
M  V30 4 1 4 5
M  V30 5 1 5 6
M  V30 6 1 6 7
M  V30 7 1 7 8
M  V30 8 1 8 9
M  V30 9 1 9 10
M  V30 10 2 10 11
M  V30 11 1 11 12
M  V30 12 1 12 13
M  V30 13 2 12 14
M  V30 14 1 14 15
M  V30 15 2 15 16
M  V30 16 1 15 17
M  V30 17 2 7 18
M  V30 18 1 18 19
M  V30 19 2 19 20
M  V30 20 1 20 21
M  V30 21 2 21 22
M  V30 22 1 20 23
M  V30 23 2 23 24
M  V30 24 1 24 25
M  V30 25 2 25 26
M  V30 26 1 21 6
M  V30 27 1 16 10
M  V30 28 1 26 19
M  V30 29 1 1 27
M  V30 30 1 1 28
M  V30 31 1 1 29
M  V30 32 1 3 30
M  V30 33 1 3 31
M  V30 34 1 4 32
M  V30 35 1 4 33
M  V30 36 1 5 34
M  V30 37 1 5 35
M  V30 38 1 9 36
M  V30 39 1 9 37
M  V30 40 1 13 38
M  V30 41 1 13 39
M  V30 42 1 17 40
M  V30 43 1 17 41
M  V30 44 1 23 42
M  V30 45 1 24 43
M  V30 46 1 25 44
M  V30 47 1 26 45
M  V30 END BOND
M  V30 END CTAB
M  END
