
     RDKit          3D

  0  0  0  0  0  0  0  0  0  0999 V3000
M  V30 BEGIN CTAB
M  V30 COUNTS 30 32 0 0 0
M  V30 BEGIN ATOM
M  V30 1 C -4.03853 1.89369 -0.952301 0
M  V30 2 C -2.70202 1.33066 -0.617508 0
M  V30 3 C -1.71471 2.05737 0.0127008 0
M  V30 4 N -2.01034 3.39873 0.346276 0
M  V30 5 C -0.481758 1.50123 0.309274 0
M  V30 6 C -0.186716 0.194655 -0.0129682 0
M  V30 7 C -1.17314 -0.532838 -0.643095 0
M  V30 8 C -2.41994 0.0211528 -0.945809 0
M  V30 9 N -3.41104 -0.761707 -1.5963 0
M  V30 10 C 1.12347 -0.390347 0.304198 0
M  V30 11 N 2.15231 0.223895 0.913122 0
M  V30 12 C 3.19189 -0.647328 1.02835 0
M  V30 13 C 2.72976 -1.82191 0.453609 0
M  V30 14 O 1.50231 -1.59897 0.0474948 0
M  V30 15 C 3.55994 -2.92436 0.409297 0
M  V30 16 C 4.82758 -2.83292 0.936531 0
M  V30 17 C 5.26248 -1.64099 1.50642 0
M  V30 18 N 4.42608 -0.607414 1.52521 0
M  V30 19 H -4.24616 2.83262 -0.430253 0
M  V30 20 H -4.14514 2.08889 -2.0394 0
M  V30 21 H -4.79816 1.14961 -0.604081 0
M  V30 22 H -2.77179 3.59505 1.01812 0
M  V30 23 H -1.4891 4.19357 -0.06022 0
M  V30 24 H 0.291542 2.07453 0.804276 0
M  V30 25 H -0.954177 -1.56903 -0.904545 0
M  V30 26 H -3.53386 -0.76349 -2.63085 0
M  V30 27 H -4.0242 -1.34622 -0.995265 0
M  V30 28 H 3.24808 -3.86182 -0.0270828 0
M  V30 29 H 5.52511 -3.6597 0.932658 0
M  V30 30 H 6.26022 -1.59662 1.91215 0
M  V30 END ATOM
M  V30 BEGIN BOND
M  V30 1 1 1 2
M  V30 2 2 2 3
M  V30 3 1 3 4
M  V30 4 1 3 5
M  V30 5 2 5 6
M  V30 6 1 6 7
M  V30 7 2 7 8
M  V30 8 1 8 9
M  V30 9 1 6 10
M  V30 10 2 10 11
M  V30 11 1 11 12
M  V30 12 2 12 13
M  V30 13 1 13 14
M  V30 14 1 13 15
M  V30 15 2 15 16
M  V30 16 1 16 17
M  V30 17 2 17 18
M  V30 18 1 8 2
M  V30 19 1 14 10
M  V30 20 1 18 12
M  V30 21 1 1 19
M  V30 22 1 1 20
M  V30 23 1 1 21
M  V30 24 1 4 22
M  V30 25 1 4 23
M  V30 26 1 5 24
M  V30 27 1 7 25
M  V30 28 1 9 26
M  V30 29 1 9 27
M  V30 30 1 15 28
M  V30 31 1 16 29
M  V30 32 1 17 30
M  V30 END BOND
M  V30 END CTAB
M  END
