
     RDKit          3D

  0  0  0  0  0  0  0  0  0  0999 V3000
M  V30 BEGIN CTAB
M  V30 COUNTS 44 47 0 0 0
M  V30 BEGIN ATOM
M  V30 1 N -7.26419 0.110978 1.26297 0
M  V30 2 C -6.18905 0.412692 0.877675 0
M  V30 3 C -4.87697 0.82202 0.433732 0
M  V30 4 C -4.80765 2.13841 -0.000828141 0
M  V30 5 N -5.94246 2.98111 -0.10961 0
M  V30 6 N -3.59388 2.56748 -0.313832 0
M  V30 7 C -2.49506 1.76001 -0.212227 0
M  V30 8 C -2.51534 0.451265 0.210539 0
M  V30 9 C -3.80393 -0.0212192 0.547684 0
M  V30 10 C -4.09956 -1.40123 0.914877 0
M  V30 11 C -5.15146 -2.10293 0.325875 0
M  V30 12 C -5.16561 -3.35732 0.866511 0
M  V30 13 C -4.13435 -3.39309 1.75943 0
M  V30 14 O -3.54884 -2.22474 1.74367 0
M  V30 15 C -1.32936 -0.183474 0.234039 0
M  V30 16 N -1.09886 -1.57407 0.619105 0
M  V30 17 C -0.219 0.524886 -0.159174 0
M  V30 18 S -0.849547 2.04906 -0.551542 0
M  V30 19 C 1.19831 0.0843453 -0.230654 0
M  V30 20 O 1.44754 -1.07355 0.102798 0
M  V30 21 N 2.12395 1.01977 -0.669061 0
M  V30 22 C 3.49237 0.77763 -0.806202 0
M  V30 23 C 4.39856 1.8617 -0.796319 0
M  V30 24 C 5.73065 1.64557 -0.954936 0
M  V30 25 C 6.22949 0.378531 -1.12778 0
M  V30 26 C 5.35882 -0.667307 -1.13802 0
M  V30 27 C 3.98517 -0.489149 -0.979105 0
M  V30 28 O 7.60867 0.15464 -1.29165 0
M  V30 29 C 8.42421 -0.0745929 -0.147633 0
M  V30 30 F 8.388 0.993558 0.723688 0
M  V30 31 F 9.71026 -0.317544 -0.600972 0
M  V30 32 F 8.032 -1.19658 0.551322 0
M  V30 33 H -5.88694 4.0039 0.0910502 0
M  V30 34 H -6.86822 2.60818 -0.39302 0
M  V30 35 H -5.8189 -1.72117 -0.464129 0
M  V30 36 H -5.88194 -4.1312 0.598187 0
M  V30 37 H -3.86932 -4.25282 2.36295 0
M  V30 38 H -1.2903 -2.36211 -0.0148954 0
M  V30 39 H -0.721541 -1.78132 1.56727 0
M  V30 40 H 1.81479 2.01471 -0.938176 0
M  V30 41 H 3.96222 2.84856 -0.655808 0
M  V30 42 H 6.41104 2.47649 -0.945917 0
M  V30 43 H 5.71708 -1.68101 -1.27202 0
M  V30 44 H 3.38916 -1.39317 -1.01986 0
M  V30 END ATOM
M  V30 BEGIN BOND
M  V30 1 3 1 2
M  V30 2 1 2 3
M  V30 3 2 3 4
M  V30 4 1 4 5
M  V30 5 1 4 6
M  V30 6 2 6 7
M  V30 7 1 7 8
M  V30 8 2 8 9
M  V30 9 1 9 10
M  V30 10 2 10 11
M  V30 11 1 11 12
M  V30 12 2 12 13
M  V30 13 1 13 14
M  V30 14 1 8 15
M  V30 15 1 15 16
M  V30 16 2 15 17
M  V30 17 1 17 18
M  V30 18 1 17 19
M  V30 19 2 19 20
M  V30 20 1 19 21
M  V30 21 1 21 22
M  V30 22 2 22 23
M  V30 23 1 23 24
M  V30 24 2 24 25
M  V30 25 1 25 26
M  V30 26 2 26 27
M  V30 27 1 25 28
M  V30 28 1 28 29
M  V30 29 1 29 30
M  V30 30 1 29 31
M  V30 31 1 29 32
M  V30 32 1 9 3
M  V30 33 1 14 10
M  V30 34 1 27 22
M  V30 35 1 18 7
M  V30 36 1 5 33
M  V30 37 1 5 34
M  V30 38 1 11 35
M  V30 39 1 12 36
M  V30 40 1 13 37
M  V30 41 1 16 38
M  V30 42 1 16 39
M  V30 43 1 21 40
M  V30 44 1 23 41
M  V30 45 1 24 42
M  V30 46 1 26 43
M  V30 47 1 27 44
M  V30 END BOND
M  V30 END CTAB
M  END
