
     RDKit          3D

  0  0  0  0  0  0  0  0  0  0999 V3000
M  V30 BEGIN CTAB
M  V30 COUNTS 34 36 0 0 0
M  V30 BEGIN ATOM
M  V30 1 N 3.81645 -0.935031 -1.40222 0
M  V30 2 C 3.54087 -0.48322 -0.092119 0
M  V30 3 N 4.47945 -0.310429 0.874255 0
M  V30 4 N 3.89525 -0.00225804 2.00856 0
M  V30 5 C 2.5647 0.0269291 1.78923 0
M  V30 6 C 2.30667 -0.270109 0.467837 0
M  V30 7 C 1.02234 -0.148573 -0.313974 0 CFG=2
M  V30 8 N 0.489952 1.16386 0.226583 0
M  V30 9 C -0.779608 1.54903 -0.230066 0
M  V30 10 C -1.07281 2.9114 -0.443703 0
M  V30 11 C -2.32401 3.22163 -0.915314 0
M  V30 12 C -3.25508 2.2451 -1.16669 0
M  V30 13 C -2.95646 0.901974 -0.947111 0
M  V30 14 C -1.70883 0.559297 -0.473828 0
M  V30 15 N -1.36752 -0.795707 -0.253792 0
M  V30 16 C 0.0315635 -1.18386 0.039654 0
M  V30 17 S -2.50393 -2.08589 -0.186975 0
M  V30 18 O -2.32422 -3.14244 -1.20475 0
M  V30 19 O -3.93726 -1.65456 -0.0532429 0
M  V30 20 N -2.22078 -2.83519 1.39824 0
M  V30 21 H 3.69057 -0.328896 -2.20578 0
M  V30 22 H 4.14042 -1.92021 -1.51249 0
M  V30 23 H 4.36721 0.184844 2.89904 0
M  V30 24 H 1.76731 0.254362 2.49097 0
M  V30 25 H 1.14019 -0.0141595 -1.36742 0
M  V30 26 H 1.02783 1.73668 0.887631 0
M  V30 27 H -0.295383 3.63537 -0.215714 0
M  V30 28 H -2.52743 4.28277 -1.07114 0
M  V30 29 H -4.23765 2.47909 -1.54411 0
M  V30 30 H -3.65121 0.129685 -1.16981 0
M  V30 31 H 0.151427 -2.07108 -0.689752 0
M  V30 32 H 0.111696 -1.59573 1.03957 0
M  V30 33 H -1.37908 -3.45875 1.30696 0
M  V30 34 H -2.00264 -2.04593 2.03146 0
M  V30 END ATOM
M  V30 BEGIN BOND
M  V30 1 1 1 2
M  V30 2 2 2 3
M  V30 3 1 3 4
M  V30 4 1 4 5
M  V30 5 2 5 6
M  V30 6 1 6 7
M  V30 7 1 7 8
M  V30 8 1 8 9
M  V30 9 2 9 10
M  V30 10 1 10 11
M  V30 11 2 11 12
M  V30 12 1 12 13
M  V30 13 2 13 14
M  V30 14 1 14 15
M  V30 15 1 15 16
M  V30 16 1 15 17
M  V30 17 2 17 18
M  V30 18 2 17 19
M  V30 19 1 17 20
M  V30 20 1 6 2
M  V30 21 1 16 7
M  V30 22 1 14 9
M  V30 23 1 1 21
M  V30 24 1 1 22
M  V30 25 1 4 23
M  V30 26 1 5 24
M  V30 27 1 7 25 CFG=3
M  V30 28 1 8 26
M  V30 29 1 10 27
M  V30 30 1 11 28
M  V30 31 1 12 29
M  V30 32 1 13 30
M  V30 33 1 16 31
M  V30 34 1 16 32
M  V30 35 1 20 33
M  V30 36 1 20 34
M  V30 END BOND
M  V30 END CTAB
M  END
