
     RDKit          3D

  0  0  0  0  0  0  0  0  0  0999 V3000
M  V30 BEGIN CTAB
M  V30 COUNTS 23 24 0 0 0
M  V30 BEGIN ATOM
M  V30 1 N 4.73244 0.503479 0.489279 0
M  V30 2 C 3.33433 0.290448 0.302198 0
M  V30 3 C 2.91081 -0.723988 -0.527292 0
M  V30 4 C 1.56067 -0.93597 -0.713081 0
M  V30 5 C 0.620667 -0.149488 -0.0825059 0
M  V30 6 N 1.13445 0.812691 0.705364 0
M  V30 7 N 2.40772 1.04355 0.905751 0
M  V30 8 C -0.821008 -0.303986 -0.222461 0
M  V30 9 C -1.38799 -1.26959 -1.01365 0
M  V30 10 N -2.74187 -1.35652 -1.09778 0
M  V30 11 C -3.55565 -0.524071 -0.428594 0
M  V30 12 C -3.00535 0.455722 0.373978 0
M  V30 13 C -1.63866 0.556873 0.469805 0
M  V30 14 N -3.85131 1.34622 1.09011 0
M  V30 15 H 5.27321 -0.13515 1.09292 0
M  V30 16 H 5.20253 1.29382 0.0226019 0
M  V30 17 H 3.6209 -1.3701 -1.04593 0
M  V30 18 H 1.19854 -1.72605 -1.35943 0
M  V30 19 H -0.779468 -1.97588 -1.58224 0
M  V30 20 H -4.6414 -0.590657 -0.493524 0
M  V30 21 H -1.24276 1.34888 1.11807 0
M  V30 22 H -4.06975 2.25934 0.64102 0
M  V30 23 H -4.26105 1.15042 2.01894 0
M  V30 END ATOM
M  V30 BEGIN BOND
M  V30 1 1 1 2
M  V30 2 2 2 3
M  V30 3 1 3 4
M  V30 4 2 4 5
M  V30 5 1 5 6
M  V30 6 2 6 7
M  V30 7 1 5 8
M  V30 8 2 8 9
M  V30 9 1 9 10
M  V30 10 2 10 11
M  V30 11 1 11 12
M  V30 12 2 12 13
M  V30 13 1 12 14
M  V30 14 1 7 2
M  V30 15 1 13 8
M  V30 16 1 1 15
M  V30 17 1 1 16
M  V30 18 1 3 17
M  V30 19 1 4 18
M  V30 20 1 9 19
M  V30 21 1 11 20
M  V30 22 1 13 21
M  V30 23 1 14 22
M  V30 24 1 14 23
M  V30 END BOND
M  V30 END CTAB
M  END
