
     RDKit          3D

  0  0  0  0  0  0  0  0  0  0999 V3000
M  V30 BEGIN CTAB
M  V30 COUNTS 34 35 0 0 0
M  V30 BEGIN ATOM
M  V30 1 N 2.94334 1.33048 2.43219 0
M  V30 2 C 2.94786 0.543385 1.25129 0
M  V30 3 C 1.91185 -0.332103 1.03565 0
M  V30 4 S 0.5842 -0.477763 2.21684 0
M  V30 5 S -0.789545 -1.92821 1.48459 0
M  V30 6 C -2.00037 -1.05935 0.484594 0
M  V30 7 C -3.13586 -0.579744 1.10563 0
M  V30 8 N -3.29697 -0.794907 2.50976 0
M  V30 9 C -4.08988 0.0943765 0.367373 0
M  V30 10 C -3.90188 0.28541 -0.992125 0
M  V30 11 C -2.76937 -0.193082 -1.61088 0
M  V30 12 C -1.83636 -0.858172 -0.861881 0
M  V30 13 C -4.9081 0.994976 -1.76422 0
M  V30 14 O -6.04881 1.48246 -1.16716 0
M  V30 15 O -4.75102 1.17535 -2.9963 0
M  V30 16 C 1.94859 -1.08412 -0.1268 0
M  V30 17 C 2.97763 -0.977417 -1.05263 0
M  V30 18 C 4.01031 -0.0958073 -0.824344 0
M  V30 19 C 3.96489 0.646839 0.333291 0
M  V30 20 C 5.11455 0.055335 -1.76302 0
M  V30 21 O 6.13352 0.956169 -1.49167 0
M  V30 22 O 5.16812 -0.614949 -2.82096 0
M  V30 23 H 2.48889 2.26164 2.39767 0
M  V30 24 H 3.39613 0.956916 3.30822 0
M  V30 25 H -4.1729 -1.23009 2.87063 0
M  V30 26 H -2.5566 -0.525053 3.17472 0
M  V30 27 H -4.97527 0.4651 0.866654 0
M  V30 28 H -2.63513 -0.0387302 -2.66504 0
M  V30 29 H -0.951569 -1.23103 -1.35061 0
M  V30 30 H -6.16005 1.72963 -0.20983 0
M  V30 31 H 1.1263 -1.76948 -0.282786 0
M  V30 32 H 2.96751 -1.58665 -1.95234 0
M  V30 33 H 4.7894 1.34637 0.509051 0
M  V30 34 H 6.5066 1.05222 -0.553811 0
M  V30 END ATOM
M  V30 BEGIN BOND
M  V30 1 1 1 2
M  V30 2 2 2 3
M  V30 3 1 3 4
M  V30 4 1 4 5
M  V30 5 1 5 6
M  V30 6 2 6 7
M  V30 7 1 7 8
M  V30 8 1 7 9
M  V30 9 2 9 10
M  V30 10 1 10 11
M  V30 11 2 11 12
M  V30 12 1 10 13
M  V30 13 1 13 14
M  V30 14 2 13 15
M  V30 15 1 3 16
M  V30 16 2 16 17
M  V30 17 1 17 18
M  V30 18 2 18 19
M  V30 19 1 18 20
M  V30 20 1 20 21
M  V30 21 2 20 22
M  V30 22 1 19 2
M  V30 23 1 12 6
M  V30 24 1 1 23
M  V30 25 1 1 24
M  V30 26 1 8 25
M  V30 27 1 8 26
M  V30 28 1 9 27
M  V30 29 1 11 28
M  V30 30 1 12 29
M  V30 31 1 14 30
M  V30 32 1 16 31
M  V30 33 1 17 32
M  V30 34 1 19 33
M  V30 35 1 21 34
M  V30 END BOND
M  V30 END CTAB
M  END
