
     RDKit          3D

  0  0  0  0  0  0  0  0  0  0999 V3000
M  V30 BEGIN CTAB
M  V30 COUNTS 38 39 0 0 0
M  V30 BEGIN ATOM
M  V30 1 N 1.40411 2.76185 -1.03834 0
M  V30 2 C 0.450624 1.77345 -1.50062 0
M  V30 3 C 0.0224818 0.82582 -0.385404 0
M  V30 4 C -0.629069 1.57565 0.751239 0
M  V30 5 N 0.327425 2.56257 1.30218 0
M  V30 6 C -0.662588 -0.454195 -0.812067 0
M  V30 7 C 0.663469 -0.46797 -0.167395 0
M  V30 8 S 1.99588 -1.10332 -1.11375 0
M  V30 9 O 2.05542 -2.60287 -0.836221 0
M  V30 10 O 1.84988 -0.968934 -2.57843 0
M  V30 11 C 3.55224 -0.466658 -0.509421 0
M  V30 12 C 3.68014 -0.902644 0.926601 0
M  V30 13 C -1.87849 -0.943804 -0.151663 0
M  V30 14 C -1.90482 -1.38324 1.14689 0
M  V30 15 C -3.06491 -1.82857 1.72544 0
M  V30 16 C -4.21996 -1.82807 0.972155 0
M  V30 17 C -4.25751 -1.39814 -0.339843 0
M  V30 18 C -3.05988 -0.961569 -0.867558 0
M  V30 19 H 2.27436 2.77316 -1.61043 0
M  V30 20 H 0.991505 3.70919 -0.926258 0
M  V30 21 H 0.871024 1.26659 -2.37272 0
M  V30 22 H -0.483515 2.35149 -1.76033 0
M  V30 23 H -0.93965 0.981273 1.6001 0
M  V30 24 H -1.49115 2.17486 0.40848 0
M  V30 25 H 1.11838 1.98413 1.67013 0
M  V30 26 H -0.161607 3.02942 2.09981 0
M  V30 27 H -0.682519 -0.557154 -1.94664 0
M  V30 28 H 0.753453 -0.755498 0.923653 0
M  V30 29 H 4.37124 -0.860477 -1.14788 0
M  V30 30 H 3.52414 0.632829 -0.546565 0
M  V30 31 H 3.09111 -1.84363 1.11272 0
M  V30 32 H 4.72905 -1.14234 1.20486 0
M  V30 33 H 3.23886 -0.137294 1.61604 0
M  V30 34 H -1.01519 -1.39955 1.7675 0
M  V30 35 H -3.08973 -2.18181 2.76716 0
M  V30 36 H -5.14212 -2.18618 1.44439 0
M  V30 37 H -5.18335 -1.40586 -0.919478 0
M  V30 38 H -3.09873 -0.622475 -1.90836 0
M  V30 END ATOM
M  V30 BEGIN BOND
M  V30 1 1 1 2
M  V30 2 1 2 3
M  V30 3 1 3 4
M  V30 4 1 4 5
M  V30 5 1 3 6
M  V30 6 1 6 7
M  V30 7 1 7 8
M  V30 8 2 8 9
M  V30 9 2 8 10
M  V30 10 1 8 11
M  V30 11 1 11 12
M  V30 12 1 6 13
M  V30 13 2 13 14
M  V30 14 1 14 15
M  V30 15 2 15 16
M  V30 16 1 16 17
M  V30 17 2 17 18
M  V30 18 1 7 3
M  V30 19 1 18 13
M  V30 20 1 1 19
M  V30 21 1 1 20
M  V30 22 1 2 21
M  V30 23 1 2 22
M  V30 24 1 4 23
M  V30 25 1 4 24
M  V30 26 1 5 25
M  V30 27 1 5 26
M  V30 28 1 6 27
M  V30 29 1 7 28
M  V30 30 1 11 29
M  V30 31 1 11 30
M  V30 32 1 12 31
M  V30 33 1 12 32
M  V30 34 1 12 33
M  V30 35 1 14 34
M  V30 36 1 15 35
M  V30 37 1 16 36
M  V30 38 1 17 37
M  V30 39 1 18 38
M  V30 END BOND
M  V30 END CTAB
M  END
