
     RDKit          3D

  0  0  0  0  0  0  0  0  0  0999 V3000
M  V30 BEGIN CTAB
M  V30 COUNTS 38 39 0 0 0
M  V30 BEGIN ATOM
M  V30 1 C -3.88531 -0.718286 0.517055 0
M  V30 2 C -2.58829 0.15997 0.683291 0
M  V30 3 C -2.79116 0.819508 1.98627 0
M  V30 4 N -2.81927 1.17719 -0.403715 0
M  V30 5 C -2.60609 0.832124 -1.61612 0
M  V30 6 N -2.82844 1.75368 -2.69094 0
M  V30 7 N -1.93461 -0.393018 -1.93952 0
M  V30 8 C -1.49759 -1.17172 -1.02934 0
M  V30 9 N -0.867688 -2.40269 -1.29843 0
M  V30 10 N -1.48892 -0.556382 0.343817 0
M  V30 11 O -0.224725 -0.79049 0.868375 0
M  V30 12 C 0.308049 0.362159 1.36863 0
M  V30 13 C 1.4393 0.895607 0.571408 0
M  V30 14 C 2.67591 0.219532 0.381471 0
M  V30 15 C 2.85786 -1.06742 0.00871486 0
M  V30 16 C 4.10344 -1.52024 -0.413831 0
M  V30 17 C 5.22157 -0.663407 -0.467955 0
M  V30 18 Cl 6.78714 -1.22611 -1.00135 0
M  V30 19 C 5.04847 0.632865 -0.0976332 0
M  V30 20 Cl 6.40618 1.73537 -0.170546 0
M  V30 21 C 3.83502 1.07295 0.317829 0
M  V30 22 H -3.89548 -1.56803 1.15637 0
M  V30 23 H -3.93627 -1.05172 -0.520635 0
M  V30 24 H -4.72393 -0.0141234 0.731228 0
M  V30 25 H -2.32978 1.85913 2.08156 0
M  V30 26 H -2.46762 0.169332 2.8206 0
M  V30 27 H -3.91555 0.947042 2.12615 0
M  V30 28 H -2.45847 1.58799 -3.62416 0
M  V30 29 H -3.3992 2.63034 -2.51428 0
M  V30 30 H -1.22092 -3.2918 -0.927928 0
M  V30 31 H -0.00388504 -2.39839 -1.91901 0
M  V30 32 H -0.367524 1.07248 1.79583 0
M  V30 33 H 0.834385 -0.061828 2.34728 0
M  V30 34 H 1.6578 1.92623 1.06335 0
M  V30 35 H 1.08992 1.2453 -0.449971 0
M  V30 36 H 2.01508 -1.78519 0.0179409 0
M  V30 37 H 4.21632 -2.55019 -0.701719 0
M  V30 38 H 3.75426 2.13222 0.599935 0
M  V30 END ATOM
M  V30 BEGIN BOND
M  V30 1 1 1 2
M  V30 2 1 2 3
M  V30 3 1 2 4
M  V30 4 2 4 5
M  V30 5 1 5 6
M  V30 6 1 5 7
M  V30 7 2 7 8
M  V30 8 1 8 9
M  V30 9 1 8 10
M  V30 10 1 10 11
M  V30 11 1 11 12
M  V30 12 1 12 13
M  V30 13 1 13 14
M  V30 14 2 14 15
M  V30 15 1 15 16
M  V30 16 2 16 17
M  V30 17 1 17 18
M  V30 18 1 17 19
M  V30 19 1 19 20
M  V30 20 2 19 21
M  V30 21 1 10 2
M  V30 22 1 21 14
M  V30 23 1 1 22
M  V30 24 1 1 23
M  V30 25 1 1 24
M  V30 26 1 3 25
M  V30 27 1 3 26
M  V30 28 1 3 27
M  V30 29 1 6 28
M  V30 30 1 6 29
M  V30 31 1 9 30
M  V30 32 1 9 31
M  V30 33 1 12 32
M  V30 34 1 12 33
M  V30 35 1 13 34
M  V30 36 1 13 35
M  V30 37 1 15 36
M  V30 38 1 16 37
M  V30 39 1 21 38
M  V30 END BOND
M  V30 END CTAB
M  END
