
     RDKit          3D

  0  0  0  0  0  0  0  0  0  0999 V3000
M  V30 BEGIN CTAB
M  V30 COUNTS 48 49 0 0 0
M  V30 BEGIN ATOM
M  V30 1 N -0.658676 -2.22462 0.69659 0
M  V30 2 C -0.617642 -0.757677 0.561424 0
M  V30 3 C -1.97858 -0.234264 0.262679 0
M  V30 4 C -3.09178 -0.678349 0.973131 0
M  V30 5 C -4.35244 -0.192415 0.6927 0
M  V30 6 C -4.57688 0.746817 -0.292864 0
M  V30 7 C -3.47893 1.1903 -0.999642 0
M  V30 8 C -2.19454 0.701964 -0.72136 0
M  V30 9 C -5.94727 1.2517 -0.572043 0
M  V30 10 C -6.50737 1.96454 0.638351 0
M  V30 11 C -6.84281 0.137602 -1.05327 0
M  V30 12 C 0.383597 -0.455861 -0.497598 0
M  V30 13 N 1.67552 -0.979494 -0.101506 0
M  V30 14 C 2.82823 -0.840116 -0.91886 0
M  V30 15 O 2.75073 -0.256097 -2.00914 0
M  V30 16 C 4.12162 -1.38418 -0.484109 0
M  V30 17 C 5.20105 -0.371827 -0.488787 0
M  V30 18 C 5.28194 0.519202 0.551869 0
M  V30 19 C 6.26282 1.48251 0.60298 0
M  V30 20 C 7.19749 1.54644 -0.438937 0
M  V30 21 C 7.1323 0.660937 -1.4914 0
M  V30 22 C 6.13054 -0.294582 -1.50746 0
M  V30 23 N 3.96507 -2.01242 0.801613 0
M  V30 24 H -0.524817 -2.69357 -0.221561 0
M  V30 25 H 0.0895802 -2.55669 1.34523 0
M  V30 26 H -0.264538 -0.341205 1.52813 0
M  V30 27 H -2.93943 -1.40781 1.74298 0
M  V30 28 H -5.23748 -0.535951 1.24709 0
M  V30 29 H -3.58486 1.92332 -1.7827 0
M  V30 30 H -1.34051 1.06685 -1.29462 0
M  V30 31 H -5.86263 1.99915 -1.4089 0
M  V30 32 H -7.17052 1.34577 1.24754 0
M  V30 33 H -5.66812 2.34817 1.28598 0
M  V30 34 H -7.03888 2.88701 0.297462 0
M  V30 35 H -7.32992 -0.361021 -0.200666 0
M  V30 36 H -7.56997 0.483441 -1.81553 0
M  V30 37 H -6.19213 -0.612364 -1.54826 0
M  V30 38 H 0.48615 0.667033 -0.53822 0
M  V30 39 H 0.0566006 -0.786626 -1.48585 0
M  V30 40 H 1.75545 -1.46779 0.802913 0
M  V30 41 H 4.40689 -2.21356 -1.19467 0
M  V30 42 H 4.56392 0.46632 1.34745 0
M  V30 43 H 6.33677 2.18952 1.41699 0
M  V30 44 H 7.9923 2.29729 -0.435476 0
M  V30 45 H 7.82245 0.661714 -2.32003 0
M  V30 46 H 6.03764 -1.01333 -2.31369 0
M  V30 47 H 3.66429 -1.35738 1.53469 0
M  V30 48 H 4.82781 -2.50841 1.12392 0
M  V30 END ATOM
M  V30 BEGIN BOND
M  V30 1 1 1 2
M  V30 2 1 2 3
M  V30 3 2 3 4
M  V30 4 1 4 5
M  V30 5 2 5 6
M  V30 6 1 6 7
M  V30 7 2 7 8
M  V30 8 1 6 9
M  V30 9 1 9 10
M  V30 10 1 9 11
M  V30 11 1 2 12
M  V30 12 1 12 13
M  V30 13 1 13 14
M  V30 14 2 14 15
M  V30 15 1 14 16
M  V30 16 1 16 17
M  V30 17 2 17 18
M  V30 18 1 18 19
M  V30 19 2 19 20
M  V30 20 1 20 21
M  V30 21 2 21 22
M  V30 22 1 16 23
M  V30 23 1 8 3
M  V30 24 1 22 17
M  V30 25 1 1 24
M  V30 26 1 1 25
M  V30 27 1 2 26
M  V30 28 1 4 27
M  V30 29 1 5 28
M  V30 30 1 7 29
M  V30 31 1 8 30
M  V30 32 1 9 31
M  V30 33 1 10 32
M  V30 34 1 10 33
M  V30 35 1 10 34
M  V30 36 1 11 35
M  V30 37 1 11 36
M  V30 38 1 11 37
M  V30 39 1 12 38
M  V30 40 1 12 39
M  V30 41 1 13 40
M  V30 42 1 16 41
M  V30 43 1 18 42
M  V30 44 1 19 43
M  V30 45 1 20 44
M  V30 46 1 21 45
M  V30 47 1 22 46
M  V30 48 1 23 47
M  V30 49 1 23 48
M  V30 END BOND
M  V30 END CTAB
M  END
