
     RDKit          3D

  0  0  0  0  0  0  0  0  0  0999 V3000
M  V30 BEGIN CTAB
M  V30 COUNTS 24 24 0 0 0
M  V30 BEGIN ATOM
M  V30 1 N -4.96226 -0.0133057 -0.393631 0
M  V30 2 C -3.57526 0.013657 0.0682803 0
M  V30 3 S -3.36577 0.166566 1.65677 0
M  V30 4 N -2.54823 -0.123268 -0.857974 0
M  V30 5 C -1.18092 -0.100004 -0.573212 0
M  V30 6 C -0.602654 0.642306 0.421147 0
M  V30 7 C 0.772603 0.542518 0.62113 0
M  V30 8 C 1.57096 -0.277644 -0.149103 0
M  V30 9 C 0.960933 -1.0344 -1.16928 0
M  V30 10 C -0.386241 -0.940666 -1.36902 0
M  V30 11 Cl 1.95166 -2.08528 -2.16467 0
M  V30 12 N 2.96339 -0.413087 0.0133974 0
M  V30 13 C 3.83805 0.192686 0.918962 0
M  V30 14 S 5.4615 -0.224206 0.80718 0
M  V30 15 N 3.48739 1.13127 1.93 0
M  V30 16 H -5.71905 -0.336314 0.211727 0
M  V30 17 H -5.16895 0.304039 -1.35619 0
M  V30 18 H -2.82558 -0.254686 -1.88309 0
M  V30 19 H -1.19253 1.30851 1.02487 0
M  V30 20 H 1.17721 1.14774 1.41786 0
M  V30 21 H -0.816011 -1.53694 -2.1612 0
M  V30 22 H 3.45524 -1.09203 -0.663182 0
M  V30 23 H 3.45406 2.14883 1.72985 0
M  V30 24 H 3.25047 0.833711 2.91046 0
M  V30 END ATOM
M  V30 BEGIN BOND
M  V30 1 1 1 2
M  V30 2 2 2 3
M  V30 3 1 2 4
M  V30 4 1 4 5
M  V30 5 2 5 6
M  V30 6 1 6 7
M  V30 7 2 7 8
M  V30 8 1 8 9
M  V30 9 2 9 10
M  V30 10 1 9 11
M  V30 11 1 8 12
M  V30 12 1 12 13
M  V30 13 2 13 14
M  V30 14 1 13 15
M  V30 15 1 10 5
M  V30 16 1 1 16
M  V30 17 1 1 17
M  V30 18 1 4 18
M  V30 19 1 6 19
M  V30 20 1 7 20
M  V30 21 1 10 21
M  V30 22 1 12 22
M  V30 23 1 15 23
M  V30 24 1 15 24
M  V30 END BOND
M  V30 END CTAB
M  END
