
     RDKit          3D

  0  0  0  0  0  0  0  0  0  0999 V3000
M  V30 BEGIN CTAB
M  V30 COUNTS 44 46 0 0 0
M  V30 BEGIN ATOM
M  V30 1 C 7.02391 -2.20772 -0.711109 0
M  V30 2 C 6.29394 -1.0632 -0.0032844 0
M  V30 3 N 6.59364 0.136273 -0.723618 0
M  V30 4 S 5.82023 1.50886 -0.0147962 0
M  V30 5 O 6.29487 1.66441 1.40913 0
M  V30 6 O 6.12867 2.76325 -0.775999 0
M  V30 7 C 4.10278 1.24622 -0.0910643 0
M  V30 8 C 3.3904 1.67456 -1.1882 0
M  V30 9 C 2.04337 1.4997 -1.3091 0
M  V30 10 C 1.31135 0.866547 -0.307346 0
M  V30 11 C 2.01479 0.436994 0.787775 0
M  V30 12 C 3.40083 0.620419 0.905937 0
M  V30 13 N -0.0773027 0.667329 -0.443038 0
M  V30 14 C -0.977094 0.386209 0.593932 0
M  V30 15 O -0.695843 0.274074 1.79743 0
M  V30 16 C -2.39623 0.212887 0.166217 0
M  V30 17 S -3.06133 0.30987 -1.3952 0
M  V30 18 C -4.69688 -0.0039026 -1.01926 0
M  V30 19 C -4.67329 -0.177478 0.334881 0
M  V30 20 C -3.47319 -0.064518 0.954261 0
M  V30 21 N -3.28139 -0.221741 2.39146 0
M  V30 22 C -5.92884 -0.457112 0.918883 0
M  V30 23 C -7.041 -0.533564 0.128947 0
M  V30 24 C -7.04107 -0.355383 -1.23128 0
M  V30 25 N -5.84326 -0.0904001 -1.77473 0
M  V30 26 N -8.22157 -0.443179 -2.01911 0
M  V30 27 C -8.30144 -0.823601 0.786143 0
M  V30 28 N -9.31673 -1.05836 1.29523 0
M  V30 29 H 7.19924 -2.98996 0.0369022 0
M  V30 30 H 8.02092 -1.86071 -1.06512 0
M  V30 31 H 6.43436 -2.58217 -1.57563 0
M  V30 32 H 5.2001 -1.24175 -0.0077789 0
M  V30 33 H 6.6618 -1.0051 1.02196 0
M  V30 34 H 6.44032 0.0828542 -1.73474 0
M  V30 35 H 3.9373 2.17751 -1.99603 0
M  V30 36 H 1.47254 1.83641 -2.172 0
M  V30 37 H 1.54129 -0.0837283 1.62504 0
M  V30 38 H 3.94619 0.277652 1.77532 0
M  V30 39 H -0.42233 0.745452 -1.4609 0
M  V30 40 H -2.85983 0.536088 2.96152 0
M  V30 41 H -3.56402 -1.09737 2.87162 0
M  V30 42 H -6.02142 -0.613366 1.99738 0
M  V30 43 H -8.25944 -0.956096 -2.93047 0
M  V30 44 H -9.11933 0.00682915 -1.72056 0
M  V30 END ATOM
M  V30 BEGIN BOND
M  V30 1 1 1 2
M  V30 2 1 2 3
M  V30 3 1 3 4
M  V30 4 2 4 5
M  V30 5 2 4 6
M  V30 6 1 4 7
M  V30 7 2 7 8
M  V30 8 1 8 9
M  V30 9 2 9 10
M  V30 10 1 10 11
M  V30 11 2 11 12
M  V30 12 1 10 13
M  V30 13 1 13 14
M  V30 14 2 14 15
M  V30 15 1 14 16
M  V30 16 1 16 17
M  V30 17 1 17 18
M  V30 18 2 18 19
M  V30 19 1 19 20
M  V30 20 1 20 21
M  V30 21 1 19 22
M  V30 22 2 22 23
M  V30 23 1 23 24
M  V30 24 2 24 25
M  V30 25 1 24 26
M  V30 26 1 23 27
M  V30 27 3 27 28
M  V30 28 1 12 7
M  V30 29 2 20 16
M  V30 30 1 25 18
M  V30 31 1 1 29
M  V30 32 1 1 30
M  V30 33 1 1 31
M  V30 34 1 2 32
M  V30 35 1 2 33
M  V30 36 1 3 34
M  V30 37 1 8 35
M  V30 38 1 9 36
M  V30 39 1 11 37
M  V30 40 1 12 38
M  V30 41 1 13 39
M  V30 42 1 21 40
M  V30 43 1 21 41
M  V30 44 1 22 42
M  V30 45 1 26 43
M  V30 46 1 26 44
M  V30 END BOND
M  V30 END CTAB
M  END
