
     RDKit          3D

  0  0  0  0  0  0  0  0  0  0999 V3000
M  V30 BEGIN CTAB
M  V30 COUNTS 23 24 0 0 0
M  V30 BEGIN ATOM
M  V30 1 N -3.26276 1.73226 1.16394 0
M  V30 2 C -3.41024 0.311749 1.18388 0
M  V30 3 C -2.34379 -0.396248 0.440262 0
M  V30 4 N -2.22538 -1.72704 0.289668 0
M  V30 5 N -1.15154 -1.99359 -0.434848 0
M  V30 6 N -0.542833 -0.870972 -0.77634 0
M  V30 7 C -1.26691 0.129716 -0.243208 0
M  V30 8 C 0.658421 -0.716402 -1.56221 0
M  V30 9 C 1.88901 -0.720579 -0.697046 0
M  V30 10 O 2.6124 -1.75129 -0.335565 0
M  V30 11 N 3.60648 -1.37106 0.418198 0
M  V30 12 C 3.55217 -0.0369272 0.570833 0
M  V30 13 N 2.47323 0.354076 -0.132299 0
M  V30 14 N 4.46048 0.770129 1.32528 0
M  V30 15 H -4.19309 2.24275 1.19842 0
M  V30 16 H -2.80415 2.01383 0.273122 0
M  V30 17 H -4.37147 0.076965 0.63944 0
M  V30 18 H -3.55846 -0.112384 2.2051 0
M  V30 19 H -1.04081 1.18762 -0.335227 0
M  V30 20 H 0.738217 -1.48777 -2.35611 0
M  V30 21 H 0.626228 0.265584 -2.07598 0
M  V30 22 H 5.0684 1.47407 0.84903 0
M  V30 23 H 4.48639 0.625523 2.35098 0
M  V30 END ATOM
M  V30 BEGIN BOND
M  V30 1 1 1 2
M  V30 2 1 2 3
M  V30 3 1 3 4
M  V30 4 2 4 5
M  V30 5 1 5 6
M  V30 6 1 6 7
M  V30 7 1 6 8
M  V30 8 1 8 9
M  V30 9 1 9 10
M  V30 10 1 10 11
M  V30 11 2 11 12
M  V30 12 1 12 13
M  V30 13 1 12 14
M  V30 14 2 7 3
M  V30 15 2 13 9
M  V30 16 1 1 15
M  V30 17 1 1 16
M  V30 18 1 2 17
M  V30 19 1 2 18
M  V30 20 1 7 19
M  V30 21 1 8 20
M  V30 22 1 8 21
M  V30 23 1 14 22
M  V30 24 1 14 23
M  V30 END BOND
M  V30 END CTAB
M  END
