
     RDKit          3D

  0  0  0  0  0  0  0  0  0  0999 V3000
M  V30 BEGIN CTAB
M  V30 COUNTS 16 16 0 0 0
M  V30 BEGIN ATOM
M  V30 1 N -1.81607 -1.88137 0.440266 0
M  V30 2 N -1.92743 -0.521328 0.300537 0
M  V30 3 C -1.03786 0.343293 0.0898276 0
M  V30 4 C 0.379259 0.101344 -0.0626426 0
M  V30 5 C 1.10431 -1.06357 -0.0228958 0
M  V30 6 O 2.40083 -0.819094 -0.215068 0
M  V30 7 C 2.58265 0.464998 -0.383372 0
M  V30 8 C 1.35652 1.07905 -0.297234 0
M  V30 9 N -1.50829 1.69933 -0.00386735 0
M  V30 10 H -1.45783 -2.29808 1.34715 0
M  V30 11 H -2.07749 -2.52599 -0.331099 0
M  V30 12 H 0.675867 -2.05904 0.144061 0
M  V30 13 H 3.56158 0.94923 -0.562361 0
M  V30 14 H 1.13303 2.12703 -0.3874 0
M  V30 15 H -1.83022 2.18751 0.848029 0
M  V30 16 H -1.53887 2.21668 -0.903927 0
M  V30 END ATOM
M  V30 BEGIN BOND
M  V30 1 1 1 2
M  V30 2 2 2 3 CFG=2
M  V30 3 1 3 4
M  V30 4 2 4 5
M  V30 5 1 5 6
M  V30 6 1 6 7
M  V30 7 2 7 8
M  V30 8 1 3 9
M  V30 9 1 8 4
M  V30 10 1 1 10
M  V30 11 1 1 11
M  V30 12 1 5 12
M  V30 13 1 7 13
M  V30 14 1 8 14
M  V30 15 1 9 15
M  V30 16 1 9 16
M  V30 END BOND
M  V30 END CTAB
M  END
