
     RDKit          3D

  0  0  0  0  0  0  0  0  0  0999 V3000
M  V30 BEGIN CTAB
M  V30 COUNTS 22 21 0 0 0
M  V30 BEGIN ATOM
M  V30 1 C -0.116915 2.53264 0.277394 0
M  V30 2 C -0.950436 1.2846 0.416454 0
M  V30 3 C -0.302963 0.109659 -0.261728 0
M  V30 4 C 1.02784 -0.210785 0.2878 0
M  V30 5 O 1.48643 0.478372 1.22114 0
M  V30 6 N 1.78394 -1.28435 -0.229494 0
M  V30 7 N 3.04 -1.65198 0.228582 0
M  V30 8 C -1.14937 -1.13532 -0.198791 0
M  V30 9 N -2.43793 -0.973183 -0.830616 0
M  V30 10 H 0.0830572 2.95964 1.30185 0
M  V30 11 H -0.644294 3.32166 -0.296758 0
M  V30 12 H 0.837264 2.3453 -0.25514 0
M  V30 13 H -1.15396 1.08399 1.49251 0
M  V30 14 H -1.92353 1.47468 -0.0807295 0
M  V30 15 H -0.159156 0.385546 -1.32551 0
M  V30 16 H 1.39535 -1.8741 -1.02597 0
M  V30 17 H 3.80254 -1.40967 -0.437994 0
M  V30 18 H 3.23456 -1.33297 1.20182 0
M  V30 19 H -0.617426 -1.96269 -0.709614 0
M  V30 20 H -1.33616 -1.46501 0.843686 0
M  V30 21 H -3.22684 -0.908472 -0.145117 0
M  V30 22 H -2.67201 -1.76756 -1.47378 0
M  V30 END ATOM
M  V30 BEGIN BOND
M  V30 1 1 1 2
M  V30 2 1 2 3
M  V30 3 1 3 4
M  V30 4 2 4 5
M  V30 5 1 4 6
M  V30 6 1 6 7
M  V30 7 1 3 8
M  V30 8 1 8 9
M  V30 9 1 1 10
M  V30 10 1 1 11
M  V30 11 1 1 12
M  V30 12 1 2 13
M  V30 13 1 2 14
M  V30 14 1 3 15
M  V30 15 1 6 16
M  V30 16 1 7 17
M  V30 17 1 7 18
M  V30 18 1 8 19
M  V30 19 1 8 20
M  V30 20 1 9 21
M  V30 21 1 9 22
M  V30 END BOND
M  V30 END CTAB
M  END
