
     RDKit          3D

  0  0  0  0  0  0  0  0  0  0999 V3000
M  V30 BEGIN CTAB
M  V30 COUNTS 24 24 0 0 0
M  V30 BEGIN ATOM
M  V30 1 F -3.66975 0.823239 1.40343 0
M  V30 2 C -2.52544 0.0495614 1.11073 0
M  V30 3 C -2.35077 0.0783011 -0.374132 0
M  V30 4 C -1.21604 -0.677925 -0.931735 0
M  V30 5 C 0.130532 -0.311105 -0.50575 0
M  V30 6 N 0.996938 0.591766 -0.996601 0
M  V30 7 N 2.12645 0.592901 -0.320576 0
M  V30 8 C 2.00217 -0.333569 0.641691 0
M  V30 9 N 0.781935 -0.882405 0.52418 0
M  V30 10 N 2.91738 -0.733361 1.63787 0
M  V30 11 C 3.31504 1.39762 -0.508422 0
M  V30 12 N -3.59208 -0.471238 -0.942384 0
M  V30 13 F -1.45835 0.620789 1.78713 0
M  V30 14 H -2.74707 -0.966701 1.44672 0
M  V30 15 H -2.27587 1.13492 -0.747599 0
M  V30 16 H -1.21304 -0.622894 -2.05913 0
M  V30 17 H -1.37096 -1.78454 -0.744464 0
M  V30 18 H 2.76262 -0.467453 2.61501 0
M  V30 19 H 3.73477 -1.29097 1.36904 0
M  V30 20 H 3.98189 1.01257 -1.29709 0
M  V30 21 H 3.8868 1.51455 0.42526 0
M  V30 22 H 2.95592 2.4207 -0.782437 0
M  V30 23 H -3.53075 -1.50734 -0.808878 0
M  V30 24 H -3.64232 -0.187398 -1.94187 0
M  V30 END ATOM
M  V30 BEGIN BOND
M  V30 1 1 1 2
M  V30 2 1 2 3
M  V30 3 1 3 4
M  V30 4 1 4 5
M  V30 5 2 5 6
M  V30 6 1 6 7
M  V30 7 1 7 8
M  V30 8 2 8 9
M  V30 9 1 8 10
M  V30 10 1 7 11
M  V30 11 1 3 12
M  V30 12 1 2 13
M  V30 13 1 9 5
M  V30 14 1 2 14
M  V30 15 1 3 15
M  V30 16 1 4 16
M  V30 17 1 4 17
M  V30 18 1 10 18
M  V30 19 1 10 19
M  V30 20 1 11 20
M  V30 21 1 11 21
M  V30 22 1 11 22
M  V30 23 1 12 23
M  V30 24 1 12 24
M  V30 END BOND
M  V30 END CTAB
M  END
