
     RDKit          3D

  0  0  0  0  0  0  0  0  0  0999 V3000
M  V30 BEGIN CTAB
M  V30 COUNTS 22 22 0 0 0
M  V30 BEGIN ATOM
M  V30 1 N 3.44405 -1.49522 0.150602 0
M  V30 2 S 2.07877 -1.24721 1.17593 0
M  V30 3 O 1.3163 -2.53582 1.25127 0
M  V30 4 O 2.51817 -0.90191 2.57823 0
M  V30 5 C 1.01927 0.00572666 0.539429 0
M  V30 6 C -0.295702 -0.296117 0.222274 0
M  V30 7 C -1.14863 0.661446 -0.277689 0
M  V30 8 C -0.722249 1.97031 -0.483802 0
M  V30 9 Br -1.96561 3.20391 -1.17124 0
M  V30 10 C 0.578698 2.25256 -0.16584 0
M  V30 11 C 1.45005 1.29125 0.34061 0
M  V30 12 Br 3.25132 1.74628 0.765302 0
M  V30 13 S -2.78917 0.204016 -0.652727 0
M  V30 14 N -3.00582 -1.4449 -0.296966 0
M  V30 15 O -2.99826 0.498533 -2.12684 0
M  V30 16 O -3.76456 1.0749 0.123632 0
M  V30 17 H 3.5529 -0.713518 -0.544703 0
M  V30 18 H 3.3987 -2.42215 -0.292266 0
M  V30 19 H -0.621672 -1.32319 0.386591 0
M  V30 20 H 0.929828 3.25568 -0.316516 0
M  V30 21 H -3.96476 -1.79612 -0.456563 0
M  V30 22 H -2.26159 -1.98847 -0.748726 0
M  V30 END ATOM
M  V30 BEGIN BOND
M  V30 1 1 1 2
M  V30 2 2 2 3
M  V30 3 2 2 4
M  V30 4 1 2 5
M  V30 5 2 5 6
M  V30 6 1 6 7
M  V30 7 2 7 8
M  V30 8 1 8 9
M  V30 9 1 8 10
M  V30 10 2 10 11
M  V30 11 1 11 12
M  V30 12 1 7 13
M  V30 13 1 13 14
M  V30 14 2 13 15
M  V30 15 2 13 16
M  V30 16 1 11 5
M  V30 17 1 1 17
M  V30 18 1 1 18
M  V30 19 1 6 19
M  V30 20 1 10 20
M  V30 21 1 14 21
M  V30 22 1 14 22
M  V30 END BOND
M  V30 END CTAB
M  END
