
     RDKit          3D

  0  0  0  0  0  0  0  0  0  0999 V3000
M  V30 BEGIN CTAB
M  V30 COUNTS 36 37 0 0 0
M  V30 BEGIN ATOM
M  V30 1 N 5.01736 -0.3117 -1.24172 0
M  V30 2 C 3.94857 0.232348 -0.469977 0
M  V30 3 C 2.6297 -0.332088 -0.78145 0
M  V30 4 O 2.52467 -1.21109 -1.65931 0
M  V30 5 N 1.47861 0.104301 -0.103112 0
M  V30 6 C 0.146792 -0.386202 -0.336374 0
M  V30 7 C -0.440838 -1.08386 0.848718 0
M  V30 8 C -1.49373 -2.05131 0.284114 0
M  V30 9 C -2.12601 -1.50942 -0.951957 0
M  V30 10 C -2.16455 -0.0118534 -1.03007 0
M  V30 11 C -0.821153 0.636227 -0.818816 0
M  V30 12 C -0.979819 1.71218 0.207315 0
M  V30 13 C -0.99742 1.25324 1.61423 0
M  V30 14 C -1.11373 -0.206259 1.83543 0
M  V30 15 N -2.11564 1.88885 2.33217 0
M  V30 16 H 5.80902 0.337192 -1.39931 0
M  V30 17 H 4.73825 -0.827147 -2.09012 0
M  V30 18 H 4.14153 0.0253107 0.617442 0
M  V30 19 H 3.96656 1.34669 -0.620741 0
M  V30 20 H 1.58058 0.838902 0.627593 0
M  V30 21 H 0.239399 -1.16316 -1.1519 0
M  V30 22 H 0.380081 -1.67904 1.33502 0
M  V30 23 H -0.94468 -2.98896 0.066428 0
M  V30 24 H -2.25228 -2.23814 1.09504 0
M  V30 25 H -3.17483 -1.86806 -1.00116 0
M  V30 26 H -1.62306 -1.93833 -1.86361 0
M  V30 27 H -2.94634 0.365052 -0.340115 0
M  V30 28 H -2.52694 0.24033 -2.06621 0
M  V30 29 H -0.474602 1.12321 -1.76501 0
M  V30 30 H -0.205614 2.52223 0.0647667 0
M  V30 31 H -1.95214 2.2369 -0.0255051 0
M  V30 32 H -0.0845061 1.65729 2.1428 0
M  V30 33 H -0.69242 -0.420559 2.86283 0
M  V30 34 H -2.20805 -0.46202 1.95361 0
M  V30 35 H -2.27491 2.83045 1.93176 0
M  V30 36 H -2.98785 1.3385 2.24517 0
M  V30 END ATOM
M  V30 BEGIN BOND
M  V30 1 1 1 2
M  V30 2 1 2 3
M  V30 3 2 3 4
M  V30 4 1 3 5
M  V30 5 1 5 6
M  V30 6 1 6 7
M  V30 7 1 7 8
M  V30 8 1 8 9
M  V30 9 1 9 10
M  V30 10 1 10 11
M  V30 11 1 11 12
M  V30 12 1 12 13
M  V30 13 1 13 14
M  V30 14 1 13 15
M  V30 15 1 11 6
M  V30 16 1 14 7
M  V30 17 1 1 16
M  V30 18 1 1 17
M  V30 19 1 2 18
M  V30 20 1 2 19
M  V30 21 1 5 20
M  V30 22 1 6 21
M  V30 23 1 7 22
M  V30 24 1 8 23
M  V30 25 1 8 24
M  V30 26 1 9 25
M  V30 27 1 9 26
M  V30 28 1 10 27
M  V30 29 1 10 28
M  V30 30 1 11 29
M  V30 31 1 12 30
M  V30 32 1 12 31
M  V30 33 1 13 32
M  V30 34 1 14 33
M  V30 35 1 14 34
M  V30 36 1 15 35
M  V30 37 1 15 36
M  V30 END BOND
M  V30 END CTAB
M  END
