
     RDKit          3D

  0  0  0  0  0  0  0  0  0  0999 V3000
M  V30 BEGIN CTAB
M  V30 COUNTS 50 51 0 0 0
M  V30 BEGIN ATOM
M  V30 1 C -4.66741 -1.42053 2.14492 0
M  V30 2 C -3.83619 -0.230293 1.72017 0
M  V30 3 C -3.88874 0.763678 2.8852 0
M  V30 4 O -2.51185 -0.55246 1.53779 0
M  V30 5 P -1.98988 -0.1994 -0.0476264 0
M  V30 6 O -1.61111 1.27072 0.00264696 0
M  V30 7 C -0.512657 -1.22656 -0.337711 0
M  V30 8 O 0.452672 -0.515271 -1.03497 0
M  V30 9 C 1.59264 -1.22794 -1.27979 0
M  V30 10 C 2.37759 -1.67618 -0.0973878 0
M  V30 11 N 2.83327 -0.536008 0.662756 0
M  V30 12 C 2.26931 0.121787 1.68141 0
M  V30 13 N 3.05056 1.12854 2.09364 0
M  V30 14 C 4.13854 1.13262 1.33874 0
M  V30 15 C 4.012 0.0955362 0.441083 0
M  V30 16 N 4.9903 -0.153157 -0.477612 0
M  V30 17 C 6.10112 0.603153 -0.533315 0
M  V30 18 N 7.14608 0.388987 -1.46566 0
M  V30 19 N 6.22351 1.61397 0.342272 0
M  V30 20 C 5.30029 1.90747 1.26515 0
M  V30 21 N 5.41472 2.96866 2.19417 0
M  V30 22 O -3.23134 -0.538939 -1.06935 0
M  V30 23 C -3.29699 0.121106 -2.25313 0
M  V30 24 C -3.3223 -0.668621 -3.49064 0
M  V30 25 C -4.51993 1.02585 -2.22956 0
M  V30 26 H -4.22894 -2.38255 1.79831 0
M  V30 27 H -5.69277 -1.35505 1.73511 0
M  V30 28 H -4.75814 -1.50328 3.24572 0
M  V30 29 H -4.32237 0.197161 0.812271 0
M  V30 30 H -3.15405 1.55502 2.67228 0
M  V30 31 H -3.46687 0.19306 3.76268 0
M  V30 32 H -4.90658 1.11252 3.07213 0
M  V30 33 H -0.062679 -1.59681 0.596599 0
M  V30 34 H -0.79565 -2.16663 -0.892726 0
M  V30 35 H 2.24655 -0.66058 -2.00175 0
M  V30 36 H 1.27099 -2.12368 -1.89371 0
M  V30 37 H 1.79075 -2.39862 0.505206 0
M  V30 38 H 3.25703 -2.25255 -0.509169 0
M  V30 39 H 1.29182 -0.162655 2.09271 0
M  V30 40 H 7.8581 -0.356296 -1.34534 0
M  V30 41 H 7.21017 0.996057 -2.30472 0
M  V30 42 H 4.99274 3.89237 1.99738 0
M  V30 43 H 5.93386 2.78903 3.07497 0
M  V30 44 H -2.41514 0.825985 -2.2999 0
M  V30 45 H -3.86234 -1.6284 -3.3401 0
M  V30 46 H -2.3385 -0.899729 -3.93797 0
M  V30 47 H -3.89399 -0.117776 -4.26818 0
M  V30 48 H -4.72234 1.47592 -3.22602 0
M  V30 49 H -4.37569 1.79856 -1.45127 0
M  V30 50 H -5.37019 0.392412 -1.88771 0
M  V30 END ATOM
M  V30 BEGIN BOND
M  V30 1 1 1 2
M  V30 2 1 2 3
M  V30 3 1 2 4
M  V30 4 1 4 5
M  V30 5 2 5 6
M  V30 6 1 5 7
M  V30 7 1 7 8
M  V30 8 1 8 9
M  V30 9 1 9 10
M  V30 10 1 10 11
M  V30 11 1 11 12
M  V30 12 2 12 13
M  V30 13 1 13 14
M  V30 14 2 14 15
M  V30 15 1 15 16
M  V30 16 2 16 17
M  V30 17 1 17 18
M  V30 18 1 17 19
M  V30 19 2 19 20
M  V30 20 1 20 21
M  V30 21 1 5 22
M  V30 22 1 22 23
M  V30 23 1 23 24
M  V30 24 1 23 25
M  V30 25 1 15 11
M  V30 26 1 20 14
M  V30 27 1 1 26
M  V30 28 1 1 27
M  V30 29 1 1 28
M  V30 30 1 2 29
M  V30 31 1 3 30
M  V30 32 1 3 31
M  V30 33 1 3 32
M  V30 34 1 7 33
M  V30 35 1 7 34
M  V30 36 1 9 35
M  V30 37 1 9 36
M  V30 38 1 10 37
M  V30 39 1 10 38
M  V30 40 1 12 39
M  V30 41 1 18 40
M  V30 42 1 18 41
M  V30 43 1 21 42
M  V30 44 1 21 43
M  V30 45 1 23 44
M  V30 46 1 24 45
M  V30 47 1 24 46
M  V30 48 1 24 47
M  V30 49 1 25 48
M  V30 50 1 25 49
M  V30 51 1 25 50
M  V30 END BOND
M  V30 END CTAB
M  END
