
     RDKit          3D

  0  0  0  0  0  0  0  0  0  0999 V3000
M  V30 BEGIN CTAB
M  V30 COUNTS 23 23 0 0 0
M  V30 BEGIN ATOM
M  V30 1 N -3.84029 0.782636 0.32287 0
M  V30 2 N -2.79665 -0.129402 0.297788 0
M  V30 3 C -1.67055 0.0978818 -0.522688 0
M  V30 4 O -1.63622 1.13737 -1.22418 0
M  V30 5 C -0.542998 -0.867063 -0.563023 0
M  V30 6 C 0.747075 -0.222286 -0.145394 0
M  V30 7 C 1.03191 0.00097211 1.18534 0
M  V30 8 C 2.23547 0.601948 1.56775 0
M  V30 9 C 3.1012 0.94999 0.553049 0
M  V30 10 C 2.80631 0.72292 -0.762682 0
M  V30 11 C 1.62089 0.130617 -1.14499 0
M  V30 12 N -0.753149 -1.98932 0.306825 0
M  V30 13 H -4.37334 0.708134 -0.569443 0
M  V30 14 H -3.52921 1.74304 0.551589 0
M  V30 15 H -2.83051 -0.989832 0.881216 0
M  V30 16 H -0.442058 -1.28564 -1.59972 0
M  V30 17 H 0.335937 -0.280413 1.97132 0
M  V30 18 H 2.43599 0.766482 2.61754 0
M  V30 19 H 4.04023 1.42052 0.876423 0
M  V30 20 H 3.50966 1.00857 -1.54293 0
M  V30 21 H 1.39599 -0.0459243 -2.19999 0
M  V30 22 H -0.9591 -1.689 1.27753 0
M  V30 23 H 0.113414 -2.5722 0.283905 0
M  V30 END ATOM
M  V30 BEGIN BOND
M  V30 1 1 1 2
M  V30 2 1 2 3
M  V30 3 2 3 4
M  V30 4 1 3 5
M  V30 5 1 5 6
M  V30 6 2 6 7
M  V30 7 1 7 8
M  V30 8 2 8 9
M  V30 9 1 9 10
M  V30 10 2 10 11
M  V30 11 1 5 12
M  V30 12 1 11 6
M  V30 13 1 1 13
M  V30 14 1 1 14
M  V30 15 1 2 15
M  V30 16 1 5 16
M  V30 17 1 7 17
M  V30 18 1 8 18
M  V30 19 1 9 19
M  V30 20 1 10 20
M  V30 21 1 11 21
M  V30 22 1 12 22
M  V30 23 1 12 23
M  V30 END BOND
M  V30 END CTAB
M  END
