
     RDKit          3D

  0  0  0  0  0  0  0  0  0  0999 V3000
M  V30 BEGIN CTAB
M  V30 COUNTS 29 30 0 0 0
M  V30 BEGIN ATOM
M  V30 1 N -3.47187 1.16139 -1.12349 0
M  V30 2 C -2.42401 1.33363 -0.149622 0
M  V30 3 C -1.86811 0.0373011 0.359431 0
M  V30 4 N -2.82477 -0.806477 1.00238 0
M  V30 5 C -0.882277 -0.650084 -0.560184 0
M  V30 6 C 0.0667326 -0.790735 0.619402 0
M  V30 7 C -0.688573 0.326331 1.29017 0
M  V30 8 C 1.47361 -0.485739 0.269972 0
M  V30 9 C 2.51306 -1.34806 0.615491 0
M  V30 10 C 3.81932 -1.06463 0.290916 0
M  V30 11 C 4.06978 0.108394 -0.392218 0
M  V30 12 C 3.09015 0.998402 -0.760765 0
M  V30 13 C 1.77567 0.674114 -0.412463 0
M  V30 14 H -4.4134 1.06159 -0.734725 0
M  V30 15 H -3.23084 0.542269 -1.89785 0
M  V30 16 H -1.5897 1.8656 -0.668307 0
M  V30 17 H -2.78136 1.96667 0.672186 0
M  V30 18 H -2.35645 -1.64782 1.39789 0
M  V30 19 H -3.64398 -1.00669 0.423093 0
M  V30 20 H -0.522556 -0.0121342 -1.3712 0
M  V30 21 H -1.20014 -1.6478 -0.889915 0
M  V30 22 H -0.0506015 -1.74263 1.16258 0
M  V30 23 H -0.240515 1.34059 1.13846 0
M  V30 24 H -0.905063 0.137442 2.35137 0
M  V30 25 H 2.30283 -2.26551 1.15165 0
M  V30 26 H 4.64537 -1.70117 0.53846 0
M  V30 27 H 5.08542 0.344466 -0.653333 0
M  V30 28 H 3.28922 1.92015 -1.29786 0
M  V30 29 H 0.963051 1.35115 -0.684201 0
M  V30 END ATOM
M  V30 BEGIN BOND
M  V30 1 1 1 2
M  V30 2 1 2 3
M  V30 3 1 3 4
M  V30 4 1 3 5
M  V30 5 1 5 6
M  V30 6 1 6 7
M  V30 7 1 6 8
M  V30 8 2 8 9
M  V30 9 1 9 10
M  V30 10 2 10 11
M  V30 11 1 11 12
M  V30 12 2 12 13
M  V30 13 1 7 3
M  V30 14 1 13 8
M  V30 15 1 1 14
M  V30 16 1 1 15
M  V30 17 1 2 16
M  V30 18 1 2 17
M  V30 19 1 4 18
M  V30 20 1 4 19
M  V30 21 1 5 20
M  V30 22 1 5 21
M  V30 23 1 6 22
M  V30 24 1 7 23
M  V30 25 1 7 24
M  V30 26 1 9 25
M  V30 27 1 10 26
M  V30 28 1 11 27
M  V30 29 1 12 28
M  V30 30 1 13 29
M  V30 END BOND
M  V30 END CTAB
M  END
