
     RDKit          3D

  0  0  0  0  0  0  0  0  0  0999 V3000
M  V30 BEGIN CTAB
M  V30 COUNTS 36 35 0 0 0
M  V30 BEGIN ATOM
M  V30 1 N 5.15891 2.18956 -0.548879 0
M  V30 2 C 4.27815 1.13113 -0.0271794 0
M  V30 3 C 4.09893 0.146829 -1.14863 0
M  V30 4 C 3.22288 -1.0077 -0.786077 0
M  V30 5 O 3.0932 -1.82283 -1.68624 0
M  V30 6 C 2.57663 -1.15615 0.522771 0
M  V30 7 C 1.20142 -0.604 0.576074 0
M  V30 8 C 0.210271 -1.18796 -0.320798 0
M  V30 9 O 0.337078 -2.09457 -1.09922 0
M  V30 10 C -1.17464 -0.573769 -0.272263 0
M  V30 11 C -2.00374 -1.50016 0.586403 0
M  V30 12 C -3.37367 -0.96712 0.678211 0
M  V30 13 O -4.20133 -1.55133 1.34073 0
M  V30 14 C -3.74322 0.267656 -0.0282428 0
M  V30 15 C -5.21082 0.627245 0.20515 0
M  V30 16 N -5.57885 1.82687 -0.478924 0
M  V30 17 H 5.04167 3.03976 0.0769429 0
M  V30 18 H 6.12798 1.83068 -0.425107 0
M  V30 19 H 3.31092 1.63114 0.154399 0
M  V30 20 H 4.76602 0.724635 0.851367 0
M  V30 21 H 3.64443 0.617649 -2.04102 0
M  V30 22 H 5.06031 -0.29139 -1.48844 0
M  V30 23 H 2.50474 -2.2424 0.756021 0
M  V30 24 H 3.2301 -0.749192 1.34676 0
M  V30 25 H 0.823083 -0.781731 1.62789 0
M  V30 26 H 1.22102 0.503244 0.446455 0
M  V30 27 H -1.5772 -0.458413 -1.28559 0
M  V30 28 H -1.16959 0.411319 0.199163 0
M  V30 29 H -1.95978 -2.49557 0.0951651 0
M  V30 30 H -1.51183 -1.58345 1.57959 0
M  V30 31 H -3.56277 0.101142 -1.11088 0
M  V30 32 H -3.08123 1.09173 0.290389 0
M  V30 33 H -5.34564 0.801358 1.29207 0
M  V30 34 H -5.83248 -0.203878 -0.182208 0
M  V30 35 H -4.93922 2.62896 -0.23994 0
M  V30 36 H -5.64173 1.70067 -1.51709 0
M  V30 END ATOM
M  V30 BEGIN BOND
M  V30 1 1 1 2
M  V30 2 1 2 3
M  V30 3 1 3 4
M  V30 4 2 4 5
M  V30 5 1 4 6
M  V30 6 1 6 7
M  V30 7 1 7 8
M  V30 8 2 8 9
M  V30 9 1 8 10
M  V30 10 1 10 11
M  V30 11 1 11 12
M  V30 12 2 12 13
M  V30 13 1 12 14
M  V30 14 1 14 15
M  V30 15 1 15 16
M  V30 16 1 1 17
M  V30 17 1 1 18
M  V30 18 1 2 19
M  V30 19 1 2 20
M  V30 20 1 3 21
M  V30 21 1 3 22
M  V30 22 1 6 23
M  V30 23 1 6 24
M  V30 24 1 7 25
M  V30 25 1 7 26
M  V30 26 1 10 27
M  V30 27 1 10 28
M  V30 28 1 11 29
M  V30 29 1 11 30
M  V30 30 1 14 31
M  V30 31 1 14 32
M  V30 32 1 15 33
M  V30 33 1 15 34
M  V30 34 1 16 35
M  V30 35 1 16 36
M  V30 END BOND
M  V30 END CTAB
M  END
