
     RDKit          3D

  0  0  0  0  0  0  0  0  0  0999 V3000
M  V30 BEGIN CTAB
M  V30 COUNTS 29 30 0 0 0
M  V30 BEGIN ATOM
M  V30 1 N 1.35487 -2.44063 -0.508328 0
M  V30 2 C 1.76241 -1.1024 -0.30713 0
M  V30 3 C 3.09204 -0.730771 -0.169525 0
M  V30 4 C 3.06287 0.634859 0.00587725 0
M  V30 5 N 1.79987 1.01001 -0.0302644 0
M  V30 6 N 0.996746 -0.0112954 -0.21687 0
M  V30 7 C -0.429964 0.0713301 -0.302067 0
M  V30 8 C -1.137 -1.15507 0.2263 0
M  V30 9 C -2.50919 -0.72659 0.764973 0
M  V30 10 C -3.0847 0.385568 -0.0693244 0
M  V30 11 C -2.28926 1.66103 0.0689143 0
M  V30 12 C -0.891096 1.26701 0.504399 0
M  V30 13 N 4.18278 1.48549 0.191613 0
M  V30 14 H 1.26583 -3.07982 0.30305 0
M  V30 15 H 1.13829 -2.81251 -1.45207 0
M  V30 16 H 3.97688 -1.34939 -0.190433 0
M  V30 17 H -0.701446 0.271967 -1.3683 0
M  V30 18 H -0.588199 -1.66104 1.02066 0
M  V30 19 H -1.35986 -1.80424 -0.64591 0
M  V30 20 H -2.43902 -0.372958 1.81079 0
M  V30 21 H -3.19148 -1.58572 0.729379 0
M  V30 22 H -4.1067 0.5781 0.280064 0
M  V30 23 H -3.17019 0.0597064 -1.14481 0
M  V30 24 H -2.19146 2.1773 -0.924039 0
M  V30 25 H -2.7149 2.38082 0.768114 0
M  V30 26 H -0.225869 2.11579 0.205437 0
M  V30 27 H -0.810042 1.11974 1.5831 0
M  V30 28 H 4.78696 1.74204 -0.60232 0
M  V30 29 H 4.42081 1.87167 1.13851 0
M  V30 END ATOM
M  V30 BEGIN BOND
M  V30 1 1 1 2
M  V30 2 2 2 3
M  V30 3 1 3 4
M  V30 4 2 4 5
M  V30 5 1 5 6
M  V30 6 1 6 7
M  V30 7 1 7 8
M  V30 8 1 8 9
M  V30 9 1 9 10
M  V30 10 1 10 11
M  V30 11 1 11 12
M  V30 12 1 4 13
M  V30 13 1 6 2
M  V30 14 1 12 7
M  V30 15 1 1 14
M  V30 16 1 1 15
M  V30 17 1 3 16
M  V30 18 1 7 17
M  V30 19 1 8 18
M  V30 20 1 8 19
M  V30 21 1 9 20
M  V30 22 1 9 21
M  V30 23 1 10 22
M  V30 24 1 10 23
M  V30 25 1 11 24
M  V30 26 1 11 25
M  V30 27 1 12 26
M  V30 28 1 12 27
M  V30 29 1 13 28
M  V30 30 1 13 29
M  V30 END BOND
M  V30 END CTAB
M  END
