
     RDKit          3D

  0  0  0  0  0  0  0  0  0  0999 V3000
M  V30 BEGIN CTAB
M  V30 COUNTS 40 42 0 0 0
M  V30 BEGIN ATOM
M  V30 1 O 0.940235 -2.30472 1.75702 0
M  V30 2 C 0.469633 -2.3474 0.591152 0
M  V30 3 N 1.01054 -1.61366 -0.472656 0
M  V30 4 C 2.1171 -0.746476 -0.295208 0
M  V30 5 C 3.00623 -0.554286 -1.37099 0
M  V30 6 C 4.06576 0.308994 -1.2661 0
M  V30 7 C 4.33426 1.03595 -0.130284 0
M  V30 8 C 3.46856 0.850618 0.921274 0
M  V30 9 C 2.37784 -0.0260761 0.84058 0
M  V30 10 S 5.69928 2.12596 -0.0230332 0
M  V30 11 O 5.30887 3.44634 0.565846 0
M  V30 12 O 6.15124 2.3951 -1.43772 0
M  V30 13 N 7.03082 1.43927 0.827627 0
M  V30 14 C -0.716083 -3.2278 0.356911 0
M  V30 15 S -1.46571 -2.75209 -1.22076 0
M  V30 16 C -2.22302 -1.13812 -1.01494 0
M  V30 17 N -1.72421 0.0821223 -1.19553 0
M  V30 18 N -2.68518 0.968691 -0.89829 0
M  V30 19 C -3.79347 0.328249 -0.529889 0
M  V30 20 N -3.51299 -0.993084 -0.599691 0
M  V30 21 N -4.39712 -2.03151 -0.293151 0
M  V30 22 C -5.09219 0.897769 -0.109889 0
M  V30 23 C -5.44651 2.31144 -0.562685 0
M  V30 24 C -5.08207 2.04409 0.86772 0
M  V30 25 H 0.623564 -1.6856 -1.461 0
M  V30 26 H 2.78792 -1.13678 -2.27781 0
M  V30 27 H 4.73943 0.441903 -2.11467 0
M  V30 28 H 3.6489 1.40322 1.8262 0
M  V30 29 H 1.72684 -0.115308 1.69554 0
M  V30 30 H 7.32412 0.516021 0.511369 0
M  V30 31 H 7.74367 2.13744 1.03559 0
M  V30 32 H -0.418238 -4.29163 0.383778 0
M  V30 33 H -1.44354 -2.98616 1.17669 0
M  V30 34 H -4.2656 -3.00236 -0.676705 0
M  V30 35 H -5.22435 -1.89237 0.327314 0
M  V30 36 H -5.94981 0.213972 0.015426 0
M  V30 37 H -4.67938 2.81802 -1.18908 0
M  V30 38 H -6.47831 2.54884 -0.868135 0
M  V30 39 H -4.07461 2.3535 1.19525 0
M  V30 40 H -5.90245 2.17793 1.58859 0
M  V30 END ATOM
M  V30 BEGIN BOND
M  V30 1 2 1 2
M  V30 2 1 2 3
M  V30 3 1 3 4
M  V30 4 2 4 5
M  V30 5 1 5 6
M  V30 6 2 6 7
M  V30 7 1 7 8
M  V30 8 2 8 9
M  V30 9 1 7 10
M  V30 10 2 10 11
M  V30 11 2 10 12
M  V30 12 1 10 13
M  V30 13 1 2 14
M  V30 14 1 14 15
M  V30 15 1 15 16
M  V30 16 2 16 17
M  V30 17 1 17 18
M  V30 18 2 18 19
M  V30 19 1 19 20
M  V30 20 1 20 21
M  V30 21 1 19 22
M  V30 22 1 22 23
M  V30 23 1 23 24
M  V30 24 1 9 4
M  V30 25 1 20 16
M  V30 26 1 24 22
M  V30 27 1 3 25
M  V30 28 1 5 26
M  V30 29 1 6 27
M  V30 30 1 8 28
M  V30 31 1 9 29
M  V30 32 1 13 30
M  V30 33 1 13 31
M  V30 34 1 14 32
M  V30 35 1 14 33
M  V30 36 1 21 34
M  V30 37 1 21 35
M  V30 38 1 22 36
M  V30 39 1 23 37
M  V30 40 1 23 38
M  V30 41 1 24 39
M  V30 42 1 24 40
M  V30 END BOND
M  V30 END CTAB
M  END
