
     RDKit          3D

  0  0  0  0  0  0  0  0  0  0999 V3000
M  V30 BEGIN CTAB
M  V30 COUNTS 20 21 0 0 0
M  V30 BEGIN ATOM
M  V30 1 C 4.6306 0.20801 -0.00328079 0
M  V30 2 S 3.60122 0.069721 -1.51438 0
M  V30 3 C 1.88115 -0.0475027 -0.987152 0
M  V30 4 N 1.00035 0.903189 -0.770745 0
M  V30 5 C -0.20539 0.622173 -0.391539 0
M  V30 6 N -1.23536 1.49611 -0.126257 0
M  V30 7 C -2.43059 1.07058 0.257046 0
M  V30 8 N -3.43979 2.04431 0.510779 0
M  V30 9 N -2.78177 -0.219358 0.430855 0
M  V30 10 C -1.79155 -1.11532 0.17882 0
M  V30 11 N -2.05114 -2.50001 0.329568 0
M  V30 12 C -0.527497 -0.70195 -0.224722 0
M  V30 13 S 0.952003 -1.45403 -0.632375 0
M  V30 14 H 5.61 0.641414 -0.227929 0
M  V30 15 H 4.65575 -0.732947 0.560914 0
M  V30 16 H 4.06708 0.936661 0.651995 0
M  V30 17 H -4.35158 1.97604 0.0182303 0
M  V30 18 H -3.29175 2.81672 1.17003 0
M  V30 19 H -1.55494 -3.03173 1.06734 0
M  V30 20 H -2.73679 -2.98207 -0.297196 0
M  V30 END ATOM
M  V30 BEGIN BOND
M  V30 1 1 1 2
M  V30 2 1 2 3
M  V30 3 2 3 4
M  V30 4 1 4 5
M  V30 5 2 5 6
M  V30 6 1 6 7
M  V30 7 1 7 8
M  V30 8 2 7 9
M  V30 9 1 9 10
M  V30 10 1 10 11
M  V30 11 2 10 12
M  V30 12 1 12 13
M  V30 13 1 13 3
M  V30 14 1 12 5
M  V30 15 1 1 14
M  V30 16 1 1 15
M  V30 17 1 1 16
M  V30 18 1 8 17
M  V30 19 1 8 18
M  V30 20 1 11 19
M  V30 21 1 11 20
M  V30 END BOND
M  V30 END CTAB
M  END
