
     RDKit          3D

  0  0  0  0  0  0  0  0  0  0999 V3000
M  V30 BEGIN CTAB
M  V30 COUNTS 55 57 0 0 0
M  V30 BEGIN ATOM
M  V30 1 C 2.80201 0.204226 -1.95014 0
M  V30 2 N 2.03485 -0.34569 -0.844499 0
M  V30 3 C 2.58542 -1.31905 0.0691621 0
M  V30 4 C 3.82258 -0.862271 0.70315 0
M  V30 5 N 4.95538 -0.861656 -0.00254637 0
M  V30 6 C 6.10661 -0.445137 0.536993 0
M  V30 7 C 6.16501 -0.001242 1.8422 0
M  V30 8 N 5.01481 -0.00245165 2.55946 0
M  V30 9 C 3.83806 -0.430493 1.99973 0
M  V30 10 N 7.34387 0.407896 2.32496 0
M  V30 11 C 8.48422 0.409496 1.59979 0
M  V30 12 N 9.71672 0.871473 2.19323 0
M  V30 13 N 8.43778 -0.0182435 0.336457 0
M  V30 14 C 7.28949 -0.441851 -0.209261 0
M  V30 15 N 7.2402 -0.898138 -1.56415 0
M  V30 16 C 0.705543 0.0883301 -0.681697 0
M  V30 17 C 0.341233 1.40428 -0.454573 0
M  V30 18 F 1.34754 2.311 -0.362382 0
M  V30 19 C -0.991777 1.73691 -0.331896 0
M  V30 20 C -1.96737 0.76059 -0.434668 0
M  V30 21 C -1.61861 -0.541543 -0.658121 0
M  V30 22 C -0.281919 -0.86363 -0.779352 0
M  V30 23 C -3.3792 1.11973 -0.32577 0
M  V30 24 O -3.75579 2.32119 -0.478021 0
M  V30 25 N -4.31939 0.112978 -0.0478604 0
M  V30 26 C -5.75606 0.532519 0.0506831 0
M  V30 27 C -6.4213 -0.262945 -1.00222 0
M  V30 28 C -7.87678 -0.124839 -1.22088 0
M  V30 29 C -8.76408 -0.538692 -0.14093 0
M  V30 30 O -8.51344 -1.71119 0.554338 0
M  V30 31 O -9.76943 0.173153 0.160749 0
M  V30 32 C -6.12182 0.297711 1.43885 0
M  V30 33 O -7.20273 0.928515 2.06825 0
M  V30 34 O -5.46801 -0.49285 2.15528 0
M  V30 35 H 3.49255 -0.585967 -2.30381 0
M  V30 36 H 2.09173 0.444992 -2.765 0
M  V30 37 H 3.32447 1.14376 -1.68434 0
M  V30 38 H 1.79773 -1.55249 0.827457 0
M  V30 39 H 2.81609 -2.28172 -0.450853 0
M  V30 40 H 2.96506 -0.407581 2.61595 0
M  V30 41 H 10.3141 1.56414 1.70776 0
M  V30 42 H 10.0073 0.496377 3.13084 0
M  V30 43 H 7.21769 -0.178325 -2.33423 0
M  V30 44 H 7.22713 -1.91188 -1.80362 0
M  V30 45 H -1.27335 2.78628 -0.153172 0
M  V30 46 H -2.35271 -1.36325 -0.75373 0
M  V30 47 H -0.0302506 -1.89928 -0.953753 0
M  V30 48 H -4.08033 -0.879767 0.0916326 0
M  V30 49 H -5.83675 1.62167 -0.205032 0
M  V30 50 H -6.17188 -1.36441 -0.883625 0
M  V30 51 H -5.92847 -0.0111092 -1.98808 0
M  V30 52 H -8.11533 -0.759184 -2.13967 0
M  V30 53 H -8.12679 0.924602 -1.55213 0
M  V30 54 H -8.23609 -2.58271 0.111216 0
M  V30 55 H -7.12553 1.9004 2.38189 0
M  V30 END ATOM
M  V30 BEGIN BOND
M  V30 1 1 1 2
M  V30 2 1 2 3
M  V30 3 1 3 4
M  V30 4 2 4 5
M  V30 5 1 5 6
M  V30 6 2 6 7
M  V30 7 1 7 8
M  V30 8 2 8 9
M  V30 9 1 7 10
M  V30 10 2 10 11
M  V30 11 1 11 12
M  V30 12 1 11 13
M  V30 13 2 13 14
M  V30 14 1 14 15
M  V30 15 1 2 16
M  V30 16 2 16 17
M  V30 17 1 17 18
M  V30 18 1 17 19
M  V30 19 2 19 20
M  V30 20 1 20 21
M  V30 21 2 21 22
M  V30 22 1 20 23
M  V30 23 2 23 24
M  V30 24 1 23 25
M  V30 25 1 25 26
M  V30 26 1 26 27
M  V30 27 1 27 28
M  V30 28 1 28 29
M  V30 29 1 29 30
M  V30 30 2 29 31
M  V30 31 1 26 32
M  V30 32 1 32 33
M  V30 33 2 32 34
M  V30 34 1 9 4
M  V30 35 1 22 16
M  V30 36 1 14 6
M  V30 37 1 1 35
M  V30 38 1 1 36
M  V30 39 1 1 37
M  V30 40 1 3 38
M  V30 41 1 3 39
M  V30 42 1 9 40
M  V30 43 1 12 41
M  V30 44 1 12 42
M  V30 45 1 15 43
M  V30 46 1 15 44
M  V30 47 1 19 45
M  V30 48 1 21 46
M  V30 49 1 22 47
M  V30 50 1 25 48
M  V30 51 1 26 49
M  V30 52 1 27 50
M  V30 53 1 27 51
M  V30 54 1 28 52
M  V30 55 1 28 53
M  V30 56 1 30 54
M  V30 57 1 33 55
M  V30 END BOND
M  V30 END CTAB
M  END
