
     RDKit          3D

  0  0  0  0  0  0  0  0  0  0999 V3000
M  V30 BEGIN CTAB
M  V30 COUNTS 30 31 0 0 0
M  V30 BEGIN ATOM
M  V30 1 N 4.91537 0.914885 0.293101 0
M  V30 2 C 3.54626 0.545507 0.220967 0
M  V30 3 C 2.57176 1.16647 0.946363 0
M  V30 4 C 1.25524 0.787873 0.856429 0
M  V30 5 C 0.846114 -0.238162 0.0301962 0
M  V30 6 C 1.81623 -0.878033 -0.711013 0
M  V30 7 C 3.15551 -0.492284 -0.618987 0
M  V30 8 N 4.12177 -1.18147 -1.40284 0
M  V30 9 O -0.490158 -0.605114 -0.0458677 0
M  V30 10 C -1.4645 0.0562991 0.715056 0
M  V30 11 C -2.81653 -0.53623 0.443657 0
M  V30 12 C -3.26278 -0.447663 -1.00677 0
M  V30 13 C -4.66388 -0.127501 -0.470838 0
M  V30 14 C -3.9561 0.43801 0.768117 0
M  V30 15 H 5.24849 1.5656 1.02162 0
M  V30 16 H 5.59253 0.52617 -0.395596 0
M  V30 17 H 2.85851 1.97465 1.60372 0
M  V30 18 H 0.514362 1.29546 1.43913 0
M  V30 19 H 1.54885 -1.70038 -1.38439 0
M  V30 20 H 4.04869 -2.23369 -1.51501 0
M  V30 21 H 4.91789 -0.695773 -1.88511 0
M  V30 22 H -1.23229 -0.118554 1.78231 0
M  V30 23 H -1.51582 1.13147 0.458382 0
M  V30 24 H -3.00846 -1.5323 0.86403 0
M  V30 25 H -2.85 0.474876 -1.50755 0
M  V30 26 H -3.19194 -1.37037 -1.5849 0
M  V30 27 H -5.21076 -1.04894 -0.152415 0
M  V30 28 H -5.22655 0.598753 -1.05334 0
M  V30 29 H -3.60297 1.4769 0.577614 0
M  V30 30 H -4.46484 0.25355 1.71393 0
M  V30 END ATOM
M  V30 BEGIN BOND
M  V30 1 1 1 2
M  V30 2 2 2 3
M  V30 3 1 3 4
M  V30 4 2 4 5
M  V30 5 1 5 6
M  V30 6 2 6 7
M  V30 7 1 7 8
M  V30 8 1 5 9
M  V30 9 1 9 10
M  V30 10 1 10 11
M  V30 11 1 11 12
M  V30 12 1 12 13
M  V30 13 1 13 14
M  V30 14 1 7 2
M  V30 15 1 14 11
M  V30 16 1 1 15
M  V30 17 1 1 16
M  V30 18 1 3 17
M  V30 19 1 4 18
M  V30 20 1 6 19
M  V30 21 1 8 20
M  V30 22 1 8 21
M  V30 23 1 10 22
M  V30 24 1 10 23
M  V30 25 1 11 24
M  V30 26 1 12 25
M  V30 27 1 12 26
M  V30 28 1 13 27
M  V30 29 1 13 28
M  V30 30 1 14 29
M  V30 31 1 14 30
M  V30 END BOND
M  V30 END CTAB
M  END
