
     RDKit          3D

  0  0  0  0  0  0  0  0  0  0999 V3000
M  V30 BEGIN CTAB
M  V30 COUNTS 17 17 0 0 0
M  V30 BEGIN ATOM
M  V30 1 N 1.50719 0.65995 -1.92564 0
M  V30 2 N 1.74913 -0.303744 -1.03311 0
M  V30 3 C 1.05183 -0.681703 -0.0606846 0
M  V30 4 C -0.211614 -0.129656 0.311761 0
M  V30 5 C -0.856479 0.885319 -0.321892 0
M  V30 6 C -2.09617 1.36748 0.110416 0
M  V30 7 N -2.64907 0.802407 1.17968 0
M  V30 8 N -2.0392 -0.181093 1.80546 0
M  V30 9 C -0.85642 -0.661373 1.41576 0
M  V30 10 N 1.56339 -1.77362 0.763998 0
M  V30 11 H 1.81201 1.66266 -1.79863 0
M  V30 12 H 0.992532 0.495916 -2.83917 0
M  V30 13 H -0.463719 1.383 -1.18962 0
M  V30 14 H -2.59142 2.19127 -0.426009 0
M  V30 15 H -0.365651 -1.48072 1.95071 0
M  V30 16 H 1.96214 -1.52312 1.65903 0
M  V30 17 H 1.49152 -2.71299 0.397945 0
M  V30 END ATOM
M  V30 BEGIN BOND
M  V30 1 1 1 2
M  V30 2 2 2 3
M  V30 3 1 3 4
M  V30 4 2 4 5
M  V30 5 1 5 6
M  V30 6 2 6 7
M  V30 7 1 7 8
M  V30 8 2 8 9
M  V30 9 1 3 10
M  V30 10 1 9 4
M  V30 11 1 1 11
M  V30 12 1 1 12
M  V30 13 1 5 13
M  V30 14 1 6 14
M  V30 15 1 9 15
M  V30 16 1 10 16
M  V30 17 1 10 17
M  V30 END BOND
M  V30 END CTAB
M  END
