
     RDKit          3D

  0  0  0  0  0  0  0  0  0  0999 V3000
M  V30 BEGIN CTAB
M  V30 COUNTS 29 29 0 0 0
M  V30 BEGIN ATOM
M  V30 1 C 4.63112 0.878218 0.181948 0
M  V30 2 O 3.57045 0.59746 1.04104 0
M  V30 3 C 2.31549 0.262694 0.551326 0
M  V30 4 O 2.10757 0.204316 -0.685163 0
M  V30 5 C 1.19588 -0.0320485 1.49868 0
M  V30 6 C -0.0276651 -0.35561 0.72713 0
M  V30 7 C -0.430353 -1.66022 0.610666 0
M  V30 8 C -1.57159 -1.99809 -0.108703 0
M  V30 9 N -2.00987 -3.33961 -0.24608 0
M  V30 10 C -2.3208 -1.02455 -0.719712 0
M  V30 11 C -1.89899 0.280791 -0.590395 0
M  V30 12 C -0.780194 0.653463 0.110092 0
M  V30 13 O -0.323487 1.92232 0.266352 0
M  V30 14 C -0.834209 3.11907 -0.209807 0
M  V30 15 F -1.0842 4.0501 0.774517 0
M  V30 16 F 0.0901884 3.71822 -1.0754 0
M  V30 17 N -3.502 -1.29887 -1.47332 0
M  V30 18 H 4.75308 2.00093 0.179734 0
M  V30 19 H 5.5724 0.390092 0.547303 0
M  V30 20 H 4.37357 0.517299 -0.827162 0
M  V30 21 H 1.02036 0.894969 2.09603 0
M  V30 22 H 1.50506 -0.874754 2.13452 0
M  V30 23 H 0.114433 -2.47422 1.06828 0
M  V30 24 H -1.34009 -4.03594 -0.591466 0
M  V30 25 H -2.98588 -3.62638 -0.00549632 0
M  V30 26 H -2.48227 1.05832 -1.068 0
M  V30 27 H -1.74654 2.93252 -0.791726 0
M  V30 28 H -4.413 -1.11806 -0.954396 0
M  V30 29 H -3.49846 -1.64243 -2.44079 0
M  V30 END ATOM
M  V30 BEGIN BOND
M  V30 1 1 1 2
M  V30 2 1 2 3
M  V30 3 2 3 4
M  V30 4 1 3 5
M  V30 5 1 5 6
M  V30 6 2 6 7
M  V30 7 1 7 8
M  V30 8 1 8 9
M  V30 9 2 8 10
M  V30 10 1 10 11
M  V30 11 2 11 12
M  V30 12 1 12 13
M  V30 13 1 13 14
M  V30 14 1 14 15
M  V30 15 1 14 16
M  V30 16 1 10 17
M  V30 17 1 12 6
M  V30 18 1 1 18
M  V30 19 1 1 19
M  V30 20 1 1 20
M  V30 21 1 5 21
M  V30 22 1 5 22
M  V30 23 1 7 23
M  V30 24 1 9 24
M  V30 25 1 9 25
M  V30 26 1 11 26
M  V30 27 1 14 27
M  V30 28 1 17 28
M  V30 29 1 17 29
M  V30 END BOND
M  V30 END CTAB
M  END
