
     RDKit          3D

  0  0  0  0  0  0  0  0  0  0999 V3000
M  V30 BEGIN CTAB
M  V30 COUNTS 67 69 0 0 0
M  V30 BEGIN ATOM
M  V30 1 N 8.49845 -0.934834 -2.04768 0
M  V30 2 C 7.44994 0.0182678 -2.15821 0
M  V30 3 C 7.92068 1.31319 -1.49187 0
M  V30 4 O 8.17634 0.934635 -0.156377 0
M  V30 5 C 8.63354 1.97487 0.55408 0
M  V30 6 C 7.70433 3.06336 0.885823 0
M  V30 7 N 6.56852 2.83097 1.69107 0
M  V30 8 C 5.43078 2.02297 1.47689 0
M  V30 9 O 5.20469 1.3458 0.485539 0
M  V30 10 C 4.38067 1.98494 2.56562 0
M  V30 11 C 3.12024 1.36169 2.21296 0
M  V30 12 C 3.03243 -0.0518126 1.77839 0 CFG=1
M  V30 13 C 3.53789 -1.0511 2.74028 0
M  V30 14 O 2.67648 -1.88249 3.22447 0
M  V30 15 O 4.81412 -1.19602 3.17717 0
M  V30 16 N 1.57179 -0.268543 1.57308 0
M  V30 17 C 0.993871 -0.377518 0.299683 0
M  V30 18 O 1.74705 -0.287129 -0.69808 0
M  V30 19 C -0.446218 -0.585412 0.119131 0
M  V30 20 C -1.16538 -0.0141043 -0.918169 0
M  V30 21 C -2.54033 -0.265233 -1.01536 0
M  V30 22 C -3.21752 -1.05736 -0.121235 0
M  V30 23 C -2.50077 -1.61997 0.906335 0
M  V30 24 C -1.15447 -1.37726 1.00284 0
M  V30 25 N -4.61062 -1.33367 -0.192203 0
M  V30 26 C -5.36907 -0.721562 -1.25647 0
M  V30 27 C -6.7861 -1.12145 -1.23615 0
M  V30 28 C -7.16355 -2.39062 -0.901531 0
M  V30 29 N -8.46526 -2.78513 -0.870663 0
M  V30 30 C -9.4221 -1.88208 -1.18389 0
M  V30 31 C -9.06294 -0.595074 -1.52452 0
M  V30 32 N -7.74219 -0.234308 -1.54515 0
M  V30 33 C -10.0449 0.31658 -1.84128 0
M  V30 34 O -9.76323 1.49663 -2.15674 0
M  V30 35 N -11.3237 -0.0599854 -1.81415 0
M  V30 36 C -11.6743 -1.3281 -1.47896 0
M  V30 37 N -10.7264 -2.22765 -1.16737 0
M  V30 38 N -13.0409 -1.69576 -1.46248 0
M  V30 39 H 8.33309 -1.80182 -2.50609 0
M  V30 40 H 8.90058 -0.998379 -1.14921 0
M  V30 41 H 7.28733 0.217367 -3.2276 0
M  V30 42 H 6.52955 -0.327773 -1.64705 0
M  V30 43 H 8.84248 1.61231 -2.02027 0
M  V30 44 H 7.12691 2.05699 -1.52632 0
M  V30 45 H 9.51574 2.44345 -0.0157277 0
M  V30 46 H 9.18352 1.58946 1.47541 0
M  V30 47 H 7.33058 3.48636 -0.118269 0
M  V30 48 H 8.26525 3.93942 1.36275 0
M  V30 49 H 6.53587 3.35728 2.66068 0
M  V30 50 H 4.18052 3.083 2.74877 0
M  V30 51 H 4.85791 1.64726 3.51152 0
M  V30 52 H 2.67462 1.96524 1.34574 0
M  V30 53 H 2.32859 1.51031 3.01554 0
M  V30 54 H 3.49509 -0.188969 0.794278 0
M  V30 55 H 5.52411 -1.78363 2.75528 0
M  V30 56 H 0.987219 -0.338679 2.41982 0
M  V30 57 H -0.680795 0.604931 -1.63092 0
M  V30 58 H -3.1295 0.177754 -1.82803 0
M  V30 59 H -2.95915 -2.24923 1.63905 0
M  V30 60 H -0.578652 -1.82758 1.81612 0
M  V30 61 H -5.07409 -1.94674 0.480766 0
M  V30 62 H -4.95064 -0.947144 -2.24376 0
M  V30 63 H -5.3039 0.38777 -1.08519 0
M  V30 64 H -6.42708 -3.12734 -0.649559 0
M  V30 65 H -10.9911 -3.21131 -0.906939 0
M  V30 66 H -13.6297 -1.42839 -2.28343 0
M  V30 67 H -13.4162 -2.21881 -0.642191 0
M  V30 END ATOM
M  V30 BEGIN BOND
M  V30 1 1 1 2
M  V30 2 1 2 3
M  V30 3 1 3 4
M  V30 4 1 4 5
M  V30 5 1 5 6
M  V30 6 1 6 7
M  V30 7 1 7 8
M  V30 8 2 8 9
M  V30 9 1 8 10
M  V30 10 1 10 11
M  V30 11 1 11 12
M  V30 12 1 12 13
M  V30 13 2 13 14
M  V30 14 1 13 15
M  V30 15 1 12 16
M  V30 16 1 16 17
M  V30 17 2 17 18
M  V30 18 1 17 19
M  V30 19 2 19 20
M  V30 20 1 20 21
M  V30 21 2 21 22
M  V30 22 1 22 23
M  V30 23 2 23 24
M  V30 24 1 22 25
M  V30 25 1 25 26
M  V30 26 1 26 27
M  V30 27 2 27 28
M  V30 28 1 28 29
M  V30 29 2 29 30
M  V30 30 1 30 31
M  V30 31 2 31 32
M  V30 32 1 31 33
M  V30 33 2 33 34
M  V30 34 1 33 35
M  V30 35 2 35 36
M  V30 36 1 36 37
M  V30 37 1 36 38
M  V30 38 1 24 19
M  V30 39 1 32 27
M  V30 40 1 37 30
M  V30 41 1 1 39
M  V30 42 1 1 40
M  V30 43 1 2 41
M  V30 44 1 2 42
M  V30 45 1 3 43
M  V30 46 1 3 44
M  V30 47 1 5 45
M  V30 48 1 5 46
M  V30 49 1 6 47
M  V30 50 1 6 48
M  V30 51 1 7 49
M  V30 52 1 10 50
M  V30 53 1 10 51
M  V30 54 1 11 52
M  V30 55 1 11 53
M  V30 56 1 12 54 CFG=3
M  V30 57 1 15 55
M  V30 58 1 16 56
M  V30 59 1 20 57
M  V30 60 1 21 58
M  V30 61 1 23 59
M  V30 62 1 24 60
M  V30 63 1 25 61
M  V30 64 1 26 62
M  V30 65 1 26 63
M  V30 66 1 28 64
M  V30 67 1 37 65
M  V30 68 1 38 66
M  V30 69 1 38 67
M  V30 END BOND
M  V30 END CTAB
M  END
