
     RDKit          3D

  0  0  0  0  0  0  0  0  0  0999 V3000
M  V30 BEGIN CTAB
M  V30 COUNTS 27 27 0 0 0
M  V30 BEGIN ATOM
M  V30 1 N 4.70432 0.263951 -0.829842 0
M  V30 2 C 3.40919 0.18384 -0.146645 0
M  V30 3 C 2.38497 -0.111969 -1.19816 0
M  V30 4 C 1.04185 -0.196952 -0.53955 0
M  V30 5 N -0.0634417 -0.462053 -1.27271 0
M  V30 6 C -1.28055 -0.543731 -0.709819 0
M  V30 7 N -2.45458 -0.820884 -1.47114 0
M  V30 8 C -1.45561 -0.358919 0.650359 0
M  V30 9 C -0.325958 -0.0885306 1.39676 0
M  V30 10 O -0.440563 0.088443 2.65234 0
M  V30 11 N 0.87774 -0.0170327 0.779843 0
M  V30 12 C -2.79437 -0.443224 1.27582 0
M  V30 13 C -3.64453 0.764141 1.0346 0
M  V30 14 H 5.48864 0.391744 -0.136971 0
M  V30 15 H 4.66334 1.1525 -1.39569 0
M  V30 16 H 3.46825 -0.596083 0.641231 0
M  V30 17 H 3.20802 1.19891 0.252355 0
M  V30 18 H 2.3191 0.811835 -1.84563 0
M  V30 19 H 2.60539 -1.00461 -1.80938 0
M  V30 20 H -3.1264 -1.58297 -1.22886 0
M  V30 21 H -2.68312 -0.256909 -2.31524 0
M  V30 22 H 1.7258 0.184934 1.34596 0
M  V30 23 H -3.37629 -1.33483 0.959613 0
M  V30 24 H -2.63464 -0.529295 2.38425 0
M  V30 25 H -3.07236 1.51847 0.440185 0
M  V30 26 H -3.9932 1.24448 1.98244 0
M  V30 27 H -4.551 0.544758 0.428329 0
M  V30 END ATOM
M  V30 BEGIN BOND
M  V30 1 1 1 2
M  V30 2 1 2 3
M  V30 3 1 3 4
M  V30 4 2 4 5
M  V30 5 1 5 6
M  V30 6 1 6 7
M  V30 7 2 6 8
M  V30 8 1 8 9
M  V30 9 2 9 10
M  V30 10 1 9 11
M  V30 11 1 8 12
M  V30 12 1 12 13
M  V30 13 1 11 4
M  V30 14 1 1 14
M  V30 15 1 1 15
M  V30 16 1 2 16
M  V30 17 1 2 17
M  V30 18 1 3 18
M  V30 19 1 3 19
M  V30 20 1 7 20
M  V30 21 1 7 21
M  V30 22 1 11 22
M  V30 23 1 12 23
M  V30 24 1 12 24
M  V30 25 1 13 25
M  V30 26 1 13 26
M  V30 27 1 13 27
M  V30 END BOND
M  V30 END CTAB
M  END
