
     RDKit          3D

  0  0  0  0  0  0  0  0  0  0999 V3000
M  V30 BEGIN CTAB
M  V30 COUNTS 34 35 0 0 0
M  V30 BEGIN ATOM
M  V30 1 O -1.47612 -0.670684 2.2094 0
M  V30 2 C -1.10229 -0.487176 1.03668 0
M  V30 3 C 0.382417 -0.437001 0.810474 0
M  V30 4 S 0.86983 1.16086 0.104844 0
M  V30 5 C 2.63929 1.12551 -0.128128 0
M  V30 6 N 3.50341 1.52241 0.827367 0
M  V30 7 C 4.83947 1.46965 0.584059 0
M  V30 8 N 5.74203 1.89815 1.61796 0
M  V30 9 N 5.33125 1.03116 -0.587429 0
M  V30 10 C 4.47043 0.635517 -1.5399 0
M  V30 11 N 3.15651 0.690727 -1.29207 0
M  V30 12 N 4.89226 0.15737 -2.80823 0
M  V30 13 C 0.829659 -1.54501 -0.113618 0
M  V30 14 N -2.00407 -0.335955 -0.0128616 0
M  V30 15 C -3.40537 -0.36207 0.0613423 0
M  V30 16 C -4.15425 -0.544926 1.20026 0
M  V30 17 C -5.5538 -0.55646 1.17859 0
M  V30 18 C -6.26231 -0.385196 0.0145914 0
M  V30 19 C -5.52602 -0.202037 -1.12704 0
M  V30 20 C -4.15593 -0.1887 -1.11918 0
M  V30 21 F -3.45509 -0.00403478 -2.27387 0
M  V30 22 Br -8.1598 -0.396127 -0.0453802 0
M  V30 23 H 0.889713 -0.54914 1.76146 0
M  V30 24 H 5.44229 1.9028 2.62005 0
M  V30 25 H 6.7016 2.20209 1.32901 0
M  V30 26 H 4.90338 0.842838 -3.59565 0
M  V30 27 H 5.18658 -0.808428 -3.01018 0
M  V30 28 H 0.848066 -1.23912 -1.16629 0
M  V30 29 H 1.87723 -1.82688 0.151084 0
M  V30 30 H 0.22741 -2.46651 0.0716131 0
M  V30 31 H -1.5881 -0.181977 -0.990048 0
M  V30 32 H -3.69569 -0.685431 2.14623 0
M  V30 33 H -6.1262 -0.702076 2.08694 0
M  V30 34 H -6.06779 -0.0641426 -2.06228 0
M  V30 END ATOM
M  V30 BEGIN BOND
M  V30 1 2 1 2
M  V30 2 1 2 3
M  V30 3 1 3 4
M  V30 4 1 4 5
M  V30 5 2 5 6
M  V30 6 1 6 7
M  V30 7 1 7 8
M  V30 8 2 7 9
M  V30 9 1 9 10
M  V30 10 2 10 11
M  V30 11 1 10 12
M  V30 12 1 3 13
M  V30 13 1 2 14
M  V30 14 1 14 15
M  V30 15 2 15 16
M  V30 16 1 16 17
M  V30 17 2 17 18
M  V30 18 1 18 19
M  V30 19 2 19 20
M  V30 20 1 20 21
M  V30 21 1 18 22
M  V30 22 1 11 5
M  V30 23 1 20 15
M  V30 24 1 3 23
M  V30 25 1 8 24
M  V30 26 1 8 25
M  V30 27 1 12 26
M  V30 28 1 12 27
M  V30 29 1 13 28
M  V30 30 1 13 29
M  V30 31 1 13 30
M  V30 32 1 14 31
M  V30 33 1 16 32
M  V30 34 1 17 33
M  V30 35 1 19 34
M  V30 END BOND
M  V30 END CTAB
M  END
