
     RDKit          3D

  0  0  0  0  0  0  0  0  0  0999 V3000
M  V30 BEGIN CTAB
M  V30 COUNTS 129 130 0 0 0
M  V30 BEGIN ATOM
M  V30 1 C -12.8748 2.24723 -0.720456 0 CFG=1
M  V30 2 N -12.5754 3.39579 -1.65151 0
M  V30 3 C -13.7335 1.3541 -1.53168 0
M  V30 4 S -14.1733 -0.096597 -0.549493 0
M  V30 5 C -11.5857 1.74655 -0.324278 0
M  V30 6 O -10.5267 2.407 -0.651406 0
M  V30 7 N -11.3398 0.560735 0.389523 0
M  V30 8 C -9.92246 0.208104 0.712838 0 CFG=1
M  V30 9 C -9.87642 -1.1745 1.24309 0
M  V30 10 C -10.6783 -1.49039 2.41849 0
M  V30 11 O -10.4362 -1.04203 3.69729 0
M  V30 12 O -11.7217 -2.23759 2.25958 0
M  V30 13 C -9.17823 0.247614 -0.606264 0
M  V30 14 O -9.70637 -0.26639 -1.60436 0
M  V30 15 N -7.90909 0.888904 -0.710201 0
M  V30 16 C -7.19308 1.50555 0.43192 0
M  V30 17 C -6.43309 2.66455 -0.159672 0
M  V30 18 C -6.32327 2.35133 -1.6251 0
M  V30 19 C -7.14003 1.11206 -1.86381 0 CFG=1
M  V30 20 C -6.20947 -0.0395901 -2.06997 0
M  V30 21 O -5.1904 0.130046 -2.76719 0
M  V30 22 N -6.42613 -1.33616 -1.46256 0
M  V30 23 C -5.342 -2.33727 -1.63834 0
M  V30 24 C -4.19643 -1.75531 -0.95717 0
M  V30 25 O -4.3618 -0.562539 -0.4728 0
M  V30 26 N -2.86103 -2.23999 -0.680513 0
M  V30 27 C -1.99954 -1.27025 -0.0248749 0 CFG=1
M  V30 28 C -2.5081 -1.00986 1.4279 0
M  V30 29 C -1.65978 0.133364 1.95857 0
M  V30 30 C -2.06679 1.40664 1.54522 0
M  V30 31 C -1.31332 2.46582 1.9691 0
M  V30 32 C -0.188217 2.25955 2.78912 0
M  V30 33 O 0.53518 3.34153 3.2025 0
M  V30 34 C 0.200124 0.992899 3.1776 0
M  V30 35 C -0.580546 -0.0954326 2.73395 0
M  V30 36 C -0.656786 -1.87622 0.10497 0
M  V30 37 O -0.661134 -3.0929 0.333738 0
M  V30 38 N 0.537728 -1.12926 -0.0114375 0
M  V30 39 C 1.87944 -1.4456 0.131588 0 CFG=2
M  V30 40 C 2.73976 -0.205399 0.202331 0
M  V30 41 O 2.43903 0.630115 -0.698087 0
M  V30 42 N 3.70569 -0.12704 1.15949 0
M  V30 43 C 4.68811 -0.0386109 2.12498 0
M  V30 44 C 6.05166 -0.467845 1.48217 0
M  V30 45 O 7.05112 -0.472038 2.2021 0
M  V30 46 N 6.06585 -0.818845 0.159953 0
M  V30 47 C 6.68077 -1.31477 -1.01245 0 CFG=1
M  V30 48 C 6.38239 -0.546303 -2.23735 0
M  V30 49 O 7.14021 0.545901 -2.52187 0
M  V30 50 C 8.12756 -1.62478 -0.778898 0
M  V30 51 O 8.57217 -2.75973 -0.983935 0
M  V30 52 N 9.02253 -0.637389 -0.320389 0
M  V30 53 C 10.4176 -0.844124 -0.166476 0 CFG=1
M  V30 54 C 10.9387 0.449885 0.479468 0
M  V30 55 C 12.3939 0.43611 0.69034 0
M  V30 56 C 12.8488 1.76509 1.23601 0
M  V30 57 N 12.5646 2.77582 0.241999 0
M  V30 58 C 13.0451 4.0823 0.386327 0
M  V30 59 N 12.2562 5.22523 0.661473 0
M  V30 60 N 14.3433 4.2467 0.254484 0
M  V30 61 C 10.8438 -2.04784 0.494303 0
M  V30 62 O 12.1378 -2.65171 0.174884 0
M  V30 63 O 10.1863 -2.69636 1.36768 0
M  V30 64 C 2.54621 -2.55211 -0.582592 0 CFG=1
M  V30 65 C 2.13583 -3.94442 -0.186086 0
M  V30 66 C 2.43192 -2.43276 -2.12071 0
M  V30 67 C 3.10821 -3.63838 -2.72483 0
M  V30 68 H -13.3989 2.71757 0.127644 0
M  V30 69 H -11.6946 3.90465 -1.29519 0
M  V30 70 H -12.2374 2.98464 -2.57759 0
M  V30 71 H -13.2924 0.990457 -2.47386 0
M  V30 72 H -14.6712 1.92769 -1.76409 0
M  V30 73 H -14.8273 -1.03957 -1.40287 0
M  V30 74 H -12.0311 -0.0515657 0.747705 0
M  V30 75 H -9.5196 0.963072 1.32141 0
M  V30 76 H -10.2081 -1.85912 0.365483 0
M  V30 77 H -8.79992 -1.49669 1.40381 0
M  V30 78 H -11.2668 -0.803167 4.27937 0
M  V30 79 H -6.48595 0.790606 0.881141 0
M  V30 80 H -7.89908 1.92033 1.19338 0
M  V30 81 H -5.39459 2.69789 0.226664 0
M  V30 82 H -6.97522 3.60918 -0.0514231 0
M  V30 83 H -5.24655 2.13638 -1.92006 0
M  V30 84 H -6.70805 3.16886 -2.29049 0
M  V30 85 H -7.79341 1.22699 -2.78254 0
M  V30 86 H -7.23596 -1.64616 -0.93454 0
M  V30 87 H -5.15506 -2.40604 -2.75692 0
M  V30 88 H -5.67117 -3.27169 -1.19744 0
M  V30 89 H -2.59755 -3.15964 -0.978826 0
M  V30 90 H -1.95511 -0.340319 -0.577638 0
M  V30 91 H -3.49853 -0.787365 1.49264 0
M  V30 92 H -2.21772 -1.95692 1.94346 0
M  V30 93 H -2.95514 1.47644 0.932526 0
M  V30 94 H -1.54083 3.44451 1.71459 0
M  V30 95 H 0.329459 4.27884 2.97981 0
M  V30 96 H 1.03851 0.75604 3.77984 0
M  V30 97 H -0.281718 -1.10185 3.05625 0
M  V30 98 H 0.299489 -0.0843635 -0.29178 0
M  V30 99 H 1.93349 -1.84939 1.24948 0
M  V30 100 H 4.25044 0.991194 0.546391 0
M  V30 101 H 4.54435 -0.718679 3.01691 0
M  V30 102 H 4.83839 0.969271 2.55457 0
M  V30 103 H 4.97332 -0.58372 -0.327274 0
M  V30 104 H 6.27142 -2.39422 -1.1118 0
M  V30 105 H 5.40329 0.167651 -1.80519 0
M  V30 106 H 5.7333 -1.04513 -2.91715 0
M  V30 107 H 8.15717 0.231565 -2.40243 0
M  V30 108 H 8.5898 0.30862 -0.0644705 0
M  V30 109 H 10.865 -0.935477 -1.21708 0
M  V30 110 H 10.4819 0.342867 1.54938 0
M  V30 111 H 10.5874 1.32535 -0.0355039 0
M  V30 112 H 12.7698 -0.433875 1.34722 0
M  V30 113 H 12.8552 0.234835 -0.34102 0
M  V30 114 H 12.1841 2.02492 2.11118 0
M  V30 115 H 13.9035 1.83253 1.51236 0
M  V30 116 H 11.9755 2.59781 -0.59522 0
M  V30 117 H 12.7134 6.06328 1.08962 0
M  V30 118 H 11.2236 5.34154 0.452236 0
M  V30 119 H 14.9061 3.37721 0.0398709 0
M  V30 120 H 12.1925 -2.90043 -0.841766 0
M  V30 121 H 3.62234 -2.46203 -0.365088 0
M  V30 122 H 1.41955 -4.45579 -0.787713 0
M  V30 123 H 3.11526 -4.52579 -0.152095 0
M  V30 124 H 1.91141 -3.91961 0.920466 0
M  V30 125 H 3.01055 -1.5709 -2.5103 0
M  V30 126 H 1.38753 -2.33239 -2.44101 0
M  V30 127 H 2.68431 -4.60993 -2.3177 0
M  V30 128 H 4.18311 -3.62525 -2.70762 0
M  V30 129 H 2.73561 -3.69393 -3.81252 0
M  V30 END ATOM
M  V30 BEGIN BOND
M  V30 1 1 1 2
M  V30 2 1 1 3
M  V30 3 1 3 4
M  V30 4 1 1 5
M  V30 5 2 5 6
M  V30 6 1 5 7
M  V30 7 1 7 8
M  V30 8 1 8 9
M  V30 9 1 9 10
M  V30 10 1 10 11
M  V30 11 2 10 12
M  V30 12 1 8 13
M  V30 13 2 13 14
M  V30 14 1 13 15
M  V30 15 1 15 16
M  V30 16 1 16 17
M  V30 17 1 17 18
M  V30 18 1 18 19
M  V30 19 1 19 20
M  V30 20 2 20 21
M  V30 21 1 20 22
M  V30 22 1 22 23
M  V30 23 1 23 24
M  V30 24 2 24 25
M  V30 25 1 24 26
M  V30 26 1 26 27
M  V30 27 1 27 28
M  V30 28 1 28 29
M  V30 29 2 29 30
M  V30 30 1 30 31
M  V30 31 2 31 32
M  V30 32 1 32 33
M  V30 33 1 32 34
M  V30 34 2 34 35
M  V30 35 1 27 36
M  V30 36 2 36 37
M  V30 37 1 36 38
M  V30 38 1 38 39
M  V30 39 1 39 40
M  V30 40 2 40 41
M  V30 41 1 40 42
M  V30 42 1 42 43
M  V30 43 1 43 44
M  V30 44 2 44 45
M  V30 45 1 44 46
M  V30 46 1 46 47
M  V30 47 1 47 48
M  V30 48 1 48 49
M  V30 49 1 47 50
M  V30 50 2 50 51
M  V30 51 1 50 52
M  V30 52 1 52 53
M  V30 53 1 53 54
M  V30 54 1 54 55
M  V30 55 1 55 56
M  V30 56 1 56 57
M  V30 57 1 57 58
M  V30 58 1 58 59
M  V30 59 2 58 60 CFG=2
M  V30 60 1 53 61
M  V30 61 1 61 62
M  V30 62 2 61 63
M  V30 63 1 39 64
M  V30 64 1 64 65
M  V30 65 1 64 66
M  V30 66 1 66 67
M  V30 67 1 19 15
M  V30 68 1 35 29
M  V30 69 1 1 68 CFG=1
M  V30 70 1 2 69
M  V30 71 1 2 70
M  V30 72 1 3 71
M  V30 73 1 3 72
M  V30 74 1 4 73
M  V30 75 1 7 74
M  V30 76 1 8 75 CFG=1
M  V30 77 1 9 76
M  V30 78 1 9 77
M  V30 79 1 11 78
M  V30 80 1 16 79
M  V30 81 1 16 80
M  V30 82 1 17 81
M  V30 83 1 17 82
M  V30 84 1 18 83
M  V30 85 1 18 84
M  V30 86 1 19 85 CFG=3
M  V30 87 1 22 86
M  V30 88 1 23 87
M  V30 89 1 23 88
M  V30 90 1 26 89
M  V30 91 1 27 90 CFG=3
M  V30 92 1 28 91
M  V30 93 1 28 92
M  V30 94 1 30 93
M  V30 95 1 31 94
M  V30 96 1 33 95
M  V30 97 1 34 96
M  V30 98 1 35 97
M  V30 99 1 38 98
M  V30 100 1 39 99 CFG=1
M  V30 101 1 42 100
M  V30 102 1 43 101
M  V30 103 1 43 102
M  V30 104 1 46 103
M  V30 105 1 47 104 CFG=3
M  V30 106 1 48 105
M  V30 107 1 48 106
M  V30 108 1 49 107
M  V30 109 1 52 108
M  V30 110 1 53 109 CFG=3
M  V30 111 1 54 110
M  V30 112 1 54 111
M  V30 113 1 55 112
M  V30 114 1 55 113
M  V30 115 1 56 114
M  V30 116 1 56 115
M  V30 117 1 57 116
M  V30 118 1 59 117
M  V30 119 1 59 118
M  V30 120 1 60 119
M  V30 121 1 62 120
M  V30 122 1 64 121 CFG=3
M  V30 123 1 65 122
M  V30 124 1 65 123
M  V30 125 1 65 124
M  V30 126 1 66 125
M  V30 127 1 66 126
M  V30 128 1 67 127
M  V30 129 1 67 128
M  V30 130 1 67 129
M  V30 END BOND
M  V30 END CTAB
M  END
