
     RDKit          3D

  0  0  0  0  0  0  0  0  0  0999 V3000
M  V30 BEGIN CTAB
M  V30 COUNTS 32 33 0 0 0
M  V30 BEGIN ATOM
M  V30 1 N -5.37069 -1.02879 0.193716 0
M  V30 2 N -4.99811 0.304189 0.0118474 0
M  V30 3 C -5.57979 1.20991 -0.82121 0
M  V30 4 N -4.88269 2.34263 -0.64932 0
M  V30 5 N -3.91387 2.16182 0.24333 0
M  V30 6 C -3.98007 0.878913 0.664897 0
M  V30 7 S -2.90304 0.100347 1.8678 0
M  V30 8 C -1.46457 -0.645213 1.05128 0
M  V30 9 C -0.57763 0.390798 0.428581 0
M  V30 10 C 0.592328 -0.311386 -0.225729 0
M  V30 11 C 1.52942 0.686291 -0.88859 0
M  V30 12 S 2.89285 -0.218897 -1.63601 0
M  V30 13 C 3.907 -0.980464 -0.365034 0
M  V30 14 N 3.80767 -2.18632 0.206555 0
M  V30 15 N 4.79026 -2.29468 1.0954 0
M  V30 16 C 5.52486 -1.17423 1.10622 0
M  V30 17 N 4.97169 -0.360509 0.19684 0
M  V30 18 N 5.41706 0.92538 -0.126006 0
M  V30 19 H -4.94701 -1.74767 -0.402019 0
M  V30 20 H -6.06838 -1.24694 0.932192 0
M  V30 21 H -6.43013 1.01447 -1.47096 0
M  V30 22 H -1.76457 -1.36179 0.259835 0
M  V30 23 H -0.879337 -1.19187 1.81706 0
M  V30 24 H -0.205276 1.12393 1.17686 0
M  V30 25 H -1.09488 0.983315 -0.35023 0
M  V30 26 H 1.10485 -0.959394 0.495878 0
M  V30 27 H 0.147936 -0.943505 -1.0421 0
M  V30 28 H 0.957907 1.19583 -1.69275 0
M  V30 29 H 1.84779 1.4708 -0.183393 0
M  V30 30 H 6.393 -0.91543 1.69844 0
M  V30 31 H 4.74723 1.68649 -0.297653 0
M  V30 32 H 6.4282 1.09197 -0.187765 0
M  V30 END ATOM
M  V30 BEGIN BOND
M  V30 1 1 1 2
M  V30 2 1 2 3
M  V30 3 2 3 4
M  V30 4 1 4 5
M  V30 5 2 5 6
M  V30 6 1 6 7
M  V30 7 1 7 8
M  V30 8 1 8 9
M  V30 9 1 9 10
M  V30 10 1 10 11
M  V30 11 1 11 12
M  V30 12 1 12 13
M  V30 13 2 13 14
M  V30 14 1 14 15
M  V30 15 2 15 16
M  V30 16 1 16 17
M  V30 17 1 17 18
M  V30 18 1 6 2
M  V30 19 1 17 13
M  V30 20 1 1 19
M  V30 21 1 1 20
M  V30 22 1 3 21
M  V30 23 1 8 22
M  V30 24 1 8 23
M  V30 25 1 9 24
M  V30 26 1 9 25
M  V30 27 1 10 26
M  V30 28 1 10 27
M  V30 29 1 11 28
M  V30 30 1 11 29
M  V30 31 1 16 30
M  V30 32 1 18 31
M  V30 33 1 18 32
M  V30 END BOND
M  V30 END CTAB
M  END
