
     RDKit          3D

  0  0  0  0  0  0  0  0  0  0999 V3000
M  V30 BEGIN CTAB
M  V30 COUNTS 20 20 0 0 0
M  V30 BEGIN ATOM
M  V30 1 N 2.72661 1.27073 0.730434 0
M  V30 2 C 1.87116 0.264575 0.21482 0
M  V30 3 C 2.35987 -0.974781 -0.159618 0
M  V30 4 C 1.48198 -1.91229 -0.653715 0
M  V30 5 N 0.185993 -1.58242 -0.751107 0
M  V30 6 C -0.300844 -0.386566 -0.392395 0
M  V30 7 N 0.559431 0.522244 0.0881435 0
M  V30 8 C -1.74421 -0.069355 -0.519361 0
M  V30 9 N -1.94797 1.2422 -1.0992 0
M  V30 10 C -2.3278 -0.0584886 0.872177 0
M  V30 11 H 2.51683 1.59094 1.7166 0
M  V30 12 H 3.50222 1.65513 0.162042 0
M  V30 13 H 3.41664 -1.18093 -0.0570505 0
M  V30 14 H 1.88347 -2.8759 -0.941209 0
M  V30 15 H -2.27004 -0.799799 -1.1481 0
M  V30 16 H -1.55681 2.00965 -0.499901 0
M  V30 17 H -2.99751 1.39021 -1.10629 0
M  V30 18 H -2.49789 -1.11178 1.17953 0
M  V30 19 H -1.60555 0.465497 1.53449 0
M  V30 20 H -3.25559 0.541129 0.829713 0
M  V30 END ATOM
M  V30 BEGIN BOND
M  V30 1 1 1 2
M  V30 2 2 2 3
M  V30 3 1 3 4
M  V30 4 2 4 5
M  V30 5 1 5 6
M  V30 6 2 6 7
M  V30 7 1 6 8
M  V30 8 1 8 9
M  V30 9 1 8 10
M  V30 10 1 7 2
M  V30 11 1 1 11
M  V30 12 1 1 12
M  V30 13 1 3 13
M  V30 14 1 4 14
M  V30 15 1 8 15
M  V30 16 1 9 16
M  V30 17 1 9 17
M  V30 18 1 10 18
M  V30 19 1 10 19
M  V30 20 1 10 20
M  V30 END BOND
M  V30 END CTAB
M  END
