
     RDKit          3D

  0  0  0  0  0  0  0  0  0  0999 V3000
M  V30 BEGIN CTAB
M  V30 COUNTS 26 26 0 0 0
M  V30 BEGIN ATOM
M  V30 1 N -2.05624 -0.667827 1.70032 0
M  V30 2 C -1.71067 -1.33938 0.420961 0
M  V30 3 C -1.40477 -0.266008 -0.606501 0
M  V30 4 C -0.275369 0.610111 -0.309757 0
M  V30 5 C -0.4114 1.96146 -0.567015 0
M  V30 6 Cl -1.98521 2.57829 -1.0948 0
M  V30 7 C 0.587146 2.87214 -0.451558 0
M  V30 8 C 1.83206 2.38097 -0.0435915 0
M  V30 9 C 2.01332 1.05323 0.215932 0
M  V30 10 C 0.934744 0.155357 0.0769778 0
M  V30 11 O 1.17883 -1.17783 0.348169 0
M  V30 12 C 2.42645 -1.69754 0.721157 0
M  V30 13 N -1.13145 -1.02428 -1.84082 0
M  V30 14 H -2.8315 -1.18302 2.1238 0
M  V30 15 H -2.56177 0.225587 1.31835 0
M  V30 16 H -0.957112 -2.09961 0.550797 0
M  V30 17 H -2.65439 -1.84171 0.0868916 0
M  V30 18 H -2.3461 0.260182 -0.774186 0
M  V30 19 H 0.438802 3.91002 -0.656456 0
M  V30 20 H 2.66752 3.10088 0.0939664 0
M  V30 21 H 3.00211 0.713939 0.506087 0
M  V30 22 H 3.08943 -1.8191 -0.189534 0
M  V30 23 H 2.29263 -2.74071 1.09415 0
M  V30 24 H 2.90118 -1.1237 1.51754 0
M  V30 25 H -1.22714 -2.06647 -1.65863 0
M  V30 26 H -1.81109 -0.775005 -2.58223 0
M  V30 END ATOM
M  V30 BEGIN BOND
M  V30 1 1 1 2
M  V30 2 1 2 3
M  V30 3 1 3 4
M  V30 4 2 4 5
M  V30 5 1 5 6
M  V30 6 1 5 7
M  V30 7 2 7 8
M  V30 8 1 8 9
M  V30 9 2 9 10
M  V30 10 1 10 11
M  V30 11 1 11 12
M  V30 12 1 3 13
M  V30 13 1 10 4
M  V30 14 1 1 14
M  V30 15 1 1 15
M  V30 16 1 2 16
M  V30 17 1 2 17
M  V30 18 1 3 18
M  V30 19 1 7 19
M  V30 20 1 8 20
M  V30 21 1 9 21
M  V30 22 1 12 22
M  V30 23 1 12 23
M  V30 24 1 12 24
M  V30 25 1 13 25
M  V30 26 1 13 26
M  V30 END BOND
M  V30 END CTAB
M  END
