
     RDKit          3D

  0  0  0  0  0  0  0  0  0  0999 V3000
M  V30 BEGIN CTAB
M  V30 COUNTS 46 48 0 0 0
M  V30 BEGIN ATOM
M  V30 1 N 4.24097 -3.90527 -0.406357 0
M  V30 2 C 3.48608 -2.66031 -0.495304 0
M  V30 3 C 3.67635 -1.80337 0.712204 0
M  V30 4 N 2.90887 -0.550585 0.647484 0
M  V30 5 C 1.49506 -0.553196 0.695421 0
M  V30 6 C 0.730962 0.54624 0.415993 0
M  V30 7 C 1.33952 1.78465 -0.0481727 0
M  V30 8 O 2.57975 1.89308 -0.189517 0
M  V30 9 C 0.514372 2.95253 -0.370042 0
M  V30 10 C 1.15544 4.1037 -0.806354 0
M  V30 11 O 2.48944 4.27387 -0.972387 0
M  V30 12 C 0.320866 5.19962 -1.1033 0
M  V30 13 C -1.02518 5.1439 -0.974396 0
M  V30 14 C -1.68394 3.97072 -0.529277 0
M  V30 15 O -3.03459 4.00578 -0.430202 0
M  V30 16 C -0.857655 2.90218 -0.240792 0
M  V30 17 C -1.45089 1.6394 0.22902 0
M  V30 18 O -2.68659 1.61012 0.336458 0
M  V30 19 C -0.665797 0.45632 0.56053 0
M  V30 20 C -1.31852 -0.674755 0.967973 0
M  V30 21 N -2.7028 -0.81016 1.19583 0
M  V30 22 C -3.30597 -2.13561 1.39229 0
M  V30 23 C -3.28381 -2.96771 0.13647 0
M  V30 24 N -4.03462 -2.31065 -0.937623 0
M  V30 25 C -0.496557 -1.7894 1.24537 0
M  V30 26 C 0.854152 -1.73268 1.11506 0
M  V30 27 H 4.27931 -4.19309 0.614023 0
M  V30 28 H 5.2143 -3.70015 -0.745996 0
M  V30 29 H 3.8931 -2.10168 -1.40201 0
M  V30 30 H 2.43085 -2.82678 -0.751887 0
M  V30 31 H 3.41061 -2.2881 1.6656 0
M  V30 32 H 4.77608 -1.53387 0.744316 0
M  V30 33 H 3.46841 0.285769 0.596798 0
M  V30 34 H 3.32086 3.8609 -0.902769 0
M  V30 35 H 0.826158 6.11085 -1.44852 0
M  V30 36 H -1.67317 6.00229 -1.20745 0
M  V30 37 H -3.73457 3.42497 -0.179044 0
M  V30 38 H -3.34575 -0.0362971 1.26577 0
M  V30 39 H -4.38269 -2.02666 1.66353 0
M  V30 40 H -2.85457 -2.67636 2.24566 0
M  V30 41 H -3.84853 -3.91071 0.337189 0
M  V30 42 H -2.28725 -3.18797 -0.256411 0
M  V30 43 H -4.61936 -1.53763 -0.570295 0
M  V30 44 H -4.65977 -2.96315 -1.43917 0
M  V30 45 H -0.955975 -2.69883 1.57908 0
M  V30 46 H 1.49707 -2.59187 1.34139 0
M  V30 END ATOM
M  V30 BEGIN BOND
M  V30 1 1 1 2
M  V30 2 1 2 3
M  V30 3 1 3 4
M  V30 4 1 4 5
M  V30 5 2 5 6
M  V30 6 1 6 7
M  V30 7 2 7 8
M  V30 8 1 7 9
M  V30 9 2 9 10
M  V30 10 1 10 11
M  V30 11 1 10 12
M  V30 12 2 12 13
M  V30 13 1 13 14
M  V30 14 1 14 15
M  V30 15 2 14 16
M  V30 16 1 16 17
M  V30 17 2 17 18
M  V30 18 1 17 19
M  V30 19 2 19 20
M  V30 20 1 20 21
M  V30 21 1 21 22
M  V30 22 1 22 23
M  V30 23 1 23 24
M  V30 24 1 20 25
M  V30 25 2 25 26
M  V30 26 1 26 5
M  V30 27 1 19 6
M  V30 28 1 16 9
M  V30 29 1 1 27
M  V30 30 1 1 28
M  V30 31 1 2 29
M  V30 32 1 2 30
M  V30 33 1 3 31
M  V30 34 1 3 32
M  V30 35 1 4 33
M  V30 36 1 11 34
M  V30 37 1 12 35
M  V30 38 1 13 36
M  V30 39 1 15 37
M  V30 40 1 21 38
M  V30 41 1 22 39
M  V30 42 1 22 40
M  V30 43 1 23 41
M  V30 44 1 23 42
M  V30 45 1 24 43
M  V30 46 1 24 44
M  V30 47 1 25 45
M  V30 48 1 26 46
M  V30 END BOND
M  V30 END CTAB
M  END
