
     RDKit          3D

  0  0  0  0  0  0  0  0  0  0999 V3000
M  V30 BEGIN CTAB
M  V30 COUNTS 74 79 0 0 0
M  V30 BEGIN ATOM
M  V30 1 C 7.39263 -3.31187 0.478357 0
M  V30 2 C 6.4751 -2.3307 -0.204538 0
M  V30 3 C 6.76454 -0.938399 0.196298 0
M  V30 4 N 7.70749 -0.489173 1.05715 0
M  V30 5 C 7.6239 0.86269 1.13217 0
M  V30 6 C 6.60919 1.26591 0.302241 0
M  V30 7 N 6.11162 0.136923 -0.248984 0
M  V30 8 C 5.02486 0.123559 -1.18628 0
M  V30 9 C 3.72922 0.00182658 -0.419552 0
M  V30 10 C 2.61451 -0.0121913 -1.38016 0
M  V30 11 O 2.85866 0.065894 -2.63376 0
M  V30 12 N 1.27601 -0.111451 -0.926377 0
M  V30 13 C 0.21304 -0.122409 -1.90399 0
M  V30 14 C -1.0296 0.382924 -1.15849 0
M  V30 15 C -1.37395 -0.680593 -0.156668 0
M  V30 16 C -0.270528 -0.875741 0.829925 0
M  V30 17 C 1.01383 -0.19659 0.466303 0
M  V30 18 O -1.6381 -1.88381 -0.77228 0
M  V30 19 C -2.67226 -1.83877 -1.67929 0
M  V30 20 C -3.96611 -1.35201 -1.11723 0 CFG=2
M  V30 21 C -3.81841 -0.112309 -0.288059 0 CFG=2
M  V30 22 C -2.61557 -0.257986 0.592346 0
M  V30 23 N -4.97637 0.099164 0.550071 0
M  V30 24 C -5.22991 -0.298087 1.80775 0
M  V30 25 N -6.43539 0.110102 2.22489 0
M  V30 26 C -7.00396 0.799165 1.21917 0
M  V30 27 C -6.09127 0.790916 0.174871 0
M  V30 28 N -6.46028 1.43198 -0.947338 0
M  V30 29 C -7.65029 2.05728 -1.074 0
M  V30 30 N -7.91441 2.69341 -2.30656 0
M  V30 31 N -8.50645 2.0441 -0.0437315 0
M  V30 32 C -8.22045 1.42705 1.11711 0
M  V30 33 N -9.13976 1.41686 2.21367 0
M  V30 34 C -4.60818 -2.48131 -0.342698 0
M  V30 35 O -4.82256 -1.0802 -2.20441 0
M  V30 36 C 6.26689 2.59004 0.151506 0
M  V30 37 C 6.96938 3.55967 0.861868 0
M  V30 38 C 7.98736 3.14688 1.69356 0
M  V30 39 C 8.32018 1.82349 1.83622 0
M  V30 40 H 6.89972 -4.30702 0.44405 0
M  V30 41 H 8.35783 -3.2961 -0.0369306 0
M  V30 42 H 7.47543 -3.02203 1.53285 0
M  V30 43 H 5.42339 -2.62788 -0.0053348 0
M  V30 44 H 6.62389 -2.4411 -1.30128 0
M  V30 45 H 4.97571 1.08724 -1.74532 0
M  V30 46 H 5.08154 -0.746388 -1.86869 0
M  V30 47 H 3.59168 0.856582 0.29237 0
M  V30 48 H 3.69962 -0.966246 0.152529 0
M  V30 49 H 0.425344 0.525931 -2.77527 0
M  V30 50 H -0.0253691 -1.17118 -2.21929 0
M  V30 51 H -1.82557 0.567062 -1.87679 0
M  V30 52 H -0.774482 1.32342 -0.654908 0
M  V30 53 H -0.556502 -0.500945 1.84777 0
M  V30 54 H -0.0638698 -1.97114 0.989805 0
M  V30 55 H 1.83699 -0.760782 0.951715 0
M  V30 56 H 1.04927 0.825693 0.939606 0
M  V30 57 H -2.83971 -2.89271 -2.02829 0
M  V30 58 H -2.40147 -1.27817 -2.61267 0
M  V30 59 H -3.64242 0.745478 -0.967194 0
M  V30 60 H -2.83918 -1.10308 1.30783 0
M  V30 61 H -2.40886 0.6395 1.21194 0
M  V30 62 H -4.54258 -0.876073 2.40592 0
M  V30 63 H -8.6007 2.27172 -2.95362 0
M  V30 64 H -7.43441 3.56733 -2.56725 0
M  V30 65 H -9.70133 2.25007 2.44302 0
M  V30 66 H -9.26076 0.555931 2.80907 0
M  V30 67 H -4.39996 -3.46067 -0.812673 0
M  V30 68 H -4.23483 -2.54679 0.698822 0
M  V30 69 H -5.71104 -2.38531 -0.275977 0
M  V30 70 H -4.48409 -0.236356 -2.59487 0
M  V30 71 H 5.45897 2.85328 -0.515547 0
M  V30 72 H 6.69173 4.60128 0.736109 0
M  V30 73 H 8.51343 3.93136 2.23188 0
M  V30 74 H 9.128 1.5319 2.50014 0
M  V30 END ATOM
M  V30 BEGIN BOND
M  V30 1 1 1 2
M  V30 2 1 2 3
M  V30 3 2 3 4
M  V30 4 1 4 5
M  V30 5 2 5 6
M  V30 6 1 6 7
M  V30 7 1 7 8
M  V30 8 1 8 9
M  V30 9 1 9 10
M  V30 10 2 10 11
M  V30 11 1 10 12
M  V30 12 1 12 13
M  V30 13 1 13 14
M  V30 14 1 14 15
M  V30 15 1 15 16
M  V30 16 1 16 17
M  V30 17 1 15 18
M  V30 18 1 18 19
M  V30 19 1 19 20
M  V30 20 1 20 21
M  V30 21 1 21 22
M  V30 22 1 21 23
M  V30 23 1 23 24
M  V30 24 2 24 25
M  V30 25 1 25 26
M  V30 26 2 26 27
M  V30 27 1 27 28
M  V30 28 2 28 29
M  V30 29 1 29 30
M  V30 30 1 29 31
M  V30 31 2 31 32
M  V30 32 1 32 33
M  V30 33 1 20 34
M  V30 34 1 20 35 CFG=3
M  V30 35 1 6 36
M  V30 36 2 36 37
M  V30 37 1 37 38
M  V30 38 2 38 39
M  V30 39 1 7 3
M  V30 40 1 17 12
M  V30 41 1 27 23
M  V30 42 1 39 5
M  V30 43 1 22 15
M  V30 44 1 32 26
M  V30 45 1 1 40
M  V30 46 1 1 41
M  V30 47 1 1 42
M  V30 48 1 2 43
M  V30 49 1 2 44
M  V30 50 1 8 45
M  V30 51 1 8 46
M  V30 52 1 9 47
M  V30 53 1 9 48
M  V30 54 1 13 49
M  V30 55 1 13 50
M  V30 56 1 14 51
M  V30 57 1 14 52
M  V30 58 1 16 53
M  V30 59 1 16 54
M  V30 60 1 17 55
M  V30 61 1 17 56
M  V30 62 1 19 57
M  V30 63 1 19 58
M  V30 64 1 21 59 CFG=3
M  V30 65 1 22 60
M  V30 66 1 22 61
M  V30 67 1 24 62
M  V30 68 1 30 63
M  V30 69 1 30 64
M  V30 70 1 33 65
M  V30 71 1 33 66
M  V30 72 1 34 67
M  V30 73 1 34 68
M  V30 74 1 34 69
M  V30 75 1 35 70
M  V30 76 1 36 71
M  V30 77 1 37 72
M  V30 78 1 38 73
M  V30 79 1 39 74
M  V30 END BOND
M  V30 END CTAB
M  END
