
     RDKit          3D

  0  0  0  0  0  0  0  0  0  0999 V3000
M  V30 BEGIN CTAB
M  V30 COUNTS 36 38 0 0 0
M  V30 BEGIN ATOM
M  V30 1 C -4.73679 -1.89247 0.732318 0
M  V30 2 C -4.26888 -0.428817 0.642073 0
M  V30 3 C -4.73575 0.18804 1.98824 0
M  V30 4 O -2.94793 -0.336131 0.5126 0
M  V30 5 C -1.9689 0.197133 -0.241825 0
M  V30 6 N -0.654505 -0.0512176 0.111929 0
M  V30 7 C 0.383805 0.430982 -0.570039 0
M  V30 8 C 0.0930721 1.20667 -1.66975 0
M  V30 9 N -1.17473 1.46394 -2.03608 0
M  V30 10 C -2.24085 0.970391 -1.33807 0
M  V30 11 N -3.55923 1.2814 -1.78068 0
M  V30 12 C 1.76014 0.144915 -0.162792 0
M  V30 13 C 1.96232 -0.643919 0.955606 0
M  V30 14 C 3.21053 -0.970153 1.41954 0
M  V30 15 C 4.32864 -0.501569 0.756686 0
M  V30 16 O 5.61998 -0.621959 0.928885 0
M  V30 17 C 6.29645 0.0305228 0.00481943 0
M  V30 18 N 7.71338 0.127124 -0.130416 0
M  V30 19 N 5.38652 0.598288 -0.801063 0
M  V30 20 C 4.16003 0.284276 -0.35743 0
M  V30 21 C 2.8711 0.605134 -0.813795 0
M  V30 22 H -4.29077 -2.48756 -0.0742924 0
M  V30 23 H -4.39191 -2.28066 1.69412 0
M  V30 24 H -5.82361 -1.88519 0.651664 0
M  V30 25 H -4.85365 0.100581 -0.109124 0
M  V30 26 H -4.82916 1.28049 1.82796 0
M  V30 27 H -5.74376 -0.202033 2.1528 0
M  V30 28 H -4.01309 -0.0162267 2.77884 0
M  V30 29 H 0.933057 1.61775 -2.25117 0
M  V30 30 H -4.11441 2.08254 -1.36298 0
M  V30 31 H -4.05545 0.751514 -2.53041 0
M  V30 32 H 1.08771 -1.01996 1.48758 0
M  V30 33 H 3.36153 -1.58678 2.29378 0
M  V30 34 H 8.20874 0.902358 0.334783 0
M  V30 35 H 8.25607 -0.560742 -0.683222 0
M  V30 36 H 2.77032 1.22133 -1.68738 0
M  V30 END ATOM
M  V30 BEGIN BOND
M  V30 1 1 1 2
M  V30 2 1 2 3
M  V30 3 1 2 4
M  V30 4 1 4 5
M  V30 5 2 5 6
M  V30 6 1 6 7
M  V30 7 2 7 8
M  V30 8 1 8 9
M  V30 9 2 9 10
M  V30 10 1 10 11
M  V30 11 1 7 12
M  V30 12 2 12 13
M  V30 13 1 13 14
M  V30 14 2 14 15
M  V30 15 1 15 16
M  V30 16 1 16 17
M  V30 17 1 17 18
M  V30 18 2 17 19
M  V30 19 1 19 20
M  V30 20 2 20 21
M  V30 21 1 10 5
M  V30 22 1 21 12
M  V30 23 1 20 15
M  V30 24 1 1 22
M  V30 25 1 1 23
M  V30 26 1 1 24
M  V30 27 1 2 25
M  V30 28 1 3 26
M  V30 29 1 3 27
M  V30 30 1 3 28
M  V30 31 1 8 29
M  V30 32 1 11 30
M  V30 33 1 11 31
M  V30 34 1 13 32
M  V30 35 1 14 33
M  V30 36 1 18 34
M  V30 37 1 18 35
M  V30 38 1 21 36
M  V30 END BOND
M  V30 END CTAB
M  END
