
     RDKit          3D

  0  0  0  0  0  0  0  0  0  0999 V3000
M  V30 BEGIN CTAB
M  V30 COUNTS 44 46 0 0 0
M  V30 BEGIN ATOM
M  V30 1 N 7.6904 -0.462244 0.853674 0
M  V30 2 C 6.55411 -1.18011 0.402531 0
M  V30 3 C 5.32701 -0.493594 0.422291 0
M  V30 4 C 4.19038 -1.11538 0.0032509 0
M  V30 5 N 2.95171 -0.450962 -0.0178176 0
M  V30 6 C 2.78404 0.92051 -0.149765 0
M  V30 7 O 3.75623 1.68431 -0.273622 0
M  V30 8 C 1.45645 1.54578 -0.150794 0
M  V30 9 C 0.280631 0.844375 -0.0116433 0
M  V30 10 C -0.963325 1.49686 -0.0203538 0
M  V30 11 C -1.05109 2.85326 -0.167239 0
M  V30 12 C 0.137366 3.58391 -0.310437 0
M  V30 13 C 1.32863 2.91267 -0.29702 0
M  V30 14 C -2.20276 0.696874 0.142114 0
M  V30 15 O -2.06405 -0.430302 0.637968 0
M  V30 16 N -3.43579 1.23128 -0.259252 0
M  V30 17 C -4.6506 0.525908 -0.121916 0
M  V30 18 C -4.90227 -0.525419 0.719942 0
M  V30 19 C -6.14334 -1.18186 0.764859 0
M  V30 20 N -6.37164 -2.26184 1.64198 0
M  V30 21 C -7.1637 -0.770828 -0.0593861 0
M  V30 22 C -6.92067 0.284567 -0.907732 0
M  V30 23 C -5.7147 0.923196 -0.952572 0
M  V30 24 C 4.26869 -2.45283 -0.44628 0
M  V30 25 C 5.47426 -3.08609 -0.450914 0
M  V30 26 C 6.62402 -2.48097 -0.0363373 0
M  V30 27 H 7.95978 -0.518243 1.84442 0
M  V30 28 H 8.2336 0.105749 0.19085 0
M  V30 29 H 5.36393 0.527283 0.805898 0
M  V30 30 H 2.10693 -1.10488 0.0813334 0
M  V30 31 H 0.326079 -0.221234 0.105316 0
M  V30 32 H -1.99488 3.3735 -0.17141 0
M  V30 33 H 0.0181833 4.65139 -0.423637 0
M  V30 34 H 2.24267 3.50658 -0.410739 0
M  V30 35 H -3.49001 2.20204 -0.686103 0
M  V30 36 H -4.15292 -0.881353 1.39791 0
M  V30 37 H -6.94 -3.06741 1.34154 0
M  V30 38 H -5.96977 -2.24808 2.58762 0
M  V30 39 H -8.11893 -1.28319 -0.0183707 0
M  V30 40 H -7.73169 0.598969 -1.55131 0
M  V30 41 H -5.5511 1.76433 -1.64326 0
M  V30 42 H 3.34238 -2.92493 -0.774937 0
M  V30 43 H 5.52791 -4.12728 -0.80217 0
M  V30 44 H 7.58788 -2.9643 -0.0324646 0
M  V30 END ATOM
M  V30 BEGIN BOND
M  V30 1 1 1 2
M  V30 2 2 2 3
M  V30 3 1 3 4
M  V30 4 1 4 5
M  V30 5 1 5 6
M  V30 6 2 6 7
M  V30 7 1 6 8
M  V30 8 2 8 9
M  V30 9 1 9 10
M  V30 10 2 10 11
M  V30 11 1 11 12
M  V30 12 2 12 13
M  V30 13 1 10 14
M  V30 14 2 14 15
M  V30 15 1 14 16
M  V30 16 1 16 17
M  V30 17 2 17 18
M  V30 18 1 18 19
M  V30 19 1 19 20
M  V30 20 2 19 21
M  V30 21 1 21 22
M  V30 22 2 22 23
M  V30 23 2 4 24
M  V30 24 1 24 25
M  V30 25 2 25 26
M  V30 26 1 26 2
M  V30 27 1 13 8
M  V30 28 1 23 17
M  V30 29 1 1 27
M  V30 30 1 1 28
M  V30 31 1 3 29
M  V30 32 1 5 30
M  V30 33 1 9 31
M  V30 34 1 11 32
M  V30 35 1 12 33
M  V30 36 1 13 34
M  V30 37 1 16 35
M  V30 38 1 18 36
M  V30 39 1 20 37
M  V30 40 1 20 38
M  V30 41 1 21 39
M  V30 42 1 22 40
M  V30 43 1 23 41
M  V30 44 1 24 42
M  V30 45 1 25 43
M  V30 46 1 26 44
M  V30 END BOND
M  V30 END CTAB
M  END
