
     RDKit          3D

  0  0  0  0  0  0  0  0  0  0999 V3000
M  V30 BEGIN CTAB
M  V30 COUNTS 32 33 0 0 0
M  V30 BEGIN ATOM
M  V30 1 C 4.64967 1.76005 -1.14599 0
M  V30 2 C 4.13438 0.364065 -1.00074 0
M  V30 3 C 3.11988 0.373047 0.141093 0
M  V30 4 N 2.83747 1.3371 0.953414 0
M  V30 5 N 1.83173 0.966543 1.70901 0
M  V30 6 C 1.46212 -0.296167 1.35618 0
M  V30 7 N 2.29405 -0.68078 0.366006 0
M  V30 8 N 2.34917 -1.92647 -0.267297 0
M  V30 9 S 0.067224 -1.23225 1.99279 0
M  V30 10 C -1.39881 -0.601726 1.10076 0
M  V30 11 C -1.29244 0.656876 0.515408 0
M  V30 12 C -2.37067 1.18295 -0.164577 0
M  V30 13 C -3.55387 0.478231 -0.272766 0
M  V30 14 C -3.67353 -0.763124 0.291541 0
M  V30 15 C -2.5347 -1.28631 0.991261 0
M  V30 16 N -2.68263 -2.58226 1.5265 0
M  V30 17 C -4.72318 1.10029 -0.98047 0
M  V30 18 F -5.88069 0.974811 -0.252651 0
M  V30 19 F -4.90931 0.596284 -2.25744 0
M  V30 20 F -4.47536 2.45761 -1.05281 0
M  V30 21 H 4.18011 2.425 -0.362865 0
M  V30 22 H 5.71082 1.80115 -0.967173 0
M  V30 23 H 4.36291 2.239 -2.13266 0
M  V30 24 H 4.87503 -0.413323 -0.804885 0
M  V30 25 H 3.56566 0.0263257 -1.92472 0
M  V30 26 H 3.0874 -2.16579 -0.97187 0
M  V30 27 H 1.68422 -2.69439 -0.0605985 0
M  V30 28 H -0.386478 1.22062 0.585173 0
M  V30 29 H -2.29242 2.14768 -0.6059 0
M  V30 30 H -4.55458 -1.38093 0.228544 0
M  V30 31 H -2.88344 -2.68605 2.55888 0
M  V30 32 H -2.59973 -3.39808 0.908857 0
M  V30 END ATOM
M  V30 BEGIN BOND
M  V30 1 1 1 2
M  V30 2 1 2 3
M  V30 3 2 3 4
M  V30 4 1 4 5
M  V30 5 2 5 6
M  V30 6 1 6 7
M  V30 7 1 7 8
M  V30 8 1 6 9
M  V30 9 1 9 10
M  V30 10 2 10 11
M  V30 11 1 11 12
M  V30 12 2 12 13
M  V30 13 1 13 14
M  V30 14 2 14 15
M  V30 15 1 15 16
M  V30 16 1 13 17
M  V30 17 1 17 18
M  V30 18 1 17 19
M  V30 19 1 17 20
M  V30 20 1 7 3
M  V30 21 1 15 10
M  V30 22 1 1 21
M  V30 23 1 1 22
M  V30 24 1 1 23
M  V30 25 1 2 24
M  V30 26 1 2 25
M  V30 27 1 8 26
M  V30 28 1 8 27
M  V30 29 1 11 28
M  V30 30 1 12 29
M  V30 31 1 14 30
M  V30 32 1 16 31
M  V30 33 1 16 32
M  V30 END BOND
M  V30 END CTAB
M  END
