
     RDKit          3D

  0  0  0  0  0  0  0  0  0  0999 V3000
M  V30 BEGIN CTAB
M  V30 COUNTS 35 36 0 0 0
M  V30 BEGIN ATOM
M  V30 1 N 4.79461 0.978842 1.10752 0
M  V30 2 C 3.44654 0.651253 0.929552 0
M  V30 3 C 2.92481 0.229257 -0.293982 0
M  V30 4 C 1.58455 -0.077843 -0.3983 0
M  V30 5 C 0.721088 0.0148787 0.670993 0
M  V30 6 C 1.25524 0.434205 1.87393 0
M  V30 7 C 2.59557 0.749938 2.01194 0
M  V30 8 C -0.708842 -0.327258 0.503671 0 CFG=2
M  V30 9 C -1.00078 -1.78499 0.636723 0
M  V30 10 C -0.656486 -2.57761 -0.604125 0
M  V30 11 O -1.17192 -2.03525 -1.76182 0
M  V30 12 C -2.48246 -1.64824 -1.57122 0
M  V30 13 C -2.51951 -0.216893 -1.07915 0
M  V30 14 N -1.2116 0.259283 -0.698462 0
M  V30 15 S -1.28982 1.97886 -0.626945 0
M  V30 16 O 0.0381853 2.61149 -0.397583 0
M  V30 17 O -1.86404 2.52758 -1.90061 0
M  V30 18 N -2.37617 2.47539 0.648098 0
M  V30 19 H 5.05334 1.85596 1.59192 0
M  V30 20 H 5.55073 0.362389 0.764887 0
M  V30 21 H 3.6169 0.161883 -1.12383 0
M  V30 22 H 1.18738 -0.40348 -1.3473 0
M  V30 23 H 0.626341 0.520218 2.72504 0
M  V30 24 H 2.99057 1.07856 2.97396 0
M  V30 25 H -1.24319 0.185423 1.35718 0
M  V30 26 H -2.04829 -1.91535 0.945096 0
M  V30 27 H -0.377096 -2.1984 1.45619 0
M  V30 28 H 0.444984 -2.64316 -0.714959 0
M  V30 29 H -1.02307 -3.61257 -0.455226 0
M  V30 30 H -2.99931 -2.28432 -0.821098 0
M  V30 31 H -3.03578 -1.75596 -2.52888 0
M  V30 32 H -2.85068 0.408445 -1.93589 0
M  V30 33 H -3.27797 -0.0706718 -0.284918 0
M  V30 34 H -1.78576 2.72899 1.48273 0
M  V30 35 H -2.90805 3.33916 0.353557 0
M  V30 END ATOM
M  V30 BEGIN BOND
M  V30 1 1 1 2
M  V30 2 2 2 3
M  V30 3 1 3 4
M  V30 4 2 4 5
M  V30 5 1 5 6
M  V30 6 2 6 7
M  V30 7 1 5 8
M  V30 8 1 8 9
M  V30 9 1 9 10
M  V30 10 1 10 11
M  V30 11 1 11 12
M  V30 12 1 12 13
M  V30 13 1 13 14
M  V30 14 1 14 15
M  V30 15 2 15 16
M  V30 16 2 15 17
M  V30 17 1 15 18
M  V30 18 1 7 2
M  V30 19 1 14 8
M  V30 20 1 1 19
M  V30 21 1 1 20
M  V30 22 1 3 21
M  V30 23 1 4 22
M  V30 24 1 6 23
M  V30 25 1 7 24
M  V30 26 1 8 25 CFG=1
M  V30 27 1 9 26
M  V30 28 1 9 27
M  V30 29 1 10 28
M  V30 30 1 10 29
M  V30 31 1 12 30
M  V30 32 1 12 31
M  V30 33 1 13 32
M  V30 34 1 13 33
M  V30 35 1 18 34
M  V30 36 1 18 35
M  V30 END BOND
M  V30 END CTAB
M  END
