
     RDKit          3D

  0  0  0  0  0  0  0  0  0  0999 V3000
M  V30 BEGIN CTAB
M  V30 COUNTS 34 35 0 0 0
M  V30 BEGIN ATOM
M  V30 1 O 1.24542 0.349489 -1.94704 0
M  V30 2 C 0.838324 -0.0248834 -0.834915 0
M  V30 3 C -0.531578 0.303922 -0.387455 0
M  V30 4 S -1.62186 -1.06572 -0.853805 0
M  V30 5 C -3.28566 -0.707268 -0.335338 0
M  V30 6 N -4.31253 -1.55074 -0.542174 0
M  V30 7 C -5.55907 -1.20988 -0.12002 0
M  V30 8 N -6.65348 -2.1066 -0.337626 0
M  V30 9 N -5.75329 -0.0275374 0.502539 0
M  V30 10 C -4.73416 0.841935 0.723598 0
M  V30 11 N -3.52851 0.457139 0.28834 0
M  V30 12 N -4.94686 2.09033 1.38177 0
M  V30 13 N 1.66849 -0.767881 0.0234251 0
M  V30 14 C 3.01759 -1.09215 -0.391181 0
M  V30 15 C 3.79238 0.169943 -0.599117 0
M  V30 16 C 3.90263 1.05165 0.628698 0
M  V30 17 C 5.39046 0.966736 0.558263 0
M  V30 18 C 5.30705 -0.10067 -0.512306 0
M  V30 19 H -0.893714 1.27308 -0.7884 0
M  V30 20 H -0.580975 0.401138 0.7236 0
M  V30 21 H -7.16365 -2.02969 -1.22615 0
M  V30 22 H -6.9268 -2.80603 0.363782 0
M  V30 23 H -5.48925 2.09056 2.2619 0
M  V30 24 H -4.59193 3.00712 1.03494 0
M  V30 25 H 1.30617 -1.08756 0.96666 0
M  V30 26 H 3.52575 -1.72652 0.365248 0
M  V30 27 H 2.8969 -1.64691 -1.36684 0
M  V30 28 H 3.57194 0.735787 -1.5212 0
M  V30 29 H 3.48476 0.614744 1.56208 0
M  V30 30 H 3.48281 2.07217 0.45875 0
M  V30 31 H 5.89839 0.561356 1.44619 0
M  V30 32 H 5.87165 1.90439 0.197157 0
M  V30 33 H 5.54157 -1.12038 -0.156742 0
M  V30 34 H 5.83107 0.178941 -1.44294 0
M  V30 END ATOM
M  V30 BEGIN BOND
M  V30 1 2 1 2
M  V30 2 1 2 3
M  V30 3 1 3 4
M  V30 4 1 4 5
M  V30 5 2 5 6
M  V30 6 1 6 7
M  V30 7 1 7 8
M  V30 8 2 7 9
M  V30 9 1 9 10
M  V30 10 2 10 11
M  V30 11 1 10 12
M  V30 12 1 2 13
M  V30 13 1 13 14
M  V30 14 1 14 15
M  V30 15 1 15 16
M  V30 16 1 16 17
M  V30 17 1 17 18
M  V30 18 1 11 5
M  V30 19 1 18 15
M  V30 20 1 3 19
M  V30 21 1 3 20
M  V30 22 1 8 21
M  V30 23 1 8 22
M  V30 24 1 12 23
M  V30 25 1 12 24
M  V30 26 1 13 25
M  V30 27 1 14 26
M  V30 28 1 14 27
M  V30 29 1 15 28
M  V30 30 1 16 29
M  V30 31 1 16 30
M  V30 32 1 17 31
M  V30 33 1 17 32
M  V30 34 1 18 33
M  V30 35 1 18 34
M  V30 END BOND
M  V30 END CTAB
M  END
