
     RDKit          3D

  0  0  0  0  0  0  0  0  0  0999 V3000
M  V30 BEGIN CTAB
M  V30 COUNTS 44 47 0 0 0
M  V30 BEGIN ATOM
M  V30 1 N -6.15875 -0.514892 1.75474 0
M  V30 2 C -5.6171 0.271819 0.703922 0 CFG=2
M  V30 3 C -4.88391 -0.497549 -0.376503 0
M  V30 4 C -3.92817 0.699484 -0.448678 0 CFG=1
M  V30 5 C -4.2686 0.925732 1.02931 0
M  V30 6 C -2.5345 0.35014 -0.711828 0
M  V30 7 C -1.88629 -0.633181 0.00142137 0
M  V30 8 C -0.562988 -0.914481 -0.299749 0
M  V30 9 N 0.114253 -1.93572 0.432224 0
M  V30 10 C 1.49084 -2.28532 0.189418 0
M  V30 11 C 2.41982 -1.15026 0.480244 0
M  V30 12 C 1.987 -0.112528 1.2779 0
M  V30 13 C 2.87184 0.917226 1.52103 0
M  V30 14 C 4.15778 0.936256 0.995881 0
M  V30 15 C 4.60058 -0.0939463 0.198656 0
M  V30 16 C 3.70601 -1.13117 -0.0449207 0
M  V30 17 C 5.99909 0.177105 -0.222747 0
M  V30 18 C 6.1701 1.63507 0.139115 0
M  V30 19 O 5.18375 1.87586 1.12641 0
M  V30 20 N 0.0460363 -0.220801 -1.27634 0
M  V30 21 C -0.579526 0.739635 -1.97635 0
M  V30 22 N -1.86132 0.991526 -1.66367 0
M  V30 23 N 0.152149 1.41551 -2.98929 0
M  V30 24 H -6.90319 -0.10721 2.28158 0
M  V30 25 H -6.25259 -1.49175 1.46214 0
M  V30 26 H -6.27881 1.06463 0.276135 0
M  V30 27 H -5.44104 -0.700825 -1.29067 0
M  V30 28 H -4.35693 -1.35819 0.087276 0
M  V30 29 H -4.37802 1.48634 -1.04968 0
M  V30 30 H -3.62564 0.280074 1.65654 0
M  V30 31 H -4.34485 1.97918 1.31773 0
M  V30 32 H -2.41266 -1.16997 0.781598 0
M  V30 33 H -0.40046 -2.46578 1.18562 0
M  V30 34 H 1.54931 -2.53579 -0.908235 0
M  V30 35 H 1.78325 -3.16951 0.755434 0
M  V30 36 H 0.986703 -0.0933669 1.70841 0
M  V30 37 H 2.51219 1.73329 2.15627 0
M  V30 38 H 4.04773 -1.9423 -0.66976 0
M  V30 39 H 6.73878 -0.401344 0.390296 0
M  V30 40 H 6.15411 0.00832836 -1.30782 0
M  V30 41 H 5.95146 2.25925 -0.730486 0
M  V30 42 H 7.1837 1.83078 0.554459 0
M  V30 43 H 0.618219 2.32591 -2.80845 0
M  V30 44 H 0.250622 1.02274 -3.95839 0
M  V30 END ATOM
M  V30 BEGIN BOND
M  V30 1 1 1 2
M  V30 2 1 2 3
M  V30 3 1 3 4
M  V30 4 1 4 5
M  V30 5 1 4 6
M  V30 6 2 6 7
M  V30 7 1 7 8
M  V30 8 1 8 9
M  V30 9 1 9 10
M  V30 10 1 10 11
M  V30 11 2 11 12
M  V30 12 1 12 13
M  V30 13 2 13 14
M  V30 14 1 14 15
M  V30 15 2 15 16
M  V30 16 1 15 17
M  V30 17 1 17 18
M  V30 18 1 18 19
M  V30 19 2 8 20
M  V30 20 1 20 21
M  V30 21 2 21 22
M  V30 22 1 21 23
M  V30 23 1 5 2
M  V30 24 1 22 6
M  V30 25 1 16 11
M  V30 26 1 19 14
M  V30 27 1 1 24
M  V30 28 1 1 25
M  V30 29 1 2 26 CFG=3
M  V30 30 1 3 27
M  V30 31 1 3 28
M  V30 32 1 4 29 CFG=3
M  V30 33 1 5 30
M  V30 34 1 5 31
M  V30 35 1 7 32
M  V30 36 1 9 33
M  V30 37 1 10 34
M  V30 38 1 10 35
M  V30 39 1 12 36
M  V30 40 1 13 37
M  V30 41 1 16 38
M  V30 42 1 17 39
M  V30 43 1 17 40
M  V30 44 1 18 41
M  V30 45 1 18 42
M  V30 46 1 23 43
M  V30 47 1 23 44
M  V30 END BOND
M  V30 END CTAB
M  END
