
     RDKit          3D

  0  0  0  0  0  0  0  0  0  0999 V3000
M  V30 BEGIN CTAB
M  V30 COUNTS 29 30 0 0 0
M  V30 BEGIN ATOM
M  V30 1 N -1.35234 -0.616326 -1.70716 0
M  V30 2 C -1.05147 -0.230508 -0.342066 0
M  V30 3 C -1.60408 1.13959 -0.00613401 0
M  V30 4 C -2.82105 0.914571 0.846851 0
M  V30 5 C -3.16971 -0.555157 0.608442 0
M  V30 6 C -1.75265 -1.14163 0.589692 0
M  V30 7 C 0.409003 -0.145513 -0.168768 0
M  V30 8 C 1.15749 0.29626 -1.23875 0
M  V30 9 C 2.53906 0.41687 -1.17093 0
M  V30 10 C 3.21455 0.0930128 -0.014217 0
M  V30 11 C 2.47809 -0.35427 1.07434 0
M  V30 12 C 1.09992 -0.464232 0.976806 0
M  V30 13 N 4.6264 0.218699 0.0590161 0
M  V30 14 H -0.669396 -1.33729 -2.00869 0
M  V30 15 H -1.30063 0.25003 -2.29228 0
M  V30 16 H -0.859821 1.75386 0.567495 0
M  V30 17 H -1.80943 1.65196 -0.963232 0
M  V30 18 H -2.57454 0.998886 1.9382 0
M  V30 19 H -3.61059 1.59931 0.547026 0
M  V30 20 H -3.75961 -0.967689 1.43892 0
M  V30 21 H -3.65712 -0.677495 -0.377566 0
M  V30 22 H -1.43009 -1.12773 1.6331 0
M  V30 23 H -1.84375 -2.18744 0.183203 0
M  V30 24 H 0.704239 0.568425 -2.18201 0
M  V30 25 H 3.13099 0.762051 -2.01127 0
M  V30 26 H 3.01787 -0.605343 1.97329 0
M  V30 27 H 0.552296 -0.811677 1.83235 0
M  V30 28 H 5.27024 -0.213395 -0.628363 0
M  V30 29 H 5.0661 0.77217 0.842686 0
M  V30 END ATOM
M  V30 BEGIN BOND
M  V30 1 1 1 2
M  V30 2 1 2 3
M  V30 3 1 3 4
M  V30 4 1 4 5
M  V30 5 1 5 6
M  V30 6 1 2 7
M  V30 7 2 7 8
M  V30 8 1 8 9
M  V30 9 2 9 10
M  V30 10 1 10 11
M  V30 11 2 11 12
M  V30 12 1 10 13
M  V30 13 1 6 2
M  V30 14 1 12 7
M  V30 15 1 1 14
M  V30 16 1 1 15
M  V30 17 1 3 16
M  V30 18 1 3 17
M  V30 19 1 4 18
M  V30 20 1 4 19
M  V30 21 1 5 20
M  V30 22 1 5 21
M  V30 23 1 6 22
M  V30 24 1 6 23
M  V30 25 1 8 24
M  V30 26 1 9 25
M  V30 27 1 11 26
M  V30 28 1 12 27
M  V30 29 1 13 28
M  V30 30 1 13 29
M  V30 END BOND
M  V30 END CTAB
M  END
