
     RDKit          3D

  0  0  0  0  0  0  0  0  0  0999 V3000
M  V30 BEGIN CTAB
M  V30 COUNTS 26 27 0 0 0
M  V30 BEGIN ATOM
M  V30 1 N -1.23261 -2.36598 0.783892 0
M  V30 2 C -1.33887 -1.29436 -0.175802 0
M  V30 3 C -1.95635 -0.0488639 0.423821 0
M  V30 4 C -0.846909 0.962284 0.32392 0
M  V30 5 C -0.215565 0.609132 -0.988703 0
M  V30 6 C -0.045058 -0.902173 -0.796423 0
M  V30 7 C 1.10538 -0.928381 0.132142 0
M  V30 8 O 1.28935 -1.71199 1.07147 0
M  V30 9 N 1.95031 0.158594 -0.308308 0
M  V30 10 C 1.18104 1.04561 -1.10627 0
M  V30 11 O 1.62858 2.00831 -1.77357 0
M  V30 12 C 3.35908 0.309001 0.0190909 0
M  V30 13 N -1.2849 2.31732 0.422453 0
M  V30 14 H -1.2009 -2.04715 1.77033 0
M  V30 15 H -2.13448 -2.9236 0.704931 0
M  V30 16 H -2.02949 -1.60121 -1.01363 0
M  V30 17 H -2.88395 0.26124 -0.0702834 0
M  V30 18 H -2.11281 -0.244603 1.51256 0
M  V30 19 H -0.109881 0.775789 1.12082 0
M  V30 20 H -0.837004 0.838416 -1.86148 0
M  V30 21 H 0.181914 -1.40507 -1.74733 0
M  V30 22 H 4.00672 -0.241477 -0.681303 0
M  V30 23 H 3.58682 1.39866 0.00413552 0
M  V30 24 H 3.47711 -0.06251 1.06314 0
M  V30 25 H -1.52462 2.50561 1.42125 0
M  V30 26 H -2.01293 2.58741 -0.250858 0
M  V30 END ATOM
M  V30 BEGIN BOND
M  V30 1 1 1 2
M  V30 2 1 2 3
M  V30 3 1 3 4
M  V30 4 1 4 5
M  V30 5 1 5 6
M  V30 6 1 6 7
M  V30 7 2 7 8
M  V30 8 1 7 9
M  V30 9 1 9 10
M  V30 10 2 10 11
M  V30 11 1 9 12
M  V30 12 1 4 13
M  V30 13 1 6 2
M  V30 14 1 10 5
M  V30 15 1 1 14
M  V30 16 1 1 15
M  V30 17 1 2 16
M  V30 18 1 3 17
M  V30 19 1 3 18
M  V30 20 1 4 19
M  V30 21 1 5 20
M  V30 22 1 6 21
M  V30 23 1 12 22
M  V30 24 1 12 23
M  V30 25 1 12 24
M  V30 26 1 13 25
M  V30 27 1 13 26
M  V30 END BOND
M  V30 END CTAB
M  END
