
     RDKit          3D

  0  0  0  0  0  0  0  0  0  0999 V3000
M  V30 BEGIN CTAB
M  V30 COUNTS 52 53 0 0 0
M  V30 BEGIN ATOM
M  V30 1 C -5.10345 -1.2588 0.0267495 0 CFG=2
M  V30 2 C -6.10725 -0.426778 0.766632 0
M  V30 3 C -6.19491 0.916662 0.0768281 0
M  V30 4 C -7.18558 1.77177 0.781273 0
M  V30 5 O -8.46092 1.92339 0.269113 0
M  V30 6 O -6.84033 2.34676 1.84155 0
M  V30 7 N -3.77889 -0.703775 -0.016278 0
M  V30 8 C -2.72235 -1.42011 0.548783 0
M  V30 9 O -2.8879 -2.55244 1.10026 0
M  V30 10 C -1.37676 -0.887591 0.524287 0
M  V30 11 C -0.269629 -1.68006 0.70893 0
M  V30 12 C 0.984116 -1.12614 0.686654 0
M  V30 13 C 1.20608 0.212848 0.485033 0
M  V30 14 C 2.58456 0.82595 0.45977 0
M  V30 15 C 3.01556 0.759919 -0.97087 0
M  V30 16 C 4.34134 1.29787 -1.33738 0
M  V30 17 C 5.45158 0.6367 -0.64779 0
M  V30 18 C 5.91896 1.01045 0.580053 0
M  V30 19 N 5.39396 2.16311 1.2139 0
M  V30 20 N 6.92913 0.306703 1.18218 0
M  V30 21 C 7.49597 -0.757606 0.607152 0
M  V30 22 N 8.55721 -1.46703 1.27839 0
M  V30 23 N 7.06009 -1.14783 -0.59869 0
M  V30 24 C 6.07512 -0.485443 -1.21623 0
M  V30 25 C 0.0962625 0.992022 0.302616 0
M  V30 26 C -1.19149 0.457101 0.320016 0
M  V30 27 C -5.5288 -1.52241 -1.37703 0
M  V30 28 O -6.78041 -2.06087 -1.5771 0
M  V30 29 O -4.76333 -1.25934 -2.34998 0
M  V30 30 H -5.10131 -2.25884 0.532978 0
M  V30 31 H -5.76465 -0.33694 1.81498 0
M  V30 32 H -7.06551 -0.969974 0.749668 0
M  V30 33 H -5.16663 1.37733 0.146416 0
M  V30 34 H -6.48067 0.729255 -0.972651 0
M  V30 35 H -9.10811 1.16738 0.112812 0
M  V30 36 H -3.63063 0.207632 -0.467707 0
M  V30 37 H -0.379208 -2.73435 0.871879 0
M  V30 38 H 1.882 -1.74476 0.83216 0
M  V30 39 H 2.46701 1.85234 0.82279 0
M  V30 40 H 3.21777 0.17179 1.12019 0
M  V30 41 H 2.89275 -0.321759 -1.26905 0
M  V30 42 H 2.2566 1.27563 -1.64262 0
M  V30 43 H 4.53124 1.1739 -2.44663 0
M  V30 44 H 4.36181 2.41066 -1.18412 0
M  V30 45 H 5.47305 3.07652 0.746956 0
M  V30 46 H 4.9379 2.08532 2.13289 0
M  V30 47 H 8.59933 -1.47022 2.31899 0
M  V30 48 H 9.24806 -1.95443 0.664205 0
M  V30 49 H 5.69583 -0.778339 -2.20296 0
M  V30 50 H 0.214991 2.05331 0.140561 0
M  V30 51 H -2.01903 1.1427 0.172224 0
M  V30 52 H -6.98052 -3.01917 -1.34734 0
M  V30 END ATOM
M  V30 BEGIN BOND
M  V30 1 1 1 2
M  V30 2 1 2 3
M  V30 3 1 3 4
M  V30 4 1 4 5
M  V30 5 2 4 6
M  V30 6 1 1 7
M  V30 7 1 7 8
M  V30 8 2 8 9
M  V30 9 1 8 10
M  V30 10 2 10 11
M  V30 11 1 11 12
M  V30 12 2 12 13
M  V30 13 1 13 14
M  V30 14 1 14 15
M  V30 15 1 15 16
M  V30 16 1 16 17
M  V30 17 2 17 18
M  V30 18 1 18 19
M  V30 19 1 18 20
M  V30 20 2 20 21
M  V30 21 1 21 22
M  V30 22 1 21 23
M  V30 23 2 23 24
M  V30 24 1 13 25
M  V30 25 2 25 26
M  V30 26 1 1 27
M  V30 27 1 27 28
M  V30 28 2 27 29
M  V30 29 1 26 10
M  V30 30 1 24 17
M  V30 31 1 1 30 CFG=1
M  V30 32 1 2 31
M  V30 33 1 2 32
M  V30 34 1 3 33
M  V30 35 1 3 34
M  V30 36 1 5 35
M  V30 37 1 7 36
M  V30 38 1 11 37
M  V30 39 1 12 38
M  V30 40 1 14 39
M  V30 41 1 14 40
M  V30 42 1 15 41
M  V30 43 1 15 42
M  V30 44 1 16 43
M  V30 45 1 16 44
M  V30 46 1 19 45
M  V30 47 1 19 46
M  V30 48 1 22 47
M  V30 49 1 22 48
M  V30 50 1 24 49
M  V30 51 1 25 50
M  V30 52 1 26 51
M  V30 53 1 28 52
M  V30 END BOND
M  V30 END CTAB
M  END
