
     RDKit          3D

  0  0  0  0  0  0  0  0  0  0999 V3000
M  V30 BEGIN CTAB
M  V30 COUNTS 21 21 0 0 0
M  V30 BEGIN ATOM
M  V30 1 F 4.1668 1.19329 0.177827 0
M  V30 2 C 2.91677 0.672522 0.600404 0
M  V30 3 C 2.28147 0.0483608 -0.594303 0
M  V30 4 C 0.96331 -0.576219 -0.424103 0
M  V30 5 C -0.179627 0.257058 -0.0757646 0
M  V30 6 N -0.309289 1.58269 0.0350382 0
M  V30 7 N -1.54456 1.88768 0.378478 0
M  V30 8 C -2.24067 0.718528 0.494513 0
M  V30 9 N -1.40577 -0.284982 0.216296 0
M  V30 10 N -1.72983 -1.63874 0.223499 0
M  V30 11 N -3.60708 0.582354 0.847085 0
M  V30 12 F 3.27703 -0.329437 1.52843 0
M  V30 13 F 2.23334 1.59906 1.29124 0
M  V30 14 H 2.99226 -0.782994 -0.920212 0
M  V30 15 H 2.334 0.763286 -1.45688 0
M  V30 16 H 0.647316 -1.1212 -1.37674 0
M  V30 17 H 1.09171 -1.39643 0.363888 0
M  V30 18 H -1.76724 -2.17354 1.09256 0
M  V30 19 H -1.93178 -2.07352 -0.709724 0
M  V30 20 H -4.31935 0.790316 0.138892 0
M  V30 21 H -3.86882 0.281922 1.79189 0
M  V30 END ATOM
M  V30 BEGIN BOND
M  V30 1 1 1 2
M  V30 2 1 2 3
M  V30 3 1 3 4
M  V30 4 1 4 5
M  V30 5 2 5 6
M  V30 6 1 6 7
M  V30 7 2 7 8
M  V30 8 1 8 9
M  V30 9 1 9 10
M  V30 10 1 8 11
M  V30 11 1 2 12
M  V30 12 1 2 13
M  V30 13 1 9 5
M  V30 14 1 3 14
M  V30 15 1 3 15
M  V30 16 1 4 16
M  V30 17 1 4 17
M  V30 18 1 10 18
M  V30 19 1 10 19
M  V30 20 1 11 20
M  V30 21 1 11 21
M  V30 END BOND
M  V30 END CTAB
M  END
