
     RDKit          3D

  0  0  0  0  0  0  0  0  0  0999 V3000
M  V30 BEGIN CTAB
M  V30 COUNTS 20 20 0 0 0
M  V30 BEGIN ATOM
M  V30 1 F 4.04953 0.098632 1.21007 0
M  V30 2 C 3.2836 0.2407 0.0448644 0
M  V30 3 O 2.20046 -0.625492 0.120253 0
M  V30 4 C 0.862757 -0.319684 0.0530555 0
M  V30 5 C 0.365087 0.960633 -0.107892 0
M  V30 6 C -1.00659 1.18447 -0.166322 0
M  V30 7 N -1.52891 2.49393 -0.33125 0
M  V30 8 C -1.8482 0.0985408 -0.0596095 0
M  V30 9 C -1.36813 -1.20355 0.103456 0
M  V30 10 C -0.00760456 -1.41233 0.159871 0
M  V30 11 Cl 0.619971 -3.04933 0.365447 0
M  V30 12 N -2.27472 -2.29192 0.208929 0
M  V30 13 F 4.15275 -0.118098 -0.993199 0
M  V30 14 H 3.02183 1.29897 -0.084729 0
M  V30 15 H 1.06024 1.79018 -0.188208 0
M  V30 16 H -1.46344 3.01715 -1.21326 0
M  V30 17 H -2.0028 2.95267 0.476982 0
M  V30 18 H -2.91433 0.245875 -0.101932 0
M  V30 19 H -2.77585 -2.43774 1.1034 0
M  V30 20 H -2.42566 -2.92361 -0.599929 0
M  V30 END ATOM
M  V30 BEGIN BOND
M  V30 1 1 1 2
M  V30 2 1 2 3
M  V30 3 1 3 4
M  V30 4 2 4 5
M  V30 5 1 5 6
M  V30 6 1 6 7
M  V30 7 2 6 8
M  V30 8 1 8 9
M  V30 9 2 9 10
M  V30 10 1 10 11
M  V30 11 1 9 12
M  V30 12 1 2 13
M  V30 13 1 10 4
M  V30 14 1 2 14
M  V30 15 1 5 15
M  V30 16 1 7 16
M  V30 17 1 7 17
M  V30 18 1 8 18
M  V30 19 1 12 19
M  V30 20 1 12 20
M  V30 END BOND
M  V30 END CTAB
M  END
