
     RDKit          3D

  0  0  0  0  0  0  0  0  0  0999 V3000
M  V30 BEGIN CTAB
M  V30 COUNTS 27 27 0 0 0
M  V30 BEGIN ATOM
M  V30 1 C -3.44509 -0.559306 -0.305401 0
M  V30 2 C -2.06976 -0.234106 0.273529 0
M  V30 3 C -1.07392 -0.479278 -0.82999 0 CFG=1
M  V30 4 C 0.323128 -0.200427 -0.404881 0
M  V30 5 N 1.10238 0.837601 -0.743315 0
M  V30 6 N 2.29716 0.734641 -0.157628 0
M  V30 7 C 2.29376 -0.388153 0.572811 0
M  V30 8 N 1.09038 -0.960959 0.423902 0
M  V30 9 N 3.37264 -0.865833 1.35242 0
M  V30 10 C 3.42118 1.67305 -0.281431 0
M  V30 11 N -1.21198 -1.89347 -1.20619 0
M  V30 12 C -2.1276 1.22773 0.667204 0
M  V30 13 H -3.47439 -0.10552 -1.31995 0
M  V30 14 H -3.6423 -1.63725 -0.31804 0
M  V30 15 H -4.25203 -0.0737153 0.272976 0
M  V30 16 H -1.91499 -0.891229 1.15086 0
M  V30 17 H -1.35399 0.105842 -1.70372 0
M  V30 18 H 3.52005 -0.504655 2.32069 0
M  V30 19 H 4.05979 -1.57967 1.02118 0
M  V30 20 H 3.41236 2.17095 -1.28447 0
M  V30 21 H 4.38205 1.0839 -0.267705 0
M  V30 22 H 3.40142 2.44493 0.496257 0
M  V30 23 H -1.21526 -2.48555 -0.335567 0
M  V30 24 H -0.285228 -2.13401 -1.67302 0
M  V30 25 H -2.25052 1.81607 -0.266932 0
M  V30 26 H -1.28649 1.54812 1.28717 0
M  V30 27 H -3.07274 1.3503 1.25923 0
M  V30 END ATOM
M  V30 BEGIN BOND
M  V30 1 1 1 2
M  V30 2 1 2 3
M  V30 3 1 3 4
M  V30 4 2 4 5
M  V30 5 1 5 6
M  V30 6 1 6 7
M  V30 7 2 7 8
M  V30 8 1 7 9
M  V30 9 1 6 10
M  V30 10 1 3 11
M  V30 11 1 2 12
M  V30 12 1 8 4
M  V30 13 1 1 13
M  V30 14 1 1 14
M  V30 15 1 1 15
M  V30 16 1 2 16
M  V30 17 1 3 17 CFG=3
M  V30 18 1 9 18
M  V30 19 1 9 19
M  V30 20 1 10 20
M  V30 21 1 10 21
M  V30 22 1 10 22
M  V30 23 1 11 23
M  V30 24 1 11 24
M  V30 25 1 12 25
M  V30 26 1 12 26
M  V30 27 1 12 27
M  V30 END BOND
M  V30 END CTAB
M  END
