
     RDKit          3D

  0  0  0  0  0  0  0  0  0  0999 V3000
M  V30 BEGIN CTAB
M  V30 COUNTS 41 42 0 0 0
M  V30 BEGIN ATOM
M  V30 1 N -2.66152 2.65959 -0.907184 0
M  V30 2 C -1.52385 2.0073 -0.287594 0
M  V30 3 C -1.83064 0.57931 0.100195 0
M  V30 4 C -2.98168 0.651087 1.07153 0
M  V30 5 C -3.93325 -0.487671 1.00911 0
M  V30 6 C -4.47329 -0.505133 -0.42872 0
M  V30 7 C -3.33329 -0.967621 -1.26893 0
M  V30 8 C -2.03189 -0.314684 -1.0706 0
M  V30 9 C -0.667322 0.0571552 0.888961 0
M  V30 10 C 0.629051 0.0201471 0.172864 0
M  V30 11 O 0.771937 0.297318 -1.024 0
M  V30 12 N 1.74214 -0.361205 0.948035 0
M  V30 13 C 3.08896 -0.481762 0.556126 0
M  V30 14 C 3.99756 -1.16844 1.38404 0
M  V30 15 C 5.30924 -1.27927 1.02372 0
M  V30 16 C 5.82776 -0.744534 -0.14083 0
M  V30 17 N 4.95351 -0.0947069 -0.91765 0
M  V30 18 C 3.63908 0.0355465 -0.589991 0
M  V30 19 N 7.19789 -0.877778 -0.486843 0
M  V30 20 H -2.30484 3.59584 -1.24367 0
M  V30 21 H -2.97246 2.15923 -1.77504 0
M  V30 22 H -1.34169 2.58456 0.667399 0
M  V30 23 H -0.658478 2.1699 -0.907534 0
M  V30 24 H -3.57381 1.5913 0.923577 0
M  V30 25 H -2.62554 0.723945 2.14245 0
M  V30 26 H -4.78876 -0.281392 1.64962 0
M  V30 27 H -3.48459 -1.47419 1.17857 0
M  V30 28 H -4.8874 0.472465 -0.710609 0
M  V30 29 H -5.28859 -1.26491 -0.511602 0
M  V30 30 H -3.67781 -0.893414 -2.34425 0
M  V30 31 H -3.26591 -2.0877 -1.11296 0
M  V30 32 H -1.81303 0.311942 -1.98854 0
M  V30 33 H -1.23795 -1.11985 -1.13507 0
M  V30 34 H -0.932995 -0.953516 1.26049 0
M  V30 35 H -0.494701 0.693842 1.80332 0
M  V30 36 H 1.56871 -0.593768 1.9854 0
M  V30 37 H 3.6296 -1.59993 2.30082 0
M  V30 38 H 6.03321 -1.80926 1.6531 0
M  V30 39 H 3.00469 0.598025 -1.29016 0
M  V30 40 H 7.90355 -1.17102 0.211709 0
M  V30 41 H 7.48841 -0.676736 -1.45514 0
M  V30 END ATOM
M  V30 BEGIN BOND
M  V30 1 1 1 2
M  V30 2 1 2 3
M  V30 3 1 3 4
M  V30 4 1 4 5
M  V30 5 1 5 6
M  V30 6 1 6 7
M  V30 7 1 7 8
M  V30 8 1 3 9
M  V30 9 1 9 10
M  V30 10 2 10 11
M  V30 11 1 10 12
M  V30 12 1 12 13
M  V30 13 2 13 14
M  V30 14 1 14 15
M  V30 15 2 15 16
M  V30 16 1 16 17
M  V30 17 2 17 18
M  V30 18 1 16 19
M  V30 19 1 8 3
M  V30 20 1 18 13
M  V30 21 1 1 20
M  V30 22 1 1 21
M  V30 23 1 2 22
M  V30 24 1 2 23
M  V30 25 1 4 24
M  V30 26 1 4 25
M  V30 27 1 5 26
M  V30 28 1 5 27
M  V30 29 1 6 28
M  V30 30 1 6 29
M  V30 31 1 7 30
M  V30 32 1 7 31
M  V30 33 1 8 32
M  V30 34 1 8 33
M  V30 35 1 9 34
M  V30 36 1 9 35
M  V30 37 1 12 36
M  V30 38 1 14 37
M  V30 39 1 15 38
M  V30 40 1 18 39
M  V30 41 1 19 40
M  V30 42 1 19 41
M  V30 END BOND
M  V30 END CTAB
M  END
