
     RDKit          3D

  0  0  0  0  0  0  0  0  0  0999 V3000
M  V30 BEGIN CTAB
M  V30 COUNTS 62 65 0 0 0
M  V30 BEGIN ATOM
M  V30 1 C 9.53902 0.454466 0.595449 0
M  V30 2 S 8.60837 -0.85256 -0.278185 0
M  V30 3 O 8.66987 -2.11513 0.444897 0
M  V30 4 O 9.15806 -0.957732 -1.64504 0
M  V30 5 C 6.96569 -0.191151 -0.268073 0
M  V30 6 C 5.98621 -0.532996 0.595622 0
M  V30 7 C 4.83771 0.213516 0.596683 0
M  V30 8 C 4.62838 1.3206 -0.241403 0
M  V30 9 C 3.42546 2.13319 -0.286079 0
M  V30 10 N 2.47852 1.90242 0.79485 0
M  V30 11 C 1.35643 1.04423 0.526225 0
M  V30 12 C 0.943438 0.0856692 1.41038 0
M  V30 13 C -0.121518 -0.775511 1.09239 0
M  V30 14 C -0.741808 -0.60099 -0.161598 0
M  V30 15 C -0.334955 0.369955 -1.00933 0
M  V30 16 C 0.724877 1.2159 -0.704835 0
M  V30 17 C -1.77989 -1.57701 -0.489132 0
M  V30 18 C -1.37134 -2.91842 -0.742171 0
M  V30 19 N 0.0189849 -3.18009 -0.731397 0
M  V30 20 N -2.2738 -3.76974 -1.06154 0
M  V30 21 C -3.59109 -3.47261 -1.1893 0
M  V30 22 N -4.48477 -4.55235 -1.46165 0
M  V30 23 N -3.95355 -2.2046 -0.962478 0
M  V30 24 C -3.09641 -1.2317 -0.615821 0
M  V30 25 C -3.57497 0.121395 -0.184524 0
M  V30 26 O -4.33461 0.758199 -1.15992 0
M  V30 27 C -4.86222 1.96751 -0.657001 0
M  V30 28 C -6.08016 1.60841 0.0994123 0
M  V30 29 C -6.24781 1.38565 1.43532 0
M  V30 30 C -7.43384 1.0272 2.02168 0
M  V30 31 C -8.54062 0.890654 1.16944 0
M  V30 32 C -8.42828 1.10868 -0.175226 0
M  V30 33 C -7.21522 1.46073 -0.721814 0
M  V30 34 C 5.6402 1.66344 -1.12418 0
M  V30 35 C 6.78772 0.885841 -1.11945 0
M  V30 36 H 9.49703 1.3006 -0.126193 0
M  V30 37 H 10.5244 0.118429 0.8347 0
M  V30 38 H 8.98157 0.76549 1.47075 0
M  V30 39 H 6.09395 -1.34777 1.24112 0
M  V30 40 H 4.04592 -0.0182013 1.30122 0
M  V30 41 H 3.5345 3.1769 -0.558773 0
M  V30 42 H 2.84886 1.68413 -1.21989 0
M  V30 43 H 2.66665 2.3584 1.70591 0
M  V30 44 H 1.44498 -0.0546691 2.38491 0
M  V30 45 H -0.427105 -1.52491 1.73886 0
M  V30 46 H -0.81975 0.541294 -1.98971 0
M  V30 47 H 1.00863 1.976 -1.38015 0
M  V30 48 H 0.64327 -2.32144 -0.93965 0
M  V30 49 H 0.450369 -4.08898 -0.576058 0
M  V30 50 H -4.62776 -5.24962 -0.656576 0
M  V30 51 H -4.96353 -4.70938 -2.32615 0
M  V30 52 H -4.44825 -0.203174 0.575476 0
M  V30 53 H -2.88228 0.70126 0.412163 0
M  V30 54 H -4.07814 2.37777 0.00277916 0
M  V30 55 H -5.06572 2.64182 -1.48328 0
M  V30 56 H -5.36402 1.45194 2.06457 0
M  V30 57 H -7.59514 0.80218 3.05731 0
M  V30 58 H -9.54703 0.598971 1.54402 0
M  V30 59 H -9.28368 0.990398 -0.851181 0
M  V30 60 H -7.10919 1.6915 -1.78576 0
M  V30 61 H 5.5627 2.48129 -1.82997 0
M  V30 62 H 7.60669 1.17469 -1.80798 0
M  V30 END ATOM
M  V30 BEGIN BOND
M  V30 1 1 1 2
M  V30 2 2 2 3
M  V30 3 2 2 4
M  V30 4 1 2 5
M  V30 5 2 5 6
M  V30 6 1 6 7
M  V30 7 2 7 8
M  V30 8 1 8 9
M  V30 9 1 9 10
M  V30 10 1 10 11
M  V30 11 2 11 12
M  V30 12 1 12 13
M  V30 13 2 13 14
M  V30 14 1 14 15
M  V30 15 2 15 16
M  V30 16 1 14 17
M  V30 17 2 17 18
M  V30 18 1 18 19
M  V30 19 1 18 20
M  V30 20 2 20 21
M  V30 21 1 21 22
M  V30 22 1 21 23
M  V30 23 2 23 24
M  V30 24 1 24 25
M  V30 25 1 25 26
M  V30 26 1 26 27
M  V30 27 1 27 28
M  V30 28 2 28 29
M  V30 29 1 29 30
M  V30 30 2 30 31
M  V30 31 1 31 32
M  V30 32 2 32 33
M  V30 33 1 8 34
M  V30 34 2 34 35
M  V30 35 1 35 5
M  V30 36 1 16 11
M  V30 37 1 24 17
M  V30 38 1 33 28
M  V30 39 1 1 36
M  V30 40 1 1 37
M  V30 41 1 1 38
M  V30 42 1 6 39
M  V30 43 1 7 40
M  V30 44 1 9 41
M  V30 45 1 9 42
M  V30 46 1 10 43
M  V30 47 1 12 44
M  V30 48 1 13 45
M  V30 49 1 15 46
M  V30 50 1 16 47
M  V30 51 1 19 48
M  V30 52 1 19 49
M  V30 53 1 22 50
M  V30 54 1 22 51
M  V30 55 1 25 52
M  V30 56 1 25 53
M  V30 57 1 27 54
M  V30 58 1 27 55
M  V30 59 1 29 56
M  V30 60 1 30 57
M  V30 61 1 31 58
M  V30 62 1 32 59
M  V30 63 1 33 60
M  V30 64 1 34 61
M  V30 65 1 35 62
M  V30 END BOND
M  V30 END CTAB
M  END
