
     RDKit          3D

  0  0  0  0  0  0  0  0  0  0999 V3000
M  V30 BEGIN CTAB
M  V30 COUNTS 47 48 0 0 0
M  V30 BEGIN ATOM
M  V30 1 N -0.582267 -0.707634 -1.55365 0
M  V30 2 C -0.833061 0.6333 -1.20812 0
M  V30 3 C 0.274196 1.3907 -0.577748 0
M  V30 4 O -0.123348 2.47479 0.0154113 0
M  V30 5 N 1.63837 1.08327 -0.553448 0
M  V30 6 C 2.32084 -0.0168708 -1.14627 0
M  V30 7 C 3.78281 0.341279 -1.46533 0
M  V30 8 N 4.4308 0.643615 -0.230603 0
M  V30 9 C 3.57845 1.11452 0.812814 0
M  V30 10 C 2.52214 2.01971 0.189867 0
M  V30 11 S 5.60545 -0.482446 0.255455 0
M  V30 12 O 6.22435 0.0162551 1.54341 0
M  V30 13 O 6.70757 -0.527206 -0.760183 0
M  V30 14 N 5.01403 -2.05267 0.524007 0
M  V30 15 C -2.15266 0.910253 -0.576216 0
M  V30 16 C -2.49745 0.261171 0.69661 0
M  V30 17 C -3.89202 0.734385 1.14502 0
M  V30 18 C -4.96929 0.15963 0.27337 0
M  V30 19 C -4.96891 -1.32905 0.382798 0
M  V30 20 C -3.61287 -1.84029 -0.0681373 0
M  V30 21 C -2.51003 -1.22066 0.768445 0
M  V30 22 H 0.0381628 -1.27668 -0.977946 0
M  V30 23 H -0.618136 -0.952568 -2.55429 0
M  V30 24 H -0.920574 1.18118 -2.24185 0
M  V30 25 H 1.89882 -0.337945 -2.10489 0
M  V30 26 H 2.29892 -0.888838 -0.446296 0
M  V30 27 H 3.7316 1.27518 -2.07207 0
M  V30 28 H 4.23948 -0.499729 -2.00644 0
M  V30 29 H 4.16554 1.64443 1.57688 0
M  V30 30 H 3.03013 0.273703 1.3156 0
M  V30 31 H 1.95846 2.59175 0.929558 0
M  V30 32 H 3.0365 2.6394 -0.57337 0
M  V30 33 H 4.25468 -2.35763 -0.089549 0
M  V30 34 H 4.97423 -2.35782 1.50016 0
M  V30 35 H -2.95076 0.801434 -1.35932 0
M  V30 36 H -2.15907 2.03447 -0.380694 0
M  V30 37 H -1.83013 0.613198 1.54012 0
M  V30 38 H -3.97648 1.82399 1.13098 0
M  V30 39 H -4.03959 0.400769 2.19083 0
M  V30 40 H -5.95011 0.561224 0.635806 0
M  V30 41 H -4.81193 0.475154 -0.76272 0
M  V30 42 H -5.71444 -1.76962 -0.317045 0
M  V30 43 H -5.15172 -1.65142 1.42891 0
M  V30 44 H -3.60047 -2.92984 0.13655 0
M  V30 45 H -3.48328 -1.69855 -1.14492 0
M  V30 46 H -2.79682 -1.47124 1.84455 0
M  V30 47 H -1.58009 -1.73008 0.565587 0
M  V30 END ATOM
M  V30 BEGIN BOND
M  V30 1 1 1 2
M  V30 2 1 2 3
M  V30 3 2 3 4
M  V30 4 1 3 5
M  V30 5 1 5 6
M  V30 6 1 6 7
M  V30 7 1 7 8
M  V30 8 1 8 9
M  V30 9 1 9 10
M  V30 10 1 8 11
M  V30 11 2 11 12
M  V30 12 2 11 13
M  V30 13 1 11 14
M  V30 14 1 2 15
M  V30 15 1 15 16
M  V30 16 1 16 17
M  V30 17 1 17 18
M  V30 18 1 18 19
M  V30 19 1 19 20
M  V30 20 1 20 21
M  V30 21 1 10 5
M  V30 22 1 21 16
M  V30 23 1 1 22
M  V30 24 1 1 23
M  V30 25 1 2 24
M  V30 26 1 6 25
M  V30 27 1 6 26
M  V30 28 1 7 27
M  V30 29 1 7 28
M  V30 30 1 9 29
M  V30 31 1 9 30
M  V30 32 1 10 31
M  V30 33 1 10 32
M  V30 34 1 14 33
M  V30 35 1 14 34
M  V30 36 1 15 35
M  V30 37 1 15 36
M  V30 38 1 16 37
M  V30 39 1 17 38
M  V30 40 1 17 39
M  V30 41 1 18 40
M  V30 42 1 18 41
M  V30 43 1 19 42
M  V30 44 1 19 43
M  V30 45 1 20 44
M  V30 46 1 20 45
M  V30 47 1 21 46
M  V30 48 1 21 47
M  V30 END BOND
M  V30 END CTAB
M  END
