
     RDKit          3D

  0  0  0  0  0  0  0  0  0  0999 V3000
M  V30 BEGIN CTAB
M  V30 COUNTS 25 26 0 0 0
M  V30 BEGIN ATOM
M  V30 1 C -3.92952 0.668511 0.213221 0
M  V30 2 C -2.96801 -0.462438 0.17274 0
M  V30 3 O -3.37688 -1.60825 0.494312 0
M  V30 4 N -1.60915 -0.284036 -0.216892 0
M  V30 5 C -0.978884 0.953234 -0.61362 0
M  V30 6 C 0.478589 0.759019 -0.305647 0
M  V30 7 N 1.52439 1.57573 -0.190065 0
M  V30 8 C 2.77215 1.15637 0.101497 0
M  V30 9 N 3.8771 2.03101 0.222324 0
M  V30 10 N 2.96121 -0.163617 0.284193 0
M  V30 11 C 1.93687 -1.05221 0.180752 0
M  V30 12 N 2.24782 -2.41773 0.39243 0
M  V30 13 C 0.667491 -0.598802 -0.118814 0
M  V30 14 C -0.598071 -1.31997 -0.288152 0
M  V30 15 H -4.77026 0.47233 0.884756 0
M  V30 16 H -3.37678 1.53756 0.633525 0
M  V30 17 H -4.30405 0.864619 -0.813181 0
M  V30 18 H -1.09536 1.13294 -1.72099 0
M  V30 19 H -1.40562 1.79644 -0.036429 0
M  V30 20 H 3.83223 2.97478 0.67272 0
M  V30 21 H 4.82651 1.75784 -0.150264 0
M  V30 22 H 2.08569 -2.89625 1.2976 0
M  V30 23 H 2.65462 -2.9577 -0.393941 0
M  V30 24 H -0.798547 -2.04088 0.557976 0
M  V30 25 H -0.653544 -1.87849 -1.26005 0
M  V30 END ATOM
M  V30 BEGIN BOND
M  V30 1 1 1 2
M  V30 2 2 2 3
M  V30 3 1 2 4
M  V30 4 1 4 5
M  V30 5 1 5 6
M  V30 6 2 6 7
M  V30 7 1 7 8
M  V30 8 1 8 9
M  V30 9 2 8 10
M  V30 10 1 10 11
M  V30 11 1 11 12
M  V30 12 2 11 13
M  V30 13 1 13 14
M  V30 14 1 14 4
M  V30 15 1 13 6
M  V30 16 1 1 15
M  V30 17 1 1 16
M  V30 18 1 1 17
M  V30 19 1 5 18
M  V30 20 1 5 19
M  V30 21 1 9 20
M  V30 22 1 9 21
M  V30 23 1 12 22
M  V30 24 1 12 23
M  V30 25 1 14 24
M  V30 26 1 14 25
M  V30 END BOND
M  V30 END CTAB
M  END
