
     RDKit          3D

  0  0  0  0  0  0  0  0  0  0999 V3000
M  V30 BEGIN CTAB
M  V30 COUNTS 22 22 0 0 0
M  V30 BEGIN ATOM
M  V30 1 N -2.7303 -2.24641 -0.880334 0
M  V30 2 C -1.97364 -1.11428 -0.468153 0
M  V30 3 N -0.837176 -1.22243 0.234105 0
M  V30 4 C -0.103211 -0.138154 0.634556 0
M  V30 5 C 1.11236 -0.314899 1.44892 0
M  V30 6 C 2.38927 -0.561622 0.756803 0
M  V30 7 C 2.90448 0.445097 -0.194271 0
M  V30 8 Cl 4.50453 -0.145652 -0.821826 0
M  V30 9 Cl 1.86397 0.580503 -1.65722 0
M  V30 10 Cl 3.1562 2.05135 0.443797 0
M  V30 11 N -0.60594 1.0605 0.270396 0
M  V30 12 C -1.73882 1.23078 -0.432251 0
M  V30 13 N -2.23344 2.51687 -0.794863 0
M  V30 14 N -2.40724 0.118649 -0.790912 0
M  V30 15 H -3.41506 -2.6576 -0.190341 0
M  V30 16 H -2.64608 -2.68924 -1.82031 0
M  V30 17 H 1.22394 0.584516 2.14327 0
M  V30 18 H 0.898292 -1.13783 2.20694 0
M  V30 19 H 2.3292 -1.56349 0.212755 0
M  V30 20 H 3.15704 -0.813601 1.55931 0
M  V30 21 H -2.84831 3.04793 -0.141549 0
M  V30 22 H -2.00005 2.96901 -1.71882 0
M  V30 END ATOM
M  V30 BEGIN BOND
M  V30 1 1 1 2
M  V30 2 2 2 3
M  V30 3 1 3 4
M  V30 4 1 4 5
M  V30 5 1 5 6
M  V30 6 1 6 7
M  V30 7 1 7 8
M  V30 8 1 7 9
M  V30 9 1 7 10
M  V30 10 2 4 11
M  V30 11 1 11 12
M  V30 12 1 12 13
M  V30 13 2 12 14
M  V30 14 1 14 2
M  V30 15 1 1 15
M  V30 16 1 1 16
M  V30 17 1 5 17
M  V30 18 1 5 18
M  V30 19 1 6 19
M  V30 20 1 6 20
M  V30 21 1 13 21
M  V30 22 1 13 22
M  V30 END BOND
M  V30 END CTAB
M  END
