
     RDKit          3D

  0  0  0  0  0  0  0  0  0  0999 V3000
M  V30 BEGIN CTAB
M  V30 COUNTS 15 15 0 0 0
M  V30 BEGIN ATOM
M  V30 1 N 3.50539 -0.407658 -0.708321 0
M  V30 2 C 2.16397 -0.122671 -0.32912 0
M  V30 3 N 1.72583 1.04916 0.0225008 0
M  V30 4 C 0.492979 1.23279 0.354475 0
M  V30 5 C -0.340099 0.138972 0.321659 0
M  V30 6 S 0.750069 -1.0986 -0.198901 0
M  V30 7 S -2.05428 0.0539838 0.711454 0
M  V30 8 O -2.29363 -0.886248 1.86175 0
M  V30 9 O -2.49383 1.42797 1.05868 0
M  V30 10 N -2.96957 -0.481135 -0.640731 0
M  V30 11 H 3.63558 -0.755289 -1.69273 0
M  V30 12 H 4.32697 -0.291731 -0.0803581 0
M  V30 13 H 0.0954065 2.2201 0.657503 0
M  V30 14 H -3.93221 -0.70144 -0.288717 0
M  V30 15 H -2.61257 -1.3782 -1.04914 0
M  V30 END ATOM
M  V30 BEGIN BOND
M  V30 1 1 1 2
M  V30 2 2 2 3
M  V30 3 1 3 4
M  V30 4 2 4 5
M  V30 5 1 5 6
M  V30 6 1 5 7
M  V30 7 2 7 8
M  V30 8 2 7 9
M  V30 9 1 7 10
M  V30 10 1 6 2
M  V30 11 1 1 11
M  V30 12 1 1 12
M  V30 13 1 4 13
M  V30 14 1 10 14
M  V30 15 1 10 15
M  V30 END BOND
M  V30 END CTAB
M  END
