
     RDKit          3D

  0  0  0  0  0  0  0  0  0  0999 V3000
M  V30 BEGIN CTAB
M  V30 COUNTS 22 23 0 0 0
M  V30 BEGIN ATOM
M  V30 1 N 4.27878 1.15322 -0.702669 0
M  V30 2 C 3.07473 0.466415 -0.361047 0
M  V30 3 N 2.98354 -0.729719 0.2486 0
M  V30 4 N 1.67893 -1.03875 0.396731 0
M  V30 5 C 0.938594 -0.0603496 -0.10791 0
M  V30 6 N 1.81241 0.854828 -0.568471 0
M  V30 7 C -0.515836 0.0164729 -0.157964 0
M  V30 8 C -1.24425 1.08268 -0.705661 0
M  V30 9 C -2.57299 0.803677 -0.573737 0
M  V30 10 N -2.64301 -0.385477 0.0304905 0
M  V30 11 N -1.42443 -0.85294 0.277344 0
M  V30 12 C -1.19372 -2.11994 0.923332 0
M  V30 13 N -3.65172 1.62292 -0.998457 0
M  V30 14 H 4.73788 0.944629 -1.59981 0
M  V30 15 H 4.72812 1.86611 -0.0859234 0
M  V30 16 H 1.42929 -1.93749 0.853633 0
M  V30 17 H -0.756158 1.9612 -1.14879 0
M  V30 18 H -0.672716 -2.83935 0.229995 0
M  V30 19 H -2.17898 -2.60049 1.1037 0
M  V30 20 H -0.692538 -2.03233 1.90926 0
M  V30 21 H -3.52611 2.37953 -1.70477 0
M  V30 22 H -4.58979 1.44514 -0.578132 0
M  V30 END ATOM
M  V30 BEGIN BOND
M  V30 1 1 1 2
M  V30 2 2 2 3
M  V30 3 1 3 4
M  V30 4 1 4 5
M  V30 5 2 5 6
M  V30 6 1 5 7
M  V30 7 2 7 8
M  V30 8 1 8 9
M  V30 9 2 9 10
M  V30 10 1 10 11
M  V30 11 1 11 12
M  V30 12 1 9 13
M  V30 13 1 6 2
M  V30 14 1 11 7
M  V30 15 1 1 14
M  V30 16 1 1 15
M  V30 17 1 4 16
M  V30 18 1 8 17
M  V30 19 1 12 18
M  V30 20 1 12 19
M  V30 21 1 12 20
M  V30 22 1 13 21
M  V30 23 1 13 22
M  V30 END BOND
M  V30 END CTAB
M  END
