
     RDKit          3D

  0  0  0  0  0  0  0  0  0  0999 V3000
M  V30 BEGIN CTAB
M  V30 COUNTS 15 15 0 0 0
M  V30 BEGIN ATOM
M  V30 1 Cl 1.70479 -2.71156 -0.0745865 0
M  V30 2 C 1.22309 -1.02496 0.0618544 0
M  V30 3 C 2.19728 -0.0906883 0.337381 0
M  V30 4 N 1.83547 1.19973 0.44284 0
M  V30 5 C 0.565982 1.62586 0.292367 0
M  V30 6 C -0.411553 0.668661 0.0133941 0
M  V30 7 C -0.0858419 -0.665519 -0.103432 0
M  V30 8 N -1.10258 -1.59248 -0.384857 0
M  V30 9 N -1.75564 1.10539 -0.147741 0
M  V30 10 Cl 0.11309 3.31224 0.433407 0
M  V30 11 H 3.2484 -0.373579 0.470864 0
M  V30 12 H -1.86373 -1.47018 -1.06706 0
M  V30 13 H -1.1109 -2.5161 0.14201 0
M  V30 14 H -2.00386 2.08493 -0.410211 0
M  V30 15 H -2.55399 0.448247 -0.0062259 0
M  V30 END ATOM
M  V30 BEGIN BOND
M  V30 1 1 1 2
M  V30 2 2 2 3
M  V30 3 1 3 4
M  V30 4 2 4 5
M  V30 5 1 5 6
M  V30 6 2 6 7
M  V30 7 1 7 8
M  V30 8 1 6 9
M  V30 9 1 5 10
M  V30 10 1 7 2
M  V30 11 1 3 11
M  V30 12 1 8 12
M  V30 13 1 8 13
M  V30 14 1 9 14
M  V30 15 1 9 15
M  V30 END BOND
M  V30 END CTAB
M  END
