
     RDKit          3D

  0  0  0  0  0  0  0  0  0  0999 V3000
M  V30 BEGIN CTAB
M  V30 COUNTS 28 28 0 0 0
M  V30 BEGIN ATOM
M  V30 1 O -4.33201 -0.253383 -0.723003 0
M  V30 2 N -2.99156 -0.513598 -0.821346 0
M  V30 3 C -2.09774 0.159711 -0.179769 0
M  V30 4 C -0.665479 -0.167876 -0.326227 0
M  V30 5 N -0.517246 -1.28234 -1.24372 0
M  V30 6 C 0.105846 1.00448 -0.876511 0
M  V30 7 C 1.38047 1.16388 -0.0508782 0
M  V30 8 N 2.04479 -0.10115 -0.0896053 0
M  V30 9 C 1.34754 -1.06402 0.705284 0
M  V30 10 C -0.0800602 -0.638896 1.01128 0
M  V30 11 C 3.44994 -0.0616067 0.102839 0
M  V30 12 N -2.55419 1.21127 0.65785 0
M  V30 13 H -4.94008 -0.973443 -0.35129 0
M  V30 14 H -0.426246 -0.941627 -2.21893 0
M  V30 15 H -1.24581 -2.00091 -1.11574 0
M  V30 16 H -0.450689 1.95285 -0.850511 0
M  V30 17 H 0.421969 0.814678 -1.90364 0
M  V30 18 H 1.12425 1.4885 0.986744 0
M  V30 19 H 2.01265 1.98461 -0.463927 0
M  V30 20 H 1.23567 -1.99621 0.0770788 0
M  V30 21 H 1.89614 -1.37078 1.6134 0
M  V30 22 H -0.153367 0.115402 1.78922 0
M  V30 23 H -0.6776 -1.55885 1.26737 0
M  V30 24 H 3.83288 0.939586 0.425138 0
M  V30 25 H 3.93637 -0.254976 -0.896295 0
M  V30 26 H 3.8156 -0.877855 0.759206 0
M  V30 27 H -2.04644 2.11743 0.744514 0
M  V30 28 H -3.42559 1.10513 1.22 0
M  V30 END ATOM
M  V30 BEGIN BOND
M  V30 1 1 1 2
M  V30 2 2 2 3 CFG=2
M  V30 3 1 3 4
M  V30 4 1 4 5
M  V30 5 1 4 6
M  V30 6 1 6 7
M  V30 7 1 7 8
M  V30 8 1 8 9
M  V30 9 1 9 10
M  V30 10 1 8 11
M  V30 11 1 3 12
M  V30 12 1 10 4
M  V30 13 1 1 13
M  V30 14 1 5 14
M  V30 15 1 5 15
M  V30 16 1 6 16
M  V30 17 1 6 17
M  V30 18 1 7 18
M  V30 19 1 7 19
M  V30 20 1 9 20
M  V30 21 1 9 21
M  V30 22 1 10 22
M  V30 23 1 10 23
M  V30 24 1 11 24
M  V30 25 1 11 25
M  V30 26 1 11 26
M  V30 27 1 12 27
M  V30 28 1 12 28
M  V30 END BOND
M  V30 END CTAB
M  END
