
     RDKit          3D

  0  0  0  0  0  0  0  0  0  0999 V3000
M  V30 BEGIN CTAB
M  V30 COUNTS 32 34 0 0 0
M  V30 BEGIN ATOM
M  V30 1 N 3.08901 0.279685 2.76266 0
M  V30 2 C 2.8026 0.142188 1.37887 0
M  V30 3 N 3.83985 -0.080548 0.553635 0
M  V30 4 C 3.65416 -0.222209 -0.768791 0
M  V30 5 N 4.73333 -0.459587 -1.67286 0
M  V30 6 C 2.35725 -0.1277 -1.22697 0
M  V30 7 N 1.84123 -0.220762 -2.46749 0
M  V30 8 C 0.496066 -0.0557622 -2.40031 0
M  V30 9 N 0.148624 0.142514 -1.12235 0
M  V30 10 C -1.19543 0.360972 -0.621123 0
M  V30 11 C -1.34469 -0.245615 0.743875 0
M  V30 12 C -2.78782 -0.672916 0.76762 0
M  V30 13 C -3.62638 0.438132 1.32057 0
M  V30 14 O -3.56587 1.61591 0.591619 0
M  V30 15 C -3.08953 -0.912051 -0.668734 0
M  V30 16 C -2.18711 -0.326068 -1.43717 0
M  V30 17 C 1.26945 0.101609 -0.396174 0
M  V30 18 N 1.54399 0.232284 0.921102 0
M  V30 19 H 2.99592 -0.508451 3.43383 0
M  V30 20 H 3.40502 1.19745 3.13443 0
M  V30 21 H 4.97051 0.157777 -2.46938 0
M  V30 22 H 5.31269 -1.30452 -1.51758 0
M  V30 23 H -0.196897 -0.0774936 -3.23011 0
M  V30 24 H -1.42086 1.45998 -0.55507 0
M  V30 25 H -1.17185 0.53759 1.51865 0
M  V30 26 H -0.670644 -1.11548 0.895857 0
M  V30 27 H -2.92662 -1.60581 1.36534 0
M  V30 28 H -4.69472 0.142678 1.36519 0
M  V30 29 H -3.33138 0.695531 2.3607 0
M  V30 30 H -4.13678 2.26906 1.05254 0
M  V30 31 H -3.93281 -1.48849 -1.081 0
M  V30 32 H -2.18032 -0.349906 -2.5314 0
M  V30 END ATOM
M  V30 BEGIN BOND
M  V30 1 1 1 2
M  V30 2 2 2 3
M  V30 3 1 3 4
M  V30 4 1 4 5
M  V30 5 2 4 6
M  V30 6 1 6 7
M  V30 7 2 7 8
M  V30 8 1 8 9
M  V30 9 1 9 10
M  V30 10 1 10 11
M  V30 11 1 11 12
M  V30 12 1 12 13
M  V30 13 1 13 14
M  V30 14 1 12 15
M  V30 15 2 15 16
M  V30 16 1 9 17
M  V30 17 2 17 18
M  V30 18 1 18 2
M  V30 19 1 17 6
M  V30 20 1 16 10
M  V30 21 1 1 19
M  V30 22 1 1 20
M  V30 23 1 5 21
M  V30 24 1 5 22
M  V30 25 1 8 23
M  V30 26 1 10 24
M  V30 27 1 11 25
M  V30 28 1 11 26
M  V30 29 1 12 27
M  V30 30 1 13 28
M  V30 31 1 13 29
M  V30 32 1 14 30
M  V30 33 1 15 31
M  V30 34 1 16 32
M  V30 END BOND
M  V30 END CTAB
M  END
