
     RDKit          3D

  0  0  0  0  0  0  0  0  0  0999 V3000
M  V30 BEGIN CTAB
M  V30 COUNTS 27 27 0 0 0
M  V30 BEGIN ATOM
M  V30 1 C -3.61162 -1.33082 -1.09661 0
M  V30 2 C -2.177 -1.17504 -0.6653 0
M  V30 3 N -1.87411 0.15449 -0.220137 0
M  V30 4 C -0.569373 0.511991 0.231091 0
M  V30 5 C 0.461384 -0.429421 0.253265 0
M  V30 6 C 1.73879 -0.137249 0.679241 0
M  V30 7 C 1.97238 1.15883 1.09657 0
M  V30 8 C 0.968324 2.1192 1.08681 0
M  V30 9 C -0.297515 1.79625 0.655563 0
M  V30 10 N -1.28354 2.80033 0.662624 0
M  V30 11 S 3.00656 -1.35324 0.690645 0
M  V30 12 O 3.99234 -1.08754 1.80441 0
M  V30 13 O 2.4396 -2.7108 0.912064 0
M  V30 14 N 3.85762 -1.36533 -0.814056 0
M  V30 15 H -3.7451 -2.00047 -1.96039 0
M  V30 16 H -4.0755 -0.32602 -1.25536 0
M  V30 17 H -4.20811 -1.78085 -0.252527 0
M  V30 18 H -1.99475 -1.87941 0.187241 0
M  V30 19 H -1.50144 -1.50403 -1.47951 0
M  V30 20 H -2.62567 0.871858 -0.227928 0
M  V30 21 H 0.25102 -1.44299 -0.0806068 0
M  V30 22 H 2.94435 1.42839 1.4336 0
M  V30 23 H 1.16313 3.13013 1.41575 0
M  V30 24 H -1.30665 3.52996 -0.0623512 0
M  V30 25 H -1.99326 2.80126 1.40895 0
M  V30 26 H 4.8885 -1.28172 -0.646131 0
M  V30 27 H 3.57964 -0.497767 -1.32409 0
M  V30 END ATOM
M  V30 BEGIN BOND
M  V30 1 1 1 2
M  V30 2 1 2 3
M  V30 3 1 3 4
M  V30 4 2 4 5
M  V30 5 1 5 6
M  V30 6 2 6 7
M  V30 7 1 7 8
M  V30 8 2 8 9
M  V30 9 1 9 10
M  V30 10 1 6 11
M  V30 11 2 11 12
M  V30 12 2 11 13
M  V30 13 1 11 14
M  V30 14 1 9 4
M  V30 15 1 1 15
M  V30 16 1 1 16
M  V30 17 1 1 17
M  V30 18 1 2 18
M  V30 19 1 2 19
M  V30 20 1 3 20
M  V30 21 1 5 21
M  V30 22 1 7 22
M  V30 23 1 8 23
M  V30 24 1 10 24
M  V30 25 1 10 25
M  V30 26 1 14 26
M  V30 27 1 14 27
M  V30 END BOND
M  V30 END CTAB
M  END
