
     RDKit          3D

  0  0  0  0  0  0  0  0  0  0999 V3000
M  V30 BEGIN CTAB
M  V30 COUNTS 43 45 0 0 0
M  V30 BEGIN ATOM
M  V30 1 C 6.8951 2.51332 0.134034 0
M  V30 2 O 6.64631 1.186 -0.200029 0
M  V30 3 C 5.40631 0.574045 -0.120166 0
M  V30 4 C 5.265 -0.750127 -0.475658 0
M  V30 5 C 4.03984 -1.37391 -0.402413 0
M  V30 6 C 2.8798 -0.715897 0.0298376 0
M  V30 7 C 3.03364 0.605468 0.382089 0
M  V30 8 C 4.27939 1.23956 0.307475 0
M  V30 9 C 1.59549 -1.45375 0.0884003 0
M  V30 10 N 0.439842 -0.59857 -0.0317399 0
M  V30 11 C -0.853844 -1.18755 0.0318194 0
M  V30 12 C -2.00262 -0.416423 -0.0775632 0
M  V30 13 C -3.24168 -1.00575 -0.013432 0
M  V30 14 N -3.32957 -2.33996 0.156743 0
M  V30 15 C -2.23412 -3.09138 0.263108 0
M  V30 16 N -1.03823 -2.50745 0.19927 0
M  V30 17 N -2.29517 -4.52033 0.445688 0
M  V30 18 C -4.47671 -0.178381 -0.130801 0 CFG=2
M  V30 19 C -4.4492 0.819967 -1.24776 0
M  V30 20 C -4.93903 1.88954 -0.273216 0 CFG=1
M  V30 21 C -4.50922 0.975036 0.862617 0
M  V30 22 N -4.22979 3.1332 -0.343553 0
M  V30 23 H 7.98692 2.63152 0.378973 0
M  V30 24 H 6.28359 2.81959 1.00557 0
M  V30 25 H 6.64809 3.17203 -0.718896 0
M  V30 26 H 6.14084 -1.29274 -0.815331 0
M  V30 27 H 3.91312 -2.42487 -0.681541 0
M  V30 28 H 2.1629 1.15762 0.727474 0
M  V30 29 H 4.35984 2.26795 0.58966 0
M  V30 30 H 1.53079 -2.10119 0.991474 0
M  V30 31 H 1.63553 -2.18732 -0.77099 0
M  V30 32 H 0.528695 0.418016 -0.164203 0
M  V30 33 H -1.90394 0.653762 -0.213808 0
M  V30 34 H -2.11614 -4.84503 1.42761 0
M  V30 35 H -2.49731 -5.16836 -0.322181 0
M  V30 36 H -5.39554 -0.797292 -0.060446 0
M  V30 37 H -3.43909 1.01396 -1.66117 0
M  V30 38 H -5.22063 0.572029 -2.01866 0
M  V30 39 H -6.04165 1.97878 -0.295467 0
M  V30 40 H -3.5143 1.24225 1.24474 0
M  V30 41 H -5.30526 0.871044 1.64256 0
M  V30 42 H -3.76947 3.29527 -1.26326 0
M  V30 43 H -4.86853 3.92631 -0.153645 0
M  V30 END ATOM
M  V30 BEGIN BOND
M  V30 1 1 1 2
M  V30 2 1 2 3
M  V30 3 2 3 4
M  V30 4 1 4 5
M  V30 5 2 5 6
M  V30 6 1 6 7
M  V30 7 2 7 8
M  V30 8 1 6 9
M  V30 9 1 9 10
M  V30 10 1 10 11
M  V30 11 2 11 12
M  V30 12 1 12 13
M  V30 13 2 13 14
M  V30 14 1 14 15
M  V30 15 2 15 16
M  V30 16 1 15 17
M  V30 17 1 13 18
M  V30 18 1 18 19
M  V30 19 1 19 20
M  V30 20 1 20 21
M  V30 21 1 20 22
M  V30 22 1 8 3
M  V30 23 1 16 11
M  V30 24 1 21 18
M  V30 25 1 1 23
M  V30 26 1 1 24
M  V30 27 1 1 25
M  V30 28 1 4 26
M  V30 29 1 5 27
M  V30 30 1 7 28
M  V30 31 1 8 29
M  V30 32 1 9 30
M  V30 33 1 9 31
M  V30 34 1 10 32
M  V30 35 1 12 33
M  V30 36 1 17 34
M  V30 37 1 17 35
M  V30 38 1 18 36 CFG=3
M  V30 39 1 19 37
M  V30 40 1 19 38
M  V30 41 1 20 39 CFG=1
M  V30 42 1 21 40
M  V30 43 1 21 41
M  V30 44 1 22 42
M  V30 45 1 22 43
M  V30 END BOND
M  V30 END CTAB
M  END
