
     RDKit          3D

  0  0  0  0  0  0  0  0  0  0999 V3000
M  V30 BEGIN CTAB
M  V30 COUNTS 41 43 0 0 0
M  V30 BEGIN ATOM
M  V30 1 N -4.44974 1.56034 -1.37071 0
M  V30 2 C -4.59147 0.646456 -0.332323 0
M  V30 3 C -3.47052 0.687543 0.686097 0
M  V30 4 N -2.18071 0.40511 0.104798 0
M  V30 5 C -1.59555 1.38116 -0.797178 0
M  V30 6 C -0.0911519 1.42091 -0.659825 0
M  V30 7 C 0.524507 0.0724527 -0.79971 0 CFG=2
M  V30 8 C -0.148565 -0.962059 -0.0333934 0
M  V30 9 C -1.46294 -0.788243 0.379756 0
M  V30 10 C -2.07698 -1.82484 1.09437 0
M  V30 11 C -1.42486 -2.992 1.39529 0
M  V30 12 C -0.123514 -3.1286 0.970929 0
M  V30 13 C 0.532822 -2.15246 0.267822 0
M  V30 14 C 1.98846 0.152256 -0.641687 0
M  V30 15 C 2.86327 -0.433317 -1.52481 0
M  V30 16 C 4.21154 -0.322303 -1.32492 0
M  V30 17 C 4.73936 0.364493 -0.255407 0
M  V30 18 C 3.87615 0.949181 0.626302 0
M  V30 19 C 2.52283 0.838708 0.427132 0
M  V30 20 N 6.13029 0.453698 -0.0889258 0
M  V30 21 H -4.36462 1.16469 -2.26154 0
M  V30 22 H -4.77533 2.44783 -1.20917 0
M  V30 23 H -5.53094 0.863151 0.255083 0
M  V30 24 H -4.74647 -0.359241 -0.752761 0
M  V30 25 H -3.7605 0.110914 1.55114 0
M  V30 26 H -3.43457 1.76262 1.0307 0
M  V30 27 H -1.98138 2.3725 -0.498169 0
M  V30 28 H -1.93419 1.16816 -1.82598 0
M  V30 29 H 0.164966 1.94565 0.284466 0
M  V30 30 H 0.280021 2.06317 -1.49188 0
M  V30 31 H 0.373185 -0.207797 -1.89548 0
M  V30 32 H -3.09958 -1.68689 1.40415 0
M  V30 33 H -1.94444 -3.76518 1.95167 0
M  V30 34 H 0.434104 -4.03311 1.18484 0
M  V30 35 H 1.53415 -2.21577 -0.0776576 0
M  V30 36 H 2.51942 -0.986067 -2.38429 0
M  V30 37 H 4.92717 -0.785052 -2.02289 0
M  V30 38 H 4.31568 1.49486 1.47509 0
M  V30 39 H 1.89927 1.33833 1.1824 0
M  V30 40 H 6.53252 0.883102 0.754574 0
M  V30 41 H 6.81834 0.0956301 -0.79941 0
M  V30 END ATOM
M  V30 BEGIN BOND
M  V30 1 1 1 2
M  V30 2 1 2 3
M  V30 3 1 3 4
M  V30 4 1 4 5
M  V30 5 1 5 6
M  V30 6 1 6 7
M  V30 7 1 7 8
M  V30 8 2 8 9
M  V30 9 1 9 10
M  V30 10 2 10 11
M  V30 11 1 11 12
M  V30 12 2 12 13
M  V30 13 1 7 14
M  V30 14 2 14 15
M  V30 15 1 15 16
M  V30 16 2 16 17
M  V30 17 1 17 18
M  V30 18 2 18 19
M  V30 19 1 17 20
M  V30 20 1 9 4
M  V30 21 1 19 14
M  V30 22 1 13 8
M  V30 23 1 1 21
M  V30 24 1 1 22
M  V30 25 1 2 23
M  V30 26 1 2 24
M  V30 27 1 3 25
M  V30 28 1 3 26
M  V30 29 1 5 27
M  V30 30 1 5 28
M  V30 31 1 6 29
M  V30 32 1 6 30
M  V30 33 1 7 31 CFG=3
M  V30 34 1 10 32
M  V30 35 1 11 33
M  V30 36 1 12 34
M  V30 37 1 13 35
M  V30 38 1 15 36
M  V30 39 1 16 37
M  V30 40 1 18 38
M  V30 41 1 19 39
M  V30 42 1 20 40
M  V30 43 1 20 41
M  V30 END BOND
M  V30 END CTAB
M  END
