
     RDKit          3D

  0  0  0  0  0  0  0  0  0  0999 V3000
M  V30 BEGIN CTAB
M  V30 COUNTS 29 30 0 0 0
M  V30 BEGIN ATOM
M  V30 1 N 2.60909 3.04703 1.64503 0
M  V30 2 C 2.96757 2.0557 1.14388 0
M  V30 3 C 3.38529 0.834854 0.518161 0
M  V30 4 C 4.73784 0.593534 0.393053 0
M  V30 5 C 5.21517 -0.569928 -0.203338 0
M  V30 6 C 4.33591 -1.49855 -0.677937 0
M  V30 7 C 2.98849 -1.25575 -0.552076 0
M  V30 8 C 2.49495 -0.108629 0.0359635 0
M  V30 9 C 1.05503 0.184702 0.187805 0
M  V30 10 S 0.0180785 -1.12328 -0.480898 0
M  V30 11 C -1.69932 -0.641465 -0.232211 0
M  V30 12 N -2.03411 0.517621 0.361796 0
M  V30 13 C -3.28258 0.927071 0.572895 0
M  V30 14 N -3.50754 2.19403 1.22203 0
M  V30 15 C -4.31955 0.136742 0.169281 0
M  V30 16 C -3.99537 -1.0682 -0.448201 0
M  V30 17 N -2.71423 -1.44911 -0.64472 0
M  V30 18 N -5.09535 -1.88178 -0.863643 0
M  V30 19 H 5.48327 1.29699 0.752495 0
M  V30 20 H 6.2703 -0.76363 -0.30372 0
M  V30 21 H 4.69274 -2.41397 -1.14716 0
M  V30 22 H 2.26633 -1.96965 -0.916885 0
M  V30 23 H 0.769426 0.338353 1.25809 0
M  V30 24 H 0.807715 1.12222 -0.36643 0
M  V30 25 H -2.79249 2.94688 1.20496 0
M  V30 26 H -4.396 2.39916 1.73149 0
M  V30 27 H -5.33423 0.456751 0.33431 0
M  V30 28 H -5.6292 -2.36655 -0.119621 0
M  V30 29 H -5.29722 -1.94115 -1.88578 0
M  V30 END ATOM
M  V30 BEGIN BOND
M  V30 1 3 1 2
M  V30 2 1 2 3
M  V30 3 2 3 4
M  V30 4 1 4 5
M  V30 5 2 5 6
M  V30 6 1 6 7
M  V30 7 2 7 8
M  V30 8 1 8 9
M  V30 9 1 9 10
M  V30 10 1 10 11
M  V30 11 2 11 12
M  V30 12 1 12 13
M  V30 13 1 13 14
M  V30 14 2 13 15
M  V30 15 1 15 16
M  V30 16 2 16 17
M  V30 17 1 16 18
M  V30 18 1 8 3
M  V30 19 1 17 11
M  V30 20 1 4 19
M  V30 21 1 5 20
M  V30 22 1 6 21
M  V30 23 1 7 22
M  V30 24 1 9 23
M  V30 25 1 9 24
M  V30 26 1 14 25
M  V30 27 1 14 26
M  V30 28 1 15 27
M  V30 29 1 18 28
M  V30 30 1 18 29
M  V30 END BOND
M  V30 END CTAB
M  END
