
     RDKit          3D

  0  0  0  0  0  0  0  0  0  0999 V3000
M  V30 BEGIN CTAB
M  V30 COUNTS 55 56 0 0 0
M  V30 BEGIN ATOM
M  V30 1 N -7.84659 -1.08487 2.32452 0
M  V30 2 C -7.69967 -0.952783 0.92373 0
M  V30 3 N -8.72976 -1.0069 0.168912 0
M  V30 4 C -6.38982 -0.758712 0.364251 0
M  V30 5 C -5.27718 -0.701608 1.19619 0
M  V30 6 C -3.99823 -0.518151 0.723005 0
M  V30 7 C -3.76881 -0.379968 -0.639126 0
M  V30 8 O -2.48826 -0.19388 -1.14202 0
M  V30 9 C -2.33115 -0.0619039 -2.5281 0
M  V30 10 C -0.957191 0.134746 -3.03082 0
M  V30 11 C -0.295331 1.35486 -2.54557 0
M  V30 12 C -0.104339 1.42182 -1.06243 0
M  V30 13 C 0.742666 0.285547 -0.587444 0
M  V30 14 C 0.924764 0.343589 0.917934 0
M  V30 15 C 1.58914 1.61145 1.33123 0
M  V30 16 O 2.81064 1.80571 0.783063 0
M  V30 17 C 4.00471 1.14329 0.882791 0
M  V30 18 C 4.16395 0.0380474 1.6973 0
M  V30 19 C 5.39504 -0.575876 1.73972 0
M  V30 20 C 6.46884 -0.111182 0.989157 0
M  V30 21 C 6.29242 0.98799 0.186847 0
M  V30 22 C 5.08829 1.60814 0.129241 0
M  V30 23 C 7.75305 -0.782644 1.05788 0
M  V30 24 N 7.88211 -1.91392 1.90258 0
M  V30 25 N 8.76299 -0.381675 0.380321 0
M  V30 26 C -4.86819 -0.436075 -1.46497 0
M  V30 27 C -6.16933 -0.622561 -0.98547 0
M  V30 28 H -7.34779 -1.83589 2.82582 0
M  V30 29 H -8.45267 -0.430038 2.84487 0
M  V30 30 H -8.75453 -0.926427 -0.841032 0
M  V30 31 H -5.45143 -0.810192 2.27475 0
M  V30 32 H -3.1387 -0.474819 1.37522 0
M  V30 33 H -3.00306 0.771753 -2.87294 0
M  V30 34 H -2.74114 -0.983971 -3.04963 0
M  V30 35 H -0.330709 -0.75245 -2.72237 0
M  V30 36 H -1.00807 0.14857 -4.15729 0
M  V30 37 H -0.806343 2.30162 -2.90844 0
M  V30 38 H 0.711241 1.41103 -3.0768 0
M  V30 39 H -1.03338 1.51297 -0.484027 0
M  V30 40 H 0.537533 2.35731 -0.820578 0
M  V30 41 H 0.300987 -0.679041 -0.834975 0
M  V30 42 H 1.72496 0.360837 -1.10718 0
M  V30 43 H -0.116241 0.299937 1.34204 0
M  V30 44 H 1.41407 -0.569299 1.25443 0
M  V30 45 H 1.65667 1.58052 2.47417 0
M  V30 46 H 0.92764 2.48473 1.12027 0
M  V30 47 H 3.375 -0.363261 2.32273 0
M  V30 48 H 5.57226 -1.45108 2.36538 0
M  V30 49 H 7.09552 1.41563 -0.43707 0
M  V30 50 H 4.93311 2.46293 -0.488264 0
M  V30 51 H 8.62163 -1.93345 2.61845 0
M  V30 52 H 7.23802 -2.70219 1.79298 0
M  V30 53 H 8.80654 0.419987 -0.266596 0
M  V30 54 H -4.70113 -0.328598 -2.53997 0
M  V30 55 H -6.98479 -0.654403 -1.71668 0
M  V30 END ATOM
M  V30 BEGIN BOND
M  V30 1 1 1 2
M  V30 2 2 2 3 CFG=2
M  V30 3 1 2 4
M  V30 4 2 4 5
M  V30 5 1 5 6
M  V30 6 2 6 7
M  V30 7 1 7 8
M  V30 8 1 8 9
M  V30 9 1 9 10
M  V30 10 1 10 11
M  V30 11 1 11 12
M  V30 12 1 12 13
M  V30 13 1 13 14
M  V30 14 1 14 15
M  V30 15 1 15 16
M  V30 16 1 16 17
M  V30 17 2 17 18
M  V30 18 1 18 19
M  V30 19 2 19 20
M  V30 20 1 20 21
M  V30 21 2 21 22
M  V30 22 1 20 23
M  V30 23 1 23 24
M  V30 24 2 23 25 CFG=2
M  V30 25 1 7 26
M  V30 26 2 26 27
M  V30 27 1 27 4
M  V30 28 1 22 17
M  V30 29 1 1 28
M  V30 30 1 1 29
M  V30 31 1 3 30
M  V30 32 1 5 31
M  V30 33 1 6 32
M  V30 34 1 9 33
M  V30 35 1 9 34
M  V30 36 1 10 35
M  V30 37 1 10 36
M  V30 38 1 11 37
M  V30 39 1 11 38
M  V30 40 1 12 39
M  V30 41 1 12 40
M  V30 42 1 13 41
M  V30 43 1 13 42
M  V30 44 1 14 43
M  V30 45 1 14 44
M  V30 46 1 15 45
M  V30 47 1 15 46
M  V30 48 1 18 47
M  V30 49 1 19 48
M  V30 50 1 21 49
M  V30 51 1 22 50
M  V30 52 1 24 51
M  V30 53 1 24 52
M  V30 54 1 25 53
M  V30 55 1 26 54
M  V30 56 1 27 55
M  V30 END BOND
M  V30 END CTAB
M  END
