
     RDKit          3D

  0  0  0  0  0  0  0  0  0  0999 V3000
M  V30 BEGIN CTAB
M  V30 COUNTS 43 42 0 0 0
M  V30 BEGIN ATOM
M  V30 1 N 5.52047 0.376697 1.45894 0
M  V30 2 C 5.80532 -0.378039 0.273298 0
M  V30 3 C 4.60534 -0.669668 -0.581111 0
M  V30 4 C 3.9889 0.636284 -1.04098 0
M  V30 5 C 2.7904 0.317997 -1.93601 0
M  V30 6 N 1.8471 -0.405251 -1.26732 0
M  V30 7 C 0.988678 -0.0106357 -0.272219 0
M  V30 8 C -0.133981 0.924066 -0.576082 0
M  V30 9 C -0.893616 1.10476 0.741943 0
M  V30 10 N -1.35457 -0.151537 1.2383 0
M  V30 11 C -2.3727 -0.808191 0.510626 0
M  V30 12 C -3.73193 -0.150682 0.570658 0
M  V30 13 C -4.71605 -0.95461 -0.254423 0
M  V30 14 C -6.09853 -0.384784 -0.254558 0
M  V30 15 N -6.66444 -0.316177 1.07109 0
M  V30 16 H 6.46033 0.741088 1.81771 0
M  V30 17 H 5.19767 -0.250523 2.26271 0
M  V30 18 H 6.5675 0.173342 -0.328055 0
M  V30 19 H 6.29233 -1.37046 0.491914 0
M  V30 20 H 3.82694 -1.18632 0.0269842 0
M  V30 21 H 4.86753 -1.30459 -1.4283 0
M  V30 22 H 4.77597 1.1445 -1.62892 0
M  V30 23 H 3.72846 1.24471 -0.175432 0
M  V30 24 H 2.51981 1.25469 -2.43182 0
M  V30 25 H 3.2519 -0.306581 -2.76865 0
M  V30 26 H 1.92047 -1.46595 -1.34275 0
M  V30 27 H 0.514691 -0.926737 0.204314 0
M  V30 28 H 1.57844 0.44355 0.584785 0
M  V30 29 H -0.827866 0.474881 -1.2908 0
M  V30 30 H 0.170719 1.94741 -0.850599 0
M  V30 31 H -1.68371 1.87478 0.670802 0
M  V30 32 H -0.173867 1.49725 1.50885 0
M  V30 33 H -1.4804 -0.155354 2.26513 0
M  V30 34 H -2.44536 -1.85956 0.914096 0
M  V30 35 H -2.03335 -0.938608 -0.539638 0
M  V30 36 H -4.04525 -0.117385 1.64735 0
M  V30 37 H -3.67995 0.874098 0.20189 0
M  V30 38 H -4.36042 -1.05755 -1.29945 0
M  V30 39 H -4.77652 -1.98691 0.145363 0
M  V30 40 H -6.78416 -0.961286 -0.894274 0
M  V30 41 H -6.0465 0.689106 -0.615256 0
M  V30 42 H -6.60722 0.634842 1.49219 0
M  V30 43 H -6.30859 -1.07442 1.67771 0
M  V30 END ATOM
M  V30 BEGIN BOND
M  V30 1 1 1 2
M  V30 2 1 2 3
M  V30 3 1 3 4
M  V30 4 1 4 5
M  V30 5 1 5 6
M  V30 6 1 6 7
M  V30 7 1 7 8
M  V30 8 1 8 9
M  V30 9 1 9 10
M  V30 10 1 10 11
M  V30 11 1 11 12
M  V30 12 1 12 13
M  V30 13 1 13 14
M  V30 14 1 14 15
M  V30 15 1 1 16
M  V30 16 1 1 17
M  V30 17 1 2 18
M  V30 18 1 2 19
M  V30 19 1 3 20
M  V30 20 1 3 21
M  V30 21 1 4 22
M  V30 22 1 4 23
M  V30 23 1 5 24
M  V30 24 1 5 25
M  V30 25 1 6 26
M  V30 26 1 7 27
M  V30 27 1 7 28
M  V30 28 1 8 29
M  V30 29 1 8 30
M  V30 30 1 9 31
M  V30 31 1 9 32
M  V30 32 1 10 33
M  V30 33 1 11 34
M  V30 34 1 11 35
M  V30 35 1 12 36
M  V30 36 1 12 37
M  V30 37 1 13 38
M  V30 38 1 13 39
M  V30 39 1 14 40
M  V30 40 1 14 41
M  V30 41 1 15 42
M  V30 42 1 15 43
M  V30 END BOND
M  V30 END CTAB
M  END
