
     RDKit          3D

  0  0  0  0  0  0  0  0  0  0999 V3000
M  V30 BEGIN CTAB
M  V30 COUNTS 28 28 0 0 0
M  V30 BEGIN ATOM
M  V30 1 C -2.90467 1.92229 -0.0841166 0
M  V30 2 O -1.97934 1.04175 0.473098 0
M  V30 3 C -2.01737 -0.202616 -0.112037 0
M  V30 4 C -1.02062 -1.13202 0.495782 0
M  V30 5 C 0.384 -0.780311 0.199395 0
M  V30 6 C 0.725793 0.3024 -0.602341 0
M  V30 7 C 2.02128 0.627052 -0.877252 0
M  V30 8 C 2.36586 1.7805 -1.73056 0
M  V30 9 C 3.03343 -0.135997 -0.348504 0
M  V30 10 N 2.73558 -1.19928 0.437698 0
M  V30 11 C 1.44362 -1.50504 0.698696 0
M  V30 12 N 1.13704 -2.62588 1.52719 0
M  V30 13 N -1.26136 -1.31651 1.92607 0
M  V30 14 H -3.94042 1.49472 0.0560028 0
M  V30 15 H -2.92237 2.88562 0.464027 0
M  V30 16 H -2.69226 2.16017 -1.13802 0
M  V30 17 H -3.04229 -0.649422 -0.0318185 0
M  V30 18 H -1.78245 -0.124971 -1.2011 0
M  V30 19 H -1.2293 -2.14934 0.0483535 0
M  V30 20 H -0.0408079 0.901501 -1.01916 0
M  V30 21 H 1.49405 2.38214 -2.02066 0
M  V30 22 H 2.93253 1.45752 -2.63759 0
M  V30 23 H 3.04141 2.47951 -1.1542 0
M  V30 24 H 4.08718 0.0905539 -0.544717 0
M  V30 25 H 1.52208 -2.69571 2.49154 0
M  V30 26 H 0.525713 -3.35436 1.1349 0
M  V30 27 H -2.13479 -0.836043 2.23188 0
M  V30 28 H -0.481492 -0.818229 2.43935 0
M  V30 END ATOM
M  V30 BEGIN BOND
M  V30 1 1 1 2
M  V30 2 1 2 3
M  V30 3 1 3 4
M  V30 4 1 4 5
M  V30 5 2 5 6
M  V30 6 1 6 7
M  V30 7 1 7 8
M  V30 8 2 7 9
M  V30 9 1 9 10
M  V30 10 2 10 11
M  V30 11 1 11 12
M  V30 12 1 4 13
M  V30 13 1 11 5
M  V30 14 1 1 14
M  V30 15 1 1 15
M  V30 16 1 1 16
M  V30 17 1 3 17
M  V30 18 1 3 18
M  V30 19 1 4 19
M  V30 20 1 6 20
M  V30 21 1 8 21
M  V30 22 1 8 22
M  V30 23 1 8 23
M  V30 24 1 9 24
M  V30 25 1 12 25
M  V30 26 1 12 26
M  V30 27 1 13 27
M  V30 28 1 13 28
M  V30 END BOND
M  V30 END CTAB
M  END
