
     RDKit          3D

  0  0  0  0  0  0  0  0  0  0999 V3000
M  V30 BEGIN CTAB
M  V30 COUNTS 36 37 0 0 0
M  V30 BEGIN ATOM
M  V30 1 N -4.6934 0.331811 2.10579 0
M  V30 2 C -5.15332 0.387279 0.754861 0
M  V30 3 C -3.96264 0.256043 -0.125975 0
M  V30 4 C -3.81433 1.06317 -1.22791 0
M  V30 5 C -2.70545 0.934402 -2.04779 0
M  V30 6 C -1.78202 -0.0141935 -1.7193 0
M  V30 7 C -1.90412 -0.852792 -0.604049 0
M  V30 8 C -3.00419 -0.706372 0.188425 0
M  V30 9 C -0.821697 -1.86521 -0.360759 0
M  V30 10 N 0.452404 -1.15056 -0.339005 0
M  V30 11 C 1.51392 -1.48532 0.51352 0
M  V30 12 O 1.45472 -2.43697 1.32073 0
M  V30 13 C 2.75475 -0.679701 0.453785 0
M  V30 14 C 3.03276 -0.047731 -0.725132 0
M  V30 15 C 4.15115 0.742326 -0.822179 0
M  V30 16 C 5.02767 0.938824 0.223294 0
M  V30 17 C 4.72257 0.288767 1.39938 0
M  V30 18 C 3.58865 -0.524311 1.52513 0
M  V30 19 N 6.1618 1.78039 0.0718582 0
M  V30 20 H -5.06537 -0.465501 2.64333 0
M  V30 21 H -4.64449 1.23921 2.58731 0
M  V30 22 H -5.91305 -0.387546 0.562764 0
M  V30 23 H -5.63965 1.3673 0.511661 0
M  V30 24 H -4.58763 1.81411 -1.44238 0
M  V30 25 H -2.5857 1.57031 -2.9127 0
M  V30 26 H -0.910083 -0.149241 -2.32977 0
M  V30 27 H -3.1204 -1.34401 1.06675 0
M  V30 28 H -0.82353 -2.59411 -1.16496 0
M  V30 29 H -1.00127 -2.28615 0.642143 0
M  V30 30 H 0.555118 -0.321591 -0.989198 0
M  V30 31 H 2.39675 -0.172694 -1.57527 0
M  V30 32 H 4.33901 1.22194 -1.76668 0
M  V30 33 H 5.3481 0.398079 2.24279 0
M  V30 34 H 3.40417 -1.01712 2.47224 0
M  V30 35 H 7.11616 1.35671 -0.0792037 0
M  V30 36 H 6.11263 2.81045 0.104156 0
M  V30 END ATOM
M  V30 BEGIN BOND
M  V30 1 1 1 2
M  V30 2 1 2 3
M  V30 3 2 3 4
M  V30 4 1 4 5
M  V30 5 2 5 6
M  V30 6 1 6 7
M  V30 7 2 7 8
M  V30 8 1 7 9
M  V30 9 1 9 10
M  V30 10 1 10 11
M  V30 11 2 11 12
M  V30 12 1 11 13
M  V30 13 2 13 14
M  V30 14 1 14 15
M  V30 15 2 15 16
M  V30 16 1 16 17
M  V30 17 2 17 18
M  V30 18 1 16 19
M  V30 19 1 8 3
M  V30 20 1 18 13
M  V30 21 1 1 20
M  V30 22 1 1 21
M  V30 23 1 2 22
M  V30 24 1 2 23
M  V30 25 1 4 24
M  V30 26 1 5 25
M  V30 27 1 6 26
M  V30 28 1 8 27
M  V30 29 1 9 28
M  V30 30 1 9 29
M  V30 31 1 10 30
M  V30 32 1 14 31
M  V30 33 1 15 32
M  V30 34 1 17 33
M  V30 35 1 18 34
M  V30 36 1 19 35
M  V30 37 1 19 36
M  V30 END BOND
M  V30 END CTAB
M  END
