
     RDKit          3D

  0  0  0  0  0  0  0  0  0  0999 V3000
M  V30 BEGIN CTAB
M  V30 COUNTS 48 51 0 0 0
M  V30 BEGIN ATOM
M  V30 1 N 6.56115 0.0729617 -1.29427 0
M  V30 2 C 5.19149 -0.0346066 -0.943442 0
M  V30 3 C 4.24582 0.827002 -1.39601 0
M  V30 4 C 2.92428 0.658624 -1.00938 0
M  V30 5 C 2.50829 -0.350563 -0.175954 0
M  V30 6 N 1.14783 -0.588502 0.200465 0
M  V30 7 C 0.0838211 0.307246 0.122636 0
M  V30 8 C 0.270932 1.68478 0.334779 0
M  V30 9 C -0.741633 2.58929 0.398964 0
M  V30 10 C -2.01008 2.13345 0.250301 0
M  V30 11 N -3.11665 3.05365 0.312167 0
M  V30 12 C -2.2971 0.799242 0.0377393 0
M  V30 13 C -1.23925 -0.11633 -0.0267054 0
M  V30 14 C -1.57337 -1.50733 -0.27708 0
M  V30 15 O -0.6692 -2.37537 -0.354202 0
M  V30 16 C -2.97665 -1.94943 -0.453759 0
M  V30 17 C -3.97751 -1.04357 -0.383354 0
M  V30 18 C -5.28394 -1.45938 -0.547882 0
M  V30 19 C -5.5951 -2.78803 -0.784391 0
M  V30 20 C -4.54785 -3.68404 -0.849782 0
M  V30 21 C -3.2248 -3.29534 -0.688342 0
M  V30 22 C -3.66437 0.353626 -0.13631 0
M  V30 23 O -4.5745 1.22174 -0.0658464 0
M  V30 24 S -0.470131 4.30806 0.664464 0
M  V30 25 O -1.26657 4.74538 2.07489 0
M  V30 26 O -1.06704 5.11824 -0.458531 0
M  V30 27 O 1.00182 4.58703 0.755736 0
M  V30 28 C 3.52487 -1.21254 0.261653 0
M  V30 29 C 4.82324 -1.061 -0.108598 0
M  V30 30 S 3.10249 -2.55307 1.33055 0
M  V30 31 O 2.36716 -2.02056 2.72852 0
M  V30 32 O 2.31056 -3.60091 0.635455 0
M  V30 33 O 4.39326 -3.23953 1.76743 0
M  V30 34 H 7.09415 -0.696123 -1.74992 0
M  V30 35 H 7.04354 0.971162 -1.07929 0
M  V30 36 H 4.55234 1.6303 -2.05316 0
M  V30 37 H 2.2136 1.35685 -1.42726 0
M  V30 38 H 0.998423 -1.54244 0.620098 0
M  V30 39 H 1.26941 2.02443 0.48565 0
M  V30 40 H -3.53199 3.4004 -0.581273 0
M  V30 41 H -3.50728 3.37714 1.22914 0
M  V30 42 H -6.05895 -0.727538 -0.48846 0
M  V30 43 H -6.61397 -3.13416 -0.916209 0
M  V30 44 H -4.73069 -4.73883 -1.03275 0
M  V30 45 H -2.40436 -3.97176 -0.735472 0
M  V30 46 H -0.709332 5.30946 2.64904 0
M  V30 47 H 5.56107 -1.75989 0.263418 0
M  V30 48 H 2.66276 -1.07925 2.89456 0
M  V30 END ATOM
M  V30 BEGIN BOND
M  V30 1 1 1 2
M  V30 2 2 2 3
M  V30 3 1 3 4
M  V30 4 2 4 5
M  V30 5 1 5 6
M  V30 6 1 6 7
M  V30 7 2 7 8
M  V30 8 1 8 9
M  V30 9 2 9 10
M  V30 10 1 10 11
M  V30 11 1 10 12
M  V30 12 2 12 13
M  V30 13 1 13 14
M  V30 14 2 14 15
M  V30 15 1 14 16
M  V30 16 2 16 17
M  V30 17 1 17 18
M  V30 18 2 18 19
M  V30 19 1 19 20
M  V30 20 2 20 21
M  V30 21 1 17 22
M  V30 22 2 22 23
M  V30 23 1 9 24
M  V30 24 1 24 25
M  V30 25 2 24 26
M  V30 26 2 24 27
M  V30 27 1 5 28
M  V30 28 2 28 29
M  V30 29 1 28 30
M  V30 30 1 30 31
M  V30 31 2 30 32
M  V30 32 2 30 33
M  V30 33 1 29 2
M  V30 34 1 13 7
M  V30 35 1 21 16
M  V30 36 1 22 12
M  V30 37 1 1 34
M  V30 38 1 1 35
M  V30 39 1 3 36
M  V30 40 1 4 37
M  V30 41 1 6 38
M  V30 42 1 8 39
M  V30 43 1 11 40
M  V30 44 1 11 41
M  V30 45 1 18 42
M  V30 46 1 19 43
M  V30 47 1 20 44
M  V30 48 1 21 45
M  V30 49 1 25 46
M  V30 50 1 29 47
M  V30 51 1 31 48
M  V30 END BOND
M  V30 END CTAB
M  END
