
     RDKit          3D

  0  0  0  0  0  0  0  0  0  0999 V3000
M  V30 BEGIN CTAB
M  V30 COUNTS 42 44 0 0 0
M  V30 BEGIN ATOM
M  V30 1 N 7.00742 0.64859 -1.57421 0
M  V30 2 C 5.74553 0.16929 -1.17811 0
M  V30 3 C 4.96008 0.854281 -0.27734 0
M  V30 4 C 3.7175 0.392898 0.119672 0
M  V30 5 C 3.19069 -0.779801 -0.364172 0
M  V30 6 C 4.00379 -1.4782 -1.28837 0
M  V30 7 C 5.22642 -1.01056 -1.66896 0
M  V30 8 O 1.96724 -1.31549 -0.0368835 0
M  V30 9 C 1.04198 -0.72894 0.799394 0
M  V30 10 C 0.477126 0.509575 0.200844 0
M  V30 11 C -0.532486 1.23071 1.07097 0
M  V30 12 N -1.68442 0.465513 1.41079 0
M  V30 13 C -1.72899 -0.246986 2.55626 0
M  V30 14 O -0.77557 -0.271122 3.39314 0
M  V30 15 C -2.85664 -0.982293 2.83753 0
M  V30 16 C -3.95141 -1.0317 2.00848 0
M  V30 17 C -3.88809 -0.297109 0.842408 0
M  V30 18 C -2.74142 0.450767 0.555529 0
M  V30 19 C -2.74818 1.15661 -0.627679 0
M  V30 20 C -3.79787 1.16753 -1.52438 0
M  V30 21 C -4.91961 0.427771 -1.22939 0
M  V30 22 C -4.94171 -0.289213 -0.0523927 0
M  V30 23 N -6.03948 0.398945 -2.11822 0
M  V30 24 H 7.33551 0.534722 -2.55583 0
M  V30 25 H 7.63987 1.12651 -0.896989 0
M  V30 26 H 5.33686 1.79325 0.133949 0
M  V30 27 H 3.15853 0.966565 0.864568 0
M  V30 28 H 3.60328 -2.39562 -1.67179 0
M  V30 29 H 5.86829 -1.54392 -2.38662 0
M  V30 30 H 0.230944 -1.47909 0.989116 0
M  V30 31 H 1.58484 -0.519839 1.77342 0
M  V30 32 H -0.0273374 0.169579 -0.760846 0
M  V30 33 H 1.21692 1.23276 -0.114687 0
M  V30 34 H 0.032841 1.41696 2.04051 0
M  V30 35 H -0.697142 2.22307 0.65687 0
M  V30 36 H -2.87309 -1.55533 3.77429 0
M  V30 37 H -4.83941 -1.62584 2.25528 0
M  V30 38 H -1.8722 1.73879 -0.873212 0
M  V30 39 H -3.74061 1.75403 -2.45465 0
M  V30 40 H -5.80382 -0.89533 0.236843 0
M  V30 41 H -6.48759 -0.532858 -2.26436 0
M  V30 42 H -6.39859 1.25712 -2.60075 0
M  V30 END ATOM
M  V30 BEGIN BOND
M  V30 1 1 1 2
M  V30 2 2 2 3
M  V30 3 1 3 4
M  V30 4 2 4 5
M  V30 5 1 5 6
M  V30 6 2 6 7
M  V30 7 1 5 8
M  V30 8 1 8 9
M  V30 9 1 9 10
M  V30 10 1 10 11
M  V30 11 1 11 12
M  V30 12 1 12 13
M  V30 13 2 13 14
M  V30 14 1 13 15
M  V30 15 2 15 16
M  V30 16 1 16 17
M  V30 17 2 17 18
M  V30 18 1 18 19
M  V30 19 2 19 20
M  V30 20 1 20 21
M  V30 21 2 21 22
M  V30 22 1 21 23
M  V30 23 1 7 2
M  V30 24 1 18 12
M  V30 25 1 22 17
M  V30 26 1 1 24
M  V30 27 1 1 25
M  V30 28 1 3 26
M  V30 29 1 4 27
M  V30 30 1 6 28
M  V30 31 1 7 29
M  V30 32 1 9 30
M  V30 33 1 9 31
M  V30 34 1 10 32
M  V30 35 1 10 33
M  V30 36 1 11 34
M  V30 37 1 11 35
M  V30 38 1 15 36
M  V30 39 1 16 37
M  V30 40 1 19 38
M  V30 41 1 20 39
M  V30 42 1 22 40
M  V30 43 1 23 41
M  V30 44 1 23 42
M  V30 END BOND
M  V30 END CTAB
M  END
