
     RDKit          3D

  0  0  0  0  0  0  0  0  0  0999 V3000
M  V30 BEGIN CTAB
M  V30 COUNTS 59 62 0 0 0
M  V30 BEGIN ATOM
M  V30 1 C -4.0632 -3.40232 0.162119 0
M  V30 2 C -4.66465 -2.10762 0.466462 0
M  V30 3 C -4.3208 -0.86897 0.00867374 0
M  V30 4 C -3.05523 -0.452016 -0.801449 0
M  V30 5 O -2.06933 -0.856668 -0.00823411 0
M  V30 6 C -0.957045 -1.004 0.492401 0
M  V30 7 C 0.214817 -0.720664 -0.270834 0
M  V30 8 C 1.43964 -0.890399 0.297952 0
M  V30 9 N 1.43781 -1.30953 1.55051 0
M  V30 10 C 0.410053 -1.59773 2.30612 0
M  V30 11 N 0.674123 -2.30732 3.58266 0
M  V30 12 N -0.746422 -1.43827 1.78502 0
M  V30 13 C 2.77831 -0.789 -0.437372 0
M  V30 14 C 3.0563 0.339771 -1.10676 0
M  V30 15 C 4.423 0.548547 -1.42488 0
M  V30 16 C 5.31993 -0.402259 -1.0574 0
M  V30 17 C 6.79716 -0.0285894 -1.14567 0
M  V30 18 C 7.14806 0.96782 -0.0572987 0 CFG=2
M  V30 19 N 6.87724 0.556865 1.27235 0
M  V30 20 C 6.70222 2.33422 -0.341279 0
M  V30 21 O 7.23988 3.03472 -1.42331 0
M  V30 22 O 5.84674 2.86702 0.389061 0
M  V30 23 C 5.00566 -1.54861 -0.429739 0
M  V30 24 C 3.6443 -1.74176 -0.132052 0
M  V30 25 C -3.23649 -0.85648 -2.21 0
M  V30 26 F -2.38314 -0.0381822 -2.97021 0
M  V30 27 F -4.41156 -1.13457 -2.7113 0
M  V30 28 F -2.3841 -2.0977 -2.3358 0
M  V30 29 C -5.12995 0.0421014 0.617499 0
M  V30 30 N -5.97789 -0.756234 1.41022 0
M  V30 31 O -5.62301 -1.85534 1.2755 0
M  V30 32 C -5.39036 1.44655 0.435603 0
M  V30 33 C -5.89451 2.1887 1.50233 0
M  V30 34 C -6.52127 3.36089 1.23298 0
M  V30 35 C -6.66086 3.81032 0.0128514 0
M  V30 36 C -6.18282 3.18347 -1.06552 0
M  V30 37 C -5.51833 1.95208 -0.838703 0
M  V30 38 H -4.67642 -4.2001 0.687686 0
M  V30 39 H -3.06608 -3.48324 0.52894 0
M  V30 40 H -4.16896 -3.64503 -0.962569 0
M  V30 41 H -3.04727 0.734878 -0.736925 0
M  V30 42 H 0.0996994 -0.41026 -1.27617 0
M  V30 43 H 0.170982 -3.20354 3.59815 0
M  V30 44 H 1.26778 -2.01237 4.24871 0
M  V30 45 H 2.26889 1.03841 -1.3928 0
M  V30 46 H 4.6976 1.4347 -1.91535 0
M  V30 47 H 7.38414 -0.936954 -0.939612 0
M  V30 48 H 6.99802 0.403943 -2.10947 0
M  V30 49 H 8.30317 1.05899 -0.0801028 0
M  V30 50 H 7.01656 -0.454912 1.38281 0
M  V30 51 H 7.47159 1.08564 1.9683 0
M  V30 52 H 7.88949 3.79136 -1.17583 0
M  V30 53 H 5.69367 -2.31095 -0.262952 0
M  V30 54 H 3.30761 -2.72741 0.253334 0
M  V30 55 H -5.63758 1.87237 2.48033 0
M  V30 56 H -6.83373 3.98797 2.11099 0
M  V30 57 H -7.41301 4.64708 -0.229062 0
M  V30 58 H -6.36472 3.48448 -2.06812 0
M  V30 59 H -5.18567 1.41613 -1.68905 0
M  V30 END ATOM
M  V30 BEGIN BOND
M  V30 1 1 1 2
M  V30 2 2 2 3
M  V30 3 1 3 4
M  V30 4 1 4 5
M  V30 5 1 5 6
M  V30 6 2 6 7
M  V30 7 1 7 8
M  V30 8 2 8 9
M  V30 9 1 9 10
M  V30 10 1 10 11
M  V30 11 2 10 12
M  V30 12 1 8 13
M  V30 13 2 13 14
M  V30 14 1 14 15
M  V30 15 2 15 16
M  V30 16 1 16 17
M  V30 17 1 17 18
M  V30 18 1 18 19
M  V30 19 1 18 20
M  V30 20 1 20 21
M  V30 21 2 20 22
M  V30 22 1 16 23
M  V30 23 2 23 24
M  V30 24 1 4 25
M  V30 25 1 25 26
M  V30 26 1 25 27
M  V30 27 1 25 28
M  V30 28 1 3 29
M  V30 29 2 29 30
M  V30 30 1 30 31
M  V30 31 1 29 32
M  V30 32 2 32 33
M  V30 33 1 33 34
M  V30 34 2 34 35
M  V30 35 1 35 36
M  V30 36 2 36 37
M  V30 37 1 31 2
M  V30 38 1 37 32
M  V30 39 1 12 6
M  V30 40 1 24 13
M  V30 41 1 1 38
M  V30 42 1 1 39
M  V30 43 1 1 40
M  V30 44 1 4 41
M  V30 45 1 7 42
M  V30 46 1 11 43
M  V30 47 1 11 44
M  V30 48 1 14 45
M  V30 49 1 15 46
M  V30 50 1 17 47
M  V30 51 1 17 48
M  V30 52 1 18 49 CFG=1
M  V30 53 1 19 50
M  V30 54 1 19 51
M  V30 55 1 21 52
M  V30 56 1 23 53
M  V30 57 1 24 54
M  V30 58 1 33 55
M  V30 59 1 34 56
M  V30 60 1 35 57
M  V30 61 1 36 58
M  V30 62 1 37 59
M  V30 END BOND
M  V30 END CTAB
M  END
