
     RDKit          3D

  0  0  0  0  0  0  0  0  0  0999 V3000
M  V30 BEGIN CTAB
M  V30 COUNTS 116 117 0 0 0
M  V30 BEGIN ATOM
M  V30 1 C 9.00304 2.14092 1.36843 0
M  V30 2 S 9.97595 1.09443 2.39872 0
M  V30 3 C 10.3589 -0.536946 1.82697 0
M  V30 4 C 9.21495 -1.48863 1.71963 0
M  V30 5 C 8.18793 -1.1419 0.735388 0 CFG=1
M  V30 6 C 8.6358 -1.095 -0.670678 0
M  V30 7 O 7.97303 -1.76759 -1.51807 0
M  V30 8 O 9.70896 -0.389641 -1.16446 0
M  V30 9 N 6.99575 -2.0125 0.855027 0
M  V30 10 C 5.73792 -1.48134 0.572087 0
M  V30 11 O 5.69142 -0.263289 0.195239 0
M  V30 12 C 4.4227 -2.15211 0.646428 0 CFG=2
M  V30 13 C 4.43032 -3.5909 0.957884 0
M  V30 14 C 5.02007 -3.98283 2.28066 0
M  V30 15 C 2.97744 -4.08697 0.9029 0
M  V30 16 N 3.61123 -1.88559 -0.51185 0
M  V30 17 C 2.81084 -0.736231 -0.620308 0
M  V30 18 O 2.82383 0.0792998 0.309175 0
M  V30 19 C 1.96044 -0.483549 -1.81955 0 CFG=2
M  V30 20 C 2.77217 -0.789636 -3.0485 0
M  V30 21 C 4.02094 0.0647127 -3.13261 0
M  V30 22 C 1.95844 -0.462929 -4.30386 0
M  V30 23 N 1.37271 0.815388 -1.84779 0
M  V30 24 C 0.0376285 1.09834 -1.41685 0
M  V30 25 O -0.622805 0.131207 -0.928079 0
M  V30 26 C -0.557016 2.44024 -1.54897 0 CFG=2
M  V30 27 C 0.256706 3.61697 -1.33458 0
M  V30 28 C 0.891253 3.90029 -0.0701927 0
M  V30 29 C 0.118716 4.64201 0.843463 0
M  V30 30 C 0.624679 5.00372 2.07869 0
M  V30 31 C 1.90396 4.65496 2.47209 0
M  V30 32 C 2.67111 3.92571 1.58196 0
M  V30 33 C 2.14271 3.57916 0.357314 0
M  V30 34 O 2.38988 5.02881 3.71712 0
M  V30 35 N -1.90149 2.48364 -0.991143 0
M  V30 36 C -2.99728 1.90279 -1.64187 0
M  V30 37 O -2.74021 1.31031 -2.76256 0
M  V30 38 C -4.40904 1.90598 -1.16826 0 CFG=2
M  V30 39 C -4.48709 2.50412 0.180575 0
M  V30 40 C -5.81104 2.62989 0.788697 0
M  V30 41 C -6.59774 3.74071 0.50982 0
M  V30 42 C -7.83801 3.9358 1.05888 0
M  V30 43 C -8.35318 3.01741 1.92193 0
M  V30 44 C -7.62244 1.90336 2.23301 0
M  V30 45 C -6.35937 1.72565 1.66003 0
M  V30 46 N -5.01334 0.617988 -1.36356 0
M  V30 47 C -4.66871 -0.50744 -0.573428 0
M  V30 48 O -3.8044 -0.39158 0.331114 0
M  V30 49 C -5.27208 -1.87101 -0.725486 0 CFG=2
M  V30 50 C -6.54507 -1.88271 -1.46053 0
M  V30 51 C -7.27908 -3.13433 -1.68791 0
M  V30 52 C -7.7777 -3.81803 -0.465174 0
M  V30 53 N -8.63921 -2.9552 0.319609 0
M  V30 54 C -9.24779 -3.36384 1.54205 0
M  V30 55 N -8.73738 -4.36613 2.15931 0
M  V30 56 N -10.3844 -2.67692 2.05624 0
M  V30 57 N -5.26882 -2.59472 0.486753 0
M  V30 58 H 9.0917 1.97173 0.297171 0
M  V30 59 H 7.93448 2.13189 1.7015 0
M  V30 60 H 9.31422 3.21879 1.5795 0
M  V30 61 H 10.945 -0.475115 0.859109 0
M  V30 62 H 11.1485 -0.966617 2.53302 0
M  V30 63 H 9.68031 -2.48516 1.42334 0
M  V30 64 H 8.77447 -1.65091 2.76206 0
M  V30 65 H 7.78852 -0.106336 0.935917 0
M  V30 66 H 9.6116 0.476883 -1.68291 0
M  V30 67 H 7.15812 -2.97915 1.13468 0
M  V30 68 H 3.87503 -1.60056 1.49184 0
M  V30 69 H 4.95175 -4.18672 0.166922 0
M  V30 70 H 4.19736 -4.35885 2.95728 0
M  V30 71 H 5.70501 -4.87084 2.18738 0
M  V30 72 H 5.49466 -3.16068 2.8321 0
M  V30 73 H 2.78042 -4.8495 1.66805 0
M  V30 74 H 2.26541 -3.25689 1.05819 0
M  V30 75 H 2.74244 -4.50131 -0.122356 0
M  V30 76 H 3.58134 -2.55068 -1.32837 0
M  V30 77 H 1.10173 -1.23072 -1.78918 0
M  V30 78 H 3.06013 -1.84291 -3.1064 0
M  V30 79 H 4.87389 -0.367064 -2.58425 0
M  V30 80 H 3.79129 1.06683 -2.7526 0
M  V30 81 H 4.29322 0.155641 -4.20876 0
M  V30 82 H 2.3084 -1.07428 -5.16225 0
M  V30 83 H 0.886242 -0.726082 -4.1618 0
M  V30 84 H 2.05002 0.604606 -4.58468 0
M  V30 85 H 1.93731 1.61421 -2.1967 0
M  V30 86 H -0.80426 2.44199 -2.69505 0
M  V30 87 H -0.387446 4.52557 -1.59124 0
M  V30 88 H 1.01845 3.66093 -2.18145 0
M  V30 89 H -0.897703 4.95449 0.611745 0
M  V30 90 H 0.0358037 5.57838 2.78782 0
M  V30 91 H 3.67577 3.64321 1.87625 0
M  V30 92 H 2.76409 3.01908 -0.29938 0
M  V30 93 H 1.78804 5.55547 4.32259 0
M  V30 94 H -2.02863 2.9625 -0.0854163 0
M  V30 95 H -4.95096 2.61881 -1.87332 0
M  V30 96 H -3.84187 1.96681 0.934663 0
M  V30 97 H -3.97664 3.51344 0.113915 0
M  V30 98 H -6.22406 4.49529 -0.164211 0
M  V30 99 H -8.45292 4.81854 0.832097 0
M  V30 100 H -9.35521 3.19508 2.35165 0
M  V30 101 H -8.01825 1.17305 2.9104 0
M  V30 102 H -5.82589 0.813673 1.96841 0
M  V30 103 H -5.72443 0.485444 -2.10536 0
M  V30 104 H -4.45309 -2.40612 -1.36456 0
M  V30 105 H -6.3085 -1.45058 -2.50741 0
M  V30 106 H -7.2743 -1.12015 -1.05745 0
M  V30 107 H -8.18805 -2.88956 -2.31771 0
M  V30 108 H -6.67454 -3.89959 -2.26503 0
M  V30 109 H -6.9841 -4.2082 0.146492 0
M  V30 110 H -8.45412 -4.67082 -0.825782 0
M  V30 111 H -8.82006 -1.98702 -0.034588 0
M  V30 112 H -9.16686 -4.69576 3.07218 0
M  V30 113 H -10.6878 -2.8865 3.02883 0
M  V30 114 H -10.9032 -1.98887 1.49359 0
M  V30 115 H -4.39201 -3.13166 0.675587 0
M  V30 116 H -5.59666 -2.07145 1.33076 0
M  V30 END ATOM
M  V30 BEGIN BOND
M  V30 1 1 1 2
M  V30 2 1 2 3
M  V30 3 1 3 4
M  V30 4 1 4 5
M  V30 5 1 5 6
M  V30 6 2 6 7
M  V30 7 1 6 8
M  V30 8 1 5 9
M  V30 9 1 9 10
M  V30 10 2 10 11
M  V30 11 1 10 12
M  V30 12 1 12 13
M  V30 13 1 13 14
M  V30 14 1 13 15
M  V30 15 1 12 16
M  V30 16 1 16 17
M  V30 17 2 17 18
M  V30 18 1 17 19
M  V30 19 1 19 20
M  V30 20 1 20 21
M  V30 21 1 20 22
M  V30 22 1 19 23
M  V30 23 1 23 24
M  V30 24 2 24 25
M  V30 25 1 24 26
M  V30 26 1 26 27
M  V30 27 1 27 28
M  V30 28 2 28 29
M  V30 29 1 29 30
M  V30 30 2 30 31
M  V30 31 1 31 32
M  V30 32 2 32 33
M  V30 33 1 31 34
M  V30 34 1 26 35
M  V30 35 1 35 36
M  V30 36 2 36 37
M  V30 37 1 36 38
M  V30 38 1 38 39
M  V30 39 1 39 40
M  V30 40 2 40 41
M  V30 41 1 41 42
M  V30 42 2 42 43
M  V30 43 1 43 44
M  V30 44 2 44 45
M  V30 45 1 38 46
M  V30 46 1 46 47
M  V30 47 2 47 48
M  V30 48 1 47 49
M  V30 49 1 49 50
M  V30 50 1 50 51
M  V30 51 1 51 52
M  V30 52 1 52 53
M  V30 53 1 53 54
M  V30 54 2 54 55 CFG=2
M  V30 55 1 54 56
M  V30 56 1 49 57
M  V30 57 1 33 28
M  V30 58 1 45 40
M  V30 59 1 1 58
M  V30 60 1 1 59
M  V30 61 1 1 60
M  V30 62 1 3 61
M  V30 63 1 3 62
M  V30 64 1 4 63
M  V30 65 1 4 64
M  V30 66 1 5 65 CFG=1
M  V30 67 1 8 66
M  V30 68 1 9 67
M  V30 69 1 12 68 CFG=1
M  V30 70 1 13 69
M  V30 71 1 14 70
M  V30 72 1 14 71
M  V30 73 1 14 72
M  V30 74 1 15 73
M  V30 75 1 15 74
M  V30 76 1 15 75
M  V30 77 1 16 76
M  V30 78 1 19 77 CFG=1
M  V30 79 1 20 78
M  V30 80 1 21 79
M  V30 81 1 21 80
M  V30 82 1 21 81
M  V30 83 1 22 82
M  V30 84 1 22 83
M  V30 85 1 22 84
M  V30 86 1 23 85
M  V30 87 1 26 86 CFG=3
M  V30 88 1 27 87
M  V30 89 1 27 88
M  V30 90 1 29 89
M  V30 91 1 30 90
M  V30 92 1 32 91
M  V30 93 1 33 92
M  V30 94 1 34 93
M  V30 95 1 35 94
M  V30 96 1 38 95 CFG=3
M  V30 97 1 39 96
M  V30 98 1 39 97
M  V30 99 1 41 98
M  V30 100 1 42 99
M  V30 101 1 43 100
M  V30 102 1 44 101
M  V30 103 1 45 102
M  V30 104 1 46 103
M  V30 105 1 49 104 CFG=3
M  V30 106 1 50 105
M  V30 107 1 50 106
M  V30 108 1 51 107
M  V30 109 1 51 108
M  V30 110 1 52 109
M  V30 111 1 52 110
M  V30 112 1 53 111
M  V30 113 1 55 112
M  V30 114 1 56 113
M  V30 115 1 56 114
M  V30 116 1 57 115
M  V30 117 1 57 116
M  V30 END BOND
M  V30 END CTAB
M  END
