
     RDKit          3D

  0  0  0  0  0  0  0  0  0  0999 V3000
M  V30 BEGIN CTAB
M  V30 COUNTS 34 35 0 0 0
M  V30 BEGIN ATOM
M  V30 1 C 4.28876 -1.25427 0.135156 0
M  V30 2 C 3.57299 -0.245338 1.01313 0
M  V30 3 C 2.17326 -0.0692891 0.594071 0
M  V30 4 C 1.7718 0.87322 -0.354428 0
M  V30 5 N 2.68858 1.81241 -0.873674 0
M  V30 6 N 0.481357 0.920212 -0.754406 0
M  V30 7 C -0.439938 0.0930343 -0.276845 0
M  V30 8 N -0.0621932 -0.81065 0.630606 0
M  V30 9 C 1.21244 -0.906802 1.07438 0
M  V30 10 O 1.57346 -1.76222 1.93348 0
M  V30 11 C -1.86452 0.151961 -0.738486 0
M  V30 12 N -1.86118 0.273317 -2.17392 0
M  V30 13 C -2.52305 -1.15233 -0.295894 0
M  V30 14 C -3.02914 -0.922507 1.07609 0
M  V30 15 C -3.57982 0.497075 0.930883 0
M  V30 16 C -2.67404 1.19897 -0.0231736 0
M  V30 17 H 3.99525 -1.23145 -0.900489 0
M  V30 18 H 5.40697 -1.05064 0.220088 0
M  V30 19 H 4.17327 -2.29551 0.554626 0
M  V30 20 H 4.09419 0.743838 0.824914 0
M  V30 21 H 3.70497 -0.494443 2.06087 0
M  V30 22 H 2.93219 1.89069 -1.87172 0
M  V30 23 H 3.14881 2.47938 -0.208474 0
M  V30 24 H 0.239906 1.65761 -1.4624 0
M  V30 25 H -2.27447 1.1862 -2.46357 0
M  V30 26 H -2.34073 -0.551184 -2.58188 0
M  V30 27 H -3.30957 -1.46113 -1.00822 0
M  V30 28 H -1.72978 -1.92286 -0.294414 0
M  V30 29 H -2.29457 -1.00685 1.86085 0
M  V30 30 H -3.82988 -1.65559 1.26289 0
M  V30 31 H -4.62471 0.362287 0.513053 0
M  V30 32 H -3.62635 0.96382 1.92731 0
M  V30 33 H -2.0695 1.98479 0.445535 0
M  V30 34 H -3.32474 1.70425 -0.775928 0
M  V30 END ATOM
M  V30 BEGIN BOND
M  V30 1 1 1 2
M  V30 2 1 2 3
M  V30 3 2 3 4
M  V30 4 1 4 5
M  V30 5 1 4 6
M  V30 6 1 6 7
M  V30 7 2 7 8
M  V30 8 1 8 9
M  V30 9 2 9 10
M  V30 10 1 7 11
M  V30 11 1 11 12
M  V30 12 1 11 13
M  V30 13 1 13 14
M  V30 14 1 14 15
M  V30 15 1 15 16
M  V30 16 1 9 3
M  V30 17 1 16 11
M  V30 18 1 1 17
M  V30 19 1 1 18
M  V30 20 1 1 19
M  V30 21 1 2 20
M  V30 22 1 2 21
M  V30 23 1 5 22
M  V30 24 1 5 23
M  V30 25 1 6 24
M  V30 26 1 12 25
M  V30 27 1 12 26
M  V30 28 1 13 27
M  V30 29 1 13 28
M  V30 30 1 14 29
M  V30 31 1 14 30
M  V30 32 1 15 31
M  V30 33 1 15 32
M  V30 34 1 16 33
M  V30 35 1 16 34
M  V30 END BOND
M  V30 END CTAB
M  END
