
     RDKit          3D

  0  0  0  0  0  0  0  0  0  0999 V3000
M  V30 BEGIN CTAB
M  V30 COUNTS 24 24 0 0 0
M  V30 BEGIN ATOM
M  V30 1 C 2.94643 -0.730968 0.0981768 0
M  V30 2 N 1.78326 0.128339 0.065802 0
M  V30 3 C 0.580412 -0.457196 -0.0601333 0
M  V30 4 N 0.405274 -1.85345 -0.160691 0
M  V30 5 C -0.55982 0.346728 -0.0942853 0
M  V30 6 N -1.86511 -0.189069 -0.224635 0
M  V30 7 N -2.46238 -0.396564 -1.46341 0
M  V30 8 C -2.59806 -0.530411 0.968429 0
M  V30 9 C -0.390633 1.71631 0.00415288 0
M  V30 10 O -1.44211 2.43357 -0.0288492 0
M  V30 11 N 0.822614 2.29167 0.130218 0
M  V30 12 C 1.89611 1.46893 0.158243 0
M  V30 13 O 3.04241 1.96156 0.274153 0
M  V30 14 H 3.69704 -0.273076 0.765288 0
M  V30 15 H 2.69292 -1.74742 0.492774 0
M  V30 16 H 3.38095 -0.862057 -0.907459 0
M  V30 17 H 0.639506 -2.33423 -1.05936 0
M  V30 18 H 0.0444186 -2.42071 0.648339 0
M  V30 19 H -1.78706 -0.143911 -2.20277 0
M  V30 20 H -3.37768 0.106346 -1.5549 0
M  V30 21 H -3.57624 -0.984404 0.725468 0
M  V30 22 H -2.78512 0.385577 1.59002 0
M  V30 23 H -2.03705 -1.22204 1.63213 0
M  V30 24 H 0.949915 3.30647 0.203306 0
M  V30 END ATOM
M  V30 BEGIN BOND
M  V30 1 1 1 2
M  V30 2 1 2 3
M  V30 3 1 3 4
M  V30 4 2 3 5
M  V30 5 1 5 6
M  V30 6 1 6 7
M  V30 7 1 6 8
M  V30 8 1 5 9
M  V30 9 2 9 10
M  V30 10 1 9 11
M  V30 11 1 11 12
M  V30 12 2 12 13
M  V30 13 1 12 2
M  V30 14 1 1 14
M  V30 15 1 1 15
M  V30 16 1 1 16
M  V30 17 1 4 17
M  V30 18 1 4 18
M  V30 19 1 7 19
M  V30 20 1 7 20
M  V30 21 1 8 21
M  V30 22 1 8 22
M  V30 23 1 8 23
M  V30 24 1 11 24
M  V30 END BOND
M  V30 END CTAB
M  END
