
     RDKit          3D

  0  0  0  0  0  0  0  0  0  0999 V3000
M  V30 BEGIN CTAB
M  V30 COUNTS 58 61 0 0 0
M  V30 BEGIN ATOM
M  V30 1 N -8.07439 -1.53219 -0.603631 0
M  V30 2 C -6.99991 -2.43543 -0.389825 0
M  V30 3 C -5.69031 -1.7072 -0.270449 0
M  V30 4 C -5.61005 -0.349566 -0.364504 0
M  V30 5 C -4.38892 0.347679 -0.254114 0
M  V30 6 C -3.22245 -0.321299 -0.0443609 0
M  V30 7 C -3.32146 -1.72814 0.0502742 0
M  V30 8 C -4.51986 -2.38987 -0.0603846 0
M  V30 9 C -1.94309 0.259418 0.128027 0
M  V30 10 O -0.954203 -0.628596 0.137506 0
M  V30 11 N -1.56975 1.58675 0.287914 0
M  V30 12 C -0.138414 1.94746 0.417954 0 CFG=1
M  V30 13 C 0.530272 1.30889 1.57784 0
M  V30 14 C 1.894 0.740206 1.2344 0
M  V30 15 C 2.65898 1.7966 0.465513 0 CFG=1
M  V30 16 C 1.94529 2.2265 -0.793665 0 CFG=1
M  V30 17 C 0.530365 1.67245 -0.880872 0
M  V30 18 O 1.81134 3.62938 -0.872275 0
M  V30 19 O 2.62877 2.93585 1.31641 0
M  V30 20 C 4.10348 1.48379 0.272916 0
M  V30 21 N 4.41216 0.289629 -0.433749 0
M  V30 22 C 4.58186 0.142349 -1.75528 0
M  V30 23 N 4.86538 -1.15015 -2.04638 0
M  V30 24 C 4.8745 -1.82492 -0.895166 0
M  V30 25 C 4.58966 -0.920048 0.118515 0
M  V30 26 N 4.5572 -1.42823 1.36379 0
M  V30 27 C 4.77935 -2.71234 1.64139 0
M  V30 28 N 5.05248 -3.56602 0.642797 0
M  V30 29 C 5.11149 -3.16334 -0.657519 0
M  V30 30 N 5.40393 -4.09876 -1.68723 0
M  V30 31 C -2.47 2.69521 0.381668 0
M  V30 32 H -8.3838 -1.47551 -1.57767 0
M  V30 33 H -8.8681 -1.78185 -0.000436134 0
M  V30 34 H -7.14169 -2.99617 0.554096 0
M  V30 35 H -6.97203 -3.14205 -1.26665 0
M  V30 36 H -6.52982 0.219953 -0.532189 0
M  V30 37 H -4.45467 1.41655 -0.371729 0
M  V30 38 H -2.44884 -2.3314 0.215717 0
M  V30 39 H -4.56824 -3.46873 0.0158923 0
M  V30 40 H -0.111096 3.07188 0.53932 0
M  V30 41 H 0.67428 2.09559 2.38395 0
M  V30 42 H -0.0651656 0.534372 2.05814 0
M  V30 43 H 2.43226 0.601281 2.19491 0
M  V30 44 H 1.84115 -0.216757 0.728054 0
M  V30 45 H 2.51719 1.95442 -1.7204 0
M  V30 46 H 0.0125916 2.31562 -1.65362 0
M  V30 47 H 0.497511 0.662659 -1.26789 0
M  V30 48 H 1.78788 3.91944 -1.81964 0
M  V30 49 H 2.99852 3.6938 0.800176 0
M  V30 50 H 4.54795 1.39387 1.30777 0
M  V30 51 H 4.58174 2.39373 -0.146754 0
M  V30 52 H 4.51553 0.893075 -2.50222 0
M  V30 53 H 4.74443 -3.08115 2.65221 0
M  V30 54 H 6.36609 -4.30431 -2.02089 0
M  V30 55 H 4.62422 -4.62393 -2.15244 0
M  V30 56 H -1.9127 3.62558 0.781787 0
M  V30 57 H -2.9028 3.04692 -0.552913 0
M  V30 58 H -3.21008 2.47706 1.18418 0
M  V30 END ATOM
M  V30 BEGIN BOND
M  V30 1 1 1 2
M  V30 2 1 2 3
M  V30 3 2 3 4
M  V30 4 1 4 5
M  V30 5 2 5 6
M  V30 6 1 6 7
M  V30 7 2 7 8
M  V30 8 1 6 9
M  V30 9 2 9 10
M  V30 10 1 9 11
M  V30 11 1 11 12
M  V30 12 1 12 13
M  V30 13 1 13 14
M  V30 14 1 14 15
M  V30 15 1 15 16
M  V30 16 1 16 17
M  V30 17 1 16 18
M  V30 18 1 15 19 CFG=1
M  V30 19 1 15 20
M  V30 20 1 20 21
M  V30 21 1 21 22
M  V30 22 2 22 23
M  V30 23 1 23 24
M  V30 24 2 24 25
M  V30 25 1 25 26
M  V30 26 2 26 27
M  V30 27 1 27 28
M  V30 28 2 28 29
M  V30 29 1 29 30
M  V30 30 1 11 31
M  V30 31 1 8 3
M  V30 32 1 17 12
M  V30 33 1 25 21
M  V30 34 1 29 24
M  V30 35 1 1 32
M  V30 36 1 1 33
M  V30 37 1 2 34
M  V30 38 1 2 35
M  V30 39 1 4 36
M  V30 40 1 5 37
M  V30 41 1 7 38
M  V30 42 1 8 39
M  V30 43 1 12 40 CFG=1
M  V30 44 1 13 41
M  V30 45 1 13 42
M  V30 46 1 14 43
M  V30 47 1 14 44
M  V30 48 1 16 45 CFG=3
M  V30 49 1 17 46
M  V30 50 1 17 47
M  V30 51 1 18 48
M  V30 52 1 19 49
M  V30 53 1 20 50
M  V30 54 1 20 51
M  V30 55 1 22 52
M  V30 56 1 27 53
M  V30 57 1 30 54
M  V30 58 1 30 55
M  V30 59 1 31 56
M  V30 60 1 31 57
M  V30 61 1 31 58
M  V30 END BOND
M  V30 END CTAB
M  END
