
     RDKit          3D

  0  0  0  0  0  0  0  0  0  0999 V3000
M  V30 BEGIN CTAB
M  V30 COUNTS 30 31 0 0 0
M  V30 BEGIN ATOM
M  V30 1 N -4.24024 0.592464 -1.22644 0
M  V30 2 C -3.07851 -0.00665242 -0.665683 0
M  V30 3 C -2.79993 -1.34486 -0.820926 0
M  V30 4 C -1.67044 -1.91209 -0.272032 0
M  V30 5 N -0.834683 -1.12749 0.426202 0
M  V30 6 C -1.0293 0.195043 0.628667 0
M  V30 7 C -2.16306 0.744301 0.0728241 0
M  V30 8 N -2.41885 2.13269 0.25414 0
M  V30 9 N -0.150511 1.00466 1.36028 0
M  V30 10 C 1.06722 0.570895 1.99403 0
M  V30 11 C 2.05524 0.0180737 1.06498 0
M  V30 12 C 2.33159 -1.32479 0.989487 0
M  V30 13 C 3.26262 -1.81817 0.104664 0
M  V30 14 C 3.94266 -0.949861 -0.733604 0
M  V30 15 C 3.68718 0.402023 -0.68087 0
M  V30 16 C 2.76252 0.859965 0.202799 0
M  V30 17 H -5.1418 0.44762 -0.725523 0
M  V30 18 H -4.1961 1.15414 -2.10232 0
M  V30 19 H -3.481 -1.966 -1.3855 0
M  V30 20 H -1.48842 -2.97614 -0.419467 0
M  V30 21 H -2.62497 2.68391 -0.610103 0
M  V30 22 H -2.41249 2.61509 1.1698 0
M  V30 23 H -0.394916 2.03402 1.46322 0
M  V30 24 H 0.773461 -0.208105 2.74326 0
M  V30 25 H 1.55641 1.38124 2.56884 0
M  V30 26 H 1.79466 -2.00962 1.65563 0
M  V30 27 H 3.46046 -2.89054 0.0678144 0
M  V30 28 H 4.67937 -1.30276 -1.4396 0
M  V30 29 H 4.21063 1.08366 -1.3281 0
M  V30 30 H 2.54119 1.91731 0.266252 0
M  V30 END ATOM
M  V30 BEGIN BOND
M  V30 1 1 1 2
M  V30 2 2 2 3
M  V30 3 1 3 4
M  V30 4 2 4 5
M  V30 5 1 5 6
M  V30 6 2 6 7
M  V30 7 1 7 8
M  V30 8 1 6 9
M  V30 9 1 9 10
M  V30 10 1 10 11
M  V30 11 2 11 12
M  V30 12 1 12 13
M  V30 13 2 13 14
M  V30 14 1 14 15
M  V30 15 2 15 16
M  V30 16 1 7 2
M  V30 17 1 16 11
M  V30 18 1 1 17
M  V30 19 1 1 18
M  V30 20 1 3 19
M  V30 21 1 4 20
M  V30 22 1 8 21
M  V30 23 1 8 22
M  V30 24 1 9 23
M  V30 25 1 10 24
M  V30 26 1 10 25
M  V30 27 1 12 26
M  V30 28 1 13 27
M  V30 29 1 14 28
M  V30 30 1 15 29
M  V30 31 1 16 30
M  V30 END BOND
M  V30 END CTAB
M  END
