
     RDKit          3D

  0  0  0  0  0  0  0  0  0  0999 V3000
M  V30 BEGIN CTAB
M  V30 COUNTS 36 36 0 0 0
M  V30 BEGIN ATOM
M  V30 1 N -5.03519 1.23341 1.26943 0
M  V30 2 C -4.06804 1.32698 0.216563 0
M  V30 3 C -3.85686 -0.0187239 -0.461445 0
M  V30 4 S -2.60933 0.28764 -1.75726 0
M  V30 5 C -1.04899 0.661564 -0.925467 0
M  V30 6 C -0.52286 -0.587535 -0.332718 0
M  V30 7 C 0.659093 -0.506246 0.404668 0
M  V30 8 C 1.24156 0.831662 0.606873 0
M  V30 9 S 2.78836 0.699727 1.51116 0
M  V30 10 C 4.14806 -0.0127469 0.614915 0
M  V30 11 C 4.6545 0.884037 -0.492851 0
M  V30 12 N 3.61169 1.12549 -1.43368 0
M  V30 13 C 1.21707 -1.6307 0.947705 0
M  V30 14 C 0.595663 -2.84969 0.756551 0
M  V30 15 C -0.568163 -2.96516 0.0367061 0
M  V30 16 C -1.11491 -1.80719 -0.504983 0
M  V30 17 H -5.55532 2.13478 1.41401 0
M  V30 18 H -5.67406 0.421726 1.18424 0
M  V30 19 H -4.38354 2.05307 -0.575975 0
M  V30 20 H -3.11585 1.70146 0.626948 0
M  V30 21 H -4.8014 -0.387353 -0.88357 0
M  V30 22 H -3.42219 -0.688254 0.283357 0
M  V30 23 H -1.18582 1.45726 -0.14788 0
M  V30 24 H -0.37859 1.09693 -1.69663 0
M  V30 25 H 1.37893 1.37139 -0.341422 0
M  V30 26 H 0.568856 1.47197 1.2456 0
M  V30 27 H 3.92017 -1.03347 0.183974 0
M  V30 28 H 5.01919 -0.172234 1.31171 0
M  V30 29 H 4.95909 1.86072 -0.0389986 0
M  V30 30 H 5.57695 0.464245 -0.961301 0
M  V30 31 H 3.62491 0.57398 -2.29717 0
M  V30 32 H 3.3332 2.12326 -1.52363 0
M  V30 33 H 2.12198 -1.57422 1.52953 0
M  V30 34 H 1.03847 -3.73417 1.18553 0
M  V30 35 H -1.08256 -3.90378 -0.132748 0
M  V30 36 H -2.0341 -1.90983 -1.09448 0
M  V30 END ATOM
M  V30 BEGIN BOND
M  V30 1 1 1 2
M  V30 2 1 2 3
M  V30 3 1 3 4
M  V30 4 1 4 5
M  V30 5 1 5 6
M  V30 6 2 6 7
M  V30 7 1 7 8
M  V30 8 1 8 9
M  V30 9 1 9 10
M  V30 10 1 10 11
M  V30 11 1 11 12
M  V30 12 1 7 13
M  V30 13 2 13 14
M  V30 14 1 14 15
M  V30 15 2 15 16
M  V30 16 1 16 6
M  V30 17 1 1 17
M  V30 18 1 1 18
M  V30 19 1 2 19
M  V30 20 1 2 20
M  V30 21 1 3 21
M  V30 22 1 3 22
M  V30 23 1 5 23
M  V30 24 1 5 24
M  V30 25 1 8 25
M  V30 26 1 8 26
M  V30 27 1 10 27
M  V30 28 1 10 28
M  V30 29 1 11 29
M  V30 30 1 11 30
M  V30 31 1 12 31
M  V30 32 1 12 32
M  V30 33 1 13 33
M  V30 34 1 14 34
M  V30 35 1 15 35
M  V30 36 1 16 36
M  V30 END BOND
M  V30 END CTAB
M  END
