
     RDKit          3D

  0  0  0  0  0  0  0  0  0  0999 V3000
M  V30 BEGIN CTAB
M  V30 COUNTS 19 19 0 0 0
M  V30 BEGIN ATOM
M  V30 1 N 2.2693 0.602823 -0.113692 0
M  V30 2 C 1.72894 -0.494504 0.599228 0
M  V30 3 C 0.220726 -0.572453 0.493851 0 CFG=2
M  V30 4 C -0.300603 -0.723128 -0.910307 0
M  V30 5 C -1.23622 0.437551 -0.634659 0 CFG=2
M  V30 6 C -0.507457 0.724873 0.680992 0
M  V30 7 N -2.59008 -0.0120167 -0.391284 0
M  V30 8 H 1.68683 1.10623 -0.694499 0
M  V30 9 H 3.20234 0.498842 -0.349021 0
M  V30 10 H 2.12031 -1.45825 0.17886 0
M  V30 11 H 1.97955 -0.378124 1.67684 0
M  V30 12 H -0.139383 -1.39774 1.15123 0
M  V30 13 H -0.814423 -1.66537 -1.12004 0
M  V30 14 H 0.457016 -0.498072 -1.70066 0
M  V30 15 H -1.18077 1.26021 -1.36152 0
M  V30 16 H 0.0862616 1.64067 0.683015 0
M  V30 17 H -1.21429 0.744537 1.55848 0
M  V30 18 H -2.56093 -0.629477 0.468225 0
M  V30 19 H -3.20714 0.813409 -0.21504 0
M  V30 END ATOM
M  V30 BEGIN BOND
M  V30 1 1 1 2
M  V30 2 1 2 3
M  V30 3 1 3 4
M  V30 4 1 4 5
M  V30 5 1 5 6
M  V30 6 1 5 7
M  V30 7 1 6 3
M  V30 8 1 1 8
M  V30 9 1 1 9
M  V30 10 1 2 10
M  V30 11 1 2 11
M  V30 12 1 3 12 CFG=1
M  V30 13 1 4 13
M  V30 14 1 4 14
M  V30 15 1 5 15 CFG=3
M  V30 16 1 6 16
M  V30 17 1 6 17
M  V30 18 1 7 18
M  V30 19 1 7 19
M  V30 END BOND
M  V30 END CTAB
M  END
