
     RDKit          3D

  0  0  0  0  0  0  0  0  0  0999 V3000
M  V30 BEGIN CTAB
M  V30 COUNTS 52 55 0 0 0
M  V30 BEGIN ATOM
M  V30 1 C -1.63817 -4.48407 0.494035 0
M  V30 2 O -1.84216 -3.20642 -0.106498 0
M  V30 3 C -0.899811 -2.15811 0.0944183 0
M  V30 4 O 0.0419762 -2.46685 0.797563 0
M  V30 5 C -1.1933 -0.858342 -0.573006 0
M  V30 6 C -0.431383 0.196992 -0.491831 0
M  V30 7 C 0.813003 0.132152 0.330083 0
M  V30 8 S 2.22847 0.295672 -0.822095 0
M  V30 9 C 3.74812 0.226704 0.0915806 0
M  V30 10 N 3.77914 0.0764003 1.41995 0
M  V30 11 C 4.93682 0.02607 2.09639 0
M  V30 12 N 4.95444 -0.133582 3.50434 0
M  V30 13 C 6.13449 0.131059 1.41471 0
M  V30 14 C 6.09633 0.286423 0.0403957 0
M  V30 15 N 4.91172 0.328762 -0.571191 0
M  V30 16 N 7.3351 0.391796 -0.63665 0
M  V30 17 N -0.664026 1.41365 -1.25181 0
M  V30 18 C -1.77404 1.40654 -2.12904 0
M  V30 19 O -2.05733 2.43647 -2.83545 0
M  V30 20 N -2.57244 0.248061 -2.2224 0
M  V30 21 C -2.52259 -0.790655 -1.28903 0
M  V30 22 C -3.65497 -0.724557 -0.307588 0
M  V30 23 C -3.78387 0.385087 0.498334 0
M  V30 24 C -4.86367 0.418568 1.37362 0
M  V30 25 C -5.797 -0.589954 1.47198 0
M  V30 26 C -5.60537 -1.66847 0.635664 0
M  V30 27 C -4.55453 -1.75894 -0.253333 0
M  V30 28 C 0.166174 2.55571 -1.07607 0
M  V30 29 C -0.55879 3.87971 -0.968281 0
M  V30 30 C 0.377512 3.5914 -2.09563 0
M  V30 31 H -2.58788 -4.88016 0.909599 0
M  V30 32 H -0.929407 -4.41027 1.34898 0
M  V30 33 H -1.18591 -5.19717 -0.242701 0
M  V30 34 H 0.943427 -0.678923 1.00692 0
M  V30 35 H 0.87488 1.05543 0.989555 0
M  V30 36 H 5.7716 0.13675 4.09421 0
M  V30 37 H 4.12925 -0.533386 3.97786 0
M  V30 38 H 7.08703 0.0952429 1.92204 0
M  V30 39 H 8.08945 -0.276189 -0.420355 0
M  V30 40 H 7.47657 1.14048 -1.34641 0
M  V30 41 H -3.22158 0.236857 -3.07783 0
M  V30 42 H -2.63491 -1.79918 -1.80581 0
M  V30 43 H -3.07773 1.23187 0.476702 0
M  V30 44 H -4.97865 1.29455 2.02032 0
M  V30 45 H -6.63395 -0.536476 2.16825 0
M  V30 46 H -6.33639 -2.48085 0.698416 0
M  V30 47 H -4.48012 -2.65294 -0.900882 0
M  V30 48 H 0.99683 2.43405 -0.354464 0
M  V30 49 H -0.18983 4.5509 -0.127123 0
M  V30 50 H -1.63511 3.95782 -1.06335 0
M  V30 51 H 0.0693228 3.53975 -3.14196 0
M  V30 52 H 1.34326 4.18456 -2.02776 0
M  V30 END ATOM
M  V30 BEGIN BOND
M  V30 1 1 1 2
M  V30 2 1 2 3
M  V30 3 2 3 4
M  V30 4 1 3 5
M  V30 5 2 5 6
M  V30 6 1 6 7
M  V30 7 1 7 8
M  V30 8 1 8 9
M  V30 9 2 9 10
M  V30 10 1 10 11
M  V30 11 1 11 12
M  V30 12 2 11 13
M  V30 13 1 13 14
M  V30 14 2 14 15
M  V30 15 1 14 16
M  V30 16 1 6 17
M  V30 17 1 17 18
M  V30 18 2 18 19
M  V30 19 1 18 20
M  V30 20 1 20 21
M  V30 21 1 21 22
M  V30 22 2 22 23
M  V30 23 1 23 24
M  V30 24 2 24 25
M  V30 25 1 25 26
M  V30 26 2 26 27
M  V30 27 1 17 28
M  V30 28 1 28 29
M  V30 29 1 29 30
M  V30 30 1 21 5
M  V30 31 1 27 22
M  V30 32 1 30 28
M  V30 33 1 15 9
M  V30 34 1 1 31
M  V30 35 1 1 32
M  V30 36 1 1 33
M  V30 37 1 7 34
M  V30 38 1 7 35
M  V30 39 1 12 36
M  V30 40 1 12 37
M  V30 41 1 13 38
M  V30 42 1 16 39
M  V30 43 1 16 40
M  V30 44 1 20 41
M  V30 45 1 21 42
M  V30 46 1 23 43
M  V30 47 1 24 44
M  V30 48 1 25 45
M  V30 49 1 26 46
M  V30 50 1 27 47
M  V30 51 1 28 48
M  V30 52 1 29 49
M  V30 53 1 29 50
M  V30 54 1 30 51
M  V30 55 1 30 52
M  V30 END BOND
M  V30 END CTAB
M  END
