
     RDKit          3D

  0  0  0  0  0  0  0  0  0  0999 V3000
M  V30 BEGIN CTAB
M  V30 COUNTS 47 49 0 0 0
M  V30 BEGIN ATOM
M  V30 1 C -2.21049 2.40081 3.11895 0
M  V30 2 C -1.75362 2.28014 1.69336 0
M  V30 3 C -1.19657 0.881437 1.39564 0
M  V30 4 N -0.787977 0.808589 0.0126358 0
M  V30 5 C -1.73056 0.823955 -1.06233 0
M  V30 6 C -2.71182 -0.295054 -1.0048 0
M  V30 7 C -2.45838 -1.51342 -1.59295 0
M  V30 8 C -3.40037 -2.50647 -1.50572 0
M  V30 9 Cl -3.13704 -4.09167 -2.23744 0
M  V30 10 C -4.57577 -2.25533 -0.830474 0
M  V30 11 Cl -5.78576 -3.53786 -0.72229 0
M  V30 12 C -4.8488 -1.03588 -0.232643 0
M  V30 13 C -3.88578 -0.049789 -0.332985 0
M  V30 14 C 0.618071 0.76808 -0.314702 0
M  V30 15 C 1.36489 -0.338926 1.11177e-05 0
M  V30 16 C 0.797018 -1.55724 0.614136 0
M  V30 17 C 2.73165 -0.25962 -0.326867 0
M  V30 18 C 3.28006 0.862261 -0.927872 0
M  V30 19 C 2.4662 1.93845 -1.21715 0
M  V30 20 C 1.1416 1.91778 -0.923091 0
M  V30 21 N 4.60845 0.941529 -1.24247 0
M  V30 22 C 5.41178 -0.0911523 -0.964083 0
M  V30 23 N 6.80967 0.0197358 -1.30291 0
M  V30 24 N 4.9107 -1.18024 -0.386265 0
M  V30 25 C 3.59457 -1.28943 -0.0618547 0
M  V30 26 N 3.13664 -2.46801 0.556871 0
M  V30 27 H -3.27356 2.76859 3.08165 0
M  V30 28 H -1.59376 3.1491 3.68958 0
M  V30 29 H -2.16404 1.4007 3.6095 0
M  V30 30 H -0.942283 3.01869 1.49274 0
M  V30 31 H -2.55228 2.505 0.964673 0
M  V30 32 H -1.97951 0.111229 1.60831 0
M  V30 33 H -0.356963 0.646556 2.07501 0
M  V30 34 H -1.22522 0.73145 -2.04171 0
M  V30 35 H -2.30375 1.78142 -1.12382 0
M  V30 36 H -1.51889 -1.67965 -2.12012 0
M  V30 37 H -5.77575 -0.830331 0.301804 0
M  V30 38 H -4.09468 0.898201 0.126578 0
M  V30 39 H 0.731205 -2.44182 -0.053008 0
M  V30 40 H -0.32597 -1.33259 0.666646 0
M  V30 41 H 0.984136 -1.71887 1.66889 0
M  V30 42 H 2.92221 2.8068 -1.69011 0
M  V30 43 H 0.470319 2.74838 -1.13569 0
M  V30 44 H 7.23792 -0.704519 -1.91202 0
M  V30 45 H 7.42077 0.792229 -0.967695 0
M  V30 46 H 2.85007 -3.27041 -0.0282405 0
M  V30 47 H 3.10167 -2.55287 1.58433 0
M  V30 END ATOM
M  V30 BEGIN BOND
M  V30 1 1 1 2
M  V30 2 1 2 3
M  V30 3 1 3 4
M  V30 4 1 4 5
M  V30 5 1 5 6
M  V30 6 2 6 7
M  V30 7 1 7 8
M  V30 8 1 8 9
M  V30 9 2 8 10
M  V30 10 1 10 11
M  V30 11 1 10 12
M  V30 12 2 12 13
M  V30 13 1 4 14
M  V30 14 2 14 15
M  V30 15 1 15 16
M  V30 16 1 15 17
M  V30 17 2 17 18
M  V30 18 1 18 19
M  V30 19 2 19 20
M  V30 20 1 18 21
M  V30 21 2 21 22
M  V30 22 1 22 23
M  V30 23 1 22 24
M  V30 24 2 24 25
M  V30 25 1 25 26
M  V30 26 1 13 6
M  V30 27 1 20 14
M  V30 28 1 25 17
M  V30 29 1 1 27
M  V30 30 1 1 28
M  V30 31 1 1 29
M  V30 32 1 2 30
M  V30 33 1 2 31
M  V30 34 1 3 32
M  V30 35 1 3 33
M  V30 36 1 5 34
M  V30 37 1 5 35
M  V30 38 1 7 36
M  V30 39 1 12 37
M  V30 40 1 13 38
M  V30 41 1 16 39
M  V30 42 1 16 40
M  V30 43 1 16 41
M  V30 44 1 19 42
M  V30 45 1 20 43
M  V30 46 1 23 44
M  V30 47 1 23 45
M  V30 48 1 26 46
M  V30 49 1 26 47
M  V30 END BOND
M  V30 END CTAB
M  END
