
     RDKit          3D

  0  0  0  0  0  0  0  0  0  0999 V3000
M  V30 BEGIN CTAB
M  V30 COUNTS 22 22 0 0 0
M  V30 BEGIN ATOM
M  V30 1 N 3.23079 0.652667 0.566767 0
M  V30 2 C 2.11138 -0.292818 0.465409 0
M  V30 3 C 1.10964 0.347883 -0.478355 0
M  V30 4 C -0.105287 -0.494318 -0.693891 0
M  V30 5 C -0.928906 -0.831561 0.503832 0
M  V30 6 C -2.15673 -0.337309 -0.268076 0
M  V30 7 C -1.23891 0.369174 -1.24131 0
M  V30 8 N -3.01332 0.506324 0.508638 0
M  V30 9 H 3.02184 1.45103 1.1748 0
M  V30 10 H 4.04761 0.145769 0.98532 0
M  V30 11 H 1.69594 -0.543846 1.43659 0
M  V30 12 H 2.53481 -1.17959 -0.0821903 0
M  V30 13 H 1.63282 0.411318 -1.46648 0
M  V30 14 H 0.86179 1.38395 -0.176839 0
M  V30 15 H 0.106627 -1.39393 -1.29531 0
M  V30 16 H -1.0669 -1.91345 0.722869 0
M  V30 17 H -0.765676 -0.264189 1.41474 0
M  V30 18 H -2.69641 -1.16761 -0.797385 0
M  V30 19 H -1.3925 0.125208 -2.30715 0
M  V30 20 H -1.17472 1.43361 -1.00738 0
M  V30 21 H -2.70827 1.48639 0.565918 0
M  V30 22 H -3.10564 0.105295 1.46948 0
M  V30 END ATOM
M  V30 BEGIN BOND
M  V30 1 1 1 2
M  V30 2 1 2 3
M  V30 3 1 3 4
M  V30 4 1 4 5
M  V30 5 1 5 6
M  V30 6 1 6 7
M  V30 7 1 6 8
M  V30 8 1 7 4
M  V30 9 1 1 9
M  V30 10 1 1 10
M  V30 11 1 2 11
M  V30 12 1 2 12
M  V30 13 1 3 13
M  V30 14 1 3 14
M  V30 15 1 4 15
M  V30 16 1 5 16
M  V30 17 1 5 17
M  V30 18 1 6 18
M  V30 19 1 7 19
M  V30 20 1 7 20
M  V30 21 1 8 21
M  V30 22 1 8 22
M  V30 END BOND
M  V30 END CTAB
M  END
