
     RDKit          3D

  0  0  0  0  0  0  0  0  0  0999 V3000
M  V30 BEGIN CTAB
M  V30 COUNTS 34 35 0 0 0
M  V30 BEGIN ATOM
M  V30 1 N -5.27196 0.601266 -0.270595 0
M  V30 2 C -4.48494 -0.36478 0.454529 0
M  V30 3 C -3.04233 -0.10746 0.211253 0
M  V30 4 C -2.0968 -0.907096 0.802516 0
M  V30 5 C -0.745461 -0.659884 0.569836 0
M  V30 6 C -0.328773 0.372061 -0.242888 0
M  V30 7 C -1.29372 1.1631 -0.826903 0
M  V30 8 C -2.6366 0.927529 -0.603499 0
M  V30 9 C 1.10346 0.584113 -0.450753 0
M  V30 10 C 1.76954 0.981048 0.855187 0
M  V30 11 N 3.14615 1.29647 0.637352 0
M  V30 12 C 3.90618 0.286367 -0.0169328 0
M  V30 13 C 3.1247 -0.901882 -0.470461 0
M  V30 14 C 1.80748 -0.576919 -1.09513 0
M  V30 15 N 2.90986 -1.87712 0.57022 0
M  V30 16 H -5.78685 1.26251 0.318881 0
M  V30 17 H -5.83209 0.172569 -1.03723 0
M  V30 18 H -4.72895 -0.35171 1.54072 0
M  V30 19 H -4.68279 -1.4166 0.116441 0
M  V30 20 H -2.44286 -1.71196 1.43705 0
M  V30 21 H -0.0477713 -1.30327 1.04743 0
M  V30 22 H -1.03363 1.97664 -1.46554 0
M  V30 23 H -3.38328 1.55757 -1.06932 0
M  V30 24 H 1.22295 1.46414 -1.13664 0
M  V30 25 H 1.26451 1.8832 1.24554 0
M  V30 26 H 1.67849 0.199561 1.624 0
M  V30 27 H 3.2933 2.25826 0.311397 0
M  V30 28 H 4.68657 -0.0831314 0.707031 0
M  V30 29 H 4.43284 0.735912 -0.881641 0
M  V30 30 H 3.74574 -1.4182 -1.2587 0
M  V30 31 H 1.96641 -0.388146 -2.18542 0
M  V30 32 H 1.19211 -1.51382 -1.05285 0
M  V30 33 H 3.06708 -2.86396 0.244415 0
M  V30 34 H 3.52143 -1.68666 1.3707 0
M  V30 END ATOM
M  V30 BEGIN BOND
M  V30 1 1 1 2
M  V30 2 1 2 3
M  V30 3 2 3 4
M  V30 4 1 4 5
M  V30 5 2 5 6
M  V30 6 1 6 7
M  V30 7 2 7 8
M  V30 8 1 6 9
M  V30 9 1 9 10
M  V30 10 1 10 11
M  V30 11 1 11 12
M  V30 12 1 12 13
M  V30 13 1 13 14
M  V30 14 1 13 15
M  V30 15 1 8 3
M  V30 16 1 14 9
M  V30 17 1 1 16
M  V30 18 1 1 17
M  V30 19 1 2 18
M  V30 20 1 2 19
M  V30 21 1 4 20
M  V30 22 1 5 21
M  V30 23 1 7 22
M  V30 24 1 8 23
M  V30 25 1 9 24
M  V30 26 1 10 25
M  V30 27 1 10 26
M  V30 28 1 11 27
M  V30 29 1 12 28
M  V30 30 1 12 29
M  V30 31 1 13 30
M  V30 32 1 14 31
M  V30 33 1 14 32
M  V30 34 1 15 33
M  V30 35 1 15 34
M  V30 END BOND
M  V30 END CTAB
M  END
