
     RDKit          3D

  0  0  0  0  0  0  0  0  0  0999 V3000
M  V30 BEGIN CTAB
M  V30 COUNTS 31 33 0 0 0
M  V30 BEGIN ATOM
M  V30 1 N -5.61275 1.47956 -0.610291 0
M  V30 2 C -4.40717 0.903296 -0.076024 0
M  V30 3 C -4.26267 -0.458383 0.0480813 0
M  V30 4 C -3.07662 -0.953159 0.571149 0
M  V30 5 N -2.86679 -2.36051 0.724285 0
M  V30 6 N -2.10718 -0.107334 0.94074 0
M  V30 7 C -2.26261 1.21108 0.814021 0
M  V30 8 N -3.40233 1.68735 0.311297 0
M  V30 9 S -0.975124 2.32855 1.30752 0
M  V30 10 C 0.155114 2.65885 -0.0406393 0
M  V30 11 C 0.936035 1.46662 -0.446973 0
M  V30 12 N 0.673588 0.516026 -1.35797 0
M  V30 13 O 1.64121 -0.349979 -1.38601 0
M  V30 14 C 2.58532 -0.0541507 -0.529502 0
M  V30 15 C 2.17233 1.10764 0.0962806 0
M  V30 16 C 3.82964 -0.779924 -0.264887 0
M  V30 17 C 4.21986 -1.93318 -0.901804 0
M  V30 18 C 5.43668 -2.29439 -0.371727 0
M  V30 19 C 5.75425 -1.3519 0.572861 0
M  V30 20 O 4.77387 -0.49068 0.58943 0
M  V30 21 H -6.07597 2.24675 -0.0717159 0
M  V30 22 H -6.04223 1.17779 -1.49173 0
M  V30 23 H -5.06182 -1.12723 -0.258119 0
M  V30 24 H -2.84807 -2.9933 -0.0923521 0
M  V30 25 H -2.73614 -2.69934 1.70253 0
M  V30 26 H 0.827098 3.49934 0.258125 0
M  V30 27 H -0.432874 3.04091 -0.911876 0
M  V30 28 H 2.7357 1.6208 0.867963 0
M  V30 29 H 3.70811 -2.49713 -1.68124 0
M  V30 30 H 6.05294 -3.15386 -0.629618 0
M  V30 31 H 6.66861 -1.34012 1.1916 0
M  V30 END ATOM
M  V30 BEGIN BOND
M  V30 1 1 1 2
M  V30 2 2 2 3
M  V30 3 1 3 4
M  V30 4 1 4 5
M  V30 5 2 4 6
M  V30 6 1 6 7
M  V30 7 2 7 8
M  V30 8 1 7 9
M  V30 9 1 9 10
M  V30 10 1 10 11
M  V30 11 2 11 12
M  V30 12 1 12 13
M  V30 13 1 13 14
M  V30 14 2 14 15
M  V30 15 1 14 16
M  V30 16 2 16 17
M  V30 17 1 17 18
M  V30 18 2 18 19
M  V30 19 1 19 20
M  V30 20 1 8 2
M  V30 21 1 15 11
M  V30 22 1 20 16
M  V30 23 1 1 21
M  V30 24 1 1 22
M  V30 25 1 3 23
M  V30 26 1 5 24
M  V30 27 1 5 25
M  V30 28 1 10 26
M  V30 29 1 10 27
M  V30 30 1 15 28
M  V30 31 1 17 29
M  V30 32 1 18 30
M  V30 33 1 19 31
M  V30 END BOND
M  V30 END CTAB
M  END
