
     RDKit          3D

  0  0  0  0  0  0  0  0  0  0999 V3000
M  V30 BEGIN CTAB
M  V30 COUNTS 43 43 0 0 0
M  V30 BEGIN ATOM
M  V30 1 C 5.13088 3.10156 -1.096 0
M  V30 2 O 4.75315 2.05826 -0.227548 0
M  V30 3 C 3.64174 1.26898 -0.385798 0
M  V30 4 C 2.72766 1.36006 -1.39795 0
M  V30 5 C 1.62871 0.523352 -1.48797 0
M  V30 6 C 1.40594 -0.461129 -0.535549 0
M  V30 7 C 0.243828 -1.36998 -0.642966 0
M  V30 8 N -1.01191 -0.890688 -0.323877 0
M  V30 9 C -2.11933 -1.76709 -0.435583 0
M  V30 10 C -2.15242 -2.89864 0.54884 0
M  V30 11 C -3.38286 -3.72653 0.296019 0
M  V30 12 N -3.469 -4.85332 1.23352 0
M  V30 13 C -1.40032 0.431577 -0.24814 0
M  V30 14 C -0.946761 1.33309 0.825073 0
M  V30 15 C -1.60467 2.70305 0.552428 0
M  V30 16 N -1.22293 3.66967 1.55273 0
M  V30 17 C 2.34405 -0.556687 0.505439 0
M  V30 18 C 3.42775 0.281461 0.578433 0
M  V30 19 H 6.20195 3.3743 -0.953805 0
M  V30 20 H 4.88343 2.9502 -2.14484 0
M  V30 21 H 4.55785 4.017 -0.764101 0
M  V30 22 H 2.90823 2.13504 -2.1426 0
M  V30 23 H 0.962908 0.674067 -2.32582 0
M  V30 24 H 0.521561 -2.244 0.0371938 0
M  V30 25 H 0.281836 -1.91473 -1.65674 0
M  V30 26 H -2.11713 -2.16752 -1.49551 0
M  V30 27 H -3.05691 -1.16925 -0.392209 0
M  V30 28 H -2.303 -2.425 1.56514 0
M  V30 29 H -1.23298 -3.47202 0.615087 0
M  V30 30 H -3.46345 -4.13369 -0.710257 0
M  V30 31 H -4.26467 -3.04626 0.45912 0
M  V30 32 H -3.95959 -4.48212 2.06802 0
M  V30 33 H -2.48251 -5.08751 1.49695 0
M  V30 34 H -2.54246 0.461689 -0.277354 0
M  V30 35 H -1.17293 0.917097 -1.26882 0
M  V30 36 H 0.0941351 1.4367 1.05239 0
M  V30 37 H -1.4363 1.00996 1.79571 0
M  V30 38 H -1.4226 3.02372 -0.480039 0
M  V30 39 H -2.69784 2.50329 0.65438 0
M  V30 40 H -0.52731 4.32278 1.07989 0
M  V30 41 H -2.07168 4.24256 1.80194 0
M  V30 42 H 2.20733 -1.31558 1.27467 0
M  V30 43 H 4.13861 0.182265 1.40052 0
M  V30 END ATOM
M  V30 BEGIN BOND
M  V30 1 1 1 2
M  V30 2 1 2 3
M  V30 3 2 3 4
M  V30 4 1 4 5
M  V30 5 2 5 6
M  V30 6 1 6 7
M  V30 7 1 7 8
M  V30 8 1 8 9
M  V30 9 1 9 10
M  V30 10 1 10 11
M  V30 11 1 11 12
M  V30 12 1 8 13
M  V30 13 1 13 14
M  V30 14 1 14 15
M  V30 15 1 15 16
M  V30 16 1 6 17
M  V30 17 2 17 18
M  V30 18 1 18 3
M  V30 19 1 1 19
M  V30 20 1 1 20
M  V30 21 1 1 21
M  V30 22 1 4 22
M  V30 23 1 5 23
M  V30 24 1 7 24
M  V30 25 1 7 25
M  V30 26 1 9 26
M  V30 27 1 9 27
M  V30 28 1 10 28
M  V30 29 1 10 29
M  V30 30 1 11 30
M  V30 31 1 11 31
M  V30 32 1 12 32
M  V30 33 1 12 33
M  V30 34 1 13 34
M  V30 35 1 13 35
M  V30 36 1 14 36
M  V30 37 1 14 37
M  V30 38 1 15 38
M  V30 39 1 15 39
M  V30 40 1 16 40
M  V30 41 1 16 41
M  V30 42 1 17 42
M  V30 43 1 18 43
M  V30 END BOND
M  V30 END CTAB
M  END
