
     RDKit          3D

  0  0  0  0  0  0  0  0  0  0999 V3000
M  V30 BEGIN CTAB
M  V30 COUNTS 24 24 0 0 0
M  V30 BEGIN ATOM
M  V30 1 C -4.90728 -0.741315 -0.0807849 0
M  V30 2 C -3.54392 -0.603678 0.602514 0
M  V30 3 O -2.78834 0.27918 -0.203684 0
M  V30 4 C -1.49356 0.591446 0.178674 0
M  V30 5 O -1.05339 0.0686211 1.23274 0
M  V30 6 O -0.69575 1.45879 -0.57731 0
M  V30 7 N 0.58555 1.74909 -0.171411 0
M  V30 8 C 1.52008 0.870827 -0.257917 0
M  V30 9 C 2.89669 1.14925 0.166438 0
M  V30 10 N 3.39686 2.28276 0.682981 0
M  V30 11 O 4.67857 2.11401 0.927818 0
M  V30 12 N 5.0412 0.928395 0.597682 0
M  V30 13 C 3.9535 0.267727 0.107735 0
M  V30 14 N 3.91988 -1.07022 -0.369898 0
M  V30 15 N 1.16263 -0.39738 -0.787825 0
M  V30 16 H -5.71554 -0.844872 0.680806 0
M  V30 17 H -4.90065 -1.56981 -0.807991 0
M  V30 18 H -5.14926 0.209372 -0.63146 0
M  V30 19 H -3.69959 -0.23404 1.62648 0
M  V30 20 H -3.09836 -1.62644 0.608962 0
M  V30 21 H 3.5622 -1.3119 -1.31789 0
M  V30 22 H 4.26522 -1.8365 0.250122 0
M  V30 23 H 0.766821 -0.483639 -1.76546 0
M  V30 24 H 1.29646 -1.24968 -0.195925 0
M  V30 END ATOM
M  V30 BEGIN BOND
M  V30 1 1 1 2
M  V30 2 1 2 3
M  V30 3 1 3 4
M  V30 4 2 4 5
M  V30 5 1 4 6
M  V30 6 1 6 7
M  V30 7 2 7 8
M  V30 8 1 8 9
M  V30 9 2 9 10
M  V30 10 1 10 11
M  V30 11 1 11 12
M  V30 12 2 12 13
M  V30 13 1 13 14
M  V30 14 1 8 15
M  V30 15 1 13 9
M  V30 16 1 1 16
M  V30 17 1 1 17
M  V30 18 1 1 18
M  V30 19 1 2 19
M  V30 20 1 2 20
M  V30 21 1 14 21
M  V30 22 1 14 22
M  V30 23 1 15 23
M  V30 24 1 15 24
M  V30 END BOND
M  V30 END CTAB
M  END
