
     RDKit          3D

  0  0  0  0  0  0  0  0  0  0999 V3000
M  V30 BEGIN CTAB
M  V30 COUNTS 44 46 0 0 0
M  V30 BEGIN ATOM
M  V30 1 C 5.54619 -1.42973 -0.148621 0
M  V30 2 O 4.2296 -1.12673 -0.530002 0
M  V30 3 C 3.30649 -0.532097 0.324186 0
M  V30 4 C 3.61705 -0.197315 1.60524 0
M  V30 5 C 2.63618 0.393844 2.39378 0
M  V30 6 C 1.38272 0.639954 1.90763 0
M  V30 7 C 1.06144 0.306356 0.619629 0
M  V30 8 C 2.04162 -0.281727 -0.160528 0
M  V30 9 C -0.217246 0.559781 0.000955815 0
M  V30 10 C -0.461809 1.76448 -0.639166 0
M  V30 11 C 0.65232 2.75473 -0.648021 0
M  V30 12 N 0.322055 3.96785 -1.32578 0
M  V30 13 C -1.65723 2.01766 -1.22371 0
M  V30 14 N -1.88221 3.28374 -1.88375 0
M  V30 15 N -2.62034 1.08937 -1.1834 0
M  V30 16 C -2.45857 -0.0830265 -0.590161 0
M  V30 17 C -1.22124 -0.366329 0.0246085 0
M  V30 18 C -1.11193 -1.58221 0.6211 0
M  V30 19 O -0.0381041 -1.90445 1.1909 0
M  V30 20 N -2.11858 -2.48543 0.636355 0
M  V30 21 C -1.90124 -3.75646 1.30027 0
M  V30 22 C -3.27979 -2.1759 0.0389808 0
M  V30 23 O -4.18288 -3.07174 0.0913006 0
M  V30 24 N -3.44488 -1.00663 -0.557735 0
M  V30 25 C -4.69731 -0.704718 -1.1873 0
M  V30 26 H 6.00719 -2.2082 -0.788137 0
M  V30 27 H 5.54619 -1.82219 0.900976 0
M  V30 28 H 6.12152 -0.484451 -0.120711 0
M  V30 29 H 4.61247 -0.388086 2.00373 0
M  V30 30 H 2.90211 0.660253 3.43156 0
M  V30 31 H 0.651236 1.09691 2.54278 0
M  V30 32 H 1.8289 -0.568264 -1.20542 0
M  V30 33 H 1.49442 2.2549 -1.20224 0
M  V30 34 H 1.04288 2.9104 0.384999 0
M  V30 35 H -0.0409558 4.7253 -0.714136 0
M  V30 36 H 1.08015 4.28736 -1.96588 0
M  V30 37 H -2.2642 4.1176 -1.39597 0
M  V30 38 H -1.65293 3.37009 -2.89417 0
M  V30 39 H -2.44392 -4.59004 0.787427 0
M  V30 40 H -2.3967 -3.66414 2.30625 0
M  V30 41 H -0.829658 -3.99512 1.37648 0
M  V30 42 H -4.81309 -1.19951 -2.19101 0
M  V30 43 H -5.57255 -0.958951 -0.54636 0
M  V30 44 H -4.77536 0.382874 -1.38692 0
M  V30 END ATOM
M  V30 BEGIN BOND
M  V30 1 1 1 2
M  V30 2 1 2 3
M  V30 3 2 3 4
M  V30 4 1 4 5
M  V30 5 2 5 6
M  V30 6 1 6 7
M  V30 7 2 7 8
M  V30 8 1 7 9
M  V30 9 2 9 10
M  V30 10 1 10 11
M  V30 11 1 11 12
M  V30 12 1 10 13
M  V30 13 1 13 14
M  V30 14 2 13 15
M  V30 15 1 15 16
M  V30 16 2 16 17
M  V30 17 1 17 18
M  V30 18 2 18 19
M  V30 19 1 18 20
M  V30 20 1 20 21
M  V30 21 1 20 22
M  V30 22 2 22 23
M  V30 23 1 22 24
M  V30 24 1 24 25
M  V30 25 1 8 3
M  V30 26 1 17 9
M  V30 27 1 24 16
M  V30 28 1 1 26
M  V30 29 1 1 27
M  V30 30 1 1 28
M  V30 31 1 4 29
M  V30 32 1 5 30
M  V30 33 1 6 31
M  V30 34 1 8 32
M  V30 35 1 11 33
M  V30 36 1 11 34
M  V30 37 1 12 35
M  V30 38 1 12 36
M  V30 39 1 14 37
M  V30 40 1 14 38
M  V30 41 1 21 39
M  V30 42 1 21 40
M  V30 43 1 21 41
M  V30 44 1 25 42
M  V30 45 1 25 43
M  V30 46 1 25 44
M  V30 END BOND
M  V30 END CTAB
M  END
