
     RDKit          3D

  0  0  0  0  0  0  0  0  0  0999 V3000
M  V30 BEGIN CTAB
M  V30 COUNTS 65 70 0 0 0
M  V30 BEGIN ATOM
M  V30 1 N -5.58272 0.195958 4.57914 0
M  V30 2 C -6.31315 0.00861386 3.38457 0
M  V30 3 N -5.68626 0.173821 2.20913 0
M  V30 4 C -6.34138 0.00595625 1.05287 0
M  V30 5 C -7.68433 -0.343056 1.12901 0
M  V30 6 N -8.13945 -0.458755 -0.13075 0
M  V30 7 C -7.09774 -0.186475 -0.964548 0
M  V30 8 N -6.00565 0.0957448 -0.231552 0
M  V30 9 C -4.68023 0.441006 -0.710532 0 CFG=1
M  V30 10 C -3.67586 -0.574442 -0.24307 0
M  V30 11 C -2.64987 -0.568027 -1.36788 0 CFG=2
M  V30 12 O -1.42608 -0.161694 -0.882014 0
M  V30 13 P -0.222444 -1.32958 -1.14596 0
M  V30 14 O -0.389939 -2.01127 -2.67277 0
M  V30 15 O -0.379949 -2.44561 -0.132529 0
M  V30 16 O 1.3189 -0.646673 -1.05225 0
M  V30 17 C 1.2561 0.600646 -0.392019 0
M  V30 18 C 2.61755 1.21003 -0.305991 0 CFG=1
M  V30 19 O 3.53176 0.447984 0.379328 0
M  V30 20 C 4.75415 0.790081 -0.145187 0 CFG=2
M  V30 21 C 4.47131 0.693654 -1.65074 0
M  V30 22 C 3.13374 1.42346 -1.70186 0 CFG=2
M  V30 23 O 3.41865 2.78621 -1.84499 0
M  V30 24 N 5.81195 -0.118733 0.236493 0
M  V30 25 C 6.07022 -1.32764 -0.252868 0
M  V30 26 N 7.15581 -1.82805 0.394013 0
M  V30 27 C 7.58987 -0.924182 1.30424 0
M  V30 28 C 6.7198 0.160697 1.18939 0
M  V30 29 N 6.95608 1.209 2.0132 0
M  V30 30 C 7.95883 1.2385 2.90094 0
M  V30 31 N 8.77856 0.182145 2.98894 0
M  V30 32 C 8.62115 -0.901341 2.21282 0
M  V30 33 N 9.50951 -1.98461 2.3445 0
M  V30 34 C -3.22233 0.418607 -2.34025 0 CFG=1
M  V30 35 C -2.93555 0.0728393 -3.78069 0
M  V30 36 O -3.41207 -1.22574 -4.01792 0
M  V30 37 O -4.58995 0.367267 -2.09116 0
M  V30 38 C -8.3033 -0.506265 2.33673 0
M  V30 39 O -9.52044 -0.822579 2.40379 0
M  V30 40 N -7.60568 -0.327325 3.47431 0
M  V30 41 H -5.39623 -0.591587 5.23008 0
M  V30 42 H -5.2135 1.14618 4.82867 0
M  V30 43 H -7.18747 -0.207637 -2.03307 0
M  V30 44 H -4.41306 1.46869 -0.359958 0
M  V30 45 H -4.14452 -1.56174 -0.200702 0
M  V30 46 H -3.17913 -0.270284 0.701764 0
M  V30 47 H -2.5944 -1.58984 -1.83806 0
M  V30 48 H 0.111758 -1.43472 -3.30875 0
M  V30 49 H 0.811661 0.418477 0.614154 0
M  V30 50 H 0.612763 1.31198 -0.971274 0
M  V30 51 H 2.5079 2.17846 0.251305 0
M  V30 52 H 4.97151 1.84185 0.0738416 0
M  V30 53 H 4.27854 -0.357407 -1.9532 0
M  V30 54 H 5.24523 1.19553 -2.23992 0
M  V30 55 H 2.47963 1.04426 -2.48785 0
M  V30 56 H 3.69186 3.1626 -0.957274 0
M  V30 57 H 5.49553 -1.80565 -1.0338 0
M  V30 58 H 8.07786 2.11106 3.51925 0
M  V30 59 H 9.68853 -2.39441 3.28043 0
M  V30 60 H 9.99633 -2.39078 1.52628 0
M  V30 61 H -2.89465 1.45633 -2.13199 0
M  V30 62 H -1.86301 0.12232 -3.97202 0
M  V30 63 H -3.49826 0.803707 -4.40177 0
M  V30 64 H -3.31973 -1.36322 -5.00881 0
M  V30 65 H -8.07469 -0.451014 4.3968 0
M  V30 END ATOM
M  V30 BEGIN BOND
M  V30 1 1 1 2
M  V30 2 2 2 3
M  V30 3 1 3 4
M  V30 4 2 4 5
M  V30 5 1 5 6
M  V30 6 2 6 7
M  V30 7 1 7 8
M  V30 8 1 8 9
M  V30 9 1 9 10
M  V30 10 1 10 11
M  V30 11 1 11 12
M  V30 12 1 12 13
M  V30 13 1 13 14
M  V30 14 2 13 15
M  V30 15 1 13 16
M  V30 16 1 16 17
M  V30 17 1 17 18
M  V30 18 1 18 19
M  V30 19 1 19 20
M  V30 20 1 20 21
M  V30 21 1 21 22
M  V30 22 1 22 23
M  V30 23 1 20 24
M  V30 24 1 24 25
M  V30 25 2 25 26
M  V30 26 1 26 27
M  V30 27 2 27 28
M  V30 28 1 28 29
M  V30 29 2 29 30
M  V30 30 1 30 31
M  V30 31 2 31 32
M  V30 32 1 32 33
M  V30 33 1 11 34
M  V30 34 1 34 35
M  V30 35 1 35 36
M  V30 36 1 34 37
M  V30 37 1 5 38
M  V30 38 2 38 39
M  V30 39 1 38 40
M  V30 40 1 40 2
M  V30 41 1 8 4
M  V30 42 1 37 9
M  V30 43 1 22 18
M  V30 44 1 28 24
M  V30 45 1 32 27
M  V30 46 1 1 41
M  V30 47 1 1 42
M  V30 48 1 7 43
M  V30 49 1 9 44 CFG=1
M  V30 50 1 10 45
M  V30 51 1 10 46
M  V30 52 1 11 47 CFG=3
M  V30 53 1 14 48
M  V30 54 1 17 49
M  V30 55 1 17 50
M  V30 56 1 18 51 CFG=1
M  V30 57 1 20 52 CFG=3
M  V30 58 1 21 53
M  V30 59 1 21 54
M  V30 60 1 22 55 CFG=3
M  V30 61 1 23 56
M  V30 62 1 25 57
M  V30 63 1 30 58
M  V30 64 1 33 59
M  V30 65 1 33 60
M  V30 66 1 34 61 CFG=1
M  V30 67 1 35 62
M  V30 68 1 35 63
M  V30 69 1 36 64
M  V30 70 1 40 65
M  V30 END BOND
M  V30 END CTAB
M  END
