
     RDKit          3D

  0  0  0  0  0  0  0  0  0  0999 V3000
M  V30 BEGIN CTAB
M  V30 COUNTS 51 55 0 0 0
M  V30 BEGIN ATOM
M  V30 1 N -4.77565 -2.76757 -1.84246 0
M  V30 2 C -5.18661 -1.48412 -1.37247 0
M  V30 3 N -6.47152 -1.12191 -1.42736 0
M  V30 4 C -6.84649 0.108632 -0.973645 0
M  V30 5 N -8.18996 0.52363 -1.0159 0
M  V30 6 C -5.91788 0.983171 -0.459458 0
M  V30 7 C -4.59924 0.559564 -0.424794 0
M  V30 8 N -4.25984 -0.653217 -0.876798 0
M  V30 9 N -3.89698 1.56443 0.107405 0
M  V30 10 C -4.77399 2.58452 0.392623 0
M  V30 11 N -6.01831 2.22147 0.0414402 0
M  V30 12 C -2.49159 1.65218 0.369369 0 CFG=1
M  V30 13 C -1.93603 0.469642 1.16104 0
M  V30 14 N -0.616657 0.31926 0.588963 0
M  V30 15 C -0.785919 0.501224 -0.818173 0
M  V30 16 C -1.74432 1.64843 -0.934336 0 CFG=2
M  V30 17 O -1.04044 2.86383 -1.11415 0
M  V30 18 C 0.561801 0.048659 1.31771 0
M  V30 19 O 0.540938 -0.0877509 2.58814 0
M  V30 20 C 1.89413 -0.094353 0.660877 0
M  V30 21 C 2.96477 -0.377556 1.6588 0
M  V30 22 C 4.30732 -0.526383 1.04115 0
M  V30 23 N 5.23899 0.411926 0.801829 0
M  V30 24 C 6.33135 -0.128262 0.22317 0
M  V30 25 C 6.06448 -1.47369 0.0960796 0
M  V30 26 N 4.83656 -1.68854 0.597173 0
M  V30 27 C 7.02663 -2.27604 -0.472903 0
M  V30 28 C 8.23569 -1.78667 -0.915762 0
M  V30 29 C 8.52288 -0.425559 -0.794759 0
M  V30 30 C 7.54383 0.35768 -0.221821 0
M  V30 31 H -5.35933 -3.28312 -2.52543 0
M  V30 32 H -3.89526 -3.20577 -1.51445 0
M  V30 33 H -8.68652 0.750815 -0.142791 0
M  V30 34 H -8.68074 0.601321 -1.92166 0
M  V30 35 H -4.54423 3.54174 0.829123 0
M  V30 36 H -2.2472 2.60389 0.940464 0
M  V30 37 H -2.487 -0.468934 0.977373 0
M  V30 38 H -1.90241 0.698872 2.24507 0
M  V30 39 H 0.176485 0.701276 -1.34835 0
M  V30 40 H -1.27401 -0.416242 -1.22082 0
M  V30 41 H -2.42392 1.5182 -1.80842 0
M  V30 42 H -0.171871 2.77151 -0.626516 0
M  V30 43 H 2.06573 0.872094 0.122524 0
M  V30 44 H 1.82893 -0.862713 -0.143439 0
M  V30 45 H 2.98573 0.502867 2.36477 0
M  V30 46 H 2.70063 -1.3064 2.20505 0
M  V30 47 H 4.33563 -2.61156 0.649792 0
M  V30 48 H 6.83501 -3.33108 -0.580448 0
M  V30 49 H 9.00106 -2.42006 -1.36749 0
M  V30 50 H 9.47344 -0.014717 -1.13819 0
M  V30 51 H 7.75191 1.4314 -0.118268 0
M  V30 END ATOM
M  V30 BEGIN BOND
M  V30 1 1 1 2
M  V30 2 2 2 3
M  V30 3 1 3 4
M  V30 4 1 4 5
M  V30 5 2 4 6
M  V30 6 1 6 7
M  V30 7 2 7 8
M  V30 8 1 7 9
M  V30 9 1 9 10
M  V30 10 2 10 11
M  V30 11 1 9 12
M  V30 12 1 12 13
M  V30 13 1 13 14
M  V30 14 1 14 15
M  V30 15 1 15 16
M  V30 16 1 16 17
M  V30 17 1 14 18
M  V30 18 2 18 19
M  V30 19 1 18 20
M  V30 20 1 20 21
M  V30 21 1 21 22
M  V30 22 2 22 23
M  V30 23 1 23 24
M  V30 24 2 24 25
M  V30 25 1 25 26
M  V30 26 1 25 27
M  V30 27 2 27 28
M  V30 28 1 28 29
M  V30 29 2 29 30
M  V30 30 1 8 2
M  V30 31 1 16 12
M  V30 32 1 26 22
M  V30 33 1 11 6
M  V30 34 1 30 24
M  V30 35 1 1 31
M  V30 36 1 1 32
M  V30 37 1 5 33
M  V30 38 1 5 34
M  V30 39 1 10 35
M  V30 40 1 12 36 CFG=1
M  V30 41 1 13 37
M  V30 42 1 13 38
M  V30 43 1 15 39
M  V30 44 1 15 40
M  V30 45 1 16 41 CFG=3
M  V30 46 1 17 42
M  V30 47 1 20 43
M  V30 48 1 20 44
M  V30 49 1 21 45
M  V30 50 1 21 46
M  V30 51 1 26 47
M  V30 52 1 27 48
M  V30 53 1 28 49
M  V30 54 1 29 50
M  V30 55 1 30 51
M  V30 END BOND
M  V30 END CTAB
M  END
