
     RDKit          3D

  0  0  0  0  0  0  0  0  0  0999 V3000
M  V30 BEGIN CTAB
M  V30 COUNTS 24 24 0 0 0
M  V30 BEGIN ATOM
M  V30 1 N -3.93896 0.610623 -1.52721 0
M  V30 2 N -3.00141 0.68287 -0.492268 0
M  V30 3 C -2.41478 -0.381911 -0.0955319 0
M  V30 4 N -1.44736 -0.402134 0.950944 0
M  V30 5 C -0.0827762 -0.114913 0.732254 0
M  V30 6 C 0.390549 0.209257 -0.549609 0
M  V30 7 C 1.7334 0.478763 -0.694344 0
M  V30 8 C 2.60347 0.436768 0.375303 0
M  V30 9 C 2.12218 0.118489 1.61779 0
M  V30 10 C 0.784172 -0.157961 1.80449 0
M  V30 11 F 0.318267 -0.474365 3.05176 0
M  V30 12 C 4.03413 0.742871 0.119409 0
M  V30 13 N -2.75266 -1.6017 -0.738265 0
M  V30 14 H -3.66969 0.759734 -2.52613 0
M  V30 15 H -4.95595 0.405215 -1.36678 0
M  V30 16 H -1.74901 -0.636411 1.91591 0
M  V30 17 H -0.305018 0.237938 -1.3785 0
M  V30 18 H 2.08048 0.726803 -1.68982 0
M  V30 19 H 2.79887 0.083732 2.46086 0
M  V30 20 H 4.09441 1.44189 -0.738551 0
M  V30 21 H 4.54585 1.12586 1.02152 0
M  V30 22 H 4.51588 -0.217523 -0.214876 0
M  V30 23 H -3.30239 -2.35987 -0.312001 0
M  V30 24 H -2.40166 -1.71401 -1.72636 0
M  V30 END ATOM
M  V30 BEGIN BOND
M  V30 1 1 1 2
M  V30 2 2 2 3
M  V30 3 1 3 4
M  V30 4 1 4 5
M  V30 5 2 5 6
M  V30 6 1 6 7
M  V30 7 2 7 8
M  V30 8 1 8 9
M  V30 9 2 9 10
M  V30 10 1 10 11
M  V30 11 1 8 12
M  V30 12 1 3 13
M  V30 13 1 10 5
M  V30 14 1 1 14
M  V30 15 1 1 15
M  V30 16 1 4 16
M  V30 17 1 6 17
M  V30 18 1 7 18
M  V30 19 1 9 19
M  V30 20 1 12 20
M  V30 21 1 12 21
M  V30 22 1 12 22
M  V30 23 1 13 23
M  V30 24 1 13 24
M  V30 END BOND
M  V30 END CTAB
M  END
