
     RDKit          3D

  0  0  0  0  0  0  0  0  0  0999 V3000
M  V30 BEGIN CTAB
M  V30 COUNTS 27 27 0 0 0
M  V30 BEGIN ATOM
M  V30 1 O -3.59258 -0.0978163 -1.29851 0
M  V30 2 C -3.38303 -0.0877553 -0.0711897 0
M  V30 3 C -1.9348 -0.449261 0.279785 0 CFG=1
M  V30 4 C -1.05629 0.482016 -0.486906 0 CFG=2
M  V30 5 C 0.380615 0.240239 -0.326451 0
M  V30 6 C 0.923542 -0.894114 0.220263 0
M  V30 7 C 2.29356 -0.993265 0.311907 0
M  V30 8 C 3.13203 -0.00232184 -0.122154 0
M  V30 9 C 2.61303 1.14572 -0.674447 0
M  V30 10 C 1.24085 1.22676 -0.757722 0
M  V30 11 N 4.54205 -0.134585 -0.0137968 0
M  V30 12 O -1.31143 1.79626 -0.0614204 0
M  V30 13 N -1.74966 -0.422855 1.69259 0
M  V30 14 H -3.92141 0.0897019 -1.91711 0
M  V30 15 H -3.54162 0.971687 0.286955 0
M  V30 16 H -4.10254 -0.768671 0.409389 0
M  V30 17 H -1.79705 -1.4943 -0.094836 0
M  V30 18 H -1.33937 0.406737 -1.56165 0
M  V30 19 H 0.264336 -1.68237 0.565861 0
M  V30 20 H 2.74245 -1.88259 0.741285 0
M  V30 21 H 3.25148 1.95125 -1.02871 0
M  V30 22 H 0.86172 2.15916 -1.20489 0
M  V30 23 H 5.09939 0.581338 0.511752 0
M  V30 24 H 5.06367 -0.942938 -0.450927 0
M  V30 25 H -0.927003 1.91778 0.847274 0
M  V30 26 H -1.08432 0.271525 2.04621 0
M  V30 27 H -2.66763 -0.283603 2.15745 0
M  V30 END ATOM
M  V30 BEGIN BOND
M  V30 1 1 1 2
M  V30 2 1 2 3
M  V30 3 1 3 4
M  V30 4 1 4 5
M  V30 5 2 5 6
M  V30 6 1 6 7
M  V30 7 2 7 8
M  V30 8 1 8 9
M  V30 9 2 9 10
M  V30 10 1 8 11
M  V30 11 1 4 12
M  V30 12 1 3 13
M  V30 13 1 10 5
M  V30 14 1 1 14
M  V30 15 1 2 15
M  V30 16 1 2 16
M  V30 17 1 3 17 CFG=3
M  V30 18 1 4 18 CFG=3
M  V30 19 1 6 19
M  V30 20 1 7 20
M  V30 21 1 9 21
M  V30 22 1 10 22
M  V30 23 1 11 23
M  V30 24 1 11 24
M  V30 25 1 12 25
M  V30 26 1 13 26
M  V30 27 1 13 27
M  V30 END BOND
M  V30 END CTAB
M  END
