
     RDKit          3D

  0  0  0  0  0  0  0  0  0  0999 V3000
M  V30 BEGIN CTAB
M  V30 COUNTS 71 76 0 0 0
M  V30 BEGIN ATOM
M  V30 1 N -8.60995 2.0539 -0.427389 0
M  V30 2 C -7.82211 1.07509 0.236527 0
M  V30 3 N -8.42395 0.14698 1.01284 0
M  V30 4 C -7.67555 -0.793036 1.65184 0
M  V30 5 N -8.33489 -1.76089 2.46525 0
M  V30 6 C -6.31453 -0.817708 1.52302 0
M  V30 7 C -5.7257 0.123971 0.737698 0
M  V30 8 N -6.48012 1.01904 0.13386 0
M  V30 9 N -4.40465 -0.075459 0.747586 0
M  V30 10 C -4.19113 -1.16204 1.55697 0
M  V30 11 N -5.36365 -1.59128 2.0128 0
M  V30 12 C -3.32324 0.573417 0.135371 0 CFG=1
M  V30 13 C -2.55532 -0.43888 -0.718085 0
M  V30 14 C -1.19537 0.165001 -0.993229 0
M  V30 15 C -0.406362 0.266968 0.267384 0
M  V30 16 C 1.09839 0.191794 0.0613199 0
M  V30 17 N 1.3862 -1.09158 -0.542717 0
M  V30 18 C 0.271817 -1.79209 -1.14046 0
M  V30 19 C -0.491241 -0.765514 -1.94852 0
M  V30 20 C 2.71341 -1.58802 -0.520394 0
M  V30 21 O 2.91167 -2.71509 -1.06415 0
M  V30 22 C 3.8414 -0.863763 0.0943974 0
M  V30 23 C 5.09618 -1.65858 -0.0592671 0
M  V30 24 N 6.24937 -1.00374 0.525276 0
M  V30 25 C 6.68369 -1.14188 1.79024 0
M  V30 26 C 6.08013 -1.98775 2.84979 0
M  V30 27 N 7.77813 -0.384947 1.97946 0
M  V30 28 C 8.05301 0.248565 0.824468 0
M  V30 29 C 7.09169 -0.146134 -0.074795 0
M  V30 30 C 7.15457 0.371331 -1.35027 0
M  V30 31 C 8.15082 1.26102 -1.72255 0
M  V30 32 C 9.10709 1.63918 -0.788569 0
M  V30 33 C 9.06345 1.13431 0.491738 0
M  V30 34 O -1.35954 1.37808 -1.64314 0
M  V30 35 C -2.1029 2.30846 -0.96804 0
M  V30 36 C -3.52625 1.77217 -0.668102 0 CFG=1
M  V30 37 C -4.15721 1.5781 -2.01626 0
M  V30 38 O -4.10627 2.8474 0.0469609 0
M  V30 39 H -9.05206 1.79335 -1.33361 0
M  V30 40 H -8.77915 3.01804 -0.0736863 0
M  V30 41 H -7.81865 -2.50215 2.95473 0
M  V30 42 H -9.3674 -1.73804 2.58332 0
M  V30 43 H -3.2523 -1.63663 1.81908 0
M  V30 44 H -2.5844 0.836011 0.953707 0
M  V30 45 H -3.08193 -0.720936 -1.62636 0
M  V30 46 H -2.45651 -1.3533 -0.0869726 0
M  V30 47 H -0.580127 1.19303 0.848004 0
M  V30 48 H -0.679724 -0.613938 0.913229 0
M  V30 49 H 1.57009 0.317406 1.04691 0
M  V30 50 H 1.42197 1.03233 -0.578877 0
M  V30 51 H 0.594568 -2.65274 -1.75828 0
M  V30 52 H -0.335455 -2.21175 -0.317122 0
M  V30 53 H -1.18722 -1.22731 -2.67723 0
M  V30 54 H 0.270522 -0.138467 -2.49303 0
M  V30 55 H 3.60688 -0.59863 1.13991 0
M  V30 56 H 3.93519 0.109295 -0.448991 0
M  V30 57 H 5.28711 -1.76841 -1.15749 0
M  V30 58 H 5.02034 -2.66466 0.346647 0
M  V30 59 H 5.29991 -2.66527 2.46509 0
M  V30 60 H 5.70513 -1.30841 3.64205 0
M  V30 61 H 6.85889 -2.62625 3.31653 0
M  V30 62 H 6.38071 0.0432462 -2.04616 0
M  V30 63 H 8.15828 1.63835 -2.73204 0
M  V30 64 H 9.8843 2.34628 -1.11365 0
M  V30 65 H 9.82475 1.45383 1.18387 0
M  V30 66 H -1.64064 2.6927 -0.0401387 0
M  V30 67 H -2.25934 3.16984 -1.64299 0
M  V30 68 H -4.56211 0.560152 -2.18429 0
M  V30 69 H -3.46887 1.7626 -2.87662 0
M  V30 70 H -4.95535 2.36939 -2.13498 0
M  V30 71 H -3.91852 3.71463 -0.389428 0
M  V30 END ATOM
M  V30 BEGIN BOND
M  V30 1 1 1 2
M  V30 2 2 2 3
M  V30 3 1 3 4
M  V30 4 1 4 5
M  V30 5 2 4 6
M  V30 6 1 6 7
M  V30 7 2 7 8
M  V30 8 1 7 9
M  V30 9 1 9 10
M  V30 10 2 10 11
M  V30 11 1 9 12
M  V30 12 1 12 13
M  V30 13 1 13 14
M  V30 14 1 14 15
M  V30 15 1 15 16
M  V30 16 1 16 17
M  V30 17 1 17 18
M  V30 18 1 18 19
M  V30 19 1 17 20
M  V30 20 2 20 21
M  V30 21 1 20 22
M  V30 22 1 22 23
M  V30 23 1 23 24
M  V30 24 1 24 25
M  V30 25 1 25 26
M  V30 26 2 25 27
M  V30 27 1 27 28
M  V30 28 2 28 29
M  V30 29 1 29 30
M  V30 30 2 30 31
M  V30 31 1 31 32
M  V30 32 2 32 33
M  V30 33 1 14 34
M  V30 34 1 34 35
M  V30 35 1 35 36
M  V30 36 1 36 37
M  V30 37 1 36 38 CFG=1
M  V30 38 1 8 2
M  V30 39 1 36 12
M  V30 40 1 11 6
M  V30 41 1 19 14
M  V30 42 1 29 24
M  V30 43 1 33 28
M  V30 44 1 1 39
M  V30 45 1 1 40
M  V30 46 1 5 41
M  V30 47 1 5 42
M  V30 48 1 10 43
M  V30 49 1 12 44 CFG=1
M  V30 50 1 13 45
M  V30 51 1 13 46
M  V30 52 1 15 47
M  V30 53 1 15 48
M  V30 54 1 16 49
M  V30 55 1 16 50
M  V30 56 1 18 51
M  V30 57 1 18 52
M  V30 58 1 19 53
M  V30 59 1 19 54
M  V30 60 1 22 55
M  V30 61 1 22 56
M  V30 62 1 23 57
M  V30 63 1 23 58
M  V30 64 1 26 59
M  V30 65 1 26 60
M  V30 66 1 26 61
M  V30 67 1 30 62
M  V30 68 1 31 63
M  V30 69 1 32 64
M  V30 70 1 33 65
M  V30 71 1 35 66
M  V30 72 1 35 67
M  V30 73 1 37 68
M  V30 74 1 37 69
M  V30 75 1 37 70
M  V30 76 1 38 71
M  V30 END BOND
M  V30 END CTAB
M  END
