
     RDKit          3D

  0  0  0  0  0  0  0  0  0  0999 V3000
M  V30 BEGIN CTAB
M  V30 COUNTS 28 30 0 0 0
M  V30 BEGIN ATOM
M  V30 1 N 3.28081 2.36949 1.52896 0
M  V30 2 C 2.65776 1.25271 0.903924 0
M  V30 3 N 3.18243 0.013712 0.934065 0
M  V30 4 C 2.33678 -0.769743 0.252437 0
M  V30 5 C 1.27518 -0.013351 -0.207107 0
M  V30 6 N 1.50096 1.25483 0.215989 0
M  V30 7 N 0.275258 -0.566169 -0.928027 0
M  V30 8 C -0.812976 0.227792 -1.39486 0
M  V30 9 C -1.95008 0.27809 -0.40463 0
M  V30 10 C -2.14146 1.17835 0.604478 0
M  V30 11 C -3.25105 1.01853 1.3734 0
M  V30 12 C -4.06888 -0.0288884 1.06197 0
M  V30 13 S -3.29315 -0.755692 -0.267741 0
M  V30 14 C 0.361525 -1.88612 -1.17721 0
M  V30 15 N -0.637952 -2.54401 -1.92177 0
M  V30 16 N 1.39923 -2.64318 -0.732039 0
M  V30 17 C 2.41129 -2.12233 -0.0111724 0
M  V30 18 O 3.37714 -2.82595 0.403409 0
M  V30 19 H 3.2272 3.29215 1.03072 0
M  V30 20 H 3.75567 2.23483 2.43544 0
M  V30 21 H 0.877567 2.07102 0.0308196 0
M  V30 22 H -1.26058 -0.13231 -2.34489 0
M  V30 23 H -0.541597 1.2942 -1.57522 0
M  V30 24 H -1.4048 2.01053 0.779867 0
M  V30 25 H -3.53949 1.6764 2.23399 0
M  V30 26 H -5.00894 -0.318916 1.56735 0
M  V30 27 H -1.00158 -3.45697 -1.61172 0
M  V30 28 H -1.00628 -2.10901 -2.78043 0
M  V30 END ATOM
M  V30 BEGIN BOND
M  V30 1 1 1 2
M  V30 2 2 2 3
M  V30 3 1 3 4
M  V30 4 2 4 5
M  V30 5 1 5 6
M  V30 6 1 5 7
M  V30 7 1 7 8
M  V30 8 1 8 9
M  V30 9 2 9 10
M  V30 10 1 10 11
M  V30 11 2 11 12
M  V30 12 1 12 13
M  V30 13 1 7 14
M  V30 14 1 14 15
M  V30 15 2 14 16
M  V30 16 1 16 17
M  V30 17 2 17 18
M  V30 18 1 6 2
M  V30 19 1 13 9
M  V30 20 1 17 4
M  V30 21 1 1 19
M  V30 22 1 1 20
M  V30 23 1 6 21
M  V30 24 1 8 22
M  V30 25 1 8 23
M  V30 26 1 10 24
M  V30 27 1 11 25
M  V30 28 1 12 26
M  V30 29 1 15 27
M  V30 30 1 15 28
M  V30 END BOND
M  V30 END CTAB
M  END
