
     RDKit          3D

  0  0  0  0  0  0  0  0  0  0999 V3000
M  V30 BEGIN CTAB
M  V30 COUNTS 36 37 0 0 0
M  V30 BEGIN ATOM
M  V30 1 C -1.7604 3.59351 -0.695746 0
M  V30 2 O -2.41623 2.3503 -0.767202 0
M  V30 3 C -1.68793 1.19656 -0.501251 0
M  V30 4 C -0.338378 1.26121 -0.17064 0
M  V30 5 C 0.37497 0.111157 0.0913186 0
M  V30 6 C -0.250598 -1.10366 0.0254672 0
M  V30 7 C -1.60094 -1.22373 -0.301337 0
M  V30 8 O -2.25134 -2.44332 -0.373153 0
M  V30 9 C -1.61568 -3.67517 -0.124422 0
M  V30 10 C -2.28423 -0.0628579 -0.556694 0
M  V30 11 O -3.62343 -0.138122 -0.884013 0
M  V30 12 C -4.6257 -0.0938885 0.0872756 0
M  V30 13 C 1.77853 0.228086 0.437105 0
M  V30 14 C 2.1908 1.16304 1.39562 0
M  V30 15 N 3.4732 1.26434 1.71275 0
M  V30 16 C 4.45064 0.511397 1.16646 0
M  V30 17 N 5.81193 0.651363 1.534 0
M  V30 18 N 4.04664 -0.389375 0.241685 0
M  V30 19 C 2.76633 -0.54763 -0.129264 0
M  V30 20 N 2.38617 -1.51019 -1.11575 0
M  V30 21 H -0.872958 3.59801 -1.35745 0
M  V30 22 H -1.34935 3.70173 0.34951 0
M  V30 23 H -2.42373 4.44766 -0.845709 0
M  V30 24 H 0.117686 2.24049 -0.129402 0
M  V30 25 H 0.25409 -2.0236 0.222112 0
M  V30 26 H -2.405 -4.43225 0.12895 0
M  V30 27 H -0.916932 -3.63838 0.735969 0
M  V30 28 H -1.11438 -4.07641 -1.04488 0
M  V30 29 H -4.39208 -0.888616 0.846446 0
M  V30 30 H -5.60703 -0.387049 -0.381925 0
M  V30 31 H -4.69347 0.858135 0.619966 0
M  V30 32 H 1.43491 1.78267 1.85354 0
M  V30 33 H 6.1382 1.54666 1.93672 0
M  V30 34 H 6.49431 -0.117462 1.41193 0
M  V30 35 H 2.68302 -2.51435 -1.00205 0
M  V30 36 H 1.82838 -1.24026 -1.93403 0
M  V30 END ATOM
M  V30 BEGIN BOND
M  V30 1 1 1 2
M  V30 2 1 2 3
M  V30 3 2 3 4
M  V30 4 1 4 5
M  V30 5 2 5 6
M  V30 6 1 6 7
M  V30 7 1 7 8
M  V30 8 1 8 9
M  V30 9 2 7 10
M  V30 10 1 10 11
M  V30 11 1 11 12
M  V30 12 1 5 13
M  V30 13 2 13 14
M  V30 14 1 14 15
M  V30 15 2 15 16
M  V30 16 1 16 17
M  V30 17 1 16 18
M  V30 18 2 18 19
M  V30 19 1 19 20
M  V30 20 1 10 3
M  V30 21 1 19 13
M  V30 22 1 1 21
M  V30 23 1 1 22
M  V30 24 1 1 23
M  V30 25 1 4 24
M  V30 26 1 6 25
M  V30 27 1 9 26
M  V30 28 1 9 27
M  V30 29 1 9 28
M  V30 30 1 12 29
M  V30 31 1 12 30
M  V30 32 1 12 31
M  V30 33 1 14 32
M  V30 34 1 17 33
M  V30 35 1 17 34
M  V30 36 1 20 35
M  V30 37 1 20 36
M  V30 END BOND
M  V30 END CTAB
M  END
