
     RDKit          3D

  0  0  0  0  0  0  0  0  0  0999 V3000
M  V30 BEGIN CTAB
M  V30 COUNTS 42 43 0 0 0
M  V30 BEGIN ATOM
M  V30 1 N -2.63981 3.87555 1.90003 0
M  V30 2 C -1.99666 3.74176 0.627779 0
M  V30 3 C -1.52185 2.26638 0.514054 0
M  V30 4 C -0.861529 2.16049 -0.811161 0
M  V30 5 N -0.327152 0.755022 -0.961885 0
M  V30 6 C 0.973903 0.625511 -0.48663 0
M  V30 7 O 1.43813 1.74271 0.01325 0
M  V30 8 C 1.89227 -0.508997 -0.450466 0
M  V30 9 C 1.6158 -1.75285 -0.94425 0
M  V30 10 S 3.02635 -2.66223 -0.643157 0
M  V30 11 C 3.95656 -1.45994 0.106744 0
M  V30 12 C 3.14226 -0.370481 0.105503 0
M  V30 13 S 5.61042 -1.57856 0.750981 0
M  V30 14 O 6.05495 -0.225225 1.19622 0
M  V30 15 O 5.65847 -2.58764 1.84399 0
M  V30 16 N 6.66972 -2.02625 -0.565981 0
M  V30 17 C -1.2166 -0.162977 -1.57941 0
M  V30 18 C -2.06397 -0.99736 -0.74077 0
M  V30 19 C -1.78735 -1.28021 0.563898 0
M  V30 20 C -2.60384 -2.07719 1.35382 0
M  V30 21 C -3.75155 -2.61491 0.807465 0
M  V30 22 C -4.05013 -2.34353 -0.504281 0
M  V30 23 C -3.21404 -1.53856 -1.28151 0
M  V30 24 H -2.91227 2.96102 2.27328 0
M  V30 25 H -2.02147 4.42396 2.5356 0
M  V30 26 H -1.12657 4.39662 0.508171 0
M  V30 27 H -2.69611 3.91732 -0.199985 0
M  V30 28 H -0.869974 2.09784 1.36618 0
M  V30 29 H -2.45808 1.64501 0.587211 0
M  V30 30 H -0.0280204 2.87733 -0.856882 0
M  V30 31 H -1.56515 2.3296 -1.63682 0
M  V30 32 H 0.699133 -2.11293 -1.42522 0
M  V30 33 H 3.55442 0.566578 0.562769 0
M  V30 34 H 6.54717 -1.27111 -1.29037 0
M  V30 35 H 7.64565 -1.99593 -0.210392 0
M  V30 36 H -1.91485 0.493248 -2.2429 0
M  V30 37 H -0.711391 -0.754412 -2.37755 0
M  V30 38 H -0.893048 -0.890935 1.07421 0
M  V30 39 H -2.35922 -2.28541 2.38832 0
M  V30 40 H -4.40312 -3.23116 1.3817 0
M  V30 41 H -4.96336 -2.76847 -0.947324 0
M  V30 42 H -3.5281 -1.37869 -2.30421 0
M  V30 END ATOM
M  V30 BEGIN BOND
M  V30 1 1 1 2
M  V30 2 1 2 3
M  V30 3 1 3 4
M  V30 4 1 4 5
M  V30 5 1 5 6
M  V30 6 2 6 7
M  V30 7 1 6 8
M  V30 8 2 8 9
M  V30 9 1 9 10
M  V30 10 1 10 11
M  V30 11 2 11 12
M  V30 12 1 11 13
M  V30 13 2 13 14
M  V30 14 2 13 15
M  V30 15 1 13 16
M  V30 16 1 5 17
M  V30 17 1 17 18
M  V30 18 2 18 19
M  V30 19 1 19 20
M  V30 20 2 20 21
M  V30 21 1 21 22
M  V30 22 2 22 23
M  V30 23 1 12 8
M  V30 24 1 23 18
M  V30 25 1 1 24
M  V30 26 1 1 25
M  V30 27 1 2 26
M  V30 28 1 2 27
M  V30 29 1 3 28
M  V30 30 1 3 29
M  V30 31 1 4 30
M  V30 32 1 4 31
M  V30 33 1 9 32
M  V30 34 1 12 33
M  V30 35 1 16 34
M  V30 36 1 16 35
M  V30 37 1 17 36
M  V30 38 1 17 37
M  V30 39 1 19 38
M  V30 40 1 20 39
M  V30 41 1 21 40
M  V30 42 1 22 41
M  V30 43 1 23 42
M  V30 END BOND
M  V30 END CTAB
M  END
