
     RDKit          3D

  0  0  0  0  0  0  0  0  0  0999 V3000
M  V30 BEGIN CTAB
M  V30 COUNTS 37 39 0 0 0
M  V30 BEGIN ATOM
M  V30 1 C -6.35175 -0.300451 1.37684 0
M  V30 2 C -5.45704 0.262873 0.284971 0
M  V30 3 C -6.02395 0.951389 -0.759953 0
M  V30 4 S -4.63785 1.36986 -1.67824 0
M  V30 5 C -3.44861 0.650692 -0.687048 0
M  V30 6 N -4.16689 0.132954 0.287017 0
M  V30 7 C -1.99384 0.673809 -0.935145 0
M  V30 8 C -1.03261 0.298768 -0.109586 0
M  V30 9 N -1.33366 -0.192177 1.17061 0
M  V30 10 N 0.249127 0.44645 -0.651987 0
M  V30 11 C 0.0602757 1.26063 -1.8411 0
M  V30 12 C -1.37398 1.14027 -2.17933 0
M  V30 13 O -1.95901 1.37003 -3.24758 0
M  V30 14 C 1.52619 -0.0149252 -0.231429 0
M  V30 15 C 2.58326 -0.1064 -1.15029 0
M  V30 16 C 3.84921 -0.548149 -0.794302 0
M  V30 17 C 4.1129 -0.916958 0.492951 0
M  V30 18 C 3.10878 -0.842806 1.42275 0
M  V30 19 C 1.84384 -0.397807 1.05243 0
M  V30 20 S 5.69684 -1.49367 0.920544 0
M  V30 21 O 5.68535 -2.35128 2.15496 0
M  V30 22 O 6.28261 -2.31947 -0.192708 0
M  V30 23 N 6.75001 -0.151134 1.19597 0
M  V30 24 H -7.25758 0.347186 1.4901 0
M  V30 25 H -6.72177 -1.29362 1.05859 0
M  V30 26 H -5.84615 -0.289918 2.34323 0
M  V30 27 H -7.09072 1.16517 -0.94051 0
M  V30 28 H -1.74085 -1.16645 1.26516 0
M  V30 29 H -1.18539 0.329079 2.04949 0
M  V30 30 H 0.26932 2.33243 -1.63921 0
M  V30 31 H 0.704607 0.852968 -2.64248 0
M  V30 32 H 2.48243 0.163761 -2.18989 0
M  V30 33 H 4.6481 -0.607555 -1.52532 0
M  V30 34 H 3.32237 -1.13712 2.44154 0
M  V30 35 H 1.0993 -0.352283 1.79279 0
M  V30 36 H 6.3976 0.742135 0.797991 0
M  V30 37 H 6.94954 -0.00828212 2.19205 0
M  V30 END ATOM
M  V30 BEGIN BOND
M  V30 1 1 1 2
M  V30 2 2 2 3
M  V30 3 1 3 4
M  V30 4 1 4 5
M  V30 5 2 5 6
M  V30 6 1 5 7
M  V30 7 2 7 8
M  V30 8 1 8 9
M  V30 9 1 8 10
M  V30 10 1 10 11
M  V30 11 1 11 12
M  V30 12 2 12 13
M  V30 13 1 10 14
M  V30 14 2 14 15
M  V30 15 1 15 16
M  V30 16 2 16 17
M  V30 17 1 17 18
M  V30 18 2 18 19
M  V30 19 1 17 20
M  V30 20 2 20 21
M  V30 21 2 20 22
M  V30 22 1 20 23
M  V30 23 1 6 2
M  V30 24 1 12 7
M  V30 25 1 19 14
M  V30 26 1 1 24
M  V30 27 1 1 25
M  V30 28 1 1 26
M  V30 29 1 3 27
M  V30 30 1 9 28
M  V30 31 1 9 29
M  V30 32 1 11 30
M  V30 33 1 11 31
M  V30 34 1 15 32
M  V30 35 1 16 33
M  V30 36 1 18 34
M  V30 37 1 19 35
M  V30 38 1 23 36
M  V30 39 1 23 37
M  V30 END BOND
M  V30 END CTAB
M  END
