
     RDKit          3D

  0  0  0  0  0  0  0  0  0  0999 V3000
M  V30 BEGIN CTAB
M  V30 COUNTS 55 56 0 0 0
M  V30 BEGIN ATOM
M  V30 1 N 7.60937 2.18548 0.35245 0
M  V30 2 C 6.28932 2.20274 -0.20634 0
M  V30 3 C 5.58327 0.873887 -0.0531694 0
M  V30 4 C 4.20656 0.978091 -0.66505 0
M  V30 5 C 3.43801 -0.309751 -0.551954 0
M  V30 6 C 2.05579 -0.194948 -1.16993 0 CFG=1
M  V30 7 C 1.30485 -1.46046 -1.05689 0
M  V30 8 O 1.95052 -2.48097 -1.51844 0
M  V30 9 N 0.0302439 -1.6743 -0.530966 0
M  V30 10 C -0.502514 -3.04917 -0.541257 0
M  V30 11 C -1.85765 -2.92348 -1.22614 0
M  V30 12 C -2.7784 -2.23825 -0.231655 0 CFG=1
M  V30 13 C -2.077 -1.26185 0.635846 0 CFG=1
M  V30 14 C -0.803906 -0.677003 0.0179194 0
M  V30 15 N -2.86444 -0.16298 1.12291 0
M  V30 16 C -3.22521 0.869458 0.356927 0
M  V30 17 C -3.97667 1.94514 0.778483 0
M  V30 18 C -4.33913 3.06296 -0.141904 0
M  V30 19 C -4.38711 1.95704 2.08868 0
M  V30 20 O -5.07757 2.91483 2.53339 0
M  V30 21 N -4.02927 0.923748 2.86549 0
M  V30 22 C -3.28946 -0.116373 2.41516 0
M  V30 23 O -3.00291 -1.03602 3.2102 0
M  V30 24 C -3.95577 -1.68699 -1.00111 0
M  V30 25 O -3.31897 -3.29379 0.547319 0
M  V30 26 N 1.31591 0.903942 -0.68748 0
M  V30 27 H 8.06971 3.07594 0.130462 0
M  V30 28 H 7.55546 2.05099 1.35874 0
M  V30 29 H 5.65659 2.95258 0.351943 0
M  V30 30 H 6.26171 2.50037 -1.26193 0
M  V30 31 H 6.17415 0.0649525 -0.525159 0
M  V30 32 H 5.51509 0.661296 1.0491 0
M  V30 33 H 3.65786 1.76375 -0.076669 0
M  V30 34 H 4.29621 1.34865 -1.68184 0
M  V30 35 H 4.02474 -1.10705 -1.04233 0
M  V30 36 H 3.295 -0.584303 0.51185 0
M  V30 37 H 2.21921 -0.0205091 -2.27945 0
M  V30 38 H 0.164956 -3.74269 -1.05806 0
M  V30 39 H -0.665152 -3.3461 0.497264 0
M  V30 40 H -2.22213 -3.94358 -1.43779 0
M  V30 41 H -1.7761 -2.35869 -2.17017 0
M  V30 42 H -1.67877 -1.85878 1.5178 0
M  V30 43 H -1.06588 0.0799092 -0.747699 0
M  V30 44 H -0.358373 -0.0976185 0.879766 0
M  V30 45 H -2.91245 0.875501 -0.676329 0
M  V30 46 H -3.75852 3.9453 0.134282 0
M  V30 47 H -4.133 2.70839 -1.18011 0
M  V30 48 H -5.40601 3.28537 0.0214826 0
M  V30 49 H -4.35585 0.951993 3.87265 0
M  V30 50 H -4.71806 -1.21213 -0.37284 0
M  V30 51 H -4.49757 -2.55328 -1.48876 0
M  V30 52 H -3.60419 -1.08248 -1.85745 0
M  V30 53 H -2.6884 -3.49641 1.30281 0
M  V30 54 H 1.09055 1.64634 -1.36798 0
M  V30 55 H 1.56136 1.24131 0.253916 0
M  V30 END ATOM
M  V30 BEGIN BOND
M  V30 1 1 1 2
M  V30 2 1 2 3
M  V30 3 1 3 4
M  V30 4 1 4 5
M  V30 5 1 5 6
M  V30 6 1 6 7
M  V30 7 2 7 8
M  V30 8 1 7 9
M  V30 9 1 9 10
M  V30 10 1 10 11
M  V30 11 1 11 12
M  V30 12 1 12 13
M  V30 13 1 13 14
M  V30 14 1 13 15
M  V30 15 1 15 16
M  V30 16 2 16 17
M  V30 17 1 17 18
M  V30 18 1 17 19
M  V30 19 2 19 20
M  V30 20 1 19 21
M  V30 21 1 21 22
M  V30 22 2 22 23
M  V30 23 1 12 24
M  V30 24 1 12 25 CFG=1
M  V30 25 1 6 26
M  V30 26 1 14 9
M  V30 27 1 22 15
M  V30 28 1 1 27
M  V30 29 1 1 28
M  V30 30 1 2 29
M  V30 31 1 2 30
M  V30 32 1 3 31
M  V30 33 1 3 32
M  V30 34 1 4 33
M  V30 35 1 4 34
M  V30 36 1 5 35
M  V30 37 1 5 36
M  V30 38 1 6 37 CFG=3
M  V30 39 1 10 38
M  V30 40 1 10 39
M  V30 41 1 11 40
M  V30 42 1 11 41
M  V30 43 1 13 42 CFG=1
M  V30 44 1 14 43
M  V30 45 1 14 44
M  V30 46 1 16 45
M  V30 47 1 18 46
M  V30 48 1 18 47
M  V30 49 1 18 48
M  V30 50 1 21 49
M  V30 51 1 24 50
M  V30 52 1 24 51
M  V30 53 1 24 52
M  V30 54 1 25 53
M  V30 55 1 26 54
M  V30 56 1 26 55
M  V30 END BOND
M  V30 END CTAB
M  END
