
     RDKit          3D

  0  0  0  0  0  0  0  0  0  0999 V3000
M  V30 BEGIN CTAB
M  V30 COUNTS 54 56 0 0 0
M  V30 BEGIN ATOM
M  V30 1 N -2.17854 4.14166 1.2879 0
M  V30 2 C -2.35384 3.14437 0.70469 0
M  V30 3 C -2.55613 1.91966 -0.015742 0
M  V30 4 C -2.81827 2.01843 -1.29929 0
M  V30 5 N -2.89233 3.31114 -1.93332 0
M  V30 6 O -3.02045 0.867021 -2.01705 0
M  V30 7 C -2.95119 -0.397991 -1.40687 0
M  V30 8 C -2.68744 -0.555681 -0.128841 0
M  V30 9 C -2.43855 0.647831 0.735478 0
M  V30 10 C -1.09415 0.581488 1.38742 0
M  V30 11 C -0.949534 0.89811 2.71764 0
M  V30 12 C 0.268753 0.860388 3.36477 0
M  V30 13 C 1.37128 0.483121 2.611 0
M  V30 14 C 1.27661 0.158528 1.28222 0
M  V30 15 C 0.0456395 0.209608 0.678974 0
M  V30 16 C 2.53524 -0.249419 0.563229 0
M  V30 17 C 2.65057 0.341307 -0.772727 0
M  V30 18 C 2.70908 -0.452973 -1.8317 0
M  V30 19 C 2.8192 0.0893554 -3.19839 0
M  V30 20 O 2.6781 -1.85267 -1.73794 0
M  V30 21 C 2.58516 -2.48446 -0.532384 0
M  V30 22 C 2.52 -1.75023 0.550649 0
M  V30 23 C 2.42798 -2.44472 1.80676 0
M  V30 24 N 2.35929 -3.00662 2.83301 0
M  V30 25 N 2.55792 -3.93203 -0.434044 0
M  V30 26 C 2.72027 1.77719 -0.968371 0
M  V30 27 O 2.81045 2.36565 -2.07137 0
M  V30 28 C 2.68936 2.67184 0.22037 0
M  V30 29 C -2.64674 -1.8741 0.468907 0
M  V30 30 O -2.84625 -2.88768 -0.240676 0
M  V30 31 C -2.38259 -2.15174 1.90557 0
M  V30 32 C -3.19758 -1.58733 -2.30145 0
M  V30 33 H -3.44872 4.0326 -1.47925 0
M  V30 34 H -2.39044 3.45874 -2.80625 0
M  V30 35 H -3.19235 0.677758 1.53722 0
M  V30 36 H -1.82709 1.18859 3.27932 0
M  V30 37 H 0.310564 1.12043 4.40702 0
M  V30 38 H 2.31615 0.46167 3.14336 0
M  V30 39 H -0.0430829 -0.0393144 -0.350569 0
M  V30 40 H 3.38499 0.045797 1.19743 0
M  V30 41 H 1.91901 0.70315 -3.49942 0
M  V30 42 H 3.7252 0.656684 -3.41559 0
M  V30 43 H 2.85848 -0.793693 -3.91693 0
M  V30 44 H 1.76515 -4.43364 0.0122769 0
M  V30 45 H 3.37152 -4.45167 -0.832057 0
M  V30 46 H 3.18937 3.65186 -0.077256 0
M  V30 47 H 1.69032 2.84472 0.604316 0
M  V30 48 H 3.3486 2.20577 1.00426 0
M  V30 49 H -2.87802 -3.12567 2.14337 0
M  V30 50 H -2.98275 -1.40704 2.48492 0
M  V30 51 H -1.33573 -2.14698 2.19265 0
M  V30 52 H -2.29439 -2.20852 -2.43051 0
M  V30 53 H -3.38002 -1.18937 -3.36022 0
M  V30 54 H -4.11808 -2.11092 -2.06651 0
M  V30 END ATOM
M  V30 BEGIN BOND
M  V30 1 3 1 2
M  V30 2 1 2 3
M  V30 3 2 3 4
M  V30 4 1 4 5
M  V30 5 1 4 6
M  V30 6 1 6 7
M  V30 7 2 7 8
M  V30 8 1 8 9
M  V30 9 1 9 10
M  V30 10 2 10 11
M  V30 11 1 11 12
M  V30 12 2 12 13
M  V30 13 1 13 14
M  V30 14 2 14 15
M  V30 15 1 14 16
M  V30 16 1 16 17
M  V30 17 2 17 18
M  V30 18 1 18 19
M  V30 19 1 18 20
M  V30 20 1 20 21
M  V30 21 2 21 22
M  V30 22 1 22 23
M  V30 23 3 23 24
M  V30 24 1 21 25
M  V30 25 1 17 26
M  V30 26 2 26 27
M  V30 27 1 26 28
M  V30 28 1 8 29
M  V30 29 2 29 30
M  V30 30 1 29 31
M  V30 31 1 7 32
M  V30 32 1 9 3
M  V30 33 1 15 10
M  V30 34 1 22 16
M  V30 35 1 5 33
M  V30 36 1 5 34
M  V30 37 1 9 35
M  V30 38 1 11 36
M  V30 39 1 12 37
M  V30 40 1 13 38
M  V30 41 1 15 39
M  V30 42 1 16 40
M  V30 43 1 19 41
M  V30 44 1 19 42
M  V30 45 1 19 43
M  V30 46 1 25 44
M  V30 47 1 25 45
M  V30 48 1 28 46
M  V30 49 1 28 47
M  V30 50 1 28 48
M  V30 51 1 31 49
M  V30 52 1 31 50
M  V30 53 1 31 51
M  V30 54 1 32 52
M  V30 55 1 32 53
M  V30 56 1 32 54
M  V30 END BOND
M  V30 END CTAB
M  END
