
     RDKit          3D

  0  0  0  0  0  0  0  0  0  0999 V3000
M  V30 BEGIN CTAB
M  V30 COUNTS 32 34 0 0 0
M  V30 BEGIN ATOM
M  V30 1 N -4.56441 0.853107 2.21185 0
M  V30 2 C -3.8548 0.480888 1.04086 0
M  V30 3 N -4.48849 0.128617 -0.0989016 0
M  V30 4 C -3.84441 -0.22861 -1.22351 0
M  V30 5 N -4.6035 -0.58157 -2.36831 0
M  V30 6 N -2.5009 -0.234973 -1.21125 0
M  V30 7 C -1.8074 0.106703 -0.103855 0
M  V30 8 C -2.4864 0.470264 1.04011 0
M  V30 9 N -0.39887 0.111043 -0.0558491 0
M  V30 10 C 0.637001 0.40551 0.90987 0
M  V30 11 C 1.48134 -0.639588 0.215618 0
M  V30 12 C 0.659686 -0.192603 -1.0001 0
M  V30 13 C 2.90843 -0.372745 0.13733 0
M  V30 14 C 3.42941 0.845592 -0.211625 0
M  V30 15 C 4.79062 1.05147 -0.272357 0
M  V30 16 N 5.60891 0.0347078 0.0171248 0
M  V30 17 C 5.16613 -1.19727 0.369869 0
M  V30 18 C 3.79957 -1.38354 0.425008 0
M  V30 19 H -4.1259 0.794243 3.14983 0
M  V30 20 H -5.54193 1.18805 2.09878 0
M  V30 21 H -5.189 -1.44183 -2.42166 0
M  V30 22 H -4.57288 0.0546034 -3.19969 0
M  V30 23 H -1.92128 0.746418 1.9352 0
M  V30 24 H 0.384339 0.187139 1.95572 0
M  V30 25 H 1.01984 1.43719 0.721763 0
M  V30 26 H 1.20005 -1.64831 0.504695 0
M  V30 27 H 1.0995 0.716094 -1.46713 0
M  V30 28 H 0.436854 -0.998758 -1.7092 0
M  V30 29 H 2.79626 1.68476 -0.450596 0
M  V30 30 H 5.20355 2.00221 -0.544661 0
M  V30 31 H 5.85523 -2.00878 0.600862 0
M  V30 32 H 3.42346 -2.37002 0.707494 0
M  V30 END ATOM
M  V30 BEGIN BOND
M  V30 1 1 1 2
M  V30 2 2 2 3
M  V30 3 1 3 4
M  V30 4 1 4 5
M  V30 5 2 4 6
M  V30 6 1 6 7
M  V30 7 2 7 8
M  V30 8 1 7 9
M  V30 9 1 9 10
M  V30 10 1 10 11
M  V30 11 1 11 12
M  V30 12 1 11 13
M  V30 13 2 13 14
M  V30 14 1 14 15
M  V30 15 2 15 16
M  V30 16 1 16 17
M  V30 17 2 17 18
M  V30 18 1 8 2
M  V30 19 1 12 9
M  V30 20 1 18 13
M  V30 21 1 1 19
M  V30 22 1 1 20
M  V30 23 1 5 21
M  V30 24 1 5 22
M  V30 25 1 8 23
M  V30 26 1 10 24
M  V30 27 1 10 25
M  V30 28 1 11 26
M  V30 29 1 12 27
M  V30 30 1 12 28
M  V30 31 1 14 29
M  V30 32 1 15 30
M  V30 33 1 17 31
M  V30 34 1 18 32
M  V30 END BOND
M  V30 END CTAB
M  END
