
     RDKit          3D

  0  0  0  0  0  0  0  0  0  0999 V3000
M  V30 BEGIN CTAB
M  V30 COUNTS 23 23 0 0 0
M  V30 BEGIN ATOM
M  V30 1 N 1.25347 -1.77206 -1.78484 0
M  V30 2 C 0.599995 -0.822886 -0.977267 0
M  V30 3 C -0.724522 -0.500634 -1.05336 0
M  V30 4 C -1.34217 0.437496 -0.246284 0
M  V30 5 C -0.553644 1.06433 0.674547 0
M  V30 6 C 0.795239 0.792978 0.812818 0
M  V30 7 C 1.37173 -0.148708 -0.0111446 0
M  V30 8 O 2.71605 -0.44626 0.0976473 0
M  V30 9 C 3.55787 0.17451 1.02885 0
M  V30 10 F 4.84892 -0.353246 0.874537 0
M  V30 11 F 3.67154 1.53832 0.875697 0
M  V30 12 F 3.17444 -0.0697045 2.35394 0
M  V30 13 S -3.02526 0.83564 -0.355205 0
M  V30 14 N -3.98754 -0.17074 0.682955 0
M  V30 15 O -3.54406 0.794616 -1.76349 0
M  V30 16 O -3.20139 2.25743 0.154399 0
M  V30 17 H 1.39863 -1.63978 -2.80587 0
M  V30 18 H 1.63098 -2.67227 -1.38817 0
M  V30 19 H -1.33006 -1.00839 -1.78877 0
M  V30 20 H -0.984282 1.8042 1.32906 0
M  V30 21 H 1.32841 1.34595 1.57356 0
M  V30 22 H -4.25134 -1.06327 0.182546 0
M  V30 23 H -3.40299 -0.377519 1.53383 0
M  V30 END ATOM
M  V30 BEGIN BOND
M  V30 1 1 1 2
M  V30 2 2 2 3
M  V30 3 1 3 4
M  V30 4 2 4 5
M  V30 5 1 5 6
M  V30 6 2 6 7
M  V30 7 1 7 8
M  V30 8 1 8 9
M  V30 9 1 9 10
M  V30 10 1 9 11
M  V30 11 1 9 12
M  V30 12 1 4 13
M  V30 13 1 13 14
M  V30 14 2 13 15
M  V30 15 2 13 16
M  V30 16 1 7 2
M  V30 17 1 1 17
M  V30 18 1 1 18
M  V30 19 1 3 19
M  V30 20 1 5 20
M  V30 21 1 6 21
M  V30 22 1 14 22
M  V30 23 1 14 23
M  V30 END BOND
M  V30 END CTAB
M  END
