
     RDKit          3D

  0  0  0  0  0  0  0  0  0  0999 V3000
M  V30 BEGIN CTAB
M  V30 COUNTS 38 39 0 0 0
M  V30 BEGIN ATOM
M  V30 1 C -0.626609 -0.619111 -1.63481 0
M  V30 2 N -0.543189 0.132963 -0.457768 0
M  V30 3 C -1.33408 -0.158359 0.65495 0
M  V30 4 C -2.80728 -0.0625005 0.436692 0
M  V30 5 N -3.67884 -0.380926 1.42324 0
M  V30 6 C -5.01255 -0.306744 1.27366 0
M  V30 7 N -5.90484 -0.654421 2.35221 0
M  V30 8 N -5.47488 0.10497 0.0807317 0
M  V30 9 C -4.63335 0.433866 -0.934973 0
M  V30 10 N -3.32457 0.339364 -0.724289 0
M  V30 11 N -5.11086 0.867186 -2.18975 0
M  V30 12 C 0.233445 1.29768 -0.473082 0
M  V30 13 C 1.71812 1.10795 -0.600516 0
M  V30 14 O 2.25105 0.346919 0.464146 0
M  V30 15 C 3.60106 0.0550131 0.5473 0
M  V30 16 C 4.06341 -0.693227 1.61059 0
M  V30 17 C 5.41705 -0.969513 1.6682 0
M  V30 18 C 6.29955 -0.514941 0.692836 0
M  V30 19 C 5.7964 0.228412 -0.351333 0
M  V30 20 C 4.44063 0.522952 -0.437804 0
M  V30 21 Cl 6.90197 0.7945 -1.56807 0
M  V30 22 H 0.206542 -1.35871 -1.74373 0
M  V30 23 H -1.55165 -1.20948 -1.79331 0
M  V30 24 H -0.604338 0.099333 -2.50885 0
M  V30 25 H -1.05418 -1.14668 1.0846 0
M  V30 26 H -1.09579 0.59257 1.45882 0
M  V30 27 H -6.2517 0.144421 2.92651 0
M  V30 28 H -6.17178 -1.62486 2.53104 0
M  V30 29 H -4.53059 1.45461 -2.8251 0
M  V30 30 H -6.06481 0.607349 -2.51362 0
M  V30 31 H -0.167005 1.98955 -1.24592 0
M  V30 32 H 0.0644119 1.85175 0.498016 0
M  V30 33 H 2.04018 0.655107 -1.53163 0
M  V30 34 H 2.18379 2.11961 -0.550807 0
M  V30 35 H 3.41715 -1.06795 2.39278 0
M  V30 36 H 5.83474 -1.56014 2.49237 0
M  V30 37 H 7.36981 -0.755017 0.774478 0
M  V30 38 H 4.10359 1.10917 -1.27781 0
M  V30 END ATOM
M  V30 BEGIN BOND
M  V30 1 1 1 2
M  V30 2 1 2 3
M  V30 3 1 3 4
M  V30 4 2 4 5
M  V30 5 1 5 6
M  V30 6 1 6 7
M  V30 7 2 6 8
M  V30 8 1 8 9
M  V30 9 2 9 10
M  V30 10 1 9 11
M  V30 11 1 2 12
M  V30 12 1 12 13
M  V30 13 1 13 14
M  V30 14 1 14 15
M  V30 15 2 15 16
M  V30 16 1 16 17
M  V30 17 2 17 18
M  V30 18 1 18 19
M  V30 19 2 19 20
M  V30 20 1 19 21
M  V30 21 1 10 4
M  V30 22 1 20 15
M  V30 23 1 1 22
M  V30 24 1 1 23
M  V30 25 1 1 24
M  V30 26 1 3 25
M  V30 27 1 3 26
M  V30 28 1 7 27
M  V30 29 1 7 28
M  V30 30 1 11 29
M  V30 31 1 11 30
M  V30 32 1 12 31
M  V30 33 1 12 32
M  V30 34 1 13 33
M  V30 35 1 13 34
M  V30 36 1 16 35
M  V30 37 1 17 36
M  V30 38 1 18 37
M  V30 39 1 20 38
M  V30 END BOND
M  V30 END CTAB
M  END
