
     RDKit          3D

  0  0  0  0  0  0  0  0  0  0999 V3000
M  V30 BEGIN CTAB
M  V30 COUNTS 22 23 0 0 0
M  V30 BEGIN ATOM
M  V30 1 N 5.74272 0.190836 0.0125248 0
M  V30 2 C 4.35221 -0.0488989 0.286692 0
M  V30 3 N 3.77053 -1.14331 0.766395 0
M  V30 4 N 2.5209 -1.16878 0.94302 0
M  V30 5 C 1.78804 -0.0997011 0.648578 0
M  V30 6 C 0.297238 0.0425058 0.795937 0
M  V30 7 C -0.326844 -0.417021 -0.526566 0
M  V30 8 C -1.81595 -0.298324 -0.442195 0
M  V30 9 N -2.71116 -1.19161 -0.0347155 0
M  V30 10 N -3.93831 -0.904633 -0.0352256 0
M  V30 11 C -4.34722 0.292703 -0.442896 0
M  V30 12 N -5.68403 0.771471 -0.504889 0
M  V30 13 S -2.84538 1.02069 -0.841452 0
M  V30 14 S 2.98845 0.979845 0.0915098 0
M  V30 15 H 6.35488 -0.515373 -0.44481 0
M  V30 16 H 6.16291 1.10693 0.279551 0
M  V30 17 H 0.0846611 1.09089 1.00136 0
M  V30 18 H 0.00983647 -0.647131 1.59996 0
M  V30 19 H -0.0995524 -1.47151 -0.691138 0
M  V30 20 H 0.0618068 0.165904 -1.37437 0
M  V30 21 H -6.15452 1.21571 0.303096 0
M  V30 22 H -6.21122 0.674157 -1.39037 0
M  V30 END ATOM
M  V30 BEGIN BOND
M  V30 1 1 1 2
M  V30 2 2 2 3
M  V30 3 1 3 4
M  V30 4 2 4 5
M  V30 5 1 5 6
M  V30 6 1 6 7
M  V30 7 1 7 8
M  V30 8 2 8 9
M  V30 9 1 9 10
M  V30 10 2 10 11
M  V30 11 1 11 12
M  V30 12 1 11 13
M  V30 13 1 5 14
M  V30 14 1 14 2
M  V30 15 1 13 8
M  V30 16 1 1 15
M  V30 17 1 1 16
M  V30 18 1 6 17
M  V30 19 1 6 18
M  V30 20 1 7 19
M  V30 21 1 7 20
M  V30 22 1 12 21
M  V30 23 1 12 22
M  V30 END BOND
M  V30 END CTAB
M  END
