
     RDKit          3D

  0  0  0  0  0  0  0  0  0  0999 V3000
M  V30 BEGIN CTAB
M  V30 COUNTS 25 26 0 0 0
M  V30 BEGIN ATOM
M  V30 1 N 4.77568 -0.303384 0.575346 0
M  V30 2 C 3.36052 -0.241637 0.383649 0
M  V30 3 C 2.80281 0.180334 -0.805908 0
M  V30 4 C 1.43168 0.229346 -0.960917 0
M  V30 5 C 0.555053 -0.132594 0.0419342 0
M  V30 6 C 1.11704 -0.554163 1.2304 0
M  V30 7 C 2.48677 -0.604166 1.38821 0
M  V30 8 C -0.890548 -0.0730709 -0.143191 0
M  V30 9 C -1.78984 -0.912467 0.46305 0
M  V30 10 N -3.10727 -0.780558 0.230169 0
M  V30 11 C -3.6363 0.159537 -0.59376 0
M  V30 12 N -5.04598 0.247286 -0.799724 0
M  V30 13 C -2.75585 1.01424 -1.2143 0
M  V30 14 C -1.41539 0.886716 -0.982896 0
M  V30 15 H 5.31967 0.58506 0.66322 0
M  V30 16 H 5.30956 -1.19323 0.63406 0
M  V30 17 H 3.4892 0.463807 -1.59186 0
M  V30 18 H 0.985917 0.559692 -1.89099 0
M  V30 19 H 0.453891 -0.837837 2.01578 0
M  V30 20 H 2.94386 -0.936313 2.32473 0
M  V30 21 H -1.41614 -1.67781 1.12864 0
M  V30 22 H -5.49749 -0.368958 -1.4946 0
M  V30 23 H -5.5928 0.920602 -0.255587 0
M  V30 24 H -3.12845 1.7815 -1.88134 0
M  V30 25 H -0.755593 1.58807 -1.49789 0
M  V30 END ATOM
M  V30 BEGIN BOND
M  V30 1 1 1 2
M  V30 2 2 2 3
M  V30 3 1 3 4
M  V30 4 2 4 5
M  V30 5 1 5 6
M  V30 6 2 6 7
M  V30 7 1 5 8
M  V30 8 2 8 9
M  V30 9 1 9 10
M  V30 10 2 10 11
M  V30 11 1 11 12
M  V30 12 1 11 13
M  V30 13 2 13 14
M  V30 14 1 7 2
M  V30 15 1 14 8
M  V30 16 1 1 15
M  V30 17 1 1 16
M  V30 18 1 3 17
M  V30 19 1 4 18
M  V30 20 1 6 19
M  V30 21 1 7 20
M  V30 22 1 9 21
M  V30 23 1 12 22
M  V30 24 1 12 23
M  V30 25 1 13 24
M  V30 26 1 14 25
M  V30 END BOND
M  V30 END CTAB
M  END
